50164875
  -OEChem-04172616093D

 46 48  0     1  0  0  0  0  0999 V2000
    6.9772   -0.5536  -22.6822 C   0  0  0  0  0  0  0  0  0  0  0  0
    7.2680   -0.6609  -21.3097 C   0  0  0  0  0  0  0  0  0  0  0  0
    7.7461    4.6602  -20.0610 C   0  0  0  0  0  0  0  0  0  0  0  0
    5.8083    0.1077  -23.1051 C   0  0  0  0  0  0  0  0  0  0  0  0
    8.2664    4.8036  -21.3620 C   0  0  0  0  0  0  0  0  0  0  0  0
    5.2093    0.5410  -20.7810 C   0  0  0  0  0  0  0  0  0  0  0  0
    6.0592    4.3273  -22.3083 C   0  0  0  0  0  0  0  0  0  0  0  0
    6.3909   -0.1097  -20.3531 C   0  0  0  0  0  0  0  0  0  0  0  0
    5.5468    4.1833  -21.0063 C   0  0  0  0  0  0  0  0  0  0  0  0
    6.3821    4.3492  -19.8964 C   0  0  0  0  0  0  0  0  0  0  0  0
    4.9297    0.6634  -22.1549 C   0  0  0  0  0  0  0  0  0  0  0  0
    7.4239    4.6400  -22.4840 C   0  0  0  0  0  0  0  0  0  0  0  0
    4.3058    3.8054  -19.2289 C   0  0  0  0  0  0  0  0  0  0  0  0
    6.7813    1.7423  -17.5095 C   0  0  0  0  0  0  0  0  0  0  0  0
    5.4607    6.6168  -17.0278 C   0  0  0  0  0  0  0  0  0  0  0  0
    6.6589   -0.3648  -18.8852 C   0  0  0  0  0  0  0  0  0  0  0  0
    6.0118    2.7860  -16.7050 C   0  0  0  0  0  0  0  0  0  0  0  0
    5.2853    5.1848  -16.5063 C   0  0  0  0  0  0  0  0  0  0  0  0
    6.0777    4.1756  -17.3666 C   0  0  2  0  0  0  0  0  0  0  0  0
    4.2801    3.8581  -20.5427 N   0  0  0  0  0  0  0  0  0  0  0  0
    5.5915    4.1305  -18.7874 N   0  0  0  0  0  0  0  0  0  0  0  0
    3.2168    3.4603  -18.4434 N   0  0  0  0  0  0  0  0  0  0  0  0
    6.0733    0.6730  -18.0337 N   0  0  0  0  0  0  0  0  0  0  0  0
    7.9804    1.8904  -17.7220 O   0  0  0  0  0  0  0  0  0  0  0  0
    3.8055    1.2943  -22.5609 F   0  0  0  0  0  0  0  0  0  0  0  0
    8.0748    4.8189  -24.0924 Cl  0  0  0  0  0  0  0  0  0  0  0  0
    7.6509   -0.9785  -23.4116 H   0  0  0  0  0  0  0  0  0  0  0  0
    8.1660   -1.1672  -20.9878 H   0  0  0  0  0  0  0  0  0  0  0  0
    8.3853    4.7873  -19.1998 H   0  0  0  0  0  0  0  0  0  0  0  0
    5.5853    0.1889  -24.1587 H   0  0  0  0  0  0  0  0  0  0  0  0
    9.3112    5.0390  -21.5020 H   0  0  0  0  0  0  0  0  0  0  0  0
    4.5214    0.9442  -20.0525 H   0  0  0  0  0  0  0  0  0  0  0  0
    5.4143    4.1996  -23.1652 H   0  0  0  0  0  0  0  0  0  0  0  0
    4.8861    7.3104  -16.3964 H   0  0  0  0  0  0  0  0  0  0  0  0
    6.5257    6.8901  -16.9975 H   0  0  0  0  0  0  0  0  0  0  0  0
    5.0961    6.6767  -18.0639 H   0  0  0  0  0  0  0  0  0  0  0  0
    6.2261   -1.3375  -18.6086 H   0  0  0  0  0  0  0  0  0  0  0  0
    7.7464   -0.3874  -18.7211 H   0  0  0  0  0  0  0  0  0  0  0  0
    4.9592    2.4751  -16.6320 H   0  0  0  0  0  0  0  0  0  0  0  0
    6.4460    2.8501  -15.6963 H   0  0  0  0  0  0  0  0  0  0  0  0
    5.6475    5.1339  -15.4689 H   0  0  0  0  0  0  0  0  0  0  0  0
    4.2179    4.9206  -16.5354 H   0  0  0  0  0  0  0  0  0  0  0  0
    7.1303    4.4949  -17.3728 H   0  0  0  0  0  0  0  0  0  0  0  0
    2.4310    3.2640  -19.0299 H   0  0  0  0  0  0  0  0  0  0  0  0
    3.4397    2.6493  -17.9025 H   0  0  0  0  0  0  0  0  0  0  0  0
    5.0995    0.6053  -17.8165 H   0  0  0  0  0  0  0  0  0  0  0  0
  1  2  2  0  0  0  0
  1  4  1  0  0  0  0
  2  8  1  0  0  0  0
  3  5  2  0  0  0  0
  3 10  1  0  0  0  0
  4 11  2  0  0  0  0
  5 12  1  0  0  0  0
  6  8  2  0  0  0  0
  6 11  1  0  0  0  0
  7  9  1  0  0  0  0
  7 12  2  0  0  0  0
  8 16  1  0  0  0  0
  9 10  2  0  0  0  0
  9 20  1  0  0  0  0
 10 21  1  0  0  0  0
 11 25  1  0  0  0  0
 12 26  1  0  0  0  0
 13 20  2  0  0  0  0
 13 21  1  0  0  0  0
 13 22  1  0  0  0  0
 14 17  1  0  0  0  0
 14 23  1  0  0  0  0
 14 24  2  0  0  0  0
 15 18  1  0  0  0  0
 16 23  1  0  0  0  0
 17 19  1  0  0  0  0
 18 19  1  0  0  0  0
 19 21  1  0  0  0  0
  1 27  1  0  0  0  0
  2 28  1  0  0  0  0
  3 29  1  0  0  0  0
  4 30  1  0  0  0  0
  5 31  1  0  0  0  0
  6 32  1  0  0  0  0
  7 33  1  0  0  0  0
 15 34  1  0  0  0  0
 15 35  1  0  0  0  0
 15 36  1  0  0  0  0
 16 37  1  0  0  0  0
 16 38  1  0  0  0  0
 17 39  1  0  0  0  0
 17 40  1  0  0  0  0
 18 41  1  0  0  0  0
 18 42  1  0  0  0  0
 19 43  1  0  0  0  0
 22 44  1  0  0  0  0
 22 45  1  0  0  0  0
 23 46  1  0  0  0  0
M  END
> <OMEGA_C>
mkXfQHy1Db8rdbXBbJPoQD8yKb8xeqrBIuD3QL0glUDjfKDBfd25QE6Y3D0317jBYEMEQTe3mUB4
5arBnrKmQDOCCj+JP6bBveTBQNZ4ikBUd7LBj4LMQH7D4L0x06LBkX+xQN/dhUD3DKjBzznMQFUs
i0DjK5/BScCdQL3RKT8vPbHBcpDtQPx6lEBE37PBcMmJQHmMc0DL1JnB0QDZQD0F3z+LE4zBtb2u
QJa800D9OIjBuBXVQLLHur7QFJfB0WDAQBVNMkDQo4XBbiGpQKbppUD2DITBLnzCQL+ehUC27orB
TvaIQDfrdkBpV6TBw+2yQP4shECBTJbBqt9NQOd1XUAPjJPBTVjCQF5HLD/rRJDBxV//QEz58T+W
xo3Bz4xzQAirpT+zfLTBeDIBQXs0mkA1vcDBedT0QDB+er/nSrvB/acCQTNolb/85qfBRyoGQaAx
mUAmmZnBdLqyQNtnQT79RMHBfPoUQUc/oUAtBKzBpq+QQPa4cT+Za6DBF0KtQD5jhkBBUrnB2Vqc
QAXv6UDOK4PBxNLQQJl73EDK+ofBbxOjQNWn1UDwgpDBETzHQE40q7993pTBKeL3QNFWxr68xJXB
l7GeQExoHkBTDoXBd0XOQC5oNkArJHvBjri0QC5JpECsgHfBOfmGQGp1nUB8SITBOCvkQIXWj0CV
+4rBnZUbQK/kUEBBPZjBoyRcQNiOKUA8OI/B+y6jQK33Gj80iI7BCsCFQGiw6L5b56zBxc+XQMHp
mr6FpaLBUKn3QGqBoECT7p/B/oyeQIcKer9IV7XBt+MDQUg5q0CQH6rBHabbQCiFmL/dR6nB4NvC
QCjWmEBpPbLBtCzDQKaqJr9t06DBWfOyQNYijkBpCqjBoBrNQA71kUAL/Z7BGHLJQCvcrL/MhLPB
mW/tQIJpp0D4Q7PByuGLQB7cc0CfQprBod/ZQOl92T/VVYzBTPuqQA7x0kAZ+IfBSeLWQMgWDb99
vJXBNt3AQArAL0B034XBUNmnQISApEB97IPBrbnCQF49hUDP4IrBNTqLQJlwfkBStaTB60m0QGpW
hUBDYpbB/exSQMrXVkBwQZTBXhvEQNaADj9hlI/Blev/QGBv7z+xWY7BWCLhQKr17r9albvBl9IA
QVS6tECC3L/BVsFJQKeJLr6/TK7B95GEQHF4pD3rJ5zBhdcFQbVno0BU7ZjBAbSQQOydi79ONL3B
0ikUQdhetkDQ8arBPnP8QAYBvr+F5afBZauuQDLrlUDZNrnBLoqXQCHi50CX1ILBeo/MQA913UCY
uofBFBefQE6p1ECYPZDB7T7RQGE3v79DbZHBfoX5QFsjxL6HipbB7i+fQCuVG0B+bIXBNWjOQCrF
MkCghHvBbZyzQNIyo0CkRXfBBiSGQBJnmkDSJYTBMTTkQEsPkEAanIrBnSshQJeIS0CxFZnBcTtj
QKrLIECpfJDBPjqlQJnA9j5mkY3B0D+uQGOXkr8Wc7LBhfexQLfQpb9MRqfBm+z2QNxHmkDq2aHB
f5vEQFCW6L3UurfBDG4CQUp4okDcY6zBcp3iQK6lHT84sabBJP68QMQSk0ClLbPBukjMQCxo1b6e
WqHBrUivQLjgikBqpKjBz/LLQMR9jkC5EKDBCLreQCy2RD8y1rHBDPPnQPznnkCUCrXBJ82KQMtq
dkAfFZrBZSPYQM/q1D/ZfozBZc+/QLQUrEDe9HLBUwzRQFuBGL9xX5XB9hHCQDnEMUCuLIbBedqu
QO69qEAID4XBBeHFQEJahUAsrIvBgL+HQHPNfUAzi6TBmb+0QHqmhEAv9JbBBEpSQMeQX0DubJPB
t8u/QNpgED8emY/BM5b+QPp73j8FbI7BrW70QEmQ4D/737bBJ4P5QFjEqECXE8LB0kGaQJsX6b+C
+LbBFa+gQLlLBcBxPKPBl3YGQZYCnUAyOZvBD7jBQEkEZDpvSsDBd9oSQX58q0D62a3B6b32QCQn
pT8YMqLBntamQGdUkEAkxrnBYm+uQC1+xUDva2rBOOq6QE5jjUDjsWrB1iniQBq7s0CwQnPBdpi/
QOfev7+64pLBHCzzQONuNb+EaZPBwPSfQF25IUAdWYXBItDQQGKkNUCDZXzB5XOMQPhdoUCpx4TB
grOzQMS1x0AQEInBAg/oQGunjUDnA4zB36IdQK/jVUA8z5fByDRhQInNKUCcgY/BjqGgQClaED89
yI3Bu72dQEDCOD8nYLLBOd6aQApH9T5KSKfBxb31QF7UnECpS6PB/tbFQF4HLD/BiLfBBKoBQURh
n0BmCa7BcEvoQKuCID4ifqbBEBW+QCCfg0D9A7TB+CnAQNDiQD5PU6HBEKuwQMc0gUBIR6nBw0LM
QHeUjUBVAqHBgBvrQOS3xj58lrHBRpbnQOmykkBfYrbBalaNQLuebkBUO5rBvnfVQIIq/D/sfIvB
r8e7QHfmv0DX0nfBn0y9QNRszL0vcpXBAG7HQBy6TkBoZ4XBD++rQB6XtEAFQofBZqfGQCItkEC+
iIzB+GSKQPPiZ0B3sqTBmdW1QB02h0BEmpfB+D5aQLVCWEDTHJPBGYy1QKbmjz/LTY/Bh4D7QJ9x
4T/NRo3BxMkIQdORpz5gh7bB/674QIy7lUCeqcPByDqBQCcScj8P67bBq0h4QAv0Az+AVqPBn24F
QTZypkDK5JzBpAPIQIXqWT95CcDBqoARQfcMq0AA46/BUXYCQeeaOb1f7qHBv8qoQIkJdEBLYrrB
jNqnQB6u2UAWKnHBQYS5QGt5o0BRgW3Bl0bdQAKaykCLn3jBsN6iQDjSTb/WA5TBWI/bQNkXDb+d
xJLBERKnQJoMREA/NYLB4tLdQHt4WUBMf33Bd1yKQK41qkB3v4bBzR6uQEVW0UCUTozBG8nnQOWv
m0D4Ro3BTI8nQICXQkBgLZfBH4FvQFx6KkDIMY7BbSmXQE5Prz/EvY3BsW/TQOyhhj85pLXBe+LD
QIYaIj/tmKvBafL1QKTVl0C1h6HBk+H/QOG8jT9BiLfB3gYCQeBlnkDhHqzBuKYGQfn1qD5HUaXB
z4O8QH8YjUBK17LBxs7gQO97hD4bcaPB9aSuQCF1hkBAQKjBtBLLQBDUi0DRsJ/B2mgOQURXPz9F
Xa/BD2bnQCUKmUCgw7TBSROKQDhecUD9lJnBhy/YQF9d2D9UjIvBrwuxQEFj1UBarInB9DPQQGXJ
Wr59s5jBJxHCQDajNEBbXYXB8zatQHmdqECGmoTBaezEQOPrhUC7Q4vBXDCHQLEidUDDE6TBvcyz
QBdKg0CKhZbBkRtRQIGaW0AE1JLBdHq/QNdfaD/AYZLBieD+QOIAwj+6morB/r0jQePVSz8sLLHB
hCf5QDMEoUDO28HBQku9QLhAqj/747vBKNehQA9IGT/TIqrB8t0FQe/0m0Ai55rBoOIFQR11tj9A
PL/BdWoSQWCKp0AJoa3BQ74RQQp0gz0AC5/B2ImmQJ4ViUDtbrnBndmfQAfN7EAYtITBdf7SQHV0
3kChMYrBCQmjQL3g1EDCvpHBf2m2QJe4cb8gAprB8nrqQGAFMb8RRJTBXyKgQET9I0BwS4TBh27R
QGIBO0CK+XrBwBy7QDuRqUBJC3nBVCeLQIT9n0DGEoTBy+LmQJUHj0Caq4vB47wcQEuAT0C6K5fB
juNgQAqAJ0BHn47BhFagQMrKjz/JBpPBDTPaQK5q/L7oY7LBh03PQNZQLb/pi6fByWj1QFcQlUCo
raHBHzkCQe0aF76VOrXBvPwBQYYonkDZHazBmXAMQTq8Ir53XqLBBHm7QKr/k0DSGLPBS7ruQLSZ
Bb8khJ/BxB6tQGDtikDhqKjB387JQKJui0C9CqDBN+MRQXCDrzx8N63B7RHnQJmfnUB+0LTBDIOH
QBtldkDCSJrByIrbQL16xj8nVovBuke0QCsS0ECnuojB/BbjQF1BOr+V35PBfk69QDWsJkBOk4bB
i+usQBJTokCMiYTBuNDCQBE2gEDZvovBvduEQEy/gEB1s6TBweqxQP6VgUADDJfBEBBKQMT9YUA2
xJPBjdPJQH70zT4BzY/BEzgBQUY02j+6uIrBsSkmQfjNtD7g7q/BOVn5QMTbqED1t8HBsC/CQMra
Hb9XhrjB1+auQFvUb78NYKXBzbMFQSR5lUDPA5vBgmkGQZVNSbx9ir3Bf6YSQa6MpUA7d63BCmYY
QUF4nryqO5zB1lGlQESYk0BMurnB/EqkQOIZ50BmaIPBlc/WQAHb1kD17YjBhgCnQF/w0kDv2JDB
/TjQQExZ07/BGZPBP04AQY5eUb+qIo/BDR2cQLlpEUCMzofBecbDQOcCLEDx5nvBqh66QKLgn0AJ
znjBm0+KQAD2m0D+UYTBs0DlQBpyh0DV9ovBTA4VQFFHXUDtNZjBqjFVQCYjKkDtHZDBJ/CpQHdC
rz4BRJDBDnjnQJMbPr9JWLXB9xreQI+LeL9TeKrBrqH1QLj5kUA4+qDB7UwAQd7euj6WWbjBbXoC
QUSTmUDDaqvBeXwDQaDDgj8xl6XBkDi9QJx5jUCSrbLBBc7tQI4EuL1WjqLBtfatQP6ThkAqOKjB
5fLJQP57iEAaeJ/BOj0IQVkonz/yerDBbevoQAThlkAnRbTBawaHQKZcdEAo3pnBpEDYQP2uxT+X
04nBhne1QDyo0EDg/YjBjFjkQKzRtb4G3JbBNuq5QHIAKEBMkYXBWU+sQFDqo0DiWoTBnGfBQEXJ
f0B+HYvBPEOFQCuJe0AzWaTBZlKxQL4rgECugJbBNrFHQDkZZEB9Z5PBD9vKQLJmPj+XTJLBue37
QPQYtj+Z1oXBacsUQX8BEkCdZbPBf3z8QJ7NnkA8NsHB7V/bQONftb/SYLvBJ+HKQLgl6b8XLqjB
9o0FQfZok0DKN5rBp9kDQQV1Cj8UsMDByx0TQRt8oUCsp6zBJ3YJQRa22T8Uk5/BS62nQJyVi0DQ
arnBP/2lQGoW6UCp+YPBvTfYQP471kDIIYnBm72oQGya0kCXLpHBk1bSQAjfpb9hIZbBa1YBQd82
4b7icZLB47WYQFC0E0DKA4fB5i+/QKtqL0Ar1XnBhPi4QBtmokAwTnjBY36JQInEnkDnM4TBoRjk
QMrUhUBVP4vBjj4TQKXkXkBI8ZfBVvNQQAF7LUDqZY/BZhmuQJE5bT80fZXBuYGCQO6Rjr5r6azB
MaSPQA5qz74oK6LBsJz1QFwTqUAq/J/BlvmgQICOfLyZ9rTBjg4DQTy1skA0NKrBea7ZQKC6GDzj
hafBZ53FQDQ0lUAti7LBX127QIKVjL5yeJ/B40q1QKyni0DtUKjBFQzNQOaRlUBVJJ/BHI7MQHoL
Bj4JQ7LBzCbuQCTVqEBHeLPBfpqOQJhwbUAFiprBZJ7VQMRY8D8ISIzBswCuQKX4sEB8SHLBc8HJ
QDZo3L6X+ZPBsfTCQBv/P0AQT4XBSW+iQP1tq0CBEoXB/kLBQPw1jEC6+orBPjSPQHxwcUDMDqXB
KYa0QBlSiEBBjZbBsOhaQDjYSkCKi5TBcva8QBEyOz+ulo3BFtD4QLgoAEABiZDB09rpQFyawz4h
+bnB4mQBQWvutEC7GMDB6TlCQD0KxL6H+a7BF5FwQIQYGr+b/5vBsukDQVGMsEBG4pjBSvGWQM2m
lz1AM73BOJASQZKpwUCw86rBDv/6QDTLCD5lc6XBEEqzQMmUjUDknbnBGk6XQFFAx0AFvmrBF06s
QNzBkUA+MWrBLKbOQJ7YvUAp6nDBFxe7QODxqr+JkpDBP8/sQJDmBr/AwpPBSzOiQMn+LUCjAIPB
qdjWQDExRkAGLnzBfKiBQC3MnkD9o4XBkgCkQPDiykByAInBMpHhQCcfmkDcoorB3eosQNfHNUAg
cpnBlhhxQA8RGkDLK5DBUI2gQMaUMj/J6onBt/3TQMjdKb0/crbB9WvGQEG9t754/qvBSJz1QMSV
lUCwc6PB0KL3QBLGTD+kBLjBQ+wAQVxzmUDMRa7BJisAQQt8gD/VsqTBQE25QCZ5hkCV77PBnJzc
QDATJT7OEaPBLCatQAQag0CdHqnBTAzLQDRkikAP9qDBiucGQZokqT8cIq/BMdjjQL2bkUAzgbbB
7M6KQENidECn5ZnBz+DYQLh54j+bgIvBg+rFQC3VtkDebnbB27LOQJpRVb7P05fBonTEQI6jPUDB
y4XB4AyzQFFCr0C3eobBOk3IQEnjiECeY4zBKjWGQFOlckAuXKTBwE21QOxRhEAXbpfBbDVUQPYn
ZEBYqpLBtCu/QO4ReD8x+JHBMj7/QPlCxj+WW4rBrycYQRqHB0DimbDBFobzQFtylUCT4cPBwA7D
QKkE477cQb3BIAerQJoNgL/azqrBbEoGQcgim0DGJZ3BCPkAQVK3hT9mB8DBVR8RQaZuokDrRbDB
Ya8IQevpsz8S553B0kWiQDSXgEBGNbrBHbm1QOo20kAT5m7BCR7BQHMRmkCSk2zBqFroQPyZvUBY
x3fB+tm0QKHnc783S5jB0R3qQAhvI783g5PBUVyiQDvLL0AvdYTB8oHUQJPFRkB/GHzBHJeQQO/R
qEB2r4XBu9O3QHlazEBZSYvBpo/qQLgukEBoQo3B5DkeQDY8V0DNpZbBnvdjQLv9MUDUGo7Bsj6g
QD72mj8Zq5LBt9hXQOPsC8DBHp/B91+MQCZcnr9AM53BgR73QEZLm0BBwaDBv1heQHPKXsC6u5rB
/TcDQVGPo0A4KqvBAz6zQLkJOMDOa5LBxiXAQCvPkUDlmrLBDzWwQPEcyr+e25bBtAmxQJiPiUCE
MKjBSkTMQH1CjkAeXZ/BjtKSQMvgdMCTYpTBzgPrQKPUnkAwFLTB9OKKQIRmckDX75nBzVfYQAu5
1z+auYvBs3+uQD5+1EDJ9YjBHB7TQPIPDr8q1pTBGAXBQBufMkC0f4XBzYCqQHYBp0ARU4TBUavD
QIafhUBVD4vBmkGJQMoceUCmbaTBLga0QOUHhED8dZbBTmlRQEnfWUDzi5PB7NTAQPxqFD+N/Y7B
a47+QEiJ5T+4043Bj/mVQCRCosDeMpDBzz/+QDYUqUCN8sDBRx4hQIL19b8j9KPB+NyJQGddfL7z
lKDBPvwFQafnnkCO7JnBIbgsQMWwhsDKO5zBoJkTQe+GrUD+U6zBsGzOQB/mSMDyhI3B8yCrQJI0
jkBuZ7nBcUGcQLz76kAf9YPBvWDQQLoI3kDLE4nBbLmhQDv01EDKKJHBzNLsQMBzgb+ND5DBqTTg
QH8aVL5ohJzBpSCfQH+vIEAdtoTBiXzPQNTZN0CQAXvBSym3QHz4pkDxOXjB+4GIQPzjnUD4MYTB
2XjlQPlvj0A5IovBj0seQMpfTkAcJJjBOd1gQDrLJEAIhI/BDZuhQJd4Dj9kQI3B

> <OMEGA_E>
gA0kPUxYxD4g5NE+ELzePkDE9z6wQ/w+KAAPP9wYET+Ejxc/bGUdPw==

> <OMEGA_NBR>
      8286

$$$$
50164877
  -OEChem-04172616093D

 46 48  0     1  0  0  0  0  0999 V2000
    7.2830   -0.6502  -21.3132 C   0  0  0  0  0  0  0  0  0  0  0  0
    5.2267    0.5600  -20.7902 C   0  0  0  0  0  0  0  0  0  0  0  0
    7.7446    4.6376  -20.0710 C   0  0  0  0  0  0  0  0  0  0  0  0
    6.9942   -0.5455  -22.6853 C   0  0  0  0  0  0  0  0  0  0  0  0
    4.9478    0.6784  -22.1641 C   0  0  0  0  0  0  0  0  0  0  0  0
    8.2625    4.7701  -21.3743 C   0  0  0  0  0  0  0  0  0  0  0  0
    6.0523    4.2900  -22.3118 C   0  0  0  0  0  0  0  0  0  0  0  0
    6.4042   -0.0979  -20.3597 C   0  0  0  0  0  0  0  0  0  0  0  0
    5.5415    4.1606  -21.0077 C   0  0  0  0  0  0  0  0  0  0  0  0
    6.3795    4.3334  -19.9010 C   0  0  0  0  0  0  0  0  0  0  0  0
    5.8226    0.1100  -23.1100 C   0  0  0  0  0  0  0  0  0  0  0  0
    7.4168    4.6002  -22.4930 C   0  0  0  0  0  0  0  0  0  0  0  0
    4.3004    3.8111  -19.2244 C   0  0  0  0  0  0  0  0  0  0  0  0
    6.7833    1.7399  -17.5159 C   0  0  0  0  0  0  0  0  0  0  0  0
    5.4574    6.6110  -17.0376 C   0  0  0  0  0  0  0  0  0  0  0  0
    6.6645   -0.3638  -18.8930 C   0  0  0  0  0  0  0  0  0  0  0  0
    6.0130    2.7813  -16.7105 C   0  0  0  0  0  0  0  0  0  0  0  0
    5.2983    5.1817  -16.5040 C   0  0  0  0  0  0  0  0  0  0  0  0
    6.0821    4.1715  -17.3698 C   0  0  2  0  0  0  0  0  0  0  0  0
    4.2732    3.8485  -20.5388 N   0  0  0  0  0  0  0  0  0  0  0  0
    5.5900    4.1288  -18.7886 N   0  0  0  0  0  0  0  0  0  0  0  0
    3.2098    3.4843  -18.4330 N   0  0  0  0  0  0  0  0  0  0  0  0
    6.0775    0.6683  -18.0373 N   0  0  0  0  0  0  0  0  0  0  0  0
    7.9815    1.8916  -17.7311 O   0  0  0  0  0  0  0  0  0  0  0  0
    5.5226    0.1656  -24.4258 F   0  0  0  0  0  0  0  0  0  0  0  0
    8.0604    4.7809  -24.1042 Cl  0  0  0  0  0  0  0  0  0  0  0  0
    8.1809   -1.1552  -20.9890 H   0  0  0  0  0  0  0  0  0  0  0  0
    4.5420    0.9714  -20.0633 H   0  0  0  0  0  0  0  0  0  0  0  0
    8.3865    4.7675  -19.2122 H   0  0  0  0  0  0  0  0  0  0  0  0
    7.6710   -0.9678  -23.4134 H   0  0  0  0  0  0  0  0  0  0  0  0
    4.0637    1.2046  -22.4929 H   0  0  0  0  0  0  0  0  0  0  0  0
    9.3074    5.0020  -21.5184 H   0  0  0  0  0  0  0  0  0  0  0  0
    5.4062    4.1533  -23.1663 H   0  0  0  0  0  0  0  0  0  0  0  0
    4.8892    7.3057  -16.4016 H   0  0  0  0  0  0  0  0  0  0  0  0
    6.5213    6.8902  -17.0261 H   0  0  0  0  0  0  0  0  0  0  0  0
    5.0761    6.6621  -18.0681 H   0  0  0  0  0  0  0  0  0  0  0  0
    6.2283   -1.3376  -18.6255 H   0  0  0  0  0  0  0  0  0  0  0  0
    7.7511   -0.3899  -18.7240 H   0  0  0  0  0  0  0  0  0  0  0  0
    4.9599    2.4712  -16.6405 H   0  0  0  0  0  0  0  0  0  0  0  0
    6.4450    2.8430  -15.7008 H   0  0  0  0  0  0  0  0  0  0  0  0
    5.6773    5.1397  -15.4722 H   0  0  0  0  0  0  0  0  0  0  0  0
    4.2321    4.9116  -16.5142 H   0  0  0  0  0  0  0  0  0  0  0  0
    7.1360    4.4862  -17.3803 H   0  0  0  0  0  0  0  0  0  0  0  0
    2.4214    3.2875  -19.0158 H   0  0  0  0  0  0  0  0  0  0  0  0
    3.4270    2.6780  -17.8828 H   0  0  0  0  0  0  0  0  0  0  0  0
    5.1052    0.5952  -17.8151 H   0  0  0  0  0  0  0  0  0  0  0  0
  1  4  2  0  0  0  0
  1  8  1  0  0  0  0
  2  5  1  0  0  0  0
  2  8  2  0  0  0  0
  3  6  2  0  0  0  0
  3 10  1  0  0  0  0
  4 11  1  0  0  0  0
  5 11  2  0  0  0  0
  6 12  1  0  0  0  0
  7  9  1  0  0  0  0
  7 12  2  0  0  0  0
  8 16  1  0  0  0  0
  9 10  2  0  0  0  0
  9 20  1  0  0  0  0
 10 21  1  0  0  0  0
 11 25  1  0  0  0  0
 12 26  1  0  0  0  0
 13 20  2  0  0  0  0
 13 21  1  0  0  0  0
 13 22  1  0  0  0  0
 14 17  1  0  0  0  0
 14 23  1  0  0  0  0
 14 24  2  0  0  0  0
 15 18  1  0  0  0  0
 16 23  1  0  0  0  0
 17 19  1  0  0  0  0
 18 19  1  0  0  0  0
 19 21  1  0  0  0  0
  1 27  1  0  0  0  0
  2 28  1  0  0  0  0
  3 29  1  0  0  0  0
  4 30  1  0  0  0  0
  5 31  1  0  0  0  0
  6 32  1  0  0  0  0
  7 33  1  0  0  0  0
 15 34  1  0  0  0  0
 15 35  1  0  0  0  0
 15 36  1  0  0  0  0
 16 37  1  0  0  0  0
 16 38  1  0  0  0  0
 17 39  1  0  0  0  0
 17 40  1  0  0  0  0
 18 41  1  0  0  0  0
 18 42  1  0  0  0  0
 19 43  1  0  0  0  0
 22 44  1  0  0  0  0
 22 45  1  0  0  0  0
 23 46  1  0  0  0  0
M  END
> <OMEGA_C>
Qw7pQDxxJr+JgarBFEGnQKReDz9hUqbBy9P3QNpmlEB3kaDBxtDfQCylC7+Ke7XB/FOeQB6tLT/9
T7HBIDMEQeekmECV/qrBFazBQO5HiUCLfrLB0u7MQMh4yL234KLB2VOxQMMjhUDYD6jB9CTMQIqr
ikBRNZ/BDlO6QIJd4T1c4bjBbVbtQME0k0Cx8bPB8ZyJQB3pc0Chy5nBGRHZQHW23j+OIIzBTqOu
QA6N00DzTIjBU0PVQJtHur7oJJfBamrAQI4AMkAnr4XBC4ypQJXQpUA5CITBKKDCQAN9hUBs9YrB
yb2IQO9NdkCFT6TB4+CyQN4ehED/TpbBgW1NQAD/XkDCdpPBn3rCQNQXKz9wTJDBRmj/QJke8j9e
2Y3B0LiwQJWbKT4PaMPBQfcAQTn9mEBq1cDByuQCQSbfk7+A6afBYliRQIeteD+fgaDB8S4GQXeP
mECmspnBd3j1QPXCd7+hTrvBMAqCQMMumj9l8bPBJesUQVEQoEC7JazBQ/+sQN7nhECsVLnBj3Sc
QFHI6UBwNoPBza7QQJ583EBcNYjBKW+iQMkv1UBui5DBF07HQL81q78UAZXB6Qj4QJ+kx76yypXB
zLeeQLMnHkCpH4XBcj3OQEr0NUB0NnvBy6y1QKZ4pEA4jnfBJm2HQNErnUAvHYTBT1rkQPCOj0Dx
CovBbvgaQMpmUkBsIJjBKlRbQCtkK0AOEI/BAl6jQDZiGD88hY7BR/alQC9LCD81aqbBTwHpQDZA
IL9DUarBdgv4QErClEBTd6DBUVqdQAG7Hz/ob7HBZxrgQPc3DL/UUrXBr0YEQT0kmkC33KrBc9zB
QLg7i0CecbLBY/zLQL7Wu71B0aLBtpmxQGDUhUAXCajBmGTMQH7PikBTKJ/BwQ+6QDV5gD1p37jB
d3LtQCuylUDn1bPBh/CJQH74ckDbz5nBWtDYQElJ4D+ZDYzBgL6uQAoB1EAASYjBULHTQNNfsr7U
DZfBOtfAQGhFM0A9iIXBwfeoQEI5pkCaGoTB35PCQGPjhUCx6orB1RqJQFJddkBZU6TBUxOzQLvw
g0AESZbBfzlOQHsIXUDkgZPBJ27BQEeHND/PV5DBHyz/QBtz8T8w2Y3BY6KwQA40pz1oasPBRfUA
QY18nUAXrMDBRo2PQCA+cD8ZsqDBghMDQbVejL8RmqfBc04GQdI3mECvk5nBSsWAQGnajz+DMbTB
e272QBeldL/gDbvBFf4UQfStoUCm+avBnjGtQLFph0BvTbnBMy6cQEI/6kCESYPBnNHQQP+93EDw
94fBSmKjQA7c1UDxmZDBvvLEQCeRp78Z3pTBw2L2QF6Ey75tnpXBDDOfQGiLH0CuvYTBsXbPQCLE
N0AqGHvBKUG0QGWnpEA8jnfB2NGGQHTFnUAfaYTBDi3kQLdhkEBs/IrBzNQbQMqOUECYL5jBEHZc
QHYcKUCRLo/BuReiQJXCKj+zwI7BrfraQBSBD8CFNZvBOprEQJQajb811orBrxL4QD/blEDLRaDB
wMPaQLjGXcC5o5XBzFfFQKFFFMBmRIXBc8EEQeTNlUA8pqrBwJvDQDkLg0C0KrLBAZvPQH4Rh79h
45XBRWWyQG8XgkC5xafBtErMQCR6i0CZ9Z7Bpu/PQNAQYMDhrorBcDrvQP5UjUBPl7PBv86JQN9d
dUCbfZnByY7ZQBfy9T/fr43BCp6qQGmg1UDWIIjBCEjPQIB4bz6wP5zBZI7DQM7uN0Aa5oXBTXSo
QKLQp0Ags4PB66zCQMYpiUC+xIrBDNSJQFz9b0B+/qPBZnayQOqfh0DdEpbB/HROQLy7X0BME5PB
xJzAQK3qqj/BoZXBIC8AQcLw3z8UQI3B3izPQCuilcD5WoXBtmYCQd26j0AnccDBKt3jQMfHDcBP
jqPB/5+7QE6VR76JuYbBjAEGQQI+m0AHZpnB+OniQHgkjMCQw5nBgsu9QDfoFcAurXnBQIEVQaoD
nUBVxqvB8KSvQFPxd0CD/rjB87yXQIkT60BL/YLBkh7MQHxp4EBRRYjB6YydQNsx1kBZTJDB1N7v
QBZD5T7HGZ/BT7O5QLVr+z3RJKPB6Z2iQOsSIkC7bYTBbVDVQBEsOUDKmnzBXni1QGlop0BRDHfB
teaGQMkwnUAwjYPBQ8rjQOsTlUAg8orB3PUdQEblS0BKq5fB+3dfQD7JMEBGEo7BEhmjQC1t2D+v
15bB

> <OMEGA_E>
wHIePQDbIT2M9iA/

> <OMEGA_NBR>
     10957

$$$$
50164876
  -OEChem-04172616093D

 48 49  0     1  0  0  0  0  0999 V2000
    7.7585    4.7389  -20.0538 C   0  0  0  0  0  0  0  0  0  0  0  0
    8.2640    4.9218  -21.3555 C   0  0  0  0  0  0  0  0  0  0  0  0
    6.0772    4.3479  -22.2945 C   0  0  0  0  0  0  0  0  0  0  0  0
    5.5772    4.1731  -20.9917 C   0  0  0  0  0  0  0  0  0  0  0  0
    6.4116    4.3601  -19.8849 C   0  0  0  0  0  0  0  0  0  0  0  0
    7.4266    4.7191  -22.4746 C   0  0  0  0  0  0  0  0  0  0  0  0
    4.3636    3.7183  -19.2134 C   0  0  0  0  0  0  0  0  0  0  0  0
    6.7140    1.7206  -17.5323 C   0  0  0  0  0  0  0  0  0  0  0  0
    6.6739    7.1638  -17.2794 C   0  0  0  0  0  0  0  0  0  0  0  0
    4.3798    7.4605  -16.3046 C   0  0  0  0  0  0  0  0  0  0  0  0
    6.1455    0.4898  -20.5985 C   0  0  0  0  0  0  0  0  0  0  0  0
    7.5735   -0.8532  -18.9914 C   0  0  0  0  0  0  0  0  0  0  0  0
    6.0681    2.7801  -16.6550 C   0  0  0  0  0  0  0  0  0  0  0  0
    5.2917    5.1534  -16.5328 C   0  0  0  0  0  0  0  0  0  0  0  0
    5.2598    6.5557  -17.1751 C   0  0  0  0  0  0  0  0  0  0  0  0
    6.1175    4.1498  -17.3535 C   0  0  2  0  0  0  0  0  0  0  0  0
    6.2091   -0.1699  -19.2087 C   0  0  0  0  0  0  0  0  0  0  0  0
    4.3272    3.7892  -20.5258 N   0  0  0  0  0  0  0  0  0  0  0  0
    5.6394    4.0803  -18.7760 N   0  0  0  0  0  0  0  0  0  0  0  0
    3.2954    3.3291  -18.4199 N   0  0  0  0  0  0  0  0  0  0  0  0
    5.8667    0.7919  -18.1394 N   0  0  0  0  0  0  0  0  0  0  0  0
    7.8985    1.8387  -17.8264 O   0  0  0  0  0  0  0  0  0  0  0  0
    8.0675    4.9118  -24.0853 Cl  0  0  0  0  0  0  0  0  0  0  0  0
    8.3959    4.8871  -19.1947 H   0  0  0  0  0  0  0  0  0  0  0  0
    9.2929    5.2174  -21.4981 H   0  0  0  0  0  0  0  0  0  0  0  0
    5.4342    4.1994  -23.1494 H   0  0  0  0  0  0  0  0  0  0  0  0
    7.3069    6.5161  -17.9037 H   0  0  0  0  0  0  0  0  0  0  0  0
    6.6104    8.1631  -17.7348 H   0  0  0  0  0  0  0  0  0  0  0  0
    7.1126    7.2462  -16.2741 H   0  0  0  0  0  0  0  0  0  0  0  0
    3.3709    7.0286  -16.2289 H   0  0  0  0  0  0  0  0  0  0  0  0
    4.8197    7.5427  -15.2997 H   0  0  0  0  0  0  0  0  0  0  0  0
    4.3175    8.4597  -16.7605 H   0  0  0  0  0  0  0  0  0  0  0  0
    5.1653    0.9705  -20.7322 H   0  0  0  0  0  0  0  0  0  0  0  0
    6.9394    1.2467  -20.6816 H   0  0  0  0  0  0  0  0  0  0  0  0
    6.2869   -0.2766  -21.3748 H   0  0  0  0  0  0  0  0  0  0  0  0
    7.5971   -1.3171  -17.9943 H   0  0  0  0  0  0  0  0  0  0  0  0
    7.7224   -1.6268  -19.7592 H   0  0  0  0  0  0  0  0  0  0  0  0
    8.3749   -0.1035  -19.0660 H   0  0  0  0  0  0  0  0  0  0  0  0
    5.0197    2.5059  -16.4662 H   0  0  0  0  0  0  0  0  0  0  0  0
    6.6093    2.8398  -15.6991 H   0  0  0  0  0  0  0  0  0  0  0  0
    5.7325    5.2353  -15.5283 H   0  0  0  0  0  0  0  0  0  0  0  0
    4.2606    4.7790  -16.4513 H   0  0  0  0  0  0  0  0  0  0  0  0
    4.8225    6.4825  -18.1818 H   0  0  0  0  0  0  0  0  0  0  0  0
    7.1629    4.4919  -17.3551 H   0  0  0  0  0  0  0  0  0  0  0  0
    5.4487   -0.9647  -19.1973 H   0  0  0  0  0  0  0  0  0  0  0  0
    2.5091    3.1157  -18.9997 H   0  0  0  0  0  0  0  0  0  0  0  0
    3.5501    2.5186  -17.8924 H   0  0  0  0  0  0  0  0  0  0  0  0
    4.9212    0.7754  -17.8142 H   0  0  0  0  0  0  0  0  0  0  0  0
  1  2  2  0  0  0  0
  1  5  1  0  0  0  0
  2  6  1  0  0  0  0
  3  4  1  0  0  0  0
  3  6  2  0  0  0  0
  4  5  2  0  0  0  0
  4 18  1  0  0  0  0
  5 19  1  0  0  0  0
  6 23  1  0  0  0  0
  7 18  2  0  0  0  0
  7 19  1  0  0  0  0
  7 20  1  0  0  0  0
  8 13  1  0  0  0  0
  8 21  1  0  0  0  0
  8 22  2  0  0  0  0
  9 15  1  0  0  0  0
 10 15  1  0  0  0  0
 11 17  1  0  0  0  0
 12 17  1  0  0  0  0
 13 16  1  0  0  0  0
 14 15  1  0  0  0  0
 14 16  1  0  0  0  0
 16 19  1  0  0  0  0
 17 21  1  0  0  0  0
  1 24  1  0  0  0  0
  2 25  1  0  0  0  0
  3 26  1  0  0  0  0
  9 27  1  0  0  0  0
  9 28  1  0  0  0  0
  9 29  1  0  0  0  0
 10 30  1  0  0  0  0
 10 31  1  0  0  0  0
 10 32  1  0  0  0  0
 11 33  1  0  0  0  0
 11 34  1  0  0  0  0
 11 35  1  0  0  0  0
 12 36  1  0  0  0  0
 12 37  1  0  0  0  0
 12 38  1  0  0  0  0
 13 39  1  0  0  0  0
 13 40  1  0  0  0  0
 14 41  1  0  0  0  0
 14 42  1  0  0  0  0
 15 43  1  0  0  0  0
 16 44  1  0  0  0  0
 17 45  1  0  0  0  0
 20 46  1  0  0  0  0
 20 47  1  0  0  0  0
 21 48  1  0  0  0  0
M  END
> <OMEGA_C>
20X4QMCkl0BEbqDBWDkEQZ1/nUAS2KrBYXjCQNYhi0AYW7LBDHiyQKyJhUAC76fB0ivNQOKFi0Aw
FJ/Bk6btQMUCl0Dqy7PBmKKLQDT4bUAktZnBB9nWQGE93D8YQozBL5DVQPE95UBQPIrBICeMQFa8
7kDUb4LBSajEQLDA+j6uyaTB0VnyQGptWr9y7pfB9y3CQKjsMUBaPYXBaVWpQOnopEAoQ4TBIlCo
QJrI0UCQZonBdsLDQOrKhEAG1IrB6bDGQIgBLr6Eq5nBrXiKQOaBckDsNKTByXW0QOuRgkBONZbB
dOhSQLoPVUDmW5PBtLu7QB67Sj9sHZHBHsD8QOxa6z+EnI7BmBQBQX4tnUDArsDBylUGQYNjnEDD
jpnBza8UQUL1pkAh/KvB4uStQCNhhkD4MbnBUtLpQMuD0EDAOo/BlojTQC2cAkHd4I3BCJrjQHfg
50BTMYLBRL1XQKPq4EDL1IHBljqaQJhd8UC6y3TBJCmKQL5aB0FnFYbBvEmlQMtzeD+g26XBdQ/e
QHaSnz/bc6XBbS7JQDyhjb6a/6rBjhvzQBSYqL9d9I/BLR73QF450L/ZEp7Bm/8FQYfp070ah5jB
M6GgQA5hIEDDuoPBLX/TQLO/NUC1L3vBZnC3QDOHp0Dpc3jBpFaIQI7tmEBdnIPBGFKaQG5wz0BG
dJHByzblQGC9j0BR14rB5VuuQOP3dr8clJnBn5UgQAhoR0Bj/5fBfzVjQPkwIUCQI4/BNHqdQL5+
Rj9ig47BPvT4QHzNlUBYf6DBMTsEQT5UnEBP8qrBXPbBQF2EikAzQbLB5pSyQHxshECQyqfB8PrN
QAp7iUC/CZ/Bcx7tQPJOlkAN0bPBuhyMQBs6bkBYapnBIArXQDaW1T8uQozB79eeQOaH8EAvN37B
z+ylQKrl30CshJLBi9zkQLB6Ur9wUZzB+52iQHg6MT7uhaTBC4vCQFfJLkCwMYXBZvysQH7DpEB+
BYTBf/61QFLP00CKOIfBgI3FQOiUg0DfwYrBtz7KQCSb6z5ZlZ3B4nOKQIedckDG6aPBFYW1QLxr
gUCdEpbBradTQPcMWEBs75LBpEO8QP5AdT9mF5PB9L39QBf52z/O1Y3BlnYAQSQcnUDiv8DBsd8G
QVgwmkAVr5nB/qQUQQzypUAGLqzBgfSsQEE3hkDPB7nBWLCpQO2b6EBv8m3BQyGmQHsiCUFr1YDB
dzt4QAJN60C6aH/BuAW2QITDy0DBgpjBjCWDQCTJ2kBQ+pLBEymtQIzgAEFfG5TBI5IAQXfIHL+5
WpfBzEvRQCGXzL9ac5jBXTLvQLZJlr++PqTBNaqPQMr0iz9OaKXBOuGsQFYKNr6IdazBqfqOQGwd
Gr8kqqDBGLigQPKSHkB514PBbmPTQKVTMUCN8nrBVxS2QAOKoEAMLHfBJYOKQI2xnkDp8oTBw6HY
QLTJ2UBQwIbBF3LnQEUQjUCJ6orBNurdQAmAnD/ulqHBh1YgQD8zTED7epfBgXViQKqyI0DcuI7B
SjKeQCc2Rz8dw5DBMAD5QHjjlUC6/Z/BXjcFQVdfmkCNTKrBhPrEQH9MiEB4L7LBk6KzQKNZhECA
2afB15zNQEl6ikBh4p7BJJbwQMUmk0APYrPB++mKQOQOckChwJnBGV/YQCgr1z8JOY3BAZmWQJ+X
7EDTV3zBJp6wQAjz4UDD25DBzsitQJRLqz5pAqPB7kX1QGy1EL+e85zBY5nCQByyLECI3YXBtHip
QJlmokAnm4PBru60QKYl0kB1NoXBWZvDQEjCg0D0vIrBKn3GQGD0l768oZnB49GKQBQjdEBYRqTB
k/yzQLYrg0BMG5bBXvdOQKTXXUC1kJPBIWnBQGRrCD+t4o/BlKX7QCLG9z93AZHBP28DQV5Hl0Dw
H8DB9FEGQUshm0DrAJnBxMoVQXpWo0BZRKvB4COxQAQVg0CQI7nBSzCZQDjP4UCso2vB8lyfQIxP
B0HYXn3BNP1qQK9O6EAP94DB2SPGQJ9ez0DcC5bBU2GPQEW43UBKjpPBqz+5QFcEAkGnRpHB9H6M
QCC/BT9gk6DBRwe9QJRypD9xRqXBai2uQIRQtL4S4qnBilcDQX8Rgr8hNZbBb9H1QHWAoL/5z6PB
plUCQf0YxD5YNJ/BthihQNF3GUDIooTByVfTQL2XLUBCQHzBx1qvQEP8mUCoYHbBH1SHQD0RnkC7
c4XBJAfWQA1p10AXhYLBcgjlQK3KjkD3torBBLe3QM00o7/sCJjBRhcdQK91UUBhVZjBS91bQA9I
KkDSG4/BCx2rQBbecj5XqIrBo874QNFQkUA8OKDBoaoEQXNTl0DTl6rBvZLCQJAwiUDiN7LB9zWy
QKyJg0Bu1KfBUhPNQASIh0Cw757BwUTuQDkzk0A/lbPBkx2KQIyIb0BKp5nBu1LZQGjl1D8sNIzB
CWrSQN0a4UCBPYvBoTeNQJWA6kBKWIHBwdPuQAQIhb9OcpjBdmSvQATonL5hcaPB39bAQNZ6KUC1
W4XBHlqpQA7MoEAj04PBmQGmQJ5uzUCeBYnB/OnCQGwbgUBEq4rBZBTUQOzxJj6VL5zBSWqJQBK6
c0AHKaTBGaGzQPwxgEBAF5bB0nxNQFy9XUA6V5PBsrHBQCGWWT+Z85LBS9T/QApg6j9Ako3Br4AB
QVMvmkDta8DB07UGQTkslEBYUpnBVF0VQa4Yn0CzrKvBueCtQKDlhUC5FrnB/0rkQJdKzECuwJDB
DHXOQG92AEHT3o7BHyjkQMAi5ECCrYPBgxJbQLCN3EA5f3/BXAKfQLeG7UA3lHPBSE+JQGsoBUFs
+4TBOHsEQb9eML+/QpPBWlLaQA8Y3r9u9JPB8lX8QOYAx7/rcp/BK4mcQHQhED+hDqbBcK+8QLHC
Ub+Re6rB2KuaQAPxf78U/Z7BaUefQNr0FEAqrYTB1kfPQHuPLEAwr3rBvzu5QJISpEA8B3jBXN6I
QEUNlEDlqoLBWk6UQCrBykBUmZDBiYzkQGV8i0DdpIrBocHoQKbSWT/4tKDBi0gaQFfPVEAoApjB
wXZYQBvAKEDBEY/B84aiQLcVOj+0bZHBcEH3QHxnlUBHTqHBIssDQa6il0C/wqvBfybBQHJ0hECX
9LLBOAGxQIdNgkA+f6jBYQ/MQMINikCu1J/BkKrsQIi2jkBujrTBMC+KQHHPcEB9CprBIqfYQEHr
8z+w1ovBA8fNQEP6uECyRWzB8RehQIjt80C47HzBrlDTQJxPj78LBZfBvzq1QPCxuT5PfqXBxvXB
QJjOP0BrY4XBiqOlQL6urUCSWYfBaay+QBavzUASp4DBdJnCQNJHikDm34vBpq7RQABPnT6sbJvB
ZKmIQL0icEBFiaTBnpOzQCCVg0DI7JbBXPFPQD5EX0BQSJPBvxjAQMBllz9iHJPBmOH/QHUh8T+y
KozBob8AQaizj0D5dsHBtr4FQUhHnED8g5rBelUUQX8ooEDbEa3BL3+sQN+mfEAVtrnB5t3iQF+8
nUAr4m/Ba2jfQGy40ED8uWLB1dixQDGvrUCMK2PB/8+WQBQJAUGSGYbBPNuEQA4K6UDE73PB02qy
QKQJBkE1fnPBubHnQLqEkr/p2I/BscmyQFRIub8Z6pTBYKHgQK925b/pIZ3BLle0QNtGsj+CkqjB
eHHCQJxWnL6yp6vByZmUQG4WIz3ib6PB/KSgQFibLEBi3oPBGpnSQIQzSUAccnvBp9eMQLronkAi
UILBj2WWQDu2vkD1Co7BiL3aQMOx2EDLMYXB47DjQJlClkAyDIzBDUHyQHUJIT/8i53BzPcbQLsI
UkDOpZfBgT9eQBDxLEC/rI7BbUSgQJYgoj9boZLBynr2QFaVj0BD957BQd4EQSbKk0AVGanBvKPE
QLyLhkCWuLHB+XaxQCQsg0A+lafB6D7KQOIrh0DQUp7B9ubwQG7xjkBudrLByF2FQJe8dkCz/5nB
MsO3QMrrpz+PIJDB7RqSQLqO2UB0AY7BPVjaQHC21ECLHoXBlRvHQCS/xr/4DpjBpmjfQGhlAT7K
C6bBu4W0QMcJFUDH9YbBBiKlQPWAl0AsdILBwteqQJJayEAhOITBAUq8QBQCc0AiiYrBiRDlQBCW
t74daJrBPlaHQN91eEA1gKTBp6KuQJxhgECj4pXBF7lAQA/2Z0AYJZTBAPjeQDwhOz+Ki5LBNZiX
QHnQhT/jUZXBl4AEQTJYk0Bj/77BcbAEQdXDkkCoxpfBscAVQUm5mkBctanBuqixQGK+gkDo4LjB
llFgQMul0EAiVI3BAfiUQMqe/EBdTo7B9JCfQL+ry0DAW5XBf9frQNtkyECgQ3zBluLnQBzSxkBZ
dozBo0ndQCfF90D2aIXB753LQOP/8L93vY/BEailQLw6n78+PpnBALjOQLtpGMDwhZ3BV/j0QAKk
eT/yjafBwyPnQA2wMb9ylKvB1BO+QM0C4z7ATKfBXkyUQBarEEAQdoPBj3/MQJJrBEBy3IDBfy2x
QJnfj0Du0HTB9LCCQItrkEAF3ILBiOydQOOK2EApNXrB0NTeQAi6f0Dw84nBHw4DQTSVOb8UopnB
3ZIPQEf3XkDeJJnB54BIQNLSM0C+m4/BgNb4QFNJiT/ItY7By+v3QGvRlEA38aDBdQQEQVNUmEC+
Z6vBQUXBQPLihkB6orLB+D2xQMLig0AMJ6jBA3fMQEV1ikCycJ/BrtrsQMP4kEBcPLTB74CKQBLd
cUDcsZnB7fDYQDkIxT/ZA47B4KXOQDKq40CpAIzBh/6KQGoT6ECoQoHBgvWtQAZra7+TQJvBaDTM
QAQb0z4+lqrBLlDDQLbJJUAav4bBDLysQO4RoEAp+IPBTZakQMiPzEDSI4nB+3DFQBH6gECjWYvB
Wx3QQGAAzz1Ni57Bb+KIQD6Ec0BmNKTBoim0QEDBgkASeZbBMsdQQMyGXUC9DpPBKdzIQBCDqD+W
RpjBRbjyQFqOQj9qDorBN8IAQRmjk0DYKsHBikwGQXf/mUAxJJrBl5cUQVumoEDQr6zB1HKsQIGH
gUAyZrnBMRXhQGT7z0CCqJHB4k3HQI1gAUHPso/BFZLhQDfB6EA0sYTBH+xZQJip10B4aH7BRPad
QKgp7UAS6nPBEbKDQMaUA0Gj9oTBLPawQA1skb84qJLB3vuNQK0EAr9+5JzBO2qyQHp17L/r2J/B
6M3kQP6Kkj8r4qzBlbjQQJhEA79hNq/BOEqsQK+hUz/0QazBEH6hQMoUFECuuIXBRmXTQMo3JUCG
1n3BqGm/QFe0pEC1M3nBNqeNQIeXkUCu+oHBEamRQNYbyEDAeZDBCjPnQNvuikAvfYvBgRfwQFVK
nr714ZzBuTIdQNhwUECMgJfBcNBfQDhfKkD1oY7B9xy3QDJ6AkAZlZvBGOP1QMGLm0AHQaDB6sgD
QTJcnECHmqrB9t7DQIxPgkB3A7LBXxGyQAKvgkBvr6fBS2nLQDxvjUBs4Z7BkgrvQGlcjkBVa7PB
CNeJQJb7ckBHbJnBGMXYQPSntj+yBo7BU8OFQFkP10DWLY3B483TQMXc3kBWnIjB+lK2QECs/j2U
AKnBWN39QNCpu74i36DBPIDCQNTEHkAj64bBs3OsQCDEmkAZloLBYe2oQL+cy0DU+ITB4LDEQHJu
fUC564rBVH7OQAAeWL0KYZ7BCnqJQGQFcUCD8KPBCCmzQL6rg0B8/pXBmFZNQN6oYUAHA5PBRvzI
QCwdmT/zRpjB0svvQHjBGD8hrYnByk0DQSnEikA7B8DBc1EEQaCcpUA7cpnBMO8TQVSup0CCzavB
N7SwQKPKcUCMzrjB+iNOQK1NyUB8lYrBDsSCQEkP+kD/vY3BeGyOQC35yUBeDpXBvNzsQL271kAq
xoLBUXHcQAbG0UAzfZDB58jQQBHuAEHULInBtn+UQPB5sj7vWqfBq57EQKAldD/Qi63BgJK4QPl1
Tb8Bta3Bh8sHQZ/6/b74VpnBQdj/QPBTpb9km6XBNvIFQXPn7T4zcqXBxoqgQFP8DECIRIbBWG/R
QO0+HEB56X3Bv/q8QPYsl0DFvHXBz7aLQNocjkDK6oHB9kOgQEdV20DWzXrBWHnmQCyaiEAh7YrB
eIDAQApwZb+d8ZnBFO4aQOyxU0Ahn5fBEmhaQGraL0DNQo7B6p+4QBXV9z8KxpvB1Lf2QK5Xl0BA
S6HBmAEDQTILnEByz6vBCrS/QJi4h0BY1bLBO3WwQIuug0DHTajBvNvLQJ4Gi0D6qZ/BFaPqQLzr
k0DckLTB2VOKQDP9cUDnvpnB/8/cQEjg1D/6po3BwzyaQEi17EAL9nzBPa+uQO7U4UCnjJHBMZSq
QJSkHr//xZ/BFnztQLDesz5Hw6fBaGfEQC+DK0BdtYbBgCmtQA56okAvBYTBvfm2QKp/0kDe/oXB
Yb7FQCp+g0CSdovBjY3VQGCmUz0iRZ3BaoSIQJbJcUAUQaTBHfazQFSrg0C9mJbBwBdQQBILXkB6
JpPBtT7LQIPIoz8HaZfBdlT9QN1tkT+RJ4rBKxD+QHDXmECNk8HB3MgFQT0anUBIjprBxFcTQSHd
pUBxMK3B8cWqQAuNgUCQiLnB2YOfQAlo4kADV2zBDB2iQEFwB0F4gH7B2f1wQIGe50D7o4DBZunC
QDWKz0ABHZfBnc2MQEfR3EBmlJPBvWu2QKUJAkGnMJLBqY+ZQCobVb+0QpjBfxOXQMV+VT1lwKTB
nkWwQCa7x79iG6TBZiQGQUQpVT+l8KXBPzvzQFevFr9NGqzBIAnaQHEPgz9Qv6zBE9GiQB8QF0CM
E4bByOrSQLTOLEDCYn3BjKS1QELTmkCUZHfB7quKQKVWnUBnOIXBMKnYQCen2EAc9YPBKl3nQC/Z
jUB3xIvBRQ3pQJh6Hr8WSJjBVfkcQLToT0C5oJfB3i9fQLqlK0AomI7Bt7y1QByD8j9PtZrBNBP3
QCxnlUAIoqDBZ3IEQeDdlUCL+qrBEWrDQJwEgkCilbLB6N2xQP52gUDzP6jBy5LLQJKVikBTZZ/B
oCHvQL3Zi0Bx7bPBFCmJQEYScUBaFZrBjs7YQO7Q+T9f7ovBxArKQABy7kB2N4fBuVnSQIbfvEBq
UG7BmQDlQOBWUr9SJpnBivKoQMBMUz7Jv6PBnFvCQAbwQEB8KIXBcFyeQGKXqkDMBYbB3z6zQHzA
zkDrPX/BiAK/QIiRi0AJXIvBPfjOQFgx/T6uPJzBgBmJQGD2bkAmlaTBvpKxQIxZhUA+oJbBDN9M
QLE8XUBGm5PBqD+/QAg2lj8vmpLBjM3/QLDF/j+2Ao3B2L8CQfXcikCLscDBizkFQR04nUAUwJnB
Ch0VQRXfnUAjE6zBOZ+vQEn1dUD6cbnBqwqzQFOY+kA6JY3BevbWQL6sBEEejYLBOFvkQEPy3UCX
W4vBwDHBQIN8pkCwyGPB67rsQNv8q0CLWHbBLVbfQBNk10CYu2TBTAwAQRpJHL+yypPBH/XNQALL
vL/mCJXB1b3wQHFgqb8oaaDBQ0aZQGOHkz/U76XB2pu0QFZ+lr4jBqvBJNORQJco5L7hpZ/BfPqh
QJmGKkBVJIPB57XUQAsxS0CphHvBxPCJQFnwl0A8lIDBxYSKQAfvuEBlWIzB/s6ZQPdP4EA+0nbB
EqneQK/2mkCQOovBHxbmQA+IkT9yb6DBXdwaQOwhTUC9LJjBzxFcQK4qLEDE1Y7BX1OgQMEgiT+y
tpDB

> <OMEGA_E>
iOXkPhhx6D6g4+k+uJXVPqJjET+yKzA/qsgdP3gkHD9YoBc/KKMPPw==

> <OMEGA_NBR>
     19488

$$$$
50164943
  -OEChem-04172616093D

 52 54  0     1  0  0  0  0  0999 V2000
    7.7408    4.6349  -20.0695 C   0  0  0  0  0  0  0  0  0  0  0  0
    8.2529    4.8030  -21.3713 C   0  0  0  0  0  0  0  0  0  0  0  0
    6.0306    4.3903  -22.3089 C   0  0  0  0  0  0  0  0  0  0  0  0
    5.5284    4.2101  -21.0069 C   0  0  0  0  0  0  0  0  0  0  0  0
    6.3749    4.3345  -19.9005 C   0  0  0  0  0  0  0  0  0  0  0  0
    7.3988    4.6815  -22.4896 C   0  0  0  0  0  0  0  0  0  0  0  0
    4.2985    3.7943  -19.2295 C   0  0  0  0  0  0  0  0  0  0  0  0
    6.7598    1.7040  -17.4755 C   0  0  0  0  0  0  0  0  0  0  0  0
    5.6558   -0.2460  -23.1453 C   0  0  0  0  0  0  0  0  0  0  0  0
    7.1251   -0.4391  -22.7266 C   0  0  0  0  0  0  0  0  0  0  0  0
    4.9528    0.7735  -22.2331 C   0  0  0  0  0  0  0  0  0  0  0  0
    7.2221   -0.8709  -21.2552 C   0  0  0  0  0  0  0  0  0  0  0  0
    5.0520    0.3534  -20.7570 C   0  0  0  0  0  0  0  0  0  0  0  0
    6.5293    0.1539  -20.3340 C   0  0  0  0  0  0  0  0  0  0  0  0
    5.4843    6.5984  -17.0469 C   0  0  0  0  0  0  0  0  0  0  0  0
    5.9993    2.7666  -16.6893 C   0  0  0  0  0  0  0  0  0  0  0  0
    6.6084   -0.3617  -18.8866 C   0  0  0  0  0  0  0  0  0  0  0  0
    5.2925    5.1712  -16.5186 C   0  0  0  0  0  0  0  0  0  0  0  0
    6.0771    4.1479  -17.3692 C   0  0  2  0  0  0  0  0  0  0  0  0
    4.2633    3.8788  -20.5418 N   0  0  0  0  0  0  0  0  0  0  0  0
    5.5896    4.1005  -18.7903 N   0  0  0  0  0  0  0  0  0  0  0  0
    3.2126    3.4407  -18.4427 N   0  0  0  0  0  0  0  0  0  0  0  0
    6.0470    0.6193  -17.9610 N   0  0  0  0  0  0  0  0  0  0  0  0
    7.9506    1.8580  -17.7293 O   0  0  0  0  0  0  0  0  0  0  0  0
    8.0395    4.8819  -24.0998 Cl  0  0  0  0  0  0  0  0  0  0  0  0
    8.3882    4.7352  -19.2108 H   0  0  0  0  0  0  0  0  0  0  0  0
    9.3001    5.0251  -21.5142 H   0  0  0  0  0  0  0  0  0  0  0  0
    5.3742    4.3064  -23.1624 H   0  0  0  0  0  0  0  0  0  0  0  0
    5.6221    0.1166  -24.1833 H   0  0  0  0  0  0  0  0  0  0  0  0
    5.1323   -1.2111  -23.0769 H   0  0  0  0  0  0  0  0  0  0  0  0
    7.5817   -1.2137  -23.3604 H   0  0  0  0  0  0  0  0  0  0  0  0
    7.6656    0.5095  -22.8602 H   0  0  0  0  0  0  0  0  0  0  0  0
    5.4283    1.7573  -22.3598 H   0  0  0  0  0  0  0  0  0  0  0  0
    3.8923    0.8394  -22.5177 H   0  0  0  0  0  0  0  0  0  0  0  0
    6.7359   -1.8502  -21.1345 H   0  0  0  0  0  0  0  0  0  0  0  0
    8.2821   -0.9505  -20.9724 H   0  0  0  0  0  0  0  0  0  0  0  0
    4.6007    1.1359  -20.1292 H   0  0  0  0  0  0  0  0  0  0  0  0
    4.5064   -0.5911  -20.6144 H   0  0  0  0  0  0  0  0  0  0  0  0
    7.0563    1.1168  -20.4044 H   0  0  0  0  0  0  0  0  0  0  0  0
    4.9144    7.3012  -16.4213 H   0  0  0  0  0  0  0  0  0  0  0  0
    6.5520    6.8611  -17.0139 H   0  0  0  0  0  0  0  0  0  0  0  0
    5.1243    6.6565  -18.0847 H   0  0  0  0  0  0  0  0  0  0  0  0
    4.9438    2.4661  -16.6137 H   0  0  0  0  0  0  0  0  0  0  0  0
    6.4324    2.8413  -15.6809 H   0  0  0  0  0  0  0  0  0  0  0  0
    6.0417   -1.3010  -18.8057 H   0  0  0  0  0  0  0  0  0  0  0  0
    7.6611   -0.5448  -18.6250 H   0  0  0  0  0  0  0  0  0  0  0  0
    5.6502    5.1227  -15.4795 H   0  0  0  0  0  0  0  0  0  0  0  0
    4.2225    4.9181  -16.5502 H   0  0  0  0  0  0  0  0  0  0  0  0
    7.1323    4.4586  -17.3777 H   0  0  0  0  0  0  0  0  0  0  0  0
    2.4201    3.2657  -19.0268 H   0  0  0  0  0  0  0  0  0  0  0  0
    3.4324    2.6151  -17.9231 H   0  0  0  0  0  0  0  0  0  0  0  0
    5.0999    0.5021  -17.6625 H   0  0  0  0  0  0  0  0  0  0  0  0
  1  2  2  0  0  0  0
  1  5  1  0  0  0  0
  2  6  1  0  0  0  0
  3  4  1  0  0  0  0
  3  6  2  0  0  0  0
  4  5  2  0  0  0  0
  4 20  1  0  0  0  0
  5 21  1  0  0  0  0
  6 25  1  0  0  0  0
  7 20  2  0  0  0  0
  7 21  1  0  0  0  0
  7 22  1  0  0  0  0
  8 16  1  0  0  0  0
  8 23  1  0  0  0  0
  8 24  2  0  0  0  0
  9 10  1  0  0  0  0
  9 11  1  0  0  0  0
 10 12  1  0  0  0  0
 11 13  1  0  0  0  0
 12 14  1  0  0  0  0
 13 14  1  0  0  0  0
 14 17  1  0  0  0  0
 15 18  1  0  0  0  0
 16 19  1  0  0  0  0
 17 23  1  0  0  0  0
 18 19  1  0  0  0  0
 19 21  1  0  0  0  0
  1 26  1  0  0  0  0
  2 27  1  0  0  0  0
  3 28  1  0  0  0  0
  9 29  1  0  0  0  0
  9 30  1  0  0  0  0
 10 31  1  0  0  0  0
 10 32  1  0  0  0  0
 11 33  1  0  0  0  0
 11 34  1  0  0  0  0
 12 35  1  0  0  0  0
 12 36  1  0  0  0  0
 13 37  1  0  0  0  0
 13 38  1  0  0  0  0
 14 39  1  0  0  0  0
 15 40  1  0  0  0  0
 15 41  1  0  0  0  0
 15 42  1  0  0  0  0
 16 43  1  0  0  0  0
 16 44  1  0  0  0  0
 17 45  1  0  0  0  0
 17 46  1  0  0  0  0
 18 47  1  0  0  0  0
 18 48  1  0  0  0  0
 19 49  1  0  0  0  0
 22 50  1  0  0  0  0
 22 51  1  0  0  0  0
 23 52  1  0  0  0  0
M  END
> <OMEGA_C>
BbX3QAtRlEBGjqDBsQsEQQiymUBU+KrBw/rAQJN9jECseLLBcOiwQDi5hkAgDqjB6P7LQOezikBP
NJ/B78LsQL3OlUCv6rPB+YyJQMPVckAF1pnBfVDYQKUc2j/VzYvBDPy0QFHwe76iKbnBGQHkQJzW
4L4V0LXBF32eQGQBRj9y3bHBihvnQEP0Xr+9CqrBFaqhQDjutD4+DqbBnu/QQKKaHT77q6LBZX+v
QOgl00AFYIjB8vm/QNMPMUCeg4XBW3jTQBgvub7MF5fBcVypQMN6pUAFJoTB2XfCQFy7hEAy9IrB
xWyIQH89eECgVaTBR96yQG43g0CXUpbBy5tNQOA0XECqipPBToHBQN6MHj8jsI/BZmv+QDXT7T+U
1Y3BzqEAQeE4nEBVzMDBGTYGQfGGl0DJr5nBCM0UQYHNoEAbHazBb/mrQGDOiUCrTLnBDuizQCnI
7j1hd8HB3zukQJgEm7+CnbjBUp3yQG1Zm78E4rrB60z1QL1xAj+04bbBarStQJft4D/n4LLBExt5
QDTjVj9YJLTBP4zXQDnT7L95E6nBqYMEQexUc79+x6fBIjmTQOFkkT+zCKHBuDSQQEtRF7816qTB
Ys3hQJH0jj9KPKPBJ0OdQDKj6UDWXoPBvKnRQLyN20CFHIjB+/mjQCMC1UBmrZDBvTOeQO3THUDF
6ITB7NXNQEbYNUDl5HrBxFXBQLuGpr8kcpbBWyf1QBl7C7/x/5TBls60QBLto0Duq3fB1B6HQHhh
nUDZZoTBzjvkQL2sjkCBBYvBO+IaQDEBUUDuNpjBD61bQJBdJ0B9Yo/BBjKjQKmJAD/ITI3BR/P3
QNrulEBke6DBTEoEQfvsmUDH4KrBJ83BQIyGi0A4ebLBVFyxQEvEhkA8EajBVDrMQAtKi0AfL5/B
tIztQKpClUAL3LPBp9WJQL0kc0AP3pnBGNjYQIzF3T8FJYzBLx++QMeowT79/rjBxauXQOP06j6t
UrHBP2LdQOvHPL9DqLXB7bCmQJp/IT9psKXBd83rQFbpEL/F+KnButzEQHIZBr97XKLBOo+uQGtn
00BlTYjBvozAQHTHMUA+poXBV/jUQHFl2L4eoJbBKgSpQOiYpUB8G4TB9oLCQAhRhUDi9YrBZs+I
QOVZeEBnXqTB5fyyQJPfg0CbU5bBWV1OQHjQW0CPlZPBr8LBQGwLLz9rj5DBm1T/QKwq7z8owI3B
8y0BQbqSm0BktcDB0TwGQc90mEA1lpnB3wUVQdtUoUA3/KvBwiWtQDzEh0A6VrnB6mWyQF3QLz6f
IMHBiR7PQIO0qz9H67jBKpmDQAK2qD8OkLPBE9aEQMoB775m+bHBFmPNQK8H27/dh7bBTan5QAwa
NL8O5LrBKuC3QEsIyz+57qTBRp2KQI7dIj+zYaDBGT0AQXGqtL81vafBldr9QDM7vz5HNqnB3zyz
QJwqvL9dNqPBGRScQIKa6UDxRYPBlp7QQO063ECtC4jBbfaiQAo51UA8mZDBPeCeQFoAHkAN+YTB
bMrOQJrnNUCOPHvBT1TNQGi/rr+7gpLBgt73QK5oj741wpbB4om0QAQRpEAcmnfBueGGQCEPnUCd
WoTBsyjkQGGnj0BiAYvBlNkbQLjrT0AXRJjBiP5cQEc5J0BzaI/BPASiQBg6Lj/vjI/BPAr4QHk2
lkC6vKDB4usDQV8onEDpLqvBFGfAQJvTjkAxfLLBUxmxQKqnh0B3DKjBZ5HMQCTPi0BJR5/B3gzs
QFGNmECaC7TBuPKKQMzycEANvZnBYdLXQIXb3z83s4vB4dPLQIJ2rr3t3LnB29LZQEF5lD9moLPB
GK+kQC/eOL8qcrTBYovkQMCTTz838qfBgDevQEejjL8z0KjBjfK9QOj8Cz6zaqLBF0uvQEEM1UAG
7YjBzAnDQBzpNkBSJoXB5P3JQFCPl76H95bB/zGqQDS3p0BXZ4TBtP7DQMXQhkA0AYvBtD2JQEqc
dkCqO6TBNA+0QGitg0BsVZbBoMBRQFhkWEDFVJPBPVu9QHkgPT9mYI/BKb79QNF86D9FMI7BYd3/
QOSWn0A7+MDBiYEGQXOXmUAJ7JnBnaAUQYd7o0DuaqzBgu6qQDjnjEADPbnBWHrDQHmaTj4NGcLB
FD/mQPnTT7/nBbrBwVr2QH9zyz/Xd7fBX7i/QM/p8j+KvrPBef+JQJ3On7uGhLTBfGqbQM9l0L/Y
3bjBqP//QEhA+z1ty6fBDsnsQEfQ3T/DnKPBdHiSQK2Ywr8SBKXBrO7IQEXI7L/ix6jBzWijQCeG
Wz/aAKLBu5WcQCKj60B7D4TBqkPRQDM83kA6u4jBC7KjQIrK1UB/O5HBzYihQFN2JUBxj4PBK1LU
QKJMPUDdDHvB6GS5QMb9nb9v/5TBCMnsQGkT576Oe5bBxLW1QE1Ip0BVLXjBJSSIQKTWnkDvloTB
V3HlQB+/kUBROovBLcweQHMBTEDc6pfBAqZhQOfTI0D9OI/BO1KfQNWCNz9An4zBYzT4QKEclUAV
YqDB00MEQZIOmUAN1qrBlV/BQIynikAaM7LBATCxQEUlh0CquqfB8XTMQAXsi0Bp7p7BCjbtQFWt
k0DRu7PB9vGJQNLJd0C2WpnBCbzXQN4j2T/S4YzBaqPqQPU1Br+dC7bBOm3CQHR9uj5nNbbBpc78
QGl6Kr8foqrBAg2gQGC9Wb6yrK7BjLraQFDznL9o5qLBidewQOAMz740FaPB2BStQHUx0kAVAYjB
S7zDQPZkL0BJeYXBsNC3QBsadj/C/p3B4QmrQEZrpECLiIPB5DTEQCzahEAOqIrBX3eIQMZcfEBV
36PBRaCzQM3YhEDh95XBqHRPQG7sX0Cw85LBo9a7QG+jXj9PXpLBRNb8QOii6j+f5o/BpecAQZtE
mEA5p8DBfH8GQY0WmUCyjZnB6f4UQRA1oEDeDKzBzXOsQMl7hkBH/7jBT0XiQDbawr8CGbnBfJcB
Qaj/lr3HOLvBnPbKQOB5sD80j7PBR6i1QK3Vzz4CZ77BlC4MQaLMrL8jz6rBO50DQU3zpD6KxqfB
bKGEQDMW9D7ffa7BZqiVQOcfmL/Vy7HBkWjTQC3OEMBNNqXB3MjnQIwfm7+BuprBZGuYQOdkcr/p
dp7Be+OaQJzT50CFwoLBoKLOQIO73EDqXYjBejCfQGTI0kCsFpDBlm2iQC8VHUALyIPB/fjVQKhr
MUAF53vBAkfVQPF4sz9BRqHBpWycQMPSzT/l8J/Bada4QA0jpEBH4HbBQ2SJQO8vmkDmKIPBBq/l
QEi0j0Dp14rBB7EcQFATU0AnjZfB3idfQNHJK0BQv47BW0GqQCzETz42V47B2bL3QAgilkBHL6DB
l0YEQR6PnEDvg6rBc9/BQI6pj0CbULLBp0CxQL5IiUBE+afB4eXLQFGKjEDfAp/BGqvtQN92mUAt
kbPBD0+JQE6LdEDB9ZnB/uPaQE2Q3T9D04zBt8LEQO+yFMAnDKvBYkDiQIWepb/dsbDB1BatQIsB
4r+LH6HBQKTLQODKfT0Gf7LB05+WQBob4b6m56PB2oq3QKbBFz9ZDqjBNbquQHR80ECNXYfBkVvA
QEbdKkCy74XBYsPaQC4YYT9ajp/By22oQJQUokB/p4PBzNvBQB70gkCxy4rBO5qIQLisfEDmbqTB
2myyQNvhg0BIPZbBo8lMQPJxW0A14ZPBWgHGQFa8lD90YJXBAQkBQRc+5T8TjozBiF4BQXK2oUCQ
VMDB0BAGQcCImEAMPpnB2QsVQa7do0Dtg6vBtk2tQGwUjUBUOrnBHa6sQK2xKsDu2LDBLH/YQJNE
S8AXfKjBsMX+QCKikL/vtKvBdADsQFm/2b9hf7jBAxGVQNPOH8Bjc57BvVTEQJyiy7/xqZrBNTPj
QI3ySj+JbLXBoUeyQEwni71ngrjBfep8QHdLH79hIqrBV+yGQFl2K71Ns5zBu7GmQKlDxD8V0KnB
NFCcQKoV5kAUKYLB6OHQQEDS2EDD7obB5IGjQHHO00A+qo/BvgefQKpLFEAysIXB/nvNQEFFLEDG
i3vBLKvvQBpOzDnZuZ7BE/TtQNmi3z+vDKLBB5izQP36nkCDsHbBAziGQC/3mUC9E4TBp3fjQOtp
jUBmuorB864aQNfnUED6rZjBfxFbQP6wJUD364/BVwqnQK9jbj/Bj5TB03v3QDJLlUC3paDBf04E
QacqlkDxEKvB3j/CQNaOhECWd7LB9VqxQF+mg0BQCajBoZPLQKKujEALP5/B5OztQBJbjkDy+LPB
RUiJQEXSdkAzsJnBYq3aQDoD9j/CuY3Br+/RQI6tXsBqWZzBwefEQMALN8D+M6fBrZnBQOoVKcD7
4pLBV1DVQHARtr8EM6jB16/RQMAcm7830ZPBIIHEQFvqF780x57BsQysQPI01UBd44fBHmHDQAOJ
NkDkEobBR0HWQI8MTz8Iup/BRJOoQNYPp0B9xIPBuJPCQKHFiEDF8YrBq/eIQHSHckA+M6TB/Pex
QHOKiEDnSJbBKGlOQKBbXkAVRJPB44fEQJJOxT8U1JbBc3wAQZQY2T9MmozB0IUBQf37kEDa38DB
s+IFQZoom0DazpnBOxkVQR7RnEAdP6zBifutQJKje0CAQrnBuWLEQBi/j8DSx5vBIQ31QINTYsBG
8ZvB0ojSQFPJXcCMtq3BOcyhQMLzNsAk16fBfmaeQHgZKcA655LBm0fNQE8mRcDgXIvB/YL4QLcL
tr8RGqjBkenJQJdYfL+pwa/BHNnDQCQWHL/YUI3B88j0QAtxmr8/JpPBxF2hQFjhDb/iMZ/B41GZ
QNON6kBTsILBDsrNQNE830Ap1IfBZYmfQB7m1kA8GpDBB2yiQJa9H0BH4ITB1CzUQBvgN0AYr3zB
dWb5QPAXSz92QJ/B8lrMQLXgoT/mV6fBlA21QPp8pUDHGHfB6syGQEcmnUB20oPBWbvjQMeTlED/
G4vByVEeQL2VSUCV3JfBSxRhQMxgL0AnXI7BHKOlQHnr5T/jRJfBHsP4QJtkk0CS6Z/BwUQFQUu2
lEArQqrBb7/EQOPagkD+9rHBGjKzQC6VgUBgm6fBh9bMQCdkikDatJ7B6XbwQPvsjEClR7PB//mJ
QDr1c0CZcpnBxvDWQH0o8j+lQI3B1RLmQJRJaMAqTI7B8ADMQCh0JcDl7ofBd+gDQXSkPsDKw5XB
Z/a4QEecw783dI/BG2zzQHez9b8zI53BXoXdQArzYb9jDJbB8IasQM8g1UBE44fBMULBQGQJNkAR
hYXBSFPNQOwHnD4RnJzBN/unQJ1ep0AZk4PBy+7BQNMOiEB+fIrBDG2KQKpCb0AF9KPBM4OyQBWl
hkBw45XBA1NOQPDBXUDhJJPBt129QLs8pD9B/ZTBmRr+QMWQ8z/u+o3BBiwDQTURkEADGMDB0UcG
QVs2mUBW+5jB1BAWQdGum0DES6vBXPSwQMZfeEA22bjBRKv2QMo6icAfmojBpOTPQCExh8CvMpPB
LuGxQH0LRsAWq4PBmiLhQJXIBcBDHYLBWUoQQfHVH8BY1pDBBUQLQSXGcMB8uprBa+ChQMRIAMBc
5ZTBZKOoQCsHQb/st4rBaCkGQTLat7+cAqLBvLvbQA1CGcDja6LBxXP1QHHiAL8yWpDBDc+ZQOQq
60CW3oLBmWzOQB2Y3kDNuYfBNZ2gQABs1kCCKZDBt/2fQMW5IUBYK4TB9ZTSQO15NkAJuHvBFpvn
QIE3PD8NWKHB6XSzQIhFgryE/6HBR9uzQP81pkBWl3bB4guGQOMJnkBfu4PBLFjjQFQik0DBhYrB
oEAeQC4dSkDh0ZfB0gdfQOyFLkCSKo7BHmieQOUyxD//T5XBHNL2QHxplUDy3aDBBq4DQVTal0By
VavBNLPAQFHThkBUpLLB+m+wQHtDhEBZLKjBYBHLQMA1jEAGZp/BPDXsQCcdkUAuNrTBgOWIQIGK
dUBdzJnBfGnbQPAq8j/ufo3BbnvGQEPebsCmhZXB6CCgQAEwMMDH65XBYnrwQKjMQsBC75HBCNOq
QG5+wb/Np5zBYOH5QPTs5r/f1JjB4HjTQKv+XL/WGpjBZLWuQFmg1ECA8YfBdG/BQE3iM0AVUobB
5H/cQLwY6z5RwZ3BckepQPeCpkAu74PBLFDCQFtbh0CTHIvB/SyIQPdXc0DnT6TBSMmxQC8kh0CC
a5bBkCVNQBmLXkBzYJPB2PXIQGonuz8rBZfBXY8AQYbX1T+jbovBrjoAQXK+lUApKsHBtbYFQTiI
mkDLDJrBiWoUQTLinkB3kqzBdBOsQK34gEAoa7nBtvy+QMdIkcDG2Y/BAkjLQHcHhcDSjJ3BknGE
QNcLUcDhepnBczCYQIDuG8Dtuo3B3GXtQD0bL8BlhYnB0I0FQbdmcMDAuZLBh0ywQO5j57/+BKXB
YiCQQH7aS780SJzBTloLQf/Tpb+/1pXB7+r+QHbVBsCVMqHB6bTNQH2tJb/3mI/B/6ScQCiD6kCe
vILB7s/QQC1S3UDhyYfBNJGiQNcX10AlLpDBqzWgQFrqHECL34XBDnHPQI7UNEANf3zBOir/QJVt
IT/WbZ7BWAzOQINE7z5wx6XBRWK1QBYwpEAFYnfBjCOHQMD1nUBGFYTBNNrjQFQFkkAqR4vBLfob
QMyWTEDR+pfBwT9eQCzrLUB+oo7B2RatQFNy7j9tS5nB

> <OMEGA_E>
gFCbPEC3AD2gtw8+QOIwPvzCsD5U6g8/SIEVP6QzHj8=

> <OMEGA_NBR>
     26769

$$$$
50164880
  -OEChem-04172616093D

 51 53  0     1  0  0  0  0  0999 V2000
    4.9608    0.6362  -22.1444 C   0  0  0  0  0  0  0  0  0  0  0  0
    5.8558    0.0907  -23.0778 C   0  0  0  0  0  0  0  0  0  0  0  0
    7.7348    4.6171  -20.1250 C   0  0  0  0  0  0  0  0  0  0  0  0
    8.2208    4.8482  -21.4267 C   0  0  0  0  0  0  0  0  0  0  0  0
    5.2538    0.5076  -20.7791 C   0  0  0  0  0  0  0  0  0  0  0  0
    5.9955    4.4051  -22.3455 C   0  0  0  0  0  0  0  0  0  0  0  0
    7.0278   -0.5457  -22.6208 C   0  0  0  0  0  0  0  0  0  0  0  0
    5.5136    4.1913  -21.0417 C   0  0  0  0  0  0  0  0  0  0  0  0
    6.3776    4.2828  -19.9452 C   0  0  0  0  0  0  0  0  0  0  0  0
    7.3546    4.7322  -22.5363 C   0  0  0  0  0  0  0  0  0  0  0  0
    6.4526   -0.1389  -20.3832 C   0  0  0  0  0  0  0  0  0  0  0  0
    4.2995    3.7716  -19.2554 C   0  0  0  0  0  0  0  0  0  0  0  0
    6.8234    1.5975  -17.5132 C   0  0  0  0  0  0  0  0  0  0  0  0
    6.6526    7.0120  -17.3277 C   0  0  0  0  0  0  0  0  0  0  0  0
    4.4264    7.2686  -16.1917 C   0  0  0  0  0  0  0  0  0  0  0  0
    6.7103   -0.4661  -18.9320 C   0  0  0  0  0  0  0  0  0  0  0  0
    6.0335    2.6294  -16.7409 C   0  0  0  0  0  0  0  0  0  0  0  0
    5.3319    4.9870  -16.5349 C   0  0  0  0  0  0  0  0  0  0  0  0
    5.2512    6.3967  -17.1433 C   0  0  0  0  0  0  0  0  0  0  0  0
    6.1168    4.0047  -17.4141 C   0  0  2  0  0  0  0  0  0  0  0  0
    7.3074   -0.6482  -21.3015 N   0  0  0  0  0  0  0  0  0  0  0  0
    4.2474    3.8847  -20.5645 N   0  0  0  0  0  0  0  0  0  0  0  0
    5.6123    3.9976  -18.8317 N   0  0  0  0  0  0  0  0  0  0  0  0
    3.2035    3.4890  -18.4548 N   0  0  0  0  0  0  0  0  0  0  0  0
    6.1249    0.5323  -18.0456 N   0  0  0  0  0  0  0  0  0  0  0  0
    8.0236    1.7578  -17.7106 O   0  0  0  0  0  0  0  0  0  0  0  0
    7.9690    4.9855  -24.1489 Cl  0  0  0  0  0  0  0  0  0  0  0  0
    4.0654    1.1442  -22.4708 H   0  0  0  0  0  0  0  0  0  0  0  0
    5.6488    0.1578  -24.1356 H   0  0  0  0  0  0  0  0  0  0  0  0
    8.3951    4.6953  -19.2739 H   0  0  0  0  0  0  0  0  0  0  0  0
    9.2567    5.1144  -21.5764 H   0  0  0  0  0  0  0  0  0  0  0  0
    4.5733    0.8970  -20.0363 H   0  0  0  0  0  0  0  0  0  0  0  0
    5.3314    4.3197  -23.1929 H   0  0  0  0  0  0  0  0  0  0  0  0
    7.7179   -0.9609  -23.3404 H   0  0  0  0  0  0  0  0  0  0  0  0
    7.2425    6.3838  -18.0114 H   0  0  0  0  0  0  0  0  0  0  0  0
    6.5564    8.0231  -17.7500 H   0  0  0  0  0  0  0  0  0  0  0  0
    7.1592    7.0685  -16.3529 H   0  0  0  0  0  0  0  0  0  0  0  0
    3.4273    6.8271  -16.0622 H   0  0  0  0  0  0  0  0  0  0  0  0
    4.9313    7.3253  -15.2161 H   0  0  0  0  0  0  0  0  0  0  0  0
    4.3285    8.2799  -16.6133 H   0  0  0  0  0  0  0  0  0  0  0  0
    6.2704   -1.4482  -18.7038 H   0  0  0  0  0  0  0  0  0  0  0  0
    7.7964   -0.5023  -18.7614 H   0  0  0  0  0  0  0  0  0  0  0  0
    4.9804    2.3151  -16.6947 H   0  0  0  0  0  0  0  0  0  0  0  0
    6.4392    2.7032  -15.7211 H   0  0  0  0  0  0  0  0  0  0  0  0
    5.8272    5.0549  -15.5550 H   0  0  0  0  0  0  0  0  0  0  0  0
    4.3100    4.6019  -16.4033 H   0  0  0  0  0  0  0  0  0  0  0  0
    4.7470    6.3434  -18.1195 H   0  0  0  0  0  0  0  0  0  0  0  0
    7.1710    4.3190  -17.4208 H   0  0  0  0  0  0  0  0  0  0  0  0
    2.3893    3.3886  -19.0267 H   0  0  0  0  0  0  0  0  0  0  0  0
    3.3665    2.6384  -17.9549 H   0  0  0  0  0  0  0  0  0  0  0  0
    5.1578    0.4399  -17.8085 H   0  0  0  0  0  0  0  0  0  0  0  0
  1  2  1  0  0  0  0
  1  5  2  0  0  0  0
  2  7  2  0  0  0  0
  3  4  2  0  0  0  0
  3  9  1  0  0  0  0
  4 10  1  0  0  0  0
  5 11  1  0  0  0  0
  6  8  1  0  0  0  0
  6 10  2  0  0  0  0
  7 21  1  0  0  0  0
  8  9  2  0  0  0  0
  8 22  1  0  0  0  0
  9 23  1  0  0  0  0
 10 27  1  0  0  0  0
 11 16  1  0  0  0  0
 11 21  2  0  0  0  0
 12 22  2  0  0  0  0
 12 23  1  0  0  0  0
 12 24  1  0  0  0  0
 13 17  1  0  0  0  0
 13 25  1  0  0  0  0
 13 26  2  0  0  0  0
 14 19  1  0  0  0  0
 15 19  1  0  0  0  0
 16 25  1  0  0  0  0
 17 20  1  0  0  0  0
 18 19  1  0  0  0  0
 18 20  1  0  0  0  0
 20 23  1  0  0  0  0
  1 28  1  0  0  0  0
  2 29  1  0  0  0  0
  3 30  1  0  0  0  0
  4 31  1  0  0  0  0
  5 32  1  0  0  0  0
  6 33  1  0  0  0  0
  7 34  1  0  0  0  0
 14 35  1  0  0  0  0
 14 36  1  0  0  0  0
 14 37  1  0  0  0  0
 15 38  1  0  0  0  0
 15 39  1  0  0  0  0
 15 40  1  0  0  0  0
 16 41  1  0  0  0  0
 16 42  1  0  0  0  0
 17 43  1  0  0  0  0
 17 44  1  0  0  0  0
 18 45  1  0  0  0  0
 18 46  1  0  0  0  0
 19 47  1  0  0  0  0
 20 48  1  0  0  0  0
 24 49  1  0  0  0  0
 24 50  1  0  0  0  0
 25 51  1  0  0  0  0
M  END
> <OMEGA_C>
2r6eQMTbIj/CJ7HBBmO7QNi3uT1Yn7jBqoP3QIS/k0Dp/6DBbYgDQaEkm0DWaavByB6oQI/zAT+H
O6bBftu/QMH2jECcw7LB5OPgQC62C79S97TBSG+wQHIfhkB1VajBMBXMQNMMiUCyj5/BFFnrQCxu
l0BQSrTBAHzOQBg+Dr7KEKPBIJWJQJRhcUAVC5rBelnaQF98zD8FG4zBfOLUQCli4EAHn4rBKqWN
QFmY6ECiiIHBqLrWQNSp7r6/dJfBghLBQHpHKEBa7YXBIp+qQMKVn0BzR4TB1AmoQJKxzEB8JYnB
Er3DQFwmgEAJUIvBoNbpQDbtJb90aarBCOuHQKaeeEAThKTBuJezQLTYf0Bfp5bB7gVNQHxLX0Bv
o5PByP7DQABDCD9VXZDBjWAAQXH/4D9ar43BZgL/QFuJn0DhMMHBeReCQFp0kj8yxLPB88K0QNWc
IT7NFcHBaVIGQcg/lkDyMJrBjhsUQfioo0CRnKzBXliSQIOkZT9USqDB8pqqQAU7ikAGi7nBLPn2
QEz9db8NubrBMMLnQLJHzEBCF5DBvs3RQIReAEEaAI7BfBjlQHYx4kC20oLBE1hbQMV32kBgf4DB
fc2dQEJp6kAhdXPBvoKKQGp6BEH154TBO6fIQF1eub9ZoZXB6Hv5QCGUAL9dF5bBS1+fQO8pFECr
joXBJA7OQEsBLUC0iXvBQHi6QH/BoUBm4XjBh+uJQGBCk0AFOoPBJueXQPr8ykCu9JDBgHjlQNw0
ikDLXYvBz+oYQCPfWECzNpjBbXRXQOnaKECwo4/BVwylQKM24T7ed47BsafeQEqm5L4iUbXBjEK5
QKpWeD7EM7jBFA74QF+Kk0Ak8qDB7eYDQQWMmkBTWqvBi2/oQCHaFb+scKrBdLjAQJomjEB/wrLB
pBOfQM5+Sj+/IbDB2xyxQA6XhUCDVKjBTaPMQO/IiECVip/BRETsQH6JlkAHQbTBIrHMQNAlEL32
uKLBPkSKQNyxb0AaDJrB7a/ZQPafzj/tB4zBAv3UQHZM4UCDaorBjx2MQHbT6EDvFoLBElTTQF6p
4L6tOpfBNurBQNBoKkAWuIXBspSqQJlIoECmaITBByaoQFsozUBgYYnBPCjEQAXHgEA9S4vBN9yo
QJw6JT/spKXBcJyIQAgPd0CEhaTBqiC0QDd2f0B0pJbBNrJOQJSAXED6o5PBKQzCQGfxDj+u+I/B
/KP/QIht4j81O47BxyUAQWounkBSI8HBOXfzQIyFXL82XbvBGKGwQBH4sz7dhcDBgIMGQVxhlkCJ
HZrBzn0UQWf/okCJh6zBZ4ECQUcOjr/0/KfBFZWrQFVEiUCbjrnBb6WCQPJKqz87XLLBnPboQA9L
zUC2qI/BACHSQLbGAEH93Y3BgN/jQD5v40CedYLBa1tYQEdM2kDPYYHBEuSaQDL56kCrPXTBkyWJ
QLCLBEE0h4XBLCfDQFQVs79+ypXBCNH1QOnzDL9itpXBiDOgQG4gF0AP84TB5FHQQB/IL0CIb3vB
8P65QJXCokAjC3nBYt2JQGPik0AhcYPBfVyZQPcFy0AuWZHByMPlQMw9i0CaXIvBbKoaQKxgVUCH
NpjBavFZQEIrJkBIp4/BAXajQLZr8z4xt43BoHCaQKMbOD+fUbDBgUS5QJTIeT4fi7fBx7z3QLP6
lUBhRaLBRvYCQcBXnkDauazBMESiQJqsFT96UqXB5cC9QHJlkEAllLPBpkPfQEDUqb71kLPBAsav
QLkFiEAYG6nBWbDMQKU9ikCGn6DBkw/pQKAjm0AWYLXB+C/JQIBWzDtn0qHB2pGLQBm3bkCIlJrB
ECbZQI7i4D+sE4vBtVaqQJPA5kAa03XBZbjxQGWyw0DkInzB+p/PQEJEpL7OIZbByOPCQOdZO0D8
moXBm6SuQJyfrEA2JYjBjeDAQMRYvECe/nrB7l/GQBXRhUCTs4zBkavmQPxw4L5g7qjBDgOIQLhg
eUDp+aTBtcy1QPaaf0BwpZfBlm1UQCQ4WEB5y5PBs7C/QGRRQD9BPY/Ba6f/QLTl5z8794zBaTr7
QI3lo0BFXMLB/p56QPDelj9fKrPBPPKzQAv2oj5GD8DBdMAGQbOBmED2lpvB62sTQYc0p0DvJK7B
ec2KQAVjaz9mkp/BVpinQOiijkDKMbrBj/72QAoaMr+3IbnBZ5KHQIt94UDXA3XBB9K1QCnj8kBF
VWbB8XqxQBxH/kDHNYHB++sAQfNLpUBf13/BmeD4QPg220DZXYTBrzf9QAXTz0BppWzB6le+QG3x
n7/rPZTBCf/xQNTt7L5cnJTBgPSgQDeeK0A2V4TBnz7SQLPSR0D+rnvBC+yMQOzJo0Bt7IbBLKCw
QLLixkDf+43BV8y5QKPYpEDrYG7B5njoQMpHjkBCP43BWJkeQCR8UUAZCpjBylViQP/xIED2J5DB
IoagQDcBQj8CbY3BmGTWQCFykL4+WLTBN3muQP15lD6Ht7bByDv4QNTCmEDLpKHB66MDQXyBoUCJ
AKzBsFHiQFul2b76l6nB1iPAQFgXkkAtUbPBfNGTQBnmNj9IRq7BPE+xQB1OiUCj8KjBzFbNQDYC
jEBnR6DBaGjrQGqonUDG1bTBzEPGQKA5gzz4faHBeEqMQNK3bUAusJrBVlHZQPA/4j+iJIvBzPSi
QKkY4UC27XLBrM/qQNdRvUAkk3bB4tXQQLHao767BpbB9g3CQIYJOkDOlYXBtK+sQC/vq0BMw4fB
i+u5QF9Et0AArXjBpH3FQLAEhkAlZYzBosafQFCGEj8p7aPB04KJQK1qeUCDFKXB2vG1QICWgEAf
eJfBUmBVQLH7U0DXKZTByM3AQHcXNz/22o7BzIH/QI5k7z+ATY3Bpdj+QBJ6pkBos8HBL3/rQNwO
G7+drbrBDkukQCy0zj5b7L7BeZ4GQa3Em0Dr0prBnw4UQeYnq0D0NK3B6FwAQYaBXr+niKfBOqyq
QPAFkECAEbrBknRqQDXDlD+PGbDBjyyAQMaf3EDFcnTBn8eqQOQM6kD0XGLB7XOtQOuf+kDC2X3B
vSD7QEE/n0AbtnrBa2X1QMPN1kAswIDBHrnyQL06xkCLA2bBgvfBQEcVpL8g7ZPBX8TzQNSey74i
I5XBuSWgQGD9KEBZkITBD53QQGJaRUDlZXvBlGeKQGHyo0AaxofBrjiyQIb/x0Ax5IzBQ3SvQATI
nUC4uG3B/nrnQJAVj0DltIzBubIgQPfhS0Cnl5jBgIdkQAXHHEA4lpDBVEqiQDQSKT9LfIzBdLbD
QBogOsDiQIvB3M3mQBQjNsD7PITBsMn3QKKhkEDkLaDBPXUEQZTplEBhiqrBI8DBQLwoAMBKz5PB
BH7CQPbyhUAiRbLBYb0DQT+88781JYbBwoaxQIoIgkDI5qfBTuTLQJ14h0At+J7BBEruQD+bj0C+
krPBzHbjQMmhir9qS5XBH7CIQFQ3cEBpx5nB8P7YQBA83D90+IzBXGPXQCwY30DAJ4rBMtGQQGFD
7EB/MIHByKfbQCDk5D2kTZzBEhK+QJQPKEB8AYbBplKoQFvtoEDy34PBGzepQBBazkB5uojBoB3B
QHIMgUBqyorBmdgCQb/2h79pmI7B9I+IQKhlcUDdSqTB2vqxQAVGgUCsLJbB9FtKQE9cXkAngpPB
9TPFQFsCiT+qgJXB4woAQdGZ6D/9dYzB+dYBQbmylEDAZMDBormqQBLxaMAyFIrBqLXoQGrOYMBc
6nrBiAUGQYxSlEBmPZnB1TYVQa5BnEAhlavBkLymQL6UAMDGMpnB6i+uQNCagUA7LbnBIjkRQZ1X
7b+swYDB4Q3pQIKxyUCukY/Be4DWQIyC/0AUlI3B8HvnQMYC4EAiVYLB/9NfQC144EANJoDBBP+g
QPIp7UAvwXLBjwOQQNxUBkGJn4TBmib6QP6GCD8vH5/BdcjHQHUEKL4zOaPBZJqcQB8/EkCCAIbB
J23KQH8PKEAQiHvBLc+2QLTqoUB+t3fBROGGQDM/lkA7PIPB7TCZQPDRzUAEkJDB2P7iQKmXikB8
tIrBD/MXQKbEUkA1OJjBAjRWQF3sKkD7+47Bmm6mQKtIoj8kB5fBefYLQfAtGMBL+Y/Bb9EAQfzN
JcDWWIbBCKH3QCanlUAWZqDBbDEEQXtLmUCdzqrBg+MCQfA9xb82wJfBeKvCQAPKhUAdULLBuBLZ
QB8iAMCX6YTBzwayQLSUgkAe5afBFEjMQKh4ikC8Dp/BWfPtQCBYkUA8wLPBKLHdQCitc7/OspXB
uRGKQFu1cEBKn5nBoprYQHwE5T97X43B68jSQH2F5EC1morB/BaLQF8S7UDTy4HBI9LOQJDiNj6C
t5zBc2PCQIzfL0DLzoXB58+oQNuho0D89oPBuQmmQMB40EDPGonBFwvDQE6shEDq14rB3oXHQMCw
nL8pkozBlKGJQARsb0CRI6TBag+zQKzWg0AHLJbB2stOQCy0W0AcNZPBwQjAQCsmnj/Gl5XBHKX/
QFg41T9xAY3BG3cBQdbBlUBdoMDBFEAbQcFzNsB2WpHByL4HQbrLTMAzHIDBN+AFQR1cm0BThZnB
DLwUQfUrokCq9KvBiiMLQT8Brb+ZMJ/ByIWuQKDwfkAiJ7nBh77HQAtFC8C6InvBjCbmQBT3z0Bk
24/Bh3/PQN8yAkHpPo7BZ5jiQDqA50D/xoLBIGlWQH3I3kBduoDBJ+aaQCYN8EAl8HPBSM2HQFV5
BkH9b4XB82vpQAXyCj+EsKHBxX+0QHGaIb4g56HBLxuhQLVNG0BJi4TBu0zTQJ4TMUDJLnzB7Qa4
QCt/pkCXH3jBEEOIQBXGlkDtBYPBbE2WQBvPzUDC8pDBKGLkQBD2j0AM54rBHv0cQHa6S0A10ZfB
WENeQOk8KkCNg47BBGKiQOoryz8jqJbBN9WlQCaKTMB7yZHBrP2JQCTmXcDyWJrBnEz2QP+9l0AJ
RqHBNK4CQVTWnUCxzKvBVwu/QMojAsClLpLBGOC+QIKsikD+47LBavWHQLIdJMCAAqPByfyvQPK9
hEAlXKjBoWPLQHBei0DTpJ/B0LHpQGxel0DWmLTBBvm7QETflr+6KpvBExKKQFosb0A335nBgEvZ
QCkZ2z8XFIzBbNbYQO5H50CgjInBHpSOQNQ48kChIYLBKI/WQKfmqD0SlJvBK1vBQF85MkDvqIXB
xw2qQIPLpkDaeYTB59uqQCXx1EDQJonBdnfDQKKBhUDZO4vBa3WgQNUdub8BS6PBl02IQIAJcUB6
Y6TB3UCzQMRBg0DrlZbBujhQQGOBWECJTZPBkaXDQOMeij9eY5TBTUD/QJVJvz9nRIrBF5D8QP0H
n0AwnMHBUc+nQKiHd8AkCovBCcFsQGBni8DsS5rBlrIFQYB/nEC4iJrBqg4TQXl4p0AeJK3B8ovU
QFjB5b9YsYvBybipQGeOhUAqmrnBhstkQMEzMcCej6nByxTtQBWH0kBHio7BqhPYQNTVA0Fc/YzB
mAnmQNmw6EAsZoHBCrhbQGdM5UDB04HBItubQNCe80BR+nPBNeWNQM9MCUFZlIXBT3j3QNUtD75D
A5nBm/nWQCPD8j4OzaPBeqKfQH0SH0B73ITBiebPQAdeN0AZWHvB7vC3QK22p0A/yXjBOomIQHc3
nEDG/oPBQbWdQNg11ED1T5HB+ynlQDyoj0CtaIvBykIdQIgjSkAHzJfB6IpgQPSWJUD4547BvPKk
QDIzqT88ipXBsIuGQAluKsA1raLBjj+LQIdCX8Ahp5nBLE32QArAl0DDRaHB1q4CQYrZnUBfzKvB
KjKfQDHPvr81WKPBNeK+QA2xikAe5LLBsUSoQMpUR8CniZHBM/6vQO2/hEBkXKjB32PLQBZhi0Dv
pJ/BbrPpQNVjl0CfmLTB6T+8QPV0l79nBpvBXhKKQGgub0Da35nBMEnZQBom2z/6FozB59LYQGdI
50DUionB2YyOQEs38kArIoLBZYDWQNgprD2wmZvBxlvBQAQ4MkDSqYXBswiqQJPJpkD9eYTBDNmq
QGPw1EB3JonBiXXDQHmDhUD0O4vBtPm/QA3g/b+3S5LBnE+IQBoHcUAfZKTBwD+zQCNGg0AwlpbB
5ThQQGGDWEBPTpPBkqXDQEyFij9bapTB0Dv/QKoyvz80RorBVJL8QL0Mn0Djm8HBnNVgQIYrO8CJ
+ajB5LhxQKjAjMAY8JjBqbIFQTCAnEBPiJrBeA8TQeh6p0CdI63BOP2bQDLSVL/qI6rBZrupQB6U
hUBymrnBh6qrQCmZb8AckYrBaBTtQCWI0kDXh47B7BDYQA3WA0GX+4zB7AHmQLqx6ED1Y4HB86lb
QOpJ5UBS1YHBus+bQK+d80CQ+nPBut6NQAdMCUHplIXBCJf3QCdAAr6HHpnBG2zWQJFv7z4T2aPB
lqOfQPoPH0B63ITBfOvPQO9VN0C6WnvBYui3QMOyp0C/yHjBFISIQPs0nED8/4PBm7adQMI11EAJ
UJHBYCflQHCsj0BpaIvBuUQdQFQhSkDnzJfBNYxgQJObJUBV6I7BYPykQBUKqj9OlZXBLZhdQAFN
/L9iiqHBQXhYQNH1UsCp2Z3BDIH5QNzWlUCjhKDBarUEQXMxnkDP26rBYMGQQBgQlb9O+p3Ba27C
QJelkEAucrLBLZOLQHCPccDtrZbBVLOyQM9hiEB9F6jBfPPNQIobi0D1Op/BLO7tQDuim0Cwz7PB
kj2vQHor2r9kzJbBjImLQG6ZcUAk9JnByLHWQMXIxj/4vIzBW0LOQF2t5UDqxIvByESJQEgp60Av
ZoHB2yLUQCDOWL9f+pLBgmXBQDePKUBj8IXBRYmqQLk/okAO9oPBcoqjQIgNz0AiJonBfUnEQNAb
gkAWAIvBgiGsQGgPP8BVSJPBskWKQKXceUDIbaTBbPK0QELYgUDpZpbBQK5RQDpYW0DkmpPBDTzD
QBBMmz4aCI3BVIX4QCNO4j9dbZHBm/MAQQvvpUDOmcDBBEUuQEtHyr/EAafBYyYlQLU8fMDzeKDB
kzUHQeahl0CIp5nBcVUVQRqQpkAL8avBwJGTQClYEr6TsKDBqmitQLqZjkDcSLnBo5SJQERZmcAJ
1ZPBuwbhQBqz0UBVSpHBVqnHQEhmAkEKiY/BjH7gQG+l6kBlWITBbLNVQBQd20BuDH/BtYmbQKgg
8ED19XPBf7SCQOUjBUGfK4XBgwXpQPpsuL9tuY3BdJvmQL2L+75t6JnBlGqfQL4mGUDk54TBZC3R
QKg1K0C4JnzB7fe7QHXCpkClzHjBgPaKQOoslEAITYLBqEmRQCjqykAWmpDBjQ7mQD4IjEAO5orB
BRoeQPS1UkB0N5jB48BeQD8iJUDtrY/BJQeoQPS9OD6874jB

> <OMEGA_E>
cN4xPmD9Oz6UPr0+YKTMPrxKLz+aYzE/SuQ4P/A3OT8oPUQ/

> <OMEGA_NBR>
     34812

$$$$
50164896
  -OEChem-04172616093D

 45 47  0     1  0  0  0  0  0999 V2000
    4.9786    0.6058  -22.2148 C   0  0  0  0  0  0  0  0  0  0  0  0
    5.9042    0.0270  -23.0973 C   0  0  0  0  0  0  0  0  0  0  0  0
    7.7415    4.6434  -20.0744 C   0  0  0  0  0  0  0  0  0  0  0  0
    8.2545    4.7830  -21.3786 C   0  0  0  0  0  0  0  0  0  0  0  0
    5.2189    0.5173  -20.8356 C   0  0  0  0  0  0  0  0  0  0  0  0
    6.0356    4.3319  -22.3102 C   0  0  0  0  0  0  0  0  0  0  0  0
    7.0494   -0.6094  -22.5766 C   0  0  0  0  0  0  0  0  0  0  0  0
    5.5308    4.1905  -21.0049 C   0  0  0  0  0  0  0  0  0  0  0  0
    6.3757    4.3457  -19.9009 C   0  0  0  0  0  0  0  0  0  0  0  0
    7.4028    4.6290  -22.4949 C   0  0  0  0  0  0  0  0  0  0  0  0
    6.3974   -0.1208  -20.3743 C   0  0  0  0  0  0  0  0  0  0  0  0
    4.3002    3.8189  -19.2188 C   0  0  0  0  0  0  0  0  0  0  0  0
    6.7701    1.7351  -17.5322 C   0  0  0  0  0  0  0  0  0  0  0  0
    5.4593    6.6108  -17.0323 C   0  0  0  0  0  0  0  0  0  0  0  0
    6.6070   -0.3751  -18.8988 C   0  0  0  0  0  0  0  0  0  0  0  0
    6.0260    2.7832  -16.7102 C   0  0  0  0  0  0  0  0  0  0  0  0
    5.3073    5.1808  -16.4989 C   0  0  0  0  0  0  0  0  0  0  0  0
    6.0897    4.1731  -17.3696 C   0  0  2  0  0  0  0  0  0  0  0  0
    7.2782   -0.6728  -21.2442 N   0  0  0  0  0  0  0  0  0  0  0  0
    4.2651    3.8730  -20.5326 N   0  0  0  0  0  0  0  0  0  0  0  0
    5.5917    4.1329  -18.7864 N   0  0  0  0  0  0  0  0  0  0  0  0
    3.2142    3.4837  -18.4247 N   0  0  0  0  0  0  0  0  0  0  0  0
    6.0369    0.6899  -18.0703 N   0  0  0  0  0  0  0  0  0  0  0  0
    7.9714    1.8601  -17.7469 O   0  0  0  0  0  0  0  0  0  0  0  0
    8.0469    4.7960  -24.1074 Cl  0  0  0  0  0  0  0  0  0  0  0  0
    4.0997    1.1089  -22.5900 H   0  0  0  0  0  0  0  0  0  0  0  0
    5.7407    0.0687  -24.1641 H   0  0  0  0  0  0  0  0  0  0  0  0
    8.3878    4.7632  -19.2174 H   0  0  0  0  0  0  0  0  0  0  0  0
    9.3005    5.0082  -21.5255 H   0  0  0  0  0  0  0  0  0  0  0  0
    4.5122    0.9316  -20.1317 H   0  0  0  0  0  0  0  0  0  0  0  0
    5.3832    4.2143  -23.1628 H   0  0  0  0  0  0  0  0  0  0  0  0
    7.7600   -1.0563  -23.2561 H   0  0  0  0  0  0  0  0  0  0  0  0
    4.8923    7.3034  -16.3930 H   0  0  0  0  0  0  0  0  0  0  0  0
    6.5224    6.8933  -17.0261 H   0  0  0  0  0  0  0  0  0  0  0  0
    5.0725    6.6614  -18.0608 H   0  0  0  0  0  0  0  0  0  0  0  0
    6.1270   -1.3281  -18.6314 H   0  0  0  0  0  0  0  0  0  0  0  0
    7.6869   -0.4399  -18.6998 H   0  0  0  0  0  0  0  0  0  0  0  0
    4.9725    2.4809  -16.6164 H   0  0  0  0  0  0  0  0  0  0  0  0
    6.4811    2.8415  -15.7105 H   0  0  0  0  0  0  0  0  0  0  0  0
    5.6918    5.1394  -15.4691 H   0  0  0  0  0  0  0  0  0  0  0  0
    4.2418    4.9075  -16.5038 H   0  0  0  0  0  0  0  0  0  0  0  0
    7.1430    4.4900  -17.3839 H   0  0  0  0  0  0  0  0  0  0  0  0
    2.4219    3.2954  -19.0051 H   0  0  0  0  0  0  0  0  0  0  0  0
    3.4337    2.6702  -17.8862 H   0  0  0  0  0  0  0  0  0  0  0  0
    5.0554    0.6607  -17.8809 H   0  0  0  0  0  0  0  0  0  0  0  0
  1  2  1  0  0  0  0
  1  5  2  0  0  0  0
  2  7  2  0  0  0  0
  3  4  2  0  0  0  0
  3  9  1  0  0  0  0
  4 10  1  0  0  0  0
  5 11  1  0  0  0  0
  6  8  1  0  0  0  0
  6 10  2  0  0  0  0
  7 19  1  0  0  0  0
  8  9  2  0  0  0  0
  8 20  1  0  0  0  0
  9 21  1  0  0  0  0
 10 25  1  0  0  0  0
 11 15  1  0  0  0  0
 11 19  2  0  0  0  0
 12 20  2  0  0  0  0
 12 21  1  0  0  0  0
 12 22  1  0  0  0  0
 13 16  1  0  0  0  0
 13 23  1  0  0  0  0
 13 24  2  0  0  0  0
 14 17  1  0  0  0  0
 15 23  1  0  0  0  0
 16 18  1  0  0  0  0
 17 18  1  0  0  0  0
 18 21  1  0  0  0  0
  1 26  1  0  0  0  0
  2 27  1  0  0  0  0
  3 28  1  0  0  0  0
  4 29  1  0  0  0  0
  5 30  1  0  0  0  0
  6 31  1  0  0  0  0
  7 32  1  0  0  0  0
 14 33  1  0  0  0  0
 14 34  1  0  0  0  0
 14 35  1  0  0  0  0
 15 36  1  0  0  0  0
 15 37  1  0  0  0  0
 16 38  1  0  0  0  0
 16 39  1  0  0  0  0
 17 40  1  0  0  0  0
 17 41  1  0  0  0  0
 18 42  1  0  0  0  0
 22 43  1  0  0  0  0
 22 44  1  0  0  0  0
 23 45  1  0  0  0  0
M  END
> <OMEGA_C>
3FCfQFQWGz/+t7HBEO+8QDgV3TxVx7jBrrr3QBOXlEBkmKDBhRIEQY4OmUB2B6vB2gCnQEBtBD9P
r6bBlCPBQECfikBee7LBE5XhQBIAHL/JnLTBHPywQLIYhkAhCqjBDgbMQF8Qi0D7NJ/BzePsQK0g
lECg9bPBXrfMQIpX972F/qLBDZuJQEZpdEABwJnB1KTYQEkX3j/0QYzBwbKuQNOL00A5QojBLmzT
QLQQwL7EMJfB7tTAQF8gMkB6roXBldWpQCrJpUDL/YPB9t7CQOOJhUDa9IrBU+foQI45LL8c9KnB
T3uIQLjfd0C2QqTB1O6yQE9AhECdSpbBs7VNQIn1XkDjZZPBUy7BQMmaMD/8j5DBExb/QEcW7j+f
+Y3B5r8AQYJ4mUDr28DBlzCDQAbxjT9UuLTB1LO3QLerjD0EUMHBUzQGQYVsmEBIvZnBCc8UQcVC
oEAhNKzBR2SQQFV6bj+1DaHBFUOsQNXbhkCBTbnBSlL4QFszh79yDLrB7Y2cQKa16UDDJIPBrbfQ
QKmV3ECNNYjBoFGiQIcq1UCPfJDBhRDEQMH+qb8KDZXByvr1QOE74b43mZXB1h6fQJPHHkBY7oTB
kmXPQJ/bNUAdXnvBCyO2QJN1pECNgXfB/ryHQHEKnUDJB4TBJ5PkQH2uj0AgEovBUAAbQOznUkBc
CpjBacFbQCrlKkDnFo/BMMahQKUgKT8PDI/B5bvdQNEWA78Xa7XB+li4QLyJID6DmrjBUSP4QGEH
lUC/a6DBHW4EQeWimUCJ0arBpvvmQOyRGr9IeKrB8VXCQAEcikCIa7LBAXudQNI2OT9VwbDBceCx
QG1phUAAA6jBT4fMQFTdikAnIJ/BH//tQMA8lEAVzrPBh9jKQL4gpbwb+6LBv0KKQLqIcUABzZnB
jbPYQIIE4j9P8IvBVPeuQPdV1EAabIjBMTrSQPGimr4hQ5fBkkrBQCGENEDKXoXBTc2oQE6xpkB8
MITB8KfCQCc9hkCH44rBFcamQJUAID9vM6bB9W6JQFUGdUAxUKTBszqzQJ3Sg0D7QpbBOipPQGF6
WkCmgpPBrYbAQI5eQT8Og5DBXCH/QF7u8D/BuY3B/YEBQe6lmUD4qMDBPvHyQGd6cr8FSbvBEj+w
QCYjcj6G+sDBAUEGQQg9mUBehZnBNyIVQcROoUBB7KvBNrcBQWEEj7/WyafBC8KtQEMBhkAISbnB
4OSAQM6enz8mNrPBtj2cQFrG6kB+hIPBaw7RQEbz3EAlA4jB7AekQOsG1kCzxpDBlszCQHS+oL+1
LZXBg9r0QGGHwL52y5XBfLefQEXoIECAYYTBWpLQQEyhOUDd73rBIqyzQFxBpUCNp3fBpKWGQAFV
nkBVl4TBXCvkQJn/kEBO+orBsAAdQJtNTUCdMpjBayVeQDK5JkBdMY/B2wWhQLO6Pz/RG4/Bw423
QEvCIsCxApDBV9K3QL1MXMBynZjBAxX3QOaslkAAtKDBp/0DQQwemECMIqvBQCXFQJ69nb9A0pHB
BtzBQN4WhUBkebLBgs7GQOfZQMCasqLBayyxQDy0g0B1B6jBUnDLQFjzjEAGRZ/BwlDtQHrGj0CP
A7TBAHPRQJQdV78tUpzBEWOJQBtldkCZpZnBgFTbQH8c9D//243BDrerQPJF1UA6MIjBcFLaQC4j
GT+e/57BRBTDQFLDNUDuT4bBx0GpQC5Op0D52IPBzdrCQAKOiECVCYvBHGfTQJR03r+4YqTBx9+I
QLVQckAFKKTBJiWyQDMhiEApTpbBOGtOQB9oX0AgLJPBJpzGQKpIuz/tCpfB7pIAQbe90z/TOIzB
OxYBQU4Jk0DT7cDBphWtQLXVNsAPK4jBhqWsQD6RjsBKiZfBhKoFQQ7znEAv4ZnBIq8UQQmcn0B1
WazBok7GQAvdBb84UIvB2Z2tQLEWfEB5QLnBij3IQKUhbsA6N6nBUkWZQKG96kDQ9ILB0FHNQNK3
30ASZYjBF1KeQMJA1kCcUpDBKRn9QCKkRD/GEZ/BSAjNQP0xVD9776bB+vehQN0IH0D+Y4XBBe7S
QMJ5NkAs6XzB7Ji2QM6ApkC5aXfBM5mHQL4JnUBmooPB1inkQBDpk0DVO4vBbKIdQJDES0BQu5fB
XUdgQCX4L0DISY7BIWSoQCe34D+JP5jB

> <OMEGA_E>
IL7lPYDo9D3oMSc/

> <OMEGA_NBR>
     37443

$$$$
50164907
  -OEChem-04172616093D

 51 52  0     1  0  0  0  0  0999 V2000
    7.7352    4.6471  -20.0494 C   0  0  0  0  0  0  0  0  0  0  0  0
    8.2589    4.8002  -21.3486 C   0  0  0  0  0  0  0  0  0  0  0  0
    6.0464    4.3706  -22.3019 C   0  0  0  0  0  0  0  0  0  0  0  0
    5.5321    4.2060  -21.0029 C   0  0  0  0  0  0  0  0  0  0  0  0
    6.3678    4.3473  -19.8894 C   0  0  0  0  0  0  0  0  0  0  0  0
    7.4157    4.6617  -22.4734 C   0  0  0  0  0  0  0  0  0  0  0  0
    4.2865    3.8061  -19.2331 C   0  0  0  0  0  0  0  0  0  0  0  0
    6.7859    1.7146  -17.4655 C   0  0  0  0  0  0  0  0  0  0  0  0
    5.5043    6.5858  -17.0323 C   0  0  0  0  0  0  0  0  0  0  0  0
    6.5249   -1.4436  -21.9457 C   0  0  0  0  0  0  0  0  0  0  0  0
    4.4843   -0.1834  -21.0478 C   0  0  0  0  0  0  0  0  0  0  0  0
    5.9153    0.8084  -22.8441 C   0  0  0  0  0  0  0  0  0  0  0  0
    5.9475    2.7353  -16.7047 C   0  0  0  0  0  0  0  0  0  0  0  0
    5.2894    5.1608  -16.5040 C   0  0  0  0  0  0  0  0  0  0  0  0
    6.8480    0.6035  -20.4959 C   0  0  0  0  0  0  0  0  0  0  0  0
    6.8321   -0.1364  -19.1300 C   0  0  0  0  0  0  0  0  0  0  0  0
    6.0540    4.1298  -17.3603 C   0  0  2  0  0  0  0  0  0  0  0  0
    5.9412   -0.0591  -21.5664 C   0  0  0  0  0  0  0  0  0  0  0  0
    4.2642    3.8739  -20.5464 N   0  0  0  0  0  0  0  0  0  0  0  0
    5.5754    4.1075  -18.7848 N   0  0  0  0  0  0  0  0  0  0  0  0
    3.1901    3.4767  -18.4508 N   0  0  0  0  0  0  0  0  0  0  0  0
    6.1451    0.6767  -18.1260 N   0  0  0  0  0  0  0  0  0  0  0  0
    7.9874    1.9127  -17.6169 O   0  0  0  0  0  0  0  0  0  0  0  0
    8.0704    4.8462  -24.0799 Cl  0  0  0  0  0  0  0  0  0  0  0  0
    8.3746    4.7582  -19.1862 H   0  0  0  0  0  0  0  0  0  0  0  0
    9.3067    5.0238  -21.4846 H   0  0  0  0  0  0  0  0  0  0  0  0
    5.3983    4.2748  -23.1605 H   0  0  0  0  0  0  0  0  0  0  0  0
    4.9490    7.2980  -16.4042 H   0  0  0  0  0  0  0  0  0  0  0  0
    6.5765    6.8298  -17.0030 H   0  0  0  0  0  0  0  0  0  0  0  0
    5.1417    6.6510  -18.0688 H   0  0  0  0  0  0  0  0  0  0  0  0
    7.5560   -1.3204  -22.3086 H   0  0  0  0  0  0  0  0  0  0  0  0
    6.5234   -2.0969  -21.0608 H   0  0  0  0  0  0  0  0  0  0  0  0
    5.9096   -1.8965  -22.7370 H   0  0  0  0  0  0  0  0  0  0  0  0
    4.1006    0.8143  -20.7880 H   0  0  0  0  0  0  0  0  0  0  0  0
    3.8526   -0.6263  -21.8319 H   0  0  0  0  0  0  0  0  0  0  0  0
    4.4664   -0.8267  -20.1557 H   0  0  0  0  0  0  0  0  0  0  0  0
    5.5044    1.8006  -22.6059 H   0  0  0  0  0  0  0  0  0  0  0  0
    6.9383    0.9189  -23.2329 H   0  0  0  0  0  0  0  0  0  0  0  0
    5.2847    0.3233  -23.6038 H   0  0  0  0  0  0  0  0  0  0  0  0
    4.8956    2.4138  -16.7096 H   0  0  0  0  0  0  0  0  0  0  0  0
    6.3074    2.7962  -15.6670 H   0  0  0  0  0  0  0  0  0  0  0  0
    5.6501    5.1042  -15.4663 H   0  0  0  0  0  0  0  0  0  0  0  0
    4.2153    4.9254  -16.5321 H   0  0  0  0  0  0  0  0  0  0  0  0
    6.5029    1.6358  -20.3373 H   0  0  0  0  0  0  0  0  0  0  0  0
    7.8811    0.6161  -20.8736 H   0  0  0  0  0  0  0  0  0  0  0  0
    6.3069   -1.0964  -19.2422 H   0  0  0  0  0  0  0  0  0  0  0  0
    7.8664   -0.3203  -18.8037 H   0  0  0  0  0  0  0  0  0  0  0  0
    7.1156    4.4178  -17.3602 H   0  0  0  0  0  0  0  0  0  0  0  0
    2.4001    3.3039  -19.0390 H   0  0  0  0  0  0  0  0  0  0  0  0
    3.3952    2.6553  -17.9186 H   0  0  0  0  0  0  0  0  0  0  0  0
    5.1888    0.4790  -17.9104 H   0  0  0  0  0  0  0  0  0  0  0  0
  1  2  2  0  0  0  0
  1  5  1  0  0  0  0
  2  6  1  0  0  0  0
  3  4  1  0  0  0  0
  3  6  2  0  0  0  0
  4  5  2  0  0  0  0
  4 19  1  0  0  0  0
  5 20  1  0  0  0  0
  6 24  1  0  0  0  0
  7 19  2  0  0  0  0
  7 20  1  0  0  0  0
  7 21  1  0  0  0  0
  8 13  1  0  0  0  0
  8 22  1  0  0  0  0
  8 23  2  0  0  0  0
  9 14  1  0  0  0  0
 10 18  1  0  0  0  0
 11 18  1  0  0  0  0
 12 18  1  0  0  0  0
 13 17  1  0  0  0  0
 14 17  1  0  0  0  0
 15 16  1  0  0  0  0
 15 18  1  0  0  0  0
 16 22  1  0  0  0  0
 17 20  1  0  0  0  0
  1 25  1  0  0  0  0
  2 26  1  0  0  0  0
  3 27  1  0  0  0  0
  9 28  1  0  0  0  0
  9 29  1  0  0  0  0
  9 30  1  0  0  0  0
 10 31  1  0  0  0  0
 10 32  1  0  0  0  0
 10 33  1  0  0  0  0
 11 34  1  0  0  0  0
 11 35  1  0  0  0  0
 11 36  1  0  0  0  0
 12 37  1  0  0  0  0
 12 38  1  0  0  0  0
 12 39  1  0  0  0  0
 13 40  1  0  0  0  0
 13 41  1  0  0  0  0
 14 42  1  0  0  0  0
 14 43  1  0  0  0  0
 15 44  1  0  0  0  0
 15 45  1  0  0  0  0
 16 46  1  0  0  0  0
 16 47  1  0  0  0  0
 17 48  1  0  0  0  0
 21 49  1  0  0  0  0
 21 50  1  0  0  0  0
 22 51  1  0  0  0  0
M  END
> <OMEGA_C>
XIb3QKS0lEBDZaDBXiQEQfGamUDtyarBCHzBQN/bi0A/arLBkwaxQMGXhkDeBajBFcXLQEAdi0B5
HZ/BoE3tQH0slUBsybPBTSuJQHiXc0Bc3ZnBGybZQNx32z9fuYvBaiOwQB6/0kA4QojBV8zQQA3H
uL/akK/BCn+PQMDPO77lYajByUm9QHbyTj+rwLbB91G+QPgPL0Aio4XB8EKpQKQlpUAdCITB4yLb
QIp9Gj+r96PBgqDaQMywC741CpnBbbrBQHYnhEDm4YrBNR6+QDAdcr0ViKzBOnSIQLTud0D2XqTB
C2qyQHJwg0BSR5bBiCpMQDCCXkAsm5PBU6TEQBk9LT/+AZHB+5j/QNPU9D9Y74zBdSABQaoTm0Cj
o8DBT/4FQRNDmEBdfZnBNegUQbnCoEBm4KvBir6sQJDLiECeSLnBal6eQASJ6UDmO4PB2HLSQPGN
2kAaBojBtIikQCjV1EDjjJDBH8vxQPQCqb/3d7LBgr/QQC00BsB/fKjBKxu9QKLB8r9p5bXBFziD
QL1yUD/lTabBwZB2QABVIL/Ep67Bt+yOQHCiU7/aPqHBXSSwQHd65j/t2LTBhAbeQF4/az/y3LnB
VRypQEaIpT571LzBhKicQFV7GkBcrYXBPNbJQMf0MkDxq3rBwc20QJZVo0ARdnfBnuOGQM2cnUDR
QYTBAxjQQORi0T/AsqLBzTH8QBu7HT8O/abBBtLJQKZWjL8d8JnBQbn7QHL7o77sbZbBObPjQABf
jUCt4YrBV5sZQMlzU0D4T5jBEUtZQGHwKUA8WY/BiwqmQLhF9T6ASI/BHlX4QOZPlEBpMaDBKrsE
QVYRmUDki6rBLrnCQNw0jEBkULLBoOmxQN/5hkD09KfBjnPMQL4ni0BUAJ/B+LDuQAIYlUAimLPB
eqKJQHpsdEA73pnBYGPZQLAi2z8144vBPCWuQGSm0kBZI4jBTGCoQDPhQD+nCLbBsnTuQEpFqr68
ILHBaImoQHpwu7+IrKzBovG/QDHFL0BvhYXB6qmoQCTZpEB36oPBavW9QPdcKD9mvaLBNijQQO42
Br5+I5nB/AjCQOyThEB0yYrBoqm/QNTy0L1Aia3BWC2JQIQneUB/YKTBltGyQAi+g0CwNJbB18xM
QHP1XkCsr5PBtPnDQPfGFT+8cI/BRET+QImF+T9prI7B0RMCQQjemkABZcDB3E0GQcmll0D+PpnB
ZI8VQWzDn0BvkavBqyiuQK1xiUA6ObnBnsGbQPTi6EAgGYPBFTbQQKB420AM7IfBm2eiQHtq1EAh
bJDB9BCHQPTDaz9BhrPBPMC4QEBc3D9B3rbBPr+oQBcdaD40wr3ByDT/QJHocL9QHKvB+LfuQMGO
W7863LjB9rj+QHkiIz9H+LHBfam4QFevBcCYp6bBmBGHQEChpr8cR6rBommpQAxq/L9VerTBbFGe
QMI6G0AiGYXBZDvNQNbnM0AMx3rBOVW0QApco0BjPnfBv4aGQOVNnEBHH4TBE1ecQIvpZj9cA6HB
y3fQQJgtyz/TlaPB9q7CQJ/Wkr9wA5nBazrzQOT0Qb6OupnBnLrjQJrDjkAjxYrBVogaQOz7U0Cp
cZjBAMtZQBZAKkD4co/BHSCrQNC8fT7dLovBUXn3QL6olECEiqDBB/gDQTeDmEBu/arB9h7BQGsI
iUBpaLLBZ9awQAeIhUAE9qfBUtDLQD/tikC/I5/BF9HsQGWRkkDd6LPB/1CJQHRsdEDMrJnBjnrZ
QAlc3j+2KIzB0m+uQKqd00Bqm4jB2ZaeQEyNUT9G/6rBSrnvQDIGSD8as6vBIo/EQI7pdL8DO7XB
50K/QEWgMEAk0YXBhrmpQP4hpkCGEYTBuqHGQP+rgL856KDBC9TaQMDQz76CmpbBTV7CQE0nhUB3
7YrBdKXGQBC9pr2XCKvBLyqIQOIueEDILKTBj62yQNAehEC9PJbBpCRNQLjMXkDZUpPB3JvEQFTY
SD8ZapLBW08AQT+p6T9zJYzByLAAQdX5lkDp1MDBaggGQUkcmUAnsZnBsaoUQTgFoECoLqzBJlys
QJB2hEBUOLnBfZOcQIE96kBnjoPBS3fQQOOb3EB7tojBraWhQCyL1EBpzZDBA7eBQMbZRD6gharB
r7+fQH0Jvz9PDKTBZLmdQPLutD9HZbLBHP8FQa/yAD7Zt6vByinvQFAmsD/IGbPBFTDxQNxAuj/Q
wKTBNrrgQDO/zr8yirXB/kynQDawyL8SD7XBtifEQA5Cnr7aV7zBl42dQLFeHEBns4XBR4TLQNqh
M0D3JnvB9m62QNKEpUAXunfBWJ2HQBx0nUD584PBbXHYQODA9b9f7KLBpjClQMeiob9GF5/BhX7a
QM8nl7/1W5DBqxn8QEUUAb5BZ5jBjUnkQIuPjkDM+4rBMGcaQIzjUkBq95fBUjRbQHKcKkAdCo/B
oZulQMqtaT+iHJTBqD/4QGa9lECoSaDBi4IEQYcjmkDEqKrB5lPCQDYrjEDIWLLB8c2xQIK6hkD/
9qfBxILMQJsLi0CwCp/BKhXuQBgGlkCdrLPBnPCJQAIVc0CR0ZnB+N3YQMCU3T+kyovBjOiuQPxw
00A/UIjB3lTzQF6NFj9NGLHBQ6zQQLfl0b9AlK3BjzCnQFlDTj74u7bBSFDAQCanMUCFWYXBBtao
QBfKpUDsDITB1L+3QMMM2T6aNKPB1G3QQMjpvr1iX5nBB1DCQDQohUAYy4rBFevIQAgX5r3NCa7B
8DSJQHsVeECDU6TBghOzQJeQg0B4NZbBSABOQOKQXEDTlpPBXAzCQAigKz9UFZDBIa3+QJlO9T9m
/I3BIooBQVHtnEA6fcDBeVgGQfr+l0B4XpnBMEQVQexvoUBruKvBL7qtQOnViEDeO7nBkm6cQLTu
6UBrXYPBjQfRQNP+20DV/ofB1J+jQB8f1UBxo5DBDT/uQON71j/ocrHBp+wFQVhZuD7CDKvBvBH+
QAvWZz7K9bjBk7iyQF2cCcAvaavBbYXbQORI/7+cdLXB/0zpQE8t7r+Ti6fBY8qIQDp+lL66rbTB
PkOiQHj/pD8QM7fBJ4ayQLlfL76Ig77B/6meQPiuHUCMr4TBam3OQExcNkB+nnrBwQy0QJZjpEDC
bnfBCKWGQOGDnUD+W4TBnhCWQKLM9j3taKLBXNi5QLTNwj8+TqPB/7fJQL7KlL8jKpjBfQDzQGbY
UT01jprBoPrjQPduj0A50YrBKKIbQLsTUUCwT5jBcOBbQAjrJ0BVYo/BdFWmQFCB1D4qpYzB7Bz4
QEIblUBKs6HBn8gDQXJKm0BMJqzBd82/QM4ojkCNVLPBcqawQKh9h0AP4KjBIpvMQEMBi0BsM6DB
enrrQIO1l0CN87TB8eqKQDtwcUBndprBlVnYQEX+7j9O24rBu1rAQG/QxkAoRH3BK4jhQP0g/b7D
+6/B0paXQJucoL8Kj6rB4dWgQO4YYz9rsLTB5SXCQMTFQkDfKoXBCV+oQIiEr0BGiYfBLJe4QD5B
Rz95iaHBpP7IQECRz7tetJfBCWrDQNN4ikAfKIzB4Qe1QLDL7LzEFKzBCpmIQJQ/eEDa76TB/Wi0
QG8Ag0BkQpfBhnhSQA4tWkC61ZPB4ki/QPtNTD9+L47BsZL9QHBL/T9u2I3BuAT/QDKgnkAI5MHB
IagGQdAPmEDI6prBLHQUQQHHokBzca3BhzyqQIf/i0BbD7rBBFqsQPvx4EDwBHfB2anHQDMysED9
SHDB91feQNgV1ECX1IHBlnH2QKiewj7oD7HB2bDvQOvllb85BKrBeSPeQNYQg79YprfBA+FvQDjU
a78ZyKfBzyeUQMly5L/dOLLBL7WlQN5H97+/lqTBcSCBQMWUnD+d+bHBcY+1QNlt4T8q/rXBqnid
QFjypz6QOLzBMZmgQIWiMUDplYPBcJfSQFFqT0AEGXvBtV6KQNt3okAUSoTB0wyhQIFbxkAt+o3B
35qYQH+YlT8Ymp/BPKLOQOMSzz8y8aLBZri4QGPHer9JMZfBzbvrQLtuKL4/WZjBo93kQNRZlUAg
e4zBLzAeQJR6T0A9QJjBpuNhQL/nJEB614/Bu1mlQLygED/S4onBNDL4QL6vl0CleaDB6+kDQe+/
nUCc8qrBRp/BQBIii0A3RLLBWDayQEIyhUD6yqfB1BjNQADWi0Ad/J7BgHrsQCzgl0Dm07PBBpSL
QJjqb0CqcpnBlojVQCzi5j/q1YvBNv2uQIbI1EDdqIjBAr7FQLiIE8CqnKbBaMzrQCuI4758jLDB
GeYKQU7hAsBN9aTB6nrCQAEsN0BPtYTBXHaqQODFp0Cv9IPBmM7mQMsq0b7PIZzBTrPCQLV/Hj9C
75zBEAzEQLQTh0Arj4rBvgHrQGDrpL9TH6bBAHeKQG5ocUAH96PBBlm0QE9OhEAdAJbBnDFTQIig
VkD6DpPB1Km4QG4lkD+SVZLB6gX8QBwG7T8Yu43BVKL/QFrIoEBJwcDBwoMGQcITnEBgq5nBTGQU
QdbnpkAkL6zB4tSsQFP7hUAIDLnBNnGcQC6N60DDzoPB7OjQQJ0v3kCxoYjBEOCiQBz01EAH7JDB
+z7FQA+3OcA6OJ/BiECnQA364b9QcafBljnKQAwrPsBFhq3BGCgDQVMnjj6oLrDBo03wQF4Djr+Q
d7fBlVTNQOSKxT2bYrHBniUYQVc8qb8snKTB6agKQU0LKcB+kJ3B8CMNQf2ELcDG3qvB1A+hQGi3
JkCS3ILBZ/PUQEo0O0DYd3rBKoO2QP7Vp0ABYHfBTnqIQHyankBW+oPBV5QCQYzqAj6S7ZrBzI7g
QA5xh79XNJXBfuTMQD3GuT8bGKLBmiGmQGa9ET6GYaDBO5vlQEOukUB7torBtpwhQHwvRkBCrpfB
cM5kQINyJECWm47BvxGbQGljej/oh4/BpIP2QP0UkUBqm6DBKKoDQWj6k0CZDavBts6/QEYIiUBD
ibLBDz6vQMcVhkD2GajBbV7KQM2IiUANPJ/BlQzsQOedj0AyAbTBFEmHQByrdECD6pnBQx3bQDhm
zj8FDovBsAizQP9oz0BQZojBzT6UQH4NY79D7aPBmRyoQM4faT+GAbHB3yfAQJzotb81dLTBRwS7
QCMjJUBRBIbBkgeqQM4cokCJHYTB8NziQKB7Zb43YKXBAR/mQIbYej8V6p3BbJTAQInTf0AeBYvB
2M+3QNgFxb7RiqvB9DKGQP/ne0BYYqTBPB6xQMlkgUBQY5bBJ9FHQJDYYUCGpZPB0xrOQKJDXT+B
2ZPBfakAQclv5z+ua4nBv4oAQaPvkUBg7MDB15kFQVialEADvpnBjI8UQUOKmUC3NqzBZtGqQHxG
hkCRXbnBqKCiQCUZ50BlWIPBA7PVQJB+1UAlQYjBnzenQEYC0kDaqZDBL9ueQC/F578X9J/BjZON
QEX28L2R3J3BlQFuQDdri7/ijKjBIQTBQA5MpD9rdrbBgsaKQK4nMz9CkbXBRVmhQKrv1T/x4KrB
EnzZQKOBhr9yzLnB0kzKQI/bF8BZ17DBEZ+iQNgUyr+bErnBVEyaQM0eDkDOhIfBzabAQKykKEDN
rnrB9cy1QLfGn0Bnr3fBkVGHQG1KnEBoQITBf6T8QC2cEL68VKvBYbLnQBO7kL99iqDBoAkEQTBb
kD8Q65vBhhfaQE877j+zPKLBJgHjQJFCh0DuAYvB8lgUQNXsWkBsUpjBhUxSQEd+K0CToY/B/8a0
QANagz4yVZPB5T32QK3tlUDS7qDBk1MDQcOmmEASaKvBw86/QJM2iEC0s7LBd4qvQFbhhUCeO6jB
NaTKQJMnjECgdJ/Bq43rQGtzkUDaRbTBwvKHQOg8eUBG15nBsELcQPrUzT+0zovBFZWtQAxX0UDO
vIjBAZnqQMgPZT/SrqzBGaPuQNN1sb/eK6TBT0LDQK9jgr/Y5rTBX0q+QL3fKUD6g4bBIherQKOx
o0CGGYTBPTCnQDAq+b2+faPB76OrQFhraD/8c5rBk4XCQKnPgkDmTIvBx+zQQFBAyL5eHqrB9NKG
QBbUeUCyXKTBKuaxQPPdhECugJbBo2NKQOa2ZUAoYZPBQ1jNQMH1Hj9at5LB9HcBQUQw2D9sZYrB
tSMAQe2lk0CsNsHBCWoFQVVEm0BhH5rB5v4TQa1AoEAbqazB/AOrQNz7gkB9ernBwZ+cQG2h50BC
aIPBEk3PQD0S20DPaonBTJueQNrj0UA/s5DBetzVQKwOzj8p6LDBXwr2QMpjrD8GMKXBMxEDQWkN
JD8vxrHBPMXcQM+DE8BRTaLBmxQFQegH0b8zSqnBLxH6QKVVbb8KtJzBQeGwQGgG+L/oZLPB00av
QEd4m77yWLnB7uffQIVfob9yornB7ASdQDNxFECkjYfBserFQIcBLUDw3XvB9vW5QECIo0BMP3jB
L0SJQNxZmkAWaIPBZuecQN1/ib9V65/BW2iOQBmvcz4RCqnBXGWyQAeO8T+bFp7BtQSNQO4BdD/i
IJbBcLXkQCUwi0AKY4vBTpUXQMSAWECk9JfBfmBYQObXMkDb2Y7Br+nZQItqmL60XpLBdQT5QAQC
mUBBSaDBGbMEQUf1nUCbtarBaW/DQERli0A+N7LBN0+zQLhYhkD0xafBxePNQCsNjUAY657BYKzu
QEMul0DGqbPBz3GMQHctcUBMepnBjkzXQIjx4D9m8YvBOSyrQDbt1ECszIjBaeD1QHhus7/nQLDB
uTaxQHAW0L1aCbLBbuL2QAbBij84H67BVajFQOrIN0BE0ITBTdCpQAS3p0Bd/YPBeVDWQKBTy75b
q5/BQN+0QD61Ej+VJJvBOM/EQMXRh0CvnorBQoTcQKiGSb5m8KvB7mGLQDPkc0B5AKTBRSS1QFjd
hEDY/5XBmPBUQB2sV0ASGpPB9LS5QKXbVT9yuo/Byq76QBpE8T+JFJDBIq4BQb4AnUB4i8DBd6UG
QaBRnkCYapnBtzkVQXrzpkCg26vBFe6uQKNNhkCdDbnBj6uXQH6n6kBM4oPBGHLMQO1k4EBj94jB
CGKeQLMc1EDb/pDB/EkKQek7vb8p/qvBOUnjQAmlFMAk/67ByOD7QHX+ob8d27jB+NKeQHTAQT9m
A6/BcmW3QIhm/zxlorrB482eQANOg79rxrDBf13lQHjo+j8FGqvBFPwKQVNegT/vCKrB9RP8QBSL
mD9qyLbBfdmkQAMMJ0BIaILBoPTZQP0xPUDQT3vBWny2QAfhqEDdkXfBS2yIQM2YnEBm0IPBowz1
QEETZb5CnJvBPa/LQJXqtr87LZ7B8523QGKYwz+adJ/BdumUQMYGFD6BgJzB/9XlQDv6k0C9yorB
SiIjQMsFSEC0upfBZFhmQNLtJEAzvY7BbVCnQFljrj6Vg4rBNKD4QFtpmUD2UaDBmnUEQSFqnkDG
v6rB6DDDQC3jikCjOrLB1BSzQEYHhkC+x6fBWp/NQJsXjUDF7p7BrUjuQD0ml0BDsbPBYkSMQCvg
cEAedZnBn6vXQDnw3z96t4vB502rQD+V1EAH6ojBOuixQBLiKj6mf7LBTpL+QI4/SD9yWq7BdvXp
QGvVz797nbDBqnrFQIpdN0ARuITBPCiqQI+Sp0AR/oPBb+3SQH0L076XB6DBZJi3QNKSPD85zpvB
o93EQBJ3h0CjnIrBH+baQGXFhb6rSazBjyqLQO5Lc0AY/KPBzgm1QMubhEC+/pXBeIhUQDTnV0BY
DpPBo/K5QDqFZD83QpDB2e77QJta7T/UZY/Bv3cBQcsPnUCPk8DBOXEGQej1nkCIdZnBbuwUQWfT
p0DZ6KvBJMiuQPtJhUBFD7nBbwCYQJF/6kBaAITBypDMQHYM4EAKMonBrCyeQG5y00D6EpHBgFWY
QFxvEb8+FrHBx2mnQIUDlD9BsK/Bege5QDw5XD6lG7vBBdkNQcqc+j5BAKrBOL4CQWgnVD9M+bbB
vt7zQBKQ4j/ojavBN3YDQWZS+L9bTazBiYzQQKq3F8A+cK/BVijxQJFfxL8IM7nBL42kQK+FJkDl
bYLBx0/ZQPxJPUAa+XrBtiu3QAIOqUAPpnfBmceIQPpznED3s4PB4uDxQDId076b1pvBfE/CQOeD
rr9lhZ7B04vCQMHS1T95kJ/BAhKWQK2CDD8nB57BavflQKdpk0DMz4rBaJciQD1dSECcqpfBAL1l
QIQ0JUAzrI7BiPelQDZrwT5Ej4vB

> <OMEGA_E>
2PyCPog1hT5IzYo+bMCBPjg/2T6QHto+OFzDPqDlsj6oIq4+kHqmPg==

> <OMEGA_NBR>
     46346

$$$$
50164932
  -OEChem-04172616093D

 46 48  0     1  0  0  0  0  0999 V2000
    5.8676    0.1402  -23.0948 C   0  0  0  0  0  0  0  0  0  0  0  0
    7.0224   -0.5203  -22.6317 C   0  0  0  0  0  0  0  0  0  0  0  0
    4.9556    0.6952  -22.1760 C   0  0  0  0  0  0  0  0  0  0  0  0
    7.2669   -0.6255  -21.2502 C   0  0  0  0  0  0  0  0  0  0  0  0
    5.1906    0.5762  -20.7932 C   0  0  0  0  0  0  0  0  0  0  0  0
    7.7304    4.5300  -19.8227 C   0  0  0  0  0  0  0  0  0  0  0  0
    8.3224    4.7281  -21.0897 C   0  0  0  0  0  0  0  0  0  0  0  0
    6.1714    4.3233  -22.1726 C   0  0  0  0  0  0  0  0  0  0  0  0
    6.3589   -0.0694  -20.3262 C   0  0  0  0  0  0  0  0  0  0  0  0
    5.5863    4.1306  -20.9088 C   0  0  0  0  0  0  0  0  0  0  0  0
    6.3483    4.2462  -19.7358 C   0  0  0  0  0  0  0  0  0  0  0  0
    7.5408    4.6365  -22.2626 C   0  0  0  0  0  0  0  0  0  0  0  0
    4.2051    3.7583  -19.2433 C   0  0  0  0  0  0  0  0  0  0  0  0
    6.8957    1.8353  -17.5687 C   0  0  0  0  0  0  0  0  0  0  0  0
    5.6401    6.6276  -17.0393 C   0  0  0  0  0  0  0  0  0  0  0  0
    6.5796   -0.3086  -18.8506 C   0  0  0  0  0  0  0  0  0  0  0  0
    6.2913    2.8160  -16.5726 C   0  0  0  0  0  0  0  0  0  0  0  0
    6.4505    5.3594  -16.7345 C   0  0  0  0  0  0  0  0  0  0  0  0
    5.6833    4.1011  -17.1939 C   0  0  1  0  0  0  0  0  0  0  0  0
    4.2854    3.8206  -20.5515 N   0  0  0  0  0  0  0  0  0  0  0  0
    5.4490    4.0413  -18.6875 N   0  0  0  0  0  0  0  0  0  0  0  0
    3.0526    3.4558  -18.5346 N   0  0  0  0  0  0  0  0  0  0  0  0
    6.0936    0.8035  -18.0323 N   0  0  0  0  0  0  0  0  0  0  0  0
    8.0754    1.9350  -17.8874 O   0  0  0  0  0  0  0  0  0  0  0  0
    8.2632    4.9157  -23.8277 Cl  0  0  0  0  0  0  0  0  0  0  0  0
    5.6813    0.2213  -24.1555 H   0  0  0  0  0  0  0  0  0  0  0  0
    7.7204   -0.9461  -23.3374 H   0  0  0  0  0  0  0  0  0  0  0  0
    4.0766    1.2117  -22.5322 H   0  0  0  0  0  0  0  0  0  0  0  0
    8.1520   -1.1334  -20.8968 H   0  0  0  0  0  0  0  0  0  0  0  0
    4.4780    0.9783  -20.0882 H   0  0  0  0  0  0  0  0  0  0  0  0
    8.3295    4.5949  -18.9265 H   0  0  0  0  0  0  0  0  0  0  0  0
    9.3768    4.9504  -21.1619 H   0  0  0  0  0  0  0  0  0  0  0  0
    5.5745    4.2317  -23.0680 H   0  0  0  0  0  0  0  0  0  0  0  0
    6.2025    7.5120  -16.7052 H   0  0  0  0  0  0  0  0  0  0  0  0
    5.4596    6.6958  -18.1223 H   0  0  0  0  0  0  0  0  0  0  0  0
    4.6773    6.5837  -16.5091 H   0  0  0  0  0  0  0  0  0  0  0  0
    6.0463   -1.2246  -18.5564 H   0  0  0  0  0  0  0  0  0  0  0  0
    7.6569   -0.4375  -18.6697 H   0  0  0  0  0  0  0  0  0  0  0  0
    5.4941    2.2942  -16.0229 H   0  0  0  0  0  0  0  0  0  0  0  0
    7.0826    3.1192  -15.8712 H   0  0  0  0  0  0  0  0  0  0  0  0
    7.4132    5.4094  -17.2643 H   0  0  0  0  0  0  0  0  0  0  0  0
    6.6310    5.2974  -15.6511 H   0  0  0  0  0  0  0  0  0  0  0  0
    4.6840    4.1923  -16.7431 H   0  0  0  0  0  0  0  0  0  0  0  0
    2.3005    3.2944  -19.1736 H   0  0  0  0  0  0  0  0  0  0  0  0
    3.2052    2.6342  -17.9853 H   0  0  0  0  0  0  0  0  0  0  0  0
    5.1229    0.8202  -17.7928 H   0  0  0  0  0  0  0  0  0  0  0  0
  1  2  1  0  0  0  0
  1  3  2  0  0  0  0
  2  4  2  0  0  0  0
  3  5  1  0  0  0  0
  4  9  1  0  0  0  0
  5  9  2  0  0  0  0
  6  7  2  0  0  0  0
  6 11  1  0  0  0  0
  7 12  1  0  0  0  0
  8 10  1  0  0  0  0
  8 12  2  0  0  0  0
  9 16  1  0  0  0  0
 10 11  2  0  0  0  0
 10 20  1  0  0  0  0
 11 21  1  0  0  0  0
 12 25  1  0  0  0  0
 13 20  2  0  0  0  0
 13 21  1  0  0  0  0
 13 22  1  0  0  0  0
 14 17  1  0  0  0  0
 14 23  1  0  0  0  0
 14 24  2  0  0  0  0
 15 18  1  0  0  0  0
 16 23  1  0  0  0  0
 17 19  1  0  0  0  0
 18 19  1  0  0  0  0
 19 21  1  0  0  0  0
  1 26  1  0  0  0  0
  2 27  1  0  0  0  0
  3 28  1  0  0  0  0
  4 29  1  0  0  0  0
  5 30  1  0  0  0  0
  6 31  1  0  0  0  0
  7 32  1  0  0  0  0
  8 33  1  0  0  0  0
 15 34  1  0  0  0  0
 15 35  1  0  0  0  0
 15 36  1  0  0  0  0
 16 37  1  0  0  0  0
 16 38  1  0  0  0  0
 17 39  1  0  0  0  0
 17 40  1  0  0  0  0
 18 41  1  0  0  0  0
 18 42  1  0  0  0  0
 19 43  1  0  0  0  0
 22 44  1  0  0  0  0
 22 45  1  0  0  0  0
 23 46  1  0  0  0  0
M  END
> <OMEGA_C>
rcO7QEaaDz4gwrjBrLfgQBIyBb/JDbXBaZSeQH73MT9haLHBJ4roQPAhIL91AKrBThmmQPl/Ez9j
WKbBOV/3QH71kEDolJ7BuygFQTxMl0Cxt6jBGnzFQLlYikCOYbHBR3zLQFArjr33m6LB7MKyQDgu
hEBPRafBhiXLQO3gh0Dz4p3B103xQDtelEDMGbLBP5CGQOqHcEAu8pnB06ncQGXq6j+2jIzBu3u0
QJUV1ECKUIjBCozSQJkFnr4EzpbBUlLJQOQ5NEDHlITBcWrOQFGAq0As4IXBNt21QFM8g0AsjYnB
ByKJQEaEdEB2aaTBAl6uQHtSgUD1f5XBpV1DQE8rXUDdRpTB/P7CQGKvTT87QpDB6DQBQYeu9z90
GY/BITYEQbdNnUApn77Bms21QL2PYj58PsHBKg33QDYycr8Is7rBNnOCQMIYmz/kQbTBv24CQYEU
kb+3LKfBiUuPQFZvej+7tKDBl0UFQR0Jk0BoaZfBjgcWQWVpnkCfS6nBF2KyQDpqh0BGi7jBE3vG
QOdh8EAqpIXBtLSuQJlD1kBo+pDBjayVQICt0kC1EoTBKnvBQG7AnL+Cc5TBpAX1QBb63754W5XB
18+vQMvUEkDeLoDBcKTiQDCgR0B/8H3B5zjtQCEarUA6HYrBwDDUQAiEqUAPa3rBqOOVQKQnhkDe
8YXBezsTQHPXUkCMY5nBwCFNQPKWKEDX4Y/Buu6jQHj4UT+XV47BW1O8QIQtET4W17jBWS2fQHHm
ND+Yh7HByRnhQGczBr+AFrXBX4imQJZdFz9IdabBf8ToQCMkIL8dB6rBClP3QMYSkEDInJ7BXSQF
QQpGlkDKv6jB5y3FQIiKikCjY7HB9bvLQEA9eL2lrKLBp3GyQKl+hEA3RqfBkvvKQLaih0Bv553B
hCjxQBrbk0AtH7LBp2CGQJaccEAi75nBM4LcQOr56j8Ff4zBU1e1QM0s1ECDdojBlY7SQCa1mb7k
3JbBedPIQBgeNEC5kITBVdPOQFdeq0CZ9IXBqNC1QJFNg0CzkYnBLsWIQNCXdUDDZaTBDTuuQKdA
gUALgpXBeFBDQBlWXEDoP5TBPd3CQDyZTz+1VZDB0TUBQWYi9z+d547B/zEEQVBknECTpb7BO3m2
QAigYD4wVcHBQjODQA4unT+8arTBVWr3QLAHdb8MtLrBxr+PQBcdgD822aDBJXsCQauUkb/tKafB
40kFQYTEkUAnc5fBzQ8WQZLjnEBIVqnBRfixQLEOiEByi7jBpKXHQKtX8ECr1YXBfpivQPww1kBa
IZHBs4OWQB0400CxOITBrnTBQHy3m7+viJTB+gD1QKt32748X5XBpwGvQJzFEkCZRoDBjdrhQMQq
R0ArtX3BzabtQC6DrEC/MYrBAZLUQFCKqUArknrBlOWVQJ6lhkBI9IXBFwsTQK42UkAJWZnBb4dN
QBFqJ0CY74/BrbKjQLQkVT9ih47BdWvMQDdKkr4sU7rBXmGnQK5QXb/32LXB1Z7pQCU+zj5qvbPB
smCfQJpLQL/pyKrBHuXhQDgVAj8ErajB6XP4QAxqkEBPRJ/BQi8FQZcylECDkKnBr0nEQJJrhkAF
mrHBImG8QEiMZb2/JKTBWIqyQLKlgkAOSqfBnFLMQLfjh0CpM57BwlTwQO1jj0D0t7LBc2OIQGgP
c0BrW5nBuLzOQLy1yD+Mn4nBcemtQBYL00DLiYjBNEm0QLC+MzyFKJjBST/fQNTGPkBC9IbBcATP
QGdtr0D4cYbBcOS9QF7KgkDHz4nBaySJQAClc0Dv4aPB7myxQO9JgkAAfZXB7txIQC9KYkABLpPB
fUnEQG2lpD+SJ5TB/EbOQEasMT+ivYLBK2MDQaiclECicL/BBWjSQImavb6tzsLBhRiRQEKnsr8D
57rBzfUCQbOFWT9PLbfBEv+CQFI5mb++YafBUp34QDudgj/wnaPB4icGQWwBlEC+QJjBYA0WQaDK
mkDidarB7l+wQCh8gkAqmLjB+EC7QJ8P8kA2DYbBEjSmQKsO1ED0HpHB36WQQABrzEDV74PBHr+R
QKb1iL1vlJbByBXFQFe5UL8uJZTBWjnmQFkmQkCVrXzBJcP8QF2VSkA9hIvBZTTsQM9ztkA6CovB
MqbWQCTQrkA3tnvB6vKgQGTgeEDWD4XBvtkWQIHUVkAo9pfBnr5TQHARL0CKlI7BdgzIQAx0AUAK
fJnBqd+eQILQwj4GGrnB+NF8QBULGD+XdLHBHMDIQKXUhj0mvrXBLLWHQCRp9T5ic6bByiDSQFjt
Mb1pvqrBjQ76QJaBlEDIqZ7B9qkGQeVsmEC5zKjBrInJQHyShUA9aLHBVIGxQI6oEj56D6PBMmm2
QPLGgUBfQKfBB2vOQDpEiUAc953Bmh/1QHQSkUC5KLLBg8WKQEKNbkA4q5nB91jTQC5L1z82DInB
0sOnQLIU1EBjF4nBDum7QG7rLD13OpfBtbLgQCBISECPd4bBiNPKQJ/3skBndobBWVi9QEfyhEDx
uInB5wqNQBsobkBDLqTBXKSyQPSZgkATe5XBL+VMQEh+WkBYyZPBbunMQDP0qT/XrJPB11vQQEE8
Wj8r24HBbKEGQchklkB2rr7BqamXQGWE6j5Yh8HBA9I8QNBiWD+dBrTB56jhQNSSu70XmbvB2LFd
QKIOJj+QmqDBNFTyQFdxir5gL6jBJUEGQV8NmkCUfZfBNFkXQUMToUCEaqnBEwi3QO55f0CLjrjB
YpWyQPEi9EB1qYbB1mihQGLX00Acv5HBHkmKQEXgy0DqvYTB1rWeQDKuSr6KtJLBj+nTQJbuPr/A
7ZXBDpfmQIm6TUDJonvBZEL+QIJVV0C424rBlzLoQG6Uu0D0zorB3xLRQFGds0CDm3vBp02gQKXE
eUA+LYXBZQEdQJnUS0BcxJjBbDFZQJVpKEBvDI/BSnTUQKEJAEABSZnBnrq0QBQFgD1H8LjBj+SS
QMN7hT6spLHBnpneQAbZJb4vI7XBkdWaQBorZD5Ii6bBwZXmQJJ+Tb6RCqrBmbf3QP0Fk0BLLZ/B
SIYFQX/QlUDWVKnBiMzGQIMThECe2rHBopnEQJDi8ryctqLB1ZyzQJdggUCerafBzNLLQHbXiEB2
a57BYaryQJ9njkCqqLLBOKuHQAGbckCADJrBwUvPQF2b5D8mGInByTrRQKFkvkCQYnfB6UfNQIx2
hL14zJbB/r3cQOY7TkCMe4bBWcnHQDoDt0Daq4fBJFa6QLUaiECmJ4rBKvmJQHIDcEBOj6TBjd6v
QPelg0CT5ZXBQMFFQIfkYkCiJJTBbLrYQHoupD9HMJPBBfi6QMsUkT99g4LBV3wFQZEPkkCcM7/B
pZGuQGtKqT1PcMHBAcNlQNka4j5cj7TBlY74QHXGm74gurrBzfiAQDAZxj4f96DBGF0DQY79uL5j
I6fBRikFQVqgmEAkCJjB+00WQWeknUAr/KnBvR20QBiXfEBB+rjBWYnaQDH030Cx1HTBqWa0QE42
t0Ao8m3B9nrrQFlDqUCUTHLBJ3CwQI8Oz76SjJLBednnQBJ5Qb9xI5XBSEfhQLMhVEAJk3vBKBH7
QCFSXEDalorBkrGtQDOFzECuHYrB38XkQD+SvkDkSozBq/+cQIZ/gUDLlIXBKl0VQPJwVUDwGZnB
E7hPQOY2MUBxQY/Bfk3oQPRO8D+vTpjBxPyRQIgSoL17tLPB7CGDQDeXrb6RQqnBlPS9QAPkDz6P
i7XB2EOgQMUHyb41qqDBNCHbQF8Ktz2d86zByi35QHZsmUC065/B+wMFQae2okDyHKrBtKHEQK3n
kkAjSbLBAGrMQORZSL5TgqLByPGzQPiliUAXFKjBcvbNQMHkjEBy+Z7BQNXvQJ18n0BgSLPBsG6L
QMG9cEDRVJrBOhraQOJGzj/+VozBxPmpQKi2z0CgEIjBIrfrQKREgb66RZnBhLHkQIy2QUCRYojB
BgHOQH+HrkCcsobBEnjAQNN3gUAHu4rByGyLQPbAeUBBzKTBuhq0QKYKgkBWYpbBl5BQQJAdWEB1
RpTB3E/yQL21ij95r5TBSDi8QHZmfT/VWojBR4YCQVsUq0Du37/Bi1x3QFqZO72ZTLrBiNZCQLPk
/r6v2KfBNEjJQBvFsT7qib3BldKUQPukFb91qJjB9L/8QEpPiT7pWa7BfJMGQafem0B15ZjBIIkV
Qd5TrEBt6qrB2YywQDBmkEAbSrnByPC0QHgD70DCHYXBFIKhQJFT0kDelJDB6buNQG5/xUCWeYPB
PPzeQFnca7+TDZPBf0MFQR55JL9ZKpzBFAbqQLBTP0AcYn/BRQoBQR2NV0AGY4zBQSDqQEwsuUDV
RYvBFlrWQCpYrEAaVXzB8UWkQO85b0D8EobBHmYeQGdqTkC5F5nBzileQFb+IUC7W5DBv9QEQbs6
0z+Ev5fBGwy2QANLs79q1rXBSbKSQMN9P7/EJ7HBsvjZQAiI3b+Siq/BtR2TQEjY3b4pKabBjGza
QFd6tb/+iqTBjHb4QPNJlUAypZ/BfNsEQULAnUCN1qnBYHvDQIHVkUBE+rHBQrq2QAsRSb9qyp/B
DmayQLZYiUB7w6fBIKbMQIsFi0ABrZ7BWlDvQN8HnEBd/rLBFy2JQDYSdEA7/ZnBnmHOQH8uwT8R
tIjBUrusQCJ9z0DfyYfBIVy3QHvD377/AJTB6nvhQH/UOkBHJ4jBIBvPQCKKrEBtd4bB7w6/QCYy
gEDEaIrBU0eJQB+DfUB4dKTB2WGyQL5ggUDfD5bB1fBKQP4iX0D765PBUR/KQHoMZT8dnZLBuLTB
QAYgdz+yfYDBHosCQW2JpkBblr/BCJu1QMHu0r9bP77BDpRuQBFs+r5z/rXBwCT1QEBJDsDlJLPB
3WFwQMGVnj3HmqLBqRX2QHey1L+kvp/Bs0sGQR2llkBPoZjBIZwVQRCTpUDppqrB+jivQCKNkEBU
+LjBcGK5QIpA7kD+6ITBOw6kQOdb0kBtSZDBizOQQOHNxkAqHYPB23mWQJN64b5Y3ZDBFqjKQLDP
lr/WpI/BFN/uQJU/RUCdHoDBrRv7QLRbQECwJY7BQYvrQCKjtUCQIIvBkbDXQBwVqkCa6HvBfX+i
QLTob0AwsoXBpzMYQCdyWEC1uZjBZJlVQC0tKECVC5DBflfUQLsusT/hGpnBwcytQGROCr9S8rfB
Pt2ZQIFCFb+O1K3B5u7ZQCDnhr7RurjBvR6yQOrRt76WfKTBtDjyQAD1Ib3KZa/BMuT3QIpXlEAw
Z6TB9FkBQXcLmEBfSK/BERi4QGXri0ByQrTBgYPeQCif170GPqXBGYqtQPtxh0DTW6nBWTTNQJEX
i0Dlb6HBuO/iQBbZk0AhNbfBSfOMQLgXe0B+9pnBzBj4QE0wAEC8to3Bm8WfQBzxxkActIbBs7r4
QNIMCD7QO5vBSRb4QGRaYEAlTovBAsLMQEajs0APSIjBB//KQMQKhUCei4zBYa6GQKiKf0DgWKTB
xm64QBawg0Cov5fBJKlZQFhBbUANepLB29z2QL/9xj/QQZjBMjT6QOx/mz8tN4bBh8rwQJQ7mUCH
qcTBO0KbQAQzOL9xGL/B1QVwQISVSb8ZPa3B+iHpQIdoZL6Je8DBvMOiQBhBw76Xv5zB5fkJQaAJ
Oz58A7DB9Q0IQVSMmEBcVJ7BIbwRQWEgnkAAkrHB8pGfQIFMiUDcT7rBy7SiQHzf50DgroPB7LOO
QCI4x0A9Zo7B7c+NQEV+s0BP54DBL8/rQGTn874xqJTBrBcNQXUWHL4GvpzB3YwBQUL8aUDFCIPB
dycHQToSgECf2pDBInfeQMV6x0DvC47BIpPdQOfAs0AAjYDBVhm1QKprZkC8SofBzWshQLhbZ0Ap
OZbBciRmQNumN0DVZI7Bkpf0QFb3DkDbGZ7B

> <OMEGA_E>
oF63PWDmuz2APdY+9Pr/PoCDCD/4Jgk/qN0OPzgiGT8=

> <OMEGA_NBR>
     53028

$$$$
50164928
  -OEChem-04172616093D

 52 54  0     1  0  0  0  0  0999 V2000
    7.0035   -0.4859  -22.7139 C   0  0  0  0  0  0  0  0  0  0  0  0
    7.2987   -0.6098  -21.3454 C   0  0  0  0  0  0  0  0  0  0  0  0
    7.7450    4.6048  -20.1270 C   0  0  0  0  0  0  0  0  0  0  0  0
    5.8225    0.1609  -23.1241 C   0  0  0  0  0  0  0  0  0  0  0  0
    8.2283    4.8318  -21.4302 C   0  0  0  0  0  0  0  0  0  0  0  0
    5.2220    0.5517  -20.7935 C   0  0  0  0  0  0  0  0  0  0  0  0
    6.0026    4.3789  -22.3431 C   0  0  0  0  0  0  0  0  0  0  0  0
    6.4109   -0.0970  -20.3803 C   0  0  0  0  0  0  0  0  0  0  0  0
    5.5226    4.1718  -21.0370 C   0  0  0  0  0  0  0  0  0  0  0  0
    6.3884    4.2704  -19.9429 C   0  0  0  0  0  0  0  0  0  0  0  0
    4.9396    0.6935  -22.1651 C   0  0  0  0  0  0  0  0  0  0  0  0
    7.3609    4.7083  -22.5377 C   0  0  0  0  0  0  0  0  0  0  0  0
    4.3140    3.7553  -19.2450 C   0  0  0  0  0  0  0  0  0  0  0  0
    6.8207    1.6165  -17.4820 C   0  0  0  0  0  0  0  0  0  0  0  0
    6.6000    7.0374  -17.4411 C   0  0  0  0  0  0  0  0  0  0  0  0
    4.4361    7.2906  -16.1948 C   0  0  0  0  0  0  0  0  0  0  0  0
    6.6649   -0.4217  -18.9278 C   0  0  0  0  0  0  0  0  0  0  0  0
    6.0532    2.6616  -16.7108 C   0  0  0  0  0  0  0  0  0  0  0  0
    5.3447    5.0136  -16.5378 C   0  0  0  0  0  0  0  0  0  0  0  0
    5.2192    6.4079  -17.1717 C   0  0  0  0  0  0  0  0  0  0  0  0
    6.1308    4.0249  -17.4079 C   0  0  2  0  0  0  0  0  0  0  0  0
    4.2583    3.8634  -20.5546 N   0  0  0  0  0  0  0  0  0  0  0  0
    5.6252    3.9945  -18.8253 N   0  0  0  0  0  0  0  0  0  0  0  0
    3.2236    3.4676  -18.4387 N   0  0  0  0  0  0  0  0  0  0  0  0
    6.0948    0.5872  -18.0465 N   0  0  0  0  0  0  0  0  0  0  0  0
    8.0252    1.7505  -17.6716 O   0  0  0  0  0  0  0  0  0  0  0  0
    3.8078    1.3164  -22.5627 F   0  0  0  0  0  0  0  0  0  0  0  0
    7.9745    4.9518  -24.1523 Cl  0  0  0  0  0  0  0  0  0  0  0  0
    7.6832   -0.8871  -23.4511 H   0  0  0  0  0  0  0  0  0  0  0  0
    8.2090   -1.0999  -21.0331 H   0  0  0  0  0  0  0  0  0  0  0  0
    8.4072    4.6860  -19.2777 H   0  0  0  0  0  0  0  0  0  0  0  0
    5.5932    0.2489  -24.1758 H   0  0  0  0  0  0  0  0  0  0  0  0
    9.2632    5.1006  -21.5826 H   0  0  0  0  0  0  0  0  0  0  0  0
    4.5326    0.9372  -20.0570 H   0  0  0  0  0  0  0  0  0  0  0  0
    5.3376    4.2866  -23.1891 H   0  0  0  0  0  0  0  0  0  0  0  0
    7.1620    6.4033  -18.1425 H   0  0  0  0  0  0  0  0  0  0  0  0
    6.4676    8.0385  -17.8773 H   0  0  0  0  0  0  0  0  0  0  0  0
    7.1559    7.1200  -16.4955 H   0  0  0  0  0  0  0  0  0  0  0  0
    3.4507    6.8410  -16.0028 H   0  0  0  0  0  0  0  0  0  0  0  0
    4.9918    7.3733  -15.2492 H   0  0  0  0  0  0  0  0  0  0  0  0
    4.3035    8.2917  -16.6309 H   0  0  0  0  0  0  0  0  0  0  0  0
    6.2114   -1.3965  -18.6952 H   0  0  0  0  0  0  0  0  0  0  0  0
    7.7505   -0.4723  -18.7577 H   0  0  0  0  0  0  0  0  0  0  0  0
    4.9996    2.3538  -16.6383 H   0  0  0  0  0  0  0  0  0  0  0  0
    6.4800    2.7491  -15.7007 H   0  0  0  0  0  0  0  0  0  0  0  0
    5.8587    5.1138  -15.5704 H   0  0  0  0  0  0  0  0  0  0  0  0
    4.3340    4.6105  -16.3759 H   0  0  0  0  0  0  0  0  0  0  0  0
    4.6648    6.3293  -18.1184 H   0  0  0  0  0  0  0  0  0  0  0  0
    7.1837    4.3430  -17.4205 H   0  0  0  0  0  0  0  0  0  0  0  0
    2.4079    3.3588  -19.0068 H   0  0  0  0  0  0  0  0  0  0  0  0
    3.3952    2.6203  -17.9362 H   0  0  0  0  0  0  0  0  0  0  0  0
    5.1185    0.5311  -17.8376 H   0  0  0  0  0  0  0  0  0  0  0  0
  1  2  2  0  0  0  0
  1  4  1  0  0  0  0
  2  8  1  0  0  0  0
  3  5  2  0  0  0  0
  3 10  1  0  0  0  0
  4 11  2  0  0  0  0
  5 12  1  0  0  0  0
  6  8  2  0  0  0  0
  6 11  1  0  0  0  0
  7  9  1  0  0  0  0
  7 12  2  0  0  0  0
  8 17  1  0  0  0  0
  9 10  2  0  0  0  0
  9 22  1  0  0  0  0
 10 23  1  0  0  0  0
 11 27  1  0  0  0  0
 12 28  1  0  0  0  0
 13 22  2  0  0  0  0
 13 23  1  0  0  0  0
 13 24  1  0  0  0  0
 14 18  1  0  0  0  0
 14 25  1  0  0  0  0
 14 26  2  0  0  0  0
 15 20  1  0  0  0  0
 16 20  1  0  0  0  0
 17 25  1  0  0  0  0
 18 21  1  0  0  0  0
 19 20  1  0  0  0  0
 19 21  1  0  0  0  0
 21 23  1  0  0  0  0
  1 29  1  0  0  0  0
  2 30  1  0  0  0  0
  3 31  1  0  0  0  0
  4 32  1  0  0  0  0
  5 33  1  0  0  0  0
  6 34  1  0  0  0  0
  7 35  1  0  0  0  0
 15 36  1  0  0  0  0
 15 37  1  0  0  0  0
 15 38  1  0  0  0  0
 16 39  1  0  0  0  0
 16 40  1  0  0  0  0
 16 41  1  0  0  0  0
 17 42  1  0  0  0  0
 17 43  1  0  0  0  0
 18 44  1  0  0  0  0
 18 45  1  0  0  0  0
 19 46  1  0  0  0  0
 19 47  1  0  0  0  0
 20 48  1  0  0  0  0
 21 49  1  0  0  0  0
 24 50  1  0  0  0  0
 24 51  1  0  0  0  0
 25 52  1  0  0  0  0
M  END
> <OMEGA_C>
/RzgQMjE+L4EtrXByo7pQMweHL9kw6rBcdf3QCNak0AvBKHBylG6QODOJD4b/rjBQacDQSuemkD0
cKvB2xqnQPo5DT8wWabBIBXAQJkfjEDFvrLBMybNQBCfxr3sCqPBW7mwQDp/hUDgS6jBom3MQEan
iED/ip/BQxGeQJmHMT8pUrHBW4zrQDKqlkBOTbTBogyKQHpXcEDH9ZnBjUPaQKrozj8u24vB/zLT
QA8y4UBTh4vBcPSNQKlM6UACj4HBmEbVQDzk1740bJfBFLTBQNZWKkCir4XBewerQBhvoEBVTYTB
CwSnQJsNzUCOX4nBTy/EQOfLgEBmQ4vBT0SIQJpBd0DCb6TBbAG0QKimf0BPmpbBFFBOQNztXUB+
gpPBhwjDQJRVFj9CX5DBWmcAQTwR4D9cX43BxrJzQNaAqD9RgLTB0C7/QAt1nkDiN8HBstz1QE4W
Y7/jm7vBNVgDQU/JjL/iQ6jBsIMGQZPzlUCuOJrBgvuyQErYfj4DaMHB9DUUQU44o0A3qazBMQuR
QHXtbz/MdKDBlc2qQIYriUBVg7nBVi/lQJnnzEDjI5HBnfbOQH+dAEG4BI/BYP3kQB7X40DR9oPB
IdhcQNPp2kCwBYDBM72fQOnx60CJ/HPBcLaJQOWqBEEsDIXB/MPGQOW/sr/Ej5XBsAP4QNzN8b7B
D5bBFv2fQPakFkAwG4XB/lvPQJPwL0ALNnvBQ3q7QI2ko0B2IHnBe7CKQEGJk0DiAYPBw0WVQD2J
ykCJ8pDBz+DlQAX6ikA0XYvB1xoaQEP3VkDsDZjBckpZQJmyJ0BLfY/Bh8qjQAL5Bz9as47B9CyY
QCCbSD/x3a/BGJWgQBkzGj+E5aTBkOj3QCJplkCrJKLB5Pi1QHZhrj7+h7fBpzADQTGgnkDBlKzB
EAjlQHjG375JQKnBJJC+QBbqj0B1kLPBFGzHQADvEDzCi6HB9kuwQFy0h0CZG6nB+OfMQCZcikCD
kaDBcEjcQIYIjb4sNrTBINXpQD7+mkAiSbXBXsSLQAcCbkDvoprBeCnZQJ7z4z+x8IrBkF2nQPky
50AOH3bBplzvQMbkxEDVrnvBRGfPQO78nL784JXBgsLCQETdPEDCgIXBBmKtQNwCrUBfOIjBsJO+
QGIFvUD//3rBkufFQC51hkD3pozBgH6IQCxKeEAxC6XBds21QDPnf0DXn5fBKqdUQG7jVkAK6ZPB
tsG/QAReQz9g747BWIv/QHJF7D/K9ozBpIj4QPchOr9jjLvBcFL8QKuzo0B/PsLB3Ml1QNSMoT8J
ZrLBTFGJQI3Paj9kBp/BV7YGQXJJmUCVa5vB93ivQEwR8j5t87/BlqMTQcazp0DE8a3BUkMBQbF6
Z78YvabB0KaoQGrGjUBwObrBqqKEQE+M4UDFo3XBHBuyQNWP80DHimbBiLquQGu5/kCwV4HBIPT/
QLalpkANLn/Bzr/2QEFo3EDQH4TBYSD6QKs+0UAJG2zBD8++QBL1nr850ZPB3gDyQESl3L5UmpTB
ouOgQL7ILEAaM4TBHy7SQNnXSUBchXvBea6LQHTIo0AZKIfBeICvQAdDx0AWD47Bm0K3QHSCpUBN
bG7By+LnQKxvj0AAIo3B7zEfQBZgT0AdNZjByv1iQFrkH0B0O5DBsMKgQKhmQj9/8ozB/FrdQF48
pr4dTbTBxvzlQDjq7L4FT6nBfsz3QMOLlkAgJaLBAPy2QNQUjj4UtrfBoxkDQYXankC1lazBwIih
QPbOFj9tHqXBfmC+QDUPkEArjbPBbkHIQACdK7uHq6HBtCuwQNrQh0DGF6nBXNHMQNxuikDNj6DB
2zSZQI8iPj8fH7DB4J/pQFwwm0BKSLXB4K+LQLg0bkApnprBsC3ZQItg4z/F84rBsu+nQJYW50AX
BXbB6LDvQJpDxED8lHvBqODPQJJOnb7H9pXBfKTCQJhwPEDdhYXBlJGtQGPprEBxMIjB1tm+QCXA
vECo63rBxOrFQN5LhkDmpYzBJGCIQAyjeEADBaXBQsG1QKLif0DonZfBA3pUQMA4V0BJ45PBnuO/
QH+bQz8FFI/BPqr/QKxt6z/72YzBv7toQKDuqD/8aLPBwg38QM/wo0BTPsLBZy/0QNBULr+8ILrB
Wb4BQWk0bL9ct6bBoKwGQQlmmUCbbZvBtmOwQOrmwz6TJsDBoIgTQZsGqEBd9K3BR1GKQPRybD8g
Tp/BTnCoQGXojUCsNLrBXSqFQCaw4UDZjXXBmr6yQGFU80CvbWbByHyvQBOY/kBKSIHBIwgAQdjn
pUAlGH/BxUT3QMnB20CAEITBlob6QBd+0EAb/mvBzFe/QLojn79F5ZPB0nPyQH012r5ZnZTBBsCg
QK5MLEB7RITBJubRQHFOSUCzg3vBpNSLQOPQo0CDIIfBicmvQHg1x0A2A47Bd1i3QANDpUBeXG7B
oO7nQLokj0C4IY3BM/UeQCPxT0DwLZjB3KliQFEhIEANOZDBub+gQOTuQz96PI3BglqBQBkqkz62
BK/BXomMQACAfzaBVaTBui/4QLQSokAMTqDBz5WhQCEtDD+DorbBPkUEQbC4qUCDo6rBxjHYQAi0
fT4p3qjBn8HGQOMwjUD4jLLBYQ24QHq5Bb2ZQqHBmoi2QEu/hUDKNKjBWvfOQCs7kEBrMJ/BrwHN
QEJwBz+PjbPBxNvvQMVan0Dhv7PBJ76PQE1faEABKJrBJsPWQDtU5j9QVIzBRY/MQBb07UDBMonB
wgaAQP5170ADy4LBkUrEQCTJt7511JXBQD3GQIALPEC+KYXBcGalQF8sqEC/koTB50ihQFXt1UA2
W4nB9OXDQG34iUC48IrBnACQQO4ZaUCJr6TBQEa2QJJMhUDebZbBpNpcQLFbSUA+7JPBb4K6QNOt
Qz/zso7BgKb6QACC7T/FTJDBFf7rQPG7Rj+A2brBISkCQYP9qEDPhcDB2TRAQCHfnT5RXrHB+axn
QGf9R77+fp7ByoAFQaHJqUDTUZnBTQaZQNfRQj9c1L7B3v4TQWuHt0BPmKvB+Wz5QBOjfD6/fqbB
8+2zQHgUhUCvgbnBp0/kQHnf20Cp3I3Bt23IQC/3BkGAuozB0rbXQF8n8UDm44DB62dCQGd33kA1
44LB+T+LQO2o8kBE+3TBve13QPa3B0E9VIbB00qyQPZQn7/OL5PBHczmQHdVEr+HeJXBrfOlQOQ0
K0BAXILBV9LbQPQ3QkApgnzB5qGxQKAGq0CAtHjBs2KFQNWNmUA8a4TBOBiWQGpi00DvrJHB2hXk
QEo0mEDWxorBtvQtQBz0M0DiqZjBWC1yQNNuGUDjVo/B4YudQAfuST+RTYvBT/KQQNPnnr8eXazB
NrWfQMHDnL9DtKHBrbz3QPcOnUAUHqDBAS+sQKNbVL+Vu7TBpS4EQUpCp0B/SarB/dbkQEbhvb49
yKfBaCHDQHzClkAEfbLBUt3JQJcZTb+fZp/BWbGyQJamjEDfTqjBkbXMQMzqj0CROJ/BLhzWQKfK
yL4ocLLBTRruQMcspEB0dbPB2saKQLksc0C+lZrBYjrXQGBBzD/if43B7aLWQNva4kCbzIbBQTqL
QG/k6kAEyX/BIwTaQLsGTL9B+JPBmPO+QPFfKECCtYbBoiKnQL3NoEBc44PBPaioQPeV0ECEV4fB
DczBQCNjgkDHK4vBvIiKQEqEfUC1CKXBnlSzQMkfhECrppbBasVPQDeJV0CtpZTBTM3GQHR/mz6S
3o3BFjz5QPod8T8w2pHBH03wQBaCETvQdbrBLHUBQdLrsECrBsDBvY5hQA/uyL9FHq7BTciKQDSW
xL9OS5vB9dwFQVBIn0BfF5nBdvGgQCJPWb/K5rzBip4UQWZzsUDyEavBOmgCQeQSy7x5BqbB1wuv
QBhGlED5fbnBY7LrQJo30EBvF4zBXWTWQHA/AkGBY4nBaIHiQDDZ4EBBD33B3ABVQHIC3kAPQYDB
JS2XQJTg6EDOQm/BGhCLQCNDBkFHfYLBqpnRQKVG4L9ZJZDBZAL9QJGQLb8qAZTBiwudQPCkFUBr
YobBknDMQGPsJ0BtKX3BLZKzQIhhnkAWW3fB65aFQPYolkCFDYTB1dWcQPRC00CLmo/BJHHjQMed
jEAOyIrBZCkeQO0GTUAZh5nBxNNeQGVIIUD115DByCqsQJde5j0gtYnBxfDYQBI+W8BvLpvBBbja
QArXB8CaYZ/BjSD4QAPykkAWPaDB1g/PQFKDaMBnSZDBLK8EQanZlUBWnKrB3g3IQCfenr92v43B
RkDDQGrOhEBNQrLBha/RQMVHg78Kv5jB5SmyQBYygkBl36fB1VbMQOt3iUC3/J7BKBHHQCI3IsC4
ionBr/DuQDLvjkDgm7PBFJWJQE7LcUCuqZnBP87ZQFrU6D/YpI3Bz+nSQB9U40BVKorB8LeKQGb9
60DAkoHBjjzSQPg0sz5mqp3BM8XCQCiMLkCz4oXBWSuoQDmDokCA0IPB+uilQH6Nz0BY2IjBUZTC
QEMwhEDXxYrB3mqJQFCOcED/LqTBg6KyQJPng0D6IpbBvk5NQH4UXUC6UpPBZ9vBQFx2pz/8D5bB
k2gAQcsX2T9qO43BHee9QIahLcB4Gn7BzzgCQSTkkkDFcMDBwCnfQCG2iMDXUKDBlf/iQNOn+7//
rKfBBhwGQbfrl0DTUZnBR6PNQBlilMBAH43BS2kVQfRenUDIsKvBv3TBQK5ny75NnYjB4yKvQCo7
fkClI7nB6mLmQF3MzkBIZo/B0gvQQEWsAUFEwI3BcVriQBrv5UCzSILBU2pVQIfS3UB6poDBUxma
QEOa7kCWXnPBtMqHQNoBBkHdJoXBb0LzQM0dHj9R1Z/BBRm+QGFqtj4G4qTBlr6hQMsgGEDtsYTB
YZrTQL9QL0CqUHzBeA+3QJHZpEBouXfBU4uHQMKylUC/AYPBvpaWQKhEzUBFv5DBj8LjQDPwj0Co
0IrBRrobQFxjTUB1/JfBrjhcQPB/K0DXno7BRaajQEGBzz8K55bBG4x6QMpN77/98qHBAFudQNCz
bL+oN6TBOhf3QJfQkkCfv6DB9M5+QCatKMBUeZjBe7kDQSh6l0A+LqvBLBbCQCaDxL/ZoJPBhm3A
QO4EiUBCnrLBLhjAQDLMRr8OH53B4EKwQHCahEC9LqjBUEzLQJKeiUD5Wp/BWqqhQLhNHcBdQpHB
OCTsQECXkkBDGrTB5MWIQH1xcUDT6pnBMJLbQJT+3D+zOY3B1vzWQO974ECqEYrBMhyPQGbB60AF
j4HBTEzdQHLLxj6PP57BPoPAQFv6KEBGR4bBajepQKYLoUBsGITBwCapQMOQzkDG7IjBMljCQA6y
gUAYHYvBorqHQGDtdECka6TBzi6yQPx/gkD9cpbBRRxMQOaJW0DdkpPBYCjKQKqyqj8b45bBFfcA
QRbmzT+QcYvBpBWjQF6DScCz9YfB8EYAQccTmECaA8HB8QZGQG2XAMAvdKfBiWObQH1Jor7aV6vB
VO4FQfA+lkCI5ZnBCnNNQOoJV8AqvpbBeXIUQR/LnkBXXKzBCZfcQBHus79TLo7BGJKrQJcehUAj
cLnBkrzpQPWGy0DHXI/BipvVQDxtAEFego3BTETmQEbY4UAIJoLBUepcQEsG30DlvIDB52ieQOcc
7UAESHPBJcCNQI0PBkFYAIXBhC7+QFWjBz4Q3pvBP13dQC2DRj8zfKbBVjqfQOgYEkBIJYbBx0XN
QJr6KUDiJ3zBp/y3QEkvokC0OXjBFP6HQNLElUDlYoPBofaZQKmRzUAU3JDBtwPkQJr1i0A5J4vB
CoUZQKorT0AqOZjBrHJaQCyPJ0CkQ4/BUAyuQKYE3j+m95jB/CDHQKIEUcAg04LBpaa8QPQGC8Ae
c4nB4xn3QA/BmEDs6aDBEmjxQNl7cMAfloLB4lgDQZeSn0C1XKvBs20DQTWiA8AFjY/BkKHAQAiz
jEBgwrLB/IfcQNgEyL+y1I/BIzixQLD/hUBlTajBpyvMQHgQjECxeZ/B3qEIQaLSScC+9IjB0YTr
QAmTmUAsRrTBLK+KQG01b0AT/JnB2mLYQDIv2T+WBYzBmBrYQFhE50DIE4nBbFiNQJG08UCZ8IHB
iD7RQFYWzr5AJZfBEFjBQD1RMkC5joXBzBupQPB0pkDbZ4TBPiWqQKvR1EAs74jBkyfDQAmFhUDW
IIvBgmCJQPTGckBXgKTBQ6SzQIEyg0CTh5bBdttQQPXDV0CIjpPBQZq/QBBHOT+pBZHBNEb/QFCJ
4D9AU43B2eccQRA2aMBXxojBoxv/QMT9oUDpMMHBBMOuQGWGbsBS3XvBKzmcQC9b5r+ZponBiOcF
QXkznUAdFprBOGb5QMQXk8DoDXvBkb0TQcpmqUB4jqzBMKgPQZHzy7+cZpTBcNOrQKcHiEANj7nB
0LrsQJrP0kAGDI7BwoHXQBHqA0GoaozBYL7kQO9I6EA+3oDBt0NZQCy45EAw0IHBLROaQPC18kCB
enPBj9aMQJEgCUGrSYXBKkjuQM6tj71oWZvBQle5QLvnPL+PBZ3BZKCfQMq7H0ARkITBOpzQQL5+
N0AxT3vBsla2QNYHp0AdgXjBl5aHQJjFm0AMIITB64udQIh61ECdJpHBwbzkQFMQkEDFMIvBoDMe
QJVOSkDMJZjBqaVgQB4aJEBtRI/B1MefQCO8Sz9kaJDBCMYIQYCHScAe5IjBSJEDQVp/A8D+gY/B
ghj3QGXAmEC66KDB+7DxQIpfcMD2jILBKVkDQQGRn0BnW6vBK9u8QFhDC8BKdonB8qLAQOiyjEC+
wbLBwsHcQPY1yL/z0o/BrzexQAMAhkDqTKjB3inMQG4QjEDveJ/BHVnHQDwyUcDt0YLBi4brQI+S
mUAVRbTBsquKQFY5b0D8+5nB42nYQAYc2T9oBYzB0xnYQLI/50D8EonBJVmNQEiy8UDs7oHBBG/R
QDYBz74KJJfBl0/BQNM/MkC+j4XBdxipQPNwpkD5ZoTBSCOqQLvO1ED97YjBMSPDQH+AhUBMIIvB
Bl+JQOjJckBIgKTBEKGzQBgyg0AZh5bBgM9QQNrOV0DNjpPBy7K/QA+pOD+KBZHBM03/QBis4D+u
UY3BfceoQF+IdsDMdXnBwx//QHv+oUCHL8HB+foYQdNyYcDSrYjBA84PQTGNy7+aWJTBQ+YFQQoz
nUC1FJrBk7b5QMACk8CD+HrBKr4TQadjqUDejKzBYmacQFor579UsInB+9WrQHUHiECjjrnBVrjs
QJXK0kCTC47Bw4HXQOvnA0GoaYzBEr/kQPZC6ECT3YDBAURZQGW35EA1zoHBeRWaQE+y8kBwd3PB
KtiMQJcfCUHNR4XBkXjuQBgUkL0oVpvB/JK5QAKvPb8IBp3BTJefQOKhH0DolITBNIbQQPFoN0Dg
TXvBoVO2QHYCp0Bkf3jB6JKHQLPCm0AtH4TBjoidQBV51EBMJZHBPLnkQBUJkEC6L4vBNigeQMVd
SkBcJpjBKZNgQPYjJECFRI/B3t6fQBSbSj9UaZDBGqbVQOsLH8C6lIjB84fjQGKut790LI/BtBD4
QDeakkBWMKDBGGevQDWOSsBWBIvBr5cEQQgglkDIkKrBVT2kQOoT279ddZrBzfvCQFKMhUB0ObLB
FL3KQNZvhb9vFJjBygSyQJxfgkAH16fBQVHMQAPqiEDh8J7Byu2WQMlZMsCTApTBKq/uQNeRj0Dc
kbPBbH6JQOrHcEAuqZnB/SPZQNli4D9xW43B0BXUQDBQ4kBYPIrBKKaLQPQr7EDf44HBp3HUQAjm
gj6Fcp3BFdPAQLdiK0BD5YXB1FCoQBoWokDI4YPB7NOmQEwUz0BBA4nBhTnCQGzOgkAyvorBlz2J
QDEJcUBnLaTBp6ayQByzgkBAHJbBssFMQOjkXEC2WJPBDvnCQOCpnj8nF5bBLiwAQQUh3T84/ozB
u3dkQDs4XMDqVZbBKxACQW6bk0AEaMDBbDvoQHNUMcADqoHBjJsAQa0zbb+cbo3BvBsGQcpEl0Bn
RJnBwMWkQOCWfsAk/YXBNUwVQdjXnUCdpKvBcgmRQCNMs7+wMqHBesKuQItdgEAaHLnBh5nnQLZf
zUCXW4/B9b7RQPMbAUEl6I3BsSbjQF8P5UDtT4LB5NdWQM1x3kAqBoHBYbKaQMnr7kDT7XPBpUqJ
QCgKBkEij4XBUyX3QERhyD47cp7BC67EQBNQoj7aTKXBOnCfQJbjFUCPJoXBMP7PQCWeK0C+6HvB
YDa3QKJ7pEDf3HfBjXSHQLzplUAfDYPB1dyXQJm0zECm9JDB5r7jQBOMjUACtorBL7saQDsTT0Ab
B5jBvodaQMdPKkD2wY7B0DClQKCnyD+TYpfB

> <OMEGA_E>
sDPQPZjeoj4IyqQ++EjqPgDs+T6kGSg/0AcoPwLrJz9Y3yc/nrEnPw==

> <OMEGA_NBR>
     62058

$$$$
50164882
  -OEChem-04172616093D

 54 55  0     1  0  0  0  0  0999 V2000
    7.7489    4.7186  -20.0607 C   0  0  0  0  0  0  0  0  0  0  0  0
    8.2504    4.9242  -21.3608 C   0  0  0  0  0  0  0  0  0  0  0  0
    6.0380    4.4549  -22.2982 C   0  0  0  0  0  0  0  0  0  0  0  0
    5.5489    4.2305  -20.9982 C   0  0  0  0  0  0  0  0  0  0  0  0
    6.3927    4.3766  -19.8926 C   0  0  0  0  0  0  0  0  0  0  0  0
    7.3941    4.8021  -22.4774 C   0  0  0  0  0  0  0  0  0  0  0  0
    4.3362    3.7665  -19.2209 C   0  0  0  0  0  0  0  0  0  0  0  0
    6.7320    1.7749  -17.4879 C   0  0  0  0  0  0  0  0  0  0  0  0
    7.6021   -1.0782  -17.9336 C   0  0  0  0  0  0  0  0  0  0  0  0
    5.4928    6.6538  -17.0701 C   0  0  0  0  0  0  0  0  0  0  0  0
    5.9708   -1.2401  -22.8093 C   0  0  0  0  0  0  0  0  0  0  0  0
    7.1870    0.9800  -22.8052 C   0  0  0  0  0  0  0  0  0  0  0  0
    4.6678    0.9003  -22.9157 C   0  0  0  0  0  0  0  0  0  0  0  0
    6.0359    2.8436  -16.6621 C   0  0  0  0  0  0  0  0  0  0  0  0
    5.2915    5.2328  -16.5326 C   0  0  0  0  0  0  0  0  0  0  0  0
    6.9177   -0.0548  -20.1360 C   0  0  0  0  0  0  0  0  0  0  0  0
    6.4681   -0.4195  -18.7293 C   0  0  2  0  0  0  0  0  0  0  0  0
    6.0947    4.2096  -17.3618 C   0  0  2  0  0  0  0  0  0  0  0  0
    5.9179    0.2304  -22.3259 C   0  0  0  0  0  0  0  0  0  0  0  0
    4.2989    3.8448  -20.5330 N   0  0  0  0  0  0  0  0  0  0  0  0
    5.6135    4.1259  -18.7827 N   0  0  0  0  0  0  0  0  0  0  0  0
    3.2636    3.3807  -18.4312 N   0  0  0  0  0  0  0  0  0  0  0  0
    5.9468    0.7593  -18.0247 N   0  0  0  0  0  0  0  0  0  0  0  0
    7.3253   -1.5759  -16.8118 O   0  5  0  0  0  0  0  0  0  0  0  0
    7.9296    1.8822  -17.7346 O   0  0  0  0  0  0  0  0  0  0  0  0
    8.7747   -1.1069  -18.3994 O   0  0  0  0  0  0  0  0  0  0  0  0
    5.7594    0.3048  -20.8940 O   0  0  0  0  0  0  0  0  0  0  0  0
    8.0197    5.0635  -24.0842 Cl  0  0  0  0  0  0  0  0  0  0  0  0
    8.3965    4.8221  -19.2027 H   0  0  0  0  0  0  0  0  0  0  0  0
    9.2909    5.1754  -21.5040 H   0  0  0  0  0  0  0  0  0  0  0  0
    5.3818    4.3623  -23.1509 H   0  0  0  0  0  0  0  0  0  0  0  0
    4.9106    7.3621  -16.4624 H   0  0  0  0  0  0  0  0  0  0  0  0
    6.5595    6.9174  -17.0188 H   0  0  0  0  0  0  0  0  0  0  0  0
    5.1530    6.7019  -18.1152 H   0  0  0  0  0  0  0  0  0  0  0  0
    5.0697   -1.7713  -22.4687 H   0  0  0  0  0  0  0  0  0  0  0  0
    6.0166   -1.2633  -23.9081 H   0  0  0  0  0  0  0  0  0  0  0  0
    6.8640   -1.7304  -22.3947 H   0  0  0  0  0  0  0  0  0  0  0  0
    7.1485    2.0242  -22.4614 H   0  0  0  0  0  0  0  0  0  0  0  0
    8.0805    0.4903  -22.3905 H   0  0  0  0  0  0  0  0  0  0  0  0
    7.2331    0.9573  -23.9040 H   0  0  0  0  0  0  0  0  0  0  0  0
    4.6186    1.9465  -22.5794 H   0  0  0  0  0  0  0  0  0  0  0  0
    4.7196    0.8704  -24.0140 H   0  0  0  0  0  0  0  0  0  0  0  0
    3.7696    0.3636  -22.5762 H   0  0  0  0  0  0  0  0  0  0  0  0
    4.9832    2.5583  -16.5193 H   0  0  0  0  0  0  0  0  0  0  0  0
    6.5311    2.9201  -15.6828 H   0  0  0  0  0  0  0  0  0  0  0  0
    5.6293    5.1927  -15.4865 H   0  0  0  0  0  0  0  0  0  0  0  0
    4.2228    4.9771  -16.5829 H   0  0  0  0  0  0  0  0  0  0  0  0
    7.6154    0.7947  -20.0959 H   0  0  0  0  0  0  0  0  0  0  0  0
    7.4161   -0.9169  -20.6033 H   0  0  0  0  0  0  0  0  0  0  0  0
    5.6558   -1.1557  -18.8189 H   0  0  0  0  0  0  0  0  0  0  0  0
    7.1447    4.5374  -17.3728 H   0  0  0  0  0  0  0  0  0  0  0  0
    2.4766    3.1772  -19.0135 H   0  0  0  0  0  0  0  0  0  0  0  0
    3.5111    2.5650  -17.9084 H   0  0  0  0  0  0  0  0  0  0  0  0
    4.9551    0.8376  -17.9233 H   0  0  0  0  0  0  0  0  0  0  0  0
  1  2  2  0  0  0  0
  1  5  1  0  0  0  0
  2  6  1  0  0  0  0
  3  4  1  0  0  0  0
  3  6  2  0  0  0  0
  4  5  2  0  0  0  0
  4 20  1  0  0  0  0
  5 21  1  0  0  0  0
  6 28  1  0  0  0  0
  7 20  2  0  0  0  0
  7 21  1  0  0  0  0
  7 22  1  0  0  0  0
  8 14  1  0  0  0  0
  8 23  1  0  0  0  0
  8 25  2  0  0  0  0
  9 17  1  0  0  0  0
  9 24  1  0  0  0  0
  9 26  2  0  0  0  0
 10 15  1  0  0  0  0
 11 19  1  0  0  0  0
 12 19  1  0  0  0  0
 13 19  1  0  0  0  0
 14 18  1  0  0  0  0
 15 18  1  0  0  0  0
 16 17  1  0  0  0  0
 16 27  1  0  0  0  0
 17 23  1  0  0  0  0
 18 21  1  0  0  0  0
 19 27  1  0  0  0  0
  1 29  1  0  0  0  0
  2 30  1  0  0  0  0
  3 31  1  0  0  0  0
 10 32  1  0  0  0  0
 10 33  1  0  0  0  0
 10 34  1  0  0  0  0
 11 35  1  0  0  0  0
 11 36  1  0  0  0  0
 11 37  1  0  0  0  0
 12 38  1  0  0  0  0
 12 39  1  0  0  0  0
 12 40  1  0  0  0  0
 13 41  1  0  0  0  0
 13 42  1  0  0  0  0
 13 43  1  0  0  0  0
 14 44  1  0  0  0  0
 14 45  1  0  0  0  0
 15 46  1  0  0  0  0
 15 47  1  0  0  0  0
 16 48  1  0  0  0  0
 16 49  1  0  0  0  0
 17 50  1  0  0  0  0
 18 51  1  0  0  0  0
 22 52  1  0  0  0  0
 22 53  1  0  0  0  0
 23 54  1  0  0  0  0
M  CHG  1  24  -1
M  END
> <OMEGA_C>
ofb3QAP/lkBYfKDBhAEEQaaSnUDZ4qrBijfBQGCOjkCgYrLBZpCxQDFgh0BD/KfB+ZDMQNcMjEAg
JJ/BjpzsQJWqmUCt0bPBGsKKQKoNcUBPxJnBYWzXQAcx4z9R54vBhkTzQAEBir/0d4/B7sSvQNXr
1ECNj4jBzRC/QFa8nr94ebbBAfzlQOrgej/7cLbBjl6VQOZ5Zj9IU7fB3yXBQNj9NUD0S4XBHVSp
QF1zp0C9QoTB4V3dQAiAYL2RFqHBvPrOQHLD1r6W1ZXB7wfDQFe1hkAF5YrBY1+9QMrpaz52m7LB
2JCJQPoQdkCtQ6TBv6GzQCoHhEABQ5bBZt9QQIJdWEAWc5PBX0y+QIpiQj+CMpDB2GjqQAS2yb+V
fobBXr/9QDnt8D9p4I3BQGUMQcOvjb/hMZPBEU24QCcJnD7gJqfBolAAQWIIokCArMDBKVgGQY5O
mkAXn5nBqacUQdecpUAeCKzB+DesQNKXi0AdNbnBSCOdQJOW60AOs4PBdefRQFNb3UCJJojBqOWk
QNp11kDv65DBYjuiQFy44r/sv7PB8IfAQI60ob/QQ7/BoqXbQCl83b9JKLPBmcDkQDyMAUDrsLPB
nEkBQVAI+z7LH7PBiHXnQF8TdT9TO7/BpsuTQCwm+T+RorTBzAaXQMLSXj/AHMDB0kFxQKIkuj4M
nLTBGXafQG+6I0CdJ4TBiv7QQHXiOkDl7HrBPCO0QDMqpkC5yHfBbyGHQLpEn0DDqYTBi7HzQHJu
Sz9vxKDB0lDtQNS7ar+K06TBBPy0QDPuk780jZbBdaHkQAEykUB/+4rB738eQPZWS0CqG5jBdbZg
QIgoJEBjRI/B2I+eQN1sVj/lYo/BIjH3QHOilUAojKDBdecDQT6YmEB7/qrB653BQLcxhkCxYbLB
7jSxQGhjg0D/7qfB86nLQJFdi0AxIp/B4f/sQOUfkUA15rPBymyJQLz2c0DTmpnBKMLZQJDI6j8B
BY3BvrHEQMhQFr7oPKbBipStQFfb1EAAQojBMIKwQNiKb8BqVIrBy/P1QOCENsA8Y4LBE5f3QPXb
ksBD6ZDBs9rAQKbwM0Dg+4XBJEipQBMQp0Dr54PBocjHQKdjlL9Zk5PBVdrVQADsCjy/sZrBKGvC
QCUbh0AI6YrBtJHfQBLIVcCczIzBJNyIQIivcUDtHaTBRFmyQI7shUDKNJbB95BNQDzvXkB/L5PB
SbbEQLcqmj9Vc5XBuP+jQGg//T4JNKnBuEIAQcRi3D8x0IvBknDYQB7LZ79XmazBdv7hQJwAFcD1
PpXBMccAQWKUlUCK0sDBHcgFQecqm0DetJnB5YoUQcWVoEC+MqzBMzWtQHYKgECuLrnBeGmbQHD4
6kB8IoPBw4PPQJE13kDaS4jB7uWgQOor1kDSdZDBVuOgQBXIgsBGuJHB5DGwQJq1kcCaYYTBBimf
QO/bN8CEI4fBAJkLQTVrJMDrMITBq7jkQJp6/b/OXX7BicH1QJJMasD62XjBw34MQQ9fisAztJLB
O+f2QBnxq8BQvYrBjfjnQOe6nsC7N5jBcFufQMLVHkAMZIXBvDbPQPR/NUBP53vB3OW1QNL9pUDP
Y3fBB0iHQCr0nUDg24PBNEbKQD9wWr9bJYvBF1WmQEmNtL+xb5XBNgT5QDxuTj2f6ZrBnQ/kQMZy
kUD+CYvB8vgbQHI0TkAcypfB/VNdQHv3LUAXbY7BzOmoQH97yj8pBJjBHnf3QHH2lEDIX6DB/CAE
QZgtmEBXzarBGR3CQBtBhkAnSrLBhIixQN4xg0AO3KfBS+nLQC2pikCFA5/BipXtQCP7kEBgv7PB
YnCJQN5Rc0CslpnBmQ3ZQLQy5z8Gl4zB1NfCQEREAr5Q0KXBOUmuQNY81EAYPojBIxS+QO69TsBt
VoTBbPPaQP4Iyr87Bm7Btg0HQcAEP8BPx4HB2+K/QIeMMkBIuoXB0jCpQGmYpkDR3IPBEF7UQPBx
qL+KbJTBxuTXQADLwDthrprBlyHCQKoyhkAGxorBVAHjQDhoDsBgFoLBqAWJQDXhcUCbGqTBknCy
QADwhEDdHZbBKvlMQI4qX0CZO5PBjGDDQA6ciD9tUpTBOJieQMLawz7jmafBJSAAQRwX5z/TG4zB
uDbXQCG0Ob97FK3BrhDmQOToj7/OwInBEjQBQRWTlUD7pMDBw90FQVdUmkBvgZnBPsgUQbsnoECS
9avB1cOtQK5ygEDmHrnBqzucQBit6kDBLoPBzljQQHYe3UBnNYjBRe+hQEab1UDVeZDBNRbDQGkP
bcAxLozBqLK9QEEZgMCfJnzB+lWfQCx0LMBwWITB1bH0QEalXL+3d2rBJAi8QP/Ahr8fNG7B0mTa
QNQeF8DfqWHBch0UQY+UEcAmMIDBaZYGQQaBb8AWznbB3MgJQbeRXsCihonB4EqeQKndHUCPQYXB
AbLNQIKDNEAQRnvBiHq1QBN5pUDtPXfB/xCHQOP1nUBl44PBCY6yQAFNzr9qzZPBGWXmQC6PBsCe
nJjBafn5QLS+eT5RyZvBp+XjQG4jkECM2YrBuTgbQJvIT0Ah4pfBrJhbQHKGLUCgho7B8nKkQKMZ
oj//nZXBix/4QJqKl0CXmqDB+x8EQdY6m0BWF6vBoPnBQIV2iEBRV7LBUxOyQAjVhEDu2KfBSM7M
QAugjEC5FZ/BvSbtQInvk0Ap87PB0jeLQCa1ckCEcZnBEHXWQEfg7z+4jIzBerKnQCSI/T4vLabB
GAusQFxO1kCumYjBWKASQTjUlb9pkp3B6LT9QGnue78ofq/Bb6QGQWy9TcAsVqfBQVnEQJzpOkAu
E4XB/mupQG7zqEBC+4PBCiXMQEtiaL8ltJfB747HQPLK9j5Xp5zBPAfEQABviUBgt4rBcIQAQc6R
4b/zwKTBpjmKQHOocUBN9aPBi9uzQDithkDVFZbB+l5TQFoHWECY+pLB2yK6QKcwqT+R6JPBd0yI
QPbxlr70P6bB6Vz9QPDR3T+ET43BB8qwQEoblT9WaK7B4W3XQNCQ8b8Hjp/BiIwAQXIzmUCe68DB
yl4GQZQFnUBxzpnBJbEUQdGlo0CRW6zB00ytQHGEgkBhGrnBuM+YQDUt7EBmqIPBmZPNQE8C4UBG
oIjBjaGfQPtJ1kDG1ZDBgoATQYQt3r8FCZbBMgYiQXsvn784y6HBAR4PQf1b672705vBgAfkQIGA
tb8YabTBKHf2QOqjlD1j2a3BxSMOQXwvh7/h0LPBmmv0QBqwasAkaKzBWgoWQWi+TsDEmKvBWREI
QUJbcsC+2p/BJnajQBhEKUAV2ILBUkXYQFeZPkBTq3vBhsK1QC40qUDienfBetCHQNp7nkDx8oPB
Bj3lQONQYL+giZHB5IetQNW/mL+KApTBFQ/nQF35Tj8alp/BWCjlQHRMlUA77YrBrakiQG9tRECu
jZfB/vdmQOqyJ0CBV47BkOyaQG0ywj8CF5PBR7b4QGL8mECybaDBvkwEQULMn0Cd0qrBvuHBQCLr
j0B7SbLBmYKyQB4biEDu46fBS3/NQDxojUDcEZ/BYiftQIS4m0DMu7PBQa+MQDhubkDoo5nBe8bU
QCSe6z+y+4vBtufmQHi6d78WAJTBQLSuQDoY10DCmIjBtVeqQLOy+T5EFbjBLjHnQA7Zjb/CibPB
CXH2QHEvoz9GbrfB18TFQHPdPUAmzITBtR+pQEaGqUD/U4TBIravQKRHlz1DMqHB/ia7QC5viL74
kZXBH27EQBqxiUD/z4rBG9PVQLUoqz7RLbLBmiaLQADEc0CzJKTBoNy0QAIphUBmKpbBrBZXQMxk
UEDGSZPBqNm1QBLgaD9gw47BK1H1QJdJjL+PpYrBxZT4QFy27z8WBJDByLr6QPPeur9R0pvBRVzS
QOhpNj8N8abB+aYAQSqxo0CImMDB47UGQWqYnEAPkpnB7ucUQY8mqEDK+6vB49GsQAztjECgGLnB
5/aaQJE97UA43IPBd4nQQOd84EAg+ofBIKGkQJBO2EDrBZHBtWKeQL7UwT+iDrfB/squQEYJjz7i
psDBxg+TQKqrY762uLTBTfkCQe4Emr9yU6/BHBvQQM5i6b98KbDBVNbrQAcrqb+oF7zBO7wKQcD4
lj+rWLPB0Sj6QJjegD8l6r/B3RLrQD0HFECCzLbBAXqlQKrhLkCR1oHBTuDbQDafQ0CR+XvBnCOz
QMSFqECFynfBRTuHQG1XoEAO8YTBKDynQEV2W7/1X6XBMf+TQKOEQD80LaHBggKjQNkuf7/F8pLB
dETlQARUlkBwEovB75klQB/OP0D/6pfBAgVrQKlbHUBMJ4/BN5KYQAuzhz+VxIvBC9X3QPYymkCn
t6DBXIgDQZODoUANKqvBd1TAQCKQkEC2b7LB2HKxQNzZiECq+6fBXuLMQPfijUCqOZ/B4lPrQPrl
nEB3ArTBRGSMQKBUbkACqpnBN4PVQInV5T/1covB5cjdQIWYmL+9x5TBijSwQCmC1kD0/IjBaf8A
QVE1hD80prTBgwu0QESDKD8877nBXJLpQJYTnL/75LrB8xjEQKJqO0ANtYTBJmCqQFVUqUD9eITB
rhfLQArGGT9yM6LBPfG9QGiFsb2o4ZfBh6vEQN5eiEDI4orBxRHcQICnBz3jn7TBYTKKQD6XdUAK
JKTBo+q0QDFYhEDaQZbBuuFWQN7+T0C/RpPB2my3QNInZj/kbI/BSoACQZ0lbr/9sJPBaO76QDXj
6T9Fao7BnzrQQP4YGMAvepTBRvDRQEqF2b6+B6rBxIn+QDvfpUDy68DBRm0GQV39nUDg7JnB5AEU
QRyrqkCOaazBSQ2rQEMTjUBGMLnBQR+dQJpE7UDrQ4TBajLSQKqA30CYk4jBE36lQPw110BrXpHB
7/8OQYn+ED9x17DBmPYEQVL0pj+A8bzBLPf4QPMC+D9/LrDBA6KZQNTQjL3S0bnBSIyqQPzFxz+l
f7XBTIK7QLdubT+mQsLB5w7PQF2u+L8J+brBMKnxQJEEcL8uKMPBa9YCQQNR1r80C7fBpPOiQCJ8
LEAtaILBy9vXQBrxQUD38HrBkwO1QFnoqEBqK3jBPE+IQKydoECI4ITBPZWxQLLqoz+E4aTBTsPo
QDD1lT9486DBHQ+fQD88FL8QZ5nBnPrlQFW2k0BJIIvBOKIkQKjpQEC625fBZp5qQCD0G0DJU4/B
dUKaQMj4bj8qJYzBvoX3QAi5mUAExqDB8GkDQXbhoUB+MKvBYNW/QBOakkAFjLLBvuywQFjAiUAq
JajB/XDMQLeJjUA3Wp/Bdg/rQJNDnkAvEbTB6PGKQDL+cUDx5ZnBh6PXQKMv2D/QwYvBkDzvQObA
tL9GWYzBGw+vQH501EDqBYnB5Gb+QDuks74pCrTBvvHCQJ1Yoz+RFrfBHBeyQItil7+cE7bB4vHA
QBLSMkB0cYXBQbqqQHAVp0DSWITBll/jQA8z6b5UwZ7B6XLPQNsNKr9XrpPBV8PDQDmHhUCpCovB
FWrOQMRRSL3khrHBhiuJQLNqeUAzYaTBlSO0QPupg0BbcJbB96ZRQBZVWUAAf5PBPmm/QPx7FD/H
w47Bu5sJQUIpaL8gNIrBV4z9QA4x6D/8G47B9TjlQDDtI8AbEonBztjEQPh+9z21JKbBwGf+QF62
p0C39cDBgEcGQcDFnEAB9pnB2usTQYvpqkBXYqzBzWKqQGF8kEAcTbnBleecQKEj60AfDoTBs//Q
QLTH3UB0IInBOWCiQMnd1EA7O5HBGOUDQei8pb/hLbDB3GEBQUIM4L6GvrzBLTsJQa1O7z6197DB
yTyhQMvbwj+ofbXBF43XQGsTBUDE/LPBdtrHQBpQlj+Vw7/B1kmQQIJPeL90TrTBIJi2QCmHn78X
yr7B3j+7QCndCMAQX7LBCwafQB1yIUBvi4TB1NjPQF/VN0Cg/XrBOE23QLwUp0BRQXjBvq2IQNEq
nkBvO4TB/ff+QCNYYj55Ap7BViTuQHWctr/g46HB+9ezQJGPqr+0ypTBWZnlQNw5j0DQIIvBO1Qe
QM1YTkDwEpjB8QVhQMTtI0Ajh4/B9eOfQLUzIj8bdI3Bb8n3QBe5l0CYoKDBteEDQQPXnkBMBavB
VuzAQGRGkEDkirLBv0ixQH/aiEAcJ6jBnFnMQFvfjEDUSp/Bl1DsQMxgm0AV9rPBBoWKQCYWckAM
AJrBo+3WQE4+4D9n64vBwc33QPdgkb+jYIzBjf+wQK1d1ECOJYjBw6bOQMTanb/FerXBOJTsQOzW
ij/cUbLBcdadQP+dQj8GmbXBEue/QHyLNEAHiYXBXzCpQNWUpkBQQ4TB0hPgQEq6y75Gm57B5QfS
QGUEHr9HGpPBU7DCQGwchkBYBovB98/FQCDHGD53V7DBKEiJQEjheECBeqTBY2qzQKA3hEBubpbB
YT9QQOJFWEAkyJPBVum/QGdIGz/+eo7BC+QOQVbbWb+z+I7Bkl38QILh9T9wkI7Bs93vQHp/8b8J
joTBYGq8QMA6pTzlCaXBuhYAQeqMpEAqzcDBk0wGQcSNmkASxJnBcYYUQXn0pkAtJ6zBq+mrQMt/
jUAMXrnB+HieQPzP6kBvMoPBb0XTQBj020BFfofBVN+mQBQ+10BDi5DBaSmzQKjl8r92FLTBDpTT
QBYjjr8sI77BnoDrQNMw1r8W37HBalTmQElDBECGrK7BNrYEQePgJD9Ztq7B23/xQC5+mj9w+rrB
6zeXQEgl3z96A7LBE2yjQJv5YD/+O77BUUaCQMlFwz2dTrTB0AieQAmBIkB7uITBo5HOQPwLOUBS
HHvBTUGzQEn3o0AvtnfBMtuGQEVBn0AV6ITB9Pz4QI/xwT7e0p7BBA7tQM86q78/1KHBdiu5QHav
sr/7GJPBCm3kQDEnkEBoBovB1P0dQBcYTEDYfpjBxPtfQO1SI0DOvY/BxmygQMQbHj9MDo3BJ8n4
QHWFl0BDjKDB1mUEQSElnkDH9KrB22DBQCEakkDMX7LBXdaxQC9MikDy+qfBjTrNQF9EjUDZK5/B
IyTtQIlRm0Ao3bPBmdqLQDJtcECU2JnBvHDWQLeV4j+asIvBX7nqQAVba7+i/ZfB4wyvQCBd1UCQ
k4jBXtrtQHj8jT2qoLTBU8OlQPFpnD8BabfBgDevQHh8lr9JDrzBXHLDQAq0OEDS9oTB8gWpQBW+
p0DoXoTBDCKyQCTp9z4zOKHB87u+QECYa75M8ZbB+NbDQDaEh0Ak5YrBw5C8QLAEp71uHbTBLBKK
QDLqeUAOTKTBmoi0QHA6hEBYTJbB+aFUQEKcUkB0nJPB5Ve7QEr4ND8j/I3Be74EQT+Rrr6smZzB
B0j6QCPs8j9wjY/BZaLtQJnOB8AOJJXBgUOvQLMlAr/JlKnBUqcAQctHokB5w8DB8NYGQY5GmkA8
s5nBsCEVQcdkpUBlH6zBiPOrQEIJkUDhJbnBqJ2bQA2c60BlyoPB+P3QQNte3kBm+IfBr+GkQOrj
1kAZ/pDBtgj9QE56YL90O7LBmH33QMyApD4J2bzBMQv4QFb/Xj/0Kq/B8OiCQGEYij859LbBk1Wv
QNAnAkBx+bHB+ceuQCjwvT+Fp7/BWkGMQMFupr+s07vB+x65QKAIY7+SLcTBtbe+QKbyB8Df2rnB
iS6iQKkrKEA39oLB1TbWQKz4PkAHH3vBzh6zQEV7pkCU5HfBhQKHQFQAn0D894TBm/ySQF/Xej9V
LaDBOIDKQCD6nT/OTKPBChOnQNmag7+gpJXBMw3lQK4rk0BaAYvBVEQiQGvTRUABSJjB+rlmQKFF
HUDvz4/Bx9SiQHnvED+Q94jBxSb3QP4blkD10qDBuDgDQV5snUCIRqvBNTm/QEacjkDVh7LBEjSw
QNRDh0AZFajBX87LQARBi0DdUZ/Bl3XqQB7vmUBtHLTBlRGKQBuJcEBGxZnBSATYQNrO4D+kXYvB
NAHrQKwRlL/qCpPBUyiyQH4q1EAouojBgQvMQHTzt7+U67DBJBS9QJzA8z4f/bzBcSKKQFhVlT1P
/K3BYCrAQP1RNECVJoXBO1yqQHwDp0A1YoTBChvsQHwvCT+6UqLBRY3RQLCYub2xEJnBPBfDQLRw
hUAt+IrBmAq6QAAuwDy6QLHB3UqIQIvCdkCNQKTBs1WzQMDggkBtWpbBy6RPQF80WEBcaZPBIwPA
QGxVaj981JHBPU0JQWL+gL/pkZHBlTX/QAgl5j9uwovBOPLXQErqDcCxbJDBg8bRQHw6gj8sAKvB
gWD9QIS9o0DmA8HBwDUGQeLLmEARDJrB6s4TQfS1pUANiKzBW9qpQMibi0B1R7nBMi+gQFN160BU
5YPBgYbUQB+Y20DOUIjBO1+nQMvh1UDJF5HBnbDKQGiq6L+xq6jBpKq4QDk+BcCkJrbBfm7tQNoS
uL9QtbPBHs2wQH1bwD+uu73BQ7DeQOSJ5D7Pl7/BaeypQP04Sr4jCcLBZ199QIJfjj8ZUa7BtYlu
QECnC78oh7PBn3+GQIJtoL7Wy6XBFlyeQI6fIUCZaITBdlrOQCtvOkBfRHrBHhe1QGqNpUBUBXjB
2O+HQBbXn0ClyYTBerD+QM2TsD/mHJ/BFQsBQS2iab57d6XBzWK2QIxCG78/2JzBSvHkQMIRj0B9
H4vB3q0cQKCSTEDmBpjBRPheQKI9I0CCWY/B5iqgQNOrgD9ogpHB

> <OMEGA_E>
HAAQP3w2MD+owCo/HEIpP5q2HT84FRw/XHgbPz5jFj/uDRM/KHQTPw==

> <OMEGA_NBR>
     71339

$$$$
50164878
  -OEChem-04172616093D

 58 59  0     1  0  0  0  0  0999 V2000
    7.7450    4.7445  -20.0783 C   0  0  0  0  0  0  0  0  0  0  0  0
    8.2380    4.9503  -21.3822 C   0  0  0  0  0  0  0  0  0  0  0  0
    6.0234    4.4642  -22.3070 C   0  0  0  0  0  0  0  0  0  0  0  0
    5.5447    4.2351  -21.0038 C   0  0  0  0  0  0  0  0  0  0  0  0
    6.3927    4.3909  -19.9017 C   0  0  0  0  0  0  0  0  0  0  0  0
    7.3772    4.8175  -22.4946 C   0  0  0  0  0  0  0  0  0  0  0  0
    4.3461    3.7588  -19.2206 C   0  0  0  0  0  0  0  0  0  0  0  0
    6.7162    1.7908  -17.4790 C   0  0  0  0  0  0  0  0  0  0  0  0
    7.4573   -1.0780  -17.8024 C   0  0  0  0  0  0  0  0  0  0  0  0
    5.5077    6.6670  -17.0569 C   0  0  0  0  0  0  0  0  0  0  0  0
    6.6770   -1.3757  -22.7714 C   0  0  0  0  0  0  0  0  0  0  0  0
    7.3176    1.0704  -22.7308 C   0  0  0  0  0  0  0  0  0  0  0  0
    4.9324    0.3943  -23.1537 C   0  0  0  0  0  0  0  0  0  0  0  0
    8.0191   -2.0840  -15.7155 C   0  0  0  0  0  0  0  0  0  0  0  0
    6.0453    2.8660  -16.6515 C   0  0  0  0  0  0  0  0  0  0  0  0
    5.3012    5.2438  -16.5322 C   0  0  0  0  0  0  0  0  0  0  0  0
    6.9583   -0.0704  -20.0750 C   0  0  0  0  0  0  0  0  0  0  0  0
    6.4089   -0.4001  -18.6940 C   0  0  2  0  0  0  0  0  0  0  0  0
    6.1052    4.2243  -17.3639 C   0  0  2  0  0  0  0  0  0  0  0  0
    6.2117    0.0520  -22.3743 C   0  0  0  0  0  0  0  0  0  0  0  0
    4.3030    3.8325  -20.5332 N   0  0  0  0  0  0  0  0  0  0  0  0
    5.6205    4.1345  -18.7864 N   0  0  0  0  0  0  0  0  0  0  0  0
    3.2820    3.3568  -18.4279 N   0  0  0  0  0  0  0  0  0  0  0  0
    5.9053    0.8052  -18.0329 N   0  0  0  0  0  0  0  0  0  0  0  0
    7.9172    1.8728  -17.7198 O   0  0  0  0  0  0  0  0  0  0  0  0
    8.6231   -1.1523  -18.1867 O   0  0  0  0  0  0  0  0  0  0  0  0
    7.0136   -1.5246  -16.5891 O   0  0  0  0  0  0  0  0  0  0  0  0
    5.8635    0.1374  -20.9733 O   0  0  0  0  0  0  0  0  0  0  0  0
    7.9961    5.0632  -24.1071 Cl  0  0  0  0  0  0  0  0  0  0  0  0
    8.3963    4.8566  -19.2241 H   0  0  0  0  0  0  0  0  0  0  0  0
    9.2757    5.2099  -21.5315 H   0  0  0  0  0  0  0  0  0  0  0  0
    5.3616    4.3707  -23.1553 H   0  0  0  0  0  0  0  0  0  0  0  0
    4.9241    7.3718  -16.4465 H   0  0  0  0  0  0  0  0  0  0  0  0
    6.5747    6.9280  -16.9985 H   0  0  0  0  0  0  0  0  0  0  0  0
    5.1731    6.7240  -18.1032 H   0  0  0  0  0  0  0  0  0  0  0  0
    5.8905   -2.1019  -22.5181 H   0  0  0  0  0  0  0  0  0  0  0  0
    6.8727   -1.4098  -23.8533 H   0  0  0  0  0  0  0  0  0  0  0  0
    7.5976   -1.6266  -22.2242 H   0  0  0  0  0  0  0  0  0  0  0  0
    6.9894    2.0821  -22.4501 H   0  0  0  0  0  0  0  0  0  0  0  0
    8.2380    0.8186  -22.1836 H   0  0  0  0  0  0  0  0  0  0  0  0
    7.5131    1.0355  -23.8127 H   0  0  0  0  0  0  0  0  0  0  0  0
    4.5944    1.4044  -22.8792 H   0  0  0  0  0  0  0  0  0  0  0  0
    5.1401    0.3579  -24.2333 H   0  0  0  0  0  0  0  0  0  0  0  0
    4.1466   -0.3348  -22.9067 H   0  0  0  0  0  0  0  0  0  0  0  0
    7.5495   -2.4076  -14.7749 H   0  0  0  0  0  0  0  0  0  0  0  0
    8.4910   -2.9482  -16.2059 H   0  0  0  0  0  0  0  0  0  0  0  0
    8.7829   -1.3221  -15.5006 H   0  0  0  0  0  0  0  0  0  0  0  0
    4.9927    2.5908  -16.4890 H   0  0  0  0  0  0  0  0  0  0  0  0
    6.5575    2.9455  -15.6813 H   0  0  0  0  0  0  0  0  0  0  0  0
    5.6338    5.1952  -15.4848 H   0  0  0  0  0  0  0  0  0  0  0  0
    4.2322    4.9912  -16.5895 H   0  0  0  0  0  0  0  0  0  0  0  0
    7.5696    0.8425  -20.0207 H   0  0  0  0  0  0  0  0  0  0  0  0
    7.5775   -0.9054  -20.4348 H   0  0  0  0  0  0  0  0  0  0  0  0
    5.5737   -1.1042  -18.8228 H   0  0  0  0  0  0  0  0  0  0  0  0
    7.1547    4.5533  -17.3772 H   0  0  0  0  0  0  0  0  0  0  0  0
    2.4973    3.1384  -19.0082 H   0  0  0  0  0  0  0  0  0  0  0  0
    3.5444    2.5467  -17.9036 H   0  0  0  0  0  0  0  0  0  0  0  0
    4.9145    0.9279  -17.9757 H   0  0  0  0  0  0  0  0  0  0  0  0
  1  2  2  0  0  0  0
  1  5  1  0  0  0  0
  2  6  1  0  0  0  0
  3  4  1  0  0  0  0
  3  6  2  0  0  0  0
  4  5  2  0  0  0  0
  4 21  1  0  0  0  0
  5 22  1  0  0  0  0
  6 29  1  0  0  0  0
  7 21  2  0  0  0  0
  7 22  1  0  0  0  0
  7 23  1  0  0  0  0
  8 15  1  0  0  0  0
  8 24  1  0  0  0  0
  8 25  2  0  0  0  0
  9 18  1  0  0  0  0
  9 26  2  0  0  0  0
  9 27  1  0  0  0  0
 10 16  1  0  0  0  0
 11 20  1  0  0  0  0
 12 20  1  0  0  0  0
 13 20  1  0  0  0  0
 14 27  1  0  0  0  0
 15 19  1  0  0  0  0
 16 19  1  0  0  0  0
 17 18  1  0  0  0  0
 17 28  1  0  0  0  0
 18 24  1  0  0  0  0
 19 22  1  0  0  0  0
 20 28  1  0  0  0  0
  1 30  1  0  0  0  0
  2 31  1  0  0  0  0
  3 32  1  0  0  0  0
 10 33  1  0  0  0  0
 10 34  1  0  0  0  0
 10 35  1  0  0  0  0
 11 36  1  0  0  0  0
 11 37  1  0  0  0  0
 11 38  1  0  0  0  0
 12 39  1  0  0  0  0
 12 40  1  0  0  0  0
 12 41  1  0  0  0  0
 13 42  1  0  0  0  0
 13 43  1  0  0  0  0
 13 44  1  0  0  0  0
 14 45  1  0  0  0  0
 14 46  1  0  0  0  0
 14 47  1  0  0  0  0
 15 48  1  0  0  0  0
 15 49  1  0  0  0  0
 16 50  1  0  0  0  0
 16 51  1  0  0  0  0
 17 52  1  0  0  0  0
 17 53  1  0  0  0  0
 18 54  1  0  0  0  0
 19 55  1  0  0  0  0
 23 56  1  0  0  0  0
 23 57  1  0  0  0  0
 24 58  1  0  0  0  0
M  END
> <OMEGA_C>
I9f3QAfTl0BgoKDB884DQaZonkDTDqvBw7/AQNHajkCkdLLBM26xQDaGh0DHB6jBXJHMQOCBjECb
Np/BFhLsQKMomkAB9bPBbhOLQJ2PcEDgw5nB3erWQIg55T8T1YvBY6LuQK/6ib9ia47BfD+wQENY
1UCZdIjBnqnVQB4XsL/WK7bBkCnqQIYDiT+02LXB8dWdQCTdyT60OrnBRk4AQQ9gBcClcnvBG3PB
QB9sN0BSNoXBwKOpQJ3Np0DcQYTBkareQDhHkL2PmaDB1xXNQOXVzL5GjZXBlV3DQCgth0BD6YrB
8cXGQCD5VD2R/rLBP7KJQB1IdUAJRKTBatuzQL9NhECPSpbBxAtSQNLVVkBsbJPBM/i8QKkfTj9a
Q5DB2ln9QMi27z8Zwo3BKfgJQeR9k79ifpHBUG/gQDYlw79ntoTBC6K7QAyvDD49yafBCuD/QB8G
okBL28DBSlcGQXxpm0D/ypnBG2kUQde3pkCNQKzBOpKrQMnci0AGPrnB45GdQJTl60BtkoPBSGTS
QEOy3UDq/IfBCIqlQFIr10Bv05DBK3+8QNiFBsArJbTB7+zbQPNytL+Y077Bbx/zQMo10L8Yy7HB
R6nfQEtBBUDTmbPBvs4DQRyQUT/+d7HB+2rwQOWKhD99gL7BYgWTQPzEsz+rCLfBmnukQK1Btz64
3cHB6LCEQMFuq77yQLfBM5XxQJgWGsAJZmzBHtsHQQavPMCppYHB1oYMQY47qb+NAnjBd8SfQFXQ
JUCN6YPB3dbRQBiDPECS5nrBPEi0QCM/pkCcwXfB/G2HQDG4n0BTt4TB8jnyQFasVz9tKqDBunry
QEjKZ79neqPBnluyQIdWjb8AlZbBZvPkQPi0kUB6BIvBQ9QfQLrbSEC0EJjBPddiQJj9IkCaOo/B
qUOdQFqMbT87zo/BMyj4QL4Il0BMgaDB8AYEQfj0nUCB6arBRRjBQJRij0CRYLLBbKyxQAWgh0Ae
+6fB88DMQOQejED0Ip/BpH3sQFSDmkBE1LPBxxSLQEw/cEDAxZnBXGnWQI7D5D9LwYvBX+TtQOKw
lL8QOZDB6PCwQEYk1UCwWYjBc7fVQD7Irr9ARLbBuW/qQAw5ij98X7bBHk2eQLJdzD7K9bnBK0sa
QdDQoL+EAonBzszAQFvFNkDeH4XBiHCpQLCkp0DHOITBFjLdQEAwTD3P+qDBwX3LQI98v754LJbB
4Q7DQJrahkB01IrBf7nGQDhvlj1iebPBXdmJQECNdUAjRaTBU9GzQF4FhED3PZbBnOBRQGAnVkDq
e5PBmZm8QJmdRz/H9I/B8jL8QPzp9j8lKo7BTjLjQG32DcCvBozB4IYLQdp4L78DlpDBeZu6QGQU
RT4CXKjBjCoAQSlHo0CDsMDBw4AGQT8PmkDtp5nBsq4UQZbopUC9EqzBUPCrQFLajEAHLrnB5FSe
QODj60DxgYPBxizTQKb73EBGwofBU7emQMVA10AcwZDBv1O8QL5IBcD9NLTB6KXcQMH2tr8P4b7B
YM7yQABJzb9osbHBH9rfQFleBkD6ZbTBk8IDQYVDVz+izLHBrlzxQAH0gT9J/L7BTHWTQK9utT9n
B7jByo+lQOOxqj4HjsLBbO2EQOIKpL6r8bfBrigqQQiBTL/1EIrBJo4UQexbiL8U1YDBSnEbQQvY
FcCwV4rBrRCfQJhBJUBW5IPB5vfQQHugO0ClqXrBRJuzQJvHpUCWnnfB0SWHQLoMoEAhzoTBugru
QHNQgT9oKaDBP5nzQOv1Nr9D7KPBhjqwQN8Bhr/2lpfByLXkQL4skUDN5IrBSMwfQERtSEAVKZjB
9o9iQE8UIkDFU4/B9iGdQCpyWT8VnY7B6xj3QGofm0CrvqDBkDgDQSCjo0D1I6vByhrAQFdMkkC3
nLLB+vewQEzRiUBTNqjBszPMQLMyjkB3YJ/BGgHrQLY+n0D8D7TBa7iKQKukckBw/ZnBozfYQIS3
1T/gs4vB7I/PQLrrcL6q66DBquOuQLQi1EAV4ojBOoWzQDWylsA274zBLMF0QJWST8CcU4TBcT27
QIEsfcDsp3PBvF+jQEZBCT6iRLDBW2zAQGiAMUBak4XBgYSqQFuTpkCwUITBFm26QHHt7L8r0JLB
tpzTQBUWEL+dApXBtH3DQMMlhUBfFYvBJxKrQD9tYsC5B4XBOiKJQM3HeUD+eaTBZeezQFrbg0Dw
fZbBfuRQQHRFWkCtn5PBtWHBQCqlCT/XtI7B2kb+QNox5j9k543Bz4XwQItm/73gMabBXtmmQIuG
xL1D5aTBE5HCQLOOFcB5F4jB9EH+QLvSqUB56cDBOPsFQXl2nkBx6JnBF54TQWiJrUBASazB2hSr
QIDtjkDzarnBP8WcQD+l6kCe24PBydbQQHNt3UAN+IjBRTCiQATh1ECWFpHBOhnWQMoOncCgXI3B
P9SiQFKOs8BoHIrBx5mnQFH/jcCA7JTB86ZpQAV7GsD1bn3BdZBcQCfjPcAlSozBZgVTQJSAhMAM
eoHBToa1QGHZSMC7O2jBLvupQKVhm8AAXW7BLrndQE97hcBCbnTBtnCBQGboaT5le7LBZWC0QGnB
hz9WX7LBUKuxQOkwNr9XnbTBrXmeQNuMH0Bq9oTBBkHOQLaKNkANBHvBshq3QPxCpkDcMXjBLnSI
QI22nUB3N4TBigWYQKXC0r8js5PB7STEQDOvJ8DsnZjB5Xz1QGnqNr8t85LB6l7lQCCyjkBBIYvB
ir4dQIxCT0AsO5jBpv9fQFTxJEC+n4/BbMSiQBTs7z6/cYzBDFr4QMGpmEDYIaDBcXsEQdWkn0DJ
eqrBcr7CQONDkEC7R7LBw1eyQE1ViUBk7qfBbuTMQEtmjUCA9J7BBTruQFNsm0BairPBfryKQGOA
ckBz65nBZ1jVQGMR0D9rLYvBz3oEQUD1ib98sIjBLceuQJtf00CQsojBNH7LQC9Cir9aK7HB4a3i
QFI2mz9czqrBsFiUQKPqMT8jnq3B/H8oQTrDjr6m3IbBxXG9QBKPL0CrSoXBdT6pQEICpkCCGYTB
gdzeQKDIcb9a65nBUvHbQPCVar9dlI3BszjCQKk4hED3tIrBu7O/QIr27j2N4KnBv/GJQPP3ekAg
ZKTBH62zQLRjg0CgM5bBuctPQGvNWUCTxJPBgXjHQKdRoT5DeYnBnND0QIMQ8j/8pJDBY18HQc8q
/L9oG4LB2AcUQTp2Ur5fF4zBeAK6QDuUn75P0p7B1oUBQWf6o0AkVMDBNlYGQa3nm0DeMJnBahkV
QVU8qEBQe6vBMD6uQAATjUCiMLnBfp+cQCFL6kA/zIPBi+HQQBYW3EAXnYjBzMqiQJwo1EAl+JDB
hLOyQAqn7b99grDBMKbNQPArPb+XhLnBnIPqQFRWv79Kqa7Bf0zaQDD/A0BuoKXB0NkAQeBMTD80
TKjBM9bkQMzmxj+CJ7PBB4eLQLMGxj8AgqjB1ReXQJMUhD9397XBhht3QBAWqb0wC63BWFozQXxy
8D6qWIrBoH4mQUs+ob23iHzBa04vQUhRpL+P+IfBMT+bQM0FH0BrBIXBAA7KQFPbM0DKL3rBhSG1
QGKepUBlonfBxwqHQOewnUBALITBcvj7QCq40r40bpzBypPgQEXM/r/smpzBV6PIQCPp479BD4vB
mE7kQJL6jECkhorB+0odQFW8T0CghJjBee1dQC7eI0AQ14/BEhmtQDg5Sj6cCoXB1MP3QF8jmEBt
laDB8rcDQdSQn0Bh/KrBdo3AQCFfkECta7LBkFaxQO0siECaBqjB/4jMQO2cjEAJNJ/B59HrQK7+
m0DH4rPBxiOLQF7bb0CBzJnBQsnWQIBZ5T/+vYvBYy3tQA4cm787yJDBBPWwQJ4J1UDnh4jBuefT
QCLfsL/pqrXBqQDqQMZbhj+mKLfBmlWdQFIRxj7PB7rB1poNQTa9R8AECpHBo33BQAhKN0AtH4XB
BLSpQOSkp0CxUITBfa/dQJRgPj4mHaHBu+rLQExupr7Ld5bBxF3DQLnehkA86IrBEBDGQEBCsD3D
krPBJKqJQCDYdUCcSqTB9uizQAXgg0AITZbBp1FSQO6JVUB6eJPB5bW8QFmcTD8f/4/BEBP9QOrU
8D9Q1o3B3S/3QJAaeL8se4fBWez7QJncEsBGapbBB9W6QDKqlj79fqjBHXf/QCNdpUDsvMDB0FMG
QYc+m0ChvpnBmk8UQQIBqEBHKKzByFerQAvMjUA1NrnB9leeQBza60BitYPBoivTQI8G3UB7/YfB
mJSmQA7f1kBk7ZDBQUC6QPcQBMAcG7PBehDaQBG3wr+BQr7BcTjxQDXozL9dH7HBPg/gQOGjBUAd
qbXB1asDQYJVVT+GnbLBsi/wQMq3aT+rwL/B9FWTQPKEtj+TlbjBkNyjQJyMfD7VmsLBx6WDQB8S
mL6+hrfBRUoSQWDxfMDuTZbBWcgbQRYIIcB8GI/BkKUGQY14YcCin4nBtdafQBi7JUCLw4PBzg3S
QCywPEDDxXrB1ga0QKQIpkDZ0nfBzG+HQCPhn0BW2YTBL5vsQK/6lT/T9Z/BUKT1QAhGBb9XN6TB
QkOwQAbsdr/AVJjBU/PkQNpmkUBpBovBPO0fQGs0SEC4HJjB2SJjQM8tIUDvYI/BLU6dQCVuWz9h
iI7B68j4QFkSmEB9haDBPToEQUpFn0Cn76rBd1vBQNEOkUCFTrLBpCmyQCXFiEA76KfBSHvNQDLa
jEA2HJ/BH7rsQLvvm0Aq0bPBxkuMQGk7b0AMrpnBhBLWQL5D5j8hwIvB36HqQNVeQr+1n5fBBYau
QJ+P1UCBtojBFCTzQAQoDD6wLrXBBa2pQBIbkz+Y3rjBjOm3QFudoL99oLzBgB0OQa3GDcCWMI/B
R4LEQCoaOkAtzYTBYoapQIYnqEDoS4TB4zazQG3uBj/xZKLBY+69QPRwA76Jv5fBcmDEQOv/h0Ay
zorBUSvCQPAdy73297TB7JmKQM00dkAZKqTBQOi0QIYnhED/MZbB9ohVQDG+UkDbWJPBGpe4QKnZ
Vz+vHI/Bj7T6QOBs8T/XN4/Bf2UDQZrdoL7gfZ3Bt8LwQOJB4L9bVZDBlf6zQKNgAb/UdKrB+hkA
QQsDpUAKs8DBy94GQdYem0CCsZnBztsUQX1Zp0DlIKzB1/WrQAsZj0DtErnBthKbQHrQ60Dv7oPB
llrQQLgj30BnS4jBhr6jQMdd1kB0FpHB1NgBQdGTRL/4XbLBOlD9QLWIuj51aL3BkTT7QDtyez/H
7K/Bpw+HQFCocz/qoLjBRDSxQAEhAECXo7PB7U+zQBErsT9FH8HBmzqVQDKmuL9wnrzBjlDCQMNH
fb/jwsTBqdnIQIpPCsAP/rnB2LoOQfzHQMDLIYnBsdITQcLlJsAw5pbB418YQfV/sL/4qozBpouj
QEkUKkDhc4LBkoTYQGAcQEB5M3vBTTu0QKqap0BG1HfBPZ+HQLnUnkAxtYTBcDiTQLS9ez9SBaLB
lBHLQLF9pj+4SKTBUrmmQA69cL/sfZbBen3lQKfqk0DF/IrB6UIjQJavREC0+ZfBIr1nQNpmHkBY
WI/BZbacQEeTUT9yMIvBPVD4QPJHmUC1b6DBoDAEQR0koEDe0qrBFBrCQMhej0BgY7LBC2myQM0A
iECb/qfBHCDNQFZ2jUDPHp/BKTrtQL6Tm0A/yLPBT+CLQNf4b0ArzJnBWnnVQBJA6D9/AYzB0vXt
QKofi78ivpLBM8mvQFLK1UD5M4jB/igDQQyiMD5LJbPB99+4QNGPNj+hHrjB+03WQGz/zL8mlLrB
ofsOQV39OsCnJZXBQ/vCQLjJOUCUDIXBUxypQNYOqEBQL4TBe/TFQCqziz6FKqHBTnvEQES/pr7/
8ZXB/ZzDQJUmiEAD1YrBUqLXQLiEtL6obrPBcb2KQOf4dEDGTaTBA0S0QNPxhEBePpbBIhVUQCU8
VECag5PBgFK6QLXaQj9PkY7BJ4L5QEZj+D+Oz4/BuHP+QJplWr/ZA4rBrIj8QMKSBMD4b5nBOP3J
QCiHRr9s76jBzI4AQdkopUA5msDBE3AGQSwKnUBLjpnBfcEUQWbnqEBU8KvBK1WtQDO3i0C2O7nB
PpWcQBX+60C+WIPB0tXRQPRO3kAdiYfBB8ClQNv410DAnpDBsrMNQa8pGr+3yq/BEWIIQTjv1T4b
UbvBCPQDQd2NiT9QIK7BgxCYQLNEoT5pOrjBUPC5QBw5zz89IrPBY8zCQBpOdj8JU8DBQmi1QHvV
/r+C5LrBNeTgQFoqq79Vs8LBqqzrQKS/F8AhQ7fBr5ATQYTuasCRK5vBYf4cQXa2E8A/FZPBRxMJ
QbWbW8AB7o3BP7uhQPJdKUBmBIPBWALWQMu1PkCuV3vBPxezQKQXpkA/hXfBcwGHQIvBn0BD2ITB
ZE6oQCTTVT8Rq6LBsZDhQPJRcz8VzqHBZhSqQEDChr9vwZXBWePkQLOfk0AU8YrBc3ciQB4KRUBe
MpjBPRZmQGW+IEBwVI/BKIedQDUVPz9eFIvBaYb4QFoTmUAycKDBtDQEQSoyoEAj1arBFAXCQBqP
j0D+WLLBVn2yQDIBiECb8qfBzFvNQAk6jUDHF5/BxR/tQNrGm0BKxbPB2SeMQBORb0DBu5nBSY7V
QLpt5j/O3YvB2zDoQAQoir8/o5TBo4mvQBbA1UBHYIjBAsUDQTz/LT5DuLHB9Pu8QKW1QD841rjB
IP3ZQPpHyr8xVrrBjG8YQbH9Xr9Qi4/B4KjDQAe2OUCL5YTBzlepQBkiqEAzNYTBly++QObcrz5Q
vKHBtTG/QJKqh74tm5bBsvbDQNELiEA0yYrBwODYQAbhpL6uR7PBINiKQPkPdUAIPKTB95u0QJmY
hEAiM5bBgs9UQAu6U0C2bpPB5i25QP/jRz+ckY7BkeL4QBJW+T/b+o/ByQPkQLzjD8Db4ZHBq34H
QRUZBL8g35bB8jfGQG4mOL9DPanBGmsAQR18pUA3msDBrJoGQfOonEAdk5nBFMEUQTcMqUD196vB
FyStQLAJjEAbLbnBlD+cQGoF7ECYj4PBlYbRQN6X3kAXyIfBAE2lQIJv10ACyZDBAjQNQSixHb8e
w63BqN4KQT0+zD6Nj7nBT8gDQQ29iT8lu6zB6TGcQKtbvj5i0LnBvWK8QFT41D9e6LPBb4/KQKuV
fD/GvMDBWDK5QMWK+b9+kLvBv2XoQIW1qr+RHsLB2i3tQJ3wFsCxYLbBQ1gnQZ+Wvr6L+5HBIxYU
QZfoDL99aYfBDMcaQUsI+7+Mp4/BZouiQJqkKUC+sILBEj/XQLALP0AKO3vBkISzQIaupkAjlXfB
+0qHQCmGn0B8y4TB+J+eQElrSj+OR6PBew7XQDbujj9mdaLBDRikQEGXdr9lB5bBdi7lQMmtk0AF
7IrBy/siQOLgRED1GJjBT9RmQB//H0CnS4/BbIOdQJAIQz8qjYrBjZn3QNfJlUB3dqDBbOIDQQKh
m0Bf4qrBzA3BQB4sjEALX7LB4SmxQAk3hkAv8qfB2x7MQM01i0DSF5/BfIPsQPf1lkBE07PB0zCK
QCptcEDdtJnBv93XQP1U5D8MqIvBvDu4QHLQST5IkaTBLuywQFrV1ECidojB+rfeQLQ8f8DA64vB
DZmvQGBvIMBENoDB1nj+QKR+LMApKHnBll63QM/QRz59nLfBjHjAQKQQNUD0E4XBuyKpQLVyp0DE
N4TBjIjNQGPNsL9mDpbB8hHRQFTgWT13IZrBon3CQLE5hkBox4rBoUbcQConKsCohoXByAeJQHf2
dED/NaTBcBuzQA+Tg0BwMJbBurZPQNrfV0DoY5PBIV6/QOXmdT/2F5LBX+H+QDdc7D8Am4zBbDKR
QBe2rj5CK6TB7EHPQFx9YD2Iyq3BqQzmQPDrwL8iQozB8lsAQb9VnkA2tcDB3iYGQXNhmUBwmpnB
V4cUQT+wo0DfCazBJy+sQLmFiECFMrnBOYaeQL7i60ACqYPBXjfTQC913ECq6YfB0p6mQNC11kBv
3ZDBQH/+QKmYgsCvoY/Bz13ZQBO8msC9eIbBCgPGQElUf8BeMJLBGl2uQKDpx7+/b3fBIreWQHAs
IMC0b4bB5hGqQE1QVsAncHXBYi/9QC064b+r7G/Buib4QEf7YsAueG7BDzMPQVOTM8BILYDBDP3M
QKzUfj1deb7BxgGeQI0YEb9/5rfBRuWoQKg2mT9c8bfBT9SeQAXXIUAKHYTBop/PQMRZOkA7U3rB
/mGzQIbQpUAmnnfBc8mGQCgRoEDYwoTBTcerQOyfz79AeJTBDUXaQJKuBMCBHJzBJvHyQDtIlT4p
lJvBqSrkQDV2kEBg44rBr28dQAOMSkAwDZjBQZlfQB7hI0BgK4/BeJSfQEi2fD/ZMpHB1S33QMhG
k0CUjaDB5cwDQQTVl0A7/arB96rAQLMriUCKc7LBln+wQHmfhEDKA6jBZmzLQJPoiUCoK5/Bh1Ts
QBMHk0B67LPBcceIQGhMc0DCvpnBXszZQA744T8HCIzB/P/MQCjPob2OOaXBP5mwQJ1700CWKojB
1ITAQPhXd8D9donBFWrbQFePLcDC1XHB5PIHQY5CV8B/T4fBAnGXQOLEqD7UY7LBfPi+QDCsMEDB
tYXBrUapQJbQpUACCITBmSHRQDYiur/k15TBj6XbQCQatr29mZnBEsrBQNbuhEA/6IrByP/hQIgD
NsC5IIXBb/CHQEpCdUATQqTBnxeyQD61g0A2Q5bBmZFLQDDdXkCBa5PBU5PFQCH1dT/ohZPBZHUA
QXZd5z9FWYvBOKzlQK7oCr9l6KvBdzSjQD41gD4bPqfB9BvdQB77wL/OrYnBblQAQbFrmUC80sDB
JfEFQf3rlkANspnBd4oUQbsBn0AAKazBfturQNInhUChRrnB29GeQEdB6kCYI4PBtPPSQPoM20A8
2YfBnkelQG7f1UBAepDBC4rEQG2HfsA0KZLBgVbFQGnVmsC6jYXBAAygQHzxX8DlvIfBLrbyQL5l
/7+PTmvBt8W6QKugFsCZl27BOBDgQAJabMBDOWrBAqsTQT7fKMAtO4TBFTcKQfyUisCZRoPBJ0EK
QQ5eX8DD+Y/BVddqQCJYGT/yELPBrg2rQN45jD9PX7bBwOScQGs0Jb/tOrbBOmudQMNjG0ABpIXB
x//KQAgrNEAM53rBNYq0QFqso0AibHfBH96GQM5+nkAVV4TBGIuuQLuH0b+IkpXBlsLiQHK8DsB1
QZnBQ3P+QDCJkT0lSpnBBa3jQMZzjkD//orBpyYZQJRDUkDRFpjB3jZZQI9hK0Du+47B1lmmQBcy
jT9J2pTB

> <OMEGA_E>
oHUAPzYgAT/wDxo/4HEpPyijAT8oYwI/YAwKP2CxCj8AyQs/9EcNPw==

> <OMEGA_NBR>
     81113

$$$$
50164879
  -OEChem-04172616093D

 58 59  0     1  0  0  0  0  0999 V2000
    7.7403    4.6053  -20.0755 C   0  0  0  0  0  0  0  0  0  0  0  0
    8.2408    4.8186  -21.3760 C   0  0  0  0  0  0  0  0  0  0  0  0
    6.0036    4.4727  -22.3052 C   0  0  0  0  0  0  0  0  0  0  0  0
    5.5134    4.2460  -21.0058 C   0  0  0  0  0  0  0  0  0  0  0  0
    6.3713    4.3209  -19.9017 C   0  0  0  0  0  0  0  0  0  0  0  0
    7.3730    4.7574  -22.4891 C   0  0  0  0  0  0  0  0  0  0  0  0
    4.2975    3.7670  -19.2343 C   0  0  0  0  0  0  0  0  0  0  0  0
    6.7754    1.7467  -17.3902 C   0  0  0  0  0  0  0  0  0  0  0  0
    6.3004   -1.3793  -18.9845 C   0  0  0  0  0  0  0  0  0  0  0  0
    5.5842    6.5917  -17.0495 C   0  0  0  0  0  0  0  0  0  0  0  0
    5.4148    1.1429  -23.2804 C   0  0  0  0  0  0  0  0  0  0  0  0
    4.7252   -1.2152  -22.6316 C   0  0  0  0  0  0  0  0  0  0  0  0
    6.9300   -0.8052  -23.7693 C   0  0  0  0  0  0  0  0  0  0  0  0
    4.7604   -2.9637  -18.1119 C   0  0  0  0  0  0  0  0  0  0  0  0
    5.9859    2.7818  -16.6295 C   0  0  0  0  0  0  0  0  0  0  0  0
    5.2960    5.1788  -16.5360 C   0  0  0  0  0  0  0  0  0  0  0  0
    5.9925    0.5805  -20.4896 C   0  0  0  0  0  0  0  0  0  0  0  0
    6.6234    0.0794  -19.2140 C   0  0  1  0  0  0  0  0  0  0  0  0
    6.0701    4.1341  -17.3587 C   0  0  2  0  0  0  0  0  0  0  0  0
    5.9109   -0.2326  -22.7732 C   0  0  0  0  0  0  0  0  0  0  0  0
    4.2530    3.8967  -20.5429 N   0  0  0  0  0  0  0  0  0  0  0  0
    5.5898    4.0654  -18.7898 N   0  0  0  0  0  0  0  0  0  0  0  0
    3.2149    3.3900  -18.4553 N   0  0  0  0  0  0  0  0  0  0  0  0
    6.0546    0.8385  -18.1255 N   0  0  0  0  0  0  0  0  0  0  0  0
    7.9833    1.8925  -17.5487 O   0  0  0  0  0  0  0  0  0  0  0  0
    7.2106   -2.1910  -19.1155 O   0  0  0  0  0  0  0  0  0  0  0  0
    4.9892   -1.6952  -18.7545 O   0  0  0  0  0  0  0  0  0  0  0  0
    6.6360   -0.1286  -21.5431 O   0  0  0  0  0  0  0  0  0  0  0  0
    7.9981    5.0283  -24.0961 Cl  0  0  0  0  0  0  0  0  0  0  0  0
    8.3992    4.6592  -19.2214 H   0  0  0  0  0  0  0  0  0  0  0  0
    9.2899    5.0294  -21.5217 H   0  0  0  0  0  0  0  0  0  0  0  0
    5.3374    4.4292  -23.1541 H   0  0  0  0  0  0  0  0  0  0  0  0
    5.0223    7.3223  -16.4491 H   0  0  0  0  0  0  0  0  0  0  0  0
    6.6612    6.7995  -16.9659 H   0  0  0  0  0  0  0  0  0  0  0  0
    5.2766    6.6688  -18.1028 H   0  0  0  0  0  0  0  0  0  0  0  0
    6.2692    1.8291  -23.3756 H   0  0  0  0  0  0  0  0  0  0  0  0
    4.9326    1.0197  -24.2614 H   0  0  0  0  0  0  0  0  0  0  0  0
    4.6895    1.5576  -22.5649 H   0  0  0  0  0  0  0  0  0  0  0  0
    5.0944   -2.1866  -22.2707 H   0  0  0  0  0  0  0  0  0  0  0  0
    3.9972   -0.8101  -21.9134 H   0  0  0  0  0  0  0  0  0  0  0  0
    4.2403   -1.3480  -23.6100 H   0  0  0  0  0  0  0  0  0  0  0  0
    7.2841   -1.7830  -23.4110 H   0  0  0  0  0  0  0  0  0  0  0  0
    6.4528   -0.9262  -24.7530 H   0  0  0  0  0  0  0  0  0  0  0  0
    7.7830   -0.1163  -23.8578 H   0  0  0  0  0  0  0  0  0  0  0  0
    3.6796   -3.1165  -17.9756 H   0  0  0  0  0  0  0  0  0  0  0  0
    5.1686   -3.7707  -18.7380 H   0  0  0  0  0  0  0  0  0  0  0  0
    5.2584   -2.9729  -17.1311 H   0  0  0  0  0  0  0  0  0  0  0  0
    4.9343    2.4656  -16.5650 H   0  0  0  0  0  0  0  0  0  0  0  0
    6.4002    2.8861  -15.6159 H   0  0  0  0  0  0  0  0  0  0  0  0
    5.6024    5.1079  -15.4819 H   0  0  0  0  0  0  0  0  0  0  0  0
    4.2178    4.9773  -16.6188 H   0  0  0  0  0  0  0  0  0  0  0  0
    4.9124    0.3719  -20.4908 H   0  0  0  0  0  0  0  0  0  0  0  0
    6.1570    1.6626  -20.5994 H   0  0  0  0  0  0  0  0  0  0  0  0
    7.7138    0.2172  -19.2577 H   0  0  0  0  0  0  0  0  0  0  0  0
    7.1270    4.4388  -17.3715 H   0  0  0  0  0  0  0  0  0  0  0  0
    2.4188    3.2383  -19.0412 H   0  0  0  0  0  0  0  0  0  0  0  0
    3.4342    2.5459  -17.9660 H   0  0  0  0  0  0  0  0  0  0  0  0
    5.0916    0.6962  -17.8967 H   0  0  0  0  0  0  0  0  0  0  0  0
  1  2  2  0  0  0  0
  1  5  1  0  0  0  0
  2  6  1  0  0  0  0
  3  4  1  0  0  0  0
  3  6  2  0  0  0  0
  4  5  2  0  0  0  0
  4 21  1  0  0  0  0
  5 22  1  0  0  0  0
  6 29  1  0  0  0  0
  7 21  2  0  0  0  0
  7 22  1  0  0  0  0
  7 23  1  0  0  0  0
  8 15  1  0  0  0  0
  8 24  1  0  0  0  0
  8 25  2  0  0  0  0
  9 18  1  0  0  0  0
  9 26  2  0  0  0  0
  9 27  1  0  0  0  0
 10 16  1  0  0  0  0
 11 20  1  0  0  0  0
 12 20  1  0  0  0  0
 13 20  1  0  0  0  0
 14 27  1  0  0  0  0
 15 19  1  0  0  0  0
 16 19  1  0  0  0  0
 17 18  1  0  0  0  0
 17 28  1  0  0  0  0
 18 24  1  0  0  0  0
 19 22  1  0  0  0  0
 20 28  1  0  0  0  0
  1 30  1  0  0  0  0
  2 31  1  0  0  0  0
  3 32  1  0  0  0  0
 10 33  1  0  0  0  0
 10 34  1  0  0  0  0
 10 35  1  0  0  0  0
 11 36  1  0  0  0  0
 11 37  1  0  0  0  0
 11 38  1  0  0  0  0
 12 39  1  0  0  0  0
 12 40  1  0  0  0  0
 12 41  1  0  0  0  0
 13 42  1  0  0  0  0
 13 43  1  0  0  0  0
 13 44  1  0  0  0  0
 14 45  1  0  0  0  0
 14 46  1  0  0  0  0
 14 47  1  0  0  0  0
 15 48  1  0  0  0  0
 15 49  1  0  0  0  0
 16 50  1  0  0  0  0
 16 51  1  0  0  0  0
 17 52  1  0  0  0  0
 17 53  1  0  0  0  0
 18 54  1  0  0  0  0
 19 55  1  0  0  0  0
 23 56  1  0  0  0  0
 23 57  1  0  0  0  0
 24 58  1  0  0  0  0
M  END
> <OMEGA_C>
PrD3QEFek0CMmqDBJNoDQT8ymkAWAqvBdx3AQLMgj0D6cLLBhW2wQD3fh0DrC6jBfeHLQHdEikCq
Np/BvO/rQN88mECs6bPBfoWJQCIXcUDR35nBtc/YQGuU3z8cH4vBupzJQN6NsL9K4JfBKrKyQEPv
0kBWZYjBMkatQJdJkj9SPrrB4zSXQE+Nm7+BDbXBPcLdQFYiTr+OJ77B41SYQIysPcAm5ZDBZIy/
QMwIMkAzCYXB4HipQAS5pUDLSYTBNcK/QEacFD+36qPBxvLTQLCZoj1TtpnBmT7CQJVKhEC43orB
VCa9QKgzbr6YL7bBpBiIQFpkeUDbV6TBtN+yQGQXgkB1UZbBVsBNQCr2WEBspJPBeb/BQGKmVj8g
AZHBc3f/QDM98j+9Y4zBc73mQLQ5DMCJ7JjB76efQFX72L8uCZbB8VnUQKS1A75RWKzBx/D/QJzn
oEDRxMDB+WIGQUEYlUCHxZnBjqMUQYrwoEB9LKzB8suqQBa8jUCWO7nB6ragQHpQ6kDHl4PBpSjV
QDeV2UAkuofBGdqoQLBm1UB70pDBi53IQFIg6j8uAbvBONidQEaEgj9fF8LByBCWQPVdxz/dhLTB
IgWjQADxC8B1KrLBadF/QAtgT7+yTq/BJLCHQLWJrL814bzBthfpQLs65L+ySbvBc33OQCobbb80
BsbBCg75QBQ97r243L7Bb35rQDd1R8AZzo/Bd2WlQNVSccBw55XBjkSoQDJDPsCJDInBw+WdQK7L
HUAqhYTBks7MQHq1OECN2nnBz0azQEp0o0ALtnfBQ/iGQMNFn0Bc84TBkDKdQN5nvj4w7aPBNQbF
QHDP1D99y6TB2tf2QPFeXj7XD5rBnhDkQHoKjkDU+IrBh80aQLZAT0BQVJjBZMpbQD/wIkB1uo/B
au6iQBQ7Mj+FLI/BuRX4QP+KlECHoKDB1OkDQUeim0DPCavBKg/AQIGNkEAIX7LBtM2wQIVDiEC7
+6fBGG3MQC3nikD/Mp/BBdbrQMXRmUB55bPBaXiKQPKbcECgwZnBMmLYQOmW4T/jZYvBQBK9QEkp
ub/GEZbBF7awQBbv00CKzYjBd+/dQDX9oT/LkrnBp0WgQLZzvr6HybjBZmrrQDbll7/PB7zBQrCs
QKyxRMB8wIjB0onBQGDvNEBFAIXBLAmqQFvLpkBdVYTBk3LDQHSk8D4mkaPBPJHPQIA+jL1vpJjB
F1vDQG+ZhUDy4orBCCHQQAAoFr5EHrbB+8eIQCJfeEAXO6TB3LWzQL2wgkBZR5bBKGlQQNLGV0Ds
bpPB+x+/QJ7ZWj+lwZDB3wP/QM2h7D/BBY3BB5mqQMTDBcAHD53BbSvEQMeP8r+f4ovBmBDZQDIw
vr5UCavBsZn/QEB5okBExcDBH6EGQSJ6lkDQ0JnBt60UQQ94okBUP6zBxnaqQEbUj0BFHbnBN1me
QO4D60D7/4PBMerSQCkk3ECyd4jBaaylQPgR1UB7J5HBsvH/QL0UtT9upLfBHirZQMZ/sD+zPsLB
eY/KQF/VAEAUTrXB+7+WQIsesb8gSbbBV7uMQI4Avj5ChLTB/FWbQE2rhr7hdMHBSZ3hQA2mDMBc
k7nBi9fmQI9zib+GtcTBFq4GQatZhL8QDLrBVuy0QN6sVcCtdoDBKyaKQO3fN8BiT4nBcBO1QJUP
esAuGI7BTeifQMEhIkDc5IPBawvRQMp3O0BVSXrBWwS1QLzkpUCK83fBk8aHQIvSnkCOqYTB9Zyg
QIxq1D6nwKTBPRfOQCSjwT8/caTBrKfyQHUK9b1FEpjB4PvkQGn6j0D5DovBKFEdQJMLTUB4D5jB
zoNfQMIvIkAJfY/Bl9GfQDFkVT/BG4/BGFr2QKhKmUBuRKHB5U0CQYIRoUBXy6vBoVW9QB/Fj0BW
trLBNG6vQOqXh0DTMKjBHpPLQBCkjED3jp/Bqx3oQPGJnEDvgLTB6KyKQIZscECFppnB2/bYQNdK
3D+gTYvB6XKrQAQflL9U0pnBh9mvQDGK1UBjmonBu1zgQFkDhr9bCLnBx5D1QL1fsz9ChrjBoY2p
QL4eOj+y77zBwBxKQNg4yb9ot6DBYzLCQKzZNUC3MoXB7iWsQOK3qEDYkYTBDZLlQAFVWj7hCqPB
Um3RQAzpR76bQJjBrKvEQAdhhkBOJYvBKH/RQNHyxz43ILbBgR2IQKgpdUBhJaTByBm0QExpg0As
dpbB5zJSQNPpWEC0AZPByi7BQB9Hej98jZLBW2L/QNdlwz9z/YnBQM2uQP6cE8DeeJbBi1+HQMvg
JL8jn57BC8HEQCUe/j6G/KrBlHn6QNxypED1jMHBo/oFQfD7nEBilprBt68SQbKBqkBaNK3B+n2n
QKpPjEAQWrnBbxKeQNO87EDasoTBKLvRQJX33kC8+YnBxmWiQLzv1EDUu5HBhXnGQOxK4b9dTLfB
k2ToQC+5i7/Xl8HBkMH8QMxMp78GRLTB9sPqQFqXGkCjcbbB4AAJQSvIkj+mwbPBw6T9QMhbrj93
FcHBuneeQCUQ3z+RALvB8taxQNwqLD9WesXBDfaPQOZmmzvGK7vBuZMUQGREhb8/iqTB/xhhQA2M
F8CSEabB2080QEL7AMA9I5nBDFqgQDpKJEAQL4TBpEbRQAXkPEAyl3rBKXy5QKfAqUAd3HjBxyaK
QM24n0AnMITBEDz5QHWEjj/32qHBt+L5QBu4G79K86XBke7pQCqxMr+IYZPBE4HmQFQCkED5dYvB
ZVUeQL5sTEAWbZfBVIRiQJOkJECV3Y7BgAejQDp9oT+R+JPBPub2QHYXkEBbvqDBMFkDQfwLmEB/
IqvBLHW+QP7EkEA2crLBbvKuQARdiEBhEajBBtzKQPQWiEAkTp/BBoLqQBhmmEC/+rPB+66HQL7c
ckB+6pnB5KjYQJglyj89ZonBfOvdQIByz79rAJDB86yzQFHO0EDOKonB3TTSQHz+eL+t5bfB4SDz
QCYNpT+e7rnBtRGkQCiAhj8JZLXBHHvtQHvRfMD7643BSg26QKVxKUANNYXBE+uqQDA0pEBqaoTB
wDbYQGO3EL/O1KHBLS3lQP0sn756O5bBIxnBQFE2gEDA8orBdpDRQFVc+T79jrPBmCuGQMVnfUD6
WaTBF8exQFU4f0CoaZbBcclIQFDuX0D1mpPBabrLQLUoTT/P/JHBbC78QAB/uT+fVoXB/UjCQIkt
1b89AonBH6H2QNoJLMA5EZPBWVTdQAHJHj+DSajBhIb+QE/Nn0D65sDBLikGQf4hkECz9pnBFzYU
QdvhnUDYVKzBhcWoQNFckUD7K7nBW22jQMpA6UCMT4TBkFXWQKL01kABK4nBu4enQBwU0kCwa5HB
spO6QPXuyb9NhrPBdTbKQAwXeL+bd8DBwUryQHSBs79YxLbBvJnzQBseFUBbFLfB4nMJQQexVj9N
yLjBd9PqQHHOoj+Qe8LBDnuiQOtmBUAJaLLBoLCcQE3WhD+e/r3BVqqMQESj3D56E7HBkZ8BQQAg
l8BIB5HBNwryQCRTdsDXO4XBvC7MQGOvh8CPlY/Bge+YQIM8FEANk4bBqXS/QPr7MUCXJ3nBx/22
QJlao0DvTXjB8y+IQBR6nkCmZ4TBZ2TsQH/wrr99IaXBCnm2QHOjYL8pDaLBebMDQfF3Zr3K85XB
Mq3jQFPMhkAl9orBRKQUQBLHW0DmNpjBgkhSQKQhKEAc34/BWKyvQOMbgT/FdZXBOMf2QJJqkEB3
i6DBmnoDQRHRl0DE66rB4xG/QEBCj0BWabLBeDavQBVSh0BoDajBZMDKQNUSiEA/NJ/B/ivrQDY1
l0AW2LPBEmeHQHd7c0AE65nBhGTYQH2IyT9DVInBEK7KQCy8zL/kz5TBEFGzQFe50EDu3YjBUgIE
QQtI5b7j0bfBiOPLQNLAnz+0B7fBkL+7QEShlr82qrrBFamKQIrkM8CnCZnBkxG5QOmwKEBJToXB
ZUyqQBzvo0DAQYTBeLDzQCSrx73Lx6HBGjrmQNMFqr7CEJbBDHvAQJwkgEBC3orBhdXYQKYoTb4w
abTBY06GQPEefEAXY6TBJmWxQO3tf0ClWJbB+rpHQOmxYUBMpJPBmzPNQJBVUD8mNJLBuBj7QGps
uD9Z24TBP0LZQA1iIsA9oI/BM5SiQL78yb9DWZnBoVjRQDqd4b4uIKnBBo3/QK1vn0ADscDBwPAF
QTEikUBwtJnBUVUUQaD2nUBfDKzBpq6pQMJDj0C/MrnBBhCjQPMA6UCb9YPBXf/VQAq+1kCQzojB
QlenQJdt0kCIIZHBDIQIQZcAvr+E7LXBzKQFQT2Wjr77ecDBg5AOQXqFej4IebPB6HyqQBEutT/O
mLTBYuPgQCzL+D99rrLB9AvPQO3UtT9wr7/B8TGaQFXegb+5V7jBgV+/QC+Wf78LTcPBMv3EQJCX
DcB8zbjBScFWQHFsKsD/5JzBpH6cQD8KZsDVT53B9N6FQLdqR8AJq5DBODSYQAA2E0Dn9IbBFF69
QOybMECBQXnB9DO2QIqnokCO9nfB2YuHQBdXnkA/ToTB7gL8QJaJdj/L16LBCeMHQTGiOL//lKPB
up4BQUKP474NKpHBUBfjQCCOhkAD0YrBIfMTQPKwXEA6TZjBRe5QQP+XKkD+vI/BEZmyQI3Chz/e
L5bBgN34QMomlkAGAaDB1PkEQWYYmkDRYarBNCnEQAUaiEBPELLBMk2zQLozhEBUrKfBkVXNQMN8
i0B8wp7Bbo3vQK5sk0CEZrPBaUaLQBGVcEAWfJnBThHWQOoK7D/Ib4zBFfPLQHIzzT18JKTBtBiu
QB3o1UB8KYjBHl0dQdZsH8BdII7B2O4RQR8WPb/WcoDBB8stQXG0Qr67M47BcEvnQC/2EL+RMrXB
cB3CQHVoOED0FIXBozyoQCdKqEBm44PBlu3nQASsjL/bTpPBF6nEQO09Wb4WPZjBrbHCQNZMiEBI
horBsugYQW8xfL85QozBpwOLQIDkcECwAaTBnpyzQKVVhUBa7JXBmcZRQHflV0DSLpPBACO6QHI9
dD8mdpHBxXn7QIDF/j//IY/B/Qu3QJiDgD8hPajBY3DjQNvGT7+G3KnBnR0JQZOaAL/h9JPBtk4C
Qft4mUATPMDBQXIGQcc9m0AbFJnBpaIVQUk6okAvcqvB4hSwQFV7gkA99LjBbfqaQDpA7EBXU4PB
fBXQQB7e3kAcsIfBeHCjQLBU10CeipDBrUMiQa2cKcBge5bBtTsqQXa2NMDevojBnMEOQUloRMC7
eYzBctMOQbm8qj6meX7BWUkDQV29p7+JgH3BcsMeQbZZiL/RCnbBPM0qQZ+oYT8/5YzBajU6QZOS
Cb8dnojBZDgzQV/9sr65eZbBjLf6QMgXrr9D4LjBIUfHQGsAD7+Y2rjBftL2QMuK0D5QgbbBJtqg
QM0sJkCeUoPBjnTUQMZ/O0BNKXvBHdiyQEENp0CQAXfBGTOGQNSDn0BKW4TBsTLgQMvmor8F1orB
ZXHoQMPYA8AjlpfB2s+nQKGdV79ZHZjBhQPkQO2lk0DzlYrBrtcgQJTDRkCT35fBxOpiQHFQJkDG
mY7BVPOaQI5ekD+FVJDBL9n4QDDRlkDVGKDBS+UEQYj8mkBue6rBchfEQBBeiEDyILLBG1uzQGtU
hEAQu6fBPWjNQOrZi0Bu1Z7BBF7vQM8dlEB1fLPBmnaLQCv2cEDdhJnBNyDWQGSn7T9smIzBxj/I
QAA4Jzlck6PBK2KtQPIV1kApF4jByMUCQcjXN8DKg4HBfS0gQaTNDMDwm47BgecLQTVDi8A6IJHB
m63kQL8TCb/tzrTBDsbCQP1pOUAlM4XBvT2oQHRLqEAP5YPBzwXxQDWmUr8uK5PB6nbGQJJVh752
b5fBWf3CQODEiEBPm4rBkukJQaGNOMDlc43BKyGLQG0NcUBXCqTBU8ezQPy1hUBN/JXBJE1SQMEj
WEBWM5PBKDa6QB+bbD/oJpHBWM/7QGRq+z9qPo/BN6ewQJnZWz/UY6fBFr7gQBXtWr8mlqnBtsPz
QJf+D8DtSpTBoSMCQbdymkB0U8DB8XQGQb32m0BYLpnBjoIVQdNxo0BIkKvBfwSwQFyIgkBDArnB
sAyaQNQF7EADMYPBhEDPQCGB30DJo4fBToyiQBCa10BgdJDBNRXmQCfZVsChxYDBfY8OQbXTWsBz
UXnBZK0BQWOu6r8FXH3BsxclQVqWDcD4DpfBGSUfQUFrlL9IzYvBMwcsQSSyL8D/x4nBLfEQQZg3
jMDnjZnBntwXQV3Gm8AgKYzBoaf4QBxLm8BKR5DB2uv4QETSpL+RwrjBRMTEQB+DCL+xhbjBqVbz
QMC76j5tsbXBhZ6hQGRKJ0D2TIPBzZ3VQOF4PECijXvBpwSzQGH8pkAoDHfBcVCGQFAVn0CrVoTB
x78FQdUyub6mpJfB6+XzQCflEL9mpIrB6P6tQATVhL8sHpbBFzLkQNJxlECYrYrBFWQhQKi8RkAP
4ZfB0KpjQFO1JkApm47BX+eaQPP5iT9RC5DBQW/4QJmQlkAXEaDBgcUEQdxzmkBZcKrBQenDQNvP
h0CjILLBRRKzQBbNg0B4vafB2v3MQBGVi0Ai1Z7BfTzvQEFzk0AKdbPBc+iKQKw3cUDFi5nBDafW
QB417D9Ol4zBBqzQQCgKDL5BDKPBtwCuQHfc1UDQGYjBklMCQUCGPcAqin/BSC0gQWwkFsClw4zB
oMkKQXCBjsApZ4/BGSq0QJ9+4z4CJ7TB9K7BQBz9N0CoVIXBZEGoQAEeqEB55oPBEJzwQATlZr8e
/ZDBlc3JQHuPpb5z75bB5YPCQEU/iEA7oorB/5IJQZP0PsBRr4vBz8qKQGcycEB8EaTByUuzQImL
hUCQAJbB9K1QQEUJWkDQN5PB9v67QHIybD9Br5HBffn8QIrV+D/4lY7BND3yQOIPBb/nKKfBN4+u
QNFztT6msqjBhRb0QBxqFMD3lZLBuDMCQblmmUDgR8DBwC8GQdjvm0B6I5nBwmcVQdrLokAzgKvB
BeOvQPgKgkAnBbnBggWbQIkQ7EDNMIPB7QDQQDjO3kBLq4fBQR2jQAiI10B0dZDBxK/kQKR4WsCi
Jn7B9cUNQZMdYsBZynXB8L4BQfvt9b/r1XnBdC0lQTxmF8A5M5XBvKcfQYMCp78W8InBwK4rQden
OsBN6ofBgeQPQZKrj8DT0ZfBbmYWQYbrn8D5bIrB7931QJJ1ncChnI7BpuOWQPpyWT8vz7fBqEbP
QJbyjT/88rXBH5u6QKKcDr8da7fBzEugQPw4JUAk04PBdyrTQDbLOkDTZnvBJxezQNKlpkA8EnfB
ejOGQKJfn0BHU4TB2OwGQf9S1b4Y+pPBchztQFYEM786YojBArWvQB7Dhr9uB5bBQOXjQGxqk0DF
sYrBoqsfQOHISECl45fBWTxhQP3iKEDUh47BrKucQBs0kD9dxpHBskT3QM4NmUBmEqHBFhIDQXJS
oUAchavBvTi+QN+llECYorLBK+mvQFzrikBPOKjBMxbMQKl8jUDnh5/Bnb/pQNninkBjTLTBKc6K
QA31cUCz6pnBUJjYQH/T1j8vmIvB3FOqQPL1y7/g3JTB71avQHeG1EAfWInB42MFQTfGkz7VJbLB
R6PEQPjCrj83P7bBlFjKQOBbkL/ER7fB8C9LQMX6AcConZzB8afBQDIxM0B0e4XBfHKrQOtPp0Df
iYTBxS7nQIJr+r7nWJ7BkcjQQBbWJ7+ucZPBB0nEQAF3hUBxNovB52LZQMUUBz7rLrHBImOIQCkX
e0DOXqTBBDm0QMdbg0DAkJbBiA1SQCebWECtcZPB3fm/QFX+HD8rNY/BAE3/QOh23j/cK43BwJir
QJO+LMAjm5DB+c2IQMrMj7/16prBjZLKQJ4q1D2MJ6bBTc38QJhtp0DQQcHB5FoGQV6Nm0AbU5rB
dKcTQQmJqUD/0KzBECCoQBVHlEAgR7nBdVWdQJlU60CKYITBoTrRQJ/+3UATlInBTj6iQPSL1EAy
g5HBSEsNQU8NFr8ykK7BzdoJQYwWuj6No7rBiHsKQdyOmT+s7K3By5yhQKkWpD8ErrXBWFPPQNQv
EUBp/rHB4xHOQG9Wtz9Ktb7BfGqnQBMUnb+0ibbBFQLTQCiXhL8ox7/B+erZQHMaAcDO3bPBFg4a
QF4Pxb/DiqHBjGJiQGmnO8D2vqDBbGYvQC4WFMCF2pTBlcCfQFCpIUD7loTBYmTQQNdZOUAqDnvB
H224QKe5p0Dyt3jBzHCJQPxGnkAYS4TB7KUBQd/xJD6dWp3BQ4PxQGcCvb/uPKHBsVznQDj8jL9F
to3BMx3mQMUqj0CQZIvBrBoeQImeTkBj8pfB5qJhQN9+IkBTpI/BYiygQGWsNz+b547B8wH4QPUr
l0C5UKDB4kYEQWy2m0B5uqrB/JTCQH5SiUDBQbLBO0yyQAyvhEBg1KfBXbTMQPLdi0Ax+p7BsNXt
QDAHlUCpr7PBEu6KQHsJcUD1i5nB1GnXQInr6D+KV4zBGhPSQJh/BT03qKPBYe6tQLfs1UCWeYjB
hRkSQSgqXL/RWnzBuhEJQUlETMB1GYXBxVrpQHQbDcAuRmvBs0G3QL3xBT9jE7XBiazCQPFBOECS
P4XBifKoQA1fqEDGEITBYqLrQKAfib/rT5LBy0bIQCPIhL7Z2ZfBIyjDQDokiEDRvorB66z/QFA0
8L/yXIDByjeKQPiGcUDjEaTBZouzQGUghUBpFZbBPz9RQLBvWUAUKJPB3Sa8QCQQcz+6xpHB+Cr+
QGKO7D8/3Y3BWyb1QCe/jb5cW6fBP9GwQJ5cBD9goKnBxz7fQD4wpr8pTofBwzwBQVQmm0Acj8DB
BiMGQWpLnEBXb5nBWNsUQRNRpEBD3qvBMjCuQJX6g0BlGrnBQPyaQPE77EAXloPBa9nPQHdG30Br
NIjBIoqiQJbs1kAxzJDB/k8LQZxbhD3uqHXB7oEdQcSMpb+j4nDBf2waQTaWIb8ztoXB+Ob3QPqi
ecDymYbBz1sRQTIyPsAQqYzBPnEUQQaTaMBcyH7B6ljPQNIyO8BHFW7BRWEAQTr5KMBVIGDBlBXc
QDAopL9LWWTB86WaQJo8bj+gCLnB+yPTQGX7kj//CLfB4eS8QDYzAb/P37fBWVihQE2/JUABnoPB
H23UQD9oPECSVXvBrEW0QECdp0CZeHfBZPaGQF9Dn0ASVITBiLnvQNxLAsCcapbB9PQEQXTeAr+h
j5LB6earQJUIab+X45fBEH7kQKdtk0Be5orBvJ0fQCA3SUBcyJfBFPFhQFx/J0D2m47ByfCcQOeB
lT+UiJHB

> <OMEGA_E>
qLj1PoDJ/D7MMxI/ahAlP7TTJT/IzxE/RGkRP/DsDj+Usg4/+K4OPw==

> <OMEGA_NBR>
     90888

$$$$
50164941
  -OEChem-04172616093D

 46 48  0     1  0  0  0  0  0999 V2000
    5.8084    0.1227  -23.1334 C   0  0  0  0  0  0  0  0  0  0  0  0
    6.9716   -0.5442  -22.7017 C   0  0  0  0  0  0  0  0  0  0  0  0
    4.9222    0.6770  -22.1896 C   0  0  0  0  0  0  0  0  0  0  0  0
    7.2506   -0.6552  -21.3267 C   0  0  0  0  0  0  0  0  0  0  0  0
    5.1918    0.5534  -20.8134 C   0  0  0  0  0  0  0  0  0  0  0  0
    7.7410    4.6782  -20.0538 C   0  0  0  0  0  0  0  0  0  0  0  0
    8.2692    4.7935  -21.3545 C   0  0  0  0  0  0  0  0  0  0  0  0
    6.0699    4.2854  -22.3030 C   0  0  0  0  0  0  0  0  0  0  0  0
    6.3701   -0.0981  -20.3762 C   0  0  0  0  0  0  0  0  0  0  0  0
    5.5500    4.1681  -21.0014 C   0  0  0  0  0  0  0  0  0  0  0  0
    6.3791    4.3566  -19.8906 C   0  0  0  0  0  0  0  0  0  0  0  0
    7.4357    4.5936  -22.4774 C   0  0  0  0  0  0  0  0  0  0  0  0
    4.3062    3.7982  -19.2243 C   0  0  0  0  0  0  0  0  0  0  0  0
    6.7736    1.7528  -17.5036 C   0  0  0  0  0  0  0  0  0  0  0  0
    5.4666    6.6287  -17.0385 C   0  0  0  0  0  0  0  0  0  0  0  0
    6.6345   -0.3412  -18.9044 C   0  0  0  0  0  0  0  0  0  0  0  0
    6.0103    2.7981  -16.6933 C   0  0  0  0  0  0  0  0  0  0  0  0
    5.2793    5.2004  -16.5102 C   0  0  0  0  0  0  0  0  0  0  0  0
    6.0728    4.1855  -17.3612 C   0  0  2  0  0  0  0  0  0  0  0  0
    4.2833    3.8403  -20.5387 N   0  0  0  0  0  0  0  0  0  0  0  0
    5.5886    4.1351  -18.7823 N   0  0  0  0  0  0  0  0  0  0  0  0
    3.2186    3.4517  -18.4371 N   0  0  0  0  0  0  0  0  0  0  0  0
    6.0537    0.7060  -18.0588 N   0  0  0  0  0  0  0  0  0  0  0  0
    7.9739    1.8949  -17.7138 O   0  0  0  0  0  0  0  0  0  0  0  0
    8.1020    4.7061  -24.0855 Cl  0  0  0  0  0  0  0  0  0  0  0  0
    5.5961    0.2090  -24.1888 H   0  0  0  0  0  0  0  0  0  0  0  0
    7.6496   -0.9705  -23.4262 H   0  0  0  0  0  0  0  0  0  0  0  0
    4.0357    1.1969  -22.5217 H   0  0  0  0  0  0  0  0  0  0  0  0
    8.1421   -1.1688  -20.9982 H   0  0  0  0  0  0  0  0  0  0  0  0
    4.4985    0.9564  -20.0900 H   0  0  0  0  0  0  0  0  0  0  0  0
    8.3726    4.8345  -19.1917 H   0  0  0  0  0  0  0  0  0  0  0  0
    9.3126    5.0350  -21.4935 H   0  0  0  0  0  0  0  0  0  0  0  0
    5.4298    4.1411  -23.1607 H   0  0  0  0  0  0  0  0  0  0  0  0
    4.8916    7.3292  -16.4150 H   0  0  0  0  0  0  0  0  0  0  0  0
    6.5330    6.8961  -17.0020 H   0  0  0  0  0  0  0  0  0  0  0  0
    5.1097    6.6850  -18.0774 H   0  0  0  0  0  0  0  0  0  0  0  0
    6.1965   -1.3095  -18.6207 H   0  0  0  0  0  0  0  0  0  0  0  0
    7.7217   -0.3680  -18.7391 H   0  0  0  0  0  0  0  0  0  0  0  0
    4.9582    2.4881  -16.6107 H   0  0  0  0  0  0  0  0  0  0  0  0
    6.4529    2.8647  -15.6885 H   0  0  0  0  0  0  0  0  0  0  0  0
    5.6340    5.1525  -15.4701 H   0  0  0  0  0  0  0  0  0  0  0  0
    4.2108    4.9414  -16.5455 H   0  0  0  0  0  0  0  0  0  0  0  0
    7.1250    4.5062  -17.3684 H   0  0  0  0  0  0  0  0  0  0  0  0
    2.4350    3.2447  -19.0229 H   0  0  0  0  0  0  0  0  0  0  0  0
    3.4468    2.6469  -17.8892 H   0  0  0  0  0  0  0  0  0  0  0  0
    5.0727    0.6625  -17.8697 H   0  0  0  0  0  0  0  0  0  0  0  0
  1  2  1  0  0  0  0
  1  3  2  0  0  0  0
  2  4  2  0  0  0  0
  3  5  1  0  0  0  0
  4  9  1  0  0  0  0
  5  9  2  0  0  0  0
  6  7  2  0  0  0  0
  6 11  1  0  0  0  0
  7 12  1  0  0  0  0
  8 10  1  0  0  0  0
  8 12  2  0  0  0  0
  9 16  1  0  0  0  0
 10 11  2  0  0  0  0
 10 20  1  0  0  0  0
 11 21  1  0  0  0  0
 12 25  1  0  0  0  0
 13 20  2  0  0  0  0
 13 21  1  0  0  0  0
 13 22  1  0  0  0  0
 14 17  1  0  0  0  0
 14 23  1  0  0  0  0
 14 24  2  0  0  0  0
 15 18  1  0  0  0  0
 16 23  1  0  0  0  0
 17 19  1  0  0  0  0
 18 19  1  0  0  0  0
 19 21  1  0  0  0  0
  1 26  1  0  0  0  0
  2 27  1  0  0  0  0
  3 28  1  0  0  0  0
  4 29  1  0  0  0  0
  5 30  1  0  0  0  0
  6 31  1  0  0  0  0
  7 32  1  0  0  0  0
  8 33  1  0  0  0  0
 15 34  1  0  0  0  0
 15 35  1  0  0  0  0
 15 36  1  0  0  0  0
 16 37  1  0  0  0  0
 16 38  1  0  0  0  0
 17 39  1  0  0  0  0
 17 40  1  0  0  0  0
 18 41  1  0  0  0  0
 18 42  1  0  0  0  0
 19 43  1  0  0  0  0
 22 44  1  0  0  0  0
 22 45  1  0  0  0  0
 23 46  1  0  0  0  0
M  END
> <OMEGA_C>
et65QHBE+z1OEbnBGBffQJ5NC78anbXBhIKdQFpPLT9lhLHBOwXoQNm6J78AnarBJiOmQLytDT/i
gabBTrb3QNezlUAdbqDBeE4EQVNkmUD+1arBmTzCQFAiiUB5bLLB89fLQEjfyL1tAqPBdpmxQL9g
hUD1AqjBqSHMQHlpi0D9H5/BbPHtQHv+kkDD0bPBMcyJQHYWc0BSy5nBUMHYQMxb4D92B4zBNu6u
QH0e1EDFTojB203UQI+trr4lPJfBsFTAQIkTM0D5i4XB4O+oQLNppkDvFITBdlTCQHDvhUC244rB
6RCJQCnHdUA5T6TBa9WyQJJShEAYQpbBsP1NQGboXEAyf5PBMbjBQGO/ND9eeJDBLyr/QICL8j/G
tY3B0aEBQTiYlkAHr8DB3xKzQP/5VT7CgsHB3cn0QPVweL/VaLvBVySBQJAzmT9eLLTBLEYCQfGa
lb9n/KfBoPOPQAbVdD9FuKDBJ/YFQQK0mkC0iJnBWgAVQR0foUCW8qvBnMCtQNSDhEA2SbnBvIec
QHiI6kDXUYPBDg7RQNys3EAsBIjB54KjQJjr1UCdnpDBzUnGQKudp78Y95TBGRj3QLNovL696ZXB
RqmeQGk8H0DG4oTBi37OQKtWN0A1BHvBBkq0QO3gpECJhXfB376GQKkfnkA1XYTB5v/jQOYykEBi
8orBMdcbQEupT0DdLpjBw5hcQJ1mKUAMHY/B11OiQLaXKT8w9Y7BXKm4QCyaCz7pFrnBnOmcQPU9
Mz/CcbHBHv/dQNvhCL/HxLXBSDSmQJ8fFD8EeKbBGZXnQE37JL/EzarBOOz3QJ7NlEBicqDBdUAE
Qdj/mUD+16rBG97BQET5ikBqcLLB0PjLQOSapb2HGqPBq4SxQGTXhUDtCKjBbkrMQHW5ikBoJp/B
NoDtQGcwlUBs07PBKNGJQJqWckAc1pnBYwXZQDPH3j++54vBp1OvQCC500BOiIjB4f7UQEnTqb4y
XpfBHz3AQOhEMkAWgoXBUgWpQMkvpkCDNITBFV/CQERchUDY64rB4/aIQE63dkD3V6TBjP2yQCZ9
g0AGS5bBoOBNQD+NXECMjpPB2y/CQPJHMz+Sf5DBg3v/QHVp8T/hfY3BKRcBQVHvm0A8rcDBEE+x
QKXCXz6MgcHB1YGAQG3lnD99ALTBb0fzQKAYd7/2o7vB93yQQJszfT+ymqDBPxcCQT2/lL8MR6jB
AzUGQV6AmEATjZnBZvQUQRasoUAm86vBTDmtQAcih0AvTbnBgvecQPBq6kBtnYPBwX3RQBEc3EAD
OojBlgykQMVG1UAJ3JDBKYTHQCp7p79YIJXB1Nf3QOEdsL4nIZbB4JKeQPpDHkCx6YTBGhjOQNTz
NkAn4XrBPTy0QNDjpEBvvXfBEcuGQIQOnkC9gITBxxHkQMiHj0DP+orBuWwbQL+nUEC4P5jBattb
QM1BKEDuSY/B98WiQFKQJj/OBo/B6x7rQMj9M8CNsYDBvVQGQWGl/b+hPYTBDnjDQNyjM8BwFYbB
HkgDQR0Ak7/aLY3ByA29QKne+b/X5Y7BtAz4QGFwk0CfFaDBDaoEQRYIlkACearBPDXDQI4GhUC1
G7LBTJzeQONgj7+PdpLB4y2yQLVngkAHt6fBFEfMQLrbiUCY0Z7BQ+LuQHoZj0ApebPBGHWJQOYJ
c0A0hpnBeBnYQOr55z+hqYzBO3iuQJ4a1ED/J4jB+UPVQAAVwbzbZJrBVEq/QFUlMkBznYXBBrWo
QDCPpkBGwoPBH6rBQIkNhkBJm4rBgXKJQCYJcUD+CaTB6lqyQJvGhEBc+pXBfpJMQGg2X0CKOZPB
ZLHBQHAXiD8tPZTBZET/QG9s8T+U14zBOyICQREkk0DuUsDBJcfvQK8MXcC8rnPBY4AVQYAE/r+d
GoDBOACqQFtZXcCVc4PB+z8QQbNRB7+pApDBAHqeQCWE97/665LBmw0GQdi6mEB6LJnBPGoVQbFT
nUCyjqvBCQuvQH3CfkBM+7jBM22cQPjI6kCCKYPB9p3QQDai3ECcCIjBy3+iQLeB1UCgbJDB2wzz
QI0ypD6eMJ7BlQe/QJDcw774lKDBO62dQOSwHUDBFIXBq3DNQIRcM0AXHnvB5KC0QKxapUAF+HbB
uIKGQC06nkAG4IPBt3TjQBbpj0BwoYrBNCUbQNqMT0Al6pfBheNaQLTXLUB8dY7B8t2iQG2Yoz+F
hpXBnU26QJnHX8Aj25jBxITHQOdIRcDDH6PBUda5QLZYJcCgTJDBRO3SQDIg37+y9aTBh6XFQMYV
oL+wEZLBBjr3QLAilkCSsaDBkAQEQZfpl0CEIqvBDc3BQENbhUAZerLB2KfQQLupUL+kiZzBXzWx
QH2kg0BHBqjBBorLQDWajEB5QZ/ByT/tQBkNkEAGBbTBJGiJQLEgdkCipZnB+pvaQCRH8z8Lto3B
SxCsQO5C1UB/KYjBsRvZQO5mIT+u/p7BvLPCQIjBNUDUMIbB2zupQN9Qp0Bn1oPBgsbCQARtiEDe
/orB7emIQJ8kckA5KKTB7CyyQKzuh0AKSpbBaXVOQHreXkAZMJPBDnPFQJi9uj810pbBb14AQew0
1j9/TIzB7PYAQWXzk0CQ8cDBKn+wQNqekMADj5fBLt/IQGUFc8Dhl6nBoWuwQHAlOsA9Z4jBeWLd
QETatr/yzKzBgWPGQO2jDb91eYvBiMoFQcgCnEAZ3pnBGLkUQWFLn0C6WazBKn2tQK4bfUDVQbnB
3qSZQLbS6kDm8oLBWbzNQOJ/30CXUojBFdieQIta1kA4UJDBptT7QAp2Tz8cHp/BJnDLQDOdYT8Z
2qbBlIahQFCHH0AuOoXBsqfSQHyYNkC1sXzBIma2QP9npkDSW3fB3oGHQKhCnUCLq4PB/yLkQGWh
k0AeLYvBv8YdQOglS0A7wpfBAmdgQExsL0BST47Bl+CmQEwY3T/WzpfB

> <OMEGA_E>
gMjHPAB7zzxAexM/bEQXPw==

> <OMEGA_NBR>
     94361

$$$$
50164924
  -OEChem-04172616093D

 43 45  0     1  0  0  0  0  0999 V2000
    7.7442    4.6934  -20.0382 C   0  0  0  0  0  0  0  0  0  0  0  0
    8.2658    4.8245  -21.3400 C   0  0  0  0  0  0  0  0  0  0  0  0
    6.0731    4.2807  -22.2840 C   0  0  0  0  0  0  0  0  0  0  0  0
    5.5589    4.1509  -20.9819 C   0  0  0  0  0  0  0  0  0  0  0  0
    6.3864    4.3561  -19.8729 C   0  0  0  0  0  0  0  0  0  0  0  0
    7.4306    4.6215  -22.4612 C   0  0  0  0  0  0  0  0  0  0  0  0
    4.3145    3.7977  -19.2024 C   0  0  0  0  0  0  0  0  0  0  0  0
    6.7682    1.7452  -17.5143 C   0  0  0  0  0  0  0  0  0  0  0  0
    6.7619   -0.4363  -21.7986 C   0  0  0  0  0  0  0  0  0  0  0  0
    5.4017    0.2188  -21.4961 C   0  0  0  0  0  0  0  0  0  0  0  0
    6.6100    0.4982  -20.5959 C   0  0  0  0  0  0  0  0  0  0  0  0
    5.4322    6.6343  -17.0715 C   0  0  0  0  0  0  0  0  0  0  0  0
    6.0097    2.7897  -16.6870 C   0  0  0  0  0  0  0  0  0  0  0  0
    6.6367   -0.1277  -19.1933 C   0  0  0  0  0  0  0  0  0  0  0  0
    5.2943    5.2138  -16.4997 C   0  0  0  0  0  0  0  0  0  0  0  0
    6.0815    4.1865  -17.3459 C   0  0  2  0  0  0  0  0  0  0  0  0
    4.2955    3.8141  -20.5169 N   0  0  0  0  0  0  0  0  0  0  0  0
    5.5971    4.1368  -18.7641 N   0  0  0  0  0  0  0  0  0  0  0  0
    3.2222    3.4758  -18.4111 N   0  0  0  0  0  0  0  0  0  0  0  0
    6.0410    0.7837  -18.2094 N   0  0  0  0  0  0  0  0  0  0  0  0
    7.9799    1.8596  -17.6676 O   0  0  0  0  0  0  0  0  0  0  0  0
    8.0797    4.7929  -24.0709 Cl  0  0  0  0  0  0  0  0  0  0  0  0
    8.3774    4.8495  -19.1774 H   0  0  0  0  0  0  0  0  0  0  0  0
    9.3055    5.0805  -21.4813 H   0  0  0  0  0  0  0  0  0  0  0  0
    5.4349    4.1210  -23.1406 H   0  0  0  0  0  0  0  0  0  0  0  0
    6.8994   -1.5164  -21.6424 H   0  0  0  0  0  0  0  0  0  0  0  0
    7.3445   -0.1154  -22.6747 H   0  0  0  0  0  0  0  0  0  0  0  0
    5.0120    1.0084  -22.1554 H   0  0  0  0  0  0  0  0  0  0  0  0
    4.5668   -0.3927  -21.1231 H   0  0  0  0  0  0  0  0  0  0  0  0
    7.0681    1.4936  -20.6918 H   0  0  0  0  0  0  0  0  0  0  0  0
    4.8618    7.3382  -16.4476 H   0  0  0  0  0  0  0  0  0  0  0  0
    6.4928    6.9258  -17.0769 H   0  0  0  0  0  0  0  0  0  0  0  0
    5.0409    6.6553  -18.0993 H   0  0  0  0  0  0  0  0  0  0  0  0
    4.9558    2.4857  -16.6049 H   0  0  0  0  0  0  0  0  0  0  0  0
    6.4550    2.8437  -15.6826 H   0  0  0  0  0  0  0  0  0  0  0  0
    6.0666   -1.0683  -19.2062 H   0  0  0  0  0  0  0  0  0  0  0  0
    7.6791   -0.3346  -18.9096 H   0  0  0  0  0  0  0  0  0  0  0  0
    5.6829    5.2028  -15.4707 H   0  0  0  0  0  0  0  0  0  0  0  0
    4.2309    4.9322  -16.4931 H   0  0  0  0  0  0  0  0  0  0  0  0
    7.1364    4.4984  -17.3532 H   0  0  0  0  0  0  0  0  0  0  0  0
    2.4382    3.2638  -18.9947 H   0  0  0  0  0  0  0  0  0  0  0  0
    3.4424    2.6801  -17.8469 H   0  0  0  0  0  0  0  0  0  0  0  0
    5.0602    0.7099  -18.0289 H   0  0  0  0  0  0  0  0  0  0  0  0
  1  2  2  0  0  0  0
  1  5  1  0  0  0  0
  2  6  1  0  0  0  0
  3  4  1  0  0  0  0
  3  6  2  0  0  0  0
  4  5  2  0  0  0  0
  4 17  1  0  0  0  0
  5 18  1  0  0  0  0
  6 22  1  0  0  0  0
  7 17  2  0  0  0  0
  7 18  1  0  0  0  0
  7 19  1  0  0  0  0
  8 13  1  0  0  0  0
  8 20  1  0  0  0  0
  8 21  2  0  0  0  0
  9 10  1  0  0  0  0
  9 11  1  0  0  0  0
 10 11  1  0  0  0  0
 11 14  1  0  0  0  0
 12 15  1  0  0  0  0
 13 16  1  0  0  0  0
 14 20  1  0  0  0  0
 15 16  1  0  0  0  0
 16 18  1  0  0  0  0
  1 23  1  0  0  0  0
  2 24  1  0  0  0  0
  3 25  1  0  0  0  0
  9 26  1  0  0  0  0
  9 27  1  0  0  0  0
 10 28  1  0  0  0  0
 10 29  1  0  0  0  0
 11 30  1  0  0  0  0
 12 31  1  0  0  0  0
 12 32  1  0  0  0  0
 12 33  1  0  0  0  0
 13 34  1  0  0  0  0
 13 35  1  0  0  0  0
 14 36  1  0  0  0  0
 14 37  1  0  0  0  0
 15 38  1  0  0  0  0
 15 39  1  0  0  0  0
 16 40  1  0  0  0  0
 19 41  1  0  0  0  0
 19 42  1  0  0  0  0
 20 43  1  0  0  0  0
M  END
> <OMEGA_C>
StD3QA4wlkBSTqDBskAEQRdimkBruKrBb1bCQIb7iEC3RbLBIOKxQObThEDa2qfBFV3MQERli0DB
+57BlMftQJrjk0CIsLPBZBCKQA4Nc0BtnpnBIpXYQPph3z9jHYzBYGHYQOBe376GY67BjNqsQOgO
YD7096vBA4XTQO4P/z5TxKTBidStQOpL1EBdkojByU/AQMiJMkDufoXB21/UQBC4Ar7Ii5nBmmqp
QBfXpkBs/4PB7pvCQMD3hUBsxIrBBHWJQPIZdECwIqTBphuzQA1hhEDvHJbBEzhOQApzXkAGSpPB
NlDBQBCjSD/krJHBrlv/QCoG7j9CV43Bd0YBQQpfmUA9kcDBsgkGQdMum0BBa5nBOeMUQRCTokCf
2avBUuqtQJTfg0DaH7nB4MfcQJsZwr+iI63BiAbrQAhI7L3BZbXB92GgQF8SgT8+PrHBTyOSQPAK
yb4g/KjBqy3iQH4vvz++iKXBlJObQC3S6kDIlIPBXMXPQDyg3UB1nYjBDE+hQAL41EBfy5DBq5We
QPQUH0Dt1oTBaI/OQEb/NUDX63rBdCHCQM+9iL9RppnBkbv1QHtQq77HRpfBANq1QBB9pkAAiHfB
sGOHQNfUnUDq8YPBG13kQMzyj0BE04rBygscQGHiUEAR9ZfBr09cQEKGK0Byxo7BkO2hQKa+NT8d
O5DBdxb2QNp6lUAumqDBsqUDQS6xl0Bd/qrBZy3BQHQKhkBpkbLBDxSwQJxlhECyLqjBoXHKQIyB
i0CBUp/Bn/DsQFKsj0Bz9LPBynSHQNCfeEAY9ZnB0u/bQHcD0z+muozBYLWzQCDS1r69mK/BxBPi
QABwgTyFea3BFpHFQIDA6b50MKTBTGuuQNZg0UACKIjBkR68QEKWJ0D4NIfBzGy0QNy/Ez8gDJzB
ucepQKcmo0CW84PBFvrAQESOgkDoTYvBKxOHQB6Md0AbeKTBHg2xQMz1hED0fpbBCRlIQI6HaEC3
kJPB4l/PQNLQBT/ke5LBzCkBQag95z8oTYvBP04BQVaIkUAvy8DBngkFQVJZm0BMtZnBzVMUQa6F
n0DfHazB5watQP77f0AwbLnB2nibQOWsqD7fyrHB2DutQPLvrb9t4bPBNM78QImuHL+DObDBNgvr
QObDiT/1Iq7BecnMQGYhur9b86DBd5ydQL1950AjwILBl4XQQL/82UDsgIjBs2+gQLqX00CTNpDB
QkqbQEu9EUB504jB5AbCQK6NJkC8EH3BXrS1QMPxyj+fjJ/BwSqTQDPYqj4h7JnBBK23QL9MoUBL
wnfBIJeHQLrnmkDMloPBKEfjQGt1ikCVRIvB8F0VQI42XEByMZjBKedTQJIFNkD+4I7BLFPZQDnt
vr538I/B26b3QFBJlkBXWKDB+hAEQUZ9mkAdyarByP/BQAp0iEAhQLLBXbyxQFxXhECMzafBTT7M
QCp2i0C6857BWkztQIbWk0DXubPBVTOKQBTkcUBZgpnB1FnXQFfx5D/HHIzBVv65QBsc0L/nc6DB
ymHdQEQLrr/mx6jBg/vcQPyrGb/pOJ7B+nquQLK51EADdYjBcSTBQI1jNEBfFYXBJq3PQJI7Wj+G
dJ7BuEOpQKpWp0C/7oPB27/CQNqahkDOm4rBRoSJQCkhckD5B6TBRRCzQAbIhEBPBZbBKY5PQMeH
WkBCJpPBYIy+QEIjmj8OApTBk4n+QG4Z5T8BuozByuEAQXTumUBXoMDBuggGQZtOm0DgfJnBi6wU
QRrQokBL9KvB9YitQKTygkBYE7nBsQKZQOCgpb9ZAKLBamW5QCzfJMDNBZzBgRL2QO2wB8CNTqrB
yK/VQMWIVr8ZSbDBRG31QCszYr9QT5jBZQOcQC9j60ApjoPBbIDQQJK93UDCUIjBnauiQD6Q1UCN
vpDBh5efQAt5IUAk3IPBCH3RQH33N0D9mnrBDpTrQLvsvT/JQ6DBswC3QP9VgD+HnaTBsQG1QEzC
pkCeRnfB4iyHQPiUnkAaEYTBo13kQBcJkUBEt4rBWgoeQG1WSkDmy5fBMwFgQMSgKED7lI7BZLif
QM4rgj/veJLBDRj5QCv7lkACFKDBxfUEQSp3mkBrf6rBoWfEQBNwhkA7A7LBcMmzQPQUg0C1lafB
T8rNQEaii0DwuZ7BFYnvQBOHkkCwdLPB08uLQCyTcUAfUZnBaS3WQAie6z/OgozBsYfpQPrn0r+Q
8KHBUBPyQEZmr79gBJbBiSnIQCfCa7/fNJvBpL6qQLdW1UBxZ4jBeDfEQKRpOEDy34TB5d/BQGIS
ED+WH53BOvOoQMYIqEDKr4PBZMrDQGaMiEADZ4rBgJmLQJMWb0Ds1aPBn0a0QJLUhUDp0ZXBdfRS
QGfDWUDT8ZLB82K4QJkDlz/X2JLBwjn8QOpM8T/z6I7B0SICQV4KmEDcV8DBjpQGQcHwnEAONJnB
NoUVQfM3o0BOo6vBxlawQDmlf0CZ2bjBT4z7QDD4jL+OG6jBQnzjQIk8K8CDr6TBtRryQL28DMD0
OpDBYRUFQTDxH7//ppPBKG+rQPylv7+7D5nBh1uXQHYT60B2doPBAB3MQPGI4ECehYjBkA6eQKzh
1ECanJDBcWGjQGqeJkCKnYLBv1TYQJ9kO0BLU3vBIDbfQKHJfz9FgqDB4hWnQMQSOT+qr6LB8oy1
QKnBqECQ8XbBg36HQGQanUDEj4PB+ubkQMx7lEBRhIrBnFciQIbcRkCllJfBV4lkQEmZKUAmKI7B
k02aQFnijz8dKJDB6Wf1QPysmEC2r6LB3fUBQXdtm0DpTa3BKQ29QBrfhUBRxLPBuriuQII/g0De
JanBBMnKQBo+jEAywqDBZdTnQFbPkUBm0rXBNkeKQGjBckA9TprBLlTYQKwa+z82NovBzDSpQFCy
RT6c1ajBKjfZQOBfnz7qTqvBtRTKQBS6Eb/lAqLB5WfBQPlRyUD0jX3BNtXAQODRSUD114XBINHU
QECZFr6QXZbBuf2qQCj+tEBWW4jB6SDEQOUWjkBmvozBylSHQOZScEDhx6TBXrWzQBb5hUA3mJfB
zn9SQOv1XkC4SpPB4kXEQMNZlz/lF5PBsD39QN6O3D8wg4jBZi/6QGhslEBh9MLBh0wFQaD6n0Aw
HJzBr0ASQdHhpEDS8q7BwZCnQHenfUAPTbrBE9OXQGRGhj82a6XB8QaUQGFGtr5eUq7BhmfmQBbl
G75rk7LBqTPqQFlboD9DrKnBvJPLQD57078wgqPBWY2uQJLA5ECU1HfBQ2bEQIWPsUDAp3DBInDh
QE1M1EBmLoHBKuKeQLApOUAyz4TBKlXPQFgRVkDc8XvB2TbHQEKaZr+47pDBcNn3QPzCCL7Ig5XB
cPGKQFVRqkC94YXBUPunQB0OzUBDvI7BExjmQFsXl0DvQ43BP1AeQJ69TkCkdJfBgRtkQJj6LUAS
o47BK+SpQN+XxD8poZbBCuv0QFp9oUBlhKHBfi8CQd06o0AZFazBrl3BQGf4g0AxmbLBTtGxQMIL
g0DaC6jBEKfLQFoMkUCTnZ/BpsjqQKAjlEAambTBriqMQOPXdECVUZnB7PXXQJTw5T9OiI3BboIF
Qag+Ob/v3qPBKNLwQJjptb6gya3BGBDsQAA17z5qgKPBWu+mQMwA10CHnYnBAGHJQKiCPECw+4XB
Iu/CQEgyij5d+5zBMomsQFK6qkChUYTB+OjGQPNzi0DLYYvB3OOKQATga0AJx6PBKrO0QNpViUCj
bZbBCzdXQKzuXED4YpLBhLS7QEwvrj8vbJXBevP4QIx3lj/5pIvBNHn+QOOSlUBVpMHBDDkEQY+d
rEAg9JrBZuYRQUAbsEDxra3BJdCtQFDYcECLHLnBt80BQRQ10r8hZp/BlOMWQZjuDL9OxKPB2mEA
QYcYqD1Hz7TB/JfWQEA8gb8acbDBvFD6QNeKvD/RdqPBWB6UQEDg60DuUITBFo/GQNlp5UCgA4vB
UiSWQGVF00D4SpHBAGepQOOCLEA65YLBxSngQKVEQEBnlX7BSp2nQIfNXj7gg6LBQ2PFQDZ/LL+u
gJjBiyG9QPzrrkA9QnnBx7aMQIjHnEB26ILBBLrnQCcDmECg54vBHKomQFkaREAEk5bBCEVtQG0y
MUDQPI3BjL2fQOvN6z9l9pXB

> <OMEGA_E>
eLpFPtB5hj5A1LU+JFTPPlQ+8z6MGAI/

> <OMEGA_NBR>
     99210

$$$$
50164963
  -OEChem-04172616093D

 42 43  0     1  0  0  0  0  0999 V2000
    7.7392    4.7184  -19.9814 C   0  0  0  0  0  0  0  0  0  0  0  0
    8.3027    4.7300  -21.2707 C   0  0  0  0  0  0  0  0  0  0  0  0
    6.1600    4.0202  -22.2227 C   0  0  0  0  0  0  0  0  0  0  0  0
    5.5985    4.0290  -20.9341 C   0  0  0  0  0  0  0  0  0  0  0  0
    6.3889    4.3495  -19.8273 C   0  0  0  0  0  0  0  0  0  0  0  0
    7.5186    4.3661  -22.3876 C   0  0  0  0  0  0  0  0  0  0  0  0
    4.3073    3.8212  -19.1645 C   0  0  0  0  0  0  0  0  0  0  0  0
    6.7970    1.7298  -17.5998 C   0  0  0  0  0  0  0  0  0  0  0  0
    5.2984    6.6054  -17.0889 C   0  0  0  0  0  0  0  0  0  0  0  0
    7.4716   -0.7839  -19.7111 C   0  0  0  0  0  0  0  0  0  0  0  0
    5.4299    0.2310  -20.7597 C   0  0  0  0  0  0  0  0  0  0  0  0
    6.0198    2.7363  -16.7133 C   0  0  0  0  0  0  0  0  0  0  0  0
    5.2865    5.1959  -16.4559 C   0  0  0  0  0  0  0  0  0  0  0  0
    6.0750    4.1748  -17.3146 C   0  0  2  0  0  0  0  0  0  0  0  0
    6.6158    0.4927  -19.8113 C   0  0  0  0  0  0  0  0  0  0  0  0
    4.3175    3.7451  -20.4770 N   0  0  0  0  0  0  0  0  0  0  0  0
    5.5879    4.1609  -18.7258 N   0  0  0  0  0  0  0  0  0  0  0  0
    3.1976    3.5740  -18.3700 N   0  0  0  0  0  0  0  0  0  0  0  0
    6.0863    0.9238  -18.4952 N   0  0  0  0  0  0  0  0  0  0  0  0
    8.0135    1.8464  -17.6985 O   0  0  0  0  0  0  0  0  0  0  0  0
    8.2344    4.3423  -23.9769 Cl  0  0  0  0  0  0  0  0  0  0  0  0
    8.3342    4.9887  -19.1216 H   0  0  0  0  0  0  0  0  0  0  0  0
    9.3349    5.0172  -21.4062 H   0  0  0  0  0  0  0  0  0  0  0  0
    5.5579    3.7515  -23.0781 H   0  0  0  0  0  0  0  0  0  0  0  0
    4.7301    7.2989  -16.4515 H   0  0  0  0  0  0  0  0  0  0  0  0
    6.3365    6.9579  -17.1794 H   0  0  0  0  0  0  0  0  0  0  0  0
    4.8372    6.5631  -18.0866 H   0  0  0  0  0  0  0  0  0  0  0  0
    8.3207   -0.6046  -19.0353 H   0  0  0  0  0  0  0  0  0  0  0  0
    6.8572   -1.6070  -19.3175 H   0  0  0  0  0  0  0  0  0  0  0  0
    7.8479   -1.0521  -20.7094 H   0  0  0  0  0  0  0  0  0  0  0  0
    4.8137    1.1390  -20.8363 H   0  0  0  0  0  0  0  0  0  0  0  0
    5.8100   -0.0391  -21.7560 H   0  0  0  0  0  0  0  0  0  0  0  0
    4.8193   -0.5940  -20.3642 H   0  0  0  0  0  0  0  0  0  0  0  0
    4.9696    2.4165  -16.6429 H   0  0  0  0  0  0  0  0  0  0  0  0
    6.4671    2.7497  -15.7084 H   0  0  0  0  0  0  0  0  0  0  0  0
    5.7439    5.2499  -15.4570 H   0  0  0  0  0  0  0  0  0  0  0  0
    4.2447    4.8551  -16.3642 H   0  0  0  0  0  0  0  0  0  0  0  0
    7.1291    4.4894  -17.3181 H   0  0  0  0  0  0  0  0  0  0  0  0
    7.2340    1.2970  -20.2365 H   0  0  0  0  0  0  0  0  0  0  0  0
    2.4193    3.3323  -18.9496 H   0  0  0  0  0  0  0  0  0  0  0  0
    3.3960    2.8179  -17.7464 H   0  0  0  0  0  0  0  0  0  0  0  0
    5.1699    0.6213  -18.2330 H   0  0  0  0  0  0  0  0  0  0  0  0
  1  2  2  0  0  0  0
  1  5  1  0  0  0  0
  2  6  1  0  0  0  0
  3  4  1  0  0  0  0
  3  6  2  0  0  0  0
  4  5  2  0  0  0  0
  4 16  1  0  0  0  0
  5 17  1  0  0  0  0
  6 21  1  0  0  0  0
  7 16  2  0  0  0  0
  7 17  1  0  0  0  0
  7 18  1  0  0  0  0
  8 12  1  0  0  0  0
  8 19  1  0  0  0  0
  8 20  2  0  0  0  0
  9 13  1  0  0  0  0
 10 15  1  0  0  0  0
 11 15  1  0  0  0  0
 12 14  1  0  0  0  0
 13 14  1  0  0  0  0
 14 17  1  0  0  0  0
 15 19  1  0  0  0  0
  1 22  1  0  0  0  0
  2 23  1  0  0  0  0
  3 24  1  0  0  0  0
  9 25  1  0  0  0  0
  9 26  1  0  0  0  0
  9 27  1  0  0  0  0
 10 28  1  0  0  0  0
 10 29  1  0  0  0  0
 10 30  1  0  0  0  0
 11 31  1  0  0  0  0
 11 32  1  0  0  0  0
 11 33  1  0  0  0  0
 12 34  1  0  0  0  0
 12 35  1  0  0  0  0
 13 36  1  0  0  0  0
 13 37  1  0  0  0  0
 14 38  1  0  0  0  0
 15 39  1  0  0  0  0
 18 40  1  0  0  0  0
 18 41  1  0  0  0  0
 19 42  1  0  0  0  0
M  END
> <OMEGA_C>
Tqf3QML8lkD42Z/By9cEQQ5cl0BhKqrBmx7FQHOlgEApyLHBDSezQHjtgED0eKfBQnLMQPoui0Ba
np7BJpjwQOG2i0DlGbPBPdWJQE+OdEDxUJnBrIDZQE1r3T93zIzBboypQLhf00D4tYjBFhfvQCCr
SL9ssJ3BqMGtQLCQbD70E6bBGaLAQHcfL0DNtIXBSSupQHhEpkCqpYPBq2bCQNyXhUBchIrByrTT
QGhA/D6EfZ7BKymKQFqwb0Dp0KPBy8+yQN4lhUBZzpXBsKRMQLi7ZEDb9ZLBLMPCQPB6bD8q9pPB
WjcAQc5W7D+Klo3B9r8DQbfzikDD0L/B6FgFQWCjn0Aa+ZjB4FsVQSCNoEDhP6vBZtqxQGUYcEAC
oLjBTF2XQLuQ6UDAnIPBW8TKQMCm3kBhb4nBeMqaQMgE0kBhsZDBoyEFQfXGGr82SJjBR27bQFyz
zb9CiprBESL7QA+rhr/ArKXBywmaQAPLkT/IsKbBjOu5QN0cIL1QDK7BwjeaQGgSGL/S6aLBSgef
QK+oGkC3JIXBgPLOQPj6L0C5VXvBOs63QAb/p0CuT3fBV9SHQA5dm0DX6YLBaCHkQBmpj0CSi4rB
U33nQHMEpj9x5KHBEtUaQB5FVUDFmJfBL1hZQPtXNECc+I3BEnClQO8MHz833ZHBV1f3QNBZm0As
GaDBvbMEQYlNm0DzZqrB+IDFQAwNgkCE5rHBFYSzQMeYgkCTl6fBQ5XMQPMfjkCPzZ7BpbrwQC0C
jkBwQ7PB0O+KQFDddECEWZnByjjZQFjb4T89Q43BKn2nQNUI1UDSAInBW++2QMz1GT//0qXB/Q74
QNB35b7oj53BmVLDQJBVNEDz5oXBfIWpQIIgqEDy1oPBd57DQOwliEDKv4rBVsDIQEB8jL3+rpvB
pQ6LQLJ4b0DU2KPBFYWzQG0lh0Al9JXBPjFQQAgTYkBR4pLBDbe/QOgcRj/+CpLBfwUAQUBo6D+Y
j47BifsDQWjzi0AO7b/BvAAFQX1kpUAWRpnBGxEVQdhtpUCyiavBenKyQMUocUBOtbjBBcOUQHOY
6kDT24PBDBzIQJ684UC57InByCeYQEW60kBD55DBQTqVQJDLXz+fiKTBx5nJQH7qwD8SmqfBAD65
QMl4yL2yl6zBzn0CQXeUbb81VZbBB0X6QJCtkr+9V6TBZ1AFQeoR6z4eWp/BXOihQIDdIEACloTB
Z1TUQCTCNUAkZnzBeLS4QJLWqkDZ23fBNMCIQDjUm0B36ILBDAXlQM8/k0A03IrBOB63QCeNgb/7
qprBY8oeQIj9T0CkcJfBF5ZfQH6kMkCf3o3BmYOjQLmaGz/VgI7Bm7X3QHRJl0AbkaHB+KMDQehs
mkCDFqzBxXfAQKJ6h0CQDrPBECmxQMMohEBWhajBCpDMQEUajEBb65/BuK/rQAaakkAI0bTBA3iL
QHYgckCX6pnB+/7WQIvD+D8kv4vB9xm7QNs0vUB6QnfBiJXnQGBaED7MXqDBHzfUQADVlr9Nro/B
da3DQL0XRkByP4XBvieqQBufsUCjuobBY2vEQH4ZjUD10IvBq9zFQGCErb2nhZfBsHSJQBI+cUBq
a6TBRm20QLo2hkAi4ZbBTU1UQFTlWkBqKpPBFOC6QMtikT/9hJHB9eT9QMn58D+O8IzBgD7/QP9y
lkC61MHBjUUGQRpenUDM15rBcyoUQeLQokCQfq3BomKrQOmUgUAPvrnB+7SnQH9F10CDfHDBRDC5
QKoGoUC7wWzBg53cQBanx0C8jnjBHWrcQH6RbT/22KXBnQQDQQbd5T5EtZzBvlXsQOgiS7+626TB
XZi7QEJqqL8BfYnBcdLYQCXbB8A5C5TB7IXyQChbYb/D5IvBQmSiQP5SNkAcLIPBumPWQMf0TkAJ
wXvB6pmIQF5gp0BMA4bBKQesQMkAzkDN6YvBIOTlQE3Ul0DESYzBPp6oQPqZ5L46eZvBdoUhQBal
SUABiJfBtq9mQGS9KUBHlo7BUCKcQATqtD92l5HBbsr0QH0Sn0AhZKHBP6oCQbaTn0AS2qvB8fzA
QDzJhEA9wLLBR5ewQG6IhEAuSajB63LKQB4okUDKu5/BEY7rQFQukkCfgbTBkFeKQFsddkCnspnB
dnLeQHCQ6D8GUY7BsyWrQMYz1kAyuojBlbLBQPTcZL/9EZrBoV7XQAjGwj50gqrBYkLFQLKFNUD0
QYfBgxSsQJgsqECgO4TBiQPFQMRJiUATsYvBF5rdQBiegT6uTZ7B9iuJQEEpcED0LqTBadWyQByZ
iUBBq5bBtxtSQFzOXkC68pLBd93QQKRgvz9AtpjB9Xb5QMIajz+v7onBy0MAQSoCkkBda8HBiiQE
QZk2qUD8uJrB0twSQe8zqkBXRK3B9TitQKKpdUAZY7nBbT2ZQCQM60BrOoPBaBXMQKss4kCDjYnB
wHWbQMgr1kDnmpDBihDGQLXJfL/NXpHB7OCfQAO9Lr931JvBGCXLQDjJ6r+m+p3BuFPrQFrVmT/g
ka3BgszgQA6YD7+fZ67BV4i1QF49Fz9wQazBV+yjQKN6H0C4oYbB6+TTQCR7NkCmgn7BN6S7QDOT
qEArrnjBjgSLQFGSnEB6ZIPBPWLmQCJilEDpE4zBCmj/QKlX6zyzoZzB4PYgQNUhSUBdTJfB4ARm
QBXIMEA6+o3BT6O9QNfECED0hZzBv8D2QBQBmEBeuJ/BXNMEQWSIl0D67KnBvkrFQKCfgUCN1LHB
YYayQNRogkC+nafBhl7LQEmMjECGr57B6R/xQD6wi0Cu8LLB3cqIQAnNdEA7kZnB5iTIQB5csD+V
wozB/HmtQAzr0UA6mIjBooOyQHgx0D7ApanBV/TrQExPNr/U057BmCG7QEAPKUBH/IXBMsWqQGRy
pEBKx4PBx4zBQJxGgkA114rBR8DBQIBXpj0uNZ7BvWSJQPKucUA8FKTBzK+xQPH1hECJ/JXBfFlL
QKyZYUA0NpPB7/PGQMoXqz9f+pfBTS3LQEipoz7g34fBErAEQeCziEDtd7/BFp4EQQUFoUCuxpjB
onEVQQE4oEDZ3qrBWGGyQFTOckCDw7jBru+cQK6n6EDaTIPBzD/PQD9P20AWZYnBOi2eQO0n0kAJ
hZDBrmGUQDQreT9aRqnBDv3KQEYMgT9iwK3BJ0+tQEOTB7+RFK7BHQz3QK3Kcr9KsZbBWaLmQBS0
0r80SKPBICgCQbvi3b0E9KLBJOOYQPyNIkAlHoTBM8/NQCqsJkClEH3B5O65QHa9pECbrHfBUtyI
QCSWm0BA9oLB+gnkQItPiUA8yIrBRnapQInJDL9XU5rBkPEZQNQSUUDH25fB5eZZQK76MECGVo7B
RcDJQJWgDEDC/ZvBp5j3QKEolUDTIKDBphMEQbBdnECuearBVbHBQJ7xjUCdQLLBgFexQDzQhkDe
6KfBCgPMQOBlikCH8Z7BET/tQAbFmEA8hrPB+BSJQGomckAh3ZnBx7/VQOxzzD+9y4rBioywQJcZ
0kD/rIjBHM4aQUdZlz9115XBYJ0fQT3Y6j0olIPBv3G6QC4yK0BSXoXBQ1ipQB3spEANEoTBuN/A
QBoFgkAJsorBvmAPQdHZBT+tRIzB/ZuIQCkmeEA8XKTBaGyyQBSugUBYLJbBuVZLQOHzXUBUqJPB
eAgAQVV8uz/IiIfBJN/GQNzEbD+CH5LBr/MAQXC0oUDMUMDByAYGQXfZl0BsMpnBJrsUQV6mpEAg
fKvBTRatQG0ni0BRJ7nBiWCfQDmx6UALwYPBpPbSQBZ+2UADoYjBzXSkQPRc00Aj75DBHOwOQbR5
uz+E7ZvBI1ojQZ0xBUA1G5PBBk0mQUuy8T4+UpnBTxwXQbuatL5Xr3nBUyMrQd8NGr8/9IbBcDAo
QbfvgD82vYDBaISYQP0VGUAM+4XBDpjDQBGCL0CtxnnB4li1QHsXpEDamXfBC9eGQFr2nUAOG4TB
M0njQO5jiUB9g4rBnfEGQSTAwL75E4/BbI8YQELqVEDmZJjBCg1XQJ1vKECGhY/BAyUFQb4qA0Ct
kYHBH6P2QOtOl0BTIqHBh2MDQYbtm0BMkKvB7BrAQOXXikDD7bLBwiSwQOdZhkC3fqjBSTHLQMuh
jEDAwJ/B2n7rQHrTlUC2cLTByDSJQB8bdUD9JJrBApTcQJXyDkC7in/B9yexQMr/zkDl24fBGvYD
QcpzgEB1l1zBf3PGQMfvV0CkekfBGX7AQF2wIUCYNInB/MqsQGoqoEB9L4TBuPfDQFv+gEBtCYzB
PzzmQNLYOUC2zFjBw9WHQPAQd0D8o6TBjqWyQO3rhEAa55bBtBVOQNTbXkC2mJPB9szMQPzrKECh
72vBnOsAQcIA8j+DKYHB23v/QCcRnECeWMHBXZsFQerem0BmSZrByf4TQXchpEDfyazBmWOrQL3x
hUA0vLnBpoOgQNMO5EBpKoLBnznTQCnA10C9MIjBTdqiQLGl0kAK2Y/BGVwPQWzoa0CQ7mjB7cT3
QIzXnUA98GHBV5sMQeLQhkBhmE3BMWauQMXBJUB+sUTB7d3XQN+9ZEDhhTjBK2y2QJlliUC93UzB
kOLKQNf79T8WFZDBrRufQPf6EUBOOYfB6gS7QKPVnEDeW3jBmKWKQCy7l0A81oPBhBnmQBqWiUC/
JozBWWn2QAhu/j+eXlPBdSsbQL/FUEDPHJjBmfhdQBvfK0AXMI/BrSKtQNDVMEARv2rBHwD5QJb2
h0B6AKHBPYcEQUSkkUBzRavBcCrAQC1PkkCTdbLB2U+wQOzEiEDmMKjB6m/MQOa9g0CxjJ/BI6/s
QFTblkDw+7PBg0qIQLWkdUCzHprBnoO8QIVagj/6IJDBgjnEQJ/XjUCjonDBK93EQC7Q/7+A1pbB
94D6QKU28L7NT6DBbiG0QNviB0BT1YfBrAO0QKDQlECF2YPBMe/CQM4MYkAcrIvB9gfqQGRnfb/Z
a5XBDOKGQG7TgkC9caTBYgOzQHaGdUD4xJbBhFpJQHFOZUBqzZPBlPXdQJ4ZAj5vTo7Bvl2mQDBZ
cz89N5jBQFsAQT8Jo0Anq8DB9EkHQQrWg0ACVZrBa40VQQITlUCMeqzBAXOqQJodlkDcHLnB4Ly4
QKv+p0CjWWbBbRO4QPREXkDeimrB/mvnQK5qjUCoknDBnge6QBggFsBs8I7BYCaqQHMPwb8MBJvB
EgHQQFruNsB1kZvBgWcKQbR0eD56+57BkBEDQWFNqL8XIaXBbkjgQPf7Dz2uk6TBZZSRQPRHCkCR
LYbBoHjFQLOo7z9hcYDBjdKQQHZylUD4voPBHivAQKm6s0DewobBVSHmQPpaYkBFzYvBhk4CQTpU
xL92opHBio0UQFetZ0BJUJjBVq5OQBcpK0DfhpDBzzHvQOjAgT5kpIfBOxL5QCdfhEDRfqHBJVAE
QQFIkkD5favBHzu/QLWumEBbKrLBLvCvQL/WikDQMajBM4PMQDVAgUDU7Z/Bsa3rQJXQnEA1xrPB
SYSIQJpxdEC6Q5rBFGOwQBTAgz+8m47B79/SQJ/ilUBsmXXBxS0GQZh7pL+X+pHB42jPQKRhi79+
K5/BmoeuQNw8DkDABIfBpjm8QNvql0BGpYXB6b/DQJrgXUCHP4zB0aXrQAD1pb5hApfBKqqGQKs4
hUBeYaTBK3GzQJ7+bUBjPpfBbrdJQGoNZUCz7ZPBeWbUQCCddz7p5Y3Bja+WQAgDaz/v95XBKcX+
QBeDr0D/A8DBXnwHQSlzeEAlIZvBEFYVQZPklEA006zB0yWpQA4aoEAmjLjBTMTMQKWas0D6rGzB
S6HGQHzpdECLbGzBCYP1QMofkkCIG3jBBCUQQae2PL8TM4zBQl77QMFKBsD52I3BBmkQQdKQ2r+C
SpjBbhS4QCkby77GvaLB78jjQEZtwb9EgKXBJFW+QPVx87+7DpvByOaMQMveHECZK4XBkJy/QH6T
/D+JLH/BdKiZQE/dm0AuT4TBMYrIQFuIs0CtJorBfG/mQCBXUkDbp4zBbfj8QDA38j7OQJvBjJ0U
QIVebUB9RZjBq65LQNvxKEAyMZHBIJXfQGnwIz0NlIbB8Z73QHTnlUA2JqDBeBQEQVbUnEA4gqrB
QNfBQFCLjUCuQ7LB3IKxQCCwhkCu6KfBgBvMQJDoikDM8p7BNE7tQMSymEBQjbPB+1KJQDZMckBo
1pnBz83VQBPCyz80m4rBN1ywQEaL0kAGtojB9x79QOwtqL8m44rBYzAYQfm89T5x4pHBR6a6QKI9
LEDnXIXBAp6pQHBfpUDPD4TBlTbBQIyJgkDxsYrBIo0KQaDQcjnqUIjBON+IQOded0BcV6TB7ZOy
QPZSgkChKZbBT/9LQIiuXUC4npPBKnn3QK8Vhz8br4TBrW3OQAW2nj/R1JPBmPUAQexroUAFW8DB
yQQGQWL8mECFOJnB37QUQWxOpUBEiKvBVkqtQDdMikDRKbnBfCWfQNYQ6kADx4PBH7jSQDMx2kBK
uojBOgmkQPSe00Ac85DBfCHqQGeGz7/T5YPBeb3nQEa6k7+TwpHBxTcKQfR5BsAE1ozBsG8gQcIB
tT86vo/BHRgkQfx5lL6l5pPBFb8NQUU2KD8005jBm7CYQLN8GkAKBobBFYzDQLD8MEAfvXnBsdi1
QHu8pEB2n3fBzCmHQDsqnkCMCITBSqHjQEnjiUARhYrBHaoVQSwjX74duIHBTGsZQESOU0AOW5jB
vlxYQI6vKEDfaI/BRfL7QBOEtT9hoHrB

> <OMEGA_E>
qK7JPgQ+wz48zhM/XPcUPwqxHT8AVko/+ndkP8ZjYT9GcWA/pHVMPw==

> <OMEGA_NBR>
    106997

$$$$
50164958
  -OEChem-04172616093D

 48 49  0     1  0  0  0  0  0999 V2000
    7.7719    4.4864  -19.7606 C   0  0  0  0  0  0  0  0  0  0  0  0
    8.3918    4.6074  -21.0220 C   0  0  0  0  0  0  0  0  0  0  0  0
    6.2502    4.1960  -22.1253 C   0  0  0  0  0  0  0  0  0  0  0  0
    5.6367    4.0816  -20.8655 C   0  0  0  0  0  0  0  0  0  0  0  0
    6.3895    4.2045  -19.6894 C   0  0  0  0  0  0  0  0  0  0  0  0
    7.6345    4.4459  -22.2029 C   0  0  0  0  0  0  0  0  0  0  0  0
    4.2421    3.7243  -19.2053 C   0  0  0  0  0  0  0  0  0  0  0  0
    6.9927    1.8160  -17.6448 C   0  0  0  0  0  0  0  0  0  0  0  0
    6.4038    7.7995  -16.7950 C   0  0  0  0  0  0  0  0  0  0  0  0
    4.2166    6.5675  -16.7198 C   0  0  0  0  0  0  0  0  0  0  0  0
    6.5292   -1.2593  -18.6648 C   0  0  0  0  0  0  0  0  0  0  0  0
    5.1265    0.0635  -20.3145 C   0  0  0  0  0  0  0  0  0  0  0  0
    6.5499    2.7856  -16.5743 C   0  0  0  0  0  0  0  0  0  0  0  0
    6.4316    5.3056  -16.7302 C   0  0  0  0  0  0  0  0  0  0  0  0
    5.6648    6.5395  -17.2536 C   0  0  0  0  0  0  0  0  0  0  0  0
    5.7611    3.9911  -17.1534 C   0  0  1  0  0  0  0  0  0  0  0  0
    6.3073    0.1025  -19.3311 C   0  0  0  0  0  0  0  0  0  0  0  0
    4.3248    3.8095  -20.5127 N   0  0  0  0  0  0  0  0  0  0  0  0
    5.4952    3.9692  -18.6467 N   0  0  0  0  0  0  0  0  0  0  0  0
    3.0807    3.4318  -18.5060 N   0  0  0  0  0  0  0  0  0  0  0  0
    6.0184    1.0651  -18.2790 N   0  0  0  0  0  0  0  0  0  0  0  0
    8.1660    1.7927  -17.9987 O   0  0  0  0  0  0  0  0  0  0  0  0
    8.4145    4.5243  -23.7625 Cl  0  0  0  0  0  0  0  0  0  0  0  0
    8.3497    4.6084  -18.8563 H   0  0  0  0  0  0  0  0  0  0  0  0
    9.4480    4.8241  -21.0847 H   0  0  0  0  0  0  0  0  0  0  0  0
    5.6646    4.0931  -23.0269 H   0  0  0  0  0  0  0  0  0  0  0  0
    7.4356    7.7790  -17.1756 H   0  0  0  0  0  0  0  0  0  0  0  0
    5.8872    8.6893  -17.1840 H   0  0  0  0  0  0  0  0  0  0  0  0
    6.4192    7.8357  -15.6957 H   0  0  0  0  0  0  0  0  0  0  0  0
    3.6862    5.6620  -17.0496 H   0  0  0  0  0  0  0  0  0  0  0  0
    4.2318    6.6036  -15.6205 H   0  0  0  0  0  0  0  0  0  0  0  0
    3.6998    7.4572  -17.1088 H   0  0  0  0  0  0  0  0  0  0  0  0
    7.3794   -1.1939  -17.9699 H   0  0  0  0  0  0  0  0  0  0  0  0
    5.6240   -1.5479  -18.1104 H   0  0  0  0  0  0  0  0  0  0  0  0
    6.7432   -2.0141  -19.4358 H   0  0  0  0  0  0  0  0  0  0  0  0
    4.9971    1.0552  -20.7725 H   0  0  0  0  0  0  0  0  0  0  0  0
    5.3281   -0.6796  -21.1001 H   0  0  0  0  0  0  0  0  0  0  0  0
    4.2089   -0.2134  -19.7746 H   0  0  0  0  0  0  0  0  0  0  0  0
    5.9051    2.2524  -15.8602 H   0  0  0  0  0  0  0  0  0  0  0  0
    7.4404    3.1650  -16.0517 H   0  0  0  0  0  0  0  0  0  0  0  0
    7.4557    5.3272  -17.1312 H   0  0  0  0  0  0  0  0  0  0  0  0
    6.4670    5.3488  -15.6316 H   0  0  0  0  0  0  0  0  0  0  0  0
    5.6432    6.5107  -18.3530 H   0  0  0  0  0  0  0  0  0  0  0  0
    4.7772    3.9754  -16.6617 H   0  0  0  0  0  0  0  0  0  0  0  0
    7.2191    0.3929  -19.8736 H   0  0  0  0  0  0  0  0  0  0  0  0
    2.3277    3.2984  -19.1504 H   0  0  0  0  0  0  0  0  0  0  0  0
    3.2145    2.5968  -17.9723 H   0  0  0  0  0  0  0  0  0  0  0  0
    5.0664    1.1906  -17.9996 H   0  0  0  0  0  0  0  0  0  0  0  0
  1  2  2  0  0  0  0
  1  5  1  0  0  0  0
  2  6  1  0  0  0  0
  3  4  1  0  0  0  0
  3  6  2  0  0  0  0
  4  5  2  0  0  0  0
  4 18  1  0  0  0  0
  5 19  1  0  0  0  0
  6 23  1  0  0  0  0
  7 18  2  0  0  0  0
  7 19  1  0  0  0  0
  7 20  1  0  0  0  0
  8 13  1  0  0  0  0
  8 21  1  0  0  0  0
  8 22  2  0  0  0  0
  9 15  1  0  0  0  0
 10 15  1  0  0  0  0
 11 17  1  0  0  0  0
 12 17  1  0  0  0  0
 13 16  1  0  0  0  0
 14 15  1  0  0  0  0
 14 16  1  0  0  0  0
 16 19  1  0  0  0  0
 17 21  1  0  0  0  0
  1 24  1  0  0  0  0
  2 25  1  0  0  0  0
  3 26  1  0  0  0  0
  9 27  1  0  0  0  0
  9 28  1  0  0  0  0
  9 29  1  0  0  0  0
 10 30  1  0  0  0  0
 10 31  1  0  0  0  0
 10 32  1  0  0  0  0
 11 33  1  0  0  0  0
 11 34  1  0  0  0  0
 11 35  1  0  0  0  0
 12 36  1  0  0  0  0
 12 37  1  0  0  0  0
 12 38  1  0  0  0  0
 13 39  1  0  0  0  0
 13 40  1  0  0  0  0
 14 41  1  0  0  0  0
 14 42  1  0  0  0  0
 15 43  1  0  0  0  0
 16 44  1  0  0  0  0
 17 45  1  0  0  0  0
 20 46  1  0  0  0  0
 20 47  1  0  0  0  0
 21 48  1  0  0  0  0
M  END
> <OMEGA_C>
cbP4QNCQj0CuFZ7BvkQGQe5vk0D7LKjBqQHIQKZFhkCzALHB4V+0QFWcgkCC7KbB2nbMQD6LhkDo
g53BfU30QKhEjkCIn7HBFb+HQB9abkBypJnBjMTfQLNx6D+QKI3Bm+vMQCyV+UAoXIbBm+6GQCEp
0kAqwoXBSe/QQGYwob+BUZXBCQykQMD3gT0YhKLB65jRQM5HMkARmITB9s/NQD7HqUBz14XBH0a1
QIxD0UBJB4rB9lq4QHBuf0AmOonBpNXJQKD10T0wpprBrGSKQFfOc0AbGqTBitivQI8HfkB+LJXB
VSpFQGOiW0BSDJTBoJbAQHNViD9ZO5LB+KcCQQt45T9G/Y/BpKEGQR7HkECbGb7BYZgFQfR3k0DF
2ZbB4CoXQc9emkBlrajBhkS1QKP6gkAxN7jBjfDtQFrt+EChZ4nBDmS8QIkHC0HBeInBNWrNQOu9
+kCaIXvBN+prQIIvtUCAZYjBzGqHQIJQ00CU7XnBSslsQKqh7kC+3ojBLCTsQF3RmL9ewo/BK/iz
QGQhxr8N4pDBZcjXQAHnAMCLfJvBWOifQG0Phz8qLqbBxH+qQFP9Lb/3zKjBiq+GQGSQWr54Mp7B
2fa8QHcnEEA3w33B+hfuQJ2PSkDhaYDBSZXuQMF4qkCiDInBvfHOQIkpq0AdG3rBapW0QI9X0EDh
0pLBOd+YQGRsfkAfS4XBNwPnQOkvyT4f/Z7BTPkUQGcYU0D4M5nBmLlNQJExJkA9x4/BSiCiQE9m
mD80/4/BBgb4QM3wjUCssZ/BihgFQTwqkEBB9qnBQ/rDQJAsg0DQ97HBbdyxQM8mgUAXp6fBC4fL
QJLthkBLj57B60fwQM3fikBGF7PBfhyHQL8YdUDpvZnBfzbeQKaB7T/JKo3BJ3rlQIugnECdcmbB
h9q4QOQG2EDljnbBTBi3QA534b6xBKPB36H4QHAKgD9l5KTBj5HDQPXSLkDbpIXBwFDhQE/xpEDA
y4fB2BnhQCXSu0Amd3nBYXC7QCpnhUCZE4rB18/bQNpVfT6R4JzBwUKIQAOTckCUQqTBcACwQAKv
g0AV1pXBlapFQD7uZkAWk5PByEXIQMhGkz+KCJXBWrICQWrz6z/PhIzBN7wDQQ0zjUAVxb/B//kF
QSOSkUCksZjB1gkWQbnwlUCP26rBFiGwQG28fUBo9bjBmBQBQXmziEABpGjBBGLoQN3xrkAqfVfB
cv/IQDsAiEAep2XB+/m1QIgm7kD5FYLBMEicQBKGw0D0y3XBwaq7QLN36kAAomfBhnCiQFKVer+h
V53BZCGkQDtgoz5ERKfBtobEQC1vk79W1KjBtHEJQTYbvz/ijaDBcPwCQaTckj5fs6rBjpPlQGX+
4D9NI6nBFXSkQH+TD0CoWYTBqpTUQJdENECt8HvB2LrgQOTSvUDbBI7BA0j/QPOhkkBLZojBnwr9
QJ830UBEF3nBKmifQBcPkkD3y4XB6/PuQGTzBL+iw5jBxd8TQCCdWkDoW5jBMaVPQGv7NEAWu47B
NIeoQFiBoj9JXpXBMGL4QPfRjECRcJ/BlWcFQQ8Rj0CmrKnBoK/EQM3ogkARy7HBTkmyQO4AgUAO
gqfBysfLQHlhhkAYYJ7BrBDxQO9BikBL2LLBfieHQJondUDcqJnBfpPdQGIk7D8VKo3BhT8DQWi6
2UB6iXfBKvzhQH8zm0AzFmbBQizgQJPklL+/cJjBCaG+QIz2hT7j9abB8BrDQNCXLUBcjIXBJnnh
QLoWpEBjnIfBMBHgQDC0ukDSGHnBn1K7QGoShUBi5onBizvbQDSXhj6x6pzB74mIQEDeckDiLaTB
rP6vQCaAg0Dtr5XBQmlFQEIaZ0CUjZPBoE7HQKfHjj/Jz5TBUmoCQfXd8D/e9IzBTEEEQawNjUCu
fb/BOxoGQbP/j0AgaJjBSWMWQap9lEBYg6rBvPuwQByPfUDv0LjBa8MCQS9h8EABgILBwWUCQXR+
60DyXWjBckESQbpgx0AbIXjBVczGQK7qhEBs/2bB+Q8AQYsQiUAdvWbBkGjgQEYurUD0+VbBpKr0
QM7ckb/FSZHBRH/AQL7Fx7+aSpbB3uDuQKWA57+Ji57BeIe7QEnopD/RBarBoCjNQNKlwL4qJK3B
BseeQGt0A74846TB8+SjQFufDkCNS4TB1yHUQFgwMkBNvHvBJJPhQAHsvED82I3BCVH/QOeCkUCV
EIjB60bCQE9TzUCb/3fBQWCfQNbhkUArnYXBjwH7QLOIJz+WC5/ByM4TQBIUW0AtYZjBP/pOQNEA
NUB8uI7BiF6nQOW6lj8/xpTB4173QIWAjUD2/J7BdwAFQcbBkkDlHqnBJFjEQP2Gh0DejLHBD6Ox
QBbzgkBPW6fBlbvKQFSOhkAKGJ7BAqDwQFLQj0BpZLLBn+uFQEl3ckCLw5nB+7XdQOS06z8OCY3B
EU/AQJZz4kCn6pLBcgf3QG/f70DuooTB3Sa5QPkxxL62vKPBiSj6QNQaiz8Z5aTB8D7CQIT5K0Aj
YYXBCP7aQEp8pEDPK4bBgFjPQBTc1EDdmofBM/63QJavg0APtYnB6RPdQObMlD7FNJ3BReGHQBEV
dEAGRaTBL12uQAwugkANj5XBoHdCQPpkYUA/3ZPBg5fIQPsnkz9ZJ5XB2GwCQTRX7D/qRYzBD0oE
QbFKlUCs6b7BM4QFQdnAjkC845fBre8VQb4RmUCSzanBjvKwQIW3hEChqrjBnwakQFCYz0CgM5XB
Ewq4QD1VAkGJ35LBHDHaQOzA3EBAtZjBiyQBQQy/5kDKO3nBQk0IQVYZ6kAcgorBe3PuQHEBCUFl
rITBPTqkQJAhdL8vVJ7BaEKmQMBwxj6n36fBFVvHQCIsiL8eq6nBkPMJQZ8oyT+rUKDByBgEQbb4
zT680qrB4xjnQH9G7T9FB6nBkdmjQM86CkADAITBH4vTQAyLMkDNhHvB8wH4QDwVnkCh44rB8Lvh
QIEAn0B9SXvBJqi1QIuO3ECd54HBSkSaQIyzjUDltoXB4jrwQMCv+b7mPJnB3YARQD2eVkAw1pjB
6RtMQEmuLUDKTo/B4saoQFyBnz/vh5XB3UP1QOqSh0Dy0J7BtmcEQWzNj0A+t6jB9SnDQAV2jECM
jLHBkpevQGTyhEAkkqfBJ0rIQHv2gkAuNZ7BZOXvQFxBkkCuErLBQ2eCQHbOckBqYprBUjbgQBYw
1j/AfozBXcqpQJSD1UDwkXzBpibFQBdJ3EAUL5HBzoXdQCjvm7+24J/BdLMFQSueVD9ztqLBDpG7
QEXNF0CxgobBGgDYQL0NmUCyn4XBkdfOQJ4dykDz7IXBL9ezQDbZdUCNAorBPyn1QHnMb72RSprB
uBWFQD5jfEAS0KTBqiyrQEy8ekBg45XBQFY5QI2qY0D70ZTB6bDVQKbtNj/UHJTBuMACQXJQ/z8v
0IrBg24EQWivm0CyUr7BGEMEQX7EhEAurZfBxYQVQXFClEDMJqnBhRKwQNHGjUBXvrjBQZqwQJih
yECajGzBRHymQPSB+EBnoHvB6dmLQNKJx0DiUYHBjIffQBIz1EATppbBujGnQDxOzkDqNJTBFdTB
QF9G/0A8s5DBa8DNQC1+7L8l1ZnB4lPFQK5zT7+sX6XBkaD0QHF56b9YaqTBchgOQUfe0z8ArZ7B
rkoRQRmraT5MQafBrkjzQP30nj+gNqjBc/idQEPJ5j8X64fBAxnDQLVqF0Av1HvBkP70QF4kk0DN
Y4rBBfvdQNIjkEBjfHrBIbLrQPRj2kBK84LBmzmWQIYZhUC5/YXBJccGQVlf877q5JTBt2AIQMpD
YUC/9pnB9cM9QGXvK0Af7ZDBqqm2QLcVCj9WepXByDP2QKRKl0DitZ/Br/kDQW3tm0CxAarB1EfE
QLr6hEDTBbLBbl+yQE61gUBxv6fBEKXLQMPTiEA/sJ7BwHLvQElbkUCuILPBHoqIQFwib0Cr1JnB
YhjZQDzeoD/HkY7BRq6uQOZv3kDjlpHBfn+xQDmw5UBhjXvBqDWxQMBbdz7q0qnBQrj4QPA+9L6t
nqLBoqfjQOwaKUBgronBCB3NQOQxoUDIn4XB0BCrQLxsxUA04IbBGmC/QDUTbUDNz4rBYODKQAAc
Vb1FlZ/BdAOJQPtEcUBAVqTBYACyQBP4ekD3HJbBMlRJQN/jYkBWeJPBPp/LQAxdlj8XKpnBMp3l
QHBCgD5d7InBg2cDQeLJkkBUyr/BWngEQYS3nkAmsZjBhiQUQc+Pp0Di7KrBXCqxQJAofEDYArnB
hziqQCBByECbVJjB6OWVQJpo90Bf35HBznvOQPVb7UBDJZLBPyavQJYZ1UDcEmzBFUbRQOSJ9EBX
CX3BL7CYQImW/kCQfXzB4HyQQECFCz86rKfBYdHAQNnFhj8oTq7BSPuvQBnVKb8r0a7BDo8FQSD2
L7//TpvBfXX3QPTasL/GnafByyUEQcdVqz7EGqfBmk3qQDo5IEB0HIHBIzUAQaAMQkAKr43BWRLr
QArXq0CiZonBk5nSQHasm0CAFXrB4eWKQDFXt0CMRIbBsYyjQO4dVUCsVIbBp0+7QBeyXb9tH5vB
OLgVQFnUW0A3HpjBqDlRQN5fLkBeAY/BsK3BQC8qAUBsq5zBWa32QE2qlkA/v5/BpeoDQRBbnEB6
EarBbZ3DQEUlh0BY8LHBplayQJ9RgkAjnKfBT1jLQGIfikC5f57B1l3uQMCXlEACKbPBUPuHQLEF
cECxzZnBnMPYQE0S7j9ge4zBthL9QMLv7ECyNonBUACuQFDh5kBYLIXBBWPdQLQ6ID/wuqXB03X1
QJQlT798FpbBltG/QCsAMkCjCoXB9ojcQCpUpEDLtYbBKHvUQNw50kAZ8orBGmC4QBbBhUDj6onB
cKnQQAAzvjyY3ZrBdaaJQDFTbUBLSaTBB6+vQFDag0CGzZXBT7dIQFwAXUCBn5PB6s7AQAYuhj81
WZPBHvH/QGWF9T/qo4zB7/cBQbplm0AI7b/B5z8FQQDZm0D/yZjB2EsUQSaypkB7A6vBQDGwQJOS
gEDT5LjBfQ4MQXTB3UCqYI3BIR34QIesBkEsaozBQg0CQa7f7kDFmoDBuDmRQBFR00CdgIbBzqy0
QBDK6ECRF3nBa6+oQLmhA0EvW4jBx4jCQNpQmz/d76jBD2X5QLa7oz+GrqTBOVjlQLtVPL76V6vB
k3DrQBj3nL8KV47B4Zf9QIGR0L9WlpvBW9IIQZpYKr7i7JTBt46gQFSmFECnVoPBGN3RQLRDOUDJ
FHvB1Nr6QClkmEDZCYrBfbreQEhVpUCV3HvBxI/NQICS0EBokJPBcRmbQBQ/kkD4KIbBUSq2QDux
LL8BapzBgfEXQBXQTEAxZJjBbk9WQOUyLEAFvI7B/xahQCjLlj8JJJPBCHP4QJBZjEAL9Z/BMCQF
QdgCkUC7N6rBBu3DQPu6hECoOrLBUBqyQEzsgEDy8KfBmfTLQAY9hUBg357BWgjwQIpSjUBAWLPB
W3qHQEOvckBLDJrBnR/cQM1u8D9vLYzBBPrGQJQCskB4WGrBpp6rQCb05EAVh4PB8frrQJDFa78j
apjBBkKyQEBTVD2aNKTBmYLDQAZUNUCN/YTBr47dQCxJqEBynIjB1HzRQKSEyEAMqn/BwUK6QAkn
hkAcmYrBrYPWQMTRvj7DRJzBSHmIQKfvcUCcjaTBpkGwQOjYgUBPOJbBY0JHQA69ZEA8uJPBH2LE
QEjqij8lHZPBKosBQUzg/T8H+ozBjDEDQQzXkkALDMDBB0sGQbwvjkBM85jBbwcWQUxpl0BoG6vB
Xf2vQEcagUBoOrnBrkbiQC4RnkD1cWXBFaDAQLQxykAw9V3BsISqQPa2nUBGbGzBo9+zQDui9ECf
IYvBoP+OQIT20ED+poTBBRulQEFx/UDn1nrBG+MCQazjLL8XwpLBJh7UQN4ux78MaZTB9m35QPTC
ur9tUJ/B8TWjQErofD/y46bBJny/QM8J976DJqvBViyaQL1cFL8iP6DBlOSkQN90F0BaxoLBjHjW
QEVcQUDzdXvB1BnjQBvkuUC0GpDBJyf7QHjPl0CSN4bB3zXtQACF3UCz83zBDC2dQDnEkkAYxobB
6IHuQDkngD9/SqDBaXsUQMDaWUA6ZZjBZklRQPL2MUB1A4/B3/ikQCgUfz//wpHBocT2QLK3lkB9
HJ/BVtkEQcIPm0CYR6nB0HbFQDYdiUC3xrHBQLWyQCsDhUAJnafBhmnLQJJgikCgYJ7BSkjxQJ9c
k0Bql7LB3++HQCpwcEArBZrBwmLiQGR10T/W/pDB5oelQN9O3UBEXZHB0li8QJrv7UBam33BTGee
QABk0j52JqHBD7/jQChaZL9S7p/Bk4rfQIsbLkARVIjBBArMQFyXpECdd4XBeFqrQOf7yUBqCYbB
prW8QA/tc0Dja4rBOdW8QDBzsb4nmpnBfCiJQBHTdkDcfqTBIuewQLHCfUCc95XB3NdGQPS5YEC4
BJTBtzfIQIzsAz8CY5DBuxr6QPC66D/up5jBmL0EQZ7BlUDRJb/BHJoEQYzBnED99ZfBhHIVQZRI
pEDT9KnB43uyQFB1hED25rjBbFqZQJiMxEAi1JbB1paOQM3290DH/pDBYYXEQFgj6UABT5TBDPfA
QOKQ4UDASm3BPxbbQNOU+UBe84HBtCelQCQ0BEFIRn3BhfGCQIjzSj/mkZzBV4+vQNReoD8P2aTB
Z/WSQJr1ir6GbqfB8Dz5QC8mt79rdJrBlYLYQBYEyr9oNabBhRz1QHX7XL3xn6PBtj7YQLPBDkDH
qYDBOtT+QK0TTkCjyofBoznpQCWZrkD9s4nBsI/TQCLCnkB+/XnBqC6MQCTvvkD0BYPBIc+fQNY3
YEAPC4bBmjerQJnDm79NgpbB4m8UQAQHW0Bv5ZjB12BOQDKCKkCR34/B8Dm8QP3eiz4kOonBEQ76
QHTfjkAFBqDB6P4FQV4JkECvWqrBXYjFQLY3gkDWLrLBI8izQKxhgUCN26fBfPzNQCBwhkCj3p7B
/eTxQL3miEAGaLPBpiaKQJl9ckC91ZnBP+XmQAgB5j+h4I7ByUy3QOwA+0As3IfBlhaEQB5sxEAz
WYDBKwO2QBytCT/j9qPBEMvhQBzJhr9IsZjBW03lQHfpQUAvp4fBga7MQC/NrUDSaofBiMymQMz+
zEC+3YjBEmHAQGakf0CukYrBWpm8QADFHL2vo5jB8SyKQJeEdUBoVqTBWMSzQK6bfkBUJZbBon5M
QFxtZUBahJPB/QDCQGTsgz+rfpDB+34EQeDfwz//M5PB61YEQWqNh0ByIsDB8+gGQQdglEAaEpnB
0twWQaVjlkBJW6vBPGWxQGSRe0DgHbnBFAHQQLRmAEFz9Y3B2qGcQCC+CEFgC4nBJRrFQCPB/0Bo
tH/BLuhwQIlZo0BUIoHBxMSRQPoKyUBYpXDB8ZhSQBfG2kDYg4HBjHSbQI87oT9j2aPBAXbTQNqb
hT/2lKbBNW6uQC77jr4Ii6nBxkDmQIWqur+IlpDBZ0/aQCbU77/pPp7BM1f/QADzDL/XSJvBpv/g
QOuxLEC4qX7BNeYBQeOSZEBzY4jBmm/nQGtuuEAge4zBeqzWQNQbrkCQ9X3BtuaYQGppyECg3pDB
2lGkQDgxbUBGyIXBDGifQCEZGb/Ym5bBBf0YQB+0XkDIMJjBJ3JUQGd8MEARIo/Bm/+oQAcZnD+k
vIvB

> <OMEGA_E>
VLUCPzRXMj9ajC8/OjMqP8quJT+gSSE//NEZPxDRGD+KwRM/2uAOPw==

> <OMEGA_NBR>
    115529

$$$$
50164917
  -OEChem-04172616093D

 53 55  0     1  0  0  0  0  0999 V2000
    7.7539    4.5808  -20.0682 C   0  0  0  0  0  0  0  0  0  0  0  0
    8.2677    4.6825  -21.3757 C   0  0  0  0  0  0  0  0  0  0  0  0
    6.0347    4.2816  -22.2945 C   0  0  0  0  0  0  0  0  0  0  0  0
    5.5295    4.1725  -20.9857 C   0  0  0  0  0  0  0  0  0  0  0  0
    6.3824    4.3150  -19.8874 C   0  0  0  0  0  0  0  0  0  0  0  0
    7.4099    4.5285  -22.4873 C   0  0  0  0  0  0  0  0  0  0  0  0
    4.3074    3.7971  -19.1941 C   0  0  0  0  0  0  0  0  0  0  0  0
    6.7717    1.7853  -17.4078 C   0  0  0  0  0  0  0  0  0  0  0  0
    7.5203   -0.2086  -21.7520 C   0  0  0  0  0  0  0  0  0  0  0  0
    5.4185    1.0151  -21.3433 C   0  0  0  0  0  0  0  0  0  0  0  0
    6.7997   -0.9889  -22.8675 C   0  0  0  0  0  0  0  0  0  0  0  0
    4.7400    0.1925  -22.4426 C   0  0  0  0  0  0  0  0  0  0  0  0
    5.4658    6.6807  -17.1411 C   0  0  0  0  0  0  0  0  0  0  0  0
    6.0209    2.8689  -16.6383 C   0  0  0  0  0  0  0  0  0  0  0  0
    5.2988    5.2766  -16.5444 C   0  0  0  0  0  0  0  0  0  0  0  0
    6.6412   -0.5064  -18.4485 C   0  0  0  0  0  0  0  0  0  0  0  0
    6.0965   -0.7891  -19.8399 C   0  0  0  0  0  0  0  0  0  0  0  0
    6.0885    4.2271  -17.3571 C   0  0  2  0  0  0  0  0  0  0  0  0
    4.2642    3.8579  -20.5069 N   0  0  0  0  0  0  0  0  0  0  0  0
    5.5981    4.1254  -18.7702 N   0  0  0  0  0  0  0  0  0  0  0  0
    3.2284    3.4530  -18.3938 N   0  0  0  0  0  0  0  0  0  0  0  0
    6.0409    0.7273  -17.9274 N   0  0  0  0  0  0  0  0  0  0  0  0
    6.5505    0.2804  -20.7419 N   0  3  0  0  0  0  0  0  0  0  0  0
    7.9807    1.8877  -17.5894 O   0  0  0  0  0  0  0  0  0  0  0  0
    5.7342   -0.1823  -23.4168 O   0  0  0  0  0  0  0  0  0  0  0  0
    8.0543    4.6312  -24.1045 Cl  0  0  0  0  0  0  0  0  0  0  0  0
    8.4036    4.7053  -19.2146 H   0  0  0  0  0  0  0  0  0  0  0  0
    9.3188    4.8783  -21.5286 H   0  0  0  0  0  0  0  0  0  0  0  0
    5.3755    4.1772  -23.1436 H   0  0  0  0  0  0  0  0  0  0  0  0
    8.2492   -0.8706  -21.2616 H   0  0  0  0  0  0  0  0  0  0  0  0
    8.0452    0.6510  -22.1941 H   0  0  0  0  0  0  0  0  0  0  0  0
    5.7915    1.9543  -21.7777 H   0  0  0  0  0  0  0  0  0  0  0  0
    4.6812    1.2412  -20.5589 H   0  0  0  0  0  0  0  0  0  0  0  0
    7.5179   -1.2366  -23.6630 H   0  0  0  0  0  0  0  0  0  0  0  0
    6.3788   -1.9163  -22.4517 H   0  0  0  0  0  0  0  0  0  0  0  0
    4.2906   -0.7112  -22.0052 H   0  0  0  0  0  0  0  0  0  0  0  0
    3.9564    0.7947  -22.9258 H   0  0  0  0  0  0  0  0  0  0  0  0
    4.8934    7.4045  -16.5424 H   0  0  0  0  0  0  0  0  0  0  0  0
    6.5302    6.9583  -17.1325 H   0  0  0  0  0  0  0  0  0  0  0  0
    5.0939    6.6857  -18.1762 H   0  0  0  0  0  0  0  0  0  0  0  0
    4.9669    2.5703  -16.5388 H   0  0  0  0  0  0  0  0  0  0  0  0
    6.4687    2.9718  -15.6389 H   0  0  0  0  0  0  0  0  0  0  0  0
    5.6684    5.2806  -15.5084 H   0  0  0  0  0  0  0  0  0  0  0  0
    4.2321    5.0080  -16.5521 H   0  0  0  0  0  0  0  0  0  0  0  0
    6.3934   -1.3447  -17.7808 H   0  0  0  0  0  0  0  0  0  0  0  0
    7.7337   -0.3890  -18.4997 H   0  0  0  0  0  0  0  0  0  0  0  0
    6.4720   -1.7598  -20.1958 H   0  0  0  0  0  0  0  0  0  0  0  0
    4.9970   -0.8094  -19.8115 H   0  0  0  0  0  0  0  0  0  0  0  0
    7.1416    4.5438  -17.3793 H   0  0  0  0  0  0  0  0  0  0  0  0
    2.4328    3.2638  -18.9693 H   0  0  0  0  0  0  0  0  0  0  0  0
    3.4555    2.6379  -17.8608 H   0  0  0  0  0  0  0  0  0  0  0  0
    5.0446    0.8102  -17.9483 H   0  0  0  0  0  0  0  0  0  0  0  0
    7.0444    0.9391  -20.1742 H   0  0  0  0  0  0  0  0  0  0  0  0
  1  2  2  0  0  0  0
  1  5  1  0  0  0  0
  2  6  1  0  0  0  0
  3  4  1  0  0  0  0
  3  6  2  0  0  0  0
  4  5  2  0  0  0  0
  4 19  1  0  0  0  0
  5 20  1  0  0  0  0
  6 26  1  0  0  0  0
  7 19  2  0  0  0  0
  7 20  1  0  0  0  0
  7 21  1  0  0  0  0
  8 14  1  0  0  0  0
  8 22  1  0  0  0  0
  8 24  2  0  0  0  0
  9 11  1  0  0  0  0
  9 23  1  0  0  0  0
 10 12  1  0  0  0  0
 10 23  1  0  0  0  0
 11 25  1  0  0  0  0
 12 25  1  0  0  0  0
 13 15  1  0  0  0  0
 14 18  1  0  0  0  0
 15 18  1  0  0  0  0
 16 17  1  0  0  0  0
 16 22  1  0  0  0  0
 17 23  1  0  0  0  0
 18 20  1  0  0  0  0
  1 27  1  0  0  0  0
  2 28  1  0  0  0  0
  3 29  1  0  0  0  0
  9 30  1  0  0  0  0
  9 31  1  0  0  0  0
 10 32  1  0  0  0  0
 10 33  1  0  0  0  0
 11 34  1  0  0  0  0
 11 35  1  0  0  0  0
 12 36  1  0  0  0  0
 12 37  1  0  0  0  0
 13 38  1  0  0  0  0
 13 39  1  0  0  0  0
 13 40  1  0  0  0  0
 14 41  1  0  0  0  0
 14 42  1  0  0  0  0
 15 43  1  0  0  0  0
 15 44  1  0  0  0  0
 16 45  1  0  0  0  0
 16 46  1  0  0  0  0
 17 47  1  0  0  0  0
 17 48  1  0  0  0  0
 18 49  1  0  0  0  0
 21 50  1  0  0  0  0
 21 51  1  0  0  0  0
 22 52  1  0  0  0  0
 23 53  1  0  0  0  0
M  CHG  1  23   1
M  END
> <OMEGA_C>
xR/4QD6WkkDDi6DBm0gEQb7WlUCEAavBPRzBQAoDiUAjW7LBDfKwQIKFhUCk4qfBwjzMQEMUikBX
GZ/Bjx3tQKHpkED35bPBndaJQHQEc0CejZnBKbLYQFCD5D8wQ4vBmabwQMigVb4UBK7B8mOtQOft
gT8lv6rB1ZbZQJgqfb+y8LbBM66XQJAmRT6DirPB7+euQBvI1UDgIInBCqvAQMicN0A6G4XBao+p
QN/ZqEAHW4TBu4TUQNCiAb+GlpPBJBbDQGQBSr8buJ7BwtTCQEhEh0Ba24rBo3SIQL7ndkAiDqTB
UiOzQCQDhEBzKZbBP55OQHP9XEB7JpPBO0/BQFUzOj9ha4/BGp7RQF6Vjz5v76XBfmH/QNCf8T8Q
t4zB5n63QOC2Or6zVbvBPN4AQYEylED01cDBLHUGQZSRlkBtt5nBrxkVQQcbnEB9OqzBxAOsQO2r
hUAFJrnBxvwDQXTfXr+qF6rBP7kAQcGpJj+ZjbHB3VO5QJIn+j+iOK7BvsyVQF7fnj+MeKTB05Lw
QOVJnr/JTb3Bhh/MQOlI9b8MnbPBtkyJQG8RNr/ACrDB9TV9QFVvSz/yZ7fBvZacQLzx7EDJVoTB
I/fQQGSq3kBnD4nB1QCjQEvx1UDyaJHBxPCeQCJ/JEB+T4TB0//OQE4yPkDROHrBe2O1QL76qEB9
InjBLm2HQKZBoEDJaoTBBpfMQJofrL8SP47Bm3r3QKglx75r/5PBoBrPQMhA4b8TkaHBfOefQC8y
T7/ffZ7BYojkQAlnkUDSCIvBQ7MbQCriUEAxwZfBSiZdQBDTKEDq4o7BLG2hQOJmTz82lo/BpWvh
QMNocD/IZKHB7VL4QBHNlEBPf6DBVXEEQRHkmEC77arBk07CQPHFiEBDarLB5/ixQDjKhEDf+afB
Y7vMQBe5ikDfIJ/B9OPtQBAHk0DL37PB05CKQBxpcUDlspnBCQrZQJKQ5z+cGovBS8ixQGjSTj9t
Z6fBdVfnQKudFL/z0LDBGwSVQDojNT+jT7HBH+LIQNEEKL+gX7rBs3atQNkl1kDHDonBWMfAQFAq
OUBXDoXB13SoQK0BqUA6aoTB8kjWQHLr+b5ED5PBIhbtQDKRhL6BuZ3BPaPCQLrrh0D53YrBtJ2J
QLbec0DPNaTB5HqzQAs3hEDmOZbBs/BPQFvZWkDxWZPB1wDCQJhnOz84FI/B3lXPQGKCtb4Ex6bB
u9j/QML68z+nY4zBDkuvQAdrCj9crrrBT0UBQSV2mECFxMDBGmcGQaRWmUCRoZnBxyIVQUyFoEC5
FqzBQLCtQFEHhEAvP7nBPK3EQGL73T+d3KfBdqKdQL5aVD+wMKDBHSv5QBpOw78/MbDByOv9QG9Y
fz48CrLBxfd+QDw6IL4cfLDBG/GBQJZA0D81FrLBKnzbQOraPb8q0MHBbO+zQFNcxL+KiLnBiHua
QKPc7ECzS4TBEmHPQNqF30B90ojBHiGiQPZx1kCCY5HBdhyfQMefJUA0Q4TBKALPQBBtQEDuHXrB
b7SzQMcFqUAZJ3jBe3SGQOPxn0CSpITBM5G9QEopob9/KZTBitHtQG+TVb9cIY3By5/7QI0sPj9v
rp3BhSMDQS9Kgr//rZ7B3yzkQPiakkD98orBebQdQOkiTUCTAJjBFhlfQMyKJ0Do9Y7BhxGiQC8F
Sz95Oo/B1Du9QD4glb8okKXBIpf4QF6WlkCI95/BdhAFQVxbm0BKRqrBnZLEQGJ+ikBxPrLBZ1Cz
QF6ShUB47afBmAvNQP7Ci0Bn557B5x3wQCSClUD8ZbPB7IeKQPD9cUBm7ZnBVPTaQLs55z/1gYvB
lDLZQOlzWT91JrPBQlmeQP6Q0T74qqbBibfQQPI+Bb8OeLjBTRyXQF6Fdb9y8KvBj8SrQMK51EAK
S4jB7lLAQN1jNUAEYIXBR5imQEzcpkDyGoTB9K7aQHSYtr505JXBk8TqQEBlkDx9JqHBa4XBQJ7/
hkAiv4rBq76KQNondEAAcqTBAA2zQNCchEDmLZbBIpVOQBAbW0CM0pPBpKvFQD7cQT/aX5DBwwbM
QPUgUT/DwKfBHOoAQcOQ+D/mTIzB1GWkQMTxZb+//7bBM/gCQdDgm0CfI8DBASUGQaksm0AI9pjB
OMEVQSd/o0B4NKvBk7CwQCrjhUBkN7nBRIv7QKN7ij/OprPB987GQNMY0D96XLfBW+CJQApGlD9t
larBEwiWQIA0sT7KIZ7BXr/XQL6W574LE8HB4X3lQH3ko780y7TBm/6pQOiH3L8DuKfBouhpQAwk
nL87hqvBZkeYQPOe6kC/a4PB4pvNQE4z3kBKyofB2iGhQDs91kBcrJDBY/KeQKwwH0AyCoXBpw/N
QOQaO0C1Z3rBdyaxQEuhpUCGbnfBb6yEQDernUBWmYTBKqvDQPeCl7+to5bBZi/2QMk2L7/3EJHB
tCcEQfrfGj97P6DB3d3xQKbqab+5e6XBPeDiQN08kkAYpIrBnYkdQLnuTECkpZjBuxFdQCkDKECm
W4/BKrClQFdKQj/jG5DBeOHNQMj/4D9YFaXBtLj4QBUYlUBt5Z/BD+QEQXpTm0C0NqrBz2nDQGWN
jUA9FrLBbrmyQDq9hkCoxafBrgPNQMT3ikA2xp7BGRnvQL/bl0AqS7PBgViKQLSzcUA2xJnBDD3Z
QMZJ6D9YaIrBm3OTQKgeMD4xJK7B3C7WQP6/mr/buq3B4D6lQBk9Xz9fE7jBhNbkQILx8L4d27fB
YMmuQFOQ1UDBlYjBRTK/QELyN0Bxn4TBYvSmQKxlqECUPITB64jUQA4FKr55GJbB7AnKQNSeDj8W
hqDBRE7BQGgjh0CKh4rB9DCKQIJddkClRqTBAByzQG+bg0AFBJbBRzJOQP3iWkCmqZPBNnHEQF+Z
KT9Zgo3BoSG2QITB1r57kqfBMi3+QAXeAkBQMo3Bn8W/QDATZL352b3Bvx4CQck9oEBlCsDBNXYG
QecLmEDO7JjBkqcVQdrDokBLLqvBW/WuQDvqikAOBbnBtd6BQGrdZz/URqnBXwx7QOq8IL/0rbDB
Xr7HQD7PCsDID7DBmC/yQEGAsr/Wm6jBSayKQKjsmT+qNL3BqGO4QPQz3z+fpbXBaMT3QMBM0z5F
mLXBC4v4QAU/kr9kyLzBwrKbQC237ED2+4PB8vHQQKOF3UDH1ofBH1mlQDzi1kBqDpHBtKWdQIvw
IkBZLYTBFfbLQB4YQEB8+HjBR1ewQMlLp0D8hHfBdL6EQGKooEAg+oTBIuHEQEJVk7+R7pXBlln3
QH/7lr6iTpXBfNSzQHS3sT+z+p7BzoHnQBp3cj9IMKTB3dviQNbGkUC+eIrB7n8cQJ3sTkAFepjB
yOZbQNJzJkBSaI/BxJWpQGFFyT4ru4nBGbCnQFUQir+vwqLBdUD4QFkymEC065/B34YEQcB6nkBb
QarBOf7CQLmPjkAFEbLBTYeyQIDnh0AXuafBUdfMQFcDjUD2wZ7BbmvuQN3tmUDdT7PB3B+LQE5I
cEBgq5nBPgvYQMXB7D/TvIrB1SLMQCFTuL9IkavBF7HbQHKaET8T3bXBjN6bQDPRob9Ww63Bq46r
QOKMMj//objBAB+vQETh1kAkoYjBsE7AQPIHO0C3ioTB4FynQCq0qUBQRYTBEgPRQKCSJLzKt5fB
ghDSQNZnQD/vZaLB8+fBQJCAiEAZhYrBw32KQIDmdUDQK6TBhXWzQEylhECR+ZXBpaxRQBTbVEDT
hZPBE9u/QDS2Xj/2m4/BnOvgQIgQ2r1iZavBj2/+QOMr/D81kYzBdXOWQFphF7936rfBP7gBQU0a
okC4E8DBDDYGQUzpm0B295jB/C0VQW7KpkDPQavB0JmuQPIBi0A9/LjBka7QQJCY97/kyaPBnYLa
QCyOA8AE6rHBX9HrQMjVrbzxGbzBYhPqQPcnyT+keLXBRVCMQEUEEMASD67Bf1yNQHxkKb8ZW6fB
LGGcQO+fsj8T/bLBoESoQEzkij/A08DBUeKbQG3/7UCMDoTBzT3RQPvz3kAh2ofBtdClQDse2EBY
HJHBNrmeQHyBJ0Dki4PBFj/PQMOrQkAkQ3nBgJ2wQKKvqEBqkXfBaDCFQOLZoUDrCoXBfoy8QK9j
Zr9ue5jBd53xQLQoo76ZgJXB4aGxQBmojj/hNKTBsOvnQJPdzT9QnqHBz1vjQH90k0A4horB92Qg
QD1zRkCHTJjBe7piQF/uIEAtXI/B+DuhQNKkQz8rco3BlSEAQetkhL71VarBzJv2QG5gmkC2UKLB
iMcCQedRoECd06zBrq2/QJqlikBk3bPBZAaxQDmFhEBYWanBYkHMQLFUjECstqDBNB7qQLNymEAT
lrXBsQmMQNIcbEAZ0JrBJOnWQDUsBkAaz4nBUPHhQAC2Nb8Dqq7ByvGkQALazz7j2qXBRr3NQGyh
zL6iibnBtSSSQDG5MT/g+7DBNC68QC2j0kBJIYHBiJfAQNooVEAh84TBkL6kQP2otUC9BonBYmrP
QOBQJ762XJLBskzrQFB8YT3tXJzBPsLBQElykEB7u4zB9uiJQMSjbUA0T6XBDFy0QHyHhEBvtZfB
Ru9VQDYsU0BPF5TB2NC9QDdYjD/PVo7BOHzUQFpNlT4roqbBihD+QOEPBUDjhYrBneGfQET4pb4T
ZbjBRNX8QCKWn0CFmMLB3acFQSJ/oECBkZvBIAATQV3lqkBxMq7BI6iqQOzYhEBRkbrBbbHXQIDO
2r9vCKzBRYACQc9eML+Fbq/B3qCcQCUNnT83YaDBeaeXQN2KCb9/x6LBsv3ZQGX1Dz9QgrzB6O7V
QEolmb+WP7/Ba/1dQBkTMj8DgrDBMVSdQHqv1j/WxbPBtdmmQP7J7ECLQX3BxMrFQHLlv0CLKHTB
lMzYQLEa4ED9/YTBaxGfQDPJQ0D2NoPB+OvQQNr7ZUBT9XrBSxuIQL9pqEAwIIXBHB2bQP6eyEDn
CZDBXdi0QHtfVr/9a5TB9xjjQB2cH78VEIzBeM//QFS2bT+W15rBY2H/QH3ZVr9rY53BBtriQCRi
nEB1B43BYPkiQDKyQkB5eJjBer9oQIgZIUDbso/BxD6eQEpsnz9J347BQ9LeQImGlj9JVKnB

> <OMEGA_E>
SFqYPnCmmj7Q97M+sPmzPjAWzj6U0+U+

> <OMEGA_NBR>
    121141

$$$$
50164959
  -OEChem-04172616093D

 55 57  0     1  0  0  0  0  0999 V2000
    7.7317    4.5701  -20.1131 C   0  0  0  0  0  0  0  0  0  0  0  0
    8.2422    4.6909  -21.4201 C   0  0  0  0  0  0  0  0  0  0  0  0
    6.0156    4.2568  -22.3406 C   0  0  0  0  0  0  0  0  0  0  0  0
    5.5111    4.1447  -21.0338 C   0  0  0  0  0  0  0  0  0  0  0  0
    6.3615    4.2967  -19.9344 C   0  0  0  0  0  0  0  0  0  0  0  0
    7.3851    4.5342  -22.5321 C   0  0  0  0  0  0  0  0  0  0  0  0
    4.2729    3.8317  -19.2438 C   0  0  0  0  0  0  0  0  0  0  0  0
    6.9858    1.7092  -17.5573 C   0  0  0  0  0  0  0  0  0  0  0  0
    6.0765   -0.6033  -23.2817 C   0  0  0  0  0  0  0  0  0  0  0  0
    7.3422   -0.5791  -22.4145 C   0  0  0  0  0  0  0  0  0  0  0  0
    5.1568    0.5707  -22.9167 C   0  0  0  0  0  0  0  0  0  0  0  0
    6.9904   -0.6099  -20.9180 C   0  0  0  0  0  0  0  0  0  0  0  0
    4.7677    0.5023  -21.4367 C   0  0  0  0  0  0  0  0  0  0  0  0
    6.0084    0.5338  -20.5201 C   0  0  0  0  0  0  0  0  0  0  0  0
    5.4798    6.5105  -17.0018 C   0  0  0  0  0  0  0  0  0  0  0  0
    7.3780   -0.7191  -17.8064 C   0  0  0  0  0  0  0  0  0  0  0  0
    5.9925    2.6478  -16.8530 C   0  0  0  0  0  0  0  0  0  0  0  0
    5.4868    0.3993  -19.0627 C   0  0  0  0  0  0  0  0  0  0  0  0
    5.3293    5.0665  -16.4984 C   0  0  0  0  0  0  0  0  0  0  0  0
    6.0839    4.0781  -17.4149 C   0  0  2  0  0  0  0  0  0  0  0  0
    4.2373    3.8735  -20.5564 N   0  0  0  0  0  0  0  0  0  0  0  0
    5.5768    4.1021  -18.8198 N   0  0  0  0  0  0  0  0  0  0  0  0
    3.1792    3.5280  -18.4457 N   0  0  0  0  0  0  0  0  0  0  0  0
    6.5612    0.4781  -18.0601 N   0  0  0  0  0  0  0  0  0  0  0  0
    8.1837    1.9250  -17.4103 O   0  0  0  0  0  0  0  0  0  0  0  0
    8.0199    4.6907  -24.1485 Cl  0  0  0  0  0  0  0  0  0  0  0  0
    8.3823    4.6855  -19.2588 H   0  0  0  0  0  0  0  0  0  0  0  0
    9.2901    4.9036  -21.5724 H   0  0  0  0  0  0  0  0  0  0  0  0
    5.3608    4.1316  -23.1903 H   0  0  0  0  0  0  0  0  0  0  0  0
    6.3614   -0.5251  -24.3413 H   0  0  0  0  0  0  0  0  0  0  0  0
    5.5406   -1.5493  -23.1149 H   0  0  0  0  0  0  0  0  0  0  0  0
    7.9598   -1.4567  -22.6562 H   0  0  0  0  0  0  0  0  0  0  0  0
    7.9084    0.3386  -22.6313 H   0  0  0  0  0  0  0  0  0  0  0  0
    5.6828    1.5173  -23.1100 H   0  0  0  0  0  0  0  0  0  0  0  0
    4.2471    0.5242  -23.5334 H   0  0  0  0  0  0  0  0  0  0  0  0
    6.5212   -1.5770  -20.6843 H   0  0  0  0  0  0  0  0  0  0  0  0
    7.9163   -0.5010  -20.3342 H   0  0  0  0  0  0  0  0  0  0  0  0
    4.1250    1.3621  -21.1967 H   0  0  0  0  0  0  0  0  0  0  0  0
    4.2142   -0.4310  -21.2561 H   0  0  0  0  0  0  0  0  0  0  0  0
    6.5190    1.5015  -20.6327 H   0  0  0  0  0  0  0  0  0  0  0  0
    4.9340    7.1915  -16.3322 H   0  0  0  0  0  0  0  0  0  0  0  0
    6.5449    6.7850  -17.0149 H   0  0  0  0  0  0  0  0  0  0  0  0
    5.0684    6.5888  -18.0189 H   0  0  0  0  0  0  0  0  0  0  0  0
    6.9002   -1.5946  -18.2701 H   0  0  0  0  0  0  0  0  0  0  0  0
    8.3801   -0.5771  -18.2373 H   0  0  0  0  0  0  0  0  0  0  0  0
    7.4649   -0.8804  -16.7217 H   0  0  0  0  0  0  0  0  0  0  0  0
    4.9713    2.2677  -17.0035 H   0  0  0  0  0  0  0  0  0  0  0  0
    6.2207    2.6697  -15.7771 H   0  0  0  0  0  0  0  0  0  0  0  0
    4.7678    1.2095  -18.8712 H   0  0  0  0  0  0  0  0  0  0  0  0
    4.9808   -0.5719  -18.9593 H   0  0  0  0  0  0  0  0  0  0  0  0
    5.7386    4.9963  -15.4798 H   0  0  0  0  0  0  0  0  0  0  0  0
    4.2622    4.8002  -16.4839 H   0  0  0  0  0  0  0  0  0  0  0  0
    7.1444    4.3701  -17.4232 H   0  0  0  0  0  0  0  0  0  0  0  0
    2.3827    3.3516  -19.0239 H   0  0  0  0  0  0  0  0  0  0  0  0
    3.3809    2.7151  -17.8993 H   0  0  0  0  0  0  0  0  0  0  0  0
  1  2  2  0  0  0  0
  1  5  1  0  0  0  0
  2  6  1  0  0  0  0
  3  4  1  0  0  0  0
  3  6  2  0  0  0  0
  4  5  2  0  0  0  0
  4 21  1  0  0  0  0
  5 22  1  0  0  0  0
  6 26  1  0  0  0  0
  7 21  2  0  0  0  0
  7 22  1  0  0  0  0
  7 23  1  0  0  0  0
  8 17  1  0  0  0  0
  8 24  1  0  0  0  0
  8 25  2  0  0  0  0
  9 10  1  0  0  0  0
  9 11  1  0  0  0  0
 10 12  1  0  0  0  0
 11 13  1  0  0  0  0
 12 14  1  0  0  0  0
 13 14  1  0  0  0  0
 14 18  1  0  0  0  0
 15 19  1  0  0  0  0
 16 24  1  0  0  0  0
 17 20  1  0  0  0  0
 18 24  1  0  0  0  0
 19 20  1  0  0  0  0
 20 22  1  0  0  0  0
  1 27  1  0  0  0  0
  2 28  1  0  0  0  0
  3 29  1  0  0  0  0
  9 30  1  0  0  0  0
  9 31  1  0  0  0  0
 10 32  1  0  0  0  0
 10 33  1  0  0  0  0
 11 34  1  0  0  0  0
 11 35  1  0  0  0  0
 12 36  1  0  0  0  0
 12 37  1  0  0  0  0
 13 38  1  0  0  0  0
 13 39  1  0  0  0  0
 14 40  1  0  0  0  0
 15 41  1  0  0  0  0
 15 42  1  0  0  0  0
 15 43  1  0  0  0  0
 16 44  1  0  0  0  0
 16 45  1  0  0  0  0
 16 46  1  0  0  0  0
 17 47  1  0  0  0  0
 17 48  1  0  0  0  0
 18 49  1  0  0  0  0
 18 50  1  0  0  0  0
 19 51  1  0  0  0  0
 19 52  1  0  0  0  0
 20 53  1  0  0  0  0
 23 54  1  0  0  0  0
 23 55  1  0  0  0  0
M  END
> <OMEGA_C>
v2n3QOU9kkCT56DBP+ADQdwblkBsXKvB6X/AQGs3iECaubLB7VqwQDyhhEBORajBhZHLQPB+iUCT
eZ/B61LsQBgYkUDFQbTBWLuIQNI6dUBL85nB44vfQP7H2j9xdYzBC3PCQE5yGr/nQLrBF/PqQNZC
FL/VULPBqwSlQLAbEj9eVbfBYbHfQGgkHL8gWKfBM5GYQDyZAD9YfqvBB0XAQDykCD8jKaTBiVqv
QOtV0ECfA4jB7xjsQDAUOL93c47Bh8K/QI11KUDY0obBeZOvQHVvzD55gJjB34mqQIQgokC7/IPB
Oq/CQPd/gkC+UYvBBJiHQPLnd0B0c6TBz3SyQAlEg0D4jpbBAXhLQELLYUCykJPBIvXRQLnM9D4g
e5DBlvACQd9n9j9fSIvBk1EAQXcalkAiMMHBBh4GQVrvlUAdEprBM6QUQSbqnEBalKzBvourQGo2
hEDFhbnBUZDLQIFsBr/4usLBqkyxQI5Qxr9j67jBRrb+QJB2ur/XP7XB4BH9QLdirT7nDLXB2tm1
QJ41wj9e4bjBnOiHQH8wBj9gRLzBoq3QQNLayb9neaXBOlL9QFw/AL9urKLBsP+DQGRarj/KkqnB
G9uGQCym3L5tDKrBupvQQKsywD/QD6XBUuOdQMQg5kBYqILBBXDRQIIe2UB0HojBlDCiQKjX0kDJ
JpDBxM7cQFcdzL8yKZLB6hQGQem/E78W5pHBNuDuQItiYb8jxoXBsxSfQGUiEUAXB4jBQRDHQIbc
KkAOb3zB/pGYQMvQmj8i+JbBlmKfQCprEr+krJfB/aK3QMfhn0BKrXfBjGOIQO2amUD73oPB5p7k
QPDXi0CuYovBaH0YQCCBVkD/MJjBiWBYQMvELUC6MY/Bd134QI26lEACB6DBTGoEQUpLnEBQXarB
FTnCQBuCjkCJILLBX/yxQJjqhkAWyqfB/8nMQEoAikBp1Z7BPNDtQHo2mUDlZrPBfumJQOQ3cUD5
vZnB+ETeQHA30j9FH4jBa1mpQCwEHsCXTKDB9+K4QN6mWMBGJpfBOrzMQBZ5vb+aq6PBBrTHQDxg
I8A2dI3Bs9XbQMLsJL8ME5rB80rrQClnxr8wuJDB5mawQIM80kDpr4jBO5+4QAB/Z7zs2HjBcYW8
QLzqLEDf4oTBTM76QMbhNr+C84bBojypQFMlpUAMEoTBB83BQDSEgkCBiIrBKkqJQDI8eECRO6TB
TVazQOAbgUDMC5bBLeFMQJzOXEB3kJPBX0jcQCygsj53pYPB0Hv7QJWf+T/cN47BBTUBQaKookAl
LcDBn3MGQSogl0C9GpnBWBUVQUF2pEBEYKvBPoKtQEYpjECrBLnBrXugQNO2RcBsOKfBbDqNQIV6
87+7kZ3BwnqeQFxkgcDyrJTB48zTQDm9f8CfB5rBBAvoQA3cAsDt5qbBhhvAQGqpTr/J36nB6j2s
QK5I/79qPIrBXj7UQDq2TsCURIfB0G72QMvV6jpioJzB9x3BQHktqLw3QpfBcF8DQSmVCMCsopPB
y4aeQGTA6UCb5oPBfbnSQLH82UBicojBghWlQHsz00AxBJHBgYW8QEwSh7/hgnPBbcC4QOxTJz+F
3GrBShGaQBiCtz2qtoDBEaOcQKacE0A33IbBJ9e+QGAkN0DRZXjBG5f/QOG3sr9xJoDBV7cMQbBs
db4dDInBtne0QKOSpECbdnfButOGQG3JnUAcTYTBZP3jQKreikAVYYrBTAkaQFCQVEAMUJjBWEdY
QLbMJkDqg4/BWjX4QC+6lEBkCqDBp1gEQWhCnEBYYKrBnBzCQDxijkBUJbLBj9qxQPHUhkBBz6fB
WaPMQCv5iUBH2p7BxbLtQKYbmUCMarPB0sCJQFAtcUCHw5nBWd3dQEaW0D/gRojBUBgAQeo0QsAt
bKTBOEvqQOjD07/Uz6TBSPn0QJG6ccBo+pnBj/n1QEL2Tb8C9prBF80AQaL1O8B/IJDBmKvrQP4o
xr+HWZDB0SawQCAZ0kABsIjBwmi2QOhXO73yRHrB11W8QGN7LEBu+oTBNMn6QEH6N7/9kYbB6SCp
QAT3pEBMFITBCK7BQM9hgkCZkYrBByaJQF4VeEA9QaTB4S6zQP8WgUD8EZbBW4pMQBPRXEABlpPB
FpLbQL7BrT49yoPBYer7QNzw+D/YFY7B1igBQReBokChMMDB1lwGQTsrl0BcHZnB/AIVQXZ0pECm
YqvB42qtQO/9i0AtCrnBPl31QEWdaMB1SKvBbYkRQSN6OcAr3aTBS6f0QLwdkL8AFazBvWXHQBbk
5b8nB6XBUVLSQGj8fcCqxJnB+SkDQf95l8BHwpnBxjMMQUDcE791MpvBiZ7jQEu+CD4rNpvBRcr3
QNcZXsAc1YjB50ISQWwcM8AwFZDBW9XIQAtM2L88zI/Bs0meQOON6UBg4YPBPHbSQBjq2UBpeIjB
dbukQDwV00AHApHBCly6QA2air+8vnTBT0m0QHLoHz8YW2zBEvGYQJoGDz2W54HBwlucQM6PE0Be
74bB1dC+QLleNkA8k3jB66j+QJD7sb/5Vn/BGNoMQQ7Lf75zeYjBcXW0QLtgpEBxf3fBqrqGQN6L
nUBXSYTBvODjQFiyikAUaYrB4bYZQLiDVEDqVZjBh+9XQJTaJkAJh4/BfV/3QDdxlED0EaDBZxME
QZiom0BAZKrBMaXBQMocjkBiPbLBMxWxQG7qhkAA66fBbK/LQPYIikCy7p7BtFTtQNGGmEC+drPB
74mIQK28ckDs5pnByj7GQAz2uj9sc4zBRK0iQTdiVr9CravBOU8kQcDg3j7KuqTBoS0RQdLO5L+C
bqfBx4MOQTBYlD8G+KPB/7/2QJiLiL8m+abBc1v4QABzZz6oJKDBQa2xQNRp0UAkn4jBxGAJQYZq
0T/4cYbBohK5QHekKUB+R4XBWFr8QLrpBr6kBpTB39upQPpYpEDCB4TB0XvAQEgGgUD8tYrBCjCI
QAYXeUA8ZqTB9e+xQHZdgUBQMJbBLVlKQNaMXkC6rZPBOPzwQOZTgj8cF43BBx2qQLdNaj8cv5HB
OyABQTegoUBuOMDB0N8FQd7blkAfHpnBDMgUQfKXo0ASXavByhmtQG2vi0AvKbnB2b8eQat3DL8j
8LPBzSgyQZkfrr/aj6vBmo4pQSWaHT4fo5zB9xwwQa/8jj/RUKjB0OoPQZgVKsCTx6zBZI0VQaMD
CMDdWJ/BJQUQQckT/z9vR57BGl8KQTezxj/h66vBGg7tQMhiTb/+Ka/BZvreQG8D4L+seaPBAu7Z
QJHGQj8aRaHBCBqhQBlA6UBkpYPBJTfUQC002EBfpojB7E2lQDL50kDU2ZDB/s4YQUZOkz/IIYjB
X4AKQXVXLUBkUojBFWMFQYsmwT+v3nvBdeCWQLVyI0BqV4PBUvzLQM4tJ0BEunvBwbnmQLtNeL+l
OZLBZMYOQVJP3L7YVZLB+SS2QBQ/o0Cbk3fBvzuHQBkEnkBD/YPB3w7jQJuYh0BxiorB/HEXQH67
VUCaZpjBKglWQKbpKEDrkI/BCar4QHMAgUCR6KHBe7ADQWxijUCKH6zBi3i9QAxol0AHILLBzPiu
QM0Vi0CI6qfBZ0PMQOsMgEDB4p/Bs9XpQO+ZmECeN7TBddGIQJvkdEDJs5nB3J22QEM7ST8kdpLB
SQK/QNMSob83hbrBil3hQI3jBsCEy7TBtkSrQIx+VL667bLBByACQbTWmr8xwq/B7IfOQAExLD8k
0q3BLTzxQAjtJ75B6qfB2B7NQKC/eUBCKnHBg/IBQRI/pj5AVo7Byd6zQMTN5z/lNonBt5bfQJQM
X79RtJ3Biuu6QAX+iEBNqIPBrT3FQMH0TUBSYYzB6AOGQBIWh0BWt6PBtvOzQDPTakB3BJfBafhL
QPQYZkDWEJPBZXTcQK8ygz3PiJTBdYaWQPX0HD849JfBCTj8QOz5p0Ca18DBkpEHQbu0cED/tZvB
SqYUQYlLjkAVw63B3tamQALfn0BuTbjBkdjNQJG5Pb/4V8HBE36lQMQo9r8kbr3BxgHSQCfLLMBs
c67Bz13wQPkrMsCCorrB/EGVQCIT3j59frfB03uZQLA7Ob/9jazBhnoNQblT7L9AXqvBxpoKQSjh
Lb96MrbBtR3eQOr8oD9JLLTBT32/QA6ErT+bCajBnIkFQTg9BD+yc6XB0enEQKHslUBTgGXBeEy/
QCNqPEDo+mvBCCDwQJGwc0DrOnLBnMwOQQMzrb4QK5HB280GQULFrz+6bI/BWND9QCeKCD40zoXB
nCySQKna9D/JzYbBObrGQBF1tz8EbYLBHpO/QKToor/cdJ/BBjL1QJcq2b8/i5vBAPeXQCgsjEBH
/oLBkMrIQF/Pp0BJHobBKEToQF4jSUALBI3BB9EVQAudcUA0FJfBP59MQGMpKUASn5DBOYz4QOho
lUD75J/B8JYEQfJnnEDYPKrBdefCQLBNjUAwCrLBYn6yQBZLhkDLsafBvQ7NQAtOikA8uJ7Bp2nu
QF5fmEAmTLPBCkOKQOcScUDUo5nBSSvdQLVF0z9eWojBA8Y5QasDiL9FGojBYr8pQdP2DcCSWYbB
0EsuQRVfmz57v4jB28EbQRi6+7/rs3jBMx4gQTEFCT+Ign3B87EPQTDFHL8o5XnB9pevQAYy00Al
0YjBS9e4QImTEz13EnjBJc+8QBAuL0D1u4TBXTn8QEQiKb9jz4XBVRKpQPU6pkB6DYTB6e7BQHWH
g0BQborBQdOJQLuldkAOJaTBUYqzQIGpgUB275XB7YpNQKDBXECVdpPBdo/aQKeUtj5o8IPB0+75
QKBW+D9Doo7B25wBQaoYoUCiFMDBmnEGQYqFmEDl85jBXDkVQbLdpEDZPKvB9WKuQBw9ikA487jB
ZilFQfOHhb8aZYHBT35CQTwunr+6no/B+FUfQV9TE8DEaY3Ba6wyQfQFSsC4RYXBUFg6QW0tjT+T
PInBdi0kQWTdpj4s8o/BHPUPQWPPMcCzVXfBexomQd9T+78Nd2rBcIMqQZkwGz98Wm/BJlMXQTtf
vT/4jn/B+r4HQepm4r4ybmrBCoSdQHq46kDcFITBQ9LRQJVh20AgpIjBeRykQJSc00CMIpHB5vS7
QBbKgb81EHPBuUu8QCgCMT8VC2rB3zCZQCAzRT4gW3/Bx0+cQNhQF0CiU4bBE+LAQORGOUB+K3jB
Bp0FQdai8b5VoI3Bj2/tQJJW1L8C04XBhXW0QPQ3pkCkc3fBu7+GQPNynkA+OITB9BLkQIMTjEAt
RorBFvwaQKpTU0CEOZjB3ldZQP5uJ0DOSo/BgnH4QE5slUA68J/BaIEEQTGdnECqR6rBIK7CQPqv
jUBfErLBRFWyQLp8hkBiuqfBCPbMQL5LikBlwp7BEjDuQOzAmECHVbPBHS6KQBACcUBMrJnB1tvd
QORh0z9sGojBHpz8QK2fjMCp0YrBSCsRQRUxXMANKY3Be/TVQMCPaMBuG4bBuikKQZMOEsAKlJTB
AGnIQEP9HcD8ho3B+NztQIk/vr/G+o/BDq6vQKgB00Dt1ojBrFe5QHbdLD2AjnfBgMS8QCu/LkC8
wYTBYRH8QKqAK78G+YXB4RmpQDQIpkCKFoTBV+fBQABKg0CNeYrBy6yJQEX+dkCULKTBw36zQFd9
gUC3+ZXBF3BNQEeeXEBGfZPBp5TcQJA6xD54MoPB3nj6QFpe9z9ndI7BDXcBQZmtoUCrHcDB1GkG
QZVnmEBGAJnBGiMVQUAXpUBsSKvBcx2uQOrEikAn+rjBHczyQB88nMClUJLBaY0DQfYOpcC2DYXB
ygwXQTtpQcBckoXBUxUeQXoygMBTEZHBHPC6QGWOisBhNYXBTL/eQB2iTsD7c3zBgL0XQTwczL/O
oJXBOpAFQRHRLMDYYpzBy8O8QAPmOMC7HpXBgXSuQA819L9xoInBG/LiQDzbRr8ZIJbB5qOdQPuI
6kCWGITBUuvRQMok20DtqYjBUjCkQBl600AXKJHBhtG9QBt8e78XjnHBJme5QOHfPj95BmrBhZia
QJJs4T0vB4DBwpWcQBcNFkAgiobBU+S/QOBSOUAAL3jBnGb/QPF6rb/bR37BHo4NQaB1SL4up4fB
D3+0QBz5pUAchnfBD8SGQGtOnkA4QYTBYA3kQGXOi0B1UorByMYaQAJ9U0AlPpjBni9ZQO4bJ0B9
Wo/B

> <OMEGA_E>
qB4jPqT1KT+W0C8/fDdCP8J6QT+AIkE/kDo+Pw==

> <OMEGA_NBR>
    127812

$$$$
50164961
  -OEChem-04172616093D

 50 52  0     1  0  0  0  0  0999 V2000
    7.7436    4.6740  -20.0475 C   0  0  0  0  0  0  0  0  0  0  0  0
    8.2615    4.8249  -21.3486 C   0  0  0  0  0  0  0  0  0  0  0  0
    6.0517    4.3584  -22.2925 C   0  0  0  0  0  0  0  0  0  0  0  0
    5.5420    4.2043  -20.9906 C   0  0  0  0  0  0  0  0  0  0  0  0
    6.3806    4.3590  -19.8821 C   0  0  0  0  0  0  0  0  0  0  0  0
    7.4171    4.6659  -22.4696 C   0  0  0  0  0  0  0  0  0  0  0  0
    4.3060    3.8113  -19.2128 C   0  0  0  0  0  0  0  0  0  0  0  0
    6.7766    1.7418  -17.4853 C   0  0  0  0  0  0  0  0  0  0  0  0
    7.2167   -0.8903  -21.3082 C   0  0  0  0  0  0  0  0  0  0  0  0
    5.0722    0.3692  -20.8381 C   0  0  0  0  0  0  0  0  0  0  0  0
    7.0322   -0.5308  -22.7924 C   0  0  0  0  0  0  0  0  0  0  0  0
    4.9939    0.6837  -22.3416 C   0  0  0  0  0  0  0  0  0  0  0  0
    6.5478    0.1722  -20.4084 C   0  0  0  0  0  0  0  0  0  0  0  0
    5.4326    6.6225  -17.0558 C   0  0  0  0  0  0  0  0  0  0  0  0
    6.0182    2.7954  -16.6813 C   0  0  0  0  0  0  0  0  0  0  0  0
    6.6297   -0.2982  -18.9453 C   0  0  0  0  0  0  0  0  0  0  0  0
    5.2896    5.1980  -16.5020 C   0  0  0  0  0  0  0  0  0  0  0  0
    6.0819    4.1812  -17.3537 C   0  0  2  0  0  0  0  0  0  0  0  0
    4.2755    3.8788  -20.5261 N   0  0  0  0  0  0  0  0  0  0  0  0
    5.5939    4.1305  -18.7731 N   0  0  0  0  0  0  0  0  0  0  0  0
    3.2202    3.4559  -18.4270 N   0  0  0  0  0  0  0  0  0  0  0  0
    6.0531    0.6987  -18.0428 N   0  0  0  0  0  0  0  0  0  0  0  0
    7.9798    1.8711  -17.6877 O   0  0  0  0  0  0  0  0  0  0  0  0
    5.6287   -0.3714  -23.0939 O   0  0  0  0  0  0  0  0  0  0  0  0
    8.0667    4.8427  -24.0787 Cl  0  0  0  0  0  0  0  0  0  0  0  0
    8.3839    4.7985  -19.1868 H   0  0  0  0  0  0  0  0  0  0  0  0
    9.3056    5.0624  -21.4892 H   0  0  0  0  0  0  0  0  0  0  0  0
    5.4038    4.2423  -23.1487 H   0  0  0  0  0  0  0  0  0  0  0  0
    6.7579   -1.8709  -21.1133 H   0  0  0  0  0  0  0  0  0  0  0  0
    8.2912   -0.9359  -21.0774 H   0  0  0  0  0  0  0  0  0  0  0  0
    4.6364    1.2038  -20.2692 H   0  0  0  0  0  0  0  0  0  0  0  0
    4.5071   -0.5512  -20.6296 H   0  0  0  0  0  0  0  0  0  0  0  0
    7.5596    0.4103  -23.0070 H   0  0  0  0  0  0  0  0  0  0  0  0
    7.4492   -1.3353  -23.4160 H   0  0  0  0  0  0  0  0  0  0  0  0
    3.9393    0.7644  -22.6437 H   0  0  0  0  0  0  0  0  0  0  0  0
    5.5069    1.6357  -22.5430 H   0  0  0  0  0  0  0  0  0  0  0  0
    7.0850    1.1263  -20.5140 H   0  0  0  0  0  0  0  0  0  0  0  0
    4.8582    7.3198  -16.4283 H   0  0  0  0  0  0  0  0  0  0  0  0
    6.4935    6.9131  -17.0501 H   0  0  0  0  0  0  0  0  0  0  0  0
    5.0489    6.6554  -18.0861 H   0  0  0  0  0  0  0  0  0  0  0  0
    4.9653    2.4887  -16.5958 H   0  0  0  0  0  0  0  0  0  0  0  0
    6.4624    2.8656  -15.6774 H   0  0  0  0  0  0  0  0  0  0  0  0
    6.0761   -1.2428  -18.8393 H   0  0  0  0  0  0  0  0  0  0  0  0
    7.6843   -0.4592  -18.6774 H   0  0  0  0  0  0  0  0  0  0  0  0
    5.6706    5.1749  -15.4703 H   0  0  0  0  0  0  0  0  0  0  0  0
    4.2260    4.9172  -16.5064 H   0  0  0  0  0  0  0  0  0  0  0  0
    7.1343    4.5011  -17.3631 H   0  0  0  0  0  0  0  0  0  0  0  0
    2.4325    3.2652  -19.0128 H   0  0  0  0  0  0  0  0  0  0  0  0
    3.4462    2.6391  -17.8962 H   0  0  0  0  0  0  0  0  0  0  0  0
    5.0823    0.6235  -17.8151 H   0  0  0  0  0  0  0  0  0  0  0  0
  1  2  2  0  0  0  0
  1  5  1  0  0  0  0
  2  6  1  0  0  0  0
  3  4  1  0  0  0  0
  3  6  2  0  0  0  0
  4  5  2  0  0  0  0
  4 19  1  0  0  0  0
  5 20  1  0  0  0  0
  6 25  1  0  0  0  0
  7 19  2  0  0  0  0
  7 20  1  0  0  0  0
  7 21  1  0  0  0  0
  8 15  1  0  0  0  0
  8 22  1  0  0  0  0
  8 23  2  0  0  0  0
  9 11  1  0  0  0  0
  9 13  1  0  0  0  0
 10 12  1  0  0  0  0
 10 13  1  0  0  0  0
 11 24  1  0  0  0  0
 12 24  1  0  0  0  0
 13 16  1  0  0  0  0
 14 17  1  0  0  0  0
 15 18  1  0  0  0  0
 16 22  1  0  0  0  0
 17 18  1  0  0  0  0
 18 20  1  0  0  0  0
  1 26  1  0  0  0  0
  2 27  1  0  0  0  0
  3 28  1  0  0  0  0
  9 29  1  0  0  0  0
  9 30  1  0  0  0  0
 10 31  1  0  0  0  0
 10 32  1  0  0  0  0
 11 33  1  0  0  0  0
 11 34  1  0  0  0  0
 12 35  1  0  0  0  0
 12 36  1  0  0  0  0
 13 37  1  0  0  0  0
 14 38  1  0  0  0  0
 14 39  1  0  0  0  0
 14 40  1  0  0  0  0
 15 41  1  0  0  0  0
 15 42  1  0  0  0  0
 16 43  1  0  0  0  0
 16 44  1  0  0  0  0
 17 45  1  0  0  0  0
 17 46  1  0  0  0  0
 18 47  1  0  0  0  0
 21 48  1  0  0  0  0
 21 49  1  0  0  0  0
 22 50  1  0  0  0  0
M  END
> <OMEGA_C>
ecv3QMuRlUBQYaDBHy8EQZBlmkDeyarBtqfBQPR3i0AJV7LBMVixQH2JhkDR7KfBRS7MQP18i0CY
Dp/B2VjtQFdPlUC1wbPBIcuJQBvsc0DDs5nBJ9rYQC7z3j/x4YvBM+/mQM3qY79Fd6rBFk+iQEQI
vT54tKbBLQjhQH3lB7+9VrbBLs6fQBUILz+tu7LBcYfRQBVWMD5kRKPBMNitQGXr00AwcojBMpXA
QGnnMkBRc4XBbSbUQJ6rmL4MkJfBQUSpQOJVpkAEBITBl57CQHjMhUBx1IrBnNCIQNQ+eECGNaTB
+gCzQLMshEBNL5bB2xdOQBgtXUCXapPB/LLBQOHfMj+gV5DBy1r/QAh/7z9YgI3BlB60QPYpvr5T
wLjBFxEBQQj3mkAVocDBiiQGQfuMmUB+fpnB3eMUQVj/oUDu6avBmuusQEvBh0CIMLnBiEDYQCZ4
778M6KjB8KgEQT+Wb7+RnqjBkF2UQCUVmj9iJ6LB9DmQQPEdDb92CaXBn+jxQFIV0j5HDrjBOmDu
QLLqqr8NVLvBbh18QBOvQz9gJrXBVTiwQFJf0T8kWLTBDLjiQC0qkD+6HKTBWnabQNo76kAQbYPB
BsvPQFk43UCRZojB9ZChQDb51EBqsJDBn+OeQFhHH0ApxITBvcvOQJRlN0Cz1nrBb2/CQBUUn7/p
tpbBIub1QOoc675Xa5XBz3W1QHaYpUB2hnfBvjuHQFNZnUAVDYTBEEzkQMkIkECU54rB0a0bQIP4
UEA+GpjBMY5cQErnKEBXK4/B6qGiQEucHz9shY7BNbj3QJ6qk0DHj6DBwDIEQbSal0A3/KrBglLB
QOYfikAXgLLB2dWwQOdkhkBbEqjB9NfLQAzaikAkNp/BlT7tQH3QkkDW8LPBlTOJQNKqdECI1JnB
hh7ZQAS72j+2+IvB9kOuQJtwUz+fKqbBFL7oQLYzU7/v1qrBA8ufQGN4QD955rHBshHYQP7FSb96
a7bBWdnEQLwe9r7huKLBNYyvQCAW00BzhIjBFBS/QEypL0C6w4XB6/zYQAB1wr4TX5fBK9ypQE6N
pUCOHITBfUjCQISIhEAd/IrBmiiIQHwueUBPVaTBDpyyQBTKg0DUVJbB/qhMQOY0X0AFhJPBm/LD
QHMFID/KiJDB057/QPd08T/cQo3BJU3EQPwX+T6lmLjBQAsBQTGil0AO1MDB1ikGQYhcl0D5r5nB
3P4UQZ5LnkCtIazBs4ysQA1fhkBnV7nBPZzEQD1y1T9wN6XBchmSQKOYfD8wDKHBKPb0QN+u6r/t
GanB32gBQa30v72D/qnBmzOIQGUAZr2s1bLBRTWRQDLH2j8QPrTBSPbyQKfHcL8f97vBrlvAQK9i
y78li7fBtUCtQJ4Cpr+SuKLBw9KdQPDO6UDDdoPBornRQEGC20CXf4jB3CyjQGCN1EBqv5DBhFWd
QNqnG0CsoIXBuU7LQDFXM0ASDXvBSmrWQEtOrr9FdZPB8u76QArI3r1uOJjBGSm2QCdipEA1vnfB
U5yHQEdtnUDuHoTBHTzkQFPSjUCiCovBxeAZQBoMVEAzLpjBADlaQOqbKkDzSI/BXaWkQKK1BT8A
F4/BFhj4QA2DlEB9GaDBNmEEQUx/mUDEf6rBqc/BQOkijECgF7LBY2OxQP8zh0DorqfBk0DMQK9p
i0Dgyp7BIaPtQCJ3lUCme7PBlKSJQGTCdEDIgJnBv9DYQHGl4j+dEIzBGh6kQJ5gDT8WQq7BuQjD
QGKVyr9ezqbBcJ7HQA0DBj//4bbBz1XnQPPCub8mF6/BqGGxQA6lR74v16PBMTGuQOti00DM5ofB
QqPAQAKWMUDwNoXBXt3TQKlbEj85X53B+OSoQIGgpUAIpYPBD0/CQKFzhUBqgorB5LqIQPkjekCV
/6PBpNSyQKxjhEA77ZXBL7BNQG+oXUAOQ5PBBSvBQC1nhj/8apPBDs3/QFsB7z/O8YzBSaTWQCNb
U784mLjB/TQBQdgLnECaVcDBs1kGQayhl0AaNZnBXCoVQeVpoEB7mqvBxxCtQDXQiEDO87jBWgSd
QHrUzD8SQqzBCECHQO2Slz05iLHBGxupQKRYDMDvNarB5oXPQC+NBMDTkJ/Bm7a6QDxbaz/Dbr7B
2IniQKU8kz99PLTBqKEAQeKwVb9YwqvBK87zQP/AHMCDFbHB1tmUQNFXpb4Cyp7B+sWbQCSf6UA3
3oLBKDvQQNJR3ECqtYfBhGCiQOsE1UBTLpDBYhifQM0sHUCwboTBNG7PQKDYNEDIenrB48LuQJB5
0L2klZvBvHTfQM2vtj9kFaLBHKS0QJdBpEBftnbBeMmGQLD0nEDZ04PBhe/jQCzbj0CnjIrBzkIb
QO4aUkC/+JfBiu1bQEPqKEA9GI/BMm2iQAApWj/q25HBOQv4QK5Hl0D7j6DBXjwEQfMUmkAqCavB
r0vCQDoRh0A8UrLB/gOyQM2ZhECZ16fBiqDMQGa3jEAJEJ/BPprtQG0vkkDS57PBrdyKQAfZc0Ad
cJnBCTXXQPS27D+tpYzBD2LIQJosh79OXKvBzUrNQEYgur8qWZfB34X5QBLLm78P16vBrDr+QIIX
xb+lgpjBnAG6QC+8Db8JQKDBB5qrQL1q1UDIf4jBVEzEQFeBOEAIJYXBfXjIQMYgZT9v3J7B7NSp
QPERqEBw0oPBkAzEQCiniEByrYrBofSJQNh5ckCv9aPBe6WzQFHJhkDTDpbBkE9SQC3UWUCS/ZLB
cYW7QAwyrD/1S5TBFSf+QJgb3T8XW43BDEsEQXOKAsAQDqPBRgIBQbxklkBR28DBa0EGQYYqnUAB
wpnB39UUQWJIokDVSKzBadWtQPWCgECkFrnB5Ua+QHxmqb7eebHBvke5QGDeAcAX96zB1pW/QAi0
HcA8/ZfBjmTFQOKYg7+jeo/B3S8BQUOz2L+WdbPBOkkEQQU2Zr5kU6vBsSMGQeo6Cr/5cpfBpZYF
QQQ1DsDAaZLB1OOWQG2fGb9XxZ/BbaeYQEow60AvdoPBZgbNQAVr4EBmvIjBBWeeQJQq1UAkqJDB
FlOjQHwvJkC/FYPBx7HXQPTLO0AdoHvB5nvrQF/4dD9onp/Bm2e5QCpSwz/qAaXBpvO2QCeRqEBu
UHfBRVSIQLZQnUD1k4PBGUHlQK9NlEC744rBJpYhQClxRkCgk5fBtnFlQFp+KUD5Uo7BRnicQCzB
pD+Ka5LBS+L3QK+BlUBSgqDBk2EEQYmXl0D38arBrXbCQAHNhUCyWrLBuMixQDrag0DD6KfBDRvM
QFBNjEBCGZ/ByfjtQEFPkEB83LPBl9qJQMaEdUDzkZnBTWrYQGfv8T8CJI3BslLZQHeaoL/V+ajB
w33WQGVYnb/ul5TBU03RQB6tMMCMRKjB08HOQNKtLsAW3pTB64zFQLx/Fb9aG5/B6hysQNJy1UC9
JYjBRSrDQJCMN0BnjYXB6qHQQIIxYj/TZ5/BUduoQLayp0D+xYPB1+jCQIi7iEBTworBMXyJQHkZ
ckBBFqTBLI+yQFK/h0AcJJbBoMJPQJ8+XECKKZPBTMW/QD23uz9AspXB4Er/QJ3i3D9G44zB3Wbi
QBjhUcDvU57B9FUBQX/RlECbxsDB2SIGQSznmkAWqpnBCx4VQerEnkBlIazBpiiuQPKgfkC6J7nB
1fT7QLKlh79ELanBSmnKQJ2rWr9fRrDBV5XFQGUES7+KtY3BfgD5QGFohL/01ZPBfKquQHb4PMBZ
lajB9A/hQEnIUMA6Ca/BUuDcQLBqTMD2to3B9yOsQD1gO8DPB5XBAJOiQObEM7+uZp/BH1CZQCAs
60ALEIPBMs/NQGKg30BAJ4jBFI+fQCdb1kCXXZDBwBiiQPX9IkBJ+YPBGRfVQDLFOUDF93vB7I7z
QHnagT+/up/BMPDBQJP1rT9+cKbBDl21QMrypkB4GXfB8ByHQJCtnUATw4PBHyXkQD1PlECj64rB
mq4fQBalR0CzxZfBn7RiQDzyLEA2Uo7BtwegQFEeyT/FHpXB

> <OMEGA_E>
ELjkPSCw/D1wFms+WPQGP8pYFz8=

> <OMEGA_NBR>
    132343

$$$$
50164935
  -OEChem-04172616093D

 52 54  0     1  0  0  0  0  0999 V2000
    7.7523    4.6614  -20.0174 C   0  0  0  0  0  0  0  0  0  0  0  0
    8.2980    4.7797  -21.3098 C   0  0  0  0  0  0  0  0  0  0  0  0
    6.1099    4.2809  -22.2898 C   0  0  0  0  0  0  0  0  0  0  0  0
    5.5711    4.1639  -20.9959 C   0  0  0  0  0  0  0  0  0  0  0  0
    6.3858    4.3517  -19.8745 C   0  0  0  0  0  0  0  0  0  0  0  0
    7.4775    4.5933  -22.4442 C   0  0  0  0  0  0  0  0  0  0  0  0
    4.3043    3.7930  -19.2341 C   0  0  0  0  0  0  0  0  0  0  0  0
    6.8040    1.7962  -17.4447 C   0  0  0  0  0  0  0  0  0  0  0  0
    5.3534    0.5661  -20.9599 C   0  0  0  0  0  0  0  0  0  0  0  0
    4.8905    0.6326  -22.4155 C   0  0  0  0  0  0  0  0  0  0  0  0
    6.9962   -0.4884  -22.3256 C   0  0  0  0  0  0  0  0  0  0  0  0
    6.3822   -0.5555  -20.9389 C   0  0  1  0  0  0  0  0  0  0  0  0
    5.4400    6.6596  -17.0524 C   0  0  0  0  0  0  0  0  0  0  0  0
    5.9663    2.8266  -16.6891 C   0  0  0  0  0  0  0  0  0  0  0  0
    7.4670   -0.3604  -19.8693 C   0  0  0  0  0  0  0  0  0  0  0  0
    5.2336    5.2333  -16.5238 C   0  0  0  0  0  0  0  0  0  0  0  0
    6.8932   -0.5007  -18.4497 C   0  0  0  0  0  0  0  0  0  0  0  0
    6.0409    4.2116  -17.3543 C   0  0  2  0  0  0  0  0  0  0  0  0
    4.2997    3.8269  -20.5490 N   0  0  0  0  0  0  0  0  0  0  0  0
    5.5780    4.1443  -18.7780 N   0  0  0  0  0  0  0  0  0  0  0  0
    3.2087    3.4439  -18.4583 N   0  0  0  0  0  0  0  0  0  0  0  0
    6.1680    0.6907  -17.9915 N   0  0  0  0  0  0  0  0  0  0  0  0
    5.8747   -0.1421  -23.2178 N   0  3  0  0  0  0  0  0  0  0  0  0
    8.0163    1.9524  -17.5494 O   0  0  0  0  0  0  0  0  0  0  0  0
    8.1592    4.7486  -24.0418 Cl  0  0  0  0  0  0  0  0  0  0  0  0
    8.3739    4.8064  -19.1462 H   0  0  0  0  0  0  0  0  0  0  0  0
    9.3451    5.0133  -21.4339 H   0  0  0  0  0  0  0  0  0  0  0  0
    5.4831    4.1331  -23.1568 H   0  0  0  0  0  0  0  0  0  0  0  0
    5.8100    1.5186  -20.6531 H   0  0  0  0  0  0  0  0  0  0  0  0
    4.5097    0.3325  -20.2938 H   0  0  0  0  0  0  0  0  0  0  0  0
    3.8889    0.1889  -22.5145 H   0  0  0  0  0  0  0  0  0  0  0  0
    4.8638    1.6781  -22.7565 H   0  0  0  0  0  0  0  0  0  0  0  0
    7.7771    0.2852  -22.3665 H   0  0  0  0  0  0  0  0  0  0  0  0
    7.4281   -1.4606  -22.6055 H   0  0  0  0  0  0  0  0  0  0  0  0
    5.8820   -1.5242  -20.7926 H   0  0  0  0  0  0  0  0  0  0  0  0
    4.8549    7.3649  -16.4439 H   0  0  0  0  0  0  0  0  0  0  0  0
    6.5067    6.9217  -16.9932 H   0  0  0  0  0  0  0  0  0  0  0  0
    5.1065    6.7144  -18.0992 H   0  0  0  0  0  0  0  0  0  0  0  0
    4.9181    2.4933  -16.6742 H   0  0  0  0  0  0  0  0  0  0  0  0
    6.3409    2.9048  -15.6578 H   0  0  0  0  0  0  0  0  0  0  0  0
    8.2514   -1.1180  -20.0138 H   0  0  0  0  0  0  0  0  0  0  0  0
    7.9021    0.6437  -19.9809 H   0  0  0  0  0  0  0  0  0  0  0  0
    5.5650    5.1868  -15.4760 H   0  0  0  0  0  0  0  0  0  0  0  0
    4.1648    4.9795  -16.5820 H   0  0  0  0  0  0  0  0  0  0  0  0
    6.2016   -1.3559  -18.4365 H   0  0  0  0  0  0  0  0  0  0  0  0
    7.7247   -0.6908  -17.7551 H   0  0  0  0  0  0  0  0  0  0  0  0
    7.0933    4.5315  -17.3481 H   0  0  0  0  0  0  0  0  0  0  0  0
    2.4341    3.2277  -19.0526 H   0  0  0  0  0  0  0  0  0  0  0  0
    3.4354    2.6442  -17.9023 H   0  0  0  0  0  0  0  0  0  0  0  0
    5.1718    0.7062  -18.0772 H   0  0  0  0  0  0  0  0  0  0  0  0
    5.4483   -0.9752  -23.5700 H   0  0  0  0  0  0  0  0  0  0  0  0
    6.2046    0.4122  -23.9819 H   0  0  0  0  0  0  0  0  0  0  0  0
  1  2  2  0  0  0  0
  1  5  1  0  0  0  0
  2  6  1  0  0  0  0
  3  4  1  0  0  0  0
  3  6  2  0  0  0  0
  4  5  2  0  0  0  0
  4 19  1  0  0  0  0
  5 20  1  0  0  0  0
  6 25  1  0  0  0  0
  7 19  2  0  0  0  0
  7 20  1  0  0  0  0
  7 21  1  0  0  0  0
  8 14  1  0  0  0  0
  8 22  1  0  0  0  0
  8 24  2  0  0  0  0
  9 10  1  0  0  0  0
  9 12  1  0  0  0  0
 10 23  1  0  0  0  0
 11 12  1  0  0  0  0
 11 23  1  0  0  0  0
 12 15  1  0  0  0  0
 13 16  1  0  0  0  0
 14 18  1  0  0  0  0
 15 17  1  0  0  0  0
 16 18  1  0  0  0  0
 17 22  1  0  0  0  0
 18 20  1  0  0  0  0
  1 26  1  0  0  0  0
  2 27  1  0  0  0  0
  3 28  1  0  0  0  0
  9 29  1  0  0  0  0
  9 30  1  0  0  0  0
 10 31  1  0  0  0  0
 10 32  1  0  0  0  0
 11 33  1  0  0  0  0
 11 34  1  0  0  0  0
 12 35  1  0  0  0  0
 13 36  1  0  0  0  0
 13 37  1  0  0  0  0
 13 38  1  0  0  0  0
 14 39  1  0  0  0  0
 14 40  1  0  0  0  0
 15 41  1  0  0  0  0
 15 42  1  0  0  0  0
 16 43  1  0  0  0  0
 16 44  1  0  0  0  0
 17 45  1  0  0  0  0
 17 46  1  0  0  0  0
 18 47  1  0  0  0  0
 21 48  1  0  0  0  0
 21 49  1  0  0  0  0
 22 50  1  0  0  0  0
 23 51  1  0  0  0  0
 23 52  1  0  0  0  0
M  CHG  1  23   1
M  END
> <OMEGA_C>
8BL4QGAqlUCYI6DBncQEQavzmEBxeqrBIITDQFr9iEB+UbLBvEayQPo+hUCP96fBSljMQBJBi0Dr
/p7B+UfvQIr8kkDJjbPBMr2JQBXAckCF35nBVrrZQCLr5T/ZjovBqk6rQBvrED/trafBXH+cQCXy
IT/gUrPBz+DfQC4S+r7EmrLByDrMQNY1Dr/0gqfBXRSuQH4b1UBXa4jBnOu+QErmNEBPg4XB0PHu
QGSEuL5C9J7Bi3mnQAJ3p0DQMITBF5XcQLoqAL/5mJPB0E7BQEHFhkCx1YrBB5eJQC7rdEBaZKTB
In+yQL2dhEBXOZbB0ltNQMRoXECdqpPB7V/FQKXSMD+c7o/B4v27QMB9Eb7/vbnB9kIAQafn+T8c
ZYzBNowCQeb0l0CPVcDBrPsFQd7NmUBpK5nBl4UVQQZtoECbeKvBaHWvQKdChEAaQbnBzuu5QH9h
wj98OaXBdU+QQDdDqj66WaLBnuN4QL1tQT7DHbTBeKSbQOvK1j9CDbbBBt74QOwGkj6m7rLBA7Pt
QOvzur8j2LTBnzm8QDwaw780V6bBnlubQImt60A1jYPBozbQQFl+3UAQ8ofBlmijQG/c1kAxy5DB
2GCdQNKRH0CxZIXBk+jKQMjnOUCAhnrBjAUEQVYZj79OHKDBuN38QAXMJD/22J/BcRSyQPj5pUCa
nXfBZUaFQA5Yn0Dup4TBW3PGQPCOrb8BfpPB4TD3QAfXML99Co7BPfziQFsCkUDuyIrBXsgbQHOT
TkDRa5jBWd1bQFc7KUDTN4/BC3+lQFnMND8WnpDB1FiuQCipeb9Gj7zBC4zGQLUN0z4D27/B2UT4
QG5WkkC5Y6DBk5QEQXWklUB0zKrBNgjCQGaviEBQWrLBMWixQIQihUA37afBiE7MQL3oiUBSEZ/B
KRjuQOrNkEAyxLPB1ZyJQBZqc0A9rZnBir/ZQID74j8nt4vB4jDgQMiAKL+jp7LBOaqyQMSwIr8u
LrfBANu5QAZThj/eyanBmgXcQACY4Lmvt6fBSKStQBVE1EBC0IjBQNS/QJbCM0DPhIXBh5vMQDSe
f78VE5/BgkCpQL8Lp0CHI4TBFgDZQEhVBL+o2JPB7FfCQPwYhkDT3orBc8GIQOQqdkC4MKTB+9ay
QKD7g0BNMpbBzoJNQL6BXkClUpPBRzPEQPekPz9E7ZDBBvWaQKTB0j6LJrHBmGEAQaan8T99SozB
tqEBQam/lEDmosDBnmIGQcw3lkB/gJnB+mwVQTzim0Bf7avBGkWtQLw6hUCkNLnBxNrrQIuC2L/6
37HBmRv2QGc5sr1pzrfBWFuzQCyuxr7JwL/B6E6jQObBzr+NDrbBIgKqQHTEqj+lRKLBHgrIQKKP
+D/ug63B2Vv6QBjf7z6xTKXBd3ibQBH96kBD3IPBAZfPQBCQ3UCj54jBdQShQAem1EAMB5HBmy+e
QJMwH0BAOYXBf4jMQHV6OECPqnrBNZapQGTRi78KjJ/B8WjbQFNb/b+SjKDB3My1QG3ypkB81XfB
UDqHQGQInkAnCoTBPpzPQASlpL/oAo7BvOP7QH4twL79kJPBkx7kQMQAkECg84rBc+YaQPYpUkBX
+JfBjmRbQH3AKkDF8o7B81OlQLuPYD9sw5LBrxCPQDyxiz+hNbbBORCDQJXTXLvl/azBmDP4QAKo
kkA5gKDB1lIEQVBjl0Cn7KrBZE/BQCDOikCbZrLBDTyxQEV1hUBA+KfBf2DMQKGliUB8IZ/B9Dvt
QPqZk0BA3LPBV96JQC34cUD2s5nBky7ZQCzK4j+kN4vBk0jdQAIrXT8x6qvBNHzlQCxPcL6aErTB
khCaQODmVr0fgLDBYmOzQK7y1j6dyKbB4FyvQP/t1EC79YjB44vAQCHaNUB5F4XBETS5QENPRb/Y
6J7BLxypQKDVp0B4XoTBeyvVQDII0b7WO5XB6I3CQFxghkCd3YrBWr+IQLwWdkBnNqTBUSKzQJ8z
g0DbOZbB30ZOQJkjXEBYXJPBBA7CQGbUOz9mso/BLEy6QFcmIb/B/bfBKs3/QOhT8j8BrozBU/AA
QbxFmUAGv8DBdnkGQcjllUCAo5nBxyEVQaLrnUBWFqzBNkGsQJQ0iECnOLnBXjL3QNfhaT/o+KXB
U8rZQP3m6z+O1K/BEjf5QEDrEj7qs7rBLaf1QNKHi792S7DBpZaCQOhRUb+ZJq7Bp2CJQM40Sz/y
RLTBU0mjQECFoT89zaLB1eucQAEN7EAVMITBV4LRQF9o3UDpr4jBTSakQD2r1UClTJHBU+WeQPQA
IkBdYITBZYrOQKGzPEAGIHrBkYCZQNWgir9qA5zBtFbIQGlnzb8yOaPBo0G0QKFdp0CdC3jBmeWG
QH+gn0CLooTBs/jWQA0qor9zwI/B1Yz1QI07FL5U95fBQTfkQJinkECmAIvB+YYbQCBeUEDqAZjB
DVtcQFbRJ0BXGo/BRiiiQO0bRD+JHI/ByZu1QJl5ir6AXb/B/cG3QJQo0L9rGrjBIiT4QBVtlUB1
KKDB2mwEQUvXmkCHiKrBN0nCQOcZjEDHM7LBbdyxQO55hkBA0KfBDnzMQANoi0CD5Z7BA+vtQIF9
lkBMirPBNhKKQCgnc0AXo5nBjRXYQAIz5j/5xIrBRpudQAqNJT59C7PBvDzEQAl6LT8SHbnB4lfe
QGxvcb9z2qzBToSxQHH2/L6mN6nB7Y+vQN0X1kCEdYjBBpvAQCcLOUCfrYTBg6K1QLqxAj/tDqDB
FD+oQGfJqEBjJ4TB3UrKQHJ1Lr5FVpbBcy/CQFSth0BonYrBKWmJQKrLdkD3J6TB2Q+zQL1YhEBD
CpbBr1lOQBGcXEAwZZPB71zBQMp8Jj+iDo3BR+zkQJh2v74mqbfBuk/8QFIs/j+nQY7B8F8BQYf6
nUBkWsDBgEkGQdvqmECoPpnBaigVQURVokCRmqvBcLStQOKAiECoFbnByzeIQGCNfD/8vbDBf7KL
QPJeEr9U1rfBLKa8QJCMTz/zo8HBEUvPQGUT0T8Vv7XB0c/2QNcDEL/NTqfBsg3gQDSiAsBGKK3B
XnWeQBF8rr8esKbBMMCcQHMK7UCbuYPB/73RQDoq3kDT3YfBsHSlQLOc10BG4ZDBZPeeQN7wJUDk
q4PBGZPPQOzAQEBQi3nB1rfJQJ9arT+8o6LB666VQBlxYT8o2p3BBkuyQECEp0Cnc3fBuAGGQLr2
oEBHvYTBy5q8QG5Nlr/eOZXBpBHtQCArgb6kh5fBGLbjQGVlkkB0torB9UEcQPvyT0DFHZjBkLVc
QFuoKEDtFI/BzM6pQLCdvz72HIjBm1nhQN3wir/qNb3B4h4BQZjSpjxdO7jBN673QDRSlkAzgaDB
N8cDQaK9m0By96rBPaTAQPT1i0DHSrLBxwqxQNlqhkBA06fBQD/MQIDGi0ATCJ/B1QfsQETPlkBc
2LPBXmCKQHOpckBseZnBB6rXQHAp5D8uuIrBcI3KQFa/r798Ea7BTeWjQLZOWL8dSrTBUJDdQHdP
Oz8/CLXBpMvhQGdKyb3J46rB9pmvQLAz1kCfB4nBCPzAQNwtOUDHp4TBuXrLQExlKD83t6HBKC2q
QP5fqUBePYTBO5PNQNDRA77INJfBwkrDQHqVh0Ass4rBavGIQNc+dkAE/KPBhJKzQKYzhEBfEJbB
+uVPQP05XECBEZPB1ty+QOl6Pj/cqI7BWn+xQORp7D7W77jBDIL9QEDZ8z+cLI3Bicb/QBUknkA5
xcDBO0kGQRM1mkDisJnBC2oUQdSto0A6M6zBVJurQFnzh0DgErnBj2jAQLiD+L9s+abBNdXeQJ+O
AMCiJ7PBaw2bQDAOxr/usLrBhXqIQALhM7+l467BZLjhQHeP5j89QrPBNWH1QBKR1j6ZArvBisYB
QfvGl76R9qjBCFmdQDtx7UCvP4TBLK7RQPoC30C1+IjBVK2jQN1S1kA1T5HBJTGfQH1tJ0DMlYPB
zzLQQKXLQEDijXnBUVXbQOed0D+ll6DB6LqpQFivUT9726PB1wS2QEOTqUDc53fBAASIQCbjoEBt
SoTBSde4QFb5gb95tZfBK7buQH6F474opZXBlAXlQLSekUCT5YrBDxgdQDaVT0B1q5fBxNpeQOJJ
KEC1yI7BdtqhQIwAFz8dhIvBqk+xQA9k0j4n7cDBJrSdQFgJmD+QiLbBr//3QB2blEB8HqLB/ZgD
Qe8dmkCUnKzB77+/QGhIikA2qLPBZ9WwQBh9hEB9JKnBrrvMQJDIiUC8hKDBcxnrQJsXlUCXXbXB
GFaLQDh1b0ClkprBR1nXQNToA0A2WYnB0OvaQMIrLr+8FqvB6VrYQIY6EL/GJbfBbgOgQJrIRT+A
U7DBzwfAQJ1dAT/EQKfBVYG9QFFxzkD5vH/BNorBQGgHU0CyloTB4SKoQEyzMT7w65zBWZOnQEvh
tUAW5ojBfEnHQJBmTb3BiJPBmu3CQLBxj0DwjYzBDQKJQPYPckCnE6XBIY20QOiWg0CpfZfB/JJT
QAbzWUCWz5PBcQq+QDyZcz+PWYvBYQSsQCi3Ar4UOrnB84X8QEYCCEBdeIzBvED+QBQHnEBpV8LB
npwGQWCemEDpX5vBDy0UQTQxokAD+q3BQ0WqQDmBhkAKXLrBuEfNQCkU0b95UajBcDH8QN9uGL8/
TKjBNFvvQMIiOj7HHrrBBrjeQOtmxL/b9rrBZX9+QFO6DT/woK3BlgiiQMU/6T+l6LLBPpDUQEVq
sT/QDKbBZEypQA6U6UB44XrBAF/CQA4CuUC9/XHBE6fcQJ5t2kCrqoLB2vqfQKiYQ0DHw4LBnyvS
QMxwZUA5XXrB6ZeSQIDxgD8K8JrBqTqVQGXSPb+6Jp7BOmiIQJEgqkDzDYbBTbCiQCGMy0DAuY/B
+MXCQBuPh7/gNpDBcnroQJsiej17U5bB5VXkQEpbmkBgDI3BjncfQFzUTEAeKJjBVatjQIGHJkBY
fo/B97ujQHMUVD8T54bBZWaqQDWxuD47MsDB2XKYQKEha7/FbbnB

> <OMEGA_E>
gAViPtDAYz6QZnw+mCGTPlQEnj4Y1tM+

> <OMEGA_NBR>
    137883

$$$$
50164899
  -OEChem-04172616093D

 57 61  0     1  0  0  0  0  0999 V2000
    7.7232    4.5031  -19.9521 C   0  0  0  0  0  0  0  0  0  0  0  0
    8.2560    4.6368  -21.2487 C   0  0  0  0  0  0  0  0  0  0  0  0
    6.0172    4.3767  -22.2050 C   0  0  0  0  0  0  0  0  0  0  0  0
    5.4917    4.2464  -20.9076 C   0  0  0  0  0  0  0  0  0  0  0  0
    6.3372    4.3043  -19.7961 C   0  0  0  0  0  0  0  0  0  0  0  0
    7.4039    4.5737  -22.3734 C   0  0  0  0  0  0  0  0  0  0  0  0
    4.2276    3.8793  -19.1443 C   0  0  0  0  0  0  0  0  0  0  0  0
    6.7081    1.6448  -17.6990 C   0  0  0  0  0  0  0  0  0  0  0  0
    5.5238   -1.3945  -22.6023 C   0  0  0  0  0  0  0  0  0  0  0  0
    4.4247   -1.0425  -20.3545 C   0  0  0  0  0  0  0  0  0  0  0  0
    5.5327    0.8823  -21.5226 C   0  0  0  0  0  0  0  0  0  0  0  0
    6.5581   -2.3814  -20.5278 C   0  0  0  0  0  0  0  0  0  0  0  0
    7.6750   -0.4293  -21.7068 C   0  0  0  0  0  0  0  0  0  0  0  0
    4.7082   -0.4039  -21.7356 C   0  0  0  0  0  0  0  0  0  0  0  0
    6.8632   -1.7372  -21.9060 C   0  0  0  0  0  0  0  0  0  0  0  0
    5.7592   -1.3963  -19.6422 C   0  0  0  0  0  0  0  0  0  0  0  0
    6.8793    0.5601  -20.8243 C   0  0  0  0  0  0  0  0  0  0  0  0
    6.6257   -0.1286  -19.4562 C   0  0  0  0  0  0  0  0  0  0  0  0
    5.3144    6.4302  -16.8224 C   0  0  0  0  0  0  0  0  0  0  0  0
    5.9523    2.5852  -16.7640 C   0  0  0  0  0  0  0  0  0  0  0  0
    5.2515    4.9744  -16.3350 C   0  0  0  0  0  0  0  0  0  0  0  0
    6.0247    4.0326  -17.2833 C   0  0  2  0  0  0  0  0  0  0  0  0
    4.2026    4.0015  -20.4529 N   0  0  0  0  0  0  0  0  0  0  0  0
    5.5312    4.1061  -18.6958 N   0  0  0  0  0  0  0  0  0  0  0  0
    3.1209    3.5640  -18.3704 N   0  0  0  0  0  0  0  0  0  0  0  0
    5.9849    0.7781  -18.5026 N   0  0  0  0  0  0  0  0  0  0  0  0
    7.9169    1.7864  -17.8532 O   0  0  0  0  0  0  0  0  0  0  0  0
    8.0666    4.7474  -23.9768 Cl  0  0  0  0  0  0  0  0  0  0  0  0
    8.3691    4.5522  -19.0879 H   0  0  0  0  0  0  0  0  0  0  0  0
    9.3169    4.7878  -21.3832 H   0  0  0  0  0  0  0  0  0  0  0  0
    5.3654    4.3265  -23.0647 H   0  0  0  0  0  0  0  0  0  0  0  0
    4.9419   -2.3170  -22.7446 H   0  0  0  0  0  0  0  0  0  0  0  0
    5.7300   -0.9364  -23.5809 H   0  0  0  0  0  0  0  0  0  0  0  0
    3.8595   -0.3310  -19.7345 H   0  0  0  0  0  0  0  0  0  0  0  0
    3.8326   -1.9592  -20.4928 H   0  0  0  0  0  0  0  0  0  0  0  0
    5.7342    1.3480  -22.4986 H   0  0  0  0  0  0  0  0  0  0  0  0
    4.9583    1.5798  -20.8952 H   0  0  0  0  0  0  0  0  0  0  0  0
    5.9668   -3.2968  -20.6776 H   0  0  0  0  0  0  0  0  0  0  0  0
    7.5046   -2.6341  -20.0275 H   0  0  0  0  0  0  0  0  0  0  0  0
    8.6314   -0.6655  -21.2173 H   0  0  0  0  0  0  0  0  0  0  0  0
    7.8686    0.0316  -22.6866 H   0  0  0  0  0  0  0  0  0  0  0  0
    3.7595   -0.1623  -22.2373 H   0  0  0  0  0  0  0  0  0  0  0  0
    7.4373   -2.4407  -22.5269 H   0  0  0  0  0  0  0  0  0  0  0  0
    5.5506   -1.8551  -18.6644 H   0  0  0  0  0  0  0  0  0  0  0  0
    7.4576    1.4843  -20.6781 H   0  0  0  0  0  0  0  0  0  0  0  0
    7.5995   -0.4417  -19.0517 H   0  0  0  0  0  0  0  0  0  0  0  0
    4.7557    7.0745  -16.1276 H   0  0  0  0  0  0  0  0  0  0  0  0
    6.3636    6.7581  -16.8630 H   0  0  0  0  0  0  0  0  0  0  0  0
    4.8692    6.5004  -17.8258 H   0  0  0  0  0  0  0  0  0  0  0  0
    4.8992    2.2723  -16.7092 H   0  0  0  0  0  0  0  0  0  0  0  0
    6.4017    2.5372  -15.7611 H   0  0  0  0  0  0  0  0  0  0  0  0
    5.6939    4.9134  -15.3298 H   0  0  0  0  0  0  0  0  0  0  0  0
    4.1995    4.6557  -16.2925 H   0  0  0  0  0  0  0  0  0  0  0  0
    7.0808    4.3403  -17.2712 H   0  0  0  0  0  0  0  0  0  0  0  0
    2.3223    3.4486  -18.9611 H   0  0  0  0  0  0  0  0  0  0  0  0
    3.2933    2.7136  -17.8733 H   0  0  0  0  0  0  0  0  0  0  0  0
    4.9877    0.7719  -18.4282 H   0  0  0  0  0  0  0  0  0  0  0  0
  1  2  2  0  0  0  0
  1  5  1  0  0  0  0
  2  6  1  0  0  0  0
  3  4  1  0  0  0  0
  3  6  2  0  0  0  0
  4  5  2  0  0  0  0
  4 23  1  0  0  0  0
  5 24  1  0  0  0  0
  6 28  1  0  0  0  0
  7 23  2  0  0  0  0
  7 24  1  0  0  0  0
  7 25  1  0  0  0  0
  8 20  1  0  0  0  0
  8 26  1  0  0  0  0
  8 27  2  0  0  0  0
  9 14  1  0  0  0  0
  9 15  1  0  0  0  0
 10 14  1  0  0  0  0
 10 16  1  0  0  0  0
 11 14  1  0  0  0  0
 11 17  1  0  0  0  0
 12 15  1  0  0  0  0
 12 16  1  0  0  0  0
 13 15  1  0  0  0  0
 13 17  1  0  0  0  0
 16 18  1  0  0  0  0
 17 18  1  0  0  0  0
 18 26  1  0  0  0  0
 19 21  1  0  0  0  0
 20 22  1  0  0  0  0
 21 22  1  0  0  0  0
 22 24  1  0  0  0  0
  1 29  1  0  0  0  0
  2 30  1  0  0  0  0
  3 31  1  0  0  0  0
  9 32  1  0  0  0  0
  9 33  1  0  0  0  0
 10 34  1  0  0  0  0
 10 35  1  0  0  0  0
 11 36  1  0  0  0  0
 11 37  1  0  0  0  0
 12 38  1  0  0  0  0
 12 39  1  0  0  0  0
 13 40  1  0  0  0  0
 13 41  1  0  0  0  0
 14 42  1  0  0  0  0
 15 43  1  0  0  0  0
 16 44  1  0  0  0  0
 17 45  1  0  0  0  0
 18 46  1  0  0  0  0
 19 47  1  0  0  0  0
 19 48  1  0  0  0  0
 19 49  1  0  0  0  0
 20 50  1  0  0  0  0
 20 51  1  0  0  0  0
 21 52  1  0  0  0  0
 21 53  1  0  0  0  0
 22 54  1  0  0  0  0
 25 55  1  0  0  0  0
 25 56  1  0  0  0  0
 26 57  1  0  0  0  0
M  END
> <OMEGA_C>
qyT3QA8ZkEDnnZ/BnBgEQdJglEBC/anB8IzAQPENjEDbo7HB57uvQFLih0DXQqfBJMrKQA+9iUBe
Xp7Bj+zsQAJckkDK/LLBfUiHQNBFeECCJ5nB/qjWQIaI0j+nl43BIsOwQOp+sr9+0bTB3paNQElw
hb8I1qLBhAuxQOjgYT85LqzBTdzRQOloGMD6OKTBxJn1QG3L276Mp63BO6mWQDXOzr514q3BJ5/b
QD5d3r9wP6/BBUu4QLe4sr8hI53B6iLcQG5jDz8imKbBzAXUQKSvA75SppvBvA+qQFnEzUAzlIbB
G3m+QEt0JUCpHIbB6guoQEcun0AOroLBZ8rAQG0LgUAbRIrBX3uGQKUMgECVn6PBvf+wQGRlg0AD
kZXBw7xHQBMYZECH9pLBPYS/QL4xRz9PBZTBklf9QBKq5D9N047BmRABQc/ql0Bo0L/B7ucFQaKr
kUARtJjBExIVQUI1mUDKEKvBjrGrQElyikB9hLjB2iOeQH1KFMDm9LXBw1u3QLm3b7+ppbzBcAF3
QDl/qb5H4J3B6Ul1QC/H+r9U8aPBun63QLeJrD8S/bPBJaqeQJY3yj9cKafBNvC+QF/+UsC7a6XB
yyXwQHyUKMBAOKDBDxoKQT9fKr8PvanB78v7QNSgAT05frXBAZxwQFk1Jr735bHBOP7tQEY0HMAS
N7TBw56xQOhz7b+1UJXBBqXuQCD9vT+8bKXBSC/zQMon4r7VaZjBBS+YQIdi4kBCBYHB6aLLQC9C
2EB954bBT9CbQGED0EAvm47B4cWcQFxtEUB8rIXBmdrMQDhiIkCXLXzB0DS2QFw6nUC2RnXBN2KG
QI/7lEAMV4LBgpXiQHDjikCEK4rBWaEUQCW2XEBvsJfBpMRSQByrLUB2/I7BHpufQH+ZRT/jbJPB
34D3QP75jUAgY5/BNHUEQRzUkUAau6nBnCnBQJCIjECrerHBbPmvQFHPiEBBH6fBDezKQAJKiUCa
Mp7BwMjtQFAKkUC9w7LBdSKHQFCveEC5HpnBWofXQHbW0z/MyI3BH+6tQLqsBMDxtLDBOI21QBey
5r93upzBpKiLQEJU4b1FfqfBm3X1QEwaur97wKjBYKXLQDtuej77erPBn/qWQHnGzb8gXqbBgWjX
QM19oL/6fLLBBSzfQFnGer9jXp7BPQC1QPDTNz/oL6nBAxzUQJ+YBD98qp/BjaypQPKbzEBlVIbB
P7y+QFbgIkAUDobB8G6nQPblnUDEgILB2G/AQC8egEBzGIrBF5WGQNwFgUBWkqPBzdKwQFQog0CS
b5XBjSBHQOuLY0BgCZPB5prAQA+0hD8p3pXBIJX+QGf/4D93TY7BqMMBQRaAlUCtj7/BUAoGQZ6b
jkCJcpjB0YUVQYljlUABwqrB5WSsQKryi0AvYrjB7R62QJ3kSMAl+q/Bbm+YQNP49r+JlLfB53+l
QGOFu79PYJXBHLu9QGiRN8BT/pvBmJpsQNBP4zytZq7BnNh2QBAdbj6ULqDBVon9QEVRIcBSA6jB
D3UJQR8DX7+v96nB9vjoQGyAVT9zr7TBviO2QE10xT7YWrrBCEpzQHKTDMBUKKXB5nrnQPrUy792
1bnBYqn0QNdYj79ufZfB9cmsQCtX5D+66KnBdM3xQEvfiD/aXKHBCJ6XQHIf4UCKyIDB00bLQG4N
10AVj4bB7bybQGoSz0AaY47BAT6dQJx2DUB5poXBNDvNQPQDH0DLGXzBP0u1QKivm0Ch3XTBWcGF
QKW0k0DWQoLBOCLiQA5HikCk8onBOEgUQIvUXEB30pfBk/xRQJWMLEBULY/BA/egQJh4cD/J9ZTB
fJ32QNRRjEC7I57BYdMEQZ1KkUCXSKjBzk3DQDvZi0CsybDBen6wQNAnh0CKo6bBBvLJQKzWhkCk
cJ3BmgvwQGHGkEAVmbHBixiFQGRndUDFIJnBfjS9QJxbkz9V2IrBuJKvQHPXwL/k+7PBZVKNQCYW
WL+SaaLBojy1QArgWj+2SK3BHiPOQE0AFsCRmKLBIJf2QOabH7/eeK3BwNCXQBUZwr6p7K3BmHTZ
QHgS8L8nEa7B1hO3QJgmm79jZpzBAJ/fQEvYAj++XKfBE/vVQPysjzzx2ZvBT9SvQOfNyUDTsobB
uYKuQClsGkBMz4TB/7mnQLptnEBYcYLBs9C7QMRjckCFm4nBdF6GQOtTgECViqPB3nWuQHNafUDj
CJXBXFJAQNN/Y0CNaJPBdPXEQClLlD8lx5XBI1a8QHfEuj259YXBluADQQNclkCMJr7BlwIFQZO0
jECi/ZbBSe0VQWaAlUBG8KjB8KuvQMSui0Dz5bfBOtiaQBA0GcA7cLTBAU63QD/mlL8vHrzBAdt5
QFtjA70sHp7Be6lwQNfu3L88wqLBPr+8QFIimT+kb7XBb5ukQLoW1D/+7KjBPP64QNcpTsDkDqPB
uLbrQB9dJ8DAWJ7BRzQKQaLKYb8cR6nBjxz+QCw7kb60oLXBHTJ0QJm4+L2lKrLB+wzqQJyrK8BR
YLLB5WqvQDuHxr/7P5TBKUL0QLxfsz9GDKfBPzT0QKb9oL53NJjBr+SgQGJI4UAoT4HBAH7SQPi4
z0AJGIfBG+qhQK7qzECFvo7BX1mLQPX1GED3cITB/6i7QCvmFkBFUXnBF421QCLmmUDLv3TBMvmE
QNgXl0BhBoLBp9jeQA7ld0D9FonBeIQOQK2oYECJa5jBQ9tGQIdLK0COq4/B94O+QL3X/z88zpnB
XkH2QFQVk0Clb6HBPmACQYatmUCC8avBLgS8QHVNjkA8urLB2LqtQHWuh0CjNKjBXqXKQKsuikC4
tp/BKqXnQPl9l0CIkLTBuiKJQG5cckDZnZnBFovUQM171z+zJo3BjP7BQH+8er+YorXB4JWUQHy6
3z4fj6nB+rDkQEYzQj9r06nBAF6eQObk/7+4Z6XBQmPuQKFY2L8Z0qXBHOS8QLDM3T5durDBKJbG
QHA2AsDIoqzBdhuZQONbGb9nYKDB+qXpQKxvkb5twKDBjCzBQEhPk75oY5nBE4C6QLcDr0BlonTB
nujBQNCdMkB0/IXB/sCsQFYkqkCk9YXB4p7EQP9EhUAKrIvBdrWFQNJSe0BOCaTBVkOzQD5qgkCS
rJbBG9NPQJxrWkAZ3JLBflO4QGQ8eT+lpZPBmG/7QInbyz9PJY7BpLr5QISeoEDpicHBfR0GQdfQ
lEAgyJrBKBATQbZpoEAkba3Bid+lQBRjjEABWLnB2aSlQKlqm79RgLrBRLbeQIUegL+WuLrBe1eQ
QONEuD8pGabBDfBwQMNXOj7Zca7BFbUAQeRMPT8M6a7BT/vgQIA/4T/KTKbBx+uBQPToDsA6ParB
I8ahQKTHL8A4AZ/B5+LxQBAEHMCwbJ/Bqn0FQXVa2r+I86rB6nq5QPQDlz9SIrfB0EDKQMZNQsDh
KLDB4nx4QBf/E7+jV5vBiBcDQam/UL3P8pvBb93EQKnWjL93h5PBp7KoQLOIyUDmPG3BCbmzQOwu
kUCQ7WvBbAHdQC/VtUAx8HPB7jWgQP3zI0AgOYTBuCjUQMRbNUA08HzBbC+KQLuTo0AZNIbBz3ez
QP45yEBpNYrBi57mQHorjkCqKozBNZsaQKE5UUD9JpfBAGBfQA8qJECIFo/BeP6aQGPdrT/Mg5TB
YFr0QCWzi0A3RKDBIgoCQfhNkEBHxKrBSQu7QObGjEA9zLHB2oSrQH6EiEAQS6fBwfrHQKUkh0Ah
p57B3YHnQJQ4kEDuhrPBwYuEQIVteUCZ8ZjBE0PEQLXcpD9gyozBfh/lQIoegr8GU7TBsIm4QOLN
Wz+X2KzBS0P5QNhOLD192qLB26maQKDGu78vVK3BEuDaQP8AE8DOJ6PB9YHmQDK4nz7xC67B0WzI
QBm5AsCZcK7BaKubQGCnGr5s1abBV7bcQH5Ver86tZzBaj+uQATn2b7ocpvBT8S6QOoyykB7QIfB
vRa0QEbdG0AA3oXBmbyvQBphnUB4CoPBNk3AQN/ac0CllYrB9X+CQFAzgkDwWqPBk0qvQIHHfkA6
uJXBp41CQLscakCQfZLB1PupQPHAUj8TFJXB24boQP25Xz/aIIvBrkf7QIRKk0DBjMDB3wUFQRKq
i0BgipnBvQITQUHnk0AcH6zBaSGlQKZnjUAferjBeBPYQHz/VL/yXLzB0d4CQQzitb8ZBLXBYYq5
QOuz5j8RVajBHxCrQFt3hT9a17TB/t4MQRruvL68r6PBlJ/6QLQ4fD94Vp7BLYqNQI4qor8AVrXB
2kKGQFC1DMBZL6nB81nGQAQZQcA97J7BVl/7QD5mLcCd5aPBjoH6QAV2hT86UrLBaHLHQFgHP8BC
+bLB+St2QEHEgj4+HqbBjX3qQI2Ylb9cwZTBCbGaQCMNm787tJfBoXeuQKZ94kC+rIHB7LXdQFRs
zUCg8IfBIQisQF3LzkAmKY/BlAaRQKm7F0D4SYXBzyjCQNkIFkDpqnvBmHG+QBormUAYO3bBzsOM
QCOKmkARVoLB1WzjQNn/d0BH2IrByp8NQGrjaEA7/JbBMZNJQLnFMUBWzI7BNR+RQKMrtD8f9JbB

> <OMEGA_E>
ACNwPPAAEj7AoHU+kIeZPrgJoT4=

> <OMEGA_NBR>
      5005

$$$$
50172173
  -OEChem-04172616093D

 48 50  0     1  0  0  0  0  0999 V2000
    6.9605    8.6836  -20.6968 C   0  0  0  0  0  0  0  0  0  0  0  0
    7.6600    8.4121  -19.5026 C   0  0  0  0  0  0  0  0  0  0  0  0
    5.5947    8.3542  -20.8041 C   0  0  0  0  0  0  0  0  0  0  0  0
    6.9937    7.8174  -18.4113 C   0  0  0  0  0  0  0  0  0  0  0  0
    4.9282    7.7557  -19.7161 C   0  0  0  0  0  0  0  0  0  0  0  0
    6.0101    0.3697  -21.8483 C   0  0  0  0  0  0  0  0  0  0  0  0
    6.7129   -0.8132  -22.1451 C   0  0  0  0  0  0  0  0  0  0  0  0
    4.4804   -0.9015  -20.4284 C   0  0  0  0  0  0  0  0  0  0  0  0
    5.6244    7.4858  -18.5143 C   0  0  0  0  0  0  0  0  0  0  0  0
    4.8864    0.3240  -20.9960 C   0  0  0  0  0  0  0  0  0  0  0  0
    6.3023   -2.0389  -21.5817 C   0  0  0  0  0  0  0  0  0  0  0  0
    5.1846   -2.0821  -20.7199 C   0  0  0  0  0  0  0  0  0  0  0  0
    5.4530    1.4568  -18.3736 C   0  0  0  0  0  0  0  0  0  0  0  0
    5.4217    3.8013  -16.7769 C   0  0  0  0  0  0  0  0  0  0  0  0
    5.0124    2.3856  -19.5410 C   0  0  2  0  0  0  0  0  0  0  0  0
    4.9791    4.5124  -18.0709 C   0  0  1  0  0  0  0  0  0  0  0  0
    4.1632    3.5773  -19.0004 C   0  0  1  0  0  0  0  0  0  0  0  0
    4.1842    1.5984  -20.5899 C   0  0  0  0  0  0  0  0  0  0  0  0
    4.8893    6.8925  -17.3217 C   0  0  0  0  0  0  0  0  0  0  0  0
    4.1324    5.6771  -17.7119 N   0  0  0  0  0  0  0  0  0  0  0  0
    7.6118    2.8955  -17.9335 O   0  0  0  0  0  0  0  0  0  0  0  0
    6.5942    1.5712  -16.0034 O   0  0  0  0  0  0  0  0  0  0  0  0
    6.9923   -3.1735  -21.8686 O   0  0  0  0  0  0  0  0  0  0  0  0
    3.6838    4.3594  -20.0971 O   0  0  0  0  0  0  0  0  0  0  0  0
    6.4349    2.3925  -17.2097 S   0  0  0  0  0  0  0  0  0  0  0  0
    4.6146   -3.7297  -19.9374 Br  0  0  0  0  0  0  0  0  0  0  0  0
    7.4718    9.1440  -21.5293 H   0  0  0  0  0  0  0  0  0  0  0  0
    8.7082    8.6601  -19.4238 H   0  0  0  0  0  0  0  0  0  0  0  0
    5.0592    8.5602  -21.7191 H   0  0  0  0  0  0  0  0  0  0  0  0
    7.5306    7.6153  -17.4962 H   0  0  0  0  0  0  0  0  0  0  0  0
    3.8817    7.5021  -19.8000 H   0  0  0  0  0  0  0  0  0  0  0  0
    6.3302    1.3102  -22.2718 H   0  0  0  0  0  0  0  0  0  0  0  0
    7.5673   -0.7820  -22.8050 H   0  0  0  0  0  0  0  0  0  0  0  0
    3.6262   -0.9328  -19.7683 H   0  0  0  0  0  0  0  0  0  0  0  0
    4.5625    1.0580  -17.8655 H   0  0  0  0  0  0  0  0  0  0  0  0
    6.0511    0.6242  -18.7725 H   0  0  0  0  0  0  0  0  0  0  0  0
    6.0027    4.4967  -16.1533 H   0  0  0  0  0  0  0  0  0  0  0  0
    4.5357    3.4621  -16.2201 H   0  0  0  0  0  0  0  0  0  0  0  0
    5.9117    2.7880  -20.0301 H   0  0  0  0  0  0  0  0  0  0  0  0
    5.8729    4.8572  -18.6115 H   0  0  0  0  0  0  0  0  0  0  0  0
    3.3169    3.1688  -18.4286 H   0  0  0  0  0  0  0  0  0  0  0  0
    4.0410    2.2284  -21.4802 H   0  0  0  0  0  0  0  0  0  0  0  0
    3.2046    1.3462  -20.1578 H   0  0  0  0  0  0  0  0  0  0  0  0
    5.6210    6.6261  -16.5448 H   0  0  0  0  0  0  0  0  0  0  0  0
    4.1877    7.6403  -16.9236 H   0  0  0  0  0  0  0  0  0  0  0  0
    3.5629    5.9043  -18.5018 H   0  0  0  0  0  0  0  0  0  0  0  0
    6.5953   -3.9089  -21.4168 H   0  0  0  0  0  0  0  0  0  0  0  0
    3.1668    5.0849  -19.7671 H   0  0  0  0  0  0  0  0  0  0  0  0
  1  2  1  0  0  0  0
  1  3  2  0  0  0  0
  2  4  2  0  0  0  0
  3  5  1  0  0  0  0
  4  9  1  0  0  0  0
  5  9  2  0  0  0  0
  6  7  2  0  0  0  0
  6 10  1  0  0  0  0
  7 11  1  0  0  0  0
  8 10  2  0  0  0  0
  8 12  1  0  0  0  0
  9 19  1  0  0  0  0
 10 18  1  0  0  0  0
 11 12  2  0  0  0  0
 11 23  1  0  0  0  0
 12 26  1  0  0  0  0
 13 15  1  0  0  0  0
 13 25  1  0  0  0  0
 14 16  1  0  0  0  0
 14 25  1  0  0  0  0
 15 17  1  0  0  0  0
 15 18  1  0  0  0  0
 16 17  1  0  0  0  0
 16 20  1  0  0  0  0
 17 24  1  0  0  0  0
 19 20  1  0  0  0  0
 21 25  2  0  0  0  0
 22 25  2  0  0  0  0
  1 27  1  0  0  0  0
  2 28  1  0  0  0  0
  3 29  1  0  0  0  0
  4 30  1  0  0  0  0
  5 31  1  0  0  0  0
  6 32  1  0  0  0  0
  7 33  1  0  0  0  0
  8 34  1  0  0  0  0
 13 35  1  0  0  0  0
 13 36  1  0  0  0  0
 14 37  1  0  0  0  0
 14 38  1  0  0  0  0
 15 39  1  0  0  0  0
 16 40  1  0  0  0  0
 17 41  1  0  0  0  0
 18 42  1  0  0  0  0
 18 43  1  0  0  0  0
 19 44  1  0  0  0  0
 19 45  1  0  0  0  0
 20 46  1  0  0  0  0
 23 47  1  0  0  0  0
 24 48  1  0  0  0  0
M  END
> <OMEGA_C>
XrzeQOHvCkEck6XBDh/1QNqXBkFSBZzBtwezQPSqBUHVbqbBpszfQAUo+kA+SpPBrrOdQAIv+ECH
up3BplLAQJJKvT44ya7BWNDWQMEsUL89KbHBJF+PQObLZr9qbaPBJ/uzQKOL70AyHZTBdl2cQAbo
pT7R96fBf6zJQFl9AsA5p6zBNeilQBFBBcBGwqXBD3+uQOR2uj8T/ZLBgn6tQEJIc0AXN4bBfWWg
QCytGED6U5zBx1SfQKJlkEBCkZDBpDiFQBHzZEDbAJjBR+WFQJKYzD8tuKTBNHWcQPSO3EDJkorB
2jyEQAartUD1sY3BppPzQGhQOUDhd4/BxwPTQIgbyT/sBoDBp8DfQMEaS8Dm8q7BZsNrQJmAi0DH
xqDBZurNQG0fGUCNrYnBcaqTQCmzbsDPf5/BIhnvQMtNEkHyO6zBzlQLQfaPCkHlY5vB0eShQKj2
CEG5wK3BuPrwQNew80Ax+IvBgW54QFcR8EBiZp7Bz5DKQJG0pz+5LLLBrSfyQKowSL+gcLbBeBNo
QJ3Lbr9pJZ7BYQCSQCZuhz+Z7I7BuKLBQKHMHz8bLpbBGRbAQKjkj0DyOYHBxSSRQKyTXUCxwoHB
3yy9QMVuMkCuPaDBku67QHVum0Bv5JTBcUhUQCrOSkC7bZPBDVCBQN6eDkBm16vBsBhNQM1QrD8X
Q6HBkN+zQKgI1ECoW4TB4wGGQKF99ECLY4fBJQZkQDfwvEC8A5TB6AzTQBUresCEVavBuaxKQL+3
okACI57BUa3gQPRNCUGy56bBtpe0QOu5BEGDhafBf3/3QAvbBEGobZ3BV0ufQOmX90DZo57BkTvi
QOvn90Cmh5TBqtC6QLRExT4tJK7BRN/SQGcWQL958bDBwr6NQO9ofr8rl6LBdAC2QJTZ7kAjGJXB
lhqYQCG3hj6T/qbB7GHIQB+LAMBwl6zBEa6lQAxXCMClaKXB+SyrQLwauD96ApLBkoWtQGcldkCy
IYbBivScQLycFEDjmJvBgUufQCCbkECkpJDBINWDQNPtZEBetZfBLIKAQFZ/vz9RTaPB34+eQHCg
3UB7VYvBZ0mFQN/wtkDKCo7BLc3xQKlxNUDEiI/BCgnSQFbWzz/jz37Bet7fQIpCRsDSXa/Bsvlr
QAKYikDTyqDBo3bMQMlRGUBsTInBSY6WQEvBdMCjcJ/BK/7wQMY4EEHosK3BZSSjQDAOCEGEyq7B
EqoMQThGCEFi/JzB4wZ7QJqO8ECVH5/BSsbzQPUv8UAPR43BRujCQGPLrD83dbHB+WXtQEOJKL+w
brbB0MlmQGirir/cC53BbsWOQHvkiz+Jm43BmyK9QOKrET8B/5TBugnBQC+LkUDbboHBwTGRQOld
Y0AMd4HBc6C5QFT8KUCF8p/B7uK7QMw8mkAkLZXBPSBQQGZkT0C8BJPBLGZwQEwxB0DwSarBdyZG
QFv0mD+kHp/BdR62QD1f1UAVIYXBmdeIQN559kArRojBn/NlQKPBvUC7YJTBK/XUQAlYd8BtzqvB
bkxNQFweo0BodJ7BavzVQGxwHMBcFa7BGPmvQAAcIsCODqjB7r/jQOkjmb83CrLBJlOXQB94sL9F
JKbByh7LQPCGJb1DIrDBbtvcQA904kCFD5DBsib5QER0+EDg7ZbBGGSjQFxT7EBTEp3B6I+kQIAi
B74WRarBxMqxQEBH3EBZI5PBuJnqQK/VA0Hs7aDB6L+/QIWyAEFBAqTBii23QJxMfkCZEIbBlv+2
QNFi4D8pNpTBAPiTQFFTkkCuQo3B/LaVQCQIJEDTjprBspyZQCA/g0CQF5nBNKmSQNwIxECu/ovB
JFOGQOkPhj8Iz6nBGkGbQEByEkD4GabBtlSHQNm56T8e3ILBzG/YQPHQzz+Z/YDBXO0CQdQQDkHH
q6fBpQJxQOgElkDoa5/BSMOyQIiQC0BYZobBYg+sQM5iCkESqbHBU5PoQNdOVcCwq6/Brr6lQDMi
X8AU6KTBTZcAQWIpkL+aiLbBtnx0QN5Jub+RgaHBirXVQJtxaj+OJ7PBhhjoQGtd1kA+eIjBsvkM
QVmp/UDNiZTBFkqCQAxa6ED+WJ/Bv9bWQGfjiECpConBxAizQCyYikCKnXvBy96wQMt6LT+bQJXB
j1PXQD3//j/OHpfBhyJqQLHYhUBobYrB2QFrQL4WEEBMCJjBvUK5QGGRjUC785vBzC2aQGrWy0BF
n4PByCFkQI32zkCd4o3BiKByQHM3nD8M3rHB/hNYQEoaTj87SaTB+/eOQA6PQ0CzNarBvv32QCoX
EkHn/K3BQxh3QCgcjUDdpabB8enRQP8zAkGmh6/BBmXpQBBc50CKNKnB36irQM4oC0GJkqvB3dra
QEyS3EBw4J7BiL2cQO2GBUEaUaHB/dCHQBocpr9yA6TBOJKfQFOPFcCbzajB4GrBQDB7hz4TLKjB
12q0QKRx7kA+45rBo+aYQJAnDDzNhaPBhZXIQI4ABcBCD63BfZbZQKwkRr82pKzB8kiqQPqowT8L
/o3BJ6yvQFexhUBpPobBhi2aQP3RCkA2gZjB0SGfQIyBkkAhd5HBumaBQJrCX0CbeJbB5op8QK8r
kj8a1J7BuX2jQPJN4kAc6Y/BLqeHQH3Fu0ATmZDBFI7yQOJjOUAbK47BhdjTQCuHCUB8fHjBXmPf
QANkRcCKpLHBMdFkQGYmgEDLiKDBuYfNQGmnKUAjLIfBJqMIQe2Xw76dKLLBmTzdQAR4BkHRaLfB
c0IDQexf2UDjRazBesaZQPdYFkH8Z7DB1BPtQNagxkB9/5nBFjV+QDcsDEF2XZ7BORNRQJogwL/n
t6DBUliSQCxVVcAgN6nBzNDNQBXmoj+SRajBgMuOQALfoz8x0ojBMqO7QEH0FT+r44/BCnLEQF8w
n0BOG4PBzlSUQIMYgUBi0oDBp1K2QC/+GUAMcJ3BqOK6QCvKlkByxZbBjwpNQFhBU0BGApHB2elb
QImE1T+DZKXBUZtMQAfbNj/pXZnBmJ++QNV020B5korBuc6QQMMm/UCbqIzBCeZpQCPNvkB4C5fB
qRT6QInbL8DKFrTB9HJGQKwWmkDyZJ/B

> <OMEGA_E>
EIxrPnTpiT5KJHE/gOtAPw==

> <OMEGA_NBR>
      3585

$$$$
50172170
  -OEChem-04172616093D

 48 50  0     1  0  0  0  0  0999 V2000
    5.8742    0.4019  -21.7795 C   0  0  0  0  0  0  0  0  0  0  0  0
    6.6145   -0.7427  -22.1231 C   0  0  0  0  0  0  0  0  0  0  0  0
    7.1176    7.5296  -17.9092 C   0  0  0  0  0  0  0  0  0  0  0  0
    5.3275    7.8272  -19.5450 C   0  0  0  0  0  0  0  0  0  0  0  0
    4.4506   -0.9563  -20.3293 C   0  0  0  0  0  0  0  0  0  0  0  0
    7.6166    8.4603  -20.1094 C   0  0  0  0  0  0  0  0  0  0  0  0
    4.7888    0.2926  -20.8859 C   0  0  0  0  0  0  0  0  0  0  0  0
    5.7567    7.4273  -18.2578 C   0  0  0  0  0  0  0  0  0  0  0  0
    6.2705   -1.9949  -21.5749 C   0  0  0  0  0  0  0  0  0  0  0  0
    8.0440    8.0491  -18.8300 C   0  0  0  0  0  0  0  0  0  0  0  0
    6.2584    8.3449  -20.4698 C   0  0  0  0  0  0  0  0  0  0  0  0
    5.1836   -2.1016  -20.6783 C   0  0  0  0  0  0  0  0  0  0  0  0
    5.4016    1.4562  -18.2649 C   0  0  0  0  0  0  0  0  0  0  0  0
    5.4467    3.8646  -16.7655 C   0  0  0  0  0  0  0  0  0  0  0  0
    4.9467    2.3437  -19.4565 C   0  0  2  0  0  0  0  0  0  0  0  0
    4.9647    4.5293  -18.0734 C   0  0  1  0  0  0  0  0  0  0  0  0
    4.1360    3.5702  -18.9585 C   0  0  1  0  0  0  0  0  0  0  0  0
    4.0626    1.5280  -20.4309 C   0  0  0  0  0  0  0  0  0  0  0  0
    4.7665    6.8869  -17.2453 C   0  0  0  0  0  0  0  0  0  0  0  0
    4.0804    5.6840  -17.7623 N   0  0  0  0  0  0  0  0  0  0  0  0
    7.5945    2.8729  -17.9420 O   0  0  0  0  0  0  0  0  0  0  0  0
    6.6076    1.6445  -15.9341 O   0  0  0  0  0  0  0  0  0  0  0  0
    6.9910   -3.0939  -21.9170 O   0  0  0  0  0  0  0  0  0  0  0  0
    3.6758    4.3189  -20.0879 O   0  0  0  0  0  0  0  0  0  0  0  0
    6.4291    2.4209  -17.1676 S   0  0  0  0  0  0  0  0  0  0  0  0
    9.7218    8.1826  -18.3759 Cl  0  0  0  0  0  0  0  0  0  0  0  0
    5.7318    8.8453  -22.0603 Cl  0  0  0  0  0  0  0  0  0  0  0  0
    4.6849   -3.7870  -19.9315 Br  0  0  0  0  0  0  0  0  0  0  0  0
    6.1359    1.3622  -22.1988 H   0  0  0  0  0  0  0  0  0  0  0  0
    7.4467   -0.6626  -22.8068 H   0  0  0  0  0  0  0  0  0  0  0  0
    7.4498    7.2084  -16.9330 H   0  0  0  0  0  0  0  0  0  0  0  0
    4.2870    7.7361  -19.8197 H   0  0  0  0  0  0  0  0  0  0  0  0
    3.6276   -1.0328  -19.6342 H   0  0  0  0  0  0  0  0  0  0  0  0
    8.3296    8.8637  -20.8131 H   0  0  0  0  0  0  0  0  0  0  0  0
    4.5184    1.0947  -17.7179 H   0  0  0  0  0  0  0  0  0  0  0  0
    5.9747    0.5974  -18.6444 H   0  0  0  0  0  0  0  0  0  0  0  0
    6.0579    4.5781  -16.1934 H   0  0  0  0  0  0  0  0  0  0  0  0
    4.5769    3.5621  -16.1640 H   0  0  0  0  0  0  0  0  0  0  0  0
    5.8371    2.7000  -19.9951 H   0  0  0  0  0  0  0  0  0  0  0  0
    5.8402    4.8746  -18.6429 H   0  0  0  0  0  0  0  0  0  0  0  0
    3.2793    3.2064  -18.3724 H   0  0  0  0  0  0  0  0  0  0  0  0
    3.8193    2.1487  -21.3059 H   0  0  0  0  0  0  0  0  0  0  0  0
    3.1338    1.2352  -19.9194 H   0  0  0  0  0  0  0  0  0  0  0  0
    5.3036    6.6252  -16.3217 H   0  0  0  0  0  0  0  0  0  0  0  0
    4.0171    7.6619  -17.0267 H   0  0  0  0  0  0  0  0  0  0  0  0
    3.6000    5.9394  -18.6013 H   0  0  0  0  0  0  0  0  0  0  0  0
    6.6401   -3.8550  -21.4697 H   0  0  0  0  0  0  0  0  0  0  0  0
    3.1788    5.0712  -19.7885 H   0  0  0  0  0  0  0  0  0  0  0  0
  1  2  1  0  0  0  0
  1  7  2  0  0  0  0
  2  9  2  0  0  0  0
  3  8  1  0  0  0  0
  3 10  2  0  0  0  0
  4  8  2  0  0  0  0
  4 11  1  0  0  0  0
  5  7  1  0  0  0  0
  5 12  2  0  0  0  0
  6 10  1  0  0  0  0
  6 11  2  0  0  0  0
  7 18  1  0  0  0  0
  8 19  1  0  0  0  0
  9 12  1  0  0  0  0
  9 23  1  0  0  0  0
 10 26  1  0  0  0  0
 11 27  1  0  0  0  0
 12 28  1  0  0  0  0
 13 15  1  0  0  0  0
 13 25  1  0  0  0  0
 14 16  1  0  0  0  0
 14 25  1  0  0  0  0
 15 17  1  0  0  0  0
 15 18  1  0  0  0  0
 16 17  1  0  0  0  0
 16 20  1  0  0  0  0
 17 24  1  0  0  0  0
 19 20  1  0  0  0  0
 21 25  2  0  0  0  0
 22 25  2  0  0  0  0
  1 29  1  0  0  0  0
  2 30  1  0  0  0  0
  3 31  1  0  0  0  0
  4 32  1  0  0  0  0
  5 33  1  0  0  0  0
  6 34  1  0  0  0  0
 13 35  1  0  0  0  0
 13 36  1  0  0  0  0
 14 37  1  0  0  0  0
 14 38  1  0  0  0  0
 15 39  1  0  0  0  0
 16 40  1  0  0  0  0
 17 41  1  0  0  0  0
 18 42  1  0  0  0  0
 18 43  1  0  0  0  0
 19 44  1  0  0  0  0
 19 45  1  0  0  0  0
 20 46  1  0  0  0  0
 23 47  1  0  0  0  0
 24 48  1  0  0  0  0
M  END
> <OMEGA_C>
E/m7QHfGzT52PK7BB6rTQIogPr8J/LDBb8PjQCby8ED5RY/BJHuqQDV4+kAnXJzBs2uOQKLOdL9r
oqLBLrvzQFVdB0H+36DBej2ZQHrTlT5IFqfBJze4QIus7UAPEJLB7afIQBNY/79pmazBE7QAQfPI
AEHpo5bBqkTIQIOEBUEzwqPBDuClQBiBBsAQbaXBIdqsQIhkuj+FHpLBkkuuQM5Ud0DTH4bBAUue
QID+FUDUppvBON+eQMHvkEBClpDBVVqEQGJ+ZEAXq5fBqQCCQPuWwz97cqPB5oaYQFdh3EB69onB
2pKCQBDjtUAwGY7BRQbzQPTcN0BNiY/Bq3HTQKB/0j9G8n7BHLbfQIQCRsAYVq/BjEBrQLE0ikAW
tKDBYbvNQD7vGkBHV4nBcowbQb/rAkHTAZPBxGq3QFuGDUFse7DB5OqVQBJecsCpc5/BKFnEQKVb
rj8fl7HB90ruQEqgKb9ddLbBqWTuQCKr5kDHdofBWS+JQDaO90C/jp7BKCtoQNExhL/NEp3BP0YF
QZDRDUE/gabBfZaQQOwfjD9Jvo3B2zC/QDruGD+8J5XBdtrBQKR/kkAhjIHBqXWSQPX4Y0DhT4HB
ccm6QLTMLED/9Z/BhuK6QO38m0C2JJXBZ99RQE41TUCm+pLBsW50QFqECUBtcqrBkJBIQLkanj/n
Wp/BzbapQJ0B1EDvkoLByIuAQOIt9UCjNojB12ZmQOAPvkB/z5TBwnvUQGi4dsDxwavBoHFLQPlG
okDwTp7BuXO8QBhx0T44Fa7ByFzUQMiYO78Jy7DBfgemQNhQ+EAze53BqbrkQE089EBw2pHBx+2N
QHIrdr8v1KLBHJHrQD9GCEFD+qPB/wuZQK4Tlj6rJafBppa4QACt7UAUgpPBIw3JQLO0/r+jjKzB
doy/QAPeBEE7tKXB6hr+QF7fAkEfD5rBTrmlQHqmBsAHjaXBbX+rQGHqtz8zHZLBM2qtQIgAdUCD
AIbB1YudQHqcFUD2oJvBwDmfQNpWkEDbe5DB2v6DQObHZEC/n5fBPouBQEK5wz+2iKPBrhKdQOKH
3EBYd4rBwK+EQOVVtkCr6I3BIBPyQHrENEAGSY/BkFvRQAHpyz9WvX7Bol/gQCJ6RcDJPq/BLGtr
QLnRikCrnqDBHmLMQOBIGECFNYnBFLGoQL+3C0Fy/bHB+DkaQfZSB0HA1JfBR4uVQCjccsAJtJ/B
iy7FQBbGrz9wTrHBwWfvQMiIJb/pILbBl0aEQNkX80DAzJ7BGhXzQKjQ60DkR4rBwjJmQPnAhb94
bJ3BZBz/QHgGD0HPQKrBJ/aOQEVaij8D0o3BYKO9QI0iEz83KpXBFefAQCnbkEADQ4HBMQ6RQMQB
YkB9XIHB/1e6QGEALEBK2J/B+dC7QEdQmkCE+JTBptRQQI8fTkBc8pLBVDJ0QPDZCUB/iKrBp0FH
QOIEnj88ip/BPM6xQILK00DUsoPBh3yGQDeP9UCJ74fB+9VnQLAgvkAocJTBuePUQAx0dsCSxqvB
Ti5MQEkFo0CCMJ7B

> <OMEGA_E>
KCYJPhCaSj4=

> <OMEGA_NBR>
      5520

$$$$
50172179
  -OEChem-04172616093D

 58 60  0     1  0  0  0  0  0999 V2000
    8.2102    7.7285  -18.3426 C   0  0  0  0  0  0  0  0  0  0  0  0
    7.1825    7.1905  -17.5402 C   0  0  0  0  0  0  0  0  0  0  0  0
    5.8105    0.3602  -21.8188 C   0  0  0  0  0  0  0  0  0  0  0  0
    7.8881    8.4219  -19.5263 C   0  0  0  0  0  0  0  0  0  0  0  0
    6.5627   -0.7823  -22.1421 C   0  0  0  0  0  0  0  0  0  0  0  0
    5.5191    7.9972  -19.1265 C   0  0  0  0  0  0  0  0  0  0  0  0
    4.4332   -0.9771  -20.3059 C   0  0  0  0  0  0  0  0  0  0  0  0
    5.8337    7.3351  -17.9331 C   0  0  0  0  0  0  0  0  0  0  0  0
    4.7404    0.2600  -20.9064 C   0  0  0  0  0  0  0  0  0  0  0  0
    6.5375    8.5647  -19.9036 C   0  0  0  0  0  0  0  0  0  0  0  0
    6.2491   -2.0228  -21.5511 C   0  0  0  0  0  0  0  0  0  0  0  0
    5.1807   -2.1201  -20.6314 C   0  0  0  0  0  0  0  0  0  0  0  0
    5.4400    1.4829  -18.3607 C   0  0  0  0  0  0  0  0  0  0  0  0
    5.4504    3.8692  -16.8677 C   0  0  0  0  0  0  0  0  0  0  0  0
    4.9108    2.3491  -19.5402 C   0  0  2  0  0  0  0  0  0  0  0  0
    4.9200    4.5317  -18.1574 C   0  0  1  0  0  0  0  0  0  0  0  0
    4.0882    3.5632  -19.0281 C   0  0  1  0  0  0  0  0  0  0  0  0
    5.2629    7.5665  -22.3340 C   0  0  0  0  0  0  0  0  0  0  0  0
    5.5595    9.9221  -23.1394 C   0  0  0  0  0  0  0  0  0  0  0  0
    4.0101    1.4995  -20.4683 C   0  0  0  0  0  0  0  0  0  0  0  0
    4.7079    6.7865  -17.0929 C   0  0  0  0  0  0  0  0  0  0  0  0
    6.1474    8.8331  -22.2362 C   0  0  0  0  0  0  0  0  0  0  0  0
    4.0386    5.6739  -17.8046 N   0  0  0  0  0  0  0  0  0  0  0  0
    7.5873    2.9853  -18.1194 O   0  0  0  0  0  0  0  0  0  0  0  0
    6.7232    1.7200  -16.0757 O   0  0  0  0  0  0  0  0  0  0  0  0
    6.9826   -3.1192  -21.8731 O   0  0  0  0  0  0  0  0  0  0  0  0
    3.5984    4.3050  -20.1501 O   0  0  0  0  0  0  0  0  0  0  0  0
    6.1787    9.4061  -20.9172 O   0  0  0  0  0  0  0  0  0  0  0  0
    6.4711    2.4820  -17.3047 S   0  0  0  0  0  0  0  0  0  0  0  0
    4.7291   -3.7883  -19.8185 Br  0  0  0  0  0  0  0  0  0  0  0  0
    9.2429    7.6091  -18.0502 H   0  0  0  0  0  0  0  0  0  0  0  0
    7.4267    6.6688  -16.6266 H   0  0  0  0  0  0  0  0  0  0  0  0
    6.0517    1.3122  -22.2681 H   0  0  0  0  0  0  0  0  0  0  0  0
    8.6711    8.8413  -20.1405 H   0  0  0  0  0  0  0  0  0  0  0  0
    7.3809   -0.7096  -22.8433 H   0  0  0  0  0  0  0  0  0  0  0  0
    4.4907    8.0703  -19.4481 H   0  0  0  0  0  0  0  0  0  0  0  0
    3.6228   -1.0460  -19.5953 H   0  0  0  0  0  0  0  0  0  0  0  0
    4.5897    1.0941  -17.7812 H   0  0  0  0  0  0  0  0  0  0  0  0
    6.0278    0.6424  -18.7581 H   0  0  0  0  0  0  0  0  0  0  0  0
    6.0441    4.5981  -16.2965 H   0  0  0  0  0  0  0  0  0  0  0  0
    4.6039    3.5254  -16.2551 H   0  0  0  0  0  0  0  0  0  0  0  0
    5.7689    2.7208  -20.1194 H   0  0  0  0  0  0  0  0  0  0  0  0
    5.7747    4.8939  -18.7476 H   0  0  0  0  0  0  0  0  0  0  0  0
    3.2472    3.1863  -18.4275 H   0  0  0  0  0  0  0  0  0  0  0  0
    5.6775    6.7784  -21.6883 H   0  0  0  0  0  0  0  0  0  0  0  0
    4.2404    7.8074  -22.0079 H   0  0  0  0  0  0  0  0  0  0  0  0
    5.2420    7.2136  -23.3757 H   0  0  0  0  0  0  0  0  0  0  0  0
    6.1819   10.8269  -23.0765 H   0  0  0  0  0  0  0  0  0  0  0  0
    5.5379    9.5637  -24.1792 H   0  0  0  0  0  0  0  0  0  0  0  0
    4.5363   10.1575  -22.8114 H   0  0  0  0  0  0  0  0  0  0  0  0
    3.7378    2.0930  -21.3535 H   0  0  0  0  0  0  0  0  0  0  0  0
    3.0979    1.2112  -19.9253 H   0  0  0  0  0  0  0  0  0  0  0  0
    5.1122    6.4174  -16.1388 H   0  0  0  0  0  0  0  0  0  0  0  0
    3.9772    7.5851  -16.8971 H   0  0  0  0  0  0  0  0  0  0  0  0
    7.1645    8.5887  -22.5763 H   0  0  0  0  0  0  0  0  0  0  0  0
    3.6487    6.0373  -18.6506 H   0  0  0  0  0  0  0  0  0  0  0  0
    6.6524   -3.8725  -21.3975 H   0  0  0  0  0  0  0  0  0  0  0  0
    3.0942    5.0492  -19.8427 H   0  0  0  0  0  0  0  0  0  0  0  0
  1  2  1  0  0  0  0
  1  4  2  0  0  0  0
  2  8  2  0  0  0  0
  3  5  2  0  0  0  0
  3  9  1  0  0  0  0
  4 10  1  0  0  0  0
  5 11  1  0  0  0  0
  6  8  1  0  0  0  0
  6 10  2  0  0  0  0
  7  9  2  0  0  0  0
  7 12  1  0  0  0  0
  8 21  1  0  0  0  0
  9 20  1  0  0  0  0
 10 28  1  0  0  0  0
 11 12  2  0  0  0  0
 11 26  1  0  0  0  0
 12 30  1  0  0  0  0
 13 15  1  0  0  0  0
 13 29  1  0  0  0  0
 14 16  1  0  0  0  0
 14 29  1  0  0  0  0
 15 17  1  0  0  0  0
 15 20  1  0  0  0  0
 16 17  1  0  0  0  0
 16 23  1  0  0  0  0
 17 27  1  0  0  0  0
 18 22  1  0  0  0  0
 19 22  1  0  0  0  0
 21 23  1  0  0  0  0
 22 28  1  0  0  0  0
 24 29  2  0  0  0  0
 25 29  2  0  0  0  0
  1 31  1  0  0  0  0
  2 32  1  0  0  0  0
  3 33  1  0  0  0  0
  4 34  1  0  0  0  0
  5 35  1  0  0  0  0
  6 36  1  0  0  0  0
  7 37  1  0  0  0  0
 13 38  1  0  0  0  0
 13 39  1  0  0  0  0
 14 40  1  0  0  0  0
 14 41  1  0  0  0  0
 15 42  1  0  0  0  0
 16 43  1  0  0  0  0
 17 44  1  0  0  0  0
 18 45  1  0  0  0  0
 18 46  1  0  0  0  0
 18 47  1  0  0  0  0
 19 48  1  0  0  0  0
 19 49  1  0  0  0  0
 19 50  1  0  0  0  0
 20 51  1  0  0  0  0
 20 52  1  0  0  0  0
 21 53  1  0  0  0  0
 21 54  1  0  0  0  0
 22 55  1  0  0  0  0
 23 56  1  0  0  0  0
 26 57  1  0  0  0  0
 27 58  1  0  0  0  0
M  END
> <OMEGA_C>
yVwDQeJP90C/vZLBNdflQMgY5kBPUozB8O+5QKxnuD7yjK7BBWv8QC7ABkHQNZzBVQHSQDpCSL8H
I7HBs5ywQLzo/0AiA5nBl9yNQHwger9ucqLBEK66QCy56kAWd4/BC7GXQKQahT5IQKfBWzPRQDAJ
CUGqOp/BYfjHQLt1AcC+aKzBP8ilQBmvB8AdDaXBHBSuQPTQvT+44pLByWmuQMWhd0D48IbBbyWd
QIRXFkBIUpzBgHCdQG4DkUBwQpHBRNKCQCkMZECQOZjBzWmoQLYg8kALrLLBseexQMbAHkGOHbnB
l1KAQEXuvz8av6PBtqaWQKwq2UA2vojBVLfEQERUDUG247HBjjyBQDSQtUC9b47BSMvyQF8OP0CT
9JDBtSTXQEoo3D/wmoDBVHHfQL2hR8AF/K7BfEtmQPLCiUB/M6HBlLfFQGV/FkFsVqfBoBPPQNHY
HkD7b4rB+lSXQBl0csBFjJ7B/OITQY1980DHZpDBtKftQANn1UBWA4XBeqfBQGb2pz8YJbLB+bwK
QSp2DUHBH6HB8S/sQG2lNb8Vv7bBw7OPQMwfAUGdlZvBQdxnQLLjhb8bw5zBc96SQAkNjD/jP47B
kePAQJpzJD+fEJbBp2nBQJwjk0ArX4LBZlOTQL6fYUB3CoLBx5q4QEMiLkCN9KDB+Mm4QJ2anEAu
+5XBtdJPQNjrS0CGa5PBBa61QGXo2ECPga3BHbGHQD7W+UAeELDBWr6nQM/V5kBWAbvBW9LFQNM6
LUGXnLjBtzaxQM8EGUH5bsHBeimRQAaFIkHBfbbBtTdvQFrzBUD/06rB5kNGQOMImz8VZ5/BvJaj
QD5bzUAxHIHBdIp+QA658kA0LYfB00PlQEtrCUFJnLTBhYNpQDUxwUCBNJXBsuDUQJ3Wd8AZLqvB
bQdGQCGToUDCvZ7BU8MDQcrN+ECx0pHBl5vlQA6R6EBJo4vBuAa5QIbWuj5+ea7BKE//QBhjBUEM
75vB21TRQAz1RL/aJrHBhCyzQP2Q/EDSppnBpNyNQKZPfb8YSqLBrVi7QMna6kATh4/BbRqXQKY/
gT5UF6fBjUXVQNU4BkFP/Z/B/uPHQODrAMCEbKzB2Q+mQCz0B8CF+aTBeB+tQHYCvj9Mq5LBe3+u
QPQFeUAL8IbBKlmcQBbeFUAJKpzB+C2dQARVkUCPRZHBxU+CQJ42ZECSIpjBYJeZQIsZIEEq3bTB
D9C4QBeh90DeBrnBv+N+QD8Uvj9GhaPBVFuWQMQX2kC38YjBUqqqQK8qC0EwJbDBcvyAQG0UtkDt
hY7Bl1PyQJz1PUBOCJHBQubWQDjp3T+xg4DBxZLfQJ6YRsBVF6/BIz5lQJKQiUBsJ6HBt6HPQJKM
EEHVqqnB4a/OQAoeH0DKYorBrHCYQBguc8COeZ7BaPETQfZ490DVzo7B/PHrQBBf2kDZ64PB91DA
QAYGqT+FELLB6rcMQbeyC0GFoKDBlT3rQNvYL7/d1LbBRsGSQB8Y/kD6npzBoVdoQFbHiL+Fi5zB
596RQPuVjj8Z9I3BIoi/QLyoIT9xyJXBnOrBQNXok0ANgYLB84+TQHr/Y0BD64HB0N63QHkBLUB7
06DBUWS4QHG5nECJEpbBFtVOQNXFTEDBRZPBuamPQDPUKkE8WK7B+eGyQPzYJ0E/mrnB8ut7QNWp
HEHECbrBKu3EQCba2UAjcbXBM1+dQNVQ8EDuOb7BM0vSQJJXA0Fqyr3BKINsQI/mBEA2k6rBYQ1F
QF0AmD+SGp/Bc26iQJDmzkCHKoHBtSp+QP8B9ECYrIfBva6RQFWMA0EfQavBy9BoQKpcwUAmUZXB
R2nVQOkUd8AJRqvBHlVFQKeRoUDuvJ7BcOACQQWMAEGLR5HBVtriQKzr8kDLG4vBNvy4QFhGvT7x
ha7B7H0AQZmPA0GiXJzBSSLRQBzkQ79rR7HBYwK2QI/18UAEFpvB2EuOQB5CfL/SPKLBCMq6QL2t
60AY+Y/BcGaXQMrAgz4pC6fBw1zZQIfw/kCBTqHBq9vHQMCuAMBSiazBEVSmQHC5B8BLAaXBCoOt
QL/Ivj+Rk5LBUhuuQA6ueUBCwobBRq+cQMg6FkB4D5zBVf+cQHJ9kUBRHpHBUW6CQOhBZEDSA5jB
mHOoQD/ZAEExArvBHf6fQJenG0HsNqzBAKN/QHqevj+7bKPB3JWVQDps20DZVYnB43HAQICGDUGK
YbLBR3aAQAg9tkCIgI7BkmvyQFzxPkCDw5DBhKnWQEig3j/wVIDBCm3fQGRjRsCwQa/BT2BlQLOQ
iUDACKHBQETYQByA+0DzQazBYaLOQDvEH0DzMIrB2/iYQHgFc8CQfZ7BtxkSQY2rA0F5gI3BgsPm
QCyU7UDqoILBvCPAQMeoqT9sILLBw+INQWUGCUGGFqHBu8rqQCrLLr+RB7fBg0mXQFPU7EBe1J7B
ELBpQMdHiL9rbZzBxUOSQGv9jT/16Y3BSj3AQEsQJT+xspXBhVXBQI5SlEAeTYLBAhqTQBF2ZEC9
xoHB2ie4QO6nLUD5t6DB1ky4QBLsnECG4ZXBeBhPQNRtTEB6LZPBgTa/QD2E7UC8b7/BbBiQQF1W
7UDcNLfBh9OYQFQHDEH9kcDB6+KwQGLSJEGPAKbBfmOQQM7DJkGX0LHBYqiHQKhnEUF2c6jBiR1t
QGVIBUC/dqrBqOJFQK1FmD/b/57BIYGhQJSu0UDfa4HBWxZ8QBtR9UCfY4jBeTDXQLE/GEEAbbbB
tzdmQClmwEBnUJXBx2HVQIjddsD6aqvB5TFFQAl6oUDsnZ7Bjc8BQVfU+UBMFZTBTh/lQBdD50CO
M43BY/W6QNisuT6vpK7BKP/1QPlfCEHPL53BDdHSQJb0Sb8AGbHBv9arQPwEAEFz75jBC8KNQFY8
dL8xqKLBfSS5QNP76kAwnY/BHTuYQDwSjj6GeafBHdTJQE3/CUGpkp/BMCLIQFCCAcDbW6zBdIKl
QCDDBsAjHqXBd8qtQD0fvT+7BpPBzCOvQBAGdkBD8IbBndOdQGIGF0ASeJzBLD2eQCbIkEAGLpHB
r7+DQKIHZUAsXpjBitboQIAyD0HGfrbBxLqiQOtN90CR1LPBXCyBQIySwz+hD6TBQWKXQIlI2EDn
bYjBm9m6QB33EEFsNbLBf86BQHG9tECJFI7BIj7zQC4kPECA55DBMnDWQOYt1j92rYDByWXfQIpB
SMB+z67BoiVqQJ//ikCbVKHBt4a6QL4JGEGQKqfBAxjPQIOyHEBoeorBUTeWQHL4cMBWl57B4awS
QfKE9kBAZJLBe1PvQP9H1kAvH4bBYzXDQI+0pz9UPbLB56IGQfXqD0FEV6LBkFbtQItBOr+TnbbB
vkqKQPdtAEF5AJvBMupmQMiJgb81Ep3BtySSQK9mjT8FeI7BzCPAQC5NID++MJbBQYXCQNn2kUAM
WoLBP/qTQHaDYECNB4LBObi5QOx5LkA796DBe4y5QEsTnUC9zZXB4aBQQOorTUACu5PBXJL5QHN9
HkEySLXBBtr5QBhtAkGAL7LBUP7nQK5nC0H+Fb/Bp+6BQAhb+kAturDB9puhQAyR70AYabzBrHez
QN+b3UCZgq/BSbJyQGM0CEDFK6vBEvpGQIVZoD8d4J/BhV2mQOoozEDDEIHB6Jh/QPoY8UDoYYbB
yVyqQDwZHUFGErfBNfRoQCGCwEBCu5TB8WHUQEsZeMCgA6vBAzNKQPPlokCw257B

> <OMEGA_E>
MENYPhhhWT7Q3XI+SMpQPg==

> <OMEGA_NBR>
      9625

$$$$
50172247
  -OEChem-04172616093D

 35 36  0     1  0  0  0  0  0999 V2000
    4.1840   -0.7935  -20.8494 C   0  0  0  0  0  0  0  0  0  0  0  0
    5.0295   -1.9147  -20.8785 C   0  0  0  0  0  0  0  0  0  0  0  0
    5.9512    0.5597  -21.8616 C   0  0  0  0  0  0  0  0  0  0  0  0
    4.6566    0.4553  -21.2994 C   0  0  0  0  0  0  0  0  0  0  0  0
    6.3422   -1.7960  -21.3737 C   0  0  0  0  0  0  0  0  0  0  0  0
    6.7937   -0.5677  -21.8949 C   0  0  0  0  0  0  0  0  0  0  0  0
    5.2970    1.3630  -18.6838 C   0  0  0  0  0  0  0  0  0  0  0  0
    5.4897    3.6249  -17.0001 C   0  0  0  0  0  0  0  0  0  0  0  0
    4.8068    2.3890  -19.7621 C   0  0  2  0  0  0  0  0  0  0  0  0
    4.9765    4.4161  -18.2233 C   0  0  1  0  0  0  0  0  0  0  0  0
    4.0237    3.5528  -19.0908 C   0  0  1  0  0  0  0  0  0  0  0  0
    3.9390    1.7019  -20.8490 C   0  0  0  0  0  0  0  0  0  0  0  0
    4.2757    5.6296  -17.7593 N   0  0  0  0  0  0  0  0  0  0  0  0
    7.5507    2.6585  -18.3587 O   0  0  0  0  0  0  0  0  0  0  0  0
    6.6123    1.2890  -16.4212 O   0  0  0  0  0  0  0  0  0  0  0  0
    7.1775   -2.8663  -21.3327 O   0  0  0  0  0  0  0  0  0  0  0  0
    3.4226    4.3876  -20.0834 O   0  0  0  0  0  0  0  0  0  0  0  0
    6.4057    2.1842  -17.5669 S   0  0  0  0  0  0  0  0  0  0  0  0
    8.5699   -0.4186  -22.5787 Br  0  0  0  0  0  0  0  0  0  0  0  0
    3.1726   -0.8885  -20.4826 H   0  0  0  0  0  0  0  0  0  0  0  0
    4.6724   -2.8690  -20.5205 H   0  0  0  0  0  0  0  0  0  0  0  0
    6.2920    1.5022  -22.2642 H   0  0  0  0  0  0  0  0  0  0  0  0
    4.4328    0.9734  -18.1257 H   0  0  0  0  0  0  0  0  0  0  0  0
    5.8202    0.5308  -19.1774 H   0  0  0  0  0  0  0  0  0  0  0  0
    6.1496    4.2665  -16.3977 H   0  0  0  0  0  0  0  0  0  0  0  0
    4.6356    3.2999  -16.3878 H   0  0  0  0  0  0  0  0  0  0  0  0
    5.6949    2.8142  -20.2525 H   0  0  0  0  0  0  0  0  0  0  0  0
    5.8406    4.7061  -18.8392 H   0  0  0  0  0  0  0  0  0  0  0  0
    3.2502    3.1220  -18.4380 H   0  0  0  0  0  0  0  0  0  0  0  0
    3.8017    2.3824  -21.7022 H   0  0  0  0  0  0  0  0  0  0  0  0
    2.9572    1.4365  -20.4299 H   0  0  0  0  0  0  0  0  0  0  0  0
    3.9419    6.1447  -18.5487 H   0  0  0  0  0  0  0  0  0  0  0  0
    3.5028    5.3676  -17.1813 H   0  0  0  0  0  0  0  0  0  0  0  0
    8.0194   -2.6259  -21.7014 H   0  0  0  0  0  0  0  0  0  0  0  0
    2.9483    5.0932  -19.6595 H   0  0  0  0  0  0  0  0  0  0  0  0
  1  2  1  0  0  0  0
  1  4  2  0  0  0  0
  2  5  2  0  0  0  0
  3  4  1  0  0  0  0
  3  6  2  0  0  0  0
  4 12  1  0  0  0  0
  5  6  1  0  0  0  0
  5 16  1  0  0  0  0
  6 19  1  0  0  0  0
  7  9  1  0  0  0  0
  7 18  1  0  0  0  0
  8 10  1  0  0  0  0
  8 18  1  0  0  0  0
  9 11  1  0  0  0  0
  9 12  1  0  0  0  0
 10 11  1  0  0  0  0
 10 13  1  0  0  0  0
 11 17  1  0  0  0  0
 14 18  2  0  0  0  0
 15 18  2  0  0  0  0
  1 20  1  0  0  0  0
  2 21  1  0  0  0  0
  3 22  1  0  0  0  0
  7 23  1  0  0  0  0
  7 24  1  0  0  0  0
  8 25  1  0  0  0  0
  8 26  1  0  0  0  0
  9 27  1  0  0  0  0
 10 28  1  0  0  0  0
 11 29  1  0  0  0  0
 12 30  1  0  0  0  0
 12 31  1  0  0  0  0
 13 32  1  0  0  0  0
 13 33  1  0  0  0  0
 16 34  1  0  0  0  0
 17 35  1  0  0  0  0
M  END
> <OMEGA_C>
DOOFQNEkS7+Uy6bB//GgQFMU9b8ZB6fB8m++QNdJDz+L5K7BHgOVQMYb6T4dZarBkvPKQJnk5b9W
/arB1mXZQOVTEb/WKK/B/ICpQKp3rj9YeJXBwKuvQJX9Z0AtAIjBtNGZQFHlGEDCGJ7ByD+fQM9Q
jUBfyZHBIMKAQHBhY0ACupjBWBh8QOjX2T+ryqbBjdKIQK4ltED2Eo7BbJ/xQC4lKkCw3pLB6pfT
QI/8pD+sXoPBVq7lQPxxN8BSqarBoAxbQE5njEDFqqDBvvvMQFjJC0DpiIzBTx4JQcpM1r5DobTB
SAxLQCd3Y79Q3KPBFoSVQGSdN8D3KaTB4lfJQMRGwD/9HLLB5NmNQBYyeT9kAZHBrD66QLnhBz9V
a5nB48nEQO2GiECSLoPB31aUQKExU0AzGoPBuzy2QAMcNEAvBaLBI+a6QLOYlkCqtpbBLQNQQKjP
R0AbgZPBz05zQGR5GEAnnq3BG0I9QHvgtz92cKPBXEd8QMWhxECtY5TBoy5gQBzDq0BPc4nBeE8A
QW4OKMBqnK3BXLE8QC77okCPRp3BljO5QMTgkj4sgq3Bh4bRQPkyVr+/hrDBNXWNQK1ekL9F7qHB
n/aWQEr/ET5mPKbBiLfHQD3kBsBAT6zByIulQNA3EMA/AKXBPwarQB2Nxz9B0ZHBxda8QKIUi0AQ
ZI3BfEuYQPCKE0DZlJvBFruLQDAXikB2G47B0gp3QJXqYEAYC5jBWNp6QPFOrT9esaLBdIZ0QMu7
bkCxKoTBqyT5QNFMJECHuZHB5aXQQE5oFkBTEYDByzXfQK3uS8DjXK/BJkpxQC6UjUAxy6DBVzvR
QNwYKkBtj4vBZBKXQD0EfsCFTp/Byb7AQPExoT9rwrDBZL/rQGp+Ob8aFbbBojlnQGxNnr/kQpzB
eFKRQLTBpz+BJIzBEfi6QKqCIj8QcZTB0wLKQBSfmED20JTB8o3GQDQLn0Dkj4bBePSyQMK2LEC3
Y6DB0zmAQFw3q0BW347BsBM3QF24R0APJpbBql5lQJ238z8h06nBLc9CQAKzgT8MHp7BJqE0QBVG
bUDPlYTBm2+FQEwwM0AbRoPBU8LUQPyofcA926vBVqhOQFlHpUCz0J7B6tPUQPzm5UB8/Y7BOPPv
QLfv/0B2SJXB8D6eQCnb6UCm65zBktirQORx2kDs3ZLBum3iQA3yBkGdfp/BfpO5QJRYAUGcTKPB
SGuwQN4EdEC8mYXBcjGzQJXQwz/1a5TBuMiQQIgFjUAV543B9l2SQDSpGEBMnprBthSZQChqe0A4
qZnB0DiNQDDXvkCYUozBaE6TQH0e+j/+9KXBpLHYQDU+xT9Oh4HB0Ij1QFZ3RECMJZDB3sX8QKzd
EkHywaXB8Th1QCRhkUCDlKDBzDTRQHgJHUDUiorBME6nQPEJCkE6O7HBJlvfQEPJ2kCJPofBvYIH
QW+VBEEdSZLBL9l8QLxw4kBGvJ/BjszFQIzQk0BW6ILBv7qdQJ0nXEA2iH3Bt+ehQAYNOD9iVpDB
td/JQFTFjD+kNJrBpExiQHI1gEAGwIvBrAJlQI8fCkBSWZfBjAq6QBbVhUDy/JvBvw6TQPq7xUA4
0YPBxsxYQFFbyECibo7BzY98QKCTH0CuK6rBBLCwQEXlBUCM7ajBzLjuQIIkFkF/S6zBve5+QKI5
iECZuafB

> <OMEGA_E>
LJ1WP+7RWD/wE4c/

> <OMEGA_NBR>
     11860

$$$$
50172177
  -OEChem-04172616093D

 60 62  0     1  0  0  0  0  0999 V2000
    8.1369    7.8955  -18.4680 C   0  0  0  0  0  0  0  0  0  0  0  0
    7.1367    7.4287  -17.5974 C   0  0  0  0  0  0  0  0  0  0  0  0
    7.8055    8.2977  -19.7772 C   0  0  0  0  0  0  0  0  0  0  0  0
    5.8329    0.3818  -21.8019 C   0  0  0  0  0  0  0  0  0  0  0  0
    6.5828   -0.7603  -22.1324 C   0  0  0  0  0  0  0  0  0  0  0  0
    5.4708    7.7516  -19.3501 C   0  0  0  0  0  0  0  0  0  0  0  0
    4.4411   -0.9657  -20.3117 C   0  0  0  0  0  0  0  0  0  0  0  0
    5.8011    7.3628  -18.0389 C   0  0  0  0  0  0  0  0  0  0  0  0
    6.4601    8.2362  -20.2327 C   0  0  0  0  0  0  0  0  0  0  0  0
    4.7568    0.2770  -20.8966 C   0  0  0  0  0  0  0  0  0  0  0  0
    6.2607   -2.0061  -21.5570 C   0  0  0  0  0  0  0  0  0  0  0  0
    5.1862   -2.1085  -20.6450 C   0  0  0  0  0  0  0  0  0  0  0  0
    5.4153    1.4826  -18.3230 C   0  0  0  0  0  0  0  0  0  0  0  0
    5.4437    3.8721  -16.8255 C   0  0  0  0  0  0  0  0  0  0  0  0
    4.9168    2.3556  -19.5089 C   0  0  2  0  0  0  0  0  0  0  0  0
    4.9251    4.5378  -18.1164 C   0  0  1  0  0  0  0  0  0  0  0  0
    4.1001    3.5784  -19.0057 C   0  0  1  0  0  0  0  0  0  0  0  0
    5.5309    7.4526  -22.4508 C   0  0  0  0  0  0  0  0  0  0  0  0
    7.2095    9.3170  -22.4446 C   0  0  0  0  0  0  0  0  0  0  0  0
    4.9068    9.7295  -21.5616 C   0  0  0  0  0  0  0  0  0  0  0  0
    4.0242    1.5152  -20.4538 C   0  0  0  0  0  0  0  0  0  0  0  0
    4.7165    6.8337  -17.1294 C   0  0  0  0  0  0  0  0  0  0  0  0
    6.0427    8.6767  -21.6521 C   0  0  0  0  0  0  0  0  0  0  0  0
    4.0374    5.6784  -17.7638 N   0  0  0  0  0  0  0  0  0  0  0  0
    7.5799    2.9546  -18.0648 O   0  0  0  0  0  0  0  0  0  0  0  0
    6.6842    1.6982  -16.0297 O   0  0  0  0  0  0  0  0  0  0  0  0
    6.9891   -3.1031  -21.8894 O   0  0  0  0  0  0  0  0  0  0  0  0
    3.6431    4.3310  -20.1345 O   0  0  0  0  0  0  0  0  0  0  0  0
    6.4509    2.4675  -17.2579 S   0  0  0  0  0  0  0  0  0  0  0  0
    4.7190   -3.7852  -19.8585 Br  0  0  0  0  0  0  0  0  0  0  0  0
    9.1622    7.9460  -18.1325 H   0  0  0  0  0  0  0  0  0  0  0  0
    7.3917    7.1218  -16.5938 H   0  0  0  0  0  0  0  0  0  0  0  0
    8.5797    8.6554  -20.4399 H   0  0  0  0  0  0  0  0  0  0  0  0
    6.0803    1.3373  -22.2402 H   0  0  0  0  0  0  0  0  0  0  0  0
    7.4060   -0.6833  -22.8273 H   0  0  0  0  0  0  0  0  0  0  0  0
    4.4469    7.6782  -19.6857 H   0  0  0  0  0  0  0  0  0  0  0  0
    3.6261   -1.0391  -19.6070 H   0  0  0  0  0  0  0  0  0  0  0  0
    4.5515    1.1101  -17.7529 H   0  0  0  0  0  0  0  0  0  0  0  0
    5.9931    0.6311  -18.7116 H   0  0  0  0  0  0  0  0  0  0  0  0
    6.0451    4.5947  -16.2543 H   0  0  0  0  0  0  0  0  0  0  0  0
    4.5915    3.5400  -16.2143 H   0  0  0  0  0  0  0  0  0  0  0  0
    5.7886    2.7191  -20.0725 H   0  0  0  0  0  0  0  0  0  0  0  0
    5.7846    4.9061  -18.6957 H   0  0  0  0  0  0  0  0  0  0  0  0
    3.2428    3.2100  -18.4233 H   0  0  0  0  0  0  0  0  0  0  0  0
    5.2347    7.7711  -23.4612 H   0  0  0  0  0  0  0  0  0  0  0  0
    6.3312    6.7014  -22.5232 H   0  0  0  0  0  0  0  0  0  0  0  0
    4.6632    7.0153  -21.9353 H   0  0  0  0  0  0  0  0  0  0  0  0
    6.8568    9.6107  -23.4443 H   0  0  0  0  0  0  0  0  0  0  0  0
    7.5725   10.2061  -21.9081 H   0  0  0  0  0  0  0  0  0  0  0  0
    8.0281    8.5890  -22.5439 H   0  0  0  0  0  0  0  0  0  0  0  0
    4.6127   10.0404  -22.5750 H   0  0  0  0  0  0  0  0  0  0  0  0
    4.0397    9.2899  -21.0469 H   0  0  0  0  0  0  0  0  0  0  0  0
    5.2624   10.6049  -20.9984 H   0  0  0  0  0  0  0  0  0  0  0  0
    3.7617    2.1171  -21.3363 H   0  0  0  0  0  0  0  0  0  0  0  0
    3.1062    1.2237  -19.9225 H   0  0  0  0  0  0  0  0  0  0  0  0
    5.1644    6.5141  -16.1769 H   0  0  0  0  0  0  0  0  0  0  0  0
    3.9806    7.6290  -16.9400 H   0  0  0  0  0  0  0  0  0  0  0  0
    3.5986    5.9999  -18.6029 H   0  0  0  0  0  0  0  0  0  0  0  0
    6.6532   -3.8598  -21.4236 H   0  0  0  0  0  0  0  0  0  0  0  0
    3.1427    5.0806  -19.8343 H   0  0  0  0  0  0  0  0  0  0  0  0
  1  2  1  0  0  0  0
  1  3  2  0  0  0  0
  2  8  2  0  0  0  0
  3  9  1  0  0  0  0
  4  5  2  0  0  0  0
  4 10  1  0  0  0  0
  5 11  1  0  0  0  0
  6  8  1  0  0  0  0
  6  9  2  0  0  0  0
  7 10  2  0  0  0  0
  7 12  1  0  0  0  0
  8 22  1  0  0  0  0
  9 23  1  0  0  0  0
 10 21  1  0  0  0  0
 11 12  2  0  0  0  0
 11 27  1  0  0  0  0
 12 30  1  0  0  0  0
 13 15  1  0  0  0  0
 13 29  1  0  0  0  0
 14 16  1  0  0  0  0
 14 29  1  0  0  0  0
 15 17  1  0  0  0  0
 15 21  1  0  0  0  0
 16 17  1  0  0  0  0
 16 24  1  0  0  0  0
 17 28  1  0  0  0  0
 18 23  1  0  0  0  0
 19 23  1  0  0  0  0
 20 23  1  0  0  0  0
 22 24  1  0  0  0  0
 25 29  2  0  0  0  0
 26 29  2  0  0  0  0
  1 31  1  0  0  0  0
  2 32  1  0  0  0  0
  3 33  1  0  0  0  0
  4 34  1  0  0  0  0
  5 35  1  0  0  0  0
  6 36  1  0  0  0  0
  7 37  1  0  0  0  0
 13 38  1  0  0  0  0
 13 39  1  0  0  0  0
 14 40  1  0  0  0  0
 14 41  1  0  0  0  0
 15 42  1  0  0  0  0
 16 43  1  0  0  0  0
 17 44  1  0  0  0  0
 18 45  1  0  0  0  0
 18 46  1  0  0  0  0
 18 47  1  0  0  0  0
 19 48  1  0  0  0  0
 19 49  1  0  0  0  0
 19 50  1  0  0  0  0
 20 51  1  0  0  0  0
 20 52  1  0  0  0  0
 20 53  1  0  0  0  0
 21 54  1  0  0  0  0
 21 55  1  0  0  0  0
 22 56  1  0  0  0  0
 22 57  1  0  0  0  0
 24 58  1  0  0  0  0
 27 59  1  0  0  0  0
 28 60  1  0  0  0  0
M  END
> <OMEGA_C>
qDACQb+n/EB5vpPBIWDkQMy37UCGx4zBt8b5QDbDBEG4N57Bxqa6QMR7wz42aq7BoabSQM6lQr8e
D7HBIBGvQNAM+EDyzJrBux2OQFw1d79ifqLB2KK5QAWc60CnT5DBgrnOQH7HA0Ge3KHBlTeYQKDM
jT5PLKfBu1fIQERjAMCldKzBTPWlQALyBsD1KKXBR0qtQB7HvT+OlZLBCTOuQADQd0CJmobBHlad
QGbCFkAqEpzBi5qdQNo1kUBy7pDBajSDQPQDZUCfC5jBKf2wQH977kBJm7PBFLTmQHMSFUF5jrPB
YASdQDCsG0E0fqzBQ8aAQGzxwT9moaPBse2WQICt2kAPCYnBCl7BQKbTCkGQN63BVjKBQEa1tUAy
HI7Bz47yQGAYPUCwhJDB3uTVQM1e2T/aPIDBXqbfQMaYRsB/Ha/BxShpQCmXikCBE6HBE27OQDrs
HUA6EIrB4AGXQOpAcsA03p7BUpgSQZxF/kBID5HBpojsQH/l40AqwITBREYJQZ98CkHRhKPBkZHC
QIctqz/767HBqP3sQBbsLr9XnrbBTE2OQC609UBOfJ3BZRFoQAIChb8Q25zBAKaRQOQWjj/yBY7B
Qce/QIeMIT9esZXBQnHBQK4Hk0DUCILB+e2SQKqPYkDbtoHBYzy5QIAGLkCIlKDBxhu5QL/+nEDb
kJXBbolPQOVwTUDVYpPB2IKnQOis+EB9sLvBlJnKQCdy1kCAL7TBqjiVQDl94EBme6/B+2rbQGHF
GUHUjbvB31HyQBlMI0HXQ6/BPXMAQbFsCUHxWbTB5pqTQHOlIEGGmbTBSEWBQICjFEEcYKjBvWWo
QNetKUHG/KfBer9wQLt+B0C2sKrB1MtGQKahnD9JYZ/BuUKlQOhz0EBKaoHBWsJ+QP0g9EAvhYfB
Q09mQE//v0Ck0pTBxubUQJkHd8CAY6vBTyJJQFeUokCwrJ7B/X8BQWYO/UCJ9ZLBLW7iQG667UDZ
OozB91T5QNMlBUFUdJ3BGkq6QKiMvD5Kdq7BKvzRQJD6Rr/CKbHBNzauQMBV+UBFd5rBLRaOQOJ/
eL9wZaLBP/O3QGQ97EB29o/B07TOQFENBEFkZaHBpDqYQI7miT5PHKfBK6/HQBZQAcAJhazBs5Wl
QICHB8CkIqXBKYCuQLHnvj9om5LB/sauQDjPeEBsqobBjz+eQBzCFkC2HJzBovKdQI56kUDtAJHB
FhGEQMr7ZEDQI5jB/F3qQJqPEUHBkrPBlV+iQCQIHUG/4KzB7YOuQAbz7UAVz7LBojSBQCBmwT+1
iKPBT96UQJd92kD+8YjBnu7CQNtZCkEI+6zBoIeAQA5DtUDFOY7BBnTzQJDWPkBbhZDBw+vWQDCz
3D+yO4DBVureQMicR8DxLK/BUgJrQK5mikB7NaHB8F7PQOo/H0AYFYrBPNCWQGCYcsBJwZ7BJcUR
QaOx/kDlE5DB0PHpQFAg40BSOYTBwEQJQRgdC0HQjqLBxSbCQOc0qT9FArLBGBbsQMh4NL/py7bB
t4WNQFQR+EB7QJ3BtIVoQO79hL9IrpzBFfqSQIJFjj9dCo7BN0LBQBIUJT+is5XByNvBQEe9k0AH
H4LB/JuTQKlFY0CxwoHB/PK5QCTBLUDwt6DBaz+5QIPgnUAXnZXBORFRQC5VTUDBhZPB9zXgQDnY
FUHjuLvBiC/5QKuLH0Eiua/BbdsAQVNpBEEU9LPBiiaaQH1sIUHZJbXBeEGFQK0HGEG+nKjBWZWw
QLrpKkE4zKjBmzSmQMEb90BEDLvB6XLFQAhB00A4+rLB6meRQEb740DXiK7BFedwQPD2BkDDlqrB
GBtIQCPTnD/6KZ/B7pKiQHBf0ECZPoHB00l5QNJq80BMjofBIaJlQA2Gv0C5+5TBpDLUQD7xd8Az
bKvBI+FKQA9qokAw2J7BbOzPQNaCBEHpBKLBDGazQGdj8kBEcpvBK9LyQKVvD0G8ep3BBsuwQNAZ
Wj5uC7DBAwXIQJD1bL+vRLPBMzLdQO9NA0GfuovBrBqUQPzLhL+z3aDB3Ty6QA6Q8ED0RpDBDun5
QCwXD0EyRpLBHIGWQHoBIT5A36bBtc7FQKpRB8AcNq3BURasQLyRCsAy7aPBiaOrQFcluD9I9JHB
P3qtQCCSd0A/cYbB2aKcQBHREUCNv5vBdqSeQCsDkUBE/pDBrcaDQE8nZEAnMJjBf+YMQTYHNEEr
FJDBdi4lQUviE0F2hZLBjNkRQb2YGUF7JoHBh6d+QNCCsz8aBqPBjcWZQAoQ20Bv/IjBM+QPQQHk
G0GCg43BpWGDQMmztkCIT47BxkvyQLbDNUASb4/BsXvRQGX91T84fn7B0aLcQI4YTcAVV7DBm7Ft
QP0yiUBWkKHBrYLMQIKuGkD2S4nBR8upQNbGb8BcVZvBIhHLQEbUBEFskqrB/CeYQKdT4kBO7p7B
4D4EQawyGEHFlqLB2xqzQHVwkD+il7TB443bQMRsY7+yY7rB5iriQObFAkHYLoPBjoV/QHTqir9W
5JnB32qPQKCHiz+rfo3BRgm+QP85Ej8qzpTBewDBQHqkkkAr3YHBE0mRQG0yZUAws4HBaOy4QHVi
JUAXYaDBDPG6QDGUm0DIgpXB+8xOQBn8T0C7oZPBO1YaQWAtPUGdtIzBN24MQSlNNkFKzZjB9J77
QPWyOUEFjIzBxqQyQRj7HEFtI4/BvkYnQVXHAkHhu5DBq7MkQZc3FkGJPZvB744fQRoLI0Fml3zB
fxsDQXN1H0FdrnrBUUMUQbqpCEGbJ37Buc5qQIJy/z+4AarBHr5FQEDZjD8scZ7B8X2qQMTmzkAw
3YHBfc6BQILt8kAUjIbB/iNtQKmhwUAGHZXBdcbXQAvBesCJeKvBVXRPQPFAokBAgZ/BcF2zQE9e
/0BiZKjB7KmgQGl97EAvXJ/BWgbYQKd8DEEjTKfBXuKyQPYajj4oBLDByO/JQKN1Xb+uOrPBACPY
QBDQBUFBDJTBnGKTQNYJf78zUaHBjouzQJmA8UDOKJXBXKDqQIsFEEEbFJ3BckeXQGS4WD5+F6fB
Ti/GQKheBMC0Z63BkiCrQNs/CMBjXaTB3AWqQIXstz/pxJHBEMerQNYDd0CzCIbBZr6cQANFE0DV
lJvBGuSeQMAHkUBWrZDBkvuDQAyzZUCWC5jBVrsQQXXHKEHeWqbB2NcbQeedEUFn4ZbBQncDQeJt
MUGn6ZPBTB2AQKVbuj+BP6PBzJieQFNE3kA0RIvB3QQJQRO9HkHkoJvB2AeFQOJ7t0Ay8o3B0Drx
QBBhMkAObo7B9BLNQKC3zz+zWn3BWNDcQEhySsBWhbDBOy1wQK1BikBdcaHBZjfKQHygGEDCsojB
FqKmQELLbsBuFZzBO46lQGE2+kDxNLDBE6iDQOcA2kCoMqDB8DnmQI64E0FwS67BpVW2QKEJmj9J
YbTBRoPeQK/iUb9eKbrBmTjmQCgQCEERPYzBxiZ8QLB1hr9nh5rBYg2NQGj1iz8GmI3BYGS8QFf4
ED+8kZTBGi6/QPvjkUC4R4HBI8eOQLfNZUC0iIHB0Mu5QOG6JkDw6Z/BWwC8QIG8mkAS/ZTBtWNO
QMLaUUBqoZPBMLYeQTcKM0EI2qTBMysVQeH1G0FE9qvB4MIDQQxuMkFA1anBptgpQdwTHEGz2ZXB
tBoXQbwEC0HwEo/BbesfQZtyBEHqWZzBDIwRQVrNO0Fz7ZLB1FPsQOzOOkHXQpfB73/9QFDoKkEx
FozBOthuQESEBEAON6rBiNJFQDXOkz9o957BGbK3QFNj1UB2goXBRlmJQMFM9kDQpIfBCdJkQMdu
vkBNN5TBgtrWQJm6eMCv0qvB7AVSQNllo0BPbp/B

> <OMEGA_E>
GJAUPqBaDD5kQOc+ZtUHPw==

> <OMEGA_NBR>
     16069

$$$$
50172176
  -OEChem-04172616093D

 55 58  0     1  0  0  0  0  0999 V2000
    8.1873    7.8822  -18.3124 C   0  0  0  0  0  0  0  0  0  0  0  0
    7.9489    8.3295  -19.6251 C   0  0  0  0  0  0  0  0  0  0  0  0
    7.1242    7.4011  -17.5281 C   0  0  0  0  0  0  0  0  0  0  0  0
    5.7896    0.3723  -21.7963 C   0  0  0  0  0  0  0  0  0  0  0  0
    6.5410   -0.7621  -22.1486 C   0  0  0  0  0  0  0  0  0  0  0  0
    5.5775    7.8075  -19.3736 C   0  0  0  0  0  0  0  0  0  0  0  0
    4.4513   -0.9897  -20.2706 C   0  0  0  0  0  0  0  0  0  0  0  0
    6.6467    8.2897  -20.1672 C   0  0  0  0  0  0  0  0  0  0  0  0
    5.8161    7.3750  -18.0515 C   0  0  0  0  0  0  0  0  0  0  0  0
    4.7403    0.2561  -20.8618 C   0  0  0  0  0  0  0  0  0  0  0  0
    6.2449   -2.0115  -21.5678 C   0  0  0  0  0  0  0  0  0  0  0  0
    5.1963   -2.1255  -20.6274 C   0  0  0  0  0  0  0  0  0  0  0  0
    5.1083    9.4737  -21.9475 C   0  0  0  0  0  0  0  0  0  0  0  0
    5.3795    8.0611  -22.4639 C   0  0  0  0  0  0  0  0  0  0  0  0
    5.4181    1.4828  -18.2874 C   0  0  0  0  0  0  0  0  0  0  0  0
    5.4394    3.9020  -16.8188 C   0  0  0  0  0  0  0  0  0  0  0  0
    6.4327    8.7719  -21.5942 C   0  0  0  0  0  0  0  0  0  0  0  0
    4.9088    2.3384  -19.4804 C   0  0  2  0  0  0  0  0  0  0  0  0
    4.9180    4.5452  -18.1229 C   0  0  1  0  0  0  0  0  0  0  0  0
    4.0936    3.5651  -18.9883 C   0  0  1  0  0  0  0  0  0  0  0  0
    4.0053    1.4856  -20.4039 C   0  0  0  0  0  0  0  0  0  0  0  0
    4.6747    6.8661  -17.1951 C   0  0  0  0  0  0  0  0  0  0  0  0
    4.0204    5.6927  -17.8154 N   0  0  0  0  0  0  0  0  0  0  0  0
    7.5778    2.9673  -18.0543 O   0  0  0  0  0  0  0  0  0  0  0  0
    6.6962    1.7316  -16.0021 O   0  0  0  0  0  0  0  0  0  0  0  0
    6.9743   -3.1010  -21.9217 O   0  0  0  0  0  0  0  0  0  0  0  0
    3.6216    4.2968  -20.1243 O   0  0  0  0  0  0  0  0  0  0  0  0
    6.4532    2.4879  -17.2368 S   0  0  0  0  0  0  0  0  0  0  0  0
    4.7650   -3.8082  -19.8334 Br  0  0  0  0  0  0  0  0  0  0  0  0
    9.1879    7.9084  -17.9069 H   0  0  0  0  0  0  0  0  0  0  0  0
    8.7673    8.7053  -20.2212 H   0  0  0  0  0  0  0  0  0  0  0  0
    7.3103    7.0513  -16.5235 H   0  0  0  0  0  0  0  0  0  0  0  0
    6.0155    1.3306  -22.2402 H   0  0  0  0  0  0  0  0  0  0  0  0
    7.3451   -0.6762  -22.8644 H   0  0  0  0  0  0  0  0  0  0  0  0
    4.5779    7.7707  -19.7807 H   0  0  0  0  0  0  0  0  0  0  0  0
    3.6572   -1.0712  -19.5431 H   0  0  0  0  0  0  0  0  0  0  0  0
    5.1061   10.3231  -22.6464 H   0  0  0  0  0  0  0  0  0  0  0  0
    4.3487    9.6375  -21.1689 H   0  0  0  0  0  0  0  0  0  0  0  0
    4.8149    7.2095  -22.0567 H   0  0  0  0  0  0  0  0  0  0  0  0
    5.5723    7.8951  -23.5341 H   0  0  0  0  0  0  0  0  0  0  0  0
    4.5592    1.1111  -17.7092 H   0  0  0  0  0  0  0  0  0  0  0  0
    5.9997    0.6306  -18.6688 H   0  0  0  0  0  0  0  0  0  0  0  0
    6.0398    4.6347  -16.2598 H   0  0  0  0  0  0  0  0  0  0  0  0
    4.5890    3.5773  -16.2013 H   0  0  0  0  0  0  0  0  0  0  0  0
    7.3255    9.1367  -22.1231 H   0  0  0  0  0  0  0  0  0  0  0  0
    5.7746    2.6947  -20.0578 H   0  0  0  0  0  0  0  0  0  0  0  0
    5.7776    4.8990  -18.7111 H   0  0  0  0  0  0  0  0  0  0  0  0
    3.2432    3.2021  -18.3924 H   0  0  0  0  0  0  0  0  0  0  0  0
    3.7158    2.0832  -21.2809 H   0  0  0  0  0  0  0  0  0  0  0  0
    3.1030    1.1844  -19.8514 H   0  0  0  0  0  0  0  0  0  0  0  0
    5.0673    6.5779  -16.2088 H   0  0  0  0  0  0  0  0  0  0  0  0
    3.9319    7.6683  -17.0739 H   0  0  0  0  0  0  0  0  0  0  0  0
    3.5990    5.9920  -18.6715 H   0  0  0  0  0  0  0  0  0  0  0  0
    6.6576   -3.8618  -21.4491 H   0  0  0  0  0  0  0  0  0  0  0  0
    3.1215    5.0495  -19.8313 H   0  0  0  0  0  0  0  0  0  0  0  0
  1  2  2  0  0  0  0
  1  3  1  0  0  0  0
  2  8  1  0  0  0  0
  3  9  2  0  0  0  0
  4  5  2  0  0  0  0
  4 10  1  0  0  0  0
  5 11  1  0  0  0  0
  6  8  2  0  0  0  0
  6  9  1  0  0  0  0
  7 10  2  0  0  0  0
  7 12  1  0  0  0  0
  8 17  1  0  0  0  0
  9 22  1  0  0  0  0
 10 21  1  0  0  0  0
 11 12  2  0  0  0  0
 11 26  1  0  0  0  0
 12 29  1  0  0  0  0
 13 14  1  0  0  0  0
 13 17  1  0  0  0  0
 14 17  1  0  0  0  0
 15 18  1  0  0  0  0
 15 28  1  0  0  0  0
 16 19  1  0  0  0  0
 16 28  1  0  0  0  0
 18 20  1  0  0  0  0
 18 21  1  0  0  0  0
 19 20  1  0  0  0  0
 19 23  1  0  0  0  0
 20 27  1  0  0  0  0
 22 23  1  0  0  0  0
 24 28  2  0  0  0  0
 25 28  2  0  0  0  0
  1 30  1  0  0  0  0
  2 31  1  0  0  0  0
  3 32  1  0  0  0  0
  4 33  1  0  0  0  0
  5 34  1  0  0  0  0
  6 35  1  0  0  0  0
  7 36  1  0  0  0  0
 13 37  1  0  0  0  0
 13 38  1  0  0  0  0
 14 39  1  0  0  0  0
 14 40  1  0  0  0  0
 15 41  1  0  0  0  0
 15 42  1  0  0  0  0
 16 43  1  0  0  0  0
 16 44  1  0  0  0  0
 17 45  1  0  0  0  0
 18 46  1  0  0  0  0
 19 47  1  0  0  0  0
 20 48  1  0  0  0  0
 21 49  1  0  0  0  0
 21 50  1  0  0  0  0
 22 51  1  0  0  0  0
 22 52  1  0  0  0  0
 23 53  1  0  0  0  0
 26 54  1  0  0  0  0
 27 55  1  0  0  0  0
M  END
> <OMEGA_C>
JP8CQZ86/EDJf5LBTV3+QHZFBUFDAJ3BxvnjQCbW7ECbOYzBhES5QKecvj7MXq7Br0/RQL8VQ79n
MLHB2HqyQDfX+UAS/ZrBRXGOQNVefb8YKqLB6bHUQLiiBEFkVqHBdh26QGQA7ECPaZDBNrCXQGgh
gz4P5abBf9bHQCW9AMDUiqzBvUemQNUHCMD/BKXBEnejQC6UF0F0lK/BPiWsQEb6AEEptrPBwGCt
QKPLvT+gTJLBfA+uQKi5eUD8jIbBR9jNQJ1ZDEHrwKzBCRWdQEuoFUDb15vBFWCdQBBykUCw+5DB
zP6CQMoqZED655fBGiuAQGEovj8yO6PBC5eVQNO220CHj4nBJ6eAQKAqtkAKho7BDn3yQJLnPUA+
b5DBikfWQASl3T80BIDBvS3fQJ52RsCaX6/B9sdnQGN/iUCi/qDBjYDOQL05H0D75InB4HqYQAG6
c8DKqp7B1AETQZoR/UBmQY/B7EYMQRFJC0EBxaHBWO7pQOij4UAPMITBHH/AQKdPqj8C7LHBTQvr
QBsbLb9c6rbB0X2SQGqp+EDoPp7BNRBqQMQdib9HWJzBVWWjQH4rJUHHK7XBTiiLQCUzGkH4WanB
ehOaQPWz5kATdLDBgFCyQKek/EDiRbzBK+WRQGg5jj+KrI3BtP2/QEduIT+vWZXBNEbBQNJPlEAb
FILBzNiSQObxZEBFnIHBXmrqQPYvEkEh/LDBi8m4QEt2LEB6dqDBy+G4QGDEnEBCsJXB6pBPQArv
TEChI5PBls9tQIlSBUBNP6rBwpdGQLmalz+7z57BpieiQMJ90kCeq4HB+qR7QA1j9UBRl4jBB1Zm
QEG+v0BFX5XBNQvVQDIod8DLl6vBMMZHQGGVoUCKpp7B4qrEQGfCEEHPI5/BsDrxQOJbD0H8pJ3B
3NmoQEl4BUGSVJjBlcKwQPceVz4ACLDBURjIQElTbb+nPrPBuy/mQAMQ7kAbko7BGA6UQA1thb/f
3aDBThABQdueAkGmU5XBF2m5QOCC8UBA+4/BZWqWQOLGHD5I3qbBWO3FQKhtB8CdMK3BtyOsQAzL
CsDv6qPBwK4iQaZuBkGu3YjBBNklQRfoFUFfVJLBhUirQEzQtz+K8ZHB1o6tQOxjd0Cre4bBhhIZ
QYorAUHu1JPBmGycQDexEUCDvpvB5d6eQLsrkUCJCpHBcbmDQFdpZEALMpjBplB+QDAFsz/kBaPB
9HyaQHaY2kAen4jBdRKEQOUtt0AYVo7BeSXyQKr7NEB+c4/BuyvRQMFn1T8Nf37BD9vcQCMdTcA3
T7DB0FRtQGE5iUAKkqHBSE7MQJxBGkDRT4nBp+mpQCUGcMAWU5vB99e3QGKAGkHhg6XBaEYDQVAN
GEGz36LBM62GQOaKBkEOgJnBjAizQMoPkD+llLTBzK3bQBlrY79fW7rBFgHzQNLI2UDwWYjBeFJ/
QOjBi78R55nBgUswQUk0+kC/zoXBUykYQR/rCkF0LYLBipUdQf1xJUHSZ5LBubc1QQOhF0EdCZbB
EgKPQHvtiz8keo3B8oa9QCieED/HyJTBjy7BQFlokkDk4oHB5EWRQHtMZUAgwoHB0zYhQZnm6EDC
WZjBk8e4QD8EJUB7XaDB7EG7QONkm0DikpXB7dROQGuIUEDkl5PBUnFqQGXc/j9CAqrBmmlFQCo7
jD+TcZ7B2lCsQCs6zUAxz4HBt5qCQAif8UAhroXBkKpwQGQCw0BqKpXBuwLYQFHLesBAcavBe1RP
QEdaokBzg5/B

> <OMEGA_E>
AAqLPWzguz4=

> <OMEGA_NBR>
     18201

$$$$
50172174
  -OEChem-04172616093D

 56 58  0     1  0  0  0  0  0999 V2000
    5.8554    0.3721  -21.8133 C   0  0  0  0  0  0  0  0  0  0  0  0
    6.5982   -0.7786  -22.1303 C   0  0  0  0  0  0  0  0  0  0  0  0
    7.6955    8.3093  -19.7909 C   0  0  0  0  0  0  0  0  0  0  0  0
    4.4311   -0.9564  -20.3370 C   0  0  0  0  0  0  0  0  0  0  0  0
    5.4154    7.6465  -19.3704 C   0  0  0  0  0  0  0  0  0  0  0  0
    7.9956    7.9928  -18.4480 C   0  0  0  0  0  0  0  0  0  0  0  0
    4.7676    0.2818  -20.9208 C   0  0  0  0  0  0  0  0  0  0  0  0
    6.3785    8.1167  -20.2723 C   0  0  0  0  0  0  0  0  0  0  0  0
    6.2578   -2.0188  -21.5537 C   0  0  0  0  0  0  0  0  0  0  0  0
    5.1698   -2.1079  -20.6564 C   0  0  0  0  0  0  0  0  0  0  0  0
    5.7760    7.3618  -18.0391 C   0  0  0  0  0  0  0  0  0  0  0  0
    5.4461    1.4848  -18.3582 C   0  0  0  0  0  0  0  0  0  0  0  0
    5.4360    3.8440  -16.8241 C   0  0  0  0  0  0  0  0  0  0  0  0
    4.9435    2.3662  -19.5372 C   0  0  2  0  0  0  0  0  0  0  0  0
    4.9318    4.5299  -18.1071 C   0  0  1  0  0  0  0  0  0  0  0  0
    4.1237    3.5860  -19.0284 C   0  0  1  0  0  0  0  0  0  0  0  0
    7.1321    8.7492  -22.6436 C   0  0  0  0  0  0  0  0  0  0  0  0
    4.8906    9.4775  -21.7878 C   0  0  0  0  0  0  0  0  0  0  0  0
    4.0481    1.5313  -20.4861 C   0  0  0  0  0  0  0  0  0  0  0  0
    4.7214    6.8180  -17.1059 C   0  0  0  0  0  0  0  0  0  0  0  0
    5.9578    8.3639  -21.7241 C   0  0  0  0  0  0  0  0  0  0  0  0
    7.0478    7.5250  -17.6017 N   0  0  0  0  0  0  0  0  0  0  0  0
    4.0381    5.6581  -17.7322 N   0  0  0  0  0  0  0  0  0  0  0  0
    7.5902    2.9849  -18.0675 O   0  0  0  0  0  0  0  0  0  0  0  0
    6.7054    1.6831  -16.0560 O   0  0  0  0  0  0  0  0  0  0  0  0
    6.9836   -3.1228  -21.8688 O   0  0  0  0  0  0  0  0  0  0  0  0
    3.6933    4.3580  -20.1549 O   0  0  0  0  0  0  0  0  0  0  0  0
    6.4657    2.4664  -17.2739 S   0  0  0  0  0  0  0  0  0  0  0  0
    4.6819   -3.7769  -19.8655 Br  0  0  0  0  0  0  0  0  0  0  0  0
    6.1175    1.3233  -22.2525 H   0  0  0  0  0  0  0  0  0  0  0  0
    7.4300   -0.7122  -22.8159 H   0  0  0  0  0  0  0  0  0  0  0  0
    8.4639    8.6947  -20.4448 H   0  0  0  0  0  0  0  0  0  0  0  0
    3.6052   -1.0198  -19.6440 H   0  0  0  0  0  0  0  0  0  0  0  0
    4.3958    7.5023  -19.6960 H   0  0  0  0  0  0  0  0  0  0  0  0
    9.0047    8.1271  -18.0873 H   0  0  0  0  0  0  0  0  0  0  0  0
    4.5833    1.0960  -17.7975 H   0  0  0  0  0  0  0  0  0  0  0  0
    6.0352    0.6444  -18.7540 H   0  0  0  0  0  0  0  0  0  0  0  0
    6.0186    4.5607  -16.2267 H   0  0  0  0  0  0  0  0  0  0  0  0
    4.5785    3.4870  -16.2348 H   0  0  0  0  0  0  0  0  0  0  0  0
    5.8136    2.7340  -20.1008 H   0  0  0  0  0  0  0  0  0  0  0  0
    5.7964    4.9159  -18.6670 H   0  0  0  0  0  0  0  0  0  0  0  0
    3.2526    3.2124  -18.4702 H   0  0  0  0  0  0  0  0  0  0  0  0
    6.7600    8.9112  -23.6660 H   0  0  0  0  0  0  0  0  0  0  0  0
    7.5999    9.6732  -22.2730 H   0  0  0  0  0  0  0  0  0  0  0  0
    7.8753    7.9383  -22.6482 H   0  0  0  0  0  0  0  0  0  0  0  0
    4.5971    9.6454  -22.8346 H   0  0  0  0  0  0  0  0  0  0  0  0
    4.0090    9.1742  -21.2041 H   0  0  0  0  0  0  0  0  0  0  0  0
    5.3051   10.4068  -21.3699 H   0  0  0  0  0  0  0  0  0  0  0  0
    3.7988    2.1332  -21.3725 H   0  0  0  0  0  0  0  0  0  0  0  0
    3.1230    1.2527  -19.9601 H   0  0  0  0  0  0  0  0  0  0  0  0
    5.1963    6.4975  -16.1669 H   0  0  0  0  0  0  0  0  0  0  0  0
    3.9826    7.6047  -16.8933 H   0  0  0  0  0  0  0  0  0  0  0  0
    5.5084    7.4386  -22.1137 H   0  0  0  0  0  0  0  0  0  0  0  0
    3.5790    5.9788  -18.5607 H   0  0  0  0  0  0  0  0  0  0  0  0
    6.6349   -3.8747  -21.4046 H   0  0  0  0  0  0  0  0  0  0  0  0
    3.1912    5.1060  -19.8535 H   0  0  0  0  0  0  0  0  0  0  0  0
  1  2  2  0  0  0  0
  1  7  1  0  0  0  0
  2  9  1  0  0  0  0
  3  6  2  0  0  0  0
  3  8  1  0  0  0  0
  4  7  2  0  0  0  0
  4 10  1  0  0  0  0
  5  8  2  0  0  0  0
  5 11  1  0  0  0  0
  6 22  1  0  0  0  0
  7 19  1  0  0  0  0
  8 21  1  0  0  0  0
  9 10  2  0  0  0  0
  9 26  1  0  0  0  0
 10 29  1  0  0  0  0
 11 20  1  0  0  0  0
 11 22  2  0  0  0  0
 12 14  1  0  0  0  0
 12 28  1  0  0  0  0
 13 15  1  0  0  0  0
 13 28  1  0  0  0  0
 14 16  1  0  0  0  0
 14 19  1  0  0  0  0
 15 16  1  0  0  0  0
 15 23  1  0  0  0  0
 16 27  1  0  0  0  0
 17 21  1  0  0  0  0
 18 21  1  0  0  0  0
 20 23  1  0  0  0  0
 24 28  2  0  0  0  0
 25 28  2  0  0  0  0
  1 30  1  0  0  0  0
  2 31  1  0  0  0  0
  3 32  1  0  0  0  0
  4 33  1  0  0  0  0
  5 34  1  0  0  0  0
  6 35  1  0  0  0  0
 12 36  1  0  0  0  0
 12 37  1  0  0  0  0
 13 38  1  0  0  0  0
 13 39  1  0  0  0  0
 14 40  1  0  0  0  0
 15 41  1  0  0  0  0
 16 42  1  0  0  0  0
 17 43  1  0  0  0  0
 17 44  1  0  0  0  0
 17 45  1  0  0  0  0
 18 46  1  0  0  0  0
 18 47  1  0  0  0  0
 18 48  1  0  0  0  0
 19 49  1  0  0  0  0
 19 50  1  0  0  0  0
 20 51  1  0  0  0  0
 20 52  1  0  0  0  0
 21 53  1  0  0  0  0
 23 54  1  0  0  0  0
 26 55  1  0  0  0  0
 27 56  1  0  0  0  0
M  END
> <OMEGA_C>
jV+7QHqCvj6Zga7BTSTTQFRRR7/NCrHB5UH2QMjyBEHHU57BdcuNQMjWdL8hsqLBmEqtQGiw9ECB
9prBG9z/QD7F/0B1lZPBW5CYQOhIkD7IXafBER3MQB/eAUGXLaLB0z/IQN4zAcD/bazBFG+lQCvo
BsBWQKXBBdW4QMuT60AWUJDBZUauQNAOvj+M3ZLBHvStQH8DdkC5l4bBgzGeQOxvF0AjTJzBsdGd
QFn1kEBA25DB+fSDQMmBZUA2OpjB0TnkQJL8C0EQJrXB6X+cQAekF0FtTa7BvomBQMQBxD+X46PB
BBaXQGct2kDi2IjBRaa+QHXSBUHkyq3B6ofhQJrM8EBS0IzBGjiBQE0PtUCX243B8OLyQAUIP0BT
ipDB8JLWQBZw1z+ocoDB63nfQOTbR8BI867ByV5sQJB0i0AyPaHBpubOQMfZHUD9MIrBPdKVQLK4
ccB77J7BWsLDQE5iqT8VBbLBgcLtQLhTNr/3hrbBAWwHQW0dC0HjjqPBNrtmQGuJgr/cJp3BNaqM
QAYT8EB7kZ3BZhMQQZgIAkHkspDBPaqSQC9IjD9UYY7BEyDBQF/2JD8gCJbBQpjAQHrxkUA50IHB
L4OSQMIrX0Dl4IHBSQm6QG76LkBkzqDBfXy5QB5PnUD0VZXBTCpQQLKXTUD6wpPBt1HYQDSUDkHx
U73BBjLzQHfFGkEwL7LBigL8QEUG/kCQL7XBhRuTQHdTGkEsrbbBwkmAQKnJEkHooanBwcOpQDOC
JkF89arBkx9zQE+GCEDP+qrBr99HQAdZoD9Nrp/BD0imQJLrz0DDVYHB6+J+QBRa80BkJYfBc0Sw
QLII7kDJ6LDBUA5lQOxRv0BffJTB8VDUQHz7d8CdPKvB/TtMQGlko0D8057Bfsu5QGTvvj5Qfq7B
huzRQMBFRL/+IbHBoOL4QG//BUELgp3BAtWNQIRneb97cKLBB8OuQBKu+kAMYZrBSUABQbZG+0Dm
TZPBQJKXQMToiD6sMKfBbkLOQFOeBUEHTaHBrP/HQKOzAMCsdKzBy9ilQINVB8B8F6XBMF66QC5j
60AzL5DBZvGsQEEZvT8npZLB00WuQOhTd0C/s4bBj/6cQARSFkAzJJzBQtCdQBcakUA5B5HB6S2D
QHMbZUBbI5jBZcWVQPcACUGcOLDB1EvjQAxdC0HkybTBayyAQMrSwD+poKPB77+XQHIy2kD78YjB
QQ3CQN1AEEFn/qvB75njQExZ60Ao3IzBQ7uBQKi/tUAMK47BA1/yQMBWPECWqJDBa9HVQK5x2D+I
V4DBM4TfQN+wRsBcGK/BWn5pQMSqikCbLqHBh0vOQCFiHUCMK4rBZZSXQId1csCCpp7BdXTBQIvq
qT92DbLBgBPsQIRNML8bv7bBKQIJQeCrDEE9aaLBe81nQAFChr9IwpzBf7WNQN+2+UAk5JzBoKUR
QXwx+0B6k5DB0UyRQMcWjj+iDo7B6Ea/QBFIHz+av5XBHpXBQBSukkDaHYLBJPCSQH83YkBx04HB
SOK4QKYKLUCZsqDBoWK5QNm0nECLqpXB70hPQM0LTkDJeZPBSfCOQGcfEUH51rfBwfqVQHUs70Bp
fLHBqOF5QBsmDUGLVqrBnZjZQKsuE0FVSrzBLmYBQX1zEUH4TrLBJzTlQD7v80AyCbbBBBJvQEHL
BkB1rqrBTeFFQFCZmz8lUJ/BkymmQNRVz0DOY4HB2WKAQBSt80B0SYfBPRTBQFOtIUF3xqrBPBNo
QIOBwEBA4ZTBZgfVQKAbd8C6UavB+91JQEzPokBPy57BesCwQO9IWT42DbDBlPXHQOZZbb8ERbPB
VenwQGnGDkHHoZ3BphGUQAyhhL8C3aDB2I/dQO9QA0EUyIvB0nvNQOBIA0FGkqHBLnuWQF/YIT4q
4KbBVjf5QLDpDkEDj5LBnrzFQNdiB8DHNK3BQAasQDGLCsBD66PBLqC6QIEw8EAjQJDBSKurQOdl
uD9j+JHBl52tQK+nd0DHd4bBj6ucQHn2EUBfw5vBn9GeQPAekUAzBJHBtd+DQJVvZECbNJjBp6If
QZyUDEElkYjBcaIHQbgPLUGEQ4bBe6p+QI/Hsz/HB6PBmUiaQIMT20Bb6YjBN3kPQfSgG0GXHo7B
NBCzQBra8ED/8prBZLyDQKj7tkC2VI7BlGHyQEG3NUCmdo/B6YzRQKAb1j9Rin7B0IzcQEA0TcA9
VbDBkPdtQLBZiUD6lKHB6JbMQJK4GkB1UonB6rapQHuwb8BhUJvBCRGzQCJCkD9sm7TBEn3bQIcM
ZL9XZLrBaMQCQUdoF0HFDqPBW3h/QCieir8X45nBMAzjQLYEA0GdQIPBAErHQHclA0E4EqrBZHKP
QH7siz9ygY3B4wa+QOqLEj/C0pTB8CjBQESlkkDz4YHB+GaRQAJTZUAVu4HBxvW4QOJvJUA9ZqDB
cCe7QMmQm0CiiZXBTvlOQDdjUEAtpZPBBxgtQaUFFkHRbIXBAKwXQWAtBEFY8IHBwKUlQfvRAEEV
Yo7BG3QVQREGNkGUKYPBM5T5QHkVOEFld4rByif+QGV6JUGoJX/Be9FqQIKo/z8DBKrBIsJFQO4+
jT+PcZ7BSAOrQBGvzkDW0IHB3IOCQKEQ80C6bYbB0aYXQb2SI0HD0pTB5WluQJoowkA0JJXBBLDX
QILWesDOdavBtNFPQDZvokBJhp/B0CWzQOYHkD4/ALDBAinKQOzPXL/1M7PB6XTZQFg1C0HOVqbB
I1CTQGoefr82WaHBBHvYQO1fBUF5OZPBVDq1QCzj+0CfLqfBR2SXQIRbXT5HG6fBICLrQFCkD0FL
KZzBXTrGQF5BBMA8Za3BMAarQIwaCMDZYaTBtVa0QExR8EA3opTB8+WpQChJtz+1wZHBq1SrQIzn
dUCp6IXBhdqcQCNYE0Daj5vBZs2eQKG9kEAIi5DBeSOEQNXpZUBPCZjB2ncKQdb5KEGI0o/BEhIK
QZLdL0G0l6PBrUiAQHszuz8NRqPBOVaeQJGE3UC44orB2XgJQa4EHkHd9ZrBgRyjQPjt6UCweJ7B
ztKEQHYot0AA243BdgXxQGPzMUD4R47BsqfMQJo3zT+iPX3BttTcQC9lSsBZgLDBPt5xQMj7ikCl
Z6HBPO3JQPvWF0Czm4jBVkumQKmzbsDEHZzB3762QOiTmj/eWbTBxtjeQE5YUb9rHbrBtbjnQLT7
EUFBca3Bm8R7QLHyhb9llZrB6t/lQL6lB0FcV4vBD56nQPjC9UCP+a7BrdKMQGotiz8Ooo3BTUq8
QIfmDz8/kJTBHIe+QOs4kUAKEoHBrjCOQKRSZEAhfYHBlwK6QFa1JkBz25/BiRS8QImKmkD8xJTB
GRROQG0zUkDXvZPBBeIYQTcHM0E8V4/BUFj4QN/9MkEXso7BxgwLQVqrHEHAiYnBunYYQYa9OUEW
d6LBoG4KQQaKKEGFl6vBU3j3QNv2OUEF16LB85pvQOUZBUASPqrB2OtFQNvzlD9nCJ/BdbK2QAtN
1EBO94TBl/OIQKu69UDRY4fB8tMXQVMDFEF955vBFNJlQPWOvkCeOJTB3r7WQK20eMBf0avBxtRT
QFMepEBpXJ/B

> <OMEGA_E>
uINRPujdVD5Y9fU+6KkNPw==

> <OMEGA_NBR>
     22202

$$$$
50172245
  -OEChem-04172616093D

 57 59  0     1  0  0  0  0  0999 V2000
    8.1398    7.9509  -18.5412 C   0  0  0  0  0  0  0  0  0  0  0  0
    7.1416    7.4479  -17.6865 C   0  0  0  0  0  0  0  0  0  0  0  0
    7.8052    8.3867  -19.8382 C   0  0  0  0  0  0  0  0  0  0  0  0
    5.8121    0.3803  -21.7911 C   0  0  0  0  0  0  0  0  0  0  0  0
    6.5594   -0.7565  -22.1435 C   0  0  0  0  0  0  0  0  0  0  0  0
    5.4719    7.7946  -19.4341 C   0  0  0  0  0  0  0  0  0  0  0  0
    4.4472   -0.9834  -20.2908 C   0  0  0  0  0  0  0  0  0  0  0  0
    5.8044    7.3787  -18.1278 C   0  0  0  0  0  0  0  0  0  0  0  0
    6.4683    8.3158  -20.2908 C   0  0  0  0  0  0  0  0  0  0  0  0
    4.7517    0.2649  -20.8692 C   0  0  0  0  0  0  0  0  0  0  0  0
    6.2495   -2.0078  -21.5740 C   0  0  0  0  0  0  0  0  0  0  0  0
    5.1889   -2.1215  -20.6470 C   0  0  0  0  0  0  0  0  0  0  0  0
    5.4158    1.4707  -18.2841 C   0  0  0  0  0  0  0  0  0  0  0  0
    5.4179    3.8678  -16.7877 C   0  0  0  0  0  0  0  0  0  0  0  0
    4.9210    2.3389  -19.4747 C   0  0  2  0  0  0  0  0  0  0  0  0
    4.9274    4.5297  -18.0929 C   0  0  1  0  0  0  0  0  0  0  0  0
    4.1077    3.5679  -18.9828 C   0  0  1  0  0  0  0  0  0  0  0  0
    5.0492    9.9373  -21.6005 C   0  0  0  0  0  0  0  0  0  0  0  0
    5.5872    7.6676  -22.5621 C   0  0  0  0  0  0  0  0  0  0  0  0
    4.0204    1.4968  -20.4108 C   0  0  0  0  0  0  0  0  0  0  0  0
    4.7259    6.8606  -17.1976 C   0  0  0  0  0  0  0  0  0  0  0  0
    6.1103    8.8207  -21.6847 C   0  0  0  0  0  0  0  0  0  0  0  0
    4.0432    5.6830  -17.7784 N   0  0  0  0  0  0  0  0  0  0  0  0
    7.5720    2.9544  -18.0039 O   0  0  0  0  0  0  0  0  0  0  0  0
    6.6639    1.6928  -15.9784 O   0  0  0  0  0  0  0  0  0  0  0  0
    6.9777   -3.0989  -21.9250 O   0  0  0  0  0  0  0  0  0  0  0  0
    3.6629    4.3167  -20.1189 O   0  0  0  0  0  0  0  0  0  0  0  0
    6.4374    2.4626  -17.2079 S   0  0  0  0  0  0  0  0  0  0  0  0
    4.7376   -3.8067  -19.8695 Br  0  0  0  0  0  0  0  0  0  0  0  0
    9.1639    8.0030  -18.2023 H   0  0  0  0  0  0  0  0  0  0  0  0
    7.3999    7.1148  -16.6922 H   0  0  0  0  0  0  0  0  0  0  0  0
    8.5735    8.7766  -20.4895 H   0  0  0  0  0  0  0  0  0  0  0  0
    6.0495    1.3402  -22.2255 H   0  0  0  0  0  0  0  0  0  0  0  0
    7.3712   -0.6713  -22.8507 H   0  0  0  0  0  0  0  0  0  0  0  0
    4.4523    7.7144  -19.7811 H   0  0  0  0  0  0  0  0  0  0  0  0
    3.6437   -1.0649  -19.5737 H   0  0  0  0  0  0  0  0  0  0  0  0
    4.5496    1.0926  -17.7214 H   0  0  0  0  0  0  0  0  0  0  0  0
    6.0024    0.6229  -18.6676 H   0  0  0  0  0  0  0  0  0  0  0  0
    6.0063    4.5910  -16.2042 H   0  0  0  0  0  0  0  0  0  0  0  0
    4.5538    3.5342  -16.1942 H   0  0  0  0  0  0  0  0  0  0  0  0
    5.7935    2.6938  -20.0429 H   0  0  0  0  0  0  0  0  0  0  0  0
    5.8008    4.8805  -18.6621 H   0  0  0  0  0  0  0  0  0  0  0  0
    3.2439    3.2064  -18.4057 H   0  0  0  0  0  0  0  0  0  0  0  0
    4.8042   10.2881  -22.6139 H   0  0  0  0  0  0  0  0  0  0  0  0
    4.1414    9.5448  -21.1190 H   0  0  0  0  0  0  0  0  0  0  0  0
    5.4453   10.7754  -21.0082 H   0  0  0  0  0  0  0  0  0  0  0  0
    5.3350    8.0518  -23.5614 H   0  0  0  0  0  0  0  0  0  0  0  0
    6.3641    6.8941  -22.6521 H   0  0  0  0  0  0  0  0  0  0  0  0
    4.6890    7.2330  -22.0991 H   0  0  0  0  0  0  0  0  0  0  0  0
    3.7424    2.1010  -21.2870 H   0  0  0  0  0  0  0  0  0  0  0  0
    3.1114    1.1983  -19.8680 H   0  0  0  0  0  0  0  0  0  0  0  0
    5.1847    6.5739  -16.2398 H   0  0  0  0  0  0  0  0  0  0  0  0
    3.9863    7.6565  -17.0262 H   0  0  0  0  0  0  0  0  0  0  0  0
    7.0153    9.2340  -22.1537 H   0  0  0  0  0  0  0  0  0  0  0  0
    3.5971    5.9708  -18.6258 H   0  0  0  0  0  0  0  0  0  0  0  0
    6.6510   -3.8609  -21.4611 H   0  0  0  0  0  0  0  0  0  0  0  0
    3.1643    5.0706  -19.8263 H   0  0  0  0  0  0  0  0  0  0  0  0
  1  2  1  0  0  0  0
  1  3  2  0  0  0  0
  2  8  2  0  0  0  0
  3  9  1  0  0  0  0
  4  5  2  0  0  0  0
  4 10  1  0  0  0  0
  5 11  1  0  0  0  0
  6  8  1  0  0  0  0
  6  9  2  0  0  0  0
  7 10  2  0  0  0  0
  7 12  1  0  0  0  0
  8 21  1  0  0  0  0
  9 22  1  0  0  0  0
 10 20  1  0  0  0  0
 11 12  2  0  0  0  0
 11 26  1  0  0  0  0
 12 29  1  0  0  0  0
 13 15  1  0  0  0  0
 13 28  1  0  0  0  0
 14 16  1  0  0  0  0
 14 28  1  0  0  0  0
 15 17  1  0  0  0  0
 15 20  1  0  0  0  0
 16 17  1  0  0  0  0
 16 23  1  0  0  0  0
 17 27  1  0  0  0  0
 18 22  1  0  0  0  0
 19 22  1  0  0  0  0
 21 23  1  0  0  0  0
 24 28  2  0  0  0  0
 25 28  2  0  0  0  0
  1 30  1  0  0  0  0
  2 31  1  0  0  0  0
  3 32  1  0  0  0  0
  4 33  1  0  0  0  0
  5 34  1  0  0  0  0
  6 35  1  0  0  0  0
  7 36  1  0  0  0  0
 13 37  1  0  0  0  0
 13 38  1  0  0  0  0
 14 39  1  0  0  0  0
 14 40  1  0  0  0  0
 15 41  1  0  0  0  0
 16 42  1  0  0  0  0
 17 43  1  0  0  0  0
 18 44  1  0  0  0  0
 18 45  1  0  0  0  0
 18 46  1  0  0  0  0
 19 47  1  0  0  0  0
 19 48  1  0  0  0  0
 19 49  1  0  0  0  0
 20 50  1  0  0  0  0
 20 51  1  0  0  0  0
 21 52  1  0  0  0  0
 21 53  1  0  0  0  0
 22 54  1  0  0  0  0
 23 55  1  0  0  0  0
 26 56  1  0  0  0  0
 27 57  1  0  0  0  0
M  END
> <OMEGA_C>
dDwCQS1u/kBqVJTBPIjkQJZV7kDwfY3B+sP5QP8vBkG2tJ7Blfy5QKS7wj48VK7B0ubRQBGsQb/s
JbHB8BmvQPps+UAVeZvBcE+OQFnBe7+JU6LBYr25QF8e7ECkBZHBqfzOQK8NBUGTU6LB5w2YQAae
hz4r9KbBovvHQF+AAMCPl6zBjwumQEPHB8AcLaXB4E2tQJRAvD/rRZLBDV+tQKOJd0BPTYbBmHid
QP+vFUBCzJvBHq2dQPHykEBBvpDBUXKDQDtYZEDW3JfBUZOhQBr/HkHTzazBnMqyQL5c9UAjf7TB
5aaAQCWXvz9cSaPBkjqXQMWJ20CqlInBNIfDQJMhDUExeq3BrmGBQLvatUA0Oo7BoE3yQCQUPUDk
B5DB7j7VQFSt2D+7p3/BUUnfQCJVRsBwZq/BYWxqQMwiikCD86DB/f7NQLuaHUC0qYnB05qXQLGg
c8DO9J7BSJ8SQT8MAEFZnpHBYszsQJGs40CMiYXB5ywJQfJsDEF46qPBtZXBQDSLqz/pzbHBCOHr
QCfYK79BzrbBYnmOQCHc9kCtP57BbTJpQHVPiL8Hl5zBG5aRQBLZiz9XxY3BuRPAQB92Hz85V5XB
9DPAQMHpkkAeooHBGbmRQPEwYkDSjYHBJGS5QBZnLEDHV6DBWKC5QLUsnEARTJXBiptPQEw1TUDW
PpPBAryZQBScJEEr6bTBr4aEQE23GEG786jBvD+uQOFnLEHiEKjBYbiqQGDUAEHRfbzB86bLQCOc
3ECXN7XBsgyWQIl050DbyrDByYNvQP11BkDWS6rBUiFHQHNimT+X8Z7BqeilQEld0kAc64HB0x5/
QEMC9UCjNYjBsX3gQEy+E0HaOrHBKTZmQNEQv0C4AZXBDNXUQPgYd8BhsKvBOIRKQLlCokBZnJ7B
BUABQQzG/0CNOpTBgITjQD198EBfA43B5+n2QJL+BEGS057B/+a6QKgEwz5rgq7BhrjSQNQVRL/T
H7HB/0itQECw9UD2/ZrBQBKOQI6kdL8QlKLBOsW4QO7Q60A3ZZDB9/rLQJJaAkFSU6LBCGiYQKJt
kT65R6fBUznIQDqEAMDQfKzByMelQJ6VBsDhM6XBc1+tQCJtvT+gp5LB6jiuQDDPdkDbjYbB2c2d
QMoKF0AeJJzBrOadQI4UkUDv2JDBBMKDQCB1ZUCdHpjBWOfhQFz/DkFFHbXBJWaYQJacFkEKMq7B
2ziBQOSWwz9BwqPBTRmXQCRw2kBl5YjB98K9QK5qBkF35q3BUFOBQBZNtUBi543BobDyQCaEPEDj
cpDBfa/VQMTZ1j+VQYDBMHrfQLLxRsBlFa/Ba45rQIcwi0D9JqHBq2/OQLgjHUC+DYrBhrSWQLyK
ccCY1Z7BKZ8RQabYAUHMpJHBf3bsQAJg6ED76oTB/WYHQVbyCkGEUKTBEALDQCPDqj+2B7LBQhHt
QF36Mb/qr7bB936MQESx8UBriJ3BeNVnQN3+gr/u9JzB9Y2RQHMDjj9qJo7BNc6/QG59ID94wpXB
/WTBQJZXkkCG6IHBGNOSQFtPYUAQuoHB+9y5QNYfLkBamqDBHny5QCk+nUD9Y5XB5/VPQN31TUAG
lZPBdIjVQEWJEUEuQb3BWcDtQJBBHkFJ4bHB1Tr8QAlTA0HhWrXBAp+OQNpVGUHqibbBp1h6QHsy
EEHHoanBqM6iQLXUJUF4n6rBvldyQEKKCEA706rBGVBHQPAunz9ej5/BqFqmQGU70EAZY4HBqdl+
QIyU80AkMYfBy1qyQFJr7kBdSrHB0o5lQCaCv0CRjpTBh5nUQEsvd8BtV6vBcqVLQFI6o0DswZ7B
xPjPQK6UBEGeDqLBlYezQDd48kB+cpvByOjyQEiND0H6i53BksywQNJIWT7fC7DBgAzIQNobbb8L
RLPB9YLdQHtfA0EWw4vBFBOUQP71hL8I4KDB1Xa6QGii8EDSRJDBKsn5QGQkD0EHYJLBT3uWQGL/
Hz7w4KbBfdPFQOldB8AMNq3BvxKsQHyjCsCl7qPBtImrQED3tz9y9JHBbGWtQERvd0ACcIbBLpSc
QAjFEUCMv5vBs6aeQEEBkUDi/JDBjr6DQPMuZEB8MJjByXgfQUdqDEHX+4fBOm0HQTjiLEEAtIXB
8ZN+QP9qsz8CCKPBzQyaQDIY20BQ94jBNZYPQQ2qG0EFmY3BzoODQIXHtkCNS47BezbyQEeXNUAM
a4/Ba1PRQCif1T9Ie37Blq3cQLwgTcAZVrDB/a1tQOo3iUC1kKHBvmbMQHyGGkBBSonBn8GpQLzZ
b8DOVpvBtQHLQPrgBEEum6rBw0WYQGJe4kDG6Z7BLUoEQY5UGEEypqLBjB2zQKZWkD8CmLTBJpzb
QAV+Y7/dYbrB4sbiQEnZAkEZOoPB32t/QNsei7+q55nBT0yPQOVjiz9NgI3BRu29QCrQET8qzpTB
JenAQFWJkkA82IHB5imRQGQSZUCitYHBIuO4QJFNJUCcX6DBGv66QIR/m0Dlf5XBwbdOQBoQUEAu
opPB+sgsQU28FUEJm4TBTzEXQbDMA0HIhYHBhb8lQU7YAEFM043BKh8VQU+xNUEaXYLBgan5QFAU
OEE/84nBlAj9QHogJUEnXH7BIcVqQAxg/z/XA6rB96NFQJC9jD97dJ7B/9eqQD7YzkBF3YHB7iWC
QBn48kCSfobBqxcYQSrNI0HQI5TB2G5tQKXCwUAYGJXBac7XQM3LesAaeKvBgHtPQIBJokDpgZ/B
c5S0QHIv/0CLR6jBiSGhQCmN7ECSTp/BxlnZQBNJDEHGCafB3wyzQN/UkD5MAbDB4A/KQC8+XL+l
OLPBo03YQCOKBUGnz5PBBVqTQLz8fb/nVqHBo56zQKVH8UCaDZXBZc7qQJcfEEEAvJzBD1uXQAqc
XT5HGafBMzHGQAYfBMAUaq3BrBCrQDsDCMAUY6TBTPypQCzctz+BwJHBmK2rQJDddkAW/oXB8NOc
QF1cE0BKkJvByOCeQNn7kECdo5DBTxCEQFu/ZUByCJjB+hoKQew/KUH1LZDB9QAKQRueMEFL5KPB
cjmAQFL3uj8CQaPBBEKeQEMd3kDaNYvBbEoJQXSEHkEBYZvBQt+EQCZYt0B+743BPTHxQKkuMkBF
W47BY9jMQCcpzz//RX3BL8jcQH48SsB0iLDBdp5wQDFeikDVbaHBehzKQM5zGEDypojBqG2mQGGb
bsCSH5zBnEinQNAE+kAvJrDBUeSDQA6B2kD/O6DBgXzoQBgxE0Hn/q3Bjpm2QMvTmj80WrTBXbLe
QAadUL+FJLrBiXvmQMpjB0F//IvBCfZ7QLv0hb87kJrB3vaMQL/niz8lmY3BMly8QOPVED+gjJTB
Xg+/QGTLkUAqOoHBmaSOQDeqZUCVgYHBvu25QITPJkBg4J/BkQS8QJDCmkCe7ZTBB2tOQNjlUUBZ
pZPB1X8YQSlPM0Gcl4/BbY/3QGw5M0EuDo/B1ZsKQc/QHEHg9InBzV8YQbZ3OkHmpKLBQnwKQXOD
KUF+8KvBkU33QPGvOkEIH6PBgj9vQJzvBEDGN6rBC/BFQM9+lD/n/Z7BHBy3QBBN1UB5YYXB/9WI
QGop9kCPqIfBqK0XQU+PFEH0U5zBO8RkQFVIvkAAO5TBGb7WQOaOeMD62KvBUXRSQF2Bo0Cpap/B

> <OMEGA_E>
MNgUPuD0FD4oDtw+gicDPw==

> <OMEGA_NBR>
     26255

$$$$
50172239
  -OEChem-04172616093D

 56 58  0     1  0  0  0  0  0999 V2000
    8.1311    7.9500  -18.3587 C   0  0  0  0  0  0  0  0  0  0  0  0
    7.1473    7.3925  -17.5228 C   0  0  0  0  0  0  0  0  0  0  0  0
    7.7876    8.4060  -19.6461 C   0  0  0  0  0  0  0  0  0  0  0  0
    5.8624    0.3675  -21.6960 C   0  0  0  0  0  0  0  0  0  0  0  0
    6.6043   -0.7739  -22.0446 C   0  0  0  0  0  0  0  0  0  0  0  0
    5.4659    7.7603  -19.2564 C   0  0  0  0  0  0  0  0  0  0  0  0
    4.4432   -0.9969  -20.2476 C   0  0  0  0  0  0  0  0  0  0  0  0
    5.8166    7.2958  -17.9700 C   0  0  0  0  0  0  0  0  0  0  0  0
    6.4538    8.3143  -20.1038 C   0  0  0  0  0  0  0  0  0  0  0  0
    4.7812    0.2543  -20.7979 C   0  0  0  0  0  0  0  0  0  0  0  0
    6.2628   -2.0286  -21.5015 C   0  0  0  0  0  0  0  0  0  0  0  0
    5.1754   -2.1409  -20.6057 C   0  0  0  0  0  0  0  0  0  0  0  0
    5.3666    1.6120  -18.1867 C   0  0  0  0  0  0  0  0  0  0  0  0
    5.3664    3.6540  -16.8848 C   0  0  0  0  0  0  0  0  0  0  0  0
    4.9080    2.3696  -19.4648 C   0  0  2  0  0  0  0  0  0  0  0  0
    4.9120    4.4740  -18.1118 C   0  0  1  0  0  0  0  0  0  0  0  0
    4.0864    3.5988  -19.0520 C   0  0  1  0  0  0  0  0  0  0  0  0
    5.0462    9.9209  -21.4515 C   0  0  0  0  0  0  0  0  0  0  0  0
    5.5796    7.6290  -22.3641 C   0  0  0  0  0  0  0  0  0  0  0  0
    4.0284    1.4825  -20.3726 C   0  0  0  0  0  0  0  0  0  0  0  0
    4.7727    6.7074  -17.0521 C   0  0  0  0  0  0  0  0  0  0  0  0
    6.1013    8.7987  -21.5069 C   0  0  0  0  0  0  0  0  0  0  0  0
    4.0531    5.6074  -17.7139 N   0  3  0  0  0  0  0  0  0  0  0  0
    6.1122    2.4969  -17.3201 O   0  0  0  0  0  0  0  0  0  0  0  0
    6.9861   -3.1242  -21.8486 O   0  0  0  0  0  0  0  0  0  0  0  0
    3.7126    4.3670  -20.1964 O   0  0  0  0  0  0  0  0  0  0  0  0
    4.6743   -3.8326  -19.8744 Br  0  0  0  0  0  0  0  0  0  0  0  0
    9.1513    8.0284  -18.0131 H   0  0  0  0  0  0  0  0  0  0  0  0
    7.4130    7.0386  -16.5377 H   0  0  0  0  0  0  0  0  0  0  0  0
    8.5476    8.8281  -20.2870 H   0  0  0  0  0  0  0  0  0  0  0  0
    6.1198    1.3292  -22.1148 H   0  0  0  0  0  0  0  0  0  0  0  0
    7.4358   -0.6896  -22.7286 H   0  0  0  0  0  0  0  0  0  0  0  0
    4.4422    7.6926  -19.5938 H   0  0  0  0  0  0  0  0  0  0  0  0
    3.6219   -1.0769  -19.5509 H   0  0  0  0  0  0  0  0  0  0  0  0
    4.4826    1.2379  -17.6496 H   0  0  0  0  0  0  0  0  0  0  0  0
    6.0054    0.7646  -18.4765 H   0  0  0  0  0  0  0  0  0  0  0  0
    6.0042    4.2796  -16.2430 H   0  0  0  0  0  0  0  0  0  0  0  0
    4.4831    3.3268  -16.3165 H   0  0  0  0  0  0  0  0  0  0  0  0
    5.7951    2.6962  -20.0273 H   0  0  0  0  0  0  0  0  0  0  0  0
    5.7997    4.8443  -18.6456 H   0  0  0  0  0  0  0  0  0  0  0  0
    3.1878    3.2568  -18.5174 H   0  0  0  0  0  0  0  0  0  0  0  0
    4.8091   10.2527  -22.4731 H   0  0  0  0  0  0  0  0  0  0  0  0
    4.1336    9.5424  -20.9679 H   0  0  0  0  0  0  0  0  0  0  0  0
    5.4428   10.7687  -20.8735 H   0  0  0  0  0  0  0  0  0  0  0  0
    5.3303    7.9945  -23.3712 H   0  0  0  0  0  0  0  0  0  0  0  0
    6.3561    6.8534  -22.4375 H   0  0  0  0  0  0  0  0  0  0  0  0
    4.6798    7.2039  -21.8954 H   0  0  0  0  0  0  0  0  0  0  0  0
    3.7366    2.0553  -21.2652 H   0  0  0  0  0  0  0  0  0  0  0  0
    3.1267    1.1807  -19.8196 H   0  0  0  0  0  0  0  0  0  0  0  0
    5.2646    6.3228  -16.1465 H   0  0  0  0  0  0  0  0  0  0  0  0
    4.0540    7.4922  -16.7737 H   0  0  0  0  0  0  0  0  0  0  0  0
    7.0104    9.1986  -21.9798 H   0  0  0  0  0  0  0  0  0  0  0  0
    3.6125    5.9702  -18.5350 H   0  0  0  0  0  0  0  0  0  0  0  0
    3.3551    5.2658  -17.0843 H   0  0  0  0  0  0  0  0  0  0  0  0
    6.6373   -3.8882  -21.4047 H   0  0  0  0  0  0  0  0  0  0  0  0
    3.2059    5.1216  -19.9202 H   0  0  0  0  0  0  0  0  0  0  0  0
  1  2  1  0  0  0  0
  1  3  2  0  0  0  0
  2  8  2  0  0  0  0
  3  9  1  0  0  0  0
  4  5  2  0  0  0  0
  4 10  1  0  0  0  0
  5 11  1  0  0  0  0
  6  8  1  0  0  0  0
  6  9  2  0  0  0  0
  7 10  2  0  0  0  0
  7 12  1  0  0  0  0
  8 21  1  0  0  0  0
  9 22  1  0  0  0  0
 10 20  1  0  0  0  0
 11 12  2  0  0  0  0
 11 25  1  0  0  0  0
 12 27  1  0  0  0  0
 13 15  1  0  0  0  0
 13 24  1  0  0  0  0
 14 16  1  0  0  0  0
 14 24  1  0  0  0  0
 15 17  1  0  0  0  0
 15 20  1  0  0  0  0
 16 17  1  0  0  0  0
 16 23  1  0  0  0  0
 17 26  1  0  0  0  0
 18 22  1  0  0  0  0
 19 22  1  0  0  0  0
 21 23  1  0  0  0  0
  1 28  1  0  0  0  0
  2 29  1  0  0  0  0
  3 30  1  0  0  0  0
  4 31  1  0  0  0  0
  5 32  1  0  0  0  0
  6 33  1  0  0  0  0
  7 34  1  0  0  0  0
 13 35  1  0  0  0  0
 13 36  1  0  0  0  0
 14 37  1  0  0  0  0
 14 38  1  0  0  0  0
 15 39  1  0  0  0  0
 16 40  1  0  0  0  0
 17 41  1  0  0  0  0
 18 42  1  0  0  0  0
 18 43  1  0  0  0  0
 18 44  1  0  0  0  0
 19 45  1  0  0  0  0
 19 46  1  0  0  0  0
 19 47  1  0  0  0  0
 20 48  1  0  0  0  0
 20 49  1  0  0  0  0
 21 50  1  0  0  0  0
 21 51  1  0  0  0  0
 22 52  1  0  0  0  0
 23 53  1  0  0  0  0
 23 54  1  0  0  0  0
 25 55  1  0  0  0  0
 26 56  1  0  0  0  0
M  CHG  1  23   1
M  END
> <OMEGA_C>
LBkCQQpm/kC43pLBV7bkQCqP7EDKLozBLzT5QC1/BkFHK53BF5m7QI0uvD5Ska3BO1bTQAUfRr9o
W7DBmeiuQEVU+EAJDZrBBS+OQPk1f78l+6HBViG6QMl26UCOwo/B64XOQH0HBUGI1KDB7/+YQCY6
gj4pYqbBgWjIQPLTAcASA6zBe5ylQPAECcBy2KTBg7urQARWzj9TfpHBRLmrQJHaaUD7E4fBmg6d
QNSmF0D9t5vBQy+dQLUqj0AQ5ZDBeMOCQLFSZkBsapjBbXqhQBa8HkGknKvByouyQB8h9EC+6bLB
o+iAQPTAvT8c+6LBs7mYQKWi1kCiaojBDT7DQHbHDEEpDqzBobKBQKlvs0D4tY3BEpfDQNPNH0Cq
j4rBfo7fQNLyR8D+ya7BdZttQKi+i0BUkqHBm5OVQOFJdcDe/p7B0msSQWt0AEHPGpDB+TbtQPs7
4UArTYTB4MIIQRBADUHES6LBgdXDQCsiqj8g67DBUPLtQHOKML8t1LXBZCaOQF8p9kAGwJzBDs1n
QMzYib9QaJzBO3GPQFVznj9bMo3BFCzAQBK/Qz/Tz5PBDSLAQD3yiECu8YHB9HWPQBTqVEBAiILB
q3G5QDOPLEDgN6DBW5e5QBkEm0AjKpXBfAVMQAZwUEC4I5TBv+OZQDYLJEHfyLPBNUaEQK2tGEFK
vqfBNiuuQHxMLEH6/KbBjJGqQDPT/0BN+LrBcGXLQGJP20D7f7PBQsGVQEGG5kC1Ka/BKyRvQF6J
A0AnH6rBXxtIQNkhlz9/jp7B8XeoQFpUykAALIHBELqBQBvA70CTMIbBjFXgQFctE0GZ1q/BxTJn
QDQMv0CaR5TBr7pWQM2BqEC/rIjBHWXUQH3YeMC7PKvB5i1NQHXko0CHXJ/B+xoAQQKp/kDD+5PB
mjPjQKhl7EBrs4zBD7rxQCvQBkFY/J3Bs7i6QGL/uT5R4q3B6nLSQLQ7SL9JjbDBsOeoQLAI+UAE
TpnBOWSNQOgUe78WH6LBBqW3QAJR6UABa4/Bd6fFQCSSBUHetKDB2DSYQHx0hj7uqqbB1pzHQObP
AcAyC6zBhtekQKxCCMDX26TBKbirQLfAyz8T0pHBpEesQJ2wZkBRL4fBD5SdQIiAF0AeAZzB/fad
QF6MjkAH15DBDBuEQJRPZ0Bnu5jBp5ygQLZo9kB54rHBE0zVQK1qGUFRSLLBH7+AQKIawD8XQqPB
r6+YQNqj1EAly4fBgrKzQLPcDUGNV6vBkOqBQJ6/sUAqSI3B+uzDQCUzHUDR1orB4t7eQOkhSMCS
rK7B2s10QKY3jUCg5KHB/vSUQMPbc8CRy57B1NQQQU+dAEEM6ZHByFHuQI7I4EB9DYXBoyAEQSmH
DUG6nKPBxObCQFPOqD9mWrHBr/vsQCcrNb86DrbBCESHQI0x90BMO5vB8zdmQM+Phr8TipzBoS+P
QNJFnT9zkI3B0Li/QKBoPD91LZTByr7AQIPJhkB77YHBAuuPQEs9UUAkt4LBUi26QB0cK0D3gqDB
fWS6QKCCm0C45JTB3LNMQMOkUkCzzZTBi9mTQHpaAUHifLnB8bq5QFmk3kBPh7PB2aiGQDhI50Ah
TK3BJkvGQKHqHkHFwLnBswfiQLZCJ0Hw4K3BVY7vQIVRDkHHKrTBA1hvQE0iBUDYYqrBLodHQNlt
mz860p7BokuqQHeix0AA54DBPXOBQEab7EBgAIXBf82ZQJY+GUG/kanBv2hmQDzqvUDJs5PBHzRY
QJi+pUC6QYjB+MXTQCCheMB5BqvBPlBVQETApUDNvJ/BF164QNrKAkH2E6XB+redQAcQ9ECPEp3B
b4fjQON5B0Fhv6LBV6/BQKmEvj5VAKzBozbYQBKtSb8a5K7B7zzZQDUI9UBXhpDBB3WNQOi7fb91
XKLBO4GuQH/560CAwpLBnxb0QMUaA0F1cpjBd2+cQFYJij6msKXBvknJQMVBA8AKlqvB46OjQLnQ
CcAVX6XBMu+uQIfl0D/Aq5DBXhCuQHPEakAyNIbBdXqhQOe0GECB/prBS3SfQPzOj0CE+I/BflSH
QJjtZ0Cn+ZfBYCgcQR3l7kDRTI/BnXwPQTPlHUFCgY7BUCCFQLtiwT+UUaLBML6TQC8p2kAHxonB
1JoQQcWOCUHed5XB9IeAQAEysUCjyYzBDnLGQIZLIUAhr4nBjU7fQPd/SsC5eq7BIrF8QCQDjUCx
RKHBe++NQCrBdsCRE6HByrmrQEXmBUG796zBkUp5QJDd7ECC0Z7BXuL3QI5iDkHJ0KjBld3MQIOc
qz9/m67B1/f0QJEhNr8ZpbPBf9PlQCbK7kCOoYjBSPJhQEBEiL/rgJ3B0iiSQMukoj/ugYzBX0/D
QPi7Rj+W0pLBMSDCQEV5iUCDAIHBrsuRQOD6VEAPuYHBPVG+QO1jLEA8Zp/Bx3+7QGtNnkAO3ZPB
NHFSQL65UkAnRJTBMXosQf44+UC1QI3Bu0cTQfCg50AB7IfBxescQSsW0kChV5TByMQfQb7WIkGr
QYzB2LwHQavQKkHrDZPBgiYGQcWKGkFrPIfBpK54QBetBUAseqnBuu5PQPLlnD/m8p3BpyeoQIxq
1UD4s4LBuUZ0QLUM8UAx2IfBjK8ZQfAnDUHfyZzBcHhZQPpWtkCw8JLBB6pfQOZHpkBViIbBXmvR
QD62e8DFrKvBfz5cQF54pUCySZ/BgEDQQIYV+kBJmqHBrqOwQP9B6kCCrJrB6PD2QPD6BEFTcp3B
tMi0QJA8iz4N2a/BJuPLQF1iY7/5mrLB1PbeQMOr+EC7YYvBks2RQCbDc79oX6HBBm+4QNw96ECg
jI/BQDb+QIN8BUHrPJLBBmKXQKGEdD6WRqfBOD3GQH34BMA+sqzBllapQL2/BsDEAaTBQBSlQAQp
xz90upHBfk+jQPLyYUBUsYbBpJKaQD+OFkCDFpzBnkeZQFzdjUCfXZDBeoSBQHYFaUA0K5nBeUUR
QTvRF0FkPoLBm7MdQb5qIEFJ05TBq01/QOSDvz+J/aPBGCWXQJsO1kDS64fBzjoUQTx0DkElqY3B
V/t8QEKjskBK54zB6JG7QC3XGEDbLorBjM/cQLk6TMDRZK/B51l6QPDVjkDTeaLBEuahQF5WbMAX
rJvBp9rKQE0R+kD7IqrByFCSQE6b30Ce2Z3B8K4HQdG/CkHl1aLBLpG5QGfSlz9SSrTBT/ThQH3z
Xb+sQLnBr8vkQHVT90BO34LBk7p2QK5ier8AzprBEhSHQIBAmj+DFI7BBjO5QE/aMD+ayZPBWwa2
QAIhg0Dax4DB6zKFQM1OTEBfBoPBP764QM+2KEALA6DBtZi3QBjWmUAosJPB4ZhDQNqhVkCHH5bB
0qwgQQv/HUFaoX7BcoMFQV3nJEEef4LBT4YLQZguC0G5qnnBOK8sQWBQJkGvRZHBvPQgQXIAGkFT
25zBNisSQW2oLUF3bJXBO3xxQK8DBkBALKvBTNxCQNQimz/lF6DBBnOnQJjbyUA/voDB69uAQLO2
70DWoIXBW+0fQUFVAUH7OI3BA25eQFgvvkAeUJPBbitSQCALqEBQlIfBPnrVQKO0ecDAsarBmqlb
QHYVqECwr6DBhOwEQRsuBUGNPI7B5KXnQOxN90BxrojBEggDQVGlCUG/PZnBs9mLQHx4ob/uvKLB
D/KjQNkoF8CIaabBdX29QPrG9kBHG5nB8zPBQKbggT5WQKrBQp/BQE3a7EALJo7B3nLfQMUvBUGg
yp7BLLGaQMWPXz2Ef6TBpCHLQA3PCcDixavBFeDZQMYVV78em63B3o68QHqY9T+wl5PBf5i/QOZ3
gkALYIvB8q+dQPYrGkBSg5zBw/afQDIJlkCvmZPBEGKCQNadZUDVSZjBwt30QAelHUFWV67Bi3ms
QEhODEGgla7BLKyAQGcZnz+feaDB79WcQClB2EC6E4jBAabbQCRkCUGM7KrBcv2EQH36t0AulI7B
HjzXQINqQEBiNJDB+WXiQAwGTsCPNa/Bsf1SQLxShEB+2qDBEK8HQc0VBL9gkrTBpYgTQUYUCUEI
DorBnIjqQHOw8EBeO4DBkWYQQZ+HEEFxf53B8gtcQKdptr8gk57BYWKYQAV5V8DsHqXBNAagQANV
70BSOJ3BlqzLQDDyoD+6EqzBuNOpQDR/xj+Cv4zBxK/QQGt8jT84uJbBbPjVQBdfm0AYqIjB/4qt
QOEjbEBbfITByPCwQIwBMUD0TaPBD5ayQKUfpEBvL5rBiqZaQNzpTUCx45HBul3xQLoUIEEsA7fB
szToQOyoK0G9D6rBj3ULQZCPG0HqXqzB2pSrQBM/D0EGQrfBPzOaQG11+0AsuqzBtD6eQAoBGkFT
W6rBfsZYQLI0zj9kCafBxahYQHrvaD9ZzpnBkc6pQAlGyEAy8IDB32GGQAWB8UBCnIXBISDpQOQg
90BwM6/BhjlrQJKDx0Dja5TBQ15fQCmqqUAszYnBF7L7QE5dOsAdorLBkIQxQCF3m0DjP57Bf6Ld
QFTFBUGj9J/BhWC8QDtY+EBBFJrBsxUCQSZtC0Fh15rBK97AQIuugz4Xz6nBUAzZQPSmV78iTK3B
YnXoQCIC+0Aw9InBCxONQGNioL8wkKHBHfDBQM5i70D+FY/BkeEEQTx3B0G5y4/Bn1abQMKvfT1v
oqPBviLLQICeCcDREavBAMikQFnlFsDoUKXBCWm+QF9g/T+kRZPB3H/BQHIyhUAMcovBulOeQMDa
G0DpCZzB68KgQPqcl0ACkZPBPwuDQKhCZ0BrzJfBBHwlQffz9EDZtIXBhDoVQYy3HkHvZIHBqFmB
QE74nz8Vl5/BMDieQKwf20AEj4jBUrEZQV8pDkFbUIrBFwCGQFDTuUCRmo7BKAXZQPiBRUA3PpDB
gpfiQBUfTcDDo67BYIVRQIgQhED9O6DBvHWQQEoshMBFpqLByZvZQIjOCEHGZqjBHo+eQBFy8ECu
+Z3BkskOQa/TEkHQYZ/Bm+zKQNccoT/C16vB21v2QIILL78UsrHB84vsQD+q9EC5hYHBQ+JfQHPc
tL89GJ3BeKCsQDV+zz9sPYzBUIPSQANUlT/capbBh9vXQAqankBWBonBdFmwQJ56ckCrXYTB+aCw
QPsPMkA8BqPBj4CyQC4ipUDEX5rBcRZeQGEmUEB8KJHBGGI0QbVX/0DDzoHBQS0bQcnq5EAPnX/B
qUgpQViQ3kDLOYzBoWIkQexQI0F0HXvBZaINQYf4LEEr5ITB+3sKQW+kF0H9xnbBPzZYQBIHzD87
C6bBQ/pbQMTTbD8Xt5jBj0+sQG0xzEATaYHBpcaHQNhm9EDOGobBFSAkQbiyFUH/UJDBbGZrQK5v
yEBscJTBRPpiQATfq0D0jInBUTjVQFiEgMAehqzBoBwwQH8xm0A2nJ3B

> <OMEGA_E>
SL+0PoDWuz7I5AY/mroYP56SHj96VyY/

> <OMEGA_NBR>
     32099

$$$$
50172178
  -OEChem-04172616093D

 66 68  0     1  0  0  0  0  0999 V2000
    7.8951    8.3003  -19.5576 C   0  0  0  0  0  0  0  0  0  0  0  0
    6.2925   -0.4176  -22.8220 C   0  0  0  0  0  0  0  0  0  0  0  0
    7.4033    7.5654  -18.4788 C   0  0  0  0  0  0  0  0  0  0  0  0
    7.0159    9.0080  -20.3772 C   0  0  0  0  0  0  0  0  0  0  0  0
    5.6410    0.6869  -22.2731 C   0  0  0  0  0  0  0  0  0  0  0  0
    6.2022   -1.6614  -22.1973 C   0  0  0  0  0  0  0  0  0  0  0  0
    5.1538    8.2461  -19.0391 C   0  0  0  0  0  0  0  0  0  0  0  0
    4.8090   -0.6961  -20.4752 C   0  0  0  0  0  0  0  0  0  0  0  0
    6.0329    7.5384  -18.2194 C   0  0  0  0  0  0  0  0  0  0  0  0
    5.6455    8.9810  -20.1178 C   0  0  0  0  0  0  0  0  0  0  0  0
    4.8992    0.5477  -21.0999 C   0  0  0  0  0  0  0  0  0  0  0  0
    5.4604   -1.8005  -21.0241 C   0  0  0  0  0  0  0  0  0  0  0  0
    5.5371    1.5204  -18.4148 C   0  0  0  0  0  0  0  0  0  0  0  0
    5.7328    3.7277  -16.7817 C   0  0  0  0  0  0  0  0  0  0  0  0
    5.0999    2.4824  -19.5188 C   0  0  2  0  0  0  0  0  0  0  0  0
    5.2813    4.5461  -17.9874 C   0  0  1  0  0  0  0  0  0  0  0  0
    4.3930    3.7378  -18.9571 C   0  0  1  0  0  0  0  0  0  0  0  0
    5.2101   -2.3268  -17.5978 C   0  0  0  0  0  0  0  0  0  0  0  0
    4.7249    9.2350  -22.4502 C   0  0  0  0  0  0  0  0  0  0  0  0
    4.9657   11.2568  -20.9630 C   0  0  0  0  0  0  0  0  0  0  0  0
    4.1981    1.7366  -20.5099 C   0  0  0  0  0  0  0  0  0  0  0  0
    5.5046    6.7469  -17.0576 C   0  0  0  0  0  0  0  0  0  0  0  0
    4.5388   -3.5351  -18.2263 C   0  0  0  0  0  0  0  0  0  0  0  0
    4.1776   -3.2882  -19.6831 C   0  0  0  0  0  0  0  0  0  0  0  0
    4.7062    9.7381  -20.9946 C   0  0  0  0  0  0  0  0  0  0  0  0
    4.5660    5.7219  -17.4801 N   0  0  0  0  0  0  0  0  0  0  0  0
    7.8325    2.7209  -17.9928 O   0  0  0  0  0  0  0  0  0  0  0  0
    6.7686    1.4222  -16.1107 O   0  0  0  0  0  0  0  0  0  0  0  0
    4.0502    4.5710  -20.0678 O   0  0  0  0  0  0  0  0  0  0  0  0
    5.3717   -3.0145  -20.4149 O   0  0  0  0  0  0  0  0  0  0  0  0
    6.6544    2.2891  -17.2679 S   0  0  0  0  0  0  0  0  0  0  0  0
    8.9620    8.3214  -19.7593 H   0  0  0  0  0  0  0  0  0  0  0  0
    6.8700   -0.3091  -23.7353 H   0  0  0  0  0  0  0  0  0  0  0  0
    8.0956    7.0169  -17.8455 H   0  0  0  0  0  0  0  0  0  0  0  0
    7.4076    9.5780  -21.2155 H   0  0  0  0  0  0  0  0  0  0  0  0
    5.7166    1.6525  -22.7662 H   0  0  0  0  0  0  0  0  0  0  0  0
    6.7117   -2.5183  -22.6294 H   0  0  0  0  0  0  0  0  0  0  0  0
    4.0855    8.2250  -18.8370 H   0  0  0  0  0  0  0  0  0  0  0  0
    4.2317   -0.8081  -19.5604 H   0  0  0  0  0  0  0  0  0  0  0  0
    4.6783    1.1583  -17.8389 H   0  0  0  0  0  0  0  0  0  0  0  0
    6.0614    0.6531  -18.8300 H   0  0  0  0  0  0  0  0  0  0  0  0
    6.3870    4.3116  -16.1245 H   0  0  0  0  0  0  0  0  0  0  0  0
    4.8795    3.3762  -16.1900 H   0  0  0  0  0  0  0  0  0  0  0  0
    5.9850    2.8108  -20.0808 H   0  0  0  0  0  0  0  0  0  0  0  0
    6.1591    4.9135  -18.5331 H   0  0  0  0  0  0  0  0  0  0  0  0
    3.4588    3.4384  -18.4638 H   0  0  0  0  0  0  0  0  0  0  0  0
    4.5663   -1.4439  -17.6604 H   0  0  0  0  0  0  0  0  0  0  0  0
    5.4400   -2.5103  -16.5434 H   0  0  0  0  0  0  0  0  0  0  0  0
    6.1470   -2.1011  -18.1156 H   0  0  0  0  0  0  0  0  0  0  0  0
    5.7282    9.3385  -22.8780 H   0  0  0  0  0  0  0  0  0  0  0  0
    4.4415    8.1787  -22.5130 H   0  0  0  0  0  0  0  0  0  0  0  0
    4.0328    9.8024  -23.0826 H   0  0  0  0  0  0  0  0  0  0  0  0
    5.9797   11.4970  -21.3016 H   0  0  0  0  0  0  0  0  0  0  0  0
    4.2601   11.7784  -21.6196 H   0  0  0  0  0  0  0  0  0  0  0  0
    4.8470   11.6654  -19.9533 H   0  0  0  0  0  0  0  0  0  0  0  0
    3.2867    1.4219  -19.9964 H   0  0  0  0  0  0  0  0  0  0  0  0
    3.8892    2.4245  -21.3009 H   0  0  0  0  0  0  0  0  0  0  0  0
    6.3230    6.2549  -16.5217 H   0  0  0  0  0  0  0  0  0  0  0  0
    4.9907    7.3964  -16.3412 H   0  0  0  0  0  0  0  0  0  0  0  0
    5.1990   -4.4078  -18.1534 H   0  0  0  0  0  0  0  0  0  0  0  0
    3.6348   -3.7942  -17.6617 H   0  0  0  0  0  0  0  0  0  0  0  0
    3.6949   -4.1684  -20.1205 H   0  0  0  0  0  0  0  0  0  0  0  0
    3.5053   -2.4291  -19.7792 H   0  0  0  0  0  0  0  0  0  0  0  0
    3.6671    9.6005  -20.6387 H   0  0  0  0  0  0  0  0  0  0  0  0
    3.9911    5.4377  -16.6915 H   0  0  0  0  0  0  0  0  0  0  0  0
    4.8839    4.7912  -20.5076 H   0  0  0  0  0  0  0  0  0  0  0  0
  1  3  2  0  0  0  0
  1  4  1  0  0  0  0
  2  5  1  0  0  0  0
  2  6  2  0  0  0  0
  3  9  1  0  0  0  0
  4 10  2  0  0  0  0
  5 11  2  0  0  0  0
  6 12  1  0  0  0  0
  7  9  2  0  0  0  0
  7 10  1  0  0  0  0
  8 11  1  0  0  0  0
  8 12  2  0  0  0  0
  9 22  1  0  0  0  0
 10 25  1  0  0  0  0
 11 21  1  0  0  0  0
 12 30  1  0  0  0  0
 13 15  1  0  0  0  0
 13 31  1  0  0  0  0
 14 16  1  0  0  0  0
 14 31  1  0  0  0  0
 15 17  1  0  0  0  0
 15 21  1  0  0  0  0
 16 17  1  0  0  0  0
 16 26  1  0  0  0  0
 17 29  1  0  0  0  0
 18 23  1  0  0  0  0
 19 25  1  0  0  0  0
 20 25  1  0  0  0  0
 22 26  1  0  0  0  0
 23 24  1  0  0  0  0
 24 30  1  0  0  0  0
 27 31  2  0  0  0  0
 28 31  2  0  0  0  0
  1 32  1  0  0  0  0
  2 33  1  0  0  0  0
  3 34  1  0  0  0  0
  4 35  1  0  0  0  0
  5 36  1  0  0  0  0
  6 37  1  0  0  0  0
  7 38  1  0  0  0  0
  8 39  1  0  0  0  0
 13 40  1  0  0  0  0
 13 41  1  0  0  0  0
 14 42  1  0  0  0  0
 14 43  1  0  0  0  0
 15 44  1  0  0  0  0
 16 45  1  0  0  0  0
 17 46  1  0  0  0  0
 18 47  1  0  0  0  0
 18 48  1  0  0  0  0
 18 49  1  0  0  0  0
 19 50  1  0  0  0  0
 19 51  1  0  0  0  0
 19 52  1  0  0  0  0
 20 53  1  0  0  0  0
 20 54  1  0  0  0  0
 20 55  1  0  0  0  0
 21 56  1  0  0  0  0
 21 57  1  0  0  0  0
 22 58  1  0  0  0  0
 22 59  1  0  0  0  0
 23 60  1  0  0  0  0
 23 61  1  0  0  0  0
 24 62  1  0  0  0  0
 24 63  1  0  0  0  0
 25 64  1  0  0  0  0
 26 65  1  0  0  0  0
 29 66  1  0  0  0  0
M  END
> <OMEGA_C>
RKT8QDHOBEHmdZzBLlzJQOzQ1b6Kk7bBKejsQNgX8kCF1JPBa4LgQOwgEEFuBKPBTIO0QNfZLz9e
L7LBjHjGQNqn1L8AlLHB2eukQAPwA0H7T5jB/uKZQDUyMr8ezaPB0g3BQEc68UBbwZHBFai0QCOy
D0FD8aDBhsacQOo4DD+szKjBxruuQE945r9OMajBpC+xQNaawj+IUZPBsnK3QLySbkDvQIbBkjKj
QArfHkBoJpzBEACpQIB5kUBB5o/BTpOMQNo4b0AWqJfBBrmmQKnqFMBdyIzB/TGXQKHCE0HzmbPB
+eaeQP0bNEEstKfBfFaGQHlI3j80FKTBSiWwQKLm10DydYjBcj2RQN4+YsB5z5HBkq6FQNRxUsD4
dp3BNpmWQDLPG0Hd9KfBgxySQAgat0BL14vBAKT6QNoiLkBC8Y/BEJjYQOgLtj/K4oDBiJuBQMlF
kkDFiqDB6+SrQDTtQMCzUaPBs/DUQPp/EkCqJIrBZWQPQWUkBUEhE57B5NbbQMJEnr7a4b3BiIcB
QTqK4ECWw47BbAvtQFY/GUFhuanBGO62QPCE0z9FIbbBJsbWQFgsIcABCbXBMryCQLWZA0E8spbB
IGqHQEDhTr/Me5zBBrWVQFlDlD8fto7BvvbBQIwxJz/no5bBSGLMQF/4iUAO/4DB9CScQOsSWEAN
hYHBwoS/QLDjM0B4paDBtBfFQLw7nUDIQ5TB5lxdQIQOXEDmtZPBNh+SQE3QuL+SSI3BJBSuQHGo
IMDmWITBlLTEQM14BsDD7JDBwk23QFJqFUE8BrfByiCOQOPbAkGbGrTBvAyBQL3WHEERqbjB1Fm/
QKzzN0GwaarB/FKIQC50PEEH9azBZRqbQIGlOkFToJ/B/lhSQJkAtj+f+J/BEOl4QCorG0BAaKrB
VVbKQGooyEBsLITB3LOfQO+u7EDQuoLBG16mQIQMjcAxOpHBjqBoQCrUcsAXS43B8XlsQF5jhcC0
9qDBp1ZgQPJ2G8C+O57BMLFqQLGbGUEhHKXBfG1/QGsBrkAXiIXB6kicQDtRmUChD6TBamHxQL38
BEFXBqDBsSq9QP4ME78NFbbB1OvgQKW29EANHpfBAtnVQC2cD0HaBKfBiGCoQEsEET8aULLBTp+5
QDqB478+gbDB8GiZQLH5BEGVMpzBhH+MQDLXMr+LZKPBdvG0QD209ED4M5XBod6pQPiaD0HFGqXB
zgqQQCUiAT9f+KjBkkmhQFJy67+DKafBxnGjQFbx0D/S65PBwI6pQO2xe0Aj7IfBFkOWQInhIUD4
QJ3BbuybQHnFlUAIAJLBSnh/QHOedEBSdpnBDibcQHEzh8CyeZPB8ZmNQIWGEUG59rfBCS2VQK44
M0HuCK3BaVVzQA6+3T9H66TBMEGjQK/O3UAonIvBDnasQLbNhMB7OZHB5gmYQDqeO8D0apbB53OM
QDH4GkEilqzBBiKFQGN+vED2mo7ByAftQLCcNUDQ2JDBULfJQGj21D8fU4HBAxRrQJvckkBXxqLB
EM+dQE7eQMA2uaHBd93GQBdwHUAS/4rBbs8JQan9BEGVg6HBeRzQQK6lBr/ZWr3BC5z2QEI95ED2
tZHBDPLiQM7ZF0F18K3BjU6rQNz6vz/qtLbBPuLJQPptKsCQerPBpUBuQMT4BEHdtJrBQh5zQEwh
QL9MG5zBG5eHQNAGqD8sQY/BXCu0QDXHPD/VwJbB71e+QEmZkUBC4ILByt+NQD73Z0A1IoPBHvGy
QPc6NEBVyqHBymC4QBM6oED7bJbBHQxDQM/gY0CwfpXBWITsQLzAVMCwpZDBNofqQInwosADhI/B
BOHhQK0lisACFJzBdPCtQHCiEkFOTrvBMkOEQJ+hAEGk/bfBV9lvQJYQGkFSX73Bu9m1QEiZNkGm
uq/BSCF+QJoBO0HunbLB+AKRQO+8OkFOL6XBuFc4QIZyuj+7x6DBEblgQHTqF0DsmqvBcgu9QE7r
zkAX/obBYKiSQKAR9EBaRIbBa6ycQC7wocA/HZTBQOmmQKf1g8AMkIjBzGBrQOIkOcCRt5TBxPym
QLKDAMDyjZPBzv1VQBFAGUG8zqnBCY9kQHgWtUD9PYjBZHyQQPbTmEBASqbBNuoBQZsDA0F1E5bB
YCjVQORu0b7bH7PBomHrQHDS70DJkY7Bb7TvQCQ+D0Ec8J3BnoG/QFyqPT+E3q/BqDzLQBwD0r8/
g67BM7KqQKxEBUEEyZbBJgSWQEiREr/0ZKPBNdK+QPsT8kBE7I7BAiXDQOleEEGWSp7B0O+fQGTB
KD+UAajB2qqrQJN33L9QpqbBXFSjQFhHzD812JHBGACjQCufckApjoTBUISfQBY5JUBRI5vBpiCf
QERJlEBiro7BeGKIQGu1eECi3ZfBFAchQORVMcAGGIzB3R2TQAHtL0H99KHBg22RQHXVD0FCLK7B
f6OIQN3N8j8XgqTBGIekQEQp2kAu1obBzzNFQKmCM8BmXZfBYieTQN9hOsArW5fBvqatQJ1zHUEe
s6bBmO+HQJZ/u0Du2ovB85fqQI6QKEAndorBaHu5QL7qtT/+cnvB7kWHQPaRl0BBD6HBTPihQMwq
O8CCJ6LB0OO/QDZ/EkDO4YbB1EITQbwiAkG0zJXB7bvtQGLNsL6+PrnB6VT7QCrX3ED3eIjBGYAB
QVbXF0E+waPBFm/HQOor2T/OgLPBPDTcQC4gIsCFFLHBq/WHQNclBkHgD5fBf9t6QAbLI78bQ53B
vMSDQGUYpj9h3o7BT560QLszMT9SQZTBKR+0QJuQikA6eXzB9oWDQPotYED2cYHBELq/QHcNNkCP
9p3Bhxa/QEP3nUAuY5HB315OQATuaUASqZXB1aQ7QJl/979LiofBzpW2P6CxKsAFO4zBNrQwQOaP
bMBN24fByDR0QEWuKUHSqpzB2xunQJnXOkFbQ53BlHGDQL5aOUFLOajBuDRwQKOXB0HquanBsR+C
QO74GUGGN7TBTzSkQPKlA0GJYLLBmPNPQFcb0z9XG6LBcQqGQLR+JkDwKKvBoDa5QCGwyECwRoHB
Df2QQEsl8EBWE4LBlcYpQDCSacCoyZvBM7AxQPKc87/guZvBZJuhQCS7A8BsO5PBrpidQJaEdcAi
cpPB8vvFQEYKJUHW5avBZdNfQGzTs0Dwt4bBEMukQFOpnECKB6PBrc/6QMnlBEHShZzBWIe7QBW0
A7/fc7LB3vPmQMIb9kAl05PBBl3iQOUREEGkAKTBPQeoQKZwKz8uIq/Bdlm0QKlF2b/70azBSjai
QAOPB0HbFZrBhCuGQHMbA7+2jaDBBqm6QIbF+EDumpLBLBK2QMZmEUFsyKLBV1mNQLS/Kz+hL6bB
j6uZQCQe2b9t36PBlJWdQIr/5j91/ZDB1gelQIqog0BPJ4XB/nOUQIkcLUAGmprBVFqbQHCrm0Aq
gI/BCQF/QAhngUCWTZfBd/HKQEiahMA6D4/B9M6eQDGFE0FDD7bBMZynQAVLNUGCP6vBr7lwQE0C
+T+UnqLBhE+lQHiR40C0PInBXAObQLaZfsDvkY3BSz+KQOIQL8B7MpPBQPSbQDdaHUGhyKrB9xSG
QCjdw0ABmIzBbWjoQJBgOEB044zB7im/QMEB5z/kqnvBvDFyQFbkmUCo1aDBLqWSQCF0NsBzYZ7B
bTjAQOhuJUB4nIfB2qUOQV/cA0GTeJ3BZEzQQLTnA7/oarnBckD6QOnC5EBKCY7BUBnyQKywF0FQ
warBQ8utQKQlyz8pkbPBIp/DQLZ7J8BOca/BD15/QMGYCEHLIpnBrcpiQAnJA78fk5nBuBKAQJjU
xT/7vIzB9kOtQKwSYD9xdpPBsKa5QO9/lkAWtX/BP66HQN50d0A5x4DBULGyQAWDO0AbtZ7Bbmq5
QC0rpEDXgJPBptk/QP4cdkC/ypPBBD/cQPAvUcBMEozBBKjWQHbdoMBDy4rByJzSQB5wiMCSi5fB
vvy/QN2UE0HU5LjBx4WTQCbtAkFEILbBiY6LQL9+HEEP2rvBDDvJQEChN0Hkca3BWuGTQIyFPUEm
N7HBJGaiQFssPUH8hqPB/tsyQMKx3T+q7J7BzeljQKytJUDOgKnBRvy8QNyD00BALYTBXMKUQJwZ
+0CMPITBJEmKQBGom8D+m5DBnmKTQNMje8ARBIXBQllPQAxlKMAlC5LBeiuaQIja6r/hMpDByXRz
QDSyHEF0hqjBTJFiQMH6vUAxhIbBAyuVQIIOnkAw8KPBZqf+QFkFAUET2JrBCVTMQD/cHL+x8LXB
crTlQCga7UDJNpPB/RPrQALwDEHn6KLBwC63QG8SDz9h/LLB5LLBQJQ66b+rDrHBBp6lQOjqA0G9
tpvB78eMQKcxML8FRabBczG5QDQA8EDQpZPB/pC+QAhjDkHuV6PBCGmXQChrBT8PJ6vBKu2hQDIO
7r9aOanBmMyaQNq1xD/rNpXBvEebQKjhcUCicYjBg6yXQKxYH0BEvZ7BlwqYQJzGkkCAxJLBxh+B
QIVDdEBkzpvBRmcLQPgSMcDukI7BZ5qPQFUULkFmiafB/iyNQJtNDUESSLPBGqiAQKIe5D97+qfB
SFyeQJpy2UCpbYvBQwQwQC9xNsBbzJnBOICIQCrNPsDcsZnBGKmpQEEiG0FA+KvB/2aBQGinukAZ
Q5DB12niQNpHJECD+Y3Bn2+wQLpqtj/mB4HBWaGAQCJGlEAwMqXBkomXQKaRQsDNdqTB5He3QEZg
EECpYIrBeacQQejI/0BTgZrBAhDlQLNOFb+pCbzBojr1QGqZ2kBZ9YzBAcP+QOMKFUFj0qjBS6m/
QIaevz9z1LbBMEbSQFjTLsAYZLPBMOuCQCwMBUGeDZzBLRFoQO+kOL/hKKDB7w92QNPhoT80N5LB
/K+rQOXOHT9oY5fBmoisQFapikC6OoLBTTJ3QDclYUAlUIXB7RG4QNWDLkAOlKHBjDS4QF2km0BQ
f5XBFok/QLIHZ0B7mJnB66cmQJa49b/ZMIrB0JKLP1BlKcDtxo7BXvoZQISEa8CFGorB45JsQPFW
KEG0MaLBG9WjQFwcOUG0+aLBoFuAQLhBN0H19a3BHQJnQGSFBUHDwK7BO6J8QD4zF0EifrnB/Kif
QN27AEF4R7fB/qU/QJySxz82kaXBvRl9QKmmHUCgy67BeKeyQBJRyECStoXBkBCLQBxH8ECU24bB
4vATQDQWbcCvCp7BHpYdQCX7+r/KYZ7BE0qXQMKoB8BHwJXBW2aSQIRPecA5jpXBAFbCQBc6IkHH
PbHBJ09SQMb0s0AxG4vBZESeQJGtmEDnKKfB

> <OMEGA_E>
+LQmwcPnFcHMHw3BRTsaweQ4EcE=

> <OMEGA_NBR>
      5552

$$$$
50172180
  -OEChem-04172616093D

 56 58  0     1  0  0  0  0  0999 V2000
    6.2700   -2.3555  -21.4966 C   0  0  0  0  0  0  0  0  0  0  0  0
    6.7358   -1.1537  -22.0688 C   0  0  0  0  0  0  0  0  0  0  0  0
    5.1536   -2.3405  -20.6359 C   0  0  0  0  0  0  0  0  0  0  0  0
    7.8641    8.3446  -18.4569 C   0  0  0  0  0  0  0  0  0  0  0  0
    6.0860    0.0646  -21.7839 C   0  0  0  0  0  0  0  0  0  0  0  0
    4.5036   -1.1225  -20.3481 C   0  0  0  0  0  0  0  0  0  0  0  0
    7.0172    7.6377  -17.5770 C   0  0  0  0  0  0  0  0  0  0  0  0
    7.3461    8.8866  -19.6532 C   0  0  0  0  0  0  0  0  0  0  0  0
    5.1385    8.0291  -19.0833 C   0  0  0  0  0  0  0  0  0  0  0  0
    4.9639    0.0850  -20.9266 C   0  0  0  0  0  0  0  0  0  0  0  0
    5.6487    7.4873  -17.8940 C   0  0  0  0  0  0  0  0  0  0  0  0
    5.9770    8.7139  -19.9749 C   0  0  0  0  0  0  0  0  0  0  0  0
    5.7397    1.4703  -18.4815 C   0  0  0  0  0  0  0  0  0  0  0  0
    5.6139    3.8220  -16.9277 C   0  0  0  0  0  0  0  0  0  0  0  0
    5.1794    2.3112  -19.6571 C   0  0  2  0  0  0  0  0  0  0  0  0
    5.0704    4.5116  -18.1949 C   0  0  1  0  0  0  0  0  0  0  0  0
    4.3177    3.5174  -19.1401 C   0  0  1  0  0  0  0  0  0  0  0  0
    6.1170    8.6339  -22.4844 C   0  0  0  0  0  0  0  0  0  0  0  0
    5.4123   10.7688  -21.3093 C   0  0  0  0  0  0  0  0  0  0  0  0
    4.2947    1.4080  -20.5742 C   0  0  0  0  0  0  0  0  0  0  0  0
    4.7052    6.7145  -17.0051 C   0  0  0  0  0  0  0  0  0  0  0  0
    5.3783    9.2322  -21.2735 C   0  0  0  0  0  0  0  0  0  0  0  0
    4.1118    5.5732  -17.7666 N   0  0  0  0  0  0  0  0  0  0  0  0
    7.8019    3.0893  -18.1727 O   0  0  0  0  0  0  0  0  0  0  0  0
    6.9779    1.7259  -16.1756 O   0  0  0  0  0  0  0  0  0  0  0  0
    3.8513    4.2573  -20.2716 O   0  0  0  0  0  0  0  0  0  0  0  0
    6.7037    2.5033  -17.3900 S   0  0  0  0  0  0  0  0  0  0  0  0
    6.7686   -3.2876  -21.7178 H   0  0  0  0  0  0  0  0  0  0  0  0
    7.5922   -1.1666  -22.7267 H   0  0  0  0  0  0  0  0  0  0  0  0
    4.7966   -3.2606  -20.1974 H   0  0  0  0  0  0  0  0  0  0  0  0
    8.9090    8.4712  -18.2151 H   0  0  0  0  0  0  0  0  0  0  0  0
    6.4468    0.9835  -22.2218 H   0  0  0  0  0  0  0  0  0  0  0  0
    3.6518   -1.1107  -19.6842 H   0  0  0  0  0  0  0  0  0  0  0  0
    7.4132    7.2138  -16.6660 H   0  0  0  0  0  0  0  0  0  0  0  0
    7.9934    9.4329  -20.3232 H   0  0  0  0  0  0  0  0  0  0  0  0
    4.0894    7.9178  -19.3145 H   0  0  0  0  0  0  0  0  0  0  0  0
    4.9036    1.0286  -17.9196 H   0  0  0  0  0  0  0  0  0  0  0  0
    6.3779    0.6679  -18.8803 H   0  0  0  0  0  0  0  0  0  0  0  0
    6.1637    4.5550  -16.3191 H   0  0  0  0  0  0  0  0  0  0  0  0
    4.7750    3.4159  -16.3434 H   0  0  0  0  0  0  0  0  0  0  0  0
    6.0193    2.7043  -20.2488 H   0  0  0  0  0  0  0  0  0  0  0  0
    5.9069    4.9645  -18.7473 H   0  0  0  0  0  0  0  0  0  0  0  0
    3.4603    3.1071  -18.5865 H   0  0  0  0  0  0  0  0  0  0  0  0
    5.6714    9.0191  -23.4134 H   0  0  0  0  0  0  0  0  0  0  0  0
    7.1791    8.9172  -22.4424 H   0  0  0  0  0  0  0  0  0  0  0  0
    6.0288    7.5377  -22.4626 H   0  0  0  0  0  0  0  0  0  0  0  0
    4.9758   11.1239  -22.2544 H   0  0  0  0  0  0  0  0  0  0  0  0
    4.8317   11.1681  -20.4646 H   0  0  0  0  0  0  0  0  0  0  0  0
    6.4539   11.1143  -21.2340 H   0  0  0  0  0  0  0  0  0  0  0  0
    4.0835    1.9536  -21.5057 H   0  0  0  0  0  0  0  0  0  0  0  0
    3.3504    1.1954  -20.0516 H   0  0  0  0  0  0  0  0  0  0  0  0
    5.2576    6.3261  -16.1367 H   0  0  0  0  0  0  0  0  0  0  0  0
    3.9008    7.3807  -16.6600 H   0  0  0  0  0  0  0  0  0  0  0  0
    4.3271    8.9119  -21.3220 H   0  0  0  0  0  0  0  0  0  0  0  0
    3.6777    5.9444  -18.5875 H   0  0  0  0  0  0  0  0  0  0  0  0
    3.3270    4.9923  -19.9758 H   0  0  0  0  0  0  0  0  0  0  0  0
  1  2  1  0  0  0  0
  1  3  2  0  0  0  0
  2  5  2  0  0  0  0
  3  6  1  0  0  0  0
  4  7  1  0  0  0  0
  4  8  2  0  0  0  0
  5 10  1  0  0  0  0
  6 10  2  0  0  0  0
  7 11  2  0  0  0  0
  8 12  1  0  0  0  0
  9 11  1  0  0  0  0
  9 12  2  0  0  0  0
 10 20  1  0  0  0  0
 11 21  1  0  0  0  0
 12 22  1  0  0  0  0
 13 15  1  0  0  0  0
 13 27  1  0  0  0  0
 14 16  1  0  0  0  0
 14 27  1  0  0  0  0
 15 17  1  0  0  0  0
 15 20  1  0  0  0  0
 16 17  1  0  0  0  0
 16 23  1  0  0  0  0
 17 26  1  0  0  0  0
 18 22  1  0  0  0  0
 19 22  1  0  0  0  0
 21 23  1  0  0  0  0
 24 27  2  0  0  0  0
 25 27  2  0  0  0  0
  1 28  1  0  0  0  0
  2 29  1  0  0  0  0
  3 30  1  0  0  0  0
  4 31  1  0  0  0  0
  5 32  1  0  0  0  0
  6 33  1  0  0  0  0
  7 34  1  0  0  0  0
  8 35  1  0  0  0  0
  9 36  1  0  0  0  0
 13 37  1  0  0  0  0
 13 38  1  0  0  0  0
 14 39  1  0  0  0  0
 14 40  1  0  0  0  0
 15 41  1  0  0  0  0
 16 42  1  0  0  0  0
 17 43  1  0  0  0  0
 18 44  1  0  0  0  0
 18 45  1  0  0  0  0
 18 46  1  0  0  0  0
 19 47  1  0  0  0  0
 19 48  1  0  0  0  0
 19 49  1  0  0  0  0
 20 50  1  0  0  0  0
 20 51  1  0  0  0  0
 21 52  1  0  0  0  0
 21 53  1  0  0  0  0
 22 54  1  0  0  0  0
 23 55  1  0  0  0  0
 26 56  1  0  0  0  0
M  END
> <OMEGA_C>
yaPIQP/AFsAB+avBxYvXQICrk7/pjLDBk+qkQK/KFcBKFqXBpab7QJmDBUHAp5PBKcDCQIFThD1Y
Ra7BhR2QQOisj7/pyKLBAo3gQMxn9EDJnYzBURPrQH4vDkGvOZ3Bh26kQDV3AEGGqpjBOtieQPsf
rj2yaafB0MG0QKqX70DrJo/B4UO/QBpsC0GVzJ/BBay3QDgxvD8c2pPBAqWzQBebdEDaa4fBzr2l
QIbqE0DIQZ3B6UCiQDRfkEAnj5HBviqKQFYdYUDZHpnBxL7DQJokCkEO4LPBhTGtQDFNLEFbearB
622JQMY3tD/ol6TBOJGWQGjd1kB1CojBzxqsQDu3E0EyMKrBzJODQMZXskAUIo7B+Kj5QGi3RUDC
YZHBmUrfQMzq3D+JZ4HBK3t2QM07iEBLLKLBzITWQGI1IECpHovBnZjYQJhoUsAWvq3BRfPyQI5R
lb9N0LXBsn2ZQDOuUMBFlKHBaIsOQeeJB0F5uJHB7EvOQFrJez87xrHBxbdpQNgsjr8+eZ3BmTjt
QBnX5kAOVIXBVsr/QCztFkHXlaLBpdyCQH1e/UAphJrBB+qcQO2ogz9TW4/BvxfMQPH8Kj/TCpfB
2zzFQJPCkUBwjYLBosyYQNudWkBav4LBJ57AQKQSLUCK/aHBnwW9QPbcnkCE+pXBu3VdQD/aRkAU
sZTBe3y1QFxOEEGvTrvBSrvlQMisDkH8ibPBtOvAQNY08UBns7PBdjmfQI77MUEWCbLBKp2aQGOw
MkFpt6PBsYbOQP/TMUE/36nBtKuCQD8P+j+YC6zBWmxWQMgBmT+maaDB4j2oQI5vykAHGIHBwKZ5
QKAu7ECZR4XBVXeKQBmXDkFmk6rBGmBrQEM4vkA+s5TBYe5UQJzAn0Blzp/BS+DHQB5QGcBC2KvB
BC3WQLbMmL9fi7DBq9qkQKt3GMDJvKTBsYkAQW5gA0ELXJHBLIfBQFCtvTy2JK7B5i6QQAo9lb8j
UqLBDSnhQEcg8UDpiYvBjbj2QGLEDUGrApvBnFisQGVvAkFBEpnB+2KeQAisKT1WC6fBV7O2QAMr
8ECyXo/BvUnMQGp/DUGT5Z7BNZm4QM6vvT+Vs5PBJ7GzQAy/eEC2r4fBpYqlQEJxEkAFKZ3B9+mh
QGH1kECDApLBjbOJQLRbX0CzGZnB9xacQAj9J0EJcKjBSZ64QFVeB0H7IrLBF96IQNL7rT8DMqTB
0k+UQD+52EATIInBeBzCQBZeGEEkh6nBPd6CQLGus0BEPY/BM+v5QATbSEBrqpHBr9TgQKym5z+H
ZYHBoPhxQDDYhUBXMKLBTzvXQF7GI0BLNYvB28PXQMDjVMAgsa3BtP7wQNRWmr8x/rXBnN6ZQE1g
U8DUJaHBIMgQQSK0A0HTao7BL5nMQHw9cT+8vLHBQt9qQDHmk7+e2ZzB5i3pQPw+4UCdIYTB66wH
QYf8FUEad5/Bk++LQHHpAUE9D5zBAmyeQHIQhD+WDI/BAW3NQNDnLz8R2ZbBWBnFQKyXlEBOA4PB
PRiZQPY5X0Ci4oLBX9S/QGmHK0D4GaLBpqG8QCZonkAnppbB6F1eQEcCRUCSV5TB26GVQPiFL0GN
ObDBaxx/QE8oH0EFyKXB0/ujQGVqNEHlhqLBmFGxQDZUD0EcxbnBX77UQI/1+UBMJbPBPwSdQLNP
+0CGo6/BbAWBQJXm8T9vpqvBlHlWQMAYkj+nxp/BsSKiQF36zEB0lYHBniZ0QHsb70AQXYfB71ve
QLCPIUGnEKzBGWJtQE7zvkCIFJbBpQZQQE5HnUCc25/BY7DMQHG6DMCbKa7BGKypQLdhFcDBIafB
LSrZQJrKa7/yw7HBr+EBQU/F/0D22JPB1jiTQKRRmL/6rKPBs7XCQKIcZD4jV67BAw7kQO+e7EA6
cY3BNTj4QHTpCkF1Op3BbPusQEHRAkEVz5nBDbSfQHxtvj2lRqfBBY+4QEqb70C1YZDBitLMQGF6
DEF1Q6DBOtW2QKaNuj9/65LBDj2zQLtCeUBcOYfB+Y2kQHvREECVeZzB7+ihQIKikEBrqpHB8xaJ
QDGaXkA3lZjBBRyjQEFQK0G5DajBQhasQDr4CEFZk7LB//yHQABYqj/YeaPBQnmWQLMz2kCQlonB
8h3BQG9aGEHPgKrBcq2DQABStEDOGY/Bflb5QJ1XREDX5pDBD3zeQO725T9LhYDBW45xQEwyhUDB
wqHBJejVQFjxIUBjd4rB7vbdQHzIRMAZyrDB1g2gQBwPVMBWZaTBSPjzQAywUb9hKLfBrIESQfSI
/UD0jpHB++pwQDmMpb+jRZ7B40jMQL2pmT9MH7HB4wftQO2b20CcQ4bBHlUIQR41EkF0IKLBr7uL
QPfgA0EGG5zBykKcQEi/gz9YRo7BJkLLQG1sJT/S9ZXBkinFQD3olECMsYLBP1uYQMLZYUDHWoLB
WDi/QNPQKEDBX6HB0vC8QK4VnUCCXZbBD9VcQLeVRUBUxJPBQRObQMGlM0Eriq/Bb56FQBxVJUEM
S6TBuDizQC59NkG9k6LBF9ejQGjFEUF46bnBHYzCQHT890A8h7TB1duOQPknAkFkDK/B/f95QCCd
8j/PgqrB6lVYQIHggT/2tp7Bl/KkQNO+z0AhAYLBS795QIpw8UCK74fBNKDeQLmxHkGVGq7BuaNt
QEdtvkAj+pXBkwZQQDDsnEDBhZ/BFErIQCVjF8CqF6zBA4WkQBRNFsC+OKXBd1DXQKAClb/jp7DB
qAf8QAHXBEFQeZPBLeGPQAxykL8+5KLBI63CQBJ2ZT1/Wa7BVYPgQF8380BMgYzBV9XrQMHNDUGV
BJ3BBMKkQH15AEGJlpjBrtaeQBtdoj2HeKfB5rK0QEQV70CXF4/BXu6/QCODC0HTnJ/Bdfm4QDdk
vT/sFpTBcuOyQLzFc0BLbYfBcPulQJFIFEC5ZJ3BfsOhQPskkEDLjpHBL/eJQACGYECZJJnB9tPB
QCTzCEEsqLPBstKyQE+PLEGwrKrBxIqJQMO2sz+mo6TBSA+WQKGX1kCkC4jBMCqtQHEnFEEr+6nB
2BKDQKcfskDkJ47B6a35QKtxSUCRUpHBnfPfQK6G3j9iiYHBOfN0QBH7h0DpIKLB0dXWQBJ/IUB3
MYvBQTDYQKkaU8Ca3K3BYe+YQFYwUcAMv6HBT7DyQLbllr+w7bXBGsAOQaOUBkF+gZHBViVpQILH
jr/DmJ3BQkvOQDJreT9q2bHBkeHsQFdB5UA5O4XB1nQAQRxpFkHbV6LB+TiDQACs/UBHgprBYcCe
QEMNgD/PpI/BtzrOQCbOND8vZZfB/KrDQH9ikUDUZILBJgmYQBsLWEAx6oLB9FPAQEdjLkBjO6LB
G6e8QAKinkCG7pXBrKRdQAg3RUBBs5TBQf6zQF5WD0F/F7vB6orkQCjcC0E1mbPB37i7QF9I70CX
MbPB+AmlQLlsMkHdOLLBG2GiQFUyNEEq5aPBnhrVQHGEMEFbZqrBd36CQDLs+D/0GKzBBfdWQKWc
mD+bYqDBoWCnQNIfykABDIHBYK94QOQY7EC0XIXBr6+KQBadEEFoEqrBM5BqQPkHvkB2u5TBLuBS
QFgyn0BlsZ/BNKXQQMykBMCH7q7BXmKkQM9LC8DE66zBoo7lQBoSVr9/qa3BDcC9QNCOEUE6V5/B
pB2NQENmhr/RbanBXEPOQEoylz6wZqrBxHukQE58BUHiSpjBvJTqQFBtEUEgWZ7BXv/kQCdU8UBu
To/BngyiQIhbQT7I9qfBsOu3QBBA8kAvPJDBmer+QGVbBUGnLZbB6+SyQObCuD+BsJLBI5e0QJj7
dkCSFYfBvvyiQOYZE0AQTZzBEaCiQDOpkECKY5HBXwKIQG9hYUDUZ5jB1+wfQYX7/0BYzonBQz0i
QfCoGkFrwZjBnaGIQLg2sz9TGKTBTaybQKou2UDYo4jBdiEYQTH9BEEtVJXBzUSGQHDotED8P47B
d8X4QHKMOkC06pDBylzcQDQV2T9hdIDBuJpwQNhrh0BDkaHBR6bUQKJdHEAyYorBeoPiQOdHPMCB
crHBQUKUQDfAR8C+Dq7B77wDQVy9Qb8hMa/BJ76uQAL4GkFCiqXBZHVWQN0wkb8Q36fBdB7eQE8v
oD8/v6nBTw+CQESuBUGRDZnBsMb9QFGfGkGI3qPBldnzQGI43UAwV4nB60CXQHbKiz+BBY7BzAPF
QGLrEz/TrpXBOz/IQBPqkkCnuYLBWsqZQFlhYkBJ/oHBBBy/QHB3K0AkoaDBh4a9QIPHnEA1MJbB
yjxaQMRqSUDRlJPBcIUxQWHT/0Ddn4nB7uIZQYlNDEEsSoTBE+MZQSZu4EDgVYfBtsAzQWSxGUHK
B5jBnOsdQW0fHkHiG6HBdzEcQayAJ0GLjZPBiXV+QKIcAEC8E6vBm5FXQHXyhT+k65/Bf22vQLxx
zEDtFoLBURiDQDul7kDrVoXBwjoeQaDf8EDbsJrBw2pxQA9wwEDv5ZTBwbJPQHtKn0DBR5/BjZnT
QLI8zL88ILTB7OmrQKfJ/b9fwa/BPXDiQBeQjr7NxLLBP9nAQBPT6kCal6zBGVmTQCWSh79q2qnB
BqbJQKrDJj9AEK3BpJazQJJE2EAo8qLB4F3JQLVlC0FRDq3BHWe4QPixDkHYCZrBWmWiQD5ghD5a
TajBhz6vQBdO8UDwgpnByOLEQLovGEGRzKPBe/+zQLdTuD+8iZHBBDazQNi6fEBkwIbBBT6hQEJ+
DkDrLZvBuu+hQI19j0DBbpHB0dqFQMcjXEDDfpfB4kitQGvaOkHAJ6zBO7D7QNO2NEEzoqfBK4aG
QG2loT/KX6LBkVOiQBuR3kAdro7BNPbMQL0qMEGvTKTBmneIQFLztkCBl4/B24P4QM+MP0CVU5DB
KYndQOl67j/WrX7BbOJmQEMtgkBjv6DB5eLUQBQ6IkBhjonBuKDmQALhE8DvhLjB/UygQLdPP8Bs
7rDB+G4AQZkykTxLHLbBh3/EQM9F10BwqLPBXu1pQOoFrr+0gqbBm4nUQIAB1j/iS6zByY+sQJhy
tkC6q6LB+mDTQNOWEkGugLTB1Nq1QFhoGEG565LBz6qZQNQ7hj+fm4zBZYXHQCt4Gj/wgZTBveLF
QJhol0BEsoLBqW6YQAr+aECzmYHB1Ru8QG72JkDk+J/BpGi9QG5pl0DNkJbBDCxZQIo9RUAbFJLB
UHOzQOMrTEHNcazB04yxQCH6M0F1L7TBLE6MQMYCOEFWbanB1H0AQRkaRkHN9KfBAc0IQd+LLUG2
wKHBcOEAQRS6LUEAka/BGYVpQFAu7j/BRqjBzptfQHOYNj9MSp3BCZK/QIMw10CMJIrBhniPQFWn
9kB3U4rBgLbHQNH9NkF+S5zBGVJoQGh4ukAwtpXBJkFFQH/3mUB1k57BVuPSQPt19r98eq/BoEzS
QDQ/NL8EHrXBnya6QDv9BMA5IabBWWaoQPiIAEE+BKnBXzK5QNNDvT7YX7HBRI2gQBm0gb+WeKLB
nPuYQFSk7EAxzZ/BZzjLQAGvDkFvTqjBZGrQQFenB0GgJZXB1gmgQKvUXD6NEajBNbitQJCZ8kB8
3JXBz7XeQCgVE0FuSp7BP+m0QMbnuz+u9pLBJ3azQJUzeEBND4fBnvKiQMZhE0BUdpzBbRyiQDDC
kEBIaZHB6+uHQHpgYUBjbZjB+pQDQXSmLUHVS5LBZ0MAQUA9NUEo66XB4q2GQGILsj9KtaPBUK+c
QIlz3UDbv4vB1iUCQbwII0EBgp3BM9qFQHnPtEC5LI7BWx/5QFuKP0CYqZDBME7cQOE03T/bdoDB
yK5vQEFXh0BfjKHB6N3UQKk5H0AZWYrBBVDmQKepL8CfU7LBoxnlQHRdF79+T7zBZtS6QHmtQMC2
xqHB7H6ZQOIL+0A/qrDBvTO5QM6wpz9pn7XBPEGNQBtZkb/OXpvBGUh6QMlD2ED/TKDB6EbXQP1J
FkGAdK/BzkrgQOH6CUGxj43Bhg+aQFtehj9lXI7BJq/IQE8CJj/+IJbBSzDGQHrgk0AGkYLBPX+Y
QBIXYkDYH4LBee69QP2kK0DyOqHBdyO9QI38nED2JZbB/mBaQPO7SED5mZPB6SgRQd7XOEHiH5LB
7FrpQD9oNkGQpJDBcOsFQa43IUGcLYzBeewNQSE2QEFfFqXBwD8AQe1MLkF9Aa7BG47iQI8YPkGu
nqTB0+R0QI46/j+DcqrBUU1XQNIpgT9c+J7B4a63QG+G1kD9X4bBsWKGQM+N80BcxYfBoiIRQUlL
GkGR/J7BCoBiQDFkukCOIpTB/rJOQIUhn0AhOp/B

> <OMEGA_E>
iFkkPxwQJT+k5yU/OOUjP95tXT9QA4g/3qdzPw==

> <OMEGA_NBR>
     12315

$$$$
50172175
  -OEChem-04172616093D

 78 81  0     1  0  0  0  0  0999 V2000
    7.8892    8.2078  -18.5947 C   0  0  0  0  0  0  0  0  0  0  0  0
    7.0444    7.5541  -17.6741 C   0  0  0  0  0  0  0  0  0  0  0  0
    7.3618    8.7100  -19.8037 C   0  0  0  0  0  0  0  0  0  0  0  0
    6.1502    0.2604  -21.8231 C   0  0  0  0  0  0  0  0  0  0  0  0
    6.8563   -0.9158  -22.1232 C   0  0  0  0  0  0  0  0  0  0  0  0
    4.5965   -1.0291  -20.4502 C   0  0  0  0  0  0  0  0  0  0  0  0
    5.1470    7.9219  -19.1637 C   0  0  0  0  0  0  0  0  0  0  0  0
    5.0167    0.2029  -20.9899 C   0  0  0  0  0  0  0  0  0  0  0  0
    5.6677    7.4236  -17.9588 C   0  0  0  0  0  0  0  0  0  0  0  0
    5.9857    8.5468  -20.0994 C   0  0  0  0  0  0  0  0  0  0  0  0
    5.2928   -2.2181  -20.7516 C   0  0  0  0  0  0  0  0  0  0  0  0
    6.4344   -2.1518  -21.5936 C   0  0  0  0  0  0  0  0  0  0  0  0
    5.5821   -2.4061  -16.9590 C   0  0  0  0  0  0  0  0  0  0  0  0
    6.6238   -3.8206  -18.4335 C   0  0  0  0  0  0  0  0  0  0  0  0
    5.7263    1.4401  -18.4700 C   0  0  0  0  0  0  0  0  0  0  0  0
    5.6118    3.7695  -16.8787 C   0  0  0  0  0  0  0  0  0  0  0  0
    5.1829    2.3243  -19.6276 C   0  0  2  0  0  0  0  0  0  0  0  0
    5.0762    4.4724  -18.1430 C   0  0  1  0  0  0  0  0  0  0  0  0
    4.3145    3.5017  -19.0884 C   0  0  1  0  0  0  0  0  0  0  0  0
    5.1292   -3.8530  -18.7239 C   0  0  2  0  0  0  0  0  0  0  0  0
    0.9932   -3.6314  -16.6711 C   0  0  0  0  0  0  0  0  0  0  0  0
    6.1149    8.3798  -22.6075 C   0  0  0  0  0  0  0  0  0  0  0  0
    5.4104   10.5514  -21.5021 C   0  0  0  0  0  0  0  0  0  0  0  0
    4.3099    1.4745  -20.5904 C   0  0  0  0  0  0  0  0  0  0  0  0
    4.7774   -3.5577  -20.2113 C   0  0  0  0  0  0  0  0  0  0  0  0
    4.7342    6.6993  -17.0209 C   0  0  0  0  0  0  0  0  0  0  0  0
    2.4767   -3.9142  -16.9467 C   0  0  0  0  0  0  0  0  0  0  0  0
    3.1297   -2.6731  -17.5743 C   0  0  0  0  0  0  0  0  0  0  0  0
    5.3800    9.0168  -21.4135 C   0  0  0  0  0  0  0  0  0  0  0  0
    4.5725   -2.8717  -17.8018 N   0  0  0  0  0  0  0  0  0  0  0  0
    4.1234    5.5381  -17.7241 N   0  0  0  0  0  0  0  0  0  0  0  0
    5.4401   -1.6597  -15.9982 O   0  0  0  0  0  0  0  0  0  0  0  0
    7.8057    3.0224  -18.1170 O   0  0  0  0  0  0  0  0  0  0  0  0
    6.9489    1.6369  -16.1498 O   0  0  0  0  0  0  0  0  0  0  0  0
    6.8017   -2.8560  -17.3857 O   0  0  0  0  0  0  0  0  0  0  0  0
    7.1349   -3.2714  -21.9162 O   0  0  0  0  0  0  0  0  0  0  0  0
    3.8334    4.2621  -20.2009 O   0  0  0  0  0  0  0  0  0  0  0  0
    6.6933    2.4399  -17.3517 S   0  0  0  0  0  0  0  0  0  0  0  0
    8.9401    8.3243  -18.3746 H   0  0  0  0  0  0  0  0  0  0  0  0
    7.4487    7.1552  -16.7555 H   0  0  0  0  0  0  0  0  0  0  0  0
    8.0076    9.2191  -20.5039 H   0  0  0  0  0  0  0  0  0  0  0  0
    6.4757    1.2063  -22.2302 H   0  0  0  0  0  0  0  0  0  0  0  0
    7.7259   -0.8730  -22.7622 H   0  0  0  0  0  0  0  0  0  0  0  0
    3.7343   -1.0632  -19.8007 H   0  0  0  0  0  0  0  0  0  0  0  0
    4.0919    7.8235  -19.3723 H   0  0  0  0  0  0  0  0  0  0  0  0
    6.9709   -4.8111  -18.1043 H   0  0  0  0  0  0  0  0  0  0  0  0
    7.1813   -3.5166  -19.3317 H   0  0  0  0  0  0  0  0  0  0  0  0
    4.8823    0.9932  -17.9242 H   0  0  0  0  0  0  0  0  0  0  0  0
    6.3582    0.6414  -18.8858 H   0  0  0  0  0  0  0  0  0  0  0  0
    6.1676    4.4933  -16.2646 H   0  0  0  0  0  0  0  0  0  0  0  0
    4.7686    3.3671  -16.2981 H   0  0  0  0  0  0  0  0  0  0  0  0
    6.0334    2.7383  -20.1890 H   0  0  0  0  0  0  0  0  0  0  0  0
    5.9185    4.9190  -18.6916 H   0  0  0  0  0  0  0  0  0  0  0  0
    3.4663    3.0755  -18.5327 H   0  0  0  0  0  0  0  0  0  0  0  0
    4.7445   -4.8523  -18.4721 H   0  0  0  0  0  0  0  0  0  0  0  0
    0.5272   -4.5207  -16.2219 H   0  0  0  0  0  0  0  0  0  0  0  0
    0.9047   -2.7816  -15.9782 H   0  0  0  0  0  0  0  0  0  0  0  0
    0.4847   -3.3887  -17.6158 H   0  0  0  0  0  0  0  0  0  0  0  0
    5.6631    8.7314  -23.5468 H   0  0  0  0  0  0  0  0  0  0  0  0
    7.1762    8.6680  -22.5809 H   0  0  0  0  0  0  0  0  0  0  0  0
    6.0309    7.2846  -22.5478 H   0  0  0  0  0  0  0  0  0  0  0  0
    4.9692   10.8728  -22.4572 H   0  0  0  0  0  0  0  0  0  0  0  0
    4.8323   10.9782  -20.6693 H   0  0  0  0  0  0  0  0  0  0  0  0
    6.4516   10.9013  -21.4431 H   0  0  0  0  0  0  0  0  0  0  0  0
    4.0943    2.0641  -21.4937 H   0  0  0  0  0  0  0  0  0  0  0  0
    3.3665    1.2174  -20.0865 H   0  0  0  0  0  0  0  0  0  0  0  0
    3.6818   -3.5652  -20.3096 H   0  0  0  0  0  0  0  0  0  0  0  0
    5.2064   -4.3610  -20.8282 H   0  0  0  0  0  0  0  0  0  0  0  0
    5.2978    6.3428  -16.1462 H   0  0  0  0  0  0  0  0  0  0  0  0
    3.9409    7.3862  -16.6909 H   0  0  0  0  0  0  0  0  0  0  0  0
    2.9849   -4.1570  -16.0018 H   0  0  0  0  0  0  0  0  0  0  0  0
    2.5649   -4.7641  -17.6394 H   0  0  0  0  0  0  0  0  0  0  0  0
    2.6426   -2.4629  -18.5379 H   0  0  0  0  0  0  0  0  0  0  0  0
    2.9901   -1.8167  -16.8983 H   0  0  0  0  0  0  0  0  0  0  0  0
    4.3293    8.6925  -21.4460 H   0  0  0  0  0  0  0  0  0  0  0  0
    3.6636    5.8804  -18.5434 H   0  0  0  0  0  0  0  0  0  0  0  0
    6.7413   -4.0249  -21.4922 H   0  0  0  0  0  0  0  0  0  0  0  0
    3.3020    4.9837  -19.8857 H   0  0  0  0  0  0  0  0  0  0  0  0
  1  2  2  0  0  0  0
  1  3  1  0  0  0  0
  2  9  1  0  0  0  0
  3 10  2  0  0  0  0
  4  5  2  0  0  0  0
  4  8  1  0  0  0  0
  5 12  1  0  0  0  0
  6  8  2  0  0  0  0
  6 11  1  0  0  0  0
  7  9  2  0  0  0  0
  7 10  1  0  0  0  0
  8 24  1  0  0  0  0
  9 26  1  0  0  0  0
 10 29  1  0  0  0  0
 11 12  2  0  0  0  0
 11 25  1  0  0  0  0
 12 36  1  0  0  0  0
 13 30  1  0  0  0  0
 13 32  2  0  0  0  0
 13 35  1  0  0  0  0
 14 20  1  0  0  0  0
 14 35  1  0  0  0  0
 15 17  1  0  0  0  0
 15 38  1  0  0  0  0
 16 18  1  0  0  0  0
 16 38  1  0  0  0  0
 17 19  1  0  0  0  0
 17 24  1  0  0  0  0
 18 19  1  0  0  0  0
 18 31  1  0  0  0  0
 19 37  1  0  0  0  0
 20 25  1  0  0  0  0
 20 30  1  0  0  0  0
 21 27  1  0  0  0  0
 22 29  1  0  0  0  0
 23 29  1  0  0  0  0
 26 31  1  0  0  0  0
 27 28  1  0  0  0  0
 28 30  1  0  0  0  0
 33 38  2  0  0  0  0
 34 38  2  0  0  0  0
  1 39  1  0  0  0  0
  2 40  1  0  0  0  0
  3 41  1  0  0  0  0
  4 42  1  0  0  0  0
  5 43  1  0  0  0  0
  6 44  1  0  0  0  0
  7 45  1  0  0  0  0
 14 46  1  0  0  0  0
 14 47  1  0  0  0  0
 15 48  1  0  0  0  0
 15 49  1  0  0  0  0
 16 50  1  0  0  0  0
 16 51  1  0  0  0  0
 17 52  1  0  0  0  0
 18 53  1  0  0  0  0
 19 54  1  0  0  0  0
 20 55  1  0  0  0  0
 21 56  1  0  0  0  0
 21 57  1  0  0  0  0
 21 58  1  0  0  0  0
 22 59  1  0  0  0  0
 22 60  1  0  0  0  0
 22 61  1  0  0  0  0
 23 62  1  0  0  0  0
 23 63  1  0  0  0  0
 23 64  1  0  0  0  0
 24 65  1  0  0  0  0
 24 66  1  0  0  0  0
 25 67  1  0  0  0  0
 25 68  1  0  0  0  0
 26 69  1  0  0  0  0
 26 70  1  0  0  0  0
 27 71  1  0  0  0  0
 27 72  1  0  0  0  0
 28 73  1  0  0  0  0
 28 74  1  0  0  0  0
 29 75  1  0  0  0  0
 31 76  1  0  0  0  0
 36 77  1  0  0  0  0
 37 78  1  0  0  0  0
M  END
> <OMEGA_C>
+nP8QFBTA0H2wZTB/GvhQHW78UB5ZI3B6pPrQE1cC0HqbZ7Bcs7EQHpZhT6gla7BlmbbQExyar9A
/LDBShaTQDi5g78QmqPBbrSkQIOA/UBKT5nBLomgQB7ITz5O66fBfl21QIiO7UCyq4/BkIq/QLC/
CEGIy6DB0F6pQFP1DcA8A6bBhubNQGi3CcClv6zBcKCyQDD+GcAdrIfBePbTQIyEdMDcd5PB9D23
QCJUuD+kwpPBmpOzQDI/cUCoB4fBbNqlQIDBFEBJBZ3BKnCiQOsdj0DiJJHBhhCKQBkcYEAgtZjB
nCKkQFCYdsCTypXBwER+PzZoaMBpXoXBpK3DQJwTBkE/3LTB6iGtQGHSKEFmBKzBnOqJQH69vD8b
uaTBGuCYQPWxY8CysKHBeH6XQAJh1kDdKojBx4IeQKqBesDikofByUxIQK0UK8AXmIzBjiisQPlE
EEHOTqvBBFKSQF/KN8ALao7BPvODQME3sUDoyo3BZhWuQP1x1L+C+H/BQsj5QHduQUCb75DBbF3e
QAuG0T++MoHBxKfZQGrINsDzFYvBKlHkQNZeUcBjVK/BIFd1QD1jiEB1m6HBni/WQP0mHEBB0IrB
fgoPQSQwBUEu/5LBWFvuQBD35EAuC4bB7h4AQVaBE0HwB6TB6zjPQHxpmj9f17HBPjr3QN9/X78I
GbbBvP5uQBgWiL/RZ57BKPGCQAla+kBu+prB/hHfQJf0mcCa1ZDBVs3lQL8PYcBqp5rB1TucQMZC
fj+4ZI/BNHbLQFQxJD8TFpfBPF3FQAfJj0D7HYLBL5iYQFp/V0B7YoLB3hHBQNpAL0AYg6HBk2S9
QK1onUB7iJXBPNhdQI7UREDmQpTBO9OXQHNGm8DfxpPBhvUGP9OpkMBexoHBpJdnP+0FMsDKpn/B
CCf4PqfgWMAv7YzBYji1QLqzC0HlX7zBLqPlQFKwCkGYpbTBw/zAQL0b6UDYYbTB9AOfQP/2LUFG
qLPBYqKaQJqmL0GvWqXBK3POQONrLkGFi6vBUgSDQHQZBEAY86vBn3RXQK/Tmz8usaDBUaJrQMAs
ZMD/eaLBcJqmQLiNi8A/oKbB2oepQBD4ykBmK4HBDTh8QOZb7EDwhoXBYAg/QB4GhcDBA4DBWCck
QHtzmMCLHY3B2x8pQISgHcCLTZTBNF0/QJ2I6L+nL4fB+4mKQK4UC0F9kavB63dqQD0svEDqWJTB
mLjXQF3MgMAb8KvBg1RTQN56n0DwFZ/B

> <OMEGA_E>
wENcPQ==

> <OMEGA_NBR>
     13907

$$$$
50172238
  -OEChem-04172616093D

 57 59  0     1  0  0  0  0  0999 V2000
    5.3185    7.8545  -21.3486 C   0  0  0  0  0  0  0  0  0  0  0  0
    4.8350    7.2863  -20.1612 C   0  0  0  0  0  0  0  0  0  0  0  0
    6.4243    8.7205  -21.3147 C   0  0  0  0  0  0  0  0  0  0  0  0
    5.6899    0.1377  -21.9968 C   0  0  0  0  0  0  0  0  0  0  0  0
    4.9040   -1.1269  -20.0579 C   0  0  0  0  0  0  0  0  0  0  0  0
    6.4467   -0.9763  -22.4123 C   0  0  0  0  0  0  0  0  0  0  0  0
    5.6762   -2.2315  -20.4628 C   0  0  0  0  0  0  0  0  0  0  0  0
    6.5996    8.4029  -18.9015 C   0  0  0  0  0  0  0  0  0  0  0  0
    4.9093    0.0624  -20.8222 C   0  0  0  0  0  0  0  0  0  0  0  0
    5.4977    7.5238  -18.9352 C   0  0  0  0  0  0  0  0  0  0  0  0
    7.0494    9.0482  -20.0836 C   0  0  0  0  0  0  0  0  0  0  0  0
    6.4427   -2.1596  -21.6436 C   0  0  0  0  0  0  0  0  0  0  0  0
    5.6113    1.4347  -18.2595 C   0  0  0  0  0  0  0  0  0  0  0  0
    5.6248    3.9182  -16.8969 C   0  0  0  0  0  0  0  0  0  0  0  0
    5.0551    2.2188  -19.4835 C   0  0  2  0  0  0  0  0  0  0  0  0
    5.0832    4.5068  -18.2179 C   0  0  1  0  0  0  0  0  0  0  0  0
    4.2380    3.4773  -19.0354 C   0  0  1  0  0  0  0  0  0  0  0  0
    8.3580   10.7588  -18.6821 C   0  0  0  0  0  0  0  0  0  0  0  0
    8.1356   11.1111  -21.1539 C   0  0  0  0  0  0  0  0  0  0  0  0
    4.1462    1.2809  -20.3353 C   0  0  0  0  0  0  0  0  0  0  0  0
    4.9647    6.9394  -17.6343 C   0  0  0  0  0  0  0  0  0  0  0  0
    8.2430   10.0263  -20.0470 C   0  0  0  0  0  0  0  0  0  0  0  0
    4.2251    5.6692  -17.8651 N   0  0  0  0  0  0  0  0  0  0  0  0
    7.7739    2.9304  -18.0670 O   0  0  0  0  0  0  0  0  0  0  0  0
    6.8674    1.7886  -15.9732 O   0  0  0  0  0  0  0  0  0  0  0  0
    7.1777   -3.2323  -22.0402 O   0  0  0  0  0  0  0  0  0  0  0  0
    3.7378    4.1353  -20.2061 O   0  0  0  0  0  0  0  0  0  0  0  0
    6.6384    2.4887  -17.2441 S   0  0  0  0  0  0  0  0  0  0  0  0
    4.8406    7.6262  -22.2898 H   0  0  0  0  0  0  0  0  0  0  0  0
    3.9523    6.6645  -20.1835 H   0  0  0  0  0  0  0  0  0  0  0  0
    6.8023    9.1410  -22.2348 H   0  0  0  0  0  0  0  0  0  0  0  0
    5.7069    1.0488  -22.5764 H   0  0  0  0  0  0  0  0  0  0  0  0
    4.3058   -1.1879  -19.1608 H   0  0  0  0  0  0  0  0  0  0  0  0
    7.0300   -0.9242  -23.3198 H   0  0  0  0  0  0  0  0  0  0  0  0
    5.6816   -3.1337  -19.8692 H   0  0  0  0  0  0  0  0  0  0  0  0
    7.1071    8.5875  -17.9661 H   0  0  0  0  0  0  0  0  0  0  0  0
    4.7697    1.0624  -17.6569 H   0  0  0  0  0  0  0  0  0  0  0  0
    6.2101    0.5844  -18.6178 H   0  0  0  0  0  0  0  0  0  0  0  0
    6.2290    4.6777  -16.3790 H   0  0  0  0  0  0  0  0  0  0  0  0
    4.7813    3.6213  -16.2562 H   0  0  0  0  0  0  0  0  0  0  0  0
    5.9001    2.5510  -20.1045 H   0  0  0  0  0  0  0  0  0  0  0  0
    5.9295    4.8416  -18.8357 H   0  0  0  0  0  0  0  0  0  0  0  0
    3.4014    3.1395  -18.4061 H   0  0  0  0  0  0  0  0  0  0  0  0
    9.2196   11.4423  -18.7036 H   0  0  0  0  0  0  0  0  0  0  0  0
    7.4388   11.3335  -18.4959 H   0  0  0  0  0  0  0  0  0  0  0  0
    8.4969   10.0192  -17.8797 H   0  0  0  0  0  0  0  0  0  0  0  0
    9.0028   11.7851  -21.0929 H   0  0  0  0  0  0  0  0  0  0  0  0
    8.1167   10.6266  -22.1413 H   0  0  0  0  0  0  0  0  0  0  0  0
    7.2110   11.6896  -21.0116 H   0  0  0  0  0  0  0  0  0  0  0  0
    3.7713    1.8396  -21.2055 H   0  0  0  0  0  0  0  0  0  0  0  0
    3.2975    0.9490  -19.7193 H   0  0  0  0  0  0  0  0  0  0  0  0
    5.8104    6.7421  -16.9590 H   0  0  0  0  0  0  0  0  0  0  0  0
    4.2853    7.6680  -17.1679 H   0  0  0  0  0  0  0  0  0  0  0  0
    9.1678    9.4538  -20.2118 H   0  0  0  0  0  0  0  0  0  0  0  0
    3.5777    5.8170  -18.6128 H   0  0  0  0  0  0  0  0  0  0  0  0
    7.0658   -3.9411  -21.4176 H   0  0  0  0  0  0  0  0  0  0  0  0
    3.2390    4.9022  -19.9501 H   0  0  0  0  0  0  0  0  0  0  0  0
  1  2  1  0  0  0  0
  1  3  2  0  0  0  0
  2 10  2  0  0  0  0
  3 11  1  0  0  0  0
  4  6  2  0  0  0  0
  4  9  1  0  0  0  0
  5  7  1  0  0  0  0
  5  9  2  0  0  0  0
  6 12  1  0  0  0  0
  7 12  2  0  0  0  0
  8 10  1  0  0  0  0
  8 11  2  0  0  0  0
  9 20  1  0  0  0  0
 10 21  1  0  0  0  0
 11 22  1  0  0  0  0
 12 26  1  0  0  0  0
 13 15  1  0  0  0  0
 13 28  1  0  0  0  0
 14 16  1  0  0  0  0
 14 28  1  0  0  0  0
 15 17  1  0  0  0  0
 15 20  1  0  0  0  0
 16 17  1  0  0  0  0
 16 23  1  0  0  0  0
 17 27  1  0  0  0  0
 18 22  1  0  0  0  0
 19 22  1  0  0  0  0
 21 23  1  0  0  0  0
 24 28  2  0  0  0  0
 25 28  2  0  0  0  0
  1 29  1  0  0  0  0
  2 30  1  0  0  0  0
  3 31  1  0  0  0  0
  4 32  1  0  0  0  0
  5 33  1  0  0  0  0
  6 34  1  0  0  0  0
  7 35  1  0  0  0  0
  8 36  1  0  0  0  0
 13 37  1  0  0  0  0
 13 38  1  0  0  0  0
 14 39  1  0  0  0  0
 14 40  1  0  0  0  0
 15 41  1  0  0  0  0
 16 42  1  0  0  0  0
 17 43  1  0  0  0  0
 18 44  1  0  0  0  0
 18 45  1  0  0  0  0
 18 46  1  0  0  0  0
 19 47  1  0  0  0  0
 19 48  1  0  0  0  0
 19 49  1  0  0  0  0
 20 50  1  0  0  0  0
 20 51  1  0  0  0  0
 21 52  1  0  0  0  0
 21 53  1  0  0  0  0
 22 54  1  0  0  0  0
 23 55  1  0  0  0  0
 26 56  1  0  0  0  0
 27 57  1  0  0  0  0
M  END
> <OMEGA_C>
YDGqQC1Y+0D0yarBUriaQJ0p6UA4SqHBiZPNQBKHC0FshKrBfxO2QLQJDT5b+a/B9u2cQGY+kL+D
dqDBNUvOQJrreb95TLPBiqO1QMfQDsC7s6PB6C/TQF5yBkE1NpfBvxidQCLHfz3Yk6bByeyvQMnC
8EBae5fB6JThQHfFEEEgq6DBeCrOQIk2CsD+Ja3Bto+zQLOjtz9/E5LB+v2zQI/EekDHLIfBb8Oh
QNEADkAy3pvB46miQNc3kEBIvpHB2Z2HQOCLXkBoSJjBjroFQeQjLEHmdJXBdysCQePGMUEtO6nB
+K2EQNn0oz+srqLB4d6eQJIP3kD/Eo3BceMDQZtrIEEtYKDBUjSHQC9qtUC8647BzMP4QDKMO0Ag
iZDB3sHbQELy5D8Jkn/BWK/lQL3eTsBVUrDBhjhvQPlThEAOpqHBFG7UQOJGH0DT84nB7OWaQC4K
9ECFUbLBQvJ8QEJD1UDHd6HBrqzZQJZBEkHS4LHB2J62QOM/hj+HnLTBFMmJQPYMmL9ESZnBAPbg
QDmYbL/ajrrBWs+1QBuPSMAX9J7B92zjQF1mCUGruo/BOaGYQI79hz9lQY3BhrnGQOuYFT8p8ZTB
0VPHQFyvlUAmCIPBlQCZQILDZ0CzDILBiM28QAJEI0D81aDBm769QLfumkCVr5bBp7BZQJjtSECp
P5PBo4MTQZITN0EMoZXBmgruQAZWNUGq95PBOfMHQZROIEG1CY/BbwsQQZePPEE3vqjB+90BQXYG
KkFVIbHBK8DmQMkIO0G7F6jBoV1xQFp56z/fpKnBSApTQBbycj8MwZ3Bcu65QGq/10AZrIfBUiGJ
QHZg9UDLV4nBN68SQetCF0GxsaHBwPlkQL4kukAD55TBrBriQAY7fMA7V6vB2EtPQJDenEDamZ/B

> <OMEGA_E>
1FhXPw==

> <OMEGA_NBR>
     15156

$$$$
50172240
  -OEChem-04172616093D

 69 71  0     1  0  0  0  0  0999 V2000
    8.0506    8.0802  -18.3056 C   0  0  0  0  0  0  0  0  0  0  0  0
    7.0499    7.4590  -17.5372 C   0  0  0  0  0  0  0  0  0  0  0  0
    7.7220    8.6950  -19.5281 C   0  0  0  0  0  0  0  0  0  0  0  0
    6.1068    0.2285  -21.8582 C   0  0  0  0  0  0  0  0  0  0  0  0
    6.8044   -0.9496  -22.1718 C   0  0  0  0  0  0  0  0  0  0  0  0
    4.6140   -1.0482  -20.4040 C   0  0  0  0  0  0  0  0  0  0  0  0
    5.3846    8.0575  -19.2222 C   0  0  0  0  0  0  0  0  0  0  0  0
    5.0101    0.1778  -20.9760 C   0  0  0  0  0  0  0  0  0  0  0  0
    5.7141    7.4512  -17.9893 C   0  0  0  0  0  0  0  0  0  0  0  0
    6.3884    8.6933  -19.9930 C   0  0  0  0  0  0  0  0  0  0  0  0
    5.3134   -2.2337  -20.7041 C   0  0  0  0  0  0  0  0  0  0  0  0
    6.4185   -2.1770  -21.5947 C   0  0  0  0  0  0  0  0  0  0  0  0
    5.7726    1.4708  -18.4746 C   0  0  0  0  0  0  0  0  0  0  0  0
    5.5979    3.8425  -16.9157 C   0  0  0  0  0  0  0  0  0  0  0  0
    5.1932    2.3225  -19.6383 C   0  0  2  0  0  0  0  0  0  0  0  0
    5.0607    4.5046  -18.2049 C   0  0  1  0  0  0  0  0  0  0  0  0
    4.3095    3.4898  -19.1072 C   0  0  1  0  0  0  0  0  0  0  0  0
    3.1566   -3.3853  -17.3890 C   0  0  0  0  0  0  0  0  0  0  0  0
    4.9269   10.3643  -21.2183 C   0  0  0  0  0  0  0  0  0  0  0  0
    5.7027    8.2460  -22.3705 C   0  0  0  0  0  0  0  0  0  0  0  0
    4.3097    1.4487  -20.5728 C   0  0  0  0  0  0  0  0  0  0  0  0
    4.8717   -3.5500  -20.0628 C   0  0  0  0  0  0  0  0  0  0  0  0
    4.6437    6.7672  -17.1625 C   0  0  0  0  0  0  0  0  0  0  0  0
    4.6290   -2.9333  -17.5303 C   0  0  0  0  0  0  0  0  0  0  0  0
    5.4093   -3.7283  -18.6153 C   0  0  0  0  0  0  0  0  0  0  0  0
    6.0684    9.3331  -21.3415 C   0  0  0  0  0  0  0  0  0  0  0  0
    4.0875    5.5854  -17.8681 N   0  0  0  0  0  0  0  0  0  0  0  0
    7.8169    3.1082  -18.1358 O   0  0  0  0  0  0  0  0  0  0  0  0
    6.9880    1.7355  -16.1510 O   0  0  0  0  0  0  0  0  0  0  0  0
    7.1201   -3.2968  -21.9131 O   0  0  0  0  0  0  0  0  0  0  0  0
    3.7827    4.2056  -20.2278 O   0  0  0  0  0  0  0  0  0  0  0  0
    6.7140    2.5161  -17.3643 S   0  0  0  0  0  0  0  0  0  0  0  0
    9.0728    8.0854  -17.9570 H   0  0  0  0  0  0  0  0  0  0  0  0
    7.3047    6.9873  -16.5996 H   0  0  0  0  0  0  0  0  0  0  0  0
    8.4942    9.1709  -20.1142 H   0  0  0  0  0  0  0  0  0  0  0  0
    6.4103    1.1698  -22.2920 H   0  0  0  0  0  0  0  0  0  0  0  0
    7.6387   -0.9153  -22.8567 H   0  0  0  0  0  0  0  0  0  0  0  0
    3.7694   -1.0789  -19.7317 H   0  0  0  0  0  0  0  0  0  0  0  0
    4.3650    8.0360  -19.5778 H   0  0  0  0  0  0  0  0  0  0  0  0
    4.9469    1.0005  -17.9205 H   0  0  0  0  0  0  0  0  0  0  0  0
    6.4297    0.6903  -18.8858 H   0  0  0  0  0  0  0  0  0  0  0  0
    6.1359    4.5897  -16.3138 H   0  0  0  0  0  0  0  0  0  0  0  0
    4.7585    3.4368  -16.3320 H   0  0  0  0  0  0  0  0  0  0  0  0
    6.0252    2.7423  -20.2228 H   0  0  0  0  0  0  0  0  0  0  0  0
    5.9048    4.9277  -18.7693 H   0  0  0  0  0  0  0  0  0  0  0  0
    3.4852    3.0555  -18.5223 H   0  0  0  0  0  0  0  0  0  0  0  0
    2.6621   -2.7872  -16.6094 H   0  0  0  0  0  0  0  0  0  0  0  0
    2.6355   -3.2416  -18.3470 H   0  0  0  0  0  0  0  0  0  0  0  0
    3.1249   -4.4490  -17.1103 H   0  0  0  0  0  0  0  0  0  0  0  0
    4.7221   10.8050  -22.2051 H   0  0  0  0  0  0  0  0  0  0  0  0
    4.0207    9.8650  -20.8447 H   0  0  0  0  0  0  0  0  0  0  0  0
    5.2239   11.1579  -20.5169 H   0  0  0  0  0  0  0  0  0  0  0  0
    5.4742    8.7177  -23.3375 H   0  0  0  0  0  0  0  0  0  0  0  0
    6.5504    7.5553  -22.4908 H   0  0  0  0  0  0  0  0  0  0  0  0
    4.8227    7.6884  -22.0175 H   0  0  0  0  0  0  0  0  0  0  0  0
    4.0696    2.0257  -21.4780 H   0  0  0  0  0  0  0  0  0  0  0  0
    3.3797    1.1908  -20.0450 H   0  0  0  0  0  0  0  0  0  0  0  0
    3.7724   -3.5750  -20.0344 H   0  0  0  0  0  0  0  0  0  0  0  0
    5.2416   -4.3823  -20.6795 H   0  0  0  0  0  0  0  0  0  0  0  0
    5.0826    6.4405  -16.2082 H   0  0  0  0  0  0  0  0  0  0  0  0
    3.8311    7.4823  -16.9665 H   0  0  0  0  0  0  0  0  0  0  0  0
    4.6436   -1.8668  -17.7995 H   0  0  0  0  0  0  0  0  0  0  0  0
    5.1330   -3.0742  -16.5628 H   0  0  0  0  0  0  0  0  0  0  0  0
    5.3583   -4.7971  -18.3601 H   0  0  0  0  0  0  0  0  0  0  0  0
    6.4578   -3.3963  -18.5958 H   0  0  0  0  0  0  0  0  0  0  0  0
    6.9671    9.8569  -21.6993 H   0  0  0  0  0  0  0  0  0  0  0  0
    3.6774    5.9046  -18.7225 H   0  0  0  0  0  0  0  0  0  0  0  0
    6.7515   -4.0429  -21.4548 H   0  0  0  0  0  0  0  0  0  0  0  0
    3.2404    4.9222  -19.9199 H   0  0  0  0  0  0  0  0  0  0  0  0
  1  2  2  0  0  0  0
  1  3  1  0  0  0  0
  2  9  1  0  0  0  0
  3 10  2  0  0  0  0
  4  5  2  0  0  0  0
  4  8  1  0  0  0  0
  5 12  1  0  0  0  0
  6  8  2  0  0  0  0
  6 11  1  0  0  0  0
  7  9  2  0  0  0  0
  7 10  1  0  0  0  0
  8 21  1  0  0  0  0
  9 23  1  0  0  0  0
 10 26  1  0  0  0  0
 11 12  2  0  0  0  0
 11 22  1  0  0  0  0
 12 30  1  0  0  0  0
 13 15  1  0  0  0  0
 13 32  1  0  0  0  0
 14 16  1  0  0  0  0
 14 32  1  0  0  0  0
 15 17  1  0  0  0  0
 15 21  1  0  0  0  0
 16 17  1  0  0  0  0
 16 27  1  0  0  0  0
 17 31  1  0  0  0  0
 18 24  1  0  0  0  0
 19 26  1  0  0  0  0
 20 26  1  0  0  0  0
 22 25  1  0  0  0  0
 23 27  1  0  0  0  0
 24 25  1  0  0  0  0
 28 32  2  0  0  0  0
 29 32  2  0  0  0  0
  1 33  1  0  0  0  0
  2 34  1  0  0  0  0
  3 35  1  0  0  0  0
  4 36  1  0  0  0  0
  5 37  1  0  0  0  0
  6 38  1  0  0  0  0
  7 39  1  0  0  0  0
 13 40  1  0  0  0  0
 13 41  1  0  0  0  0
 14 42  1  0  0  0  0
 14 43  1  0  0  0  0
 15 44  1  0  0  0  0
 16 45  1  0  0  0  0
 17 46  1  0  0  0  0
 18 47  1  0  0  0  0
 18 48  1  0  0  0  0
 18 49  1  0  0  0  0
 19 50  1  0  0  0  0
 19 51  1  0  0  0  0
 19 52  1  0  0  0  0
 20 53  1  0  0  0  0
 20 54  1  0  0  0  0
 20 55  1  0  0  0  0
 21 56  1  0  0  0  0
 21 57  1  0  0  0  0
 22 58  1  0  0  0  0
 22 59  1  0  0  0  0
 23 60  1  0  0  0  0
 23 61  1  0  0  0  0
 24 62  1  0  0  0  0
 24 63  1  0  0  0  0
 25 64  1  0  0  0  0
 25 65  1  0  0  0  0
 26 66  1  0  0  0  0
 27 67  1  0  0  0  0
 30 68  1  0  0  0  0
 31 69  1  0  0  0  0
M  END
> <OMEGA_C>
dc8AQW9IAUHWcZLBlpjhQAqw7kAoTIzBuRr3QKMeC0F2OZzBumrDQGv9aT6m3a7BkL3ZQGsWc7/K
X7HB4aWTQJcrhr9hO6PBZU6sQF7rAEEqx5nBV1KgQC8SNj7uzqfBCNq2QD9w7kAN6o/BE27MQOsX
C0Gz8Z/BngeqQD30DsAGoqXBFWTNQBNUC8DjwazBALm4QCFEvD/wy5PB+SGzQF3rdUBeU4fByi6m
QKWjFEA+G53BdfGhQO0lkEC6o5HBCOeJQIpYX0B/25jB0gVKQEepWMCbHIvBzaidQA3UJUEFv6nB
6Hy2QHLvA0G09rLB2uiJQDNuuT8XlaTBIOWbQDgzY8COgKDBFpmUQLaM2EC2TInBDCGUQLm6O8Al
PozB0RitQOqcbsA37JTBCjDCQHpUFUFju6rBzcyCQIa7skD48Y7ByCP6QEntRkARFpHBqp3fQPkj
3j9MNYHBmNfjQFj+UsDwTa/BOBhyQF2UhkCI0qHBHdnWQCcHIUAA6orBUioRQdddAUHtp4/Bxr/p
QO2X30AQzITBYugHQQ+8EkHg6aDB6yDNQP28lT8eVrLBDHD0QPBNar+d2rbBDz1xQBIYir9x2p3B
+q2LQFSTAEFCn5zBpkyeQFgRgD8zXY/B5b/NQAe6MD8GFpfB/1jEQI7ekkCegoLBPkWYQLv0W0Db
p4LBNM7AQGCBL0BFyKHBRPS8QM6vnUCNJ5bBPw5fQOyNQ0CbLZTBK2AqQERiMsD734TBY6soQF12
T8CTxpLBHP5HQPVdjsDY4YjBVhuXQHXhLEEApLHBaamAQBrXHUHawabBUCqnQJeGMkGJIqTBoSyv
QKZ7C0FGs7rBopzRQLfE8UAc7bPBO1OaQEMH9kDnI7DBRjqCQB+lAUD30qvBg0xYQJprmD8iXKDB
gm5xQPTMZMBxRqDBVbunQCg8jMCpb6XB/aSiQGUYzkBpqoHBjTF1QPhu70B1u4fBZpiUQH3z7r9Z
ZY7Bw0GkQEq/RMCfgITBEnerQKiBmcBi4ZLBPabOQA9dWcA8xJTBPfLeQNa1HUEVmK3B7VlrQDDy
vECux5XBcgzYQHxfgcCEo6vBSGJPQM+CnUDgW5/Bru77QE3PA0ExKZTBKWTgQKtT8kA//YzBwPjr
QN+nC0Ed953BlSvFQOY4iT6Zma7BQM/bQCbtaL8o7LDBuAmSQM/1gr+OAqTBSvOkQGTi/ECOX5nB
jl+gQFmGWT6kG6jBW7O0QBJs7UDflI/B/GHAQOaTCEF9r6DB8CioQGq1DcBScabB0LbNQPVkCcD8
0KzBuQm4QDrJuj8CE5TBDTKzQF9AcUCmJYfBX/qlQFjrFUChQZ3B/+qhQOdDj0BHOJHBl+CJQH1z
YEAA2JjBty+fQJAzEcAtLofBBYnIQAc/B0Fxv7TBt6mrQHmUKEGws6vBBvGJQDp5vj8p7KTBLYqW
QAqUY8DciKLB0VWWQDRG1kBGL4jBfSqFQGY+TMD+iI7BebKiQM25eMCN1ZbBIv6tQOQCEEFBVavB
exyDQIUJsUD61Y3BQM35QAinRECLHZHB8iTfQLaH0z+0foHBcHrkQP0QUcACMK/BaYR0QP+4iECE
sKHBQ4XWQIKrHUAgC4vBJqIOQW72BUGEJpLBoqrsQILR5UDlioXBrH8AQc0DFEG/ZqPB+fHPQBFh
mz97yLHBJxz4QAo0Xr/I3rXB6+prQHBTh7/0+p7BI3aDQMQl+UDWSpvBd1qdQImvfT8Tuo/BdbLM
QKRNLT/RepfB+IjEQF7Uj0C1JYLBn1iYQFk2VkCakYLBz9nAQGovMUASzqHBc8e8QLnmnUDhkpXB
+bldQLNYREDgbZTBB6qJQCDX5L9hYIHBJmC3QFIQN8Dy4YLB4yyvQDuiv79bA4zBDaa6QOHSDEGF
VrzBvrHpQBMADUErFbTBPTrIQJZN60CVi7TBdlOeQP+uLUGIb7PBHQOXQAJbLkHOL6XBDf3LQBFH
L0GWvqrBVgGDQEbGBECTKazBio5XQNEQnj8Z3aDB995mQBrvYcBWJqPBrSqjQPI6i8Cdu6fBKfCn
QDD1ykDSG4HBZZR5QFlJ7EAfqYXBklVqQNNYfcDrqInBC+9ZQJ8ZJsBUypLBwXygQMkxn8DYsJXB
29HDQM+7Y8DWbJXBCkGNQBC2CUFaD6zBXI9oQHTyu0AHYZTBT2HXQG6jgMDJ6avB1hxSQDKUn0Ae
Hp/BnMX7QCGNA0F4PpTBLYXgQAea8UB4CY3BPRvrQP8nDEFV0J3BmWDFQGh9cD50FK/Blk3bQIJp
dr8JOLHBk8SSQOLqfb9F4KPBPwOkQE0A/0CF6pjB0vSgQHapXz5+cajBGnq0QKzc7UAjYo/BcAK/
QJj2CUHdNKDB1/WoQM93DMAQyKXBI27NQH4rC8Ahl6zBrnC4QO3kuj+QXpTB41+zQITecEAZU4fB
AsOmQB+LFkDrjJ3BzEyiQHVWj0AeYpHB1HeKQK68YED8F5nBi8cwQAPLZsBPN4zBRNrAQFzjBkEI
PbTBcPewQJ6aKkE5dKvBix+LQLN/wT8lbqXBnzWZQOEiX8DGd6DBa2qWQFDe1UCpFojBLR6EQJSP
OMBRrIzBcbykQNxZZMA2XJTBbeqrQJ0uEkGJnqrBb2qDQEH+sECY9I3BNin6QFGGREDdM5HB9gLf
QKk00j/Pr4HBtHHjQLv9U8BG3a7B16R1QKr4iEDU6aHBzK/WQC9YHUAeOYvBS7QOQUIzBUGJcJLB
L0btQFQO5EB+wYXBMv3/QBFsFEHMUaPBE2nQQMIBlT/vgrLBkOH2QBWMdL8BbbbBqjdtQM43f7/8
3Z7BaUmCQJsO/EBAp5rB5JOdQJaBfT8TGpDBWCzNQK3WLT/dw5fBy6nEQOyAj0BsRoLBDWuYQHO8
VUBny4LByNvBQHFUMkD+9qHByzu9QLwenkCMrZXBc+9eQGktREBAuJTB6gQGQBm3RMBKrIbBbQcU
QJW3Z8B5P5TBRxY6QLlslMBuZ4nBuMKyQEP6DEGetLvBLXnjQFIRCkHPN7TBnkm7QHoY60BdqbPB
YPqiQD02MEHfBrPBBGSgQOZKMkGetaTBRybTQCzHLkFfOKvB+H+FQEN1BkAruqzBvppYQJ7ooz9V
mqHBLmlsQFV/YsBmS6HBXuKnQK34isC/mKTBkTKoQO8KykDOF4HBznl5QLRy60BNa4XB77F9QH4E
7b/9ao/BZOCRQB2kN8DykoTB5PGmQGErlMDnJJLB7Q/EQPmVRcBLNpPBrIiJQDppDkEZrKrB2uBp
QIZbvED6f5TBrK3WQMN2gcDfPKvBvAdTQCC2n0AyUp/BPvz3QOj0BEHioJPBVibdQAUL80DgmIzB
bkfnQENvDUG3N53B7YvNQJxlez5cka/BPnngQA5bgr+OBrHBTXuTQJPYS7+uh6XB3u+gQO9z/kAA
tJjBtemmQD6psz6S0anBx3SxQE+p7UCHIY/BOJO7QI9lCkFv0Z/Bu2umQJ32A8DHw6bB1jTNQD35
CsBlnqzBYVC8QPZ1vz+3c5XBisuzQLHmbUBYjIfB9y6sQLfYHEDqbZ7BXU+jQF0Sj0D2fZHB7piN
QJ8CYkATvJnBXybUQICpV8B91pDB5C+/QIMBCEEB3LPBorirQG8RK0H53qrB5YyTQBji2D/lYqfB
Q8qOQPr+UcBVVKLBJxCUQKou1EAC+4fBUmKmQAhnecBrJ4/BMP6EQNzxSsCBJJbB6pioQImJEkG+
QarBvNKCQKr5rkCV/43BUJn8QN0hR0Cz7JDBb5rfQNg6yj8XSILBBXLgQK4dWMCqEa7Boh57QGjA
ikB4T6LBJ3HYQNnEHECskovByqsMQYs6B0G8rJHBOvbpQG2w5UDeTIXB1dX7QN1AFkF8laLBQYnc
QFt9kD+Y1bLBntT9QOS1jb90h7XBBkhrQEd+NL+4O6HBsf9+QEMl+kBwmprB7tSgQEXffT/PtpHB
U+7RQBlUPj/y6pjBdg/EQJORjUBgK4LBaaOYQItjUEAqVoPBDfjHQB4mPUDQBKLB8Uq+QJiDn0C7
XpXBrt9lQNwLQUDfupXBkmLqQLope8AJqIvBuXDdQGN7YMAAQZnBWljVQCozE8Atz47B7iaxQAEJ
DkFuWLvBBoDhQLPoC0GwpbPBgQ27QFkY7UB3cbPBIdudQLKkMEHJdrLBtAiaQDswMkGdJaTBboPN
QFvrL0FPcKrBVhiUQMiCE0CftK7BunlkQFUlxj++y6TBEK9gQFHzWMCVqKbBfq2iQJSJhcAgraPB
ggGmQCi5yED3+IDB6uZyQLOc6EBNUYXBFselQH78nsA8JJHBt66dQMKwcMBqsobBF4+EQCbdBsC3
55PBr7hKQGdCZ8DpmZTBkJCGQPcRDkHGgarBjfZnQNoSukAthZTBu/vPQLq+gcBJsKrBULJVQEb4
n0BNh5/BvDcAQYBPAkGJPpPB5nzhQDCU8EBSyozBCK70QBQvC0H3KZ3BXvTHQN0GmT7RbK/B5X/c
QF6La7/smLHBMBSVQNydXb/u6KPBeMeqQLnW/0AAOJrB5e2jQI1coj78q6jBI4i2QKZ67kAvNZDB
g97JQMgGCkFquqDBDZOpQNWxBcBW4aXBvGPNQCpwB8Co9azBYfm4QMmqvT88CpTB4quyQLDAc0An
AYfBwiipQGR3GUCTTp3B2vaiQAU6kEDXTZHBSuiLQKP7YUA4+pjBjy4BQW6HicBlApPBo52ZQHOL
I0Fiw6rByeWxQGvdAEFhXrPBvt2OQJdKzj9Qv6XBIEeXQMYGVcBGUaDBrmKVQAGv2EC+OYnBflXZ
QHsfXsByB5TB1xO5QHyxh8DAHJvBW0S+QDccE0Fdq6vB5n2DQJxeskAglo7BcPz6QKdIQ0BBFpDB
L0TcQKGf0j934oDBwGPiQHEfUcDEUq/BHM13QBdBiUBr06HBrwvWQHfjHUCYf4rBJ6IQQSEyA0Eh
lZDByqLqQBTH4kDbNIXBtEMGQZ3rEkGyE6LBG7jTQNWmmz+z6bLB3ff3QD0gcb901rbByjJzQJN5
Vb8qrZ7BlAOKQKqw/UDz6ZzBdUmdQIPbgT+RGJDBRAPOQLfwMj8eSpfBjcbDQK0ZkUDJ9YHBCA+X
QD8jWkCylYLBUhzFQEFjNkDDP6HBQpS+QJpbnkCRdpXB3ERiQPhTREBJoZTB28MMQZOJcMBQ+43B
kt36QP+WqMBaUY/BXBYIQaPBjsBd/5rBZeeRQKrUKUHlwLLBEFZ6QFu9G0FRWqfBTKKjQN3IMEG8
iKXB35ipQGyZB0HOOrvBOhHNQIig60D7PrTBeTOWQCpP8ECzH7DBMKuLQCueDkBw/azBDN1dQJ0x
sz+zdKLBHxGBQMmJP8CICprBmq+FQAPQesDCTKbBDnykQK3qzkAbqYHBNZd2QP5Y70DqjYfBkW7L
QKCpU8AJDYzBt73gQOf+H8AMu5fBRoioQDF8n8D1HZbBE+TKQA8mmMCffaHB7ITaQDRPG0GW8q7B
JRhrQM7pu0BOYZXBIBzVQJ2Yf8ALuKvBxOZTQBWKn0CSQp/Bw48AQV+uAUFqY5LBJCThQM5N70BZ
Q4zBfKb2QHxhC0HQNJzBJQjGQMoJcj5UYK7ButrbQFgIc78t8bDBjk+SQGJyhr/596PBYgSsQJXL
AEEp25nBUV6hQNKaPT6V1qfB7H62QAyK7kBX8o/BbBDMQIYcC0H4/J/B2+KnQCDOD8BhiKbBLC/N
QEUFDMBV/qzBkjy5QP4EvT/vupPB/ceyQBzrdUDIN4fBtuOmQHgTFUDUDp3BBOqhQOUukEApj5HB
pUKKQFJhX0Ac2JjBfIS8QK1gMcAH2YXBGpWcQMNpJUFQ3qnB3w+3QA/MA0GdDbPBlPiKQBJ2uj+G
naTBxX6WQOPvZMBWSqLBhz+UQLil2EA5U4nBjHnAQDWhXMCSzpDBS7uTQBcpZcDB95XB6M7BQMVI
FUEYyqrB8ZuCQEipskCA7I7BGjb6QMVYSEA/4ZDBja/fQJpR3z8zE4HBXJvjQLL1U8Cyba/BsSVz
QFCdhkDK06HBJu/WQC2vIUCjxorBFOIQQZDwAUHFjY/B7EDpQGJ34EBhuoTBQKkHQTwTE0E54KDB
EFbRQBWNlz9vaLHBU/j3QLZ1ab8h9bXB9RdsQPaCir/KAJ/BEX6LQKU1AEE7w5zBU76eQGM0gD9k
W4/BA3vOQCE0Mz9g/ZbBoJ/DQMXlkkBeVILBa9CXQHpoW0BwooLB6JrBQB1UMEBPqqHBaA+9QO/R
nUAmAZbBWJ9fQEE1Q0AoOpTBKW3cQIxyK8AENYLBRmeuQJq84r9I1YbBtt6nQFxDWMCqooDBHweW
QKNuLEErxbHB65x/QJIfHUGt86bBy2ClQOItMkFMOaTB+7mvQONJC0FYzbrBIKPSQCwF8kA59rPB
lSabQCY09UBSS7DBAZGDQAlYAkBF3KvB/RpaQN1bmT9Wd6DBh6VsQMaKb8Aim6XBCN6rQBt4jMAA
3qTBL0SiQJVlzkCtq4HBIFF0QAB670DozIfBVCXVQNy2NcCNApbBxJzOQPZNjsDvz4/BjGp/QCog
L8AqXpPBphWFQLzKkMAsU5PBnlPeQIP0HUGnla3Bl/JqQACtvECVxpXBgR7WQIAXgsD9QazB6AVQ
QJ1rnUDxYZ/BXPz3QCC1BkEKCpLBtTndQPtc9ECZcovBpHjnQFghEEEPcJvBiCDFQHAonb1kwbDB
xonVQMHZsb8FS7HBAsySQGCkS7/S/qLBuHOhQGfbAEFsi5fBx2qjQGjFYD74n6nBJcOxQKPD7kB3
OI7BSBK8QNveDEFjTJ7B43WkQEVSBsBMGqPBLZLFQM4lGcBha6rBM9i9QGP6wz8UTpbBMGq0QKaq
bkACR4jBlBGsQDwaHUB7RJ/BoSWjQLa9j0DkF5LB+V+NQKJdYkAVYJrBoB3GPyQnaMBVn4nBtqzD
QLZ6D0FTV7LB1+GkQM5uLkEluafBZ1iTQLGZ0j9uGKjBLDqXQHLCSsAk9prBIBiUQFlI00CXm4fB
3Fo7QEg2f8DeM47BLqxfQOu7McCgO5TBdeioQNP5FUEdhqjBCOCCQPuFr0BlSY7Bp/D8QMiKTEAs
+ZHBlBjiQF9J0D+rUIPB/2zXQMCSaMDbh6rBP/x4QDWzikDO36LB87TZQET3H0B3hozBs48MQZsW
CUG55I/BnenpQCqK5UD6UITBjef7QNnRGUEwcqDBHlHSQO/kMj+ayLXBfWfuQNhY0L+P+7bBUW5w
QEVhE7/Zwp3B5g+AQHPD/UAFi5nBeh2jQJVUgD+PcZLBdfPTQKZcTD9A2JnBzFTEQPfvjUCC1ILB
ybOZQBtpT0C0FYTBsxzHQJsuPkDCF6PBtsm9QIV5oEBgCpbBWklmQKa4QEBySJbB7peRP/3Dj8Du
SoXBEfjSP/i7McD+GITBr6xeP/eoVsDFMpDB5zC1QFQ+FkEcnbnBHnjkQHCeFUGHcrHB2H/EQDPc
+0Do+bLBrP+WQG++NEEyK6/BqwSQQG+VMkFE8qDBlsDEQHN6NUGNeqbBH6iWQGt4C0Cjvq/BDrdi
QH0ezT/p1KXBYNKPQCMNg8CmUZ/B20SyQIMMVsDwgZXBt8+lQLHxxUAfxoDBLcZyQBLy5kCtqITB
y85mQK1WiMDRoYfB7v00QC3NmsCYu5PB8HZyQFFwAMDvZ47B2vstQBfxF8CFkZnBW5aIQK5JD0EB
gqnBcJRpQBhYvEAft5TBVDDJQEYKhsDYfaXBr7BTQLzNn0AcA6DBZlT9QH6jA0HryI/BI7/dQAaz
70AXVorBGZ/yQJ8/D0EuD5nB823FQMCcM71917DB4S3WQEx0rL/SzrHBqtaUQK2WVL/V66LBDpqo
QD4pA0HKgJfBpkKkQBD8Vz60d6nByUqzQOo270D8LI7BfCvIQFw3D0EB8ZzBEM2mQCkvCMAle6PB
fQ3HQCmLGMAnIavBGl2+QADDxj8rIJbBDaWzQMKrckBHaojBDRqsQFLFHEC9MZ/BHbGiQK6xkEBz
dZLBiDCNQAAbYkCzeprBVI3ePwjHb8CSRInBLRyXQDeYKkEriaXBEVC0QGSWC0ETV7DBAQKTQHra
zj9sxafBS5OaQIInT8AzkJvB6GORQFQU1UC7eIjBJOxFQJQzg8DrX47B+nFpQBqEN8DINJTBeoy9
QINtG0FeLafBteyBQFslsUD6SI/BnNP8QAL8T0CV55HBEi/iQBLx2T9hGIPBjOrYQELCZ8A1xKvB
mVB3QOhdiUC8HqPBuKTZQDSKI0DQaozBM+oOQa3HA0Hr2IzB/gLmQGX43UCjNoPBSX8FQe05GEEv
Op3Bg/LRQE6cQT+HurXBbaruQEHrxr8prbfB9/N1QLvIIr/HZ53B0jKIQOfMAkGHgJrBLe2jQHX8
gT93N5LBTO3UQCu5Uz+Yk5nBCyDDQOiJkEAhDIPBU9+YQMaxU0DINoTBvNvGQF6GPUCSL6PBcpK9
QLGxoEBlfpbBRZxmQDijQECsOpbBhkmrP8gTlMBIFYXBYxHwP44sO8DYhYPBBlWEP7bLW8CXi4/B
ZFWQQNoeM0GtC63BpLl1QBY5IUGlKqPBUb2eQE4/NkECOZ/BmbKsQDaHFEFZrbfBF6rQQAeIAUHQ
ubHBD/yYQNZjAUExKK7BTpmUQG3MCUDUcK/BA+ZiQHblxD9wMKXBENWRQB1RhMBwJqDB9o62QF4w
XcB0hZbBhhWfQHnqx0AVEIHBg2ZsQJD86UA7fobBkRVzQC8ujcAWGojBYjc9QMN9ncDVH5TBMWN/
QMetCMB6PI7B+zY2QNUHG8ByFJnBZ4HZQMwiJUF5a6nBLYNrQHi8vUAx+5XBQFLLQLJwhsCAzKbB
9qVRQHiJnkDjXaDB

> <OMEGA_E>
3K/GPkBp0j7giNI+3KLtPvCR9D7wv8U+IMMTP7CyED8=

> <OMEGA_NBR>
     24144

$$$$
50172243
  -OEChem-04172616093D

 61 63  0     1  0  0  0  0  0999 V2000
    7.8545    8.2562  -18.4990 C   0  0  0  0  0  0  0  0  0  0  0  0
    7.0081    7.5660  -17.6071 C   0  0  0  0  0  0  0  0  0  0  0  0
    7.3323    8.7936  -19.6948 C   0  0  0  0  0  0  0  0  0  0  0  0
    6.0782    0.2079  -21.9758 C   0  0  0  0  0  0  0  0  0  0  0  0
    6.7720   -0.9864  -22.2398 C   0  0  0  0  0  0  0  0  0  0  0  0
    4.6278   -0.9845  -20.4109 C   0  0  0  0  0  0  0  0  0  0  0  0
    5.1208    7.9594  -19.1037 C   0  0  0  0  0  0  0  0  0  0  0  0
    4.9946    0.2061  -21.0741 C   0  0  0  0  0  0  0  0  0  0  0  0
    5.6364    7.4259  -17.9115 C   0  0  0  0  0  0  0  0  0  0  0  0
    5.9588    8.6353  -20.0039 C   0  0  0  0  0  0  0  0  0  0  0  0
    5.3430   -2.1749  -20.6452 C   0  0  0  0  0  0  0  0  0  0  0  0
    6.4074   -2.1765  -21.5783 C   0  0  0  0  0  0  0  0  0  0  0  0
    5.7686    1.4553  -18.5798 C   0  0  0  0  0  0  0  0  0  0  0  0
    5.6142    3.7482  -16.9379 C   0  0  0  0  0  0  0  0  0  0  0  0
    5.2065    2.3479  -19.7224 C   0  0  2  0  0  0  0  0  0  0  0  0
    5.0779    4.4716  -18.1894 C   0  0  1  0  0  0  0  0  0  0  0  0
    4.3308    3.5113  -19.1590 C   0  0  1  0  0  0  0  0  0  0  0  0
    6.0449    8.5059  -22.5124 C   0  0  0  0  0  0  0  0  0  0  0  0
    5.4728   10.6931  -21.3652 C   0  0  0  0  0  0  0  0  0  0  0  0
    4.3262    1.5064  -20.6943 C   0  0  0  0  0  0  0  0  0  0  0  0
    4.7020    6.6631  -17.0056 C   0  0  0  0  0  0  0  0  0  0  0  0
    5.0664   -3.3969  -19.7895 C   0  0  0  0  0  0  0  0  0  0  0  0
    5.3591    9.1606  -21.2994 C   0  0  0  0  0  0  0  0  0  0  0  0
    4.1109    5.5167  -17.7496 N   0  0  0  0  0  0  0  0  0  0  0  0
    7.8232    3.0609  -18.1800 O   0  0  0  0  0  0  0  0  0  0  0  0
    6.9761    1.6232  -16.2467 O   0  0  0  0  0  0  0  0  0  0  0  0
    7.1122   -3.3139  -21.8183 O   0  0  0  0  0  0  0  0  0  0  0  0
    3.8462    4.2885  -20.2576 O   0  0  0  0  0  0  0  0  0  0  0  0
    6.1180   -3.5385  -18.8329 O   0  0  0  0  0  0  0  0  0  0  0  0
    6.7153    2.4462  -17.4339 S   0  0  0  0  0  0  0  0  0  0  0  0
    8.9027    8.3737  -18.2668 H   0  0  0  0  0  0  0  0  0  0  0  0
    7.4071    7.1464  -16.6954 H   0  0  0  0  0  0  0  0  0  0  0  0
    7.9804    9.3261  -20.3750 H   0  0  0  0  0  0  0  0  0  0  0  0
    6.3749    1.1250  -22.4629 H   0  0  0  0  0  0  0  0  0  0  0  0
    7.5854   -0.9918  -22.9504 H   0  0  0  0  0  0  0  0  0  0  0  0
    3.7963   -0.9828  -19.7216 H   0  0  0  0  0  0  0  0  0  0  0  0
    4.0705    7.8487  -19.3297 H   0  0  0  0  0  0  0  0  0  0  0  0
    4.9329    0.9800  -18.0452 H   0  0  0  0  0  0  0  0  0  0  0  0
    6.4173    0.6786  -19.0108 H   0  0  0  0  0  0  0  0  0  0  0  0
    6.1561    4.4653  -16.3038 H   0  0  0  0  0  0  0  0  0  0  0  0
    4.7728    3.3214  -16.3722 H   0  0  0  0  0  0  0  0  0  0  0  0
    6.0479    2.7775  -20.2859 H   0  0  0  0  0  0  0  0  0  0  0  0
    5.9174    4.9397  -18.7243 H   0  0  0  0  0  0  0  0  0  0  0  0
    3.4837    3.0675  -18.6153 H   0  0  0  0  0  0  0  0  0  0  0  0
    5.6006    8.8957  -23.4401 H   0  0  0  0  0  0  0  0  0  0  0  0
    7.1200    8.7380  -22.4951 H   0  0  0  0  0  0  0  0  0  0  0  0
    5.9044    7.4157  -22.4686 H   0  0  0  0  0  0  0  0  0  0  0  0
    5.0345   11.0537  -22.3074 H   0  0  0  0  0  0  0  0  0  0  0  0
    4.9328   11.1375  -20.5161 H   0  0  0  0  0  0  0  0  0  0  0  0
    6.5325   10.9844  -21.3187 H   0  0  0  0  0  0  0  0  0  0  0  0
    4.1435    2.0926  -21.6070 H   0  0  0  0  0  0  0  0  0  0  0  0
    3.3673    1.2837  -20.2036 H   0  0  0  0  0  0  0  0  0  0  0  0
    5.2611    6.2863  -16.1365 H   0  0  0  0  0  0  0  0  0  0  0  0
    3.8979    7.3309  -16.6629 H   0  0  0  0  0  0  0  0  0  0  0  0
    4.1063   -3.2727  -19.2674 H   0  0  0  0  0  0  0  0  0  0  0  0
    5.0239   -4.2924  -20.4270 H   0  0  0  0  0  0  0  0  0  0  0  0
    4.2923    8.8935  -21.3222 H   0  0  0  0  0  0  0  0  0  0  0  0
    3.6568    5.8787  -18.5637 H   0  0  0  0  0  0  0  0  0  0  0  0
    6.7504   -4.0257  -21.3036 H   0  0  0  0  0  0  0  0  0  0  0  0
    3.3107    5.0015  -19.9299 H   0  0  0  0  0  0  0  0  0  0  0  0
    5.9538   -4.3018  -18.2917 H   0  0  0  0  0  0  0  0  0  0  0  0
  1  2  1  0  0  0  0
  1  3  2  0  0  0  0
  2  9  2  0  0  0  0
  3 10  1  0  0  0  0
  4  5  2  0  0  0  0
  4  8  1  0  0  0  0
  5 12  1  0  0  0  0
  6  8  2  0  0  0  0
  6 11  1  0  0  0  0
  7  9  1  0  0  0  0
  7 10  2  0  0  0  0
  8 20  1  0  0  0  0
  9 21  1  0  0  0  0
 10 23  1  0  0  0  0
 11 12  2  0  0  0  0
 11 22  1  0  0  0  0
 12 27  1  0  0  0  0
 13 15  1  0  0  0  0
 13 30  1  0  0  0  0
 14 16  1  0  0  0  0
 14 30  1  0  0  0  0
 15 17  1  0  0  0  0
 15 20  1  0  0  0  0
 16 17  1  0  0  0  0
 16 24  1  0  0  0  0
 17 28  1  0  0  0  0
 18 23  1  0  0  0  0
 19 23  1  0  0  0  0
 21 24  1  0  0  0  0
 22 29  1  0  0  0  0
 25 30  2  0  0  0  0
 26 30  2  0  0  0  0
  1 31  1  0  0  0  0
  2 32  1  0  0  0  0
  3 33  1  0  0  0  0
  4 34  1  0  0  0  0
  5 35  1  0  0  0  0
  6 36  1  0  0  0  0
  7 37  1  0  0  0  0
 13 38  1  0  0  0  0
 13 39  1  0  0  0  0
 14 40  1  0  0  0  0
 14 41  1  0  0  0  0
 15 42  1  0  0  0  0
 16 43  1  0  0  0  0
 17 44  1  0  0  0  0
 18 45  1  0  0  0  0
 18 46  1  0  0  0  0
 18 47  1  0  0  0  0
 19 48  1  0  0  0  0
 19 49  1  0  0  0  0
 19 50  1  0  0  0  0
 20 51  1  0  0  0  0
 20 52  1  0  0  0  0
 21 53  1  0  0  0  0
 21 54  1  0  0  0  0
 22 55  1  0  0  0  0
 22 56  1  0  0  0  0
 23 57  1  0  0  0  0
 24 58  1  0  0  0  0
 27 59  1  0  0  0  0
 28 60  1  0  0  0  0
 29 61  1  0  0  0  0
M  END
> <OMEGA_C>
QFj7QHkZBEHn/ZPBbULgQJoc8kBf24zBZ6LqQIWyDEHjjp3BRYDCQLrlVD5bzq/BnLTYQNSDfL8i
67HBMReUQOoJfL91SaPBl92jQKSz/kBV1JjBXNOfQAoVUz7Al6jBI120QFSh7UDBSo/BwK6+QBAq
CkEVCKDB6/mqQAcyC8BlKaXB0wnNQCtLC8BQoKzBQ5i4QLJIuj9no5TBMqezQLXib0DSgIfB4Zum
QIFDFkB4x53BMX6iQHoXj0DKg5HBjJWKQBy5YECURZnBum/BQAMYCEFnGbTB8yCvQAUXK0Hd66rB
HHCKQBXTwD/2jaXBq3aWQOQ31UCIC4jBKyCiQF1nWcDxUJ7B+32rQNmREkEgZarBKoyDQKSIsEAv
/43B2Ff6QJHmQ0CPcJHB9zvfQArFzz80+YHB9ZbjQBkXVMDpi67BVyh2QGw7iUCgD6LB4MbDQNN2
YsDLqZbBZ+PWQDyPHEC1eIvBj3EOQXv6BUGBIpLBFAftQECv5EBIkIXBwl//QNU3FUEKAKPBg//L
QGn+jz8dtLPBMbvyQNvkfb9hmrfBYfdyQJ6Ve7/rxZ3B1EGCQMEo+0A/o5rBtNqdQO7jej+MXJDB
j1rNQGW3LT8xFpjBKv/EQGzjjkAtboLB5LqYQC2SVEBS+oLBH4jBQK/CMUCSSaLBJVu9QLERnkB3
y5XBevVeQEFSREAS7JTB0jezQOxUDkFHhbvB1tbjQODOC0EP9rPB8vC8QM1N7UDEv7PBkxqhQPbb
MEGndbLBddmdQCwzMkHsIKTBHgrRQCXAL0G4jKrB45eEQNPtBUAp26zBHIFXQOFQpD/hoKHB7lqo
QFgpyUCAF4HB1HZ5QImW6kCqTYXBmWaDQCNzUcCKI5rB1cOgQBtbicCBaqPBblqJQOJLDkHdk6rB
UQlqQGEevEB9gpTB/wLYQJPSgMDCbarBpeJTQDUMoECAcJ/BPYW+QEyoicBnVZLBj0AAQbAOAkE6
JpHB637gQFGC7kA2XIvB6Rr2QMDdDEHkrprBfmy9QChFtT316q/BRebTQIrci7/qP7LBvHWXQMR7
iL9niKHBbIyrQKnjAUFCt5jBEoGeQMhuwz1fuafBI++1QAlg7kAyHo/BP47LQIv5DEEpf57Bkduv
QGGhDsDSZ6PBvvHMQM9DEMD2G6zBm2+6QMhuvT8UmJTBTLmzQPCpdEC8AYjBIgamQEp5E0Csz53B
NwSiQBvtj0DvNZLB8xuKQHLrXkAShZnBmNObQJk0KEEHpKfBxZm2QI6yB0F4uLHBbpeIQDLcsT/O
vaTBQoyTQL2W1kCB/IjBscarQJZuWsB/2JvBeTvBQOFLGEG0/6jBy4uCQFTvsUBrRo/BjaL6QHBS
SkBFE5LBEhjiQNDZ3z+yNILB+w7jQLCEWMC+lK7BNvxyQHpxhkD6f6LB9EWXQKjUj8ADJaHBWDbY
QHxCIkAe0IvBRYwQQakOAkFmRo7BEoXoQIQF3kBcCYTBFGUHQTIeFUGhGp/BJtnDQJdXfT/AZrTB
hpPqQM4mjr+fxLjB1KN+QOgjiL+VWZvBQg+LQPqdAUGiqJvBheugQLUXez9kCJDBy/rPQGAROT/G
BZjBqXDEQPA6kkBOFIPBQjCZQAbIWECqZIPB8p6/QBWRLUBL5aLBC7W8QLQXnkBpuZbBpBJfQGNi
Q0Af45TBODiVQKESMEFdVq/Bj0J+QMyHH0Ef96TBMXmkQERZNEEcpqHBmjSvQMj+D0H7QbnBUEDS
QPkk+kC/6rLBysGaQE1X/EAtNq/Bltp/QCun9j+RG6zBTNxWQL9BlD9bLKDBajqhQFx6ykDzdoHB
3VpyQLHE7EBIMIfBYtbLQJyVbsCIOpnBdbWYQLmIR8D91ZTB8qrdQIxSIUE4jqvBd3BsQKOavUCR
DpbB8iXbQPWLgsBFzqnBLMFQQKSUnUBGDaDBKNSUQL5ip8ARYZzBR0L+QDOHAkFjmZXB0oDjQP8n
8UCKAI7BlujsQME8CkEHR5/BZxjCQOANrj6YCq/Be+HZQOsPUL/berHBhaCSQF48fb9NuKPBXQWm
QJXp/EB4rZnBAE6eQNJ2gD61N6jBTDi3QFVn7UAIC5DBJJ7AQBvxB0EuZKHB+faqQNcLCcAC8KXB
rGzOQAlnA8Dy+azBAt60QJOJtz9+uJPB5KayQKJ9cECy3obBWOCjQJN2FUAu7pzBUweiQEYvj0An
+ZDBsceIQE9wYUCvhZjBt4XBQFW1AkGLU7XBgduxQIdDJ0HDdK3BsYyHQOngwD+huaTBPLKZQCJA
10AsP4jBtEufQEIAXcCqmaDBCPesQB75DkGk86vBlKuEQH4xskDglI3BZ3j4QNkDPkDhwJDBxuzb
QD0GzD+eF4HBIhLmQPLSScCnaa/BzA5zQLFqiUCgX6HBcliSQNOXjMD1f6jBSmPUQBoRGkCyr4rB
zQYQQZ4/BEETApTBYNPwQFDU5EBLpobBdLUAQeblEUHpFKXBLzvLQIKSpT+6ZLLBOPz0QHxeP7+b
0LbB3/FtQKchh7/GkJ7B4RSEQN84+kCTKZvBp6OZQDT3fj+WYY/BCavIQDb2ID+uGpfBWebEQFL6
jkDy74HBMmWXQI/BV0AdPYLB0U+/QJ9oL0CLY6HBmla9QHKvnEC4YZXB5ydbQNneRkAlCJTB7P2y
QLD2B0EN5rzBShzkQM/0BUHYgLXBKie8QNHi4kAyRbTBuHmjQJgJLEEOILXBBpOhQPmmL0Go4KbB
iQfUQG18K0GHcK3BKDaAQDyDB0DKz6vB2jFTQErFnT8KqKDBAUqsQLTWy0AzV4HBgByBQDru7UBl
gYXBDES7QPEDdsChRJzBdOCEQGleUsBa8JrBLpuKQCEpC0GIzKvBahFrQEUMvUAyFpTBI5/aQGo/
esAp0avBHt5RQFu4oECWzZ7BzAqLQD/hpsC5JaXB3tIAQViQAUFtIpLBOaDhQFSq7kCaGozBTjb3
QJOfC0Fu3ZvBGyLAQNDMSz7PXq/BpdPWQDnUeL8u6LHBtaWUQCd2h7//mqLBzIysQC0AAUHQnZnB
JMqeQCzUHD7YyqfBQ/y2QDQ17kAOzI/BbZ7MQFaIC0HapZ/B27KrQPa7DsCHAKXBYdDMQHnNC8Bx
u6zBsa24QDyUuz9C8ZPBhCyzQDJHdUBNeofBRIWlQDqzE0BAOp3B1NWhQFflj0BtxJHBt5mJQKj5
XkCM+ZjBDZOcQBXRJUHsZqnBYKe4QGnOBEEX1bLBDJGIQH1Otj9Je6TB7aKUQCQF2EBxRYnB0Suk
QManXsD6YJ7BlmrCQG8OFkHAXqrB6cqCQPx4skANBY/Bluz5QMI+R0D2ZJHBaD7gQKUN3j+/dYHB
lxXkQGbqUsDtDK/BzsRxQLBphkBG9KHBOSbEQJZlY8BFPpbBO/rWQNzsIEBPJIvBmiQRQWqzAUFn
S4/BTrTpQIxI30CXooTBFPUHQRB1E0FEd6DBuDvIQK3okD+bOLPB+fjvQMxdcb9V1LfBcUZ2QPMo
i7/ux5zB7weMQPOIAEFJiJzBP4qeQIW4fT/Gbo/B0rjNQMszMD91RpfBpVXEQJ2JkkCSpYLBI2iY
QFLwWkB5zoLBws+/QLfxLUCoEqLBl8e8QEdunUDGTpbBoT9eQA+nQ0DKSZTBDyCWQBUVLUHcQLHB
A/F/QHIpHUE3pqbBJqikQNpvMkFWnKPB1FixQGGJDEEwhrrBg6nUQAqh9EDQxrPBs/ucQA5+9kCc
PLDB/xCAQOBY/z/UsqvBXJJWQK9HlT8YDqDBTpyiQNUzzUAgqYHBt051QOPd7kDTpofBb0mEQLWv
W8A3q5rBLjCmQKzCi8DGiqPBurveQFwWH0HmAK3BHZhrQBv8vEB015XB0rDZQEbsgMAP+qrB4XtP
QO+GnUAcgZ/B1LW/QBmmisCoC5LBf+D5QCpWBkGxVJLBuWTeQHyl9EALrovBKf7pQPypD0Fx0pvB
xra6QE+VCr/iu6zB20/IQHNN8L+9eKvB8z+FQFZEYr8RvJ7B1kKjQIw7AUE28JfB0ISZQMi+Cb3t
OKbBKu6yQDSg70DjiY7B9GW+QNMHDUGjpp7BbZWTQChxDcCILJ3BL/W1QA5NLMAddaPBRrS6QMmc
vj+cwZTBqbe0QBYjdEAwAojB/K6oQKJcFUCvKJ7BzqaiQAszkEA7EpLBya2LQL7qX0DRypnB/13B
QD8tC0F2s7LBG/mwQLtnLkF/canB4ieOQHYQuj/4RqbBOmmUQDIX1UDn7YfBc3mDQIIaQsAoqJPB
5vmrQEHxFUHm/qjBbOmCQJwVsUAJhI7B5Iz7QCYTSUB24ZHBr0vhQH2z3T9FJ4LBQJDHQPAQesBT
T6HBZAl3QJafh0BdtKLBis8wQHoQLsBqypDBu33YQPp9IUD0y4vBTokNQRtlCEGjKJDBKYXqQJgs
5kB6cYTB1Q//QGLNGEGC7KDBEaLJQEw4uz3dqLLBytPgQKTTEcCvpbDB+udUQMzCA7+TJZrBQe+B
QB3D/kDGB5rB4vyfQGohgz93ZZDBVsbPQG9OND8B9pfB8NnFQIO6kUBSGYPBiziaQAujWEBxWIPB
q7fDQEP9MUBSg6LBlPm8QNHLn0AFbJbB99VhQMDDQkA0Y5XBwcizQGXAEUHEH7rBuQPkQCJCDkFA
gbLB2Je7QHem80AbaLLBZ3CjQDV0NEGg+7DB+/CfQMarNUEbp6LBdh7TQJGXMkERA6nBacCTQDLq
6z8vY67BsRNYQAi8xj/uQqTBxH+lQDXwx0BO+YDB7MBzQA5o6UBOKoXBtjuFQHQxg8DPwJXBWkKY
QO5dNcBLvIzBgpmJQKcvEkEeOqnBO/tqQFG1vUB6DpXBGMq3QNulisCoxpvBxNFTQNRKnkCsM6DB
pOwfQChIUMCt34rBLgz6QMzLBEFPNI/BCrLaQMsM8UCZ8InBmnDvQElbEEFtgJjBguPCQCAiyL4c
Zq/B8QjPQCAa4L/DOK/BaeqPQJqHUb92/6DBsuSlQDhtA0HnR5fBZxyjQBB6nz16R6jB4YywQOOT
70DQ+Y3BJkjFQJ7bD0H2kZzBcaGdQFIPCsDNZaDB1OS8QKhPKMBgoqfBtv3AQLNlxj+W35XBSia0
QEqGc0AddIjBG8CuQJJiGkBnJp/BySGjQHNkkEAplpLB4xSPQJLjX0B/sprBXKeUQORLK0FDQaXB
x1ixQPoKDEEh96/BP7qWQDmhxj9n2qfBT/6OQAEd1EDEiYjBDl6QQDKEQMBI75bBEte6QKf2G0HU
2abBZjmBQNn5r0Cai4/BEvX9QNzvU0ApypHBX2rkQN/Z4j/YzoLBopjLQNQVesAA16bBy/J8QCDI
h0Aqh6PBHvuzQOLDRcDAyY/BXk/bQCYoJkDHQozBciUNQWlYBUGDG4zBxeXiQC5X30Azz4LBktUD
QdenGUFSi5zB2trRQGN0lD4X97TBb0DmQCWjB8D75rTBcvJsQOHK8r7y1pvBL6aFQFPXAkFnYJrB
D6OmQFFegT9h8pHBUBbYQOl1Uz9fH5nBicTCQN5/kUCkFIPBgJCZQGJxU0DdToTByofJQFuHO0C9
FKPBI8O9QFomoUAtiJbBWZppQDdaPkBMnJbBS/yNQL++M0HmyqzBBYpwQDoRIkEr2aLBx3ucQHAB
N0G/+57BX96pQNnrFEF8VLfBrYnNQKDbAUH8UbHBFdyVQDP7AUHkv63BcnSdQEcf/z+BvK/B52do
QPpJzj+nNKbBKnKcQEQHx0DXF4HBMP1lQCoR6EDJpobBtuhpQAPiIsB815LBQXOHQOZ8gMCdrpnB
lfHWQJuIJUF6IKnBCulqQLODvEC+SpbBRjS8QGqzi8AAaKHBJ3RWQMP6nEBi+aDBCHGsQMGxZ8AQ
xYnB

> <OMEGA_E>
qvgHP3zcDz+kRBc/lKIDPwTjTz9gVEo/

> <OMEGA_NBR>
     30368

$$$$
50172242
  -OEChem-04172616093D

 69 71  0     1  0  0  0  0  0999 V2000
    5.9842   -0.6034  -22.4834 C   0  0  0  0  0  0  0  0  0  0  0  0
    7.7137    8.2449  -19.6675 C   0  0  0  0  0  0  0  0  0  0  0  0
    5.3424    0.5554  -22.0461 C   0  0  0  0  0  0  0  0  0  0  0  0
    7.1288    7.5978  -18.5790 C   0  0  0  0  0  0  0  0  0  0  0  0
    5.8085   -1.8010  -21.7903 C   0  0  0  0  0  0  0  0  0  0  0  0
    6.9143    8.9284  -20.5837 C   0  0  0  0  0  0  0  0  0  0  0  0
    4.3493   -0.6812  -20.2234 C   0  0  0  0  0  0  0  0  0  0  0  0
    4.9456    8.3177  -19.3227 C   0  0  0  0  0  0  0  0  0  0  0  0
    4.5249    0.5165  -20.9164 C   0  0  0  0  0  0  0  0  0  0  0  0
    5.7450    7.6343  -18.4064 C   0  0  0  0  0  0  0  0  0  0  0  0
    4.9911   -1.8399  -20.6606 C   0  0  0  0  0  0  0  0  0  0  0  0
    5.5305    8.9648  -20.4111 C   0  0  0  0  0  0  0  0  0  0  0  0
    5.0329    1.6366  -18.2612 C   0  0  0  0  0  0  0  0  0  0  0  0
    5.2118    3.9360  -16.7583 C   0  0  0  0  0  0  0  0  0  0  0  0
    4.7016    2.5404  -19.4481 C   0  0  2  0  0  0  0  0  0  0  0  0
    4.8669    4.6904  -18.0386 C   0  0  1  0  0  0  0  0  0  0  0  0
    4.0098    3.8526  -19.0113 C   0  0  1  0  0  0  0  0  0  0  0  0
    7.6945   -3.9409  -16.9704 C   0  0  0  0  0  0  0  0  0  0  0  0
    4.7655    9.1004  -22.8087 C   0  0  0  0  0  0  0  0  0  0  0  0
    4.9913   11.2038  -21.4368 C   0  0  0  0  0  0  0  0  0  0  0  0
    3.8346    1.7639  -20.4468 C   0  0  0  0  0  0  0  0  0  0  0  0
    5.1163    6.9373  -17.2341 C   0  0  0  0  0  0  0  0  0  0  0  0
    4.8037   -3.1209  -19.9203 C   0  0  0  0  0  0  0  0  0  0  0  0
    6.2208   -4.1740  -16.6890 C   0  0  0  0  0  0  0  0  0  0  0  0
    5.4103   -4.2861  -17.9712 C   0  0  0  0  0  0  0  0  0  0  0  0
    4.6765    9.6959  -21.3911 C   0  0  0  0  0  0  0  0  0  0  0  0
    4.1671    5.9201  -17.6516 N   0  0  0  0  0  0  0  0  0  0  0  0
    7.3422    2.7825  -17.7685 O   0  0  0  0  0  0  0  0  0  0  0  0
    6.1156    1.6441  -15.8816 O   0  0  0  0  0  0  0  0  0  0  0  0
    3.7681    4.6243  -20.1909 O   0  0  0  0  0  0  0  0  0  0  0  0
    5.5568   -3.0837  -18.7144 O   0  0  0  0  0  0  0  0  0  0  0  0
    6.1060    2.4385  -17.0950 S   0  0  0  0  0  0  0  0  0  0  0  0
    6.6205   -0.5730  -23.3630 H   0  0  0  0  0  0  0  0  0  0  0  0
    8.7911    8.2165  -19.8017 H   0  0  0  0  0  0  0  0  0  0  0  0
    5.4851    1.4842  -22.5921 H   0  0  0  0  0  0  0  0  0  0  0  0
    7.7594    7.0676  -17.8702 H   0  0  0  0  0  0  0  0  0  0  0  0
    6.3124   -2.6990  -22.1379 H   0  0  0  0  0  0  0  0  0  0  0  0
    7.3783    9.4297  -21.4289 H   0  0  0  0  0  0  0  0  0  0  0  0
    3.7122   -0.7116  -19.3427 H   0  0  0  0  0  0  0  0  0  0  0  0
    3.8669    8.3462  -19.1883 H   0  0  0  0  0  0  0  0  0  0  0  0
    4.1272    1.3417  -17.7201 H   0  0  0  0  0  0  0  0  0  0  0  0
    5.5483    0.7271  -18.5878 H   0  0  0  0  0  0  0  0  0  0  0  0
    5.8461    4.5380  -16.0981 H   0  0  0  0  0  0  0  0  0  0  0  0
    4.3110    3.6524  -16.2017 H   0  0  0  0  0  0  0  0  0  0  0  0
    5.6314    2.8017  -19.9717 H   0  0  0  0  0  0  0  0  0  0  0  0
    5.7901    4.9920  -18.5488 H   0  0  0  0  0  0  0  0  0  0  0  0
    3.0363    3.6175  -18.5611 H   0  0  0  0  0  0  0  0  0  0  0  0
    7.8414   -3.0338  -17.5650 H   0  0  0  0  0  0  0  0  0  0  0  0
    8.2598   -3.8363  -16.0389 H   0  0  0  0  0  0  0  0  0  0  0  0
    8.1124   -4.7839  -17.5286 H   0  0  0  0  0  0  0  0  0  0  0  0
    5.7965    9.1419  -23.1772 H   0  0  0  0  0  0  0  0  0  0  0  0
    4.4464    8.0525  -22.8242 H   0  0  0  0  0  0  0  0  0  0  0  0
    4.1358    9.6495  -23.5178 H   0  0  0  0  0  0  0  0  0  0  0  0
    6.0326   11.3870  -21.7242 H   0  0  0  0  0  0  0  0  0  0  0  0
    4.3479   11.7061  -22.1681 H   0  0  0  0  0  0  0  0  0  0  0  0
    4.8263   11.6800  -20.4639 H   0  0  0  0  0  0  0  0  0  0  0  0
    2.8820    1.5141  -19.9741 H   0  0  0  0  0  0  0  0  0  0  0  0
    3.6015    2.4100  -21.2969 H   0  0  0  0  0  0  0  0  0  0  0  0
    5.8809    6.4530  -16.6177 H   0  0  0  0  0  0  0  0  0  0  0  0
    4.5845    7.6485  -16.5934 H   0  0  0  0  0  0  0  0  0  0  0  0
    3.7469   -3.2859  -19.6707 H   0  0  0  0  0  0  0  0  0  0  0  0
    5.1386   -3.9797  -20.5186 H   0  0  0  0  0  0  0  0  0  0  0  0
    6.0952   -5.0862  -16.0931 H   0  0  0  0  0  0  0  0  0  0  0  0
    5.8255   -3.3565  -16.0738 H   0  0  0  0  0  0  0  0  0  0  0  0
    5.7643   -5.1206  -18.5854 H   0  0  0  0  0  0  0  0  0  0  0  0
    4.3476   -4.4323  -17.7507 H   0  0  0  0  0  0  0  0  0  0  0  0
    3.6129    9.6170  -21.0945 H   0  0  0  0  0  0  0  0  0  0  0  0
    3.5343    5.7067  -16.8852 H   0  0  0  0  0  0  0  0  0  0  0  0
    4.6350    4.7872  -20.5894 H   0  0  0  0  0  0  0  0  0  0  0  0
  1  3  1  0  0  0  0
  1  5  2  0  0  0  0
  2  4  2  0  0  0  0
  2  6  1  0  0  0  0
  3  9  2  0  0  0  0
  4 10  1  0  0  0  0
  5 11  1  0  0  0  0
  6 12  2  0  0  0  0
  7  9  1  0  0  0  0
  7 11  2  0  0  0  0
  8 10  2  0  0  0  0
  8 12  1  0  0  0  0
  9 21  1  0  0  0  0
 10 22  1  0  0  0  0
 11 23  1  0  0  0  0
 12 26  1  0  0  0  0
 13 15  1  0  0  0  0
 13 32  1  0  0  0  0
 14 16  1  0  0  0  0
 14 32  1  0  0  0  0
 15 17  1  0  0  0  0
 15 21  1  0  0  0  0
 16 17  1  0  0  0  0
 16 27  1  0  0  0  0
 17 30  1  0  0  0  0
 18 24  1  0  0  0  0
 19 26  1  0  0  0  0
 20 26  1  0  0  0  0
 22 27  1  0  0  0  0
 23 31  1  0  0  0  0
 24 25  1  0  0  0  0
 25 31  1  0  0  0  0
 28 32  2  0  0  0  0
 29 32  2  0  0  0  0
  1 33  1  0  0  0  0
  2 34  1  0  0  0  0
  3 35  1  0  0  0  0
  4 36  1  0  0  0  0
  5 37  1  0  0  0  0
  6 38  1  0  0  0  0
  7 39  1  0  0  0  0
  8 40  1  0  0  0  0
 13 41  1  0  0  0  0
 13 42  1  0  0  0  0
 14 43  1  0  0  0  0
 14 44  1  0  0  0  0
 15 45  1  0  0  0  0
 16 46  1  0  0  0  0
 17 47  1  0  0  0  0
 18 48  1  0  0  0  0
 18 49  1  0  0  0  0
 18 50  1  0  0  0  0
 19 51  1  0  0  0  0
 19 52  1  0  0  0  0
 19 53  1  0  0  0  0
 20 54  1  0  0  0  0
 20 55  1  0  0  0  0
 20 56  1  0  0  0  0
 21 57  1  0  0  0  0
 21 58  1  0  0  0  0
 22 59  1  0  0  0  0
 22 60  1  0  0  0  0
 23 61  1  0  0  0  0
 23 62  1  0  0  0  0
 24 63  1  0  0  0  0
 24 64  1  0  0  0  0
 25 65  1  0  0  0  0
 25 66  1  0  0  0  0
 26 67  1  0  0  0  0
 27 68  1  0  0  0  0
 30 69  1  0  0  0  0
M  END
> <OMEGA_C>
Vn6/QBh2Gr/o3bPBb9b2QDzrA0EMV53Bx/SqQFgsDj9+XrDBVh/kQCoh80DCoZTBY9+5QA+H5r+e
Uq7B3EHdQJXaDkFVq6TBbC2LQCRjLr+ByaHBlUKeQIEVBUHKlJrBSsyQQMU4BD/RVKfBQNe3QAhM
9EBoQJPB5bafQNiA67/xSKXBxvmwQARwD0H6SaPByA2hQId70T/8FpLB+samQKTme0AWEYbBUHOW
QBmVIkCylZvBrr2bQBEYlkAhT5DBXFCAQLqRdkAMF5jBjjn2QGA3fMB2w4fB0H6YQEGbEUFDeLbB
jLifQO9CM0GkfqvBl2p1QOHI4T8Tk6PB/rijQKf+3UBm34nBzbeZQHK8R8C2XJ/BcBDHQMKRhcAN
g4XB6yCtQAUoicAdxY/BuqWVQJwiG0H7IKvBJ1mFQIxxvUBvNo3BJPPqQOcTMkDbJY7BYLPDQIZx
0j8DG37BmyhxQOL5k0DhhqHBANGxQABcRcAgt5XBwmTDQNwPHECHwojBKtvTQIavEr9a57rBKKgM
QeB2A0HYaZ7BnIWvQLf4vT+4vLTBqUz4QIMp4kAd9o7BCv/JQEG8LMCFGrHBOBvsQDLgFkFZbqvB
8pNtQI0sNr/DvZrB63p3QAOKBUGogZnBJhKEQEK9qz+1wo3B94uxQDYkOj/Rs5TBmBO7QAU3kUDS
yIDBYvOJQIrAaUAUnYHBdjS0QFxOM0AJxp/BYki5QFu+n0DzY5TBqFJCQO6EZ0AcfZTByOz6QCop
QsA4hYzBQSgEQUyFdcChT4DBNswBQRwWmcCeOozBDn25QCBFEkEAa7nBTEmOQCLXAEHml7bBlFiE
QGJkGkF2JLzBYAvBQDsxNkE7y63ByCGLQChMO0FYWLHBHHGaQF7hOkEhtqPBXXM4QDrOwT/9yp/B
j39mQCY9GkAPYKrBgjC8QMV+zkAH8YTBWbSSQHjA9EBWv4TBzs1vQLBMUsCAXZ3BEG+kQEezfsAp
JqTBHAzDQNLBosClvoDBN2q6QGDQVsA+l4DB7nS4QEDco8D1rpTB2B+LQC3VjcCAAY7BHTpnQGff
GUGSwajBkDJiQKOdtkDTFIfBVFKUQGswmUAMt6TBGprEQGRvPL8jTLTBOGP+QMk1AEEXxJvB53Ww
QGLTzz6VVbDB/LbsQGh/6kCMG5PBYKi/QJ2B+r8QDK/B5PHjQPqeC0FotqLBPW6SQLHlZL/h36HB
mCumQN4cAUFoV5jB4V+XQB5kpz76H6fBCZ3AQBFn60D8ZJHBWpKmQLhOAsB01qXB79e3QNASDEHb
/6DBsBeqQE+SrT9Rt5HBfy2xQByTZkByHYXBpFyeQIwqE0AP4JrBAe6kQCbOjEAGD4/BWJ6IQDwS
ZkB53JbBXEYAQXhCiMC0jonBAh+dQM2JD0G18bPBvpalQPRsMEFwdKjBvbWBQBs4xz8C3qLBM56t
QOXK00DHEYjBVUyhQNXjVcCyOqDBmq3RQEoakMDnBofBe422QCpSksCQHZHBvpebQL5HGEEibqjB
n+KOQHSrs0CcdovBaGX0QMQ8H0ARAY7BEPXOQMBMpD9w5n3BoYd/QPf+jEAJBaDBWoS6QPQVVsAu
wpbB7n7NQCCgB0A4bYjBOyHYQKaqLL/Fd7vBnVwQQSC3/0A4GZ3BTn60QFgzrT/aebTBi8cAQWHL
2ECEvI3BXHfPQNPfNcCoMLLBAPzxQFkdFEE0cKnBi8F9QN2vdL/psZrBaMqDQDR3AUHbAZfBvqKN
QHVIhT+bQo3BQkq6QPwV6z5mspTBahPGQBrZhUBypH/BQeSUQIQeU0CIiIDBZpu7QLQgJUCxNJ/B
WvnBQNIOl0DrRJPBLNBTQG7wVUCiGZPB+FUCQRgtVcAtGI7BdsAJQWjohcBbN4LBLLQGQTuWosAY
WY7B4sC9QEtuEEGXHrfBSeySQICQ/UDuR7TB2k2IQBuxGEEBULnB7Z/GQDKKM0H+8arBAFCQQIPX
OEGtAq7BKjehQE6AN0GMgqDBomBHQIH7pD9d757BC+NyQH7GDkDFbanBkqnGQDSqw0CldIPBsDGd
QPbN6UAaoYLB73d/QCYbYcA+CJ7BEnerQGS8hcBuU6XBhj3OQDrvrcBpfILBWpjFQPVNbcAfy4HB
+VDBQOFQrMAZVpbB4MWUQNxKl8D4JI/B87RzQOnTFkEb1aXBX7x2QIr4q0CrP4XBOB6bQGWwkkDm
XKPB2rrXQCjPGr+kI7TBWzMCQe1IAEFwY5fBcCDCQFYyEj9ghLHBmdjoQLCl60B+VpDBLiLLQMhw
6L/nlq/BNcDzQBZ6DEGXwZ/BvVWTQLzxLL+azKXBtACsQNK/A0FhBZrBYu6fQKAkCT9cWarBL6e8
QAod70Ahp5HBIPCoQKP37L/ka6jByo7HQME1DkE5EqHBMqecQJYAwz8fVJTBlN6ZQB0DcEBSZofB
pvGcQB9MH0DQzZ3B0T+aQMlGkkCbr5HB8wSGQFCJdEAIOJvBO2wGQAoOOMDiOYrBhNOaQDZFLkGl
BabBuGmbQGG9DUFx87HBprOIQF6Z5j+MiKfBTgOfQAKU2ECPDorBrXybQNFlScChj6PBZbVTQMKK
csAaWInB13F5QPi0g8DrQJTB1Me1QFJAG0EWBarByVeDQFdVukAniY/ByxfiQAgWIUCpl4vBOrWr
QPSFsD8uk3/B4daIQIrGlEDFhKTBgAyKQFoYOsBCOpnBTAW2QEz4DUB85IjBzFnyQBa7E79zuLnB
U2cTQe3e/UAJXZbBjinMQJ9TwT93GbXBnBn2QIW22EBZ14nBIiXcQHyKLsBWrbHB6LkEQbSSFEFW
NqXBSFxxQGIINL/4NaDBko2JQLoZBUEgDJvBxdp3QPxJoT+A/5HBhNetQFBrGT9PPJbBfkepQGxF
iUA30IDB2mFyQDjSX0Bc74TBQju+QIDhLUAw95/B/ki7QELZmkBqvZPBhPlHQLn1Z0BGs5nBRmSp
P8nmVMC4Oo/Bsf7VP6b8KsC9VYLBg8MYQKne9b8Z1I3B4X5/QLyVKEHYO6HBSsitQEwWOUExA6HB
EOeNQDOqN0FzrqzBpjGAQLwHBkHx/a3BotKOQPDYF0H4YrjBvtOuQHoiAUHpobXBRT5OQE5Pyz9E
zqXBIAqJQLR2H0D9T67BuDWxQDj6xkDz/4PBYZSKQNJ370CZ04XBYDCDQGF1acAKfKjB3rW2QLZ5
dcA6xqLBcVuCQPiEVMCdToTB3a9BQOv9lsB+QYXB9IaYQFbMmMADeZPBaNxJQCgyk8CgY5nBlTrQ
QNxKIkE4vq7Bp+NSQNm8s0BF5orBMQ+nQEfjmEAX36XBBcPWQHnuEb/QE7TBxzYFQcAQ/kBh8JXB
zO/BQDgsGj8XALHB2MLvQBag6EDoxY7Bj33KQN555b/sq6/BusH4QMi+C0HJ+Z3BkJKUQI7DK7+R
HaXBzcOxQD4FA0HKrZfB/9egQKhFDT96hanBnW/DQFyd7EBJpI/BwmWpQCLt679PMajBgG7MQGu9
DUEq2J7ByjahQPqUuz8/SJPBKBWhQGJ9aUBC3YXBuF2gQHicHUAei5zB6CegQMUdkECk94/BZUOK
QNSmckAZdZnBLgYQQHhLPMBWR4nBeJqfQLs/LkEs76LBSMCdQB1gDkF2Sq/BbHOKQDUu6D9bN6bB
vMCmQHyF1UAA7IfBEEucQC2qScCDfKPB6vNcQBeed8BC9ojBByZ/QJk4hcD/G5TBFpC5QHNWG0F3
cKfBBvuJQDUfuEBCVY3BtjvoQIBBGkBrAYvBGFSzQCSvnz884H3BQ+2LQFvOlEDCmKLBhYKMQJRO
PMBR8pjBDIO8QPpSB0Cy84fBM4bwQHrbB7+V5rnB7ncWQYP1+kDuQpXBPLbLQOJ4xj8/ebTBq879
QEjh1EBbiYjB7OPaQGzgLMBAHbLBp+IGQT8KFEFOhqPBAo51QCDaNb/lSJ/BQjaPQF6TBEF4W5jB
CsmAQOIAmj/DspDBfdCxQJ0jCz+FjJXBjKWxQOknhUAnon7BlrmAQANWWUAFJYPB6l7BQPgULEC5
+J7BEvDAQD+fmEDnRpLBk9pQQOJWZkBlqJfBuhO5P4WdV8C6Io7BxkfuP6i0MMCzOIHBX9khQIYn
/b+gwozBfimFQGFsKEEG+J3BmYOzQDi1OEFi953BdNyRQG8OOEFkVqnBIAGDQHaSBkH4LavBymOQ
QNnhGEHWdrXBIVmwQB/kAUF+UrPBZi9SQHhQzT82N6TBQPmJQEOzIUDw16zBOK+5QDAdw0CpKYLB
vjKTQMMe7EAeWYPBqByDQKU5aMCkR6jB62a3QKZddsCPG6PBp96HQGYfW8BTEITBTZxLQATimcCn
/YTBtUWbQPygmsBWvJPBZL5NQAjxk8CrHZnBGmnTQIiEIkHIUKzBs3thQBJAsUCwf4jBSvWpQFTN
mEB7NaTBzp++QP8b3b4G/bPB5vf1QL2pBkEqdp3BPhaqQHAUOj+cfbDBzUDjQCye+EDfwJTB2gC5
QAOT0L+8ca7BU2PcQBaZEUFzyqTB406KQAx7Ar+e6KHBDGSdQALUB0Hns5rBwu2PQN0gMD/uc6fB
uPi2QAzJ+UCEX5PBXNieQMyM1b8OaKXBPhuwQIUuEkEYaaPBQC+gQJNv5z8ZNpLBceilQFVwg0Az
MIbByJSVQB+PLUDPtJvBJt+aQBSVm0A+bpDBp+N+QODFgEApNpjBBlv1QFo9ccCT4ofBR6CXQMNZ
FEFgl7bBBNqeQHEBNkHCnavBhq1zQO289z8xsqPBdtqiQKp740CD/onBRNmYQGzCPMDTe5/B6DHG
QL8UgMArooXBYkKsQAKrg8A65I/BMseUQB3hHUEYQKvBnnqEQI7uwkCNVY3BnBTqQO0NPUD5RI7B
19TCQJJl6D8+WX7BimtvQOZ2mUD+paHBePKwQPphOsA+1pXBOobCQOIJJ0Ck4YjBofzSQNyOzb54
BrvB5DgMQWI1BkH1iJ7BFKeuQMPs0z/W27TBIG73QIam50A6FY/BgSDJQDvCIcCjObHBsDzrQLSe
GUF2javB4dZrQHVECr/h3JrB2r11QIRICEHGoJnBnTODQE6xwT/T4Y3Bbq2wQE4MZj/v0pTBEDW6
QAi0lkDv54DB2RSJQJC6dEAyvIHB7lWzQGJIPkAm5Z/B2mm4QF47pUARg5TBl5VAQPR+ckA5nJTB
QA76QCQvN8BWpIzB/LgDQUaLasC+boDB8lwBQRmZk8C7WYzBhp64QKIDFUEdirnBxGqNQKSVA0EE
t7bBDHqDQOMiHUGUQ7zB2CzAQLzvOEFY6q3BP0OKQKoKPkF2d7HBlJKZQOCfPUE+1aPBTLY2QEbC
1z8b6p/BfsJkQCw3JUAsf6rB+lG7QMj700AkEIXB0NWRQHs9+kBz3oTBvRBuQKlSR8CdfJ3BiJCj
QEG5c8BHRaTBky3CQM9EncDC3YDBrou5QFrWS8BbtoDBZZa3QDxfnsASzpTBT0GKQCpYiMCeII7B
DH1lQOidHEGv4KjBf3VgQKYavEDwM4fBzHOTQG6tnkAp1qTB

> <OMEGA_E>
zQElwULEI8FSXCLB8qkcwT+dIME=

> <OMEGA_NBR>
     36116

$$$$
50172250
  -OEChem-04172616093D

 63 65  0     1  0  0  0  0  0999 V2000
    7.8647    8.2483  -18.4917 C   0  0  0  0  0  0  0  0  0  0  0  0
    7.0106    7.5668  -17.6000 C   0  0  0  0  0  0  0  0  0  0  0  0
    7.3537    8.7702  -19.6998 C   0  0  0  0  0  0  0  0  0  0  0  0
    6.1069    0.2211  -21.9171 C   0  0  0  0  0  0  0  0  0  0  0  0
    6.8026   -0.9684  -22.1948 C   0  0  0  0  0  0  0  0  0  0  0  0
    4.6111   -1.0079  -20.4260 C   0  0  0  0  0  0  0  0  0  0  0  0
    5.1371    7.9471  -19.1162 C   0  0  0  0  0  0  0  0  0  0  0  0
    5.0056    0.2001  -21.0384 C   0  0  0  0  0  0  0  0  0  0  0  0
    5.6404    7.4295  -17.9128 C   0  0  0  0  0  0  0  0  0  0  0  0
    5.9854    8.5965  -20.0249 C   0  0  0  0  0  0  0  0  0  0  0  0
    5.3035   -2.2041  -20.6985 C   0  0  0  0  0  0  0  0  0  0  0  0
    6.4098   -2.1785  -21.5861 C   0  0  0  0  0  0  0  0  0  0  0  0
    5.7577    1.4593  -18.5369 C   0  0  0  0  0  0  0  0  0  0  0  0
    5.6249    3.7795  -16.9312 C   0  0  0  0  0  0  0  0  0  0  0  0
    5.2014    2.3405  -19.6897 C   0  0  2  0  0  0  0  0  0  0  0  0
    5.0761    4.4836  -18.1888 C   0  0  1  0  0  0  0  0  0  0  0  0
    4.3260    3.5096  -19.1418 C   0  0  1  0  0  0  0  0  0  0  0  0
    5.6244   -3.5698  -18.6028 C   0  0  0  0  0  0  0  0  0  0  0  0
    6.1883    8.5683  -22.5382 C   0  0  0  0  0  0  0  0  0  0  0  0
    5.3367   10.6349  -21.3403 C   0  0  0  0  0  0  0  0  0  0  0  0
    4.3235    1.4902  -20.6525 C   0  0  0  0  0  0  0  0  0  0  0  0
    4.9019   -3.4762  -19.9602 C   0  0  0  0  0  0  0  0  0  0  0  0
    4.6942    6.6780  -17.0105 C   0  0  0  0  0  0  0  0  0  0  0  0
    5.3908    9.0986  -21.3325 C   0  0  0  0  0  0  0  0  0  0  0  0
    4.1066    5.5295  -17.7553 N   0  0  0  0  0  0  0  0  0  0  0  0
    7.8248    3.0568  -18.1705 O   0  0  0  0  0  0  0  0  0  0  0  0
    6.9741    1.6567  -16.2110 O   0  0  0  0  0  0  0  0  0  0  0  0
    7.1146   -3.3091  -21.8558 O   0  0  0  0  0  0  0  0  0  0  0  0
    3.8386    4.2691  -20.2519 O   0  0  0  0  0  0  0  0  0  0  0  0
    6.7152    2.4620  -17.4108 S   0  0  0  0  0  0  0  0  0  0  0  0
    8.9102    8.3709  -18.2502 H   0  0  0  0  0  0  0  0  0  0  0  0
    7.4023    7.1523  -16.6828 H   0  0  0  0  0  0  0  0  0  0  0  0
    8.0060    9.3021  -20.3767 H   0  0  0  0  0  0  0  0  0  0  0  0
    6.4157    1.1486  -22.3760 H   0  0  0  0  0  0  0  0  0  0  0  0
    7.6403   -0.9555  -22.8763 H   0  0  0  0  0  0  0  0  0  0  0  0
    3.7734   -1.0158  -19.7444 H   0  0  0  0  0  0  0  0  0  0  0  0
    4.0865    7.8443  -19.3448 H   0  0  0  0  0  0  0  0  0  0  0  0
    4.9196    0.9993  -17.9928 H   0  0  0  0  0  0  0  0  0  0  0  0
    6.3987    0.6706  -18.9577 H   0  0  0  0  0  0  0  0  0  0  0  0
    6.1772    4.5060  -16.3171 H   0  0  0  0  0  0  0  0  0  0  0  0
    4.7880    3.3677  -16.3482 H   0  0  0  0  0  0  0  0  0  0  0  0
    6.0450    2.7626  -20.2555 H   0  0  0  0  0  0  0  0  0  0  0  0
    5.9095    4.9493  -18.7353 H   0  0  0  0  0  0  0  0  0  0  0  0
    3.4807    3.0734  -18.5895 H   0  0  0  0  0  0  0  0  0  0  0  0
    5.3207   -4.4932  -18.0880 H   0  0  0  0  0  0  0  0  0  0  0  0
    6.7121   -3.5823  -18.7666 H   0  0  0  0  0  0  0  0  0  0  0  0
    5.3567   -2.7004  -17.9844 H   0  0  0  0  0  0  0  0  0  0  0  0
    5.7395    8.9445  -23.4694 H   0  0  0  0  0  0  0  0  0  0  0  0
    7.2306    8.9127  -22.4683 H   0  0  0  0  0  0  0  0  0  0  0  0
    6.1647    7.4685  -22.5381 H   0  0  0  0  0  0  0  0  0  0  0  0
    4.9052   10.9823  -22.2906 H   0  0  0  0  0  0  0  0  0  0  0  0
    4.7121   10.9839  -20.5048 H   0  0  0  0  0  0  0  0  0  0  0  0
    6.3543   11.0381  -21.2307 H   0  0  0  0  0  0  0  0  0  0  0  0
    4.1247    2.0744  -21.5631 H   0  0  0  0  0  0  0  0  0  0  0  0
    3.3722    1.2547  -20.1530 H   0  0  0  0  0  0  0  0  0  0  0  0
    3.8150   -3.4675  -19.7907 H   0  0  0  0  0  0  0  0  0  0  0  0
    5.1704   -4.3494  -20.5730 H   0  0  0  0  0  0  0  0  0  0  0  0
    5.2428    6.3044  -16.1333 H   0  0  0  0  0  0  0  0  0  0  0  0
    3.8895    7.3514  -16.6804 H   0  0  0  0  0  0  0  0  0  0  0  0
    4.3610    8.7200  -21.4114 H   0  0  0  0  0  0  0  0  0  0  0  0
    3.6561    5.8898  -18.5721 H   0  0  0  0  0  0  0  0  0  0  0  0
    6.7375   -4.0391  -21.3789 H   0  0  0  0  0  0  0  0  0  0  0  0
    3.3026    4.9864  -19.9345 H   0  0  0  0  0  0  0  0  0  0  0  0
  1  2  2  0  0  0  0
  1  3  1  0  0  0  0
  2  9  1  0  0  0  0
  3 10  2  0  0  0  0
  4  5  2  0  0  0  0
  4  8  1  0  0  0  0
  5 12  1  0  0  0  0
  6  8  2  0  0  0  0
  6 11  1  0  0  0  0
  7  9  2  0  0  0  0
  7 10  1  0  0  0  0
  8 21  1  0  0  0  0
  9 23  1  0  0  0  0
 10 24  1  0  0  0  0
 11 12  2  0  0  0  0
 11 22  1  0  0  0  0
 12 28  1  0  0  0  0
 13 15  1  0  0  0  0
 13 30  1  0  0  0  0
 14 16  1  0  0  0  0
 14 30  1  0  0  0  0
 15 17  1  0  0  0  0
 15 21  1  0  0  0  0
 16 17  1  0  0  0  0
 16 25  1  0  0  0  0
 17 29  1  0  0  0  0
 18 22  1  0  0  0  0
 19 24  1  0  0  0  0
 20 24  1  0  0  0  0
 23 25  1  0  0  0  0
 26 30  2  0  0  0  0
 27 30  2  0  0  0  0
  1 31  1  0  0  0  0
  2 32  1  0  0  0  0
  3 33  1  0  0  0  0
  4 34  1  0  0  0  0
  5 35  1  0  0  0  0
  6 36  1  0  0  0  0
  7 37  1  0  0  0  0
 13 38  1  0  0  0  0
 13 39  1  0  0  0  0
 14 40  1  0  0  0  0
 14 41  1  0  0  0  0
 15 42  1  0  0  0  0
 16 43  1  0  0  0  0
 17 44  1  0  0  0  0
 18 45  1  0  0  0  0
 18 46  1  0  0  0  0
 18 47  1  0  0  0  0
 19 48  1  0  0  0  0
 19 49  1  0  0  0  0
 19 50  1  0  0  0  0
 20 51  1  0  0  0  0
 20 52  1  0  0  0  0
 20 53  1  0  0  0  0
 21 54  1  0  0  0  0
 21 55  1  0  0  0  0
 22 56  1  0  0  0  0
 22 57  1  0  0  0  0
 23 58  1  0  0  0  0
 23 59  1  0  0  0  0
 24 60  1  0  0  0  0
 25 61  1  0  0  0  0
 28 62  1  0  0  0  0
 29 63  1  0  0  0  0
M  END
> <OMEGA_C>
tqv7QPX4A0EK75PBjFbgQHQj8kC5zIzBwVHrQLNSDEFGmZ3BV2vDQOJcYj4pVq/B3q7ZQM3nd78C
j7HBxo2TQJcDgb92aKPBu2KkQJhO/kAB7pjBti2gQBzxTD66TqjBQX60QLW+7UBaTY/B/oe/QGeL
CUH9MqDBS7apQMYQDcCBlqXBaB3NQM5sC8BWsKzB4D64QAPKuj+PS5TB/v6zQO3jcUAwc4fByHGm
QGPKFUCLhJ3BfG+iQJt5j0CwgpHBd26KQMidYEB/IpnBSPuzQIh3ZMCL0pTBOwbGQJsXCUE1TrTB
acaqQJ0oKkHyuKrB31mKQNq9vj9aOKXBO9ycQN96XsBprp/BJjeWQGay1UCaFYjBXIGsQLSTEUEK
qarBnWmDQHjxsEDBCo7BamT6QI6iQ0AaXZHB2ivfQCYP1D8ksIHBvqrjQErIU8CY2K7Bwqt1QLOc
iEDxA6LB0OLWQOSRHUA4SYvBMJAOQTbvBUF+AJLBjt/sQGXf5EB6doXBgRgAQTfVFEFnA6PBQU3N
QIkGkz8QArPBgn30QK+edL+8ArfBKX9xQMQEgr9x9J3B2sSCQLoE+0AbwprBeW2dQI/Pfz9H8Y/B
zsHMQE2sKz9wqZfBZ6vFQFoxkEBniYLBATeZQEeIV0ATyYLBznDBQA3PMEAxC6LBThq9QF5gnkDy
4ZXBdMNeQPCxREA3t5TB6kKqQIDIj8BAtJDBYsnWQC1EZcAVIpbBX2qrQM/SLMAI4I/BV6q3QHsc
D0FOwbvBH2HnQG2aDkEmv7PBXEXFQBP+7kAfTrTBc/ecQK63L0EuU7LBjcmWQCe+L0HcCaTBb1bL
QNubMEF+2KnBNf2DQDHDBEAxgazBgtFXQDSZoD9DOaHBtyl0QNnqXcBqU57B3nOlQBwui8B3laTB
sMSnQNe9yUAHEYHBSO54QNc+60BmcYXBZY2LQAGFC0GWSqvBxv1pQBp5vECdk5TB3pnXQJRAgcAG
CKvBxl1TQHuQn0DveZ/Bz5AAQVf+AUFXKZLB0kzhQGNC70AgIIzBQpD2QH/eC0EK7pvBt8PCQIlF
WT6vJq/BigPZQLdGeL95m7HBXnmUQKP3hL+k+6LBZR2sQNzhAEEkr5nB+1OgQMdmMz674qfBr6+2
QN9V7kCK1I/BhgfMQHdzC0Hpvp/BYYqqQNOVDsAUa6XBASrNQI0EDMApwKzBEiO5QOyBvD9D8pPB
6iCzQJ1hdUCEaIfB83umQN7BFEBuPp3BzAqiQA0IkEAPtpHBySWKQKpXX0AX/ZjBM2y1QEzuZcDP
s5TBo1GcQO7DJUFoi6nB5Qu3QMhNBEFD0rLB8CCKQBy3uT+4s6TBaFeeQE+SYMAtkZ/B+32UQOcc
2EDbRInBlqzBQMu5FUGQg6rBOc+CQENzskAL/Y7B5Ev6QMqNR0AIKZHBlOHfQE3G3T/JVoHB6I/j
QIACVMBwLK/BGNxyQKiyhkDQ86HBFRDXQBYUIUDjBYvBGN0QQcFfAkHxS4/B34DpQL0I4EAnpYTB
Co8HQdfPE0GoiKDBtAnMQGKtkj9v0rLBK0DzQKgMcr9JOrfB8K10QE5Kh7/UVJ3Bb5yLQH0/AEFN
mpzBZ8SeQKkgfz+hiI/BNkzOQAJgMj9DQJfB7yXEQM2PkkCsiYLBFD6YQGfzWkDAyYLB7wrBQLOy
L0CT76HBUBS9QNm5nUDOL5bBDGJfQPpmQ0AnWpTB7TasQBC7kMCKm5DBPT3YQDBtZcAG/5XBRE+s
QH62LsDfvY/BmbKVQGzcLEH8bLHB5Dp/QP1hHUFlpqbBzAOlQBt8MkE03aPBMqKvQHjcC0G3jLrB
UbTSQGwp80AOw7PB5jabQNUM9kASFbDBqZKCQEalAUCZ9qvBoJ1YQJOMmT8Ze6DBshl3QDNKYcCg
O57B0nqnQHMAjMDIfKTBoY+iQJRxzUD7p4HBz9d0QLrd7kDNp4fB2B3eQMl7HkEmSq3Bl4FrQDrT
vEDz0JXBjgnYQGmSgcBkVavBuxNQQFSZnUCzfJ/BENf5QEzRBEFsPI7BkwTbQD7A70COLonBvJvu
QL8TEUGPQpfBf3fGQABMfTsPj7HBOJLYQN6Yo79Ws7LBZr6WQKr3XL8jr6PBdJalQJ9ZA0GkPZbB
VGqlQDAoWz5sDqrBT8qwQBpJ7kA8KY3BXWPEQI2IEEGfSZvBBvepQOMdCcDGe6TB787KQPzDFcDm
GqzBF8nAQH5bxz+D2pbBjJu0QHNgb0C+qojBdiqtQJ9DHUC7tJ/BVOmiQALcj0DigZLB2AeOQE1b
YUA+wprBhnJ2QLJyQMBgppTB0auRQFHGK0G9YaPBenqxQN1SDkGPzK7Bx42TQEozzj8oIqjBNNOe
QNEtU8Be3JzBb5uPQNoU0kAj0YfBbj25QA54HUGWQ6XB9kmBQJ78rkAaDY/BMNr9QN8eU0A1b5LB
wEHlQAbC1j+56IPBHt/eQFPaYsDDu6zBY8J4QB6oiUCyQ6PBA4/bQJVuI0AqBY3BeRQNQYJYBUH7
L4vBk7HjQP8A3UBQQYLBATMDQavyGkFXH5vBC9rRQNPQUj95abbBxQ/xQIF7ub8qpLjB/0d5QCRB
Nb/IKJ7BD2CFQHGgAkGNWZnBJhenQPC5ez+G+JLBUOTXQOZIXT8WgZrB0YvDQJaWjkDpH4PBPFGa
QPbpTUAsk4TBHDLHQEMNP0Ak3KPBmUi9QE8SoUBScJbBeWxoQCWcPkB0pZbBUtJrQLFiecDTpY/B
3eGEQAVmCsDyjY/BR/A6QKorMMCB45jBl4uKQCfZNEFvtarBsxNsQMmyIUHGTKHBKTuYQFP4NkHs
ypzB63ipQOjHF0EY8rXB1JbOQHzrBEFwVrDBzNWWQCp0A0FC66zBLtmTQEfgCUDSyK/B+MdkQFll
wT9IS6XBGZKUQFoAhcAEwKHB0vu7QA47ZMB1apjBWJedQKf3w0CFjYDBB4xnQELG5UBSoYXBXI3U
QHrdJ0F1NqfBqBVqQOtwvEDmoZXBqg3SQKTVhMD31qfBY9VSQDZ3nkChZaDB+rfzQMqRB0EUFpDB
1SnZQGLR80BxB4rBenTjQL7YEUEkSZnB1B7IQACIhrpXrbHBbKrZQFTXpb+yarLBDjOVQFJ6T79w
TaTBMSeeQIMEAUEkTpbBPdelQLDjez6lmKrBPDKuQGR67UD1KY3BJ324QKZiDkH3d5zB/8OnQEKM
BsDGsKTBqRjKQDVeFcAq1KvBo6HAQAgRxj8gSJfBQnC1QJpCbEAFz4jB3vStQFSTHkDFEKDBt1Kj
QJgej0DUbpLBSLmOQPAtYkAbBZvBzL5nQHjbO8DexJXBuW6/QCNiEUEWdbDB3dSkQNrvMEFwk6XB
ViiVQFjs1D+b3ajB+vmaQPGETsB/6pzBh8qQQASyz0ANIofB9NelQPRpGEF7iabBJ5SBQFLdrEBK
Y47B+Fj+QAApUEBOmpLBLM/kQFS4zj+ER4TBaOrdQOTkYsDU8avBn1R8QAZci0Ata6PBNLfbQJyR
IEAQUI3B50AKQWEqCkEGr43BrZ/lQPPU40DsB4PBqcT3QKBZHEES5p3BZN7UQFHXTD/7g7bBoxzz
QKNGv7/8CrjB5CB0QFIrIb+3Jp/BsGh6QF86/UCFnpjBOmqmQKIEfD9mg5PBRl3XQOdKWD+w9prB
Ps7EQBGVjECrOYPBJjmbQA2tSkC8s4TBcXzIQELxQEAm8KPBuUG9QCyNoUCOMpbBk7poQN0bP0Bi
LJfBuU1bQK1Cc8ArkZDBR690QBcoA8Boz5DBHG0vQF7QL8B81JrBS4uxQEXEGEHLprfBuvDgQPN+
FkEMmq/BjBu+QDi4/0DvNLHBQ0SXQOnXN0Hn7KzBV/CQQDWJNUGSsJ7B0ZHFQEj6NkEabKTBarOX
QHpbDUBle7DBTbBmQIrJzD8ueabB29aTQJ38g8CdraHB8He2QPNQW8CJqJfBIDOiQAiIwUCHWoDB
wzVqQMLQ4UCRIYTBWL6EQCy5EkETeKfB5DFnQE+RukBTt5TBndPPQGVHhMARIafBVlpWQMwEoECu
fqDB

> <OMEGA_E>
xDTyPsTN6j6wjC4/xBs1Pw==

> <OMEGA_NBR>
     40480

$$$$
50172241
  -OEChem-04172616093D

 66 68  0     1  0  0  0  0  0999 V2000
    7.8758    8.2239  -18.5177 C   0  0  0  0  0  0  0  0  0  0  0  0
    7.0199    7.5500  -17.6222 C   0  0  0  0  0  0  0  0  0  0  0  0
    7.3612    8.7612  -19.7172 C   0  0  0  0  0  0  0  0  0  0  0  0
    6.1529    0.2309  -21.8900 C   0  0  0  0  0  0  0  0  0  0  0  0
    6.8440   -0.9617  -22.1618 C   0  0  0  0  0  0  0  0  0  0  0  0
    4.6049   -1.0017  -20.4579 C   0  0  0  0  0  0  0  0  0  0  0  0
    5.1382    7.9629  -19.1203 C   0  0  0  0  0  0  0  0  0  0  0  0
    5.0271    0.2091  -21.0445 C   0  0  0  0  0  0  0  0  0  0  0  0
    5.6459    7.4293  -17.9250 C   0  0  0  0  0  0  0  0  0  0  0  0
    5.9855    8.6202  -20.0255 C   0  0  0  0  0  0  0  0  0  0  0  0
    5.3069   -2.2002  -20.6990 C   0  0  0  0  0  0  0  0  0  0  0  0
    6.4291   -2.1744  -21.5727 C   0  0  0  0  0  0  0  0  0  0  0  0
    5.7665    1.4619  -18.5442 C   0  0  0  0  0  0  0  0  0  0  0  0
    5.6113    3.7704  -16.9214 C   0  0  0  0  0  0  0  0  0  0  0  0
    5.2046    2.3483  -19.6914 C   0  0  2  0  0  0  0  0  0  0  0  0
    5.0689    4.4793  -18.1792 C   0  0  1  0  0  0  0  0  0  0  0  0
    4.3193    3.5052  -19.1324 C   0  0  1  0  0  0  0  0  0  0  0  0
    3.7965   -3.0286  -17.7098 C   0  0  0  0  0  0  0  0  0  0  0  0
    6.0606    8.4551  -22.5322 C   0  0  0  0  0  0  0  0  0  0  0  0
    5.5356   10.6697  -21.4143 C   0  0  0  0  0  0  0  0  0  0  0  0
    4.3391    1.4994  -20.6675 C   0  0  0  0  0  0  0  0  0  0  0  0
    4.8376   -3.4973  -20.0283 C   0  0  0  0  0  0  0  0  0  0  0  0
    4.7006    6.6830  -17.0164 C   0  0  0  0  0  0  0  0  0  0  0  0
    5.0472   -3.5028  -18.4873 C   0  0  0  0  0  0  0  0  0  0  0  0
    5.3924    9.1408  -21.3264 C   0  0  0  0  0  0  0  0  0  0  0  0
    4.1054    5.5321  -17.7509 N   0  0  0  0  0  0  0  0  0  0  0  0
    7.8200    3.0744  -18.1603 O   0  0  0  0  0  0  0  0  0  0  0  0
    6.9775    1.6517  -16.2140 O   0  0  0  0  0  0  0  0  0  0  0  0
    7.1206   -3.3074  -21.8672 O   0  0  0  0  0  0  0  0  0  0  0  0
    3.8161    4.2668  -20.2334 O   0  0  0  0  0  0  0  0  0  0  0  0
    6.7138    2.4644  -17.4077 S   0  0  0  0  0  0  0  0  0  0  0  0
    8.9253    8.3290  -18.2856 H   0  0  0  0  0  0  0  0  0  0  0  0
    7.4133    7.1282  -16.7092 H   0  0  0  0  0  0  0  0  0  0  0  0
    8.0168    9.2803  -20.4007 H   0  0  0  0  0  0  0  0  0  0  0  0
    6.4840    1.1610  -22.3279 H   0  0  0  0  0  0  0  0  0  0  0  0
    7.6966   -0.9499  -22.8246 H   0  0  0  0  0  0  0  0  0  0  0  0
    3.7352   -1.0109  -19.8176 H   0  0  0  0  0  0  0  0  0  0  0  0
    4.0862    7.8666  -19.3451 H   0  0  0  0  0  0  0  0  0  0  0  0
    4.9313    0.9904  -18.0055 H   0  0  0  0  0  0  0  0  0  0  0  0
    6.4149    0.6821  -18.9702 H   0  0  0  0  0  0  0  0  0  0  0  0
    6.1542    4.4954  -16.2972 H   0  0  0  0  0  0  0  0  0  0  0  0
    4.7728    3.3483  -16.3480 H   0  0  0  0  0  0  0  0  0  0  0  0
    6.0465    2.7838  -20.2497 H   0  0  0  0  0  0  0  0  0  0  0  0
    5.9067    4.9390  -18.7239 H   0  0  0  0  0  0  0  0  0  0  0  0
    3.4829    3.0571  -18.5760 H   0  0  0  0  0  0  0  0  0  0  0  0
    4.0041   -3.0538  -16.6299 H   0  0  0  0  0  0  0  0  0  0  0  0
    3.5456   -2.0008  -18.0110 H   0  0  0  0  0  0  0  0  0  0  0  0
    2.9502   -3.6939  -17.9360 H   0  0  0  0  0  0  0  0  0  0  0  0
    5.6217    8.8415  -23.4640 H   0  0  0  0  0  0  0  0  0  0  0  0
    7.1403    8.6648  -22.5211 H   0  0  0  0  0  0  0  0  0  0  0  0
    5.8973    7.3689  -22.4730 H   0  0  0  0  0  0  0  0  0  0  0  0
    5.1015   11.0254  -22.3603 H   0  0  0  0  0  0  0  0  0  0  0  0
    5.0070   11.1364  -20.5700 H   0  0  0  0  0  0  0  0  0  0  0  0
    6.6009   10.9409  -21.3749 H   0  0  0  0  0  0  0  0  0  0  0  0
    4.1533    2.0845  -21.5803 H   0  0  0  0  0  0  0  0  0  0  0  0
    3.3808    1.2639  -20.1816 H   0  0  0  0  0  0  0  0  0  0  0  0
    3.7654   -3.6294  -20.2354 H   0  0  0  0  0  0  0  0  0  0  0  0
    5.4008   -4.3376  -20.4604 H   0  0  0  0  0  0  0  0  0  0  0  0
    5.2520    6.3120  -16.1398 H   0  0  0  0  0  0  0  0  0  0  0  0
    3.8993    7.3603  -16.6860 H   0  0  0  0  0  0  0  0  0  0  0  0
    5.8862   -2.8342  -18.2445 H   0  0  0  0  0  0  0  0  0  0  0  0
    5.2909   -4.5273  -18.1696 H   0  0  0  0  0  0  0  0  0  0  0  0
    4.3204    8.8947  -21.3424 H   0  0  0  0  0  0  0  0  0  0  0  0
    3.6542    5.8885  -18.5691 H   0  0  0  0  0  0  0  0  0  0  0  0
    6.7356   -4.0430  -21.4055 H   0  0  0  0  0  0  0  0  0  0  0  0
    3.2744    4.9759  -19.9072 H   0  0  0  0  0  0  0  0  0  0  0  0
  1  2  2  0  0  0  0
  1  3  1  0  0  0  0
  2  9  1  0  0  0  0
  3 10  2  0  0  0  0
  4  5  2  0  0  0  0
  4  8  1  0  0  0  0
  5 12  1  0  0  0  0
  6  8  2  0  0  0  0
  6 11  1  0  0  0  0
  7  9  2  0  0  0  0
  7 10  1  0  0  0  0
  8 21  1  0  0  0  0
  9 23  1  0  0  0  0
 10 25  1  0  0  0  0
 11 12  2  0  0  0  0
 11 22  1  0  0  0  0
 12 29  1  0  0  0  0
 13 15  1  0  0  0  0
 13 31  1  0  0  0  0
 14 16  1  0  0  0  0
 14 31  1  0  0  0  0
 15 17  1  0  0  0  0
 15 21  1  0  0  0  0
 16 17  1  0  0  0  0
 16 26  1  0  0  0  0
 17 30  1  0  0  0  0
 18 24  1  0  0  0  0
 19 25  1  0  0  0  0
 20 25  1  0  0  0  0
 22 24  1  0  0  0  0
 23 26  1  0  0  0  0
 27 31  2  0  0  0  0
 28 31  2  0  0  0  0
  1 32  1  0  0  0  0
  2 33  1  0  0  0  0
  3 34  1  0  0  0  0
  4 35  1  0  0  0  0
  5 36  1  0  0  0  0
  6 37  1  0  0  0  0
  7 38  1  0  0  0  0
 13 39  1  0  0  0  0
 13 40  1  0  0  0  0
 14 41  1  0  0  0  0
 14 42  1  0  0  0  0
 15 43  1  0  0  0  0
 16 44  1  0  0  0  0
 17 45  1  0  0  0  0
 18 46  1  0  0  0  0
 18 47  1  0  0  0  0
 18 48  1  0  0  0  0
 19 49  1  0  0  0  0
 19 50  1  0  0  0  0
 19 51  1  0  0  0  0
 20 52  1  0  0  0  0
 20 53  1  0  0  0  0
 20 54  1  0  0  0  0
 21 55  1  0  0  0  0
 21 56  1  0  0  0  0
 22 57  1  0  0  0  0
 22 58  1  0  0  0  0
 23 59  1  0  0  0  0
 23 60  1  0  0  0  0
 24 61  1  0  0  0  0
 24 62  1  0  0  0  0
 25 63  1  0  0  0  0
 26 64  1  0  0  0  0
 29 65  1  0  0  0  0
 30 66  1  0  0  0  0
M  END
> <OMEGA_C>
Wwb8QDuVA0FFJJTBwqLgQIWZ8UBM+ozBNY/rQPktDEHTvJ3B8uTEQB93bD6+Hq/BBQLbQOwudr9X
S7HBf1uTQG83gL/LqaPB8mukQM/P/kBo9pjBWt6gQBsVVj46W6jBUqu0QPC87UB6Zo/B34i/QGvs
CUFHNKDBb9KpQFbQDMCel6XB2rrNQOwpC8DXlKzB1Ia4QMofuz+KWpTBoY+zQOdOcUACX4fBOIym
QAFKFkAPiJ3BjDSiQDdWj0D3bpHBbzeKQIdVYEAsD5nBiflyQHLUQcC+rY3BK/DBQEtIB0HyQbTB
iyOxQBW3KkFtUKvBANqKQFXtvz8HV6XBas2aQE3TX8DsOaDBtGuWQPfa1UCvIYjBh4KhQM4tYMAV
5pPBcY6sQNdAEkGOnKrBMF+DQFsHsUDoAY7Bij36QMrCREBiSJHBEUjfQFds0z8ttoHB1tvjQLmr
U8AJ8K7BEzt0QPaJiEDq3aHBgdfWQKW4HUDqQovBCs4OQYVDBUH9SJLB8jntQPIZ5EBfrIXB00QA
QUF8FEGZNKPBhXzPQECclD+Sn7LBmEr2QCsuc7/ImLbBGg5vQHZmgb99ip7BbsKCQNa6+0DSwprB
mc2dQG+JfT8vC5DB+EbNQPOfLj/twpfBH+/EQGnaj0CTYILBKLuYQMhJVkCyyILBkHzBQAMqMkBJ
/6HBDwS9QO4LnkCTypXBgOdeQECnQ0CTm5TBQiGAQHZxQ8AFCoXBfOpiQAkNAMBxFpDB/c88QM9o
bMADfY/BTuWzQM92DUEstrvBuH3kQAejCkEvK7TB47a8QGDO60CzyLPBYD+jQBJoMEH04bLBNTmg
QOYuMkFzj6TBlzrTQP8NL0Hg/6rBGeiEQHxoBUBppKzB1V5YQGDGoT/Zc6HBrvtwQDZIaMAZ4qHB
GtOsQFDNisDlrqPBBBCoQCj8yUBfHoHBx455QEaH60DwfIXBJ1y8QMpjNcDA9JHB506pQMjfkMBT
W5HBnUCKQNhQDkEmvarBeN5pQP9uvECNjZTB3YnXQN1fgcB4PqvBGZBRQFM6n0AFQp/Bha4AQX10
AUGSUZLBlGvhQGGm7kA1OYzBJsn2QDJpC0GFEJzBQ+vDQPYXaj5o6K7Blx7aQJhUdL87U7HBWbST
QH07hL8RSqPBsiOsQNnbAEEvtpnBdJugQPJLPz5t66fB37S2QLQ+7kBm3I/B0iXMQKFGC0Gdz5/B
viOqQHBADsA2haXBPYrNQF1QC8DBp6zBgMi4QE+EvD/S6JPB+1WzQCepdUATZIfBs2GmQMkPFUDB
Np3BKgCiQMEZkEA/rpHBDgOKQGRzX0D87pjBXMGDQEooQcBIA43BJTKcQMZvJUGoranB/Nm3QPsf
BEFc67LBWkaKQPEQuz+rxaTBjoubQFopYsBDV6DBaHiUQFk/2EDUQ4nB38CmQKg3aMA/Q5TBnuDB
QM+RFUGolKrB57+CQL99skCw747BP0D6QLXVRkDTNJHBddrfQH1s3T86VoHBQ8njQO4/U8DqMq/B
Pz9yQNXAhkAZ4KHBvALXQJjeIEC8BYvB9QYRQSWYAUFBhI/BvZzpQO9h30Bqv4TBxbUHQX8zE0Ho
tKDBWePNQJhMlT/aZLLBAur0QGecbb8px7bBctRwQCwwh7+9/Z3Bg5SLQHxbAEELmZzBN0qeQCyt
gD/ue4/B4rbNQCanMD/uM5fBcprEQLq1kkDwk4LBc4mYQPibW0C4tILBCxXBQPU5MECz1aHBse68
QLrUnUBgMJbBklJfQBtlQ0BARZTByGONQOc8R8BDlYTBBhx/QNc1+r/BAY/BFNBKQPRSY8CFSo7B
J7aVQL2GLEFmkbHBaRl/QB3qHEHJ2abBlnekQG8tMkFl+KPB/XywQHyrC0FZp7rBG8PTQHwb80Bm
0rPBPyWcQGZg9UBkPLDBfBCDQDiJAkDMCazBiYRYQPbVmj/po6DBQ0BxQGd4Z8CQOqHBnxyrQKrT
i8DNiKTBboOiQN66zUDRooHBCt90QJMU70Car4fBifHEQPTTRcCN2ZLBkcuqQP4FlsBRIpLBzDze
QAB4HkHFS63BKQxrQPbEvEC2wJXBiO3XQE5ogcAfgqvBAmpPQCmZnUCHY5/Bk9H4QDQNBUGsm47B
nszZQEGr8EAEfonBDALuQJTQEEG40pfBsEbMQIAjhjyyBrHB9avcQNPypL+YJbLBGf2YQBwFT7/J
2qPBTwilQB76AkFE5JbBedqpQIixgD7e+6nBQMyvQKme7kCfmY3BLAnEQIr4D0EE/pvBfKeqQNr8
BsCWe6TBmdbLQBU8FsBM9KvB6UTCQGa4yT94jpbBESm0QN5bcEDIdYjBqI+vQA7CHkBPg5/BTO6i
QPH7j0DaaJLBuiePQB79YEDzuprBP8hPQPjIgsAq6Y7BdX6RQF6PKkFbq6TBK9iyQPazDEGIja/B
s/yXQMYb0z9/WajB/jeZQLTkUcCKxZ3BIICOQI3O0kD2KIjBVJt8QGp/N8B/25PBEXe5QBJcHEGw
LKbBIL+AQOnNrkDiKo/BMlP+QKKGVUBc45HBeFLlQCz32j9IcYPBeD/cQIZRZsCXGK3BNQN7QFMj
iUCsTKPBce3bQA4wJUA7m4zB8HsMQZTJBUGadYvBYSfiQMqy3kD0aYLB4/cCQX+JGkHbuZvBef/Z
QPXtVD8CibXBxjX2QBKEvb8Nw7fBzV58QFALIL8Mmp7BKAmFQFb8AUGFHprBJDmoQD8egD+/1JLB
KcTZQHIzYj+qDprBgGbCQD5Wj0C03oLBicWZQCVfTkADeoTBDfrJQJ8jQkBTSqPBOW29QH5uoUDt
OJbBPgdrQC30PEAOuZbB1CoqQE86ccCa64fBkP8kQKtdkcCQ35TB+AuAQKRVmsAVZozBos2KQBY9
M0HhI6zBxMNrQJd0IEG4mqLB5k6XQMsaNkEjMJ7BND6rQC/BFUFO27bB8EfQQBxkA0HZ0bDBv0iY
QKHHAUEwra3Be4KaQMJ0DEBI96/ByzZsQA6gxz+lEqbBMO6EQDaOecAR+6LBi5y0QJ/xd8Aa9ZrB
kDOcQOeixUC5wIDBxOFkQK2R5kB2NIbBnv1LQKKOCMDRUpbBAIuTQJR+GsBW2Y3BPrzUQGPLJkG8
G6jBaZdoQCNhu0A61ZXBhLnNQFJEhsB1bqjB2ohTQGBhnUDEgaDBzOEEQQE080CEM5TBsqHoQBhI
5UAdYo3BUd//QCsbA0GEIZ7BoO6yQPNxLT5H/a/BKi7MQHUVar+nc7PB2n+fQHOPir+b85/Bbruz
QOYJ/UANeZrBuSGcQFb7pj22RqbBnHa9QDmd6kBofZDBrL3UQO+UBUGBUqHBkP65QOiVCcCtKKPB
irrPQNfcBMBBGa3Byhi0QJU3vj/XGZLBRBqyQGlRfEAOEIfBwGufQPXMD0AsrpvB5sieQPHMkEAY
eZHB9hqEQIstXkBs1ZfBlHeYQDb0rsAqcJXB1UiuQNcOJEGMdqrBxKmyQGk1/0D1ZLPBHqKCQBN/
oj9mNaLBlJe9QMygV8BD7JvBER6ZQD602kCKfonBTGOVQMcliMBh+JzBZADKQHnMD0GSFKzBDc6C
QNb7tUAgt47Bxdf2QNjhRUAYMJHBArneQCnG8T90OoDBg1ToQKEGR8AKn7DBQ1BkQJ7tg0A5BqHB
dHfUQOg3JUCFRIrBemAVQZdO70Ba0ZHB2zfwQBGR1kCSzIXBCqkMQe6CCEGCUKPBrgixQMeViD8B
xbTB5OTcQAkyW7/3/7rBKpqNQBr6k792lZjBGb+SQF0yAEEf6ZzBOZuaQBHSiD8+CI3BRh7IQAQ2
Kz+ZNJXBcobEQB4ll0AQ6oLBKyiYQFO3ZUBo1IHBJBi5QOZwJ0D07KDB2CK5QIHbm0BvnJbB0NRU
QMtRRkDgm5LBcyp3QL7IwsBDSZbBSNi0QEkLwsD8hJfBvi+bQDvJo8DbHo3BUt2mQOQyK0EVSrLB
61WQQEeuH0HKY6bBCvK/QOiyL0GhjqXB0TCrQEw9B0GYGbvBWmPHQDpJ40CYwrTBI8+UQPrP9EAa
hq/Be+ZpQJNx5z+ZE6nBWEVRQATsZz+oCZ3BtPXZQHQDfcD2OZ7BBd/AQKNqQsBtkpPBgRWmQKxD
0ECXvYHB0R2CQE/b9ED5N4jB/JaSQPp0k8A1RqXB49xxQNllasAU4JrBFgboQJWNFEEAA7DBU71q
QBuhwECDeJXB25vnQFUqdMByiKvB2gtDQHS/m0BpyZ7BVCzEQOHt7kAuWKvB39a1QMm02kC5A6LB
EErNQKtmDUEON6vBop61QAARCD4IILDBk9nNQPtkfL9kTrPBdkScQAFzjb+Ci6DB5tK6QP3wDkEB
OpjBj5KcQLZOkT2EwabBpgqxQJTk8UC8TZjBd1rIQINKGUFdraHBBF21QI3SDcBYfaPBsAnOQFwf
CsD4Aq3Bp+uzQAiMtT+xQpLBxGCyQF36d0AR74bBe4WhQPewDUB49pvBY6iiQE+/jkDhlZHBQxqH
QK/5XEDILJjBiyDKQOT+isCe94nBeC2yQM7ZPEF/S6nBJAoAQSHNNUGNjqTBH2mEQHNPpT9P5KLB
2oK1QPQvXMBDNpzBQ7eiQMQ03UBX0o3BykjKQKPeRsBHS5HBeQDRQDM8MUExjqHBhvuIQGjktUCQ
do/BcD/4QPrlPEBnY5DBwLzbQMEI4T9Tqn/BOhTmQNIJTsC7PLDBhNprQAzTg0DsZaHBlAvUQKdc
HkAv54nBejDIQOW93EBRn7LBVlCuQMP7uECWMqLB4B3YQDdAFUGja7LBoji2QFiwhD9k2rTBUV/g
QNhwcr8KmLrB5paIQMjek78gdJnBp/S3QEDzF0F845DB4zyZQEbQgT+2hI3BbLvHQMn8Fj+VQZXB
VKDEQAtKlEA1foLBWOOWQIAEY0AuGoLB1FW8QJ8xJED566DB1cG+QIVxl0BRa5bBCsRZQJYdRkC6
C5PB5v3YQPTTgsCVQYLBBPWoQHx6lcCPn4jBlFDcQEb6pMDtyI3BQL24QLAjTkHpIqnBm+y2QM26
NkGzdbHBQO6QQIzxOUHoy6bBb+cCQTMqR0GybqTBva4KQU/vLUGAwZ7BPkwDQe2ML0HGnqzBXNNx
QDHn7T/Y3KnBy9hRQGAgdz+rDZ7BJ1yUQKticcBt5ZrBAcTHQB/oh8C2FKDBNVK/QOzi1EBXIonB
oUuPQP519ECBV4nBpiS4QOUIE8B5b43BNoDrQHoIMsDWmJLBa0nLQGRQN0Hpa5nB5BZrQIK2ukDq
s5XBnA7jQGSDe8DgP6vBHpFLQLECnECULp/BsC+qQAci+0DR2KrBrMKaQJAJ6UAhVaHBvqLNQAli
C0HtmqrBAsG1QMAvCT5dDLDBJunNQMVpfL/fPbPBRA+cQPbPjb9NhqDBU2jTQFJXBkG7TJfBX5Sc
QPjekj0Hs6bBmxawQLSe8EBeipfB2L/hQPWhEEFIxaDBrgu1QFEpDsB1faPB5uDNQAxVCsCC/KzB
Ml2zQF49tz9IKpLBUgi0QKVvekB0NYfBqKOhQBE6DkAA8ZvBbbeiQNUpkEBXxJHBNZKHQMesXkB9
T5jB1UDJQK/oi8DuDorBPuYFQU8BLEGsmZXBIkcCQVSWMUH/X6nBcXWEQFrYpT841qLB9+e0QIre
XMBQRJzB4BmfQLQC3kCNHY3BeZbJQA1ISMAIUZHBaf8DQTRBIEHsgaDBvViHQJtotUC+7o7B6bb4
QKn2OkDolZDB8ZvbQJKJ4z/xtX/Bht7lQBRNTsBzObDBb/1uQDqBhEC8pqHBH1bUQGjFHkD+AorB
JM6aQGvS80B4XbLBV+l8QHk31UCNfKHBWrPZQHYTEkFF+rHBa4K2QGkLhT8SwbTBZYzgQCIGcr+p
grrBXE6IQAZblL9lcpnBhbvjQARLCUEt1I/BzmWYQD2hhz/oWo3BkHTGQIWvFD99DZXB/3PHQJdw
lUDGD4PBEwmZQNiGZ0CVFILBiLy8QG2fI0By4aDBXs+9QC/WmkD2tZbBu65ZQFH8SEBrRJPBWw7Y
QIL+g8DIUoLB9wqoQF1YlsAxwYjBlmrbQF3UpcC+6I3BdLMTQWXrNkGHy5XBSmzuQHE6NUGLGpTB
ySAIQUcwIEGsLI/B/CsQQaNZPEEV6KjBvu8BQdnPKUGQRLHBIwHnQEPfOkE9O6jBU8RxQHId7j8P
0KnB/AxSQOiheD/V+J3Beq+TQL/LccBO/prBBBXHQKI/iMCRKKDBADS6QG2t10BXuofB6nCJQHFj
9UAPYYnBkHi3QKiSFMCnbI3BL9jqQKiKM8A1lJLBJMYSQVcRF0EW1aHBLCBlQIAlukAr5pTBUbLi
QK/se8CKQ6vBKSNPQMUInUDQk5/B47fhQM6b8UA/7KLBe/2+QGF55EDlo5zB01wCQSUpA0HCJJ7B
Nwu0QOnHFD5jAbDBg+zMQAW4c786W7PB+tSeQBkojL8ADaDBAOziQHwI/0C5oozBZYqcQCimjT1h
ZKbBcALAQMPI6UDdZpHBl/YCQWepBkFf7ZLBAOu4QFFIC8BLJKPB1F7PQFRcB8Bc/KzBo9mzQGNQ
uj8OEpLBhX2xQFROekAU64bByhSgQAxoDkD3upvB5nGfQNV7j0C0cZHBx9iEQKLfXEAh+JfBHE2U
QGjxrsDuhJXBP5wqQQEtEUHjEZTBlWEZQcJvDUHQBoLBXFyDQC0eoj9Yb6LB8UO7QOhhWcCm45vB
cLKaQGwr20Dpc4rB34KSQMojiMB3E53B2UMVQQjFE0HR2o3BJPGDQKKOtUDQGo/ByPX2QDTbQkBB
w5DBpjvdQBae6z/v7H/BVJznQMBnSsDZZbDBUyJoQKPAg0AcPqHBaubTQMajIkA6BYrBxZHhQG/O
60CscKvBuU+jQKY61kCqZKDBRoUPQS6GCEF0D6PBTPeyQAychT+cyrTBgjLeQJ5DZ79j1LrBwWmM
QPoylL/kwZjBuQrjQDNAAkHDGoTBg9+ZQK9JhT+YJI3Bgu/HQLK3Ij9iGpXB0q/DQDMTlkAwr4LB
dQiXQIEWZEBL0oHB5ju6QJjKJUAC2KDBF4y6QOLHmUBDb5bBoBhVQCpgRUA16ZLBkBZuQDklwsAu
d5bB6F+wQJypwsAefZfBosaWQFDGo8BoMo3BLiU3QQPFGkF/LZDBb1wvQac6AEHpFJTBl3MoQcGv
FkF9W5zBR4QmQeIvF0Guj33BZ8oKQZo4EEHenHrB9r8dQd7Q+ECim4HBHR9tQFJV6D/hW6nBsndR
QLsXaj9uap3BmljXQGwBgMD2Fp7BuU2+QERCRMB3h5PBDQOnQIBf0kD0gYLB592DQLfE9UBEponB
o/SPQOZxk8CjYqXBurZsQDQdacDtF5vBr7sQQXzFJEFGDo7BJZJsQAPZvkDp9JXBQiLmQId7d8Co
T6vBLeJGQCqsm0CsEZ/B9HHiQFSS8EBF46LBiDi/QGZr5EAxppzByMMCQYKMAkGeF57BDPyzQL69
Fz4r46/Bi/zMQPSycb+gRbPBhzKeQOhqjr/iD6DBWDbjQDi+/kAfoYzBpECcQMxJfj0AUKbBhTLA
QLi46UC2aJHB/sECQf4kB0Ec+ZLBspK3QOoDDcBSV6PBlf3OQA2AB8CrBa3BOIyzQGPuuT8wApLB
SGCxQKpgekCi6YbB/uCfQDMeDkDorpvBYGqfQI59j0Bjc5HBOcOEQI/qXECQ95fBb/rnQJrwlcAQ
uY7BLp4OQRvxH0HLtIPBCdEfQcuOI0HEupXBThaDQPg1oT+3VaLBwqW6QHHpW8AQPJzBodOaQIAw
20BteIrB04bkQGnPWsCjqZXBPpoVQfVQE0GF043BBQCEQKiktUC6IY/Bgsj2QKRpQkB7u5DBJ/Pc
QC6t6z/d0H/BqpbnQJ8lSsBBZrDBtk9oQJq9g0C3Q6HBxq7TQOl6IkB0+4nBCp3iQFoo6kCoYKvB
FDmjQN701kA9b6DBtGUQQQX9BkFM6qLBVPqyQGWRhj9jnrTBCrDeQME9Yr9KrbrBoxyMQHN+lr+D
t5jB4vLjQBCIAUEjD4TBZYaZQHdthT/9Eo3BCpDHQI03IT84BZXBQ5/DQIoYlkC/r4LBqN6WQEhh
ZEAa0YHBSRC6QHAgJUAn0KDBio+6QCawmUB8cJbBiLxUQOm+RUCT6pLBDvcCQawElcAYG4rBaJ3M
QM1jl8D+MonB0tjnQKtkssBQ55PB0IUcQb1WKEGJUYDBdD8CQWarK0G25YXBgCEIQcvBFEHJeHvB
2CUtQevgK0FnxJHBRtUlQRP8GkE+zZzBsrITQWlPL0H5N5jBfThsQIQp5z+oP6nBNSxRQA8saD+h
Rp3BPzKfQFD2XMBTupbBzw66QNHLisAcR6HBIBenQHhZ0kD5hYLBAA+EQLrX9UBuq4nBT8HkQNES
IsAAdJDBufz/QIwUWMBSKJvBW+ghQb2kB0HoeYvB5t5sQKf2vkAY/pXBobLlQIW3d8D3Y6vB7jdH
QKvAm0DpHZ/BVxLyQEOiB0EE7I/B7I/XQMrh80BA3onBfvHhQGOtEUFYM5nB/r/LQADI57zrtbHB
YyrbQGfqrL9iYrLBBsmXQIBUPr/2SqTB+b+cQLm+AEGhPZbBjcipQPBMjT4ArqrBzqisQN5T7UCR
CY3B+j23QNzUDUFQgJzBnS+oQP4BBMDVlqTB3sbJQMoJF8AeyKvB63fDQKqPyj9aVpfBd/KzQAmv
akCLpIjB8eawQOcDIUAZIKDBlQ6jQED2jkAcS5LB5iuQQLFiYkAjL5vBkbY8QOVBfsAhSpDBp/HB
QLP3EkHrVrDB4T6dQAqTL0HGPqXBq++ZQF6L2j/DQ6nBGxeYQCvCSsCzDp3BCUmPQFJQz0DBEYfB
7ThnQDuXL8A+Y5XBG7GkQBVwF0EirqbBq72AQJ5KrEBMYI7BNnP+QO9RVkDG75HBXnHlQD4t0j8B
E4TBLtTaQIEhZ8A8AqzBpwyAQLyji0CmmqPBJz7cQPcFI0AJB43B21sJQatuCkGwdI3B///jQIwE
5ECp2YLBfCT2QBVKHEFYyJ3Bs+LZQJ++Pz++jrbBcV30QMbsy79x+LfBJER6QEmKA7/AG5/BcYJ3
QBjP/ECDh5jBiGqpQNLaez+c3JPBqWLbQJmzaT8Z8ZrBjW/BQDJ5i0AzsILBR4mZQBZPRkB/A4XB
o2bLQNJsRUBotaPBImy9QKfIoUB0vJXBNZJrQHt7PUC2oJfBnzYJQCNhacAQ44rBXcUhQC2ak8Ay
m5bBVrZsQINIkcBouYvBLdWzQM0QGkEHlLfB6KThQDoOGkFG5q7BFkPFQLaVAUG3cLHB9NiPQA1K
NkFtqKzB5raGQCg8MkHInZ7BKtm7QGB6N0FpbqPB4ueeQG2OD0B/2bDBIQ5vQBn/1T9abqfBVF+M
QKoMgMBL/6HBi0WzQC6YYMB0LZjBu4egQHhXwUA2PYDBL5dmQBAt4UDqJYTBROI2QHpuC8Bc6pnB
n+mAQCXLBsCSCI/BhIuFQCvXD0HaOKjBi+RlQMnUuUB4wJTBrrzLQJF2hcAdKafBAV1YQICen0A9
wKDB

> <OMEGA_E>
wJzgPozY1z6uHyY/iBIaP1wIVD80hEw/eD9MP97tSz+8VTg/

> <OMEGA_NBR>
     50210

$$$$
50172244
  -OEChem-04172616093D

 64 66  0     1  0  0  0  0  0999 V2000
    8.0407    8.1111  -18.2890 C   0  0  0  0  0  0  0  0  0  0  0  0
    7.0460    7.4670  -17.5316 C   0  0  0  0  0  0  0  0  0  0  0  0
    7.7064    8.7420  -19.5018 C   0  0  0  0  0  0  0  0  0  0  0  0
    6.1357    0.2180  -21.8714 C   0  0  0  0  0  0  0  0  0  0  0  0
    6.8261   -0.9705  -22.1641 C   0  0  0  0  0  0  0  0  0  0  0  0
    4.6382   -1.0247  -20.3946 C   0  0  0  0  0  0  0  0  0  0  0  0
    5.3776    8.0655  -19.2134 C   0  0  0  0  0  0  0  0  0  0  0  0
    5.0346    0.1871  -20.9939 C   0  0  0  0  0  0  0  0  0  0  0  0
    5.7114    7.4489  -17.9867 C   0  0  0  0  0  0  0  0  0  0  0  0
    6.3736    8.7312  -19.9693 C   0  0  0  0  0  0  0  0  0  0  0  0
    5.3272   -2.2207  -20.6742 C   0  0  0  0  0  0  0  0  0  0  0  0
    6.4273   -2.1887  -21.5729 C   0  0  0  0  0  0  0  0  0  0  0  0
    5.7822    1.4727  -18.5017 C   0  0  0  0  0  0  0  0  0  0  0  0
    5.5978    3.8292  -16.9275 C   0  0  0  0  0  0  0  0  0  0  0  0
    5.2072    2.3321  -19.6624 C   0  0  2  0  0  0  0  0  0  0  0  0
    5.0633    4.4996  -18.2139 C   0  0  1  0  0  0  0  0  0  0  0  0
    4.3163    3.4907  -19.1259 C   0  0  1  0  0  0  0  0  0  0  0  0
    4.8638   10.3751  -21.1768 C   0  0  0  0  0  0  0  0  0  0  0  0
    5.7396    8.3163  -22.3646 C   0  0  0  0  0  0  0  0  0  0  0  0
    4.3359    1.4653  -20.6130 C   0  0  0  0  0  0  0  0  0  0  0  0
    4.8222   -3.5194  -20.0407 C   0  0  0  0  0  0  0  0  0  0  0  0
    4.6444    6.7550  -17.1628 C   0  0  0  0  0  0  0  0  0  0  0  0
    4.9968   -3.5513  -18.5033 C   0  0  0  0  0  0  0  0  0  0  0  0
    6.0473    9.3923  -21.3059 C   0  0  0  0  0  0  0  0  0  0  0  0
    4.0890    5.5763  -17.8727 N   0  0  0  0  0  0  0  0  0  0  0  0
    7.8208    3.1105  -18.1498 O   0  0  0  0  0  0  0  0  0  0  0  0
    6.9932    1.7199  -16.1767 O   0  0  0  0  0  0  0  0  0  0  0  0
    7.1084   -3.3207  -21.8899 O   0  0  0  0  0  0  0  0  0  0  0  0
    3.7902    4.2136  -20.2423 O   0  0  0  0  0  0  0  0  0  0  0  0
    6.3514   -3.8240  -18.1544 O   0  0  0  0  0  0  0  0  0  0  0  0
    6.7187    2.5101  -17.3836 S   0  0  0  0  0  0  0  0  0  0  0  0
    9.0625    8.1216  -17.9395 H   0  0  0  0  0  0  0  0  0  0  0  0
    7.3046    6.9855  -16.6001 H   0  0  0  0  0  0  0  0  0  0  0  0
    8.4735    9.2374  -20.0784 H   0  0  0  0  0  0  0  0  0  0  0  0
    6.4480    1.1507  -22.3173 H   0  0  0  0  0  0  0  0  0  0  0  0
    7.6650   -0.9517  -22.8440 H   0  0  0  0  0  0  0  0  0  0  0  0
    3.7989   -1.0366  -19.7150 H   0  0  0  0  0  0  0  0  0  0  0  0
    4.3608    8.0292  -19.5755 H   0  0  0  0  0  0  0  0  0  0  0  0
    4.9544    0.9993  -17.9534 H   0  0  0  0  0  0  0  0  0  0  0  0
    6.4405    0.6944  -18.9153 H   0  0  0  0  0  0  0  0  0  0  0  0
    6.1317    4.5731  -16.3179 H   0  0  0  0  0  0  0  0  0  0  0  0
    4.7576    3.4165  -16.3498 H   0  0  0  0  0  0  0  0  0  0  0  0
    6.0421    2.7612  -20.2358 H   0  0  0  0  0  0  0  0  0  0  0  0
    5.9088    4.9274  -18.7727 H   0  0  0  0  0  0  0  0  0  0  0  0
    3.4923    3.0487  -18.5464 H   0  0  0  0  0  0  0  0  0  0  0  0
    4.6571   10.8315  -22.1560 H   0  0  0  0  0  0  0  0  0  0  0  0
    3.9723    9.8318  -20.8301 H   0  0  0  0  0  0  0  0  0  0  0  0
    5.1184   11.1623  -20.4519 H   0  0  0  0  0  0  0  0  0  0  0  0
    5.5057    8.8013  -23.3238 H   0  0  0  0  0  0  0  0  0  0  0  0
    6.6157    7.6627  -22.4884 H   0  0  0  0  0  0  0  0  0  0  0  0
    4.8777    7.7162  -22.0376 H   0  0  0  0  0  0  0  0  0  0  0  0
    4.1223    2.0410  -21.5256 H   0  0  0  0  0  0  0  0  0  0  0  0
    3.3916    1.2184  -20.1057 H   0  0  0  0  0  0  0  0  0  0  0  0
    3.7530   -3.6306  -20.2743 H   0  0  0  0  0  0  0  0  0  0  0  0
    5.3817   -4.3614  -20.4744 H   0  0  0  0  0  0  0  0  0  0  0  0
    5.0867    6.4236  -16.2117 H   0  0  0  0  0  0  0  0  0  0  0  0
    3.8303    7.4665  -16.9603 H   0  0  0  0  0  0  0  0  0  0  0  0
    4.7063   -2.5755  -18.0869 H   0  0  0  0  0  0  0  0  0  0  0  0
    4.3509   -4.3363  -18.0830 H   0  0  0  0  0  0  0  0  0  0  0  0
    6.9297    9.9591  -21.6376 H   0  0  0  0  0  0  0  0  0  0  0  0
    3.6780    5.8985  -18.7256 H   0  0  0  0  0  0  0  0  0  0  0  0
    6.7336   -4.0578  -21.4222 H   0  0  0  0  0  0  0  0  0  0  0  0
    3.2434    4.9251  -19.9302 H   0  0  0  0  0  0  0  0  0  0  0  0
    6.4382   -3.8394  -17.2085 H   0  0  0  0  0  0  0  0  0  0  0  0
  1  2  1  0  0  0  0
  1  3  2  0  0  0  0
  2  9  2  0  0  0  0
  3 10  1  0  0  0  0
  4  5  2  0  0  0  0
  4  8  1  0  0  0  0
  5 12  1  0  0  0  0
  6  8  2  0  0  0  0
  6 11  1  0  0  0  0
  7  9  1  0  0  0  0
  7 10  2  0  0  0  0
  8 20  1  0  0  0  0
  9 22  1  0  0  0  0
 10 24  1  0  0  0  0
 11 12  2  0  0  0  0
 11 21  1  0  0  0  0
 12 28  1  0  0  0  0
 13 15  1  0  0  0  0
 13 31  1  0  0  0  0
 14 16  1  0  0  0  0
 14 31  1  0  0  0  0
 15 17  1  0  0  0  0
 15 20  1  0  0  0  0
 16 17  1  0  0  0  0
 16 25  1  0  0  0  0
 17 29  1  0  0  0  0
 18 24  1  0  0  0  0
 19 24  1  0  0  0  0
 21 23  1  0  0  0  0
 22 25  1  0  0  0  0
 23 30  1  0  0  0  0
 26 31  2  0  0  0  0
 27 31  2  0  0  0  0
  1 32  1  0  0  0  0
  2 33  1  0  0  0  0
  3 34  1  0  0  0  0
  4 35  1  0  0  0  0
  5 36  1  0  0  0  0
  6 37  1  0  0  0  0
  7 38  1  0  0  0  0
 13 39  1  0  0  0  0
 13 40  1  0  0  0  0
 14 41  1  0  0  0  0
 14 42  1  0  0  0  0
 15 43  1  0  0  0  0
 16 44  1  0  0  0  0
 17 45  1  0  0  0  0
 18 46  1  0  0  0  0
 18 47  1  0  0  0  0
 18 48  1  0  0  0  0
 19 49  1  0  0  0  0
 19 50  1  0  0  0  0
 19 51  1  0  0  0  0
 20 52  1  0  0  0  0
 20 53  1  0  0  0  0
 21 54  1  0  0  0  0
 21 55  1  0  0  0  0
 22 56  1  0  0  0  0
 22 57  1  0  0  0  0
 23 58  1  0  0  0  0
 23 59  1  0  0  0  0
 24 60  1  0  0  0  0
 25 61  1  0  0  0  0
 28 62  1  0  0  0  0
 29 63  1  0  0  0  0
 30 64  1  0  0  0  0
M  END
> <OMEGA_C>
pqYAQRjHAUH2T5LB1njhQKjx7kC8QIzBiJr2QEffC0GpA5zBaFfEQNowXz6P+K7BPm/aQIhveL8Y
ULHBWmyUQL4pg78iKKPBgRWsQFwMAUECtZnB2BuhQOKZPz6J86fBdcO2QItd7kDY5I/B0/TLQPGy
C0ESwZ/BG3iqQOkfDsDYZKXBQ6zNQBMUDMA2lazBqQe5QDGAvD+DA5TBZyGzQOAQdUCVa4fBaaGm
QFhBFUClTJ3BvAaiQFn8j0AdtpHBwR6KQHVnX0DTAZnBEKSbQFoAJkETaqnBy6q3QJcPBUHM6rLB
6b+KQAqPuz9U56TBSU+aQI0+YcB0U6DBEJ+UQCop2EBeTYnBoOWfQHhIY8DDBpTBXoPBQNpGFkFl
cqrB79iCQHBxskBk+47BVkT6QM4RR0DiMpHBe8jfQPUm3D/taYHBznfjQDiGVMCJHq/BK5JyQATW
hkA08KHBWD7LQMW7dMAuPJHB2v/WQAelIEChEYvBCwARQfrxAUElhI/Bp7/pQJ+J30ABzYTBV5MH
QW/ME0GkoKDBIVbOQERKkz/FibLBmEf1QHmic7+NwLbBzCFzQHSuhL9RuJ3BsouLQLx3AEGzmpzB
V4qeQOfSfz98oI/BXxjOQOnGMT95UpfBpzbEQKRWkkAoi4LBmz6YQLqnWkBazILB2FjBQBG4MEAC
46HBlhS9QC+tnUBnLpbB9oFfQHIeQ0ASX5TBvQaVQP9NLUGRP7HBtzp+QBdPHUEZpKbB7smjQKmY
MkFwnaPB1y6wQC7SDEE+l7rBv7PTQCs19UA66LPBIRacQMDq9kAHTbDBq+mDQPWfAkBqNKzBMRBZ
QJz0mz922KDBbjFwQCNbaMDEMaLBizasQMOQi8CTy6PBSsaiQM+NzUCZsYHBxiN1QMDt7kCvrofB
IZqWQLrUJMDpsZDBfTqLQJ/CisD2qZDBP8DdQHZYH0HOGa3BM2RrQLvAvEDzzZXBtnnXQGbZgcCy
YKvBKpRPQECanUARcZ/BBgbOQOu4dcD+qonBCOn7QNitA0HWM5TBY5fgQInT8UCeA43BvFvrQOc9
DEHYy53BwzrEQDPrZT7wGq/BP2HaQEfYdr8xZLHBWuiTQKTogb+yX6PBW0CkQG0M/0Dw9JjBWbOg
QCyqST7YLajBXZe0QHH77UDQZ4/B+0u/QAoCCkGSOaDB5b2qQHNHDcAGWaXBXLvNQHZuC8BvmqzB
1l+4QADbuj9NKpTBLl6zQH+0cUC5S4fBjnOmQJiwFUA4ZZ3BDjOiQEBwj0D3Y5HB2UiKQBxrYEBB
BpnBx+DAQBqcBkEFP7TBO7qxQCiJKkErmavB3ZCKQELuvT9vHqXB30ucQBGvYMBi+5/BBGOWQKIT
1kBsIYjBJ5yWQBC2V8Ahu5PBBESsQE8nEkHdqKrBcV2DQL40sUDaAI7BzRL6QJPSREDgKZHBJR/f
QPUJ1T+ghoHBornjQPTSU8DhFK/BoWR1QFx6iEAK6aHBsW+9QDEjPMCbzo7BhK3WQE8FHkBHHovB
RMEOQUFfBUGOXZLB+UHtQNBX5EBYt4XBzyUAQeGAFEFqSqPBcWvOQAcMlD8bprLBDjT1QKezcr9+
1rbBX9NwQNDng7//I57BoY+CQHgD/EAjuprBSJ+dQAMUfj9G1o/Bux7NQEo+LT+xhpfBSavEQBMY
kEB1TILBbnOYQKTQVkCGuoLBmGvBQO7sMEBA6aHBehe9QCQUnkBEu5XB6n1eQL1dREA0nZTBNtSy
QN2mDEFcurvBO4/jQJaeCUGFQrTBxPq6QDud6kAnmbPBbcWjQOYTMEHfL7PBa1ehQCtoMkGg4KTB
kPvTQAmRLkFCZqvB5jGEQClBBEBAaazBwjpYQJYonz9IJaHBpQ17QGw7dMANfaPBI3a0QNUnicD1
jKHBcw6oQOg8ykBhHoHBznJ5QB6560BlfIXBn616QDN+KMBKF5LBRk+NQCYJi8CpX5DBENGJQKGJ
DkEerarBMglqQIqSvEC8kJTBetPXQBh4gcBGT6vBle1SQPZhn0DaYJ/B8T+5QA4ON8BrTofBTqgA
QRgGAkEuNJLBknPhQDdC70CpMYzBfcT2QPwLDEFb75vBWLfBQHiAVD6V7a7BHGbYQDGGdr93bLHB
37KTQN0Sib9S16LB40+sQK4DAUEKvpnBeUafQOy4HD4PrafBLdi2QHdr7kAk54/BIDzMQBa2C0Hp
wJ/BtX2qQHEBEMAjPqXBbQ/NQCEHDMDZnazBn8K4QKBWuz/N35PBglezQCxsdUACbofBqsWlQMu7
E0AdKp3BAA6iQLHpj0A0u5HBA9WJQI30XkAy7JjB6QmcQIbrJUHkganB+kO4QEzqBEEc7bLB8u2I
QLNgtj/cb6TBkcCdQD8mZMCw0Z/BUqaUQL8u2ED7VYnB3MGmQDbjY8AooZPBb/PBQH4zFkGMeqrB
VOyCQNV1skCqBY/BCSz6QEGLRkCyRpHB1/zfQFhY3T8sXIHBZwPkQGcFU8BELK/B9TFyQH9lhkBZ
5qHB+PV/QHBGWcC3to3BHQbXQNCiIEDUDYvBiPYQQaBQAkHgWI/BiKDpQObp30AfuoTBpasHQcQK
FEF5gqDBpKXKQD7Rkj/RjrLBkZ7yQCzSbL9EC7fBBYtyQJ9Kjb+TR53BItmLQPxZAEHdr5zBSIqe
QMWbfT9uYo/B0MjNQCdrLz9tMpfBkZfEQLmckkCWnoLBAoiYQH1mW0APv4LBgSPAQB34LUAd/KHB
SAK9QBJunUB3RZbBO71eQKujQ0AMO5TBDIaVQEEqLUEtXLHBDvl+QJ48HUFfvqbBLxakQCePMkEv
uaPBheWwQAOdDEFUn7rBjlTUQJDr9EAF3rPBr6ecQMql9kDMUbDBgZuAQJEc/z/QravBLhVXQBeZ
lT9CDKDByqh2QEnKbsDoFqHBMvyvQPtSjMCygaPBVL2iQBaTzUBcuIHBRCd1QNvw7kCuuofBrLa1
QJ9+kMChXZHBEKW8QL7mLsBcuZHBXjfeQOpCH0EgH63Bx7hrQBzGvEDg2pXBivvYQElxgcAzYqvB
keFPQEl/nUDIcp/BWSyGQNJIWcDqRYbBmeX+QLFrAkGFRZXBFPzjQCJg8EBfzI3BZZztQE7ECkH7
057BYom6QCCeXD5jUbDBhYjSQOngbb9N4LLBtXSZQEmvfb8Rf6HBZYamQPg+/kA8VJnBShydQBJR
Mz5WzKfBsZ63QH517UB81I/BDz3BQM3VCEE176DBWZ6zQM86B8BpiqPBddbOQB4wBsDRn6zBnJq1
QKi0uD9wv5PBO/GyQJpZcUDPGIfBGEOjQOfeE0Cy/5zB9tuhQKoyj0DpNZHBTlWIQMt0YEB9npjB
LJrBQPx6BEEv6rTBsfeyQM3FKEE9nKzBa0OGQFwmuD/SX6TB/rS1QCIhUMBxVZvB7LqZQLzn1kD+
NIjBiCKJQK8SccBAOJjBAoytQNR0EEHtYavBuqyEQCpMskC/xI3BSZz4QKOKP0BrDZHBycDcQPT4
zz/kQoHBpwfmQFlBTMCbcK/BDxhxQHJgiEAngaHBPVNkQJCqg8DPp6HBQNnUQE2KG0Dh4IrB5l4Q
QWneA0H2rZPBXT3xQD3+4kDojYbBbxwBQfOhEkFViqTBVKm+QEDXjz9+4LTBeejnQBsUar8YqrnB
vXGCQDwtg79LDpvBXoeEQNcx/EDYy5rB8fGaQPvKfT+CR4/B3MfJQKvdJT/zJJfBJB/FQMWyj0C4
O4LBV+mXQH5pWECHZoLBnP69QKdFLUA9w6HB+/C8QGiSnEDDupXBesJaQO47RkBAAZTBAQ6zQGEo
CkGQaLzBCkTkQL2EB0EIGrXBctG7QGhq5kCACrTBZIykQNb7LUEZNLTBjgGjQOTxMEFd6qXBBTzV
QEXMLEGclqzB2197QBNOAUBah6vBYwVSQHpXlT9h/Z/BZyjIQGKtgsCAyJ7Bh+zFQGCeOMDoGJTB
8QSsQILjykB1UIHB1CmBQKaB7UBQaoXBZGaMQBnnlMDSEpPB+HBvQCu7PsCq35PBnBqLQPHWDEGC
OavBt/ZrQNuzvUBDR5TBl2jgQGN1ecAvjqrBfidQQCbRn0Au9p7BsRgtQE/hjcBqw5/BJVz+QDOl
AUETP5bBasTjQEmn7UDa7Y7BhVnsQOhBDEHGHZ/B4Ra7QGC92j22WrDBH1HSQGvQh79xpbLBKV6Y
QBrNhL8Rb6HBeyulQJg4AUHpXpnB1GudQEbW5D114qfBiAS3QHmy7UCWdJDBPIO/QGbFC0FXzqDB
/ISxQDoLDMDHP6PBMnLNQPNdDcAnNqzBzwa3QIQitT/ID5TBq96zQFiLcEDNhYfBo/GkQBWFEUA2
ZJ3BDyyjQD+EjkDct5HBbhmKQL6lXkBbJZnBA8HFQA0HGEFfKbTBECWgQPHOLkEyWKbBc6CHQLqE
sz+AtaTB5u2xQMyzVMA/+prB7JKZQAJX1kBb4YjBvbSFQGb/fcC9TpnBLimqQIHMF0Gm86nBi2mF
QKJtsUD8do7BPfz5QPANPkDTPpHBAmbdQFm1zj+ldoHBwpDkQJ1YVMCBr67Bo9R1QK9Ch0CvIKLB
X+VWQGzdSsAifZLBx+7VQP5fGkDbJYvBeEsQQZnOAUGwDpXBIZLxQMwX3UAjLYjBeGAAQRbHFEEj
o6TBafu/QDmIfz+1E7XBEgPoQAY4ir+9XrnBpQ2BQDKWhL9ZDpvBYOuCQPAWAUHThZrBkD6cQLbq
dj/8oY/BGWPLQKaGHj+IYJfBHuHFQJ5tj0CwqILBIaiYQBnpV0D83YLBo8O/QA41KkDZLqLB/WC+
QAP4m0DpLJbB96BdQCD1REB7m5TB0+60QK3hIEGkf7rBXofkQMfcH0FgdbLBy4TLQLh/B0HG0bbB
TLWQQNGMN0GF76zBuoOKQFZhLkHCZ5/Bjg6+QMjwNkGPHKTB4qd/QHt2/D+j+qvBSvZTQM4tlT8f
XKDBLlfIQKgxg8Axtp3BOfa8QLumOsARSJPB/hGsQJahykAx/YHB93uAQNpX7ECpFIbBi6xrQC59
gsAsHaHBXvOJQN+8nsA9p5XBSbmLQDnMD0Hw1KvBcSxuQPyBvEBzD5XBmiveQIlOgMAsuqnBwfZU
QLXlnkCPr5/BxdUgQIHAZcBKmJHBwOfDQK3I7kCKaqvB55i1QHKh2kAHE6LBXfPMQD1WDUE5UKvB
5Fe1QL4B9z1VJ7DBEHjNQMl1f7/7YbPBo/udQDuBjL82SKDB6Xy6QC/0DkGiU5jBvDKdQJrKhz3p
oqbBgMSwQDzo8UCaYJjBgvvHQLdEGUEQyqHBw6W2QFmtDcCrVqPBxEbOQGGFCsDSBq3BZ1i0QNyS
tj9VLpLB6WeyQG2YeECA64bBFc2hQOK1DUCv55vB6aCiQG7ZjkCqlpHBBzKHQKPTXEAiJ5jB3qCx
QObFPEHQb6nBaJb/QKvRNUHTtqTBHdSEQKNKpD8DyqLBddK3QCzeW8Db/5vB3HGiQNNT3UAG4o3B
0JqKQG1UgMBZE5rBPYrQQH44MUH4saHBOtSIQA7ttUCgf4/BG2v4QMLiPUDfWJDB+QbcQHNE4z+u
iH/Blg/mQHGJTsDNVbDBs91rQN6Og0AAZaHBlyBtQE7fisAV/6PBTUXUQCU+H0De2YnBxfTHQO2H
3EC+rrLB8R2uQGvluECuPKLBZ7/XQDopFUFRh7LBhlW1QD5Xgj8c9bTBDXHfQPSUdr/ewbrBj3qL
QFg9kb+q/ZjBU5m3QL/+F0HN/5DBSbqZQBmIgj/ibY3BU0rIQPCNGT8gKJXBtIjEQA28lEDFfoLB
6/OWQDOBY0CIFYLBCIu8QJ1PJECb4aDB7LO+QP6Tl0B/bZbBiAxaQG/eRUDZA5PBZB+4QJcRTkGA
TKnBCVu2QDGfNkG/mLHBBmiQQPzXOUGW7KbBFKACQUEwR0EQnKTB1XYKQVb/LUEe6Z7B6gsDQVSK
L0HNxazBV0tyQE457D+DxKnBX+lSQBQxdD/m7J3B4N7LQFPDhsB1tp/B77/FQKofScDCQ5TBWgy/
QFcm1UDcLYnBQvCOQFSX9EDpbYnBwyGNQNFancAeI5XBKSRuQLi2UMAp35XB7tbKQNJTN0HckJnB
VcdqQH2dukB8vpXBy4jjQDLCe8BnS6vB4FhLQBGym0DGMp/BTKc1QKkflsAJq6LB9DQAQXgGBUG4
mZfB3knmQHDn9kBkv4/BVFbuQKgMDEE/VKHB4JyJQF6kk79mVJ3BvbieQHrUF8DKcJ/Bc7SuQAgr
7b0bWKzB1QOoQFxiAEEsRJvBci6SQAC3krzhvqPB7/S5QGVs8kAknZHB7+rBQB+LCUFONaPBl8DC
QGAkq78bsq7BoPi7QKpeHcCUAqjBAGe3QDydwz9mf5LBwEq4QD9rf0D4kIfB8cOhQIbVEUDU6ZvB
qUWlQNpdk0C405HBWh6KQFQ+ZUD9UpjBOJPAQEvIAkElArfBT6+yQH4LKEGNva/ByF1/QKZRqz+h
E6HBGkfhQKSfsr8KFrjBFwydQKLT3ECYnInB6jIHQXfje7/0jLTBdVmtQCnrD0G5wa3B0CGIQCoI
t0BSrI7BPxP7QLycRkDuIZLBXdHjQHwP9T94/oDBUbXRQIiNZ8CmvanBvt91QKfbh0B9u6HBK0IH
Qb45uT5Kt7DB0THZQNMYJ0A+/IrBlCIRQVb7BkEPK5bBuB/0QCu460AiV4jBLjEBQdRXE0EzWafB
MOZlQOkZi78j1JbBpICYQOwwT8CygZrBolO1QLTeQD+YMrHBkwCGQH6t/UCvlpzB73GeQBMNkD/A
MY3BlbDKQK5cMz8pt5XBD4vLQO/ul0DsXoPBZjSeQFqzaUCfUYLBAxW6QHJCIkCJ76HBsku/QIOV
n0Ck55bBenNdQIczUkAtVpPBy2qxQB6OB0Frlb7B5jjjQCbABUGtd7fBidO6QGJP40CwlLXBv5+j
QDJZLEHNZbfBU06jQLwEMUEcOKnB8/LUQGMJLEGRBbDBMIRnQIbn5j+0eKjBkAlKQAtzmj/wbZvB
4yziQIMAG8AmPrvBpxzWQMa3Nb8vYL7BoQywQH5D0kDYsILB0l6EQE6K80Cz8IbBTZgMQY3V07/k
Hq7BACoSQa9BiL9dZ7vBdOyKQAlcDEGYTq3BBwZyQCUgwUC3QZXBMPvjQAj6YMA9wq/B69JYQPJd
oUCfwZ/BB1QVQUmhGT8rkK7Bafz5QODrA0F+Oo3BlOfaQP7I7UA7VIjBj9juQDHmEEEYAZbBdMvF
QAA61jsZGbLBtPHXQLrco7+777LB0iOVQODUUb/uT6TBd1+lQGvFA0HwBpXBM6SkQGCoeT6sqqrB
3oewQFCA7UB4O4zBP27EQD8NEUHK6JnBf9mnQNThBsA46aTBh/3JQM18FMDDI6zBQJjAQHzOxz9i
VJfBKfC0QBrHbUCZzojBOcusQMihHkC7CaDBKoeiQCapj0DFd5LBNI6NQFCgYUAq1prBFmaSQENN
LUGOYKHBQ56wQAtjEEENY63BvpCTQMik0z9CuKjB00mbQOg3T8CsNZ3BbjWPQDaQ0ED3LofBqDFi
QLWRP8BDFpfBYFm5QMvIHkFXnqPBaOyAQCxqrkAdvY7BqpL9QJy7U0BV85LBmWDmQPwQ1D/GgYTB
fYPfQE8tYMC6DazB0bt2QA5FikAsLKPBdmJAQCM3h8B5QpPB99TbQDDpIkAkeo3B7zYNQXr2A0FP
QIrB+X3jQGL/2UAclIHBZG0DQb/JGkH2xJnBGDvRQL77Tj8MIbfB5pjwQJxDvL/Zy7jBy1l1QI/w
Jb9y7Z7BtP2EQG2ZA0FuC5jBgvumQHzmez+DcJPBRH3XQPrpXj+xGJvBVhXEQBR4jUDON4PBofya
QIBuS0CxsYTBC8TGQLOiQUAXDqTBoZW8QDhaoUDSZZbBVhxoQKnWPUBIvZbBqU6LQMDzNkEGhajB
2/hsQPhVI0ELZp/Bf6SZQDb2N0H4nJrB7amoQGdoGkGwV7TBIE7NQLbUBkFYK6/BkaeVQHGjBUEF
n6vB8giVQBQrDUBBUrDBYxpkQG0oyT8dHKbBE92XQINEhcAK36HBxyW1QGj4VsCAUZfBfwydQL1v
wUDFB4DB67RmQHb440DO24TBMpVuQPnZFMAGRJDBwHkzQLx6IcBffZzBkvXUQGsPKUEldqXB5nRp
QDzKvEAFNJXBfFnSQOQRg8DmHKfBor5QQDa3nkCgKKDB/IgMQGYAgsC5go/BDozzQM3SB0FYE5DB
skjZQMIF9EAHBorB+9PiQGpWEkHYJ5nBQvPHQAB0hbz7+7HB9yvZQNGWqL8Gn7LBZciVQGI7Sb8r
UqTBCaudQHVwAUHgEJbBSFGmQMhVgj6Nw6rBQC6uQIDH7UCVDo3B+qC3QMwQD0GtL5zBN6SnQLOM
BcCrsqTBA8XJQAOxFcBN2KvBjArBQOJbxj+/YZfByym1QGtZa0D+yojBB3SuQPMWH0DkI6DBbm6j
QMYHj0CsZ5LBnvqOQP0yYkBEDpvBL4q7QKQfEUG5N7DB2cGmQMviMUEebaXBPQiWQALQ1j9FEKnB
7hiaQElyTMCN45zByhSRQOSZz0C/DYfBZ3tgQCA2OsC7vpbBLYWkQJFXGUH6IabBfMuBQEjorEBD
W47Bm17+QIOgUEDsfpLBtcLkQJZAzT+OUYTBKbHdQLIdY8DNwKvBWm58QCRni0Dia6PB1aY9QDD+
g8BwtJLB2bzbQOVRIEAOT43BaDoKQV9aCkGVwo3BkxHmQC6740BBG4PBsPj2QOngHEEwy53BJnXU
QB5PRT/aAbfBAT3yQMEsxL9YULjBWFx2QO4jFr+yCp/BHkh5QH4X/kC9T5jBLM+mQBvCej+ysJPB
m/fXQFSXWj/7EZvBNjfEQPfpi0CMGoPBh9CaQCtASUDJzoTB4QTJQOH2QUDi7KPB65G9QFVfoUCc
G5bBY3ppQGOdPkBfO5fBvHWtQIyoGEFbWbfBLb3dQNQuFUFDv6/Bs+C3QFZO/0AZw7DBe8eYQJfu
OEGZsazBXryUQKFdN0GNYZ7BqlzIQJ/qNkEnsqTBNEaZQOBcDkCwqLDB8RRoQIv6zz9K0abBhc2V
QMz1g8A8eaHBJeqzQE4lVcC6AZfBib+iQHpHwUBNVoDBcshqQIJ54UB79oPB7/htQF+oDsBBCpDB
hv4xQOcqHMDKLpzBBaaCQE2sFEF9qqbBoetnQAfEukAKr5TBD7DPQL/9g8C706bB8jNWQITin0CD
eKDBaC4KQI8xfMD7747B

> <OMEGA_E>
0MDvPih68D6gke8+ekUNP5hYEz8scGI/JN5PPyjART9U0j8/

> <OMEGA_NBR>
     59716

$$$$
50172246
  -OEChem-04172616093D

 73 76  0     1  0  0  0  0  0999 V2000
    4.5753   -2.6512  -16.7768 C   0  0  0  0  0  0  0  0  0  0  0  0
    8.0642    8.1099  -18.4682 C   0  0  0  0  0  0  0  0  0  0  0  0
    5.9168   -2.9075  -16.4275 C   0  0  0  0  0  0  0  0  0  0  0  0
    4.1066   -3.0034  -18.0564 C   0  0  0  0  0  0  0  0  0  0  0  0
    7.1037    7.4933  -17.6455 C   0  0  0  0  0  0  0  0  0  0  0  0
    7.6795    8.6822  -19.6953 C   0  0  0  0  0  0  0  0  0  0  0  0
    6.2494    0.3133  -21.8035 C   0  0  0  0  0  0  0  0  0  0  0  0
    6.9482   -0.8615  -22.1322 C   0  0  0  0  0  0  0  0  0  0  0  0
    6.3012   -3.9174  -18.6103 C   0  0  0  0  0  0  0  0  0  0  0  0
    4.5919   -1.0138  -20.6049 C   0  0  0  0  0  0  0  0  0  0  0  0
    5.3671    8.0145  -19.2827 C   0  0  0  0  0  0  0  0  0  0  0  0
    6.7651   -3.5864  -17.3307 C   0  0  0  0  0  0  0  0  0  0  0  0
    4.9927   -3.5866  -18.9922 C   0  0  0  0  0  0  0  0  0  0  0  0
    5.0822    0.2355  -21.0192 C   0  0  0  0  0  0  0  0  0  0  0  0
    5.7518    7.4517  -18.0460 C   0  0  0  0  0  0  0  0  0  0  0  0
    6.3302    8.6408  -20.1102 C   0  0  0  0  0  0  0  0  0  0  0  0
    5.2576   -2.2012  -20.9655 C   0  0  0  0  0  0  0  0  0  0  0  0
    6.4742   -2.1163  -21.6942 C   0  0  0  0  0  0  0  0  0  0  0  0
    5.7827    1.4647  -18.4507 C   0  0  0  0  0  0  0  0  0  0  0  0
    5.6267    3.8305  -16.8782 C   0  0  0  0  0  0  0  0  0  0  0  0
    5.2309    2.3383  -19.6117 C   0  0  2  0  0  0  0  0  0  0  0  0
    5.0951    4.5011  -18.1644 C   0  0  1  0  0  0  0  0  0  0  0  0
    4.3401    3.4968  -19.0737 C   0  0  1  0  0  0  0  0  0  0  0  0
    8.2060   -3.8657  -16.9845 C   0  0  0  0  0  0  0  0  0  0  0  0
    4.8116   10.2705  -21.3130 C   0  0  0  0  0  0  0  0  0  0  0  0
    5.5241    8.1111  -22.4303 C   0  0  0  0  0  0  0  0  0  0  0  0
    4.6907   -3.5289  -20.4642 C   0  0  0  0  0  0  0  0  0  0  0  0
    4.3698    1.4884  -20.5835 C   0  0  0  0  0  0  0  0  0  0  0  0
    4.7203    6.7821  -17.1587 C   0  0  0  0  0  0  0  0  0  0  0  0
    5.9446    9.2334  -21.4617 C   0  0  0  0  0  0  0  0  0  0  0  0
    4.1341    5.5882  -17.8182 N   0  0  0  0  0  0  0  0  0  0  0  0
    7.8425    3.0782  -18.0943 O   0  0  0  0  0  0  0  0  0  0  0  0
    6.9918    1.7071  -16.1174 O   0  0  0  0  0  0  0  0  0  0  0  0
    7.2056   -3.2266  -21.9769 O   0  0  0  0  0  0  0  0  0  0  0  0
    3.8127    4.2245  -20.1866 O   0  0  0  0  0  0  0  0  0  0  0  0
    6.7308    2.4943  -17.3292 S   0  0  0  0  0  0  0  0  0  0  0  0
    3.9095   -2.1861  -16.0650 H   0  0  0  0  0  0  0  0  0  0  0  0
    9.0980    8.1441  -18.1578 H   0  0  0  0  0  0  0  0  0  0  0  0
    6.2962   -2.5849  -15.4692 H   0  0  0  0  0  0  0  0  0  0  0  0
    3.0745   -2.8291  -18.3228 H   0  0  0  0  0  0  0  0  0  0  0  0
    7.4019    7.0514  -16.7063 H   0  0  0  0  0  0  0  0  0  0  0  0
    8.4202    9.1556  -20.3228 H   0  0  0  0  0  0  0  0  0  0  0  0
    6.6062    1.2716  -22.1510 H   0  0  0  0  0  0  0  0  0  0  0  0
    7.8510   -0.8033  -22.7220 H   0  0  0  0  0  0  0  0  0  0  0  0
    6.9523   -4.4282  -19.3042 H   0  0  0  0  0  0  0  0  0  0  0  0
    3.6959   -1.0644  -20.0041 H   0  0  0  0  0  0  0  0  0  0  0  0
    4.3353    7.9670  -19.5983 H   0  0  0  0  0  0  0  0  0  0  0  0
    4.9444    1.0050  -17.9068 H   0  0  0  0  0  0  0  0  0  0  0  0
    6.4304    0.6758  -18.8608 H   0  0  0  0  0  0  0  0  0  0  0  0
    6.1718    4.5712  -16.2746 H   0  0  0  0  0  0  0  0  0  0  0  0
    4.7837    3.4312  -16.2952 H   0  0  0  0  0  0  0  0  0  0  0  0
    6.0770    2.7686  -20.1675 H   0  0  0  0  0  0  0  0  0  0  0  0
    5.9430    4.9213  -18.7251 H   0  0  0  0  0  0  0  0  0  0  0  0
    3.5175    3.0557  -18.4917 H   0  0  0  0  0  0  0  0  0  0  0  0
    8.2863   -4.8601  -16.5211 H   0  0  0  0  0  0  0  0  0  0  0  0
    8.8150   -3.8377  -17.9001 H   0  0  0  0  0  0  0  0  0  0  0  0
    8.5682   -3.1026  -16.2798 H   0  0  0  0  0  0  0  0  0  0  0  0
    4.5559   10.6792  -22.3017 H   0  0  0  0  0  0  0  0  0  0  0  0
    3.9259    9.7857  -20.8766 H   0  0  0  0  0  0  0  0  0  0  0  0
    5.1452   11.0859  -20.6544 H   0  0  0  0  0  0  0  0  0  0  0  0
    5.2481    8.5482  -23.4013 H   0  0  0  0  0  0  0  0  0  0  0  0
    6.3625    7.4125  -22.5680 H   0  0  0  0  0  0  0  0  0  0  0  0
    4.6614    7.5709  -22.0131 H   0  0  0  0  0  0  0  0  0  0  0  0
    5.1719   -4.3698  -20.9852 H   0  0  0  0  0  0  0  0  0  0  0  0
    3.6042   -3.5670  -20.6320 H   0  0  0  0  0  0  0  0  0  0  0  0
    4.1373    2.0923  -21.4730 H   0  0  0  0  0  0  0  0  0  0  0  0
    3.4349    1.2073  -20.0765 H   0  0  0  0  0  0  0  0  0  0  0  0
    5.2024    6.4722  -16.2198 H   0  0  0  0  0  0  0  0  0  0  0  0
    3.9168    7.5004  -16.9385 H   0  0  0  0  0  0  0  0  0  0  0  0
    6.8242    9.7418  -21.8834 H   0  0  0  0  0  0  0  0  0  0  0  0
    3.6941    5.8898  -18.6641 H   0  0  0  0  0  0  0  0  0  0  0  0
    6.7686   -3.9926  -21.6236 H   0  0  0  0  0  0  0  0  0  0  0  0
    3.2667    4.9349  -19.8709 H   0  0  0  0  0  0  0  0  0  0  0  0
  1  3  2  0  0  0  0
  1  4  1  0  0  0  0
  2  5  2  0  0  0  0
  2  6  1  0  0  0  0
  3 12  1  0  0  0  0
  4 13  2  0  0  0  0
  5 15  1  0  0  0  0
  6 16  2  0  0  0  0
  7  8  2  0  0  0  0
  7 14  1  0  0  0  0
  8 18  1  0  0  0  0
  9 12  2  0  0  0  0
  9 13  1  0  0  0  0
 10 14  2  0  0  0  0
 10 17  1  0  0  0  0
 11 15  2  0  0  0  0
 11 16  1  0  0  0  0
 12 24  1  0  0  0  0
 13 27  1  0  0  0  0
 14 28  1  0  0  0  0
 15 29  1  0  0  0  0
 16 30  1  0  0  0  0
 17 18  2  0  0  0  0
 17 27  1  0  0  0  0
 18 34  1  0  0  0  0
 19 21  1  0  0  0  0
 19 36  1  0  0  0  0
 20 22  1  0  0  0  0
 20 36  1  0  0  0  0
 21 23  1  0  0  0  0
 21 28  1  0  0  0  0
 22 23  1  0  0  0  0
 22 31  1  0  0  0  0
 23 35  1  0  0  0  0
 25 30  1  0  0  0  0
 26 30  1  0  0  0  0
 29 31  1  0  0  0  0
 32 36  2  0  0  0  0
 33 36  2  0  0  0  0
  1 37  1  0  0  0  0
  2 38  1  0  0  0  0
  3 39  1  0  0  0  0
  4 40  1  0  0  0  0
  5 41  1  0  0  0  0
  6 42  1  0  0  0  0
  7 43  1  0  0  0  0
  8 44  1  0  0  0  0
  9 45  1  0  0  0  0
 10 46  1  0  0  0  0
 11 47  1  0  0  0  0
 19 48  1  0  0  0  0
 19 49  1  0  0  0  0
 20 50  1  0  0  0  0
 20 51  1  0  0  0  0
 21 52  1  0  0  0  0
 22 53  1  0  0  0  0
 23 54  1  0  0  0  0
 24 55  1  0  0  0  0
 24 56  1  0  0  0  0
 24 57  1  0  0  0  0
 25 58  1  0  0  0  0
 25 59  1  0  0  0  0
 25 60  1  0  0  0  0
 26 61  1  0  0  0  0
 26 62  1  0  0  0  0
 26 63  1  0  0  0  0
 27 64  1  0  0  0  0
 27 65  1  0  0  0  0
 28 66  1  0  0  0  0
 28 67  1  0  0  0  0
 29 68  1  0  0  0  0
 29 69  1  0  0  0  0
 30 70  1  0  0  0  0
 31 71  1  0  0  0  0
 34 72  1  0  0  0  0
 35 73  1  0  0  0  0
M  END
> <OMEGA_C>
EmmSQGCtKcD2NobB0QYBQTXCAUH3vpPBjVa9QBoVOsB6a4PB/2iDQCk4QMCWc5DBsVHjQH/J70AO
Ko3Bz771QHPqCkH2j53BBvvHQPppoD6Gba7BQlfeQEiKXL+rDrHBZKPJQJe2esDV4ZTBPfGSQNTF
gb/a1qTBNL+rQDc7AEERQ5rBYnvYQCWIZcA3pYrBWMSfQJ2LZcD975fBOqGiQO4ucT5CJ6jBqg64
QAt07kAxXpDBMpHKQIdACkGw4aDBcD6oQB/gDMBuuafByizPQM5wB8DJja3BIQy5QLJ7uz8Fm5PB
BQ60QCMndUCNBofBZ2OnQE2nFUDY5JzB+gqjQD8JkECZUJHBVOKKQHjLX0DjlpjB9UsDQdhmd8A5
4IfB3PiZQMxTJEEbgarBI8WwQOzGAUFOcbPBBhqWQD3aYcChtqPBRdWLQIaCvj8Kq6TBYwyXQEMH
2UD3RInBzjm+QAi8E0GhsavBWEqEQIrSskCni47Bj/X6QJ8BRUA5wZDBCL3fQECC2j+G8IDBBpTm
QDWBTsDE0K/B4wJ0QNAuh0AefqHBT2LXQNahH0A6oorB2zR6QCXpC8AahYDBgpERQUdOAkE3Q5HB
snrJQKBuJcDDgXfBNMVEQEoQNcAFlZLBStzsQFyl4UBzpoXBBrkGQVZ9EkEllaLBG2bTQGDDoj9G
NbHBQDv7QPOmTb+qxrXBanneQCC0jcDobprBKopsQMw8iL9WCKDBy7qKQIjx/kBFyZzBKTieQEyj
gD81QY/BkMXNQCYCLT/44pbBPn/FQPxGkkBhMoLB5xOZQJCZW0CTXILB+3bCQFUxMUAUV6HBPi2+
QFJ7nUAOzZXBRh9hQNSPQ0Dv7pPBxZQEQbKFm8BLK4TBYwoNQUGcdcBlM4/BUxcJQSORRsD8PILB
GMqRQB3eKkH1abLBHUJ7QBiSHEFGA6fB1KWkQLdfMUE1PKXBLPCnQJbFCEHFNbvBvZnLQNcy7UAu
i7TBhiqVQM5E8kDEGrDBLIClQDHVi8Cg4afBp6tmQHtKZMBlDqXBsGSEQKHoBUCxyKvBktVbQLCJ
mj+8nKDBNHqmQGccz0ApwoHBmax6QJ0D8EAegofBil/aQGneG0FEEa/BymxsQDl5vED/T5XBbpjY
QPmGf8Ak/azBtBFRQO7qnUCY957BrlOuQMiSKsB/yYTBJ4wBQT/6AEEiCZPBXoiDQB59K8A5PIHB
GJW4QHjGScB4A4/BDhrjQDXH7kBNvIzBVWn4QJmHCkGW4JzBfBfBQCDkeT5S9K3Bse3YQEBcYL/H
JrHB7DFaQGqUasDWJ5LBG32TQKCpmL+9DKPBmY2tQM6zAEFMMZrB4ElGQAhET8DZtofB6qKXQI7q
ZcDU4pXBn5meQKCxuj0P0qbBiUC4QKmP7kDzRpDB1ZjNQK2UCkFhf6DBkeSrQKoAFcD+FqbB57bO
QFr9CcDgNa3BMMu3QE7KuT8avpLB+ruzQC6IeEBMB4fB2g+kQGT1D0DzLZzBCNShQOcJkEDFcZHB
/L2IQKA2XUA/NJjBMrbVPxhBU8D6voPBsVCeQCbkJEE/cqrBN3q3QIPNAkGTbLPB96+gQHr2bcCT
saHBFLuGQJQtqD+x7qLBRfGVQNCL2UA5gYnBORTDQNh9FEGLV6vBCWqDQGGBs0A+7o7BYY/5QGpu
RkAHDJHBg+HgQKFx5z9Xj4DBPQznQFCdTcBrU7DBAX9vQANAhECdWKHB3wDXQFSMIkDYcIrBODvH
QLHmEcCXTX/BNfMRQYYCAUFJUZDBq/d2QF64EMA/DnPBQojZQHM1TMAsmpHBiFzrQIw04ECiLYXB
1osIQYTcEUEGsKHB9TjJQIainD9G+LDBIEHzQAaYQb97qrbBTWEoQMKJgcCqTZfBQYBwQCD3p7+R
0Z3B1taMQCxfAEFF+ZzB7vKdQKCtgD+p843Bt23MQGBzJz8a7ZXBEWTFQNLDlEDTgYLBmTWZQLsN
YEBuHoLBRgW+QMIUKEAcTaHBsJW8QGRznEBKP5bBEeJcQKoRRECMRZPBBASTP82VF8Dv2YXBrOyT
P4jkhMBCf4fBAkbVPyxQW8D+AXbB85WXQMSzK0FhYrLBA3aBQEbiHEFmYqfB77GnQHTGMUHK7aTB
xPKvQAYVCkFANrvBYrrSQGSe70CDU7TBN3mbQK3D80DPgLDBJb+7QDbqjMBh9qLBozeEQJZzg8AE
06XBC3t1QAys7z9O5anB6SpXQJuZfT+Z9p3BIB6kQId4z0CV2oHBwZJ4QMne8ED1/IfBM6/fQBzh
HEENS67B7t9sQCNXvUBL0ZXBbI7cQJgzgMDhEq3BXPdNQJPrm0AtEp/BaWmqQJTQJsDeEYXBIG39
QFx9A0EVypTBbqJ+QO04J8Dvv4HBZIO1QAMsR8CnLo/Bp/bhQAh48kCWc43ByxvtQGdOC0F8kJ7B
5STCQG/Zgz6lFK7BM+/ZQKGUX7+4ELHBOpRUQJstaMCQq5LB69eSQO4PlL8/cKPBv+KlQFPn/UBw
l5nBoPE+QJS9S8BbVYjB9BuVQGO6Y8ArMJbBiL2eQPiY+T21NKfBjwK2QC1K7kCU24/BXTLBQAWu
CEG7EKHBcSWrQHdpE8BFSabBa7/OQFtzCcBeLq3Bmva2QPZKuD9TC5PBmFK0QFIidUCx9YbBQCKk
QIVREUDUaZzBdiSiQCSaj0DlJ5HBdQSJQG+JXkDnR5jBTKrFP6hFT8BMnYTBmT7HQCA+BkFvIrXB
r0WuQM6YKEGbVqzB7AmfQKcZbMCB8KHB8hmHQBIRrj+8d6PBI6iXQMyc10C5XojBv2iuQB8IEEFy
rqvBffODQJdBskAU7I3BTpz5QHr3QkD5DpHB/NjfQPCd3T+NxYDBGdbmQIzZTcClJrDB7ONxQCUs
hkAAVqHBMKrWQJAuH0DgkorBXOPCQEmlDcArsH/BmnsPQetcBUFv7ZLBiDxtQH1+C8C7R3TB6q3W
QA8tSsAClZHBUH3uQIkD5kB+BobB5w0BQfZLE0G1JKTBVgTLQIDCnT8CELHBbPv0QC/dQ7+WX7bB
D6ojQFivgMBW5pfBcS9uQPK4ob80XJ7B2yyEQKLq+kDFV5vBb6WcQAV5gD8TW47BKxbLQPQxIj8g
SpbBZYTGQP5vkkC3XILBfdWZQOGZXEDKCoLBqJC+QEfkKUDdWKHB15+8QGU3nUBS2ZXBAW9cQNsD
RUAXjZPBrsuDP7PVE8Aw6obB8iyFP18ag8CaXIjB7hrCP0JdVsBduXfBYiO5QJLDC0GptbzBgu7o
QFlIC0H+urTB3GjFQKJf6UCotrTBsZ2gQP2iLUE0DLTB8NiaQDMlL0E7xaXBkkLPQIWWLkEIqqvB
buu5QFxSjMDNEaPBLMCCQKMugsB1NabBq/h4QOkq9z9EgarBOhxWQGmdhj+XwZ7BFFqpQHlkzEB9
TIHBVbF8QHXn7UDt2YXBnBSNQLZxCkG3I6zBlOpqQEoKvUCHhpTBJqjbQCkkgMDC9KzBI7FQQKTO
nUDC9p7BXU0uQAX0X8BmR4rBj50AQWfaAkH4Z5LB5iFwQCwEQcBmmoPBWIpBQE2jd8CQ45TB117h
QAUN8UB/XIzBDsj2QLKBDEGnPJzBryvFQMJETj5VMK3BANbbQG8icr8vTbDBqc+sQCJvYcBaXJHB
1eaRQP+nmb8Sm6PBCm6sQAZLAUFkD5rBZfGiQCG5QcChM4fBDKWLQIfkdMCSf5jBcpagQFiToz2u
r6bBEty2QK6h70ClIpDBAlrMQC3jC0GYHaDB/PinQBmUF8DU8qbBubPNQLJTDsBSJK3Bcu24QNNm
vD/5xZLB51+zQEKHeUAqDIfBEK2lQEoQEUD0R5zBx/ShQNCFkEBQhJHBwrmJQPvWXUBCapjBlUjF
QJPjEcBRPIHBCRycQMWKJUFYOKrBQvq4QHQ9BEHPPrPBlwWWQN4jccDrQKTBTvqIQPySqT/TIKPB
TZGUQOuw2UDkh4nB/TjCQCTnFUEx9qrBGeuCQE2Is0CxFY/B3hT6QAzFSEA5yZDBbKXgQGud6j/V
bYDBlrbkQB7AU8AaQbDBJmByQFF/hEDVnqHBPD7XQLUyJEBxVYrBvmHbP+9zZcCZSYfBG+EQQf9f
A0Gpf4/BPgZhQDPEKMC6eHfBnBgPQGTihcCdO5rBBXnpQEJC4kDs0YTBFq0HQTJvFEF/16DB9MfP
QOSllj99x6/BR0f4QCsxWb+xJbXBGcHNQO7dasD3sJPB81prQHAxpb8FrJ7BxgeMQDB1AEG1CZ3B
Ad2eQIldgj8KGo7Bn/vNQLogLj/g35XBC4bEQB9dlUBjcILBE6SYQPZ8YEAbQYLBD9y/QD2ZKUCy
TKHBzN+8QAhdnUDrMJbByVleQNQfREAwnZPBnP3VQBX6PcDzlXfBTEzcQCfO7b/2+YbBF6i2QL+d
u79LKHnBj7qVQBBwLEFoKLLBZCp/QBzkHEE3aqfBQ9mjQKxxMkFZjqTBaLexQHmYC0H5B7vBgTLV
QE6t80BcCLTBXWudQPRW9UDKlbDBDg2uQLkXkcDRMabB7KJxQAHOfMD18ajBeDt8QBe17z9lQqrB
TylaQL4hgz9gVJ7BnYuiQPCRz0Bo3IHBct90QMGB8EDNCYjBp3PeQK/vHkG+pq3Bfo9sQH9ZvUAz
A5bBMZjXQO0eg8Cek63B0R9QQL4AnEBMaJ/BZcwgQGrKXcD4bYvB0vz8QKVuA0E6wJTBPz5eQCR3
PsAMKITBmAs6QCYedMBT45XBg3nhQBBa8kCabI3BD5nsQCaOC0EhdZ7Bz8vEQPESgD70Y63BSwbc
QJQdZb8ISLDBC6KnQKAaWcAkKZHB8KWQQJaBk7+hIaTBE0OlQMza/kDzdJnBANSaQHBlPMCjDYfB
WqmIQEz+bsBqzpjBnHqfQPgRAz4FKKfBwHO1QIGg7kAXzI/BgoHAQD5iCUFC3aDB5YSnQGliFMCf
L6fBRtXNQM8MC8D5JK3Buca2QKuWuT89+5LBGhy0QEkFdkDb9obBeamkQBIhEkBqa5zBszGiQB77
j0DZMpHBfmGJQHlfX0BRY5jB4j+7QPjiDsAPLoDBvAXDQGbbBUE75LTB1BayQL+nKUFZWazBwgiW
QNDobcBeYqTB9f6HQL4isD/ok6PB0QuXQBm/10DcX4jBAZKtQL86EUEtX6vB5LiDQKduskC3Ao7B
BKT5QG+xQkC63ZDBieTeQFqb3j8MnYDB+m/lQGxTUMAGB7DBqZBzQEuchkBzfqHB8E7WQI2OH0A5
dYrBhKG9P96hZMChAInBt04PQWwSBUEE75LBH4BKQKMIKMAvu3jBJfMKQFyFhMBUpZvBzwLuQEyO
5UAVCYbB5dcAQfpuE0E0DqTB6IvPQB/dnD+/8q/BKfX4QHG+S7+W8LTBnDzJQEBjXsBlEZPBp25n
QGJQn7+sdp/BXImDQMv8+0DiM5vBmh2cQO3lgj/dXI7B+9XKQO0aIz9AJZbBWVbGQM7hkkAUYILB
m3aZQFn2XUA4EILBRXC/QHuTKkDePqHBusO8QJrBnUCn1JXBRqpcQCnzRUAcvZPBJHbKQEYSPcBA
eHXBy8nTQHsG47+ET4XBwSurQKqlub8D9HbBXP20QLKzC0EParzBmpDlQKk9CUHN1LTBYNm9QDr/
6EDgOrTBKDukQC/+LkFD/LPBAxyhQDNqMUEnsKXBQSrUQDsILkHsEazBCByvQGAUj8CYtqXBVId0
QLpqfMCMeqnB8z98QEsQ+T96sKrBV/dWQBspij/l/p7BVJuoQBF+zEAiSYHB9h97QNDf7UDs34XB
+UaLQL5DDUFwd6vBA+lqQHdDvUDIo5TB/TPYQIFsgcANZa3B5itSQE5CnkCBLJ/B

> <OMEGA_E>
yFCJPrjjrT781LQ+KIe3PlAFwj4=

> <OMEGA_NBR>
     65729

$$$$
50216761
  -OEChem-04172616093D

 61 63  0     1  0  0  0  0  0999 V2000
    8.2830    7.9447  -18.5806 C   0  0  0  0  0  0  0  0  0  0  0  0
    7.2942    7.4406  -17.7179 C   0  0  0  0  0  0  0  0  0  0  0  0
    7.9144    8.6004  -19.7704 C   0  0  0  0  0  0  0  0  0  0  0  0
    6.3404    0.6025  -21.7315 C   0  0  0  0  0  0  0  0  0  0  0  0
    7.1231   -0.5371  -21.9911 C   0  0  0  0  0  0  0  0  0  0  0  0
    5.5631    8.2240  -19.2495 C   0  0  0  0  0  0  0  0  0  0  0  0
    4.7144   -0.7859  -20.5481 C   0  0  0  0  0  0  0  0  0  0  0  0
    5.9323    7.5843  -18.0510 C   0  0  0  0  0  0  0  0  0  0  0  0
    6.5486    8.7721  -20.1096 C   0  0  0  0  0  0  0  0  0  0  0  0
    5.1383    0.4794  -21.0017 C   0  0  0  0  0  0  0  0  0  0  0  0
    6.7053   -1.8007  -21.5255 C   0  0  0  0  0  0  0  0  0  0  0  0
    5.4901   -1.9269  -20.8152 C   0  0  0  0  0  0  0  0  0  0  0  0
    5.7039    1.6753  -18.4104 C   0  0  0  0  0  0  0  0  0  0  0  0
    5.6438    4.0471  -16.8642 C   0  0  0  0  0  0  0  0  0  0  0  0
    5.1888    2.5600  -19.5817 C   0  0  2  0  0  0  0  0  0  0  0  0
    5.1068    4.7127  -18.1517 C   0  0  1  0  0  0  0  0  0  0  0  0
    4.3070    3.7240  -19.0392 C   0  0  1  0  0  0  0  0  0  0  0  0
    6.8911   10.8769  -21.4975 C   0  0  0  0  0  0  0  0  0  0  0  0
    4.6445    9.7842  -21.5247 C   0  0  0  0  0  0  0  0  0  0  0  0
    6.5861    8.6356  -22.6198 C   0  0  0  0  0  0  0  0  0  0  0  0
    4.3696    1.7132  -20.5917 C   0  0  0  0  0  0  0  0  0  0  0  0
    4.8586    7.0056  -17.1535 C   0  0  0  0  0  0  0  0  0  0  0  0
    6.1675    9.5059  -21.4144 C   0  0  0  0  0  0  0  0  0  0  0  0
    7.4999   -2.9133  -21.7650 N   0  0  0  0  0  0  0  0  0  0  0  0
    4.2019    5.8423  -17.8011 N   0  0  0  0  0  0  0  0  0  0  0  0
    7.8201    3.2128  -18.0960 O   0  0  0  0  0  0  0  0  0  0  0  0
    6.9439    1.8893  -16.0972 O   0  0  0  0  0  0  0  0  0  0  0  0
    3.7654    4.4629  -20.1378 O   0  0  0  0  0  0  0  0  0  0  0  0
    6.6975    2.6756  -17.3122 S   0  0  0  0  0  0  0  0  0  0  0  0
    4.8820   -3.6314  -20.1990 Br  0  0  0  0  0  0  0  0  0  0  0  0
    9.3271    7.8287  -18.3302 H   0  0  0  0  0  0  0  0  0  0  0  0
    7.5776    6.9443  -16.8016 H   0  0  0  0  0  0  0  0  0  0  0  0
    8.6805    8.9769  -20.4321 H   0  0  0  0  0  0  0  0  0  0  0  0
    6.6587    1.5703  -22.0901 H   0  0  0  0  0  0  0  0  0  0  0  0
    8.0443   -0.4441  -22.5471 H   0  0  0  0  0  0  0  0  0  0  0  0
    4.5193    8.2981  -19.5165 H   0  0  0  0  0  0  0  0  0  0  0  0
    3.7918   -0.8788  -19.9943 H   0  0  0  0  0  0  0  0  0  0  0  0
    4.8477    1.2614  -17.8577 H   0  0  0  0  0  0  0  0  0  0  0  0
    6.3138    0.8524  -18.8115 H   0  0  0  0  0  0  0  0  0  0  0  0
    6.2213    4.7812  -16.2832 H   0  0  0  0  0  0  0  0  0  0  0  0
    4.8009    3.6819  -16.2590 H   0  0  0  0  0  0  0  0  0  0  0  0
    6.0555    2.9906  -20.1045 H   0  0  0  0  0  0  0  0  0  0  0  0
    5.9595    5.0944  -18.7324 H   0  0  0  0  0  0  0  0  0  0  0  0
    3.4945    3.2925  -18.4362 H   0  0  0  0  0  0  0  0  0  0  0  0
    6.6088   11.3851  -22.4313 H   0  0  0  0  0  0  0  0  0  0  0  0
    6.5979   11.4987  -20.6388 H   0  0  0  0  0  0  0  0  0  0  0  0
    7.9795   10.7186  -21.4810 H   0  0  0  0  0  0  0  0  0  0  0  0
    4.4341   10.3062  -22.4698 H   0  0  0  0  0  0  0  0  0  0  0  0
    4.0953    8.8314  -21.5021 H   0  0  0  0  0  0  0  0  0  0  0  0
    4.3245   10.4120  -20.6800 H   0  0  0  0  0  0  0  0  0  0  0  0
    6.3188    9.1501  -23.5546 H   0  0  0  0  0  0  0  0  0  0  0  0
    7.6730    8.4684  -22.5914 H   0  0  0  0  0  0  0  0  0  0  0  0
    6.0649    7.6681  -22.5719 H   0  0  0  0  0  0  0  0  0  0  0  0
    4.1587    2.3203  -21.4844 H   0  0  0  0  0  0  0  0  0  0  0  0
    3.4221    1.4090  -20.1229 H   0  0  0  0  0  0  0  0  0  0  0  0
    5.3158    6.6810  -16.2071 H   0  0  0  0  0  0  0  0  0  0  0  0
    4.1033    7.7789  -16.9497 H   0  0  0  0  0  0  0  0  0  0  0  0
    7.0654   -3.7243  -21.3733 H   0  0  0  0  0  0  0  0  0  0  0  0
    7.6104   -3.0378  -22.7510 H   0  0  0  0  0  0  0  0  0  0  0  0
    3.7672    6.1623  -18.6429 H   0  0  0  0  0  0  0  0  0  0  0  0
    3.2275    5.1731  -19.8079 H   0  0  0  0  0  0  0  0  0  0  0  0
  1  2  1  0  0  0  0
  1  3  2  0  0  0  0
  2  8  2  0  0  0  0
  3  9  1  0  0  0  0
  4  5  2  0  0  0  0
  4 10  1  0  0  0  0
  5 11  1  0  0  0  0
  6  8  1  0  0  0  0
  6  9  2  0  0  0  0
  7 10  2  0  0  0  0
  7 12  1  0  0  0  0
  8 22  1  0  0  0  0
  9 23  1  0  0  0  0
 10 21  1  0  0  0  0
 11 12  2  0  0  0  0
 11 24  1  0  0  0  0
 12 30  1  0  0  0  0
 13 15  1  0  0  0  0
 13 29  1  0  0  0  0
 14 16  1  0  0  0  0
 14 29  1  0  0  0  0
 15 17  1  0  0  0  0
 15 21  1  0  0  0  0
 16 17  1  0  0  0  0
 16 25  1  0  0  0  0
 17 28  1  0  0  0  0
 18 23  1  0  0  0  0
 19 23  1  0  0  0  0
 20 23  1  0  0  0  0
 22 25  1  0  0  0  0
 26 29  2  0  0  0  0
 27 29  2  0  0  0  0
  1 31  1  0  0  0  0
  2 32  1  0  0  0  0
  3 33  1  0  0  0  0
  4 34  1  0  0  0  0
  5 35  1  0  0  0  0
  6 36  1  0  0  0  0
  7 37  1  0  0  0  0
 13 38  1  0  0  0  0
 13 39  1  0  0  0  0
 14 40  1  0  0  0  0
 14 41  1  0  0  0  0
 15 42  1  0  0  0  0
 16 43  1  0  0  0  0
 17 44  1  0  0  0  0
 18 45  1  0  0  0  0
 18 46  1  0  0  0  0
 18 47  1  0  0  0  0
 19 48  1  0  0  0  0
 19 49  1  0  0  0  0
 19 50  1  0  0  0  0
 20 51  1  0  0  0  0
 20 52  1  0  0  0  0
 20 53  1  0  0  0  0
 21 54  1  0  0  0  0
 21 55  1  0  0  0  0
 22 56  1  0  0  0  0
 22 57  1  0  0  0  0
 24 58  1  0  0  0  0
 24 59  1  0  0  0  0
 25 60  1  0  0  0  0
 28 61  1  0  0  0  0
M  END
> <OMEGA_C>
/YYEQfE6/kAZpZTBYGrpQM0Z7kBNvo3BKEP9QFibCUHBKZ7Bp+TKQMY9Gj8f2q3BsvDjQDN/Cb+2
7a/BUQWyQHiVA0H3/pnBBtyWQMQxSb98YqTBzdW9QEWy8kCKaJDByo3RQIhaDEF74KDB72ykQBZ0
9T5vA6jB8JHWQFh+5r9PNKzB0q6vQKWl9r93habBhYa2QD1w1j+ZSJPBm5m0QPuBgUDO6YbBQAqm
QFjWI0BQp5zBC2ujQCzOlkChNpHBtdKJQLpVbkBSUJjBxoPcQPsHLkHj+qvBr5+UQOeLHEGQMqzB
jMHSQGwrCkFu9bTBe9OLQB9J2z/Ru6TBs3mbQJMt4EBnOonBhVzFQFEYGEG8UKvB2f7vQMhyOsCv
Hq7BxXWGQM3zukCnaI7B6D36QFSfTUCFxJDBLDTeQFLU8T8Cx4DBzPxwQDTQjkBGGqHBFFLWQP88
K0Brf4rBDTmcQPNoaMCUl6HBvjsVQViE+kAqpJLBFXzyQIk33kCfaYbBXuMKQUuhD0HldKPB2BPV
QFX+yD9uuLDBnLUAQdFk475mYLTBHp6QQPfEBEHLIZzBwqxyQPL3YL9i9J/BISCbQBx3oT+C3I7B
lgrKQGE1Wj/7fZbBMBXHQGL/mEDuQ4LBw6CZQICka0B9EoLB6MbBQC5lP0Dv1aDB7LO+QGwFo0D/
25XBGKVfQA+4UkBbfZPBJHvTQHUpNkFmc7PBOyLTQNj6N0ExHKXBE1j/QFh/K0H/2KvB4eONQBzm
JEEgwrPBXQyDQDpNDUE9BKzBKmKKQICXJkG8cKXBWTPKQK1mEkHlb7zBAYn1QJ9+B0Enu7TB+hPC
QAlh9UBQk7TBtxOFQGGAFEAD4KvBhANbQPJZtD+6+6DBthqqQCnL1UAlqIHBmU6DQLLs+ED9mIfB
hhfiQPNabsB+/KrBHIjzQJ1rQsAXArbBfBpxQJwxxUC0JJXBSo9OQKOJpUCjdp7BNF4EQe4z/0A7
8ZTBFM7pQIeQ7kAH6Y3B1fr7QFP9CUFbap7BUxrLQKQPGz8sA67BcjHkQMdzCb8596/BCTqxQFhx
A0Fo6ZnBYsKWQCmoRb8vj6TBsPq9QD+g8kB9YJDBsQLQQNtEDEEy+qDBnGykQBTN+j5xP6jBP7nW
QH/05b+FLKzBk6yvQIwy9b8ajKbB4Ra2QLGp1T+jfZPBkXi0QHi3gECG84bB+OelQChDJEDw0JzB
C3GjQEealkDOL5HBpsWJQEvTbkB5apjB3q/SQA88CkEkDLXBbc3WQG5HLkGzAazBRIeRQA43GkEC
jazBjOaLQHJU3T/BAaXB6UecQHDL30DcDInBFb7CQPOZF0EpcqvBJTnwQGtOOsCQ9q3BQ8SGQLPK
ukAPOo7BTP35QNlaTEBG4pDB387dQNQw7T9R/oDBMqhxQNSRj0DFKaHBDwXWQM/JKUCHpYrBpimc
QJYpZ8BvcqHBPyoVQYoK/EACE5PBU5vzQCu13kCNoobBCfgJQchJEEGQyaPBYmvVQFT/yD9b67DB
0eQAQR315b5GX7TBi6GPQCyBBEEk3pvBxiJyQGZFXL/LMaDBU42aQEULoT8CG4/BlGzJQKMuWD+z
vJbBEgTHQETml0AfOYLBp2qZQGfOaUCOKILBQc3BQJnsP0C+66DBlNC+QAjwokC7x5XBjSRfQEch
U0DNqpPBP2fJQH0qEkFzjbzBtr71QPDSCEE5sbTB4UXEQFdh9EDZu7TB6g7NQJ8fNkGCf7PB6bDL
QCvVN0FrKKXB1eP5QJz2LEFNwqvB6h2KQMRaIkFHIbTB40mCQNBZCkFbeazBOU6FQAbKI0Em1KXB
MqeFQPrSFUCwJqzBUKZaQIcKtz+4XKHBMZmrQNcM1UCpmIHBikiEQEl4+EBJNYfBHD3iQGX/bcDr
y6rBmv3zQAPYQsDj1bXBnBdxQKRHxUCG5ZTBOGFPQARIpkCefJ7BdXrQQBwoCEEDkaLBpgq1QOvA
+EBM6JvBkGLyQGX4E0FUHZ7Bq9u8QDNwwz5cwa/BBKPVQMe2Or9v37LB+vjdQJLSB0HMRozBGw+i
QJuRYb+ebqDBTgO8QGvS90CEvJDBnpH5QDERFEFc6ZLBI72iQKVhnD5OkKbBVCbVQMWS9L8bsazB
9Y+7QBWC/b9xYaPBhR22QD8P0z87yZHB94i0QG4ag0AmhobBK+OlQDPeHECkqJvBprakQPgZl0CP
IpHBOzmLQI5CbUAsOJjB3BELQUS7OUEL+JDBC8IkQfulGkFRO5PBJz0RQb/uH0GN4IHBp9WJQFIH
wz/x1aLB3ZWcQKRC4UBwXInBCiUPQd7RIUGjQI7BzQHuQA3LP8C8zq/BCtCHQF6ru0BBj47B5LX6
QIy1SUCXcI/BF67bQK2A+z9ZPX7BmXZ6QA2sjEBgqaHBFZnVQIbmK0BYPonB8Fy7QDD+YsBlk5rB
bovLQOMlCEEyHqvBsomaQCpL50C1U5/BCpsDQd8UHUFOSqPBvNq9QABapT+KZrTBawzpQKVJLb9A
ArrB/QfjQE2gB0HsuoPBX9mNQArYcb8ecZnBaXCaQKJhoj+CR43BKrjJQM6sTT83jpTBbwrHQCkL
m0AmB4LBMM6YQCjScUBlvYHB/bDBQEJ6MkCpVKDBeX3AQJ+wokDPspXBb7JeQGUKV0CCnpPBABgY
QeKOQ0Edq43BCXkKQaHBO0GUtJnB+oD3QB7QPkFJdY3BJ88xQXxsJEGK64/BX58nQVizCUHWVpHB
4yUkQbi8HEHV9pvBTIUeQaoNKkGEMX7Bu0ICQaY6JUE+LnzBImkUQYwtD0HPZX/BMiF+QG/YBUBF
4KnBibBbQHtRmD8QN57BgeCtQDo41kDVNYLBXZeDQJUm+EAP/IbBzwXqQILFb8CHm6rBfA3lQGb7
UsCUGrfBnvt0QCerxUDyY5XBtAdaQLEgpUD4rJ/BTda4QC4hA0Fx0qfBpselQJea8kAK8Z7B9J/c
QDtvEEFFdKbBJ0DAQOwAAD+f0K/Bdp/YQKmvHr+37rLBhSvbQMR/CUEMO5PBfmugQKDIT7+HYaHB
AHi3QFff90C6nZTBJ/rtQE0XFEHuG5zBwtGjQCCSzj7oEqfBQl7VQL9l6r+kMK3Bo3G5QFL49b/v
UaTBRjezQP9H0D+0k5HBmYexQLlMgUD6t4XB3SumQMkyH0BIbpvB+iOlQE+6lkD/aJDBEeCLQOH5
b0B5/pfBHCwSQa+4LUEA9aTB/x4dQZOwFkGkZ5XBc7QDQe7FNUEDrZLBmSWLQPnczz+UU6PBPRSi
QMrH40D044rBQjAKQaFWI0HdXJrBPM7tQAxPO8C1TLDB8OqJQF1bvECXyo3BbMj4QCNmQkBato3B
fhjUQKQB6j+7gnzBlUWAQDpMj0DUbaHBeJPRQOQgJkA/QYjBE1m1QOABYsCNGZzBrPmrQP52AEHe
uq/BZmmJQEZR30Ae/p/ByRvrQCD3F0EHVq3BQlPDQJRKtz/pHLTB+9btQFAcDb8Du7nBMVLoQL3X
C0G5U4vB5XuKQBifY7+7u5rBQiaWQO+VoD+8m43B1qjGQDyRRj9ETJTBgcjDQFkZmECDzoDBB1WU
QCeAb0AVbIHB0V/DQFmPNEAWjp/BwGXCQM9eoUBAhJTB9uNdQDI/WkDTx5PBBsYfQTlaOEFFPqPB
zUIXQckZIUGziarB2x4FQcgLN0EflKjBLsQqQWuGIUHjKZTBIyoYQdDdD0FRro3BfdkhQem0CUEG
25rBCm4RQfyGQEF+epHBQqXsQP/PPkG8LJbBQ4j9QIoHL0F+7orBcqaCQLwjD0DmUarBpI9bQIma
pT+mQZ/BtdO6QFd320Di/ITBk8mLQFgZ+0CQXofBccHnQGGrbMDyb6vBTWDmQKJnS8AB0bfBxINv
QBPwwkBlK5TB+4tgQIPwp0D9eZ/B

> <OMEGA_E>
mGUSPsDEDD4s8w8/AIsYPw==

> <OMEGA_NBR>
      4277

$$$$
50216760
  -OEChem-04172616093D

 61 63  0     1  0  0  0  0  0999 V2000
    8.2678    7.9980  -18.5679 C   0  0  0  0  0  0  0  0  0  0  0  0
    7.2854    7.4639  -17.7159 C   0  0  0  0  0  0  0  0  0  0  0  0
    7.8915    8.6606  -19.7516 C   0  0  0  0  0  0  0  0  0  0  0  0
    5.5451    8.2385  -19.2414 C   0  0  0  0  0  0  0  0  0  0  0  0
    6.3651    0.5978  -21.7104 C   0  0  0  0  0  0  0  0  0  0  0  0
    4.7051   -0.7887  -20.5754 C   0  0  0  0  0  0  0  0  0  0  0  0
    5.9216    7.5976  -18.0457 C   0  0  0  0  0  0  0  0  0  0  0  0
    6.5251    8.7881  -20.1074 C   0  0  0  0  0  0  0  0  0  0  0  0
    5.1498    0.4781  -21.0033 C   0  0  0  0  0  0  0  0  0  0  0  0
    6.7101   -1.8113  -21.5180 C   0  0  0  0  0  0  0  0  0  0  0  0
    7.1453   -0.5447  -21.9669 C   0  0  0  0  0  0  0  0  0  0  0  0
    5.4768   -1.9334  -20.8390 C   0  0  0  0  0  0  0  0  0  0  0  0
    5.7300    1.6826  -18.4223 C   0  0  0  0  0  0  0  0  0  0  0  0
    5.6557    4.0525  -16.8701 C   0  0  0  0  0  0  0  0  0  0  0  0
    5.2016    2.5663  -19.5881 C   0  0  2  0  0  0  0  0  0  0  0  0
    5.1109    4.7165  -18.1547 C   0  0  1  0  0  0  0  0  0  0  0  0
    4.3129    3.7215  -19.0371 C   0  0  1  0  0  0  0  0  0  0  0  0
    6.7863    8.7039  -22.6079 C   0  0  0  0  0  0  0  0  0  0  0  0
    6.6521   10.9428  -21.4540 C   0  0  0  0  0  0  0  0  0  0  0  0
    4.6090    9.5133  -21.6771 C   0  0  0  0  0  0  0  0  0  0  0  0
    4.3833    1.7152  -20.5961 C   0  0  0  0  0  0  0  0  0  0  0  0
    4.8540    7.0059  -17.1485 C   0  0  0  0  0  0  0  0  0  0  0  0
    6.1416    9.4793  -21.4352 C   0  0  0  0  0  0  0  0  0  0  0  0
    7.5011   -2.9329  -21.7373 N   0  0  0  0  0  0  0  0  0  0  0  0
    4.2017    5.8416  -17.7995 N   0  0  0  0  0  0  0  0  0  0  0  0
    7.8374    3.2314  -18.1008 O   0  0  0  0  0  0  0  0  0  0  0  0
    6.9633    1.8989  -16.1067 O   0  0  0  0  0  0  0  0  0  0  0  0
    3.7552    4.4565  -20.1297 O   0  0  0  0  0  0  0  0  0  0  0  0
    8.3187   -0.4176  -22.6304 F   0  0  0  0  0  0  0  0  0  0  0  0
    6.7160    2.6868  -17.3205 S   0  0  0  0  0  0  0  0  0  0  0  0
    4.8383   -3.6397  -20.2598 Br  0  0  0  0  0  0  0  0  0  0  0  0
    9.3129    7.8997  -18.3140 H   0  0  0  0  0  0  0  0  0  0  0  0
    7.5752    6.9521  -16.8101 H   0  0  0  0  0  0  0  0  0  0  0  0
    8.6521    9.0765  -20.3958 H   0  0  0  0  0  0  0  0  0  0  0  0
    4.4996    8.3124  -19.5019 H   0  0  0  0  0  0  0  0  0  0  0  0
    6.6964    1.5664  -22.0546 H   0  0  0  0  0  0  0  0  0  0  0  0
    3.7694   -0.8801  -20.0439 H   0  0  0  0  0  0  0  0  0  0  0  0
    4.8797    1.2568  -17.8695 H   0  0  0  0  0  0  0  0  0  0  0  0
    6.3476    0.8684  -18.8292 H   0  0  0  0  0  0  0  0  0  0  0  0
    6.2308    4.7894  -16.2903 H   0  0  0  0  0  0  0  0  0  0  0  0
    4.8165    3.6824  -16.2628 H   0  0  0  0  0  0  0  0  0  0  0  0
    6.0619    3.0054  -20.1145 H   0  0  0  0  0  0  0  0  0  0  0  0
    5.9592    5.1022  -18.7392 H   0  0  0  0  0  0  0  0  0  0  0  0
    3.5097    3.2815  -18.4278 H   0  0  0  0  0  0  0  0  0  0  0  0
    6.5195    9.1880  -23.5590 H   0  0  0  0  0  0  0  0  0  0  0  0
    7.8800    8.7046  -22.4905 H   0  0  0  0  0  0  0  0  0  0  0  0
    6.4182    7.6673  -22.6083 H   0  0  0  0  0  0  0  0  0  0  0  0
    6.3703   11.4179  -22.4053 H   0  0  0  0  0  0  0  0  0  0  0  0
    6.2014   11.4990  -20.6188 H   0  0  0  0  0  0  0  0  0  0  0  0
    7.7473   10.9503  -21.3509 H   0  0  0  0  0  0  0  0  0  0  0  0
    4.3992   10.0151  -22.6332 H   0  0  0  0  0  0  0  0  0  0  0  0
    4.2203    8.4848  -21.7099 H   0  0  0  0  0  0  0  0  0  0  0  0
    4.1210   10.0637  -20.8593 H   0  0  0  0  0  0  0  0  0  0  0  0
    4.1733    2.3196  -21.4908 H   0  0  0  0  0  0  0  0  0  0  0  0
    3.4354    1.4134  -20.1267 H   0  0  0  0  0  0  0  0  0  0  0  0
    5.3165    6.6791  -16.2054 H   0  0  0  0  0  0  0  0  0  0  0  0
    4.0945    7.7732  -16.9378 H   0  0  0  0  0  0  0  0  0  0  0  0
    7.0479   -3.7401  -21.3590 H   0  0  0  0  0  0  0  0  0  0  0  0
    7.6376   -3.0573  -22.7201 H   0  0  0  0  0  0  0  0  0  0  0  0
    3.7651    6.1626  -18.6399 H   0  0  0  0  0  0  0  0  0  0  0  0
    3.2133    5.1610  -19.7942 H   0  0  0  0  0  0  0  0  0  0  0  0
  1  2  1  0  0  0  0
  1  3  2  0  0  0  0
  2  7  2  0  0  0  0
  3  8  1  0  0  0  0
  4  7  1  0  0  0  0
  4  8  2  0  0  0  0
  5  9  1  0  0  0  0
  5 11  2  0  0  0  0
  6  9  2  0  0  0  0
  6 12  1  0  0  0  0
  7 22  1  0  0  0  0
  8 23  1  0  0  0  0
  9 21  1  0  0  0  0
 10 11  1  0  0  0  0
 10 12  2  0  0  0  0
 10 24  1  0  0  0  0
 11 29  1  0  0  0  0
 12 31  1  0  0  0  0
 13 15  1  0  0  0  0
 13 30  1  0  0  0  0
 14 16  1  0  0  0  0
 14 30  1  0  0  0  0
 15 17  1  0  0  0  0
 15 21  1  0  0  0  0
 16 17  1  0  0  0  0
 16 25  1  0  0  0  0
 17 28  1  0  0  0  0
 18 23  1  0  0  0  0
 19 23  1  0  0  0  0
 20 23  1  0  0  0  0
 22 25  1  0  0  0  0
 26 30  2  0  0  0  0
 27 30  2  0  0  0  0
  1 32  1  0  0  0  0
  2 33  1  0  0  0  0
  3 34  1  0  0  0  0
  4 35  1  0  0  0  0
  5 36  1  0  0  0  0
  6 37  1  0  0  0  0
 13 38  1  0  0  0  0
 13 39  1  0  0  0  0
 14 40  1  0  0  0  0
 14 41  1  0  0  0  0
 15 42  1  0  0  0  0
 16 43  1  0  0  0  0
 17 44  1  0  0  0  0
 18 45  1  0  0  0  0
 18 46  1  0  0  0  0
 18 47  1  0  0  0  0
 19 48  1  0  0  0  0
 19 49  1  0  0  0  0
 19 50  1  0  0  0  0
 20 51  1  0  0  0  0
 20 52  1  0  0  0  0
 20 53  1  0  0  0  0
 21 54  1  0  0  0  0
 21 55  1  0  0  0  0
 22 56  1  0  0  0  0
 22 57  1  0  0  0  0
 24 58  1  0  0  0  0
 24 59  1  0  0  0  0
 25 60  1  0  0  0  0
 28 61  1  0  0  0  0
M  END
> <OMEGA_C>
4UgEQULv/0Adi5TBACLpQI3Y7kASuo3BT4f8QOyRCkFJA57BS3GxQLnQA0FQ7pnBAq/LQK4KGT/f
rq3BUZCWQMrmSb9+mqTBu329QCgf80CFXZDBV83QQPCbDEHk26DB68qkQE/F9D7GBqjBbrnWQJ3X
57/HJKzBpabkQKhzC79CvK/BuUGvQCl6979EtqbB4Fu3QINg1z/1YJPBL/u0QFaugUDq9YbBvnOm
QN49JEBjtJzBnIyjQGftlkDePJHBrAOKQM4tbkD6S5jBbynZQDhDC0EC3bTBSd7UQM0VL0HNoavB
M32TQE02GEGpaq3B0UOMQNuK2z/axKTBU1SbQDYw4EALMInB14fEQEyrF0FTe6vBwAjwQFi0O8AI
5q3BkXSGQAjuukBWZY7B4Mv6QMbOTkBbzpDBINPeQCsP8z+H2oDBElVwQA2cjkCZCaHBiBkFQWDM
1b4bC7XBSunWQMjzK0BmkIrBB9OaQIDxaMARFKLBrQEVQRbK/EAbg5LBLGjyQPh33kD9eobBH28K
QU45EUGAKqPBpvyPQKH/BEHpA5zB8kjWQKN/yD/kb7DBlD5xQNtQYb/dWaDBXyacQJbdoD+y9I7B
qx/LQIxOXj8lopbBDWPHQCZDmUCPUoLBAyGaQNyra0AhGoLBEPvBQC5ZQEBn6qDBoLG+QEhFo0Dz
6ZXBmJ9gQCoEUkAsbJPBjZ/QQOsBE0HAeLzBIyn8QAJGC0GC7LPBDmLNQLla9UDI3bTBJNnLQJKv
NkH3PbPB8XHGQPP7N0Fi86TBnun3QI00L0GtzqrBWMaMQAQ+IEG2ELXBkQyHQJrBB0H5ra3BO9+D
QB4FIUHT36bBUYuFQPR0FEA67avBzdxbQGjrtD9pA6HBYSCqQOm61UCnpIHBQQaDQOm9+ECngIfB
mYjhQB5db8A636rB5Wb0QD2rQ8DLwrXBrvZwQLAzxUB6HpXBc6ZNQBwnpUCGWp7Bfp4EQeTJ/kC9
AZTBADLpQN/57UBVVI3BRwP+QDFECkE5dZ3B3n6yQGIzBEEkm5nBocrKQD7IFz+UB67BXSeXQJzj
SL9TWaTBwsK9QNQJ80C/F5DBqH7SQAPsDEG5X6DBNIOkQFjd8z7RHajBeIbWQG7O57++Q6zB2sbj
QBp9DL9TG7DBuu2vQCzI9r9ncqbBl/y2QMHj1j8bfZPBwJS0QKNugUAQBofBODmmQH4tJEAG0JzB
QmGjQHLjlkDjTJHBNt+JQBRabkCaaZjB4mDbQLflLkFeXKvBcUaWQKXfGkEGrazBoOXYQMfFCkEA
YLTBpgGMQLKB2z/P4KTBiQSbQCH+30ApHInBSDHHQAY9GEHJ/arBg57vQIq+O8BBLK7Be0+GQIH3
ukCXeY7BH3z6QDsITkAj1ZDBxCfeQH8m8T9L74DBiIhwQDvVjkByKaHBglcEQXWl2b70sbXBbXXW
QFBRK0BAoYrBPuScQFrwZ8DOO6HB+kIVQd4D+0Cy4ZHBe9fxQKMz3UBdF4bBIGsLQSmpEEFhjKLB
6i6RQGHEBUHpxJvBpurUQOB1xz8n9rDBzZ5zQFNrX7/Q1p/Bu7ObQKJcoD+GGI/B0MDKQFNcXT+W
vpbBMPrGQCjkmEA8WILBhpyZQFMxa0BaNILB+dDBQAYYQEBiBKHBI6S+QFMzo0Bk8JXBpQpgQDxR
UkByk5PBAwHTQGazNkEz97LBfBLPQIp/OEFkqKTBKGL+QOaQLUHrt6rB5VGQQEUAI0GNVrTB8ACH
QHUEC0FkxazBY9GIQNN3JEE2HKbBNxLRQAenEkEj/7vB69f7QOBVCUF9mrPBV2HKQEp89UB0M7TB
QliFQKFnFEDOCqzBBElbQAkftT/WIKHBLT+pQD071UAihoHBH7SCQPuY+EAde4fBkK3hQIkvb8CA
7qrB1LryQOhkRMCsD7bBnoRxQL2IxUA5OZXB9PhNQCFwpUBxfJ7B

> <OMEGA_E>
wO/+PRD/Cj4=

> <OMEGA_NBR>
      6582

$$$$
50216762
  -OEChem-04172616093D

 55 57  0     1  0  0  0  0  0999 V2000
    8.2174    7.9920  -18.7239 C   0  0  0  0  0  0  0  0  0  0  0  0
    7.2647    7.4887  -17.8202 C   0  0  0  0  0  0  0  0  0  0  0  0
    7.7991    8.6120  -19.9163 C   0  0  0  0  0  0  0  0  0  0  0  0
    5.4686    8.2214  -19.3050 C   0  0  0  0  0  0  0  0  0  0  0  0
    6.4029    0.6092  -21.7390 C   0  0  0  0  0  0  0  0  0  0  0  0
    4.7450   -0.7514  -20.5700 C   0  0  0  0  0  0  0  0  0  0  0  0
    5.8888    7.6084  -18.1072 C   0  0  0  0  0  0  0  0  0  0  0  0
    6.4208    8.7445  -20.2121 C   0  0  0  0  0  0  0  0  0  0  0  0
    5.1927    0.5061  -21.0203 C   0  0  0  0  0  0  0  0  0  0  0  0
    6.7204   -1.8041  -21.5401 C   0  0  0  0  0  0  0  0  0  0  0  0
    7.1656   -0.5449  -22.0006 C   0  0  0  0  0  0  0  0  0  0  0  0
    5.5008   -1.9059  -20.8337 C   0  0  0  0  0  0  0  0  0  0  0  0
    5.7383    1.6794  -18.4202 C   0  0  0  0  0  0  0  0  0  0  0  0
    5.6345    4.0326  -16.8356 C   0  0  0  0  0  0  0  0  0  0  0  0
    5.2358    2.5811  -19.5838 C   0  0  2  0  0  0  0  0  0  0  0  0
    5.1195    4.7108  -18.1244 C   0  0  1  0  0  0  0  0  0  0  0  0
    4.3374    3.7293  -19.0338 C   0  0  1  0  0  0  0  0  0  0  0  0
    6.5854   10.8066  -21.6729 C   0  0  0  0  0  0  0  0  0  0  0  0
    4.4347    1.7504  -20.6217 C   0  0  0  0  0  0  0  0  0  0  0  0
    4.8605    7.0188  -17.1646 C   0  0  0  0  0  0  0  0  0  0  0  0
    5.9816    9.3941  -21.5252 C   0  0  0  0  0  0  0  0  0  0  0  0
    7.4849   -2.9396  -21.7806 N   0  0  0  0  0  0  0  0  0  0  0  0
    4.2062    5.8353  -17.7767 N   0  0  0  0  0  0  0  0  0  0  0  0
    7.8432    3.2136  -18.0234 O   0  0  0  0  0  0  0  0  0  0  0  0
    6.9140    1.8591  -16.0705 O   0  0  0  0  0  0  0  0  0  0  0  0
    3.8005    4.4793  -20.1270 O   0  0  0  0  0  0  0  0  0  0  0  0
    8.3286   -0.4373  -22.6860 F   0  0  0  0  0  0  0  0  0  0  0  0
    4.6266    9.5089  -21.5947 F   0  0  0  0  0  0  0  0  0  0  0  0
    6.3984    8.6150  -22.5581 F   0  0  0  0  0  0  0  0  0  0  0  0
    6.6998    2.6651  -17.2788 S   0  0  0  0  0  0  0  0  0  0  0  0
    4.8545   -3.5979  -20.2229 Br  0  0  0  0  0  0  0  0  0  0  0  0
    9.2708    7.9028  -18.5028 H   0  0  0  0  0  0  0  0  0  0  0  0
    7.5864    7.0107  -16.9067 H   0  0  0  0  0  0  0  0  0  0  0  0
    8.5349    8.9894  -20.6109 H   0  0  0  0  0  0  0  0  0  0  0  0
    4.4151    8.2922  -19.5317 H   0  0  0  0  0  0  0  0  0  0  0  0
    6.7437    1.5728  -22.0880 H   0  0  0  0  0  0  0  0  0  0  0  0
    3.8183   -0.8282  -20.0208 H   0  0  0  0  0  0  0  0  0  0  0  0
    4.8758    1.2448  -17.8937 H   0  0  0  0  0  0  0  0  0  0  0  0
    6.3651    0.8716  -18.8260 H   0  0  0  0  0  0  0  0  0  0  0  0
    6.2006    4.7614  -16.2369 H   0  0  0  0  0  0  0  0  0  0  0  0
    4.7816    3.6601  -16.2493 H   0  0  0  0  0  0  0  0  0  0  0  0
    6.1074    3.0266  -20.0856 H   0  0  0  0  0  0  0  0  0  0  0  0
    5.9811    5.1001  -18.6866 H   0  0  0  0  0  0  0  0  0  0  0  0
    3.5228    3.2817  -18.4455 H   0  0  0  0  0  0  0  0  0  0  0  0
    6.2542   11.2499  -22.6237 H   0  0  0  0  0  0  0  0  0  0  0  0
    6.2493   11.4381  -20.8373 H   0  0  0  0  0  0  0  0  0  0  0  0
    7.6832   10.7389  -21.6629 H   0  0  0  0  0  0  0  0  0  0  0  0
    4.2581    2.3660  -21.5160 H   0  0  0  0  0  0  0  0  0  0  0  0
    3.4700    1.4583  -20.1813 H   0  0  0  0  0  0  0  0  0  0  0  0
    5.3580    6.7145  -16.2319 H   0  0  0  0  0  0  0  0  0  0  0  0
    4.0970    7.7788  -16.9419 H   0  0  0  0  0  0  0  0  0  0  0  0
    7.0277   -3.7387  -21.3902 H   0  0  0  0  0  0  0  0  0  0  0  0
    7.5925   -3.0661  -22.7668 H   0  0  0  0  0  0  0  0  0  0  0  0
    3.7505    6.1337  -18.6153 H   0  0  0  0  0  0  0  0  0  0  0  0
    3.2526    5.1795  -19.7924 H   0  0  0  0  0  0  0  0  0  0  0  0
  1  2  1  0  0  0  0
  1  3  2  0  0  0  0
  2  7  2  0  0  0  0
  3  8  1  0  0  0  0
  4  7  1  0  0  0  0
  4  8  2  0  0  0  0
  5  9  1  0  0  0  0
  5 11  2  0  0  0  0
  6  9  2  0  0  0  0
  6 12  1  0  0  0  0
  7 20  1  0  0  0  0
  8 21  1  0  0  0  0
  9 19  1  0  0  0  0
 10 11  1  0  0  0  0
 10 12  2  0  0  0  0
 10 22  1  0  0  0  0
 11 27  1  0  0  0  0
 12 31  1  0  0  0  0
 13 15  1  0  0  0  0
 13 30  1  0  0  0  0
 14 16  1  0  0  0  0
 14 30  1  0  0  0  0
 15 17  1  0  0  0  0
 15 19  1  0  0  0  0
 16 17  1  0  0  0  0
 16 23  1  0  0  0  0
 17 26  1  0  0  0  0
 18 21  1  0  0  0  0
 20 23  1  0  0  0  0
 21 28  1  0  0  0  0
 21 29  1  0  0  0  0
 24 30  2  0  0  0  0
 25 30  2  0  0  0  0
  1 32  1  0  0  0  0
  2 33  1  0  0  0  0
  3 34  1  0  0  0  0
  4 35  1  0  0  0  0
  5 36  1  0  0  0  0
  6 37  1  0  0  0  0
 13 38  1  0  0  0  0
 13 39  1  0  0  0  0
 14 40  1  0  0  0  0
 14 41  1  0  0  0  0
 15 42  1  0  0  0  0
 16 43  1  0  0  0  0
 17 44  1  0  0  0  0
 18 45  1  0  0  0  0
 18 46  1  0  0  0  0
 18 47  1  0  0  0  0
 19 48  1  0  0  0  0
 19 49  1  0  0  0  0
 20 50  1  0  0  0  0
 20 51  1  0  0  0  0
 22 52  1  0  0  0  0
 22 53  1  0  0  0  0
 23 54  1  0  0  0  0
 26 55  1  0  0  0  0
M  END
> <OMEGA_C>
n3oDQYy+/0B/ypXBkXjoQJ6j70DBj47B0pH5QJ7KCUGtVJ/BEP+uQNSKA0G3cJrBfOTMQODzGz9f
6a3BzNaXQDtdQL9uj6TBHHG8QOp380B125DBE3fNQIXpC0FcsqHB3CqmQN2PAT+BKajBuw3XQI7s
5r8gUqzB3UzlQJp7C79HAbDBJwawQJ/z879kq6bB9p+3QIH11j+NXJPBI060QBMLgUBFr4bBc4un
QGcwJUCmq5zBydKjQBS/lkDf/pDBycuKQE2sbkBBRZjBUrvSQNPnLEExYq3B2+iNQIwM4D8/+aTB
cYmbQEKa4EAoUYnBjGm/QEdOFkGSM6zB74PvQL8iPMDBPq7BUpmGQN66ukCiNo7BFvv6QF6rTUD0
L5DBgD/dQIr27T9ykIDB6TtzQDVWj0ALBKHBzEEFQRnq3770fLXB5AyUQFAkGEH3wazBWr/MQP7W
CUEFd7TBpWTWQMCQKkD7OorBu1ebQG9EZsB1yKHBM1UUQcbj/EDFBZTBvsPyQMtX4ED2QIfBDo8I
QX/UD0Ew46TBKkiNQMSsBEHgQJzBGszXQOJPyT8xtLDBUV50QC8CVL9/KqDBPgacQG1Wnz80Jo/B
7q7LQG8kXz+lm5bBXWvGQCtdmEAa5YHBzAKZQEc+akCi/oHBAXDDQDazQUBFr6DBhWW/QK4zo0Ay
fpXBHHVhQPMGUkBxkJPBdSLIQGX/M0FB/bTBEvrHQIoCN0HjsqbBCd31QFfSK0GHTa3B/EGIQBps
F0DeIKzBtxNeQPmouj84c6HBpnSrQCPd1kAC24HBBhuDQJXr+ED/iIfBoeLgQIpGb8AJH6vBzPXy
QAA7RMBPIrbBmwdwQN9GxEAg7JTBTytQQL6+pUDLVp7Bo20EQUXD/UAlpZXBf5LpQO6E60DY9Y7B
s5P8QKKEDEEzEJ7B2WixQBCvBkGJlZnBtXvLQLqqFz9ez63BajiXQJtfSr9kY6TBi8q9QFFh80AJ
6JDBqNLQQGMPEUEc4Z/BPf6kQF4/8j5G/KfBJKTWQIZ86L/FRazBGU7kQKT9DL/y86/Bjc2vQEat
978uj6bBof22QF5B1T9gPJPBRpa0QJhtgUDH3IbBfIamQFxYI0C1mJzBmrijQD6GlkBMOpHBABqK
QFBvbUAZQJjB8QvNQNQyGkHLfbPBy3eMQLKe2j8fuKTBbgOcQLJq4EB/m4nBJVLEQKUWIkELE6jB
0o/vQEc2PMDFO67BmumGQITzukCqmI7BlbH6QJulTEB9eZDB4ZPdQAtx8D+wlYDBOMZwQFYijkAZ
B6HBarUEQS4V2r5fdLXBd77bQGcZNEHrQqbBoiuaQNVWJ0GHPKfB9VfWQCucKkDtVIrBCSCcQJ2i
aMDBlqHBCCYVQSfX9kBEUZTB0hHzQAt710BdVYjBR1YKQcSME0F0KaPBT+aPQGK6CEEnb5vBAOPV
QFq/xz8sn7DBHGdzQKc1Yb+785/Bt5GbQEwPnz9e4Y7BL8nKQJibWT8/c5bBdwHHQD78mEBLOILB
4nWZQFPZa0BJDILBSULCQDk8P0DYvqDBSC6/QFdUokAo4JXBZqxgQDOOUUAJX5PBCdTDQAywJkFk
P7nB5FHvQK6bFkHzYrTBwkC6QBCjC0GkBrXBK+uFQF5HFEDk3KvBTRdcQETksz9WA6HBVUCrQGJM
1kC+FoLB+LWDQGry+EAn5ofBfFLhQBLJb8CyG6vBpPPyQAYbRMCFILbBlw5yQKO4xECvYJXB5RVO
QD29pEDAYJ7B

> <OMEGA_E>
wCgaPfDQ2j0=

> <OMEGA_NBR>
      8719

$$$$
50216839
  -OEChem-04172616093D

 72 76  0     1  0  0  0  0  0999 V2000
    8.2854    8.3816  -18.5521 C   0  0  0  0  0  0  0  0  0  0  0  0
    7.2938    7.8559  -17.7067 C   0  0  0  0  0  0  0  0  0  0  0  0
    7.9356    8.9280  -19.8014 C   0  0  0  0  0  0  0  0  0  0  0  0
    5.3850   -0.5851  -20.3421 C   0  0  0  0  0  0  0  0  0  0  0  0
    5.5933    8.4042  -19.3692 C   0  0  0  0  0  0  0  0  0  0  0  0
    6.7478    0.8997  -21.7408 C   0  0  0  0  0  0  0  0  0  0  0  0
    6.2869   -1.6273  -20.6280 C   0  0  0  0  0  0  0  0  0  0  0  0
    5.9440    7.8747  -18.1099 C   0  0  0  0  0  0  0  0  0  0  0  0
    6.5803    8.9525  -20.2261 C   0  0  0  0  0  0  0  0  0  0  0  0
    5.6172    0.6892  -20.9150 C   0  0  0  0  0  0  0  0  0  0  0  0
    7.3900   -1.4300  -21.4554 C   0  0  0  0  0  0  0  0  0  0  0  0
    7.6345   -0.1615  -22.0128 C   0  0  0  0  0  0  0  0  0  0  0  0
    4.8335   -3.4866  -18.5524 C   0  0  0  0  0  0  0  0  0  0  0  0
    4.9363   -3.8085  -20.0587 C   0  0  0  0  0  0  0  0  0  0  0  0
    6.3436   -3.1759  -18.5385 C   0  0  0  0  0  0  0  0  0  0  0  0
    7.4314   -3.7408  -20.8334 C   0  0  0  0  0  0  0  0  0  0  0  0
    5.9818    1.9453  -18.3038 C   0  0  0  0  0  0  0  0  0  0  0  0
    5.7382    4.3265  -16.7941 C   0  0  0  0  0  0  0  0  0  0  0  0
    5.4895    2.7838  -19.5145 C   0  0  2  0  0  0  0  0  0  0  0  0
    5.2550    4.9603  -18.1169 C   0  0  1  0  0  0  0  0  0  0  0  0
    4.5459    3.9354  -19.0431 C   0  0  1  0  0  0  0  0  0  0  0  0
    6.2686   -3.0399  -20.0716 C   0  0  0  0  0  0  0  0  0  0  0  0
    5.5432    8.4507  -22.4786 C   0  0  0  0  0  0  0  0  0  0  0  0
    7.3449   10.1899  -22.3640 C   0  0  0  0  0  0  0  0  0  0  0  0
    5.1070   10.6725  -21.3524 C   0  0  0  0  0  0  0  0  0  0  0  0
    4.7465    1.8652  -20.5230 C   0  0  0  0  0  0  0  0  0  0  0  0
    4.8761    7.2774  -17.2147 C   0  0  0  0  0  0  0  0  0  0  0  0
    6.1588    9.5571  -21.5859 C   0  0  0  0  0  0  0  0  0  0  0  0
    8.0846   -2.6186  -21.5547 N   0  0  0  0  0  0  0  0  0  0  0  0
    4.2900    6.0599  -17.8304 N   0  0  0  0  0  0  0  0  0  0  0  0
    8.0092    3.5696  -17.9040 O   0  0  0  0  0  0  0  0  0  0  0  0
    7.0846    2.2273  -15.9390 O   0  0  0  0  0  0  0  0  0  0  0  0
    4.0651    4.6517  -20.1839 O   0  0  0  0  0  0  0  0  0  0  0  0
    8.7251    0.0437  -22.7865 F   0  0  0  0  0  0  0  0  0  0  0  0
    6.8706    2.9955  -17.1715 S   0  0  0  0  0  0  0  0  0  0  0  0
    9.3198    8.3665  -18.2422 H   0  0  0  0  0  0  0  0  0  0  0  0
    7.5660    7.4379  -16.7488 H   0  0  0  0  0  0  0  0  0  0  0  0
    8.7047    9.3322  -20.4429 H   0  0  0  0  0  0  0  0  0  0  0  0
    4.5336   -0.7537  -19.6994 H   0  0  0  0  0  0  0  0  0  0  0  0
    4.5603    8.3919  -19.6843 H   0  0  0  0  0  0  0  0  0  0  0  0
    6.9313    1.8765  -22.1635 H   0  0  0  0  0  0  0  0  0  0  0  0
    4.1922   -2.6244  -18.3169 H   0  0  0  0  0  0  0  0  0  0  0  0
    4.5421   -4.3424  -17.9258 H   0  0  0  0  0  0  0  0  0  0  0  0
    5.0238   -4.8798  -20.2928 H   0  0  0  0  0  0  0  0  0  0  0  0
    4.1441   -3.3616  -20.6773 H   0  0  0  0  0  0  0  0  0  0  0  0
    6.6157   -2.2505  -18.0096 H   0  0  0  0  0  0  0  0  0  0  0  0
    6.9775   -4.0015  -18.1827 H   0  0  0  0  0  0  0  0  0  0  0  0
    8.1306   -4.2202  -20.1325 H   0  0  0  0  0  0  0  0  0  0  0  0
    7.0458   -4.4922  -21.5382 H   0  0  0  0  0  0  0  0  0  0  0  0
    5.1165    1.5018  -17.7895 H   0  0  0  0  0  0  0  0  0  0  0  0
    6.6470    1.1446  -18.6594 H   0  0  0  0  0  0  0  0  0  0  0  0
    6.2506    5.0863  -16.1858 H   0  0  0  0  0  0  0  0  0  0  0  0
    4.8759    3.9312  -16.2371 H   0  0  0  0  0  0  0  0  0  0  0  0
    6.3622    3.2271  -20.0163 H   0  0  0  0  0  0  0  0  0  0  0  0
    6.1260    5.3694  -18.6497 H   0  0  0  0  0  0  0  0  0  0  0  0
    3.7041    3.4908  -18.4921 H   0  0  0  0  0  0  0  0  0  0  0  0
    5.2442    8.8827  -23.4450 H   0  0  0  0  0  0  0  0  0  0  0  0
    6.2876    7.6583  -22.6459 H   0  0  0  0  0  0  0  0  0  0  0  0
    4.6607    8.0251  -21.9785 H   0  0  0  0  0  0  0  0  0  0  0  0
    6.9812   10.6003  -23.3176 H   0  0  0  0  0  0  0  0  0  0  0  0
    7.7884   10.9974  -21.7629 H   0  0  0  0  0  0  0  0  0  0  0  0
    8.1054    9.4204  -22.5624 H   0  0  0  0  0  0  0  0  0  0  0  0
    4.8071   11.1026  -22.3193 H   0  0  0  0  0  0  0  0  0  0  0  0
    4.2253   10.2458  -20.8517 H   0  0  0  0  0  0  0  0  0  0  0  0
    5.5423   11.4602  -20.7200 H   0  0  0  0  0  0  0  0  0  0  0  0
    4.4958    2.4452  -21.4234 H   0  0  0  0  0  0  0  0  0  0  0  0
    3.8222    1.4914  -20.0583 H   0  0  0  0  0  0  0  0  0  0  0  0
    5.3252    7.0111  -16.2465 H   0  0  0  0  0  0  0  0  0  0  0  0
    4.0805    8.0206  -17.0578 H   0  0  0  0  0  0  0  0  0  0  0  0
    8.1595   -2.8630  -22.5215 H   0  0  0  0  0  0  0  0  0  0  0  0
    3.8610    6.3265  -18.6935 H   0  0  0  0  0  0  0  0  0  0  0  0
    3.4908    5.3528  -19.8991 H   0  0  0  0  0  0  0  0  0  0  0  0
  1  2  1  0  0  0  0
  1  3  2  0  0  0  0
  2  8  2  0  0  0  0
  3  9  1  0  0  0  0
  4  7  2  0  0  0  0
  4 10  1  0  0  0  0
  5  8  1  0  0  0  0
  5  9  2  0  0  0  0
  6 10  2  0  0  0  0
  6 12  1  0  0  0  0
  7 11  1  0  0  0  0
  7 22  1  0  0  0  0
  8 27  1  0  0  0  0
  9 28  1  0  0  0  0
 10 26  1  0  0  0  0
 11 12  2  0  0  0  0
 11 29  1  0  0  0  0
 12 34  1  0  0  0  0
 13 14  1  0  0  0  0
 13 15  1  0  0  0  0
 14 22  1  0  0  0  0
 15 22  1  0  0  0  0
 16 22  1  0  0  0  0
 16 29  1  0  0  0  0
 17 19  1  0  0  0  0
 17 35  1  0  0  0  0
 18 20  1  0  0  0  0
 18 35  1  0  0  0  0
 19 21  1  0  0  0  0
 19 26  1  0  0  0  0
 20 21  1  0  0  0  0
 20 30  1  0  0  0  0
 21 33  1  0  0  0  0
 23 28  1  0  0  0  0
 24 28  1  0  0  0  0
 25 28  1  0  0  0  0
 27 30  1  0  0  0  0
 31 35  2  0  0  0  0
 32 35  2  0  0  0  0
  1 36  1  0  0  0  0
  2 37  1  0  0  0  0
  3 38  1  0  0  0  0
  4 39  1  0  0  0  0
  5 40  1  0  0  0  0
  6 41  1  0  0  0  0
 13 42  1  0  0  0  0
 13 43  1  0  0  0  0
 14 44  1  0  0  0  0
 14 45  1  0  0  0  0
 15 46  1  0  0  0  0
 15 47  1  0  0  0  0
 16 48  1  0  0  0  0
 16 49  1  0  0  0  0
 17 50  1  0  0  0  0
 17 51  1  0  0  0  0
 18 52  1  0  0  0  0
 18 53  1  0  0  0  0
 19 54  1  0  0  0  0
 20 55  1  0  0  0  0
 21 56  1  0  0  0  0
 23 57  1  0  0  0  0
 23 58  1  0  0  0  0
 23 59  1  0  0  0  0
 24 60  1  0  0  0  0
 24 61  1  0  0  0  0
 24 62  1  0  0  0  0
 25 63  1  0  0  0  0
 25 64  1  0  0  0  0
 25 65  1  0  0  0  0
 26 66  1  0  0  0  0
 26 67  1  0  0  0  0
 27 68  1  0  0  0  0
 27 69  1  0  0  0  0
 29 70  1  0  0  0  0
 30 71  1  0  0  0  0
 33 72  1  0  0  0  0
M  END
> <OMEGA_C>
1ZAEQSAbBkG9apTBnmbpQNhj+0BYp43BX/D9QOfYDkFUaZ7BslGsQCHLFb+2vKLBH/yyQM13BkEs
9JrBt+3XQJ5VZj8h7a3BnS7JQClL0L8lBqXBhTW+QKb9+0Af4ZDB55HSQEw9D0Edz6HBJ8CzQBBv
MD8DUqfBwXrsQLMIt7+WpKvB6U30QDFkJb5OGrDBXqyaQLcjX8BEa5TBG/adQC+/c8BKeKDBv/7K
QPdBS8DDTpTBMs7tQIdob8DZqqbBTGu/QNj/+D9BbpLBF5+3QIpyikBYWobBoKmvQF0qMkCwHZzB
QimoQIO6nkBR75DBV3iRQO3ce0BNWJjB95fIQBaNQsCpkqDBCmKxQPQ1B0Eb1LPBSAnrQAMKI0GA
6bLBZWyjQHXCKkGi0arBueOXQFK97j8YL6TBMAmcQLrg6EC/t4nBTBXFQMrpGEHlr6zBsloBQdSW
J8D6b6zBSUeJQFnqwUCvpI7B2yUAQe9zZEBxO4/B4LTiQOGMDkD2BX/BPxWCQGXalECOeKHB0ZkL
QTgUMz3QSrbBG9zbQFW2P0ApX4nBEB4VQQ3dBUEf8JHBCh3yQJED7kCY/YXBgEYLQZJQFUEHi6PB
SBORQAHzQL9SmJ3BVe6RQBdFBkGFeZ3BOM3dQKcw8D/cTrHByiaGQJr2J8D1iJLBf1iRQL/0isAH
aI/BvMKgQD8nnMCdV6LBVZyEQC4kV8Aga6XBrbPTQPgIEMCqE5DBlUffQDoMgMAfdpHB7BYCQcUL
h8BZD6HBIXfhQO6/j8AlTqzBp7qjQPw7wD/bUI7BNLTUQJaBkj9oRpXBrQTIQEfDokB8fIHBJQec
QI2Ze0Ck5YHBEZfLQE+JTkBrIaDBhQjEQBzSq0CqMpXBTQ9tQL1pX0DN75PBXdCnQF8fDkFVj7vB
8DPJQIAQ9UDMKrXBeiSVQKlmAEEO1K/B22XfQLKaKUF6irrBsTr5QFb1L0F7Gq7Buq8BQdG5FkHO
f7TBnNOZQGakMUH6jbLBsTWHQOruI0Fe0KbBo1qxQCFdN0GAwqXBVd2PQFl+HEAGY6vB6J50QEbn
vj93d6DB0GeqQOta4EDd+IHBDpOCQF9UAEF0dojBYI0CQW87N8DuK7TB6Rp3QMxyykBGjJXB8Whf
QA9Kq0BmMZ/BerYEQY6eBUEWRZTBp1fpQOKr+kDikY3Btq/+QB1oDkEbSZ7B0zCsQGLjGb/nsqLB
cHizQDRrBkHZ8prBMfHXQMgYZj9Ota3BNybJQATH0b9wCaXBlD2+QBTD+0Ai3ZDBam7TQAXxDkFR
xKHByaKzQAq3LT+DKqfBVKzsQE49t7/VjqvBmX30QKwpIb7e6a/B8webQMidXsBLcJTBe4CdQDr9
c8DKfKDByqLLQFGCTcCXhJTBof3sQCV5cMAfFKfBzoa/QPLn+T/WVJLBvpS3QGHqikCBXYbBC0Sv
QDnZMUCmB5zBgLCnQNzSnkCp85DBHPWQQGdpe0DXQ5jBlmHIQIe5Q8BDwaDBouHsQHq+IUGHDrPB
5fymQP2nK0FXlqrBdeuvQAW3B0HHm7PBEIGXQNCG7D8zAqTBP6SbQCQJ6UBwxInBzEzGQEzaGEG7
m6zBA3ABQbW2J8DFbqzBHdSIQPEOwkAyro7B9AgAQYFeZkDiaI/B8qfjQBDKEEAJDn/BsUqBQGNV
lEC+Z6HBb7YLQVAsaj2WEbbBFBncQLc2QUBOaYnB7zgVQSg+BUHMuZHBibfxQJ4d7UAo54XBIsYL
QdzLFEG4XaPBOdyQQHcRR79Fmp3BbnaSQN12BkE9gp3BksndQIaQ8D9bBbHBBWWHQJM0JsBNiZLB
rTCRQMFKisD6WY/BC9OfQLlZnMAdUKLBQgyEQN4TV8DtX6XBhoDVQKokE8CaQpDBhV3fQN7ZgcCS
1JHBa3IBQeEqicC/pKHBrgzgQBPojsBx+6zB8BOkQIcDwT+YH47B79zUQH2Pkz8dLJXBoeTHQEF3
o0ALjoHBjTicQDw4fEAc2YHByvnKQGRiTkCkHqDBZ2fDQH7aq0BWSpXBS2JsQNDuXkAty5PB22/h
QBCLKEEQp7rBQPj8QMhHLkGGXq7B0MkBQae0FEHntrTBsYedQFXGMkG6R7LBYWKKQH6wJUFbaqbB
qtK2QO3ZN0HsoKXB0aGmQOzVDkFaULvB+AjGQD6i9EBkBbXBpjSTQHHSAUE7da/BXQePQJLyGkDi
NqvBnF50QC/Huz+4NaDBRKCpQJed4ECG+IHBL0iCQEOBAEH3nYjBWiIDQbu1NcBcMbTBk0F2QLyP
ykAvl5XBsq9dQA+7qkCTI5/B

> <OMEGA_E>
UKoSPlhoDj4=

> <OMEGA_NBR>
      2618

$$$$
50216783
  -OEChem-04172616093D

 78 82  0     1  0  0  0  0  0999 V2000
    8.3317    8.3003  -18.5664 C   0  0  0  0  0  0  0  0  0  0  0  0
    7.3295    7.8032  -17.7157 C   0  0  0  0  0  0  0  0  0  0  0  0
    7.9922    8.8473  -19.8183 C   0  0  0  0  0  0  0  0  0  0  0  0
    5.3870   -0.6426  -20.3816 C   0  0  0  0  0  0  0  0  0  0  0  0
    5.6386    8.3868  -19.3755 C   0  0  0  0  0  0  0  0  0  0  0  0
    6.7203    0.9434  -21.6929 C   0  0  0  0  0  0  0  0  0  0  0  0
    6.3191   -1.6498  -20.7139 C   0  0  0  0  0  0  0  0  0  0  0  0
    5.9791    7.8548  -18.1149 C   0  0  0  0  0  0  0  0  0  0  0  0
    6.6370    8.8999  -20.2404 C   0  0  0  0  0  0  0  0  0  0  0  0
    5.5910    0.6647  -20.8861 C   0  0  0  0  0  0  0  0  0  0  0  0
    7.4646   -1.3627  -21.4804 C   0  0  0  0  0  0  0  0  0  0  0  0
    7.6586   -0.0670  -21.9840 C   0  0  0  0  0  0  0  0  0  0  0  0
    5.0105   -3.8699  -20.5249 C   0  0  0  0  0  0  0  0  0  0  0  0
    6.8480   -3.2551  -18.8189 C   0  0  0  0  0  0  0  0  0  0  0  0
    3.9393   -3.6291  -19.4417 C   0  0  0  0  0  0  0  0  0  0  0  0
    5.7563   -2.9199  -17.7913 C   0  0  0  0  0  0  0  0  0  0  0  0
    7.4155   -3.6686  -21.2406 C   0  0  0  0  0  0  0  0  0  0  0  0
    5.9424    1.9367  -18.2612 C   0  0  0  0  0  0  0  0  0  0  0  0
    5.7411    4.3433  -16.7901 C   0  0  0  0  0  0  0  0  0  0  0  0
    5.4268    2.7532  -19.4759 C   0  0  2  0  0  0  0  0  0  0  0  0
    5.2293    4.9574  -18.1114 C   0  0  1  0  0  0  0  0  0  0  0  0
    4.4943    3.9179  -19.0058 C   0  0  1  0  0  0  0  0  0  0  0  0
    6.3520   -3.1141  -20.2863 C   0  0  0  0  0  0  0  0  0  0  0  0
    4.4994   -3.7861  -18.0115 C   0  0  0  0  0  0  0  0  0  0  0  0
    7.4302   10.0613  -22.4102 C   0  0  0  0  0  0  0  0  0  0  0  0
    5.2402   10.6799  -21.3641 C   0  0  0  0  0  0  0  0  0  0  0  0
    5.5346    8.4233  -22.4679 C   0  0  0  0  0  0  0  0  0  0  0  0
    4.6811    1.8038  -20.4561 C   0  0  0  0  0  0  0  0  0  0  0  0
    4.8973    7.2873  -17.2164 C   0  0  0  0  0  0  0  0  0  0  0  0
    6.2255    9.5067  -21.6016 C   0  0  0  0  0  0  0  0  0  0  0  0
    8.2492   -2.5095  -21.5779 N   0  0  0  0  0  0  0  0  0  0  0  0
    4.2850    6.0753  -17.8223 N   0  0  0  0  0  0  0  0  0  0  0  0
    7.9784    3.5733  -17.9560 O   0  0  0  0  0  0  0  0  0  0  0  0
    7.1211    2.2662  -15.9376 O   0  0  0  0  0  0  0  0  0  0  0  0
    3.9980    4.6197  -20.1485 O   0  0  0  0  0  0  0  0  0  0  0  0
    8.7487    0.2103  -22.7336 F   0  0  0  0  0  0  0  0  0  0  0  0
    3.5457   -3.3947  -17.1293 F   0  0  0  0  0  0  0  0  0  0  0  0
    4.8019   -5.0941  -17.7823 F   0  0  0  0  0  0  0  0  0  0  0  0
    6.8655    3.0094  -17.1772 S   0  0  0  0  0  0  0  0  0  0  0  0
    9.3661    8.2626  -18.2584 H   0  0  0  0  0  0  0  0  0  0  0  0
    7.5941    7.3821  -16.7570 H   0  0  0  0  0  0  0  0  0  0  0  0
    8.7691    9.2302  -20.4635 H   0  0  0  0  0  0  0  0  0  0  0  0
    4.5357   -0.8648  -19.7552 H   0  0  0  0  0  0  0  0  0  0  0  0
    4.6043    8.4034  -19.6857 H   0  0  0  0  0  0  0  0  0  0  0  0
    6.8640    1.9380  -22.0885 H   0  0  0  0  0  0  0  0  0  0  0  0
    5.2254   -4.9480  -20.5619 H   0  0  0  0  0  0  0  0  0  0  0  0
    4.6002   -3.5444  -21.4922 H   0  0  0  0  0  0  0  0  0  0  0  0
    7.6966   -2.5719  -18.6667 H   0  0  0  0  0  0  0  0  0  0  0  0
    7.1781   -4.2917  -18.6567 H   0  0  0  0  0  0  0  0  0  0  0  0
    3.5450   -2.6086  -19.5562 H   0  0  0  0  0  0  0  0  0  0  0  0
    3.1250   -4.3548  -19.5834 H   0  0  0  0  0  0  0  0  0  0  0  0
    6.1467   -3.1046  -16.7796 H   0  0  0  0  0  0  0  0  0  0  0  0
    5.4831   -1.8591  -17.8909 H   0  0  0  0  0  0  0  0  0  0  0  0
    8.0144   -4.4468  -20.7449 H   0  0  0  0  0  0  0  0  0  0  0  0
    6.9470   -4.0862  -22.1439 H   0  0  0  0  0  0  0  0  0  0  0  0
    5.0875    1.5108  -17.7155 H   0  0  0  0  0  0  0  0  0  0  0  0
    6.5934    1.1237  -18.6149 H   0  0  0  0  0  0  0  0  0  0  0  0
    6.2660    5.1116  -16.2034 H   0  0  0  0  0  0  0  0  0  0  0  0
    4.8918    3.9548  -16.2089 H   0  0  0  0  0  0  0  0  0  0  0  0
    6.2911    3.1883  -19.9989 H   0  0  0  0  0  0  0  0  0  0  0  0
    6.0915    5.3483  -18.6717 H   0  0  0  0  0  0  0  0  0  0  0  0
    3.6612    3.4873  -18.4308 H   0  0  0  0  0  0  0  0  0  0  0  0
    7.0723   10.4770  -23.3636 H   0  0  0  0  0  0  0  0  0  0  0  0
    7.9285   10.8517  -21.8297 H   0  0  0  0  0  0  0  0  0  0  0  0
    8.1433    9.2479  -22.6096 H   0  0  0  0  0  0  0  0  0  0  0  0
    4.9457   11.1136  -22.3311 H   0  0  0  0  0  0  0  0  0  0  0  0
    4.3464   10.3080  -20.8418 H   0  0  0  0  0  0  0  0  0  0  0  0
    5.7293   11.4508  -20.7504 H   0  0  0  0  0  0  0  0  0  0  0  0
    5.2430    8.8578  -23.4355 H   0  0  0  0  0  0  0  0  0  0  0  0
    6.2315    7.5890  -22.6359 H   0  0  0  0  0  0  0  0  0  0  0  0
    4.6389    8.0538  -21.9472 H   0  0  0  0  0  0  0  0  0  0  0  0
    4.3682    2.3727  -21.3440 H   0  0  0  0  0  0  0  0  0  0  0  0
    3.7940    1.3894  -19.9547 H   0  0  0  0  0  0  0  0  0  0  0  0
    5.3394    7.0201  -16.2452 H   0  0  0  0  0  0  0  0  0  0  0  0
    4.1173    8.0484  -17.0672 H   0  0  0  0  0  0  0  0  0  0  0  0
    8.5966   -2.6031  -22.5109 H   0  0  0  0  0  0  0  0  0  0  0  0
    3.8537    6.3452  -18.6832 H   0  0  0  0  0  0  0  0  0  0  0  0
    3.4314    5.3274  -19.8646 H   0  0  0  0  0  0  0  0  0  0  0  0
  1  2  1  0  0  0  0
  1  3  2  0  0  0  0
  2  8  2  0  0  0  0
  3  9  1  0  0  0  0
  4  7  2  0  0  0  0
  4 10  1  0  0  0  0
  5  8  1  0  0  0  0
  5  9  2  0  0  0  0
  6 10  2  0  0  0  0
  6 12  1  0  0  0  0
  7 11  1  0  0  0  0
  7 23  1  0  0  0  0
  8 29  1  0  0  0  0
  9 30  1  0  0  0  0
 10 28  1  0  0  0  0
 11 12  2  0  0  0  0
 11 31  1  0  0  0  0
 12 36  1  0  0  0  0
 13 15  1  0  0  0  0
 13 23  1  0  0  0  0
 14 16  1  0  0  0  0
 14 23  1  0  0  0  0
 15 24  1  0  0  0  0
 16 24  1  0  0  0  0
 17 23  1  0  0  0  0
 17 31  1  0  0  0  0
 18 20  1  0  0  0  0
 18 39  1  0  0  0  0
 19 21  1  0  0  0  0
 19 39  1  0  0  0  0
 20 22  1  0  0  0  0
 20 28  1  0  0  0  0
 21 22  1  0  0  0  0
 21 32  1  0  0  0  0
 22 35  1  0  0  0  0
 24 37  1  0  0  0  0
 24 38  1  0  0  0  0
 25 30  1  0  0  0  0
 26 30  1  0  0  0  0
 27 30  1  0  0  0  0
 29 32  1  0  0  0  0
 33 39  2  0  0  0  0
 34 39  2  0  0  0  0
  1 40  1  0  0  0  0
  2 41  1  0  0  0  0
  3 42  1  0  0  0  0
  4 43  1  0  0  0  0
  5 44  1  0  0  0  0
  6 45  1  0  0  0  0
 13 46  1  0  0  0  0
 13 47  1  0  0  0  0
 14 48  1  0  0  0  0
 14 49  1  0  0  0  0
 15 50  1  0  0  0  0
 15 51  1  0  0  0  0
 16 52  1  0  0  0  0
 16 53  1  0  0  0  0
 17 54  1  0  0  0  0
 17 55  1  0  0  0  0
 18 56  1  0  0  0  0
 18 57  1  0  0  0  0
 19 58  1  0  0  0  0
 19 59  1  0  0  0  0
 20 60  1  0  0  0  0
 21 61  1  0  0  0  0
 22 62  1  0  0  0  0
 25 63  1  0  0  0  0
 25 64  1  0  0  0  0
 25 65  1  0  0  0  0
 26 66  1  0  0  0  0
 26 67  1  0  0  0  0
 26 68  1  0  0  0  0
 27 69  1  0  0  0  0
 27 70  1  0  0  0  0
 27 71  1  0  0  0  0
 28 72  1  0  0  0  0
 28 73  1  0  0  0  0
 29 74  1  0  0  0  0
 29 75  1  0  0  0  0
 31 76  1  0  0  0  0
 32 77  1  0  0  0  0
 35 78  1  0  0  0  0
M  END
> <OMEGA_C>
fE4FQSnOBEHkh5TBOYvqQOWz+UDAuY3BcMD/QIWODUHli57BpWKsQMCAJL95DaPBqm+0QD8wBkH/
AJvB/QzXQNiBcT8mi63BVTbKQMMs078XtqXBE1W/QK5a+0BL65DBf2LUQCxmDkFn7KHBpemyQLoq
Kj/MFqfBXd7uQItsrr/d16vBNRP1QAo+ib1K36/BFFagQKKrd8ACM6TBriLbQAxTUMAJjZbBHx58
QKNCaMCxiJvBTzO4QG7gOsCQVI7BnUvtQI/JasCs7KnBCyi+QI3m9z/qFpLBv7a3QAT8ikAUUobB
LqitQLszMECWzpvBhFanQAijnkA+5JDBFNGPQA6+ekDcC5jBykPLQKZNR8BdSqLBa/uPQKZPcsCn
F5DB5sPtQCv7IEEESLPBlq+nQAXhKkGm6arBXRuxQPjFBkFXvrPBXsuVQFPh5j/+paPBebacQIYx
6UAju4nB6zbHQIcbGEEa0KzBnfwDQfabIMCFn6zB8R6JQOhowkAclI7BSk//QKywZEDkpY/B7d/j
QNkIEUB0AH/Bi95/QF3Uk0AlMKHBffoLQedMVz533rXB/+xiQClDWcDNCInBV6mZQAoDo8AxQo7B
FbLbQNOZQED/aonBt9sVQZgzBEE7EZLBpALzQOg57EBnDobBMU4MQROvE0E5taPBvCSRQOlgXb+0
Cp7BMFaTQCx0BkFKfJ3BrqXbQKcR+D8ttbDBvDanQCZWnsC2fqTBozSTQE/XYsAT8KvBnkr2QIKa
JMBiVZXBQ7PlQPFVicDUQJXB+OFiQJzyJsADc5zBZ/9HQL9ai8DLqpzBrbHEQACyRsCsPIbBMXWv
QGP27b+KII/B3zoAQQlMjsCL9aXBtk3eQBXCgsDKJrHBzsyiQPhhwT9guY3Bgv3SQNLVjz9k65TB
qoLIQDaSo0CioIHBVYmcQPYafUDRq4HBmlDJQMUNTEDN/Z/Be+3CQHQlq0CLX5XBsFBqQCEwX0BU
cpPBJ1DiQOihJ0G66LrB3bX9QMSgLUE9o67BHksCQYj3E0F+4LTBy0KeQE3RMUErprLB5RWLQG/t
JEHqu6bBLVa3QHc2N0HkAKbBQcanQIO5DUHse7vBJGjHQOXY8kBgFrXB3HGUQFbcAEHak6/BLciL
QKrZF0CAwKrBadByQNzWsT9Eo5/BHNyqQKik4EAx9oHBiMCDQFTGAEGdiYjB1osJQUqZJsBTFrTB
XaN2QM8Ly0A4d5XB65tbQCF6qkCq6p7BQZwFQXAmBUGC0ZTB5nTrQA8v+kA19I3Bzfb/QFbLDUF5
1J7BG4usQGe6Ib8h/6LBYtu0QKwmBkHLJ5vBG8XWQFA5dT+SkK3BOXbKQIxJ0b9SrKXBBijAQCBv
+0AyFZHBxX/UQGNvDkG6I6LBqryyQKqgLD9iFqfBTeruQDQkrL/73qvBY+r0QMT6Rb0U6K/BUIWg
QDaXdsBiFaTBITDcQDtNUMCBpJbBk3t9QIgrZ8A0SpvBdN25QFK2OsA9SI7BDC7tQFimacAFFarB
Iyy9QPp59j+SApLBJ7O3QEvaikD/SYbB+D+tQLQBMEB6vZvBxpinQI6RnkBb4pDBHaaPQOjhekAV
/pfBAp7LQKB8RsB9TqLBrkuRQMVmccBD6Y/B/2uwQPnFBkHk3bPBEyLtQL3zIEFElLPB1HmnQPvj
KkHjAavBS3qVQKKM5z+WpaPBXdOdQCla6UDVzInBbd7GQEkbGEHn/6zBT/wDQet5H8CLuqzBa8uJ
QNq0wkD+mY7BbiX/QOl4YUDIco/BskjiQFAMD0BDtX7BiE1/QJXck0BJIKHBDs0LQefqbT6p9rXB
3rVmQDWYV8AuvojBIJiaQL6oosDXGo7BWvbaQMPgPkDvSonBIDIWQYy1BEFLZ5LBwzn0QC/b7EAj
SobBiUsMQSL+E0EtCqTBonqRQEEXW79w7p3BHK+TQLdMBkHXk53BjDDbQAr8+T9SvLDBikmnQMbP
ncAmbaTBDP2SQLOFYcC+xKvBmJX3QO4NJcDtf5XBOJPmQAZvicDobpXBgT9kQAjPJcA2JpzBAStJ
QFrDisDEVpzBLtLGQJQPR8AzP4bBglixQOFL7b9zAI/B3CwAQcEMjsBwP6bBnszdQOG4gcClT7HB
kIihQK9jwT/ur43B4bTRQEdTjT/x0ZTBtOzIQFVFo0Bao4HBd1GcQIEIfkALnoHBHSzJQFCDS0CM
2Z/BFFbDQPCpqkANYZXBBRBqQJS4X0BtV5PBZcemQFi4DUGklbvBgaHGQPfQ8kDeQ7XBZ+yTQEfi
AEGDn6/BLlrhQAmUJ0FcLrvB2kj9QP+cLUF5/a7BePABQQ3uE0G6ObXBEa+dQJbTMUFBt7LBhhKL
QLD0JEFjvabBnWO3QLo4N0FCJqbBKZqLQLWCGEBzvKrBMQdyQCsesj/LsJ/BUFSsQPCp4EDoFILB
rAqFQPLnAEFQg4jBrYQJQeMXJcDHM7TB+h54QNVgy0COfpXB8VRbQKabqkA42J7B

> <OMEGA_E>
oMxIPQD0Tj0=

> <OMEGA_NBR>
      5404

$$$$
50216755
  -OEChem-04172616093D

 61 63  0     1  0  0  0  0  0999 V2000
    8.2960    8.1331  -18.3993 C   0  0  0  0  0  0  0  0  0  0  0  0
    7.2875    7.6032  -17.5765 C   0  0  0  0  0  0  0  0  0  0  0  0
    7.9620    8.7678  -19.6106 C   0  0  0  0  0  0  0  0  0  0  0  0
    6.5009    0.6623  -21.8299 C   0  0  0  0  0  0  0  0  0  0  0  0
    7.2673   -0.4981  -22.0460 C   0  0  0  0  0  0  0  0  0  0  0  0
    5.6012    8.3335  -19.1822 C   0  0  0  0  0  0  0  0  0  0  0  0
    4.8873   -0.6490  -20.5441 C   0  0  0  0  0  0  0  0  0  0  0  0
    5.9369    7.7071  -17.9645 C   0  0  0  0  0  0  0  0  0  0  0  0
    6.6051    8.8925  -20.0122 C   0  0  0  0  0  0  0  0  0  0  0  0
    5.3055    0.5889  -21.0832 C   0  0  0  0  0  0  0  0  0  0  0  0
    6.8502   -1.7327  -21.5065 C   0  0  0  0  0  0  0  0  0  0  0  0
    5.6589   -1.8089  -20.7491 C   0  0  0  0  0  0  0  0  0  0  0  0
    5.8372    1.7955  -18.5120 C   0  0  0  0  0  0  0  0  0  0  0  0
    5.6504    4.0997  -16.8762 C   0  0  0  0  0  0  0  0  0  0  0  0
    5.3443    2.7013  -19.6751 C   0  0  2  0  0  0  0  0  0  0  0  0
    5.1732    4.8134  -18.1594 C   0  0  1  0  0  0  0  0  0  0  0  0
    4.4344    3.8506  -19.1304 C   0  0  1  0  0  0  0  0  0  0  0  0
    7.3758   10.3492  -21.9987 C   0  0  0  0  0  0  0  0  0  0  0  0
    5.0240   10.5210  -21.1660 C   0  0  0  0  0  0  0  0  0  0  0  0
    5.7955    8.4262  -22.3493 C   0  0  0  0  0  0  0  0  0  0  0  0
    4.5575    1.8585  -20.7224 C   0  0  0  0  0  0  0  0  0  0  0  0
    4.8496    7.0819  -17.1123 C   0  0  0  0  0  0  0  0  0  0  0  0
    6.2126    9.5404  -21.3606 C   0  0  0  0  0  0  0  0  0  0  0  0
    7.6292   -2.8640  -21.7110 N   0  0  0  0  0  0  0  0  0  0  0  0
    4.2353    5.9183  -17.8050 N   0  0  0  0  0  0  0  0  0  0  0  0
    7.8982    3.3634  -18.0418 O   0  0  0  0  0  0  0  0  0  0  0  0
    6.9632    1.9371  -16.1424 O   0  0  0  0  0  0  0  0  0  0  0  0
    3.9531    4.6313  -20.2272 O   0  0  0  0  0  0  0  0  0  0  0  0
    5.2664   -2.9804  -20.1908 F   0  0  0  0  0  0  0  0  0  0  0  0
    6.7544    2.7710  -17.3323 S   0  0  0  0  0  0  0  0  0  0  0  0
    9.3310    8.0532  -18.1012 H   0  0  0  0  0  0  0  0  0  0  0  0
    7.5473    7.1169  -16.6478 H   0  0  0  0  0  0  0  0  0  0  0  0
    8.7448    9.1638  -20.2405 H   0  0  0  0  0  0  0  0  0  0  0  0
    6.8274    1.6086  -22.2353 H   0  0  0  0  0  0  0  0  0  0  0  0
    8.1766   -0.4431  -22.6261 H   0  0  0  0  0  0  0  0  0  0  0  0
    4.5664    8.3881  -19.4863 H   0  0  0  0  0  0  0  0  0  0  0  0
    3.9726   -0.7055  -19.9727 H   0  0  0  0  0  0  0  0  0  0  0  0
    4.9702    1.3387  -18.0124 H   0  0  0  0  0  0  0  0  0  0  0  0
    6.4867    1.0046  -18.9152 H   0  0  0  0  0  0  0  0  0  0  0  0
    6.1804    4.8154  -16.2306 H   0  0  0  0  0  0  0  0  0  0  0  0
    4.7835    3.6911  -16.3363 H   0  0  0  0  0  0  0  0  0  0  0  0
    6.2190    3.1499  -20.1687 H   0  0  0  0  0  0  0  0  0  0  0  0
    6.0492    5.2301  -18.6780 H   0  0  0  0  0  0  0  0  0  0  0  0
    3.5898    3.3958  -18.5920 H   0  0  0  0  0  0  0  0  0  0  0  0
    7.0405   10.7854  -22.9513 H   0  0  0  0  0  0  0  0  0  0  0  0
    7.6811   11.1544  -21.3142 H   0  0  0  0  0  0  0  0  0  0  0  0
    8.2297    9.6805  -22.1822 H   0  0  0  0  0  0  0  0  0  0  0  0
    4.7581   10.9722  -22.1333 H   0  0  0  0  0  0  0  0  0  0  0  0
    4.1579    9.9725  -20.7669 H   0  0  0  0  0  0  0  0  0  0  0  0
    5.3138   11.3127  -20.4595 H   0  0  0  0  0  0  0  0  0  0  0  0
    5.5141    8.8766  -23.3126 H   0  0  0  0  0  0  0  0  0  0  0  0
    6.6383    7.7355  -22.5000 H   0  0  0  0  0  0  0  0  0  0  0  0
    4.9376    7.8738  -21.9384 H   0  0  0  0  0  0  0  0  0  0  0  0
    4.4140    2.4604  -21.6318 H   0  0  0  0  0  0  0  0  0  0  0  0
    3.5771    1.5895  -20.3023 H   0  0  0  0  0  0  0  0  0  0  0  0
    5.2868    6.7449  -16.1609 H   0  0  0  0  0  0  0  0  0  0  0  0
    4.0718    7.8337  -16.9125 H   0  0  0  0  0  0  0  0  0  0  0  0
    7.1986   -3.6504  -21.2681 H   0  0  0  0  0  0  0  0  0  0  0  0
    7.7123   -3.0384  -22.6922 H   0  0  0  0  0  0  0  0  0  0  0  0
    3.8157    6.2492  -18.6502 H   0  0  0  0  0  0  0  0  0  0  0  0
    3.3998    5.3307  -19.8999 H   0  0  0  0  0  0  0  0  0  0  0  0
  1  2  1  0  0  0  0
  1  3  2  0  0  0  0
  2  8  2  0  0  0  0
  3  9  1  0  0  0  0
  4  5  2  0  0  0  0
  4 10  1  0  0  0  0
  5 11  1  0  0  0  0
  6  8  1  0  0  0  0
  6  9  2  0  0  0  0
  7 10  2  0  0  0  0
  7 12  1  0  0  0  0
  8 22  1  0  0  0  0
  9 23  1  0  0  0  0
 10 21  1  0  0  0  0
 11 12  2  0  0  0  0
 11 24  1  0  0  0  0
 12 29  1  0  0  0  0
 13 15  1  0  0  0  0
 13 30  1  0  0  0  0
 14 16  1  0  0  0  0
 14 30  1  0  0  0  0
 15 17  1  0  0  0  0
 15 21  1  0  0  0  0
 16 17  1  0  0  0  0
 16 25  1  0  0  0  0
 17 28  1  0  0  0  0
 18 23  1  0  0  0  0
 19 23  1  0  0  0  0
 20 23  1  0  0  0  0
 22 25  1  0  0  0  0
 26 30  2  0  0  0  0
 27 30  2  0  0  0  0
  1 31  1  0  0  0  0
  2 32  1  0  0  0  0
  3 33  1  0  0  0  0
  4 34  1  0  0  0  0
  5 35  1  0  0  0  0
  6 36  1  0  0  0  0
  7 37  1  0  0  0  0
 13 38  1  0  0  0  0
 13 39  1  0  0  0  0
 14 40  1  0  0  0  0
 14 41  1  0  0  0  0
 15 42  1  0  0  0  0
 16 43  1  0  0  0  0
 17 44  1  0  0  0  0
 18 45  1  0  0  0  0
 18 46  1  0  0  0  0
 18 47  1  0  0  0  0
 19 48  1  0  0  0  0
 19 49  1  0  0  0  0
 19 50  1  0  0  0  0
 20 51  1  0  0  0  0
 20 52  1  0  0  0  0
 20 53  1  0  0  0  0
 21 54  1  0  0  0  0
 21 55  1  0  0  0  0
 22 56  1  0  0  0  0
 22 57  1  0  0  0  0
 24 58  1  0  0  0  0
 24 59  1  0  0  0  0
 25 60  1  0  0  0  0
 28 61  1  0  0  0  0
M  END
> <OMEGA_C>
lrwEQVohAkGuMZPBSjPpQFRN80CVnIzBacj+QBxJDEFu4pzBRAfQQOONKT+so67BlI3oQCoG/75B
XrDBUD2zQOlVBUEOdZnB4GScQFcmJr9GWqTB9/q9QCyg9kBet4/BFV3TQNNHDkEFGaDBocapQAvC
Fj9rqqjB2jTbQFTK3b9EDazBehW1QJCI578w/qXBVcq6QFTU5T+EGJTBSdC0QN8wg0B8AofBugSr
QCXiLECHZp3BA4ulQPkGmkBsRpHBReaNQJtwdkAMC5nBtwbsQHeWJUFZ/a/BTsSgQNlVKEHmU6nB
wHS5QLnRBkF0y7LB0NaRQEbi7T+Ix6XBii+bQDyf4kAU5ojBcs3GQJqlGEFz4qrBRSL0QH9LN8Ag
sK3BwIeHQL1ivUCpcI7BV778QINCV0CFVZDBKNLeQNDy9z+iI4HBFQB9QMIzlEBF0aHBp4aoQD6+
PsC/hqHBxSPYQNBYMUCiqIrB30sVQdzZAEFTz5DBuIPxQJe940CvLoXBheoLQeSeEkGe7KHBuXna
QCrnzT/p4bHBS9MCQQrg4r5aArXBux+SQIg1BkHe45vBWz5+QLeYNL8pyJ/BmgufQA9cqz9aGZDB
MZPPQDGYgD9cUpfB5MXFQPwXmkAs2IHBXxKZQAQ7bEDTsILBYQLHQCyXSUCAWaHBD5PBQBFdp0CO
bJXB3L5lQHdVWUBzvJTB60vhQNSQLEEwnLfBbsv1QH94MkGQg6rBBa0DQXvjGkEZdbHBDUKYQC6O
L0HtELHB2Q2FQHePH0GuIqbB5QqqQM0ANUEBraPBHXOwQIMGDkFIgLrBrWzUQECJ90Dq/7PB7ACe
QAL2+0Djga/BXj+NQNh3HUAFDq3BNu9kQC11yz8La6LBlC2pQHjW10CKSYHBEUyCQLet+kDfTIfB
qlrmQFafacD8JKrBBcv2QE51QsCJibXB2jR0QLn5x0C0M5XBupVZQFuVqkAFM5/Bz6wEQco6AkEt
S5PBiB/pQLdw80CetIzBWJX+QLd7DEHD9JzByHTQQOU4Jj8wdq7BkMvoQNkWA7+oTrDB+RCzQBuQ
BUHKfZnBE62cQFRSK79gR6TBXOC9QAPm9kA+x4/BcSHTQMaLDkHPIqDBxTWqQNGaEj/pfKjBn0Xb
QDIe4L/hGqzBsSa1QEhS6r9PDKbBI8u6QFhm5T914pPB9qa0QHWCg0Bu8YbBqy+rQK0oLECxQJ3B
So6lQPkVmkAGQ5HBzwOOQGMKdkCh/ZjBU9e4QDh5B0G13rLBnqLrQCoUJkG19q/BL36gQPzOKEGY
NKnB9yGSQCqF6z9omqXBcxibQKLY4kDf94jBpW7GQAAbGUHO36rBiQf0QJmFOMDc2K3BmIqHQO6R
vUBThY7Bo6j8QKt+V0DfMJDBR7beQJpH+j9x6YDBlHR9QJC6k0As06HBtVaoQDOFQMCKuqHB+wzY
QGjTMUDrfYrBDD8VQTvmAEHF75DB4X3xQDi840CKTIXBu8wLQWzXEkG5/6HBUwrbQJ2mzD+EnbHB
DfECQZzA6L4687TBRO2RQDN6BkFl5pvBSul+QLM/Or9bsJ/BwfyeQBGHqz9l4Y/BrZnPQEVifz/0
CpfBj4TFQAaLmkCDy4HB+taYQO4QbUBBooLBLj/HQHuaSEBYM6HBB6rBQCRDp0ABaZXBj9xlQB83
WUA/rZTBdMOvQD3dDkH6hrrBTrfTQEbP+ECCKbTBcWGdQIk3/UDDmq/B59HgQFwxLUGJi7fBs471
QFXcMkE7cqrB33ADQWteG0F3gLHBnd6XQGErMEES57DBcM2EQF8CIEGSBKbBSO6pQJVeNUHFgqPB
AGWNQGkdHEAD46zBrqdlQISXyD8pOaLBpxKpQPgV2EBaWoHB3ieCQFvb+kBkYIfBHSPmQC4Ma8A5
YKrBS6j2QEP7QsBQtrXBF8B0QH8ZyEAOUpXBHv5ZQHEyqkCSQ5/BA80EQc2DAkF8MJPBHULpQJy9
80Ajr4zB7Ar/QF3UDEGc2JzBlaicQCl4M7/gLqTBFnS1QFbo7L9IJ6bBlHmzQN+vBUEbjZnBvcDP
QGB9Jj8aTa7BuxW+QCgQ90Bg1I/B2bDTQKnGDkGCH6DBU7mpQEqNDT9VRKjBbXrbQLTu37+yLazB
k4noQORG/75RSbDBw4G6QCwI5T8gtZPBMZq0QBnUg0CT54bBuIWqQFxEK0DmGJ3BcEylQFoYmkDA
P5HB/3uNQKKAdUBA3ZjBfZ7sQKw5JkGu8q/Bf/WgQHiTKEF4ianBnt26QCcvB0GH5bLBzzqRQAjG
5z/XTKXBTy+bQG4W40CuCInBb2rHQAoYGUFD86rBREP0QI5YOMBY9q3BZHuHQBzMvUCPjY7B+WX8
QA6wV0CqNZDB4NjeQGRO/D9tzoDBXOl7QA0jk0AeuqHBKoIGQYr7yL67EbbBQ/HXQKxIMkBQbIrB
WFcVQX89AUFvxZDBH3vxQLjs40A5SIXBwBMMQTRUE0FQ0KHB7TV/QG7vRr8wi5/BL1+rQAXAM8B/
DqPB7maSQEKNBkFYBZzBM9zZQJ/IzT+uZrHBzt2eQKtGqz83oI/BjEzPQB9yfj/o25bB/I/FQCYE
m0DN0YHBNeGYQLvwbUCRiYLBQWrGQIhlR0A8J6HBh1jBQDsBp0CVeZXBGA1lQEkHWUAxd5TBwxni
QK4nLUEJmbfBO+H1QPkmM0FwcarBUhwEQdWpG0G5VrHBHLyYQFK8L0EAT7HBikKFQAyoH0FgcKbB
2KKpQLlNNUH526PB4BCyQD5VDkGVobrBCCXWQCCU+EB+BLTBi3afQMFg/EC6sK/BvqGLQDDgGUBa
k6zBmKlkQPgkwz+vwqHBRBmpQFla2EC5aIHBb06CQLMu+0A4dofBUu8GQbyaKMCBVrLBYdL9QB6A
UMAw86bBkc50QO5GyEA4XpXBxZ1YQEO1qUDBL5/BZLQEQR07AkE5EpPB0efoQCpP80Apl4zB8wz/
QLWcDEGkuZzBE4CcQEJQNL86O6TByTi1QFac7b8wL6bBlWCzQNatBUHqd5nBnN/PQBOjJD/FSq7B
o8a9QDjx9kAHwY/BerzTQN6uDkExBKDBq8epQMeYDD/NR6jBYVnbQDIH4b9TLKzBconoQP4lAr9V
R7DBi8+6QJi45T9bu5PB8su0QOkNhECp9YbBKLuqQBFZK0BFI53Bk06lQBMzmkDhTJHBfqONQC6N
dUCh65jBNYm5QCuNB0G+urLBfxXtQKbiJUFT46/Ba/WhQJEtKUHwLqnBVGORQAaZ5z9VUqXB0K6a
QHD/4kCiBYnB93zHQOI2GUFGyarBURb0QIQCOcCp7a3BQD6HQNWrvUDjlI7BP6D8QJKJWEDUSJDB
PVbfQFg7/j/d14DBnkJ8QPgek0Bay6HB9oAGQe7qz76pEbbBYkTYQFb6MkCPeYrBFzoVQTfaAEHq
opDBB/nwQDBd40DyMYXBYSIMQdMPE0HcrKHBa65+QI1JR7/CoZ/BFQGrQLoONMAMGqPBvlWSQNSm
BkEb9JvBVyDaQFHHzD/MX7HB2zafQGT9qz9YoY/B25/PQPLHfz8o35bB+7XFQH5Xm0C95IHB7SmZ
QGg7bkBZkoLBf5PGQOJ9R0BwNqHBlD3BQLFUp0DUh5XBNVNlQIoHWUCFiJTBnMCwQBvjDkHda7rB
aSLUQM6T+EBZ9bPBis2dQOzU/UBPdK/BHYjiQNT8LEHHfrfBeUr3QBCpMkEqZqrBiQcEQa/6GkFN
YbHBHqGZQMyGMEFY57DBJv+FQHuXIEGs/6XBLKirQNy5NUFOgqPBPMiLQEmsGUAkm6zBsvxkQElD
wz+XxKHBIVioQPZP2EBIXYHBibmBQH0S+0CvgofBk+MGQdJkKcC9R7LBM4P9QKgsUcDA56bBtER0
QDYryEAtZJXBpOVYQBivqUCdQ5/BwmDTQIE/CkFG26HB3lm3QM2T/ECLb5vB3LH0QP0MFkG7IJ3B
ZmnCQEdlBT83tq/BgLPbQGFDFb/ku7LB4oHeQJWICUHAfIvBXySmQI8cQ78NqKDBaiO9QBRE+0CR
OZDByq/6QID1FUGS4ZHBkk+nQCje3D5otKbBV7XaQI2s4r/UoqzBgiPAQP5g7b9Xg6PBZUG4QP7p
4D98upHBah21QOUshkDVUYbBvvWoQOZLJEDhppvB7lSmQBV2mkBj/ZDBMcGNQHY6dEAPT5jBeVgL
QXemO0E/lI/BJkolQVO5HEEYpJHBi9YQQdqZIUF1h4DBOdONQFtB0j/6EaPBcgedQI9Q5EARHYnB
EmMPQSG1I0Ee64zBRwT0QF+PNsDuoa/Bdv+IQOvQvkAgiI7Byln8QO0SUUAL1I7BSMXbQJO+A0Cc
mX3Bh6uAQOBokECYy6HBvY2/QJttPsDUbZ3BWanWQKOGMkCA6YjBQFrPQNxiCkH9b6rBXkydQHwh
60DJEZ/Buv0EQZ9MH0FIH6LBMcTDQEjTtz/WSbTB9OHvQB0xBb/TurnBUaniQJYwCUFj6YLByDKR
QJYYVr8yz5nBGSucQJ4jrz+sbo3BGUbMQG/Waj8XbJTB0QbHQF0LnkAbp4HBXu+YQFxmd0AXvoHB
ijLFQFd1OkDFHaDBaofCQFpTpkDKV5XBBudiQGh1XUA+65PBCSUYQSB5RUEZEIzBejMLQVDVPUGT
T5jB6KX3QF+ZQEHRP4zBWB0yQR5/JkEIHY7B6yEoQVXBC0GdyY/BDCIlQSn4HkFlXprBt+sdQce6
K0GdDnvBCqQBQXzCJkF/1XnBPfkTQTjSEEHNxXzBcrmDQNfKDUA8JarBaM5iQG12pj+nqJ7BVZet
QKoZ2UBN34HB4K6DQGcD+0Cq24bB9IXvQBfUZsA3gKrBmOnrQARsScD8ALfB5b94QB3/yECpbZXB
0UVgQDG6qEAh3p/B

> <OMEGA_E>
sEGyPlArtD6YP7k+0A67PvQDPD8=

> <OMEGA_NBR>
      5262

$$$$
50216819
  -OEChem-04172616093D

 62 64  0     1  0  0  0  0  0999 V2000
    8.3132    8.1305  -18.4170 C   0  0  0  0  0  0  0  0  0  0  0  0
    7.3005    7.6057  -17.5959 C   0  0  0  0  0  0  0  0  0  0  0  0
    7.9846    8.7670  -19.6291 C   0  0  0  0  0  0  0  0  0  0  0  0
    5.6212    8.3412  -19.2064 C   0  0  0  0  0  0  0  0  0  0  0  0
    4.9020   -0.6946  -20.4986 C   0  0  0  0  0  0  0  0  0  0  0  0
    6.4804    0.6511  -21.7902 C   0  0  0  0  0  0  0  0  0  0  0  0
    5.9512    7.7153  -17.9869 C   0  0  0  0  0  0  0  0  0  0  0  0
    6.6291    8.8960  -20.0347 C   0  0  0  0  0  0  0  0  0  0  0  0
    5.2969    0.5551  -21.0289 C   0  0  0  0  0  0  0  0  0  0  0  0
    6.8639   -1.7452  -21.5042 C   0  0  0  0  0  0  0  0  0  0  0  0
    5.6821   -1.8445  -20.7338 C   0  0  0  0  0  0  0  0  0  0  0  0
    7.2603   -0.4956  -22.0308 C   0  0  0  0  0  0  0  0  0  0  0  0
    5.8232    1.7928  -18.4632 C   0  0  0  0  0  0  0  0  0  0  0  0
    5.6497    4.1248  -16.8636 C   0  0  0  0  0  0  0  0  0  0  0  0
    5.3221    2.6799  -19.6358 C   0  0  2  0  0  0  0  0  0  0  0  0
    5.1664    4.8191  -18.1552 C   0  0  1  0  0  0  0  0  0  0  0  0
    4.4166    3.8394  -19.1024 C   0  0  1  0  0  0  0  0  0  0  0  0
    7.4114   10.3507  -22.0190 C   0  0  0  0  0  0  0  0  0  0  0  0
    5.0676   10.5526  -21.1706 C   0  0  0  0  0  0  0  0  0  0  0  0
    5.7988    8.4565  -22.3749 C   0  0  0  0  0  0  0  0  0  0  0  0
    4.5307    1.8138  -20.6603 C   0  0  0  0  0  0  0  0  0  0  0  0
    4.8584    7.1031  -17.1322 C   0  0  0  0  0  0  0  0  0  0  0  0
    6.2398    9.5558  -21.3791 C   0  0  0  0  0  0  0  0  0  0  0  0
    7.6470   -2.8713  -21.7364 N   0  0  0  0  0  0  0  0  0  0  0  0
    4.2372    5.9364  -17.8148 N   0  0  0  0  0  0  0  0  0  0  0  0
    7.8890    3.3642  -18.0304 O   0  0  0  0  0  0  0  0  0  0  0  0
    6.9611    1.9703  -16.1032 O   0  0  0  0  0  0  0  0  0  0  0  0
    5.3002   -3.0380  -20.1974 O   0  0  0  0  0  0  0  0  0  0  0  0
    3.9232    4.6013  -20.2067 O   0  0  0  0  0  0  0  0  0  0  0  0
    8.3966   -0.3883  -22.7595 F   0  0  0  0  0  0  0  0  0  0  0  0
    6.7479    2.7859  -17.3050 S   0  0  0  0  0  0  0  0  0  0  0  0
    9.3472    8.0452  -18.1171 H   0  0  0  0  0  0  0  0  0  0  0  0
    7.5562    7.1189  -16.6663 H   0  0  0  0  0  0  0  0  0  0  0  0
    8.7704    9.1610  -20.2566 H   0  0  0  0  0  0  0  0  0  0  0  0
    4.5873    8.3988  -19.5135 H   0  0  0  0  0  0  0  0  0  0  0  0
    3.9989   -0.7683  -19.9109 H   0  0  0  0  0  0  0  0  0  0  0  0
    6.7887    1.6062  -22.1891 H   0  0  0  0  0  0  0  0  0  0  0  0
    4.9598    1.3434  -17.9508 H   0  0  0  0  0  0  0  0  0  0  0  0
    6.4702    0.9960  -18.8589 H   0  0  0  0  0  0  0  0  0  0  0  0
    6.1853    4.8495  -16.2327 H   0  0  0  0  0  0  0  0  0  0  0  0
    4.7850    3.7271  -16.3121 H   0  0  0  0  0  0  0  0  0  0  0  0
    6.1930    3.1198  -20.1439 H   0  0  0  0  0  0  0  0  0  0  0  0
    6.0408    5.2211  -18.6881 H   0  0  0  0  0  0  0  0  0  0  0  0
    3.5781    3.3939  -18.5469 H   0  0  0  0  0  0  0  0  0  0  0  0
    7.0780   10.7957  -22.9681 H   0  0  0  0  0  0  0  0  0  0  0  0
    7.7313   11.1484  -21.3325 H   0  0  0  0  0  0  0  0  0  0  0  0
    8.2549    9.6707  -22.2093 H   0  0  0  0  0  0  0  0  0  0  0  0
    4.8019   11.0135  -22.1334 H   0  0  0  0  0  0  0  0  0  0  0  0
    4.1962   10.0148  -20.7688 H   0  0  0  0  0  0  0  0  0  0  0  0
    5.3741   11.3358  -20.4616 H   0  0  0  0  0  0  0  0  0  0  0  0
    5.5207    8.9194  -23.3332 H   0  0  0  0  0  0  0  0  0  0  0  0
    6.6289    7.7527  -22.5351 H   0  0  0  0  0  0  0  0  0  0  0  0
    4.9335    7.9156  -21.9643 H   0  0  0  0  0  0  0  0  0  0  0  0
    4.3560    2.4062  -21.5706 H   0  0  0  0  0  0  0  0  0  0  0  0
    3.5650    1.5285  -20.2176 H   0  0  0  0  0  0  0  0  0  0  0  0
    5.2920    6.7718  -16.1770 H   0  0  0  0  0  0  0  0  0  0  0  0
    4.0847    7.8612  -16.9403 H   0  0  0  0  0  0  0  0  0  0  0  0
    8.4372   -2.6190  -22.2948 H   0  0  0  0  0  0  0  0  0  0  0  0
    7.9613   -3.2443  -20.8634 H   0  0  0  0  0  0  0  0  0  0  0  0
    3.8229    6.2619  -18.6647 H   0  0  0  0  0  0  0  0  0  0  0  0
    5.9238   -3.7108  -20.4445 H   0  0  0  0  0  0  0  0  0  0  0  0
    3.3730    5.3059  -19.8853 H   0  0  0  0  0  0  0  0  0  0  0  0
  1  2  1  0  0  0  0
  1  3  2  0  0  0  0
  2  7  2  0  0  0  0
  3  8  1  0  0  0  0
  4  7  1  0  0  0  0
  4  8  2  0  0  0  0
  5  9  1  0  0  0  0
  5 11  2  0  0  0  0
  6  9  2  0  0  0  0
  6 12  1  0  0  0  0
  7 22  1  0  0  0  0
  8 23  1  0  0  0  0
  9 21  1  0  0  0  0
 10 11  1  0  0  0  0
 10 12  2  0  0  0  0
 10 24  1  0  0  0  0
 11 28  1  0  0  0  0
 12 30  1  0  0  0  0
 13 15  1  0  0  0  0
 13 31  1  0  0  0  0
 14 16  1  0  0  0  0
 14 31  1  0  0  0  0
 15 17  1  0  0  0  0
 15 21  1  0  0  0  0
 16 17  1  0  0  0  0
 16 25  1  0  0  0  0
 17 29  1  0  0  0  0
 18 23  1  0  0  0  0
 19 23  1  0  0  0  0
 20 23  1  0  0  0  0
 22 25  1  0  0  0  0
 26 31  2  0  0  0  0
 27 31  2  0  0  0  0
  1 32  1  0  0  0  0
  2 33  1  0  0  0  0
  3 34  1  0  0  0  0
  4 35  1  0  0  0  0
  5 36  1  0  0  0  0
  6 37  1  0  0  0  0
 13 38  1  0  0  0  0
 13 39  1  0  0  0  0
 14 40  1  0  0  0  0
 14 41  1  0  0  0  0
 15 42  1  0  0  0  0
 16 43  1  0  0  0  0
 17 44  1  0  0  0  0
 18 45  1  0  0  0  0
 18 46  1  0  0  0  0
 18 47  1  0  0  0  0
 19 48  1  0  0  0  0
 19 49  1  0  0  0  0
 19 50  1  0  0  0  0
 20 51  1  0  0  0  0
 20 52  1  0  0  0  0
 20 53  1  0  0  0  0
 21 54  1  0  0  0  0
 21 55  1  0  0  0  0
 22 56  1  0  0  0  0
 22 57  1  0  0  0  0
 24 58  1  0  0  0  0
 24 59  1  0  0  0  0
 25 60  1  0  0  0  0
 28 61  1  0  0  0  0
 29 62  1  0  0  0  0
M  END
> <OMEGA_C>
3AIFQYAWAkH/VZPB4p3pQKZh80BixIzBn4H/QM5FDEF1CJ3Bd+CzQMJ1BUHGppnBDN2cQC/QMb8g
/aPBDl/PQAGtJj9AUq7BXHC+QPTj9kAo5Y/BMyHUQPZVDkEBR6DBSICpQJkaDj8zO6jBaqXbQHxi
37+BCKzBpNO1QEIX7L/L3qXBcFToQJDC/b4jP7DBR1e6QGZ55T+1tJPBQsq0QLn+g0C+6IbB9k6q
QOeDK0AlFp3BelOlQDw2mkDrPZHBYVSNQL+4dUCr0ZjBbirtQG6cJUH4JrDBvCmiQIbXKEFpXanB
IZC5QP1NB0HY/7LBgfuQQLAq6D9gSKXBp3ebQEtM40CvDonBbKzHQIjkGEFXCKvBBrT0QMnCN8AT
5K3BUZeHQN72vUCyhI7BjHL8QHdOV0BYPpDBFcHeQCQz/D9l04DBMZupQBdvQsBElKHBnBV7QJM9
k0Bpp6HBgFgGQQ7Jxr5lE7bBFu/XQKVLMkC0cIrBO44VQUO5AEHe75DBVczxQAHO40CkVIXBeVMM
QY+TEkF2DaLBTcuSQHdhBkGaG5zBlO1/QHmuRL+QSZ/BrDzZQGqWzT9Zg7HBb7aeQHnzqz80m4/B
iQvPQCr7fj8a35bB4u3FQNAum0Ce3IHB+R6ZQDyJbkA1f4LBBC3GQHiqR0CtJqHBKU7BQBMTp0A3
gZXBCf9kQF02WUAhYJTBOH/iQEu7LEG5vrfBg2b3QPlfMkH3qKrBAhQEQUO7GkG9rLHBE6mZQEc3
MEE8EbHBO0eGQM08IEF5JqbBt/irQDxfNUFHsaPBPqmwQOa1DkF5qrrB0h/UQDIW+EDgR7TBZN+d
QPdM/UDNtq/BZWSLQIL+GUCdkKzBGClkQCKlwz+gvaHB4lepQNay2ECYaoHBJbaCQJqO+0DLhYfB
v/4GQS+dJ8DZW7LBVMP+QLiiT8BP6KbBi6p0QFhhyEBfUZXBno+9QEJ9bcBWjqPB1t9XQAfKqUAr
FZ/BHGwDQflpA0GsWpLBAKzmQJQ69EAPBozBNif8QLgMDkGL6pvBQNiwQOfZBUGC5JjBIsvTQNL7
Hj/bJK/BI2qdQKhBEL+/wqTB9467QDra9kAwQo/B6NTQQOKjD0FMRJ/BrwatQJx3IT/dWqnBN8na
QCW047+A1qvB+YLqQCXcFb9PcrDB91i0QJfS4b/46aXBHYS+QAiu6T8F8pTBalO1QMlvgkBsXIfB
caKuQDg2MEAYHZ7BtySmQITwmUABipHBSgqQQPymdkAkm5nBjAi4QP00CUGhK7LB4BXpQLhNKEEV
ra7BWXSdQBi5KUHRLKjBuLKWQBQ7+D/W5abBlOmYQP4r4UBHu4jB/ELEQN+XGkEi6KnBBHbxQE3T
PcCrAK3BstSGQOkEvEAYno7BDKr+QPbeW0AfdZDBk8LgQG4U9z/4wIHBzf0HQVIlF78u/bXBtiqA
QEKylED8QaLBkdylQEwBOcBJGKHBgSPaQMqrMkB6HovB2fETQQRmAkEc4I/Bd/ruQBrz40DLsITB
AZAKQfUQFUEIwKDBO9mPQKViBkHEcpvB+gXgQDKbxD9rkbLB4nB/QLLpDb9BV6DBYeeiQIX/qT/9
NZHB1lDUQP2YiD8QQJjBkTzFQLw+mUBZ94HB9KmZQO46aEA8Q4PB23/KQAyzT0DoxqHByA3CQMGR
qEDWdZXB56dqQJeqVkAPgJXB6AqvQOndEEGMxLnBPYfTQIEV/UDpfrPB5tWcQCKw/0BQH6/Bl17e
QACtL0FWNLbBEgDyQGXpNEF29KjBR3wCQfIHHkGBPrDBU+iUQDpiMUHcza/BOgmCQDtqIEGkNaXB
5eylQJMWNkEiSKLB8DOVQDGqIkBzQK7BcBVsQOi83D89GaTBH6qmQMj81UD5IIHBSGp+QFFP+EDr
F4fBw+HhQPAZbcDvRanByDv0QGzcS8DrxrTBjzNzQP/xxkDJXpXBB6INQft0vL8GJ7bBAxtbQBkl
qkDZi5/BTe4DQSKWAkEmlpLBJpLnQF9j80BfJ4zB/0L9QKIHDUGTNJzBlcSxQBWIBUGTApnBlC/R
QIJQJT9RIq/BKbSbQAYiF7/Z2KTB3m68QJVu9kDsVo/BhOjRQPTqDkGqfZ/BIn2qQNYcHz+8U6nB
iX/aQPhq37/40avBCwrpQNK3Cb/ObrDBtrazQBq34r+FB6bBJ9y8QKGU5z+g55TBPKG1QLFOgkBT
YofBvLSsQPQLL0BEDZ7BmPmlQE/LmUBbhZHB5f6OQBixdkAge5nB65bqQNMaJ0EWC6/BLRCfQLAe
KUHyhKjB7su4QPU1CEGkVrLBbcWTQLFn9T/gpabB8L6ZQFFI4UBluIjB5HvFQMC2GUGRLqrBLcTy
QBDYOcAD1qzBiRmHQBwtvEDUgo7BqQX+QJpFWUAAypDBpY/gQH+g9D8e5IHBEUcHQSFIAb+S8rXB
VGN+QLPalEBQHaLBEQmmQKqMOsB5UaHB2Z7ZQDZJMUCpQYvBsHYUQehnAUG/JJDBVM7vQP5m40CH
xoTBMCsLQVGsE0H3IqHBTriQQF1KBkFTgpvBN4HcQBMSyT9OlLLBPrN7QM5DHL9If6DBeE+hQNDU
qT+IBJHB8xPSQNjzhD9ZRJjB7j3GQJkFmUAEGYLBGhqaQBffaECjIoPB9YDIQL9qTUDn46HBZL3B
QKIjqEAHkpXBoGNoQH3SV0BqR5XBbPvfQC1hLkHXmrbB8NnzQLHHM0HmZKnBxBsDQbGiHEEykrDB
eKSWQO6nMEEmMLDBa3GDQLcMIEG+fKXBVOKnQDSRNUGss6LB0+avQB6/D0FI+bnB/grUQEa7+kBc
nrPBmGydQLci/kDHOK/BHumQQBpuIUA/9q3Bm05nQDm61z+rj6PBx5enQL4l1kCwH4HBqlWAQP67
+EApE4fBAuvjQDktasDIIanB4VH2QIT9R8BelrTBuCJzQCYdx0CgOZXBzloNQbkQsL+QHrbBuzVa
QISwqkC8X5/BNQMFQRoPAkHeZ5PBobLpQMtT80CWz4zBsmH/QN0/DEF1F53B6sezQEmGBUF+oJnB
cPucQOBjNL870KPB8eLOQOK4Jj/ePa7Be3i+QGvy9kBG5I/BBvXTQO1WDkGeSqDB5zSpQJQbDD8g
F6jBdKbbQFAf37+DBKzB7ia2QCmy7L+NvKXBPPvnQHEL+74BPLDBNPW5QIUd5T/djJPBcba0QKAh
hECz3IbB1wuqQI39KkDu+ZzBoVSlQOg9mkBjN5HBTUqNQFHNdUDsyZjBZQy5QBHtBkFV6rLBfN/s
QJw9JUEpTrDBzfyhQEi/KEHfeKnBsYuQQN2d5j/gG6XBQI2bQENX40D4ConBC2HHQOyzGEEPFKvB
mLb0QHVnN8BGAK7B4qSHQI8KvkA6g47BxTb8QHQBV0BKM5DBj5feQIE4/T8Ps4DBfXyqQHvCQsAk
W6HBRO17QIc9k0CbrqHB0Q4GQUvUv775I7bBR7vXQK1bMkBzWYrBl5IVQSiwAEHyCJHBufnxQLmr
40A8ZIXBJDsMQW+JEkH+IqLBKaeSQDqFBkGSCZzBrj+AQKbBSL8KDp/BJoHYQAXzzT8UbrHBH0We
QDycrD+oa4/BQ4bOQCi6fD+yrJbB8+XFQHlYm0AN1YHBXQCZQM8Rb0BpcYLBB/vFQB6MRkBaE6HB
FVjBQN4Ip0BzepXBPnFkQCTrWUCUX5TBhAewQOMkDkE3nrrBkYrTQHQ290DvJ7TBLGOdQLTE/EDL
iq/Bph3iQI87LEGP67fBc1H3QF4XMkGV46rBTN8DQZZGGkFizrHB4XGZQC33L0FoNbHBwhWGQA9C
IEH3MKbBPPCrQJxiNUEn4KPBYZuKQIYYGUBDYqzB4KBjQLeEwT+Gf6HBZHqpQIOy2EBVaYHBeM+C
QHOY+0A/fYfBKN8GQQTuJsBCirLBCiv/QPV+T8DREKfBVe50QNx5yEDpUZXBHYK+QLaQbcDsX6PB
X/dYQOz9qUCEK5/BEiz/QBRTBkGnxY/B3gfgQPrt9UBE+YnBjofzQOQKEkEO8ZjB+VGpQGMAB0GS
iJbBU16fQOCFbL4ik6bBeMPdQGB0AT/8x7DBa/20QPie9kBZWI3BmjnIQLLBEkFYYpzBu3m2QEjy
TD/1oavBFAjXQGKa6r/yMKvBgNmvQCdixL+WKKbBs7ztQGTHUb/HsbDBUuLHQHBs9z/lPZfB1Uu2
QChYfkA1EYjBZv63QLofPEDO4J/BleimQGw1mUBb1ZHBGOCUQKLid0Cg3prBOs2vQLpIDkGlc6/B
/TneQM/cLUGA9arB86GSQPPZLEESaqTBeZmmQLi5DkDlOqrBPKOTQKT420C3kofBN6W6QATQHkGR
o6bB4dLnQHpkR8BRVKrBMN+EQOzit0C6cI7B6VsBQeChZ0CmipDBkLDlQPip7z8ei4PBDM+aQIDy
HsCtZaDBdzWDQPT3lkCh96LBL8gJQU6Qjb9Hf7XBYd7eQD4aNUBlSIzBDhIQQeUPBkEbL43B/xHp
QLn440A18oLBZ94FQbCQGkEGZp3BAmKIQBMAB0FbJpnBALGAQIptg7yM/KLB+HXvQGz8pD/kwbTB
LrasQDStqj8DXZTB2SLgQNlVoj9Qw5rB43HDQMj9lECN/oHBBTqbQFqhWkATpYTBRj/TQO2AZEBu
O6LBej/CQLo5q0BkEJXB/GF3QMUmT0B1bJfBlhimQPu2FkEUybbB3ifMQOBmBEFZHrHBenKVQEL7
A0HWtqzBeczSQAf5NUFJOrLB+y3mQA/fOUE116TBben6QANnJEHR3azBqV+JQLZQNUFIxqvBahhw
QCmbIkF+w6HBMx+aQE6UOEEnIJ7Bz7uwQKs+NEBeO7HBMnGDQLqJDUC60qnBfaqhQAX+zkDhLoDB
4jVwQC5f8EBtj4XBMcQBQUaMSsDAT67BCdjsQDU3VcCjnqLBXWBvQJhPxEDzCJXBZcapQMu5U8Ae
4qDBvf9bQDP4qEAK55/BfZezQOQBBUFP8KjBRM6hQJsh9kAl6Z/BmlbWQI4WE0GRxKfBr2fWQBS2
DEGyf5TBKk7YQET/Ij/ZQajBICmXQEvoNL8F86jBZsazQK/h/EAHqpXBCOvnQJldF0F/h53BdXWr
QCzNBj9n36bBxpHcQFrJ3L9e7KzBUuHwQHa1+b7o86rBRpKvQF336b/pB6zB10O2QAOP5j9/WZHB
85m0QF0KiECTEobBgNioQNrQKECfTZvBppmlQADGm0ATy5DBlKuMQGetdkBf/pfBISz9QGLvPUFZ
haDBCbwZQZ9FIEHWSaPBbEcOQTikKkGGvpDBi86QQGdk3T97eqPBXLifQEQE6UDKu4vBZF4GQeXB
J0E2d5zBS730QOeVNcAL06/BoA6JQC1nwEDOPo7BzZX7QLGLUUBJfY7BkkvaQCX2BUBm3HzBkBgO
QUPLub5jpavBRU1+QN0jkUBAf6HB15ybQIslQMBNFa7BQJXVQCuRNEDHkIjBjZWmQA7XAUEAybDB
50CGQCGR4UBNyqDBps7jQDO9GkGnvq7BhsDjQPWRD0GMqIzBC7fnQPMizD+BOqfB6LFpQGK7Sr8p
LajBA3qZQHjWuT+KII3B503JQGM9bz+L8JPBLwrHQEP+n0A1kIHBNH6YQNSMfEAcX4HBRQTGQOk/
QUC1Kp/BhsPBQLBAp0BNOZXBrZFhQF0EX0DegpPB2qMLQWSlSUERx5/BkITzQPmkPEFy9ajBJ7Dh
QAg3Q0G4spvBVtYmQf7sK0EXiaLBlTEfQWmKEEFOcKDBOeQUQXAKH0HtuavBQ1EbQQF1NkGyjJDB
x/UAQc5FMEFVuovBYSUUQaM6G0Gbq43BmxaJQJrWFEBqnqrBnQ1mQHVgrz+OxZ/Bxhm5QAVk4kCK
3YXBEbCIQAXQ/0AuTIjBW2HhQJLPZ8Dp5rDB9TUCQS9AKcASoLbBZxtsQHuPxUAojZTBojIUQfqx
mb/gha3Bn9BbQLgAqUBkmp/B

> <OMEGA_E>
sKjdPqyn9z4wiO0+CFndPnzOQD+EmV0/

> <OMEGA_NBR>
     11586

$$$$
50216855
  -OEChem-04172616093D

 60 62  0     1  0  0  0  0  0999 V2000
    8.3160    8.1129  -18.4126 C   0  0  0  0  0  0  0  0  0  0  0  0
    7.2985    7.5948  -17.5933 C   0  0  0  0  0  0  0  0  0  0  0  0
    7.9943    8.7424  -19.6300 C   0  0  0  0  0  0  0  0  0  0  0  0
    4.8776   -0.6885  -20.5289 C   0  0  0  0  0  0  0  0  0  0  0  0
    5.6608   -1.8275  -20.7703 C   0  0  0  0  0  0  0  0  0  0  0  0
    5.6277    8.3265  -19.2144 C   0  0  0  0  0  0  0  0  0  0  0  0
    6.5181    0.6126  -21.7676 C   0  0  0  0  0  0  0  0  0  0  0  0
    5.9511    7.7050  -17.9907 C   0  0  0  0  0  0  0  0  0  0  0  0
    6.6409    8.8736  -20.0413 C   0  0  0  0  0  0  0  0  0  0  0  0
    5.3090    0.5519  -21.0387 C   0  0  0  0  0  0  0  0  0  0  0  0
    6.8559   -1.6971  -21.5104 C   0  0  0  0  0  0  0  0  0  0  0  0
    5.8291    1.7881  -18.4727 C   0  0  0  0  0  0  0  0  0  0  0  0
    5.6489    4.1183  -16.8651 C   0  0  0  0  0  0  0  0  0  0  0  0
    5.3352    2.6805  -19.6445 C   0  0  2  0  0  0  0  0  0  0  0  0
    5.1657    4.8118  -18.1573 C   0  0  1  0  0  0  0  0  0  0  0  0
    4.4201    3.8305  -19.1059 C   0  0  1  0  0  0  0  0  0  0  0  0
    5.8265    8.4053  -22.3773 C   0  0  0  0  0  0  0  0  0  0  0  0
    7.4374   10.3048  -22.0378 C   0  0  0  0  0  0  0  0  0  0  0  0
    5.0883   10.5193  -21.2068 C   0  0  0  0  0  0  0  0  0  0  0  0
    4.5572    1.8237  -20.6869 C   0  0  0  0  0  0  0  0  0  0  0  0
    4.8540    7.0968  -17.1382 C   0  0  0  0  0  0  0  0  0  0  0  0
    6.2610    9.5188  -21.3948 C   0  0  0  0  0  0  0  0  0  0  0  0
    7.2628   -0.4964  -21.9922 N   0  0  0  0  0  0  0  0  0  0  0  0
    7.6377   -2.8183  -21.7447 N   0  0  0  0  0  0  0  0  0  0  0  0
    4.2343    5.9278  -17.8183 N   0  0  0  0  0  0  0  0  0  0  0  0
    7.8932    3.3585  -18.0229 O   0  0  0  0  0  0  0  0  0  0  0  0
    6.9547    1.9597  -16.1046 O   0  0  0  0  0  0  0  0  0  0  0  0
    3.9161    4.5917  -20.2056 O   0  0  0  0  0  0  0  0  0  0  0  0
    6.7480    2.7786  -17.3053 S   0  0  0  0  0  0  0  0  0  0  0  0
    9.3484    8.0278  -18.1072 H   0  0  0  0  0  0  0  0  0  0  0  0
    7.5490    7.1125  -16.6599 H   0  0  0  0  0  0  0  0  0  0  0  0
    8.7838    9.1293  -20.2571 H   0  0  0  0  0  0  0  0  0  0  0  0
    3.9608   -0.7615  -19.9626 H   0  0  0  0  0  0  0  0  0  0  0  0
    5.3531   -2.7922  -20.3945 H   0  0  0  0  0  0  0  0  0  0  0  0
    4.5952    8.3864  -19.5255 H   0  0  0  0  0  0  0  0  0  0  0  0
    6.8554    1.5631  -22.1538 H   0  0  0  0  0  0  0  0  0  0  0  0
    4.9627    1.3369  -17.9668 H   0  0  0  0  0  0  0  0  0  0  0  0
    6.4782    0.9927  -18.8677 H   0  0  0  0  0  0  0  0  0  0  0  0
    6.1843    4.8434  -16.2346 H   0  0  0  0  0  0  0  0  0  0  0  0
    4.7842    3.7208  -16.3135 H   0  0  0  0  0  0  0  0  0  0  0  0
    6.2090    3.1299  -20.1391 H   0  0  0  0  0  0  0  0  0  0  0  0
    6.0402    5.2155  -18.6887 H   0  0  0  0  0  0  0  0  0  0  0  0
    3.5875    3.3757  -18.5491 H   0  0  0  0  0  0  0  0  0  0  0  0
    5.5540    8.8542  -23.3438 H   0  0  0  0  0  0  0  0  0  0  0  0
    6.6578    7.6996  -22.5223 H   0  0  0  0  0  0  0  0  0  0  0  0
    4.9589    7.8700  -21.9642 H   0  0  0  0  0  0  0  0  0  0  0  0
    7.1096   10.7395  -22.9937 H   0  0  0  0  0  0  0  0  0  0  0  0
    7.7548   11.1099  -21.3588 H   0  0  0  0  0  0  0  0  0  0  0  0
    8.2808    9.6216  -22.2159 H   0  0  0  0  0  0  0  0  0  0  0  0
    4.8303   10.9690  -22.1770 H   0  0  0  0  0  0  0  0  0  0  0  0
    4.2134    9.9872  -20.8052 H   0  0  0  0  0  0  0  0  0  0  0  0
    5.3904   11.3104  -20.5048 H   0  0  0  0  0  0  0  0  0  0  0  0
    4.4136    2.4180  -21.6014 H   0  0  0  0  0  0  0  0  0  0  0  0
    3.5769    1.5542  -20.2670 H   0  0  0  0  0  0  0  0  0  0  0  0
    5.2834    6.7691  -16.1800 H   0  0  0  0  0  0  0  0  0  0  0  0
    4.0803    7.8564  -16.9526 H   0  0  0  0  0  0  0  0  0  0  0  0
    8.4456   -2.5575  -22.2732 H   0  0  0  0  0  0  0  0  0  0  0  0
    7.9238   -3.2134  -20.8717 H   0  0  0  0  0  0  0  0  0  0  0  0
    3.8188    6.2510  -18.6685 H   0  0  0  0  0  0  0  0  0  0  0  0
    3.3605    5.2900  -19.8798 H   0  0  0  0  0  0  0  0  0  0  0  0
  1  2  1  0  0  0  0
  1  3  2  0  0  0  0
  2  8  2  0  0  0  0
  3  9  1  0  0  0  0
  4  5  2  0  0  0  0
  4 10  1  0  0  0  0
  5 11  1  0  0  0  0
  6  8  1  0  0  0  0
  6  9  2  0  0  0  0
  7 10  2  0  0  0  0
  7 23  1  0  0  0  0
  8 21  1  0  0  0  0
  9 22  1  0  0  0  0
 10 20  1  0  0  0  0
 11 23  2  0  0  0  0
 11 24  1  0  0  0  0
 12 14  1  0  0  0  0
 12 29  1  0  0  0  0
 13 15  1  0  0  0  0
 13 29  1  0  0  0  0
 14 16  1  0  0  0  0
 14 20  1  0  0  0  0
 15 16  1  0  0  0  0
 15 25  1  0  0  0  0
 16 28  1  0  0  0  0
 17 22  1  0  0  0  0
 18 22  1  0  0  0  0
 19 22  1  0  0  0  0
 21 25  1  0  0  0  0
 26 29  2  0  0  0  0
 27 29  2  0  0  0  0
  1 30  1  0  0  0  0
  2 31  1  0  0  0  0
  3 32  1  0  0  0  0
  4 33  1  0  0  0  0
  5 34  1  0  0  0  0
  6 35  1  0  0  0  0
  7 36  1  0  0  0  0
 12 37  1  0  0  0  0
 12 38  1  0  0  0  0
 13 39  1  0  0  0  0
 13 40  1  0  0  0  0
 14 41  1  0  0  0  0
 15 42  1  0  0  0  0
 16 43  1  0  0  0  0
 17 44  1  0  0  0  0
 17 45  1  0  0  0  0
 17 46  1  0  0  0  0
 18 47  1  0  0  0  0
 18 48  1  0  0  0  0
 18 49  1  0  0  0  0
 19 50  1  0  0  0  0
 19 51  1  0  0  0  0
 19 52  1  0  0  0  0
 20 53  1  0  0  0  0
 20 54  1  0  0  0  0
 21 55  1  0  0  0  0
 21 56  1  0  0  0  0
 24 57  1  0  0  0  0
 24 58  1  0  0  0  0
 25 59  1  0  0  0  0
 28 60  1  0  0  0  0
M  END
> <OMEGA_C>
Vw4FQVbOAUH2TJPBkI3pQD4I80D/vozB8dD/QNjgC0ErCp3BABWcQG1DML8mO6TBCiW1QLHs6b+J
KabBFRa0QEs5BUEEt5nBOJTQQDTVHD8eJK7BsW++QMCP9kD97I/BqILUQFL6DUGqVKDBo+OpQKxJ
DT9IT6jBz2PbQEo52b9CFazBlIe6QI7f5D8UyJPBJsS0QBLJg0DG64bBPbqqQNuNK0DYJ53BrE2l
QJz6mUAZQpHBvHGNQHkmdUDk2JjB9HK6QAh8BkGwBLPBAv/tQJ/gJEFrTbDBoNOiQPFOKEGgp6nB
jtSRQEpw6T/JfqXBFVSbQCwZ40ARG4nBQFrIQPFMGEGNKKvBPWnoQMwh/r4U8K/BCGj0QF5fNMAk
9a3BgX+HQK6wvUDki47BxZT8QGLxVkDfLpDBiIzeQIbX+j8z1oDBGKJ6QALvkkAppaHBqe/XQJXU
MUA8cYrBKpMVQd9xAEGM25DBzpHxQOeZ40CJR4XBk4oMQW4REkGODqLB1X19QBPvQr96s5/BWEyr
QPKyMsD6J6PBGAyTQNYuBkE/NJzB0l/bQD8VyD/uOrHBi86eQHEgqz8CvI/BNk3PQIMgfj/18JbB
huXFQEv9mkBc4IHBTRiZQIYhbkAjgoLB0K/GQGdQSEDbHKHBH0nBQLvlpkBhgpXBUpplQCkMWECW
ZJTBm7qxQNuqDUEqwLrBXAzVQNBi9kCiLbTBVK+eQPTW+0CWtq/BroHjQNDUK0EB87fBRSf4QEfC
MUHG3qrBP34EQePxGUE1urHBz5GaQAqBL0F2arHB99OGQILLH0EHcabBjH6sQH33NEHsCaTB/TuN
QBDAGkCgz6zBU+tkQKDxxj/RIqLB2BGpQGSc2ECfcIHBypGCQGhn+0D4nofBIiEHQamtI8BvL7LB
ApD9QCioTcBU+abBzGZ0QAkIyEAqWZXB6xJXQIdHqUDeCZ/BVScFQeH8AUGghZPBIDXqQGrl8kCB
54zB2lv/QDlTDEGmJZ3BlkbSQFscMz+fWa7BGKbqQOLE676MBrDB5uWzQA9oBUFyl5nBtsKdQNFr
Lr8kKqXBsuS+QJxy9kD/6I/BZtnTQCloDkG5RKDBfDurQOMLFz8kzqjBRmzbQDhM2b9xI6zBjo+6
QKj44z8MAJTBrKq0QDIFg0CO+YbBaOaqQGbmK0DqUJ3BmIGlQCGtmUBzR5HBfpSNQBM5dUAg85jB
LhTsQFbhJUEiJrDBYAyhQC2UKEHJWKnBuGi5QOgmB0Es8rLBqD6SQBbs6j+8vqXBCjOcQA+n4kBg
BInBXgDHQE3kGEFIAqvBWJe1QHRd5b/B4abBFOvzQMG0NcArn63BeP+HQIGIvUBcgI7BCKP8QNsZ
VkDjMpDBLEXeQCzg9j8YAIHB+BV7QKtKk0DSs6HBvtzXQACRMEBzjYrB1L8VQVedAEHwNpHBZbry
QOoR40BWhoXBHiMMQZi7EkGPNKLBxUHdQNUa1D+sQbHBoGAEQfiH0L44P7TBPrWSQORcBkG+85vB
eZR/QN60RL9H66DBCcaeQJKhqT+tA5DBUlzPQC9FfT8gNZfBZ7DFQBL8mUD11oHBHt2YQERKbECO
pILB+e7GQHfwSEA6NaHB2KXBQPeDpkCpepXBpsxlQC3eV0AUiZTBHyHhQK3vLEFZu7fBVQP2QOi0
MkGiqKrBja0DQYwxG0GasbHBr1aYQH7hL0FMDbHBdmiFQOTIH0HsIKbBa4GqQGEvNUHnraPBojOw
QAJyDkHunbrB2FPUQJ81+EAzOrTB3AieQPmS/EC6oq/BYPCMQNh4HEAH86zBf2pmQJFhxD8lXaLB
32iqQMfC10DEcIHBJ46DQMXk+kB2W4fBVP7kQGzsZ8C/WqrBEv73QPb5P8C9c7XBtXB1QC4jyEDB
R5XBUX1XQFSMqUBnDp/BE8YEQVcqAkGiWpPBDVLpQGMp80CFyozBFMz+QHB5DEFbAJ3BT73RQJru
Lz9Sia7BjwHqQGIr877dN7DBLUqzQPlgBUFgl5nBuCSeQATuLb9Y5aTBpRS+QP2F9kBa4I/BpFzT
QCh2DkFlNKDBxzerQFrlFT89w6jBuynbQGFb2r9KHazBx/G6QAdd5D/k/pPBsMa0QBoSg0Al+IbB
00arQBznK0CYU53BhZSlQH22mUAVRZHBBfuNQNZddUCAAJnBCDe5QAVKB0GT6bLBt+LrQJf8JUH9
CrDBl7egQJGtKEF7TanBPnGSQFnK6j+itqXBalCbQMmW4kCYB4nBPLTGQPP+GEGV8qrBvde1QP1i
5b+9oKbBC4XzQApkNsBEna3BJJ6HQOczvUBegI7Bx878QOjRVkBSOpDB6MLeQEPL9z9NA4HBttF8
QAh5k0ADyqHBeinYQC79MECEj4rBWFcVQX/ZAEEC/ZDBwq/xQGlo40AOZIXBcecLQcDuEkGRA6LB
/2jcQLjo0T8nnLHBO94DQT8x276Nm7TBJyySQEM4BkGMBpzBmJeAQAt0Qr9MdqDBaiqfQHT8qT8g
ApDBl8rPQMcYfj+9L5fBYa/FQFgSmkAs0oHB6QGZQE0dbEA9poLB0kvHQHG9SEB/P6HBWajBQAfn
pkC9bZXB7xtmQNknWECsqpTB/iOwQI2cDkEZlrrBXyPUQC15+EAYLbTBfsadQHvY/EANo6/BKw/h
QHcTLUELobfBDMT1QLfJMkEviKrB9pQDQdJKG0GzkrHBaiGYQCAFMEHFAbHBiQaFQBreH0GYH6bB
kRWqQDZBNUEGnKPB0B2NQO9BHEDm7azB0tNmQJjdxD/sTKLBylqpQJf710B5aIHBIGqCQA6p+kC/
dIfBAenkQKE9aMCyLKrBvdz2QCCGQcCqcrXBwGl0QM6ax0CSSJXBxTdZQCrNqUCrLp/BdjoFQT25
AUGyb5PBbCTqQHzr8kBNy4zBfc3/QFKiC0E5Mp3BtbCbQACmL79/OqTBCf+0QLIB6b/QJabBLz+0
QGrWBEE1uZnBRbvPQCI4Hz9yO67BS+6+QPMr9kB/6o/BrmDUQFmTDUFza6DBhjSpQJxEDj+aV6jB
9S/bQP9p1798FazBkxC6QPsn5D9cx5PB3Jq0QFF5g0Cg54bBsmqqQBpiK0DwJ53BMWilQADamUBg
PJHB5W+NQKuCdUCn35jBCTLtQGYsJEEwjbDBEJyiQAcTKEEqlqnB+dq4QEILBkFr+7LBrjORQKen
6T8Wd6XBf/ubQH7b4kDIB4nBe63HQAnZF0HXN6vB89HnQJSl9r4pAbDBeY30QNMIM8C5663B89OH
QD+rvUA2fI7BcFf8QGoEVkCNJpDBhhLeQDND+T+y0YDBx7V7QCxak0CjsaHB/JrXQM8ZMUD3bIrB
RMkVQaZ3AEG5C5HBT2ryQEPB40CZT4XBXW8MQdjQEUEfR6LB3c58QIeEQ7/trp/BeGGrQBxTMsBD
H6PBWSOTQBipBUGhKpzBAjHaQEJPyT86Y7HBfEKeQHnqqj8gvY/BWbjOQLbwez9T8JbBjMHFQBiK
mkA204HB4c+YQG+hbUBvh4LB/HXGQImYR0AWI6HBZoLBQCKvpkAadJXBgwFlQBXwWEC8eZTBJVPi
QMEaK0GSK7jB/vv3QF0OMUFaMqvBMe4DQeQWGUE9ELLBUvKZQKo8L0HeU7HBxKqGQMi+H0G1OabB
RvSsQD+8NEFGDKTB2cCvQKQ2DUGksLrBfCHTQNY09UDnO7TBJCWdQA9O+0Bgiq/Bg2CMQGUEG0BA
wqzB799jQEkGxz/MDKLBEOypQJMq2ECZZ4HBCmiDQGBF+0Drd4fBLyQHQbQBIsCfLLLBfeX9QHvP
S8Ca7KbBOQ51QJYsyEBeRZXBm35YQF7hqUDSHJ/BLoGzQP8OBEHJR6nBtvShQPnj9EBqJqDBOGLW
QNoWEkEoUajBqRymQCoxQ7/QjKDB1lTAQJ9h6r98saPBFBTXQMNXDEFd/pTBk7zDQE12Bz9MRq/B
p0u0QGcd/EBN+JXBTVfoQDizFkEcIp7BUc+nQMHm4D49aqbB2SXbQGok178Ws6zBaHC3QOfF4j82
WpHBp/WzQEJeh0APHobBpJ2oQOrPJEBQWZvB7uGlQNbrmkB255DB4CWNQHOXdEAdGpjBYAAOQU68
MEHVq6fBgXgaQb8YG0Fx6JfB3g4AQbdkOUGoXJXBeAWOQFrJ0j/N2qLB7HygQHN/6EDw+YvBtt4G
QVa7JkGB1pzBmWvcQObyBL8mT7LBvL70QOaiL8AR4q/BvYiJQGbiv0C6b47BBqH7QJadUUCFQI7B
YrzZQGHDBUAvknzBiOp/QHXrj0BNqKHBJXPVQPT8M0A4dojBdS2mQD2rAEHmEbHBeUKGQGlv4EBC
5aDBT7LjQIhzGUHDY6/Baf+QQCL8W78HwZnBvADAQA+QMMAqRZ/B4bTkQOdsD0FrNI3Bj3XFQF4B
uj8DurPBQCebQNo3sT/eII3BYJzLQNFMbj8A9JPBS8nFQLNwn0DdfoHBMoGXQE60ekAjlYHBTBHF
QPIdO0BRt5/B/GDCQGwRpkAKQZXBYfFhQL/zXUCmppPBPkYbQXfzO0FJRqbBOk4TQcf3I0HgHa3B
9HUAQexaOUHYR6vBXcEnQXZ+JkEe/ZbBvhsWQVOVFEF0B5DBcXAfQdD1DUEiNp3BdW4NQVOzREGo
fJTBJWnkQOm5QUFn15jBEmv3QMH2MkHLdo3BwzOEQEz+DUC59anBkdliQBh8pj/YiJ7B2wW6QCnS
4UBfJ4bB3KqJQEdv/0DAgojBiNcCQX+/HsBvVbbBZVkEQThCP8AC8anBc0RtQFn+xECpw5TBGnxe
QM85qEAr0p/BTfQEQYnGAUGqg5PBLL3pQLk480Ahy4zBcfX+QCkfDEHrI53BaH+DQEPIz76yqqLB
bLSNQGRk4L9wF6HBiGOzQHsjBkEKVJnBZVvJQNhR2L2Q46rB6V6+QM+H90A5tI/Bz2PTQKezDkGf
HqDBvhaiQNSM5D7RSafBcJO2QFLXDcAZ/aPBMFy8QDot6D8PU5TBo6y0QJzCg0DmDIfB4U2uQOo0
L0BBs53B5OSlQAt/mkBEX5HBbzWPQCkkdkD6QpnB4fXrQHwpJUE6VLDBdxOiQM/NKUFD/KjBpxy2
QKaiB0GajLLBZ4iZQACJ+T+zTafBrJKbQDw940Bq74jBMlPGQK83GUGb1KrBX/HSQLA6tb/sMKnB
Q0HDQGB5XcBLSqDBkemHQHEWvkCImY7BfaD9QJMtWUBo44/BCh3eQERC+j+j/IDB9NF8QOvak0Cx
5aHBKWvYQHOhMkD2iIrBAJEVQUcbAEFgSZHBwD3yQHpm40B1aYXB7fMLQUomEkH1TaLBif5IQEaW
z7w9XKDB3u1sQDWDG8B0sJ3B6R+SQNKUB0HqjpvBY/7fQO8lBj/VCq/Bp/GfQNu0rT9aopDB1YvR
QDn5gj8NY5fBRzvFQHbEmkA01YHBTbuYQOwzbUBI1ILBQAnLQAmqT0B4w6DBmy7CQCTZp0BXaJXB
bw5qQF8hVkAy85TBlMvgQIZILEF84LfBD8T3QNfeMUEUAavBEv4CQY/KGUGU/7HBiiOZQH0jMUGc
qrDBHwyGQOy6IUHdg6XBQVutQHZLNkHhdqPBtLqsQG/1DkEgM7rBcMXPQB7V90Ca8rPBkk+aQPgN
/0BY/K7BgzmmQOBzF0Chza7B6WZtQMufBkBt/6bBVo6pQI0o2EBuWYHBFKmCQIQ1+0CWR4fBRAzi
QN0MZ8CiG6LB23i/QDYIYMBNWpjBPtx1QPneyECPZZXB4GVXQHApqUBgKJ/B

> <OMEGA_E>
TOfaPoDS2z4Ald0+kEbaPgj5Vz8gDjw/

> <OMEGA_NBR>
     17758

$$$$
50216763
  -OEChem-04172616093D

 65 67  0     1  0  0  0  0  0999 V2000
    8.3640    8.0250  -18.4982 C   0  0  0  0  0  0  0  0  0  0  0  0
    7.3635    7.5300  -17.6447 C   0  0  0  0  0  0  0  0  0  0  0  0
    8.0157    8.6514  -19.7099 C   0  0  0  0  0  0  0  0  0  0  0  0
    6.2527    0.6476  -22.0245 C   0  0  0  0  0  0  0  0  0  0  0  0
    7.0600   -0.4880  -22.2230 C   0  0  0  0  0  0  0  0  0  0  0  0
    5.6566    8.2757  -19.2217 C   0  0  0  0  0  0  0  0  0  0  0  0
    4.9499   -0.5777  -20.3642 C   0  0  0  0  0  0  0  0  0  0  0  0
    6.0068    7.6611  -18.0021 C   0  0  0  0  0  0  0  0  0  0  0  0
    6.6530    8.7987  -20.0834 C   0  0  0  0  0  0  0  0  0  0  0  0
    5.1847    0.5980  -21.1054 C   0  0  0  0  0  0  0  0  0  0  0  0
    6.8506   -1.6478  -21.4487 C   0  0  0  0  0  0  0  0  0  0  0  0
    5.8184   -1.6828  -20.4834 C   0  0  0  0  0  0  0  0  0  0  0  0
    5.7905    1.7752  -18.5203 C   0  0  0  0  0  0  0  0  0  0  0  0
    5.6660    4.0747  -16.8745 C   0  0  0  0  0  0  0  0  0  0  0  0
    5.2762    2.6880  -19.6721 C   0  0  2  0  0  0  0  0  0  0  0  0
    5.1737    4.7920  -18.1493 C   0  0  1  0  0  0  0  0  0  0  0  0
    4.3930    3.8410  -19.0975 C   0  0  1  0  0  0  0  0  0  0  0  0
    5.7533    8.3208  -22.3868 C   0  0  0  0  0  0  0  0  0  0  0  0
    7.4132   10.1886  -22.1223 C   0  0  0  0  0  0  0  0  0  0  0  0
    5.0972   10.4625  -21.2188 C   0  0  0  0  0  0  0  0  0  0  0  0
    4.4532    1.8655  -20.7140 C   0  0  0  0  0  0  0  0  0  0  0  0
    4.9268    7.0739  -17.1151 C   0  0  0  0  0  0  0  0  0  0  0  0
    6.2424    9.4358  -21.4319 C   0  0  0  0  0  0  0  0  0  0  0  0
    4.6307   -3.4873  -19.3961 C   0  0  0  0  0  0  0  0  0  0  0  0
    7.6997   -2.7361  -21.6059 N   0  0  0  0  0  0  0  0  0  0  0  0
    4.2687    5.9175  -17.7777 N   0  0  0  0  0  0  0  0  0  0  0  0
    7.8812    3.3002  -18.0775 O   0  0  0  0  0  0  0  0  0  0  0  0
    6.9490    1.8858  -16.1674 O   0  0  0  0  0  0  0  0  0  0  0  0
    3.8836    4.6275  -20.1770 O   0  0  0  0  0  0  0  0  0  0  0  0
    5.8265   -2.6842  -19.5234 O   0  0  0  0  0  0  0  0  0  0  0  0
    4.3461   -4.0722  -20.5891 F   0  0  0  0  0  0  0  0  0  0  0  0
    3.5607   -2.7722  -18.9609 F   0  0  0  0  0  0  0  0  0  0  0  0
    4.8779   -4.4536  -18.4753 F   0  0  0  0  0  0  0  0  0  0  0  0
    6.7378    2.7285  -17.3510 S   0  0  0  0  0  0  0  0  0  0  0  0
    9.4036    7.9245  -18.2237 H   0  0  0  0  0  0  0  0  0  0  0  0
    7.6340    7.0497  -16.7160 H   0  0  0  0  0  0  0  0  0  0  0  0
    8.7921    9.0236  -20.3618 H   0  0  0  0  0  0  0  0  0  0  0  0
    6.4509    1.5553  -22.5752 H   0  0  0  0  0  0  0  0  0  0  0  0
    7.8406   -0.4712  -22.9691 H   0  0  0  0  0  0  0  0  0  0  0  0
    4.6164    8.3488  -19.5028 H   0  0  0  0  0  0  0  0  0  0  0  0
    4.0996   -0.6328  -19.7006 H   0  0  0  0  0  0  0  0  0  0  0  0
    4.9307    1.3209  -18.0060 H   0  0  0  0  0  0  0  0  0  0  0  0
    6.4262    0.9827  -18.9419 H   0  0  0  0  0  0  0  0  0  0  0  0
    6.2210    4.7833  -16.2422 H   0  0  0  0  0  0  0  0  0  0  0  0
    4.8044    3.6813  -16.3152 H   0  0  0  0  0  0  0  0  0  0  0  0
    6.1435    3.1321  -20.1825 H   0  0  0  0  0  0  0  0  0  0  0  0
    6.0457    5.1881  -18.6903 H   0  0  0  0  0  0  0  0  0  0  0  0
    3.5628    3.3919  -18.5328 H   0  0  0  0  0  0  0  0  0  0  0  0
    5.4589    8.7646  -23.3493 H   0  0  0  0  0  0  0  0  0  0  0  0
    6.5646    7.5962  -22.5503 H   0  0  0  0  0  0  0  0  0  0  0  0
    4.8886    7.8084  -21.9397 H   0  0  0  0  0  0  0  0  0  0  0  0
    7.0635   10.6188  -23.0725 H   0  0  0  0  0  0  0  0  0  0  0  0
    7.7695   10.9947  -21.4641 H   0  0  0  0  0  0  0  0  0  0  0  0
    8.2358    9.4853  -22.3191 H   0  0  0  0  0  0  0  0  0  0  0  0
    4.8170   10.9060  -22.1856 H   0  0  0  0  0  0  0  0  0  0  0  0
    4.2251    9.9535  -20.7825 H   0  0  0  0  0  0  0  0  0  0  0  0
    5.4380   11.2554  -20.5368 H   0  0  0  0  0  0  0  0  0  0  0  0
    4.2931    2.4803  -21.6120 H   0  0  0  0  0  0  0  0  0  0  0  0
    3.4809    1.5985  -20.2743 H   0  0  0  0  0  0  0  0  0  0  0  0
    5.3793    6.7382  -16.1704 H   0  0  0  0  0  0  0  0  0  0  0  0
    4.1724    7.8467  -16.9061 H   0  0  0  0  0  0  0  0  0  0  0  0
    7.4180   -3.4711  -20.9892 H   0  0  0  0  0  0  0  0  0  0  0  0
    7.6559   -3.0591  -22.5513 H   0  0  0  0  0  0  0  0  0  0  0  0
    3.8303    6.2493  -18.6130 H   0  0  0  0  0  0  0  0  0  0  0  0
    3.3457    5.3301  -19.8312 H   0  0  0  0  0  0  0  0  0  0  0  0
  1  2  1  0  0  0  0
  1  3  2  0  0  0  0
  2  8  2  0  0  0  0
  3  9  1  0  0  0  0
  4  5  2  0  0  0  0
  4 10  1  0  0  0  0
  5 11  1  0  0  0  0
  6  8  1  0  0  0  0
  6  9  2  0  0  0  0
  7 10  2  0  0  0  0
  7 12  1  0  0  0  0
  8 22  1  0  0  0  0
  9 23  1  0  0  0  0
 10 21  1  0  0  0  0
 11 12  2  0  0  0  0
 11 25  1  0  0  0  0
 12 30  1  0  0  0  0
 13 15  1  0  0  0  0
 13 34  1  0  0  0  0
 14 16  1  0  0  0  0
 14 34  1  0  0  0  0
 15 17  1  0  0  0  0
 15 21  1  0  0  0  0
 16 17  1  0  0  0  0
 16 26  1  0  0  0  0
 17 29  1  0  0  0  0
 18 23  1  0  0  0  0
 19 23  1  0  0  0  0
 20 23  1  0  0  0  0
 22 26  1  0  0  0  0
 24 30  1  0  0  0  0
 24 31  1  0  0  0  0
 24 32  1  0  0  0  0
 24 33  1  0  0  0  0
 27 34  2  0  0  0  0
 28 34  2  0  0  0  0
  1 35  1  0  0  0  0
  2 36  1  0  0  0  0
  3 37  1  0  0  0  0
  4 38  1  0  0  0  0
  5 39  1  0  0  0  0
  6 40  1  0  0  0  0
  7 41  1  0  0  0  0
 13 42  1  0  0  0  0
 13 43  1  0  0  0  0
 14 44  1  0  0  0  0
 14 45  1  0  0  0  0
 15 46  1  0  0  0  0
 16 47  1  0  0  0  0
 17 48  1  0  0  0  0
 18 49  1  0  0  0  0
 18 50  1  0  0  0  0
 18 51  1  0  0  0  0
 19 52  1  0  0  0  0
 19 53  1  0  0  0  0
 19 54  1  0  0  0  0
 20 55  1  0  0  0  0
 20 56  1  0  0  0  0
 20 57  1  0  0  0  0
 21 58  1  0  0  0  0
 21 59  1  0  0  0  0
 22 60  1  0  0  0  0
 22 61  1  0  0  0  0
 25 62  1  0  0  0  0
 25 63  1  0  0  0  0
 26 64  1  0  0  0  0
 29 65  1  0  0  0  0
M  END
> <OMEGA_C>
ydIFQUZmAEFH/JPBvKHrQP/18EBxKI3BZkAAQTtsCkHVrZ3BWxbIQKbKJT84MrDBKuvhQL7Z+b6x
yLHB/AK1QChpBEEJxpnBzmWeQGTnE7/I6aLBDTjAQOMn9UBXBJDBLuXUQK7HDEHVqqDBdemlQIwU
GT/U16jB7TfbQH/q0r8Fl6vBVDC6QE5n178B3qPBrku5QMU54z+RKZTBIlC1QLVjgkD7/obBS9ao
QPwILEB9YJ3Bno6lQGZYmUC4MZHBwJOMQIbTdUCvx5jB3Rq4QN0hBUFBGLPBwTjtQGwEI0GS+rDB
ShyjQGNmJ0EKwKnB3ICOQIXJ7j8wtqXBMaidQDBd4kC664jBv8HHQPX4FkGBdKvBly6UQLAvX8BD
K5vBOGT2QE4cL8Dh2KzB3piIQIRcvUDJOI7BADP8QDY2U0CtnpDBSl7eQK1i8T/LVoHBTIx4QMAU
lEB3aqHBVnK6QLzKK8DiL5zBqROLQJBPgsB0tqTBK+NjQOxqMcDjr5fBghecQMSDjsCEzZPBOJzX
QG6fLkDrzorBWHUWQUiV/UAYypHBskn0QF2X4UBnuoXBiKwMQdxgEEEM5aLBHW7OQG0Uxz/zmbTB
Zub6QGg88b63wLfBfbmTQIaUBUGnBZzBqS+DQFQAIr/lmp3BrcidQLkTqT9aDJDBkKPNQPiPez/8
iJfBkBLHQA0RmUAM8IHBe72ZQF6aa0CLhYLBYJfEQO10SEDbdaHBVnbBQAwFpkCuhZXBJQRkQGQU
WUAwQ5TBD6+uQO47DEFZy7rBNBHSQMkT80D3ZrTBy2+cQLTe+UCIhK/BlwjiQH/mKUFhlLjBuZ/4
QCXqL0GFtqvBuMUDQb/DF0GVjbLBJiWaQP9+LkEofLHBzTOHQIxBH0GZQqbBXgSuQD0WNEFaS6TB
M2GJQOy8HkBV5azBk8deQNCazD+5MaLBdyOsQEOf10DrXIHBboSFQBMY+0CjP4fB2l/tQDgnXsDj
6afBWP30QPfIQ8AAabTBSCN1QKr6x0B755TB8B9WQEyQqkBBpp7BEtUFQRP8/0DQEZTBNK3rQHon
8EB1PI3BST0AQdUmCkEDuZ3BsSvKQCiDLz9cgLDBQZjjQIAS774OyLHBuvi0QNBNBEETw5nBGMad
QPD9AL/7k6PBnj3AQFWm9EAwC5DBIdnUQHqoDEHNqaDBXdemQEYFKT/SeKnBW2TbQGmfzr+MiqvB
rUW5QGxTzr88H6TBxfO5QKWT4z/aqpTBnYW1QLSBgUDYIYfBvaqpQAwRLkB7vJ3BnLKlQPz8mEAg
QZHBmNmMQMrfdUBP7pjBmXbtQCufIkGZCbHBuy2kQDsdKEENe6nBpVO2QIadBUHu+7LBrAWQQL/v
9z8DcKbBaMCdQCnU4UCm7YjBbqLHQKQhF0GAYKvBEtaWQOiwY8CrAp3BdxD2QJIRLsC4bKzBtquI
QGfUvEBQNY7B4sD8QOCIUkCOu5DBKF/eQH2L6z9qvYHBp8R3QOCAlECIaaHBBoi3QO5CI8ClC5zB
bfKiQFtojsArm6TBmtRfQDJeQsDpjp/B9XmTQB0LhsAzbZPByO/XQDQ6LUD2FYvBpHkWQaON/EC9
6JHBcl70QCuO4EDC1oXBQKcMQZ4ZEEEL8qLBqrLRQDP+yj8g47TBc1z9QGW58b4VirfBYqmTQJuY
BUHm+JvB6IaBQDKnC79vnJ7BSl6eQA6Wpz9ksJDBL3POQLNUfz+LKJjBoEDHQJjyl0CQAILBl/mZ
QM5JaUBjsoLBiofFQPAwTEBak6HBq5nBQOTopUCaiZXBJFxlQNl+V0BIb5TBVDXiQAO8KUE+lLjB
1AX6QDVLL0GvzKvBRXoDQf74FkGEvbLBNSCbQM5pL0FnKbHBdASIQA5jIEHv4aXBMESwQI2TNEEO
DaTBJdmsQIHuDEH+oLrBJXDPQNY+80CJbLTBMGSaQH2r+0A0Tq/BbZyMQMZvJEBwlq3BJ0dgQOlB
2D8HR6PBtk+sQG8a10DgYIHBg5yFQFqL+kBHPofBd+DrQHA0XMDwf6fBE5j1QGuMQ8Cx9bPB78p0
QK90x0Bv25TBh5xUQDpqqkDLgZ7BAPIFQfi2/UArWZfB2B/uQLEs8kCgaI/B+5D9QF7VBUFmdKHB
yrbHQET/QT+bq6/BZDDhQCgwsL7fm7LBFZ2zQOtJAUG9sZvBfwKnQKQAFL96kqHBeeTBQL/+9ECQ
j5HB9S/RQNwCB0Fky6PBxEmqQCDNIj/RL6fB1p3dQIqOyL+gCK3ByjvAQKAq2b8AeKTBa/O0QKN3
5D/iTpHBy/KuQISvhEAk+ITBnLmoQEYBK0C3G5vBSVOkQCa1mkBrs4/BM6+MQIZbeUCZrpfBW1bV
QCrQ/0BpuLfBG2DRQEn+JUEzxbDBLIiQQLpCDkFkRrDBChCQQHbV6T9zjaPBLD2hQPWe5kDVU4nB
ZxvCQEmlDkGR8q7BZH2VQAzSTsDKkpnBTfP2QHhXKcAyHLDBtD2JQJv5wEDIfI3B2nn4QEVAT0Cz
aYzBHYHSQN+t+D90O3vB5yuCQG8zlUB7B6HBlSK9QBwhO8BLPp/BMgpkQOQdNcBPEp/B2ceVQAu2
K8AEmY/BsxiTQAuIksDQjZjBatbQQKSLL0ApdofBjeEWQZfg+0DlsZXB7Rr5QNQw50C5sIfBHU8K
QVBVCkFnfKfBr7nKQGnZ2D/m6LPBPo73QDDKgb7KJ7nBw7SRQPskAkFAT53B0+6QQDCLKL+y9JrB
O5yXQO63rz8uvI3B4JjJQCf/dT+9BJTB4nW/QNFzm0DWWn/BzTKRQDeqc0CQIIHBU1LGQAkpQ0D2
yp7B6HXCQBQhpUCibZPBisheQGVXYUDH1ZPBJ5XKQJpbBUHUpL/Bn3r4QPGOAEEuVbfBI5TKQNu3
3kCpZbbBhbzGQOWBK0FVsbjBZ7TDQEpoMEHAjarBkYP0QMKdJkGhWrDB/P6HQOPYE0GoV7jBbsKE
QLWo+0B5JK/Bz9WBQNXUGEFHRqrBxdWIQNVuHUDChKrBmQJkQFLEuz+2/Z/B+sSxQPi93UDO4YHB
K8GKQD92AEHKtofBlabwQG2PW8BSaKvBjJHwQOSKOMA2t7fBrp11QM6LyUBiTJTB1UViQHYUrUBz
CJ/BSAoGQayv/UACPpfBZUHuQOIM8kBkU4/BztX9QCXcBUEbWaHBYe/GQHbkQD+wv6/BalbgQInD
sr5rt7LBxNazQOFLAUFtoJvBdUGlQOPlGL/x36HB+QrCQFPh9EBAf5HB1nnRQFEOB0HetKPB2wup
QPAkID8AXqfBrivdQFySyL83D63BCF7AQHkm2L9IXaTBiKK0QCE24z/TcZHBFdiuQJ1ahECeBYXB
JEWoQHyNKkDxNpvBjUmkQJOImkA9vI/BxYSMQKpAeUCpu5fBAsHVQAsDAEEvorfBUNXRQIEUJkEL
qbDB2O2QQFdiDkFbNbDBOTKPQJNN6T+0pKPB/VahQFNq5kBoSYnBDH7CQJm8DkH8267BNXyzQDEn
M8APPJPBvCX3QFDIKMCA/6/BGEqJQHfdwEDifI3By0z4QFRrTkD+eIzBMzLSQBi49j8QbnvBSx6C
QCBMlUBvD6HBVSPAQN/TN8BjeZ7BykbEQGWD2r+pNY7BFc/CQH69ecCqM47BgBaIQMNKM8A2TZLB
U5vQQGS3LkCyjIfBJvgWQRvc+0BBkpXB1y35QCP85kAOnIfBjXcKQZpgCkFhXafBVVrKQDQD2T91
47PBh1P2QLJ8hr6aWLnBffGRQIwsAkEqQZ3BNGKNQCZlNL/Dr5vBileXQNUJrj8n343BDE7JQCMc
dD/gMJTB5Wy/QMwBm0AdbX/B9w+RQGcWc0AKMIHB1NHFQNprQkCZ857BRnHCQNDopEDqdZPBNFRe
QKl+YUDs45PBoRLLQBx+BUHkjr/B5eT4QDikAEGMOrfBEvLKQCHv3kDVU7bBI0LHQGGfK0FIlbjB
iibEQHd8MEEpcarBf/j0QNetJkHXOrDBLXaIQMAAFEFYRrjBqRyFQF/p+0BTGK/B7DaCQFXxGEGS
NKrB5N2HQD5dHUC3larB9V5iQCbUuz8hB6DBSdWxQHFk3UDV2IHBquOKQN1cAEHBpofBlBDxQGLX
WsBLQKvBXCnxQIu9OMB3mbfBcst1QDOSyUAiS5TBe4liQMdHrUA3C5/BqA4GQenk/UBLJJfBSiLu
QKlP8kB2QY/BRxD+QHT5BUFnQ6HBVuzGQAlPQD9Ab6/BY5PgQICJrr5nh7LB9vWzQAh2AUFon5vB
DSmmQG6UH78jhaHBPPbBQHoz9UATepHBnb/RQLAyB0GOq6PBVkypQISmGz8c/qbBfYjdQAL2yL87
CK3BXdXAQKYM2r8iVKTBv1K0QGf74z+dLpHBApSuQPLthEDp8oTB0BCoQNwqKkAeBZvB3RqkQE/V
mkCUtI/B9mOMQMtpeUAdq5fBrVbWQHwoAEFdmLfBBmDSQMI5JkETnrDBu2uRQPePDkFMPbDBEvuO
QEcR5j9kTKPBfRKhQNfN5kBtTonBd/bCQHTjDkGW1q7BwVHZQP3EQcClgJXBXtX2QAsbKcCkQbDB
tBiJQFg6wUD1ho3BCwP4QDX6TkATWIzBXuLRQCfe+T91/nrBYkWCQPcYlUAzEKHBFWq9QBVEOcAb
xZ7B8jjSQEBUAsBaPY7BAp8BQZn5QMANdJjB3cfQQMcOh8BjxJDBiVHQQMKvL0A7YYfBefgWQbEC
/EBmb5XB9uf4QCw+50DKhofBq6MKQXx6CkElQafBz+7JQPRV2T8NhrPB/qL2QFLgcr6uILnBvhiS
QP5bAkHLSZ3B3yePQNTnPL9DI5vBvPyWQM26rz8MlI3B4+zIQB1LdD+D25PBxSO/QE+3m0APWH/B
2sKQQCZ/dEDvG4HBzqHFQNVtQUDezp7BC0rCQHQcpUDUbpPBbNFdQP0sYkA+1pPBocvLQM+lBUGj
h7/BH3n5QF/FAEGnJ7fBaHrLQE0830BQTbbBNfLHQKDHK0HijLjBrZrEQN6hMEFeaarBgYH1QAHP
JkEwJrDB1xmJQOIvFEF6ULjB5IyFQLpH/ECkI6/BuaCCQK0gGUFcQKrBlQiHQOv4GkB/RKrBS55i
QHVmtz+xkZ/BV2WxQJDS3UAT14HBo5iKQBmRAEF/tofBfeTwQHeoW8CflKvBoRPwQALoN8Ci2rfB
4M51QGXiyUDpXJTBlPZiQAE4rUCkHp/B

> <OMEGA_E>
QPOnPmBNsT4MpwQ/9MoLP560Gz8=

> <OMEGA_NBR>
     23276

$$$$
50216904
  -OEChem-04172616093D

 68 71  0     1  0  0  0  0  0999 V2000
    8.3275    8.0559  -18.4903 C   0  0  0  0  0  0  0  0  0  0  0  0
    7.3195    7.5641  -17.6445 C   0  0  0  0  0  0  0  0  0  0  0  0
    7.9912    8.6662  -19.7133 C   0  0  0  0  0  0  0  0  0  0  0  0
    4.8662   -0.5817  -20.6147 C   0  0  0  0  0  0  0  0  0  0  0  0
    5.6282    8.2771  -19.2535 C   0  0  0  0  0  0  0  0  0  0  0  0
    6.5103    0.7474  -21.8366 C   0  0  0  0  0  0  0  0  0  0  0  0
    5.6501   -1.7368  -20.8023 C   0  0  0  0  0  0  0  0  0  0  0  0
    5.9669    7.6806  -18.0208 C   0  0  0  0  0  0  0  0  0  0  0  0
    6.6326    8.8008  -20.1066 C   0  0  0  0  0  0  0  0  0  0  0  0
    5.2988    0.6595  -21.1201 C   0  0  0  0  0  0  0  0  0  0  0  0
    6.8577   -1.6503  -21.5356 C   0  0  0  0  0  0  0  0  0  0  0  0
    7.2852   -0.4075  -22.0510 C   0  0  0  0  0  0  0  0  0  0  0  0
    4.4490   -3.0707  -18.8394 C   0  0  0  0  0  0  0  0  0  0  0  0
    5.9468   -3.4076  -18.8351 C   0  0  0  0  0  0  0  0  0  0  0  0
    5.7997    1.7818  -18.4943 C   0  0  0  0  0  0  0  0  0  0  0  0
    5.6335    4.0846  -16.8405 C   0  0  0  0  0  0  0  0  0  0  0  0
    5.2514   -3.0503  -20.1530 C   0  0  0  0  0  0  0  0  0  0  0  0
    5.3281    2.7136  -19.6482 C   0  0  2  0  0  0  0  0  0  0  0  0
    5.1667    4.8027  -18.1253 C   0  0  1  0  0  0  0  0  0  0  0  0
    4.4173    3.8510  -19.0927 C   0  0  1  0  0  0  0  0  0  0  0  0
    5.7825    8.3220  -22.4326 C   0  0  0  0  0  0  0  0  0  0  0  0
    7.4103   10.2113  -22.1238 C   0  0  0  0  0  0  0  0  0  0  0  0
    5.0741   10.4466  -21.2647 C   0  0  0  0  0  0  0  0  0  0  0  0
    4.5515    1.9143  -20.7332 C   0  0  0  0  0  0  0  0  0  0  0  0
    4.8824    7.0974  -17.1355 C   0  0  0  0  0  0  0  0  0  0  0  0
    6.2375    9.4370  -21.4610 C   0  0  0  0  0  0  0  0  0  0  0  0
    7.6516   -2.7789  -21.7161 N   0  0  0  0  0  0  0  0  0  0  0  0
    4.2443    5.9233  -17.7827 N   0  0  0  0  0  0  0  0  0  0  0  0
    7.8816    3.3152  -17.9916 O   0  0  0  0  0  0  0  0  0  0  0  0
    6.9093    1.8938  -16.1087 O   0  0  0  0  0  0  0  0  0  0  0  0
    3.9274    4.6384  -20.1812 O   0  0  0  0  0  0  0  0  0  0  0  0
    8.4589   -0.3118  -22.7196 F   0  0  0  0  0  0  0  0  0  0  0  0
    6.7221    2.7372  -17.2958 S   0  0  0  0  0  0  0  0  0  0  0  0
    9.3641    7.9655  -18.2011 H   0  0  0  0  0  0  0  0  0  0  0  0
    7.5812    7.0970  -16.7065 H   0  0  0  0  0  0  0  0  0  0  0  0
    8.7738    9.0359  -20.3593 H   0  0  0  0  0  0  0  0  0  0  0  0
    3.9296   -0.6481  -20.0810 H   0  0  0  0  0  0  0  0  0  0  0  0
    4.5916    8.3355  -19.5510 H   0  0  0  0  0  0  0  0  0  0  0  0
    6.8431    1.7004  -22.2204 H   0  0  0  0  0  0  0  0  0  0  0  0
    3.7061   -3.8619  -18.6602 H   0  0  0  0  0  0  0  0  0  0  0  0
    4.0954   -2.1283  -18.3955 H   0  0  0  0  0  0  0  0  0  0  0  0
    6.6662   -2.7071  -18.3860 H   0  0  0  0  0  0  0  0  0  0  0  0
    6.2769   -4.4406  -18.6506 H   0  0  0  0  0  0  0  0  0  0  0  0
    4.9235    1.3296  -18.0068 H   0  0  0  0  0  0  0  0  0  0  0  0
    6.4421    0.9880  -18.9033 H   0  0  0  0  0  0  0  0  0  0  0  0
    6.1728    4.7940  -16.1957 H   0  0  0  0  0  0  0  0  0  0  0  0
    4.7608    3.6886  -16.3005 H   0  0  0  0  0  0  0  0  0  0  0  0
    5.0644   -3.8903  -20.8382 H   0  0  0  0  0  0  0  0  0  0  0  0
    6.2134    3.1701  -20.1148 H   0  0  0  0  0  0  0  0  0  0  0  0
    6.0499    5.2042  -18.6439 H   0  0  0  0  0  0  0  0  0  0  0  0
    3.5783    3.3907  -18.5502 H   0  0  0  0  0  0  0  0  0  0  0  0
    5.5003    8.7685  -23.3975 H   0  0  0  0  0  0  0  0  0  0  0  0
    6.6070    7.6100  -22.5853 H   0  0  0  0  0  0  0  0  0  0  0  0
    4.9168    7.7945  -22.0057 H   0  0  0  0  0  0  0  0  0  0  0  0
    7.0737   10.6404  -23.0791 H   0  0  0  0  0  0  0  0  0  0  0  0
    7.7401   11.0199  -21.4548 H   0  0  0  0  0  0  0  0  0  0  0  0
    8.2479    9.5220  -22.3064 H   0  0  0  0  0  0  0  0  0  0  0  0
    4.8049   10.8898  -22.2348 H   0  0  0  0  0  0  0  0  0  0  0  0
    4.2016    9.9236  -20.8459 H   0  0  0  0  0  0  0  0  0  0  0  0
    5.3913   11.2417  -20.5739 H   0  0  0  0  0  0  0  0  0  0  0  0
    4.4250    2.5467  -21.6243 H   0  0  0  0  0  0  0  0  0  0  0  0
    3.5634    1.6368  -20.3373 H   0  0  0  0  0  0  0  0  0  0  0  0
    5.3277    6.7840  -16.1797 H   0  0  0  0  0  0  0  0  0  0  0  0
    4.1177    7.8658  -16.9493 H   0  0  0  0  0  0  0  0  0  0  0  0
    8.4593   -2.5365  -22.2535 H   0  0  0  0  0  0  0  0  0  0  0  0
    7.9376   -3.1311  -20.8250 H   0  0  0  0  0  0  0  0  0  0  0  0
    3.8100    6.2349  -18.6279 H   0  0  0  0  0  0  0  0  0  0  0  0
    3.3721    5.3323  -19.8459 H   0  0  0  0  0  0  0  0  0  0  0  0
  1  2  1  0  0  0  0
  1  3  2  0  0  0  0
  2  8  2  0  0  0  0
  3  9  1  0  0  0  0
  4  7  2  0  0  0  0
  4 10  1  0  0  0  0
  5  8  1  0  0  0  0
  5  9  2  0  0  0  0
  6 10  2  0  0  0  0
  6 12  1  0  0  0  0
  7 11  1  0  0  0  0
  7 17  1  0  0  0  0
  8 25  1  0  0  0  0
  9 26  1  0  0  0  0
 10 24  1  0  0  0  0
 11 12  2  0  0  0  0
 11 27  1  0  0  0  0
 12 32  1  0  0  0  0
 13 14  1  0  0  0  0
 13 17  1  0  0  0  0
 14 17  1  0  0  0  0
 15 18  1  0  0  0  0
 15 33  1  0  0  0  0
 16 19  1  0  0  0  0
 16 33  1  0  0  0  0
 18 20  1  0  0  0  0
 18 24  1  0  0  0  0
 19 20  1  0  0  0  0
 19 28  1  0  0  0  0
 20 31  1  0  0  0  0
 21 26  1  0  0  0  0
 22 26  1  0  0  0  0
 23 26  1  0  0  0  0
 25 28  1  0  0  0  0
 29 33  2  0  0  0  0
 30 33  2  0  0  0  0
  1 34  1  0  0  0  0
  2 35  1  0  0  0  0
  3 36  1  0  0  0  0
  4 37  1  0  0  0  0
  5 38  1  0  0  0  0
  6 39  1  0  0  0  0
 13 40  1  0  0  0  0
 13 41  1  0  0  0  0
 14 42  1  0  0  0  0
 14 43  1  0  0  0  0
 15 44  1  0  0  0  0
 15 45  1  0  0  0  0
 16 46  1  0  0  0  0
 16 47  1  0  0  0  0
 17 48  1  0  0  0  0
 18 49  1  0  0  0  0
 19 50  1  0  0  0  0
 20 51  1  0  0  0  0
 21 52  1  0  0  0  0
 21 53  1  0  0  0  0
 21 54  1  0  0  0  0
 22 55  1  0  0  0  0
 22 56  1  0  0  0  0
 22 57  1  0  0  0  0
 23 58  1  0  0  0  0
 23 59  1  0  0  0  0
 23 60  1  0  0  0  0
 24 61  1  0  0  0  0
 24 62  1  0  0  0  0
 25 63  1  0  0  0  0
 25 64  1  0  0  0  0
 27 65  1  0  0  0  0
 27 66  1  0  0  0  0
 28 67  1  0  0  0  0
 31 68  1  0  0  0  0
M  END
> <OMEGA_C>
YD0FQRzlAEEQ7JPBFjnqQA8N8kDgJ43Bgrf/QOCoCkHetJ3BKribQNLnFL/X6qTB1Bm0QOxuBEEf
B5rBLVTQQJxVPz9Lsa7Bws20QBFP3r8Ga6bB5fC+QJ/H9UCjKpDBDD7UQEbQDEE92qDB/I+pQBrT
KD8L9qjBo3LbQBc807/PSKzBkiDpQJmh0L5waLDB+12OQJaFRMD/tpbB4ku+QOQWWsA+rpbBXpe5
QPMR5D9O9JPBQUW0QEC1gkBouYbBtAuoQGc4Q8BSOaHBkH+qQCirLUCKL53B91WlQGuvmUCwAJHB
KVqNQNZ2dkDevZjBcwq5QBgnBUEAdrPBgSHtQLBhI0F9/bDBvl6iQDUlJ0ENHqrBhqWRQDsG9T+w
3aXB+zycQAIe40CRFYnBfpnHQNz9FkEVsKvBhdn0QEzaMcCTuq3BNdGHQIyLvUADQ47BGDb8QCYs
VEDA7o/BQBndQNdm8j+d3oDBEFt7QF5tlEAnc6HBv1cHQRakn766wbXBOxvXQJstL0DJXYrBddMV
QW3l/kDrm5HB/pjyQO4a40DvpoXBUWEMQfaSEEHT36LBMH97QOXpJb/upaDBUu6SQE5eBUF4aJzB
rvraQOSn2T9xw7HBbzBtQKIod8D+R5XBLA2DQJk2CMAGKpPBKlHVQNFALcCDFpPBNtzIQG0ZjsB7
NJXBQo2dQAcvqj/TDZDBFSbOQIzwfD/dOZfB1IfFQGdomUCykIHBcFiYQHoSbEBiZ4LBlg+iQP35
eMCltKbBTdTGQKzjSkAd66DBgJjBQJKIpkCqJpXB8QJlQOwBWUDNZpTBrQKwQM5LDEEeLrvBUGzT
QFuF80DDrrTBoVadQNZs+UCVC7DBt1viQPs+KkH0objBS6/3QHhRMEF9o6vBPfcDQSVaGEGXc7LB
gMGZQH88LkHY4LHB6HOGQAvHHkFnxKbB7YWsQNPdM0FQl6TBN5mNQPL9IkCH/qzBCw9kQOeB0T/A
sqLBR3yqQFcW2UAdcIHB88ODQLi0+0AkmIfBLVkHQb9VIsAtB7LBIAH+QJhkSMCJmabBm9ZzQEKE
x0DeBZXBws9XQImiqkBwxJ7By1YFQaVDAUHIzJPBpYPqQOl/8kDsCo3Brcz/QE/4CkGzl53BdGOb
QAn6Hb88u6TB5Ui0QBVyBEFm7ZnBGhjPQIUSOz9Hp67Bq7+0QKT84b+TXKbBtje/QJLa9UAaE5DB
xEvUQDPzDEGrvaDBb6uoQPJ2IT9Iy6jB7xrbQGja1L8jU6zB2y/oQIuL1L6gdLDBSf6OQKxpSMBg
o5bBHny/QJ62V8C2UJbBJTC5QIx54z811JPBwkC0QEXlgkCevobBsm+pQChhRcAiBqHBu/SpQEec
LECXHZ3BQlmlQLm9mUBjCpHBYzKNQO5sdkCgvpjB8c7sQNhNI0Fi/LDBQiyiQA8cJ0FDC6rBBNS4
QOvzBEFfQbPB+J6QQKTx8D+LoKXBy4KcQFML40BaBonBRXDHQBz3FkHnlqvB9BH1QIPdMcAcxa3B
2PqHQOSzvUBcSo7Baej7QPY+VEBsA5DBtTHdQBRa9D9Xz4DBH717QMdNlEA+gqHB0c8GQbjZm74P
1rXBVvfWQHV9L0DdWorBJu4VQXfy/0ADeZHBPvjyQBuh40AIiYXBkGEMQa/3EEHGwqLBUWF7QNqb
Mb8BW6DBtxuTQGVEBUH4T5zBekLZQNf31z8IwrHBtpJxQMnLfcAwMZXBDHiBQC8rDcDqS5PBpbXU
QNlzJ8CHuZLB9AbMQDoKjMDMnpTBsTOdQIF1qj/z2o/BV6DNQGJaej/pD5fBJo7FQE2jmUAtm4HB
DFGYQOakbEAsaYLBL6alQC6kfMCdZKbB9DvGQDP1SEDz+aDBB53BQGJ0pkB2NpXBFkpkQAvQWUBq
ZZTBX9nhQPcMKkFRo7jBUHD3QDRTMEH6savBJ84DQRxGGEGtcbLBEGyZQI4ULkGU0rHBY1WGQCjE
HkFxo6bBNVysQGDrM0G2kqTB2pyvQOrtC0G//7rBfj/TQJwk80Cdc7TBjDydQAcX+UC5w6/BQsWL
QKSBIEBuw6zBmbxiQIeKzD8bR6LBEcOqQJWy2EDGZ4HBXRuEQLaj+0DzeIfBwk4HQWCzIcDfJLLB
GLD+QKKyR8AEpabBQpp0QK3qx0CWDpXBlbFYQI/OqkDF4J7B

> <OMEGA_E>
kJSIPnhFiD4=

> <OMEGA_NBR>
     25779

$$$$
50216777
  -OEChem-04172616093D

 70 72  0     1  0  0  0  0  0999 V2000
    8.3475    8.0313  -18.5045 C   0  0  0  0  0  0  0  0  0  0  0  0
    7.3348    7.5572  -17.6543 C   0  0  0  0  0  0  0  0  0  0  0  0
    8.0174    8.6261  -19.7367 C   0  0  0  0  0  0  0  0  0  0  0  0
    5.6507    8.2612  -19.2753 C   0  0  0  0  0  0  0  0  0  0  0  0
    4.8709   -0.5696  -20.6460 C   0  0  0  0  0  0  0  0  0  0  0  0
    6.5277    0.7714  -21.8245 C   0  0  0  0  0  0  0  0  0  0  0  0
    5.9836    7.6772  -18.0348 C   0  0  0  0  0  0  0  0  0  0  0  0
    6.6604    8.7662  -20.1336 C   0  0  0  0  0  0  0  0  0  0  0  0
    5.3141    0.6775  -21.1141 C   0  0  0  0  0  0  0  0  0  0  0  0
    5.6360   -1.7297  -20.8621 C   0  0  0  0  0  0  0  0  0  0  0  0
    6.8690   -1.6364  -21.5570 C   0  0  0  0  0  0  0  0  0  0  0  0
    7.3009   -0.3839  -22.0511 C   0  0  0  0  0  0  0  0  0  0  0  0
    5.7891    1.7867  -18.4699 C   0  0  0  0  0  0  0  0  0  0  0  0
    5.6258    4.0996  -16.8252 C   0  0  0  0  0  0  0  0  0  0  0  0
    5.3208    2.7184  -19.6250 C   0  0  2  0  0  0  0  0  0  0  0  0
    5.1586    4.8087  -18.1142 C   0  0  1  0  0  0  0  0  0  0  0  0
    4.4036    3.8501  -19.0695 C   0  0  1  0  0  0  0  0  0  0  0  0
    4.3725   -4.1237  -18.1380 C   0  0  0  0  0  0  0  0  0  0  0  0
    7.4560   10.1322  -22.1745 C   0  0  0  0  0  0  0  0  0  0  0  0
    5.1233   10.4138  -21.3201 C   0  0  0  0  0  0  0  0  0  0  0  0
    5.8018    8.2598  -22.4492 C   0  0  0  0  0  0  0  0  0  0  0  0
    4.5555    1.9217  -20.7172 C   0  0  0  0  0  0  0  0  0  0  0  0
    5.1170   -3.0336  -20.2829 C   0  0  0  0  0  0  0  0  0  0  0  0
    4.8937    7.1127  -17.1434 C   0  0  0  0  0  0  0  0  0  0  0  0
    5.2483   -3.0205  -18.7460 C   0  0  0  0  0  0  0  0  0  0  0  0
    6.2729    9.3854  -21.4981 C   0  0  0  0  0  0  0  0  0  0  0  0
    7.6686   -2.7589  -21.7508 N   0  0  0  0  0  0  0  0  0  0  0  0
    4.2446    5.9371  -17.7775 N   0  0  0  0  0  0  0  0  0  0  0  0
    7.8738    3.3176  -17.9659 O   0  0  0  0  0  0  0  0  0  0  0  0
    6.8907    1.9092  -16.0786 O   0  0  0  0  0  0  0  0  0  0  0  0
    3.8961    4.6279  -20.1566 O   0  0  0  0  0  0  0  0  0  0  0  0
    8.4739   -0.2793  -22.7193 F   0  0  0  0  0  0  0  0  0  0  0  0
    6.7103    2.7461  -17.2713 S   0  0  0  0  0  0  0  0  0  0  0  0
    9.3829    7.9391  -18.2117 H   0  0  0  0  0  0  0  0  0  0  0  0
    7.5918    7.1010  -16.7097 H   0  0  0  0  0  0  0  0  0  0  0  0
    8.8037    8.9797  -20.3871 H   0  0  0  0  0  0  0  0  0  0  0  0
    4.6150    8.3244  -19.5747 H   0  0  0  0  0  0  0  0  0  0  0  0
    3.9332   -0.6388  -20.1147 H   0  0  0  0  0  0  0  0  0  0  0  0
    6.8646    1.7283  -22.1949 H   0  0  0  0  0  0  0  0  0  0  0  0
    4.9118    1.3355  -17.9832 H   0  0  0  0  0  0  0  0  0  0  0  0
    6.4319    0.9920  -18.8765 H   0  0  0  0  0  0  0  0  0  0  0  0
    6.1680    4.8127  -16.1868 H   0  0  0  0  0  0  0  0  0  0  0  0
    4.7532    3.7100  -16.2805 H   0  0  0  0  0  0  0  0  0  0  0  0
    6.2074    3.1803  -20.0839 H   0  0  0  0  0  0  0  0  0  0  0  0
    6.0422    5.2009  -18.6390 H   0  0  0  0  0  0  0  0  0  0  0  0
    3.5744    3.3855  -18.5158 H   0  0  0  0  0  0  0  0  0  0  0  0
    4.4708   -4.1087  -17.0425 H   0  0  0  0  0  0  0  0  0  0  0  0
    3.3217   -3.9513  -18.4141 H   0  0  0  0  0  0  0  0  0  0  0  0
    4.6966   -5.1023  -18.5218 H   0  0  0  0  0  0  0  0  0  0  0  0
    7.1245   10.5500  -23.1366 H   0  0  0  0  0  0  0  0  0  0  0  0
    7.7978   10.9469  -21.5193 H   0  0  0  0  0  0  0  0  0  0  0  0
    8.2836    9.4282  -22.3464 H   0  0  0  0  0  0  0  0  0  0  0  0
    4.8605   10.8437  -22.2979 H   0  0  0  0  0  0  0  0  0  0  0  0
    4.2437    9.9100  -20.8929 H   0  0  0  0  0  0  0  0  0  0  0  0
    5.4511   11.2163  -20.6430 H   0  0  0  0  0  0  0  0  0  0  0  0
    5.5246    8.6928  -23.4216 H   0  0  0  0  0  0  0  0  0  0  0  0
    6.6164    7.5340  -22.5900 H   0  0  0  0  0  0  0  0  0  0  0  0
    4.9295    7.7517  -22.0121 H   0  0  0  0  0  0  0  0  0  0  0  0
    4.4249    2.5607  -21.6030 H   0  0  0  0  0  0  0  0  0  0  0  0
    3.5693    1.6316  -20.3257 H   0  0  0  0  0  0  0  0  0  0  0  0
    4.0589   -3.1576  -20.5567 H   0  0  0  0  0  0  0  0  0  0  0  0
    5.7019   -3.8712  -20.6909 H   0  0  0  0  0  0  0  0  0  0  0  0
    5.3364    6.8056  -16.1843 H   0  0  0  0  0  0  0  0  0  0  0  0
    4.1359    7.8898  -16.9653 H   0  0  0  0  0  0  0  0  0  0  0  0
    4.9235   -2.0429  -18.3604 H   0  0  0  0  0  0  0  0  0  0  0  0
    6.2984   -3.1938  -18.4680 H   0  0  0  0  0  0  0  0  0  0  0  0
    8.4911   -2.4995  -22.2570 H   0  0  0  0  0  0  0  0  0  0  0  0
    7.9296   -3.1393  -20.8635 H   0  0  0  0  0  0  0  0  0  0  0  0
    3.8082    6.2441  -18.6232 H   0  0  0  0  0  0  0  0  0  0  0  0
    3.3370    5.3178  -19.8191 H   0  0  0  0  0  0  0  0  0  0  0  0
  1  2  2  0  0  0  0
  1  3  1  0  0  0  0
  2  7  1  0  0  0  0
  3  8  2  0  0  0  0
  4  7  2  0  0  0  0
  4  8  1  0  0  0  0
  5  9  2  0  0  0  0
  5 10  1  0  0  0  0
  6  9  1  0  0  0  0
  6 12  2  0  0  0  0
  7 24  1  0  0  0  0
  8 26  1  0  0  0  0
  9 22  1  0  0  0  0
 10 11  2  0  0  0  0
 10 23  1  0  0  0  0
 11 12  1  0  0  0  0
 11 27  1  0  0  0  0
 12 32  1  0  0  0  0
 13 15  1  0  0  0  0
 13 33  1  0  0  0  0
 14 16  1  0  0  0  0
 14 33  1  0  0  0  0
 15 17  1  0  0  0  0
 15 22  1  0  0  0  0
 16 17  1  0  0  0  0
 16 28  1  0  0  0  0
 17 31  1  0  0  0  0
 18 25  1  0  0  0  0
 19 26  1  0  0  0  0
 20 26  1  0  0  0  0
 21 26  1  0  0  0  0
 23 25  1  0  0  0  0
 24 28  1  0  0  0  0
 29 33  2  0  0  0  0
 30 33  2  0  0  0  0
  1 34  1  0  0  0  0
  2 35  1  0  0  0  0
  3 36  1  0  0  0  0
  4 37  1  0  0  0  0
  5 38  1  0  0  0  0
  6 39  1  0  0  0  0
 13 40  1  0  0  0  0
 13 41  1  0  0  0  0
 14 42  1  0  0  0  0
 14 43  1  0  0  0  0
 15 44  1  0  0  0  0
 16 45  1  0  0  0  0
 17 46  1  0  0  0  0
 18 47  1  0  0  0  0
 18 48  1  0  0  0  0
 18 49  1  0  0  0  0
 19 50  1  0  0  0  0
 19 51  1  0  0  0  0
 19 52  1  0  0  0  0
 20 53  1  0  0  0  0
 20 54  1  0  0  0  0
 20 55  1  0  0  0  0
 21 56  1  0  0  0  0
 21 57  1  0  0  0  0
 21 58  1  0  0  0  0
 22 59  1  0  0  0  0
 22 60  1  0  0  0  0
 23 61  1  0  0  0  0
 23 62  1  0  0  0  0
 24 63  1  0  0  0  0
 24 64  1  0  0  0  0
 25 65  1  0  0  0  0
 25 66  1  0  0  0  0
 27 67  1  0  0  0  0
 27 68  1  0  0  0  0
 28 69  1  0  0  0  0
 31 70  1  0  0  0  0
M  END
> <OMEGA_C>
QY8FQUOAAEE5CZTBobbqQF3U8UAUPI3BOUcAQZQECkG05J3BydK0QAAuBEHkM5rBcN6bQKfTEb/0
KqXBMePQQA15RT+gmK7BSXm/QLyr9UBaR5DBNSLVQI1CDEGkEaHBZQ2qQOtyLT+e6ajB0Fm0QFxo
3b+g5abBJs/bQDR20b+rdKzBSqHpQEiPxL6yaLDBU0C5QBSx5D9UwpPB3Qa0QMIvg0D2mYbBRUSq
QNP5LUAVAJ3BXBOlQI7gmUDj6ZDBJ+qMQDpndkBCjpjBLeuLQCj1g8CzGpHB1JfuQGMdIkF6ZbHB
VfKjQNyeJkGNj6rBg6i5QP4nBEH2l7PBqcaRQOT49T/cvKXBvL6jQLEmQsB5Q6LBf5mcQPGa40Ca
JYnB7/GnQJ5QQcC295XBw7vIQHoqFkEo/KvBR2X1QLSRMMCKAa7BjdOHQMP8vUA4OI7BMvb7QCBT
VEAduo/BX4DcQERh9D/0oIDBW1p5QF0XlEDMQKHBJJUHQfn9jr4WwbXBnrrWQGq/L0CfK4rBdCAW
QWIN/kCEsZHBxe/yQCc740CRrYXBDNwMQausD0HVGKPB/K2TQMgwBUEVmZzBUbl7QGiLI7/S6qDB
a6rbQGc63T8gj7HBYy2dQO7yqj+w3Y/B/NHNQAD0fT8mA5fBpGDFQFMBmkCRfoHB4RmYQNhvbUCP
PoLBB6PGQJmKS0Dqq6DBvlnBQJFtpkC3HJXBPMJkQPurWEBOIJTBkBCPQDt6g8AgV4jB8JZUQMfi
fMAqUJPB60qWQNJFo8CWLJTBTvzjQPXMKEG4F7nBoof5QLEmL0GMJ6zBqokEQd/ZFkFkxbLBjomb
QLl/LUEfYrLBxsyHQFuPHkGSJKfBW2+uQCt2M0HbJKXBfcmwQJoVC0GHX7vBKbnTQJMW8UA7uLTB
vL6dQFYO+EDTGLDBcJiNQODiI0DZ0qzBrW9kQF3Y0D/5mqLBTuKBQLUWSsAKdKTB6HW2QFjBd8D1
hqXBhcOqQFjH2UB2eYHB/ViEQCZ5/EDyuIfBAo2dQHe+AsAY4pLBdYzJQFRnTMCEvpPBZ9sHQdr3
H8BXDrLBB7/9QIXqSMB96KbBR7pzQKPPx0Bp/JTBB5JVQEQrqkCcjZ7BGpwFQUtwAEEUGpTBVPDq
QM2t8UBMQ43BnjoAQWkWCkGE6p3BHs60QCBQBEGkHJrBu9ObQK2iFL+ID6XB7JnQQP5aQz+Wja7B
UKK/QP7C9UCzOpDBbfbUQABpDEHGAqHBHNGpQJftKj/g2KjBQXG0QHae3r+LxqbBKsrbQDBb0r9k
YqzB9G/pQPjmx770XLDBiKm4QB5i5D/fsZPBexa0QCtEg0CEnobBGfWpQAOrLUAj+pzBRR2lQNX7
mUC87ZDBmNeMQBPEdkDflJjB0tWNQDCPhcDH+pDBAPG5QOk0BEFDjbPBMLrtQFOlIkHTRLHBSt2i
QH1mJkFxc6rB2XCRQDDR9D/yr6XBahqkQD3nQsA3G6LBV9GcQJuj40BjGInBZwWoQKiXQcCozpXB
eEfIQAtNFkEq56vBFHL1QNjkMMDF963BYPOHQJ8lvkBkNY7BQ7L7QP6IU0Ba1I/BNWjcQB5d9D/E
ooDBDOl5QDpZlECeTqHBzHMHQXZckb69vLXBZoXWQAGFL0ApMYrBCzQWQXy+/UBS0pHBY0/zQBTi
4kCMvYXBVMEMQYjHD0GuJKPBsJuTQMdhBUFFdJzBSb57QHrbJr8hyqDBrUXbQOEx3D88ibHB+nWc
QMZYrD8Vw4/BFuzMQI/Eej9C6ZbB0J3FQDkHmkDPiIHBBCeYQGLvbUBtPILBuXXGQPStSkBAp6DB
P2PBQL2BpkAPIpXBUTZkQDmVWUCoK5TBNsOQQLHphMAqNojBggVYQKvdgcDbO5PBA/OZQKlEpMCq
CJTB+NuwQG4bC0GCUrvBf3PUQM208UAqsLTB21GeQKKT90ALFbDBYu3iQLZOKUEf9LjBTSb4QL66
L0Gz/avBSlAEQdWjF0GxqLLBLj+aQIBHLUFaQrLBuACHQEALHkGYEKfB+dasQPtHM0FR/6TB2yqN
QI8jI0D1yKzBY9ljQPKQzz/WiKLBjlOCQKqFS8A1VqTBEiC3QC9LeMA6UKXBYQqrQByk2UCJcYHB
Tp6EQDmE/EA5oIfBpOObQIU7BMBCvZLB59PJQIEJScARipPBXtQHQbUmIMAXDbLBEfn9QK0yScB+
4abBdhZ0QPwbyEAt+JTBy3JWQM+bqkCAop7B

> <OMEGA_E>
QKuWPsDOlT4=

> <OMEGA_NBR>
     28335

$$$$
50216797
  -OEChem-04172616093D

 71 73  0     1  0  0  0  0  0999 V2000
    8.3591    8.0025  -18.5024 C   0  0  0  0  0  0  0  0  0  0  0  0
    7.3457    7.5292  -17.6522 C   0  0  0  0  0  0  0  0  0  0  0  0
    8.0291    8.6081  -19.7295 C   0  0  0  0  0  0  0  0  0  0  0  0
    5.6619    8.2530  -19.2637 C   0  0  0  0  0  0  0  0  0  0  0  0
    4.8326   -0.5792  -20.6740 C   0  0  0  0  0  0  0  0  0  0  0  0
    6.5447    0.7415  -21.7934 C   0  0  0  0  0  0  0  0  0  0  0  0
    5.9942    7.6604  -18.0280 C   0  0  0  0  0  0  0  0  0  0  0  0
    6.6718    8.7565  -20.1220 C   0  0  0  0  0  0  0  0  0  0  0  0
    5.3102    0.6632  -21.1174 C   0  0  0  0  0  0  0  0  0  0  0  0
    5.5870   -1.7486  -20.8741 C   0  0  0  0  0  0  0  0  0  0  0  0
    6.8428   -1.6712  -21.5276 C   0  0  0  0  0  0  0  0  0  0  0  0
    7.3072   -0.4244  -22.0024 C   0  0  0  0  0  0  0  0  0  0  0  0
    5.7625    1.7601  -18.4637 C   0  0  0  0  0  0  0  0  0  0  0  0
    5.6182    4.0794  -16.8229 C   0  0  0  0  0  0  0  0  0  0  0  0
    5.3165    2.6993  -19.6219 C   0  0  2  0  0  0  0  0  0  0  0  0
    5.1591    4.7909  -18.1143 C   0  0  1  0  0  0  0  0  0  0  0  0
    4.4014    3.8347  -19.0705 C   0  0  1  0  0  0  0  0  0  0  0  0
    5.8212    8.2464  -22.4380 C   0  0  0  0  0  0  0  0  0  0  0  0
    7.4619   10.1302  -22.1587 C   0  0  0  0  0  0  0  0  0  0  0  0
    5.1258   10.3951  -21.3068 C   0  0  0  0  0  0  0  0  0  0  0  0
    4.5610    1.9156  -20.7298 C   0  0  0  0  0  0  0  0  0  0  0  0
    5.0320   -3.0476  -20.3261 C   0  0  0  0  0  0  0  0  0  0  0  0
    4.9020    7.0954  -17.1405 C   0  0  0  0  0  0  0  0  0  0  0  0
    5.0230   -3.0041  -18.7791 C   0  0  1  0  0  0  0  0  0  0  0  0
    6.2827    9.3749  -21.4854 C   0  0  0  0  0  0  0  0  0  0  0  0
    4.2301   -4.1968  -18.2130 C   0  0  0  0  0  0  0  0  0  0  0  0
    7.6353   -2.8028  -21.6975 N   0  0  0  0  0  0  0  0  0  0  0  0
    4.2500    5.9251  -17.7819 N   0  0  0  0  0  0  0  0  0  0  0  0
    7.8627    3.2659  -17.9510 O   0  0  0  0  0  0  0  0  0  0  0  0
    6.8535    1.8737  -16.0661 O   0  0  0  0  0  0  0  0  0  0  0  0
    3.8964    4.6126  -20.1587 O   0  0  0  0  0  0  0  0  0  0  0  0
    6.3680   -3.0190  -18.2956 O   0  0  0  0  0  0  0  0  0  0  0  0
    8.5020   -0.3363  -22.6327 F   0  0  0  0  0  0  0  0  0  0  0  0
    2.9320   -4.1128  -18.6112 F   0  0  0  0  0  0  0  0  0  0  0  0
    4.2716   -4.1662  -16.8559 F   0  0  0  0  0  0  0  0  0  0  0  0
    4.7602   -5.3699  -18.6516 F   0  0  0  0  0  0  0  0  0  0  0  0
    6.6887    2.7104  -17.2612 S   0  0  0  0  0  0  0  0  0  0  0  0
    9.3948    7.9014  -18.2135 H   0  0  0  0  0  0  0  0  0  0  0  0
    7.6025    7.0652  -16.7113 H   0  0  0  0  0  0  0  0  0  0  0  0
    8.8154    8.9634  -20.3790 H   0  0  0  0  0  0  0  0  0  0  0  0
    4.6257    8.3241  -19.5598 H   0  0  0  0  0  0  0  0  0  0  0  0
    3.8769   -0.6378  -20.1745 H   0  0  0  0  0  0  0  0  0  0  0  0
    6.9057    1.6947  -22.1507 H   0  0  0  0  0  0  0  0  0  0  0  0
    4.8756    1.3219  -17.9826 H   0  0  0  0  0  0  0  0  0  0  0  0
    6.3968    0.9560  -18.8651 H   0  0  0  0  0  0  0  0  0  0  0  0
    6.1678    4.7885  -16.1864 H   0  0  0  0  0  0  0  0  0  0  0  0
    4.7406    3.7016  -16.2778 H   0  0  0  0  0  0  0  0  0  0  0  0
    6.2127    3.1575  -20.0656 H   0  0  0  0  0  0  0  0  0  0  0  0
    6.0466    5.1773  -18.6368 H   0  0  0  0  0  0  0  0  0  0  0  0
    3.5703    3.3732  -18.5170 H   0  0  0  0  0  0  0  0  0  0  0  0
    5.5425    8.6780  -23.4107 H   0  0  0  0  0  0  0  0  0  0  0  0
    6.6411    7.5265  -22.5778 H   0  0  0  0  0  0  0  0  0  0  0  0
    4.9518    7.7319  -22.0027 H   0  0  0  0  0  0  0  0  0  0  0  0
    7.1293   10.5474  -23.1206 H   0  0  0  0  0  0  0  0  0  0  0  0
    7.7974   10.9461  -21.5016 H   0  0  0  0  0  0  0  0  0  0  0  0
    8.2943    9.4318  -22.3302 H   0  0  0  0  0  0  0  0  0  0  0  0
    4.8613   10.8252  -22.2841 H   0  0  0  0  0  0  0  0  0  0  0  0
    4.2491    9.8844  -20.8818 H   0  0  0  0  0  0  0  0  0  0  0  0
    5.4471   11.1985  -20.6276 H   0  0  0  0  0  0  0  0  0  0  0  0
    4.4542    2.5589  -21.6156 H   0  0  0  0  0  0  0  0  0  0  0  0
    3.5644    1.6370  -20.3567 H   0  0  0  0  0  0  0  0  0  0  0  0
    4.0048   -3.1893  -20.6932 H   0  0  0  0  0  0  0  0  0  0  0  0
    5.6609   -3.8845  -20.6640 H   0  0  0  0  0  0  0  0  0  0  0  0
    5.3426    6.7820  -16.1826 H   0  0  0  0  0  0  0  0  0  0  0  0
    4.1465    7.8741  -16.9593 H   0  0  0  0  0  0  0  0  0  0  0  0
    4.5239   -2.0760  -18.4638 H   0  0  0  0  0  0  0  0  0  0  0  0
    8.4768   -2.5521  -22.1763 H   0  0  0  0  0  0  0  0  0  0  0  0
    7.8629   -3.1876  -20.8030 H   0  0  0  0  0  0  0  0  0  0  0  0
    3.8220    6.2367  -18.6302 H   0  0  0  0  0  0  0  0  0  0  0  0
    3.3389    5.3043  -19.8222 H   0  0  0  0  0  0  0  0  0  0  0  0
    6.3639   -2.9923  -17.3460 H   0  0  0  0  0  0  0  0  0  0  0  0
  1  2  1  0  0  0  0
  1  3  2  0  0  0  0
  2  7  2  0  0  0  0
  3  8  1  0  0  0  0
  4  7  1  0  0  0  0
  4  8  2  0  0  0  0
  5  9  1  0  0  0  0
  5 10  2  0  0  0  0
  6  9  2  0  0  0  0
  6 12  1  0  0  0  0
  7 23  1  0  0  0  0
  8 25  1  0  0  0  0
  9 21  1  0  0  0  0
 10 11  1  0  0  0  0
 10 22  1  0  0  0  0
 11 12  2  0  0  0  0
 11 27  1  0  0  0  0
 12 33  1  0  0  0  0
 13 15  1  0  0  0  0
 13 37  1  0  0  0  0
 14 16  1  0  0  0  0
 14 37  1  0  0  0  0
 15 17  1  0  0  0  0
 15 21  1  0  0  0  0
 16 17  1  0  0  0  0
 16 28  1  0  0  0  0
 17 31  1  0  0  0  0
 18 25  1  0  0  0  0
 19 25  1  0  0  0  0
 20 25  1  0  0  0  0
 22 24  1  0  0  0  0
 23 28  1  0  0  0  0
 24 26  1  0  0  0  0
 24 32  1  0  0  0  0
 26 34  1  0  0  0  0
 26 35  1  0  0  0  0
 26 36  1  0  0  0  0
 29 37  2  0  0  0  0
 30 37  2  0  0  0  0
  1 38  1  0  0  0  0
  2 39  1  0  0  0  0
  3 40  1  0  0  0  0
  4 41  1  0  0  0  0
  5 42  1  0  0  0  0
  6 43  1  0  0  0  0
 13 44  1  0  0  0  0
 13 45  1  0  0  0  0
 14 46  1  0  0  0  0
 14 47  1  0  0  0  0
 15 48  1  0  0  0  0
 16 49  1  0  0  0  0
 17 50  1  0  0  0  0
 18 51  1  0  0  0  0
 18 52  1  0  0  0  0
 18 53  1  0  0  0  0
 19 54  1  0  0  0  0
 19 55  1  0  0  0  0
 19 56  1  0  0  0  0
 20 57  1  0  0  0  0
 20 58  1  0  0  0  0
 20 59  1  0  0  0  0
 21 60  1  0  0  0  0
 21 61  1  0  0  0  0
 22 62  1  0  0  0  0
 22 63  1  0  0  0  0
 23 64  1  0  0  0  0
 23 65  1  0  0  0  0
 24 66  1  0  0  0  0
 27 67  1  0  0  0  0
 27 68  1  0  0  0  0
 28 69  1  0  0  0  0
 31 70  1  0  0  0  0
 32 71  1  0  0  0  0
M  END
> <OMEGA_C>
374FQWwKAEHqBJTBQhDrQGvv8ECcN43BLHcAQbW6CUEP1p3BXi61QCgMBEEQHJrB8KSaQARGFL9T
ZKXBg27RQNDVPT/SWK7Bh9C/QDsi9UBYOZDBFH/VQIIaDEHI+aDBW+2pQIHGKT9v8KjB4MiyQPnQ
378R/qbBEPjaQJbp1b9+OKzBQtTpQC1G2b4ABbDBjWa4QFxJ4T+PtZPBA8izQFaKgkA2lYbB3yCq
QJDBLECV+ZzBChelQOpOmUAb6pDBCtiMQIJsdUBmkJjBH0e6QCTxA0EMgbPBQsjuQDMVIkHtRLHB
TQakQFdSJkFMdKrBV/ORQJMx9T+h1qXBgwahQEQMQ8DJm6LBgd2cQJUN40DFH4nBj7ygQOJDQMCe
O5bBGAzJQHT/FUEQ4qvB9FyHQGxMhsAotJHBvlT0QHtgM8CHlK3BWACIQKuavUA/QY7BApv7QAIE
UUC9m4/BzE/bQBzW7z9Xh4DBtV55QEaak0AJRaHBYcbLQIA2QcBsXZLBAQgIQbg0rL7PD7XByKU7
QDicg8DP45TBNbGIQCRRhcDo2IbB9FOYQGPWq8B5NpXBgwnWQLF3LUD4ForBL1EWQajY/EBBtZHB
uEfzQF4W4kDGsIXB8AsNQeNpD0FKCKPBDQaUQGUvBUGKepzB/h54QGtII79PZaHBsvvcQIzq2D+T
NLHBEAWcQKkyqT9m3I/BrrLMQOq7dD+665bB3F7FQB87mUDAfYHBprKXQIfnbEDmOILBh87GQEYU
SkBdhqDBmH3BQAqspUA7GJXBYIBkQPfiV0DNIpTBDVyxQALZCkEISbvB4IPUQEXZ8EBtn7TBR3We
QKpr90B9BbDBfiPkQB/CKEHy9rjBmIT5QEIjL0FPA6zBbLUEQY/oFkFQpLLBKpCbQAY0LUHKRbLB
hviHQJgmHkHfDafBv06uQA4tM0FUBaXBaIiOQFDFI0DS7KzB3h5kQP2H0T942qLBpieAQNcdTMCi
i6XBHya1QJObeMDTT6XBsvaqQP0F2UDmdYHB86+EQD74+0CjrIfBZMOQQI3dBMDZtZPB2aAHQT5W
I8D9aLHB1Jz7QLsBTMCbbKbBP5x0QMySx0C8CpXB/q9VQJS8qUDtk57B9aTLQLOBP8CbxIrBZYcF
QTenAEEL9ZPBe3nqQA1R8kCOLo3BhV0AQVY9CkGx0J3Bvua0QNiWBEHVL5rBVtmZQLDrC7+zFqXB
wArRQPvaQD8iG67BgU2/QEtx9kATQpDBrWDVQKuZDEFKBaHBJHipQFpjMD/TtqjBtYexQH+y3L9b
tKbB6+3ZQP9g1L/g1avBHCrpQLbm1r6Dsq/BKyS4QDm/5j9Jm5PBwZ2zQNINhECjjobBgPepQOsv
L0CZ6JzBod6kQHesmkAn6JDBcLmMQIEVeEDJjpjB4tvuQECxIkFbQ7HBcZWjQIZXJkEbvqrBIZC7
QHIOBEGZnLPBF76RQMuV+T8UvKXB/hyfQMI/QcA0bKLBMTmcQEN15EAqL4nBKSCiQKToQsDkEpbB
uzzJQFpRFkFl/avBc0CGQKrahcBCfpHBnh3zQIYFM8AmB63B8JaHQHfbvkCzSY7Bu2X7QCipU0BY
lo/BjyXbQN0J9j8HdYDBWL55QETklEDYTqHBGtLNQC+vTcAR+JLBYrEHQcJwsb45w7TBIMw4QDEJ
fcDe3JPBuJWKQGJBh8BNsIbBfEeSQNglrMBws5XB9NjVQLZdMEDjCIrBvRIWQQIc/kAymJHBnIPy
QLmk40Ayn4XBSgINQdjaD0EC/qLB5c2TQKWsBUE4nZzB8MV2QJy4F79PBqHB/NjcQIe92T9dA7HB
mbebQAlUrz+LvY/Bz1vMQEqgfj/2yJbB9DzFQELRmkA0foHB6o2XQCkTcEDzLILBRK7GQOk/TEBX
eaDB+TzBQHYgp0CFFZXBy/NjQPrUWkCVKJTBu23kQEA5KUHuAbnBTdf4QH7fL0EQ/qvBu/kEQaC9
F0FKhbLBTmObQB4WLUG7m7LBmJiHQAP3HUFjb6fBRRetQGpTM0FBTKXBrtqyQIrMCkF+cbvB+UTW
QDOH8UB8mrTBZdefQDs690AVNbDBgpiOQP59JUAw36zBoXljQDFT1z8mw6LBj7l6QPZ2RsDM1aTB
UDqxQAmCd8CYuqXBqCeqQDem2kDce4HBt/ODQDNa/UBgz4fBCeGVQFSwBcCd/ZLB9R8HQQ6nI8AB
z7DBNAX6QHsaS8DW0aXBqsNzQLuqyECLFpXB2RRWQIIeq0ATqZ7BNsLPQIq5TsC2YovBRMYFQXae
/0Dt9ZPB6frqQFm08ECdK43BpJcAQW9sCUEnz53BYVm1QG/nA0H+IprBd86aQAIsEb/vXqXB1c7R
QFIyQD8FR67Bncm/QH8G9UB6N5DBB8/VQHPYC0Hr/aDB+S2qQBaVLD/r66jBnOGyQAdv3r939abB
QxjbQCXq1L8sLazBSR3qQD2Q1b5u86/BHnq4QDBq4j8JuJPB0cuzQJrAgkBElIbBEyKqQLlkLUBI
+ZzBnPGkQLx0mUC+6JDBI6+MQHmldUBAipjBvXfvQGTBIUG1RLHBZLmkQFEzJkGDfarBSaO6QBDE
A0H5i7PBjyWSQH+m9j913qXBA/SgQDZWQsBonKLBWbCcQDUs40A7IYnBx9agQNZTQMDhOpbB247J
QPXDFUGZ6KvBlj6HQLhehsDhx5HBzUH0QCodM8Cxk63BfNSHQDO2vUBCP47BMJ/7QDG1UUCqoI/B
hHXbQBPJ8D/YjIDB0nN4QKCmk0CaOaHBvuvLQO0FQsB/ZZLBAiYIQV1pqr7FBbXBFXSXQC3Xq8B7
jZXBGCo7QMbOgsBDzZTBPCmJQIFnhsDY7IbBwBrWQMMELkABGorBG1MWQUtS/EDvnZHBywrzQA7x
4UBvn4XBbToNQasDD0Fg/6LByzuUQF8PBUE3ipzBJGh4QKWjH7/LYaHBHIXdQOUY2j87GLHB0SCc
QAceqj8n3o/BM8vMQF9Odz9L8ZbBgWTFQFZ/mUAagYHBK8mXQE49bUBrMoLBc8bGQFsSS0DpfqDB
/kjBQBjapUDFG5XBQoJkQA7HV0DpFZTByfnkQKV0KEGv+LjB40X6QOTILkFOAazBAQEFQfeDFkE8
n7LBjWGcQHUbLUGdT7LBso6IQCQdHkEkGafB5yKvQBUGM0HJDaXBK9+xQE+2CkFpVLvBAr/UQN9X
8ED5p7TBXLCeQDc590BOFbDBbe6OQOd7JECD9qzB51dkQDIi0z8u76LB0QKAQPPcSsDjhaXBQ+C0
QN/8d8DLYKXBtKOqQK862UA/cYHB6I2EQBEt/ECguofBLA6RQI7tBMBDopPB2J4HQXw5I8AVZLHB
nnH7QBkeTMBtb6bByi10QDWnx0D3B5XB+pBUQCWoqUCLgp7BXuPLQMLKQMBMzIrBt3sFQSB8AEHO
5ZPBNnTqQLjz8UA2G43B+0YAQZriCUFiy53Bc8i0QPoNBEFYKprBrAqaQGGjIr/cZaXB96XQQCZ6
RD9kwq3BGEW/QFLC9UDCMpDBuS7VQPkGDEEIB6HBmROpQOikIz/GcKjB/pqyQKPO5L8siqfB6Wbb
QDmB0r++dKzBgdzpQNCnvb52s6/BU3e4QMdz5D9AbpPBEBG0QLqug0AKiYbB6GqpQKm+LEBYwpzB
ze2kQIYVmkA+4JDB/5uMQN6jdkC6eJjBHAy6QPxrA0H8g7PB1bnuQLGJIUFmdLHBP/ajQGURJkH4
sqrBwVWQQL8A8D8oOaXBmMefQMEmS8BELKXBREKcQBfP40BwG4nBPj6bQL0nZcA6MpnBEOPIQHqm
FUF+AazBwXe8QAT/PMAcgZHBSbD1QFnRL8DMNq7BWZ+HQLM1vkA0N47BSYv7QJXzU0DQyI/B/KPc
QK0K9z/wdIDBTWJ6QDMXlEBYSaHBBGRiQIu0UcDqdJXB7hUIQekjcL7gprTBhLTkQIKGQsD6kZXB
iCC7QNcyacBYKIjB+9+yQNpc07+Ka4/B3YPWQBo+MECGDorBMAgWQeYU/kCWhJHBl43yQASB40Dx
hYXB1eQMQV+GD0E2+6LBrK2TQK4EBUFemZzBPxV3QMWsOr+nZ6HBOJTbQNq13j8iV7DBKGicQNjS
rD+kaY/Bqa/MQK81ej92npbBqKDFQIGdmkB4gYHBLzSYQBXybkChG4LBicLFQEDoSECYnKDBcB/B
QPiWpkDkHZXBtkJjQHVRWkC8EJTBVz2xQIMjCkGFWLvB5zXUQJKo70Cni7TBOiSeQNup9kBE/q/B
ryzkQKAFKEHiMrnBGn/5QJK3LkHxR6zBf6cEQYtKFkGPvbLB2JibQGLCLEGnkLLBP9WHQOkHHkEe
QqfBhEquQMALM0FaWKXBreqKQG/1H0A7V6zBMrNiQC8uyT8z06HBl1t/QDeHTcBwxajBAX+0QEfV
esDODqnBnTyqQHX+2UCbaYHBiP6DQFyz/ED6uIfBxLmfQGp1lcAC0pjBZGkIQQvFHMAUubHB7Xz8
QJHES8CNOKfBIqNzQM8NyEAgAJXBjj5XQAyjqkDusp7BKGtdQBLBYcATJ47BpscFQat4AEE3CpTB
SSXrQGjf8UAwOY3BI38AQXD0CUEI6J3BB0O1QMs3BEGvLprBSXSZQOQ4Kr+fR6XBWR/PQDrlQj8o
xK3BNOi/QBLC9UCfQ5DBTo/VQBo6DEGbEKHByNOnQI3rHT++XKjBC8qyQC0657/uT6fBk0zbQEE+
0r9KWazBSNvoQKQjur7Ita/Bss23QLTA4j9tYZPBd0i0QMubg0CplobBU5CoQMiBK0AouZzBFwql
QDLnmUBG75DB1DuMQDAmdkCYbpjBqtnuQDb7IUEjb7HB+ECkQDR6JkERkarBfgK6QGTyA0HMjLPB
DPOOQDJ57D+oDqXBJ9ugQElNTcDf7qTBHfqcQE/A40AVJ4nBIVSXQFTqY8BICJnBpBPJQPoJFkHF
/KvB8XS1QH4JOsCVuZDBVTb2QHSjLsB7J67BLg+IQD1LvkCkRI7BUlH7QCFbUkDL54/BKW/cQOAV
9j/NeIDBoGN5QDWyk0BdQaHB/RZYQNSMT8Afc5bBS24HQcWTVr5bxbTBMwPfQCgLQMDm3JPB8o6w
QIBfZMDjT4fBnBirQEPqzL+kHI/BvUvWQF5tL0CtGYrBMFkWQf32/UCus5HBZF3zQCRT40AMqYXB
KRMNQfKOD0FPIKPBrBuUQAJIBUE0kJzBk8Z1QITwRb+TV6HBz3LZQIFj3j/aabDB88+bQOn6qz+k
SY/BqM7LQEmIdT+vkpbBribGQHqEmkDCnoHBv3GYQDFtb0A/GYLB89TEQOL0RkBKsKDBIjLBQKYW
pkCqP5XB7ZhiQHCCWkAp8ZPBbivkQAGaKEFjI7nBdsX5QMoQL0FZOKzB1a4EQXa7FkGBzLLBL8Gb
QKpNLUEFZbLBJCmIQNlqHkH3HqfBOMGuQJtbM0HELKXBDBGxQCvMCkFvV7vB5BrUQPew8EAHqbTB
KiWeQNyn90AeBrDBXtCIQC/3HUCHKKzBpKFgQATJxD+qgKHBOLaCQPrwU8CPZqnByzi4QD45fMBQ
66fB9BerQOu+2UA9fYHB1NOEQImy/ECCtIfBCHebQMnGlMAzQpjBVn4IQaKVGsBTv7HBVJz9QGQf
SsCUK6fBGq90QPRCyEB8DZXB49RWQHd4qkCQq57Bt0FNQACcXcBELo/Bzx0GQXkyAEH4o5TBHE3s
QN+E8UBRp43B1XkAQSnECUEjcJ7Bi321QI9IBEF4T5rBHSqhQB13Gr9oTKPB8oLLQAUvRD8mea/B
QtbAQH/B9UC3dZDBzUrVQH42DEFPW6HBjWKoQBkWID8cgqjBL3+9QFep2L8Y1KTBnHneQMpGyb/F
hqzBKhLmQLeIrL6dm7HBdfW4QPrv4z+hbJPB1p61QET9g0AypobBIsioQJeiK0DFu5zBEpGlQH71
mUDQ9ZDB70SMQGR8dUArRZjBlEPtQOIZIkHTzbHBBeSiQEcxJkHFtqrBEQe5QJ/BA0EDvLPBJiGP
QJEm7D+iEKXBNgfAQPYlN8Dr4pzBEFWeQBHv40CKMInBRTSZQMzhQ8BVXJXBugfIQPj1FUEsPKzB
8rlrQIJEeMCr5JrB7Ev5QKiYKcDLtq7BH+eIQC1+vkC5M47B5038QBpRU0DwJJDBIy7eQLBa+D81
moDBrmh2QBsFk0D/+KDBYianQF6DccBMHozB+T0EQThAP76PEbjBvoRWQM4sVcBJfqTB/rolQHDV
ecDFdpTBSq6DQMj6pMC2epzBxZPXQCteMECbOorBeMUWQT8i/UCefJLB6A/1QJfb4kB0JIbBkt0M
QRBND0GSyaPBTiiUQB92BUHSg5zB2M6FQKdAN7+NGJ7BAQzSQPFC3D/sK7PB91udQCjJqz8/PY/B
QRjNQDfmeT/BsJbBMrfHQP0am0Agy4HBYyWaQLcpcEDwBYLB56rEQCgJSEBJw6DBnGPBQE/7pUBo
b5XBtUxkQMwCWUDVkJPBsQriQNaqKEGyeLnBWC/4QII9L0Hln6zBJPgDQcT9FkHaQbPBW+GZQG71
LEHjhLLBlCSHQP/5HUG7L6fB6latQL8jM0EZW6XBr4OvQNmGCkFUgLvBdlnTQOOg8ECv67TB+oyd
QObz9kDyHLDBz3WIQFAKHkB1HazBv4hhQGaJwj+Mc6HBYADEQBBOcsB3jaHBkW7cQCQLLcAt2JfB
FfCsQO3s2UB6lYHBFGKGQNr7/EAhpofB/FOMQKvYBMBbIJPBI0UHQe/GGMC4ULTB8WAEQeWkOsCx
CqjB/Jd1QER0yEDr75TBpbJTQEx/qUCdQp7BeaSPQLfYecDPaYfB1AUGQUyFAEERv5TB91zsQJfE
8UA5vo3BzDcAQfEkCkGfgZ7B+yK1QABQBEEBT5rBABGhQDIxHr9/66PBdaPMQC8kTj/ncq/BjNDA
QAO69UDxfZDB067UQPVsDEEBYKHB/uyoQN+wIj/us6jBDAO+QJ6F2L8If6XBacDfQHbTxL/87KzB
5IHnQPm7kr4xtrHBS1q5QMBS4z/pjJPBugm2QEakg0AgsYbBmAGpQCCMK0B90JzBQNalQB/FmUDG
95DBQ4eMQL5OdUBRTpjBBdy3QOgJBEHJtbPBXRPsQN1pIkGm17HB/OqhQMFpJkG9mqrB5U+PQPfc
6z8mIqXBmXS+QM+sPMAce57BSJeeQMGu40DDK4nBTuCcQPVSQcDLW5XBxw3HQIc3FkFrN6zBLpRs
QAC+d8BM1pjBstD6QI/aJsBxNK/B1iOJQGM1vkAZKI7BhJ38QE2ZU0BLT5DBxw7fQM9K9z/+xYDB
xgl3QMsZk0CE/KDBgw6wQCuMaMCPPozBRBIFQeKo671rD7jB6mtNQOe+W8AmYqLBfowuQOYScsAW
RZHBgYCCQEyOpcDpzpnBbxrYQGYRMEA+XYrBo7UWQRIB/kBcopLBOmH1QCgD40AsQ4bBnoMMQS3Z
D0F53aPBub6TQOlhBUGSeJzB3+iEQBimQr+OCp/Be1/TQCoL4z+A4bLBotedQLrVqj+sWI/BonfN
QN0ueT8k25bBDRrIQLi0mkBB0IHBHqWaQKYTb0BCEYLBfNHEQG8RSEDC3KDBNpnBQFrspUDGcZXB
mcZkQDO8WEA4npPBPhauQJvXCkEWc7vB1SvSQN888UBR9rTBV4ScQHdy90CqC7DBipjgQBECKUHZ
ernBjx33QECJL0EQq6zBn14DQfhUF0FWXLPBl6WYQK81LUFGYrLBxk2GQAApHkGCCKfBoX6sQKtX
M0FVQKXBLSSIQFUlHkBgIazBwmxiQPZqwD+Md6HB+zS5QBAbdMCxvqPB21beQPBUQcA+zJrBVXet
QJ6p2UBTmYHB4ZeGQEKg/EAQkofBMu+RQHktAMAec5PBhlUIQX+kFMBblrTBccQEQdiiOcAqgKjB
pKt1QGMnyED03ZTB611UQL6NqUDkQJ7BTLqbQEKya8B8m4bB

> <OMEGA_E>
wO0PPSAuID3ANAw9YE25PmgsuT5oPao+PCeZPg==

> <OMEGA_NBR>
     36453

$$$$
50216969
  -OEChem-04172616093D

 67 69  0     1  0  0  0  0  0999 V2000
    8.3195    8.0354  -18.4684 C   0  0  0  0  0  0  0  0  0  0  0  0
    7.3056    7.5492  -17.6264 C   0  0  0  0  0  0  0  0  0  0  0  0
    7.9903    8.6579  -19.6872 C   0  0  0  0  0  0  0  0  0  0  0  0
    5.6229    8.2942  -19.2300 C   0  0  0  0  0  0  0  0  0  0  0  0
    4.8635   -0.5867  -20.6402 C   0  0  0  0  0  0  0  0  0  0  0  0
    6.5406    0.7313  -21.8252 C   0  0  0  0  0  0  0  0  0  0  0  0
    5.9544    7.6845  -18.0024 C   0  0  0  0  0  0  0  0  0  0  0  0
    6.6334    8.8118  -20.0791 C   0  0  0  0  0  0  0  0  0  0  0  0
    5.3236    0.6553  -21.1179 C   0  0  0  0  0  0  0  0  0  0  0  0
    5.6102   -1.7602  -20.8582 C   0  0  0  0  0  0  0  0  0  0  0  0
    6.8539   -1.6772  -21.5391 C   0  0  0  0  0  0  0  0  0  0  0  0
    7.3043   -0.4322  -22.0361 C   0  0  0  0  0  0  0  0  0  0  0  0
    5.8184    1.7952  -18.4973 C   0  0  0  0  0  0  0  0  0  0  0  0
    5.6367    4.0978  -16.8467 C   0  0  0  0  0  0  0  0  0  0  0  0
    5.3444    2.7219  -19.6532 C   0  0  2  0  0  0  0  0  0  0  0  0
    5.1634    4.8110  -18.1313 C   0  0  1  0  0  0  0  0  0  0  0  0
    4.4223    3.8521  -19.0984 C   0  0  1  0  0  0  0  0  0  0  0  0
    5.2926   -3.1607  -18.7854 C   0  0  0  0  0  0  0  0  0  0  0  0
    7.4277   10.2072  -22.1002 C   0  0  0  0  0  0  0  0  0  0  0  0
    5.0932   10.4725  -21.2442 C   0  0  0  0  0  0  0  0  0  0  0  0
    5.7782    8.3338  -22.3995 C   0  0  0  0  0  0  0  0  0  0  0  0
    4.5781    1.9156  -20.7395 C   0  0  0  0  0  0  0  0  0  0  0  0
    5.0712   -3.0756  -20.3049 C   0  0  0  0  0  0  0  0  0  0  0  0
    4.8627    7.0985  -17.1287 C   0  0  0  0  0  0  0  0  0  0  0  0
    6.2457    9.4492  -21.4345 C   0  0  0  0  0  0  0  0  0  0  0  0
    7.6479   -2.8058  -21.7178 N   0  0  0  0  0  0  0  0  0  0  0  0
    4.2333    5.9244  -17.7859 N   0  0  0  0  0  0  0  0  0  0  0  0
    7.8881    3.3470  -18.0005 O   0  0  0  0  0  0  0  0  0  0  0  0
    6.9302    1.9208  -16.1130 O   0  0  0  0  0  0  0  0  0  0  0  0
    3.9232    4.6339  -20.1863 O   0  0  0  0  0  0  0  0  0  0  0  0
    8.4848   -0.3438  -22.6944 F   0  0  0  0  0  0  0  0  0  0  0  0
    6.7349    2.7599  -17.3018 S   0  0  0  0  0  0  0  0  0  0  0  0
    9.3550    7.9312  -18.1796 H   0  0  0  0  0  0  0  0  0  0  0  0
    7.5615    7.0722  -16.6918 H   0  0  0  0  0  0  0  0  0  0  0  0
    8.7772    9.0222  -20.3309 H   0  0  0  0  0  0  0  0  0  0  0  0
    4.5871    8.3676  -19.5269 H   0  0  0  0  0  0  0  0  0  0  0  0
    3.9290   -0.6397  -20.1014 H   0  0  0  0  0  0  0  0  0  0  0  0
    6.8868    1.6813  -22.2049 H   0  0  0  0  0  0  0  0  0  0  0  0
    4.9438    1.3403  -18.0092 H   0  0  0  0  0  0  0  0  0  0  0  0
    6.4649    1.0032  -18.9032 H   0  0  0  0  0  0  0  0  0  0  0  0
    6.1710    4.8119  -16.2027 H   0  0  0  0  0  0  0  0  0  0  0  0
    4.7677    3.6952  -16.3056 H   0  0  0  0  0  0  0  0  0  0  0  0
    6.2275    3.1857  -20.1168 H   0  0  0  0  0  0  0  0  0  0  0  0
    6.0429    5.2199  -18.6503 H   0  0  0  0  0  0  0  0  0  0  0  0
    3.5885    3.3838  -18.5548 H   0  0  0  0  0  0  0  0  0  0  0  0
    4.8968   -4.1157  -18.4096 H   0  0  0  0  0  0  0  0  0  0  0  0
    6.3691   -3.0990  -18.5678 H   0  0  0  0  0  0  0  0  0  0  0  0
    4.7704   -2.3278  -18.2917 H   0  0  0  0  0  0  0  0  0  0  0  0
    7.0958   10.6379  -23.0564 H   0  0  0  0  0  0  0  0  0  0  0  0
    7.7680   11.0133  -21.4336 H   0  0  0  0  0  0  0  0  0  0  0  0
    8.2564    9.5070  -22.2816 H   0  0  0  0  0  0  0  0  0  0  0  0
    4.8309   10.9151  -22.2165 H   0  0  0  0  0  0  0  0  0  0  0  0
    4.2142    9.9608  -20.8254 H   0  0  0  0  0  0  0  0  0  0  0  0
    5.4180   11.2664  -20.5556 H   0  0  0  0  0  0  0  0  0  0  0  0
    5.5003    8.7778  -23.3668 H   0  0  0  0  0  0  0  0  0  0  0  0
    6.5948    7.6121  -22.5486 H   0  0  0  0  0  0  0  0  0  0  0  0
    4.9071    7.8181  -21.9690 H   0  0  0  0  0  0  0  0  0  0  0  0
    4.4592    2.5438  -21.6345 H   0  0  0  0  0  0  0  0  0  0  0  0
    3.5867    1.6418  -20.3494 H   0  0  0  0  0  0  0  0  0  0  0  0
    3.9937   -3.1413  -20.5165 H   0  0  0  0  0  0  0  0  0  0  0  0
    5.5924   -3.9125  -20.7926 H   0  0  0  0  0  0  0  0  0  0  0  0
    5.2989    6.7837  -16.1692 H   0  0  0  0  0  0  0  0  0  0  0  0
    4.0948    7.8653  -16.9484 H   0  0  0  0  0  0  0  0  0  0  0  0
    8.4784   -2.5544  -22.2150 H   0  0  0  0  0  0  0  0  0  0  0  0
    7.8952   -3.1839  -20.8257 H   0  0  0  0  0  0  0  0  0  0  0  0
    3.8008    6.2388  -18.6309 H   0  0  0  0  0  0  0  0  0  0  0  0
    3.3615    5.3226  -19.8504 H   0  0  0  0  0  0  0  0  0  0  0  0
  1  2  2  0  0  0  0
  1  3  1  0  0  0  0
  2  7  1  0  0  0  0
  3  8  2  0  0  0  0
  4  7  2  0  0  0  0
  4  8  1  0  0  0  0
  5  9  2  0  0  0  0
  5 10  1  0  0  0  0
  6  9  1  0  0  0  0
  6 12  2  0  0  0  0
  7 24  1  0  0  0  0
  8 25  1  0  0  0  0
  9 22  1  0  0  0  0
 10 11  2  0  0  0  0
 10 23  1  0  0  0  0
 11 12  1  0  0  0  0
 11 26  1  0  0  0  0
 12 31  1  0  0  0  0
 13 15  1  0  0  0  0
 13 32  1  0  0  0  0
 14 16  1  0  0  0  0
 14 32  1  0  0  0  0
 15 17  1  0  0  0  0
 15 22  1  0  0  0  0
 16 17  1  0  0  0  0
 16 27  1  0  0  0  0
 17 30  1  0  0  0  0
 18 23  1  0  0  0  0
 19 25  1  0  0  0  0
 20 25  1  0  0  0  0
 21 25  1  0  0  0  0
 24 27  1  0  0  0  0
 28 32  2  0  0  0  0
 29 32  2  0  0  0  0
  1 33  1  0  0  0  0
  2 34  1  0  0  0  0
  3 35  1  0  0  0  0
  4 36  1  0  0  0  0
  5 37  1  0  0  0  0
  6 38  1  0  0  0  0
 13 39  1  0  0  0  0
 13 40  1  0  0  0  0
 14 41  1  0  0  0  0
 14 42  1  0  0  0  0
 15 43  1  0  0  0  0
 16 44  1  0  0  0  0
 17 45  1  0  0  0  0
 18 46  1  0  0  0  0
 18 47  1  0  0  0  0
 18 48  1  0  0  0  0
 19 49  1  0  0  0  0
 19 50  1  0  0  0  0
 19 51  1  0  0  0  0
 20 52  1  0  0  0  0
 20 53  1  0  0  0  0
 20 54  1  0  0  0  0
 21 55  1  0  0  0  0
 21 56  1  0  0  0  0
 21 57  1  0  0  0  0
 22 58  1  0  0  0  0
 22 59  1  0  0  0  0
 23 60  1  0  0  0  0
 23 61  1  0  0  0  0
 24 62  1  0  0  0  0
 24 63  1  0  0  0  0
 26 64  1  0  0  0  0
 26 65  1  0  0  0  0
 27 66  1  0  0  0  0
 30 67  1  0  0  0  0
M  END
> <OMEGA_C>
wBwFQfmQAEE0v5PBdMfpQDiT8UDHAo3BwrD/QLKGCkFWf53BA++zQPu0BEEg15nBDqKbQBUyFr8J
H6XB4kzRQFw2Oz/9ma7BqIq+QIPn9UDbBJDBbUTUQBf9DEEHoqDBU1uqQFrDJz9r8ajBeIazQFRO
4b+Q3abBMlPbQFqv1r8eUKzBeLzpQOhG3b7mSbDBJzC6QPDH5T95+pPBOmC0QIkhg0AFxobBPgWr
QOYyLkDbOZ3BtzqlQHfzmUDqDJHB4YONQGKIdkCFyZjBwFypQNhISsCGSJbBz6/tQJZQI0EozbDB
nfuiQD+PJ0Ev9KnBLOe4QEtXBUEfMrPBm3+SQCYy9T9n6qXBCUeiQALXRMBYcKLB1pqbQBsn40CA
B4nBFN3HQOkvF0HveavB07v0QDSSM8Aovq3B3naHQOKUvUBsSY7Bl2v8QAE2VkAKAZDBCsTdQJzd
9T+F54DB6BR7QBpJlECUfaHBwcEHQXEEsL4LjrXBAYTXQKCiMEADaorB/q0VQYvM/UDcb5HBkvfx
QNxP4kDGiIXBkW8MQfxaEEHFpaLBtcmSQNfhBUEPN5zBEHV7QL3AI7+ez6DBaWDcQFAz1z+go7HB
kjOeQMCPqz/hEpDBe+DOQDBogD/JOZfBiXjFQHz7mUA4n4HBXZGYQK1+bEDxcYLBrkfHQEfjS0BO
76DBU1/BQGsJp0C6M5XBT6plQMSQWEBDcJTBXrKcQBG0g8DQRpPBe8/LQLxWRsDyipTBWKeYQHP7
FMBzVZLBeRDjQLg0KkFyc7jB3JP4QGg2MEH0d6vBZBoEQY0cGEG6QLLBH5eaQG+kLkFWu7HBddqG
QEdfH0FmmqbB71+tQE9DNEHvcaTBOQKwQNFxDEEc77rB7wjTQCWW80B6Y7TBPwedQA8u+kCWwK/B
0rGOQDPOIkCLE63BOYxlQAgl0j+My6LBOJl/QMILScDMIaTBv/SyQApnesBLV6bBUJCpQAsU2UB9
WoHBsAiDQFew+0A5lofBaKcHQY16I8BIuLHBoaX8QGPFS8Abm6bBnz9zQOyjx0AdDJXBXyNXQLRS
qkCxzZ7Bg30FQX75AEEx6JPBmcTqQH8y8kCyH43BmxIAQfG1CkEQsp3B5pG0QACABEHt+JnBA6ia
QFb0Ir9V5KTB7hLPQHY2PD/lUa7BEHe/QN/f9UBVIJDBaqTUQDngDEG9z6DBCWGoQOZaHz8BnKjB
746zQAsB5b/xuqbBNx3bQIVB1b8kQazBVF3oQJdYz759JbDBsqW4QM8u4z86rJPBC160QGAug0BQ
uYbB4W2pQKMdLEAq/ZzBg0WlQFrSmUA/CJHBqt6MQFBddkBiqZjBawCmQPxAS8CiLJbB2425QPvz
BEESYLPBmDPtQKdoI0HM/bDBbGqiQPP8JkHnHKrByP2PQK/u7j/PaqXBs1qjQA4qSMDGdaLBRLac
QAk/40DtDonBoNvHQDTwFkE9qKvB6Hz1QB81McAL263BpAmIQG/nvUBVSo7BbLT7QM2OU0ApDJDB
YRPdQAlP9T+VuYDBoBd7QNcYlEAgdaHB++0GQZ5Yjr62e7XBb8rWQJaGL0AhTorBfxUWQaYb/0Br
mpHB9DDzQIpK40BdnoXB0pIMQRyXEEHK4qLBNGGTQJF0BUE4VZzBX5R5QJ4jOL9nmKDB4U/ZQKND
2T9tS7HBEaecQP5cqz8Ro4/B/9rMQOz0dz9A4pbB8ujFQLP9mUDSp4HB0n2YQFe4bUAtUoLBObfF
QD8HSEAo5aDBNHfBQGFipkAtQ5XB7qFjQGw5WkAKRJTBICqaQES+hMD2UJPBT3XHQCrDQsBQp5PB
kEeSQDmzF8CnxJLB+2WwQHT4C0E2HbvBOhvUQGJL80A3kbTBDP2dQIrl+EA87q/Bq07iQDcvKkGS
pLjBB533QLJqMEFtqqvBcxEEQXp0GEHZcLLBBbWZQGL/LUG/4rHBcpuGQBiOHkE/v6bB+WisQJLH
M0Hwm6TBx6iKQCRGH0BFjazBIO5hQD1hyT+l/KHBItqBQNjzUMAv7aTB4Qe3QMkDfMDYz6XBoPOq
QLrx2EAKb4HB+mOEQOTv+0AVhYfBc9YHQSEyH8BD3bHB1gD+QICpScCcxqbBq6x0QKIWyECRDpXB
ekdYQBK9qkBg2p7B

> <OMEGA_E>
mOitPgB9rT4=

> <OMEGA_NBR>
     38925

$$$$
50216959
  -OEChem-04172616093D

 68 71  0     1  0  0  0  0  0999 V2000
    8.3990    7.9615  -18.5274 C   0  0  0  0  0  0  0  0  0  0  0  0
    4.6415   -4.1484  -18.0980 C   0  0  0  0  0  0  0  0  0  0  0  0
    7.3755    7.5324  -17.6661 C   0  0  0  0  0  0  0  0  0  0  0  0
    8.0818    8.5375  -19.7724 C   0  0  0  0  0  0  0  0  0  0  0  0
    4.3511   -3.3865  -19.3012 C   0  0  0  0  0  0  0  0  0  0  0  0
    4.8433   -0.6017  -20.4541 C   0  0  0  0  0  0  0  0  0  0  0  0
    5.7087    8.2462  -19.3007 C   0  0  0  0  0  0  0  0  0  0  0  0
    6.3218    0.7471  -21.8394 C   0  0  0  0  0  0  0  0  0  0  0  0
    5.9730   -3.9650  -17.8245 C   0  0  0  0  0  0  0  0  0  0  0  0
    5.6943   -1.7043  -20.6187 C   0  0  0  0  0  0  0  0  0  0  0  0
    6.0280    7.6758  -18.0514 C   0  0  0  0  0  0  0  0  0  0  0  0
    6.7290    8.7174  -20.1658 C   0  0  0  0  0  0  0  0  0  0  0  0
    5.1714    0.6324  -21.0309 C   0  0  0  0  0  0  0  0  0  0  0  0
    6.8334   -1.6096  -21.4501 C   0  0  0  0  0  0  0  0  0  0  0  0
    7.1379   -0.3792  -22.0702 C   0  0  0  0  0  0  0  0  0  0  0  0
    5.5310   -2.8011  -19.6779 C   0  0  0  0  0  0  0  0  0  0  0  0
    5.7095    1.7805  -18.3766 C   0  0  0  0  0  0  0  0  0  0  0  0
    5.6318    4.1540  -16.8096 C   0  0  0  0  0  0  0  0  0  0  0  0
    5.2209    2.6792  -19.5508 C   0  0  2  0  0  0  0  0  0  0  0  0
    5.1384    4.8257  -18.1097 C   0  0  1  0  0  0  0  0  0  0  0  0
    4.3410    3.8461  -19.0099 C   0  0  1  0  0  0  0  0  0  0  0  0
    6.2442    8.1493  -22.5693 C   0  0  0  0  0  0  0  0  0  0  0  0
    7.4599   10.2960  -22.0578 C   0  0  0  0  0  0  0  0  0  0  0  0
    5.0308   10.0895  -21.5123 C   0  0  0  0  0  0  0  0  0  0  0  0
    4.4092    1.8609  -20.5976 C   0  0  0  0  0  0  0  0  0  0  0  0
    4.9223    7.1462  -17.1598 C   0  0  0  0  0  0  0  0  0  0  0  0
    6.3731    9.3063  -21.5529 C   0  0  0  0  0  0  0  0  0  0  0  0
    7.6708   -2.7077  -21.6347 N   0  0  0  0  0  0  0  0  0  0  0  0
    4.2501    5.9789  -17.7870 N   0  0  0  0  0  0  0  0  0  0  0  0
    7.8346    3.2917  -17.9767 O   0  0  0  0  0  0  0  0  0  0  0  0
    6.8767    1.9721  -16.0148 O   0  0  0  0  0  0  0  0  0  0  0  0
    6.5064   -3.1846  -18.8058 O   0  0  0  0  0  0  0  0  0  0  0  0
    3.8183    4.5933  -20.1111 O   0  0  0  0  0  0  0  0  0  0  0  0
    8.2478   -0.2569  -22.8347 F   0  0  0  0  0  0  0  0  0  0  0  0
    6.6793    2.7662  -17.2340 S   0  0  0  0  0  0  0  0  0  0  0  0
    9.4322    7.8492  -18.2337 H   0  0  0  0  0  0  0  0  0  0  0  0
    3.9433   -4.7441  -17.5288 H   0  0  0  0  0  0  0  0  0  0  0  0
    7.6212    7.0935  -16.7103 H   0  0  0  0  0  0  0  0  0  0  0  0
    8.8762    8.8461  -20.4358 H   0  0  0  0  0  0  0  0  0  0  0  0
    3.3964   -3.2993  -19.7986 H   0  0  0  0  0  0  0  0  0  0  0  0
    3.9333   -0.7040  -19.8815 H   0  0  0  0  0  0  0  0  0  0  0  0
    4.6747    8.3252  -19.6025 H   0  0  0  0  0  0  0  0  0  0  0  0
    6.5776    1.6985  -22.2819 H   0  0  0  0  0  0  0  0  0  0  0  0
    6.5067   -4.3697  -16.9772 H   0  0  0  0  0  0  0  0  0  0  0  0
    4.8400    1.3591  -17.8509 H   0  0  0  0  0  0  0  0  0  0  0  0
    6.3295    0.9633  -18.7736 H   0  0  0  0  0  0  0  0  0  0  0  0
    6.2044    4.8798  -16.2136 H   0  0  0  0  0  0  0  0  0  0  0  0
    4.7688    3.8002  -16.2265 H   0  0  0  0  0  0  0  0  0  0  0  0
    6.1013    3.1092  -20.0507 H   0  0  0  0  0  0  0  0  0  0  0  0
    6.0121    5.1857  -18.6727 H   0  0  0  0  0  0  0  0  0  0  0  0
    3.5190    3.4171  -18.4179 H   0  0  0  0  0  0  0  0  0  0  0  0
    5.9913    8.5566  -23.5593 H   0  0  0  0  0  0  0  0  0  0  0  0
    7.1990    7.6062  -22.6294 H   0  0  0  0  0  0  0  0  0  0  0  0
    5.4508    7.4610  -22.2425 H   0  0  0  0  0  0  0  0  0  0  0  0
    7.1688   10.6897  -23.0428 H   0  0  0  0  0  0  0  0  0  0  0  0
    7.5577   11.1279  -21.3448 H   0  0  0  0  0  0  0  0  0  0  0  0
    8.4227    9.7709  -22.1428 H   0  0  0  0  0  0  0  0  0  0  0  0
    4.8104   10.4925  -22.5118 H   0  0  0  0  0  0  0  0  0  0  0  0
    4.2207    9.4126  -21.2031 H   0  0  0  0  0  0  0  0  0  0  0  0
    5.1113   10.9176  -20.7928 H   0  0  0  0  0  0  0  0  0  0  0  0
    4.2154    2.4930  -21.4768 H   0  0  0  0  0  0  0  0  0  0  0  0
    3.4529    1.5521  -20.1501 H   0  0  0  0  0  0  0  0  0  0  0  0
    5.3532    6.8386  -16.1956 H   0  0  0  0  0  0  0  0  0  0  0  0
    4.1815    7.9420  -16.9932 H   0  0  0  0  0  0  0  0  0  0  0  0
    8.4189   -2.4575  -22.2494 H   0  0  0  0  0  0  0  0  0  0  0  0
    8.0457   -2.9930  -20.7526 H   0  0  0  0  0  0  0  0  0  0  0  0
    3.8250    6.2882  -18.6376 H   0  0  0  0  0  0  0  0  0  0  0  0
    3.2813    5.3057  -19.7846 H   0  0  0  0  0  0  0  0  0  0  0  0
  1  3  1  0  0  0  0
  1  4  2  0  0  0  0
  2  5  1  0  0  0  0
  2  9  2  0  0  0  0
  3 11  2  0  0  0  0
  4 12  1  0  0  0  0
  5 16  2  0  0  0  0
  6 10  2  0  0  0  0
  6 13  1  0  0  0  0
  7 11  1  0  0  0  0
  7 12  2  0  0  0  0
  8 13  2  0  0  0  0
  8 15  1  0  0  0  0
  9 32  1  0  0  0  0
 10 14  1  0  0  0  0
 10 16  1  0  0  0  0
 11 26  1  0  0  0  0
 12 27  1  0  0  0  0
 13 25  1  0  0  0  0
 14 15  2  0  0  0  0
 14 28  1  0  0  0  0
 15 34  1  0  0  0  0
 16 32  1  0  0  0  0
 17 19  1  0  0  0  0
 17 35  1  0  0  0  0
 18 20  1  0  0  0  0
 18 35  1  0  0  0  0
 19 21  1  0  0  0  0
 19 25  1  0  0  0  0
 20 21  1  0  0  0  0
 20 29  1  0  0  0  0
 21 33  1  0  0  0  0
 22 27  1  0  0  0  0
 23 27  1  0  0  0  0
 24 27  1  0  0  0  0
 26 29  1  0  0  0  0
 30 35  2  0  0  0  0
 31 35  2  0  0  0  0
  1 36  1  0  0  0  0
  2 37  1  0  0  0  0
  3 38  1  0  0  0  0
  4 39  1  0  0  0  0
  5 40  1  0  0  0  0
  6 41  1  0  0  0  0
  7 42  1  0  0  0  0
  8 43  1  0  0  0  0
  9 44  1  0  0  0  0
 17 45  1  0  0  0  0
 17 46  1  0  0  0  0
 18 47  1  0  0  0  0
 18 48  1  0  0  0  0
 19 49  1  0  0  0  0
 20 50  1  0  0  0  0
 21 51  1  0  0  0  0
 22 52  1  0  0  0  0
 22 53  1  0  0  0  0
 22 54  1  0  0  0  0
 23 55  1  0  0  0  0
 23 56  1  0  0  0  0
 23 57  1  0  0  0  0
 24 58  1  0  0  0  0
 24 59  1  0  0  0  0
 24 60  1  0  0  0  0
 25 61  1  0  0  0  0
 25 62  1  0  0  0  0
 26 63  1  0  0  0  0
 26 64  1  0  0  0  0
 28 65  1  0  0  0  0
 28 66  1  0  0  0  0
 29 67  1  0  0  0  0
 33 68  1  0  0  0  0
M  END
> <OMEGA_C>
bGIGQcXE/kAXOJTBH4eUQE2/hMCuyJDB+QPsQKkJ8UAbVI3BDk8BQbiZCEHfLZ7BATyLQG28WMDU
aJrBffyaQPoJGr/poaPBqK22QEDwA0HgZ5rBGUzKQLw+Pz8Tt67BhSK/QFPDfcCTmI7BcDe2QNMl
2r8W86TB++TAQNGf9UBFaZDBFlTXQIB6C0GbU6HBYnylQAPkIT9IP6jB5KraQNEFzr/TmavBRWnk
QMsgwr7ej7DBxf2wQONFM8BnbJ3BM7S2QMHo4z9OA5PBmze0QHTthEAieobBnRGnQIJ3K0D7Z5zB
k22kQMNrmkCy4JDBSumKQOEmdkAuFJjB09DHQGNjAkHijbTBRrfuQDy8JEFSdrDBifygQJBuIUEb
GazBzxeNQAsz7j/nx6TB4YOdQFat5EBeR4nBPvDLQG3mFEFebKzBinf1QJRLLcD0E63BxgCIQDJT
v0C0S47BarX6QHerUkAu0I/BuQ3cQBlt/D9IHoDBjjTQQLnPS8BGcpbBjV90QLD8kkB+46DBDvcD
QUGGg75yrbbBvbzVQHEJMUAz34nBe+oWQess+0Cc3pHBj158QN3Pl8ALO4zBeuDzQCD+4kDJroXB
BAUOQZmJDUF7fKPBlF5ZQDAoU8B5Y57BRbt7QI48NL9bDZ/BeJeVQNkzBUH70ZzBUHvSQOFm2T9Z
QbLBtzbQQEbUi8Bo0YfBcOGaQM31rT+pzo7BQovKQLKXdj9vMJbBEorGQK0nnEBitYHBwZmYQME2
c0Dgz4HBDj7DQJX9RkDHZ6DBS2PAQCbxpUCuYZXB4DdhQECyWkDrV5PBiri/QPnnCEFcebzB0F3m
QA5m80AQCbXBWm2uQErA7kCl8LHBAmflQAsJK0GgV7jBWtjxQMcLMkEhwqrBZMMGQXdVHEGLJLHB
9O6ZQB7hJ0EfGLTBBxCHQCmaFkH6n6nBIZCjQKeuLkGPV6bBKOSGQE2NH0Bv0KvBBf1cQLupxj9v
M6HBnE2rQOzV2kCakIHBqM6FQNAk/kAq8ofBrrMGQVVHHcDQ/rHBG7sAQdyMP8BeBabBd8x0QCA5
yUDUGZXBoABSQGLIqUDERp7BPpMGQbEa/0BwKpXB7+iPQP62hcBpKJLBJ3LtQFYU8UA0AY7Bx8YA
QeuqCEFxDJ/BOU6JQBxNWcA10JvB2aebQJn1Db86AaTBTja2QGChA0EFpJrBojHMQI9+Rj9q567B
l5C5QDCzfsBZFo/B/XO2QAaY1b8VPKXBeuHBQMxh9UCytJDBAsrVQMsEC0Eh5KHBF/KmQOEHLT9d
k6jBCXvbQDYTy79mr6vBIgHmQELjuL5JoLDBp4qvQFMHMsCL853BwVG2QCag4j94I5PBL3yzQKSH
g0BsPIbBxwmoQPDGLEDvepzBUBOlQP0QmkDrnZDB79aLQO5sd0CmIpjBFZjtQIgLH0Gm8rLBw+mk
QH2XJUGLQavBhge2QF4IAkGo3bPBhdOOQOz89D+nMKXBSJSfQImh5EDuNonB8QfIQNZPFEHl06zB
kAz2QDZZLMDG/azBdi6JQKtSv0A6AY7Bc4D6QIvQT0BmV4/B4BPaQD7k8j9DCYDBHqrMQKncSsCh
cZbBiL54QHOhlEAA6qDBqfsEQdIlgr7ZmLbButvUQMEVLkCrrYnBRUQXQZTi+0B/FJPBtApxQL6I
mcBUK47B63X2QF4F40DBcIbBfhMNQd7rDUHyhKTBKzJYQG0SVMCuYqDBs318QHYGJb9ahp/BocqU
QBvdBEG0wJzB6fHUQM583D9/brLBf6LIQB6YjMBdDYjBB+eZQMcOrT8mK4/BmBbKQCmscz/hUZbB
eo7FQEsdmkCXOIHBX0OXQHs/cEAb0YHBfM/EQHJfSED2MaDBKa7BQIJtpUAH45TB6MlhQIbcW0BX
pJPBN+3hQJtUJUHxobrBOJn6QDVALEGsH67BRm8DQZAnE0F1a7TBuWybQGoQLEGJFrPBW+mIQN5d
HkFzVafBv4KxQJ2XMkGzOqbBgSmsQCqECEGMqrvB+eXOQIme60BZELXBqTuaQHiM9UBR3q/BsRmK
QA0CJEDFMqzB5gdfQP4ozz8R8KHBPIiuQLnL2kARo4HBlDCIQIwx/kCsqYfBbj4HQR/pHMAfyLHB
r6oAQXysPsBC3aXBbTZ2QHYLyUAKxJTBNVxWQDdlq0CpSZ7BHGkFQYy2AEEsAZTB5fudQFHmgcDO
QJHBd9LqQBbH8UDvJY3B563/QGZwCkFtxZ3BCeu7QJaqTcBJDJfBqribQFSoBL+Dh6XBHDS0QMtU
BEEz4ZnBFDfRQA57Qz/2Ra/BwFBzQMh7hMCSXpfBr5+0QIt21r/CnqbBUGu/QPia9UCLC5DBlBXU
QH+dDEF1zaDB7DqqQHzrND+rl6nBYcDbQFn+0L8JTazBvanpQAYl0b5vw7DB/mqnQLKRNMBUN6DB
Lou5QB2d5D9LSpTBxG+0QCZHgkCbz4bBVeKqQCFEL0BFb53BDnalQEa1mUDxBJHBXW+NQAEad0Cr
1ZjB7lzsQLjJIkHXH7HBFNqhQEa4JkEEHarBnzS4QOZ2BEEiRLPBAsSSQE8O/D8bbqbBpvCcQMPd
4kBs6YjBWgjHQFyIFkHjqKvBqev0QBqOMcCLVq3BIiiIQLiWvUBjJY7BsU/8QCeaU0BvEZDB8e/c
QEkh7z/VJIHBpaZ/QBOIWcAuaaDBpJd6QLUblUAwa6HBT7sHQZt5rb4MB7bBBhnXQJJdLkCgkorB
nwoWQVSF/kAoxpHBBVejQIEMkcCQmonBkHvzQJPU4kA+qoXBuEIMQVBOEEFIA6PBQPXbQO2fPMC5
m5TBd0R6QBMREr+Nh6HB2u6SQDRUBUH2KZzBKFjcQPwh2j8oe7LB/iw6QEM5lsDMYJXBFlSdQNa1
qj+OeJDBdv7NQLY/fj/tnZfBudLFQPu4mEDgm4HB2IOYQJIPa0DJgILB02nHQKp9TUD08KDBULvB
QKympkAIJZXBG7RlQMuqWECqf5TBDU3hQFV5KUHPx7jBVyH3QAPZL0EG4KvBu4wDQR24F0G+lbLB
kvmYQE+dLUFh5rHBTA2GQDxvHkEWp6bBqC6sQGeUM0FTsKTB+9quQBhhC0F4A7vB8o/SQJ0Z8kBy
eLTBSKicQB05+ECouK/BZeePQCbFJ0Dqeq3B/khlQKvC2T9CiqPBqHOrQBp22EACVIHBdaWEQK+B
+0AWTIfBp5QHQeuaI8BXkrHBDG39QEFwRsC/FKbBEEB0QF7ix0AE3JTBA79WQJH4qkDPn57B82MF
QTn2AEHH4JPBbFCdQH4XgcDTJZHBYonqQPsK8kBdIY3BIv//QP3eCkEHn53B2o+7QJTXTMCC9JbB
p/KbQA4UBb/ofKXB2Vy0QNi2BEF47JnB1k7RQGbMQj+7Rq/BQ25yQDXgg8BrV5fBdsS0QPa61r+K
nKbB6Tu/QHb69UCFG5DBPIXUQBYdDUFGvqDB7GaqQNI4ND+FkKnBG9TbQANv0b8uUqzBLLfpQHKx
0r7KybDB9nOnQKCRNMDsNaDBy9G5QLWS5D/kPpTBqNm0QG+/gkBA2obBlQCrQPX+LkBAZp3B7Y2l
QH3KmUDUFpHBLWiNQGthdkByxZjBbHu6QHLnBEESWrPBblntQMaqI0G75LDBXR+iQNXjJkGKQqrB
8uuSQHlx+z8rZabBRJCcQOEU40AVDInBNwDIQGwLF0HJo6vBIfX0QI/QMcBuX63B/xaIQD+avUCc
RI7BaKX8QD+jU0DkEJDB1x3dQOX68D+gE4HBCJV/QFI3WcCRb6DBm6h4QJ47lECIVaHBwroHQc+3
rr5bE7bB9l/XQBrSLkB0jYrBAvsVQQjq/kDDlJHBbFOiQFndj8AicInB2+/yQHrS4kC/qYXBKoQM
QQXVEEEjx6LBxojbQLzAO8A6d5TBJuJ6QIk7Er/UcqHBOCyTQKzGBUHmRZzBNWjcQOjK2T+OfbLB
bQw5QJlylcCsXZXB862dQK5zqj+aZ5DB8FPOQDdxfj/9kJfBHmzGQCVlmUDFvoHBiAyZQMxwbEDi
dILBuHDHQHaMTUBs6KDBIajBQCmvpkCYS5XBhJtmQEOHV0AeTZTBKoGxQLrKC0H6IbvBiFvVQJF/
80AzcbTBufieQOCH+ECj9q/BT6niQMRXKkHBlbjBuEb3QOHBMEFyj6vBHUcEQcHVGEF3QLLBRa6Z
QN3HLUHaE7LBfVOGQBFUHkFF+KbBGYarQDzJM0F7wKTB+QaQQK98J0A2ca3Bv59lQMP22D8fgaPB
8dyqQKre2EAMbIHBXxaEQMCe+0CCgofBnpMHQSTrI8BjoLHBhYr9QICvRsD2HqbBUzZ0QJe8x0DC
AJXB26FUQOXzqUCkgZ7B

> <OMEGA_E>
KOKVPlA+kz6Qcqo+UImqPg==

> <OMEGA_NBR>
     43568

$$$$
50216917
  -OEChem-04172616093D

 68 71  0     1  0  0  0  0  0999 V2000
    8.3820    8.0192  -18.5632 C   0  0  0  0  0  0  0  0  0  0  0  0
    7.3726    7.5698  -17.6957 C   0  0  0  0  0  0  0  0  0  0  0  0
    8.0450    8.6069  -19.7975 C   0  0  0  0  0  0  0  0  0  0  0  0
    4.3440   -3.4400  -19.2784 C   0  0  0  0  0  0  0  0  0  0  0  0
    4.8854   -0.5889  -20.4472 C   0  0  0  0  0  0  0  0  0  0  0  0
    5.6804    8.2843  -19.3040 C   0  0  0  0  0  0  0  0  0  0  0  0
    6.3284    0.7680  -21.8623 C   0  0  0  0  0  0  0  0  0  0  0  0
    4.6137   -4.1532  -18.1427 C   0  0  0  0  0  0  0  0  0  0  0  0
    5.7448   -1.6835  -20.6201 C   0  0  0  0  0  0  0  0  0  0  0  0
    6.0196    7.7044  -18.0642 C   0  0  0  0  0  0  0  0  0  0  0  0
    6.6865    8.7750  -20.1753 C   0  0  0  0  0  0  0  0  0  0  0  0
    5.1915    0.6459  -21.0363 C   0  0  0  0  0  0  0  0  0  0  0  0
    6.8640   -1.5842  -21.4785 C   0  0  0  0  0  0  0  0  0  0  0  0
    7.1492   -0.3522  -22.1044 C   0  0  0  0  0  0  0  0  0  0  0  0
    5.6060   -2.7765  -19.6693 C   0  0  0  0  0  0  0  0  0  0  0  0
    5.7328    1.7956  -18.3821 C   0  0  0  0  0  0  0  0  0  0  0  0
    5.6587    4.1717  -16.8177 C   0  0  0  0  0  0  0  0  0  0  0  0
    5.2403    2.6925  -19.5555 C   0  0  2  0  0  0  0  0  0  0  0  0
    5.1571    4.8415  -18.1154 C   0  0  1  0  0  0  0  0  0  0  0  0
    4.3608    3.8597  -19.0140 C   0  0  1  0  0  0  0  0  0  0  0  0
    6.2614    8.2216  -22.5923 C   0  0  0  0  0  0  0  0  0  0  0  0
    7.3563   10.4215  -22.0270 C   0  0  0  0  0  0  0  0  0  0  0  0
    4.9331   10.0788  -21.5266 C   0  0  0  0  0  0  0  0  0  0  0  0
    4.4256    1.8705  -20.5976 C   0  0  0  0  0  0  0  0  0  0  0  0
    4.9291    7.1602  -17.1631 C   0  0  0  0  0  0  0  0  0  0  0  0
    6.3151    9.3677  -21.5567 C   0  0  0  0  0  0  0  0  0  0  0  0
    6.5434   -3.0902  -18.8022 N   0  0  0  0  0  0  0  0  0  0  0  0
    5.9486   -3.9196  -17.9187 N   0  0  0  0  0  0  0  0  0  0  0  0
    7.7059   -2.6762  -21.6783 N   0  0  0  0  0  0  0  0  0  0  0  0
    4.2623    5.9884  -17.7869 N   0  0  0  0  0  0  0  0  0  0  0  0
    7.8599    3.3028  -17.9854 O   0  0  0  0  0  0  0  0  0  0  0  0
    6.8985    1.9881  -16.0213 O   0  0  0  0  0  0  0  0  0  0  0  0
    3.8380    4.6069  -20.1152 O   0  0  0  0  0  0  0  0  0  0  0  0
    8.2475   -0.2215  -22.8839 F   0  0  0  0  0  0  0  0  0  0  0  0
    6.7035    2.7813  -17.2415 S   0  0  0  0  0  0  0  0  0  0  0  0
    9.4195    7.9136  -18.2826 H   0  0  0  0  0  0  0  0  0  0  0  0
    7.6333    7.1220  -16.7481 H   0  0  0  0  0  0  0  0  0  0  0  0
    8.8289    8.9336  -20.4647 H   0  0  0  0  0  0  0  0  0  0  0  0
    3.3949   -3.3744  -19.7895 H   0  0  0  0  0  0  0  0  0  0  0  0
    3.9860   -0.6974  -19.8591 H   0  0  0  0  0  0  0  0  0  0  0  0
    4.6424    8.3556  -19.5936 H   0  0  0  0  0  0  0  0  0  0  0  0
    6.5702    1.7207  -22.3097 H   0  0  0  0  0  0  0  0  0  0  0  0
    3.9358   -4.7583  -17.5590 H   0  0  0  0  0  0  0  0  0  0  0  0
    4.8649    1.3732  -17.8545 H   0  0  0  0  0  0  0  0  0  0  0  0
    6.3529    0.9790  -18.7803 H   0  0  0  0  0  0  0  0  0  0  0  0
    6.2351    4.8988  -16.2269 H   0  0  0  0  0  0  0  0  0  0  0  0
    4.7988    3.8201  -16.2287 H   0  0  0  0  0  0  0  0  0  0  0  0
    6.1187    3.1222  -20.0593 H   0  0  0  0  0  0  0  0  0  0  0  0
    6.0264    5.2079  -18.6812 H   0  0  0  0  0  0  0  0  0  0  0  0
    3.5390    3.4310  -18.4217 H   0  0  0  0  0  0  0  0  0  0  0  0
    5.9982    8.6303  -23.5790 H   0  0  0  0  0  0  0  0  0  0  0  0
    7.2449    7.7322  -22.6488 H   0  0  0  0  0  0  0  0  0  0  0  0
    5.5029    7.4861  -22.2860 H   0  0  0  0  0  0  0  0  0  0  0  0
    7.0591   10.8185  -23.0089 H   0  0  0  0  0  0  0  0  0  0  0  0
    7.4008   11.2436  -21.2975 H   0  0  0  0  0  0  0  0  0  0  0  0
    8.3461    9.9484  -22.1072 H   0  0  0  0  0  0  0  0  0  0  0  0
    4.7072   10.4846  -22.5237 H   0  0  0  0  0  0  0  0  0  0  0  0
    4.1551    9.3558  -21.2401 H   0  0  0  0  0  0  0  0  0  0  0  0
    4.9589   10.8991  -20.7942 H   0  0  0  0  0  0  0  0  0  0  0  0
    4.2228    2.5019  -21.4752 H   0  0  0  0  0  0  0  0  0  0  0  0
    3.4739    1.5566  -20.1440 H   0  0  0  0  0  0  0  0  0  0  0  0
    5.3734    6.8538  -16.2046 H   0  0  0  0  0  0  0  0  0  0  0  0
    4.1819    7.9477  -16.9858 H   0  0  0  0  0  0  0  0  0  0  0  0
    6.4443   -4.3342  -17.1556 H   0  0  0  0  0  0  0  0  0  0  0  0
    8.4372   -2.4224  -22.3114 H   0  0  0  0  0  0  0  0  0  0  0  0
    8.1037   -2.9546  -20.8041 H   0  0  0  0  0  0  0  0  0  0  0  0
    3.8300    6.2949  -18.6349 H   0  0  0  0  0  0  0  0  0  0  0  0
    3.3012    5.3194  -19.7885 H   0  0  0  0  0  0  0  0  0  0  0  0
  1  2  1  0  0  0  0
  1  3  2  0  0  0  0
  2 10  2  0  0  0  0
  3 11  1  0  0  0  0
  4  8  2  0  0  0  0
  4 15  1  0  0  0  0
  5  9  2  0  0  0  0
  5 12  1  0  0  0  0
  6 10  1  0  0  0  0
  6 11  2  0  0  0  0
  7 12  2  0  0  0  0
  7 14  1  0  0  0  0
  8 28  1  0  0  0  0
  9 13  1  0  0  0  0
  9 15  1  0  0  0  0
 10 25  1  0  0  0  0
 11 26  1  0  0  0  0
 12 24  1  0  0  0  0
 13 14  2  0  0  0  0
 13 29  1  0  0  0  0
 14 34  1  0  0  0  0
 15 27  2  0  0  0  0
 16 18  1  0  0  0  0
 16 35  1  0  0  0  0
 17 19  1  0  0  0  0
 17 35  1  0  0  0  0
 18 20  1  0  0  0  0
 18 24  1  0  0  0  0
 19 20  1  0  0  0  0
 19 30  1  0  0  0  0
 20 33  1  0  0  0  0
 21 26  1  0  0  0  0
 22 26  1  0  0  0  0
 23 26  1  0  0  0  0
 25 30  1  0  0  0  0
 27 28  1  0  0  0  0
 31 35  2  0  0  0  0
 32 35  2  0  0  0  0
  1 36  1  0  0  0  0
  2 37  1  0  0  0  0
  3 38  1  0  0  0  0
  4 39  1  0  0  0  0
  5 40  1  0  0  0  0
  6 41  1  0  0  0  0
  7 42  1  0  0  0  0
  8 43  1  0  0  0  0
 16 44  1  0  0  0  0
 16 45  1  0  0  0  0
 17 46  1  0  0  0  0
 17 47  1  0  0  0  0
 18 48  1  0  0  0  0
 19 49  1  0  0  0  0
 20 50  1  0  0  0  0
 21 51  1  0  0  0  0
 21 52  1  0  0  0  0
 21 53  1  0  0  0  0
 22 54  1  0  0  0  0
 22 55  1  0  0  0  0
 22 56  1  0  0  0  0
 23 57  1  0  0  0  0
 23 58  1  0  0  0  0
 23 59  1  0  0  0  0
 24 60  1  0  0  0  0
 24 61  1  0  0  0  0
 25 62  1  0  0  0  0
 25 63  1  0  0  0  0
 28 64  1  0  0  0  0
 29 65  1  0  0  0  0
 29 66  1  0  0  0  0
 30 67  1  0  0  0  0
 33 68  1  0  0  0  0
M  END
> <OMEGA_C>
mBwGQZNOAEF0gZTBGuzrQJ478kDQkI3BaLgAQcW1CUE2YZ7BFQKLQC0pXMAjOprB2lScQPXEFr/K
k6PBt8W1QF2MBEGjbprB/oHKQD+bRD/x5a7BdqOTQDTnhMBUJJHBbtW3QGh717/29aTBRqDAQHOK
9kCSg5DBpPfVQHBmDEEMZ6HBfSCmQFNYJT9KSqjBnaXbQILFyr8B1KvB4cXkQAxNtL7W1bDBI2Sz
QMeyMcCyWp3Bt3K3QArX5T+dDpPBIRS1QGR+hUCniobBJ7CnQP1RLEC4cZzBVQelQNvtmkBU7JDB
bIuLQIEFd0DAHJjBQV3IQH6LA0EJvbTBembrQHW+JkFBN7DBBtydQKlCIUFjNqzBL56NQGxr7z/X
x6TBYrudQBYg5UAhTonBcRXKQOfhFUEjdKzBlWPRQFLGRcDxapbBoVq+QP/ZesCLWY/BjJb2QJdG
K8Atba3BXWSIQKigv0CHS47BT4T7QE9gU0At4o/BZsDcQKh7/j+4K4DBfqF1QNlrk0DZ66DB6/UD
QdLXYr46ErfB3oLWQJcBMkCx7onBV7YWQfw7/UCtQpLB3EP0QB/n40Aw/IXBK0MNQSzwDkGnt6PB
PUVZQKb2V8DWUJ7B9xp/QAiLMr9u357BcI6UQJGwBUHAv5zBZT/SQF9B3D82erLB8uR7QCVEmMDL
eIzBRq2bQLvDrz8Z1o7BLEvLQD2iej8mPpbB+IXHQFLDnEDG0IHB7o+ZQAV8dEBO1IHBG8zDQE/R
R0B3eaDBnNjAQFOnpkAAc5XBWX9iQOeUW0CRX5PBEPG/QMEVCkHdobzBPdbnQOZt90CvMLXB1hew
QPuN70DRSbLB7uPhQIsYLUEiErjBwNPsQK/lM0EyYarBhYkFQZ4sH0GY27DBEqGWQAPBJ0F6MLTB
X/aEQIaxFUHS66nBSK+eQLBiLkFuWqbBIyGHQGweIEA5zavBAlReQBY9xz/aJqHBEfOrQD1S20Ac
o4HBGdKFQJlT/kAF44fB5jfOQK2xisC+PonBrP4GQWcJG8DGfbLBmKgBQQAYPcDHbqbB2x51QN9v
yUBYFJXB8kZTQOE4qkDzTp7BdJMFQd+8AEH7+pTBrrvrQOJR8kAE5Y3BkzX/QMY6CkE5vp7BbgCF
QD1KW8BcSp3BgyOeQIp0BL/XX6TBNAy0QBFWBEHAZZrByefPQIW+RD/6Pq/B7RCGQKUPhcDqDZTB
hGS4QDma0r9tWKXBRxfAQDUd9kCIjpDBPGHTQEdkDEGqjaHBWUmqQGjYMj8uBanBw9HdQBhyzL9M
ravB/yvpQMbFxb4wxbDBdfCuQJc8MMDJMJ7BQ3C6QACL5T+bwZPB9xO2QNBhg0A8iIbBG/iqQB6u
LkBs75zBXUCmQCgBmkBHxpDBXaWNQMJwdkBuTpjBamrqQGIaIkF+KLLBEEigQDMQJkE056rBZoq2
QKeNA0Gm1bPBDWmSQDBY+T+QyaXBLkeeQDH740BgHonBXI/FQADuFUEOcazBa6rGQIvURMD+45XB
zE2uQBYCe8DbDZDB6OX3QJsJLsAysazBoB+JQGUSvkCQ9I3BmV39QBu8VEBL/Y/BXQvfQHf89D+f
woDBEOB4QAsUlEBy46DBuLQGQbI3nr7Oq7bBvYvYQHYdMEDKRIrBTkwWQbqM/kDc7ZLBTwb1QFfE
40D+aIbBec8LQdDtD0GMJ6TBq0VVQGyrVsC02KLBZ16AQBXwFb8fBaDB8JaSQA1RBUFugZzBVlvZ
QLw/2j+U17LB+UBaQAvamMB0sZDBjpKeQOTpqz+0w4/B88TOQJqBfz/GF5fBydLHQPI+mkAEhoHB
JoiaQD/RbUAOB4LB2i3HQFn8TEDblqDBAizCQOWfpkAyG5XBy0xnQMUdWEDovZPBaMreQCSCKEF5
0rnBNWH1QFhcL0GCD63BGZYCQVAOF0HWorPB9+WWQFyrLEESt7LBOcWEQKvRHUETR6fBjcKqQAYi
M0Gin6XBlaKsQNIqCkG/mrvBvfvQQKNg8ED1CbXB8FKbQDl29kCyHbDBXaSOQPwoJkCO1azBMldl
QCQx1T/uuaLBKH+tQGt32kBujIHBlAqGQAy3/EBRiofBadW4QPASi8DgTYnBzFwIQegyIMAVb7HB
s1ABQYpxP8D2eaXBD7B0QBeTx0AzpJTBNiRVQBTxqUBqEp7BoTAFQdHQAEE09ZPBrjvqQFEG8kDp
I43BPHH/QE2SCkE+u53BnzK4QE9cQ8A5TZXB8W+cQMcgAb87ZKXB7d6zQDd/BEGg7pnBecTRQO7i
Qj+BU6/BPl6dQA2nfcCvqpDBnMa0QNyw1b/woqbBg+O+QEzj9UCDFpDBF+fTQF7HDEEi0KDBvP+q
QFLaNj+Ei6nBrp7bQLzH0b/YaqzBQs3pQHUN1r5G4rDBZM2nQBMINMC/OaDBJwu6QDhY5T8UOpTB
XJe0QOqfgkA8yIbBbI+rQC2gL0A5Y53BW5ulQMXdmUChBJHBR9iNQEoKd0Cv0pjBQrnsQAafIkEv
NLHBWY2iQK5YJ0EuFarBhle3QMnVBEFPPbPBWq6TQMhJ/T/pbabB+E2cQHwV40AD/4jBaQnHQObH
FkGFqqvB4JCFQJtAY8DnzKHBcX2AQIkWiMDGn5jBgYX0QJVUMsCTaa3BYPOHQCCHvUDdM47Bs7H8
QFb+U0C76Y/BYuLcQMxs8D+2BIHBrAh7QO7alECEbaHBXL0HQTDxt76PNbbBd1PXQDHjLkBKeIrB
dswVQS6m/kBNsZHBZ7zyQNoT40BSpYXBjDIMQRRwEEGz8KLBf/vTQKgrJsAfr5HBkXt8QHytC7+p
M6HBSqWSQLiDBUFQQZzB6QndQG942T9ujrLBRZWeQBSSi8AypIjBocOdQDVCqz/DcpDBS5zOQPH5
fz85hpfB7fDFQHgwmUDemoHBFqqYQMbia0DcdoLBFyHIQP8dTkBf1qDBqNXBQLn4pkA0IZXB3rhm
QDNGWEBNfJTB97/hQB5hKUEh2rjBNSf4QFGYL0Ep/avBansDQdtFF0GmsLLBW8iZQK5NLkHx3LHB
E4CGQAZbH0GKk6bBYoWtQAUeNEEZr6TBHR+uQKrQC0Fk+7rBrjbRQHxP8kD3drTBmIibQBiL+UB+
p6/BuCuRQBBuKEDUe63ButRmQF+f2z9HnKPBBaSqQDz92ECVXYHBMsmDQDeY+0AteYfBnbNSQCDi
ncA+tJfB3lAHQbYWJcApu7HBjEH9QGKnRsDGJabBAsxzQEiTx0DP75TBU9VWQF6bqkCPpp7B62gF
QSOnAEGNHZTBFMPqQJSq8UBcRo3BCcP/QAh2CkFI3p3B9ey4QCQQSMA6tZXBiAecQG0yAb8Me6XB
Cz60QJBcBEHMAprBA1/RQCWNRT+kTq/BRp+cQHOMfsDE45DBw5+0QAAp1b8vrqbBRmC/QNWW9UCD
LZDBNzDUQBKvDEEe6aDBk4KqQAmVNz8jk6nBsqzbQMQ50L+HYKzBxanpQE5Kzr7Q1rDBtC+nQHMb
NMCmYqDBYXW5QDw+5D8YN5TBwpC0QGNhgkASx4bBawqrQN88L0CzXp3BLY6lQEOqmUDaAJHBQoiN
QBnjdkCzyZjB/E+4QDr1BEGncbPB2Y/sQCkuI0GqILHBOhWiQAQBJ0EoE6rBzw+TQAIO/T8waqbB
4dqcQFX+4kAjBonBLjTHQEfTFkGyuavBk+aCQDN3XcBZpqHBhGB7QDaFhcA+ipjBwc30QOlCMcDW
Wq3BVyiIQDZ/vUB6K47Bb2X8QAvcUkCj/Y/BVK/cQLzt7j/dC4HB5oN6QL7glEBfYaHBNK0HQUIR
rL76JrbBSg7XQPgcLkBTf4rBsQgWQWlE/kAj4pHBbF7zQOel4kDzy4XB9VIMQaxaEEHgFqPB8nvW
QGw+MMBVXZLBVVl7QOhoDb8sXqHB4v2SQGVcBUEiUJzB3IXcQAQY2z9ehbLBnjaeQKK3jMCp8IjB
JCWdQKvoqj9oaJDB79LNQNuqfD80hpfBRxXGQInfmEC+nYHBc6SYQHala0CAb4LBAKrHQICCTUBg
0qDBtczBQLqapkAAJJXBlApmQGliWECbbpTBMwivQN0RDEHjJrvBL53SQI8T80CmtbTBgLScQGgd
+UDb9K/B3oThQC0EKkGVwLjBsVT3QLwiMEF00KvBVKUDQXYiGEF+o7LBNDCZQEMVLkGU0bHBUEaG
QFmpHkEkp6bBBHusQCO7M0GVlKTBgmWQQHaFKEA+cq3BnrdlQGjS2j/6k6PBIFWrQE7k2EAiaYHB
foCEQMKk+0DZeYfBMCJKQOd9mcDsc5fBIYMHQRicI8B/nLHBPVj9QLi4RcDkFKbBTvpzQG2Kx0Ca
45TBCo9WQJe0qkBCl57B

> <OMEGA_E>
2MeSPsRikT4I0cE+fOvBPg==

> <OMEGA_NBR>
     48213

$$$$
50216966
  -OEChem-04172616093D

 68 71  0     1  0  0  0  0  0999 V2000
    8.3457    8.0633  -18.5596 C   0  0  0  0  0  0  0  0  0  0  0  0
    7.3577    7.5714  -17.6903 C   0  0  0  0  0  0  0  0  0  0  0  0
    7.9807    8.6782  -19.7721 C   0  0  0  0  0  0  0  0  0  0  0  0
    4.1944   -3.4431  -19.6681 C   0  0  0  0  0  0  0  0  0  0  0  0
    4.9059   -0.5195  -20.6463 C   0  0  0  0  0  0  0  0  0  0  0  0
    5.6290    8.2934  -19.2544 C   0  0  0  0  0  0  0  0  0  0  0  0
    6.4923    0.7916  -21.9480 C   0  0  0  0  0  0  0  0  0  0  0  0
    4.3131   -4.1434  -18.4973 C   0  0  0  0  0  0  0  0  0  0  0  0
    6.2694   -3.0963  -18.8137 C   0  0  0  0  0  0  0  0  0  0  0  0
    5.4593   -2.7549  -19.8650 C   0  0  0  0  0  0  0  0  0  0  0  0
    5.7275   -1.6483  -20.7756 C   0  0  0  0  0  0  0  0  0  0  0  0
    5.9965    7.6913  -18.0332 C   0  0  0  0  0  0  0  0  0  0  0  0
    6.6131    8.8181  -20.1302 C   0  0  0  0  0  0  0  0  0  0  0  0
    5.3013    0.7092  -21.1951 C   0  0  0  0  0  0  0  0  0  0  0  0
    6.9110   -1.5832  -21.5465 C   0  0  0  0  0  0  0  0  0  0  0  0
    7.2852   -0.3589  -22.1426 C   0  0  0  0  0  0  0  0  0  0  0  0
    5.8152    1.7906  -18.5297 C   0  0  0  0  0  0  0  0  0  0  0  0
    5.6769    4.0879  -16.8547 C   0  0  0  0  0  0  0  0  0  0  0  0
    5.3351    2.7356  -19.6704 C   0  0  2  0  0  0  0  0  0  0  0  0
    5.1898    4.8105  -18.1291 C   0  0  1  0  0  0  0  0  0  0  0  0
    4.4239    3.8596  -19.0859 C   0  0  1  0  0  0  0  0  0  0  0  0
    5.7619    8.2962  -22.4388 C   0  0  0  0  0  0  0  0  0  0  0  0
    7.3334   10.2384  -22.1613 C   0  0  0  0  0  0  0  0  0  0  0  0
    4.9954   10.4114  -21.2889 C   0  0  0  0  0  0  0  0  0  0  0  0
    4.5602    1.9590  -20.7774 C   0  0  0  0  0  0  0  0  0  0  0  0
    4.9319    7.1035  -17.1269 C   0  0  0  0  0  0  0  0  0  0  0  0
    6.1884    9.4354  -21.4835 C   0  0  0  0  0  0  0  0  0  0  0  0
    7.7297   -2.7014  -21.6833 N   0  0  0  0  0  0  0  0  0  0  0  0
    4.2774    5.9330  -17.7660 N   0  0  0  0  0  0  0  0  0  0  0  0
    7.9083    3.3129  -18.0332 O   0  0  0  0  0  0  0  0  0  0  0  0
    6.9475    1.8869  -16.1482 O   0  0  0  0  0  0  0  0  0  0  0  0
    5.5682   -3.9317  -17.9946 O   0  0  0  0  0  0  0  0  0  0  0  0
    3.8984    4.6495  -20.1551 O   0  0  0  0  0  0  0  0  0  0  0  0
    8.4494   -0.2625  -22.8264 F   0  0  0  0  0  0  0  0  0  0  0  0
    6.7527    2.7363  -17.3300 S   0  0  0  0  0  0  0  0  0  0  0  0
    9.3890    7.9694  -18.2966 H   0  0  0  0  0  0  0  0  0  0  0  0
    7.6414    7.1018  -16.7601 H   0  0  0  0  0  0  0  0  0  0  0  0
    8.7479    9.0471  -20.4367 H   0  0  0  0  0  0  0  0  0  0  0  0
    3.3317   -3.4091  -20.3169 H   0  0  0  0  0  0  0  0  0  0  0  0
    3.9649   -0.5965  -20.1220 H   0  0  0  0  0  0  0  0  0  0  0  0
    4.5856    8.3555  -19.5259 H   0  0  0  0  0  0  0  0  0  0  0  0
    6.7967    1.7356  -22.3752 H   0  0  0  0  0  0  0  0  0  0  0  0
    3.5471   -4.7576  -18.0474 H   0  0  0  0  0  0  0  0  0  0  0  0
    7.2850   -2.7625  -18.6606 H   0  0  0  0  0  0  0  0  0  0  0  0
    4.9426    1.3358  -18.0380 H   0  0  0  0  0  0  0  0  0  0  0  0
    6.4519    0.9992  -18.9520 H   0  0  0  0  0  0  0  0  0  0  0  0
    6.2303    4.7941  -16.2183 H   0  0  0  0  0  0  0  0  0  0  0  0
    4.8124    3.6943  -16.3000 H   0  0  0  0  0  0  0  0  0  0  0  0
    6.2178    3.2061  -20.1280 H   0  0  0  0  0  0  0  0  0  0  0  0
    6.0650    5.2113  -18.6616 H   0  0  0  0  0  0  0  0  0  0  0  0
    3.6042    3.3861  -18.5258 H   0  0  0  0  0  0  0  0  0  0  0  0
    5.4572    8.7227  -23.4059 H   0  0  0  0  0  0  0  0  0  0  0  0
    6.6078    7.6097  -22.5912 H   0  0  0  0  0  0  0  0  0  0  0  0
    4.9175    7.7455  -21.9987 H   0  0  0  0  0  0  0  0  0  0  0  0
    6.9763   10.6527  -23.1156 H   0  0  0  0  0  0  0  0  0  0  0  0
    7.6468   11.0593  -21.4996 H   0  0  0  0  0  0  0  0  0  0  0  0
    8.1880    9.5714  -22.3481 H   0  0  0  0  0  0  0  0  0  0  0  0
    4.7086   10.8392  -22.2609 H   0  0  0  0  0  0  0  0  0  0  0  0
    4.1410    9.8655  -20.8624 H   0  0  0  0  0  0  0  0  0  0  0  0
    5.2916   11.2207  -20.6053 H   0  0  0  0  0  0  0  0  0  0  0  0
    4.4375    2.6123  -21.6538 H   0  0  0  0  0  0  0  0  0  0  0  0
    3.5705    1.6756  -20.3898 H   0  0  0  0  0  0  0  0  0  0  0  0
    5.3987    6.7842  -16.1834 H   0  0  0  0  0  0  0  0  0  0  0  0
    4.1724    7.8714  -16.9187 H   0  0  0  0  0  0  0  0  0  0  0  0
    8.5150   -2.4719  -22.2582 H   0  0  0  0  0  0  0  0  0  0  0  0
    8.0503   -2.9919  -20.7817 H   0  0  0  0  0  0  0  0  0  0  0  0
    3.8285    6.2487  -18.6020 H   0  0  0  0  0  0  0  0  0  0  0  0
    3.3435    5.3341  -19.8004 H   0  0  0  0  0  0  0  0  0  0  0  0
  1  2  1  0  0  0  0
  1  3  2  0  0  0  0
  2 12  2  0  0  0  0
  3 13  1  0  0  0  0
  4  8  2  0  0  0  0
  4 10  1  0  0  0  0
  5 11  2  0  0  0  0
  5 14  1  0  0  0  0
  6 12  1  0  0  0  0
  6 13  2  0  0  0  0
  7 14  2  0  0  0  0
  7 16  1  0  0  0  0
  8 32  1  0  0  0  0
  9 10  2  0  0  0  0
  9 32  1  0  0  0  0
 10 11  1  0  0  0  0
 11 15  1  0  0  0  0
 12 26  1  0  0  0  0
 13 27  1  0  0  0  0
 14 25  1  0  0  0  0
 15 16  2  0  0  0  0
 15 28  1  0  0  0  0
 16 34  1  0  0  0  0
 17 19  1  0  0  0  0
 17 35  1  0  0  0  0
 18 20  1  0  0  0  0
 18 35  1  0  0  0  0
 19 21  1  0  0  0  0
 19 25  1  0  0  0  0
 20 21  1  0  0  0  0
 20 29  1  0  0  0  0
 21 33  1  0  0  0  0
 22 27  1  0  0  0  0
 23 27  1  0  0  0  0
 24 27  1  0  0  0  0
 26 29  1  0  0  0  0
 30 35  2  0  0  0  0
 31 35  2  0  0  0  0
  1 36  1  0  0  0  0
  2 37  1  0  0  0  0
  3 38  1  0  0  0  0
  4 39  1  0  0  0  0
  5 40  1  0  0  0  0
  6 41  1  0  0  0  0
  7 42  1  0  0  0  0
  8 43  1  0  0  0  0
  9 44  1  0  0  0  0
 17 45  1  0  0  0  0
 17 46  1  0  0  0  0
 18 47  1  0  0  0  0
 18 48  1  0  0  0  0
 19 49  1  0  0  0  0
 20 50  1  0  0  0  0
 21 51  1  0  0  0  0
 22 52  1  0  0  0  0
 22 53  1  0  0  0  0
 22 54  1  0  0  0  0
 23 55  1  0  0  0  0
 23 56  1  0  0  0  0
 23 57  1  0  0  0  0
 24 58  1  0  0  0  0
 24 59  1  0  0  0  0
 24 60  1  0  0  0  0
 25 61  1  0  0  0  0
 25 62  1  0  0  0  0
 26 63  1  0  0  0  0
 26 64  1  0  0  0  0
 28 65  1  0  0  0  0
 28 66  1  0  0  0  0
 29 67  1  0  0  0  0
 33 68  1  0  0  0  0
M  END
> <OMEGA_C>
EIgFQW0DAUEVepTBSXLrQAJJ8kDWhY3Bs2H/QNPZCkFILZ7B0ziGQHZcXMBaWJ3BZ/2cQKUABb+p
K6XBGiG0QKuxBEESCZrBBsHPQJWmSj+Ila/B+wSKQGKWhMBm+pPBjZ7IQGsqRsBxgpbB3rKuQM9P
MMCD657BkUe3QE770r+CNKbBYOO/QNQe9kASRJDBqZ7TQBwXDUGWCqHBWaSpQHONNT+lj6nB2Sbd
QOqlyr8tX6zB9R/pQA7Ct74EJLHBzxW6QOAw5T/cPJTBd6m1QLDPgkBs1obBGbmqQDEUL0D7XJ3B
PxOmQEvvmUBwCJHB+5CNQEcEd0AEsJjBg2G4QBe9BEGngrPBLavqQGLQI0FISrHB/dmfQB6VJkG3
T6rBTe2RQEzA+j8POKbBatKdQOdP40DYA4nBGQfGQHD3FkEe3qvBX1n3QGvkLMBOd63BkOCIQHPb
vUDSII7BuhD9QCcHVEDqQ5DBSlLeQN6G8T+QL4HB4y6yQJ6he8D59I/ByH55QFvIlECVPaHB0DAH
QeJfhr6FnLbBthXYQDEfL0DEo4rBUTkWQY4F/0B/X5LBeIb0QO1B40CuFIbBN/cLQRbBEEFnfqPB
GDpVQJouWsD+iKLBlMB9QIKzGL/i+aDB87ySQE+wBUEINZzB5H7ZQJQp3j94ALPBwgNjQDk+mMAk
YZDBdR7pQBvMMMDPSJXBtymeQGL6qj/RTZDBtHXOQC3Lfz/GnZfBwF7HQEJpmUAbv4HBRP+ZQItv
bEBaZoLBcPjGQCcxTUAlBqHBYRTCQKTCpkDgSpXBYKtmQDW2WEC/NJTBV6GuQA2QC0E8P7vB03LT
QEaC80C0urTB11udQG7b90A+/a/Bjj3fQJJxKkHG7LjB1bL0QBjzMEFB/6vB3gEDQZ4kGUECybLB
N62WQD9tLUFmFrLBwoKEQPbYHUEc5qbBsFSpQASIM0G/16TBIgCOQHMvJ0AKO63BOoNkQLJ71j9b
HqPBCcKsQN8X2UCWd4HBEoSFQM7i+0B4WYfBTj0IQaUzHsDeELLBM84AQZp7P8DwQKbBuAZ1QKH1
x0Dj0JTBI/tVQFexqkBEZ57BGZ8FQWp0AEFsBJTBtAbrQJ5i8UBxNI3B3DEAQTpNCkFXxp3Bukqy
QBglSsB5TZXBvhmdQDoCAr9i8qTBtMe0QIRVBEEb/JnB7NjQQAvjRD+hS6/BQ0WVQB45g8CeDJLB
37qFQJIxaMBbKKPBHsanQE/hNcBSW6DBkvm1QNCu1L8eLqbB37G/QEV79UCVJZDBVt/UQB+gDEG+
2KDB2nmqQNmQNT8wXanBxjfcQHagz78DNazBbHjpQEYuzL730rDBDYS5QEod5T8CK5TBroC0QB2m
gkCLzobB4qCqQPs1L0CpVJ3BUkmlQBzAmUAWC5HBQwyNQHGrdkBivZjB7yi6QNSFBEFAZrPB5Gjt
QH0tI0HMBbHB13GiQO2LJkFGPKrBGaKSQNp1+z8lTKbBwvScQMgO40DGCInBbyDIQDqdFkFrtavB
1w31QJUPMcCzda3BphWIQCi4vUCwNo7BwUv8QLTAU0BlEJDBevncQMTk8D98D4HB8HR2QHy8jMBI
h5rBiaB4QB+BlECBU6HBa0cHQakyqL66ZLbBXxvXQIDmLkDmhIrBiDkWQbG4/UBywpHB7HfzQHZT
4kBZuIXBubEMQXElEEHN+aLB1+fLQPsCL8DZmJDBb8B+QBOBDr93jqDBx5KTQOVgBUE7UpzBZl7b
QKOX2j/BqbLB/0WTQCobkcAfJ4rByuJrQFnQaMDX16rB+WSdQIopqz/+TpDB/fjNQPhCfz8tfpfB
MPzFQB9GmUCTrIHB162YQAsPbECqb4LBUhDHQCu0TUBE2aDBqnbBQCaDpkBCPpXBY5RlQB4MWEBH
TZTBBgOxQE9yC0HuKLvB29/UQL6W8kAGjLTBeKmeQKTp90CJ9a/B7IriQLvlKUFYsLjBh5n3QH07
MEHgsqvBmz4EQetLGEGycLLBDNCZQAV9LUFeB7LB1ayGQP0JHkGB5abBuCasQPBlM0EIvKTBqrGP
QMIxJ0D/Xq3B4BVlQNWH2D8ZaqPBO0KrQGvQ2ECEaYHBLb2EQGfa+0CAf4fBilkHQYxdI8CH7bHB
LY3+QO/3RcD6R6bBgxl0QH7mx0AC8JTBw5VUQMdEqkDphZ7BaFcFQYyyAEFq+pPBGXfqQKXW8UC5
LI3Bn9j/QOZ8CkHdv53Bccy2QCNDT8D5EZbBBsOcQH3h/76VQKXBIzm0QCqHBEFn+JnBV47RQKLy
RD++U6/B6hOZQOpmg8A3/ZHBlFeBQDfmX8BINKLBlvymQBAoNcA7hKDBeUu1QF6q1L+ieKbBgSS/
QK/Z9UASIZDBCljUQBjJDEEI16DBy/OqQMLZNz/8fKnBUQPcQNxE0L8XUKzBSM3pQOjOz75R3bDB
FOu5QCpO5T9FM5TBjKy0QOG4gkBZxobBukyrQECaL0D1WZ3BAomlQCLXmUAkBJHB4pCNQNzDdkB4
wJjBHhntQJQZI0E7FbHBfBCiQFCdJkHqXKrBQsu5QFV3BEGbZLPBEnWTQEJS/T++ZabBlnucQKEo
40BMCYnBlrfHQP+jFkFIv6vBuMD0QHOfMcC0d63BCgOIQK2dvUCqN47BAKf8QNjDU0AN7Y/BMNfc
QNh08D83AoHBGUZzQNYPicA4e5nBOph5QC2NlEDzVKHBJYsHQedCsL5tW7bBJkjXQB7dLkCldorB
0PAVQdhR/kAPtJHB4eXyQHTQ4kBVr4XBMm4MQTtQEEF786LBbSXUQEPlOsCbSJLB2Fp9QHYiC7+q
A6HBfgOTQLCaBUH3TJzBi4vcQNx/2j8knrLBmD+aQCpIksBKMorBpolaQO3FWsBMNanBlrGdQAcd
qz8KZ5DBuXfOQD8HgD+Zg5fBtCbGQAdWmUBOo4HBxs6YQPdJbEDmaYLBydDHQJBJTkBKzaDB6LbB
QHPLpkCbLZXBhKRmQJDUV0DIV5TBK1PiQLi5KUEgx7jBgkn3QJk3MEEpzKvBTRMEQfEsGEHCcrLB
hIyZQFJyLUE/MLLBKjuGQHEsHkHPA6fBy7urQHOKM0Hb5qTBTL2wQG5NC0H+LbvBdH/UQDRs8kB6
fbTBaD6eQHXo90D18a/BVeuQQCFwKEC0c63BBGhmQK5M2z9MlqPBcsiqQK0V2UBbZoHBHQeEQBO/
+0D0hofB5WIHQVgdJMC2zrHBPaT9QF/CRsA3QKbBoPNzQLmkx0Cg9JTBU1xVQNM6qkCYhp7BBTEF
QeRxAUG5PZTBQKjqQAj/8kB+V43BUOP+QBgUC0EzAZ7BeuOGQOkkW8Ba2pzBvFidQNAKA7/qJKXB
sJqzQHyQBEELCprBBkPQQDXVST8mnK/B7rWLQD3Bg8C5epPBtRnKQA4rRcDVhpbBqkOvQFaIL8BN
xJ7BAmq3QGuu0r94MKbBjCy/QJdO9kBPM5DBAzTTQGoEDUHb/qDBWy2qQBqxNj9TkqnBxRvdQGR1
y7/KbqzBNVfpQNYdvL78MLHB9ai6QEdS5j9yQ5TBI7K1QJn+gkCF1YbBkFurQG6eL0BoZZ3BNCem
QIgdmkDoB5HBlgSOQLxTd0ChvpjBs7bqQI9jI0HfUrHBjSSgQNrCJkFpRqrBLXm3QGauBEEKc7PB
VaiSQLPx+z8ARqbBgQmdQNBZ40C6/4jBaMrFQDnaFkEW2KvBqP/2QEuwLcDXlK3BJIyIQJq3vUBU
Io7BZ1r9QJk9VUB0NZDBSaXeQLnz8j/kLIHBeFK0QAbyecCCwY/B/LZ6QLP0lECNUKHBwkoHQXjQ
jr5trbbBSmPYQMfgL0Den4rB2NoVQW8oAEHHC5LBTJfzQNtA5EBz2oXBMMMLQWsOEUF8RqPBGVpV
QMb8WMD+1aHBc5R+QJQAFb+s6qDBG0mSQFNXBUELTZzBJDTaQJSL3T84BbPBaihnQD9El8BIrY/B
CMrqQHwYMMBokJXBsbieQFClqz8rXZDBcy/PQK1fgT8doJfBjjfHQCOkmUAxt4HBtAaaQBZ3bECp
bYLB5ZvHQBDlTUC0CKHB6yHCQM5Ap0CvPZXBOWRnQILLWEAeUpTBLGXfQDAAKkH3+LjBgSL1QGWF
MEFxE6zBp+ECQUKFGEHtzLLBXwKXQBmaLUERDrLBcJ2EQO1DHkFXzqbB4CCqQPOvM0F42aTBPd6t
QAaIC0EPMbvBICvSQOXw8kCGqrTBOjScQDQ7+ECN5a/Bx/+OQIi2J0DvTK3BoL1lQGl52D81NqPB
nNCrQJxP2UCpaoHBRoGEQL/D+0AHZYfBewQIQT5eH8AoO7LB3rUAQRtzQMDtY6bBaUp0QAqzx0D4
05TBJ/ZWQBTPqkA4f57B

> <OMEGA_E>
TFSdPpAorT54Ma0+yFebPg==

> <OMEGA_NBR>
     52856

$$$$
50217011
  -OEChem-04172616093D

 74 76  0     1  0  0  0  0  0999 V2000
    8.3085    8.1151  -18.4948 C   0  0  0  0  0  0  0  0  0  0  0  0
    7.2986    7.6322  -17.6460 C   0  0  0  0  0  0  0  0  0  0  0  0
    7.9748    8.7133  -19.7244 C   0  0  0  0  0  0  0  0  0  0  0  0
    5.6110    8.3287  -19.2656 C   0  0  0  0  0  0  0  0  0  0  0  0
    4.8277   -0.5606  -20.6676 C   0  0  0  0  0  0  0  0  0  0  0  0
    6.5948    0.7489  -21.7183 C   0  0  0  0  0  0  0  0  0  0  0  0
    5.9469    7.7446  -18.0267 C   0  0  0  0  0  0  0  0  0  0  0  0
    6.6172    8.8446  -20.1211 C   0  0  0  0  0  0  0  0  0  0  0  0
    5.3434    0.6828  -21.0719 C   0  0  0  0  0  0  0  0  0  0  0  0
    5.5488   -1.7459  -20.9003 C   0  0  0  0  0  0  0  0  0  0  0  0
    6.8331   -1.6757  -21.5016 C   0  0  0  0  0  0  0  0  0  0  0  0
    7.3410   -0.4271  -21.9281 C   0  0  0  0  0  0  0  0  0  0  0  0
    5.8058    1.8311  -18.4417 C   0  0  0  0  0  0  0  0  0  0  0  0
    5.6377    4.1608  -16.8191 C   0  0  0  0  0  0  0  0  0  0  0  0
    5.3531    2.7531  -19.6092 C   0  0  2  0  0  0  0  0  0  0  0  0
    5.1696    4.8603  -18.1140 C   0  0  1  0  0  0  0  0  0  0  0  0
    4.4302    3.8910  -19.0721 C   0  0  1  0  0  0  0  0  0  0  0  0
    7.3889   10.2470  -22.1456 C   0  0  0  0  0  0  0  0  0  0  0  0
    5.0300   10.4242  -21.3360 C   0  0  0  0  0  0  0  0  0  0  0  0
    5.8266    8.2998  -22.4473 C   0  0  0  0  0  0  0  0  0  0  0  0
    7.2874   -2.5324  -18.1232 C   0  0  0  0  0  0  0  0  0  0  0  0
    4.5987    1.9461  -20.7014 C   0  0  0  0  0  0  0  0  0  0  0  0
    4.9372   -3.0546  -20.4205 C   0  0  0  0  0  0  0  0  0  0  0  0
    4.8607    7.1619  -17.1442 C   0  0  0  0  0  0  0  0  0  0  0  0
    5.0727   -3.1862  -18.8815 C   0  0  1  0  0  0  0  0  0  0  0  0
    6.2277    9.4477  -21.4911 C   0  0  0  0  0  0  0  0  0  0  0  0
    4.1021   -4.2375  -18.3035 C   0  0  0  0  0  0  0  0  0  0  0  0
    7.6167   -2.8164  -21.6491 N   0  0  0  0  0  0  0  0  0  0  0  0
    4.2366    5.9780  -17.7877 N   0  0  0  0  0  0  0  0  0  0  0  0
    7.8891    3.3657  -17.9484 O   0  0  0  0  0  0  0  0  0  0  0  0
    6.9015    1.9748  -16.0505 O   0  0  0  0  0  0  0  0  0  0  0  0
    3.9349    4.6606  -20.1707 O   0  0  0  0  0  0  0  0  0  0  0  0
    6.4221   -3.5951  -18.5642 O   0  0  0  0  0  0  0  0  0  0  0  0
    8.5558   -0.3489  -22.5219 F   0  0  0  0  0  0  0  0  0  0  0  0
    2.8161   -3.9293  -18.6202 F   0  0  0  0  0  0  0  0  0  0  0  0
    4.2231   -4.2476  -16.9494 F   0  0  0  0  0  0  0  0  0  0  0  0
    4.4032   -5.4731  -18.7850 F   0  0  0  0  0  0  0  0  0  0  0  0
    6.7239    2.8016  -17.2507 S   0  0  0  0  0  0  0  0  0  0  0  0
    9.3446    8.0269  -18.2028 H   0  0  0  0  0  0  0  0  0  0  0  0
    7.5582    7.1753  -16.7024 H   0  0  0  0  0  0  0  0  0  0  0  0
    8.7587    9.0760  -20.3727 H   0  0  0  0  0  0  0  0  0  0  0  0
    4.5751    8.3836  -19.5662 H   0  0  0  0  0  0  0  0  0  0  0  0
    3.8685   -0.6065  -20.1734 H   0  0  0  0  0  0  0  0  0  0  0  0
    6.9809    1.7006  -22.0524 H   0  0  0  0  0  0  0  0  0  0  0  0
    4.9223    1.3915  -17.9558 H   0  0  0  0  0  0  0  0  0  0  0  0
    6.4464    1.0276  -18.8341 H   0  0  0  0  0  0  0  0  0  0  0  0
    6.1796    4.8795  -16.1867 H   0  0  0  0  0  0  0  0  0  0  0  0
    4.7648    3.7758  -16.2715 H   0  0  0  0  0  0  0  0  0  0  0  0
    6.2452    3.2101  -20.0624 H   0  0  0  0  0  0  0  0  0  0  0  0
    6.0512    5.2625  -18.6347 H   0  0  0  0  0  0  0  0  0  0  0  0
    3.5942    3.4303  -18.5255 H   0  0  0  0  0  0  0  0  0  0  0  0
    7.0567   10.6512  -23.1132 H   0  0  0  0  0  0  0  0  0  0  0  0
    7.6825   11.0751  -21.4837 H   0  0  0  0  0  0  0  0  0  0  0  0
    8.2497    9.5804  -22.3028 H   0  0  0  0  0  0  0  0  0  0  0  0
    4.7675   10.8426  -22.3189 H   0  0  0  0  0  0  0  0  0  0  0  0
    4.1654    9.8817  -20.9259 H   0  0  0  0  0  0  0  0  0  0  0  0
    5.3084   11.2402  -20.6528 H   0  0  0  0  0  0  0  0  0  0  0  0
    5.5474    8.7176  -23.4258 H   0  0  0  0  0  0  0  0  0  0  0  0
    6.6763    7.6123  -22.5713 H   0  0  0  0  0  0  0  0  0  0  0  0
    4.9710    7.7527  -22.0247 H   0  0  0  0  0  0  0  0  0  0  0  0
    8.2865   -2.9385  -17.9067 H   0  0  0  0  0  0  0  0  0  0  0  0
    7.3645   -1.7709  -18.9132 H   0  0  0  0  0  0  0  0  0  0  0  0
    6.8722   -2.0756  -17.2128 H   0  0  0  0  0  0  0  0  0  0  0  0
    4.4909    2.5734  -21.5985 H   0  0  0  0  0  0  0  0  0  0  0  0
    3.6026    1.6753  -20.3214 H   0  0  0  0  0  0  0  0  0  0  0  0
    3.8718   -3.0776  -20.6933 H   0  0  0  0  0  0  0  0  0  0  0  0
    5.4574   -3.8953  -20.9028 H   0  0  0  0  0  0  0  0  0  0  0  0
    5.3010    6.8594  -16.1826 H   0  0  0  0  0  0  0  0  0  0  0  0
    4.0891    7.9262  -16.9699 H   0  0  0  0  0  0  0  0  0  0  0  0
    4.8541   -2.2106  -18.4227 H   0  0  0  0  0  0  0  0  0  0  0  0
    8.4806   -2.5731  -22.0900 H   0  0  0  0  0  0  0  0  0  0  0  0
    7.8015   -3.2123  -20.7496 H   0  0  0  0  0  0  0  0  0  0  0  0
    3.8074    6.2800  -18.6389 H   0  0  0  0  0  0  0  0  0  0  0  0
    3.3729    5.3536  -19.8446 H   0  0  0  0  0  0  0  0  0  0  0  0
  1  2  1  0  0  0  0
  1  3  2  0  0  0  0
  2  7  2  0  0  0  0
  3  8  1  0  0  0  0
  4  7  1  0  0  0  0
  4  8  2  0  0  0  0
  5  9  1  0  0  0  0
  5 10  2  0  0  0  0
  6  9  2  0  0  0  0
  6 12  1  0  0  0  0
  7 24  1  0  0  0  0
  8 26  1  0  0  0  0
  9 22  1  0  0  0  0
 10 11  1  0  0  0  0
 10 23  1  0  0  0  0
 11 12  2  0  0  0  0
 11 28  1  0  0  0  0
 12 34  1  0  0  0  0
 13 15  1  0  0  0  0
 13 38  1  0  0  0  0
 14 16  1  0  0  0  0
 14 38  1  0  0  0  0
 15 17  1  0  0  0  0
 15 22  1  0  0  0  0
 16 17  1  0  0  0  0
 16 29  1  0  0  0  0
 17 32  1  0  0  0  0
 18 26  1  0  0  0  0
 19 26  1  0  0  0  0
 20 26  1  0  0  0  0
 21 33  1  0  0  0  0
 23 25  1  0  0  0  0
 24 29  1  0  0  0  0
 25 27  1  0  0  0  0
 25 33  1  0  0  0  0
 27 35  1  0  0  0  0
 27 36  1  0  0  0  0
 27 37  1  0  0  0  0
 30 38  2  0  0  0  0
 31 38  2  0  0  0  0
  1 39  1  0  0  0  0
  2 40  1  0  0  0  0
  3 41  1  0  0  0  0
  4 42  1  0  0  0  0
  5 43  1  0  0  0  0
  6 44  1  0  0  0  0
 13 45  1  0  0  0  0
 13 46  1  0  0  0  0
 14 47  1  0  0  0  0
 14 48  1  0  0  0  0
 15 49  1  0  0  0  0
 16 50  1  0  0  0  0
 17 51  1  0  0  0  0
 18 52  1  0  0  0  0
 18 53  1  0  0  0  0
 18 54  1  0  0  0  0
 19 55  1  0  0  0  0
 19 56  1  0  0  0  0
 19 57  1  0  0  0  0
 20 58  1  0  0  0  0
 20 59  1  0  0  0  0
 20 60  1  0  0  0  0
 21 61  1  0  0  0  0
 21 62  1  0  0  0  0
 21 63  1  0  0  0  0
 22 64  1  0  0  0  0
 22 65  1  0  0  0  0
 23 66  1  0  0  0  0
 23 67  1  0  0  0  0
 24 68  1  0  0  0  0
 24 69  1  0  0  0  0
 25 70  1  0  0  0  0
 28 71  1  0  0  0  0
 28 72  1  0  0  0  0
 29 73  1  0  0  0  0
 32 74  1  0  0  0  0
M  END
> <OMEGA_C>
tO8EQUvXAUFH9ZPBDo7pQGA79ED4Ko3BXzH/QKVpC0GSy53BPY2zQEpCBUHkH5rBUXyaQMqAD78o
V6XBxwjTQBO3Pz8gv63BWk2+QCnU90C9NpDB67/TQKKDDUH796DB8PyqQG/MLj8sk6jBho+xQJp4
37/GM6fBmKjaQKl+1r9PA6zB3unqQHGr2r68bK/BPsm5QBRi6j+HiJPBWmi0QPQkhUB/jYbBy0yr
QIAyMECO35zBaW2lQL6Hm0CA6ZDBRsSNQJkFeUC0k5jBsnHsQKLzI0EhKrHBYPWgQLPJJkEMsKrB
l3O6QN7LBEEnlLPBbzLpQJoTIsBY/JDB9SiTQF4a+T9unKXBlv2dQIF+Q8BFXaPB6IqbQCAu5UBU
J4nBSlOiQGjqS8BZDZfBOUnHQMQpF0Hc7avBHESDQHiZh8CZbZLBtbvzQNk/NMBhMa3BJpKHQOpL
v0AnTY7BiHP8QLFnV0BLlo/BadncQM3G/D+GZ4DBe9V7QJUjlUCXXaHBgIHNQFIWZsBjg5TBZuQI
Qdqesr7gLLTBWDs0QAh6e8Ax9pTBQCOHQPXrh8B1mIfBreaMQM8jr8DBR5bBGirXQLVMM0BhAYrB
X4MVQU9uAEFin5HBZtzxQE+c5UCdnoXBnCMMQXI3EUFJ+6LBlWeSQE8jBkGqh5zB0JR3QBVCG78e
Y6HBKmPfQLCt2T9Ia7DBboOdQHYbsj9rpY/BokjOQE6Hgz84rJbBDb/FQJQknEBsfoHBdnmYQHGn
cUADLILBW9jHQO1xTUDKf6DBMaPBQKJmqEDIE5XB0wZmQAKKW0AuNJTB3NDhQH1rKkHJ57jB/tb1
QHIzMUGd3qvBmv4DQVVJGUE4bLLBqY+YQDV7LUERjbLBAUuFQFEbHkEwaKfBqd6pQN7XM0EBOaXB
GYSxQEN7C0EdaLvBHaTVQJaX80AYkrTBIhKfQHoW+ECTMrDBtZUEQbEPPMD4QI/BE6rrQE6s4r88
TpfBaenbQIjWBMC8s4nBnbWPQNSyJEDJyazBG5FmQD9w1j9OkqLBu8t3QGn3RMDni6XBCqOuQBlN
ecDoOKfB4qGpQAOA20AHdoHBldmCQFuj/UBMwofB1VSbQC17DcCZYZPBtbAHQXWuJMBMuLDBkaX5
QJGWTcA0/6XBlqxzQCf2yEB1HJXBgd1XQMhQq0ClwZ7B3dwEQSj8AUFh4pPB9FrpQBl59EADHo3B
TCj/QG5bC0Gtxp3B+oOzQBH5BEEaNJrB02aaQNbiCr8UdKXB3JzTQFI7QT8Bsa3B6Ca+QJys90BL
PJDBFMTTQFw6DUEhCKHBpWmrQPZeMj95lqjBAROxQJ7W3b/8WafB5XvaQGYT1r/P/6vBIS7rQITc
2r5/Xq/Biga6QOW66j+DgZPBXDq0QGUXhUBafYbB/KerQMKhMEA41pzBp1+lQLB9m0CR25DBeeiN
QLYNeUB/jZjB6kq6QKk5BEFhmbPBDbXsQLw9I0H0WbHB3U2hQIh4JkG33KrB72vpQIDfI8BO55DB
8LuTQPwJ+z/ipKXBm+mcQAw/QsDVlqPBc1ibQMMm5UDLKonBBCSjQFv2S8AEYZfB9WfHQF6xFkEm
CqzBPeCEQH2Yh8BNdpLB7lrzQNhqNMAWFK3BG22HQIgsv0CJRY7BDIT8QHrcV0CMc4/BnMjcQDPo
/D9nU4DBUDh8QA8wlUAuWKHBpczOQOnLZcBIaJXBQRAJQVDdt748F7TBEiaNQKMBr8CRlJbBfbc2
QGQZesDfXpTB2DyLQBCEiMDTtIfBYy3XQBpzM0Ak7InBN2sVQRO/AEEHfZHBk5TxQGAe5kARiIXB
xyQMQSovEUFE8aLBEmuSQIGwBUEiqpzB1DN3QI7MFL/5i6HBP1DgQM0p2j9mT7DBqLadQBsFsj9b
qY/B16HOQDw1hD+ppJbB0GfFQB8cnED0ZoHBwUCYQDNTcUA5JYLBWD7IQMoyTkCpZqDB5KHBQBVv
qEDz/JTBTEpmQD9JW0CqNpTB+m6xQIjKCkEsdbvBtFLVQGc48kCwirTB6sueQGtF90AlLLDBqCHi
QAiVKUF7H7nB2k72QJqRMEEJIazB0wwEQch0GEGQj7LBgvSYQO4JLUFQwbLB3omFQAzzHUGvh6fB
q2yqQP2ZM0HZdqXBM/gEQVf2PMDjq4/BPaXqQNAE2r/QaJbBmgfcQEA4D8CGL4nBsaeQQH/nJUCb
z6zBCGdnQB3k2D97r6LBFgR1QIanQcCtcqXB8j+sQOtXeMC0tqfBsWKpQNuh20DUdIHBtKKCQByh
/UBs0IfB8d2cQHfGDcBekJPB1KMHQeVFJcD5frDBnbf4QA7UTcAH3KXBMUBzQLq0yECsFZXBwvZX
QO9Bq0CqvZ7BYz4FQROVAUGi9JPBHhDqQPe480DWMY3Bgvj/QDwPC0Gd053B7ke0QNLcBEE/PZrB
5GOcQA/eGL9/7KTBMmnSQMXFRT85wa3B7Ny+QN8x90DfTJDBWpTUQLARDUFZEKHBPvqqQH+CKT94
XajBHr+0QBAK4b+T2abBxEvcQF7M0r8eaKzBiBDrQJROwb4Hvq/BkH65QItS6D+qVZPBpD20QPz5
hEDOhIbBKJ2qQGB1LkAatZzBcjGlQEMKm0Ar6pDBhDmNQB2gd0C9dpjBVoy6QD5OBEFlnbPBnLbt
QNQFI0GLYLHBKn2iQH+hJkFWzKrB6rjpQFwSHcC1+JHBnjqSQCOI8z8IS6XB7nWjQET9RcC0vqLB
5u2bQH3g5EAWPYnBOmagQEwXSMDDQZbB0jnIQP2nFkE2C6zBGj2AQF1ohsB2fZLBUk71QN4lMcBH
iK7BeqWHQIoUv0CQWo7B3Cr8QIazVkD9j4/BttXcQBZK/T+iQYDBIXh6QGEflEDmSqHBzgrJQN6p
XcCXW5HBUqMIQchmgr6jwbTBPKowQCCee8BqPpbBTs19QFCihsDmnIfBzt+MQJexrcBP9ZXBXPzW
QMTjMkBo6InBXMwVQdU9AEEpkpHBXT7yQM405UANoIXBUZEMQTPcEEFp/aLBuCyTQJm3BUGArpzB
rWl8QK/FLL8Nw6DBf7TdQEW23j/6W7DBRWKdQM8EsD9OYI/BWwPOQAd1gT/MdpbBHJfFQDkinED2
gYHBp1eYQDOHcUAbG4LBjwLHQK5eS0BmcqDBv2bBQMiOp0C6JZXBjxplQCyYWkBtA5TB6bCxQIb3
CkEUdLvBOU7VQAQW8kDzmrTBU+yeQNW090DvKrDBrybjQAx3KUEHIbnB6bL3QGhEMEGhJazB2msE
QYMXGEE0obLBJyGaQLtJLUH4q7LBNpuGQHU9HkG9cafBtP6rQF+uM0GkZKXBxngDQWRTNMDVBI7B
0K/wQBPhDsDEaZrBUoneQLojxb8g9I3BwIyNQM+rIUCjcqzBTcxlQDZyzT9sEKLB+FqDQMBiUMBf
HKbBD/O4QByNecDfZaXB8eupQA4u20BIiYHBKW2DQKiL/UDr3YfBIn6VQGAOCcBEcZPB9tgHQcNn
H8AEerLBHZD9QEYuTcCppKfBQxB0QMW/yECbLZXBmKZWQFlrqkAgt57BqQkGQZYB/0BWnJTBybvr
QJDn8EBJpY3Bvq8AQXbdCEFVf57B5KK1QArgA0EShZrBehKbQMgMIL/NNqXBpJrQQMx7TT97sa3B
F2zAQN6E9UCAjpDBR+LVQPFpC0GsjaHBizWpQPi0Jz+kTqjBISO0QJp34b+NfKfBaDLcQNOhzb9r
rqzBhiHqQNx0pr5v0K/B26q3QGC65D+FKJPBD5KzQI0DhEAFT4bBQKyoQGDiLEByd5zBX6KkQDYj
mkC6tJDBudGLQK2AdkDnKZjBxEO6QDKgAkEb+rPB8wfvQP6+IEEkFLLBVmikQLteJUEYO6vB67JX
QMwdgsCWQY3BUuuPQBwa8D8Q+aTB6n2kQF2CSMAr86PB6oedQNaH5EB4RYnBRRepQF95WsCByZfB
a0zJQL/tFEEtiqzBpBTQQIU3McAyE5LBwWv2QJcNLcCqtK7BeQeIQDLpvkDIJY7BNAv7QJ9bUkAC
X4/B1PfaQDdd9j+7FIDB85d3QD62k0CI9qDBlISCQL5pP8CEbpLBIjMIQTjrML4dvrTBwvb0QBOr
Q8BGUZfBuZ/SQNpxUsDjEIjBaKHLQFMgtr9EGJHBMpHVQD3ZL0DetonBLaIWQQN4+0AuX5LBvQ/0
QLyK4kBiEYbBqzwNQc8pDkER0KPBy2qUQN4gBUG70ZzBxNZ5QHqAPL80FqHBbyvbQIwn5D+mMLDB
iJKbQMq2rD9PLY/BGvTLQPFbez+wW5bBFmLFQPT5mkDkV4HBoJeXQImTcEBd2IHB0QnFQO5JSUDO
R6DB7frAQIXspUD/ApXB7l9iQOghWkDQoZPBvUCxQBFDCUFUz7vBeGbUQFUL7kAKBbXBiXOeQEMl
9UBqY7DBgUzkQAcoJ0GV0rnBHvT5QP/4LUGV9KzB1ccEQWd5FUGMYLPBEN+bQM73K0HiGrPB5VmI
QAxhHUENuqfBDt2uQBdpMkE07qXBPt8dQHPkasDpXInBA1RFQCs0msCKP5PBG6aAQKr6kMDxNIfB
sh6KQLdjIECuCazBwz5iQLPlxj/Dk6HBk3GCQLYKTsCiEqbB5/O2QDNAecCZT6jBlMyrQJEB20BT
loHBPLiFQBff/UB554fBHzasQDgYkMDh15bB+IoIQeeJGcAnZbLBtBv+QPxiScBuy6fBCzZ0QHh4
yEBL8ZTBN19UQCIvqkBMWp7BziMGQcs7/0C0b5TBlcHrQCgL8UBDiY3B+eoAQWD2CEGdV57B+f+1
QOLkA0E1gprB4RebQGgHIr8aJqXB3FnQQIKVTD/2r63BSIbAQEyN9UD5h5DBnG3WQDR0C0HpeqHB
wBCpQPj0JT+4Q6jBSE60QKQv4r+zZqfBvErcQH7Szb/3oazB//3pQGi2pr5nzq/B8sy3QB6F5D+C
IJPBstWzQMA3hEB7VobB1aqoQGGILECVcZzBDr6kQFwkmkCnv5DBjtiLQPkodkDTJJjBDR7wQFZh
IEHME7LBDaClQPqQJUHkQKvBQaq6QFqJAkF627PB+oVTQLZefMCeZY3BxsaPQP8J7z8u6aTB/vKk
QJTjSMCYxKPBp3GdQOGJ5EBzT4nBoOqoQELOWMD1jJfB8xrKQNLhFEEdf6zBHJnQQCUlMcCT+ZHB
tqn2QP/mLMAorK7BKBWIQEzmvkDsNo7BYj37QHlHUkASYo/Bfh/bQCFL9z/wDIDB7iV3QGFTk0Bv
86DBfdSCQKXFOcDhTpLBKRMIQdgGLb4tx7TBnwH1QF7/RMBgV5fB8VvTQCNgUsBe+IfBlgnNQPKe
tb9tBJHBtL7VQOYFMEC5tYnBYLQWQcfJ+0DJIZLBBuLzQHWx4kCA8YXBBYkNQctKDkEknKPBMNiU
QPghBUHm3ZzB2eh5QBsjP7/8BKHBjL/aQA/G4z/tNrDBCcSbQIpyrD9ZH4/BwxrMQHEBez/fUpbB
9r7FQOpFm0D5a4HBiuqXQMk7cUCw1IHB1vfEQKbiSEAiS6DBrQLBQELjpUDZF5XBH65iQDTVWUDo
j5PBCovlQNa9JkFL2LnBAV77QB6dLUHHAK3B5y4FQSDtFEFvVbPBCkWdQAAaLEEeJ7PBsF2JQOfM
HUGRuafBEWSwQD2eMkHD/6XBiNGxQJ8WCUE/uLvBHInUQKaI7UC72LTB3ameQP9o9UDaPLDBFcAa
QPgcYMBfk4nBMzE/QEVBlcDTiZPBVlV6QAeyjsA1U4fBQcqJQE/EH0Bi+avBkSRiQKuqxT+4eKHB
HRWDQJmYT8AGBKbBYgC4QMO8ecCU8qfBc4GrQHkI20DZmYHB6JSFQELe/UCJ/IfBzMSqQOQ9j8C8
YZbBKZ0IQeklGcALY7LBDYT+QMkcScDhw6fB0ol0QAF2yED9BZXBavJTQB/QqUAsWJ7B

> <OMEGA_E>
2A8iPrALLz7wZQU+OOSpPnilrD4=

> <OMEGA_NBR>
     58954

$$$$
50216982
  -OEChem-04172616093D

 70 72  0     1  0  0  0  0  0999 V2000
    8.3519    8.0242  -18.5073 C   0  0  0  0  0  0  0  0  0  0  0  0
    7.3375    7.5562  -17.6555 C   0  0  0  0  0  0  0  0  0  0  0  0
    8.0233    8.6271  -19.7359 C   0  0  0  0  0  0  0  0  0  0  0  0
    5.6551    8.2809  -19.2682 C   0  0  0  0  0  0  0  0  0  0  0  0
    4.8784   -0.5683  -20.6514 C   0  0  0  0  0  0  0  0  0  0  0  0
    6.5413    0.7712  -21.8199 C   0  0  0  0  0  0  0  0  0  0  0  0
    5.9862    7.6891  -18.0316 C   0  0  0  0  0  0  0  0  0  0  0  0
    6.6664    8.7809  -20.1273 C   0  0  0  0  0  0  0  0  0  0  0  0
    5.3255    0.6793  -21.1124 C   0  0  0  0  0  0  0  0  0  0  0  0
    5.6455   -1.7283  -20.8643 C   0  0  0  0  0  0  0  0  0  0  0  0
    6.8771   -1.6381  -21.5590 C   0  0  0  0  0  0  0  0  0  0  0  0
    7.3108   -0.3866  -22.0504 C   0  0  0  0  0  0  0  0  0  0  0  0
    5.7812    1.7900  -18.4619 C   0  0  0  0  0  0  0  0  0  0  0  0
    5.6399    4.1157  -16.8297 C   0  0  0  0  0  0  0  0  0  0  0  0
    5.3208    2.7204  -19.6204 C   0  0  2  0  0  0  0  0  0  0  0  0
    5.1628    4.8181  -18.1197 C   0  0  1  0  0  0  0  0  0  0  0  0
    4.4028    3.8522  -19.0651 C   0  0  1  0  0  0  0  0  0  0  0  0
    5.8371    8.2633  -22.4482 C   0  0  0  0  0  0  0  0  0  0  0  0
    7.4577   10.1635  -22.1581 C   0  0  0  0  0  0  0  0  0  0  0  0
    5.1133   10.4063  -21.3231 C   0  0  0  0  0  0  0  0  0  0  0  0
    4.5632    1.9232  -20.7174 C   0  0  0  0  0  0  0  0  0  0  0  0
    5.1195   -3.0335  -20.3057 C   0  0  0  0  0  0  0  0  0  0  0  0
    4.8940    7.1224  -17.1448 C   0  0  0  0  0  0  0  0  0  0  0  0
    5.1475   -2.9928  -18.7602 C   0  0  0  0  0  0  0  0  0  0  0  0
    6.2809    9.3965  -21.4931 C   0  0  0  0  0  0  0  0  0  0  0  0
    4.2707   -4.1076  -18.1703 C   0  0  0  0  0  0  0  0  0  0  0  0
    7.6732   -2.7626  -21.7581 N   0  0  0  0  0  0  0  0  0  0  0  0
    4.2479    5.9470  -17.7834 N   0  0  0  0  0  0  0  0  0  0  0  0
    7.8783    3.3066  -17.9735 O   0  0  0  0  0  0  0  0  0  0  0  0
    6.8891    1.9179  -16.0747 O   0  0  0  0  0  0  0  0  0  0  0  0
    3.8817    4.6218  -20.1514 O   0  0  0  0  0  0  0  0  0  0  0  0
    8.4820   -0.2867  -22.7216 F   0  0  0  0  0  0  0  0  0  0  0  0
    2.9832   -3.9616  -18.5864 F   0  0  0  0  0  0  0  0  0  0  0  0
    4.7368   -5.3219  -18.5631 F   0  0  0  0  0  0  0  0  0  0  0  0
    4.3028   -4.0263  -16.8164 F   0  0  0  0  0  0  0  0  0  0  0  0
    6.7122    2.7494  -17.2716 S   0  0  0  0  0  0  0  0  0  0  0  0
    9.3875    7.9210  -18.2184 H   0  0  0  0  0  0  0  0  0  0  0  0
    7.5933    7.0950  -16.7130 H   0  0  0  0  0  0  0  0  0  0  0  0
    8.8105    8.9763  -20.3876 H   0  0  0  0  0  0  0  0  0  0  0  0
    4.6191    8.3542  -19.5643 H   0  0  0  0  0  0  0  0  0  0  0  0
    3.9363   -0.6387  -20.1280 H   0  0  0  0  0  0  0  0  0  0  0  0
    6.8828    1.7285  -22.1851 H   0  0  0  0  0  0  0  0  0  0  0  0
    4.9005    1.3496  -17.9715 H   0  0  0  0  0  0  0  0  0  0  0  0
    6.4161    0.9872  -18.8648 H   0  0  0  0  0  0  0  0  0  0  0  0
    6.1930    4.8309  -16.2033 H   0  0  0  0  0  0  0  0  0  0  0  0
    4.7702    3.7367  -16.2730 H   0  0  0  0  0  0  0  0  0  0  0  0
    6.2103    3.1824  -20.0735 H   0  0  0  0  0  0  0  0  0  0  0  0
    6.0422    5.2092  -18.6524 H   0  0  0  0  0  0  0  0  0  0  0  0
    3.5805    3.3872  -18.5016 H   0  0  0  0  0  0  0  0  0  0  0  0
    5.5608    8.6917  -23.4229 H   0  0  0  0  0  0  0  0  0  0  0  0
    6.6651    7.5516  -22.5821 H   0  0  0  0  0  0  0  0  0  0  0  0
    4.9700    7.7403  -22.0185 H   0  0  0  0  0  0  0  0  0  0  0  0
    7.1278   10.5781  -23.1220 H   0  0  0  0  0  0  0  0  0  0  0  0
    7.7811   10.9821  -21.4983 H   0  0  0  0  0  0  0  0  0  0  0  0
    8.2978    9.4730  -22.3244 H   0  0  0  0  0  0  0  0  0  0  0  0
    4.8523   10.8340  -22.3024 H   0  0  0  0  0  0  0  0  0  0  0  0
    4.2382    9.8877  -20.9046 H   0  0  0  0  0  0  0  0  0  0  0  0
    5.4223   11.2126  -20.6417 H   0  0  0  0  0  0  0  0  0  0  0  0
    4.4364    2.5630  -21.6031 H   0  0  0  0  0  0  0  0  0  0  0  0
    3.5753    1.6314  -20.3314 H   0  0  0  0  0  0  0  0  0  0  0  0
    4.0853   -3.1865  -20.6480 H   0  0  0  0  0  0  0  0  0  0  0  0
    5.7495   -3.8625  -20.6603 H   0  0  0  0  0  0  0  0  0  0  0  0
    5.3335    6.8141  -16.1847 H   0  0  0  0  0  0  0  0  0  0  0  0
    4.1348    7.8986  -16.9681 H   0  0  0  0  0  0  0  0  0  0  0  0
    6.1830   -3.1271  -18.4144 H   0  0  0  0  0  0  0  0  0  0  0  0
    4.7702   -2.0179  -18.4180 H   0  0  0  0  0  0  0  0  0  0  0  0
    8.4959   -2.5037  -22.2642 H   0  0  0  0  0  0  0  0  0  0  0  0
    7.9339   -3.1473  -20.8726 H   0  0  0  0  0  0  0  0  0  0  0  0
    3.8143    6.2554  -18.6301 H   0  0  0  0  0  0  0  0  0  0  0  0
    3.3227    5.3110  -19.8122 H   0  0  0  0  0  0  0  0  0  0  0  0
  1  2  1  0  0  0  0
  1  3  2  0  0  0  0
  2  7  2  0  0  0  0
  3  8  1  0  0  0  0
  4  7  1  0  0  0  0
  4  8  2  0  0  0  0
  5  9  1  0  0  0  0
  5 10  2  0  0  0  0
  6  9  2  0  0  0  0
  6 12  1  0  0  0  0
  7 23  1  0  0  0  0
  8 25  1  0  0  0  0
  9 21  1  0  0  0  0
 10 11  1  0  0  0  0
 10 22  1  0  0  0  0
 11 12  2  0  0  0  0
 11 27  1  0  0  0  0
 12 32  1  0  0  0  0
 13 15  1  0  0  0  0
 13 36  1  0  0  0  0
 14 16  1  0  0  0  0
 14 36  1  0  0  0  0
 15 17  1  0  0  0  0
 15 21  1  0  0  0  0
 16 17  1  0  0  0  0
 16 28  1  0  0  0  0
 17 31  1  0  0  0  0
 18 25  1  0  0  0  0
 19 25  1  0  0  0  0
 20 25  1  0  0  0  0
 22 24  1  0  0  0  0
 23 28  1  0  0  0  0
 24 26  1  0  0  0  0
 26 33  1  0  0  0  0
 26 34  1  0  0  0  0
 26 35  1  0  0  0  0
 29 36  2  0  0  0  0
 30 36  2  0  0  0  0
  1 37  1  0  0  0  0
  2 38  1  0  0  0  0
  3 39  1  0  0  0  0
  4 40  1  0  0  0  0
  5 41  1  0  0  0  0
  6 42  1  0  0  0  0
 13 43  1  0  0  0  0
 13 44  1  0  0  0  0
 14 45  1  0  0  0  0
 14 46  1  0  0  0  0
 15 47  1  0  0  0  0
 16 48  1  0  0  0  0
 17 49  1  0  0  0  0
 18 50  1  0  0  0  0
 18 51  1  0  0  0  0
 18 52  1  0  0  0  0
 19 53  1  0  0  0  0
 19 54  1  0  0  0  0
 19 55  1  0  0  0  0
 20 56  1  0  0  0  0
 20 57  1  0  0  0  0
 20 58  1  0  0  0  0
 21 59  1  0  0  0  0
 21 60  1  0  0  0  0
 22 61  1  0  0  0  0
 22 62  1  0  0  0  0
 23 63  1  0  0  0  0
 23 64  1  0  0  0  0
 24 65  1  0  0  0  0
 24 66  1  0  0  0  0
 27 67  1  0  0  0  0
 27 68  1  0  0  0  0
 28 69  1  0  0  0  0
 31 70  1  0  0  0  0
M  END
> <OMEGA_C>
haEFQTBjAEHxDpTBJM3qQMfM8UBhPo3BV18AQbAICkEo453Bava0QLZ+BEE6JZrB8BucQKl7Eb/6
NaXBEFLRQJdvRT8kj67BEY+/QA0N9kCgQJDBI1PVQJV+DEHFBKHBWmqqQLfjLT825qjB96e0QAQ5
3b8G6qbB8hDcQC6u0b/feKzBH/LpQO/pxb4xZ7DBRv+4QHUd5T/tsZPBx3m0QKyzg0BIo4bB1UOq
QBcbLkCJ9pzB0DWlQEAumkAt9ZDB7+OMQNCKdkBjhZjBy8m6QGc2BEHolbPB2KXuQIadIkG3Q7HB
i6CjQBaAJkHNlarBdAWSQGsq9j80vaXBrNKjQAAlQsAFcqLBT5ucQKHq40CIKInBGrikQICKP8Do
FJbB3fzIQDVYFkHk8avB9qmIQBJxg8C+XJHB6Yr1QD7OMMCOEK7Bse6HQJdNvkBdRI7Bvhr8QJKe
U0CuyY/BanPcQEt89T/5mIDBmm14QDDmk0D+NaHBKrYHQc7Mkr7cxbXB9uw+QCmLfcD3sJTBppOX
QPVMqsAwgZTBorCJQA3XgMD6h4bBHcrWQMT2L0BGLIrBAjMWQdN4/UBXv5HBrvzyQEAK40A8tIXB
9vcMQfyeD0HLGaPBSs+TQOmqBUGng5zB2Ox7QHeEI78aBqHBsz/cQFVA3T8Ne7HBztCcQDLArD+M
xY/BAFHNQBm5fD8x65bBJC3GQBmXmkBToIHBFqWYQLgmb0ABL4LB77rGQIOsS0BulqDBvFnBQGax
pkAxOJXBsiZlQODHWEBfA5TB2vGxQDwRC0EhYrvBkkjVQIqm8UAwqLTBMQqfQN6w90D6JbDBvRbk
QA9AKUHY+bjBsP74QKO2L0GE/KvBnMMEQW+RF0FOmLLB2EWbQN5XLUFOa7LBd5+HQNEzHkGgPKfB
2YOtQJ1mM0EbIqXBFveNQNAHJEBA06zBh9FkQHzR0D/CpqLBGLuCQIHvS8ARL6XBIvy3QD0zd8Bj
SKXBGKyqQEYN2kBGeoHBclCEQEzB/ECyvofBfNvFQBsjSMDFUJPBeqWYQHYkAcAjWJPBTu8HQVs9
IMAMHbLBpuL9QOxsScAg+6bBfR10QEYsyEBeCpXBdaZUQPTzqUBvf57BJQ4GQYH2/0BSaZTBQuTr
QNEx8UBef43BXp8AQbuACUFUP57BgJe1QLcPBEGyTprB++6cQAy7Eb84cqTBOADOQG63Rz+tC6/B
U4vAQMxx9UCHaJDBTrXVQCPqC0FSSqHBdXuoQHpvKz+G36jB0ny3QK4G2r/TzaXBRjzcQIiKzL99
W6zBD3PnQECQtr4f7bDBFI+3QBa14j//lZPBBgK0QNgXg0DDjIbBruCoQBDkLECi3pzBUxWlQP/D
mUBZ35DBpTuMQMeCdkBwb5jBHyq5QMmGA0G4qbPBEaruQFtSIUEIz7HBdXqkQAtJJkF2vKrBCviP
QMUO9D8/kqXB2aKwQNXfPsAMXp/Bq9KdQK3G40C9LInBEaeGQO0oQMB04JjBTunIQMCmFUEJNazB
bvmFQEIAhcAZ2ZDB0172QLcrLcB0Dq7BJm2IQO9cvkDALo7BTzD7QOAkUUBByY/BQIPbQA3P8T+M
i4DBzGV4QDszlECsJKHBYtwFQeEVdb6uwrbBcEuSQAdkqsALepXB48GgQDn5dsDxmojBfgQ7QE4N
icASEI3B1djVQIExLkBkHYrBEKoWQYKx/ED0K5LBR1j0QDuY4kD39IXB0R8NQY4HD0GBiKPBl1mU
QK4+BUF4mJzBtQt/QGphKL/e9p/B2jzXQF4+3j9QVbLB1lKbQF+eqz/CnY/B947LQIAMdj990ZbB
/+rFQGPAmUD/hIHBSgaYQLlxbkDIHILBMW7FQK1lSUBBlaDBR2rBQArOpUDdI5XB+yJjQPrgWUAQ
8ZPBAv2vQLlPCkG0c7vBJP7SQIKU70DGzrTBGVGdQLMr90BqB7DB+b7jQJflJ0FsgLnBWx36QGhq
LkEcrKzByG8EQVTqFUFvN7PBzsGbQGkNLUHIj7LBfGOIQDZoHkFwL6fB/HivQLouM0GTaqXBED+L
QLAwI0CznKzBH1BhQM2zzT8cWKLB+TywQJ5BdcB29KTBlozLQKYaRsCXxJnBsjusQAjS2UCfioHB
mOaFQNbm/ECPr4fB8omDQPZZA8DggpTBwxpXQAxqR8BCa57B4lMHQbvdHMDT2bLBYPMAQRW5QcDP
DKfBPfd0QGxFyECa8ZTBUnxVQKWiqkAMc57BDRsGQXKe/0AleZTBOQDsQBL58ECCiY3BTKgAQTlw
CUFxSJ7Bkaq1QG44BEHrRZrBR7idQNWME79RJKTBcpvNQJATQz8YJK/BLqLAQP+T9UB/ZpDBzcPV
QOUEDEGDRqHBy6KoQJgpKD8Xw6jB9+u3QHqa278wpKXB+yDcQJC3zr97ZqzBNfHmQHiUwL7/FLHB
ZY23QKda4z/gfJPB2Ae0QIZ7g0A9iobB6dKoQNvCLEB1zpzBpPmkQBn1mUBy4JDBZx2MQByIdkDD
Z5jBIXDuQJPCIUEHtrHButSjQBMBJkE3yqrBKyO6QI92A0E2srPBfAeQQD2W8j8qeqXB6eyxQJWA
PsDI6Z7BOdqdQMD+40CVK4nBIXyFQBW1RcBrnZnBQ/HIQHC2FUHxMqzBDLGDQGsCiMA+pZHBCTn2
QDkxLsBvMa7BSF+IQGWdvkAKMI7B5yr7QI2ZUUANxo/BN5LbQPfz8z8md4DBGhJ4QKwNlEChIqHB
cGEFQa5nhr50GLfBdwWWQNjyq8Ast5XBzlyYQGbseMB6g4jB4QY0QAXzj8DrYI/B19vVQO7iLkDq
EIrBr7gWQe0W/EBZRZLBgnn0QG4z4kDZBIbBHycNQaLqDkHOlaPB/2eUQAmFBUFgh5zBdfuAQG4l
KL/GYp/Bk4XWQIqD2z+yirLBIlabQCSTrD8qfo/BB4zLQPrVdj+vsJbBCfrFQApAmkB1jIHBvxmY
QOJbb0AEEoLBEVrFQLQ8SUAOiaDBj0LBQDD0pUDbK5XBf/diQOr9WUDn45PBcoPjQN1JKEHSabnB
DEP5QG3rLkEniKzBH4wEQdiZFkGoFrPB4CObQIK6LEFuoLLBwemHQDPZHUHLT6fBBCeuQHP5MkEq
bqXBRe6wQGsuCkFSf7vBjnTUQN7470DyzLTBnn+eQDR69kDWHrDBZTSLQKkuIkDbiazBWYdhQGIC
zD9RO6LBI4y2QLR6dsCQH6TBKlPKQK62PsAHkpjBdzisQEEA2kAAiYHBn/yFQFIt/UAar4fBhfJ8
QIOyCcBTXJXBEJFaQA4rUMCo3p/BHQcHQR32HcCOIbPB7jIBQXxbQsDGPKfB/e10QLuPyEAt85TB
ux1VQJqCqkAadp7BeTQFQRK2AEHbGZTBQiLqQJsj8kCKRo3B7aT/QB9nCkEX553B+vuzQEGTBEH1
HZrBtrKbQG8ZD79ylqXBf6XTQL+zRD95Dq7BCNS+QHY19kCYPZDBbyfUQLK0DEHKAaHBZsqrQEBP
MD8C1ajBGkazQGC13r8LWafBDd7bQJjp078MbazBCJPrQDKczb4F4a/BVUa5QEGJ5T+Kq5PBVciz
QONPg0DVhobBMj6rQLrNLkBc9pzBUTulQFskmkBJ3ZDBj5aNQCMvd0DkopjBYla5QO0yBEEvgrPB
SQvtQGi2IkFCVbHBkxuiQGGPJkEamKrBN5iTQDWt+D8u3qXByi6eQAo4RcB9vKTB7BacQILR40CP
H4nB2NGOQJZUTMDS+pjBxo3HQFVyFkFo8KvBDu2yQA2DZcDtQZHByZT0QNS8MsDiJ67Biq6HQO8T
vkA6Oo7BYP37QF4vVECehI/BLwHcQEtD9D/cfIDBaRh8QJyelED0Y6HBXeEIQahnob4q9LTBYcDA
QGDgmsBcqJPBiDjUQJWPLcCf35HBRuWiQERLZcAkKYfBpYvWQDXTL0BOB4rBV8wVQRtK/kD00ZHB
ZYLyQPFH40DUwoXBKlkMQV8lEEGrHaPBqMmSQKalBUGadZzBvMZ5QCUXHb+rsqHBZdDfQJfc3D95
qLDBHc+cQMNWrT8R3o/BmLTNQKRefT9J1pbB0v7EQJUOmkDHXoHB+6uXQMy/bUA1PYLBWP7HQOxl
TECYcKDB16rBQM3opkDv85TBWGllQG1uWUCGV5TBAUuwQPTxCkHIULvBzeTTQJCx8UAalLTBgbed
QGml90BHA7DBGEziQHFEKUGeC7nBC3D3QGreL0HTGKzBYPkDQUavF0FrrLLBy52ZQFROLUGhcLLB
FjKGQE1BHkHPM6fBSPurQLWIM0EyL6XBjo+QQAc5JUDY/azBmBdnQPgo1T/W+6LBsl2CQGqaTcCm
BqrBlIO1QPCDeMAQQabBVE2qQFAM2kC0c4HBMZ+DQPZ3/EBdsYfBstKBQCIGDsAYfJbBLf1qQGkZ
fcCfipjBEO4HQdZJIsA+zLHBNT37QDt2TsDfI6fB+LRzQFXOx0AHBZXBXPJXQAquqkA1wp7B6VUF
QaqmAEEEHJTBm1/qQIbo8UB+To3BLPL/QE1qCkE35Z3B/0O0QK2NBEGRI5rBNDSbQAotD78ksKXB
1CvTQMitRj++Eq7B9hO/QG8O9kDgRZDBzHfUQGepDEHMBaHBbDerQG7MMD/y4qjBgMeyQD8T3r9u
jafBzLjbQKi90r+bb6zBJGzrQDWOx74r1K/BLA65QDfz5D8JupPB/E60QJlbg0DKm4bBYeCqQAeT
LkDB/pzBCWSlQNQVmkBF7pDBMmeNQPn1dkD2nZjBc/ftQGeWIUESqbHBrrKkQLLrJ0HqQ6rByTO2
QOnPBEGcSbPBrfWSQL1W+D8t26XBaOOdQNmIRMC30qTBglOcQMW440AmKInBJRqUQHRiTsAywZjB
s8LHQGqiFkGM5KvBvFW8QJZfYMAWB5LBOcf0QKr3McCs+q3BPeOHQG4GvkD1Qo7Bqiz8QJ/lUkBL
qo/Bv//bQMcc8z/slYDBPNV6QORmlEBEV6HBnfgIQShyl76ZvLTBvJTQQLKnk8C7x5XBx8DXQCjB
HMB5PJLB3rmvQNuzbsCvyofBq6nWQP5AL0B9IYrBpOwVQVck/kCm0pHBdbnyQLzn4kD2zoXBW4EM
QbRBEEHXE6PBMxKTQNuuBUHweZzBPvh4QHtWHr8EwqHBWSnfQPQC3j9HsrDBX6ScQKIbrT8g4Y/B
FlLNQGOxez+J7ZbBoeXFQM0cmkDgiIHB3VGYQMNjbkAVOYLBLZHHQFQRTEBHhKDBQqvBQDjNpkC+
GJXByndlQIJBWUA5PJTByAXjQGVaKEFHT7nBTrv6QPp2LkHAlKzBvZoDQSazFUE8LLPB9fmbQNLe
LkH1DLLBP0eIQGaOIEHAmqbBJ/ywQICWNEH1+6TB6ROtQDHEC0H+CrvB8w3PQIsx8UCwhrTBF/+Z
QLTN+kAkjK/BZ5aPQJolJUBD9qzBnxpmQPpB1D8S56LBhGN/QLfNScBYTKnBRpyzQEVieMDYQqfB
HoaqQLru2UA9fIHBnuODQBJn/EAIuofB+UuFQFrWEsAV3pXBHiR7QKfngcAms5fB2iQIQSBoIcC3
gLHBrff6QJw1TcBM6KbBEgB0QDzMx0DNCpXBz+NWQFd4qkBkq57Bs44FQTF7AEGXMJTBst7qQFDT
8UAWVo3BeigAQe8SCkEOA57B+Km0QLlQBEGlMJrBTAacQPJUD7+cRqXBfILRQJ5DRz+Mi67BXo2/
QFzZ9UAPS5DBpNLUQJNeDEFNHKHB1neqQNL0Lz/X76jBJGe0QPVI3L+lCKfBMgrcQNfl0L/ue6zB
gB7qQHnLwr4GX7DBrKK4QPN25D90tJPB4hq0QPstg0C0kYbBwjuqQKoyLkC09pzBqimlQNH5mUDC
35DBYPKMQCbcdkCji5jB7tHtQKRNIkHfdLHBHhOjQI5pJkEypKrBzJi5QDQCBEHJnbPBFxeSQGI9
9z+ByaXBIHSjQEd3QcCik6LBQNmcQJC/40CTHYnBvL2nQEGgQcC5Q5bBljnIQJIoFkFeCazBtg+K
QHmggsBGT5HBfnz1QAaOMMBFAq7BivuHQC0kvkA7K47B3MP7QJ/qUkAmvo/BRBXcQNHQ8j9NnYDB
Y+l5QABwlEDWP6HBHdYHQZqRkL7rtbXBDPdAQGShcMABRpPBmKuSQOjGqcBUh5XBgFeQQHS8g8B7
k4bBTHDWQMMVL0BaJorBvCcWQRLe/UD96ZHBCUfzQDkd40BVzoXBh60MQbK/D0FmP6PB1XSTQBhi
BUHohZzBkNR7QFrtIL8BEqHB1YzcQI4q3j+mcLHB3k+cQKuerD8K0Y/B29jMQDa2ej8z7ZbBQrXF
QMfhmUDYe4HBySSYQAznbUAbL4LBWNrGQMyOS0DZiaDBjnbBQOGCpkCVEJXBHJFkQJxXWUBKJJTB
1RLjQGTlKEErKbnBOHL4QFVsL0EQOqzBA0gEQekvF0ET0bLB14qaQGo0LUFxebLBlxiHQHo2HkFK
OKfBuEGtQHFWM0H8PKXBJ5OwQKTUCkGUaLvBxPDTQI8X8UBTuLTBvd+dQH1590DoG7DB1D6OQMTD
JEDe3KzBYMVkQHIY0j/ov6LByI2BQGOPSMAwxqTB6um1QNsYd8BZ7KXBZDCrQG3m2UAgd4HBU56E
QMeZ/EDFpofBbA7JQNQ2UMAGFpTBoAufQFcaAsDjJ5PBdgEIQb0gIMAr/LHBIXz9QBY7ScBH56bB
TvBzQHj2x0DM7ZTBqDlWQM2SqkAwj57B

> <OMEGA_E>
sAg/PqCxVD5gAlU+bEqCPkgMiz7A5z4+

> <OMEGA_NBR>
     65886

$$$$
50216778
  -OEChem-04172616093D

 46 47  0     1  0  0  0  0  0999 V2000
    4.8440   -0.9046  -19.9831 C   0  0  0  0  0  0  0  0  0  0  0  0
    6.1323    0.6661  -21.3335 C   0  0  0  0  0  0  0  0  0  0  0  0
    5.0553    0.4095  -20.4573 C   0  0  0  0  0  0  0  0  0  0  0  0
    6.8073   -1.6761  -21.2212 C   0  0  0  0  0  0  0  0  0  0  0  0
    5.7250   -1.9500  -20.3633 C   0  0  0  0  0  0  0  0  0  0  0  0
    7.0055   -0.3718  -21.7126 C   0  0  0  0  0  0  0  0  0  0  0  0
    5.4802    1.7925  -17.8292 C   0  0  0  0  0  0  0  0  0  0  0  0
    5.5226    4.3744  -16.5927 C   0  0  0  0  0  0  0  0  0  0  0  0
    4.9782    2.5470  -19.0871 C   0  0  2  0  0  0  0  0  0  0  0  0
    5.0217    4.8770  -17.9593 C   0  0  1  0  0  0  0  0  0  0  0  0
    4.1329    3.8014  -18.6636 C   0  0  1  0  0  0  0  0  0  0  0  0
    4.1705    1.5600  -19.9827 C   0  0  0  0  0  0  0  0  0  0  0  0
    5.3142   -3.4860  -18.5571 C   0  0  0  0  0  0  0  0  0  0  0  0
    4.0092   -4.3198  -18.4428 C   0  0  0  0  0  0  0  0  0  0  0  0
    6.5689   -4.1820  -17.9381 C   0  0  0  0  0  0  0  0  0  0  0  0
    7.6913   -2.6948  -21.5690 N   0  0  0  0  0  0  0  0  0  0  0  0
    4.2724    6.1377  -17.7521 N   0  0  0  0  0  0  0  0  0  0  0  0
    7.6677    3.2485  -17.6551 O   0  0  0  0  0  0  0  0  0  0  0  0
    6.6780    2.2428  -15.5294 O   0  0  0  0  0  0  0  0  0  0  0  0
    3.5277    4.4018  -19.8080 O   0  0  0  0  0  0  0  0  0  0  0  0
    5.5336   -3.2590  -19.9691 O   0  0  0  0  0  0  0  0  0  0  0  0
    8.0428   -0.1090  -22.5407 F   0  0  0  0  0  0  0  0  0  0  0  0
    2.9633   -3.5608  -18.8650 F   0  0  0  0  0  0  0  0  0  0  0  0
    3.7863   -4.6921  -17.1574 F   0  0  0  0  0  0  0  0  0  0  0  0
    4.0648   -5.4299  -19.2301 F   0  0  0  0  0  0  0  0  0  0  0  0
    6.6669   -5.4772  -18.3365 F   0  0  0  0  0  0  0  0  0  0  0  0
    6.4892   -4.1422  -16.5829 F   0  0  0  0  0  0  0  0  0  0  0  0
    7.7097   -3.5366  -18.3101 F   0  0  0  0  0  0  0  0  0  0  0  0
    6.5010    2.8830  -16.8387 S   0  0  0  0  0  0  0  0  0  0  0  0
    4.0101   -1.1139  -19.3296 H   0  0  0  0  0  0  0  0  0  0  0  0
    6.2874    1.6644  -21.7153 H   0  0  0  0  0  0  0  0  0  0  0  0
    4.6172    1.4588  -17.2342 H   0  0  0  0  0  0  0  0  0  0  0  0
    6.0721    0.9186  -18.1388 H   0  0  0  0  0  0  0  0  0  0  0  0
    6.1440    5.1493  -16.1201 H   0  0  0  0  0  0  0  0  0  0  0  0
    4.6626    4.1486  -15.9452 H   0  0  0  0  0  0  0  0  0  0  0  0
    5.8522    2.8966  -19.6563 H   0  0  0  0  0  0  0  0  0  0  0  0
    5.8941    5.0747  -18.5995 H   0  0  0  0  0  0  0  0  0  0  0  0
    3.3595    3.4723  -17.9540 H   0  0  0  0  0  0  0  0  0  0  0  0
    3.7834    2.1020  -20.8581 H   0  0  0  0  0  0  0  0  0  0  0  0
    3.3296    1.1524  -19.4024 H   0  0  0  0  0  0  0  0  0  0  0  0
    5.1611   -2.5259  -18.0427 H   0  0  0  0  0  0  0  0  0  0  0  0
    8.3953   -2.3319  -22.1795 H   0  0  0  0  0  0  0  0  0  0  0  0
    8.1218   -3.0588  -20.7431 H   0  0  0  0  0  0  0  0  0  0  0  0
    3.9402    6.4770  -18.6322 H   0  0  0  0  0  0  0  0  0  0  0  0
    3.4956    5.9678  -17.1458 H   0  0  0  0  0  0  0  0  0  0  0  0
    3.0202    5.1582  -19.5382 H   0  0  0  0  0  0  0  0  0  0  0  0
  1  3  1  0  0  0  0
  1  5  2  0  0  0  0
  2  3  2  0  0  0  0
  2  6  1  0  0  0  0
  3 12  1  0  0  0  0
  4  5  1  0  0  0  0
  4  6  2  0  0  0  0
  4 16  1  0  0  0  0
  5 21  1  0  0  0  0
  6 22  1  0  0  0  0
  7  9  1  0  0  0  0
  7 29  1  0  0  0  0
  8 10  1  0  0  0  0
  8 29  1  0  0  0  0
  9 11  1  0  0  0  0
  9 12  1  0  0  0  0
 10 11  1  0  0  0  0
 10 17  1  0  0  0  0
 11 20  1  0  0  0  0
 13 14  1  0  0  0  0
 13 15  1  0  0  0  0
 13 21  1  0  0  0  0
 14 23  1  0  0  0  0
 14 24  1  0  0  0  0
 14 25  1  0  0  0  0
 15 26  1  0  0  0  0
 15 27  1  0  0  0  0
 15 28  1  0  0  0  0
 18 29  2  0  0  0  0
 19 29  2  0  0  0  0
  1 30  1  0  0  0  0
  2 31  1  0  0  0  0
  7 32  1  0  0  0  0
  7 33  1  0  0  0  0
  8 34  1  0  0  0  0
  8 35  1  0  0  0  0
  9 36  1  0  0  0  0
 10 37  1  0  0  0  0
 11 38  1  0  0  0  0
 12 39  1  0  0  0  0
 12 40  1  0  0  0  0
 13 41  1  0  0  0  0
 16 42  1  0  0  0  0
 16 43  1  0  0  0  0
 17 44  1  0  0  0  0
 17 45  1  0  0  0  0
 20 46  1  0  0  0  0
M  END
> <OMEGA_C>
bQKbQASVZ79Y3Z/ByDvEQIaHKj8Qq6rBCcWhQMSs0T6OqKPBWtXZQEyJ1r8HxanBCzO3QI6Y+b8h
6KLByyzgQJJavr58s63Bi12vQCtx5T8uoo7BA7mwQCD7i0DzvYTBy02fQHgBI0BTspjBz7GgQJQQ
nEC+rI/B1ECEQGFJc0AeT5XByXSFQKGuxz9/3J/Bsw2qQAkbX8DydJTBb0uAQIc7isDyipPBOjTS
QETThcA5gY/BuR72QO93LMBWjazBkLeIQL9nxEBeBI7Btl31QOHmT0CvPY3BF7LVQEaJD0BkeHjB
78VhQIjbjEDRdp7B8xKxQAOTUMCxwJ/BgK8AQdpH371hU7TBe6c9QAfkY8Cc65bBlVJyQMkllsBF
QonBpRKCQP7BrcA915nBTFfVQC1Fr8AwsZLBlqfPQOOMhMDaqYTBlbX2QEVXYsAle5LB0gfQQFqD
OEChtYbBWlKAQH+Vjr8Do5rBvzLJQAoL1T8Jua3BQMCTQDi6uj++34nBaU7CQNsmaz9AHJHBy5vE
QMbGpEDu9YDBzDOVQBfBhEBZH3/B4ES7QCdiOUAcQJ3BzZy8QM1jokDDy5TB5wFXQKc6XkDRoY/B
1yJyQN2GBkBp3abBsxdVQL+Ckz8gOJvBdSelQLCnIcBjV5DBBlMGQYg+FcCVb7HBuPIBQR/EQ8DY
8aXB0yt8QMVDz0CtDpXB5bdfQNv3vkB/KonBNkpBQKUPpUA0TpzBXG2cQGhabr84UJ/Bdy7GQE2G
Ij/UHarBOjWjQPJJxT7wRKPBnCjbQALs2r9eKanB4CS5QBaA/b+ME6LBSv3hQCCJ0L56Cq3Bqd6v
QGPQ6T8Gt47B3wiwQKTCi0CcmYTBqQagQC51JECs1ZjB8DyfQALanEAUXI/BdaiEQMYJdUALoJXB
f5CGQGASxz9M4Z/BfbG9QOfSesBorZXBT3TrQPOjY8BXAJHBYFGYQNWkccBmo43BWTX1QEvIL8DM
tazBq66EQPAHw0AJF43Brsb0QMYRVUC1t43BgevXQKDhEED4O3nBBVloQOavjkA9A5/BtzmwQHH2
U8DO4p/BQY0BQQi/IL5HuLPB1ScFQSNNdcDWTpjBWDL0QGjrisAvX4jB8lzvQEKhEMDV443BFpKe
QDLJksDkEoXBDfxmQHY8hcD+lpLBGOiTQEKjH8BxPorBhI/QQGXeOkB59YbB41+BQEpUkb/rMJrB
WJ/LQGX70D81Ia3BLjCUQH6/wD9Y7InBUKPCQNz6cT9FGpHBm0fDQF+fpECYpIDBuNyUQLcOg0CQ
5H7Bqgm8QD6AOkBmZZ3Bxry6QEM0pkCgVJTBXHNUQAuLX0DleJDBP3F1QH2ABEDiEafBnpdWQHNi
lT8nQ5vB85C/QNf4n8DdR5fB98QFQft3GMDWpLHBga8BQTugS8Drb6bBZZByQNnizkDS85PBM5RY
QNvHukArV4jBB2JHQD34pkDfB53BkkuZQMIUdr+GOKDBIzbJQDJqJj+SsajB3OmjQH+OwT5tuKLB
kBrbQOks3L9z0KjBGn20QIl8AcC0fqPB1Q3lQMtcyL7Pj6vBtlyyQB9h7D8TPI7BfD+yQNu8jUDl
tYTBHPSgQMi1I0D/WJjBSJyfQN8UnUCYc4/BERCFQGIGc0BCM5XBnUGHQKfHwz/qJ5/BWvKeQHfg
g8AnLJrBMmO1QKTJacDyro/BrHZbQN7QisCCK5nBP9/2QLvKL8CnsqvBAiyEQIyswkCeSY3Bn6X2
QEXUWEDL/Y3BNA/cQEocGEBY7XjBtNJlQCgAjEBknJ7BtDCnQEpXVsCq5qPBhn0EQfTg571ZLbHB
yKbfQPiSWsBne5HBxDuzQH3slMBbU4jBtFqiQHTaIsAml4vBzPNFQIs1nsBO1Y/BgGhCQPBwpMCW
YKHBzk0vQKI3S8Da4JnBtk3TQPwiP0CQ64bBPs14QGGolr9YzpvBql/QQL/91D/uEavBTnWXQAva
wj88MInBg2TFQA1veD9FnZDB2JfFQCN2p0DUJYHBSfeXQIdWhUAPfn7B2Ea8QCVSOkAqH53BKiq6
QBGHpkAyuZTBljZXQIN+XUA4wI/B4It0QDNEAkCcQ6bBrIpZQH2YkD+CUprBdQasQN34o8ARtpvB
bz8IQXUhF8DuXa/B7RYAQX1iT8AhJKXB4kRvQP1LzUD2JpTBNTFZQLpMukC9TIjBhPpDQMUQpEAk
spzBiiyaQIBhbr+PFqDBCHzGQFTPLz83mKnB65yiQBdszT7kGqPBBWPaQEi71b+lmqnBt+C1QGuZ
+7+QbqPB9W7iQJicr770xKzB94avQGjt5T809I3BKOawQMkFjUB7l4TBYqWfQMOuIUCDJ5jBevSg
QNb6m0BkoY/Bk5CEQPNAckBpEZXBcu2FQPD6wz8NPJ/ByyWxQPAFaMAk4ZXBftKIQD/HjcCFwZLB
sf7bQM0sjcBNOpTBrZz2QC/BK8C+f6zBB92IQDVUxEBdQY7B2ZD1QG6fUECH4ozB4yjWQIvYE0BN
S3fBgiljQF5fi0B8Zp7BAcCsQD10UcDdC6HBPYgCQawlU72R1bLB2HyGQL7ZkMAA74fBe8GJQAN8
tcA4NZfBKlxKQLhScsC2SpbBwh38QNySYsDT7pHBL7PmQC8xo8CWPZ3BdRTZQGSLqcBKBozBQVDQ
QIVpOkAMQobBESB9QPaMlL8LOpvB9n7MQIfT2T+jIqzBit2TQNlvvT/RIonB5GDCQFPDaT8cQpDB
CLLEQO44pkBg84DBV1iVQLI9hkDoxH7Bg767QPVON0C6tpzB6Oi8QEXWoUAWxpTBS0BXQINyXkBi
X4/BX9VxQC5XBEB5MabB3+xWQOn5jT/eg5rBwVOyQL+qLcBG95DBP0MHQaMaE8Cy1LDBn0ABQfEm
R8Cj6KXBVZp8QOltzkBRX5XBIOdfQKhOv0DFZInBxHVCQNnGo0CpcZzBF/2aQMiyZr+szZ/BNbLD
QEZSKj+ow6rB6IChQH3q0T5Fq6PBApDZQPIy1r+0zKnBFCC3QMIG+b+F4KLBoqnfQBVQvr5Aza3B
t2SvQA4I5T+Bn47Bq6SwQJnKi0BRtoTBMVOfQL3DIkCLsJjBbKCgQEzwm0AJpI/Bd1aEQOwcc0Ab
VJXBAU2FQAGTxz911Z/BASyqQDyjXsDUaZTBaFR+QJD0h8DSeZPBUZHRQKHih8Boyo/BcvP1QI86
LMB0i6zBQWiIQLYbxEDh9o3BiU71QNoJUECKQ43BcOnVQNZcD0DtfHjBkKtiQEPZjEB3hZ7BnC6x
QPApUMCWsp/BdFUAQWzo4b0GfbTBUCw+QMd7XsDmc5fBxERsQFoakcATHInBSUCAQM7XrMAEQpnB
UkTNQLYQjcBJD4XBuyv2QHKzYsBToJHBl+LVQJ/yrsBDcZTBUxPQQFlgOEDTtYbBQImAQBr0jb9k
f5rBdm7IQKOy1D9i4a3ByciTQCRkuj/o24nByVPCQKY/aj+VGJHBQnLEQBqZpECI6IDB7R6VQMdu
hEBjFn/BrEi7QLn0OECUQp3BFI28QGN6okAsvpTBKr9WQEAlXkCWtI/BgZtxQHiUBkAk0abBg+xU
QC9mkz+RKpvB+x6nQKsxIcCtL5DBACoGQZ4jFcBSe7HBsPQBQfLsQsDL7aXBA5F7QH4Az0CFAJXB
9RBfQHt2vkApIonB7zJCQJUZpUC+ZJzB9jOcQM76dr+isZ7B7tW+QNKeIT+1qarB7RSfQDadsD7x
/aLBX2fXQFkQ17/xJKrBaQa5QMPc/L9VL6LBYvDaQNAuv75CLa7B6zitQLl55D8U7o3BHg6vQE/5
i0AHeoTB5A+eQDj8H0DQO5jBYdGfQJbxm0Aueo/B3E+EQFiHc0Bwf5XB6vaCQMoevj9U5Z7B5pPK
QDQPUMBJo5LBS+enQDIWe8AlxYvB6b/3QKzlfMDklZHBF7jyQGQCK8Bw4q3Bx5KGQM1xw0AkxI3B
V5PzQASgTkCY0ozBVMHTQPwhEUAlT3fBAfpqQNUhjUAnKZ/BwQu6QPzHTsC6jp3BJ/j5QNgVlb1L
UbXB56agQCg1psBkNo/BONGCQFibTsCdwIzB0BK0QFQze8BrV4HB4ccIQQLIS8AqVIvB1W0FQeQm
g8DhPZvBi8v1QFQCpsBeDo3BpTfOQFyIOEDrOYbBNiKEQFXkmL+5xZjBIZbBQKa80D9O3a3BcTGR
QLDMvj/jJ4nBh6y/QBZzYz+IGpDBM8XCQDbFpEDqo4DBbSiTQC/yhEDaz37BN1m6QNMXMkD39JzB
nQm8QDhYo0CzZpTBqR9SQHDpYUCTYZDBPB9pQI5/AEBwwKXBt/tSQIcSiT+pzpnBbjvOQIPBDcAL
04/BPQcDQcCPEsBverPBJSMCQd+LQcBu0afBb314QNCJzkDSz5TBDvBaQNXwvEBOFInBANdLQGJj
pkAFgZ3B

> <OMEGA_E>
KJ0aP5QtHD9Cgh4/aMwoP/TeGT/UrzU/

> <OMEGA_NBR>
      5105

$$$$
50216810
  -OEChem-04172616093D

 71 73  0     1  0  0  0  0  0999 V2000
    8.1706    8.1904  -18.2421 C   0  0  0  0  0  0  0  0  0  0  0  0
    7.1365    7.7098  -17.4208 C   0  0  0  0  0  0  0  0  0  0  0  0
    7.8795    8.7143  -19.5159 C   0  0  0  0  0  0  0  0  0  0  0  0
    5.5095    8.2705  -19.1506 C   0  0  0  0  0  0  0  0  0  0  0  0
    4.8299   -0.7953  -20.0725 C   0  0  0  0  0  0  0  0  0  0  0  0
    6.2473    0.6996  -21.3813 C   0  0  0  0  0  0  0  0  0  0  0  0
    5.8024    7.7549  -17.8714 C   0  0  0  0  0  0  0  0  0  0  0  0
    6.5401    8.7702  -19.9854 C   0  0  0  0  0  0  0  0  0  0  0  0
    5.1197    0.4963  -20.5574 C   0  0  0  0  0  0  0  0  0  0  0  0
    6.8144   -1.6668  -21.1987 C   0  0  0  0  0  0  0  0  0  0  0  0
    5.6829   -1.8795  -20.3855 C   0  0  0  0  0  0  0  0  0  0  0  0
    7.0917   -0.3800  -21.7031 C   0  0  0  0  0  0  0  0  0  0  0  0
    5.5762    1.8084  -17.9380 C   0  0  0  0  0  0  0  0  0  0  0  0
    5.5336    4.2931  -16.5658 C   0  0  0  0  0  0  0  0  0  0  0  0
    5.0739    2.6083  -19.1697 C   0  0  2  0  0  0  0  0  0  0  0  0
    4.9841    4.8679  -17.8919 C   0  0  1  0  0  0  0  0  0  0  0  0
    4.1917    3.8127  -18.7150 C   0  0  1  0  0  0  0  0  0  0  0  0
    3.8130   -4.1260  -18.4392 C   0  0  0  0  0  0  0  0  0  0  0  0
    6.2831   -4.0836  -17.8856 C   0  0  0  0  0  0  0  0  0  0  0  0
    7.4017    9.9615  -22.1122 C   0  0  0  0  0  0  0  0  0  0  0  0
    5.0980   10.4257  -21.2527 C   0  0  0  0  0  0  0  0  0  0  0  0
    5.6456    8.1758  -22.2678 C   0  0  0  0  0  0  0  0  0  0  0  0
    4.2732    1.6765  -20.1213 C   0  0  0  0  0  0  0  0  0  0  0  0
    4.6869    7.2093  -17.0017 C   0  0  0  0  0  0  0  0  0  0  0  0
    5.1191   -3.3268  -18.5514 C   0  0  0  0  0  0  0  0  0  0  0  0
    6.1853    9.3266  -21.3836 C   0  0  0  0  0  0  0  0  0  0  0  0
    7.6709   -2.7264  -21.4833 N   0  0  0  0  0  0  0  0  0  0  0  0
    4.0623    6.0089  -17.6166 N   0  0  0  0  0  0  0  0  0  0  0  0
    7.7015    3.3515  -17.7436 O   0  0  0  0  0  0  0  0  0  0  0  0
    6.8256    2.1871  -15.6488 O   0  0  0  0  0  0  0  0  0  0  0  0
    3.6646    4.4763  -19.8666 O   0  0  0  0  0  0  0  0  0  0  0  0
    5.4136   -3.1638  -19.9578 O   0  0  0  0  0  0  0  0  0  0  0  0
    8.1785   -0.1738  -22.4828 F   0  0  0  0  0  0  0  0  0  0  0  0
    6.5786    2.8825  -16.9179 S   0  0  0  0  0  0  0  0  0  0  0  0
    9.1927    8.1577  -17.8947 H   0  0  0  0  0  0  0  0  0  0  0  0
    7.3643    7.3062  -16.4452 H   0  0  0  0  0  0  0  0  0  0  0  0
    8.6816    9.0768  -20.1417 H   0  0  0  0  0  0  0  0  0  0  0  0
    4.4872    8.2849  -19.4986 H   0  0  0  0  0  0  0  0  0  0  0  0
    3.9547   -0.9574  -19.4607 H   0  0  0  0  0  0  0  0  0  0  0  0
    6.4630    1.6855  -21.7659 H   0  0  0  0  0  0  0  0  0  0  0  0
    4.7152    1.4458  -17.3573 H   0  0  0  0  0  0  0  0  0  0  0  0
    6.1783    0.9517  -18.2748 H   0  0  0  0  0  0  0  0  0  0  0  0
    6.1210    5.0647  -16.0467 H   0  0  0  0  0  0  0  0  0  0  0  0
    4.6953    3.9786  -15.9267 H   0  0  0  0  0  0  0  0  0  0  0  0
    5.9461    2.9998  -19.7139 H   0  0  0  0  0  0  0  0  0  0  0  0
    5.8303    5.2215  -18.4992 H   0  0  0  0  0  0  0  0  0  0  0  0
    3.3721    3.4271  -18.0909 H   0  0  0  0  0  0  0  0  0  0  0  0
    2.9976   -3.5664  -18.9209 H   0  0  0  0  0  0  0  0  0  0  0  0
    3.9345   -5.0988  -18.9380 H   0  0  0  0  0  0  0  0  0  0  0  0
    3.5710   -4.2857  -17.3781 H   0  0  0  0  0  0  0  0  0  0  0  0
    7.2062   -3.4926  -17.9785 H   0  0  0  0  0  0  0  0  0  0  0  0
    6.0556   -4.2430  -16.8213 H   0  0  0  0  0  0  0  0  0  0  0  0
    6.4191   -5.0562  -18.3811 H   0  0  0  0  0  0  0  0  0  0  0  0
    7.0852   10.3368  -23.0966 H   0  0  0  0  0  0  0  0  0  0  0  0
    7.7948   10.7949  -21.5113 H   0  0  0  0  0  0  0  0  0  0  0  0
    8.1869    9.2025  -22.2444 H   0  0  0  0  0  0  0  0  0  0  0  0
    4.8499   10.8174  -22.2502 H   0  0  0  0  0  0  0  0  0  0  0  0
    4.1958    9.9959  -20.7930 H   0  0  0  0  0  0  0  0  0  0  0  0
    5.4772   11.2431  -20.6218 H   0  0  0  0  0  0  0  0  0  0  0  0
    5.3915    8.5664  -23.2642 H   0  0  0  0  0  0  0  0  0  0  0  0
    6.4155    7.3962  -22.3651 H   0  0  0  0  0  0  0  0  0  0  0  0
    4.7461    7.7466  -21.8021 H   0  0  0  0  0  0  0  0  0  0  0  0
    3.9651    2.2472  -21.0098 H   0  0  0  0  0  0  0  0  0  0  0  0
    3.3806    1.3057  -19.5961 H   0  0  0  0  0  0  0  0  0  0  0  0
    5.0993    6.9355  -16.0194 H   0  0  0  0  0  0  0  0  0  0  0  0
    3.9194    7.9868  -16.8733 H   0  0  0  0  0  0  0  0  0  0  0  0
    4.9932   -2.3486  -18.0643 H   0  0  0  0  0  0  0  0  0  0  0  0
    8.4161   -2.4055  -22.0679 H   0  0  0  0  0  0  0  0  0  0  0  0
    8.0482   -3.0881  -20.6308 H   0  0  0  0  0  0  0  0  0  0  0  0
    3.6507    6.2873  -18.4843 H   0  0  0  0  0  0  0  0  0  0  0  0
    3.1272    5.2099  -19.5916 H   0  0  0  0  0  0  0  0  0  0  0  0
  1  2  2  0  0  0  0
  1  3  1  0  0  0  0
  2  7  1  0  0  0  0
  3  8  2  0  0  0  0
  4  7  2  0  0  0  0
  4  8  1  0  0  0  0
  5  9  2  0  0  0  0
  5 11  1  0  0  0  0
  6  9  1  0  0  0  0
  6 12  2  0  0  0  0
  7 24  1  0  0  0  0
  8 26  1  0  0  0  0
  9 23  1  0  0  0  0
 10 11  2  0  0  0  0
 10 12  1  0  0  0  0
 10 27  1  0  0  0  0
 11 32  1  0  0  0  0
 12 33  1  0  0  0  0
 13 15  1  0  0  0  0
 13 34  1  0  0  0  0
 14 16  1  0  0  0  0
 14 34  1  0  0  0  0
 15 17  1  0  0  0  0
 15 23  1  0  0  0  0
 16 17  1  0  0  0  0
 16 28  1  0  0  0  0
 17 31  1  0  0  0  0
 18 25  1  0  0  0  0
 19 25  1  0  0  0  0
 20 26  1  0  0  0  0
 21 26  1  0  0  0  0
 22 26  1  0  0  0  0
 24 28  1  0  0  0  0
 25 32  1  0  0  0  0
 29 34  2  0  0  0  0
 30 34  2  0  0  0  0
  1 35  1  0  0  0  0
  2 36  1  0  0  0  0
  3 37  1  0  0  0  0
  4 38  1  0  0  0  0
  5 39  1  0  0  0  0
  6 40  1  0  0  0  0
 13 41  1  0  0  0  0
 13 42  1  0  0  0  0
 14 43  1  0  0  0  0
 14 44  1  0  0  0  0
 15 45  1  0  0  0  0
 16 46  1  0  0  0  0
 17 47  1  0  0  0  0
 18 48  1  0  0  0  0
 18 49  1  0  0  0  0
 18 50  1  0  0  0  0
 19 51  1  0  0  0  0
 19 52  1  0  0  0  0
 19 53  1  0  0  0  0
 20 54  1  0  0  0  0
 20 55  1  0  0  0  0
 20 56  1  0  0  0  0
 21 57  1  0  0  0  0
 21 58  1  0  0  0  0
 21 59  1  0  0  0  0
 22 60  1  0  0  0  0
 22 61  1  0  0  0  0
 22 62  1  0  0  0  0
 23 63  1  0  0  0  0
 23 64  1  0  0  0  0
 24 65  1  0  0  0  0
 24 66  1  0  0  0  0
 25 67  1  0  0  0  0
 27 68  1  0  0  0  0
 27 69  1  0  0  0  0
 28 70  1  0  0  0  0
 31 71  1  0  0  0  0
M  END
> <OMEGA_C>
67oCQd4LA0HM75HBeF7kQIS29kDIXYvBmST8QJttC0GbIJzB202wQAlUBEFlNJnBUo6aQJSaS799
lKDB/enHQDoXMz8ADavBgq25QEAo+ECY+I7BfUjRQKJSDEEI4p/B1NSjQAgV/j6cdaTB3A/aQJxY
1b/zlqnB+Nm1QAqS8L+MFaPB8u7iQIiUwr7hn63B+W+yQCR65z8DgY/BEhOxQOhgiUDGhoTBqV2i
QDnuJkCgW5nB432fQKPFm0CDIo/BVCKGQI4CdEBhuJXBxAd0QAcIhMBvg5PBSw/JQNCsgsCwFY/B
39rsQHNiH0HJ5bDBpyKjQJfPJkGfBarBbai0QObPAkFnJLLBsb2IQAiZ1j98+KDB0/qVQLmy5kBi
A4jBn8+jQAPrVMA1aZTBBe7FQKI5FUGjEavBz3f1QFJ9LsDT3avBVf6BQMtIwEDB7ozBg3L2QKd/
VkDj8o3BH2vaQML4C0BMYXrBbIhqQBI+j0DR7p7BkDytQGl8SsCmqZ/BPtsCQagDMr7Y3LPBuYPS
QNt6OEDcV4fBVxUTQR+GAkFNKI/B+6frQMvM6UDZj4PBq+cKQaM6EUE0IqHBLJePQN2OBEET/ZvB
Uxp9QO4Ydb+Yr5vBhtDOQPC91z+PIK7BweKWQEgQuT+724rBsrTFQGmgcz+1MpLBcd/DQAcSokCT
X4DBMECWQNWgfkDZ037BSka+QHz8P0AHtp3B35G6QJ0Wp0Br/pPBr89XQK1VW0AoupDB2dg/QBVA
ZMAFXpfB9M57QKMpo8DzgJfBsYpkQBckicBMBovBQJnmQOuGX8AN1I/BOsfBQLzGh8DukYbBW2nN
QEjMocCUDJPB7bniQI9jJUHHxbjB0G75QMG3LEEoF6zBXv0CQZs9E0GS9LHBpDKbQCEULUGDALLB
HkSGQCLvH0ENWKbB0USvQLrjM0F/+aTBMIesQAsQCUEPHbrBGkzNQOqt7ECw67LBZuCXQF3k90Cc
aq7Bx8N9QLrSD0AXFKjBSVxYQBghpz/MxJzBpC2jQJbv3UCkJ4DBc9d6QAeU/0B2/IbB+8efQI9P
FsDJg5DBWagGQW30GcD4irDBXsUAQaejRcDaC6XBlKRpQPcxyUDy35PBoiNIQDm3pkCju5zB320C
QStgA0EzqZHBpofjQCZN90BzLYvBwPP7QH2xC0EK45vBZAmwQE92BEHgLJnBrB2bQE8+T7+YY6DB
kCzIQGuFLz868arBTQC5QICQ+EAz547BykbRQMx2DEEVxp/BfFKkQB459z4kRqTBoQLaQCme17+i
pKnBJCe2QNfN8r8cAqPBpO7iQCmVyr62oa3BJt6yQEHQ6D/VYI/BywaxQPfziUBWgoTBZK2iQEHg
JkDJRZnBbV2fQN0JnEATJY/Bf0KGQLTuc0CQspXBxURvQEDGgsAF35PBTDTGQCWphcCh/Y7B/cm1
QG3ZAkFAJrLBEHbtQPugH0G/s7DBxFejQPrEJkEWDKrBFyWJQCvo1D8ezqDBVhWVQPrw5kD7CojB
CMOiQIaLVsCYbpTBxmfGQCdOFUHBAKvB/g31QF/QL8BXGKzB/I6BQHViwECCAY3BJpD2QOEnWEDZ
5o3BrtLaQA/sDUDyLnrBTaBqQMDsjkDs8J7BSbqtQB3US8AhmZ/BBMACQbKwQb6w8bPB37/SQNns
OUBbRYfBDbgSQfntAkFqyY7BnoLqQPh46kDSWIPBreYKQV6KEUH90aDBq3KPQOihBEHgDJzBSbp+
QB5SeL8JZ5vBtRnPQDId1j9i/a3BSl+XQOxMuj89t4rBt0nGQCORdj9uBpLBtanDQNDVokCoYYDB
6z+WQFKkf0Bix37BuoG+QFvmP0ACqZ3Bj2K6QFNzp0CRApTBUB9YQK44W0CKspDBr609QCq2XsAv
zZfBMKt0QPDTocCi9ZfBm7NdQG/6h8AOc4vBLLrkQNp7aMA3fY/BNt29QG7hisCgiobBAVnJQO+6
pMA0DZPBEQeuQM4XCUEeJbrBLqTOQH/t7EAK2bLB0+SYQNe/90DZh67BRKjjQK2TJUEHnbjBrIn5
QDEGLUGl26vBkW0DQYCYE0FIq7HByq6bQGkGLUHrC7LBtmaGQHbKH0EhdKbBGxOvQP/gM0Hr9aTB
Mx5+QLZ6DkDK7qfBO3NZQPJMpT/KjJzBnvahQMpN3kCaJIDBVKp4QNWu/0D+GIfBE/GfQKAPGMCM
cJDBFFYGQZpFG8DY17DBNL0AQRKPR8CxWKXBqSdpQBo1yUA8+pPB6wdIQPlfpkB/xpzB4nQCQcmI
AkHdMpHBPuvjQNqD9ECXx4rB5IT7QPyNC0FyP5vBVs+vQGDaA0HUgJjBiLiZQDh5Fb/2+6DBDjjD
QFCEJz/oKa7BUkG5QLwF9kDAZY7B6q7QQH16DEFaBJ/B3xChQMhPFz8hzabBEyfXQIqw0b+NkanB
2g+2QH131L9AyKHBsn/dQGaA8r5Bxq/BMw20QJVY4z80r5HBooSxQJUphUAMT4XB1I+jQC4TKkAQ
HZvBTAagQPP7mUA8oo/Bt/+GQG6/c0B+uZbBuYTOQMW7ksC4f5LByaqBQC0IhsCiJpjBTk+1QFkS
BEHKibHBaMzrQH1KIUHmjq/BP3qhQKcdJ0Hwt6jBPWOJQFH46j/2d6PBXbyVQKct40CJnYfBAeSw
QNbTd8A4f5rB3ELFQI0cFkGxC6rBNsrzQGqiLMB1karBHRiCQIGJvUCI7ozBVo/3QD48VEA4/Y7B
I/TaQLRgAECXBH7BY49qQLpEkUCxf5/BAsG3QPdYHsAR85jBCA7/QKdgyb66mrbBEmDTQOw2MkC9
yYjBts0SQT75AUGAaY7BBkPrQPmm5kC/FIPBSI4KQdvTEUFZIqDB6iGPQCcOBEFpUJvB0gR8QHqR
KL8l25vBkjjJQIpXyD+4jrLBjp6YQFdfrT+EUo3BmObHQAt2dT9W25TBTgbEQNnrnEDMwIDBmK2W
QC5Ac0BhZoDBhlm/QBp6RkBPL5/BrxW7QDezpkAmR5TBz25aQP9fV0Bd5ZHBqgnwQKr2isDkWpTB
gvXGQM8JiMCqVIrBw77JQFmHtcB2FpPBhHFaQK+xasB9+Z3BMcZ4QFO+qMDqxpjBsDNzQJGBdsAd
BZDB0yWtQP/cCkFiZbnBAKvOQM8J8EBAgbLBZ8eYQCwE+UBUCa7Bv6HhQEnHJ0FsVbfBhmb3QI1m
LkECdKrB/tQCQT+cFUEryrDB1HOZQAHtLUHFlLDByeGEQBiNH0EeQKXBKrmsQHTtM0FBYaPBWKyD
QF56HUCGkarB6hpVQIAbxj9o55/B3AejQGY12UAst3/BhPp5QFas+0AhU4bBe+y4QNy+hcBgtKLB
xEsEQSgGIMB2cLDBytEBQSVhNMCkr6PBCQRpQImRx0AXupPBTaRHQFHJp0CI2ZzB22gCQcBAAkGi
XpHBR/fjQJ8T9EAz5IrBYTf7QAM2C0FAa5vB4YavQA2jA0HsiZjBAcWZQIxDEL/PC6HBP1bDQGdf
Kz9hP67BYTS5QHu99UDkbI7BBVHQQEgWDEFvJJ/BZDKhQJMRHD8S4qbBpjnXQDKZz78AmKnBoOe1
QG570r+126HBEZTdQARm676w1K/BShq0QBCA4z9JzZHBpDKxQGqRhECfPYXBZb6jQE3UKkAkL5vB
lxGgQMTSmUCLi4/B7CiHQC1CdEDWwpbBZzfNQJ7BlMC1pJPBvjCAQA/shsD2/pjBUX/rQDrpH0Gx
/6/B7gaiQNEHJ0F34qjBOU2zQPhoA0HLebHBBpSJQH6C7T+ulKPBf+eVQLcB40CvjYfBSVuvQAG9
eMDPSZvBvbzEQLN9FUFONqrB4OTzQE6QK8Dfk6rBDiWCQNVNvUDQzIzBmIr3QCPYU0CY2o7BLlza
QMIO/T+HG37BdJ9rQKfykUC6g5/BqDC2QIrMH8AcPpnBcfX+QNKCxb7jt7bB1CXTQAlaMUBDxYjB
pckSQXSxAUEKoY7BJX7rQJku5kAeNYPBIVoKQX95EUGiV6DBBsOOQGLqA0GQSJvBcEN8QPT8Ib9u
45vB6FvJQOgIyj/3qbLB4ZeYQM2VrD9NhI3BSBDIQPondz/oBJXB9o3DQLAfnEAYlYDB/DCWQGin
cUCAa4DBypS/QAJcR0BZOJ/BV0q7QCutpkAdG5TB2VdaQK+qV0C+BZLBHK7uQPecjMA8dpXBwebF
QBW4i8BZVovBR2zIQP5jt8DpqJTBhjdXQNgmasCnkZ7BHrt1QAJ2qcCeDJrBErBwQDGUe8AOupDB
JSThQLlBJkGzybfBRjX4QGoILUHTEavBKUwCQQbSE0HpO7HBhduZQFCwLUE6xbDBw0GFQGv9H0FX
PKXBRViuQJnaM0EDtKPB5QSrQGQHCkHLXLnBd+nLQJLx7UDMbbLBgZaWQFrC+EBWy63BcRyEQDnm
HkDwrarBTj9VQKoeyT/qD6DBGnCjQEMo2UDEn3/BpGB6QCmD+0AePYbB9iO3QB+bhMConqPBm2oE
QVXNHsDDabDBcMoBQZl5M8DmrKPBjJRoQHw9x0DukZPBOahIQJdoqEBQ2JzB

> <OMEGA_E>
kBSGPigvhT64xNI+WKTTPg==

> <OMEGA_NBR>
      9901

$$$$
50216768
  -OEChem-04172616093D

 78 80  0     1  0  0  0  0  0999 V2000
    8.1542    8.2109  -18.2026 C   0  0  0  0  0  0  0  0  0  0  0  0
    7.1117    7.7247  -17.3953 C   0  0  0  0  0  0  0  0  0  0  0  0
    7.8782    8.7279  -19.4826 C   0  0  0  0  0  0  0  0  0  0  0  0
    5.5067    8.2657  -19.1518 C   0  0  0  0  0  0  0  0  0  0  0  0
    4.8593   -0.8066  -20.0205 C   0  0  0  0  0  0  0  0  0  0  0  0
    6.2493    0.6868  -21.3599 C   0  0  0  0  0  0  0  0  0  0  0  0
    5.7842    7.7588  -17.8655 C   0  0  0  0  0  0  0  0  0  0  0  0
    6.5463    8.7683  -19.9739 C   0  0  0  0  0  0  0  0  0  0  0  0
    5.1333    0.4814  -20.5238 C   0  0  0  0  0  0  0  0  0  0  0  0
    6.8130   -1.6800  -21.1955 C   0  0  0  0  0  0  0  0  0  0  0  0
    5.7085   -1.8958  -20.3425 C   0  0  0  0  0  0  0  0  0  0  0  0
    7.0859   -0.3917  -21.6961 C   0  0  0  0  0  0  0  0  0  0  0  0
    5.5831    1.8118  -17.9147 C   0  0  0  0  0  0  0  0  0  0  0  0
    5.5297    4.3059  -16.5617 C   0  0  0  0  0  0  0  0  0  0  0  0
    5.0805    2.6008  -19.1530 C   0  0  2  0  0  0  0  0  0  0  0  0
    4.9803    4.8696  -17.8928 C   0  0  1  0  0  0  0  0  0  0  0  0
    4.1944    3.8060  -18.7104 C   0  0  1  0  0  0  0  0  0  0  0  0
    9.1800   -2.7086  -17.4016 C   0  0  0  0  0  0  0  0  0  0  0  0
    7.4299    9.9606  -22.0920 C   0  0  0  0  0  0  0  0  0  0  0  0
    5.1101   10.4036  -21.2675 C   0  0  0  0  0  0  0  0  0  0  0  0
    5.6953    8.1570  -22.2713 C   0  0  0  0  0  0  0  0  0  0  0  0
    4.2816    1.6594  -20.0946 C   0  0  0  0  0  0  0  0  0  0  0  0
    4.6599    7.2105  -17.0090 C   0  0  0  0  0  0  0  0  0  0  0  0
    8.1205   -3.6450  -17.9868 C   0  0  0  0  0  0  0  0  0  0  0  0
    5.7898   -4.2764  -17.7289 C   0  0  0  0  0  0  0  0  0  0  0  0
    4.8814   -3.3637  -18.5839 C   0  0  2  0  0  0  0  0  0  0  0  0
    6.2092    9.3149  -21.3804 C   0  0  0  0  0  0  0  0  0  0  0  0
    3.4896   -4.0017  -18.7724 C   0  0  0  0  0  0  0  0  0  0  0  0
    7.6479   -2.7405  -21.5356 N   0  0  0  0  0  0  0  0  0  0  0  0
    4.0494    6.0058  -17.6283 N   0  0  0  0  0  0  0  0  0  0  0  0
    7.7026    3.3631  -17.7297 O   0  0  0  0  0  0  0  0  0  0  0  0
    6.8282    2.2106  -15.6276 O   0  0  0  0  0  0  0  0  0  0  0  0
    3.6684    4.4595  -19.8685 O   0  0  0  0  0  0  0  0  0  0  0  0
    5.4899   -3.1897  -19.8912 O   0  0  0  0  0  0  0  0  0  0  0  0
    6.9083   -3.5216  -17.2202 O   0  0  0  0  0  0  0  0  0  0  0  0
    8.1604   -0.1844  -22.4924 F   0  0  0  0  0  0  0  0  0  0  0  0
    2.7276   -3.2210  -19.5825 F   0  0  0  0  0  0  0  0  0  0  0  0
    3.6109   -5.2327  -19.3386 F   0  0  0  0  0  0  0  0  0  0  0  0
    2.8700   -4.1170  -17.5690 F   0  0  0  0  0  0  0  0  0  0  0  0
    6.5804    2.8963  -16.9018 S   0  0  0  0  0  0  0  0  0  0  0  0
    9.1711    8.1879  -17.8396 H   0  0  0  0  0  0  0  0  0  0  0  0
    7.3281    7.3253  -16.4155 H   0  0  0  0  0  0  0  0  0  0  0  0
    8.6865    9.0971  -20.0964 H   0  0  0  0  0  0  0  0  0  0  0  0
    4.4897    8.2710  -19.5150 H   0  0  0  0  0  0  0  0  0  0  0  0
    3.9990   -0.9645  -19.3869 H   0  0  0  0  0  0  0  0  0  0  0  0
    6.4619    1.6741  -21.7428 H   0  0  0  0  0  0  0  0  0  0  0  0
    4.7223    1.4510  -17.3325 H   0  0  0  0  0  0  0  0  0  0  0  0
    6.1883    0.9543  -18.2440 H   0  0  0  0  0  0  0  0  0  0  0  0
    6.1136    5.0832  -16.0470 H   0  0  0  0  0  0  0  0  0  0  0  0
    4.6915    3.9930  -15.9217 H   0  0  0  0  0  0  0  0  0  0  0  0
    5.9519    2.9892  -19.7005 H   0  0  0  0  0  0  0  0  0  0  0  0
    5.8256    5.2244  -18.5007 H   0  0  0  0  0  0  0  0  0  0  0  0
    3.3738    3.4229  -18.0860 H   0  0  0  0  0  0  0  0  0  0  0  0
   10.1098   -2.7975  -17.9826 H   0  0  0  0  0  0  0  0  0  0  0  0
    8.8173   -1.6711  -17.4467 H   0  0  0  0  0  0  0  0  0  0  0  0
    9.3744   -2.9839  -16.3545 H   0  0  0  0  0  0  0  0  0  0  0  0
    7.1252   10.3279  -23.0830 H   0  0  0  0  0  0  0  0  0  0  0  0
    7.8036   10.8010  -21.4886 H   0  0  0  0  0  0  0  0  0  0  0  0
    8.2257    9.2101  -22.2080 H   0  0  0  0  0  0  0  0  0  0  0  0
    4.8723   10.7906  -22.2694 H   0  0  0  0  0  0  0  0  0  0  0  0
    4.2057    9.9663  -20.8193 H   0  0  0  0  0  0  0  0  0  0  0  0
    5.4727   11.2261  -20.6335 H   0  0  0  0  0  0  0  0  0  0  0  0
    5.4547    8.5432  -23.2728 H   0  0  0  0  0  0  0  0  0  0  0  0
    6.4741    7.3846  -22.3537 H   0  0  0  0  0  0  0  0  0  0  0  0
    4.7921    7.7204  -21.8200 H   0  0  0  0  0  0  0  0  0  0  0  0
    3.9679    2.2220  -20.9863 H   0  0  0  0  0  0  0  0  0  0  0  0
    3.3925    1.2878  -19.5640 H   0  0  0  0  0  0  0  0  0  0  0  0
    5.0607    6.9415  -16.0205 H   0  0  0  0  0  0  0  0  0  0  0  0
    3.8872    7.9847  -16.8930 H   0  0  0  0  0  0  0  0  0  0  0  0
    7.9240   -3.3705  -19.0337 H   0  0  0  0  0  0  0  0  0  0  0  0
    8.4810   -4.6833  -17.9415 H   0  0  0  0  0  0  0  0  0  0  0  0
    5.2100   -4.6811  -16.8863 H   0  0  0  0  0  0  0  0  0  0  0  0
    6.1616   -5.1049  -18.3497 H   0  0  0  0  0  0  0  0  0  0  0  0
    4.7689   -2.3923  -18.0802 H   0  0  0  0  0  0  0  0  0  0  0  0
    8.3729   -2.4135  -22.1417 H   0  0  0  0  0  0  0  0  0  0  0  0
    8.0545   -3.1237  -20.7062 H   0  0  0  0  0  0  0  0  0  0  0  0
    3.6450    6.2807  -18.5006 H   0  0  0  0  0  0  0  0  0  0  0  0
    3.1285    5.1938  -19.6005 H   0  0  0  0  0  0  0  0  0  0  0  0
  1  2  2  0  0  0  0
  1  3  1  0  0  0  0
  2  7  1  0  0  0  0
  3  8  2  0  0  0  0
  4  7  2  0  0  0  0
  4  8  1  0  0  0  0
  5  9  2  0  0  0  0
  5 11  1  0  0  0  0
  6  9  1  0  0  0  0
  6 12  2  0  0  0  0
  7 23  1  0  0  0  0
  8 27  1  0  0  0  0
  9 22  1  0  0  0  0
 10 11  2  0  0  0  0
 10 12  1  0  0  0  0
 10 29  1  0  0  0  0
 11 34  1  0  0  0  0
 12 36  1  0  0  0  0
 13 15  1  0  0  0  0
 13 40  1  0  0  0  0
 14 16  1  0  0  0  0
 14 40  1  0  0  0  0
 15 17  1  0  0  0  0
 15 22  1  0  0  0  0
 16 17  1  0  0  0  0
 16 30  1  0  0  0  0
 17 33  1  0  0  0  0
 18 24  1  0  0  0  0
 19 27  1  0  0  0  0
 20 27  1  0  0  0  0
 21 27  1  0  0  0  0
 23 30  1  0  0  0  0
 24 35  1  0  0  0  0
 25 26  1  0  0  0  0
 25 35  1  0  0  0  0
 26 28  1  0  0  0  0
 26 34  1  0  0  0  0
 28 37  1  0  0  0  0
 28 38  1  0  0  0  0
 28 39  1  0  0  0  0
 31 40  2  0  0  0  0
 32 40  2  0  0  0  0
  1 41  1  0  0  0  0
  2 42  1  0  0  0  0
  3 43  1  0  0  0  0
  4 44  1  0  0  0  0
  5 45  1  0  0  0  0
  6 46  1  0  0  0  0
 13 47  1  0  0  0  0
 13 48  1  0  0  0  0
 14 49  1  0  0  0  0
 14 50  1  0  0  0  0
 15 51  1  0  0  0  0
 16 52  1  0  0  0  0
 17 53  1  0  0  0  0
 18 54  1  0  0  0  0
 18 55  1  0  0  0  0
 18 56  1  0  0  0  0
 19 57  1  0  0  0  0
 19 58  1  0  0  0  0
 19 59  1  0  0  0  0
 20 60  1  0  0  0  0
 20 61  1  0  0  0  0
 20 62  1  0  0  0  0
 21 63  1  0  0  0  0
 21 64  1  0  0  0  0
 21 65  1  0  0  0  0
 22 66  1  0  0  0  0
 22 67  1  0  0  0  0
 23 68  1  0  0  0  0
 23 69  1  0  0  0  0
 24 70  1  0  0  0  0
 24 71  1  0  0  0  0
 25 72  1  0  0  0  0
 25 73  1  0  0  0  0
 26 74  1  0  0  0  0
 29 75  1  0  0  0  0
 29 76  1  0  0  0  0
 30 77  1  0  0  0  0
 33 78  1  0  0  0  0
M  END
> <OMEGA_C>
jncCQQdgA0HfnpHBb5PjQKow90CVKYvBhBr8QJWlC0FS3JvBGjewQCdABEHeNpnBSH+bQCt7Tr/n
KaDBG/rHQPTTLz8m4arB7he5QMFH+ECf7I7BaHvRQPFKDEGCyp/BqUOkQOh09j6kMKTBHATaQF0K
179skKnBvqu2QPCp8r9cvaLB7r/iQMSRyL6jka3B16iyQEHo5z87UY/BjfOwQMnJiUBLfoTBO5Oi
QORzJkBkOZnBO16fQCPUm0B6JI/BOjiGQL6Vc0DhrpXBUOESQS9aLcB5NovBhsHtQIpeH0FgvLDB
M4ajQCl1JkHvI6rB+z+2QBuDAkGfK7LBkQKJQAJn1D+zwaDBAB6VQHK85kBhEojBvu0BQUJIacDy
5I/BPUa5QBnYiMDF1I3BiTScQFxGV8Drq5TBe7HGQPIJFUElC6vB1lVfQLwNgMDhLZbBebv0QJJk
L8DsSKzB5pSBQIEvwEDEBo3BT3v2QGg9V0BT1o3BTYDaQHx6DUCICnrBv8dqQHq0jkCY8p7BYq2v
QIkkTMAjIZ/BwxDdQJ1hYcDnwonB5pACQUXWPL6J8LPBjJEuQL0kTsAIqZzBvxlnQAZyp8BrtZrB
Ha43QHa+g8BkjYzBVZLSQF1dOUDkNofByrwSQc8BA0Frt47Bv3/qQOJo6kDfUoPBE/wKQbyNEUFi
xaDBRquPQARWBEHIHpzBoe9/QJTodr9rGJvBocfOQGJH1j9G8a3BYh2XQNC6uT/zqIrBpwbGQBtN
dD+885HB16LDQJepokBYYIDB8SCWQAONf0B4v37BIna+QK1PP0CXmp3Bdmu6QAcup0BvAZTBqutX
QJURW0AfsJDB0MEhQf4JM8Bb3I/B1RMNQQ/n1b/ckovBa/0VQWb4PsD91YLBdAHkQDA/JUEVqrjB
17b5QLfQLEGQ6KvBTpwDQXRcE0H5qbHBOeqbQECmLEG4J7LBcpWGQCp2H0ECjqbBXCCvQAqeM0FR
EaXBjIyuQOqwCEGjLrrB+CvPQF1O7EBp1LLBKFmZQHkN90Buj67BlfJ9QLY0DkDs46fB9R5ZQI/W
pD8Vg5zB8/ChQNgg3kAGKoDBYsd4QOeC/0DtJIfBSJH9QG22V8D/RJjBOrIHQabdlcAgiI/BMrim
QGzLlcAXF4fBySvFQElbo8AZzJLBrJqYQHUbGcA1pJDBdfcFQWt2GsBBIrHBKd8AQQDrR8BmpqXB
wkdpQEH7yEA3AZTBnDlIQKgzpkC+zZzB+2kCQQ1tA0G8s5HBmIXjQN1b90DjN4vBJOX7QAe6C0Hk
7ZvB9AGwQP9mBEF5OZnBerObQAhETr83JKDBplHIQCV5Lz8M2arBdP64QNWF+EAi8o7B8DfRQFJz
DEGi0Z/B1pOkQK7u9j6IKaTBqiraQApg17/qi6nBhM62QIHA8r8euaLBPADjQCQ9yr6hi63Bxu6y
QDOP6D+wT4/B/PywQJDmiUBKdoTBwteiQHjCJkCyN5nBdnWfQIX3m0AIHY/Bv2mGQNTUc0BwrZXB
dqESQai1LMCpA4vBPIC2QEaRAkH4OLLB9kntQA7DH0HbtbDBQsCiQHZfJkG5MqrBKFeJQBjL1D+X
wKDBshqVQDXs5kCHEojBktUBQdvlaMDRyI/BuBa5QG3/iMAB5Y3B3OKbQFITWMBkw5TBJl/GQMQs
FUEoEqvBJ2RfQNv/gMDJb5bBasv0QG+tL8AwR6zBUp6BQFFLwED1AI3BxKD2QPraV0BWzI3BEKja
QEfHDUDKAHrBqEprQNTbjkDS8Z7BnrGvQPVHTMAsK5/B9o/cQLH/YMDLxonBybECQQgXQ76p67PB
DsMtQNezTsBhpZzBDHpoQAyNp8B8XZvBg+U3QMmmhsDa24zBIrnSQPnAOUB2MIfBOrQSQWgCA0HE
047BHoXqQBCS6kBzYoPBxdwKQe+YEUHA3KDB4m2PQM2BBEGNG5zBcCeAQJdQdr+JE5vBizbPQB4U
1j/Z5q3BjWOXQFASuj9pqorBuV/GQD8Gdj8a8pHBEpfDQAHJokBZU4DBViWWQESZf0BXuH7BVbi+
QMGzP0Dpl53BHIm6QIBep0DW9ZPBzz5YQPw1W0Bas5DBTaEhQf5dMsA9kI/BLc0MQd681L+nb4vB
V4gVQegcPsCdnILBesCuQO23CEGfPLrBiL7PQFe97EBj3rLBE7uZQPPG9kA/pK7BQYnjQAyeJUGQ
pLjBnNj4QHVBLUH22qvBmYYDQbroE0HXn7HBQCKbQBCJLEHUN7LBH+yFQEwwH0FApqbBhO6tQJCX
M0HeGqXBSMB+QJ9SDkD+5afB/rFZQPBspT9shJzBPAGiQKdj3kDgKoDB4KV4QNek/0B0JIfBC8r9
QPyLV8B0L5jBMKAHQTullcBqXI/B5oamQNsmlsDzLYfB2FbFQC1go8AH2pLBMbmXQJsfGsARt5DB
nwIGQazSGsDqH7HBbuMAQQtVSMCupaXBwkBpQAIEyUBm+5PBPahIQFtUpkCHzZzBKg8CQR5BBEGe
qpHBvvLiQDKr+EDMMYvBPxf7QGVrDEEz6pvB71qvQNSjBEFHQJnBAXqZQNAGP7/cR6HBXaTKQKSC
Nz/O36rBhnW4QGEw+UBB9I7BwnLQQAXYDEER15/B3yKlQN4cCj/xwqTBZnLZQDB11r80ranB1Lyz
QJPd7b9Up6PBO7fkQLY1x762V63BGRKzQFHG6T88oo/BXEuwQP2qiUAxc4TB4LmjQCgOKUCyfZnB
ooyfQMtWnEAfHI/BsPuGQFBbdUCg4ZXBXlcUQYEgY8C16ZHBOInsQFa1H0Gn3bDBLguiQJKXJkHS
ZKrBsJ61QGGJAkGmJ7LBup6KQMDW3T9LX6HB4MmUQDIx50DXEYjBfx0HQZzPVMDow4fBWJzGQB3+
KsBaSY3Bn4igQK8/S8BFXpTBk5XFQF9UFUEiJKvBWKiSQOmik8DeuZHBMkz0QLxzMMAiravBtYSB
QGqCwEDDA43BTav2QCtoWEC+iY3B51fZQONZDEAWEXrBoRNtQOsnkEAHHJ/BH5yqQOx3R8BQtp/B
BMTiQGPDbsCOw4nBRIcEQQEBU76NC7PBbtxbQPpGnMAbI5fBbSexQPlYsMCCwZTBai6LQHITl8Bj
DofBhTjSQD12OUCbLofB8FUSQZYTBEEuxI7B1wXqQEwa7EC1V4PBFWoKQfVqEkHo1qDBQ8yOQKSM
BEEwJpzBOqh4QDuZYr8OxpzByl7TQCPY2T8Uqq3BzDGXQIWluT9oLovBG8TGQNNqej/7TpLBkpzC
QI9NokDqJIDBFRWVQJmdfkCnAn/BYPG/QIvZQkDvpZ3B7vW6QLMBqEAPzJPBwQdZQP3aW0DGCJHB
vf0kQUB3T8Ajd5DBI+4TQROrk8DPFJTBH5sNQe3gPMAZfZjBL8HiQBtlJUGl07jBJj74QBJLLUH1
GKzBXxkDQeDIE0F1ubHB9H2aQFuMLEHddLLBHSqFQM+JH0E5zqbBCEStQNruM0HuYqXBdNWtQN93
CEFJNbrBz9POQGyc7EDhubLB2dqYQGz09kAsg67B+Q2CQBRkFED7gajBFJhaQBY2sD84bZ3B6tyh
QHSi3kAuL4DBJqx3QCm2/0AqGIfBRM4NQVcTe8D3LYHBQHsHQR+eEMBBloXB4HTZQIK0+b+A+ZHB
Xly5QGr3CsAwL4bBoBmFQDoAIcBmyJLB4awGQY4IHcB6BbDBQ6H+QOWvSMC7vKTBwxlpQHsvyUDS
/5PBNgpKQGpop0DY65zB

> <OMEGA_E>
QMvyPIAA5zxgheg9

> <OMEGA_NBR>
     13874

$$$$
50216811
  -OEChem-04172616093D

 71 73  0     1  0  0  0  0  0999 V2000
    8.1693    8.1969  -18.2259 C   0  0  0  0  0  0  0  0  0  0  0  0
    7.1289    7.7158  -17.4131 C   0  0  0  0  0  0  0  0  0  0  0  0
    7.8886    8.7186  -19.5027 C   0  0  0  0  0  0  0  0  0  0  0  0
    5.5157    8.2736  -19.1572 C   0  0  0  0  0  0  0  0  0  0  0  0
    4.8400   -0.8033  -20.0505 C   0  0  0  0  0  0  0  0  0  0  0  0
    6.2312    0.6964  -21.3794 C   0  0  0  0  0  0  0  0  0  0  0  0
    5.7985    7.7591  -17.8746 C   0  0  0  0  0  0  0  0  0  0  0  0
    6.5537    8.7721  -19.9845 C   0  0  0  0  0  0  0  0  0  0  0  0
    5.1146    0.4883  -20.5417 C   0  0  0  0  0  0  0  0  0  0  0  0
    6.8124   -1.6661  -21.2050 C   0  0  0  0  0  0  0  0  0  0  0  0
    5.6946   -1.8818  -20.3779 C   0  0  0  0  0  0  0  0  0  0  0  0
    7.0781   -0.3789  -21.7100 C   0  0  0  0  0  0  0  0  0  0  0  0
    5.5746    1.8084  -17.9248 C   0  0  0  0  0  0  0  0  0  0  0  0
    5.5292    4.3011  -16.5639 C   0  0  0  0  0  0  0  0  0  0  0  0
    5.0659    2.6020  -19.1579 C   0  0  2  0  0  0  0  0  0  0  0  0
    4.9778    4.8693  -17.8923 C   0  0  1  0  0  0  0  0  0  0  0  0
    4.1838    3.8080  -18.7060 C   0  0  1  0  0  0  0  0  0  0  0  0
    6.3209   -4.1180  -17.9130 C   0  0  0  0  0  0  0  0  0  0  0  0
    7.4350    9.9670  -22.1024 C   0  0  0  0  0  0  0  0  0  0  0  0
    5.1232   10.4256  -21.2649 C   0  0  0  0  0  0  0  0  0  0  0  0
    5.6860    8.1775  -22.2791 C   0  0  0  0  0  0  0  0  0  0  0  0
    4.2633    1.6633  -20.1005 C   0  0  0  0  0  0  0  0  0  0  0  0
    4.6771    7.2151  -17.0109 C   0  0  0  0  0  0  0  0  0  0  0  0
    5.1477   -3.3467  -18.5570 C   0  0  2  0  0  0  0  0  0  0  0  0
    6.2128    9.3281  -21.3868 C   0  0  0  0  0  0  0  0  0  0  0  0
    3.8167   -4.1205  -18.4785 C   0  0  0  0  0  0  0  0  0  0  0  0
    7.6658   -2.7250  -21.5032 N   0  0  0  0  0  0  0  0  0  0  0  0
    4.0558    6.0126  -17.6249 N   0  0  0  0  0  0  0  0  0  0  0  0
    7.6972    3.3568  -17.7402 O   0  0  0  0  0  0  0  0  0  0  0  0
    6.8263    2.2003  -15.6390 O   0  0  0  0  0  0  0  0  0  0  0  0
    3.6495    4.4648  -19.8582 O   0  0  0  0  0  0  0  0  0  0  0  0
    5.4442   -3.1677  -19.9581 O   0  0  0  0  0  0  0  0  0  0  0  0
    8.1562   -0.1688  -22.4999 F   0  0  0  0  0  0  0  0  0  0  0  0
    2.8198   -3.3494  -18.9902 F   0  0  0  0  0  0  0  0  0  0  0  0
    3.8932   -5.2668  -19.2083 F   0  0  0  0  0  0  0  0  0  0  0  0
    3.5250   -4.4241  -17.1887 F   0  0  0  0  0  0  0  0  0  0  0  0
    6.5762    2.8896  -16.9109 S   0  0  0  0  0  0  0  0  0  0  0  0
    9.1884    8.1662  -17.8695 H   0  0  0  0  0  0  0  0  0  0  0  0
    7.3490    7.3131  -16.4354 H   0  0  0  0  0  0  0  0  0  0  0  0
    8.6958    9.0816  -20.1217 H   0  0  0  0  0  0  0  0  0  0  0  0
    4.4962    8.2881  -19.5133 H   0  0  0  0  0  0  0  0  0  0  0  0
    3.9765   -0.9700  -19.4236 H   0  0  0  0  0  0  0  0  0  0  0  0
    6.4367    1.6830  -21.7679 H   0  0  0  0  0  0  0  0  0  0  0  0
    4.7166    1.4447  -17.3404 H   0  0  0  0  0  0  0  0  0  0  0  0
    6.1789    0.9527  -18.2603 H   0  0  0  0  0  0  0  0  0  0  0  0
    6.1161    5.0758  -16.0487 H   0  0  0  0  0  0  0  0  0  0  0  0
    4.6919    3.9884  -15.9227 H   0  0  0  0  0  0  0  0  0  0  0  0
    5.9352    2.9918  -19.7078 H   0  0  0  0  0  0  0  0  0  0  0  0
    5.8232    5.2181  -18.5035 H   0  0  0  0  0  0  0  0  0  0  0  0
    3.3679    3.4245  -18.0758 H   0  0  0  0  0  0  0  0  0  0  0  0
    7.2419   -3.5225  -17.9969 H   0  0  0  0  0  0  0  0  0  0  0  0
    6.0993   -4.3028  -16.8515 H   0  0  0  0  0  0  0  0  0  0  0  0
    6.4569   -5.0784  -18.4318 H   0  0  0  0  0  0  0  0  0  0  0  0
    7.1278   10.3415  -23.0899 H   0  0  0  0  0  0  0  0  0  0  0  0
    7.8191   10.8013  -21.4972 H   0  0  0  0  0  0  0  0  0  0  0  0
    8.2238    9.2104  -22.2264 H   0  0  0  0  0  0  0  0  0  0  0  0
    4.8839   10.8181  -22.2642 H   0  0  0  0  0  0  0  0  0  0  0  0
    4.2173    9.9943  -20.8140 H   0  0  0  0  0  0  0  0  0  0  0  0
    5.4955   11.2428  -20.6296 H   0  0  0  0  0  0  0  0  0  0  0  0
    5.4424    8.5693  -23.2777 H   0  0  0  0  0  0  0  0  0  0  0  0
    6.4590    7.4000  -22.3690 H   0  0  0  0  0  0  0  0  0  0  0  0
    4.7824    7.7453  -21.8245 H   0  0  0  0  0  0  0  0  0  0  0  0
    3.9434    2.2302  -20.9873 H   0  0  0  0  0  0  0  0  0  0  0  0
    3.3780    1.2872  -19.5668 H   0  0  0  0  0  0  0  0  0  0  0  0
    5.0833    6.9445  -16.0252 H   0  0  0  0  0  0  0  0  0  0  0  0
    3.9087    7.9929  -16.8899 H   0  0  0  0  0  0  0  0  0  0  0  0
    5.0337   -2.3741  -18.0561 H   0  0  0  0  0  0  0  0  0  0  0  0
    8.4026   -2.4028  -22.0975 H   0  0  0  0  0  0  0  0  0  0  0  0
    8.0550   -3.0879  -20.6565 H   0  0  0  0  0  0  0  0  0  0  0  0
    3.6486    6.2884  -18.4956 H   0  0  0  0  0  0  0  0  0  0  0  0
    3.1124    5.1989  -19.5842 H   0  0  0  0  0  0  0  0  0  0  0  0
  1  2  2  0  0  0  0
  1  3  1  0  0  0  0
  2  7  1  0  0  0  0
  3  8  2  0  0  0  0
  4  7  2  0  0  0  0
  4  8  1  0  0  0  0
  5  9  2  0  0  0  0
  5 11  1  0  0  0  0
  6  9  1  0  0  0  0
  6 12  2  0  0  0  0
  7 23  1  0  0  0  0
  8 25  1  0  0  0  0
  9 22  1  0  0  0  0
 10 11  2  0  0  0  0
 10 12  1  0  0  0  0
 10 27  1  0  0  0  0
 11 32  1  0  0  0  0
 12 33  1  0  0  0  0
 13 15  1  0  0  0  0
 13 37  1  0  0  0  0
 14 16  1  0  0  0  0
 14 37  1  0  0  0  0
 15 17  1  0  0  0  0
 15 22  1  0  0  0  0
 16 17  1  0  0  0  0
 16 28  1  0  0  0  0
 17 31  1  0  0  0  0
 18 24  1  0  0  0  0
 19 25  1  0  0  0  0
 20 25  1  0  0  0  0
 21 25  1  0  0  0  0
 23 28  1  0  0  0  0
 24 26  1  0  0  0  0
 24 32  1  0  0  0  0
 26 34  1  0  0  0  0
 26 35  1  0  0  0  0
 26 36  1  0  0  0  0
 29 37  2  0  0  0  0
 30 37  2  0  0  0  0
  1 38  1  0  0  0  0
  2 39  1  0  0  0  0
  3 40  1  0  0  0  0
  4 41  1  0  0  0  0
  5 42  1  0  0  0  0
  6 43  1  0  0  0  0
 13 44  1  0  0  0  0
 13 45  1  0  0  0  0
 14 46  1  0  0  0  0
 14 47  1  0  0  0  0
 15 48  1  0  0  0  0
 16 49  1  0  0  0  0
 17 50  1  0  0  0  0
 18 51  1  0  0  0  0
 18 52  1  0  0  0  0
 18 53  1  0  0  0  0
 19 54  1  0  0  0  0
 19 55  1  0  0  0  0
 19 56  1  0  0  0  0
 20 57  1  0  0  0  0
 20 58  1  0  0  0  0
 20 59  1  0  0  0  0
 21 60  1  0  0  0  0
 21 61  1  0  0  0  0
 21 62  1  0  0  0  0
 22 63  1  0  0  0  0
 22 64  1  0  0  0  0
 23 65  1  0  0  0  0
 23 66  1  0  0  0  0
 24 67  1  0  0  0  0
 27 68  1  0  0  0  0
 27 69  1  0  0  0  0
 28 70  1  0  0  0  0
 31 71  1  0  0  0  0
M  END
> <OMEGA_C>
d7UCQW0mA0GnzpHBTiDkQHTn9kD+TYvBn2/8QIh/C0GRBZzBy4CwQNxgBEHaQZnBVuGaQLujTb9i
Z6DBX2bHQIdIMj8UCavBeo25QMVK+EA4/47B8bfRQGNaDEE74J/B3aqjQFwD+j5+VaTBLv/ZQGpB
1b/Ro6nBQDq2QJHf8L/tBaPB/H/iQP78wb4trq3BAWOyQNN55z8GZo/B9e6wQKeiiUDqgoTBKhyi
QN+HJkBRQ5nBX0qfQC3Rm0BsI4/BneGFQAO3c0D6pZXB9kTKQMjGg8DTTY/BW+vtQL54H0Gg0bDB
A/GjQG7PJkF9HqrBn/O1QAXXAkGrO7LBkWyIQPPn1D/czaDBiaqVQNzh5kBhFojBIbqkQBMxVsC9
dJTBI8/GQARAFUEkGKvBuUR0QNbag8Dh05PB4k31QPhmLsCNBqzBC8mBQANnwEDO/4zBlE/2QN3V
VkD0643B/nDaQPDRDEBtOXrBFJFpQFzfjkCX3Z7B2zauQO+7SsA4qp/BwX8CQdPXLL61/7PBAHg0
QLRcVsD465fBFSp5QJuJqMCnqpnBIplhQOeRjcCOgonBAnDSQHzvOECgSYfBfAMTQdOoAkHN9I7B
CSvrQK8E6kC+e4PB8iELQW9OEUEy+aDBEOGPQCScBEEqG5zBdX9+QKpPeL92Y5vBl/nNQKNr1z+g
JK7B++2WQOXruD85uYrBQrnFQMLicz8vFZLB2rbDQMZsokDKY4DB1yOWQHVBf0B8w37BZO29QMN5
P0CRqZ3Bxle6QPj6pkBDB5TBFItXQLUrW0BEm5DB873nQPVvYcCd+Y/Bvy3DQMiwicDpz4bBGJ/O
QFKCosBRdJPBqhbkQOF2JUE2uLjBSTb6QFLSLEEw+qvBkpQDQcZdE0Guz7HBDUmcQA8XLUErHbLB
DfSGQKfoH0ECg6bBL9uvQK3iM0F7CaXB3yeuQN4bCUG7OLrBw6/OQBLN7EC387LBMwmZQMPZ90CI
mK7BBWB8QH67DkDv5afBbDFYQD3CpD/IiJzBfqqiQA453kCHM4DBISh6QJHF/0CMHofB2xOhQIbw
F8D3cpDBM3EGQf/GGcCcx7DBa+EAQaOfRcCdQKXByIJpQHA6yUAD95PB+jFHQKBdpkBwrJzB0vcC
QTB7A0HRmZHBSULkQHqb90DgNYvBwYP9QMzsC0FC1JvBKWexQIT7BEGgSpnB4h+cQEzwb7+L2p7B
rgnEQHjJJT/w76nBtd+5QFw2+UCzCY/B0vnSQNHoDEG/zJ/BuwKiQPjqwT5K2qLBbufZQIAI2L+A
OKnB44W4QJzM/L9o9qHBrQLgQDO8wb7dDa3Bd/iwQCga6T+GY47BArawQHini0AXdoTBdB6gQH0A
I0AKfJjBxtKeQOdtnEAVNo/BiNuEQLg7c0BxYZXBxQuaQCydXcC9vYzB4Qi3QO20A0GcLrLBTBLw
QJ3JH0EjtrDBfE+mQB3OJ0H0CqrBJKOFQAT9wz9pOJ/B/nOVQF/z50BVSojBD9y8QGrRdMAu9pTB
iojIQOPuFUFtBKvB0STrQDMSX8B+xJDBo030QLBcLcC84KzBwqWBQIGKwUCOTY3Bly/1QG4OV0Al
243B4V7aQNY7E0B5DHnBe1FpQLE9jUBz457BuaSwQPONU8Ajgp/BFkUAQTi31b2m2rPB/6MEQeKZ
csCKMpjBP6zvQLaWC8DI4Y3BuXXzQK4SiMCZBojBq8bRQGP2O0Dn4obBbjMTQZvmAkE0p47B7tvq
QPGY6kDAYIPB7s8LQd6zEUFzsqDBw+eQQBxdBUGuOZzBsAmCQGkRk78KcpnBAJnIQAz70j8T+6zB
58aVQNl3vz+qcYnBrObDQBSicT+hy5DBZcjDQDjlpEBcmoDB8QWWQKCRgkBDYn7BS6G7QDliOECU
R53BEcO5QA+0pkB+QpTBgHxUQFIOXkAHRJDB6cJ0QHLcbcASAZDBcnqfQMLjgMBzUIXBL2mbQOyc
GMB6B4vB8pGvQJ4SCkHTK7rBt0nPQMQP7kDD5LLB9NCZQEQh+kCqka7BIIzmQOfjJUFZnbjB0tP8
QMIBLUHy2qvBQ20EQddxE0EbsrHBYPWeQAYwLkH/CLLBkgqJQPAnIUF5dabBVaiyQFa/NEGy8KTB
qt5wQKKsAkALSKbBAZVWQFtzkT8sUJrBy+GhQCst30DTWoDBz+B5QNR7AEEvaofBEwe8QLyAncCy
nJXBdgQFQUZFFcBQ67HB+JgBQQGTSMDeqqbB1QNrQKNpykBjXZTBmitIQGuepUAECJ3BjwEDQSOV
A0GbmpHByVHkQHHD90BvOYvBNKT9QIzvC0Gw2pvB/IuxQB/gBEG4WZnB67abQIqkcL/k757BxsnD
QL8fJz/p6KnBzPa5QHMs+UCrE4/BWyTTQCPIDEHq25/BhLahQKQrwj442qLBrsnZQHo4179wPKnB
oja4QKjN/L/CDKLBh9ffQOGLvb5HCa3B4CqxQEYF6T/tZI7BA52wQASWi0ASa4TBzAugQGLzIkDI
dpjBccqeQEpZnEA3LI/B5suEQGcVc0DTVJXBSu6YQH8fXsBx9IzBXEbwQHZnH0Gx17DB6nimQDp5
J0HUNqrB71C3QP9AA0FYNbLBQmeFQB3Twz+IKp/BwIaVQEX450CnUYjB7hC8QLs2dcCbF5XB4r7I
QDKdFUGHHavB+SrqQG+wX8Dcw5DBo4L0QBuhLMDx1azBuKqBQEOAwUDvSY3Brjf1QPqaV0Clz43B
KnHaQKk4E0DIBHnBGQdpQPYsjUDj057BOFywQLCyU8BCqZ/Brz4AQdR3ub1GybPBvU0EQXEcc8Cu
HpjBpqXuQE9KDMCV1Y3BlwzyQM2HiMCPBojBOdPRQIkVPECk3IbBPzkTQQsXA0GZoY7BlePqQBnd
6kD8YIPBeuALQVS/EUEStqDBFBKRQI40BUH2TJzByHeBQBwGlL/qlpnB51HIQGjW0z/A7KzBPBaW
QKZdvj/ZcYnBrUPEQLvGcj9R1pDBb5PDQB/bpEDAiYDBFumVQOVggkB4VX7B9G27QJ9hOEAYTZ3B
D8O5QCKMpkBLOJTBsXdUQHTVXUBRNJDBBclyQGQzbsCETpDBPweeQLM+gcBJh4XBR0WaQFMrGcBT
NovBMcLmQB1eJUHXxbjBXPn8QLS2LEH4CazBi4wEQXoQE0EuxbHB5CCfQGm7LUFBO7LB1zWJQFbb
IEGWnKbBAcSyQPx/NEE/KKXBQ+GvQJ16CUETOrrB/5jPQAAo7UCc27LBmxeaQOhR+UCCk67BIf5v
QOOdAkCJM6bBJWdWQJsakT/cN5rBbPahQChL30CaYIDB0wt6QOqAAEEpdofBOzi7QDmxncD+xJXB
pisFQb9FFMCC1LHBlKIBQdeoR8Dgl6bB8fxqQAVHykDEWpTBP99HQGqJpUCD9ZzBqsICQQirAkEn
4JHBKSbkQNp39kCLUovBTY38QBMUC0E/FJzBb4CwQJR5BEFPN5nBEfmaQGTRTr+fO6DBd7nGQKIE
Mz+0AKvBPYm5QHFf+EAW+I7BlsTRQMZHDEFn3Z/BokijQK7/9z5VOqTBzcDZQGB21L8QqanBPnO2
QGo18b+n5aLBuuDhQHTdvb5Ot63B6NWxQMqY5z/DRo/B4/ewQD3diUCkgYTB38OhQKVGJkDHLpnB
QkufQA7xm0CvJI/BMMaFQG34c0D+opXBsT7EQKV9hsA1uI7Bfem2QJOTAkERRbLBa9rtQH6xH0HM
uLDBTFSjQH9ZJkH6NKrB4/OHQIkD1D9HrKDBMJyVQIwB50DZEojB0vmhQCuoVsAJeZTB5eTGQMAd
FUGqGKvB8LtrQImRgcAvrJTBGhb1QPekLcCJLKzBrsmBQOuKwEAmA43ByhH2QKwYVkBD7I3BfSva
QJUrDUD2FHrBRe9pQIHsjkAk5p7BEX2vQDdXS8AGb5/BFQoCQXWBHb4LH7TBnkcyQE+VUMB02pnB
qulwQBuTp8Ca8pnBycdPQFNniMDsiYrByS/SQOztOEC/PYfB4BYTQS3tAUG8Eo/BECnrQAyY6UCN
f4PBaTgLQfmqEEH3EqHB39aPQHfhBEFJCJzBbDl/QIxHer/aIZvBRwjNQEf71z88Ha7BZ0qWQGOO
uj9rk4rBLe7EQG4pcj9A6ZHBmO7DQEWiokAQboDBiy2WQFkcgEDSsH7B06y9QOCiPkC7mJ3BElO6
QD8Pp0AaDJTBFQBXQOH8W0Ajm5DBUPriQJqpasA4yo7BhUu6QF8vjMA7ZobB/97HQG5RpcCg3pLB
dyKvQIrJCEFSRbrB7BrQQAC47EA28rLBUiOaQGbN9kBjsK7BChvkQB2iJUGVo7jB4IL5QGsgLUEN
16vBH8UDQT3PE0ENq7HBKsKbQLuPLEFZOLLBaXaGQOcsH0EqrKbBWYyuQPKHM0E5GKXBYPF6QN8k
DkCJwafB/o1XQDCLoz/PWpzBBYuiQO1S3kCjLoDBuwt6QM7m/0BIHYfBgQKfQJBuGMCabJDBcCUG
QQeuGMDgBLHBnQYBQVbTRMBgdaXBK69pQDloyUAV/JPB49RHQNuVpkBRwZzBRdEDQR5tAkGfO5PB
FcXnQIE29UA4UozBv2/8QCgPC0HFQZ3BITqxQGb8A0HseZnBo1+eQKasN7+FZ5/B7ZvCQFNsMT84
aqzBfXW8QKH09kBnbI/BWOrQQNQEDEFSgaDBGwuiQDbHAj8+zqTBwifaQCfozr+Ks6nBcoG7QIz2
4b+8QqHBiPbdQLC5vr5rAK/BCWmvQGd13z+Vk4/BdnSuQFWShkDSTITBW2WhQCQUJUBZeJnBBTWg
QKk6mkBVEY/B8kiGQDvyc0Aq95XBAIrDQBWbnsAXdpLBB1jpQOq1HkFU57HBrXGiQMqWJ0FvtanB
tXauQGJzA0FySbLBKz2HQHcQ2D+XRqHB29yZQCmk5UASIYjBKbvZQGubb8A8opfBiErDQBZQFUFV
cqvBqgz8QDLbSsCkrI/BET/0QAqOKcDPRa3BOleEQJgQwEA1C43BrcD0QF+/S0BTnozBzzfSQBSZ
AUD7MXnBCJ1uQNkukEAAPp/BXSK2QAP7NsCcd5rBiXX8QFeMQb6xjrbBmCIGQWKv/L9Z4JLBOH7r
QLu8QcB6q4XBopoOQQKSgcCtIo/BMl/OQL5TMEAsvobB4WkUQXvPAUGY2JDB9njwQMHk50C1poTB
MJIKQdH/EEGmhKLBQAKQQLxiBEEY2pvB/7iEQD36W7/1uZnBRZjGQOZm0z/wRLDBUdOSQGDLsD+H
WYvB9bvCQKqVYz/KPpLBjVbBQAU1nkBAmn/BWA2SQMgQe0DbPH/BjTS+QFcNPEC+oZ3BY8O8QNow
pED1kZPBBABWQAzyXEDzNJHBj3qrQJKVq8A/AZjBYX7bQDBkt8CFrZDB38mzQImTlMBjAIvBNZzd
QDQKJUG0krnBVVj4QG2xK0GHS63BcIYAQaoOEkGdarPBN8eYQOQvLkE3gLHBliSGQIhAIUFhi6XB
QhyxQMJKNEFa2KTBmcKkQPUNCkErE7rB2azFQB3q7EAaibPBKiuSQHZO+kDpGq7B8vF7QOT0EUCK
UajBHqJUQP5IqT87M53B8VuoQO7u20B2fIDB+/+BQFTb/kARrYbBz0DqQFRwgsBh757BE34DQV1D
FMCxL7PBhjoDQfVhPsBKO6fBQ/JvQNpZyUAiDJTBmY5NQEo5qEAcG53B0y8DQX5JA0EPL5PBSNrm
QKyA9kAbPYzBYrv6QAb1C0EZK53BRNevQMtKBEFvVZnBwv6eQCYHNL/JkZ/BSrPEQPlFLT/BhqzB
dH67QA+W90AgT4/BXBnPQBP4DEH6TaDB5rijQJ42BT+m+qTBch3aQOmY07/wzqnBUk27QCzQ4r/I
Z6HBZkHfQOLK0r5vE6/BVj2wQKFy4D+Js4/B+lmuQGhvhkD0RYTBpNGiQCMLJkD5mpnBApGgQPhk
mkDUCo/Bck+HQGd8dEAxH5bBekfDQCnumcA8nZDB3k+6QHEpA0EKIrPBjv3jQEwaJUGMLrDBTKGX
QH4rI0EyXarByjiJQMEQ2z+QlaHBVkWZQDKK5UDwBIjBmO7YQCy1bsD9iJfB4p/BQLH9FUFWU6vB
Epj+QGfNRMB7/pDBYGzzQIfBLcC4NK3B9DyEQIvav0AAAY3BAC/1QIbkTEAzd4zBVjnSQLVeAUC3
NXnBnZdxQOO4kECZZ5/Bjla1QH8JN8BaoprBDGL+QFaAgL4ngLbBN5QIQX/eAcAsJJbB+PzwQG9N
KcDxP4fB78gOQUZlgMDcc4/B8qXOQL2gMEC/t4bB+dETQYDPAkHF2pDBUtrvQL1c6UAmkoTB/ZwJ
QePkEUHmfaLBBqWOQCcxBEGCvJvBuC6FQIgSU78o6JnB/57JQLry0D84XLDBp2qTQKVWsT+/mIvB
wr7DQCsjZj9SVZLBTtzAQNICnkCCUX/BycGRQDQiekDsaX/B+9u/QP2DPUDjnp3BVUi9QH/SpEDL
aZPBg4xXQAzfXECpgJHBKvGoQGWvqMDHI5XBh+TaQOaXssDBeY7BL4y2QLozi8BcSInB27WwQHFs
CUHE/7rBuxvYQMfg80AM9rPBTOqgQENv8UBd/q/BROHYQBgOK0HL+7fBcFDpQAGzMkE8warBew8B
QTVBHEFpPrHBcKmOQIBrKUFxR7LBdsB7QJXUGEE6UqfB0J6cQLuWMEHqzqTBE/KAQFG+E0AArqjB
RHZXQLHhrT+Csp3B9gSoQKfD20ByaYDBjRKBQIpb/kC4fIbBI43mQD2vhsAFsJ7B4koDQTM7GsBM
IbPBpZkCQcnBQsAIGKfBFchvQJElyUBaApTBDhNQQLKdqEAWR53B6z0DQXXdAUH0lZLBI1XmQEhj
9EAFuYvBta77QHpzCkGqpJzBNVGwQOlzA0EuCZnBcTGbQFqwEr9O1KDBlXfDQNkkOj9x3q3BgyW7
QA4c9kAa7Y7BuEbQQO25C0G38Z/B+YehQEHvHj+0dqbBqEXYQLR2yb/18qnBlde3QJr10L8CF6LB
DC7eQGUBxL5I0q/BZyCyQALh4T8ADJHB1DOwQLwghUCIyYTB3eyiQIXlKUB2jprB4jugQMwPmkAN
Po/By76GQNW8dEBwV5bB67RsQH0RacCIrJfBRdC9QEeBAUF/4LLBG47mQACyI0F5wK/BvpiZQF2A
IUHSgqrBgPaIQLpa6z/B9KLB92iYQLpR5EB3uIfBouSlQG/GcMCGAZvBHOXDQHR+FEHcGKvBHea+
QHDclsAjopPBdCH0QAZUKcAFYKvBFmWDQAyqvkAJtYzB8ab2QGtKT0A1z43Ba17WQJzp+z8GHnzB
sotrQCrTkUB7M5/BOwS7QNZ8IMAsx5nBQ1D/QAzPiL7hvLbBf1/oQN6rmMCn9JbBqU2+QJcViMDE
YYnBGXytQE6NvsBT95PB3hDRQC/jL0BU7IfBVMwTQd8rAUHNIpDBb7juQOFM50CNAYTB+FMKQY4f
EEE45qHBjUGPQEyWA0FEjZvBzyaAQFeVLL+jgpvBCvfIQJMr1D/ZCLLBoxOWQBNirT8Q3YzBFt3F
QHNtcD8vIJTBkfrCQNCInEDSL4DBj5eUQOIwdUCFAYDB+Ua/QKgKRUBlhJ7BNAi8QC+xpUB/ypPB
VxVZQD6TWUDFi5HB+YZLQMwFPcD4JJ3BXEhOQNA9lMA1DZjBlbdoQDg8UMBpdI/BVP+0QLiYB0Fa
1brBm9vbQOLQ8ECkdLPBn0KkQIn87UBI4K/BkEjcQO55KUEvqLfB/vfqQPllMUE/V6rBM3sCQX/5
GkEmjbDBn3aRQD+PJ0HohLLBKld/QKwbF0HTm6fB6rKdQDsML0G7/KTBypiCQAxbHkCz9anBWuRU
QEvXwj8FYJ/BebumQOWd2kB/DoDBvEWAQKxL/UARS4bB/d+nQLrXg8DqT6PBM2sEQd2mG8DcOrHB
/RMCQUYJNMDGlKTBsXJrQAhNyEACh5PB8x5JQJmuqEBLopzBJ/gDQeF3AkFJ8pPBl2fpQIX39ECZ
sozBd8D6QF56C0Gou53BxnawQK8cBEHkIZnBk1SbQDYZQr9H/Z/B/p3BQMDuKD9+razBp429QLKo
9kC6UI/B5qDOQDH5DEGaUKDBj1KgQG2n+T4HL6XBDPjWQMYE1b9NSqrBBe22QELu6r86gaLB2sHc
QKfS1L4QQK/BqaqtQBwV3j+7yo/BAV2uQDqphUAQaITB2rGgQFLgJEDvtpnBo4CgQP0omkBUGI/B
CWmGQPSJdUCCQZbBEltZQAeOX8Ai0ZzBuYe/QDA0BUHxpLPB+83dQCNCKUHTla7BcRySQNSaIEFh
CarB7GCGQMeD2D/9kaHBVfGbQCoL5UAey4fBbwqbQHSQdcAVQZnBf72/QFbZFkGo/arBYl2eQNQm
gMB/DI3B9VjzQCAmLcDHaazB1FCFQN03wECPy4zBo8rzQF1ZSUD0Bo3BKdbRQDiz/j9z1HnBFnly
QPbukUBdj5/BPuy8QEg/OcD8qJvBtwn+QMjNZ77FALbBnpDHQObxicDeYorBCXSTQE6FNcC3KYjB
ZlmEQI8doMBGq4nBBaLNQLddLkAxB4fBWMkUQUqvAUHI/5HBsYbzQB5350BTKIXBiDQJQflLEUGk
UaPBJe6OQOMYBEHoOJvBNmuCQKRjY7+EF5rBT0rGQGFnzz/Gc7DBgq+QQNi9sz9UjovByRXAQPgx
Wz/nZpLB+nzBQDLCnECtmH/Bns2RQIVSeUC8j3/Bne+9QDluOkBZzp3BG0O9QAs4pECEgJPBqYBU
QJXmX0CNuJHBM1tXQCJuWMB0kaXB4uEtQPWticBBX5rBWi5FQJtLI8CdB5nB4vS0QAMLDEFLT7vB
KADgQBBM/UAdirTByXypQFWy8EDAPrHBQk3SQLPtL0FDNLbBuv3dQKXhNUEEdKjBRHH+QB0EI0H1
pK/BN5WIQL56J0GHx7HB8Jx2QAwBFEE7v6fBgSqSQPk6LUHb56PBgBV7QFydEkBlnKjBfWZSQIXW
qz9EhJ3Be3erQD5X2kDOXIDBCJ2EQLZX/kCX8YXBUEajQIbEmcAL45zBefcDQfUPG8ADG7LBPrwB
QfTNO8AHwKXBP0txQEs6ykDCs5PBmpFSQA5pqkC6dZ3B

> <OMEGA_E>
uCshPuCZgT7s44E+sBIePsABuz4MOLk+UBC1PoiIoz4=

> <OMEGA_NBR>
     23097

$$$$
50216813
  -OEChem-04172616093D

 68 70  0     1  0  0  0  0  0999 V2000
    8.1770    8.2177  -18.1606 C   0  0  0  0  0  0  0  0  0  0  0  0
    7.1260    7.7222  -17.3696 C   0  0  0  0  0  0  0  0  0  0  0  0
    7.9126    8.7628  -19.4314 C   0  0  0  0  0  0  0  0  0  0  0  0
    5.5355    8.3139  -19.1225 C   0  0  0  0  0  0  0  0  0  0  0  0
    4.8704   -0.8649  -19.9158 C   0  0  0  0  0  0  0  0  0  0  0  0
    6.0883    0.6361  -21.4089 C   0  0  0  0  0  0  0  0  0  0  0  0
    5.8015    7.7739  -17.8479 C   0  0  0  0  0  0  0  0  0  0  0  0
    6.5835    8.8247  -19.9283 C   0  0  0  0  0  0  0  0  0  0  0  0
    5.0448    0.4173  -20.4882 C   0  0  0  0  0  0  0  0  0  0  0  0
    6.7552   -1.7018  -21.2247 C   0  0  0  0  0  0  0  0  0  0  0  0
    5.7360   -1.9357  -20.2769 C   0  0  0  0  0  0  0  0  0  0  0  0
    6.9426   -0.4180  -21.7729 C   0  0  0  0  0  0  0  0  0  0  0  0
    5.5364    1.8058  -17.9012 C   0  0  0  0  0  0  0  0  0  0  0  0
    5.5144    4.3164  -16.5852 C   0  0  0  0  0  0  0  0  0  0  0  0
    5.0204    2.5678  -19.1478 C   0  0  2  0  0  0  0  0  0  0  0  0
    4.9658    4.8736  -17.9192 C   0  0  1  0  0  0  0  0  0  0  0  0
    4.1623    3.8054  -18.7231 C   0  0  1  0  0  0  0  0  0  0  0  0
    7.4891   10.0401  -22.0234 C   0  0  0  0  0  0  0  0  0  0  0  0
    5.1756   10.5064  -21.1931 C   0  0  0  0  0  0  0  0  0  0  0  0
    5.7257    8.2685  -22.2361 C   0  0  0  0  0  0  0  0  0  0  0  0
    4.1914    1.5927  -20.0345 C   0  0  0  0  0  0  0  0  0  0  0  0
    4.6661    7.2160  -17.0124 C   0  0  0  0  0  0  0  0  0  0  0  0
    5.0075   -3.4193  -18.4748 C   0  0  0  0  0  0  0  0  0  0  0  0
    6.2571    9.4023  -21.3246 C   0  0  0  0  0  0  0  0  0  0  0  0
    3.6005   -4.0008  -18.6917 C   0  0  0  0  0  0  0  0  0  0  0  0
    7.6091   -2.7383  -21.5921 N   0  0  0  0  0  0  0  0  0  0  0  0
    4.0501    6.0249  -17.6583 N   0  0  0  0  0  0  0  0  0  0  0  0
    7.6662    3.3461  -17.7645 O   0  0  0  0  0  0  0  0  0  0  0  0
    6.8063    2.2261  -15.6378 O   0  0  0  0  0  0  0  0  0  0  0  0
    3.6510    4.4500  -19.8923 O   0  0  0  0  0  0  0  0  0  0  0  0
    5.6649   -3.2222  -19.7484 O   0  0  0  0  0  0  0  0  0  0  0  0
    7.9654   -0.1852  -22.6276 F   0  0  0  0  0  0  0  0  0  0  0  0
    2.8086   -3.1172  -19.3512 F   0  0  0  0  0  0  0  0  0  0  0  0
    3.0473   -4.2850  -17.4860 F   0  0  0  0  0  0  0  0  0  0  0  0
    3.6867   -5.1413  -19.4270 F   0  0  0  0  0  0  0  0  0  0  0  0
    6.5505    2.8975  -16.9181 S   0  0  0  0  0  0  0  0  0  0  0  0
    9.1915    8.1801  -17.7919 H   0  0  0  0  0  0  0  0  0  0  0  0
    7.3333    7.3023  -16.3964 H   0  0  0  0  0  0  0  0  0  0  0  0
    8.7273    9.1370  -20.0335 H   0  0  0  0  0  0  0  0  0  0  0  0
    4.5202    8.3387  -19.4897 H   0  0  0  0  0  0  0  0  0  0  0  0
    4.0774   -1.0318  -19.2020 H   0  0  0  0  0  0  0  0  0  0  0  0
    6.2320    1.6174  -21.8364 H   0  0  0  0  0  0  0  0  0  0  0  0
    4.6811    1.4603  -17.3019 H   0  0  0  0  0  0  0  0  0  0  0  0
    6.1335    0.9393  -18.2216 H   0  0  0  0  0  0  0  0  0  0  0  0
    6.1065    5.0928  -16.0786 H   0  0  0  0  0  0  0  0  0  0  0  0
    4.6758    4.0155  -15.9401 H   0  0  0  0  0  0  0  0  0  0  0  0
    5.8846    2.9231  -19.7282 H   0  0  0  0  0  0  0  0  0  0  0  0
    5.8120    5.2119  -18.5352 H   0  0  0  0  0  0  0  0  0  0  0  0
    3.3326    3.4505  -18.0941 H   0  0  0  0  0  0  0  0  0  0  0  0
    7.1915   10.4305  -23.0078 H   0  0  0  0  0  0  0  0  0  0  0  0
    7.8762   10.8630  -21.4046 H   0  0  0  0  0  0  0  0  0  0  0  0
    8.2723    9.2786  -22.1525 H   0  0  0  0  0  0  0  0  0  0  0  0
    4.9455   10.9153  -22.1880 H   0  0  0  0  0  0  0  0  0  0  0  0
    4.2637   10.0757  -20.7539 H   0  0  0  0  0  0  0  0  0  0  0  0
    5.5505   11.3112  -20.5437 H   0  0  0  0  0  0  0  0  0  0  0  0
    5.4924    8.6760  -23.2308 H   0  0  0  0  0  0  0  0  0  0  0  0
    6.4922    7.4852  -22.3314 H   0  0  0  0  0  0  0  0  0  0  0  0
    4.8152    7.8386  -21.7932 H   0  0  0  0  0  0  0  0  0  0  0  0
    3.8234    2.1338  -20.9186 H   0  0  0  0  0  0  0  0  0  0  0  0
    3.3370    1.2151  -19.4537 H   0  0  0  0  0  0  0  0  0  0  0  0
    5.0568    6.9261  -16.0258 H   0  0  0  0  0  0  0  0  0  0  0  0
    3.8977    7.9933  -16.8884 H   0  0  0  0  0  0  0  0  0  0  0  0
    4.9259   -2.4538  -17.9540 H   0  0  0  0  0  0  0  0  0  0  0  0
    5.5993   -4.1166  -17.8637 H   0  0  0  0  0  0  0  0  0  0  0  0
    8.2673   -2.4052  -22.2672 H   0  0  0  0  0  0  0  0  0  0  0  0
    8.0981   -3.0692  -20.7850 H   0  0  0  0  0  0  0  0  0  0  0  0
    3.6674    6.3161  -18.5350 H   0  0  0  0  0  0  0  0  0  0  0  0
    3.1295    5.2019  -19.6374 H   0  0  0  0  0  0  0  0  0  0  0  0
  1  2  1  0  0  0  0
  1  3  2  0  0  0  0
  2  7  2  0  0  0  0
  3  8  1  0  0  0  0
  4  7  1  0  0  0  0
  4  8  2  0  0  0  0
  5  9  1  0  0  0  0
  5 11  2  0  0  0  0
  6  9  2  0  0  0  0
  6 12  1  0  0  0  0
  7 22  1  0  0  0  0
  8 24  1  0  0  0  0
  9 21  1  0  0  0  0
 10 11  1  0  0  0  0
 10 12  2  0  0  0  0
 10 26  1  0  0  0  0
 11 31  1  0  0  0  0
 12 32  1  0  0  0  0
 13 15  1  0  0  0  0
 13 36  1  0  0  0  0
 14 16  1  0  0  0  0
 14 36  1  0  0  0  0
 15 17  1  0  0  0  0
 15 21  1  0  0  0  0
 16 17  1  0  0  0  0
 16 27  1  0  0  0  0
 17 30  1  0  0  0  0
 18 24  1  0  0  0  0
 19 24  1  0  0  0  0
 20 24  1  0  0  0  0
 22 27  1  0  0  0  0
 23 25  1  0  0  0  0
 23 31  1  0  0  0  0
 25 33  1  0  0  0  0
 25 34  1  0  0  0  0
 25 35  1  0  0  0  0
 28 36  2  0  0  0  0
 29 36  2  0  0  0  0
  1 37  1  0  0  0  0
  2 38  1  0  0  0  0
  3 39  1  0  0  0  0
  4 40  1  0  0  0  0
  5 41  1  0  0  0  0
  6 42  1  0  0  0  0
 13 43  1  0  0  0  0
 13 44  1  0  0  0  0
 14 45  1  0  0  0  0
 14 46  1  0  0  0  0
 15 47  1  0  0  0  0
 16 48  1  0  0  0  0
 17 49  1  0  0  0  0
 18 50  1  0  0  0  0
 18 51  1  0  0  0  0
 18 52  1  0  0  0  0
 19 53  1  0  0  0  0
 19 54  1  0  0  0  0
 19 55  1  0  0  0  0
 20 56  1  0  0  0  0
 20 57  1  0  0  0  0
 20 58  1  0  0  0  0
 21 59  1  0  0  0  0
 21 60  1  0  0  0  0
 22 61  1  0  0  0  0
 22 62  1  0  0  0  0
 23 63  1  0  0  0  0
 23 64  1  0  0  0  0
 26 65  1  0  0  0  0
 26 66  1  0  0  0  0
 27 67  1  0  0  0  0
 30 68  1  0  0  0  0
M  END
> <OMEGA_C>
GdUCQbV7A0HQSJHBBAjkQBUc90D+9IrB6DP9QGY0DEGBc5vBASOxQMoFBUHy+pjBodqbQPFqXb+W
U5/BKtPCQFPWIj98RavBOaa5QJfD+EBryI7BXazSQAQyDUEsbZ/B+26hQJar1T7Y56PB8CrYQDTV
2b81zKnBEY23QFnF978eN6LBZCneQHz/1b7XLq7BZSqxQIYl5z+YNY/BUXawQIwfikBtroTBIKeg
QExWJECwLpnB+eeeQE70m0B4Wo/BMzGFQO6Kc0D/yJXBXKbvQHSkIEH2L7DBkp6lQBEaKEFyi6nB
Njm3QNhLBEF547HBPSCGQPTeyz+RRqDBj1CVQJ/p5kBOGYjBKj2gQIPVWsBgzJPBdjrIQMFvFkHT
mKrBCW9mQLQGgMCsiJXBmX3zQLpAL8CrvKzBb5qBQBzMwEAcRI3Bk1H1QCwnVkC+HY7BEs3ZQOh4
DkCQNHrBrappQAJmjkByI5/BvUa1QNc4TsDE/J3BbOT+QNWZPb5HBbXB3L8zQC+AR8A0z5rBfAZD
QMoeicBr44vBz/JrQK6FpMCYapvB1J3RQEFwOUAuWIfBPRATQdThAkHRVY7BjarqQEms6UDnK4PB
CaMLQU8xEkGxRKDBL6WQQGBrBUH16pvBrnmCQGQThL+qnZnBKmzHQIAHzz/4sK7BrcuVQI/suj9e
aorBw0XEQC14cD/LxZHBhGjDQOD3okDloIDBwJ+VQC9/gECyCn/B4U68QHgUO0BK053B8Pu5QM/H
pkAgSJTBhEhVQJPVXEC4wJDB7iDmQFDjJkESELjBsgn8QAbPLUGMPKvBQlsEQVJ1FEFhOLHBeEGe
QDilLkH2gLHB4W+IQPQ1IUERCKbBtp2xQJ/6NEF8WaTBc8GvQOTQCkGw2LnBuL/PQCSH70C6prLB
GhaaQNbV+kCOWK7BNrJ0QCGQCEBjWafB8pBVQJmJmz8hoZvB/tChQGii3UDUNIDBPHN5QCDJ/0CL
G4fBM6GdQAULHcDboY/Bly2zQI67g8Dq6I7B4kYEQWvuGcBEI7LBx5EBQVNtRMC6R6bBGrdqQJwd
ykDHR5TBLklIQE52pkBsGZ3BELIBQZx4BEGlWZHBMhviQA2u+ECM+orB05T6QDDXDEFIkpvB1tuu
QHHRBEHiFZnBwJabQDVRUb+6WKDBTALKQEZFKT9WrKrBe7i3QDI1+UAN0I7BtQzQQJc7DUFekp/B
dtGlQNnx8T6tHKTBj0/aQDpY3L+1e6nBk7u1QAEV9r/ZBaPBkDLkQDZX3b5PWq3BbbC0QLKI6j87
aI/B1XWxQCBXikBnioTBHkOkQNA/J0DXUJnBuc6fQDg4nEC9Mo/B6l6HQPmsc0CAypXBPYm1QHSi
A0F/CrLBNznsQErSIEHGYrDB9aKhQPVKJ0Hu4KnBRdaKQEKw1D+vy6DB/eKTQIHO5kBXDojB/Rek
QFf6WsBxoJTBg0zFQNIgFkH5zKrB+f7MQPnmfcCEGI/BxPf0QO2gMsAv+avBcEeBQKH8v0AZGY3B
O6P3QF7hWkAX1Y3BEAPcQCzkD0BSIHrBodNsQNGLjkAMEp/BCo6qQGZnTcC/AKDB/3oDQdFnc77g
n7PBf8TwQDmlc8AhLZXB2sfHQHNPqcD8DI3BABLTQBXRU8DLuIXBpOHTQLapO0AzQYfBf+4RQZlM
BEHVZI7BMgPpQBbK60B8JoPBxTIKQcoEE0EcaqDBg2SOQEGyBEHqC5zB7U1/QB16dr8CZZvBPKLR
QO3M0j9hpa3BwUyZQIc7uj/ZxorBE5XIQAONfD/uCZLBv6TDQJd3o0AhYYDBZLOWQM2if0Dp7X7B
3++/QGesQEB8up3Byb+6QJEdqECWBJTBylVaQLRfWkC91pDBWd2tQKbqCUHUCLrBYs7OQI/q7kCQ
uLLBE72YQOjE+ECMgq7BPIHiQLTJJkHZTLjB2rf3QApALkEKeqvBowIDQX3/FEFrVbHBChSaQJ6U
LUGz4LHBhsqEQHcJIEEJYKbBkr6sQGFvNEHhuaTBFwiBQFfLDUAV/qfBXH1cQNN8pj9XjZzBDaGg
QG1J3kBbIoDBEEl1QPoQ/0BgJYfBcfmJQIephMCDg5PBhEabQCy3HcCz5JDBCYkGQb4pHsBqkrDB
vF0AQZi9S8BvOqXBt9BoQC6tyEC/F5TB6J9JQMnSpUD68JzB9f8BQQ5VBEFvgJHB+MLiQMF4+EAQ
GovB4BD7QBrIDEESs5vBZEqvQPoBBUFpHJnBfWabQKgtVr8mP6DByuHIQIjsKD/wqarBYEm4QM1T
+UCe347B5nPQQLhODUEmpJ/BihOlQD3d6j5w/aPB7QjaQMfw27/DkKnBgc+1QChN97+CBKPBdVDj
QBZq2b7Gca3BuAK0QG/16T8pPo/BE1SxQIKHikD9hITBVJKjQANzJkBHLpnB976fQE1AnECxMo/B
9/6GQIqZc0ANt5XB+K/sQD5bIEFemrDBL9miQA3cJ0HW2KnBcmy0QOLcA0Gv+7HBvumJQF/u0T89
jKDBw3WUQHsO50CCF4jBcOGkQPk0W8A6iZTB94vFQGY7FkEF2qrBy7zMQAj0gcBIV4/BPf/0QPLu
McAFE6zBRIyBQOdXwEAEIo3BK0D3QBLyWUDAyI3B/nXbQHEzEEDT4XnBf0hsQPtUjkA0B5/Bg3yr
QEE3TsDB6Z/BiuUCQSy2XL4ZybPBFBnxQMu1WMAO+pHBr3PQQCU+q8AYm5LBg9nHQMsFgcBIj4TB
KXDTQBaAO0BAK4fBZUMSQTUSBEG7lY7Bk8XpQFpi60C5TIPB3msKQQTrEkGPkaDBlryOQEwTBUH4
ApzBnV9/QIhEfr8rPZvBfwfQQOcC0z+hpa3Bbp+YQMSiuj+UkorBQ8PHQE4nej8U15HBwLDDQNak
o0AnZ4DBBoaWQO9OgEAQ137B6T6/QEEpP0APqJ3BBb66QHDJp0CfDZTBSndZQNgFW0DKuZDB69Pi
QPBeJkFTf7jBdyn5QH2tLUFUxavBeOYCQaYwFEGlnLHBIyubQOArLkGJ1bHBMNaFQEoDIUG4OabB
euyuQDPmNEENxKTBvKCsQBYnCkGy97nBQgTNQG+27kASt7LB1naXQNsN+kCUVK7Bz8t+QCoyDEDi
sqfBYIRbQKyJoj+7LJzBJUihQCRq3kCxL4DBhLd2QCtx/0CBJYfBbUKJQPXngsDtWpPBt32eQPsV
HcBat5DBzmgGQaEaHcAGvbDBCZIAQWKDSsAxV6XBkq1pQL0ayUD9I5TBPHtJQFjRpUCP8JzBfrEC
QbpUBEEQtZHB4lPkQJZx+EAaPovBNx/8QLbaDEFa4JvBh3GwQBEbBUESIZnB2nKbQBxtX78h6p/B
ZgzHQCbIJz/ljqrBhry5QIZP+UD28I7BZlnRQCx2DUEstZ/BA82jQIy23D70u6PB507aQPMn2r+1
danBNaC2QDlv+L/k1KLBiUPiQJPe0L65Za3BoG+yQCdR6D99AY/BwZOxQFbHikASmoTBdBaiQLzq
JEAQAZnBcMKfQKYynECvSo/BVyWGQCJdc0Cun5XBhr7sQAGiIEFitrDB7z+jQLsgKEFOs6nBImS0
QMsrBEEG9rHBLSyIQE4TzT+IN6DBgOyVQLw250DCIIjBHoG9QERra8DR4pXBeeTFQHx+FkEY26rB
uAWYQIeNd8APIo7BMG31QOtEMMB9L6zBpUqCQNnlwEBZOI3BxaT2QCKqVkAi3Y3BhZnaQNIoEED9
qXnB0TxqQE/fjUAt957BrLasQEnzTsDXB6DB+wICQQA2N74b7LPBhoiKQJHqKcBZmorBLwqlQFzq
k8BKt4XB9hluQMjRj8DcNZPBM7nSQF1xOkAWIofB1AETQZgFBEHm3I7BppDrQMpX60BwdIPBK98K
QTr6EkHxzKDB98qPQLY2BUHz9ZvB5kuAQMK9hr9GxJrBjinNQOfb0j9Qna3B9ACXQCgSvD8xPIrB
kp/FQPDicj+uiZHBjZjEQF7Qo0ABpYDBntWWQK1lgUDew37BvtW9QAlqPECejZ3BVLC6QKEMp0Bu
RJTB7etXQHQmXEAogpDBRnziQBy6JkFAj7jB9IX5QEnmLUF55KvBAeECQT10FEEa1bHBhy2bQHyE
LkHVpbHBB2qGQN5AIUE9AabBe5evQLodNUFZoKTBfy6sQFuDCkG96LnBhPDMQONV70Aby7LBV5+X
QJGg+kCnOa7BYLR5QE0wCUDQVafBvhJZQLRZnD9espvBWOuiQOMY3kANRoDB3Fh6QDfh/0DPEIfB
QbnTQDstO8BvsJLBKn/OQO0+lMAX8ZbBl3IGQUt6GsB/5LDBZAYBQRhpScA2iqXBxLZrQFsAykA1
O5TB7kNIQPO2pUCi6pzBT/MBQWK4BEFe3pHBdR/jQB/P+ECNZIvBj036QAlYDUGx/ZvB7MquQHA3
BUF5MpnBjD6bQHeNUL9wiKDBgHTJQORbJz8sBKvBkXS4QO1x+UCPBo/B7HfPQDHWDUG6x5/BEIal
QBp28j4kWKTB5A/aQBPS3L/hlqnBpV61QC7R9b+ALKPBh57jQG7P4r7Dp63B8IW0QN2j6D9pgo/B
19GxQLP4iUCDj4TBI3ikQPABJ0ArZpnB5n2gQGwHnEDsO4/B4MOHQBibc0BI0ZXBLIXqQCWqIUGZ
orDBQfagQHWoKEH/i6nB5IKyQAQSBUHIH7LBy+eKQBKg1T8+9qDB4SGVQMrT5kCSI4jBzZSlQLox
WsAfoZTB3c/DQH4uF0HO26rB1RPOQKoWgsAC6o/BW0j1QG+xMsD0wavB2z2CQMwPwECyJI3BQB/4
QAXwV0BRlY3BgbbaQM9gDUA+9HnBdxBtQI6fjkBzDJ/BmUaqQFHpTMB4DKDBqg4DQf7ag76HCbTB
xVTTQDuvqcAWM5TBPgrJQMPPhcDqLIXBvKfxQACHVMDj8ZHBuKbTQL+1OUC8LofBuksSQX1+BEFj
EY/BiqLqQEGN60BOo4PBpN4JQVakE0GE66DBrRuOQCknBUEmAZzBjZp+QHHsdL/Ik5vBW+fQQKNL
0T8IG67Bou+YQHYauD949orBF2PIQPHleD9lKpLBgFXEQNHiokAtaYDBZ9qWQNDaf0Aw/H7BLkzA
QKVPQEASw53B5pW7QNOnp0CkCpTB3FxbQABYWkCr0pDBuCngQMD4J0GXbrjBJxj3QLbSLkFgtavB
dtwBQR2fFUF82rHB0r2YQLZFL0FHcLHBKz+EQNmSIUFd5KXBby2tQBeGNUFnYKTBdzGqQN2sC0Hu
ArrBjjXLQKJZ8UBQE7PBfNeVQM36+0D1ca7Ba1eBQC/bDkAJIqjBP1NcQAT3pz9jwpzBRHGiQH8u
3kDGSIDBitB3QD8E/0D1FofBluqJQEsQgsBoK5PB2kmgQDgVHMAotJDBjbYGQayrHsCOX7DBPnkA
QZXZScC35KTBC8JqQLzByEB+I5TBvSFKQI/tpUCV3pzBnOUBQan0BEHFzJDB8GjiQD3X+EB8lorB
dB/7QPnsDUFR55rBKV+vQHjKBUHfmJjBtOCbQHu2Yb/8sZ/BwxvGQK3FFz8XLqvBXxe4QKW++UD7
eI7BMJ3QQCqeDkGa6p7B6Z6jQLbTzj4NEKTB7+PYQLBq4r/+qanBTbe2QC5C/L+/cKLBdo7gQM11
+r4h/63B5Z6zQAQS6T8yk4/BYiaxQE1AikDd2oTB4+CiQCxRJUAhhpnBFY+fQDU7nEC0gI/Bc7iG
QECUc0ARE5bB+Z63QACiBUE0krHBWq/sQCp2I0FhVq/Bq1OhQDKZKEEuFqnB3rqIQC4czT+VraDB
DQuUQNV/5kAJ8YfBYgy7QDdxW8BzLJPBqP/FQFT4F0HfDqrBFPPrQIdZaMBCMZHBCtLzQE/fNMB9
UazB/WWBQPtVwEBtVo3BP8z2QCqwWUDGPY7BXn7bQNbND0DktnrB5GpsQBp5jkDgZp/BcXWvQA1Z
T8ADXJ7BHNcAQeaolL5byrTBXlP6QIoRmMC5LpbBTYjyQEAgccAihYbBQ7sBQdhMJMD+jZTBjS/T
QBYgO0CrkYfBjxsSQe2hBEHqz43Bsy/pQE8N60A72YLBLoIKQe5VFEHYpJ/Bru6OQM3lBUGdk5vB
znGBQIEFhL98QprBEDzMQDREyT8oe67BtFmYQIv+uT8v2orBEljHQNQkeD+6KpLBe4nDQP9Bo0BX
tIDBOFmWQD/cf0CuiH/Bj2O+QI8YPUC4I57BC4e6QL7fp0ACWpTBAXJYQCGWW0BUHpHBpwawQNIy
DEESg7nBJZPRQPqr80DAT7LB9wubQLao+0D5Oa7BiiXjQIa8KUGrNLfB9Cv3QMbBMEGlM6rBm5ID
QZ8HGEGEV7DB+feZQCYsL0EsCrHB9qiEQCrIIEG7zKXBvVmrQDahNUGSuqPB6Lt7QFjCCEDN36fB
ypNZQD5onz/jJpzBiZCgQC3j3EB2E4DBLKp1QKyv/kAg3obBrhiqQAQhisCtKpDBNp+wQOOqIsCW
q47BFQgFQTqdIMB3e7HB+wcBQaLfSsAFtKXB0JRqQHrmyUCgWJTBhj5KQLo2pkDbVJ3BppABQazI
A0G3BZHBKI3hQKhd90AnvorBR8H6QD89DEEbP5vBXOKuQFhaBEEA9JjBc9GcQB4+Rr/eE6DBCmDJ
QLM2Kz/qN6vBBlC3QLkp+EDZq47BD17QQFvHDEEnVp/B9aOlQM6D/D5kfqTBVDPaQO9J2r/2p6nB
iE23QJrt778SbqLBE27jQLI2275P1K3BpVi0QOn36D+fzI/BFG6wQJYiiUD6pYTBD0akQJShJ0DZ
qZnB91ufQAKim0DRS4/BpEaHQPeZc0DIGpbBZU63QLpGA0F277HBMzTtQF/EIEFv8a/BxwiiQDq5
JkGNvqnBneqKQNr41z+QSqHBiy2TQGzS5UBmBIjBiqnSQM7bbsCPaZjBIyTGQCnEFUGKkqrB2xnK
QBrqgMD+pYzBwK7zQBbKMcAZ1qzB2LOAQOE1v0AaKY3BPCP3QD3cWUD8z43ByKXaQG+nDEBBlHrB
G/xtQOsmj0BkX5/B50CuQPIURcCNcJ3B8cMCQfHMf77NWrTBDdW1QHp0PsDO+4fBqYrwQL4zh8Dx
zofBIouxQAaRpMDIuIvBMg3TQJbEOUBjaofBCb8RQdWFA0FL/o3Bfx3oQJ9Q6kCh6YLBqGYKQZ9f
EkGLBqDBD4uOQDtEBEG0/5vBb5SBQOb3Zr/r25rBR77QQLPo0j90Xq7B8caYQAA3tz8lTIvBpmzI
QIAvez/he5LBd1XCQCcHokCdU4DB4meVQEeEfEDEan/BIRzAQC1oQUDS+p3B2426QGrap0Bj+ZPB
g29ZQCvTWUC4T5HBhACwQCOeCUFL8LnB5enQQOqG7kAtjbLBe3aaQCqc90DBi67BMenjQCrMJkGU
4LfB2wj4QJgvLkET76rBO6sDQYobFUHE0bDBlt2aQIkSLUH4wLHBDiCFQG1DH0FCYqbBfoGsQAzc
M0FYgaTBZeyBQDD6D0Aug6jB6K1bQIUYqz9mM53BV5OfQOwa3UAYE4DBcvdzQAUn/kDxI4fB677u
QG21RMDzCJnBSi3ZQEmwlcBYmpzBgR8FQYAUHcBQ4rHBescAQVjyS8BlaabBXuNnQAofyECcJpTB
iZhKQKdUpkCHOZ3Bb7QCQR+4A0FPkZHBmQDkQHu790B4JIvBlpz8QFQ4DEFpw5vBEKqwQFX2BEGX
IJnBKtqbQI65Xb/yoZ/Bo7zFQEQ4Jz8fy6rBjIK5QJAb+UAB5o7BnfbRQFgSDUFeq5/BTS2jQPrG
3D69waPBrG7ZQL7L2b87qKnBDQm3QK8s+L87oaLB8+HgQDL90L7Wsa3Bo/GxQAvI6D+dC4/BN7Ww
QH2TikCPhoTBEJahQBg1JUAqCJnBRC2fQO9AnEB9N4/BzbOFQDfOc0BypJXB09i2QCqnA0FzGrLB
6EHuQHuHIEG7fbDB5uijQJhnJ0HA56nBJ5yHQD11zT9dOaDB/2uVQO9d50CDHIjBNvWnQK4AXsA2
MJTBxS7HQAYMFkE94KrBQAx3QE5Rg8Cz/5LBL5v0QHzWL8D/dazBbbyBQP4AwUAGKo3BSNr1QMyb
V0D9443B2UTaQPrFD0CzynnBwjNqQDBhjkCB/Z7B4VOwQEaQT8ATZJ/BgDYBQYW0Nr49SbTB1qA5
QL1PSsBDeJTBzsxvQLFClMBFDYnBFkhsQP7aosAEZJrBLx/SQImXOkAlJofBUvoSQd86A0Hqq47B
FeXqQCCg6kD4VYPBtEELQfskEkEWqKDBihiQQC86BUHOA5zBCI+BQLkdhb9fM5rB/V/LQEUz0j9H
963BvIOWQIEtvD9gSYrB3jDFQHBDdD9alpHB6H3DQOmJo0CDeIDBxtyVQM7agEDkwX7BtlG9QKyb
PEAYmJ3BbUO6QAQlp0AaIpTBp5VWQOyTXEDSmZDBDyavQLz9CUGIFbrBRNPPQNKr7kBM0rLBbvaZ
QOwe+UBvia7Blo3kQN+SJkFLZLjBWSP6QHngLUGMlavB6uEDQX6PFEHyeLHBe1acQO++LUGd5LHB
hfmGQOhMIEHWXqbBWWavQEN6NEHSwqTB6Hd4QEVVCUAkV6fBZQRYQMHinD8wr5vBACuiQGBq3kBA
OIDBzYZ5QBoXAEFRIofBctuoQHazIMD/3Y/Bb1fAQOiohMCj4JDBIZAFQedJGsA5d7HB7D0BQY5V
R8C64KXB5YdqQP0FykCZLZTBdlBIQK9BpkDR8ZzB

> <OMEGA_E>
iGZHPjimaz4ob2w+gEVtPsDzcj5Yo4Q+2OaEPoiAQj4=

> <OMEGA_NBR>
     32017

$$$$
50216820
  -OEChem-04172616093D

 68 70  0     1  0  0  0  0  0999 V2000
    8.1508    8.2209  -18.1972 C   0  0  0  0  0  0  0  0  0  0  0  0
    7.1107    7.7247  -17.3930 C   0  0  0  0  0  0  0  0  0  0  0  0
    7.8712    8.7518  -19.4707 C   0  0  0  0  0  0  0  0  0  0  0  0
    5.5003    8.2863  -19.1383 C   0  0  0  0  0  0  0  0  0  0  0  0
    4.8447   -0.8062  -20.0549 C   0  0  0  0  0  0  0  0  0  0  0  0
    6.2360    0.6821  -21.3970 C   0  0  0  0  0  0  0  0  0  0  0  0
    5.7819    7.7629  -17.8594 C   0  0  0  0  0  0  0  0  0  0  0  0
    6.5379    8.7956  -19.9588 C   0  0  0  0  0  0  0  0  0  0  0  0
    5.1210    0.4816  -20.5548 C   0  0  0  0  0  0  0  0  0  0  0  0
    6.8095   -1.6835  -21.2128 C   0  0  0  0  0  0  0  0  0  0  0  0
    5.6880   -1.8869  -20.3843 C   0  0  0  0  0  0  0  0  0  0  0  0
    7.0792   -0.3976  -21.7250 C   0  0  0  0  0  0  0  0  0  0  0  0
    5.5900    1.8059  -17.9400 C   0  0  0  0  0  0  0  0  0  0  0  0
    5.5347    4.2953  -16.5747 C   0  0  0  0  0  0  0  0  0  0  0  0
    5.0812    2.5983  -19.1738 C   0  0  2  0  0  0  0  0  0  0  0  0
    4.9843    4.8653  -17.9025 C   0  0  1  0  0  0  0  0  0  0  0  0
    4.1978    3.8036  -18.7234 C   0  0  1  0  0  0  0  0  0  0  0  0
    5.6296    8.2224  -22.2452 C   0  0  0  0  0  0  0  0  0  0  0  0
    7.4255    9.9651  -22.0877 C   0  0  0  0  0  0  0  0  0  0  0  0
    5.1346   10.4818  -21.2233 C   0  0  0  0  0  0  0  0  0  0  0  0
    4.2759    1.6607  -20.1155 C   0  0  0  0  0  0  0  0  0  0  0  0
    4.6610    7.2028  -17.0058 C   0  0  0  0  0  0  0  0  0  0  0  0
    5.6543   -3.3089  -18.4978 C   0  0  0  0  0  0  0  0  0  0  0  0
    4.8466   -4.5121  -18.0217 C   0  0  0  0  0  0  0  0  0  0  0  0
    6.1957    9.3589  -21.3578 C   0  0  0  0  0  0  0  0  0  0  0  0
    7.6627   -2.7449  -21.4994 N   0  0  0  0  0  0  0  0  0  0  0  0
    4.0529    6.0003  -17.6327 N   0  0  0  0  0  0  0  0  0  0  0  0
    7.7057    3.3645  -17.7543 O   0  0  0  0  0  0  0  0  0  0  0  0
    6.8424    2.2003  -15.6541 O   0  0  0  0  0  0  0  0  0  0  0  0
    3.6699    4.4618  -19.8776 O   0  0  0  0  0  0  0  0  0  0  0  0
    5.4139   -3.1434  -19.9092 O   0  0  0  0  0  0  0  0  0  0  0  0
    8.1572   -0.1906  -22.5166 F   0  0  0  0  0  0  0  0  0  0  0  0
    3.5348   -4.3202  -18.3279 F   0  0  0  0  0  0  0  0  0  0  0  0
    6.5880    2.8901  -16.9248 S   0  0  0  0  0  0  0  0  0  0  0  0
    9.1686    8.1949  -17.8369 H   0  0  0  0  0  0  0  0  0  0  0  0
    7.3299    7.3145  -16.4183 H   0  0  0  0  0  0  0  0  0  0  0  0
    8.6776    9.1292  -20.0821 H   0  0  0  0  0  0  0  0  0  0  0  0
    4.4817    8.2992  -19.4970 H   0  0  0  0  0  0  0  0  0  0  0  0
    3.9865   -0.9656  -19.4190 H   0  0  0  0  0  0  0  0  0  0  0  0
    6.4431    1.6661  -21.7910 H   0  0  0  0  0  0  0  0  0  0  0  0
    4.7321    1.4402  -17.3567 H   0  0  0  0  0  0  0  0  0  0  0  0
    6.1968    0.9516  -18.2746 H   0  0  0  0  0  0  0  0  0  0  0  0
    6.1171    5.0707  -16.0555 H   0  0  0  0  0  0  0  0  0  0  0  0
    4.6973    3.9768  -15.9365 H   0  0  0  0  0  0  0  0  0  0  0  0
    5.9500    2.9878  -19.7246 H   0  0  0  0  0  0  0  0  0  0  0  0
    5.8290    5.2226  -18.5098 H   0  0  0  0  0  0  0  0  0  0  0  0
    3.3780    3.4185  -18.0992 H   0  0  0  0  0  0  0  0  0  0  0  0
    5.3855    8.6210  -23.2410 H   0  0  0  0  0  0  0  0  0  0  0  0
    6.3812    7.4253  -22.3437 H   0  0  0  0  0  0  0  0  0  0  0  0
    4.7200    7.8135  -21.7811 H   0  0  0  0  0  0  0  0  0  0  0  0
    7.1169   10.3465  -23.0723 H   0  0  0  0  0  0  0  0  0  0  0  0
    7.8379   10.7898  -21.4880 H   0  0  0  0  0  0  0  0  0  0  0  0
    8.1930    9.1883  -22.2197 H   0  0  0  0  0  0  0  0  0  0  0  0
    4.8934   10.8804  -22.2198 H   0  0  0  0  0  0  0  0  0  0  0  0
    4.2239   10.0722  -20.7620 H   0  0  0  0  0  0  0  0  0  0  0  0
    5.5338   11.2896  -20.5922 H   0  0  0  0  0  0  0  0  0  0  0  0
    3.9589    2.2275  -21.0034 H   0  0  0  0  0  0  0  0  0  0  0  0
    3.3888    1.2892  -19.5817 H   0  0  0  0  0  0  0  0  0  0  0  0
    5.0647    6.9276  -16.0202 H   0  0  0  0  0  0  0  0  0  0  0  0
    3.8856    7.9732  -16.8823 H   0  0  0  0  0  0  0  0  0  0  0  0
    5.3348   -2.4065  -17.9560 H   0  0  0  0  0  0  0  0  0  0  0  0
    6.7256   -3.4838  -18.3193 H   0  0  0  0  0  0  0  0  0  0  0  0
    5.2118   -5.4214  -18.5216 H   0  0  0  0  0  0  0  0  0  0  0  0
    4.9579   -4.6224  -16.9330 H   0  0  0  0  0  0  0  0  0  0  0  0
    8.4004   -2.4286  -22.0958 H   0  0  0  0  0  0  0  0  0  0  0  0
    8.0509   -3.0994  -20.6487 H   0  0  0  0  0  0  0  0  0  0  0  0
    3.6496    6.2796  -18.5040 H   0  0  0  0  0  0  0  0  0  0  0  0
    3.1318    5.1960  -19.6057 H   0  0  0  0  0  0  0  0  0  0  0  0
  1  2  1  0  0  0  0
  1  3  2  0  0  0  0
  2  7  2  0  0  0  0
  3  8  1  0  0  0  0
  4  7  1  0  0  0  0
  4  8  2  0  0  0  0
  5  9  1  0  0  0  0
  5 11  2  0  0  0  0
  6  9  2  0  0  0  0
  6 12  1  0  0  0  0
  7 22  1  0  0  0  0
  8 25  1  0  0  0  0
  9 21  1  0  0  0  0
 10 11  1  0  0  0  0
 10 12  2  0  0  0  0
 10 26  1  0  0  0  0
 11 31  1  0  0  0  0
 12 32  1  0  0  0  0
 13 15  1  0  0  0  0
 13 34  1  0  0  0  0
 14 16  1  0  0  0  0
 14 34  1  0  0  0  0
 15 17  1  0  0  0  0
 15 21  1  0  0  0  0
 16 17  1  0  0  0  0
 16 27  1  0  0  0  0
 17 30  1  0  0  0  0
 18 25  1  0  0  0  0
 19 25  1  0  0  0  0
 20 25  1  0  0  0  0
 22 27  1  0  0  0  0
 23 24  1  0  0  0  0
 23 31  1  0  0  0  0
 24 33  1  0  0  0  0
 28 34  2  0  0  0  0
 29 34  2  0  0  0  0
  1 35  1  0  0  0  0
  2 36  1  0  0  0  0
  3 37  1  0  0  0  0
  4 38  1  0  0  0  0
  5 39  1  0  0  0  0
  6 40  1  0  0  0  0
 13 41  1  0  0  0  0
 13 42  1  0  0  0  0
 14 43  1  0  0  0  0
 14 44  1  0  0  0  0
 15 45  1  0  0  0  0
 16 46  1  0  0  0  0
 17 47  1  0  0  0  0
 18 48  1  0  0  0  0
 18 49  1  0  0  0  0
 18 50  1  0  0  0  0
 19 51  1  0  0  0  0
 19 52  1  0  0  0  0
 19 53  1  0  0  0  0
 20 54  1  0  0  0  0
 20 55  1  0  0  0  0
 20 56  1  0  0  0  0
 21 57  1  0  0  0  0
 21 58  1  0  0  0  0
 22 59  1  0  0  0  0
 22 60  1  0  0  0  0
 23 61  1  0  0  0  0
 23 62  1  0  0  0  0
 24 63  1  0  0  0  0
 24 64  1  0  0  0  0
 26 65  1  0  0  0  0
 26 66  1  0  0  0  0
 27 67  1  0  0  0  0
 30 68  1  0  0  0  0
M  END
> <OMEGA_C>
hGkCQfOIA0Hpk5HB7orjQMYw90DUJIvBuuD7QHcHDEEKxJvBdAKwQJSUBEFLG5nBygebQN9fTr9x
cKDBI43HQGWeLj8bLavBEwW5QElp+EAF4I7BjjbRQJO6DEGeq5/BQt+jQByS9j5EcKTBsefZQLN7
17/Ps6nBDQS2QLeE8b8WE6PB7ojiQL6Xy77LzK3BgeGyQI4n5z8dhY/BIhyxQEtziUAPmYTBFpmi
QONKJkDbY5nBU3+fQLqwm0BPOI/BUlSGQHFuc0B0yZXBzyW0QPOOA0FA9rHBjp3tQPNwH0Grs7DB
6k6kQJW1J0FCyanBKtSIQDKR1D+Z7KDBKieVQDh95kDVC4jBIfC0QL/FU8B5+5PBphebQHljkMCH
LJDBlUPGQOu9FUHC3KrBPjX1QDysL8Cu/qvBuLGBQBACwEC3D43BfpX2QKxTV0DjCI7BQ/XaQPrQ
DEAUd3rBi99qQHfHjkBtBZ/BfD6tQDwtScASRp/B94MCQVEnQ74DIrTBQzpiQPo+isCin5LBidDS
QKb2OEAVZofBY7ISQWoeA0H9sY7BOo7qQCEQ6kCaWIPBStcKQT8REkEOqKDB0mmPQKjJBEHJ+ZvB
BSJ/QHEwd78WWpvBHC7OQJRC1T8QVK7BW22XQGFZuD+A2orB80vGQI2Zcz9wMpLBm7/DQOZCokCy
cYDBH1CWQCWEfkAG/H7Bm2a+QJo4P0Dwy53BFIe6QGQfp0AhFJTBAzFYQFTJWkARy5DBX1asQM/v
CUGK7bnBxzLMQLub7UDev7LBhwqXQNYH+kCvP67BXb3jQB2LJUH8k7jBzc/6QC6jLEFf56vBqBYD
QRsDE0EBwrHB8pacQAQWLkEPwrHBEyqHQLAnIUGpGKbBmRSxQCCiNEHavKTBrl59QCGPDkDhBqjB
wuFYQOsDpT9Ap5zBvRGiQIeu3UBoKYDBI654QEok/0D6DofB4LaqQCkEGsDnpY/BwTfXQIn2XsDk
jZLBUMemQDN8rcBALJTBU6eeQNvqk8CydofBC2gGQXltG8BNxLDBodAAQXhcRsCDMKXBl5JpQHfy
yEA/CJTBnm5IQHdFpkB72JzBXvoBQfxsBEE/b5HBXuDiQLNw+EAJBIvBz876QMXmDEGEnZvBBCqv
QI/iBEGp+5jBn+maQM4qU7/rb6DBNtnIQCGKJz+36KrBaFu4QE4R+UDBwo7BUyLQQOJbDUEYhJ/B
7eGkQL5i7j5yQ6TBhP/ZQGI03L9meanBAl61QENz9r/gC6PB8lLjQCTj3r4phq3BOT+0QPFK6T8i
io/BS5GxQNjsiUDin4TBkbKjQOnOJkBNbJnBQtufQDsKnECIP4/BUBuHQMqoc0C62JXB5WS1QAPU
A0Hm9rHBAKPrQK87IUHXTbDBIBChQOpSJ0HQrqnBewOKQBEH1D9d4qDB1aqUQM6S5kBq+IfBLAGi
QDq9W8A3xJTBgSHIQMr7hMAyi4/Bpf/EQBVSFkHHs6rBYlb1QLsZMsD8sKvB2qiBQIMFwEB2EY3B
mWL3QP/yWUDLC47BoB/cQO3SDkChf3rBBl1sQNq/jkAMGZ/Bfo6qQKjQTcBoC6DB5vICQS2mdb4c
3bPB/obsQNSXWsBBYpDBOcXTQPHAOkA/a4fBAkMSQVw6BEGDi47B5wrqQPtc60CuOIPBVzsKQQ0c
E0FngKDB2peOQBjTBEEq35vBMO19QC0Ueb/FfpvBFxTQQGaa0T8L/63BQOmYQPRfuT++34rBVfnH
QBV/eT8ENJLBUuTDQM3pokAnc4DB29WWQAPQfkAJFH/Bb1e/QJf4P0D+3p3B7cu6QD/Qp0BRFpTB
3sJZQCigWkB24ZDBA3GtQMwmCkG97rnBD9vOQIiI70AOtbLBfcyYQFHY+EBaaa7BYqvhQG0+J0HQ
MLjB3AD3QPinLkFZX6vB+80CQeOGFUFsULHBtTeZQKWqLUFfp7HB62uEQC7oH0G+KKbBHxCsQN10
NEF/gqTBpQ2AQOeXDUDKDqjBFwZbQKbfpT/SmZzBEKahQKqs3UBZGYDBbSp3QIPs/kCR8YbBCw+F
QNSXgcAB5ZPBEAudQGWvHcDBzJDBVArBQN5pisAcCIfBWgXNQNHto8A1jpPBw7QGQXe6HcA3TrDB
qosAQfRoScBA2KTB4JVpQCsCyUA5CpTBXo9JQEgipkCd8JzBdtwBQWV3BEGmi5HBP6niQAaJ+EBb
H4vB4Iv6QPL3DEEUuJvBIeiuQFnxBEFVFZnBSTabQE8KUb94gKDB76nJQDXsJz9Y46rBRSK4QAsv
+UDE247But3PQFdwDUHYnZ/BYY6lQH8R8j5rR6TBsi7aQNKx3L/6ganBp1e1QNsE9r9MJKPB9ejj
QFEG4b4Tgq3BpbK0QG6o6T/7hY/BKqWxQGAKikBek4TBdESkQAMtJ0C7Z5nBDQagQD8TnEDLN4/B
uXCHQIWTc0DS0JXBs4LrQGAjIUEyc7DB/kehQHa8J0EDvKnB/Xy0QCAXBEE9CLLBjMSKQIk31T9u
7aDBhIKUQMOz5kBiC4jBZbmjQNSrW8DbzpTBFQbLQM2zhMCPEpDBbbjEQKl7FkFxyqrBuVb1QBKx
MsCFs6vBNKyBQJP4v0BxFY3BZMn3QKsbWkBI243BAenbQOPXDkBgRHrBapZsQJekjkADDZ/Bs+up
QJdCTcDdKqDBe0wDQc08gL5E0rPB0kXvQLOkWsCdlZHBrOzTQD/lOkCKUIfBxSYSQYI+BEFiqo7B
itjpQAZz60CEVIPBuBgKQYowE0GsmqDBtFWOQDfdBEGg+JvBX2h+QMSrdb8+kpvBCS7RQOe60T9U
8a3BkE2ZQCMEuT+w6IrB+ZXIQDMuez8YMJLBHOrDQOkSo0AeZ4DB3NyWQAkdf0AnAX/BZfG/QA+4
QECNzp3BA/66QDzkp0BcCpTBjataQAkmWkBg15DBHIThQF83J0FPUrjB8ln3QLt7LkEKiavBeZIC
QZ5CFUG8f7HBc3WZQDIfLkG7srHBOoGEQCmGIEFhLKbB3L6sQFHMNEFilKTBvoasQN92CkFY/bnB
sZ/NQCm870AVz7LBe8iXQBq8+UDVcK7BDhaBQIFbDkCXHKjBFjJcQJdRpz82tJzBMIShQNEK3kC4
KIDBYaZ2QFj5/kBDDofBHyeHQBzRgcDTmJPBJUyfQKzPHcBjwZDBqAfGQHpsicAdcYfBNsjOQLH7
o8A6/5PBqcwGQeeTHsCxRbDBdmsAQeJISsDN16TByoBpQOG+yEDsEJTBn35JQKHkpUAi4JzBCoAC
QU7VA0GEmZHBHbjjQN+s90D7LYvBpQ38QONmDEHXxZvBCjWwQDrkBEF9IpnB+W+bQP8kXL9Q4Z/B
vVnGQPjIJz+F0qrBpTO5QMPk+EAw647BeWPRQFonDUFlq5/BHmejQCz63z7h5KPBX4/ZQNEu2r+m
pKnB15G2QO6497/qxKLB2mvhQJ1p0r5eqq3BqZGyQPYw6D/KKI/BtwOxQDpJikB+j4TBZBqiQCk3
JUBlHpnB4WyfQOUFnEDRPI/BxBuGQDdzc0DHsZXBDI/tQPOVIEHDhrDBdaOjQFbaJ0FTv6nBIny1
QA4OBEFEErLBBQiIQJZhzj80WKDBVkGVQET95kA0HYjBuPuqQMdnW8DcAJTBJU2BQKTLhcDxv5HB
PHPGQNFKFkEd1qrBAtb0QEY4MMA2TKzBqcKBQFeMwEBxKI3Bolz2QEuuV0Ce5o3BWK3aQH1ID0Cp
6XnB+u5qQL1NjkDbBp/BrM+uQEuoTsASap/Bt6EBQRQJPb57LLTBsqo+QJdKXMA5FpXBx5XSQMRG
OkCHM4fB0sgSQfNmA0Gct47BErrqQDx46kDKY4PBTe4KQft0EkEoqKDBt6CPQPoQBUErBJzBAKGA
QBkMhL9ymprB61fMQKd60j9b9K3B9C6XQPiguj+da4rBPvTFQJZKdD/lvJHBULbDQJhFo0BbfYDB
ODKWQG5tgECU137Besi9QKnkPEDBrZ3B7nW6QEkjp0DrI5TBr25XQNrjW0DXq5DBG7LjQPy/JkE+
ZLjBZfL5QJ/SLUF6n6vBkV4DQTV5FEGhl7HBnvCbQKZQLkEHtLHBlKiGQCjkIEE4KqbBfqCvQGvO
NEFAmaTBhqytQLmBCkHBBbrBCyvOQH4370DM3bLBeY+YQEYt+kCbdq7B2Y55QIgXCkBQc6fBXLFY
QDUWnj8205vBwBiiQAMc3kAfOoDBfPN4QC6t/0DQIIfBdmmqQKUIHcC97I/BslPGQLaMgMASFpHB
oZ6BQA2BpMDjDJbBKgR9QBC/i8DHGonBUuEFQULlGsClM7HBHBcBQeCqR8C2pKXBPUxqQHCCyUAu
KZTB8+BIQKoXpkDa9ZzB

> <OMEGA_E>
cK1WPgBVYz4IeGk+sPNSPg==

> <OMEGA_NBR>
     36657

$$$$
50216816
  -OEChem-04172616093D

 72 74  0     1  0  0  0  0  0999 V2000
    8.1225    8.2526  -18.1507 C   0  0  0  0  0  0  0  0  0  0  0  0
    7.0780    7.7452  -17.3593 C   0  0  0  0  0  0  0  0  0  0  0  0
    7.8536    8.7780  -19.4287 C   0  0  0  0  0  0  0  0  0  0  0  0
    5.4848    8.2824  -19.1276 C   0  0  0  0  0  0  0  0  0  0  0  0
    4.8475   -0.8479  -20.0098 C   0  0  0  0  0  0  0  0  0  0  0  0
    6.2960    0.6261  -21.3127 C   0  0  0  0  0  0  0  0  0  0  0  0
    5.7554    7.7653  -17.8439 C   0  0  0  0  0  0  0  0  0  0  0  0
    6.5264    8.8062  -19.9338 C   0  0  0  0  0  0  0  0  0  0  0  0
    5.1653    0.4400  -20.4921 C   0  0  0  0  0  0  0  0  0  0  0  0
    6.8092   -1.7533  -21.1465 C   0  0  0  0  0  0  0  0  0  0  0  0
    5.6701   -1.9549  -20.3311 C   0  0  0  0  0  0  0  0  0  0  0  0
    7.1158   -0.4672  -21.6404 C   0  0  0  0  0  0  0  0  0  0  0  0
    5.6224    1.8053  -17.9087 C   0  0  0  0  0  0  0  0  0  0  0  0
    5.5311    4.3008  -16.5594 C   0  0  0  0  0  0  0  0  0  0  0  0
    5.1182    2.5850  -19.1521 C   0  0  2  0  0  0  0  0  0  0  0  0
    4.9895    4.8594  -17.8958 C   0  0  1  0  0  0  0  0  0  0  0  0
    4.2214    3.7867  -18.7191 C   0  0  1  0  0  0  0  0  0  0  0  0
    5.7040    8.2048  -22.2438 C   0  0  0  0  0  0  0  0  0  0  0  0
    7.4176   10.0248  -22.0337 C   0  0  0  0  0  0  0  0  0  0  0  0
    5.0854   10.4372  -21.2285 C   0  0  0  0  0  0  0  0  0  0  0  0
    8.3464   -3.4120  -17.8548 C   0  0  0  0  0  0  0  0  0  0  0  0
    4.3228    1.6329  -20.0863 C   0  0  0  0  0  0  0  0  0  0  0  0
    4.6297    7.1937  -17.0049 C   0  0  0  0  0  0  0  0  0  0  0  0
    4.8803   -3.4939  -18.6148 C   0  0  0  0  0  0  0  0  0  0  0  0
    6.0185   -4.1100  -17.7837 C   0  0  0  0  0  0  0  0  0  0  0  0
    6.1970    9.3610  -21.3390 C   0  0  0  0  0  0  0  0  0  0  0  0
    7.6378   -2.8248  -21.4633 N   0  0  0  0  0  0  0  0  0  0  0  0
    4.0431    5.9852  -17.6401 N   0  0  0  0  0  0  0  0  0  0  0  0
    7.7234    3.3808  -17.7074 O   0  0  0  0  0  0  0  0  0  0  0  0
    6.8430    2.2211  -15.6115 O   0  0  0  0  0  0  0  0  0  0  0  0
    3.6988    4.4327  -19.8830 O   0  0  0  0  0  0  0  0  0  0  0  0
    5.3293   -3.2541  -19.9770 O   0  0  0  0  0  0  0  0  0  0  0  0
    6.9981   -3.0993  -17.4508 O   0  0  0  0  0  0  0  0  0  0  0  0
    8.1999   -0.2759  -22.4290 F   0  0  0  0  0  0  0  0  0  0  0  0
    6.5992    2.9024  -16.8890 S   0  0  0  0  0  0  0  0  0  0  0  0
    9.1357    8.2395  -17.7769 H   0  0  0  0  0  0  0  0  0  0  0  0
    7.2890    7.3403  -16.3806 H   0  0  0  0  0  0  0  0  0  0  0  0
    8.6635    9.1631  -20.0305 H   0  0  0  0  0  0  0  0  0  0  0  0
    4.4714    8.2793  -19.5011 H   0  0  0  0  0  0  0  0  0  0  0  0
    3.9727   -0.9898  -19.3926 H   0  0  0  0  0  0  0  0  0  0  0  0
    6.5326    1.6099  -21.6902 H   0  0  0  0  0  0  0  0  0  0  0  0
    4.7621    1.4345  -17.3322 H   0  0  0  0  0  0  0  0  0  0  0  0
    6.2407    0.9550  -18.2325 H   0  0  0  0  0  0  0  0  0  0  0  0
    6.1019    5.0838  -16.0387 H   0  0  0  0  0  0  0  0  0  0  0  0
    4.6897    3.9792  -15.9281 H   0  0  0  0  0  0  0  0  0  0  0  0
    5.9876    2.9748  -19.7018 H   0  0  0  0  0  0  0  0  0  0  0  0
    5.8367    5.2227  -18.4960 H   0  0  0  0  0  0  0  0  0  0  0  0
    3.3982    3.3988  -18.1012 H   0  0  0  0  0  0  0  0  0  0  0  0
    5.4688    8.5964  -23.2445 H   0  0  0  0  0  0  0  0  0  0  0  0
    6.4918    7.4413  -22.3248 H   0  0  0  0  0  0  0  0  0  0  0  0
    4.8013    7.7551  -21.8047 H   0  0  0  0  0  0  0  0  0  0  0  0
    7.1185   10.3971  -23.0246 H   0  0  0  0  0  0  0  0  0  0  0  0
    7.7771   10.8639  -21.4200 H   0  0  0  0  0  0  0  0  0  0  0  0
    8.2221    9.2833  -22.1483 H   0  0  0  0  0  0  0  0  0  0  0  0
    4.8535   10.8297  -22.2295 H   0  0  0  0  0  0  0  0  0  0  0  0
    4.1813    9.9869  -20.7928 H   0  0  0  0  0  0  0  0  0  0  0  0
    5.4329   11.2583  -20.5843 H   0  0  0  0  0  0  0  0  0  0  0  0
    9.0173   -2.5910  -17.5617 H   0  0  0  0  0  0  0  0  0  0  0  0
    8.6695   -4.3422  -17.3646 H   0  0  0  0  0  0  0  0  0  0  0  0
    8.3812   -3.5417  -18.9466 H   0  0  0  0  0  0  0  0  0  0  0  0
    4.0214    2.1841  -20.9893 H   0  0  0  0  0  0  0  0  0  0  0  0
    3.4262    1.2768  -19.5578 H   0  0  0  0  0  0  0  0  0  0  0  0
    5.0232    6.9226  -16.0142 H   0  0  0  0  0  0  0  0  0  0  0  0
    3.8446    7.9558  -16.8916 H   0  0  0  0  0  0  0  0  0  0  0  0
    4.0253   -4.1859  -18.6301 H   0  0  0  0  0  0  0  0  0  0  0  0
    4.5725   -2.5408  -18.1601 H   0  0  0  0  0  0  0  0  0  0  0  0
    5.6037   -4.5330  -16.8569 H   0  0  0  0  0  0  0  0  0  0  0  0
    6.5030   -4.9075  -18.3661 H   0  0  0  0  0  0  0  0  0  0  0  0
    8.3882   -2.5065  -22.0426 H   0  0  0  0  0  0  0  0  0  0  0  0
    8.0097   -3.2184  -20.6226 H   0  0  0  0  0  0  0  0  0  0  0  0
    3.6498    6.2603  -18.5174 H   0  0  0  0  0  0  0  0  0  0  0  0
    3.1526    5.1646  -19.6211 H   0  0  0  0  0  0  0  0  0  0  0  0
  1  2  1  0  0  0  0
  1  3  2  0  0  0  0
  2  7  2  0  0  0  0
  3  8  1  0  0  0  0
  4  7  1  0  0  0  0
  4  8  2  0  0  0  0
  5  9  1  0  0  0  0
  5 11  2  0  0  0  0
  6  9  2  0  0  0  0
  6 12  1  0  0  0  0
  7 23  1  0  0  0  0
  8 26  1  0  0  0  0
  9 22  1  0  0  0  0
 10 11  1  0  0  0  0
 10 12  2  0  0  0  0
 10 27  1  0  0  0  0
 11 32  1  0  0  0  0
 12 34  1  0  0  0  0
 13 15  1  0  0  0  0
 13 35  1  0  0  0  0
 14 16  1  0  0  0  0
 14 35  1  0  0  0  0
 15 17  1  0  0  0  0
 15 22  1  0  0  0  0
 16 17  1  0  0  0  0
 16 28  1  0  0  0  0
 17 31  1  0  0  0  0
 18 26  1  0  0  0  0
 19 26  1  0  0  0  0
 20 26  1  0  0  0  0
 21 33  1  0  0  0  0
 23 28  1  0  0  0  0
 24 25  1  0  0  0  0
 24 32  1  0  0  0  0
 25 33  1  0  0  0  0
 29 35  2  0  0  0  0
 30 35  2  0  0  0  0
  1 36  1  0  0  0  0
  2 37  1  0  0  0  0
  3 38  1  0  0  0  0
  4 39  1  0  0  0  0
  5 40  1  0  0  0  0
  6 41  1  0  0  0  0
 13 42  1  0  0  0  0
 13 43  1  0  0  0  0
 14 44  1  0  0  0  0
 14 45  1  0  0  0  0
 15 46  1  0  0  0  0
 16 47  1  0  0  0  0
 17 48  1  0  0  0  0
 18 49  1  0  0  0  0
 18 50  1  0  0  0  0
 18 51  1  0  0  0  0
 19 52  1  0  0  0  0
 19 53  1  0  0  0  0
 19 54  1  0  0  0  0
 20 55  1  0  0  0  0
 20 56  1  0  0  0  0
 20 57  1  0  0  0  0
 21 58  1  0  0  0  0
 21 59  1  0  0  0  0
 21 60  1  0  0  0  0
 22 61  1  0  0  0  0
 22 62  1  0  0  0  0
 23 63  1  0  0  0  0
 23 64  1  0  0  0  0
 24 65  1  0  0  0  0
 24 66  1  0  0  0  0
 25 67  1  0  0  0  0
 25 68  1  0  0  0  0
 27 69  1  0  0  0  0
 27 70  1  0  0  0  0
 28 71  1  0  0  0  0
 31 72  1  0  0  0  0
M  END
> <OMEGA_C>
3vUBQcgKBEGlNJHBGH/iQAHZ90DV34rBVFD7QM9yDEESbpvBJIOvQLGEBEFGBZnB3B6bQLIRWb8M
FKDBs3jJQDhFID+CgKrBOiy4QJ59+EBiwI7BT9jQQD7mDEFSeJ/BMEqlQLdE4T7a76PB4eTZQBFt
4L8ELKnBnnG1QAo5+r8fpqLBirTjQA87776JH63BGeuzQB0T5z8RRY/BCf+wQCygiUCUeYTBssij
QP1vJUBmN5nBE6qfQG+Am0CJKo/BjxWHQP9ZckDOwJXBV4e2QOBGA0Fh87HBWF3tQIJlIEEbRbDB
eLuiQOP+JkHm06nB8YoFQTVeWsCz1o7BAlSKQAcC0T/OsKDBZiaUQPwy5kAWCojBByucQB6cX8Aw
65TB3pfAQNuEg8ABRY7BwE3GQKHGFUFMtqrB2Wj0QLfINMDjtKvBDWGBQH6Gv0D0Ho3BSCb3QJ1e
WECqqI3BiPnaQPQlDkDkyHnBj7lsQPjYjUBMEJ/B1omqQMdCUMDr0J/BP/DfQJBaRsBSm4vBxTID
QaRBjb6abrPBdCzTQE/AOUCdHIfB1ysSQc7UA0EtN47BjT/pQN7j6kBjC4PBx50KQeKbEkF4PqDB
xxWPQPV3BEE7ApzBFkB+QAdlfb8YJJvB3grRQOIRzj9vha3BGmOYQJOetz9oqIrBlLPHQGJ7dD87
3JHBgULDQLeuokAtT4DB4BGWQHyrfkBW2X7BgZq/QJpjPkBEnZ3BPsa6QKogp0DP95PB8ntZQFiG
WUA5z5DBawCvQLqKCUHC9LnBpbzPQHMf7kBDmbLBRaSZQIEp+EAKcK7BucrjQLZaJkFxMrjB9d34
QJrSLUE2XKvBsY0DQZOIFEHJL7HBkE+bQJ1GLUEZ1rHB6syFQHzKH0GpV6bBuNqtQCgiNEGbrKTB
60YQQXnTJcBnfozBaLYKQULzisCv6orBUhkGQZOrYsClkpfBWK+AQI7IC0AM6qfBX0ZbQPVsoz9s
dpzBXb6gQOqF3UACHYDBBg52QCuW/kAHIofBLs+AQJXyhcCDCpXBiVGSQNebIsDmR5HByFGzQFsO
kcDl2obBpxjQQH0KncC/7ZLBMzYGQfppIMA4V7DBkScAQeT5TcAi+6TBCJdpQPpTyECxI5TBZ8RJ
QDxEpUAR+JzBc3kDQS+cAkF0CpLB8KrlQILp9UAmhIvBeNv9QKM3C0HhMpzBQ9uxQEJ+BEEBUZnB
F+qaQCKAV7/m4J/B6wHDQIaRMT8WQqvBCwG7QLT190BXII/BIwvTQEFaDEE5+J/B5eWgQNtw5z7I
HaTBV/nYQHYQ0r9D7KnBmSK3QCcT8b/Tv6LBBP7eQOOpsr5hJa7Byv+vQPcb5D83GI/BYqqwQJ+G
iUAsj4TBm/SfQCXuI0D+CZnBgjGfQK50m0AfO4/BD9eEQBw3c0DulJXBwCjvQOsTH0F8B7HBiB+m
QDt5J0Fe+6nBaG+1QKdLA0FMM7LBaJFSQBkhhcBC25LB/mSFQBztzT85TKDBJAeXQK/Z5kCyNIjB
U9bFQNpWUMB34JPB5Ru1QEMSkcBgiI7BMeTHQOpuFUGPIavB6/f0QLnkKsBBmqzBOX6CQGTBwEDD
KI3B2x31QHbSUUD54I3Bc2nYQHWHC0DdzXnB0mtoQChgjkD94p7BqaayQM0nSMBOU57BUn6JQLVG
jMBLuIrB5xQAQawAx73MzLTBVO/QQOOzNkA6KofBFdATQcriAUFIQI/BIcrsQIWY6ECjvoPBRNQL
QXIBEUFYKqHBJiSRQG4IBUGfFpzB8sSAQH58hL+acZrBUKrHQGZo1z8Ghq7BZm2UQE4VuT+hVIrB
DbTCQLibaD8UsZHBTizEQKEcokAgk4DBYMGVQIyQgED8sX7BvN67QBKeOkCelp3BUVi6QK/EpUDg
M5TBOetUQDnXXECIeJDBXx3lQB47JUHY4bjB1Zf8QII6LEHAPazBtcsDQauaEkHPI7LBx0GeQHzm
LUFI77HBJgSJQC74IEF6QKbBHCSzQBVZNEHl8KTBEXWtQOexCUHYJrrB8VvNQFP87EAFCLPB7mCY
QHKe+UAkcK7B8WQTQPf/gcB0DY/BvZBhQAQ2T8AxRJfBMtJRQHZaoMAeb5jBeBdzQCrSCkBwRKfB
ljNUQFiBmz97uJvBhxCkQCHL3UD6WYDBB519QFMGAEHkKYfB0lG9QBCAGMBz9Y7BSdfoQFYHVMCb
rpTBeh22QJhVq8D2YpTBkuHJQIHnmMAbtIfBN3YFQVIRFcBbvrHBh78BQQA+QMAv/qXBqddrQHnZ
yUDnJ5TBPGpHQKR/pkDzy5zB9dMDQS3xAUHaMZLBcTTmQNJ59UBEmIvBzr3+QDY+CkETbZzB4Jmy
QBAQBEFHepnBPhWbQLqWWL/KrZ/BLg3CQNhbNT/eJqvBMJC7QGS490BGN4/BUO/TQCKNC0FOMKDB
UVKgQGHK5z5L7qPBOL7YQOhRz7/iAKrB37q3QAxG8L8lqKLBhjHeQGuvpb5EKq7B6R+vQDjj5D/6
2Y7BsBiwQOLdiUD5aITBCDCfQAn9I0DC1JjBXsmeQAuqm0B3HI/B7j2EQAC1c0AQbpXB3SW3QI3/
AUGrb7LB/TXwQHIlHkEjQbHBZ7GmQHc4JkHGbarBzSpKQDlJhMDlGZLB9pyEQJVHzT/SDKDBdmOX
QPdZ50DSPojBwOq+QHRxTcA4HZPBaB+xQE64ksBi6o7B0vLIQM1cFEG2aavBRLf0QD8DKcDQ4azB
XGuCQDNEwUCXGI3BQG30QBjYUUDqs43B0q/XQGtUDEDDXHnBAKVnQLCTjkDOw57Bw8O0QEStSMBW
Xp7ByjiJQCaNoMC7xJPB9g//QLDQb72737TBIjrQQEQnN0Cp94bBbykUQTYbAUH9Z4/B+y3tQJyz
6EAhwoPBylUMQTGpD0GJdKHBveeRQNylBEH3QpzBoUiBQMmYhr+IK5rBokrGQKTD2T/yYa7BdIGT
QADMuj9pEorBkbPBQPYEaT+raJHBaKXDQHdzokATcIDBwR2VQEEQgUCPaH7Buii7QP9AOkAfZJ3B
OAu6QBqnpUCNFpTBvodTQFzUXUADUZDBc0qvQHc1CEGwbrrBnGPPQHaj6kDoKLPBxh2aQMDT9kBu
tK7BMFXmQHQaJEGBKLnBTyH9QKZ1K0GBfazBmX4EQSHOEUEgQLLBpveeQBRyLEEgbrLB3puJQEac
H0EBvKbBTzWzQCBFM0HEa6XBG0wRQPqdkcBtE5bB1LE9QGkpgcDEeYnBYKJYQHI2ScDwe5XBsdZw
QAlcCkBW/qbB0htTQBr6mT+fbJvBi1GkQO1/3kCMXYDBvet+QPJvAEF+RofBR7CtQIjgGsAyw47B
nJLhQLMyRcC/95HB6D3KQPo3qsDMyJDB6tSsQBvUkMCqMYbBag4FQdGuEsCdIrLBb/YBQeNjPsDU
XqbBBaFrQBc5ykCdGZTBdNxGQBHSpkAmtZzB4hQCQa28A0GUT5HBRbbiQKd390Cw84rBVoj7QAks
DEEJh5vBQaavQN6EBEEIDZnBjfSaQPLZWb9mIaDB0w/JQKRVIT+PjKrBjFa4QHZo+EC1yo7BhwLR
QJzKDEGghp/BB/WkQGfk4D4Q96PBCtPZQBWt378UP6nBPXm1QLkd+r+ws6LB6GbjQGJw674bM63B
sqKzQEG+5j/yPY/BhvGwQBWaiUC1c4TBNHqjQKc9JUAGMJnBc4+fQPJ6m0BFI4/BtOKGQIZXckB+
t5XB4I/tQCNAIEG0U7DBLBSjQBoJJ0E/2KnBN2q2QP1BA0Hj+7HB9x4FQVC+W8CjzY7BlvOJQJmT
0D/Dp6DB6EuUQI9O5kBdDYjBwgucQIQXX8Dk7ZTBurC/QLsWhMBBLY7B+nHGQD63FUEcwarB7Yn0
QAsoNMDkxKvB1V+BQLmav0BXF43BYPL2QAEYWEDwsI3BDfjaQBcEDkCTynnBpHhsQGDjjUAlB5/B
yh+rQOlJUMBFx5/Bl1ffQAexSMCtSovBWwQDQd64hr5vhLPBagvTQM+VOUB1HIfBf08SQUdqA0ES
WY7BPXvpQPV06kDkIIPBsLwKQbo5EkElXqDBdi6PQOOVBEHaApzB0OB9QJeAf7/TNZvB+37QQLXG
zj+lj63BCB6YQAKhtz+PnIrBqVbHQMlccz9I1ZHBXkbDQOCiokDrS4DBPAuWQL2zfkBuxn7B2Uu/
QOgRPkC5mJ3Bhqq6QMYIp0C085PBjwZZQNusWUBRxZDBB/vjQDJAJkHSPrjB4j35QN6iLUFvaqvB
oZYDQT1TFEG2Q7HBFaebQDNYLUHt2LHBRBmGQOzoH0EKWKbBL2auQPAiNEHbsaTBXtyuQEeLCUHL
+7nBuH/PQAn37UB2prLBbH+ZQGFC+EC0c67B7fcPQVkuKMDqQYzBtV4KQVRTjMBhQYvBamQFQTj1
YMD7k5fB2R2AQNCsC0DD2qfBvcBaQMF+oj9IZpzB6uigQH213UBsH4DBh392QH/H/kCwKIfBNDaA
QI8ThcDSJJXB2bGSQLCzIcC9T5HBkrGxQKG5kcB724bBECDPQEWnncDh1ZLBFToGQYeZH8AYbLDB
nUgAQZEKTcA7CqXBzmxpQJxayEDoGpTBY6ZJQChcpUBJ75zByxsEQR3q/0B0j5TBzRjqQHIL8UBu
D43B9136QORbCUFyMp7BXzywQMeiA0ER6JjB9+CaQHCqHr/KqqDBjAvCQFNBNz8ys63BDQC+QKjY
9ECOQY/BFxXOQKPCC0GKYaDBNz6gQBrDFT+sRKbBv5HYQKgyyb+25anBmGW4QE421L+bBqLBhoPd
QOUAwL5iuK/BGl2uQNGb3D+prpDBk+OuQCWog0BnpoTBkR+hQJorJ0A5YJrBB76gQBQ6mUCqLY/B
+3yGQKSIdUCcfJbBv8LEQG2MBUF2ErTB6XvZQApaKkGada3BOUWPQGryHEGjh6rBzrYzQK5khcAQ
j43BFf6GQH6b5T/UuaLBH8KcQMOA40CQmofB9VOmQImPdsBYJZ3BE86iQC3YlMC3xZLB9f++QGv6
FUGn8qrBRa/0QLeAKMCJf6vB96uFQE3/vkBDmIzBW2T0QHfJR0BahY3BZH3SQOs98z9Pb3vBEvNw
QN7ykkDUi5/BJRW6QNSwJ8DsVprBS8eGQAhnfsCeW4vBWzv+QETAdr57u7bBWjzOQF48K0CmoofB
IQIVQX/m/EBC7JLBSrf0QDbH4kDxpoXB09QIQWHJDkE0+aPB222OQJqHBEHgpJrBMQeAQBrHPr8k
UpvBDN3GQN1u0z/D1rHB9XeRQKUhrz+giYzB8+fAQKlWXD+DkJPB2QnCQHNQmkCh03/BUnaSQOUe
dEBFDIDBl1y+QCf1PkBERZ7Bc2W9QCG9o0Dtj5PBrYtVQNLXXUD28JHBIxm6QJSmDEF1q7vBQLjm
QIwWAUFhsrTBEZKxQI5o7kBDWLLBLkrOQPhqMUF8BLXBnXTVQMoDNkFI8qbBz4D7QI8TJkGRMa7B
CCGGQFUdJEE5PLLBYBx2QIXjDkGN86jBJNmKQGnEKEGxGqTBXGYNQIT9Z8D1l4fBi9YkQEpjcsDt
mZXBcW4kQJS3p8BcKY3B7iGAQGxnG0AetanBD3VRQIFxuz/rFZ/BkqCsQESM2EDfPYDB4b2FQA70
/EBupIXBcRK6QA6gjMAMAKPBeV2GQJgMa8AqiqDBldSVQLDKtMCUipTBCsDCQL0VmMCYKo/BYZ0E
QequGcBfWLHB8G8CQZbbM8DCvqTBEapwQKBeyUBzY5PBu3RQQKnaqkD2MJ3B

> <OMEGA_E>
mCcrPgAXkz5QMJY+MDojPvAR2z4=

> <OMEGA_NBR>
     42623

$$$$
50216821
  -OEChem-04172616093D

 68 70  0     1  0  0  0  0  0999 V2000
    8.1210    8.2788  -18.1828 C   0  0  0  0  0  0  0  0  0  0  0  0
    7.0870    7.7660  -17.3808 C   0  0  0  0  0  0  0  0  0  0  0  0
    7.8355    8.8104  -19.4548 C   0  0  0  0  0  0  0  0  0  0  0  0
    5.4707    8.3141  -19.1247 C   0  0  0  0  0  0  0  0  0  0  0  0
    4.8433   -0.8273  -20.0555 C   0  0  0  0  0  0  0  0  0  0  0  0
    6.2837    0.6588  -21.3497 C   0  0  0  0  0  0  0  0  0  0  0  0
    5.7580    7.7885  -17.8481 C   0  0  0  0  0  0  0  0  0  0  0  0
    6.5018    8.8408  -19.9424 C   0  0  0  0  0  0  0  0  0  0  0  0
    5.1573    0.4655  -20.5237 C   0  0  0  0  0  0  0  0  0  0  0  0
    6.8144   -1.7188  -21.1891 C   0  0  0  0  0  0  0  0  0  0  0  0
    5.6698   -1.9266  -20.3866 C   0  0  0  0  0  0  0  0  0  0  0  0
    7.1097   -0.4300  -21.6832 C   0  0  0  0  0  0  0  0  0  0  0  0
    5.6318    1.8232  -17.9290 C   0  0  0  0  0  0  0  0  0  0  0  0
    5.5483    4.3156  -16.5724 C   0  0  0  0  0  0  0  0  0  0  0  0
    5.1180    2.6044  -19.1673 C   0  0  2  0  0  0  0  0  0  0  0  0
    4.9973    4.8780  -17.9032 C   0  0  1  0  0  0  0  0  0  0  0  0
    4.2248    3.8068  -18.7257 C   0  0  1  0  0  0  0  0  0  0  0  0
    7.3710   10.0408  -22.0623 C   0  0  0  0  0  0  0  0  0  0  0  0
    5.0545   10.4807  -21.2240 C   0  0  0  0  0  0  0  0  0  0  0  0
    5.6370    8.2362  -22.2335 C   0  0  0  0  0  0  0  0  0  0  0  0
    4.3155    1.6530  -20.0980 C   0  0  0  0  0  0  0  0  0  0  0  0
    4.6429    7.2091  -17.0000 C   0  0  0  0  0  0  0  0  0  0  0  0
    5.0786   -3.4254  -18.5968 C   0  0  0  0  0  0  0  0  0  0  0  0
    6.2884   -4.1068  -17.9350 C   0  0  0  0  0  0  0  0  0  0  0  0
    6.1548    9.3937  -21.3443 C   0  0  0  0  0  0  0  0  0  0  0  0
    7.6641   -2.7818  -21.4783 N   0  0  0  0  0  0  0  0  0  0  0  0
    4.0522    6.0026  -17.6365 N   0  0  0  0  0  0  0  0  0  0  0  0
    7.7322    3.4029  -17.7409 O   0  0  0  0  0  0  0  0  0  0  0  0
    6.8720    2.2370  -15.6403 O   0  0  0  0  0  0  0  0  0  0  0  0
    3.6980    4.4567  -19.8853 O   0  0  0  0  0  0  0  0  0  0  0  0
    5.3347   -3.2167  -20.0085 O   0  0  0  0  0  0  0  0  0  0  0  0
    8.1926   -0.2300  -22.4708 F   0  0  0  0  0  0  0  0  0  0  0  0
    6.0797   -4.1560  -16.5948 F   0  0  0  0  0  0  0  0  0  0  0  0
    7.4377   -3.4197  -18.1820 F   0  0  0  0  0  0  0  0  0  0  0  0
    6.6159    2.9201  -16.9143 S   0  0  0  0  0  0  0  0  0  0  0  0
    9.1387    8.2651  -17.8217 H   0  0  0  0  0  0  0  0  0  0  0  0
    7.3109    7.3550  -16.4075 H   0  0  0  0  0  0  0  0  0  0  0  0
    8.6375    9.1985  -20.0651 H   0  0  0  0  0  0  0  0  0  0  0  0
    4.4522    8.3154  -19.4839 H   0  0  0  0  0  0  0  0  0  0  0  0
    3.9679   -0.9787  -19.4415 H   0  0  0  0  0  0  0  0  0  0  0  0
    6.5126    1.6445  -21.7270 H   0  0  0  0  0  0  0  0  0  0  0  0
    4.7759    1.4511  -17.3467 H   0  0  0  0  0  0  0  0  0  0  0  0
    6.2481    0.9738  -18.2586 H   0  0  0  0  0  0  0  0  0  0  0  0
    6.1214    5.0976  -16.0526 H   0  0  0  0  0  0  0  0  0  0  0  0
    4.7115    3.9906  -15.9367 H   0  0  0  0  0  0  0  0  0  0  0  0
    5.9832    2.9950  -19.7230 H   0  0  0  0  0  0  0  0  0  0  0  0
    5.8402    5.2441  -18.5078 H   0  0  0  0  0  0  0  0  0  0  0  0
    3.4040    3.4181  -18.1050 H   0  0  0  0  0  0  0  0  0  0  0  0
    7.0593   10.4126  -23.0495 H   0  0  0  0  0  0  0  0  0  0  0  0
    7.7502   10.8783  -21.4582 H   0  0  0  0  0  0  0  0  0  0  0  0
    8.1650    9.2899  -22.1874 H   0  0  0  0  0  0  0  0  0  0  0  0
    4.8121   10.8700  -22.2239 H   0  0  0  0  0  0  0  0  0  0  0  0
    4.1525   10.0410  -20.7733 H   0  0  0  0  0  0  0  0  0  0  0  0
    5.4185   11.3021  -20.5893 H   0  0  0  0  0  0  0  0  0  0  0  0
    5.3885    8.6236  -23.2325 H   0  0  0  0  0  0  0  0  0  0  0  0
    6.4169    7.4656  -22.3228 H   0  0  0  0  0  0  0  0  0  0  0  0
    4.7380    7.7969  -21.7766 H   0  0  0  0  0  0  0  0  0  0  0  0
    3.9998    2.2087  -20.9934 H   0  0  0  0  0  0  0  0  0  0  0  0
    3.4275    1.2894  -19.5602 H   0  0  0  0  0  0  0  0  0  0  0  0
    5.0480    6.9330  -16.0153 H   0  0  0  0  0  0  0  0  0  0  0  0
    3.8572    7.9686  -16.8734 H   0  0  0  0  0  0  0  0  0  0  0  0
    4.1913   -4.0648  -18.4787 H   0  0  0  0  0  0  0  0  0  0  0  0
    4.8980   -2.4544  -18.1124 H   0  0  0  0  0  0  0  0  0  0  0  0
    6.3627   -5.1253  -18.3438 H   0  0  0  0  0  0  0  0  0  0  0  0
    8.4171   -2.4606  -22.0527 H   0  0  0  0  0  0  0  0  0  0  0  0
    8.0310   -3.1564  -20.6268 H   0  0  0  0  0  0  0  0  0  0  0  0
    3.6530    6.2812  -18.5100 H   0  0  0  0  0  0  0  0  0  0  0  0
    3.1541    5.1887  -19.6190 H   0  0  0  0  0  0  0  0  0  0  0  0
  1  2  1  0  0  0  0
  1  3  2  0  0  0  0
  2  7  2  0  0  0  0
  3  8  1  0  0  0  0
  4  7  1  0  0  0  0
  4  8  2  0  0  0  0
  5  9  1  0  0  0  0
  5 11  2  0  0  0  0
  6  9  2  0  0  0  0
  6 12  1  0  0  0  0
  7 22  1  0  0  0  0
  8 25  1  0  0  0  0
  9 21  1  0  0  0  0
 10 11  1  0  0  0  0
 10 12  2  0  0  0  0
 10 26  1  0  0  0  0
 11 31  1  0  0  0  0
 12 32  1  0  0  0  0
 13 15  1  0  0  0  0
 13 35  1  0  0  0  0
 14 16  1  0  0  0  0
 14 35  1  0  0  0  0
 15 17  1  0  0  0  0
 15 21  1  0  0  0  0
 16 17  1  0  0  0  0
 16 27  1  0  0  0  0
 17 30  1  0  0  0  0
 18 25  1  0  0  0  0
 19 25  1  0  0  0  0
 20 25  1  0  0  0  0
 22 27  1  0  0  0  0
 23 24  1  0  0  0  0
 23 31  1  0  0  0  0
 24 33  1  0  0  0  0
 24 34  1  0  0  0  0
 28 35  2  0  0  0  0
 29 35  2  0  0  0  0
  1 36  1  0  0  0  0
  2 37  1  0  0  0  0
  3 38  1  0  0  0  0
  4 39  1  0  0  0  0
  5 40  1  0  0  0  0
  6 41  1  0  0  0  0
 13 42  1  0  0  0  0
 13 43  1  0  0  0  0
 14 44  1  0  0  0  0
 14 45  1  0  0  0  0
 15 46  1  0  0  0  0
 16 47  1  0  0  0  0
 17 48  1  0  0  0  0
 18 49  1  0  0  0  0
 18 50  1  0  0  0  0
 18 51  1  0  0  0  0
 19 52  1  0  0  0  0
 19 53  1  0  0  0  0
 19 54  1  0  0  0  0
 20 55  1  0  0  0  0
 20 56  1  0  0  0  0
 20 57  1  0  0  0  0
 21 58  1  0  0  0  0
 21 59  1  0  0  0  0
 22 60  1  0  0  0  0
 22 61  1  0  0  0  0
 23 62  1  0  0  0  0
 23 63  1  0  0  0  0
 24 64  1  0  0  0  0
 26 65  1  0  0  0  0
 26 66  1  0  0  0  0
 27 67  1  0  0  0  0
 30 68  1  0  0  0  0
M  END
> <OMEGA_C>
eO8BQSV2BEFKdpHBU8jiQMyC+EDwC4vBR7z6QHX3DEFlo5vBCxCvQJIGBUFk/5jBk/yaQPXKU7/B
caDByBPJQE6lKD8xzKrBjkG4QHc7+UD6yI7Bgw7QQLtzDUEBip/BWwilQMJR7j5/MKTBTA/aQE0A
3L9Jg6nB7m61QEGa9r+1F6PBxYLjQNAo3L48d63BgDe0QGJf6T+Vbo/BwIuxQKYZikAulITBlMaj
QDGvJkCMVpnBPeqfQJgYnEC2OY/BcTGHQE6ic0AlzpXBGt/rQD+nIEGWf7DBPL6hQAyxJ0HLyqnB
qGK0QJrHA0Ev3rHBMBiKQCOX0z/HyKDBbpKUQFGx5kDr/4fB5oOiQKk5W8A5xpTBPDrJQPpqg8DI
eo/BBvTEQHtMFkEWwarBlkD1QM8JMsCf06vB9KuBQP0UwEB2F43BAm73QJ7IWUBD7Y3BbufbQDkq
D0C/PnrB/6tsQCOdjkAKFZ/BqbWqQMDdTcBxEaDBCBUDQWKBa74sxLPB7IzCQBz+hMA8woTB9AHu
QNvbWsDBdJHBFrXTQPXiOkCCUIfBQTgSQfM9BEHcko7BffLpQHdc60CFQoPBZDMKQf4sE0FXhaDB
aniOQNYLBUER35vB7vF9QHqOer8miJvBTGfQQKJ+0j/g0K3BgdSYQEq8uT8XxorBrvDHQAhOeT+y
EZLBd+LDQGMfo0DCa4DBb8SWQFNmf0Cj/H7BpXa/QM6tP0CuyJ3B/eK6QPXPp0DoD5TB79pZQLDC
WkD+1pDBEubhQCWaJkFzZbjBugH4QFoNLkFzqqvBr6MCQUSjFEG2f7HBWPyZQIPrLUF8yrHBjOGE
QAaoIEGuL6bBI2StQDPVNEHLtqTBRW6sQHj6CUFA3LnB81bNQAfm7kAWlbLB2J2XQGuA+UBvNq7B
ufx/QIdbDUBm8qfBEVxbQBoKpT9Ke5zB94ihQEfb3UA8H4DB4dx2QKL+/kC3/IbBZR+GQJsSgsBS
1JPBULycQKgVHcAu5pDBZpvLQEwCpMAtwJLBRawGQeV6HcD3a7DB8H4AQVQCSsCnA6XBWstpQDn/
yEBqFJTBSN1JQJQJpkC085zBg+IBQQ17BEGtYZHB7ZjiQBKk+ECc+orB2sb6QLzgDEGWlpvBKxev
QEvjBEGNApnBFRKbQPumU7/reaDBy2DJQMUiKD9PyqrB0CK4QGc2+UB2w47BaCrQQLBIDUEgiZ/B
xzulQL+I7j5wNqTBphnaQLyM3L/EiKnBunC1QLvb9r9HHqPBubjjQA1T3r4ida3BlVe0QBbJ6T+u
d4/BXIWxQKEtikDblYTBFN2jQMjpJkBjXZnBwNafQMYonEBXOo/BYi2HQDyrc0Auz5XB4L60QPPM
A0HN8rHBDAzsQKu7IEHmarDB89mhQNOHJ0FUuKnBN02KQMDw0z951aDBOWCUQGq75kCv/ofBlluk
QM5WWsCBlpTB86bMQBssgMAPQ4/BDyjFQEw2FkF+varBIzj1QAViMsDh3KvB4IiBQCkZwEDFFo3B
hnX3QD83WkCv7o3BsvHbQPxOD0AxS3rBwGJsQLSdjkCIEp/BRMWqQCXSTcCz+p/BUT0DQdYIcr7p
ubPBawjLQJWqb8AWnYTBr1LxQBwcXsCOSZPBJr7TQK0iO0DlVIfBZiUSQSRPBEHIdY7BGKbpQAGt
60CYKoPBV0AKQW8QE0FXdaDBmI2OQDjVBEEW7JvBDwl+QDLpeb/fkpvBcdrQQCM80j9Vya3BR/mY
QOPKuT8e0YrBpiHIQEmcej/EHJLBvtXDQLU4o0CzbYDBQsWWQIB3f0Ap/n7BdIe/QIckQEBszJ3B
Z8i6QB/up0DiEJTBbPhZQNOUWkAh1pDBkOasQNkgCkEg7LnBCb7NQAj/7kCosLLBCPCXQKti+UDi
Wa7BGyPiQHO7JkGXT7jBHPP3QCYeLkEMiqvBtc0CQcjMFEHma7HBFxGaQEDcLUF/srHBFAeFQHFm
IEFMJKbBb2mtQP+dNEEpmKTBIFaAQICDDUCCAqjBA5xbQLGPpT/ajpzBVj+hQFPw3UDWGoDBXnV2
QJ0L/0BNAofBA1aJQFsyg8AmX5PBhwmdQO9IHMBG25DBUizMQFHvosDLo5DBE6sGQV3bHcDQc7DB
FHcAQRaBSsBBDqXBenppQIEAyUBXE5TBtXVJQK35pUCp7ZzBYYcCQeeOA0EXvJHBUbTjQAJ490Bc
SYvBvir8QLASDEGT65vBGzmwQD/bBEFkPJnBl9mbQBJpW78775/BEo7HQPG5KT/on6rBJiu5QLTq
+EDpAY/Bx3vRQNr0DEEuzJ/B0EOkQJ434z4PzaPBZmvaQBmo2b/jiKnB2862QAvm9r+03aLB+qHi
QOYrz778dK3BYvKyQMoV6T97FY/BwfKwQLV+ikA5d4TBhGWiQPyfJUCACZnBO1KfQFYdnECgJ4/B
YBqGQJxac0DBlpXBf9TtQBotIEFwsLDBJAikQKm3J0Ff66nBKGa1QEHIA0FHKrLBKqyIQDnmzj/h
T6DBMi2VQIpI50AaK4jBUNS+QLAYasA+5ZXBBfGZQGIlfMC4KY7BeJ3GQF0JFkE2+qrBkkz1QP5j
MMC6RKzBXqOBQDWqwEDjHY3BM3n2QDbXWEDZzY3BD/faQOXvD0BdwXnBMUtqQDIfjkA7557Ba9ms
QObHTcC67p/BhkQCQWMsOL4j8rPB77V1QJG8lMCJS5PBZkGJQEjYMMC8t4rB/cLSQBQAO0C6HIfB
ktESQRgJA0Em3Y7B66vqQF9Y6kBffIPB1wMLQW38EUFk1KDBPaGPQNYeBUEhG5zBBs+AQLEMhL8U
vZrBGs/NQOOx0z9zr63B0JqXQIXhuj+BWorBIHrGQO71dj/WqpHBsoHDQGSTo0A9ZIDBzimWQLiA
gEC6qX7BaAq+QEPdPUCDkJ3B01u6QOkvp0ASEJTB4ctXQOdbW0BfiZDB5AbkQCZPJkGtkLjBpV/6
QCRqLUG+z6vBjm8DQS78E0H4u7HBrWOcQJUiLkE+47HBuPmGQCvhIEHrUKbB2TOwQEGtNEEdzaTB
3KCtQNkuCkEJIbrBEe7NQJ2C7kAl8LLBqGiYQCPf+UBhiK7BXzh7QHRECkBjcafB8L1ZQO9Pnj+T
2ZvB7/2hQCmy3kArQoDB8tV4QOgDAEHbPofBGqHTQKLfN8CglJLB9JvRQP1jksCwJ5fBW7OmQN+K
kMB6YofBc2AGQQr2GsB/AbHBnvoAQeuNScDeoKXBscxpQChkyUCyH5TB5uBHQF/BpUCf0ZzBMuwC
QSt6A0GaZZHBd1DkQLwR90CFCYvBtzL9QPVEDEE8ipvBLiuxQI8gBUFg+5jBRMKbQO0BXr9vWJ/B
4ubCQCiFIj/JPqvB9Nu5QDrO+EDsz47BhZPSQJddDUHncp/BkXGhQIfq1D4o5qPBcCPYQGgy2r/s
yanBWm23QA0y+L//OaLBdjfeQDLv1r6eKK7BhSmxQMzk5j9TM4/BBmOwQIwMikCtqoTBmKqgQEY8
JEC+LJnBS/eeQPzqm0DkWI/BpjuFQIeEc0ACyZXBtBu4QJpKBEE797HB9wbvQFVWIUFSG7DBkmek
QE3PJ0F+nanBhyGGQJevyz/mRKDBHZqVQB/s5kA9GojBBSWgQMqmWsCKv5PBr/1lQESVf8CxV5XB
CfXHQD6XFkGhnarBFnbzQDBzL8AwuKzBZcWBQOrZwECrRI3BaU71QGUOVkClEY7BsarZQK5bDkAb
JHrBt95pQPtkjkChJJ/B+fG0QMN6TsBk/53BJf7+QMa5Pr6u+7TBp05rQOxjpcAXxprBU3Y0QIGR
SMB6B5vBlo3RQO5POUAAUYfB5C4TQR/VAkGvfY7BlBXrQDCN6UCKRIPBL5kLQR87EkG9Y6DBP6CQ
QOSJBUEh4pvByk2CQGRghL/6p5nBxJHHQIjxzj8Tpq7B0seVQNyCuj+laorBJE7EQLwqcD+aw5HB
i0rDQN3fokAfmIDBNnyVQC5pgEB/Dn/Bz1W8QCfsOkAm0Z3BpRy6QLuppkBnQ5TBaU1VQJnfXEA3
wpDBYYGwQBTFCkGP7LnBPE7RQFYv8EDgtbLBwkCbQHIC+kC8e67BQm7lQHyMJ0Gx+7fB5p76QBiZ
LkFYGavB+FoEQbZ5FUH/H7HB3P6cQPFOLkGxlLHBZXWHQLGGIEG5LabBXI2vQGbNNEG2X6TBobV0
QLt5CECqV6fB85JVQJhamz+Nn5vBGTeiQEmT3UDnOYDBVBh6QLzO/0CUE4fB8sudQP+xHMBgnI/B
JCyzQDWgg8B14I7BSQ5KQLkshcC+YI3BZUsEQbwdGsCLGrLBWYQBQVO1RMBuQabByiFrQH8xykD2
SJTBw4ZIQHh6pkAAHJ3BaR4BQdSFBEFMOpDBzNrgQOAU90AXLorBc6X5QPgMDkFRNJrBwfWtQHyB
BUHwHpjBl3CeQP/KN7/u+Z/BU0TJQIQNFD8hf6zBHZe2QLQ8+EDmF47B3z7PQDbADkEXSJ7BHEGm
QMhk+T5EeaXB+kzaQAGs479bMKnBnj65QFyN678YRaHBvb3iQJ/ODb+IeK7BMsi1QEbi5z9e/JDB
wMKwQO5eh0BmPIXBznKlQAmsKEAwtZrBiamfQI4Lm0Ctv4/B1/+HQJNKc0Af1pbB0n21QBzZBkFI
ALHBXcfrQPQBJEFXiK7BY+GgQIWnKUHaDqjB842MQMSj3D93p6LBZp+SQKAF5EB2t4fBDqLPQM0Y
fMAd55fBUF39QG+DX8BBSJTB8sbEQO6xGEEhTanBSlHyQIKmOMBhPKzBN7OAQKwdvkCqVY3BedL3
QIdmWkCLlI7BpLbbQDVuCEA7wnzBZXduQIjOj0De65/BwQOwQJWzOcBhWJrBN+QBQVwz6b7DcLXB
X0sIQWynkcAgdI/BPxT9QKqeHMDvW43Bz+XTQFfiN0CiU4jBKk4RQVMdBEG/NY3BEpfnQBFo6ECB
ioLBOcMJQVvjFEFgzJ7BMpaNQEGnBUH9JJvBWk6DQN+YSL+npprBWZXQQKsYwj86XrDBf1CaQDa9
sj8VmYzBIUDKQFKRfT9A1ZPBr07CQOTin0CFsYDBVsiVQNoYd0DsaoDBKi7BQJlBRECo457BWsy6
QIgRqECwT5TBB2BbQJidV0DcH5LBlwCuQB7ZDUHk2rjB6/DOQPqm9UA66bHBaayYQABg/kB+tK3B
Q0biQJK2KkFuULbBFPf2QGT4MEEmR6nBON0CQcpZGEFqta/Bfo2ZQLetMEGE6q/BNf2DQGr+IUFk
zaTB/KKrQL9RNkElkqLBf+OFQDiXEkCJAqrBKWRcQCcutT8O8p7BKQ2fQGLz2UB8wX/BJx5yQLLH
+0CQkYbBsIbTQESXkcAxKJ/BskLCQHbmkcBRc5HBjJIHQXX5TcDCjZvBHLoDQfRhJ8BV17HBQ/IA
QfTTT8BR4KXB+IRoQMsgyEBuRJTBCZ9KQNKDpkD0lZ3B

> <OMEGA_E>
4AxkPjj1ZD7QFmY+AM1RPrzRsj4=

> <OMEGA_NBR>
     48333

$$$$
50216814
  -OEChem-04172616093D

 71 73  0     1  0  0  0  0  0999 V2000
    8.1367    8.2227  -18.1897 C   0  0  0  0  0  0  0  0  0  0  0  0
    7.0911    7.7352  -17.3874 C   0  0  0  0  0  0  0  0  0  0  0  0
    7.8646    8.7503  -19.4662 C   0  0  0  0  0  0  0  0  0  0  0  0
    5.4903    8.2986  -19.1406 C   0  0  0  0  0  0  0  0  0  0  0  0
    4.8625   -0.8268  -20.0184 C   0  0  0  0  0  0  0  0  0  0  0  0
    6.2672    0.6705  -21.3391 C   0  0  0  0  0  0  0  0  0  0  0  0
    5.7643    7.7781  -17.8592 C   0  0  0  0  0  0  0  0  0  0  0  0
    6.5330    8.8036  -19.9572 C   0  0  0  0  0  0  0  0  0  0  0  0
    5.1487    0.4663  -20.5054 C   0  0  0  0  0  0  0  0  0  0  0  0
    6.8099   -1.7043  -21.2023 C   0  0  0  0  0  0  0  0  0  0  0  0
    5.6997   -1.9186  -20.3547 C   0  0  0  0  0  0  0  0  0  0  0  0
    7.0958   -0.4112  -21.6860 C   0  0  0  0  0  0  0  0  0  0  0  0
    5.6012    1.8241  -17.9050 C   0  0  0  0  0  0  0  0  0  0  0  0
    5.5239    4.3223  -16.5609 C   0  0  0  0  0  0  0  0  0  0  0  0
    5.0957    2.6022  -19.1484 C   0  0  2  0  0  0  0  0  0  0  0  0
    4.9797    4.8803  -17.8964 C   0  0  1  0  0  0  0  0  0  0  0  0
    4.2046    3.8093  -18.7160 C   0  0  1  0  0  0  0  0  0  0  0  0
    5.6970    8.2034  -22.2607 C   0  0  0  0  0  0  0  0  0  0  0  0
    7.4221   10.0150  -22.0618 C   0  0  0  0  0  0  0  0  0  0  0  0
    5.0959   10.4424  -21.2484 C   0  0  0  0  0  0  0  0  0  0  0  0
    4.2977    1.6474  -20.0787 C   0  0  0  0  0  0  0  0  0  0  0  0
    4.6379    7.2200  -17.0123 C   0  0  0  0  0  0  0  0  0  0  0  0
    6.3127   -4.1060  -17.7547 C   0  0  0  0  0  0  0  0  0  0  0  0
    5.1757   -3.3421  -18.4798 C   0  0  0  0  0  0  0  0  0  0  0  0
    6.2005    9.3590  -21.3612 C   0  0  0  0  0  0  0  0  0  0  0  0
    7.7381   -3.4869  -17.9130 C   0  0  0  0  0  0  0  0  0  0  0  0
    7.6374   -2.7654  -21.5515 N   0  0  0  0  0  0  0  0  0  0  0  0
    4.0406    6.0122  -17.6395 N   0  0  0  0  0  0  0  0  0  0  0  0
    7.7075    3.3942  -17.7190 O   0  0  0  0  0  0  0  0  0  0  0  0
    6.8362    2.2418  -15.6154 O   0  0  0  0  0  0  0  0  0  0  0  0
    3.6850    4.4568  -19.8803 O   0  0  0  0  0  0  0  0  0  0  0  0
    5.4387   -3.2039  -19.9027 O   0  0  0  0  0  0  0  0  0  0  0  0
    8.1742   -0.2012  -22.4766 F   0  0  0  0  0  0  0  0  0  0  0  0
    8.4950   -3.8238  -16.8372 F   0  0  0  0  0  0  0  0  0  0  0  0
    8.3440   -3.9890  -19.0189 F   0  0  0  0  0  0  0  0  0  0  0  0
    7.7108   -2.1291  -17.9923 F   0  0  0  0  0  0  0  0  0  0  0  0
    6.5868    2.9206  -16.8931 S   0  0  0  0  0  0  0  0  0  0  0  0
    9.1531    8.1925  -17.8257 H   0  0  0  0  0  0  0  0  0  0  0  0
    7.3044    7.3281  -16.4101 H   0  0  0  0  0  0  0  0  0  0  0  0
    8.6756    9.1177  -20.0775 H   0  0  0  0  0  0  0  0  0  0  0  0
    4.4735    8.3126  -19.5044 H   0  0  0  0  0  0  0  0  0  0  0  0
    4.0011   -0.9847  -19.3863 H   0  0  0  0  0  0  0  0  0  0  0  0
    6.4879    1.6597  -21.7121 H   0  0  0  0  0  0  0  0  0  0  0  0
    4.7416    1.4589  -17.3239 H   0  0  0  0  0  0  0  0  0  0  0  0
    6.2144    0.9701  -18.2286 H   0  0  0  0  0  0  0  0  0  0  0  0
    6.0985    5.1043  -16.0430 H   0  0  0  0  0  0  0  0  0  0  0  0
    4.6836    4.0037  -15.9264 H   0  0  0  0  0  0  0  0  0  0  0  0
    5.9650    2.9880  -19.7011 H   0  0  0  0  0  0  0  0  0  0  0  0
    5.8267    5.2384  -18.5001 H   0  0  0  0  0  0  0  0  0  0  0  0
    3.3802    3.4267  -18.0963 H   0  0  0  0  0  0  0  0  0  0  0  0
    5.4591    8.5938  -23.2612 H   0  0  0  0  0  0  0  0  0  0  0  0
    6.4803    7.4355  -22.3436 H   0  0  0  0  0  0  0  0  0  0  0  0
    4.7941    7.7596  -21.8161 H   0  0  0  0  0  0  0  0  0  0  0  0
    7.1209   10.3884  -23.0517 H   0  0  0  0  0  0  0  0  0  0  0  0
    7.7892   10.8525  -21.4504 H   0  0  0  0  0  0  0  0  0  0  0  0
    8.2217    9.2687  -22.1793 H   0  0  0  0  0  0  0  0  0  0  0  0
    4.8627   10.8346  -22.2493 H   0  0  0  0  0  0  0  0  0  0  0  0
    4.1907    9.9985  -20.8086 H   0  0  0  0  0  0  0  0  0  0  0  0
    5.4510   11.2625  -20.6070 H   0  0  0  0  0  0  0  0  0  0  0  0
    3.9773    2.2016  -20.9733 H   0  0  0  0  0  0  0  0  0  0  0  0
    3.4128    1.2772  -19.5403 H   0  0  0  0  0  0  0  0  0  0  0  0
    5.0332    6.9514  -16.0216 H   0  0  0  0  0  0  0  0  0  0  0  0
    3.8588    7.9884  -16.9002 H   0  0  0  0  0  0  0  0  0  0  0  0
    6.0721   -4.1356  -16.6818 H   0  0  0  0  0  0  0  0  0  0  0  0
    6.3412   -5.1311  -18.1525 H   0  0  0  0  0  0  0  0  0  0  0  0
    4.2336   -3.8933  -18.3440 H   0  0  0  0  0  0  0  0  0  0  0  0
    5.0813   -2.3398  -18.0365 H   0  0  0  0  0  0  0  0  0  0  0  0
    8.3666   -2.4365  -22.1517 H   0  0  0  0  0  0  0  0  0  0  0  0
    8.0388   -3.1608  -20.7254 H   0  0  0  0  0  0  0  0  0  0  0  0
    3.6436    6.2860  -18.5155 H   0  0  0  0  0  0  0  0  0  0  0  0
    3.1425    5.1916  -19.6190 H   0  0  0  0  0  0  0  0  0  0  0  0
  1  2  1  0  0  0  0
  1  3  2  0  0  0  0
  2  7  2  0  0  0  0
  3  8  1  0  0  0  0
  4  7  1  0  0  0  0
  4  8  2  0  0  0  0
  5  9  1  0  0  0  0
  5 11  2  0  0  0  0
  6  9  2  0  0  0  0
  6 12  1  0  0  0  0
  7 22  1  0  0  0  0
  8 25  1  0  0  0  0
  9 21  1  0  0  0  0
 10 11  1  0  0  0  0
 10 12  2  0  0  0  0
 10 27  1  0  0  0  0
 11 32  1  0  0  0  0
 12 33  1  0  0  0  0
 13 15  1  0  0  0  0
 13 37  1  0  0  0  0
 14 16  1  0  0  0  0
 14 37  1  0  0  0  0
 15 17  1  0  0  0  0
 15 21  1  0  0  0  0
 16 17  1  0  0  0  0
 16 28  1  0  0  0  0
 17 31  1  0  0  0  0
 18 25  1  0  0  0  0
 19 25  1  0  0  0  0
 20 25  1  0  0  0  0
 22 28  1  0  0  0  0
 23 24  1  0  0  0  0
 23 26  1  0  0  0  0
 24 32  1  0  0  0  0
 26 34  1  0  0  0  0
 26 35  1  0  0  0  0
 26 36  1  0  0  0  0
 29 37  2  0  0  0  0
 30 37  2  0  0  0  0
  1 38  1  0  0  0  0
  2 39  1  0  0  0  0
  3 40  1  0  0  0  0
  4 41  1  0  0  0  0
  5 42  1  0  0  0  0
  6 43  1  0  0  0  0
 13 44  1  0  0  0  0
 13 45  1  0  0  0  0
 14 46  1  0  0  0  0
 14 47  1  0  0  0  0
 15 48  1  0  0  0  0
 16 49  1  0  0  0  0
 17 50  1  0  0  0  0
 18 51  1  0  0  0  0
 18 52  1  0  0  0  0
 18 53  1  0  0  0  0
 19 54  1  0  0  0  0
 19 55  1  0  0  0  0
 19 56  1  0  0  0  0
 20 57  1  0  0  0  0
 20 58  1  0  0  0  0
 20 59  1  0  0  0  0
 21 60  1  0  0  0  0
 21 61  1  0  0  0  0
 22 62  1  0  0  0  0
 22 63  1  0  0  0  0
 23 64  1  0  0  0  0
 23 65  1  0  0  0  0
 24 66  1  0  0  0  0
 24 67  1  0  0  0  0
 27 68  1  0  0  0  0
 27 69  1  0  0  0  0
 28 70  1  0  0  0  0
 31 71  1  0  0  0  0
M  END
> <OMEGA_C>
HTACQTWQA0GbhJHBUOriQN6G90BrGYvB/qr7QCcBDEHVupvBpbCvQPPGBEEMIJnBTJmbQFmqU7+b
JaDBhYzIQDalKz+LtqrBY3W4QBXm+EC5347Blw7RQJLbDEFmqJ/B1sGkQHG+7j4eC6TBh+rZQAcm
2r9CnqnB0mO2QMyU9b9p1qLBdxDjQLKG0r7ZfK3BLz2zQKZ66T9+PY/BZcOwQPtPikCwfITB4Q+j
QIOKJkD1L5nBuVmfQM0rnEDJK4/B64uGQE3Lc0BdupXBJU62QDBBA0HhFbLBKoLtQIc9IEGjfrDB
xRGjQCEUJ0HP/KnBp4aJQIbe0j82oaDBgGmUQDgK50A6GYjBzgHKQD9kg8CpCY7Bb5+lQDzkVcC6
1pPBuGrGQH2+FUHO46rBvp73QL0oX8DmTY/B7GX0QH/7MMCRaazBSkyBQJhjwECoHY3BzqP2QCE7
WUCWwI3BdcLaQBR6D0DH2HnBUNdrQPKdjkDPCp/BcQmuQCINTcDJOJ/BjckCQfQOTr4m0LPBWusH
QXi5dMCnsobBNYEFQV5Mf8CuJpjBRL/2QElDCMAo8I/B9cbSQF/rOkD/JIfBB3MSQX8UA0H8mo7B
X73pQNV/6kDXR4PBSs8KQSziEUHJnqDBGiePQHsABUEVCZzBIQmAQGQVfL8QF5vB45zPQJpx1D9e
sq3BS7uXQDW9uj9Kl4rBodzGQFFXeD8r1JHBnybDQJNWo0AMWIDBJOCVQKcegECg0n7BT+G+QKA7
P0DSm53B7nO6QDShp0AqAJTBq1RYQLtPW0BBxZDBoLCuQCiACUHgFrrBiV7PQOXv7UC2v7LBAWmZ
QLhO+EBRh67Bet7jQLw2JkHtabjBSEH5QNSjLUFdmqvB94sDQbhMFEE0b7HB+JqbQG5aLUGn/rHB
/xmGQOT5H0H5d6bBdG6uQDAzNEE526TBMox+QHnnDEA8yafBUWtaQH17oz97UpzBAhChQOtx3kAu
LIDBovZ2QCuh/0CtM4fBkU7CQJxWhMBCdIXBzOrKQFUypMBaOJHBgnmHQKIsecBrwJLB85miQES/
FcC6SpDBcd0FQTjvG8DANrHBHZ8AQZBKSsCmzaXB9C9pQDknyUCzH5TB1R5JQGIhpkC985zBx2sC
QfIkA0HcqpHBKkfjQHz99kDyPYvBDEv8QJluC0Fw6pvBlkCwQA1JBEHMWpnBukGbQGOjU7+l8p/B
LCjHQAoTMj/kkqrB4d64QDRS+EA7DI/B+r/RQA9ADEG545/BjpOjQER18D7D4qPBqbzZQOd41b9B
j6nBB5+2QAB5878QraLBWDjiQFz9vL6oYK3BSmmyQDBG6D8+Go/Bs5GwQFkZikC8bITBWiKiQFri
JUDhCpnBeCOfQPHlm0BgHY/BGwGGQFyWc0B1n5XBO7fuQEZcH0HvwLDB5WmkQPWrJkFXRqrBJtm2
QIG2AkFvU7LBBymIQDmm0T+hYKDB+72UQPQC50DANIjBmXjHQFQih8AHDo7B9wqmQPhwVMCUpZPB
81nHQMMgFUFYJKvBcEL2QJyOa8DdXo7B3Vv0QG+uLcBrmazByk+BQJhMwEDJF43BwSv2QHGeV0Bh
to3BcTDaQNCMDkDqr3nBUFFrQF6HjkAp+J7BAjqvQFoZTMDv/p7BgUoCQdHRDb6WtLPBjG4HQYHg
jcA/xIfBHYIDQadMcsB/UZjBdqb4QDqdGMDpGovB7UXSQCX7OUB5EYfBUaoSQa6pAkEku47BHvzp
QBI46kD9Y4PBOSoLQUw5EUHOzaDBUcSPQN1wBEFUTZzBz+B/QIjFf7+g1prBR57NQKA72D8fjK3B
o/GWQBw/uj8zaYrBltbFQAr3dD8btJHBuynDQKASo0DZUYDBb66VQMQmgEA3o37B/uq9QGLlPUAI
iZ3BQkK6QB8cp0Bm+ZPBmvdWQLrLW0DNqJDBDEDlQOdWJUFOr7jBP8H6QLG4LEFK4avB+QIEQc9D
E0HeqrHBJR+dQBnwLEEkS7LBS0WHQA3DH0EWwKbB9hCwQDnCM0GTKaXBuGuvQMr5CEFpVrrBX6DP
QMGO7ECF+LLBTMWZQFaW90DBxa7BeY96QDk7DEADe6fBcHlYQH0+oT+J9JvBhmWhQHex3kAXQ4DB
YP13QIPR/0A/XofB7Aa+QMO/isAxoIXB3QbHQHmcpsD4/ZHB6xGGQK/GcMAVpZLB9a2mQHSdFMDm
74/B+qUFQZmBF8ClcLHBVdwAQW+nR8BvGKbBu+FoQDzbyEAQGZTBwvxIQEo7pkCX6ZzBNboBQYC9
BEF69ZDBZd/hQA/C+EAEw4rB2Bz7QF+DDUFIHpvB/UGvQBN1BUFS65jBYSybQCE6Yb9o3Z/BH9jG
QDvKHj/ezqrBtai3QL2b+UBGto7BKsPQQMQWDkFKO5/BP8mjQHpn1T6r46PBTFPYQK1c4L8q3anB
vnK1QN8q/L+j5KLBABnhQNpS675vwq3B+uazQO9z6T8/TY/B5cKwQPd+ikCDooTBiSujQDleJUDw
Q5nBlmufQDo1nECiVo/BYdiGQNZSc0Cr45XBHZ22QN0iBUF5zrHB7PPtQP/vIUGj2q/BiVKjQPa3
KEHfc6nBx/WIQBK5zT/1aKDBQXyTQN/c5kBvIYjBcw7jQO9/L8CJWI/BLrW3QFdrV8BQQ5PBmpPG
QLVaF0GqaqrBNSIEQUx9b8DW643BanPzQJqVM8Bfe6zBUguBQEI+wECPVI3BBdj2QHGeWkCQ5I3B
kVnbQMjMEEBLDXrBGQltQNsljkBqRJ/BqqKvQPdUT8DCr57BPaUBQctbe75TLrTBfo8VQSI7Q8BN
corBdFv9QPw8lcCPa4bBHCsJQXTsi8DpNpfBBybTQFXTO0B8Q4fBieURQSlvBEFA6o3BtGroQABE
60A9+oLBlJMKQUbdE0EL1J/By+mOQB+CBUF79pvB25WAQK65hL9+fZrBY4nNQMX+zT8k2a3BgqKY
QDqwuT/omorBqdXHQFjoeT8h4JHB+OLCQBuoo0B4eIDBq9yVQPAYgECnLX/BR62+QGEnPUC74Z3B
gIG6QFDIp0AXKJTB84dYQFBSW0Al9pDBIlWvQIeqC0HrxbnB7Z/PQNOq8UBmhLLBeYuZQL/s+0CE
YK7Br6PkQLcuKEG/vrfBG6b5QGQnL0H31KrBUrsDQUn4FUFn1bDBwC6cQBJDL0GobLHBAy+GQGCO
IUHrDabBEJiuQFSnNUE8MaTB4bF7QD9WCUDcj6fBhltaQOdEnz8t2pvBBNefQFn53UAbMoDBeGp0
QIAX/0BEOofBWwftQJlN/r+OPJXBjkLdQJdhEMAclofBY+S3QBL4jcAjPpHBdXidQNN6N8Du9o7B
nR4FQXe/HsAzdbHB0X0AQd6ESsDH0qXBMaNpQNUzyUBCYJTB6pFKQATbpUDiP53BrlYCQXLKA0EP
I5HB4CXjQHXq9kAj6IrB4xr8QIf6DEGuMZvBkSWwQBdZBUEj1ZjBmI6bQKqKYL9qep/BAPbEQCoy
Hz+y76rBCcG4QDuj+ECruI7BeZPRQOn7DUFFK5/BSVGiQJmb0D4q7qPBKTTZQLzu3L/JaKnBBEO3
QEkk+b/DGqLB7kfgQOzK4L5/q63B16myQDuv5j90iY/B28ewQMmAiUD90oTByKqhQCZOJEDSc5nB
eDGfQP2Vm0C1do/BCPeFQJXzckCmBJbBsEvuQJBzIkH6qK/BtfSjQAkZKUFHA6nBl662QEvSBUGi
wrHB/BCHQO+Myz+fgaDBYomUQNkp5kAOGIjBrfTvQBXEd8Cs2JLBEELAQGsjWsCYApPBAA/HQGS3
F0HxO6rBIF0HQZhFOcAm+4zBdNbzQN49McDRf6zB0lyBQKTrv0DET43BBh/2QHacV0CZUY7BFQLb
QHjBDUAd0HrBFcJrQCNYjkDFXp/BYTawQLg5TcAs2Z3BLKsAQT7IXL7xb7TBf+sbQVceUsBftY7B
fxkFQShEz7+9kZDB8IEDQYCDO8DPSILBSpjSQIBkOUBkl4fBCJMSQXwkA0FgMo7BvN/pQA7N6ECa
M4PBogsLQRRRE0Fd7Z/Bja2PQHqwBUGYyZvBhSiBQD5Dhb/8DprBgIXKQE2LzT85N67BFICXQFb7
tz/uworBYi/GQN3Ncj9YLZLBT0/DQCZookCtrIDBrPuVQBaGfkAhc3/BZRi9QF96O0BnJZ7BEza6
QJ36pkAXVZTBh4hWQCWmW0D1E5HBnrjkQKIGKUHWdrfBb0b6QPxxL0EZiarBuNcDQfp7FkEg0rDB
q5KcQBf6L0FR5rDBX+SGQIfYIUE2n6XBxYGvQADMNUHRpaPBESivQE+sDEEMpbnBpJHPQB0B80AD
prLBiq+ZQPQj/UBEVa7BFVl3QHrcB0DzqKfBd+9WQIjknD9G45vBbwyhQNrk3ECsM4DBMj53QH+0
/kAuGIfBgZTxQFEjm8Ck0Y7BR+v6QAyBfsCIKpvBMpWsQDOdhcC7D4/BbJm9QHt7HcDMl47BTuIE
QYFzG8A2prHBSz0BQeVcScBuDqbBJONpQH87yUCwTpTBrQdKQHpGpkCiUp3BzTYCQYMqBEHOrZDB
AMjiQAqI90C0gorBbi38QAgADUGB1ZrBl1GwQM7wBEFirpjBvoSbQCq7W78Dip/BxMXEQAgcID+1
KavB9Zu4QB5r+EDdfY7BhdjRQDCgDUFg9Z7B/zSiQOyK1j4sHqTBkTvZQEbV27/pXqnBuTi3QLwE
97/KEqLB9z7gQNSp377owq3Bf1SzQOQc5z9W0I/Bfu6wQLhBiUDN84TBAduhQGvoJEDjp5nBBCif
QHKEm0AMjo/BMPOFQPfXckBeGpbBGvO3QBXyBEF8mLHB5dLuQHTuIUGid6/BNA6kQP5BKEFFDanB
vCSHQPhizT8IuKDByUGUQCqy5UAq+IfB/6HvQDABeMBB2JLBAirAQNz2WMCz9ZLBa5vHQFIQF0FX
GqrBiKUHQRBIOcAqTo3BLu7zQMDgMMCAWazBDj+BQHS4v0A1V43B0G32QFi7WEA5g47BP6XbQOtz
DUA1VXvBZoNqQBpWjkCtYZ/B9vGvQNDrS8D2xp3B9rcAQboKYr7YgLTBswocQX9uU8ByMY/BpHwF
QccE0L/rCpHB90kEQfzaOcBSkILBhQnTQOGSOUARz4fBkF4SQejXA0H5nY3Bvj7pQDX26UAAu4LB
niELQd9aE0H4hp/BWACQQP4CBUEevpvBUiqBQNPngb91F5rBOCbKQOI7zT/Vkq7BaGKYQKN2tj+J
CYvBiBjHQOA7dj+yi5LBME7DQG8sokC+w4DBMjyWQGhcfUCsuX/BDw29QN6+PEDIYZ7BDBO6QAEO
p0DYb5TBrCFXQG/QWkCsHJHBEKSwQMudC0ELiLnBMCLRQPN88UCYW7LB9/OaQCs0+0DcN67BcnXl
QDpJKEEoVbfBDTz6QGkaL0ETYKrB/kcEQQEaFkHKfbDBFNWcQAvyLkEs/bDB+AaHQAvmIEErs6XB
NRevQKQfNUHht6PBo853QLPhCEBE4afBFONWQBtVnz9WHZzBSpKgQEgM3EASFoDBI6V2QPQx/kB7
74bBa/rwQDHRmsDAmo7BjhP6QAt7gMBxLJvBCDisQFaqhMDn9I7B7Q++QEQXHMAWko7BovQEQYB8
G8Aig7HB1UABQQhpSMAV3aXBcwlqQLlhyUDwU5TBI4VIQBQQpkBgQZ3B

> <OMEGA_E>
wGFjPqDDZz4oLII+MGCHPoggiD4=

> <OMEGA_NBR>
     54235

$$$$
50216776
  -OEChem-04172616093D

 69 71  0     1  0  0  0  0  0999 V2000
    4.8112   -0.7879  -20.0777 C   0  0  0  0  0  0  0  0  0  0  0  0
    6.2073    0.7101  -21.4040 C   0  0  0  0  0  0  0  0  0  0  0  0
    5.0782    0.5011  -20.5829 C   0  0  0  0  0  0  0  0  0  0  0  0
    6.8156   -1.6416  -21.1835 C   0  0  0  0  0  0  0  0  0  0  0  0
    5.6824   -1.8616  -20.3788 C   0  0  0  0  0  0  0  0  0  0  0  0
    7.0746   -0.3584  -21.7017 C   0  0  0  0  0  0  0  0  0  0  0  0
    6.9169    7.8713  -18.3933 C   0  0  0  0  0  0  0  0  0  0  0  0
    5.5212    1.7845  -17.9678 C   0  0  0  0  0  0  0  0  0  0  0  0
    5.5336    4.2473  -16.5848 C   0  0  0  0  0  0  0  0  0  0  0  0
    5.5454    8.1974  -17.7792 C   0  0  1  0  0  0  0  0  0  0  0  0
    5.0351    2.6030  -19.1944 C   0  0  2  0  0  0  0  0  0  0  0  0
    5.0173    4.8646  -17.9088 C   0  0  1  0  0  0  0  0  0  0  0  0
    5.6775    8.0104  -19.2952 C   0  0  1  0  0  0  0  0  0  0  0  0
    4.1842    3.8316  -18.7335 C   0  0  1  0  0  0  0  0  0  0  0  0
    5.5460    8.1244  -22.2511 C   0  0  0  0  0  0  0  0  0  0  0  0
    7.4390    9.5880  -21.4058 C   0  0  0  0  0  0  0  0  0  0  0  0
    5.2007   10.5902  -21.9414 C   0  0  0  0  0  0  0  0  0  0  0  0
    4.2261    1.6811  -20.1482 C   0  0  0  0  0  0  0  0  0  0  0  0
    4.7564    7.1917  -16.9052 C   0  0  0  0  0  0  0  0  0  0  0  0
    5.1542   -3.3219  -18.5461 C   0  0  0  0  0  0  0  0  0  0  0  0
    5.9122    9.3474  -21.3725 C   0  0  0  0  0  0  0  0  0  0  0  0
    3.7954   -4.0689  -18.4657 C   0  0  0  0  0  0  0  0  0  0  0  0
    6.3475   -4.0862  -17.8921 C   0  0  0  0  0  0  0  0  0  0  0  0
    7.6895   -2.6927  -21.4482 N   0  0  0  0  0  0  0  0  0  0  0  0
    4.1420    6.0384  -17.6299 N   0  0  0  0  0  0  0  0  0  0  0  0
    7.6729    3.2843  -17.7781 O   0  0  0  0  0  0  0  0  0  0  0  0
    6.7872    2.1179  -15.6873 O   0  0  0  0  0  0  0  0  0  0  0  0
    3.6547    4.5062  -19.8776 O   0  0  0  0  0  0  0  0  0  0  0  0
    5.4352   -3.1475  -19.9532 O   0  0  0  0  0  0  0  0  0  0  0  0
    5.4216    9.2351  -20.0111 O   0  0  0  0  0  0  0  0  0  0  0  0
    8.1639   -0.1457  -22.4754 F   0  0  0  0  0  0  0  0  0  0  0  0
    2.8204   -3.2701  -18.9754 F   0  0  0  0  0  0  0  0  0  0  0  0
    3.4784   -4.3684  -17.1812 F   0  0  0  0  0  0  0  0  0  0  0  0
    3.8266   -5.2133  -19.2024 F   0  0  0  0  0  0  0  0  0  0  0  0
    6.1633   -4.1881  -16.5508 F   0  0  0  0  0  0  0  0  0  0  0  0
    7.5124   -3.4127  -18.1073 F   0  0  0  0  0  0  0  0  0  0  0  0
    6.4761   -5.3324  -18.4181 F   0  0  0  0  0  0  0  0  0  0  0  0
    6.5470    2.8266  -16.9501 S   0  0  0  0  0  0  0  0  0  0  0  0
    3.9410   -0.9560  -19.4604 H   0  0  0  0  0  0  0  0  0  0  0  0
    6.4065    1.6929  -21.8051 H   0  0  0  0  0  0  0  0  0  0  0  0
    7.7052    8.6381  -18.4186 H   0  0  0  0  0  0  0  0  0  0  0  0
    7.3718    6.8830  -18.2312 H   0  0  0  0  0  0  0  0  0  0  0  0
    4.6534    1.4395  -17.3864 H   0  0  0  0  0  0  0  0  0  0  0  0
    6.1021    0.9155  -18.3102 H   0  0  0  0  0  0  0  0  0  0  0  0
    6.1304    4.9936  -16.0400 H   0  0  0  0  0  0  0  0  0  0  0  0
    4.6784    3.9387  -15.9656 H   0  0  0  0  0  0  0  0  0  0  0  0
    5.4333    9.2452  -17.4635 H   0  0  0  0  0  0  0  0  0  0  0  0
    5.9168    2.9764  -19.7359 H   0  0  0  0  0  0  0  0  0  0  0  0
    5.8802    5.1828  -18.5122 H   0  0  0  0  0  0  0  0  0  0  0  0
    5.2706    7.0753  -19.7074 H   0  0  0  0  0  0  0  0  0  0  0  0
    3.3640    3.4645  -18.0991 H   0  0  0  0  0  0  0  0  0  0  0  0
    4.4584    7.9625  -22.2201 H   0  0  0  0  0  0  0  0  0  0  0  0
    5.8593    8.3116  -23.2888 H   0  0  0  0  0  0  0  0  0  0  0  0
    6.0606    7.2308  -21.8683 H   0  0  0  0  0  0  0  0  0  0  0  0
    7.6874   10.4575  -20.7795 H   0  0  0  0  0  0  0  0  0  0  0  0
    7.9588    8.6984  -21.0207 H   0  0  0  0  0  0  0  0  0  0  0  0
    7.7574    9.7792  -22.4412 H   0  0  0  0  0  0  0  0  0  0  0  0
    5.4503   11.4689  -21.3285 H   0  0  0  0  0  0  0  0  0  0  0  0
    5.5311   10.7598  -22.9768 H   0  0  0  0  0  0  0  0  0  0  0  0
    4.1127   10.4292  -21.9254 H   0  0  0  0  0  0  0  0  0  0  0  0
    3.9199    2.2549  -21.0353 H   0  0  0  0  0  0  0  0  0  0  0  0
    3.3324    1.3109  -19.6245 H   0  0  0  0  0  0  0  0  0  0  0  0
    5.4470    6.7865  -16.1510 H   0  0  0  0  0  0  0  0  0  0  0  0
    3.9479    7.7435  -16.4033 H   0  0  0  0  0  0  0  0  0  0  0  0
    5.0503   -2.3434  -18.0544 H   0  0  0  0  0  0  0  0  0  0  0  0
    8.4352   -2.3682  -22.0302 H   0  0  0  0  0  0  0  0  0  0  0  0
    8.0644   -3.0389  -20.5883 H   0  0  0  0  0  0  0  0  0  0  0  0
    3.8069    6.3791  -18.5083 H   0  0  0  0  0  0  0  0  0  0  0  0
    3.1383    5.2520  -19.5953 H   0  0  0  0  0  0  0  0  0  0  0  0
  1  3  1  0  0  0  0
  1  5  2  0  0  0  0
  2  3  2  0  0  0  0
  2  6  1  0  0  0  0
  3 18  1  0  0  0  0
  4  5  1  0  0  0  0
  4  6  2  0  0  0  0
  4 24  1  0  0  0  0
  5 29  1  0  0  0  0
  6 31  1  0  0  0  0
  7 10  1  0  0  0  0
  7 13  1  0  0  0  0
  8 11  1  0  0  0  0
  8 38  1  0  0  0  0
  9 12  1  0  0  0  0
  9 38  1  0  0  0  0
 10 13  1  0  0  0  0
 10 19  1  0  0  0  0
 11 14  1  0  0  0  0
 11 18  1  0  0  0  0
 12 14  1  0  0  0  0
 12 25  1  0  0  0  0
 13 30  1  0  0  0  0
 14 28  1  0  0  0  0
 15 21  1  0  0  0  0
 16 21  1  0  0  0  0
 17 21  1  0  0  0  0
 19 25  1  0  0  0  0
 20 22  1  0  0  0  0
 20 23  1  0  0  0  0
 20 29  1  0  0  0  0
 21 30  1  0  0  0  0
 22 32  1  0  0  0  0
 22 33  1  0  0  0  0
 22 34  1  0  0  0  0
 23 35  1  0  0  0  0
 23 36  1  0  0  0  0
 23 37  1  0  0  0  0
 26 38  2  0  0  0  0
 27 38  2  0  0  0  0
  1 39  1  0  0  0  0
  2 40  1  0  0  0  0
  7 41  1  0  0  0  0
  7 42  1  0  0  0  0
  8 43  1  0  0  0  0
  8 44  1  0  0  0  0
  9 45  1  0  0  0  0
  9 46  1  0  0  0  0
 10 47  1  0  0  0  0
 11 48  1  0  0  0  0
 12 49  1  0  0  0  0
 13 50  1  0  0  0  0
 14 51  1  0  0  0  0
 15 52  1  0  0  0  0
 15 53  1  0  0  0  0
 15 54  1  0  0  0  0
 16 55  1  0  0  0  0
 16 56  1  0  0  0  0
 16 57  1  0  0  0  0
 17 58  1  0  0  0  0
 17 59  1  0  0  0  0
 17 60  1  0  0  0  0
 18 61  1  0  0  0  0
 18 62  1  0  0  0  0
 19 63  1  0  0  0  0
 19 64  1  0  0  0  0
 20 65  1  0  0  0  0
 24 66  1  0  0  0  0
 24 67  1  0  0  0  0
 25 68  1  0  0  0  0
 28 69  1  0  0  0  0
M  END
> <OMEGA_C>
KPWZQNK2Sb8Pn6DB8qHGQFvLNT9cO6vB7YCiQPJHAD/XqaTBFxnaQJIg0r/Hd6nBKta1QHRK7r/B
B6PBumLiQAZ/t74fna3B/lbdQAzi+0BhJZPBhK2wQGpr5D/3vY/BbxOxQKzph0CyrYTBTXSxQKYo
A0HIO47BVx+hQM+XJkA6jpnBFY6gQHKqm0AlRY/B6621QLwqAEGlXJrBpeSFQE85dUBA3pXBqnix
QJH9AUFRArLBDwzuQJ5oGUEiP6vBh2ymQJpxKUH9h6/BYzyHQCQv1z9yL6HBLjSYQJwi5kDyPYfB
1O6kQJmZVMBbXpTBqTC9QOWOFUHq+qrBeOhyQD40gsDNuZPB4R7LQCTCgsAVI4/BmRD2QKlULMD1
lavBeIuEQJg6wUADCo3BXYj1QKgxUkCJOY7BbjDZQC6MB0Ar/3rBnOZpQAwzkEBpBZ/BCe2tQPNv
ScA+oJ/BpH2tQOLCE0GwFqDBOp8CQUg9Fb6RzbPBwoA0QPlIUcC0zZfBcJ5eQJrJi8Azc4nBYuZ0
QPzSpsCOnpnBcDnFQCwFhsAkaITBjmXwQDZqWsDZ25DBlDzPQPKiqsA+WJPBA4HRQDjnNEDmmYfB
Ezp8QCq5dL/arpvBOQLNQD+w2D/kcK7BrpD2QMI1CkFOWZPBo+XrQLRB3EBt2ZHBreiUQOFBuD9w
F4vBeETDQBlcaj9De5LBmSzEQHLLn0DpUYDBorWVQMsTfEAdc3/BeN2tQDPsE0FDtYvBkFa9QPh8
PkAN453Bmyq8QMbZpUAOGZTBfqioQKpo4kDRqJ3BdUtXQHm6XUDkypDBNauOQOrM/kDdwrHBKn+7
QGH8BEGBT7rBrPDBQI5i50BA8q7BJf/1QPtRJ0FkPKbBG67+QI4sC0FiKqjBmjz4QKh3HEGjh7PB
v2iuQJGAN0GvoKrByv6wQFIoLEGI0LfBZJuDQPfdJkEwZ6/Bpt96QAxQEEBSSKjBe0ZVQKXKpz/9
/pzBwE2uQOUq2UBWNYHBvap8QJXK90DnOYPBB5yhQIb5FcB5b5DBvvYGQd2QF8DAPbDB6wcBQRV+
QsDBtKTB1aNzQNQhzED3EJTBWNpIQCgQqEAiw5zB3dWaQIZ0U79+P6DB5vrGQLUQMD/a16rB312j
QCLD8D7gHaTBLujZQPY21r+7mKnB5jW2QM0587+Q+6LB5zTiQORww75xkK3B6TTlQF3t70BYL5DB
iZmxQNwp5z/fIo/B83CxQIK1ikAUq4TBqXK5QHX7AUHO7Y3BKqGhQG+WJUBnFpnBYI+gQAxTnEAg
d4/Bs6THQMR6+0AslpnBovGFQDgfdECcmZXBnw2eQFtII0Fq6afBVwO3QMAeAUFG3rDBi67mQJdD
IUEdhLDB0OCHQJvk0T/liqDB/dOWQAKp6EBtEIjB3s6lQKRxWMDbcJTBR+jEQOmpFEF7CqrBkexz
QFFog8D4wZPBiujLQLl5hcC8bY/Bo1v1QN1+LsBZDKzBHM+EQPgQw0D5AI7Bh2H2QAZRVECZ243B
3KvZQJERDkApynnBJYhoQJswjkBY3p7BPWauQJg6TMB6sp/Bn7PZQPP6DkEs+Z/BYUgCQaE3Jr4s
6bPBBTI2QEWaUsAAyJfBcrxfQC/XjMCveInBQWp0QCL7p8Daq5nBGEvGQG6zicDatYTBCkTxQGf5
X8ABGpHBW53PQDX1rMD+4pPB7iTSQFr0OEDyLIfB0r9+QNX9f7+vMJvB2F3NQDG11j+A6a3BDkUB
QbpGAUHgxo7B/gjrQH8mzkCQLo7BzwOWQLY/uz+jaIrBS47EQN3nbz8GuJHBx5zEQC1vo0DHooDB
G0WWQCO1gUDDF3/BnVS6QDzlEkEvgYvBmKK9QE5mPUCigp3BSD28QLMLpUANcpTBXvW3QP244ECF
v53Bo2tYQL5CXUDFUZDBSCWoQK8WMUFzEqPBAPSQQJ/xKEHRkq/BzleFQPY8GkGhkqPBeN7SQEaO
7UAuWrLBfFmeQC8G8EC/i6zBr/WpQMG3BkHvi7jBGkIBQdjyFkH0EbLBT67YQEBvJkE3KrjByOHw
QPNhL0EV7KvBfmN6QMDkDEAtn6fBbKpXQOXtoD97MZzB4kOlQD1+3EAbo4DBVgZ4QMwN/kBnF4bB
jSujQBUrGsDnY5DBCG8GQcBkGcChyrDBTPMAQeL4RcB6TKXBBkl5QK9YzUCqTJXB/eBGQKANpkDp
wJzB8n2bQACMW78QPJ/BaG3CQJ4zMz9VtqrBDbSgQGni4D7Gf6PBI83YQHRi0L8esanBBOe3QAGZ
8b8aSqLBs47eQL94qL44vq3BllPmQLMP9kATYY/BfbWvQAH75D/ClY7BlZ+wQIr9ikD9g4TBHe23
QAnvAkFko4/B0MKfQIgUI0BtoZjBfb2gQF0lnEA1dY/BZ/XOQHFG+EDPGJrB00+FQMqzc0D7ZpXB
GrW1QIVYAEG93LDBosHnQOa2H0HHjrHB1R+kQD5jIkGTxKbB6dmEQOyfyj/Uq5/BqMyXQE3m6UCB
GYnBceC6QOn/VcC1GZPBi23IQMMyE0H0UarBnVCcQF+Zj8BA1Y/BlanrQEjYacCXv5DBQOHzQHbQ
KcAh8qzBbWeFQHRpw0AmeY7BRBv1QLA+UUC/m43B9R3YQAH3DUC/+XjBUyVoQHBWjUBbz57BJ0Oz
QPmDSsAkeZ7BtYThQEAWDEG5LKHBF2X/QFpdgb2TdrTBQQJoQKyGhsAbV5PB0xGbQAGrk8DjBoXB
RFmpQF7+tMCaWpTBlbfwQHfuj8AEUojBeo4AQYdtIMDoZo7Bcez+QPl6h8CnUZnBBcTQQIT+N0Cr
1IbBMuaBQEPah79uqZnB26LGQEzg2D+J6q3BdzEAQcNXBkFlpY3BHNvtQGjE1kAo0YvBmxuUQGPH
uz/VxInBSEvCQExKaD/8DpHBJvfDQPeco0C3foDBlAaVQIaxgkCz7H7BrNWzQFxMFEHhoY7BG8C7
QGwkOEC1RZ3B1M68QNiao0ApbpTBpdPEQCGd2UBqmZ3BuY1WQEdYX0DnDZDBFkmfQOhw7kCb16vB
TbKkQPKfBkHR5bfBa9nPQN6a60AEf7PBXWz1QHEyLUHDDK3BFNMAQdoDFUEmMLTBCn/WQF3WJUHz
lrjBcbKxQMu3L0F9IaLBp6OTQLm4KEF03q3BxCqNQGOKGUFOxqHB3nJwQNtYCEDrnqbBvy1UQBlx
lz8D75rB2ZSoQNLQ3kCi4IHB2NN5QHmj/kCqx4bBmuKxQOawG8Aeto7Bi5sEQSr1EsDaLbLBEJwB
QbKYQcDUlabBNUh6QN8vzEBR4pXBIeNHQMXnpUDT3ZzB/ZmaQG+JUL92uZ/BOb/CQMQbOD8JJavB
yDegQDRP8j5XI6TBwUDZQAJFzb/TkqnBVHq3QNib7L92ZKLBvULfQBiCob7F0q3BVYveQHsW+EB8
KpPBfByvQNjw4z+kT4/BthixQA25iEC5t4TBVCWzQGpSAkFgS47B+TCfQOC1JED2NZnBxM+fQCl+
m0A9VY/BvxO3QMZO/kDRaJrBz6WEQPyLdEAetpXBH7ezQBohAUGlG7LB1UDyQHTKFkEY/arBU9us
QOjKKEF8o6/B7HqEQOSh0D9teaDBM4KXQB4g5kAnZ4fBJ+C4QMKMUMBs7JLBxQjBQKpNFEFS/arB
7iKZQH/Ai8BOlY/BYDfpQMeeZcBRNpDBN/H0QNd/KMDmZqzBVuSDQD8owUAsK43B6qv0QF8ZUEDD
RI7BkHPYQBteCUD5hHrBGUpoQGhkj0Ac/Z7Bd5CyQKJaR8B5YJ7B3GOwQD7UEkHnLaDBg1wAQeAv
hL3oYrTBWJ1iQHSwgcCbQpPBPDeXQM4Gj8CLxITBJz+lQPnYscBP5JPB5Qv/QO1dHMAXAY7Bn/j8
QBajhsBniJjBKgPtQObljMDPkIfBUbfQQE0kNUDdd4fBt1OAQC4Ngb9mVJrB0kjHQB9m2j9hdq7B
9uT4QKG0B0FKYZPBypfrQFjV10BH1ZHBfYOTQKqQuj/jf4rB+kLBQMcEZj9+9pHBfN3EQHHcoEC6
pIDBvRSWQISDf0DZFH/BIC+xQHEuE0EX0YvB/Ta7QITnOkCawZ3BiBS7QNpkpUAfUZTBI7uoQELq
4ECPqZ3BMWpUQDXOXkC7k5DBqqmQQOMM/0BSC7LBiMC+QOLeA0HfWbrBC0nCQMHA5EDZ+67Bf037
QEJwJEHd6aXBWYEAQU8aCEHZ16fBL3r9QNGYGUHfNbPB5fe1QLaaNkHLrqrBq2K4QDc5K0Eq3bfB
c86JQKQsJ0G5sK/BK+5xQE8MDEAkfafBOe5RQE0Dnz8t8pvBoPCrQA4/2UBLAIHBr996QLIL+UAM
24PBzhewQAvWFMDfz47BH3AFQWZiEsCEh7HBe8IBQWTOPsBI2aXBoZNyQL3yy0DVN5TBH/dHQDSy
p0AL3ZzBbBWbQNjTV7/w/p/Bz+bFQMGxLj8R0qrBseWiQECC6D5q7KPB4Z7ZQKgc1r8uq6nBCpC2
QLhX9L/l2qLBAjzhQB6wwb4irK3BOx/nQNta8EAnPpHBO8KwQHpC5T+q147BDTWyQMRYi0DHzoTB
L9m8QGcRAkEbjI3Bk2qhQCgcJEA65ZjBGxuiQCZVnEBQwY/BLTrGQG6q/0BnkJnBmmWGQNTqc0AB
kZXBgeWaQJb3JEEXzqjBqCq2QA8sAkGHkrDBHjvlQPB7IkEvdrDBglGHQOK3zj/iQaDB54OZQNuJ
6ECZI4jBNLunQMnXWMCTL5TBkX7CQKZ0FkFEDqrBwPh4QH2ahMAvP5PB4MLOQBijhMCwUI/BERH1
QKn9LcAnT6zBLoWHQMYNxEC/j47Brtn2QPOIT0CnSY3B4PnWQPg2DkBEvXjBwu9nQKZAjUAU2p7B
oFmvQPrQTMBcf5/BFi3VQNlPEkGBhp/B5X0BQXprF74/MrTB4lE5QJUdVsBXBZfBPldnQPqTjsDX
6ojBFNJ5QE8FqcAZOJnBR+DSQDU5rMB9sJPBhSLKQOd5iMAMj4TBqYbzQA31XMCwPZHBV2jRQMuU
N0Bl04bBNhiAQLMag78nzJrBZrzLQCdC1j+D663Bc6ICQeT/AEEiKJDBNe/sQE3szUARIpDBpNqU
QIYsuz/mKorBeoLDQFLHaT8IUpHB8BbGQGPpo0Cv7oDBOJyWQNvng0DcV3/BaG2/QK52EkHfaYrB
9bO9QN9tOkD5U53B2hC+QDaGo0AuypTBOHu0QMSq5kBq453BcBtaQG24XkBhEJDBkpyjQCtQM0E+
MqTBIkiPQAHCKUFkwrDB2omBQAUuHEGZkaTBtmjSQN6j70AId7HB0M6cQHnF8kD7VazBGI2qQLn2
BkHGhrjBm8QAQUAuGEHdXrHBOqnYQHOsJkH5aLjB7zzuQEYsMUEyK6zBJDJ4QFs5C0CDSqfB4TpX
QDr3nD+ozpvBiCmnQKUJ20BMw4DBv559QCn4/UBXGYbBYa2kQLx6GsDBLJDBvgcGQZ5tGMAtLbHB
YScBQRl9RcANpaXB06+BQNAnz0Dr65XBMyVHQBJ+pUA3y5zBoVObQA7XWb9UX5/Br8DCQDkFMj+V
16rBX8qgQJSL4j5hrqPBg/HYQLsX0b+Fp6nBZ8O3QBFF8b82UKLBxNzeQMRtrb6xx63BPwbmQJmC
7kAQJJDBftavQCDK5D+u047BaQaxQOSOikDCrYTBDXO6QNiXAUFlB47BO7mfQKhmI0DU1JjBmkyg
QNHdm0AUho/BzAfJQKdF+kBvopnBSgCFQAqKc0CIhpXB9SShQJQKI0GrDKjBlem4QK2eAEE78bDB
NOnpQFdHIEH3gbDBNfiEQLKkyz9x7Z/BtUGXQHhz6EBoOojBiv+5QIzFVMBdBZPBCXPHQJ4GFEHS
GarBmCGbQAm5jsCNwY/BmaLqQHrkaMBlh5DBMiv0QA5jKsBzwqzBuAmFQC8Aw0CoLI7BP1r1QMbj
UEBlzo3BSj3YQIhVDUBZannBMudnQKGgjUAc6J7BMe2yQEQUSsAxbZ7BttPbQHcsDkEcAqDB6c3/
QDDFp722fbTBPP5lQDSLhcD9XpPBhnqZQAh/ksCU8oTBsyaoQPdMtMBmLpTBpyAAQR53H8BTSY7B
BAf+QBOgh8CG/pjBL0DvQMXxjsD9+4fBU/zQQGB5N0A9DIfB9YKBQA9Dhr/D2ZnBwinHQP341z/S
E67B98UBQadhAEEnrY7B303rQL6yzECgFI7B802UQBwguz+IAIrBHmXCQEllaD82W5HBJ5vEQHEz
o0ApvYDBd8WVQPY8gkBdBn/BV667QLWFEkFopIvBKaS7QB8YOUBidJ3BXwe8QPfuo0AcjpTBhCm5
QB6l30D7zZ3BO9lVQO2lXkD+OJDB2airQOjAMEENM6PBLX+UQNzQKEHPvK/BfvKHQOhCGkH1v6PB
51zUQLv260ALYLLBEsGfQGKR70A2qKzBwU2sQKVWBkEQpbjBla8CQV2vFUExArLBi1vcQKGWJUHa
LrjBD4n0QMpKLkG85KvBiWJxQA3qCEBe6abBTu9TQHwGmT96QJvB2TelQBE93EDHv4DBuEJ5QHU3
/kAKWobBqfawQCEOGsAuuY7BAdoEQRTrE8DU97HBpqEBQRykQcALVabBtKh6QMRDzUCqgJXB+1NH
QB0JpkCl65zBZv+bQGDVYL8pWJ/Bg6DBQN7HEz8o46vBEpigQNSowz5wWKTBlVDYQGDF3r+Gt6nB
7Xq4QJAI978A66HBFiPdQODq976woa7B7zijQJ6A7kBWJJ/BfRiwQFri4D/7xo/BvYKvQLBth0DC
A4XBI1O6QJTg8ECZTpTBLFSfQOQDIkB0sZnB1o6eQFpumUCfnI/BIGizQFeZDEEs85rBetiDQEgJ
cUAmKpbBI0i9QOx2OEGLpKXBq7amQPocGUE+ErHBoVjzQBGvJEEi9LDBAR2FQKEGyD944qDBFn2d
QFYv50CAqorB/izBQKs4SMCEipHB1BbLQIRZIkEJ76nBwZakQJgBh8AQfYzBL5byQJtFVsAoio/B
etvzQPlPMsDKTazBpCSEQHLOv0C5CI3BJ1D0QCa5UkDrjY7BJsDYQDSlCUB2QHvBqfFnQPoEjkA+
d5/B9Ga2QCNgScDo15zBa9PWQLnIFEF086DBF6T8QOSsk7614bXBjcV1QG9Je8DVpI7B7i2qQEA6
iMD9vIHBx4KtQL4XrsAxvJDBRED8QMG1TMD9AIXBBBEFQc9aG8Df75TBoJz/QMSmksBbt5LBuKLQ
QOJCNUDy0YfBXMuCQNvShL9ikpnBctPFQL3MxT9Mkq/B+vqyQO1H30CSB6bBmqWAQNcC6EAKcZ/B
aMyUQCi0sz8M/orBBy3DQL0AZT+0cJLBkDnCQNccoEDF1YDB4oWUQGPcekBe5X/BIRLbQPAD5EBt
BZTBVPS6QLpnOUD7S57BVgW6QENho0DHhZTBEyGbQL7rF0FYBpjBPF1SQN0+WkD2LJHBodvWQI4Y
P0E5lqDBV0K3QKFSQ0EbZ6zBK+GfQH+7NkHw4aDBBlWwQFlZCUGMKLTB7FmJQOZvF0FrSqzBGLug
QAkHJEGWz7fBB/j8QPjeFEEf+rPB01DsQGhUL0G8vLfBPMAGQQiGK0G9KKzBR/pzQJWjBkAqBqjB
WrBSQIN+mD+iXZzB9k6xQKvw4UBEg4PB37KHQE8gAUHIQonB2zy4QGkKCsB0Eo7BkTAEQaIDH8C+
8rHBiQ4CQewVRMDwx6XB+UZiQLTmxUCZSZPBAJlGQI38pUAmWZ3B

> <OMEGA_E>
OEiqPvhKqT7Ue9Q+uLzKPqw1uD4cu80+eBAIPw==

> <OMEGA_NBR>
     62181

$$$$
50216835
  -OEChem-04172616093D

 72 74  0     1  0  0  0  0  0999 V2000
    8.2371    8.1925  -18.1766 C   0  0  0  0  0  0  0  0  0  0  0  0
    7.1828    7.7303  -17.3698 C   0  0  0  0  0  0  0  0  0  0  0  0
    7.9758    8.6990  -19.4650 C   0  0  0  0  0  0  0  0  0  0  0  0
    5.5963    8.2850  -19.1383 C   0  0  0  0  0  0  0  0  0  0  0  0
    4.8422   -0.7612  -20.1000 C   0  0  0  0  0  0  0  0  0  0  0  0
    6.3069    0.7169  -21.3717 C   0  0  0  0  0  0  0  0  0  0  0  0
    5.8590    7.7797  -17.8491 C   0  0  0  0  0  0  0  0  0  0  0  0
    6.6456    8.7632  -19.9615 C   0  0  0  0  0  0  0  0  0  0  0  0
    5.1606    0.5271  -20.5708 C   0  0  0  0  0  0  0  0  0  0  0  0
    6.8289   -1.6599  -21.2001 C   0  0  0  0  0  0  0  0  0  0  0  0
    5.6792   -1.8574  -20.4130 C   0  0  0  0  0  0  0  0  0  0  0  0
    7.1389   -0.3749  -21.6859 C   0  0  0  0  0  0  0  0  0  0  0  0
    5.5655    1.8282  -17.9355 C   0  0  0  0  0  0  0  0  0  0  0  0
    5.5257    4.3130  -16.5651 C   0  0  0  0  0  0  0  0  0  0  0  0
    5.1063    2.6353  -19.1791 C   0  0  2  0  0  0  0  0  0  0  0  0
    5.0156    4.8970  -17.9027 C   0  0  1  0  0  0  0  0  0  0  0  0
    4.2301    3.8524  -18.7466 C   0  0  1  0  0  0  0  0  0  0  0  0
    5.1466   10.2934  -21.3344 C   0  0  0  0  0  0  0  0  0  0  0  0
    5.8847    8.0661  -22.2608 C   0  0  0  0  0  0  0  0  0  0  0  0
    4.3174    1.7152  -20.1502 C   0  0  0  0  0  0  0  0  0  0  0  0
    4.7213    7.2380  -17.0065 C   0  0  0  0  0  0  0  0  0  0  0  0
    7.5169    9.9545  -22.1053 C   0  0  0  0  0  0  0  0  0  0  0  0
    5.0519   -3.3203  -18.6161 C   0  0  0  0  0  0  0  0  0  0  0  0
    6.3174    9.2693  -21.3893 C   0  0  0  0  0  0  0  0  0  0  0  0
    3.6605   -4.0083  -18.5819 C   0  0  0  0  0  0  0  0  0  0  0  0
    6.1964   -4.1361  -17.9418 C   0  0  0  0  0  0  0  0  0  0  0  0
    7.6689   -2.7348  -21.4782 N   0  0  0  0  0  0  0  0  0  0  0  0
    4.1001    6.0476  -17.6457 N   0  0  0  0  0  0  0  0  0  0  0  0
    7.7062    3.3431  -17.6935 O   0  0  0  0  0  0  0  0  0  0  0  0
    6.7681    2.1911  -15.6186 O   0  0  0  0  0  0  0  0  0  0  0  0
    3.7408    4.5235  -19.9106 O   0  0  0  0  0  0  0  0  0  0  0  0
    7.8844   11.1602  -21.4387 O   0  0  0  0  0  0  0  0  0  0  0  0
    5.3834   -3.1404  -20.0118 O   0  0  0  0  0  0  0  0  0  0  0  0
    8.2420   -0.1838  -22.4455 F   0  0  0  0  0  0  0  0  0  0  0  0
    2.7346   -3.1615  -19.1059 F   0  0  0  0  0  0  0  0  0  0  0  0
    3.2961   -4.3077  -17.3102 F   0  0  0  0  0  0  0  0  0  0  0  0
    3.6618   -5.1439  -19.3325 F   0  0  0  0  0  0  0  0  0  0  0  0
    5.9744   -4.2439  -16.6068 F   0  0  0  0  0  0  0  0  0  0  0  0
    7.3893   -3.5018  -18.1224 F   0  0  0  0  0  0  0  0  0  0  0  0
    6.2917   -5.3803  -18.4791 F   0  0  0  0  0  0  0  0  0  0  0  0
    6.5591    2.8889  -16.8933 S   0  0  0  0  0  0  0  0  0  0  0  0
    9.2515    8.1593  -17.8073 H   0  0  0  0  0  0  0  0  0  0  0  0
    7.3873    7.3382  -16.3845 H   0  0  0  0  0  0  0  0  0  0  0  0
    8.7939    9.0417  -20.0812 H   0  0  0  0  0  0  0  0  0  0  0  0
    4.5803    8.3080  -19.5040 H   0  0  0  0  0  0  0  0  0  0  0  0
    3.9576   -0.9125  -19.4992 H   0  0  0  0  0  0  0  0  0  0  0  0
    6.5466    1.7018  -21.7446 H   0  0  0  0  0  0  0  0  0  0  0  0
    4.6852    1.4796  -17.3756 H   0  0  0  0  0  0  0  0  0  0  0  0
    6.1623    0.9619  -18.2569 H   0  0  0  0  0  0  0  0  0  0  0  0
    6.1112    5.0760  -16.0311 H   0  0  0  0  0  0  0  0  0  0  0  0
    4.6682    4.0094  -15.9465 H   0  0  0  0  0  0  0  0  0  0  0  0
    5.9976    3.0142  -19.7007 H   0  0  0  0  0  0  0  0  0  0  0  0
    5.8800    5.2422  -18.4889 H   0  0  0  0  0  0  0  0  0  0  0  0
    3.3897    3.4783  -18.1435 H   0  0  0  0  0  0  0  0  0  0  0  0
    4.9203   10.6473  -22.3511 H   0  0  0  0  0  0  0  0  0  0  0  0
    4.2557    9.8092  -20.9080 H   0  0  0  0  0  0  0  0  0  0  0  0
    5.4362   11.1478  -20.7049 H   0  0  0  0  0  0  0  0  0  0  0  0
    5.6493    8.4148  -23.2772 H   0  0  0  0  0  0  0  0  0  0  0  0
    6.7033    7.3326  -22.3053 H   0  0  0  0  0  0  0  0  0  0  0  0
    4.9940    7.5952  -21.8194 H   0  0  0  0  0  0  0  0  0  0  0  0
    4.0351    2.2915  -21.0436 H   0  0  0  0  0  0  0  0  0  0  0  0
    3.4096    1.3526  -19.6458 H   0  0  0  0  0  0  0  0  0  0  0  0
    5.1107    6.9527  -16.0181 H   0  0  0  0  0  0  0  0  0  0  0  0
    3.9580    8.0212  -16.8877 H   0  0  0  0  0  0  0  0  0  0  0  0
    8.3759    9.2674  -22.1070 H   0  0  0  0  0  0  0  0  0  0  0  0
    7.2323   10.1881  -23.1419 H   0  0  0  0  0  0  0  0  0  0  0  0
    4.9749   -2.3435  -18.1161 H   0  0  0  0  0  0  0  0  0  0  0  0
    8.4322   -2.4241  -22.0446 H   0  0  0  0  0  0  0  0  0  0  0  0
    8.0214   -3.1124  -20.6220 H   0  0  0  0  0  0  0  0  0  0  0  0
    3.7156    6.3358  -18.5227 H   0  0  0  0  0  0  0  0  0  0  0  0
    3.2073    5.2646  -19.6486 H   0  0  0  0  0  0  0  0  0  0  0  0
    8.6170   11.5619  -21.8908 H   0  0  0  0  0  0  0  0  0  0  0  0
  1  2  1  0  0  0  0
  1  3  2  0  0  0  0
  2  7  2  0  0  0  0
  3  8  1  0  0  0  0
  4  7  1  0  0  0  0
  4  8  2  0  0  0  0
  5  9  1  0  0  0  0
  5 11  2  0  0  0  0
  6  9  2  0  0  0  0
  6 12  1  0  0  0  0
  7 21  1  0  0  0  0
  8 24  1  0  0  0  0
  9 20  1  0  0  0  0
 10 11  1  0  0  0  0
 10 12  2  0  0  0  0
 10 27  1  0  0  0  0
 11 33  1  0  0  0  0
 12 34  1  0  0  0  0
 13 15  1  0  0  0  0
 13 41  1  0  0  0  0
 14 16  1  0  0  0  0
 14 41  1  0  0  0  0
 15 17  1  0  0  0  0
 15 20  1  0  0  0  0
 16 17  1  0  0  0  0
 16 28  1  0  0  0  0
 17 31  1  0  0  0  0
 18 24  1  0  0  0  0
 19 24  1  0  0  0  0
 21 28  1  0  0  0  0
 22 24  1  0  0  0  0
 22 32  1  0  0  0  0
 23 25  1  0  0  0  0
 23 26  1  0  0  0  0
 23 33  1  0  0  0  0
 25 35  1  0  0  0  0
 25 36  1  0  0  0  0
 25 37  1  0  0  0  0
 26 38  1  0  0  0  0
 26 39  1  0  0  0  0
 26 40  1  0  0  0  0
 29 41  2  0  0  0  0
 30 41  2  0  0  0  0
  1 42  1  0  0  0  0
  2 43  1  0  0  0  0
  3 44  1  0  0  0  0
  4 45  1  0  0  0  0
  5 46  1  0  0  0  0
  6 47  1  0  0  0  0
 13 48  1  0  0  0  0
 13 49  1  0  0  0  0
 14 50  1  0  0  0  0
 14 51  1  0  0  0  0
 15 52  1  0  0  0  0
 16 53  1  0  0  0  0
 17 54  1  0  0  0  0
 18 55  1  0  0  0  0
 18 56  1  0  0  0  0
 18 57  1  0  0  0  0
 19 58  1  0  0  0  0
 19 59  1  0  0  0  0
 19 60  1  0  0  0  0
 20 61  1  0  0  0  0
 20 62  1  0  0  0  0
 21 63  1  0  0  0  0
 21 64  1  0  0  0  0
 22 65  1  0  0  0  0
 22 66  1  0  0  0  0
 23 67  1  0  0  0  0
 27 68  1  0  0  0  0
 27 69  1  0  0  0  0
 28 70  1  0  0  0  0
 31 71  1  0  0  0  0
 32 72  1  0  0  0  0
M  END
> <OMEGA_C>
MssDQasUA0GsaZHB5tnlQMhe90Bf9YrBnjn/QEUvC0FkuJvBkRSzQFiPBEEwG5nBN/OaQMTeQr/m
zKDB+dHJQOmJNz9L+arB9Hy7QPTy+EDwyo7BgajUQD02DEEgsZ/BbCOlQCbyBj/ykKTBS4baQK53
1L/imanBXby1QNy+7b/PTaPB63HkQFD0v77OfK3BZxiyQC4C6j/je4/BZdKwQB4EikBChYTB12aj
QOSoKEDNbpnBan+gQE20nEDOOI/BMl2HQGKOdkAh+ZXBS7GkQO2xJEHcrKrByU+8QNQOAUE3FrLB
DCiKQJ6L2z+CM6HB0BSXQPyd50A+DYjBv4rwQJtFH0G117DBQamhQEt/VMDZ7ZTB4ifKQApPFEFS
HavBxUVqQClEgMDCp5TB20jGQI1ahMDliI/BcWf1QCoGL8Bb06vByTODQEOGwUBfKo3BK5n2QGf1
VUBKjI3BO5TYQCI7DEDN5XnB8WhvQCvAkEDnSJ/B1Ez8QBGQMkFhgqvBxkSsQDD8SMAsGKDBY98D
QctBPL5kkLPBLwQvQNFVSsDo2JjB4PJSQGTYicAye4rBSVpqQHuapMDtqJrBnC6/QP/Nh8DC2oTB
zXTsQHMdYMC8+pDBbFXJQFYrrMBB1ZPBB+TRQPLiOEBmJYfB+QUUQWKMAkFWdY7BA2XsQDXS6kB/
E4PBvrMMQd+qEEFYpqDB+5GSQKTtBEEjCJzBGUl9QPCXab9m/pvBrX3RQKvU2T/Y9K3B/uyVQC9i
vT8jAYvBgjHFQNw9dj8vDpLBp47DQFJuokC9P4DBPmKVQFRNgEDNJH/BBuy/QDLpQEAOm53Bjii8
QEvAp0Be6ZPBfPFYQBGdXkDeJZHBRnOdQDRbKkH3zrLBAS+IQHzyHEGhQ6fBwvWtQFddMkG8o6XB
V8e0QNyiBkHEN7rBTIHWQOuk6kBXcbLBE8+fQBUM80AZjq7BvB+BQDOnEkBMWajBZDZaQCoirT+O
Kp3BKIujQCx83kALJYDBIVB9QLZWAEH1GYfB1AMGQTNHFEEY27DB8G7nQJwCI0GEIrnBTjKfQIb8
FcC47ZDBTuoGQbUjG8BUW7DBllcAQSAxR8DI+aTBcMxtQO++ykB8LpTB+kNNQE93qEBeMJ3BEd8J
QbH9OEFRIK/BxLsCQfpbAkFj55LBnq7kQIp69UCtN4zB6Jz7QB3tCkHSBZ3BmOGvQLj2A0GF1pnB
TZyaQKxrWr9Y/J/BSYzFQAqsJz/Q8KrBZ8a5QC5G90B0po/BT4nQQLcADEE0mqDBJ16iQKyT3z40
GKTBMXTZQJ4O2b/AcKnBo1i2QARp9r+7nqLBTwjhQPsW0b6Ema3BncyxQKYH5D+ZTo/BGVixQB5I
iUDetITBYhOhQGPFI0BuNJnBPSefQBbymkDXVI/B0TeFQF2WcUCIpZXBYWbrQJkxH0FZtLHB/WGj
QIivJ0GsGKrBiPOGQP6TzT9CiKDBJF2WQN5h5kA1g4jBSCqwQIfiA0FGwLLBE+2iQIqQWMANBJTB
zIDEQLt5FUEro6vBjiVsQDXbgcAuIJTBPzTGQDidhsDPJ47BMw/1QDmKL8Dt7qvB4PSBQAfAv0Dc
Mo3BFAP2QLKRVEADRY7B1/3aQFqgDEBLdnrBDL1nQGtojUBy5J7Bo/bMQGbW5EAhMrTBGdivQJDh
TcBXDZ/BooABQfJkPr4uEbTBZ70zQBIkUMAcUpnBAiVPQNQxiMCMBIrB1mBuQLzpp8ClZpnBcdW8
QFDRicDMlIPB9rzsQEclZcBaJI/B+fbJQM6HrsDKXZLBVHzSQFi5N0DEcofBmCwTQa2jAUG2RJDB
0l7sQNFm6EBMdITBoYMKQei6EEGSG6LBzwePQAA4BEG8hJzBSu9+QH46g79S0ZrBYmfLQKwH0j9m
Jq7BxY6WQA43tz8vfYrB+dPEQMTeaj9p9ZHBcnXEQC44okBYvYDBuNCWQItUf0BP5H7BD7O8QFzx
O0Dfvp3BKfe5QKC+pUB5WpTB4IVWQMzsWUCkfZDBdrLgQAieJUG9crnB8XT5QIcnLEER5qzB/sYB
QeStEkHUDbPBfcuaQNxvLkE577HBLYmGQJE+IUFCN6bBPFCxQEdMNEHUCqXBCOV3QMROCkBYnafB
KTZWQIUFnT8DFpzBIvCjQD4U3kC7qYDBFOp7QBVt/0DngYfBOMWSQJwL/EDq5a7B9kGoQBjBCkG0
m7rB6CCgQKS/GcDNGpDBiAgGQXhiGsAR07DBeCIBQR8eRsAsN6XBmfdoQBM+yEA0I5TBs8pFQCQc
pUDcvJzB3+K/QEGxz0C7kbjBbukDQXXkAUE9nJHBSPnlQPvl9UCiFIvB4Xz/QPv/CUEu6JvB7Bmz
QJR9BEHRGpnB7cqaQNEvQb+v06DBenzJQBleOD8VFKvBf4m7QE10+EBQ1I7B/NTUQMCoC0FPxJ/B
Q82kQJgUCD/hrKTBq2TaQNjN07/qmqnB2MS1QFbo7L+1PaPBnjPkQJbxvb6siq3BSNexQOLH6T8K
l4/BZu2wQErfiUCml4TBWTWjQHLKKECqhpnBpnmgQDqhnEArRo/BxUSHQES3dkAdC5bBcB6oQA8o
JkFfYarBE0G4QNiTAUHe8bHBk+SJQMpa3D+NUKHBVxaXQGh250AeEojBb+nxQEQyHUHlKLHBBX+h
QO7/UcBrpJTBHVXKQNQnFEG2GqvBwxZqQOBXfsDTaZTB45bFQFdYgsAdzo7BYVD1QIumLsCh0avB
VimDQN1mwUBfLI3BrpH2QGUnVUCwpI3BWGfYQIx9C0BhHXrB/WhvQM8AkUB0V5/Bqd0BQRFCL0HQ
xqvBv/WsQA5kSMBGy5/Bd8sDQQiBN76FlbPBf7kuQDmsSMD/rZjBUJpSQKieiMDGPIrB8bZqQBmi
o8DbX5rBybHGQMPXq8BtCJLBaRa/QOX3gMASEoTBcXfsQOrRYMCQ4ZDBsczRQFJcOEBRPofBMywU
QbcBAUF/uI7BiXjsQKJJ6UC4M4PBx+IMQe8CD0Ed7aDBrH6SQAZeBUFJ75vBc/F8QA+jZ7/wBZzB
AhjRQI0V2j/3GK7BhKSVQPd7vT/sG4vBOtHEQCdRdT+cLZLBc9HDQIY5okBmV4DBB4qVQGRBgECy
On/BLMK/QFD9QEDfsJ3BRBS8QB/Ep0Cx+JPBvahYQPvRXkAXO5HBtNOgQBkcLEFgdbLB082KQM29
H0HPtqbBLoO0QGBbM0EEdKXB87KwQIp4B0HQBLrBezjQQNF36UCBfrLBKgCbQKam9kDJLa7B9/eA
QIkvE0DedajBVI5ZQI08rj+yS53Bi3qjQKll3kDpJoDB04N9QP5QAEFvJofB4TMFQVWbEEG3ubHB
dAvoQIcNIkEaQLnBeYieQNSyEsD73JDBDs0GQbjZGsDpZrDBpmUAQfhsRsDg96TBnXJtQASmykAm
LJTB0F9NQCS8qEDXOp3BOeENQa9hNEENqq/BX5kEQakKAkE6opHBKQbnQIMA9kD1OIvBtrkAQXkE
CkHQ/pvBsQi1QDH8A0EYhJnBI3WbQFkBTb+cup/Bf9nEQNqHPD/M1arBLNG8QBIi+EAaJY/BfxXX
QH0uC0FxE6DBgQ+iQNKU/D7g6qPBTV3ZQMLHzb++xqnBJ4y3QLyY7L9ElKLBaoPgQObdnr5ouK3B
WYWvQEaD5z9K3o7BLravQIJTikAdYoTBU+2gQCjuJUD87pjBD/KfQJBjnEAfNI/B+QqGQLcGdkCp
xZXBoPmpQFzPJEFIDavBxzK8QIwzAEFTQrLBnIWGQBJo0z+bSKDBQNuXQOgB6EDXaIjB14T0QNyK
HEFai7HBUGi3QC5qUcAEKZPBaxfNQEkzE0Eih6vBR6WWQAKAi8DF/o/B1mjnQL43aMCBKZDBASD0
QIBbKcBG6qzBc2ODQG74wUBoY43BvQn1QAi7UUC5GY3BIZ3VQAxcDED+unjBuspuQG77j0AqQ5/B
V40BQS/IL0EsnazB9gGyQICUR8CQp57B3yMBQTBPgL30MLTBVP5dQAwcf8CTa5PBZ1aVQE5FkMBI
NIXB0BqhQEBQscAnuJTBEE3qQNgLlcATGonBsRT7QNZcI8DmqYvBC1D+QK5zf8B36ZjBrs3PQBGY
N0D8sIbB48MUQT1VAUE5mo7B3x3tQCyT6UA6ToPBefgNQY1KD0G24KDBy6KUQPeTBEFfgpzB2wmB
QN5Gfb/vXZrBqD3KQFOM3T/X7K3BT0aTQLievT8IUYrBHj7CQDTkbT89U5HBn+vCQJ63okCGPIDB
f/2TQA6xgUAJ0X7BxHm9QOJiO0DfU53BIeK7QExipkAb8JPBAENVQLfFYEDR7pDBRO6iQBx7KkG9
MbPB3LyMQEYiHkHbdqfBPmq1QJNFMkFNKKbBi/u0QAK2BUF2a7rBrK3UQF0k50DslLLB1+2eQKeh
80Cvjq7BQrN2QAarDUBvUKfBX5FVQH0Loj951JvB4t+jQEg030C+b4DBHdB/QEPOAEG6n4fBgUQH
QWGwEEFfcLHBtnPrQGX7H0El37nBHNuuQBZuFcB8FI/B8BQFQUUUE8DVALLBXlABQbb7QcCFe6bB
+BRvQHTqykCweZTBBfpNQOFrqEAiXZ3BDY8NQQsnNUFNbLDBWJAEQeX0AUHkXJHBn9jmQPj/9UD5
9orBGcQAQcHVCUGgwJvB9hW1QBXZA0E5VZnBBmCbQP5gTb83xJ/BljjFQPamPT/zt6rB/7W8QKEG
+ECl8I7B/jPXQBsOC0HK3J/BaQuiQDjI/D557aPBKazZQG1Kzb8IsKnBaqa3QKuC7L+Pj6LBdRzh
QANim740h63BrlyvQLYT6D8n8o7BOrGvQHVBikAkcITBWI6gQDwvJkDg/ZjBjpufQFlxnEAaOI/B
3aOFQGsydkAUzJXBJz+oQLBiI0EzLavBybO/QHPU/kBBPLLBbEyGQA9h0z/YVqDBjqKXQN7V50Dt
QYjBt030QHF7HUH2DLHBu0u4QHt6UcDoJ5PBFHbNQHLWEkGkX6vBW3GYQIwnjMA23I/BnKHoQBt1
ZsCOSpDBLTf0QAg1KcCe56zBdBqDQB8BwkA0VI3B2bv0QBuSUkCjZo3Bd2rWQHGIDED+KHnBCvtt
QGgnkEBERp/BABkAQZXQMEGvxqvBqSGyQE+OR8DFoZ7BGqsBQci+U71m1rPBtvhgQEdhgcDRTZPB
UViXQGhBkMACDYXBcc+jQJQAssCSbpTBMyb8QAflH8BYL4zBFQL/QOnGf8BrCZnBkm3sQOoSk8BE
8ojBjO3PQDvtN0CY3obBVrUUQXNCAUFlTY7BN8zsQEvJ6UA5BYPBfQ4OQd39DkGgoqDBQr6UQOdd
BEHnXZzBgcSAQKtXfr8eeJrBDrvKQOBF3j/TxK3B5TqTQP6cvj+9VYrBCPLBQKF+bj/Ya5HBTuHC
QDqmokA+SYDBMiGUQBBhgUCH3n7BiAm9QLndO0BUZZ3B4227QFSKpkCH+5PB34BUQGDZYEDA9JDB
i4ShQJ/VKEGTX7PBIXCLQJTaG0FUzafBPHqxQDkqMUFJNqbB/LG4QFrBBEF6b7rBgbvZQPkk50Aq
aLLBk+WiQJA08ECeva7B6U52QP5vDUDJY6fBthdVQB7goT+25ZvByomjQOC/3kAmS4DBMYV/QBu/
AEFjcIfBrMgHQTlaEkEP77DB16LrQPgZIUGwYrnBcWOvQLjiFcCkCI/BpDkFQbDAEsBO7bHB1D0B
QefEQsAQf6bBo5tuQGg5y0AjZpTBwyFNQFWQqECEXJ3BQPYLQWUPN0E/W6/B5eECQUVpAUGXnpLB
P1zkQMwu9EDIC4zBS7/8QC86CkEdvJzBP5awQAgUBEGKx5nB/lObQFg+YL91RJ/Beq3CQLQMJT+g
+arBqKq5QD769kCsmI/B7eTRQKvXC0EebqDBfMmgQJMN0T6GwaPBONHYQNBY1799eKnBCr23QBJQ
9b+qEqLBPrXeQI16y76Gyq3BgMOwQHQC4z9gFo/BY9GwQPxliUD5vITBDNefQPIvIkAOCpnBSaOe
QIbEmkAdZY/BSn+EQNAVcUAIopXBZlbuQM3tHkGUa7HBe+ulQBq9J0FHKKrBaSOFQERpyD8oGaDB
bauVQMxP5kA6nYjBl7GyQCbbA0HptbLBFrO6QO1zVMD5j5LBm9bGQC1hFUFfhavBbBedQK9Uj8B7
HY/B/J7rQMPGZcBdEpDBvA70QEX7LcAoaKzB23aBQLivv0D0Wo3BDiP1QB+HU0BiVY7BeW/aQJU2
DUCnTHrBUG1nQOXojEBB+p7BR57PQAbr5EADM7TBhB2zQI97S8Aa+Z3Bn6//QKZNIL4eh7TBZMtp
QEeJiMA8ApPBILiaQEd0kcCRSYTBTxSsQAL4tMBYGZPBAO3wQH2qi8CEO4fBgVoAQSLyGsAzS47B
zwn/QMpVh8CmWJjBW8LRQMORN0D3Z4fBuz4TQQFFAEGu5o/Bk2jrQE7M5kATR4TBdlILQbfPD0GH
uqHBHt+PQNu/BEFOi5zB9YiBQHrmh79RtpnBFBnHQNeP0D8VWa7B/5yVQFCvtz9KL4rB9ZvDQC8W
Zz9zrZHBlAzEQJhkokBL1IDBREmWQCkNgEB65X7B6Fu7QI77OECHup3BhHO5QORRpUACc5TB6XVU
QPesWkDnfJDBnknkQI1mJUFeNbnBFUr8QHjTK0GRjazB4S0DQbxOEkGOqrLB+RSeQIiBLkF7CrLB
v6eIQCdvIUEwa6bBhamzQKVNNEGvCqXBdRZyQJToBkDtIafBbwVUQDjolj/ka5vBu5+iQNoT3kDo
sYDB4JF6QHl1/0Abv4fBYEyVQOTH+0DW5a7BYtKqQA/TCkFUjLrB9uiwQNvaGcD0V47B0cQEQUxj
GMDOr7HBpJsBQUwPRMCk7KXB4rdoQLovyEBiVpTB7A5GQEj4pEDF7pzBlafCQFXbz0BunrjB

> <OMEGA_E>
DNSWPhD5mD74zJU+EKO6PmBwuz4ImL0+

> <OMEGA_NBR>
     69265

$$$$
50216834
  -OEChem-04172616093D

 69 71  0     1  0  0  0  0  0999 V2000
    8.1458    8.2213  -18.2718 C   0  0  0  0  0  0  0  0  0  0  0  0
    7.1202    7.7373  -17.4408 C   0  0  0  0  0  0  0  0  0  0  0  0
    7.8480    8.6927  -19.5648 C   0  0  0  0  0  0  0  0  0  0  0  0
    5.4892    8.1935  -19.1966 C   0  0  0  0  0  0  0  0  0  0  0  0
    4.8330   -0.8159  -20.0218 C   0  0  0  0  0  0  0  0  0  0  0  0
    6.1956    0.6876  -21.3769 C   0  0  0  0  0  0  0  0  0  0  0  0
    5.7873    7.7348  -17.8979 C   0  0  0  0  0  0  0  0  0  0  0  0
    6.5120    8.6809  -20.0450 C   0  0  0  0  0  0  0  0  0  0  0  0
    5.0878    0.4734  -20.5303 C   0  0  0  0  0  0  0  0  0  0  0  0
    6.8032   -1.6661  -21.1880 C   0  0  0  0  0  0  0  0  0  0  0  0
    5.6957   -1.8897  -20.3487 C   0  0  0  0  0  0  0  0  0  0  0  0
    7.0517   -0.3800  -21.7042 C   0  0  0  0  0  0  0  0  0  0  0  0
    5.5631    1.7967  -17.9251 C   0  0  0  0  0  0  0  0  0  0  0  0
    5.5419    4.2911  -16.5773 C   0  0  0  0  0  0  0  0  0  0  0  0
    5.0461    2.5858  -19.1580 C   0  0  2  0  0  0  0  0  0  0  0  0
    4.9731    4.8539  -17.9003 C   0  0  1  0  0  0  0  0  0  0  0  0
    4.1708    3.7942  -18.7060 C   0  0  1  0  0  0  0  0  0  0  0  0
    5.0429   10.1813  -21.4658 C   0  0  0  0  0  0  0  0  0  0  0  0
    7.3524    9.6649  -22.2840 C   0  0  0  0  0  0  0  0  0  0  0  0
    4.2343    1.6449  -20.0889 C   0  0  0  0  0  0  0  0  0  0  0  0
    4.6792    7.1955  -17.0159 C   0  0  0  0  0  0  0  0  0  0  0  0
    5.1092   -3.3621  -18.5336 C   0  0  0  0  0  0  0  0  0  0  0  0
    6.1529    9.1028  -21.4812 C   0  0  0  0  0  0  0  0  0  0  0  0
    3.7207   -4.0608  -18.5242 C   0  0  0  0  0  0  0  0  0  0  0  0
    6.2476   -4.1777  -17.8474 C   0  0  0  0  0  0  0  0  0  0  0  0
    7.6628   -2.7184  -21.4907 N   0  0  0  0  0  0  0  0  0  0  0  0
    4.0512    5.9924  -17.6198 N   0  0  0  0  0  0  0  0  0  0  0  0
    7.6923    3.3382  -17.7759 O   0  0  0  0  0  0  0  0  0  0  0  0
    6.8447    2.1941  -15.6581 O   0  0  0  0  0  0  0  0  0  0  0  0
    3.6343    4.4498  -19.8583 O   0  0  0  0  0  0  0  0  0  0  0  0
    5.6673    7.9484  -22.1688 O   0  0  0  0  0  0  0  0  0  0  0  0
    5.4694   -3.1806  -19.9217 O   0  0  0  0  0  0  0  0  0  0  0  0
    8.1201   -0.1639  -22.5054 F   0  0  0  0  0  0  0  0  0  0  0  0
    2.8221   -3.2828  -19.1851 F   0  0  0  0  0  0  0  0  0  0  0  0
    3.2764   -4.2386  -17.2547 F   0  0  0  0  0  0  0  0  0  0  0  0
    3.7761   -5.2631  -19.1582 F   0  0  0  0  0  0  0  0  0  0  0  0
    5.9425   -4.4194  -16.5470 F   0  0  0  0  0  0  0  0  0  0  0  0
    7.4138   -3.4737  -17.8889 F   0  0  0  0  0  0  0  0  0  0  0  0
    6.4505   -5.3609  -18.4848 F   0  0  0  0  0  0  0  0  0  0  0  0
    6.5808    2.8778  -16.9302 S   0  0  0  0  0  0  0  0  0  0  0  0
    9.1659    8.2316  -17.9170 H   0  0  0  0  0  0  0  0  0  0  0  0
    7.3536    7.3679  -16.4532 H   0  0  0  0  0  0  0  0  0  0  0  0
    8.6413    9.0658  -20.1956 H   0  0  0  0  0  0  0  0  0  0  0  0
    4.4684    8.1728  -19.5487 H   0  0  0  0  0  0  0  0  0  0  0  0
    3.9792   -0.9849  -19.3823 H   0  0  0  0  0  0  0  0  0  0  0  0
    6.3871    1.6732  -21.7747 H   0  0  0  0  0  0  0  0  0  0  0  0
    4.7092    1.4419  -17.3293 H   0  0  0  0  0  0  0  0  0  0  0  0
    6.1587    0.9352  -18.2614 H   0  0  0  0  0  0  0  0  0  0  0  0
    6.1370    5.0674  -16.0740 H   0  0  0  0  0  0  0  0  0  0  0  0
    4.7130    3.9829  -15.9231 H   0  0  0  0  0  0  0  0  0  0  0  0
    5.9119    2.9709  -19.7167 H   0  0  0  0  0  0  0  0  0  0  0  0
    5.8097    5.2064  -18.5215 H   0  0  0  0  0  0  0  0  0  0  0  0
    3.3562    3.4159  -18.0710 H   0  0  0  0  0  0  0  0  0  0  0  0
    4.7984   10.4713  -22.4983 H   0  0  0  0  0  0  0  0  0  0  0  0
    4.1450    9.7761  -20.9764 H   0  0  0  0  0  0  0  0  0  0  0  0
    5.3964   11.0631  -20.9113 H   0  0  0  0  0  0  0  0  0  0  0  0
    7.0197    9.9432  -23.2948 H   0  0  0  0  0  0  0  0  0  0  0  0
    7.7521   10.5528  -21.7722 H   0  0  0  0  0  0  0  0  0  0  0  0
    8.1377    8.8980  -22.3548 H   0  0  0  0  0  0  0  0  0  0  0  0
    3.9049    2.2075  -20.9748 H   0  0  0  0  0  0  0  0  0  0  0  0
    3.3549    1.2683  -19.5458 H   0  0  0  0  0  0  0  0  0  0  0  0
    5.0993    6.9273  -16.0353 H   0  0  0  0  0  0  0  0  0  0  0  0
    3.9127    7.9738  -16.8860 H   0  0  0  0  0  0  0  0  0  0  0  0
    5.0199   -2.3874  -18.0316 H   0  0  0  0  0  0  0  0  0  0  0  0
    8.3908   -2.3919  -22.0935 H   0  0  0  0  0  0  0  0  0  0  0  0
    8.0637   -3.0745  -20.6466 H   0  0  0  0  0  0  0  0  0  0  0  0
    3.6298    6.2668  -18.4842 H   0  0  0  0  0  0  0  0  0  0  0  0
    3.1007    5.1864  -19.5843 H   0  0  0  0  0  0  0  0  0  0  0  0
    5.4381    8.1833  -23.0603 H   0  0  0  0  0  0  0  0  0  0  0  0
  1  2  1  0  0  0  0
  1  3  2  0  0  0  0
  2  7  2  0  0  0  0
  3  8  1  0  0  0  0
  4  7  1  0  0  0  0
  4  8  2  0  0  0  0
  5  9  1  0  0  0  0
  5 11  2  0  0  0  0
  6  9  2  0  0  0  0
  6 12  1  0  0  0  0
  7 21  1  0  0  0  0
  8 23  1  0  0  0  0
  9 20  1  0  0  0  0
 10 11  1  0  0  0  0
 10 12  2  0  0  0  0
 10 26  1  0  0  0  0
 11 32  1  0  0  0  0
 12 33  1  0  0  0  0
 13 15  1  0  0  0  0
 13 40  1  0  0  0  0
 14 16  1  0  0  0  0
 14 40  1  0  0  0  0
 15 17  1  0  0  0  0
 15 20  1  0  0  0  0
 16 17  1  0  0  0  0
 16 27  1  0  0  0  0
 17 30  1  0  0  0  0
 18 23  1  0  0  0  0
 19 23  1  0  0  0  0
 21 27  1  0  0  0  0
 22 24  1  0  0  0  0
 22 25  1  0  0  0  0
 22 32  1  0  0  0  0
 23 31  1  0  0  0  0
 24 34  1  0  0  0  0
 24 35  1  0  0  0  0
 24 36  1  0  0  0  0
 25 37  1  0  0  0  0
 25 38  1  0  0  0  0
 25 39  1  0  0  0  0
 28 40  2  0  0  0  0
 29 40  2  0  0  0  0
  1 41  1  0  0  0  0
  2 42  1  0  0  0  0
  3 43  1  0  0  0  0
  4 44  1  0  0  0  0
  5 45  1  0  0  0  0
  6 46  1  0  0  0  0
 13 47  1  0  0  0  0
 13 48  1  0  0  0  0
 14 49  1  0  0  0  0
 14 50  1  0  0  0  0
 15 51  1  0  0  0  0
 16 52  1  0  0  0  0
 17 53  1  0  0  0  0
 18 54  1  0  0  0  0
 18 55  1  0  0  0  0
 18 56  1  0  0  0  0
 19 57  1  0  0  0  0
 19 58  1  0  0  0  0
 19 59  1  0  0  0  0
 20 60  1  0  0  0  0
 20 61  1  0  0  0  0
 21 62  1  0  0  0  0
 21 63  1  0  0  0  0
 22 64  1  0  0  0  0
 26 65  1  0  0  0  0
 26 66  1  0  0  0  0
 27 67  1  0  0  0  0
 30 68  1  0  0  0  0
 31 69  1  0  0  0  0
M  END
> <OMEGA_C>
WVUCQYqKA0GQLJLBUNjjQEKY90C6hovB9iL7QIEVC0HBhJzBuqevQIkYA0GikpnBG6iaQJ7fUL+U
LKDBlkLGQKEFMD/RA6vBbDG5QNaD90DyLo/BG2LQQBDlCkEgXKDBEM+iQKNf8j4SPqTBsrPZQBNC
1b/9gKnBR0O2QBng8b8LyqLBzqfhQAyJwr4roq3B7wSyQI/65T+UZo/BkFexQHVQiUBCnoTB13mh
QF5+JUChQ5nBoiOfQFpTm0DbM4/BOHeFQN7UckDzpZXB11+hQHXmIkHtuavB/kbrQI6jGkGJRbLB
cn+HQLeL0j/9taDBHryVQKZB5kCNIIjB536jQOQrV8DTRJTBOeTEQBylEUF22avBSSBuQBvygcCd
MZTBqezHQL2vhcBux47BUjX1QLb5LcDu7KvBK6OBQL7Bv0Bp9YzBfyf2QMqkVUD/NI7BigfbQGBr
DECih3rBo5hoQKFkjkDI3Z7BRVq1QENZ/kCkWbHB7wSvQMCOS8ClX5/BEOwBQczLJ77/CrTBvZ00
QNwYUsD/epnBWLBRQD6ih8CKCYrBjatxQIRrqMAORJnBLSm+QFVrjcBJYITBkD3tQCRRXsCGHI/B
pmrOQGOMq8DU4JPB7ZXSQNItOED3cIfBa6cSQYW0A0EeVo/BzlDrQJzF60AVoIPB4kIKQbgNEUGL
kKHBdf2OQOvDAkG6Y5zBpqt+QAwlfL8JD5vBRmPMQGgs1j9+Mq7BvrGWQEqRuD9goorBLBTFQCNr
bz9UF5LBfWLEQOUnokCnl4DB1dCWQCzofkAwxX7BZy69QMwiPkDcu53BVum5QL2apkDzK5TBoMxW
QGydWkBUkZDBuoyZQGaKJ0GG/LPBhqOEQOZqHEG/z6fBM6+sQG8CMUFVSqfBGKHgQHkXH0HEW7rB
VBH4QGTYKEF/La7BNDQCQQpeDkGN1rLBNep5QL1HDUB8zKfBL7dWQL9Yoj/TXZzBPS2jQH+s3UA+
SIDBWWp6QPYo/0CRFofBpKKgQB3LGMCgQJDBl0AGQTYUGcCCv7DB2gQBQTnERMBJLKXBHU9oQKOJ
yECw35PBGHFGQDX3pUCwrJzBCQWuQOHuAkF3e7jBS9kDQU5EAkG9apHBwEzlQHvk9UAHK4vB9hcA
QSMQC0HQm5vBQo6zQBPxBEEUYZnB3DGbQL2XSb8Ce6DB8dPIQOMpMj+G96rBtiO7QJOk+EBuHY/B
bu/VQHq8DEE8qp/BdrqkQP45AD/FXaTBYTXaQFR91r9OmKnBPBW2QOVy8L9NEqPBIIHjQCISyL5Y
k63BloayQE/F6T++YY/BDOywQGl9ikAWmITBRBajQJeSJ0A6VpnBFRCgQFl/nEDSUo/BydWGQCYN
dUAt3ZXBM7S+QM5kBEHjh7LBO92qQJPqJ0GXPqrBDKeJQDeL1z/F9KDBCzqWQIvR50AhdIjBVH2i
QOMxVsDaopTBwGPNQFM5FkES0qrBEJJsQJDLgcDOa5TBHWDHQGjPhMAIOI/BXhT1QAPCL8AT9KvB
DZqCQJdPwUDDZo3BTbj2QPADV0BMq43BRG7ZQHwRDkAU4XnB3nlsQIZgj0BSKZ/BBzjzQPXBH0Fe
LK/Bk1atQAqESsDJyZ/BFCUDQS+VR75307PB3q0yQEgiU8DT15nBaURQQOefhsDtOorBDdZwQIG4
qMAoQpnBwli9QGccjsC+6YTBTwjsQLlmWsBSQo/BoS7PQJ3aqcBkk5TBfkjSQOTxOUDOK4fBVv4T
QYUjAUGUY47BYyzrQImG6EBEVoPBC2cNQSCVEEHmYKDBEU6TQFiaBUGCd5zBi6x+QDg/cb8EhZvB
yQHQQOQm1z8NBq7Bfq6WQAdIvD9gz4rBONnFQL0Qdz8c9ZHBeKHDQO5Bo0ChcYDBS7+VQJTRgEDA
GX/BuUK/QBoXQEB5oZ3BqX67QMNTp0ChIJTBL+RYQE7oXEAj4pDBnqW4QCRFC0EUfbrBCdnXQIFF
8EDgIbPBpiWhQBUe+kB3d6/BMEilQGN1LkE6S7LBJOiMQAUZIUEyIKfBYde1QDnHNEGv5qTBQwGA
QBEZEEANGajBoe5ZQCOHqD+7yZzB5ySiQDhn30DvcYDBVYN7QHN7AEHiv4fBR4qfQA7IF8DjoZDB
2H8GQWmxG8B+o7DB6osAQQKaR8D6KaXBg21sQIwCykAjc5TBug1KQND5pkDuDZ3B/RXtQKp6JUGd
C7bBm+YBQbMzA0Hd/pHBZC/jQEy69kDyTYvBpKP5QEz8C0H/DZzBGPGtQBoqBUGXtZjBJPeaQPbn
S78iTaDBrp3GQCSxOD+b/arBcCW4QJzG+EAQpo7BiWvOQOI3DUE0fJ/B3TmjQPfL/z7DNqTBXNfZ
QJqW0b8qwqnBQXy2QJM177/BBqPB0tPhQCOksL7Hw63BBTeyQKv66D9LS4/Bou2wQP7ViUD3ZoTB
ZZ+hQCwbJ0DAIpnBCNWeQPYTnEAs+Y7B1myFQNs8dEAffpXBtc3mQDIeIkELO7DBFmGxQBU5BEF3
trHBVc2HQMha1T/RmaDBPemUQG2v5kAaqYfByMejQFhIVsDGiZTBxMfBQKRvFkFRb6rB+LBvQNBt
gsDHcZTBi5bIQLomhMDk6I7B6kH1QG72K8CvUazBtyWBQAJbwEASr4zBwgD2QFkTWEBG/o3BrvXa
QG68DUChO3rBdpBoQLUuj0Dasp7BzhSgQLKYJUHJ4qjBk0OvQPZsSsDfp5/BjvIBQcLm+L0PM7TB
LeczQOZmUcDWCJnB5GpWQKg5i8DRS4rBejRzQA1lp8BdL5rB4i/AQD0viMA/TYTBrDDuQOD/XMAI
ApDBRJ/NQM2wq8CjQJPBXHnSQNHNOUAZRYfBm18SQVl7AkESaY/BdBrrQDIi6UCPnIPBWnAJQeXQ
EUHYL6HB7faMQDjABUEFR5vB9zJ/QIPueL8zN5vBQdjMQEoo2z/QDq7BUemWQNaCuj9Xj4rBgnvF
QCnPdj+2AJLB5b/DQE2ookDlTYDB0FqWQApTf0CScX7BlUm9QDgPQEAXmJ3B06G5QBqYp0Ae5pPB
RqxWQD+eW0Alc5DBNWbbQOw/KEGN+LfBNP3xQByJL0EERavB56sAQbneFkGDkbHBOVSoQFTRCkE5
jbnBlM7KQM168ECrxrLBR1KVQO9E+UAJ/q3BkiJ6QM/ODkAhqafBQZNXQEM1pD9IP5zBw3qiQI2e
3UAHun/Be1N4QNxG/0ATfobBXBygQO/QF8C5lZDBxT0GQV6iFsAyIrHBcBgBQYx7Q8BCnqXB5uhn
QD97yUApm5PBIDhGQJyqpkB3fpzBEeaXQJxyK0FlmK/BVnkEQcUDAUHMRJHBa+flQNGY9EAFE4vB
2S0BQRuQCUEwjZvBxVu1QJxnBEG8hJnBKcKbQO00Vr9+dJ/Bm2nEQNr/Nz87lKrBIwa8QJ0K+EDx
K4/BB2XYQGiaC0HVv5/BLMuhQELg7D4poqPBLkPZQBbmz79swKnBoAu4QIZe8L+3aaLBAETgQCSK
o748jK3BLcGvQKaY6D9Tt47B0KmvQKQJi0ATc4TBiT+gQEMbJUAiy5jBwhGfQOh6nECwQ4/BDh6F
QPD4dEA3o5XBQfDCQH2PAkEYprLB1kCuQKFdJkGt0KrByOSFQOqizj/w9p/Bb2aWQBRN6EBzmojB
ei+6QFVFUcAJz5LBE97QQAOwFEFXBqvBzmmZQAG6isAqLY/BQUzqQN18Z8BcuI/BzJDzQMA4KsC9
MK3BaEeCQAj5wUCJhY3Bvbf0QPtqVECaeo3B+GrXQE10D0B09njBh1prQPHZjkDsIJ/BrhL3QIkf
HkGROK/BQuuzQGuPScAeUJ7B9Q4BQXCyab069LPBJ6FiQJ1we8Bb85HBYBibQOS8j8AUZoTB6lCh
QEbEsMAcHZTBZdT4QGizL8AlM4jBTn8CQSnOYcDQOpjB+uTuQHjsm8CztovBr0vQQPK7OUAu0YbB
x4IUQQE5/0DeII7BuRDrQNCg50CaK4PB0boOQZ+bDkFNSKDB202VQMpXBUHQtpzBa6SBQAVrhL+i
BZrBkoXJQJm82z8foK3Bau+TQP6/vj9SAIrBN47CQJRLcD8CKJHBFcHCQA/To0C5aoDBUlqUQH8p
gkB6uH7BgGi8QJDYOkANUp3Bcam6QIpqpkCVIZTBKUBUQGqWX0BoqZDB4pe9QC4iCUGzs7rBwinc
QLeb7EDu/bLB2SClQGyh9kCzr6/BBG2pQJWcLEEQ9LLBJgaQQGyiH0Gy0KfBgq64QIxtM0FYhqXB
kfFzQL1WCkAf/qbBqU9VQJ85nD/MXZvB4aqhQJsB4EBCh4DB2tV8QNX8AEFrD4jBUO+xQA5DFMCi
7o7B6ZwEQRloE8CsV7LB70UBQXH4Q8B75abBDtlsQH6jykAqoZTBtkBKQEI0p0D0PJ3BlJnxQL2a
I0EiLbbBe8MCQRCLAkESS5LBljPkQNl99kCKrIvBRI78QAssCkH7ppzBmaKwQBUtA0FSx5nBtvCb
QOPeYL+yI5/BohTDQPbBLT/mlarBH6C5QFps90B+Yo/BfNzRQKWJCkGjh6DBBRuhQL8g1j46dKPB
ye7YQO7P078tranB/nC4QEa29L8KJqLBARjfQJaBtL5jna3B/zSwQGoY5T8cr47BmCiwQOMpikBP
eYTBq62fQMzFIkDktJjBuGieQL9dm0BCMI/B32CEQPczckCSc5XBBGClQIYPJEFwo6vBlvDtQAS4
GUEHbrLBOh2FQNpcyD94uJ/BupyVQITp5kDDZojBTaO8QEdmUsDqd5LBRcXGQOXIEUHm9avBAH6c
QNd5i8DPmI7BryPtQEm+Z8CJp4/BqlvzQHnOK8AoKq3BiVOBQMNnwEBiM43BJr/0QLUjVECP1I3B
qy7ZQNcHD0C7UHnBNkdoQGRRjUBm4Z7BvOG0QC7Y/0BAhbHBezK1QCeGS8Ac8J3B2iUAQXC7r73p
N7TBOShoQMk/fsAFRpHB8NKeQKbjj8CYz4PBQpSkQOWvscBvbZPBF4j8QF8oLsA7dYjBpWUDQZ05
ZMCwYZjBhknyQFGGm8D1XovBNgXRQFvLOEBk+obBOQ8TQb5LAkH4a4/BSDnrQOeU6kBpwYPBOikL
QTTID0FSrqHBzAGQQN9HA0FYoJzBwlSCQMUzir/RkJnBqZLHQP1i1j+Nuq3B5dyUQJZ6uj8X04nB
JRTDQIdvaj8SMZHB0FXDQPYvo0BTj4DBzGaVQKkKgUD/dX7BV1+7QLb1OECIYJ3Bt2m5QMnKpUAQ
MpTBC51TQGRbXEDgXZDBZ7adQIMZKUF82bPB9ByIQPtbHkHyqafBHY+yQP+2MUGCK6fBYJTjQA2b
HkEserrB2of8QLJ0J0HUT67B2sUCQSO7DEEqGLPBICFxQGOnBkD/uKbBRptUQDpvlT9Y/ZrBJoii
QDuH3kANfYDBdqV6QAsSAEGsg4fBBIO0QANRFcD5l47B/zgEQYTlFMDzdLLBuoEBQbamRMCt6qbB
Lf9oQPYByUAINZTBYf1GQOKFpUCJ7JzBdMatQOkKBEHvnbjB/I8CQUkOAkHd8pHB7cHjQPhF9UAd
X4vBJv77QAHTCkF3EpzB9tavQPCtBEEqDZnB2ymcQIrCVb8lUZ/BAdDDQFMbPT8qf6rBBgG5QH/8
90C86I7BlxHRQGJtDEFisJ/B2X2hQIyF7j7ef6PB3XHZQEaAzL8uz6nByJ64QIus7r9/YaLBEOzf
QG2Ak778j63Bc16wQB2c5z+vtY7Bb8SvQNxCikD5S4TB83qfQKO5JEC5pJjBadCdQIzLm0B29o7B
zduDQD8/c0ABRJXB6fvqQNjFIUGXIbDBHme2QPCZA0E8LLLBADOFQF0OzT8+v5/BPvCUQFwM50AU
AIjB7se7QO5GUcCS4JLBNYrFQNnAFUFdsKrBu0ybQO/gisDgJ4/BSSrsQGrFZ8CcJpDBU8TzQKnj
J8BBa63Bd7WAQCq7wECl6IzBynj0QLd3VkBj1I3BspbZQDNID0AHb3nBgKRmQAUHjkD3op7Bt1qj
QE62JEFqUKnBU6u0QG7bSMDnV57B+K8AQaCsNryUD7TB0PxlQIvqe8Ciw5HBlYidQEkZkMDwYoTB
cxijQHvEsMAeK5TBdvP8QBbVK8CFd4nByX8CQXmXacAiB5nBxavwQJ6tmsDJXYvBNwfRQDffOUCP
9obB/O0SQUoGAUHgOY/Bt+HqQDvP50C0nYPBw+UKQcZbEEE7HKHBiBiPQLhuBUElypvBpm2CQFB1
hb9ry5nBs33IQFXG3j+4ga3BsTOVQO1Quz/F2InBxGbDQDGCcT8VUZHBWrvCQANFo0AMUIDB9x+V
QKWigECBJX7Bhwi7QAzsO0ARSp3BAsC4QOBmpkAM+JPBJPdSQA+SXECMLJDBOmzgQA76J0F/7rfB
xy71QJQqL0HqBavB0PsCQZm3FkEETrHBFymuQHpNCkFyC7rBPTLQQAeK70DOGbPBOhKaQKmY90CS
s67BMHJxQElWCUAzu6bB07BUQN72mD/NFJvB3M6hQHRR3kAPG4DBcDV5QGAZAEFyDYfBdu2zQPSD
FMDW447B6IoEQc9fEMBgnLLBxJMBQfX3QcBINafBUu5nQM6ayUBZ55PBJulEQF39pUD2nJzBRdCb
QFSkKkGgDbDB

> <OMEGA_E>
AA6KPkhyiz6gpIs+kNC1Plx1tz4I7Lk+

> <OMEGA_NBR>
     76121

$$$$
50216827
  -OEChem-04172616093D

 63 65  0     1  0  0  0  0  0999 V2000
    8.1211    8.1509  -18.5048 C   0  0  0  0  0  0  0  0  0  0  0  0
    7.1729    7.6062  -17.6163 C   0  0  0  0  0  0  0  0  0  0  0  0
    7.6933    8.8581  -19.6466 C   0  0  0  0  0  0  0  0  0  0  0  0
    5.3704    8.4398  -19.0324 C   0  0  0  0  0  0  0  0  0  0  0  0
    4.8283   -0.7809  -20.0842 C   0  0  0  0  0  0  0  0  0  0  0  0
    6.2545    0.7035  -21.3931 C   0  0  0  0  0  0  0  0  0  0  0  0
    5.7940    7.7559  -17.8809 C   0  0  0  0  0  0  0  0  0  0  0  0
    5.1195    0.5058  -20.5783 C   0  0  0  0  0  0  0  0  0  0  0  0
    6.8182   -1.6611  -21.1930 C   0  0  0  0  0  0  0  0  0  0  0  0
    6.3082    9.0138  -19.9045 C   0  0  0  0  0  0  0  0  0  0  0  0
    5.6811   -1.8678  -20.3900 C   0  0  0  0  0  0  0  0  0  0  0  0
    7.1030   -0.3778  -21.6979 C   0  0  0  0  0  0  0  0  0  0  0  0
    5.5507    1.7852  -17.9470 C   0  0  0  0  0  0  0  0  0  0  0  0
    5.5369    4.2501  -16.5567 C   0  0  0  0  0  0  0  0  0  0  0  0
    5.0736    2.6029  -19.1779 C   0  0  2  0  0  0  0  0  0  0  0  0
    5.0042    4.8474  -17.8791 C   0  0  1  0  0  0  0  0  0  0  0  0
    4.2029    3.8155  -18.7227 C   0  0  1  0  0  0  0  0  0  0  0  0
    4.2754    1.6896  -20.1478 C   0  0  0  0  0  0  0  0  0  0  0  0
    4.7541    7.1712  -16.9529 C   0  0  0  0  0  0  0  0  0  0  0  0
    5.0317   -3.3314  -18.5914 C   0  0  0  0  0  0  0  0  0  0  0  0
    3.6305   -4.0029  -18.6083 C   0  0  0  0  0  0  0  0  0  0  0  0
    6.1439   -4.1711  -17.8912 C   0  0  0  0  0  0  0  0  0  0  0  0
    6.2672    9.5295  -22.2538 C   0  0  0  0  0  0  0  0  0  0  0  0
    7.6710   -2.7265  -21.4688 N   0  0  0  0  0  0  0  0  0  0  0  0
    4.1012    5.9931  -17.5785 N   0  0  0  0  0  0  0  0  0  0  0  0
    7.6963    3.2962  -17.7258 O   0  0  0  0  0  0  0  0  0  0  0  0
    6.7886    2.1273  -15.6460 O   0  0  0  0  0  0  0  0  0  0  0  0
    3.7000    4.4999  -19.8731 O   0  0  0  0  0  0  0  0  0  0  0  0
    5.4172   -3.1540  -19.9735 O   0  0  0  0  0  0  0  0  0  0  0  0
    5.8191    9.8162  -20.9143 O   0  0  0  0  0  0  0  0  0  0  0  0
    8.1992   -0.1778  -22.4650 F   0  0  0  0  0  0  0  0  0  0  0  0
    2.7508   -3.1903  -19.2525 F   0  0  0  0  0  0  0  0  0  0  0  0
    3.1733   -4.2070  -17.3474 F   0  0  0  0  0  0  0  0  0  0  0  0
    3.6700   -5.1877  -19.2757 F   0  0  0  0  0  0  0  0  0  0  0  0
    5.8106   -4.4274  -16.6006 F   0  0  0  0  0  0  0  0  0  0  0  0
    7.3191   -3.4814  -17.8990 F   0  0  0  0  0  0  0  0  0  0  0  0
    6.3438   -5.3483  -18.5404 F   0  0  0  0  0  0  0  0  0  0  0  0
    6.1513    8.2018  -22.5381 F   0  0  0  0  0  0  0  0  0  0  0  0
    7.5455    9.9475  -22.4521 F   0  0  0  0  0  0  0  0  0  0  0  0
    5.4569   10.2261  -23.0871 F   0  0  0  0  0  0  0  0  0  0  0  0
    6.5616    2.8341  -16.9125 S   0  0  0  0  0  0  0  0  0  0  0  0
    9.1762    8.0264  -18.3109 H   0  0  0  0  0  0  0  0  0  0  0  0
    7.5001    7.0753  -16.7346 H   0  0  0  0  0  0  0  0  0  0  0  0
    8.4202    9.2808  -20.3244 H   0  0  0  0  0  0  0  0  0  0  0  0
    4.3155    8.5245  -19.2481 H   0  0  0  0  0  0  0  0  0  0  0  0
    3.9531   -0.9379  -19.4712 H   0  0  0  0  0  0  0  0  0  0  0  0
    6.4727    1.6864  -21.7837 H   0  0  0  0  0  0  0  0  0  0  0  0
    4.6784    1.4340  -17.3763 H   0  0  0  0  0  0  0  0  0  0  0  0
    6.1406    0.9203  -18.2843 H   0  0  0  0  0  0  0  0  0  0  0  0
    6.1309    5.0081  -16.0252 H   0  0  0  0  0  0  0  0  0  0  0  0
    4.6897    3.9404  -15.9270 H   0  0  0  0  0  0  0  0  0  0  0  0
    5.9578    2.9877  -19.7070 H   0  0  0  0  0  0  0  0  0  0  0  0
    5.8580    5.2009  -18.4758 H   0  0  0  0  0  0  0  0  0  0  0  0
    3.3703    3.4363  -18.1120 H   0  0  0  0  0  0  0  0  0  0  0  0
    3.9864    2.2703  -21.0362 H   0  0  0  0  0  0  0  0  0  0  0  0
    3.3715    1.3237  -19.6389 H   0  0  0  0  0  0  0  0  0  0  0  0
    5.2392    6.8608  -16.0156 H   0  0  0  0  0  0  0  0  0  0  0  0
    3.9923    7.9345  -16.7362 H   0  0  0  0  0  0  0  0  0  0  0  0
    4.9533   -2.3565  -18.0879 H   0  0  0  0  0  0  0  0  0  0  0  0
    8.4229   -2.4110  -22.0477 H   0  0  0  0  0  0  0  0  0  0  0  0
    8.0392   -3.0889  -20.6126 H   0  0  0  0  0  0  0  0  0  0  0  0
    3.6844    6.2911  -18.4373 H   0  0  0  0  0  0  0  0  0  0  0  0
    3.1699    5.2382  -19.5963 H   0  0  0  0  0  0  0  0  0  0  0  0
  1  2  1  0  0  0  0
  1  3  2  0  0  0  0
  2  7  2  0  0  0  0
  3 10  1  0  0  0  0
  4  7  1  0  0  0  0
  4 10  2  0  0  0  0
  5  8  1  0  0  0  0
  5 11  2  0  0  0  0
  6  8  2  0  0  0  0
  6 12  1  0  0  0  0
  7 19  1  0  0  0  0
  8 18  1  0  0  0  0
  9 11  1  0  0  0  0
  9 12  2  0  0  0  0
  9 24  1  0  0  0  0
 10 30  1  0  0  0  0
 11 29  1  0  0  0  0
 12 31  1  0  0  0  0
 13 15  1  0  0  0  0
 13 41  1  0  0  0  0
 14 16  1  0  0  0  0
 14 41  1  0  0  0  0
 15 17  1  0  0  0  0
 15 18  1  0  0  0  0
 16 17  1  0  0  0  0
 16 25  1  0  0  0  0
 17 28  1  0  0  0  0
 19 25  1  0  0  0  0
 20 21  1  0  0  0  0
 20 22  1  0  0  0  0
 20 29  1  0  0  0  0
 21 32  1  0  0  0  0
 21 33  1  0  0  0  0
 21 34  1  0  0  0  0
 22 35  1  0  0  0  0
 22 36  1  0  0  0  0
 22 37  1  0  0  0  0
 23 30  1  0  0  0  0
 23 38  1  0  0  0  0
 23 39  1  0  0  0  0
 23 40  1  0  0  0  0
 26 41  2  0  0  0  0
 27 41  2  0  0  0  0
  1 42  1  0  0  0  0
  2 43  1  0  0  0  0
  3 44  1  0  0  0  0
  4 45  1  0  0  0  0
  5 46  1  0  0  0  0
  6 47  1  0  0  0  0
 13 48  1  0  0  0  0
 13 49  1  0  0  0  0
 14 50  1  0  0  0  0
 14 51  1  0  0  0  0
 15 52  1  0  0  0  0
 16 53  1  0  0  0  0
 17 54  1  0  0  0  0
 18 55  1  0  0  0  0
 18 56  1  0  0  0  0
 19 57  1  0  0  0  0
 19 58  1  0  0  0  0
 20 59  1  0  0  0  0
 24 60  1  0  0  0  0
 24 61  1  0  0  0  0
 25 62  1  0  0  0  0
 28 63  1  0  0  0  0
M  END
> <OMEGA_C>
9O8BQetpAkHUCZTBWYjlQCBm80Az7ozBjS/2QJO6DUFFLJ3BIdqrQF0JB0FOQpjBd4GaQCzqR79p
rKDBvCTIQPIXND8bJavBT2i5QO0v+EAvDI/B4tKjQBp6AT9boKTBoi7aQPmf1L9Ni6nBt9zJQIY4
EEFRPJ/Bd8u1QB0V77+oHqPBgkvjQMhywb5kla3BXZ+xQNSC5D9tk4/B6i2xQG4AiEAidITBmVqi
QFiVJkBRbJnBTSKgQEMem0BjCI/BSH6GQGYwdEAXyJXBItCIQOlF2D+dLqHB8SGYQDh65UByn4fB
lwOhQAQ1VcBCu5TBZVpoQJwXgMDX3ZTBpZrEQOd5hcAoIY/BHY3IQPJ4GEHPB7LBOnn1QNx+LsAe
wKvB1zyDQEHHv0DJoIzBSUj2QED1UkBjzo3BPjzZQOglCEAgVnrBEcxsQJL/j0AC/J7BAFqtQDLb
ScDAyZ/BCTa6QFQPHUF9UKfBGzADQRQHNr5puLPBnQ0wQGQtTMA1BZrBlRZLQBGghsCNx4rBiuBq
QEIBpsC4NJrBOfC5QC+tjcD3zYTBsDXqQNrOXsAlMY/B0QDLQCslq8DWUpTBY9fEQHc6A0HzTbTB
DXXxQOUoH0HbnbPBk56uQD6eI0FUsrjBx/jRQGJhNUC1TIfBztESQURsAEG4fJLB4QDwQAJp4kBh
4IXB/7gGQTt+FEFMmKLB3xiKQGRkCEEW/JnBRP98QPUccL8PxZvBryDPQPzc1z8dRa7BabWVQEuN
tz+fAovBNIDEQJ2Xaz9TRpLBmzDEQC9CoECsM4DBQxKWQGMvfEAf1X7Bb6a+QNg2P0D3p53BsnS7
QJptpkCBzpPBUrJXQBHtW0Be5ZDBnyB/QBxMEUAhSqjBKsZXQHNuqT9jHJ3BXKenQJuL20D+H4DB
gYJ/QI/n/UCn44XBOYGeQEfRFsAHtJDBZ8QGQSRNGsChYbDBaaAAQeOwRcCN5qTBxM1rQLJQyUCS
f5PB9t9KQO+ep0AgxZzBFv0BQSuIBEEUAJPB1wLkQJao+0AoyYvBb0/5QPUICUHRt53BMGmuQEAl
AUGU4ZnBSSabQJHQSb9of6DBjo/IQCA6NT876arB8RS5QBB9+EBfOI/BD2GkQCjzAD8aXKTBmHLa
QPSb1L8bmanBJ3jOQA/5BkF4MaHB0Uy2QITW77/eGaPBz4fjQNZZvr79hK3BBMGxQF6x5z+FV4/B
1dCwQAVFiUDbVoTBZ3WiQDxcJ0BZPZnB2qmfQHL7m0B38I7BX2OGQCQTdUDprpXB3RqJQBCY1z/U
6qDBe9aWQFEr50At04fBIdmiQE0uVsDOsZTBPB9sQCSlgMDAgZTB/STHQLXKhcClWI/BraXEQJlS
HEEu3rDB/of1QORsLsAw/qvBqk2CQAqEwEDDlIzBkTf2QCANVUANlo3BPfvYQIrxCkDu2HnBGsds
QIQZkECh8p7BPt+tQDViSsC81J/BiwHEQEeXB0H536vB8DMDQTgXKL58trPBaXQyQDKmTMDRTpnB
AbFRQLTAh8CHUorBix9tQK4/psBc/ZnBn729QDmtjcA37oTBl6nsQL05X8D6uY/BwPLMQE6Xq8A9
h5TBiZirQENwKkG1aqvBOHW0QH2kGUER1rrBVTftQGkHJEFWsbHBGdPRQAm5N0BVF4fBJlMSQVM3
BkESUJDBa1nsQGnQ80AyooPBdOkIQZQNDkF/RKPBPHGNQPZrAEGLcpzBJ6J+QA5mc78hi5vBJJfP
QEsG2T8w763BpdiVQCWeuj9Bx4rBTdHEQG41cj+U+pHBrcPDQEO7oUDdJIDBYMKVQA3kfkBqjH7B
w7W+QLjnP0DEf53BU+S6QD6Cp0DWtpPBQ11XQLfTXEA60ZDBE/p+QJNhEECBCqjBTc5YQJX9pz80
yJzBCHSlQNKH3kC7HYDBi7p8QL3w/0DbiYbBpLGgQFjcF8ADo5DB6bYGQTniGcATp7DBv8cAQZdx
RsAAN6XBOMFoQKtHyUBGcZPBN6BKQJu8p0CZzJzBqgUDQaBYAUFHLZTBkv7mQJwB8kB9JY3B6EP5
QJ7LDEEgWp3BnW+uQLnaBkFfrJjBciebQCEqVb+Bt5/BI/TEQGwbNT+utKrBKBW7QOO090CwZo/B
UbehQOGP7D4P7qPBQYbZQNBt0b+xmanBri3NQIG+D0GJip/BrZG3QBhu8L+gc6LB2+zgQFCCrL4Q
eK3BydyuQA4C4z87747BnLKvQL6QiED6WITBPy+gQNUYJEBj9pjBIqCfQAYam0D2FY/BLGaFQPhA
dECZt5XBofmFQJq3zz/8W6DBwAeZQJ8l5kDyBojB3Ce4QEBdUcB02ZLBjnqXQK4pi8Biao/BITzo
QP7yZsBnt4/B2v7KQPOAF0EfWLLBVB30QDFOK8DHyazBKoyDQByowECb+IzBeHf0QLFVT0APV43B
+/HVQB4SCUCWGXnB25htQKOIj0C1Jp/BAJCyQNJJScDtXp7BWKm+QCH3HEFklafBbJ4BQUhEsL1A
wLPBE1dfQBRIfsCLspLB9Q2XQBJSj8C3moTB2D6hQPxZscDZC5TB+tj5QAZBJMAlR4rBzWwAQbi/
dcBYdJjB2KrrQP3HlsC9bInBDvj0QATnG0G+K7TBKQqzQIvoI0E56rjB7YjCQPyLAkHffLTBJ5vP
QN2xNEAX1IbB1dETQX/v/UDuiJLBosLwQJfk4EBYDIbB2oYIQbFPE0HOtKLB+NaMQFR7CEFmh5rB
1YWAQIrygr/IbJrBWXPKQO/a2T/1x63B26uSQPrsuT8wVYrBP0jBQN7KYz+Vb5HBlwPDQDPHoECy
KoDBVB6UQBNmf0CIsn7BX7y8QAXKOUBZVp3Bkm27QKxGpUCP2JPBePlTQNjrXkAh4pDB7hF2QKHF
C0CuaqfByS5UQD1wnj+V9ZvBZvGnQAlI3EBycoDB6B6BQPMz/0BYdIbBZ32vQDSxFMBs8o7BASYF
QYn1FMAY1bHBEzkBQRKRRMC8XqbB/PNtQFQPykA48ZPBxfVMQEHzp0D9L53BJ/oEQZWL/0AmKo/B
dl/kQJNQ8kAOA4rBzd8DQdpUCUFfS5nBa++5QKU+BUGWUZnBB7GbQLRrXb/neJ/BIQHEQNgmLj/h
varB8ka8QCK190B6/47BUPahQCk23j4SlaPBffrYQK/v1L9Nz6nBRDXgQLJKDEEveJ7BOXW3QO5q
9L+mkqLBx4rfQDv3ur6+z63BOUexQN/D5z/ivY7BosevQGk5i0CPhITBl4egQKTgI0AfwZjBP6Ge
QGginECNWI/BSs+EQDCbckDodpXBzSiGQLmjyj9t0J/BS2WUQHKw6EBXHYnBBju5QHJxVsBLYJPB
8LiZQKUJj8DCHZDBsHbpQOGSa8Cuz5DBEuu8QKy7GEEd0q7BoDX0QD/aLMBcxqzBaVeBQMGJwUBE
4o3Bqyr1QHFNV0DJy43BaNDZQLdXEUD5VnnBDERnQD7njEAs3Z7BFkyyQFK7S8BYwZ7BI7PiQAmB
FkEWU6jBKFkAQdwq6r1WeLTBDThiQJCzgcCQQpLBzd2cQI7cl8Akh4XBAm2hQP06s8A/3JXB8zHv
QElLdsA5H4bBUcwBQaRrKsBu3pPBfoX2QKrkmcB87ZXBCQCfQNI9JUEC+anBMXqsQLtIBUH4gLHB
ctLJQJK7IkHn5LfBq3rRQCYwO0BP+obBBEwUQesC+0DuVIvBySbmQPLl40ASLILB42kSQdd/DkH0
Lp3BrGGbQPsMB0EXQZ3BPMOBQMunh78S+pnB+O7IQNhi1j8Q4K3ByQqWQKExuz+36YnBrp/EQDFu
cj/yQJHBG2nCQEhypEABhYDBdsmUQH3GgUBUxn7BTRy8QOzFOkDLaZ3BWwC6QCvOpUCjUpTBbHlV
QNAnXEDEQpDBK2pzQL0BCECAz6bB6I9WQH2llz8kHJvBfPycQFvb4UDewIDBFdt4QNw5AUHYWInB
MnuwQDFsG8BZG4/BBgsFQQ/lFsCQ7bHB5HEBQWnzQ8B2R6bBZYhrQOhmyUAQFJXBBXJFQAznpEBB
5JzBFd4CQTy6AUGDGZTBmsTmQJq38kC9Do3BfNz4QDbyDEEkVp3BSxmuQBnlBkEApZjBVLabQKFX
V7+Vsp/B5nnFQJSbMj8OsqrBHde6QK0Z+EDrVY/BUGSiQJ8s6T5P3aPBTWvZQKa107+0zKnBM7nM
QA2wD0EUk5/BG8m3QHJI8r8ei6LBZwjhQOZUtL7zmK3B/DCvQBh14z+xzY7Bfb2vQBHliEAzRITB
tbGgQDwNJECX3ZjBVcafQEFDm0A3CI/BPLqFQH8pdEDxp5XBt6uGQMYNzz8LRqDBTtaYQAda5kDj
+ofBugC5QPIgUMBCx5LB9i+YQPPuicDkCI/B7PPoQPCBZcCih4/BIFbNQDawF0EfaLLB8rDzQCW2
LMCrF63BWY+DQKjHwEBW9IzBXLn0QE3ET0A6H43BBsrVQNn8CUCps3jBXQBuQPhRj0CrGZ/B8kCz
QPgCSsD5T57BD869QA5eHEGbzafBIJ8BQYgU070a67PBjyFgQH5MecACspHBuW+aQBQAj8CoQ4TB
iH+fQLULsMDk/ZPB3Ij1QFVKMsBnUYfBfE4CQVrbV8C7sZfBq1LuQLQRnMC0Z4zBgpXJQBpzAkHj
rrTBBn32QNk5HkFnubPBaVa0QNTlIkFnQ7nBpbLPQBBCNUCSqYbBNa0TQVEX/0Bga5LBoJrwQJDP
4UA574XBiE0IQU5zE0HVtKLBj3qMQHR6CEGMe5rBnTyBQDm+g78UWprBry/LQM3W2D9Hta3BX+qS
QANNuj+pPIrBBrvBQM3TZD/oQpHBgADDQIcvoUAmGYDBhxqUQJEcgEBwjn7Bbk29QDbROUAbNp3B
j5u7QC92pUAfx5PBQ7hUQJyuXkAS0ZDBJ3B3QPNoC0ARVafBpJdVQGiVnT/c4JvB7b+nQACB3EAD
ZoDBYc2AQDJJ/0DmZ4bB+YiwQD+VEsAxEY/BjtUEQaaBFsC9M7LBzyQBQQw6RsBCuqbBOD1uQC4m
ykBt8ZPBMC9NQFGxp0A2Jp3BZDMDQSPeAkF0dZPBfyjmQDJy+UBPMozBnMv7QOt5B0EkKp7B7oaw
QA+lAEE3QprBXB6cQJz4U79fqJ/B0GrEQH25ND8yB6vBrxi7QDFo90BLmI/BLy+iQNom7z5R7qPB
qTHZQHrh0b+LAarBws/QQK0dBkH+k6HBdT64QI5l8L/Qj6LBk7TfQF94sL5MFa7BbfeuQA8P5T+Z
0Y7BjdquQLgfiUDBIITBLHqgQCMDJUA23JjBCSKfQP+vm0DF347B8WaFQHYidUDzn5XBdIGGQBes
0D9IR6DBEWWYQJOX50DnIYjBDvu6QJyGTMDknJLBJV2XQI71g8CtTY7BJfjpQEufacB5g4/BUt/C
QNj4HUGu9K/BFuvzQDlaK8BGNK3BldCCQGREwUBBw4zBejT0QH8yUUAY/IzB8CrVQKAUCkB8oHjB
yzduQJgMkEBzE5/Btq20QIy5SMCBI57Bi1PGQBhFCEHgMazB+EAAQXiS070Y37TB9xxhQFc3aMCp
R5HB7kGZQKvBhcCjdoPBkSebQP79q8CMfJLBhIj5QJAoNsD5pYfBFJ0CQfK1Y8BC7JfBrM/rQEvf
ncBC9YvB507pQBAkKEFka6/BHBSlQLMDKUEfOarBwUm2QDsQHUEuUbrB8CLPQDYDNkBklYbBNpwT
QY8KBEG70JDBll/uQJCX8UB/CYTBGkEKQXALDEF2waPBuoaPQDg6AEHo0JzBahGCQCQjgr84L5rB
prLJQBak2T91Ia7BaaySQMzPuj9KTIrBZbjBQMNfaT+PS5HB+OTBQPVeoUAcw3/BSCGTQJQOgEB3
Z37BchG9QB/uOkB+M53BqxK7QJMXpkBYjZPB7aVTQOZlX0AC4ZDBMul2QM5QDEDhUafBe2NVQKPh
nj9R35vBCL+mQK8A30CpY4DB9qOAQJqQAEGj8YbBA+e1QI5sDMARNI/BLagEQWJMFcDNebLB4pkB
Qcj8QsCm06bByN9qQGPyyUDWspPBE05NQEBmqEADIp3B4/kBQfoeBEHs65LBxObjQHUe+0CXs4vB
9FD5QB6hCEGKop3B0T2uQOM2AUFYw5nBaaaaQFqYSL9FpKDBUG7IQEQYNj8a/arBnei4QL1u+EAj
HY/BchGkQKJMAj9HfaTB0HDaQCDW07+TianBCW7OQHbGBkFmF6HBKvi1QEkN77/tKKPBeI3jQDuU
vL6ngK3BpdexQIFm5z/yfI/Bj/SwQPP8iEB7YoTBCGeiQLmSJ0AcWJnBw6ifQKDqm0Ac8o7BTGCG
QMokdUC/t5XBNfCIQFiw2D/xC6HBm6mWQA4A50CtvYfB1A6jQBW1VsBTzpTBWcVuQJoAg8DHiZTB
X7TIQOl0hMCigY/BskrEQCXeG0FBzrDBJsz1QMnwLcAMxqvBVTmCQNtbwEBbiIzBNjv2QLUYVUDC
w43BZHHZQEgyCkBZN3rBcaBsQJpSkEDf8Z7By0KtQO0LSsBh+Z/BUCzEQE8wB0GQx6vBwUoDQYql
J77spbPB5dMzQKM3V8CIA5rBSblSQNmvh8DeVIrBnsZ0QK0NqsARSZnBmr6+QISCj8AeToXB/3/s
QBIsV8D8Ro/BtwLSQMSDqMCyIZXBdGLsQLhTJEFGMLHByDupQK1/KUGtp6vBzia2QAPSGEFY8LrB
cgPSQABfN0CQPIfB5lMSQQCxBUGDPZDBaDjsQJkd80DJjoPBDfMIQeF+DUH6MqPB8DiNQJrFAEH7
TZzB0Sl9QOZBcr+axZvBY3nPQAJB2T8OC67BjQGWQNX5uT8s6YrBA+HEQEkKcj+/K5LBAerDQLVg
oUCDKoDBWPmVQIr+fUBGoX7Bp5i+QMpMQEBrnJ3BntG6QH2Xp0D4uJPBC2lXQPKvXEAr25DBRet+
QCIbEUDrKqjBJU1YQF6JqT+u7ZzBfT+lQJFO3kBOCIDBy0h8QB24/0CTcobBHZefQJClGMAuvpDB
k/UGQYN2GcCFXbDBCL4AQcl4RcCH7qTB2nZoQNQ0yUACYZPBsIVKQJfrp0D6wZzB

> <OMEGA_E>
XLOZPnxlmj4Ysr0+BPi+PlhcwT64V8c+4HWZPg==

> <OMEGA_NBR>
     83531

$$$$
50216847
  -OEChem-04172616093D

 75 77  0     1  0  0  0  0  0999 V2000
    8.1759    8.1671  -18.1879 C   0  0  0  0  0  0  0  0  0  0  0  0
    7.1282    7.6897  -17.3822 C   0  0  0  0  0  0  0  0  0  0  0  0
    7.9060    8.6882  -19.4675 C   0  0  0  0  0  0  0  0  0  0  0  0
    5.5298    8.2478  -19.1395 C   0  0  0  0  0  0  0  0  0  0  0  0
    4.8312   -0.8054  -20.0524 C   0  0  0  0  0  0  0  0  0  0  0  0
    6.2282    0.6856  -21.3859 C   0  0  0  0  0  0  0  0  0  0  0  0
    5.8016    7.7351  -17.8540 C   0  0  0  0  0  0  0  0  0  0  0  0
    6.5748    8.7429  -19.9595 C   0  0  0  0  0  0  0  0  0  0  0  0
    5.1064    0.4818  -20.5558 C   0  0  0  0  0  0  0  0  0  0  0  0
    6.7957   -1.6797  -21.2096 C   0  0  0  0  0  0  0  0  0  0  0  0
    5.6886   -1.8901  -20.3633 C   0  0  0  0  0  0  0  0  0  0  0  0
    7.0689   -0.3937  -21.7145 C   0  0  0  0  0  0  0  0  0  0  0  0
    5.5484    1.7883  -17.9343 C   0  0  0  0  0  0  0  0  0  0  0  0
    5.5124    4.2733  -16.5633 C   0  0  0  0  0  0  0  0  0  0  0  0
    5.0567    2.5906  -19.1685 C   0  0  2  0  0  0  0  0  0  0  0  0
    4.9714    4.8511  -17.8922 C   0  0  1  0  0  0  0  0  0  0  0  0
    4.1780    3.7991  -18.7186 C   0  0  1  0  0  0  0  0  0  0  0  0
    5.7223    8.1452  -22.2591 C   0  0  0  0  0  0  0  0  0  0  0  0
    7.4720    9.9336  -22.0730 C   0  0  0  0  0  0  0  0  0  0  0  0
    5.1548   10.3949  -21.2515 C   0  0  0  0  0  0  0  0  0  0  0  0
    8.2815   -3.3998  -17.8649 C   0  0  0  0  0  0  0  0  0  0  0  0
    4.2577    1.6616  -20.1230 C   0  0  0  0  0  0  0  0  0  0  0  0
    4.6730    7.1922  -16.9995 C   0  0  0  0  0  0  0  0  0  0  0  0
    5.9704   -4.1645  -17.7316 C   0  0  0  0  0  0  0  0  0  0  0  0
    4.9586   -3.3325  -18.5579 C   0  0  2  0  0  0  0  0  0  0  0  0
    6.2445    9.2967  -21.3650 C   0  0  0  0  0  0  0  0  0  0  0  0
    3.5897   -4.0369  -18.6643 C   0  0  0  0  0  0  0  0  0  0  0  0
    7.6337   -2.7441  -21.5309 N   0  0  0  0  0  0  0  0  0  0  0  0
    4.0514    5.9953  -17.6234 N   0  0  0  0  0  0  0  0  0  0  0  0
    7.6803    3.3190  -17.7316 O   0  0  0  0  0  0  0  0  0  0  0  0
    6.7890    2.1584  -15.6410 O   0  0  0  0  0  0  0  0  0  0  0  0
    3.6571    4.4644  -19.8722 O   0  0  0  0  0  0  0  0  0  0  0  0
    5.4763   -3.1760  -19.9021 O   0  0  0  0  0  0  0  0  0  0  0  0
    7.0072   -3.3045  -17.1984 O   0  0  0  0  0  0  0  0  0  0  0  0
    8.1489   -0.1886  -22.5033 F   0  0  0  0  0  0  0  0  0  0  0  0
    2.7393   -3.2723  -19.3997 F   0  0  0  0  0  0  0  0  0  0  0  0
    3.7304   -5.2451  -19.2734 F   0  0  0  0  0  0  0  0  0  0  0  0
    3.0559   -4.2114  -17.4280 F   0  0  0  0  0  0  0  0  0  0  0  0
    6.5515    2.8564  -16.9105 S   0  0  0  0  0  0  0  0  0  0  0  0
    9.1922    8.1340  -17.8241 H   0  0  0  0  0  0  0  0  0  0  0  0
    7.3399    7.2884  -16.4022 H   0  0  0  0  0  0  0  0  0  0  0  0
    8.7184    9.0497  -20.0804 H   0  0  0  0  0  0  0  0  0  0  0  0
    4.5131    8.2633  -19.5035 H   0  0  0  0  0  0  0  0  0  0  0  0
    3.9646   -0.9656  -19.4281 H   0  0  0  0  0  0  0  0  0  0  0  0
    6.4424    1.6719  -21.7701 H   0  0  0  0  0  0  0  0  0  0  0  0
    4.6825    1.4309  -17.3576 H   0  0  0  0  0  0  0  0  0  0  0  0
    6.1471    0.9280  -18.2679 H   0  0  0  0  0  0  0  0  0  0  0  0
    6.1019    5.0419  -16.0418 H   0  0  0  0  0  0  0  0  0  0  0  0
    4.6697    3.9636  -15.9276 H   0  0  0  0  0  0  0  0  0  0  0  0
    5.9337    2.9778  -19.7081 H   0  0  0  0  0  0  0  0  0  0  0  0
    5.8219    5.2011  -18.4957 H   0  0  0  0  0  0  0  0  0  0  0  0
    3.3544    3.4172  -18.0974 H   0  0  0  0  0  0  0  0  0  0  0  0
    5.4862    8.5357  -23.2600 H   0  0  0  0  0  0  0  0  0  0  0  0
    6.4947    7.3665  -22.3422 H   0  0  0  0  0  0  0  0  0  0  0  0
    4.8149    7.7152  -21.8100 H   0  0  0  0  0  0  0  0  0  0  0  0
    7.1720   10.3066  -23.0634 H   0  0  0  0  0  0  0  0  0  0  0  0
    7.8524   10.7688  -21.4666 H   0  0  0  0  0  0  0  0  0  0  0  0
    8.2613    9.1764  -22.1902 H   0  0  0  0  0  0  0  0  0  0  0  0
    4.9225   10.7865  -22.2529 H   0  0  0  0  0  0  0  0  0  0  0  0
    4.2457    9.9646  -20.8062 H   0  0  0  0  0  0  0  0  0  0  0  0
    5.5234   11.2126  -20.6147 H   0  0  0  0  0  0  0  0  0  0  0  0
    8.9969   -2.7126  -17.3895 H   0  0  0  0  0  0  0  0  0  0  0  0
    8.6582   -4.4306  -17.7899 H   0  0  0  0  0  0  0  0  0  0  0  0
    8.1621   -3.1292  -18.9244 H   0  0  0  0  0  0  0  0  0  0  0  0
    3.9531    2.2330  -21.0122 H   0  0  0  0  0  0  0  0  0  0  0  0
    3.3630    1.2909  -19.6012 H   0  0  0  0  0  0  0  0  0  0  0  0
    5.0720    6.9155  -16.0125 H   0  0  0  0  0  0  0  0  0  0  0  0
    3.9069    7.9725  -16.8797 H   0  0  0  0  0  0  0  0  0  0  0  0
    5.4435   -4.6566  -16.9008 H   0  0  0  0  0  0  0  0  0  0  0  0
    6.4280   -4.9273  -18.3787 H   0  0  0  0  0  0  0  0  0  0  0  0
    4.8241   -2.3508  -18.0802 H   0  0  0  0  0  0  0  0  0  0  0  0
    8.3630   -2.4240  -22.1356 H   0  0  0  0  0  0  0  0  0  0  0  0
    8.0345   -3.1170  -20.6940 H   0  0  0  0  0  0  0  0  0  0  0  0
    3.6496    6.2772  -18.4947 H   0  0  0  0  0  0  0  0  0  0  0  0
    3.1219    5.2003  -19.5993 H   0  0  0  0  0  0  0  0  0  0  0  0
  1  2  1  0  0  0  0
  1  3  2  0  0  0  0
  2  7  2  0  0  0  0
  3  8  1  0  0  0  0
  4  7  1  0  0  0  0
  4  8  2  0  0  0  0
  5  9  1  0  0  0  0
  5 11  2  0  0  0  0
  6  9  2  0  0  0  0
  6 12  1  0  0  0  0
  7 23  1  0  0  0  0
  8 26  1  0  0  0  0
  9 22  1  0  0  0  0
 10 11  1  0  0  0  0
 10 12  2  0  0  0  0
 10 28  1  0  0  0  0
 11 33  1  0  0  0  0
 12 35  1  0  0  0  0
 13 15  1  0  0  0  0
 13 39  1  0  0  0  0
 14 16  1  0  0  0  0
 14 39  1  0  0  0  0
 15 17  1  0  0  0  0
 15 22  1  0  0  0  0
 16 17  1  0  0  0  0
 16 29  1  0  0  0  0
 17 32  1  0  0  0  0
 18 26  1  0  0  0  0
 19 26  1  0  0  0  0
 20 26  1  0  0  0  0
 21 34  1  0  0  0  0
 23 29  1  0  0  0  0
 24 25  1  0  0  0  0
 24 34  1  0  0  0  0
 25 27  1  0  0  0  0
 25 33  1  0  0  0  0
 27 36  1  0  0  0  0
 27 37  1  0  0  0  0
 27 38  1  0  0  0  0
 30 39  2  0  0  0  0
 31 39  2  0  0  0  0
  1 40  1  0  0  0  0
  2 41  1  0  0  0  0
  3 42  1  0  0  0  0
  4 43  1  0  0  0  0
  5 44  1  0  0  0  0
  6 45  1  0  0  0  0
 13 46  1  0  0  0  0
 13 47  1  0  0  0  0
 14 48  1  0  0  0  0
 14 49  1  0  0  0  0
 15 50  1  0  0  0  0
 16 51  1  0  0  0  0
 17 52  1  0  0  0  0
 18 53  1  0  0  0  0
 18 54  1  0  0  0  0
 18 55  1  0  0  0  0
 19 56  1  0  0  0  0
 19 57  1  0  0  0  0
 19 58  1  0  0  0  0
 20 59  1  0  0  0  0
 20 60  1  0  0  0  0
 20 61  1  0  0  0  0
 21 62  1  0  0  0  0
 21 63  1  0  0  0  0
 21 64  1  0  0  0  0
 22 65  1  0  0  0  0
 22 66  1  0  0  0  0
 23 67  1  0  0  0  0
 23 68  1  0  0  0  0
 24 69  1  0  0  0  0
 24 70  1  0  0  0  0
 25 71  1  0  0  0  0
 28 72  1  0  0  0  0
 28 73  1  0  0  0  0
 29 74  1  0  0  0  0
 32 75  1  0  0  0  0
M  END
> <OMEGA_C>
ZdACQUOsAkHjgJHBSRrkQBQS9kDRDovB6f38QPACC0FZvZvB3fOwQNT2A0GeHZnB/5iaQE4vTr9R
a6DBvE3HQLSBLz9RFqvB1qa5QEyG90AF1Y7BFGXSQLjiC0EXrZ/BkGejQBqz9j5EcqTBqXbZQMf/
1r8rranBywi2QC3w8b8H6KLBVTTiQMyTyb4yt63BL4yxQAPo5D9peY/BVGWwQDq/iECLgYTB4dCh
QLPMJUAjWZnBHRafQAA8m0AyI4/B0rGFQNYjc0Cvv5XBvxy3QONSAkGZErLB3BrvQATwHkGFlbDB
VvSkQJdRJkErA6rBHoEEQVKWWcBV647BxD6IQKau1D/z+6DB4IiVQNUm5kDv/ofBjw2/QMBDhcA/
2o3B9ayeQKRHVcCpdpTBH9PHQDa/FEGB66rBCL5lQJIugcCGUJXBi0f0QLKeL8A+P6zB4aSBQGvZ
v0C4/IzBXMX1QAprVEBE2o3BuT/ZQLAjCkCtQXrBkg5qQP/bjkBS+p7BeT2vQLhDS8BzN5/BSjvg
QFh8U8BNlonBGGICQZ0pQb6xBrTBa1EvQHptUcCcMpvBzb5uQKHXp8DWL5rBv5NDQLDDhsB7bIvB
fKXRQFHPNkDKSIfBORMTQbMkAkGql47BGuDqQCw66UCnN4PBpH4LQazLEEGgpKDBSGuQQJs2BEEz
B5zBGLx9QHc0d7+0bJvBPSjOQE8C1j8hKa7BTNeVQBsptz9I3IrBQ7XEQAiQbT+WJJLBb0LDQPBW
oUCsVYDBQG6VQDusfUCd137BiuC9QJuUPkAcqp3B8Uy6QBBvpkA+95PBdK5WQI+zWkBix5DB9Y6v
QCySCEF3FLrBf9TPQFG660DbvLLBQxOaQLPi9kDreq7B8oDlQMbnJEHTgbjBiEb7QBBNLEGLu6vB
HS4EQW7SEkF8hbHB04SdQFSVLEHwBbLB2dyHQAVvH0EYc6bBzb+wQMdmM0Hv6qTBTPMPQaybLcCp
HYvB+4cKQTzHjcC0UY7BJZgCQWZFSMAxZZfB2v98QEnqDkAHGajB+TtXQFg9pT9Sz5zBd02iQJtL
3UCFGYDBCwt6QOAe/0CLCYfBdzGuQEIDlcDHNIfBdbLNQHSsncCCB5PBpV6aQOxzFsBMpJDB1c4F
QWIiG8DEFbHBNY0AQa99R8BpjaXB15NpQJPeyEAi9ZPB/c1HQJxopkBUy5zBfbICQe7gAkGalJHB
LPLjQOor9kBfJ4vBHaD8QNt2C0FbwpvBAp6wQDBgBEEyHJnB/9SaQKXgT79MXqDBM7nHQAkoLD8n
DavBeHC5QPXY90BU447BQvjRQA5uDEENp5/Bl9+jQOHs8j7TYaTB/3XZQP4h2b8HqqnBRei1QOx9
87/466LBnnHiQABm0r4JsK3BRxGyQFyh5T84b4/BQU2wQGoEiUDggYTB31KiQHbJJUDEVpnB+zaf
QABdm0CMLI/B0xCGQOEcc0C8y5XBSJfuQBN1H0GskbDBXjmlQPueJ0Ejq6nBdxW1QCaXA0FG/LHB
poUEQa1FV8DV+47BwcqIQOkX1D//8qDBM1aVQIVM5kCwE4jBOQDAQIbihsAZPI7BYCifQB7GVsBd
f5TBACnHQMemFUEozqrBqsNlQM46gcDQCZXBiyb0QFvqMMAUOazBaaaBQDruv0C/Fo3BAfz1QNe8
VUBoxY3B1XjZQD9kC0ByGnrB9yBrQFu1jkDeD5/B7V6uQLUlTMD+Xp/BIIfgQKbDV8Aae4nBwIEC
QVLSV760AbTBhMMtQPerTsA5Q5rBBXtrQIP3psBCa5rBqmpHQEJziMAdBIvBpdzRQKq9N0DHOofB
GfoSQT1HAkH6so7BV9HqQHjs6EBkXIPBIUcLQQZeEUFDpqDBjwqQQHe3BEGL/ZvBwmB+QPGHd787
VZvBJ63OQA4n1D/UI67ByFyWQO1ktz/X1orBTG7FQMK7bz/MEZLBVenCQGK4oUA3ToDBPD+VQOrv
fUBK8H7B3V6+QEaKPkDdqZ3B5oS6QMaRpkAr+JPBBEBXQCqrWkDy2pDBd9DkQKO1JUFubLjB1bv7
QIGPLEHcsqvBg5QDQcILE0E9qrHBUJqdQPAlLkGinbHBDgeIQOEDIUErB6bBkvixQNZxNEFyjaTB
xVqtQOoYCkEq7rnBax/NQA+u7UBUz7LBMu+XQO//+UCHUK7BLbcPQZ2hLMCbxorB9BoLQf5FjMCh
KI/BODYCQRxHQMBxOJfBpyF+QHhqDkCxFKjByU1YQL/8pD/iw5zB/xGiQDF33UD6LIDB+2t5QFkp
/0BSIIfBa02vQJGWmMBw4IfB2EfPQIqpncAbwJPBqt6bQKw5GMAji5DBAMwFQYibHMBUCrHBCWsA
QbD1SMCEhaXB0fFpQArjyECsFZTB47RIQEdBpkAx65zB

> <OMEGA_E>
wAlcPUBxRT0=

> <OMEGA_NBR>
     86230

$$$$
50216843
  -OEChem-04172616093D

 78 80  0     1  0  0  0  0  0999 V2000
    8.2699    8.0796  -18.2438 C   0  0  0  0  0  0  0  0  0  0  0  0
    7.2106    7.6365  -17.4330 C   0  0  0  0  0  0  0  0  0  0  0  0
    8.0105    8.6192  -19.5181 C   0  0  0  0  0  0  0  0  0  0  0  0
    5.6215    8.2735  -19.1714 C   0  0  0  0  0  0  0  0  0  0  0  0
    4.9371   -0.8831  -19.7684 C   0  0  0  0  0  0  0  0  0  0  0  0
    5.8537    0.6456  -21.4425 C   0  0  0  0  0  0  0  0  0  0  0  0
    5.8828    7.7353  -17.8948 C   0  0  0  0  0  0  0  0  0  0  0  0
    6.6784    8.7307  -19.9977 C   0  0  0  0  0  0  0  0  0  0  0  0
    4.9264    0.3826  -20.4135 C   0  0  0  0  0  0  0  0  0  0  0  0
    6.7492   -1.6107  -21.2354 C   0  0  0  0  0  0  0  0  0  0  0  0
    5.8774   -1.8712  -20.1638 C   0  0  0  0  0  0  0  0  0  0  0  0
    6.7585   -0.3476  -21.8541 C   0  0  0  0  0  0  0  0  0  0  0  0
    5.4171    1.7815  -17.8173 C   0  0  0  0  0  0  0  0  0  0  0  0
    5.4914    4.3181  -16.5691 C   0  0  0  0  0  0  0  0  0  0  0  0
    4.9002    2.5210  -19.0755 C   0  0  2  0  0  0  0  0  0  0  0  0
    4.9386    4.8610  -17.9075 C   0  0  1  0  0  0  0  0  0  0  0  0
    4.0864    3.7980  -18.6736 C   0  0  1  0  0  0  0  0  0  0  0  0
    2.6199   -3.6921  -19.2353 C   0  0  0  0  0  0  0  0  0  0  0  0
    7.6076    9.8691  -22.1260 C   0  0  0  0  0  0  0  0  0  0  0  0
    5.3373   10.4665  -21.2627 C   0  0  0  0  0  0  0  0  0  0  0  0
    5.7518    8.1889  -22.2828 C   0  0  0  0  0  0  0  0  0  0  0  0
    4.0455    1.5224  -19.9131 C   0  0  0  0  0  0  0  0  0  0  0  0
    4.7367    7.2314  -17.0389 C   0  0  0  0  0  0  0  0  0  0  0  0
    3.4220   -3.9487  -17.9558 C   0  0  0  0  0  0  0  0  0  0  0  0
    5.7623   -4.5559  -17.6525 C   0  0  0  0  0  0  0  0  0  0  0  0
    6.3545   -3.2289  -18.2004 C   0  0  1  0  0  0  0  0  0  0  0  0
    6.3572    9.3057  -21.3966 C   0  0  0  0  0  0  0  0  0  0  0  0
    7.9110   -3.2561  -18.0357 C   0  0  0  0  0  0  0  0  0  0  0  0
    7.6156   -2.6061  -21.6729 N   0  0  0  0  0  0  0  0  0  0  0  0
    4.0699    6.0518  -17.6584 N   0  0  0  0  0  0  0  0  0  0  0  0
    7.5918    3.2530  -17.7601 O   0  0  0  0  0  0  0  0  0  0  0  0
    6.7339    2.2114  -15.5926 O   0  0  0  0  0  0  0  0  0  0  0  0
    3.5828    4.4303  -19.8527 O   0  0  0  0  0  0  0  0  0  0  0  0
    5.9275   -3.1307  -19.5956 O   0  0  0  0  0  0  0  0  0  0  0  0
    4.4924   -4.8682  -18.2613 O   0  0  0  0  0  0  0  0  0  0  0  0
    7.6514   -0.0783  -22.8335 F   0  0  0  0  0  0  0  0  0  0  0  0
    8.2599   -3.8103  -16.8410 F   0  0  0  0  0  0  0  0  0  0  0  0
    8.4789   -3.9945  -19.0263 F   0  0  0  0  0  0  0  0  0  0  0  0
    8.4216   -1.9984  -18.0667 F   0  0  0  0  0  0  0  0  0  0  0  0
    6.4779    2.8618  -16.8833 S   0  0  0  0  0  0  0  0  0  0  0  0
    9.2869    8.0060  -17.8879 H   0  0  0  0  0  0  0  0  0  0  0  0
    7.4141    7.2207  -16.4573 H   0  0  0  0  0  0  0  0  0  0  0  0
    8.8315    8.9511  -20.1362 H   0  0  0  0  0  0  0  0  0  0  0  0
    4.6028    8.3381  -19.5243 H   0  0  0  0  0  0  0  0  0  0  0  0
    4.2312   -1.0936  -18.9785 H   0  0  0  0  0  0  0  0  0  0  0  0
    5.8686    1.6157  -21.9170 H   0  0  0  0  0  0  0  0  0  0  0  0
    4.5629    1.4786  -17.1940 H   0  0  0  0  0  0  0  0  0  0  0  0
    5.9821    0.8888  -18.1237 H   0  0  0  0  0  0  0  0  0  0  0  0
    6.1147    5.0876  -16.0901 H   0  0  0  0  0  0  0  0  0  0  0  0
    4.6543    4.0582  -15.9044 H   0  0  0  0  0  0  0  0  0  0  0  0
    5.7643    2.8346  -19.6798 H   0  0  0  0  0  0  0  0  0  0  0  0
    5.7853    5.1545  -18.5453 H   0  0  0  0  0  0  0  0  0  0  0  0
    3.2540    3.4878  -18.0248 H   0  0  0  0  0  0  0  0  0  0  0  0
    1.7990   -2.9923  -19.0199 H   0  0  0  0  0  0  0  0  0  0  0  0
    3.2801   -3.2582  -20.0008 H   0  0  0  0  0  0  0  0  0  0  0  0
    2.2049   -4.6416  -19.6044 H   0  0  0  0  0  0  0  0  0  0  0  0
    7.3127   10.2610  -23.1106 H   0  0  0  0  0  0  0  0  0  0  0  0
    8.0481   10.6789  -21.5260 H   0  0  0  0  0  0  0  0  0  0  0  0
    8.3477    9.0661  -22.2578 H   0  0  0  0  0  0  0  0  0  0  0  0
    5.1110   10.8733  -22.2593 H   0  0  0  0  0  0  0  0  0  0  0  0
    4.4121   10.0903  -20.8017 H   0  0  0  0  0  0  0  0  0  0  0  0
    5.7652   11.2595  -20.6317 H   0  0  0  0  0  0  0  0  0  0  0  0
    5.5220    8.5948  -23.2791 H   0  0  0  0  0  0  0  0  0  0  0  0
    6.4750    7.3658  -22.3802 H   0  0  0  0  0  0  0  0  0  0  0  0
    4.8283    7.8126  -21.8184 H   0  0  0  0  0  0  0  0  0  0  0  0
    3.6064    2.0493  -20.7731 H   0  0  0  0  0  0  0  0  0  0  0  0
    3.2411    1.1132  -19.2841 H   0  0  0  0  0  0  0  0  0  0  0  0
    5.1276    6.9435  -16.0518 H   0  0  0  0  0  0  0  0  0  0  0  0
    3.9981    8.0378  -16.9199 H   0  0  0  0  0  0  0  0  0  0  0  0
    3.8411   -3.0019  -17.5846 H   0  0  0  0  0  0  0  0  0  0  0  0
    2.7659   -4.3852  -17.1882 H   0  0  0  0  0  0  0  0  0  0  0  0
    6.4679   -5.3735  -17.8615 H   0  0  0  0  0  0  0  0  0  0  0  0
    5.6223   -4.4612  -16.5656 H   0  0  0  0  0  0  0  0  0  0  0  0
    5.9497   -2.3881  -17.6180 H   0  0  0  0  0  0  0  0  0  0  0  0
    8.1624   -2.2612  -22.4358 H   0  0  0  0  0  0  0  0  0  0  0  0
    8.2211   -2.8739  -20.9234 H   0  0  0  0  0  0  0  0  0  0  0  0
    3.6900    6.3419  -18.5368 H   0  0  0  0  0  0  0  0  0  0  0  0
    3.0890    5.2049  -19.6109 H   0  0  0  0  0  0  0  0  0  0  0  0
  1  2  2  0  0  0  0
  1  3  1  0  0  0  0
  2  7  1  0  0  0  0
  3  8  2  0  0  0  0
  4  7  2  0  0  0  0
  4  8  1  0  0  0  0
  5  9  2  0  0  0  0
  5 11  1  0  0  0  0
  6  9  1  0  0  0  0
  6 12  2  0  0  0  0
  7 23  1  0  0  0  0
  8 27  1  0  0  0  0
  9 22  1  0  0  0  0
 10 11  2  0  0  0  0
 10 12  1  0  0  0  0
 10 29  1  0  0  0  0
 11 34  1  0  0  0  0
 12 36  1  0  0  0  0
 13 15  1  0  0  0  0
 13 40  1  0  0  0  0
 14 16  1  0  0  0  0
 14 40  1  0  0  0  0
 15 17  1  0  0  0  0
 15 22  1  0  0  0  0
 16 17  1  0  0  0  0
 16 30  1  0  0  0  0
 17 33  1  0  0  0  0
 18 24  1  0  0  0  0
 19 27  1  0  0  0  0
 20 27  1  0  0  0  0
 21 27  1  0  0  0  0
 23 30  1  0  0  0  0
 24 35  1  0  0  0  0
 25 26  1  0  0  0  0
 25 35  1  0  0  0  0
 26 28  1  0  0  0  0
 26 34  1  0  0  0  0
 28 37  1  0  0  0  0
 28 38  1  0  0  0  0
 28 39  1  0  0  0  0
 31 40  2  0  0  0  0
 32 40  2  0  0  0  0
  1 41  1  0  0  0  0
  2 42  1  0  0  0  0
  3 43  1  0  0  0  0
  4 44  1  0  0  0  0
  5 45  1  0  0  0  0
  6 46  1  0  0  0  0
 13 47  1  0  0  0  0
 13 48  1  0  0  0  0
 14 49  1  0  0  0  0
 14 50  1  0  0  0  0
 15 51  1  0  0  0  0
 16 52  1  0  0  0  0
 17 53  1  0  0  0  0
 18 54  1  0  0  0  0
 18 55  1  0  0  0  0
 18 56  1  0  0  0  0
 19 57  1  0  0  0  0
 19 58  1  0  0  0  0
 19 59  1  0  0  0  0
 20 60  1  0  0  0  0
 20 61  1  0  0  0  0
 20 62  1  0  0  0  0
 21 63  1  0  0  0  0
 21 64  1  0  0  0  0
 21 65  1  0  0  0  0
 22 66  1  0  0  0  0
 22 67  1  0  0  0  0
 23 68  1  0  0  0  0
 23 69  1  0  0  0  0
 24 70  1  0  0  0  0
 24 71  1  0  0  0  0
 25 72  1  0  0  0  0
 25 73  1  0  0  0  0
 26 74  1  0  0  0  0
 29 75  1  0  0  0  0
 29 76  1  0  0  0  0
 30 77  1  0  0  0  0
 33 78  1  0  0  0  0
M  END
> <OMEGA_C>
mVEEQTtGAUFm85HBhL3mQPVd9EDOdovB3SoAQQvoCUH+JJzB8OKzQB9gBEEFX5nBcPydQJIVYr+V
JZ7BRFG7QGhGJT88iqvB9z+8QNqH90B3KI/BWLXVQNWwC0FC+5/BT6WdQFDnwz7WTqPBM/nXQOEs
zr8z4qnBChS8QKmC77+MT6HBqEXYQKP9sb4Z1a7B4FitQNIH5D/iiY7BhbmvQOAtikB0jYTBws6c
QLtYIUCfmpjBywieQEyNm0CAQo/BqcOCQGMSc0CBY5XBJK0nQPBKbMDl4ZnBIXHzQKHnHUEFArHB
3MqqQPZ2J0H0GarBpQ64QMEFA0E9Q7LBhnSBQM3cwj8CTp/BbpOXQN1n50CjT4jBPAFbQBi4fMBm
pY/BKmW4QLjJkcBrOI3BQ1jLQFamTsBTmpHB/G3LQFjkFEEqLKvBHyf9QMhjUMAvSZDBX7PzQJrK
JsAJYq3B2DyCQPynwUB1RI3BtO/yQGsxUECaFI7B7nvXQGuHDUBTe3nBSk1lQKLEjUBW0p7BG669
QOdcSMDKw5zBwMGPQK3Im8A2F5LB8df0QPR0oL0Xq7bBvCgEQYbcc8BxuobBbqkHQf6lf8DINZjB
5L4GQQvN/7+OiJDB6krPQPUnN0AVEYfBMZcUQXgYAEFoGo/BeEDtQLMP50B0qIPB+k0NQak3D0Hg
FqHB9EmTQAxpBUGzMZzBEWaHQOb7i7/405fBq8u7QF/Ozj8AVq/B5QKSQEpEvT9JjYnBo22/QNaJ
Yz9l/ZDBnqvDQDbNokB3uIDBS/CUQO/cgUBreH7B1HS4QK5qNUAicJ3BgiG5QI/xpEDQXJTBCUJQ
QKc3X0DBMpDBR0XmPzCCP8DVKJjBbuxRQI6GUMCsAaDBjx0NQKCHlMDZ1ZzBAALqQDwtJEF44rjB
78QAQebcKkEoNazBW5AFQa8OEUH6D7LBHo2jQAj5LUEgE7LBKDCNQLZxIUHKaabBO3y4QNImNEGt
DaXBb7SwQByECUGKO7rBNjPPQMG060CzCrPB1YGaQMUA+kAvjK7Bss9mQNwnA0BAL6bBQm5PQMl9
jj/oRZrBAxWkQFwx3kANaoDBi+F/QPqaAEHdW4fBHNR1QHkeQMBBrYzBPQUxQJVTjMBugYnBIPnO
QM3zq8BP5I7B1+mzQAPCjsBihoTBMWS+QPDVGMCw8YzB/pgCQdi2EMCXfLPBjIkDQX7tN8ANY6fB
cilsQLHwykBTS5TBr7FFQLeOpkAU45zBEAsEQVUJAUEO/ZHBNGHmQDvh80DdcIvBgHn/QJWvCUEZ
KpzBcyOzQM8GBEFvRpnBpR+fQKltS7/Yp57BAT+/QCpQKj9DGKzBucm7QJMJ90BmD4/B2rvUQGRm
C0Ea75/BbmSgQLJq5j5uC6TBvKzYQM1k0L8dB6rBY7e7QJ6G6r+ij6HBt0/bQNDNvb5DEq/BXouu
QEUr5T8jHY/Bf3CvQCFGiUBojITBT7OeQB1TJED6FpnBhi6eQIx6m0BIN4/Bn6GDQIncc0BoopXB
JW8mQBszZMAxwJfBeeq2QK3KAkHQN7LBGLjxQEYJHkFi6rDBWf2oQB8KJ0G55KnBBXWEQGO9zT8M
V6DBhU2XQKLj5kCqKIjBfDNjQBEilcDJz5PBPaa3QCeyicBitYvBCLPLQC1GRcD8dJHBMgjKQCqs
FEEUFavBxYT9QDHpTcB30ZDBdLbzQHJRKsDqJ63B/gmCQMkmwUBnG43BRqHzQHuZUUAdAY7B0EjX
QIqaCkAWD3rB+YpmQBT6jkAz7p7Bf7m7QNzmQ8CVcpzBSPeJQGM+hcBx0orBm3H5QKHgFb6XobbB
Jz8FQXTYS8CCbYbBkjcFQbipjMBvNJXBcLoIQTyzDMD29JXBxpzPQEh1NkB+PIfBgFsUQROz/0D2
M4/Bqx3tQKuS5kCZpYPBKMsMQdoPD0EpJaHBc3qSQAzwBEE4EJzBn0KIQHYodL+ETZjBaljBQJhN
0D84/K/BAt+SQCliuz/sV4rBEgPBQEoiaT+erpHBB+zCQOq2oUA4gIDBE3KUQMswgEAlwX7BZba6
QGXvOkCDm53BToC5QGuPpUDhKJTBtj5SQNuaXUCXjpDBNkEBQKs2fMAVmJ7BLCb1P+4OUsBhQJHB
IsxLQIfxK8B/PJrB+0avQLNbCUH3J7rB6FTOQAGG60D9EbPBN5GZQIsc+UDrfa7BBAXoQDJZJEGa
w7jBSoT/QGsGK0H5FKzB/94EQfJdEUHYB7LBmWehQD+fLUHa1LHB852LQAfLIEH9LqbBcYK2QBW7
M0Gy0aTBgnVxQEI/CkBRXKfBwi1SQBVAmz8oy5vBuvmjQC2w3UAbR4DB30F/QPRRAEEMLYfBpuA9
QIFEscBEUpHB2YyHQM01nsBiTprBRva+QGjUpsDlS5DBFnjFQJlfjMCRpIPB+wbCQGOOCsBPP43B
BAwDQeCiFsCIObPBOSEDQa1YO8Bx/qbBsflqQC56ykA/FpTBWatFQFQgp0Cx05zBdUYCQRmYAkHX
fpHBGvvjQB6C9EAC94rB7Ib6QLGeC0EQgZvBlAqvQIK9A0EfgpjBEkWaQBwJ/b62fKHB5fPGQIcq
LT/FZa7BtB25QL7g9UAebo7BB3zPQMdzDEH1IJ/BlrajQHHqKD8cW6fBoM7XQHon0L9VWqnBOhK1
QAK+zb8m/KHB5UzgQGxm9b6HnK/Brqy1QBZC5T9WTZLBJECxQOgIhEBUWIXBAJylQKxvLUASkJvB
dXSgQMvImUCqno/BVgWIQMx2dEBk9pbBqWAZQbdmSMCqE5LB6LSzQAruA0E7m7HBAXjpQLeGIUEE
sq/BLjqfQD7KJkEMtKjB/rKMQF6N9j8+XqTBbRqWQCa84kAdiYfBYjQCQSz9WsBm547BYJLFQIaH
lsBnXJTBPMepQCw5d8DJGJzBr2zDQGAKFkHjH6rBTV9zQGkxhcAmpJrBZ3jzQFCYLcD5FarB1WeC
QAYXvUCt1IzBXJf4QL5pVECNpo7BfdjZQKy0+D+yjn7BqXdrQDMykkDMkZ/Bm+uwQKURH8CRmZnB
gpjyQFupjcBC9pXB304BQQCi5r7COrbBqYFjQHNMrsCfgZ3BV2tbQIItfsDWSJDBxi5EQMiJVcAl
96DBZpvTQAfZMEDs5YjBqrMSQQYUAkGE047BNM7rQHam5kCiS4PBjeUJQfn3EUGveKDBbziOQBHY
A0HNNpvB6PZ7QDTzBb9oh5zBIH/OQDUvyT+d2LLBsgmaQG32qj+2P47BdTjKQH3Sfz/bm5XBiEjD
QDdvm0Boj4DBrxSWQOvab0C8o4DBn4vBQL4oTEAIS5/ByNK7QATlpkAuFJTB6y5dQImwVUB5P5LB
wRMgQfGJF8Aes4zBFOAiQYq6gcDwcpHBl9kZQQnaMMDTXZrBhRmrQA60CkE4cLnBP1rNQFEb8EAX
pLLB83+XQElR+EDzDa7BcOLeQIj4J0HlcbfBadX0QMeyLkHjmKrBrdEBQdoKFkGr/LDBqb2WQISS
LUGnirDBEveCQDMEH0EuLqXBIk6qQKaoM0GJYKPB9ZuJQKLrI0ACg6vBnlhZQDMT1j8cVaHBB+aj
QDC02EDvrH/B+pV6QPEP+0DyIIbB1b8BQTR+csCpnIbBsXLxQCjjH8CMh4/Ba9u8QA6ijsAMEYzB
7pa/QPa2uMD21JXBFCazQGaugsCjZKTBcsYEQXsHIsBjsa/BQu8AQc6/NsCgCKPBgQZpQDYgx0Au
lpPB/ExHQNbmp0BYw5zB0g0EQbLxAUHYzZHBcRrmQOtR9UBnZ4vBdwIAQRScCkHpAJzBZJSzQJC2
BEELaZnBjdWeQEgRbL/hAZ7Bw3a8QFD0Hz8vNKvBrra7QKUt+EAYMI/Bw3/VQFQ4DEGl75/BP7ie
QEygtT5GA6PB16bXQED207/TFqrBdEW8QGYC9r+Xa6HBiszYQMRmv74Wt67BOOmtQDl25T+JQI7B
LEavQMfyikCiboTBe3idQLnpIEBnZZjBMvWdQKXam0CgOI/BGR6DQLTUckD7VpXBCv4rQGLTbsCB
gZnBc4W4QH+cA0GKTLLBNXzzQLysHkHb37DBx3iqQCjsJ0EYF6rBKWiCQOZcvz+E/Z7BLuKWQBPi
50ApaYjBYuldQN7IeMADCI/BPra5QCrljcCW34vB0H/NQEypS8CJZJHB5GzLQA57FUGeIavBgWb/
QLmfTMB1DpDBaOzyQI7MKcDRyq3BRe2BQMfpwUDVX43BShXzQI9OUkBBu43BgUPXQFhaEEDlw3jB
PohmQBU9jUAw257Bs6S/QE7JSsCelJzBnquRQH8DmsCPvZDB1QH2QLA4r73rWrbBd0sIQWuujMBb
65LB5RQJQWUND8C4F5bBIL4EQVgePcBOp4XBl0vPQGAROUCPxobBuUgUQZHjAEG44o7BvHTsQPHz
50CjmIPBzS8NQSkUEEHX4KDBzhGTQHicBUGeTpzB6paIQM8ekb+KnZfBLH29QJOOzT+Kzq7BBYKS
QE1Rvj/ZTInByVrAQEcrZz8smpDB6NrCQIHVo0DDloDBVk+UQN+UgkBRWn7BRCK5QOW3NEDzPZ3B
7Te5QAAwpUCaRpTBYqVQQFEhX0ALMZDBKo7tP/C8QcB5T5jBi+ZWQFAwVsAVxJ/BG3YSQN60lsAl
95vBAlOxQCMnCkGZRLrBqt7PQBkP7UBAELPBM/GaQITo+kClp67B6zLqQIX6JEF7wbjB6KEAQRGk
K0G8BazB6a8FQXHqEUEv6bHBxmOjQEF3LkG1ELLBbNeMQO/CIUFMeabBA8+3QPGeNEF5/aTB7Opn
QBeqAEDu36XBafBRQHyXij8j4ZnBrCujQHXc3kCQeoDBFxt+QHvGAEGFiIfBY6V3QCFROsCzjozB
8zQzQEfFiMDDwYjBSE/QQIa/qMB6jIzBmyS0QMCehsBvYIPByiDBQHxYEsA9U43BwQoCQbZwE8Bo
8LPBYlEDQeu5O8D55qfBZitsQIT5ykDmc5TBbJxGQIYKpkDGA53B

> <OMEGA_E>
yEmjPrArmj5ooK8+CE6oPg==

> <OMEGA_NBR>
     91394

$$$$
50216815
  -OEChem-04172616093D

 71 73  0     1  0  0  0  0  0999 V2000
    8.1661    8.1974  -18.2244 C   0  0  0  0  0  0  0  0  0  0  0  0
    7.1254    7.7152  -17.4126 C   0  0  0  0  0  0  0  0  0  0  0  0
    7.8858    8.7201  -19.5011 C   0  0  0  0  0  0  0  0  0  0  0  0
    5.5133    8.2720  -19.1576 C   0  0  0  0  0  0  0  0  0  0  0  0
    4.8397   -0.8044  -20.0530 C   0  0  0  0  0  0  0  0  0  0  0  0
    6.2390    0.7011  -21.3647 C   0  0  0  0  0  0  0  0  0  0  0  0
    5.7953    7.7592  -17.8747 C   0  0  0  0  0  0  0  0  0  0  0  0
    6.5511    8.7710  -19.9841 C   0  0  0  0  0  0  0  0  0  0  0  0
    5.1187    0.4889  -20.5336 C   0  0  0  0  0  0  0  0  0  0  0  0
    6.8139   -1.6646  -21.2050 C   0  0  0  0  0  0  0  0  0  0  0  0
    5.6935   -1.8836  -20.3810 C   0  0  0  0  0  0  0  0  0  0  0  0
    7.0840   -0.3738  -21.7004 C   0  0  0  0  0  0  0  0  0  0  0  0
    5.5742    1.8108  -17.9142 C   0  0  0  0  0  0  0  0  0  0  0  0
    5.5299    4.3062  -16.5618 C   0  0  0  0  0  0  0  0  0  0  0  0
    5.0684    2.6004  -19.1508 C   0  0  2  0  0  0  0  0  0  0  0  0
    4.9799    4.8706  -17.8923 C   0  0  1  0  0  0  0  0  0  0  0  0
    4.1872    3.8083  -18.7054 C   0  0  1  0  0  0  0  0  0  0  0  0
    5.6851    8.1739  -22.2794 C   0  0  0  0  0  0  0  0  0  0  0  0
    7.4294    9.9673  -22.1021 C   0  0  0  0  0  0  0  0  0  0  0  0
    5.1151   10.4182  -21.2640 C   0  0  0  0  0  0  0  0  0  0  0  0
    4.2650    1.6601  -20.0901 C   0  0  0  0  0  0  0  0  0  0  0  0
    4.6731    7.2153  -17.0129 C   0  0  0  0  0  0  0  0  0  0  0  0
    5.1243   -3.3341  -18.5522 C   0  0  0  0  0  0  0  0  0  0  0  0
    6.2090    9.3252  -21.3865 C   0  0  0  0  0  0  0  0  0  0  0  0
    3.7652   -4.0822  -18.4924 C   0  0  0  0  0  0  0  0  0  0  0  0
    6.3020   -4.0761  -17.8524 C   0  0  0  0  0  0  0  0  0  0  0  0
    7.6631   -2.7238  -21.5130 N   0  0  0  0  0  0  0  0  0  0  0  0
    4.0556    6.0120  -17.6282 N   0  0  0  0  0  0  0  0  0  0  0  0
    7.6970    3.3601  -17.7359 O   0  0  0  0  0  0  0  0  0  0  0  0
    6.8273    2.2101  -15.6304 O   0  0  0  0  0  0  0  0  0  0  0  0
    3.6583    4.4624  -19.8617 O   0  0  0  0  0  0  0  0  0  0  0  0
    5.4441   -3.1697  -19.9541 O   0  0  0  0  0  0  0  0  0  0  0  0
    8.1624   -0.1600  -22.4890 F   0  0  0  0  0  0  0  0  0  0  0  0
    2.7946   -3.2746  -18.9967 F   0  0  0  0  0  0  0  0  0  0  0  0
    3.4415   -4.3994  -17.2136 F   0  0  0  0  0  0  0  0  0  0  0  0
    3.7993   -5.2166  -19.2446 F   0  0  0  0  0  0  0  0  0  0  0  0
    6.3879   -5.3663  -18.2684 F   0  0  0  0  0  0  0  0  0  0  0  0
    6.1259   -4.0512  -16.5065 F   0  0  0  0  0  0  0  0  0  0  0  0
    7.4833   -3.4573  -18.1340 F   0  0  0  0  0  0  0  0  0  0  0  0
    6.5767    2.8949  -16.9045 S   0  0  0  0  0  0  0  0  0  0  0  0
    9.1850    8.1669  -17.8675 H   0  0  0  0  0  0  0  0  0  0  0  0
    7.3450    7.3112  -16.4354 H   0  0  0  0  0  0  0  0  0  0  0  0
    8.6929    9.0856  -20.1188 H   0  0  0  0  0  0  0  0  0  0  0  0
    4.4941    8.2848  -19.5147 H   0  0  0  0  0  0  0  0  0  0  0  0
    3.9719   -0.9731  -19.4325 H   0  0  0  0  0  0  0  0  0  0  0  0
    6.4487    1.6902  -21.7442 H   0  0  0  0  0  0  0  0  0  0  0  0
    4.7149    1.4513  -17.3290 H   0  0  0  0  0  0  0  0  0  0  0  0
    6.1771    0.9525  -18.2454 H   0  0  0  0  0  0  0  0  0  0  0  0
    6.1161    5.0823  -16.0481 H   0  0  0  0  0  0  0  0  0  0  0  0
    4.6920    3.9950  -15.9206 H   0  0  0  0  0  0  0  0  0  0  0  0
    5.9389    2.9868  -19.7013 H   0  0  0  0  0  0  0  0  0  0  0  0
    5.8256    5.2196  -18.5031 H   0  0  0  0  0  0  0  0  0  0  0  0
    3.3684    3.4280  -18.0771 H   0  0  0  0  0  0  0  0  0  0  0  0
    5.4409    8.5655  -23.2779 H   0  0  0  0  0  0  0  0  0  0  0  0
    6.4598    7.3982  -22.3694 H   0  0  0  0  0  0  0  0  0  0  0  0
    4.7823    7.7395  -21.8252 H   0  0  0  0  0  0  0  0  0  0  0  0
    7.1213   10.3404  -23.0899 H   0  0  0  0  0  0  0  0  0  0  0  0
    7.8109   10.8031  -21.4972 H   0  0  0  0  0  0  0  0  0  0  0  0
    8.2205    9.2130  -22.2256 H   0  0  0  0  0  0  0  0  0  0  0  0
    4.8742   10.8102  -22.2631 H   0  0  0  0  0  0  0  0  0  0  0  0
    4.2110    9.9830  -20.8132 H   0  0  0  0  0  0  0  0  0  0  0  0
    5.4842   11.2366  -20.6284 H   0  0  0  0  0  0  0  0  0  0  0  0
    3.9401    2.2260  -20.9756 H   0  0  0  0  0  0  0  0  0  0  0  0
    3.3829    1.2811  -19.5532 H   0  0  0  0  0  0  0  0  0  0  0  0
    5.0773    6.9459  -16.0260 H   0  0  0  0  0  0  0  0  0  0  0  0
    3.9034    7.9922  -16.8943 H   0  0  0  0  0  0  0  0  0  0  0  0
    5.0022   -2.3492  -18.0777 H   0  0  0  0  0  0  0  0  0  0  0  0
    8.4019   -2.3985  -22.1032 H   0  0  0  0  0  0  0  0  0  0  0  0
    8.0499   -3.0968  -20.6697 H   0  0  0  0  0  0  0  0  0  0  0  0
    3.6506    6.2869  -18.5002 H   0  0  0  0  0  0  0  0  0  0  0  0
    3.1214    5.1982  -19.5919 H   0  0  0  0  0  0  0  0  0  0  0  0
  1  2  1  0  0  0  0
  1  3  2  0  0  0  0
  2  7  2  0  0  0  0
  3  8  1  0  0  0  0
  4  7  1  0  0  0  0
  4  8  2  0  0  0  0
  5  9  1  0  0  0  0
  5 11  2  0  0  0  0
  6  9  2  0  0  0  0
  6 12  1  0  0  0  0
  7 22  1  0  0  0  0
  8 24  1  0  0  0  0
  9 21  1  0  0  0  0
 10 11  1  0  0  0  0
 10 12  2  0  0  0  0
 10 27  1  0  0  0  0
 11 32  1  0  0  0  0
 12 33  1  0  0  0  0
 13 15  1  0  0  0  0
 13 40  1  0  0  0  0
 14 16  1  0  0  0  0
 14 40  1  0  0  0  0
 15 17  1  0  0  0  0
 15 21  1  0  0  0  0
 16 17  1  0  0  0  0
 16 28  1  0  0  0  0
 17 31  1  0  0  0  0
 18 24  1  0  0  0  0
 19 24  1  0  0  0  0
 20 24  1  0  0  0  0
 22 28  1  0  0  0  0
 23 25  1  0  0  0  0
 23 26  1  0  0  0  0
 23 32  1  0  0  0  0
 25 34  1  0  0  0  0
 25 35  1  0  0  0  0
 25 36  1  0  0  0  0
 26 37  1  0  0  0  0
 26 38  1  0  0  0  0
 26 39  1  0  0  0  0
 29 40  2  0  0  0  0
 30 40  2  0  0  0  0
  1 41  1  0  0  0  0
  2 42  1  0  0  0  0
  3 43  1  0  0  0  0
  4 44  1  0  0  0  0
  5 45  1  0  0  0  0
  6 46  1  0  0  0  0
 13 47  1  0  0  0  0
 13 48  1  0  0  0  0
 14 49  1  0  0  0  0
 14 50  1  0  0  0  0
 15 51  1  0  0  0  0
 16 52  1  0  0  0  0
 17 53  1  0  0  0  0
 18 54  1  0  0  0  0
 18 55  1  0  0  0  0
 18 56  1  0  0  0  0
 19 57  1  0  0  0  0
 19 58  1  0  0  0  0
 19 59  1  0  0  0  0
 20 60  1  0  0  0  0
 20 61  1  0  0  0  0
 20 62  1  0  0  0  0
 21 63  1  0  0  0  0
 21 64  1  0  0  0  0
 22 65  1  0  0  0  0
 22 66  1  0  0  0  0
 23 67  1  0  0  0  0
 27 68  1  0  0  0  0
 27 69  1  0  0  0  0
 28 70  1  0  0  0  0
 31 71  1  0  0  0  0
M  END
> <OMEGA_C>
gKgCQZQoA0GYy5HBFwPkQN/i9kAOTYvB2lj8QGuFC0FAApzBtWywQCNaBEGvQpnBa96aQDLtTb9+
bKDBqaXHQHR5Mz/k6qrBBHO5QEBL+EBo/47B6aLRQPJVDEF535/BjcyjQBxL+j7qRKTBJwvaQBER
1b/eo6nBJjG2QAMb8b87DKPBdLDiQJxgv75fmq3BgF+yQH/J5z87UI/BkPSwQLHMiUCofoTBmDCi
QEptJkDXNJnBjlufQLXbm0CDI4/Buv2FQCy7c0C6pJXBXOy1QCvIAkFHPLLBiL3tQA56H0EO0bDB
A6+jQOqwJkGwHKrBHHuIQH9+1D9zuKDBqomVQLvj5kBxGojBRvqjQGphVcD8apTBUrDGQCg0FUGc
F6vBRPhwQLyhgsBa8JPBJarJQJ5vgsDL0Y7B5zf1QMRSLsC4GqzBfMeBQFdiwEB9Bo3B2k32QNcL
V0A4443BUXnaQDFyDUD/FXrBDiFqQLPLjkCz5J7BvTWuQOvcSsDxoZ/BCZkCQXvQI75t6bPBaNoy
QEuSUcBT+ZfBRkJcQEDIjMCGtYnBcChzQC7upsD+9JnB6mnMQJO4q8CYJZLBRwfEQNSjgcBCDYTB
j3fvQKJDXcBbEpHBV3TSQEdGOUB+PIfBtfUSQaWrAkGO8I7BIQrrQLD16UCse4PB9hULQZheEUE/
86DB1M+PQHSOBEEqHpzB3TN+QHQceb/HdZvBtFvOQENZ2D8K9K3BjOCWQGDDuT/UoYrBCKvFQCzZ
cz+t9pHBebfDQGqiokB7YoDB4SSWQGiuf0Dsun7Bcgu+QCUnP0A5nJ3BH2u6QE8Hp0BYBpTBMpNX
QN9kW0DPnZDBDRyuQGsMCUEuObrB3bbOQL697EB19LLBpwiZQCaq90ASmq7BpeHjQGNyJUEuuLjB
9fL5QI3ZLEFO+qvB+YYDQXNoE0HyzbHBaPmbQJj2LEHuGrLBqMCGQFG6H0F7gabBrn6vQP/IM0Ht
BqXB5ip8QAx2DkAezqfBCYJYQFP7oz/cbJzBL3miQL1E3kA7NYDBo9F5QCvA/0B4J4fBJhKgQBRa
FsAPn5DBUG4GQXeBGcBc07DBc8wAQbsyRsCYW6XBv6JpQEUuyUBVAJTBbsRHQNNXpkBNvJzBbaYC
QU40A0Gd5pHB+RnkQHQK90BIXYvBFyn8QHyNC0F/G5zBE0awQK5rBEEHRpnBCO6aQP6QTb95caDB
pQTIQFKqMj/Q6qrBP3m5QE9u+EB0BI/BnGLRQEZfDEFy7Z/BAQ2kQJMk+z4FS6TBNyTaQLeh1b8+
nqnB1iC2QClC8b+xFaPB8vviQHCOwr6vk63B+l6yQAEQ6D+CWI/Bzv2wQKjGiUASeoTBQF2iQGTJ
JkCbPJnB0XKfQGzzm0BlHY/BSSGGQAAQdEBxqZXB3nrtQEv9HkFfBLHBwTakQJ83J0EtFKrBySO0
QDX/AkH5KbLBycqIQNto1T9lzKDBnrCVQOH/5kDOFIjBhxmlQNj1VsB9hpTBOD/GQOBGFUErIavB
3DF0QIE2hMBN3ZPBCLzLQE0cg8D2QY/BWmH1QPi0LsBP/qvB196BQHN3wEB4+ozBB1/2QHjbVkDh
2Y3BFVLaQMgJDUCJF3rB6pdqQAQWj0CG557BR8qtQKwOS8CFyp/B8dMCQUYCL77K1rPBP400QG6a
VcAgspfBV4BhQPffjsCOm4nBFaR2QBhPqMAl9ZnBD3vGQMOShMBAe4TB4e/wQLrSW8BEUpHBW4/P
QD2iq8AYE5PB1G3SQJgfOUCPOofBQfoSQfqzAkE+FY/Bj0HrQO0s6kAhjIPB9/MKQTBjEUEXFKHB
ZZuPQPqlBEF6F5zBS1J+QDX2d78yeZvBD+DOQL3P1z9F9K3BLMuWQG4juj/PsIrBqKLFQEk4dD/O
/pHB5sjDQIeMokBDWoDB2SWWQESof0Bytn7BN0u+QDGbP0BHmp3B3Ym6QCUwp0Ar+5PBzcBXQLee
W0C+qJDBs3rjQFYDJUEK5rjBdKb6QH0+LEFHQazBXw0DQcGWEkG0ELLBgWOcQMmALUHvD7LB6yKH
QLyqIEHJWqbBUvmwQDA1NEE+EqXB0i6sQLJHCUHHI7rBgEDMQImJ7EBY8LLBSh+XQGDn+ECKaK7B
9GV9QAP1DkBP6KfBLMFYQCVypT+OjpzBlcWiQBFm3kAZM4DBAR56QIzX/0BdG4fBjB6hQNSFGMBu
lZDBgZQGQW8TGsA9r7DBIcgAQRNURsDyNaXBdpZpQLY8yUBl8ZPBZjVIQJicpkDQvJzBtbECQYE6
A0HI9pHBKEDkQMMX90D5Z4vBayf8QCORC0EIK5zBdU2wQMtyBEEqSZnB3RGbQC3dSr8mgKDB1znI
QGorND9/+6rBq5i5QEV1+EBYCo/BnlTRQI9xDEFM85/Bo0OkQOhi/z7GW6TBGy7aQBwZ1b8aq6nB
pTO2QNY88L9NHKPBqhbjQDzKwL6QpK3BH3uyQJ295z9pV4/BIhexQHPSiUBneoTBBpWiQCnZJkBz
O5nB85ufQPXnm0AXIo/BMUCGQM7bc0BzpJXBEP3sQOWpH0Ez6bDB7O+iQOa2JkFQKqrB4HW1QFXO
AkEWRrLBGhSJQKxf1j/I2qDBBNuVQDz25kBKG4jBSUOkQFfOVMAed5TBEBvGQBhMFUFAKKvBvhVx
QFzegcCb3JPBAQPKQHKggsCi/47BekH1QACgLsA3E6zBgQ+CQFJ3wECuBo3BnqH2QA5BVkBctY3B
4OLZQOfYDEC/5nnB8zJqQNPZjkAw3p7BbO6tQLdTSsCitJ/BdNYCQYHILr6F8LPBV5UzQFy8UMBZ
LJjBPa1bQLpdisDyj4nBTt9yQLYAp8BYjZnBN+zMQFONq8CwlZLBNGHEQDb0gsCrOoTB08nvQI8g
XcAfIJHBJWnSQGvcOECHKIfB0AgTQcO7AkEaKo/BzXjrQC1B6kAWl4PBoO4KQYZZEUFqKqHBbp2P
QHenBEHWFpzBU4N+QOiNdL9WipvBzinPQL5/2D+6BK7Bx9iWQO12uT+fuIrBP9DFQBcCdD+4/pHB
mPPDQGWbokC4YIDBDDOWQHkNgEAbtH7B+I6+QKXiP0BRj53Bari6QKwKp0C3AZTBRFRYQJ07W0Bj
mZDBXPjiQIifJUGfzbjBSCX5QHYOLUHgE6zBgDIDQd+mE0Gx7LHBAxebQPXyLEFKKLLBPhuGQMmx
H0FPiabBNa6uQBPZM0GMGKXBsW6tQM0HCUGyQbrBZWbOQKPy7EBHA7PBArmYQGuK90BFm67BxFN+
QBfAD0BU9KfBAhxZQJtqpj+iqJzB0PaiQPlL3kBrO4DBd2x6QMbH/0AiHYfBouagQBHFFcBio5DB
5oIGQfMgGsCPx7DBG7wAQaFrRsAqTqXBVDtqQFxDyUADAZTBYa9HQOFNpkAor5zBIzEDQREeAkG0
0pHBy6jkQDLC9UARVIvBIfL9QOJKCkGLGpzBErqxQLzbA0EAbpnBMYybQMwpVb9hb5/BUqPDQEfl
OD+6r6rBeDm6QE+t90AwGo/BnlnTQNRrC0FuCKDB2UShQKRd7T5Oq6PBy0jZQG9Xzr9GrqnBkf+3
QB0J77/vXKLBOLbfQB1on77noK3ByQqwQGRc5j+y0Y7B5yiwQMoJikCJZoTB/+GfQLV+JEB2zJjB
i6+eQLu5m0AtGo/BhKiEQMuzc0BJe5XBqgy5QI9fAUEddbLBdFXwQEJVHkF67rDBgKelQI9jJUHM
pKrBm1qFQNcRzj8w9J/BI92VQKwf50DgOojB64q5QCaRUsAn8ZLBVgTJQO0DFEFTWKvB3iaZQK4g
jMBjlY/BkszpQGHsaMA9JJDBNQ70QOkOKcCa/qzB7KOBQP/FwEDLGo3BDND0QDjaU0D1wI3BarTY
QCh7DUCBbnnB8HxpQOV+jkBQ457BFkOzQML1SMDHaZ7BM40AQaBpSb17L7TBi2ZiQNVbgMDD0ZLB
/cWYQN+vkMBiyITBTlCjQHEAssA1UpTBFTP9QACeJMDecYvB7kAAQcWXfcDeBZnBtGftQLgllsDF
UonBAd/QQElZOEA++4bBL3MTQSBoAUHc6o7BKEPrQAct6UDYc4PBOAwMQX3BD0FiDKHBWTORQB8+
BEHwV5zBFYaBQA0ohL+q+pnBMGLIQGby2z/Czq3BUIeUQGeQuz+uBorBgM3CQPjxbD9iYJHBXGLD
QFHSokAKaIDBoUOVQHHZgEACa37Bq8C7QLXnOkDtYp3BCti5QNg5pkAKDJTBd9lTQCqlXUDtdpDB
+KuxQKFvB0GmgrrBBhjSQOcb6kB7AbPBWQmcQCLB9ECc6K7B//zmQKUcJEGX6LjB/PX7QLPYK0HG
GazBC/QEQfNYEkFtvbHB7XaeQMVtK0EmtrLBq4+IQBhmHkEXIqfB+NywQDGoMkEclqXBg41yQJk4
CkDL86bBTHBUQKpKmz9PVZvBaHGiQGyU3kAiS4DBtDp7QJA0AEEBYYfBQzCxQBWKFsCb2I7BfNcE
QZ8nEsAiJrLBiocBQdrkQcCXpabBoPZpQNyLyUD8HZTBuzxIQCaspkBd5pzBQDsDQVxhA0Eyv5HB
bwblQGRX90D3SIvBaqX9QDTkC0Hd8JvBn6OxQOPrBEEXO5nBH4OaQPBxb7+8g5/Ba9vDQIbOJj8k
N6rBn326QMME+UC0AY/B6fXSQNvdDEHlz5/Bw1mhQCBVxj7qQaPB867ZQHi2179IV6nBV0q3QG6b
/L85bqLBFOXfQMdQwr6dPK3BD82wQJQp6D/moI7BRvmwQKAui0BMgYTBJt+fQBZJI0B5qpjBkPWe
QFlLnEAENI/BrbqEQNpmc0B5ZpXBRdO2QJp+A0EDJ7LB6k/vQBvgH0EMw7DBSIKlQCWCJ0El/6nB
YUmFQF3ixT/ghZ/BYEqWQKLD50AOLojBcw67QElKdcDwapXB9RjIQDzSFUEGBKvBl0jpQFFQX8DL
55DBYpGVQBWTZMCymI3BClr1QJkHLcCgb6zBOg+CQAyIwUAGL43BVTL1QPxxVkDYBI7BjYTaQLWh
EUCkennBulVoQKKzjUD20J7B7sivQBGrU8DOCaDBdnIAQZyI5L2o57PBDnwDQZSAhcCRrJbB6lft
QF+9ecARlobB53XzQOG7CsDFLJHBou2XQAkFjsBdQIXBTMZfQOk+c8DryJLBngaWQKgeE8CS1onB
ItXRQEX7OkDRDofBeoUTQbPFAkFi4Y7BD+3rQIs66kC+eoPBfccLQRG6EUF226DBAwiRQCJRBUEx
FpzBVdF+QMiZk7/lcZrBbcDIQNlt0z+GPK3BvqSVQFQTvj+yr4nBpaXDQB4dcD+5G5HBpjLEQHZA
pEDIn4DBIFuWQL0HgkAMcX7Bxly7QIkbOUDvb53BWdm5QHOQpkC4RJTBdqBUQBLZXUDrPpDBYA+v
QKvPCUElIrrBJ1PPQGPj7UBv5LLBs9KZQJtp+UCsf67BeoDlQJvrJUF/p7jBxeP7QE8qLUG/7KvB
QSoEQVCpE0FVxrHBIdmdQPHYLUHC+rHBaXaIQOKzIEGGX6bBH6+xQNCENEFg6aTBwJNwQHNpBEDC
jKbBWpRVQLhYkz+vqprBPgqjQJvE3kCySoDB7N17QMxvAEG6M4fBsoy7QNehncBQYJbB0OUFQSRL
FcBHTrHBH6UBQYctRsAH9aXBF15rQP2VykCRNJTBXF9HQAsEpkCn25zBfs0CQavtAkGM3ZHBPVTk
QESf9kDqVIvBCZD8QKg/C0GvFZzBAKSwQC8yBEFdRZnBC+qaQKW4TL+VU6DBFjbHQLLgND/i9KrB
Lrq5QK4a+EBOAI/Bo87RQGEcDEFW6p/BBoCjQEJB/D4pRaTBzfLZQKvV07/YoKnByV22QPVQ8L9P
9aLB81riQBr/ur77oa3BrPWxQJ7D5z8PVY/Bqt6wQOKxiUA9fYTBBOGhQMycJkAdOJnB4EGfQOzd
m0AwH4/BjMiFQPwFdEAkpZXBCjy2QCJlAkE1QrLBPrPtQI1IH0E53rDB/4OjQLFKJkHmL6rBaCmI
QMse1T98v6DB79CVQDLm5kAdE4jBzZKiQHEUVsD4fZTBbsLGQAzpFEEYJKvBbHZsQA2SgcBRmJTB
lZnGQE6YhMBcs47B7iz1QIWLLcDNHqzBUtKBQBJ6wEBu+ozBIRL2QKpzVkC+6o3BezXaQIXIDEB4
KXrBPfdpQKQPj0CC5J7BoP+uQCfSSsCki5/BS2ACQU05Gb5H+bPBtKIzQHOaUcBPCJrBn7dOQL0v
h8DhforBscZwQKIbqMBxoJnBqPq8QLAqicBOLITBe3XsQDxVXsC1e4/B//TLQMnlq8D8JpPBgzTS
QDbeOEAHQofBBh8TQb5lAkE0CY/B7mfrQP7K6UCugYPBWi4LQcAGEUERDqHBpgCQQPVnBEEwHJzB
Tbh+QG/6d78lSpvBTrzNQK/62D90B67B5GqWQKo5uj9CporB7x3FQNEccz8s/ZHBRr3DQMByokAg
YYDBXQ+WQOKYf0D2s37B0ci9QBw/P0BunJ3B3VS6QCcBp0AHApTBgglXQP/KW0BGoZDBQVauQJeX
CEFCQbrBDDDPQHIf7EAp9rLBDHCZQNe99kBuna7BPsnjQIYzJUHBxrjBTL35QNy0LEGMCazBc5QD
QZlJE0EX2LHBrMGbQIqBLEFFMLLBTqmGQNw/H0GrlKbB6CKvQNpxM0HZHKXBCb17QGbLDkAu16fB
Ub1XQE/NpD+ReJzBCc6iQHA83kAIMIDBZaN6QH7h/0B0HIfBxCWfQIdwF8BzkZDBoU8GQTypGMDk
5bDBNekAQQIlRcC/Y6XBgIxpQPBSyUCw8JPBs7hHQGSlpkA1u5zBuhIDQRluAUGq75LBf3PmQNqf
80CR74vB/aj6QD4hCkHh6pzBNYCvQLZcA0FB95jBIFaaQIBUAr+8PqHBGHDEQPxlPT+INa7BpQu7
QNKz9UDt7I7BSAnPQBSdC0HiAKDB2/WhQGDiKj959abBJj7YQIwbx7/VsqnB+Za2QAN/yr8kBaLB
orPeQLsixr4I2K/BlJSyQJyO4T9ohZHBjrqwQFMihEDI6ITBEcOjQEKPK0DA6ZrBKtegQKC+mUAK
SY/BG2qHQBhPdUAeiJbBVbG9QNGqAUGRB7PBq97jQHl3JEFeja/BJfOWQF2/IEGSgarBfh+KQBRk
8z9OmKPBQuKYQEuj40C/m4fBo6yuQD+1dcBkGpzBYSnCQN+BFEGmGKvBtxfNQBtyk8BAbpTB9XB8
QNX+hcDo8JrBXZn0QF+mJ8Db56rBHuGDQLQNvkAMmozB5VT3QHgvTUBI3o3BteLVQPZk9D8vz3zB
hL9sQOjCkkDTRp/BJd+0QEJzHcD5nJnBt9X/QMPnnr5GzbbBh1/1QObMgsDeFpXBwJ7OQAlDvcAf
PpfBZETAQNrlj8CEEorBb0JuQNeErsBLZ57BuddMQLjbVcAcDaHBr7xgQGY1gsAbrJDBQFDRQNi7
LUDJKYjB0bcTQdCbAEHlppDBs1nvQMJX5kCfRoTBe6YJQfa8D0GnSaLBiEGOQHyZA0HcUpvB+8d8
QIJYFr9TM5zB0rPKQCcM1D/Pf7LB9liWQPf/qz8meI3BeFLGQLZycT8TtZTB0KnDQH0wm0A1PYDB
eQ6VQBcYc0BwKIDBW0zAQK+ZR0BysJ7BUKe8QD/DpUDDw5PB7oNaQBwxWUCBzpHBfom0QI/VB0GM
8rrBx27cQN5c8kD+pLPBJe6kQP8k7UAxJLDBsGjZQJBaKkEUbLfBnzDnQNUJMkHcAqrBH3EBQZlO
HEE4YLDBvqCOQOjfJkEvfbLBsWB7QMHTFUEouafBu+6ZQAo1LkGm4qTBcF+FQBI7I0CnmarBfaZV
QAM6zj8gTqDBDrSnQHLP2UCJA4DBuLKAQHxx/EAuDYbBHIK4QBlkgcCmZKTB5NcEQaPyGcCMrLDB
ahICQQ18McCdBaTB8axrQE/Px0AvXZPByRFKQBlRqUA3mZzB

> <OMEGA_E>
iD4XPoBgGD6A2Rg+UHBpPiAUaz7QBRU+kB2rPg==

> <OMEGA_NBR>
     99508

$$$$
50216801
  -OEChem-04172616093D

 71 73  0     1  0  0  0  0  0999 V2000
    4.8422   -0.7839  -20.0464 C   0  0  0  0  0  0  0  0  0  0  0  0
    6.2302    0.7036  -21.3930 C   0  0  0  0  0  0  0  0  0  0  0  0
    7.2468    7.7193  -17.3651 C   0  0  0  0  0  0  0  0  0  0  0  0
    5.7090    8.2107  -18.9881 C   0  0  0  0  0  0  0  0  0  0  0  0
    5.1148    0.5026  -20.5523 C   0  0  0  0  0  0  0  0  0  0  0  0
    5.8131    7.7146  -17.7219 C   0  0  0  0  0  0  0  0  0  0  0  0
    6.8102   -1.6577  -21.1987 C   0  0  0  0  0  0  0  0  0  0  0  0
    5.6928   -1.8670  -20.3691 C   0  0  0  0  0  0  0  0  0  0  0  0
    7.0766   -0.3746  -21.7145 C   0  0  0  0  0  0  0  0  0  0  0  0
    5.5895    1.8233  -17.9512 C   0  0  0  0  0  0  0  0  0  0  0  0
    5.5621    4.3020  -16.5851 C   0  0  0  0  0  0  0  0  0  0  0  0
    5.0718    2.6192  -19.1795 C   0  0  2  0  0  0  0  0  0  0  0  0
    4.9841    4.8760  -17.8994 C   0  0  1  0  0  0  0  0  0  0  0  0
    4.1895    3.8210  -18.7193 C   0  0  1  0  0  0  0  0  0  0  0  0
    5.2900   10.4410  -21.2644 C   0  0  0  0  0  0  0  0  0  0  0  0
    7.1722   10.1069  -22.8680 C   0  0  0  0  0  0  0  0  0  0  0  0
    5.7491    8.1361  -22.2871 C   0  0  0  0  0  0  0  0  0  0  0  0
    4.2661    1.6817  -20.1186 C   0  0  0  0  0  0  0  0  0  0  0  0
    4.6699    7.1710  -16.9083 C   0  0  0  0  0  0  0  0  0  0  0  0
    7.4513    9.1409  -20.6077 C   0  0  0  0  0  0  0  0  0  0  0  0
    5.1573   -3.3253  -18.5359 C   0  0  0  0  0  0  0  0  0  0  0  0
    6.3864    9.4339  -21.7184 C   0  0  0  0  0  0  0  0  0  0  0  0
    3.7841   -4.0453  -18.4491 C   0  0  0  0  0  0  0  0  0  0  0  0
    6.3397   -4.1123  -17.8910 C   0  0  0  0  0  0  0  0  0  0  0  0
    7.9228    8.2232  -18.3721 N   0  0  0  0  0  0  0  0  0  0  0  0
    7.0058    8.5175  -19.3311 N   0  0  0  0  0  0  0  0  0  0  0  0
    7.6612   -2.7198  -21.4912 N   0  0  0  0  0  0  0  0  0  0  0  0
    4.0567    6.0058  -17.5960 N   0  0  0  0  0  0  0  0  0  0  0  0
    7.7123    3.3723  -17.7958 O   0  0  0  0  0  0  0  0  0  0  0  0
    6.8738    2.2093  -15.6842 O   0  0  0  0  0  0  0  0  0  0  0  0
    3.6548    4.4862  -19.8669 O   0  0  0  0  0  0  0  0  0  0  0  0
    5.4373   -3.1515  -19.9436 O   0  0  0  0  0  0  0  0  0  0  0  0
    8.1517   -0.1722  -22.5104 F   0  0  0  0  0  0  0  0  0  0  0  0
    2.8221   -3.2270  -18.9526 F   0  0  0  0  0  0  0  0  0  0  0  0
    3.4679   -4.3386  -17.1630 F   0  0  0  0  0  0  0  0  0  0  0  0
    3.7882   -5.1897  -19.1862 F   0  0  0  0  0  0  0  0  0  0  0  0
    6.1629   -4.2106  -16.5485 F   0  0  0  0  0  0  0  0  0  0  0  0
    7.5144   -3.4591  -18.1159 F   0  0  0  0  0  0  0  0  0  0  0  0
    6.4416   -5.3606  -18.4176 F   0  0  0  0  0  0  0  0  0  0  0  0
    6.6049    2.8999  -16.9513 S   0  0  0  0  0  0  0  0  0  0  0  0
    3.9831   -0.9431  -19.4117 H   0  0  0  0  0  0  0  0  0  0  0  0
    6.4351    1.6866  -21.7906 H   0  0  0  0  0  0  0  0  0  0  0  0
    7.6674    7.3681  -16.4344 H   0  0  0  0  0  0  0  0  0  0  0  0
    4.8163    8.3341  -19.5832 H   0  0  0  0  0  0  0  0  0  0  0  0
    4.7360    1.4641  -17.3574 H   0  0  0  0  0  0  0  0  0  0  0  0
    6.1862    0.9645  -18.2923 H   0  0  0  0  0  0  0  0  0  0  0  0
    6.1553    5.0766  -16.0770 H   0  0  0  0  0  0  0  0  0  0  0  0
    4.7372    3.9838  -15.9307 H   0  0  0  0  0  0  0  0  0  0  0  0
    5.9369    3.0125  -19.7334 H   0  0  0  0  0  0  0  0  0  0  0  0
    5.8162    5.2444  -18.5175 H   0  0  0  0  0  0  0  0  0  0  0  0
    3.3739    3.4332  -18.0914 H   0  0  0  0  0  0  0  0  0  0  0  0
    4.7042   10.0009  -20.4439 H   0  0  0  0  0  0  0  0  0  0  0  0
    5.7664   11.3698  -20.9174 H   0  0  0  0  0  0  0  0  0  0  0  0
    4.6243   10.6645  -22.1111 H   0  0  0  0  0  0  0  0  0  0  0  0
    7.9612    9.4266  -23.2210 H   0  0  0  0  0  0  0  0  0  0  0  0
    6.4860   10.3340  -23.6972 H   0  0  0  0  0  0  0  0  0  0  0  0
    7.6281   11.0393  -22.5035 H   0  0  0  0  0  0  0  0  0  0  0  0
    6.5441    7.4432  -22.5998 H   0  0  0  0  0  0  0  0  0  0  0  0
    5.1323    7.6600  -21.5106 H   0  0  0  0  0  0  0  0  0  0  0  0
    5.1192    8.3863  -23.1534 H   0  0  0  0  0  0  0  0  0  0  0  0
    3.9498    2.2461  -21.0082 H   0  0  0  0  0  0  0  0  0  0  0  0
    3.3785    1.3113  -19.5848 H   0  0  0  0  0  0  0  0  0  0  0  0
    5.0434    6.8557  -15.9229 H   0  0  0  0  0  0  0  0  0  0  0  0
    3.9110    7.9566  -16.7785 H   0  0  0  0  0  0  0  0  0  0  0  0
    8.2028    8.4702  -21.0497 H   0  0  0  0  0  0  0  0  0  0  0  0
    7.9227   10.1011  -20.3510 H   0  0  0  0  0  0  0  0  0  0  0  0
    5.0750   -2.3461  -18.0414 H   0  0  0  0  0  0  0  0  0  0  0  0
    8.3981   -2.4025  -22.0881 H   0  0  0  0  0  0  0  0  0  0  0  0
    8.0506   -3.0782  -20.6427 H   0  0  0  0  0  0  0  0  0  0  0  0
    3.6697    6.3271  -18.4603 H   0  0  0  0  0  0  0  0  0  0  0  0
    3.1175    5.2181  -19.5875 H   0  0  0  0  0  0  0  0  0  0  0  0
  1  5  1  0  0  0  0
  1  8  2  0  0  0  0
  2  5  2  0  0  0  0
  2  9  1  0  0  0  0
  3  6  1  0  0  0  0
  3 25  2  0  0  0  0
  4  6  2  0  0  0  0
  4 26  1  0  0  0  0
  5 18  1  0  0  0  0
  6 19  1  0  0  0  0
  7  8  1  0  0  0  0
  7  9  2  0  0  0  0
  7 27  1  0  0  0  0
  8 32  1  0  0  0  0
  9 33  1  0  0  0  0
 10 12  1  0  0  0  0
 10 40  1  0  0  0  0
 11 13  1  0  0  0  0
 11 40  1  0  0  0  0
 12 14  1  0  0  0  0
 12 18  1  0  0  0  0
 13 14  1  0  0  0  0
 13 28  1  0  0  0  0
 14 31  1  0  0  0  0
 15 22  1  0  0  0  0
 16 22  1  0  0  0  0
 17 22  1  0  0  0  0
 19 28  1  0  0  0  0
 20 22  1  0  0  0  0
 20 26  1  0  0  0  0
 21 23  1  0  0  0  0
 21 24  1  0  0  0  0
 21 32  1  0  0  0  0
 23 34  1  0  0  0  0
 23 35  1  0  0  0  0
 23 36  1  0  0  0  0
 24 37  1  0  0  0  0
 24 38  1  0  0  0  0
 24 39  1  0  0  0  0
 25 26  1  0  0  0  0
 29 40  2  0  0  0  0
 30 40  2  0  0  0  0
  1 41  1  0  0  0  0
  2 42  1  0  0  0  0
  3 43  1  0  0  0  0
  4 44  1  0  0  0  0
 10 45  1  0  0  0  0
 10 46  1  0  0  0  0
 11 47  1  0  0  0  0
 11 48  1  0  0  0  0
 12 49  1  0  0  0  0
 13 50  1  0  0  0  0
 14 51  1  0  0  0  0
 15 52  1  0  0  0  0
 15 53  1  0  0  0  0
 15 54  1  0  0  0  0
 16 55  1  0  0  0  0
 16 56  1  0  0  0  0
 16 57  1  0  0  0  0
 17 58  1  0  0  0  0
 17 59  1  0  0  0  0
 17 60  1  0  0  0  0
 18 61  1  0  0  0  0
 18 62  1  0  0  0  0
 19 63  1  0  0  0  0
 19 64  1  0  0  0  0
 20 65  1  0  0  0  0
 20 66  1  0  0  0  0
 21 67  1  0  0  0  0
 27 68  1  0  0  0  0
 27 69  1  0  0  0  0
 28 70  1  0  0  0  0
 31 71  1  0  0  0  0
M  END
> <OMEGA_C>
gvOaQOCrSL8RX6DBsl3HQNQeND/SJKvBs+XnQJAE90C+64rBYLC2QPFeA0Gj55fBFayjQNWpAD8d
a6TB/AS6QLnd9kCLxo3B7uzZQLAv1L/flqnBkyu2QFj47r8A9KLBUHPiQAnPv75Et63BIt2yQFxi
6T8EnI/BmPyxQEmqiUA6roTBNUyiQFKhJ0CXb5nBIH6fQDAInEAEMo/BtBCGQAyMdEAywZXBbkep
QGQOJ0FnHarBXYLlQAC2IUGX8bbBd/i3QIQtAkHmS7LBoYOIQAVC1z/e8qDBCXCVQCZ55UAiRIfB
NnHuQFJBEkGa3KTBaQilQIrRVMB3SZTBPF3MQC/xFkFIv63BTS9yQAlzgcC5l5PBj97KQNSXg8DR
II/BdYf9QDeSA0Ei+pLBRy/gQKFHCEENpprBeyj1QNIRLsDt7avBZtCBQKYvwECbxIzB9Mr2QGDU
V0DTXY7Bh/bbQKNkDUBU8nrB1+hpQMmOj0B5757Btv6tQNuyScCRjJ/Be20CQZpVML46FbTBgZ00
QIiHTsDsnpfBDfJdQIjVisDJTYnB7XFyQAMSpsBtfZnBXTbFQEm9hsBWY4TBWnbwQKliXcBK7ZDB
tSHOQGCKq8BOV5PBO1vTQDKXOUBPnIfB4up+QPpxcb8XS5vBA+zNQNXi1z8rU67Bclv1QMbH60C4
eYPB8x6aQEVYBUFzqpzBoY2XQF1muz/+24rBuvXFQFfrdj+pVpLB/PfEQJtzokClnYDBEpeXQBL2
fkD6437Befu9QJjMQEAX3p3B/B26QBTSp0DeI5TBwu1XQJi5W0A1u5DBFomWQMADIEECjaPBs4a4
QKbqNUHqVqfBQPqTQNuhKkF647DB98H+QF7TFkGIxLnBLY3PQCVYJUHQk73BoRn0QPCgMEE/B7TB
GmnRQGQu7kBczLTB/DukQGAe9UC3FazBQtCjQDcuBkFDOrnBSsp8QAjAD0DbEKjBQzlYQCnXpz+S
rZzB0GOhQH1h20AMxH7BiU16QLqc/kBOOobBnD4DQcuFB0HIZajBhIb9QCSeIUHJzqLBGWaiQFAn
FsDFVJDBnl4GQffCGcBbtLDBQM8AQbgBRcA9JKXBm9xqQIl3ykC3rpPBIYVHQLb6pkBKs5zBMoKZ
QBNjTr9UIqHBrGvKQFKiMj+GcqrBDJ3nQLEG/kDVB5LBnw+pQH+l+0CflpvBxX6kQC0k/T6Ch6TB
mba4QGLG9kAyfZHBri3bQITd1r8SIqnBoQ21QOai8r/WYaPBpJ3lQGbbxb5ZxKzBIvuwQLLT4T8K
eI/BzPawQHS2hkD5MYTBhWKiQBQdJkAxT5nBK/WgQOiTmkCXvY7BW9WGQJmfdEDKrJXBfYmcQCVq
KEGgpqjBhLjrQLRIK0G8w6zBgmi3QM6aIUFYQrvBekCJQKKM1z+NMKHBZg2eQB225kBtUojB0LPI
QLu9BkGVG63B+EeaQFdWXMBtJJbBKQnCQHbwHkGxS6/BgjVhQCOXiMAGkZfB/sG9QO0rhcDeio/B
b+vxQNwTA0HfCpzBYHnMQK4yAkFykqHBZJX2QGrBL8AfMavBkr2FQOtDwEBT/4vBLBz2QG/mT0Ag
cY3Bc+rXQHq5BEC95nnBOGRvQCPHkEAY5Z7BmsuqQB+XTMCKxqDBrvEEQXRHOr6pcrLBHTwqQFit
ZMCK6p3B1Ik6QFNfj8CV/o3B5K5xQLPcrsBrVZzBB9CuQFhXkMB0vIXB9qjfQHKyVMA+NI7BUfXL
QOPTqMC+qpTBFGDRQGOpMkBND4fBYhp4QHTDeL9g0JzBn5nSQHos2D+PNK3BjIf9QJzW/EBLW4vB
JUKIQIko+UCCPJ7B7sKUQB+xtT94/YrBv6HDQIEMZT8SLJLBRu3DQF1/nkC9iH/BXWOVQEqdeUAp
o37BoAa/QEpXPkCvbp3BZsi8QPtYpUDkaJPBCXhXQOL2XEB+5pDBztp9QDudH0FodqrBWNOjQPby
JkGlEqDBS0+YQBJlOUHatarB0RwDQSKNJEH/ebHBwYjnQAREPEGA067BzgzzQOjRKUFLMKTBo57R
QDD7GkE0HMDB5oyZQIgKGUGQGb3BunSzQJOyMkHvG73BeoqAQFkBEUB2VajBIQpYQNr+qD+APp3B
PvGyQDH53UCilYHBnZKHQK3K/0Ccw4XBBjmtQH+s+0ASVrDBFifmQGp3AUFoJLHBxlqSQIV4H8Bx
MJLBavgHQR35GsClUq/BeTAAQTc0ScCkRaTBvPRpQPtkyEB6gJLBBPRNQJKZqED7spzBtaibQI5C
Tb8GCaDBu+rEQGgANz+HVqvBquLlQBHs/0C024/BoBemQMldB0HcIpjBiCyiQORk+j7mXKTBCLS2
QOqH+kCBbY/BmB7ZQHpZ0b9PIKrBubG3QOgc7r8fy6LBeDbgQOdCsL5LOa7BSC+vQO0C4T9fPo/B
M7evQPE9hkD7AYTBfdqgQJN3JUAUHZnBcVugQMismkCYlY7BgRqGQPp2dUDBmJXBaMX/QNOsEkGV
pLHBPPK3QPty/0AuPLLBvYm/QN0WJUG6ernB6NiGQC0P1T+yvKDBApabQPH05EA/HYfBLInDQIvK
H0FexaXBWEe6QBY9SsC7wpLBH8HOQHORFUFxrbDBvAyXQMkRg8ArXY7ByzjpQHDaZsACq4/ByCbv
QN0nDEEKIZjB3tTIQDXYEEFBvJzBNOfzQEmoK8CuHq3BrMuEQOngv0Dx5ovBcKT0QHEETkBhKY3B
0b3VQGEcA0BvcXnBSHBvQPlvkUDj3J7Bt8KzQIwtR8APR57B/OEAQYQ9572JzbTBvAxgQOLOZMDy
1JDBrquaQKWPhsCLlIPB86yZQB+JqsAF7pLBBNT0QHBhQsBgO4bByBoDQecUTcBQEZfBoAXtQCyQ
nsDYp47BLavPQEpbMUD004bBo1CBQHQCe7/2oJrB0ZbKQCVH2j82eq7Bm6r8QJA08kD1VorBdTKF
QPjGB0EJx5rB5NKSQP75tT9jx4rBD6LBQPr9YT8m65HB07zCQHWwnUDP937BRM2TQAcLeUBGdX7B
IIy9QPDqO0BhXp3B/2G8QFt+pUC3K5PBzA5VQCITX0C05ZDBfNQHQak4IkGDh7DB3HMFQXdsB0GW
eavBh80DQSlRDEGHnLnB3SKVQIzuAUFJibHBs5+/QIKm8kB0NLrBXezCQB/d6ECDEazBvrGcQA5F
J0HJ3rjBRo/PQDWhNEEZeLjBhoPHQKlxHkFbYcHBLVt5QBKMD0ADx6fBCvNUQJWepD++f5zBGh+w
QCa12UAli4DB9AaEQDTr+0Dq+4PBbpjYQLWnLUGseqTBoAWiQIMnJUHf/qXBNQe1QPcSCsDZYo/B
VdcEQadMFsB4VrLBuVwBQdfQQsDFpabBqy1tQGrJyUADoZLB1QRPQHisqUBVtpzBkjScQDpEWb/7
tZ/B0h3FQORcKT+oI6vBpN3oQBBi/UCWPJHBahqsQGpD/ECvgJvB1oyiQP4q4T5OGqTBiNi5QPif
9kCUQJHBfmDZQEYY2L984qnBgDS4QNxS9L+Hd6LBtEXgQMChzL7RDq7BCL2uQLkR4D9dCo/BaIuu
QDXUhkBfFYTBNpugQBSmI0BTCJnBer+fQGxzmkC5xY7BcKeFQLMudED1t5XBWOWgQMGAKEFe7ajB
QDjxQPIJLEEEJavBSunCQLSJIkH937rBmPGGQFrQzj8ElKDBTGKdQBLS5kAlZIjBJlPPQORHB0Ex
mazBTB+8QEYbS8BYS5LBPv/IQCmFH0G3vK7B6MmXQG74gMBKcY3B9pHqQI2za8DrYo/BVBf1QP/z
AkFhF5vBhrHQQIR0AkHxDKHBKBH0QNgNL8Dc6azBJvCEQCrKwEAmT4zBRPvzQHsyTkD0+YzBNJrU
QL0nBUCn73jBX6xvQDw8kECCHp/BLqW0QM7LScB+yZ3BArQAQcT5Mb4MyLTBAQtjQIurXMBPwY/B
8mmcQCR1g8BSqoLBGKOXQGQHqcBSuZHBwPL4QDbnQsA+eYbBAHIDQZ+JWsBTUJfBaufrQCazoMAi
j43BTs/OQLQzMkDwqobB+wGCQNImg78ZQZrB78PKQCNT0z9kTa7BkYX9QMac+0DoUorB8smLQCdW
+kA7h57BNUiSQEiEtT97mIrBIWnBQMOeXz8ek5HB1kfBQNCZnkCrLn/BwWuSQJ6lekC6tX7BXmO9
QCaxOUCkSJ3BDSG8QHR1pEBNVpPB27hTQLFuXkCADZHBcV2EQNeRH0G4f6vBVfqkQCjIJkGjOqDB
ufKcQA6GOUHo76rBUMYGQZyjJUHJRa/BsVbtQAIQPUEGKK3BTV71QBxSKkHBcqLBDgzfQBJCHEFB
Ib/BqyWmQNLYGUHNfb3B3S6/QI+qM0HPq7zB0kp5QPCTC0DkrKfBvlBVQJg9nj9bT5zBhwOxQG2o
3UB/dIHBv/GGQJUhAEEIC4bBUJy0QEPZ/EBCPLDBiJztQNEhAkEwRbDBZOq4QHK0CcBKI4/BFdIE
QYbMGcDcMLLB1ZEBQSQGRsCNd6bBR9lqQEM5yUAd+5LBsAtPQPabqEDJHp3B

> <OMEGA_E>
6EF7PsChwT5YH9Y+qFXhPg==

> <OMEGA_NBR>
    104304

$$$$
50216793
  -OEChem-04172616093D

 70 72  0     1  0  0  0  0  0999 V2000
    4.8305   -0.7920  -20.0430 C   0  0  0  0  0  0  0  0  0  0  0  0
    6.1941    0.7029  -21.4064 C   0  0  0  0  0  0  0  0  0  0  0  0
    5.7859    8.1991  -18.9305 C   0  0  0  0  0  0  0  0  0  0  0  0
    5.0840    0.4951  -20.5603 C   0  0  0  0  0  0  0  0  0  0  0  0
    6.8055   -1.6493  -21.1967 C   0  0  0  0  0  0  0  0  0  0  0  0
    5.6949   -1.8676  -20.3604 C   0  0  0  0  0  0  0  0  0  0  0  0
    7.0527   -0.3669  -21.7233 C   0  0  0  0  0  0  0  0  0  0  0  0
    5.8904    7.6486  -17.5969 C   0  0  0  0  0  0  0  0  0  0  0  0
    7.0494    8.5199  -19.3427 C   0  0  0  0  0  0  0  0  0  0  0  0
    5.5665    1.8209  -17.9686 C   0  0  0  0  0  0  0  0  0  0  0  0
    5.5519    4.2886  -16.5999 C   0  0  0  0  0  0  0  0  0  0  0  0
    5.0387    2.6167  -19.1930 C   0  0  2  0  0  0  0  0  0  0  0  0
    4.9704    4.8732  -17.9078 C   0  0  1  0  0  0  0  0  0  0  0  0
    4.1628    3.8248  -18.7276 C   0  0  1  0  0  0  0  0  0  0  0  0
    7.1560   10.0988  -22.9111 C   0  0  0  0  0  0  0  0  0  0  0  0
    5.2872   10.3837  -21.2778 C   0  0  0  0  0  0  0  0  0  0  0  0
    5.8028    8.0904  -22.2859 C   0  0  0  0  0  0  0  0  0  0  0  0
    4.2297    1.6724  -20.1241 C   0  0  0  0  0  0  0  0  0  0  0  0
    4.7003    7.1382  -16.8322 C   0  0  0  0  0  0  0  0  0  0  0  0
    7.5048    9.1470  -20.6450 C   0  0  0  0  0  0  0  0  0  0  0  0
    5.1544   -3.3175  -18.5174 C   0  0  0  0  0  0  0  0  0  0  0  0
    6.4136    9.4114  -21.7425 C   0  0  0  0  0  0  0  0  0  0  0  0
    3.7612   -4.0015  -18.4424 C   0  0  0  0  0  0  0  0  0  0  0  0
    6.3076   -4.1370  -17.8595 C   0  0  0  0  0  0  0  0  0  0  0  0
    7.1560    7.6134  -17.2603 N   0  0  0  0  0  0  0  0  0  0  0  0
    7.6719   -2.7012  -21.4817 N   0  0  0  0  0  0  0  0  0  0  0  0
    4.0676    6.0193  -17.5852 N   0  0  0  0  0  0  0  0  0  0  0  0
    7.6895    3.3711  -17.8304 O   0  0  0  0  0  0  0  0  0  0  0  0
    6.8697    2.2032  -15.7132 O   0  0  0  0  0  0  0  0  0  0  0  0
    7.8967    8.1653  -18.3320 O   0  0  0  0  0  0  0  0  0  0  0  0
    3.6275    4.4944  -19.8722 O   0  0  0  0  0  0  0  0  0  0  0  0
    5.4671   -3.1539  -19.9197 O   0  0  0  0  0  0  0  0  0  0  0  0
    8.1231   -0.1559  -22.5233 F   0  0  0  0  0  0  0  0  0  0  0  0
    2.8598   -3.2729  -19.1543 F   0  0  0  0  0  0  0  0  0  0  0  0
    3.3302   -4.0699  -17.1574 F   0  0  0  0  0  0  0  0  0  0  0  0
    3.8028   -5.2519  -18.9752 F   0  0  0  0  0  0  0  0  0  0  0  0
    6.0072   -4.4328  -16.5692 F   0  0  0  0  0  0  0  0  0  0  0  0
    7.4601   -3.4105  -17.8768 F   0  0  0  0  0  0  0  0  0  0  0  0
    6.5322   -5.2939  -18.5379 F   0  0  0  0  0  0  0  0  0  0  0  0
    6.5903    2.8940  -16.9777 S   0  0  0  0  0  0  0  0  0  0  0  0
    3.9758   -0.9575  -19.4039 H   0  0  0  0  0  0  0  0  0  0  0  0
    6.3856    1.6854  -21.8119 H   0  0  0  0  0  0  0  0  0  0  0  0
    4.8761    8.3324  -19.4970 H   0  0  0  0  0  0  0  0  0  0  0  0
    4.7177    1.4625  -17.3677 H   0  0  0  0  0  0  0  0  0  0  0  0
    6.1594    0.9614  -18.3148 H   0  0  0  0  0  0  0  0  0  0  0  0
    6.1464    5.0591  -16.0872 H   0  0  0  0  0  0  0  0  0  0  0  0
    4.7287    3.9652  -15.9460 H   0  0  0  0  0  0  0  0  0  0  0  0
    5.9003    3.0076  -19.7542 H   0  0  0  0  0  0  0  0  0  0  0  0
    5.8032    5.2332  -18.5299 H   0  0  0  0  0  0  0  0  0  0  0  0
    3.3480    3.4406  -18.0964 H   0  0  0  0  0  0  0  0  0  0  0  0
    7.9628    9.4429  -23.2701 H   0  0  0  0  0  0  0  0  0  0  0  0
    6.4490   10.2927  -23.7311 H   0  0  0  0  0  0  0  0  0  0  0  0
    7.5847   11.0505  -22.5638 H   0  0  0  0  0  0  0  0  0  0  0  0
    4.7320    9.9304  -20.4434 H   0  0  0  0  0  0  0  0  0  0  0  0
    5.7352   11.3325  -20.9475 H   0  0  0  0  0  0  0  0  0  0  0  0
    4.5995   10.5747  -22.1148 H   0  0  0  0  0  0  0  0  0  0  0  0
    5.2653    7.5743  -21.4768 H   0  0  0  0  0  0  0  0  0  0  0  0
    5.1030    8.3192  -23.1032 H   0  0  0  0  0  0  0  0  0  0  0  0
    6.6076    7.4423  -22.6630 H   0  0  0  0  0  0  0  0  0  0  0  0
    3.9043    2.2325  -21.0132 H   0  0  0  0  0  0  0  0  0  0  0  0
    3.3479    1.2989  -19.5830 H   0  0  0  0  0  0  0  0  0  0  0  0
    5.0259    6.7778  -15.8453 H   0  0  0  0  0  0  0  0  0  0  0  0
    3.9712    7.9517  -16.7033 H   0  0  0  0  0  0  0  0  0  0  0  0
    7.9676   10.1145  -20.4007 H   0  0  0  0  0  0  0  0  0  0  0  0
    8.2603    8.4799  -21.0855 H   0  0  0  0  0  0  0  0  0  0  0  0
    5.0938   -2.3361  -18.0243 H   0  0  0  0  0  0  0  0  0  0  0  0
    8.4014   -2.3788  -22.0849 H   0  0  0  0  0  0  0  0  0  0  0  0
    8.0702   -3.0447  -20.6312 H   0  0  0  0  0  0  0  0  0  0  0  0
    3.7157    6.3868  -18.4461 H   0  0  0  0  0  0  0  0  0  0  0  0
    3.0951    5.2288  -19.5897 H   0  0  0  0  0  0  0  0  0  0  0  0
  1  4  1  0  0  0  0
  1  6  2  0  0  0  0
  2  4  2  0  0  0  0
  2  7  1  0  0  0  0
  3  8  1  0  0  0  0
  3  9  2  0  0  0  0
  4 18  1  0  0  0  0
  5  6  1  0  0  0  0
  5  7  2  0  0  0  0
  5 26  1  0  0  0  0
  6 32  1  0  0  0  0
  7 33  1  0  0  0  0
  8 19  1  0  0  0  0
  8 25  2  0  0  0  0
  9 20  1  0  0  0  0
  9 30  1  0  0  0  0
 10 12  1  0  0  0  0
 10 40  1  0  0  0  0
 11 13  1  0  0  0  0
 11 40  1  0  0  0  0
 12 14  1  0  0  0  0
 12 18  1  0  0  0  0
 13 14  1  0  0  0  0
 13 27  1  0  0  0  0
 14 31  1  0  0  0  0
 15 22  1  0  0  0  0
 16 22  1  0  0  0  0
 17 22  1  0  0  0  0
 19 27  1  0  0  0  0
 20 22  1  0  0  0  0
 21 23  1  0  0  0  0
 21 24  1  0  0  0  0
 21 32  1  0  0  0  0
 23 34  1  0  0  0  0
 23 35  1  0  0  0  0
 23 36  1  0  0  0  0
 24 37  1  0  0  0  0
 24 38  1  0  0  0  0
 24 39  1  0  0  0  0
 25 30  1  0  0  0  0
 28 40  2  0  0  0  0
 29 40  2  0  0  0  0
  1 41  1  0  0  0  0
  2 42  1  0  0  0  0
  3 43  1  0  0  0  0
 10 44  1  0  0  0  0
 10 45  1  0  0  0  0
 11 46  1  0  0  0  0
 11 47  1  0  0  0  0
 12 48  1  0  0  0  0
 13 49  1  0  0  0  0
 14 50  1  0  0  0  0
 15 51  1  0  0  0  0
 15 52  1  0  0  0  0
 15 53  1  0  0  0  0
 16 54  1  0  0  0  0
 16 55  1  0  0  0  0
 16 56  1  0  0  0  0
 17 57  1  0  0  0  0
 17 58  1  0  0  0  0
 17 59  1  0  0  0  0
 18 60  1  0  0  0  0
 18 61  1  0  0  0  0
 19 62  1  0  0  0  0
 19 63  1  0  0  0  0
 20 64  1  0  0  0  0
 20 65  1  0  0  0  0
 21 66  1  0  0  0  0
 26 67  1  0  0  0  0
 26 68  1  0  0  0  0
 27 69  1  0  0  0  0
 31 70  1  0  0  0  0
M  END
> <OMEGA_C>
i5OaQK29Sr8dWKDB5TXGQJrwMz81QKvBJSa5QJQvA0GucZfBU7CiQFmA/T6De6TBq8bZQNod07/o
kqnBvTy2QBwP778Y4qLBj6/hQHrWu75Fya3BGX68QFLB9EBsxozB/ZThQHpRCEHsvZrBnSCyQJ4R
6T+7v4/BTqmxQOw7iUCkzITBYT2hQNR3J0BVi5nB5g2fQHrxm0A8Q4/B/zWFQGDJdEAt0pXBSv7k
QMCUIUHkSbfBizCpQI0jJkHpOKrBXbC5QE5yAUGfSbLBAFqHQCwS1j9C/qDB12iWQBZs5EBnqIbB
+CbwQBtaEkH6KKXBEfGkQPxRVMCZI5TBIDzNQASVFkGs8K3B5LdwQI4MgMAIipPBHtjJQENihMBA
4I7BVf7kQKyg80AYFYrBD4D1QDThLMCT2qvBEiqCQFCewEB9rozBvRD2QD/AV0C9pI7Bv9TbQFEB
DUAmaXvBiLH8QBulAkHkp5LB/ChoQETSj0A3+p7BV/KuQBDZScCWW5/BLfgBQVyvH77QL7TB8AY3
QKh2UcD7O5nBZyFVQKw8gsBMQonBHmFzQFIPqMAkzZfBnzrAQODZjcDGjYTBErnuQPJFWsC5A4/B
KQjRQIBnqcCoTZTBBuTSQEs3OUBr0ofBHnR+QHIfdb8dO5vBilbMQOm51z/Pfq7BKwmcQHNRBUHh
+ZvBEfeWQM4yuz8X8YrB5hnFQMwgdj+4hJLBPq/EQFvkoUCvsoDBIlGXQHPFfUCuIn/BIc+8QFd8
QECqCJ7BdrO5QGl2p0BMPZTB80RWQG8zXECDxZDB8c7+QOoVF0E1KbrB4l3OQP6uJEFM2b3BerXy
QMXOMEGYgrTBUWyXQMPiHkEGjKPBeoa3QMJRNUFklKfB4y6TQPwxKUEY67DBP32oQEJg8kCH0KvB
ZEujQEIbBUFg07jBuHHTQHIn7kDiTbXBHuB5QFbhDkAJG6jB/UNWQL1Cpj/5qZzBNNSgQNTj2EAw
hn3BZid+QAN0/kBgoIXBrPb+QA/VIUGuNKPBVyoEQZytB0Eqr6jBIACjQFGCFcDHMZDBFGwGQfw9
GMDqrbDBeh8BQaTbQsCpDKXB1c5tQK9gzECZkZPBuhVGQPBRp0DEt5zBPoWaQJSnSr+XYaDBpn3G
QEsNND9vM6vBdM64QEXKAkEpjpfBztqiQGL0/T65d6TB5NLZQFdO079njqnBAie2QPEB77+q6KLB
LeXhQAR6vL52va3Bure7QMrK9EAQyYzBCWXhQD3UB0ESx5rBSZuyQJpv6T8zwY/BI8axQJ9ciUDz
zYTBoouhQAqCJ0CJi5nB9gafQATvm0D9Q4/Bo2SFQNiOdECo0pXBATO5QC4BAkHFm7LBBC3mQPrb
IUHcH7fB78WqQBVYJkHR7KnBfpWHQDke1j+2+KDBb52VQBNi5ED4sYbBNqXwQBlREUGsQqXBfdWl
QPIzVMDEIJTBsOvNQFeTFkGU8K3Byv50QK4zgsDTYZPBkz/MQAsPgsAZ3I7BIxXkQNwM9ED094nB
BXH1QNYhLcAQ2KvBdsSBQB1UwEAHsozBoVD2QIqeWEDiqI7BJVLcQAaqDUDnbXvB9hz8QLOVAkHu
ipLBAGZoQBWlj0B9+57BuZiuQB6wScBCaJ/BHhwCQUS6Ir6KHrTBxCA2QC6tUcBmbZfBenRhQGyn
i8CjE4nBSPR2QCzqpsDBPZnB6fvPQD16qsAKwJLBUe7GQCLeg8C2FoTBcoLxQHzRWcA55JDBMTzT
QMTCOUC61IfBNQ1+QPgYdb87UZvB7sHMQBXg1z8iaq7Bb+abQMy3BEEZMZzBN4aXQBT6uj//8IrB
fLbFQAqvdz/lh5LB9q/EQKwhokCltoDBA4KXQD7JfUBdIH/BzQW9QD6sQECZDp7BRJK5QCavp0As
PpTBX7BWQOnCW0DWx5DBo6CnQKoh80DZQazBV/GiQJdiBkGTELnByVrSQKj87kAl0LXBikf1QNeK
MEHQE7TBpfX+QMsVF0GcSrrBNIzPQA76JUEKi73BnAO6QGrLNEG5pqbBAduVQM/NKkFqpLDBoqGX
QIqPHkEJpqPBLjZ6QH7eDkCsFKjB785WQARipj+Ln5zBIe2fQFIb2UD8iH3BfC98QJFJ/kB5vIXB
Q7sAQcRQIEEwYqPBZ6EDQSTiBUFO1qjBIF2iQAdQFcABRZDBrnMGQZGIGMDforDBdQQBQetwQ8Dq
CaXBWLtsQOvpy0AklpPBuyRGQOIUp0CcuZzBtAabQIo/S78ZHKDB7l7FQC6TND/2TavBYqy5QFI0
AkExoJfBCDyiQCtH+z5maaTBO7HZQLvq0b9apqnBxP+2QD9r7b/usqLBmgnhQLQet7526a3BWnq8
QME19EAbzozBpFDiQF36BkGz5ZrBx5KxQFmw6D9Jr4/BCEOxQOw3iUCGyITBTrCgQBgbJ0BIfpnB
iKWeQKjbm0CAQI/BLMCEQNCmdEDEzJXBpDCtQJ7IJkHM6KnBFBW4QGANAkFRhrLB5E/nQGLkIEEA
R7fBir2GQM/a1D9w5aDB/iKWQN+A5EBZsobBX4rxQPFxEEHoYqXBIumzQCR5UMCeQpPBurnOQLU5
FkFi963BrcqPQCDLh8BvL5DBSAniQOKHb8BfFZDB0NvkQEQP80ByAorB9RP1QNpcLMDLIazB186B
QPWhwEB4r4zBM531QIgtV0CSn47BdlHbQA/cDEAzU3vBJwf9QDulAUECrJLBPI1nQFK/j0Df+Z7B
AZGwQCCQR8C1wp7BAHoBQXhRD75EaLTBWhpTQHbbbcDoRZPBqLSOQPZGjsAndoXB9DGVQPffrcBE
SZXB5wzkQKDAgcBjhYXBL1z/QELOMMAD6ZHBq6XtQH26msBU3pXBWGnSQKT7OEByyYfBJiyAQMY5
d7/52JrB+QzLQI0c2D/nlq7BFMecQGogBEFWRJzBIWiWQMs1uz9R3YrBo3zEQInedD/xcJLBJVjE
QA/ioUCgs4DBjOuWQDnvfUDmE3/BOkK8QOjeP0AkAZ7B40y5QLlPp0BlPJTBazBVQGhRXEDTwZDB
rdK9QAPsNEEkuKbBFWWYQKqfK0GblbDB/aeZQFV/H0FCj6PB2kPQQBIl7UDQV7XByZmkQIQt9UBp
N6zB4VajQBe3BkHCPbnBQXL/QH+0FUFOZrrB+rvQQFQaJUEmsb3B6D/3QD53L0EaXrTBwx54QFse
DkD6/qfBjmFVQCZ9pD/RhZzBh0GgQDgx2UBqg33BBf59QP3D/kAlxIXBNI0BQT85H0HVf6PB8b4D
QTLQBEF8D6nBgs6tQG+gEsDFV4/BbOsFQczRF8B3IrHBjFABQYBVQsDhbKXBwwhtQINRzEDIk5PB
uJVFQO9Qp0CZvJzBeuCaQHkTSr+GVaDBBtPGQKaZMj9FOqvBSqe4QMW4AkE2o5fBQkCjQNLk/T4T
d6TBcN3ZQOpl1L8Tk6nBuly2QEBV77+92aLBigjiQFqXwb7OyK3BTpW7QBTy9EBT1ozBhDXhQIbZ
B0GP2ZrB6JuyQACW6T9muo/BctOxQKF8iUDQyoTBEr+hQOihJ0DIiJnBKhGfQDcEnEBRQo/BU4CF
QO6cdEAK0pXBRBe5QACPAkGmvLLBKOHlQCugIkELBLfBWmaqQDqhJkGnzanBqPqHQOBx1j/yAaHB
IIyVQIKM5EDJuIbBxGnwQBuMEUE7SaXB9JWkQNLAU8D8DZTBoKnNQL8HF0EA7K3BP8txQDeDgcBD
l5PBahnKQMYggsALfo7BlPLjQKRQ9EBBBYrBOEL1QLXyLcBB6KvB3r6BQN9mwEAhs4zB1Gr2QCZR
WECqmY7B/ijcQJqqDUDaU3vBGPb7QJaZAkHFn5LBkIloQJCgj0A1+57BXOauQAvJScCLRZ/BjCMC
QYhuMr4PNLTBpa80QF+NUMBDFJjBc7taQHTdicBLVonBBtt0QGDGpsCAN5nB7M3CQEIYhcB6z4PB
xHzvQF7wWMBr94/BKuPOQP8YqsCNmZLBtjjTQMC/OUAMyofBBeJ+QPw5c79hPZvBWjLNQDkB1z9O
c67BRcSbQD5/BEH8S5zB2W+XQMt2uz8P74rBFq7FQFKGdz/he5LBoszEQK1CokBYuIDB1o2XQK8+
fkBkFH/Bb0+9QNXoQEDSAJ7BvJu5QFrLp0C2O5TB1vFWQOG4W0Bzx5DBFY+nQCLU80C6cqzBcNKi
QP4UB0FzKrnB91LSQO9b8ECaArbBst30QHA+MUFU27PBycD+QEX9F0EjQbrBQkDPQEzkJkH7aL3B
44m5QCADNUE0babBbHiVQB0+K0EKfrDB6UqXQC2kHkG/laPBpHd7QE8TD0B3IqjB7U9XQA3qpj+A
tZzBxuqfQGxd2UDelH3B4Ph7QB1s/kBVxYXB/qYAQcZ8IEHTVaPBknoDQV0rBkEz76jBYgKhQOqm
FMCsQZDBQU4GQfmaGcDuv7DBtAIBQX9NRMDCH6XB7plsQN3oy0AqmJPB0C9GQCcIp0DRuZzBfgib
QB77Tr/nlJ/BlODCQI71Nz8XIKvBDiS6QPzVAUEt0pfB8IqgQMTE8z75DaTByjrZQJuLzb90j6nB
Nru3QGkv7L8rSKLBgkDfQCQSo77y1K3BHni8QMiv80BZ94zB8vviQDR4BkGD/prBQq+wQAeE5z/A
bI/BqhOxQLA/iUD8v4TBVIGfQNy4JUCMQ5nBDFmeQM+Xm0B+PY/BziaEQFI9dEBxtJXBoNS6QPdi
AUG+27LBlJPpQEevIEGRQLfBaEKuQPjWJUHSGarBpNCEQFPg0D8paKDBcPeVQAN45ED32IbBpuDy
QMXSD0ExcKXBxnK5QBrgT8A8xJLB2JLQQOahFUGcH67B+NCZQFlli8BaVo/BquPpQOThZMC+KJDB
sL/kQGg18kDUGIrByp30QN7mKMAseazBmpGBQFNxwECFu4zBMAj1QMbEVUASoo7BeP7aQM0PDUBh
EXvB2FD9QIESAUH8tZLBKZlnQIdhj0DW+p7B0s2yQNb6RsD4Np7BQUsAQWAvkb2LcbTB35BjQPY3
gcDd2ZLB0oeYQN/tjsCyhITBxJqlQMZlscCqv5PBBrX/QDioG8AY7Y3BBnP9QPnxhcD5jZjB2ALu
QPvQjMCjk4fB3PHRQGiLOECGsYfBvvaAQNlgf79jHZrBa1/HQBkr2j9BeK7BKnSdQJjHA0FKipzB
KqeVQPdYuz+xgorBcl7DQEHrcD8uJ5LBxFrEQBj4oUBbv4DBH8qWQF+gfkDI5n7BKfC6QD4jPUDb
753ByfG4QI3XpkCoRZTBDVhTQAk0XUAlrJDBa7eoQEFC8kDxiqzBZOqkQNkeBkFFU7nBznbTQIck
7UA5ELbBlGb5QF4hL0GKJrTB1OoAQUueFUHya7rBPknTQOAqJUH+rr3BEj++QJ8LNEEoyKbB366Z
QHGlKkH80rDBVJ2aQB5EHkGD26PBr/FxQNeMC0Cnb6fBdQlTQDtHnz+6y5vBDeqfQHWC2UD7uX3B
wOF9QCPj/kBsBYbBWEACQdaQHkFzhKPBunEEQQkcBEEbBqnBRc2wQCsPFMAGqY7BMS8FQen7EsBy
qbHB9rcBQZ1kP8Dc9qXBrWBsQI7jy0Dqo5PBgzxGQMFQp0DY15zBfIaZQCqLPr9p4qDBXvLGQJi6
Oz+sfKvBtrWkQK4SBUH0mZfBjmCiQHBGCT+gDqXB8fPZQA8kz79AdKnB8ni1QINw6b/qDqPBEqni
QHTvrr4Irq3BiYW2QE2/9kAtI47BhinFQL1HD0GHqJzBCYmxQBv94j8FPZDBbz2yQKlRhUAhk4TB
sYWhQPDXJ0C52pnBjSagQMAomkBg0Y7B+AmGQEQAdUDC4JXB1lvCQHvJKUGQa7jBdB68QBWVAkFv
ELTBo0sAQXjlFkHa2K/Bi4mHQJLw3D/Jo6HBisGZQALn4UB3IobBCOe8QLoZH0FfdaXBCZKiQLJZ
UMBdT5TBWDPPQItCGEHCWrDBLD9tQLLZfsChCZTBoITHQCEOgcCMr47B0EDgQGfB+0D9O47Be7b1
QOhgK8AmdqvBFpqDQOW2vUBufIvBjDT2QIoCUkDFlI7BruXaQNK2AkArHHzBNETqQJsqCkFzc5fB
rFJsQOXlkUDd4p7BcYGtQHqTRsA4fZ/BxPQCQahMEL7uwLPB6EkwQMKIScC+AZjBRwBXQB5wisDX
6YnBk+1uQH4wo8AnQZrBT5jLQAgSqcCd0JLB7Pe/QB/5g8AnA4TBy1TtQDQkWMDlF5DB6arSQD4w
MkAu+YfB6sh6QH22Zr+RBpzBhrDNQIgY2z8NvK7BzL+DQLxXBEFwLJrBa/WVQH3vtD+HlovBY/7D
QGTQaT/aNJPBaIPFQPbznEAWLoDBs5yXQGDrdEDp/37Bu4e9QF4dQUDXJZ7Bqty6QO7opkCtlJPB
rYVWQKnwW0AVGpHBesHPQIw7OUHV2rXBveLOQK+tJUEiYsDB8kOfQOfzKkGAx7jB+B3FQG3v60DW
Wq7BRAqZQBzXA0EEb7TBDqnIQMch/UCmCbzBFgYFQe9rCkFzG6rBq5sGQSDmEkGP0LfBStEGQTNn
JkGsQq3Box59QIL5E0CmvajBX+RUQNQzrz/dl53BW8OsQJbo1UBLuX7Bzw+CQLoq+UANN4PBVhma
QA0jIUFCS6bBsn/LQGx3LkF9M6PBZymfQEhMEcBbfZDBeOIGQaJEF8B7GbDBE7oAQdhIQcChiqTB
5M9pQO0GyUBqAZLB5ONKQMVcqUDgdZzBzaKbQIHmQr+FHqDBhA3EQK0QOj+v26vBioqxQKo0CEGE
RZfBFdGhQLVmBD89r6TBQSnZQEoNzr8NG6rBzLy3QAOp6L8ewaLB8nvfQOYArL47m67BVrm8QMeW
90DK6I3BPMrWQAPQDkHu45vBn0WvQMS94j+YkY/BnAOwQAukhkA8P4TBq7qgQLzSJkCkYpnBl02g
QKMQm0COzY7BgtiFQA85dkDlvpXBZJ3RQKtnJUHusbjBKwGaQECCDkFI3K/BtnzkQFsJAEFt4bLB
97WGQG0s2T/VFaHBBWWbQFCB5EAkqYbBhu3ZQIv4HUFkPaXBOKi8QGVWSsBD+ZLBz1HKQM47FEFQ
A7DBE62lQMxTjsA4OI/B0mruQKmqS8DHsZDBeJvmQCcG9kDiL43B85H0QIUOKsBPtqzBBwiFQKfJ
wEDQOIzB1dD0QP1zTkAHbY3ByMbVQKlFA0BJDXrBx5j3QB23BkEb8JXBnJxtQBbVkUB58J7B8Bmz
QGcURMD6Up7BuiYAQci3AL5FdbXB7rF4QJidjcDfs5LB9HilQC+ikMAdYoTBf0e5QL6LscBZU5PB
U9P2QEodYsDDZobBJ6X/QEt0+b+4O5LBPoYBQQLrgcA4OJfBMcfPQNvdMUBoHIfBgn+BQMgkbr9z
oZrBFTrJQMp02j/WQK/BJpSRQO+bC0E7FZrBpv6SQN7ctj9UGovBxcPBQOmAZj87T5LB30HDQB4T
nkAyjn/Bqz+UQMQOekBWzX7BoVa9QL3kPUDMn53Bx0q8QF6OpUBSc5PBPT9VQFBIX0DL9ZDB0bnz
QCu4KUGN8rjBV83HQGALH0FlhsDBloG+QIaxM0GnzbbBZwqUQE5EAkFit6nBizWHQDvtHEHNBK7B
TIGQQBVHCEGLvbfBk3PfQE5t50CcuazB1/TZQBXC80BZsbrB3FYDQbwlBEFYRLPBB9l5QKb6EUDl
IKjBVjRUQN1zqT8+6pzBzOiqQDY52ED7w37BX/mDQLBI/UBCeYTB2FvGQLcqLEHleKPBNpj7QAzD
IkHqKqbBtb6uQF9jE8Awto7B6CYFQRe5FcBZAbLB+rQBQQqPPsC/GqbBaR5yQDUmzEBhE5PB/wNN
QETmqUCGtpzB

> <OMEGA_E>
OGOCPkAngz5oBJg+UPOAPiC7pz5kubA+SCLJPg==

> <OMEGA_NBR>
    112330

$$$$
50216994
  -OEChem-04172616093D

 68 70  0     1  0  0  0  0  0999 V2000
    8.1811    8.2384  -18.1497 C   0  0  0  0  0  0  0  0  0  0  0  0
    7.1315    7.7338  -17.3618 C   0  0  0  0  0  0  0  0  0  0  0  0
    7.9160    8.7827  -19.4212 C   0  0  0  0  0  0  0  0  0  0  0  0
    5.5424    8.3122  -19.1199 C   0  0  0  0  0  0  0  0  0  0  0  0
    4.8516   -0.8890  -19.9237 C   0  0  0  0  0  0  0  0  0  0  0  0
    6.0875    0.6283  -21.3888 C   0  0  0  0  0  0  0  0  0  0  0  0
    5.8083    7.7745  -17.8448 C   0  0  0  0  0  0  0  0  0  0  0  0
    6.5876    8.8337  -19.9215 C   0  0  0  0  0  0  0  0  0  0  0  0
    5.0372    0.4024  -20.4769 C   0  0  0  0  0  0  0  0  0  0  0  0
    6.7534   -1.7112  -21.2196 C   0  0  0  0  0  0  0  0  0  0  0  0
    5.7224   -1.9554  -20.2853 C   0  0  0  0  0  0  0  0  0  0  0  0
    6.9432   -0.4227  -21.7575 C   0  0  0  0  0  0  0  0  0  0  0  0
    5.5371    1.8075  -17.8981 C   0  0  0  0  0  0  0  0  0  0  0  0
    5.5224    4.3232  -16.5931 C   0  0  0  0  0  0  0  0  0  0  0  0
    5.0162    2.5629  -19.1464 C   0  0  2  0  0  0  0  0  0  0  0  0
    4.9684    4.8760  -17.9264 C   0  0  1  0  0  0  0  0  0  0  0  0
    4.1614    3.8051  -18.7249 C   0  0  1  0  0  0  0  0  0  0  0  0
    3.5644   -3.8692  -18.6353 C   0  0  0  0  0  0  0  0  0  0  0  0
    7.4847   10.0550  -22.0177 C   0  0  0  0  0  0  0  0  0  0  0  0
    5.1739   10.5182  -21.1745 C   0  0  0  0  0  0  0  0  0  0  0  0
    5.7216    8.2837  -22.2276 C   0  0  0  0  0  0  0  0  0  0  0  0
    4.1830    1.5786  -20.0212 C   0  0  0  0  0  0  0  0  0  0  0  0
    4.6717    7.2158  -17.0116 C   0  0  0  0  0  0  0  0  0  0  0  0
    5.0245   -3.4273  -18.4683 C   0  0  0  0  0  0  0  0  0  0  0  0
    6.2562    9.4153  -21.3149 C   0  0  0  0  0  0  0  0  0  0  0  0
    7.6155   -2.7417  -21.5836 N   0  0  0  0  0  0  0  0  0  0  0  0
    4.0539    6.0275  -17.6615 N   0  0  0  0  0  0  0  0  0  0  0  0
    7.6692    3.3459  -17.7740 O   0  0  0  0  0  0  0  0  0  0  0  0
    6.8132    2.2375  -15.6396 O   0  0  0  0  0  0  0  0  0  0  0  0
    3.6484    4.4463  -19.8952 O   0  0  0  0  0  0  0  0  0  0  0  0
    5.6366   -3.2468  -19.7672 O   0  0  0  0  0  0  0  0  0  0  0  0
    7.9698   -0.1817  -22.6060 F   0  0  0  0  0  0  0  0  0  0  0  0
    6.5552    2.9024  -16.9227 S   0  0  0  0  0  0  0  0  0  0  0  0
    9.1947    8.2084  -17.7782 H   0  0  0  0  0  0  0  0  0  0  0  0
    7.3391    7.3157  -16.3880 H   0  0  0  0  0  0  0  0  0  0  0  0
    8.7292    9.1644  -20.0207 H   0  0  0  0  0  0  0  0  0  0  0  0
    4.5283    8.3270  -19.4910 H   0  0  0  0  0  0  0  0  0  0  0  0
    4.0467   -1.0647  -19.2253 H   0  0  0  0  0  0  0  0  0  0  0  0
    6.2352    1.6136  -21.8058 H   0  0  0  0  0  0  0  0  0  0  0  0
    4.6839    1.4649  -17.2942 H   0  0  0  0  0  0  0  0  0  0  0  0
    6.1329    0.9394  -18.2167 H   0  0  0  0  0  0  0  0  0  0  0  0
    6.1174    5.1012  -16.0923 H   0  0  0  0  0  0  0  0  0  0  0  0
    4.6861    4.0261  -15.9432 H   0  0  0  0  0  0  0  0  0  0  0  0
    5.8778    2.9132  -19.7336 H   0  0  0  0  0  0  0  0  0  0  0  0
    5.8116    5.2137  -18.5468 H   0  0  0  0  0  0  0  0  0  0  0  0
    3.3324    3.4544  -18.0926 H   0  0  0  0  0  0  0  0  0  0  0  0
    3.1061   -4.0043  -17.6445 H   0  0  0  0  0  0  0  0  0  0  0  0
    3.0103   -3.1003  -19.1937 H   0  0  0  0  0  0  0  0  0  0  0  0
    3.5300   -4.8198  -19.1877 H   0  0  0  0  0  0  0  0  0  0  0  0
    7.1826   10.4479  -22.9997 H   0  0  0  0  0  0  0  0  0  0  0  0
    7.8747   10.8763  -21.3985 H   0  0  0  0  0  0  0  0  0  0  0  0
    8.2673    9.2938  -22.1525 H   0  0  0  0  0  0  0  0  0  0  0  0
    4.9393   10.9309  -22.1668 H   0  0  0  0  0  0  0  0  0  0  0  0
    4.2642   10.0850  -20.7332 H   0  0  0  0  0  0  0  0  0  0  0  0
    5.5508   11.3208  -20.5235 H   0  0  0  0  0  0  0  0  0  0  0  0
    5.4845    8.6939  -23.2204 H   0  0  0  0  0  0  0  0  0  0  0  0
    6.4878    7.5009  -22.3279 H   0  0  0  0  0  0  0  0  0  0  0  0
    4.8128    7.8524  -21.7826 H   0  0  0  0  0  0  0  0  0  0  0  0
    3.8052    2.1134  -20.9051 H   0  0  0  0  0  0  0  0  0  0  0  0
    3.3352    1.2010  -19.4309 H   0  0  0  0  0  0  0  0  0  0  0  0
    5.0615    6.9222  -16.0258 H   0  0  0  0  0  0  0  0  0  0  0  0
    3.9045    7.9940  -16.8855 H   0  0  0  0  0  0  0  0  0  0  0  0
    5.0569   -2.4773  -17.9147 H   0  0  0  0  0  0  0  0  0  0  0  0
    5.5766   -4.1968  -17.9088 H   0  0  0  0  0  0  0  0  0  0  0  0
    8.2807   -2.4013  -22.2482 H   0  0  0  0  0  0  0  0  0  0  0  0
    8.0958   -3.0764  -20.7729 H   0  0  0  0  0  0  0  0  0  0  0  0
    3.6713    6.3221  -18.5372 H   0  0  0  0  0  0  0  0  0  0  0  0
    3.1292    5.2005  -19.6418 H   0  0  0  0  0  0  0  0  0  0  0  0
  1  2  2  0  0  0  0
  1  3  1  0  0  0  0
  2  7  1  0  0  0  0
  3  8  2  0  0  0  0
  4  7  2  0  0  0  0
  4  8  1  0  0  0  0
  5  9  2  0  0  0  0
  5 11  1  0  0  0  0
  6  9  1  0  0  0  0
  6 12  2  0  0  0  0
  7 23  1  0  0  0  0
  8 25  1  0  0  0  0
  9 22  1  0  0  0  0
 10 11  2  0  0  0  0
 10 12  1  0  0  0  0
 10 26  1  0  0  0  0
 11 31  1  0  0  0  0
 12 32  1  0  0  0  0
 13 15  1  0  0  0  0
 13 33  1  0  0  0  0
 14 16  1  0  0  0  0
 14 33  1  0  0  0  0
 15 17  1  0  0  0  0
 15 22  1  0  0  0  0
 16 17  1  0  0  0  0
 16 27  1  0  0  0  0
 17 30  1  0  0  0  0
 18 24  1  0  0  0  0
 19 25  1  0  0  0  0
 20 25  1  0  0  0  0
 21 25  1  0  0  0  0
 23 27  1  0  0  0  0
 24 31  1  0  0  0  0
 28 33  2  0  0  0  0
 29 33  2  0  0  0  0
  1 34  1  0  0  0  0
  2 35  1  0  0  0  0
  3 36  1  0  0  0  0
  4 37  1  0  0  0  0
  5 38  1  0  0  0  0
  6 39  1  0  0  0  0
 13 40  1  0  0  0  0
 13 41  1  0  0  0  0
 14 42  1  0  0  0  0
 14 43  1  0  0  0  0
 15 44  1  0  0  0  0
 16 45  1  0  0  0  0
 17 46  1  0  0  0  0
 18 47  1  0  0  0  0
 18 48  1  0  0  0  0
 18 49  1  0  0  0  0
 19 50  1  0  0  0  0
 19 51  1  0  0  0  0
 19 52  1  0  0  0  0
 20 53  1  0  0  0  0
 20 54  1  0  0  0  0
 20 55  1  0  0  0  0
 21 56  1  0  0  0  0
 21 57  1  0  0  0  0
 21 58  1  0  0  0  0
 22 59  1  0  0  0  0
 22 60  1  0  0  0  0
 23 61  1  0  0  0  0
 23 62  1  0  0  0  0
 24 63  1  0  0  0  0
 24 64  1  0  0  0  0
 26 65  1  0  0  0  0
 26 66  1  0  0  0  0
 27 67  1  0  0  0  0
 30 68  1  0  0  0  0
M  END
> <OMEGA_C>
mOUCQXbQA0GAMpHBGDXkQKx790AQ5YrBlU/9QPmFDEGlXpvBoVuxQML+BEF89ZjBIUCbQNKTY7+7
Y5/BA83CQITaID88HKvBht25QNLI+EAtwo7BBM7SQM1WDUFSX5/B0TChQI8Lzj6y0KPBsxvYQBoJ
27+vwanBth23QC1K+r9dSKLBZC7eQGRm2L5kD67B4y+xQHtb5z84L4/Bf7ewQO9XikCjvoTB0oSg
QIMGJEDCK5nBvPyeQIEInEA6aY/BLiqFQIGGc0CVzJXBQB9kQEOhd8AJFZXBzoLvQCThIEFQJLDB
2ZClQIFKKEFgZanBahe3QDqKBEEg0rHBiduFQAUQyj+CK6DBfH6VQBLo5kDCF4jBq8igQFVZW8Ag
v5PBZTLIQA2lFkHxhKrBOrLzQLR3L8BNq6zBNLmBQG3hwECvSo3B6Wn1QJciVkAkMY7BnwXaQFYz
D0DsO3rBsn5pQBZIjkBiKZ/BBF+0QD3LT8A3I57Btgj/QFwVOr4v2bTB+MPRQGXBOUC2YYfBih0T
Qa9VA0G1OY7BrtnqQF0a6kCGGoPB0qoLQWihEkFVKqDB2OeQQDU7BUF/7ZvBiX6BQEZHiL+CzZnB
YIbHQKqJzj9Kcq7Bk+KVQIOAuz90WorBYEDEQHV+cD/gu5HBBsLDQKU8o0ANvYDBZPSVQA3WgEB+
F3/BUBe8QPNxOkB33p3Bkvi5QLfWpkDZX5TBVkZVQHIVXUCVvZDBIspGQJMjgMDhJ43B9KhAQNlr
RsCcjJnB6OthQLc7msCCgJnBzNflQHsqJ0F5/7fBqv37QB8FLkE3MKvBA0cEQXezFEFEOLHB3w6e
QM/kLkGaVbHBSnSIQApcIUGy3aXBa6CxQPIhNUEoMKTBOIGvQBkaC0FQw7nBa5zPQHgH8EB0n7LB
WQKaQBhH+0DOQq7BPIhzQHpCB0CiPafBNnNVQPW5mT+IcpvBHvihQIiC3UDaNIDBwuJ5QHfO/0Cb
FYfBWdKhQMWMHsBZUY/B03OyQC1MhsBARY/Byn0EQYuuGcBO/LHBaYgBQdDjRMDwLqbBBfdqQLNO
ykApTJTBV0VIQGRqpkBuIp3BVJwBQQtrBEEHtJDBjNHhQFXb90Cve4rBD436QPVuDUFmy5rBs7yu
QCJ0BUHndZjBsMucQNBbVr9I15/BdHLIQMHSFz+uWqvBznO3QHEH+UAfVo7BQwnQQP4sDkEczZ7B
pk6lQMhx3T5YZaTBbNfZQFpV47+oeanBYim3QIjo+L/4UaLBpIriQE7eAb+S6a3Byte1QLL16j/B
MZDB4E6wQHYCiUC114TBy0ukQPKCJ0Ab+JnBiDCfQMbkm0Aob4/BGjiHQNPBc0CcTZbBWP/uQOCq
ZMBg+ZLBaom1QPGUBUELZrHBRY3sQBqJIkHkUq/BbuuhQIzbKEFl0ajBC6GKQG6U0j8lSaHBpWOT
QA/T5UB7yofBxaW9QKVLXsBwi5PBbXDFQLSpF0G+6qnBwbTzQE3kNsBwJ6zBJMKAQJukv0DOLY3B
bkX3QOF1XkAWQI7B2m3cQM8HDkCBknvBs5ltQPZbj0Cih5/BidKtQKPxTMAeR57BIwACQcogrr5j
qbTBQ+TTQHLAO0AC0ofBmdQRQSYGBEHguo3Bf5zoQMrt6UCmwoLBEDoKQazXE0FFiJ/BikWOQAio
BUHDa5vB0BCCQODddb8ZdJrBvFfPQLMlyD+Iuq7BP/OaQJcstT9WnovBQ6LKQH2Kgj84/pLBHovB
QFPtoUDdXIDBL2mVQAxAekBzAYDB3W2/QCxqQUCoi57B1GO6QB4tqECbGZTBDXlZQE2gWUCMg5HB
xtP4QI7MccBor4rBtAv6QEFrjMCOMpjBxjf9QKTkJ8AGo5XB+/mtQDJKDEHQT7nB8bDOQHjD8kCp
ObLBi6WYQBNz/EDD+K3BagTjQDjwKEGlKrfBIR34QDysL0EXO6rBZh4DQTCyFkHVZrDB2oWaQDuL
L0HQvrDBy/aEQEmAIUHtbKXBbhOtQFa5NUEhgKPBSPuAQAp/C0DUlqjBBN9bQAgLpz+2+ZzBsumf
QAZA3EB12H/BN1x0QJME/kBQuYbBofCvQCWijcA1yZDBshyzQG1SKsCtOY7BjjYFQSrHI8CCQbHB
R7AAQV1GTsCpiaXB5KFoQBg2yUCFJpTBtElKQBmCpkC1V53BWo8BQe8OBUESoZDBadDhQDx4+ED3
fYrBY1/6QE1fDkFqpprBV62uQPUHBkH4Z5jBmw6dQFuXWr/IoJ/BwHXHQNdlEj+3dqvBy3i3QCKN
+UAlXI7Brd7PQLkWD0FeqZ7B7vSkQGZt0z52TqTBJGbZQJ515b9vianB/H+3QFSj+r8DJqLBDHDh
QMMcB79qHq7B8Me0QISI6T+r9I/B/BCxQFWeiUAf9oTBLgykQNY7JkAS3JnBVLCfQIYBnECUl4/B
RGOHQD6Bc0D2VZbBRL/xQBeNYcAQ8ZLByjnsQELUI0EJGa/BUiSiQOR5KkGjRKjBMUy0QA9gB0FA
QbHBU0mKQFTrzz9oJqHBa3qTQCLb5UAp5IfBxkzAQH6wXMCoMZPB9hLFQEAQGUHip6nBpDnzQPDY
N8BgR6zBKC+BQIu+v0BbYI3BnV73QK4OW0A1S47Bz9vbQB6MDkAMOnvBOeJtQPPFjkB4oJ/BdCKv
QK1lTcCV2p3BPBABQchSur75GrXBcq/TQN75OkADwofBBMYRQTSxBEGApY3Bq6roQCka6kC10oLB
BhoKQW8HFUGbU5/BrziOQI44BkGZX5vBZr2CQOMaer94HZrBqPXNQFU4xT/M6q7B9X6ZQKcuuD+B
VIvBUuPIQN8HfD+4mpLBfQPDQKOVokBwrYDBZDCWQHVrfUDE83/BLYy/QGgEP0BXZZ7BrLy6QCwg
qEDRVpTBgrdZQFRsWkC5eZHBGY78QCcobcB+sYrBRJ/8QJQVi8ASHpjBHDn/QPXHJMBw1pXBV3ni
QAmVKkGV2bbB33X4QIexMEHx7anB970CQSbWF0HjXbDB2YqaQCmJMUEhGrDBXCSFQNkzI0HK2qTB
lfatQEAKN0FF3KLB6pasQPtsDkGTFbnBbgvNQHYL9kBGQ7LB6leXQPwbAEEw0K3BSHWAQMYvCkDY
b6jBHmdbQDEjpD/1zZzBqfifQJMW3EDwCIDB4Sp0QIXU/UBDyobBRFyzQMTQjMDzM5DBHfa1QFY+
KMBR7I3BAa0EQcDoJMAXjbHBuNIAQXlrTsDgt6XB8iBqQAxwyUBhX5TBhxdLQNI4pkCKgp3BVr0C
QWw4A0EkU5HBYa7jQOLp9kDmAIvBozP9QHwFDEGde5vBSfiwQHdCBUGBA5nBCmabQGdKZL+DcJ/B
Va/DQNmqIT/U9KrBOFC5QKEH+UA4047BeLLSQHxBDUGmdZ/B7t2hQGMXzz6auKPB6V3YQBRz27+l
w6nBlu22QGES+78CbqLBDfHeQITY17767q3B02ayQH6e6D9aLY/BXk+wQP9/ikCPnYTB9CqhQPt9
JEBNHZnBiMyeQAsfnEDCTo/BqV2FQBlCc0BhtJXBFo9kQFiIeMCr6pTBrbK2QAlvBEFr4bHBTlDw
QEYxIEEJTrDByKamQCGDKEEGpKnBHJCGQJU5yj9ZEqDB1N6UQIA/50AnKIjByz+hQAH0XMB8A5TB
SoXIQBN8FkEDp6rBQMfzQDfqL8BTsazBZVWBQO7nwEA+Ro3BCsj1QMgeWUD8943BpmnaQFlIEEC/
B3rBWWRpQDgEjkB3Dp/BRBCzQH3RUMAwlZ7BWQQAQYOlOL7bpbTBRSbSQNArO0AOQofByvYSQV9u
AkGqYI7BoC3qQJJe6UDuOIPBV7MLQeDiEUFZS6DBxnqQQHXfBUFZ8ZvBTIKBQDS6iL+Q5JnBcKnI
QIY+zz98Oa7By1iXQJxxuT+mYYrBDSDGQIt8dz/9yZHB987CQP+To0D2hYDBcXuVQCp3gEA5AH/B
9HS8QISVO0Bd3Z3BB+K5QFT4pkAXO5TBfPlVQMcWXEAMppDBRLtJQKPXgMCL3IzBnARAQKS5RsAu
I5nBCoxgQBl8msDcZpnBWWqvQEfvCkFd2rnBhbLOQNJJ70ALn7LBkFKZQCDL+0ClTK7B+fbmQC9z
JkHXMLjBc1f9QM5GLUEFZ6vBSmkEQXi5E0FsUrHBzoCfQFwIL0HknbHBjDeJQOj2IUFPGKbBUzWz
QLFTNUFnfaTBeKp0QDUfB0DjJKfBxAxXQAjQmT+AUZvBgzyhQM483kBPO4DBE2R4QL0KAEEqPofB
5DejQPGJIMDRhY/Bm3uzQD9kh8B/yY/BUroEQTsCGsDO5rHBb1gBQdFRRsAsMabByR9qQPMCykCo
TZTBuppHQCrwpUCCBJ3B

> <OMEGA_E>
kJF5PkjFiD74+pA+0PV1Pg==

> <OMEGA_NBR>
    116970

$$$$
50216991
  -OEChem-04172616093D

 71 73  0     1  0  0  0  0  0999 V2000
    8.1341    8.2741  -18.1772 C   0  0  0  0  0  0  0  0  0  0  0  0
    7.0942    7.7736  -17.3747 C   0  0  0  0  0  0  0  0  0  0  0  0
    7.8568    8.7915  -19.4570 C   0  0  0  0  0  0  0  0  0  0  0  0
    5.4903    8.2970  -19.1370 C   0  0  0  0  0  0  0  0  0  0  0  0
    4.8773   -0.8285  -20.0077 C   0  0  0  0  0  0  0  0  0  0  0  0
    6.2766    0.6602  -21.3453 C   0  0  0  0  0  0  0  0  0  0  0  0
    5.7687    7.7881  -17.8521 C   0  0  0  0  0  0  0  0  0  0  0  0
    6.5260    8.8170  -19.9527 C   0  0  0  0  0  0  0  0  0  0  0  0
    5.1624    0.4623  -20.5036 C   0  0  0  0  0  0  0  0  0  0  0  0
    6.8167   -1.7154  -21.1993 C   0  0  0  0  0  0  0  0  0  0  0  0
    5.7060   -1.9235  -20.3501 C   0  0  0  0  0  0  0  0  0  0  0  0
    7.1021   -0.4248  -21.6917 C   0  0  0  0  0  0  0  0  0  0  0  0
    5.6086    1.8270  -17.9123 C   0  0  0  0  0  0  0  0  0  0  0  0
    5.5241    4.3199  -16.5622 C   0  0  0  0  0  0  0  0  0  0  0  0
    5.1030    2.6058  -19.1547 C   0  0  2  0  0  0  0  0  0  0  0  0
    4.9826    4.8823  -17.8968 C   0  0  1  0  0  0  0  0  0  0  0  0
    4.2085    3.8115  -18.7198 C   0  0  1  0  0  0  0  0  0  0  0  0
    7.7044   -3.4681  -17.9416 C   0  0  0  0  0  0  0  0  0  0  0  0
    5.6901    8.1972  -22.2526 C   0  0  0  0  0  0  0  0  0  0  0  0
    7.3993   10.0246  -22.0661 C   0  0  0  0  0  0  0  0  0  0  0  0
    5.0707   10.4342  -21.2489 C   0  0  0  0  0  0  0  0  0  0  0  0
    4.3100    1.6468  -20.0846 C   0  0  0  0  0  0  0  0  0  0  0  0
    4.6466    7.2210  -17.0043 C   0  0  0  0  0  0  0  0  0  0  0  0
    6.3479   -4.2032  -17.8739 C   0  0  0  0  0  0  0  0  0  0  0  0
    5.1962   -3.3874  -18.5021 C   0  0  0  0  0  0  0  0  0  0  0  0
    6.1855    9.3612  -21.3593 C   0  0  0  0  0  0  0  0  0  0  0  0
    7.6446   -2.7804  -21.5398 N   0  0  0  0  0  0  0  0  0  0  0  0
    4.0461    6.0157  -17.6361 N   0  0  0  0  0  0  0  0  0  0  0  0
    7.7106    3.4001  -17.7202 O   0  0  0  0  0  0  0  0  0  0  0  0
    6.8379    2.2388  -15.6216 O   0  0  0  0  0  0  0  0  0  0  0  0
    3.6858    4.4603  -19.8819 O   0  0  0  0  0  0  0  0  0  0  0  0
    5.4144   -3.2105  -19.9271 O   0  0  0  0  0  0  0  0  0  0  0  0
    8.1749   -0.2205  -22.4920 F   0  0  0  0  0  0  0  0  0  0  0  0
    6.5897    2.9219  -16.8971 S   0  0  0  0  0  0  0  0  0  0  0  0
    9.1499    8.2618  -17.8106 H   0  0  0  0  0  0  0  0  0  0  0  0
    7.3110    7.3784  -16.3933 H   0  0  0  0  0  0  0  0  0  0  0  0
    8.6628    9.1721  -20.0669 H   0  0  0  0  0  0  0  0  0  0  0  0
    4.4748    8.2906  -19.5044 H   0  0  0  0  0  0  0  0  0  0  0  0
    4.0233   -0.9808  -19.3644 H   0  0  0  0  0  0  0  0  0  0  0  0
    6.4966    1.6471  -21.7248 H   0  0  0  0  0  0  0  0  0  0  0  0
    4.7490    1.4589  -17.3331 H   0  0  0  0  0  0  0  0  0  0  0  0
    6.2240    0.9750  -18.2367 H   0  0  0  0  0  0  0  0  0  0  0  0
    6.0962    5.1008  -16.0398 H   0  0  0  0  0  0  0  0  0  0  0  0
    4.6828    3.9976  -15.9312 H   0  0  0  0  0  0  0  0  0  0  0  0
    5.9718    2.9943  -19.7063 H   0  0  0  0  0  0  0  0  0  0  0  0
    5.8309    5.2406  -18.4985 H   0  0  0  0  0  0  0  0  0  0  0  0
    3.3856    3.4256  -18.1002 H   0  0  0  0  0  0  0  0  0  0  0  0
    8.4841   -4.0930  -17.4817 H   0  0  0  0  0  0  0  0  0  0  0  0
    7.9635   -3.2731  -18.9927 H   0  0  0  0  0  0  0  0  0  0  0  0
    7.6318   -2.5141  -17.3988 H   0  0  0  0  0  0  0  0  0  0  0  0
    5.4469    8.5809  -23.2544 H   0  0  0  0  0  0  0  0  0  0  0  0
    6.4797    7.4356  -22.3335 H   0  0  0  0  0  0  0  0  0  0  0  0
    4.7918    7.7477  -21.8042 H   0  0  0  0  0  0  0  0  0  0  0  0
    7.0925   10.3893  -23.0575 H   0  0  0  0  0  0  0  0  0  0  0  0
    7.7597   10.8690  -21.4603 H   0  0  0  0  0  0  0  0  0  0  0  0
    8.2056    9.2852  -22.1810 H   0  0  0  0  0  0  0  0  0  0  0  0
    4.8309   10.8191  -22.2511 H   0  0  0  0  0  0  0  0  0  0  0  0
    4.1710    9.9835  -20.8044 H   0  0  0  0  0  0  0  0  0  0  0  0
    5.4193   11.2609  -20.6124 H   0  0  0  0  0  0  0  0  0  0  0  0
    3.9938    2.1974  -20.9828 H   0  0  0  0  0  0  0  0  0  0  0  0
    3.4226    1.2790  -19.5486 H   0  0  0  0  0  0  0  0  0  0  0  0
    5.0473    6.9460  -16.0175 H   0  0  0  0  0  0  0  0  0  0  0  0
    3.8671    7.9875  -16.8829 H   0  0  0  0  0  0  0  0  0  0  0  0
    6.4377   -5.1579  -18.4127 H   0  0  0  0  0  0  0  0  0  0  0  0
    6.1060   -4.3989  -16.8188 H   0  0  0  0  0  0  0  0  0  0  0  0
    4.2473   -3.9212  -18.3450 H   0  0  0  0  0  0  0  0  0  0  0  0
    5.1462   -2.4007  -18.0186 H   0  0  0  0  0  0  0  0  0  0  0  0
    8.3741   -2.4567  -22.1423 H   0  0  0  0  0  0  0  0  0  0  0  0
    8.0455   -3.1692  -20.7103 H   0  0  0  0  0  0  0  0  0  0  0  0
    3.6499    6.2935  -18.5112 H   0  0  0  0  0  0  0  0  0  0  0  0
    3.1420    5.1933  -19.6183 H   0  0  0  0  0  0  0  0  0  0  0  0
  1  2  2  0  0  0  0
  1  3  1  0  0  0  0
  2  7  1  0  0  0  0
  3  8  2  0  0  0  0
  4  7  2  0  0  0  0
  4  8  1  0  0  0  0
  5  9  2  0  0  0  0
  5 11  1  0  0  0  0
  6  9  1  0  0  0  0
  6 12  2  0  0  0  0
  7 23  1  0  0  0  0
  8 26  1  0  0  0  0
  9 22  1  0  0  0  0
 10 11  2  0  0  0  0
 10 12  1  0  0  0  0
 10 27  1  0  0  0  0
 11 32  1  0  0  0  0
 12 33  1  0  0  0  0
 13 15  1  0  0  0  0
 13 34  1  0  0  0  0
 14 16  1  0  0  0  0
 14 34  1  0  0  0  0
 15 17  1  0  0  0  0
 15 22  1  0  0  0  0
 16 17  1  0  0  0  0
 16 28  1  0  0  0  0
 17 31  1  0  0  0  0
 18 24  1  0  0  0  0
 19 26  1  0  0  0  0
 20 26  1  0  0  0  0
 21 26  1  0  0  0  0
 23 28  1  0  0  0  0
 24 25  1  0  0  0  0
 25 32  1  0  0  0  0
 29 34  2  0  0  0  0
 30 34  2  0  0  0  0
  1 35  1  0  0  0  0
  2 36  1  0  0  0  0
  3 37  1  0  0  0  0
  4 38  1  0  0  0  0
  5 39  1  0  0  0  0
  6 40  1  0  0  0  0
 13 41  1  0  0  0  0
 13 42  1  0  0  0  0
 14 43  1  0  0  0  0
 14 44  1  0  0  0  0
 15 45  1  0  0  0  0
 16 46  1  0  0  0  0
 17 47  1  0  0  0  0
 18 48  1  0  0  0  0
 18 49  1  0  0  0  0
 18 50  1  0  0  0  0
 19 51  1  0  0  0  0
 19 52  1  0  0  0  0
 19 53  1  0  0  0  0
 20 54  1  0  0  0  0
 20 55  1  0  0  0  0
 20 56  1  0  0  0  0
 21 57  1  0  0  0  0
 21 58  1  0  0  0  0
 21 59  1  0  0  0  0
 22 60  1  0  0  0  0
 22 61  1  0  0  0  0
 23 62  1  0  0  0  0
 23 63  1  0  0  0  0
 24 64  1  0  0  0  0
 24 65  1  0  0  0  0
 25 66  1  0  0  0  0
 25 67  1  0  0  0  0
 27 68  1  0  0  0  0
 27 69  1  0  0  0  0
 28 70  1  0  0  0  0
 31 71  1  0  0  0  0
M  END
> <OMEGA_C>
LCUCQdFiBEHbapHBagPjQHTB+EBh/4rB8mr7QOqpDEH/p5vB27CvQKjABEF+GJnBwxKcQEMWVL/A
D6DBAdrIQLz/KD8uw6rB55i4QN03+UAm0Y7BBtXQQJoSDUEvn5/BwDKlQHqx7D5kB6TBLCLaQJqR
278amKnBPJe2QBU29r/xzKLBBUTjQACA2b6diK3B1HmzQHPc6T9gTI/B1MWwQNc8ikB4f4TBIUyj
QFrFJkC+PJnBmnGfQOo7nECWLI/B0auGQPDuc0A3wpXBLor2QPX0XcBUiI/BhxW2QJEnA0E+BbLB
vsbsQLNkIEFoh7DBzUKiQGTyJkGu/anBpeuJQCrK0j86raDBwbCUQG8S50DMCIjBVCLLQFeAhsCy
/Y7BJUemQGfLWMBDBJTBye/FQJzHFUHQ36rBbqD0QN3xMcB8UazBBHqBQJKAwECwFo3BJ732QACb
WUDxwo3BetDaQGFID0Du8XnBxuRrQPO6jkAqDp/B9UKtQI54TcCgap/BM8wCQajMYb6j77PB8N7S
QJ3/OkA9LYfB32USQVUwBEEHfI7BnfPpQAoc7EBnJYPBypoKQcbAEkEFiaDBVDGPQEumBEHtCJzB
mL6AQH8Ye79K6prB3uPPQDLT0j9gzK3BaPeXQFu+uj8wqorBYSvHQPWYeT/X5JHB/xPDQBw6o0CG
UYDBcNmVQHbYf0Av5n7BNxm/QOCiP0Bspp3BoZa6QDKzp0Di/JPB86xYQI08W0BJzZDBrL4HQTT6
gsBy2ovBW9X+QEV6UcD68JfBXjf0QMHmIMCuMIvBH02uQGJLCUHqCLrBAVrPQHvw7UAHq7LBpFaZ
QFbt90Dtbq7BpfXiQMA6JkHCdbjBM0/4QHLnLUGdrqvB/UkDQTGQFEGecrHBD5eaQAobLUEnArLB
qniFQJi8H0F/b6bBw2qtQHssNEFB5qTBXJp/QGmiDEDQ3KfBSQxbQH+2oz+MY5zBXIOhQJ5F3kDM
I4DBxH13QP2Z/0AbEIfB8QHOQMgNpcBDTZPB9GPDQAbEjMD3jIbBzumHQAP1esCYwpLBiq2kQEqk
GcD/JZDBN/wFQa86HcCEI7HBXboAQcrUSsCurqXB0pdpQBBkyUDtFpTBUhZJQEovpkA58pzByaED
QW5qAkFOzpHBq7LlQIPY9UBrUovB/47+QFoBC0F9/ZvB+2eyQFOFBEGBOpnBTKGaQIRmYL+3mJ/B
JKXBQA66LD8yGKvBWie7QL8J+EBhBI/BlNjTQNpQDEF50Z/B7PafQON62D5w2qPB9pXYQBw307/L
0qnBKGm3QFZd9L8PgqLBNOfdQL1ytr4eDK7BY6WvQOce5T+z947BhH+wQN7yiUBDl4TBPiCfQAlZ
I0CJ8JjBO8GeQNuqm0CuQY/BBjuEQL9Cc0BHiZXBOMtYQF3bhcC2rZLBjpK3QIYdA0FRJLLBGmTw
QKpSH0HXwLDBpqemQJsnJ0H9+KnBjVKEQAQqyj+rAKDB2tmWQLAT50A/LYjBmSqbQLgbjsAoSI/B
Wui3QBCiUsC4+JLBChHJQCtgFUFVAavBv930QFirKsAXn6zB9DSCQPwZwUDTLo3B4Ij0QNBjU0Dd
Io7BC0LZQCeADUAM+HnBGFRnQLEwjkAF4J7BBcCzQEeSS8Dbb57BPNT+QHxpur2tvbTB3uzQQC4F
OEBrP4fB5O0TQZqUAUHa9o7B6YLsQFer6ECvhIPBSUkMQYekEEFF7qDBeMmRQCUaBUF+EZzBFaqA
QKZyir/DIprB2MHFQHQX1T/DY67BaU6UQG8Kuz+fForBIz7CQIOiaT9ah5HBZPHDQLGpokAIo4DB
Yb6VQN/agEDqr37BvtK6QLdyOUCEnZ3BJcy5QJDVpUCoSJTBVKVTQFF3XUAcZZDB9kYwQNqIoMCe
+Y/BOCNCQC3BT8D/CY/BXk1VQHFEg8CgcZvBztavQGp3CUEyHrrB9+7PQEoA7UDk5LLBqoOaQCvM
+ECce67BJJ7mQINyJUEZorjBQzD9QEWKLEEJ56vBHJ0EQZIGE0ETy7HB7BafQCKNLUEf87HBFIaJ
QOdoIEH9XKbBf/OyQNQbNEGs3qTBz5VvQL8RCECF96bB2vtSQPiClz9fRJvBE5ejQBbl3UAMTYDB
eH99QPw0AEHoK4fBlsacQBPAkMAThIbBqlumQO4jrMC165LBGMGtQNKTFsAfJY/B5mHZQPYvYMCZ
15DBuCYFQcs7FMB/27HBOAACQSWRP8AmE6bBUJRrQPxWykBcL5TBSqBGQGx5pkDX05zBVzYCQVvZ
A0GTnJHBYBvjQCHm90BGLYvBjor7QK9EDEFA0ZvBirGvQBS4BEE3M5nBK8ybQNlBVL8GGqDB6MvI
QF24Kj9NrKrBU5+4QB/s+EDK8I7BmefQQA31DEFPvJ/BJf6kQN+M7T61AKTBsSnaQCay2r+ujanB
GnS2QCMD9r9o06LBFlPjQPOo1L7Wb63BgF6zQDSM6T+7QY/BGtOwQMg4ikBveITBCyajQMiaJkAx
MZnBCGafQI4inEAEJo/BjJWGQFDDc0BCt5XBJNz0QIqnYsCYk4/BLxjtQON2IEEukLDBztKiQApW
J0Gq8KnBY7u1QGaWA0HKKbLBBLGJQCqw0j/ToKDBYLKUQH4W50DxHIjBz5zIQFEqh8AA4I7BJs+k
QB/LWMAxJJTB0BDGQNj3FUHV7qrBgrT0QDVmMcBeS6zBhGyBQE5owEAfFY3BCbb2QMhRWUDjwo3B
eOXaQIIgD0DH6HnB/9lrQMCjjkBJBZ/BqjCtQHOMTcBHfJ/Bb+ECQSnSUr5dyrPBmODSQArWOkDi
J4fB1XwSQX51A0ESt47Bvg/qQPb76kCJWoPBj7AKQfBBEkE+tqDBUyiPQHXEBEECHZzB506AQExH
fL9IBJvBFt3PQJDr0z+Xqq3BXeGXQBKguj+cm4rBFgLHQGu1eD9N25HBFTHDQHw7o0DgUIDB0vKV
QLLuf0A1zH7BVvC+QIFpP0BFnZ3BLIO6QFmTp0AN+pPB3nRYQBwsW0AiwpDBJoQGQVq6hcAht4vB
nHD9QOcEWcCVBpjBw5/zQAtbJMBhfYvBWVLjQGGHJkFqdLjB0wT5QK/MLUGFp6vB10sDQWt/FEHe
kLHBpjebQOiyLUHo67HBtuWFQOM7IEFQZqbBOlyuQIlkNEHDyqTBgvytQGnwCUF0I7rBQLrOQGuQ
7kAf5bLBPeCYQGTz+ECZl67Bw/x+QJSoDEAnzafBqa9aQEBpoz9CVJzBW4ShQMuI3kCMM4DBUZl3
QD2y/0ACMYfB/WPKQOFapsAR7pLBJZPAQPMFjMDeZIbB5AWGQFHqecBpHJPBBFGjQBGnGcB2RJDB
FhYGQTl0HMC/D7HBoq4AQUuoSsD0qKXBazFpQBcdyUC8FJTBMxRJQIcepkCX65zB56ADQW6YAkGR
7ZHB3LflQLYp9kCHcYvBx4/+QJYDC0FzJZzBtHCyQGBfBEG6aJnBC8OaQCJ2YL+HnJ/BliPCQNjj
MT+j2qrBBzC7QN4R+ECvKI/BPeTTQDMaDEEqBaDB7D2gQHXN2z67tKPBkNbYQNE40b9126nB5lu3
QBvy878kqKLB3HneQAJxqb4l363BPYCvQGfy5D9HvY7BwXuwQIg0ikDze4TBrCGfQAIdI0CMvZjB
q8ieQNiom0AZL4/BkjmEQA4Pc0DxZ5XBuStiQNfPgcAG35DBZ7HwQBqEHkGJGLHBt2WnQAMRJ0Fd
RarB6v22QNq6AkFQSLLB0WSEQFyuyT+4zJ/BeuqWQGpM50DfRYjBSoOgQEL8i8DQho7BpZ+9QP5t
U8ARZpPBRS/JQLD9FEHjP6vBAez0QDyaKcCtyKzBHUGCQJYpwUBCMI3BxZX0QMCwUkDs5Y3BI9XY
QBYHDkDxcHnBvWJnQLzbjUBWyJ7BBWSzQFZgS8ABoJ7BQan/QIiXVr2Qc7TB6sbQQEINOECsB4fB
/ukTQVboAUFLD4/BXYrsQAMr6UANn4PBd0cMQUKxEEGuFKHB29SRQDzgBEGTQpzBFMyAQD9qi78X
K5rBflnGQKxu2D9VBq7BMxiUQKtTuz893onBQxHCQJi9aD9hRJHB7QPEQMT7okAYlYDBqbGVQDtj
gUDwb37B1Oe6QH4KOUB8Zp3B8tm5QMunpUBqOZTB8J1TQGKIXUD5P5DB0GA5QJy6msAHUY3BPaZR
QO0XRcA9ZY3BiORXQGvmgMDskpnByvXmQJGIJEHc/7jB9Pb9QAC/K0GSVazBr5IEQZsDEkG2F7LB
1d2fQMhYLUHrRbLBBCGKQKikIEHIlabB8Tq0QK0HNEHwQaXBelSvQPP8CEH9R7rBB/DOQKLR60Bp
/7LB5siZQIeh+EACkK7BiT9vQL3iB0Bru6bBN3dTQET3lT+WDJvB1LOjQGJh3kAOYoDB+J19QClU
AEG0T4fBmnqlQO7zjMBo0YXBv5moQGJOq8AX/5HBWEO4QEzgFcD5V4/B0k/fQJ9xZsCmeJLBlk8F
QZKVEsBP6bHBqeABQS70P8DkRKbBrKFrQCgnykBXNZTBW6FGQC0upkDcxpzB/hMCQXLJAkEPbpLB
QVLjQAbw9kB8sIvBDIz6QHpPCkGXw5zBsOquQPnlAkEqr5nBAN2ZQGCzKr8pHaLBgH3NQMY/TD9c
1qrBjpq4QOlH90DNRY/BuKfPQLKlCkFbhKDBwtmmQFnUHT+gJqXBPD7bQBLDzL82x6nB7omzQFSZ
4r+si6TBZcHnQNyEn76YIq3BpXy0QPdC5z/VwI/BimSxQJ5siEB2P4TBMAWlQOrkKUCxcZnBtTKg
QFJJm0Aw147Bx6WHQN7Wc0A4mZXB39W6QD6Sm8ADn4fBk4fqQBJqHUEarLHBVAqgQPe8I0HMGqvB
Xqa0QDln/0DdvbLBOmCMQHtb5T9CqKHBom6VQAtG5kDQFojBVMmgQDerjMDDSZHB5Ce5QH7RUMCC
k5bBUCPEQMnBEkHY16vBUUf2QO0FLMAmaKvBPfWBQMoev0A4q4zBDhP4QOrVVkAMVo3BzlXaQP3l
CECoCnrBUFBsQDipj0DPrJ7Bg+2mQBoRP8Csz6DBGZkGQfvrB755Y7LBWnLTQEUuN0AmGYfBDnQS
QdWjAkH9q4/B6tPqQMts60AQw4PBTAQKQfbhD0Ew5KHBsTiOQDaMAkF5epzBwQ94QB0bTr8K5Z3B
IuXWQBSP5D/ja63Bl6+YQCyotD8eYYvBElnIQO+aeD9TmZLBP8TDQH0JoUAF5n/BoWKWQDa7e0DY
hH7BpzDBQMW5RUBeaZ3BDGa7QGFCp0BvjpPBmZ9bQNqZWEC2r5DBO/SpQBPxtcC1mYPBw3PaQPe0
psCVTorBeti+QM3GgMDJAILBK1vgQE7TIkGEprnBUcL1QHg4K0Hv/azBelUCQTy+EUECgLLB8/qX
QNByKUFZLrPB3oqDQBuGHEFHaKfBKwCrQH5IMUH2MqbBTG2sQHVqBUGczrrBkEXOQCVf50CeTbPB
ez6YQDLp8EAFBK/BO5eEQLcZGkABr6jBKz9dQEmotj9Y+J3BmQajQMKt3kBtMoDBMRt5QE/r/kAE
M4fBrcScQIpCp8BK95bBZSmBQGBUgcB+qY7B2DK3QPJFF8DNh5HBquDaQG1kY8CQkJfB1V0IQU2c
GMClMq/B2D/+QDuCRcAfWKTB8dZnQGwXx0CCk5PBjlpIQAtLpkAqUpzB

> <OMEGA_E>
UNiOPugSlj6gro4+RAibPkyxrj4=

> <OMEGA_NBR>
    122872

$$$$
50216996
  -OEChem-04172616093D

 72 75  0     1  0  0  0  0  0999 V2000
    8.1608    8.1675  -18.2644 C   0  0  0  0  0  0  0  0  0  0  0  0
    7.1248    7.7056  -17.4354 C   0  0  0  0  0  0  0  0  0  0  0  0
    7.8736    8.6564  -19.5528 C   0  0  0  0  0  0  0  0  0  0  0  0
    5.5037    8.2121  -19.1875 C   0  0  0  0  0  0  0  0  0  0  0  0
    4.8164   -0.7380  -20.1400 C   0  0  0  0  0  0  0  0  0  0  0  0
    6.2993    0.7631  -21.3578 C   0  0  0  0  0  0  0  0  0  0  0  0
    5.7929    7.7344  -17.8925 C   0  0  0  0  0  0  0  0  0  0  0  0
    6.5366    8.6944  -20.0303 C   0  0  0  0  0  0  0  0  0  0  0  0
    5.1417    0.5536  -20.5771 C   0  0  0  0  0  0  0  0  0  0  0  0
    6.8372   -1.6115  -21.1974 C   0  0  0  0  0  0  0  0  0  0  0  0
    5.6556   -1.8189  -20.4583 C   0  0  0  0  0  0  0  0  0  0  0  0
    7.1490   -0.3181  -21.6645 C   0  0  0  0  0  0  0  0  0  0  0  0
    5.7359   -4.6114  -17.1006 C   0  0  0  0  0  0  0  0  0  0  0  0
    4.6402   -4.5433  -18.1751 C   0  0  0  0  0  0  0  0  0  0  0  0
    6.6382   -3.9004  -18.1186 C   0  0  0  0  0  0  0  0  0  0  0  0
    5.5909    1.8043  -17.9301 C   0  0  0  0  0  0  0  0  0  0  0  0
    5.5470    4.2880  -16.5493 C   0  0  0  0  0  0  0  0  0  0  0  0
    5.0894    2.6195  -19.1548 C   0  0  2  0  0  0  0  0  0  0  0  0
    4.9899    4.8594  -17.8739 C   0  0  1  0  0  0  0  0  0  0  0  0
    5.3383   -3.2653  -18.6458 C   0  0  0  0  0  0  0  0  0  0  0  0
    4.1990    3.8060  -18.6910 C   0  0  1  0  0  0  0  0  0  0  0  0
    7.3992    9.8622  -22.1703 C   0  0  0  0  0  0  0  0  0  0  0  0
    5.0793   10.2973  -21.3419 C   0  0  0  0  0  0  0  0  0  0  0  0
    5.6792    8.0406  -22.3130 C   0  0  0  0  0  0  0  0  0  0  0  0
    4.2939    1.7171  -20.1308 C   0  0  0  0  0  0  0  0  0  0  0  0
    4.6788    7.2043  -17.0120 C   0  0  0  0  0  0  0  0  0  0  0  0
    6.1875    9.2164  -21.4432 C   0  0  0  0  0  0  0  0  0  0  0  0
    7.6982   -2.6761  -21.4479 N   0  0  0  0  0  0  0  0  0  0  0  0
    4.0596    5.9926  -17.6030 N   0  0  0  0  0  0  0  0  0  0  0  0
    7.7173    3.3478  -17.7276 O   0  0  0  0  0  0  0  0  0  0  0  0
    6.8421    2.1793  -15.6355 O   0  0  0  0  0  0  0  0  0  0  0  0
    3.6581    4.4689  -19.8372 O   0  0  0  0  0  0  0  0  0  0  0  0
    5.3050   -3.0780  -20.0641 O   0  0  0  0  0  0  0  0  0  0  0  0
    8.2669   -0.1073  -22.3973 F   0  0  0  0  0  0  0  0  0  0  0  0
    6.5940    2.8764  -16.9036 S   0  0  0  0  0  0  0  0  0  0  0  0
    9.1814    8.1473  -17.9119 H   0  0  0  0  0  0  0  0  0  0  0  0
    7.3496    7.3289  -16.4485 H   0  0  0  0  0  0  0  0  0  0  0  0
    8.6773    9.0059  -20.1840 H   0  0  0  0  0  0  0  0  0  0  0  0
    4.4833    8.2106  -19.5413 H   0  0  0  0  0  0  0  0  0  0  0  0
    3.9211   -0.9020  -19.5587 H   0  0  0  0  0  0  0  0  0  0  0  0
    6.5337    1.7531  -21.7203 H   0  0  0  0  0  0  0  0  0  0  0  0
    5.5253   -4.0364  -16.1868 H   0  0  0  0  0  0  0  0  0  0  0  0
    6.0556   -5.6281  -16.8285 H   0  0  0  0  0  0  0  0  0  0  0  0
    4.6469   -5.3710  -18.8995 H   0  0  0  0  0  0  0  0  0  0  0  0
    3.6195   -4.4011  -17.7903 H   0  0  0  0  0  0  0  0  0  0  0  0
    7.3611   -3.1927  -17.6866 H   0  0  0  0  0  0  0  0  0  0  0  0
    7.1540   -4.5642  -18.8280 H   0  0  0  0  0  0  0  0  0  0  0  0
    4.7303    1.4365  -17.3520 H   0  0  0  0  0  0  0  0  0  0  0  0
    6.1932    0.9507  -18.2743 H   0  0  0  0  0  0  0  0  0  0  0  0
    6.1357    5.0616  -16.0346 H   0  0  0  0  0  0  0  0  0  0  0  0
    4.7123    3.9734  -15.9055 H   0  0  0  0  0  0  0  0  0  0  0  0
    5.9632    3.0252  -19.6858 H   0  0  0  0  0  0  0  0  0  0  0  0
    5.8322    5.2169  -18.4844 H   0  0  0  0  0  0  0  0  0  0  0  0
    5.0372   -2.3806  -18.0656 H   0  0  0  0  0  0  0  0  0  0  0  0
    3.3879    3.4103  -18.0621 H   0  0  0  0  0  0  0  0  0  0  0  0
    7.0866   10.2118  -23.1653 H   0  0  0  0  0  0  0  0  0  0  0  0
    7.7680   10.7150  -21.5814 H   0  0  0  0  0  0  0  0  0  0  0  0
    8.2012    9.1173  -22.2787 H   0  0  0  0  0  0  0  0  0  0  0  0
    4.8333   10.6665  -22.3485 H   0  0  0  0  0  0  0  0  0  0  0  0
    4.1809    9.8593  -20.8825 H   0  0  0  0  0  0  0  0  0  0  0  0
    5.4377   11.1327  -20.7225 H   0  0  0  0  0  0  0  0  0  0  0  0
    5.4300    8.4091  -23.3191 H   0  0  0  0  0  0  0  0  0  0  0  0
    6.4643    7.2737  -22.3876 H   0  0  0  0  0  0  0  0  0  0  0  0
    4.7822    7.6034  -21.8502 H   0  0  0  0  0  0  0  0  0  0  0  0
    3.9965    2.3075  -21.0100 H   0  0  0  0  0  0  0  0  0  0  0  0
    3.3951    1.3374  -19.6230 H   0  0  0  0  0  0  0  0  0  0  0  0
    5.0914    6.9512  -16.0243 H   0  0  0  0  0  0  0  0  0  0  0  0
    3.9092    7.9822  -16.8995 H   0  0  0  0  0  0  0  0  0  0  0  0
    8.4807   -2.3543  -21.9810 H   0  0  0  0  0  0  0  0  0  0  0  0
    8.0195   -3.0561  -20.5805 H   0  0  0  0  0  0  0  0  0  0  0  0
    3.6350    6.2557  -18.4694 H   0  0  0  0  0  0  0  0  0  0  0  0
    3.1134    5.1947  -19.5560 H   0  0  0  0  0  0  0  0  0  0  0  0
  1  2  1  0  0  0  0
  1  3  2  0  0  0  0
  2  7  2  0  0  0  0
  3  8  1  0  0  0  0
  4  7  1  0  0  0  0
  4  8  2  0  0  0  0
  5  9  1  0  0  0  0
  5 11  2  0  0  0  0
  6  9  2  0  0  0  0
  6 12  1  0  0  0  0
  7 26  1  0  0  0  0
  8 27  1  0  0  0  0
  9 25  1  0  0  0  0
 10 11  1  0  0  0  0
 10 12  2  0  0  0  0
 10 28  1  0  0  0  0
 11 33  1  0  0  0  0
 12 34  1  0  0  0  0
 13 14  1  0  0  0  0
 13 15  1  0  0  0  0
 14 20  1  0  0  0  0
 15 20  1  0  0  0  0
 16 18  1  0  0  0  0
 16 35  1  0  0  0  0
 17 19  1  0  0  0  0
 17 35  1  0  0  0  0
 18 21  1  0  0  0  0
 18 25  1  0  0  0  0
 19 21  1  0  0  0  0
 19 29  1  0  0  0  0
 20 33  1  0  0  0  0
 21 32  1  0  0  0  0
 22 27  1  0  0  0  0
 23 27  1  0  0  0  0
 24 27  1  0  0  0  0
 26 29  1  0  0  0  0
 30 35  2  0  0  0  0
 31 35  2  0  0  0  0
  1 36  1  0  0  0  0
  2 37  1  0  0  0  0
  3 38  1  0  0  0  0
  4 39  1  0  0  0  0
  5 40  1  0  0  0  0
  6 41  1  0  0  0  0
 13 42  1  0  0  0  0
 13 43  1  0  0  0  0
 14 44  1  0  0  0  0
 14 45  1  0  0  0  0
 15 46  1  0  0  0  0
 15 47  1  0  0  0  0
 16 48  1  0  0  0  0
 16 49  1  0  0  0  0
 17 50  1  0  0  0  0
 17 51  1  0  0  0  0
 18 52  1  0  0  0  0
 19 53  1  0  0  0  0
 20 54  1  0  0  0  0
 21 55  1  0  0  0  0
 22 56  1  0  0  0  0
 22 57  1  0  0  0  0
 22 58  1  0  0  0  0
 23 59  1  0  0  0  0
 23 60  1  0  0  0  0
 23 61  1  0  0  0  0
 24 62  1  0  0  0  0
 24 63  1  0  0  0  0
 24 64  1  0  0  0  0
 25 65  1  0  0  0  0
 25 66  1  0  0  0  0
 26 67  1  0  0  0  0
 26 68  1  0  0  0  0
 28 69  1  0  0  0  0
 28 70  1  0  0  0  0
 29 71  1  0  0  0  0
 32 72  1  0  0  0  0
M  END
> <OMEGA_C>
gpICQfWtAkGXHZLBuP7jQEWU9kCle4vB7PT7QM6ACkE2bJzBRh6wQNdkA0ECgJnB5h+aQFjqPL+w
HqHBP5TJQIFcQz/U3KrBil+5QOx/90DNI4/B2ivRQBAcC0H9PaDBD4mkQD62DT/ynaTBjMraQFVE
zr8xlKnBUPq0QCjS6L+kqqPB/sTkQO3for7jUK3BZYy3QImQk8D2zYjBM3yUQHlikcCIZpHBIWzU
QCKgecDM8pDBXeiyQDvz5j/IcI/Bp4CxQPQ2iUDoZITBrtyiQHCmJ0D5PJnBCa2fQGWAm0C4/Y7B
NdOqQH36UMCsKpXBmF6GQAiWc0A7h5XBG8bsQMXLHUHAXLHBpImiQL3BJEFHvKrBRry1QGSmAEEO
gbLB7meJQKfK2z/wC6HBn7iVQN+J5kCfGIjBEQDGQDh2E0HEi6vBjVf2QMZFK8BRlavBWuiBQKjD
v0AD04zBfvT2QJVBVkAM0o3BVPLaQAB5C0DxKnrBUB5qQGIBj0CBsp7Bb8KpQDH+RMAtg6DBDUUE
Qcy/2729LbPBJwLTQB4XOECqOofBCOcSQUNbAkGPS4/B4i/rQPSF6kB/loPBaNYKQU4YEEHFeKHB
OnePQIleA0GpVJzBnvJ6QKvqZr9IeJzBPhTRQL9m4D8Xw63BZs+wQO8pgcCGfoHBmsfBQJUZtMC2
oIbBtLOUQPLeq8BGMpfB0qVnQMzVjMCSUo7BEo7rQExVTMAgfo3Bte3kQL4NksDEn5bB2F6XQKTd
tz/l0IrBzC7GQD1fcz/IMZLBRFfEQLb4oUDWRoDBgMuWQFlMfkDOfH7BmdK+QBudQUBxfJ3BDqG6
QP/wpkAW4JPB8jChQPpbGMBHhpDBD9RYQOJCWkA3f5DBq8XiQGxjI0GiUrnBL5P4QK1wK0GxpqzB
PTgDQWngEUHGOrLBv6qaQOSpKkHDybLBM8qFQJK/HUFkD6fBbAGuQKEfMkHGx6XB3cKtQIOLBkF3
jbrBWdvOQELC6EC6GbPBEwiZQKVO80A6za7B88V/QFKuE0B7FKjB0ElZQMQuqz/S+5zB5+yiQFJw
3kCxMYDBvzB6QGRu/0A+MofB3rAHQXatFsAF2a/B5E8AQa6WQ8DcpKTBVqRoQKguyEBBwZPBkUFH
QOY6pkDBcpzBuZcCQRa2AkEwNZLBkRLkQLxv9kCPmIvBGPD7QBS6CkHXeJzBBBuwQKOMA0H/j5nB
JjeaQAO5PL/qGqHBAnPJQLemQj+g9KrBa2y5QBd+90ARO4/B2iLRQJRlC0FzR6DBZnqkQL1xDT/B
raTBs8XaQC9wzr92manBeSW1QKSp6L+gm6PB7qTkQCZ8pL4uZa3BWQ25QCOXk8AZsIjB2HCVQAHR
kMBMHpHBaY7VQMvUeMCD1pDBAuWyQPI25j8deo/BomuxQLoAiUCFYoTBouOiQAF4J0CGQ5nBqref
QMNbm0Bq/I7B39CrQBsfUMCq95TBY2eGQABfc0C4iJXBS4u1QHBGAUEVkbLBHtjsQMRHHkEgVLHB
d7GiQDNUJUHlr6rBu2yJQKfX2z/pGaHBd9SVQNOG5kCNKYjBsPrFQGj0E0EqjKvBD0j2QFpmK8Br
nKvB5PuBQA2sv0CX1ozBo/f2QGO9VUCmw43Bu6jaQG3CCkBuJXrBByVqQMjyjkAmsZ7BgDeqQG6+
RMCyU6DB7jUEQa4s5L0fQrPBw+bSQL+QN0D1NofBx+4SQdlRAkFjZ4/B6E/rQHwc6kDGuoPBdNAK
QQRsEEFBgKHBInKPQL+LA0FVY5zBwz17QKtiZr9AbpzBfOPQQC/n3z+Y463BMdKyQI+hgcAPSIHB
GFHDQGxJtMCfrYbBtfSUQFUzq8A38ZbBXyFqQBQAjMCX4Y3B+K/sQNWWS8ANX43BlADmQG1nkcAz
lZbBMFWXQGLDtj9X4IrBTTnGQL9dcj9BPpLBd0HEQCa3oUD7P4DB/KaWQFLnfUAygX7BZd6+QPh9
QUCIf53BJbu6QGG/pkBW25PBrHGiQMU/F8ATV5DBoutYQEz6WUAfgZDBUJKtQMZMB0Fcl7rBsZLO
QJzv6UAcN7PB+86YQFCO9EBM4a7BZOHiQOkGJEG6Q7nB78z4QCjRK0GPkKzB6jADQexOEkGUP7LB
tOSaQIRaK0HkuLLBoN6FQF1ZHkEKCafBV0quQBSbMkHIsKXBiQGAQGjcE0BKIajBKzRZQDVlqz/L
Dp3BmByjQMOJ3kDkQoDBBV56QARn/0CcRIfB3pcHQYvzFsB376/BqWMAQW9qQ8DurKTBOatoQOz5
x0AOxZPBYEtHQBUppkCVbpzBlqUBQVmYBEHi8JDBfpbhQBnc+EDdt4rBnSv7QL36DEEIMpvBhUyv
QAP3BEFIB5nBn1adQJg1X78fUZ/BoTrIQLtKJD9/R6rB+Xe3QKFn+UDnu47BcurQQMJdDUHPX5/B
shKlQCC51z5hcqPBMVjaQLU83b/dc6nBYCq4QMqo+b+qKqLB3OHiQCN92r5FO63BzvP1QPETdcAe
CIrBdd35QOcIVMCagZXBB5rFQNCdZMC6S4vB8sSzQOel6j8b/Y7BXrSwQA4Gi0Dni4TBvSujQLxF
JUByBJnBjj+fQJVUnEDYSI/BzQLMQP82ecBvPJfBqL2GQKpBc0BByJXBB3a3QFCnA0G96rHBOz3u
QILDIEFTHbDBhU+jQLFpJ0Gj5qnBq1eJQOH7yz9bGKDB6CCTQFT+5kAyKIjB4ejGQLcvFkFOqKrB
6YzzQL4jMsCQDa3BLMaAQMlJwEBNU43BJML2QDXMWkDqvY3BczDbQJdFEkAUk3nBulVtQKnLjUA5
PJ/Br/WtQDMmTsAngp7BJkUCQaz1Sr6HzLPBiw3TQF+yPEDZEIfBN8cRQQ9wBEEv2I3BEvfnQMXo
60A33oLBz6YKQRAsE0EX7Z/BwQWPQBrkBEHkHZzB/MKCQNKZhL+z85nBKbLOQN9T0T8iQa3BI+3+
QOdGnMAW6IjBPfoCQZ2VTcCW8YPBvFT8QE0SDsAwRJbBCJEJQVaLcsAbTZrBOtiwQNHSiMDp9IbB
1WW7QI6gIsBemInBKXGYQDMivD/NQ4rBCZnHQK3Iej+EfJHBWt7CQBNapED6dIDBztiVQHTWgECK
637Bk8G+QP/SPECKn53BrUa6QE7ip0BJIJTBSEHNQNVbn8AJmpjBjRdYQOGhW0Bk3ZDBeFCwQMDg
CUG287nBLbDQQD7c7kCgebLB5GeaQIv2+ECxeq7BkAvlQNyuJkGoE7jB54f5QDQ2LkFxMKvBvAAE
QR7jFEHM8LDBrkWcQPOmLUFm8LHBTzaGQLo6IEEBfqbBszGuQIKTNEFgu6TBf/V7QDeqB0A9SKfB
c3lbQEEYnD9Rh5vB2EmfQGtO3kCBMIDB0MVzQMdN/0AbVYfBcOUEQYnqG8DXFrLBOOoAQek7TsBq
0KbBHyNpQLsdyUA0YpTBJrFKQOGLpUBhTJ3BrqgBQVZ1BEE4B5HBX6zhQKmW+ECyyIrBEBD7QEvq
DEH2QpvBWDCvQAz5BEEFCJnBUcqdQEFZWb9haJ/Bi/DIQNXDJT/OdKrBuXy3QLZK+UBdwY7BM7vQ
QJtlDUHjZJ/B06+lQF414D4Fo6PBOIHaQLcI3b+vhanBG3y4QNac9780J6LB4FHjQK7f277OXa3B
dCX4QAHecsBXJIrB+fT6QFgqUcCFl5XBQoXHQAuCZcAoNYvBjuqzQJFh6j9cHo/B8G+wQI6nikDh
hITBHJ+jQOblJUA0IJnBYUifQKU5nEAUQ4/BilrNQHvYd8DmOZfB/O+GQPRSc0CV1ZXBeNLtQPD3
IEFFGrDBj62iQHpFJ0Eo96nBMqG3QMeVA0HY8LHBChaKQIK5zj/dW6DBxDWTQKbj5kA5J4jBXKDG
QB00FkFwrarBRV/zQFGJMsDzHq3Ba8+AQJAtwEAyTo3BN9T2QAuRWkDXm43B2aPaQMv5EEBflXnB
WnFtQHv+jUAnQJ/BIFeuQLZ0TMBOO57B/4QCQazpWb688LPBU+DSQPwPPEDBC4fBqNARQYw+BEEO
943B/CXoQLOE60CB84LBbJMKQZMXE0E0A6DBnd6OQE3uBEF4F5zByiiDQL9igL9jCprB0bDPQE60
0T+wc63BPSABQS3kmsCdGInBPO0DQfugSsAGFYTBBbz8QK4UC8CYS5bBRxwKQfN0bsBegZrBEs6z
QPREisCG5YbBi1i8QGWAJMD6TonBr3KYQFL7uj8je4rBtN7HQLJCez/Vo5HByHrCQFbio0C/W4DB
z2+VQCFXgEAq/n7B8VW/QGgTPkCqoZ3B0XO6QDbXp0BaC5TBeR/PQFODnsDGy5jBgqFYQKwVW0Bj
8JDB6ZnkQK7fJkHGELjBa9X4QOlyLkHnKKvBkuYDQe00FUFD7LDBFaibQJx2LUGAA7LBsKiFQDn1
H0FplabBeTqtQIV+NEGRyqTB/2WwQEjECUG4+rnBKSDRQOr/7kDTfLLBBLaaQD2D+ECJg67Bxsl+
QIOICUDNkqfB7RlcQNtpnz9O75vB4XKfQK033kAxMYDB4/JzQA8z/0DhUIfB4sIEQb/ZHMD5N7LB
a+EAQSODTsCy46bBlCRpQED6yEC+XJTBWn5KQC+TpUA3RZ3B

> <OMEGA_E>
vPWXPmgblz5gnp8+JPqfPg==

> <OMEGA_NBR>
    127723

$$$$
50217003
  -OEChem-04172616093D

 71 73  0     1  0  0  0  0  0999 V2000
    8.1348    8.2388  -18.1918 C   0  0  0  0  0  0  0  0  0  0  0  0
    7.0908    7.7451  -17.3914 C   0  0  0  0  0  0  0  0  0  0  0  0
    7.8619    8.7631  -19.4694 C   0  0  0  0  0  0  0  0  0  0  0  0
    6.2781    0.6687  -21.3445 C   0  0  0  0  0  0  0  0  0  0  0  0
    7.1030   -0.4168  -21.6885 C   0  0  0  0  0  0  0  0  0  0  0  0
    5.4902    8.2928  -19.1501 C   0  0  0  0  0  0  0  0  0  0  0  0
    4.8682   -0.8225  -20.0202 C   0  0  0  0  0  0  0  0  0  0  0  0
    5.7649    7.7781  -17.8661 C   0  0  0  0  0  0  0  0  0  0  0  0
    6.5315    8.8038  -19.9650 C   0  0  0  0  0  0  0  0  0  0  0  0
    5.1587    0.4693  -20.5093 C   0  0  0  0  0  0  0  0  0  0  0  0
    6.8165   -1.7060  -21.1988 C   0  0  0  0  0  0  0  0  0  0  0  0
    5.7011   -1.9167  -20.3559 C   0  0  0  0  0  0  0  0  0  0  0  0
    5.6051    1.8251  -17.9092 C   0  0  0  0  0  0  0  0  0  0  0  0
    5.5289    4.3219  -16.5604 C   0  0  0  0  0  0  0  0  0  0  0  0
    5.1005    2.6054  -19.1511 C   0  0  2  0  0  0  0  0  0  0  0  0
    4.9815    4.8800  -17.8948 C   0  0  1  0  0  0  0  0  0  0  0  0
    4.2063    3.8086  -18.7141 C   0  0  1  0  0  0  0  0  0  0  0  0
    7.6634   -3.5349  -17.9450 C   0  0  0  0  0  0  0  0  0  0  0  0
    7.4222   10.0065  -22.0739 C   0  0  0  0  0  0  0  0  0  0  0  0
    5.1022   10.4516  -21.2529 C   0  0  0  0  0  0  0  0  0  0  0  0
    5.6836    8.2082  -22.2666 C   0  0  0  0  0  0  0  0  0  0  0  0
    4.3072    1.6520  -20.0866 C   0  0  0  0  0  0  0  0  0  0  0  0
    4.6401    7.2213  -17.0157 C   0  0  0  0  0  0  0  0  0  0  0  0
    6.2746   -4.2031  -17.8429 C   0  0  0  0  0  0  0  0  0  0  0  0
    5.1610   -3.3602  -18.5013 C   0  0  0  0  0  0  0  0  0  0  0  0
    6.1983    9.3601  -21.3687 C   0  0  0  0  0  0  0  0  0  0  0  0
    7.6495   -2.7641  -21.5416 N   0  0  0  0  0  0  0  0  0  0  0  0
    4.0418    6.0111  -17.6368 N   0  0  0  0  0  0  0  0  0  0  0  0
    7.7122    3.3930  -17.7203 O   0  0  0  0  0  0  0  0  0  0  0  0
    6.8397    2.2368  -15.6194 O   0  0  0  0  0  0  0  0  0  0  0  0
    3.6812    4.4568  -19.8755 O   0  0  0  0  0  0  0  0  0  0  0  0
    5.4161   -3.2021  -19.9231 O   0  0  0  0  0  0  0  0  0  0  0  0
    6.5909    2.9192  -16.8953 S   0  0  0  0  0  0  0  0  0  0  0  0
    9.1505    8.2160  -17.8254 H   0  0  0  0  0  0  0  0  0  0  0  0
    7.3047    7.3406  -16.4131 H   0  0  0  0  0  0  0  0  0  0  0  0
    8.6715    9.1376  -20.0783 H   0  0  0  0  0  0  0  0  0  0  0  0
    6.5018    1.6563  -21.7200 H   0  0  0  0  0  0  0  0  0  0  0  0
    7.9581   -0.2617  -22.3297 H   0  0  0  0  0  0  0  0  0  0  0  0
    4.4745    8.2976  -19.5169 H   0  0  0  0  0  0  0  0  0  0  0  0
    4.0069   -0.9767  -19.3872 H   0  0  0  0  0  0  0  0  0  0  0  0
    4.7451    1.4595  -17.3289 H   0  0  0  0  0  0  0  0  0  0  0  0
    6.2178    0.9713  -18.2340 H   0  0  0  0  0  0  0  0  0  0  0  0
    6.1052    5.1039  -16.0441 H   0  0  0  0  0  0  0  0  0  0  0  0
    4.6902    4.0039  -15.9237 H   0  0  0  0  0  0  0  0  0  0  0  0
    5.9699    2.9957  -19.7004 H   0  0  0  0  0  0  0  0  0  0  0  0
    5.8271    5.2391  -18.4997 H   0  0  0  0  0  0  0  0  0  0  0  0
    3.3851    3.4223  -18.0925 H   0  0  0  0  0  0  0  0  0  0  0  0
    8.4156   -4.1758  -17.4619 H   0  0  0  0  0  0  0  0  0  0  0  0
    7.9262   -3.3957  -19.0040 H   0  0  0  0  0  0  0  0  0  0  0  0
    7.6375   -2.5570  -17.4420 H   0  0  0  0  0  0  0  0  0  0  0  0
    7.1204   10.3810  -23.0632 H   0  0  0  0  0  0  0  0  0  0  0  0
    7.7972   10.8420  -21.4645 H   0  0  0  0  0  0  0  0  0  0  0  0
    8.2159    9.2543  -22.1931 H   0  0  0  0  0  0  0  0  0  0  0  0
    4.8682   10.8446  -22.2533 H   0  0  0  0  0  0  0  0  0  0  0  0
    4.1953   10.0148  -20.8093 H   0  0  0  0  0  0  0  0  0  0  0  0
    5.4657   11.2697  -20.6136 H   0  0  0  0  0  0  0  0  0  0  0  0
    5.4454    8.6003  -23.2664 H   0  0  0  0  0  0  0  0  0  0  0  0
    6.4610    7.4346  -22.3520 H   0  0  0  0  0  0  0  0  0  0  0  0
    4.7788    7.7710  -21.8193 H   0  0  0  0  0  0  0  0  0  0  0  0
    3.9930    2.2072  -20.9827 H   0  0  0  0  0  0  0  0  0  0  0  0
    3.4186    1.2829  -19.5536 H   0  0  0  0  0  0  0  0  0  0  0  0
    5.0376    6.9562  -16.0249 H   0  0  0  0  0  0  0  0  0  0  0  0
    3.8608    7.9896  -16.9046 H   0  0  0  0  0  0  0  0  0  0  0  0
    6.3171   -5.1824  -18.3421 H   0  0  0  0  0  0  0  0  0  0  0  0
    6.0284   -4.3437  -16.7801 H   0  0  0  0  0  0  0  0  0  0  0  0
    4.1939   -3.8651  -18.3610 H   0  0  0  0  0  0  0  0  0  0  0  0
    5.1292   -2.3683  -18.0267 H   0  0  0  0  0  0  0  0  0  0  0  0
    7.3129   -3.6050  -21.1178 H   0  0  0  0  0  0  0  0  0  0  0  0
    7.6585   -2.8726  -22.5357 H   0  0  0  0  0  0  0  0  0  0  0  0
    3.6404    6.2821  -18.5118 H   0  0  0  0  0  0  0  0  0  0  0  0
    3.1369    5.1891  -19.6111 H   0  0  0  0  0  0  0  0  0  0  0  0
  1  2  2  0  0  0  0
  1  3  1  0  0  0  0
  2  8  1  0  0  0  0
  3  9  2  0  0  0  0
  4  5  2  0  0  0  0
  4 10  1  0  0  0  0
  5 11  1  0  0  0  0
  6  8  2  0  0  0  0
  6  9  1  0  0  0  0
  7 10  2  0  0  0  0
  7 12  1  0  0  0  0
  8 23  1  0  0  0  0
  9 26  1  0  0  0  0
 10 22  1  0  0  0  0
 11 12  2  0  0  0  0
 11 27  1  0  0  0  0
 12 32  1  0  0  0  0
 13 15  1  0  0  0  0
 13 33  1  0  0  0  0
 14 16  1  0  0  0  0
 14 33  1  0  0  0  0
 15 17  1  0  0  0  0
 15 22  1  0  0  0  0
 16 17  1  0  0  0  0
 16 28  1  0  0  0  0
 17 31  1  0  0  0  0
 18 24  1  0  0  0  0
 19 26  1  0  0  0  0
 20 26  1  0  0  0  0
 21 26  1  0  0  0  0
 23 28  1  0  0  0  0
 24 25  1  0  0  0  0
 25 32  1  0  0  0  0
 29 33  2  0  0  0  0
 30 33  2  0  0  0  0
  1 34  1  0  0  0  0
  2 35  1  0  0  0  0
  3 36  1  0  0  0  0
  4 37  1  0  0  0  0
  5 38  1  0  0  0  0
  6 39  1  0  0  0  0
  7 40  1  0  0  0  0
 13 41  1  0  0  0  0
 13 42  1  0  0  0  0
 14 43  1  0  0  0  0
 14 44  1  0  0  0  0
 15 45  1  0  0  0  0
 16 46  1  0  0  0  0
 17 47  1  0  0  0  0
 18 48  1  0  0  0  0
 18 49  1  0  0  0  0
 18 50  1  0  0  0  0
 19 51  1  0  0  0  0
 19 52  1  0  0  0  0
 19 53  1  0  0  0  0
 20 54  1  0  0  0  0
 20 55  1  0  0  0  0
 20 56  1  0  0  0  0
 21 57  1  0  0  0  0
 21 58  1  0  0  0  0
 21 59  1  0  0  0  0
 22 60  1  0  0  0  0
 22 61  1  0  0  0  0
 23 62  1  0  0  0  0
 23 63  1  0  0  0  0
 24 64  1  0  0  0  0
 24 65  1  0  0  0  0
 25 66  1  0  0  0  0
 25 67  1  0  0  0  0
 27 68  1  0  0  0  0
 27 69  1  0  0  0  0
 28 70  1  0  0  0  0
 31 71  1  0  0  0  0
M  END
> <OMEGA_C>
ESgCQUDSA0HiiJHB7OfiQLjX90CTIYvB5pT7QH01DEFpwZvBUObIQOYwKz9ywarB00vjQBlo1b4U
gq3BDLCvQDGvBEFvM5nBpMibQOmQUr9xKaDBuHm4QE/m+EDZ7Y7BOQLRQGbcDEFbuJ/ByxOlQExF
8D4LE6TBjiDaQG5f2r8Tl6nBUm+2QFJX9b/P2KLByVyzQBWc6T//RY/B4uywQEtNikCfe4TBATej
QM6+JkB/NZnBIGifQEcpnECMKI/B0ZmGQKLAc0CItpXBQzr1QAY8YsBhj4/BR4LtQKcaIEFWl7DB
aUWjQOM5J0H3BarB89+1QM1UA0EWIrLB0tSJQNR00z9ZsaDB9nuUQJoU50ArIIjBlMnIQMl/hsBM
vo7BCCelQCANV8C9ApTBP1jGQBfDFUEd86rBBcn0QKLnMMBLVazBBVaBQENbwEA2GI3BN8r2QGYn
WUBBw43Bxd7aQBknD0A/6XnBkJhrQLudjkD0AJ/Bh1CtQMjuTMB9Yp/B4ujSQM7TOkB7KYfBWWgS
Qel0A0GBmo7BPMDpQGnm6kAHToPBd74KQcMzEkFOoKDBZg7QQH4C1D99wq3BFan+QJEBhr4xo7LB
vC6PQAfDBEGuIpzBaDiAQFkLer8RGZvByteXQHnQuj+AoYrBm/jGQJykeD8/35HBi13DQNpSo0BU
WoDBHBaWQJEfgEBZx37BzQm/QMG4P0Bomp3B7He6QJmmp0Bm/5PBg6VYQGYHW0BovZDBS6YGQQag
hcDosYvBM6P9QAFTWcBHCJjBIGb0QLalI8BEiYvBWNrjQGoYJkFxgbjBAIP5QK54LUFdt6vBV3QD
QdARFEGOi7HBVcibQHKDLUHOBrLBR0CGQK88IEGCeabBvuauQIdQNEGg6KTBz0CuQOSaCUGYIbrB
HsDOQG7o7UDN0LLBnOuYQAms+EDeja7B1o1/QA1CDUCq3KfBG8paQJ80pD/abZzBEzShQN6Y3kD2
MoDBgBd3QKGq/0CSPIfB+yXKQCjWpcCbvJLB6ejAQIP/isCZPYbBFTSGQBVdd8BD45LBHCKkQOaS
F8DANpDB+wLqQMW3ZsA68ajBtxL1QOjXN8AjSbTBCf1oQMcGyUAeGJTBv8JIQC0NpkCD45zBMpUC
QdOhA0H5xpHB9ATkQJbH90BrPIvBH/v7QJzZC0FDApzBW/rHQCR9Lj9sw6rBtdHiQNbryb6TeK3B
+TKwQAxyBEFIMZnBNimbQK8EU795OKDBaW25QDSu+EDy7I7BxjLRQEOQDEE605/BKSWkQOYS8T79
G6TBJAzaQKPP17//jKnBtju2QC539L9d36LB5JSyQNQ/6D/MR4/BYdOwQNfiiUCkfITBj4CiQD5W
JkBsNJnBV3qfQBoAnEC2JY/BukiGQHv1c0BotZXB4MP0QArDYcBwp4/BJPa2QHycAkFsP7LBVXns
QCxlIEHforDBeqGhQF0dJkFoJKrB+9SIQEIG0z/7p6DBEqmVQMz25kAKCIjB/E7IQKAmhsCat47B
FaWkQAFIV8AhHZTB6ADGQMNOFUFVDKvB/Tb1QGjxLsBZPKzBwuaBQOOKwEC1BY3BIGL2QId0V0Am
yo3Bz0DaQNLVDUAA83nBUHFrQL7ojkDz/57B7WitQKbHTMCgdJ/Btm3SQK+aOUBGLofBIecSQXpG
A0F28Y7BAjHrQIk060D2Y4PBNdgKQWKpEUGs/6DBzcvOQBjg1T/tx63B0Dn+QDTNa75xkbLB7ZGP
QCB4BEE/CpzBfQp/QO/ZfL+ZM5vBpQaXQKgjuj/hn4rB9frFQNnudD9l5ZHBr3PDQMW3okBhVoDB
VuSVQKu8f0Ayz37BIGK+QAjCPkDzn53BpaS6QG85p0BA/ZPBmb5XQLTLW0CkvJDBTmoGQaIUhcC6
r4vBXif9QLpKWsA8JpjBrfnzQM+CIsCVy4vBnvSuQHPCCEEpP7rBZbvQQMxl7UBH7LLB14GaQH0q
9kBBsK7B+4LiQF0/JkGOjbjBo2f3QKzyLUFYu6vBFGEDQXfXFEFHlLHBysuZQAhILEH0JbLBFhmF
QDeVHkHVn6bBqjWsQDJlM0FBAqXBefh8QNYqDUAhyqfBwiVZQMJGoz8hV5zB6byiQGob3kDDKoDB
kvp5QPa7/0CRAYfBm6TJQKDRpcBzi5LB63bAQKrticDMMIbBD9uFQIpzeMAWHZPB+fWiQFriF8CP
T5DBqLLqQE7/ZMC+2qjBvcT1QDr0NcC3L7TBQiJqQCh8yUBWAJTBPBlJQH+GpkCS4pzBP7EDQX1X
AkE53ZHBW9zlQLWe9UBVYYvBd6H+QAXuCkGqC5zBpajAQA+ALD/KSavBRNHcQLuMtr6FT67BCX+y
QORpBEEMRpnBanaaQLLwX78hlp/Bh027QBzO90C4EI/BIOrTQBMvDEG/4J/BEYifQI6K2D6d4KPB
90XYQK4s0r8m4qnBBEC3QJzG879ghaLBEGuvQGo05D9z6o7Ba7GwQL3hiUCXm4TBZO+eQNPXIkDd
5ZjBrdieQOSCm0AsRY/BuzGEQJr2ckDhgpXBehlbQK7dhsDCcJLB85vwQLHkHkFr4bDBiKynQGmg
J0GY26nBmEq2QN1yA0H+KLLBx/WDQGSdyT9F8Z/BKAmXQAHu5kAMNIjBpoGcQAzVjcCnBY/B3pq4
QJbeUcC495LB3BHJQKtpFUGcB6vBqib1QLU2KcA9kqzB81WCQP31wEDcMI3BkYL0QEFjUkBLKY7B
QDzZQLVXDUBW6XnBAEJnQAH6jUAa3J7BHpCzQBQyS8Cna57BXefQQMuKN0BoPYfBOf4TQcCJAUFv
Bo/Br7bsQKhj6ECelYPB3k4MQY2cEEGZ+6DB1WbEQDqw1D9Yp67BdPD1QCB4JL6ECLTBfNuRQDAF
BUEQGZzBL6uAQBtUir+8E5rBcBKUQP3Nuj8kBIrBbuHBQAj0Zj/7dpHBcUvEQJ2VokCpsoDBt/uV
QPb6gEDMpn7BBKe6QAqtOED4lZ3B7NS5QNCfpUDLUpTBepJTQC9yXUAXWpDBs68zQNChocAti4/B
ylZDQBd2UcAg/47BplhXQJNChcABOJvBiMnmQLwpJUFhurjB8ET+QMPuK0F2DqzBhWQEQWFMEkHK
/7HBMwOgQDkqLkHizLHB6WWKQBA/IUEyKKbBx+y0QNZiNEEqyKTBCYyuQFL5CUGwGbrBnfDNQL4L
7UDpAbPByAyZQK8r+kBmb67BGWpuQCwBCEBi3abB6ZBSQNl+lj8kLJvBDtGjQD/G3UBvVIDBqO59
QPAlAEFCMofBDTmeQM2Aj8ATPobB+zmoQFQIrMD0dpLBGYyuQP7EFcDeIo/Bm03aQL/OXsBRAZHB
GVLtQJY0X8Bqv6jBp0H0QOM2M8BFeLTBeb1rQA4vykBXMJTBArpGQKRVpkAQ05zBJpgDQUF3AkGN
55HBArDlQLrS9UAEbIvBY2v+QM0FC0EdF5zBQfvAQDcKLj9cVKvBwA/dQBqQtL4uWq7B3UyyQA9v
BEGRU5nBr72aQJeaXb8hm5/BCyG7QNDo90DyG4/BtrbTQFQ4DEG97p/BedqfQO6F3D4p6qPBIG7Y
QDak0b8I66nBE2q3QMjX8r9+iqLBraCvQBAO5D9t6o7Btp6wQITQiUCTjoTBEjufQLkCI0Bv5JjB
w+6eQLx2m0DcO4/BWmKEQALkckBMfpXBSVxdQLochcA9hZHBL7S2QNAZA0EON7LBoW/wQF3cHkG7
87DBtC2nQK1VJ0G1FarBSlGEQMaTyj8C/Z/BPO2WQDf25kDhO4jBHS2eQPpmjcAO2I7BFRa6QMWN
UcBAB5PBa/LIQKlDFUHiIKvBmh31QH8rKcBypazB0VaCQBvhwEB/MI3B67L0QGFWUkB0A47B6/bY
QEgEDUCnv3nBhpRnQMz4jUCB1Z7B6XKzQDSgSsCCbZ7BiebQQJ1jN0A5KYfBy+QTQRe0AUGPD4/B
1I7sQB+h6ECMn4PBSzIMQdi5EEF4BqHBm8jEQHZs1T8msq7Bfi/2QKOnIr4zFLTBBKqRQL0ABUGY
J5zBcPuAQHLPiL9zFJrBpDqUQAwBuj9jDorBfDbCQCRuZz/QeZHBSyfEQPqDokAKoIDBYdSVQKXl
gEC5mn7B1vy6QHkNOUDZjJ3Bzfy5QCqXpUAVQ5TBpPpTQHIoXUADWJDBNyU2QIGrn8BPd47B+bBI
QHcHTsBTwo3BO4hVQG27gsDhPprBhf+uQHh3CUGcMLrBdKPOQAOT7EBe+7LB64OZQAVI+UB+ga7B
nKzmQE79JEEB1bjBdr39QJcFLEEDJqzB028EQRxeEkGp/7HBRZ+fQJe3LUGzELLBPuuJQBbfIEF+
aabBygq0QG47NEGsCKXBhnhvQPm0CECb6abBJgtTQBN/lz8oQpvBlcGjQDfu3UA9W4DBP4t9QLUg
AEFbPYfB0PGhQI7Wj8CiHYbBcF2oQD+Oq8AxmpLBMeewQLdKFcDAGY/B+fjbQPE6X8C7XpHB70Ht
QOMaX8BX0KjB5wf0QLMlM8A3i7TBv7prQKz5yUBiMpTBw+dGQM1EpkD+yZzBi1ICQfquAkFSOpLB
WIzjQGSh9kD/kovB9GH7QPduCkFNi5zBgHrOQAwkSz/wxKrBc5foQKpppL6v/6zBEpyvQH0pA0Hj
nJnBIxSaQLKbKb/OPKLBVey4QMZS90DkOo/BWpTQQPP2CkH/WqDBTHunQOZaHj9rN6XBCYTbQDjB
zb+/wqnBF4yzQBbQ4r+joqTBG+a0QNXV5z8t1I/BwrOxQGPRiEBIX4TB5iOlQAMaKkAdgJnBBQmg
QK9Ym0B59Y7Bx12HQJ0ec0DgkJXBifm6QMvznMDVBIjBrb3rQEs7HkFLWLHBtMOgQKXwI0Gt9arB
h6e2QPUxAEEwsrLBrvGMQIzo5T8kzKHBS16VQDpQ5kD/KIjBNOSgQNS4jsCrvpHBKwm2QDEcTsCY
VpbBUF7FQGk4E0FzrKvBCnv2QFqOLMDYWqvBceCBQIFCv0ByzozBzEv4QLDMV0DRhY3BXAzbQFgh
CkA+RXrBoktpQP7HjkAvkJ7B2JamQEAMP8Bw7KDBuNrTQOUIOED1OYfB8agSQZdmAkG6ao/Btcjq
QJvH6kCGqYPBKIcKQcMGEEFxm6HBX0DYQGzV4z/VTK3B4EUDQWZOQr6ULbHBn/uOQJj1AkHTdZzB
siF4QE53S78dFp7Bkz+ZQES1tD9Ra4vBC9jIQJ2Cej92sZLB2iHEQKedoUDoJ4DBm+uWQN2QfEBG
nH7BTCvBQJbrRkB9a53BLgu7QLslp0ASxZPBzndcQJEhV0CAfpDBmF+sQLC8ucDqgYTB7O/bQN40
pMB+hIrBkGG7QKojg8BsCYLBSsjhQDu7I0EqU7nBJGn2QFYELEF7kazBzRoDQTS+EkG7J7LBeO2Y
QCHBKUH9B7PBDEyEQDN1HEH6YafB+h2rQAZ2MUG79KXBzaSuQA4ABkEzwrrB8JfQQM+x6EArPbPB
uESaQNdr8UB/FK/BZJSFQFBvGkDQ2KjBOvFdQM1ttz9dNp7BoZqiQOWT3kAUPYDBORl5QLkL/0BF
UYfBJXegQCpVqMDox5fBkdF/QPZDh8DXTI/Br3yuQJefFsD3QpHBFOjYQNKHV8DPkpbBwWHoQFiu
YcDBnqjBQIT8QK4EM8BsK7PBTRhoQL1ex0DiupPBJOREQMYapUAAIpzB

> <OMEGA_E>
0BCWPqi8lT4Iyp8+tBmhPkDSsz4=

> <OMEGA_NBR>
    133625

$$$$
50216998
  -OEChem-04172616093D

 70 73  0     1  0  0  0  0  0999 V2000
    8.1356    8.2670  -18.1934 C   0  0  0  0  0  0  0  0  0  0  0  0
    7.1078    7.7458  -17.3886 C   0  0  0  0  0  0  0  0  0  0  0  0
    7.8403    8.8093  -19.4587 C   0  0  0  0  0  0  0  0  0  0  0  0
    5.4785    8.3081  -19.1153 C   0  0  0  0  0  0  0  0  0  0  0  0
    4.9111   -0.8864  -19.9804 C   0  0  0  0  0  0  0  0  0  0  0  0
    6.2443    0.6317  -21.3478 C   0  0  0  0  0  0  0  0  0  0  0  0
    5.7755    7.7705  -17.8465 C   0  0  0  0  0  0  0  0  0  0  0  0
    6.5029    8.8426  -19.9357 C   0  0  0  0  0  0  0  0  0  0  0  0
    5.1557    0.4108  -20.4797 C   0  0  0  0  0  0  0  0  0  0  0  0
    6.8593   -1.7281  -21.1927 C   0  0  0  0  0  0  0  0  0  0  0  0
    5.7546   -1.9593  -20.3354 C   0  0  0  0  0  0  0  0  0  0  0  0
    7.0954   -0.4314  -21.7010 C   0  0  0  0  0  0  0  0  0  0  0  0
    7.4120   -3.2526  -18.2726 C   0  0  0  0  0  0  0  0  0  0  0  0
    5.6264   -4.0499  -17.5897 C   0  0  0  0  0  0  0  0  0  0  0  0
    5.6369    1.7979  -17.9054 C   0  0  0  0  0  0  0  0  0  0  0  0
    5.5783    4.3034  -16.5819 C   0  0  0  0  0  0  0  0  0  0  0  0
    5.1019    2.5587  -19.1457 C   0  0  2  0  0  0  0  0  0  0  0  0
    5.0067    4.8538  -17.9093 C   0  0  1  0  0  0  0  0  0  0  0  0
    6.2251   -3.9829  -19.0436 C   0  0  0  0  0  0  0  0  0  0  0  0
    4.2194    3.7730  -18.7101 C   0  0  1  0  0  0  0  0  0  0  0  0
    7.3531   10.0686  -22.0476 C   0  0  0  0  0  0  0  0  0  0  0  0
    5.0528   10.5118  -21.1686 C   0  0  0  0  0  0  0  0  0  0  0  0
    5.6027    8.2806  -22.2264 C   0  0  0  0  0  0  0  0  0  0  0  0
    4.2904    1.5793  -20.0396 C   0  0  0  0  0  0  0  0  0  0  0  0
    4.6649    7.1862  -16.9961 C   0  0  0  0  0  0  0  0  0  0  0  0
    6.1420    9.4184  -21.3243 C   0  0  0  0  0  0  0  0  0  0  0  0
    7.7017   -2.7734  -21.5576 N   0  0  0  0  0  0  0  0  0  0  0  0
    4.0681    5.9830  -17.6364 N   0  0  0  0  0  0  0  0  0  0  0  0
    7.7391    3.3767  -17.7802 O   0  0  0  0  0  0  0  0  0  0  0  0
    6.9170    2.2356  -15.6499 O   0  0  0  0  0  0  0  0  0  0  0  0
    6.7150   -3.3543  -17.0755 O   0  0  0  0  0  0  0  0  0  0  0  0
    3.6832    4.4099  -19.8725 O   0  0  0  0  0  0  0  0  0  0  0  0
    5.3765   -3.2361  -19.9669 O   0  0  0  0  0  0  0  0  0  0  0  0
    8.1351   -0.2007  -22.5369 F   0  0  0  0  0  0  0  0  0  0  0  0
    6.6386    2.9050  -16.9264 S   0  0  0  0  0  0  0  0  0  0  0  0
    9.1560    8.2513  -17.8398 H   0  0  0  0  0  0  0  0  0  0  0  0
    7.3391    7.3268  -16.4203 H   0  0  0  0  0  0  0  0  0  0  0  0
    8.6374    9.2034  -20.0717 H   0  0  0  0  0  0  0  0  0  0  0  0
    4.4573    8.3126  -19.4667 H   0  0  0  0  0  0  0  0  0  0  0  0
    4.0725   -1.0585  -19.3219 H   0  0  0  0  0  0  0  0  0  0  0  0
    6.4255    1.6203  -21.7431 H   0  0  0  0  0  0  0  0  0  0  0  0
    8.3615   -3.8078  -18.2853 H   0  0  0  0  0  0  0  0  0  0  0  0
    7.5880   -2.2176  -18.6007 H   0  0  0  0  0  0  0  0  0  0  0  0
    4.6686   -3.5203  -17.4791 H   0  0  0  0  0  0  0  0  0  0  0  0
    5.5273   -5.0726  -17.1970 H   0  0  0  0  0  0  0  0  0  0  0  0
    4.7911    1.4362  -17.3023 H   0  0  0  0  0  0  0  0  0  0  0  0
    6.2461    0.9425  -18.2328 H   0  0  0  0  0  0  0  0  0  0  0  0
    6.1599    5.0899  -16.0787 H   0  0  0  0  0  0  0  0  0  0  0  0
    4.7512    3.9852  -15.9301 H   0  0  0  0  0  0  0  0  0  0  0  0
    5.9576    2.9370  -19.7244 H   0  0  0  0  0  0  0  0  0  0  0  0
    5.8402    5.2128  -18.5310 H   0  0  0  0  0  0  0  0  0  0  0  0
    6.5258   -4.9739  -19.4145 H   0  0  0  0  0  0  0  0  0  0  0  0
    3.4036    3.3970  -18.0752 H   0  0  0  0  0  0  0  0  0  0  0  0
    7.0316   10.4571  -23.0252 H   0  0  0  0  0  0  0  0  0  0  0  0
    7.7451   10.8946  -21.4359 H   0  0  0  0  0  0  0  0  0  0  0  0
    8.1407    9.3148  -22.1938 H   0  0  0  0  0  0  0  0  0  0  0  0
    4.7980   10.9197  -22.1579 H   0  0  0  0  0  0  0  0  0  0  0  0
    4.1545   10.0717  -20.7111 H   0  0  0  0  0  0  0  0  0  0  0  0
    5.4334   11.3194  -20.5261 H   0  0  0  0  0  0  0  0  0  0  0  0
    5.3449    8.6871  -23.2155 H   0  0  0  0  0  0  0  0  0  0  0  0
    6.3744    7.5049  -22.3388 H   0  0  0  0  0  0  0  0  0  0  0  0
    4.7056    7.8414  -21.7655 H   0  0  0  0  0  0  0  0  0  0  0  0
    3.9299    2.1167  -20.9291 H   0  0  0  0  0  0  0  0  0  0  0  0
    3.4312    1.1973  -19.4687 H   0  0  0  0  0  0  0  0  0  0  0  0
    5.0756    6.9035  -16.0156 H   0  0  0  0  0  0  0  0  0  0  0  0
    3.8808    7.9455  -16.8601 H   0  0  0  0  0  0  0  0  0  0  0  0
    8.4202   -2.4280  -22.1613 H   0  0  0  0  0  0  0  0  0  0  0  0
    8.1166   -3.1686  -20.7380 H   0  0  0  0  0  0  0  0  0  0  0  0
    3.6688    6.2666  -18.5083 H   0  0  0  0  0  0  0  0  0  0  0  0
    3.1463    5.1484  -19.6102 H   0  0  0  0  0  0  0  0  0  0  0  0
  1  2  1  0  0  0  0
  1  3  2  0  0  0  0
  2  7  2  0  0  0  0
  3  8  1  0  0  0  0
  4  7  1  0  0  0  0
  4  8  2  0  0  0  0
  5  9  1  0  0  0  0
  5 11  2  0  0  0  0
  6  9  2  0  0  0  0
  6 12  1  0  0  0  0
  7 25  1  0  0  0  0
  8 26  1  0  0  0  0
  9 24  1  0  0  0  0
 10 11  1  0  0  0  0
 10 12  2  0  0  0  0
 10 27  1  0  0  0  0
 11 33  1  0  0  0  0
 12 34  1  0  0  0  0
 13 19  1  0  0  0  0
 13 31  1  0  0  0  0
 14 19  1  0  0  0  0
 14 31  1  0  0  0  0
 15 17  1  0  0  0  0
 15 35  1  0  0  0  0
 16 18  1  0  0  0  0
 16 35  1  0  0  0  0
 17 20  1  0  0  0  0
 17 24  1  0  0  0  0
 18 20  1  0  0  0  0
 18 28  1  0  0  0  0
 19 33  1  0  0  0  0
 20 32  1  0  0  0  0
 21 26  1  0  0  0  0
 22 26  1  0  0  0  0
 23 26  1  0  0  0  0
 25 28  1  0  0  0  0
 29 35  2  0  0  0  0
 30 35  2  0  0  0  0
  1 36  1  0  0  0  0
  2 37  1  0  0  0  0
  3 38  1  0  0  0  0
  4 39  1  0  0  0  0
  5 40  1  0  0  0  0
  6 41  1  0  0  0  0
 13 42  1  0  0  0  0
 13 43  1  0  0  0  0
 14 44  1  0  0  0  0
 14 45  1  0  0  0  0
 15 46  1  0  0  0  0
 15 47  1  0  0  0  0
 16 48  1  0  0  0  0
 16 49  1  0  0  0  0
 17 50  1  0  0  0  0
 18 51  1  0  0  0  0
 19 52  1  0  0  0  0
 20 53  1  0  0  0  0
 21 54  1  0  0  0  0
 21 55  1  0  0  0  0
 21 56  1  0  0  0  0
 22 57  1  0  0  0  0
 22 58  1  0  0  0  0
 22 59  1  0  0  0  0
 23 60  1  0  0  0  0
 23 61  1  0  0  0  0
 23 62  1  0  0  0  0
 24 63  1  0  0  0  0
 24 64  1  0  0  0  0
 25 65  1  0  0  0  0
 25 66  1  0  0  0  0
 27 67  1  0  0  0  0
 27 68  1  0  0  0  0
 28 69  1  0  0  0  0
 32 70  1  0  0  0  0
M  END
> <OMEGA_C>
gSsCQXNFBEEmjJHBV3PjQDLd90DEG4vByuP6QAfzDEFlq5vBLlCvQPftBEEq7JjBHiidQEDrYr/G
15/BKtHHQJe4IT9iyKrBlNC4QBSo+ECexY7BsxfQQFx7DUFefJ/BNfukQKJO0j581qPBf3/bQPsy
3b+8iqnBYCW4QEDJ+r/krqLBnw3jQIbi3L6sm63B8i7tQEIrUMAyLpLBYQu0QJOYgcC1t4zBlWG0
QHgh5j9SPo/BC4GyQK21iUCwp4TBHkOjQMrBI0B+KpnB6zagQABSm0BYRo/BZzTHQHPofsBZWZjB
aAWHQDd4cUBUrpXBZkzrQCsZIUF7YbDBurChQD8wKEFgWanBCEmzQFR9BEGxz7HB0EqJQH8lyj8H
UaDB2UaVQBX15UAT+IfBVIvEQMexFkEdmKrBtXT2QPN/McDpdazBLC6CQK90v0BpF43Bp6b3QBAb
WEDsPY7BTFjdQJQUD0AbZnrB9eDWQF+sVsC3mojBG7prQIgdjUDg+p7BBwysQLocT8ApvJ/BeikC
QduNTb6FS7TBlG/UQEvrOUBUaYfB5X4SQVMFBEECuI7BltnqQFp16kDfXIPB3TIKQQ5BE0HFkqDB
KaKOQJwABUG3u5vBJ1KCQJd8h79Zk5rBdp3NQGNnzz/N8a3B1cgFQdmyc8BDSJLBktDyQOnsDcBG
zpTBe2WVQARMYcBD1YvByd+wQK9SosBpk4nBalCZQG3Wtz8ma4rBIeDHQKBGcT+03JHBsR3FQDTg
okAaoYDBIQqYQB0Nf0Dd4X7BUaS+QGz4O0B7y53BkOK6QGXPpkB2P5TBSNPQQIYqn8DWUJvBEdVZ
QBJpWUDqmZDBfALhQG5QJ0GaM7jBy9f3QBxQLkGyfKvBG0ACQTkJFUHgjLHBKYmZQO22LkFxQ7HB
dfGEQNklIUFZsKXBhN6tQHEcNUGANaTBOAmrQH3+CkFTubnBPPvLQMon8EDJtbLBppSWQH7s+kDC
H67BzoN7QFx4B0C6bqfBRZhbQEpBmT/0v5vBmGuiQDfp3EADIIDBNl54QJpB/kBr4YbBKrkGQfpj
G8BTSrHByd0BQRvKSsBo56XBrc1qQMGHyED0EJTBQl1JQKK/pEDD4ZzBaDkCQSb1A0GcgJHBg2nj
QBpX90A+GIvB5jH7QPuoDEGsoZvBpY6vQA6uBEF8+ZjB226dQG+gTr8GLaDBcMHIQJXHJj8qbqvB
vda4QDlF+ECqzI7BunbQQJE9DUGSfp/BH7ClQB6k7z5If6TBlFvbQJiB27+OpanBrwq4QI5J879A
pqLBu3TjQOLj3r54BK7B5oTvQLLKTcC4ZpLBstK5QPcfh8A+DY3Bw1q0QATv5j/0u4/BP3CxQF0T
iUCAr4TBJtWjQOA1JkDwk5nBStefQMBam0C8TY/BXPHJQHAAfMC0w5jBXAaHQL1zckC26ZXBSry0
QBk8BEHo67HBT9XrQLA+IUFOQbDB0LKhQFu2J0GMbqnBpICKQKKZ0z8mJ6HB8R6VQPjj5UAMAIjB
0yHFQHt8FkGunKrBBLb1QF7sMcCWdKzBIdqBQHd7v0BiG43BEn33QDhnWEAOAY7B8ILbQNVmDEA4
rnrBOKXbQF/tX8A6vIjBclhrQAw4jkAcGp/BFYGrQDbrSMBc3J7BcmwCQRYEeb4+v7TBvJjTQCID
OUBofIfBeocSQTSmA0EzpY7BhKbqQPXo6UCYV4PBh2cKQb7yEkGGgaDBLPOOQMazBEFu1pvBJWiC
QNSTcr/K6JrBFinPQGNR0D/ew67BAHkHQXqNbMCUXZPBUl/yQCP7CMBEHpTB0iuaQHvccsAzSovB
KQ66QMs6qcDb34rB0/2YQCDStT+iIIvB9jvIQGtKdj9EcpLBwcPDQKv8oUCWe4DBzaSWQE8VfUDT
Pn/BYn6/QMMSQEC79J3BQ9u6QLIGp0C8IZTB8ejUQBEom8DR3JzBDBdaQGbUWEDG6ZDBlqSsQLjC
CkEB17nBstXNQD8I8ECPyLLB8xSYQDXq+UD0VK7BrLnhQEl4J0G7FrjB5L73QGF/LkH6SavBvrkC
QR5jFUH5YbHB7bmZQApALkH3WrHBDP6EQBVtIEF936XBcj+tQB2tNEEtOqTBtdSAQNCsDUADVKjB
iapbQC3EpD8x+JzBRyKiQGrZ3EBqJIDBM1l4QJRc/kCC8YbB6lIGQcNQHcBLZ7HBOYsBQfl3SsAJ
3qXBKwZqQMaUyECdEpTBVkpIQF9ppUAa4ZzBKQwCQSADBEGVbpHBwZ3iQOwr+EBeDovB8377QD5b
DEH/q5vBjJ+vQKSwBEEZMpnB5kucQNPqRb9e8Z/BXAvIQP7iLj/TKavBQ0K4QK0N+UAL6I7BWvvQ
QO/sDEEMrp/B6q6kQFnK/z40TKTBx7rZQLS517/xlKnB9uG2QNZ07r+AiaLBZ4ziQKJC0L7gyq3B
o0u4QMxjlMACTI7BgsntQLXhXcDLIJHBZzWzQLa+6j8DeY/B2lqwQGRCikCDjYTBRTajQO3rJ0Ag
Y5nBSTifQFtonECcO4/BTHG8QBwoTMDzCZPB9ZOGQLe4dECM4JXBTcK2QDI7A0F0JrLBJE3tQB+D
IEGQebDBop2iQEPoJkHBCarBOruJQFK31z+J86DBTyqUQHgt50BxJojBZV3GQGnGFUGt66rB0e/z
QGK9MMCfMqzBnRuBQHmLwEANLY3B4oX2QKHLWUB4v43BWyfaQFzPDkCPHHrBsprkQLtOmMCewo3B
JxBsQDhTj0DFKp/BmzyvQCTmRcCTD57BW24CQQs+Xb6lOLTBjnfSQMsAO0C6PYfBJkYSQa+zA0Ej
d47ByVrpQP5T60C7NoPBRbkKQQBgEkEJhaDBlS6PQPmqBEGhLJzBqHeBQGu7ab/fnJrBxcnOQHmy
1D9OaK7Be1qoQMaQlcDodIbBt/+oQFtmq8C7v5PBZqcAQSfSWsDhcJjBnUr8QL5ZNcDQ6YrBypyX
QKAHuz9G5YrBAvTGQG0LfD97GZLBRp7CQH8so0CHVYDBb1eVQFDOf0BtFH/B7Ry/QC4HQUAmvZ3B
RXK6QJ38p0AeAJTBT4+vQKJyGsBJtI3BDE9YQD/LW0D795DBqSuvQFN3CUFqKLrBNxTQQEwl7kBK
y7LBrvCZQA/z90Amoq7BdarjQJVxJkHyZrjBnqP4QI34LUE/kKvBsZcDQeG5FEEKZLHBviObQF4r
LUELDLLBw8CFQDehH0EJjqbBtJmtQIcSNEE14qTBXByAQMfZD0AjH6jByw1aQKRbqT8fw5zBp8Gg
QC6U3kD0N4DBaXF2QInC/0ChQ4fBumcFQTJMHcCpPLHBULMAQdL7R8AdjKXBd85oQLxQyUD1LpTB
ZyhJQFy6pkAzDJ3BNn4CQY70AkHp9JHB/dLjQD2X9kAJaIvBv9P7QAYpC0GGMJzBZf6vQOXaA0Ga
XpnBAKGaQJP0P7965aDBvx7JQH5wOz8OIqvBYze5QGy790ABEo/B+xHRQAjWC0FTB6DBYYukQO4f
CT+9saTBOqbaQD+z0b+ajqnB0q61QLoP67/jSqPBHRzkQKJTtb72k63BMKCLQIDQkMBDdZHBw0TL
QMwwgcB67Y7BvxGzQCZj5z9fn4/BunWxQIQkiUDXf4TBVPWiQNe/J0DSapnBoaGfQHiSm0BcFI/B
YPmlQFYFUMBGlpTBVGuGQJC7c0Dgq5XBXvPsQB7RHkGzCbHB5gKjQE0fJkEjT6rBhBm1QGUYAkHi
VbLBy4uJQLQO2z/FNaHB9oiVQP975kBnE4jB5vbFQGGZFEGpQqvBIvn1QEg3LcCGo6vBys6BQPHD
v0Bm3YzBOfT2QLnRVkCw943B/xHbQCRIC0D7iXrBB26wQEA9pMDsg43BTzJqQK41j0Bf0Z7Bem2r
QCSIRsDq8Z/BMJ4DQdF8Ib7TtrPBoBDTQME+OEAKY4fBEdESQe6LAkEtIY/BnP7qQMPy6UBOkYPB
JMYKQQD/EEEUK6HBo1yPQH/kA0EMN5zBkXR8QDDDZ78bIpzBlmvQQKuw2z8bMK7BouVlQND5isDY
WovB3IR6QOmJocBrUZjBofbmQOGJh8BLH5TBVkTWQJwdZcBCaYfBnYyXQPrytz94AYvBDWvGQJ25
dD+WYZLBijrEQIfdoUBwWYDB/cKWQJTVfUAzu37BHt6+QP3LQUCgrZ3ByZO6QFAop0Dg8ZPB/hic
QKANFsAeP5DBlelYQIcyWkDDqJDBff/iQA+3JEFl8rjBrDj5QLY7LEEuPazB7R8DQby8EkFiBLLB
RzqbQCVNLEHeULLBfRqGQMo4H0FIqabBtemuQFNFM0HNRaXBGiqtQD1FCEFtVbrBb+LNQDBb60D2
CrPBakSYQIde9kDAp67BY0KAQNnxEkAjS6jB4klZQN2Uqz8mKJ3Bj7KiQNo43kANLoDBu7F5QOFM
/0BdJofBSTMHQZwxGcD7KLDBaZsAQc98RMCOvKTBxXZoQA9SyEBLyZPB1VhHQE1npkDEi5zBWeMD
QbiAAkHbPpTBlL7pQI/W9ECU4YzBqsv5QGoXDEGH053BasivQCJwBUFXtpjBzC6bQJKLVb8ol5/B
wOnAQMDjHT/wNqzB5qG9QDnJ90CHKY/BUnvNQGkMDkEZE6DBet+fQMWG2j6hsKTB5CjXQJPc2b8Z
A6rBJlO3QM3H87/DK6LBUFLcQH2g477V5q7BGe99QNZaWcCPpY7BefpSQIfiZ8CfTZ7BCmOtQCGr
3j/fko/BZIOuQFJQhkDve4TBZkigQFGAI0BcmZnBrLygQMqKmkBMNo/BZMuWQB27d8BEBpnB5H2G
QOyldUAcU5bB5grIQCnPCEGb57PBlAbWQNbSLUHHeKzBkKaNQChyHUHZmarBnI+FQMn20D+zIKHB
5FCcQCBf5UAFsofB2Fq+QJ9cGEGlmarBbi7zQAgwL8BIjKzBMMCFQGzSwEAD6ozBHqHzQE7VSUCo
GY3BFgHSQHKWAUB4oHnB8mMyQFOeTsBqaJTBXaNzQKyEkUDkvZ/B2JG7QHE1RMBvHJzBNPX8QKls
cb550rXBHJ7NQFyCL0CZ/4bBYMoUQS9ZAUFqi5LBa3D0QCY/5kD+hIXBwoAIQQ0AEkFbgaPBl/mN
QJ83BkFMdprBCTCCQLgBe79bvZnBPizFQECUyj8r7q/BAAB6QPQ7hcBzXIjBgLaLQFC4HcAyOYvB
9YBSQAshNcCuZqTBvvY0QF71kMC1lKHBjnSQQBcTtj8vQIvBzKW/QCJAWj9UEpLBSq7BQAGAnUBw
1H/BRemRQDUPe0B/sn/BF2u9QAqRN0BR2p3B74O9QKtgpECUpJPBrxyeQLxDnsB8p5jBSCVUQPJS
YUDIy5HBL2a9QAb3D0HQfbvBFazqQJ28BUGrQ7TB8vS2QJlN80BclLLByvXKQGcINUEJArTBlD/P
QDLLOEFezaXBkK74QNrhKkF97qzBzbOEQPvBJEFiSbLBn+Z2QACODkH7danBP1WGQPSeKEGfDaTB
+WN3QPoxDUBAOKjBXfxRQB0GpD9X0pzBFAysQH0N2kBpWYDBqeaEQCtf/kD8qoXB4cgDQQKTG8Cp
NLLBL8cBQcouQMDiAqbBWVJzQFM/y0D02JPBFWtUQBthqkBCxJ3B

> <OMEGA_E>
uKB+Pljibz6ck6s+tD+sPkiM1D4=

> <OMEGA_NBR>
    139466

$$$$
50216852
  -OEChem-04172616093D

 82 84  0     1  0  0  0  0  0999 V2000
    8.2297    8.1426  -18.4258 C   0  0  0  0  0  0  0  0  0  0  0  0
    7.2287    7.6855  -17.5508 C   0  0  0  0  0  0  0  0  0  0  0  0
    7.8857    8.6523  -19.6931 C   0  0  0  0  0  0  0  0  0  0  0  0
    5.5336    8.2277  -19.2198 C   0  0  0  0  0  0  0  0  0  0  0  0
    4.8571   -0.7758  -19.9963 C   0  0  0  0  0  0  0  0  0  0  0  0
    6.2203    0.7171  -21.3592 C   0  0  0  0  0  0  0  0  0  0  0  0
    5.8776    7.7313  -17.9472 C   0  0  0  0  0  0  0  0  0  0  0  0
    6.5266    8.7257  -20.0989 C   0  0  0  0  0  0  0  0  0  0  0  0
    5.1148    0.5059  -20.5133 C   0  0  0  0  0  0  0  0  0  0  0  0
    6.8032   -1.6429  -21.1828 C   0  0  0  0  0  0  0  0  0  0  0  0
    5.7127   -1.8587  -20.3092 C   0  0  0  0  0  0  0  0  0  0  0  0
    7.0592   -0.3564  -21.6996 C   0  0  0  0  0  0  0  0  0  0  0  0
    5.4771    1.7601  -17.8488 C   0  0  0  0  0  0  0  0  0  0  0  0
    5.4418    4.2541  -16.4862 C   0  0  0  0  0  0  0  0  0  0  0  0
    5.0596    2.5786  -19.1003 C   0  0  2  0  0  0  0  0  0  0  0  0
    5.0001    4.8399  -17.8458 C   0  0  1  0  0  0  0  0  0  0  0  0
    4.2006    3.8122  -18.6924 C   0  0  1  0  0  0  0  0  0  0  0  0
    5.8773    8.0571  -22.4387 C   0  0  0  0  0  0  0  0  0  0  0  0
    7.2194   10.1627  -22.1227 C   0  0  0  0  0  0  0  0  0  0  0  0
    4.8272   10.1080  -21.4056 C   0  0  0  0  0  0  0  0  0  0  0  0
    9.6186   -3.9153  -19.4467 C   0  0  0  0  0  0  0  0  0  0  0  0
    4.2643    1.6752  -20.0784 C   0  0  0  0  0  0  0  0  0  0  0  0
    4.7905    7.2125  -17.0297 C   0  0  0  0  0  0  0  0  0  0  0  0
    9.4035   -3.1226  -17.1566 C   0  0  0  0  0  0  0  0  0  0  0  0
    8.1482   -3.9595  -16.8832 C   0  0  0  0  0  0  0  0  0  0  0  0
    5.8861   -4.1043  -17.6613 C   0  0  0  0  0  0  0  0  0  0  0  0
    4.9170   -3.2728  -18.4971 C   0  0  2  0  0  0  0  0  0  0  0  0
    6.1243    9.2566  -21.4952 C   0  0  0  0  0  0  0  0  0  0  0  0
    3.5408   -3.9445  -18.5870 C   0  0  0  0  0  0  0  0  0  0  0  0
    7.6307   -2.6989  -21.5402 N   0  0  0  0  0  0  0  0  0  0  0  0
    4.1233    6.0238  -17.6210 N   0  0  0  0  0  0  0  0  0  0  0  0
    7.6462    3.2106  -17.4885 O   0  0  0  0  0  0  0  0  0  0  0  0
    6.5532    2.0959  -15.4693 O   0  0  0  0  0  0  0  0  0  0  0  0
    3.7381    4.4823  -19.8683 O   0  0  0  0  0  0  0  0  0  0  0  0
    5.4914   -3.1413  -19.8310 O   0  0  0  0  0  0  0  0  0  0  0  0
    9.5104   -2.7796  -18.5602 O   0  0  0  0  0  0  0  0  0  0  0  0
    7.0461   -3.2927  -17.4964 O   0  0  0  0  0  0  0  0  0  0  0  0
    8.1154   -0.1448  -22.5190 F   0  0  0  0  0  0  0  0  0  0  0  0
    2.7079   -3.1624  -19.3204 F   0  0  0  0  0  0  0  0  0  0  0  0
    3.6497   -5.1619  -19.1824 F   0  0  0  0  0  0  0  0  0  0  0  0
    3.0221   -4.0916  -17.3398 F   0  0  0  0  0  0  0  0  0  0  0  0
    6.4413    2.7955  -16.7552 S   0  0  0  0  0  0  0  0  0  0  0  0
    9.2663    8.1027  -18.1252 H   0  0  0  0  0  0  0  0  0  0  0  0
    7.4947    7.3003  -16.5775 H   0  0  0  0  0  0  0  0  0  0  0  0
    8.6628    8.9906  -20.3625 H   0  0  0  0  0  0  0  0  0  0  0  0
    4.4989    8.2285  -19.5295 H   0  0  0  0  0  0  0  0  0  0  0  0
    4.0014   -0.9349  -19.3568 H   0  0  0  0  0  0  0  0  0  0  0  0
    6.4231    1.7048  -21.7463 H   0  0  0  0  0  0  0  0  0  0  0  0
    4.5770    1.4093  -17.3228 H   0  0  0  0  0  0  0  0  0  0  0  0
    6.0801    0.8947  -18.1608 H   0  0  0  0  0  0  0  0  0  0  0  0
    6.0303    5.0048  -15.9383 H   0  0  0  0  0  0  0  0  0  0  0  0
    4.5524    3.9846  -15.8978 H   0  0  0  0  0  0  0  0  0  0  0  0
    5.9680    2.9349  -19.6080 H   0  0  0  0  0  0  0  0  0  0  0  0
    5.8941    5.1444  -18.4097 H   0  0  0  0  0  0  0  0  0  0  0  0
    3.3459    3.4593  -18.0967 H   0  0  0  0  0  0  0  0  0  0  0  0
    5.5906    8.4262  -23.4345 H   0  0  0  0  0  0  0  0  0  0  0  0
    6.7971    7.4593  -22.5201 H   0  0  0  0  0  0  0  0  0  0  0  0
    5.0684    7.4319  -22.0326 H   0  0  0  0  0  0  0  0  0  0  0  0
    6.8851   10.5123  -23.1106 H   0  0  0  0  0  0  0  0  0  0  0  0
    7.3977   11.0289  -21.4684 H   0  0  0  0  0  0  0  0  0  0  0  0
    8.1512    9.5887  -22.2331 H   0  0  0  0  0  0  0  0  0  0  0  0
    4.5591   10.4752  -22.4072 H   0  0  0  0  0  0  0  0  0  0  0  0
    4.0085    9.4883  -21.0111 H   0  0  0  0  0  0  0  0  0  0  0  0
    4.9957   10.9633  -20.7347 H   0  0  0  0  0  0  0  0  0  0  0  0
    9.6948   -3.5638  -20.4862 H   0  0  0  0  0  0  0  0  0  0  0  0
   10.5163   -4.4968  -19.1896 H   0  0  0  0  0  0  0  0  0  0  0  0
    8.7270   -4.5506  -19.3391 H   0  0  0  0  0  0  0  0  0  0  0  0
    3.9745    2.2627  -20.9621 H   0  0  0  0  0  0  0  0  0  0  0  0
    3.3610    1.3006  -19.5748 H   0  0  0  0  0  0  0  0  0  0  0  0
    5.2369    6.9323  -16.0642 H   0  0  0  0  0  0  0  0  0  0  0  0
    4.0433    8.0042  -16.8723 H   0  0  0  0  0  0  0  0  0  0  0  0
    9.3535   -2.1971  -16.5642 H   0  0  0  0  0  0  0  0  0  0  0  0
   10.2913   -3.7003  -16.8600 H   0  0  0  0  0  0  0  0  0  0  0  0
    8.2658   -4.9648  -17.3140 H   0  0  0  0  0  0  0  0  0  0  0  0
    7.9809   -4.0424  -15.7992 H   0  0  0  0  0  0  0  0  0  0  0  0
    5.4425   -4.3427  -16.6834 H   0  0  0  0  0  0  0  0  0  0  0  0
    6.1418   -5.0371  -18.1852 H   0  0  0  0  0  0  0  0  0  0  0  0
    4.8026   -2.2807  -18.0359 H   0  0  0  0  0  0  0  0  0  0  0  0
    8.3440   -2.3694  -22.1588 H   0  0  0  0  0  0  0  0  0  0  0  0
    8.0531   -3.0838  -20.7196 H   0  0  0  0  0  0  0  0  0  0  0  0
    3.7386    6.2939  -18.5036 H   0  0  0  0  0  0  0  0  0  0  0  0
    3.2143    5.2346  -19.6193 H   0  0  0  0  0  0  0  0  0  0  0  0
  1  2  1  0  0  0  0
  1  3  2  0  0  0  0
  2  7  2  0  0  0  0
  3  8  1  0  0  0  0
  4  7  1  0  0  0  0
  4  8  2  0  0  0  0
  5  9  1  0  0  0  0
  5 11  2  0  0  0  0
  6  9  2  0  0  0  0
  6 12  1  0  0  0  0
  7 23  1  0  0  0  0
  8 28  1  0  0  0  0
  9 22  1  0  0  0  0
 10 11  1  0  0  0  0
 10 12  2  0  0  0  0
 10 30  1  0  0  0  0
 11 35  1  0  0  0  0
 12 38  1  0  0  0  0
 13 15  1  0  0  0  0
 13 42  1  0  0  0  0
 14 16  1  0  0  0  0
 14 42  1  0  0  0  0
 15 17  1  0  0  0  0
 15 22  1  0  0  0  0
 16 17  1  0  0  0  0
 16 31  1  0  0  0  0
 17 34  1  0  0  0  0
 18 28  1  0  0  0  0
 19 28  1  0  0  0  0
 20 28  1  0  0  0  0
 21 36  1  0  0  0  0
 23 31  1  0  0  0  0
 24 25  1  0  0  0  0
 24 36  1  0  0  0  0
 25 37  1  0  0  0  0
 26 27  1  0  0  0  0
 26 37  1  0  0  0  0
 27 29  1  0  0  0  0
 27 35  1  0  0  0  0
 29 39  1  0  0  0  0
 29 40  1  0  0  0  0
 29 41  1  0  0  0  0
 32 42  2  0  0  0  0
 33 42  2  0  0  0  0
  1 43  1  0  0  0  0
  2 44  1  0  0  0  0
  3 45  1  0  0  0  0
  4 46  1  0  0  0  0
  5 47  1  0  0  0  0
  6 48  1  0  0  0  0
 13 49  1  0  0  0  0
 13 50  1  0  0  0  0
 14 51  1  0  0  0  0
 14 52  1  0  0  0  0
 15 53  1  0  0  0  0
 16 54  1  0  0  0  0
 17 55  1  0  0  0  0
 18 56  1  0  0  0  0
 18 57  1  0  0  0  0
 18 58  1  0  0  0  0
 19 59  1  0  0  0  0
 19 60  1  0  0  0  0
 19 61  1  0  0  0  0
 20 62  1  0  0  0  0
 20 63  1  0  0  0  0
 20 64  1  0  0  0  0
 21 65  1  0  0  0  0
 21 66  1  0  0  0  0
 21 67  1  0  0  0  0
 22 68  1  0  0  0  0
 22 69  1  0  0  0  0
 23 70  1  0  0  0  0
 23 71  1  0  0  0  0
 24 72  1  0  0  0  0
 24 73  1  0  0  0  0
 25 74  1  0  0  0  0
 25 75  1  0  0  0  0
 26 76  1  0  0  0  0
 26 77  1  0  0  0  0
 27 78  1  0  0  0  0
 30 79  1  0  0  0  0
 30 80  1  0  0  0  0
 31 81  1  0  0  0  0
 34 82  1  0  0  0  0
M  END
> <OMEGA_C>
Aq0DQfNHAkEIaJPBclHnQKzv9UAPaIzBcFf8QP5vCkFpi53B/xKxQHmkA0EvwpnBXm2bQFybRr9y
+J/BlgzHQHuVNz+o36rBlxW8QDJn90Dck4/BmdnQQIqcC0GhyqDBO6yjQPF/AT8pG6TBwbPZQNtK
0r9ddqnBNc62QAnp7b81eaLBGuXhQMd7tr62mK3BuUSvQAlM4T9Fyo7BIyOuQLohiEC+44PB+ueh
QDkHJUBwzZjBrgCgQM/gmkAlxI7BHmuGQKv7c0ALipXBmRK8QADqAEFngrPBgQXnQJuaIkE9+7DB
iniaQHu6IUGyPqvBueUZQRWVesDXkpvBL3WIQK1t1j+foKDBxEuZQKbM5kDdPIjBrHQWQTjYR8DP
QInB5l4CQUdofcDIEIfBH1u8QGpWg8BkSo3BL1idQPF1UcAD+pPBqfrDQDUbFEE09qvByJtiQA1y
fMA+spTBDC/0QLO6LMBfUqzBJfKDQJ3CwEDX94zBja30QAx7TUBu6IvBKbTRQGMjBkBQgnfBaD1v
QKtuj0BU8p7BhLmvQO0KScDVpZ7BlyoYQbHlMcBSe5TB13nhQCa8UsCw+IvBo9gBQYxAFL7+JrTB
FE4tQPFkSsAYkJrBapRpQCgupcCFdZnBrGlBQKzugsDot4rBWx/OQBjpMkCgCobBx0IUQZKkAUF3
AJHBxtTvQHOc6UDGnoTBrpoKQZvZD0FX5qLBG/ePQOCnA0FePJzBtAuAQOZTb7/P2prB74nNQFY1
2j97+K3BpXaSQNpktD8QlYrBcpDCQPUJZT9qSZHBz/fAQGEnoEBYA3/B26yRQJQDf0BBXX7Bvfm+
QCrWO0A63ZzBeZy8QNiepEAfR5PBlyJWQKpkXUAExpDB9uWyQJnRBkHLebvBhoHZQO+y7kA+KbTB
cjCiQIHS7UDCQrDBW1LcQJAyKEF94rjB97nsQC12MEFIv6vBYWsCQSlrGUFZ3bHBFuSRQIyaJ0EL
QrPBtEWAQO3PF0HOFqjBDd2fQINpL0GV4KXBCh4bQT0VZMDG46PBqUIoQaflj8BahJnB3aELQWCe
kcBmtprBzF1+QBzQEEBfsqfBThpXQN56pj8cmZzBdJSnQMXV3UBug4DBjmKBQF4RAEFz+obBDqgV
QUidDMB1g4TBI6kkQWnSbMBb4YbB1EAEQT7fnsAag4rBjWP/QI5bgcBVyXzBnyiuQHX3isCdd4XB
e4nEQEMwocBIe5HB+K6ZQIX3EcCQSZDBK4EFQYmkF8BARbHBctkAQfhcRcCrwaXB90RvQLpnyUBu
B5TBX7ZNQBGCp0Bb9JzBLyECQd6AA0EHw5HBla/iQKMA+EBtS4vBJ8L7QC9jC0HZF5zBRcuvQF8N
BEF8ipnBpQ6bQCiPSb/8NKDBiEXKQMaNNz8hDKrBPVW4QOvM+EDJJY/Bb0PRQIHiC0ESHaDB0lyl
QIm2AT/PyKPB4S3aQOtu1b8UUKnB45W1QLvc8L/14aLB+bfkQMj2u77wxazBOTCzQEB/6z+h747B
40CwQKzwikCGPYTBpk+jQADOJ0DQ5pjBHSqfQLGInEAH/I7BpI6GQJ6GdECwhpXBh4O3QA1LAUF9
f7LBOO3tQFSwHkFUE7HBSwyjQOBUJUHa1qrBnjscQVbnnsD4FIjBegCKQJvf1j/jbaDBfSyUQILB
50A0SIjBRt0NQQ4QLcBME4jBEtAAQSysM8B7ZZLB3QnCQLZahMAhGY7BgYqfQMpmVcBcXJTBr9zG
QCwwFEEod6vB5J9oQFRagsCRW5TBNmz0QAQfL8DGGqzBmgaBQEq8wECAEY3BepX2QFQLWkDTRI3B
XM7ZQCKlEECGBHnBUT9sQFbLjkDq5J7BtWOsQMzYSsBOhJ/BvY8gQWYPY8DQcIjBUSzrQKJegsAB
WpPBeCkEQTJ7Hb5/srLBQZYtQOYEVcB5qpnBs7NwQI65qMCva5nB8ZtNQMzCiMAWKIrB5V7SQMT4
O0Bhw4bBI1sSQTE4A0Fey47BBljpQK/e60CsYIPB9eMKQfobEUGuAaHBA16PQJ3xA0Fph5zB15F9
QJztcb+UZpvB0DnSQGUn2z+YwKzB0IyXQHJYvD8gWorB0fPGQOHnfD89gJHBOITCQKwRpEAPGoDB
KTaVQDrggEBgZn7BskW/QBe6QEDmPp3BW2u6QHPgp0AEx5PBojRYQIb5W0AymZDB0hOwQI0kB0E7
lrrBZujQQCdI6kDM9rLBqaaaQLBU9EAq8K7BS3/kQNY+JEHyFbnBkhn5QN9gLEFSTazBHu4DQR3h
EkFnz7HBULybQIIzK0F57rLBcyCGQNIzHkFVT6fBm+GtQLC/MkFP1KXBeWcrQXOzsMBwZojBrsYT
QZ+tpsD1nIDBADcSQbjlp8CB9Y7BvA+AQN87D0BslqfBi/9aQLIspz+ENpzBv7igQOHo30AuTIDB
D6F2QL9AAEGfjYfB8vISQa6E1L949YbBL8cDQYXCQMARTIHBrPnpQDMU/7/UhJLBTLcLQW/SLMBH
QJnBYRDFQKy8bcBAAYbB2ey3QIr/pcAsjI3BBnGbQJ95FsDpjJDBnEwGQWACGsALorDBeQ0AQb1G
SsCreaXB4DdoQCvmyEDuGJTBjhxJQHo6pkCF25zByLgBQVOTBEHRs5HB91jiQOQh+UCEO4vBflj6
QPK0DEG09JvB4LeuQNynBEEHT5nBpFycQO8tRr9lJaDByCTKQOgsMD8SyqrBxt63QNdg+UDTAI/B
fLXPQDj6DEGI45/BNxqmQDw1AT9nLqTBsKjaQHs/2L9iX6nBA8q2QK758L+Qn6LB2VPkQBdD0L7Z
Za3BaLu0QK6W6z/sZ4/BtZSxQMqLikCMeoTB0nOkQDVgKED6SpnBmPKfQOB2nEAXIo/BBXeHQH1d
dEDHuJXBY/G0QD/4AkGFSLLBmFLrQDVaIEG60bDBvMygQAm3JkE4P6rBMIsaQZtV77+Zm4fB0iuL
QLG52D/M5aDBB0KUQHg850AkIYjBd14SQZpWhMCdM43BF7L6QNL/csDZq5LBZuixQF4iicA/eI3B
OlWYQNtgVcBqx5TB3qLEQNCiFUGYJKvBjxVYQFyWfMDm75bBQwr1QP/ZMMCe+qvBOHeBQEJCwEDQ
CY3Bdtr3QEnSWkCxsY3BxLPbQPK1D0Dm+nnBAaRsQJL7jkC9957BpFiuQLL9SsCOAp/BFz4WQd/E
TsCbbYTBqQbaQJL9bMDXlIrBeYADQQJmYL7btrPBKS8pQARsRsBkEJ3B7CZhQCkmpMCVNJzBPzsu
QCwmhcBoj43BUOHTQFDGO0CILYfB6P4RQUJ+BEEyzI7BSXjpQJWk7EAqYIPBFgIKQSTLEkEX4KDB
yi+OQPJpBEH+OJzBapCAQGArab9TIZvBAqfRQL/R1T/f2a3B8kWZQBb5uj900IrBP5/IQHj6fj+C
EJLBS9rDQGSho0BjU4DBQsyWQPgggEA6y37BODbAQB06QkAMop3BB+i6QJVTqEC+85PBv8FaQDjF
WkAwwZDBhwutQNQWCUFkS7rBiFbOQPy07UDY8LLBIUyYQL1m90B2r67B8WLhQJklJkGov7jByrv2
QG/nLUGh+6vBW6ACQTKYFEFsvrHBRP+YQGfXLEE+Q7LBEh2EQHVwH0E4rKbBfd6rQFP6M0G/KqXB
EUsdQXlnoL+Pc4DBq9ooQWoe7L8EuozBNMMMQSOsvL+REozBFtWBQMNWEECuF6jB4JlcQCvAqj+H
w5zBYEShQF4A30BFN4DBoxx2QGaK/0CpOIfBn6QRQf9NpcBjI4rBE34fQSiggcCpBpPBtp79QE2A
NcBD5JbB91/yQOXIksDkbZjBfkifQAN+j8BvLIbBO7K3QMVhp8BHu5HB7XyUQEklF8Bbx5DBdEwG
QX6+HMBRxrDB3MoAQSp4ScAmS6XBVp9oQCyyyED6BJTBREpJQAQmpkAmzZzBhHoDQYR/A0FN0pTB
DKzoQPW590Cnbo3BRaH5QJVwC0F1057BbH+vQOrbA0GkG5rB5OucQHbgN7/K4qDBDlLIQIwDTD9h
lKvBO9m8QHQj+EC3EZDBSoTNQG4dDEFQiaHBFySlQFt/Ej83v6TB5NnbQPKwx7/iS6rBFUu4QJC1
5L9foaPBBZTjQIHDib7BX67Blk+xQMfR4T8aG4/BnTCxQH/vh0Dz8oPBWFejQPGzJkC+9JjBQfGh
QO3+mkBSs47BfrmHQN91dECQWZXB9me0QBYmAUHI4rPBRt7fQFrYIkG+IbLBLN2UQFAcIkEAPqvB
CsTFQN+sfMBop0fBReWJQPXK3D+F8qDBBPWbQDwK50AnQojB0CzKQAzQpsCifGjBdxPaQJS+pMDG
lX/BEIHLQBl0gMAjOZDB09mmQMXCTMD2+ZTBkBW+QIZyFEGviKzBFjZ1QNOEeMBizJPByYf3QJLm
JsD3uqzBcwSGQGrCwECgrIzBPAv3QE49TUCHYYzB8DDVQEe2BEBBVXjBXG9uQGrzj0BCiZ7Bfkmw
QFseRMB8LaDBJuDTQOl+fsCrmV3BL5vFQDV8gcD07oTBuawCQejePL3c5rTBYuQ4QHukR8D8rpjB
fC12QAN0o8CHhJjBHPpeQBiOgMAvWInBRuLQQAVbMkCpYIbBTkkUQc1FA0GO0ZLBUfvyQHa160Cc
wIXBt5YIQZQREUFEfaTB8fCNQIuIA0EdK5zBIpKBQF0zZb80zJvBvl7OQO7K5D9brK7BDsmUQPEe
tD830IrBP2DEQHMHZz/FyZHBGIfEQAHQn0CBT3/ByzaVQE+CfkBWI37BCy/AQC7qPkDj/ZzBHhO+
QGjhpEB+YJPBuYlaQJOcXEB0XpDBJ2ipQNPxBkERurvBhp/RQEcd70DS7bTBAE6bQLtq7kAoO7DB
+EvTQG5OKEF24rnBxtLmQFTKMEFwDa3BkWr9QD+iGUGSa7PB2WOKQJHiJ0HEIbPBQuR2QDRCGEFO
qqfB05GbQJrcL0EKA6bBGTrOQK+5PsBecUDBBduiQFSvgsAED0fBBXDVQAVImMBjtD7BglqAQL+F
FUD+3KfBKExaQCxvqj819pzBYhSsQOg93kBYwIDBEA+EQLUJAEHBp4bB9FqnQIP4q8Bxa2jBywza
QBV5wcAnLWDB/Pj8QE0moMCXyH/Ba/zRQKGiwsAP+oPBmvHKQO0uocBndZPBdlDqQFWYYsAsKZLB
AL+lQGGaDcBBGZHBe24HQf6kEcBohLHB4CUCQdHYPcB7+qXB1d9wQCscyUBgnJPBKMhMQNikp0AG
TpzB

> <OMEGA_E>
MJ5RPqRMgT6QogQ+CLe+Pg==

> <OMEGA_NBR>
    144837

$$$$
50216833
  -OEChem-04172616093D

 70 72  0     1  0  0  0  0  0999 V2000
    7.8805    8.6413  -19.5065 C   0  0  0  0  0  0  0  0  0  0  0  0
    4.8371   -0.8002  -20.0454 C   0  0  0  0  0  0  0  0  0  0  0  0
    6.2175    0.7064  -21.3776 C   0  0  0  0  0  0  0  0  0  0  0  0
    5.5206    8.2756  -19.1480 C   0  0  0  0  0  0  0  0  0  0  0  0
    8.1202    8.0898  -18.2313 C   0  0  0  0  0  0  0  0  0  0  0  0
    6.5532    8.7476  -19.9869 C   0  0  0  0  0  0  0  0  0  0  0  0
    5.1016    0.4922  -20.5415 C   0  0  0  0  0  0  0  0  0  0  0  0
    6.8128   -1.6525  -21.2012 C   0  0  0  0  0  0  0  0  0  0  0  0
    5.6992   -1.8763  -20.3693 C   0  0  0  0  0  0  0  0  0  0  0  0
    7.0705   -0.3636  -21.7071 C   0  0  0  0  0  0  0  0  0  0  0  0
    5.8292    7.7460  -17.8768 C   0  0  0  0  0  0  0  0  0  0  0  0
    5.5509    1.8111  -17.9252 C   0  0  0  0  0  0  0  0  0  0  0  0
    5.5305    4.3026  -16.5710 C   0  0  0  0  0  0  0  0  0  0  0  0
    5.0473    2.6049  -19.1602 C   0  0  2  0  0  0  0  0  0  0  0  0
    4.9767    4.8724  -17.8970 C   0  0  1  0  0  0  0  0  0  0  0  0
    4.1719    3.8168  -18.7094 C   0  0  1  0  0  0  0  0  0  0  0  0
    7.4529    9.9129  -22.1091 C   0  0  0  0  0  0  0  0  0  0  0  0
    5.1568   10.4368  -21.2598 C   0  0  0  0  0  0  0  0  0  0  0  0
    5.6497    8.1760  -22.2746 C   0  0  0  0  0  0  0  0  0  0  0  0
    4.2449    1.6651  -20.1018 C   0  0  0  0  0  0  0  0  0  0  0  0
    4.7124    7.2154  -17.0027 C   0  0  0  0  0  0  0  0  0  0  0  0
    5.0996   -3.3384  -18.5490 C   0  0  0  0  0  0  0  0  0  0  0  0
    6.2168    9.3113  -21.3868 C   0  0  0  0  0  0  0  0  0  0  0  0
    3.7207   -4.0542  -18.5424 C   0  0  0  0  0  0  0  0  0  0  0  0
    6.2373   -4.1248  -17.8302 C   0  0  0  0  0  0  0  0  0  0  0  0
    7.1098    7.6545  -17.4450 N   0  0  0  0  0  0  0  0  0  0  0  0
    7.6707   -2.7059  -21.5052 N   0  0  0  0  0  0  0  0  0  0  0  0
    4.0695    6.0237  -17.6179 N   0  0  0  0  0  0  0  0  0  0  0  0
    7.6849    3.3441  -17.7540 O   0  0  0  0  0  0  0  0  0  0  0  0
    6.8145    2.1987  -15.6460 O   0  0  0  0  0  0  0  0  0  0  0  0
    3.6408    4.4767  -19.8612 O   0  0  0  0  0  0  0  0  0  0  0  0
    5.4705   -3.1665  -19.9375 O   0  0  0  0  0  0  0  0  0  0  0  0
    8.1454   -0.1469  -22.4996 F   0  0  0  0  0  0  0  0  0  0  0  0
    2.7993   -3.2498  -19.1359 F   0  0  0  0  0  0  0  0  0  0  0  0
    3.3104   -4.3099  -17.2747 F   0  0  0  0  0  0  0  0  0  0  0  0
    3.7740   -5.2185  -19.2450 F   0  0  0  0  0  0  0  0  0  0  0  0
    5.9613   -4.2425  -16.5061 F   0  0  0  0  0  0  0  0  0  0  0  0
    7.4181   -3.4567  -17.9598 F   0  0  0  0  0  0  0  0  0  0  0  0
    6.3918   -5.3644  -18.3646 F   0  0  0  0  0  0  0  0  0  0  0  0
    6.5645    2.8859  -16.9189 S   0  0  0  0  0  0  0  0  0  0  0  0
    8.7060    8.9812  -20.1142 H   0  0  0  0  0  0  0  0  0  0  0  0
    3.9754   -0.9703  -19.4170 H   0  0  0  0  0  0  0  0  0  0  0  0
    6.4179    1.6941  -21.7658 H   0  0  0  0  0  0  0  0  0  0  0  0
    4.4936    8.3198  -19.4792 H   0  0  0  0  0  0  0  0  0  0  0  0
    9.1363    8.0130  -17.8735 H   0  0  0  0  0  0  0  0  0  0  0  0
    4.6907    1.4581  -17.3374 H   0  0  0  0  0  0  0  0  0  0  0  0
    6.1461    0.9482  -18.2586 H   0  0  0  0  0  0  0  0  0  0  0  0
    6.1250    5.0742  -16.0600 H   0  0  0  0  0  0  0  0  0  0  0  0
    4.6941    3.9968  -15.9254 H   0  0  0  0  0  0  0  0  0  0  0  0
    5.9193    2.9897  -19.7093 H   0  0  0  0  0  0  0  0  0  0  0  0
    5.8217    5.2157  -18.5119 H   0  0  0  0  0  0  0  0  0  0  0  0
    3.3545    3.4393  -18.0774 H   0  0  0  0  0  0  0  0  0  0  0  0
    7.1515   10.2958  -23.0953 H   0  0  0  0  0  0  0  0  0  0  0  0
    7.8649   10.7359  -21.5067 H   0  0  0  0  0  0  0  0  0  0  0  0
    8.2182    9.1332  -22.2369 H   0  0  0  0  0  0  0  0  0  0  0  0
    4.9214   10.8340  -22.2582 H   0  0  0  0  0  0  0  0  0  0  0  0
    4.2430   10.0297  -20.8024 H   0  0  0  0  0  0  0  0  0  0  0  0
    5.5542   11.2450  -20.6281 H   0  0  0  0  0  0  0  0  0  0  0  0
    5.4095    8.5745  -23.2713 H   0  0  0  0  0  0  0  0  0  0  0  0
    6.3991    7.3765  -22.3703 H   0  0  0  0  0  0  0  0  0  0  0  0
    4.7376    7.7703  -21.8125 H   0  0  0  0  0  0  0  0  0  0  0  0
    3.9232    2.2305  -20.9888 H   0  0  0  0  0  0  0  0  0  0  0  0
    3.3608    1.2869  -19.5675 H   0  0  0  0  0  0  0  0  0  0  0  0
    5.1259    6.9346  -16.0229 H   0  0  0  0  0  0  0  0  0  0  0  0
    3.9559    8.0028  -16.8695 H   0  0  0  0  0  0  0  0  0  0  0  0
    4.9895   -2.3577  -18.0631 H   0  0  0  0  0  0  0  0  0  0  0  0
    8.4032   -2.3783  -22.1020 H   0  0  0  0  0  0  0  0  0  0  0  0
    8.0656   -3.0683  -20.6610 H   0  0  0  0  0  0  0  0  0  0  0  0
    3.6589    6.3086  -18.4840 H   0  0  0  0  0  0  0  0  0  0  0  0
    3.1083    5.2140  -19.5869 H   0  0  0  0  0  0  0  0  0  0  0  0
  1  5  2  0  0  0  0
  1  6  1  0  0  0  0
  2  7  1  0  0  0  0
  2  9  2  0  0  0  0
  3  7  2  0  0  0  0
  3 10  1  0  0  0  0
  4  6  2  0  0  0  0
  4 11  1  0  0  0  0
  5 26  1  0  0  0  0
  6 23  1  0  0  0  0
  7 20  1  0  0  0  0
  8  9  1  0  0  0  0
  8 10  2  0  0  0  0
  8 27  1  0  0  0  0
  9 32  1  0  0  0  0
 10 33  1  0  0  0  0
 11 21  1  0  0  0  0
 11 26  2  0  0  0  0
 12 14  1  0  0  0  0
 12 40  1  0  0  0  0
 13 15  1  0  0  0  0
 13 40  1  0  0  0  0
 14 16  1  0  0  0  0
 14 20  1  0  0  0  0
 15 16  1  0  0  0  0
 15 28  1  0  0  0  0
 16 31  1  0  0  0  0
 17 23  1  0  0  0  0
 18 23  1  0  0  0  0
 19 23  1  0  0  0  0
 21 28  1  0  0  0  0
 22 24  1  0  0  0  0
 22 25  1  0  0  0  0
 22 32  1  0  0  0  0
 24 34  1  0  0  0  0
 24 35  1  0  0  0  0
 24 36  1  0  0  0  0
 25 37  1  0  0  0  0
 25 38  1  0  0  0  0
 25 39  1  0  0  0  0
 29 40  2  0  0  0  0
 30 40  2  0  0  0  0
  1 41  1  0  0  0  0
  2 42  1  0  0  0  0
  3 43  1  0  0  0  0
  4 44  1  0  0  0  0
  5 45  1  0  0  0  0
 12 46  1  0  0  0  0
 12 47  1  0  0  0  0
 13 48  1  0  0  0  0
 13 49  1  0  0  0  0
 14 50  1  0  0  0  0
 15 51  1  0  0  0  0
 16 52  1  0  0  0  0
 17 53  1  0  0  0  0
 17 54  1  0  0  0  0
 17 55  1  0  0  0  0
 18 56  1  0  0  0  0
 18 57  1  0  0  0  0
 18 58  1  0  0  0  0
 19 59  1  0  0  0  0
 19 60  1  0  0  0  0
 19 61  1  0  0  0  0
 20 62  1  0  0  0  0
 20 63  1  0  0  0  0
 21 64  1  0  0  0  0
 21 65  1  0  0  0  0
 22 66  1  0  0  0  0
 27 67  1  0  0  0  0
 27 68  1  0  0  0  0
 28 69  1  0  0  0  0
 31 70  1  0  0  0  0
M  END
> <OMEGA_C>
tyz8QKlCCkE8DZzB2MmaQN7YTL8NXaDBFPbGQNDYND9LBavBeqiwQMloBEEDL5nBRewBQaBvAUG7
2ZHB27PRQED2C0Ef5Z/BHUCjQB78+z4XVaTBygLaQCeE078cnKnB1V+2QCcp8L9U9KLBhEHiQMcm
ur4YqK3BMom6QAzf90CdA4/BKKGxQN7R5z/JZo/BuvmwQCaviUB+kYTBX4OhQES2JkAgSJnB/ECf
QKPqm0ALLY/BWICFQI5GdEDTrJXBBX7uQFGbHkGH37DBfASlQCn9JkH4E6rBMsq0QPjQAkFZMrLB
6NWHQHgg1T9t0KDBR8yWQJnk5kChBYjBlS+jQICoVcB0ZJTBHvDGQEn7FEE6GKvBih9uQK+7gcDo
VpTBGZjHQHL+g8AnpI7BlIPjQFvx9EBXj4vBDHb1QMktLcC+CqzBkTmCQB3CwEBv8YzBy+r1QBgF
VkA7CI7BjxDaQAW4DED3VXrBbgNpQMNAj0DP457B+Q2vQHKoSsD0f5/BZ1MCQVhlFr5A/7PBVCcz
QCP8T8A/FpnBrt1TQLfqicCvMorB1YhxQP/9psC79ZnBxsK+QMrCh8BmDITB1GDtQEM7XcCwrY/B
RonMQIWpq8DG6pLBdBDSQNeyOED8WYfByEsLQf2yD0Hb6aDBPm1+QINneL8WVpvBYV/NQDHZ2D9g
IK7BWMuPQNYdBUFs1ZvBQi4SQSs1AEHx/I7BiRqWQMajuj/9sorBhazEQF+7cj+qEZLBTQDEQBlg
okDteoDBDjaWQODKf0BJzn7B32q9QNlXP0CgrJ3BbEu6QBHnpkBOGJTBkbBWQHgdXECXnpDBZNnk
QMa7JEE8w7jBb637QCDGK0GoDazBrn0DQYQhEkE25bHBQnydQOhXLUHBELLBR8aHQJB5IEFja6bB
4LuxQHLrM0FsBqXBhBqtQCIxCUG0K7rBTcXMQEIM7EBf9rLBmJqXQCOm+ED/f67BcxV7QErBDkD4
6KfBSRdXQF64pD9OipzBxgekQA/o3UDcLoDBGC59QFoLAEGp9IbBU6qfQC7lFsApgZDBYHMGQcw2
GMDq0LDBrQwBQSJfRMDJSaXBwStqQBbgyUBT35PB+u1GQOHYpkAKspzBJdj7QGGdCkGnCZzBQqOa
QPiATb8za6DB8jnHQG8gNT+/7qrBRGiwQB1nBEE1OpnBAMcBQZXYAUF205HBa2PRQNYbDEHF6Z/B
4VejQJGj+z6ZTaTBag/aQKao07/slqnB1C22QE1k8L8eBaPB5oTiQDWrub5gka3BMVG6QHsB+ECT
C4/BF9ixQJGd5z9RXY/BExaxQKq2iUBdjYTBbruhQLiKJkA4QJnBXGyfQPvgm0CvLI/Ba72FQDcj
dEDQq5XBn/3tQGXpHkFe3rDBJmKkQE7/JkHcGKrByLm0QCbhAkF5N7LBQPeHQHDc1D8BxKDBZKWW
QM/d5kADD4jBK4ekQJG9VcDJZpTBFZDGQNkcFUEfHKvB2zxyQGr8gsDq5ZPBJmnKQC/LgsA86I7B
P0bjQHN99UCEjovBL3z1QFJOLcDvAqzBXUOCQOykwED6+YzBCST2QCLvVUCt9Y3BxRfaQCLNDEAY
NnrBE7ZpQFkhj0Bf6J7BpGeuQCCrSsB2oJ/BP4wCQbqbE76c17PBXegzQOjOUsBz+5fBoH5dQDbn
jMDqp4nBIbl0QMlup8D+25nBmKzNQAapq8C8hJLB1qPEQJhJg8D3I4TB3gzwQJrLXMA4/JDBiTTS
QH2wOEAkTYfByhsLQQArEEHd4aDBatB9QA56eb/rcpvBn8TNQCQq2T82/q3BbZGPQJzvBEEP6JvB
NgcSQfTFAEEt8I7B80+WQK5Juj+Aq4rBX/DEQHGHcj+uBpLBFhbEQBJvokC1d4DBX0qWQBjsf0AV
yX7BvqK9QCgNP0CDp53BYXq6QBnkpkDHFZTB+ApXQFQTXEDYoJDB3ErkQKAEJUEBwrjBTO/6QNQe
LEFQCazBClgDQciJEkHA47HBUM+cQFJXLUGQFbLBDjaHQGtfIEHzc6bB3uKwQGX2M0FuCKXBbvus
QKo5CUF3MbrBPufMQD9b7ECL+bLB756XQC6O+EBeh67Blyp7QE6jDkAm2qfBqXVXQCdlpD/ZeJzB
PuejQFXz3UCfN4DBeqN8QG3z/0BX/4bB/aigQOr0FsAkipDB8Y4GQRlGGMC3uLDBIO4AQVLhRMB7
P6XBHFhqQJWsyUAo65PBrp5HQCLBpkBCvJzBdAn9QFf7CkGb4JvBvj+bQECLbL9fZp/B8m/EQJ1K
Jz8IOqrBVHaxQGUSBUGVKZnB8DMCQRwPAkHlrZHBaqvSQCu6DEG7yJ/BeO2hQN0Dyj4TQqPByBra
QAGd178iS6nBhgS4QJF1+78IRaLB8FjgQIZXw77dPK3BigC7QCvk+EC4A4/BeqywQFL+6D8eqY7B
OuuwQK1Si0AviYTBWvifQLzbI0AAtpjBQvKeQEl4nEC9O4/B+6+EQL7Xc0B9cZXBWum2QOx3A0GJ
J7LBjJnvQIzBH0HSo7DBUpGlQFN5J0G7CKrBPrOFQBUMxz/4oJ/B2OKWQD/f50C/JojBJGy8QGBU
dcCBXJXBCCLIQJzBFUEH/arBoj3qQGziXMAd1ZDBrseWQEKQZ8Cwf43BwN/jQGH99UBxeIvBPDT1
QBxpLcDCjKzBpUiCQFvZwUBxLY3BDCT1QBB6VkBFAI7B8iraQGbKEUDhennBdSRoQLX0jUAp2Z7B
VjqwQADrUsDT35/BJJAAQSjW+b09/rPBXHYEQdAhfMAod5fBAK3wQM84gcBYJYfBuJvwQAZVB8Be
m4/BoI6aQIrnjsAdEYXBy95iQBovesAJpJLBxEWVQJDFFcDi34nBsKrRQJ4rO0DcEIfBvMsLQbR0
EEGirqDBb0SAQISCkb+9RprBKG/JQNKC0z+EQ63BrK2QQPXRBUH13pvBLWoSQX3VAEGLwI7Bu2mV
QIsxvz+YvonB3nnDQIBecT8KIJHBlTDEQHFcpEAgqIDBjUWWQO89gkCmgX7BJpK7QKbsOUC4bJ3B
t+C5QFyspkAMS5TBJp9UQMgiXkBKSZDBJ1uvQAHPCUGyJLrBh1rPQF7E7UC53bLBjsqZQAdv+UDw
iq7BFxfmQP/eJUGzirjBJyT8QP/8LEH2wavBWkUEQVZ+E0Fwn7HBHzSeQB/WLUGeB7LBy1+IQKKv
IEEKeqbB6pyxQId2NEGM6qTBECJyQCnpBEAEtKbB+edVQDzDlD8/2ZrBuL6jQCyp3kA2SoDBBHt9
QOOSAEGRHYfB6/S9QBCPncAldJbBv70FQd7nFcDwe7HBDLIBQTE9R8CeJabB/tVrQHETy0CrL5TB
EQxHQEU1pkCM4JzBtub7QLuKCkEWB5zBScCaQIupSr/5caDBJ2LHQP5INT+3C6vBp3qwQOFjBEFo
KpnBktkBQfqzAUGK1ZHB4GbRQAwZDEF23Z/Bpn2jQLRF/z5QZ6TBCx/aQNqE078dk6nBNzu2QD9c
779H/6LBXp/iQHw4u749oa3BNne6QMfa90AtAY/BGNqxQAF85z/Yc4/BYDKxQMGPiUB6mYTBCMuh
QCbHJkDoUpnBD3OfQDPTm0AwNI/BKruFQLomdEAltZXB5kG0QIf7AkE3H7LBj9HtQMDfHkEo2bDB
f3CkQO8gJ0FU9qnBiymIQNQW1j8Y6KDBO86WQKOy5kCbBIjBP1qjQIQnVcA1cpTBrm3GQDoqFUFR
CavBsqFuQKWegcA1NZTBlVrIQLmyg8DS6o7BM3bjQB409UCAjIvBZoL1QKN3LcDk7KvBM1aCQICU
wEBG94zBxSj2QEjHVUAkDo7BlzzaQHJkDEBkaHrBW29pQN8zj0CG657BRF+uQIMSSsBbmZ/B1ZYC
QXvLHr7t7bPBNu8zQDZ2UsCxcJnBO0VTQG1Hh8DqAIrBb/lyQOMsqMDJOpnBo82+QHcsi8C6fYTB
IirtQG7BWMA1UY/B05rPQJOlqcCD6ZPBGEfSQA5wOECjYofB6R0LQVoZEEGE4qDBOxV+QL9Adb/Q
dJvB4PjNQM/n2D9yJ67BXZyPQI/4BEHj0ZvByB0SQUCTAEFC+Y7BDU6WQFc5uj/PworBtuPEQDgj
cj8UIZLB6TvEQIQ+okDygoDBeXCWQHCLf0Aw3X7Bnru9QKSSP0AXsJ3Bl3i6QOngpkC3HpTByi1X
QPzfW0Dop5DBW2SsQORaCUHvFbrB70vMQCxz7EDx6rLBzCyXQEPk+EDpZK7BT/7jQJUHJUHTt7jB
+QX7QJAILEHIBqzBli0DQeZvEkF/6rHBw8GcQOqELUH67rHBOUiHQIOPIEEASabBaCyxQK8LNEE8
56TB8jR8QNF1D0BxAajBD3RXQJX6pT8lrpzBsRakQCym3UBaMIDBkQ99QMnP/0BG7YbBkg+gQA15
FsB8hpDBU5UGQXnMGMALp7DBF+0AQbSkRMD/IqXBdHRqQK66yUBn5ZPB00JHQB7CpkC8uJzBIMr5
QPIwCkHWWZzBHIyaQF0jAr+vIaHB8nPEQAJQOz+ZMq7BxxWvQHxgA0GO1pjBTKsBQdqMAUFxNZLB
5LbOQG6lC0EDxZ/BMxSiQDwOKj906abB6TDYQNj8x7/aoqnBHbK2QI7Byr+S6qHBsareQNUay76Z
z6/BANS6QJAf9kBJwo7BPd2yQFPF4j+sjJHB+VixQPmbhEA4CIXB7+ajQJjVK0Aq9ZrBnP+gQDoO
mkCjY4/B2oiHQOSRdUCglZbBpBa+QBhhAUF/z7LBEcrkQMcNJEE6Ya/B8IiXQBHBIEEKjarBID2K
QMk58z/0mKPBjqiYQLOf40B0iofBC0+uQFoRdsDpKZzBSJXCQDJZFEEF9KrBlajMQNNvlMAlo5TB
oZ97QDzmhcADApvBl0TkQDCA9EAMoYvBeGj0QGJIKMAU3KrB19+DQG4pvkBbp4zBkq73QC7eTUD6
F47BeLjWQAHg9j+oCH3Bl4JsQAqykkChVZ/Bdt20QHwTHsBwjpnBEtD/QM0Lpr6dxLbBQQT1QP3u
g8CVNJXBj/rNQNr4vcBWtZfB7+a/QP7dkcDqQYrB0N1sQEMSrsB1rp7B8zBMQKJdVMD186DBykhg
QFDdgsCJtZDBJdnRQHyhLkBnS4jBCaQJQX+vD0Fef6HBNoN9QF3CFL9XB5zB66vKQF6m0j+Uh7LB
heaNQJRqA0FPQJvB0yQSQVy+AEEgoo/B77KWQNDUrT/ib43BinnGQLzzcj8UupTB23DEQErFm0CI
b4DBk9+VQMMrdEBrM4DBal/AQC7jR0Blw57BVJe8QJ8/pkCG7JPBhgBbQHZzWUA20ZHB83W1QE9x
B0EIybrBtKrcQK1t8UAbSrPBCvGkQB707EBg8q/BvNraQOrPKUHdULfBXA3oQGK7MUEE56nBhtkB
QQe+G0HvDbDBcK6PQDnBJkFalrLBvPd7QBb7FUFdyqfBSXOaQOJPLkG7/KTBaHWFQPTXIkApoarB
6OhVQP1Qzj/LSaDBL2OnQA6I2UD46X/B11iAQOhD/ECs8YXBEvC3QEYsgcDdfKTB67MEQUHQGsAz
qLDB/QgCQeIaMsAG/qPBYOBrQIQjyEDVaJPBcM5JQCo/qUDDqJzBDqX4QAmRCkHU+pzBj/2bQGP3
A78gJ6HB6VzGQKi5Mz8LPq7B8HyuQGgUBEH7pZjBaegBQR5TAUFqE5PBJA7NQDHdC0Ge9p/B8Nuj
QAj6Jj95+KbBq7zYQFiWzb8/vanBMpK3QCSBzb/wBaLBqQPgQHgA4r4Q3q/BC8a7QGI39kAr3Y7B
66ayQPPg4T/lfpHBFUWwQJbrg0Du6oTBReikQPqQK0AWAJvBPYyhQEzfmUAdWo/BCoOIQF4vdkB4
zpbBB87jQFzMG0GJILLB6CGkQBNGKkHbRKjBsJmhQKl4BUGdsrDBnfeLQAnJ8j+XyKPBAFaaQBl7
40DMe4fBe9GmQNqKc8D2+5vBBim+QM+7FUHDoKrBXAu5QHkjlcAPtZLB1JlpQI4+dMDluJzB6cfl
QEZt80D4Q4zByp7zQFo7LcBe7arBHvKEQDxrvkDoq4zBZjv3QMYnTUBcoI3B+PDUQIE59D/jjHzB
IIdxQFZtk0AjqZ/B2Hu2QKlqH8AuupnBK48AQWz/xr5517bBGmnkQPNzkMD7YZLBcb6vQNYIv8Bn
NZTBGwepQIADiMAQIInBTPxMQLWCosCSe57BnpNOQLATQ8APCaXBiEBFQGRZVcAonpPBee3QQKCd
LUDjDIjBIZoIQV6dEEHFQKLBdW2AQEPYEr8c9pvBNSDNQHiLzj9ejrLB9NKMQNT+BEFxjJrBP5US
QSdLAEGM3pDByfWVQP71rT9ZkI3BAlrGQAXAbz8/i5TBY8nCQHTEmkDwFIDBlBWUQC6NckADXoDB
R+TBQGb2RkBqop7BL+C9QDG7pUAXp5PBPVJbQN2zWkA2RZLBih3XQA26IkGMkbnB93T4QMiUJ0Er
Hq7B+Iz2QPViDUENA7TBx12ZQKFtMUFd2K/BgCOIQBo2JkH4VaPBNmW4QHnHNUFI8qPB+/uWQA2I
DEEoT7jBcgu0QPKp7UBjT7LBDIOFQHiCAUEZx6vBuPaHQKSaIkD+2KrBH6lYQKuvzj9xp6DBocqp
QCPN2ECrCoDBpUyCQPIY/EDWn4XBuv+zQPeWhcAcl6PBrHIEQT+HIcCauLDBQ4UBQWUYOMDaDKTB
8d9uQAi0yEDlc5PB4ttOQPUzqkCHGZ3B

> <OMEGA_E>
6CBVPmAaVz6Ai5M+4LBUPrhHwz7ILMg+

> <OMEGA_NBR>
    151769

$$$$
50217004
  -OEChem-04172616093D

 68 70  0     1  0  0  0  0  0999 V2000
    8.1863    8.1934  -18.1898 C   0  0  0  0  0  0  0  0  0  0  0  0
    7.1371    7.6986  -17.3958 C   0  0  0  0  0  0  0  0  0  0  0  0
    7.9165    8.7563  -19.4518 C   0  0  0  0  0  0  0  0  0  0  0  0
    6.0844    0.6246  -21.4450 C   0  0  0  0  0  0  0  0  0  0  0  0
    6.9215   -0.4397  -21.8175 C   0  0  0  0  0  0  0  0  0  0  0  0
    5.5378    8.3262  -19.1283 C   0  0  0  0  0  0  0  0  0  0  0  0
    4.8896   -0.8542  -19.9097 C   0  0  0  0  0  0  0  0  0  0  0  0
    5.8091    7.7691  -17.8619 C   0  0  0  0  0  0  0  0  0  0  0  0
    6.5839    8.8362  -19.9372 C   0  0  0  0  0  0  0  0  0  0  0  0
    5.0580    0.4204  -20.5015 C   0  0  0  0  0  0  0  0  0  0  0  0
    6.7518   -1.7103  -21.2367 C   0  0  0  0  0  0  0  0  0  0  0  0
    5.7508   -1.9313  -20.2646 C   0  0  0  0  0  0  0  0  0  0  0  0
    5.5391    1.8011  -17.9072 C   0  0  0  0  0  0  0  0  0  0  0  0
    5.5028    4.3080  -16.5807 C   0  0  0  0  0  0  0  0  0  0  0  0
    5.0300    2.5687  -19.1540 C   0  0  2  0  0  0  0  0  0  0  0  0
    4.9654    4.8688  -17.9171 C   0  0  1  0  0  0  0  0  0  0  0  0
    4.1662    3.8023  -18.7269 C   0  0  1  0  0  0  0  0  0  0  0  0
    7.4877   10.0475  -22.0358 C   0  0  0  0  0  0  0  0  0  0  0  0
    5.1977   10.5627  -21.1680 C   0  0  0  0  0  0  0  0  0  0  0  0
    5.6779    8.3223  -22.2370 C   0  0  0  0  0  0  0  0  0  0  0  0
    4.2080    1.6001  -20.0532 C   0  0  0  0  0  0  0  0  0  0  0  0
    4.6745    7.2159  -17.0213 C   0  0  0  0  0  0  0  0  0  0  0  0
    4.9661   -3.4023  -18.4679 C   0  0  0  0  0  0  0  0  0  0  0  0
    6.2507    9.4345  -21.3237 C   0  0  0  0  0  0  0  0  0  0  0  0
    3.5623   -3.9649  -18.7548 C   0  0  0  0  0  0  0  0  0  0  0  0
    7.6046   -2.7443  -21.6063 N   0  0  0  0  0  0  0  0  0  0  0  0
    4.0532    6.0240  -17.6609 N   0  0  0  0  0  0  0  0  0  0  0  0
    7.6644    3.3450  -17.7471 O   0  0  0  0  0  0  0  0  0  0  0  0
    6.7906    2.2167  -15.6308 O   0  0  0  0  0  0  0  0  0  0  0  0
    3.6550    4.4505  -19.8938 O   0  0  0  0  0  0  0  0  0  0  0  0
    5.6954   -3.2083  -19.7048 O   0  0  0  0  0  0  0  0  0  0  0  0
    2.8589   -3.1296  -19.5622 F   0  0  0  0  0  0  0  0  0  0  0  0
    2.8941   -4.1200  -17.5840 F   0  0  0  0  0  0  0  0  0  0  0  0
    3.6767   -5.1724  -19.3684 F   0  0  0  0  0  0  0  0  0  0  0  0
    6.5431    2.8914  -16.9108 S   0  0  0  0  0  0  0  0  0  0  0  0
    9.2034    8.1415  -17.8303 H   0  0  0  0  0  0  0  0  0  0  0  0
    7.3485    7.2650  -16.4296 H   0  0  0  0  0  0  0  0  0  0  0  0
    8.7296    9.1305  -20.0560 H   0  0  0  0  0  0  0  0  0  0  0  0
    6.2277    1.6016  -21.8826 H   0  0  0  0  0  0  0  0  0  0  0  0
    7.6977   -0.2827  -22.5518 H   0  0  0  0  0  0  0  0  0  0  0  0
    4.5197    8.3649  -19.4866 H   0  0  0  0  0  0  0  0  0  0  0  0
    4.1040   -1.0107  -19.1853 H   0  0  0  0  0  0  0  0  0  0  0  0
    4.6805    1.4500  -17.3161 H   0  0  0  0  0  0  0  0  0  0  0  0
    6.1411    0.9380  -18.2276 H   0  0  0  0  0  0  0  0  0  0  0  0
    6.0898    5.0831  -16.0663 H   0  0  0  0  0  0  0  0  0  0  0  0
    4.6591    4.0040  -15.9438 H   0  0  0  0  0  0  0  0  0  0  0  0
    5.8976    2.9296  -19.7260 H   0  0  0  0  0  0  0  0  0  0  0  0
    5.8172    5.2047  -18.5268 H   0  0  0  0  0  0  0  0  0  0  0  0
    3.3365    3.4422  -18.1007 H   0  0  0  0  0  0  0  0  0  0  0  0
    7.1852   10.4541  -23.0121 H   0  0  0  0  0  0  0  0  0  0  0  0
    7.9048   10.8547  -21.4159 H   0  0  0  0  0  0  0  0  0  0  0  0
    8.2493    9.2677  -22.1836 H   0  0  0  0  0  0  0  0  0  0  0  0
    4.9636   10.9855  -22.1561 H   0  0  0  0  0  0  0  0  0  0  0  0
    4.2819   10.1500  -20.7196 H   0  0  0  0  0  0  0  0  0  0  0  0
    5.6006   11.3529  -20.5173 H   0  0  0  0  0  0  0  0  0  0  0  0
    5.4397    8.7444  -23.2244 H   0  0  0  0  0  0  0  0  0  0  0  0
    6.4234    7.5215  -22.3508 H   0  0  0  0  0  0  0  0  0  0  0  0
    4.7639    7.9107  -21.7841 H   0  0  0  0  0  0  0  0  0  0  0  0
    3.8534    2.1459  -20.9399 H   0  0  0  0  0  0  0  0  0  0  0  0
    3.3446    1.2257  -19.4835 H   0  0  0  0  0  0  0  0  0  0  0  0
    5.0676    6.9283  -16.0350 H   0  0  0  0  0  0  0  0  0  0  0  0
    3.9083    7.9954  -16.8975 H   0  0  0  0  0  0  0  0  0  0  0  0
    4.8706   -2.4374  -17.9484 H   0  0  0  0  0  0  0  0  0  0  0  0
    5.5164   -4.1094  -17.8298 H   0  0  0  0  0  0  0  0  0  0  0  0
    7.3561   -3.5757  -21.1094 H   0  0  0  0  0  0  0  0  0  0  0  0
    7.5243   -2.9072  -22.5896 H   0  0  0  0  0  0  0  0  0  0  0  0
    3.6704    6.3123  -18.5386 H   0  0  0  0  0  0  0  0  0  0  0  0
    3.1304    5.1995  -19.6364 H   0  0  0  0  0  0  0  0  0  0  0  0
  1  2  1  0  0  0  0
  1  3  2  0  0  0  0
  2  8  2  0  0  0  0
  3  9  1  0  0  0  0
  4  5  2  0  0  0  0
  4 10  1  0  0  0  0
  5 11  1  0  0  0  0
  6  8  1  0  0  0  0
  6  9  2  0  0  0  0
  7 10  2  0  0  0  0
  7 12  1  0  0  0  0
  8 22  1  0  0  0  0
  9 24  1  0  0  0  0
 10 21  1  0  0  0  0
 11 12  2  0  0  0  0
 11 26  1  0  0  0  0
 12 31  1  0  0  0  0
 13 15  1  0  0  0  0
 13 35  1  0  0  0  0
 14 16  1  0  0  0  0
 14 35  1  0  0  0  0
 15 17  1  0  0  0  0
 15 21  1  0  0  0  0
 16 17  1  0  0  0  0
 16 27  1  0  0  0  0
 17 30  1  0  0  0  0
 18 24  1  0  0  0  0
 19 24  1  0  0  0  0
 20 24  1  0  0  0  0
 22 27  1  0  0  0  0
 23 25  1  0  0  0  0
 23 31  1  0  0  0  0
 25 32  1  0  0  0  0
 25 33  1  0  0  0  0
 25 34  1  0  0  0  0
 28 35  2  0  0  0  0
 29 35  2  0  0  0  0
  1 36  1  0  0  0  0
  2 37  1  0  0  0  0
  3 38  1  0  0  0  0
  4 39  1  0  0  0  0
  5 40  1  0  0  0  0
  6 41  1  0  0  0  0
  7 42  1  0  0  0  0
 13 43  1  0  0  0  0
 13 44  1  0  0  0  0
 14 45  1  0  0  0  0
 14 46  1  0  0  0  0
 15 47  1  0  0  0  0
 16 48  1  0  0  0  0
 17 49  1  0  0  0  0
 18 50  1  0  0  0  0
 18 51  1  0  0  0  0
 18 52  1  0  0  0  0
 19 53  1  0  0  0  0
 19 54  1  0  0  0  0
 19 55  1  0  0  0  0
 20 56  1  0  0  0  0
 20 57  1  0  0  0  0
 20 58  1  0  0  0  0
 21 59  1  0  0  0  0
 21 60  1  0  0  0  0
 22 61  1  0  0  0  0
 22 62  1  0  0  0  0
 23 63  1  0  0  0  0
 23 64  1  0  0  0  0
 26 65  1  0  0  0  0
 26 66  1  0  0  0  0
 27 67  1  0  0  0  0
 30 68  1  0  0  0  0
M  END
> <OMEGA_C>
9PoCQQMYA0GwhJHB3WLkQCpb9kCWKovBkFP9QKUZDEFVnZvBy7PCQCfnHz9qj6vBlnzdQJ8i4b4q
iq7BqjWxQDU4BUGzBpnBqXecQMmrWr8WR5/B4OO5QJic+EAz5Y7BU6/SQOdgDUFvf5/B7dqhQI86
1z4eA6TBxA7YQEfs2r/c5KnBcAa4QAI197/uHaLBl0CxQJiK5j/jQY/BSBewQA3biUAzpYTBKfag
QONkJEBtO5nBLOSeQIbNm0BRVo/BPFGFQHhYc0Cz0JXBEJvvQIzCIEFhSbDBllOmQNsAKUH/V6nB
uLG1QD0oBUFP5bHBk6eGQOzOzD/bbKDBeZWVQOjo5kCTK4jBOuqeQOG+WcAxvpPB3AXIQMjzFkEK
l6rBNPxjQOnAfcDLCZbBEVnzQCmiL8Cb2azBorOBQLvEwECOSY3BdkL1QNMTVkD++Y3BcEzZQCbe
DUCaF3rB+utpQChqjkCXJp/BoUC2QPVUTcCBo53B9vg2QBBLSMB3f5zBLDk5QKrWg8AUrIzBzE5r
QKeEpcBs8prB4WDRQLEMOUBpSYfBAUETQYJDAkGEpI7BHCfrQJB66EC6b4PBoawLQZMWEkG5cqDB
tUnHQPj/zD+FD6/BkVP2QE26kL7+abTBZqGQQLfWBUF+5JvBOFSDQARdgb94e5nBRcaVQAeauT9Q
h4rBJITEQJ0icD810pHB3N/CQB6pokDBh4DBOxeVQHMggECoGX/B/bi8QBN+O0DJzp3BKia6QJCM
pkDYNpTBs4lVQJ1NXEBTzpDBj+3lQAdEJ0HiGLjBQvT8QAytLUG3U6vBUP0DQZpIFEHqd7HBx9We
QIbEL0G/P7HBuwWJQGRmIkGrwaXBPTizQFilNUGEI6TBJRKuQEDpC0Gcy7nBYozNQPyv8ECIzrLB
z3GYQMck/UDLRa7B2J12QK5VCUD/hKfB5w1WQBzknD9D3pvB1ymiQD203UC4R4DBTCF6QGTa/0AA
LofBytubQCj+G8BHlo/Bl4awQNd/g8Bfo47Bz2TrQK7YZMD536jB28bwQAoPOsCKt7TBfehqQIT+
yUAgT5TBz1hIQCRipkBwF53B6fgBQWFyBEEyZpHBtcDiQMmO+ECRAYvBufr6QHPbDEGhmpvBq3jJ
QDIwKT/9uKrB+OTjQMPG277EW63B7UivQLLdBEEZC5nBjiabQNU8U7+JbqDBKE24QC0o+UD6y47B
DmLQQEZGDUHrjp/ByjmlQPZW7z6dLKTBBzDaQIft27/Tf6nBa5e1QK+A9r/tD6PByBq0QIHC6T8U
Z4/BD3GxQCVAikAElITBOa2jQLHPJkClUJnBZsKfQAornEDqOY/BcgSHQMirc0CWyJXBy4u1QHef
A0Ha+7HBJErsQHDRIEE4abDBD9ihQE1SJ0Hr0anBCCuKQNa70z8iyqDBU4GUQPvL5kBHBYjBEAej
QPeZWcC7kJTBNHXFQM0kFkEQx6rBSz3KQEjMgMA9AI/Bzzj1QOjNMcAM9KvBNI2BQAsvwEDfGI3B
AlD3QA8GWkDz7I3B69HbQL+aD0CpNHrBPBhsQBqUjkAYDp/B4AurQNWiTcDe6J/B/yTvQFoaWcBP
1ZHBZi3NQMbQqsDurZHB9vPEQNbFesCxQ4TBLZvTQD4wO0B5TYfBtzoSQVtFBEHQeI7BCcjpQBaP
60AfMoPBQlwKQdQLE0Hbd6DBN/DQQHjL0j/rtq3B0a7/QBxjjr7YWbLBWcKOQG3OBEG39pvB6jJ+
QF/Peb/xh5vBdbeYQPVCuj9KvYrBctHHQGnpeT/pB5LBmsnDQO5Oo0CDb4DBO7CWQFa/f0CD9n7B
iWG/QAf3P0CGvZ3BFba6QO/Xp0BzE5TBJKRZQCi9WkDPzJDBqL2tQDjgCUGS+bnBlcrOQNTf7kD7
rbLBps2YQNvJ+EAEaq7B5W/iQFjEJkF+UbjBTuD3QMtBLkG8havBLggDQS79FEEzYbHBoCSaQHyZ
LUH/z7HB8w2FQBAVIEGCR6bB7BGtQLN3NEGZr6TBiCeAQF5sDUDU9afB12dbQLb6pD87hJzB412h
QKAD3kD7IIDB+9d2QN8t/0BoCofBQ1GHQKodgsADipPBJBicQIcoG8C645DByuvpQBh/Z8ACpKjB
p7f2QGD/OMDR5LPBrYVpQMsTyUDLFZTBlDVJQCL3pUBl65zBWAcCQbJuBEEtapHBdeTiQO+W+EAm
AIvBPwn7QGvQDEF9n5vB98jJQECcKT8UwarBTyfkQEQ23L5zXK3ByVqvQBvZBEEnBpnBIAubQJj2
Ub94jKDBx2u4QE8l+UDgx47BT2bQQFVCDUEhjZ/Bs1+lQGGe8T55QaTBo0HaQKjl27/VganBCHC1
QBIU9r/8JKPBZBy0QHOJ6T8+c4/B7l+xQJYZikAzlITBocqjQKTtJkC/W5nB3cqfQP0enEAtOo/B
5xaHQDavc0Bs0JXBbMm1QHqWA0HN/rHBQgzsQH8AIUGoXLDBm2+hQIwmJ0ELy6nBIWCKQN6C1D+r
4qDBjaKUQL6+5kCcAYjBNKOiQEtZWcCbqpTBBF3FQC8iFkHCwqrBxWTJQNAAgsCNOo/BSGr1QNvV
McCx2avBI6GBQOIswEAxGY3BH0f3QHj+WUBM7o3Br8vbQIY8D0AWQ3rBDk1sQDukjkCdFJ/BcKuq
QLxLTcAiAqDB6wLNQEoMq8DMrpLBewjDQCjtgcD4fYTBslLuQNdHWcAUdZHB8ZLTQOP4OkAbUofB
lksSQTVBBEExgI7B9vTpQFOs60AIL4PB4WAKQTP1EkEggqDB52rRQBbz0j+vuq3BvwQAQd5AkL5m
U7LBgdCOQPjGBEEs75vBkql9QLsIeL/Fs5vBNq2YQL75uT92zorBiNPHQF2DeT/UFJLB7qzDQLId
o0B/aIDBB5SWQMxQf0BxAn/B2oy/QE05QEDov53Bac26QFDLp0CfDpTBiMFZQLKgWkBi2JDB7Oet
QAraCUHI+rnBiTzPQM4F70C4s7LBHieZQNFw+EAoca7BfSbiQIPzJkEDRLjB4F73QJh2LkE/c6vB
xgMDQcVJFUG8VbHB56iZQIZuLUHNx7HBosKEQGnEH0HqRKbBq2esQGNSNEH4o6TBlJOAQHoADkBW
D6jBNI9bQGjzpT+oqJzBToWhQKDj3UBBH4DBBSR3QHwi/0D/AYfB0lGGQBMsgcDmopPBVL2cQDq8
GsBx7JDBl/HpQBt1Z8CCjqjBqFL3QOEyOcBtyLPBhsRpQMUdyUB1FpTBGlxJQMv/pUB28JzBd8MB
QQtwBEFAa5HBt1TiQGin+ECvAovBrpL6QJLBDEG2pJvBrkXKQGxCKT8Ok6rB1JXkQHr83L5cLK3B
qeSuQPe7BEFvFZnBrZubQGt7Ub+2SKDBPuW3QNYf+UD7z47Ba/vPQKAhDUHUmp/Br+WlQGfB8T4I
EKTB9YDaQKIH3L9kXKnBQbm1QLAU9r/++KLBw6q0QM6o6j/7aI/BK32xQFNIikBpiYTBdTakQEBS
J0DZUJnBb9GfQJs0nED/L4/B3FWHQG7Bc0DWyZXBR+LrQN6iIEGvd7DBiGKhQCsgJ0EE5qnBwDm1
QIFpA0EFCLLBGdeKQGy11D93y6DB+x+UQIjG5kDwBojBH0ejQOsTX8AmA5XBwA3FQFb2FUFY1arB
K/3MQGP+fcDkcI/B+DH1QDogMsBr6avBWGCBQM4DwEA9EY3B+Jf3QDT/WkBm343BlijcQMbSD0CG
MHrB095sQHyjjkAUEZ/BkM6pQDefTcBFTKDBqEXtQOgThsC0hpbBXsLEQD88pMC2OorBYXTaQNqZ
QsATQojBs+rTQFSrO0CTRofB0wQSQf9JBEEnfY7Bs1fpQH3X60ARLoPB5igKQSnoEkGZhKDBnOfR
QHCv0j9rkK3BxkkAQRNSkb7fGbLBWWOOQOGXBEGHBJzBMGN/QCpwdr+aUpvBdEqZQKx7uj8OxYrB
yIXIQPqgfD+qC5LBganDQAFlo0ACXoDBb76WQLVrf0DL7H7BguK/QJHDQEBYup3BTsO6QAsWqEAq
ApTBBThaQHR6WkCB15DBSwviQPyOJkF8YbjBVm/3QPwXLkEhlqvBC9cCQZTQFEFYbLHB/LGZQL9e
LUH05bHB/JmEQJ/hH0F7W6bBnY+sQBVMNEEixqTB02utQNejCUEBB7rBooPOQBl+7kA9t7LBZH+Y
QKFV+EBjdq7BNx+BQC6sDUBXAqjBxGRcQNyrpj/ikJzBbfagQF0x3kCAHoDBqeJ1QNEU/0BrFofB
v7aKQPmIiMBlMJTB6TmYQGInJMB2EZHBor7pQKLSZ8D0oajByH32QFXhOMBK3LPBCu9oQLrAyEDN
DZTBC69JQGfrpUCj75zBfRsCQUd2A0HuTpHBzKfiQFQI90Ct+IrByMH7QDXbC0FaipvBLQTHQI+H
LT8OWKvBjYLhQEHHzr7bFK7BAdOvQGU8BEEKI5nBKeybQHk+S78HFKDB+1a4QIYG+EDB2I7BEVDR
QD11DEEPl5/BIe6jQEoO9z6gbaTBmaDZQAJC17/8y6nBEAC3QHoN8L/fjaLBXwOzQAzp5j/GlI/B
WlqwQMIXiUDUk4TBAueiQFlRJkC8dZnBjj6fQBB3m0BKPI/BR4KGQNxRc0Al7JXBKwG3QGUIA0HL
GrLBIUDuQMfwH0FpWLDBfaijQJDDJkGk76nBdA+JQPkN1T8Z/KDB+jSUQLwj5kCxGojBDBjUQBUV
asAgJZjBP/vGQB5sFUG/06rBrrTIQNJwgcDOuYzBT1z0QJWZLsAe1azBsiOBQC6Rv0A4JI3BFHL2
QLuCV0AJ0o3BJwraQOMRDEAXU3rBg39sQFLojkCONJ/BBVCvQDtmRcCYjZ3BwJW0QPSSQMB5yYfB
/LHtQHimisBlgIfB7ZquQKQvpMCkzozBpGDSQH+nOEB+UofBlFASQaMgA0H9UI7BlEvpQEcR6kDl
IoPBTOQKQTzlEUFIW6DBbYfNQOWG1D9Viq7B1wX8QOhIgr5JfrPBh2mPQPVEBEGkIpzBv+aAQOVN
cb8X05rBknWXQK7ntj8AAIvBg7fGQFKydD+zQJLBg6rCQCPloUC9VIDBeVOVQGVifUBUJn/BhMG+
QCklP0D42p3BzXq6QJQcp0Bb/ZPBFN1XQP+VWkD0DJHBLqOvQBphCUFyGrrBkArQQEx27UCSwrLB
7fuZQOHV90CPnq7BY9jkQKL4JUFtRbjBTuH5QGJNLUEVaavByOsDQdz+E0GHQrHB/WCcQP0bLUGj
8LHBx5mGQK6lH0GSeKbB0O+uQBbWM0Eow6TBVT5+QGW6DkCJHKjBxBZZQExapj8Iu5zB78OgQOl9
3UA5LIDBko92QOq8/kBBN4fB1CXuQDLCOsAi/5fBE63eQKa1kcArg5zBMQjrQA12ZMDhManBPczy
QBZ0NsAtw7TBNcBoQJRmyEAhI5TBztpJQLFkpkB8E53B58oCQc6ZA0EGXpHB/wzkQAhP90D0AovB
IP38QKZFDEELipvBjFrDQJ/1Iz9ZKavB63beQOJQ1b45Iq7BGPewQG4UBUHo/5jB0+ybQLO0Xb+n
WJ/BQ565QGLq+EDezY7BaWvSQHMvDUF3fp/BduahQPZZ1z6wzaPB+2XYQAmW2b8wxanBz1e3QB0z
+L8QUaLBRTixQOt65z/KF4/BiLOwQJpYikAgqITB/9qgQIlfJEArF5nBPBOfQBEQnEBzVY/BhGCF
QECmc0ChvpXBqoy1QO0pBEEczrHBR2XvQDDaH0EGfbDBgxmmQLpeKEGBoqnBfXKGQEzSyz94LqDB
xmGVQOIE50CaF4jBUiqhQK5gW8AD6JPBNdDHQPJIFkEUsKrBLVJnQJTOf8BF7pTBQO7zQLiyLsBZ
r6zBRbaBQErYwEBEPo3BPHj1QCn+VUB6Eo7B1u3ZQPcQD0CQBXrB7SlqQLpSjkDXH5/BkKCzQHAi
T8CSaJ7BS5EzQHZvSMAvP5rBLUJHQNPnhsCZ/4rBvsRpQFB4pcD1aJrBXsPRQIKvOUCNRofB3gkT
QXoNA0Glb47B7czqQAvi6UAkO4PBI34LQZ1HEkESYKDB0SbIQH7hzz+fha7BHQf4QPTneb4iyLPB
iWuQQHaDBUEE5pvBjnKCQOZmhL97qpnBesuVQBkGvD+WSorBUjnEQHEucD9zn5HBNbjDQK05o0Bl
o4DBj+KVQMjZgEC38n7BtpW8QIEAO0Dstp3BsBu6QCrrpkACRpTBC5VVQBoaXUBytpDB6vStQHSR
CkFsx7nBDG7NQNul7kCBkbLBq0qYQGhz+0DfHq7BbrflQNkEJkEJXrjB9rv8QBn7LEEpq6vBeOMD
QfFUE0EAibHBBaGeQF/OLkEHnLHBP8qIQDPoIUGq/KXB1/WyQDE6NUHPjqTBR0N1QNd4CECTQafB
e0NWQBYfmz9HipvB4PmhQB7L3UB+NIDBlH95QPXX/0CEF4fBPeCfQNqLHcAJto/B0Bu1QK8qhMDK
Uo/Bhl/rQFyBZMAq66jBO1jyQLzBN8AwmLTBg81qQPwcykAtQZTBysBIQCpqpkAYHZ3BCVwCQfLA
AkEaJJHBUL3jQA6Y9EAgx4rBqkv7QBUfDEFpG5vBb6HAQNRTEz8/Qq7BiZDaQK7EDb8sGbDBno6v
QFJ1BEFdYpjB+gucQOzdHr/o9Z/BRQm5QIaL9kDnWo7BtXPQQBQuDUFO3J7BEN+gQMh3CD/FQKbB
d/nWQBw22L+GcanB92S4QCmQ2b9VCaHBZkG0QEqz5D9he5HBOYmxQGLChUBFVIXBRVOjQAcbKUBg
/5rBvfmfQGpJmkAgr4/Bj/eGQOHSc0BZvZbBQomzQNF9BUHtU7HB1evrQCbTIUE9a6/B6meiQL+q
KEHYSqjBFM6IQMr+4z8JCKPBPICVQER340BbnofBoIquQNlcfMCdpJrBiAbFQJgmF0GV0KnBCWV7
QO1QhcBNlJnBjqfzQDYzL8D606rBV/+BQPLavUB5/4zBDX/3QNtFVUDrB4/BZkHbQDlBAkAS3H3B
70BrQDwMkUCOmp/B4++6QHAyJcDFg5jB4dFoQO7VlcCGzI/Buw5jQJRnocC2QqHBCnpNQL+CQcC1
3prBZ33TQE+RM0CNvYjBGbcSQVgQAkHkX47Bsx7rQCsd5kAfJ4PBFXAKQdGPEkFX8Z/Bkg/FQBw9
vD/q9rLBT0DxQKkODb+5nbbB1deOQCPaBEHLKZvBrDyCQH1sLb+SO5rBCf6YQLkWrz93CY3B7y/I
QNirdz/TlpTB5vfDQHiunUDrzoDBnLuWQCuBdEBDZ4DBZt++QDOMREDZRJ/B3Py6QDP4pkDwWZTB
EudZQGNGWEAn6pHBG2GrQMiKDEHzILnB1hHMQEYh8kBfbrLBm7yWQAaj/EA5wq3BrrvhQOyUKEGR
IrfBLJf4QKasLkGiTqrBb38CQeDGFUEPyLDBn1qaQJK5L0ExGbDBJI+FQFl9IUHVv6TBWL6uQFs2
NUFD8qLBbySCQJ9SGEAFOarBSORUQDXMvj+QO5/Bf7+iQLJf2UBCu3/BQFp5QCXe+0DOT4bBOAq/
QO9Bk8B/7ZTBnVO4QNx6hsBv1qLBhhztQGynXcDrkqXBUQPxQJkrRsAIRLLBJCxpQAv5x0CMzpPB
+qRIQIXYp0DeCp3BKycBQXo0BEHbS5DBd+/gQLmv9kCdM4rBUqH5QCC/DUGFQ5rBRVPIQBQhDz9c
s6zBBlfhQN6cFL/Ata7BoNqtQECCBUGhEJjBrTCdQOoQO79ALqDBrJm2QOER+EC7D47BECDPQAiy
DkHoQZ7BCZulQCjP9D7bkqXBcDDZQIf05b9LV6nB93W3QHSX7r84i6HBbfe1QKw75z8bFpHB5/Cw
QHwYh0AJR4XBrXKlQEZjKED4x5rB2cCfQAHpmkBfw4/B+RiIQOAlc0By4JbBkIbrQG5ZJEEwZq7B
X+ygQEwRKkHEu6fBx7O0QKJ7B0HZ/7DBx0iMQB5D3D9gsaLBLrWSQF/M40C9qofBXv7LQEv1f8A2
kZjB1IDEQLQBGUFsL6nBHKv1QEH0ZsA9WJLBhHzzQD95N8CBBazBv8OAQPnsvUDjTI3BzOP3QNaw
WkAkvI7BHVXcQI4sCEB2CX3BEcNuQL3aj0AO85/Bvk2tQMajO8CeuprBlmoEQaggHsDo2ZXBPgYJ
QbANlMCwe5PBJg3tQCgVXcAtxofBZC/UQCayN0CecYjBS14RQXKxA0FKUo3BJrznQHME6EDBkILB
scMJQc9nFEF76p7BL7rPQIA0vz8YnbDBZyf7QEqoBr8pcLTB+mqNQMjEBUFVC5vBH/mBQJZkSr+r
4JrBWpeaQEzUsT/BrIzBY2/KQKijfD/T9ZPBXm/CQO+Rn0BjtYDBggWWQGAvdkB3d4DBhhjBQDLj
Q0CCAZ/BZti6QO4JqEC+UpTB5n1bQFt6V0CdLZLBFufhQJxRK0EHHbbBuQb3QJ4dMUE9EanBpKQC
QcmkGEHatK/B+HKZQBpeMUENha/BmgSEQKZrIkFEeqTB1hCsQMaDNkGhK6LBQB6tQODEDkFEyLjB
3+rNQKTE9kAfDbLBK9iXQMOt/0Act63BMYmFQHF8EkCUCarBru1bQJx3tT/0757BkzifQOqq2UDM
rn/B20hyQDuI+0CBfYbBbc3VQC6DjcDYT6DB/WG7QAGjmMAo25PB1PTqQBL2asB0xqfBsYPwQGcx
RMCe07PBGHZoQG0AyEB5N5TBxA1LQG2YpkDemZ3B

> <OMEGA_E>
aLRbPrBFdz6g7Xc+aOd7PhSaiz5AO1E+COmqPljStD4=

> <OMEGA_NBR>
    160689

$$$$
50220171
  -OEChem-04172616093D

 27 29  0     1  0  0  0  0  0999 V2000
    5.3651   -0.5147  -21.9833 C   0  0  0  0  0  0  0  0  0  0  0  0
    6.7591   -0.7664  -21.9702 C   0  0  0  0  0  0  0  0  0  0  0  0
    4.8339    0.5598  -21.2417 C   0  0  0  0  0  0  0  0  0  0  0  0
    7.6313    0.0461  -21.2073 C   0  0  0  0  0  0  0  0  0  0  0  0
    5.7256    1.3523  -20.4990 C   0  0  0  0  0  0  0  0  0  0  0  0
    7.1036    1.1147  -20.4592 C   0  0  0  0  0  0  0  0  0  0  0  0
    6.7614    2.9433  -19.0966 C   0  0  0  0  0  0  0  0  0  0  0  0
    4.8143    3.6894  -20.5371 C   0  0  0  0  0  0  0  0  0  0  0  0
    3.9365    4.4276  -19.5415 C   0  0  0  0  0  0  0  0  0  0  0  0
    4.3756    2.2814  -18.5902 C   0  0  0  0  0  0  0  0  0  0  0  0
    5.4099    2.5603  -19.6913 C   0  0  1  0  0  0  0  0  0  0  0  0
    7.7019    2.0566  -19.6144 N   0  0  0  0  0  0  0  0  0  0  0  0
    3.3668    3.3681  -18.6793 N   0  3  0  0  0  0  0  0  0  0  0  0
    6.9904    3.8709  -18.3299 O   0  0  0  0  0  0  0  0  0  0  0  0
    4.7084   -1.1471  -22.5623 H   0  0  0  0  0  0  0  0  0  0  0  0
    7.1600   -1.5861  -22.5479 H   0  0  0  0  0  0  0  0  0  0  0  0
    3.7741    0.7678  -21.2444 H   0  0  0  0  0  0  0  0  0  0  0  0
    8.6928   -0.1525  -21.1993 H   0  0  0  0  0  0  0  0  0  0  0  0
    4.2181    3.2884  -21.3700 H   0  0  0  0  0  0  0  0  0  0  0  0
    5.6028    4.3461  -20.9334 H   0  0  0  0  0  0  0  0  0  0  0  0
    4.5351    5.1319  -18.9452 H   0  0  0  0  0  0  0  0  0  0  0  0
    3.1368    4.9751  -20.0618 H   0  0  0  0  0  0  0  0  0  0  0  0
    3.8982    1.3043  -18.7551 H   0  0  0  0  0  0  0  0  0  0  0  0
    4.8593    2.2911  -17.6023 H   0  0  0  0  0  0  0  0  0  0  0  0
    8.6801    2.0887  -19.4089 H   0  0  0  0  0  0  0  0  0  0  0  0
    3.1763    3.7338  -17.7683 H   0  0  0  0  0  0  0  0  0  0  0  0
    2.5210    3.0177  -19.0814 H   0  0  0  0  0  0  0  0  0  0  0  0
  1  2  1  0  0  0  0
  1  3  2  0  0  0  0
  2  4  2  0  0  0  0
  3  5  1  0  0  0  0
  4  6  1  0  0  0  0
  5  6  2  0  0  0  0
  5 11  1  0  0  0  0
  6 12  1  0  0  0  0
  7 11  1  0  0  0  0
  7 12  1  0  0  0  0
  7 14  2  0  0  0  0
  8  9  1  0  0  0  0
  8 11  1  0  0  0  0
  9 13  1  0  0  0  0
 10 11  1  0  0  0  0
 10 13  1  0  0  0  0
  1 15  1  0  0  0  0
  2 16  1  0  0  0  0
  3 17  1  0  0  0  0
  4 18  1  0  0  0  0
  8 19  1  0  0  0  0
  8 20  1  0  0  0  0
  9 21  1  0  0  0  0
  9 22  1  0  0  0  0
 10 23  1  0  0  0  0
 10 24  1  0  0  0  0
 12 25  1  0  0  0  0
 13 26  1  0  0  0  0
 13 27  1  0  0  0  0
M  CHG  1  13   1
M  END
> <OMEGA_C>
zq6rQArEA7++3a/BJUrYQNozRL/4wq/BY6+aQP5RDz8Z76nBPjP0QGCvPD17qKnBzje3QNAWrT/g
/aPB71DjQKavjj95rKPBQV3YQMJePEDOxZjBig6aQOIebED6S6TBp+97QM+ujUAAVZzBTgWMQLcC
EkCxuJTBPh6tQKvcI0DYh53BN3b2QKOfA0BF6pzBOnpXQN2OV0BJb5XB9rDfQOC8d0Cao5LB/aqW
QKbTkr+Df7TB5R7lQDMFy78eYrTBRItxQE+PRD9x9KnBzBULQT0eHL4bmKnBbvqGQGV1UkDO9arB
+kmzQNwSi0CVd6fB0x+RQJE4pEDFj5fBh8FIQDc0n0CNfqDBznt5QOvxpj9iCpbBv3+bQNqhEkB6
0YzBgOEKQb2tBUBXRZvBIUlLQLj2bkCCJY7BS1chQC8hQUDBppjB

> <OMEGA_E>
AE02PA==

> <OMEGA_NBR>
       765

$$$$
50220168
  -OEChem-04172616093D

 33 35  0     1  0  0  0  0  0999 V2000
    5.1695   -0.3662  -21.8444 C   0  0  0  0  0  0  0  0  0  0  0  0
    6.5470   -0.6833  -21.9384 C   0  0  0  0  0  0  0  0  0  0  0  0
    4.7515    0.7542  -21.0982 C   0  0  0  0  0  0  0  0  0  0  0  0
    7.5162    0.1102  -21.2797 C   0  0  0  0  0  0  0  0  0  0  0  0
    5.7382    1.5283  -20.4637 C   0  0  0  0  0  0  0  0  0  0  0  0
    7.1023    1.2275  -20.5320 C   0  0  0  0  0  0  0  0  0  0  0  0
    6.9561    3.0818  -19.1720 C   0  0  0  0  0  0  0  0  0  0  0  0
    4.6599    5.6908  -18.6860 C   0  0  0  0  0  0  0  0  0  0  0  0
    4.9428    3.9078  -20.4865 C   0  0  0  0  0  0  0  0  0  0  0  0
    4.5799    2.5320  -18.4844 C   0  0  0  0  0  0  0  0  0  0  0  0
    3.9677    4.5924  -19.5241 C   0  0  1  0  0  0  0  0  0  0  0  0
    5.5450    2.7632  -19.6568 C   0  0  1  0  0  0  0  0  0  0  0  0
    6.0804    7.6079  -18.5444 C   0  0  0  0  0  0  0  0  0  0  0  0
    7.8125    2.1688  -19.7795 N   0  0  0  0  0  0  0  0  0  0  0  0
    3.4605    3.4854  -18.6737 N   0  3  0  0  0  0  0  0  0  0  0  0
    7.2937    3.9952  -18.4291 O   0  0  0  0  0  0  0  0  0  0  0  0
    4.4728    5.7130  -17.4718 O   0  0  0  0  0  0  0  0  0  0  0  0
    5.3925    6.6328  -19.3626 O   0  0  0  0  0  0  0  0  0  0  0  0
    4.4386   -0.9837  -22.3452 H   0  0  0  0  0  0  0  0  0  0  0  0
    6.8605   -1.5389  -22.5182 H   0  0  0  0  0  0  0  0  0  0  0  0
    3.7054    1.0099  -21.0165 H   0  0  0  0  0  0  0  0  0  0  0  0
    8.5644   -0.1399  -21.3506 H   0  0  0  0  0  0  0  0  0  0  0  0
    4.4123    3.5152  -21.3665 H   0  0  0  0  0  0  0  0  0  0  0  0
    5.7260    4.6079  -20.8127 H   0  0  0  0  0  0  0  0  0  0  0  0
    4.2057    1.4977  -18.4971 H   0  0  0  0  0  0  0  0  0  0  0  0
    5.0882    2.7263  -17.5284 H   0  0  0  0  0  0  0  0  0  0  0  0
    3.1409    5.0388  -20.0961 H   0  0  0  0  0  0  0  0  0  0  0  0
    6.6308    8.3071  -19.1911 H   0  0  0  0  0  0  0  0  0  0  0  0
    5.3467    8.1649  -17.9431 H   0  0  0  0  0  0  0  0  0  0  0  0
    6.7867    7.0930  -17.8765 H   0  0  0  0  0  0  0  0  0  0  0  0
    8.8083    2.1837  -19.6896 H   0  0  0  0  0  0  0  0  0  0  0  0
    2.6943    3.0290  -19.1260 H   0  0  0  0  0  0  0  0  0  0  0  0
    3.1608    3.8423  -17.7890 H   0  0  0  0  0  0  0  0  0  0  0  0
  1  2  1  0  0  0  0
  1  3  2  0  0  0  0
  2  4  2  0  0  0  0
  3  5  1  0  0  0  0
  4  6  1  0  0  0  0
  5  6  2  0  0  0  0
  5 12  1  0  0  0  0
  6 14  1  0  0  0  0
  7 12  1  0  0  0  0
  7 14  1  0  0  0  0
  7 16  2  0  0  0  0
  8 11  1  0  0  0  0
  8 17  2  0  0  0  0
  8 18  1  0  0  0  0
  9 11  1  0  0  0  0
  9 12  1  0  0  0  0
 10 12  1  0  0  0  0
 10 15  1  0  0  0  0
 11 15  1  0  0  0  0
 13 18  1  0  0  0  0
  1 19  1  0  0  0  0
  2 20  1  0  0  0  0
  3 21  1  0  0  0  0
  4 22  1  0  0  0  0
  9 23  1  0  0  0  0
  9 24  1  0  0  0  0
 10 25  1  0  0  0  0
 10 26  1  0  0  0  0
 11 27  1  0  0  0  0
 13 28  1  0  0  0  0
 13 29  1  0  0  0  0
 13 30  1  0  0  0  0
 14 31  1  0  0  0  0
 15 32  1  0  0  0  0
 15 33  1  0  0  0  0
M  CHG  1  15   1
M  END
> <OMEGA_C>
Q2ylQHCAu75Ywa7Bx4DRQMruLr/Bga/BEwyYQL4QQT8LyajBa4TwQMyk4T3hPKrBEJ+3QL2dwz+R
taPBOEbjQK8fnT+EQaTB+pfeQNw7RUAtYJnBwh2VQLwatkDnfJXBeiueQBIZekBb5KPBMo6SQKYM
IkD335PBwu59QKf0kkBQMZzB/XCxQI7XMEAaQZ3Bh5LCQLlz80DqWpTB0//5QPLNCkBSPJ7BgHld
QHIQX0DLY5XBlWXpQNiwf0DDbpPBLSGPQD7RtkBNxovB9I6sQE5A1ECL5prBuwiOQL7We78Qw7LB
L4nbQCT5xL82JbTBriRtQC1DgT/GIajB2AcJQbtJD77uzarBSzGNQEz5YECf7qrBnzu3QPNzk0Be
gKbB1JSGQLC0vz8a+pPBc9KiQEt7LkAnOozBNwVJQM09oUDCxKDBRS/UQMbpBEFTh5nBfhirQD2j
AkF9i4/BVizZQOv54kAQA4/B4O4MQbnBC0A8hJ3ByG4sQG7bQUAMApnBQUpKQKDodUDhT47BGG2u
QPN/Eb/kiK/BqmbbQJpmOr8DF7DB0KucQLxU8T5cX6nBevz2QIiYHD4CiKrBAdi4QLLKqT9g6KPB
dmPlQIHJmT99d6TBtlzZQDXrQUDmspnBskGZQAzXtkCDpJrBbGuYQAHEY0DPjqXB7RmNQE9fF0AN
GJXByEd+QMA0j0DeC57Bj9utQBwnJEDyAp7BHrCpQNgO7kD3I47BADj4QBtJDkCYcp7BBhBoQH1a
aEDDjZTBKI7gQHEZeUCW+JLBCl2zQMbfxUCB9aDB1riQQGSOyECY25DBILmZQCZZn7/817PBQMjo
QJnvw78DzrTBg+R0QPNxGz/q3KjBxZ8MQYP9rDyQ8arBkemCQJG1QkCaKqvBynKwQC4qhEDjFKrB
ouNvQF9Qwj+V+ZbBFGCdQGBvC0BXb43BVV1DQILEmUBKE6LBRkqgQLKW+UA2KobBLeTLQAa+5UAG
G47B1tqjQJWqA0HZFpTBo+MLQdHLFkBsqZ3BeXopQJP7WkAUo5TBhJV2QHjog0Dt043B

> <OMEGA_E>
AJwzPFz/oD4=

> <OMEGA_NBR>
      1512

$$$$
50220164
  -OEChem-04172616093D

 48 52  0     1  0  0  0  0  0999 V2000
    5.1954   -0.5817  -22.1557 C   0  0  0  0  0  0  0  0  0  0  0  0
    6.5243   -1.0727  -22.1465 C   0  0  0  0  0  0  0  0  0  0  0  0
    4.8655    0.5928  -21.4471 C   0  0  0  0  0  0  0  0  0  0  0  0
    7.5323   -0.4025  -21.4195 C   0  0  0  0  0  0  0  0  0  0  0  0
    7.2324    9.2727  -16.4659 C   0  0  0  0  0  0  0  0  0  0  0  0
    8.3371    9.1389  -17.3274 C   0  0  0  0  0  0  0  0  0  0  0  0
    7.7661    6.8069  -17.6943 C   0  0  0  0  0  0  0  0  0  0  0  0
    5.8924    1.2480  -20.7478 C   0  0  0  0  0  0  0  0  0  0  0  0
    6.6575    6.9198  -16.8329 C   0  0  0  0  0  0  0  0  0  0  0  0
    7.2052    0.7613  -20.7069 C   0  0  0  0  0  0  0  0  0  0  0  0
    6.4095    8.1650  -16.1878 C   0  0  0  0  0  0  0  0  0  0  0  0
    8.6108    7.8972  -17.9284 C   0  0  0  0  0  0  0  0  0  0  0  0
    7.2282    2.6359  -19.3954 C   0  0  0  0  0  0  0  0  0  0  0  0
    4.9213    5.3552  -18.7533 C   0  0  0  0  0  0  0  0  0  0  0  0
    4.6076    5.8441  -15.6916 C   0  0  0  0  0  0  0  0  0  0  0  0
    5.2852    3.7131  -20.6719 C   0  0  0  0  0  0  0  0  0  0  0  0
    4.7784    2.2445  -18.7631 C   0  0  0  0  0  0  0  0  0  0  0  0
    4.9273    6.6375  -14.4284 C   0  0  0  0  0  0  0  0  0  0  0  0
    5.8860    5.6392  -16.5080 C   0  0  1  0  0  0  0  0  0  0  0  0
    4.2643    4.3630  -19.7286 C   0  0  1  0  0  0  0  0  0  0  0  0
    5.7889    2.4727  -19.9022 C   0  0  1  0  0  0  0  0  0  0  0  0
    7.9758    1.5900  -19.9016 N   0  0  0  0  0  0  0  0  0  0  0  0
    3.6839    3.2272  -18.9764 N   0  3  0  0  0  0  0  0  0  0  0  0
    7.7146    3.5351  -18.7290 O   0  0  0  0  0  0  0  0  0  0  0  0
    4.9838    6.5245  -19.1164 O   0  0  0  0  0  0  0  0  0  0  0  0
    5.5675    4.8164  -17.6602 O   0  0  0  0  0  0  0  0  0  0  0  0
    5.1903    8.3530  -14.9423 S   0  0  0  0  0  0  0  0  0  0  0  0
   10.1675    7.6515  -19.0013 Br  0  0  0  0  0  0  0  0  0  0  0  0
    4.4314   -1.1090  -22.7077 H   0  0  0  0  0  0  0  0  0  0  0  0
    6.7685   -1.9671  -22.7003 H   0  0  0  0  0  0  0  0  0  0  0  0
    3.8557    0.9758  -21.4425 H   0  0  0  0  0  0  0  0  0  0  0  0
    8.5436   -0.7814  -21.4119 H   0  0  0  0  0  0  0  0  0  0  0  0
    7.0150   10.2301  -16.0158 H   0  0  0  0  0  0  0  0  0  0  0  0
    8.9736    9.9883  -17.5266 H   0  0  0  0  0  0  0  0  0  0  0  0
    7.9671    5.8643  -18.1815 H   0  0  0  0  0  0  0  0  0  0  0  0
    4.1905    4.8651  -15.4130 H   0  0  0  0  0  0  0  0  0  0  0  0
    3.8728    6.3974  -16.2950 H   0  0  0  0  0  0  0  0  0  0  0  0
    4.8072    3.4165  -21.6171 H   0  0  0  0  0  0  0  0  0  0  0  0
    6.1152    4.4038  -20.8817 H   0  0  0  0  0  0  0  0  0  0  0  0
    4.3831    1.2188  -18.8037 H   0  0  0  0  0  0  0  0  0  0  0  0
    5.2583    2.4141  -17.7879 H   0  0  0  0  0  0  0  0  0  0  0  0
    4.0870    6.5784  -13.7211 H   0  0  0  0  0  0  0  0  0  0  0  0
    5.8362    6.2411  -13.9521 H   0  0  0  0  0  0  0  0  0  0  0  0
    6.5544    5.0420  -15.8703 H   0  0  0  0  0  0  0  0  0  0  0  0
    3.4878    4.8760  -20.3150 H   0  0  0  0  0  0  0  0  0  0  0  0
    8.9474    1.4479  -19.7124 H   0  0  0  0  0  0  0  0  0  0  0  0
    2.9440    2.8085  -19.5030 H   0  0  0  0  0  0  0  0  0  0  0  0
    3.3293    3.5431  -18.0964 H   0  0  0  0  0  0  0  0  0  0  0  0
  1  2  1  0  0  0  0
  1  3  2  0  0  0  0
  2  4  2  0  0  0  0
  3  8  1  0  0  0  0
  4 10  1  0  0  0  0
  5  6  1  0  0  0  0
  5 11  2  0  0  0  0
  6 12  2  0  0  0  0
  7  9  2  0  0  0  0
  7 12  1  0  0  0  0
  8 10  2  0  0  0  0
  8 21  1  0  0  0  0
  9 11  1  0  0  0  0
  9 19  1  0  0  0  0
 10 22  1  0  0  0  0
 11 27  1  0  0  0  0
 12 28  1  0  0  0  0
 13 21  1  0  0  0  0
 13 22  1  0  0  0  0
 13 24  2  0  0  0  0
 14 20  1  0  0  0  0
 14 25  2  0  0  0  0
 14 26  1  0  0  0  0
 15 18  1  0  0  0  0
 15 19  1  0  0  0  0
 16 20  1  0  0  0  0
 16 21  1  0  0  0  0
 17 21  1  0  0  0  0
 17 23  1  0  0  0  0
 18 27  1  0  0  0  0
 19 26  1  0  0  0  0
 20 23  1  0  0  0  0
  1 29  1  0  0  0  0
  2 30  1  0  0  0  0
  3 31  1  0  0  0  0
  4 32  1  0  0  0  0
  5 33  1  0  0  0  0
  6 34  1  0  0  0  0
  7 35  1  0  0  0  0
 15 36  1  0  0  0  0
 15 37  1  0  0  0  0
 16 38  1  0  0  0  0
 16 39  1  0  0  0  0
 17 40  1  0  0  0  0
 17 41  1  0  0  0  0
 18 42  1  0  0  0  0
 18 43  1  0  0  0  0
 19 44  1  0  0  0  0
 20 45  1  0  0  0  0
 22 46  1  0  0  0  0
 23 47  1  0  0  0  0
 23 48  1  0  0  0  0
M  CHG  1  23   1
M  END
> <OMEGA_C>
dECmQCvqFL/lPrHBTMfQQB5Nib8NLLHBzLGbQDe/Fz+5k6vBhwjxQEYZzr4nW6vBNHDnQCBdFEEb
uoPBqGQFQco4EkFrnorB1oP4QG7S2UDujY3BQY68QDm9nz+N+6XBIwrVQBxv3UCuqYbBz5DmQLXj
Qj/Mp6XBTBrNQO6jAkGigIHBs8UJQZe1/EBlbY/BX03nQKuyKEC8KZvBJXudQCpeq0DZBpbBFHGT
QCQDu0C1EHvBTCCpQPSjbUAJYKXBYuiYQNClD0DEGpbB0qydQBdm1EDZ2mbB+lm8QJd0tEBWEITB
NXWIQHedi0Ap1J3BUD65QOY/HkCwN5/B9zn/QOmFyz+HNp/BvcRrQNiJTkDDz5fBn932QB8/YkAB
1ZXB93qfQG3I0EB87pjBMCmyQCYgmkAhSI3BwhamQOulBUGoE2/BOa4iQSzZ9EC8ApjBus2NQC/y
jb9hqbXBWpfYQIDL+788mrXBN8N2QOjMeT9PiqvBvbIIQXUISL+bS6vBy3rgQHuuI0FZIIDBCJQP
QerPH0GINozBcfL+QDWou0DLc5HBVRiGQDCvm0Cpm3bBv9x3QMW3zEAUXILBSdSZQB6nWkDg76zB
na/DQEDsjEDKDafBpkKMQD0AnD8MbpbBR0SoQM6AGkC4TY7B9siCQFeC0kBtiVvBDMK6QFy3x0Cg
O1/BYb3RQHhYoUC87H3BvTdfQPAHnEAOhaLBrCgPQU9VuT8Ss53BZmo8QMW+M0A6BpzBQhNVQDXC
YkB2xZDBAk6vQGR+Fb/KvLPB7pTaQIz+fb/p57LBXk+gQKCxAz9Cvq3BBCr3QJRDn74mDKzBQBvV
QGScqECdbVjBboPWQF9vd0BYF1nBdkS6QKFAekCJT33BbH29QEIplj/FAafB8sO4QLBLqkAu/3zB
KEPoQFxIRz9QBabBGNbGQMYJwEAXQ2rBZr/JQMUHTEC7tGvBoNXgQDX0IkB/eJrBqJubQLLbskCR
cZrB8LGnQDwI8kA9AojBej6nQF08ZUCmY6bB0MWQQGkYBUC6O5jBTF+bQMqCAkEtcnrBri+jQGTi
wEC584fBsqyHQGIZikAzCZ/BWGi1QOeHFkDuBaDBVLL8QAKfzT+1q57BjRp4QPmWWEAINZbBuPPr
QA3IWUD9FJTB3hmZQGa300D8u5/Buje1QCzjr0BYr5HBimTFQMCo90CF4GfBou/MQP6qpD9+HG3B
ubuZQJjPjr+J+rjB8NXlQFN06r94jrfBBNx+QFDhVj+PT67BCBIMQXwYIL98cqvBNw3fQNtBuUDc
H0rBxWPhQL/TU0CtUEvBFlOvQAFBWECtqYXBR6eSQEdi/0BIOY7BTB3JQCx4+kBIy4nBw22XQMLp
UUDs3q3BG9vCQHEmh0CDPqjBEXpzQP9BsD+Cy5vBSUGdQOhh1D9OuZDBDEqYQDn+E0GQxXvBIKl5
QBVY90D6/HTBetaAQBhCuUCqsYfBScFVQKaPkkAcoqPBDcwNQQcWxD8TrZzBfJE4QMUhUUAL+JXB
4T2GQO9PcEA1Oo/B

> <OMEGA_E>
GBAkP3bxFz8=

> <OMEGA_NBR>
      1943

$$$$
50220162
  -OEChem-04172616093D

 50 54  0     1  0  0  0  0  0999 V2000
    5.7842   -0.3455  -22.7738 C   0  0  0  0  0  0  0  0  0  0  0  0
    7.1017   -0.7913  -22.5021 C   0  0  0  0  0  0  0  0  0  0  0  0
    5.2149    0.6960  -22.0088 C   0  0  0  0  0  0  0  0  0  0  0  0
    7.8607   -0.2002  -21.4647 C   0  0  0  0  0  0  0  0  0  0  0  0
    8.6003    6.3132  -16.1499 C   0  0  0  0  0  0  0  0  0  0  0  0
    9.3037    6.7182  -17.2992 C   0  0  0  0  0  0  0  0  0  0  0  0
    7.2296    7.5317  -18.2657 C   0  0  0  0  0  0  0  0  0  0  0  0
    5.9944    1.2684  -20.9859 C   0  0  0  0  0  0  0  0  0  0  0  0
    6.4895    7.0416  -17.1655 C   0  0  0  0  0  0  0  0  0  0  0  0
    7.2980    0.8404  -20.7007 C   0  0  0  0  0  0  0  0  0  0  0  0
    7.1967    6.4473  -16.0878 C   0  0  0  0  0  0  0  0  0  0  0  0
    8.6110    7.3168  -18.3646 C   0  0  0  0  0  0  0  0  0  0  0  0
    6.8776    2.5307  -19.1820 C   0  0  0  0  0  0  0  0  0  0  0  0
    4.7149    5.6520  -19.2094 C   0  0  0  0  0  0  0  0  0  0  0  0
    4.2709    7.1717  -15.8427 C   0  0  0  0  0  0  0  0  0  0  0  0
    5.2445    3.6775  -20.7622 C   0  0  0  0  0  0  0  0  0  0  0  0
    4.3941    2.0443  -19.2037 C   0  0  0  0  0  0  0  0  0  0  0  0
    4.5881    5.9468  -14.9568 C   0  0  0  0  0  0  0  0  0  0  0  0
    4.9496    7.0697  -17.2387 C   0  0  2  0  0  0  0  0  0  0  0  0
    4.2047    4.3456  -19.8261 C   0  0  1  0  0  0  0  0  0  0  0  0
    5.6212    2.3740  -20.0494 C   0  0  1  0  0  0  0  0  0  0  0  0
    7.8044    1.5940  -19.6347 N   0  0  0  0  0  0  0  0  0  0  0  0
    3.8949    3.3568  -18.7501 N   0  3  0  0  0  0  0  0  0  0  0  0
    7.0559    3.3253  -18.2653 O   0  0  0  0  0  0  0  0  0  0  0  0
    5.2421    6.4576  -19.9674 O   0  0  0  0  0  0  0  0  0  0  0  0
    6.5817    7.0199  -13.5967 O   0  0  0  0  0  0  0  0  0  0  0  0
    6.7484    4.5694  -14.2807 O   0  0  0  0  0  0  0  0  0  0  0  0
    4.4439    5.8601  -17.8748 O   0  0  0  0  0  0  0  0  0  0  0  0
    6.3480    5.9514  -14.5786 S   0  0  0  0  0  0  0  0  0  0  0  0
    9.5277    7.8216  -19.9596 Br  0  0  0  0  0  0  0  0  0  0  0  0
    5.2138   -0.8037  -23.5683 H   0  0  0  0  0  0  0  0  0  0  0  0
    7.5297   -1.5885  -23.0917 H   0  0  0  0  0  0  0  0  0  0  0  0
    4.2109    1.0434  -22.2029 H   0  0  0  0  0  0  0  0  0  0  0  0
    8.8637   -0.5444  -21.2602 H   0  0  0  0  0  0  0  0  0  0  0  0
    9.1376    5.8973  -15.3103 H   0  0  0  0  0  0  0  0  0  0  0  0
   10.3716    6.5694  -17.3620 H   0  0  0  0  0  0  0  0  0  0  0  0
    6.7213    8.0815  -19.0440 H   0  0  0  0  0  0  0  0  0  0  0  0
    3.1816    7.2381  -15.9809 H   0  0  0  0  0  0  0  0  0  0  0  0
    4.6323    8.0793  -15.3371 H   0  0  0  0  0  0  0  0  0  0  0  0
    4.8026    3.4681  -21.7475 H   0  0  0  0  0  0  0  0  0  0  0  0
    6.1272    4.3221  -20.8857 H   0  0  0  0  0  0  0  0  0  0  0  0
    3.6339    1.5264  -19.8069 H   0  0  0  0  0  0  0  0  0  0  0  0
    4.6713    1.4156  -18.3447 H   0  0  0  0  0  0  0  0  0  0  0  0
    4.0084    6.0043  -14.0237 H   0  0  0  0  0  0  0  0  0  0  0  0
    4.3270    5.0232  -15.4943 H   0  0  0  0  0  0  0  0  0  0  0  0
    4.6483    7.9467  -17.8304 H   0  0  0  0  0  0  0  0  0  0  0  0
    3.2928    4.5558  -20.4043 H   0  0  0  0  0  0  0  0  0  0  0  0
    8.7182    1.4746  -19.2464 H   0  0  0  0  0  0  0  0  0  0  0  0
    2.9073    3.3138  -18.5989 H   0  0  0  0  0  0  0  0  0  0  0  0
    4.3510    3.6215  -17.9005 H   0  0  0  0  0  0  0  0  0  0  0  0
  1  2  1  0  0  0  0
  1  3  2  0  0  0  0
  2  4  2  0  0  0  0
  3  8  1  0  0  0  0
  4 10  1  0  0  0  0
  5  6  1  0  0  0  0
  5 11  2  0  0  0  0
  6 12  2  0  0  0  0
  7  9  2  0  0  0  0
  7 12  1  0  0  0  0
  8 10  2  0  0  0  0
  8 21  1  0  0  0  0
  9 11  1  0  0  0  0
  9 19  1  0  0  0  0
 10 22  1  0  0  0  0
 11 29  1  0  0  0  0
 12 30  1  0  0  0  0
 13 21  1  0  0  0  0
 13 22  1  0  0  0  0
 13 24  2  0  0  0  0
 14 20  1  0  0  0  0
 14 25  2  0  0  0  0
 14 28  1  0  0  0  0
 15 18  1  0  0  0  0
 15 19  1  0  0  0  0
 16 20  1  0  0  0  0
 16 21  1  0  0  0  0
 17 21  1  0  0  0  0
 17 23  1  0  0  0  0
 18 29  1  0  0  0  0
 19 28  1  0  0  0  0
 20 23  1  0  0  0  0
 26 29  2  0  0  0  0
 27 29  2  0  0  0  0
  1 31  1  0  0  0  0
  2 32  1  0  0  0  0
  3 33  1  0  0  0  0
  4 34  1  0  0  0  0
  5 35  1  0  0  0  0
  6 36  1  0  0  0  0
  7 37  1  0  0  0  0
 15 38  1  0  0  0  0
 15 39  1  0  0  0  0
 16 40  1  0  0  0  0
 16 41  1  0  0  0  0
 17 42  1  0  0  0  0
 17 43  1  0  0  0  0
 18 44  1  0  0  0  0
 18 45  1  0  0  0  0
 19 46  1  0  0  0  0
 20 47  1  0  0  0  0
 22 48  1  0  0  0  0
 23 49  1  0  0  0  0
 23 50  1  0  0  0  0
M  CHG  1  23   1
M  END
> <OMEGA_C>
6Be5QDfqsL7YMLbB1kDjQMSRSr9ZBLTBwOCmQKQvMj8LErDBmIr7QKYCTb6nt6vBAJsJQbAFykDv
MoHB79sUQR/71kCzZIrBfVjnQFED8UAdIJLBUdK/QLhaoj8U46fBA6rPQKZU4UAEU4nBT4npQAYn
Vz8Am6XBR0vmQKFQzkDms4DBdsYJQWwj6kC66pLBIRXcQM72IUCjdJnBpuCWQHfdtEDerJnBRquI
QPd+5UCae33B+dKnQA9ca0DnGKbBaJyMQIDVAkA7oZnBfdGSQM1LvkD0Tm/BeGOeQA874kDt6InB
poyGQH8Pi0Dtm57Br+CzQILvF0AhZaDBxL35QJIHzD/hE53BbUV5QKDWVkBDAJbBQsrhQFfSVEA/
H5LBHb+nQIekzkA0vZ/BI53SQEOj4EDli1nBm/LXQIE4kkDYfWTBmzSOQCOGu0CL/47BDCPLQOBx
vkDwQWnBgXEYQWZK+kAyrZ/BnNemQI7BTb/ji7zBrvPwQOJUy7+4u7jBlb+GQMOMhT91n7HB2tEN
Qd5dC7/9FKrBhjMSQdm2vEAe93TB4vElQXc40kBg5YrBDBXXQOdNAUESWpjBFqBLQM6e50C2sX/B
NTyUQPlEAUGiZHXBNK+ZQHD1XUDl+q3BHRLEQARPikDTFafBXJFoQPFfwz+MdJ7BfnuVQLQztT/q
wZLB9kSAQNUiwEDvYGDB5naKQCC+oECW6HfBxb6UQDJL/kC6pI7B67xSQL/IkUATPKPBr30LQSnB
vD+f+JnBPRE6QOgUVECNypTBFDuLQKHGZ0AlNI/BZwKhQP0mPr+UXKzBeGvLQOkbn7/OsazBRI6Y
QBXoBT+u0KfBuK/tQNQZ+L7odqjBf0wIQRytukDvcHrBH6gVQXVxx0ANsIXBCdjsQOSp30Bwpo/B
Ikm7QOYeoT/5tKPBqW3RQP6/0kDzP4fBiWLlQMP6Rj9I6aPBqtXjQOGov0DOAXzBe6sMQfOt2UCg
747BS4npQF1HNUBAjZvBe62SQGdHtEC0zZnBWM2GQDFr2UCDg3zBWA6pQK+0bUDpEKbBkGOdQEvX
J0D6oZTB4raMQHnqsEBWw27BIcygQM4+10Bj1YjB0w+EQILHi0AJ05/BN5u6QJI1J0B9hp7BwCoA
QVSC3D/wJZ/BQwNsQBqrVEB6HpjBIs74QOiXc0Bb/pbBQbKdQApf00BfI5/BlgTIQJST0EAULFXB
mNfNQPyZgkAi0mDBySGRQCPCskBM0Y7BGD7DQBVhr0CCqGXB0o0eQfjv6UAvnJrBBBOHQNhlqr8V
mK/BzaDRQHp7DcBJNLDBXMNwQNBXaj+5f6fB5vkGQWvAXr+SuajBrDQPQUb7rEB2KGzBicQmQYRB
w0ALF4XByGjfQEpV7kAst5bB3VNJQLTx3EBgNoDBKoyRQKte9UBKQ3PBIkmdQIxuUUCZka3BdRLC
QDyLjkBN3qfBjfeVQFIszD9PGJLBo7esQGFwSkDf/o3B9eNtQO3+sUBm8WDBg8eFQE9MlED/Z3jB
9quaQCbC9EDgYI3B8M9TQPznk0AbWqXByQEQQSfDzj+Vap7B5v9DQDShK0CmrZvB1tBOQFeUb0BO
2JHB

> <OMEGA_E>
WPVOPwxRSj8=

> <OMEGA_NBR>
      3939

$$$$
50220169
  -OEChem-04172616093D

 44 47  0     1  0  0  0  0  0999 V2000
    5.4231   -0.7674  -22.0061 C   0  0  0  0  0  0  0  0  0  0  0  0
    6.7884   -1.1394  -21.9434 C   0  0  0  0  0  0  0  0  0  0  0  0
    4.9796    0.4053  -21.3633 C   0  0  0  0  0  0  0  0  0  0  0  0
    7.7208   -0.3437  -21.2382 C   0  0  0  0  0  0  0  0  0  0  0  0
    5.9307    1.1779  -20.6760 C   0  0  0  0  0  0  0  0  0  0  0  0
    7.2821    0.8261  -20.5958 C   0  0  0  0  0  0  0  0  0  0  0  0
    7.1049    2.7872  -19.4099 C   0  0  0  0  0  0  0  0  0  0  0  0
    4.9034    5.3236  -19.0822 C   0  0  0  0  0  0  0  0  0  0  0  0
    5.9334    5.1647  -15.5912 C   0  0  0  0  0  0  0  0  0  0  0  0
    4.9772    7.2642  -16.7349 C   0  0  0  0  0  0  0  0  0  0  0  0
    5.1218    3.5442  -20.8465 C   0  0  0  0  0  0  0  0  0  0  0  0
    4.6904    2.2554  -18.7989 C   0  0  0  0  0  0  0  0  0  0  0  0
    6.3588    6.0851  -14.4438 C   0  0  0  0  0  0  0  0  0  0  0  0
    5.5027    8.0469  -15.5306 C   0  0  0  0  0  0  0  0  0  0  0  0
    4.1530    4.2880  -19.9319 C   0  0  1  0  0  0  0  0  0  0  0  0
    5.7582    5.9388  -16.9206 C   0  0  0  0  0  0  0  0  0  0  0  0
    5.7059    2.4469  -19.9386 C   0  0  1  0  0  0  0  0  0  0  0  0
    7.9592    1.7806  -19.8354 N   0  0  0  0  0  0  0  0  0  0  0  0
    3.5861    3.2122  -19.0727 N   0  3  0  0  0  0  0  0  0  0  0  0
    7.4524    3.7542  -18.7449 O   0  0  0  0  0  0  0  0  0  0  0  0
    5.4784    6.2435  -19.6564 O   0  0  0  0  0  0  0  0  0  0  0  0
    5.4558    7.2039  -14.3650 O   0  0  0  0  0  0  0  0  0  0  0  0
    4.9884    5.0555  -17.7461 O   0  0  0  0  0  0  0  0  0  0  0  0
    4.7208   -1.3838  -22.5476 H   0  0  0  0  0  0  0  0  0  0  0  0
    7.1206   -2.0396  -22.4391 H   0  0  0  0  0  0  0  0  0  0  0  0
    3.9414    0.7010  -21.3979 H   0  0  0  0  0  0  0  0  0  0  0  0
    8.7605   -0.6326  -21.1939 H   0  0  0  0  0  0  0  0  0  0  0  0
    6.7027    4.3907  -15.7296 H   0  0  0  0  0  0  0  0  0  0  0  0
    4.9772    4.6886  -15.3287 H   0  0  0  0  0  0  0  0  0  0  0  0
    3.9127    7.0353  -16.5783 H   0  0  0  0  0  0  0  0  0  0  0  0
    5.0909    7.8784  -17.6404 H   0  0  0  0  0  0  0  0  0  0  0  0
    4.5925    3.1038  -21.7043 H   0  0  0  0  0  0  0  0  0  0  0  0
    5.9133    4.2162  -21.2097 H   0  0  0  0  0  0  0  0  0  0  0  0
    4.3102    1.2232  -18.7944 H   0  0  0  0  0  0  0  0  0  0  0  0
    5.1579    2.4781  -17.8284 H   0  0  0  0  0  0  0  0  0  0  0  0
    6.3334    5.5261  -13.4968 H   0  0  0  0  0  0  0  0  0  0  0  0
    7.3801    6.4506  -14.6265 H   0  0  0  0  0  0  0  0  0  0  0  0
    6.5408    8.3587  -15.7182 H   0  0  0  0  0  0  0  0  0  0  0  0
    4.8765    8.9364  -15.3674 H   0  0  0  0  0  0  0  0  0  0  0  0
    3.3646    4.7772  -20.5228 H   0  0  0  0  0  0  0  0  0  0  0  0
    6.7436    6.1464  -17.3632 H   0  0  0  0  0  0  0  0  0  0  0  0
    8.9359    1.7435  -19.6242 H   0  0  0  0  0  0  0  0  0  0  0  0
    2.8391    2.7486  -19.5493 H   0  0  0  0  0  0  0  0  0  0  0  0
    3.2455    3.5993  -18.2160 H   0  0  0  0  0  0  0  0  0  0  0  0
  1  2  1  0  0  0  0
  1  3  2  0  0  0  0
  2  4  2  0  0  0  0
  3  5  1  0  0  0  0
  4  6  1  0  0  0  0
  5  6  2  0  0  0  0
  5 17  1  0  0  0  0
  6 18  1  0  0  0  0
  7 17  1  0  0  0  0
  7 18  1  0  0  0  0
  7 20  2  0  0  0  0
  8 15  1  0  0  0  0
  8 21  2  0  0  0  0
  8 23  1  0  0  0  0
  9 13  1  0  0  0  0
  9 16  1  0  0  0  0
 10 14  1  0  0  0  0
 10 16  1  0  0  0  0
 11 15  1  0  0  0  0
 11 17  1  0  0  0  0
 12 17  1  0  0  0  0
 12 19  1  0  0  0  0
 13 22  1  0  0  0  0
 14 22  1  0  0  0  0
 15 19  1  0  0  0  0
 16 23  1  0  0  0  0
  1 24  1  0  0  0  0
  2 25  1  0  0  0  0
  3 26  1  0  0  0  0
  4 27  1  0  0  0  0
  9 28  1  0  0  0  0
  9 29  1  0  0  0  0
 10 30  1  0  0  0  0
 10 31  1  0  0  0  0
 11 32  1  0  0  0  0
 11 33  1  0  0  0  0
 12 34  1  0  0  0  0
 12 35  1  0  0  0  0
 13 36  1  0  0  0  0
 13 37  1  0  0  0  0
 14 38  1  0  0  0  0
 14 39  1  0  0  0  0
 15 40  1  0  0  0  0
 16 41  1  0  0  0  0
 18 42  1  0  0  0  0
 19 43  1  0  0  0  0
 19 44  1  0  0  0  0
M  CHG  1  19   1
M  END
> <OMEGA_C>
E4qtQAZ1RL+BDLDB2DrZQMvXkb8RjK/Bv1ifQBeHzz4b6KrBvxD3QHb6r77P56nBm8i9QKrElj9d
aKXB0gbpQA58Uz8dxKTBHlvjQMhgMkBxR5vBxuicQFRbqkBHqJjBjt69QGlFpUCDdXnBQ0WfQP9z
6EAW4YXBZ+WjQPnUYkCVxabB6heWQJVYEEARZJbBnHvLQCK5wkDpGWfBhBawQDDAAEEpfXjB/uSE
QCs3iUCHdJ/BU0O4QE0KvkBVXYfBnpa2QL+aHEBPgp/BerH+QB/p4z/nrp7BGoNlQOaTTUD8lJjB
sHnuQNpEcEB09ZXBFU+vQNLKx0BnQJ3BqZWuQE6G5kAB12XBWKGfQETGoUAM+I3B4RCXQEUhsb96
YbTBSNzjQMSIAsAug7PBVUB8QCl2Mz/sLqvB8SoMQdz0Ib8UjanBNHzWQJOAjEA+rHvBGEWfQLkI
lkBsQnXBDmp6QIEh4UBkoITBhOiiQIsb/EBwH43BhPWSQLykRkBqoq3BETq9QMrqhkB0ranBb+2J
QP6RnD8HW5bBUg2lQK+ZHkB5oI7BI6vKQJrVsEDs8lfBCCrsQDZrzkBHBmrBTk7RQEu9BUHPfXvB
aQycQJ77DkER4XXBqVVXQJfemEDCLqTBecvXQH2vxEDX54rBdvkOQWkr3z9a/pzBgrQ1QK3oL0D8
ZJzBJLZPQMFaZkBGupHB3p+uQK7PK79CvbDBAnXZQDUFjr96ia/B6sagQEIkAz/Dr6vBKrH2QHSA
wL6QNqnBJLm+QNhPnT/LkKXB7vjoQOghTT/SI6TBlE/kQCl5MUDx0ZrB4CWZQH4orECqZZjB3A2v
QKqZ6EDhyobBKI+7QI6Do0ByIXnBAH6mQKMVaEBghabBcuSVQAHdEED5qJbBLuqtQOBa/0B/23fB
wmW6QEzlvUB0eWTBmMiEQKbwiUApjJ/B3ByhQGhMuUD0eIXBEK23QLkOH0Cqcp/BwEj+QIDN2T+S
gJ3BuwNlQHqxTUAz+JjB+BXxQOMPcUBqFJbBArKlQBbezEDZzpzBSqbIQGTi6EDNzWjBhhSoQDDc
nkBntI7B8YWYQA5en78OirXBF+DjQHTUAMCOfbPB7i+AQF92Wz9RfqzBhKILQUC0N7+eSqjBghqZ
QJXQ+EDIWYzBfcjPQHO96UDVBIrBQfDcQHNdoEDHfX7BlzauQGGRg0AW9HXBvfuXQL+NTkBN4K3B
0UDAQJ+BikDMn6jBJQ+KQGQtnT/N5pbBPLKjQHcVHkBEvI7BLLG5QBAoEEE2vHnBs9KMQMUBAEHu
3XHBRXmZQAbBvkBUQ17BQ5XPQI8hr0COg1jB/+RXQMh0mEBmnqTBQkV+QLmTuEA0LoPBsDoOQWBX
yz8q/5rBVmo2QIcCMEDcAZ3B53FNQNY2ZUA4I5LByd6wQAC5PL95RLDBG3XcQBLejL9cJ6/BWVqh
QBbY4j7pdqvBUfD4QLamkb65R6nBAm6+QG1pnj9Ot6XBn6TpQLKzZT9bjqTBRzbhQJeiNUCIBJvB
VzuZQCAPskC1ZpnBOUfWQA/ly0ArrofB+zWXQDwX8ECC1n7B7ZyhQI7BZUDph6bB3gqVQDx+D0BI
j5bBDCjTQIEFqUDKCn7BrXibQAkj0EB7+GvB9XCDQFRNi0Ay4J7Ban2pQAdP3kBREIrBalC1QGcL
H0Avl5/BSfH9QGmT7z/1bZ7BynBqQHsjVkCh6pbBoYLpQECba0CyR5TBmgexQB3rx0CQ/J7B28XF
QAmavUANnGrB0zaOQNFKvUDnAo/B/HKbQMTirr+Qz7TBegXoQK+SAMAm07LB1yKAQJgzOj/8LqzB
QhANQUECEb+DbqjBmVPrQLi65UB02ITBLKTjQAnvvUASCY/BjzlqQIN990CWlIDBBJmoQK7IBkE8
uHrBIYqPQA8ESkA5Pa3Bm566QGZDiEBBqKnBAueEQHVPoz89v5fBc5GlQGBoD0Awyo7B/pG7QGqt
kEDiZIHBX4vyQD7GmUA2u3vB8KCUQCsm4UCD8lzBZwuEQCQ9tkDuLW7BPVZPQCXUlkBSc6PB/Cqt
QMAw+UCGq4/BMpkOQbXk7z9xtpzBUkoxQBHlPkArC5nBsgpmQDRwcUCms4/BFimuQMFyMb9cdLDB
oqXZQCZ7ir9Ls6/BvOqfQGA4+D7IYKvBcDj3QBNTmL713qnB+BO+QNhWnz/FqaXBxB3pQK5EYD88
x6TB3K/iQG/zMkBfv5rB5GKbQDX+rEDmhJfB2MqtQEcl8kCVyIbBEG2bQAG9t0D2/HPBWFWkQKVy
aEA1FabBiLeVQFBPD0BuW5bBiHndQMbT6EC734TBRtrLQBtHsUBCCXDBMC6FQHPJikAxfZ7B9o2T
QKhVyEDleoXBmnG2QB3lHkDdUp/BgnX+QPhw6D+kdp7BYZFmQESFT0Dj25fB6pnsQP2CbUCQupTB
xMiuQMZsyUAgOJzBIgbjQHB52EBSSnTBLIafQJyjpUB2vozBft6XQH9vpr9P7bTBVFDkQCkf/r+t
nLPB1LZ9QDgpSz+F3avBDy0MQavxGL8HVqnBrKCiQGP7BEGl74DBDWapQGa8/kB47Y7BvsWKQD8F
mUAv3HHBZ+uOQE4qz0Cfb2jB6H2TQCi2T0AmKq3BmfW9QKwXikA+oqjB0YyIQJNlnD+O9ZbBo+uk
QLi6F0CLfY7BIq/oQAHp0EDVsIrBfwnwQA8/A0H00oXBDvfQQEzWp0BXRl/BEMnXQIbol0C0rXrB
DSFXQCj+mUBXLaPBYbtiQNLbz0CpZobBL+IOQXu45D9A05zB2aI0QKjJNECPlZvBO8tTQPFlZkAB
xJDB

> <OMEGA_E>
IE2PPThAgT5YAY8+EPynPg==

> <OMEGA_NBR>
      7318

$$$$
50220173
  -OEChem-04172616093D

 51 54  0     1  0  0  0  0  0999 V2000
    5.3030   -0.7588  -21.8465 C   0  0  0  0  0  0  0  0  0  0  0  0
    6.6780   -1.0940  -21.9114 C   0  0  0  0  0  0  0  0  0  0  0  0
    4.8933    0.4166  -21.1870 C   0  0  0  0  0  0  0  0  0  0  0  0
    7.6539   -0.2585  -21.3192 C   0  0  0  0  0  0  0  0  0  0  0  0
    5.8869    1.2239  -20.6085 C   0  0  0  0  0  0  0  0  0  0  0  0
    7.2488    0.9143  -20.6608 C   0  0  0  0  0  0  0  0  0  0  0  0
    7.1157    2.8356  -19.4094 C   0  0  0  0  0  0  0  0  0  0  0  0
    4.7679    5.3135  -18.9242 C   0  0  0  0  0  0  0  0  0  0  0  0
    7.9644    7.9144  -15.3435 C   0  0  0  0  0  0  0  0  0  0  0  0
    6.1345    5.3463  -16.1323 C   0  0  0  0  0  0  0  0  0  0  0  0
    5.0807    7.5731  -16.8167 C   0  0  0  0  0  0  0  0  0  0  0  0
    5.1042    3.5918  -20.7788 C   0  0  0  0  0  0  0  0  0  0  0  0
    6.5194    5.9764  -14.7788 C   0  0  0  0  0  0  0  0  0  0  0  0
    5.4880    8.1544  -15.4522 C   0  0  0  0  0  0  0  0  0  0  0  0
    4.7279    2.3304  -18.6981 C   0  0  0  0  0  0  0  0  0  0  0  0
    4.1067    4.2898  -19.8633 C   0  0  1  0  0  0  0  0  0  0  0  0
    4.8442    6.0571  -16.6103 C   0  0  0  0  0  0  0  0  0  0  0  0
    5.7032    2.4982  -19.8753 C   0  0  1  0  0  0  0  0  0  0  0  0
   10.2839    7.5213  -15.7926 C   0  0  0  0  0  0  0  0  0  0  0  0
    7.9669    1.9021  -19.9827 N   0  0  0  0  0  0  0  0  0  0  0  0
    6.6972    7.4306  -14.9948 N   0  0  0  0  0  0  0  0  0  0  0  0
    3.5640    3.1738  -19.0456 N   0  3  0  0  0  0  0  0  0  0  0  0
    7.4644    3.7474  -18.6724 O   0  0  0  0  0  0  0  0  0  0  0  0
    5.6656    6.0349  -19.3499 O   0  0  0  0  0  0  0  0  0  0  0  0
    8.0708    9.0722  -15.7408 O   0  0  0  0  0  0  0  0  0  0  0  0
    4.1737    5.4040  -17.7003 O   0  0  0  0  0  0  0  0  0  0  0  0
    9.0377    7.0661  -15.2176 O   0  0  0  0  0  0  0  0  0  0  0  0
    4.5681   -1.4051  -22.3032 H   0  0  0  0  0  0  0  0  0  0  0  0
    6.9844   -1.9971  -22.4185 H   0  0  0  0  0  0  0  0  0  0  0  0
    3.8496    0.6882  -21.1280 H   0  0  0  0  0  0  0  0  0  0  0  0
    8.7005   -0.5199  -21.3727 H   0  0  0  0  0  0  0  0  0  0  0  0
    6.9425    5.4978  -16.8633 H   0  0  0  0  0  0  0  0  0  0  0  0
    5.9491    4.2691  -16.0088 H   0  0  0  0  0  0  0  0  0  0  0  0
    4.1577    8.0545  -17.1722 H   0  0  0  0  0  0  0  0  0  0  0  0
    5.8841    7.7337  -17.5508 H   0  0  0  0  0  0  0  0  0  0  0  0
    4.5984    3.1505  -21.6502 H   0  0  0  0  0  0  0  0  0  0  0  0
    5.8817    4.2906  -21.1211 H   0  0  0  0  0  0  0  0  0  0  0  0
    5.7204    5.8017  -14.0433 H   0  0  0  0  0  0  0  0  0  0  0  0
    7.4578    5.5343  -14.4128 H   0  0  0  0  0  0  0  0  0  0  0  0
    5.7097    9.2271  -15.5535 H   0  0  0  0  0  0  0  0  0  0  0  0
    4.6721    8.0155  -14.7276 H   0  0  0  0  0  0  0  0  0  0  0  0
    4.4257    1.2780  -18.5929 H   0  0  0  0  0  0  0  0  0  0  0  0
    5.1895    2.6748  -17.7609 H   0  0  0  0  0  0  0  0  0  0  0  0
    3.3123    4.7702  -20.4534 H   0  0  0  0  0  0  0  0  0  0  0  0
    4.1572    5.9953  -15.7535 H   0  0  0  0  0  0  0  0  0  0  0  0
   11.0628    6.7619  -15.6292 H   0  0  0  0  0  0  0  0  0  0  0  0
   10.1515    7.6841  -16.8723 H   0  0  0  0  0  0  0  0  0  0  0  0
   10.5856    8.4646  -15.3138 H   0  0  0  0  0  0  0  0  0  0  0  0
    8.9644    1.9325  -19.9189 H   0  0  0  0  0  0  0  0  0  0  0  0
    2.8969    2.6475  -19.5728 H   0  0  0  0  0  0  0  0  0  0  0  0
    3.1299    3.5275  -18.2171 H   0  0  0  0  0  0  0  0  0  0  0  0
  1  2  1  0  0  0  0
  1  3  2  0  0  0  0
  2  4  2  0  0  0  0
  3  5  1  0  0  0  0
  4  6  1  0  0  0  0
  5  6  2  0  0  0  0
  5 18  1  0  0  0  0
  6 20  1  0  0  0  0
  7 18  1  0  0  0  0
  7 20  1  0  0  0  0
  7 23  2  0  0  0  0
  8 16  1  0  0  0  0
  8 24  2  0  0  0  0
  8 26  1  0  0  0  0
  9 21  1  0  0  0  0
  9 25  2  0  0  0  0
  9 27  1  0  0  0  0
 10 13  1  0  0  0  0
 10 17  1  0  0  0  0
 11 14  1  0  0  0  0
 11 17  1  0  0  0  0
 12 16  1  0  0  0  0
 12 18  1  0  0  0  0
 13 21  1  0  0  0  0
 14 21  1  0  0  0  0
 15 18  1  0  0  0  0
 15 22  1  0  0  0  0
 16 22  1  0  0  0  0
 17 26  1  0  0  0  0
 19 27  1  0  0  0  0
  1 28  1  0  0  0  0
  2 29  1  0  0  0  0
  3 30  1  0  0  0  0
  4 31  1  0  0  0  0
 10 32  1  0  0  0  0
 10 33  1  0  0  0  0
 11 34  1  0  0  0  0
 11 35  1  0  0  0  0
 12 36  1  0  0  0  0
 12 37  1  0  0  0  0
 13 38  1  0  0  0  0
 13 39  1  0  0  0  0
 14 40  1  0  0  0  0
 14 41  1  0  0  0  0
 15 42  1  0  0  0  0
 15 43  1  0  0  0  0
 16 44  1  0  0  0  0
 17 45  1  0  0  0  0
 19 46  1  0  0  0  0
 19 47  1  0  0  0  0
 19 48  1  0  0  0  0
 20 49  1  0  0  0  0
 22 50  1  0  0  0  0
 22 51  1  0  0  0  0
M  CHG  1  22   1
M  END
> <OMEGA_C>
frKpQOg+Qr+mxa7BerLVQMQJjL+gSq/BsJWcQOVR1T7mfqnBBO30QMVchL6wjarBGGG8QEmnnD9F
3qTBjvbnQMwSaj9nSaXBoLPjQEJ6NUBvRpvB4pKYQHQIqkDHZJfBtNz+QA1D/UDwfnXB9k3EQLsU
q0AKD4HB6pSiQBBX8kCuiIbB3FWjQL3fZUD5OqbBwJ7QQOk+v0AWdmzBZp2vQHl4AkFUPHfBVEuX
QNskFUC9lZXBvGmDQDpGiUAE6J7BngObQLnTwUDz4YTBo4C2QBbjH0CUAJ/B94okQWiu8EBNrnzB
LPH+QMF48z+r3J/Bkk/WQKDH7UC76m/BVBlkQNofS0ByXZjBstzuQBfVb0AIYZXBiEy1QPIdwUCY
zJrB5iEBQZYnEUEl2nvBN4+FQKLtrEAlmo3BapoQQRgd4kAbe3PBNC6SQJXas7/4bLLBQYDfQEqg
/78CWbPBkmB2QLYvMD8UBqnBDTULQd4ZBb9I+6rB4CjeQMDtr0Dy54bB+16+QF6ciEDvEYDBsAuF
QFXfAEGWYInBKEq8QEd690D+Z4zBJiaTQHihSUCrM63BMje8QENMiUAS+KjBKQ23QFCnuUBNsWDB
FqbuQCAZsUD6mmbB3rW2QA2iE0ES23jB0IGVQEs/AEFapGvBS5+NQD+Uoz8+vpTBdBCmQFwvK0BX
Fo7BjPxTQN+lmEB2oKPBtQeFQLHZv0AwDnzBGQExQUNh2EAdEXrBrGwiQWPk9UCR+obBd14pQd1u
B0EnBXXBV24PQTVb9z/rWZ/BiWc5QItwKUAvlZzBIlBIQOnCYUCwvJHBzjqpQEQ8QL9J067B8jHV
QGpVi7/6Z6/B+j+cQBrx1T7LbqnBfYn0QJN7hL7Vp6rB8ia8QLsBnD++xqTB3brnQGgqaT8tUqXB
x/bjQCYmNkADe5vBy56XQJWZrEAOJ5jBMSr9QE248UDc3WvBsIe6QJI6qEA7HILBJB2mQHFl9EBO
z4bBjMWiQG68ZECxSqbBuz7HQCJrtkDqhG3B/h+yQMwlAUHE4XbBxEqYQOnLFkDlXpXBwjWDQFtq
iUAlAp/Be/iVQET4xUBh/oXBqYq2QLkaIEBo/Z7BPmEaQYGUEkG65HHB1vH+QBdj8z9FAaDBg7rS
QM5+5EBsMG7BTn9mQF1kTkCdyJfB4WnvQBUEcEDDjJXB2922QCFwwEDKcpvBqSYLQfdP2kC8T2LB
chmAQDjEt0Dqdo/BJTwEQbpfDEHYQnTBx6CRQKn4sb+LhbLBTOHeQA2S/r/RhLPBkbx1QHV1MD9P
5ajBRAALQaigBb8tIKvBpTHWQJj8qkADgofBgWCvQO7YhkBv94HB8r+MQBeaBEHG/4nBUUvCQPoA
9kBREYzB0S+SQM4vR0BdHq3Bg267QHyFiEBcQKnBZjGsQMuLsUBqhmLB297iQLmZo0CHAGjBiz+/
QG55EUHxQnfBPHyVQPnQAEGkp2zBZPiNQE69pz/MepTBOD6oQCjvK0AE/I3B1qFRQMHXlkACxKPB
UnR8QNYExkCE/n7Bbt0cQTNkIkG5NnnB2HYeQRlUE0FSymDBZqwkQay9BkHl3nnBLXAPQRWa9j/Q
hZ/BHH44QPakLEBuaJvBI2pPQIv7Z0DkCpHB

> <OMEGA_E>
gHPePsSR1T4=

> <OMEGA_NBR>
      9337

$$$$
50220156
  -OEChem-04172616093D

 43 46  0     1  0  0  0  0  0999 V2000
    6.6116   10.4788  -22.6207 C   0  0  0  0  0  0  0  0  0  0  0  0
    5.4073   -0.4513  -21.8521 C   0  0  0  0  0  0  0  0  0  0  0  0
    7.6312    9.8711  -21.8595 C   0  0  0  0  0  0  0  0  0  0  0  0
    5.2599   10.2907  -22.2687 C   0  0  0  0  0  0  0  0  0  0  0  0
    6.7987   -0.7151  -21.8249 C   0  0  0  0  0  0  0  0  0  0  0  0
    4.8864    0.6663  -21.1691 C   0  0  0  0  0  0  0  0  0  0  0  0
    7.3004    9.0690  -20.7494 C   0  0  0  0  0  0  0  0  0  0  0  0
    4.9278    9.4941  -21.1564 C   0  0  0  0  0  0  0  0  0  0  0  0
    7.6786    0.1302  -21.1083 C   0  0  0  0  0  0  0  0  0  0  0  0
    5.7858    1.4897  -20.4695 C   0  0  0  0  0  0  0  0  0  0  0  0
    5.9473    8.8840  -20.3935 C   0  0  0  0  0  0  0  0  0  0  0  0
    7.1612    1.2417  -20.4185 C   0  0  0  0  0  0  0  0  0  0  0  0
    6.8400    3.1394  -19.1509 C   0  0  0  0  0  0  0  0  0  0  0  0
    4.5414    5.7997  -19.0495 C   0  0  0  0  0  0  0  0  0  0  0  0
    4.8813    3.8229  -20.6168 C   0  0  0  0  0  0  0  0  0  0  0  0
    4.4482    2.4892  -18.6118 C   0  0  0  0  0  0  0  0  0  0  0  0
    3.8945    4.5662  -19.7103 C   0  0  1  0  0  0  0  0  0  0  0  0
    5.4795    2.7372  -19.7179 C   0  0  1  0  0  0  0  0  0  0  0  0
    5.5751    7.9421  -19.2788 C   0  0  0  0  0  0  0  0  0  0  0  0
    7.7710    2.2257  -19.6344 N   0  0  0  0  0  0  0  0  0  0  0  0
    3.4331    3.5668  -18.7098 N   0  3  0  0  0  0  0  0  0  0  0  0
    7.0997    4.1229  -18.4694 O   0  0  0  0  0  0  0  0  0  0  0  0
    4.5405    5.8982  -17.8249 O   0  0  0  0  0  0  0  0  0  0  0  0
    5.0419    6.7492  -19.8941 O   0  0  0  0  0  0  0  0  0  0  0  0
    6.8668   11.0890  -23.4744 H   0  0  0  0  0  0  0  0  0  0  0  0
    4.7446   -1.1073  -22.3968 H   0  0  0  0  0  0  0  0  0  0  0  0
    8.6666   10.0207  -22.1276 H   0  0  0  0  0  0  0  0  0  0  0  0
    4.4796   10.7571  -22.8517 H   0  0  0  0  0  0  0  0  0  0  0  0
    7.1916   -1.5694  -22.3560 H   0  0  0  0  0  0  0  0  0  0  0  0
    3.8286    0.8835  -21.1829 H   0  0  0  0  0  0  0  0  0  0  0  0
    8.0810    8.5964  -20.1717 H   0  0  0  0  0  0  0  0  0  0  0  0
    3.8921    9.3496  -20.8863 H   0  0  0  0  0  0  0  0  0  0  0  0
    8.7385   -0.0763  -21.0911 H   0  0  0  0  0  0  0  0  0  0  0  0
    4.3596    3.3741  -21.4749 H   0  0  0  0  0  0  0  0  0  0  0  0
    5.6655    4.5037  -20.9796 H   0  0  0  0  0  0  0  0  0  0  0  0
    3.9715    1.5081  -18.7538 H   0  0  0  0  0  0  0  0  0  0  0  0
    4.9370    2.5202  -17.6268 H   0  0  0  0  0  0  0  0  0  0  0  0
    3.0385    4.8990  -20.3157 H   0  0  0  0  0  0  0  0  0  0  0  0
    6.4647    7.6937  -18.6813 H   0  0  0  0  0  0  0  0  0  0  0  0
    4.8159    8.4047  -18.6310 H   0  0  0  0  0  0  0  0  0  0  0  0
    8.7521    2.2675  -19.4452 H   0  0  0  0  0  0  0  0  0  0  0  0
    2.5580    3.1794  -18.9999 H   0  0  0  0  0  0  0  0  0  0  0  0
    3.3235    4.0080  -17.8191 H   0  0  0  0  0  0  0  0  0  0  0  0
  1  3  1  0  0  0  0
  1  4  2  0  0  0  0
  2  5  1  0  0  0  0
  2  6  2  0  0  0  0
  3  7  2  0  0  0  0
  4  8  1  0  0  0  0
  5  9  2  0  0  0  0
  6 10  1  0  0  0  0
  7 11  1  0  0  0  0
  8 11  2  0  0  0  0
  9 12  1  0  0  0  0
 10 12  2  0  0  0  0
 10 18  1  0  0  0  0
 11 19  1  0  0  0  0
 12 20  1  0  0  0  0
 13 18  1  0  0  0  0
 13 20  1  0  0  0  0
 13 22  2  0  0  0  0
 14 17  1  0  0  0  0
 14 23  2  0  0  0  0
 14 24  1  0  0  0  0
 15 17  1  0  0  0  0
 15 18  1  0  0  0  0
 16 18  1  0  0  0  0
 16 21  1  0  0  0  0
 17 21  1  0  0  0  0
 19 24  1  0  0  0  0
  1 25  1  0  0  0  0
  2 26  1  0  0  0  0
  3 27  1  0  0  0  0
  4 28  1  0  0  0  0
  5 29  1  0  0  0  0
  6 30  1  0  0  0  0
  7 31  1  0  0  0  0
  8 32  1  0  0  0  0
  9 33  1  0  0  0  0
 15 34  1  0  0  0  0
 15 35  1  0  0  0  0
 16 36  1  0  0  0  0
 16 37  1  0  0  0  0
 17 38  1  0  0  0  0
 19 39  1  0  0  0  0
 19 40  1  0  0  0  0
 20 41  1  0  0  0  0
 21 42  1  0  0  0  0
 21 43  1  0  0  0  0
M  CHG  1  21   1
M  END
> <OMEGA_C>
LpLTQAqpJ0Ev97TBkwitQGgK574B0a7BYzL0QA7wHUFD4K7BalGoQI+mJEFRJrLBjY7ZQPgQN79U
ma7BqV2cQIyUKj9bWqnBeZzpQHQaEUG2/qXBmrCdQOznF0FDQKnB07b1QDxKBT7f3ajBeyW5QFiv
vj+XwaPBJlC+QAklDkHsJaPBXyjlQAjwnj8sWaPBH+HaQKDrSEAVNZnBDFORQDeXuUBUZZjBtDOc
QLWqdEAm76TB01eOQKFPH0Dt5JTBRkB5QHsekkCtrp3B0VevQP0uL0Bbvp3BXWeyQLol/kDiOprB
bKz4QFJyDkBSE53BG7hbQNJFZECwrZXBgTDjQDLvg0BUwZPBBEyRQCO+vEBcmY7Bf1ehQEP510AV
J5/BbrzbQLtsMUGgy7vBjtOXQGm8jb+2LLPBW6oKQZ9UIEFoBbHBLVmPQD0dLEFf0LbBpCHmQCnj
yL8Z2bLBbwd1QMsrYj+EdqnBv0sBQdOKCUGvX6HB9hh5QO+XFUE5F6fB89ALQXo5nL2ouqjBjIGL
QObxV0CWzKvBgku1QGgekEAo1qfBXi1+QFEKwT/gB5bB+vudQElLIUDAA43BP3dCQJrEnECAhqLB
y97OQJky9kBUc5XBpRuaQJB5BkFMDJXBkQgMQRAeEUDDj5vBTbYjQJZ7S0DG/5fB7rNUQFlBgECT
jY7BPsnRQFLBJ0HbALXBQ4SrQOnY3L6fi67BRtemQIiVJEHD8rHB3hHzQFUOHkFSIa/BMxDYQOpe
Mb95sK7BaW+bQLgrLD8nzajBUS6dQFGyF0E3B6nBL3TpQBUfEUHRNqbBxNb0QNJ9ET4RDanBD9G4
QHYwvj8vT6PBinm+QOYFDkEZHaPBXuXkQMY5nz9iTaPBL8/bQL3hSED1D5nBeIuSQHsfuUCMUZjB
5RidQEFgdECTz6TBbxWPQNonI0BqZJTB+H56QPVekkCHw53Bjt2vQEjML0BOZ53BR5WzQLTD/UDf
IJrBHiP5QIxlDkA/JJ3BFVNaQPJoZEBS/JXB5qbkQAaig0Abj5PBV0GSQP7pu0AMhI7BNyqkQPPe
1kAbAZ/ByTXZQGyfMUFW2bvBLNiVQAYUir/Y17LBoVyNQO8HLEGrcbbB2vsJQeeKIEGhd7HBWy3k
QDXGxL/EJLPBDSRzQAkPYz8OoKjBRoh4QPI0FUH0tKbBF3kBQa2WCUFPwqHBrWALQdf6hL0iKanB
mL2MQAvCVkDZqqvBt1a2QCzHj0BUuafB6kSBQOb9xD/X0pTBCICeQAwwLEDlj4zBlTtFQEzHnUD9
wqLBbD3QQHsX90BUTJXB+J2aQMPhBUGkAZXBSlcMQantEECy1ZvBrnolQDqOSEBI25jBRetMQM12
gEDGBY/B

> <OMEGA_E>
gGvcPAD96jw=

> <OMEGA_NBR>
      1795

$$$$
50220155
  -OEChem-04172616093D

 44 47  0     1  0  0  0  0  0999 V2000
    7.9385   10.9947  -23.2439 C   0  0  0  0  0  0  0  0  0  0  0  0
    5.2540   -0.4027  -21.7220 C   0  0  0  0  0  0  0  0  0  0  0  0
    6.6321   -0.7289  -21.6904 C   0  0  0  0  0  0  0  0  0  0  0  0
    8.1836    9.8378  -21.0934 C   0  0  0  0  0  0  0  0  0  0  0  0
    5.9918    9.9477  -22.1747 C   0  0  0  0  0  0  0  0  0  0  0  0
    4.7904    0.7640  -21.0832 C   0  0  0  0  0  0  0  0  0  0  0  0
    7.6288    9.0926  -20.0387 C   0  0  0  0  0  0  0  0  0  0  0  0
    5.4352    9.2109  -21.1155 C   0  0  0  0  0  0  0  0  0  0  0  0
    7.5565    0.1059  -21.0178 C   0  0  0  0  0  0  0  0  0  0  0  0
    7.3668   10.2601  -22.1631 C   0  0  0  0  0  0  0  0  0  0  0  0
    5.7322    1.5721  -20.4239 C   0  0  0  0  0  0  0  0  0  0  0  0
    6.2546    8.7835  -20.0483 C   0  0  0  0  0  0  0  0  0  0  0  0
    7.0961    1.2686  -20.3735 C   0  0  0  0  0  0  0  0  0  0  0  0
    6.8503    3.1734  -19.1011 C   0  0  0  0  0  0  0  0  0  0  0  0
    4.5726    5.8150  -18.8541 C   0  0  0  0  0  0  0  0  0  0  0  0
    4.8759    3.9203  -20.5271 C   0  0  0  0  0  0  0  0  0  0  0  0
    4.4673    2.5718  -18.5230 C   0  0  0  0  0  0  0  0  0  0  0  0
    3.9023    4.6451  -19.5926 C   0  0  1  0  0  0  0  0  0  0  0  0
    5.4739    2.8149  -19.6540 C   0  0  1  0  0  0  0  0  0  0  0  0
    5.6720    7.9162  -18.9750 C   0  0  0  0  0  0  0  0  0  0  0  0
    8.4091   11.5924  -24.1269 N   0  0  0  0  0  0  0  0  0  0  0  0
    7.7517    2.2497  -19.6215 N   0  0  0  0  0  0  0  0  0  0  0  0
    3.4152    3.6061  -18.6517 N   0  3  0  0  0  0  0  0  0  0  0  0
    7.1225    4.0799  -18.3236 O   0  0  0  0  0  0  0  0  0  0  0  0
    4.4207    5.9300  -17.6407 O   0  0  0  0  0  0  0  0  0  0  0  0
    5.2644    6.6989  -19.6215 O   0  0  0  0  0  0  0  0  0  0  0  0
    4.5582   -1.0490  -22.2362 H   0  0  0  0  0  0  0  0  0  0  0  0
    6.9811   -1.6235  -22.1845 H   0  0  0  0  0  0  0  0  0  0  0  0
    9.2345   10.0869  -21.0848 H   0  0  0  0  0  0  0  0  0  0  0  0
    5.3688   10.2734  -22.9945 H   0  0  0  0  0  0  0  0  0  0  0  0
    3.7436    1.0292  -21.0996 H   0  0  0  0  0  0  0  0  0  0  0  0
    8.2538    8.7582  -19.2239 H   0  0  0  0  0  0  0  0  0  0  0  0
    4.3820    8.9720  -21.1179 H   0  0  0  0  0  0  0  0  0  0  0  0
    8.6062   -0.1476  -20.9994 H   0  0  0  0  0  0  0  0  0  0  0  0
    4.3444    3.4924  -21.3899 H   0  0  0  0  0  0  0  0  0  0  0  0
    5.6600    4.6051  -20.8823 H   0  0  0  0  0  0  0  0  0  0  0  0
    4.0254    1.5691  -18.6193 H   0  0  0  0  0  0  0  0  0  0  0  0
    4.9668    2.6602  -17.5469 H   0  0  0  0  0  0  0  0  0  0  0  0
    3.0596    5.0325  -20.1841 H   0  0  0  0  0  0  0  0  0  0  0  0
    6.4273    7.7043  -18.2039 H   0  0  0  0  0  0  0  0  0  0  0  0
    4.8052    8.4114  -18.5130 H   0  0  0  0  0  0  0  0  0  0  0  0
    8.7406    2.2829  -19.4767 H   0  0  0  0  0  0  0  0  0  0  0  0
    2.5762    3.1937  -19.0068 H   0  0  0  0  0  0  0  0  0  0  0  0
    3.2325    4.0167  -17.7583 H   0  0  0  0  0  0  0  0  0  0  0  0
  1 10  1  0  0  0  0
  1 21  3  0  0  0  0
  2  3  1  0  0  0  0
  2  6  2  0  0  0  0
  3  9  2  0  0  0  0
  4  7  2  0  0  0  0
  4 10  1  0  0  0  0
  5  8  1  0  0  0  0
  5 10  2  0  0  0  0
  6 11  1  0  0  0  0
  7 12  1  0  0  0  0
  8 12  2  0  0  0  0
  9 13  1  0  0  0  0
 11 13  2  0  0  0  0
 11 19  1  0  0  0  0
 12 20  1  0  0  0  0
 13 22  1  0  0  0  0
 14 19  1  0  0  0  0
 14 22  1  0  0  0  0
 14 24  2  0  0  0  0
 15 18  1  0  0  0  0
 15 25  2  0  0  0  0
 15 26  1  0  0  0  0
 16 18  1  0  0  0  0
 16 19  1  0  0  0  0
 17 19  1  0  0  0  0
 17 23  1  0  0  0  0
 18 23  1  0  0  0  0
 20 26  1  0  0  0  0
  2 27  1  0  0  0  0
  3 28  1  0  0  0  0
  4 29  1  0  0  0  0
  5 30  1  0  0  0  0
  6 31  1  0  0  0  0
  7 32  1  0  0  0  0
  8 33  1  0  0  0  0
  9 34  1  0  0  0  0
 16 35  1  0  0  0  0
 16 36  1  0  0  0  0
 17 37  1  0  0  0  0
 17 38  1  0  0  0  0
 18 39  1  0  0  0  0
 20 40  1  0  0  0  0
 20 41  1  0  0  0  0
 22 42  1  0  0  0  0
 23 43  1  0  0  0  0
 23 44  1  0  0  0  0
M  CHG  1  23   1
M  END
> <OMEGA_C>
6gf+QFrqL0GT87nBACGoQCgozr6Zxq3BUDrUQISWOr/zha3BJPACQbtnHUE9v6jB2by/QLQpH0Gz
ZbHBTUuZQEOWQz9aqqjBKB/0QE57EUFNT6DBJe2tQA1gE0Gd7KjB9c7xQDTx2D1hJKjBt7zrQIop
JEHzTbHBj263QAw6yT86ZKPBeSXIQD2JDEH8YqDBORPjQD1goj/l/KLBxjXbQAIZS0Afz5jBh1KS
QCUUukA01ZbBfwecQH3lekCJN6TBOfSOQKiYJEAFL5TBnr95QLiklEC0vZzBGCqvQOEnNEBXO53B
s4C1QJxR/UDUzJfBs4sGQVN6OUHrA8HBpA34QJX7D0Da+JzBN5JaQC/KZkCZNpXBTOvjQImOgkDS
lpLBrHaNQJrCvUAZII3B4XWoQDhd1kDX+JzB19yRQFNFhr/V47HBFWXfQCXQz7/uebHBbMATQfhj
IUGsrajBhs2rQOtfJEHT9LfB15dvQO29gz/oy6jBwQ8EQYshDEGbypnBEDmMQFOND0Fu8ajB47IJ
QVsjF768/qfBHgWLQIuDX0CHHqvBwh61QCRdk0D8DqfBZ9CAQMTXyD9D9JTBU/CeQGlAKkATYIzB
69BDQNsJoUAGeaHBKqzNQDiJ9kChoZHBU8SZQEOVBkGGGpTBX9kLQeQaEkBK0JvB6eAkQDVmTED0
DZjBVeFOQNmIgEASEY7BlMn9QAInL0Hm5bnBMqinQNO9uL5S363BZKDTQFQCNL8+mK3BhFO/QGQx
H0GeDbHB+wADQVJ7HEGpv6jBwieZQBI4Tj9dsqjB1I2tQHGnE0F8fajBl0f0QOjREEELOKDBLG3x
QJgw8D0GJqjBa5PrQJGYI0EDLbHBQYG3QN+xzD+GW6PBuwvIQOeEDEFkEKDBngzjQK0YpD+a9aLB
7dbbQN9JTEClzZjBGDqSQNM7ukBSopbBD6OcQC7wfEB1KKTBV4GPQEb0JkB5FJTB0/R5QCc8lUAo
vJzBpKGvQJX3NUDGLJ3Bn221QJR7/UCMcJfB/l4GQdaVOEH+BMHB8lb4QL1REEDh7JzBCvxZQG/8
ZkCMbJXBCObkQANMg0AAqJLBBISNQGsrvUAE6IzBdEOoQNvR1kBurpzBxTqRQD+gfr9WDrLBA4be
QKyszL/ik7HB/SurQBWrJEEVhLfBAOwTQXT+H0Hv2ajBgH1vQKdoij/206jBRK2LQEA/EEGKWqjB
a0AEQTYtC0FWzpnBL3UJQX02GL56+qfB+A6MQOjIYUC6I6vBsry1QKCelEDJ4KbBj0OCQIe1yz/j
l5TBCkefQPCQL0BsSYzBP6tEQH/yoUAkh6HBM6LNQD+E9kDcSpHBUM6ZQPa0BkFutpPBnvwLQfuQ
EUCVupvBmCcmQOMeS0DEkZjBVAVLQAhOgED4VY7BVl31QI4uL0HX0rfBYuGnQDVHa7/H7KnBQBvT
QD6xor/n9qfBoVQAQYUOE0HOS6rBLqi6QCc9JEGvBazBSKSYQOb1uj6wJKfB6c7wQLM+BkGZ6aHB
zQarQLSsF0Eik6PBj3LvQH8qsL4wNKPBOYblQDsLIkEMWq/BDZS1QLGOoj+2caLBLgHGQMmqCEFU
hJ7B5GbgQASGbz/EbKDBa+jYQHVZRUBZD5rB7wqSQPDlwEBLtKHB6T6eQDGfZ0CLqafBrZWJQGJ0
L0C6W5bBCSN/QCykk0AaHKLB5UitQKsMK0A/t57BJbyzQGZQ9EC/BZbB/AYBQWcEOkFPuL7B6dv0
QMRwAUBHppvB60ByQLcIhEDw7ZbB68LiQA4KhEBqkpXB5zeJQDQN2UBxHqnB+b2vQMXsyEBx2ZnB
gX6SQE9W0b+Cj63B2njeQGdLEMCmH6rBOcEQQW9sEUGy2qzBdd6lQPmRL0Hk9q/BZYJvQPDuJD+u
lKjBfakCQeo79UBkGZ7BaE+KQJJ/GUGt8aDBHy4IQUagHb94tqHBqV2NQFSyQ0DI8a3BK6G5QJDU
hECGMavBOC9gQIpfAUBmRJjBik+WQE3dIUDTVI7BY6pBQAgUlEDKZabBOQfJQLWp9EAEBI/Bt+qT
QJoUAEEzs5PB8OcJQbxKAkBmn5nB3/QzQC17hECEGZXBkymJQJavlkDxz5HB

> <OMEGA_E>
gM0FPcBkCz1oEwM/

> <OMEGA_NBR>
      2601

$$$$
50220166
  -OEChem-04172616093D

 47 50  0     1  0  0  0  0  0999 V2000
    7.0292    6.7054  -17.4196 C   0  0  0  0  0  0  0  0  0  0  0  0
    5.1297   -0.5737  -21.7763 C   0  0  0  0  0  0  0  0  0  0  0  0
    6.4986   -0.9383  -21.7805 C   0  0  0  0  0  0  0  0  0  0  0  0
    4.7050    0.5797  -21.0853 C   0  0  0  0  0  0  0  0  0  0  0  0
    7.4530   -0.1590  -21.0880 C   0  0  0  0  0  0  0  0  0  0  0  0
    5.6784    1.3401  -20.4157 C   0  0  0  0  0  0  0  0  0  0  0  0
    7.0339    0.9922  -20.4014 C   0  0  0  0  0  0  0  0  0  0  0  0
    6.8956    2.9120  -19.1530 C   0  0  0  0  0  0  0  0  0  0  0  0
    4.7054    5.6259  -18.9506 C   0  0  0  0  0  0  0  0  0  0  0  0
    5.6072    7.9840  -14.2962 C   0  0  0  0  0  0  0  0  0  0  0  0
    5.4330    8.6731  -15.6608 C   0  0  0  0  0  0  0  0  0  0  0  0
    6.4876    6.7291  -14.4148 C   0  0  0  0  0  0  0  0  0  0  0  0
    4.8486    7.7011  -16.7051 C   0  0  0  0  0  0  0  0  0  0  0  0
    5.9043    5.7509  -15.4530 C   0  0  0  0  0  0  0  0  0  0  0  0
    4.9538    3.7317  -20.5980 C   0  0  0  0  0  0  0  0  0  0  0  0
    4.4643    2.4822  -18.5398 C   0  0  0  0  0  0  0  0  0  0  0  0
    3.9786    4.5123  -19.7168 C   0  0  1  0  0  0  0  0  0  0  0  0
    5.7026    6.4062  -16.8459 C   0  0  0  0  0  0  0  0  0  0  0  0
    5.4878    2.6198  -19.6794 C   0  0  1  0  0  0  0  0  0  0  0  0
    8.0764    6.9397  -17.8758 N   0  0  0  0  0  0  0  0  0  0  0  0
    7.7387    1.9325  -19.6528 N   0  0  0  0  0  0  0  0  0  0  0  0
    3.4098    3.4978  -18.7930 N   0  3  0  0  0  0  0  0  0  0  0  0
    7.2641    3.8377  -18.4461 O   0  0  0  0  0  0  0  0  0  0  0  0
    5.0745    6.5947  -19.6067 O   0  0  0  0  0  0  0  0  0  0  0  0
    4.9815    5.3997  -17.6180 O   0  0  0  0  0  0  0  0  0  0  0  0
    4.4091   -1.1811  -22.3039 H   0  0  0  0  0  0  0  0  0  0  0  0
    6.8159   -1.8198  -22.3178 H   0  0  0  0  0  0  0  0  0  0  0  0
    3.6647    0.8695  -21.0713 H   0  0  0  0  0  0  0  0  0  0  0  0
    8.4941   -0.4459  -21.0870 H   0  0  0  0  0  0  0  0  0  0  0  0
    6.0797    8.6888  -13.5961 H   0  0  0  0  0  0  0  0  0  0  0  0
    4.6182    7.6933  -13.9122 H   0  0  0  0  0  0  0  0  0  0  0  0
    4.7516    9.5290  -15.5463 H   0  0  0  0  0  0  0  0  0  0  0  0
    6.4132    9.0291  -16.0108 H   0  0  0  0  0  0  0  0  0  0  0  0
    7.4996    7.0262  -14.7273 H   0  0  0  0  0  0  0  0  0  0  0  0
    6.5379    6.2294  -13.4362 H   0  0  0  0  0  0  0  0  0  0  0  0
    3.8298    7.4220  -16.3983 H   0  0  0  0  0  0  0  0  0  0  0  0
    4.8117    8.2089  -17.6802 H   0  0  0  0  0  0  0  0  0  0  0  0
    6.5931    4.9001  -15.5607 H   0  0  0  0  0  0  0  0  0  0  0  0
    4.9307    5.3908  -15.0891 H   0  0  0  0  0  0  0  0  0  0  0  0
    4.4354    3.3029  -21.4683 H   0  0  0  0  0  0  0  0  0  0  0  0
    5.7731    4.3801  -20.9420 H   0  0  0  0  0  0  0  0  0  0  0  0
    4.0274    1.4727  -18.5416 H   0  0  0  0  0  0  0  0  0  0  0  0
    4.9480    2.6707  -17.5701 H   0  0  0  0  0  0  0  0  0  0  0  0
    3.1843    4.9497  -20.3395 H   0  0  0  0  0  0  0  0  0  0  0  0
    8.7260    1.9042  -19.4964 H   0  0  0  0  0  0  0  0  0  0  0  0
    2.6119    3.0643  -19.2117 H   0  0  0  0  0  0  0  0  0  0  0  0
    3.1406    3.9320  -17.9333 H   0  0  0  0  0  0  0  0  0  0  0  0
  1 18  1  0  0  0  0
  1 20  3  0  0  0  0
  2  3  1  0  0  0  0
  2  4  2  0  0  0  0
  3  5  2  0  0  0  0
  4  6  1  0  0  0  0
  5  7  1  0  0  0  0
  6  7  2  0  0  0  0
  6 19  1  0  0  0  0
  7 21  1  0  0  0  0
  8 19  1  0  0  0  0
  8 21  1  0  0  0  0
  8 23  2  0  0  0  0
  9 17  1  0  0  0  0
  9 24  2  0  0  0  0
  9 25  1  0  0  0  0
 10 11  1  0  0  0  0
 10 12  1  0  0  0  0
 11 13  1  0  0  0  0
 12 14  1  0  0  0  0
 13 18  1  0  0  0  0
 14 18  1  0  0  0  0
 15 17  1  0  0  0  0
 15 19  1  0  0  0  0
 16 19  1  0  0  0  0
 16 22  1  0  0  0  0
 17 22  1  0  0  0  0
 18 25  1  0  0  0  0
  2 26  1  0  0  0  0
  3 27  1  0  0  0  0
  4 28  1  0  0  0  0
  5 29  1  0  0  0  0
 10 30  1  0  0  0  0
 10 31  1  0  0  0  0
 11 32  1  0  0  0  0
 11 33  1  0  0  0  0
 12 34  1  0  0  0  0
 12 35  1  0  0  0  0
 13 36  1  0  0  0  0
 13 37  1  0  0  0  0
 14 38  1  0  0  0  0
 14 39  1  0  0  0  0
 15 40  1  0  0  0  0
 15 41  1  0  0  0  0
 16 42  1  0  0  0  0
 16 43  1  0  0  0  0
 17 44  1  0  0  0  0
 21 45  1  0  0  0  0
 22 46  1  0  0  0  0
 22 47  1  0  0  0  0
M  CHG  1  22   1
M  END
> <OMEGA_C>
J+/gQLGS1kBiW4vBPiakQMTdEr/INa7Bh/TPQKwxcL9xPq7BrI+WQIhnFD/CrqjBm37uQB7PIr5N
tKjBErW1QFmHqz9aU6PB7RXhQNb/fT/7NaPBB6ncQLleOkBTOZnB6ZKWQLUHtEDPmpfBXW6zQNZ8
/0ATvWTBItutQCnFCkGpknrBrJrPQCNV10Afo2bBzyebQHdv9kAkpIXBTfC8QMYHuECFP3fB1IWe
QJfTbkC+yKTBPtuOQObcHkCJUZTB46B+QF9kkED+u53Benu2QI//zEB5xIbBq5uvQLaqJ0BRb53B
DzkBQagR3kCZAY/BKaP3QJhd9z//OJ3B7TpaQMLcX0AhWJbBLXPoQBqcdUCNkZPB/GGiQHIH00B3
2pzBRmifQIvKrECc8YzBsReNQP8sl79JbrLBnhvaQPnt6L/UirLB3YpqQFeUXj8EkqjB+ucHQUxT
5L4jsqjBoYzCQDEFC0GiiVnBjsiTQJcv9kB9mF7BuAyYQMp2GEF3vXjBvDjNQGN3EEEpFoDB2vzv
QO7W4EDlomvBvDbRQGpXx0CW+lbBiht1QB+B7UDAL4PBpPmZQM1XA0EScY3BuPrSQGrNnEDN+HjB
r8idQFyBrEAGbXHB7O6NQAFjU0Acv6vBN724QLopjEBNiafBc+CAQJaBvD8bVZTBUVaeQFLtKkB5
j4zB0stLQNxjnkBet6LBg50LQVi98z+x+JvBKyknQDwdRECQsZnBUwBJQGWle0B7d4/BjfW8QNCJ
oUA8dX/B0GalQKf2D79jaK7B8mjRQCPgZr/CVa7BPAaXQNwOFz9P/6jBJ1rvQMwiyb2AzqjBaZm1
QNECsD/6p6PB+iLhQNB9hj9mZ6PBQF7bQJZUP0DAppnBhOuVQInHskB52ZbBND/AQKv9B0Ew7GvB
UKXfQDfE/UBpcXzBWUSiQHm/7EDGx2PB6KfHQAeR6UA4uIfBxyuJQFMC2UDVkXbBNDmbQOZNb0CU
1qTB0OiOQBVgHUB/ZJTB47B7QDdrkEBmPZ3BQYKmQCjYxkAJMoTBDHuuQFUrKUCosp3Bn/jOQIDe
hEDInHfBsej2QIhtAEAOX53BtcpZQAdzXkC/4ZXBL3bmQBTufEBvSpTBFYOtQM3MykAx5ZvBVj6I
QFlmuUBKhYzBKtCOQCAKmL8hnrLBFjHcQPg25L/YirLBICRrQC9wXD9S9ajBaWsIQX7uur7lvKjB
21fSQDyiDkHeXV7BwiOtQIu8FEGRaHPBjjH0QBbhC0FQMYHB+pDzQE4s5UBQvXTBskm1QEun00AB
6lvBJJyLQE+K+kDUNVjBU5O2QKKCAUGbC4zBVjLfQNqP2kB5FI3BckhqQPzcvkAXXHDBfjZpQEbl
8UB8lX3BD96IQEsoU0C7eKvBRmm0QHaOjEAvE6jB7hGBQBRUuT9Hl5TB8UifQFdjJ0A7tIzBuUdH
QDZKn0ASyqHB+S4LQYYz/j8j6pvB674lQMc7Q0BlD5nBobVKQFvXeEB+147Bl/KPQL9msEAs9nLB
TFukQNoFFL9viK3BemPQQCrTab9rzq3B5qSWQCcsFj/wLqjBzPfuQDBgzr0llajBIde1QH/PsD9c
K6PBrVnhQITAhj/GIqPBr1/cQIjBPkCZLZnBTyiVQFk6sUC80ZXBFkDPQEgyB0F1tnHB6lnhQLeQ
4EAW3G/B/VaeQOx5B0GrF3XBKufTQICpxECNnYHBcSaRQLfe8kAPK4TBrsedQG4YckCxfqTBV2mO
QL7yHkCiQZTBwLd8QFnMkEC6O53BvKeiQMRexEBW/oLBRWKvQNwsKkBQS53B2JKBQAMmoEDDy2PB
iLD3QIyiAEAHO53Bth9WQGx0W0C7x5bBVB3oQARKfkC3Q5TB3XWpQDl+zkCK8ZnBK7uUQETKpkB5
KYvBND6NQIyym79VbrHBF7PaQHQb5r8jC7LBU3BqQAQLXD858qfB2zwIQdVyur7oxqjBN8DWQN/0
D0Fi6mLBtpneQIE0D0GIYH/BpD4CQQIx4kDcNG/Bxi7VQCLK0UDkFmHBVJ+OQJBcAUF7lGbBjPeT
QNsIGEEBCnjBc6riQCKl0UA+6ojBORjfQOSvo0CAVIDBeglcQMLE8UBipITB2A2eQMmHAEEIjIvB
REmNQK1mV0A5hKvBwqa3QL1pjkC5J6fB5XCCQCWEuT8GFpTB5NWcQC/BLkDheYzBt7tLQGAroUC1
DKLBZ6wLQb6+/z8cEZzBN3woQNe/PUDD+5rBe/08QErwckCtCJDB74mkQCo7o0DrbG/BX5yjQGWT
t76Kaa/BuYbOQBCXT78G567BqhOXQHJUTT9n0anBHyPtQPya8b0dsajBQ1m2QHODvT8G16PBIa3g
QIcyhD9MC6PBp4TdQKG3OkBkmZjBpqqTQDw5skAYK5TBg3vVQHHWCUG6uITBRxPrQOTi6UAhcojB
XiekQEGKCEFhmoTBd4rcQMDWxEAKWIHBcSSTQGVx6UCLJH3B/0ahQJq5e0BIkqPBTSCPQFoeHkAy
bpTBVEl/QPaAkkBzQpzBlx2rQBqjvkDzDoHBTdawQI8rLUDkMZ3B336gQBLQjUBkS2DBOVL3QCXH
8T/6TpzBQPxXQGJsW0B1qZbB52XqQDiaeEAWlZPBG2eeQG/C1EBG4JfBwOCYQAEPpECRuonB4GqM
QJ95Z7+RGbTBPu/XQHiz2L9NTLPBPPBsQPw2lD/UHqrBU+MGQYli8L6iSqjBqZngQJZ/DUF6JnnB
TBnfQP3MFkGyKorBIgriQJxK40AkypDBggQHQQ5V7UB244fBWYyXQO3+FkEgsoDBPauYQEzhB0E4
6ozBVy7rQM8vp0DrW4TBD7vnQHLyykBbSHLBwNyVQC6y70BM4GvBKoJiQDAz5UC1s4DBROeSQNEJ
aEDSN6vBG9q7QMQclECeG6XBMCuDQD/utz+eyJTBaPGcQOJiKkC7e4zBd0JPQBZBo0AFJaHBmBcL
QaRU4z/OZZrBFqYrQJkJQEBTTpvBewE9QB2xbkCs0Y/B

> <OMEGA_E>
AE9TPfySrz6QEcA+YFgHPw==

> <OMEGA_NBR>
      3535

$$$$
50220157
  -OEChem-04172616093D

 44 47  0     1  0  0  0  0  0999 V2000
    8.2153   10.9355  -22.5022 C   0  0  0  0  0  0  0  0  0  0  0  0
    5.1399   -0.3323  -21.9010 C   0  0  0  0  0  0  0  0  0  0  0  0
    6.5043   -0.7123  -21.9282 C   0  0  0  0  0  0  0  0  0  0  0  0
    8.4232    9.7123  -20.3880 C   0  0  0  0  0  0  0  0  0  0  0  0
    4.7306    0.7739  -21.1307 C   0  0  0  0  0  0  0  0  0  0  0  0
    7.8643    8.9132  -19.3751 C   0  0  0  0  0  0  0  0  0  0  0  0
    7.4696    0.0100  -21.1868 C   0  0  0  0  0  0  0  0  0  0  0  0
    5.6919    9.0369  -20.4890 C   0  0  0  0  0  0  0  0  0  0  0  0
    7.6230   10.1549  -21.4634 C   0  0  0  0  0  0  0  0  0  0  0  0
    5.7125    1.4714  -20.4071 C   0  0  0  0  0  0  0  0  0  0  0  0
    6.4993    8.5725  -19.4294 C   0  0  0  0  0  0  0  0  0  0  0  0
    7.0651    1.1174  -20.4200 C   0  0  0  0  0  0  0  0  0  0  0  0
    6.2523    9.8117  -21.5160 C   0  0  0  0  0  0  0  0  0  0  0  0
    6.9259    2.9312  -19.0063 C   0  0  0  0  0  0  0  0  0  0  0  0
    4.7101    5.5752  -18.5451 C   0  0  0  0  0  0  0  0  0  0  0  0
    4.9898    3.8602  -20.3777 C   0  0  0  0  0  0  0  0  0  0  0  0
    4.5068    2.4349  -18.4381 C   0  0  0  0  0  0  0  0  0  0  0  0
    4.0007    4.5379  -19.4274 C   0  0  1  0  0  0  0  0  0  0  0  0
    5.5267    2.6776  -19.5617 C   0  0  1  0  0  0  0  0  0  0  0  0
    5.9131    7.6215  -18.4307 C   0  0  0  0  0  0  0  0  0  0  0  0
    8.6994   11.5706  -23.3512 N   0  0  0  0  0  0  0  0  0  0  0  0
    7.7745    2.0044  -19.6032 N   0  0  0  0  0  0  0  0  0  0  0  0
    3.4266    3.4282  -18.6347 N   0  3  0  0  0  0  0  0  0  0  0  0
    7.2578    3.7864  -18.1946 O   0  0  0  0  0  0  0  0  0  0  0  0
    4.6254    5.5041  -17.3218 O   0  0  0  0  0  0  0  0  0  0  0  0
    5.4076    6.5277  -19.2105 O   0  0  0  0  0  0  0  0  0  0  0  0
    5.1454   10.3429  -22.9860 Br  0  0  0  0  0  0  0  0  0  0  0  0
    4.4128   -0.8913  -22.4713 H   0  0  0  0  0  0  0  0  0  0  0  0
    6.8110   -1.5617  -22.5205 H   0  0  0  0  0  0  0  0  0  0  0  0
    9.4665    9.9878  -20.3433 H   0  0  0  0  0  0  0  0  0  0  0  0
    3.6943    1.0764  -21.0974 H   0  0  0  0  0  0  0  0  0  0  0  0
    8.4790    8.5626  -18.5593 H   0  0  0  0  0  0  0  0  0  0  0  0
    8.5078   -0.2866  -21.2098 H   0  0  0  0  0  0  0  0  0  0  0  0
    4.6395    8.7955  -20.5097 H   0  0  0  0  0  0  0  0  0  0  0  0
    4.4815    3.5099  -21.2882 H   0  0  0  0  0  0  0  0  0  0  0  0
    5.8029    4.5479  -20.6532 H   0  0  0  0  0  0  0  0  0  0  0  0
    4.1023    1.4141  -18.5051 H   0  0  0  0  0  0  0  0  0  0  0  0
    4.9812    2.5776  -17.4560 H   0  0  0  0  0  0  0  0  0  0  0  0
    3.2118    5.0339  -20.0119 H   0  0  0  0  0  0  0  0  0  0  0  0
    6.6857    7.2720  -17.7300 H   0  0  0  0  0  0  0  0  0  0  0  0
    5.0998    8.1039  -17.8688 H   0  0  0  0  0  0  0  0  0  0  0  0
    8.7646    1.9758  -19.4659 H   0  0  0  0  0  0  0  0  0  0  0  0
    2.6629    3.0123  -19.1285 H   0  0  0  0  0  0  0  0  0  0  0  0
    3.1065    3.7674  -17.7502 H   0  0  0  0  0  0  0  0  0  0  0  0
  1  9  1  0  0  0  0
  1 21  3  0  0  0  0
  2  3  1  0  0  0  0
  2  5  2  0  0  0  0
  3  7  2  0  0  0  0
  4  6  2  0  0  0  0
  4  9  1  0  0  0  0
  5 10  1  0  0  0  0
  6 11  1  0  0  0  0
  7 12  1  0  0  0  0
  8 11  2  0  0  0  0
  8 13  1  0  0  0  0
  9 13  2  0  0  0  0
 10 12  2  0  0  0  0
 10 19  1  0  0  0  0
 11 20  1  0  0  0  0
 12 22  1  0  0  0  0
 13 27  1  0  0  0  0
 14 19  1  0  0  0  0
 14 22  1  0  0  0  0
 14 24  2  0  0  0  0
 15 18  1  0  0  0  0
 15 25  2  0  0  0  0
 15 26  1  0  0  0  0
 16 18  1  0  0  0  0
 16 19  1  0  0  0  0
 17 19  1  0  0  0  0
 17 23  1  0  0  0  0
 18 23  1  0  0  0  0
 20 26  1  0  0  0  0
  2 28  1  0  0  0  0
  3 29  1  0  0  0  0
  4 30  1  0  0  0  0
  5 31  1  0  0  0  0
  6 32  1  0  0  0  0
  7 33  1  0  0  0  0
  8 34  1  0  0  0  0
 16 35  1  0  0  0  0
 16 36  1  0  0  0  0
 17 37  1  0  0  0  0
 17 38  1  0  0  0  0
 18 39  1  0  0  0  0
 20 40  1  0  0  0  0
 20 41  1  0  0  0  0
 22 42  1  0  0  0  0
 23 43  1  0  0  0  0
 23 44  1  0  0  0  0
M  CHG  1  23   1
M  END
> <OMEGA_C>
9nEDQfL3LkF4BLTBJHqkQFYoqr41Na/BTiPQQHRbNr/obK/BmsUGQWxlG0G4GqPBt2CXQPkeRj+t
C6nBMKj7QIqcDkEfAJvBlAbvQAT7IzyifqnBJCS2QEKXEEFp6aPBP+/zQFV6IkEGtavBKc22QIhW
vD+6QaPBjvrPQPEoCUFub5vBGRXiQEwIjz83XKPB8hLIQI78HEGuIKzBm6DdQFqYO0D5DJjB+7iW
QAZoskBwXJTBJKyfQOMNd0CABaPBGDiQQJrUG0A6gZPBrQWAQFI2kUBEa5vBgtqwQINdK0BRfpzB
Izi9QDrj80AMcpPBrzALQQYhOUFDz7rBicj4QLFHAEBL05zBuk1bQORnW0DlE5XBC0DoQA5UckCQ
jpHBYgOUQGEhsEASk4rBRgutQDbj0EAGr5nBDaekQFx8JUFQ47fBiTWNQMYpZL9GxbPBy/PZQFnm
x78LKrTB8XYXQSHOH0Elv6LB4G9sQL/IiT99x6jBFKoHQTcACUFeeZTBzR8IQeDAkr6WranBYXaU
QE66DEHmE6TB1WiPQGKiYEAxTqrBMLG5QLmIkUCuOaXBAUaDQHwCtT9aCpTBIGafQMf2JEDMpYvB
iI5NQFUVoUBsGKDBjPHVQIW06EAZ143BLjGjQL6pAUFU847BzzsMQZjn/D8rupvBdW0qQL3JQEAh
B5nBI9BGQIgdcUBWAI7B38wBQe33LUG/L7PBukSoQF8IA79H0K/B5JzUQB1zTr8L3a/BlNMCQXbj
GUE4WKLBRICYQNjEDT96mKnBOsbwQOg/DkFbQJrBXKXxQAQO9rywzKnBOCeuQB/FD0GKb6TBHqfu
QCDdIEF5Z6vBqv21QDwWpT95gqPBIMzEQG6ECUEKLpvBxhniQNRohT8TrKPBVu3CQAlyG0EvjKzB
otXYQH2OL0DZqJfBoOKlQFnMuEC/75nBnhehQNUkaUC3CKXB9nKIQOc/HUDvjZXBLBaJQPJflEBU
7Z3BVOitQAinIUCWW53B5HmtQLem/UA07ZHBlEYKQYraOEG1drnBerL2QLqn/D8xG53BwSRxQHm1
dkBdm5TBnpXfQL3/VEDVNY/BAubMQIggtkD895rB7M+RQI9L20BAgpXBpM6iQG9xJEEZzbjBQoOS
QHaOjb8WjrTBoGDgQJcE0b9nlbTBV6oTQdZ8HUHrnqHBU6htQFP5Sz8mg6nB0jcBQfftCEFNUZPB
RbUJQSrNhL5g4anBjMyMQDGWC0E9TKXBTyyMQHeTUEASaavBNIa9QM6Qg0D1nqjBR1VeQK9g5j9G
sZjB+y+TQJ5TBUDAuY3BIzlcQCsCokADcKLBBErFQFJ88EAOWIzBwvCZQHrlCkGwyI3B4TYLQfmY
BECFbpzBPiUxQDAOd0CeppTBvCiDQHxRiEDbyY3BaE4BQWMDOkF/dLPB33KYQNJVw76W+63B1CLB
QLfGgL/np63BNM/UQCotG0Gzuq/BUEiRQHkTUj9sVKjB9ovCQMmCDEH2i6jBKP7iQGEF3r6UsqfB
pzToQFyoHUF6uZnBC7TwQBAxK0GQ9qvB/ZKzQGharz8TfqLBNKfMQHd4DUGSf53BgwfcQNyJRD++
FKLBT0r6QEqDLEHH56DBQ/3hQO8QK0CivZfBwWaWQOJIt0Asu5XBu3moQETDd0AQy6LBAl+TQCG1
JUCHz5LB01+EQJVLkkDYh5zBORy0QFVzKEDpAZzB19u4QBPE+0AYnJXBVX4IQZ7/RUE8ornBRQT3
QB79xT8crpvBhs1gQOxWYEDk+5XBoKjxQBOcYUCQ4pHBDKCSQAzltkAz8ovBiqGpQJT91kC9bJvB
ILkPQWVNQkFFcJvBMLF9QP5+U7+BkbLB+lbGQOqM9r8k/bHBe3PNQBIsGkH/J7jBwshkQHf7pj/b
eqjBDLSsQAlyAEF3c6vBAPcAQWoCar9UdafBkn3vQIeuHkFPS5HB+jidQF9ZZEA+xarBeUvEQMgv
kUBboaPBPweHQF+hyD+dwpHBVDOiQOh8O0D1TovB7bRZQAwwn0CxOqLBIwzRQCy98UCEuo/BSfud
QFmcBUFqcZHBesoKQX9iqT9PIJrB1+00QLXhQEDTR5rBXidFQEGXeUAAf4/BOZjxQIWhRkFrp6bB
Dt2iQDcgFr9cJa3BiGjOQKVSe7+6HK3BmAjHQE75JUHXrajBsx6WQJoGGT8j4afBM9a+QM10EEFh
IKbBW5DtQI19Sb7w06fBCgL9QOcjEEFMRprBdSXqQEaqMEETBqTBrc21QBhurj+uuKLBJ0zZQOah
BUH4tJ7BsAThQMvLfD+CmqLBHL8CQfWfJUHM3pzBqDDeQAFTPUAHB5nBe6aUQLwetEChY5bBaQ6d
QJH3cEAczqPB0L6RQEN6IEAeH5PBkRt7QKvij0CpY5zBRGKwQMCwKUDqvJzBIlbQQJyP3UCsipvB
oGj3QCqKWEF70qjB4mP4QJA3+D/13JzBMfpaQKYOXEAZHJXBYD/qQDdseUDBgJPBKNyWQGv5s0DI
k4zBDw2jQHcV1UAucJzBKgQbQYVeM0EYhZbBw1eLQBOumL+CNrHB0+DXQP3V8b8KJ7HBLGqyQItU
LkF0Nq7B0gZqQPVUaD+5z6fBm1ikQHAwCEER1KnBDloHQa3QAL/WzKfBUvoIQaqrB0HP3JTB+zaM
QE1fVUBNuKrBEiq2QGdqjkAUoabB7QCGQKqJvD8njJLB1EqiQJjUMUDcqYvBbz5GQPpDnUBHJKHB
6gviQFLSx0CF3KDBgKDaQJ1i2EDoOZPBK/8LQTho8j87qZvBhl0qQLK4PEACiZjB1ktHQEz2dUBw
OI7B

> <OMEGA_E>
AN1mPPBvtj50jwU/DN8YPw==

> <OMEGA_NBR>
      3380

$$$$
50220693
  -OEChem-04172616093D

 66 69  0     1  0  0  0  0  0999 V2000
    9.1855   -0.4265  -19.8105 C   0  0  0  0  0  0  0  0  0  0  0  0
    5.5984    0.1634  -22.0561 C   0  0  0  0  0  0  0  0  0  0  0  0
    8.7153    0.5957  -18.9640 C   0  0  0  0  0  0  0  0  0  0  0  0
    6.4523   -0.8993  -22.3876 C   0  0  0  0  0  0  0  0  0  0  0  0
    9.6582   -0.1113  -21.1001 C   0  0  0  0  0  0  0  0  0  0  0  0
    5.0113   -0.9581  -19.9722 C   0  0  0  0  0  0  0  0  0  0  0  0
    9.1981    2.2485  -20.6951 C   0  0  0  0  0  0  0  0  0  0  0  0
    4.8761    0.1278  -20.8480 C   0  0  0  0  0  0  0  0  0  0  0  0
    8.7197    1.9370  -19.4066 C   0  0  0  0  0  0  0  0  0  0  0  0
    6.5806   -1.9979  -21.5158 C   0  0  0  0  0  0  0  0  0  0  0  0
    5.8524   -2.0452  -20.3060 C   0  0  0  0  0  0  0  0  0  0  0  0
    9.6576    1.2264  -21.5438 C   0  0  0  0  0  0  0  0  0  0  0  0
    6.0864    2.9217  -17.5991 C   0  0  0  0  0  0  0  0  0  0  0  0
    6.6330    4.2125  -19.7776 C   0  0  0  0  0  0  0  0  0  0  0  0
    7.5556    4.9963  -17.6155 C   0  0  0  0  0  0  0  0  0  0  0  0
    4.8070    2.7101  -18.4185 C   0  0  0  0  0  0  0  0  0  0  0  0
    5.9507    3.0971  -20.5971 C   0  0  2  0  0  0  0  0  0  0  0  0
    7.1627    3.7434  -18.3958 C   0  0  1  0  0  0  0  0  0  0  0  0
    5.0467    3.7886  -21.6440 C   0  0  0  0  0  0  0  0  0  0  0  0
    3.7129   -3.8899  -19.1296 C   0  0  0  0  0  0  0  0  0  0  0  0
    5.5652   -4.5246  -17.5536 C   0  0  0  0  0  0  0  0  0  0  0  0
    9.1634    5.6263  -15.8253 C   0  0  0  0  0  0  0  0  0  0  0  0
    4.1684    1.3441  -20.3522 C   0  0  0  0  0  0  0  0  0  0  0  0
    5.0279   -3.4170  -18.4673 C   0  0  0  0  0  0  0  0  0  0  0  0
    8.4445    2.9728  -18.5195 N   0  0  3  0  0  0  0  0  0  0  0  0
    8.5002    4.5553  -16.5962 N   0  0  2  0  0  0  0  0  0  0  0  0
    5.2240    2.1345  -19.6988 N   0  3  2  0  0  0  0  0  0  0  0  0
   10.7417    3.8888  -17.7560 O   0  0  0  0  0  0  0  0  0  0  0  0
    9.4987    2.1758  -16.2733 O   0  0  0  0  0  0  0  0  0  0  0  0
    7.4252   -3.0110  -21.8414 O   0  0  0  0  0  0  0  0  0  0  0  0
    6.0437   -3.1384  -19.4700 O   0  0  0  0  0  0  0  0  0  0  0  0
   10.1192    1.5350  -22.7763 F   0  0  0  0  0  0  0  0  0  0  0  0
    9.5076    3.3100  -17.2069 S   0  0  0  0  0  0  0  0  0  0  0  0
    9.1838   -1.4519  -19.4715 H   0  0  0  0  0  0  0  0  0  0  0  0
    5.4956    1.0052  -22.7248 H   0  0  0  0  0  0  0  0  0  0  0  0
    8.3512    0.3542  -17.9763 H   0  0  0  0  0  0  0  0  0  0  0  0
    7.0112   -0.8749  -23.3115 H   0  0  0  0  0  0  0  0  0  0  0  0
   10.0211   -0.8950  -21.7486 H   0  0  0  0  0  0  0  0  0  0  0  0
    4.4703   -0.9648  -19.0375 H   0  0  0  0  0  0  0  0  0  0  0  0
    9.2117    3.2747  -21.0312 H   0  0  0  0  0  0  0  0  0  0  0  0
    5.8328    3.4668  -16.6780 H   0  0  0  0  0  0  0  0  0  0  0  0
    6.5091    1.9398  -17.3395 H   0  0  0  0  0  0  0  0  0  0  0  0
    7.4815    4.6007  -20.3601 H   0  0  0  0  0  0  0  0  0  0  0  0
    5.9021    5.0180  -19.6131 H   0  0  0  0  0  0  0  0  0  0  0  0
    8.0296    5.7300  -18.2841 H   0  0  0  0  0  0  0  0  0  0  0  0
    6.6692    5.4475  -17.1455 H   0  0  0  0  0  0  0  0  0  0  0  0
    4.1297    2.0199  -17.8942 H   0  0  0  0  0  0  0  0  0  0  0  0
    4.2971    3.6709  -18.5819 H   0  0  0  0  0  0  0  0  0  0  0  0
    6.7340    2.5455  -21.1376 H   0  0  0  0  0  0  0  0  0  0  0  0
    4.5392    3.0254  -22.2523 H   0  0  0  0  0  0  0  0  0  0  0  0
    4.2957    4.4059  -21.1292 H   0  0  0  0  0  0  0  0  0  0  0  0
    5.6620    4.4268  -22.2952 H   0  0  0  0  0  0  0  0  0  0  0  0
    3.3261   -3.0961  -19.7856 H   0  0  0  0  0  0  0  0  0  0  0  0
    3.9066   -4.7948  -19.7241 H   0  0  0  0  0  0  0  0  0  0  0  0
    2.9703   -4.1153  -18.3500 H   0  0  0  0  0  0  0  0  0  0  0  0
    6.5007   -4.1897  -17.0817 H   0  0  0  0  0  0  0  0  0  0  0  0
    4.8219   -4.7498  -16.7746 H   0  0  0  0  0  0  0  0  0  0  0  0
    5.7582   -5.4293  -18.1488 H   0  0  0  0  0  0  0  0  0  0  0  0
   10.2441    5.4273  -15.7751 H   0  0  0  0  0  0  0  0  0  0  0  0
    8.9914    6.5939  -16.3193 H   0  0  0  0  0  0  0  0  0  0  0  0
    8.7484    5.6557  -14.8070 H   0  0  0  0  0  0  0  0  0  0  0  0
    3.7225    1.9038  -21.1876 H   0  0  0  0  0  0  0  0  0  0  0  0
    3.3826    1.0720  -19.6322 H   0  0  0  0  0  0  0  0  0  0  0  0
    4.8256   -2.5176  -17.8673 H   0  0  0  0  0  0  0  0  0  0  0  0
    5.9207    1.4605  -19.4529 H   0  0  0  0  0  0  0  0  0  0  0  0
    7.4030   -3.6734  -21.1608 H   0  0  0  0  0  0  0  0  0  0  0  0
  1  3  2  0  0  0  0
  1  5  1  0  0  0  0
  2  4  2  0  0  0  0
  2  8  1  0  0  0  0
  3  9  1  0  0  0  0
  4 10  1  0  0  0  0
  5 12  2  0  0  0  0
  6  8  2  0  0  0  0
  6 11  1  0  0  0  0
  7  9  2  0  0  0  0
  7 12  1  0  0  0  0
  8 23  1  0  0  0  0
  9 25  1  0  0  0  0
 10 11  2  0  0  0  0
 10 30  1  0  0  0  0
 11 31  1  0  0  0  0
 12 32  1  0  0  0  0
 13 16  1  0  0  0  0
 13 18  1  0  0  0  0
 14 17  1  0  0  0  0
 14 18  1  0  0  0  0
 15 18  1  0  0  0  0
 15 26  1  0  0  0  0
 16 27  1  0  0  0  0
 17 19  1  0  0  0  0
 17 27  1  0  0  0  0
 18 25  1  0  0  0  0
 20 24  1  0  0  0  0
 21 24  1  0  0  0  0
 22 26  1  0  0  0  0
 23 27  1  0  0  0  0
 24 31  1  0  0  0  0
 25 33  1  0  0  0  0
 26 33  1  0  0  0  0
 28 33  2  0  0  0  0
 29 33  2  0  0  0  0
  1 34  1  0  0  0  0
  2 35  1  0  0  0  0
  3 36  1  0  0  0  0
  4 37  1  0  0  0  0
  5 38  1  0  0  0  0
  6 39  1  0  0  0  0
  7 40  1  0  0  0  0
 13 41  1  0  0  0  0
 13 42  1  0  0  0  0
 14 43  1  0  0  0  0
 14 44  1  0  0  0  0
 15 45  1  0  0  0  0
 15 46  1  0  0  0  0
 16 47  1  0  0  0  0
 16 48  1  0  0  0  0
 17 49  1  0  0  0  0
 19 50  1  0  0  0  0
 19 51  1  0  0  0  0
 19 52  1  0  0  0  0
 20 53  1  0  0  0  0
 20 54  1  0  0  0  0
 20 55  1  0  0  0  0
 21 56  1  0  0  0  0
 21 57  1  0  0  0  0
 21 58  1  0  0  0  0
 22 59  1  0  0  0  0
 22 60  1  0  0  0  0
 22 61  1  0  0  0  0
 23 62  1  0  0  0  0
 23 63  1  0  0  0  0
 24 64  1  0  0  0  0
 27 65  1  0  0  0  0
 30 66  1  0  0  0  0
M  CHG  1  27   1
M  END
> <OMEGA_C>
r/cSQVBg2r7fe57BNiazQHpLJz7vcrDBuHELQQiBGD8/tpfBbXnOQNw6Zr/oGbPBFogaQe4B5L0b
zajBkFygQJJEdb8gx5/BPysTQf/mD0B9j6XB+gicQDLVAj66yKbB54MLQT/x9z+nQJvBrJTSQBm7
/79aIKzBK0e7QNDkAsCycqLBaYUaQd76nD/CWazBMcTCQLz8OkD5yozBxEHUQDDNhkBxOJ7BO8fx
QL/hn0CC7IzBK9OZQKZxLUAYWZPBFGy+QCw3RkDixqTBtzTlQKWUb0CGKpPBen6hQHF4ckDmJq3B
m59tQG/zeMBaCZnBDBayQHLJkMDGbYzBSZ0SQX4KtEA7NH3Bt2OFQIgMrD9P0aLB3+SgQPCwWsAX
vZPB0BwHQRNDPkD7J5TBrQAIQfbEkUAaxYTBRiunQBCbCEA3l53B590rQX3ieEBIDI7BsvoXQXVA
C0DML4LBKpvtQN+zQMAuu67BSmbBQPfbSMCLwpvBQeghQUx8xD/DNbbBNB8YQdbXU0Cvp4nB+fAS
QfnYub+exZvBrduvQCirgD9czLXBkJ4FQUlXtT52z4/BFlzgQEX8X7/cfbrBZlYgQWchZb8x/a3B
Dw2PQBL8dr/MTJjB72ITQU2VUUDtP6jBZqa6QGPgXUB+bIXBPUrQQGVM+D9ct4rBlGjvQB05k0CM
4aLBN968QFOToECW55zBV3kAQfZbt0DERZLBcmrVQPNRrkAQKonBVyaEQLpGAUA9J4/Bc4GJQD3w
akCsp5TBJ33XQM/pIkDOGanBe0GRQD+gQUC0BLLBmnaJQCP9jEChCKnBHC+1QH2ojUCSXLLBTt5U
QAMnRsDqSJ7B1AV6QD5vmcD+yp3Bnxk+QMCwg8C6zJLB9QXQQF4ShsBpp4jBO02aQHX+l8BkMobB
VkO4QPS8rcCoMJHBxOcjQTmsrUCkZnzB+twPQVoB00D/jYLBkPkLQTv7tEBG6WzBgj1uQGmw8z85
gKnBwXtYQJQ4iT/JDp3BbWuaQIMgIcAr8I7BPHa9QADzuj90n5vBsOXsQGsZa8BhSanB2oIaQUa3
mD8nXqzBDtOxQIsLIz4mnrDBzEkTQRegDkD7p6XB9YbNQOY1Zb9mPbPBkZkaQXrxC776p6jB57Wf
QCKhdL/e35/B180LQWW8GT+SlZfBg/SaQJkuAD4x6qbBn9kLQYvH9z8ZQ5vB+ivSQF46/r/fNazB
B9u6QLRlAsDXiaLB+j4TQZiS3b7VQ57BMJrDQHh+NkDR1YzBG/bTQNwohkBUHJ7BFLrwQDfrnkB8
u4zBaS+aQILIKkDTQJPBakm+QNhMRUC+vqTBmkblQOi1bUAsHpPByp6hQIQYckBnIq3BuL9sQBnJ
dcANoZjBObWyQCyNkMCfgYzBGiQSQTIVtEAiD33BHKGEQH4lrD/R5aLBVGChQDg3WcBlo5PBXHcH
QcrsPkCgQZTBCdEHQSdkkUD8rYTBPNSmQFlfB0DGo53B7u8rQVBbe0Cg7o3BUWMYQU5aC0CHSoLB
K9rtQJ4RP8B7u67BXy3BQDZZSMD93JvB6I4TQcaL2r/uqJrBVksYQdWVVEBbqYnBPPwfQZ5/tT/n
XLTBkg6uQKxnfj86BbbBdXATQXP6T0Dyd6jBaEnfQOHUXr8sprrBwU4gQRYWbr/jxq3BBI6OQHdd
dr/XX5jBtg4GQX6Dvj7DpI/Bcwa8QCezVkAmPoXBBnvRQDZb7j9ILIvBjeruQA4Ck0AxxaLBY2S8
QK+un0CasZzBy/T+QHY2t0ClA5LByQHUQA0srED73ojBHJGEQHqg/D8VF4/BcBCKQL3BaECZV5TB
R3LXQJcoIkBBDqnBpHeRQImPQUAFEbLBOoSJQBC+jEBwBqnBwXy1QJyQjUBNR7LB+KRTQMpcQsBI
wZ3BMe52QF7fl8CXdZ3BBoU+QNfKgcBqOJLBn0nRQPyFhsD08IjB24ebQKNtl8A3HIbBcby3QCuC
rcBjWZHBWIEjQSl+rkD8ZnzBXvoOQTr00kBYc4LBoJ8LQYGktEB2tmzB8SBtQMsm9T/gjKnBJMZW
QBHmiT9vJp3B5QKcQBakH8BGwY7BgfG8QJLjtj/g05vBs27tQKw2acBmQanBmR4SQTu8376+N57B
0x6wQGzY2D3Zj7DBcBILQRvMGz/6i5fBblPLQE0ndb+OUrPB4q4ZQcHIG77elqjBhsGgQOVFeb/L
f5/ByCgTQZtMDkCtoKXBC8KaQIG1vD0no6bBIKELQUrO+D9sPpvBVOnQQAdTAsD2M6zBsta6QDUM
BMDlWKLBMRUaQQzSlj95TqzBPhXEQBbSOEBit4zB+rLTQDZ4hkCeJp7BKoPxQJzpn0Ae5YzBsdma
QJ9MKkBmG5PBvRS+QPj7REDJrqTBB4blQJdVb0CAKJPBZI6gQNO0cECk+azBeDKsQOH1iMDzwovB
CGhpQBoFZcDpGJnBo8ISQTPNtEBlc33BGBOFQKT6qD9olaLBfEOkQPZLf8CiqpfBM4kHQdVKQEBx
U5TB9BQIQUBAkkDuxoTBRHSnQGJ7BkAeeZ3BsEAsQUTXd0C9mY3BlzYXQSrxCkDiJoLBzDDtQHpU
QcA/qa7BUgTFQJdqQcCd1ZrBNWghQcOEuj+wO7bBYhcYQTPmU0AnjYnBV7oRQbF/ur+8YpvB7pir
QM4+bj8tBrbBUj0FQQzNxz6Hmo/BCfTbQI7ecr9+5brBwCwfQfsMdL/ssK3BV0SRQGUtdb/NxpfB
Y50TQaCPT0D7dqjBrye8QMevWkCoQoXB71zSQI2s9D+Ay4rBJWLuQBtok0BM5KLBbPO7QMLTn0BJ
vJzB+hQAQb63t0BPPpLBhvfUQObMrUC4F4nBid2FQOhp+j/i2I7Bs/WJQA9dZ0BrRJTBsDnXQGJ4
IkDNE6nBzHKQQDyRP0CD0rHBbG6IQDTAi0BCyajBPMqzQBQWjUD1NrLB/MvNQKVXksA0lorBDFWl
QHYkWMAoCYfB5SGXQD0io8DfIonBo8tcQNdnV8AIlqHBjsw/QAbKjMClaJbB3DJcQAl0K8DvTpTB
vgokQVdZrkDwnXzBBQ0QQVuR00DUx4LBViIMQUU4tkBCKW3BqlFtQL9Q8T/GN6nBlk9YQAirhz83
upzBPVipQPaLncBEIpzB6eO9QAREtj/PsJvBnlHtQLLvasCQHqnBIpMaQed6lj+nUazBxguwQF8a
2D1FdrDBfJkTQTvpDkBOwaXByXfLQMYZc79LP7PBnEcaQRxKFr4icKjBf5agQIl6fb/NcZ/BupYL
QaoTJD9uf5fBdm2aQGcvpD3PkqbBLBYMQR06/D+JU5vB2evQQORDAsDVNazBztq6QBPRBMAIXaLB
QMcSQU3I076DBp7BB/jEQL/ANEBZx4zBUdvSQM82hkDUDZ7BcQXwQHBRn0AHvIzB9TmbQF+PJ0D9
+5LBN7i9QNloRECtpKTB6lnlQNxVbkC+J5PB0l+gQHz0b0Dj/azBwnipQHg/gcCK/YrBoBxqQEkR
asB385nBGLcRQTrVtECcAH3BaaGEQF97pz9zjqLBwm2kQIhXfsA3MpfBrN4HQb2iQkBcf5TBInYH
QeYPkkAApYTBGy2nQA9UBUCpep3BpiwsQTM6ekDgG43BEMsWQYPRCkCvOYLBlfPsQBt2QcA4xK7B
QHrFQGmLQ8ABDJvB8sASQZUN179dPJrBBuEXQX/kVEBacYnBrScgQZlqsD9xVbTBcYarQCpCbz/f
4bXBjQAUQW/WT0A9tqjBLF/cQPbCbb8HyLrBJc4fQePOdL8Ycq3BeSaRQL/5er/+tpfBJK4FQT1B
3j6HjI/BmaW9QKHLU0BvGIXBVs3TQG8L7D91S4vBYR3tQNXnk0Ctz6LB7666QFoJn0CLgJzB5gn+
QLrgt0CL+ZHBvATTQEEdrEC66IjBfnuGQBXU8z8svo7BGliKQEnhZEBp65PBKCLXQE9bIkA6/6jB
KZWQQG25PkCd47HBG/2HQL8zi0D22KjBs66zQHDdjEDxLLLBP/rKQFtsiMDk+YjB32agQN6NRMDt
eYfBdqOUQJOHmsBRxYfB3GJiQPH8ZsB9sKLBKaNAQHpWjsAstJbB+ylYQK0rLMDIaJbBswwjQd4I
r0BYEXzBLcQOQUWZ00C+g4LBrPYKQWnGtUB4wWzBHXtsQBu37z/OMqnBc2hXQByNhj+csZzBLmyr
QKdBn8BlXZrBnai9QG9jsz8q2ZvBIArtQMNya8AORanB

> <OMEGA_E>
UEC9PSAM8T2w5vY9sGIVPg==

> <OMEGA_NBR>
      4530

$$$$
50220598
  -OEChem-04172616093D

 56 59  0     1  0  0  0  0  0999 V2000
    9.7690    1.6890  -21.7125 C   0  0  0  0  0  0  0  0  0  0  0  0
    4.9183   -1.0212  -20.1020 C   0  0  0  0  0  0  0  0  0  0  0  0
    5.9226    0.1810  -21.9792 C   0  0  0  0  0  0  0  0  0  0  0  0
    9.2394    2.5563  -20.7397 C   0  0  0  0  0  0  0  0  0  0  0  0
    5.7067   -2.1487  -20.3980 C   0  0  0  0  0  0  0  0  0  0  0  0
    6.7119   -0.9449  -22.2733 C   0  0  0  0  0  0  0  0  0  0  0  0
    9.8827    0.3118  -21.4404 C   0  0  0  0  0  0  0  0  0  0  0  0
    8.9171    0.6657  -19.2282 C   0  0  0  0  0  0  0  0  0  0  0  0
    5.0230    0.1436  -20.8938 C   0  0  0  0  0  0  0  0  0  0  0  0
    8.8029    2.0456  -19.4986 C   0  0  0  0  0  0  0  0  0  0  0  0
    6.6090   -2.1060  -21.4806 C   0  0  0  0  0  0  0  0  0  0  0  0
    9.4569   -0.1996  -20.1980 C   0  0  0  0  0  0  0  0  0  0  0  0
    6.1169    2.7776  -17.5727 C   0  0  0  0  0  0  0  0  0  0  0  0
    6.5930    4.2271  -19.6037 C   0  0  0  0  0  0  0  0  0  0  0  0
    7.5395    4.8494  -17.3858 C   0  0  0  0  0  0  0  0  0  0  0  0
    5.5684    1.7144  -18.5204 C   0  0  0  0  0  0  0  0  0  0  0  0
    5.9521    3.1515  -20.5048 C   0  0  2  0  0  0  0  0  0  0  0  0
    7.1706    3.6665  -18.2810 C   0  0  1  0  0  0  0  0  0  0  0  0
    5.2798    3.8875  -21.6839 C   0  0  0  0  0  0  0  0  0  0  0  0
    9.1192    5.3308  -15.5215 C   0  0  0  0  0  0  0  0  0  0  0  0
    4.2005    1.3633  -20.5381 C   0  0  0  0  0  0  0  0  0  0  0  0
    8.4647    2.9224  -18.4736 N   0  0  3  0  0  0  0  0  0  0  0  0
    8.5098    4.3342  -16.4260 N   0  0  2  0  0  0  0  0  0  0  0  0
    4.9649    2.3463  -19.7203 N   0  3  1  0  0  0  0  0  0  0  0  0
    9.7317    2.0405  -16.3729 O   0  0  0  0  0  0  0  0  0  0  0  0
   10.7207    3.9835  -17.7602 O   0  0  0  0  0  0  0  0  0  0  0  0
    7.3915   -3.1802  -21.7567 O   0  0  0  0  0  0  0  0  0  0  0  0
    9.5913   -1.5169  -19.9263 F   0  0  0  0  0  0  0  0  0  0  0  0
    9.5802    3.2462  -17.1986 S   0  0  0  0  0  0  0  0  0  0  0  0
   10.0883    2.0791  -22.6677 H   0  0  0  0  0  0  0  0  0  0  0  0
    4.2322   -1.0467  -19.2683 H   0  0  0  0  0  0  0  0  0  0  0  0
    6.0050    1.0724  -22.5833 H   0  0  0  0  0  0  0  0  0  0  0  0
    9.1668    3.6145  -20.9430 H   0  0  0  0  0  0  0  0  0  0  0  0
    5.6210   -3.0429  -19.7984 H   0  0  0  0  0  0  0  0  0  0  0  0
    7.3976   -0.9201  -23.1074 H   0  0  0  0  0  0  0  0  0  0  0  0
   10.2965   -0.3529  -22.1842 H   0  0  0  0  0  0  0  0  0  0  0  0
    8.5901    0.2732  -18.2767 H   0  0  0  0  0  0  0  0  0  0  0  0
    5.2876    3.4112  -17.2251 H   0  0  0  0  0  0  0  0  0  0  0  0
    6.5863    2.2822  -16.7100 H   0  0  0  0  0  0  0  0  0  0  0  0
    7.4092    4.7077  -20.1631 H   0  0  0  0  0  0  0  0  0  0  0  0
    5.8261    4.9764  -19.3579 H   0  0  0  0  0  0  0  0  0  0  0  0
    7.9846    5.6582  -17.9839 H   0  0  0  0  0  0  0  0  0  0  0  0
    6.6480    5.2274  -16.8638 H   0  0  0  0  0  0  0  0  0  0  0  0
    6.3886    1.0520  -18.8344 H   0  0  0  0  0  0  0  0  0  0  0  0
    4.8009    1.1250  -17.9974 H   0  0  0  0  0  0  0  0  0  0  0  0
    6.7414    2.4924  -20.8955 H   0  0  0  0  0  0  0  0  0  0  0  0
    4.8083    3.1536  -22.3540 H   0  0  0  0  0  0  0  0  0  0  0  0
    4.5139    4.5760  -21.2973 H   0  0  0  0  0  0  0  0  0  0  0  0
    6.0382    4.4578  -22.2403 H   0  0  0  0  0  0  0  0  0  0  0  0
   10.2102    5.1910  -15.5027 H   0  0  0  0  0  0  0  0  0  0  0  0
    8.8857    6.3437  -15.8815 H   0  0  0  0  0  0  0  0  0  0  0  0
    8.7154    5.2001  -14.5067 H   0  0  0  0  0  0  0  0  0  0  0  0
    3.8762    1.8538  -21.4677 H   0  0  0  0  0  0  0  0  0  0  0  0
    3.3178    1.0396  -19.9671 H   0  0  0  0  0  0  0  0  0  0  0  0
    4.2908    3.0003  -19.3770 H   0  0  0  0  0  0  0  0  0  0  0  0
    7.9376   -2.9894  -22.5103 H   0  0  0  0  0  0  0  0  0  0  0  0
  1  4  2  0  0  0  0
  1  7  1  0  0  0  0
  2  5  2  0  0  0  0
  2  9  1  0  0  0  0
  3  6  1  0  0  0  0
  3  9  2  0  0  0  0
  4 10  1  0  0  0  0
  5 11  1  0  0  0  0
  6 11  2  0  0  0  0
  7 12  2  0  0  0  0
  8 10  2  0  0  0  0
  8 12  1  0  0  0  0
  9 21  1  0  0  0  0
 10 22  1  0  0  0  0
 11 27  1  0  0  0  0
 12 28  1  0  0  0  0
 13 16  1  0  0  0  0
 13 18  1  0  0  0  0
 14 17  1  0  0  0  0
 14 18  1  0  0  0  0
 15 18  1  0  0  0  0
 15 23  1  0  0  0  0
 16 24  1  0  0  0  0
 17 19  1  0  0  0  0
 17 24  1  0  0  0  0
 18 22  1  0  0  0  0
 20 23  1  0  0  0  0
 21 24  1  0  0  0  0
 22 29  1  0  0  0  0
 23 29  1  0  0  0  0
 25 29  2  0  0  0  0
 26 29  2  0  0  0  0
  1 30  1  0  0  0  0
  2 31  1  0  0  0  0
  3 32  1  0  0  0  0
  4 33  1  0  0  0  0
  5 34  1  0  0  0  0
  6 35  1  0  0  0  0
  7 36  1  0  0  0  0
  8 37  1  0  0  0  0
 13 38  1  0  0  0  0
 13 39  1  0  0  0  0
 14 40  1  0  0  0  0
 14 41  1  0  0  0  0
 15 42  1  0  0  0  0
 15 43  1  0  0  0  0
 16 44  1  0  0  0  0
 16 45  1  0  0  0  0
 17 46  1  0  0  0  0
 19 47  1  0  0  0  0
 19 48  1  0  0  0  0
 19 49  1  0  0  0  0
 20 50  1  0  0  0  0
 20 51  1  0  0  0  0
 20 52  1  0  0  0  0
 21 53  1  0  0  0  0
 21 54  1  0  0  0  0
 24 55  1  0  0  0  0
 27 56  1  0  0  0  0
M  CHG  1  24   1
M  END
> <OMEGA_C>
4k0cQaAw2D9Cs63BomKdQFi2gr/q0KDBjoW9QABOOT551a/Bn9QTQQCaI0Dy6qXBm522QCeECcAU
L6PBrsfWQHrmcb/IL7LBpB8eQcidnz7ehavBYqwOQXBpKj9005nBq7ygQHAFEz6IJqfBotgMQVzq
AkAI/ZvBTX3TQIXJBsA72KvBXU8XQaBdTL5ylaHBY73DQFDEMUDllIzB3PnSQHJEh0BW1JzBdkPx
QHgum0AYFovBUTCyQJBw2z/OKZTBqHe+QMyxSUDgCaTBgnXlQPinakBzP5LBKvSoQFrNeECQeK3B
begRQT6WqkA8WHjBo2qGQLCArj8MTqTBjW8HQSAIO0DqyZPBTCgIQSayikB6aIPB1uCeQFAqFkAf
w53B6LQbQUiXAkDE+4LB0IcrQRDxfkDcFI7BCIfsQCKIS8DLDa7BxHUZQXwqwr8VaZ/BdUgZQSzB
T0CwlonBmGkhQTgPBUBpV7XBem6HQNr4hb93JZrBCSnAQDZFiT+ZqrTBCasSQcBTZ0Awi6fBb9+z
QFW+QsAhY57B57jsQLaLa7/g27jBm74kQb20tL5RebHBG3EJQcHbiz60NpLB/zOpQNtRWkAOzYnB
xMLSQF0PEkAgroXB4BftQGyllkD1TaHBPG+6QIY+n0Dz3JrBDIL/QPsPtUAD34/BqLzUQLFGp0AY
6YbBLG/MQOqnhj/SrJbBoqCZQO3/jz+4+o/BvrnXQCWEH0AJKqfBtd2ZQEfVSUAH1bLB+XGQQK9u
kkDyYKrBDDnBQDWmjkAn7LHB0lwjQekcpkBCC3jBrisOQZj/ykCIGn7BX3ILQXdnpkCRG2jBKBR4
QChK7T/xvavBwVZUQGoShT+nvJ/BHk6JQBQFQEAkBJvBegD+QOJRP8AkFbTBhaUWQXC+Wr6Lr6HB
cgCeQJQ6gr+RsKDBcbW9QDBPND62zq/BJSQOQQDZJj/P45nB2Re3QAtwCcDgE6PBPdLWQBrJc7+b
LrLBfe0dQeg4nD7bg6vBtiQUQRpuI0ArxKXBwyehQIAVEz6WE6fBlLwMQcJaAkA185vBE6bTQMkZ
B8CyzqvBw6ccQWA82D8hjK3BL4PDQG77MkDskozBgEfTQNlUh0A535zBtbHxQCNTm0CSIYvBJ/Sx
QDRL3T9pG5TBkLm+QCakSUB6DaTBqYrlQKLxakAvQZLBcHSpQKpjeEAtjK3BlkISQd1/qkBohHjB
H66GQFxurj//SaTBzFgHQZ5XOkBsvpPB/EoIQX6mikBjboPBdPGeQHKPFkArxp3BtFQbQfpXAUBc
7oLBFZ4rQdaUfEBxEI7BnYHsQG4KTMABDa7B4AokQQp5DEAG37bBDjQZQTaGTkDijonBjJcXQQ0h
o7+vIqDBU0+IQPbehL8x95nB/0jAQFpviD9XqbTB3a8IQZ77gj4AVJLBpHy0QGF9QsBlPp7BwI/s
QCxnbr915bjBSXwkQfJft75bfrHBCUcTQTVZZ0CQT6fBOwqpQFgWXEAZ4onBhUDSQFiYE0CqnIXB
roTtQJmElkD1V6HB2c+6QDhyn0Aw9JrB2hgAQa79tECy8I/BgUfVQIXCp0Bj+IbB5CXMQE6phz/d
iZbBlDaZQGLokj9a6o/BK/XXQFoiH0D3HqfBKVyaQIU9SUD84bLBBvyQQHNokkC5hKrB4d3BQO44
jkCkAbLBvq8jQRuapUD0OXjBe7YOQVXrykA7Yn7BhMwLQaazpkCxQWjBk594QAB97D80wKvBd9xU
QBLzhD9OuZ/BVk2JQDebQEC+G5vBwcT9QEQRQMAAILTB

> <OMEGA_E>
7A2yPrjGrj4=

> <OMEGA_NBR>
      6696

$$$$
50220691
  -OEChem-04172616093D

 63 66  0     1  0  0  0  0  0999 V2000
    9.3199   -0.4942  -19.8639 C   0  0  0  0  0  0  0  0  0  0  0  0
    5.7456    0.1913  -22.0086 C   0  0  0  0  0  0  0  0  0  0  0  0
    8.8179    0.4945  -18.9968 C   0  0  0  0  0  0  0  0  0  0  0  0
    6.5894   -0.8817  -22.3330 C   0  0  0  0  0  0  0  0  0  0  0  0
    9.7445   -0.1428  -21.1606 C   0  0  0  0  0  0  0  0  0  0  0  0
    5.0575   -0.9609  -19.9730 C   0  0  0  0  0  0  0  0  0  0  0  0
    9.1632    2.1848  -20.7239 C   0  0  0  0  0  0  0  0  0  0  0  0
    4.9819    0.1542  -20.8241 C   0  0  0  0  0  0  0  0  0  0  0  0
    8.7294    1.8358  -19.4285 C   0  0  0  0  0  0  0  0  0  0  0  0
    6.6690   -1.9979  -21.4801 C   0  0  0  0  0  0  0  0  0  0  0  0
    5.8958   -2.0551  -20.3000 C   0  0  0  0  0  0  0  0  0  0  0  0
    9.6618    1.1968  -21.5909 C   0  0  0  0  0  0  0  0  0  0  0  0
    6.1093    2.9282  -17.5936 C   0  0  0  0  0  0  0  0  0  0  0  0
    6.6490    4.1450  -19.7557 C   0  0  0  0  0  0  0  0  0  0  0  0
    7.6412    4.9307  -17.6250 C   0  0  0  0  0  0  0  0  0  0  0  0
    5.5038    1.8070  -18.4350 C   0  0  0  0  0  0  0  0  0  0  0  0
    5.9229    3.0449  -20.5464 C   0  0  2  0  0  0  0  0  0  0  0  0
    7.2049    3.6798  -18.3887 C   0  0  1  0  0  0  0  0  0  0  0  0
    5.2531    3.7311  -21.7598 C   0  0  0  0  0  0  0  0  0  0  0  0
    5.3545   -4.6491  -17.7064 C   0  0  0  0  0  0  0  0  0  0  0  0
    9.3206    5.5727  -15.9132 C   0  0  0  0  0  0  0  0  0  0  0  0
    4.1240    1.3299  -20.4144 C   0  0  0  0  0  0  0  0  0  0  0  0
    4.9903   -3.4011  -18.5061 C   0  0  0  0  0  0  0  0  0  0  0  0
    8.4501    2.8373  -18.5051 N   0  0  3  0  0  0  0  0  0  0  0  0
    8.6427    4.4954  -16.6632 N   0  0  2  0  0  0  0  0  0  0  0  0
    4.9150    2.3544  -19.6845 N   0  3  1  0  0  0  0  0  0  0  0  0
    9.8591    2.2155  -16.4078 O   0  0  0  0  0  0  0  0  0  0  0  0
   10.7496    3.9569  -18.0975 O   0  0  0  0  0  0  0  0  0  0  0  0
    7.4962   -3.0266  -21.8042 O   0  0  0  0  0  0  0  0  0  0  0  0
    6.0128   -3.1847  -19.5044 O   0  0  0  0  0  0  0  0  0  0  0  0
   10.0875    1.5415  -22.8266 F   0  0  0  0  0  0  0  0  0  0  0  0
    9.6516    3.3097  -17.3659 S   0  0  0  0  0  0  0  0  0  0  0  0
    9.3794   -1.5214  -19.5355 H   0  0  0  0  0  0  0  0  0  0  0  0
    5.6810    1.0455  -22.6663 H   0  0  0  0  0  0  0  0  0  0  0  0
    8.5000    0.2267  -18.0000 H   0  0  0  0  0  0  0  0  0  0  0  0
    7.1783   -0.8508  -23.2378 H   0  0  0  0  0  0  0  0  0  0  0  0
   10.1335   -0.9002  -21.8250 H   0  0  0  0  0  0  0  0  0  0  0  0
    4.4736   -0.9841  -19.0647 H   0  0  0  0  0  0  0  0  0  0  0  0
    9.1123    3.2129  -21.0507 H   0  0  0  0  0  0  0  0  0  0  0  0
    5.3165    3.6372  -17.3129 H   0  0  0  0  0  0  0  0  0  0  0  0
    6.5545    2.4973  -16.6847 H   0  0  0  0  0  0  0  0  0  0  0  0
    7.4897    4.5099  -20.3642 H   0  0  0  0  0  0  0  0  0  0  0  0
    5.9405    4.9676  -19.5785 H   0  0  0  0  0  0  0  0  0  0  0  0
    8.0736    5.6680  -18.3174 H   0  0  0  0  0  0  0  0  0  0  0  0
    6.7817    5.3775  -17.1036 H   0  0  0  0  0  0  0  0  0  0  0  0
    6.2904    1.0824  -18.6925 H   0  0  0  0  0  0  0  0  0  0  0  0
    4.7170    1.3032  -17.8544 H   0  0  0  0  0  0  0  0  0  0  0  0
    6.6614    2.3153  -20.9101 H   0  0  0  0  0  0  0  0  0  0  0  0
    4.7185    2.9787  -22.3582 H   0  0  0  0  0  0  0  0  0  0  0  0
    4.5408    4.4903  -21.4044 H   0  0  0  0  0  0  0  0  0  0  0  0
    6.0235    4.2128  -22.3798 H   0  0  0  0  0  0  0  0  0  0  0  0
    4.5868   -4.8310  -16.9398 H   0  0  0  0  0  0  0  0  0  0  0  0
    5.4094   -5.5148  -18.3828 H   0  0  0  0  0  0  0  0  0  0  0  0
    6.3301   -4.5012  -17.2202 H   0  0  0  0  0  0  0  0  0  0  0  0
   10.4084    5.4118  -15.9420 H   0  0  0  0  0  0  0  0  0  0  0  0
    9.0815    6.5442  -16.3704 H   0  0  0  0  0  0  0  0  0  0  0  0
    8.9764    5.5646  -14.8684 H   0  0  0  0  0  0  0  0  0  0  0  0
    3.6915    1.7881  -21.3161 H   0  0  0  0  0  0  0  0  0  0  0  0
    3.3148    0.9713  -19.7612 H   0  0  0  0  0  0  0  0  0  0  0  0
    4.0165   -3.5453  -18.9968 H   0  0  0  0  0  0  0  0  0  0  0  0
    4.9372   -2.5317  -17.8342 H   0  0  0  0  0  0  0  0  0  0  0  0
    4.2644    3.0588  -19.4007 H   0  0  0  0  0  0  0  0  0  0  0  0
    7.4407   -3.7005  -21.1368 H   0  0  0  0  0  0  0  0  0  0  0  0
  1  3  2  0  0  0  0
  1  5  1  0  0  0  0
  2  4  2  0  0  0  0
  2  8  1  0  0  0  0
  3  9  1  0  0  0  0
  4 10  1  0  0  0  0
  5 12  2  0  0  0  0
  6  8  2  0  0  0  0
  6 11  1  0  0  0  0
  7  9  2  0  0  0  0
  7 12  1  0  0  0  0
  8 22  1  0  0  0  0
  9 24  1  0  0  0  0
 10 11  2  0  0  0  0
 10 29  1  0  0  0  0
 11 30  1  0  0  0  0
 12 31  1  0  0  0  0
 13 16  1  0  0  0  0
 13 18  1  0  0  0  0
 14 17  1  0  0  0  0
 14 18  1  0  0  0  0
 15 18  1  0  0  0  0
 15 25  1  0  0  0  0
 16 26  1  0  0  0  0
 17 19  1  0  0  0  0
 17 26  1  0  0  0  0
 18 24  1  0  0  0  0
 20 23  1  0  0  0  0
 21 25  1  0  0  0  0
 22 26  1  0  0  0  0
 23 30  1  0  0  0  0
 24 32  1  0  0  0  0
 25 32  1  0  0  0  0
 27 32  2  0  0  0  0
 28 32  2  0  0  0  0
  1 33  1  0  0  0  0
  2 34  1  0  0  0  0
  3 35  1  0  0  0  0
  4 36  1  0  0  0  0
  5 37  1  0  0  0  0
  6 38  1  0  0  0  0
  7 39  1  0  0  0  0
 13 40  1  0  0  0  0
 13 41  1  0  0  0  0
 14 42  1  0  0  0  0
 14 43  1  0  0  0  0
 15 44  1  0  0  0  0
 15 45  1  0  0  0  0
 16 46  1  0  0  0  0
 16 47  1  0  0  0  0
 17 48  1  0  0  0  0
 19 49  1  0  0  0  0
 19 50  1  0  0  0  0
 19 51  1  0  0  0  0
 20 52  1  0  0  0  0
 20 53  1  0  0  0  0
 20 54  1  0  0  0  0
 21 55  1  0  0  0  0
 21 56  1  0  0  0  0
 21 57  1  0  0  0  0
 22 58  1  0  0  0  0
 22 59  1  0  0  0  0
 23 60  1  0  0  0  0
 23 61  1  0  0  0  0
 26 62  1  0  0  0  0
 29 63  1  0  0  0  0
M  CHG  1  26   1
M  END
> <OMEGA_C>
HR4VQd8L/b436Z7Bttu3QJnXQz6qEbDBKxYNQfAr/T6I+ZfBstzSQJq3Yb/rqbLBg+kbQbxBEr7b
SKnB/dahQIH8db+dyJ/BWpwSQZzTC0CCyqXBqGufQIfdHT7El6bBnqsLQQf86j9+bZvBgWjVQKu5
/78/16vBUaq8QDSHA8BXZqLBz5YaQUEvmT8luqzBb3/DQPlnO0Csv4zBy8TUQAmkhECzC57BZ4T0
QLPInUDy/4zBWx+wQFVM5z/JepPBkYi9QKvfQkAJX6TBoo7mQESCa0ABHJPBOBmoQITKbkAJFK7B
AlirQCrFlMCspo3BCyEVQapTskBenH7BbveDQMU7qj+qUKPB5bCfQNmqWcBnDJTBtTMHQYaWNUB2
CpTBfEgKQWPaj0A8ToXBDkidQEWvFkD1eZ3B4L4dQTfLDUBBQ4PBQv4rQRk+fUCcx5DBm+DvQIe0
QcDtbq7BiWjAQAPSS8D6CJzBkmYhQSNRxT/znLbB+2waQdzSU0Ba7YrBJRIWQRO8wr+mSJzB48q1
QHrShT+OVLXBMwAIQeIZaD4OAJDBS7TlQKvPWb8J57nB2iIiQUh0Zr+Vma7BqiePQCTre7+DhJjB
6ssRQTOgTUDJZ6jB/CCqQKXIaEDVgIrBML7RQKjTH0A1eoXBYKvvQLlQkEDO6aLB5hi+QJb2nkCv
oJzBbi0BQfdftUAiipLBvQPZQDAUrEBF1IjBuUrJQOiMij8uipXBfPGWQFLPpj/S1Y7BWirVQLst
FEDsR6fBQP6WQOaiPkCl3bLBdk6RQMCwj0A6PKvBN8DAQHPPhkDlCbPBMseSQEKXmsDMhIfBphmt
QOJ4sMAFEJPBFZDKQJwJkMAKw4nBpIgmQeAtrUBkEn/BrU0RQdtp0UCt9oLBSp8PQQ8RskAg5W3B
/EFsQJrf5D9sh6rB9SRUQGypeD8IF57BJ4eAQLrlYsBw+ZfBlf2dQDAHIsB0rI7BBXaIQITDQ0C6
NJvB7RnuQH/UbMApGKnB29saQQ/Dmj+ZtazBoAS4QNqXPD4hE7DBr/kSQQI9DUBH0qXBZNHSQPKO
ZL/btLLB2fobQdCLAr6kM6nBEcKhQODgeL+S1Z/BIiMNQXZ0Bz/y7pfBBZKfQKjXFT7JmabBQ/gL
Qcc77z9tb5vBiyzVQMjKAMDW6avBRG28QPtqBMDKeKLB5g8VQQmu777I0p7BYfHDQB7DOkC0uYzB
a3/UQJXdhEBCBJ7B2OfzQHRMnkCM+IzBaKuwQC/s5T/geZPBZIe9QPHuQkAOVaTBBIfmQEtHbEBh
GpPB5qenQAu6bkDm+q3B3UOsQA8dlMDCcI3BBYoUQTZAs0AsVH7BTDiEQMY9qT/QR6PBgG2fQMK8
WsA3IZTBAHEHQQk3OEBVHZTBoN0JQTCekEDNL4XBfI2dQHkeFkCQbZ3BntAcQXpTDkDYAYPBgjIs
QbYVfkA4KpDBbHzvQNbYQsDVhq7BKyjAQIGwTMCoG5zBTDYWQTUU4L9jcpvBcSgaQQj3VEAfporB
yQwgQXLquz9+r7TBcR+2QM5WhT83TrXByEgSQfHsTkDzfKjBDKTlQFO+XL/N8rnBQyUiQalTZL8r
eK7BoAGPQKkUf79JlJjBDPIHQQiZiT7N9Y/BSGaqQOViZ0DIXorBGJ/SQLcBH0DJhIXBeDzvQJfN
kEB05qLBYpi9QIn4nkBvlJzB3OYAQbv4tUCyepLBMh7YQOxmrEDd4IjBgfLJQCP1iT/3lpXBlayX
QNZ4pD990o7BflHVQAC/FEC8SafBt7KWQPliPkBvxbLBV6yQQFpdj0DnE6vBaQjAQIIgh0D79LLB
0MKTQPYSmsAXTYfBuhivQEVXsMBqppLBYTXLQLXgjcDLi4nBDPMlQbocrkA/iH7Bcc8QQWU+0kCE
5YLB+MwOQQ8xs0DMsG3Ba69sQNM45D+SeqrBI7VUQKtfdj9HDZ7BnouAQHrxZsA9EZjBRKicQFsE
IsCe9o7Bjq2IQLnqQkA2GpvBN5XtQPwVbsB2NKnB

> <OMEGA_E>
YGXuPfj5ED4=

> <OMEGA_NBR>
      9058

$$$$
50220700
  -OEChem-04172616093D

 56 59  0     1  0  0  0  0  0999 V2000
    9.7651    1.4689  -21.6529 C   0  0  0  0  0  0  0  0  0  0  0  0
    5.8799    0.1946  -21.9700 C   0  0  0  0  0  0  0  0  0  0  0  0
    9.2572    2.4098  -20.7376 C   0  0  0  0  0  0  0  0  0  0  0  0
    6.6856   -0.9162  -22.2721 C   0  0  0  0  0  0  0  0  0  0  0  0
    9.8288    0.1065  -21.3002 C   0  0  0  0  0  0  0  0  0  0  0  0
    4.9322   -1.0134  -20.0695 C   0  0  0  0  0  0  0  0  0  0  0  0
    8.8611    0.6228  -19.1217 C   0  0  0  0  0  0  0  0  0  0  0  0
    5.0021    0.1464  -20.8674 C   0  0  0  0  0  0  0  0  0  0  0  0
    8.7989    1.9891  -19.4713 C   0  0  0  0  0  0  0  0  0  0  0  0
    6.6156   -2.0769  -21.4750 C   0  0  0  0  0  0  0  0  0  0  0  0
    9.3737   -0.3166  -20.0353 C   0  0  0  0  0  0  0  0  0  0  0  0
    5.7277   -2.1307  -20.3760 C   0  0  0  0  0  0  0  0  0  0  0  0
    6.1382    2.7966  -17.5842 C   0  0  0  0  0  0  0  0  0  0  0  0
    6.6046    4.2013  -19.6577 C   0  0  0  0  0  0  0  0  0  0  0  0
    7.5516    4.8789  -17.4635 C   0  0  0  0  0  0  0  0  0  0  0  0
    5.5663    1.7228  -18.5034 C   0  0  0  0  0  0  0  0  0  0  0  0
    5.9389    3.1143  -20.5209 C   0  0  2  0  0  0  0  0  0  0  0  0
    7.1841    3.6721  -18.3239 C   0  0  1  0  0  0  0  0  0  0  0  0
    5.2548    3.8316  -21.7060 C   0  0  0  0  0  0  0  0  0  0  0  0
    9.1465    5.4240  -15.6315 C   0  0  0  0  0  0  0  0  0  0  0  0
    4.1704    1.3509  -20.4922 C   0  0  0  0  0  0  0  0  0  0  0  0
    8.4857    2.9417  -18.5059 N   0  0  3  0  0  0  0  0  0  0  0  0
    8.5113    4.3933  -16.4781 N   0  0  2  0  0  0  0  0  0  0  0  0
    4.9531    2.3402  -19.7050 N   0  3  1  0  0  0  0  0  0  0  0  0
    9.5816    2.0287  -16.3204 O   0  0  0  0  0  0  0  0  0  0  0  0
   10.7633    3.8749  -17.6875 O   0  0  0  0  0  0  0  0  0  0  0  0
    7.4118   -3.1363  -21.7709 O   0  0  0  0  0  0  0  0  0  0  0  0
    9.4421   -1.6225  -19.6922 F   0  0  0  0  0  0  0  0  0  0  0  0
    9.5500    3.2224  -17.1762 S   0  0  0  0  0  0  0  0  0  0  0  0
    5.5878   -3.5753  -19.3948 Cl  0  0  0  0  0  0  0  0  0  0  0  0
   10.1059    1.7914  -22.6256 H   0  0  0  0  0  0  0  0  0  0  0  0
    5.9328    1.0835  -22.5811 H   0  0  0  0  0  0  0  0  0  0  0  0
    9.2183    3.4555  -21.0050 H   0  0  0  0  0  0  0  0  0  0  0  0
    7.3591   -0.8808  -23.1156 H   0  0  0  0  0  0  0  0  0  0  0  0
   10.2267   -0.6140  -21.9994 H   0  0  0  0  0  0  0  0  0  0  0  0
    4.2655   -1.0435  -19.2203 H   0  0  0  0  0  0  0  0  0  0  0  0
    8.5148    0.2981  -18.1516 H   0  0  0  0  0  0  0  0  0  0  0  0
    5.3185    3.4393  -17.2305 H   0  0  0  0  0  0  0  0  0  0  0  0
    6.6213    2.3114  -16.7234 H   0  0  0  0  0  0  0  0  0  0  0  0
    7.4240    4.6510  -20.2375 H   0  0  0  0  0  0  0  0  0  0  0  0
    5.8526    4.9705  -19.4280 H   0  0  0  0  0  0  0  0  0  0  0  0
    8.0056    5.6660  -18.0834 H   0  0  0  0  0  0  0  0  0  0  0  0
    6.6573    5.2772  -16.9620 H   0  0  0  0  0  0  0  0  0  0  0  0
    6.3750    1.0463  -18.8168 H   0  0  0  0  0  0  0  0  0  0  0  0
    4.8001    1.1510  -17.9593 H   0  0  0  0  0  0  0  0  0  0  0  0
    6.7136    2.4367  -20.9091 H   0  0  0  0  0  0  0  0  0  0  0  0
    4.7643    3.0882  -22.3515 H   0  0  0  0  0  0  0  0  0  0  0  0
    4.5031    4.5373  -21.3228 H   0  0  0  0  0  0  0  0  0  0  0  0
    6.0101    4.3805  -22.2876 H   0  0  0  0  0  0  0  0  0  0  0  0
   10.2322    5.2511  -15.5949 H   0  0  0  0  0  0  0  0  0  0  0  0
    8.9479    6.4196  -16.0550 H   0  0  0  0  0  0  0  0  0  0  0  0
    8.7322    5.3690  -14.6140 H   0  0  0  0  0  0  0  0  0  0  0  0
    3.8087    1.8340  -21.4118 H   0  0  0  0  0  0  0  0  0  0  0  0
    3.3117    1.0172  -19.8911 H   0  0  0  0  0  0  0  0  0  0  0  0
    4.2916    3.0091  -19.3658 H   0  0  0  0  0  0  0  0  0  0  0  0
    7.2516   -3.8368  -21.1495 H   0  0  0  0  0  0  0  0  0  0  0  0
  1  3  2  0  0  0  0
  1  5  1  0  0  0  0
  2  4  2  0  0  0  0
  2  8  1  0  0  0  0
  3  9  1  0  0  0  0
  4 10  1  0  0  0  0
  5 11  2  0  0  0  0
  6  8  2  0  0  0  0
  6 12  1  0  0  0  0
  7  9  2  0  0  0  0
  7 11  1  0  0  0  0
  8 21  1  0  0  0  0
  9 22  1  0  0  0  0
 10 12  2  0  0  0  0
 10 27  1  0  0  0  0
 11 28  1  0  0  0  0
 12 30  1  0  0  0  0
 13 16  1  0  0  0  0
 13 18  1  0  0  0  0
 14 17  1  0  0  0  0
 14 18  1  0  0  0  0
 15 18  1  0  0  0  0
 15 23  1  0  0  0  0
 16 24  1  0  0  0  0
 17 19  1  0  0  0  0
 17 24  1  0  0  0  0
 18 22  1  0  0  0  0
 20 23  1  0  0  0  0
 21 24  1  0  0  0  0
 22 29  1  0  0  0  0
 23 29  1  0  0  0  0
 25 29  2  0  0  0  0
 26 29  2  0  0  0  0
  1 31  1  0  0  0  0
  2 32  1  0  0  0  0
  3 33  1  0  0  0  0
  4 34  1  0  0  0  0
  5 35  1  0  0  0  0
  6 36  1  0  0  0  0
  7 37  1  0  0  0  0
 13 38  1  0  0  0  0
 13 39  1  0  0  0  0
 14 40  1  0  0  0  0
 14 41  1  0  0  0  0
 15 42  1  0  0  0  0
 15 43  1  0  0  0  0
 16 44  1  0  0  0  0
 16 45  1  0  0  0  0
 17 46  1  0  0  0  0
 19 47  1  0  0  0  0
 19 48  1  0  0  0  0
 19 49  1  0  0  0  0
 20 50  1  0  0  0  0
 20 51  1  0  0  0  0
 20 52  1  0  0  0  0
 21 53  1  0  0  0  0
 21 54  1  0  0  0  0
 24 55  1  0  0  0  0
 27 56  1  0  0  0  0
M  CHG  1  24   1
M  END
> <OMEGA_C>
tz0cQUgEvD8eOa3BeCi8QJA8Rz6mwq/Bfx0UQao6GkCS5qXBOvDVQGCLar8vLbLB80IdQYAi2j3N
ZqrBWNSdQCa2gb9UjqDBL8cNQUxvHz81+ZjBZhGgQGDfFT5W8KbBZsgMQW6a/j9MxZvBpLLTQH7s
BMDazKvBv/oVQYAbor5aSKDBRkm3QPRdCMAmAqPBwGvEQDj7MkCKrIzB+FjTQL1whkDhQp3B9Kbx
QJ8fnEBDtYvBvh6yQPyD3D8PB5TBqAu+QH5QR0DGKqTBJOTlQCIDa0BCl5LBtieoQOI4dUDepa3B
JVgSQSGRrUCWGnrBFHSFQCzqrD/y76PBmsUHQVhFPEAdDJTBWi4IQbyVjEAM04PB2H+eQDbGFUDI
o53BG04ZQdTVAUAjkILBiDYsQTL+d0AUgI3Bsi3tQKC5SMDXKq7B1RIXQYGvz7+PiZ3B6swYQYI7
TkDdaInBds+yQPTQZMCCKJvBrLEhQSFL5T9TAbXBjtm9QBmwij8eprTBBn4TQZAmXUA2CqjBvn3r
QFN5Yb+x7LjBl6AjQc4vHb/f/q/BK3+IQMaRhb9Aw5nBsDwIQbqgmD5/NpHBfTGqQMMdXEAW2InB
oOHTQC3tE0BxyYXBoZHtQE7VlEB45qHBrEi7QK8On0CkbJvB9BYAQT1QtUDGqpDBvgjVQLHeqEAc
sofBHgDMQJfrhT/liJbBZZqZQKhTkz+0rI/B9tXWQKbyG0DQRafBA3WYQJmkRUDYz7LBKRmQQEox
kUAFlarBDlPAQCMtjEDvTLLBQrcjQT0JqEDihHnBpCoPQRJtzUCWcIDB7LYLQbbOq0D10mnBbMFz
QELA6j9lS6vBAvNTQN0ygj8GIZ/BLVWJQH2VQEAk7ZrBzgzoQHOOdcA6MqnBUkgWQTw1rL5/tqDB
sJ67QMC4Rj4Dwq/B494NQRjdEj/0OJnBParVQHtKab/pI7LB11YdQQC0/D1rxKrBD0ueQAUegL/m
XqDBVowTQTi+GUA+2aXBKPifQLB/Gz772KbB8lkMQfbo+D/KzZvBzA/UQGgSBMDyqKvBa+kbQRAV
vz86Vq3BxPG3QFpeB8B5zqLBWW3DQED0NUCqp4zBvBDUQKcOhkAcYJ3BM/DyQG3/m0Co34vBEhOx
QKaw4D/P35PB026+QN5vRkC2NqTBLv7lQBiYakAjnZLB6WmpQHTUc0D82q3ByjsTQbfprEDvn3rB
mzuFQJaWrT+O4qPB+kMHQYxgN0AQ3pPBxwIJQcArjEBrIoTBnT2eQESqFkDlqp3BiIgcQQSpBUAE
F4PBsasrQYhGfUBANI/Bws3tQGuIR8D2AK7BjAYjQS59+D/u5bbBNbgZQUYqUECHHorBtQi0QPhu
Y8De3ZrByFMXQctvsb9QwZ7BdsS8QIikiT99vrTB1pIIQeAMZD4bfpHBffDqQHHQYL+w8bjBSdgj
QWfsEr/mgbDBg0CJQBWfg78khZnBSqISQdD9XEDlyqfBLHOpQP/9YED7I4rB2OLRQKz0F0DSj4XB
UajuQPrOk0AQAaLBE1a8QBwjn0CCqZvBRrkAQb7KtECB9ZDBmODWQLVVqUDCvIfBaMzKQJHchz/y
KpbBZBSYQDJkmj9PgY/B4//WQGPfGUBTKafBqYiZQIwgREBw97LBOaCRQNsgkUBB9arB3x3CQPS5
ikDDgbLB36kkQYUIqEA4lHrB+JEPQanxzEDrd4DBThMNQfkmqkD0MWrBBPVyQOhp6j/lQavBWb9T
QMj0gj8FCJ/B2SWJQBdeQkC+JZvBpR3pQPYLdMAb9qjB

> <OMEGA_E>
cKGUPozbiD4=

> <OMEGA_NBR>
     11225

$$$$
50220694
  -OEChem-04172616093D

 65 68  0     1  0  0  0  0  0999 V2000
    6.3575   -0.8600  -22.3250 C   0  0  0  0  0  0  0  0  0  0  0  0
    9.7204    1.4235  -21.3708 C   0  0  0  0  0  0  0  0  0  0  0  0
    5.5448    0.2387  -22.0001 C   0  0  0  0  0  0  0  0  0  0  0  0
    9.2818    2.4824  -20.5545 C   0  0  0  0  0  0  0  0  0  0  0  0
    6.4862   -1.9313  -21.4203 C   0  0  0  0  0  0  0  0  0  0  0  0
    9.6263    0.0949  -20.9117 C   0  0  0  0  0  0  0  0  0  0  0  0
    5.0075   -0.7939  -19.8561 C   0  0  0  0  0  0  0  0  0  0  0  0
    8.6458    0.8829  -18.8219 C   0  0  0  0  0  0  0  0  0  0  0  0
    4.8634    0.2619  -20.7682 C   0  0  0  0  0  0  0  0  0  0  0  0
    8.7394    2.2157  -19.2809 C   0  0  0  0  0  0  0  0  0  0  0  0
    5.8032   -1.9142  -20.1866 C   0  0  0  0  0  0  0  0  0  0  0  0
    9.0863   -0.1752  -19.6383 C   0  0  0  0  0  0  0  0  0  0  0  0
    6.1172    3.0155  -17.4827 C   0  0  0  0  0  0  0  0  0  0  0  0
    6.5483    4.4154  -19.6165 C   0  0  0  0  0  0  0  0  0  0  0  0
    7.4232    5.1987  -17.4411 C   0  0  0  0  0  0  0  0  0  0  0  0
    4.8448    2.7542  -18.2991 C   0  0  0  0  0  0  0  0  0  0  0  0
    5.9687    3.2758  -20.4751 C   0  0  2  0  0  0  0  0  0  0  0  0
    7.1215    3.9426  -18.2563 C   0  0  1  0  0  0  0  0  0  0  0  0
    5.0929    3.9345  -21.5660 C   0  0  0  0  0  0  0  0  0  0  0  0
    3.6238   -3.7302  -19.1796 C   0  0  0  0  0  0  0  0  0  0  0  0
    5.3606   -4.4533  -17.5141 C   0  0  0  0  0  0  0  0  0  0  0  0
    9.0690    5.9462  -15.7367 C   0  0  0  0  0  0  0  0  0  0  0  0
    4.1892    1.5050  -20.3008 C   0  0  0  0  0  0  0  0  0  0  0  0
    4.8964   -3.2994  -18.4117 C   0  0  0  0  0  0  0  0  0  0  0  0
    8.4561    3.2824  -18.4325 N   0  0  1  0  0  0  0  0  0  0  0  0
    8.4438    4.8262  -16.4697 N   0  0  2  0  0  0  0  0  0  0  0  0
    5.2539    2.2606  -19.6210 N   0  3  2  0  0  0  0  0  0  0  0  0
   10.7090    4.2931  -17.6538 O   0  0  0  0  0  0  0  0  0  0  0  0
    9.5544    2.4907  -16.2073 O   0  0  0  0  0  0  0  0  0  0  0  0
    5.9820   -2.9870  -19.3288 O   0  0  0  0  0  0  0  0  0  0  0  0
    9.0054   -1.4492  -19.1928 F   0  0  0  0  0  0  0  0  0  0  0  0
    9.5053    3.6440  -17.1159 S   0  0  0  0  0  0  0  0  0  0  0  0
    6.8833   -0.8830  -23.2681 H   0  0  0  0  0  0  0  0  0  0  0  0
   10.1292    1.6292  -22.3491 H   0  0  0  0  0  0  0  0  0  0  0  0
    5.4430    1.0618  -22.6920 H   0  0  0  0  0  0  0  0  0  0  0  0
    9.3607    3.5011  -20.9043 H   0  0  0  0  0  0  0  0  0  0  0  0
    7.1134   -2.7733  -21.6734 H   0  0  0  0  0  0  0  0  0  0  0  0
    9.9682   -0.7173  -21.5361 H   0  0  0  0  0  0  0  0  0  0  0  0
    4.5092   -0.7506  -18.8989 H   0  0  0  0  0  0  0  0  0  0  0  0
    8.2360    0.6760  -17.8443 H   0  0  0  0  0  0  0  0  0  0  0  0
    5.8400    3.5016  -16.5357 H   0  0  0  0  0  0  0  0  0  0  0  0
    6.6092    2.0546  -17.2714 H   0  0  0  0  0  0  0  0  0  0  0  0
    7.3562    4.9008  -20.1837 H   0  0  0  0  0  0  0  0  0  0  0  0
    5.7480    5.1443  -19.4213 H   0  0  0  0  0  0  0  0  0  0  0  0
    7.7975    5.9975  -18.0983 H   0  0  0  0  0  0  0  0  0  0  0  0
    6.5152    5.5439  -16.9249 H   0  0  0  0  0  0  0  0  0  0  0  0
    4.2240    1.9999  -17.7935 H   0  0  0  0  0  0  0  0  0  0  0  0
    4.2721    3.6869  -18.4086 H   0  0  0  0  0  0  0  0  0  0  0  0
    6.8080    2.7727  -20.9776 H   0  0  0  0  0  0  0  0  0  0  0  0
    4.6559    3.1543  -22.2066 H   0  0  0  0  0  0  0  0  0  0  0  0
    4.2868    4.5118  -21.0898 H   0  0  0  0  0  0  0  0  0  0  0  0
    5.7130    4.6062  -22.1778 H   0  0  0  0  0  0  0  0  0  0  0  0
    3.2874   -2.9053  -19.8248 H   0  0  0  0  0  0  0  0  0  0  0  0
    3.8497   -4.6110  -19.7986 H   0  0  0  0  0  0  0  0  0  0  0  0
    2.8295   -3.9810  -18.4612 H   0  0  0  0  0  0  0  0  0  0  0  0
    6.2654   -4.1512  -16.9663 H   0  0  0  0  0  0  0  0  0  0  0  0
    4.5645   -4.7033  -16.7975 H   0  0  0  0  0  0  0  0  0  0  0  0
    5.5847   -5.3333  -18.1349 H   0  0  0  0  0  0  0  0  0  0  0  0
   10.1616    5.8188  -15.7339 H   0  0  0  0  0  0  0  0  0  0  0  0
    8.8119    6.8955  -16.2293 H   0  0  0  0  0  0  0  0  0  0  0  0
    8.6987    5.9585  -14.7010 H   0  0  0  0  0  0  0  0  0  0  0  0
    3.7889    2.0752  -21.1520 H   0  0  0  0  0  0  0  0  0  0  0  0
    3.3731    1.2671  -19.6026 H   0  0  0  0  0  0  0  0  0  0  0  0
    4.6606   -2.4257  -17.7864 H   0  0  0  0  0  0  0  0  0  0  0  0
    5.9550    1.5756  -19.4231 H   0  0  0  0  0  0  0  0  0  0  0  0
  1  3  2  0  0  0  0
  1  5  1  0  0  0  0
  2  4  2  0  0  0  0
  2  6  1  0  0  0  0
  3  9  1  0  0  0  0
  4 10  1  0  0  0  0
  5 11  2  0  0  0  0
  6 12  2  0  0  0  0
  7  9  2  0  0  0  0
  7 11  1  0  0  0  0
  8 10  2  0  0  0  0
  8 12  1  0  0  0  0
  9 23  1  0  0  0  0
 10 25  1  0  0  0  0
 11 30  1  0  0  0  0
 12 31  1  0  0  0  0
 13 16  1  0  0  0  0
 13 18  1  0  0  0  0
 14 17  1  0  0  0  0
 14 18  1  0  0  0  0
 15 18  1  0  0  0  0
 15 26  1  0  0  0  0
 16 27  1  0  0  0  0
 17 19  1  0  0  0  0
 17 27  1  0  0  0  0
 18 25  1  0  0  0  0
 20 24  1  0  0  0  0
 21 24  1  0  0  0  0
 22 26  1  0  0  0  0
 23 27  1  0  0  0  0
 24 30  1  0  0  0  0
 25 32  1  0  0  0  0
 26 32  1  0  0  0  0
 28 32  2  0  0  0  0
 29 32  2  0  0  0  0
  1 33  1  0  0  0  0
  2 34  1  0  0  0  0
  3 35  1  0  0  0  0
  4 36  1  0  0  0  0
  5 37  1  0  0  0  0
  6 38  1  0  0  0  0
  7 39  1  0  0  0  0
  8 40  1  0  0  0  0
 13 41  1  0  0  0  0
 13 42  1  0  0  0  0
 14 43  1  0  0  0  0
 14 44  1  0  0  0  0
 15 45  1  0  0  0  0
 15 46  1  0  0  0  0
 16 47  1  0  0  0  0
 16 48  1  0  0  0  0
 17 49  1  0  0  0  0
 19 50  1  0  0  0  0
 19 51  1  0  0  0  0
 19 52  1  0  0  0  0
 20 53  1  0  0  0  0
 20 54  1  0  0  0  0
 20 55  1  0  0  0  0
 21 56  1  0  0  0  0
 21 57  1  0  0  0  0
 21 58  1  0  0  0  0
 22 59  1  0  0  0  0
 22 60  1  0  0  0  0
 22 61  1  0  0  0  0
 23 62  1  0  0  0  0
 23 63  1  0  0  0  0
 24 64  1  0  0  0  0
 27 65  1  0  0  0  0
M  CHG  1  27   1
M  END
> <OMEGA_C>
pHDLQEcnXL+lmbLB6YYbQcYztj9r96rB026xQLR5dD5GALDBLYIUQU3fHkCyb6TBBo/PQEg097/Q
XKvBSwUaQbRjwj0kS6fBpz2gQDo9S79C2Z7BK1UKQc8EYj9Yk5bBQqGbQMAWhj4vJabBnNQLQUvN
DUBKP5rBurO5QFAF9b8bfqHBlmERQehaM746G53BcMDDQJP9QECk3IvBvovRQJxKjUCV7pzBzYrt
QKdbpkBph4vBrQibQJBEMECPZJLBtP++QHynUUAEzaPBm+PjQCZUfEDwDJLBDPmiQC7Oe0Anh6zB
O+xnQLu7bsDRb5nBEoqrQIWBjsDzHIzBexoRQetGvkCmyXvBtg2GQA6jwD/5Z6LBR6+cQCIqU8Au
S5PBRUwHQaYSUkDOdZPB8hkHQWFwmkAEwoPBzR+oQACuEEC295zBGVgrQXdhiUAEO43B/94YQWpo
H0CZqIHB6my/QKgrP8BSoZrBTRYQQdp9ub/fipnB0hUYQV03aUBp7YjB9kPcQPYMYr8VJbrBMxEi
QSGI0D/nyrLBUC2uQDbohz80ibXBlcUVQUESYEALPKfB76DjQK19McAhY63BwH0fQcqdN7/sSazB
lEuQQHEpQL/sMJfBz8YDQUYQLT82wY7BZOG6QI0ZYEAfSYTBUn7TQAF+A0DcK4rBuGXrQInTnEAp
eKHBue+3QIGepEDVXpvBCoX5QDHrv0BJyZDB0HzQQIJnsUBBZofBpSqHQM/8/z8nWY7BHbWIQNj2
a0C3RJPBEdvZQPhzMUAK0qfBuvyUQCPgSUARp7HBQi2JQOVgkEDQt6jBidC2QDdmk0AObLHBH2RS
QLbvOcApmZ7BM2J2QPmMk8CiY57BEBY1QNzIfsB1sJPBwn3IQNTWhMDiuofB/w+SQMWBlsAxYYbB
ELayQFCqqsBfFJHBv5UiQUszukDsvXvBqv0MQReo3ECm1YHBui0LQairvkBSN2vBT31yQI/PBEBg
N6nBB+FXQDcvoj8g0pzBnCOVQI8+G8CkSo7BOo++QDWsyT9wYpvBuUrIQGAfdL/U6LLBnE8QQY3/
Nr4ewJzBZhewQAc4JT4xva/B4ocJQYr2ZT/LVpbBDf3MQPMTA8DR7avB6WoZQQZLiT2M36bBDcui
QEruY79la57BKsgUQYjPHUA1OqTBd+CcQNXlOz5Oi6XB17ILQUVbDkASGprBC8O5QJMLAsB/uaHB
EZsbQfjrsT8AnarBy9XDQIO2RkAuuIvB733RQH70jEBMSZ3B72buQCekqECTLozB42+bQGcPMkDM
LpLBwuW+QJF4TkA3wqPBugvkQPs4f0DyR5LBs/KhQIandUDmhKzBjaqiQGoNc8DkHYrBfiFiQLFs
X8DR1ZnBpj4RQQvvwEAT3HzBykmHQIz2tT9Gm6HBlkyfQCoTd8CyW5bB10QHQczYU0AwgpPBNRoH
QaXunEAxKYTBvfuoQBy0DkDNhZzBsXwrQaFCiUAfLo3Bw/QXQV0cI0Bwb4HBu6nCQHFsRMAHx5rB
Bn0kQR7C0D9NSLTBANoXQcaVa0DO64jBWEfXQGeeeL+OsbrBn4gOQWmqmL996ZnBLTisQOjgfz/V
GbXBRa0CQR0jNj/CjI7BJHXfQMwIOsAjaK7BiLkeQfw0Qr8hxavBn8GVQLUeV7+HbZbBY4IWQSWn
XkCjF6fB5JC6QNB+aUCLbYTBdLbTQExuCkBIgYnB1TnrQJvLm0DQAaLBZdm3QB91pEDo75vBdX37
QGzmwECnp5HB+3HRQBtCtUBNTIjByt6HQI7WAkCw3I3BpKeIQGC5bECHdJPBcKrZQK3nLUDwxKfB
fOKTQOETQkBFXrHBVjiIQBd+jUABvajBKSa1QLvlj0B6rrHB2mXDQFjlgcCHpYfBChSbQK3jMcAT
YYfBquyLQBpLkMDjjIbB3T1dQBFKYsBPm6LBtKs0QFR7hsDbQ5bBdPpSQCJEHsAMGJfBj6wiQYEh
vEBwZnzBN54NQRMO30BRm4LBUf4KQZFxwkCybGzBPsZxQNJc/D/VUqjBDp1cQORVlT98wJvBgmyk
QEUancC+rZjBRPW/QG1IyT8fsJrBHCvHQMejeb9dqbLBVz0bQZJltD9oFqvB8YquQIh3Jj7hKbDB
Z4AUQUcaHkAegaTBtFbMQCQTAMBcBavBYnIZQXDHoz1qd6fB2eygQDCKPb8iYZ7BZ/0JQW0LXz9G
tJbBL8+aQHzEhT4CDqbBx70LQXcXDUCAVJrBAxS5QASx8L9n26DB6twQQW7dQL7hQ53B/MfDQDGH
QUCL5ovB6tTRQFBfjUDu+ZzB9j3uQNI4pkA/kovBrx2bQNHEMEAtdpLBXHS/QFCnUUDv2aPBVibk
QLFOfEDTGJLBWwukQE06e0AnvKzB3fCpQA47kcCA/YzB4bJjQG/EVsBQu5fBDFwRQUsxvUBjkHvB
suiFQDIlwz8NiKLBXNmgQK6hdsBLwJfBhlgHQZNSUUCOg5PBfUUHQSS/mUBEwYPBQymoQEskEUDG
DJ3BCH4rQflaiEBeNI3BeMYYQdljHUALuoHBlq3AQKh3M8BH9JjB65kPQboXu79or5nBAiUYQWCH
Z0Cn8ojB8BbWQHT0h792bLrBscghQQCczj8Q6rLBks2qQGBrdD8H9rXBBwsWQYVZX0DwP6fB+wHf
QNcoOMD48qzBkKceQV3sO78ag6zBIfuSQBZlIr8ChZbBz18DQVFCKj8Q5Y7Blte6QI4UYUClW4TB
1l/TQFP+A0BVJYrBIajrQI0EnUDUf6HBpSO4QKubpEAQapvBK736QFiWv0Dpz5DB4kTRQKu5sUDt
e4fBkTqHQH+AAED+a47B8syIQN15bEAUV5PBhH3aQKAJMUDdvafB9kaWQAb1SEAz2LHBBBeKQKBX
kEB9EqnBgEG4QE7UkkB3nLHBMzLLQMnBnMD124zB9hqlQLdYdMCrc4bB6QWUQFV1rMBB84vB3IBV
QAQlN8AfZJ/BRF44QErIhsCXpJbBXYhaQKH+KMAAJZHBCNIiQQjJuECzanvBqHENQaLH20ASrIHB
vFILQWFrvUAuCGvB8MVzQJ7TBUBDc6nBd6NWQCMtqD9RBJ3BH5CkQPYIk8DGL57BJVe+QB+TyT+6
dpvBuo7LQDVbW78uxLLBTTYRQQ71RL6L55zBaK2xQOZVeT50H7DB0xgKQQjiXj8kb5bBEGnPQIHG
97+6lqvBwy8aQTHylD0nBqfBaumfQIRLTr+lE5/BYbQUQROiHUB5QqTBB6qbQN2fhD7bSqbB5MUL
QXf8DEC3IJrB2F+5QDl79r+cvaHBU+UbQTZZsz9Rs6rBv5bDQLRsQUA314vBW4/RQNsljUD28pzB
lpPtQOt5pkCkmovBigSbQBjRL0ABaJLB3Aq/QJ1dUUB0zqPBbtfjQP5MfEA/D5LBgO+iQCiie0Bs
g6zB74tmQPeAa8CYsZjBquqsQOv9jcD6E4zB5wYRQaGJvkDx6HvBuyaGQBTwvz9udaLBoJmdQP+0
UcBcIZPBNkMHQQ/FUUB6aZPByfkGQbCdmkBlw4PBGDaoQDVAEEAD/JzBN2ErQYhiiEBd9YzBBzAY
QbzSHkCPd4HBLhe/QN06QMDf65rBRc8kQaa51D9PVLTB9toXQR5uaECixojBPnzcQM4UYL8oTLrB
tsoPQavymr/EHJrBBK6uQKBgiT8omrXB4FoDQV8aKz8spY7Bj2njQHbOMcCSpK3B5MEfQSPuPb8q
96vBAqyPQEZBRb+OdJfBzQgWQWO5XkDcFqfBLn26QFI6YUCfU4TBd1vTQIkrBEAVCIrBL3DrQHaj
nECEfKHB8vK3QMR+pEBUaJvB+db5QPHLv0CO5JDB6XzQQB7UsUC6iofB21aHQDqG/j9DW47B7G+I
QKcta0B4TZPB/uLZQOZEMUAq2KfBW+yUQHTESUCopLHBzyiJQMBAkEDfrqjBabu2QLVbk0AXaLHB
pDlQQIR7NsAfxJ3BTmhxQKpFksBqq53B0dQ1QOzXecBWmZLBPQHLQDEGhcBZGYjBfneUQFsflcDm
AIbBPEGyQA55qsD6EpHBjX0iQYouukA8s3vB8BkNQc7P3EAs/oHBffgKQYJhv0DgY2vBq4lyQDTV
BECTOqnBby5YQLO7oD+935zB8eKXQOoWGcBfGY7BCqe+QC3XyD+qZpvB

> <OMEGA_E>
WB4DPvDPCD6wgS8+QJrXPQ==

> <OMEGA_NBR>
      4478

$$$$
50220582
  -OEChem-04172616093D

 71 74  0     1  0  0  0  0  0999 V2000
    6.5714   -0.7934  -22.2696 C   0  0  0  0  0  0  0  0  0  0  0  0
    9.8502    1.2999  -21.3100 C   0  0  0  0  0  0  0  0  0  0  0  0
    5.7559    0.3020  -21.9423 C   0  0  0  0  0  0  0  0  0  0  0  0
    9.3788    2.3728  -20.5313 C   0  0  0  0  0  0  0  0  0  0  0  0
    6.6352   -1.9051  -21.4090 C   0  0  0  0  0  0  0  0  0  0  0  0
    9.7619   -0.0183  -20.8192 C   0  0  0  0  0  0  0  0  0  0  0  0
    5.0855   -0.8125  -19.8813 C   0  0  0  0  0  0  0  0  0  0  0  0
    8.7407    0.8092  -18.7663 C   0  0  0  0  0  0  0  0  0  0  0  0
    5.0058    0.2883  -20.7487 C   0  0  0  0  0  0  0  0  0  0  0  0
    8.8149    2.1272  -19.2634 C   0  0  0  0  0  0  0  0  0  0  0  0
    5.8897   -1.9302  -20.2120 C   0  0  0  0  0  0  0  0  0  0  0  0
    9.2022   -0.2635  -19.5488 C   0  0  0  0  0  0  0  0  0  0  0  0
    6.1455    3.0014  -17.5141 C   0  0  0  0  0  0  0  0  0  0  0  0
    6.5934    4.3104  -19.6772 C   0  0  0  0  0  0  0  0  0  0  0  0
    7.4361    5.1347  -17.5458 C   0  0  0  0  0  0  0  0  0  0  0  0
    5.5495    1.9050  -18.3800 C   0  0  0  0  0  0  0  0  0  0  0  0
    5.9424    3.1836  -20.4691 C   0  0  2  0  0  0  0  0  0  0  0  0
    7.1555    3.8690  -18.3130 C   0  0  1  0  0  0  0  0  0  0  0  0
    5.2824    3.8474  -21.7011 C   0  0  0  0  0  0  0  0  0  0  0  0
   10.0229    5.4481  -14.7234 C   0  0  0  0  0  0  0  0  0  0  0  0
    9.2518    7.1362  -16.4259 C   0  0  0  0  0  0  0  0  0  0  0  0
    3.6285   -3.6336  -19.0168 C   0  0  0  0  0  0  0  0  0  0  0  0
    5.4589   -4.4240  -17.4885 C   0  0  0  0  0  0  0  0  0  0  0  0
    4.1526    1.4690  -20.3464 C   0  0  0  0  0  0  0  0  0  0  0  0
    8.8555    5.8723  -15.6301 C   0  0  0  0  0  0  0  0  0  0  0  0
    4.9917   -3.2684  -18.3820 C   0  0  0  0  0  0  0  0  0  0  0  0
    8.4975    3.2018  -18.4455 N   0  0  1  0  0  0  0  0  0  0  0  0
    8.4023    4.7727  -16.5279 N   0  0  2  0  0  0  0  0  0  0  0  0
    4.9450    2.4785  -19.6092 N   0  3  1  0  0  0  0  0  0  0  0  0
    9.6450    2.4967  -16.2207 O   0  0  0  0  0  0  0  0  0  0  0  0
   10.7080    4.3201  -17.7126 O   0  0  0  0  0  0  0  0  0  0  0  0
    6.0047   -3.0549  -19.4057 O   0  0  0  0  0  0  0  0  0  0  0  0
    9.1119   -1.5274  -19.0778 F   0  0  0  0  0  0  0  0  0  0  0  0
    9.5389    3.6334  -17.1466 S   0  0  0  0  0  0  0  0  0  0  0  0
    7.1495   -0.7828  -23.1818 H   0  0  0  0  0  0  0  0  0  0  0  0
   10.2795    1.4865  -22.2833 H   0  0  0  0  0  0  0  0  0  0  0  0
    5.7035    1.1539  -22.6041 H   0  0  0  0  0  0  0  0  0  0  0  0
    9.4491    3.3836  -20.9049 H   0  0  0  0  0  0  0  0  0  0  0  0
    7.2609   -2.7466  -21.6675 H   0  0  0  0  0  0  0  0  0  0  0  0
   10.1235   -0.8417  -21.4173 H   0  0  0  0  0  0  0  0  0  0  0  0
    4.5297   -0.8069  -18.9553 H   0  0  0  0  0  0  0  0  0  0  0  0
    8.3294    0.6243  -17.7849 H   0  0  0  0  0  0  0  0  0  0  0  0
    5.3344    3.6459  -17.1443 H   0  0  0  0  0  0  0  0  0  0  0  0
    6.6656    2.5409  -16.6612 H   0  0  0  0  0  0  0  0  0  0  0  0
    7.4195    4.7222  -20.2756 H   0  0  0  0  0  0  0  0  0  0  0  0
    5.8399    5.0931  -19.5047 H   0  0  0  0  0  0  0  0  0  0  0  0
    7.8527    5.9031  -18.2136 H   0  0  0  0  0  0  0  0  0  0  0  0
    6.5139    5.5135  -17.0812 H   0  0  0  0  0  0  0  0  0  0  0  0
    6.3426    1.1975  -18.6636 H   0  0  0  0  0  0  0  0  0  0  0  0
    4.7729    1.3755  -17.8086 H   0  0  0  0  0  0  0  0  0  0  0  0
    6.7142    2.4766  -20.8073 H   0  0  0  0  0  0  0  0  0  0  0  0
    4.7928    3.0771  -22.3150 H   0  0  0  0  0  0  0  0  0  0  0  0
    4.5333    4.5796  -21.3656 H   0  0  0  0  0  0  0  0  0  0  0  0
    6.0521    4.3579  -22.2987 H   0  0  0  0  0  0  0  0  0  0  0  0
    9.7400    4.5484  -14.1573 H   0  0  0  0  0  0  0  0  0  0  0  0
   10.9063    5.2297  -15.3414 H   0  0  0  0  0  0  0  0  0  0  0  0
   10.2578    6.2631  -14.0230 H   0  0  0  0  0  0  0  0  0  0  0  0
    8.4162    7.4390  -17.0741 H   0  0  0  0  0  0  0  0  0  0  0  0
    9.4865    7.9515  -15.7258 H   0  0  0  0  0  0  0  0  0  0  0  0
   10.1350    6.9181  -17.0442 H   0  0  0  0  0  0  0  0  0  0  0  0
    3.2893   -2.8072  -19.6588 H   0  0  0  0  0  0  0  0  0  0  0  0
    3.7383   -4.5460  -19.6213 H   0  0  0  0  0  0  0  0  0  0  0  0
    2.8886   -3.8073  -18.2216 H   0  0  0  0  0  0  0  0  0  0  0  0
    6.4280   -4.1688  -17.0349 H   0  0  0  0  0  0  0  0  0  0  0  0
    4.7170   -4.5969  -16.6950 H   0  0  0  0  0  0  0  0  0  0  0  0
    5.5666   -5.3356  -18.0947 H   0  0  0  0  0  0  0  0  0  0  0  0
    3.7337    1.9333  -21.2514 H   0  0  0  0  0  0  0  0  0  0  0  0
    3.3335    1.1163  -19.7025 H   0  0  0  0  0  0  0  0  0  0  0  0
    8.0139    6.1465  -14.9770 H   0  0  0  0  0  0  0  0  0  0  0  0
    4.8714   -2.3627  -17.7695 H   0  0  0  0  0  0  0  0  0  0  0  0
    4.2972    3.1765  -19.3038 H   0  0  0  0  0  0  0  0  0  0  0  0
  1  3  2  0  0  0  0
  1  5  1  0  0  0  0
  2  4  2  0  0  0  0
  2  6  1  0  0  0  0
  3  9  1  0  0  0  0
  4 10  1  0  0  0  0
  5 11  2  0  0  0  0
  6 12  2  0  0  0  0
  7  9  2  0  0  0  0
  7 11  1  0  0  0  0
  8 10  2  0  0  0  0
  8 12  1  0  0  0  0
  9 24  1  0  0  0  0
 10 27  1  0  0  0  0
 11 32  1  0  0  0  0
 12 33  1  0  0  0  0
 13 16  1  0  0  0  0
 13 18  1  0  0  0  0
 14 17  1  0  0  0  0
 14 18  1  0  0  0  0
 15 18  1  0  0  0  0
 15 28  1  0  0  0  0
 16 29  1  0  0  0  0
 17 19  1  0  0  0  0
 17 29  1  0  0  0  0
 18 27  1  0  0  0  0
 20 25  1  0  0  0  0
 21 25  1  0  0  0  0
 22 26  1  0  0  0  0
 23 26  1  0  0  0  0
 24 29  1  0  0  0  0
 25 28  1  0  0  0  0
 26 32  1  0  0  0  0
 27 34  1  0  0  0  0
 28 34  1  0  0  0  0
 30 34  2  0  0  0  0
 31 34  2  0  0  0  0
  1 35  1  0  0  0  0
  2 36  1  0  0  0  0
  3 37  1  0  0  0  0
  4 38  1  0  0  0  0
  5 39  1  0  0  0  0
  6 40  1  0  0  0  0
  7 41  1  0  0  0  0
  8 42  1  0  0  0  0
 13 43  1  0  0  0  0
 13 44  1  0  0  0  0
 14 45  1  0  0  0  0
 14 46  1  0  0  0  0
 15 47  1  0  0  0  0
 15 48  1  0  0  0  0
 16 49  1  0  0  0  0
 16 50  1  0  0  0  0
 17 51  1  0  0  0  0
 19 52  1  0  0  0  0
 19 53  1  0  0  0  0
 19 54  1  0  0  0  0
 20 55  1  0  0  0  0
 20 56  1  0  0  0  0
 20 57  1  0  0  0  0
 21 58  1  0  0  0  0
 21 59  1  0  0  0  0
 21 60  1  0  0  0  0
 22 61  1  0  0  0  0
 22 62  1  0  0  0  0
 22 63  1  0  0  0  0
 23 64  1  0  0  0  0
 23 65  1  0  0  0  0
 23 66  1  0  0  0  0
 24 67  1  0  0  0  0
 24 68  1  0  0  0  0
 25 69  1  0  0  0  0
 26 70  1  0  0  0  0
 29 71  1  0  0  0  0
M  CHG  1  29   1
M  END
> <OMEGA_C>
gkjSQKYeS780KLLBbJodQc9jpj/XeqrBOjC4QPGkmj7nia/Btw8WQZ3bF0ACQKTB4lPUQMzY87+k
RavBuzAcQQwNlrzRjabBV7yiQB/+T7/mDJ/BwtkLQXknTz9jIZbBNi+gQMGZkz5f/aXB+gkNQYUk
CEBrG5rBvni8QCkS978osqHBMjwTQaDohr4FZJzBs6fEQH8XQEDTHIzBFv3SQPfuiUDpap3ByfTt
QBhPpEDKXYzBipWxQN3W8z8mCpPB8Ce+QErAS0DAwKPBJfrkQGCdd0DwgJLB0gmpQAs8dkDcm63B
oV0gQe1WrkA1k2vBLgcUQfpb5EAyaIPBqThoQBuMaMB3IpjBNa+uQEeRjcBt6IvBLuKEQFUHvD97
xaLB7a8NQbPpu0DdFHrBvrufQKUtUcBLDpPB2PUHQaLpTEB4kJPB8m8GQQa6mEA2OYTBVj2eQIGf
HkCX35zBwlEaQVHKH0Dvw4HBz1MrQWA+ikCBs43B1CbAQCKEQ8DtPpvBU8oRQWiCw79fn5jBXJ8Y
QWeJaEAsLInBU8jkQGBmSL9ddLnBtngkQVxEvj8tRLLBx4K2QGezkz8/1bTBrC8XQaKNWEA6PafB
B1noQADIL8AKV63B3vkhQcV7V7+QVqvB+fKQQLWRTr+DpJfBL0UFQenRHz+QR47BIbOqQNxWaUCD
J4nBc0zVQGydIkAwSoXBJ2ztQGwcl0BhNKLBlOC6QFP6okCuCZzBmkn7QCXmvEBstZHBh3HQQOlu
sEBGpojBTPbKQLxGmT8XT5XBU7uYQC4PsD8LeI7BsdrWQOV/HkBYdabB2V6ZQFfvREAshbLBcRCR
QF2MkkC87KrBxarBQLBzi0CpY7LB+NYbQVCMkUB+hGLBCoAuQYNZp0BsdnXB7x8kQSJryEAoXmDB
2qgGQRwM7kDRl4jB28gXQehy/kC2nHvB9igiQUlh3UB9WojBl4NSQLOpM8BFRZ3B0T9vQP14kcBa
+JzBmd44QHurc8DXxZHB5LHNQHlmhcB3R4jBSPGWQJcZk8BWj4XB5CGyQNe8qsDZwZDBcfVuQBJ2
9z/WAqrBYVdVQJHjjj++np3B4zgAQVKwxECxoW/BP+KbQA82F8DfJ47B/4KJQC9LS0AxbprBkP7T
QCTuT7/tBbLBqyweQTg4sz8ZvqrBZMC5QDFLkz6zla/BX4IVQbdeG0DjZqTBy87VQDTj9L+MBKvB
vZIdQYYziD3PG6fBMXqjQO1FTr/aEp/BQpgLQclAST/jzZbB5kihQEqjkj5vHKbB0R4MQX6vB0Bq
dZrBD2q9QOSK9r9EhqHBIz0UQUbZdb78I53Bwk7DQJzBQUCfA4zBW3zSQE7dikC4G53BN+7vQKLL
o0BH7ovBtnGwQBer9j/zBpPBGyq+QBy2TUAZraPB76/kQFfBd0CmQJLBwaSpQF4oeEDzmq3BaHga
QZkY30DbNIXBpmgEQeLTyECKhGrBo29oQGgyZ8BFQ5jBtqatQMsIjcA+uovB95GFQLjouz/SHaPB
GX0TQa0luUBZKnzBnnOfQJ0NUMAk9pLBTlMHQXTNSUC6gJPBTp4IQV0kl0CxSYTBs+mdQAVYH0A5
Bp3Br/4WQa0SFUBTXoHBm2IsQa6mfkC4II3Be53AQKTGQsCy+ZrBI9cTQU8Nwr+Ak5nBnhsYQWjl
XEBZ7ojB3cfmQKYZUL9xRrnBhUklQXIA0T++ZLLBiFW4QJbrkD9x9bTBZQ0WQSTcXEDVJqfB0A3q
QC5VMMD57azBsEYkQc7QOL9O+KvBrz6RQEybSr8VvJfBZIwEQdbQDT8SI4/BS1epQA34a0CZSInB
pPvSQBpXJECkC4XBZ7jsQDjomEAuz6HBBPq5QP9io0BqlpvBOA/8QC3ZvEBMUZHBxJfTQJLAr0Cu
pofBttvJQH41mz/OH5XBRyGXQFEUtD8djI7BAkDXQBoIIUBsTqbB2YaaQCjHRkBxnLLBT02RQKxL
k0BaA6vBbYHCQIapjEBFQbLB9UklQauB00CUg4vBLUUMQbvF7UDL44jBW9EiQcwG90DESIDBOhP/
QMWbrUAxemDBcrMMQfyz4EDtl2DBik7sQOty10D8zXHBAMNTQJNMMsB4dp3BSRNwQOLVkMC/EZ3B
8f83QEQYcsANBpLBNGHMQAr5hMAI8IfBVFuVQPpyksBMgYXBAGWxQLo8qsD/jJDB1xFyQBjB9j+k
eKrBk4VVQKaMjj8oK57BUN0hQdCnq0Cik3TBxUybQHoBFsB+F47BlZCIQA1TS0BEuZrBHQXSQCd8
UL+B0bHBFgYUQeCwiL7nrJzBKZW3QNeBgT7J0K7Bn54LQf9sRj9IZJbBHzPVQB7n+L9oNKvB2bId
QaAAyzxel6bBc/WlQI8TZr8hJJ7BlSsWQcBCGUAcCaTBDEmhQOTdWj4HAqXBenkMQaC7BkAVKJrB
QpS+QA/zAMAhd6HBVdseQcjNrT8oO6rBymnDQHbLSEBGEIzB7S7TQGGViEAJ853BSJHwQKx2pkBx
kI3BjsqwQLZk/D/YVpLBBue8QJHHR0AJvKPBkRHlQH1heUCW2pLBe+GmQDBWcEBam63BjFAHQfhS
7EAjRYHBuTwdQb88uUAkwWzBQzKkQIJVWcCIr4nBwrFlQDrVX8DX35nB/9mEQEiarz8+xKHBLwwV
QRUsw0BbqoHBaZ6gQCswccC/j5XBbFQHQfwySkBKepPBo8UIQTurnUDonoXB0GOdQK/SHEAReJzB
PHoTQas5H0AjW4DBqoosQdtkd0BAhYzBMljEQDvxSsDsepvBMLcoQaA50z/vj7PBfRkXQfxXYECH
o4jBGejjQHKRRL+qM7nB2hATQbHopL+g6JnBPUO0QBXdjT9TBrTBsYcEQfLpDj+qtI7BKT/pQGdc
McB0nK3BijskQTgCRr9NaKvBMM+WQFwpZr8fYJbBMu8WQaiFWkAy26bBVHupQEIMdUCh3onBXcfS
QHRPMEABw4TBMentQGqnk0Bt9qLBW/u7QOu7okAT7JzB7sz8QE4ZvUDTkZPBKy/UQMAttEAFponB
/W7KQKSPoD8NL5TBPRSYQCP8vD8XfI3B+evUQF0kGUBGdKbBshaWQAdVPkBnKbLBU72PQNl0kEAv
8arB9Su/QBhNh0DyurLBiVoBQdK980DzVonBBmDzQGJo50ArrXfByyIRQQCMA0FJsnzB9gcnQUUA
nEBHJG3BnAAnQS4j1ECB92bB1Y0PQZBztEBk8mHBBeXEQDJJZsCq24bB7u2cQObvFMADqojBkFGN
QIurf8A5BYXBpH9iQGp9ccA8YqLBHz03QMcbg8AoU5XB2nVWQOl7G8Dy95jB5LlqQKji4z8u9qjB
EX1YQJt/gD+NNJzBgNgiQdvcyECZ8IbBz/ekQEZ9m8DO85XBJhuIQBS8SUBAbZrB5zPQQNaQcr/4
dLHBfRceQdevtT+kIKvB1Ym2QBqhQj5Cp6/BLEoVQeQTG0ChlqTBB3vTQDwz+b/oh6nBlKodQYQ8
mT2BwKfBeMqiQG7iL7/pKJ7BZFELQTa4Oz+UY5fBFGmfQBN1nj4NAabBdcwLQbsQBUCvvZrB8Aa9
QPeu5r+6z5/BW0wUQWWLiL6u3Z3BC33CQG5DQ0AaKYzBvqnTQAbuikCDMZ3BH+LxQAl5okAA74vB
JwCvQNEc/D9NMpPBLQu/QLGGTkDd16PBoCDlQHV6dkBeUpLBhxKsQCfHeECu9K3BkegeQb8+10Cp
EYXB4OoEQQL3yUCcDmzBWwqsQLlikcBhxYzBPZRrQLBTXMAup5jBB96EQJAyxD86jKPBm40UQYbC
tEBCuHvBtKGlQO3jdMD5g5fByhoHQZhMRUBif5PB9/kIQVb+k0A4JYTBHaidQLlmIkDpVp3B6hUU
QTElCkBPJ4HBEoYsQdb8bED0TIzBwFfCQK4TLMCEi5fBCUgUQTFuxr96eprBckcXQcEBUkA/j4jB
71vhQCbohr+c6LjBKCwlQVHk1j8Pu7LBoJa0QHSTdz9corXB+c0VQcMnXUBFHKfBLBvnQJxtNMCq
5qrBVYckQXbjMb+Av6zBFwSRQM/nF7/EyZbBLQoEQdt98T5g1o/BURapQMdcb0AfkYnBkTTRQCIp
JUCLG4XB3E/uQHSnmECEzqHBJ367QIrPo0CzspvB0q3/QOLpukC0PpHBUuLVQJHVr0CvxofBOM7H
QMYunT80JJXB6dyUQGxevT/Oy47BbtHXQAxeIEDDP6bBNeOcQNOTR0Du+bLBawiUQMBOlEDEmKvB
+MjFQKwhjEBsf7LBixsqQV7qx0AerIrB7lsSQQcA6EBkmYnBN58nQQVc7kD0D4DBaS37QOFXsUC7
1WHBDZsNQQkR4UC0A2LBhq/wQAq12kCVFnXB9+bNQDxJmsDT3IvBbKyiQP3Rd8AcNIbBUiCYQKhl
rsAojIzBfYNhQGpeO8ChU6DBfhpEQEBKi8D+Y5jBszJZQCybMcDyC5LBx7J0QLd5/j9dHavBb2pR
QChnnT9x257BGE0hQbompUCBbXLB/BquQDeMkMBPB57Beb6IQAWpT0BCLpvBA0LMQJPmer+uNLHB
r0QVQRegkr7fcp7BaNayQIRwKz5Zn6/Bmv4MQZ4MKz+vRZfBxhHQQMNP+L+E/ajBMp0dQWCSAD4n
ZajBYfifQGl5Ib9E053B/qgVQdaDHED+8aPB6WicQLylqj506KXBxtwMQVwyAkCnGZrBZ1C6QLZY
379DOJ/BFNgdQbUrvz+fHqvBuUDBQCJMSEBje4zBLfjWQMeciEC86Z3Bld/xQOygo0CW1YzBCfyt
QNCHAUBgRJPB7ZLAQESNSkCrP6TBIr/lQDzJdUAlnpLBBJuuQArDdEA8fa7Bb10ZQXCQp0B3YmbB
ixIfQcn310DSG4PBuBmxQPs8k8Bf+ozBEHBwQDSracBW/5jBoU2DQM/qyj+Ti6PBgzYPQRrBuUC5
vXrBbwGpQEIYdsDwd5fBYtoGQaRNP0CwnZLBI00HQUfNlkCuYoTBk9ydQFxyJEBWmp3BSgoaQeBZ
GkBdzIDBWE0rQcb7gUBdJY7BVpG/QC7GJcD5spbB/jYmQWca8z8vjLTB7oQYQfTPXkDc0YjB1c3c
QNTpj7/ys7jBVDgVQZWwqr9sVZzBw4awQMC2aj8d0bXBIsIGQSjGtT4gnY/BB4vjQGh4NMABLKrB
UdUjQT5pG7/r7a3BdzuOQLruAr/FeJbBExwWQTasX0Ac+qXBsjuoQIc4d0D/gIrBDiPOQLuNLEAu
EIXBs0HzQAUDk0CidaLB96LAQCybo0CND53B2/0AQQvkuUBzVZLBJj/VQFIUs0D4eInB15vGQEHi
oT955ZTBPEWTQPjzxz/v4o7BovTXQEALGUCZeqbBHheeQOU/REBrWbPBMOKXQJzBk0D1RKzBTw7J
QNVLiEBVI7PBFuoNQakkkkCYY17BveAnQf2ElUB9mGrBSpodQQH3wUDdilvBBpQXQYPJ5EDJZYrB
UlQjQfOI8kAffHvBxZotQe8WxkDfRIXBULnTQHS6l8B024vBZRikQNqtgMCRPobBPUahQNOmssCC
T43BqINkQIAAR8CWgqDB0OpQQINIlMDjUJnBIY9WQBOfRMDyP5LBeHxxQAtDAkDqIKvBK1lOQI+D
qT8tr57BaGABQb0szUDi1nXBroS1QOwTjsCdLZ7BAkuKQHK8VEB/spvB6CDTQOhFTr/oM7LBVOgT
Qf/kjL6rwJzBByW5QGCglz69p6/BZAwLQWYGQj9xi5bBhxzVQOGE9L9NPavBdNEdQahY1zw7lqbB
E2ujQOaUTb8GH5/Bq68VQfDuGEA1FKTBwhmhQGGRlj6qHKbB78MLQcq5BUBmRZrB6yO9QH929r9C
rqHBR8EeQaEUrj8+OarBldLCQNagQ0DLAozBjtLSQPHQikDIMZ3BJVjwQFsipECvD4zBO+OvQMB9
+T+s85LBHSW+QPmrTUA1s6PBVaPkQAgfeEDURpLBXLepQHkdeEBNpa3BepgZQZ614EB3MYXBmAkF
QVAhx0BLGGrBe05pQDimZ8Bw85fBmV6vQAuLjMBCsovByl6FQCq0vD+mD6PBrrcTQc+KuUAOenzB
HVSgQLrQT8C/8ZLB0xEHQUFiSEDyZ5PBDe0IQeGLl0BaeoTBYbGdQOIQIEDeBZ3BmcoYQStkGEAk
l4HB5y0sQSemgUAMB47BVJ3AQJkIQ8DDL5vBIucoQXl51D83drPBIJ4YQdFYX0COTInBMZblQJIc
Tr/bgbnBxR4TQbAQpr/t/ZnB3Ji3QK5Xkj8OALXBAbQDQfVzCD8S747BWSvpQIE8MMAaPK3BcLUk
QWTzQ7/wWKvBg3aRQAqOSr9IvZfBE1QWQdVEWkBb4abBlveoQIqnbkCLaonBOhvSQOG7JkBP9ITB
ZlPtQEZSmEBR5qHBYJy6QPS3o0DDw5vBKGf8QPPxvEAAh5HBBz3UQMFisEAHvYfByzTJQCAJnT+y
8pTBm1+WQMRYuD/BdY7BWATXQLd3IEAiUabB5laaQJPQRkA3nbLBFZqRQPuIk0BQEavBUq7CQMNV
jEAVVLLBxSMkQcaL1kDdw4vBK+wKQabf7kB1hYjB4echQfmY+EARPoDBXPgAQaACq0AYUmDBJUkN
QTDx3kCiGGDB35rsQN031UBqp3DBynlTQM9CM8BcKJ3BrDNwQHxBkcBfs5zBxh06QLclcsDKjZHB
c23OQIo0hMAZHojBiLWXQK7DkcAcUIXBe8CyQE7yqcCxdZDBGxhxQAc89z8IZarBJoZVQDP4jj8l
D57BSI8iQaqNrECQmXXBS5CcQHNbFcDOIY7BHl6IQAViTEDIz5rB9PDNQD4Pbr/uwLDBB0AfQeVz
sT8GyKrBvKezQPD7Tz6maK/BLT8XQe7KGkC5QqTBWWzQQJo387/VlajBqOAdQaDDPz0CWafBuouc
QDleJr9CF57BdGcMQXZSRT8w5JbBCcKaQKAwqz5oCqbBza8NQYYaB0CNWJrBvj64QK0G3r8oJJ/B
UXQUQQA7hb5OZp3B1m7EQAKgPUDQbozBVLzUQPc/iUAqm53B74ruQBChokAUYIzBLoKwQD/k9D8F
mpPBepK/QNjQS0DrG6TBX5DlQH7SdECFoJLB0pesQML1dkAMKq7BjBoYQXjWpUAXsWXBj+oaQQh+
2kCtI4LB0smwQE93lMDHY43BNYBvQKoEb8BjnZnB7oiCQO89zD9siKPB+bcMQXeHuEBGQXnBvY6o
QFwEd8ALwZfB7SsIQRI2SUCYdpPBAOIFQWkXlkC5BITBRB6eQEBQIkCLaZ3BM/gXQQKnFkA/RIHB
PKMrQUJfhEDJgIzB5Ze8QHaeJMD5jJbBIEsTQTiWxb99DZrBRO4XQTB6YECTjIjB6ifgQJQMh78U
B7jBYnAmQVxszz9fabLBIZCyQNGDdz/zgrXBc20YQYuQXEDE2abBBLvkQIT/MMDFjanBKw0kQVLU
Pr+/V6zBo1yIQBCGEb+XG5fB7z4FQUxSCT8eQY/BQQyrQGCVZ0BIU4nBa6HUQIGiHUCFuIXBT9Xv
QELxlUCaPaLBQxy9QJHPokBkS5zBfEX9QND4ukB+jpHBgM3QQNxrr0C864jBKzHJQOXFlz/I8ZXB
iueWQAXesj9UMY/BBL7XQHt6HECJiqbBKNScQAFmRkCZK7PB8giVQHXCk0C2u6vBlmbGQHjbikAi
wLLBY8QNQVzEjUBbEl7B/SwnQT63lkDuu2rBro4bQcKZv0D6NFrBJXoSQXSJ50CuI4nB6WEeQUCA
9EDl73jBNwAqQbydy0Btu4TB8nfTQOVRl8AIEIzB7ySiQPJjg8AHn4bBAaWiQEGXtMD/DI7Bh6Zj
QCw6S8DnC6HBXztTQICjl8AXRprBOztSQGTgTMAf2JLBN/JwQHa1BECTDKvBez9MQJxlrD/ku57B
V4/8QFUFyUA0fHPBpdK2QNwCjcBHgZ7BNemKQKxXUUCz4prBpKS9QGZdm79Y97HBl54VQezRa75L
8J/B21inQKI1L7wAIrDBBNYMQePLIz+rNpjBgNDFQDQqBsDra6nBIYAfQdrplj5hLKnBUb+gQMl2
Fb/MPZ3BUnQYQSKrI0BLz6LBQR2ZQMO8oD4uu6XB6NkNQXF5AkCBupnBKzG3QBsG5L+mBZ/BpOMg
QT9k2D/ZmqrBomi/QM4nVkB33YzBCP3aQIeah0Clhp7Bx4D3QLI5pUAWNI3Bd0GqQCw4DUCuIJPB
J73DQKXORUBnjqTBQa/nQA6teEDXv5LBd5K2QLtCaEDmtq/BJWEAQQr+0ECBZG3BDcgiQYYiqEBA
FmrBWTi6QIkumMAKcY3BcqV2QKfZecCNJZjB3ySCQJht0D/4oaPB0wQSQfh3uUDCLXrBN8usQOwM
fcAoaJfB404GQcOTOUCjwZHBxwMIQWLklkDI1IPBuNadQGYHKUDYG57BCc8WQfpEFkDhDH7B+q4r
QZ4mdkBtN4zBX5O+QByTJ8B3c5bB7nQqQb73DEDraLPBKo4XQWiMV0DIe4fBOXvIQO3Wur9W7rnB
rsYUQU5Npr+cx57B9CGhQOoUKj8PsrbBz1MFQUvScT4zIpHBSjzXQALPQMD90KrBgv8lQU91vr7F
JK/BZEKVQPrgsr7BT5XBlxcaQcULaEB1xaPBET6oQAFPhUBm64vB2+vIQHlRPkAL74TBAFL4QC6h
j0A09aLBbavFQMuao0DGWZ7BMgkGQc3Et0CuopLBYzTcQMkIuUB8r4rBVufAQNAarz9mvpPBpG6N
QMpb8D+p0I7BrxPaQNMOEEB5nKXBQvilQLeaNUAiM7TBcBOhQAa5j0AFuq7BQFXTQBMzfEAzIrTB
9o3oQJOY3UBpgnjB4YjxQBiBukDoMWLB540HQb+Z60B+YGTBv4EvQbk/l0Dw1XLBlcIpQeP5wkAH
F2HBH/kaQT3hkUBx6F7ByFjdQPBAmcDv8IzB80utQJariMClO4bBoZmtQC71uMBPB47BcrBjQHMn
VcDiRZ/B20xdQI+tncAkvpjBgLFcQO7HWsB68pDB1D1vQLr4AkDdVavBOxpMQJnTtj/bk57Bc/EZ
QTO90EABX4LB33C5QBR3jsBulp7BWYiLQKL0XEC3JZ3Bvqi9QCLOmr+j/rHBOCghQWho2T8en6rB
R1anQLA66bsbJrDB5X8YQd4yJECG4aLBa9rFQH30BcCJdanB/ecfQbnamz6jKqnBH8agQDM7Fb8X
Q53BahANQcFyJT/fP5jBexiZQEeXoT6BvqXBVeINQTHrAkDgy5nBzUG3QKLH47/fDZ/BNRIWQXII
ZL6p7p/BfGO/QKkVVkB93ozBdtPaQNG5h0DIh57BrFj3QF9NpUD9NI3B9T6qQOktDUCZIpPBCJnD
QKoIRkDTj6TBzZfnQADWeEAQxJLBLFq2QG6KaED+ta/BSj8AQSn60EDPXG3BM60iQcoxqECSEWrB
EXy6QPwomMB9fY3BQQl3QFLzecDeLpjBUhOCQFZ90D/voaPBdugRQUWFuUAaKHrBLv6sQJ3+fMCv
cpfBhk0GQYfmOUAvzpHB9O4HQQP0lkD81YPB+b+dQGQUKUBLG57BHL4WQalcFkAGHX7Bm6QrQXyF
dkC2NIzBtLS+QNV3J8AKfZbB7nMVQYz2x79Da57BMoEXQVrDV0ANgIfB83/IQL8Xur9Q9rnBNsIo
QXWMBkAXrbHBxBuhQNE6Kz9rtLbBq/gZQRWZaEBu4qPBeEXXQAiWQMBQ3arBBHsmQSTsuL7FH6/B
cEqVQKgZs75JVJXBaYkFQcbSdj4mLpHBpC+oQDQ6hUBl5ovBY/zIQH0qPkCu8oTBax/4QJDQj0A8
+KLB5XfFQBOyo0D1Vp7B1vMFQS/lt0B8oZLBlgTcQP4QuUD5r4rB8OvAQO0krz/AxJPBrnWNQLAM
8D/W0I7BZvjZQCVcEECEoaXBHMOlQCzgNUCPMrTBvtKgQEfUj0CWta7ByRPTQDmYfEDxIrTBKkjo
QN6S3UAZenjBZ0rxQHByukDaLWLBBmcHQaiV60CnVGTBRWovQc5bl0CF0nLBv6IpQbwIw0AuDmHB
7eAaQYXlkUBi517BPZ3dQBssmcCm/ozBwIytQJ+xiMDdRobBqOutQMb0uMD5FI7Bwf9jQIQ9VcAO
Tp/BfstdQCy/ncDSyJjBrg1dQAn4WsC2+pDBmQZvQBsIA0CPVKvB3AJMQE+ttj/bkp7BetIZQbrW
0EDIWYLBzaa5QGpljsAWop7BdWmLQIXxXEBQIZ3BgKHYQGbgar9FQrDB/cEYQaCjRL25AJ7BrWS/
QOqrXz4HLa7ByJkPQQLeZj+iEJfB8DXUQE4eBMAd0qnBi6wgQS1Ytj5iD6jBhJqeQHiNa7+HAZ/B
bykWQYHdKUA9R6TB9nSiQArfWz5deqXBGhIOQe8ZEEBVSZrBBXy2QHlNBMC3UaHBH2UfQTnN2j/7
K6vBswbEQK8vQkAeDozBTqTSQDJ8iUDFgJ3BGA3tQFsvpkCLqYzB9euyQAcL8j+p6pLB7W2/QLrs
SEBDxKPB1oHkQKZReUCKcZLBcI6qQLwPcEBy363Bjs4AQXJL6EBxZ3vBOn4dQamvuUD622vBdAnJ
QA79KMAo54nBHjLGQJpJoMDAlJDBsx2HQPlDtD+jzaLBKX4RQSA/xUDhP4DB45vNQLQdY8CXzJPB
2qEHQYlxTkA/HJPBCS0HQUJfnkBbw4TBWLKfQJ6eG0Cx6pzBY4QXQQ7SJkDilIDBacYrQXwmh0Dg
HY3Bs/6tQHZvTcD0sJvB11cnQUQbB0CNsrTBwd0XQT31akCkrYjB5lHvQELXaL+dxrbB8rcZQb7U
ir9hoJvBVx7CQBbAiz9oNrPBpsMJQatRGT9cTY/B83/nQEwYPMCyYavBI7knQfcivr6NYq3BVDGJ
QGQaab9mOZjBU0QVQf89bEBwpabBVSapQEPUakBGgonB+QjUQEp1J0A694TBveXsQANBl0BCP6LB
K6C5QFXIoUC4TpzBh873QM6kvkAkZJLBHrbPQOc1sUA8qIjBdVjNQHkGmz+6+JTBsWKaQDB9qz9L
Z47BR/jYQH2NHEBwMqbBNxucQHzSPEDutLLB/KGRQJf1jkAleavBNxjDQNqkiEBPn7LBXzTwQN3W
8EDKC4XBSeLqQKQ43EDEZW/Bwv8IQSljAkH6FnXBrmwpQWa9oEAgTG/BsZolQTFM1kDRlmXBFAwS
QYK+rUCb5V/BRmDOQLLsy7+APYzBEaqoQGvXL8AljobB6M3gQIuvO8Di2IPBHnvJQC/wtMD5qJfB
9/XdQM2yqcDgh4rBIdKlQL7Go8AiPY3B5uN1QCqo7D9BRarBQxhYQGA9ij8k1J3BPwYdQdMc0kBN
EYbBtw3uQFw8XMAlGpfB/IaKQMPwR0BunZrB

> <OMEGA_E>
OJYsPmCCMT6AJjY+9NmDPtg6kT5A2Rk+PBmaPkjOyz6QIdM+5K7ePg==

> <OMEGA_NBR>
     15881

$$$$
50220583
  -OEChem-04172616093D

 71 75  0     1  0  0  0  0  0999 V2000
    6.5304   -0.8735  -22.2013 C   0  0  0  0  0  0  0  0  0  0  0  0
   10.1317    1.8127  -21.3902 C   0  0  0  0  0  0  0  0  0  0  0  0
    5.7098    0.2348  -21.9310 C   0  0  0  0  0  0  0  0  0  0  0  0
    9.4401    2.6423  -20.4925 C   0  0  0  0  0  0  0  0  0  0  0  0
    6.6398   -1.9135  -21.2602 C   0  0  0  0  0  0  0  0  0  0  0  0
   10.1817    0.4227  -21.1661 C   0  0  0  0  0  0  0  0  0  0  0  0
    8.7736    6.8439  -15.6844 C   0  0  0  0  0  0  0  0  0  0  0  0
   10.2078    5.0852  -14.8379 C   0  0  0  0  0  0  0  0  0  0  0  0
    5.1101   -0.7331  -19.7747 C   0  0  0  0  0  0  0  0  0  0  0  0
    8.8404    0.6909  -19.1506 C   0  0  0  0  0  0  0  0  0  0  0  0
    9.4364    7.7411  -14.8351 C   0  0  0  0  0  0  0  0  0  0  0  0
   10.8323    6.0405  -14.0219 C   0  0  0  0  0  0  0  0  0  0  0  0
    4.9932    0.3025  -20.7182 C   0  0  0  0  0  0  0  0  0  0  0  0
    8.7761    2.0781  -19.3843 C   0  0  0  0  0  0  0  0  0  0  0  0
    9.1594    5.4876  -15.6891 C   0  0  0  0  0  0  0  0  0  0  0  0
    5.9283   -1.8543  -20.0452 C   0  0  0  0  0  0  0  0  0  0  0  0
    9.5403   -0.1369  -20.0427 C   0  0  0  0  0  0  0  0  0  0  0  0
    5.9993    3.1866  -17.5428 C   0  0  0  0  0  0  0  0  0  0  0  0
    6.6802    4.2759  -19.7212 C   0  0  0  0  0  0  0  0  0  0  0  0
    7.6773    5.0420  -17.6193 C   0  0  0  0  0  0  0  0  0  0  0  0
    5.3920    2.0505  -18.3536 C   0  0  0  0  0  0  0  0  0  0  0  0
    5.9771    3.1669  -20.5043 C   0  0  2  0  0  0  0  0  0  0  0  0
    7.1681    3.8211  -18.3311 C   0  0  1  0  0  0  0  0  0  0  0  0
    5.4042    3.8237  -21.7802 C   0  0  0  0  0  0  0  0  0  0  0  0
    3.7750   -3.7846  -19.2995 C   0  0  0  0  0  0  0  0  0  0  0  0
    5.3286   -4.4096  -17.4254 C   0  0  0  0  0  0  0  0  0  0  0  0
    4.1337    1.5036  -20.3920 C   0  0  0  0  0  0  0  0  0  0  0  0
    4.9104   -3.2813  -18.3770 C   0  0  0  0  0  0  0  0  0  0  0  0
   10.4419    7.3360  -14.0258 N   0  0  0  0  0  0  0  0  0  0  0  0
    8.5466    4.5780  -16.5380 N   0  0  1  0  0  0  0  0  0  0  0  0
    8.3379    2.8943  -18.3635 N   0  0  3  0  0  0  0  0  0  0  0  0
    4.9013    2.5460  -19.6690 N   0  3  1  0  0  0  0  0  0  0  0  0
   10.7006    3.5500  -17.5719 O   0  0  0  0  0  0  0  0  0  0  0  0
    9.1940    2.0956  -16.0607 O   0  0  0  0  0  0  0  0  0  0  0  0
    6.0812   -2.8972  -19.1490 O   0  0  0  0  0  0  0  0  0  0  0  0
    9.6176   -1.4648  -19.8057 F   0  0  0  0  0  0  0  0  0  0  0  0
    9.3804    3.1660  -17.0497 S   0  0  0  0  0  0  0  0  0  0  0  0
    7.0768   -0.9270  -23.1314 H   0  0  0  0  0  0  0  0  0  0  0  0
   10.6245    2.2396  -22.2512 H   0  0  0  0  0  0  0  0  0  0  0  0
    5.6280    1.0347  -22.6520 H   0  0  0  0  0  0  0  0  0  0  0  0
    9.4171    3.7104  -20.6509 H   0  0  0  0  0  0  0  0  0  0  0  0
    7.2733   -2.7626  -21.4701 H   0  0  0  0  0  0  0  0  0  0  0  0
   10.7128   -0.2156  -21.8567 H   0  0  0  0  0  0  0  0  0  0  0  0
    7.9769    7.1875  -16.3275 H   0  0  0  0  0  0  0  0  0  0  0  0
   10.5268    4.0537  -14.8139 H   0  0  0  0  0  0  0  0  0  0  0  0
    4.5730   -0.6722  -18.8397 H   0  0  0  0  0  0  0  0  0  0  0  0
    8.3522    0.2646  -18.2867 H   0  0  0  0  0  0  0  0  0  0  0  0
    9.1376    8.7789  -14.8268 H   0  0  0  0  0  0  0  0  0  0  0  0
   11.6426    5.7350  -13.3764 H   0  0  0  0  0  0  0  0  0  0  0  0
    5.2311    3.9499  -17.3500 H   0  0  0  0  0  0  0  0  0  0  0  0
    6.3740    2.7937  -16.5861 H   0  0  0  0  0  0  0  0  0  0  0  0
    7.5494    4.6175  -20.3025 H   0  0  0  0  0  0  0  0  0  0  0  0
    5.9765    5.1109  -19.5890 H   0  0  0  0  0  0  0  0  0  0  0  0
    8.2466    5.6750  -18.3159 H   0  0  0  0  0  0  0  0  0  0  0  0
    6.8352    5.6167  -17.2062 H   0  0  0  0  0  0  0  0  0  0  0  0
    6.1567    1.2778  -18.5214 H   0  0  0  0  0  0  0  0  0  0  0  0
    4.5499    1.6176  -17.7939 H   0  0  0  0  0  0  0  0  0  0  0  0
    6.7129    2.4016  -20.7922 H   0  0  0  0  0  0  0  0  0  0  0  0
    4.8849    3.0639  -22.3828 H   0  0  0  0  0  0  0  0  0  0  0  0
    4.6947    4.6154  -21.4979 H   0  0  0  0  0  0  0  0  0  0  0  0
    6.2252    4.2596  -22.3683 H   0  0  0  0  0  0  0  0  0  0  0  0
    3.4727   -2.9778  -19.9834 H   0  0  0  0  0  0  0  0  0  0  0  0
    4.1318   -4.6457  -19.8836 H   0  0  0  0  0  0  0  0  0  0  0  0
    2.9130   -4.0886  -18.6875 H   0  0  0  0  0  0  0  0  0  0  0  0
    6.1360   -4.0549  -16.7679 H   0  0  0  0  0  0  0  0  0  0  0  0
    4.4653   -4.7130  -16.8149 H   0  0  0  0  0  0  0  0  0  0  0  0
    5.6841   -5.2701  -18.0111 H   0  0  0  0  0  0  0  0  0  0  0  0
    3.7473    1.9308  -21.3291 H   0  0  0  0  0  0  0  0  0  0  0  0
    3.2920    1.1794  -19.7623 H   0  0  0  0  0  0  0  0  0  0  0  0
    4.5434   -2.4277  -17.7882 H   0  0  0  0  0  0  0  0  0  0  0  0
    4.2524    3.2789  -19.4651 H   0  0  0  0  0  0  0  0  0  0  0  0
  1  3  2  0  0  0  0
  1  5  1  0  0  0  0
  2  4  2  0  0  0  0
  2  6  1  0  0  0  0
  3 13  1  0  0  0  0
  4 14  1  0  0  0  0
  5 16  2  0  0  0  0
  6 17  2  0  0  0  0
  7 11  2  0  0  0  0
  7 15  1  0  0  0  0
  8 12  1  0  0  0  0
  8 15  2  0  0  0  0
  9 13  2  0  0  0  0
  9 16  1  0  0  0  0
 10 14  2  0  0  0  0
 10 17  1  0  0  0  0
 11 29  1  0  0  0  0
 12 29  2  0  0  0  0
 13 27  1  0  0  0  0
 14 31  1  0  0  0  0
 15 30  1  0  0  0  0
 16 35  1  0  0  0  0
 17 36  1  0  0  0  0
 18 21  1  0  0  0  0
 18 23  1  0  0  0  0
 19 22  1  0  0  0  0
 19 23  1  0  0  0  0
 20 23  1  0  0  0  0
 20 30  1  0  0  0  0
 21 32  1  0  0  0  0
 22 24  1  0  0  0  0
 22 32  1  0  0  0  0
 23 31  1  0  0  0  0
 25 28  1  0  0  0  0
 26 28  1  0  0  0  0
 27 32  1  0  0  0  0
 28 35  1  0  0  0  0
 30 37  1  0  0  0  0
 31 37  1  0  0  0  0
 33 37  2  0  0  0  0
 34 37  2  0  0  0  0
  1 38  1  0  0  0  0
  2 39  1  0  0  0  0
  3 40  1  0  0  0  0
  4 41  1  0  0  0  0
  5 42  1  0  0  0  0
  6 43  1  0  0  0  0
  7 44  1  0  0  0  0
  8 45  1  0  0  0  0
  9 46  1  0  0  0  0
 10 47  1  0  0  0  0
 11 48  1  0  0  0  0
 12 49  1  0  0  0  0
 18 50  1  0  0  0  0
 18 51  1  0  0  0  0
 19 52  1  0  0  0  0
 19 53  1  0  0  0  0
 20 54  1  0  0  0  0
 20 55  1  0  0  0  0
 21 56  1  0  0  0  0
 21 57  1  0  0  0  0
 22 58  1  0  0  0  0
 24 59  1  0  0  0  0
 24 60  1  0  0  0  0
 24 61  1  0  0  0  0
 25 62  1  0  0  0  0
 25 63  1  0  0  0  0
 25 64  1  0  0  0  0
 26 65  1  0  0  0  0
 26 66  1  0  0  0  0
 26 67  1  0  0  0  0
 27 68  1  0  0  0  0
 27 69  1  0  0  0  0
 28 70  1  0  0  0  0
 32 71  1  0  0  0  0
M  CHG  1  32   1
M  END
> <OMEGA_C>
yPjQQH6gX79WnLHBdRsiQVIF6D85H6vB2La2QF1ocD67cq/BxAoXQXgbKUC88KPBiHnUQBrt9L/R
FKrBXegiQV5s2D41VKnBwWAMQWgB20BY83rBJVMjQV66okAAaG3B8oWjQCevO7+TMp7BZnINQW7e
MD96NJnBf/sWQTa390CRXG3BOVEtQaZLwUChWWDBS8ifQFDdmj7ZvqXB1WoMQSP/BEAdE5vB+4wS
QZear0BwBnvBO7S9QEpb7b99XKDBO6UYQSwqDL5jV6DBjfq/QBXxS0CjV4zBN8TVQAjUiEALxZ3B
c6z1QDtYoUBD9IzBnousQNQ7A0BE1JLBgUS/QBevSkDICKTB3mDlQGWMdEAnppLBZ++sQNu2dEDO
Pa7BdplxQDY3csBoZZrBp4OqQBgbjcBEZ4vBC0eEQIJ1wD+7IqPBmyGdQIcBUsAsBJPB8hEnQXTA
6kCzaWDBBb8IQSd/kkDUTYTBKWgFQdo8OUCB6JLBkNecQOnwIkAgWp3BxzUrQQIzY0BPk4zBgRoT
QSQeBkBZfIDBYJnCQP5qOcA4MZnBw+EZQUx9u78Dcp7BOhYWQfeeSkDBZYjBWXXiQGBPbb8CDbnB
6v0pQVRWD0B3ArLBOBi0QCZxhD9MN7XBVawWQeh2bUAENaXBzL7oQPLOMMDVwqvBkmcrQXnBXL6f
2q7BCkP/QEQA5kDPnoLB0m0oQRC4gUDdBW3B5lWSQAgULL+7t5bBvKIFQdx6hz4wS5LBbTMSQWx2
DEFgOm3B5Uc6QXCFt0DABVbB32SnQKzKfEDWzIrB2ffLQH/LMkBbsITBjZTxQDnCk0Bwa6LBFz+/
QHWMo0A1tpzB4fEDQe6ZtUDhhpLBDbraQO+7s0BEponBAATFQAmPoz/PK5TBfZiRQB4Mzz/8WY7B
NNDWQCm0GUBmVqbBe1GcQL8WREDhD7PB3zqWQJOxk0DD+6vBEDXHQPVOiEBD8rLB6D9eQGqUPsDs
3Z/BBjiEQK2plMCoEZ/B5G46QNXVgsDxf5XB2lnEQPrBgcCkJIbB2uOOQAnRlsD7hIbBbeS1QOGk
qMCxFpDBhNNvQFEj9z/8oarBz69SQJL2lj81GZ7B6GORQKpfG8BKTo7BXROIQCLaUUBuuJvBN6yq
QG49k7+rXLTB+wssQYgd6j/706XB7CuVQFGCsTzeM7HBKDgfQYEMIUBLYp7BMqi6QIxJAsCbkqzB
HZIoQfxR6j4Tu6fBg84MQZr50kDExHXB+doqQZCQokB6snPBLc+fQIBPEb/md57BJG0LQYao6z7n
sJrBImsYQUbN70CLzWjBuqQ1QXkSwUDQJ2fBtpyQQCIsrD7nPabB2aAOQTiE6z+x5JjBiQgWQQtY
q0A2dXvBxXS0QMNw4b/DnaHBolEYQSzeab4XJaLB3rq8QBLTX0BwZI3Bjj/fQMtge0DnL5/BqXYA
Qb5WnECHdI7BBCOjQC6eFkBLmJLBOS3DQHcrNUAIdqTBz7PoQIV/a0AwEJPBTBG6QFHyUkAjFLDB
V/+PQDUdj8C4UJjBwMq4QL85ZcAQVojBsbR3QLtG0z+u7qLBDXajQLHcTcCaCZPBRHEsQR695kAE
3GHBR88KQcl7jkAkWITBi7kCQV29H0B8+JDBQaiaQD+xKEC0Hp7BgwsmQXHAG0Ce0oXB/EUCQQEV
BkAMTXjBiLPDQJ53KcC4E5rBajQVQQhWxr8o5qPBxCAPQTJtLkAymYTBX+euQAdfr787wbzBWos4
QWGQFkDtE6rBjRWIQCoqLz+jMLfBGQwiQT4hZECw2pzB8K3LQDNAO8Ay/a7Bf1syQRlDjb2ueK3B
9Ov5QGE020BWTHvBTnUyQTBuhECmaHfBlaebQBydsb4hE5bBLDP+QGMTjL2VW5bBfiURQSnrBkFi
T2TBpadFQfA7ukD/oGHBjVSqQPPOjUBACo7BnybCQI7AUEBl54TB6/D9QG1AfkAAe6PBApnOQDmL
nEAO+J/BD7IMQZ0qp0CYLJTBW2/qQPSitkDZ14zB0o61QNC6tT/N7ZHBHHGEQFNrD0DtYY7BQUzV
QLyw8T+osqTBgyemQNr1IkCVKbTBERmpQClOiEDr6K/B9X7YQHVoWkA9Z7TBKeaAQLM0hsBE8p/B
p2upQFe5psDbzJnBE5pvQKcQncCn9ZLBhnrGQIROK8Ddr4TBysOgQCFygMAD6oLBaGLSQNAaisA3
wYnBpZZaQJr3BkBxDqrBDZVFQH51tz+sAJ3BkteJQD8OH8ADj5HB1aOLQKwwYUAlS57B

> <OMEGA_E>
uP/qPvBIQz8=

> <OMEGA_NBR>
     18471

$$$$
50220587
  -OEChem-04172616093D

 71 75  0     1  0  0  0  0  0999 V2000
    6.4784   -0.7908  -22.2784 C   0  0  0  0  0  0  0  0  0  0  0  0
    9.3305   -0.3240  -19.8977 C   0  0  0  0  0  0  0  0  0  0  0  0
    9.6599    7.8092  -15.1693 C   0  0  0  0  0  0  0  0  0  0  0  0
    5.6405    0.2961  -21.9818 C   0  0  0  0  0  0  0  0  0  0  0  0
    8.6898    0.5817  -19.0340 C   0  0  0  0  0  0  0  0  0  0  0  0
    8.8937    6.8973  -15.8978 C   0  0  0  0  0  0  0  0  0  0  0  0
    6.6201   -1.8408  -21.3537 C   0  0  0  0  0  0  0  0  0  0  0  0
   10.0297    0.1546  -21.0237 C   0  0  0  0  0  0  0  0  0  0  0  0
    5.0940   -0.7074  -19.8285 C   0  0  0  0  0  0  0  0  0  0  0  0
    9.4534    2.4432  -20.4180 C   0  0  0  0  0  0  0  0  0  0  0  0
   10.6603    7.3290  -14.3025 C   0  0  0  0  0  0  0  0  0  0  0  0
   10.1631    5.1092  -14.8425 C   0  0  0  0  0  0  0  0  0  0  0  0
    4.9475    0.3392  -20.7542 C   0  0  0  0  0  0  0  0  0  0  0  0
    8.7312    1.9639  -19.3083 C   0  0  0  0  0  0  0  0  0  0  0  0
    9.1589    5.5192  -15.7481 C   0  0  0  0  0  0  0  0  0  0  0  0
    5.9230   -1.8148  -20.1287 C   0  0  0  0  0  0  0  0  0  0  0  0
   10.0997    1.5399  -21.2761 C   0  0  0  0  0  0  0  0  0  0  0  0
    5.9788    3.2070  -17.5609 C   0  0  0  0  0  0  0  0  0  0  0  0
    6.7284    4.2345  -19.7545 C   0  0  0  0  0  0  0  0  0  0  0  0
    7.6834    5.0277  -17.6547 C   0  0  0  0  0  0  0  0  0  0  0  0
    5.3582    2.0717  -18.3579 C   0  0  0  0  0  0  0  0  0  0  0  0
    5.9732    3.1507  -20.5204 C   0  0  2  0  0  0  0  0  0  0  0  0
    7.1710    3.7984  -18.3448 C   0  0  1  0  0  0  0  0  0  0  0  0
    5.4037    3.8321  -21.7862 C   0  0  0  0  0  0  0  0  0  0  0  0
    3.8134   -3.7554  -19.1132 C   0  0  0  0  0  0  0  0  0  0  0  0
    5.5538   -4.2660  -17.3715 C   0  0  0  0  0  0  0  0  0  0  0  0
    4.0928    1.5325  -20.3895 C   0  0  0  0  0  0  0  0  0  0  0  0
    5.0338   -3.2007  -18.3433 C   0  0  0  0  0  0  0  0  0  0  0  0
   10.8927    6.0050  -14.1485 N   0  0  0  0  0  0  0  0  0  0  0  0
    8.5176    4.5816  -16.5427 N   0  0  1  0  0  0  0  0  0  0  0  0
    8.3256    2.8519  -18.3324 N   0  0  3  0  0  0  0  0  0  0  0  0
    4.8821    2.5653  -19.6773 N   0  3  1  0  0  0  0  0  0  0  0  0
   10.6826    3.5781  -17.5801 O   0  0  0  0  0  0  0  0  0  0  0  0
    9.2239    2.1208  -16.0251 O   0  0  0  0  0  0  0  0  0  0  0  0
    6.1176   -2.8717  -19.2551 O   0  0  0  0  0  0  0  0  0  0  0  0
   10.8244    2.0085  -22.3159 F   0  0  0  0  0  0  0  0  0  0  0  0
    9.3766    3.1755  -17.0362 S   0  0  0  0  0  0  0  0  0  0  0  0
    7.0136   -0.8205  -23.2160 H   0  0  0  0  0  0  0  0  0  0  0  0
    9.2869   -1.3846  -19.6985 H   0  0  0  0  0  0  0  0  0  0  0  0
    9.4873    8.8706  -15.2694 H   0  0  0  0  0  0  0  0  0  0  0  0
    5.5266    1.0998  -22.6942 H   0  0  0  0  0  0  0  0  0  0  0  0
    8.1666    0.2190  -18.1615 H   0  0  0  0  0  0  0  0  0  0  0  0
    8.1141    7.2394  -16.5623 H   0  0  0  0  0  0  0  0  0  0  0  0
    7.2681   -2.6736  -21.5838 H   0  0  0  0  0  0  0  0  0  0  0  0
   10.5125   -0.5408  -21.6942 H   0  0  0  0  0  0  0  0  0  0  0  0
    4.5719   -0.6670  -18.8839 H   0  0  0  0  0  0  0  0  0  0  0  0
    9.5100    3.5048  -20.6085 H   0  0  0  0  0  0  0  0  0  0  0  0
   11.2577    8.0360  -13.7461 H   0  0  0  0  0  0  0  0  0  0  0  0
   10.3501    4.0546  -14.7034 H   0  0  0  0  0  0  0  0  0  0  0  0
    5.2258    3.9911  -17.3932 H   0  0  0  0  0  0  0  0  0  0  0  0
    6.3315    2.8241  -16.5919 H   0  0  0  0  0  0  0  0  0  0  0  0
    7.6243    4.5079  -20.3313 H   0  0  0  0  0  0  0  0  0  0  0  0
    6.0729    5.1125  -19.6572 H   0  0  0  0  0  0  0  0  0  0  0  0
    8.2794    5.6320  -18.3544 H   0  0  0  0  0  0  0  0  0  0  0  0
    6.8415    5.6270  -17.2777 H   0  0  0  0  0  0  0  0  0  0  0  0
    6.1111    1.2853  -18.5152 H   0  0  0  0  0  0  0  0  0  0  0  0
    4.5073    1.6578  -17.7971 H   0  0  0  0  0  0  0  0  0  0  0  0
    6.6757    2.3598  -20.8218 H   0  0  0  0  0  0  0  0  0  0  0  0
    4.8457    3.0939  -22.3810 H   0  0  0  0  0  0  0  0  0  0  0  0
    4.7298    4.6497  -21.4906 H   0  0  0  0  0  0  0  0  0  0  0  0
    6.2306    4.2377  -22.3876 H   0  0  0  0  0  0  0  0  0  0  0  0
    3.4406   -2.9907  -19.8104 H   0  0  0  0  0  0  0  0  0  0  0  0
    4.1122   -4.6513  -19.6773 H   0  0  0  0  0  0  0  0  0  0  0  0
    3.0189   -4.0194  -18.3997 H   0  0  0  0  0  0  0  0  0  0  0  0
    6.4221   -3.8709  -16.8238 H   0  0  0  0  0  0  0  0  0  0  0  0
    4.7595   -4.5301  -16.6577 H   0  0  0  0  0  0  0  0  0  0  0  0
    5.8527   -5.1619  -17.9353 H   0  0  0  0  0  0  0  0  0  0  0  0
    3.6780    1.9702  -21.3094 H   0  0  0  0  0  0  0  0  0  0  0  0
    3.2708    1.1986  -19.7393 H   0  0  0  0  0  0  0  0  0  0  0  0
    4.7271   -2.3098  -17.7756 H   0  0  0  0  0  0  0  0  0  0  0  0
    4.2501    3.3154  -19.4827 H   0  0  0  0  0  0  0  0  0  0  0  0
  1  4  2  0  0  0  0
  1  7  1  0  0  0  0
  2  5  2  0  0  0  0
  2  8  1  0  0  0  0
  3  6  2  0  0  0  0
  3 11  1  0  0  0  0
  4 13  1  0  0  0  0
  5 14  1  0  0  0  0
  6 15  1  0  0  0  0
  7 16  2  0  0  0  0
  8 17  2  0  0  0  0
  9 13  2  0  0  0  0
  9 16  1  0  0  0  0
 10 14  2  0  0  0  0
 10 17  1  0  0  0  0
 11 29  2  0  0  0  0
 12 15  2  0  0  0  0
 12 29  1  0  0  0  0
 13 27  1  0  0  0  0
 14 31  1  0  0  0  0
 15 30  1  0  0  0  0
 16 35  1  0  0  0  0
 17 36  1  0  0  0  0
 18 21  1  0  0  0  0
 18 23  1  0  0  0  0
 19 22  1  0  0  0  0
 19 23  1  0  0  0  0
 20 23  1  0  0  0  0
 20 30  1  0  0  0  0
 21 32  1  0  0  0  0
 22 24  1  0  0  0  0
 22 32  1  0  0  0  0
 23 31  1  0  0  0  0
 25 28  1  0  0  0  0
 26 28  1  0  0  0  0
 27 32  1  0  0  0  0
 28 35  1  0  0  0  0
 30 37  1  0  0  0  0
 31 37  1  0  0  0  0
 33 37  2  0  0  0  0
 34 37  2  0  0  0  0
  1 38  1  0  0  0  0
  2 39  1  0  0  0  0
  3 40  1  0  0  0  0
  4 41  1  0  0  0  0
  5 42  1  0  0  0  0
  6 43  1  0  0  0  0
  7 44  1  0  0  0  0
  8 45  1  0  0  0  0
  9 46  1  0  0  0  0
 10 47  1  0  0  0  0
 11 48  1  0  0  0  0
 12 49  1  0  0  0  0
 18 50  1  0  0  0  0
 18 51  1  0  0  0  0
 19 52  1  0  0  0  0
 19 53  1  0  0  0  0
 20 54  1  0  0  0  0
 20 55  1  0  0  0  0
 21 56  1  0  0  0  0
 21 57  1  0  0  0  0
 22 58  1  0  0  0  0
 24 59  1  0  0  0  0
 24 60  1  0  0  0  0
 24 61  1  0  0  0  0
 25 62  1  0  0  0  0
 25 63  1  0  0  0  0
 25 64  1  0  0  0  0
 26 65  1  0  0  0  0
 26 66  1  0  0  0  0
 26 67  1  0  0  0  0
 27 68  1  0  0  0  0
 27 69  1  0  0  0  0
 28 70  1  0  0  0  0
 32 71  1  0  0  0  0
M  CHG  1  32   1
M  END
> <OMEGA_C>
vU7PQG5xSr84OrLB0UkVQeDhpb5rLp/B9Y4aQTzl+UBftXLBIn+0QBqYlz6p2q/BSgkLQUrpFD+J
RZjBiUwOQZS23ECVXX7B2tfTQLSe679W1KrBiHkgQV5DHj5yMKjBzwGjQLcaNb+/oJ7BKUEXQchd
HED4V6PBdpAqQR+H6kA612TBEZwiQVd+o0DLem3BUVKeQMqorT6YCKbBCbMLQUNg+z9zd5rBwIoS
QeucsEBE+HvBmIm9QLBM6L+bB6HBWZghQZ0cxT9kNarBrFK/QP4/TUDBfIzB8U7XQDqBh0AwCZ7B
TN71QMLioEDOPI3BmHarQBaXBEAR3ZLBOCS/QLKlSUDeKaTBiXjlQNwYc0AWwpLBNuusQH5AdUAh
Sq7B5A50QNJYcMDR55jBqLixQCuDiMDA+IrBmPiCQCgoxD+oHaPByxShQODYTMAJv5LBjkguQdoo
wEATYGLBR0gIQYqckkBzV4TBqDUFQS6FNkC7qJLBEjqcQGgtJEAEa53BwusqQZz/ZED2o4zBPpUT
Qdy7B0BeM4DBqsPDQFzKN8B2CprBxDAtQaiLAEDwhrLBpwYWQQw7S0AkSojBCm/gQJsJUr9rurnB
UJcUQYI5sb9+lp3B28sXQSHuDUFeT3TBBNqwQLTEjD+xjbXBPqoCQR5DYD7QSpHBStMBQYWp50Ct
f4TBQpToQLEbK8Ctq6zBZTMoQU90Cr/Fja3Bo0ySQJe9Kr9UEpfB5CgYQRpOYEBO3qTBmR80QXuT
AEEq8FvBGZolQX6/gUD1QGvBjDmnQCduf0BGJYvB/pvKQA++NEA8vITB+vnzQMJAkEBqpqLBSlXC
QMmZo0DdQZ3BU3gEQac5tEC+1ZLB5O3aQC4QtECtOIrB8Y3DQEiEpD8uH5TBuzuQQEsz1D9gYI7B
SZ/VQFQGF0ANk6bBtw+bQCEDRkA+DLPBW1qXQP3JlEDV7KvBJGHHQJObh0DGGbPBZDJcQEBnP8DK
e57Bx5aDQFbXlMAJa53BTjZBQPuegMCAMpPBIILNQC69d8A7l4bB3E2YQC/2kMAPQ4XBfEm7QIou
pcCYe4/BK2VrQMEv/D++earBylRRQA1smT8G6p3BOUSXQEzUE8CBNI7BfwCIQHMvVECP3JvBQSDP
QBC7TL+JNrLB/w4hQR2exD8TgKrBT20aQWfo+UDgnXLBU1G0QCvpkz5y4K/BMQwXQYfZHEColqPB
pgcOQTS83ED1IX7BxqzTQOs57L9gxqrB6VkgQei/ID5EOKjBzeSiQA5uNL8mnZ7BV6ELQQqVGz8k
G5jBBnAqQSKF6kCKwmTBby0iQSd5o0BvFm3BzCaeQKdJrD5QDqbBpPULQXDl/T97gZrBWy4SQZKg
sEAHp3vBxXO9QOzi57/x9qDBSs0VQTJPnL7t9p7Beay/QO8ETEALfYzBKwbXQDi3h0DcBJ7BMGn1
QA0BoUBrKI3BQPmrQOaWA0AA7JLBExm/QDW+SUASLKTBmXnlQMtXc0Brw5LB9KSsQOQcdUDOSa7B
uqp1QPo0c8DKY5nBjr2wQEskiMBT5IrBrvOCQGwRxD8FIaPB6GKgQN9wTcDI4JLB8fotQS0iwEDs
HGLBMQYIQfarkkBEPITBGn8FQYNMOECBwZLBOmGcQC/JI0CmaZ3Bj/MqQVs+ZkABY4zB31UTQfCL
B0AFQIDBw8zDQFjHNsAB35nBB9EVQZilz78EipzBXPUVQQHfS0DLN4jBWzzgQIp5Vb8Ft7nB7Ugp
QW/j8T9NjbHBL8QXQWHxDUFjUXTBsKywQNF8iz/4mbXBqtgXQR6iYEBBO6XBoIUBQYmz50AhXITB
kljoQAqQK8DOl6zBs+cnQbwTDL+Kkq3Bpy6SQAkKKb88D5fBrJEDQX2wgj7JAJHB6yQ0Qe6RAEH8
A1zB2QElQWi3gUCzsmrBP1ynQO6RfUBsB4vBdU/LQG8DM0A7y4TBQYvzQFXVkEBWpaLBasjBQIWW
o0C5MJ3BKjoEQUaltED7sZLBFj/aQMThs0BkJorBLDzEQKh+oz/RRpTBj/OQQLCd0D8xbo7BgsPV
QHp6F0B9l6bBxvqaQJGZRUCKDLPBIduWQEWElEBk6avBjvjGQCnLh0AVGrPBEU9eQKodQ8BzHZ/B
odmFQNwWlsDBw53Bg4RBQEKegsC17JPB/nbLQEBAdcB8RIbBBrOWQGoqkcDuaoXBZcq7QASjpMD6
QY/BjoJrQG6O/D/Oe6rBoC1RQLSmmT9t753Bzx2VQHTEFMCpe47BmDGIQAesU0C9xJvBpYLOQGfP
Tb9IT7LBogkhQeQMxj9ve6rBQt8tQaKUxUCT62LB29uzQD6ikj4f7K/B9SIXQYL2HEBbc6PBPFwi
QW2UpUD7f23BMS7TQLnK7L/Y4arBKEMgQfTMKD5WWqjB7/OiQGAaNL90nJ7Bza8LQZ7gFz+KJZjB
MgIpQQPW8ECIA2fBnSUOQZjr3UCoN3/BkAqeQMbCrD4yDabB5hAMQdeY/D/KZZrBJ24SQQnNsUCR
NXzBHEq9QJ8q6L+GBqHBOr8VQWYRn77rIZ/ByWS/QE3KTUAehIzBSoHXQB9Kh0CMGp7BQQH2QCoh
oUB1WI3BbnarQM/uBECF25LBEla/QI/8SECvMqTB56blQARGc0DZypLBwDatQN44dEBaXa7Bbm51
QDrDcsAsHJnBN7yxQCL+h8Bk4orB1N6CQPJAxD+EG6PB3NqgQKQlTcAezZLB8VkZQb5H/EBCz3TB
SDAIQctMk0DcVYTB+VsFQY7+NkDmmZLBQVGcQAAnJECwcJ3BP/EqQSH5YUBCAIzBkz4SQaBfCEB8
m3/BZ87DQOMLN8BX9pnBsqkVQSjz0L/C4JzB3Z8VQZHFSkCp84fBVWffQDjWVr+E17nBSDspQTmd
9D+kgrHB/ls6Qfk6vUC2ulfBkQ+wQCMTiz+1pbXBNQEYQbrnYEBx+qTBe54lQQIxhED8c2rB5LHn
QP39K8BCvqzB9bwnQdslCL98y63Bb46SQAT/J7/NA5fBLa0DQSHuaz4REJHBiwQyQTO/BEHA7F7B
cZoBQQNs50BMDoXBiFinQBIRgEDANovBpJnKQKCFNUC9voTBmTH0QPrqj0BWuaLBZonCQCVpo0A0
X53BW6oEQXYitEDC9ZLBJwTbQB2ItEAIc4rBLX/DQDjbpD81E5TB0CyQQGWI1T/XXI7BEcbVQNMh
FkCmjqbBJl2bQKTTREC0GbPBmqmXQLZZlECVC6zBZbrHQE71hkAOLrPB2k1dQGGvQsB5yZ7BAEeF
QITwlcB+hp3BKCBCQHZDgsAfgpPBseDMQKoTdcAwZ4bB0xyYQBPikMBVRoXBvlO8QCCPpMC0So/B
JQJrQEFe/D9FdKrB9UFRQPPbmT/2353BVRGWQCRJFMBcXo7BGDiIQJRxVEAm65vBePjOQDMdTL+C
PrLB0ScVQcx4pb4FGp/BqOUtQWs/xUBywmLB7DS0QASxlD4R3K/BAEALQfwrFz+BIZjBw4oiQbZo
pUAFnm3BVpLTQOlW7L8N16rBFQMgQbYlFT5bPqjB2PaiQICYNb+ymp7BcSwXQc4wHEDkZ6PBiO0o
QWeM8EBAmGbBf0wOQen33UCVIH/Bwi+eQHjxqz4qBKbB4+kLQV5L/D+oZ5rB8qQSQbTUsUB8UHzB
rmi9QGGv6L8CBaHBiCkhQfHCwz9VVarBCpm/QFNsTUDPgYzBImLXQJR2h0AUGZ7Bluf1QNBJoUC2
VY3BrMSrQFKPBEAN3JLBFDS/QDRTSUD/L6TBGKblQBGGc0B+zZLBeNasQBSwdEBTUa7BG4N0QD3e
ccBNEpnBAnexQPqYiMDZ94rBHPSCQHTlwz+NEaPBgNGgQDN7TcAbzpLBLFoZQbQu/EDRcnTB7lsI
QbJ4k0BYZ4TBBG4FQXe9N0CDrZLBEF+cQCoEJEC9Z53BoQQrQRP0X0CY34vB4p0RQSgFCECYrn/B
iLXDQLPMN8BzAprBO2UsQWqY/j9UzrLBWYEVQUpBSkCN84fB6gHgQAUMVL/fwbnB1nEUQV/ysL/O
c53BG1g6QcK+vEB4jVfBgnqwQDjjiz8JkbXB2iUDQTktcT4tDJHBROUlQSr7g0AgymrBZz7oQCaL
K8AcsazB0XUnQVpJDr/Vp63BNmOSQAm3Kr/ZB5fBCSAYQVwMYECs+qTBMMkxQcGLBEF2QV7BbdYB
QRmc50DqCoXBv26nQKp1f0AlKIvBPf/KQL0LNUBKwoTBNAT0QH0nkECAu6LBmmLCQIONo0AYWJ3B
1W8EQT+RtECJ95LBbd/aQOxptECgWYrB8erDQL+3pD8uIZTB2aCQQEPj0z+iWY7Bc6/VQHWwFkDk
l6bBsfeaQAFNRUDKDLPBm0GXQDh/lECL9KvBijrHQLBRh0BdJ7PBNalcQG89QcBxsZ7B41SEQMWF
lcCRi53BLVBBQO2egcB2b5PBEejMQBJAd8AVg4bBbOCXQJxJkcBGVIXBOI27QHUwpcBgcI/BfRpr
QNfx+z/FaarB9HlRQMJYmT8n1Z3BUH+WQJWbFMBXTo7BpzWIQPcaVEAz1pvBAXatQPTior/bVrPB
A0sjQahoXjxOep/BgX8XQbfb7UCcdWTBulmXQKAm7L17HrDBvt4WQZ2RNT+l4JfBiVsLQSHiz0CV
DXDB9pO/QHXrB8BSm6vB7ioqQVKLKj+z2KjBtPKlQHXzJL89bZ3BB5sZQVWHLkAWmaLBYbstQQy+
8ECXImjBeCIsQRiSukBPBoHBhlCUQKWPYj7yKqXBifAQQXV+A0Dup5nBstUVQXdatUDN737B/sC7
QFyV6L9cpKDBVG0lQSHhAUCTWKrBdPK+QA+tYUC2QI3B8fjZQEFvgUBUe5/BODn/QN6dokAqeI/B
yuamQPxHFEB2EJLBnOvBQIuoNUDkV6TBj9roQLKRdED6opPBBfC1QCuVTkBr+q/BUCvaQM9oDcBN
TIbBEfcKQZv5NsBu7pLBOJp7QAylwD9B2KHBJSDrQMfZBsDj05HBt583QSWF10DCunbBNy0KQWXy
lkBtRIXBNuUEQVKLLkDZ05HBMlmbQFCrI0ALgJ3BRp0oQUR1OUDp1YbBb90FQfyJFEAI8HnBHrnM
QLcvLMC8N5nB0p0sQRrGK0AQGrPBRVMRQY/MQUAtiIXBmoawQEbxwL/bvLvBt4cnQTR8gr9VHJ7B
K+IPQds6AUGO3FjBaZqIQBgYBT8LDrbBldkRQTa2Vj7vo5DBWZz0QMxEzUCwlG3BP3TQQGXoQMDb
E67B/AkzQeWQ/D0f267B68uiQCue0r7qBpXB5hsXQfyNckARfKPBwxA3QVLHA0GNHV/BNDE0Qefu
pkD44YbBEBKqQPsmjUBzj43BNjLHQKqTU0Cf4YTBg2v2QH/ah0DraKTB85XEQHxhnUBHr5/BiZkL
QZGirUA5S5XBQZvnQEAivEC9GI7BHIi7QC/Btj+wkZHB1nWJQBgxCUC+cY3B1C3XQMYc+z+dd6TB
qqukQMxRGUCAyLPBQGShQJ/eg0Dg3q/BAULTQNNiXEAUiLTBtKO7QBt81b/PqIXBayvVQH0ZUcBl
OoTBxZXxQDIt4r9Kw4DBFccQQf6cMcDkNZvB+s0WQTrWGsCrc43BzZgIQR3ZesDG6pDB9ZlaQEBw
9T8H4qjBBElMQKUnoT8YopvBvU/wQAT/hb9dyJPBH1qKQCrlWUDyhZ3BGHytQITxor9/VLPBqkoj
QegwVzwlep/BEvA2QfeM2UAsyHXBU1yXQN5q7b2jHLDBjt0WQf9mNT+D4JfB+QgsQUnzukBUDIHB
upi/QPLvB8CBmKvBMysqQW55Kj812KjBCu+lQJoUJb8Oa53B8psZQSKCLkDdl6LB8mcrQd5G8kCm
2GbBekQLQR3Hz0CK8W/BOk6UQIXuYT4lKaXBTvAQQa11A0A+p5nB+tcVQf5ntUDJ9X7BvMC7QBCg
6L+ooaDBDm4lQZvdAUCgV6rBkfG+QDu+YUDIQY3BHfrZQN5mgUDhfJ/BVUH/QAydokDse4/BIeGm
QAFWFEDJD5LBLubBQO+aNUAoWKTB49voQOCNdEAzpJPBNem1QFaHTkC2+q/BqivaQM+RDcC2SIbB
GvYKQe/1NsCf7ZLBPpF7QEuPwD+o1qHBmhvrQNXjBsBr0JHBCAMWQYJS7UBtNWTBgzcKQc73lkBk
SYXBWeMEQb1/LkCJ05HB41ObQJ6oI0Def53BIpgoQdYtOUAW0obBgNAFQSWvFECT7HnB8LTMQJ01
LMCbNJnBCJ8sQZLEK0DgGLPBQk8RQe7DQUAmh4XBWZCwQHT/wL9rurvBkIcnQcqKgr9hHJ7B+PRH
QZMY3kAPunfB+52IQM3nBD+PDLbBCtcRQZXOVT5NpJDBdX80QXzyp0Di5IbB/HvQQIfqQMCfEK7B
XQozQTMz/D262q7BisSiQLfl0r7NBJXB4h0XQe2JckA6eqPBA8wzQUvXBEFUS13BZG30QD9VzEDB
wG3B0RSqQPUxjUApko3BVS/HQKCwU0BD4oTBeW32QGbKh0DPaqTBnZvEQGlcnUDfsZ/BO5oLQUOe
rUAfUZXBoKXnQK8ivECHG47BUX+7QLnVtj+Zj5HBnm+JQAhNCUDEcI3B8CTXQBj3+j/1d6TBAKCk
QK5HGUA6yLPBl2GhQLDag0Ah36/B+jrTQANLXEDuiLTBB6K7QBfh1b8/o4XBADHVQIxIUcAeOYTB
X5bxQF+M4r89v4DBdsQQQYCDMcAnNZvBFM0WQd/YGsBjco3BZZoIQTvbesBF7JDB5IhaQPRL9T9D
4KjBjUZMQAkSoT+4n5vBNUXwQOMHhr/WwpPBeFSKQADiWUAch53BDAivQHtboL8/a7PBCVAmQcAj
BkDuS6rBuxkXQWZz7UC8DGTB8mGYQJCN2r3+KrDBdwYaQVx1MUBDl6LB6w8LQeRxz0Dou2/BERDB
QNDiBsBpsqvBoRYrQTDBOz968ajB7lqmQIU2J7+pd53Bt8wWQbKDOT+YP5jBfVEtQaq68EAVvWfB
bOYrQTTeukAc6oDBP+GUQHiNXz6AMqXB+woRQZ/xBEDP0ZnBZJ8VQbpEtUBhuH7BYDe8QFa06L/3
t6DB6tUjQUilYj3Dxp/B2/S+QAcTYUBfOo3B8dvZQKahgUDoc5/B8/P+QBqtokDXZo/B6hWnQGue
E0AwEZLBEM7BQDYmNkCfV6TBdsHoQKymdEDtn5PBI5G1QAK1T0Az8K/BE4D4QEYoBcC96InB6tkJ
QYBKacASVpjBahl8QOhsvz/k2KHB76f3QEKKGsDQ8ZXBVko3QezY10CvbHbBtxAKQajclkDmN4XB
Q+oEQcvXLkCU6JHB/F2bQFBcI0BXe53Bja8oQUYsOkCh7obBLQ0GQarKE0DbG3rB1yfMQE/0K8BW
K5nBpLMpQVCVnb+zLZ7BrGMRQczLQUDRmIXBDJKyQDjuvL9w07vB/hUsQZrmJ0DmQrHBVGsPQTPj
AEGwX1jB4JOJQHtfBz+3F7bBmGkXQah+dUAlYKPByQv0QAuKzEDQQG3BPJvSQF0LP8CKLK7BU000
Qd1IVT687K7Bk/yiQL4l274wD5XB0jERQYVlSz4HPpHBtpI2QTvJA0Hip17BDQY0QfSAp0B2zobB
jeypQCe+jEAVfo3Bp1HHQLPEUkB93oTBGkv2QAYgiEAoYaTBqHbEQNySnUAToZ/BcnALQUTurUD9
NZXBkTnnQOsOvEAd/o3B5OG7QLfctT9xn5HBqbqJQLsBCED6bo3BfinXQKds/D8ojKTBZEmkQGKX
GkCJxbPBP/WgQEdhhECmwK/BLMjSQLTqXUCsg7TB603kQC6jmb8DYIjBUj3sQAAJPMDqU4XBkcgM
QZm+7r/AbofBZFQJQehwd8Dj86DBOXQaQWcEXMDu7pXBUcoDQQ1XkMAY1JPBJ+ZaQN4K9D894KjB
o+dMQL35nj/wo5vBXSUCQT/1xr9CbZrB5SqKQGpUWUDLdZ3BigWvQLFOoL+NbLPBwFImQYkRBkAD
SqrBt6I2Qfi02UCkaHXBqWKYQFpa2b3nK7DBqAkaQcxhMUAMlaLBidUrQUIcu0Cg6IDB5QnBQA/k
BsAFtKvBrxcrQStuOz9b8KjBv1emQCc+J7+6eJ3BMcwWQXcaOT//PpjBFQYrQe4a8kCvZmbBfv8K
QX9Mz0ChnG/Bw+CUQIXWXz44M6XBaAwRQQTaBEBc0JnBzKgVQX49tUDhtX7BfzG8QMa86L99uaDB
dtUjQWR4XD1Dxp/Btfi+QA0TYUAlOo3BjObZQDybgUAYc5/B0gH/QA2kokAgZo/BOxenQPafE0DQ
EJLBwtLBQM0hNkAbV6TBaMnoQKWXdEDfnpPB7Je1QKm3T0Cq76/BT3X4QNQ3BcAX6onBZtQJQXRc
acBDV5jBNRx8QFB5vz/c2KHBQJ/3QDaZGsAo85XBZ6UVQZbW7EAWyGPB+SAKQSHSlkCxOYXBBesE
QdW8LkAo55HBFWGbQCNfI0AUe53BBKwoQcavOUCk6IbBJv8FQWHIE0DdFnrBjR/MQB/+K8BCLZnB
u7EpQa3Lnb/TLZ7BZWERQZmdQUANloXB14+yQGjavL/U1LvBoRksQRXXJ0CWQLHBzKNHQQJ/3kBs
VnfB95eJQMSfBz91GLbBhm4XQcZsdUAZXaPBBV00QYJaqEC4x4bB5JHSQMUPP8BuLq7BRU40QR8S
VD7F667BcvmiQAJQ274qEJXBwS8RQSyIST4BPpHBX1YzQbfABEFkx1zB/ujzQJKcy0Bwb23B5/Op
QJfAjEASf43BCFHHQNLIUkDg3YTBlVf2QIEUiEAXYKTBCobEQBKQnUCRoJ/BMnILQbzprUBkN5XB
PUjnQKsDvEAZ+o3BHuG7QOjZtT/VnpHBKruJQCwICEC8bo3BRCrXQAFY/D/wi6TBHUykQG6gGkA9
xbPBdQChQMdlhEDlv6/BIdDSQILlXUAMg7TBnkTkQDC9mb+fYYjBui/sQCMXPMB5VYXBH8MMQW3m
7r+eb4fBcU8JQWmBd8Af9aDBtW4aQS8bXMCz75XBc8MDQY5fkMCP1ZPBO+haQG8f9D/q36jBU+tM
QK4Enz/Vo5vBRSICQYEVx79jbprB/y+KQM1ZWUC/dZ3BPf+uQEcsn7+ibbPBAWcmQaRUBkCbOarB
vI8qQc/LyEAZLV/By0WYQJ5lzL2GKLDBtSMaQWOWMUCDgaLBQfseQXToqUC2s2rBrwzBQAVjBsAu
uKvBlCIrQYxHPD9e5ajBcz6mQBCbJr9/d53B3tsWQcRxOT/eMZjB33ksQcWL8kDFgWfBuO0XQZdW
4ECYyILB+rqUQDISYz6ZLqXBfSMRQTP4BEBmv5nBxHwVQQCMtUCtXX7Bmii8QCIn6L+NvKDBnN4j
QThZZD0IvZ/BLfS+QM3+YEAQN43BV+jZQFpUgUDddZ/Bucr+QBONokBqhY/BngSnQKebE0ATCpLB
8bPBQPvbNUA2VKTB9broQOJFdEB/oZPBzXa1QGPDT0D86a/BAWf4QBFNBcAA7YnB38wJQZk2acCI
YJjB98l7QMqzvz/NzqHBzZP3QKl3GsCZ95XBkkIjQXOn/UBJUHrBETwKQShGl0CgV4XB//IEQRzH
LkC/25HB80abQCBhI0A+dJ3BO64oQfE5PED/z4bBK/gFQQn3FEBA63nB5BTMQCnNK8BDM5nBW7Ep
QQqvnb/pKp7Bs1URQfKBQkASiYXB+JOyQBNgu7/L1rvBiTAsQeksKEA1LrHBL+wxQXuiwECeFVDB
iXCJQHFdCT+XErbBHY8XQauodUD/RKPBMV0dQV26iUCOnGTBmqTSQKpxPsDQNa7BYVM0QZfXVz6I
467BEN2iQPca274aDpXByz8RQSkaSj7CMZHBeX01QQMYBUF0sl7BxYkQQUXP6UDUOYrBUfqpQKS+
jEC+e43Bf1bHQKi+UkAm24TBAGX2QO2ch0CZYqTBO6nEQOhhnUC7qZ/BIDkLQSvGrUAwZ5XB9fTm
QHLUu0DcG47BBMa7QM23tT+0mJHBOquJQLcZCEAWZo3By+7WQMx3+z8gjqTBNgqkQMziGkAUwrPB
af2gQJWAhEA0tK/BObDSQELKXUDDfrTBDznkQEXsmb/4YIjBrxzsQEQ+PMCJXIXB8rsMQcM277/a
cIfBHUkJQfI0d8Bl/6DBHGcaQaEHXMBI95XBgrkDQUJVkMD34pPB8HBaQG109D9W0qjBdLlMQKUe
nz+alpvB5h0CQTGvxr/3bprBryWKQOZvWUAwb53BKA6vQMdGn7/mcLPBmm4mQT0yBkBXN6rBX+Yj
Qb3o/ECL53jBQFSYQJr0zb10LLDB5SoaQa54MUDgf6LB3/MXQYQ/4EA0toLBTxjBQJJwBsAKu6vB
FykrQR+/Oz964qjBfESmQLjNJr8Be53BM+AWQWQUOT+cL5jBO/AsQYOZ7kBqhmXBEf4eQc2dqUCJ
qGrBGsWUQDdPYj6YMqXBJSkRQUHhBEDBvZnBAn0VQc2JtUDiXn7B8i68QIRC6L98v6DBjOMjQUgN
XT0Qup/B8fW+QAXvYEAPOo3B+/LZQEtFgUCReJ/B4cn+QA6GokCUiY/BSganQBeNE0BrDZLBpL/B
QInBNUAPV6TByr/oQMcvdECpo5PBU4m1QEKqT0Aw7a/B9mP4QAVfBcCt7onB78oJQUtWacBAYZjB
Edt7QNGYvz9G06HBKZT3QE+PGsA8+ZXBNVsqQdTHxUCfsl7BwT8KQYNLl0BTXIXB4PUEQVa1LkBu
25HBwU6bQAZRI0AreJ3Bn60oQY8qPECfzIbBdfMFQc8aFUDX5nnBkRXMQBzcK8CkNZnBerUpQSrq
nb8lJ57B+lQRQTuHQkAMiIXB2KWyQOV7u7/22bvBSzksQQUHKED3K7HBgCMmQVnKDkEAE37B74GJ
QLYtCT/tFrbBJ5cXQRSLdUDpQ6PBrL4QQSmv6kA9HorBlbHSQNF+PsA3OK7BO1o0Qcx3VT4r4K7B
vt+iQGN92760EZXBpEIRQUvdSD6IL5HBESA2QXNUAkHH51vBiyAdQaUriUDcAWXBsf2pQNi3jEBv
f43BvlTHQOevUkDl3YTBbnL2QNyKh0CJZKTBe7XEQO5TnUCfrZ/B7zULQVDArUCbbJXB/u/mQJvJ
u0AZII7BqMW7QKqVtT8gm5HBN6qJQFMQCEBLao3BRPjWQLs7+z8dkKTB+xykQOLLGkDUxbPBshGh
QFt1hEAUuK/BjMXSQD6tXUAIgbTB6TjkQKwEmr+OY4jBbxTsQP5KPMAbXoXBXboMQb9o77/ScYfB
HUgJQeJWd8ASAKHBNWUaQSkvXMBk95XBELUDQeNikMCt45PBnoZaQJRa9D8d16jBicZMQIwDnz+N
m5vBayACQQ/oxr+ycJrBhS+KQGNiWUD9c53B

> <OMEGA_E>
CP7mPijI7D5Aje8+uHzlProgXz8SKV8/JPpgP7wHYT+6oGE/yK9hPw==

> <OMEGA_NBR>
     29878

$$$$
50220588
  -OEChem-04172616093D

 70 74  0     1  0  0  0  0  0999 V2000
    6.4421   -0.8037  -22.2887 C   0  0  0  0  0  0  0  0  0  0  0  0
    9.3253   -0.3232  -19.8924 C   0  0  0  0  0  0  0  0  0  0  0  0
    5.6090    0.2850  -21.9851 C   0  0  0  0  0  0  0  0  0  0  0  0
    8.7160    0.5886  -19.0120 C   0  0  0  0  0  0  0  0  0  0  0  0
    6.5946   -1.8503  -21.3620 C   0  0  0  0  0  0  0  0  0  0  0  0
    9.9940    0.1484  -21.0398 C   0  0  0  0  0  0  0  0  0  0  0  0
   10.5814    7.3896  -14.4478 C   0  0  0  0  0  0  0  0  0  0  0  0
    5.0925   -0.7077  -19.8198 C   0  0  0  0  0  0  0  0  0  0  0  0
    9.4527    2.4423  -20.4210 C   0  0  0  0  0  0  0  0  0  0  0  0
    9.6010    7.7827  -15.3734 C   0  0  0  0  0  0  0  0  0  0  0  0
   10.7425    6.0195  -14.1786 C   0  0  0  0  0  0  0  0  0  0  0  0
    4.9346    0.3349  -20.7472 C   0  0  0  0  0  0  0  0  0  0  0  0
    8.7585    1.9700  -19.2906 C   0  0  0  0  0  0  0  0  0  0  0  0
    5.9133   -1.8181  -20.1283 C   0  0  0  0  0  0  0  0  0  0  0  0
   10.0654    1.5329  -21.2973 C   0  0  0  0  0  0  0  0  0  0  0  0
    9.0713    5.5379  -15.7291 C   0  0  0  0  0  0  0  0  0  0  0  0
    5.9881    3.2304  -17.5725 C   0  0  0  0  0  0  0  0  0  0  0  0
    6.7425    4.2259  -19.7795 C   0  0  0  0  0  0  0  0  0  0  0  0
    7.6968    5.0485  -17.6911 C   0  0  0  0  0  0  0  0  0  0  0  0
    5.3694    2.0832  -18.3548 C   0  0  0  0  0  0  0  0  0  0  0  0
    5.9762    3.1379  -20.5304 C   0  0  2  0  0  0  0  0  0  0  0  0
    7.1833    3.8103  -18.3624 C   0  0  1  0  0  0  0  0  0  0  0  0
    5.3968    3.8127  -21.7960 C   0  0  0  0  0  0  0  0  0  0  0  0
    3.8296   -3.7955  -19.1343 C   0  0  0  0  0  0  0  0  0  0  0  0
    5.5572   -4.2600  -17.3654 C   0  0  0  0  0  0  0  0  0  0  0  0
    4.0876    1.5302  -20.3735 C   0  0  0  0  0  0  0  0  0  0  0  0
    5.0277   -3.2129  -18.3511 C   0  0  0  0  0  0  0  0  0  0  0  0
    8.8549    6.8527  -15.9914 N   0  0  0  0  0  0  0  0  0  0  0  0
    9.9800    5.1151  -14.8180 N   0  0  0  0  0  0  0  0  0  0  0  0
    8.3421    2.8655  -18.3244 N   0  0  3  0  0  0  0  0  0  0  0  0
    8.4750    4.6007  -16.5429 N   0  0  1  0  0  0  0  0  0  0  0  0
    4.8879    2.5648  -19.6756 N   0  3  1  0  0  0  0  0  0  0  0  0
   10.6794    3.5959  -17.4906 O   0  0  0  0  0  0  0  0  0  0  0  0
    9.1704    2.1528  -15.9718 O   0  0  0  0  0  0  0  0  0  0  0  0
    6.1162   -2.8698  -19.2517 O   0  0  0  0  0  0  0  0  0  0  0  0
   10.7543    1.9944  -22.3643 F   0  0  0  0  0  0  0  0  0  0  0  0
    9.3558    3.1945  -16.9907 S   0  0  0  0  0  0  0  0  0  0  0  0
    6.9653   -0.8372  -23.2329 H   0  0  0  0  0  0  0  0  0  0  0  0
    9.2809   -1.3830  -19.6895 H   0  0  0  0  0  0  0  0  0  0  0  0
    5.4844    1.0849  -22.7000 H   0  0  0  0  0  0  0  0  0  0  0  0
    8.2162    0.2312  -18.1238 H   0  0  0  0  0  0  0  0  0  0  0  0
    7.2384   -2.6849  -21.5971 H   0  0  0  0  0  0  0  0  0  0  0  0
   10.4524   -0.5515  -21.7228 H   0  0  0  0  0  0  0  0  0  0  0  0
   11.1987    8.1248  -13.9531 H   0  0  0  0  0  0  0  0  0  0  0  0
    4.5853   -0.6617  -18.8674 H   0  0  0  0  0  0  0  0  0  0  0  0
    9.5138    3.5033  -20.6135 H   0  0  0  0  0  0  0  0  0  0  0  0
    9.4475    8.8301  -15.5876 H   0  0  0  0  0  0  0  0  0  0  0  0
   11.4784    5.6933  -13.4585 H   0  0  0  0  0  0  0  0  0  0  0  0
    5.2347    4.0169  -17.4185 H   0  0  0  0  0  0  0  0  0  0  0  0
    6.3381    2.8617  -16.5970 H   0  0  0  0  0  0  0  0  0  0  0  0
    7.6404    4.4820  -20.3609 H   0  0  0  0  0  0  0  0  0  0  0  0
    6.0951    5.1112  -19.6957 H   0  0  0  0  0  0  0  0  0  0  0  0
    8.3333    5.6201  -18.3826 H   0  0  0  0  0  0  0  0  0  0  0  0
    6.8576    5.6778  -17.3601 H   0  0  0  0  0  0  0  0  0  0  0  0
    6.1247    1.2982  -18.5074 H   0  0  0  0  0  0  0  0  0  0  0  0
    4.5220    1.6714  -17.7871 H   0  0  0  0  0  0  0  0  0  0  0  0
    6.6726    2.3416  -20.8320 H   0  0  0  0  0  0  0  0  0  0  0  0
    4.8307    3.0724  -22.3804 H   0  0  0  0  0  0  0  0  0  0  0  0
    4.7285    4.6346  -21.4997 H   0  0  0  0  0  0  0  0  0  0  0  0
    6.2194    4.2114  -22.4079 H   0  0  0  0  0  0  0  0  0  0  0  0
    3.4515   -3.0421  -19.8409 H   0  0  0  0  0  0  0  0  0  0  0  0
    4.1537   -4.6883  -19.6892 H   0  0  0  0  0  0  0  0  0  0  0  0
    3.0307   -4.0713  -18.4303 H   0  0  0  0  0  0  0  0  0  0  0  0
    6.4097   -3.8429  -16.8093 H   0  0  0  0  0  0  0  0  0  0  0  0
    4.7594   -4.5362  -16.6602 H   0  0  0  0  0  0  0  0  0  0  0  0
    5.8825   -5.1531  -17.9191 H   0  0  0  0  0  0  0  0  0  0  0  0
    3.6601    1.9658  -21.2886 H   0  0  0  0  0  0  0  0  0  0  0  0
    3.2747    1.1993  -19.7104 H   0  0  0  0  0  0  0  0  0  0  0  0
    4.6964   -2.3240  -17.7941 H   0  0  0  0  0  0  0  0  0  0  0  0
    4.2610    3.3200  -19.4844 H   0  0  0  0  0  0  0  0  0  0  0  0
  1  3  2  0  0  0  0
  1  5  1  0  0  0  0
  2  4  2  0  0  0  0
  2  6  1  0  0  0  0
  3 12  1  0  0  0  0
  4 13  1  0  0  0  0
  5 14  2  0  0  0  0
  6 15  2  0  0  0  0
  7 10  1  0  0  0  0
  7 11  2  0  0  0  0
  8 12  2  0  0  0  0
  8 14  1  0  0  0  0
  9 13  2  0  0  0  0
  9 15  1  0  0  0  0
 10 28  2  0  0  0  0
 11 29  1  0  0  0  0
 12 26  1  0  0  0  0
 13 30  1  0  0  0  0
 14 35  1  0  0  0  0
 15 36  1  0  0  0  0
 16 28  1  0  0  0  0
 16 29  2  0  0  0  0
 16 31  1  0  0  0  0
 17 20  1  0  0  0  0
 17 22  1  0  0  0  0
 18 21  1  0  0  0  0
 18 22  1  0  0  0  0
 19 22  1  0  0  0  0
 19 31  1  0  0  0  0
 20 32  1  0  0  0  0
 21 23  1  0  0  0  0
 21 32  1  0  0  0  0
 22 30  1  0  0  0  0
 24 27  1  0  0  0  0
 25 27  1  0  0  0  0
 26 32  1  0  0  0  0
 27 35  1  0  0  0  0
 30 37  1  0  0  0  0
 31 37  1  0  0  0  0
 33 37  2  0  0  0  0
 34 37  2  0  0  0  0
  1 38  1  0  0  0  0
  2 39  1  0  0  0  0
  3 40  1  0  0  0  0
  4 41  1  0  0  0  0
  5 42  1  0  0  0  0
  6 43  1  0  0  0  0
  7 44  1  0  0  0  0
  8 45  1  0  0  0  0
  9 46  1  0  0  0  0
 10 47  1  0  0  0  0
 11 48  1  0  0  0  0
 17 49  1  0  0  0  0
 17 50  1  0  0  0  0
 18 51  1  0  0  0  0
 18 52  1  0  0  0  0
 19 53  1  0  0  0  0
 19 54  1  0  0  0  0
 20 55  1  0  0  0  0
 20 56  1  0  0  0  0
 21 57  1  0  0  0  0
 23 58  1  0  0  0  0
 23 59  1  0  0  0  0
 23 60  1  0  0  0  0
 24 61  1  0  0  0  0
 24 62  1  0  0  0  0
 24 63  1  0  0  0  0
 25 64  1  0  0  0  0
 25 65  1  0  0  0  0
 25 66  1  0  0  0  0
 26 67  1  0  0  0  0
 26 68  1  0  0  0  0
 27 69  1  0  0  0  0
 32 70  1  0  0  0  0
M  CHG  1  32   1
M  END
> <OMEGA_C>
rSXOQDq9Tb9FT7LBcTQVQSp1pb6oI5/ByHyzQNHpkT6O4a/BjnQLQXSwFj+GGJjBwwbTQMHW7L9O
5arBfucfQfbuFz6cUajBVU0pQWV37EAfKmfBdPWiQPIpNb8Gj57BXj4XQUlPHEAoXqPBmp0ZQT8M
+UBf+XXBXOErQfWfwEBu22LBiuidQCVyqz5O+qXBqiIMQVEp/D8/U5rBAjq9QMK46L/FBqHBwwsh
QWA1xD/aYKrBMSQRQd42sUBjqnvBuZ6/QOq+TkCOlIzBX8LXQEE6h0BfPJ7BlEz2QBWNoUB3h43B
YNKrQFBTBUCp1pLBCj2/QOHSSEBWPqTBMt3lQHvbc0A55pLB5rKsQJIDdEAoXq7BZhh1QPLpcsAY
E5nBwtSxQERSiMBg7IrB/s2CQOvewz/a/KLBh+KgQKafTcAIz5LBfa0NQWxJ20Cl3H/BHa4fQQyv
o0COFm3BLHkFQQhkN0BKmJLBcZkHQfY4k0DWV4TBFGqcQOskJEC4Z53BqN4qQfwjZkDJ7IvB67kS
QbrGCUB9jH/BGrjDQKWqN8B+A5rBjhEsQa1J/z8N6rLBKLEVQYJyTEDl7IfBdOPeQPpSVr8O3bnB
Zn4UQT0Gsb8thJ3B83+vQHHcij+tmbXBrnUDQbW/bD54/ZDBzaDnQPDVK8D2xqzB5zwnQUAyDb9M
yK3B/C0zQTP/AUHdP1/BAruSQO1mKb948JbBgTgYQc01YEB06KTBBSkXQR9IDUG3ZnnBc6c3QZwv
tkAMVlfB6oKnQNiKgED+WIvB1dHKQOkmN0C6xoTBa370QCRsj0Az46LBuQrDQP2Oo0DQkJ3BZFUF
QbHXs0CZD5PBt3HbQOSwtUBv4YrByP3DQBwrpj8QD5TBl7SQQJbv1T/uS47ByYXVQAfcFUDrp6bB
U5WaQOCiRED8CrPBok+XQMtOlEBv/6vBCwXHQBPEhkBqQ7PBHuVcQDSxQsBAup7Bg+uEQMEGlsBq
g53Bw/ZBQHRIgsBEcZPBaBzNQKPxdcCIeYbBIU2YQEIokcAxSIXBQj28QI/mpMBXWo/BVD5qQOqe
+z8KT6rBNZVRQDmDmT/jrp3By0iWQI+8FMBoWo7B7FmIQDN6VEAR4JvBJEDOQGsuTr/HTbLBXxEh
QZH8xD/Me6rB+J6zQDTRkT7L4q/BOkQXQSHRHEBKd6PBLhbTQLIA7b8Z4arBPjYgQXFtIT6eT6jB
omooQYcS7kA/LWfBLRmjQB1oNL+Pjp7Bfr0LQVlxGT/mF5jBoqMXQQHH+UDM7nTBIposQc5ZwkCg
+mPB5v+dQOKxqz4C/aXB9TEMQUot/T8oZJrBlV29QKZh6L9H/6DB0roVQYjrnr4uDp/BkTYRQVaG
sUDI0nvBsKS/QAlcTkAkjIzBGojXQF9Ih0DhMp7BThL2QG6PoUDFgY3BfsWrQNQYBUBm0pLBIBW/
QNzySECsNqTBi8blQJTPc0A54pLBaHqsQNwvdEBQU67BvyR2QJFHdMB2YpnBovGwQNvvh8A004rB
hM2CQDWvwz8M/6LBc36gQBTJTcC05ZLBXzYMQYha20Do6n7B5dogQWq/pEAIQW7BNn4FQSKYN0CB
opLBsMgHQdlgk0DSaoTBqU+cQF0MJEAtYp3BMPUqQTvPZkDEMIzBLCsTQU9yCkBBvH/BXdbDQDUl
N8Bj7JnBpJgVQWq30L8dv5zB2+QVQcb+TEBxDojBzf/eQJUpV78w27nBPD8pQTDY8j+9iLHBB7Kv
QA/aij9Xm7XBajYYQc6zYEB0BaXBXJbnQNIRLMAfw6zBEpknQc8wC7+/vq3BCOgxQU4WA0E4OF/B
COKSQMYYKL/I75bBHroDQVDgdz4F/pDBI/ATQUiTDUFBeXfBjj85QVSKuED5RVnBrIanQLxMgEBm
Q4vB1vvKQGqGNkCAxITBnTL0QFafj0BZ3KLBt7rCQAWKo0A8f53BM/wEQQottEDiE5PBqCLbQAtc
tUBkwIrBKOnDQPGmpT90D5TBGqqQQFh11T8DR47BPGnVQKQaFkDHo6bBnmaaQHXLREDrAbPBsAqX
QMpVlEAj8avBBsPGQBDwhkAzOLPBbrNeQD+uRMAdK5/BrzqGQMe8lsDpsJ3B+/hBQP0Og8Cw6ZPB
vJPLQLFAdMDfOIbBHOiWQEfekMAWV4XBTSa8QBGMpMBOHo/B0lRqQIOQ+z+cUarBvYNRQEgBmT8z
tp3BsQ+VQLvpFMC3kY7BSTGIQC9DVEAx15vBmMOqQFA2kL+prbTB5igsQbMN6z/exqXBAxWVQAB9
DD3GW7HBY4cfQQ21IEBSLZ7BEe+6QLCOAcBJA63BQo0oQULp8D462qfBe1UsQfIN4EDzh2LBLdif
QFuBF7+usZ7Bk5QLQSrz6D7UtZrBFc0yQVPD1UCec3fB31oZQauuzUCOrlrB04iQQJEkpz5jW6bB
rvcOQW8c6j/2tZjB1bu0QE4q47/4BaLBCFYYQTanY77DS6LB75YUQVL2qUAjRXvBRbe8QK9cXkDb
Zo3BBHjfQFO1eUDcM5/B+JQAQVxSm0AVgo7BoCyjQIoaFUDXmZLBuv/CQGgzNEC2eqTBM73oQEn9
aUAcFZPBJKK5QL8iU0COCbDBf1SiQAaDmMDWG5XBWW2vQEQjOcCe4IfBYGR3QPwZ0T8/56LBeqmj
QApQT8AjhZPBG9QmQXMPu0B5xYHBIdYNQbq/skB0F2fBsdwCQQPcHkBZ2JDBXG4IQTsZjkBv4IPB
YI2aQJKJJ0CXGZ7BpjAmQUmTJkDFQ4XBJ50CQWSaAkBBFXjB48LDQKAaLMCsrZrB/xsVQQD0xL9Y
OKTBpNcOQdfgL0BcVITBjv2uQEUNqr+eGb3Bj5w4QedmF0C1A6rBx9SHQL/WND80QbfB5HwiQet7
Y0D7gZzBAx/MQIH6OcBMja/BHTUyQfsiP73Ss63BxrI1QQuD9UBGvljBN5qbQN8oyL52RZbBGXL+
QMWgn73RbpbBIF1BQb8340Ax4H3BKvYTQakb1UDDsErBOE6qQEQRjUD5Do7B+CDCQL1cT0A46YTB
4Tb+QOOue0DyeqPBjjrPQA3qm0DtA6DBLx0OQQeeo0AhvZPBpbzrQH0Vt0AawI3BNLK1QKrksj/w
+ZHBw4uEQLeYDUDjXY7BMvHUQLFm7z901aTBm2ylQHnLI0DZJbTBWeOoQCSCiED+v6/Bo/PXQDCO
WkA8abTBI+SZQMjKn8C7dJ3BTe7BQIwppsAgRZPBMziKQOp7psB3u4/B/TewQCRi5r9H5obBoGCX
QHeGVMCDcILBuhbPQLrhU8At+oXBko5ZQHQ9BkAS9anB+NFFQKP0sz8e7ZzBqvyDQPZnNMCnXpXB
Q4WLQLcGYECwPJ7B3QOqQLRPmb+w/7PBGScfQe+Ueb72I5/BcNSUQD5HkLzT4bDBCKASQYrJ8T60
sZfBf4u6QKpsBMAVLKzBuVIoQeGs2D7i9afB61ItQe8L5ECXQ2TB/7KhQHZ6Dr+oJJ7B3CAaQbkp
IkBGXKHBqpQsQSBz6EBvoHrBWYYhQdm8wkDpzFrB8lORQKarpD7R8KXBEXsPQT2g7j888pjBKsW1
QJPt4L+BOqHBqaQlQco56D/GF6nB4nsVQUZxrUBBqXzBkai9QL2UYUDHZY3BJ57cQFfyfkAWXp/B
7L8AQfPmnUDeF4/BMfqjQMtxF0BAdJLBDZ7CQL2uNUBee6TB9/noQCWdbkAbZpPBrey4QPcGUUCF
KrDBXy2+QLwVk8BNeo7BHt17QEYOR8DtPJHBri14QNpL0D8dqKLBpSenQLwMa8DgeZbBjZIgQUxn
zUC8OoPBlPkVQcyup0B2HWfBUYoDQZBVJEDEQ5HBqnoJQdMtkUBpkYTBq6OaQEo0KEA2/53Bg8km
QVNKK0BmsoXBKiIDQeXGCUCbu3jBZ7jEQNVqJ8DVe5nBJVMuQacAHkBTg7HBN3cPQXGINUAsv4TB
R5WtQNuYt7+uYbzBBrghQWjapr8oFZ7BRy+HQJu6IT9e4rbBcmoLQTsLNr2fBJHBx9fKQFxaPsC1
iq7Br2AxQQaXBr7O1K3BaLY2QWuu+UAGmVrBntqeQBfrnb6yw5XBdmUZQZccZ0CG2KHBM6A1QQjA
AEHmLoHBIbAhQfS/vkD6oknBuL+qQINpjkAx5o3B/ijEQDKSUkB49ITBdT76QKe6g0DC/6PBs23J
QCfwnEAOxp/BhtcNQVRrpkBRk5TBUtbrQO9nuUA6Lo7Bl662QMIZuD/Wx5HBMpKFQNIaEEDVHY7B
sPDVQNut9T/hiKTBFVSmQEeNHkAXK7TBm2SmQLRwhkC4IbDBPC/XQGIPW0C3e7TBwm/bQKvkn8An
LZLBiqnGQNrLgMCgQ4fBbeCoQPOvrcBhRozBidlaQAHKHMBE8JbBf1ZRQP1QfMCVCI/BXHSGQM2I
IsDUBYrB9gBaQCqiBED3w6nBhMtGQEi8sz/zpJzBkiGeQGNNiMC9kZ3BUSyLQBc3YEABLJ7B

> <OMEGA_E>
wEr6PgQcAT8mhFE/3spAPw==

> <OMEGA_NBR>
     34620

$$$$
50220589
  -OEChem-04172616093D

 68 72  0     1  0  0  0  0  0999 V2000
    6.6012   -0.7880  -22.2369 C   0  0  0  0  0  0  0  0  0  0  0  0
    9.9130    1.3832  -21.3200 C   0  0  0  0  0  0  0  0  0  0  0  0
    5.7675    0.3011  -21.9327 C   0  0  0  0  0  0  0  0  0  0  0  0
    9.3533    2.3998  -20.5274 C   0  0  0  0  0  0  0  0  0  0  0  0
    6.6808   -1.8810  -21.3544 C   0  0  0  0  0  0  0  0  0  0  0  0
    9.8744    0.0456  -20.8779 C   0  0  0  0  0  0  0  0  0  0  0  0
    5.1074   -0.7845  -19.8526 C   0  0  0  0  0  0  0  0  0  0  0  0
    8.7166    0.7410  -18.8501 C   0  0  0  0  0  0  0  0  0  0  0  0
    9.0816    7.6926  -14.6443 C   0  0  0  0  0  0  0  0  0  0  0  0
   10.3447    7.2471  -14.3389 C   0  0  0  0  0  0  0  0  0  0  0  0
    5.0165    0.3007  -20.7390 C   0  0  0  0  0  0  0  0  0  0  0  0
    8.7438    2.0760  -19.2995 C   0  0  0  0  0  0  0  0  0  0  0  0
    5.9283   -1.8960  -20.1620 C   0  0  0  0  0  0  0  0  0  0  0  0
    9.2761   -0.2748  -19.6421 C   0  0  0  0  0  0  0  0  0  0  0  0
    9.0495    5.7288  -15.7683 C   0  0  0  0  0  0  0  0  0  0  0  0
    6.0822    3.0865  -17.5129 C   0  0  0  0  0  0  0  0  0  0  0  0
    6.6152    4.3128  -19.6863 C   0  0  0  0  0  0  0  0  0  0  0  0
    7.5355    5.1239  -17.5788 C   0  0  0  0  0  0  0  0  0  0  0  0
    5.4870    1.9675  -18.3572 C   0  0  0  0  0  0  0  0  0  0  0  0
    5.9440    3.1925  -20.4741 C   0  0  2  0  0  0  0  0  0  0  0  0
    7.1541    3.8660  -18.3155 C   0  0  1  0  0  0  0  0  0  0  0  0
    5.3109    3.8568  -21.7186 C   0  0  0  0  0  0  0  0  0  0  0  0
    3.6703   -3.6535  -19.1138 C   0  0  0  0  0  0  0  0  0  0  0  0
    5.4238   -4.4304  -17.4917 C   0  0  0  0  0  0  0  0  0  0  0  0
    4.1496    1.4801  -20.3602 C   0  0  0  0  0  0  0  0  0  0  0  0
    4.9805   -3.2663  -18.3864 C   0  0  0  0  0  0  0  0  0  0  0  0
    8.3867    6.8182  -15.4665 N   0  0  0  0  0  0  0  0  0  0  0  0
    8.4284    3.0936  -18.4230 N   0  0  3  0  0  0  0  0  0  0  0  0
    8.5464    4.7616  -16.5990 N   0  0  1  0  0  0  0  0  0  0  0  0
    4.9223    2.5081  -19.6236 N   0  3  1  0  0  0  0  0  0  0  0  0
   10.7382    4.0314  -17.8003 O   0  0  0  0  0  0  0  0  0  0  0  0
    9.5453    2.4083  -16.1835 O   0  0  0  0  0  0  0  0  0  0  0  0
    6.0515   -3.0043  -19.3367 O   0  0  0  0  0  0  0  0  0  0  0  0
    9.2571   -1.5537  -19.2056 F   0  0  0  0  0  0  0  0  0  0  0  0
   10.6358    5.7091  -15.0642 S   0  0  0  0  0  0  0  0  0  0  0  0
    9.5214    3.4877  -17.1803 S   0  0  0  0  0  0  0  0  0  0  0  0
    7.1809   -0.7862  -23.1481 H   0  0  0  0  0  0  0  0  0  0  0  0
   10.3722    1.6267  -22.2668 H   0  0  0  0  0  0  0  0  0  0  0  0
    5.7017    1.1378  -22.6124 H   0  0  0  0  0  0  0  0  0  0  0  0
    9.3904    3.4270  -20.8589 H   0  0  0  0  0  0  0  0  0  0  0  0
    7.3237   -2.7156  -21.5923 H   0  0  0  0  0  0  0  0  0  0  0  0
   10.3042   -0.7359  -21.4870 H   0  0  0  0  0  0  0  0  0  0  0  0
    4.5476   -0.7714  -18.9291 H   0  0  0  0  0  0  0  0  0  0  0  0
    8.2664    0.4993  -17.8986 H   0  0  0  0  0  0  0  0  0  0  0  0
    8.6732    8.6247  -14.2826 H   0  0  0  0  0  0  0  0  0  0  0  0
   11.0562    7.7847  -13.7297 H   0  0  0  0  0  0  0  0  0  0  0  0
    5.2811    3.7783  -17.2135 H   0  0  0  0  0  0  0  0  0  0  0  0
    6.5472    2.6533  -16.6151 H   0  0  0  0  0  0  0  0  0  0  0  0
    7.4557    4.7005  -20.2806 H   0  0  0  0  0  0  0  0  0  0  0  0
    5.8790    5.1143  -19.5259 H   0  0  0  0  0  0  0  0  0  0  0  0
    7.9426    5.8640  -18.2834 H   0  0  0  0  0  0  0  0  0  0  0  0
    6.6546    5.5454  -17.0725 H   0  0  0  0  0  0  0  0  0  0  0  0
    6.2743    1.2372  -18.5956 H   0  0  0  0  0  0  0  0  0  0  0  0
    4.6871    1.4717  -17.7877 H   0  0  0  0  0  0  0  0  0  0  0  0
    6.7047    2.4676  -20.7996 H   0  0  0  0  0  0  0  0  0  0  0  0
    4.8092    3.0911  -22.3284 H   0  0  0  0  0  0  0  0  0  0  0  0
    4.5758    4.6097  -21.3981 H   0  0  0  0  0  0  0  0  0  0  0  0
    6.0974    4.3428  -22.3147 H   0  0  0  0  0  0  0  0  0  0  0  0
    3.3479   -2.8215  -19.7571 H   0  0  0  0  0  0  0  0  0  0  0  0
    3.8439   -4.5477  -19.7304 H   0  0  0  0  0  0  0  0  0  0  0  0
    2.8878   -3.8667  -18.3706 H   0  0  0  0  0  0  0  0  0  0  0  0
    6.3550   -4.1603  -16.9723 H   0  0  0  0  0  0  0  0  0  0  0  0
    4.6390   -4.6426  -16.7508 H   0  0  0  0  0  0  0  0  0  0  0  0
    5.5950   -5.3236  -18.1105 H   0  0  0  0  0  0  0  0  0  0  0  0
    3.7384    1.9301  -21.2758 H   0  0  0  0  0  0  0  0  0  0  0  0
    3.3253    1.1277  -19.7227 H   0  0  0  0  0  0  0  0  0  0  0  0
    4.7970   -2.3789  -17.7629 H   0  0  0  0  0  0  0  0  0  0  0  0
    4.2658    3.2138  -19.3569 H   0  0  0  0  0  0  0  0  0  0  0  0
  1  3  2  0  0  0  0
  1  5  1  0  0  0  0
  2  4  2  0  0  0  0
  2  6  1  0  0  0  0
  3 11  1  0  0  0  0
  4 12  1  0  0  0  0
  5 13  2  0  0  0  0
  6 14  2  0  0  0  0
  7 11  2  0  0  0  0
  7 13  1  0  0  0  0
  8 12  2  0  0  0  0
  8 14  1  0  0  0  0
  9 10  2  0  0  0  0
  9 27  1  0  0  0  0
 10 35  1  0  0  0  0
 11 25  1  0  0  0  0
 12 28  1  0  0  0  0
 13 33  1  0  0  0  0
 14 34  1  0  0  0  0
 15 27  2  0  0  0  0
 15 29  1  0  0  0  0
 15 35  1  0  0  0  0
 16 19  1  0  0  0  0
 16 21  1  0  0  0  0
 17 20  1  0  0  0  0
 17 21  1  0  0  0  0
 18 21  1  0  0  0  0
 18 29  1  0  0  0  0
 19 30  1  0  0  0  0
 20 22  1  0  0  0  0
 20 30  1  0  0  0  0
 21 28  1  0  0  0  0
 23 26  1  0  0  0  0
 24 26  1  0  0  0  0
 25 30  1  0  0  0  0
 26 33  1  0  0  0  0
 28 36  1  0  0  0  0
 29 36  1  0  0  0  0
 31 36  2  0  0  0  0
 32 36  2  0  0  0  0
  1 37  1  0  0  0  0
  2 38  1  0  0  0  0
  3 39  1  0  0  0  0
  4 40  1  0  0  0  0
  5 41  1  0  0  0  0
  6 42  1  0  0  0  0
  7 43  1  0  0  0  0
  8 44  1  0  0  0  0
  9 45  1  0  0  0  0
 10 46  1  0  0  0  0
 16 47  1  0  0  0  0
 16 48  1  0  0  0  0
 17 49  1  0  0  0  0
 17 50  1  0  0  0  0
 18 51  1  0  0  0  0
 18 52  1  0  0  0  0
 19 53  1  0  0  0  0
 19 54  1  0  0  0  0
 20 55  1  0  0  0  0
 22 56  1  0  0  0  0
 22 57  1  0  0  0  0
 22 58  1  0  0  0  0
 23 59  1  0  0  0  0
 23 60  1  0  0  0  0
 23 61  1  0  0  0  0
 24 62  1  0  0  0  0
 24 63  1  0  0  0  0
 24 64  1  0  0  0  0
 25 65  1  0  0  0  0
 25 66  1  0  0  0  0
 26 67  1  0  0  0  0
 30 68  1  0  0  0  0
M  CHG  1  30   1
M  END
> <OMEGA_C>
yTzTQJm4Sb825bHB05seQYQLsT9wj6rBU4+4QM4kmj4zdq/BEqcVQWCWGUAFOKTBYMnVQKvF8L/H
1arBv/0dQdaYOj3gBafBcW+jQCPXSL8K0p7BRncLQW+xPT/6zJbBSE4RQSMq9kAWT2rB2oMlQYfo
50AzbGXBioegQHr1mT526aXBxOYLQbHcBEBOZZrB/7S9QCGw8r+5S6HBEWsUQZ6ujL7zIp3BvcoQ
QbhSt0AdS3zBAKHCQJ+IRUBuGozBfa/TQIUCikByfZ3BGyPxQAD3o0BgoYzBp5WvQNbX+z+P25LB
RzW+QINRTED/yqPBQe7kQLlsd0AuhpLBIPOpQFXWdkCuv63BjuZqQCDSacD36JjBlY+tQALGjcAa
74vBjMmEQAp1vT+e4aLBfWCfQLkKUcBzF5PB/i8GQcEu2kDUdnfBitoGQQ/+RUBOYpPB7r0IQbFe
mEC5yoTBNIOdQDaFIEAK/ZzBnc8rQfgAgUD5Zo7BsbkYQV0iGkDHd4HBj6XBQK1FQMB+sZrB4xwU
QbPfxr8VpZnBRiwqQUKxtkDPBnHBxlcYQac2X0BbcYnBE8rlQIdHSb9bL7nBXvQlQR020D9fIrLB
j3S2QFKjkT8p5rTB5D4WQY1TW0AY36bBJ1zqQNbLLcAPvazB290kQbZiPL965avBlIWRQLR7Rb+1
bpfBTUMEQR6o/z5UMI/BPcUKQcv+CUGVhWTBUeYwQZ4c+UAJrVvBdv6oQPvOcUAmtYnBr4LRQPPP
KUCo64TBwJTuQHtqlkC4PqLB1SC8QB2oo0AENZzBkyn+QDqmu0B4RJLBmvLUQPtzsUCIlIjBqMbI
QHFbnj/Vw5TBB/2VQE5gvD81TY7Bo4zWQF7tHUCqZabBLOWZQMXTRUCUoLLB+2ySQAmDk0BSL6vB
8B3DQOv3ikB6hLLBhUNWQPKTNMCaDp7B8QF2QLqGkcDH153BONI4QMF3d8AK95LBOVzLQI8hhcAw
x4fBmXKUQGSQlMCKAYbBdgqzQD1bqsBH4pDBakFvQOYN9z/cNKrBddJUQFZXkD8VyJ3BqoCZQFg/
GMByGo7BcYGIQN+uTUAA25rBe/3PQAwKZb/eLLLBiT0XQfY2Bb7/V6HBvTW2QMgcaD7MCLDBZX0M
QfIzKT+VvpnB3UXTQK0g978klqrBnEkiQbAm+D5r3KnBUOuiQFl1Ob9Yv57BcdgXQdpTK0DDM6PB
NJIoQRfhyEDk0WHBZv4bQc2U7EDDW2TBA5OfQPbfnT6aS6bBvIgMQZklBEBzyprBwYG8QOL57b9F
3KDBbK0iQeXv8T8zu6rB9oYRQU1cr0DSpnrBtjm/QEI7SkAxWIzBLZfWQMf0h0CPoZ3BjhH1QH/U
oECUtozBQyasQHHAAUCGApPByB7AQA39SUAxEKTBfkTlQKusckDeapLBlzmuQJSIdUAXOa7Bce92
QJssgMCJyZnBsFSsQD//g8Ay0onBypCEQLIOwj8pmKPBz6mcQPZhT8D+BZPBgDEiQbD4pkCXq27B
sToFQYDjNUDmbZLB1p8IQV1fkkD6P4TBITidQKlkIkANk53BKDQrQZfUZkCwsozBLpkUQdpeCUD9
8X/BiJjBQMK2OMBeipnBbfstQZ9nH0Bcl7LBi1cIQWpg40AaMnfBBYQWQUYJTEAuM4jBHkXhQM0a
dr+Do7nBCQgXQdxwmr9/p6DBv8CzQFj+gj/G1bXBEDwEQdA9Rz5sIpPBqFrnQMtEMsC6OazBJHYq
QU+j+b3iua/BWc6RQG7aJr97Q5fBii0YQbw8cEDW2qPBJgA2Qf9bx0Do+FbBpxweQYohBUFuw1vB
RqGmQGBEe0Cm6IrBJHfKQJqoMEBmpITBTOXyQFmQkkDuI6LBjlXAQDX0okA2q5zBO1MDQeCJtUA2
T5LB6uzZQIWjskDBT4nBf6zEQFCgoD9OTJTBPt2QQKSgyz8Ur47ByofXQIvbGEAAZ6bB7Z6dQLu4
RUD6K7PBWpiXQNEWlECW6KvBKLnIQG7ciEAe0rLB3LlgQFdSV8CrYKDBiECKQGJDncB2Fp3BEDFA
QCQVicDnuJTBc/7DQCWpZMApCIXBswuRQJrpjMBLuoTBtDO7QNcXocDbF43B1ZdxQOOM+z+vEavB
a3FSQAapmD+jsZ7BpKyNQFVqFcAAuY/BZ52IQK2eUUDt9JvBNYvQQA1AYr9IH7LBc0UiQVQR9D/b
DKvBMcG2QAq5cj6u/K/BTpsXQVcmLEDGZ6PB5XTTQOd49r9NlKrBV2IiQWgdAT+HEKrBdN2iQEo5
Ob9Xxp7BCBANQcAhKz9fx5nBjBUpQfAOyUDtemLBuckcQS0L7UAfYGXBP8GfQHofoD6KTKbBr6sM
Qb2IBED73prBdYm8QNOt7b9K4KDBI+cXQeAh6r0VZaHBoW4RQZ7YrkCUjXrBDi6/QG3dSUBKVIzB
mXLWQIMRiEDfk53BJg31QAN7oECWpIzBLwqsQCqtAUDQBJPBbSTAQCBCSkA6C6TBSjflQKpjckDt
ZZLBUW+uQFzNdUB9Oa7Bpjh2QIJ7fsAom5nBTeqsQHUVhMAs14nB86SEQIRrwj+an6PBPAadQC+r
TsBK7pLBAzsiQR+gpkApum7BjTkFQYShNUCEdZLBklgIQXSvkUAKGoTBwC6dQP2KIkB7lJ3Btgwr
QczRZkD1mIzB/IgUQQa7B0D6BIDBwrDBQJCZOMB+kJnB6akYQaKLur96RKDBSagIQbtL40AYn3fB
R2MWQTguS0DsJojBIh3iQFAUcr+9i7nBimAqQQ1JGECBrbHBV5C0QAjnhD8RwbXBJMcXQT4RcUB/
D6TBRmLnQJ0hMsB7PKzBVIUqQTc/yr0f96/BBISRQGmaJ7+aUpfBxxAFQYkdST6YHZPBBKc2QR+0
x0AWzVfBdF0fQVmbBUG8WV3BUJ+mQOvqekDM3IrBJXLKQFIJMECFpITBKK7yQPHtkkDdE6LBgQ/A
QA/uokBXkZzB4IoDQSURtUBTLZLBnufZQCKCskDiUInB44DEQCdDoD+oUJTByrOQQDKdyz/htI7B
WZ/XQKEvGUC0W6bBAPSdQK35RUBVMrPBTryXQDMzlEDM76vBmgPJQI4GiUCGybLBE69fQFLVVMAZ
HqDBelaJQHxpnMBHA53BaOg/QJ/2h8AGc5TB4RXFQJatZcAnHYXB7NeRQIXQjMAlqITBMTq7QGJD
ocBmOI3BbfJxQDrp+z+aG6vBbXlSQLvfmD8AwJ7BTZmOQFiFFMBDho/B0YuIQOK1UUAA9pvBMa7S
QDrnSL9x/rHBjDIUQaJgl76kEJ3Bk9+3QApZmj57ka/B1lALQf31OD/4tJbB25vVQAWr77/p4qrB
u+cdQaxB3Tzd6KbB/FOjQKXuRr9X2p7B658VQYR3GEDPFqTB7woSQQ4M+EAx4WvBrg8mQYBl6UCN
hmbBDhmgQAtJmz5i+6XB9M8LQcDNA0AuTJrBXLq9QGFS8b/pUKHBj6weQVQKrz+qZKrBqyERQUwA
uEBwxnzBX5rCQE76Q0AkFIzBx43TQFzEiUDIaJ3Buq3wQEyAo0DIgIzByJyvQNrA+T8d65LBlQu+
QJJCTECWxqPB6crkQI5/dkCQcpLBfripQMdTd0BzsK3BLS9rQIoqaMBeypjBM/CtQFybjcCF+YvB
UH6EQCztvT+y7KLBRMefQH8TUMACCZPBrsUGQVl+20AolnjBe9MGQZhTRUAyVJPBYOYIQa98mECk
0YTB+GWdQDM8IECb/ZzB4ckrQUmPgUCCpo7B1E4ZQa4LG0CXhoHBJO/BQItBP8DPq5rB0JAoQZby
1z+rqLPBK2oqQXVMt0DoSnHBj4kYQf/KX0AliYnB8wrlQFsCSb9AULnBUJUTQUBQqb9waZrB5nq1
QPgmkT8NCrXByiAEQYmT9j4BF4/BqVHqQCgPLcArx6zBi8QkQb72QL9ey6vB5I6RQPksQ7+EcZfB
KDIWQUguWkCrwKbBgcALQX9GC0GsvWbB73sxQXfO+kCQ6lzBPe+oQAvxb0DunYnBlY7RQFm7J0D6
74TBp3nuQMY/lkCGJKLBpwW8QEZpo0AcGJzBftD8QDmgu0DEJZLBhIDUQKdFsED/TYjBfdvIQP7p
nD8/55TB6BqWQKEuuT9VZI7ByVrWQMr4HUA9babBYaaZQBCURkDrmrLBYTOSQLqsk0BLE6vBINvC
QGhbi0BocLLBo3ZWQGGOMsBO353BErR1QLaXkMAZyJ3Bwm05QLHldcBfzpLBc+nLQL5HhcBj24fB
z/SUQLZslMCcA4bB9hezQJMRqsBW/ZDBCd5uQJlL+D+vPKrBixVUQLX1kD8T2J3B7jGaQGaIF8Bb
+43BoX2IQJdeTUDXyZrBCWjAQNBfjL/ZO7PBVqQmQaEcQEBi4qvB23eoQMfAfT2d77DBge8ZQckW
WEACG6PBag7KQPnoAMBsB6vBdN8sQcaE1D+cKK3B46SiQEUQI78nTJ7BsdcYQdjPhz/yEJ3Bjcku
QeEEykANqWfBAIgeQZRG1kDlLlrBbvWZQGOZmz7raqbBNvoRQYPAGUBX65vB7em6QI2S5b9OjaDB
BWwmQYXmMT9VnKXBCkMTQd1GpkCRsnfBpJ2/QNk9TkBRm4zBy3XWQESCiECSyJ3Bgwj7QP6PnkDl
bozBrd2pQJQfB0AnJJPBmjTBQLBnSEDnVKTBUX3nQKk5ckBGnZLBqrayQMJFbkD+Na/BZZKBQNKH
gMC8bJrBScOwQPRAhsDpFIrBSKGBQHIIyj85yKPBXeafQJK5T8CAz5LBreQnQeWerkCE7nfB2q0F
Qa+hMEAc8JLBJq4IQRbJi0ACGIPBylucQEbFJUC4853BqyEqQYvjOkDIcYjB6e4JQamd5T/v1n7B
QmLEQLvNLcAcq5jBwHQtQfBfFL8uiabBK4QGQWL6v0BCfWLBv/ISQR3WM0C0nobB6l7LQJIOpL/q
SrvBx50rQXGbb0DOpbHBxjShQJgfRD/+OrfBPjQWQZ5mjUBZ1KHBrRndQGHiOMDcxKzBk5c2QY1k
rz9D6rPBCaaWQN9f8b62TZbByawTQUn1oD4qYpfBgik/QWJ11EDZ3WXBKm8gQVHQ6kCZakzBfpyo
QGk7gUBzSIvBTtLJQGkBNEB12YTBP4XxQI9TlUD7aKLBfrW+QJX1oUDQepzB+vAIQcL4r0DjhJHB
e7/hQGaStEC8v4nBcn3AQBqKoz9uIJTB4HGNQE5t4T8axY7BdMvYQF5uFUCQxKXB+nejQO3hO0Ag
CLTBQK+bQJYokUCGzq3Bd7XOQPzAg0BGg7PB/jVrQClmVcBcpaDBGSKTQOEIm8B5M57BGd1MQJZk
jcDR1ZXBK0jGQIo0acC0sYTB2qyVQGUfk8BYeYXBZ2DCQLDDoMAA143BIZ5sQBnIAUCATKvBFwBM
QDy4qD86vp7Bw/qNQMFXG8DTAI/BOgmJQJmtV0BcoZzBknPAQBRnjL9/OrPBra4mQXQjQEA/2qvB
r4aoQNz7fT1S7rDBQ/IZQVUMWECyFKPBfxfKQGbsAMD1BavBiuosQbiW1D/qIa3BkrmiQBzSIr8y
Sp7Bl9MYQUSihz8kEJ3BbucXQXsi0kCS6lrB06csQbgk0kDtMWLBpAiaQBHpmz5kaabBMvQRQRym
GUAm6ZvBBfe6QGGJ5b+mi6DBF3EmQebXMT+GmKXBOYkTQUYmpkBmvXfBi5a/QCeNTkDYmozBXITW
QDyKiEBrx53BUz77QCGMnkD7bYzBZ9mpQGdXB0BGIZPBLEDBQIN0SEBfU6TB6YbnQAVIckB2m5LB
/8iyQHRJbkCLNa/BJJyBQEmGgMCta5rBkMOwQG02hsAxEorBCbCBQJcUyj+rx6PBJu6fQC2vT8Bm
zpLBbCYKQdyGuUB5m2fB9p4FQedrMEAL75LBycwIQYe7i0D+FoPBn2KcQJrcJUBZ853BFQoqQe/y
OEBAc4jB46oJQU4k5T/Izn7BaGzEQJ7MLcCnqZjBlnwtQbZdFL/PhKbBfNAuQQRzskD3xnjBctgS
QQc1M0ANm4bBn2nLQDEcpL+PSbvBO60rQe2tb0APm7HBqEKhQJUXRD/1ObfByDcWQZxgjUAxzKHB
7B3dQFHsOMBtw6zBmac2QQmOrz9L4rPBNMKWQFqI8L5KS5bBzqITQSPUnz51ZJfBa70SQatY40CD
2UzB5LU5QVBs40AZ4VrBf5uoQFNugUBUT4vBQrfJQGZ0NEB61YTBiZbxQAlXlUCcZ6LBv8a+QLwA
okB8epzBBg4JQcDhr0DbhpHBYgriQICitECtvInBTHjAQCPtoz9vGZTB1miNQAQC4j+uwo7BMtXY
QF91FUCuwaXB94ijQNbjO0AeB7TBZsSbQEAukUCez63BJcvOQKW8g0CZgrPBIlNrQDtqVcCqpaDB
ESyTQDILm8CpMJ7B6+lMQPldjcAb1ZXB0kbGQIwbacD7roTBo6mVQMMPk8AFd4XBvmDCQPy8oMCT
0o3Bv7psQFPFAUBuTKvBzR1MQJm6qD/kvZ7BcAGOQCJHG8BkAY/BvAyJQIjFV0BnpJzBjmOuQAvQ
oL9pXbPBPkcjQWSk2jzFsZ/BCt+XQPv+3r1oF7DBsrQWQWtPNj9EFZjBV4vAQPMcB8CTqavBwVMq
Qf9AMT+K+ajB1USmQMUoJ7+3Z53BousZQUztL0CGiaLBvrgfQYnI3UCFwGLB9wQvQVs+6kATSHHB
vKGUQCIwXz5+HqXBzRwRQXQhBEBTr5nBFP67QNTw6L8crqDBM6glQTi/A0BpXKrBeDoVQYN3tEBJ
737B/Dq/QAz6YUCvSI3BVC/aQGo5gUDRjZ/BewUAQb8eokBppo/BqhmnQEl0FEDdCZLBRNLBQMOL
NUDZXaTB0hjpQCZKdECMuZPBYoa1QIcFT0Ar9q/BfZv4QBWDBcBO5onBxSYKQXuOZ8A9fZjBftx7
QO6hvz+OwaHBirn3QOXsGcBu9pXBDZwRQSUdv0AP7WrBrOkEQQhZLkB02pHBrQcJQTLGlkBwGIXB
q2ObQH6FI0ApeJ3B3qgoQSn7P0Am44bBc3IGQc0QE0CY/HnBljrMQBv/K8BvKJnBH8QsQWAsLkBD
GLPBuEYrQQbHz0B3roTByEkRQbH+QkD4h4XBjbuxQHmGvb9oxrvBpn0nQZMLgb+MZp7BJPaIQFHH
Bj8wALbBc1MRQVBVSj6c+pDBn/bRQHxfP8CJKK7BTEYzQQYaIT4vAK/BHyKjQMIg2r6W/pTBgpkX
QfkmdEBmS6PBNbQeQVZe6kDSsFLBM407QQaZAEHQJG7BvWmqQHBXjUDznY3BFo7HQEQ3VECK6ITB
eaP2QMBbh0ChgKTBMQLFQCBUnUA4xZ/BeeUMQa9Kq0DMMZXBwEjpQGvHvEAg2I7BAbq7QBIZtz8x
iZHBH7mJQKuFCUAkY43BM/nWQOSX+j/NkKTB0P+jQF0TGkAJw7PBCCGhQLkwhEB+x6/BHrvSQHSy
XEAMkbTByALkQC/am7+wRYjBn9fsQBUiPcCjYIXBnc0MQVrZ7b9HcIfBIpsJQfP+dMCBH6HBObka
QZV7WcDDGpbBa1cEQX7Yj8AfC5TBlkRaQIP48z+Bw6jBWQVNQG+Jnz8VgJvBiPQBQU46xL+RYJrB
o0qKQJieWUBMgJ3BO7ytQFX2ob++WrPBp14jQX8ZkTwhdp/Bb4eXQAGg4L1SJLDB0ecWQdYmNj9a
3pfBjse/QN99B8BnnavBgkgqQRotLD810KjBVdqlQGtfJL8rcZ3BN6YZQT3OLkBkkaLBxhAuQaZ+
z0BSDGfBxjslQZqX9UBXkW3B2EyUQEOLZT6qMKXBpfYQQR+hA0AHpZnB28e7QC8D6L9vpqDBt4cl
QaNKAkD3TarBvpEVQVI3tUBqv37BuM6+QADDYEADOY3B9dXZQGJagUCgcp/Bykb+QEmxokBsbo/B
Md+mQKiaE0CPFJLBT9vBQBOqNUBEVqTBOZzoQFhAdEDJmpPBQu61QLvrTkDb9q/BDv3ZQIhGDcA5
SobBO+0KQU2pNsBV55LBznl7QPrhwD8R4KHBggbrQKiWBsCuz5HBK8QkQTn7q0Cn73DBLvMEQcuj
LkAd0JHBjKYKQeP8lkC5goXBEkqbQD+PI0DOf53BNsgoQb2sOkDb44bB3gQGQdEDFkDZ1HnBxq7M
QE7pK8DcN5nBtcMsQSVRLEBzCrPBmkkRQUte7EAvIIDBQHgRQdI6QkAAkoXBTO6wQL/Rv7+swLvB
2psnQR75gb8/Gp7BdNuIQHu9Bj94FbbB8NwRQTrfVz7uo5DBHLzQQGBmQMCgFK7B5jEzQUl4Bj4z
0a7BDIuiQCGB0r7lCpXBth8XQYrRckAqc6PBBdw6QUE+zUDRfFvBZggqQRpjCkFA3mfBINipQOCj
jEDeeI3BLiTHQHlBUkAN3oTBS1P2QPTPh0B5W6TBwHLEQIBMnUAepp/BrH0KQaj0rkCVapXBLBXm
QKhOu0Dgs43BYJC7QJqHtT8SopHB33OJQFEnCEAfd43BgR7XQBwk+z9TeqTBmrGkQMDBGUCjzLPB
nF+hQIEHhEBZ1q/BukXTQBjhXEBpgLTBCXK7QJpK1b/fqIXB0v3UQJj9UMB9O4TBlVvxQLv34b92
vYDBeMQQQe40McBILZvBTb4WQVqNGsDUaI3Ba48IQRSPesDb5pDB665aQMjo9T/866jBhPtLQOBW
oT+Rr5vB4jPwQBBthb9YwZPBKVOKQF7TWUAKfJ3BPJStQC/Gob9sWbPB5GYjQc+uYzxhdZ/By12X
QKpR4L3CG7DBLPkWQRqxND+n1pfBsra/QDN2B8CPoavBxkgqQffGKz+dzqjBxPSlQH6zJL+WbJ3B
VL8ZQSymLkARfqLBil0kQYbG9EBLcnXBdmUrQcD23EAPWWTBmESUQPduZD5kJqXBrAwRQddNA0AP
lZnBWdO7QGsv6L8nqaDByI8lQZE/AkA9Q6rBQXoVQQ+jtECwmn7BFPO+QJrzYUAlRY3BthHaQDcY
gUAJhJ/BM2L/QIJnokBYoY/Bb8+mQOCCFEDICZLBsM/BQE1QNUD1V6TBROToQAspdEBTrJPBR8m1
QAGdTkDD9q/BlxjaQLDUDcBtUYbBBfcKQW0VN8BF8pLBfmJ7QDSVwD+/zKHBBh/rQHT6BsCv1pHB
bu8XQcAi3UAO5oHBh90EQYv+LUCpyJHB4VgKQVrWlkBEeIXB/EGbQGSrI0Bqe53Bg4EoQRG1OkC0
q4bBHpsFQfShFUD8rnnBn8TMQKYlLMC2QJnBLr4sQRppLEALALPBzHIiQdqxqEClk2bBMykRQQrm
QUCcdIXBarWwQIJkv7+YwLvBb6MnQc6Ggr9eH57BPJaIQPXKBj+ICLbBn/IRQVfmTz7ZnZDBZqfQ
QMVUQMD+Ha7B1yUzQQzfBT6Y1a7BfsyiQAVR0749BZXBpEcXQQ+6ckAeVqPBXg8oQTUiC0HEknfB
xhg1QZcW6UBkZVfBeS2qQPBbjUCcno3BeynHQAQsVEBb44TBjpD2QMhAh0CCcqTBIN3EQMwsnUBz
v5/Bo5wLQbE8rUDUgpXBh93nQPwBvEB+QI7BlmC7QNUOtz8qhZHBxF2JQOSvCUDVaI3B6evWQOb7
+T+bfqTBL1WkQLefGUCExrPBIGehQL7/g0Bd06/B3RnTQP4tXEDUh7TBjJC7QIdY1r9ArYXBhBTV
QKiSUcD/RoTBDnvxQERR479Ew4DBNs0QQVaCMcAVOJvBD8oWQfcXG8Bkco3BypYIQf0Be8Af9pDB
1xlaQP5Q9T+j0ajBWk1MQMHToD/SkJvBFFHwQN4nhr8PxJPBFkyKQIXwWUCxhp3BcfeqQEFGj7+C
s7TBTjMsQbDV6z+TtKXB9DWVQC8MJD0gYLHB038fQaPgIEBcHZ7B9RC7QMI1AcB8Cq3BbqIoQcom
9D5S0KfBN8mfQPFPF782t57BBZULQTan6D67uJrBCK0oQbeUwEBIp17BTTwoQVMz5kCWCWrBs4WQ
QFZOqD4kX6bBZuwOQQX46T+tsZjBqL20QJPf4r8gDaLBRGUYQXh0YL6xTKLB0LkUQXX/qUAKF3vB
Foq8QCsIXkASXI3BykvfQDSaeUBfJZ/BAF0AQU9km0AdfI7BhwSjQOTdFEBKlJLB3OPCQGc7NEBm
cqTBvo3oQAG6aUCCB5PBeJu5QMByU0B0/6/BHzOiQG2CmMD7MJXBDkSvQGdgOcD/64fBdjl3QNEp
0T+P56LB1o6jQPhVT8AEk5PB/rIdQdVMn0Cz0WjBVssCQU1yHkCc0ZDBmHgJQeDhjUDgJITBcG6a
QJR+J0AkFJ7BnP0lQcArIkBNI4XBrwACQQI3BECT6HfBr7bDQCQLLMDJtZrBIDQVQbGBxL9rQKTB
s4kZQfOs30CXpYDBzLgOQSupLkCmSoTBiU2vQBbFqL+eH73B36s4Qd7wF0AF6anBEwOIQHCsNj/I
RLfBomoiQTykY0BTa5zBmkvMQJuROcCCla/BglcyQVZ0Gr09qK3BKXWbQH3zyL7NSpbBwm3+QEzN
pb2deJbBoKswQSIVvUAlb0/BjfAvQSXJAUFsLmXBuyGqQHDojEBRAY7Bqe7BQNHnTkAg34TBQA3+
QOGxe0AQa6PBTgnPQGTbm0DB8Z/BAzwNQZwBpUAG/JPB4KXqQNNktkDETI3BTom1QKhlsj8w95HB
SmCEQN1LDUBRWo7B6tTUQEl47z+I0KTBe22lQBw1JEClIrTBM9yoQEOpiEDVsa/BA/XXQBr5WkDr
WrTBRs2ZQCC1n8Cti53BzcfBQBEzpsB3WZPBogyKQGqDpsDL1I/BaROwQJ/l5r/N7IbBOi2XQPbS
VMDnf4LBZejOQEMyVMCUBIbBBG1ZQGFcBkB89KnB1pxFQOW8sz8h8JzBaeeDQE5ZNMCcbZXBHWaL
QOf7X0CINJ7B

> <OMEGA_E>
WC29PrhG3z5gqOM+xHSyPtI+LT9Exy0/BGtYP5z+WD+0bFk/YMxDPw==

> <OMEGA_NBR>
     45655

$$$$
50220590
  -OEChem-04172616093D

 59 63  0     1  0  0  0  0  0999 V2000
    9.5440    1.2753  -21.3982 C   0  0  0  0  0  0  0  0  0  0  0  0
    4.9007   -0.0598  -22.0460 C   0  0  0  0  0  0  0  0  0  0  0  0
    5.6927   -1.0965  -22.5746 C   0  0  0  0  0  0  0  0  0  0  0  0
    9.0351    2.2836  -20.5648 C   0  0  0  0  0  0  0  0  0  0  0  0
   10.0527    0.0931  -20.8390 C   0  0  0  0  0  0  0  0  0  0  0  0
    7.1962   -2.7388  -19.6930 C   0  0  0  0  0  0  0  0  0  0  0  0
    5.5869   -0.6670  -19.7768 C   0  0  0  0  0  0  0  0  0  0  0  0
    9.4852    0.9122  -18.6070 C   0  0  0  0  0  0  0  0  0  0  0  0
    7.7204   -3.5047  -20.7087 C   0  0  0  0  0  0  0  0  0  0  0  0
    6.3609   -1.7130  -20.3131 C   0  0  0  0  0  0  0  0  0  0  0  0
    4.8679    0.1816  -20.6507 C   0  0  0  0  0  0  0  0  0  0  0  0
    6.4216   -1.9183  -21.6981 C   0  0  0  0  0  0  0  0  0  0  0  0
    8.9389    2.0970  -19.1634 C   0  0  0  0  0  0  0  0  0  0  0  0
   10.0502   -0.0779  -19.4422 C   0  0  0  0  0  0  0  0  0  0  0  0
    6.0596    3.4045  -17.5535 C   0  0  0  0  0  0  0  0  0  0  0  0
    6.6617    4.1946  -19.8685 C   0  0  0  0  0  0  0  0  0  0  0  0
    7.6461    5.3567  -17.8873 C   0  0  0  0  0  0  0  0  0  0  0  0
    5.4226    2.1625  -18.2033 C   0  0  0  0  0  0  0  0  0  0  0  0
    5.9817    2.9440  -20.4909 C   0  0  2  0  0  0  0  0  0  0  0  0
    7.2130    3.9834  -18.4265 C   0  0  1  0  0  0  0  0  0  0  0  0
    5.4565    3.3663  -21.8860 C   0  0  0  0  0  0  0  0  0  0  0  0
    9.0917    6.2564  -16.0499 C   0  0  0  0  0  0  0  0  0  0  0  0
    4.0574    1.3520  -20.1114 C   0  0  0  0  0  0  0  0  0  0  0  0
    7.2534   -3.0045  -21.9231 N   0  0  0  0  0  0  0  0  0  0  0  0
    8.4760    3.1228  -18.3095 N   0  0  3  0  0  0  0  0  0  0  0  0
    8.4872    5.0816  -16.7249 N   0  0  2  0  0  0  0  0  0  0  0  0
    4.8982    2.4694  -19.5654 N   0  3  1  0  0  0  0  0  0  0  0  0
    9.5074    2.8432  -15.8899 O   0  0  0  0  0  0  0  0  0  0  0  0
   10.7616    4.2267  -17.6690 O   0  0  0  0  0  0  0  0  0  0  0  0
   10.6025   -1.1902  -18.9057 F   0  0  0  0  0  0  0  0  0  0  0  0
    9.5186    3.7485  -17.0476 S   0  0  0  0  0  0  0  0  0  0  0  0
    9.5442    1.4094  -22.4699 H   0  0  0  0  0  0  0  0  0  0  0  0
    4.3130    0.5567  -22.7100 H   0  0  0  0  0  0  0  0  0  0  0  0
    5.7397   -1.2585  -23.6414 H   0  0  0  0  0  0  0  0  0  0  0  0
    8.7111    3.2179  -20.9991 H   0  0  0  0  0  0  0  0  0  0  0  0
   10.4450   -0.6835  -21.4789 H   0  0  0  0  0  0  0  0  0  0  0  0
    7.3697   -2.8711  -18.6353 H   0  0  0  0  0  0  0  0  0  0  0  0
    5.5424   -0.5139  -18.7086 H   0  0  0  0  0  0  0  0  0  0  0  0
    9.4692    0.7655  -17.5371 H   0  0  0  0  0  0  0  0  0  0  0  0
    8.3814   -4.3499  -20.5859 H   0  0  0  0  0  0  0  0  0  0  0  0
    5.2865    4.1766  -17.4266 H   0  0  0  0  0  0  0  0  0  0  0  0
    6.4633    3.1246  -16.5693 H   0  0  0  0  0  0  0  0  0  0  0  0
    7.5006    4.4874  -20.5170 H   0  0  0  0  0  0  0  0  0  0  0  0
    5.9214    5.0076  -19.8370 H   0  0  0  0  0  0  0  0  0  0  0  0
    8.2163    5.9056  -18.6512 H   0  0  0  0  0  0  0  0  0  0  0  0
    6.7661    5.9470  -17.5920 H   0  0  0  0  0  0  0  0  0  0  0  0
    6.1820    1.3706  -18.2822 H   0  0  0  0  0  0  0  0  0  0  0  0
    4.5931    1.8133  -17.5707 H   0  0  0  0  0  0  0  0  0  0  0  0
    6.7349    2.1522  -20.6157 H   0  0  0  0  0  0  0  0  0  0  0  0
    4.9643    2.5088  -22.3680 H   0  0  0  0  0  0  0  0  0  0  0  0
    4.7336    4.1876  -21.7724 H   0  0  0  0  0  0  0  0  0  0  0  0
    6.2989    3.7027  -22.5083 H   0  0  0  0  0  0  0  0  0  0  0  0
   10.1578    6.0627  -15.8604 H   0  0  0  0  0  0  0  0  0  0  0  0
    8.9890    7.1422  -16.6940 H   0  0  0  0  0  0  0  0  0  0  0  0
    8.5763    6.4358  -15.0948 H   0  0  0  0  0  0  0  0  0  0  0  0
    3.4382    1.7509  -20.9284 H   0  0  0  0  0  0  0  0  0  0  0  0
    3.4069    0.9815  -19.3055 H   0  0  0  0  0  0  0  0  0  0  0  0
    7.4841   -3.3742  -22.8231 H   0  0  0  0  0  0  0  0  0  0  0  0
    4.2783    3.2458  -19.4517 H   0  0  0  0  0  0  0  0  0  0  0  0
  1  4  2  0  0  0  0
  1  5  1  0  0  0  0
  2  3  2  0  0  0  0
  2 11  1  0  0  0  0
  3 12  1  0  0  0  0
  4 13  1  0  0  0  0
  5 14  2  0  0  0  0
  6  9  2  0  0  0  0
  6 10  1  0  0  0  0
  7 10  1  0  0  0  0
  7 11  2  0  0  0  0
  8 13  2  0  0  0  0
  8 14  1  0  0  0  0
  9 24  1  0  0  0  0
 10 12  2  0  0  0  0
 11 23  1  0  0  0  0
 12 24  1  0  0  0  0
 13 25  1  0  0  0  0
 14 30  1  0  0  0  0
 15 18  1  0  0  0  0
 15 20  1  0  0  0  0
 16 19  1  0  0  0  0
 16 20  1  0  0  0  0
 17 20  1  0  0  0  0
 17 26  1  0  0  0  0
 18 27  1  0  0  0  0
 19 21  1  0  0  0  0
 19 27  1  0  0  0  0
 20 25  1  0  0  0  0
 22 26  1  0  0  0  0
 23 27  1  0  0  0  0
 25 31  1  0  0  0  0
 26 31  1  0  0  0  0
 28 31  2  0  0  0  0
 29 31  2  0  0  0  0
  1 32  1  0  0  0  0
  2 33  1  0  0  0  0
  3 34  1  0  0  0  0
  4 35  1  0  0  0  0
  5 36  1  0  0  0  0
  6 37  1  0  0  0  0
  7 38  1  0  0  0  0
  8 39  1  0  0  0  0
  9 40  1  0  0  0  0
 15 41  1  0  0  0  0
 15 42  1  0  0  0  0
 16 43  1  0  0  0  0
 16 44  1  0  0  0  0
 17 45  1  0  0  0  0
 17 46  1  0  0  0  0
 18 47  1  0  0  0  0
 18 48  1  0  0  0  0
 19 49  1  0  0  0  0
 21 50  1  0  0  0  0
 21 51  1  0  0  0  0
 21 52  1  0  0  0  0
 22 53  1  0  0  0  0
 22 54  1  0  0  0  0
 22 55  1  0  0  0  0
 23 56  1  0  0  0  0
 23 57  1  0  0  0  0
 24 58  1  0  0  0  0
 27 59  1  0  0  0  0
M  CHG  1  27   1
M  END
> <OMEGA_C>
Z7QYQRM9oz+PL6vBe9KcQFYRdb1DXrDB7Sq2QEpbjL/amLTBqY8QQdQmEkCqhKTBu9cgQcGcvj0+
tqbBO0fmQBBIL8BEi53BxseyQBnDKr/ONp7BRcMXQVKDaT8Z25TBpA33QDZNYMBWq6XBGYzLQANE
278jgaLBosWbQET/OT6XNKXB7X3NQDiL9b+sla3BzQUPQTI1BkCSTpnBrM0gQVWOn72yiZvBUujB
QBHjWUCjbYzBmSzVQCM6hkCe8p7BzKz0QEhqq0AYGY/B5oWtQBdmCkBSoJHBCWq/QCBrPEBH7aPB
JNHmQPPvfkBvaZPBxJuuQE9xV0CUFq/BmXcRQYg0yEBEZoDBmNaBQKQNrT805KDB8BvoQD9JQMBx
Yq/BoJ0HQSPcR0DneZLBhMsHQd6cokCEzIXBEb6cQKEKHkDzhZzBIx4YQdr2NUAePX7Bqi8sQe1A
h0AQWo3B8aMpQZtYmL/XPpfBB0wYQS3nb0B5YYjB+bQYQTVntD9IwrPBOASKQN6EDj8mrrXBy6u3
QFkWob+QIb3B1mALQUzxTUBB/qfBjh4nQXX6Lr+w1KvB+9TrQJq/N8ANFZXB/FqxQOKLA786q5XB
wYEXQdj5Qz/8S4zBVhoGQZYyi8Dgr6TB+iqpQM6mhUCpaYvBotPOQKX4R0AAjoTBkwTwQJ+Yj0DM
IqTBWXy9QHw+oEA3sp7B/nUDQYT6vECnNZXB1IPYQPRNvkB9vIzBA9PFQAhwrz/sQZLBAPuSQHAb
6D/jkIzBeITXQAu9CUDw7KTBOtueQJmPIEC98bLBwXmXQJUAhkDdLa7BO5DJQIb5bEAREbTBR4Yi
QT0BwkA5xH3B79IPQdiM5EBajYXBkDgJQQryzUB9hHHBfQtcQCUe4D9JbafBagpaQGhCez+vcZrB
+33vQPvyV8C3lbbBrOeIQMq6T0ADnZvBvPgfQaosyb2BeJvB7B6dQFrtgb2jZbDBQHW2QLvrjL/m
nbTBMmsXQWGVZz/bxJTB9AEgQXKLmT2sqKbBKGvmQHaXL8AKjJ3Bav+yQOaLK79sPJ7Bv5UQQTJ0
EkCTY6TB6DP3QG2rYMBtqqXBDL/LQDTK279phKLBCgmcQOX8Nj47PKXBwLrNQIol9r+kmK3BEAwP
QcRbBkCNNJnBIyIYQfGLoj93GavByvTBQObcWUCvbYzBvErVQEk6hkAD8J7BHrX0QBp4q0BwE4/B
gqitQK5MCkCDpJHBCKW/QANUPEBY76PBdujmQOMEf0ACY5PBJvCuQPs8V0A7HK/BgYQRQeFZyEAk
Z4DBhhSCQO2wrD8M7qDBUlLoQEakQMDhYq/BCK0HQcEQSEDNaZLButcHQcS5okDFx4XBMvCcQJrk
HUB/jJzBUTMYQQs9NkAiLX7BpjssQXJZh0DDV43BIAcYQYmauj8I0bXBmVsYQT0qcEC0WYjBOIAm
QWwCgL/xA5jBHFmKQA2gDT8qt7XBj/63QBCyob9oJr3BH0EXQaqrQj/rNIzBBQ4mQezTNL/yzKvB
DO7rQPMMOMBZFZXBfo2xQJApBL8YsZXBjtsLQZ4BT0Dt0afB5SgGQaZni8DsrKTBTi2pQNSbhUAw
bYvBL8/OQH/2R0AtjITBVCTwQIarj0CKHaTBFIq9QOEvoEANsZ7B63IDQVYQvUBBMZXB44XYQOtO
vkAVtYzBeQDGQN1irz+PQ5LBPxiTQL275z9kmIzBF83XQIK5CUDk6aTBXkefQOFHIEAf+bLBXb+X
QDPchUCnOK7Bvu3JQCPYbEBXErTBW5QiQWAswkCcyX3BgdsPQVap5EDskIXBmUkJQXQizkAOhXHB
uJtcQHq/3z8eeafBInJaQER9ej+7fZrBYrrvQLtUWMBslbbBrROJQHiNT0CypZvBrhEYQf7EmL1B
TqDB+RWqQFcT1b0re6/BYETCQF0Bor+zjrHBvBAPQbLHRD+Wc5jB0NwgQZbZ9D7GtanBmeHOQJ2s
OsCrwZfBGFumQIknM79sgpzBzEwYQRXmLUCdRKPBhBjlQPKecsCNL57B0u2+QCVK7L+yoZ7BQlyc
QCI7Qj5m8qTBubTMQKIzCMBuDanBHsgOQanHCkBXAJrB4PEgQcEg8D8XMKvBlEHAQLv9U0BgkYzB
SQnYQDR9h0DNep7Bosj0QM5yp0D+a43BPaGsQNwjCEA0mZLBSSLCQOigQkBtQqTBYrrmQLDuekD3
x5LB1oGyQJgJY0CoUK/B2mIQQbY6vUARHXvBhmmDQM5nuz9gs6LB3bLjQKYSVMDeqajBWNUGQWp5
QEDa95HBXiAHQVdomkDyKITBH/ydQB3fIUC5eZ3BsnkYQWBfIkBIjn7BgGgrQQhug0CfpIzBrnAp
QY+MGkAqKrTBJu0XQZwYY0AAzYfBAToYQUt2kr9NHZ/BFf+hQNmUED/k9LXBW63MQN/lvr+HmLnB
x2EIQcDzrz7vPpHB34YnQQKvLL4Nxq/BjCDKQEBZQMBlOo/BCS2bQFWb/746fpTBZ/EYQUJ/ckAO
R6TBMO30QFcwlsDdkJvBu6enQMLOgkBlgIvBZWXLQP/zPUAVsITBB1j0QGvtkEDNJaPBszvBQDlI
okDkNJ7BIhkEQU64ukDZ9ZLBf7nYQAkRukDn24rBI9HEQOS6qj9wXpPBDRiRQG6Q3z83Co7BNdTZ
QNd7D0CZeaXBJcmiQOZfLkB0orPBCJ2bQHvci0B2K67BBQrOQBoIekAE/LPBRGUhQSuKtkBmEnjB
mdsOQeXU20Bo1oHBocQHQZUmv0BJzGvBAiNuQJmK7T+pUqrBdupQQIMxnD9KY53BdEXxQPmmcMBd
967B0F+KQJ2xU0DHY5zBQrsfQUxOFr4qgJ3BAYy1QNhPpL46FJTBbMrWQA6xob/8BpPBEKIWQXRv
Sj8GZ5bBMyMiQUAUKj5mbKjBfdD0QPnVCcBvRq7BgQe8QIoC0r6BkKfBEiAUQV5aGUAf/6TB+fMH
QUqLPsDnoKjB+PHbQClZsr9gdqbBXb+oQJBQBz7+Tp7BR1zpQMal57+oS5zBl4QQQUZqBEDdJJrB
uFwcQdm8uD+tJqzBD8DGQC7pNECby4zBGlzWQJIDhEARB57Be3buQMsWoUACSYzBvCOZQBA0O0Co
l5HB3Yy/QNqgO0CWa6PBEn7nQI5Jb0Der5LB3Fe0QFQNUkCHH6/B9LkNQUKUuUDruHnBNt+GQP82
mz+ib5/BJHAEQXNQMcAdvZ3BEoEJQYpEQ0BG7JLBYPMGQUdNlkAbB4TBe2iXQCL1JUBSUJ3BRm0h
QZ45LUCj2YHBJiAqQfcrk0DmNI/B4VwfQdV14z+Uh7bB9s4aQd5Cb0D8ionBIeEkQZ//jb8EjJrB
KbilQO+ybj3WBY3Bm+DhQBD1x7+BM4vBgFUUQbcaCD8LGI7BE2MoQck6Er/E6K3B0WHyQLpGBcD2
37bBcl6yQLt4lr0baa/BloAQQRMLWUCR0qfBOl0TQW+masCPDKzBd23FQFARSEB4VYTB9K7RQHpP
5D+zYI3B8mvxQMgTjkC3D6PBWZS/QOennkCaOZ3By9r6QA+JukBghJHBqErQQOmpq0BqmojBRi6E
QIV1DkCGRI3BN2eNQJD6fECfe5DBpi/VQDcZBEAaX6PBLiGkQLNSG0CD5LLBLAyfQC0MhUA+RK/B
nd/RQNm7YEACjLPBlEkfQYAEukCWknjBahUIQVJF2EAvHoDB9dQGQS+jtED0t2nBd2J0QAoSlz8n
pKfBkN9ZQHsmgD9Wu5nBwiIMQQmoT8Dn1pfBIBOBQNsKTUB8TqDB

> <OMEGA_E>
fGsdP2o8GD/0Fw4/LpNSPw==

> <OMEGA_NBR>
     49826

$$$$
50220591
  -OEChem-04172616093D

 68 72  0     1  0  0  0  0  0999 V2000
    6.6799   -0.8432  -22.1805 C   0  0  0  0  0  0  0  0  0  0  0  0
    9.5797    0.0178  -20.1319 C   0  0  0  0  0  0  0  0  0  0  0  0
    5.8776    0.2683  -21.8802 C   0  0  0  0  0  0  0  0  0  0  0  0
    8.9341    0.8127  -19.1674 C   0  0  0  0  0  0  0  0  0  0  0  0
    6.6639   -1.9684  -21.3381 C   0  0  0  0  0  0  0  0  0  0  0  0
   10.1607    0.6220  -21.2657 C   0  0  0  0  0  0  0  0  0  0  0  0
    5.0653   -0.8539  -19.8741 C   0  0  0  0  0  0  0  0  0  0  0  0
    9.4673    2.8135  -20.4637 C   0  0  0  0  0  0  0  0  0  0  0  0
    9.6326    7.6538  -14.9964 C   0  0  0  0  0  0  0  0  0  0  0  0
   10.4770    6.7185  -14.4590 C   0  0  0  0  0  0  0  0  0  0  0  0
    5.0640    0.2613  -20.7278 C   0  0  0  0  0  0  0  0  0  0  0  0
    8.8597    2.2090  -19.3474 C   0  0  0  0  0  0  0  0  0  0  0  0
    5.8537   -1.9915  -20.1847 C   0  0  0  0  0  0  0  0  0  0  0  0
   10.1040    2.0212  -21.4289 C   0  0  0  0  0  0  0  0  0  0  0  0
    9.0572    5.7173  -15.7960 C   0  0  0  0  0  0  0  0  0  0  0  0
    6.0220    3.1628  -17.5353 C   0  0  0  0  0  0  0  0  0  0  0  0
    6.6593    4.2838  -19.7182 C   0  0  0  0  0  0  0  0  0  0  0  0
    7.5796    5.1264  -17.6246 C   0  0  0  0  0  0  0  0  0  0  0  0
    5.4806    1.9967  -18.3563 C   0  0  0  0  0  0  0  0  0  0  0  0
    5.9989    3.1528  -20.4992 C   0  0  2  0  0  0  0  0  0  0  0  0
    7.1558    3.8633  -18.3185 C   0  0  1  0  0  0  0  0  0  0  0  0
    5.3945    3.7959  -21.7701 C   0  0  0  0  0  0  0  0  0  0  0  0
    3.5368   -3.5719  -18.7863 C   0  0  0  0  0  0  0  0  0  0  0  0
    5.4637   -4.4080  -17.4094 C   0  0  0  0  0  0  0  0  0  0  0  0
    4.1958    1.4487  -20.3776 C   0  0  0  0  0  0  0  0  0  0  0  0
    4.9695   -3.2594  -18.2971 C   0  0  0  0  0  0  0  0  0  0  0  0
    8.7531    6.9920  -15.8288 N   0  0  0  0  0  0  0  0  0  0  0  0
    8.3794    3.0010  -18.3235 N   0  0  3  0  0  0  0  0  0  0  0  0
    8.4708    4.7384  -16.5490 N   0  0  1  0  0  0  0  0  0  0  0  0
    4.9541    2.4945  -19.6554 N   0  3  1  0  0  0  0  0  0  0  0  0
   10.6976    3.8201  -17.5183 O   0  0  0  0  0  0  0  0  0  0  0  0
    9.2639    2.3283  -15.9763 O   0  0  0  0  0  0  0  0  0  0  0  0
   10.1088    5.5251  -14.9664 O   0  0  0  0  0  0  0  0  0  0  0  0
    5.8864   -3.1475  -19.4171 O   0  0  0  0  0  0  0  0  0  0  0  0
   10.6794    2.6107  -22.5000 F   0  0  0  0  0  0  0  0  0  0  0  0
    9.3956    3.3708  -17.0023 S   0  0  0  0  0  0  0  0  0  0  0  0
    7.3091   -0.8342  -23.0583 H   0  0  0  0  0  0  0  0  0  0  0  0
    9.6302   -1.0534  -20.0041 H   0  0  0  0  0  0  0  0  0  0  0  0
    5.8831    1.1297  -22.5317 H   0  0  0  0  0  0  0  0  0  0  0  0
    8.4970    0.3550  -18.2922 H   0  0  0  0  0  0  0  0  0  0  0  0
    7.2785   -2.8238  -21.5768 H   0  0  0  0  0  0  0  0  0  0  0  0
   10.6501    0.0118  -22.0104 H   0  0  0  0  0  0  0  0  0  0  0  0
    4.4635   -0.8453  -18.9774 H   0  0  0  0  0  0  0  0  0  0  0  0
    9.4430    3.8873  -20.5765 H   0  0  0  0  0  0  0  0  0  0  0  0
    9.6517    8.7163  -14.8036 H   0  0  0  0  0  0  0  0  0  0  0  0
   11.2824    6.9018  -13.7631 H   0  0  0  0  0  0  0  0  0  0  0  0
    5.2123    3.8816  -17.3413 H   0  0  0  0  0  0  0  0  0  0  0  0
    6.4152    2.7865  -16.5794 H   0  0  0  0  0  0  0  0  0  0  0  0
    7.5204    4.6490  -20.2971 H   0  0  0  0  0  0  0  0  0  0  0  0
    5.9275    5.0962  -19.5977 H   0  0  0  0  0  0  0  0  0  0  0  0
    8.1039    5.7878  -18.3301 H   0  0  0  0  0  0  0  0  0  0  0  0
    6.7004    5.6476  -17.2178 H   0  0  0  0  0  0  0  0  0  0  0  0
    6.2896    1.2752  -18.5429 H   0  0  0  0  0  0  0  0  0  0  0  0
    4.6704    1.5034  -17.7993 H   0  0  0  0  0  0  0  0  0  0  0  0
    6.7609    2.4163  -20.7938 H   0  0  0  0  0  0  0  0  0  0  0  0
    4.9019    3.0206  -22.3752 H   0  0  0  0  0  0  0  0  0  0  0  0
    4.6564    4.5581  -21.4796 H   0  0  0  0  0  0  0  0  0  0  0  0
    6.1954    4.2667  -22.3590 H   0  0  0  0  0  0  0  0  0  0  0  0
    3.1789   -2.7498  -19.4236 H   0  0  0  0  0  0  0  0  0  0  0  0
    3.5427   -4.5078  -19.3643 H   0  0  0  0  0  0  0  0  0  0  0  0
    2.8689   -3.6808  -17.9191 H   0  0  0  0  0  0  0  0  0  0  0  0
    6.4833   -4.1890  -17.0594 H   0  0  0  0  0  0  0  0  0  0  0  0
    4.7942   -4.5161  -16.5434 H   0  0  0  0  0  0  0  0  0  0  0  0
    5.4680   -5.3431  -17.9886 H   0  0  0  0  0  0  0  0  0  0  0  0
    3.7918    1.8796  -21.3055 H   0  0  0  0  0  0  0  0  0  0  0  0
    3.3667    1.1071  -19.7406 H   0  0  0  0  0  0  0  0  0  0  0  0
    4.9576   -2.3267  -17.7140 H   0  0  0  0  0  0  0  0  0  0  0  0
    4.2931    3.2100  -19.4292 H   0  0  0  0  0  0  0  0  0  0  0  0
  1  3  2  0  0  0  0
  1  5  1  0  0  0  0
  2  4  2  0  0  0  0
  2  6  1  0  0  0  0
  3 11  1  0  0  0  0
  4 12  1  0  0  0  0
  5 13  2  0  0  0  0
  6 14  2  0  0  0  0
  7 11  2  0  0  0  0
  7 13  1  0  0  0  0
  8 12  2  0  0  0  0
  8 14  1  0  0  0  0
  9 10  2  0  0  0  0
  9 27  1  0  0  0  0
 10 33  1  0  0  0  0
 11 25  1  0  0  0  0
 12 28  1  0  0  0  0
 13 34  1  0  0  0  0
 14 35  1  0  0  0  0
 15 27  2  0  0  0  0
 15 29  1  0  0  0  0
 15 33  1  0  0  0  0
 16 19  1  0  0  0  0
 16 21  1  0  0  0  0
 17 20  1  0  0  0  0
 17 21  1  0  0  0  0
 18 21  1  0  0  0  0
 18 29  1  0  0  0  0
 19 30  1  0  0  0  0
 20 22  1  0  0  0  0
 20 30  1  0  0  0  0
 21 28  1  0  0  0  0
 23 26  1  0  0  0  0
 24 26  1  0  0  0  0
 25 30  1  0  0  0  0
 26 34  1  0  0  0  0
 28 36  1  0  0  0  0
 29 36  1  0  0  0  0
 31 36  2  0  0  0  0
 32 36  2  0  0  0  0
  1 37  1  0  0  0  0
  2 38  1  0  0  0  0
  3 39  1  0  0  0  0
  4 40  1  0  0  0  0
  5 41  1  0  0  0  0
  6 42  1  0  0  0  0
  7 43  1  0  0  0  0
  8 44  1  0  0  0  0
  9 45  1  0  0  0  0
 10 46  1  0  0  0  0
 16 47  1  0  0  0  0
 16 48  1  0  0  0  0
 17 49  1  0  0  0  0
 17 50  1  0  0  0  0
 18 51  1  0  0  0  0
 18 52  1  0  0  0  0
 19 53  1  0  0  0  0
 19 54  1  0  0  0  0
 20 55  1  0  0  0  0
 22 56  1  0  0  0  0
 22 57  1  0  0  0  0
 22 58  1  0  0  0  0
 23 59  1  0  0  0  0
 23 60  1  0  0  0  0
 23 61  1  0  0  0  0
 24 62  1  0  0  0  0
 24 63  1  0  0  0  0
 24 64  1  0  0  0  0
 25 65  1  0  0  0  0
 25 66  1  0  0  0  0
 26 67  1  0  0  0  0
 30 68  1  0  0  0  0
M  CHG  1  30   1
M  END
> <OMEGA_C>
wMHVQBXeV7+/cbHBbkYZQUA1kjwYDqHBfhW8QG1jiT6nCq/B4PEOQQQOUD/OVpnBYD7VQObz+79Z
tKrBTJIiQfw6Hz8VIKrBBBeiQNWYWr87/p7BBnoXQewPNECWtaPB/R4aQSTs9EBC8W/B+KEnQbX9
1kDqV2fB/guiQMTGhT6c0qXBM8ENQc1fDUCTx5rBvFG7QDrq/r9XeqHBCqohQcpbAUBqbqvBNOoQ
QVb0tkBSvHzBaLTAQLhqSkBbSIzBuhjVQD4ViUD5vp3B5IvyQNULpEAs/4zB2mCvQGiV/z/M2ZLB
5Pa/QH7HSUBI/qPBZvzkQHBAd0BbjJLBYJ+sQE7wckAdKa7BL1piQJiZZMBUSpbBxtauQCsOjcB2
RovBYESGQFRuuT9HBaPBDAafQCyaUMBjYJLBngwMQTK+30CgQn3BNRIGQYIQQECKlpLBPYgHQRSh
l0BFZITBIIieQB6lH0AyPp3BOikrQRV8dECIJYzBEzkUQWsDFUDonn/Bmb0hQe3NsEBcdm/BiF28
QARwScA8VpvBuN4qQb4VJ0AAALTBaVQWQWW7V0CiBIjBcuTpQM+PVb9Od7jBfhUaQRHVhr9zCKDB
qUK8QL2ZkD/nQLTBpfMHQQnGtT59VpLBIOnoQF24NMBcnazBsWYqQThvQTxDFbDBSNWOQHNlWL+m
0ZfBkxYXQVDJeECqnKTBPW0aQQV2C0G822zBh4Q0QXfb3ECKNVzBA8umQHZreEDzuorBW0nNQApW
MkCUooTBOqfwQOXElEB0YKLBwK29QAUUo0AByJzBsqkBQXA1uUD9o5LBwGnWQP24tEAQvonBOkTJ
QDg4oz/qV5TBU3SVQGhvwD/zZI7BpFnYQCekGkCjWabBHNycQNJQQUBpALPBaQGVQBrckUBI1qvB
skDGQOmIiEBA37LB43JLQIb8L8BxY5vBY7xiQJY/kMAQ6prB/Zs3QAWSa8A5Wo/B+nbPQPALhsCP
eYjBxmmZQEuEkMDZWITB+fmuQN76qsCw6I/Boa1yQJeV8D/BcarBnndXQMK0jT+t7J3BTKSeQB7p
FMBGto3BN2GJQOtvTUAVb5vBvi6sQKnepL/NzrLB7m4gQdPlHL5VJ5/BsGeVQK2HD75+rq/Bf/AT
QR/HET+6vJfBa/++QH8lB8DEAKvBf8woQXeT/D7EQ6jBR5GkQCY9Ib/e7pzBntwZQRCLJkD/C6LB
1cMpQfnp0UCkwmbB6V0lQc+W8EDNyXXBtZOSQJ8XXj4GxKTBcQQQQX5n+T9LUZnBAjq6QLkD57/d
C6DBJFglQWy37z9hu6nBh+kVQezOs0DnZH/BEJm+QNX5Y0DPbo3B8+XaQOiwfkCMup/BeEQAQXIs
oUC59I/BTaGlQA3ZFkDh+pHBXm/BQK2MMkAtW6TBh/HoQDdGckBJzZPBm+K1QP2bSkCWDLDBI2mU
QN1mRcByjIrBsZGNQO+ih8DXiJzBI+F4QN+hwT+emqHBcFmtQNN/asAeJJTB2gMgQX9DrEBnWG3B
lToEQWtMKkA9o5HBfZEKQRnslUBltoXBQYeaQIQRJEDMfJ3B/w0oQXAGNkDNnobB0gMFQU0kFkBl
QnnBQ9YYQWXA3UC8Y4LBOt/KQPJ+KsDlepjBB0QtQR9/IEDzbbLB4MMQQQ2MP0B/ZYXBrDavQHmj
xL+vLrvBTZcjQTrqmb+n2Z3BQ/mFQOns8T7/qLXBilkNQXkKiz3F1JDBoSPRQIzHPsAKZa3BEdUx
QVpJi71RGq7BUsGhQIfCwb5Vj5TBS4kYQZ8va0BK0KLBSh8zQQZA1kBSZVjBj9EqQRuxCEFVtXXB
CaGqQNffjkC5CY7BV1PGQDG6V0Az/ITBIs/3QLLkg0BEnqTBfMHGQG0lnEADOKDBEm4MQc+5qkDx
2ZXB+cPpQPCYu0D4xY7BTHe5QML8uT8HPZHBAPSHQFl9DkBMXY3BMbLVQFT28T+HW6TBgJujQMUg
FkALurPBtW+iQMOkgkA5E7DBjm3TQC1+VUDdorTB/xarQACFK8CwpYTBdUp+QA7wEcAZV43BZTSB
QHtNeMDq0YbBqpCfQCvLlMBEWKPBxrN0QE0nocCe1pjBcpVwQCvxW8DNW5/BiKdXQO7h9D+Sq6jB
t9VJQGzspD/ZTpvBemHAQO1JkMCDH5HBNhuKQGn1WkBiv53B6BWsQF22pL9EzrLBTGcgQdZsHr5o
KJ/BN1GVQA1XDr4Kra/Bi/ATQfmbET+Uu5fBHOm+QOkUB8AwAavB3sMoQYGi+z60RajB9n+kQCkb
Ib/07ZzBZOMZQRJ+JkBoCqLBBJolQcYT70D6BHXBXzUqQalO0ECqGmbBX4GSQCPSXj5mwqTB6wsQ
Qe1d+T/XTpnBiie6QBzt5r/4C6DBx1YlQQyJ7z/Vu6nBIQEWQeLqs0Bof3/BrqC+QHviY0DEbo3B
Y+vaQI6BfkAvvJ/BajwAQTspoUCY/Y/BPKSlQADKFkDV+ZHBkWjBQGNxMkA3W6TB2vPoQFwsckD1
zpPBk9a1QCCUSkCtC7DBP1iUQI5ZRcBbi4rB4GuNQCqPh8BmiZzBfMh4QCyywT9Ml6HByzytQLZw
asAgJZTBXNIYQXxa3EAZR4LB7EMEQcNUKkBHoZHBmJkKQbYMlkDKvoXB0oOaQFwKJED0ep3B1hko
QcRmNkCEnIbBhBEFQQ+XFkAiOnnB/JEgQfXQq0BS0GzBVcnKQKl6KsCbe5jBZz8tQYtiIECgb7LB
V88QQfDgP0BgZIXBMRqvQPV0xL9TLrvBfIojQXYlmr/F253BlOGFQBGp8j7jprXBGloNQf5Wij0f
05DBZgzRQNS1PsBPZq3B58UxQWY0kL3kHa7BsbGhQDOkwb4+jpTBy5UYQQ8la0DBzaLB4vIqQc33
B0Fju3TBkqwzQZxT1EClyVfB4qmqQHDVjkBrCI7B8mDGQOOeV0CX/ITBGtf3QPO8g0Dln6TBFdLG
QP0UnECtO6DBZV0MQVW5qkD55pXB3qbpQMKKu0Azz47BhXi5QAnYuT8pPZHBqfmHQPRwDkAUW43B
3KLVQMan8T9LXaTB8ISjQLMnFkAnubPBWWyiQJimgkBpELDBrV/TQMRpVUApo7TBwA2rQPWJK8Av
pYTBuy9+QGTVEcDWU43BzSCBQK08eMDz0IbB1WOfQFS2lMAcWqPBgWJ0QDASocCD15jBolBwQBe9
W8BmWp/BIYRXQIMB9T8Gp6jBl8dJQAsApT89SpvB4D/AQDtJkMBqIpHBHh6KQBL2WkDFvJ3BLxep
QLlBoL9JP7LB3B8mQda34z8FOqnBrZyTQKt4gr1jf6/BLVEaQTMJI0Ag5aHBqi66QKewBMBQKqrB
KdYoQTsDzT6PfqfBttGgQAN9AL95mpzBMBQTQbzFDT9jS5fBu5knQQZj70DMGXbB3I4rQarr0EAV
2WbBNGiQQKOFqz46rqTB978PQdGN9z+8KpnBtB61QDcM27+1TJ/BA8UfQTf5U74zZJ7BJSIXQWLg
tEAtFYDBC0K/QAUza0BpvI3B0MTcQAmUgEDZBqDBGmIBQcNZokAwWJDBcf+kQDZvH0CtLZLB8g3C
QJJbNkDxh6TB1w3qQHugdUAsC5TBb2a3QFdsTUBfTrDBoLC2QLa4jsBb2ovBmgmBQL88fcCrTJrB
+A53QEmu1D+P1KHBRkOxQAwbecDlOpfBw6oaQc/m3EBayoLBSSkEQaoHLEBspJHBf1kLQdZSl0Bf
/4XBgqCaQHveK0A2v53BmdwnQUT9NEAvcYbBdGMEQUxWG0AXH3nB5GEhQcTSrECiTG3BKVbCQBZO
IsCPHZfBHnAjQcBLwr9+cJzBhKMQQRS2QUB3X4XBXXOsQMc+xL8BjLrBzRstQbjSD0B/L7DBsH+F
QPIEDD9qsLXB0ksZQbiIZ0DB7qLBaR/LQM+SPsD8QKzB+NsxQYnwRL5yIq3BW8+dQL9jW75AT5TB
8uILQYO1pD1WaZDBPHstQR/xB0FVE3bB/fM0Qe3f1EAFe1jB5GOsQFspk0DnfY7BKYDGQNRxX0Ak
QIXBWQn6QEeag0Bh26TB4cjJQF8XnkCRt6DBosgNQQKnqkD4O5bB+83sQAiRvUATWI/BP6m3QEVn
yD+4QZHB0/6GQNALGkAuoI3BVzLVQLWX9j87WKTBIUSkQP7MGUCH5rPB+xalQBDDhECohbDBe0vV
QHlSVUCL2LTBxKbYQHB8jcBUj4nBwbmjQNwYd8B/MobBmI6rQG4bsMA1rYvBtjp5QKx7Y8AdaqLB
eDxsQKwRoMCyEJrBy5JcQFgFV8D8lZTBxclXQLUEBEAYCKnBlKZGQCB+vT96m5vBJorDQAh+kMCM
3JzB0UOLQILoY0BhLJ7B5iypQG55ob9aObLBYxkmQe4H4z/dManBv7GTQE+alL0Rfq/B2UEaQQ25
IkBy4aHByTu6QMw3BcAUIarBF9UoQfx/yj7xcafB89GgQJj/Ab8fl5zBDgcTQfTXDD9LQ5fB/g4r
Qfh40kDBgmfB7k8nQWnR8ECn4HbBsnGQQODjpz4irqTBb60PQaID9z80J5nBQSG1QPDe27+/RJ/B
Z8AfQdQIWL5wV57BufQWQd21tEBzBoDBvRy/QEUQa0Bbv43BQLPcQIGBgEDGBqDBkVwBQRRBokDu
T5DBY+mkQA8yH0CUMJLBAwrCQIgYNkAYiaTBn/PpQHV7dUDfCZTBiWm3QPkFTUD1ULDBcKi2QOnZ
jsBNzIvBRBOBQBy2fcCbRJrBtBJ3QKHO0z9Z2aHB+EexQLR3ecCJLpfBd8AgQbw6rUBL023BzxIE
QQ3GK0ATo5HBsT0LQScfl0B/9YXB55WaQJKGK0Amw53Ba74nQUh5NEBfbIbBtT4EQXbHGkBDIHnB
3p8aQYc43kDU54LBcFDCQOShIsB0EpfBa3AjQde4wr/lXpzBCoUQQdk7QUBdXIXBGZCsQGKmxb8U
hbrBJRgtQa9uD0ByJ7DBRJ2FQBCICT+zsbXBCzgZQUw0Z0Bc7qLB5C3LQGkgP8BANKzBueExQaBN
Sr6FEq3Bu8adQLsSYL7bTJTBKNMLQVy5nj0lYZDB81g0QRbC1kAgGVnBiUwtQSaeCEFWD3fBKDqs
QCgTk0CqhY7BWUzGQDdqX0C7QYXBj/r5QFCSg0DX2aTBoK3JQE3+nUBIuKDBys4NQQWGqkBELpbB
u8/sQCSEvUBUUo/B4pq3QFoGyD+lQZHBXOSGQPzEGUAUpY3BtzjVQKkt9j9fVqTBnlOkQMpQGUBT
6LPBzA+lQDeJhECIi7DBcVHVQEf2VECt2bTB2prYQH2TjcAufonBvqSjQBpYd8B4J4bBwI2rQPs+
sMACnovB/F95QBwIZMBNY6LBiV5sQJ9QoMBxB5rBhYxcQGN7V8DnkJTBm+BXQNR/A0BZD6nBYphG
QDiuvD84opvB2ZvDQO2tkMAzzZzBzDCLQDmGY0CgMp7BWtmrQI9OpL9TxLLBfxQxQX+x4z8Y16PB
dE6VQH9ABb5Oqq/BOY0kQZicHkCoWZzBQiC+QDJqB8D88arBgEEpQRDEFz9ed6jBaEmjQKVII78i
5JzBz88IQcqGRT89q53BCvEoQUlZ00Dcp2bBrZckQXOq8UCY4HXB9tORQI4GXz4ivqTBxnIQQecI
/D8qFZnByjm5QBua578z/p/Bqv0UQceDyz24gKXBXlkVQU6OtECISn/BGnK+QHlYZEDNs43BnvDe
QMKMeECW+p/BpH4AQQ5KoEAoEZDBVm2lQCZtF0DeHZLBzmPBQEAvMUCOhqTBBpLpQD+wb0A8z5PB
uFi1QIoZTEBLE7DBir2UQBRYRsADaorBrv2NQO9YiMASYJzBm/h3QGrUwj/hmqHBtq2tQF7fasBK
CZTBnU0fQYiBrUBiG23Bs1EEQXNOKEDyO5HBAzcKQcEvlkB9nIXBcGyaQFWfJEBKl53B7pQnQf39
NUD1Y4XBr8MDQWz+GED6T3jB7jwYQXBl3kAEcYLB5IPKQJgEKsARbpjBqVQNQSzIgr9PLKrB5DYQ
QeI1QEDQ04TB1huvQADFw7/9I7vBobBAQRC3CUDDCabBW4yGQEES/T4ZrLXByk4qQYdDWkCmEZnB
evbPQAl8P8AeUq3BB8gyQf0tej01Sa7BJ9yfQFXYyr6Og5TBvSnzQPRgvD4yLJvBSjEyQU8O2EBo
QFjBgPUpQShCCUHt6nXBXxKrQIFPj0AGqY7BnB3FQNDZWUB1KYXBnzj9QDlBd0BudqTB0gXPQIFG
m0BdOKHBHP8MQRcTqUDM25XBCzjqQBXsukCmOo/BAyW5QBLfuj9JWJHBesKHQLqCD0AxfI3BYZ7T
QH8M6j+v36TBr1mgQMhOG0A6o7PBU4ukQHv4hEB/4K/Bb5rSQJosUkDD6LTBpmOrQBa7K8BxjoTB
eRR+QLiHE8C1Lo3Bwv6BQHS5ecBVpIbBsgagQH9KlcBgNKPBzHZ2QIgdosAEpJjBwY1wQFUJXsBk
Lp/BaH5WQKy69T+aqajB9zNJQBNRpz+WQZvBoDbBQM8mkMAICpHBm1SKQIbhW0Ai6Z3Ba9erQGk8
pL8qxbLB2RsxQSp34z/F0qPBD0uVQEvNBL4Hq6/BdZgkQUuEHkASVJzBfyG+QJhfB8AR86rB20Mp
QT+EFz9VdKjBiEWjQBhFI78V5ZzBidIIQaa2RT9lqJ3BVMUkQVEw8EDcE3XBo1gpQVbC0UC/+mXB
fc+RQCUgXz64vqTB5nsQQQH++z8QEJnBYTm5QEqM579F/5/Bvv0UQcoDzD1ffqXBMWMVQcqvtEBN
YH/BdnW+QPc/ZEDzs43Bb/XeQFpdeEA+/J/BhnQAQUNGoEDKGZDBb3GlQM5WF0DkHZLBHGLBQNMT
MUBzh6TBtZHpQHyWb0CV0JPB31S1QDARTEB2E7DBNrSUQM9SRsDvbIrBl/+NQGZXiMB5Y5zBwvF3
QIzQwj+jmqHB9qmtQOHaasBJC5TBgioYQaIH3UDaUILByloEQZteKEBYOJHB7jIKQZBUlkBYooXB
fW2aQCWSJEAUl53Bi50nQaGaNkClXYXBAs8DQYhwGUCORHjByM0fQQQVrUByjWzBhoHKQJP/KcAp
b5jB9E8NQTGlgr9nK6rBND4QQc6fQEAx0ITBqhivQPSyw7/cJLvBOLlAQdyMCUBzBabBIImGQGhY
/T6vrLXBr14qQZUfWkDOCpnBIPvPQIJsP8BqU63BRsgyQTT9dD2ZRq7B8NWfQIn1yr5uhJTBTinz
QKldvT6tKpvB0gUqQVaOCEEV53TBV7oyQQQi1kA8olfBHhWrQDVDj0B5qI7BYiTFQFq/WUDPKYXB
SD/9QFr2dkAtd6TBFxXPQLoym0A+PKHBKvIMQe4JqUB25pXBpBjqQM3gukBxR4/BRSq5QPCzuj8/
WZHBDsiHQIJnD0DBe43BppXTQLHF6T8G4qTBME+gQIhTG0C/o7PBFI6kQLj3hEAR36/BLZXSQLEd
UkCY6bTB9FarQJe1K8CRkITBLgV+QH+CE8B3Mo3BKvOBQNmzecDjp4bBcQ2gQO9IlcD8NqPBCnZ2
QBwcosAvqJjB5JRwQN4GXsDDMp/BtHVWQAfD9T/gqKjBUy9JQENLpz8gQZvBqzHBQBgkkMBGC5HB
9lmKQJPZW0BP6J3B

> <OMEGA_E>
2JXXPtqaKj8QkCo/lNQ7P/jtOz9abTY/mGg2Pw==

> <OMEGA_NBR>
     57662

$$$$
50220592
  -OEChem-04172616093D

 64 68  0     1  0  0  0  0  0999 V2000
    9.8716    1.4581  -21.3729 C   0  0  0  0  0  0  0  0  0  0  0  0
    5.7138    0.2153  -21.8111 C   0  0  0  0  0  0  0  0  0  0  0  0
    6.5794   -0.8554  -22.0921 C   0  0  0  0  0  0  0  0  0  0  0  0
    9.3646    2.5067  -20.5833 C   0  0  0  0  0  0  0  0  0  0  0  0
    9.8779    0.1407  -20.8737 C   0  0  0  0  0  0  0  0  0  0  0  0
    5.0835   -0.8305  -19.6886 C   0  0  0  0  0  0  0  0  0  0  0  0
    8.8754    0.9214  -18.7910 C   0  0  0  0  0  0  0  0  0  0  0  0
    5.9403   -1.8966  -19.9891 C   0  0  0  0  0  0  0  0  0  0  0  0
    4.9734    0.2335  -20.6039 C   0  0  0  0  0  0  0  0  0  0  0  0
    6.6852   -1.9030  -21.1652 C   0  0  0  0  0  0  0  0  0  0  0  0
    8.8594    2.2398  -19.2943 C   0  0  0  0  0  0  0  0  0  0  0  0
    9.3765   -0.1279  -19.5841 C   0  0  0  0  0  0  0  0  0  0  0  0
    6.2559   -3.1361  -19.2954 C   0  0  0  0  0  0  0  0  0  0  0  0
    6.1842    3.1156  -17.5138 C   0  0  0  0  0  0  0  0  0  0  0  0
    6.5838    4.3233  -19.7386 C   0  0  0  0  0  0  0  0  0  0  0  0
    7.4660    5.2865  -17.6413 C   0  0  0  0  0  0  0  0  0  0  0  0
    5.6076    1.9575  -18.3253 C   0  0  0  0  0  0  0  0  0  0  0  0
    5.9326    3.1434  -20.4726 C   0  0  2  0  0  0  0  0  0  0  0  0
    7.1766    3.9677  -18.3548 C   0  0  1  0  0  0  0  0  0  0  0  0
    5.2410    3.7356  -21.7251 C   0  0  0  0  0  0  0  0  0  0  0  0
    4.1546   -4.1165  -18.4365 C   0  0  0  0  0  0  0  0  0  0  0  0
    9.0659    6.1789  -15.9659 C   0  0  0  0  0  0  0  0  0  0  0  0
    4.1371    1.4283  -20.2297 C   0  0  0  0  0  0  0  0  0  0  0  0
    5.5694   -3.6498  -18.0561 C   0  0  0  0  0  0  0  0  0  0  0  0
    7.1359   -3.7905  -20.0204 N   0  0  0  0  0  0  0  0  0  0  0  0
    7.4325   -3.0617  -21.1456 N   0  0  0  0  0  0  0  0  0  0  0  0
    8.5172    3.3030  -18.4668 N   0  0  3  0  0  0  0  0  0  0  0  0
    8.4826    5.0014  -16.6405 N   0  0  2  0  0  0  0  0  0  0  0  0
    4.9604    2.4686  -19.5606 N   0  3  1  0  0  0  0  0  0  0  0  0
    9.6925    2.7429  -16.2086 O   0  0  0  0  0  0  0  0  0  0  0  0
   10.7453    4.4613  -17.8258 O   0  0  0  0  0  0  0  0  0  0  0  0
    9.3896   -1.3908  -19.1022 F   0  0  0  0  0  0  0  0  0  0  0  0
    9.5798    3.8132  -17.2085 S   0  0  0  0  0  0  0  0  0  0  0  0
   10.2557    1.6631  -22.3613 H   0  0  0  0  0  0  0  0  0  0  0  0
    5.6129    1.0261  -22.5174 H   0  0  0  0  0  0  0  0  0  0  0  0
    7.1538   -0.8715  -23.0065 H   0  0  0  0  0  0  0  0  0  0  0  0
    9.3624    3.5170  -20.9651 H   0  0  0  0  0  0  0  0  0  0  0  0
   10.2674   -0.6640  -21.4796 H   0  0  0  0  0  0  0  0  0  0  0  0
    4.5164   -0.8245  -18.7696 H   0  0  0  0  0  0  0  0  0  0  0  0
    8.5033    0.7178  -17.7978 H   0  0  0  0  0  0  0  0  0  0  0  0
    5.3591    3.7596  -17.1754 H   0  0  0  0  0  0  0  0  0  0  0  0
    6.7145    2.7095  -16.6398 H   0  0  0  0  0  0  0  0  0  0  0  0
    7.3950    4.7154  -20.3697 H   0  0  0  0  0  0  0  0  0  0  0  0
    5.8209    5.1028  -19.5959 H   0  0  0  0  0  0  0  0  0  0  0  0
    7.8380    6.0327  -18.3587 H   0  0  0  0  0  0  0  0  0  0  0  0
    6.5532    5.6653  -17.1584 H   0  0  0  0  0  0  0  0  0  0  0  0
    6.4186    1.2666  -18.5991 H   0  0  0  0  0  0  0  0  0  0  0  0
    4.8612    1.4245  -17.7180 H   0  0  0  0  0  0  0  0  0  0  0  0
    6.7104    2.4324  -20.7880 H   0  0  0  0  0  0  0  0  0  0  0  0
    4.7546    2.9282  -22.2922 H   0  0  0  0  0  0  0  0  0  0  0  0
    4.4850    4.4712  -21.4130 H   0  0  0  0  0  0  0  0  0  0  0  0
    5.9920    4.2285  -22.3599 H   0  0  0  0  0  0  0  0  0  0  0  0
    3.6397   -4.4950  -17.5412 H   0  0  0  0  0  0  0  0  0  0  0  0
    3.5894   -3.2703  -18.8542 H   0  0  0  0  0  0  0  0  0  0  0  0
    4.2224   -4.9182  -19.1867 H   0  0  0  0  0  0  0  0  0  0  0  0
   10.1615    6.0841  -15.9438 H   0  0  0  0  0  0  0  0  0  0  0  0
    8.7879    7.0908  -16.5147 H   0  0  0  0  0  0  0  0  0  0  0  0
    8.6823    6.2390  -14.9367 H   0  0  0  0  0  0  0  0  0  0  0  0
    3.6908    1.8541  -21.1405 H   0  0  0  0  0  0  0  0  0  0  0  0
    3.3379    1.1074  -19.5453 H   0  0  0  0  0  0  0  0  0  0  0  0
    6.1388   -4.4941  -17.6401 H   0  0  0  0  0  0  0  0  0  0  0  0
    5.5058   -2.8462  -17.3076 H   0  0  0  0  0  0  0  0  0  0  0  0
    8.0925   -3.3313  -21.8469 H   0  0  0  0  0  0  0  0  0  0  0  0
    4.3218    3.1790  -19.2649 H   0  0  0  0  0  0  0  0  0  0  0  0
  1  4  2  0  0  0  0
  1  5  1  0  0  0  0
  2  3  2  0  0  0  0
  2  9  1  0  0  0  0
  3 10  1  0  0  0  0
  4 11  1  0  0  0  0
  5 12  2  0  0  0  0
  6  8  1  0  0  0  0
  6  9  2  0  0  0  0
  7 11  2  0  0  0  0
  7 12  1  0  0  0  0
  8 10  2  0  0  0  0
  8 13  1  0  0  0  0
  9 23  1  0  0  0  0
 10 26  1  0  0  0  0
 11 27  1  0  0  0  0
 12 32  1  0  0  0  0
 13 24  1  0  0  0  0
 13 25  2  0  0  0  0
 14 17  1  0  0  0  0
 14 19  1  0  0  0  0
 15 18  1  0  0  0  0
 15 19  1  0  0  0  0
 16 19  1  0  0  0  0
 16 28  1  0  0  0  0
 17 29  1  0  0  0  0
 18 20  1  0  0  0  0
 18 29  1  0  0  0  0
 19 27  1  0  0  0  0
 21 24  1  0  0  0  0
 22 28  1  0  0  0  0
 23 29  1  0  0  0  0
 25 26  1  0  0  0  0
 27 33  1  0  0  0  0
 28 33  1  0  0  0  0
 30 33  2  0  0  0  0
 31 33  2  0  0  0  0
  1 34  1  0  0  0  0
  2 35  1  0  0  0  0
  3 36  1  0  0  0  0
  4 37  1  0  0  0  0
  5 38  1  0  0  0  0
  6 39  1  0  0  0  0
  7 40  1  0  0  0  0
 14 41  1  0  0  0  0
 14 42  1  0  0  0  0
 15 43  1  0  0  0  0
 15 44  1  0  0  0  0
 16 45  1  0  0  0  0
 16 46  1  0  0  0  0
 17 47  1  0  0  0  0
 17 48  1  0  0  0  0
 18 49  1  0  0  0  0
 20 50  1  0  0  0  0
 20 51  1  0  0  0  0
 20 52  1  0  0  0  0
 21 53  1  0  0  0  0
 21 54  1  0  0  0  0
 21 55  1  0  0  0  0
 22 56  1  0  0  0  0
 22 57  1  0  0  0  0
 22 58  1  0  0  0  0
 23 59  1  0  0  0  0
 23 60  1  0  0  0  0
 24 61  1  0  0  0  0
 24 62  1  0  0  0  0
 26 63  1  0  0  0  0
 29 64  1  0  0  0  0
M  CHG  1  29   1
M  END
> <OMEGA_C>
DPIdQWijuj+3+6rBude2QCR1XD47fa7Bq4rSQLP6Wr+UvLDBcNUVQaptIECwqqTBDgweQdwZED5P
/abBV6yiQLmYVL9Tgp3BnQEOQbzjaz/qU5bBxxa+QFrC8r+b6Z/BSiafQAwcbz7L1KTBc+3VQAyU
879eUqnBNcANQWlZD0DCWprBCwYWQUL7Ar4xrJzBJzDIQLu1SMAOXZrBsOTFQPVlR0A+HIzBu67S
QGtYikCw6J3BMenuQK0qqUB1IY3BeXGzQJqP+j8jmpLBJ9i9QIYtSUDVx6PBrKblQAbufUCO1pLB
UbanQK8Tb0DszK3BoPKEQMO6g8DpfZPBuQ0RQVq5xUBPdH/B62KEQFbTtj9U1qHBjziyQN6WacDM
cpDBT1nkQBKYcsDLKaDBJtftQH/zQ8BBKqnBX0YIQZtkU0D3u5PBnrgHQWoLoEDBH4XB7rueQNn8
HUAkfJzBpRQbQX+LL0Arq4HB8OwrQSPDjkAmm47B4jsWQUgFsr9h0ZjB20YZQQcMdEDsqonBYBck
QVXh1D/Y47LB/ZyzQBVYgz+XI7TBzuvkQHkZX79pDbjBjMwVQRYWYUCBuKfBJEckQd78Kb8+1qvB
H4aQQOkUU78SKJbBog0IQVnBNz/LYY7Btn2rQGudcEA3Z4nBNt3WQM1oLUBUHoXB+qPsQEvklkAg
9aLB80S6QOlJo0BZxJzBjND6QEYMwUC23pLBd7PRQA5KtUBRRInBzmTNQNQfoj/+ypTBHo+bQAlW
tj9gvo3Bv7vWQOSrG0DJTabBCiaYQMtnO0BcVrLBRIWPQL0Tj0DDTavBur6/QJVPh0AS4bLBIPBo
QPfWj8BMVIzBUrllQCFNUcBm1ZbBLh6HQN1hncBEfpnBpJUiQaOwwkC3GX/BEZsMQbLn4kAIHoTB
seoKQfylx0Cr/G7BETZsQIZS7T+pH6nBoaBVQOu/jT+0XJzBznDEQJvPj8DZHo3BSi+wQJ0oNsD7
dYrB7HoBQZMzVcBrxq7BekyKQPB0S0CNHprBiMQVQeUsFL6+uJzB3LG2QCclVT77nK7BFmDSQJVh
XL8m87DBkOMNQagOZz/hTJbBG9odQduFBz5NA6fBvNSjQPf5VL9Jhp3BhNkVQaDzH0AdiaTByyu/
QAq48r9EBKDB5qGfQB8TaT7z26TBmWbWQFjV8799hKnBWLwNQZFrDkBYQZrB3usdQXJYuj8656rB
Q3rJQPWkSMBVf5rBKNDFQJU8R0CdEYzBW+DSQBwHikCB353Bb+XuQPIDqUDxG43BmXCzQGjm+T92
i5LB3Oy9QHSlSEDyu6PBLLPlQDdxfUACyZLB07+nQNHEbkBfu63B+dKFQCBZgsAKbZPB0gARQRsa
xkBQln/BH6SEQI5BtT+tz6HB+K6zQHtIacD3iZDB/YvlQNNccsCoWKDBipXuQPvDQ8AkY6nBGEAI
QQFaUkAdn5PB8t8HQTQwoEBYLYXBn8yeQKltHUCpcpzBbqIcQR21MkB65IHBm6ErQdnkkECTP4/B
Gv4lQQ973T+DsbTBkrMZQRNGdkAx7onBkJ0VQa9llL9Hw5nBVQGzQHAbgj/BRLTBfT/kQGjUYL/r
V7jB0PcHQSi0MT8+W47Bu/4jQeNcK79466vB+zuSQBH5Ur+wFpbBG98VQUTIYEAniKfBuGKrQP6Y
cEBzaYnBD6XWQNdvLUCJC4XBK+/sQGVnlkBv6qLB2Y+6QAcXo0A0w5zBem76QGDxwEAg4pLBsL7R
QIn2tEAiL4nBIGzNQBhxoT9UtZTBYYebQKLQtT/ar43B8MDWQAUXG0DQR6bBgxWYQE06O0AkRbLB
sqKPQJj2jkBCNqvBqMW/QCEih0Bz0bLB5hJrQC9WjsArOYzBLWFoQAFnTcDun5bBZPSGQAPOm8A7
f5nBw5AiQaTMw0CejX/ByBgMQU0240ALF4TBGiQLQbGJx0D3AW/BaGBsQHPC6z+GE6nB1WVWQCks
iz/7U5zB3G7FQLw8kMAyWo3BD6uyQHNENsDleorBwckBQeHXVMAPCa/BW0SKQPfOSkCzG5rBCkQb
QdDLYL4I26HBzfW9QFwm4T7lerDB11DbQMB6H7/JobHB8XQSQd3jDj8vjZnBQaQhQS1xxj60gqvB
98KlQFsEAL/CbJ/BYQcXQS4QJEAwcaTBqvnEQMANwb+QXKDBMhajQFOIAT9lYafBZqfeQHbZyr/n
cqnB6lIQQT9n+j+yyJrBJaEfQSgN5D9Gx6zBWgXTQBfwJcAoTJnBFX/GQGhO8j/iKJDB4MnUQFfT
hECyQpnBcBfkQJI/c0B0SoXBLzSYQE+6EUDqLZPBcka9QCZnW0BnkaLBWjzkQADJSECwb5DBvmSx
QJN7jkBSVavBcUqWQOSQZcAV7I7BGaADQUkwwkACc4TBT7WEQPqQ1z/O/qXBekTCQJjLOcANOI7B
z0LxQPjuUMD2RZ7BS474QNZ/LMC1GajBbhoJQaUDL0DUKJLB5s8FQbjjkkD6kITBMlSVQJ2lL0BO
j57BZCUpQZCJTEBaVIXB2wEhQWN9nEAgTZTB/k0mQX7zF0CX67XB9QAaQaoxekAmRozB2yIdQQ2D
pL860KDBif67QIUzmj81j7bBi/7uQJuVMr+dtbjBR1INQTKNrD2DOZLB7g4oQc14W75I7bHBPQyQ
QGue/L4NtJjBEYwVQdl4aECGbqXBN7bGQMetuz+YDIjBTmvSQC2Nkj+r4ZXBmcrwQBTClUCmgJzB
nsy+QNINnEAzlpXB4gDIQLGQjkDAcITBOYLjQHMPQkBd/n3BBHKDQPj0sj8HJZLBpk6NQGxwRUCT
3Y3BPPLSQFtOK0AVBqbBgMKgQCoVfEDy6LHBZUecQHsep0Dd66fBza/OQDyjnUB8aK7BJo6KQOSS
c8AD0IbBmih/QCnVOsBAAZPB30SZQFbOkMCQdJPBAPkPQQ160ECCmonB7V/nQKsjy0Dqb4fBP5cF
QYMBzkDXb3jBQG1+QHH2CECZ4q3BinNMQLVMpz+WyqLBgtzYQOemZMCgHYrB8Cu/QMe++79QqonB
bMQGQQUoQsA5gK3BLbB9QFYvXUDiiZ7BpI8fQUNXsj9whKnBr3qZQE1TyD2cTrHBVF2xQMaqeL+4
h7XBp1cXQTC7F0CriqLBWN0eQd7UED1DnabBju6rQCaiGL/RGJ/B4T8NQbDFIT9kz5XBXbrCQJG/
178obaPBI6mXQO+zoT5nHqbBaPjFQFE17b82ea7B6YINQWtm/z/xzZjBmh4WQTVZr77Ir5zB02La
QMo4M8DDqJ7BX9u/QFsOXkDX0IzB4WTaQPAEhUCwJJ/BswL4QFIQqUAS0o7BFmOqQGRvEEBjJZLB
rwDCQAnzPUAnRKTBFb7nQHw9fEAUPpPBKNizQMVPXEBGiq/BQEq3QI9/bsB7OY7BK7sSQcqIwkAq
M3/Bgd1/QMogxD/j2aHBOurfQC2cRcD715LBCXTqQK6TYcCce6bBu9PeQOmTPsD8HbDBO2YGQahN
PkAgnZHBzk4IQetbnkAWQIXBucKcQJ59JUCXP53BWcMWQVxpKkA40XzBT/ArQe0CfkD5tozB0gEX
Qahz0b9CppnBIbEXQQntY0A3sofB8WYmQb/G1z89GbHB0mCIQGYbQj9GpLbBzM+zQNxJjr85E77B
/YwYQeObWkCko6TBAwglQSl3N7+j/qvB0vWpQAg4675tipbBm0UGQbnVqz4IRY7BxaioQKpyiUDg
Y4zB1ebJQH48TEBgroTBCZP3QGy9ikA+2qPB56rFQH5toUApiJ/BvD8GQRckuUC2vZTBAvLcQHwB
vkCGwozBmD7BQG7dtT+SY5LBNyiOQGdo+z+QcI3BgufXQAI+B0DCGaXBrkSiQJ+LKECdkrPB+fme
QJdUikBSwq7Bi0DQQGhIbUClSLTBsey7QBBae8B/poXB5R+cQOiKQsBoSY/Boq2wQIB2lcAWbZLB
jnkjQf9EukAusHvBST4SQX0430CmsYTBMzMKQTHyyECqJHDBbDFbQA5Q/T9KdajByZtTQIt6mT9D
jJvBV//6QCm1ccDfvZHBmXHmQBFTCcAxmo7Bwx7nQOm9VcDgR7fBgciKQP42WkC8pJzB/TwWQWFP
nL76r5zBxxCaQM20ljwQ0rDB6G2yQH3ohL/yErXBZ50NQY4yLT8Z0pXBP/seQcpXhT3lpabBF9Wu
QJgqIb8VqJ7BR4MXQS77GUB1q6LBdlDGQDoG2r++AqPBPROZQDJZgT69paXBb4LIQPvd8b/0Da7B
lN8NQUZZAkCa4ZjBd6cfQW05tj9jn6nB69vfQBLuMcAxSJ7BUGfAQLQoXkB1w4zB9I/ZQMmnhEBc
QJ/BvTL3QD0tqkBNIY/BDoOrQOsWD0Ar5ZHBGJvBQGHGO0AxK6TB0p7nQPJbfUDHXZPBD2+yQHlz
WEAmbq/BZzq/QK0EbcDFio3B5n4SQc1XxUBVKIDB/LeAQGBwuj++XqHB0vPmQMadQsDrfpLB4IHv
QJGdYMCoH6bBKCjiQEa9P8ANvK/BhrMGQfY1QUCwwpHBfk8IQeZ1oEABoIXBiQqdQKRmIkCi+pzB
9NsXQUSuMEBKZH3B7gYsQaBmgkAAUY3BAmgoQbY95T9bE7PBPx8YQeFgaUB1EojBMiMWQY3yq7+e
TZrBY/WHQDIZKD/QHrbBFh+0QHSimL94nb3BBNAGQXfExj57OI7BjSclQVnZML/O/avBDHatQFzM
9r68GpbBdKMYQcLBXEAm1KTB46moQB4EiUBaWYzBywzLQKmkTUA6ooTBM2f2QBWhikAFEqTBGU/E
QO+poEC1rJ/B0XoFQZxsukCoLJXBr83bQKicvkAkBo3BTvHCQL4stT+8IpLB08KPQCMz9z+GD43B
fgHYQMPjBUANA6XBziChQMuZI0A+ULPBfQ6dQDAEiECSpq7BvFzOQK0TakD/T7TB/eHEQC+5eMAB
+4TB53CjQL98QsAdgI7BxOy4QF0YlcBCmpHBC2IjQavqvUCqB33B4IQRQZXF4UDeUoXBTyIKQXGz
y0B1KHHBOClbQHXB8D/o7afBQJpWQKi3jj978ZrBqlYBQRFDbcAogZHBdzHtQBePBcADZ47Bbtrp
QPWEV8CF6LbBL4OKQMZeVkC9ZJzBQKEgQQCJ0j8hWqrBhKmlQFDhcr3S/K7BVrC7QJiEor/FuLDB
aEIYQZJjI0Cx1aLBLlMfQfvWhD5FcajBYAagQAoZFL9I45vBqv4MQWk6MT8+hZfBaWu2QMOS479z
tZ3BbQaYQKz3lz5nkaTBxefDQJmDB8Cq/KfBWOANQSFGBUDIg5nB0rkVQX4BX74I+p7BGvXDQOk1
OMDYvpbBHsG/QKrmXEAd14zBx4TaQKwNiEDv3J7Bud/3QNyPqEAA8I3BzGSqQInTEUCbpJLBMNTC
QNjiREC1baTBjb3nQGCRfUDoBZPBJvm0QL8VZEApr6/BeEznQJ6QJcDC64TBuOMRQabMvUDJBHzB
RjiBQM5pzz+4vaLByuS9QMkPP8C8xIrB87vXQDI7ccCgtZzBNSPYQJbsVcA/JKfBxmkGQSLxPkDP
yZHBWt0HQThIm0BmboTBI0+dQP4vKkAUsJ3Blq8WQdWBIUDXhn3BGL8rQY2cfUB/RozBGhsVQasp
xr9oBZ3BAIgXQXH0X0C/iofBpw0oQTmtAECtlbHBMyefQIyGGT/torXBUyHGQO14xb+5qbjBmcYZ
QTJhZ0BeMaTBR60lQSH6376FOq7BLQqVQBrSp7798ZPBoqAFQYN4pj4vR5DBXpKoQJDGiEB9G4zB
6KnJQBzUR0BK0YTBsKn3QIgvj0DudqPBvVDFQFEmpEDA7J7BRXAGQczbuUBFhZPBWsvcQMssvUCS
sIvB2RzBQKBVuD+pFJPB19+NQLLo+z9ZH47BqhLZQM/KDkDVUaXB5AmkQK83MECE3bPBqZefQAfQ
jUCc3a7BanbRQNKRdkCxTrTBX3HiQCbVKsC/dXjBGbUAQaV0UMBdYofBO6fvQKJWxr8v+IbB8Jci
QYFGtUATeXjB3HsRQSnu20DpjYLBlAUJQfPMwUC68mzBBQBsQFUWAEBigarB4C1LQPfbuD9ueZ3B
QtajQMkjFMBLRojBOJm1QI62gMB5sIjBDCvlQDwOdsDPPq3BQBWLQCNsXkDj6JzB+BwVQTvmab5j
8Z7Bl8elQHKqfr2s/a7B9Mu7QF/9or93srDBR6UMQYlmLz8CdJfBIdweQZV7ej5SZKjBoPCfQMXn
E79545vBPkgYQX2oIkDutaLBu1S2QAWS479brp3BjBCYQF6/lz45laTBNe/DQIKhB8AT8qfBg9UN
QbjFBEDGaJnBoGogQSba0D+SRarBiMTDQBglOMA9spbB0bO/QNkNXUAP24zBqsbaQLvph0B43p7B
lPv3QKqBqEBa743BuFmqQHn1EUDkqJLBUA7DQC+nREBvcKTBjNDnQBxwfUAdApPB5V21QIHIY0As
tq/BUtnmQAS6JcD51YTBJ+oRQXrMvUAHAXzBa1KBQBOOzz8HyKLBh369QMftPsCOuYrBHqPXQLY0
ccBropzBAy7YQCsBVsDtEafBrmUGQb6lPkBQt5HBGOEHQXJDm0CKaYTBXm2dQL81KkCSuJ3BoKUW
QbyDIUCrYX3Bn78rQeQ2fUAcO4zBqtYpQcsGBkAqSrPBToUXQcfJX0DhfIfBnCEUQfkkpb/CcJ3B
iFafQJx1GD/pprXBY0rGQHk0xr8oobjBej0FQY6NpD6iNZDB5h8lQQbs6L50Lq7BIt2UQBS1pr7x
9JPBDwkaQQKdZkBNBqTBi5CoQFToiEDcKIzBAnfJQHcUSEBU0YTBUgH4QIPsjkDRcqPBLafFQHMR
pEDv9p7BPIYGQYO6uUCGhJPB0+vcQLstvUAotYvBpAfBQIRvuD9EEZPBtsGNQBJ+/D9hKI7BvD7Z
QDlxDkDzTaXB32qkQGDyL0Ac5bPBSwugQO23jUBH667Beu7RQLESdkBYUbTBWtfhQAvxKsCuTHjB
g3YAQXjQUMBrRYfB9VvvQDvLxr+x4IbBV5siQQc8tUBJbXjByYsRQZ3k20AbkILBrQcJQVHkwUAc
82zBfGRsQI0gAEA/jqrBCURLQAdNuT9qh53B4XmjQHbPE8BEQojB8wq1QCidgMD/pojBr07lQCAu
dsA6KK3BlD+LQOiIXkD395zBxfweQUJd5j8Q7KzBuPa9QL/N4T4ZfrDBO6/aQL8KI787u7HB458W
Qbr8JEDTgaTB91shQV120T4cpqvB79ilQP0C/L6UZ5/BU64SQYgpEj+Ck5nBTonEQIbCwb8Ua6DB
lT2jQD1VAz8WXqfBz4ndQBbKzb9ym6nBYkwQQbnN+z8DzJrBsmsbQU7sTb7e76HBdFLSQB/KJsDn
ZpnBRIbGQCbJ8j8IJJDB0cLUQIIEhUDhNZnBHRLkQPhZc0DZP4XBXz2YQD74EUDhK5PBj1+9QJPQ
W0CaiaLByjrkQD4PSUDwZpDB+omxQBexjkBuTqvB3S6WQM1cZcD1x47B9ZIDQZxFwkDqaYTB4eGE
QMB92D+S/6XBcDrCQFG6OcDUPo7BJTTvQOP0U8C7kZ7By9X1QFRgMMDSeqjBCRkJQQZVL0CUIpLB
6cgFQSH6kkDbhYTBX2yVQEMCMECQjJ7BfxwpQdOjTEBWSIXBiAMhQQiYnEAWQJTB770eQbv0wr9v
haDBY/0ZQb1kekCOOozBRZQjQVBOEUAOWrTBW168QJ1Cmz+bhbbBmj3uQN1PN7+s07jBkggVQdxg
aUAeeaXB47cnQUI1Qb6lGrLBhXeQQIbd8r4xnpjBj8sNQcwnwD1XOJLB8LXGQDMOvD9tCIjB/3vS
QJogkz8w3ZXBYL3wQOANlkBsbpzBAbC+QEsnnEAeiJXBWfXHQHGTjkDtYoTBQIjjQOQTQkBm7n3B
I3yDQGdksz8jJ5LBZ06NQDqeRUBN2o3BVxjTQN/CK0CX+6XBTP6gQCt8fEBL5bHBsFucQFJLp0Cg
56fBE9jOQOvjnUBTXK7BBM6KQJTScsARoIbByad+QLLKOsAP15LBp+WYQGDZkMCjQ5PB1OkPQTyS
0EAikonBH0PnQKAuy0ATZ4fB14gFQY0dzkC1XnjBnft+QP95CUC/463BErVMQPBEqD+60aLBY//Y
QFtjZMDDK4rBoW2/QJj2+r8vv4nBZrIEQRokSMBKEq7BeNt9QP6GXUBVh57B7mIhQSuNDEDlda3B
AFnBQJL2iz6tsa3B12TYQM7Ab78k1KzBJsAYQbnYOECBpaTBvAojQazASj/nNa3BJXGUQI0HzL4g
jZ7B/n0TQWxqRT9dR5vBVgCtQI7VyL/Jcp3BnjufQKDHCz8okqbBOzHOQLiD678GkaTBFrYRQeaH
C0ASfpvBmhkcQUgSoj10H6TBnMarQI1dLMC47JXBNz/IQMUa+j8FVJHBHwvWQHsyiUAaL5nBWtTj
QEw/ckDpVIXBc/6ZQM2gGEB6/JPBZvO+QFIYaEAJ36LBCnnlQF6yTUBvzZDB4MWyQB/alkDJG6vB
gkGmQHbqHcBEAYLBE2UCQfQtwkAm/oLBBouHQFQW8D+1JKfBX4yOQKakNsBIWYzBC/LJQFa5YsCi
tZjBIBLfQFYERMB9i6HB6fAJQY0vN0BheJLBhEUFQQYsk0CM9IPB3jaXQKfDOUBCPp/BKF8pQVWb
UkD9JYXBtrcgQdnQokAwP5PBoKodQcObor8M56PBDAkaQZ3QgECO1ovB5L0mQbuHL0AyarTBUcLJ
QCnHfT/ey7PBOZjxQEJflb9IcrLBFH4XQV/CfUCQ36TBk6ApQVH2hT6E+rPB4A5zQP5qYb5zUpnB
5z0OQbGDYz4TUZTBXLvIQLMkuD/3jYnBEA7UQAgFoz/SlJfBsgTyQCALm0DQHpzBNMW/QP9in0AD
OpXB5xrHQN4MjUD8TYTBcWPjQIvVPUBV6n7Bh5KEQOtlwj83HpPBwhGQQMlcS0CfaY7B+/TUQE1O
OkDsqqbB0nSiQHjqh0Ar9LHBCkmdQINKrkCMVafBUenPQF8jp0Cf5q3BKqmQQHavJcBkP3bBA1fC
QFmPR8Ar+4DBeLiwQDumtb/KhILB0rUOQfSg0kB5v4fBTOLkQKUay0A994XBXuUDQfqiy0BnGXXB
i2uLQCA/EkDgQK/B4NZKQPEw2D9OlaXBDehkQGH5DMBLVo3BkRKEQJy1ecCszIvByin3QLDfYcBD
QqXBwFqAQEuGZkCEDp/BEg8cQdgcgz14CKTBbGnBQDzWij45qK3BIHLYQH9ZcL+nwqzB2F4TQVgW
Qj88OpvBOy4jQasQRj/iGa3B7UaUQHy3y75ZjJ7Bn+IYQarhN0AzlaTBjsCsQBXxyL+nbZ3BVzOf
QAGhCz98kKbBsQrOQBDS678ChKTBCq4RQdO3CkBIdJvBL6chQeZ9C0BvW63BPl+rQBBnLMCZ55XB
6SbIQJDs+T8oUJHBPTPWQFQViUBuL5nBLuXjQB0XckBtU4XBXfOZQDHAGECF/ZPBnRS/QAr0Z0Cy
36LBv37lQLlvTUDFypDB6QKzQKLNlkBSHavB4tClQP/fHcAx/YHBcIsCQbMBwkBpAIPBkZSHQCwp
8D/cJqfBWxaOQJR1NsAuVozBc4HJQE/nYsBtq5jBC8neQBZDRMBxfKHBle4JQWGdNkDEcpLBZlkF
QXT5kkAm84PBJEaXQKPOOUDrQJ/BGmMpQXrDUUDZIYXBYdIgQUZookAMPZPBQK8oQcxwN0AXALbB
2BUaQTd2gECE04vBJkIdQVysgb8y1KPBLujJQD7ufD+zwrPBUsjxQOCklb8dV7LBe/wNQWv0Vz5J
SJTBU80pQbt/dj7e2LPBkqhyQMzKXr6nVZnBfqcXQY3MfEDM0qTBPI3IQGIiuD+SiInBBe7TQIWQ
oj8JjpfBij3yQLDVmkBeHpzBvfq/QINan0DjPJXBWDzHQFoSjUCZToTB+VrjQLW5PUAw5H7BFnSE
QM7gwj82H5PBow+QQGOVS0BCbY7BDAvVQB4OOkBaqqbBsqyiQP7mh0Aq9rHBt5KdQKFMrkBEWKfB
mDLQQIsDp0Ay563BnTCQQNh4JcDQOHbBftLBQPK3R8CR9YDBFGewQMK4tb/zgILB0uIOQVZb0kDm
wofBTzblQN4Dy0BW+oXBLA8EQdJ+y0BfH3XB+IKLQLQ3EkB1Q6/BzuFKQDeB2D9hmaXB9yNkQGqX
DMADVY3BZn2DQPtyecChyYvBteP2QHA4YsC4LqXBVnWAQEipZkDYFJ/B

> <OMEGA_E>
/DztPugi4j7G8DE/pD4nP9BmJT/cJCM/4icfP75BMz9SVjw/PEk9Pw==

> <OMEGA_NBR>
     68202

$$$$
50220593
  -OEChem-04172616093D

 62 65  0     1  0  0  0  0  0999 V2000
    9.9572    1.4113  -21.4165 C   0  0  0  0  0  0  0  0  0  0  0  0
    5.1153   -0.7659  -19.6774 C   0  0  0  0  0  0  0  0  0  0  0  0
    5.6968    0.2523  -21.8192 C   0  0  0  0  0  0  0  0  0  0  0  0
    9.4742    2.4332  -20.5800 C   0  0  0  0  0  0  0  0  0  0  0  0
    5.9320   -1.8710  -19.9828 C   0  0  0  0  0  0  0  0  0  0  0  0
    6.5253   -0.8322  -22.1141 C   0  0  0  0  0  0  0  0  0  0  0  0
   10.0717    0.0953  -20.9246 C   0  0  0  0  0  0  0  0  0  0  0  0
    9.2545    0.8295  -18.7509 C   0  0  0  0  0  0  0  0  0  0  0  0
    4.9941    0.2926  -20.6011 C   0  0  0  0  0  0  0  0  0  0  0  0
    9.1138    2.1366  -19.2518 C   0  0  0  0  0  0  0  0  0  0  0  0
    6.6617   -1.8905  -21.2015 C   0  0  0  0  0  0  0  0  0  0  0  0
    9.7211   -0.1914  -19.5893 C   0  0  0  0  0  0  0  0  0  0  0  0
    8.3983   -3.5959  -20.7058 C   0  0  0  0  0  0  0  0  0  0  0  0
    6.3880    2.2105  -17.8440 C   0  0  0  0  0  0  0  0  0  0  0  0
    6.6596    4.1525  -19.5247 C   0  0  0  0  0  0  0  0  0  0  0  0
    7.1655    4.5197  -17.0766 C   0  0  0  0  0  0  0  0  0  0  0  0
    4.9204    2.4007  -18.1983 C   0  0  0  0  0  0  0  0  0  0  0  0
    5.9363    3.1270  -20.4024 C   0  0  2  0  0  0  0  0  0  0  0  0
    7.2059    3.4871  -18.2275 C   0  0  1  0  0  0  0  0  0  0  0  0
    9.7894   -3.9664  -21.2249 C   0  0  0  0  0  0  0  0  0  0  0  0
    5.5000    3.8239  -21.7055 C   0  0  0  0  0  0  0  0  0  0  0  0
    8.7546    6.1654  -16.0675 C   0  0  0  0  0  0  0  0  0  0  0  0
    4.0690    1.4517  -20.3238 C   0  0  0  0  0  0  0  0  0  0  0  0
    8.6497    3.1421  -18.4240 N   0  0  3  0  0  0  0  0  0  0  0  0
    8.4886    5.1375  -17.0902 N   0  0  1  0  0  0  0  0  0  0  0  0
    7.5769   -2.8768  -21.5642 N   0  0  0  0  0  0  0  0  0  0  0  0
    4.7295    2.6091  -19.6675 N   0  3  1  0  0  0  0  0  0  0  0  0
    8.1546   -3.7284  -19.5119 O   0  0  0  0  0  0  0  0  0  0  0  0
    9.6734    3.0713  -16.0470 O   0  0  0  0  0  0  0  0  0  0  0  0
   10.8393    4.4243  -17.9288 O   0  0  0  0  0  0  0  0  0  0  0  0
    9.8634   -1.4365  -19.0940 F   0  0  0  0  0  0  0  0  0  0  0  0
    9.6407    3.9013  -17.2596 S   0  0  0  0  0  0  0  0  0  0  0  0
   10.2401    1.6344  -22.4346 H   0  0  0  0  0  0  0  0  0  0  0  0
    4.5831   -0.7289  -18.7383 H   0  0  0  0  0  0  0  0  0  0  0  0
    5.5953    1.0615  -22.5272 H   0  0  0  0  0  0  0  0  0  0  0  0
    9.3800    3.4416  -20.9550 H   0  0  0  0  0  0  0  0  0  0  0  0
    6.0036   -2.6998  -19.2941 H   0  0  0  0  0  0  0  0  0  0  0  0
    7.0643   -0.8571  -23.0497 H   0  0  0  0  0  0  0  0  0  0  0  0
   10.4280   -0.6934  -21.5706 H   0  0  0  0  0  0  0  0  0  0  0  0
    9.0034    0.6136  -17.7229 H   0  0  0  0  0  0  0  0  0  0  0  0
    6.4805    2.0310  -16.7626 H   0  0  0  0  0  0  0  0  0  0  0  0
    6.7856    1.3452  -18.3946 H   0  0  0  0  0  0  0  0  0  0  0  0
    7.4997    4.5819  -20.0903 H   0  0  0  0  0  0  0  0  0  0  0  0
    5.9556    4.9519  -19.2503 H   0  0  0  0  0  0  0  0  0  0  0  0
    6.3836    5.2721  -17.2570 H   0  0  0  0  0  0  0  0  0  0  0  0
    6.9795    4.0213  -16.1138 H   0  0  0  0  0  0  0  0  0  0  0  0
    4.3600    1.5060  -17.8892 H   0  0  0  0  0  0  0  0  0  0  0  0
    4.5346    3.2791  -17.6603 H   0  0  0  0  0  0  0  0  0  0  0  0
    6.6178    2.2968  -20.6397 H   0  0  0  0  0  0  0  0  0  0  0  0
   10.4101   -4.3226  -20.3896 H   0  0  0  0  0  0  0  0  0  0  0  0
    9.6992   -4.7615  -21.9796 H   0  0  0  0  0  0  0  0  0  0  0  0
   10.2589   -3.0813  -21.6790 H   0  0  0  0  0  0  0  0  0  0  0  0
    4.9776    3.1022  -22.3507 H   0  0  0  0  0  0  0  0  0  0  0  0
    4.8241    4.6582  -21.4665 H   0  0  0  0  0  0  0  0  0  0  0  0
    6.3869    4.2093  -22.2298 H   0  0  0  0  0  0  0  0  0  0  0  0
    9.7059    5.9429  -15.5620 H   0  0  0  0  0  0  0  0  0  0  0  0
    8.8171    7.1530  -16.5480 H   0  0  0  0  0  0  0  0  0  0  0  0
    7.9391    6.1677  -15.3294 H   0  0  0  0  0  0  0  0  0  0  0  0
    3.6450    1.7921  -21.2800 H   0  0  0  0  0  0  0  0  0  0  0  0
    3.2591    1.0986  -19.6685 H   0  0  0  0  0  0  0  0  0  0  0  0
    7.6495   -3.0876  -22.5391 H   0  0  0  0  0  0  0  0  0  0  0  0
    4.0616    3.3506  -19.7310 H   0  0  0  0  0  0  0  0  0  0  0  0
  1  4  2  0  0  0  0
  1  7  1  0  0  0  0
  2  5  2  0  0  0  0
  2  9  1  0  0  0  0
  3  6  1  0  0  0  0
  3  9  2  0  0  0  0
  4 10  1  0  0  0  0
  5 11  1  0  0  0  0
  6 11  2  0  0  0  0
  7 12  2  0  0  0  0
  8 10  2  0  0  0  0
  8 12  1  0  0  0  0
  9 23  1  0  0  0  0
 10 24  1  0  0  0  0
 11 26  1  0  0  0  0
 12 31  1  0  0  0  0
 13 20  1  0  0  0  0
 13 26  1  0  0  0  0
 13 28  2  0  0  0  0
 14 17  1  0  0  0  0
 14 19  1  0  0  0  0
 15 18  1  0  0  0  0
 15 19  1  0  0  0  0
 16 19  1  0  0  0  0
 16 25  1  0  0  0  0
 17 27  1  0  0  0  0
 18 21  1  0  0  0  0
 18 27  1  0  0  0  0
 19 24  1  0  0  0  0
 22 25  1  0  0  0  0
 23 27  1  0  0  0  0
 24 32  1  0  0  0  0
 25 32  1  0  0  0  0
 29 32  2  0  0  0  0
 30 32  2  0  0  0  0
  1 33  1  0  0  0  0
  2 34  1  0  0  0  0
  3 35  1  0  0  0  0
  4 36  1  0  0  0  0
  5 37  1  0  0  0  0
  6 38  1  0  0  0  0
  7 39  1  0  0  0  0
  8 40  1  0  0  0  0
 14 41  1  0  0  0  0
 14 42  1  0  0  0  0
 15 43  1  0  0  0  0
 15 44  1  0  0  0  0
 16 45  1  0  0  0  0
 16 46  1  0  0  0  0
 17 47  1  0  0  0  0
 17 48  1  0  0  0  0
 18 49  1  0  0  0  0
 20 50  1  0  0  0  0
 20 51  1  0  0  0  0
 20 52  1  0  0  0  0
 21 53  1  0  0  0  0
 21 54  1  0  0  0  0
 21 55  1  0  0  0  0
 22 56  1  0  0  0  0
 22 57  1  0  0  0  0
 22 58  1  0  0  0  0
 23 59  1  0  0  0  0
 23 60  1  0  0  0  0
 26 61  1  0  0  0  0
 27 62  1  0  0  0  0
M  CHG  1  27   1
M  END
> <OMEGA_C>
oFAfQdCktD/3VKvBhLCjQNsTRL87a53BmEy2QFYwgT6sja7BJpYXQZm5G0DYo6TBRNO9QGx777/R
3J/BEM/QQOEHVb/G6bDBqCUhQdhEwz2OZafBURIUQftbVD/IAZbBENCfQGrLlT4Hz6TBItIRQXO+
CECYA5rBfizVQLf88b+0nKnBy4kbQcgFRL72tpzBS18GQZEiZsB1paXBkmrMQD54DUBpwI7BphvV
QA7hhECOMpzB1EvlQMKhkEDdnIjBUHSdQMakGUAXlpHBfva9QEIhSEAmOKPBjJbmQP4sX0D60ZHB
R6EcQeLYfcCIzKnB9v+vQN66dEDqpK3B+RIMQeZKxUBKioDBMDWCQLbQuT8hl6LBVWUKQWwYSUBC
ZJPBe9EHQbNmpEDLuIjBVnbyQKAdOMCEg6zBFFiXQPX7JkASV53BQHkCQX+dbsBPGJzBOsYaQSqQ
REBMYIDBqm0tQR+UjUAZbo/BU9AdQeret7+cwJjBVEAaQTqveUC5E4rBZNcjQdM00T8UerPBZqiS
QAGbOr8g6JXBCQ2zQP/fhz+xN7TBahQWQX9DXEDZo6fBeR3AQOnILMBKWprBuA7iQHFsW7/CZbjB
INkmQfyDMb+EkKzBFQ4QQfoXHT9yyI3B21/PQGf7AUDiGYbBhCPZQGgurD8ZKJPBPP3vQI2ekkAF
uaDBaZS+QAB2nkCjAJrBtEbMQHC1qEBrDorB1FffQCiugEAj6YDBV4WLQDfGwD//HI/BUxuRQEPd
UUBGSI3B5MTTQDH+EkAPHqXB0o8mQQNTisDNHaPB5C8bQd5dmMBR1q/BZCQkQbgzRcB/bq3BLUif
QOuKRkA5zrLB6F6aQLEPlUBLu6vBiWHMQECyhkCv1rHBaUsbQesrvkD6/XjB7xINQfjk5EA9YoTB
4gz+QLZdxUAjRXXBHEdpQHRi5T9zParB2ZRQQMKdjD8rWZ3BdMj0QHibRcD6T7TBV/iBQMJwVkAe
2Z3Bo+QaQaDevL3NKKDB1JiZQCYaHb/1Kp3Bzua8QHDMED7kf63BvEsTQQz0Rz+tNJjBMeGwQC0p
578PeZ3BZHvUQLQPh79Zz63BZ04hQUDX1j6pKKrBhDQYQWU9K0AOTqTBMHmfQBiNtz7hIaXB3rkR
QT9wCkAfUprBNRLPQKToAcDbvaXB4gwgQeTy5j+eNKzBXqrzQJpagMCWoJ3BJEzKQF14CEDFM4/B
aW/WQCxZhkAkN5vBH6TkQO6kikBnW4fBKxCcQAdxGEC1mJLBE4/AQI1wUEDwOaPB6xPmQHEDWkA2
L5HBLYkPQRSxlsD6up3BIa+0QLxpgUBKYa3Ba30KQcw+wUCWOX7BivWEQE6bzj+Jt6TBmAgKQakt
QUB7eJLBC5AGQSLuoUCbvIfBAcvqQMoPSMBp+aXB+biYQAHlLEDOTJ7BGoXZQKpRisA7v5bB0HUf
QYmNSkCnyIDBpgQrQf5ak0A2/5DBKogmQXE3E0DJubXB2JcaQU34fEBnZ4rBq88bQf6Yk7+Fm57B
vf+CQDgP4b7px5bBYU7BQMm3Yz8ForPB4qkOQZ2syT7QepDBqtyrQL+0I8A+ZpfBddfqQFB1nb9h
P7TB2DEnQZubf76FRLDBgiUXQUkQb0BL4qXB+BfLQLuO8D/0o4bBtmnXQGPMpT9Z4JPBSRTyQJik
lUCHGJ/Bw4O/QEkQn0AarpjBbGnJQHHZoEC/44fBKC3iQMi8b0DB4H/BgBCJQPF1vT9E6ZDBCESP
QP6RTkDI943BuIzWQKwfHED9VaXB1kIQQbsJrsCJJ5fBybMRQcNWp8BzaKXBWUwcQaeafcCTtJzB
DAClQO3FV0A3IrPBRrWeQHuVm0BVRavB4dvRQDHKjkBh/rDBf4QaQWn+u0CycXfBc30JQVrc4UBf
YoLBQMT8QK44vUAcnHHB+VyAQHRH/T+E8KzB32RLQBIdrz8ML6HBh/X5QFfjUsAz46zBTKiDQGv8
XEC3qJ7BzO8gQadlEUBg/a3B4TOYQGHjDb+hM53BqV7FQDmGxD38M6zBGzQYQTsVPkASO6XBpSKx
QPyx2b9xkpvBp5/dQHGBir+OzarB9AokQb0QYT9mXq3B2rwVQX/jYT/eLZvBKJKiQGhcuj7iWKXB
k4ASQY/jEUC2w5vB1mDUQPlg/b9nWaLBrHQeQR5+PD4F96PBaTftQEEwhMDHg5nBTqTLQNkd9z/9
2ZDBSg/UQMgoiEACWpnBfjvlQFbcdkAMhoXBBmScQMfiEECxTpPBSlC9QIsVYUDqtqLB9oDmQCCf
T0Ci25DB3gwHQThEqMD2VprBexuuQN2EkUBhGqvBO+cAQRu0xkCKGoTBeDGJQBUK1D+lSabBc6QK
QeIvPkDbz5LBVTIFQaoFmEBssoTBHHLuQKi/R8AeT6HBYH+XQDgBL0BSq57BOxrWQCAMg8A9mJHB
S3AqQZL9ZEClKYbBoxsfQcPKqEAslJTBDXAhQb3Dk7/0YaPBsfkZQYYfh0DHxozB90AlQQOEM0Dk
L7XBg315QBO1vr4LKZjBJ3HNQOtASj/igbLBLdgVQZ43gUBpvaXBr3KpQOgUGMBQHJXBh4n3QASY
pr9NPrDBwbMqQd0esD4gGLTByYQRQZrMsT4T+pPB6uLNQD+9uT+Y84jBrBbYQH6Fnz+c/5bBTonu
QKBam0B3m5zBOeG8QGtgnUDwYpXB+nPHQEeljUC+ZITBdUDnQL8PREBz537BocmIQPhprj92G5LB
WXuRQPifQ0DB2Y3Bc0bUQEIvNUCNgabBauEFQVzuvMBiPZPB/uADQT1Pu8CgkaHBmjkXQTqEmsCC
zprBJAeeQAfKgEBkuLHB95uXQM4HqEAFWKfBY9zJQKA6o0CGN67BcFoMQevq10B/N4nBdwbhQF4t
zUD03obBnKgCQRKZ0UBWkHfBr5SMQKVLAkAhga7B+qlOQJd5tz+NraTBh4ICQZSKTsBR6qbB4q1+
QCPzWEDve57B

> <OMEGA_E>
VI8iP1jfJD9eyUw/

> <OMEGA_NBR>
     71530

$$$$
50220680
  -OEChem-04172616093D

 52 55  0     1  0  0  0  0  0999 V2000
    6.4761   -1.8921  -21.6753 C   0  0  0  0  0  0  0  0  0  0  0  0
    5.9411   -0.8932  -22.5132 C   0  0  0  0  0  0  0  0  0  0  0  0
    6.1729   -1.8944  -20.2994 C   0  0  0  0  0  0  0  0  0  0  0  0
    7.5768    5.4246  -15.2794 C   0  0  0  0  0  0  0  0  0  0  0  0
    5.1167    0.1127  -21.9718 C   0  0  0  0  0  0  0  0  0  0  0  0
    5.3422   -0.8936  -19.7592 C   0  0  0  0  0  0  0  0  0  0  0  0
    7.9711    4.3474  -16.0967 C   0  0  0  0  0  0  0  0  0  0  0  0
    7.5660    6.7352  -15.7965 C   0  0  0  0  0  0  0  0  0  0  0  0
    8.3489    5.8927  -17.9501 C   0  0  0  0  0  0  0  0  0  0  0  0
    4.8323    0.1313  -20.5870 C   0  0  0  0  0  0  0  0  0  0  0  0
    8.3554    4.5762  -17.4390 C   0  0  0  0  0  0  0  0  0  0  0  0
    7.9512    6.9693  -17.1325 C   0  0  0  0  0  0  0  0  0  0  0  0
    6.9921    3.6742  -20.0614 C   0  0  0  0  0  0  0  0  0  0  0  0
    6.8707    1.8445  -18.2364 C   0  0  0  0  0  0  0  0  0  0  0  0
    8.7558    1.8364  -19.9628 C   0  0  0  0  0  0  0  0  0  0  0  0
    5.7985    2.9185  -20.6581 C   0  0  0  0  0  0  0  0  0  0  0  0
    5.4363    2.4276  -18.2005 C   0  0  2  0  0  0  0  0  0  0  0  0
    7.8201    2.7294  -19.1224 C   0  0  1  0  0  0  0  0  0  0  0  0
    4.5568    1.7098  -17.1480 C   0  0  0  0  0  0  0  0  0  0  0  0
    4.0127    1.2733  -19.9991 C   0  0  0  0  0  0  0  0  0  0  0  0
    9.7558    1.3354  -19.0152 N   0  0  0  0  0  0  0  0  0  0  0  0
    8.7637    3.5211  -18.2634 N   0  0  2  0  0  0  0  0  0  0  0  0
    4.8289    2.4768  -19.5925 N   0  3  2  0  0  0  0  0  0  0  0  0
   10.0625    2.0164  -16.5260 O   0  0  0  0  0  0  0  0  0  0  0  0
   11.3654    3.2821  -18.3542 O   0  0  0  0  0  0  0  0  0  0  0  0
    7.9417    8.2276  -17.6299 F   0  0  0  0  0  0  0  0  0  0  0  0
   10.1731    2.5632  -17.8853 S   0  0  0  0  0  0  0  0  0  0  0  0
    7.1185   -2.6560  -22.0879 H   0  0  0  0  0  0  0  0  0  0  0  0
    6.1631   -0.8989  -23.5702 H   0  0  0  0  0  0  0  0  0  0  0  0
    6.5776   -2.6639  -19.6588 H   0  0  0  0  0  0  0  0  0  0  0  0
    7.2826    5.2458  -14.2558 H   0  0  0  0  0  0  0  0  0  0  0  0
    4.7005    0.8723  -22.6168 H   0  0  0  0  0  0  0  0  0  0  0  0
    5.0942   -0.9097  -18.7082 H   0  0  0  0  0  0  0  0  0  0  0  0
    7.9801    3.3438  -15.6977 H   0  0  0  0  0  0  0  0  0  0  0  0
    7.2626    7.5605  -15.1695 H   0  0  0  0  0  0  0  0  0  0  0  0
    8.6498    6.0749  -18.9712 H   0  0  0  0  0  0  0  0  0  0  0  0
    7.6382    4.0332  -20.8760 H   0  0  0  0  0  0  0  0  0  0  0  0
    6.6242    4.5323  -19.4798 H   0  0  0  0  0  0  0  0  0  0  0  0
    7.2685    1.8061  -17.2115 H   0  0  0  0  0  0  0  0  0  0  0  0
    6.8345    0.8275  -18.6540 H   0  0  0  0  0  0  0  0  0  0  0  0
    8.1951    1.0023  -20.4099 H   0  0  0  0  0  0  0  0  0  0  0  0
    9.2375    2.4229  -20.7589 H   0  0  0  0  0  0  0  0  0  0  0  0
    5.2750    3.5796  -21.3644 H   0  0  0  0  0  0  0  0  0  0  0  0
    6.1693    2.0313  -21.1924 H   0  0  0  0  0  0  0  0  0  0  0  0
    5.5346    3.4698  -17.8625 H   0  0  0  0  0  0  0  0  0  0  0  0
    3.5484    2.1492  -17.1510 H   0  0  0  0  0  0  0  0  0  0  0  0
    4.4910    0.6396  -17.3937 H   0  0  0  0  0  0  0  0  0  0  0  0
    5.0061    1.8302  -16.1512 H   0  0  0  0  0  0  0  0  0  0  0  0
    3.2777    1.5935  -20.7522 H   0  0  0  0  0  0  0  0  0  0  0  0
    3.4860    0.8974  -19.1095 H   0  0  0  0  0  0  0  0  0  0  0  0
    9.3807    0.5489  -18.5245 H   0  0  0  0  0  0  0  0  0  0  0  0
    4.1623    3.2205  -19.5422 H   0  0  0  0  0  0  0  0  0  0  0  0
  1  2  1  0  0  0  0
  1  3  2  0  0  0  0
  2  5  2  0  0  0  0
  3  6  1  0  0  0  0
  4  7  2  0  0  0  0
  4  8  1  0  0  0  0
  5 10  1  0  0  0  0
  6 10  2  0  0  0  0
  7 11  1  0  0  0  0
  8 12  2  0  0  0  0
  9 11  2  0  0  0  0
  9 12  1  0  0  0  0
 10 20  1  0  0  0  0
 11 22  1  0  0  0  0
 12 26  1  0  0  0  0
 13 16  1  0  0  0  0
 13 18  1  0  0  0  0
 14 17  1  0  0  0  0
 14 18  1  0  0  0  0
 15 18  1  0  0  0  0
 15 21  1  0  0  0  0
 16 23  1  0  0  0  0
 17 19  1  0  0  0  0
 17 23  1  0  0  0  0
 18 22  1  0  0  0  0
 20 23  1  0  0  0  0
 21 27  1  0  0  0  0
 22 27  1  0  0  0  0
 24 27  2  0  0  0  0
 25 27  2  0  0  0  0
  1 28  1  0  0  0  0
  2 29  1  0  0  0  0
  3 30  1  0  0  0  0
  4 31  1  0  0  0  0
  5 32  1  0  0  0  0
  6 33  1  0  0  0  0
  7 34  1  0  0  0  0
  8 35  1  0  0  0  0
  9 36  1  0  0  0  0
 13 37  1  0  0  0  0
 13 38  1  0  0  0  0
 14 39  1  0  0  0  0
 14 40  1  0  0  0  0
 15 41  1  0  0  0  0
 15 42  1  0  0  0  0
 16 43  1  0  0  0  0
 16 44  1  0  0  0  0
 17 45  1  0  0  0  0
 19 46  1  0  0  0  0
 19 47  1  0  0  0  0
 19 48  1  0  0  0  0
 20 49  1  0  0  0  0
 20 50  1  0  0  0  0
 21 51  1  0  0  0  0
 23 52  1  0  0  0  0
M  CHG  1  23   1
M  END
> <OMEGA_C>
LDzPQK0x8r8dZ63Bwh2+QLCrZL8TG7TBMojFQKJ68r9EZaLBMHXyQCiWrUCWeHTBZLyjQJq+5j0m
xq/BhvOqQBvBZL/wEp7BMhP/QL8di0AixoDBZRzyQM+G10B1vnzBBpUFQaWQvEDSmY/BVKKaQGFn
Bj4XsqTBo68FQXpwkkD+govBK3D+QNwE30BTD4nBGL/fQHkla0DNfaDBkdzbQH8Y7D8Y5JHBnhcM
QXEP6z+5s5/BHI25QALIOkDZQ6XBSPatQFtdG0CHmpHBiT76QBOvLkCk+pjBR9GRQFna2j8iL4nB
s2eAQJb6oj8P/p/BwBccQZ7tqj8bH5jBTjgMQchZYUCFG5LBkIaaQK2DHkCAvZzBMQAhQQcNAUBD
NYTB09g1QdgNUkB81ZLBpyL+QDmkA0H2CY3BF8UiQSQMJEAyFY/B98rjQI77KcAbtLDBCTjFQCYd
Zr+rj7zBuXvSQKx8KsAkRZ3BBwvpQODdp0CnF2TB0WqWQOJRXz8s77TBZgOjQJzhaL98qpXB+lz/
QJkBVkDEKXvB8GboQPrv8UAltnLBY2UKQallwkANxZfBLWz0QD4QgUAeAqfBsPnTQKUIkUCm1pvB
O5foQNQu5z86sYnBabTaQMjWUz9eO5XBGx8DQQpMgD99R6PB/cwTQWoRG0BDEqbBvsyoQN0YZUBE
6qrBA2vFQDkBAkAXiqnBYxuxQG4QXkBu5o7BdBhjQByMCUA4NYnBn7aPQL+8Iz9WJovBXTKgQEVE
6j+3NYHB6MVRQGr5yz+NBKbB2RpfQKG6ZT804JjBdxcWQfCEDD8pMpTB4TGFQOQcTkByVpzBu/3O
QBbt8r+iTK3BqPu9QKpvZr/fB7TBMDbFQDGo8r/VS6LBMLb+QPw330BHJYnBHqWjQGwp3z1Iu6/B
I7CqQG4zZL9sAZ7BX6kFQWK2vEC5ro/Br2byQJ7Q10DV6XzBpCj/QOJai0Bj14DBJnyaQIxwBz4O
qKTBc7gFQcyXkkAhlIvBW63yQNXerUCdm3TBHM/fQOkFa0Dnh6DBd8DbQG237D8Z4ZHB6Q8MQRhe
6j8irp/Bp5O5QN2yOkBaSqXBpeGtQBHYG0BUnpHBCzn6QJOpLkAj/ZjB8qiRQAFm3D8gMInB6E6A
QCqPoz9P/Z/BXQgcQXRZqj8uFJjBoDsMQVxtYUCGJJLBgX6aQDnHHkADw5zBYuAgQYMiAUBLLYTB
BNs1QRuSUUBuzZLB0wTnQF2vpkCkEWDB8rgiQcfjI0CeD4/Bo4XjQJiAKsAqk7DBdiPFQHO9aL+0
e7zBzg/SQNGKKsBZJp3BiHr+QIZZ/0C1U4zB7WaWQGsXXj8N6rTB87SiQMdlZ7+GmZXB6HYKQUt8
wkAK25fB4sHoQL9F8kBj5XLB8Vn/QKZ/VkCrSXvB3Ib0QIfegEDSDafBdBXUQGQPkUA955vBZHPo
QKA26D8/rYnBtYvaQHSwVD9tMJXBNBEDQS0lfz8NPaPBp80TQc15GkDoD6bBC+OoQKDwZEDo9arB
bWXFQELDAUAxiqnBNhKxQGKZXkCY8I7BG9RiQMZtCkAPO4nBdoGPQECrJj/cIIvBTAOgQGEZ7D+C
NoHBv6tRQAZvzD95B6bBu81eQHrlZz8c3pjBZQAWQdjXCz8EJJTBoDWFQNt4TkBBYpzBXKbEQIG5
DcA3/arBGWLJQNqPjL/+x7HBijGrQFDaB8Dus6HBTzIcQRpxwz/MxqrBTLe0QPik5T1BS6/BEMKW
QAuzaL/oKp/BMd8VQS9TJEBM46PBavMYQYy2PT77wKfB4NgIQS3CbD+l+ZbB7z6bQAQYUD4QBKbB
riYMQS1XEUD1+5nBh0QPQejW7L093J3BdPbCQFkRR0ANAIzBZoXTQI3gjkA9GJ3BbKvuQA9TqEDU
V4vBwJqbQP/DM0CR7JLBbtXBQCM/U0C/BaTBaIDkQDZIgEA+/5HBidmmQKWue0CvEq3Bm2SIQPqj
wj830KLBj+cFQbudmUDlAIPBU3gHQYUrVEBQ+ZLBQkuqQPgrEkAcQ53BshkrQY5Gh0DeCIvBPfsV
QRdRG0AEoYDBW4YMQTC/s7/v4prBcu4WQR1UZkBusofBZ5LUQBcgScDa56zBmt/cQGQUlr8v5LjB
ImOnQCbPPsDDjJzBb4kjQezj4D/vYLLB1Fm4QGQDeD/mebTBca2DQCFaVL/s/ZfBsncYQb0hZkCt
MKbBtuIdQdsEHb9eBa3BNGcBQRmWMT+CZo/B9nu4QJ6GaEDUtoTBH1nSQJVACkDqy4nB6ujtQF87
nkBweaHBHau5QKc3pkBz0pvB8Rv+QBvbwEAFVpDBnknRQB+ItUDJy4fBf16HQIDpA0Bp6o7BExuJ
QLjMbkBEMJTBTVfdQPgIM0B0wafBVa6ZQHXLSECLL7LBfXeMQJVykEDpkKnBLzO7QOQTk0A/6LHB
Y0V7QEpuBEBy86nBUS1aQPZGrj9LaJ3B9HwOQZB7skDIXoDBwIbAQI8vzT+6aJvBLHDEQC6DDcBU
jarBZmjJQArrjb9zerHBeD6qQKi8BsDDZ6HB22IPQQg3573S4p3Btlu0QBgR0z1WPq/BenuVQP2f
Y78MHZ/BShEJQceNbT/W/JbBVkwZQeS5Pz7Lt6fBV0oWQYyNJEBZ1qPBHFWaQHz4Vz6IEqbB2GwM
Qc2hEUD9+ZnBK8EcQTDPwz/Gr6rBcmvDQM7gQ0DODIzBkE/TQEXEjkA19JzBStTtQN2Mp0AEG4vB
WK6bQCSIMkA77ZLBFujBQJiRU0D8AKTB7oDkQG5Zf0Ar6ZHB/nqnQHp5fEDfHq3B6tSHQGgKxT+y
AqPBpvcFQTNomUDm64LBlK4HQRakVEDZ/ZLBsvapQAk8EkDLX53B/0MrQazihkBI2IrBvsoVQYCC
GkA4o4DBL48mQXIB6T/iCrTBiPgWQeDgZUCroofBK77UQH7oSMApQqzBAF/dQBjvmL9Uf7jB3B6m
QNQcPcAELJzB7KEMQf4Zkr91o5vBciC4QNPCcj/uibTBMN6BQMVwTL9rCZjBS6YBQfpgMj8RaI/B
4D8eQZiBHL9G+6zBCuUYQV1ZZkBVJKbBHVi5QN4OY0C0koTBNgDTQFaGBkBEMYrBEontQGiZnkDm
SaHBSkS5QJLOpUBGlpvBYyb8QFLmwEAfDZDB6j3QQOeKs0AoZofBC1GHQL19AkCs/o7BgnWJQOYi
bkDnApTBPZXdQHhqM0CNqqfBvY2aQK7ZSUDpT7LB8O+MQLzSkEDfrqnBWiS8QHSIk0Dg2rHBvYl7
QJGqBUBgNarBzkpYQIP4sj/TsZ3BGpMOQZuLskC5eYDBhf2/QNbnyz+WoZvBJR6/QJ56d79I87LB
pf2pQKiXDD4RjbfBj1u3QGW+qL/gM6jBbLslQXFdpD8bCqjBjXSNQEYsZj8GYrHBq8+bQCLZB7+k
66HBoMofQXyoFkDaWaHBx5AfQYDE+7x0caXBg2ANQfAxSz/6e5XBxYOHQOIYGD+qe6bBOkgTQYaK
B0DmIJjBRnwTQSRkjb4pI5zB6w3JQLMaN0D2SY3Bwd/dQK4cakDH6aDB/5znQD5HpUD+iJDB1IKb
QL46PECeTpHB+ICwQMKVUUBgIKTBDxXoQPAAbUC3dZTBOyiVQF9IkECzhqbByoRtQALS1D+YQp/B
OlQCQX7upUAWYIfBul8KQXaMTUDqupLBl+udQO7tFkA98ZvB9+MoQUH0nEDl6Y7BFXgbQWG/VUCh
tn/B2JUNQd/0xL/hoZnBOt4XQTYOhUCkcYnB/FbVQGLaxb/9rLfBX7+vQNg/yz4s0L/B2YfGQFIx
DMDzzKTBkgYvQYtlvD++Kq/BrTB4QO3M2z9i/LTB/DWWQNcGSb88pJnBZtAkQb/5VkC4RqPBTxkk
QYvTWb9clqrBUScEQes3Gj8RV47BBErKQHLGT0CADYXBinLTQEKx5z9dX43BhcLzQN9sO0CBlKTB
lFvkQAUSlUBUMaTB9g7zQK/xukBc2pbBMyXHQG6/rkCJGI7B+tOFQLEyF0CWJYzBSJKQQPwSf0Dp
r5HBZPqyQDo/LUBdo6vBSWlpQNsphkCqz6jBoHWTQFKgpEB0W5/B3aijQBxzokBiIq3BhxBCQMzF
FUBckaPBDgBMQJV2nT+LVpjBoIkHQevYw0AXPobBMKyzQHWh0D+XQJvB

> <OMEGA_E>
/myHP1BPhz/8Yg4/6AMJPxwvOz8=

> <OMEGA_NBR>
     76202

$$$$
50220681
  -OEChem-04172616093D

 56 59  0     1  0  0  0  0  0999 V2000
    6.4836   -0.9736  -22.2816 C   0  0  0  0  0  0  0  0  0  0  0  0
    9.1359   -0.1722  -19.6070 C   0  0  0  0  0  0  0  0  0  0  0  0
    5.7302    0.1606  -21.9347 C   0  0  0  0  0  0  0  0  0  0  0  0
    8.7215    0.8939  -18.7865 C   0  0  0  0  0  0  0  0  0  0  0  0
    6.5358   -2.0780  -21.4118 C   0  0  0  0  0  0  0  0  0  0  0  0
    9.6980    0.0912  -20.8718 C   0  0  0  0  0  0  0  0  0  0  0  0
    5.0690   -0.9174  -19.8445 C   0  0  0  0  0  0  0  0  0  0  0  0
    9.3926    2.4852  -20.5126 C   0  0  0  0  0  0  0  0  0  0  0  0
    5.0232    0.1949  -20.7146 C   0  0  0  0  0  0  0  0  0  0  0  0
    8.8355    2.2250  -19.2447 C   0  0  0  0  0  0  0  0  0  0  0  0
    5.8208   -2.0680  -20.1965 C   0  0  0  0  0  0  0  0  0  0  0  0
    9.8311    1.4206  -21.3217 C   0  0  0  0  0  0  0  0  0  0  0  0
    6.1638    3.0757  -17.5036 C   0  0  0  0  0  0  0  0  0  0  0  0
    6.6035    4.3573  -19.6674 C   0  0  0  0  0  0  0  0  0  0  0  0
    7.4756    5.2475  -17.5005 C   0  0  0  0  0  0  0  0  0  0  0  0
    5.5852    1.9388  -18.3576 C   0  0  0  0  0  0  0  0  0  0  0  0
    5.9954    3.1793  -20.4613 C   0  0  2  0  0  0  0  0  0  0  0  0
    7.1812    3.9592  -18.2871 C   0  0  1  0  0  0  0  0  0  0  0  0
    5.3487    3.7875  -21.7275 C   0  0  0  0  0  0  0  0  0  0  0  0
    4.7204   -3.5474  -18.6489 C   0  0  0  0  0  0  0  0  0  0  0  0
    4.2085    1.4184  -20.3347 C   0  0  0  0  0  0  0  0  0  0  0  0
    8.4456    4.8700  -16.4818 N   0  0  0  0  0  0  0  0  0  0  0  0
    8.5236    3.2945  -18.4100 N   0  0  1  0  0  0  0  0  0  0  0  0
    4.9945    2.4615  -19.6114 N   0  3  1  0  0  0  0  0  0  0  0  0
    9.5773    2.5684  -16.1229 O   0  0  0  0  0  0  0  0  0  0  0  0
   10.7467    4.3612  -17.5695 O   0  0  0  0  0  0  0  0  0  0  0  0
    5.9132   -3.1872  -19.3838 O   0  0  0  0  0  0  0  0  0  0  0  0
   10.3959    1.6771  -22.5229 F   0  0  0  0  0  0  0  0  0  0  0  0
    9.5385    3.6959  -17.0632 S   0  0  0  0  0  0  0  0  0  0  0  0
    7.0232   -0.9975  -23.2169 H   0  0  0  0  0  0  0  0  0  0  0  0
    9.0232   -1.1911  -19.2672 H   0  0  0  0  0  0  0  0  0  0  0  0
    5.6924    1.0078  -22.6035 H   0  0  0  0  0  0  0  0  0  0  0  0
    8.3160    0.6938  -17.8058 H   0  0  0  0  0  0  0  0  0  0  0  0
    7.1285   -2.9410  -21.6771 H   0  0  0  0  0  0  0  0  0  0  0  0
   10.0270   -0.7257  -21.4970 H   0  0  0  0  0  0  0  0  0  0  0  0
    4.5302   -0.8918  -18.9088 H   0  0  0  0  0  0  0  0  0  0  0  0
    9.4832    3.5025  -20.8637 H   0  0  0  0  0  0  0  0  0  0  0  0
    5.3362    3.7134  -17.1593 H   0  0  0  0  0  0  0  0  0  0  0  0
    6.6751    2.6373  -16.6339 H   0  0  0  0  0  0  0  0  0  0  0  0
    7.4142    4.7962  -20.2675 H   0  0  0  0  0  0  0  0  0  0  0  0
    5.8166    5.1093  -19.5085 H   0  0  0  0  0  0  0  0  0  0  0  0
    7.8964    6.0160  -18.1656 H   0  0  0  0  0  0  0  0  0  0  0  0
    6.5567    5.6306  -17.0328 H   0  0  0  0  0  0  0  0  0  0  0  0
    6.3899    1.2316  -18.6071 H   0  0  0  0  0  0  0  0  0  0  0  0
    4.8051    1.4186  -17.7824 H   0  0  0  0  0  0  0  0  0  0  0  0
    6.7983    2.4891  -20.7595 H   0  0  0  0  0  0  0  0  0  0  0  0
    4.8985    2.9857  -22.3311 H   0  0  0  0  0  0  0  0  0  0  0  0
    4.5694    4.5056  -21.4322 H   0  0  0  0  0  0  0  0  0  0  0  0
    6.1181    4.3044  -22.3198 H   0  0  0  0  0  0  0  0  0  0  0  0
    4.9184   -4.4452  -18.0449 H   0  0  0  0  0  0  0  0  0  0  0  0
    4.4324   -2.7169  -17.9876 H   0  0  0  0  0  0  0  0  0  0  0  0
    3.9030   -3.7539  -19.3554 H   0  0  0  0  0  0  0  0  0  0  0  0
    3.8027    1.8648  -21.2545 H   0  0  0  0  0  0  0  0  0  0  0  0
    3.3798    1.0964  -19.6869 H   0  0  0  0  0  0  0  0  0  0  0  0
    8.9586    5.6824  -16.2046 H   0  0  0  0  0  0  0  0  0  0  0  0
    4.3307    3.1552  -19.3318 H   0  0  0  0  0  0  0  0  0  0  0  0
  1  3  2  0  0  0  0
  1  5  1  0  0  0  0
  2  4  2  0  0  0  0
  2  6  1  0  0  0  0
  3  9  1  0  0  0  0
  4 10  1  0  0  0  0
  5 11  2  0  0  0  0
  6 12  2  0  0  0  0
  7  9  2  0  0  0  0
  7 11  1  0  0  0  0
  8 10  2  0  0  0  0
  8 12  1  0  0  0  0
  9 21  1  0  0  0  0
 10 23  1  0  0  0  0
 11 27  1  0  0  0  0
 12 28  1  0  0  0  0
 13 16  1  0  0  0  0
 13 18  1  0  0  0  0
 14 17  1  0  0  0  0
 14 18  1  0  0  0  0
 15 18  1  0  0  0  0
 15 22  1  0  0  0  0
 16 24  1  0  0  0  0
 17 19  1  0  0  0  0
 17 24  1  0  0  0  0
 18 23  1  0  0  0  0
 20 27  1  0  0  0  0
 21 24  1  0  0  0  0
 22 29  1  0  0  0  0
 23 29  1  0  0  0  0
 25 29  2  0  0  0  0
 26 29  2  0  0  0  0
  1 30  1  0  0  0  0
  2 31  1  0  0  0  0
  3 32  1  0  0  0  0
  4 33  1  0  0  0  0
  5 34  1  0  0  0  0
  6 35  1  0  0  0  0
  7 36  1  0  0  0  0
  8 37  1  0  0  0  0
 13 38  1  0  0  0  0
 13 39  1  0  0  0  0
 14 40  1  0  0  0  0
 14 41  1  0  0  0  0
 15 42  1  0  0  0  0
 15 43  1  0  0  0  0
 16 44  1  0  0  0  0
 16 45  1  0  0  0  0
 17 46  1  0  0  0  0
 19 47  1  0  0  0  0
 19 48  1  0  0  0  0
 19 49  1  0  0  0  0
 20 50  1  0  0  0  0
 20 51  1  0  0  0  0
 20 52  1  0  0  0  0
 21 53  1  0  0  0  0
 21 54  1  0  0  0  0
 22 55  1  0  0  0  0
 24 56  1  0  0  0  0
M  CHG  1  24   1
M  END
> <OMEGA_C>
w3nPQHg7eb/AQLLB0SwSQR1OML4l25zBAl63QMZ3JD5Meq/BOYsLQT7ZZD/WSpbB4iTRQK7+BMBa
S6vB9iobQaC8uj2F+abBKDWiQMDdar97wZ7BLUgWQR8NH0DWGaTBML6gQKySRz6Lt6XBEV4NQcpm
DkAk9ZnBs0O6QH9ZBMCFkqHBNkwdQXnVtT/hkqrBoD3FQAHZREBKB4zByU/TQD9vi0DXVp3Bczjv
QL7rp0AKAYzBGLqyQC0s+D9T3JLBVNq/QFd6S0DTsKPBiszlQHZjfUDsS5LBaiirQNZmckDT0a3B
mw2XQCIJY8D1MJXB6auGQHGNtT94raLBIyEHQfjWm0Cy2oPBtGAIQa7ZUkCUR5PB89KfQOGJHUAS
5JzBuzwZQXJgJECl+4DBZfIrQUCPi0BqjozBUDm9QJL6S8D6EZvBpFUmQfyr1j/zLrTBnp0YQeyJ
bEB5gYjBzb3gQLRZf78pvLnB9V4QQWJ2mL9JI5rBJii2QCn+gD8J1LTBNA4FQcSeMT85co7BZhzk
QE85PMDAaq3Bg24gQUDJOb/a+avBgveQQAhKZL8/RZfBJrsXQckoYEDj6KbBDsKqQBqobUA8RonB
mprVQCvKKEA2EoXBckHtQE16mUDOI6LBeiG6QL1/o0BYEZzBgK/8QFyDwEAiU5HBPdDRQAMutEA1
Q4jBQnrMQBilnT9J25TBdsOZQLCVtT9mQo7BwIvZQDVNH0BqE6bBncCcQL8VP0AnprLBvTiSQIMt
kEAVdavBKMfDQJ29iUAAj7LBT2OdQPE+jsDmW5DBmNaNQJ7hLcCq5o/Bn8p5QJBAcMDt15rBX19z
QL2x7j88CarBD09YQJRXjD+9fp3BXVYPQVDWtUAZo4HBKZWKQDLvSUBup5rBkRzPQIAne7/WT7LB
dxkdQRZqvT9c1arBCjC3QJYwID5Aha/BO0QWQTA1IUC1DaTBaeTQQAZIBcDdUqvBAhkbQXLvDT44
iKfBY4iiQNE6ab+btp7B9Z4LQRw+YD/2nJbBptigQP5ZST43uKXBMFwNQRX6DUDY+JnBw2i6QOEM
BMBVi6HBhFASQdAiJ75fbp3BcHPEQHAtRkDKDozBpfrTQI81i0DDZp3BeI7vQG/Up0DrBYzBImmy
QI68+T853JLBtgvAQKlSS0CIvaPBOMHlQEEafUCzRJLBPWSrQKmTckAf263Bnq6WQGvUZcACtZXB
dbyGQBLKtT8/tqLBX1YHQeGtm0Cd5oPBth4IQZ1sUEC+DZPBOtGfQEXYHUB48pzBNgcbQbQtJ0AF
HIHBd5crQQlTjUBqYY3B4ra9QHPiSsCo75rB/ZcQQaCOub/DOJrBLhEZQTUabkAywojBfiTgQIhB
gb+P07nBFeAjQeLu2j99kLLBAee1QHI1gD+/47TBZNgXQRAFY0DekqbBk6DjQOPGPMBgd63BKEwg
QZqxKL/UvqzBq5iRQPw3Yb+iL5fBRygFQRVOJT+b0I7BmN6pQKvBb0DyjYnBzgfUQNjeKkBu8YTB
xmbuQJiTmEDNKKLByDa7QI7Mo0D8QJzBnBH9QHZCwEAIYpHBeUzSQEJTtEDnQYjBzVjMQMmPnz8y
xJTBWV2ZQDQLtz8JS47BuIHZQAivHkByJabBRa2cQCqBP0DkqrLB57SSQNCBkED8eavBnRnEQJGU
iUConrLBezWdQGQhj8B+tJDBCJKKQP+DMcAHqJDBiyR9QOAwdsCbyJvBSoFzQAiH7j8tFarBvG9Y
QC+yjD+nhp3BHFcPQem+tUALjYHBwJCKQOZxSkD4x5rB

> <OMEGA_E>
KNWFPuAgkT4=

> <OMEGA_NBR>
     78366

$$$$
50220682
  -OEChem-04172616093D

 59 62  0     1  0  0  0  0  0999 V2000
    6.5135   -0.9242  -22.2753 C   0  0  0  0  0  0  0  0  0  0  0  0
    9.1824   -0.2042  -19.5977 C   0  0  0  0  0  0  0  0  0  0  0  0
    5.7366    0.1944  -21.9273 C   0  0  0  0  0  0  0  0  0  0  0  0
    8.7465    0.8514  -18.7739 C   0  0  0  0  0  0  0  0  0  0  0  0
    6.5727   -2.0348  -21.4139 C   0  0  0  0  0  0  0  0  0  0  0  0
    9.7252    0.0730  -20.8684 C   0  0  0  0  0  0  0  0  0  0  0  0
    5.1064   -0.8902  -19.8370 C   0  0  0  0  0  0  0  0  0  0  0  0
    9.3671    2.4582  -20.5049 C   0  0  0  0  0  0  0  0  0  0  0  0
    5.0332    0.2139  -20.7043 C   0  0  0  0  0  0  0  0  0  0  0  0
    8.8246    2.1844  -19.2340 C   0  0  0  0  0  0  0  0  0  0  0  0
    5.8458   -2.0382  -20.2064 C   0  0  0  0  0  0  0  0  0  0  0  0
    9.8209    1.4053  -21.3194 C   0  0  0  0  0  0  0  0  0  0  0  0
    6.1388    3.1238  -17.5128 C   0  0  0  0  0  0  0  0  0  0  0  0
    6.6249    4.3316  -19.7070 C   0  0  0  0  0  0  0  0  0  0  0  0
    7.5025    5.2637  -17.5636 C   0  0  0  0  0  0  0  0  0  0  0  0
    5.5731    1.9637  -18.3411 C   0  0  0  0  0  0  0  0  0  0  0  0
    5.9715    3.1612  -20.4736 C   0  0  2  0  0  0  0  0  0  0  0  0
    7.1830    3.9570  -18.3103 C   0  0  1  0  0  0  0  0  0  0  0  0
    5.2960    3.7744  -21.7241 C   0  0  0  0  0  0  0  0  0  0  0  0
    5.0869   -4.4054  -17.5272 C   0  0  0  0  0  0  0  0  0  0  0  0
    4.1946    1.4104  -20.3061 C   0  0  0  0  0  0  0  0  0  0  0  0
    4.7099   -3.6177  -18.7816 C   0  0  0  0  0  0  0  0  0  0  0  0
    8.4804    4.9107  -16.5449 N   0  0  0  0  0  0  0  0  0  0  0  0
    8.5045    3.2455  -18.3937 N   0  0  3  0  0  0  0  0  0  0  0  0
    4.9769    2.4640  -19.6025 N   0  3  1  0  0  0  0  0  0  0  0  0
    9.6051    2.6220  -16.1013 O   0  0  0  0  0  0  0  0  0  0  0  0
   10.7521    4.3319  -17.6622 O   0  0  0  0  0  0  0  0  0  0  0  0
    5.9393   -3.1471  -19.3911 O   0  0  0  0  0  0  0  0  0  0  0  0
   10.3642    1.6774  -22.5270 F   0  0  0  0  0  0  0  0  0  0  0  0
    9.5520    3.7032  -17.0938 S   0  0  0  0  0  0  0  0  0  0  0  0
    7.0648   -0.9310  -23.2040 H   0  0  0  0  0  0  0  0  0  0  0  0
    9.1007   -1.2255  -19.2560 H   0  0  0  0  0  0  0  0  0  0  0  0
    5.6781    1.0399  -22.5968 H   0  0  0  0  0  0  0  0  0  0  0  0
    8.3526    0.6418  -17.7904 H   0  0  0  0  0  0  0  0  0  0  0  0
    7.1780   -2.8890  -21.6792 H   0  0  0  0  0  0  0  0  0  0  0  0
   10.0680   -0.7356  -21.4970 H   0  0  0  0  0  0  0  0  0  0  0  0
    4.5964   -0.8618  -18.8854 H   0  0  0  0  0  0  0  0  0  0  0  0
    9.4345    3.4779  -20.8542 H   0  0  0  0  0  0  0  0  0  0  0  0
    5.3108    3.7839  -17.2150 H   0  0  0  0  0  0  0  0  0  0  0  0
    6.6231    2.7147  -16.6138 H   0  0  0  0  0  0  0  0  0  0  0  0
    7.4552    4.7193  -20.3155 H   0  0  0  0  0  0  0  0  0  0  0  0
    5.8687    5.1194  -19.5742 H   0  0  0  0  0  0  0  0  0  0  0  0
    7.9228    6.0076  -18.2564 H   0  0  0  0  0  0  0  0  0  0  0  0
    6.5931    5.6701  -17.0969 H   0  0  0  0  0  0  0  0  0  0  0  0
    6.3846    1.2603  -18.5790 H   0  0  0  0  0  0  0  0  0  0  0  0
    4.7988    1.4459  -17.7559 H   0  0  0  0  0  0  0  0  0  0  0  0
    6.7520    2.4546  -20.7926 H   0  0  0  0  0  0  0  0  0  0  0  0
    4.8127    2.9775  -22.3084 H   0  0  0  0  0  0  0  0  0  0  0  0
    4.5394    4.5082  -21.4093 H   0  0  0  0  0  0  0  0  0  0  0  0
    6.0557    4.2737  -22.3434 H   0  0  0  0  0  0  0  0  0  0  0  0
    4.1741   -4.7777  -17.0392 H   0  0  0  0  0  0  0  0  0  0  0  0
    5.7260   -5.2559  -17.8067 H   0  0  0  0  0  0  0  0  0  0  0  0
    5.6324   -3.7495  -16.8327 H   0  0  0  0  0  0  0  0  0  0  0  0
    3.7558    1.8484  -21.2148 H   0  0  0  0  0  0  0  0  0  0  0  0
    3.3900    1.0675  -19.6390 H   0  0  0  0  0  0  0  0  0  0  0  0
    4.1682   -4.2682  -19.4841 H   0  0  0  0  0  0  0  0  0  0  0  0
    4.0746   -2.7618  -18.5100 H   0  0  0  0  0  0  0  0  0  0  0  0
    9.0066    5.7261  -16.3039 H   0  0  0  0  0  0  0  0  0  0  0  0
    4.3138    3.1628  -19.3340 H   0  0  0  0  0  0  0  0  0  0  0  0
  1  3  1  0  0  0  0
  1  5  2  0  0  0  0
  2  4  2  0  0  0  0
  2  6  1  0  0  0  0
  3  9  2  0  0  0  0
  4 10  1  0  0  0  0
  5 11  1  0  0  0  0
  6 12  2  0  0  0  0
  7  9  1  0  0  0  0
  7 11  2  0  0  0  0
  8 10  2  0  0  0  0
  8 12  1  0  0  0  0
  9 21  1  0  0  0  0
 10 24  1  0  0  0  0
 11 28  1  0  0  0  0
 12 29  1  0  0  0  0
 13 16  1  0  0  0  0
 13 18  1  0  0  0  0
 14 17  1  0  0  0  0
 14 18  1  0  0  0  0
 15 18  1  0  0  0  0
 15 23  1  0  0  0  0
 16 25  1  0  0  0  0
 17 19  1  0  0  0  0
 17 25  1  0  0  0  0
 18 24  1  0  0  0  0
 20 22  1  0  0  0  0
 21 25  1  0  0  0  0
 22 28  1  0  0  0  0
 23 30  1  0  0  0  0
 24 30  1  0  0  0  0
 26 30  2  0  0  0  0
 27 30  2  0  0  0  0
  1 31  1  0  0  0  0
  2 32  1  0  0  0  0
  3 33  1  0  0  0  0
  4 34  1  0  0  0  0
  5 35  1  0  0  0  0
  6 36  1  0  0  0  0
  7 37  1  0  0  0  0
  8 38  1  0  0  0  0
 13 39  1  0  0  0  0
 13 40  1  0  0  0  0
 14 41  1  0  0  0  0
 14 42  1  0  0  0  0
 15 43  1  0  0  0  0
 15 44  1  0  0  0  0
 16 45  1  0  0  0  0
 16 46  1  0  0  0  0
 17 47  1  0  0  0  0
 19 48  1  0  0  0  0
 19 49  1  0  0  0  0
 19 50  1  0  0  0  0
 20 51  1  0  0  0  0
 20 52  1  0  0  0  0
 20 53  1  0  0  0  0
 21 54  1  0  0  0  0
 21 55  1  0  0  0  0
 22 56  1  0  0  0  0
 22 57  1  0  0  0  0
 23 58  1  0  0  0  0
 25 59  1  0  0  0  0
M  CHG  1  25   1
M  END
> <OMEGA_C>
RW7QQJeXbL/oM7LB/OoSQZ0cUb4MyJzBjJK3QPIaRz4wa6/Bv/ELQZX4WT8BMZbBP1PSQA86AsC8
T6vBWZobQa6ClT2E8qbBtGejQCrlY78lsp7Bg98VQc1SHUAICqTBIBChQIYTWz5uoqXBlTENQajM
C0BE35nBsxC7QNxxAsC1pqHBeSIdQXvisz8djqrB23DEQMDrR0A3GozB+/7TQM+cikDep53BNxTw
QHRwqEBIgozBmVayQMZb+z96upLByBa/QFNQSkDqyaPBT9vlQAM/fUBle5LBkXipQO2PcUACy63B
AMiiQPD4jMC3N4zB5jmGQA6JtD/vcqLBz7eWQI+IZ8DAQJbB068HQREknUDhW4TBVBIIQe21T0Ay
JpPB3EKfQNqyHUDS0ZzBfK4ZQXjOJ0Bmz4DBzggsQSafikA2TI3BsQ6+QMxqScARIZvB49MlQaaz
1j9YN7TB0dQYQSQBbUAfwIjB+hLiQCxXbr+/obnBqJwRQQbcnL8wDJrBOrO1QGEbhT89xrTBL6QF
QRVMJD/QUo7BVrLlQI/kOMD5bq3BYhYhQUBNPL/j+avBehWTQJOfXL9dFZfByPMWQfGVXkBq1abB
PfKpQA0sckBpuInBM/DTQCy+LUAf6YTB4pDuQJsEl0AehqLB/8u7QMLRo0Dpl5zB2of9QCg+wEAg
DZLBivrSQK9xtUBfxojBWk7MQDJRoT/ioZTBnY+ZQFoUuT8sDI7BKhDYQNoYHUAzV6bB7wGaQBKP
PkCid7LB+UKRQI5DkEA1RqvBOcjBQEXCiEBOv7LB6pGFQKrimMBeUIjBrju3QGowqMAxdI7BZzy0
QHn4b8BeqYbBp15wQEuX7D/it6nBlvVYQGaliD+eHJ3BOmKFQOiUiMBm35vB82KCQHXBMMCSFJTB
KhsQQZU8t0BRboLBpAqKQNtqSkARrJrBMjHPQH4pbr+uZLLByuscQV/Tsz9Yt6rBCXK2QGbeQj6r
lq/BJNMVQWBYHUBKJqTB6qzRQMILAsCsa6vBNY4bQWUpmD1eFKfBKlSjQFbgYL9huZ7BjTQMQagl
Wj8YPpbB4negQPpCXz7uuqXBDVcNQcHRC0Cm7ZnB8Bm7QF2FAcAZqaHBECETQQtkT76Z25zB/5nE
QCWjRkCMIozBFxHUQJx9ikB4pJ3BtObvQPTyp0ChbIzBm3iyQBq8+T8j0pLB9hy/QMpOSkDS0aPB
zeflQBqPfECtepLBz3ipQLn0cUCiy63B/R+jQAkgjsD7fIzBOuuFQMahtT8HgqLBD2SXQM5dZ8Bl
WJbBLG4HQaFgnECIOITB8CoIQY6UT0BYLZPB8UefQJejHUBP25zBG4IZQaFLJkCly4DBzfMrQSKV
ikCSDY3BnsW+QDZoR8By/prBI9wRQZNsvb9gXpnBwLgYQeYhbECBpojBc0vgQIMIcr905rnBrGkj
Qermzj/dirLBSEG0QCXzgz9k/LTB+eAWQR6eXkBW8abBCfbkQJPMOMBqjq3BFPggQRD5O7+fIKzB
+U6TQJRvWL+yEpfBTgcGQT48JD/pWY7BUBuqQGWicEATr4nBWDbUQDX9K0BQ/ITB66fuQCHzlkDX
fqLBneW7QCa1o0DCjZzBEpf9QKTgv0B15ZHBIKvSQHnjtEC6vYjBjm7MQFILoD9Qy5TBNcKZQHa2
tj/yKI7BrQzYQHMaHUDYZabBb/uZQEQlP0BAf7LB8EeRQDVskEBgPqvBGsbBQDsKiUBLvLLBjs2F
QM+4msB0xojBZ9u3QKLoqMBh4o7Bqyy0QFSPc8BztYbBL+pvQIuL7j/FwqnBDDhYQEtCij9aLJ3B
5XOGQPfch8BeLpzBKMWCQP93McBvAZTBsMMPQfBttkDXKoLBEz2KQAd8SkB/pJrBBWPjQMRNBL+q
Oa7B2DQMQd5EQ0DxuWTBlXnEQORy8j4kVKzB9hkLQXT/XkCUHHrBpH7hQK8K3r9LpajBaukMQWxO
1j87EmDB1puiQPrlcL/I6J7BmSULQfSylD9/JoPBYKqkQOZtkj6KbKTBN1IKQamyIkA8goXBmPnA
QKGA+78PC6HBA4EMQerDOj+h03DBYqvBQB2+X0BxpY3BeNziQMW2VUASWqDBLQv5QHG7p0Dqr5PB
VHCpQAs1EUC/55HB/vWyQF1yWEB35KPBgYXrQIQrcEAtZ5TBL92hQJ1JmkChDKXBv3PHQBY9HMA/
WonBzdiDQHW9rz9b+6HB6JytQJQeUsBRdZHBhQEUQde7qEChFZXB//sIQTp8PkCjKpDBxnGWQCT2
JEB2nZzBCJgxQcx9akDDDo7B70AiQQrgVEAZ9aDBTfS/QHBaTcCbH5zBXGwNQbyCF783QGzBP70f
QQU2bkDNtJXBS5n8QA9vr77W97PBb4MMQfSHcUAg5FfBHf3EQEVzsT/d8bDBt9gKQZFRkUDzqH3B
lRj5QJP7H8AaMKrBEsQNQWipqz/6p0/BW9SJQLtdjb+1B5nBpr0KQQvB3z6jjYnBmM6sQMIkjEDZ
LI7B/4TKQBueVEBEPoXBaJnuQOvzE0AxeaHBpfv0QIG5gED5jKXBrl/pQPxdukDeCprB1T/wQFoA
tUCn1ovBt8C/QJk4tj8lrZLBB7qPQOExAEC2SIzBVmyxQKTwOkB536vBFSCAQJ9ZmUAxjKfBFnyk
QGzuqkCsUp3Bnsu0QLxyq0AcGqvBTqq4QABiIcCAZIHBeonoQEgaNMB1/ojBso/HQGC2sb+05ovB
IjRqQFN82D9QjqnBcFBWQBGBcj/ztpzBiYetQLGkisCB0o7BwY2MQEoKOsDAupHBjUYXQTxMuEBw
4ZvB+Ot6QOEIS0DpFZvB

> <OMEGA_E>
oKZ6PmAIiT6UR3o/

> <OMEGA_NBR>
     81572

$$$$
50220686
  -OEChem-04172616093D

 62 65  0     1  0  0  0  0  0999 V2000
    6.1811   -1.0302  -22.3964 C   0  0  0  0  0  0  0  0  0  0  0  0
    8.9136   -0.1463  -19.5901 C   0  0  0  0  0  0  0  0  0  0  0  0
    5.4564    0.1117  -22.0082 C   0  0  0  0  0  0  0  0  0  0  0  0
    8.5392    0.9472  -18.7853 C   0  0  0  0  0  0  0  0  0  0  0  0
    6.3380   -2.1048  -21.4974 C   0  0  0  0  0  0  0  0  0  0  0  0
    9.4947    0.0756  -20.8541 C   0  0  0  0  0  0  0  0  0  0  0  0
    5.0778   -0.8797  -19.8127 C   0  0  0  0  0  0  0  0  0  0  0  0
    9.3088    2.4852  -20.5188 C   0  0  0  0  0  0  0  0  0  0  0  0
    4.8942    0.1762  -20.7177 C   0  0  0  0  0  0  0  0  0  0  0  0
    8.7338    2.2687  -19.2506 C   0  0  0  0  0  0  0  0  0  0  0  0
    5.7697   -2.0387  -20.2081 C   0  0  0  0  0  0  0  0  0  0  0  0
    9.6910    1.3921  -21.3181 C   0  0  0  0  0  0  0  0  0  0  0  0
    6.1470    3.1558  -17.4496 C   0  0  0  0  0  0  0  0  0  0  0  0
    6.5418    4.4448  -19.6467 C   0  0  0  0  0  0  0  0  0  0  0  0
    7.4704    5.3380  -17.5096 C   0  0  0  0  0  0  0  0  0  0  0  0
    4.9113    2.7472  -18.2655 C   0  0  0  0  0  0  0  0  0  0  0  0
    5.9976    3.2469  -20.4628 C   0  0  2  0  0  0  0  0  0  0  0  0
    7.1428    4.0458  -18.2750 C   0  0  1  0  0  0  0  0  0  0  0  0
    5.0866    3.8356  -21.5656 C   0  0  0  0  0  0  0  0  0  0  0  0
    5.1507   -4.2471  -17.4161 C   0  0  0  0  0  0  0  0  0  0  0  0
    3.5017   -3.4232  -19.1181 C   0  0  0  0  0  0  0  0  0  0  0  0
    4.2618    1.4326  -20.2192 C   0  0  0  0  0  0  0  0  0  0  0  0
    4.9541   -3.9318  -18.9077 C   0  0  0  0  0  0  0  0  0  0  0  0
    8.4547    4.9538  -16.5077 N   0  0  0  0  0  0  0  0  0  0  0  0
    8.4749    3.3704  -18.4343 N   0  0  1  0  0  0  0  0  0  0  0  0
    5.3319    2.2218  -19.5737 N   0  3  2  0  0  0  0  0  0  0  0  0
    9.4877    2.6059  -16.1412 O   0  0  0  0  0  0  0  0  0  0  0  0
   10.7357    4.3441  -17.5888 O   0  0  0  0  0  0  0  0  0  0  0  0
    6.0394   -3.0261  -19.2868 O   0  0  0  0  0  0  0  0  0  0  0  0
   10.2650    1.6093  -22.5226 F   0  0  0  0  0  0  0  0  0  0  0  0
    9.4993    3.7315  -17.0846 S   0  0  0  0  0  0  0  0  0  0  0  0
    6.6170   -1.0835  -23.3831 H   0  0  0  0  0  0  0  0  0  0  0  0
    8.7551   -1.1550  -19.2383 H   0  0  0  0  0  0  0  0  0  0  0  0
    5.3317    0.9349  -22.6960 H   0  0  0  0  0  0  0  0  0  0  0  0
    8.1031    0.7766  -17.8121 H   0  0  0  0  0  0  0  0  0  0  0  0
    6.8946   -2.9807  -21.7965 H   0  0  0  0  0  0  0  0  0  0  0  0
    9.7898   -0.7629  -21.4676 H   0  0  0  0  0  0  0  0  0  0  0  0
    4.6865   -0.8026  -18.8090 H   0  0  0  0  0  0  0  0  0  0  0  0
    9.4564    3.4929  -20.8783 H   0  0  0  0  0  0  0  0  0  0  0  0
    5.8156    3.7224  -16.5669 H   0  0  0  0  0  0  0  0  0  0  0  0
    6.6726    2.2457  -17.1251 H   0  0  0  0  0  0  0  0  0  0  0  0
    7.3262    4.9397  -20.2382 H   0  0  0  0  0  0  0  0  0  0  0  0
    5.7153    5.1492  -19.4714 H   0  0  0  0  0  0  0  0  0  0  0  0
    7.8890    6.0935  -18.1908 H   0  0  0  0  0  0  0  0  0  0  0  0
    6.5669    5.7396  -17.0275 H   0  0  0  0  0  0  0  0  0  0  0  0
    4.3545    1.9701  -17.7213 H   0  0  0  0  0  0  0  0  0  0  0  0
    4.2651    3.6248  -18.4147 H   0  0  0  0  0  0  0  0  0  0  0  0
    6.8532    2.7650  -20.9586 H   0  0  0  0  0  0  0  0  0  0  0  0
    4.6737    3.0187  -22.1755 H   0  0  0  0  0  0  0  0  0  0  0  0
    4.2636    4.3975  -21.0999 H   0  0  0  0  0  0  0  0  0  0  0  0
    5.6747    4.5098  -22.2056 H   0  0  0  0  0  0  0  0  0  0  0  0
    6.1759   -4.6093  -17.2494 H   0  0  0  0  0  0  0  0  0  0  0  0
    4.9830   -3.3357  -16.8236 H   0  0  0  0  0  0  0  0  0  0  0  0
    4.4335   -5.0221  -17.1077 H   0  0  0  0  0  0  0  0  0  0  0  0
    3.3439   -3.1926  -20.1820 H   0  0  0  0  0  0  0  0  0  0  0  0
    2.7914   -4.2016  -18.8025 H   0  0  0  0  0  0  0  0  0  0  0  0
    3.3409   -2.5152  -18.5184 H   0  0  0  0  0  0  0  0  0  0  0  0
    3.8282    1.9971  -21.0579 H   0  0  0  0  0  0  0  0  0  0  0  0
    3.4731    1.1961  -19.4897 H   0  0  0  0  0  0  0  0  0  0  0  0
    5.0638   -4.8715  -19.4690 H   0  0  0  0  0  0  0  0  0  0  0  0
    8.9988    5.7565  -16.2635 H   0  0  0  0  0  0  0  0  0  0  0  0
    6.0526    1.5598  -19.3679 H   0  0  0  0  0  0  0  0  0  0  0  0
  1  3  2  0  0  0  0
  1  5  1  0  0  0  0
  2  4  2  0  0  0  0
  2  6  1  0  0  0  0
  3  9  1  0  0  0  0
  4 10  1  0  0  0  0
  5 11  2  0  0  0  0
  6 12  2  0  0  0  0
  7  9  2  0  0  0  0
  7 11  1  0  0  0  0
  8 10  2  0  0  0  0
  8 12  1  0  0  0  0
  9 22  1  0  0  0  0
 10 25  1  0  0  0  0
 11 29  1  0  0  0  0
 12 30  1  0  0  0  0
 13 16  1  0  0  0  0
 13 18  1  0  0  0  0
 14 17  1  0  0  0  0
 14 18  1  0  0  0  0
 15 18  1  0  0  0  0
 15 24  1  0  0  0  0
 16 26  1  0  0  0  0
 17 19  1  0  0  0  0
 17 26  1  0  0  0  0
 18 25  1  0  0  0  0
 20 23  1  0  0  0  0
 21 23  1  0  0  0  0
 22 26  1  0  0  0  0
 23 29  1  0  0  0  0
 24 31  1  0  0  0  0
 25 31  1  0  0  0  0
 27 31  2  0  0  0  0
 28 31  2  0  0  0  0
  1 32  1  0  0  0  0
  2 33  1  0  0  0  0
  3 34  1  0  0  0  0
  4 35  1  0  0  0  0
  5 36  1  0  0  0  0
  6 37  1  0  0  0  0
  7 38  1  0  0  0  0
  8 39  1  0  0  0  0
 13 40  1  0  0  0  0
 13 41  1  0  0  0  0
 14 42  1  0  0  0  0
 14 43  1  0  0  0  0
 15 44  1  0  0  0  0
 15 45  1  0  0  0  0
 16 46  1  0  0  0  0
 16 47  1  0  0  0  0
 17 48  1  0  0  0  0
 19 49  1  0  0  0  0
 19 50  1  0  0  0  0
 19 51  1  0  0  0  0
 20 52  1  0  0  0  0
 20 53  1  0  0  0  0
 20 54  1  0  0  0  0
 21 55  1  0  0  0  0
 21 56  1  0  0  0  0
 21 57  1  0  0  0  0
 22 58  1  0  0  0  0
 22 59  1  0  0  0  0
 23 60  1  0  0  0  0
 24 61  1  0  0  0  0
 26 62  1  0  0  0  0
M  CHG  1  26   1
M  END
> <OMEGA_C>
YcvFQDHeg7/nK7PB/Z0OQYPaFb6fuJzBLJuuQKq25D2zELDBa6AIQRl9cj9fSJbB8tDKQMK1BsCk
+qvBU+oXQUzOmj1D1abBDH2iQAk3Yb9ngJ7BpfAUQcQNH0CJJqTBSZ2cQHRiND7YvaXBl70LQSgy
EUBEAZrBVaG4QER5AsAgqqHBew4bQeAwsj9ui6rB07PEQFP5SUDOmIvBz1bRQKQ7jkBaLJ3Bhg3v
QCDRqkCTE4zB9iidQBDSL0DHH5LBi+y/QPHNT0DNs6PBNZLkQB93gUAjM5LBucWiQNV6dUBOhqzB
h9KkQKfoh8AvVIvBARxgQKwVW8DM8ZjBcWCIQLlftz/UwKHBEoieQEGje8AHQ5fBc0YHQYiFnkDS
D4TBFpkHQdS0V0BaeZPB356qQKYxDkD5lpzBhs0XQaXGJkAVIYHBb8UrQf0Ci0DTtYzBmULBQHWr
QcBZS5rBjT0kQbv+zT9gLrTBR/0XQW3RbkBbrYjBxb7TQC6wir+VELvBEhUMQVfYk7/y55nBqp2q
QIdWbz9okbXBTKYBQVjPRj89f47BmaDcQK3DPsBJX67B56IcQVxKQ7+pvavBxfeVQIB0Tb/keJbB
U00XQYiLX0CqBqfBwxm6QI07bkDpiITB4oXVQDe5D0A3AInBG3DqQNgRnkDG56HB1eO2QNrFpECD
xZvBB3P8QJv9wkC4hpHBxyPSQHSqt0BGOIjBzleLQMks/D9HxY3BTXuIQLL8Z0A1UZPBCU3bQCD2
MEA1q6fBpY6VQBUyQUCFZ7HBT2+IQDy4jECCzKjBXZe1QApQkEAkpbHBGqHFQBt/k8Cx/onBwnSf
QI57VcC2lobBkd+NQAu1oMB/3IjBLwJWQPhSTMCudKHByaYyQHdzhsB0a5bBK9FVQGT4IMCrJZTB
mgF1QMOf/z9/dqjBMEdeQN0ZmT/66pvB+QqiQGvjm8BswJvBIfsPQfk0uECMG4LBRq/BQOqoxz99
8ZrB/q7IQGWobr/9FrPBHMAaQcelsz8BtKrB0+yvQEbdPj4aSbDB+0QUQQFAH0C2TKTB7xbNQDI5
AMCB3KvB1aAYQSxtrz2636bBHfyfQJ8yVr+fA5/BFjgJQXqTbz+YRZbBBXmbQPY1Zz75QqbBPnML
QQO7EEDfE5rBInK4QNqF/L/01KHBruAPQbsKGL5iqJzBsh7FQG46RkBzcYvBe8jPQAErj0CKnJzB
wZXuQBtpqUBedovB5PeeQK52JkDJCpLBL1y/QA/5U0CNnKPBsA/kQAXHgECm5JHBtnWiQOB5e0CO
YKzBukhlQHgHbsAWypjBWkOsQIIMkMDuRIzB3KeHQJhwvj8fYKLBdhOdQAAQVcC/OJPB4lwHQWyU
nEDcr4PBnGUHQVUBV0Djd5PB5dKqQNrlDUBRBZ3BCjYYQfQtI0C3T4HBMqQrQVF5ikCiuYzBhIC+
QOMgQ8CYApvBvmsOQWLFtL8w35jBywoYQaZybEDFrIjBxFXYQKqFeL9tybrB7FohQaN9yj/1jrLB
YZqsQFyHgT87y7XBMw8WQVLiX0BUOqfBxXTgQETPNsCaBK7BvbUdQcjePr8hxavBlr6QQMVVSb8h
RZfB42cCQbRIQT/2do7BvNq4QCc7akDSh4TB0EjXQGZVDkBEnYjBcw7oQIrooEAmMKHBvKe0QMFq
pEDU0JrB1lT7QAhuwkDtxJDB+czRQE5qtUDKYYfBiQ+RQAzP3D/mAo7BW/mGQMneWUAJc5LBc0/b
QNkZOECqq6fBAgiWQJZYSEA7kbHBDpGHQFKsjkAQmKjBAj+1QC5qlEC+MrHBnhxPQDqDOMBMyp3B
j8hvQFJdk8By1p3By540QAKefMCKspLBf27KQJJmh8C4SIjB29OTQCJMl8ApM4bBvWixQHNarMAR
V5HB7Op1QGe1BEAiHanBW2ZbQNTboj/Mr5zBZoWXQArXHMBbHI7BdQsQQeYztkATqIHBm/rBQPCj
xD/KHZzBzALGQDh5gL9+9LLBw/QaQQZbsj/suqrBswOuQJNcED5JULDB+GAUQaIKHkA8RKTBB/PK
QN2yAsC2aavBgIwYQU6nkD0vD6fBQkmgQBPJSL/ZmJ7BaZsIQfM7Zj+wgZbBqL6aQOeLcT5gKKbB
5R0LQYWZDkDqKprBGd+3QEhm97+2N6HBq20PQU/kNL4q8ZzBlYDEQAAqR0BKe4vBdH3QQGQ5j0As
q5zBpZ7vQPTiqEDBeYvBHSaeQFYIKUCMJ5LBLou/QCyAVECNq6PBjjTkQL98gECr6ZHBH/CiQEma
fEAhcqzBhIiqQBV4ksABFI3BKppiQLV+WMDaWpfB+VSHQOPAwT9KgKLB4gugQC9yecDFy5fBWd8H
QZ9Em0CwyIPBRykHQfETVEBxdJPB62uqQN5HD0DmEp3B7sYaQWzZI0CU74HBdFQrQQlyjEBJ+I3B
vh7AQDsrN8DCX5nBJtENQScFub9GSpnBFdAYQawBbUBUQInBKaTUQPgki78UwbrB/9khQT5+yj/r
gbLBVmeqQEEOcT+fCrbB8m4WQdbzXkBXDafB8VTdQIruOsBnca3BJbIdQfU5Qb9NAKzBglySQFu3
L79zupbBVngBQb6LNT9WyY7BqXi4QBzRa0C+mITBoPjVQLWFDkCInIjBKzfpQPp0oEARN6HBobq1
QBsBpUBn7ZrBsqn8QBy/wUDAyJDBRTDTQMZbtUAgVIfBlU6PQN3j4z9iH47B2NqGQECkXUBUr5LB
OkzbQK+2N0CltqfBSjCWQM64SUAmoLHBbUKIQKidj0DMrKjB4Ae2QHSxlEBcRrHB3qXLQO5insBB
Po3BR/imQLJZdsCCiobBuHmUQItnrcCWx4vBFG1SQIcgOcAc+J7BeAI3QKpbh8BVApbBlv9bQPBB
KsBAxZDBVMN2QELtBUCQXKnB98VZQP8FqT8d55zBTnuiQD6vlMCoNp7BxVMQQYLAtEAmboHB61bB
QBbCxj+VC5zBSJ3JQD1jcb+ZDLPBJBQPQTJlFb7yopzBpEexQPajOT60JLDBTc8IQZpbcT+SNpbB
P4PNQObEAcCr7avBU3sYQdRaqj2JtqbBbtSgQP53XL/b+57BGA8VQSRkH0BSBqTBwM+cQP2rWz4r
HabBhL8LQQ0XEUCQ6ZnBK8e4QAxLAMDq56HBZ3MbQSFysz/OZ6rBBjTEQOkgSEDRpIvBPFHRQI6c
jkDWAp3BEkvuQKUiqkBHwovB8LScQG46L0CmR5LB/e6/QKHDUUBZvaPBMjjkQIQVgUBMD5LB8Raj
QAcBeUCYhqzBYwlkQBIsbsCNpZjBI+6rQHe6kMDkRozBCCOIQFKauz81LqLB1wGdQIN3VsCGQ5PB
nAgHQZHQnUCZ0oPBE3wHQYhRV0D1WJPBAEaqQGtZD0AR05zBXfgXQX4CJkDoE4HB+IwrQVpfi0B0
mIzBARW+QI1FRsCrNpvBK8MkQckN0D+wALTBGucXQfB7bkBHj4jBP1PZQButeb+QvbrBNa0MQbwI
lL8j1pnBo0quQKYFgj+mk7XBOMABQY43RD9CdI7BKIzgQOefOMBZKa7BTmodQXdoQL/Lm6vB8paR
QL79UL/QPJfBkksXQRP/X0Cl4qbBj4a5QGAoa0ASfoTBX/LUQEFiDUDjMYnBB5rqQN2snkDioaHB
Seq2QCgnpUB4jpvBj0b7QNDZwkBkHpHB1UTRQEFUtkCI0ofBFcmKQGGm+T99E47BahiIQP+pZ0Df
VpPBQVjbQPZAM0A8u6fB1OWVQGmQRUAujLHBJLqIQDlRjkAHw6jBPCO2QBxekkCQg7HBVVJOQGOZ
OMBcq53BO9ZsQF63k8CJpZ3BSNIzQEBce8A0c5LB3X3KQJt5iMDJbYjBHb6TQGVJl8DtGIbBF0Cw
QKNSrcBCS5HBvql1QM9nAkDj66jBw99cQHr6nD/cepzBBEqYQBqnHcDoM47BI6EPQSuYt0At04HB
qDfBQD8VyT8aQZvBzKXKQLHjlL99wbLBqi0SQfw2Aj6xpJ/BcIG0QMD1cLudvq/BpxEMQRDtjD9R
GpjBCQ3NQEArEMDqqKvBe64YQdo2BT9B+KnB4r6jQNovgr+5a57BAZ8SQRjINkANRqXBnc+gQOiE
ej0cp6XB0/wLQZ34HUBR+prBl0W5QMOyDMC2hqHBNu8YQRty8T/rwqzBdv/HQI5SPECs3orB1IzL
QOnNj0CsdJvBbLXrQDjzpkC934nBPB+2QPYH6D8FApLB5LelQPq/Z0CmR5/BreDiQFLPf0BAEZHB
7DR1QB7NgUBkN5rB8HKaQC47W8Cbd4nBdflbQIAyaMA3Y5rBJOaMQEcUrD+kR6LB73maQGqod8Co
OpXBEnQHQWmXmkCl4oLBtmEHQb9VXUDugZPBIkmuQB3/C0AgbZ3BSQ4cQVqGJUBMpILBOPoqQZuB
kkDbd43BO0e/QIr+UcANxJrBckYfQbllEUBCoLbBXhAZQTjAckBdLInBbdPZQFMsnL8tgbrBkeER
QdVga79HhJ3Bt5eyQMsGVj8oKLXBRnIHQVKyTT8GIJDBKETeQAoZScCdAK7BEXkdQZs0Zr4fv6/B
nKKVQNPjcL+qjpbBC9wSQZW3eUDibKfBVeqsQGs/XUB+CofBCXDcQEtgH0Cur4TBFEzjQIwFkUDC
8aHBG0a/QM80sEDW55nBtc/0QAbCwkAXxI7BjCnPQMvUrkABHoXBdyfNQLwkez+p5JHBoJGXQNlL
vT+XjI7B4r6iQJGGcUB/9qfBPpVBQI4HWkCQLp3B4l15QC0tfkA9dZHB/YFnQGAwo0BkapzBeTi6
QHSzZsD59YXB9tCSQAKcFsAb/4jBekeCQJYBgMDABIXBvVddQErvfMCey6LB1DIrQJOFhsDEBZbB
zEVMQPujI8AfAJrBE2B+QOxw7T+sR6nBPPlmQAsDkz9HZZzBMD6fQD60nsBDLZXBPTcPQWb1tEAb
i4DB9mXJQLJZ/T/yVaHBr0fIQIJyp78hALDBwO8PQdAXm72myJ7B1GW0QAAhVL2Qda/BZcUJQTzP
aj99aZfBku3EQJzKDMDaUKfBYOEWQThElD50GqnBBcKXQCixHL+t2Z3B5WcRQd0EKUAMtKTBTEWc
QNDukT56XKbB110KQUveEUCNX5rBX5+sQBwO7L9LIp7BLJQXQQgK0z8cEKzB3eTAQAvqS0Au14vB
wF3TQEbalECe5pvBg0LwQHQCp0DWyonBCnuuQI5JBkCvLpPB82WxQDvHdECfBaLBvvbjQLqIgUB7
OJHBLOKEQLaTj0AoAKHB5lSrQDATlsDtXIvBN+yAQIKOj8AaapzBVtWNQGap1j/T2KTBYd2pQPps
gcDOd5bBaWkIQQSulkD/lYLBH3IGQfMcUUCIwJLBtuqvQB8LGUAs9Z7BZo4cQSU9HUA7M4LBrc0q
QRJjjEDJ843BJPKpQJ9kJ8DuA5XBFYceQXNOAECp57XBDDEZQem4aEDX/YjBlBfaQMWYy78rDbfB
pFcPQWsMj7/ahpzBi5u3QNVvJj/v+bXBnZQEQZftIj+te4/BgeHUQMoNSsCIoqfBkaobQQif8b5T
vq7BChyEQNtqs77FDpfBZQ4SQRWta0BF96bBW56mQNBPdkCSWYnB8c3OQGzKLEAtwYTBzQ/vQFgM
mUDhOqHBWUPFQABItEBpF5rBfQn9QNHVwUCrgo7BOinUQF7TsUDNO4XB5abAQAIilj9HxJHBiNCM
QEGZ+D/D75DBKie6QJS2d0CciarBCDdaQArheEBwYqXBmpd3QERSkUCXgpjBvBGGQAMPsEDuYKTB
fZDIQFnei8BmLYfBCB2PQOgUjMDLu4bBVlyrQH4ducBMM4zBNBeAQPGbgMAAYaTB7t+AQLSVssBx
SJ3BQkFJQB6NhcDw0JfBxn+IQC3gCUCfqazB6N9fQFnN2D8cNKDBDwrGQJ+Xi8ApF5vBn+cQQXc5
r0CmZ3/BP3nLQJHX/z+ziqHBD0XLQOomtL8F6q7BJdAXQQKd6z+oxqzB3V25QPBO9r19GK/BlUsR
QbogMkC6FKXBjTHDQMTIEMAuMKbB5RYYQRSd8D7VNKrBDOCUQHL3FL8FPJ7BhjALQSi5ez8LPpjB
GUyeQBCtkD4xt6bBYssKQeDeFkCa0JrBZwGoQCiC67+Utp3BhscRQUBeKT3b8J/BVurBQDokREBW
xovBYlbRQByOlUDWR5vB757uQOLJpEAz/YjBaOCvQESJAUCmq5PBEVmuQL4XeEB1QqHBA1PjQKmK
gEBl45DBxCmBQGpajUCul57BgiKiQOJrkcDuuonBuCB+QKElksA215vB5ASRQORo2T8w0aXBKzyk
QIiff8CjI5XB7B8IQScqlEAzIYLBfpAGQdAcU0Bz35LBZQaxQNwiG0D4Rp/BTDIeQf7eHEAq9oLB
6iMqQQoTkEDsBI7BMq+gQOrpI8CrepTBhT0SQXUMo79Xc53Br3YZQTRXakDgLYnBUTDfQAjs3r/6
crXBbZocQVfKCkDxprTBWFTAQObkDT9jnbXBzkMRQRt2dUBWCKfBg7PRQG18T8DT7qXBsiMdQZmw
gb7vGrDB0XR9QHhCjL6AE5jBSW8GQR5yJz9NXZDBFTOnQCjaakC9tIjBSEHRQGX4IUDSGoXBu0Ls
QNFEmkBe06DBrb/DQM7RtECFFpnBWg/6QFcZwUAKXo3BpmnSQCx3rUBhMYTB6pbCQKWsjD8/x5LB
61eOQPRL6j/4fJHB+HyzQIthgUDN3KnBhvpRQONAdUCI86LB/dR2QMWWikAp8JXBTfZ9QGkmr0C4
/aDBBLi8QKA4hMDa/4TBu4eDQL4wiMC/C4bBraKkQLWFtMAP8YnBesWAQBhchcBCB6TBA4GBQLY/
tcBmFZzBIsxAQL/qiMAWMJjB2j+PQLaACUDD1a3Bv+piQEIA4T8E86HBoNXCQOEVicDJ0ZjBhCEQ
QVuqrEC6yn3BE67NQBqzCEDv/aHB

> <OMEGA_E>
WEiDPqjthT6g3JE+kCJuPogd0T4grwk/GAAVPw==

> <OMEGA_NBR>
     88873

$$$$
50220692
  -OEChem-04172616093D

 62 66  0     1  0  0  0  0  0999 V2000
    3.7790   -4.3651  -17.7102 C   0  0  0  0  0  0  0  0  0  0  0  0
    4.8780   -4.9499  -17.0554 C   0  0  0  0  0  0  0  0  0  0  0  0
    6.2643   -1.1552  -22.2385 C   0  0  0  0  0  0  0  0  0  0  0  0
    9.0796   -0.1054  -19.7119 C   0  0  0  0  0  0  0  0  0  0  0  0
    3.9940   -3.4337  -18.7358 C   0  0  0  0  0  0  0  0  0  0  0  0
    6.1985   -2.2056  -21.3013 C   0  0  0  0  0  0  0  0  0  0  0  0
    5.6162    0.0628  -21.9691 C   0  0  0  0  0  0  0  0  0  0  0  0
    8.6418    0.9042  -18.8374 C   0  0  0  0  0  0  0  0  0  0  0  0
    9.4864    0.2108  -21.0204 C   0  0  0  0  0  0  0  0  0  0  0  0
    6.1906   -4.6288  -17.4491 C   0  0  0  0  0  0  0  0  0  0  0  0
    4.8492   -0.8078  -19.8283 C   0  0  0  0  0  0  0  0  0  0  0  0
    9.0582    2.5673  -20.5726 C   0  0  0  0  0  0  0  0  0  0  0  0
    5.4805   -2.0271  -20.0979 C   0  0  0  0  0  0  0  0  0  0  0  0
    5.3086   -3.0991  -19.1259 C   0  0  0  0  0  0  0  0  0  0  0  0
    4.9070    0.2208  -20.7656 C   0  0  0  0  0  0  0  0  0  0  0  0
    8.6291    2.2469  -19.2658 C   0  0  0  0  0  0  0  0  0  0  0  0
    9.4760    1.5501  -21.4510 C   0  0  0  0  0  0  0  0  0  0  0  0
    6.4125   -3.7173  -18.4957 C   0  0  0  0  0  0  0  0  0  0  0  0
    6.0164    3.2462  -17.4374 C   0  0  0  0  0  0  0  0  0  0  0  0
    6.5672    4.5731  -19.5454 C   0  0  0  0  0  0  0  0  0  0  0  0
    7.5167    5.2771  -17.3441 C   0  0  0  0  0  0  0  0  0  0  0  0
    5.4038    2.1058  -18.2630 C   0  0  0  0  0  0  0  0  0  0  0  0
    5.5133    3.6875  -20.2537 C   0  0  2  0  0  0  0  0  0  0  0  0
    7.1068    4.0534  -18.1870 C   0  0  1  0  0  0  0  0  0  0  0  0
    4.1349    4.3873  -20.2206 C   0  0  0  0  0  0  0  0  0  0  0  0
    4.3543    1.5376  -20.4068 C   0  0  0  0  0  0  0  0  0  0  0  0
    8.5047    4.7972  -16.3935 N   0  0  0  0  0  0  0  0  0  0  0  0
    8.3805    3.2623  -18.3455 N   0  0  3  0  0  0  0  0  0  0  0  0
    5.4351    2.2892  -19.7468 N   0  3  2  0  0  0  0  0  0  0  0  0
    9.6856    2.5083  -16.2016 O   0  0  0  0  0  0  0  0  0  0  0  0
   10.6758    4.3357  -17.7364 O   0  0  0  0  0  0  0  0  0  0  0  0
    9.9055    1.8649  -22.6935 F   0  0  0  0  0  0  0  0  0  0  0  0
    9.5354    3.6507  -17.1119 S   0  0  0  0  0  0  0  0  0  0  0  0
    8.0552   -3.3620  -18.9607 Cl  0  0  0  0  0  0  0  0  0  0  0  0
    2.7727   -4.6327  -17.4237 H   0  0  0  0  0  0  0  0  0  0  0  0
    4.7140   -5.6479  -16.2478 H   0  0  0  0  0  0  0  0  0  0  0  0
    6.8109   -1.2856  -23.1608 H   0  0  0  0  0  0  0  0  0  0  0  0
    9.1038   -1.1317  -19.3765 H   0  0  0  0  0  0  0  0  0  0  0  0
    3.1516   -2.9711  -19.2286 H   0  0  0  0  0  0  0  0  0  0  0  0
    6.6951   -3.1434  -21.5023 H   0  0  0  0  0  0  0  0  0  0  0  0
    5.6628    0.8723  -22.6825 H   0  0  0  0  0  0  0  0  0  0  0  0
    8.3157    0.6516  -17.8392 H   0  0  0  0  0  0  0  0  0  0  0  0
    9.8056   -0.5719  -21.6925 H   0  0  0  0  0  0  0  0  0  0  0  0
    7.0302   -5.0843  -16.9452 H   0  0  0  0  0  0  0  0  0  0  0  0
    4.3196   -0.6650  -18.8979 H   0  0  0  0  0  0  0  0  0  0  0  0
    9.0658    3.5967  -20.8992 H   0  0  0  0  0  0  0  0  0  0  0  0
    5.2100    3.9374  -17.1511 H   0  0  0  0  0  0  0  0  0  0  0  0
    6.4674    2.8138  -16.5321 H   0  0  0  0  0  0  0  0  0  0  0  0
    7.4244    4.6818  -20.2261 H   0  0  0  0  0  0  0  0  0  0  0  0
    6.1116    5.5587  -19.3692 H   0  0  0  0  0  0  0  0  0  0  0  0
    7.9524    6.0556  -17.9876 H   0  0  0  0  0  0  0  0  0  0  0  0
    6.6437    5.6857  -16.8141 H   0  0  0  0  0  0  0  0  0  0  0  0
    5.9535    1.1833  -18.0250 H   0  0  0  0  0  0  0  0  0  0  0  0
    4.3526    1.9951  -17.9584 H   0  0  0  0  0  0  0  0  0  0  0  0
    5.8110    3.6332  -21.3113 H   0  0  0  0  0  0  0  0  0  0  0  0
    3.3897    3.7545  -20.7248 H   0  0  0  0  0  0  0  0  0  0  0  0
    3.8313    4.5495  -19.1758 H   0  0  0  0  0  0  0  0  0  0  0  0
    4.2030    5.3559  -20.7373 H   0  0  0  0  0  0  0  0  0  0  0  0
    4.0225    2.0679  -21.3116 H   0  0  0  0  0  0  0  0  0  0  0  0
    3.5036    1.4165  -19.7200 H   0  0  0  0  0  0  0  0  0  0  0  0
    9.0504    5.5705  -16.0706 H   0  0  0  0  0  0  0  0  0  0  0  0
    6.2836    1.8531  -20.0466 H   0  0  0  0  0  0  0  0  0  0  0  0
  1  2  1  0  0  0  0
  1  5  2  0  0  0  0
  2 10  2  0  0  0  0
  3  6  1  0  0  0  0
  3  7  2  0  0  0  0
  4  8  2  0  0  0  0
  4  9  1  0  0  0  0
  5 14  1  0  0  0  0
  6 13  2  0  0  0  0
  7 15  1  0  0  0  0
  8 16  1  0  0  0  0
  9 17  2  0  0  0  0
 10 18  1  0  0  0  0
 11 13  1  0  0  0  0
 11 15  2  0  0  0  0
 12 16  2  0  0  0  0
 12 17  1  0  0  0  0
 13 14  1  0  0  0  0
 14 18  2  0  0  0  0
 15 26  1  0  0  0  0
 16 28  1  0  0  0  0
 17 32  1  0  0  0  0
 18 34  1  0  0  0  0
 19 22  1  0  0  0  0
 19 24  1  0  0  0  0
 20 23  1  0  0  0  0
 20 24  1  0  0  0  0
 21 24  1  0  0  0  0
 21 27  1  0  0  0  0
 22 29  1  0  0  0  0
 23 25  1  0  0  0  0
 23 29  1  0  0  0  0
 24 28  1  0  0  0  0
 26 29  1  0  0  0  0
 27 33  1  0  0  0  0
 28 33  1  0  0  0  0
 30 33  2  0  0  0  0
 31 33  2  0  0  0  0
  1 35  1  0  0  0  0
  2 36  1  0  0  0  0
  3 37  1  0  0  0  0
  4 38  1  0  0  0  0
  5 39  1  0  0  0  0
  6 40  1  0  0  0  0
  7 41  1  0  0  0  0
  8 42  1  0  0  0  0
  9 43  1  0  0  0  0
 10 44  1  0  0  0  0
 11 45  1  0  0  0  0
 12 46  1  0  0  0  0
 19 47  1  0  0  0  0
 19 48  1  0  0  0  0
 20 49  1  0  0  0  0
 20 50  1  0  0  0  0
 21 51  1  0  0  0  0
 21 52  1  0  0  0  0
 22 53  1  0  0  0  0
 22 54  1  0  0  0  0
 23 55  1  0  0  0  0
 25 56  1  0  0  0  0
 25 57  1  0  0  0  0
 25 58  1  0  0  0  0
 26 59  1  0  0  0  0
 26 60  1  0  0  0  0
 27 61  1  0  0  0  0
 29 62  1  0  0  0  0
M  CHG  1  29   1
M  END
> <OMEGA_C>
xNtxQLGui8B+ro3BoBicQPhlnsCGcYjBynTIQILek79e6LHBJEYRQVTh170Jsp3B/Jx/QEzBW8Dr
4pXBGlrGQKQoDcAPaarBxLezQCiagD3JwK/BvEQKQcB4Zz/nspbBGsgXQTzeVz6yKajBMBnGQOke
lMDEl4vBcCybQH7KTr9XoJ7Bi+4QQcBOJEDDlKTBlmCvQPG7AcB+yKDBEuCpQNhWRsDJAZnBIAad
QCgYYj7vH6bB/RAKQZrMD0BEIJrB1p0XQeFqxj+Qm6vBSjPNQM7nbcA195PB+oXAQBjBT0Dbf4vB
dCbSQPFWkkASXZzB9ojwQDXeqECswIrBlOusQCLFBkCoGpLBKG2wQCgAbECiB6LBxmrjQKC1gUDo
fpHBBVGEQF9kjEC5w6HBjlaLQLLPxD8bQaPBTxMIQcGCmUD8JYPBWhYGQTbJUECGw5LBnOytQKKC
EkB9+Z3BCvgaQTSIIEDMnIHBLdAqQV2+ikAP5I3B03weQde17j8+jLXB9pAYQUqlaUAp5YjB9+EA
QdIrV8CLr5fB6XMxQA4/lMDSY4vBb9mWQN27tMBq+4HBlvLZQOSOpL85SbnBTakRQYrbkL/7ApvB
2rNJQD8mPsAs1JnB3j3WQCktScDCBKzBvTW1QEtQXz/EdbXBRQ0FQWbMJj+4to7By+McQVhpEr9L
iq3BPvfgQNmyosDBj4fBUjqKQHA7Kr/0LpfBYQ0RQd8wZkCBMafBiLimQAn/e0CGNYnBw/TOQNUV
NECvQYTB4ZTtQHDRlUAgz6HBdpLDQPzgsUAv9JrB9Xn+QKHHwUCj5o/BGJnUQFLxtUBHg4bBcYO+
QMp0lz8eM5DBRkiLQBFg/z/kqo/B2fO5QFeGaECDfarBNfBYQH1JcEBezKXBPzN1QN2VkUAcaJnB
U3+GQM1jq0D+5aXBDbiAQNFYBEAXfqrBuztgQGJPtT+Kwp3BXs4QQXtBskCikIDBkBPJQMgz7T90
X6DBzwx8QA6HiMANjYnBBlCiQIT6ncAOnYXBJaW/QBYgyL8qPrLBEhIfQU28yT9fTarBvACCQGgB
V8BFGZLBYQq9QHFZIcBr+anBESyxQAIier7fg7DBkwsaQa9OJkBy8KLBt+cVQR6omj7tGqnBNIDK
QD3nlsBFUorBaGecQNTTV791UZ7Bo8gDQcGGhj8t4pjBEyCsQCAbCsBT45/BMieqQHOZSMDi+pbB
qD6fQBAn9D3rkKbBnOMLQeQUFkD+W5rBIl0IQfymYj3RYKDBOsPOQD2fdcBbDZPBR2PDQOM3QkDL
UIvBpOnQQCyCkkCi35vBu5zuQDaqpUC8k4nBM9+qQJasAkDCo5LB0NqpQGpFdEBKlqDBhpbjQMEB
gECpHJHBk9x9QLpnjUCFhZzBR0qPQD8lxT8Cz6TBz7wGQb9klEAB6oHB6G0HQcUmVkCH8ZLBdY2t
QEnzFkBRSJ7BMIkaQaeTFkAcBoLB3RQrQZgAjECX0IvBtgUAQQATk78GCJ/Bbn8YQV1lZkCUKIjB
SfsAQUtdbMBPipjBqRc+QKBXjsDuAYbBZkefQGzhs8BJ8n3BYsPMQGew67/E67nB1u0pQR/a4j9i
1rDBaj5MQBYnNcCB9JTBkfbHQMb/YcAXWavBv9GzQGV8+j520rbBHQwhQS4QZUBY3aPBaj8ZQcTs
9L7C1q7B4FrmQOgnp8ALN4fBuR+OQET9Er8CwJbBahT0QIIrUz8v+5HBeZSrQFPXaUBgIofB3JHV
QNmDHECsb4XBzJ3qQAD6kUBm4qHB7A/HQPfHs0BTZZrBDtr8QG07wEAoH47BKLzRQBv8sECNaoXB
0jK4QCWchD/+X5HBwvOIQJE0A0DxSZDBnLCqQB3qfEBoUanBBgBIQCn8dkBu/p/BeEN7QLsvi0C9
vpPB+J15QE0sr0Dn8p7BSh6LQP+CAUDopKzBQJhgQJu2vz+GpqDBprkOQbeRrEAwCn3B//TKQBbN
BUBTmaDBhaaRQLrBp8C49pHB0v6oQHSso8DvYojBiorHQHIFsr+InbDBAbkWQeDV4T94kqzB//WP
QLFwhcCxKpnBbk/CQGnuFMBJV6jB6wa1QOAY8b0Loq/BvGgQQTAeLkB+8aTByEgXQVCMzD7G0KnB
D2m8QJPXeMCmsoXB6qGXQBS1Or/eMJ7Bfk4LQZjjcj+nw5fBJkyqQIfE/r+dKp/BiEWlQBgJPsCs
u5bB3kydQBD3Tj42aabBjHkKQVgqFECziZrBY4oRQQDRDrwgap/BwK65QNzuMsACvozBOh3BQA7O
Q0CueIvBNEvQQAlWk0A6UZvBNsntQKvxpECgO4nB+mqvQHTy/D8wBJPBa1+uQGLacEA1TaHBtIbi
QJpVf0CL1JDB8xCBQNb4ikB4cJ/BQpOOQLYRyz8et6TBQuEHQX6ClUCaUILBVDEGQfg/UUCespLB
aNevQO5lFECPtp7BlLYdQfjxHkDqi4LBkeMpQURsj0B4Jo7B7S4SQQLEqL8swZzBqx4ZQQK9akDo
GYnBHvbQQIwCor9EHYnBRBmBQAw9xcDvwJPBUwqsQLnBvsDWEoPBK6rZQIn90r91rbfBUSMbQQXv
BEC2irTBvrR8QNR8iMDpj6DBt67QQJ6RU8A7AKnBK/i4QEbRHD/n67XBzhkQQegicUBSDafBNx4c
QaBQq751rK/B/WbNQLxhcsB6b3zBXhOFQBXE875vMJfBmScHQf7rIj8iwo/BWDumQFJEa0A/p4jB
41jQQMcNJEAumoTBy0brQKeVmEBj0KDBEZ/BQABGskDGRpnBw9b4QGnLwEDX2Y3BoqfRQI74rUDp
coTBsLLCQMaCiD8f5pHBvRaOQN8c4z/zsJDBrCu1QI2Wd0AR5anBXcpSQM7jbkAzwKPBiX5zQMyU
ikAM1ZbB4rF/QJwVrEDCaKLB5C+JQKa6BEAHfazBDSNhQO5pyj9vHaDBXe8PQVaPrkBFx37BJuXL
QJ5P/j+/f6HBTBOOQId6psCiCpLB3r+nQOTGpMAay4jB6E7IQNWvrb+jr7DBpCwRQQCNJL2AEJ/B
RseNQBzdg8AJLZnB1pLDQKiAE8AIeajB0j61QDAqvr3rmq/BW+sKQb6Nbj99iZfB0mIXQQS1tD5F
b6nB5PS+QLrNfsAYUobBhnOYQG/oO79YKp7Bn80QQbTeK0BRxaTB4JarQJBO/r95QZ/B+oemQJi+
PsD18JbBpHedQBjSUz68WKbBQGwKQVzhEkC5aJrBjkAXQffT2z+gRKzB5Gi9QDz8N8A7Po3B2ebA
QJK4RUC8fovBwtzQQK0rk0C5gpvB0EbuQDmApUB2donB3AqvQENm/z8J6ZLBicGuQKB/cEDsbKHB
wLbiQB7ff0BJ75DB3KOBQJV6i0Asu5/BbjWOQFWpyj80jqTB9eMHQbjrlUAcbILBvS0GQXK4UEDI
qpLB2aGvQERSFEBUpJ7Bf4MdQcArH0AXbYLBFfYpQcHojkACLY7BC7MdQb6kBkCZHrbBQxUZQbqN
akAqFYnBgD3YQHg+s7+ow4nBTVl1QIJcwsAtopPBnqmpQHg+wMBMkoPBOXnaQHqrzL/TxrfB8TUR
QUHxir925JzBqjt1QCY5hcC0W6DBAU7SQNe+UcBaN6nBes64QB9TJT9e2LXB2HwGQQzYIT+ZiY/B
QT8cQXQOyL6TNa/BnO3RQALue8AyN37BywmGQGgV/b4ZHJfBkLwQQWS/bkAQ9KbBviWmQPcSbkD6
zIjBZNXPQG2lJkBuiYTB4fvrQN7Ol0C//6DBhHvCQLRgskC+mZnBqun5QNTkwEBdKY7BOyPSQJdA
r0B3xYTBxiLCQKrEij+GrZHBfqiNQBnt5j+/k5DBWtK1QMbcdUAvBarB1LJTQGPXb0AG/qPBPSl0
QETTi0AMI5fBNOmAQM1frECQ26LBHzWIQILCBEAeSazBHfFgQAlDyD932Z/BTAMQQYfgrkBx/H7B
HpXLQJc2/D+vX6HBwpTRQNmWksDGZIzB+JqpQHjsnsBeNYjB26PIQJG4k7/MBLLB5uMPQbCG+r0C
4p3BvKvTQLl0acA2x5TBiXvHQNmcDMBGc6rBdFqzQNhxYT0636/BEbAJQVjxZT9Iw5bB6tEWQRL6
Tz5kSqjBm5aDQO79jcCEg4zB4m+cQGLbTr+YlJ7BDl8RQVF3JEAid6TBtICwQEq4AcB+0qDBPbmt
QG3ERcDc5ZjBOEidQK7PWj66JqbBwDwKQezXD0AOEZrBQ4UXQfhrxj9YlavBlWiFQL8NYMDg35TB
SLTAQKZwTkAKfIvBZPvRQDr0kUDQXZzBxePvQFzaqEBAsorBewGuQEayBEAWI5LB5j+vQIxJbEBu
y6HB6E7jQL6HgUDkdJHBzv+CQBTqi0C4zqDByXuLQACbwz8mPaPBTScIQRYhmkCqOoPBUykGQWbr
UEACt5LB0QmuQF0pEkBI/p3BTlocQS59JEBK3IHB8oYqQT9rjUAUcY7Bm2geQXwm7z/mhLXBNPIY
QfjkbEDkJonBPacqQCWYOcB8UZrBQ6TuQNoWoMApKInBaByoQLV2tcBrq4HB2NHZQD0ypL/QcbnB
yFUPQVTSk79cXZvBk0nyQP35VsC0DZjBJh3YQKvoR8DZAazB4fKzQFR3Wz+Jp7XBg4EEQT/nJT9f
xI7B55cbQaJtFL8ivq3B5PhJQKsNmMBzYonBb2GMQJ//KL+FBZfBjRwSQeqPZkA696bB0nOmQNLP
eUAFQYnBZijPQFRkM0AsNYTB8DvtQHlMlEDD56HB9lbEQLH5sUDTDZvBKev8QDg2wkCJ24/B/eTT
QM0ltUAaVobBY9DAQD6VlT8cbJDB/7CMQKeU9T9ZlI/BIge3QGm+akD8X6rBEzZVQPC0b0BlsaTB
89R1QAr4j0CITZjBc/2DQE5sq0ACuaTB9aWAQP29A0AKdarBZ8ZgQP58sz92tp3BtKIQQSFAs0Bq
qoDB6EbJQAOC7z+ElqDBAzPSQIeOlMCaBY3BE5uqQPqen8B1bIjBJJrIQFzej7/qCLLBqGQXQTqR
xj8XwavBcdfTQC87bcB4Y5XBmJXHQEY9C8A/iqrB1xazQBBBoT3J0K/BwAMRQbSZJEArsKTBiFUX
QQRdVz4IVajBe32EQE1vjcAnVIzB3JucQDd9Tb9xjJ7Bpk4KQbPbaD95ypbBraSwQHtGAcBf4qDB
0u+tQEIjRsAXCJnBuRCdQJB1ZT45FKbB9kEKQbNEEECyNJrButkQQUgf371S2J3BNeGFQIVtXsCa
o5TBWyXBQCNhTUAmaovB9mHRQEb0kUBuT5zBr+bvQBCZqEC2rYrBFTmuQFL7A0C5E5LB9BeuQITV
bEDllaHBI0TjQLdjgUBOdpHB89+BQK/qi0AyOKDBuPOKQLQCxD9RGaPBexIIQZ2emUAxMYPBNzoG
QRh3UUBD25LBmoetQDF3EkDv6J3BogQcQf/VIkBI64HB/J0qQaX7jEBZQo7BzFkRQY4Wsr9feprB
dtwYQejwa0CtIYnBAuAqQHJgNcCok5nBelHvQBUYo8CYHYrBVXmpQLoktsBg4IHBWtvZQDfrnr8r
drnBllQcQX4A5j8xzLPBgCTyQCQrXcDABpnBl03YQCRORsBfLKzBBHqzQHbUYj/HjbXBMkkRQQeC
ZkC8SafBtUEcQUzLEr9Lvq3BSDdMQE27lsDu7YjBrN2MQF38KL8v8ZbBkFIFQTlRKT+Swo7BJ++m
QHJVeECUCInBPhzQQM7wMUDKOYTBOkvsQF8OlEBV9aHB6hfEQIAXskAt85rBxh/9QDbwwUCH0I/B
qubTQOX8tEBjVobBNUTBQFM/lD9/gZDB3xaNQJ0a8z9eaI/B2Oi0QKMwbED2N6rBCE9SQEXtb0Bk
AqTB42h1QGdyj0A6ppfBzEyCQGimq0C3BqTB34B/QH4EBEDkRqrBOSRgQPG3sj91hZ3Bb5EQQUCi
skBGk4DBy77IQMue8T9koqDBKcjEQIw5ecBn/IbBWrSzQGgfpcBkeonB2ebHQLKZob+3ObHBjhsX
Qek70D8gD6zBGUa/QETKNMDYIY7B0ZrDQBgQEcBrbanBak60QEAjg7ygma/BDcoQQQxAKECSz6TB
DlgXQUB/jj4k0qjBgu+aQEnPqsDcypLB14WYQLLDRr/YXZ7BrsgKQc7abj/0FpfB/JWrQDJHAcAT
D6DBjiepQNooQsC8zJfBaaqcQEhAWj7FMabByHsKQZhIEkDMT5rBCysRQeDvi73XVp7Bz+aUQKZ6
iMDV45nBbJbBQEwdSECvcYvBJR3RQJvTkkCqypvBc9DuQEf6pkDT6InB8H+vQOSaAEDBlZLB8o6u
QJ4lb0CGbaHBLyrjQN2sgEBBIZHBV8iBQBqgi0AGzJ/Bb6+MQCGQyD9K36PBMgwIQfAGmECfuILB
am0GQWJsUkAc0JLBpfuuQCRqE0CsWJ7BqiMcQTTuH0BsBYLBKK4qQconjUDH3I3BbaMRQTBArr+Q
MZvBNfAYQfa7akDw8ojBls5oQJ/5jsCTMaXBsxDWQMvHb8AFMn/B3525QHHuv8DNOoTB7SPaQEFz
ub9PabjBBMYbQTkz8j9NGrTBLOzLQOGZ7L+8OYzB1a3SQLOMTsCkmarBkVq3QC5XQz8EibXBCsMQ
QSh6akDGSKfBKEIcQZsR+77IXq7BLZuMQGeIycDoeJTBtdGGQFnHFL/QHJfBLxwGQR1iKj83DY/B
z+WmQBTocEBY0IjB9czQQKR4KkA0bYTBWhLsQIuQlkBgX6HBzRjDQPNgskDFE5rBg7H6QHjEwUDL
yI7BAKXSQHlosUBxUoXBOgTDQIXOjT/kUJHBSWSOQMQJ6D9KC5DBP2C1QIhsckAtDarB7ypTQLy8
b0Aw2qPBrwp1QIwqjUDkMZfBGGWBQGEdrECVLqPBC1SEQEsHBUB5YKvBCnlgQMD1wD81tp7BcG8Q
Qe0vsUC9GoDB+XPKQE6n9z86M6HB

> <OMEGA_E>
yN0XP1RRLT+Wfyw/NDInP1R5Fz9ArBk/qFUlPw==

> <OMEGA_NBR>
     96178

$$$$
50220690
  -OEChem-04172616093D

 66 70  0     1  0  0  0  0  0999 V2000
    6.1937   -0.9441  -22.4577 C   0  0  0  0  0  0  0  0  0  0  0  0
    8.8742   -0.2238  -19.4766 C   0  0  0  0  0  0  0  0  0  0  0  0
    5.4379    0.1793  -22.0736 C   0  0  0  0  0  0  0  0  0  0  0  0
    8.4920    0.8950  -18.7117 C   0  0  0  0  0  0  0  0  0  0  0  0
    6.3659   -2.0161  -21.5614 C   0  0  0  0  0  0  0  0  0  0  0  0
    9.4561   -0.0428  -20.7465 C   0  0  0  0  0  0  0  0  0  0  0  0
    5.0714   -0.8186  -19.8834 C   0  0  0  0  0  0  0  0  0  0  0  0
    9.2547    2.3759  -20.4966 C   0  0  0  0  0  0  0  0  0  0  0  0
    4.8648    0.2286  -20.7875 C   0  0  0  0  0  0  0  0  0  0  0  0
    8.6796    2.2012  -19.2226 C   0  0  0  0  0  0  0  0  0  0  0  0
    5.7877   -1.9584  -20.2798 C   0  0  0  0  0  0  0  0  0  0  0  0
    9.6446    1.2577  -21.2562 C   0  0  0  0  0  0  0  0  0  0  0  0
    3.9545   -3.1882  -17.2748 C   0  0  0  0  0  0  0  0  0  0  0  0
    5.0618   -4.2116  -16.9266 C   0  0  0  0  0  0  0  0  0  0  0  0
    3.6270   -3.4398  -18.7537 C   0  0  0  0  0  0  0  0  0  0  0  0
    5.3645   -4.9606  -18.2390 C   0  0  0  0  0  0  0  0  0  0  0  0
    6.1330    3.1335  -17.4296 C   0  0  0  0  0  0  0  0  0  0  0  0
    6.5096    4.4508  -19.6055 C   0  0  0  0  0  0  0  0  0  0  0  0
    7.4770    5.3071  -17.4802 C   0  0  0  0  0  0  0  0  0  0  0  0
    4.9261    2.6577  -18.2552 C   0  0  0  0  0  0  0  0  0  0  0  0
    4.9502   -3.9739  -19.3252 C   0  0  0  0  0  0  0  0  0  0  0  0
    5.9781    3.2783  -20.4545 C   0  0  2  0  0  0  0  0  0  0  0  0
    7.1270    4.0224  -18.2522 C   0  0  1  0  0  0  0  0  0  0  0  0
    5.0773    3.8899  -21.5552 C   0  0  0  0  0  0  0  0  0  0  0  0
    4.2316    1.4730  -20.2752 C   0  0  0  0  0  0  0  0  0  0  0  0
    8.4954    4.9251  -16.5150 N   0  0  0  0  0  0  0  0  0  0  0  0
    8.4497    3.3287  -18.4331 N   0  0  1  0  0  0  0  0  0  0  0  0
    5.3191    2.2164  -19.6057 N   0  3  2  0  0  0  0  0  0  0  0  0
    9.5047    2.5723  -16.1528 O   0  0  0  0  0  0  0  0  0  0  0  0
   10.7409    4.2773  -17.6482 O   0  0  0  0  0  0  0  0  0  0  0  0
    5.9999   -2.9716  -19.3875 O   0  0  0  0  0  0  0  0  0  0  0  0
   10.2224    1.4359  -22.4652 F   0  0  0  0  0  0  0  0  0  0  0  0
    9.5084    3.6876  -17.1086 S   0  0  0  0  0  0  0  0  0  0  0  0
    6.6415   -0.9838  -23.4397 H   0  0  0  0  0  0  0  0  0  0  0  0
    8.7212   -1.2205  -19.0897 H   0  0  0  0  0  0  0  0  0  0  0  0
    5.2978    0.9999  -22.7616 H   0  0  0  0  0  0  0  0  0  0  0  0
    8.0551    0.7560  -17.7338 H   0  0  0  0  0  0  0  0  0  0  0  0
    6.9408   -2.8813  -21.8570 H   0  0  0  0  0  0  0  0  0  0  0  0
    9.7579   -0.9004  -21.3295 H   0  0  0  0  0  0  0  0  0  0  0  0
    4.6794   -0.7499  -18.8794 H   0  0  0  0  0  0  0  0  0  0  0  0
    9.3966    3.3711  -20.8915 H   0  0  0  0  0  0  0  0  0  0  0  0
    3.0652   -3.3537  -16.6489 H   0  0  0  0  0  0  0  0  0  0  0  0
    4.3190   -2.1606  -17.1295 H   0  0  0  0  0  0  0  0  0  0  0  0
    5.9621   -3.6941  -16.5639 H   0  0  0  0  0  0  0  0  0  0  0  0
    4.7073   -4.9134  -16.1574 H   0  0  0  0  0  0  0  0  0  0  0  0
    2.8241   -4.1844  -18.8580 H   0  0  0  0  0  0  0  0  0  0  0  0
    3.3296   -2.5071  -19.2553 H   0  0  0  0  0  0  0  0  0  0  0  0
    6.4353   -5.2005  -18.3152 H   0  0  0  0  0  0  0  0  0  0  0  0
    4.7755   -5.8872  -18.3060 H   0  0  0  0  0  0  0  0  0  0  0  0
    5.7637    3.7198  -16.5753 H   0  0  0  0  0  0  0  0  0  0  0  0
    6.6755    2.2504  -17.0612 H   0  0  0  0  0  0  0  0  0  0  0  0
    7.2820    4.9759  -20.1867 H   0  0  0  0  0  0  0  0  0  0  0  0
    5.6740    5.1368  -19.4022 H   0  0  0  0  0  0  0  0  0  0  0  0
    7.8682    6.0721  -18.1671 H   0  0  0  0  0  0  0  0  0  0  0  0
    6.5877    5.6980  -16.9641 H   0  0  0  0  0  0  0  0  0  0  0  0
    4.4477    1.8165  -17.7321 H   0  0  0  0  0  0  0  0  0  0  0  0
    4.2097    3.4873  -18.3474 H   0  0  0  0  0  0  0  0  0  0  0  0
    4.7926   -4.4801  -20.2890 H   0  0  0  0  0  0  0  0  0  0  0  0
    6.8418    2.8181  -20.9566 H   0  0  0  0  0  0  0  0  0  0  0  0
    4.6739    3.0859  -22.1884 H   0  0  0  0  0  0  0  0  0  0  0  0
    4.2472    4.4388  -21.0865 H   0  0  0  0  0  0  0  0  0  0  0  0
    5.6707    4.5801  -22.1729 H   0  0  0  0  0  0  0  0  0  0  0  0
    3.8152    2.0632  -21.1048 H   0  0  0  0  0  0  0  0  0  0  0  0
    3.4320    1.2319  -19.5592 H   0  0  0  0  0  0  0  0  0  0  0  0
    9.0551    5.7261  -16.3024 H   0  0  0  0  0  0  0  0  0  0  0  0
    6.0370    1.5369  -19.4540 H   0  0  0  0  0  0  0  0  0  0  0  0
  1  3  2  0  0  0  0
  1  5  1  0  0  0  0
  2  4  2  0  0  0  0
  2  6  1  0  0  0  0
  3  9  1  0  0  0  0
  4 10  1  0  0  0  0
  5 11  2  0  0  0  0
  6 12  2  0  0  0  0
  7  9  2  0  0  0  0
  7 11  1  0  0  0  0
  8 10  2  0  0  0  0
  8 12  1  0  0  0  0
  9 25  1  0  0  0  0
 10 27  1  0  0  0  0
 11 31  1  0  0  0  0
 12 32  1  0  0  0  0
 13 14  1  0  0  0  0
 13 15  1  0  0  0  0
 14 16  1  0  0  0  0
 15 21  1  0  0  0  0
 16 21  1  0  0  0  0
 17 20  1  0  0  0  0
 17 23  1  0  0  0  0
 18 22  1  0  0  0  0
 18 23  1  0  0  0  0
 19 23  1  0  0  0  0
 19 26  1  0  0  0  0
 20 28  1  0  0  0  0
 21 31  1  0  0  0  0
 22 24  1  0  0  0  0
 22 28  1  0  0  0  0
 23 27  1  0  0  0  0
 25 28  1  0  0  0  0
 26 33  1  0  0  0  0
 27 33  1  0  0  0  0
 29 33  2  0  0  0  0
 30 33  2  0  0  0  0
  1 34  1  0  0  0  0
  2 35  1  0  0  0  0
  3 36  1  0  0  0  0
  4 37  1  0  0  0  0
  5 38  1  0  0  0  0
  6 39  1  0  0  0  0
  7 40  1  0  0  0  0
  8 41  1  0  0  0  0
 13 42  1  0  0  0  0
 13 43  1  0  0  0  0
 14 44  1  0  0  0  0
 14 45  1  0  0  0  0
 15 46  1  0  0  0  0
 15 47  1  0  0  0  0
 16 48  1  0  0  0  0
 16 49  1  0  0  0  0
 17 50  1  0  0  0  0
 17 51  1  0  0  0  0
 18 52  1  0  0  0  0
 18 53  1  0  0  0  0
 19 54  1  0  0  0  0
 19 55  1  0  0  0  0
 20 56  1  0  0  0  0
 20 57  1  0  0  0  0
 21 58  1  0  0  0  0
 22 59  1  0  0  0  0
 24 60  1  0  0  0  0
 24 61  1  0  0  0  0
 24 62  1  0  0  0  0
 25 63  1  0  0  0  0
 25 64  1  0  0  0  0
 26 65  1  0  0  0  0
 28 66  1  0  0  0  0
M  CHG  1  28   1
M  END
> <OMEGA_C>
yzLGQCivcb9PqbPBuvwNQRg3Zb4R0JvB7QKuQLamNz6qlrDBN98HQUweZT98sZXBbLXLQEwIAcC+
fazBXUwXQVBhL73L+KXBUUmiQLSQUb8qEZ/BHxMUQZ4OGEAa+aPBOaybQMQfaj7VTKbByd8KQRTh
DEDcx5nBgzS5QAat+r/3PKLBVlAaQUj7oD/EDKrBlRZ9QHALTMC/MorBCvqhQETFhsDFaYfBlCFo
QKclXMCYB5bBl6mrQKC9nsBn6ZHBT0HEQPeLSEDmb4vByU7QQEBtjkD/15zBjUPvQO7TqUBk14vB
eqKdQFEXKkCuCpLB+WeeQD9UfsD9mZrBdEy/QLTPUUDCoqPBRhDkQGi3gEBxBJLB9niiQJv0eEAf
cazBSGmHQD+KvD+PM6LBFO0HQX6anUClHoTBJjIHQf8IVUADd5PBJTaqQN/YDUBy2JzBERMYQQah
JEDmOIHBqtorQWffiEBuL43Bbv+/QG0uPsCOGZvBEo8jQVfKtz+1uLPBRiIYQTgCbEBk3ojBCIfU
QBXYe79whLvB6YkLQYk4nL+pt5jBuoepQMb7fz/OF7bBsOEAQfOHQT/X3o3B4RreQGNnOMAc267B
VCAcQYmAZr/MoqrBCb6VQMn2P7/7CJfBiVgWQWW/V0C8IafBQixEQEKjVsDpMIXBoDWKQPZGCsAs
CYnBpsm+QGRrbMD3goTBR6KWQJ06ncBHQoHBQr40QITmhcAv3ZbB3RdVQBV0IMDICprBvu3NQJZq
psCHhZLBkdCYQFdkvMDEcpLB92+4QMsQbkAnmoTBcZ3VQDoGEEBpfYjBzQXpQGU6n0BXfqHBvpG1
QGxgpEDDN5vBGcj7QGVOwkApVpHBfc7SQGBWtkB0tofBPFOOQJSE6D9o243BF7aGQIowX0Bmx5LB
XV2ZQNRcj8DlT6LBZvDaQINcNEAyp6fBl5CVQIZ/RUDDgbHBreiHQFEKjkAvsajBIHa1QCOQkkAo
YrHBqyx0QP0LBECQ1qjBoaZbQJWunT9JeZzBreEQQQM8t0Bha4LBJC/BQDK6xD/WoZvBX83MQDjW
aL87qrLBMhAQQUhyGL5qsZvB0kCzQNAtRj4h1q/BMn8JQfIbdj9Sk5XB/wvQQG7GAMCstavBD9AY
QSAAMz2b96XBn/+hQA60X79n7Z7BfisUQRATHUD9E6TB3eGdQMBWTD7b66XBJIMLQYw6EUC0yJnB
02+5QNIHAcAN+aHBa8waQTdOrD+JKarB3G65QB2OgMA2cIXB5FGrQNY9qcCZf4vBcqKdQDzHOMAN
4InBCbGKQM6LmsCm6ZPB63nFQIaRSUCjRovBDiLPQKowjkCR5ZzB0trtQIDLq0CcK4zBlXKfQKoc
JkDnqJHBfWqTQKBFVsA/QJXBNJu+QNQ8UED0gKPBnc/jQMPFgUBqF5LBbU+gQIKAdUBJJ6zB5IOI
QDs1tT9VwKHBzM4HQbynoUD2mYTB8FMHQeBhWUC8i5PBljOrQMpXC0CDlJzBfhkaQXQrMUBbdoHB
wogrQQqGj0CcNY7BGOu4QE/LSsCA/JvBwF8jQV/PxD92+LPBlKwYQe91dkCUXonBH+zdQO0Sab+c
K7rBxGMOQZXakr/GgZjBpg2wQKbogz/WPLXBd+wCQW9uUD8VrI3B6ePjQA+5NsCl2K3BtP4dQT5n
Tr8hoKrB6iyTQFsGVb8rIZfB0bkVQa3cXEBIUKfBZg20QOxbhMB6lnnBzX3bQIPUc8C36obBawHH
QDdZuMD6Z4/B6HOcQI4jwMCH8YXBBTKAQJtiMcDpI4XBP0qvQDXB97+x84nBLpePQHafq8B5gpvB
yZ1TQKX1n8BjFJHBGgG5QLydb0Bzj4TBLCjYQMdgE0B6J4jBkDLnQI5En0DJsaHBrv2zQEafo0DT
QZvBnsf4QBpYxEDZ2pHBt0jRQGRnt0CF7YfBFG+SQKHQ3D+mX43BHsaGQEohWEAVNZLBU29uQEyq
NMCmbZjBqDvaQJlGNECFsKfBgJyTQC4qQUABHLHByaiFQBCji0BUQKjBQSqyQOpDkUB5PLHBhVJ0
QKF1/z+NT6jBijBfQHI3kz8k6ZvBVD4QQWIxvEC+HoPBKs7CQF3IwT/tkZvBTBnFQGcnZL8MtrPB
X3waQYuRpT/0gKrBM6GrQFjVWz4O47DBk9MTQfYcGECZI6TBEVnMQKWu9b9UPKzBUmIYQTwRw7yB
qqbBqtegQHTjO7+/Ip/B95kIQecWUz/kI5bBYQiZQPjKjT6DoKbB38sKQUd9CUD/95nB31O6QI46
6r+57qHB9X0PQRlVhL7pepzByaFtQIR6X8Aqr43BxdCcQIuuh8BId4jBq1J1QBNTccBVtpnB4VO2
QFaSm8CQwpHB2dDDQPQoQ0AahovB14rQQJ6PjUCNppzBxwLvQJ/epkDFZYvBsy+dQCHwJkC2MpLB
t+SqQLuPf8BNXJvBFxy/QLolUkBFsaPB48XjQLz0fEA33pHBA36jQOGde0BMkqzB3TiFQO/4wz+Y
q6LBSMkHQdeomUD2yoPB1eUGQVGNT0CMVpPBDdeoQJIQDkDcLJ3Bl9QaQZJNIUDSz4HBABYrQc2i
ikCiGo7BCBrDQM0/McCYVZrB9i0OQTe7wr/nq5jB7a4YQcSjaUBjPYnBpw7TQKBsc7/EmbvBuTUh
QUJ3vD9DVbLBs1umQISXgT9Uj7bB3KMVQYjEWEB2DqfBlqffQN2CMcCCZK7BNpcdQUzPWr9niKvB
7jmTQEoTK79DNpfBXKYBQZzKJD8WXY7BL3cwQJj6d8DflYrBNBlyQJVfGsCIGYzBWQKxQKBqYsBj
84PBuQqRQDfZoMAkEIPBWb9QQDJflcAL9JvBfaNeQMRXOsCXa57BIOfYQARUmsCMI5DBHJisQIv3
vMCEG5PBLSi4QPc1Z0C/jITB3PbUQOOxCUC+yojB46vpQNBhnkCnJ6HBkiK2QGTNo0C075rBMIn7
QO75v0AntpDBoJXSQFDqskCnK4fBEwuOQGOu3z8sPY7BXEaGQB1KXEASmJLBaUGxQBaFkMDL76LB
urfaQGABNECapKfBoWeWQHNaSUDmyrHBZAuJQFHKj0A+5ajBs2a3QJ60k0D6VbHBtApyQHLDCEAG
WqnBm/RVQNJHqD8oEZ3B8D4QQfROs0D5joHBWxa/QBdgwT/uOpzBnHnMQBv5YL8Vq7LBTd0aQcpu
qj8KQ6rB6YyyQIyaXD4X16/BEvMTQTAGHED6OKTBYEjQQMQM/b+XsavBmYgZQXCICj0D8KXB/BWi
QHGOWb93357BrQkKQWWAcj+VkJXBkledQNT6YD4W5qXB0nULQWojEEAI4ZnBctq5QFI1/r8076HB
IiARQRTOIr6+l5vBlYy6QEGngMBHhIXBWOGrQI06qcDziIvBaaCeQEu/OMDV1onBg6GLQCE1msDL
ApTBiFjFQNUrSUAVUIvB5yTPQPowjkAm7JzBfA/uQPZIq0A1KIzB1NqeQKBuJ0BwppHBA1OUQNNp
VcDmO5XB9XC+QLdfUEDRgqPB88DjQHp8gUAEIpLBVu2gQNe8dUA7UKzBMquHQBiitz9JvqHBIaoH
Qf9QoEABioTB/ToHQWkkWEDKnJPB81uqQM1fDECMkJzBvkAcQfaIMkA1EoLB/toqQQiskkCcCY/B
E8e5QDb3SMBa9ZvBA2cQQfKGs7/vWZfB2xkZQbkleEAKz4nBUnXdQCxJYL9tMbrBpzEhQesnvT89
N7LBTe2uQCAthj8ZRLXBoCYVQVC3W0BNhqfBcWzkQGEGNMAR1a3Bo/UeQcReUL9HjarBLIKTQM48
T7+3C5fBXYUDQWhqTD/apo3BSq+1QK55hMAVtXnBSYrcQDtMdMDJH4fBxGLHQG7fuMDFY4/BhYuc
QMjAv8DZ9oXBVzyBQHHaMcDoEoXBBDewQAeI97/K2onBReSQQCMEq8BPoZvBGEFVQB3An8BwSJHB
uWu5QEXmbkDygYTB5MnXQF0vEkCrUojBGkrnQPQon0AQuKHB1h+0QJbDo0CbRZvB6JT5QBzKw0Cd
x5HB4H/RQIM7t0Ay+IfB2EyRQLp64D+DXY3BbLOGQMt3WkCpLZLBNSRwQH2jM8A3WpjByB7aQIhy
M0AokqfBUSuUQFhaQUCDQLHBlkeGQKNDjEBZjajB7mGzQFvwkEBDYrHBxKtyQFPrAEDBTqjB821d
QJBllT/T6pvBja8PQaLXukDyjYLBjbrBQL3swj/BhJvBkRfTQFiulr8Gd7HBjMEVQVBbGD6XZ5/B
s/u8QADfdjybWK/BSHgOQUTBiz8+3pfB/ZnOQAYrEcDrcqrBr2QaQZhkDT/F86nBuB2fQGVSdb9e
GJ/BPEwQQSLENUCjdqXBjlujQGCl3T3PIabBcpsLQcY6HED+45rBsoazQPYMCsBWXKHB15sXQfT+
8j9h+6zBaqDmQBr8s8CNjIvBH54DQZ/vjsD4UYzBm+m8QIi9osDCMpDB957wQIwkVsD8bpLBQvfE
QKLkPUD374rB+A/MQGoCkUArIZvBpuzqQHJqpkCdfonBkLS0QDBI6j++MJLB7BvMQBsRgsDRQZjB
AFyqQCBbZ0B7TqDBL/nhQLJuf0CB05DBNBF5QHeqgkDUfZ3Bm66PQA4MsT9tMaPBqa4HQS/UmkCY
7ILBRLwGQZreWUDOL5PBRH6wQAHRC0D1z53Bj9IfQXLsL0AmQIPBeTQpQWzOmEDhL4/BIripQJOh
TMBEwJrBqkocQVjSEkARD7fBa58ZQUSJeUAJ3InBvGXnQODZoL9sbbjB/skXQaRZYr+6GJ3BMqG/
QAmdWj9Ov7TBHhELQe1jSD8mxI/Bba/fQGIDTMBv96vBiBQgQT/jLb6dtq/BMhuMQOrzWr9I7ZfB
NUQOQVDVd0B2yqfBpsrxQIWxz8ATNJDBvwviQBl9vcBSJ4PBBywIQX7yg8CuRoTBAP8RQZpemcBs
rJDBwn2qQJ1VvMDIG5TBtDKpQL6rk8Dz9InBLgrkQPyOJcBZ5YzBekADQR+cN8BeLJjB0R2pQCor
YEAfrofBJGbXQCN1IUAtVoTBB0DlQE3ulkCNGKHBYEa8QFpjr0CSFZnBwmvyQLTbwkAaVI7BV+zO
QCUOrUBObYTBujLLQAgAfT/DhpHBZwmVQIt3wj94Q4/Bs4HYQDMyksBJcJ/BVtStQDTDbkC+A6nB
ezJKQHJuWkDeR6HBEmxwQPH0gUCKwpTBw2pvQPV9o0A2bqDBMGGEQNDA8z/JaKrBahppQMLmmj+D
wp3BN+YOQeqJtUB2ZYDB0ljMQBez9j+FK6HBEWjHQByQsb/CrbPBNNkQQX/roD0A65/BEn61QLAz
Ar7ETbHBu7sLQWLJhj/gL5jBBlTIQJRhGcBUzqvBQZ8VQVf07j5tfKrBcLykQM7iZL8HPp/B1j0Q
QYmqM0ChlaXBju+jQJ999T3GFqfBHzYLQUQTG0AIAJvBcUa3QPRRCcA3i6HB31kVQRlr6j/DUa3B
wtgOQYFLjMAzSo7BP/EAQZ1ThcD6NITB2Z8AQYGygMCe6ZfBY4vVQKoUb8DjRIjB4aHFQBXCOUCZ
AIvBxv/LQCtEk0BwnprB15LsQD5wo0Buh4jBYQayQOwv7j+XvJLBNUHeQDqRR8CeQJPBV5qmQOxg
cUC1ap/BfoTiQM5afkAtipDBs1h1QFSIhkCdr5rBM/WQQGkSvT+5iKTB2/IGQU9zkkDRi4HB2CIH
QabBWUAQPZPBPQGvQGLyE0DWIZ7B30kdQVjFGUAjF4PBb0kqQRSjkUCvdIzBUgC4QPOxR8BGxpnB
xyEaQU4tDUAYcrfB+RQZQSueakBrtojBfG3UQI8fyr+QiLvBCRwRQUFod7+LvZ3BQzW1QHZGJj+b
TrfBFTIIQZ6yQD8TFJDBaxLWQCcbV8BQoK3B4HwZQQrBj75NarDB3hWXQGfINb9IcZfBSSwQQTeP
dkB0wqfBCAMdQRvabsC7DI7ByPgTQYPnrcAr0I7BWWX/QN80o8CgMX/BtusHQQ5RWMCbR37BLOwJ
QSMAX8D/BZ7BPinzQIGpncBcdpvBYyPAQPJVk8B//IjBaSfHQD2sP8BK2YLBiUqrQOwgW0BA64bB
ICjZQKpuF0CqEYXBEVrkQINgl0Cp46DBW0W/QKG/skBFTZjBnCL4QBIFwEBxxozBfOPPQHCuq0AS
3YPB2/TFQJJqdD8tepLBLZGRQDuHzz/464/BJrrqQJg0BsAsRZLB356lQBRhf0CdCajBBCBCQO4l
ZkDWQp7BG9N1QErNgUBO95HBcvppQIuEqED0e5zBc7WJQPfE/z+5EazBT4JmQFTmqj9i85/B1XoO
QebBqkAq6XvBBP3LQFLhCUDiR6HBIj3QQIa5oL8xg7DBBpASQYiL4r0jCZzBCEi8QICwnryJna7B
sMILQYvQdj/6l5XBvFrHQBRjFsDNzKnB3mcZQZCv/D3BmqbBSjSWQK3HeL/6Xp/Bm8QSQXiFIEDZ
TaTBWsefQOgH8T2y96XBFcALQcbLEUC1vJnB+KupQNl3DcCDXaHB9XgZQQyDtz84varBlnmeQMAl
X8AfhYPB+vK3QPNPC8DxQYXB2sSyQO/CkMB8E4vBgkzZQDaFIMBz343BHmnDQAonT0CG2YvBtBXT
QPH8kEA+Lp3BbpnvQLjBq0CUqovBIJqxQE/5AkBIVpLBQvPEQKpJa8BEHZTBthWvQCrwaUAI7qHB
LL7kQPvmgkCCDpLBzLuCQBVviUAC6J/BhFyOQArruT/8SqPBqkQIQRPGn0AfB4TBeGgHQXIsV0Ah
EpPBEHywQP3OD0DRNZ7BDQEcQSLqL0DteYHBKYIrQRimkEAdXY7BtgihQEI2UMC4o5rBiV0gQRJA
1T8s0rTBD2AZQVTAdUAOOonBFFLmQEHJrr+5GbfBiocSQYzBjr+J3ZjBqsnCQDOhUj85xrPBLo0G
QSCHSD/Ke43BKzrXQE/mUsBhGavB8ZkeQdeaM7/fiavBtQeAQGcyXL/qzZjB6P0SQYnZYECGdqfB
/jOhQGBZdMAJUHbBDBh5QBWQVcD4iIXBwZaiQB3Er7+BA4jByMjHQGQU778ZmHvBO0jMQAayosC3
/obBB4eaQJ87p8DsGY7B9MXeQF5v0r+6JJPBesX3QNIjNMCzNorBJIKoQB/LeECglonBYsvSQHP9
NUAeloTBVfHtQOzckEBn3qLBVp/GQAS/sUCFXZzBepb7QLXQxEA0EpHBLAjTQDyBt0BHcofBA7PF
QDeGlT/+p5DBvLiQQOMj7T/Lmo/BvCzdQAZQh8BruZjBEtizQMRcaUASpqrBtEtTQMDlaUBuWqPB
pvJ6QAm1jEBfPpfBjouBQDE1qUB+rqPBkXiDQOc2+j8VoqrBipBmQJUgrD+xvJ3BZpEQQTTkuUDq
/YHBHRDMQKrN7z+D9KDB/MfGQKzGsr+dvLPBTmcRQe5Q+z1L8Z/B3Zu1QIKPA758U7HBWSUMQU61
iz83OJjBctXGQDxTGsCX66vByCwWQbRkAD8we6rB/GKjQPVVZ794Yp/BkKAQQXC2NUAHk6XBHImj
QMSq7z0wK6fBaYULQdwNHUBXAJvBakC2QPLiCcBbnaHB6doVQRts7j9STa3BQQYKQb7pAMDb1ojB
KBYVQdTVPsB6xJDBPqzlQCnC7b9+wIzBXqoDQZQPXcDVpJjBOsbFQIU6OUCICIvB9UHMQHpHk0Am
mJrBgFTsQGxYo0A1cIjBakSyQIp17T8Yz5LB1MDcQH51SsAm35LBNwSnQHlVcUDRdJ/BeJ7iQBZh
fkBogJDB8QJ2QNeChkBhx5rBGQqRQKJ9vT95mqTBPLgGQVFQkkB7Y4HBd0gHQUrMWkC7KpPBTEiv
QPzHE0ADMp7B8a0cQfyCGEBx2oLBEG8qQS7jkECl/YvB5hy3QJGySMDP1pnBGsIaQUvODkDhabfB
juoYQY7WaUCUc4jBbubTQK+Sy78SlLvBIsURQUffa7+dvZ3BCEm2QKT9Jz+eQrfBEpMIQWK+ST9C
H5DB3pLTQCLFWMDSz63B9REaQf2Jfb5lZLDB6cSUQAUbOr8lr5fBwocQQeWZeEBfwKfBwUUKQeTV
G8CKtYDBdi4SQb8Phb9J2YjBZOwhQVV2HcCwG5XBWNYbQeLfdcAJcYzByJrPQI2t37/s84XBkZni
QAqYfL/VEpLBlKEEQfcgOcAnMqDBRVAFQW/zkMB8SprBQF2rQO8/WkD07obB5lLZQBu/FkCNHoXB
P7rkQMp+l0Dv1KDB7Wi/QLy2skAwR5jByQD4QDoAwEBGoozBY3bPQIl7q0D/1IPBwz3GQKgtcz9J
kJLBss2RQJB3zj86A5DBEBvYQG4xfcDh4YzBfTemQCt/f0D3EqjBt+tCQBgiZkBBY57BsiR2QJDD
gUAqD5LBtLtqQFWAqEB5lJzBp/OJQEo5AEChI6zBEpVmQHJrrD+RBaDBpD4OQS2fqkATl3vB7jnM
QI+HCUB/W6HB

> <OMEGA_E>
ADXcPhBl5T7Efug+jI/rPvB7Lj+waTE/yv4fPxD6ND8=

> <OMEGA_NBR>
    104876

$$$$
50220696
  -OEChem-04172616093D

 68 71  0     1  0  0  0  0  0999 V2000
    6.5427   -0.8321  -22.2740 C   0  0  0  0  0  0  0  0  0  0  0  0
    9.8596    1.3679  -21.3287 C   0  0  0  0  0  0  0  0  0  0  0  0
    5.7360    0.2687  -21.9417 C   0  0  0  0  0  0  0  0  0  0  0  0
    9.3888    2.4283  -20.5327 C   0  0  0  0  0  0  0  0  0  0  0  0
    6.6142   -1.9392  -21.4080 C   0  0  0  0  0  0  0  0  0  0  0  0
    9.7794    0.0431  -20.8558 C   0  0  0  0  0  0  0  0  0  0  0  0
    5.0948   -0.8286  -19.8629 C   0  0  0  0  0  0  0  0  0  0  0  0
    8.7735    0.8404  -18.7816 C   0  0  0  0  0  0  0  0  0  0  0  0
    5.0064    0.2667  -20.7352 C   0  0  0  0  0  0  0  0  0  0  0  0
    8.8373    2.1665  -19.2625 C   0  0  0  0  0  0  0  0  0  0  0  0
    5.8834   -1.9544  -20.2019 C   0  0  0  0  0  0  0  0  0  0  0  0
    9.2298   -0.2212  -19.5849 C   0  0  0  0  0  0  0  0  0  0  0  0
    6.1606    3.0056  -17.5057 C   0  0  0  0  0  0  0  0  0  0  0  0
    6.5919    4.2985  -19.6816 C   0  0  0  0  0  0  0  0  0  0  0  0
    7.4193    5.1747  -17.5671 C   0  0  0  0  0  0  0  0  0  0  0  0
    5.5721    1.8963  -18.3677 C   0  0  0  0  0  0  0  0  0  0  0  0
    5.9509    3.1618  -20.4651 C   0  0  2  0  0  0  0  0  0  0  0  0
    7.1598    3.8826  -18.3109 C   0  0  1  0  0  0  0  0  0  0  0  0
    5.2884    3.8172  -21.7005 C   0  0  0  0  0  0  0  0  0  0  0  0
    9.9399    5.9026  -14.8596 C   0  0  0  0  0  0  0  0  0  0  0  0
    3.5956   -3.6259  -19.0540 C   0  0  0  0  0  0  0  0  0  0  0  0
    5.3912   -4.4815  -17.5204 C   0  0  0  0  0  0  0  0  0  0  0  0
    4.1605    1.4500  -20.3279 C   0  0  0  0  0  0  0  0  0  0  0  0
    9.1044    6.1654  -16.1054 C   0  0  0  0  0  0  0  0  0  0  0  0
    4.9568   -3.2981  -18.3935 C   0  0  0  0  0  0  0  0  0  0  0  0
    8.5063    3.2363  -18.4387 N   0  0  1  0  0  0  0  0  0  0  0  0
    8.4687    4.9301  -16.6024 N   0  0  2  0  0  0  0  0  0  0  0  0
    4.9591    2.4609  -19.5983 N   0  3  1  0  0  0  0  0  0  0  0  0
    9.4536    2.5542  -16.1161 O   0  0  0  0  0  0  0  0  0  0  0  0
   10.7687    4.1823  -17.6272 O   0  0  0  0  0  0  0  0  0  0  0  0
    5.9897   -3.0796  -19.3965 O   0  0  0  0  0  0  0  0  0  0  0  0
    9.1412   -1.4936  -19.1363 F   0  0  0  0  0  0  0  0  0  0  0  0
    9.5065    3.6411  -17.1039 S   0  0  0  0  0  0  0  0  0  0  0  0
    7.1082   -0.8289  -23.1941 H   0  0  0  0  0  0  0  0  0  0  0  0
   10.2823    1.5694  -22.3019 H   0  0  0  0  0  0  0  0  0  0  0  0
    5.6746    1.1153  -22.6095 H   0  0  0  0  0  0  0  0  0  0  0  0
    9.4502    3.4437  -20.8954 H   0  0  0  0  0  0  0  0  0  0  0  0
    7.2340   -2.7842  -21.6693 H   0  0  0  0  0  0  0  0  0  0  0  0
   10.1394   -0.7708  -21.4676 H   0  0  0  0  0  0  0  0  0  0  0  0
    4.5574   -0.8128  -18.9262 H   0  0  0  0  0  0  0  0  0  0  0  0
    8.3748    0.6410  -17.7979 H   0  0  0  0  0  0  0  0  0  0  0  0
    5.3436    3.6425  -17.1358 H   0  0  0  0  0  0  0  0  0  0  0  0
    6.6882    2.5539  -16.6528 H   0  0  0  0  0  0  0  0  0  0  0  0
    7.4142    4.7115  -20.2843 H   0  0  0  0  0  0  0  0  0  0  0  0
    5.8311    5.0759  -19.5178 H   0  0  0  0  0  0  0  0  0  0  0  0
    7.7364    5.9555  -18.2740 H   0  0  0  0  0  0  0  0  0  0  0  0
    6.5041    5.4983  -17.0497 H   0  0  0  0  0  0  0  0  0  0  0  0
    6.3713    1.1955  -18.6505 H   0  0  0  0  0  0  0  0  0  0  0  0
    4.8019    1.3615  -17.7926 H   0  0  0  0  0  0  0  0  0  0  0  0
    6.7271    2.4571  -20.7982 H   0  0  0  0  0  0  0  0  0  0  0  0
    4.8040    3.0417  -22.3120 H   0  0  0  0  0  0  0  0  0  0  0  0
    4.5345    4.5463  -21.3686 H   0  0  0  0  0  0  0  0  0  0  0  0
    6.0557    4.3299  -22.2991 H   0  0  0  0  0  0  0  0  0  0  0  0
   10.3970    6.8433  -14.5188 H   0  0  0  0  0  0  0  0  0  0  0  0
    9.2956    5.4991  -14.0645 H   0  0  0  0  0  0  0  0  0  0  0  0
   10.7307    5.1752  -15.0953 H   0  0  0  0  0  0  0  0  0  0  0  0
    3.2789   -2.7800  -19.6818 H   0  0  0  0  0  0  0  0  0  0  0  0
    3.6979   -4.5266  -19.6770 H   0  0  0  0  0  0  0  0  0  0  0  0
    2.8424   -3.8043  -18.2724 H   0  0  0  0  0  0  0  0  0  0  0  0
    6.3584   -4.2540  -17.0484 H   0  0  0  0  0  0  0  0  0  0  0  0
    4.6356   -4.6587  -16.7409 H   0  0  0  0  0  0  0  0  0  0  0  0
    5.4910   -5.3810  -18.1456 H   0  0  0  0  0  0  0  0  0  0  0  0
    3.7354    1.9134  -21.2305 H   0  0  0  0  0  0  0  0  0  0  0  0
    3.3457    1.1000  -19.6770 H   0  0  0  0  0  0  0  0  0  0  0  0
    8.3204    6.8975  -15.8618 H   0  0  0  0  0  0  0  0  0  0  0  0
    9.7555    6.5736  -16.8925 H   0  0  0  0  0  0  0  0  0  0  0  0
    4.8433   -2.4046  -17.7621 H   0  0  0  0  0  0  0  0  0  0  0  0
    4.3134    3.1607  -19.2927 H   0  0  0  0  0  0  0  0  0  0  0  0
  1  3  2  0  0  0  0
  1  5  1  0  0  0  0
  2  4  2  0  0  0  0
  2  6  1  0  0  0  0
  3  9  1  0  0  0  0
  4 10  1  0  0  0  0
  5 11  2  0  0  0  0
  6 12  2  0  0  0  0
  7  9  2  0  0  0  0
  7 11  1  0  0  0  0
  8 10  2  0  0  0  0
  8 12  1  0  0  0  0
  9 23  1  0  0  0  0
 10 26  1  0  0  0  0
 11 31  1  0  0  0  0
 12 32  1  0  0  0  0
 13 16  1  0  0  0  0
 13 18  1  0  0  0  0
 14 17  1  0  0  0  0
 14 18  1  0  0  0  0
 15 18  1  0  0  0  0
 15 27  1  0  0  0  0
 16 28  1  0  0  0  0
 17 19  1  0  0  0  0
 17 28  1  0  0  0  0
 18 26  1  0  0  0  0
 20 24  1  0  0  0  0
 21 25  1  0  0  0  0
 22 25  1  0  0  0  0
 23 28  1  0  0  0  0
 24 27  1  0  0  0  0
 25 31  1  0  0  0  0
 26 33  1  0  0  0  0
 27 33  1  0  0  0  0
 29 33  2  0  0  0  0
 30 33  2  0  0  0  0
  1 34  1  0  0  0  0
  2 35  1  0  0  0  0
  3 36  1  0  0  0  0
  4 37  1  0  0  0  0
  5 38  1  0  0  0  0
  6 39  1  0  0  0  0
  7 40  1  0  0  0  0
  8 41  1  0  0  0  0
 13 42  1  0  0  0  0
 13 43  1  0  0  0  0
 14 44  1  0  0  0  0
 14 45  1  0  0  0  0
 15 46  1  0  0  0  0
 15 47  1  0  0  0  0
 16 48  1  0  0  0  0
 16 49  1  0  0  0  0
 17 50  1  0  0  0  0
 19 51  1  0  0  0  0
 19 52  1  0  0  0  0
 19 53  1  0  0  0  0
 20 54  1  0  0  0  0
 20 55  1  0  0  0  0
 20 56  1  0  0  0  0
 21 57  1  0  0  0  0
 21 58  1  0  0  0  0
 21 59  1  0  0  0  0
 22 60  1  0  0  0  0
 22 61  1  0  0  0  0
 22 62  1  0  0  0  0
 23 63  1  0  0  0  0
 23 64  1  0  0  0  0
 24 65  1  0  0  0  0
 24 66  1  0  0  0  0
 25 67  1  0  0  0  0
 28 68  1  0  0  0  0
M  CHG  1  28   1
M  END
> <OMEGA_C>
6F3RQK4DVb8lMbLBzcAdQZ0Xrz8doarB8Iy3QJmQiT6uiK/BrzgWQeVoG0AAQ6TBuqfTQI42+L+a
Q6vBV3gcQQCVMD2d2KbBfgijQAAhVL8q557BMWAMQYonVz/GQJbBwDSgQIeMiD7H4aXBeWUNQS6o
CkCnGZrBLkW8QAcp+r+MnaHBTa0TQdSAYr72rZzBjyPFQItcQEDCC4zBxfDSQLiNiUDqc53BJWvt
QEOXpUBpiYzBWk6yQIK78j8D8ZLB622+QC9bSkCLuKPBIR3lQBV9eECkfJLBRjqpQAVNdECemq3B
4gkfQULivEC7wG3Bth1mQJcOaMCWbpjBuYSsQGdoj8DaKYzBgiKFQCyauT+Kn6LBv6sRQSBLxUDU
14DBKp6eQNkUU8DnJZPBwRkIQbYfT0BsgpPBqX8HQTjDnUCm0YTBm7CeQLR/HUA9yZzB70EXQSF4
I0DS7YDBakwsQbzVhUB2BI3B7Ku/QLkYRcAhLJvBhEISQXMtv78vF5nB0xoYQQAHaUDS1IjBZnbj
QJ0yVL+KjbnBJ4QkQajhyD8/arLB65W1QH3Cjj8r4LTBKTQXQXdlXEDXKafBjHznQD4wMsCuWq3B
6zoiQRJRRb+/vavBSdaRQMoWUL/WaJfB/P4FQVAZJD8vYo7Bi/6qQGgfaUAlFonBIwbWQF9yI0D+
OIXBXkHtQO/ElkApRqLBJZi6QP9tokBlJJzBfZD3QM+TvkA/MZLB0yHQQL3xr0C6ZYjBruHLQFUF
mT9INJXBGamZQKRErj81V47BA0TXQK1AHUC5YqbBDbqZQK+rQkAUf7LBsRqRQOp6kUDO8qrB98fB
QMuOikCfZLLBClomQbH82kD0TGjB1LoUQYn4r0BfCGHB2LArQTibpUAnhnHBBtpRQCHrMcBjdJ3B
MKpsQDzakMCTap3BKOo1QOR5c8DSLZLBzHfLQK4giMAeY4jBn1aUQEMUlcBx7YXBo7avQI0xrMAx
KpHB+hBvQJXq9D/316nB6R9WQBTOjD9+ap3BaSAFQXe43EDLyX3BbBYcQSZb0kDJI4fBLfyaQEXl
GcC2GI7BbweKQHZJSkBcV5rBuITOQHrgaL9+Q7LBxlMTQeV/kr5XKZ3BHhO1QKZsVz6Cya/Be7QL
QbsJQT/mnZbBD3LSQF2x+7/Y26rBjwAcQR44DTyjS6fBVdGkQPcKQr8jYp7BLzcVQVB9GEA5YqTB
q86fQK2ejj592aXBJ3QMQcKoBUAJRprB4yy9QB7F8r8K7KDBFPUcQYf6qz+p5arBwG3DQOTTRECc
NYzBvwXUQCFcikDJjZ3Bbt3wQMmCpEA6VIzBQamwQIya+j8U+pLBna6+QP/6S0BC26PBkG3lQJ2c
eEBvjJLB2w2qQEkxdUAh2K3BKy0cQbgB10D0JYDB7VCrQPi/kMBJ0IzBClxnQEdFTsCzuJbBZuuE
QJ0rvT/x2aLBFKQNQdqbs0AQVnfBZVGhQAG+dMCaepfBYYoHQX1YSEBpYZPBAaIGQbwhlUD0+4PB
bC6eQIIOIEApBJ3BLhAaQWBqGECRroHBkEErQVBthkAbl43BrsvDQAtcN8A2RJnBepMlQdPJ0D9S
i7TBP4AYQeywYUACAInBxArfQBejdb9217nBRYgSQTiWp794bJrBXtmxQNYFgj+FfLXBC0gFQSEe
CD+xy47BYb3lQPMONcC8y6zBee0hQaT7Sb+eT6zB19WVQEojLr9Sn5bBmvwVQW3zWUBmIafBCoip
QAw1cEBKvInB55XSQE/mKEBLE4XBlNDuQKbmlkC3UqLBmUS8QKnXo0A0S5zB2qAAQUXRu0D2fpHB
wxXUQGlPs0AH3ojBIxDKQEB+nj8f+JTBW16XQCFyuT95aI7BYz3XQA/kHUC9aqbBskGaQJ5nQ0DR
prLBgEGSQDB9kkBVUqvBK/jCQNdGikAqq7LBLukgQa677ECZSHPBLI0qQZB/yECGs4PBqHgTQVgf
6UC2T4bBSZvLQAeznsCnJY3Bvr6pQLuWcsCFQ4bBor2TQGJEqsCcZYvBdXtXQF7OLcAFRp7BvOg4
QE7qgMDwPZXB8+pkQJPiH8DZG5DByutvQL/s9j+pMarBFsZUQGqEkj84uJ3BAH0WQczuoUCm82rB
+ND+QJOOwkAGLHDBjYOhQCeCksBK4p3BBl6JQAtSTUDbzJrBTeHRQIwNUb9ZGrLBfocTQbXWdb6i
iJzBPfe3QIKNkD64dq/BFC8MQcF8Uj9JHpbBncbTQDz/9r9AO6vBdoEcQUBE0zxtqKbBb0qiQK5w
Vb/Q/p7ByGIWQexcGkCmC6TBPf6fQGaRij5U6KXB0VMNQa2KCUAv9JnBwdi7QHo7+r8Rq6HBDwge
QdpBrT8WYarBVvLEQGyzQEDiEYzBg1XTQJeAiUAVfJ3BrIvtQBWUpUDKiozBsh2yQAZo8z86+ZLB
rl6+QGO0SkBqwKPBVSzlQPBdeEBCepLBIwKpQFtGdUBLk63BTMMfQXY8vEAfBG7BwVtmQFe+asAc
V5jB726tQEnjjsBQC4zB/PmEQCJtuj9cqaLBMxIRQeM0xUALeoDBI52eQOZ8U8BBKJPBSQkIQbgn
TkCnZpPBG28HQayfnUCjxoTBJZSeQKvkHUDT0ZzBLQMZQeQrJkAWHIHBewksQZ6biECcpo3Bd0y/
QD5hRcCbQ5vBaiUnQcgMzz+09LPBjI4YQSdxa0ApD4nBwVnkQMq1Tr+0Z7nBpUkSQbvzoL+Is5nB
f2a2QJlVkT9iv7TBt64FQX90Hz8LRo7B7L3nQABvMcD0TK3B7DciQSu5Sb9lkavBDHaQQIwQVL8U
mJfBeXYXQWJjW0Db7KbBkdKqQNbAaUCXKYnBF5vVQOnHI0BYNoXB6OntQGdAlkAtS6LB5lS7QGbA
okCHOZzByvf3QDhzvkCvMpLBbDfQQOgisEBKdIjBC6/LQCWcmT+IOpXBQ26ZQIcErz+2YY7B3PnW
QFtfHUD9fKbBZy+ZQE0FREBzdrLBdCGRQGcXkkC02arBbIfBQGTzikAbZbLBeJAmQbCA2kDKJGjB
nIwWQVnhrECbImHB18csQX7WpkAaGXPBOdxQQG+dNcBWc53Bi85tQDdtksBROJ3BG6M2QOVRdsDU
CJLBO1DMQDrAhsCnV4jB94KVQCOmlMBYwIXBrxixQGfqq8DV75DBYN9uQG3C9T9646nBurdVQEPl
jT+mdZ3BzC8EQUXI2kCruHvBCGsaQWq91ECV14bBo5GaQMjJGcDDN47Bge+JQBi7SkAuYZrBUL/N
QDzRcr/lDLLBf7AdQQNUsz99G6vBFIe0QEy7Qz5e/6/BCqMVQXWaGkD+baTBCoLRQJrt+r/EPqrB
FK4cQVgNYT2XzqfBJ1miQEsiNL9EdJ7BeI0LQfm4PD/OJ5fBp3SeQHRJnD7AMqbBrW4MQVxRBUDt
eprBJfO7QKcU6r+zY6DBDpITQaR1jb4g1p3BudvCQOVNQUDOPYzBOTrUQFyPikAhPZ3BAZzwQEhL
okCuuYvBLY2vQNAA+T+JVJPBEYi/QGyXTUA25KPBhTblQNQddkBCTpLB0IOsQLz9d0DS/K3B37AY
Qen92ECHYoDBAICuQGx7kcBF5IzB3x9qQGJ/V8DVOpfB142EQC+YxD/tiKPBCLEOQc2nsECLx3bB
7oCkQLUzdMDjaJfBhG0HQcX/RUB2UJPBzuIGQTJHkkAYkYPB2A+eQBK6IUAVXp3B8UgaQX53EkCB
4oHBiT4rQSAJhUBNYI3B9LvCQAcXLsDvNJjBVLISQfhuyL8doZrBvZEYQXpTXUDY8IjBrjXeQJEM
hr8im7nBXqMkQRel0z9+wbLBlxuyQOGUeT8t6bXBPoEWQZyxXEAM7KbBD9nkQNxbNcAB0KvBzOQi
QQlQOb9f7KzBYH2RQOzEHL+A8pbB8bgEQTRK+D7deo/BuUWpQM2bbEC+jYnBYtDRQAm8IkBkQIXB
+iDvQPH4l0BU0aHBUy+8QHWmo0AS1pvBojUAQZaOukBVupDB49PTQKswsECzCYjBJXjIQMUHmz9N
XZXBR4+VQFjRuD8H9Y7BKkLYQAdWH0B/TKbBPEmdQHXfRkApA7PB3ICUQMHpk0AwnKvBxDXGQJPA
i0BeiLLBnTseQY6B7kBZ/XPBglYmQerDz0DDcIXB+aUMQUCI6UDjSoXB6SDQQM3hm8Db5ozBavyo
QLVvd8A2HYbBpoiZQBCXrcAMIIzBwdVaQBneNcCKuJ7Bj55AQGX/h8CybJbBFoZfQF9ALMDdaZDB
aVZzQHctAEAXBqvBoD5RQJdZnj8gvp7BE9gaQSmNoEAa62zBiicBQX9RukBan2zBCB2pQAF0kMAB
HJ7BUIWJQMheT0BCHZvB623XQLRkar/kgbDBl+AXQZ7zor0xpJ3BuF6+QBzNYj5TVa7BKEQPQfVE
ZT+kvJbBmBzTQL80BMCpGqrB9tsfQUotmD7RwKfB9LmdQI3NbL9ZMZ/BkW4WQb2RJ0A5HaTB76eh
QNzzXD6NlqXBjU8OQbWtD0ANC5rBPZa1QIiSBMBekaHBdC0fQZz60j9q9qrBD2XEQDd+QUCyE4zB
fjHTQAMsiUAwj53B7jTsQPKnpkA2oYzBAIKzQPKJ8D8q+JLBMr+/QGlFSEDqyqPBOKTkQEt+eUDj
bJLBSr2qQJqWb0BE4K3BR8YbQTNOvkD2vWvBN3/FQFOvIMC2F4rBv63CQFSFncByoo/BuNKGQDQX
tT9Sv6LBIlwPQaAxx0DYHoDBjFPLQPGYX8Cvf5PBxtcHQUBdT0D2/ZLBY3UGQV9hn0BWrITBWgmg
QLhbG0AN5pzBovMZQa3tLUAJxoDBPzArQVRGjUAZv43B7mWtQCrXTcDq8pvB0TgnQStqAUBKi7TB
N18YQS+wcUD34ojBxOjtQKvtZ7/CEbfBJF0YQcewjr/cMJvBvQ/BQEqEjD+hVrPBc2gJQbWgHD+V
7o7BOVTmQBwuPMCDuKvBPX8mQW8O5r6YCq3ByEWIQIbaa79Ma5jBnO8VQRPJaUBplKbBR16pQCOa
aUB1f4nBRIrUQK27JkA+AoXBS7rtQOB5lkARSqLBR2S6QBPFoUA6eZzBM+72QL83v0C1VZLB2nrO
QNdIsUDOvIjBBxLOQDucmj8rF5XB+i6bQEWsqD8ld47BHynZQHaxG0A7P6bBFxycQI11PEDEsbLB
s/CRQPjNjkDqcavBIj7DQFZUiEBXp7LB2i8iQRyB3EDOXWXBYgsRQRe1r0Bc2l/Buw4pQQJGqECh
M2/B87LLQEcIvr8B3IzBUIukQDouJcDYDIfBzRbcQHIGMcAtqYPBhtPGQBP3s8B3VZbBgEXZQF+s
pcCXM4nBA7qhQEPAn8BCl4zBSad0QF+s7j8qJarBGe9XQHV5iz8ksJ3B4SgCQQFa3UC/qnzBOiwa
Qezq1UACAobB3GXsQC80W8BCdpbBvDGLQEIOSEBwhprBWXPYQEf6b78mlbDBnsAeQY5Q4j8Hr6vB
UlC/QKQwTT42bq7BGl0VQQDbLEAFtKTBHpDUQN44BcD2FKrBrAUhQUJd2T4XfqjBeEafQA/Wb79A
Kp/BMmgQQSkQcj+qV5fBlcmiQOjnSj5IpqXBH/kNQRVsEkBDk5rB1ku3QCI/BcBmeaHBK98ZQWAg
YDz+UJ7BilzEQLQ+QUBx94vBqMfRQBpdikBJN53Bx4jtQEskpkDOHYzBRWKzQGJf8D+/75LBDDi/
QNIKSkB6paPBZ4DkQD0lekDKP5LBWCqqQCmWcECOwq3Ba1oBQXD54ECaBXXBgPPcQK/zEsDMTIzB
q6TIQFsal8C/kY3B54qHQDhUsj9D4qLBieERQbrFwUCiOn7Bk4fUQI1WXsAfDZTB3aoHQW+gT0Cw
NJPB+4wHQUeLnECaUITBYtSfQN/rGkBa45zBF9oZQWgqJkDaNYHBWZMrQcR/ikBzuY3B9m2xQFcL
TMBQL5vBS3EcQXmDor81LZvB/JUYQd9WbEDUAInBU6juQCq9br/oM7fBtzgkQWQyBUDDfLPBBdPB
QLZfiT/YerPBG9ATQfX4bkCVGafBeeHnQFsaPcCCrKvB2kAoQQFzlb4z2q3BsfmJQDnhbb+AXJjB
DAMLQVkrIj/1hY/BgE6pQB38aEBXUYnBr6DUQB0DJkCv8YTBD2/rQFo8mUAo9aHB/ia4QAvaoUBi
1ZvBVXX4QEU/v0CtpZHBjGnQQJfzsEA6+ofB0ffNQJSXmj9rEJXB6xKbQF9QqD+RcI7BIEfZQBXh
HkCuEqbBs1mcQIjmPECtorLB/LiQQM6qjkCpX6vBU3TCQHZ6iUBMdrLBbqUJQTIX/EAUdm3B1w7u
QKPV7EDl/YDBnwfvQABk0EBWA2nB0n3lQBkDs7/N6pDBfuy/QDwvBsDClYfBMmz3QLKWI8Ch4obB
yKDCQGj7scB1DJPBCCPjQDVWn8A+J4jBVKOrQHqikMBf2ojBmuR2QJKW6z83VarBSNpYQIR7hz/4
853BQ7EbQYiz0kDNEYXBpy0cQeZBtkAmK3HBI97xQAVKa8DtopjBG1WKQGdcRkDIg5rB

> <OMEGA_E>
4CcVPYCuXD0AM0s88K/xPWzwqz6IW7s+

> <OMEGA_NBR>
    111642

$$$$
50220698
  -OEChem-04172616093D

 62 65  0     1  0  0  0  0  0999 V2000
    6.5435   -0.9026  -22.3022 C   0  0  0  0  0  0  0  0  0  0  0  0
    9.1960   -0.2310  -19.5375 C   0  0  0  0  0  0  0  0  0  0  0  0
    5.7429    0.2096  -21.9773 C   0  0  0  0  0  0  0  0  0  0  0  0
    8.7592    0.8408  -18.7349 C   0  0  0  0  0  0  0  0  0  0  0  0
    6.6340   -1.9893  -21.4120 C   0  0  0  0  0  0  0  0  0  0  0  0
    9.7093    0.0182  -20.8260 C   0  0  0  0  0  0  0  0  0  0  0  0
    5.1631   -0.8242  -19.8558 C   0  0  0  0  0  0  0  0  0  0  0  0
    9.3197    2.4075  -20.5218 C   0  0  0  0  0  0  0  0  0  0  0  0
    5.0532    0.2464  -20.7460 C   0  0  0  0  0  0  0  0  0  0  0  0
    8.8087    2.1621  -19.2315 C   0  0  0  0  0  0  0  0  0  0  0  0
    5.9161   -1.9649  -20.2007 C   0  0  0  0  0  0  0  0  0  0  0  0
    9.7727    1.3383  -21.3166 C   0  0  0  0  0  0  0  0  0  0  0  0
    6.1407    3.0768  -17.5045 C   0  0  0  0  0  0  0  0  0  0  0  0
    6.5977    4.3300  -19.6816 C   0  0  0  0  0  0  0  0  0  0  0  0
    7.4714    5.2381  -17.5322 C   0  0  0  0  0  0  0  0  0  0  0  0
    5.5680    1.9333  -18.3517 C   0  0  0  0  0  0  0  0  0  0  0  0
    5.9658    3.1634  -20.4635 C   0  0  2  0  0  0  0  0  0  0  0  0
    7.1681    3.9372  -18.2970 C   0  0  1  0  0  0  0  0  0  0  0  0
    5.2992    3.7761  -21.7182 C   0  0  0  0  0  0  0  0  0  0  0  0
    5.6787   -4.7746  -17.0326 C   0  0  0  0  0  0  0  0  0  0  0  0
    4.1954    1.4219  -20.3404 C   0  0  0  0  0  0  0  0  0  0  0  0
    4.6491   -4.7568  -18.1718 C   0  0  0  0  0  0  0  0  0  0  0  0
    4.6140   -3.3791  -18.8112 C   0  0  0  0  0  0  0  0  0  0  0  0
    8.4859    4.8953  -16.5502 N   0  0  0  0  0  0  0  0  0  0  0  0
    8.4978    3.2405  -18.4073 N   0  0  3  0  0  0  0  0  0  0  0  0
    4.9707    2.4573  -19.6074 N   0  3  1  0  0  0  0  0  0  0  0  0
    9.7791    2.6855  -16.1942 O   0  0  0  0  0  0  0  0  0  0  0  0
   10.7119    4.4684  -17.8158 O   0  0  0  0  0  0  0  0  0  0  0  0
    5.9037   -3.0848  -19.4075 O   0  0  0  0  0  0  0  0  0  0  0  0
   10.2829    1.5826  -22.5445 F   0  0  0  0  0  0  0  0  0  0  0  0
    9.5939    3.7630  -17.1746 S   0  0  0  0  0  0  0  0  0  0  0  0
    7.0881   -0.9217  -23.2346 H   0  0  0  0  0  0  0  0  0  0  0  0
    9.1376   -1.2432  -19.1656 H   0  0  0  0  0  0  0  0  0  0  0  0
    5.6566    1.0340  -22.6697 H   0  0  0  0  0  0  0  0  0  0  0  0
    8.3862    0.6522  -17.7390 H   0  0  0  0  0  0  0  0  0  0  0  0
    7.2527   -2.8398  -21.6574 H   0  0  0  0  0  0  0  0  0  0  0  0
   10.0540   -0.8023  -21.4378 H   0  0  0  0  0  0  0  0  0  0  0  0
    4.6681   -0.7778  -18.8971 H   0  0  0  0  0  0  0  0  0  0  0  0
    9.3635    3.4177  -20.9013 H   0  0  0  0  0  0  0  0  0  0  0  0
    5.3137    3.7243  -17.1776 H   0  0  0  0  0  0  0  0  0  0  0  0
    6.6416    2.6489  -16.6236 H   0  0  0  0  0  0  0  0  0  0  0  0
    7.4175    4.7453  -20.2862 H   0  0  0  0  0  0  0  0  0  0  0  0
    5.8271    5.1002  -19.5303 H   0  0  0  0  0  0  0  0  0  0  0  0
    7.8501    6.0075  -18.2211 H   0  0  0  0  0  0  0  0  0  0  0  0
    6.5643    5.6082  -17.0320 H   0  0  0  0  0  0  0  0  0  0  0  0
    6.3759    1.2301  -18.6022 H   0  0  0  0  0  0  0  0  0  0  0  0
    4.7922    1.4096  -17.7739 H   0  0  0  0  0  0  0  0  0  0  0  0
    6.7555    2.4649  -20.7771 H   0  0  0  0  0  0  0  0  0  0  0  0
    4.8313    2.9774  -22.3124 H   0  0  0  0  0  0  0  0  0  0  0  0
    4.5314    4.5004  -21.4087 H   0  0  0  0  0  0  0  0  0  0  0  0
    6.0610    4.2865  -22.3258 H   0  0  0  0  0  0  0  0  0  0  0  0
    5.7006   -5.7737  -16.5729 H   0  0  0  0  0  0  0  0  0  0  0  0
    6.6741   -4.5342  -17.4344 H   0  0  0  0  0  0  0  0  0  0  0  0
    5.3994   -4.0283  -16.2744 H   0  0  0  0  0  0  0  0  0  0  0  0
    3.7659    1.8760  -21.2456 H   0  0  0  0  0  0  0  0  0  0  0  0
    3.3842    1.0611  -19.6910 H   0  0  0  0  0  0  0  0  0  0  0  0
    4.9291   -5.5040  -18.9290 H   0  0  0  0  0  0  0  0  0  0  0  0
    3.6543   -4.9981  -17.7690 H   0  0  0  0  0  0  0  0  0  0  0  0
    3.8373   -3.3568  -19.5898 H   0  0  0  0  0  0  0  0  0  0  0  0
    4.3853   -2.6253  -18.0435 H   0  0  0  0  0  0  0  0  0  0  0  0
    8.9799    5.7246  -16.2891 H   0  0  0  0  0  0  0  0  0  0  0  0
    4.3073    3.1514  -19.3280 H   0  0  0  0  0  0  0  0  0  0  0  0
  1  3  1  0  0  0  0
  1  5  2  0  0  0  0
  2  4  2  0  0  0  0
  2  6  1  0  0  0  0
  3  9  2  0  0  0  0
  4 10  1  0  0  0  0
  5 11  1  0  0  0  0
  6 12  2  0  0  0  0
  7  9  1  0  0  0  0
  7 11  2  0  0  0  0
  8 10  2  0  0  0  0
  8 12  1  0  0  0  0
  9 21  1  0  0  0  0
 10 25  1  0  0  0  0
 11 29  1  0  0  0  0
 12 30  1  0  0  0  0
 13 16  1  0  0  0  0
 13 18  1  0  0  0  0
 14 17  1  0  0  0  0
 14 18  1  0  0  0  0
 15 18  1  0  0  0  0
 15 24  1  0  0  0  0
 16 26  1  0  0  0  0
 17 19  1  0  0  0  0
 17 26  1  0  0  0  0
 18 25  1  0  0  0  0
 20 22  1  0  0  0  0
 21 26  1  0  0  0  0
 22 23  1  0  0  0  0
 23 29  1  0  0  0  0
 24 31  1  0  0  0  0
 25 31  1  0  0  0  0
 27 31  2  0  0  0  0
 28 31  2  0  0  0  0
  1 32  1  0  0  0  0
  2 33  1  0  0  0  0
  3 34  1  0  0  0  0
  4 35  1  0  0  0  0
  5 36  1  0  0  0  0
  6 37  1  0  0  0  0
  7 38  1  0  0  0  0
  8 39  1  0  0  0  0
 13 40  1  0  0  0  0
 13 41  1  0  0  0  0
 14 42  1  0  0  0  0
 14 43  1  0  0  0  0
 15 44  1  0  0  0  0
 15 45  1  0  0  0  0
 16 46  1  0  0  0  0
 16 47  1  0  0  0  0
 17 48  1  0  0  0  0
 19 49  1  0  0  0  0
 19 50  1  0  0  0  0
 19 51  1  0  0  0  0
 20 52  1  0  0  0  0
 20 53  1  0  0  0  0
 20 54  1  0  0  0  0
 21 55  1  0  0  0  0
 21 56  1  0  0  0  0
 22 57  1  0  0  0  0
 22 58  1  0  0  0  0
 23 59  1  0  0  0  0
 23 60  1  0  0  0  0
 24 61  1  0  0  0  0
 26 62  1  0  0  0  0
M  CHG  1  26   1
M  END
> <OMEGA_C>
DGTRQJQPZ7/WarLBzCITQeh/bL65TJzBdMW3QNyrVj5p0a/BrSUMQUM/Vz/64JXB8knUQOSf/r+1
S6vBIlkbQcDmlDyzm6bBQjilQIb8Ur+q2J7BSx0VQWwUGkC/LKTBorOhQKhPfD7X96XBiPAMQb1f
CkAW2pnB01C9QJiB+7/+mqHBGV0cQfpMqz9miKrB5IDEQPDqREA4CYzBhCDTQESPikDyc53BUBXv
QHiep0D9QYzBVS2yQKd29z800JLBwue+QOB1SkBLtaPB+2DlQHT6e0BLYJLBDZOpQHarcUDzvq3B
SLi1QHnJmMDHQojB2UCGQCgCtj8yuaLBKsWUQBU4mMDeX5HB66WTQJRDWMBOfZbBO8YHQSymnEDN
ZoTBBvcHQc5kT0AtQpPB2w+fQPZDHUDj25zBYHccQfjeK0ChjYHB4GMrQVn9jkDJho7BHeu8QOts
RcCTQpvBooYkQbCTyj8rW7TBmIAZQTjUcEChZYnBi9HiQG/3a7904LnBpzMSQQYin78XU5nBwwK1
QDlZhD94W7XBsC0GQYP3Jj+G6Y3BNBboQA+/NcBOQq3BXN0gQfFlTb+kgKvB2GCVQB0bR78sLZfB
7tAVQa67WkDKNafB9gmqQFJabkCqa4nBC4jUQMSGKUAt/YTBKFztQHfZl0AQSqLBh3e6QOw0o0AX
PpzBHzT7QIw9wEDJxJHBcQ7SQK92s0CdQYjBoAfMQLdznT9m0ZTBaVmZQKNutD/+MI7BVy3YQInA
HUBsN6bBpZmaQB+NPkDaf7LBMAGRQFQDkEDtRKvBFfTBQPMqiUAnm7LBA2u2QBzCuMBSlYTBS5LV
QAoYkcCyeYvBoMesQIrngMDiMYLBTAVxQIgf8D8W96nBOJdYQIPQhz8zh53B5rqdQMEgsMChbpfB
dOBpQELwn8DSJo7BcpZ1QELWVsDqt5zBk1SMQDIEKMAGWZDB0a0PQfgvt0AnUILBRNWJQOGwSUC0
n5rBwJ7MQLgRb7/teLLBSz4cQepvqz8UqqrBxxu0QDImMz7bXq/B9noVQQ2YGkCXPqTBu5zRQKNF
AcDGdavB0aAaQfBgnzymz6bBN5akQF4uZ7/9Q57BSLQLQWZRWj8VDZbBzeyfQBbtRj47SaXBUhAN
QVQqC0A99ZnBuzi+QNktAcCtRqHBvkwSQf5wZb4rhJzBLefEQKgrSkAfF4zBqd/TQENvikAP153B
5+zwQAA9qUCK4YzBcU+yQGZC/j/AfZLBq0u+QNphSUA3waPBgzPmQMY8fkCEq5LB0DeoQGsIcECr
u63B4QRaQNC2d8Bay5bBRkKFQD9Asj+v8aHB2UKSQP0vh8BjRI/BCcG2QDOnTMCPA5DBrCQIQaQZ
nkAZu4TBuDAIQR07UEDIXZPBqbyeQNmnHUAolZzBwlUaQeY3KkAlFoHB+kEsQUZVi0Ak3Y3BwODG
QENkSMAX6prBqOQQQTrEvr9Ly5jBDjcZQSSobkAvH4nB6qbbQCTdc784QLrB2asiQdxCwz9/i7LB
jK+wQDsSgj+NuLTBJb0WQbJYW0BnM6fB05fkQNueN8DN563BacYfQZNtTr+0v6vBdquUQPheZb/A
mJbBHZsFQQXmKj+gGo7BVp6qQAkNdUAcvYnBpaDUQILjMEAY4YTBZ03uQGtBlkBj2KLBpPK7QA/t
o0Dh0JzBuXz+QFiPwECWiJLBTwjUQATCtkAgKYnBpBrMQGRVoz/1YJTB572ZQMKyvT+Hpo3BcvrW
QBOiG0DeVabB/T+YQHLZPEC+RLLBFl6QQHrTj0A1MavBVFnAQGqLh0Bq1LLBkEUnQCwPlMBnBpbB
x1RAQEV5OMDto5TB/ytxQDNSdsBeGp/B+0xsQHbT6D+FH6nBAqVYQBRdhj8nX5zBBFOGQA3+h8C0
/YbBoL6eQITqpsAldJHBNrKqQOxNDcAeo43B2NfQQD3VX8BZnYrBlpcQQdI1uEAO2YLB9aOJQFu2
SkBSeJrBdzHRQKqUar8xgbLBkiMcQTO9sD9C+6rB7cm3QJouUT6B+6/B8fkUQcv+G0BDdKTBRjLU
QLdl/r/ZPqvBYVgbQQgdYT0+MafBQ9qkQA8JT79x657BcTEMQa5lVz+IVpbB54uhQIHcgj5CJqbB
w+4MQen0CkDiH5rBWYK9QPR/97/sh6HBlE4TQT0pXL4S4pzBOrrEQN2vQUAXA4zBccPSQAj1ikDD
KZ3Bgx/vQOEfpkAbzYvBDgmyQNec9D9mBJPB6ke/QEvOS0DmqaPBCV7lQCWAekCuNZLBaOKqQL2J
c0Dlx63BtoyyQPounsBjv4rBd2KGQGnFuD96EqPBF0mLQPWIh8A6jY/BUNiUQIopbsA90JrB64oH
QdwGmkDt5oPBTxAIQdIST0BBV5PBFyGfQOKtHUA4AJ3BpL4ZQS38IECNNIHB9uorQbSciUAdD43B
AS29QC52QMCr2JrBjckSQa8zvr/SMpnBFsYYQWzjaEDawYjBoVbiQCj2c78xALrBID4iQWwbyz8O
5bLB51C1QOEjgz+ckbXBB6QVQd0IXUAmXKfB7MrnQLsgNsAaHq3BEuYgQaw6Qb+SMKzB0GeUQOph
Q79dVJfB6ikGQVhnIj+FaY7B42WqQOBsakDdJonBSRLVQBB0JEDAIIXBK6fsQORimUAK6aHBdJy5
QN/rokAOv5vBacb7QCctv0DSHJHBtv7RQCnYsUCl0ofBtqrLQII2mj/aIJXB5f2YQK8UsT9kf47B
YOjYQIWTH0DmE6bBKYKcQM6jQEA0r7LB0feRQGy/kEAWaKvBwKrDQMRiikAUc7LB/c+qQPKvqcCt
qILBMnW7QMZ+ucA21Y/ByXbNQAiQh8BoUYrBeG9zQF8q9D9DZarBX09XQJAgjD96Ep7BHu9gQNlI
nsCT7Y/BJ3mCQDW0WMDFaYrBQMSWQE1PksCjXqDBbyt2QLfDQsDWXp3BauAPQYUItEAR0IHBG+eJ
QCrTSUDtrZrBxDDLQG5VcL8pmrLBxLERQcHvhb44jpzBprGyQIJnMj54lq/BvycLQblNUD+8DpbB
5IbQQFCzAMCGdqvBpmQaQWDZTbyow6bBG9WjQPp4X7/tUZ7BspAVQfyeGECkE6TBrOCeQLJWWD5p
dqXBV90MQXDmCED93ZnBR3G9QEEJ/7+0PaHB/WMcQaPmpz+NgKrBVnnEQP21SUCJJozBKIvUQAIt
ikDq153BfnnxQIZgqEBvy4zBGpWxQA3B/j+lnZLBx7W+QE5+SUD71KPBt1fmQLD/fEBso5LBkV+p
QP/CcEDk3q3B/cVVQE9vdMAqiZjBhLKEQHsCtj+IKqLBnyOOQJ+Kh8BGoZDBnNGyQF11TcAPO5DB
uRQIQc+hnEDfh4TB6BwIQXrvTUDzP5PBno+eQI2oHkAzvZzBz/8YQScJJUDCwIDBIWYsQaDwh0AE
MY3BXRHHQNwJRcCFqZrBfRYlQfI3xz9sNbTBJ9AYQSXjaUB/wIjBG/PZQGvCeL8GabrBVAsQQU9i
o7+qt5nBhwGvQL+VgD/6CLXBDtUEQf32Hz/xKI7BFIrjQOQyN8AK163B2ocfQVQdVr/GuavB2CWU
QCc0Wr9xn5bBDf8WQed8WUBA+abBcGmqQOdCdUA/1onBqcfTQB7SL0C+6oTB7knvQHa6lUBByKLB
N+W8QDryo0Bp2pzBX8j/QJ17v0AlY5LBppzUQDVktkDoLInBnR7LQJx6oj8Yd5TB4KCYQEJcvz+m
1o3BLjHXQJgRG0C4V6bBpESZQCIIPkCFdLLBQ7yRQKCDkEC8ZavB9fPBQIqUh0AN5bLBV9AiQN6A
ksAYkJjBjO86QGJdNsC9FpbB7R9xQJXXbsBDnaDBBhpsQHCt7T9JX6nB0M1WQCmdiz9lppzBshOA
QEZyisBwmIjB4iubQF+vpsD2HpPBB+ylQI7wDsBryY3BWdDKQEjAYsA4XorBlsoQQZtetkAOoILB
18KJQC5aTEAcqJrBHcvBQJffib/BtbTBxUz5QKCgEUHCspDB7nmsQFRguz3iYbHBDhYBQdZK+UB8
PI3BfCbJQOjTB8DYX63BH5XYQPxeFUHmMZjB36ulQAKuVL9fY5/B0fbIQLdg3kC8oJjBhhSeQM4I
Vz4gvKbB2VfqQJn61UAuNJHBHcC7QIlBAMDin6LBlnDAQIkcBEEnJ5zBYx3mQOoIdEAdYJ3BYLCs
QFMthEB6pI7BQfnyQKcNP0DzUorBLpvPQLgHIkAuM6HBWquQQBoJY0DBzpfBzgveQIAHg0BTN5HB
UL5FQBr0U0Cna5PB5j9uQN/mP8DHWI3B6DiIQP/jvT+DC6PBpAqkQCP3XsD5CIrBkEbIQCDjMsB7
YpDBiDwQQUbEUkCiRIrBL8P0QLHOq0DL2I3BTQGlQFSXEkAPBZzB4rwjQUWGq0BEC5LBDBkXQb0a
rECWyXzBr0/EQE5sRMC7zZvBVfKgQAaKB0FTYaPBnnsUQQ1Sn0C3oYnBHIPMQMEXlr9q47zBm9UF
QYTgHkGNlo3BpCenQLSTZT/Z+7bBJrUNQTzk80DZfYfB6ivZQEhfQcCy/q/BoQXSQPdyJUEr55rB
DaCaQCBsPL+PPJfBDdW1QKsvxEBdnJvBQl8EQa0tbUBSs57BYgTaQJ9AlUAND6LB6yijQBWepUAb
Ro3B3+SmQAXKYkCjV4fB3hDmQLo9QEBsI4LBHEntQLJx/z/+5I3BOr7KQJm7JkBM5anBDYLkQP1i
1j/mbJ/BzvCOQC1JiUDASJ7BzBQdQOCEOUCVzJnBqWVIQNqSJkBws4zBgcQqQI2JiEBfpZDBypA9
QN5wYcCTkYjBkCppQBkn9b8D9IvBiOtjQJ2BTcBC4pXBJOZ+QF9PBUAJF6rBA05WQO01nD8ljZ7B
XJ2oQL53UcBseYHB2P2lQOcyksCrZ4vBRorGQOK52r8YEo/BMVLnQAz/SsAGiY3BRgYXQQ3tNkAW
6oPB2OiqQK1Z3D/am5XBMQHCQFiCir+6qLTBIpPBQNVNBEGjKpzBX9esQED8uj0TYbHB18fJQKqY
3kDxsJjBCfzIQBUgCMBlTK3B1PTZQBxsFUEsLZjBS2+lQKlXU7++YZ/BGIMBQfr0+EBaOY3BzDWe
QAjxWz5nwabBMgTrQJ/d1UDGO5HB9Vy7QHg7AMDYkaLBKYn6QAiDEUG8qZDB7YrmQFLKc0ACW53B
2tusQAh6hECPt47BYc7yQILJPkCcRorB8PbPQMboIUDqL6HB/vWQQPaxY0A+6JfBkkHeQJP+gkAO
N5HBmRZGQMIkVUCukpPBVgFsQCDYPsDTZI3B53eIQPoPvz8IH6PBHL2iQNBrXsDBAYrBbEXHQPDS
MsAcTZDB9i0QQazuUUBFJ4rBTR71QPCkq0BQ143B3TOlQMn7EkAGEZzB2f4jQTXTqkDK35HBnRAX
QS+mq0DYi3zBe4/DQHBqRMBRuZvBF+UIQSD8IUE5uozB7ZIUQSDankCGhInBCOXMQEE6l78B0rzB
O3moQEtIB0Fr6qHBPdGnQJF+ZT+9/7bB8o22QIGUxEBIu5vByeLYQOfnQcAV4q/BFLPTQCSKJUH/
3prB8TiaQBAOOr9YP5fBbBEOQaFO80BgdYfBypcEQS6sbEDBop7Bq6LaQJAklUCPEKLBBn+jQFf+
pUDiZI3BOcamQHWtY0CPaIfB2rPlQFw7QEA8HILBmALtQBj4/j/p143BNFTLQKZ0JkBZ5KnBbrPk
QHLc1T9RXJ/B2nmPQE6OiUC1Zp7BTI8dQDbBOkDD95nBC0JIQK/nJ0D31YzB4UkrQAg6iUBK1pDB
Y+A6QNQPYMDhpojBkkNnQCv28r/OAozB/QhiQABxTMAP8JXBOPB/QOjdBUCLMKrBOX1WQJYgnj8o
q57BOiGnQH7sUMCucIHB74OkQDTxkcDvXYvBWLTFQL2J2r/d/47BFivmQGVFS8CFZY3BMNkWQWL7
NUCUxoPBX9yqQLA73T8po5XBlnvCQEukjL9wN7TBMkj+QKO0EUFQO5HBm7WtQH/nxD0MSrHBOMcC
QTV5+UCFho3BEZbHQH1+CMD+qKzB6breQHegFUFAA5nBdC2jQFidRb/bO5/B4A/NQAlT30D/PpnB
k9GdQJICgz4Sz6bBi0LtQBCM1kBMh5HB/Ru4QKuB/b+YHKLBkyTGQISQBEFLA53BxgPoQDffc0Ar
V53B4BStQPmqhkA5HY/BU7zxQATOQEDYF4rB6tvQQMajIkA6K6HBJrSRQOd/aECBbZjBl63eQC39
g0CNSpHBwFxGQD2VXEC8YJTBT1uhQCtyq8D8Vo7B18yIQIKQxz+Mg6PBbpC3QOrOg8CvjYnBtC6u
QMwdN8DoNpDBFrsPQUIGUkBxuInBLhX2QDVarECn6Y3BYl6lQNZpFkAwVJzBMp0kQRuBqUDPdpHB
cMoWQQ8mrECJDHzBJ2S+QO34QcA+BJvBbManQGspCEHtg6TB/q8UQda7nkA0PonBcYLOQFWKnL9e
QbzByH0IQRDPHkEZF47BB/OpQEXdYz8NErfBh/UOQcrL80BVkIfBmnPXQEQZQ8DF867BEGfZQJOw
JUHx55vB0E6XQEcYJL/xL5fB0pa5QKJ0xUBVRJzBfFcFQdDvakBKYJ7BRkbdQHIqlUBnOqLBtlak
QKVwqEC78I3B7NilQG7+aEAszIfBRtfjQE/UQ0A/BILB+5vrQKRTAUCXk43BNELNQL5IJkAt6anB
BrPkQM/V1T/4Fp/BpXmRQBCni0A6AJ/BFpAeQFWHQkBz3ZrBUgVGQK78L0CekY3Bhn0sQJ9kjUDU
0pHBQ6eoQMasx8DUaInBCBl9QLg9psDKfY7BMwGtQI64sMDkiZbBAsaBQBqtCUAfuKrB+pVVQHwh
qz9JRZ/Brt6rQFypfcDcWIHBXVPaQIRPicD2ZInBuGmLQCRlLMBGgpDBYNa9QEYl/7/Ze4zBvewV
QSlZNkCyNIPBitWpQJTB5D/7z5XBj5LCQFFgjL8oOLTBlMrFQG3ABEEN45zB5MGtQLgnxz31SLHB
KcTMQMmK30ANNpnBorTHQPJlCMBKq6zB4oLeQHu6FUFo4JjBTECjQGjaRb8APJ/BrLgCQb9i+UBJ
f43B7tqdQG69gj7TzabBXxXtQFOR1kDPhZHBBTi4QK6B/b+uHqLBmzD+QDq0EUEPJJHB4NrnQOkQ
dEBSVp3BmPysQJamhkBVGY/BpqvxQGLIQEAXGYrBa8vQQLa8IkDwKaHB05qRQFxZaECNZ5jBTZHe
QC4AhEBBSZHB1jxGQEk8XEDaVpTB04ShQA2Hq8BQYI7Bq8iIQNlVxz8qgKPBMLS3QCjmg8AKlInB
2EyuQEFBN8CrOpDB1rEPQUgHUkDbuonBkPL1QNlarEBQ6o3BgFSlQN9XFkD/UJzBYJMkQVKQqUDc
b5HBm7UWQQUUrECvAnzB34W+QAMCQsAVCJvBh+EKQcYLIkHbL43B9aAUQb27nkAHO4nBrZvOQFQf
nL8sQrzBGmCtQMXRB0FlzqLBXfmpQJ5EZD+lD7fBFUq5QPzAxUDqRZzB55nXQP30QsBm967BODTZ
QBTTJUHQuZvBE2KXQGeYJL/HL5fByO4OQWGP80Bjj4fB00MFQSlYa0BkY57BfADdQBFAlUCwNqLB
RDikQIZrqEBn7o3B5cmlQE8AaUDixofB1svjQFS8Q0DTBILBoIzrQCNTAUBwlo3B+CvNQF9dJkDE
56nBT7PkQIY01j9UFp/BWEqRQOiUi0D4+Z7Bn2weQLAYQkDd0ZrBShBGQKOjL0C4h43By0IsQBsx
jUDZx5HBItSoQEvGx8AgdInBsGp9QCRXpsD0ho7BNSytQIDCsMCGk5bB67aBQOySCUDQs6rBiJdV
QL+wqj8kQZ/BCQGsQCjtfcDwXoHB5nfaQPBhicCCa4nBBYeLQMCTLMAvhpDB++69QOtw/7+cfYzB
9+YVQW1GNkBAOYPB/tepQHqS5D/NzZXB6NPEQHb1V79OJrPB5vTuQO0w/0DTBZLBIlCrQMxLgT4l
NrDBaqbxQNHy0kBWppPBD9zMQP7h779ow6vBaI77QFpkCEGgL4jBQ/6hQGCYNL/uZJ7BbOYHQeK/
yUCjzIHBWkCZQNQeoD5H7KXBJygBQY7Gt0AjmovBUra7QOOT6L+eW6HBNtIFQeMQ9kCeDIDBrE/l
QHxMZEDf6p7BJa+2QGjid0DCC47BbwzxQHlzBEBVzY7Bi0i5QMaIUkBE6aPBbqiSQLBqP0Ai35LB
FyjkQIKmX0CcUJLB3TmFQCBH9T/+rorBxBwzQASGgMCuKJDBftOBQARbxz8ykaLBAsh3QNpJbcCl
f5jBxh6lQAJdT8AEzpLBsqkPQU8JBECNM5DBMKwCQeKii0CkK43Bu++hQNSxFkAP55zBDCIrQVxf
gEBROpHBpOsbQUSxT0BJ9n3BnKDFQBruNsAQdJrB6lwLQfCFA0FHAm3BetsZQWAQXkA1jIrBok3S
QN8rZb9VGLvBjjbjQADdCUFLUpjBKZClQB1fhj8l3LXB1OTmQAZlxUD8IJvBelvgQH3hLcDnF67B
N+v4QAJqGUFf2obB7SGVQG2DI79+ZJbBA6QOQQWJtUBoT3fBAzf8QC53NEC/5qHBwdrvQHxSkkBd
U6HBmjSwQA6QnUCOFpDBvG62QJs4cEBnTIXB7mDoQKvU8T9eZYbBQcPhQL7Fpz9I5pPB00GnQNhc
h0A/oqTBTmC9QJTdNUAR4qvBEr5tQJdLaEDwn5TBTGZXQCBkpT/hHY7Bb/igQKaFpD9NuIjB8t1y
QA/nGUDtXoPB4K/wP10vi8B3NJTBaAtKQF33mcCvy4rBeoAlQIsQR8CGd4vBSXVrQKBuBkDgmKnB
3PFNQHuBpz/CPJ3BFrWCQLWhk8DoMJ3BP99gQDplOsC/3J3Bw5KdQBoFGMAZtI3BvGixQFf1gcDu
0Y3BVuUVQRjUoD8QpYzBA/23QHnV2D//hJrBVDHOQHLrvL+Qn6vBp0cTQZyvjL6SoZvBvBC+QJDG
H748u6vBn18MQZoMUT8hZpXBFSy8QAnwG8CspaTBXWYbQcBma72zAabBY8SMQLr8PL+bZZ3B5ZwV
QevTFUDK8aPBmTedQOhTSj64gKTBYVYNQXgUCEDyl5nBvPiZQCfuA8D0xp3B2IkcQY0ooD9IKarB
SS/EQE3/R0ADrYzBPIDWQL0mi0DwC57BFQvwQIRyqEDAp4zBXQKyQPoO/z9GnJPB6tTDQDgUS0Da
aaTBhpbmQNNRfUBXwJLBzUOyQG7WbkDnE6/BfUTBQLwMnsC9CYXB06CIQPM1xj8zLqTBvyy0QOs8
bcC7b4vB+RiTQGB0g8Dc6pPBKHMIQYoRnkCA3oTBtE4IQd8mTkBhL5PBcM6hQCQHIkBc+p3BgIUe
QS9+MkAf3IHBx2YrQTA1kUBLqY/Bgsx/QE70O8AyTJjB/oUkQfiTuz/5ELTBkVkaQf3EdEAD7InB
8jzoQC4c4L/027DBiVoSQXSNo7/ddZjBpLDKQBO0Ej/rRLHBFFcGQRrPJj85aY3B5U7IQHamXMBo
iqTBGsAgQePLZL9VxqrBs+BqQHhG3b7cgpfBD6MWQasFVkBCG6fBrdupQPO2ckCtTorBqeDSQCIG
LEDve4XBGZHxQNJ8mEAhlKLBboC9QMiuo0CYK53BH6P7QNAuwUB1NJLBlQLTQMjws0DWl4jB11/L
QIvQoD+4M5XB8IyXQL2nwD/vT4/B42TdQPKsHEDxIabBu5+kQH1EOkCx1bPBOkCZQHRDj0CpZ63B
D2zMQOWXhkDrlLPBT/3YQDnplMAE533BAO+kQJe6q8CdF4HBnFHPQDv3tcCtdIrBJS2FQJt/9T+d
bKzBOKFRQH7GuT/MfqDBsBymQINkPcC+BYbBTH/QQMvdUcDOYo/BHgajQCCOlcBCVJrBxIZ0QGGC
l8BcNZDBmS4QQc/duEC304LB+GKNQGTQUEB2C5zB

> <OMEGA_E>
bPyiPvx6qD6Uya0+gCigPqMxiT/jIok/hNaIPy7ViD/h1YA/9LUQPw==

> <OMEGA_NBR>
    121927

$$$$
50220701
  -OEChem-04172616093D

 65 68  0     1  0  0  0  0  0999 V2000
    6.4409   -0.7967  -22.4422 C   0  0  0  0  0  0  0  0  0  0  0  0
    9.7676    1.3139  -21.3019 C   0  0  0  0  0  0  0  0  0  0  0  0
    5.6539    0.3096  -22.0776 C   0  0  0  0  0  0  0  0  0  0  0  0
    9.3516    2.3932  -20.5002 C   0  0  0  0  0  0  0  0  0  0  0  0
    6.5753   -1.8842  -21.5620 C   0  0  0  0  0  0  0  0  0  0  0  0
    9.6523   -0.0054  -20.8216 C   0  0  0  0  0  0  0  0  0  0  0  0
    5.0793   -0.7875  -19.9821 C   0  0  0  0  0  0  0  0  0  0  0  0
    8.7064    0.8337  -18.7347 C   0  0  0  0  0  0  0  0  0  0  0  0
    4.9755    0.3168  -20.8399 C   0  0  0  0  0  0  0  0  0  0  0  0
    8.8135    2.1555  -19.2188 C   0  0  0  0  0  0  0  0  0  0  0  0
    5.9172   -1.8817  -20.3167 C   0  0  0  0  0  0  0  0  0  0  0  0
    9.1186   -0.2457  -19.5395 C   0  0  0  0  0  0  0  0  0  0  0  0
    6.1466    3.0808  -17.5137 C   0  0  0  0  0  0  0  0  0  0  0  0
    6.6411    4.3523  -19.6733 C   0  0  0  0  0  0  0  0  0  0  0  0
    7.5052    5.2329  -17.5103 C   0  0  0  0  0  0  0  0  0  0  0  0
    5.5431    1.9623  -18.3822 C   0  0  0  0  0  0  0  0  0  0  0  0
    5.9912    3.2072  -20.4745 C   0  0  2  0  0  0  0  0  0  0  0  0
    7.1931    3.9400  -18.2875 C   0  0  1  0  0  0  0  0  0  0  0  0
    5.3578    3.8578  -21.7278 C   0  0  0  0  0  0  0  0  0  0  0  0
    5.2001   -5.2106  -17.4996 C   0  0  0  0  0  0  0  0  0  0  0  0
    3.5426   -3.8549  -18.8467 C   0  0  0  0  0  0  0  0  0  0  0  0
    4.1583    1.5105  -20.3883 C   0  0  0  0  0  0  0  0  0  0  0  0
    5.7854   -2.8526  -18.0800 C   0  0  0  0  0  0  0  0  0  0  0  0
    4.6216   -3.8050  -17.7356 C   0  0  0  0  0  0  0  0  0  0  0  0
    8.5093    4.8773  -16.5211 N   0  0  0  0  0  0  0  0  0  0  0  0
    8.5180    3.2370  -18.3947 N   0  0  3  0  0  0  0  0  0  0  0  0
    4.9680    2.5163  -19.6361 N   0  3  1  0  0  0  0  0  0  0  0  0
    9.6789    2.6058  -16.1327 O   0  0  0  0  0  0  0  0  0  0  0  0
   10.7638    4.3522  -17.6976 O   0  0  0  0  0  0  0  0  0  0  0  0
    6.1537   -2.9640  -19.4833 O   0  0  0  0  0  0  0  0  0  0  0  0
    9.0215   -1.5113  -19.0743 F   0  0  0  0  0  0  0  0  0  0  0  0
    9.5865    3.6969  -17.1113 S   0  0  0  0  0  0  0  0  0  0  0  0
    6.9422   -0.8109  -23.3987 H   0  0  0  0  0  0  0  0  0  0  0  0
   10.1751    1.4970  -22.2851 H   0  0  0  0  0  0  0  0  0  0  0  0
    5.5685    1.1545  -22.7448 H   0  0  0  0  0  0  0  0  0  0  0  0
    9.4447    3.4047  -20.8669 H   0  0  0  0  0  0  0  0  0  0  0  0
    7.1878   -2.7282  -21.8427 H   0  0  0  0  0  0  0  0  0  0  0  0
    9.9731   -0.8334  -21.4364 H   0  0  0  0  0  0  0  0  0  0  0  0
    4.5173   -0.8049  -19.0601 H   0  0  0  0  0  0  0  0  0  0  0  0
    8.3086    0.6505  -17.7475 H   0  0  0  0  0  0  0  0  0  0  0  0
    5.3342    3.7386  -17.1714 H   0  0  0  0  0  0  0  0  0  0  0  0
    6.6400    2.6239  -16.6432 H   0  0  0  0  0  0  0  0  0  0  0  0
    7.4739    4.7564  -20.2675 H   0  0  0  0  0  0  0  0  0  0  0  0
    5.8847    5.1364  -19.5213 H   0  0  0  0  0  0  0  0  0  0  0  0
    7.8966    6.0027  -18.1917 H   0  0  0  0  0  0  0  0  0  0  0  0
    6.5978    5.6088  -17.0150 H   0  0  0  0  0  0  0  0  0  0  0  0
    6.3315    1.2386  -18.6365 H   0  0  0  0  0  0  0  0  0  0  0  0
    4.7488    1.4549  -17.8150 H   0  0  0  0  0  0  0  0  0  0  0  0
    6.7674    2.4935  -20.7875 H   0  0  0  0  0  0  0  0  0  0  0  0
    4.8763    3.0816  -22.3407 H   0  0  0  0  0  0  0  0  0  0  0  0
    4.6059    4.5978  -21.4163 H   0  0  0  0  0  0  0  0  0  0  0  0
    6.1411    4.3568  -22.3172 H   0  0  0  0  0  0  0  0  0  0  0  0
    5.9645   -5.1652  -16.7099 H   0  0  0  0  0  0  0  0  0  0  0  0
    4.3936   -5.8917  -17.1903 H   0  0  0  0  0  0  0  0  0  0  0  0
    5.6558   -5.5804  -18.4299 H   0  0  0  0  0  0  0  0  0  0  0  0
    3.1350   -2.8461  -19.0083 H   0  0  0  0  0  0  0  0  0  0  0  0
    3.9944   -4.2216  -19.7802 H   0  0  0  0  0  0  0  0  0  0  0  0
    2.7323   -4.5329  -18.5405 H   0  0  0  0  0  0  0  0  0  0  0  0
    3.7286    1.9981  -21.2757 H   0  0  0  0  0  0  0  0  0  0  0  0
    3.3469    1.1544  -19.7365 H   0  0  0  0  0  0  0  0  0  0  0  0
    5.4772   -1.8177  -17.8702 H   0  0  0  0  0  0  0  0  0  0  0  0
    6.6559   -3.1091  -17.4584 H   0  0  0  0  0  0  0  0  0  0  0  0
    4.1486   -3.4585  -16.8049 H   0  0  0  0  0  0  0  0  0  0  0  0
    9.0284    5.6966  -16.2774 H   0  0  0  0  0  0  0  0  0  0  0  0
    4.3240    3.2264  -19.3515 H   0  0  0  0  0  0  0  0  0  0  0  0
  1  3  2  0  0  0  0
  1  5  1  0  0  0  0
  2  4  2  0  0  0  0
  2  6  1  0  0  0  0
  3  9  1  0  0  0  0
  4 10  1  0  0  0  0
  5 11  2  0  0  0  0
  6 12  2  0  0  0  0
  7  9  2  0  0  0  0
  7 11  1  0  0  0  0
  8 10  2  0  0  0  0
  8 12  1  0  0  0  0
  9 22  1  0  0  0  0
 10 26  1  0  0  0  0
 11 30  1  0  0  0  0
 12 31  1  0  0  0  0
 13 16  1  0  0  0  0
 13 18  1  0  0  0  0
 14 17  1  0  0  0  0
 14 18  1  0  0  0  0
 15 18  1  0  0  0  0
 15 25  1  0  0  0  0
 16 27  1  0  0  0  0
 17 19  1  0  0  0  0
 17 27  1  0  0  0  0
 18 26  1  0  0  0  0
 20 24  1  0  0  0  0
 21 24  1  0  0  0  0
 22 27  1  0  0  0  0
 23 24  1  0  0  0  0
 23 30  1  0  0  0  0
 25 32  1  0  0  0  0
 26 32  1  0  0  0  0
 28 32  2  0  0  0  0
 29 32  2  0  0  0  0
  1 33  1  0  0  0  0
  2 34  1  0  0  0  0
  3 35  1  0  0  0  0
  4 36  1  0  0  0  0
  5 37  1  0  0  0  0
  6 38  1  0  0  0  0
  7 39  1  0  0  0  0
  8 40  1  0  0  0  0
 13 41  1  0  0  0  0
 13 42  1  0  0  0  0
 14 43  1  0  0  0  0
 14 44  1  0  0  0  0
 15 45  1  0  0  0  0
 15 46  1  0  0  0  0
 16 47  1  0  0  0  0
 16 48  1  0  0  0  0
 17 49  1  0  0  0  0
 19 50  1  0  0  0  0
 19 51  1  0  0  0  0
 19 52  1  0  0  0  0
 20 53  1  0  0  0  0
 20 54  1  0  0  0  0
 20 55  1  0  0  0  0
 21 56  1  0  0  0  0
 21 57  1  0  0  0  0
 21 58  1  0  0  0  0
 22 59  1  0  0  0  0
 22 60  1  0  0  0  0
 23 61  1  0  0  0  0
 23 62  1  0  0  0  0
 24 63  1  0  0  0  0
 25 64  1  0  0  0  0
 27 65  1  0  0  0  0
M  CHG  1  27   1
M  END
> <OMEGA_C>
nBvOQBbyS7+YibPBGUgcQYcsqD9KaqrBDu20QESCnj7VnrDBTKAVQXYpGUBlAKTBpGjSQG0s8b8A
f6zBxW8aQYBSsLuzkqbBCYqiQNyaSb9u25/BgE0LQYRsVT+V4JXB6TafQIYuoj4suKbB/gMNQXDz
CUAKwJnB6lm9QGHc8L+FiKLBtuURQWCTe77nUJzBVbHEQL4rRUAiHIzBk4PUQOFFi0DvYp3Bhirw
QAp0p0AyFYzB/2CxQJcs+z+xDpPBsLe/QHRDTUCxy6PBBi7mQLgpfEDaTJLBLHOrQOrldkB/0q3B
NmemQEK9psAe/4vBELpiQNq2dsAHxpbBFRGFQI9XwT8jG6PBGiK5QIaQNsDZo5DB++OTQGCFc8CQ
4o3BRiYIQeASnEAfK4TBxUkIQbwrT0BUKJPB1/meQEoKIUC+Fp3BrdwaQfrFJkCrD4HBbTgsQS9F
i0C7lI3B4+rEQHSxPcDJ3ZvBL1gQQV1ywb8emJjBSWIZQTyZbEAF5IjBfCbeQP+ZT797MLvBYs0i
Qfedvz/5R7LBzTCyQLHGkz9Z9bXBqR0XQb7mWUB276bBuALmQKSaLsDova7B2ZEfQQtXVb+5favB
jI2QQMEPTr8Te5jB+O8EQfWDJj/P+o3B4LGqQHZFb0DwXonBFnvUQBDuJ0BHJYXBPyrvQLE0mEDH
I6LBZU+8QDpdpEC4K5zBFrH8QOkVwEChiJHBYSHTQHB7s0CyHojB7ZvKQM6Lnj+JF5XB//WXQNI6
uj81hY7B447YQP6VH0DjTKbBcgqcQEE5RUDMubLBYWOTQPogk0CaVKvB/IPEQLBqi0CuibLBVt2+
QD1JpcDYrYXBdpiMQPiIvMC0hYnB7fu0QOeSssCJcJPBn6RIQOIlNsAHEZjBoaR/QDsXh8DTPZ7B
s90uQE0NkcD+UpTBHKJuQM3C/z+iNKrBNDNWQPnDkz9m5J3BU0WvQM+p6L8r9o7BRP3UQEP7RsDA
qovBFcGEQEBYXcB/cIbBWnQQQV9KtkAhOILBLF6KQMN8TkDdz5rB+qHPQBgXRr9kV7PB9aQRQbvb
g77x15vB9CS2QHd0qD7qf7DByA8LQSRuWD9Jq5XBf1nTQH4f779OV6zBxH8aQQjcV70AFKbBKQei
QE5nSr8p9Z/BuZwVQcDCFkA+FaTBYlqfQDGUpD57wKbBaeMMQYDsCUDn0JnB51m9QLow8L8/gaLB
f4QcQQSRoD/uLqrBTIDFQKykQkAfF4zBzI3TQH7Bi0B5OJ3Bb9DvQC/fpkDR3ovBs6uxQNSB+D9+
JJPBHCC/QMlsTkBuuqPBQiDmQLLTe0D7RpLBTn6qQJo7eEDTsa3BNHWmQGb8psDW/ovBVJdiQIB7
ecDQBJfBhAGFQCx1wT/4J6PBDPu3QOluNsChopDBCTOTQLLJdMAa/o3BWwUIQVMTm0B3BYTBLHgI
QanNUECcb5PBgsOeQJ7VIEAwDZ3BKW0aQWC4I0B1UYHB/FQsQQUKi0D/QI3B83rEQIBvPcBe0pvB
m2wlQURSuj8Q6LPBMkgZQTRfa0CC5ojBllvgQKPAR7/t5rrBwegPQSg5ob8wvZjBiwG0QENDlz9X
xrXBF5sEQW7GMD9IwI3BUjjnQIBbLcB4ha7BNb4fQeW2Zb/4x6rBIyGPQGAFUr9RupjBiAAXQaK/
VkB7RqfBcqKrQJyea0DHBonBayfWQLMWJEDrV4XB2abtQFKemUB7AKLBeO+6QHY/pEA2yJvBTif8
QJ8BwEAKNJHB+bTSQBVkskCa2IfBZbjKQOcdnD/xWZXBrXCYQC21tj+alo7BkjbYQDyNIUAbTqbB
n1ybQOSCRkD9pLLBNCaSQN1jk0DXIqvBdk3DQNyTjECMY7LBI3i+QFb9pMCDlIXBkuuMQBRBvcBX
nInBa8C1QNqcssCFXpPBfXFHQK50OcD8YpjBR3aAQCtEiMA/a57B3EIvQGXoksARqZTBPvJuQCEu
AEDgQ6rB78JVQBZukz/3AZ7BrV2tQLQe6b8dBo/Bg7PTQKCZRcDWjYvBTWGDQMoEX8AInobBi00Q
QZQ1tUDw+oHBkgaKQAGXTUBso5rBwPnEQLBmhL/LrrTB/1r/QCs1EUEDGJDBFFGwQM7GJz7Sx7HB
6+sCQaUv+ECjgYzBBHLIQAqSBcCBO63BjrHgQMeFFUH7CpjBeMShQBVGQL9sD6DB5VbOQIpQ30Dg
r5jB3H+eQIucmj6UeafBUKPtQAzA1UC9zJDBBom3QAsz+b8M0KLBbTXIQPW0BEFBVZzBDcLoQDHe
c0BfAZ3BxXysQK5RhkAUH4/BtkDwQPw6PkA/zonBE6vRQOyFI0A1I6HBeeiRQOSNaUCer5jB1UTe
QFpSg0DU+5DBUuJFQB/3XUCp9JTBcwfGQIpwpsCA3ovBle17QJfngMDf24vBr4qJQM5/zT++KaTB
BHjBQIotL8B3kJDB7HmuQIvQd8BmqonBNwAPQXmLTkCSGonBzK71QElAq0A/S43BqI2lQBWcF0AJ
pZzB15EkQerXp0C/UZDB5cEVQRqJqUDyHHrBDsC6QC2HQcAv5JvBKbGqQIavCEF5/6PB0ywUQa3c
nECKWYjBPinSQDvFkr9cnrzBxvwIQZgeHkFUu4zBrx+uQIz1eT8UcrfBMcMOQfvm8UC4aYbBsSHY
QElqQMBhga/B2/fbQL6yJUHV15rBJJyTQCf3Jb+yOJjB9PG6QL7TxUD/7pvB570FQex1akAX1p3B
17/eQJ6NlUB02qHBCe6jQBQXqEAG3Y3BBVSkQPx4Z0Bt7ofBj4nhQFyDQEAO0YHB1zTqQH+e/j+w
c43BpyDPQBAqKEA45anBo/zkQExk1j+8AZ/Bmo2SQFugjEAEKJ/BAy4fQCMnRUC9npvB48RDQJV4
MEDHPo7BqA4sQEAHjkArWpLBemjoQEJfosDQRorB2Bq5QE6Sv8Btn4bB1VjBQPCvr8BpR5TBclBb
QOjARMA1QYrBVAJyQOsBisDERJTBWoZhQEnkmcDInIbBTaODQCDTDUAuVavBYOFVQDBesT+CL6DB
e6qxQEro5L/Wgo7B3PzjQN/kKcAm+Y7BwdWyQN8mZ8B2L4HBqcoUQZ/TMUAkkYLBlAupQFzt5D9W
MJbBeAXFQA1ihL8yrbTB9CTIQHXkBEHOPpzBbV6wQBQfKD7bxrHB10bOQFWJ30D4rpjBRnXIQHWS
BcAEOq3BrMjgQJucFUHL8ZfBBMShQMsuQL81D6DBF/kCQeAO+EAPgIzBb4aeQPzSmj5jeafB1qjt
QIfA1UBW0ZDBm4W3QCwx+b8zz6LByIj/QEovEUEkCJDBIbjoQF39c0DZA53BFH6sQOpghkCtIY/B
fjfwQJQuPkCq0YnBo63RQKOVI0BuJKHBdeiRQF2YaUCosJjBVELeQGNVg0Ct/pDBDehFQPD5XUA+
9JTBmuLFQEB1psBn3YvBT7J7QJ7ggMC43YvBpI+JQMSOzT+LKqTBG2LBQAQ0L8BOj5DBRluuQCnS
d8AqqonB6vsOQaNnTkDGHInByrD1QNU6q0B/UI3BwZClQOamF0AAppzB4pokQRrBp0CrSpDBDrgV
QZFmqUCSFnrBdbK6QEmJQcBw45vBuYILQeRGIUHIzIvBjisUQRXHnECzV4jBQDrSQKPBkr80nLzB
AXCwQPFECEEYTaLBeTOuQCYSej8IcbfBx9y6QBUmxkCe+JvBbCPYQG9tQMByf6/BNiDcQIrRJUHe
tJrBcpiTQDvUJb/iOJjBXNQOQc+c8UDLbIbBh7kFQaSzakDe2p3BJaXeQL+alUCi26HBSPWjQK4p
qEDE4o3Ba1KkQOGvZ0BD74fBnX7hQH90QECp1IHB0SXqQNGS/j9GeI3BcSTPQCgrKECV5qnBfwTl
QAma1j9bAZ/B4IaSQGSijEDVKZ/BfDEfQIUbRUBGnZvBktZDQE6EMEBcPY7BFA4sQKsIjkC8WpLB
S0PoQCdqosBGRIrBC+64QPaUv8DxnobB7zfBQG2zr8CJRpTBoRxbQOqtRMCwQ4rBvc9xQN/5icDZ
RpTB9jthQGfbmcBAn4bBVamDQMPWDUBdVqvB/elVQFdvsT+QMKDBLZaxQBDv5L9Wgo7B++XjQNLy
KcBL9o7BwbKyQMMqZ8AEL4HBVcQUQUOcMUA9lILBHxCpQLQF5T87MZbBlhi2QCDZZ79voLTBB1gU
QfDnfD3NHZ3BgMifQCboaj6x87DBHwIRQUg7dj8WlpTB9ha+QGzO/b8Uoq3BxNseQVFTAD/OcqbB
Ij+aQJ6URb/0UZ/Bkw4lQdWQK0DRLp7BH/CRQETllD71O6bB+n8YQbQtE0CBUpXB8emvQOp69r9z
76LBiDsnQd6m5z9S8KbB9cPLQGPvNEDXQo3BknznQJZMTkANwaDB8NDlQDCUo0DtFpPB+L6zQORN
4j8glJPBJMu5QIYsQUDN0KTBlEHsQPdMZkARdJTByPClQFGYiUC7PKnB6ILSQHk8ncCDkIzBq5mE
QC09psBa2ZHB06B5QAROwz9Kr6HBwnilQCkxO8APnpHBpoSlQChAicDzOYzBZij9QNEwrkC0YonB
MocMQfiKU0CxZpDBwOycQNGOGkBBqZzB410dQVTsikD7yn3BxMkkQe2Mr0CdCpHB8uO2QCLuQMDA
YpzBmtcvQQedEUABIbDBdQkXQX6hlkAI04nB0hXBQOxJc797z7zB+9wOQdKldb8qf5zB70+ZQO9f
hj9EVbbBWbsIQUPvIT9UeY3BZxnPQEmdNsBbebDBt4AgQX54Jr68Nq3BOviPQJQxNr/CFZfBPv0s
QZv4aEC1PZ7B0pa0QK68YkBP7onBokfdQODEFUBcsobB70P5QAqQEkB8JKLBqvn1QE8bgUB/d6XB
tPbyQLkNtUA7/JnBqKXDQCdBq0DCM5LB04vKQB9Fgz8zsJbB12ucQCtkoj8eVo7BEcW7QJHOE0DP
hqvBmTmFQHvygkDzBqzBNPWkQGwFokDU56LBwli5QFZdlUCy9q/BdlTpQKfrh8CmgIjBdPrRQC1x
vMDEfojB3GLcQIGkocBh8JTBaphJQEw4l8BpfZHBGvSNQJq0qsBFQprBsouDQEaBxcCp0I3BgS1Z
QNR1BEBzK6jByVlKQA6rnD/CoJvBp22EQNApI8C5CZLBOxm5QKWuDsAz4ozBQPCbQEdYhcCk0IPB
M04AQTnvzUBS3IjBdHeMQPU7S0C8fZnB

> <OMEGA_E>
MC5/PgDPZT44+oY//PSGP4j/Hz8=

> <OMEGA_NBR>
    127433

$$$$
50225004
  -OEChem-04172616093D

 54 57  0     1  0  0  0  0  0999 V2000
    8.2004   -0.3496  -11.5554 C   0  0  0  0  0  0  0  0  0  0  0  0
    3.7909   -4.4168  -20.1424 C   0  0  0  0  0  0  0  0  0  0  0  0
    3.0772   -3.8225  -19.0824 C   0  0  0  0  0  0  0  0  0  0  0  0
    5.1670   -4.6911  -20.0058 C   0  0  0  0  0  0  0  0  0  0  0  0
    9.1254   -1.2902  -19.6292 C   0  0  0  0  0  0  0  0  0  0  0  0
    3.7387   -3.5075  -17.8831 C   0  0  0  0  0  0  0  0  0  0  0  0
    5.8297   -4.3802  -18.8052 C   0  0  0  0  0  0  0  0  0  0  0  0
   10.1385   -1.0548  -20.5714 C   0  0  0  0  0  0  0  0  0  0  0  0
    8.7284    0.6057  -21.6816 C   0  0  0  0  0  0  0  0  0  0  0  0
    7.9023   -0.5872  -19.7239 C   0  0  0  0  0  0  0  0  0  0  0  0
    7.6963    0.3441  -20.7632 C   0  0  0  0  0  0  0  0  0  0  0  0
    5.1113   -3.8002  -17.7397 C   0  0  0  0  0  0  0  0  0  0  0  0
    9.9407   -0.1069  -21.5938 C   0  0  0  0  0  0  0  0  0  0  0  0
    8.3664   -0.4519  -13.9819 C   0  0  0  0  0  0  0  0  0  0  0  0
    7.6332   -0.6428  -12.8292 C   0  0  0  0  0  0  0  0  0  0  0  0
    6.8102   -0.8449  -18.7784 C   0  0  0  0  0  0  0  0  0  0  0  0
    6.2714   -1.1880  -12.9407 C   0  0  0  0  0  0  0  0  0  0  0  0
    6.6294   -1.3471  -15.3040 C   0  0  0  0  0  0  0  0  0  0  0  0
    6.3644    1.0695  -20.8612 C   0  0  0  0  0  0  0  0  0  0  0  0
    5.2242    0.1501  -20.3384 C   0  0  0  0  0  0  0  0  0  0  0  0
    3.9308    0.9661  -20.1662 C   0  0  0  0  0  0  0  0  0  0  0  0
    4.9554   -1.0216  -21.3181 C   0  0  0  0  0  0  0  0  0  0  0  0
    5.8302   -3.3654  -16.4952 C   0  0  0  0  0  0  0  0  0  0  0  0
    6.0895   -1.8536  -16.5947 C   0  0  2  0  0  0  0  0  0  0  0  0
    8.6533   -0.1257  -10.5057 N   0  0  0  0  0  0  0  0  0  0  0  0
    7.8494   -0.8329  -15.2248 N   0  0  0  0  0  0  0  0  0  0  0  0
    5.8048   -1.4845  -14.1929 N   0  0  0  0  0  0  0  0  0  0  0  0
    5.5987   -0.3910  -19.0118 N   0  3  0  0  0  0  0  0  0  0  0  0
    7.0698   -1.6079  -17.6616 N   0  0  0  0  0  0  0  0  0  0  0  0
    5.5668   -1.4033  -11.9630 O   0  0  0  0  0  0  0  0  0  0  0  0
   11.1926    0.1636  -22.7731 Cl  0  0  0  0  0  0  0  0  0  0  0  0
    3.2819   -4.6629  -21.0625 H   0  0  0  0  0  0  0  0  0  0  0  0
    2.0240   -3.6096  -19.1915 H   0  0  0  0  0  0  0  0  0  0  0  0
    5.7121   -5.1399  -20.8230 H   0  0  0  0  0  0  0  0  0  0  0  0
    9.2795   -2.0055  -18.8349 H   0  0  0  0  0  0  0  0  0  0  0  0
    3.1972   -3.0422  -17.0728 H   0  0  0  0  0  0  0  0  0  0  0  0
    6.8849   -4.5850  -18.6996 H   0  0  0  0  0  0  0  0  0  0  0  0
   11.0688   -1.6001  -20.5124 H   0  0  0  0  0  0  0  0  0  0  0  0
    8.5923    1.3504  -22.4519 H   0  0  0  0  0  0  0  0  0  0  0  0
    9.3477   -0.0046  -13.9245 H   0  0  0  0  0  0  0  0  0  0  0  0
    6.4020    1.9858  -20.2538 H   0  0  0  0  0  0  0  0  0  0  0  0
    6.1685    1.3332  -21.9109 H   0  0  0  0  0  0  0  0  0  0  0  0
    3.1291    0.3099  -19.7964 H   0  0  0  0  0  0  0  0  0  0  0  0
    4.1028    1.7775  -19.4437 H   0  0  0  0  0  0  0  0  0  0  0  0
    3.6359    1.3946  -21.1354 H   0  0  0  0  0  0  0  0  0  0  0  0
    4.1461   -1.6528  -20.9224 H   0  0  0  0  0  0  0  0  0  0  0  0
    4.6605   -0.6193  -22.2985 H   0  0  0  0  0  0  0  0  0  0  0  0
    5.8692   -1.6238  -21.4287 H   0  0  0  0  0  0  0  0  0  0  0  0
    5.2099   -3.5797  -15.6125 H   0  0  0  0  0  0  0  0  0  0  0  0
    6.7864   -3.9026  -16.4106 H   0  0  0  0  0  0  0  0  0  0  0  0
    5.1442   -1.3417  -16.8280 H   0  0  0  0  0  0  0  0  0  0  0  0
    4.8639   -1.8024  -14.3095 H   0  0  0  0  0  0  0  0  0  0  0  0
    4.9174   -0.4116  -18.2800 H   0  0  0  0  0  0  0  0  0  0  0  0
    7.9774   -2.0182  -17.5715 H   0  0  0  0  0  0  0  0  0  0  0  0
  1 15  1  0  0  0  0
  1 25  3  0  0  0  0
  2  3  1  0  0  0  0
  2  4  2  0  0  0  0
  3  6  2  0  0  0  0
  4  7  1  0  0  0  0
  5  8  2  0  0  0  0
  5 10  1  0  0  0  0
  6 12  1  0  0  0  0
  7 12  2  0  0  0  0
  8 13  1  0  0  0  0
  9 11  1  0  0  0  0
  9 13  2  0  0  0  0
 10 11  2  0  0  0  0
 10 16  1  0  0  0  0
 11 19  1  0  0  0  0
 12 23  1  0  0  0  0
 13 31  1  0  0  0  0
 14 15  2  0  0  0  0
 14 26  1  0  0  0  0
 15 17  1  0  0  0  0
 16 28  2  0  0  0  0
 16 29  1  0  0  0  0
 17 27  1  0  0  0  0
 17 30  2  0  0  0  0
 18 24  1  0  0  0  0
 18 26  2  0  0  0  0
 18 27  1  0  0  0  0
 19 20  1  0  0  0  0
 20 21  1  0  0  0  0
 20 22  1  0  0  0  0
 20 28  1  0  0  0  0
 23 24  1  0  0  0  0
 24 29  1  0  0  0  0
  2 32  1  0  0  0  0
  3 33  1  0  0  0  0
  4 34  1  0  0  0  0
  5 35  1  0  0  0  0
  6 36  1  0  0  0  0
  7 37  1  0  0  0  0
  8 38  1  0  0  0  0
  9 39  1  0  0  0  0
 14 40  1  0  0  0  0
 19 41  1  0  0  0  0
 19 42  1  0  0  0  0
 21 43  1  0  0  0  0
 21 44  1  0  0  0  0
 21 45  1  0  0  0  0
 22 46  1  0  0  0  0
 22 47  1  0  0  0  0
 22 48  1  0  0  0  0
 23 49  1  0  0  0  0
 23 50  1  0  0  0  0
 24 51  1  0  0  0  0
 27 52  1  0  0  0  0
 28 53  1  0  0  0  0
 29 54  1  0  0  0  0
M  CHG  1  28   1
M  END
> <OMEGA_C>
7DQDQckCs77U4jjBLp5yQClWjcCOI6HBI/BEQKSjdMDJqJjBSFilQIodlsDKC6DBvAESQdIkpb+t
CJ3B70ZvQK96YMCuEI/BNI26QOcqjMD4cJbBMTciQWoDh784kqTBYqcLQYgQGz/+c63BnN/8QPRV
Fr+Iyp3B9Ef2QAcxsD4WG6bBvI+jQAg2c8DW6o3BLw0fQczk2r0hwKzBo9wFQdVg574Etl/BBkP0
QOqNJL+WRE3BBO3ZQPxMWL8gOpbBoq/IQGoQmL/2DE/BViTUQDJsrL8n3XTB2KjLQO/kiD+k46bB
iCynQDSzGT4PtaLBDZJ7QKZUdz9SVKHBrJKeQITCgr9wi6rBUJG6QBtjV8BF9oPB4NzCQKZC7b8J
woTBxXMKQXKrAL4/FyjBIi77QIQ6Vb/MmHPBOsG5QGAEvr/7FWPBUCizQLE3yL4hGJjBNjziQLTP
zb8AS43BfCOyQGaes79JaD/B1xQzQbR/Jz4+L7bBxApSQIU2lcAXgKjBAIkBQEUDZ8A1iJnBL8m2
QB96pMCLlabBtHgUQY1aAMDkrZbBop9MQMayQsAOlYjB+lDcQDu4ksDQmJXB+RkxQVjPzL9kGaTB
8HkJQU/brD9xnbPBK5AVQbSjlru5yl7BiN3MQFYv/j+4B6LBOGTFQD6nqj+gSa/BXUNIQKOwnj4N
X57BN0qDQI+G4z+djJvBLLNoQEyDsj9aFanB46yEQDyO07/+YKfBaSKVQMaIHr9IY7LBqNC7QNXY
z78KbqvBSbemQPAZZcDWzHnBgirZQGzDecDSSIPBQZ2kQH67q7+sn4bBAKWbQKSz5r+K82TBoFud
QEO90r50PZLBiEb/QIspAcCIkozBhykAQSiauL0UkjjBGoFrQCrLjMA9t6DBYgaiQJM0lcDDKKDB
SOZAQIGyc8AA+5fB/RoSQeYNp7/EIp3BcQK5QL4Li8DU05bBksduQKsfX8AHqY7Bw1MiQe4Xi7/w
saTB9MwLQdovDj+nz63B5yT9QB15Gb9L953BV4n2QCbNnj45bqbBkImjQBFkccCtCY7BcDgfQVQc
Hb63+6zB8UsEQdagk74OPV/B7THxQGc3B79w6EzBJGDaQA2/VL/5SZbBXxjIQM7anb99y07BvnjU
QLJzrb+2mHTBWvvLQHW6hD9fSafBi3anQMzuBj6o6aLBrEx8QArfdD9WsqHBJryeQHa0h79DiqrB
iRm8QM8lV8D2QYTBg8rDQBIT7L+mwYTB4P8FQX7ZhD6pxifBGq/5QPESOb/KMnPBoci6QPDIy7+Y
1GLBLYezQDbdxL7iM5jBwyzjQP7wx78nM43BMO2xQHLtwL8eQD/BIWszQbjg3T2RWLbBlzRIQBjm
lMDJ3KfBq0iyQK5zo8B75qbBlU76PyyBZsC6cpjBBYgUQe6jAMAFtJbBuPXaQMFGkcDgZZbBs4NO
QGJhQcAi/IfBVy8xQUEm0b/8J6TBZZ4JQZlqpD9aF7TBWVYTQaUGdT4uL17B51vNQHGV+z/UlKLB
aJfFQDLIoz9NuK/BRd1IQAURoD53mp7BksCDQDKK5D+CFZzBVX1pQIs8rj/LiKnBAdWEQNU217+L
QKfB7D+VQMS/Lb8qcrLBK/C7QF1G1b8bVqvBBJSpQLL7ZsD0FHrBOPjaQI3ueMCKCoTBk1ulQLyu
q7+rlobBD0OeQNHmAcAAumTBpsKdQOlOyb7TVpLB3GYAQXsc9r81TYzBNgoAQRRAyr25GTjBd+ls
QOfZisBjsKDBGo9CQMbSesBlUpfBil2jQCwNj8DMyaDBXIATQcKkfb9YHpzBw/RxQFy4aMAjCY7B
pR+7QHwjhsAIfpfBE7ojQUwyHL8pQ6PBfwoJQZEnyT62Eq/BLez7QH5XK78gcJ7BNWvxQI92Eb2F
JqjB/9alQN6EcsBrEo7B0YoeQcqb7T0nj6zBtM8EQYdjtr4EjF7BixPxQB7uCr9KckzB7cLZQLRt
bL8yopbBuPTGQMbAl7/nrE7B9O7UQJD6rb/kVHTBEMXCQK4OyD3tR6vBW52nQDRo1j72Q6HBJ5qv
QPJr8D+ktJ3BIr5vQCAibD7+36PBbgC/QOiMWMAhV4TBLhDFQPj17b8ZroTBEPMFQa/Ehj5hZSfB
Ph/7QBbeSr+6jnLBqsu5QFSpw78s3mLBRG6yQJbEAb9jYJjB+DvkQNpVxb/uHo3B2POvQCCBtr/E
ST/BIcgyQfogJD+/JrXB6XVIQBH0kcDbz6fBKYf7P1sjdMDfRpfBwIezQAYcmcDC/6fBqXMXQXVv
w7/04ZTBmq9RQLtSU8Do4IbBJY3dQBglicDdkJfBpyk0QeK1X79SoaHBuBwFQey3bj+AS7bBEi0U
QXybBj5JRF3BQUm/QHr3aD9zJrHBdaq3QEvGWL9H1q7B5DCcQCVeBkDDlJbB1bDRQMy4AEB4yZvB
yp2mQJwEJEDAN6TBjy9JQAMv6z5AvpzB9YddQESBaD8rbKrBxz1kQPV2T7/sU6bBAnCtQJCiasAi
HXrBbGLeQMVueMAxZITBDiamQAl+sb/ih4bBDnacQP+p878RE2XBegWbQGsRU7/LjJPB0GwBQf7z
5L8p5IvBN+r9QBBOGr7oBjfBvj91QKA/icAgYqHBstqmQGiakcBAnaDBR8JIQKwZb8AZopjBsDQT
QYmfg7//UJzBEt+8QBd+iMBlEZfBV690QAKiXMBCGY/BFhYjQSj+H79gkaPBGpUHQU41Yj7rta/B
4vH6QLx9SL+AvJ7BtVbvQLdhgr5+wajBLnymQBJobsATR47B1UkdQXAhXz25AK3Bl88DQYA2ir6C
uV3BxoPvQIjmCr9bu0vBa4TZQDSXcL/9mZbBlKPGQEceoL+SUU7BPc/UQLnVqb9g9HPB6UHAQG7s
Jr6olavBsv6nQHv5uz7qsaHBFHq0QJvT6z/qkp/BR95uQFkZjj7Ij6PBSh2+QJwBVcCrTITBeRPF
QKEQ578Yh4TB5XsEQVnGHz6O6iXBt7v5QOxAL78d/nHBJFC6QGjkyr9Jl2LB/q6yQEJw775YOZjB
mmvkQPVmv7//5IzB5dWvQBSnxr9zIz/BmxMxQSTqLD++b7XBG3lTQEhwkMA8tKjB4dO3QED/nsDD
WqfBaQkFQFswYsDBQJnBTY8XQSDRwr9h8pTBj8jeQHm2jsDyeJbBMedSQA/eQMBOaIjBRrYzQc7E
Vb8J66HB9DMDQQAWNj82F7fBDrgSQbbtiD5OK1zB+Ne7QDTCBj86WrLB8BK0QIlHlL9ww63BChWj
QPKkDUCfhZjB3h/XQLc89D/YHJ7BJRmsQIEMHUAhlabBE+dMQOo/KD8yepzBNXJdQMzUYT9JlarB
hMdcQORgRb9q9qTBHiqrQDWOZsBJbnrBvDjdQPffdcDOA4TBzW+mQGN1qL8EY4bBG+adQEdQAcA5
9mTB2bCbQJJtLb9O65LByZ8BQX1C2b/Ve4vBxxL3QCKB8L7EVjfBRtBxQAw+jsDEsKHB//hEQJFb
ecA59JjBvTulQI8qlsBd7qDBmUsSQTpho79trZzB+5lwQGcUZ8DAaY/Bdzm7QEymjMCgaZfBGbci
QUIvib92LaTBemYMQc53DD+TpK3BTG39QHNQFL+jvZ3BO1/3QEANoj6sVqbB0IekQO3Cd8DPno7B
oMofQfD3IL4Zn6zBmyjBQGr+nb+wPlDBjLrpQF98Pr8WqkzBlcjZQLvDUL8JQ5bBJzIDQZciCr90
Gl/BgAzOQOCqtb9aLHXBbO/MQMJohT9TdqfBrhWoQIBvGD4GIqPBTK59QGoKez+aKKLBcqufQO4+
h78iparBW8O7QLlrXMAhvoTBUiHAQGxk9b9KNoXB3MoAQfYNg74MyiXBtLCzQNKwyL+u1WTBtVb3
QL0vZr+83nLBrVmzQCZ5sr6qU5jBOvbgQOwuy78cS43BEDYVQeBAkb1MVV3BkSk0QRiEuD0g7bXB
wSRQQH2slcD5AKnBOD8BQNqKbMAumZnBHEi2QEyLo8BbqafB1J0UQU5n+78DHpbBIXxOQNNGTMDq
r4jBgUTdQOQmksDn15bBopMxQcjMzr/od6PBEF4KQXkcoj+bBLTBMIGrQJ5Urr/c7kLBDwzOQG9w
/T/T3qLBSyDHQHFZoj9z86/BebNJQF/MsD4dGJ/BzTmEQAW16D8MnZzBvOtrQCXRrz+PEqrBqX+F
QBKS1b/5YKfBJLSWQCZ2ML+hobLBD9i8QDdq1b/rQavBrn2pQGEvb8BJMXvBlKDbQOFDesC6fITB
5jGhQI5JvL9kbIfB+gAFQXX5Sb+qvn/B212dQKdIqL4ChJLByXb+QFB7+b9pL4zB2rf4QBBH+b5m
fjfBDKRyQMbSjsA+3aHBkIWlQHA2l8CO+aDBuJ5FQNITecCUPJnBizgSQevIo7/1lJzBmEq7QMVz
jcAob5fBhs9wQJ4zZsDwrY/BgL0iQXmjib94BqTB14UMQViuCj9Vla3Bwkn9QAZeFb88t53BQGj3
QPEunj4eV6bBUIOkQOC+d8BEwI7BZOsfQRjEJb7ze6zBfeLBQDtqnb9yJVDBoXjqQETFO7+YxUzB
JpDZQBKFUL8QQpbBjEoDQW5nBL/eX1/BAh7OQK/jtb8uJXXBiv/MQNBghD9IjKfB/gGoQDgiGz7c
JaPBZvh9QEaLfj8xLqLBOT2fQM84h7+gm6rBkIG7QGpnXMBI0ITBgOi/QFtD9b/cM4XB/hQCQaC/
mb58AibBdgO0QH9nyL9OsGTBjF33QPLRZL+sBXPBFjWzQPRQr76cU5jBDa7gQEvpyr98SY3BIx4V
QaARkrz22l3BuW00QdBOsT3NtbXBnFJRQO5ylsCxMKnBYqi2QLwipcApn6fBCxUCQAyca8B0+ZnB
nnUUQTuz+79BApbBnDvdQC1jk8AaxJbBD4NOQMRCSsB5ConB45gxQbkqz7/oQqPB4ZAKQT8SoT/9
+LPBfYesQMoprr/suELBNiXOQMNP/T/fDKPB0ULHQA2pnz+sD7DBi75JQBxGvD4cEZ/BJaeEQNPK
6j+krZzBAjdsQPsesT8FG6rBkPuEQDmc1L8xTKfByD6WQNwdMb+umbLBfEa8QOk01r/COKvBRQ2p
QMhpb8DNaXvBrl/bQO41esAFhYTBKvqgQKG3u79iX4fBL/MEQYGESr8K9n/B1j6dQBHKob4Qg5LB
4y/+QKAj+b/3LIzBkf4AQTTuiL6QbzbBE6puQJ7uh8BOD6PB5mk5QP0racCEVpvBp0KjQJ/NjcDY
8aDBkhUTQVwhmr9+6ZrBYbNbQDt0T8DrbJHBN2m0QE4egcAYB5fBQJwkQShLfL8nyaHBE0QOQa53
1D6gPa3B+vj9QKL1Hb9cOp3BZzT5QNZeOT72eqbB3ZaZQNc/XcBsMo/BqzUiQSSuMr5r7qrBJw3w
QFzOkz7CYlvBNtDvQC6/Hb/QrkrBHmnYQD6zU7+gMJbBak7cQPgQ+L/4RE7BRxLNQPurnb+OjHLB
wprOQLPGXD/EnKjBNeWoQNAyvbwjnaTBZwN/QFiUUj/HQKTBsduhQJpjnL8iQ6zBx8erQMcgRMDQ
dYTBskW7QNBQy79fLoTBUFoIQQBRDDzJ4CXBY3XeQNDXHb25bW/Bv1TLQLESDMBYKWLB6KCxQFDk
BL+njZnBB1DeQIK1rr8QBYzBk83aQJwkM8AjVEDBd/s3QXKB3T36Y7PBVxhUQEhEksAem6rBArXs
PypEX8CvBp3Bhbu3QNMFnMD17abBM/oUQWHo6L8o4JPBvB8zQCQ6McAMiovB8xHWQI6GhcApaJXB
a+UzQX5KuL+RC6DBnYEMQV/zhT+7MbTBaAH+QEb8oT96AlnBa9XNQJbr6T/sZKTBEx7LQHcphD8/
Q7HBCJxJQI+SSz7KbaHBT/2DQI/L1T8Uwp7BOI1wQNSzmT/7UKzBcCKHQJ8I679rUqnBgFSaQMk8
Wb/RUrTBwh6/QJ186r9pk6zBxtuSQF+tTMAmrXzBtRXHQNsebsBbpYLBNBqgQB/Mbb/vCobBeHK9
QHiZRMA9AmXBVBGZQHE6H7/efZTBFwr8QJf7zr8B2onBpsb5QBsvFL+TozbB90WAQGDbi8Ajq6LB
ZDFOQPuneMCgKZrB+YSsQGKiksDmPqHBIT0TQfNegb+Qe5vBOkN0QJ1YZ8DKOJDBfqW/QGv4icCp
S5fBJb4jQVNMK78aoaLBOYAJQVjEgj7YEa/BnpT7QJjaNb/GKJ7BCerxQPO5H77fOajBKkmmQJSa
dcC2w47BquYeQSDyDzyPN6zB/7zBQGiImb/+fU/BagDrQKGeQ7/H/EvBFWnYQCN7Z781eZbBXbgD
Qc+4Eb+1hl7Bq/bNQOazsb9sfnTBaIrDQNRlZr2znavBgLeoQPzv1T5096HBrveyQDYd8z+ofZ/B
OqhxQKAWiz4MiaTB7rq6QDnsWcBKfITB+Z6/QCln8L844YTBhdsCQSRy5L59HCXBB4+zQOTVwL+T
GmTBoM33QN0sab8QQHLBmAiyQAi2177qbpjB3pfgQCQGx7/s94zBWvQVQYY5CL7+21zBn2AzQaDv
Aj+9w7TBIT9jQAeZksBqT6rB83YKQFkwbsBuSZvBJrW/QOp4nsA/y6fBG+0WQTDkv78mAJTBBu9N
QAcjT8Als4nB+pDhQAjnjsD2MJbBZRw0QREQbb/TxaDBvc8FQaU9Qj/wfLbBsxisQLj3pr/yH0LB
L3vAQNaXKj/eNLLB9iG4QDpehb8GSa7BCMmfQBDlDkB8nJjBgC/VQDsWAEBUmJ3B3TqrQPYfIUD1
gabB0JJLQBYxHD+wpZ3BGdBhQIsyYj8fk6vBeg1jQFaSSL+XOabBz12mQCU8bMBfXXvBZVXaQD0t
eMDPo4PBnNegQKuetb82DofBlToFQf10Ub9iKn/Bd0qaQCpQIL+MU5PBhsj+QBu66b8YcYvBp1MG
QYpEq77cEznBeYQGQZI6s8A0k4XBFlf4QKvCqMD60HfBKvz7QF1PpcAJbI/BAhoSQThPpr/OMZzB
xHrTQJ4aj8DyGHjBoLvWQIEajMDmlY/BkN4iQcJojL9Ng6PBO5UMQVZ48T5Sk63B5Nz8QActIL+i
sJ3B7Bf3QIB5dD7leqbBdFjDQOCGf8AP2IXB2SEgQXQ8U77mJazB4AkHQZpk9r7V4l/ByKv4QCUc
LL/o4kzBTObYQPVjUL9vUZbBchjNQCKcnb8ElU3BSDjTQN5Epr935XPBtE/MQMmmcT9T9qfB8lqn
QCDDiT3kbqPBNSt8QE04ZT8uZ6LBRNCeQHCZlr/TgarBhAWkQI9rNsA3tIXBgkW9QKI1wr/QjITB
y2IOQRBzgL2T1ijBroX6QJ8gSr8iYHPB+tu7QHRNw7/QSGHBlIKyQJ4Mwr44ppjBUBrfQOgVuL/T
wYzBNBC4QKw9tr9LWT3Bcvc0QfBBWD0xK7XBuAcVQRT7xcAScYXBX2kCQTB2tMB2zWjB1sIFQVwA
rsDV05bBCDoUQeV/+788eZXBxYDDQC0ih8BTTWnBPv3IQFE2gsAPHpfBT9QxQabBz7+WhaLBWbEK
QfuVlT9vG7TBASQXQXort73Uul/BlPTMQLH78z89s6PBc9XGQI6Zjz+libDBcqlIQK/4hT40Mp/B
zKeDQNjl3j8r9JzB2n9pQI5Noz/LUqrBZ46EQMUe4r9nCKfBVOqVQBNLWr8YnrLBV+m7QNCV5b+I
5arBZKeRQN7NNcDlNY3BS/yNQEPYPcA5z33Bb5mmQP/6ML8i1oXBCVKeQLju879xPWLBKz6cQDTN
s7566JLBz4j7QJmn7b9JQIvBxAvrQIfp8b5kkjTBQOR9QDiZnMBwJ6PBL5ejQAVWscDeHp/BuH1c
QIUoccAo153BGUARQe7Wtb+Do5zB7d23QHW1ocAJ15XB8jaCQBk1UsBwiZTBRpchQWjrqr+mW6TB
LyUMQeBTgT6anq7BhF38QLm3K7+/6J3BXyr3QOb7Gz5h/6bB7pqnQGc6esD7lJDBfhAfQf+m/r5O
VK3Bs3nHQKpYNr1zkFbBEPngQH0FW79tBkrBQw/ZQHN+Rb9jDpbB9U/xQIkkB8AbUFPBLJDLQH5d
xL8ty3PBVubOQEHVfT9rFajBSKqnQKcegT7oKKPB34WCQI06oT+kv6HBGaOYQAdnZb8LmarBzoe7
QB1WXcDyIYbBEx6/QJDC9L+BGIXB/UnzQLKkJr6yEiPBV8a8QJ+zz74QmGvBYkbmQOM/GcAZKGjB
X6WyQHMAnb4wZZjBxNrgQM4/tL80VozBOO4DQVb4OMDCMEnBkG8zQVP7xL4M2LbBJFdfQLRZqMBn
U6rBCCWwQF05zcDwJKPBLR0kQFufUcAN6qDBxj8TQeO9A8APvZXBtt/TQGm3scBwvZLBj+ppQDCp
G8BzZJDBKxIwQa3L9L8YZ6PBb1QKQQKHZz/RcrXBoo27QLVpYj9fElDBLI7TQL9F+T9J46PBAb/I
QOyClz9XnLDBK19NQPzBPj88Rp7BirOMQMWTBEBjYpzBQYtzQPnl1j+llanBHvB5QF68s79t+6bB
KGuPQH+p9r7IarLB+d2yQJ8Az7/BrKvB58CnQOxcdcCnAH/BSNnbQKTaeMAdj4XBuh6gQHCOur9K
IofB93bxQJZoTsAxF2/BtPqbQOxQqL5CwJLBS1T/QIYuxL/UG4rB

> <OMEGA_E>
4LunPjiLqD5EE+8+YEfyPrBvAj9okgI/JNAaP6wcID/AYys/lD82Pw==

> <OMEGA_NBR>
      9285

$$$$
50225008
  -OEChem-04172616093D

 53 56  0     1  0  0  0  0  0999 V2000
    3.7884   -4.3674  -20.1702 C   0  0  0  0  0  0  0  0  0  0  0  0
    5.1601   -4.6546  -20.0165 C   0  0  0  0  0  0  0  0  0  0  0  0
    3.0689   -3.7616  -19.1207 C   0  0  0  0  0  0  0  0  0  0  0  0
    9.1172   -1.2885  -19.5942 C   0  0  0  0  0  0  0  0  0  0  0  0
    5.8117   -4.3466  -18.8084 C   0  0  0  0  0  0  0  0  0  0  0  0
    3.7195   -3.4489  -17.9146 C   0  0  0  0  0  0  0  0  0  0  0  0
   10.1511   -1.0414  -20.5103 C   0  0  0  0  0  0  0  0  0  0  0  0
    8.7610    0.6230  -21.6393 C   0  0  0  0  0  0  0  0  0  0  0  0
    7.8934   -0.5902  -19.7117 C   0  0  0  0  0  0  0  0  0  0  0  0
    7.7077    0.3470  -20.7487 C   0  0  0  0  0  0  0  0  0  0  0  0
    5.0868   -3.7548  -17.7526 C   0  0  0  0  0  0  0  0  0  0  0  0
    9.9747   -0.0843  -21.5279 C   0  0  0  0  0  0  0  0  0  0  0  0
    8.3996   -0.4465  -13.9807 C   0  0  0  0  0  0  0  0  0  0  0  0
    6.7847   -0.8528  -18.7865 C   0  0  0  0  0  0  0  0  0  0  0  0
    7.6944   -0.6350  -12.8112 C   0  0  0  0  0  0  0  0  0  0  0  0
    6.3358   -1.1914  -12.8955 C   0  0  0  0  0  0  0  0  0  0  0  0
    6.6327   -1.3347  -15.2744 C   0  0  0  0  0  0  0  0  0  0  0  0
    6.3767    1.0681  -20.8675 C   0  0  0  0  0  0  0  0  0  0  0  0
    5.2276    0.1348  -20.3887 C   0  0  0  0  0  0  0  0  0  0  0  0
    3.9298    0.9492  -20.2393 C   0  0  0  0  0  0  0  0  0  0  0  0
    4.9893   -1.0165  -21.3998 C   0  0  0  0  0  0  0  0  0  0  0  0
    5.7919   -3.3298  -16.4939 C   0  0  0  0  0  0  0  0  0  0  0  0
    6.0675   -1.8184  -16.5721 C   0  0  2  0  0  0  0  0  0  0  0  0
    7.8553   -0.8234  -15.2144 N   0  0  0  0  0  0  0  0  0  0  0  0
    5.8370   -1.4852  -14.1410 N   0  0  0  0  0  0  0  0  0  0  0  0
    5.5677   -0.4348  -19.0596 N   0  3  0  0  0  0  0  0  0  0  0  0
    7.0467   -1.5743  -17.6417 N   0  0  0  0  0  0  0  0  0  0  0  0
    5.6592   -1.4091  -11.8997 O   0  0  0  0  0  0  0  0  0  0  0  0
   11.2565    0.2055  -22.6700 Cl  0  0  0  0  0  0  0  0  0  0  0  0
    8.5939   -0.1240  -10.8870 I   0  0  0  0  0  0  0  0  0  0  0  0
    3.2874   -4.6124  -21.0951 H   0  0  0  0  0  0  0  0  0  0  0  0
    5.7104   -5.1109  -20.8259 H   0  0  0  0  0  0  0  0  0  0  0  0
    2.0194   -3.5380  -19.2429 H   0  0  0  0  0  0  0  0  0  0  0  0
    9.2557   -2.0096  -18.8023 H   0  0  0  0  0  0  0  0  0  0  0  0
    6.8633   -4.5623  -18.6895 H   0  0  0  0  0  0  0  0  0  0  0  0
    3.1729   -2.9749  -17.1127 H   0  0  0  0  0  0  0  0  0  0  0  0
   11.0814   -1.5848  -20.4349 H   0  0  0  0  0  0  0  0  0  0  0  0
    8.6398    1.3742  -22.4057 H   0  0  0  0  0  0  0  0  0  0  0  0
    9.3836   -0.0030  -13.9448 H   0  0  0  0  0  0  0  0  0  0  0  0
    6.3953    1.9741  -20.2439 H   0  0  0  0  0  0  0  0  0  0  0  0
    6.2058    1.3488  -21.9172 H   0  0  0  0  0  0  0  0  0  0  0  0
    3.1184    0.2882  -19.9007 H   0  0  0  0  0  0  0  0  0  0  0  0
    4.0825    1.7499  -19.5007 H   0  0  0  0  0  0  0  0  0  0  0  0
    3.6611    1.3919  -21.2097 H   0  0  0  0  0  0  0  0  0  0  0  0
    4.1737   -1.6600  -21.0380 H   0  0  0  0  0  0  0  0  0  0  0  0
    4.7166   -0.5944  -22.3783 H   0  0  0  0  0  0  0  0  0  0  0  0
    5.9087   -1.6120  -21.5006 H   0  0  0  0  0  0  0  0  0  0  0  0
    5.1567   -3.5460  -15.6223 H   0  0  0  0  0  0  0  0  0  0  0  0
    6.7423   -3.8754  -16.3993 H   0  0  0  0  0  0  0  0  0  0  0  0
    5.1281   -1.2893  -16.7900 H   0  0  0  0  0  0  0  0  0  0  0  0
    4.8957   -1.8094  -14.2348 H   0  0  0  0  0  0  0  0  0  0  0  0
    4.8576   -0.5018  -18.3587 H   0  0  0  0  0  0  0  0  0  0  0  0
    7.9638   -1.9574  -17.5311 H   0  0  0  0  0  0  0  0  0  0  0  0
  1  2  1  0  0  0  0
  1  3  2  0  0  0  0
  2  5  2  0  0  0  0
  3  6  1  0  0  0  0
  4  7  2  0  0  0  0
  4  9  1  0  0  0  0
  5 11  1  0  0  0  0
  6 11  2  0  0  0  0
  7 12  1  0  0  0  0
  8 10  1  0  0  0  0
  8 12  2  0  0  0  0
  9 10  2  0  0  0  0
  9 14  1  0  0  0  0
 10 18  1  0  0  0  0
 11 22  1  0  0  0  0
 12 29  1  0  0  0  0
 13 15  2  0  0  0  0
 13 24  1  0  0  0  0
 14 26  2  0  0  0  0
 14 27  1  0  0  0  0
 15 16  1  0  0  0  0
 15 30  1  0  0  0  0
 16 25  1  0  0  0  0
 16 28  2  0  0  0  0
 17 23  1  0  0  0  0
 17 24  2  0  0  0  0
 17 25  1  0  0  0  0
 18 19  1  0  0  0  0
 19 20  1  0  0  0  0
 19 21  1  0  0  0  0
 19 26  1  0  0  0  0
 22 23  1  0  0  0  0
 23 27  1  0  0  0  0
  1 31  1  0  0  0  0
  2 32  1  0  0  0  0
  3 33  1  0  0  0  0
  4 34  1  0  0  0  0
  5 35  1  0  0  0  0
  6 36  1  0  0  0  0
  7 37  1  0  0  0  0
  8 38  1  0  0  0  0
 13 39  1  0  0  0  0
 18 40  1  0  0  0  0
 18 41  1  0  0  0  0
 20 42  1  0  0  0  0
 20 43  1  0  0  0  0
 20 44  1  0  0  0  0
 21 45  1  0  0  0  0
 21 46  1  0  0  0  0
 21 47  1  0  0  0  0
 22 48  1  0  0  0  0
 22 49  1  0  0  0  0
 23 50  1  0  0  0  0
 25 51  1  0  0  0  0
 26 52  1  0  0  0  0
 27 53  1  0  0  0  0
M  CHG  1  26   1
M  END
> <OMEGA_C>
9nRyQK3Bi8CLXKHBeR+lQGbylMC2IaDBbmlEQIm+cMAi95jB998RQQ/upL8AwZzBnvm5QAgXi8CI
d5bB2wtuQG27XMAXUY/BAmsiQRdMhb8UFaTB3CwMQdh5Hz8wHa3BGJf8QFIWF7+nsZ3BqKX2QDut
sT5i/aXB+8aiQH1OcMBABY7BSpgfQUyYrL0aOazBvmQGQV2h5L7zsF/B4BvZQCxPWr+9SpbBfzj2
QFqMIr+L+kzBPL/KQI1+mL/NU07B6T7UQHfWqr/iY3TBRw7MQAK2iD+W8KbBkEinQH7/CT73G6PB
DIJ7QE7/cj8C6qHBRaifQOkdgr+9MqvBH1e5QDAbVcCJ84PBHynCQE3C6L+0k4TBnF77QBDKUr8d
bnPBjMi6QHgZvr98QWLB5iqyQEGc3r4PepjBoH7hQPqDyb8qIo3BThi1QG1etL9HZT7B0ho0QTd3
Uj44XLXBrYAJQaTt/b36MC7BTmVSQIKYk8C6wqjB8bu2QNKMo8CHm6bBTz4BQBJvYsBy8ZnBdBcU
QWOdAMAGa5bBxZ/bQKT+kcAohJXBtxBLQIllPsDg5ojBW00xQYfbyr+ceqPB0TwKQWLlrz/KPrPB
ZCMWQQW/QbsKHl/B6KXMQDeu/D+V86HBMZbGQF2mrD91Vq/Bh5NHQLyKkz6zNJ/BLaSCQEf93z9Y
AZzBQ1BqQOoqsj+IranBU4+FQHZ61L/jTajBcu6WQCgsGL+1BrPBDBS9QGdUzr9UAazBfAOlQJDx
YsDS9HnBQ8HXQGkGeMDWMYPBCBmkQAIJpb/pUYbBgKmcQNyb57/pwWPBhnGbQDZzAL+p3pLBhdf+
QJeK+r+6P4zBrTJ2QHlKisB8gaHB/2GnQC8EksAzjaDB5CZIQAifccCt2pjBYzYTQWvCgr8M+pvB
fae8QOGGiMBe6pbBCphyQLhXXsD+O4/BI34jQQNwH78tB6PBY8MIQf6vnz7nK6/B80j7QEe9PL8X
gp7BwNvwQPP1H767bKjBg3ulQBzsbsBSNo7Bc0weQVhwwj2BXqzBN2QFQUrxu77EdF7B0vHYQBKx
cb/YqZbBQMXzQAh3G79+BkzB2g3JQJn2mr8B+E3BmmLUQNCLp7+J83PBMj7CQOyukr36ravBjm+n
QARGtD7u3qHBZ5mwQJG56j8zJ5/BlgtvQFmXNz42VKTB+U+8QHREVMAKIoTBKK7DQLjI5b/mfITB
QKv6QJGEPr/Ne3LBz1i6QNipwL8zIWLBUeKxQFMdAr9LhpjBbiPjQMWmwb/R8YzB/wKzQED4u78s
Uz7Bh5oyQValMj/HlbTB1ngHQfImAb400izBWI5VQFPKkcAk46jBcvu4QFM3n8AJN6fByVgEQNum
ZcC8nJnBkSQXQftjxb+IqpTB0preQPZIjsCuLpbBaoxPQCDYQsDCoIjBs/czQfKuXb/8SqHBu9IE
QeLVVT+/d7bBv8wUQdfq8D00cF3B+oC+QBwRLD9uGLLBPlW3QPjrhr9BjK7B4nWdQMx5CEAnKpjB
Yc7SQP+R+j9AVJ3BcQ6oQO/GHUDqCKbBHChJQDf19j7NUZ3Bw55dQDqbTj8VOKvBYNJhQP8QYL+N
NabB56SoQGOpZMDHQXrBmkXbQIp+dcCemYPBbjWlQFKjpb9fUIbBv7acQAGC7r8KCWTBC3GaQA69
Q7/jepPB6t8AQV6w37/nj4vBtOFzQDhljcCeGKLBbO1FQJ7Sd8B8cJnByEmmQL7rlMD9L6HBTBsS
QXKWo7/Rg5zBbH9wQBmeZMDC14/BRLK7QO4vi8DklpfBi8oiQVsAh7+A1qPB1pUMQW0CED9bZq3B
TPj8QIKQFr8Js53BLkz3QEWioD4aQ6bB9XikQHOndMCP4Y7BtAsgQb05B76FPqzBx6rCQEPxmL9+
c0/BXwvZQJtBU7+XTpbBKZ/sQFYUVb/xzUvBeukEQai/PL+CNF7BW/nOQBABt78sdnTBz+XMQAzF
hD+NdafBudqnQNwtBj4tZ6PB+il9QCg5dj+IdqLBkuyfQJWlhr9eKqvBIgS7QE4ZWsAU04TB2e6/
QLSs8L+m9oTByju0QDx1v7/THGTB4L/5QEbOhb83A3LBM1yyQGKVy77mnpjBiKfgQMR1xL8MCY3B
DKsXQczqz77tUlzBRLg0QVyRET5nVbXBRDoBQfpE475qZyvBaBBTQP0PlcBldKnBUB4CQKDRa8Dt
LprBwtC3QJAnosDL26fB9kEUQb+8/L/v/5XBy4BNQO+TScDmM4nBmLfdQEmYkMDj5JbBn7UxQb6H
y7+HBaPB6qoKQcRwpD+WwLPBxZysQNCtn7+BLELBeJzNQD6J+z9ovKLBvp7HQIP2oz9A8K/BX8dI
QLMMpD4CmJ/BYaaDQDWa5D8lxpzBK2ZsQIjMrz+bWarBkp6FQIZc1r+oGqjBPV2XQLJfKb8WHLPB
+iq9QGpd1L92y6vB7xeoQOiZbcDYoXvB2MHaQBRmeMAHeITBvhmhQEOVtL968YbB0mUGQQ2tfr8y
2H7BNpKbQNmr276aApPBc6X+QL5l678VrIvBssRzQAgCjcAgLqLB6CSmQKzflMCgMqHBGnVFQFOE
d8BuhpnBiRMSQS4Po79La5zBCEm7QMW7i8CBhpfBFn1vQKR3ZcAl24/BOcIiQftGhr/3vKPBr6oM
QTaGFT/wMa3Bxfz8QDgnFL//j53BPXn3QIzEqz6QDabBO+OjQB0jdsC10Y7B6Q4gQR4v9b2hGazB
c4/DQEvGlr9XnU/BVd3YQH/ZVL9eQpbB0CTtQIEEQ7/LZUzBN8MEQWI+JL8PE1/BkO/OQDhpt7+o
q3TBBBPNQNCfhz/vPKfB6A+oQMymDz6uXKPBdAR9QO1rdT9pgqLB+umgQKqyhL/nPavB8Em6QOiF
W8BwvITB9oy/QCO1878e/oTBc8W0QKAVwb/dGWTBbFf5QEATgL+1o3LB5kSyQJ5Qyr7EkpjBIyHg
QJPqyb+0Jo3B5DQXQTFVdr45o13BM6o0QT4mFT5tPrXBie4BQRLVsr5kLyzB2FtTQNk7lMA6mKnB
eNC3QMbpocCE3qfBGMkBQEH7asA0U5rBuzIUQfvg/L8G8JXBejzdQLJxkcBLxZbBPTJMQM3SSsAw
N4nBXaUxQSxUy7/486LBYMwKQRUMqD+ngLPBwBGuQKwBoL+aIULBOpHNQHEn/T/OZKLBFQPIQHD1
qD+Usa/Ba7NIQHRZnT5WxJ/BuwmDQMSr4z8KwZzBf9tsQHESsD8BZqrBpZ6GQEzL1b/bUajBsLGY
QKvHI7/9L7PBpF2+QGFF0b9cz6vBoRmnQAJEbsAie3vBDOXZQFdQesDwS4TBGMegQOc2t7+H+4bB
SQUGQVH6c7/amX/BH2mbQNcv2b7K+pLBSMb9QJRS9r8J+4vBgQcFQWWitcAAAIfBj7v3QMndqsAv
HXrB5In3QLCypsDGlZDBsCkSQVjUoL+O+pvB48PTQAb+j8B6VnnBhBLTQKBijMChN5DB/R0jQezg
g79yJaPBQboMQS3KBD+LVa3BtrL8QCOHGr9SmZ3BDA73QJyyhj6WYqbB4PbBQCv/f8D6NobB4msg
QZyhDL7YxKvBo80HQfAuE7++AGDB0WnYQA8HUL9KVZbBmOj5QEsyMb/S7kzBA7HNQGwDmb9Tbk3B
Im7TQCq0qb8zx3PBOhrMQG2dcz9Z/6fB+z6nQAAoez13mKPBJ097QHSPYD8ZvaLBbIafQFAul79e
v6rBoiWjQCErNsAbm4XBa/a8QBIZw78GfYTBVqL7QHGwY7/rZHPB9s+7QNRvvr88C2HBav6xQBC1
xb4GwZjBX33eQKiFub82zIzBMLa4QN7Fq79REz3BrHc1QTTcGT7vnLTBU1cMQYgXyr2g4S7BvDET
QZhlycCdR4fBYasCQWZFt8CSfWvB/KsCQcx0r8B6MpjBfEEUQf1j9r8ORpXBF8LFQEKXh8ADHGrB
TTLEQAOvgcDtipfB8DAyQVUjxb8uDKLBxNgKQX28mz8l3LPBRjYYQfb/cb6Y/1/B+ijMQCHs9D9E
uqPB5v/GQOBykD+3lrDBAM9HQMoYcj7znp/B3p+CQCbz3D9iSJ3BymJpQB9coD9Ts6rBJ1KFQHw3
5L81YafB+uiWQHXvWr8x37LB4N68QM7D5L82EqvBkqyPQDkANMCB7ozBSxqOQEctPsAJP33BmI2m
QJ5HML83qIXBJaidQNzL6L+P1WHBPXabQJ/7ur5rE5PBJsT6QMb68L/uYIvBBaMEQcAHvsASTnzB
Z6oAQSAdsMDPsYjBZjzxQM4wrcAoNWvBOP4RQYm4sr+B95vBZMThQGHpkMAfr4rBhxvRQAKrjsAA
N2/BJi0jQU4Uor9xMKPBQdANQSCMez4xNK7BOxf9QNp/Nb+v5J3Bxd/4QGCbyT2WG6fBs4LJQDbQ
f8CLJYLBzxohQazD4r7XSKzB188DQQqdJr7U813BMlnYQIIUUr/vdpbBla72QKySKL/BL0vBh+zO
QLicuL+pT0zBsm3QQBXckb/aq3LBM6vPQEIkYD9O46jBdYioQBgcyT1DS6TBNriBQFq1hj+sjKPB
Dr2cQBOcjb8QiavBGIuoQCzTOcAiT4TBcra8QNBlvb/yF4TBN130QAOu3r68wXHBuwq8QAm8y78n
GGDBmxiyQBI/y77ET5nBd4reQJGYr790Z4zBKbq+QMEh+r83czzBnXc2QRbtir5jL7XB+P4KQQTt
gr4WzCzBAeYQQS6c1cCNQ3nBH7wJQbZjvcDpQY/B8XL3QMavt8AhClvBRqUTQYFFAcAV9pTBixrc
QOj3hcCawZLBySG+QCRugsAAImLBlfExQXUb5r+PwaHB/VUMQTYFYz8HHrXBZhYSQaTC4z40ZV3B
MRnSQPPj7D+M3KTBpQHLQKXhgz+lhbHB2wpMQJPyAT9dT6DB8piJQHp/8j/LPZ7Bs9lzQL6btz+B
kavBNRaBQKho0b+VHajBCJ6UQLluPr+Tl7PBeSe4QAiO5b9vCazBu0WaQGDERMB/PIzBk3KPQMtQ
PcDGTnzB91KjQNLkP79Q1oXBLlufQO3jAcC8MGHBr5CaQJL70L4J5JPBl6/7QOod3L/Qn4rB

> <OMEGA_E>
BLiNPqA11j5g9PQ+cBf1PihiJD+cgj0/

> <OMEGA_NBR>
     14901

$$$$
50225002
  -OEChem-04172616093D

 53 56  0     1  0  0  0  0  0999 V2000
    3.7346   -4.3764  -20.1546 C   0  0  0  0  0  0  0  0  0  0  0  0
    3.0341   -3.7817  -19.0863 C   0  0  0  0  0  0  0  0  0  0  0  0
    5.1107   -4.6573  -20.0310 C   0  0  0  0  0  0  0  0  0  0  0  0
    9.1274   -1.2818  -19.5836 C   0  0  0  0  0  0  0  0  0  0  0  0
    3.7075   -3.4756  -17.8911 C   0  0  0  0  0  0  0  0  0  0  0  0
    5.7858   -4.3547  -18.8340 C   0  0  0  0  0  0  0  0  0  0  0  0
   10.1585   -1.0341  -20.5025 C   0  0  0  0  0  0  0  0  0  0  0  0
    8.7659    0.6334  -21.6245 C   0  0  0  0  0  0  0  0  0  0  0  0
    7.9033   -0.5833  -19.6973 C   0  0  0  0  0  0  0  0  0  0  0  0
    7.7159    0.3581  -20.7301 C   0  0  0  0  0  0  0  0  0  0  0  0
    5.0791   -3.7771  -17.7578 C   0  0  0  0  0  0  0  0  0  0  0  0
    9.9788   -0.0764  -21.5190 C   0  0  0  0  0  0  0  0  0  0  0  0
    8.3617   -0.3560  -14.0232 C   0  0  0  0  0  0  0  0  0  0  0  0
    6.7924   -0.8552  -18.7775 C   0  0  0  0  0  0  0  0  0  0  0  0
    7.6683   -0.5492  -12.8487 C   0  0  0  0  0  0  0  0  0  0  0  0
    6.3451   -1.1807  -12.9105 C   0  0  0  0  0  0  0  0  0  0  0  0
    6.6295   -1.3475  -15.2885 C   0  0  0  0  0  0  0  0  0  0  0  0
    6.3820    1.0753  -20.8469 C   0  0  0  0  0  0  0  0  0  0  0  0
    5.2377    0.1319  -20.3762 C   0  0  0  0  0  0  0  0  0  0  0  0
    3.9299    0.9311  -20.2366 C   0  0  0  0  0  0  0  0  0  0  0  0
    5.0178   -1.0252  -21.3858 C   0  0  0  0  0  0  0  0  0  0  0  0
    5.8052   -3.3607  -16.5065 C   0  0  0  0  0  0  0  0  0  0  0  0
    6.0689   -1.8482  -16.5813 C   0  0  2  0  0  0  0  0  0  0  0  0
    7.8290   -0.7816  -15.2451 N   0  0  0  0  0  0  0  0  0  0  0  0
    5.8496   -1.5187  -14.1465 N   0  0  0  0  0  0  0  0  0  0  0  0
    5.5772   -0.4299  -19.0454 N   0  3  0  0  0  0  0  0  0  0  0  0
    7.0472   -1.6021  -17.6495 N   0  0  0  0  0  0  0  0  0  0  0  0
    5.6944   -1.4118  -11.9008 O   0  0  0  0  0  0  0  0  0  0  0  0
   11.2557    0.2110  -22.6672 Cl  0  0  0  0  0  0  0  0  0  0  0  0
    8.3491   -0.0446  -11.3266 Cl  0  0  0  0  0  0  0  0  0  0  0  0
    3.2160   -4.6179  -21.0706 H   0  0  0  0  0  0  0  0  0  0  0  0
    1.9815   -3.5614  -19.1858 H   0  0  0  0  0  0  0  0  0  0  0  0
    5.6467   -5.1046  -20.8551 H   0  0  0  0  0  0  0  0  0  0  0  0
    9.2682   -2.0033  -18.7924 H   0  0  0  0  0  0  0  0  0  0  0  0
    3.1749   -3.0098  -17.0751 H   0  0  0  0  0  0  0  0  0  0  0  0
    6.8411   -4.5639  -18.7392 H   0  0  0  0  0  0  0  0  0  0  0  0
   11.0891   -1.5774  -20.4301 H   0  0  0  0  0  0  0  0  0  0  0  0
    8.6430    1.3859  -22.3893 H   0  0  0  0  0  0  0  0  0  0  0  0
    9.3265    0.1288  -14.0007 H   0  0  0  0  0  0  0  0  0  0  0  0
    6.3950    1.9770  -20.2171 H   0  0  0  0  0  0  0  0  0  0  0  0
    6.2115    1.3625  -21.8950 H   0  0  0  0  0  0  0  0  0  0  0  0
    3.1237    0.2608  -19.9038 H   0  0  0  0  0  0  0  0  0  0  0  0
    4.0679    1.7337  -19.4972 H   0  0  0  0  0  0  0  0  0  0  0  0
    3.6632    1.3704  -21.2092 H   0  0  0  0  0  0  0  0  0  0  0  0
    4.2052   -1.6747  -21.0285 H   0  0  0  0  0  0  0  0  0  0  0  0
    4.7493   -0.6087  -22.3678 H   0  0  0  0  0  0  0  0  0  0  0  0
    5.9433   -1.6126  -21.4773 H   0  0  0  0  0  0  0  0  0  0  0  0
    5.1873   -3.5873  -15.6252 H   0  0  0  0  0  0  0  0  0  0  0  0
    6.7603   -3.9015  -16.4335 H   0  0  0  0  0  0  0  0  0  0  0  0
    5.1261   -1.3272  -16.8043 H   0  0  0  0  0  0  0  0  0  0  0  0
    4.9244   -1.8895  -14.2270 H   0  0  0  0  0  0  0  0  0  0  0  0
    4.8701   -0.4860  -18.3405 H   0  0  0  0  0  0  0  0  0  0  0  0
    7.9578   -2.0035  -17.5507 H   0  0  0  0  0  0  0  0  0  0  0  0
  1  2  1  0  0  0  0
  1  3  2  0  0  0  0
  2  5  2  0  0  0  0
  3  6  1  0  0  0  0
  4  7  2  0  0  0  0
  4  9  1  0  0  0  0
  5 11  1  0  0  0  0
  6 11  2  0  0  0  0
  7 12  1  0  0  0  0
  8 10  1  0  0  0  0
  8 12  2  0  0  0  0
  9 10  2  0  0  0  0
  9 14  1  0  0  0  0
 10 18  1  0  0  0  0
 11 22  1  0  0  0  0
 12 29  1  0  0  0  0
 13 15  2  0  0  0  0
 13 24  1  0  0  0  0
 14 26  2  0  0  0  0
 14 27  1  0  0  0  0
 15 16  1  0  0  0  0
 15 30  1  0  0  0  0
 16 25  1  0  0  0  0
 16 28  2  0  0  0  0
 17 23  1  0  0  0  0
 17 24  2  0  0  0  0
 17 25  1  0  0  0  0
 18 19  1  0  0  0  0
 19 20  1  0  0  0  0
 19 21  1  0  0  0  0
 19 26  1  0  0  0  0
 22 23  1  0  0  0  0
 23 27  1  0  0  0  0
  1 31  1  0  0  0  0
  2 32  1  0  0  0  0
  3 33  1  0  0  0  0
  4 34  1  0  0  0  0
  5 35  1  0  0  0  0
  6 36  1  0  0  0  0
  7 37  1  0  0  0  0
  8 38  1  0  0  0  0
 13 39  1  0  0  0  0
 18 40  1  0  0  0  0
 18 41  1  0  0  0  0
 20 42  1  0  0  0  0
 20 43  1  0  0  0  0
 20 44  1  0  0  0  0
 21 45  1  0  0  0  0
 21 46  1  0  0  0  0
 21 47  1  0  0  0  0
 22 48  1  0  0  0  0
 22 49  1  0  0  0  0
 23 50  1  0  0  0  0
 25 51  1  0  0  0  0
 26 52  1  0  0  0  0
 27 53  1  0  0  0  0
M  CHG  1  26   1
M  END
> <OMEGA_C>
cQRvQN4LjMCTPKHBeS5CQB8HcsDSsJjBKIujQIgIlcCSP6DBtwkSQdMRpL8tq5zBDkdtQGxwXsDq
II/B9iS5QO1Zi8D0q5bBM4kiQWJdhL8OBaTB8kAMQWgkIj/5/qzBkOf8QNxRFb8ZlJ3BtOj2QKZe
tz5D16XB/oeiQLu7ccDlD47BGakfQUSInL3uJqzBpskFQfVLtr7/XmDBi1vZQKLuWr9lOJbBUGL1
QKqXDL82lE3BQQvLQG0il784kU7BzCTUQBt6rL/JnXTBDznMQBaiiT91xqbBb5unQJwMBz6OAqPB
PIN7QIJbbj+h5KHBEJKgQLQ4g78SFqvBdMS5QD4WV8BbDYTBvDTCQGSQ7L95poTBTIf6QCYXSL/+
63PB6y+7QLRkwr/uV2LBVXiyQEcd3L4BXZjBEoPhQAgTzb8xMo3BeDi2QG22tL+waT7BSBc0QW4V
WD5iVrXB/5UFQeixNr29OTXBM9JNQIHFk8CSkKjBZqH9P3btY8CQfJnBDLK0QNhYo8Av16bBjkoU
QSo2AMDQVpbBSzJLQN+gQMC9mYjBB+raQHcLksDr6ZXByGwxQZPpyb/gcKPB6kkKQZFlsT9jHbPB
YTkVQRPpAz6sAmDB8KPMQPcO/T+cvKHB58TGQNtkrj/tKK/Br+pHQOyEhT4NO5/BkCyCQCXp3T89
+pvBLnJqQNBqrz9orKnB0ZCGQMhd1r9XOqjBRfqXQBjTG79T8bLBoC++QJZqzr9y0avBI/6lQHSW
ZcCsAHrBqlTYQGqyecDRd4PBMAmkQLXiqb80b4bBm5SdQIzb8b/HoWPB2NebQE3a+L5juZLBZab+
QPQ5AMDfZ4zB3CFvQKTtjMC/9qDBNMCjQA5zlcBYJaDBFhpDQC+Kc8C/XpjB4AUSQXZ6o7/P9JzB
9uO5QBlHi8CSrpbBaExvQDveXsDG7I7BEXUiQebIg788WKTBM+ULQTrVHD8ncK3Ba778QML8Fb9l
3Z3BEVj2QNlUrT4WPKbBl62jQPFwccBQBo7B9G4fQRRJp71ciazBTgEGQR966L5kQV/BN6XZQAy+
Vr+uUpbBY630QFy9Jr8hzkzBUGDJQN9Qmr/Wlk7BnGTUQHEPrL+0hnTBQqXLQFQGhz9JJafBuien
QPXDBT4dBqPBtit7QIh/cT/X2KHBXDGfQNb0hb+92arBKma7QP9jVsAmIITBURXDQG2U6r/QsITB
HGz7QP47VL9PMXPBFjO6QFCfv7/ZqGLBlLqyQM/Rz76oVpjBdlviQJ80yL/3M43BkkizQJBEtr/t
0D7BNeIzQVJ6Xj6vsLXBoi4FQR87hr645DPBCRVNQBoclcD/MqjBR5m0QL/Io8C7yKbBuwj/P04V
ZsBuCpnBhGAUQcQm/7/rmJbBM8PbQHWnkcBkDJbBDOFNQB/LQMDHXIjBXGkxQUNkyL+Ov6PBBsUJ
QWgnrT/Ho7PBBrMVQWgnv7slVF7B+3vMQOKl/D8wUKLBU6nFQFIaqD9Ika/BXLJHQKgckz6e7p7B
qauCQAOA4T8XG5zB/A9pQHZcrj+4qanB90qFQNRO17/4vafBcwiWQKFmJr+lu7LBm5y8QGtA0r+m
oavBVUGoQCnBZcBn/XnBkULaQM0UeMCYs4PByKmkQBi0qb8UeIbBByWcQGEd6b8jeGTBopCcQEyp
4L73kpLB6uf/QFZE978cUozBJDh1QMwgisBDY6HBSeumQEwAksDPlqDBFiZIQK6accAVo5jBYE0T
Qcdmgr+xN5zBEbW8QFbQiMDUApfB1JhzQJYaX8DnEI/B82cjQQYsJL+/cqPBlH4IQS8dqz6WRa/B
G3D7QA+dNb+6hp7Bo5vwQHa97r2MXqjBHwWmQHfvb8CXNY7B6A4eQSg8rz0ouazB2xIFQWGyx77q
8F3Bd2vZQHD3bb8QnpbByq7xQD54Gb8H4UvBjDXHQEbjmb8oVU7BHt7UQJJFq7/kCHTBVerBQK5m
FL0Ti6vBnACnQEaPtj6arKHBjimvQOR36z+N2J7BWlpuQAgyHz4KIKTBEHC9QFXTVcBJNoTBmqPE
QJDf6L/djITBZET7QNwPSb+/I3LBoci5QHAmwr/7lmLBHyayQJJVAb94Y5jBePbjQDg0wr+M/IzB
RyWwQGA8t7/78z7BKSsyQYiiJj8OOrXBQWkCQU/xJL4wqTLBVMhTQN1lkcBWuqjBYiK4QGkVn8BL
VKfBNlUEQMNHZcBsSJnBemEXQetgxb+M8JTBVK/eQE2jjsAZZpbB+UtRQH8FRMBMX4jB0twzQWFq
aL9i5qHBC2sEQZ5qXj8/f7bBIIoUQc2iqj3YglzB6OK9QDeyOD+417HBdj+3QLzigb81ja7BWPGb
QMVsB0Ab0JfBVE7RQGMH/j9IDJ3Bzg2mQNxSHkB5qqXBqC9IQE5L3z5qFJ3BE/ZbQGhyST9M9KrB
s4ZiQDiJZr+3GKbBSz2qQNuaZsACSHrB+nXcQPHxdsCH04PB8wumQHucqb/bXobBYkmcQGVY8L83
22TBvPqaQOO9Rb8sTZPBdVABQQ0a4L93q4vBW+92QLT+icD8iKHBZz1JQC8AcsCJy5jBxsqnQJyp
kcDWrKDB9BcTQfgYg791HJzBPR10QBmdX8ACLo/BC0m9QJWYiMCoC5fBijUjQYDdH79AP6PBhykI
QfnVjz6OXa/BvOz6QC7mP7++kp7BRv3vQO+/QL6ihqjBpkqmQBALcMBvQY7BucUdQRg/qD15m6zB
fxkFQfsPuL6TTF7BFwPZQDoqb7+0l5bB5XXyQGjQFL+AC0zB8DDIQPQomr9IKU7BnZ/UQEkHqr/2
/nPBByTBQOIuv72EkavBy56nQFUtwz5OsaHBKnmyQOwa7j8cQZ/BcLNuQNQJgT4C2qPBil69QIm8
VcAQNITBmTjEQAZ76L+GgoTBptb6QISQQr/YXXLB4yS6QGlzwr+VVmLBtiayQGGF8L4eSpjBNHvj
QGpOwr9c9IzB1vSxQO16ur8Jkj7BguExQRjKMj+W4LTBDyEDQROEBL7CAjPBAfVVQMwqkcDf6ajB
L2AFQO4XZsCJe5nBN0C5QGl+nsAGaKfB6DAXQXDYxL/RypTB8FRRQN7pRMA4gIjBlUTfQJJNjsA5
YpbBm70zQWCyW7+EkKHBmQsEQZ6ISj9vsrbBb3kUQQwDAz6tHl3Bkyy9QDyxID/DI7LBgHe1QJtK
ir+oIa7BlTugQJ9oDECmN5jBue7UQEw5+j9BoJ3BPvqpQL/tHkBFMKbBvMVKQJZxFz/HyZzB5lJd
QIMYXz+ryqrBqfBeQPasTL+1haXBaguqQPzlZsD4VXrBOIDcQD1pdsD7xYPB2I6lQJG8qb9pU4bB
La+cQNev8b8jYWTBbPWaQAFYMr/DFZPB4REBQQNH4L8voovBYCVwQACkjMB8sqHBbmmkQJKslMAE
DqHBcTREQCPvdcBt55jBYCMSQbj5or99qJzBINy6QGgmi8BwmJfBH8xwQNtQY8C8cI/BSKsiQe0Y
h783FKTBVn4MQRBsFT+EbK3BgCX9QBccE7+AuJ3B8F33QB+srD5KNabBXqOkQE0cdMBBwo7BPdsf
QXqSAL4jbqzBCjzCQCYboL91Tk/BXkbZQBRTUr8BV5bBmKTrQHymVr/DjUvB3ksEQSyVLL923l3B
eu3OQLFHtr9VXnTBCufMQMOUhz+ITqfB3AaoQAXpBT7yeqPBW958QJo1cj9ygaLBXNqgQPSKhL/s
dKvBcjG8QDvXWcC824TBaH3AQKbX778J9YTB6jm0QE1Dxb/SEWTBuCH5QExrfL+xyHHB4F2yQJi7
174EwJjB9DPhQGZtwb+s+4zBjaUWQQCXib4lx1vBf0Y0QRkcCT5/sLXBdPX8QFqWCL/ghzHBw8lN
QMARlMDl9ajBTCG1QJsjosBy06fBt2cAQLgzacCvcZnBzV0UQUNm/L8JKpbBBeLcQLfkkMAFG5fB
QltPQGIkSMBLr4jBToUxQc/fzL9oYaPBmo4KQdhKqD+FtbPBNEysQIP5rL8WDULBB1zNQE1P/D8g
Y6LBVrnHQMo/qj+tvK/BerRIQGMylD6ZzJ/BJwWDQNb54D8orZzBcGhsQMHurz91WKrBKamGQPJx
1r+8kKjBXXiYQCbNIL+cW7PBtVi+QAqw0L+6G6zBRDuqQEw0bsBYdnvBSCLcQPdqd8ADxYTBc3+h
QIRqtb+++YbBzBYGQaBPZr8WkX7Bwz+bQHvh+r7tPpPBLmj/QAKs5L8LhovBuJ1yQNxmjcDwHKLB
YDZFQCXrdsBneJnBS5ClQMJ3lcACNqHB3hwSQToypb9UnpzBZCRwQK3sY8CQ5I/BiCi7QPzUi8D/
oZfBRKYiQZAJi79AEKTBSm0MQQHWBj/6pq3Bphv9QMSgF78rvp3BBUv3QB7TmD7XYabBczWkQF0N
dcCG747B8NMfQVzAMr41iqzBW9XCQBDrnr/lW0/Bu1bZQLQWUb/8QZbBLFrqQNg4Kb/dQ0zBANkC
QSA8175o+l7B72TOQGh9tb8Di3TBwgrNQBDDgz+kjqfBgQOoQBBjDT4jUqPB7MN9QLhUej9+fKLB
h9WfQCPth79w56rBjPW6QL/8WsBy4YTBGfG/QOx38r9PAoXB/Ry1QJQvzr+b22PBXcz2QNB3U7/m
lHLBjs6yQBpTu75UeJjBw77gQIrixr8GGI3B3mkUQdi04z29cV3Bq1U0QTj2oT00w7XBJnv7QAqN
gL6wkTLB/4RRQNEBlcC9dKnBB48BQJsNasDONZrBe+G2QBULo8Ca36fBP1UUQUBT/b8YDpbB+ZFN
QFo1SMAAQ4nB7BzdQLSnkcD08ZbBNIQxQb9j0L8gSaPBsW4KQV6Dnj/2ErTBHymuQJIAtb8NykHB
+CLOQHN8+z8e76LBWn7HQKpRoT9uDLDB50BJQIpZsj7ZfJ/BhymEQHxx6D8T8ZzBU+psQDhbrz8Q
b6rBkIaFQLls1r9nuafBviuXQKxaML/t5LLBgwK9QOUp1r8TeqvBhCCoQHCRbsCJuHvB66vaQOpv
ecBbkYTBxyahQGz/tr+TGYfBjnwEQVaeMr/oln/BAGmcQFZtub6TwZLBG4z+QGrl8L+v1IvBriWB
QHiYisAg9qLBhUZOQHUgdsDknJrBzyKtQJXUkcAiOqHBbCgTQbfMgL+hApvB1TJyQA15ZcCrhpDB
wSq/QBOUicBuIJfB8xMkQQ6NKb9Z56HBgJkKQbyDjD4yqq7BmLT7QDpNNL9M953BgkfzQF0DCr4R
DqjBVQGlQDN/dMCZwo7BFNMfQSCloTyziavBQY3EQFRVl79J6U7BRJvXQMXvbL+MkJbBjlTtQN4j
Lr8OUUzB2QAEQQAU976HX1/BWffNQIzqsL8ZN3TBDnDFQHBAQL013avBxouoQPTJvT7eaqLBnsCw
QBxW7T95mJ/BvLlyQGg9Pz6wlKXBDIS4QBfeWMDcWYTBBGu+QBiJ7r88vITB2RS1QLADw7/fP2PB
+X73QEH4Xb+Lt3LB6wqxQIwE+L6i5ZjBBVXfQEIzx78w7IzBawMWQWBB8LvfWV7BltM0Qe0WAz+L
z7PBb34AQai5qL4L2TLBV6tmQL37kMD8t6rBc+YKQGQka8C+95vBs/jAQEyzncBipqfBuWsWQUjS
v7/SfpPBmJRKQLYuTcBbIYrBFeHgQN7yjsCKx5XBY1M0QYrBa78Z0J/BxFkHQcFKSD9RHbbBVkGw
QDs+qL/4FUHBcwXDQERoMz83SrLBHyK7QCaGg79e6K7Blh+cQMh9CUBV3ZjBW4HSQA5M/j+fVZ3B
03mpQI/sHkD+lKbBnm5JQAOt9z583J7B90ZkQFtUUD/5lKzB6fJmQN11Xr/DkKfBFDOjQCckasDo
YHvBSbjXQKI/eMDBQYPB6dyfQLXJsL+ZyIbBA6oEQW1YR79M7X/BpqGYQDxLO78OHpTBHHv9QJ7U
6b/uVovBijeBQCnDjsBCmaLBV66tQPuRlMCAVKHBGMxQQI8vfcBWGprBAioTQb0WfL99qZvBMmDB
QI9oisAciJfBXvx3QFjSaMBGUpDBZzsjQVCiHr9S+qLB//YHQb6xtT3Mya/BXfD6QBc7SL9SZ57B
EvPvQFptuL5SxajB2laoQEFxdcD8/o7Bs5gdQcBblrwYyazBmmLAQDH/nL+SME/BLZDYQJrkYb9R
aZbBxofpQP+eS79gPUvBYU4DQW8MGr8Ab13BZ+LNQIg9sr/mKnTBnxfBQKbKp77R0avBWXWoQK7U
rj5Zi6LB0OK0QOxP6z802aHBSApwQNW6ZD5OeqTB/Pe8QOddWcCcvYTBRkrAQKSL7r+c2oTBWvGy
QLAvw78RAmTBaKv3QO9la79ka3HBXbqyQNhssr5CR5jBXzDhQOeTv7+Qy4zBzY8VQQHBO75/J1vB
LGsxQTt9Fj+gSbXBJLT6QOkQCb8zEzHBjkRkQLq9lsC0HKrBrJzAQM3QoMDX4KfBuMEMQHoUdMCe
HJvBZl0XQQQ1tb/zBZTByHTjQGiXjsDJjJbBNjJSQDSAT8Du0InBztgzQeCmTL++FqHBaLIDQc5v
Az+wcLfBQjqqQNLyqr8yC0LBTMy8QALagT53NrPBtD61QKkOrb96Da3BgE2jQNUFFEC6PJvBYH7X
QNWZ9j9pZ6DBXrKsQOGxFUCDaanBsVBNQLOdMz/12J3BwGBfQHn6OD+oCazB2hleQMW6Vr8r76TB
Nl+pQG8WbsA/z3vBkx7dQLONdcBfF4TBhSihQHWwtr9TBIfBO2QFQTH+T78SI37BJimcQIfU0L5d
oJLBN7X/QBOZ2r/4FIvBQv0FQQ/qs8D8QobB1Wv4QNNJqcAM6njB3QH6QHXOpcBZ/Y/BqxoSQZ5T
pL/lHpzBz8vTQE1Mj8C8sXjBfOXUQORdjMCn5o/BMvUiQf7Eh78wW6PBJL4MQWKjBz9vO63BOND8
QGWzHL/YlZ3BiT/3QBL7jD7wO6bBPZ/CQOzkf8BLB4bBYkggQTBxGr6G3qvB4XkHQScoCL+tFWDB
dozYQEWCU7/lVpbBi3D5QCVOLb8BB03BT47NQKh8mb/hhE3B8RzTQJSFp7/f3HPBv2fMQIX6eT/d
r6fBg3OnQIAslj3OgKPBGMh7QGEiYz89d6LB6L+fQJ7Qkr8Y5arBA2qjQJyeNsCaqIXB2uC8QFYV
w78xiITBYRD7QH1GWb+8enPB/pi7QNQ9vr8/ImHBAg+yQGAM0b7yxJjBXqHeQCjVub9Nx4zBGi65
QFKasL+uED3BHCE1QRjF/D1T27TB+vEIQbwydb5V8TTB3GoUQWbuxsBRU4bBYMwCQZggtcCTE2rB
zFwEQSaHrsAuf5fBEDAUQQBY+78MfZXBy8rEQIMTh8AprmnBQWvGQFFcgsA8VpfBeu8xQav4yr/X
ZKLBy+sKQURrnz+Fo7PBi8EXQevbLb59EmDBkJTMQKH39T9eL6PBelfHQGbilz9PO7DBXzVIQGsH
cj4/gZ/BRd+CQGWe2z8W0JzBo/JpQDBjpT+tVqrBS3iFQNzq4L+fqafBBUGXQAjsS78l9rLBnBC9
QAl44L+rT6vBQnqQQJleNcA2E43B7eONQJZmPsAGh33BOVWmQNe5Mb/Ty4XBz4SdQCV26b9B7WHB
sU6bQKM31r7oJJPBdfj6QG5O8L+rSovBLJQEQVgKvsAHXXzBDpsAQawcsMAVuYjBeR7xQCI1rcAF
RGvBcP0RQfSwsr+M+ZvBTanhQJLjkMDZtYrBiADRQJarjsDxRG/B9ywjQQATor9ZMqPBK9ANQZSF
ej4AOK7BpRT9QKOINb+T553Bud74QBgMyD1zH6fBP2vJQCnAf8DeK4LBUxshQWIM476WS6zBjcsD
QVfjJ77q3V3BqlXYQBICUr98eZbB8JH2QA0hKb+kIEvBwN/OQBieuL/4RkzB5GjQQOTckb98pXLB
warPQFDjXz+e6KjBDYeoQMArxz2XUKTBE7aBQMKahj/Hk6PBq76cQMrFjb8ijqvBcX2oQJyqOcDp
U4TB8LS8QNosvb8OGITBnFv0QHKr3r5cs3HBw/+7QH/gy7/oEWDBuBOyQASdy74dVJnBhoneQLNW
r7/RZ4zBO8m+QB+a+b/UWzzBi3o2QWYai74OMbXBFLkHQUB0sb6CpDLBP9cQQfae1cA9U3nBB6sJ
QQBlvcCRSY/BalL3QDW4t8BpGVvBkaQTQS07AcCM95TB0//bQBXwhcAsyJLBnwW+QAZygsCXL2LB
nPExQXcS5r+WwqHBqVUMQcmhYj+bIrXB3RMSQfu94j5RR13BthbSQHfK7D+h4qTBsgPLQD6ygz8t
i7HBFwRMQGPLAT+MVqDBGJWJQBRv8j+NRZ7BO9tzQKRxtz8nmavBaxeBQKGS0b/gIqjBe6GUQHTT
Pr/1nLPB6ym4QMG05b+1DazBzTuaQOB+RMBQQozBcWCPQGorPcCrWnzBWFejQNgyP78R1YXB6VSf
QDMIAsBXLGHBIIiaQJCl0b5m6ZPBIbL7QPWp27/bnorB

> <OMEGA_E>
EOxcPmitZj60TcA+7FvBPrgU3j4sjN4+5JEPP4gOEj/02xc/JKoyPw==

> <OMEGA_NBR>
     24064

$$$$
50225012
  -OEChem-04172616093D

 50 53  0     1  0  0  0  0  0999 V2000
    3.8027   -4.3840  -20.3197 C   0  0  0  0  0  0  0  0  0  0  0  0
    3.0645   -3.8165  -19.2621 C   0  0  0  0  0  0  0  0  0  0  0  0
    5.1838   -4.6261  -20.1699 C   0  0  0  0  0  0  0  0  0  0  0  0
    9.1263   -1.2870  -19.5049 C   0  0  0  0  0  0  0  0  0  0  0  0
    3.7042   -3.5031  -18.0506 C   0  0  0  0  0  0  0  0  0  0  0  0
    5.8266   -4.3114  -18.9573 C   0  0  0  0  0  0  0  0  0  0  0  0
   10.1832   -1.0592  -20.4032 C   0  0  0  0  0  0  0  0  0  0  0  0
    8.8196    0.5744  -21.6048 C   0  0  0  0  0  0  0  0  0  0  0  0
    7.9056   -0.5922  -19.6663 C   0  0  0  0  0  0  0  0  0  0  0  0
    7.7475    0.3199  -20.7308 C   0  0  0  0  0  0  0  0  0  0  0  0
    5.0811   -3.7642  -17.8910 C   0  0  0  0  0  0  0  0  0  0  0  0
   10.0313   -0.1256  -21.4477 C   0  0  0  0  0  0  0  0  0  0  0  0
    6.7668   -0.8363  -18.7654 C   0  0  0  0  0  0  0  0  0  0  0  0
    6.4125   -1.3975  -15.2431 C   0  0  0  0  0  0  0  0  0  0  0  0
    6.5701   -1.1450  -13.0761 C   0  0  0  0  0  0  0  0  0  0  0  0
    6.4239    1.0404  -20.8964 C   0  0  0  0  0  0  0  0  0  0  0  0
    5.2623    0.1076  -20.4508 C   0  0  0  0  0  0  0  0  0  0  0  0
    3.9607    0.9233  -20.3531 C   0  0  0  0  0  0  0  0  0  0  0  0
    5.0619   -1.0475  -21.4646 C   0  0  0  0  0  0  0  0  0  0  0  0
    5.7585   -3.3648  -16.6062 C   0  0  0  0  0  0  0  0  0  0  0  0
    5.9474   -1.8393  -16.5916 C   0  0  2  0  0  0  0  0  0  0  0  0
    5.7537   -1.5511  -14.1222 N   0  0  0  0  0  0  0  0  0  0  0  0
    7.6431   -0.8342  -14.9546 N   0  0  0  0  0  0  0  0  0  0  0  0
    5.5536   -0.4576  -19.1060 N   0  3  0  0  0  0  0  0  0  0  0  0
    6.9959   -1.4864  -17.5669 N   0  0  0  0  0  0  0  0  0  0  0  0
    6.2954   -1.2044  -11.8858 O   0  0  0  0  0  0  0  0  0  0  0  0
    7.7594   -0.7346  -13.5743 O   0  0  0  0  0  0  0  0  0  0  0  0
   11.3422    0.1536  -22.5611 Cl  0  0  0  0  0  0  0  0  0  0  0  0
    3.3095   -4.6341  -21.2474 H   0  0  0  0  0  0  0  0  0  0  0  0
    2.0089   -3.6228  -19.3823 H   0  0  0  0  0  0  0  0  0  0  0  0
    5.7487   -5.0531  -20.9854 H   0  0  0  0  0  0  0  0  0  0  0  0
    9.2464   -1.9903  -18.6942 H   0  0  0  0  0  0  0  0  0  0  0  0
    3.1412   -3.0621  -17.2413 H   0  0  0  0  0  0  0  0  0  0  0  0
    6.8860   -4.4880  -18.8436 H   0  0  0  0  0  0  0  0  0  0  0  0
   11.1116   -1.5999  -20.2929 H   0  0  0  0  0  0  0  0  0  0  0  0
    8.7139    1.3042  -22.3938 H   0  0  0  0  0  0  0  0  0  0  0  0
    6.4218    1.9491  -20.2766 H   0  0  0  0  0  0  0  0  0  0  0  0
    6.2870    1.3165  -21.9523 H   0  0  0  0  0  0  0  0  0  0  0  0
    3.1377    0.2651  -20.0379 H   0  0  0  0  0  0  0  0  0  0  0  0
    4.0880    1.7297  -19.6158 H   0  0  0  0  0  0  0  0  0  0  0  0
    3.7263    1.3586  -21.3357 H   0  0  0  0  0  0  0  0  0  0  0  0
    4.2366   -1.6922  -21.1282 H   0  0  0  0  0  0  0  0  0  0  0  0
    4.8211   -0.6298  -22.4533 H   0  0  0  0  0  0  0  0  0  0  0  0
    5.9860   -1.6404  -21.5322 H   0  0  0  0  0  0  0  0  0  0  0  0
    5.1355   -3.6672  -15.7516 H   0  0  0  0  0  0  0  0  0  0  0  0
    6.7392   -3.8583  -16.5378 H   0  0  0  0  0  0  0  0  0  0  0  0
    4.9986   -1.3457  -16.8486 H   0  0  0  0  0  0  0  0  0  0  0  0
    8.3293   -0.5486  -15.6236 H   0  0  0  0  0  0  0  0  0  0  0  0
    4.8094   -0.5521  -18.4449 H   0  0  0  0  0  0  0  0  0  0  0  0
    7.9389   -1.7348  -17.3458 H   0  0  0  0  0  0  0  0  0  0  0  0
  1  2  1  0  0  0  0
  1  3  2  0  0  0  0
  2  5  2  0  0  0  0
  3  6  1  0  0  0  0
  4  7  2  0  0  0  0
  4  9  1  0  0  0  0
  5 11  1  0  0  0  0
  6 11  2  0  0  0  0
  7 12  1  0  0  0  0
  8 10  1  0  0  0  0
  8 12  2  0  0  0  0
  9 10  2  0  0  0  0
  9 13  1  0  0  0  0
 10 16  1  0  0  0  0
 11 20  1  0  0  0  0
 12 28  1  0  0  0  0
 13 24  2  0  0  0  0
 13 25  1  0  0  0  0
 14 21  1  0  0  0  0
 14 22  2  0  0  0  0
 14 23  1  0  0  0  0
 15 22  1  0  0  0  0
 15 26  2  0  0  0  0
 15 27  1  0  0  0  0
 16 17  1  0  0  0  0
 17 18  1  0  0  0  0
 17 19  1  0  0  0  0
 17 24  1  0  0  0  0
 20 21  1  0  0  0  0
 21 25  1  0  0  0  0
 23 27  1  0  0  0  0
  1 29  1  0  0  0  0
  2 30  1  0  0  0  0
  3 31  1  0  0  0  0
  4 32  1  0  0  0  0
  5 33  1  0  0  0  0
  6 34  1  0  0  0  0
  7 35  1  0  0  0  0
  8 36  1  0  0  0  0
 16 37  1  0  0  0  0
 16 38  1  0  0  0  0
 18 39  1  0  0  0  0
 18 40  1  0  0  0  0
 18 41  1  0  0  0  0
 19 42  1  0  0  0  0
 19 43  1  0  0  0  0
 19 44  1  0  0  0  0
 20 45  1  0  0  0  0
 20 46  1  0  0  0  0
 21 47  1  0  0  0  0
 23 48  1  0  0  0  0
 24 49  1  0  0  0  0
 25 50  1  0  0  0  0
M  CHG  1  24   1
M  END
> <OMEGA_C>
8F9zQI1JjMCtjqLBSSFEQFNCdMDcGJrBDOKlQDQJlMDtW6HBfAUSQRS8pL8JCpzBBxJtQFEzYMCT
Z5DBdnO6QA33icCYqJfBMO4iQSWVh7/LOaPBGR0NQc0IEz+b1qzBc/r8QFWbF797VJ3Bq+v3QKzI
oz662KXBTJiiQHfocMCtII/BWoAgQceQAL7jlKvBo4nYQOoWVr+JH5bBfTPNQDfgsr+O43PB/j3S
QCGPkr/AN1HBdZDNQGArhT/LK6fBG2WoQHRg3D1Fm6PBjXx9QKJfbD8P06LBE/uhQN0Uhr91t6vB
xUW4QPxYV8CI2YTBd1G+QA1u67+Qu4TBAx64QHaLxr+Z9GHBlZT0QACQVb/qRW/BbbexQIhO6r4p
2ZjBH97fQB9Cvr8EiYzBQnTJQD8qmr9qLD7BaE34QDYRPL9FMFnBe3k1QR5CHT45fbTBhc9TQJNK
lMCU+qnBfpEAQHTbZ8AMD5vBQfW3QJ+yocAf4qfBWPETQeLC/r+ijZXB/ghJQBz6Q8A27onB1lnc
QPCdj8Crv5bB/8gxQV/IzL/zV6LB/msLQUjvpj+MJrPBgH/NQB99+T9mNqLBdS/JQByCqD9mnq/B
jc9IQCO8hz6pTaDB+tCCQMZm3T8e7ZzBHHtuQJXmrT9/r6rB/ZGHQN6a2L95BqnBkkaaQIk7Ib9X
oLPBRI2/QKb30b/YQazB5lWkQKizasCHBnzBxKfXQDrudsB4TYTBePSfQD9BrL8JyobB1kQFQXRx
DL88+nnBbuaZQDtXDb8Vj5PBxAv+QP8O3r8qxIrBQnZyQHbXi8Dk0aLBF0mlQDk8lMDwkqHB54tD
QA5hcsDdZZrBQN0RQXHio78DN5zB/dq5QD9kisB+25fB14ZsQNSbXsBospDBh6MiQcPjhb8EeaPB
/Z0MQWaPFz9k6azB/Zn8QHPMFb+4YJ3BNTX3QIG0qT582qXB3yiiQHbBcMCmXI/BTQwgQZCf171X
xKvByWDYQBFUVb9RGZbBJlHNQKNStr8283PBQirSQLrNkb9iUlHB1c/MQJOuhj/LD6fBptKnQGgx
8D26cqPBRTF8QEXRbT+Ao6LBs1ihQMgShb/wiavBT9W3QDlKWMDXBoXBfEq+QDKq7b8JyITBkxi4
QHiUx7/kAmLBqtv0QCgfX78nX2/Bj4WxQI0/475js5jB09DfQNdQwL9PmYzBpwbJQFgBlL/cSz7B
YHL4QAtnQL9iUFnBqug0QRd1RD4WtLTBHt1SQGC6k8A6P6rBq0G3QLA3osDbEqjBZzQAQDT/ZMAC
ZZvBP+oTQX2R/r9YxpXB5aPbQO2ZkMB06JbB0cRIQD6AQcCVQorBC4MxQVMly7/esKLBfsgKQT2V
qT8PMbPBB+jMQLqr+j+wEqLBdSHIQH6Sqj96fa/BFbxHQKWTiT69FKDBOC2CQABf3j/9wZzBf9ls
QI5Drj/ef6rBZwuHQKfS17/1zqjBDHOZQF2yH79pcbPB8vS+QO2n0L8xHKzBTbqjQKrWa8BrdXzB
ZhPXQGRweMBHfoTBOQigQIxXrb9wy4bBS4IFQanIGr9cGHrBbfiZQNbzBr9rU5PBVvT9QB7N4b89
6YrBWhRwQA9zi8A4QKLBCmJDQHCmcMCitJnBCymkQLgXlMCBTqHBnDYSQRZHpL8M2pzBRbpuQNyN
XMBYLJDBVem5QJ8OisAQxZfB4KsiQU4Qhr9XRKTBhk0MQavsGT8EZ63B+0P9QCERFr+Ey53BGBD3
QGRnqj4YN6bBcVqjQHBNb8DOJI/BQMQfQRiPzL0Ge6zBtODZQNgIVr8BUZbBiG7QQJQ1tL8tKHTB
mHn1QH4eI7+BJ1nB4lHMQHdkhT8YPKfBEdGnQLYBzT3uY6PB1gN8QJ7sZj88RqLBqKagQH9fh7+s
bqvBdm66QPIEV8A/AIXBR47BQJGT67+P3YTBG9P0QIR0Vb8OIW/Byk64QCSwxb8r1GHBeq2yQOas
6757uJjBi3jiQFukvr9ZzozB2xEJQQje270b4U7BRmPRQMcRlL/ck1DBmj00QYYTQz5VpbXBGKlO
QEmBk8ByiqnBK+X/P6HLYsAieprBjka1QDxrosA156fBCIMUQd9Z/79FdJbB07JMQHvFPsCSo4nB
i8LbQFZtkMDyDpfBzIsxQcvFy78YrKPBskQKQW3Nqz8Hm7PB+ZXMQEjQ+T8zSaLBf+DGQFJlqD8v
pq/B6HBIQImCcD47jp/Bm4uCQLy/2j8AZ5zBCsJqQE/7qj9+EarBG7uGQJ+M2r+gh6jBZd+XQBKg
JL9VSLPBGUW+QKR20r9cMqzB/wqnQJ3GacC6FHzB2ILZQIL5d8Cxr4TBu0ijQAr0qr8a1IbB/Aua
QG7i7r8vFmHB1ZybQGLoDb8BOpPBCmkAQSBy3r85O4vB5TxxQNPli8BkQqLBjb+kQLhllMDEQaHB
iBdEQDOIccCHwJnBn0sSQfrIor+/ypzBgUm6QBkuisCOs5fBHAZvQEoEXcCVNJDB1c0iQeBdhL/4
LaTBrUUMQSxEFj96hK3BykX9QA7FFb800p3Btv72QPCjpD4zU6bBHYOjQNFnb8C4Ho/BNtcfQV61
y71Ze6zBQ9/ZQHoSVL98UZbB9jfQQNAYs7+JKnTBDvv1QAiHLL9jF1nBVkrMQFDugz+IYqfBOcSn
QDlxyz3faKPBSi98QFzGaD92WKLByFmgQHgBib/0UqvBaly6QM2RVsD794TBMVzBQNaF6r8O34TB
3wL1QGQ4Wr8tGW/BnPO3QPa3wr+/2mHBD7qyQJbN475jspjBTVriQJ7vvb9qz4zBH8IJQQxATL6J
vU7BjGLRQDS1lL+7kFDBo2k0QbHlSz6Nk7XB7CZQQM8RlMCfkKnBCwi2QFLAosB80qfBuZ8AQPb8
Y8BrkJrBLJ4UQUkC/b+GWZbBgCLcQAF3kMAZ8ZbBvadMQCQvP8DZs4nBjsMxQbyuyL+MfqPB9CcK
QVdHqD8+0LPBRa/MQOFx+T/giaLBV8HGQNEYpT8X06/BkXxIQIhLgD5ziJ/B09SCQJ/Z3D/BkJzB
FNhqQCpgqj+2LarBUWiGQN45279ZVKjBGX6XQAHlKr8rNbPBAOW9QOSl1L+QDqzB1t6mQCcxacBw
CnzBYnvZQAZVd8CFmYTBZBOjQJwdqr+K2YbBhGmZQPKF6L/eJGHB6sibQImXBb9dJ5PBdVUAQZo6
3r+CO4vB8QGCQBfbisB8gaPBgdJQQJ08dcCRKZvBWS6uQHthkcDE46HBhRATQUTEgr8pRZvBD9R1
QBkuYsCgMJHBT8LAQEnuh8AD5pfB9IUjQYL0HL/hNaLByf4IQbLeIj77Jq/BUwT7QH5hT7/7O57B
oDjxQKRHqb7diqjBivmmQNFNcMC5fo/BRnAeQRCMJD2S36vBgejXQP6nb78Ia5bBbV3NQADGsL+0
X3PBnOLQQARjjr9qqFDBPdbCQPkmjr7N/KvBeq+oQN1knD6rn6LBh9m0QJV55T9Y5aDBPkVxQFK8
Vz4GKKXBpp+6QGG9VsA57YTBpnC/QNeF6b8akITBUz64QBE0yr/FjmHBOFjzQAINPb/cgG7BfF2x
QAIn976PuJjBV7vgQEXQt7/IVYzBb2jHQDxolb/QsD3B1jH2QGbLH78bZFjB5bgyQdxsMT9o3rPB
AIhnQJdRksBeJ6vBkzcNQIf9asDybJzBG8fBQK6gncBtUKjBVN4WQVokv7/qu5PBeLhOQHewSMBz
0YrBSaDiQCy8jMBQqpbBNwg0QQG1TL/PI6DBGigFQT7PHz+xtbbBS4K/QAEpuz7nE7PBvWi3QOYt
pb9K5K3BUh2iQN0KDUD3NZrBISzXQCX37j8iCZ/BP+etQIQ+F0CTN6jBuDlMQLOqID8pdZ7Bv05j
QH+gRz9ie6zBMINfQCHlV78qWKbBG82lQALia8Ajr3zBKEbaQA7VdMDpGYTBZLmgQDxdrb81pYbB
un8EQedI075fEXnBLUGZQOYsLL9ar5PB+WL/QHkcxb8aMorBM2iCQOWAjMDni6PBdJ6uQO7yksBC
+KHBZuhRQOQKeMC4NJvB0wQTQUedgL97RpvBCV/BQDI0icBHBJjB+UV3QI9SZMC2RpHBHkYjQe29
Fb8mSqLBu1oIQdT8CT7eO6/BqMT6QG8iUb9dMp7Bmm7wQD2ovb70jKjBzLinQI5icsDinY/BVdwd
QfBhXj1U+KvBHv3XQNy1a78JS5bBfOHNQCwrtr9xhXPBay/RQBNxj78s5lDBstjBQJlBrr4/1qvB
O3SoQB5imz7Ll6LBp+q0QBon5j/9jqHBH2twQByXSz5d26TBR3e7QLXxWMDPDoXBZ7y/QLLs7b8i
noTBLRe4QKeeyL90x2HBrPD0QIpHWb9on27BZ9SxQAHv175PaJjBr9zgQHKHur/qW4zB1i7HQDRA
kL8++z3BH4n3QOSbNr+AjljBDM0xQZ0GQD8p8rPBEg5oQH83lMCtKavBlxvCQEBcn8AeZajBMT8O
QKvubcB0cJzBuwcXQUq2u7/+uZPB1ULjQLf1jcCnz5bBGWlQQLZeSsD/6IrBNdwzQStvQL81RKDB
O0oEQdsKFT+R1LbBxAS+QOBLgz7CKrPB7kq2QJKRrr9pRa3BzMaiQNhVEECb9prBWmTXQJqV8D/6
55/Blm+tQMKAFED6EqnBAntMQIm4KD//Pp7BkXFhQOr3OD+fXazBz0leQOM2XL/clKXB1OqmQOLo
bsBU7HzBek3bQK5cdsCgTYTBF92gQNmJsr8upIbBSLUFQY/yE7+rJ3nBaW+aQC1NCL97BZPBOIn/
QKZEyr+cTYrBZ296QCX7i8A8i6LBIvVKQG0wdcCHAJrBbJipQAjTksCncaHBD3gTQS2ogr/ExZvB
UiZ0QOFmYMAnWJDBWEK+QGWCiMBqxpfBDP0jQcadKr+I2aLBn8UJQQo+gT7cUq/BHgv8QMYUOb9F
c57B5F/yQCebML5RiqjBBGCmQGomb8DYLY/BsC8fQZBPuzz5YKzBFhjZQIBAa793tpbB/RXQQPjW
r7/sxnPB3bf0QCzkJL+WVljBfirEQEjz870jJqzBpoanQKDxjj5Xm6LBY0quQOYe4z9l85/BNJNw
QDBqMD1IhKXBxU68QKghVcD88YTB/OTBQEiv5r+ewITBaj/0QKU9TL8baW7BVrq3QCxoxb/ElGHB
G7SxQEDfDb+aEZnBVabiQPaytb+sqYzBVcEIQZAuF755uk3BQJDQQF4Wl7/GF1DBQc4zQeNWET+T
q7TBpcJaQKAVlMCF86nBjgUHQLiEasA435rBMb27QIz7n8BOBajB9yMXQQ9Owr9hU5TBafhPQHMl
RcB40YnBZUngQCaKjcAU8JbBOVs0QVQobL8e/KDBOhoGQV+nQD8mwrbBD8PAQAT3Hz8nk7LBoWq6
QL3Qjb/VIq/BItmZQC+PA0A5JpnBmwnQQKUf+T843J3Bxc6lQI+oGEBx9KbBnMRHQIxspz4Tt57B
ZLBfQG5cJz9rhqzBdrZmQEKggr/AZKfBuL2oQF0oacC5JHzB7eHbQOAIdMBofYTBEi6jQD6Tqb+d
uYbBMH2ZQJcV77+1EWHBJdGZQLDSWL/JSZTB2LgAQQZ5w79GqorB0t2BQOg9i8BcZKPButitQMxr
ksCmo6HBUJ5QQEQ3c8BnN5vBIBITQbncg78fsJvBxjzAQFBSiMBkrJfB4Ux1QFPJXsDYQpHBAXIj
QdhCIb8Cs6LB8MsIQXYaTT5iWK/Bfv36QPfJSr/be57BgOfwQOcskb5Br6jBVn+mQH2PbsCebI/B
MUoeQWikQj3SPazBZDfYQJpjcb/6npbBFAvQQF7csb8MhXPB2Mj1QF7oHr/XqFjBwnnCQH13bL5r
GazBnOenQCk/lz7bmKLBbsayQKKJ5D/Dj6DBld5vQO4gKz5gJqXBPDG6QHwuVcCv24TBjvnAQAqQ
57/wmITBQjX1QKJvXb9rhG7BHMS3QGUXvr9QJmHBVkyxQFzOA78v2ZjBNL3hQAQQub/+kozBrbsJ
QXSlDL6Zg07B/urPQPlqgL+kIFDBJo8yQUK+Lz+TT7TBo3VnQMBFk8AoBKvB2G3BQPWqn8D28KfB
UlQNQBnhZ8DBl5zB7vIWQUMNwr8gOJTBEfnhQAuZjcDpVpbBjVdOQKsHQ8A9BovB9fIzQSpcV7+x
xqDBFuQEQXbXLz+vzrbBJ+y+QMOx4z6U/LLBsHq3QAOAnr9BUq7Bq8WfQIAaCkCZx5nBIgvVQDgB
8T8btZ7BszyrQEzsF0AYwafB1yFKQLAVCz+eW57BMNNgQDF8QT+FV6zB4gVgQBvBY78tlKbBsLKk
QMP9Z8CJmHzBTDDZQP2mdcB45oPBAJSiQP1Ep7/7eobBNeiZQMuI678uO2DBhVyZQCB0Pb+e2pPB
n0IAQbXdyL+Qn4rB

> <OMEGA_E>
gPouPjBKMD4gvKY+dPqmPvCHqT7Emqo+KGzoPvB/8T4=

> <OMEGA_NBR>
     31153

$$$$
50225000
  -OEChem-04172616093D

 58 62  0     1  0  0  0  0  0999 V2000
    3.7546   -4.4941  -20.1212 C   0  0  0  0  0  0  0  0  0  0  0  0
    3.0209   -3.9232  -19.0619 C   0  0  0  0  0  0  0  0  0  0  0  0
    5.1376   -4.7287  -19.9815 C   0  0  0  0  0  0  0  0  0  0  0  0
    9.1890   -1.2306  -19.4622 C   0  0  0  0  0  0  0  0  0  0  0  0
    3.6691   -3.5926  -17.8599 C   0  0  0  0  0  0  0  0  0  0  0  0
    5.7868   -4.4035  -18.7778 C   0  0  0  0  0  0  0  0  0  0  0  0
   10.2549   -0.9816  -20.3411 C   0  0  0  0  0  0  0  0  0  0  0  0
    9.4029    0.6435  -14.1987 C   0  0  0  0  0  0  0  0  0  0  0  0
    8.8231    0.4873  -21.6650 C   0  0  0  0  0  0  0  0  0  0  0  0
    9.8868    1.1712  -12.9844 C   0  0  0  0  0  0  0  0  0  0  0  0
    8.1581    0.1444  -11.7647 C   0  0  0  0  0  0  0  0  0  0  0  0
    7.9301   -0.6236  -19.6884 C   0  0  0  0  0  0  0  0  0  0  0  0
    7.6138   -0.4001  -12.9440 C   0  0  0  0  0  0  0  0  0  0  0  0
    7.7443    0.2205  -20.8032 C   0  0  0  0  0  0  0  0  0  0  0  0
    5.0477   -3.8504  -17.7118 C   0  0  0  0  0  0  0  0  0  0  0  0
    8.2489   -0.1527  -14.1765 C   0  0  0  0  0  0  0  0  0  0  0  0
   10.0727   -0.1187  -21.4379 C   0  0  0  0  0  0  0  0  0  0  0  0
    6.3710   -1.1821  -12.9485 C   0  0  0  0  0  0  0  0  0  0  0  0
    6.8062   -0.8620  -18.7738 C   0  0  0  0  0  0  0  0  0  0  0  0
    6.5888   -1.3423  -15.3410 C   0  0  0  0  0  0  0  0  0  0  0  0
    6.4204    0.9318  -21.0075 C   0  0  0  0  0  0  0  0  0  0  0  0
    5.2420    0.1706  -20.3367 C   0  0  0  0  0  0  0  0  0  0  0  0
    4.0652    1.1445  -20.1480 C   0  0  0  0  0  0  0  0  0  0  0  0
    4.7782   -1.0221  -21.2057 C   0  0  0  0  0  0  0  0  0  0  0  0
    5.7500   -3.3948  -16.4666 C   0  0  0  0  0  0  0  0  0  0  0  0
    6.0246   -1.8913  -16.6075 C   0  0  2  0  0  0  0  0  0  0  0  0
    9.2710    0.9160  -11.8015 N   0  0  0  0  0  0  0  0  0  0  0  0
    7.7267   -0.6649  -15.3591 N   0  0  0  0  0  0  0  0  0  0  0  0
    5.8717   -1.5722  -14.1663 N   0  0  0  0  0  0  0  0  0  0  0  0
    5.6270   -0.3284  -18.9962 N   0  3  0  0  0  0  0  0  0  0  0  0
    7.0040   -1.6921  -17.6902 N   0  0  0  0  0  0  0  0  0  0  0  0
    5.7677   -1.4634  -11.9215 O   0  0  0  0  0  0  0  0  0  0  0  0
   11.4004    0.2096  -22.5158 Cl  0  0  0  0  0  0  0  0  0  0  0  0
    3.2554   -4.7528  -21.0433 H   0  0  0  0  0  0  0  0  0  0  0  0
    1.9624   -3.7402  -19.1738 H   0  0  0  0  0  0  0  0  0  0  0  0
    5.6981   -5.1580  -20.7988 H   0  0  0  0  0  0  0  0  0  0  0  0
    9.3291   -1.8845  -18.6142 H   0  0  0  0  0  0  0  0  0  0  0  0
    3.1129   -3.1421  -17.0512 H   0  0  0  0  0  0  0  0  0  0  0  0
    6.8474   -4.5766  -18.6699 H   0  0  0  0  0  0  0  0  0  0  0  0
   11.2132   -1.4515  -20.1759 H   0  0  0  0  0  0  0  0  0  0  0  0
    9.9117    0.8486  -15.1290 H   0  0  0  0  0  0  0  0  0  0  0  0
    8.6925    1.1576  -22.5016 H   0  0  0  0  0  0  0  0  0  0  0  0
   10.7692    1.7939  -12.9952 H   0  0  0  0  0  0  0  0  0  0  0  0
    7.6810   -0.0561  -10.8168 H   0  0  0  0  0  0  0  0  0  0  0  0
    6.4872    1.9392  -20.5708 H   0  0  0  0  0  0  0  0  0  0  0  0
    6.2231    1.0122  -22.0866 H   0  0  0  0  0  0  0  0  0  0  0  0
    3.2245    0.6170  -19.6738 H   0  0  0  0  0  0  0  0  0  0  0  0
    4.3810    1.9813  -19.5076 H   0  0  0  0  0  0  0  0  0  0  0  0
    3.7491    1.5316  -21.1279 H   0  0  0  0  0  0  0  0  0  0  0  0
    3.9458   -1.5390  -20.7057 H   0  0  0  0  0  0  0  0  0  0  0  0
    4.4440   -0.6528  -22.1866 H   0  0  0  0  0  0  0  0  0  0  0  0
    5.6150   -1.7226  -21.3433 H   0  0  0  0  0  0  0  0  0  0  0  0
    5.1129   -3.5784  -15.5889 H   0  0  0  0  0  0  0  0  0  0  0  0
    6.6988   -3.9395  -16.3513 H   0  0  0  0  0  0  0  0  0  0  0  0
    5.0848   -1.3739  -16.8506 H   0  0  0  0  0  0  0  0  0  0  0  0
    4.9824   -2.0271  -14.2122 H   0  0  0  0  0  0  0  0  0  0  0  0
    4.9735   -0.2573  -18.2426 H   0  0  0  0  0  0  0  0  0  0  0  0
    7.8686   -2.1915  -17.6359 H   0  0  0  0  0  0  0  0  0  0  0  0
  1  2  1  0  0  0  0
  1  3  2  0  0  0  0
  2  5  2  0  0  0  0
  3  6  1  0  0  0  0
  4  7  2  0  0  0  0
  4 12  1  0  0  0  0
  5 15  1  0  0  0  0
  6 15  2  0  0  0  0
  7 17  1  0  0  0  0
  8 10  2  0  0  0  0
  8 16  1  0  0  0  0
  9 14  1  0  0  0  0
  9 17  2  0  0  0  0
 10 27  1  0  0  0  0
 11 13  1  0  0  0  0
 11 27  2  0  0  0  0
 12 14  2  0  0  0  0
 12 19  1  0  0  0  0
 13 16  2  0  0  0  0
 13 18  1  0  0  0  0
 14 21  1  0  0  0  0
 15 25  1  0  0  0  0
 16 28  1  0  0  0  0
 17 33  1  0  0  0  0
 18 29  1  0  0  0  0
 18 32  2  0  0  0  0
 19 30  2  0  0  0  0
 19 31  1  0  0  0  0
 20 26  1  0  0  0  0
 20 28  2  0  0  0  0
 20 29  1  0  0  0  0
 21 22  1  0  0  0  0
 22 23  1  0  0  0  0
 22 24  1  0  0  0  0
 22 30  1  0  0  0  0
 25 26  1  0  0  0  0
 26 31  1  0  0  0  0
  1 34  1  0  0  0  0
  2 35  1  0  0  0  0
  3 36  1  0  0  0  0
  4 37  1  0  0  0  0
  5 38  1  0  0  0  0
  6 39  1  0  0  0  0
  7 40  1  0  0  0  0
  8 41  1  0  0  0  0
  9 42  1  0  0  0  0
 10 43  1  0  0  0  0
 11 44  1  0  0  0  0
 21 45  1  0  0  0  0
 21 46  1  0  0  0  0
 23 47  1  0  0  0  0
 23 48  1  0  0  0  0
 23 49  1  0  0  0  0
 24 50  1  0  0  0  0
 24 51  1  0  0  0  0
 24 52  1  0  0  0  0
 25 53  1  0  0  0  0
 25 54  1  0  0  0  0
 26 55  1  0  0  0  0
 29 56  1  0  0  0  0
 30 57  1  0  0  0  0
 31 58  1  0  0  0  0
M  CHG  1  30   1
M  END
> <OMEGA_C>
3kpwQKXPj8Aj+KDB1lVBQN8Ve8DDfpjBhWekQI5Rl8Ao2p/BCQYTQQiEnb+GspvBqtJqQBLtZcAI
4Y7Bky25QK7pjMAIOZbBNxQkQVNNe7+TuqLBcHIWQQK7JD/cLWPBcCsNQdx7+T7nUa3BfzAeQRLr
lT/uv0/BhocCQdXjEz5GPDzBJcP9QEemH7/ugZ3BHqTzQHrczL7PGk/BD9H3QNjJYT7tbKbBvoah
QFlsdsDOsY3BoPsDQZRTHL7m0mLB1SkhQVQR873egKvB6t7LQIRNl78BLU/BFczZQO2rXL+rMJbB
n9fSQDTRq7+TdHXBJnTNQD2Hbj9KD6jBW76nQCy4Lj6FsaLBGRaCQIJ+kj8fL6HBn+aYQNbSgr9f
panBWwC4QM1EWcCYu4PBaMnAQKIU8r8Z3ITBNFYUQUSBaj/Q0jzBdUH3QFg3Kr/xvnXB7uS7QAI+
yb9bqWLBoRC0QHYoqL4x+JfBZyDgQGKW2L+XhY3BN5G4QFZPu79Zvj7BImg2QfCgVj51ILTBnFhQ
QPUWmMClWKjBfi/7P2xfb8AKZJnBvFa2QGwOpcABZKbBCkQVQRc48b/J6ZTBBzlHQMMXScDKaIjB
qx3bQMVzksD5W5XBX2kzQerLub9HaKHBZJYeQfc9WT9lEHLBZxQLQUktlD9UA7TBkE4sQcCf5T9X
7E/BFsv1QCf8Zb1/ES3BKZfPQIc2+D8JkaTBfSPHQBaQgT9nsbDBml1OQCvzHT/aY53B7DCMQHua
/T+nD5zBUPFvQOwMxD/yBanBM4h8QIv8xL9QpaXBazWOQBMfJ78afrHB1K2zQEh/3L8pv6rBy5yj
QDwFZcA4bHnBZlzWQPUffMCQz4LBlLaiQCHbr7/3zYbBdG+fQLW8AcBEZWPBxCafQO7Bg77y8JHB
y8v7QChBDMBFFo3BJz1mQMCHjcC8Wp/BUn+fQIBqlcBW75/BRe9BQB/aeMBo95XBC4QSQWZwob/b
vp3B6ty5QOg3jMA7IJfBEVh2QH9ZZ8AOHo3BgAMiQeJRh79+sKXBn9wVQRQWfj7nnlrBWqgKQe4L
Ej/sda7BBUIbQXghID8QkkXBymf2QEB2hb7X7zfBeNf9QIidDr88Op7BzH/pQNCAJr+9jkzBprD1
QESxrj5VrabB5omnQH+5d8AnsY3B1lgCQQgZz77uIl7B9RceQRhQEb4JBa7BMA/AQOgspb9rjFDB
xj3cQPyZS78KS5bB3nLTQAZFsb9Hj3XBKNXKQKhwhz8pLafBeDmnQNzVFz6Ja6LBNMh7QNMcdj9s
z6DBKp+dQIJfh79K2KnBdITDQCljXMDzooTBqrLGQNr+9L8/QoXBkyIOQdi7uj7MwzTBxEn5QMj/
Ur+RkHLBwLK1QPYxyL/HSGXBniG1QIzYsr6J1ZfBFhLmQKB5xr+4bo3BqjynQP7/y78GNkLBsTox
QSAlsj3M9rfB5OY9QAuklMBFJKbBQTitQDKIosCpJ6fBJR/8P0YnbMD2lJXBMogVQWgF+r9ASZfB
yfDbQHKpkcCUl5fBSdxaQNBoTcAb4oXBie4wQSbzzL8ja6XBzY4gQW556j5OxWfBBuwHQR4hpT+0
wbTBODkqQSFYkT/yu0LBVNHhQMUi7b7mcCrBCq7MQEjX/j8eiaLB1CLDQEFjpT+Xjq/B5cVJQBlc
nz5hcp3BzCKEQDqp5T8TR5vBEztmQMoWrj+MjqjB716EQEzl1r9KQabB2N6SQNm/ML9RsbHB59G6
QH5U1L8h26rBxUa1QDDOb8Bi7XnBS3bjQEFBecDIb4XBQSWnQHRtwb/hdIfB6F2YQMjY8r+a0WjB
1GqgQEpysb6DvJHBBBsCQeoB778RiYzBiYJvQMkZi8DgpqDB2VijQCZFlsC00J/Bus5FQEnTbMA1
GpjBt2ETQTAIgb8RKpzB4TG6QBbLjMDca5bBuh1zQKeOWsDRrI7Bp5EjQVx7H7++UKPBLugYQSo8
ez6TKl3BHN4IQXM40z6a8q7BpuofQSPHJT/HtkjBA4AAQU8YI77EjDjB9bj7QLQxLL+JZZ7B+vvw
QAuIE78MgkzBGCLxQEJfl7xJBajBExSlQBWiccC3zo3Bi+UEQQCtwL4/E1/BzlweQfhe9j1bhqzB
mr/GQHufmb9RzU7BE67ZQE8KbL8LjpbBb7nUQFw7rb8Ch3TB7V7CQKf3JT6l7KrBCamoQJ8xAj9L
u6DByYyzQHTK+D/f/pzBA9dwQBcN0z56DqPB9J69QPO2V8CDCYTBpbDEQNxf7b9RqITB4dkTQSm9
4T798zbBAQr7QGymTL/I9nLBUo25QFp3wr9BDWPBNLuyQGSW677DGZjBt9/jQJ6Wyb/CLo3BwqWv
QIwFub+vfD/BEJQyQVWcJz8CGLXB0Y9MQNdvksCA4KfBFjCzQKIcpsDkZKbBUjMDQNM2W8AmzJjB
UFgXQYlgx7/V/pTBKbvbQHnHlMDmz5XBtWZTQGbkOsDrGIjBNP4zQcR2Zb+zwaHB0MQiQQ170z6N
GWvBKu0EQUI8dz8CGrbBn0YvQdv0kD8wIkfB0STuQGQDpL65TCrBRDO/QJuHej9rxLDBqvS1QIsU
Rb+xa67BrB2hQHuXC0BTvpXB5/bVQNbDAEC+OpvBT1KrQAMnKkDuW6PBLZ5MQCTpKD99xpvBxeFf
QJM+jz8CdanBTQRhQM59HL9amqXBIEGrQO28Z8C0mnnBW6DcQE4BecBx1oPBvQumQIobr79DjobB
4wKcQEkp8L+aVWXBICibQCyxRb80TZPBmw0BQU71779VH4zBReZ3QAm5i8DhEqHBEiNNQGlSeMAh
8pfBgKSoQCzikcDh46DB3mMTQdO9bL/BrZzBQ697QEI3ZsBCmo7BLAbAQN+uiMBLjpfBBswiQYBb
E7+lW6TBDuAYQY8kgb7HRFfB6JMGQfwHej78MrDBzZgeQQCUwDgF0UHBc8b3QKm//76cwzXBFQ77
QBa0LL+CxJ7BczvqQPASQ78H0krBYTTuQFpMK75hwqjBQ36qQJOEc8CWYI7BG9YDQVFdJb+w1FvB
aWscQUb6Tz2T763Bt0++QKCClr+9v0/B6mPaQHv2X7/ehpbBZxDUQJ83sL94a3TBfue+QLalCL6+
dKvBrZClQB84pj6SgKHB4mitQKkn6j+Mdp/B+eJqQEtRpz3pO6PBhVHDQLvLWMBDqoTBzuHGQPu+
7b8D2oTB9UoQQYosBL4YmTHBbb77QG4ie78ipHDBlLS0QAVVuL98qGTBF9WyQHkU677K/ZfBsBvm
QLEEu79TAI3Bf9GiQMmyp78b+kHBJpMvQfaMCj/xPLfBkxVUQO31ksAKPajBXL8IQA9pbsC6IZjB
Gey4QGurncA966fBBDUYQffMsL9hOpXB4idbQFQjTsAzmYfBI07iQCEIjcDsa5fBDYAzQWplSb9A
7aLB4nwkQWqVE76R8mPBQcABQSz1ND+qn7fBU8cuQdejmz4rMj7BLkbhQKxUGL/YvCjBuly5QNA1
Ej8AErLB60G0QI23kb/i2K3BikabQFCCCUDFXZjBzr/PQB0oAEAEHZ7BncuiQMkdGkDedabBLj9H
QDoQ0j5kHZzB6xFVQN7WJj+2P6rBEYZfQD+jfb9ZlKTBvoCyQB+GbcA1w3rBFHDjQOaOdcB+2oTB
5VunQE8AuL833YbBM7iWQDBX1799rmjBFdScQMNhLr8KdpLBiJYCQTW7z79xlovBX0VzQIqKiMDu
xaPBq3w9QAOobsAjzJvBWrilQLLHjcDbxKHB7vsSQYHIkb8t9prB8ZFfQEL/V8CXv5HBiMO2QLOg
gsBRuJfBbV4kQeqWW7/kx6HBHzICQYLwN8ByLkbBN2QNQcirED9cvKzBDdMKQY29H8DvOTLBwPkA
QUM8gb4pmDfBGUn9QPh/Er8ED53BqgzwQOFAEL80v0vBisD3QFquiT5UCabBjrmbQNWhZMAioI/B
CD/xQPaM8r+SIFPBNJQhQTAmkbs0pqrBK+HbQF+/5j4ojlnBu/7XQMsNWb8LFJbBig7NQPm/qb8z
B3PB4ZfMQMFQbT/f6qfB8aWnQPC57bsTMqTB8UZ7QHTxTT94gaPBQWGhQD+tlb9kPKzByjKuQFcr
TcD7zITBFo27QMlD27+aVoTBYh4KQXAEm7/FRSvBDbrfQPydD8D08GbBPvnKQEgXxDwc4WzB3++w
QIgTDr+tU5nB4GPeQHcdt7+3FYzBf9DZQFfH0D9+X1TBNSs3Qfcktj6hCbPBWeJYQDu3kcAdbKvB
4k30PzynZcAaZJ3BeWi6QMVWmsDT76fBQywVQf6w5L+XIpTBcoA2QOH7PMCfrIvBKI7YQLKLhsAW
MpbBANgzQdDypb8JNqDB/PACQYK6ecCnbUvB0FQLQR5TnT/DeLPBGS0SQUjZT8A4OyjBDIcAQW9W
RD8v5zHB1RvLQC0v7z8oYqPBjNzIQNvEkT+TgLDBtPBGQM7GFT5Q4KDByZOBQOf6zz8Kup3B4PJr
QFQznD+VbKvBKi+HQM3D6L9fe6nB5muZQCR5Qr8fKLTBBBe/QKqt4L9GyKzBgPGVQOtCWcDJNX3B
uX7KQJoydcCiQ4PB+IafQPVsi7+RMobBkA69QAQWMD/0nHbBbIWYQLvFNL+LTJTBmkr8QCY41r9f
AIrB

> <OMEGA_E>
2PDpPjBC+j5KoRI/yOsZP9ajRD8=

> <OMEGA_NBR>
     36206

$$$$
50224999
  -OEChem-04172616093D

 59 63  0     1  0  0  0  0  0999 V2000
    3.7434   -4.4704  -20.1210 C   0  0  0  0  0  0  0  0  0  0  0  0
    9.3264    0.9180  -11.8082 C   0  0  0  0  0  0  0  0  0  0  0  0
    3.0143   -3.8930  -19.0621 C   0  0  0  0  0  0  0  0  0  0  0  0
    5.1226   -4.7246  -19.9776 C   0  0  0  0  0  0  0  0  0  0  0  0
    9.9263    1.2119  -13.0510 C   0  0  0  0  0  0  0  0  0  0  0  0
    8.1800    0.1017  -11.7475 C   0  0  0  0  0  0  0  0  0  0  0  0
    9.1876   -1.2355  -19.4679 C   0  0  0  0  0  0  0  0  0  0  0  0
    3.6643   -3.5720  -17.8584 C   0  0  0  0  0  0  0  0  0  0  0  0
    5.7735   -4.4094  -18.7719 C   0  0  0  0  0  0  0  0  0  0  0  0
    9.3938    0.6728  -14.2372 C   0  0  0  0  0  0  0  0  0  0  0  0
   10.2559   -0.9757  -20.3414 C   0  0  0  0  0  0  0  0  0  0  0  0
    8.8257    0.5047  -21.6542 C   0  0  0  0  0  0  0  0  0  0  0  0
    7.9298   -0.6245  -19.6888 C   0  0  0  0  0  0  0  0  0  0  0  0
    7.6288   -0.4143  -12.9369 C   0  0  0  0  0  0  0  0  0  0  0  0
    7.7449    0.2272  -20.7984 C   0  0  0  0  0  0  0  0  0  0  0  0
    5.0396   -3.8453  -17.7078 C   0  0  0  0  0  0  0  0  0  0  0  0
    8.2481   -0.1421  -14.1797 C   0  0  0  0  0  0  0  0  0  0  0  0
   10.0767   -0.0984  -21.4275 C   0  0  0  0  0  0  0  0  0  0  0  0
    6.3811   -1.1930  -12.9435 C   0  0  0  0  0  0  0  0  0  0  0  0
    6.8057   -0.8619  -18.7724 C   0  0  0  0  0  0  0  0  0  0  0  0
    6.5842   -1.3371  -15.3371 C   0  0  0  0  0  0  0  0  0  0  0  0
    6.4191    0.9354  -21.0013 C   0  0  0  0  0  0  0  0  0  0  0  0
    5.2443    0.1585  -20.3434 C   0  0  0  0  0  0  0  0  0  0  0  0
    4.0486    1.1125  -20.1723 C   0  0  0  0  0  0  0  0  0  0  0  0
    4.8112   -1.0440  -21.2157 C   0  0  0  0  0  0  0  0  0  0  0  0
    5.7452   -3.3915  -16.4632 C   0  0  0  0  0  0  0  0  0  0  0  0
    6.0213   -1.8876  -16.6040 C   0  0  2  0  0  0  0  0  0  0  0  0
    7.7186   -0.6557  -15.3584 N   0  0  0  0  0  0  0  0  0  0  0  0
    5.8706   -1.5674  -14.1616 N   0  0  0  0  0  0  0  0  0  0  0  0
    5.6264   -0.3289  -18.9973 N   0  3  0  0  0  0  0  0  0  0  0  0
    7.0027   -1.6899  -17.6868 N   0  0  0  0  0  0  0  0  0  0  0  0
    5.7786   -1.4794  -11.9173 O   0  0  0  0  0  0  0  0  0  0  0  0
   11.4121    0.2597  -22.4866 Cl  0  0  0  0  0  0  0  0  0  0  0  0
    3.2437   -4.7190  -21.0456 H   0  0  0  0  0  0  0  0  0  0  0  0
    9.7481    1.3208  -10.8992 H   0  0  0  0  0  0  0  0  0  0  0  0
    1.9582   -3.6976  -19.1757 H   0  0  0  0  0  0  0  0  0  0  0  0
    5.6791   -5.1614  -20.7937 H   0  0  0  0  0  0  0  0  0  0  0  0
   10.7955    1.8515  -13.0921 H   0  0  0  0  0  0  0  0  0  0  0  0
    7.7262   -0.1273  -10.7946 H   0  0  0  0  0  0  0  0  0  0  0  0
    9.3254   -1.9008  -18.6284 H   0  0  0  0  0  0  0  0  0  0  0  0
    3.1115   -3.1168  -17.0499 H   0  0  0  0  0  0  0  0  0  0  0  0
    6.8310   -4.5985  -18.6610 H   0  0  0  0  0  0  0  0  0  0  0  0
    9.8624    0.8836  -15.1872 H   0  0  0  0  0  0  0  0  0  0  0  0
   11.2136   -1.4482  -20.1802 H   0  0  0  0  0  0  0  0  0  0  0  0
    8.6955    1.1811  -22.4860 H   0  0  0  0  0  0  0  0  0  0  0  0
    6.4785    1.9381  -20.5528 H   0  0  0  0  0  0  0  0  0  0  0  0
    6.2256    1.0272  -22.0802 H   0  0  0  0  0  0  0  0  0  0  0  0
    3.2111    0.5719  -19.7072 H   0  0  0  0  0  0  0  0  0  0  0  0
    4.3418    1.9563  -19.5305 H   0  0  0  0  0  0  0  0  0  0  0  0
    3.7382    1.4915  -21.1572 H   0  0  0  0  0  0  0  0  0  0  0  0
    3.9805   -1.5729  -20.7255 H   0  0  0  0  0  0  0  0  0  0  0  0
    4.4845   -0.6827  -22.2019 H   0  0  0  0  0  0  0  0  0  0  0  0
    5.6609   -1.7315  -21.3400 H   0  0  0  0  0  0  0  0  0  0  0  0
    5.1096   -3.5749  -15.5844 H   0  0  0  0  0  0  0  0  0  0  0  0
    6.6935   -3.9374  -16.3502 H   0  0  0  0  0  0  0  0  0  0  0  0
    5.0822   -1.3698  -16.8490 H   0  0  0  0  0  0  0  0  0  0  0  0
    4.9755   -2.0111  -14.2064 H   0  0  0  0  0  0  0  0  0  0  0  0
    4.9729   -0.2504  -18.2445 H   0  0  0  0  0  0  0  0  0  0  0  0
    7.8676   -2.1887  -17.6303 H   0  0  0  0  0  0  0  0  0  0  0  0
  1  3  1  0  0  0  0
  1  4  2  0  0  0  0
  2  5  1  0  0  0  0
  2  6  2  0  0  0  0
  3  8  2  0  0  0  0
  4  9  1  0  0  0  0
  5 10  2  0  0  0  0
  6 14  1  0  0  0  0
  7 11  2  0  0  0  0
  7 13  1  0  0  0  0
  8 16  1  0  0  0  0
  9 16  2  0  0  0  0
 10 17  1  0  0  0  0
 11 18  1  0  0  0  0
 12 15  1  0  0  0  0
 12 18  2  0  0  0  0
 13 15  2  0  0  0  0
 13 20  1  0  0  0  0
 14 17  2  0  0  0  0
 14 19  1  0  0  0  0
 15 22  1  0  0  0  0
 16 26  1  0  0  0  0
 17 28  1  0  0  0  0
 18 33  1  0  0  0  0
 19 29  1  0  0  0  0
 19 32  2  0  0  0  0
 20 30  2  0  0  0  0
 20 31  1  0  0  0  0
 21 27  1  0  0  0  0
 21 28  2  0  0  0  0
 21 29  1  0  0  0  0
 22 23  1  0  0  0  0
 23 24  1  0  0  0  0
 23 25  1  0  0  0  0
 23 30  1  0  0  0  0
 26 27  1  0  0  0  0
 27 31  1  0  0  0  0
  1 34  1  0  0  0  0
  2 35  1  0  0  0  0
  3 36  1  0  0  0  0
  4 37  1  0  0  0  0
  5 38  1  0  0  0  0
  6 39  1  0  0  0  0
  7 40  1  0  0  0  0
  8 41  1  0  0  0  0
  9 42  1  0  0  0  0
 10 43  1  0  0  0  0
 11 44  1  0  0  0  0
 12 45  1  0  0  0  0
 22 46  1  0  0  0  0
 22 47  1  0  0  0  0
 24 48  1  0  0  0  0
 24 49  1  0  0  0  0
 24 50  1  0  0  0  0
 25 51  1  0  0  0  0
 25 52  1  0  0  0  0
 25 53  1  0  0  0  0
 26 54  1  0  0  0  0
 26 55  1  0  0  0  0
 27 56  1  0  0  0  0
 29 57  1  0  0  0  0
 30 58  1  0  0  0  0
 31 59  1  0  0  0  0
M  CHG  1  30   1
M  END
> <OMEGA_C>
YpNvQB0Nj8C896DByDgVQfMCaz9s7jzBWOpAQDQmecBIf5jBZuyjQB8wl8At0p/BEdIeQa4emz+1
0FDBIeECQc5H0D2Y9TvBmgATQcAlnr84vpvBJoNqQHmbZMAW3o7BKcC4QOkZjcDaLJbB7EwWQTM6
LD/Cy2PBWBgkQc/Feb9Cu6LBFDYNQZYyAT/XO63BmsD9QP3bH7+tgp3Bwh70QF4a1L60/U7Bftb3
QI6faD4sY6bBykShQFoZdsCjqY3BNfgDQfiMEb4h4GLBIDohQYiAyb2ba6vB1jHMQIKzmL+xGE/B
/cfZQK+kXL/pLZbBmbHSQJAkq7+4ZHXB+GjNQIV2bz+aAqjBJ9GnQNBEIj5Sv6LB4o2BQLhljj/z
YKHBTPWZQDijhb+tuanBudi3QLEOWcC8tIPBfa7AQOyc8b//1ITBkv72QL3bJ78uvHXBHty7QDih
yL/glWLBdQu0QCZnqL6H+pfBRBbgQABP2L93fo3BV+q4QFRdvb84rT7BFpg2Qcv5hD6S5LPBdphP
QLABl8BWXajBIPgbQW4RqT8mYy7BjKb6PwWlbMDFZ5nBz7q1QCMqpcCGWabBdLosQU3+7D9heVHB
5Tz3QBpgAr57tizB5TQVQZNO87/lBpXBJyNHQB55R8BMZojBZZfaQN8mk8DMSZXBYMwdQSg1Yj+b
/nLB+mozQTleub8WcaHB0yALQeculz9a47PBwk/PQAET+D8ubKTBEjjHQIR6gz9OpLDB4oJNQAhl
Ej9DqJ3BM/CKQLpn+j9rPpzBZz9vQB/qvj8GQqnBY8B+QKFUyb/XzaXBbYGPQIjDLr+LnbHBtCW1
QE6i3b9VuKrBiYGjQJDLZMDUWXnBKDHWQAf+e8BAzYLBqaGiQL5Vr7/TyobBrTefQJK1AMBjTWPB
KSKfQDI6gL6o9JHBiMP7QDMTDMDmCo3BCrFnQJxnjcAeS6DBweUUQSBCfD5QQDbB2tqfQJNDl8DX
6J/Bdg5AQNsVccBLnZfBx1shQRYz8z70tkjB+1UAQduQor5ICDjBep8TQVufj7/NeJzB4Q24QL+x
jMA6zJbBWDBwQAdWXMBLfI7BQFcZQXH5CD4PDl3BawUkQXI+Xb9B3qPBO4gLQTSLAT8da67BoRD+
QERMEb8nEp7BIIPwQIx2J7+2XkzB19P1QDDgZT5kLafB1/ajQIFyccBCB47BUNEEQVMN3r4X5l7B
ev8fQRjINL3Hy6zBHsTFQF/jnr/NHE/BWW7bQA7WT7/qYJbBtwvUQP7krL/b3HTBfUDKQFbzXD+y
tajB6VmmQKBakz3s4KLBxPR+QPIgfz/uUKHBaXCYQNkXlb9UbanBtZ29QCZAV8AUboTBm23EQIfm
679d8ITBk5P6QH6vUL9D+3LBbJm4QL/swr89hmPBFo+0QDPoub6jIpjBHS3kQDk9xr+yT43BaGau
QH7YwL88+z/BtmY0QRzslD5J5rXBwodCQKfflcCYQ6fBrigbQVZFAT+prybBofyuQLbwpsC/nabB
i775P8YbYcAF+5fBJRYxQcKvaT9ZP0fB2p7tQI1j+7564inBhrcWQRYO379nkpXBMNnZQLLYk8BG
hpbBGRRSQBFBPMB00ofBL+ciQcocnT7XLWvBBLMzQWG1pb9ZtaLBHZYIQWWIkj9QOrXBTy3LQKee
8T/2g6XBG+vCQJkdZT8YULHBjLBLQPqc5D4vMZ3BAOyIQLzu7j8depzBj8RnQDxAqz/kKanBsSF+
QLPu2b+PGqXBuUuMQKgzV7/pRLHBMg+0QMJu6r+CkqrBWjGsQDAFaMA1J3rBQL/cQFgaeMA6gITB
WtOlQG3Lrb8S5obBj9maQGmr7b9ZA2bB4/GfQMW+oL5tB5LBnewAQXq887+0XozBVj9uQLpVjMB3
qZ/BBrgQQQIBnj5yejTB6YhGQMBfd8BhcJbBWZWjQA4PlMDMxZ/BQpodQaUVHT9KXUbB19L5QHSL
rL6rNTfB4JgTQVGHgr+jgpzBqMd3QNjVZcCUT43Btle8QO/+isC0q5bBpNYWQd6mhT5ZF1vBPIYj
QboSLr+G8KPBBIQIQXkdqz5+g6/BeSP8QAwHLL/Rl57BswvsQP5mLb8z60vB5eLwQMBgjb3WWqjB
SFuoQP6JdcD0bo3BrhYDQXK9xr5Z3l3BixEeQeBRKT0BOa3BHGPCQGsBqL/VrU/BmrHaQJ7SYb9n
kpbBDnPTQLPzqb/u93TB9fXBQPjbHz1DTKvBiXynQPJx1j79TKHBU7muQBQQ9D/viZ7BukJvQOSV
ND5xeqPBzcTCQDAHWcA0J4TBLSPGQN8/7r+b6YTBWHr5QLCaRr9FRXLBY4e2QBUqw7/7Y2TB26az
QDam2L7GBZjBjWvlQA+Fwr+mMo3BhNCqQPWc1r+YLEHBUAYyQew4Cj/2EbbBCWZIQKY3k8AMr6bB
RxgWQQCAEj9gmyTBI3YCQGtla8DzZJbBX5myQLbxoMBB26bBN7UsQadIjz97JETB6yPmQBrKEb96
gCnBgsEXQR2Wxb8lP5XBC7RZQN1jTMAvNobBEHjeQPdwkMDnwpbB68EgQYrG+T59xGjBzO0zQb+P
eL+uiqLBDF0EQZPFXT9vvbbBf+a9QMkxUD9Nd7HBhby2QKeGbb8Wa67B29GbQD71CkBpbJfB8N/Q
QLzzBECG5pzBSqSkQGoKIkChU6XBd95JQFRU5T58WJzB2aBaQBIsSz9ISqrBVOBkQHfMYr+2W6XB
xDuzQJiCa8BCNHnBfc7iQCECdsB0j4TBg5mmQEciur+ZEofBULmYQEub6b9DrmfBNjGdQCoHJ7+d
oJLBpQoCQeGD4b/d+ovB8G4IQUUoscBucIXBqasbQejaoD21DznB4vz7QNL+psDMjHfBYVL/QAMG
pMCkTI/BFhknQbgxRD5pcUzBjlcGQSghwb7KGDnBXFkSQcBJnr9eHZzB1l7WQNp1jsDw4HfBO1/Z
QP7ji8Dre4/BFywdQZDyE76S81/BU/siQY79g78UgqPBhSIMQXij+j6ruK3BueX8QOA+F79+qJ3B
IOD4QJSoOL+8mkzBmX32QDKZgT4CjKbB7K/FQGjLf8DKwYXBLtcHQbCKGb/5BWDBweMfQZAXJ77y
QqzBOXPMQEo2mr8qmE3BJwfZQPjcSr9dRJbB/pDTQCgDqb+r53PBHkzLQAaybj+ND6jBmO2mQOB6
Kj26a6PBkDV6QIr4Vz+CeqLBjTafQNE/nL8YWarBQ2OlQFBrOMCQroXBXqO9QIAZxL/di4TBZeb7
QBi9Zr+dZHPBx1O7QLwtvb+fZGHBP3GyQFDxv74glpjBuGXfQJiNtr8MxIzBq4y2QPBWrb9Tiz3B
yIw0QYDr0z2LXrXBNDUXQT4Sw8D1SoXB/UwjQUxGrz6LJCrBUnQEQRoRssBugmjBnYIHQZt+rMAS
s5bBcHk3Qa5DCT/rUkzBuzr7QB3g7L7VPirBL8AUQT0T8b/lTJXBxzrGQLHAhsDRF2nBEVLLQFiO
gsBcBpfBueIlQRvSWr1tzW7BMhsyQUPPxL/He6LBC/kJQfzLlT9UV7TBhXDLQHpQ8z9u46PB3JzF
QJkhjD/FpbDBZ5pHQFWWSz6qMJ/B3BuCQIkC2j+6IZ3B8/lmQFv6mT/YcKrBGFmFQMwW6b+zzabB
DByWQHnuar/nfrLBZLa8QK3m6L9FqqrBjCCTQOHuOMByNI3BBVqPQAu7QMAmzH3BU2imQAEuOL93
wIXBnAydQGCk5b9NgGLBU1GcQMoHrr470JLBwP/7QErs6r/3S4vB5jlzQM15iMDuxKPBKjgKQTsk
mb/i3CrBOKI9QAmvbsAww5vBILelQPXCjcDfy6HBDRULQdTsIcA2JTLBrKUAQSduTL4inDfBsAET
QQ/qkb/s/ZrBBPJfQPBMWMDftpHB9t62QPW+gsC+v5fBHVoCQbTTN8BYMkbBU14kQYlnW78q0qHB
u1oNQTV6ET9OvKzBcVD9QEqjEr9IEJ3BsMDvQNpeCr/IuEvBxbj3QF6Iij7GBqbB5O6bQJgOZcAk
n4/Bfm3xQNjB8L9JAlPBoIwhQUDR27qQrKrBLEnbQISV6z7XtVnBlRLYQA+jWb86EpbBlyrNQAwM
qr+/B3PBlo3MQMHsbT9P4afBDaGnQGDAv7v8J6TBvDt7QO01Tj/1cKPB7lKhQExJlb/WNazBYY2u
QMfCTcCXzITBLcO7QP1g3L8wVoTBRwngQB81D8AV22bB66jKQEDXrDyu/2zBq/2wQIBtDr81TJnB
nIveQC7Jt781F4zBx7LYQN870j+CslTBghw3QRibuD5DE7PBrKtYQEmNkcCpaqvBbOkQQTIvcL/y
eRvB34v0P6qWZcCuVJ3BjFW6QKZAmsC9/KfB7nISQYmZUsCfVSjBaAQAQU9VUj8ZBjLB4TcVQT4J
5b9oLZTBkgQ3QGNnPcALnovBb63YQL6yhsBSQJbBggsDQSY5ecCxv0vBYdkzQaHjpb8uRaDBl0UL
QVLrnT/ZdbPBCBrLQEda7z/PVKPBx8PIQHJVkj/KdbDBUO9GQNUpFj59z6DBWZWBQF35zz9Np53B
Is9rQBGGnD8MWqvByCWHQGt46L/HdKnBxlGZQDtGQb9vH7TB4Ai/QL4/4L9fxqzBw2mWQAEXWsBG
Kn3BUO3KQKSpdcBBTYPBnaufQCIAjb9rNYbBgJu8QO9uLT9m0HbBFJyYQDFqNb/zQpTBcHf8QFnb
1r/2BYrB

> <OMEGA_E>
QOrNPjCF0T4SXQo/lAI3PyyoPD8=

> <OMEGA_NBR>
     41322

$$$$
50225010
  -OEChem-04172616093D

 52 55  0     1  0  0  0  0  0999 V2000
    3.7518   -4.3373  -20.2492 C   0  0  0  0  0  0  0  0  0  0  0  0
    3.0550   -3.7619  -19.1681 C   0  0  0  0  0  0  0  0  0  0  0  0
    5.1326   -4.6028  -20.1424 C   0  0  0  0  0  0  0  0  0  0  0  0
    9.1442   -1.2711  -19.6038 C   0  0  0  0  0  0  0  0  0  0  0  0
    3.7360   -3.4657  -17.9751 C   0  0  0  0  0  0  0  0  0  0  0  0
    5.8163   -4.3065  -18.9486 C   0  0  0  0  0  0  0  0  0  0  0  0
   10.1652   -1.0379  -20.5404 C   0  0  0  0  0  0  0  0  0  0  0  0
    7.3177   -0.7291  -12.7361 C   0  0  0  0  0  0  0  0  0  0  0  0
    8.7604    0.6105  -21.6732 C   0  0  0  0  0  0  0  0  0  0  0  0
    6.0483   -1.2908  -12.9515 C   0  0  0  0  0  0  0  0  0  0  0  0
    8.1441   -0.4907  -13.8472 C   0  0  0  0  0  0  0  0  0  0  0  0
    7.9190   -0.5755  -19.7142 C   0  0  0  0  0  0  0  0  0  0  0  0
    7.7211    0.3474  -20.7627 C   0  0  0  0  0  0  0  0  0  0  0  0
    5.1124   -3.7534  -17.8586 C   0  0  0  0  0  0  0  0  0  0  0  0
    9.9755   -0.0944  -21.5693 C   0  0  0  0  0  0  0  0  0  0  0  0
    6.4948   -1.3860  -15.2394 C   0  0  0  0  0  0  0  0  0  0  0  0
    6.8108   -0.8396  -18.7841 C   0  0  0  0  0  0  0  0  0  0  0  0
    6.3868    1.0599  -20.8773 C   0  0  0  0  0  0  0  0  0  0  0  0
    5.2477    0.1077  -20.4149 C   0  0  0  0  0  0  0  0  0  0  0  0
    3.9400    0.9050  -20.2632 C   0  0  0  0  0  0  0  0  0  0  0  0
    5.0283   -1.0324  -21.4415 C   0  0  0  0  0  0  0  0  0  0  0  0
    5.8374   -3.3715  -16.5973 C   0  0  0  0  0  0  0  0  0  0  0  0
    6.0497   -1.8476  -16.5944 C   0  0  2  0  0  0  0  0  0  0  0  0
    5.6514   -1.5970  -14.2000 N   0  0  0  0  0  0  0  0  0  0  0  0
    7.7222   -0.8222  -15.0817 N   0  0  0  0  0  0  0  0  0  0  0  0
    5.5841   -0.4738  -19.0891 N   0  3  0  0  0  0  0  0  0  0  0  0
    7.0753   -1.5096  -17.6034 N   0  0  0  0  0  0  0  0  0  0  0  0
   11.2448    0.1885  -22.7286 Cl  0  0  0  0  0  0  0  0  0  0  0  0
    3.2268   -4.5757  -21.1624 H   0  0  0  0  0  0  0  0  0  0  0  0
    1.9999   -3.5489  -19.2562 H   0  0  0  0  0  0  0  0  0  0  0  0
    5.6656   -5.0337  -20.9771 H   0  0  0  0  0  0  0  0  0  0  0  0
    9.2952   -1.9793  -18.8024 H   0  0  0  0  0  0  0  0  0  0  0  0
    3.2060   -3.0178  -17.1475 H   0  0  0  0  0  0  0  0  0  0  0  0
    6.8753   -4.5018  -18.8673 H   0  0  0  0  0  0  0  0  0  0  0  0
   11.0956   -1.5820  -20.4715 H   0  0  0  0  0  0  0  0  0  0  0  0
    7.6512   -0.4859  -11.7381 H   0  0  0  0  0  0  0  0  0  0  0  0
    8.6273    1.3501  -22.4488 H   0  0  0  0  0  0  0  0  0  0  0  0
    5.3911   -1.4769  -12.1149 H   0  0  0  0  0  0  0  0  0  0  0  0
    9.1169   -0.0417  -13.7108 H   0  0  0  0  0  0  0  0  0  0  0  0
    6.3949    1.9574  -20.2414 H   0  0  0  0  0  0  0  0  0  0  0  0
    6.2168    1.3534  -21.9237 H   0  0  0  0  0  0  0  0  0  0  0  0
    3.1347    0.2309  -19.9361 H   0  0  0  0  0  0  0  0  0  0  0  0
    4.0796    1.6993  -19.5151 H   0  0  0  0  0  0  0  0  0  0  0  0
    3.6709    1.3553  -21.2301 H   0  0  0  0  0  0  0  0  0  0  0  0
    4.2193   -1.6907  -21.0920 H   0  0  0  0  0  0  0  0  0  0  0  0
    4.7548   -0.6009  -22.4157 H   0  0  0  0  0  0  0  0  0  0  0  0
    5.9555   -1.6150  -21.5460 H   0  0  0  0  0  0  0  0  0  0  0  0
    5.2380   -3.6636  -15.7225 H   0  0  0  0  0  0  0  0  0  0  0  0
    6.8115   -3.8812  -16.5611 H   0  0  0  0  0  0  0  0  0  0  0  0
    5.1002   -1.3562  -16.8533 H   0  0  0  0  0  0  0  0  0  0  0  0
    4.8587   -0.5903  -18.4106 H   0  0  0  0  0  0  0  0  0  0  0  0
    8.0199   -1.7826  -17.4210 H   0  0  0  0  0  0  0  0  0  0  0  0
  1  2  1  0  0  0  0
  1  3  2  0  0  0  0
  2  5  2  0  0  0  0
  3  6  1  0  0  0  0
  4  7  2  0  0  0  0
  4 12  1  0  0  0  0
  5 14  1  0  0  0  0
  6 14  2  0  0  0  0
  7 15  1  0  0  0  0
  8 10  1  0  0  0  0
  8 11  2  0  0  0  0
  9 13  1  0  0  0  0
  9 15  2  0  0  0  0
 10 24  2  0  0  0  0
 11 25  1  0  0  0  0
 12 13  2  0  0  0  0
 12 17  1  0  0  0  0
 13 18  1  0  0  0  0
 14 22  1  0  0  0  0
 15 28  1  0  0  0  0
 16 23  1  0  0  0  0
 16 24  1  0  0  0  0
 16 25  2  0  0  0  0
 17 26  2  0  0  0  0
 17 27  1  0  0  0  0
 18 19  1  0  0  0  0
 19 20  1  0  0  0  0
 19 21  1  0  0  0  0
 19 26  1  0  0  0  0
 22 23  1  0  0  0  0
 23 27  1  0  0  0  0
  1 29  1  0  0  0  0
  2 30  1  0  0  0  0
  3 31  1  0  0  0  0
  4 32  1  0  0  0  0
  5 33  1  0  0  0  0
  6 34  1  0  0  0  0
  7 35  1  0  0  0  0
  8 36  1  0  0  0  0
  9 37  1  0  0  0  0
 10 38  1  0  0  0  0
 11 39  1  0  0  0  0
 18 40  1  0  0  0  0
 18 41  1  0  0  0  0
 20 42  1  0  0  0  0
 20 43  1  0  0  0  0
 20 44  1  0  0  0  0
 21 45  1  0  0  0  0
 21 46  1  0  0  0  0
 21 47  1  0  0  0  0
 22 48  1  0  0  0  0
 22 49  1  0  0  0  0
 23 50  1  0  0  0  0
 26 51  1  0  0  0  0
 27 52  1  0  0  0  0
M  CHG  1  26   1
M  END
> <OMEGA_C>
6B1wQB/LisBh/qHBk4VDQFjCcMBbWJnBUj6kQDdKk8C0I6HB0E4SQSqzor+D1JzB/hpvQHHNXcAH
zY/Byh66QOLOicC1lpfB16QiQYzahL+oUqTBbCrqQDCpOr8gx0vBlioMQcNKHD+mYq3BDYzBQJ85
pb9JOU/BXk4CQeQ2+77ujV3Bqmj9QDVRE7+5tp3B7RL3QAjdsT4KGqbBjJijQDM4cMCD3o7Bx5sf
QX5uwb3mjazBhNXPQMtosb+b1HPBq/HZQFvtVr/VRZbBimDMQPKqhz+7BKfB0OynQFSd3D2rUaPB
Xih8QLuwZz//GqLBBOigQBInhL9JiKvBKsy6QOHFV8BUx4TBA5fBQER+7L9ewYTBUNi0QGhrzL8/
M2PBhhz3QO1+Ur/WTnHBu7CyQBaX8r54tpjBm2jiQLM7wb/O04zBheozQVUIQT4w1LXBwINOQFts
ksCQTKnBufz/P0UhY8C2DJrBxUy1QOUTocAT0afB8bgUQVpY/b9ka5bBXi5NQE0kQcAnLonB1wLc
QIIOkMBK8JbBtocxQXF/yr+xxaPBftb0QHHC+L5azzvBjwkKQQzRrD85l7PB3IOsQK8Jvb/J1kHB
194RQSv/Kr1UX1vB56LMQEmN+j9o7qHBQfDGQEg9rT/DY6/BwJ5IQB9lbD4PfZ/BKYyCQN2B2T/X
HpzBdfBqQPJ5rT8216nBJQSHQI1n2L96vKjB+iaYQLvUGb9PU7PBlpO+QEe5zr8mXqzBdZ2nQNF4
asBvj3vB4PfZQKpleMA8fYTB0TSjQNuXrb9104bBn3qbQKMaF7/+SJPBUlEAQZgr5L9OXovBWnBw
QA++i8AB2KHB5FakQLyZlMDhA6HBKH9EQOaAccAMOZnBdEUSQQ+6ob82+5zBsX+6QGDYisA2hZfB
vp1wQPIEXsApvI/Bj4giQXIig7+mgaTB0LPpQInwQr8SuEvBMfILQUUEIT9Fca3B5ZoCQeooE7/M
P13BFTHAQK1fn78wiU/BDlH9QF8pEb8yyZ3B9sj2QB8YuD79IqbBXE+kQFz/cMBK1I7BU2cfQYhh
mb0XsKzBbanPQOO+r78m/HPBzgTaQFDkVL9hTJbBmgTMQIDQiD/i/6bBH7enQIhJ6D2YQqPBtpJ7
QGThZz+2BaLBErmgQG4whL/fbKvBXsq7QDbZV8CqzITBht/BQNNd7L9z0YTBz9r3QLSeYr/2G3HB
Iq6zQBT0w7/NnmPBlLuyQFjI7L7qqZjBDqjiQMLnv78B3YzByJMzQZj1XT5CBLbBu29OQBSKk8Du
G6nB9yK1QJvgosBQq6fBaA0BQBVlY8Cv55nB8L8UQaH4/L8vnJbBrlfcQMdgkcBS5JbBkitPQHWD
QMBoIonByG0xQTnGyL/3BKTBfD70QHS3Cb/mpzvBX78JQTm5rz/um7PBX4QSQdckO74RylrBLFOq
QG2Zsb+XWULBeU3MQHCo+z+q6KHBMWXGQNpmrj/lXK/Bt0VIQMJmaj6TYJ/BPDuCQNfO2T/FDJzB
fgtqQGxCrT92wanBIe6GQPyL2L/wlajBUdeXQEhcG7+1OrPBd3G+QOdyzr/8QazB4wypQIMCa8Dg
fXvBBDPbQD2Wd8A8l4TBK06jQLlnr7/y8YbBSLGbQHKWEr+vLpPBKXoAQUG24b+DZIvBWyJ0QH2m
jMBdQqLBLkpFQKJddMAOzpnB1TamQBCzlMBBFaHB1yISQSPdpr9xwpzBYIpuQAJiYMDCIZDBSeq6
QDa9isC4ZpfBK38iQSpui79vR6TBb2rqQKQfK7/gVUzBuFAMQTE/ET/Laq3BaAgCQYM32r5tYl7B
TlnCQHmKo7/GSE/B/Uz9QDIkGL+BqZ3BUE73QKDSpT4EHKbBAkGjQKYOcsA0347BqJwfQapeG75L
kazB/nvPQPaVsr+u/HPBDcLZQKRoVr/8K5bB9e7MQL3shj9sFqfBphioQLKVCT51IKPB8lB9QNak
dD+PEKLBFU2gQNZ/hL8zCKvBRj25QCLCWMA3pYTB7rTAQMT57r9ZxYTBUEP2QESvSr+e7XHBVlK1
QJYkz78gEWPBlPKyQHOa0r5zapjBEJHhQFxSx78+7IzBV+EzQSRW1j0Q6rXBl09UQASqlMCqqanB
WtEBQJ9wZ8DSwZrB+SO4QIiCosABnafBrXAUQQiCAMDKT5bByOtKQDGDQ8CbqonBqsfcQD+hkMAf
gZbByUgxQXBb0r82tKPBDkX1QH/UyL5FiTzBClEKQWjYpj/xqLPBFWoRQWF2WD1rlFzB0P6tQFSB
vL8HrEHBBtPNQGDU+z8pMKLB22DHQGJlqT+Jga/BPzpJQG2Tmz73Qp/B2pyDQISH4j8jR5zBaENs
QHq6sD9x5anBCyGGQLyF1b/RCKjBmZuXQLOMIb9D7LLBlqS9QG5s0b8ywKvBX/2kQObxacD/jHvB
gh/YQJgpesDhBITB14WiQM6crr8w2YbBt0KcQD9m6b7/yJLBfVT/QJ3T8b/PqovBnLZxQDUxjMA9
0qHBBP+kQMDolMDG86DBBmpFQBZvcsDCOZnBCEcSQRr1ob8b75zB9v66QJkGi8CHcZfB7jhxQHiz
XsBzuY/BB5wiQTrgg79lbaTBsNjpQPVaSb9SqUvBJBIMQZJPHT/ofa3BPiPAQH4noL8Qik/B57sC
QbwCG79KKV3BCkv9QH1rEr+J0Z3BLtr2QPqqsT6QOqbBaqKkQIFTccDQyI7B9IofQdjesb0tqKzB
ZpbPQFAyr79BAHTBtvrZQO/yU79UUJbBihbMQNkmhz8ILafBfK6nQH755z2xSaPBytx7QBdpaj9S
EqLBZkugQMS5hb8dUqvBAPS7QA23V8DiwYTBVtTBQBYA7L8z0oTBpoWzQMbawr/qqGPB4gL4QI/t
Zr9sDnHBiMayQCRl5b4QppjBAJTiQDJnv79t34zBB8wzQRx6ST6u9bXB4vRPQOgVlMAUGanBMO21
QAkto8AllqfByvEBQIiLZMA98JnBwrYUQXmM/L/BhZbBctjcQCR5kcDPx5bBBYFPQFlGQcDTI4nB
zYIxQXlQyb/W4KPBwXP0QMazEr/mkjvB3+0JQW91rT8ssLPBVjSqQF8Fsr+QX0LBgLsSQXFBar4U
plrBl3fMQLV3+z/IN6LBQHHGQIVUqj9AlK/B4GtIQPHtfT5bUp/BxKqCQI4q3D/eL5zBwidqQAAq
rT9j1qnBa3CGQBnb2L+VYKjB7lKXQAhOIb81KLPBqOK9QC7e0L+8IazBMy+pQEvRasB4aXvByWzb
QOcvd8DFg4TB7zKjQH6Qr79D84bB7NqbQHQqCr9KHZPBknAAQaYk4b+JZovBUwp6QLz0i8CWAKLB
a0xLQKtsd8ABQ5nBs4WpQOuIksBzHqHB26gTQaebfL9evpvB4H11QGtiZMAMoI/BWbW+QKAHicCm
eJfBHxkkQZmaIb9D4KLBvO3oQL9vSL/nT0vBLMsJQbSLqj5LEq/BuCi/QI/jnb9gcU/B3HYCQVrq
Gb/0qFzB2F78QJyhLb+zTp7BRZHyQJTzyL1/RqjBTS6nQLBicsA1sI7B2TUfQXYBmz2lUKzBeUfP
QOZQq7+t13PB9WTZQJwaab8jo5bBf3DEQHQceL0h7KvBkSanQEBrkz6CYaLB/uyrQAOA5D+glJ/B
1LJwQGDaALzlYqXBU6O9QLZHV8A0mYTBujbCQPR36r8UvITBLt2yQK8ev78lp2PBe8H3QNYvYr/h
p3DBKPixQAh4Cr+a4ZjBPtniQAGeu78syIzBDagzQfz2Fj9j1rTBKJtZQIFkk8DrZqnB/SwHQCUt
bcCQ95nBV1q7QMLensDf2KfBUmoXQSQUv79tWJTBmN9RQPYFS8AC74jBMdPgQFXWjcA9y5bBZ3Y0
QVJiZr/fHqHB2UvzQBaiFL8qJjvBgg4GQaceXD8JYbbB5+uoQF6Mr7+UZkLBuH4SQSABcb4e81nB
l77AQEa6Mz9IMrLBTmq7QNrEhb+AIq/BBgSXQILxAUBbx5jBrWLNQPGI/z/Kbp3B7MiiQO5JGUC2
iabBzNBGQNmRdT6kmJ7BUnxeQGaDGT83XKzB695pQGKPib+pWqfB68CqQM0Ia8BwMHvBun3dQJsY
dcDvOoTBqD6jQKWMsb9m74bBP1maQMk8VL9SAJTBN8wAQRqP0L8g/orBpY97QPqrisBku6LB3uup
QM53ksDncKHBBFlLQBPrcsDdO5rBnH8TQQHIf79Ha5vBlfa9QOpWicDUnZfBX0pzQBKCYMC7bJDB
/gIkQYuoI78qfKLBVKjpQKgqIr9110vBUbkJQYzlfT6mEq/BUbQBQXz8wb45z13BNvDBQFCkob+c
607BMAf8QCPgOL+YLJ7BT1XyQEokOL5oSajB1KqlQFQ+ccD1D4/BbScfQRCbBz3uFazBob/PQCsh
sb+jkXPBTPDYQH8/bb8ffZbBuwnEQNXS8L1Q0KvBjjGoQNw3pz7FQKLB17GwQF7G6D9fxJ/BpDxx
QFRtCz5PCKXBdwC7QNc1WMAEtoTBFWPBQCUM7b8nnoTBmhn2QPllQb/+YnHBV2u1QIznzr9kvWLB
QPWxQNAcAb8pqpjB9AriQMRewb/Mt4zBebozQW5QEz+XarTBRdBcQOfpkcBaQarBQlu8QIhxn8Bi
/afBNc8HQEKyZsBaQZvBTDMXQSUGvr8Z7ZPB5c7fQDgbj8CaoJbBH49OQPuJRcCk7YnBpmo0QbjJ
YL9njqDBwin0QBYAtL5hAjzB+gUGQQ8yPT/LirbBDO0QQeuc8j3d6lvBZnCtQFhFu7/bYUHB27HA
QFY2Gz8BY7LBW6q5QHs5jr9Cj67BNtGcQFh6CEDW85jBFq/SQLGL+j88xJ3BFqOoQF1TG0D60KbB
U5RJQPjX5z6VN57BiiphQCRwPj9EFqzB2+1kQHGvbL+UyKbBza6mQLsxa8BK23vBszraQNNLeMC8
EoTB7+GiQAPrrr8Kq4bBhxmaQNP/P79ttZPBYlEAQaR4278mCIvBEbt7QBuOi8CbR6LBJEeqQNt5
ksBESaHBupFMQBs4dsAHmZnBIokTQfJ/e7/yuZvBFiq/QIAXicCylpfB0iR2QAyGY8BC6I/B2Nwj
QYppIb/z7KLBYsjoQMQ8Qb9IVEvBHkEJQbyPfj73Ya/BopC/QLoJob9zSk/BxyACQbTzCb/0yVzB
ivn7QNqtNL+aWZ7B7L7xQK/WLL6tc6jBc2unQNMicsCB3I7Bx8EeQdgjAz0CiqzBi0/PQJzwrL+I
vHPBuUbZQFRpaL+VjZbBm0HDQAwj1b0+1KvB8uOnQBIpqz6BKqLBZ4ywQBZ16T9MnZ/BG1NwQGwA
Ez4SwqTB/o69QLSmV8DxsITBRTHCQIIu67/ks4TBIlKzQPSYxL/8cWPBPi33QGthV79puXDBPxay
QC35AL9yrZjBKs7iQCDuu7/FuozBHRozQcnKDj9EE7XBmsJbQO7hksC5t6nB10W8QOD6nsCr96fB
hpgIQEhla8CBY5rBRm4XQXsSu79aO5TBSDjhQFMijsCg1JbBvCxSQN70ScDlQYnBxFA0QQwrXr/u
FqHBvCHzQIfeCb+dNTvBJV0FQVWzOz/g2rbBqrapQMsCtr+WKULBuOoRQee9Bb5ENlrBKZa/QPa1
Hz/JXLLBeb24QE1FjL/JlK7B7PycQHxxCEDMuZjBLaHSQG3f+j+Ls53BRTGoQDIaHECbmqbBn4dJ
QPTr6T4Z253B9E9fQDL9QD+Gw6vBXttjQOCoar/ugqbBhW6qQFrba8Bof3vBZmPdQLaJdcCmSYTB
lz+jQAHRsb824YbBOGGaQCIDRb8ivpPBVscAQWcN0b9G9IrBNr96QDg3icBAvqLBy4FLQFZxcMA7
IprBP46pQA4vkcCXnKHBXl0TQeROhL8d3JvB9IZ0QHG9XsB7YJDBgyO+QARqiMDh1pfB/Y8jQaR1
Jr/tB6PB/03oQFSwKb/CXUvBoZ8IQThgPz5XgK/B698AQflGr748Ll3BKZTBQM7sq79PxU7Bd3r7
QBjlSL9RfZ7BYtfwQPTni779pajBr1WmQBvIb8BeLo/BGDIeQXzfnzyMlKzBjtvPQFrtsb+iaHPB
ECXZQLKcbr89gpbBcx7CQBcaOL7Jw6vBCBWpQFpVvD6HEqLB8/G1QISk6z/b85/B1n1xQLZbmT7/
UaTBxzG8QLC7V8Bp4ITBJxvCQAvR678WnITB0h/1QOSnNL+F8HDBtr+1QNdo179xvWLBaXeyQIPU
7r5/epjBZcbiQJXJvb82pozBa04yQQT/Iz9S1rTBwi9bQAApkMA2O6rBpOQHQEgEZMDzB5vBppq7
QJEEnsCfPqjBgGoXQbDpwb8nZZTBgpFQQNYVRMAPy4nBzwPgQKNOjsCG+JbBnRg0QeRYXr/OOaHB
Nk/yQK6syL55ZzvBQY0EQbOcKj9n+LbB/7QPQXHNRz4WBlvB/E2tQAD3y7+iXEHB0nC+QDAPAD/R
nrLBkv21QOiblr/J663BAfyjQJJkDkAcCZnBknTYQAeA8j/XRZ7B9IiuQMTAHEDvC6fB/xxOQKnn
MD8EY53BDm9iQOxwZz9abavBb8VeQEfbPr//waXBqWmoQGwCbMA9G3zBKp3bQLdFd8BZboTBSX+j
QMSYrr9xq4bBZb6aQEzsLb8EY5PBmcMAQUa50r/V3YrBNgLtQMR+FL9FjEbBYjvMQJY6cz5Z1E7B
h5z3QJpy5L885FDBaBQTQSxPmr9TVp3BVG62QBjmDr4qpGHBi4nhQEMKC8CofWPBq6QjQaHOYr9q
iaTBgPJuQCBzksDvp5/BjTIMQUZ4NT90jK3BHY2gQG3koMAX2ZzBgTVOQEhZXMBybJrBvtf9QNgW
Eb8NOJ7BpN72QFYNvz4XfqbBsmDBQMIPq7/xXWzBwT4gQTq5mz1/mKzB4COmQBe/UsCWXpDBiBra
QIk+aL/b55bB/d3LQHSaiT/bTqfBHi+nQLvcCD5qjKPB/SZ8QEkhdz+YxaHBTQCeQAXZdb+iEKzB
1lOnQIrn4b+c4n/BH/XBQCGdI8A6WojB91y3QHkDjMAGUpXBsyV9QGdiNMB535LB1OWyQPM+Ab9N
JJnBR0/iQJzS2r/u8Y3BB+s0QUhy+j6ZZLXBhvr9QBpqkL4HRTjBasnDQOzYkz9qwEbBslsIQfxf
GsCOi0rBm78VQfYl+L95IpfBjUCdQJBX+j6G4mfBjxnpQFlCR8B5FWvBn/YyQcR6sL824aPB9t5J
QBbVosBdsKXBMKoJQU/XuT+UsLPByuCtQL3BvMBQuaDBTV8PQISPRMCkc5zBzETMQO6m/D9nPKLB
vTHGQGXnrj+crK/BURxIQHlNmz7KHJ/BXQ6EQDR/3T/hoJvBn79pQBgouj+2T6nBTgKEQO9mzr/Q
PKnBnHWUQOE9974coLPB4wm7QIm8x7/WXa3BAMyMQI3EGcAecHrBRFyaQDMNXb95zoPBWLnTQPSs
VMB03oPBTwqcQKP1Ib8eo5PBjRYAQfiI27+9EovBuT/6QKGmoL8ZuUTBxYPrQHDjI8DC+kjBVj/v
QECqSL7aklLBJccRQdimoL9ojJvBRozRQLyHM8B9AlvB7kfVQJKi4L5VnWTBJ+oiQRi0kL8ux6LB
nWB7QIBUjsAVJ6DBHQkNQZGonD5BLK7BNf6pQLX/h8CZLaHB6fpSQB4BgMApxpbBmUL8QBovGL/q
lZ3BM1n3QFRaJT6kC6fBMenFQCXi3r9nwWjBJ5wgQWaGr75YC6zBDiWrQIC8TMB8ZpDBfmHXQIq0
QL9rP5bBGlTNQC5RYT/eFKnBq/emQJCIWj2rnKTBHdZ9QLLqdT+jJqTBTzKdQMwhk79hDKzB09Sp
QHK+AMDWJXzB5iXFQEw1H8D6u4fBlhrAQGY8acDtRZnBw1+AQN5qWMBWFI/BslawQKhX4b5ae5nB
pMneQD+qrb/FRozBjBU2QfSSKr4A3rTB//oGQc5tiL8t2zbBaxz0QL/iV8Dobz7Bjbr6QN57TT+P
W0/BIJkTQb+K7b8ZbZTBXYLGQI2pc8CFVl7BNiTNQE2evj5dRm/Bf9YxQbPK0b+DOKHBgjdXQLfR
ncBjaqbByVMLQYb3aT87Q7XBhmK6QOanksB2TajBjhAPQBnbhMCuuJXBcBbOQJBP7j+JHaXBDSHJ
QBZ/gj9Lv7HBrU9HQAHcxT6iAaHB3UqFQJHD6D/Q4J7BIqduQHxIqT/KPazBLxuCQDVv3L+Ty6jB
8wSVQFjnR79pFbTBDIq5QOo/5r+Ci6zBaWGSQGawMsAmGnjBuOeYQBgpi78wRoDBbwfcQIddTsCS
k4TBWxKYQO0XCb+5UpTBiAX3QN+ngL/A34fB

> <OMEGA_E>
oJxTPmBfVz4gPlg+QG1YPiCZtD5w87c+eKG4PoAewD4khyU/5LgoPw==

> <OMEGA_NBR>
     50356

$$$$
50225006
  -OEChem-04172616093D

 55 59  0     1  0  0  0  0  0999 V2000
    3.7196   -4.4106  -20.0907 C   0  0  0  0  0  0  0  0  0  0  0  0
    3.0380   -3.8658  -18.9846 C   0  0  0  0  0  0  0  0  0  0  0  0
    5.1032   -4.6713  -20.0149 C   0  0  0  0  0  0  0  0  0  0  0  0
    9.1455   -1.2731  -19.5920 C   0  0  0  0  0  0  0  0  0  0  0  0
    3.7379   -3.5928  -17.7985 C   0  0  0  0  0  0  0  0  0  0  0  0
    5.8069   -4.3938  -18.8296 C   0  0  0  0  0  0  0  0  0  0  0  0
   10.1600   -1.0500  -20.5352 C   0  0  0  0  0  0  0  0  0  0  0  0
    7.7915   -0.4300  -11.5355 C   0  0  0  0  0  0  0  0  0  0  0  0
    8.7547    0.6011  -21.6648 C   0  0  0  0  0  0  0  0  0  0  0  0
    8.3153   -0.3990  -14.0971 C   0  0  0  0  0  0  0  0  0  0  0  0
    6.6803   -0.9075  -10.8818 C   0  0  0  0  0  0  0  0  0  0  0  0
    7.5574   -0.6418  -12.9443 C   0  0  0  0  0  0  0  0  0  0  0  0
    7.9206   -0.5745  -19.7000 C   0  0  0  0  0  0  0  0  0  0  0  0
    7.7212    0.3524  -20.7444 C   0  0  0  0  0  0  0  0  0  0  0  0
    5.1189   -3.8683  -17.7170 C   0  0  0  0  0  0  0  0  0  0  0  0
    9.9637   -0.1162  -21.5704 C   0  0  0  0  0  0  0  0  0  0  0  0
    6.2900   -1.2098  -13.0567 C   0  0  0  0  0  0  0  0  0  0  0  0
    6.5757   -1.3412  -15.3456 C   0  0  0  0  0  0  0  0  0  0  0  0
    6.8165   -0.8427  -18.7709 C   0  0  0  0  0  0  0  0  0  0  0  0
    6.3924    1.0811  -20.8509 C   0  0  0  0  0  0  0  0  0  0  0  0
    5.2463    0.1664  -20.3337 C   0  0  0  0  0  0  0  0  0  0  0  0
    3.9562    0.9892  -20.1711 C   0  0  0  0  0  0  0  0  0  0  0  0
    4.9802   -1.0083  -21.3114 C   0  0  0  0  0  0  0  0  0  0  0  0
    5.8753   -3.4273  -16.5009 C   0  0  0  0  0  0  0  0  0  0  0  0
    6.0730   -1.9083  -16.6222 C   0  0  2  0  0  0  0  0  0  0  0  0
    7.8086   -0.7594  -15.2898 N   0  0  0  0  0  0  0  0  0  0  0  0
    5.7991   -1.5251  -14.2569 N   0  0  0  0  0  0  0  0  0  0  0  0
    5.6111   -0.3736  -19.0044 N   0  3  0  0  0  0  0  0  0  0  0  0
    7.0556   -1.6497  -17.6822 N   0  0  0  0  0  0  0  0  0  0  0  0
    5.7764   -1.3811  -11.8002 O   0  0  0  0  0  0  0  0  0  0  0  0
   11.2142    0.1322  -22.7558 Cl  0  0  0  0  0  0  0  0  0  0  0  0
    3.1801   -4.6294  -21.0004 H   0  0  0  0  0  0  0  0  0  0  0  0
    1.9799   -3.6587  -19.0489 H   0  0  0  0  0  0  0  0  0  0  0  0
    5.6225   -5.0842  -20.8672 H   0  0  0  0  0  0  0  0  0  0  0  0
    9.2994   -1.9758  -18.7864 H   0  0  0  0  0  0  0  0  0  0  0  0
    3.2195   -3.1723  -16.9494 H   0  0  0  0  0  0  0  0  0  0  0  0
    6.8687   -4.5823  -18.7719 H   0  0  0  0  0  0  0  0  0  0  0  0
   11.0905   -1.5940  -20.4672 H   0  0  0  0  0  0  0  0  0  0  0  0
    8.6660    0.0152  -11.0846 H   0  0  0  0  0  0  0  0  0  0  0  0
    8.6222    1.3397  -22.4417 H   0  0  0  0  0  0  0  0  0  0  0  0
    9.2867    0.0680  -14.0296 H   0  0  0  0  0  0  0  0  0  0  0  0
    6.5401   -0.9097   -9.8109 H   0  0  0  0  0  0  0  0  0  0  0  0
    6.4293    1.9982  -20.2446 H   0  0  0  0  0  0  0  0  0  0  0  0
    6.2034    1.3440  -21.9022 H   0  0  0  0  0  0  0  0  0  0  0  0
    3.1489    0.3378  -19.8052 H   0  0  0  0  0  0  0  0  0  0  0  0
    4.1278    1.8011  -19.4490 H   0  0  0  0  0  0  0  0  0  0  0  0
    3.6696    1.4174  -21.1430 H   0  0  0  0  0  0  0  0  0  0  0  0
    4.1663   -1.6356  -20.9188 H   0  0  0  0  0  0  0  0  0  0  0  0
    4.6929   -0.6086  -22.2951 H   0  0  0  0  0  0  0  0  0  0  0  0
    5.8928   -1.6138  -21.4139 H   0  0  0  0  0  0  0  0  0  0  0  0
    5.3008   -3.6623  -15.5927 H   0  0  0  0  0  0  0  0  0  0  0  0
    6.8511   -3.9333  -16.4586 H   0  0  0  0  0  0  0  0  0  0  0  0
    5.1111   -1.4419  -16.8814 H   0  0  0  0  0  0  0  0  0  0  0  0
    4.9296   -0.3815  -18.2726 H   0  0  0  0  0  0  0  0  0  0  0  0
    7.9523   -2.0862  -17.6085 H   0  0  0  0  0  0  0  0  0  0  0  0
  1  2  1  0  0  0  0
  1  3  2  0  0  0  0
  2  5  2  0  0  0  0
  3  6  1  0  0  0  0
  4  7  2  0  0  0  0
  4 13  1  0  0  0  0
  5 15  1  0  0  0  0
  6 15  2  0  0  0  0
  7 16  1  0  0  0  0
  8 11  2  0  0  0  0
  8 12  1  0  0  0  0
  9 14  1  0  0  0  0
  9 16  2  0  0  0  0
 10 12  1  0  0  0  0
 10 26  2  0  0  0  0
 11 30  1  0  0  0  0
 12 17  2  0  0  0  0
 13 14  2  0  0  0  0
 13 19  1  0  0  0  0
 14 20  1  0  0  0  0
 15 24  1  0  0  0  0
 16 31  1  0  0  0  0
 17 27  1  0  0  0  0
 17 30  1  0  0  0  0
 18 25  1  0  0  0  0
 18 26  1  0  0  0  0
 18 27  2  0  0  0  0
 19 28  2  0  0  0  0
 19 29  1  0  0  0  0
 20 21  1  0  0  0  0
 21 22  1  0  0  0  0
 21 23  1  0  0  0  0
 21 28  1  0  0  0  0
 24 25  1  0  0  0  0
 25 29  1  0  0  0  0
  1 32  1  0  0  0  0
  2 33  1  0  0  0  0
  3 34  1  0  0  0  0
  4 35  1  0  0  0  0
  5 36  1  0  0  0  0
  6 37  1  0  0  0  0
  7 38  1  0  0  0  0
  8 39  1  0  0  0  0
  9 40  1  0  0  0  0
 10 41  1  0  0  0  0
 11 42  1  0  0  0  0
 20 43  1  0  0  0  0
 20 44  1  0  0  0  0
 22 45  1  0  0  0  0
 22 46  1  0  0  0  0
 22 47  1  0  0  0  0
 23 48  1  0  0  0  0
 23 49  1  0  0  0  0
 23 50  1  0  0  0  0
 24 51  1  0  0  0  0
 24 52  1  0  0  0  0
 25 53  1  0  0  0  0
 28 54  1  0  0  0  0
 29 55  1  0  0  0  0
M  CHG  1  28   1
M  END
> <OMEGA_C>
ZA1uQGojjcC+uaDBym1CQC1pd8CF4JfBl02jQIR7lcCAHqDB6VMSQY31or9vvJzB2jlvQNXvZcA9
Y47B+dG5QDyajMAXo5bBR48iQe5mhr8WSKTBxlP5QBYs3L5xkTjBMBMMQe7kGT+UUa3BWwsFQfRK
zL62jWHBO8XVQHpSaL+0Gy7Bj9bxQG5KJL/5G0/BLXX9QIQSE7+OmZ3BZxT3QOVvtD6J9KXB282j
QKWRd8B8vI3BR2sfQXju7b09kKzB2EfJQBbcmr8s6FDBz2vSQM+qq799h3XB/SDaQIC4V7/iKpbB
do7MQH5hij+izqbBzuGnQCBoKj6Dq6LBqjF9QGI9fT91XqHBeF2fQHYRgb/IfarBSgK8QPZYW8DD
AYTBx1XCQJ5E9L9c+oTBw9/5QDxmQr8Eo3TBmZK5QGQ2w78+HGTB9I2zQNhCv74aCZjBHsfhQEAp
078pdY3B39e4QLzHsL+9zTzBXm0zQX5YBz7cC7bB9IZLQNIjlMDDAKjBhm79P94oasAwZJjBQOuz
QGuxosDw76bBfcoUQUnn/L+mSpbBygxOQOoGS8BfmIfBuszbQCOiksDQLJbBkXIxQXkJzL/KvKPB
GqgKQb/weDyFWjHBYPQJQcJ5qz+CiLPBapYUQcdUiz01eWDB0UjRQFzkaL91+RzBC73NQInD/z/a
9KHBpYLGQKcHrD+oN6/B2YZJQDvwrD4ZcZ7BmhaEQFuJ5j+Pl5vBJtpqQDlutT/RJKnBXlKFQBdc
0b+qWafBOCyWQLnOG79wXLLBq5G8QPGRzr+/T6vBVqCpQONiasCje3nBPTzbQHG6e8BJq4PB2I2j
QOiPuL8ZDYfBc7+dQBpYw75ZLpLB1Xj+QOSDBcBL3ozBTa1tQG42jsB+hqDBthOjQMHIlsDf7p/B
SMBCQNNnd8DAwpfBKm0SQer6o79y9ZzBz+S5QC4mjcBfipbB5DFwQG82ZMDqXo7BHq8iQZdghr9t
eaTBvP34QPj9Er8UFDjB4ucLQeatEj+ep63BYQ0FQSf23b4g/2DBL8bUQLYwhb8cDy7BdoDxQJZ5
Nb+CxU7B2YL9QJozF78/2J3BK7H2QMoRoj69UabBWDmkQEWcdsAHt43B5nUfQawn9b0bxqzBYnXI
QMH4nb+YDFHBo1XSQM+zp7+qoHXB47LaQAiPVb+oOJbB4+7LQJROhD/vQafBrXynQPb5Gz4bjKLB
80V9QIZ5fj/zIqHB6nSdQBg7h78K5anBK7O8QGcSWsDDCITB8evCQJmt8b8eCYXBp/z5QPy8Pr/6
VHTBBdy4QB1Wv79MdWTB1U60QKV/rr6u4ZfBPYziQGvH0L/Md43BGHq3QL3dt7/wJD3BIK8zQf6R
JD7aFbbBuq5KQBLelcDruafBpXCzQKjApMDesabBZjH+PyDUacAgQ5jBfewUQbDy/b/UhJbBqNbb
QH9jk8COF5bBxJ5PQA1kR8Dlp4fB1aYxQeDUyr+15KPBsbQKQcrBPL6AejDBC6QJQRhKpj/28rPB
d6wUQVLunTyqjV/BlRnQQFpEi79k9BzBN3XNQLPM/T+E06LBOTPFQAl2nj8uva/BnQ5KQEaruj4t
zp3BUSeFQOQr6j8GppvB6xBpQNLssT/D8qjBnJ6DQHUC1L8TVabBNliTQFBzMb+HzrHBh0u6QO/D
1r8Jw6rBaIuqQCgPacCLdnnBI/fbQOhUesDRvoPBdSakQNPZtr+TNofBJG+fQKzRmL7Q05HBqFz/
QN27A8Cx0IzBc/1vQMFvjcDxZaHBoV6kQBtKlcBDzqDBHR5EQO83eMA6jpjB23wSQeaior+m6pzB
7d26QB0RjMCVV5fBbOFwQMcRZsDOFY/BW6kiQVgNh78jh6TBk8X+QAKNjL4gejrB9hoMQQjMFT+k
oK3B4o6/QDwIpL9DcVDBYo8SQdB9bT5KjUHB1SvoQM9gOr8sP03B3dL9QF23Eb8iwJ3BOz73QE9H
rj73OqbB8rikQOXjdsCeco7Bc30fQXw6AL7/16zBNHMBQZ6z/b7WtF7B7eLOQC69sr9u7XTB1qXa
QKM0Ub9ILpbBAqHMQPaQhz+WLafB0jGoQNAcFj6P56LBQ2J9QNuxdj/xzKHBfgSgQDRNhr94iKrB
Ba+8QDkiXMBYoYTBzcPBQPj+9L/rGoXBWUWzQGZFy7+EcWTB+DP2QD/BVr8HaXLBlPKzQNZZur4V
K5jBa3/iQK57yr/NMY3BM88TQRiMyz1kalfBmXozQaDfBD6bVbbBmIJNQEa8lMAkqajBgBO1QCNk
osCEn6fB7UQAQK+na8CKD5nB0P4UQQYa/L9Nc5bBRuvcQM2wkcDG5JbBCZBPQGlES8AETIjBC4Yx
QRMUzb8MAaTBIr/zQACGpb5ZHirBrOcJQU5xqD+i5LPBAXOqQKDHur8ZD0PBCMQeQUK8Kj9GfjfB
maXNQENV/j9ZdaLBDoHGQDqtpj91n6/BfO1JQJBgoT5Gxp7Bw+aDQEKZ5T/YLJzBvRdrQCDnrj/r
qanBFB+GQARl1r8sTKfBOMKWQEP5K7/Sd7LBEWG9QAkd07+JP6vBn6KqQM1ebsC22nrB81XcQAbp
esB+eYTBDPKiQB/Ju7+7Z4fBFhCeQBpIur7oVJLBhxMAQThI97+wGYzBl3ZtQPQXjsBm3KDBw85D
QBTkecAq1ZfB0CCjQEwhlsDIm6DB3K4SQcAMob8FPZ3Bc91yQAByaMDlhI7BDtO6QKYJjcAnUpfB
BKYiQeynhL+c8aTB1Df8QFTh2L5RuznBbbQLQfNVGD+36K3BukS9QKyNp79dFFHBJKMRQfynkT1K
/D/BQirmQAQpTb+GEE3BVhn+QFyfD79v753ByOn2QA16sj6/YqbBtNClQC4IecCHP47BHCwfQTD7
3r2qPq3BufoAQZhoDL9xCl7BOLHOQPLVsL8CUnXBmmrbQIjvT7+xPpbByCrMQNNJiD9hLKfB3hGo
QJTcGz4EuqLBfyl9QOBadz9Bc6HBsmCfQORNhr/6Q6rBYAm/QKZdXcBRrITBSALDQLry9r9JR4XB
hNuxQHRQyL+QXGXBxCf2QMJZWb8rFXLBTKi0QFgBtL7IC5jBiLTjQPR4yr/UT43BO1gTQQC84jrl
5lXB+usyQQ50HD7p2LbBYj5JQO8dlcDXAajBxtT/PzIRbcB2E5jBUu+yQMRGo8CwjafBeGQVQRm5
+r/IzZbBvy1TQCRbTsBAkYfBn+ncQHKvksAZJZfBoJUxQcDRyb8qgaTBBmXwQCgIA79RjinBWUMJ
QVg9qT8ELrTBZUCnQIf1vr/RFUTBW8cdQVch6T4+VjXB4nHNQABN/z9ce6LBd3fFQFrtpj/5mK/B
akBKQG/9oT4pTZ7BmR6EQAQl5j9M3JvB9rBpQEDprj/7RqnBZ7mFQDwn1r+C46bBQI6VQHBwLb/l
LLLB/LG8QAEg078pFavBFk6uQDELcMAalXrBvfreQNfresA60ITBv/GjQDLZwb86wIfBU0yfQFLX
rr7rFpLBib4AQV/89b+2O4zB0W95QBlVi8AxeKHBJ8JLQFVoeMCvhJjBUlipQFiBkcB62aDBmDcT
QYVSgL+uLJzBFTp3QMbvZsBB7Y7BES+/QGWxiMCuQZfB5PQiQWoDKb+1s6PBojr1QLCm5b6xsjbB
rjgHQaxP9D0DAbDBIkwEQcrktr6paV/Be0HRQEfBdL9G+izBPW/vQEWGJL87a03BOez6QOOtQr/6
j57By+juQLQDmb5bvajB5yyoQPEpdMDOQY7BA/wcQQ6eML1aYq3BQojHQDsLn7/WCFDBuhrTQKmu
qb+oh3TBtaLZQIzAZL9ZZpbBvbu/QAbRhb41iqvB5wenQBQwqD6d66HBXPewQBo86z916qDBSUJt
QG+uCT5Ni6PBcV6/QAPhWMDwSoTB+ULEQGn57b8GtoTB7uT5QPtANb/h3HLB2mS5QNy/xr/Xj2PB
yVizQIgnv76d4JfBxcDjQP9yxL+rAY3BcL+1QIsDuL9TRjzB4JowQUwJ/D5SR7bBI/pXQH05ksCr
1KjBfXMHQM+pbsCbB5nBq8K6QPz+nMC+vKfBDLIXQU01ub8BoJTB6GhUQGliT8BwEYjBCWnhQL8X
jcB9yJbBYJgzQe6GXr+WE6LB4jYIQT7xrjvS5C7B4bECQd0CED/5jLfBWZYTQS7CCT64tF3B5YXL
QF4peb9z8BvBp8O6QEaKvT4Uo7LBykK0QHngo78kNK3BiV2fQHRfEEBpEZrB5YbTQM01/T9Lrp/B
mxWnQAyeFkBASajB74RKQMZjDj+LrJzBGRhZQOXBJT+26KrBDu9eQJR0cL+cNqTByNCsQEVfa8B6
XHrBvRffQNxId8A1/IPB+ySlQO/ftL/ZwYbBYbOdQDEC6L4mBZLB6CABQUWi5b/Aw4vBRi57QJwF
jMByyKHBDDKpQLAclsCqWaDBcxlNQAPKbsAwlZnB/1UTQS5/hb/aD5zB1829QK++i8C9sJbBHwJ2
QIZ1WsBz6I/B9iUjQRRNPb9wqqPBevnyQElrhr67vDbBwocHQcCr57wfSrDBkbMBQTzKj71guV/B
ztLSQNJ6dL8ilyzBAi/tQM3B+L56ZU3Bpzb7QIyWUL9wlZ7BAWzvQJf/0L6v7ajBj3qmQIaeb8Cm
bI7BGkIdQcT5M74Zkq3BkQLJQPjppL9dg0/Bh7TSQFIKp78kLnTBYrvZQLCfZr93bJbB9FTAQIs4
wb5jyKvB1cynQF2ajz5obqLB12GyQHYw5T9+A6LBybRuQEw+yj1DEKTBoWO8QE8zVcBvRYTBgkjD
QHZJ57+MmYTBjpX1QEeX+b6jBHPBMKS7QPYQ1b/T2GLBoruzQNcGvL5IG5jBYlTjQETIwb++2ozB
7YK5QNdsyb8ujzvBC+kwQZx0oT5GnLbBhpdbQGcjlMD5ManBmMS6QJfNpcD8q6bBj3oKQIDWXsDm
u5rB7r4XQQ42ub/OW5TBRVDfQCAEk8B0nJXB/fBSQCqqOsCnnInBo8YzQTv/b7+L7aHBedUFQdFg
qT5+QC/BLREDQW/Gvz43/bfBsocPQfxxEj8PZV7BejTOQM2PgL/NexvBrpe7QDalVT6XIrPBOJe0
QDuJs79cB63BMuWgQF97EEA8WpvB7fzUQNhD9j/ezqDBQsyoQBrqEEDrlanBPwZMQG+CET/2Y53B
LmRbQPh2Ej+VoavB5GhfQGpzeb+7VqTBJU+oQO8WZsCrt3rBvXPbQPbkdcAwnYPBxcykQOPdqL+e
oobBFA+eQG/Wy77oOZLBOd0AQcnw4r8+dYvB6vZ5QKYJisCQ7qHBAGSpQOptkcBvKKHB1RVMQAuJ
dMBMEZnBM4sTQbaUf7/D9JvBovK+QKwjicDkgJfBWvJ2QFxRZMAjaI/Bi58jQVouHb81MKPBz1v8
QPv2nb5R/TjBaYIIQSxoiD5UYK/Btv29QCOOo78t7U/BpbERQWYTNz7Ncj/BSpTmQOwKPb+1IEzB
Zcn7QJQRPL/IcZ7B9dDwQKp8SL6zeqjBotKnQJnfc8B/mY7BXx8eQarSkz3+pKzBfikBQTJWAb9F
MV3B+ifPQHiQr7+2MnTBuKnZQKymab+7epbBGv7BQHyU3L12hqvBWMmoQILRzD5AuaHBfoe0QBFH
8D/Kb5/B7etwQHwKlj4G3qPBVsq+QCPOWcBBmITBm9nCQIHP77+O0ITB262yQOnPyL9bHWTBYYn2
QPDAVL+nHHHBj+2yQCWD4r5UQpjBf2njQFq6wL8v0ozBzoATQWgGeD1vS1XBnxwyQY+sKj+jF7XB
5vpYQFV+kMDkWanB5di6QJd1ncA5+6fBfyUIQMPdaMCZs5nB6bIXQf/lvr8VjpTBcAbhQPJjjsAR
6pbBWwtUQJ30S8BsmYjBrSo0Qc4RWL+xgKHBiWHwQCYBuL4KzSjBMlUEQc2oRD+SvLbBniOoQJR6
ur9v2ULBNsEdQW5XFz/D+jTBlP+9QGKvFz/1PLLB4DG2QKv/jL8/4K3B5XWiQMzsDkA2cZjBJwjX
QHgh+j9Yzp3BF3KsQEWXH0BzcKbB82JNQBwVKD9r2ZzBlDxgQCwyZz/54qrB+fpfQDDaQb8TZ6XB
DmmsQDTzbcCpDHvBQb7eQEVId8DOXYTB6sejQDDIuL/XHIfBAZSbQBbLKL9IEpPB5g8BQRAM2b+d
KovBETR8QIAljcAPK6LBI71NQLOVe8DxTZnB3sqqQEu/ksCGd6HBWJ0TQd5LgL9XAZzBbYx4QCTB
aMAlto/BVlLAQMMjicBt4ZfBzmUjQQIENr8Kq6PB5E77QP48f76nGTnBtcwHQQphDT0UKbDBxDK/
QH0ksb/8o0/BBjEQQVVAtz6q1T/BrgTmQNkIOb+fIEzB7Mz7QP2KQL/nbZ7B1v/vQNngqr7Hv6jB
DOWoQLHodMB/947BYYUdQdoOC74Nia3BjPz/QONtxL71bV3BRt3OQPYtsr9BInTB2DTaQMkOXL8l
R5bB9PrAQEu6or50p6vBZLmnQDSJmj6kQqLBWuewQPDS6D/UrqHBeAhvQEUNnD3x+KPBTn2/QJ+N
WsDk54TB2NLCQDTH8L/+4YTBYvCzQD2S2L9QyGPB1j30QNlaOL/2UXHBpPKzQH/Ksb4v+ZfBppXj
QN28vr+LwozB4qARQbkYjT4XwVXBDiYxQeu7rD6AqLbBpT9bQLynlMD/hqnBu14JQNaMcsDe4pnB
jX28QBJqnsBySqjB7QsYQdz4tL+hVJTBripVQFT8UMDw6IjB5JniQGP9jMDgWZfBwP4zQQ5rbb/y
/6HB8EvwQA8GtL6JzSjBRlEDQVhQ5D4H1LfBlaKqQFAz0r+UYULB5dUbQR/LUz9wgjXBASS8QIbl
kT5E6rLBLtK1QIY3rL8NGK3BfuieQPucEEDc/ZrBWVvTQEqd/T/HbqDB0vymQMztEkA6N6nBUTBL
QLuoBD9KRp3B1BNbQDZYDT/3gKvB/99hQA9sgL+4XaTBkjKtQL4lcMD0xnvBs7LfQPXndsBFs4TB
AqyjQGuHur/rLofB8TeeQBDKyr4THZLBPRwBQamw2L85HYvBu6tXQE2RgcAnR6LBkI4wQG+DbMCG
hpjBvr+YQHZjhcBs46LB95UUQbYET79CjJvB8iRjQOlHXsAsXY/BuCSyQBV3e8DzxJnBhu8kQaeK
wr52hqLB6cUAQUiydr+uyjXBo8cKQXinYD+L/KzBr7XHQIXIsr69q1LBu6YRQVmt67+cTDfBirzr
QPZ1gL/TSErBjmP+QCotzL66U53BB7r0QNqw4D7aGqbBzoueQJSbZsBq64/BBQYgQVi47D6mPKvB
Z/4AQUTn9L99ClfBH5TRQJ76w79tw3LBJ/7aQGfBVb8NQZbBOz3HQBt8cT/8gqfBScmmQNRqHr6O
IaTBhFRzQCuF7T5pCqPBXF+lQArzob+dw6zBXoa5QGoMVsDVBIbB24TCQHaW6r/PnITBuze7QHK+
H7/M6mbB9+z0QCSoCsCRKGvBTeqyQDB8N78Td5nBKg7kQAA8sL+XOYzBwssRQf9XGsDjU0vBykQ0
QR+dgD+B1bPBMeYwQNhPh8D3SKnBgarXP/YUZsAWEpjBvbSnQPgyjsAAXKrBcGAYQU95ub+D2pTB
JRJFQD3zTMBw5IfBaJLUQJyrf8AET5rBRD01Qd5tMr9hMqHBHPj4QJQ/ur7VEyjBQxIHQeggxD9j
mrPBVjW2QI9Uuj5nFknBtgQdQWkyA8BauCrB/HjCQMX76j/6gaLBevPBQJIVmj9j9a/BzoVFQDvC
ob6DpaDBrpJ0QJfCoD+Z75zBuKtfQLhxZD+gw6rB5F+OQF+pAsCgWqrBmWWbQPeKVL/Wc7TBl1nF
QNMw2799nq3BA1KoQP/IbcBV4H3BuyHYQA8+eMC7zobB2rikQMHFo78VJobBz5mbQHUlgr8AipTB
MVsBQXFNu7/fCYrBKtZdQITBkMDqg6HB3TYtQE2RcMB5PZrBEruZQDtHm8AYIJ/B76QTQUi6kb+9
S5rBZglSQIMXVcAAiZDB5CCsQNqwjcCZa5XBXPMlQfWgLb9fwp/BHVQFQXwwwD67RUDBgDgQQTZ+
ej8oIanBfP3eQENiz7/ZlFDBcSoMQZowxD+2/UnBbP3zQPwww74qglDBYu7+QF2sC7/cTJzBxJb7
QE0HAT8h16PBrKyTQN12a8BXC47BW0AkQajTwz4nJKfBAUD1QMztwD71OmPBhoPOQAS7pL9E43TB
a+7XQNTFer/uf5bBW5nQQLsblz94lqXB8kOrQD2iLD4c8qPBG7CAQCEkcj8S7KLBuA6oQJmfUL98
g63BxsOnQM3aTcCvp4PBByC6QCts5L9EvITB9YPMQFVoA8DX12LBdGXiQNh7mr3jMnXB7cWxQGYr
G78N35nBvtTbQFcJ3r++K43Bwr8FQd4wxD/JDF/Bhfw6QUfrdj8szq3BKnFBQEhym8Dk7KjBZ4LX
P4IiYMDiGpzB3mmsQM7BrcC4vKTB9AIVQePL+L8olJTBJg4tQAL2LsDBAYvBcvzMQOSZlcA3nZPB
+0w1Qd/Fkb+2SZ7BoOMHQd00sj1X0S/Bh/kOQcBT5j93ta7BspvdQAQVDsB8OkLBMCsVQQpsFEBD
S0LBWh7NQDt2AEAW2Z/BWkDPQNXXyT8qyq3B9GlMQEKCcT7IwqHBGW+CQK8v0D/GBZzBhEN2QB+s
wz9IQarBQoGNQLQjwr/HJqzBkDeiQOsjf77z6rTBXy/GQMUlsL/XQa7Bo0yPQNRQTsAaqHrBPs/B
QCXvecCVfYHBYuGfQG57jb/s8IbBlieYQHcfWr/vf5XBwYj2QOYyEcDIFYzB

> <OMEGA_E>
1HWYPlDWnD6oHNY+xFbaPqjx3T74e+U+KLQKP9ofCz96xDc/qJ44Pw==

> <OMEGA_NBR>
     59767

$$$$
50224998
  -OEChem-04172616093D

 53 56  0     1  0  0  0  0  0999 V2000
    3.7060   -4.3757  -20.1249 C   0  0  0  0  0  0  0  0  0  0  0  0
    5.0869   -4.6478  -20.0415 C   0  0  0  0  0  0  0  0  0  0  0  0
    3.0332   -3.7826  -19.0380 C   0  0  0  0  0  0  0  0  0  0  0  0
    9.1362   -1.2634  -19.6276 C   0  0  0  0  0  0  0  0  0  0  0  0
    5.7943   -4.3409  -18.8647 C   0  0  0  0  0  0  0  0  0  0  0  0
    3.7389   -3.4726  -17.8628 C   0  0  0  0  0  0  0  0  0  0  0  0
   10.1590   -1.0058  -20.5533 C   0  0  0  0  0  0  0  0  0  0  0  0
    8.7303    0.6217  -21.6874 C   0  0  0  0  0  0  0  0  0  0  0  0
    7.9011   -0.5841  -19.7385 C   0  0  0  0  0  0  0  0  0  0  0  0
    7.6899    0.3383  -20.7841 C   0  0  0  0  0  0  0  0  0  0  0  0
    5.1151   -3.7689  -17.7687 C   0  0  0  0  0  0  0  0  0  0  0  0
    9.9589   -0.0595  -21.5765 C   0  0  0  0  0  0  0  0  0  0  0  0
    7.6187   -0.5878  -12.8013 C   0  0  0  0  0  0  0  0  0  0  0  0
    8.3613   -0.4212  -13.9510 C   0  0  0  0  0  0  0  0  0  0  0  0
    6.8098   -0.8458  -18.7920 C   0  0  0  0  0  0  0  0  0  0  0  0
    6.2812   -1.1800  -12.9167 C   0  0  0  0  0  0  0  0  0  0  0  0
    6.6508   -1.3639  -15.2818 C   0  0  0  0  0  0  0  0  0  0  0  0
    6.3528    1.0506  -20.8885 C   0  0  0  0  0  0  0  0  0  0  0  0
    5.2165    0.1248  -20.3674 C   0  0  0  0  0  0  0  0  0  0  0  0
    3.9218    0.9403  -20.1973 C   0  0  0  0  0  0  0  0  0  0  0  0
    4.9538   -1.0417  -21.3537 C   0  0  0  0  0  0  0  0  0  0  0  0
    5.8718   -3.3639  -16.5337 C   0  0  0  0  0  0  0  0  0  0  0  0
    6.1146   -1.8474  -16.5891 C   0  0  2  0  0  0  0  0  0  0  0  0
    7.8645   -0.8357  -15.1943 N   0  0  0  0  0  0  0  0  0  0  0  0
    5.8250   -1.5102  -14.1696 N   0  0  0  0  0  0  0  0  0  0  0  0
    5.5887   -0.4251  -19.0403 N   0  3  0  0  0  0  0  0  0  0  0  0
    7.0912   -1.5669  -17.6512 N   0  0  0  0  0  0  0  0  0  0  0  0
    5.5876   -1.3905  -11.9319 O   0  0  0  0  0  0  0  0  0  0  0  0
   11.2359    0.2603  -22.7162 Cl  0  0  0  0  0  0  0  0  0  0  0  0
    3.1621   -4.6227  -21.0247 H   0  0  0  0  0  0  0  0  0  0  0  0
    5.6016   -5.0916  -20.8808 H   0  0  0  0  0  0  0  0  0  0  0  0
    1.9773   -3.5666  -19.1080 H   0  0  0  0  0  0  0  0  0  0  0  0
    9.2920   -1.9782  -18.8331 H   0  0  0  0  0  0  0  0  0  0  0  0
    6.8534   -4.5426  -18.8007 H   0  0  0  0  0  0  0  0  0  0  0  0
    3.2281   -3.0080  -17.0323 H   0  0  0  0  0  0  0  0  0  0  0  0
   11.0988   -1.5330  -20.4809 H   0  0  0  0  0  0  0  0  0  0  0  0
    8.5879    1.3591  -22.4635 H   0  0  0  0  0  0  0  0  0  0  0  0
    8.0114   -0.2899  -11.8403 H   0  0  0  0  0  0  0  0  0  0  0  0
    9.3386    0.0347  -13.8928 H   0  0  0  0  0  0  0  0  0  0  0  0
    6.3809    1.9691  -20.2839 H   0  0  0  0  0  0  0  0  0  0  0  0
    6.1588    1.3095  -21.9399 H   0  0  0  0  0  0  0  0  0  0  0  0
    3.1200    0.2836  -19.8288 H   0  0  0  0  0  0  0  0  0  0  0  0
    4.0921    1.7519  -19.4746 H   0  0  0  0  0  0  0  0  0  0  0  0
    3.6283    1.3685  -21.1671 H   0  0  0  0  0  0  0  0  0  0  0  0
    4.1477   -1.6794  -20.9618 H   0  0  0  0  0  0  0  0  0  0  0  0
    4.6569   -0.6351  -22.3316 H   0  0  0  0  0  0  0  0  0  0  0  0
    5.8707   -1.6387  -21.4678 H   0  0  0  0  0  0  0  0  0  0  0  0
    5.2830   -3.6135  -15.6387 H   0  0  0  0  0  0  0  0  0  0  0  0
    6.8353   -3.8934  -16.4981 H   0  0  0  0  0  0  0  0  0  0  0  0
    5.1641   -1.3394  -16.8093 H   0  0  0  0  0  0  0  0  0  0  0  0
    4.8944   -1.8578  -14.2839 H   0  0  0  0  0  0  0  0  0  0  0  0
    4.8968   -0.4768  -18.3201 H   0  0  0  0  0  0  0  0  0  0  0  0
    8.0193   -1.9220  -17.5391 H   0  0  0  0  0  0  0  0  0  0  0  0
  1  2  1  0  0  0  0
  1  3  2  0  0  0  0
  2  5  2  0  0  0  0
  3  6  1  0  0  0  0
  4  7  2  0  0  0  0
  4  9  1  0  0  0  0
  5 11  1  0  0  0  0
  6 11  2  0  0  0  0
  7 12  1  0  0  0  0
  8 10  1  0  0  0  0
  8 12  2  0  0  0  0
  9 10  2  0  0  0  0
  9 15  1  0  0  0  0
 10 18  1  0  0  0  0
 11 22  1  0  0  0  0
 12 29  1  0  0  0  0
 13 14  2  0  0  0  0
 13 16  1  0  0  0  0
 14 24  1  0  0  0  0
 15 26  2  0  0  0  0
 15 27  1  0  0  0  0
 16 25  1  0  0  0  0
 16 28  2  0  0  0  0
 17 23  1  0  0  0  0
 17 24  2  0  0  0  0
 17 25  1  0  0  0  0
 18 19  1  0  0  0  0
 19 20  1  0  0  0  0
 19 21  1  0  0  0  0
 19 26  1  0  0  0  0
 22 23  1  0  0  0  0
 23 27  1  0  0  0  0
  1 30  1  0  0  0  0
  2 31  1  0  0  0  0
  3 32  1  0  0  0  0
  4 33  1  0  0  0  0
  5 34  1  0  0  0  0
  6 35  1  0  0  0  0
  7 36  1  0  0  0  0
  8 37  1  0  0  0  0
 13 38  1  0  0  0  0
 14 39  1  0  0  0  0
 18 40  1  0  0  0  0
 18 41  1  0  0  0  0
 20 42  1  0  0  0  0
 20 43  1  0  0  0  0
 20 44  1  0  0  0  0
 21 45  1  0  0  0  0
 21 46  1  0  0  0  0
 21 47  1  0  0  0  0
 22 48  1  0  0  0  0
 22 49  1  0  0  0  0
 23 50  1  0  0  0  0
 25 51  1  0  0  0  0
 26 52  1  0  0  0  0
 27 53  1  0  0  0  0
M  CHG  1  26   1
M  END
> <OMEGA_C>
oC5tQMEFjMDY/6DBvseiQG66lMD0VKDBFCBCQKIVcsDWTZjB8i0SQc23ob9pBZ3Bxmq5QOToisDa
6pbBmklvQEI/XsDr5o7BNosiQfi+gL8kbaTBKq8LQW4mHz/Cf63BhNX8QDGJFb926J3BfxP2QEwx
rT7pRabBt66jQHI2ccBmJo7Be1cfQfTmc72WnKzBBszzQCh4Fr8O0kzB3ccFQUam1757N1/BPerZ
QK2EWL8PVpbBAADJQO8Jl7/Mqk7BT9PUQPGTrr8TgnTBQ0rLQIl5hj/AG6fB5+2mQMiu/z2A8KLB
jP96QKe5cD8plKHB4oWeQEdXhb9N1KrBvuW7QMpKV8ALRYTBxqrDQIN47L9ktoTBlqn7QN3yVb8J
HHPBnWa6QLhOwb+jtmLBRtayQKii2b6LUpjBUOviQPOQyL+uNY3Bb82yQDP9sb846T7BZ8YzQRhE
hT6vurXBj19KQOHsk8CVMqjBDECzQJvuosDoC6fBfRn9PwFDZMAj3ZjB96sUQbA1/b9HqpbBtk7b
QOZckcDQZ5bBWplOQMqCQMAoQojBwJQxQYg4xL/r2KPBH2gJQbv2rT9AtbPBpi4AQdlxlL7ycT3B
CGsVQXcWDj0ISV7BIzDMQLgK/D91RaLB2RTFQPScpz/phK/BIq5HQJs5kT5xoZ7B0PKCQF4/4D8P
zJvBBjZoQO0rrz9GVqnBM7qEQAX21r+4safBSgWVQCaUIr83p7LBvty7QPK/0b8ovqvBKQ6pQDZD
Z8AqOHrBHbvaQCgtecAL/IPBe0ClQANxq79feYbBsp6cQBDM7b/7imTB+LKcQIEj9L6Hj5LBK08A
QUID9r8hUIzB5JxsQDnxjMAK0qDB8GZBQPbac8ABJJjBRoGiQNyZlcAcIqDBIgUSQTz7p7/bEJ3B
wH9uQFqkX8Acv47Bcx65QMSEi8A6vJbB5UwiQepujL9jmqTBr/YLQcwTDj/itq3BhBL9QMf/Gb//
6Z3B1Lv2QOSenz44XqbBO1mjQPANcsDHAI7BE08fQZTiJL4G4qzBTXjyQJszBr/r7kzBfYcEQWJ9
kL4Wfl/BjRvaQMklVb9zR5bBhGLJQOABnb/Uj07BYUHUQGhhrL8GjHTBV0LMQLs1hT8PSKfBJZ6n
QMirCz6i96LBEJd8QLRxdj+g3aHB/xefQIJrh78dl6rBPZG7QGI4V8DQLITB9EnDQDAS7L+ZuITB
cYz5QNWTN79vXnPB8BO7QDQLyr9ei2LBlWCzQF5lwb7TOJjBu6PiQFQyyb/mNY3B6xi0QF5ev7+f
tz7Bk30zQUg/uD0yRrbBi+hJQITolMCuBajByI/7P11GZsDrtJjBqf6yQEf5o8CF0qbBi10UQbIz
AcD0opbBr6xNQK4LQsCIGojBVgTbQCfqkcDUNZbBwhwxQbMV07+bDaTBx+IJQS7kpD/w+LPBnrX+
QKziUb4Qmj3B0YwTQcZvfz6itV7B4JHNQEL8+z8ykaLBQBPGQNBtpD/WuK/BA+VIQMU5pD5z0J7B
TbiDQIKX5T8JQ5zBD19qQCiorj8QvKnBIBeFQGnG1r9pVqfBAteVQPa7Lb8bhbLB/k+8QH0O1b+x
UqvBgcaoQIC4ZsA++3nBsm7aQOf4eMAt3IPBL96kQLWNq799jIbBbVKeQGlRAMCSMGTBM4qdQICz
wb7RX5LBCg0AQSc++b8GW4zBDG10QGb/icB7QqHBIICmQGYZksDsiaDBZAZIQGIEccD2eZjB50wT
QTblgL8fQJzBZp+8QLbtiMBGApfBgSN0QD6HXsBM9I7BmlsjQXgyHL/Yb6PBWz4IQbfUnz68bK/B
gEz7QHNFOr+top7BVELwQHO6HL6HiajBR0emQAvFb8B+LY7BFt0dQVg2zD1TxqzBGW7xQB05Fr+A
sEvBo+AEQbVnvb4AyF3BFGnZQP2Mb78bq5bBy0XHQMdFm79CNk7BFubUQJzvqr/C9HPBwXjBQOFm
lr3OoavBTT2nQLQ2tj5gv6HBi5OwQABq6z9zHJ/BLmhuQFDmOj54DKTBOQi+QH+9VcCQO4TBS9/E
QBx+6L9UioTBWxv7QECSRb88AXLBEuG5QH5dw7+igmLB2juyQFIfAL+eaJjB9R/kQHIfwb9c/IzB
FW2wQLC3ur9Z0j7BeuIxQYQ6MT/fNbXBTn9SQC44kcBDkajBVnG3QE9Yn8BcTafBTjgEQCVwZMBx
D5nBC3cXQULbwr/V8pTBmpbeQFPqjsDJdJbBoGFSQMkkQ8CVPIjBkeQzQf5HWb/JzqHB3REEQbp9
VD+6trbBJB79QLcbm74hEzzB3z4UQWcZ7T2AW1zBTlK9QMNbKj9nEbLBmXO2QGF9h79Kaq7Bctad
QNIRCUDcEJjBZ+LSQGJR+z98aZ3BcaenQJjmHUCi+6XBvjxJQCWI+j5h/ZzBiU1cQMuVTj9F7qrB
zfdgQAZ0X7/Q36XByTOrQCMJZ8DePHrB+y7dQCpxdsA484PBWSymQGkSqr+mXIbBxXqcQG+A8r9e
ymTB9xObQPkjQb9FRpPBBXEBQZMT3b8do4vBIIt1QGBWicCjfaHBjxRJQBPWb8AutJjBKganQN6a
kcBzv6DBEiMTQSnvgb+AR5zB4w91QNHDXcDcKI/BrhO9QN6tiMDjMJfB0RUjQVb5Gr+XeKPBSrUH
QQDGij5Pi6/Budr6QGmGQr/HsZ7B+nHvQGCfV74VqKjBfrOmQP9Rb8DWW47BcmMdQWoDuD3y2KzB
iRHxQB9VEr89q0vB2bQEQVgStL4+vl3BdkPZQFEqcL87n5bBKS/HQLyjm78UME7B4A7VQCwhrL9A
5nPBKHLAQA6V+b0TkqvBhZunQBUXvz6ap6HBWFizQEak7D/QS5/B7FZuQCBciT5ZqaPBnlq+QBnn
VcDvXITBYAjFQFi26L/fhoTBu/H6QCR7Qr8y9nHBfSm6QIZwxr/EdGLBq0eyQF+u9b6TRpjBUzbk
QEHnv78g7ozB7QmwQLLmuL+11z7BPEMxQXQ6ND9+Q7XBCLlTQJ9gkMBB0ajBx1IFQN8KY8BGTZnB
5/63QATKnsCig6fB42sXQTrEwr+L9JTBQ0BTQMdzQsAOcYjB4gHfQELVjsBLnpbBy68zQcCWUr/a
0aHBs2YDQb8BRz+d3bbBQYv8QLfdjb69EDzBiwMUQZmtED55TlzBzx28QGz+FT8wOLLBJJy0QFON
jr+19q3Bwo+hQJiHDEA2OpjBgenVQAyX9j9swZ3BTOiqQKo5HkB1O6bBQ3pLQHdvHz/Pj5zBr/dc
QMgQYz8mm6rBPUVdQDq3R79SQaXBh4GrQMn0Z8BBkHrBL5DdQDpmdsBtHITBB0qmQFNkqr+HUIbB
0xudQOHz+L9Lt2TBBSqbQA1vNr8GEZPB6ogBQRya2b9ujIvBIjF0QIc4jsD9GqLBa3NFQNdAeMDw
l5nB9UqmQHQslsAT/qDBOjYSQZNlo7/JrJzBWO1uQPu1ZMDi7o/BEiG7QLpejMAAU5fB4r0iQfHC
hr9uF6TBPIUMQTrXFT9HaK3B9Dz9QNKiFL9UtZ3BBmb3QL1Tqj40NKbB3ICjQG/ndcCOwY7Ba+wf
QXzL9L2aaqzBcw7sQJ4mOL9SZEzBdgDDQI7Xl7/QkE/BWlvZQHiIVL+eS5bBYhAEQcLpE79KE1/B
lmHOQLaStb+XtnTB+PHMQBoyhz9mUKfBcA+oQO4zFT6iPqPBDmR9QG5reD8OOaLBKCSgQB7qhL8C
AqvB9Zy5QGvYWsBVqoTBj2+/QDLI8r/mCYXBqXu0QPAjxL+aEmTB8z/4QCj0cL/AsXLBiNWyQP+9
wr60fJjBk2bgQDYNy7+gNY3BIVAWQSZKF76Ze13B7m00QeaFGz7QnLXBFTNUQLsHlsDegqnBjuMB
QPGTa8BVf5rBOCO4QObJo8Dvj6fBTXgUQWgz/b9ANJbB52ZLQIqKSMBaaYnBnwfdQFomksC8d5bB
hpsxQTxhzL8PaKPBDI4KQeGvqD/vrbPBoT/3QCDT7b5JjzzBlbStQAa7pL9SDULBrrrNQBKR/T+M
jaLB/XfHQGsTpz+Fxq/B4UxJQEPZpT60V5/BbsSDQOtj5T/+gpzBijBsQNtMsT+oFarBCu+FQO/z
1L9r7afBInKXQMELJr/N8bLBNG+9QJhI0r8+qavBCQmmQKCHbMBoY3vBxQbZQGpJesDFGYTB/d+g
QOeCtb8QI4fBT2UFQTM2Xb8crX/BqVycQHk+yb7pypLBqtj9QPCq+b9jD4zBT3J2QG7jjcBETqLB
SoWnQOpKlcAsN6HBehhHQHqkecDZtpnBoCwSQTuapL+IpJzBtCy8QArqi8Bvf5fB0y9wQEIXZ8D+
/o/Bq54iQZigir97JKTBy0gMQXo5Bz/Qrq3BJCz9QMQBF7+5uZ3B5yr3QP1Amj5DXKbBPUWkQDYI
d8Ae2o7B760fQWyxM74yo6zBy0TrQEyUNb8tfUzByETCQNS7lr8oyU/BGHnZQHjNUb/nOJbBU9YD
QfyQE7+oD1/BmUzOQH7otr/s1HTBXuDMQKRAhD8qfafBsOWnQDgYGT5oHqPBicd9QK/8fT9KJaLB
Ih+fQPjshr9dn6rBbjy6QFICXMDdvITBQJW/QCjY9L+6FoXBcB20QORixL/6TGTBvST4QLY1c78s
tHLBURuzQAYmsr6WTJjB1HjgQASty7+7OY3BOQMWQYzlCr6vX13BxfszQZjxgz1c/7XB7sJWQEdU
lcB4wanBkpW5QKoposBt16fBOl8DQMLGbcDCmZrBFX0UQXdh/L+tEZbBPyjeQAQ+kcBaqZbBhShM
QHmkTMDFZ4nBmIIxQQ28z79OZKPBFzsKQfjTnj/lF7TBTi72QB3r5L6BozzB/LqsQEyxor/XWkLB
rjDOQFqO/D+07aLBBQ7HQF/EoD+Y+6/BGoRJQFTIuj4qDZ/BrIqEQMhJ6j8VoJzBEBlsQOcqsT+6
EKrBuNuEQPyF1L+5VafBeiKWQPNZL78ZmrLBFie8QKzl1b/7QavBFrimQJc7bsAgjnvBtMnZQEDm
esA6LoTBquKgQETOuL+MM4fBwXMFQY4dYb+8nX/BUx6dQJT5pb5yfZLBkuT9QP/W+r/0H4zBwIR+
QKHNi8CtsKLBfh1NQPIkeMAnH5rBk5SrQACMksCSZ6HB4lcTQRhkgL9LgJvB/D90QIGFZsCJQJDB
UTy/QH/IicCihJfBvNwjQaBGKb/no6LBaacJQVA7iD4kFK/BIMn7QAzAM7+mK57BJi7yQMR4FL4a
PKjBs1OmQPL/dMB/6Y7BYQ0fQZjbjjwVOqzBxp/qQNSYML9Uu0vBqbrBQIXSlL+pME/Bc4vYQB0A
ab82gpbBMZ4DQYQIDL+oNV7B2FDOQGyps78eNnTBQubDQJYpjr3/uqvBLC+oQHZsvj4eI6LBv7Gw
QEtf7j8On5/BkDVxQJnUMz6N2KTBuzG7QC8yWsCeoITBRQTAQCfl8L/Y04TBNOWzQF76wb8oyGPB
Igr4QBBXa78c6nHBc+KxQDb/6b7CkJjBGvLgQNpaxb/76YzBQLoVQc4gyL00Z1zB9Y8zQZZeAj8h
zbTBa2RgQEO5ksB5RarB/0oJQEWabcBIJJvB1G6+QLRvnsD3AajBlgYXQUoNv7/mBZTBuqJOQG3i
TcCvsInB9DThQBS6jsBehZbBgTk0QSAya7++xqDB1fkFQVxCRT9afrbBWE/1QMbX3L7X0zvB9ges
QOihob8A1kHBvqzAQCZCKT93QrLB8kq5QFRyh7/Bh67B5uWcQLYWC0CLyJjB5rTSQA0MAEDLpJ3B
qIqoQNlLHkAYpqbByshJQBYb+z4MAZ7BlqpgQMoiSD9d5KvB/hVlQLPPYr8nlabBOCGnQGZmbcBB
nXvBedzaQM9oeMA+64PB4jShQHLktb+i84bBTHwFQWL9V7/dwX7BSiSaQJuqLb+ygJPBU07/QBKo
5L8WUIvBMo6AQBnHi8BNBqPB47ysQC5NksATbKHBrZpNQCFweMBToZrBJCUTQWNxgL9h+ZrBQy2/
QC1/icB8ZJfBzVdyQOGiZsA6npDBZQQkQfeaKr8B6qHBzXAKQS5vfz4fuq7Bkqb7QD/hNL9/7p3B
zBLzQHUBHr7qEKjBhzmlQLS2dMA09Y7BHLAfQWAJITtimavBn2/sQK23Fr9AdUzBhlPEQGBxkr+I
+k7BHqzXQB/far/IfpbB8asDQTtg177MgF/B6EjOQK3Psr8sM3TBTjHFQMpnp72L2qvBzG+oQF2e
uD4fdKLBiJKwQJ8v7T9U75/BIHVyQDj0JD6+iKXBxey4QMG9WcDyhITBw7S+QJJZ8L9nv4TB/3K1
QEXdxL9qN2PB83L3QG8VWr9wwXLBZTCxQOOh7b4FxZjB/XnfQP6lx7816ozBnXoVQXMVqj3Zg17B
AZ40QVeR9z499LPBTc9kQBq7ksCPtqrB7WnAQLcMnsC546fBaPsJQM1JbsAy5JvBxnMWQYdFvr/r
bJPBFgrhQKVMjsC3JpbBDxpLQEctTsA2MorBykg0QbiLa7960p/BFyMHQQ5HPz/7NrbBtLr3QDo7
kr4L3TzBiQqwQCSTo788J0HBo5zCQCymJT/SabLBVu66QGcuib+ntK7BsA6cQIWgCkCdPJnBJVzS
QIxh/z+kvp3BvRipQMtsHUB+CKfBpkpJQE1g8z5P2p7B6J5jQDMeRD9RpazBqehmQKKqZr+RT6fB
UcKjQJbDa8Cat3vByTHYQMsJecDzgYPBJRugQDGssr8Sw4bB37wEQaSvRr9t63/Bov6YQBc+Lr8Z
1JPB/KT9QPhz6r+6XovByK/zQMZ0nL6p5k3B1GTNQMQHgb9aHErBuL0AQfB5i70b+2LBwlITQagY
k79Zm5zBekW1QNSiv7/BX1vB6cDoQOEoBb8WRXTBImIjQcfsV78UEqTB148LQRqUQD9H0qzBiRH+
QKk6CL+rZp3BLn/2QFpN2j7Yg6XBSeTCQArcob8UhnDBNG4fQUCdwD1zO6zBq21lQKyzjMBooKHB
NPlAQGOYbsCNH5nBbUfaQG9Qeb9gi5bB+y6hQAh/k8CHiaHBOcmjQEFVWsDi1ZDBhAnLQOiEiz/c
WabBK6GnQABryD3F0aLBHV96QK5BXT+VgKHBe1ChQFqqgr/fQqvBIi+nQN754b+MS4HB0DTAQO1o
LcCx2IjBO8pzQBUATcCo4JDBq+63QO5JhcD4zZjB6lqzQDlLBL+IW5jBTtDhQNZN/r8mAI/Br42z
QEX9pMCg/ajBWgozQdH70z5tzLXBakIDQWmYVD2vlkDBF4/CQKbhlb8G6TnBzIYPQfgg7D5M22XB
4ncWQS1+7b8TQ5bBzjmYQHNeA8DgbFjBu5byQIXZmb6nOoLB68kyQdgFqr9MjKPBINgIQYetwD8l
3bLBN58+QPkomMBsLajBfK34PwfSZsB/zpjBCEXKQL39/D8FJaHBTljFQLOPsj9xr67BJsRHQH+3
Kj7f/p7BNhKBQDvc0j8XZpvBophoQFfIqT8xLKnBQxKIQEfD2r9Tj6jBcfaXQLA/Er/s8bLBo2+/
QEC0yb9mRazBSsuLQP36E8Dq1HvBu4ObQI51Z7857YXB8tfPQNdcXsAJ4IPBXw7XQJ9AjMDoJpjB
QEKdQDp7Fb+QmJLBLyEAQe6eD8DvpY3BCHoEQVIcvsCSd3zB14cAQU0VsMDrxIjBbuvwQMBNrcAa
XGvB7PsRQRiksr9U+5vBV4zhQFHQkMAqv4rBrtrQQMqzjsDwV2/B2S4jQc3yob+7MaPB09YNQd4s
fD5fOK7BsRP9QOJiNb9M6p3BCuX4QBDbyT0gIqfBoE7JQGqpf8DsM4LB2iEhQekk4r4LSqzBcrX2
QMCrKL95A0vB79MDQVjUJ76syV3B8lDYQIrTUb+yfJbBGwLPQOYyuL/bNEzB6nPQQPXPkb+RmXLB
E7PPQMgfYD+Z7KjBnY2oQChExz1/WKTB1LeBQJiKhj8mnqPBX9OcQLmwjb+EmavB7m6oQLRvOcBV
V4TBdLe8QBDLvL+MFYTBlmX0QOZo3r5io3HB1xW8QOPWy7/1AWDBmw2yQAgOzL4KW5nBDIreQIvd
rr9JZ4zBSQK/QKqr+L+QPTzBzoY2QUaoib5pK7XBPLcQQSW/1cC1cXnBcpkJQUJTvcAmVo/Bhhb3
QMPit8CTM1vBsZ8TQSJAAcAl+pTBf+nbQFbNhcB20JLBDeO9QMR8gsDOQGLBtvIxQTr35b/jwKHB
NV8MQfskYz+LIrXBmB0DQeFZ9L692TvBEB4SQeB64j7iOF3BTRnSQOvZ7D+b5KTBkhTLQEbwgz8o
j7HB8wJMQI+HAT+pY6DBt4yJQAla8j+ZTp7BU/FzQLhqtz/eo6vBQyqBQL6a0b94MajBj76UQI1x
Pr89qLPBTkK4QF2O5b9ZGKzBRiuaQNQXRMBxRozBQlGPQG73PMD7YXzBkWCjQEwUPr8Vz4XB03Gf
QDMiAsCcF2HBQniaQA8E074M85PBQrn7QPvZ2r+vnIrB

> <OMEGA_E>
ANFUPpDjVj6gj7k+oL28PlDJ2D4Q19k+bJkLP7i6Cz8K4R4/2MMvPw==

> <OMEGA_NBR>
     68929

$$$$
50225014
  -OEChem-04172616093D

 51 54  0     1  0  0  0  0  0999 V2000
    3.7759   -4.3756  -20.2852 C   0  0  0  0  0  0  0  0  0  0  0  0
    3.0497   -3.8005  -19.2233 C   0  0  0  0  0  0  0  0  0  0  0  0
    5.1564   -4.6263  -20.1455 C   0  0  0  0  0  0  0  0  0  0  0  0
    9.1286   -1.2712  -19.5522 C   0  0  0  0  0  0  0  0  0  0  0  0
    3.7008   -3.4884  -18.0169 C   0  0  0  0  0  0  0  0  0  0  0  0
    5.8099   -4.3140  -18.9387 C   0  0  0  0  0  0  0  0  0  0  0  0
   10.1682   -1.0257  -20.4635 C   0  0  0  0  0  0  0  0  0  0  0  0
    8.7864    0.6400  -21.6017 C   0  0  0  0  0  0  0  0  0  0  0  0
    7.9063   -0.5731  -19.6796 C   0  0  0  0  0  0  0  0  0  0  0  0
    7.7287    0.3648  -20.7172 C   0  0  0  0  0  0  0  0  0  0  0  0
    5.0771   -3.7609  -17.8671 C   0  0  0  0  0  0  0  0  0  0  0  0
    9.9979   -0.0694  -21.4839 C   0  0  0  0  0  0  0  0  0  0  0  0
    6.7823   -0.8476  -18.7765 C   0  0  0  0  0  0  0  0  0  0  0  0
    6.4923   -1.3940  -15.2719 C   0  0  0  0  0  0  0  0  0  0  0  0
    6.5339   -1.1212  -13.0748 C   0  0  0  0  0  0  0  0  0  0  0  0
    6.3915    1.0698  -20.8537 C   0  0  0  0  0  0  0  0  0  0  0  0
    5.2508    0.0991  -20.4330 C   0  0  0  0  0  0  0  0  0  0  0  0
    3.9264    0.8749  -20.3201 C   0  0  0  0  0  0  0  0  0  0  0  0
    5.0800   -1.0405  -21.4707 C   0  0  0  0  0  0  0  0  0  0  0  0
    5.7735   -3.3632  -16.5916 C   0  0  0  0  0  0  0  0  0  0  0  0
    6.0048   -1.8454  -16.6032 C   0  0  2  0  0  0  0  0  0  0  0  0
    7.6690   -0.8855  -14.9760 N   0  0  0  0  0  0  0  0  0  0  0  0
    5.7366   -1.4778  -14.1224 N   0  0  0  0  0  0  0  0  0  0  0  0
    7.7045   -0.6555  -13.6322 N   0  0  0  0  0  0  0  0  0  0  0  0
    5.5598   -0.4834  -19.1010 N   0  3  0  0  0  0  0  0  0  0  0  0
    7.0338   -1.5203  -17.5983 N   0  0  0  0  0  0  0  0  0  0  0  0
    6.2572   -1.2169  -11.8879 O   0  0  0  0  0  0  0  0  0  0  0  0
   11.2822    0.2143  -22.6252 Cl  0  0  0  0  0  0  0  0  0  0  0  0
    3.2739   -4.6249  -21.2084 H   0  0  0  0  0  0  0  0  0  0  0  0
    1.9945   -3.5999  -19.3359 H   0  0  0  0  0  0  0  0  0  0  0  0
    5.7123   -5.0580  -20.9646 H   0  0  0  0  0  0  0  0  0  0  0  0
    9.2624   -1.9902  -18.7576 H   0  0  0  0  0  0  0  0  0  0  0  0
    3.1476   -3.0401  -17.2049 H   0  0  0  0  0  0  0  0  0  0  0  0
    6.8691   -4.4971  -18.8331 H   0  0  0  0  0  0  0  0  0  0  0  0
   11.0977   -1.5696  -20.3823 H   0  0  0  0  0  0  0  0  0  0  0  0
    8.6706    1.3921  -22.3681 H   0  0  0  0  0  0  0  0  0  0  0  0
    6.3765    1.9574  -20.2040 H   0  0  0  0  0  0  0  0  0  0  0  0
    6.2442    1.3782  -21.8992 H   0  0  0  0  0  0  0  0  0  0  0  0
    3.1218    0.1864  -20.0227 H   0  0  0  0  0  0  0  0  0  0  0  0
    4.0290    1.6672  -19.5640 H   0  0  0  0  0  0  0  0  0  0  0  0
    3.6818    1.3260  -21.2931 H   0  0  0  0  0  0  0  0  0  0  0  0
    4.2690   -1.7108  -21.1497 H   0  0  0  0  0  0  0  0  0  0  0  0
    4.8321   -0.6088  -22.4517 H   0  0  0  0  0  0  0  0  0  0  0  0
    6.0178   -1.6102  -21.5472 H   0  0  0  0  0  0  0  0  0  0  0  0
    5.1473   -3.6347  -15.7290 H   0  0  0  0  0  0  0  0  0  0  0  0
    6.7402   -3.8834  -16.5212 H   0  0  0  0  0  0  0  0  0  0  0  0
    5.0619   -1.3356  -16.8503 H   0  0  0  0  0  0  0  0  0  0  0  0
    4.7762   -1.7509  -14.0664 H   0  0  0  0  0  0  0  0  0  0  0  0
    8.4552   -0.2212  -13.1343 H   0  0  0  0  0  0  0  0  0  0  0  0
    4.8221   -0.6013  -18.4362 H   0  0  0  0  0  0  0  0  0  0  0  0
    7.9743   -1.8037  -17.4109 H   0  0  0  0  0  0  0  0  0  0  0  0
  1  2  1  0  0  0  0
  1  3  2  0  0  0  0
  2  5  2  0  0  0  0
  3  6  1  0  0  0  0
  4  7  2  0  0  0  0
  4  9  1  0  0  0  0
  5 11  1  0  0  0  0
  6 11  2  0  0  0  0
  7 12  1  0  0  0  0
  8 10  1  0  0  0  0
  8 12  2  0  0  0  0
  9 10  2  0  0  0  0
  9 13  1  0  0  0  0
 10 16  1  0  0  0  0
 11 20  1  0  0  0  0
 12 28  1  0  0  0  0
 13 25  2  0  0  0  0
 13 26  1  0  0  0  0
 14 21  1  0  0  0  0
 14 22  2  0  0  0  0
 14 23  1  0  0  0  0
 15 23  1  0  0  0  0
 15 24  1  0  0  0  0
 15 27  2  0  0  0  0
 16 17  1  0  0  0  0
 17 18  1  0  0  0  0
 17 19  1  0  0  0  0
 17 25  1  0  0  0  0
 20 21  1  0  0  0  0
 21 26  1  0  0  0  0
 22 24  1  0  0  0  0
  1 29  1  0  0  0  0
  2 30  1  0  0  0  0
  3 31  1  0  0  0  0
  4 32  1  0  0  0  0
  5 33  1  0  0  0  0
  6 34  1  0  0  0  0
  7 35  1  0  0  0  0
  8 36  1  0  0  0  0
 16 37  1  0  0  0  0
 16 38  1  0  0  0  0
 18 39  1  0  0  0  0
 18 40  1  0  0  0  0
 18 41  1  0  0  0  0
 19 42  1  0  0  0  0
 19 43  1  0  0  0  0
 19 44  1  0  0  0  0
 20 45  1  0  0  0  0
 20 46  1  0  0  0  0
 21 47  1  0  0  0  0
 23 48  1  0  0  0  0
 24 49  1  0  0  0  0
 25 50  1  0  0  0  0
 26 51  1  0  0  0  0
M  CHG  1  25   1
M  END
> <OMEGA_C>
EalxQNMEjMAbSKLB3y1DQCY8c8BAyZnB4wClQLMKlMAQKqHBtw4SQbu1or//apzBc9psQCdCX8CI
IpDBE+u5QBIMisBogpfBzLAiQT5Jg79LtaPBHJUMQfzYIz890KzBiwD9QOu2Er/Fb53BSlH3QAzE
uj6/vKXBg3eiQH+ycMDM747Bl/cfQR4qjr0b36vBTAjZQJ/9WL9KNpbB6cDPQF1usr+8WXTBEBbR
QLSCj799MlHBgofMQCLwiD9Y1KbBwQaoQGjxyj3idqPBY0p7QP74Xz+pj6LBKY+iQBEuhb8BxKvB
vsC4QEo/V8Ceu4TBBifAQOQ27L9P04TBs2j1QLeyYr9+nW/BApK3QB0ovb9Z9WHBI4v2QPTPJ79S
HVrBh+mxQBiB977BzpjBjxThQNOawr9KyYzBKTvIQPDBm7/1ND7B44M0QUZ1Wz51ALXBp4dRQPH+
k8C6qqnB5Er/P8VkZsD2r5rBScu2QHrbocCSt6fBrDIUQee+/r+DD5bBFnJJQBORQsCPo4nBZ8/b
QO3nj8BBqpbBDJAxQW/nyL/aDqPB9roKQSswsj/d8bLBTQzMQJyK+j/SoaHBqNDHQN5psD+kMa/B
+spHQFPZPj54LqDB8O2AQPNm1T8jg5zBiKJrQDe7qT9FWKrBxJuIQB372r+vMqnB6KCaQOncG78B
nbPB+ZHAQEUbzr+cYKzB5rakQC2faMDOqXvBrK/XQAGKeMBVK4TB2/qhQHD2qr92zYbB5taYQP0e
4L8qEGHBWkgHQaF6Yr5AJlLBg06aQLLsGb9DfZPBdS3/QB3f5r+OSYvBXaVyQFv1jMB0bKLBRYOl
QFLSlMAARqHBjOdDQEvhdMAU95nBxy4SQf3goL8ITZzBmky6QI+cisD8nZfBbFdtQJtpYMCOUJDB
Cw8jQXgtf787aqPBD8wMQTMrID8W5qzBjfL8QHaDFL9Kh53B70H3QCKvqz69/6XBs7OiQEu3ccAp
FI/BA24gQb3aR73oo6vBBhLZQMlOVr/TNJbB2w/QQHf0tr8QYnTBq5zRQNQXkb/3MFHBvXPMQFld
hD8iTafBIbWnQIQq3D05W6PBAhB8QMOfaz+vcaLBTX6gQAnjiL90N6vBJMq4QNCEWMAp2YTBIDDA
QHPH7r+T3oTB1Rj1QIDnXr9A4m/BFNS4QJELyb+uv2HB0NH2QEn2Kr9vVVrBcTSyQIhP2771lZjB
ev7gQOxmxL8p34zB/BfIQOW4kr9xOD7BNIQ1QRKjjj6pXbTBe69SQN8llcBOzqnB12i3QPGtosBx
zafBxFsAQGY9aMAe5ZrB9T8UQTJm/L+U6JXBgjPcQN9YkMDhvpbBJsZJQBJ1Q8DG2YnBDg0yQUYE
w79YlKLB0+4KQeZ+rj8JJLPB22zMQEwR+z+JkaLB/2fHQFFYoz/eyq/BxhRIQC7+hz6kp5/BdpWC
QNvz3j/ns5zB82BrQJHjqj/VUqrB52aGQFKH2r+hPajBNvGXQHBxLL/aJLPBuwW+QAfb1L8H2avB
4KKkQA0masDR9HvBkLjXQAfNecDiRITBTPyhQGshrb/aw4bBVw+bQO0R978OlWDBr5gHQbsWfr5I
b1LBvT6bQO1r9b44B5PBNAL/QAut6r+Pd4vBow59QCoMi8BCpqLBbGhLQPGgc8BQSJrB8IyqQBPP
ksBGIKHB33cTQXEkg79aXJvBJb9xQLLJYMA2YpDBy8K9QPiNicDPNZfBYCgkQcdRIr9iN6LBYDgK
QZlhrD4Olq7BlCb8QP0QOb/rH57BYP3yQFLqBL6TFKjBqs6kQOpBccAAzo7Bl48fQXBPyz3cj6vB
YsPYQIC0cb/hkJbBWsDPQIKDrr8TGnTBdaDQQI8yjr+66FDBru/EQACKZr0zxqvBimCoQAFGrT6n
N6LBPT6wQIga6T9dTJ/BtxZyQAT/Ez5HOqXB35i5QGt8VsDodoTBULTAQDRa6r+Hs4TBj770QJxi
UL8aRm/B7JO3QJ+yvb/iv2HBOIT1QLBYGL+9uVnBN8ixQPhEB79s0pjB+5/hQKLEwb9Xu4zBseHH
QL1enr9A8z3BfFQ0QeJXMD/1jbPBZJVfQFZUksDlP6rBVf4HQLezZ8DyeJvBPYe9QO3an8B7kafB
KvcWQUaixr+oBpTBovFLQGS3RcCe/YnB8H/fQC5jj8AzCZbBR300Qc5TZb+8UqDByrcGQeHqXz/N
3rXBr+7BQHmpMj/XIrLBb+W6QO7GhL8T3a7BcNibQNFoBkCOe5jB0w7SQI0R+z+HIJ3BCm6oQIU4
HUDwNabBkGdJQMk32j6aaJ7BznJiQH9eRz+HJazBe7hmQDcCab9/SKfB/KukQOhDZ8CWaXvB7obY
QAlUd8CXkoPBxG+iQLuIqr+pxIbBEiKZQKyT5L+972DBSnoGQb/lC75TrFHBFqiZQDUMTr/oDZTB
DhAAQexu3L8R+orB7kt9QLGnisBa0KLBh76qQCwmksDKVqHBEI9LQPn2c8BTYprBU2gTQS68gb8J
WpvBXfu9QAAwicC1aJfB9u1xQBfQYcCad5DBFxAkQRT/H786O6LBWA4KQShmqT5EpK7BWf37QKzZ
N7/FHZ7B+bbyQDSrBb7rFqjB9PekQLTKccAT747BBWsfQfBRyj30navBqK7YQDwGcb9RiZbB8+7P
QLCQsb/LEnTBJ4zQQJ10jL+O6FDBRpXEQLDUXL3AuqvBR0WoQFCxsT4MI6LBAXOwQLAe6j+VPZ/B
Xq1xQBxWJD6NFKXBAr25QFitV8A0j4TB6c3AQBi77L/ZtITBjuD0QE4TVb9bTm/BrNC3QJZLwL9m
rmHBS3/1QL2bF78x0FnB9LaxQMhLBb8Kv5jBSZ/hQPjxwr/xvozBK6PHQMz1mL9P7D3BViw0QdtT
Lz8/o7PBf8dfQBa2kcC3bKrBj8G9QLzDnsAS1KfBlQwIQBpeaMBCipvBJ/IWQWN2xL+f/pPBlsnf
QGLCjsCzRpbBQwlMQAykR8A5BorBgGk0Qc2GYb9hU6DBeYQGQbZYXD+g9bXBA4XBQIjIMj+cGrLB
QGG6QIl7hL+pyK7BQzycQBUyB0D1ZpjBj1TSQFRm+z/UHJ3BdZuoQDHAHUAgJqbBjmNJQGur5D6G
PJ7Bm/JhQA9/Sz++/qvB6dxlQKjDZL/qHafBFs6kQPDmaMD0o3vBMa3YQE+JeMAbsoPBLH+iQDHa
rL+quobBhZSZQJyf6b8zzWDB3HMGQaOcAb4M2FHBkKOZQFEmS78d85PB5xEAQRbv3b99B4vBY29z
QPnxjMBo56LBQbdEQJ10dcDtZ5rBVu2lQCTNlMBAyKHBOxsSQbiAo7+oZ5zB2DBuQEWnYcCKvpDB
vsO6QO/YisArHZjBsb0iQZiZh7//xqPBgowMQTbaDj9ZVq3B+Qn9QLifFb/Bj53Bg1v3QMdQoT5g
JqbByiWjQD/HcsC7io/BVfwfQQz0Db5cM6zBy/fYQGJiU7/LMpbBpBrNQNqzvL/RSnTBPlT2QAAq
Nr8aD1rBBefMQN4NhD+fYqfBxguoQAS72z3LhaPBnbh8QFTTaz8GvqLBgjahQE0Uib/OZKvBowm5
QEhLWsDSRYXBvLq+QKus8b91AoXBlDK2QBi1w79+tWLBRp71QMaHgb+dUm/BWXnPQDV8kL99EVLB
DSSyQL0V2r6dtpjB1mDgQG4kwb+4wIzB7cgJQahwLr5BXlDBvZs0QVdABT5pVbXBFW9TQFzqlMBk
TKrBNikBQEPGaMAfUZvBssy3QPR0osCPV6jB0kgUQUBo/L8A4ZXBWZtKQP1RRcAhPYrBG67cQI6M
kMD1QpfBqqIxQfaGzL/I+6LBmpgKQYh0oz/LtbPBPSzNQMHH+T/9jqLB7+fHQF3zpD+b2a/B8nhI
QMkxiT4bAqDBx66CQDZP3z8XAp3BCL1sQI2kqj9Mp6rBUgKHQCHE2r85fKjBrgCZQN4jLb/0WLPB
4si+QBT01L828KvBRmGlQLyvbsBd3XzBYInYQIaHecAF2ITBekigQPbqsr8MCofBdAgHQT1Oar+a
h3nBWyTHQGCSkb/snkLBeOeaQKTQ9r46O5PBNY/+QA7C4b/FC4vB+5xzQPfMi8Ak7aLBvuilQFMf
lMBYwKHBBNNEQEcoc8Bub5rBIfcRQTD2or/sHZzBnJy6QC2ZisAwCpjBgQVuQPk2YMADu5DB+8Ui
QTuvh79RZKPBzuAMQed6Dz/NF63BAN78QHnfE79DZZ3BuK33QKVipT5b/aXBbfWiQLIicsDOe4/B
TT0gQaH/Eb4M2qvBCWvYQAGOUr9aKpbBP2DNQAcUvb+nGnTBcr/2QMNRJ7/pdVrB8kjNQOkIhT+J
V6fBekaoQL6a1j2ct6PB6tt8QB+XaT9NGaPBLESiQFATiL+gu6vBBsG4QH/2WcAHM4XBTlm+QOv3
8L/i5ITB6Ve3QPo0xr/9QGLBudX1QKGDfr91jW/BpgzRQLA1kL+g5VHB/5mxQHiK4b4J4JjBN73f
QECnv7+JrIzB+HMJQbhsobyLbVHBJAI1QdQJ3D0u77TBA9NTQDhrk8CzW6rB3My3QCPOocDtTajB
lW4BQFLQZcC2YpvB4fYTQeGw+786kZXBMHHcQD+ukMBKJJfBKmNKQOTuQ8DNOYrBNaIxQafDzL8L
f6LBcx0LQcTMoz9WerPBZCbNQBja+T/sbaLBitbIQH12pz9Vza/BglxIQG62gT7yiKDBhi2CQFOU
3T/KS53BZgluQFlUqj81BqvBpfaHQOvl2r8CA6nBRpiaQEZ4KL/Qr7PBC/y/QBwt07/mMKzBuRKl
QIyhbsCLwHzB4kbYQLcaecAMxoTB58+fQCoAsr9kz4bBeAsHQeH7aL/75nnBHrnJQCUElL9IVELB
/N6ZQMeYBL9Ki5PBPvr9QBki37+A8orBVg2CQK4yisBBl6PB1A1RQJaPdMA/MpvBexSuQIedkcDq
9aHBhiMTQbqDhL++cpvBGPh1QBy+Y8DtKZHBEKXAQG0micCM65fBWLcjQfTwKb89dqLB6n0JQTiD
XT58Gq/B8lT7QNIyQ79zQJ7BKNjxQLT0bL6Ia6jB7PSmQNgOc8CTfY/BpuUeQYAoiTwpCqzBfAnY
QPqjbb9hhJbBzTLMQMhKtL8T6HPBgev1QDhtPb/WSFnBeJ3DQKZuHr4m8qvBtoGoQBQgrz7mb6LB
8Q+zQFm96T8aE6DB63FxQKxwWD4eL6XB1se6QKhFWcBA/oTBKf++QIad7r92zoTBgMW1QDFRxL+o
QGLBe3DzQGiKWb/m+W7Bs8HNQMq6hr+brFHBclSxQB2N+76XzpjB5ongQFBbvL8IjozBF/UKQbC/
677C807By20zQUiIFj8CR7TBxbZnQOy8kMD+S6vBC6gNQP0ZacBOeJzBkI/BQLPKncBWaqjBIcwW
QTtIw79++JPBf/pOQCgTS8D/uorBMGjiQLeVjsC8q5bBih40QelkZr81gqDBbdAFQZkfNj8Gj7bB
KZfAQNDyCz+/rrLBNYi4QMRVk78tca7B7aSfQHU4C0CKSZnBvDbVQKQA9j/aFZ7B9NWrQJfdG0DO
LKfBBsdKQEDaED8mZp7BMvxiQKZJUT8rTazBVTNiQK3HV7/Z0abBk0WmQORtbsAzsnzB1pjaQP24
dsCkNITBbDCgQLpYtL+4AofBOvwEQQlIE792dHnB5NXDQPP/cb9Nj0LB9RyZQM72Ob9z7ZPBbSH/
QNakzb+meIrBUN2BQD1di8AavKPB7QiuQKcrksBaLqLBpwhRQO8IdsCiW5vBS/gSQaqxgr8qU5vB
S93AQCrkiMDVNpjBH4Z2QH1aY8AUaZHBCmkjQalKHL9CRKLB7NcIQWXqEz4zQq/B6M36QBD7UL+U
TZ7BEvLwQF81sL6+oajBnE2nQHQRcsDLyI/BHEoeQdQgFz0H86vBWrrXQOAob7/gdpbB5fvMQPOa
ub8Lr3PBpcjzQFcjDr9xqlnBdnXCQIgwib50+avBTC+pQOIXrz4UkKLBzAu3QBxm6D/30KDBMP5x
QPyQmT5sBKXBaR67QC9XWcCmPIXB2TK/QFEU778QwITBkU+2QBufxr8NE2LBrGj0QKRHZ7/zvG7B
KZzOQEKKi7+HdlHBrGOxQExF676ts5jBG3bgQH0Our+Jc4zBtykHQbd9Bj7tZVDBeYYyQY+QNj/l
2bPBqtlmQMmzksD9XavB3mvBQASAnsCroqjB+XINQHBYa8CMlJzBK8sWQSSbvr/dxpPBPbriQPLh
jcBrBZfBatpPQMq1ScC0AYvBBe4zQcZ7Sr/FLqDBYP4EQeajGT8B2rbBeDW/QHYHvT4MGrPB41C2
QFBJo7+oxa3BNeqkQAujD0ArGZrBp3fZQMEC7T+M/57BD5iwQChXGUCqHajB6D9OQGpbPD8DSZ7B
De1kQJScYD+yU6zBldVdQOFcPr/pMqbB+7CmQPvCb8A6SH3B0gHbQGaddsBuiITBMk6gQGPks7/Y
xobB9nsGQRD2SL+O0XjBeb3GQF4Rkb9F+EHBWzaZQE4dJL+QqpPBfhz/QMj7xr96TIrB

> <OMEGA_E>
SOEvPuDiMj4AR6I+wFKjPhgY2T5kztk+2MQNP9RuED8=

> <OMEGA_NBR>
     76120

$$$$
50225011
  -OEChem-04172616093D

 55 58  0     1  0  0  0  0  0999 V2000
    3.7703   -4.3872  -20.1458 C   0  0  0  0  0  0  0  0  0  0  0  0
    3.0983   -3.8498  -19.0306 C   0  0  0  0  0  0  0  0  0  0  0  0
    5.1584   -4.6307  -20.0901 C   0  0  0  0  0  0  0  0  0  0  0  0
    9.1502   -1.2656  -19.6263 C   0  0  0  0  0  0  0  0  0  0  0  0
    3.8124   -3.5676  -17.8559 C   0  0  0  0  0  0  0  0  0  0  0  0
    5.8779   -4.3379  -18.9175 C   0  0  0  0  0  0  0  0  0  0  0  0
   10.1606   -1.0551  -20.5805 C   0  0  0  0  0  0  0  0  0  0  0  0
    7.3063   -0.8246  -12.7442 C   0  0  0  0  0  0  0  0  0  0  0  0
    8.7460    0.5728  -21.7299 C   0  0  0  0  0  0  0  0  0  0  0  0
    6.0030   -1.2929  -12.9803 C   0  0  0  0  0  0  0  0  0  0  0  0
    7.9253   -0.5675  -19.7351 C   0  0  0  0  0  0  0  0  0  0  0  0
    7.7189    0.3354  -20.7994 C   0  0  0  0  0  0  0  0  0  0  0  0
    5.1990   -3.8185  -17.7969 C   0  0  0  0  0  0  0  0  0  0  0  0
    9.9589   -0.1349  -21.6286 C   0  0  0  0  0  0  0  0  0  0  0  0
    8.1558   -0.6236  -13.8473 C   0  0  0  0  0  0  0  0  0  0  0  0
    6.4648   -1.3630  -15.2652 C   0  0  0  0  0  0  0  0  0  0  0  0
    6.8247   -0.8111  -18.7883 C   0  0  0  0  0  0  0  0  0  0  0  0
    6.3901    1.0577  -20.9104 C   0  0  0  0  0  0  0  0  0  0  0  0
    5.2483    0.1320  -20.4036 C   0  0  0  0  0  0  0  0  0  0  0  0
    9.5543   -0.0994  -13.6552 C   0  0  0  0  0  0  0  0  0  0  0  0
    3.9552    0.9502  -20.2414 C   0  0  0  0  0  0  0  0  0  0  0  0
    4.9947   -1.0317  -21.3955 C   0  0  0  0  0  0  0  0  0  0  0  0
    5.9569   -3.3934  -16.5777 C   0  0  0  0  0  0  0  0  0  0  0  0
    6.0672   -1.8614  -16.6118 C   0  0  2  0  0  0  0  0  0  0  0  0
    5.5973   -1.5430  -14.2392 N   0  0  0  0  0  0  0  0  0  0  0  0
    7.7227   -0.8992  -15.0856 N   0  0  0  0  0  0  0  0  0  0  0  0
    5.6011   -0.4231  -19.0732 N   0  3  0  0  0  0  0  0  0  0  0  0
    7.0908   -1.4893  -17.6145 N   0  0  0  0  0  0  0  0  0  0  0  0
   11.2062    0.1158  -22.8188 Cl  0  0  0  0  0  0  0  0  0  0  0  0
    3.2204   -4.6138  -21.0472 H   0  0  0  0  0  0  0  0  0  0  0  0
    2.0371   -3.6555  -19.0794 H   0  0  0  0  0  0  0  0  0  0  0  0
    5.6691   -5.0421  -20.9482 H   0  0  0  0  0  0  0  0  0  0  0  0
    9.3088   -1.9581  -18.8128 H   0  0  0  0  0  0  0  0  0  0  0  0
    3.3004   -3.1585  -16.9975 H   0  0  0  0  0  0  0  0  0  0  0  0
    6.9433   -4.5099  -18.8760 H   0  0  0  0  0  0  0  0  0  0  0  0
   11.0913   -1.5986  -20.5105 H   0  0  0  0  0  0  0  0  0  0  0  0
    7.6479   -0.6236  -11.7396 H   0  0  0  0  0  0  0  0  0  0  0  0
    8.6050    1.2957  -22.5198 H   0  0  0  0  0  0  0  0  0  0  0  0
    5.3274   -1.4521  -12.1528 H   0  0  0  0  0  0  0  0  0  0  0  0
    6.4184    1.9719  -20.2993 H   0  0  0  0  0  0  0  0  0  0  0  0
    6.2054    1.3247  -21.9614 H   0  0  0  0  0  0  0  0  0  0  0  0
   10.0517   -0.0134  -14.6325 H   0  0  0  0  0  0  0  0  0  0  0  0
    9.5123    0.8903  -13.1769 H   0  0  0  0  0  0  0  0  0  0  0  0
   10.1207   -0.7921  -13.0153 H   0  0  0  0  0  0  0  0  0  0  0  0
    3.1482    0.2943  -19.8829 H   0  0  0  0  0  0  0  0  0  0  0  0
    4.1215    1.7581  -19.5137 H   0  0  0  0  0  0  0  0  0  0  0  0
    3.6715    1.3835  -21.2119 H   0  0  0  0  0  0  0  0  0  0  0  0
    4.1841   -1.6697  -21.0135 H   0  0  0  0  0  0  0  0  0  0  0  0
    4.7081   -0.6222  -22.3754 H   0  0  0  0  0  0  0  0  0  0  0  0
    5.9122   -1.6291  -21.5019 H   0  0  0  0  0  0  0  0  0  0  0  0
    5.4194   -3.7110  -15.6720 H   0  0  0  0  0  0  0  0  0  0  0  0
    6.9611   -3.8423  -16.5845 H   0  0  0  0  0  0  0  0  0  0  0  0
    5.0933   -1.4352  -16.8942 H   0  0  0  0  0  0  0  0  0  0  0  0
    4.8897   -0.5042  -18.3752 H   0  0  0  0  0  0  0  0  0  0  0  0
    8.0393   -1.7464  -17.4297 H   0  0  0  0  0  0  0  0  0  0  0  0
  1  2  1  0  0  0  0
  1  3  2  0  0  0  0
  2  5  2  0  0  0  0
  3  6  1  0  0  0  0
  4  7  1  0  0  0  0
  4 11  2  0  0  0  0
  5 13  1  0  0  0  0
  6 13  2  0  0  0  0
  7 14  2  0  0  0  0
  8 10  2  0  0  0  0
  8 15  1  0  0  0  0
  9 12  2  0  0  0  0
  9 14  1  0  0  0  0
 10 25  1  0  0  0  0
 11 12  1  0  0  0  0
 11 17  1  0  0  0  0
 12 18  1  0  0  0  0
 13 23  1  0  0  0  0
 14 29  1  0  0  0  0
 15 20  1  0  0  0  0
 15 26  2  0  0  0  0
 16 24  1  0  0  0  0
 16 25  2  0  0  0  0
 16 26  1  0  0  0  0
 17 27  2  0  0  0  0
 17 28  1  0  0  0  0
 18 19  1  0  0  0  0
 19 21  1  0  0  0  0
 19 22  1  0  0  0  0
 19 27  1  0  0  0  0
 23 24  1  0  0  0  0
 24 28  1  0  0  0  0
  1 30  1  0  0  0  0
  2 31  1  0  0  0  0
  3 32  1  0  0  0  0
  4 33  1  0  0  0  0
  5 34  1  0  0  0  0
  6 35  1  0  0  0  0
  7 36  1  0  0  0  0
  8 37  1  0  0  0  0
  9 38  1  0  0  0  0
 10 39  1  0  0  0  0
 18 40  1  0  0  0  0
 18 41  1  0  0  0  0
 20 42  1  0  0  0  0
 20 43  1  0  0  0  0
 20 44  1  0  0  0  0
 21 45  1  0  0  0  0
 21 46  1  0  0  0  0
 21 47  1  0  0  0  0
 22 48  1  0  0  0  0
 22 49  1  0  0  0  0
 22 50  1  0  0  0  0
 23 51  1  0  0  0  0
 23 52  1  0  0  0  0
 24 53  1  0  0  0  0
 27 54  1  0  0  0  0
 28 55  1  0  0  0  0
M  CHG  1  27   1
M  END
> <OMEGA_C>
JE1xQBpkjMCWKqHBUEtGQGJidsC0PpjBvBGlQL0ulMCNuKDBCGcSQbcAor+aAp3Bkf5zQEJTZMDh
2I7Bzxe8QA/QisD4VpfBrpEiQSIPh7/npKTB6MzpQLIYU79Y6EvBuO8LQQuhEj/I1q3BNhjAQPB9
pb8sr0/BXpz9QH5JEb+T4Z3BkQH3QE27qz43ZabBX16mQC5idMAnYI7BplcfQbghCr5lB63BCH4C
QfqkH7+Ojl3BPd/OQLF2rr9aPnTBkWPaQKKiT79zTpbBinvMQNdhhz98SKfBYvKnQGAiBz6dOqPB
at4YQZCOy72Be1rBgCF9QHFBcz997qHBltSfQPMNhL/yKavBw56+QFYtWcAtn4TB1SbCQEtB7r/e
5ITBxRyzQFGAxb/i02PBWSD3QIIxZr+1XnHBlzyzQBCi2L79lZjBtefiQC+ivr+E6ozBvkwzQQwo
7T3RjLbBThpOQEykk8C5YKjBsl8CQPbyacCvopjBZWm1QDxZocDnlafBsfAUQUOk+r+ogJbBuDlT
QAclSsDR+ofBnC/eQF5RkMAlApfB1nUxQXmdzL+BFaTBwrv0QBCmH79g1TvB8q0JQYzYpT93KLTB
P3qqQK7dub/TcULBL2PNQB1n/D8IZaLBgZLGQGaPqT/ssK/B1dMgQb2fW7yrHmrBTjIYQefrYz+q
1FLBVe4hQTjESr+hPlDBkXtJQA6ylj4wEJ/BE+ODQOcK4T8XHJzBN/lqQAIXsT/1sanBIuSFQCy3
1b+mG6jBbaiWQDRHH7+5ALPBYDC9QDWH0L/wA6zB7GutQEuAbcCZwHrBUcHeQObndcAbrYTBQ/yi
QH+zt79VJ4fBGnicQOsRAb93AJPBEqEAQTOL37/0b4vBos9wQOBAjcAdY6HBUMmkQEIelcCQ06DB
qDlFQHx2d8AAjJjBIogSQRUqoL+g/ZzBdXS7QAyhi8D2ZpfB3EJyQCQOZcD7Go/BAZUiQawBhr9L
sqTBTk3oQKZpNr+/cEzBLMcLQUBzET/B663BGly/QOmDn78+DVDBB7z9QC5QD7+02J3BANr2QGUz
qz6/a6bBRG+lQCaudcBcgY7BNjkfQQDnCr5tIK3BRd8BQe41Cb/YEV7BevHOQEfLsr+SdXTBSqPa
QOIDTr9ENpbBtTXMQJ50hj9nWKfB0emnQMwWCz71CKPBfVcXQWAGAz4fXlvBVtB8QHW8cz+C56HB
37+fQDNqh78Er6rBx2u9QKwhW8CjrYTBBgLCQC+38r9C/YTBTCezQKPHyL+BCmTBEI32QIAyYL+G
w3HBg7mzQBw6wL5fSZjBJsriQGtdxb/FEY3BLRkzQajD3z0StLbBtBpOQKOxlMCvn6jBkl61QM5u
osAKo6fBw2IBQO3MasAmCJnBpTUVQTKd9787b5bByYbdQJQskcBk/JbB3hpRQK0xSsD1TojB/H0x
QT9Xy7+QJ6TBEH7yQK88476SfzzB1mwJQa+MpD99RbTBN7WpQIfjsr+IzULB/jjNQJ5S/T+toqLB
bffFQH9ZpT+uya/BI/8eQTlQej4VG2vBQCoVQcUHjz86/lPBrIohQcV7/L5oBlHBVHdJQOhemz4c
2p7Bj6uDQLQ65D9LSpzB9UxqQK9DrT9yw6nB/fSFQKn317/icKfBI1mWQM6xLb8kmrLBqCi9QATX
07/mb6vB2ZmrQC50bsC/93rBNj7dQPU3ecA/moTBuhKjQGkLur+FPofByqKdQP6zyb4HgJLB8WEA
QTqU7b+q1YvBuH57QGhRisBMKKLBUCOqQKW9kcDFVKHBRIdNQIoddMBhW5nBi30TQZISgb8xJJzB
/p2/QJcKicB4rpfBUDp4QDz/YsCHtY/BtXAjQRP/Ib/XfKPBJCfnQOkcNr8nbUvBJxIIQeRoST4W
wK/Blde+QLY4pL/0Uk/BVI37QBfDQr9FmJ7BWD7wQIIIhL64u6jBNG2oQHqocsBB1o7B6LwdQVDP
4TzYCK3BSEsBQQi4+L6c6lzBrhbPQAKvsL82tHPBFpzZQIvnaL8ogZbBGFnBQHRbOb78s6vB1KWo
QASLvT7c+aHBVGgWQSyGXD7v4VnBxvC0QDwH7T/UDaDB+HVwQKG/iz6tAqTB3yC/QBH7WMCOwYTB
DMzCQJbh7b+atoTBDkazQICSzL/Yb2PBCP71QPXPUL8ZwHDBv92yQDLo4r7mVpjBo3XjQFwdvL/y
s4zB94MxQYJUHz/BnLXBV6BaQCggkcClkKnBbKa7QHEbnsCfG6jB0p8JQM5haMCGB5rBpc0XQXG8
vb/nrpTB3KvhQMZdjsAqDZfBVjdVQMDWScCx9IjBuwg0QY2aWb8o0aHBYd/wQGvj5r46YDvB5roD
QTlwLD88MbfBRiupQIcMvL+mMkLBOB+9QOz3+j40mLLBLGe1QFqBl7/Fv63BhxkeQexRuj58iGnB
8rMTQQaOmD98PlLBZ9cgQe6Hy74Epk/BFDijQLJED0DUG5nB14TXQG059j/Xgp7BHdKsQNJ/HED9
LafB+phNQKbeKj8SDJ3B185fQKxiXD+ZJqvBc61eQDB9R7/HSqXBBcCsQNJ0bsCYfnvBsjrfQGHS
dcAZj4TBAKqjQK2/tr9U8obBuJSbQNtbJL9uFpPBSSMBQbhcz7/y6YrBINZ6QC6oicCIWaLBW5lM
QHu3c8CRhJnBQdipQIrbkMABh6HBMXITQVHIgr9TBZzBmRd3QEQVY8BQ14/BEji/QJ9miMBo2ZfB
MXcjQdjaJL/LUKPB7ITnQHwTLr8Em0vBUDEIQVXjLj7Ws6/BDjPAQAdiqb9KJU/B9oL7QOKzRr+4
iZ7Bv1nwQPsPkb4kt6jBmeOnQOhVcsC/+I7BlNcdQRCeZDxM4qzBIeUAQVdEzb7DV13BRFDPQJHO
sr+5qHPBgYTZQEpaab+JdJbBGXLBQCISTr4nsKvB6fioQNIJwD4bAqLBSCUVQSkqzT4eulrBZte1
QGp47T94QaDBOf9wQD/ulj5SBaTBcXC+QEF8WcD21ITBb5HCQNL77r9asoTBjnS0QIwO1L+0J2PB
jSn1QEwgQr+7DnHBhvuyQMlI2r5vR5jB1zbjQK39vb+jsYzBRLYxQbxZIj8NS7XBjh1aQGhHkMAu
x6nBHKMIQL1QaMAxMJrBkna7QGHdnMDFU6jB5a4XQeB3v79wjZTBUN5TQE+dSsDDEInBNE3hQGuL
jcCSOJfBwAw0QdOCW79fl6HBIF/xQJC0z756ojvB6OsDQWY9Iz/yMbfBx2urQG5nxr+Z0kHBa1e9
QH1P6j7jqLLB4Dy1QJM0mr8fm63BiUgcQQCRFj9eiGrBlGcRQecYrj8w+VLBVIggQcHDJL5pwlDB
n06kQFevEEBaWZnBBXTYQA1b9T8+u57B7uitQLEcHEDQcafB24lOQA8ENT+RF53BhcZgQIgLYD9G
N6vBe09eQFFpQb90MqXBysarQBP6bsDtvXvBLWfeQDDqdsCWmoTBVYqjQGVYtr+m34bBDbybQBMN
Gr+/9pLBh/4AQVUT07/p8IrB84x6QBXygMAWlaTBGk1EQEk0WsAQCp3B51CoQFZ5icAj96HB6qwS
Qd4zpb9Q0JvBY4BjQJmlRcDnxpLBCeC3QDrgfsCGspfBBIQjQSD8i7/bJqPBypzuQOItQr8lu0nB
DoEMQVg+sD50963BPMDbQPohAMBAKE7BLjf9QJP5K79Ak53BACP3QEi0DT46tqbB12mcQC24WcDe
/4/B1GwgQRqAjb5dN6zBOFDxQCRpPz7pW1rB6mnPQOCGqb+0j3HBUuPYQFc/XL/6HJbBeuvMQH1+
Xj+AH6jBlWenQHhZcryzFaTB2xUCQRADxz8FHVbBpth8QBg3Vz/RC6PB++CeQEWVkr/wQazBhDGt
QMF8RcDI4YTB96S9QFfAz7/F5YPBC4LMQH8KEcBs5mHBPRzhQDYu0r12423BRZexQK5jEb+XPJnB
Zj/gQPl3r7+X3IvBclg1QYT6kbw8PrXBsRViQOmaicAcXqzBaNoCQByVS8DYIZ/Bj1W9QB6xl8C6
1KfB3BQVQTfe9L8d25TBaDY6QIaRJsAQCo3BBtzYQJHxhcAbspXBjs0yQULcyL9W1KHBzb/6QINm
CL+09TnBcjUKQTZTej9l3rTBdHDZQOXtL8BsukHBiarNQOAn5z+og6PBziLIQL19jD/NpbDBDOwA
QTrMCkC0q2TB/WfyQGOhAkANEEnBTf0SQaSAuT9rg1HBe99HQBm9Vz4cL6DBwwmEQMUU1D/qUJ3B
CkFsQGzDoT9j5qrBk06EQB/z4r8xaqnBwnGWQDmFNL/UCrTBRtS7QD1y4b+EIa3B5zSTQDgmT8AK
JH7BPrjHQGJiccD2DIPBO76iQEgocb+mfIXBpYCZQHEcOb9kHpTB8GT+QIQHyr/7wInBcR+GQJKi
k8DSLaTBQhesQN6kp8A3u6DBbb1mQNzZZsC24J3BPUQRQaaBsL+Vhp3BRtK/QMfAmsDZGZfBdv2G
QFfUTMAKS5TBPKEgQR7Vpr+6v6XBV27hQKV2Zr+BBUnBd1IJQfgcTT7+za/B/4i6QAcuAr89YVLB
85H7QL0qKr9OcJ7B3ZPzQJSV5j2pqKfBZsatQGfycsBE55DB9qscQaNFA78/367B+CP/QHlGzb8v
sVXBbX7PQBtiwb/MkHLBExnaQFFtQb/sFpbBPavKQK4VbT9WTajBExylQH4KIj4K7qLBhGQUQRhg
BcCGD0zBDmN+QJNdkD85LKHBVB2WQJ2Rf7+VRarBG9PBQIr/WcAKNobBT0fEQDHi7r+qsITBHymy
QDhSUb+p92bBpYX1QBic9L+bM2rBe4myQKySvr4BOZjBp4PkQJZ9pr/vIYzBC9IvQfqy0L7TAbnB
v+luQO8CncCapKvBkiG6QPDnwMABeKXBzKErQO9HScA4aKDBOFgUQeSn/b8EhpbBS8rcQMpZqsDN
dJTBcLtwQA1qG8Dde4/BOHQvQXQD7b8OEKXBtWPoQMjsKr9ugjjBsGMGQfJsUD+swrbBdk6jQEU4
Jz33FEnBZ2fPQL1l8T9VK6TBzs/CQMhZjj8BwLDBHV4dQUBGKsC8EFjBhvYdQZTbm7+U9UbBDv8Q
QfVGLsDvJD7BNxhJQBejFj9lX53BJmmJQN9I+j/A95vBUFBpQInQwz/b7ajB4x53QIqhxL/raqbB
bkSLQAOHFr8h+bHBkd+wQBqZ2L87pKvBFWuuQHBOdcAUbH/BA2riQEtvdMAs1oXBxrSkQA6JuL91
lobBNI6cQIi24L7wbpLBoqABQV+vp79g6YnBtBdeQI7QkMDvlaHBqVQtQKjKcMCrUJrBJ9qZQM1J
m8A/LZ/BWJwTQTcwkr82S5rBagBSQBNJVcBXmZDBLi2sQPOujcDddZXBNu0lQX4FLr+jvJ/Blpn0
QKlXur6iRlDB2jQQQSydej8zF6nBc1/fQDICzb87n1DBcd3+QISXDL/QTJzBbIn7QMmIAD8i06PB
kquTQFN5a8AHFo7BED0kQWktxD5HGafBZr31QLuqyj5QN2PBg7POQPDho78+03TBsN3XQFbie7+5
gZbBd4nQQFbJlj8Qk6XBBTerQMSlKD7x9KPBOB8GQTsd3j8DiWPBJJ2AQArZcD/Y76LBaxKoQKP2
UL/ziq3BTLenQKLDTcDPqoPB/S66QE0c5L+gtoTBHczMQPSUAsD1zGLBqJPiQP/ijb1uH3XBDrOx
QIDUHL8E5JnBcdHbQP8b3r8pKY3BU/06Qffbdz9iu63B3dNBQIh/m8ANAanBwbvXP29zYMCxMJzB
NZisQDO+rcD2x6TBK/gUQVh2+b80l5TB1twsQM9AL8CaE4vBiAfNQJ2SlcCnpJPBn0Y1QYz7kb/3
Q57BXtYBQajAi7uk1EHB+fcOQZyZ5j+dp67BFOrdQK0MDcACTELB9gLNQNs2AEDu0p/BRTfPQOu/
yT9pxa3B9dAEQRxjC0AhmHPBKkT9QK/7GUAexFfBxRkXQQZHzD/AeF/BeklMQBt9az7+yqHBJU+C
QNxezz83B5zBqCl2QMQxwz+fQ6rBP4iNQKxxwr8oM6zBOT+iQEKQfr488LTBnDfGQFMxsL/dSa7B
qC2PQFcxTsBOt3rBC7bBQA7pecCafIHBGvifQLMBjb+Y6obBqBCYQBukXL+BiZXBo4f2QOEzEcB0
EozB7ZlXQMN7gcBKW6LBC2MwQCZMbMDLnJjBdbaYQNhchcD28aLBI44UQfUcUL+Oh5vBct5iQBEg
XsAHcI/BIg6yQJF5e8Ab0JnBleokQdpwxL5Gf6LBgG/sQAGrgr8O2EnBsckKQb8zYD9M9azBRVPI
QOSswb6FcFLBulX+QELszb4vT53Bpbb0QBKJ3z7kFabBcGqeQJGMZsAA+I/BxwYgQXh76z7YM6vB
WoQBQUx19r9F5lbBVNrRQNX4xb9DkHLB2uvaQImkVr8LPJbBfD7HQH0kcT9Ef6fB3semQMlDIL4C
I6TBZKUUQSEDK8DkHE7ByE9zQPDP7D4rEqPBi22lQA3xob8FyqzBo125QG1bVsDBCYbBUZvCQDdt
67+bjYTBjqm7QApHJb/ypmbBODj1QHyXC8CS+2rBJ9myQExAOL9edZnBTgjkQN21sL9FMozBtEw0
QaxkgD/Yx7PBp+owQEMzh8BiX6nBb1TXP53HZcAvLJjB6banQLwxjsC0aKrBjlUYQcMsur9D15TB
FbJEQIDDTMAx+YfB6HvUQOXHf8CWVprBNTc1QYGMM79cKqHBSZr2QHFgU79joDnB9RcHQVEBxD9Z
krPBpai2QDt6qT7z20jBtnfCQF2y6j/Ge6LBE/3BQIYfmj8p8a/B960aQXnIV8AbSFrBrE4hQdYs
+r/T6UnBK90PQYLoTsBnvz/B/nFFQPpgor7gsKDBvHV0QJmQoD/79pzB/cxfQMcoZD+lzKrBGG2O
QF+2AsAmZqrBTX2bQKMUVL9kebTBXmrFQKYb27/Yo63BDwyoQJkxbsDJ9X3BUOjXQBLIeMD904bB
r9ikQLYHpL8DB4bB+YCbQMKIgr+cipTB5FoBQQyMu78DBorBQliIQG3/nsBu8qLBiRhTQBMji8B4
XJzBvUmzQFivocBpj5/BazAPQdFw17+KmZ3BDDxrQAlJdMAfW5LBXly/QAPnkMDti5XBNBcgQWch
yL9fAqXBQXjgQGr+r70/Xk/BjV4OQU0stj6ANK3BOdfSQOkqtr8NIlDBEWz7QNp/SL8ZAZ7BznL6
QDZhZD5B86XBF3qgQLz7esBR247BxbkfQdp7Cr8HxqzBT6fgQAYoKD+ZfWLBQlDHQBmCnL/SDHXB
pzbXQIwIYr9TXpbBIJTVQF47mz9NI6bBdmyrQHxaCT94RaLBDArvQIp9BkBDWmLBifeJQKbK0D/X
vZ/BACyZQIvp074e9KrBvcatQPz5VcCbHYTB7ae4QFDW6r+kDYXBEm/GQFcY/L/F3WLB6eHTQF7H
oz1r/HTByymzQDSFdr7OR5jBBWrbQJSZ079FHY3B6c40QRGswr4M3LXBhwt+QJMnrMDElqrB6GER
QDjxiMDA+57BiOzKQC2bsMAxpKTBWJIPQQGIHcDXnJfBvy88QEkgVcDcXY3BHUvgQEDeksAX+ZLB
Q1YtQeVlEMC8vKTBuo/qQIMJuT61eEDBRjEOQbClkj/GGLPBbkrSQOwAAcAssEHBASXdQL+yA0DL
1KDB6iHRQOhUyj8pW67BAOrsQHfQIEArpHLBcVPaQJqxK0AglVfBvCsIQVcyCkBPulzBDDZYQIR0
lD9RAZ3B4mGWQBanEkCrbJnByZ2DQFkrDkDx/qbBzPV2QEdVYL/6AqjBfFaSQLuGIz78Q7LB7sKw
QI57mb9JvqzBT1uTQCUWXsB7x3zBcybKQEiIeMDKNIHBcNqbQOC+pr/AyYfBB/abQEayjb5Tx5LB
QGL3QM0UB8CSzovBGfuCQBj9jsAVdqTBEg1VQOhDisBDD5vBVqevQFu9iMACKaTB3yARQZhlur+Y
AZ3B02p9QPuxfsDjW5HBsOfDQFfJe8AKdJrBXcIgQdHCtr8zH6XBnQbdQKaWW7+iJUnBEV8KQYmf
rj0dma/BPEvEQGDAbbwJOFbB1en7QGHmNr8FLp7BqAH1QN3MHz3klKfB+H2rQDASc8C4/ZDBLW0d
QUErJ7/1Y67BrvTtQB8qAsCqL1LBfPjLQA4Kw7/Nm3LBZNzZQJ+VQr+175XBmWXMQM1cXT/bn6jB
vBKmQI5CGz4QDKPBMcIDQXHZP8D2mUTB7BaBQBWolD+qi6HBP9iVQBl8g78e96nBmLnAQBdwW8Dm
dobBPNHBQD738b/RzITBymK8QJf5tL7Dw2rB3j7lQF4WFsDBv2bB876yQMuNtb7NPJjBAPjiQLAA
p7/G6IvBBvgwQQTzGb+iXrjB1wFnQMNkl8Ap5avB9ZwQQHIEj8ARS5vB/V3CQMtDjMDMXqvB/MIT
QbLUAsAx4ZXBZr5XQNPSdsCnLorB6RfmQB3RccB8PprBdk4vQSQDAMCMPaTBpeTiQKsYHL8vljjB
beoHQfXbLz/PqrbB6JS3QEIeaD/30U/BQnjRQMNY7D8M3aTBb/DEQKhDgD93J7HBpv0HQaVweMBP
LU7BUHQSQeU6IMCRAT/B70D0QK27U8AkvDbBe+1LQH51KT8pnJ3BDhWMQGL8/z+BjpzBbNJtQHBD
xT8cZ6nBBa11QPNMwr8Y6aXBkkeLQE0EJr8xy7HB7OKvQJBr4L/OHKvBibauQNffeMAeuH/BuLbh
QBb/c8DQdYbBkkuiQF5Wvb/07IbB9YacQGI5xr52fJLB7qoAQf5wpr/jYonB

> <OMEGA_E>
MCVqPghhbj60NcU+uAnGPhTG/D4y9Ao/ACQWP4RFFj+CEBo/QEMdPw==

> <OMEGA_NBR>
     85523

$$$$
50225003
  -OEChem-04172616093D

 46 48  0     1  0  0  0  0  0999 V2000
    3.8425   -4.3149  -20.3332 C   0  0  0  0  0  0  0  0  0  0  0  0
    3.0925   -3.6926  -19.3150 C   0  0  0  0  0  0  0  0  0  0  0  0
    5.2157   -4.5704  -20.1422 C   0  0  0  0  0  0  0  0  0  0  0  0
    9.1162   -1.3188  -19.5548 C   0  0  0  0  0  0  0  0  0  0  0  0
    3.7104   -3.3421  -18.0991 C   0  0  0  0  0  0  0  0  0  0  0  0
    5.8351   -4.2223  -18.9247 C   0  0  0  0  0  0  0  0  0  0  0  0
   10.1582   -1.0948  -20.4722 C   0  0  0  0  0  0  0  0  0  0  0  0
    8.7742    0.5292  -21.6616 C   0  0  0  0  0  0  0  0  0  0  0  0
    7.8969   -0.6184  -19.6924 C   0  0  0  0  0  0  0  0  0  0  0  0
    7.7195    0.2823  -20.7646 C   0  0  0  0  0  0  0  0  0  0  0  0
    5.0774   -3.6259  -17.8909 C   0  0  0  0  0  0  0  0  0  0  0  0
    9.9910   -0.1634  -21.5166 C   0  0  0  0  0  0  0  0  0  0  0  0
    6.7817   -0.8377  -18.7531 C   0  0  0  0  0  0  0  0  0  0  0  0
    6.5522   -1.3577  -15.0883 C   0  0  0  0  0  0  0  0  0  0  0  0
    6.3986    1.0075  -20.9066 C   0  0  0  0  0  0  0  0  0  0  0  0
    5.2455    0.0743  -20.4455 C   0  0  0  0  0  0  0  0  0  0  0  0
    3.9468    0.8950  -20.3433 C   0  0  0  0  0  0  0  0  0  0  0  0
    5.0341   -1.0709  -21.4684 C   0  0  0  0  0  0  0  0  0  0  0  0
    5.7275   -3.2589  -16.5682 C   0  0  0  0  0  0  0  0  0  0  0  0
    6.0316   -1.7454  -16.4933 C   0  0  2  0  0  0  0  0  0  0  0  0
    5.5555   -0.4954  -19.0967 N   0  3  0  0  0  0  0  0  0  0  0  0
    7.0542   -1.4142  -17.5156 N   0  0  0  0  0  0  0  0  0  0  0  0
    7.6795   -0.8062  -14.9563 O   0  5  0  0  0  0  0  0  0  0  0  0
    5.8271   -1.5880  -14.0839 O   0  0  0  0  0  0  0  0  0  0  0  0
   11.2934    0.1327  -22.6358 Cl  0  0  0  0  0  0  0  0  0  0  0  0
    3.3650   -4.5961  -21.2602 H   0  0  0  0  0  0  0  0  0  0  0  0
    2.0438   -3.4845  -19.4674 H   0  0  0  0  0  0  0  0  0  0  0  0
    5.7932   -5.0330  -20.9288 H   0  0  0  0  0  0  0  0  0  0  0  0
    9.2476   -2.0241  -18.7475 H   0  0  0  0  0  0  0  0  0  0  0  0
    3.1371   -2.8550  -17.3241 H   0  0  0  0  0  0  0  0  0  0  0  0
    6.8888   -4.4112  -18.7817 H   0  0  0  0  0  0  0  0  0  0  0  0
   11.0874   -1.6369  -20.3764 H   0  0  0  0  0  0  0  0  0  0  0  0
    8.6509    1.2474  -22.4587 H   0  0  0  0  0  0  0  0  0  0  0  0
    6.4087    1.9138  -20.2833 H   0  0  0  0  0  0  0  0  0  0  0  0
    6.2453    1.2879  -21.9591 H   0  0  0  0  0  0  0  0  0  0  0  0
    3.1242    0.2416  -20.0172 H   0  0  0  0  0  0  0  0  0  0  0  0
    4.0823    1.7061  -19.6127 H   0  0  0  0  0  0  0  0  0  0  0  0
    3.7060    1.3241  -21.3271 H   0  0  0  0  0  0  0  0  0  0  0  0
    4.2153   -1.7214  -21.1272 H   0  0  0  0  0  0  0  0  0  0  0  0
    4.7784   -0.6436  -22.4493 H   0  0  0  0  0  0  0  0  0  0  0  0
    5.9587   -1.6604  -21.5550 H   0  0  0  0  0  0  0  0  0  0  0  0
    5.0469   -3.5288  -15.7473 H   0  0  0  0  0  0  0  0  0  0  0  0
    6.6683   -3.8191  -16.4637 H   0  0  0  0  0  0  0  0  0  0  0  0
    5.1071   -1.1854  -16.6975 H   0  0  0  0  0  0  0  0  0  0  0  0
    4.8130   -0.6198  -18.4385 H   0  0  0  0  0  0  0  0  0  0  0  0
    8.0088   -1.6201  -17.3001 H   0  0  0  0  0  0  0  0  0  0  0  0
  1  2  1  0  0  0  0
  1  3  2  0  0  0  0
  2  5  2  0  0  0  0
  3  6  1  0  0  0  0
  4  7  2  0  0  0  0
  4  9  1  0  0  0  0
  5 11  1  0  0  0  0
  6 11  2  0  0  0  0
  7 12  1  0  0  0  0
  8 10  1  0  0  0  0
  8 12  2  0  0  0  0
  9 10  2  0  0  0  0
  9 13  1  0  0  0  0
 10 15  1  0  0  0  0
 11 19  1  0  0  0  0
 12 25  1  0  0  0  0
 13 21  2  0  0  0  0
 13 22  1  0  0  0  0
 14 20  1  0  0  0  0
 14 23  1  0  0  0  0
 14 24  2  0  0  0  0
 15 16  1  0  0  0  0
 16 17  1  0  0  0  0
 16 18  1  0  0  0  0
 16 21  1  0  0  0  0
 19 20  1  0  0  0  0
 20 22  1  0  0  0  0
  1 26  1  0  0  0  0
  2 27  1  0  0  0  0
  3 28  1  0  0  0  0
  4 29  1  0  0  0  0
  5 30  1  0  0  0  0
  6 31  1  0  0  0  0
  7 32  1  0  0  0  0
  8 33  1  0  0  0  0
 15 34  1  0  0  0  0
 15 35  1  0  0  0  0
 17 36  1  0  0  0  0
 17 37  1  0  0  0  0
 17 38  1  0  0  0  0
 18 39  1  0  0  0  0
 18 40  1  0  0  0  0
 18 41  1  0  0  0  0
 19 42  1  0  0  0  0
 19 43  1  0  0  0  0
 20 44  1  0  0  0  0
 21 45  1  0  0  0  0
 22 46  1  0  0  0  0
M  CHG  2  21   1  23  -1
M  END
> <OMEGA_C>
9Ot1QKcTisB9qqLB3utFQI1TbMAthZrBueamQI9AksAqI6HBEtwRQZvPqL84cJzBbnZtQE3kVcDf
ypDBibm6QO0ch8DVZZfBJogiQYohjL8dx6PBE2MMQVt3Bz/tSq3BFrP8QExRHr8bip3Bawb3QOCI
kD7SHabBUnqiQOoOaMCDII/BDdsfQQJHJ74FIqzBvwPZQK9wVr9hBpbBSqvRQAbIrb+PaXHBvcHM
QN30gD+fQKfBQ9unQPIlmD1nkKPBZph8QJQeZT8av6LBGRehQCESib9Cv6vBc0e3QNSRUMDBi4TB
iALBQG1o378z8oPBj8axQKun/b4DxpjB87vhQJ4Ftb/fH4zBx771QGJkTr/nTG/BOXe6QE5Cy7/N
V2HB8bE0QTznBz4rFrXB5FxXQIMTk8D5FKrB9swCQLcCX8AxvZvBOGK5QCAOocA4bqfBTfYTQRCL
AcDk+pXBhcVIQKG4NsDPl4rBW3HcQKwojcACQZbB9mUxQYyF0b/VAqPBK2oKQd2qnz9aq7PBYRTN
QD/49D88RKLBG9nHQKrapD8zrK/BKvNHQG5cdz4jI6DBTKKCQJZh2j/g5pzBKC9tQDJ8qT/znarB
aOOGQDhW3L+YBKnBluiYQOrEJL8SmLPB8K2+QJaG1L+ZcKzB5H+hQPjXYcD+9HvBG2PVQBRsdMCd
tYPBLG2jQA66l7+GlIXBvQOaQNitHr8dgpPB3CMAQadgz7+kZorByMp2QLlTicBYt6LBaE2nQC/B
kcDrNaHBaRRHQKXWasBHi5rB7roRQVQ7qL+yjJzBdTq7QF7lhsAOd5fBAc9uQHEJVcB2zpDBmU8i
QWLwir/Z7aPBXhYMQf6gDD9ESa3ByXH8QHDJHL8dkJ3BmZH2QH9Clz7XFKbBHh2jQGy0Z8BOKo/B
i44fQS7fFb4JOazB8evYQFafVr8FBpbBC9jRQCvQrr8sR3HB1yTMQI3XgT/TIqfBg4GnQKImgj0m
jqPB50x7QJUuXj9nr6LBGjGhQGQjib+A2qvB8gq4QKSgUMCQloTB0mLBQM5V37+V6IPB9IaxQMiG
BL/TzZjBZ/zhQDeSsr8SEYzB15i5QARdxb/Fa2HB7ZT2QOLQXL9a8G7Bu0w0QXMnHD4JOrXBgRBY
QH0hksDMIqrBqq25QDqJoMDChqfBVAoEQAEMXcAFwJvBJOcTQY6MAcArIZbBI+zcQDQgjcC/VpbB
QVJKQKD3NcCTlIrB3isxQWCf0L+tPaPBSBAKQZ4roz8+m7PB9j7MQG2m9D+yCqLBlynHQIqbpz+I
ha/B4RdHQPYiTj4IJ6DBJaOBQEkA1j83w5zBT7ZrQMchpz/4hKrBMC+HQOkC3r/fM6nBve+YQEqN
Ir/GqbPBUvu+QGY4078WlqzBZXmiQJWtYsALBXzBhU/WQFoMdMAI1IPBFqSjQKeFmL+2gYXBareZ
QCepKr8HmJPBxFUAQbkuyb8gSorBXL11QLeqiMAbxaLB3iBGQIc3acBtnJrB17OmQIVkkcCwPKHB
66oRQWiFrb+ZgpzBDM9tQACpU8D63JDBMpy6QEelhsATe5fBZlUiQfYkkr9N3qPBlHcMQcBXAT/G
TK3BZpj8QIrWI78skp3BwCX3QH50iD4tHabBLomiQHTgZsA0Mo/B/cwfQQwMUb6HMKzBZ/XYQOQ0
Wb95CpbBq6LRQNxTrb+aQ3HBJg3NQKRxgD9mM6fBKeqnQMA+lj2VlaPBeid9QLwjZz9yqKLBi8mg
QEgkh78D46vBcmS3QIAjUMD6mITB4RbBQDZ43r9F5oPB0rCxQChBBL/22JjBTNHhQGAps7+/DYzB
3qq7QBof1b9WG2HBOUj0QPYIOL8+Mm/BEac0QSbkmj02K7XBuQtXQF1bkcBDM6rBwDIDQD4CW8AO
1pvBWQm5QPRQoMAhiqfBCqsTQSQiBMDKEZbB62ZJQNNaNMDupYrBD0HcQLUVjcC0VZbBzxYxQWUl
2b+kJKPBzJ0KQe5hnT9CpLPBD5TNQESt8z9SJaLBmjnIQGnFpT+Ema/BqDlIQN7zgD60GaDBRCyD
QG0K2j+zu5zBsNFtQNFZrD+teqrBMHGGQDgo2r/tNqnBXKaYQEH3HL+GrrPB5ze+QKVh078BqazB
MamhQOfnYcDfFHzB5ITVQJ4AdMDwz4PBHn6jQEPTlr9ahoXB/saZQAK7Kb+DqZPB6TkAQZlLyr/8
P4rBCOB2QCW7icC8rqLB7lCnQGccksBtHKHBjMRGQFV8a8D8jprBab0RQSa8qb8ue5zBIQS7QPsa
h8DeWJfBzg5uQBtQVcDnzpDBqlQiQeRHjr/C4qPBTk8MQfR2Bz+dSq3BY5n8QF7oHb9Uhp3BfP72
QA4xlD6KEKbB3rOiQC3jZ8DWGY/BEKkfQYYZN77MO6zB7uLYQEgmVr9rBZbBbK7RQPq9rb+LYHHB
K8TMQDhCgj96KKfBQOCnQApCnT1nlqPBVl58QFUZZD+cy6LBoIChQFwAiL/d2KvB9WS3QPxiUMAg
hITBOf7AQPL/3r+C7IPBLqGxQKrx/75ozpjBMKjhQJIZtL9HGozBQOD1QKVXUL+sQG/Bq2m6QDzV
yr9dUmHBA0w0QW0bvT0LW7XB2HxYQD6iksDmHarBCNe5QBv3oMCXY6fBX8ADQIvbXcAL0JvBL9oT
QRH1AcC4BJbBNq/cQOdPjcCIKpbByEtJQOQINsCwn4rBNyExQRm91L/VLKPB62EKQYByoD+VoLPB
mwfNQII69T8YFKLBePHHQB/lpz8/ja/Bm8NHQCE+bT74RKDBkz6CQFZF2T+l5ZzB80VtQGO+qT+A
p6rBLU6HQJP827/TM6nBwH+ZQK4vIb+Nr7PBQzC/QEPm0r84hKzBr5ehQFjAYcAF6nvBj4nVQDoa
dMDAqoPBulqjQNGTl78gioXBzcSZQLIbIr9blZPBox4AQQWCzb8qXYrBznqDQH/6icCRVqPBiTJT
QMIXcMD9RJvBHmWvQNL4kMDEcqHB0eASQVveib9sg5vB4Ax3QLuXWsCWSpHBu17BQNRohsAucpfB
wjwjQdolKr86fqLB04sIQbgl7j0JTq/BfJD6QDA1W7/AWZ7B3YDwQMBywr78qajBIE+nQOrgacBn
SY/BaQYeQQAKrzouFKzBz+vXQFlxdL/YWJbBTfrQQHpAqr9DFHHBYCPCQMqXq77FF6zBLt2nQGzp
cz4IuaLBYIuzQBp23T88BqHBdsVvQHykBz7wWKXB2lW6QPPiUMBaiYTBG5/BQE4u3r/414PBZOiw
QCS0C798wpjBvvnhQJxLrr/g/IvB8OL0QJp8Rr8Mi27BM5+4QCoOxb9tXWHBtDIyQTkxLj8bAbTB
HFNrQIteksCF+arB+foPQMQWZcBkvZzB80bDQKpsnsDwqafBy8oWQX+ax7/aCJTBXXBPQEhUPsDA
J4vBYwvjQAaoi8AbA5bBB8UzQcegW7/EgqDBapsEQV5KFT+817bBD6i+QC+/nj6zKrPBee62QODB
rL9mBa7BO76gQEy8CEAhVZrBJ9zVQK516D9DMJ/BflOsQAz7EkBcWajBbB9KQPeLCj9Gq57Bw+9h
QFcdND+5qqzBLqJeQLVTbL8ElqbBd0SkQBV8ZMA+RHzBjivZQAbRccA6gIPBRUCjQLZ7nL9VjoXB
MsaYQDfOQ7+3zpPBEG4AQXGzs7/T64nBWayCQO/2icCiQKPB4qmuQAgMkcD8fqHBUHpSQJHCb8AH
HpvBG/wSQSO9ib/Xo5vBlivBQPBlhsClj5fBclV3QItSWsA2MpHBx0UjQQrYM7+czqLBQnoIQRRE
mT1Hkq/Btr76QGbKV79ZYZ7Ba3LwQMEEw75+uajBzoenQCHFacCWU4/BCQEeQSBHer06fqzBGUHY
QHwUcL/eUpbBQb/QQAqnqr/IEHHBMQPCQPKJq77pFKzBDtynQJpudz5mtKLBJ0+zQMBN3j9WGqHB
qLNvQGSy/z2WRKXBaQK7QHkmUcBOn4TB7+TBQIWG3r9E4IPB/S+xQLUlCL/QtZjBElXiQHgorb8u
+4vB0bjzQHyXOb+ZcG7BUOq4QD2mzL+kXWHBHygyQWbVDT/wwrTB1ehoQAVoksDe1qrBwzHCQFui
nsA+w6fB9C0PQBl6ZMBVfpzBRvkWQYDkxL8IF5TBAeziQG2ci8C0PJbB62BQQOr7PcAIAIvB3cwz
QVY1aL9346DBIXcEQaLtBj8cKLfBKGu+QCy9nT4JKrPB2b22QGHHrL8e+q3Be5egQHZNCUC+Z5rB
qqbVQFtD6j91Up/BdtGrQPjtEkBdcqjBTSVKQLkhCT/vlp7BR2FhQPlEMD8HnKzBdeteQCzvbr+5
cKbB/l6lQBZ+ZcDsU3zBmwnaQG6ZccACuIPB722jQDTRnb9YoYXBby2ZQAAjP79gtZPBT5oAQXlN
sr/T5onB7cjoQECG6r6d9EXBYhrUQAu62r/jIUfBxnvoQHY+0D6QyFfBHJ4UQeiS875/1prB8+K+
QGTNBcD+FVrBe0nTQIRT1DyawmrBTNIkQU5HHr47PqLBqRcKQc5/Lz0IaLDB0gj+QNAkBr+TMJ7B
qpbzQPDBgL70+ajBk/C9QHDXm7905GvB8pAfQc2L0T3ZBK3BYj3bQKaOXr/dqJbBmrasQCh3WMAm
S4/BWnHFQBIhw76kn6zBbTCmQNqsJz2ohKPBHPGkQJxPyj9lRKLB7GdxQJSH776KSabBkkanQNQh
0r+/LYDBt7LFQM3DHcBndYfBJmmzQFA0Db+nDZnBHObkQPhuzb/RZ43Bfk+MQIPVPMDvNZTBpmu4
QJCRksBCTpDBp64zQbaV+j6ANLbBptr4QDoJJr56aDfB+YHUQNzzF8AahjnBtIH4QBRYrj/r51bB
YLAYQX9SL78GnJLBdE6vQINjQ8AwA1vBHmHTQJCPLz+McHjB70o1Qbo8170zqZ/BRh4GQXH7Yz7a
sLjBrUDAQGWniD54nbPBSxa/QCamtr8j167Biq6OQMbN7D/SzJvBrynFQAyR+T9lT6DBJxqaQEVR
AkDnzanB7KtEQMiXM75i6J/BtJFcQGAn0ryT6a3BMV1yQDIxyL/ZAqfBbU6LQBZ3EMCsNnzBMauc
QMmOPr8XhoTBnULYQHEOSMDFK4LBncecQO1sN7+tjZPBRmQBQSN/xr//k4rBc+zYQDZFRr9q2UTB
8fMBQUjUib/ClUnBlGy4QFO8k7/8HlPB99kSQa26l79CmJvByzcHQRf74L8hoFzBB9DCQDFO6r9o
GGbBJxkkQcBKfr8utaLB73ANQTs1xT7qKK7BCl/9QOrnGb8BzZ3B7Aj4QG74Lz43NKfBFBjuQIFr
CMCfQmvBuWshQawNUL7586vBgVnYQNyZP7/daJbBJ/KwQLmIUcAbj4jBsWbNQKK6Wj9EWKnBwtOn
QEDObjz7tKTBPo99QKqSYD+GfqTBGYmfQHHkn7/gn6vBHgb7QDJnO8BBSX/BE9veQMm9K8AtvInB
BL6xQOpNxr6Ye5nBjT3dQEZwnL+q/4vBnGyRQNVzKsCOi4zBhiirQDp2icCP0ILB0OU2QWDCcj0y
prTB7/jQQJW9gL5aQzbBkXIOQa05Sb+clz7B4m6XQCH+bL8Of0/BjQYVQaGq478VdZTBFLkXQeth
/79RDWDBTJupQOYZCMBJ7XDBAmQzQSvuub+REaHBV3ULQZQWgD+SMLXB+nPNQBJ87D+hj6XBOgPJ
QHowdz/dB7LBO1BIQJ84kj6oN6HB+xqEQISN4T9xcJ/BQr5tQHtemT8DrazBe+CEQB9+6b8tLqjB
F1mXQGz9cb+j1LPBI4S8QOjG77/kw6vB/hgOQaZEKsDNqYHB6Fn5QOfpf8DCUnvBWVnuQJ0ITMAq
h5DBMSOaQPuvw77bFJTB4bPfQLw/Er/j9IXBbOzzQAawdb5CRE7BmubGQDfvTb5Hc03BoFQEQa55
Or+zqGDBBVUSQYVLs79dh57BzZmuQDzvKb/l717BM3zwQGlWmL/WJ3LBpHMjQcPqaL+IuaTBRYoN
QVxgfD9ZV6rBHkv9QMtPM7+HR57BS3n4QKfh+D4zVKTBwBHDQNanl79uTHHBYBEhQVe0kT6+mKrB
LpPYQK4YmL8J5pfBprWbQJUkZMDUpI/BKbfOQJfLoT8aw6PBWkqoQLknmz7L+aHBap6AQAbRjj9Q
c57BnFWdQD29+L6WTqzB0xinQFLj179Q2YHB6O+8QI+/MMCsG4nBGoKyQFfJJr+ARJnBAZfeQGYk
DcBUX5DB/AyCQGSGPsCt2JXBDISaQFwWmsBtf47BIlU2QVbcZj8VMLLBKUIDQWf41j1NyUDBqfu2
QDs3PD4sZz/B/5cVQTi9P7/LWGHBcjkUQW7iE8Do+JnBnxeMQDe7Hr9ETl7Bw0cAQUt/xr9IKYDB
H2oyQbh9ub+5+aTBktMLQRIy9D9Wwq7BMVXQQDpJ/T/aFZ3BCwzKQA7V5z90TqvBDulKQKFH3j6S
MJ3BNsWHQHun0j8F85bBQtNwQK1G7D9QtKTB+hKCQHHDk78aw6rBK/CUQHY2YT7ouLLB9Dq5QJeG
ir+ow67BNOSJQAIdCMD82HzBFICeQAtLU78v4obB97zMQEJwXsDts4PBCzibQDetZr9JKJTBn/b7
QFUbJsDByo/BbwL4QG6Om7/JokPBcIXpQAI2IcBeP0jB8OPtQC7zGr7VjlHBL40SQR7Jlb/ilZvB
4avQQM5lMMDStFrBgxDVQHMuxr5oB2TBwHkjQe5Dhr+X8KLBsOoMQU7Dpz5Qea7BH1j9QLogCb9F
np3Bk4T3QNJePT7KOKfB0ejFQFb817/ujWjBILwgQWHulL7YVKzBLOzYQFyZML9RIJbBZzeuQGLQ
T8DfSZDBdOXMQDbBXT+OUKnBBlanQIjcAz0bhKTB4Ul9QEB+aT+3NKTB+CWeQLxJm7+Rk6vBHQSr
QAxv+b9jeXzBjnjHQGxOHMCDpYfBaJOxQK0WzL6fQ5nBDPbgQKfMp7/SQozB5uW8QEa3VsC2ppnB
dvKMQF0weMD/ro3BGPo1Qbiz571dSrXBYmwFQagGhL84czXBDHHxQEV5VcCppz3Bviv5QDeTWD8p
Ek7BU7QUQazL378qXpTBQNHFQDRwcMB3SV7BiqHNQLNV2z5Tu27B7JEyQUHGxL/aYaHBjN0KQe9E
aT/fq7XBKiTNQFeS7j+Sm6XBNTPIQPycdz+c/7HBpN9HQJJpqj7n1KDB55SEQPUD5j+kMZ/BDvRs
QGzEnT9uX6zBuZ2DQCsJ5b98FajBKWOVQAJgY795sbPBCfG6QKkN7L+f9KvBuueSQLbfLcA/0HjB
p+CaQBQvgr8xm4DBupLeQAFvScAJJYTBHrqZQJ5B775e9ZPB7Kz5QM24eL8V94fB

> <OMEGA_E>
NAvJPhCoyT6wpcw+LAvJPsaGCz/usgs/2t5kP5idYj/oYV8/5FdTPw==

> <OMEGA_NBR>
     93811

$$$$
50225005
  -OEChem-04172616093D

 48 51  0     1  0  0  0  0  0999 V2000
    4.3559   -4.5520  -20.4887 C   0  0  0  0  0  0  0  0  0  0  0  0
   10.0866   -1.9970  -19.4569 C   0  0  0  0  0  0  0  0  0  0  0  0
   10.2672   -1.3942  -20.6982 C   0  0  0  0  0  0  0  0  0  0  0  0
    3.3600   -4.2219  -19.5695 C   0  0  0  0  0  0  0  0  0  0  0  0
    5.6991   -4.3914  -20.1486 C   0  0  0  0  0  0  0  0  0  0  0  0
    8.9086   -1.7870  -18.7376 C   0  0  0  0  0  0  0  0  0  0  0  0
    9.2659   -0.5850  -21.2275 C   0  0  0  0  0  0  0  0  0  0  0  0
    3.7071   -3.7316  -18.3105 C   0  0  0  0  0  0  0  0  0  0  0  0
    6.0461   -3.9012  -18.8895 C   0  0  0  0  0  0  0  0  0  0  0  0
    7.8917   -0.9699  -19.2527 C   0  0  0  0  0  0  0  0  0  0  0  0
    8.0750   -0.3824  -20.5186 C   0  0  0  0  0  0  0  0  0  0  0  0
    5.0503   -3.5711  -17.9704 C   0  0  0  0  0  0  0  0  0  0  0  0
    7.3604   -2.1059  -15.2217 C   0  0  0  0  0  0  0  0  0  0  0  0
    6.6316   -0.7100  -18.5280 C   0  0  0  0  0  0  0  0  0  0  0  0
    6.9986    0.5143  -21.0759 C   0  0  0  0  0  0  0  0  0  0  0  0
    5.5915    0.0577  -20.6545 C   0  0  0  0  0  0  0  0  0  0  0  0
    4.5795    1.1773  -20.9128 C   0  0  0  0  0  0  0  0  0  0  0  0
    5.1483   -1.2176  -21.3799 C   0  0  0  0  0  0  0  0  0  0  0  0
    5.4263   -3.0404  -16.6077 C   0  0  0  0  0  0  0  0  0  0  0  0
    6.7498   -2.2515  -16.6024 C   0  0  1  0  0  0  0  0  0  0  0  0
    8.5025   -1.4308  -14.9892 N   0  5  0  0  0  0  0  0  0  0  0  0
    6.8114   -2.6391  -14.1141 N   0  0  0  0  0  0  0  0  0  0  0  0
    8.6797   -1.5493  -13.6492 N   0  0  0  0  0  0  0  0  0  0  0  0
    7.6638   -2.2752  -13.1232 N   0  0  0  0  0  0  0  0  0  0  0  0
    5.5839   -0.2215  -19.1991 N   0  3  0  0  0  0  0  0  0  0  0  0
    6.5435   -0.9467  -17.2214 N   0  0  0  0  0  0  0  0  0  0  0  0
    4.0858   -4.9336  -21.4689 H   0  0  0  0  0  0  0  0  0  0  0  0
   10.8655   -2.6324  -19.0449 H   0  0  0  0  0  0  0  0  0  0  0  0
   11.1870   -1.5550  -21.2526 H   0  0  0  0  0  0  0  0  0  0  0  0
    2.3142   -4.3472  -19.8341 H   0  0  0  0  0  0  0  0  0  0  0  0
    6.4746   -4.6482  -20.8642 H   0  0  0  0  0  0  0  0  0  0  0  0
    8.8000   -2.2797  -17.7757 H   0  0  0  0  0  0  0  0  0  0  0  0
    9.4168   -0.1154  -22.1959 H   0  0  0  0  0  0  0  0  0  0  0  0
    2.9241   -3.4770  -17.6010 H   0  0  0  0  0  0  0  0  0  0  0  0
    7.0954   -3.7805  -18.6333 H   0  0  0  0  0  0  0  0  0  0  0  0
    7.1976    1.5266  -20.7001 H   0  0  0  0  0  0  0  0  0  0  0  0
    7.0622    0.5557  -22.1704 H   0  0  0  0  0  0  0  0  0  0  0  0
    3.5877    0.8484  -20.6130 H   0  0  0  0  0  0  0  0  0  0  0  0
    4.5725    1.4252  -21.9712 H   0  0  0  0  0  0  0  0  0  0  0  0
    4.8558    2.0587  -20.3383 H   0  0  0  0  0  0  0  0  0  0  0  0
    4.1519   -1.4971  -21.0482 H   0  0  0  0  0  0  0  0  0  0  0  0
    5.8426   -2.0232  -21.1562 H   0  0  0  0  0  0  0  0  0  0  0  0
    5.1351   -1.0404  -22.4528 H   0  0  0  0  0  0  0  0  0  0  0  0
    4.6071   -2.4296  -16.2055 H   0  0  0  0  0  0  0  0  0  0  0  0
    5.5046   -3.8950  -15.9207 H   0  0  0  0  0  0  0  0  0  0  0  0
    7.4694   -2.7619  -17.2557 H   0  0  0  0  0  0  0  0  0  0  0  0
    4.7367   -0.0565  -18.6621 H   0  0  0  0  0  0  0  0  0  0  0  0
    6.3196   -0.1793  -16.5841 H   0  0  0  0  0  0  0  0  0  0  0  0
  1  4  1  0  0  0  0
  1  5  2  0  0  0  0
  2  3  1  0  0  0  0
  2  6  2  0  0  0  0
  3  7  2  0  0  0  0
  4  8  2  0  0  0  0
  5  9  1  0  0  0  0
  6 10  1  0  0  0  0
  7 11  1  0  0  0  0
  8 12  1  0  0  0  0
  9 12  2  0  0  0  0
 10 11  2  0  0  0  0
 10 14  1  0  0  0  0
 11 15  1  0  0  0  0
 12 19  1  0  0  0  0
 13 20  1  0  0  0  0
 13 21  1  0  0  0  0
 13 22  2  0  0  0  0
 14 25  2  0  0  0  0
 14 26  1  0  0  0  0
 15 16  1  0  0  0  0
 16 17  1  0  0  0  0
 16 18  1  0  0  0  0
 16 25  1  0  0  0  0
 19 20  1  0  0  0  0
 20 26  1  0  0  0  0
 21 23  1  0  0  0  0
 22 24  1  0  0  0  0
 23 24  2  0  0  0  0
  1 27  1  0  0  0  0
  2 28  1  0  0  0  0
  3 29  1  0  0  0  0
  4 30  1  0  0  0  0
  5 31  1  0  0  0  0
  6 32  1  0  0  0  0
  7 33  1  0  0  0  0
  8 34  1  0  0  0  0
  9 35  1  0  0  0  0
 15 36  1  0  0  0  0
 15 37  1  0  0  0  0
 17 38  1  0  0  0  0
 17 39  1  0  0  0  0
 17 40  1  0  0  0  0
 18 41  1  0  0  0  0
 18 42  1  0  0  0  0
 18 43  1  0  0  0  0
 19 44  1  0  0  0  0
 19 45  1  0  0  0  0
 20 46  1  0  0  0  0
 25 47  1  0  0  0  0
 26 48  1  0  0  0  0
M  CHG  2  21  -1  25   1
M  END
> <OMEGA_C>
6GOLQMSpkcDj6KPBomIhQf2c/7+sp5vBm0YkQV92sr/llaXB5gpXQH8Zh8BkjpzBzl62QKSGjMBU
MKHBlYkOQWu85L+M5pXBREEUQRLDFb/d0anB50BtQM7SbsDZe5LBz3nBQBatecDJHZfBvoj8QBpK
eL93BZrBSTMBQcjKw74NJqTB2JuhQJSMZMBQw4/BWojrQMjHBsD0i3PBXjbUQKTENb9AOZTBVfTf
QH+qAz9qm6jBzu2yQIB7bD1ePKXBAouSQEWwlj9rTafB+L6kQNvZm7//CavBkqStQCaWQsCb3ITB
V/7XQCkYEMCq0YTBOgoIQcwlt7+Z02/BIvfZQEDnKMBN02HBOOAKQYBOxr8QY1rB3z31QIWcEcCe
+FHBXK+yQKDNYr62l5nBtmTRQIZbcr+FxYnBLL+CQAjgncBbwKvBEdktQe55KMD3W5jBFf4yQbMJ
x788BarBRBsUQC4ci8AvrJ7BJjDPQBG+lMDd6abB2cwMQQDnEcC2NI7BaqsWQSBa7L1EkbHBIiU7
QFyHXsDJzozBNA3jQBr0ccAZEZXBBFPmQFBowz/ImaXBSv3hQGhCDj/1XLHBXJ1lQAYuWT9956TB
q1GSQGRrtj/yxK/BZ2KbQJTBA0DMtKLBBdyEQGmhv7+7YqjBNva6QOx8AcDQP6nBeVKkQJkrhb9s
n7PBW22TQN1+G8DXpIHBvCWwQChIecAiu37BigXvQIjCMMCqC4rBLpOXQJA5Z70FTJXBSTrKQOyW
N75RrITBFiiHQH3qisAZ46LBukQfQd6f5L/ioZrBsSgiQUB5l78bkKTBQpNOQDhagMCaiJvB/CKy
QFzHhcCKKqDBrGsMQU6/yb/C4JTBWyMSQaiRv74TzKjBQslkQD9UYcAOdpHB/T29QIcubMD/F5bB
7Ez4QOBPQr+t/5jBwCr+QKCsL75DIKPBBmCdQAYOV8CGvY7BiEznQHCS8r9hgHHBjPrPQNCU/752
M5PBhLjbQLqkOT+glafB/bGuQOiDiT6UNqTBME+OQGOtsT+hR6bBJ4OgQL7cgL81BKrBwGipQJcX
NcDS1oPBhMLTQJqZAsDgy4PBUewFQa8onL8GyG3BULvVQLBoG8C6x1/BT8IIQWFRq799V1jBDQLx
QPYdBMAL7U/BinOuQABLLrzskZjB5CjNQExhPL+7v4jBtAZ9QMEgl8CRuqrBKLsrQV77GsAtVpfB
LeAwQZYMrL9y/6jBoaMLQOZchMBlpp3BVfTKQMn+jcAT5KXB764KQXBoBMDsLo3BgY0UQcB3wz16
i7DBfa0yQM8IUcD/yIvBYtHeQIx1ZMBPC5TBMhfiQG5l3j/+k6TBecHdQKQ8RD8rV7DBuCVdQCGU
hz+z4aPB2RWOQIJo0T8ov67BliaXQCJAEUACr6HBM6CAQEqkpL/xXKfBY7q2QLz8578GOqjBqBag
QPhcVL+imbLBiTGPQE4ADsANn4DB6umrQJjJa8CPr3zBt8nqQPlDI8DgBYnBXFeTQJAaHj47RpTB
d/7FQABIAT2HpoPBZNaQQHgSjsB7/aHBgJgjQbGY4b9/35rBiNElQZGFlL9K2aTBRudiQBYThMCf
dZrBlvG7QAIBiMCghp/ByvQQQVuNyb9u55TBNFYVQcRzv76p6ajBS1V6QC0LaMBnd5DBmqjHQAXn
b8BoiJXBTjoAQaDWR78P2pjBO30CQSBqRr48BqPBVEaoQEXoW8CSAI7BkD3zQLr29L8i+XDBwIXY
QChrC79B05LBNIjhQNCuLT/kTKfBTia1QEDBRj7Ap6PBZdaTQPBMpT+wjqXBjkinQJrbi78OWKnB
5Pe0QIAnOcDiL4PBRMbeQIToBMA/aYPBBr8LQZVsm7/etm3BJ97iQHgWHcCgBl/BOh8PQRSGqb9+
V1jBFqH+QP1yBMBYg0/Bri62QGBlpL3kAZjBatfWQIRTR7+gWojBMriHQG+RmsAixanBPmswQbpU
GMCrtZfByV80Qdrhpr+Oc6nBksUfQFjPiMBBYJzBmGLUQJjHj8B9Y6XBob4PQRo9BMD7LY3BCTsX
Qahowz2QsrDBqPhIQEKkWMClporBNlTpQCy6ZsACr5PBzYDnQNQU2T8WW6TBBrjiQOyoNz8dEbDB
rh9pQGxlcT9Q96LBxKeSQHyLxD/BBq7B5IOcQP6KC0DxCKHBDtmHQCQksr9tf6bB0TG+QAID8b+P
qqfBGvClQJBea79L7bHBgaiaQI8TE8A+qX/BwI64QGWVb8DMX3vBtqT1QOa/JMBrwojBlmCbQGAh
jT3IjpPBqKTPQAAeY7ybO4PBQECJQKDposDHD6bBSKIZQbR1Ib/tHZrB5E8bQQ4zqb4w+KTBNXFh
QF1QgsCpiKHB6cStQDikscDYzqDBbJ4FQd/3Jr+9J5XB6PkIQcAVNb0Y3arBzWV5QGvoYMAUwZfB
Ob+5QA7In8BDB5fBOPHlQJD5vr7s+prBEr3pQGAmS7055qXB+jehQChefsAigJLBubDkQAHE6r9u
xX3B1OG6QK6ByL4DHZbBVN/BQHjnbj7oSqzBNimfQG4ZbD9IiKXBVBaqQDyQGEBEC6PBe/RnQBCc
WT8kTKvBEjKuQDS4V8BS6ofBWGrMQAVYCsB8D4nBCsgFQdxJoL+/tn3BZWXVQNI8BsCJFGrBTpwK
QfqAkr9tnmjBPa70QKZ+07+90VzBmIiaQNBUUj4ZO5vBGkS0QLqdgL8e0YzBjdt/QDLRsMDcrK3B
lu8nQdzpWL9qgJXByuIqQQzpo76O0KjBRI4oQIKzbcBFn6XBSuDAQIIEy8AoVaTBv+oEQcgrZr/D
sozB/mgKQaB4OD6YVrPBl8ZSQLwhLsAHSpTBDDzWQAh+q8DG/ZLB7VLLQPQBYT/o/rLBrhi1QAyp
Mb/Xu6/BBauQQBbGNEDNRJ7BAWmtQJ0ePEDueKrBbALIQBqIG0DTnJ7B10E3QCFXqz+MeabBT2FW
QIChQr6riKzBxrBsQILbrD/l/7LBZpORQJpoRsCTTIPBJPS9QD7thMCYKoPBcYvjQFefF8CKdY/B
smB6QMhyCT77wpfBEuicQAJgKb+myofB

> <OMEGA_E>
6KIPwTB4DcHhNwnBgsPLwA==

> <OMEGA_NBR>
     97386

$$$$
50225007
  -OEChem-04172616093D

 49 52  0     1  0  0  0  0  0999 V2000
    3.7887   -4.3235  -20.3405 C   0  0  0  0  0  0  0  0  0  0  0  0
    5.1665   -4.5949  -20.2132 C   0  0  0  0  0  0  0  0  0  0  0  0
    3.0790   -3.7449  -19.2694 C   0  0  0  0  0  0  0  0  0  0  0  0
    9.1273   -1.2849  -19.5555 C   0  0  0  0  0  0  0  0  0  0  0  0
    5.8346   -4.2983  -19.0101 C   0  0  0  0  0  0  0  0  0  0  0  0
    3.7441   -3.4496  -18.0666 C   0  0  0  0  0  0  0  0  0  0  0  0
   10.1606   -1.0522  -20.4802 C   0  0  0  0  0  0  0  0  0  0  0  0
    8.7698    0.5937  -21.6333 C   0  0  0  0  0  0  0  0  0  0  0  0
    7.6683   -0.8676  -13.4903 C   0  0  0  0  0  0  0  0  0  0  0  0
    7.9063   -0.5846  -19.6784 C   0  0  0  0  0  0  0  0  0  0  0  0
    7.7213    0.3339  -20.7329 C   0  0  0  0  0  0  0  0  0  0  0  0
    5.1190   -3.7377  -17.9311 C   0  0  0  0  0  0  0  0  0  0  0  0
    9.9843   -0.1082  -21.5120 C   0  0  0  0  0  0  0  0  0  0  0  0
    6.4419   -1.4716  -15.2013 C   0  0  0  0  0  0  0  0  0  0  0  0
    6.7886   -0.8370  -18.7550 C   0  0  0  0  0  0  0  0  0  0  0  0
    6.3911    1.0481  -20.8610 C   0  0  0  0  0  0  0  0  0  0  0  0
    5.2464    0.0888  -20.4276 C   0  0  0  0  0  0  0  0  0  0  0  0
    3.9376    0.8867  -20.2886 C   0  0  0  0  0  0  0  0  0  0  0  0
    5.0453   -1.0327  -21.4775 C   0  0  0  0  0  0  0  0  0  0  0  0
    5.8259   -3.3774  -16.6503 C   0  0  0  0  0  0  0  0  0  0  0  0
    6.0079   -1.8536  -16.5762 C   0  0  2  0  0  0  0  0  0  0  0  0
    6.4586   -1.1317  -13.0602 N   0  0  0  0  0  0  0  0  0  0  0  0
    5.6906   -1.5122  -14.1318 N   0  0  0  0  0  0  0  0  0  0  0  0
    5.5595   -0.5161  -19.1018 N   0  3  0  0  0  0  0  0  0  0  0  0
    7.0515   -1.4294  -17.5292 N   0  0  0  0  0  0  0  0  0  0  0  0
    7.6831   -1.0869  -14.8238 O   0  0  0  0  0  0  0  0  0  0  0  0
   11.2686    0.1829  -22.6530 Cl  0  0  0  0  0  0  0  0  0  0  0  0
    3.2760   -4.5597  -21.2613 H   0  0  0  0  0  0  0  0  0  0  0  0
    5.7095   -5.0305  -21.0389 H   0  0  0  0  0  0  0  0  0  0  0  0
    2.0258   -3.5288  -19.3723 H   0  0  0  0  0  0  0  0  0  0  0  0
    9.2663   -1.9960  -18.7547 H   0  0  0  0  0  0  0  0  0  0  0  0
    6.8914   -4.4991  -18.9134 H   0  0  0  0  0  0  0  0  0  0  0  0
    3.2029   -3.0020  -17.2462 H   0  0  0  0  0  0  0  0  0  0  0  0
   11.0896   -1.5969  -20.3999 H   0  0  0  0  0  0  0  0  0  0  0  0
    8.6439    1.3285  -22.4147 H   0  0  0  0  0  0  0  0  0  0  0  0
    8.5013   -0.5351  -12.8886 H   0  0  0  0  0  0  0  0  0  0  0  0
    6.3886    1.9382  -20.2147 H   0  0  0  0  0  0  0  0  0  0  0  0
    6.2378    1.3537  -21.9065 H   0  0  0  0  0  0  0  0  0  0  0  0
    3.1260    0.2104  -19.9821 H   0  0  0  0  0  0  0  0  0  0  0  0
    4.0662    1.6725  -19.5298 H   0  0  0  0  0  0  0  0  0  0  0  0
    3.6851    1.3478  -21.2549 H   0  0  0  0  0  0  0  0  0  0  0  0
    4.2326   -1.6988  -21.1521 H   0  0  0  0  0  0  0  0  0  0  0  0
    4.7854   -0.5842  -22.4477 H   0  0  0  0  0  0  0  0  0  0  0  0
    5.9753   -1.6113  -21.5784 H   0  0  0  0  0  0  0  0  0  0  0  0
    5.2265   -3.7171  -15.7928 H   0  0  0  0  0  0  0  0  0  0  0  0
    6.8111   -3.8659  -16.6255 H   0  0  0  0  0  0  0  0  0  0  0  0
    5.0538   -1.3620  -16.8171 H   0  0  0  0  0  0  0  0  0  0  0  0
    4.8140   -0.6833  -18.4566 H   0  0  0  0  0  0  0  0  0  0  0  0
    8.0073   -1.5783  -17.2754 H   0  0  0  0  0  0  0  0  0  0  0  0
  1  2  1  0  0  0  0
  1  3  2  0  0  0  0
  2  5  2  0  0  0  0
  3  6  1  0  0  0  0
  4  7  2  0  0  0  0
  4 10  1  0  0  0  0
  5 12  1  0  0  0  0
  6 12  2  0  0  0  0
  7 13  1  0  0  0  0
  8 11  1  0  0  0  0
  8 13  2  0  0  0  0
  9 22  2  0  0  0  0
  9 26  1  0  0  0  0
 10 11  2  0  0  0  0
 10 15  1  0  0  0  0
 11 16  1  0  0  0  0
 12 20  1  0  0  0  0
 13 27  1  0  0  0  0
 14 21  1  0  0  0  0
 14 23  2  0  0  0  0
 14 26  1  0  0  0  0
 15 24  2  0  0  0  0
 15 25  1  0  0  0  0
 16 17  1  0  0  0  0
 17 18  1  0  0  0  0
 17 19  1  0  0  0  0
 17 24  1  0  0  0  0
 20 21  1  0  0  0  0
 21 25  1  0  0  0  0
 22 23  1  0  0  0  0
  1 28  1  0  0  0  0
  2 29  1  0  0  0  0
  3 30  1  0  0  0  0
  4 31  1  0  0  0  0
  5 32  1  0  0  0  0
  6 33  1  0  0  0  0
  7 34  1  0  0  0  0
  8 35  1  0  0  0  0
  9 36  1  0  0  0  0
 16 37  1  0  0  0  0
 16 38  1  0  0  0  0
 18 39  1  0  0  0  0
 18 40  1  0  0  0  0
 18 41  1  0  0  0  0
 19 42  1  0  0  0  0
 19 43  1  0  0  0  0
 19 44  1  0  0  0  0
 20 45  1  0  0  0  0
 20 46  1  0  0  0  0
 21 47  1  0  0  0  0
 24 48  1  0  0  0  0
 25 49  1  0  0  0  0
M  CHG  1  24   1
M  END
> <OMEGA_C>
lXlyQCxaisBeuaLBElSlQJoJk8CMtKHBlg1FQCWtb8DJJ5rBSAkSQZh3pL+ycZzBFLW6QGCLicCj
FJjBy59vQI3FXMB0iJDBo5EiQR+uhr9s16PB6VAMQXf5Fz8CEa3BXGL1QM4XXr8R2FfBugD9QCmm
Fb9JbZ3B2BT3QPnvqj7o3KXB+s6jQDE3b8Dyco/Bzb8fQZ2V3b2MGKzBFiTOQLhdvL+lOHPB8jvZ
QN9CVr80CpbBrIPMQE0nhj9W46bBjuKnQH3StT2sa6PBuAF8QC39Yj8fT6LBJnOhQO8uhL/i0avB
nG26QAwoWMDcM4XBAEHAQMJC7b8FnITB9qzOQNDckL+p9lDBIBm2QHqPwb8JHGLBIuexQPAfBL+L
0JjBLqbhQBL2tr/MO4zB+tv1QCQhi79FLm3BJUw0QSZUOz5LObXBSqpRQKnokcAdF6rB7LO2QD/6
oMCmT6jBCacBQPLXYcCR+prBmkIUQSJ+/7+NCZbB/IXcQHL4j8CaTpfB+/tMQBYhQMAl+InBKG8x
QXtozL/lMqPBQE0KQQUMqj9HUbPBSwUIQXv+CL/RN07BLm/MQFsV+D+ht6HBppvHQDtGrT+IQK/B
JRFIQGZsVz5A25/Bah6CQF4V1j/wPJzBCdlrQE6FrD/2CarB2HGHQOZy2b+WN6nB4CGZQM2LFb/W
lLPBCza/QBJAzr+foKzBbD+nQInlbcBPr3zB7/TZQJNrd8AFAYXBErmhQKFWrr95iYbBGwyaQL/p
Lr8gp5PBwh0AQQMGyr8QNIrBSFlxQJoMi8B4h6LBuzdDQHHzbsDhKprBW5qkQI0HlMBYRqHBjgwS
QQSvpL/t3JzBUKxsQFqwWsCKgZDBb2C5QOoCisDSmJfBmIIiQf6Chr/DSKTB+DYMQRuHGj8kYq3B
Iw7TQJZagL+QwVHBMv78QEAHFr+Fx53BHu72QFQqrT4QLabBGRGiQCxlbsChJI/BkaEfQQ6d0b1F
fqzBPc/QQCrGsr9gMXTBMWvZQHp/V79LV5bBPTvMQMAYhj92NqfBP8anQIcJyT06faPBmnB7QKsH
ZD9HiqLBlFOhQNrNh7+XkavBayy4QBESVsAm14TBatfAQDDC6r930ITBjkX3QFLxGr+/MlrBXuL1
QL5zWb/Dx2/BKFGyQAgq6r5BxZjB9K7hQAwOwr+h5IzBl5a6QMm5v78DvWHBKg40QUfuOT7Os7XB
J1dRQIUvk8Bu6anBuRoAQDmGYMBeLZvBolK2QCeYosDMvKfB1lQUQWUJAMBLe5bBxoxJQFsIPMCP
IIrBLhHbQLi0kMDYpJbBQ18xQQhozL/6saPB7TEKQSNJrD+vk7PBPlbKQJv9cb9wD0HBi1PMQErM
+T+yMqLBCPjGQPVGqj9ona/Bld1HQKiYXz6q55/BSLmBQM2e2T9xqpzBxOVqQJwHqT9KX6rBpmmH
QPrS279TwqjBPN+YQHnFJb/icbPBwyC/QK330b+zPKzBNJCjQHWxZsAnCHzBMafWQAToeMASMoTB
RPmiQKOtpr/QtIbBhS2bQD9sCr/0SJPBFsb/QG0S579gdYvBPt9wQNWhisCkjKLB3WGkQNOqk8A8
XKHBCSlDQG0zbsB/JZrBXyQSQZwQo7/CzpzBZ2W5QCq6icBZtZfBlBhtQAELWsBrg5DBYaMiQThD
hL9oMqTBbTIMQZnAGj9KZ63Bcz/TQFt+gr+TllHBegP9QF17Fb/8yp3Bz9z2QNDwqz6zNqbBI0+i
QOfPbcACN4/BQbMfQYvwub0YcqzB6fzQQGLRsr8kFnTBx2/ZQK7eV7+yX5bBDCrMQM/OhT9wO6fB
zaunQCI4wj03iqPBVoZ7QOlMZD/0caLBnfKgQF5Ihr+gu6vBT6C4QBrIVcAc7ITBOxPBQPro6b/A
y4TBMFP3QGavG78sAlrBRO31QN+KV79+n2/BFDayQMeZ9b4i4ZjB1OPhQPSlv79S2IzBqNm6QBSZ
wb/+nmHBEjY0QShGUj5clLXBl4RQQM2xksDe6anBve+1QE03osB82qfBCwAAQK3BX8AnGpvBSnUU
Qavm/b8EZpbBghjbQFJ8kMAhzpbByUpKQJ9pO8D1GorBLZIxQaYPyb/WjaPByB8KQc+sqz+6orPB
VpPKQO0feb+l4EDBD0LMQFo4+T8IMaLBz+rGQNp5qj9soK/BTuRHQIphYD4s1Z/B8AmCQB2J2D/p
f5zBPLNqQBHUqj+mOKrBuweHQCyc2r8u9qjBZF6YQMoTH788jbPB6K2+QK6j0L8HgazB4DukQMAQ
Z8BHKnzBcjbXQIpVeMBxXITBeiKjQLwipr+lqIbB3+KaQLOxF787epPBTRIAQdyQ4b/JU4vBxDOA
QMGLi8AKIaPB2pNPQBhidMBLtJrBDnysQGRmksBXzqHB80QTQRDEgb9hbpvBLCh3QKrjX8AB75DB
L1jAQF5AiMBeBJjBAIQjQQqGHL9shKLBzZ0IQbjCCz52Wq/B1KXwQERTIr8yJ1fBDET7QFKoTr94
QJ7B9t/wQGj2sL67lajBAMCnQC7absBhh4/BeSMeQYDfAD1jL6zB0l7NQCuptL91xHLBdp/YQKQ4
bb8SS5bBwGDCQDz5nb6F7qvBKUCoQB19hz6EiKLBUcSzQGbz4D+B06DBimNwQKBGFT7dAKXBD6e8
QApEVsCcFoXBrvLAQCme6L+FcoTBYxbMQKsTj78rZFDB/PK1QMvHzL+DsGHBJpyxQJQdBL/BopjB
3h3iQPs1sL9REYzBpRfyQK5mTr8CnGzBWyQyQX60Mz/IQrTBse1hQNKdk8DonarBYNQLQMyIacAz
wJvB2Sy/QKhvn8A/TajBRk0XQbYRvb865JPBVepRQLasRMC0f4rBREriQCNTjcCXAZfBIxY0QXNx
S78FjqDBCI8EQXjQFT8m8rbBDpUEQbzSOL5cX03BApy+QFe6qj7eA7PBZES3QOqlqb/40K3BeASh
QOw9CkBkHJrBaRnWQC1x7D+sBZ/BUl2sQB3EFEDhIqjBazRLQDQoDj+bSZ7BqY9hQO2mNT8oVKzB
U6NfQECpab/uKabBQeaoQKwlbcB6x3zBaZjcQOuac8DinoTBXQ2iQFwErr92iYbBdKGZQNEBPL92
opPB8V8AQdKjs7+jw4nBIh+AQOE/i8C0OKPBC32sQLXlkcCSBaLBptBPQJ4OdcB4rprBI0ETQWfS
gb9UZpvBJKrAQLAZiMAOQJjBm/x3QOxtYcBb65DBzpQjQQIbIL+ofKLBR9YIQZYxKj6ePK/BKtfy
QCP3Rb+gA1fBL077QEYTSb+dMJ7BmRXxQK06mr77d6jBzUioQATMb8CEpY/Bc1keQbBD5DzLIKzB
0eXNQPwRub8ZyXLBKJPYQMfBbL+5RpbBEKTCQLWUg74r4avBJuunQPklij79Z6LBSoOyQO+S4T9h
YaDBAf5vQJ5xCD5w/aTBdoa9QAivV8C8OYXBljnBQJJ/67+PdoTBMmbMQG6Bjb8mhlDB8kO1QIl9
w78A62HB2WKxQA4hCb94pZjBmyTiQNU2sL/2D4zB5Y/0QIb4fL83XGzBqYkyQbCnKD8pS7TBBVRh
QMH9ksDts6rBRQK/QEeCnsCOmajBye0LQE2DasDhoZvBizIXQYcDvr8x4JPBr6/iQEn3jMAeV5fB
LQNTQBBVR8COY4rBVBs0QXW+U79qi6DBqN8EQYIaIT9RybbB4DwGQRUHy77BHU3B/v6+QJNF1D4N
yrLBnM+3QLAyor8MEq7BKV6fQNp/CEDnnZnBD77UQOnQ7j+qgJ7BVfWqQEpGFkDplafBx/tJQIl0
Aj/kOJ7BT+9gQNK2Nz80NKzBYoBgQGzibL8NZabBJDqqQNyqb8AnAn3B4qrdQCBCdMAt5ITBrCCi
QAvRsb+/dobBglmZQMKdSb/Mw5PBRmIAQc3Jsb+PvonBBiOAQJz0i8A+9KLBuS6sQDLyksDAQaHB
vmVNQLeqdMD3wJrBmjoTQcn0gL+sj5vBcce+QGKQiMB9VJfB/npyQPixX8Ag15DBdMQjQUZSJb9+
nKLBwnoJQYBoRT4JaK/BdfbQQM5Abr/YYlHBeHj7QLNrQL+cap7BGt3xQDxsd776pKjBgCylQDTQ
bsCLEI/BquceQcj8GTxUSqzBUuDPQKeVq7+vzHPBk0/YQNBXbb91sJbByKvDQMJqTr7FPazBTb+n
QM83kD5L1KLBSU6wQORB5D+0uaDB1nVwQJvarD2NoqXBaxe5QIvXU8AGlYTB+o/AQJ865b8QpoTB
+ST2QLA0F7+zaVnB6Ij1QDhFWb/X+G7BQFexQCCHA78UBJnBoGbhQNXQur/mtIzBPKG4QL5Ws79s
nGHBOXYzQUx5Ez9nh7TBA7ljQNkelMCcjarBLam/QGRDoMDakafB4fgJQJLDacBuFJzBxewWQVMx
vb/hAZTBkY/gQNa1jcDECZbBgalLQGQBRMDZlYrB0zA0Qf2zXr9RnKDBWMYFQZwwKj8Y9LbBJXvH
QEqNWb/S0UDBbFTAQJHv+z4XBbPBOnO5QKyemr+Nta7B/lycQFAMCEDzAprBPkfSQCDW9j9evJ7B
K16oQNE8F0B776fBU4VIQPJl2z5z7p7BtNdgQBpeKj/o2KzB5g5kQFBme7+kIqfBtnyjQBimZMBv
63vB2drXQPn8dMCbhYPBjFiiQH42pL84nYbB6mKZQP26Pb97CJTB3AYAQXOK0L+j2orBpM5+QFAY
isA7TKPByyFNQLaqccAk8JrB7WyrQKHOkcCywaHBlzQTQZtbhL/kwpvBAVpzQG7jXsDzBZHBHJK+
QEudiMBJ0ZfB+40jQbwaJ79k2aLBIeUIQa5WQz43cK/B2VLSQNXBhL8OR1HBikf7QAKhR7+2ep7B
kxLxQP+Vh77NpqjBeI+lQAqhb8BcZI/BiWgeQaC4mDwaa6zBpcvQQEnmsr8m0nPB1KTYQJQUcb8N
m5bBj47CQBqPTb4P/qvB3hGoQA35nz6PaqLBc5KyQD3L5j9uVKDB7yFwQBYzLz5/5KTBQBK6QMvs
VsCP4ITBYn/BQPhX678/roTB9nH1QF44DL8NpFnBOHn0QH7cRL/CTG/B8MyxQCo0/74htJjBfyPi
QE/Tvr89uIzBhvG6QKx8yL8jYmHBebsyQcYFIT8SmbTB8WNhQP9tkcDv5arBzMAJQFmhZcBfJJzB
b3i+QNXDnsCWMqjBehgXQY1Swr9tSZTBjXZNQAifQ8C5porB3FDgQGtmjsDUo5bB3wo0QWrBX7/W
9qDBf/wEQU+WKz/p7bbBOqPJQP6mgr/mjUDBDPi+QEs0+T6lzbLBcWy3QEMCmr/HT67B56OfQByW
CkAtgJnB3NvUQKBI9D+Lhp7B66+qQOE/GUCee6fBjolKQBSeCT/vDZ7BolRgQBT8Qj+YDKzB69xg
QFkfY78VWabBDNWkQGEYacCDeXzBTuTYQFw/eMAqB4TB8jyjQDcwqr/5lYbBCRaaQDyNNr85nZPB
Xm0AQQyX1L9774rB/vNxQDvki8DXoKLBYXJEQKL7cMCUMJrBPSSlQAYhlMDukqHB3iwSQUgtpb++
cpzBLf5uQEjLW8AepJDBb4W6QABuicAhB5jBaa8iQWkcir/R56PB0E0MQfLIBj/IfK3Bv5ryQBbf
ML/YC1jBvzj9QPxBGL9Si53B1yT3QDBqlD5sNqbBIoCjQK7VbcAqfo/BIcwfQYKqJ77wW6zB0HrN
QHYouL+8QHPBDKDZQOgUUL+6AZbBoazMQJ6mgD+jY6fBWgGoQECspj0dbKPBScB8QMTVZT/ElKLB
M/GgQO1XjL+xRqvBBc+5QESXVsC6NYXBGRXAQPNg6r8ppoTBzADOQGHkkr+231DBZbO2QKhbzr/3
6mHBDXiyQMu05r6anJjBws3hQLCItr/gQ4zBLO3yQKbGXL/2f23B7Vc0QeCU3z2bhrXBTBlRQMx4
lMDB66nBMQABQEyMY8CIDpvBaZK2QI2mosB6F6jBW3AUQUeu/b+D6JXB/U9MQLOzPcDULorBwGvc
QCJfj8DFPZfBB5UxQfkfz79wJ6PBoDQKQf8lnj9z67PB3fMFQWJdg76Fi07BzBLNQIyy9j8AmKLB
mmbHQNj3oD8p2q/BpZ9IQEUJfT7lxZ/B6OyCQG6k3D+44ZzB/0hsQIs0pz8DfarBaOCGQA8y3r8I
T6jB2muYQEi2M7+/NbPBUYW+QEsK2L/B46vBskGmQCSxa8CxxHzBjy/ZQJBodsA/6YTBWcWhQGm0
qr9zsYbB7CGbQNAECb8OLpPBBSQAQcxRzb9BSYrBJ3/xQKx2hr6QmlDBJmLNQC6wh7/zVkzB6lD+
QMDz8LzD12XB7+UTQQDZjL9ga5zBMnu2QKB30r8IR13B+MbmQLzvFL9B0HbBU/0jQZwMQr9bw6PB
0sELQaDyUT8fcazBbPSIQB+IkMCae6DB3Lj+QJi4BL++TZ3BpOH2QL4B7D42PaXBtxzDQASTtb+o
nXLBWskfQZDaOD4i46vB7YqhQCoxX8B/OZLBdL3aQL74gr+wzpbBWBfLQOywjT/FCqbB7/SnQCCR
zj0DlqLBK7F6QLFZWj8fGaHBwbqhQDXEgL/2IavBrk2nQO4V/b+0KYLBUvW/QGWUN8DdNorBh6hQ
QLE4gcAQIZvBH19vQNw6WcBuO5LB1RK0QOLKB7/CP5jB1rHhQNYFCMAMGZDBEPGsQEJfhsBV/5rB
vjczQVQnBD9FgrXBcrEBQTfaLj7Ai0PBVELDQP6RnL93BjzB2R0NQa/mEj8hGWnB7zQXQeBc578h
GpbBVRebQAIzEcCu7VnBYt7vQFC0vL7okIPBGJozQZSHm7+JLaPBrOsIQUzNyj8gYbLBrXCHQCoR
osAe66fBhPbJQF9+/j+AyKDBk1PFQBV1tT8gXK7BiJlIQILkEj4fpZ7ByC2BQE/jzz+K5ZrBt0No
QIIRqj/dsKjBlq2IQAYP2r8xeajBrSaYQOTlC7/UwrLB9PK/QGHNxr/POqzBZLqNQE0ZJcD+BX3B
sROZQCVUkb83kobBPjXPQBmSa8D6qoXBn6CeQJjaFL9aU5LBbeP/QF73G8AkM4/B9rn4QA7bpL/b
ykPB0Y/RQNAOH7+WH0fB6IEDQcN4D8CGtFLBvXgRQWEbpr9QnpvBae+4QEydZL+niVnBsT7uQGvZ
IcBc7GTBwK4iQc8Jlr8MzqLBIx4NQQ9plz60GK7BraicQMYujsAFx57Bm+L7QGCmH79kpJ3BgF33
QM6UGT6BBafBZFnHQCyQ6r9+02jBL5AgQWMMvb5QAKzB1+CqQDrvTMBrvpDBvt3WQC6xR7+EXZbB
VaDNQBzIYj/zBanBpuymQCA0kD2hmaTBI3x+QNxNfj9PG6TBGMecQDIDkb8LA6zBxeiqQK4xCsCY
IXzBEyzFQNYAIsAQJojBSuBxQFD0eMB2g5vBvs2BQAfERsAcupLBbRawQDXf2769gpnBy83dQPn9
rr+9WYzB2T+8QL6QgMC0OpjB0Bg2Qea0R77eybTBeN8FQaWIiL89zjXBL1zGQDWGzD1GizvBE4IS
QSI/MMDJKlDB8SUTQRVc9L+hi5TBBeiaQObIwr6d91vB7t34QHNEUsCVDXDBzYQxQTaE2L/fRKHB
H5ELQfzAaj//HrXBujCgQDy4o8AIeqXBwsLOQAyX7j/OAaXBR3/JQJVQhD+drrHB73dHQLAU2z7L
/qDB/PGFQF4i7D/2yp7BbKpvQGmbrj+bLqzB8nCBQGva2L+VwqjB09KUQOTcQ788ELTBmOG4QJN5
5b9qeKzBDR2WQEt+QMC19nfBYhWXQATTo7/Izn/BgeXcQC1/UcDif4XB/ueXQFvo/74pTZTBcMP0
QEsee798tofB

> <OMEGA_E>
3EyePrB3qT5k5ak+SEXpPhDn6T44bfE+HPz0PoDImz6eyx0/NMIzPw==

> <OMEGA_NBR>
    106050

$$$$
50225009
  -OEChem-04172616093D

 52 55  0     1  0  0  0  0  0999 V2000
    3.7766   -4.3807  -20.2657 C   0  0  0  0  0  0  0  0  0  0  0  0
    3.0358   -3.7738  -19.2319 C   0  0  0  0  0  0  0  0  0  0  0  0
    5.1459   -4.6633  -20.0846 C   0  0  0  0  0  0  0  0  0  0  0  0
    9.1306   -1.2595  -19.5226 C   0  0  0  0  0  0  0  0  0  0  0  0
    3.6610   -3.4597  -18.0128 C   0  0  0  0  0  0  0  0  0  0  0  0
    5.7731   -4.3510  -18.8640 C   0  0  0  0  0  0  0  0  0  0  0  0
   10.1859   -1.0124  -20.4134 C   0  0  0  0  0  0  0  0  0  0  0  0
    8.8160    0.6380  -21.5882 C   0  0  0  0  0  0  0  0  0  0  0  0
    7.9066   -0.5697  -19.6774 C   0  0  0  0  0  0  0  0  0  0  0  0
    7.7422    0.3617  -20.7232 C   0  0  0  0  0  0  0  0  0  0  0  0
    5.0250   -3.7632  -17.8215 C   0  0  0  0  0  0  0  0  0  0  0  0
   10.0298   -0.0631  -21.4416 C   0  0  0  0  0  0  0  0  0  0  0  0
    6.6381   -0.9546  -13.2007 C   0  0  0  0  0  0  0  0  0  0  0  0
    6.5101   -1.3411  -15.3336 C   0  0  0  0  0  0  0  0  0  0  0  0
    6.7718   -0.8437  -18.7899 C   0  0  0  0  0  0  0  0  0  0  0  0
    6.4056    1.0648  -20.8868 C   0  0  0  0  0  0  0  0  0  0  0  0
    5.2573    0.1130  -20.4441 C   0  0  0  0  0  0  0  0  0  0  0  0
    6.2638   -0.8952  -11.7498 C   0  0  0  0  0  0  0  0  0  0  0  0
    3.9372    0.8977  -20.3475 C   0  0  0  0  0  0  0  0  0  0  0  0
    5.0804   -1.0535  -21.4504 C   0  0  0  0  0  0  0  0  0  0  0  0
    5.7014   -3.3356  -16.5462 C   0  0  0  0  0  0  0  0  0  0  0  0
    5.9771   -1.8299  -16.6263 C   0  0  2  0  0  0  0  0  0  0  0  0
    7.7890   -0.6316  -13.7390 N   0  0  0  0  0  0  0  0  0  0  0  0
    7.7103   -0.8770  -15.0828 N   0  0  0  0  0  0  0  0  0  0  0  0
    5.5612   -0.4353  -19.1008 N   0  3  0  0  0  0  0  0  0  0  0  0
    6.9973   -1.5726  -17.6442 N   0  0  0  0  0  0  0  0  0  0  0  0
    5.8233   -1.3738  -14.1835 O   0  0  0  0  0  0  0  0  0  0  0  0
   11.3380    0.2234  -22.5537 Cl  0  0  0  0  0  0  0  0  0  0  0  0
    3.2942   -4.6299  -21.1993 H   0  0  0  0  0  0  0  0  0  0  0  0
    1.9890   -3.5503  -19.3761 H   0  0  0  0  0  0  0  0  0  0  0  0
    5.7135   -5.1192  -20.8824 H   0  0  0  0  0  0  0  0  0  0  0  0
    9.2530   -1.9739  -18.7220 H   0  0  0  0  0  0  0  0  0  0  0  0
    3.0971   -2.9861  -17.2228 H   0  0  0  0  0  0  0  0  0  0  0  0
    6.8235   -4.5606  -18.7256 H   0  0  0  0  0  0  0  0  0  0  0  0
   11.1171   -1.5497  -20.3107 H   0  0  0  0  0  0  0  0  0  0  0  0
    8.7109    1.3843  -22.3616 H   0  0  0  0  0  0  0  0  0  0  0  0
    6.3902    1.9714  -20.2641 H   0  0  0  0  0  0  0  0  0  0  0  0
    6.2647    1.3422  -21.9419 H   0  0  0  0  0  0  0  0  0  0  0  0
    7.1197   -0.5279  -11.1645 H   0  0  0  0  0  0  0  0  0  0  0  0
    5.4106   -0.2132  -11.6189 H   0  0  0  0  0  0  0  0  0  0  0  0
    5.9860   -1.9009  -11.4014 H   0  0  0  0  0  0  0  0  0  0  0  0
    3.1293    0.2201  -20.0343 H   0  0  0  0  0  0  0  0  0  0  0  0
    4.0444    1.7061  -19.6093 H   0  0  0  0  0  0  0  0  0  0  0  0
    3.6940    1.3283  -21.3301 H   0  0  0  0  0  0  0  0  0  0  0  0
    4.2639   -1.7088  -21.1130 H   0  0  0  0  0  0  0  0  0  0  0  0
    4.8377   -0.6472  -22.4434 H   0  0  0  0  0  0  0  0  0  0  0  0
    6.0142   -1.6319  -21.5091 H   0  0  0  0  0  0  0  0  0  0  0  0
    5.0460   -3.5482  -15.6887 H   0  0  0  0  0  0  0  0  0  0  0  0
    6.6492   -3.8811  -16.4274 H   0  0  0  0  0  0  0  0  0  0  0  0
    5.0456   -1.3006  -16.8758 H   0  0  0  0  0  0  0  0  0  0  0  0
    4.8324   -0.4958  -18.4187 H   0  0  0  0  0  0  0  0  0  0  0  0
    7.9124   -1.9487  -17.4986 H   0  0  0  0  0  0  0  0  0  0  0  0
  1  2  1  0  0  0  0
  1  3  2  0  0  0  0
  2  5  2  0  0  0  0
  3  6  1  0  0  0  0
  4  7  1  0  0  0  0
  4  9  2  0  0  0  0
  5 11  1  0  0  0  0
  6 11  2  0  0  0  0
  7 12  2  0  0  0  0
  8 10  2  0  0  0  0
  8 12  1  0  0  0  0
  9 10  1  0  0  0  0
  9 15  1  0  0  0  0
 10 16  1  0  0  0  0
 11 21  1  0  0  0  0
 12 28  1  0  0  0  0
 13 18  1  0  0  0  0
 13 23  2  0  0  0  0
 13 27  1  0  0  0  0
 14 22  1  0  0  0  0
 14 24  2  0  0  0  0
 14 27  1  0  0  0  0
 15 25  2  0  0  0  0
 15 26  1  0  0  0  0
 16 17  1  0  0  0  0
 17 19  1  0  0  0  0
 17 20  1  0  0  0  0
 17 25  1  0  0  0  0
 21 22  1  0  0  0  0
 22 26  1  0  0  0  0
 23 24  1  0  0  0  0
  1 29  1  0  0  0  0
  2 30  1  0  0  0  0
  3 31  1  0  0  0  0
  4 32  1  0  0  0  0
  5 33  1  0  0  0  0
  6 34  1  0  0  0  0
  7 35  1  0  0  0  0
  8 36  1  0  0  0  0
 16 37  1  0  0  0  0
 16 38  1  0  0  0  0
 18 39  1  0  0  0  0
 18 40  1  0  0  0  0
 18 41  1  0  0  0  0
 19 42  1  0  0  0  0
 19 43  1  0  0  0  0
 19 44  1  0  0  0  0
 20 45  1  0  0  0  0
 20 46  1  0  0  0  0
 20 47  1  0  0  0  0
 21 48  1  0  0  0  0
 21 49  1  0  0  0  0
 22 50  1  0  0  0  0
 25 51  1  0  0  0  0
 26 52  1  0  0  0  0
M  CHG  1  25   1
M  END
> <OMEGA_C>
hrRxQEoujMA0IKLBCkpCQJ+FccD02pnBiaukQGA5lcBOraDBFBcSQc04ob9iLpzB9k1qQChrXcAm
GpDBbL24QLk7i8CM6ZbBSPkiQSCVgb+2TqPBQg4NQVJRIz+LtKzBQwP9QKzaEb9Wa53BM8D3QJkv
uT4UyaXBCM2gQO3XcMBgko7B8HkgQbw0gb1liKvB62rUQPZidL8cNlPBxlLQQI+qq7+hVnXB27LY
QBr9V7/HUZbBsPrMQAFKiD9AGKfBFzyoQA5V5z1+jaPBrHDIQK4rZb/8/jvBZPp7QEbPZT/Ax6LB
PZKiQLbYhr97mqvByHG2QKx6VcCVXoTBIkS/QD466r+3AoXBTT/5QOqyIb/80lvB7br2QOyBYL9Z
U3HBmvWxQAnm3r5rzpjBKOrfQIpKyb9pJ43B4Fi6QArar7+G72LBZmg1QTzAZD4NbrTB2dNSQFUo
lMAXmKnBUJj+P7k4Y8BLApvBptS2QLbQo8AbD6fBOgwUQZmp/L+WxpXBhTZGQHIbP8BEyInBK1ra
QHHwkcDuzZXBe98xQclbxr9BfKLB818LQQwysT+k5LLBk3zMQEVV/D/OHKLBrHjIQKTOqz8Fia/B
VdTjQNQmB7/EoTLB1COtQL9dWr4m5znBcY2/QIpR87//azbB7kVIQCRYYT4zRqDB82uBQOJg2j/U
35zB/GpsQLwGqj8NpKrBjHGIQIi72r9256jBk86aQBOxJb8ujLPBJHTAQFHh0L+NEqzB+HihQAEW
Y8DlBHvBWsbUQE9jeMBCa4PBs3WhQFF5pr+OAYfBOaOaQL7T/b6UWZPBUDL9QFxu+b8P/YvBGVlx
QJa7i8C9faLBAE6kQOd2lcAQ+aDBYfVBQKx9cMB1OprB2BMSQXT8pL8LXpzB1ym4QBA5jMAKI5fB
H6RpQCOYXcAwapDBLdEiQcQqhL9vkKPB4uAMQRKBJj+skazBNRj9QP9bFr/jYJ3Bebf3QG6QvD7t
kaXBzTugQDq+csA1zY7B9zcgQQ5Pg70jpKvBqdPVQBBagb+PWlPBBwjRQCZmtL9ccHXB0OjYQJAS
YL9UQpbBsxHNQDnWij99p6bB702oQBRIAj40P6PBmefKQK5ter/N/TvBLzJ8QMVOaT++UaLBonCi
QLVEgr+dfKvBacy1QL4UWcA8g4TBKJC/QMYu8r+VDIXB24n4QFqvDL+AiVzBPob1QJZqTL+WBHLB
0zeyQIxz5b6KmZjBig3gQMvs0b8XRI3BD8K8QO7KxL/SpmLB1+E0QcNNaj6nrrTBE7xSQJE7k8DX
AarBKXy2QKQCpMCeW6fBYIH+PykpYcDhbpvByBsUQaU6AcBTFZbB+p3ZQMGIk8BI+JXBCKxFQBXm
PsDwHIrB4K0xQevoyb/M6KLBhSILQTe5tD8sorLBHeXMQGG5/D/ieqHBdl7IQLwLsj8qBq/BmALl
QD0o/b6tEzPBex6tQJg80r5QpjnB+Y/GQOpjAMBbHDbBTH1IQPDkaT5s6J/BSp+BQNwo2j/lSJzB
dYJsQHxerj9TGqrBpkmIQBjB1r9+4KjBcJ2aQGcaF78HW7PBAkTAQDVzzL8zE6zBZ3WgQG9PZsC8
bHvBnr3TQJ9CfcAkiYPBNf6hQDxUrL/9+obBkhKbQF47A7+AGZPBlgj9QCXzAsDbSYzBcrJsQMSl
jMD8KaHB6ixEQNwNd8CGDZjBfsiiQDiPlMBsGqHBtG4SQeB6pL+8M53BcnJ0QPx7ZcCi2I7B5hy7
QCtEi8A/75fBGF8iQdxEi7+Z+6TBGK8LQcBgDD/RC67Butz9QKlIE79N753BpuX2QMc8pD5ueqbB
G6qmQCJ8dcAsyo7B5AYfQWyIK754W63BDRzwQAuXWL8eHljBvSPNQPzkur+Zc3TBbRXbQP1FTb83
NZbBr3/MQEybhj8hPKfBxfenQBpzCT5lEaPB8IwJQXpks75jzUnB8Ox9QPV8dz/5kqHBquueQKzY
gr9//6rBIE/AQBl6W8APPoXBhZrCQNbO8r/NJIXBVHPJQNQgmb9/QFLBS36zQBzYyr+gEWTBK7iz
QKqe3b6pf5jB5gLkQJ7at79hnozBfhXzQBy+gL8+b23BssAyQWjHlj2cA7fBQYpHQNe/k8DROqjB
hzsAQMBgasBGJ5jB/R+yQEzEocAYG6jBohQVQS3j/L91sZbByJ9VQMrAS8A/0IfBqTvdQOPCkMAA
6JfBji0xQbMw0r/iiqTB91IJQZSKoj+2XbTBI9jNQImc+z/sWaLBWDvGQMTsqD/bn6/BesYDQaCv
o74fLznBG2EXQXCCg78240rBYVsOQd0GKT8S0k7BtixKQJQNoz4NoJ7BfPSEQEh64j/xvpvBNhdr
QLcwtD/ZSKnB4/2EQAel07822afBw1WVQPwcG79tyLLBjgS8QEl00L8i/6vB+bywQL6CcsDQyXvB
1b3gQL9+dsCGyIXBQVqjQMCOvr/wiYfB3PmcQHu8Cb8p75LBClMBQRSGy7/XqYrB3pxqQJpOjMBq
BKHB3K2hQEyOlMDHMqHBdMtDQE76dsAdwpfBgZQSQZ9Co78AsZ3B0M+6QIHji8A0IJjBUqN1QLLM
ZsCxpI7BWgsiQVdwib9ds6XBW/4KQe30FT8mQq7BRDf+QB4eD78MEp7BWWj2QCfCtD51d6bBejin
QJRwd8Dr047B3EceQVQPEL608K3BXk3uQIgLV78GDFjB7HfNQEUKvr8jz3TBAhbcQOLSTb88M5bB
KdPLQOo7ij+f5qbBF+OnQN7lED5MuaLBIiUIQUzwr74WKEnBaA99QMbKcj95+6DBZOieQMcXgb/8
uarBDMrBQGQaXsASZoXB6gTEQCEj+L8aUYXBCCPHQL1dlr/P01LBboKyQMVDyr+46mTBb4+0QOic
3L5ZQ5jBkW7lQLduvL8yx4zBIdzyQAXMgr/wQW3BkmsxQbS7zj1W47fBLEBEQFbrksD/AqjBL1yw
QB2LocB1UKjBhe7/P4CyacC/rJfBW5IVQZzF/L+GR5fBMuTcQO+XkcAVSpjBjBpYQDqkTcAlfofB
SdAwQaQn0b/ziaXB0lYIQVbPqD+BdrTBulvNQNSB/T+/3KHBCt3EQFpbrz+MNa/B5LsBQcZsmL5E
yDjB4ecVQZuzg7+PlEnBW0oNQdseKT+oKk7BU15KQIqajz7JBp7BLGmEQAEP3z/8EpvB/t5oQF8a
sz8smqjBEGOFQJSz079ejafBMseUQJr9Fb9AcrLBJzG8QJERzb8z3avBm+GyQAhNdcAu8nvBmSbi
QFIqecCjIobBwMykQF4yxb8g2IfBZ1GeQJmQCb8yk5LB8AsCQSyi0r/v9IrBjnV+QL0yicDA96LB
8/xKQHglcMCtwprBAuCqQPrCkcBaFqHBrB0TQa2Qhb/VFZvBysRuQJPuXsBDq5DBXsa8QDlsicCo
+JbBHv0jQdihIL/ptaHBDVAKQcGTnz6RZK7B4o/7QHKVQ78CGZ7BmNvyQPTQM75/FqjBxeiiQLIC
ccABu47BY5YfQex10D3OGKvBOd3UQOllgr/igFLBBIHQQD4Nrr+awnTB1ubXQP5wd79Sn5bBDcTE
QAxfjL30vKvB2FGpQPMmyD4PJqLBbsfJQAjXhL9VKDvBmkG0QCjk7T8QTZ/BrB1zQPVilD4tA6XB
QKS2QFwXVsCRRITB+Zy/QDMu67+Ex4TBNOj3QDNmDr/cWVvBMi31QJb3RL/C8nDBA4axQL4e+77I
xJjBmD/gQJCLyb+t8YzBDM+7QL3hwL9OH2LBjpI0QagAOz+2vbLBXPNiQBLIj8CnuKrBMB4IQI8i
Y8DDOJzBuo++QPO2nsA/aKfB+2kWQTJhyb83vZPBC5xHQPnfQ8BpZ4rBjTXeQKfxj8Bmg5XB0080
QcK6Xb9RnZ/BIf8GQa4YWD+FubXBnEbCQOxbKj9GQ7LBeoW5QItBhr9kkq7BghnkQPSLF7+u5jHB
O1KsQAH66r5TgTjBFsbEQDroBMDh8DXBWqKgQC6eC0Cmd5jBPVfWQCNu9z+GL53BwpKtQMY/IECM
OqbBM1FMQAFDHj/PJ57B2ndlQDmWbj9X86vBxT1jQH3QQL90+6bB7megQIPVY8DdVHvBQr7UQIkZ
ecDj+oLBH9ahQDsMp799wIbBwSaZQFOEOr998pPBLVv+QM0u7b9lZovBVCh+QLQyisDj+aLBlduq
QFxZksDgK6HBUyVLQOZzccApxZrBtCITQVnogL/vJ5vBKBi9QFBcicCSH5fB5pZvQJDvXsATwJDB
cs0jQRoREr/Q06HBmK0JQUlpkj43qa7BW1/7QB5JRr+zNp7BvxTyQOyYY75wTajBZ2qjQAKBcMAN
3o7BOgofQWjwBD7VT6vBvzvTQI5DeL+dllLBTS7QQMxErL8VyHTBxf3XQDpQd7+ApZbB7MLDQEic
C7411KvBfQypQM38uj5fPqLB+vTGQPIRcb8sZTvBZse0QOsO6z8ds5/BuB5yQAdVjT7I3qTBlkS3
QMGiVcD+ZYTBnM6/QKb+6b960oTBpWL3QMrPEb98FlvBQX71QHY6Tr/6o3DBX4uxQCfD/L60w5jB
mpPgQCgBx78Y64zBazu6QBe5t790aWLBtK4zQayISj/EArPBIBxiQMlckcDBqqrBfmW+QEV8n8AM
f6fBlhwIQNDnZMAqLZzBca0WQbUdwr8Ov5PBq6PeQPGHj8DrupXBYcVIQGBBQ8CjforBijw0QWFw
Rb+HsZ/BcRwGQWkmSz9mE7bB/8fAQEg2ET9ljbLBZ2m4QA+YkL/gU67BCnDhQHmcBb9j8THB80Sq
QKifor5BUTnBniXAQAuG+79R6TXBxqWhQHf+C0AS3pjBRP/WQFd08z8htJ3B6weuQBy9HUAquabB
Ep9MQM2dIj/H/53BwQZkQI/6ZT/T6KvBuAthQPb2RL+JlabBeDuhQEMmZMB3j3vBEo7VQG8oeMDW
LYPBOPGhQPrqpr8g2obB+FmZQGwyOL+J2ZPB/dP+QD6e57+ESovBV3N5QGusisAu5qHBot1NQDNt
d8DRxZjBzGCpQJYfkcCvmaHBRKcTQcomgL9AX5zBUod7QOUMZ8AVU4/By2HAQH6BiMDRLJjBsUUj
QWj4Jr/a+6PB02MHQWsxGT7zEbDBu7b7QPZcQL+RmZ7BnIHvQJb+jb7CxqjBK2yqQCIndMCxBI/B
HCkdQXigiLwqlK3B2/HtQAaARL/xQFfBPxjNQBabuL+T13PBhnXaQFQlYL/OS5bBlF/AQBL6Tr5a
hqvB0myoQEu1uT6RvaHB5MoHQXxTXr6FpkjBudm0QPpK7D8G9p/BUrNvQIM9hj6XgqPB05nCQJ5j
WsCoMoXBXKfDQBaB8L9144TB1srHQIm6l79PsVHBmyGzQCHpzb9QrmPBYFyzQEG64L6hH5jBA77k
QEWwsb/UVozBVNXxQBx1ar+3jmzBxIkwQcYsDj/cerbB1VRWQA88kcBlKKnBco0JQNkfbcCBC5nB
2Om5QCWwnMBgnajBgUoYQdlmur8145TBWFVaQKpvUMAHS4jB5aXiQF7rjMA89ZfBmuwzQZf2Xr+F
eqLBBboCQdl3Gj9CjrfBhaa7QLp/6z7Pc7LBJD20QK98mr94ba3B58EBQcV5WL4oHjjByzUWQQBp
WL83k0nBkcYLQTpdTz/Rh03BP5qjQJ1UD0Au95jBTIfXQKel9T+nkZ7BWUCsQDGzG0BWFqfB4AFO
QEXJKj/OfpzBsdVdQKPYVj9TqarBRLtdQK+6Sr+OpKTBrGiyQOUxc8AxDXzBIGfjQP/Hc8ByioXB
TiikQHRsv78MWIfBkEecQBKTJ7+j25LBkbwBQfSstr9mIYrBdmWBQJCbjcB6vaLBQUOtQIBAlsAS
NqHBfBhTQPFecsCbp5rBTFgTQQ96g7+8lZvBX1TBQPiyisDLj5fBmep6QPGrW8CS/pDBV30jQcI4
Q7/HIaPByowIQeBXO71FD7DBDn/7QFoeR780Qp7BGb/wQKy1xL6Lv6jBEzepQOnvbcBqaY/BQCAe
QaAGXb4WLK3BU2joQOplwL4zi1fBwtXLQG4ZsL9F+HLBRDbZQEAcWr+SLpbBzR7CQKgJur4YAqzB
Y5unQMAddD7Fx6LBO+0BQSS2Bz8NPkrBdeSwQJNz4D8d16HBWFRvQMDP8DznBKXByga+QI1mVMC2
FYXBwAjBQFyj5L/ai4TBQuPJQCx4lL+DjVDBHLq3QESB47/7x2HBqjKyQBhP475fhJjBz4fiQNp+
qL9v/IvBVCPqQNBQ/b76AG3BGzkyQWiOaj6yJLbBvQ1kQDOulsCMI6rBNnW/QNG/pcC4c6fBTBYQ
QHOOZMAb4pvBgm4XQdSPtb+jy5PBvgLjQFnpkMDdZ5bBEJdWQOlBPMDWx4rBlv0zQXdxer/3O6HB
5XEEQTCXrz7i2rfB2zG+QJPcgD7hPLPBMTG3QETAsb85pq3BZ436QDOn4j5fUznB1NASQXeYeD7I
FEzBfYb/QGbyyD8YkE/B1+udQJ9mC0B7QJvB8iTTQBce9D/1OaDB/DioQBUtEEBWYKnB+IdJQBzS
6j7gb57BFhNeQMftBj+WkKzBcs9hQF0Jhr/OqKXBycmqQGYDbMAlqnzBi1feQFsccMDXqoTBLvWh
QPOirb8y14bBUtCaQH4nGb+BMpPBkIYAQSezqr/5lYnBs05YQBVPgcAAVaPBZYQuQBQzbcAitpnB
HB6ZQMIwhcBokKPBXlYUQQbJVr/BeZrBgYReQLM4YMCVTpDBcTqxQKNcfMB0MprBliglQZGmyr6o
G6HB3MQLQd74ZD++x6vBCi7+QKfl1r6EiJzBScX1QFn84T5dP6XBLkacQKuUaMBifJDB390gQR3O
8D5LwKnBYNP0QBQY8L/pK1XBa4POQFSW17/5Y3LBkM/ZQO5VXr+50JXBXYzIQJRhdD9g8abB65Cn
QNy3F75rAqTBS4ALQeOXFcAE2UXBX8V0QGX48T5VNaPBWT2nQMBPnr851KzB4NK1QETkWcBwTobB
Oxq/QChY879pe4TBcgXWQGbTgb+Od1HBDfK9QBB/ZL+92GPB0S+yQKygPL8PVJnB0oThQCiMt78/
zIvBidPwQJoLE8AgmWnBK7M1QSoBhD9G6bHBDYIzQKyLhsARh6rBdG3TP4W6ZsBDi5nBohmpQNaM
jcAg76rBWqgXQeSyv78k1ZPB3mE+QEfUT8Dj74jBl7TTQNxdgMCXcJrBqlk1QRlYOL8JkZ/BOYcI
QYGRyD/4V7LB3jbDQEbZ6j/q1aHBU2XEQE9anj9TYq/BNVkJQTL46r9gVTbB/0cKQWRGW8AXqEPB
JVobQRqbBcCNXkzB7TFGQP3fnr50IaHBp350QBP6nz8q+5zBYE5jQMGmaz+N8arBDd+PQDMVAcCX
varBu1eeQHcZSL97hrTBCUjHQASm179LfK3B+nujQA+kcsBy7H7BBWTUQAd3fMCI6YbBIaihQAlw
qb903YXBNzKaQA6shb/wo5TBieT/QN7qw7/VZonB4FSKQFQ1k8D8k6XB9savQORzp8Bb36HBhaps
QDCzZ8A4QZ/BO3ETQYGyMr9u2JrBp8jBQLOTm8By9JfBHxOIQPccUMAfWJXBr1AjQaXZF7/Iz6LB
5KAHQVqU0r7DhLDBohL7QBDgJb/Cs53BRWnvQG4w+b5TjqjBEnmuQElLdsA1tpHBRGgdQejk6L5G
pK3BE07wQJK+1r82EVTB/hrNQJBs2b//VnLBbM7YQE3ARr9sk5XBZFjAQFi6976YnKvB++mkQMYl
Gj5BhqLBKZ0JQXPV878H3UPB7mGrQODM1z/pA6LBX/1pQEN6Ab4ft6TBorbAQJGUX8Cxv4bBmrjB
QMMD+78cpITBGnfLQCTmib8QA1HB/021QNLHi7+pCmTBgg6xQH7I477p+5fBq23iQCmDqb/HmIvB
z+rxQOeNBMDXuGjB1hAxQdJcrr5ch7fB4Ql6QLfCm8BlQq3Buby+QFMdwMCwoabBDoYyQCqKScCu
A6LBTf0XQfQKUb9mkJLBR2beQPNMq8CEH5XBj5JwQI+LIMBzeZDBDAY0QaNnHr8PnqDB5SADQbbe
o74Z1LjB+RS8QP7uyz3V/rLBwLe1QNBmwr8496zBIb0EQWbTvb+mWzTB+ngMQdIFP8BrGULB0GMY
QR7ntL+nTEnBMKiXQHGrBkBWipvBvkrNQIlG9D+7dqDBSsyhQKelCEC4rqnB4w1DQMnsoz4sUJ7B
ldNXQDqxoT5AcqzB+fFeQB0xm79l8qTBa9WsQKQRfsAikYDBwZThQA1xeMD5O4bBa/ahQNMhxb8C
ZIbBgyWaQLwwGb8SiZLBN1gAQfOxpL9EA4nB

> <OMEGA_E>
6PekPph/pj6oyKg+GFivPmiu7j6QVO8+IHb0PkC59z7s+xU/TBMjPw==

> <OMEGA_NBR>
    115086

$$$$
50225013
  -OEChem-04172616093D

 46 48  0     1  0  0  0  0  0999 V2000
    3.6449   -4.3891  -20.0842 C   0  0  0  0  0  0  0  0  0  0  0  0
   10.3075   -1.1026  -20.3058 C   0  0  0  0  0  0  0  0  0  0  0  0
   10.1476   -0.1895  -21.3670 C   0  0  0  0  0  0  0  0  0  0  0  0
    5.0060   -4.7219  -19.9283 C   0  0  0  0  0  0  0  0  0  0  0  0
    2.9502   -3.7468  -19.0400 C   0  0  0  0  0  0  0  0  0  0  0  0
    9.2415   -1.3522  -19.4221 C   0  0  0  0  0  0  0  0  0  0  0  0
    8.9162    0.4665  -21.5567 C   0  0  0  0  0  0  0  0  0  0  0  0
    5.6715   -4.4220  -18.7238 C   0  0  0  0  0  0  0  0  0  0  0  0
    3.6128   -3.4490  -17.8352 C   0  0  0  0  0  0  0  0  0  0  0  0
    8.0015   -0.7002  -19.6118 C   0  0  0  0  0  0  0  0  0  0  0  0
    7.8376    0.1961  -20.6927 C   0  0  0  0  0  0  0  0  0  0  0  0
    4.9709   -3.7964  -17.6696 C   0  0  0  0  0  0  0  0  0  0  0  0
    6.8525   -0.9717  -18.7228 C   0  0  0  0  0  0  0  0  0  0  0  0
    6.5290   -1.3461  -15.1412 C   0  0  0  0  0  0  0  0  0  0  0  0
    6.5043    0.8906  -20.8851 C   0  0  0  0  0  0  0  0  0  0  0  0
    5.3551   -0.0523  -20.4372 C   0  0  0  0  0  0  0  0  0  0  0  0
    4.0383    0.7450  -20.3830 C   0  0  0  0  0  0  0  0  0  0  0  0
    5.1888   -1.2263  -21.4354 C   0  0  0  0  0  0  0  0  0  0  0  0
    5.6932   -3.3827  -16.4077 C   0  0  0  0  0  0  0  0  0  0  0  0
    6.0293   -1.8795  -16.4906 C   0  0  2  0  0  0  0  0  0  0  0  0
    5.6412   -0.5894  -19.0743 N   0  3  0  0  0  0  0  0  0  0  0  0
    7.0656   -1.6618  -17.5328 N   0  0  0  0  0  0  0  0  0  0  0  0
    7.6611   -0.7960  -15.0567 O   0  5  0  0  0  0  0  0  0  0  0  0
    5.7606   -1.4159  -14.1461 O   0  0  0  0  0  0  0  0  0  0  0  0
    3.1339   -4.6268  -21.0055 H   0  0  0  0  0  0  0  0  0  0  0  0
   11.2502   -1.6118  -20.1705 H   0  0  0  0  0  0  0  0  0  0  0  0
   10.9717    0.0076  -22.0366 H   0  0  0  0  0  0  0  0  0  0  0  0
    5.5386   -5.2071  -20.7328 H   0  0  0  0  0  0  0  0  0  0  0  0
    1.9102   -3.4834  -19.1644 H   0  0  0  0  0  0  0  0  0  0  0  0
    9.3704   -2.0408  -18.6002 H   0  0  0  0  0  0  0  0  0  0  0  0
    8.7993    1.1755  -22.3630 H   0  0  0  0  0  0  0  0  0  0  0  0
    6.7161   -4.6701  -18.6067 H   0  0  0  0  0  0  0  0  0  0  0  0
    3.0816   -2.9538  -17.0358 H   0  0  0  0  0  0  0  0  0  0  0  0
    6.4799    1.8096  -20.2811 H   0  0  0  0  0  0  0  0  0  0  0  0
    6.3749    1.1462  -21.9471 H   0  0  0  0  0  0  0  0  0  0  0  0
    3.2202    0.0816  -20.0661 H   0  0  0  0  0  0  0  0  0  0  0  0
    4.1395    1.5714  -19.6641 H   0  0  0  0  0  0  0  0  0  0  0  0
    3.8149    1.1518  -21.3803 H   0  0  0  0  0  0  0  0  0  0  0  0
    4.3709   -1.8807  -21.0996 H   0  0  0  0  0  0  0  0  0  0  0  0
    4.9535   -0.8282  -22.4335 H   0  0  0  0  0  0  0  0  0  0  0  0
    6.1243   -1.8031  -21.4819 H   0  0  0  0  0  0  0  0  0  0  0  0
    5.0486   -3.5689  -15.5361 H   0  0  0  0  0  0  0  0  0  0  0  0
    6.6222   -3.9632  -16.3075 H   0  0  0  0  0  0  0  0  0  0  0  0
    5.1161   -1.3324  -16.7677 H   0  0  0  0  0  0  0  0  0  0  0  0
    4.8957   -0.6608  -18.4118 H   0  0  0  0  0  0  0  0  0  0  0  0
    7.9780   -2.0364  -17.3683 H   0  0  0  0  0  0  0  0  0  0  0  0
  1  4  1  0  0  0  0
  1  5  2  0  0  0  0
  2  3  1  0  0  0  0
  2  6  2  0  0  0  0
  3  7  2  0  0  0  0
  4  8  2  0  0  0  0
  5  9  1  0  0  0  0
  6 10  1  0  0  0  0
  7 11  1  0  0  0  0
  8 12  1  0  0  0  0
  9 12  2  0  0  0  0
 10 11  2  0  0  0  0
 10 13  1  0  0  0  0
 11 15  1  0  0  0  0
 12 19  1  0  0  0  0
 13 21  2  0  0  0  0
 13 22  1  0  0  0  0
 14 20  1  0  0  0  0
 14 23  1  0  0  0  0
 14 24  2  0  0  0  0
 15 16  1  0  0  0  0
 16 17  1  0  0  0  0
 16 18  1  0  0  0  0
 16 21  1  0  0  0  0
 19 20  1  0  0  0  0
 20 22  1  0  0  0  0
  1 25  1  0  0  0  0
  2 26  1  0  0  0  0
  3 27  1  0  0  0  0
  4 28  1  0  0  0  0
  5 29  1  0  0  0  0
  6 30  1  0  0  0  0
  7 31  1  0  0  0  0
  8 32  1  0  0  0  0
  9 33  1  0  0  0  0
 15 34  1  0  0  0  0
 15 35  1  0  0  0  0
 17 36  1  0  0  0  0
 17 37  1  0  0  0  0
 17 38  1  0  0  0  0
 18 39  1  0  0  0  0
 18 40  1  0  0  0  0
 18 41  1  0  0  0  0
 19 42  1  0  0  0  0
 19 43  1  0  0  0  0
 20 44  1  0  0  0  0
 21 45  1  0  0  0  0
 22 46  1  0  0  0  0
M  CHG  2  21   1  23  -1
M  END
> <OMEGA_C>
UkZpQDdzjMBtrKDBleskQSchjb9FcqLBrVwiQboVQr6U76rBLTGgQMUZl8AQbZ/BJdA8QCDLb8Dh
UZjBVt0TQdwTrb+FYJvB4agOQXPb7j4VdKzBB321QO6AjcBVypXBfThnQKW7XMBlro7BCwYAQQU+
M7/e5JzB6836QGrSSD6liqXB6xGfQP73csBPW43B9UfbQK/DeL8yyJXBj+3QQBtNrL9PQnLBPyPQ
QHP8Yz+6FKfBxFyrQOtTVr1gf6PBEDqBQC22Pj9zEKPBrgqmQGH2nL+1e6vB1S62QNZ9WMAPQ4PB
8O/AQHGT8L/A7IPBE4W0QCzgFr8/mJjBPxniQKm11L8+Q4zBAij1QHTIS78M6HDBhla4QIs7tb9g
VmLB2pFIQH8OlMA2C6jB+gA0QeJQzr8YXaHBF4wvQfv1+TsDS7DBKTyxQHOgpsDU3KXBQoL0P/rv
XsCqUJnB/OwVQW6cAsAtzZTBvskMQeJ1lj9c57LBGerWQNxxlcCa2pTBGTlFQMIKPcBASYjBpVvP
QN6g5z/EP6LB2v7LQJy3kj++k6/BDhdOQFIIpz1Lh6DBLXeEQOwiyT8qUJ3BSid0QDxukz/fCqvB
i96LQJO78L8IzKjB7YKeQGAEVL/Fd7PB6fnDQM/M5r/82qvBS46hQBhoZMCyk3jB3ujTQMWkfcC4
dYLBF7ejQIaMqr89JIbBRqmcQLIpKb9LS5PB/0v/QBxVAsA38orBYh9rQBUOjcCVvaDBULgkQaIV
jr8OnaLBGR4iQWYnR76WFavBxM89QJj6cMB/dZjBokmhQC7dlsCpcZ/B0bQTQXs1rr+ohJvBr2sO
Qchl7T5fjazBnKRnQCd8XMAs047Bvku2QPWHjMCS0ZXBG8P/QNyXNL/2+pzBC2/6QNJMRT6KnKXB
8WqfQDhiccDkb43BvCDbQCBUeL/YzpXB++PQQOfVq7+s/HHBG8bPQMJEYz+mG6fB4Q6rQLTNbL37
iKPBvumAQKA8PT/bGqPB/calQM2Vnb83h6vBQRm2QE/jVsCsSIPBW/fAQCuK7b9224PB0ki0QEq2
GL/GopjB5zjiQFfR0L/DKozB8dv1QCblWL91RnDBCKK3QGuesL8wTGLBHcxKQLdQlcDOF6jBH84z
QXZjz7+IkKHB+EMvQQ6+OTvHdrDBNxT2P1UzYcBtgZnBla2yQMJOpsCv1aXBeMoVQcNmA8DW95TB
YoMMQehYlj9t/LLBtgNFQKe9PMCxfIjBi93XQPDFk8Bv2ZTBBAbPQH705j/9PqLBFY/LQNDmkj/7
l6/BHHVNQFptmj3Rk6DBMCGEQNxWyD9GWZ3BzpBzQA/Gkj8JFavB2qOLQCWL8b/v16jB0DaeQGwh
Vb9cgrPB3rzDQJc+579f6KvB7CihQFznYsArvnjBPcbTQLQZfMAiaYLBWs6jQIvPpr+hCYbB4Wac
QIwNLb9tWZPBvK3/QHJK/b/BvIrBCqxqQKmujcBgf6DBhMAkQQEeir/ixqLBS+ohQWlOLr4uRqvB
nmk+QEKDcsBnG5jBLhuhQDKol8DqXp/B4d8TQcqZqr9Em5vBciAOQcJL9T6Kr6zBIHNpQMl5XsCQ
i47BJbW2QAObjcD7zpXBzuH/QAZSML/ABp3Bzhv6QDI9UT4trKXBX2GgQI2Qc8BsVY3B53XbQBRh
dr8HzpXButjQQNQarb+cJ3LBgkrPQIGXZD9MF6fBVNCqQDHGZb3tbKPBn5GAQHotPD824qLBJl6l
QN+Wnb9IZavBAbC3QFGnWMAkTIPBB5XBQMRk8L8y74PBan+0QPWdF79rjZjB1cfiQCdl0b99OozB
b1q2QDglqL8b/GLBfpT2QPMibb9X9W/BunlJQDS2lcAgzqfBA+kzQV17yr/Rw6HBo/MuQXCW6zyi
t7DBUxX3P8ubYsAsBJnBZBOyQLMDp8A62KXBsyUWQTUwAcB0B5XBMgwMQUfXlz/5IbPBtqZHQHbr
PsCLH4jBN0nYQAYMlcDc9ZTBz5POQODH5z+FPqLB18HKQAAukz9+kq/ByyxNQDVGij0QSqDBDuiD
QOfYxz9sIp3BJRhyQEwkkj9N16rBNWeLQEXb8b8VpajBd3edQAylVb/MXLPBU2DDQOXX5r/J1qvB
DnmjQJqBZcCfjHjBeMLVQN/PfMDWmILBGxakQLtWrL8ZKobBmtCcQGpALL8NNpPBeigAQXdZ/b++
1orBTwV2QAKtjcD1+KDBFl8lQep6L7/MSKHBcNsgQXCYNb2wEKvBRp5GQDh0dsCjkJjBduqmQKOD
lsBGnZ/Bmo8UQYyzir8ngZrBiIkLQdRo3j3sd67BefFuQL5ZY8AUy47BpTC7QPDZjMBr2JXBqj3+
QGhMX78zr53BNoT1QMyDtr469afB/1yjQFpVdcAFY43BzDvaQDMpi7/1NJbB7iPQQL+rqb+B4HHB
C8/HQHiysb676KvByWmqQAgt4T2rs6LB88WxQGy4zj8mdKDBnd92QLDL2L2B/aXBTEq5QNslWcAf
NIPB56TBQHnu779Qz4PBXUizQF6DMb9P1JjBU63iQGCrzr+aGozB2Dz0QBUWRr8v/m/BzHO2QGHq
sb+7YWLB1QZXQEoPlcCneKjBr8I1QT8mX7+K/J7BdsctQckSqT7o9K/Ba2EDQMvaaMCkn5nBsgG5
QGeypMDiEKbB/AYYQT4+xr/t5pLB2BIIQZiwFD8YC7bB56tKQKvgRsBmW4jBzuPcQEdVk8Dg0pTB
P8zEQNdksj5tr7LBEKO+QFnurb+5fa7BmMicQPZF+D9T4pnBi2HTQPSr4z8tMJ7Bw2SqQKqPDECA
safBkIlMQOF+Xz5ydJ/Bv+xoQK4Q9z7VN63BswZsQPQblr98pqfB3qSkQJRUZ8DBmXjBjNvXQJJY
e8CwU4LBG7CjQIPBr7/HGobByteaQHOscL+nDpTB8YgAQYyo6r8kUIrBqtB1QCqYjMATIKHBTPwk
QSD6JL9kbqHBMAogQaDZBb3tR6vB366mQGYDlsBMwJ/B3KFGQFxodMAqsZjBenMUQf40ib8mmZrB
FqUKQQikRj3xvK7Bg/W6QG3njMAU8pXBMP5uQPA6YsD45I7BFdH9QPBZa7/Lzp3BB2n0QIDj6L6d
MqjBgEqjQBQWdcC+eo3Bwi/aQJL6i7+NKJbBqhDQQAw1qr8XxnHBHE/GQAoF6L4C5KvB6r+qQKRT
4j2PtaLBdyy1QG5ezj8WEqHBgh52QPAj/bwUmKXBr0e5QEdyWcCORIPBQbnBQEhT8L9cx4PBxn+z
QD68KL/spJjBjsviQFXGzr85DYzBNVzzQOtbOr+qAXDBr8q2QLtxt7/TKWLB1NtWQPp8k8DXp6jB
Cnw1QXQOSb+xH5/Bfq8sQSDJvz6HL7DBy624QAo3pMB7N6bBDoYDQHsuZsD+v5nBVTQYQXLSwb9V
8ZLB1d8GQWaB/T4ZYLbBOIncQKDxk8D05pTB2uBKQLLJRcA3cYjBJerCQE4zOD6BCbPBLSG8QIFP
vb/Fyq3B5HyhQIbVAECQhJrBwz7XQFjW3D+9DZ/BszGuQDqDCkDOeqjBzrlOQMn2vT47DJ/Basto
QDNEBz+E/KzBzrBmQI7xi7/Yz6bBhqOkQKT4Z8DZv3jBftPXQMDGe8AQbYLB5s6jQE71r7/3FYbB
NkKbQP6NWb9EppPB25wAQYLn6b+7P4rBqrdqQHlyksAhhKHBRmhsQOKkHD/PlqfBj66SQJIHmD/6
AK/B5rU+QPXCgsCnf5jBeQKiQABmmMCbGaHBsemFQFA3sTx1Lp7BEAe/QMW4lT86EK3BdiRsQB/n
cMBKHo/BRtK4QCLRjcAOwZfBBWuyQGCcHrxqOJzBCePOQLZADT9vxaPBnC+jQPSIecA50Y7BosbD
QBwGQL+W9JLB2+LLQCuZsL8Sf3LBL3T+QBPTzj4cCaLB01wDQaJ5fr+1D53BDTP7QGVXB8DLMaXB
F0UbQe9Ejb8jMJrBp+C8QJ8cW8D+LIXBGVquQMeLAMDinIHBSQPsQEShk79WI5PBJUunQK4Qir+Y
uIrBB2DyQOeJkL+b+HbBTy68QKOmi79Oh2DBz/5HQJTpmcD/v6jBF2ooQCvJHz/RI6nBTnCGQBeP
0j88NbbBcj30P5NIfcBdx5jBvMOyQMoXpcBB9afBY/xfQLXP0L75c5jBGsjUQMFu0D95r7LBqyNK
QP11WsCFI4jB0//aQM7FksCJbZfB4aoHQdPN+T5zuqnBd/AEQewVmD/AkJzB8p0AQQpHRsAXjaHB
VTHZQEs4AsDUX6fB84EHQRs/AMDSaazBeHceQWvNBcCkpZbB/PUkQVEKe7+1d6HBynQfQZ6jor4F
ZpTBJyC4QLIWhMBdCn3BLAHfQAAWWcAoUYfBgSmPQMUvCcDFW3vBZ9n4QD7WyL+dm4zB36uKQGoA
Ir8sAIvB

> <OMEGA_E>
8LbxPQDt8T2Q9gA+XHqTPkAumT60ckc/

> <OMEGA_NBR>
      5082

$$$$
50225003
  -OEChem-04172616093D

 46 48  0     1  0  0  0  0  0999 V2000
    3.6583   -4.3796  -20.1017 C   0  0  0  0  0  0  0  0  0  0  0  0
    5.0179   -4.7155  -19.9397 C   0  0  0  0  0  0  0  0  0  0  0  0
    2.9618   -3.7310  -19.0625 C   0  0  0  0  0  0  0  0  0  0  0  0
    9.2214   -1.3654  -19.4346 C   0  0  0  0  0  0  0  0  0  0  0  0
    5.6793   -4.4151  -18.7329 C   0  0  0  0  0  0  0  0  0  0  0  0
    3.6205   -3.4317  -17.8559 C   0  0  0  0  0  0  0  0  0  0  0  0
   10.2815   -1.1214  -20.3247 C   0  0  0  0  0  0  0  0  0  0  0  0
    8.8903    0.4575  -21.5649 C   0  0  0  0  0  0  0  0  0  0  0  0
    7.9856   -0.7039  -19.6148 C   0  0  0  0  0  0  0  0  0  0  0  0
    7.8183    0.1940  -20.6935 C   0  0  0  0  0  0  0  0  0  0  0  0
    4.9765   -3.7844  -17.6829 C   0  0  0  0  0  0  0  0  0  0  0  0
   10.1179   -0.2060  -21.3827 C   0  0  0  0  0  0  0  0  0  0  0  0
    6.8430   -0.9681  -18.7188 C   0  0  0  0  0  0  0  0  0  0  0  0
    6.5261   -1.3460  -15.1328 C   0  0  0  0  0  0  0  0  0  0  0  0
    6.4879    0.8950  -20.8765 C   0  0  0  0  0  0  0  0  0  0  0  0
    5.3401   -0.0486  -20.4289 C   0  0  0  0  0  0  0  0  0  0  0  0
    4.0232    0.7478  -20.3713 C   0  0  0  0  0  0  0  0  0  0  0  0
    5.1731   -1.2199  -21.4303 C   0  0  0  0  0  0  0  0  0  0  0  0
    5.6932   -3.3769  -16.4146 C   0  0  0  0  0  0  0  0  0  0  0  0
    6.0284   -1.8730  -16.4853 C   0  0  2  0  0  0  0  0  0  0  0  0
    5.6302   -0.5875  -19.0672 N   0  3  0  0  0  0  0  0  0  0  0  0
    7.0639   -1.6480  -17.5251 N   0  0  0  0  0  0  0  0  0  0  0  0
    7.6591   -0.7983  -15.0430 O   0  5  0  0  0  0  0  0  0  0  0  0
    5.7507   -1.4091  -14.1428 O   0  0  0  0  0  0  0  0  0  0  0  0
   11.4418    0.1096  -22.4684 Cl  0  0  0  0  0  0  0  0  0  0  0  0
    3.1497   -4.6198  -21.0237 H   0  0  0  0  0  0  0  0  0  0  0  0
    5.5526   -5.2032  -20.7413 H   0  0  0  0  0  0  0  0  0  0  0  0
    1.9235   -3.4638  -19.1922 H   0  0  0  0  0  0  0  0  0  0  0  0
    9.3510   -2.0566  -18.6149 H   0  0  0  0  0  0  0  0  0  0  0  0
    6.7225   -4.6669  -18.6107 H   0  0  0  0  0  0  0  0  0  0  0  0
    3.0879   -2.9314  -17.0606 H   0  0  0  0  0  0  0  0  0  0  0  0
   11.2223   -1.6363  -20.1974 H   0  0  0  0  0  0  0  0  0  0  0  0
    8.7718    1.1665  -22.3709 H   0  0  0  0  0  0  0  0  0  0  0  0
    6.4688    1.8103  -20.2667 H   0  0  0  0  0  0  0  0  0  0  0  0
    6.3545    1.1576  -21.9363 H   0  0  0  0  0  0  0  0  0  0  0  0
    3.2058    0.0834  -20.0544 H   0  0  0  0  0  0  0  0  0  0  0  0
    4.1251    1.5729  -19.6509 H   0  0  0  0  0  0  0  0  0  0  0  0
    3.7981    1.1565  -21.3674 H   0  0  0  0  0  0  0  0  0  0  0  0
    4.3560   -1.8758  -21.0954 H   0  0  0  0  0  0  0  0  0  0  0  0
    4.9362   -0.8191  -22.4270 H   0  0  0  0  0  0  0  0  0  0  0  0
    6.1088   -1.7961  -21.4798 H   0  0  0  0  0  0  0  0  0  0  0  0
    5.0449   -3.5694  -15.5471 H   0  0  0  0  0  0  0  0  0  0  0  0
    6.6223   -3.9570  -16.3139 H   0  0  0  0  0  0  0  0  0  0  0  0
    5.1150   -1.3251  -16.7598 H   0  0  0  0  0  0  0  0  0  0  0  0
    4.8861   -0.6615  -18.4032 H   0  0  0  0  0  0  0  0  0  0  0  0
    7.9810   -2.0091  -17.3564 H   0  0  0  0  0  0  0  0  0  0  0  0
  1  2  1  0  0  0  0
  1  3  2  0  0  0  0
  2  5  2  0  0  0  0
  3  6  1  0  0  0  0
  4  7  2  0  0  0  0
  4  9  1  0  0  0  0
  5 11  1  0  0  0  0
  6 11  2  0  0  0  0
  7 12  1  0  0  0  0
  8 10  1  0  0  0  0
  8 12  2  0  0  0  0
  9 10  2  0  0  0  0
  9 13  1  0  0  0  0
 10 15  1  0  0  0  0
 11 19  1  0  0  0  0
 12 25  1  0  0  0  0
 13 21  2  0  0  0  0
 13 22  1  0  0  0  0
 14 20  1  0  0  0  0
 14 23  1  0  0  0  0
 14 24  2  0  0  0  0
 15 16  1  0  0  0  0
 16 17  1  0  0  0  0
 16 18  1  0  0  0  0
 16 21  1  0  0  0  0
 19 20  1  0  0  0  0
 20 22  1  0  0  0  0
  1 26  1  0  0  0  0
  2 27  1  0  0  0  0
  3 28  1  0  0  0  0
  4 29  1  0  0  0  0
  5 30  1  0  0  0  0
  6 31  1  0  0  0  0
  7 32  1  0  0  0  0
  8 33  1  0  0  0  0
 15 34  1  0  0  0  0
 15 35  1  0  0  0  0
 17 36  1  0  0  0  0
 17 37  1  0  0  0  0
 17 38  1  0  0  0  0
 18 39  1  0  0  0  0
 18 40  1  0  0  0  0
 18 41  1  0  0  0  0
 19 42  1  0  0  0  0
 19 43  1  0  0  0  0
 20 44  1  0  0  0  0
 21 45  1  0  0  0  0
 22 46  1  0  0  0  0
M  CHG  2  21   1  23  -1
M  END
> <OMEGA_C>
DyFqQF8ljMBK0KDB25KgQP3klsCOhJ/B8o49QB/IbsAXgJjBB4sTQSPErr8EepvBNb21QNpIjcDv
3JXB4bZnQH6hW8DO2I7B94AkQbaJj78TmaLBgD4OQZA86j7ahKzB6In/QD4xNL8v65zBei/6QDOg
Rj46jKXBej+fQKQzcsCEdo3B/uIhQb33Ur7QD6vB7/naQB7Xd78AwJXBk9XQQCdIrL/zH3LBwpzP
QGweZT/7AqfBxOGqQHI6R71rbqPBLb6AQBlwPz9a+KLBz4mlQEwmnL9ZcavBtC62QIoeWMAhUYPB
8ejAQHa/77/T4YPBNiq0QNVnFr+fiZjBPgviQMDy0r9gM4zBKBf1QKZdTL8fsHDBXQW4QPxdtL/s
SGLBtBE3Qalw4D1Tv7PBxpRJQAvVk8CIMKjB3K6xQPWApsBF7qXBoDT2PwCvXcCsiZnBwJ0VQcme
A8BZ65TBeh7XQCdXlcDM4pTBs6BFQC2cO8AnfIjBco4zQRlx0b9FlKHBJ1kMQUFPlT+d97LBsQDP
QEu55z8+IqLBIljLQFIrlD+Jfa/BEyxNQFPGqj1nb6DBuwCEQEJTyT8PNZ3BXhRzQLMHlD938KrB
ImSLQAsZ8L9Mw6jBifWdQJKxUb9varPBBHvDQA7o5b+I1qvBtm+hQE9wZMDKwHjBGerTQOY/fcDp
goLBua2jQC2eqb8VFIbB0FqcQAZaKb/DOZPBc2T/QKOVAMDd2YrBtVZqQAMPjMBOtaDBf8Y9QCRM
b8B1V5jBFqegQNHylsBdb5/Bm5gTQWjhr78hfJvBX/tnQAnhXMDrq47BiNm1QMKujcAaxJXBK6Ek
QYTGj7+ljKLBuXMOQdr07D7xcKzBRKr/QIwoNr/i75zBu3r6QC9NRj5dhaXBgGifQGJgc8AuVY3B
6RUiQe43Tr6g+arBcQnbQKzoeb/6yZXBvbHQQA3Aq78JRnLBTRDQQNKJZz+J8qbBIg2rQLBt7Lw8
X6PB60qBQIc0ST/ww6LBuwalQOQ0mL9Xc6vBWn+2QEq8WMAAP4PBAOLAQDDH8L8x7IPBZEy0QKIF
Fr82i5jB0f7hQM+c1L9ZQozBcLj0QGNcR78m8HDB4i+4QJtLtr+aVWLBSVs3QfIr/T3hlrPBK9FJ
QJBfk8AMHKjBcpn2PycsXsAJWpnByLexQM5npsDY4KXBQpsVQTSQBMCy9pTB5+RFQO95PcADQ4jB
RzXXQBPblcDJzZTBVq4zQbWj0b8jhKHB0JsMQYSflj+227LBkLzPQAfG6D+HDaLBLc/LQETUlT9n
a6/BEtFNQN1IBT7vO6DBkRuFQA0QzT9J8ZzBJBR0QHWfmj/ir6rBRLCKQNMy679dxajB/GWdQHHl
Rr8oYrPBFbnCQOBm479N76vBy/ehQG72ZMCxhnjB+lvUQJd5fcD8dYLBhYujQJOvq7+IKIbB2Xqc
QIhYKr87PZPBMEP/QBLqAcAR74rBSYpqQBGPjMD0mKDBvWc+QMV6cMCDLpjB1eCgQH8ol8Dlbp/B
paQTQZjpqb9WgpvB60hpQFCvXcDmkY7BFW62QLKljcDb05XBBokkQUWiib+VpqLBXPwNQePd+D65
lazBo3//QFQ5Lr+y9JzBBc35QNSZWj5GmKXBKzKgQP2Nc8DaV43BJr0hQejLKL5YIqvBzAzbQBpp
db+myZXBcdLQQC4Irb+eL3LBygTPQKbwZj/SCqfBrIyqQJbnT71LcqPBa0eAQMIGPT975qLBY0il
QO8CnL86favBqJG3QKzXWMDaTYPBZWLBQICb8L/J7YPBiBS0QMRDGL+clJjBymziQLxY0b9EPIzB
cnS2QLsSqL/o9mLBVYP2QE95a7+VFnDBEdk2QaySJT5N17PBmYBJQCAHlMAM9KfB7nz3P7HIX8AS
HJnB1sOxQF+UpsA96aXBKtwVQa7jAMCC7pTBrYNHQP15PsCCHojBMeXXQLiJlcBB9JTB56wzQR0/
yr8NoqHBefQLQXydmD/NCrPBRy/OQLOj6D+8KqLBjaDKQKnglD8rha/BS5VMQH6Kiz3QWqDBFYWD
QLPFxz+tHJ3BuKtxQMM9kz9N2KrB/lKLQBzN8L9XzKjB+XWdQLDBUL9rcLPBUFXDQNX55L/08KvB
pmqjQBTfZcDqjHjBI6vVQJPwfMDioILBu9SjQC63rL9oIYbBa0acQOx5L7+hSJPBxfb/QNaB/b9I
4IrBzBlzQMw3jcAN8aDBH7dEQJVwdMDqhZjBR0+lQBXYlsCyoJ/BzcsUQbKTj79OiJrB0s1tQNav
YcBNyo7BAfi5QI9hjcD95JXBWrclQYG1RL+3ZKHBwi8MQd4A0T2gaK7BuOT+QFhtW799nZ3BeH/2
QLntob4T06fB66yiQLIVdcDRbo3B0mkhQQa55r0RIqvBS8raQK2Vir/dM5bBJffPQEkbqb9O+nHB
0AnJQLpqlr6K6qvBUl2qQAausT3gvaLBCrWuQBQvzD+OQ6DBEDx4QH/4WL4QQqbBNgy5QA9LWcCQ
SYPBV7DBQKIw8L9W3oPBIbqzQA9/Nr9+5pjBnvniQExVz78pHozBlUfyQIv+Kb/SdXDB6KG3QBEY
vb8YG2LBrF82QWaTyz6WV7PBE41TQHNrlMBNaqjBYawBQJC6ZcDvipnBNgC3QIJ6pcDkFabB9xkY
QQfyy78C8JLBMk1KQNFkRMAvWIjBJY3bQC6ElMB255TBzQI2QT77f7+PMZ/BOugIQQcmFj9c9LXB
Q0vGQOGH5D7WY7LBX4TAQP0Ppb8w/a7BiNCYQO267j9RuJnB7dPPQAx36D9x3Z3BAZSmQD1kC0D6
cafBXt5LQL0YZT0ixZ/BEuVoQMaewT7fbq3BmdtxQABCpL8RFqjBGJqkQDdlZ8BKsHjBiYvXQNPc
e8BEfYLBpt2jQI2Yr7+dOYbBtFubQCRner9gK5TBt6MAQceH7L/sTorBbjd4QGvgjMBWLqHBLuan
QPQBlsDCt5/B5FZIQMvjdMCT0JjBPEgUQfKwir9bfprBAM+7QO24jMDH4JXBevpvQOVQYsDc+47B
z9gkQba2I7/UOKHBUJkKQZjRZj0rlK7BGI79QJrQbb/Cwp3BUk70QAr87L4oJqjBA8CjQLT1dMAD
d43BOugfQUDZJ7wUAKvBN9/ZQFGWi7+DIpbBizTQQCvQqb+NwnHBOEDGQKIk5r5+26vB5feqQNYM
Bz5ksqLBNRW2QCy00D+QG6HBYnN2QAAtJDzPkKXBElS5QCUOWcAmN4PBDY/BQC2R77+wvoPBiF+z
QBGoI790nZjBGXfiQD09zr/oCIzBhg/0QAQUQr9F+2/B2sK2QNnls78SL2LBeTo0QVZjLj9xvbLB
hsRZQA4GlMCZuqjBwy+6QGAgpMC5JKbBo0IFQH7oZsAy85nBFvcXQQsQxb+T4ZLB2GXdQMeIk8BS
xJTBUl1LQGi7RcDslYjBQFY1QZbRR78h5p7BhugGQeoAAT/sOLbBkRPDQByyNj4BCrPBcrW7QP6X
vL+Bs63BUJWiQIDHAkB/kZrB7jPYQNlc3T8uGJ/BrVqvQJGgC0D/iKjBLXlPQOZ32T4VCJ/BdpZp
QG9QET+U+qzBhAtmQJ5Yhr9fvabB4HykQCGjZ8BAuXjB0erXQL4ce8DxTILBV5GjQJxer782AobB
cxCbQNNKUb+ZnJPBY3MAQViC6b8mP4rB

> <OMEGA_E>
APAJPgj6Cj7Q4BE+mH+YPhgjoj4=

> <OMEGA_NBR>
      9363

$$$$
50225001
  -OEChem-04172616093D

 49 51  0     1  0  0  0  0  0999 V2000
    3.7692   -4.3431  -20.1679 C   0  0  0  0  0  0  0  0  0  0  0  0
    3.0540   -3.6968  -19.1405 C   0  0  0  0  0  0  0  0  0  0  0  0
    5.1224   -4.6903  -19.9773 C   0  0  0  0  0  0  0  0  0  0  0  0
    9.1590   -1.4033  -19.3549 C   0  0  0  0  0  0  0  0  0  0  0  0
    3.6858   -3.4136  -17.9165 C   0  0  0  0  0  0  0  0  0  0  0  0
    5.7586   -4.4028  -18.7531 C   0  0  0  0  0  0  0  0  0  0  0  0
   10.2334   -1.2025  -20.2306 C   0  0  0  0  0  0  0  0  0  0  0  0
    8.8932    0.3806  -21.5258 C   0  0  0  0  0  0  0  0  0  0  0  0
    7.9410   -0.7229  -19.5752 C   0  0  0  0  0  0  0  0  0  0  0  0
    7.8095    0.1643  -20.6625 C   0  0  0  0  0  0  0  0  0  0  0  0
    5.0343   -3.7763  -17.7136 C   0  0  0  0  0  0  0  0  0  0  0  0
   10.0954   -0.3256  -21.3250 C   0  0  0  0  0  0  0  0  0  0  0  0
    6.7839   -0.9645  -18.7095 C   0  0  0  0  0  0  0  0  0  0  0  0
    6.5376   -1.3421  -15.1198 C   0  0  0  0  0  0  0  0  0  0  0  0
    6.5013    0.8921  -20.8689 C   0  0  0  0  0  0  0  0  0  0  0  0
    5.3325   -0.0455  -20.4689 C   0  0  0  0  0  0  0  0  0  0  0  0
   11.2651   -0.0861  -22.2406 C   0  0  0  0  0  0  0  0  0  0  0  0
    4.0285    0.7717  -20.4418 C   0  0  0  0  0  0  0  0  0  0  0  0
    5.1870   -1.1950  -21.4997 C   0  0  0  0  0  0  0  0  0  0  0  0
    5.7185   -3.3729  -16.4243 C   0  0  0  0  0  0  0  0  0  0  0  0
    6.0043   -1.8578  -16.4643 C   0  0  2  0  0  0  0  0  0  0  0  0
    5.5751   -0.6124  -19.1023 N   0  3  0  0  0  0  0  0  0  0  0  0
    7.0138   -1.6056  -17.5025 N   0  0  0  0  0  0  0  0  0  0  0  0
    7.6835   -0.8167  -15.0494 O   0  5  0  0  0  0  0  0  0  0  0  0
    5.7846   -1.4020  -14.1134 O   0  0  0  0  0  0  0  0  0  0  0  0
    3.2802   -4.5731  -21.1030 H   0  0  0  0  0  0  0  0  0  0  0  0
    2.0215   -3.4190  -19.2929 H   0  0  0  0  0  0  0  0  0  0  0  0
    5.6716   -5.1768  -20.7698 H   0  0  0  0  0  0  0  0  0  0  0  0
    9.2613   -2.0750  -18.5154 H   0  0  0  0  0  0  0  0  0  0  0  0
    3.1374   -2.9172  -17.1296 H   0  0  0  0  0  0  0  0  0  0  0  0
    6.7975   -4.6607  -18.6095 H   0  0  0  0  0  0  0  0  0  0  0  0
   11.1674   -1.7195  -20.0671 H   0  0  0  0  0  0  0  0  0  0  0  0
    8.8066    1.0847  -22.3402 H   0  0  0  0  0  0  0  0  0  0  0  0
    6.4795    1.7962  -20.2427 H   0  0  0  0  0  0  0  0  0  0  0  0
    6.4004    1.1762  -21.9268 H   0  0  0  0  0  0  0  0  0  0  0  0
   11.2295   -0.8004  -23.0763 H   0  0  0  0  0  0  0  0  0  0  0  0
   11.2189    0.9403  -22.6336 H   0  0  0  0  0  0  0  0  0  0  0  0
   12.2024   -0.2227  -21.6813 H   0  0  0  0  0  0  0  0  0  0  0  0
    3.1908    0.1173  -20.1590 H   0  0  0  0  0  0  0  0  0  0  0  0
    4.1214    1.5860  -19.7081 H   0  0  0  0  0  0  0  0  0  0  0  0
    3.8414    1.1964  -21.4391 H   0  0  0  0  0  0  0  0  0  0  0  0
    4.3552   -1.8510  -21.2032 H   0  0  0  0  0  0  0  0  0  0  0  0
    4.9834   -0.7718  -22.4944 H   0  0  0  0  0  0  0  0  0  0  0  0
    6.1194   -1.7777  -21.5329 H   0  0  0  0  0  0  0  0  0  0  0  0
    5.0637   -3.6029  -15.5709 H   0  0  0  0  0  0  0  0  0  0  0  0
    6.6644   -3.9246  -16.3198 H   0  0  0  0  0  0  0  0  0  0  0  0
    5.0735   -1.3251  -16.7092 H   0  0  0  0  0  0  0  0  0  0  0  0
    4.8042   -0.7260  -18.4755 H   0  0  0  0  0  0  0  0  0  0  0  0
    7.9448   -1.9232  -17.3227 H   0  0  0  0  0  0  0  0  0  0  0  0
  1  2  1  0  0  0  0
  1  3  2  0  0  0  0
  2  5  2  0  0  0  0
  3  6  1  0  0  0  0
  4  7  2  0  0  0  0
  4  9  1  0  0  0  0
  5 11  1  0  0  0  0
  6 11  2  0  0  0  0
  7 12  1  0  0  0  0
  8 10  1  0  0  0  0
  8 12  2  0  0  0  0
  9 10  2  0  0  0  0
  9 13  1  0  0  0  0
 10 15  1  0  0  0  0
 11 20  1  0  0  0  0
 12 17  1  0  0  0  0
 13 22  2  0  0  0  0
 13 23  1  0  0  0  0
 14 21  1  0  0  0  0
 14 24  1  0  0  0  0
 14 25  2  0  0  0  0
 15 16  1  0  0  0  0
 16 18  1  0  0  0  0
 16 19  1  0  0  0  0
 16 22  1  0  0  0  0
 20 21  1  0  0  0  0
 21 23  1  0  0  0  0
  1 26  1  0  0  0  0
  2 27  1  0  0  0  0
  3 28  1  0  0  0  0
  4 29  1  0  0  0  0
  5 30  1  0  0  0  0
  6 31  1  0  0  0  0
  7 32  1  0  0  0  0
  8 33  1  0  0  0  0
 15 34  1  0  0  0  0
 15 35  1  0  0  0  0
 17 36  1  0  0  0  0
 17 37  1  0  0  0  0
 17 38  1  0  0  0  0
 18 39  1  0  0  0  0
 18 40  1  0  0  0  0
 18 41  1  0  0  0  0
 19 42  1  0  0  0  0
 19 43  1  0  0  0  0
 19 44  1  0  0  0  0
 20 45  1  0  0  0  0
 20 46  1  0  0  0  0
 21 47  1  0  0  0  0
 22 48  1  0  0  0  0
 23 49  1  0  0  0  0
M  CHG  2  22   1  24  -1
M  END
> <OMEGA_C>
YzpxQAb7isDhV6HBQ3VDQGSYbMDUH5nBo+qjQC4XlsB50Z/BOosSQaOes7/i1prB8+NrQOp4WsD+
VI/BxEa4QOPjjMBABpbBLLwjQb7qmb882KHBjUoOQYfbwj7fNKzB9xz+QDoTOb8OmpzBjef5QPI+
KD7ATKXBqBihQGSvccBetY3Br4YhQViwpr6pmarB+BXZQEDpdr/1rJXBwDPRQB7Lq7/c6nHBVArQ
QEJfZD+F86bBm6OqQFhDOr03wKPB8D00QcBFsL3Q7LHBiemAQFCQRT/fiKPB4/ulQLv2mL9b/6vB
S/62QDjdV8DtZIPB/iLAQIfM7b/xtoPBMGeyQFbIHL+B0ZjB3HDgQNmCzb8KBYzBot/1QA4RUb93
ynDBkxu5QEl1s79J0GHBEe5RQIxWksDu0qjB42ABQG7RWsDHV5rBwn21QI6opcCPKKbBMy4UQY3M
BMCaH5TBw8pIQEKzOsByCYnBaYXZQBUklcA24JTB2a0yQasY3L9yiaDBqOcMQUzWij+nuLLBYVjP
QC3p5T8O8aHBGdDMQDGPlj8Haq/BO6wzQQfpTL9dnLjBnIAzQaC4cD+HEbXB/jxDQXwKZL5Kc63B
SjZMQDcz8D27RaHBUOKDQHsByz8sqp3B5Nh1QIQkmT9Zg6vBF16LQEXt7L82oKnBQ3ifQJKURb+C
9LPBLdLDQMaL4793Q6zBBgqiQH6VZsBFInnBJEPVQN4re8DrjoLBfFqiQCWdqb+IrIXBOLyZQK/d
Ob/czZPBmDv+QM8s9r/elIrBx+NuQMuJisCOOaHB/NSiQOCVlcB205/BfdpBQB6ja8CX8pjBU14S
QcxLtr/985rBfbG3QBEhjMB3HZbBUjprQFI5WcCoOY/BaqUjQSIinL9j5qHBZU0OQWg3uz7jSqzB
Du39QK4KPL8BtJzBns75QDkyGD6TbaXBL+WgQLAPcMBXvo3BAbYhQZ5coL7XeqrB8/TYQMqPdr/H
vJXBXj7RQChlq7++t3HBru/PQL6iXz/gI6fBKYmqQFB/f70T6KPBRhQ0QbYOAr52HrLBds2AQBRN
QT/2w6PBNgCmQDewm7/LHazB9jS3QIqeVsAleoPBVjnAQP0b6781roPBRTyyQEFQH79Z75jB6ozg
QAwIyb9R84vBoYD1QCRvSb9hhXDBmZ+5QH3Rub9ngmHBOOROQPr4kcCAp6jBGRW0QLxMpcD+MqbB
UTz/P1IHWsBuEZrB8OATQQnDBsD7SpTBPAjZQGI5lMCbEpXBlKpIQGaHOcC74IjBPHEyQaPV4L/Z
rqDBMdQMQc1jhj+377LBRSzPQP4W5D9NLqLBdcTMQGU+kz/Anq/BwNMyQSBZXL82pbjB3JEzQYDh
Yz+edbXB4EVDQTlOjL4E1q3BVfJLQKBs0j07e6HBBLeDQP2RyT878Z3BUsp1QGIPlj/RxavB6GWL
QOKn779cvKnBFoefQMkqTL9UF7TBQ97DQOUa5r9DWazB8JaiQGj/ZcCQN3nByZLVQMzEecCfxILB
b2eiQK7Ppr/DloXB8YCZQN1NPb8X8pPBqpz+QC4H7b8AYorBabByQPAGi8BCaKHBValEQNLUbMD7
MpnB2rukQEjKlcAi4p/Byj0SQT1Us79q3prBhAdtQOYZWsB2a4/BwRG5QJ5AjMB3G5bB6msjQY/d
mr9P5KHBvwEOQTL2uj4xWqzB+5P9QFDsN78eqZzBM1z5QBGZIj4ja6XBwcehQK94cMCjzo3BRTsh
QYl/rr6ssqrBv6PYQKKCcr9ZsJXBKkXRQKvbq79Mq3HB7HPPQFD8YT8DG6fBXTCqQGiteb3a56PB
3QI0QZx7z71j+rHBP0GAQLQPPz9P16PBQxemQOfzm79DG6zBtZG3QKOZVsDAe4PBWSfAQCbV6r/R
p4PBQd2xQJh/Hb+66JjB2VjgQOERx7816ovBn2C4QM6orL9f2GHB1Qf3QJxXZ7+dHHDBvXNTQGiY
ksD44KjBoW0CQJygW8B8aprBPWS2QINZpcDaNabBfdsTQV5KBMCUHZTBJbZJQMmEOsACIYnBGmLa
QB45lMDX9ZTBZ1gyQfo33b+Uj6DBMJ8MQc3Vhz8S7LLBu5nOQCfV5D+ZG6LBCEHMQPUYlT/Ykq/B
boszQf+SUb82pbjBnUIzQeZvbD/iJrXBKfdCQSoFb76yda3BkhJLQGWztD3ylKHBj9SCQAXGyD/f
B57BAtt0QCJulD993avBmJaLQJWa8L80wKnBObGfQJKRTb+uGLTBRBjEQFWF5b8ySqzB6L+iQHdg
ZsCgVXnB5BDWQD0xecAas4LBnS2iQJdDp78og4XBjxyZQEAoPL8n7pPB+n3+QJLx6b8rWYrBYCeB
QGnEi8B1I6LB57isQGjqlMCHTqDBuEdQQMadcsA1+pnBEAYTQXjKlb9UHZrB5U6/QDqli8CVS5bB
vCx1QFtOYMA6+Y/B5dQjQcAFP784taDBPiQKQQhGsr0ieK7BeGT7QFkUgb/ToZ3BffPyQNafF7+B
K6jBkhimQIrqcsDQEY7BOT8fQTi1+L0XjqrBcJ3XQOuFir/AEJbBvHTQQIigqb80cnHBHivFQJJg
Dr+OAazB35GqQGQF9j3tJKPBLBoxQek64j5MPbHB+Qq4QNH0zT96EaLBJs51QEjLdz0JL6bBywe6
QD2kV8C4i4PBpZrAQFNO678SmoPBEI+xQFUYHL9GwJjBvaXgQKjFw79/0YvBfbX0QAfhRr/J12/B
uru3QGPhtL9FnWHB9+BlQKHrksDjzqnBG92/QLkHo8Bck6bBSJwNQJpgZMAKZ5vBo1UWQZ7hzr8A
bJLBm73gQAVrksBs6JTBP8NOQAfoQ8CnuonBwzk0QdCsZb8qQp7B8tIGQcMApz4PR7bBWuTCQLpX
vjz3drPBx3m5QPcWyr8NaK3Bjlo3QU6Xrr6vkrbBuQQrQWTZoz/kDrbB3v89QSKMTD8p+qvByAGl
QAqvBUArvZvBQDXaQChD1T/+/5/BTneyQCYfCECxtKnBnHRPQN2yCj9b45/BaMprQJ4sFj9Rz63B
iP5hQMtffb+PB6fBKbOkQOVsacDa0HnBtRvZQOCxd8DfiILBLg6iQFu6rL8zjoXBX+CYQEp9Pb+D
xJPB+2//QLFf07+e3onBAr2BQBTSi8DWJqLBUjxRQAaXcsAwBZrBLUStQJIElcA9RqDB6fsSQd82
mL88Q5rBAN51QOwmYMARAZDBbbO/QJ++i8DiPpbB7bIjQRO2Qb+h4qDBB9cJQdTt5L1OnK7BOjv7
QFH0g7/cuZ3BnovyQBNfH78jRqjBMmemQCvbcsAzDo7BP/UeQbQ+Bb5TtarBLqjXQIfgir/4E5bB
bHvQQCINqb+tZ3HBFKTEQMzoEr+F/6vBfcWqQFD1AT7VH6PBUqEwQexG8j6NS7HBmyW5QB3/zT/8
I6LB/vh1QIjkvj1XEKbBUD26QB1gV8BDh4PBDr3AQDqu6r9Jl4PBcbSxQHqqGb8fuJjBFs3gQNza
wr/JzovBBKT0QPFSRL8wxm/BWcy3QIdutb/7kWHBCkZnQM/8ksBl1anBUJwOQOtYZMAiepvB633A
QAEso8CEhabBOGYWQUi+0b8bmJLBwVBPQI+VQ8AEyYnBJRbhQGWdksCA0ZTBISE0QZoNZ784ep7B
tm8GQSMylj7Ob7bBkEfCQHM9n7uTgbPBdXS4QNf6y785RK3B8Tg3QT5NlL4CtrbBDj8qQWbGpz//
BbbBf1k9QZQXVz/r96vBapWmQCysBkBQzJvBlmbbQPb+0j9fI6DBm6SzQP7/B0CAyqnBFKNQQKiP
Fz+iwp/BcRxsQPRrHT9etq3Bb9BgQKCdc7/r0qbBn+CkQPAracByy3nBe1bZQLpPd8C1f4LBvyqi
QAtXrL9LjYXBZReZQMAqOL9PspPBrJz/QMg50b+914nB/J+DQKCjjcDsLqLBRaFUQHdUd8DmAprB
nnKvQPGilcBfZaDBPdMSQUSMkr8lZJrBy255QPjIY8CVCZDBFPvBQIa/i8DkaZbBXj4jQX9EMr8p
IaHBaOUIQeK1AL5m1q7BsLD6QIUMg7/6xp3BlkjxQMMYJr8eXajBxnioQPkvdMD7K47BixAeQXjG
xL2ZAKvBRoTXQEtyiL+WBJbBupPQQCWtqr+DW3HBAhzDQH9JHr9a56vBHOupQGR38D1KFaPBu1Iv
QShxCT+Jr7HBopW4QM3hzD/IeKLBPdtzQJwlrD2kz6XBUjO8QDckWMArpoPBMEzBQMmu67/ImYPB
fH2xQBMdFL8lkZjB6h/hQPD4vr9BwYvBRrW1QHOGob+WZ2LBGrn2QBqhcr+H4G7BOuNqQDJNlcB1
06nBJJQRQOPHasCNZ5vB69PCQJxXo8D7rKbBOIwWQXEAyr/kspLBno5SQOIfSMA3yYnBG5rjQKek
kcC3D5XBEcUzQYJOT78zxp7BYzcFQYBAgT78t7bBqijAQF3Ro73birPB6OS2QNhR0r8K2qzBHUg2
QS5KX77IDrfBlG0oQdJNrT+0drbBXOI7QY0pcD9pbKzBvn6mQLmlB0CTKpzB8vbaQO0E0j9vnKDB
7q6yQODbBUAcNarB3phPQFWhGz8dip/BzihpQAazFD87jK3BYiteQErudb+wTKbBSUqnQLOea8AD
AXrBwcbbQJJTdsDXtILBeFCiQFNksL/jhoXB2EGZQGKnLL8aZpPBggIAQaSOyL81wonB

> <OMEGA_E>
cHIHPuA1Cj4AYg0+kMusPuDJsD6YP7s+

> <OMEGA_NBR>
     14673

$$$$
50225010
  -OEChem-04172616093D

 52 55  0     1  0  0  0  0  0999 V2000
    3.5807   -4.4430  -19.9329 C   0  0  0  0  0  0  0  0  0  0  0  0
    4.9480   -4.7769  -19.8462 C   0  0  0  0  0  0  0  0  0  0  0  0
    2.9246   -3.8449  -18.8391 C   0  0  0  0  0  0  0  0  0  0  0  0
    9.2669   -1.2767  -19.3434 C   0  0  0  0  0  0  0  0  0  0  0  0
    5.6605   -4.5208  -18.6618 C   0  0  0  0  0  0  0  0  0  0  0  0
    3.6324   -3.5962  -17.6525 C   0  0  0  0  0  0  0  0  0  0  0  0
   10.3299   -1.0411  -20.2291 C   0  0  0  0  0  0  0  0  0  0  0  0
    7.2889   -0.2129  -12.9838 C   0  0  0  0  0  0  0  0  0  0  0  0
    8.9317    0.5013  -21.5084 C   0  0  0  0  0  0  0  0  0  0  0  0
    8.1444   -0.2339  -14.0987 C   0  0  0  0  0  0  0  0  0  0  0  0
    6.0120   -0.7889  -13.1016 C   0  0  0  0  0  0  0  0  0  0  0  0
    8.0217   -0.6403  -19.5540 C   0  0  0  0  0  0  0  0  0  0  0  0
    7.8554    0.2478  -20.6398 C   0  0  0  0  0  0  0  0  0  0  0  0
    4.9972   -3.9442  -17.5602 C   0  0  0  0  0  0  0  0  0  0  0  0
   10.1606   -0.1571  -21.3113 C   0  0  0  0  0  0  0  0  0  0  0  0
    6.4955   -1.3598  -15.3044 C   0  0  0  0  0  0  0  0  0  0  0  0
    6.8671   -0.9374  -18.6918 C   0  0  0  0  0  0  0  0  0  0  0  0
    6.5204    0.9427  -20.8427 C   0  0  0  0  0  0  0  0  0  0  0  0
    5.3662    0.0314  -20.3451 C   0  0  0  0  0  0  0  0  0  0  0  0
    4.0580    0.8410  -20.2793 C   0  0  0  0  0  0  0  0  0  0  0  0
    5.1641   -1.1801  -21.2912 C   0  0  0  0  0  0  0  0  0  0  0  0
    5.7796   -3.4922  -16.3652 C   0  0  0  0  0  0  0  0  0  0  0  0
    6.0260   -1.9915  -16.5650 C   0  0  2  0  0  0  0  0  0  0  0  0
    7.7377   -0.8124  -15.2413 N   0  0  0  0  0  0  0  0  0  0  0  0
    5.6311   -1.3428  -14.2646 N   0  0  0  0  0  0  0  0  0  0  0  0
    5.6768   -0.4583  -18.9807 N   0  3  0  0  0  0  0  0  0  0  0  0
    7.0355   -1.7974  -17.6228 N   0  0  0  0  0  0  0  0  0  0  0  0
   11.4746    0.1110  -22.4200 Cl  0  0  0  0  0  0  0  0  0  0  0  0
    3.0342   -4.6468  -20.8418 H   0  0  0  0  0  0  0  0  0  0  0  0
    5.4479   -5.2294  -20.6899 H   0  0  0  0  0  0  0  0  0  0  0  0
    1.8806   -3.5785  -18.9133 H   0  0  0  0  0  0  0  0  0  0  0  0
    9.3995   -1.9423  -18.5033 H   0  0  0  0  0  0  0  0  0  0  0  0
    6.7106   -4.7647  -18.5964 H   0  0  0  0  0  0  0  0  0  0  0  0
    3.1331   -3.1389  -16.8111 H   0  0  0  0  0  0  0  0  0  0  0  0
   11.2773   -1.5378  -20.0803 H   0  0  0  0  0  0  0  0  0  0  0  0
    7.6063    0.2371  -12.0547 H   0  0  0  0  0  0  0  0  0  0  0  0
    8.8160    1.1991  -22.3246 H   0  0  0  0  0  0  0  0  0  0  0  0
    9.1255    0.2134  -14.0372 H   0  0  0  0  0  0  0  0  0  0  0  0
    5.3379   -0.7862  -12.2578 H   0  0  0  0  0  0  0  0  0  0  0  0
    6.5106    1.8853  -20.2758 H   0  0  0  0  0  0  0  0  0  0  0  0
    6.3801    1.1567  -21.9125 H   0  0  0  0  0  0  0  0  0  0  0  0
    3.2424    0.1927  -19.9265 H   0  0  0  0  0  0  0  0  0  0  0  0
    4.1831    1.6840  -19.5839 H   0  0  0  0  0  0  0  0  0  0  0  0
    3.8139    1.2250  -21.2808 H   0  0  0  0  0  0  0  0  0  0  0  0
    4.3421   -1.8067  -20.9149 H   0  0  0  0  0  0  0  0  0  0  0  0
    4.9176   -0.8195  -22.3008 H   0  0  0  0  0  0  0  0  0  0  0  0
    6.0895   -1.7735  -21.3296 H   0  0  0  0  0  0  0  0  0  0  0  0
    5.2045   -3.6658  -15.4437 H   0  0  0  0  0  0  0  0  0  0  0  0
    6.7361   -4.0324  -16.3078 H   0  0  0  0  0  0  0  0  0  0  0  0
    5.0812   -1.5206  -16.8739 H   0  0  0  0  0  0  0  0  0  0  0  0
    4.9727   -0.4240  -18.2714 H   0  0  0  0  0  0  0  0  0  0  0  0
    7.8883   -2.3162  -17.5633 H   0  0  0  0  0  0  0  0  0  0  0  0
  1  2  1  0  0  0  0
  1  3  2  0  0  0  0
  2  5  2  0  0  0  0
  3  6  1  0  0  0  0
  4  7  2  0  0  0  0
  4 12  1  0  0  0  0
  5 14  1  0  0  0  0
  6 14  2  0  0  0  0
  7 15  1  0  0  0  0
  8 10  1  0  0  0  0
  8 11  2  0  0  0  0
  9 13  1  0  0  0  0
  9 15  2  0  0  0  0
 10 24  2  0  0  0  0
 11 25  1  0  0  0  0
 12 13  2  0  0  0  0
 12 17  1  0  0  0  0
 13 18  1  0  0  0  0
 14 22  1  0  0  0  0
 15 28  1  0  0  0  0
 16 23  1  0  0  0  0
 16 24  1  0  0  0  0
 16 25  2  0  0  0  0
 17 26  2  0  0  0  0
 17 27  1  0  0  0  0
 18 19  1  0  0  0  0
 19 20  1  0  0  0  0
 19 21  1  0  0  0  0
 19 26  1  0  0  0  0
 22 23  1  0  0  0  0
 23 27  1  0  0  0  0
  1 29  1  0  0  0  0
  2 30  1  0  0  0  0
  3 31  1  0  0  0  0
  4 32  1  0  0  0  0
  5 33  1  0  0  0  0
  6 34  1  0  0  0  0
  7 35  1  0  0  0  0
  8 36  1  0  0  0  0
  9 37  1  0  0  0  0
 10 38  1  0  0  0  0
 11 39  1  0  0  0  0
 18 40  1  0  0  0  0
 18 41  1  0  0  0  0
 20 42  1  0  0  0  0
 20 43  1  0  0  0  0
 20 44  1  0  0  0  0
 21 45  1  0  0  0  0
 21 46  1  0  0  0  0
 21 47  1  0  0  0  0
 22 48  1  0  0  0  0
 22 49  1  0  0  0  0
 23 50  1  0  0  0  0
 26 51  1  0  0  0  0
 27 52  1  0  0  0  0
M  CHG  1  26   1
M  END
> <OMEGA_C>
+iplQF0tjsCDdp/BPVaeQIDcmMAJxZ7B0iw7QGoSdsCUtpbBSkUUQY5ro79bv5rBHCO1QKmqkMBh
S5XBWHloQIInZsBnOI3BbEclQWxChb8m1aHBrD7pQHT2Wb6pvU/BEugOQSpTAD86EazBok8CQQyE
b740lGHBemLAQHf3Sb8roFHB1VgAQd/pI7+hbpzBoF/7QMS3fT5RHqXBLumfQGJtfMAye4zB6JEi
QVzYIL6LfarBZNvPQNIOrr/N3nTBbr/bQJH5b7+1iJXBhafQQK1ScT/WvabBPbirQODDAD2uwqLB
/9qBQIxKVz8TPKLBo0ClQAwMl792VKrBUvK4QIx/X8Dw64LBTNXAQOrq/r8WhYTBlJv3QB37T79G
3HPB5DG0QPjfq7/SO2TBNqi1QBKo6r5z2JfB7SLhQCYQ5r99+4zBIpg3QVA/4z07XLPBkC9CQKay
lMD0u6bB3FSuQHlXp8DmhKXBYbfwP5AGZcBcTpfBhWQWQQSe+L/QBpTBWL3WQEZ4mMB7xZTBS4RI
QHLkSMAjfYbB9W80QRnWxL9zpKDBmmbzQNHQcj4k4EDBTw4NQaB6mT+5mLLBIgISQWGOWj6PmGDB
MtCqQGBGSb8GIETB6VbQQM1Q8T/NNKLB+SnMQIwPlD/NTK/B0oJPQGJTRT55aZ/BQ9yFQKKM1z+8
q5zBXRZ0QInMnD8WP6rB0PKKQOpC57/RUafBJF2dQHDMUb8TaLLBT93CQOMC478Uo6rBa4umQG6c
asBuGXfB5I3XQDIJgcBbdoLB/piiQAajwr/Q/YbBKCCfQCYW2b7hK5LB+2z8QBA9FMC5gYzBS+Jk
QOWrjsA/a5/BnEueQE0BmcBtyp7BOwk7QJhwd8AoopbBR1YUQQKNor/T9JrBSE+1QHh9kMBbXJXB
RbloQMQJZ8AMLo3BESIlQcNChb/jL6LBlhPqQCWOzL4Blk7B7ZkOQfRJAz8MOqzBHw/AQJRqX7/y
R1HBS88CQV+hxr79XGDBp2sAQRaiIL8Kf5zB/yn7QN49hz4gJqXB6S6gQF5JfMD6g4zB/jUiQRZ8
Ib4i1qrBGz7PQCDSqr/49XTBCBTcQPK5bb/FjJXBJUHQQBCRcz8fsabBDq+rQJC3yDz2uqLBY3iB
QIpSUD+IIqLBa6mlQPlbmL/kS6rB2lO5QJq7XsA7/ILBHNrAQNT+/L/blYTBjCSzQNKjqL83gmTB
Ms/3QBIxW7/jTHPBpuK1QEHq6r6Y15fBVIfhQOzG47+89YzBd9s2QeT+uT2i9bPBrqdBQEJQlcAm
qqbBbTauQON2p8DvjaXBQQzwPwsMZ8DGKpfBKZ8WQSWZ97/MPZTB9//WQBf4l8DO5ZTB+89IQMAr
SsAca4bBp0k0QXduxb+NHaHBxvn0QJsNVL0cKT/BxqMMQY+omz/atbLBMi6qQGnxYL+o50PB9OIS
QYsWhbuzz17BY8HPQAjR8T/8F6LB1pHLQKgplj85O6/Bum1PQFsBGz4KU5/BuiSFQDfB0z+OiJzB
wMJyQDWdmT9GH6rBhZiLQEDE6b8nSKfBHaKdQONSVb/cX7LBQn7DQGDw4r8emqrBGh6nQJcXasDI
LXfBExTYQHdpgMC/j4LBEp2iQD/twb+qKofBy2yfQJj+2r44JpLBBv78QJBpEsBsYozBjrRjQBw8
jsAXiJ/BaDY6QBlWdcCWzZbBVKKdQJzcmMAU4p7BPjkUQYDVpb8h0JrBGPxnQC2pZMDCXY3BWbK0
QJY1kMAVeJXBt0MlQVraiL8A5qHBJHvpQDTSgL4WPE/BfgoPQRSg8z6GMKzBzzHBQOL7Xb9E/FDB
DQICQdAIU77EX2HBdF4AQTi0Jr9SgpzBToj7QFw8aj4LQaXBnamfQGnvesB/qYzBDq0iQSzTPL6D
j6rBXczPQPATrr8UpXTBVdPbQBQVbr9ri5XBqt7QQAUUbT847qbB5dKrQFBp3Tz20qLBtRKCQLTM
Vz8/XaLBpxelQLwkmb/+QarBK7e4QFmoXsAiEYPBDLvAQNrd/L/5fYTBydW0QNVVs7/euGPB58v2
QB62Qr+Q0HPBbNG1QM7Z474x3JfBxS/hQBiY479W6ozBp+Q3QTg6vj3KTLPB4k5AQB4glcD9v6bB
gczuP703ZMCaXpfBh3OtQJOlp8APnqXB2EQWQcXt+r/FFJTBiV9IQB7ORsBlpobB91bWQHnhl8Ao
/ZTBP1s0QdFqyb9vtKDBCdbzQBwNNj6SP0DBoEANQRjFlT9Lv7LBmDCsQJMvab/2R0PBPngRQUvM
iz69f2DBgrnQQM848D/cgKLBxlPMQBgOkD+Pgq/BAtRPQDcLUD4KdJ/B+z6GQJL52D/x5ZzB5nd0
QA1hmz/oaarBpbmKQOkw6L+jKafBhyydQGo3Wb8tXrLBUpzCQJ+75b/jhKrBXEymQBhsasAkbXfB
RU7XQHCqgMDYp4LBV5eiQHaav79L8YbBJWmfQMfAyb7SKZLB/qP8QGxdEsCkWYzBcsJvQBQjjMAc
KKDB1clCQCWBdcCtaJfBWdSjQFmqlcDEPJ/BArYUQeEbhb+1FJrBO5NtQMZkZsDjto3Bb1q5QDP2
jcC1i5XBOEglQbK3Gr+S1KDBTmnoQAYppr5Guk3Bm/MKQdbaMj5W4q3BL32/QFLeYr9GRlDBMOYB
Qeitib7Pi1/BVHv+QDecVr+7N53B6Pb0QFbUqr4pbqfBw6qiQNE2esDxvozBnVQgQblKdj2pdqrB
eFnPQHOQqr+T73PByAHbQNewgb84rpXB9IzGQN/Pj74U4arBZ4CsQM3Uoz5eiqHBYki4QOoU6D9v
IaDBral4QDB0TT5Z66PBxyy6QM+0XcC65YLBsVPBQDUj+r//LoTBFHGzQGMsr78MaWPBQNz2QJDd
Rb+EaHLB0c+1QNgf3L7QepfBYQLiQFsn37/bfozBGbo0QUIXPD95PLLB7cZOQOgwksDimKfBGSn/
P1+DZsBqKJjBVfa0QMLgosCN+aXB/1kYQUsJw7/okpLBc1FLQOGZS8C+/4bB7xbbQKzqlMAI2JTB
WcQ1QUU2R7/3pJ7BE5vyQB8saD1qYj7B50AHQSxvJj8Oa7XBsMCpQD8Pbr+/20LBTZERQSaTNT6V
Fl7B5EPDQGNjtD4pB7LB8v66QJbFpb+Rr6zBFrOlQAdJD0BWepnB4qfaQESA8z+uX57B29+wQHgC
F0BQiqfBUOlTQIZBIT/NPp3BlJ1pQDoDPz9uU6vBtZdnQMIPXL/V46TBPuymQBG5asCebHfBQAzZ
QAclf8AxRILBOg6jQBIav79dvobBLACfQL5D/L5H5JHBCOP+QJTECcDhaovBfpFtQK7OicAGWKDB
QaCiQOwNlMC1mp/BXBtCQDEPccAFd5fBYdkUQXHIhr9eVJrBFcy4QFgvjcDS9pXB/TBuQJGeY8Ca
0Y3BUjclQfXXG7/FKqHBWZXgQEyv2zztPU/BXIQKQcjTIT5UEq7BYND9QPrHET2TVmDBKCq7QBhL
Pr/GJ1HBlo7+QHpbXb+CWZ3BQ370QCBNt778iKfB8t6iQF/5eMBkB43BufkfQcKIVD0dx6rBhH3Q
QAYFsr/+UnPB7nnbQLiUhr+3spXBIPnFQDwNnr4e4qrBCSusQAe2iz7fcKHBWAO4QJW54T/m0Z/B
a+d3QHT7JD7GyqPBVRu7QIuIX8CcJIPBN+3CQNjU/b87C4TBRlr1QOtDLL8sJHLBf7mzQOs0uL+5
KWPBfri1QLbXAL9chJfB2orjQMnS3r/fVIzBURk0QT22Oz+jr7LBGplLQKk5j8DXvqfBQS+zQBQu
ocD+cKbB3iL+PzXyYMDxEpjB2LgYQblPxL+71pLB5XbaQN6plMD9Z5XBoBpNQMbxSMBPAYfB68Q1
QaPnRb+HEJ/BN8LmQGKsGT+v7UDBYZkGQYwlIj8MlLXBS38NQQAYHD8AL1/BX2ikQIOeRr8tKUTB
qFTCQNtJqz6q9rHBHou6QD0+qb9Rw6zB642lQAshC0CoFZnBC2vaQAKL7D9rFp7BnHywQILwFEB6
I6fBiWRTQI+jEz/jCp3BBrNoQEcYOT9aHavBZLFmQP98Zb//5qTBGSCoQPDcbcBU53fBJMPZQID+
gMCDv4LBGcmkQEgEwb9RiYbBHaeeQJazHL+QCpLBcYoAQagDBsAvHYvBW2lyQPJWjMBiHqDBdS6l
QHeUlcBfGp/B35REQL1QdsCBapfBbHkUQfLHg79fCZrB8FK6QFSxjcCHXpXBwJtuQEbTZsC5rY3B
JjUlQXiNEb+mkqDBMBbpQPCXwr6sVU3BmjcLQSFhaz6Ctq3BLQm/QLnGV786W1DB9KkCQSt9x76E
1l7BdB3+QKNfVr+AU53BTSf1QLTOmL5EeafBdTujQLbdecCfn4zBmn8gQb4i5T17KarBCznPQIqU
p78P63PBbzjaQM2vhr9R85XBeALHQKf2dL6DJavB2tGrQCajkj5RuqHBcfG2QO+C4j+bfp/BheZ3
QIXRLz7McqTBmFq6QHxXXMB7xYLBlyXBQMJv97+CJ4TB96WyQEz9pL/uqmPBggf4QMy5W7+j3XHB
N0W0QH5KCb8fBZjBIcvhQFEI3L9Ke4zBthM1Qb2dTD9vvrHB8AxSQHl1ksAxmafBlKC2QL62osC8
zKXB6EoBQCvsZ8BqO5jBAfIXQd5fw79hkJLB4hPcQBFvlMDWl5TBE7BLQAJXTMBm/4bBqaM1Qck2
PL9KQZ7B8XvzQLN5xry23j3Bh7YHQaRTOT+AMbXBO7WoQBkAV7+5KkPBMs4SQf+DsLzuAF3BnRfE
QOKZ4T6qBrLBrA+8QNg4n79gda3BbnmjQGzPCEDBx5jBfhLZQJ9Z7T8gc53BXTGwQL23F0Baq6bB
EJ9RQNFADD8ytJ3BYO5pQMBjRD99o6vBTa5nQDPRYb+C86XBxvamQH8qacA7NXfBVVfZQIU9fcCl
DYLBLsKiQDw8vb/Ns4bBiU+cQO0PNL9o45LBujP/QPUIBcDIMIvBZGL1QIBwpT3pl1LBQ5HdQGxZ
ir+w7k3Be7jwQEymOj8cfGbB0pgUQbzekb+TFZrBlg3BQKA4zL+NLV3BLo3TQGBxbT6Yj3XBHngl
QWDmd797ZKHBqU1nQCXMlMDn3Z3BWVcOQcA6wT5D3KzB/uifQDPWm8C51JzBpqw/QAhLb8Ax6ZbB
v0sAQTjRE7+nQZzBSp76QEB2RT41pqXBypy7QHBubL9Bw3DBX0YiQeCDZL4p0KrBmEeiQAZ5U8Av
Bo/BWTTbQBAoZb+CbZXBSHjPQBgkUz9u36fBzlarQECErL2xgqPBSLSAQDB6MD8Tz6PBbsmmQGSa
rr/3aarBv0mgQMRIxb9ut4DB0ra8QEpTIMCDPofBY4i2QNt0hsBOX5XB48duQFZYRcA4nI/BxOO0
QCBu8L5XO5jBpVTgQEhv5b9Q5ozBlwk3QUCRUL2lALTB9KsFQSjr8z7O2EbBMUbhQONWyb+dqT7B
BccBQcyQzT+1GWrBUSMXQfep2b+bz5LBImavQH4SIMDI51nB73bPQJ0wOz+EX4LB5eg0QaNhtL8X
x5/BLJ1CQHZ4pcAP46PBKB0MQTuPej9D87PB8MuvQHhtssBsBqLBiCb3P28yZMD3bJfBwNHNQBA+
5z8S7aPBsmzLQMHecz/vjbDBNsFNQOuESj1AuKDBK1iDQBe9yz/K0Z7BOepyQHPDej8BGqzBMvyM
QAsT/7/8KqfBJBefQBCbir92s7LBCRDFQGpk9r9HRqrBh+uFQMU9BsCZ5nnBnheTQD0pQ79m+4XB
QzXLQMGBTcAFjYHB5dedQGnYzr7ftJLBlSv+QHNS/L+SY4rB

> <OMEGA_E>
kKLUPvjT1D58SdE+NFkMP0CuDD8SWg0/NsA8Pw==

> <OMEGA_NBR>
     21085

$$$$
50225005
  -OEChem-04172616093D

 48 51  0     1  0  0  0  0  0999 V2000
    3.5878   -4.4356  -20.2458 C   0  0  0  0  0  0  0  0  0  0  0  0
   10.3037   -1.0647  -20.3430 C   0  0  0  0  0  0  0  0  0  0  0  0
   10.1479   -0.1538  -21.4063 C   0  0  0  0  0  0  0  0  0  0  0  0
    2.9094   -3.8338  -19.1675 C   0  0  0  0  0  0  0  0  0  0  0  0
    4.9538   -4.7658  -20.1293 C   0  0  0  0  0  0  0  0  0  0  0  0
    9.2317   -1.3178  -19.4687 C   0  0  0  0  0  0  0  0  0  0  0  0
    8.9168    0.5010  -21.6038 C   0  0  0  0  0  0  0  0  0  0  0  0
    3.5926   -3.5796  -17.9666 C   0  0  0  0  0  0  0  0  0  0  0  0
    5.6420   -4.5039  -18.9302 C   0  0  0  0  0  0  0  0  0  0  0  0
    7.9892   -0.6735  -19.6722 C   0  0  0  0  0  0  0  0  0  0  0  0
    7.8317    0.2268  -20.7499 C   0  0  0  0  0  0  0  0  0  0  0  0
    4.9553   -3.9262  -17.8425 C   0  0  0  0  0  0  0  0  0  0  0  0
    6.3986   -1.4866  -15.3632 C   0  0  0  0  0  0  0  0  0  0  0  0
    6.8288   -0.9676  -18.8094 C   0  0  0  0  0  0  0  0  0  0  0  0
    6.4959    0.9161  -20.9554 C   0  0  0  0  0  0  0  0  0  0  0  0
    5.3440   -0.0224  -20.5048 C   0  0  0  0  0  0  0  0  0  0  0  0
    4.0249    0.7706  -20.4558 C   0  0  0  0  0  0  0  0  0  0  0  0
    5.1806   -1.2109  -21.4862 C   0  0  0  0  0  0  0  0  0  0  0  0
    5.6990   -3.5295  -16.5978 C   0  0  0  0  0  0  0  0  0  0  0  0
    5.9575   -2.0189  -16.6805 C   0  0  2  0  0  0  0  0  0  0  0  0
    7.6410   -0.9080  -15.1020 N   0  5  0  0  0  0  0  0  0  0  0  0
    5.6378   -1.4841  -14.3082 N   0  0  0  0  0  0  0  0  0  0  0  0
    7.4853   -0.5743  -13.7736 N   0  0  0  0  0  0  0  0  0  0  0  0
    6.3384   -0.9103  -13.3175 N   0  0  0  0  0  0  0  0  0  0  0  0
    5.6282   -0.5419  -19.1417 N   0  3  0  0  0  0  0  0  0  0  0  0
    7.0124   -1.7441  -17.6761 N   0  0  0  0  0  0  0  0  0  0  0  0
    3.0599   -4.6446  -21.1645 H   0  0  0  0  0  0  0  0  0  0  0  0
   11.2476   -1.5694  -20.1991 H   0  0  0  0  0  0  0  0  0  0  0  0
   10.9752    0.0430  -22.0721 H   0  0  0  0  0  0  0  0  0  0  0  0
    1.8669   -3.5687  -19.2639 H   0  0  0  0  0  0  0  0  0  0  0  0
    5.4720   -5.2201  -20.9609 H   0  0  0  0  0  0  0  0  0  0  0  0
    9.3570   -2.0029  -18.6433 H   0  0  0  0  0  0  0  0  0  0  0  0
    8.8054    1.2122  -22.4089 H   0  0  0  0  0  0  0  0  0  0  0  0
    3.0751   -3.1189  -17.1381 H   0  0  0  0  0  0  0  0  0  0  0  0
    6.6913   -4.7443  -18.8434 H   0  0  0  0  0  0  0  0  0  0  0  0
    6.4670    1.8410  -20.3606 H   0  0  0  0  0  0  0  0  0  0  0  0
    6.3716    1.1612  -22.0205 H   0  0  0  0  0  0  0  0  0  0  0  0
    3.2086    0.1059  -20.1365 H   0  0  0  0  0  0  0  0  0  0  0  0
    4.1226    1.6007  -19.7407 H   0  0  0  0  0  0  0  0  0  0  0  0
    3.8012    1.1720  -21.4552 H   0  0  0  0  0  0  0  0  0  0  0  0
    4.3600   -1.8590  -21.1447 H   0  0  0  0  0  0  0  0  0  0  0  0
    4.9508   -0.8274  -22.4913 H   0  0  0  0  0  0  0  0  0  0  0  0
    6.1153   -1.7900  -21.5196 H   0  0  0  0  0  0  0  0  0  0  0  0
    5.0936   -3.7595  -15.7086 H   0  0  0  0  0  0  0  0  0  0  0  0
    6.6542   -4.0721  -16.5414 H   0  0  0  0  0  0  0  0  0  0  0  0
    5.0267   -1.5171  -16.9834 H   0  0  0  0  0  0  0  0  0  0  0  0
    4.8934   -0.5685  -18.4640 H   0  0  0  0  0  0  0  0  0  0  0  0
    7.9164   -2.1434  -17.5231 H   0  0  0  0  0  0  0  0  0  0  0  0
  1  4  1  0  0  0  0
  1  5  2  0  0  0  0
  2  3  1  0  0  0  0
  2  6  2  0  0  0  0
  3  7  2  0  0  0  0
  4  8  2  0  0  0  0
  5  9  1  0  0  0  0
  6 10  1  0  0  0  0
  7 11  1  0  0  0  0
  8 12  1  0  0  0  0
  9 12  2  0  0  0  0
 10 11  2  0  0  0  0
 10 14  1  0  0  0  0
 11 15  1  0  0  0  0
 12 19  1  0  0  0  0
 13 20  1  0  0  0  0
 13 21  1  0  0  0  0
 13 22  2  0  0  0  0
 14 25  2  0  0  0  0
 14 26  1  0  0  0  0
 15 16  1  0  0  0  0
 16 17  1  0  0  0  0
 16 18  1  0  0  0  0
 16 25  1  0  0  0  0
 19 20  1  0  0  0  0
 20 26  1  0  0  0  0
 21 23  1  0  0  0  0
 22 24  1  0  0  0  0
 23 24  2  0  0  0  0
  1 27  1  0  0  0  0
  2 28  1  0  0  0  0
  3 29  1  0  0  0  0
  4 30  1  0  0  0  0
  5 31  1  0  0  0  0
  6 32  1  0  0  0  0
  7 33  1  0  0  0  0
  8 34  1  0  0  0  0
  9 35  1  0  0  0  0
 15 36  1  0  0  0  0
 15 37  1  0  0  0  0
 17 38  1  0  0  0  0
 17 39  1  0  0  0  0
 17 40  1  0  0  0  0
 18 41  1  0  0  0  0
 18 42  1  0  0  0  0
 18 43  1  0  0  0  0
 19 44  1  0  0  0  0
 19 45  1  0  0  0  0
 20 46  1  0  0  0  0
 25 47  1  0  0  0  0
 26 48  1  0  0  0  0
M  CHG  2  21  -1  25   1
M  END
> <OMEGA_C>
tp1lQBDwjcBa96HB1NskQW1JiL90vqLBvl0iQbaBHb4YQKvBRzM6QExddcAfV5nBgYWeQMGBmMDR
CKHBDbUTQZStqL/iv5vBPasOQSdCAD+d1KzB8u1lQJoYZcCdu4/BS4u0QD4gkMAmcZfBv6f/QDls
LL+qYJ3B6Zz6QKRAaD65/6XBo5GeQFBGe8BqvY7BXcHMQHpHvr+xz3XBm4XaQJG0d7+eeZbBDN7P
QPuHaj+kpKfBWwKrQDyft7zECaTBJ8yAQK9DRT9ipaPBccelQP//mr/Q46vBBF62QAnkYcBjyITB
86O+QCE2AcCocYXBzoL0QEFzaL/qoXHB4mi0QK71vb877mTBmofvQGADE7/GYFzBLtTKQOEGab+Q
FFXBWhq0QNO3Cr81IpnBS2XgQNI+37+UaI3BV9VDQE6glMDuUKnBNfYzQe/hyL/Ll6HBSZovQR4K
MD2ik7DBC/buP+1kZMCLHJrB4hqvQLAKp8Djr6fBSbYVQd0vAMBxJZXB5+IMQe4pmz9wRbPBGs9E
QKGcR8DsGonBXR/WQEzRl8BKv5bBr/HOQEGm6z+C4qLB4OPLQNyglD8LKrDByllNQC742D2bF6HB
jeyDQP7izD/c7J3B10ZzQNEClj8vpKvB4ISLQMLy7b9pKKnB+WyeQC7RU78i7rPBWLDDQDYd5b8d
KKzBLv+iQNuacMCCVnvBMu/UQKhOgsDjVITBm9qgQOEwwr/73YfBvJacQAWLEb8xtpPBxlL9QPAs
CcBYL4zBnslmQKUgjsCUtKHB1twkQWuHiL+GD6PB9kwiQRJ4Fr5egKvB2XE7QPSDdsCDBZnBICOf
QOSkmMAl06DB4MUTQXSvqb9LC5zBEpYOQW1TAj8JAa3BdmNnQEaQZsBibI/BJ0i1QOlikMA+PpfB
F83/QIE4Lb/Kkp3BnJD6QC9baz68JabBrWOfQNYofMCugI7BgoDNQAWvu78MC3bBHPDaQN2Ud7/b
lJbBMM3PQCxtbD8Cs6fBN+uqQOA5pLv+7aPBF+qAQBAVTD9NXaPBD+CkQAwzmb8stqvBKmm3QDKH
YcB1o4TBm3i/QJrhAMDogoXB6PayQCCDuL9qNGTBcPnyQNR4dL8H5XHBljDOQP4AY79xTFXB7dby
QC7JGb/tLl3BzI60QBrhBb+vEJnBBfvgQONh4L8MlI3BfuZEQL2PlMDeD6nBCvgzQb5gyb9T+qHB
ZX8vQZhjZD2M1rDBJzTxPyfkZcADvpnBw6WvQMIKp8DhgafBXNEVQf02AcC1f5XBDL8MQSvTnD/n
Z7PBokpGQBTEScAxv4jBCuLWQN4HmMDdlZbBvEHPQD8r7T9H/qLBe3PLQCqolD/TOLDBmaVNQAHh
DT67saDBQp2EQGdK0D8rqp3B75lyQOB/mT/bVKvBVJ2KQHQH67/o2ajBnx+dQMj7UL/WvLPBOpvC
QPNa5L9dEqzBi0SkQGaAb8Aj7XrBrgzWQIz+gcAALYTBSo+hQHa5wr/u9YfBV3WdQCrfCL+Wh5PB
hcD9QFHICsD1eYzBHVlnQOLBjcCLyaHBAAglQe+ihL/Ii6LBg5ciQazJ/r3eDKvBglCfQKxdmMAL
s6DBx8o6QN2MdcDGNpnBGsITQeydpr+uqJvBR9QOQSLhBD9Su6zBjry0QO4dkMD7BJfBhmFlQH1b
ZcCdho/BT6f/QGDJKr88YZ3BN7f6QE7mbz5G/6XBvkOeQKc/e8DZZY7BqnTNQD1Pur8PD3bBsGHa
QDD+d78jjZbByufPQCgbaz/ZtqfB/AKrQHCgmbxnGaTBdc2AQE5MRj9NtaPBT8elQLXbmr+P7KvB
abK1QCw/YMANeITBP4W+QKLt/79JdIXBZ8OzQKt2tr9C62PBlFLzQOTwdb9CTXLBtuPPQHYxYr9T
TlXBtUj0QPBBHL9hl13BNgu0QAgnCb+1MZnBQ/3fQDeP4b8wlI3B/IhGQKk0lMADOKnBci80QXEU
xL+rUKHB+eovQSGqpz0XTLDBlEuwQLXTpsCaTKfBWCDwP4bwZMCRFprBwLQVQRCX/r/WEJXBqhQN
QTdsnT95LbPBbz7WQFHpl8C0MZbBSm9DQA0qSMCF8YjBbtjOQKJq7D8yAaPBOQvMQLsAlD9oQLDB
OlxNQAMj4j22JaHBmvGDQFd6zT9K/p3BSERzQBltlj+ctKvB336LQHCb7b+kLqnBQHWeQKA5VL91
+bPBCq3DQKwR5b8LLKzBxuehQBfsbMCIu3rBNQvUQBLCgcA5zYPBD9GgQIPNvr/y2IfBcZGcQAQm
Dr+IwpPBnW/8QNPhDMCbiYzBBp9mQFJajcAU8aHBTMckQdcahr8pEKPBHhQiQb6bAr60favBGQGf
QCYjmMBHHKHBEbI7QKxAdcC1NJnBZr8TQZBkqL+wB5zB0EkOQWBQBT/29azBQVG1QMFCkMBoiJfB
u/VnQO0mZsBQm4/Bwp//QB4+LL/fhJ3BwCD6QBJscD6GEqbBf6afQHo7fMAOvY7BFdTMQPVtvr9K
4HXBmdXaQIBFeb9AiJbBaDnPQBjiaz/gjqfBn5+qQHAd4Lza9KPBsU6AQMIhQj+/V6PBET2lQGXn
mb+e7KvBLeK3QM3CYsBG2ITBgni/QIzUAcCQfoXBIDL1QGo1er/z/XDB/BizQM8ytr/MjWXBfTXv
QMxnIb8/2VvB903JQPJCY7/RTFXBcS60QNZdEL8jI5nBQjvhQAoz3r+waY3Ben9EQP13k8BYTKnB
F/IzQSsixr+tAKLBEzovQam0pj2h17DBBVqvQINzpsBI1KfB4t7xP5UxZMDp4pnBNOMVQZCvAMA9
gZXBo1QMQVMznj9JXLPBauTWQBoUmMCQ65bBdihHQKujScBw44jBcFrOQKhs6z91tqLBT+jKQGDO
lj/1C7DBVtNMQGUDrj1oyqDBIZWDQDcByj9yiJ3BDGdxQA40lj9eRKvBoyyLQCrm7b8yM6nBpIOd
QL1MTr/85rPBTTbDQCtx4795VKzB7AelQO07csDGVnvBu7DWQKdcgsAdh4TBRH6hQGSBxb8m+4fB
YrqcQAN0Hb/JtZPBzXT+QBoIB8DQHozBfyh2QHbDj8Ddm6LBHD4lQYLhI79ynqHBeMEgQQCA3rmm
aavBLQCnQOOimMALSaHB3XpGQFJlfMBtHJrBSmQUQa8gh7+j75rBhXYLQXBmBj6e767Bwyy7QLnv
j8BndJfBr41uQEhYa8BpRpDBvfz9QGQ3Xb8kQp7Bk2D1QFLUtr4Di6jBNCyjQA6LfcCm6I7BkC7M
QCQRu78beXXBerrZQOkDjL/x85bBuKTHQMZ/u75Zh6zBAUeqQIAr8z0WZqPB/s+xQHVe0D8GZaHB
tVx2QAhE2L1bhqbBq/+4QCYSYsBCu4TBYmy/QEq9AMAhU4XBV8PzQCbPY7/0r3DBdaayQHiauL+n
CWXBI53tQGW9D7/nelvBHUTIQCL5YL+hz1TBIyazQIxXKL9mcZnBLTzhQCpD2r+GMI3BF1ZXQAl0
lsDGKKrB0KA1Qd/AT78IPp/B4a0tQaJ8xz6cObDB5Cu5QPQcpsAj0afBZUQDQImYbsBaJ5vBYskX
QZNSwr+lUJPBDQkIQTDZGj9mgrbB9+TcQJRflsDJdJbByyNKQPdKUMCNwYnBRpLEQBrynD7WcrPB
V5K+QO6Hsb/X5a7BgNicQBFd/D/+4ZrBJG/TQN6K5T9wJp/Bn4WqQB9CDEB7uqjBzJBMQLlmdj79
AaDBduNnQI4w6z4G263Bo05rQBuxlr/G8qfBb+mkQGRVcsD0l3vBlyjYQAYkgcA4/oPBQTShQKnj
xb+B34fBAOeaQM/MWr9Nd5TBklv/QH8Q+r/GXIvBOhV1QDvzjsCIV6LB+HQlQRhDK798tKHByDMh
QcCCajzbVKvBVLNFQNYSesDo3JnB11ymQDdFmMCxAKHBhnYUQXvXi7/aJpvBW/cLQbjkQz5ezq7B
4uVtQJ8eacC+CJDBjJS6QFawj8DVLJfBiz7+QFAxXb8obZ7BOf71QH8/mL5biqjBvb2iQDIsfMC6
qI7BLx/NQO/ct7+EiXXB+eXZQJ4Xj78NMZfBtFvIQKyVhb50mKzBzouqQFBBFD4ETqPBjKOxQNBt
0T9KhKDB8jx3QJi/hL2Cp6bBIcC4QIArYMBujITBRPe/QLxN/r/XVYXBATeyQDg/ub9+0WPBBO/x
QOdQY7+pIXHBtHLMQF6yXb+EuVTByPDwQHYaCr+RYlzBbiGzQO+MNL+BvJnB55jhQLK12r92V43B
5C1WQHCQlcAs5KnBlsc1QdwgXr9KW5/B4kMuQTJszj4ZDrDByZ8CQBusa8Bv6prBp2q4QAAApsCK
hafBkbMXQQF/y7+0p5PBzLgIQQpBMz+LQLbBlb9JQAt/TcCYh4nByjTcQFKMlsDGJ5bBg6zFQDZd
8j4LHbPBGjq/QM/AoL/lkq/BOFqcQJYW9j+s5JnB0yLTQP405T+oHJ7Bp3qqQB5cEECikKfB6shM
QLn9ZT74BqDBEAppQFEpDj/bs63BHtFsQBzpj79AoajBSoekQEbkbsBcK3vBpaTXQJWlgMAivoPB
XuChQCBewb/p2ofBeJCaQHjoeL97E5XB5Lb/QDAY+7+UjIvBEzF2QK0jjsBMe6LBoEglQVArJ7+0
v6HBn9EgQYAu9Tt2dKvBmOimQDNvl8DvHaHBh3BGQMQ7ecD8+5nBsWoUQUy+ir+HJJvB84gLQWT6
Fj4p+a7BVfK6QKInj8C9P5fB9UBuQGH3aMDeHJDBuwr+QNTeYr8xdJ7BWXX1QO9Ptb47qqjBJ+yi
QFLge8DSto7BdSTNQH/lt7+hdHXBQdfZQE3Ojr9uIJfBf6DHQKkzqb7RmKzBfb2qQMBBEz6WVaPB
wG+zQMji0T9H/aDBT9h2QDA8Br1rc6bBtsO4QJo6YMAaj4TBjPe/QOxV/r8YS4XBaWmyQOyiur8D
rWPBRcDxQFtEX792JHHB5pHMQDMoXr9bo1TBwtbwQDOLBr9oY1zB5kCzQGBGLb+hlpnB5JPhQEqc
2r/HSo3BjpVXQPR4lMCZEKrB26k1QTQTVL+VYZ/Bc8EtQRuL0D7hNLDBMxi5QDrppMBbpafBDV4D
QJPmasBFDpvB9coXQfQQyL/llZPBxCIIQcZBIz9Te7bBxZPcQGHzlcBgNpbB1MxJQI/6TcDWl4nB
Gb7EQKaUuT6sZLPBxf29QIODq79eIa/Bvs2eQKjR/D9FYprBfTLVQJnZ4j9SvJ7BA3+sQFMGD0A6
L6jBB9dNQOfFnD7k1J/B3QVpQAhAED8qpK3B7whqQF4TjL8lHKjBKm2kQP0xb8C4P3vBFKbXQPqt
gMDJvIPBh+GhQMVTwb8Rz4fBvNGaQH3/Zr9uv5TB37L/QL8I+7+lgYvBtjl1QGTvjMBCzaLBziol
QRWLJL/pmqHBEJEgQQDq07pAYavB/LFFQMEkd8AZRJrBP1emQAmolsAqc6HBwmIUQexAi7/DAJvB
30cLQWD2yj0f/K7B1optQNEfaMDzXZDBBGi6QLf8jsCqjZfB7+/9QJtTa7+CX57BCzD1QB8Q1b61
q6jBa3miQCzze8D7+Y7Bv1bMQNsfvL9nRnXB6crZQOihj788+ZbBgjPHQGVCxr6EfKzBMGCrQOxK
Gj6kPqPB5BK2QI4e0j+FLaHBlnB3QGCJ1jxjLqbBmUu4QILzYcAov4TBBXa/QP67AMCVQIXBlbLx
QOhSQL+gIXHBdmO0QFY2yL9nUGTBqzXsQI3+8b6qsVvBtgrJQMaScL8dW1TBd3uzQNvXJ79zZZnB
6lThQATA2783I43BMpVWQNbRksDEZ6rBnZQ1QZTVSr/ALp/BeWYtQWa20z4XHrDBVMUCQCsZaMBC
VJvBzHG4QCf+o8DVAqjBk9gXQUcax7/FaJPBJcsHQevhET8ZkLbB6kBJQPliTcAj0YnBdfrbQKcX
lsAhh5bBlk3EQNS2iz4GfbPBgs+8QJiHs788qK7BjyeiQP1GAUCFlZrBCRHYQJtt3j+8Bp/BsJqv
QItvDkAqdajBBQ9QQCVk0j5okZ/BtnBqQHn8Gz++dq3BDq5nQD7yg78qnafBe/KjQFEFcsCVtHvB
my/XQFiWgcCoAITBCXShQIwVxL9WyofBrgybQMhPWb99d5TB/nX/QKHr+r9mRovBpo1mQFpNjsCl
pqLBnAUlQdvXi78YdaHBFC8jQeJoOr6PAqrBwt2eQDfRmMB/XqHBdu44QKHrdcCoN5rBqF4TQRqz
q78FxJrBnp4PQaHX8T5d96vB2K2zQL5AkMA0n5fBLjRiQENlZcDLc5DBK1X/QDjhML8dupzBtYf7
QJhDTj5HcqXBppKcQFdre8BAHo/BnPHGQBBavr+TdHXB/lXZQDDTd7/aD5bBOxDRQGumYz8VhKfB
L6yrQF8ML70XJaTBG4qBQHq2QT8cKKTBxUinQFB1nr/B9KvBNvWyQIyaYsDR9YTBw6G6QJmZAcBq
WIXBdE/BQNhrHL4j5m/BbajZQKBFCsCTRmbBKVPRQDJcJ75aV1vBu4nfQMUjqL9F4FXBEkKzQJgb
Dr8rI5nBzgveQB+12r+xvIzBIqdGQDQalcD1H6rB0AE0QVPSzL9wCaDBVtEwQUXrbjx7FK/BC0ew
QNVzp8DK36fBzNrsP4oGZcAdQpvB8twUQcnOAcDXI5TB2U8OQYAhlz+TdLLBvyzVQOHXl8DZqJbB
emk/QIrWR8AK94nB8ofPQPYQ6T8d2qLBOkTOQPWojz9wFrDBU/5NQGv4yT1bxaHB4wmEQGvjyz8t
eZ7Bt/x2QPwvkz8sPKzBjaCMQPK38L9XY6nBdPigQPySXL+vErTB4yXFQLv96L+g9KvBPN2eQAHR
csDEDHzBl7XRQMVBgsAzWoTBCCydQBDyw7+qGIjBK+aaQO00Fr+h9JPB6j77QBoeA8Dr6orBotNi
QLUplMAI5qPBCBhnQFhSIT9hhKnB/weQQORNkz/iLbHBqr+dQLwSnMATXKPBfGU3QBI2g8DI/JrB
KF6DQNT1Rj2eF6DBlnq8QDmyiz/wb6/BAq60QBHokcDdBZrBpt5kQFpDc8CMlpHB1/2vQFhk+LzS
VZ7Bh3TMQPt89z5aG6bBpGWfQE7+fsBMOpHBmFvGQH/bxL8nhHfBuiTBQEClQr8j+ZTBoBb8QK1Z
rD7daaTBqWQCQQPngb8utZ7BihT6QPf8DMCnPKbBQkcaQcOUir/LrJvBq2W5QIS7YMDguofBwzSq
QDY/B8BtLITBot23QMlOq7+nv2LB5ODtQGksk7+E0nnBY1PbQOD6Pr9JuVnBNHP6QK1nJb+g62bB
HMzpQBQAj7+Iz5TB+uCjQB0wk7+zF43B4RlAQJMem8DtKavBBewiQBKbLT/946rBVbyDQPV5zD+X
a7jBNyOuQL32qcChIKrBXIrmPwYpe8C5X5vBwN5aQIWIrb6qLZrB8EHSQERuwT+jPrXBqZ3WQOM3
mMABmZnB0E5DQJGZW8Bjo4rBOkkGQY9QtD4hMKzBG/ADQfQQlT/cbJ/BTDYAQYqtScCYEaLB7R7Y
QPEFCsDShajBPQ0HQbIlCcBida3BrpcdQTxYAsB8npfBMhYkQThigb+I9aLB6jMeQSaSfr6VSJbB
HmC1QOkIh8C+EoHBcmHbQGaVXcBM/YnBT6WKQPDLEMDBdoDBAL/2QJzFur+SBo7BUvWGQE6kOb8O
hI3B

> <OMEGA_E>
QF3RPrjy0j6ID9M+WHjTPjicCj/OTQs/EEMMP3zNDD/QfyA/YABbPw==

> <OMEGA_NBR>
     29625

$$$$
50220711
  -OEChem-04172616093D

 53 57  0     1  0  0  0  0  0999 V2000
    2.8493   -3.1034  -17.4372 C   0  0  0  0  0  0  0  0  0  0  0  0
    5.4963   -4.5268  -19.6750 C   0  0  0  0  0  0  0  0  0  0  0  0
    4.5020   -4.4375  -18.6836 C   0  0  0  0  0  0  0  0  0  0  0  0
    5.8561   -3.3890  -20.4174 C   0  0  0  0  0  0  0  0  0  0  0  0
    6.0630    6.9579  -23.6022 C   0  0  0  0  0  0  0  0  0  0  0  0
    5.1819    5.0899  -24.9143 C   0  0  0  0  0  0  0  0  0  0  0  0
    6.0082    7.7710  -24.7467 C   0  0  0  0  0  0  0  0  0  0  0  0
    5.1447    5.8994  -26.0570 C   0  0  0  0  0  0  0  0  0  0  0  0
    4.2038   -2.0730  -19.1935 C   0  0  0  0  0  0  0  0  0  0  0  0
    5.1343    0.4097  -20.5872 C   0  0  0  0  0  0  0  0  0  0  0  0
    6.6412   -0.9054  -21.8483 C   0  0  0  0  0  0  0  0  0  0  0  0
    3.8536   -3.2096  -18.4469 C   0  0  0  0  0  0  0  0  0  0  0  0
    5.2206   -2.1483  -20.1738 C   0  0  0  0  0  0  0  0  0  0  0  0
    5.6591   -0.9328  -20.8827 C   0  0  0  0  0  0  0  0  0  0  0  0
    5.6442    5.6147  -23.6786 C   0  0  0  0  0  0  0  0  0  0  0  0
    5.5512    7.2421  -25.9705 C   0  0  0  0  0  0  0  0  0  0  0  0
    5.7745    1.3888  -21.2951 C   0  0  0  0  0  0  0  0  0  0  0  0
    6.7706    3.6526  -19.1728 C   0  0  0  0  0  0  0  0  0  0  0  0
    4.3584    3.3850  -19.0645 C   0  0  0  0  0  0  0  0  0  0  0  0
    6.4716    5.0465  -21.3079 C   0  0  0  0  0  0  0  0  0  0  0  0
    5.2329    3.4044  -22.5864 C   0  0  0  0  0  0  0  0  0  0  0  0
    6.6873    3.6530  -20.7065 C   0  0  2  0  0  0  0  0  0  0  0  0
    5.4710    2.8648  -21.1952 C   0  0  2  0  0  0  0  0  0  0  0  0
    5.6580    3.5190  -16.9341 C   0  0  0  0  0  0  0  0  0  0  0  0
    2.0296   -3.0042  -16.6144 N   0  0  0  0  0  0  0  0  0  0  0  0
    5.6792    4.8022  -22.5530 N   0  0  2  0  0  0  0  0  0  0  0  0
    5.6051    3.4680  -18.4125 N   0  0  0  0  0  0  0  0  0  0  0  0
    4.2748    3.1609  -20.3549 N   0  3  0  0  0  0  0  0  0  0  0  0
    3.1723    3.5366  -18.3584 N   0  0  0  0  0  0  0  0  0  0  0  0
    7.8535    3.8658  -18.6392 O   0  0  0  0  0  0  0  0  0  0  0  0
    5.4987    8.0293  -27.0651 F   0  0  0  0  0  0  0  0  0  0  0  0
    6.9917    0.7087  -22.3514 S   0  0  0  0  0  0  0  0  0  0  0  0
    5.9839   -5.4714  -19.8658 H   0  0  0  0  0  0  0  0  0  0  0  0
    4.2361   -5.3096  -18.1046 H   0  0  0  0  0  0  0  0  0  0  0  0
    6.6205   -3.4619  -21.1768 H   0  0  0  0  0  0  0  0  0  0  0  0
    6.4247    7.3608  -22.6677 H   0  0  0  0  0  0  0  0  0  0  0  0
    4.8574    4.0616  -24.9735 H   0  0  0  0  0  0  0  0  0  0  0  0
    6.3172    8.8042  -24.6885 H   0  0  0  0  0  0  0  0  0  0  0  0
    4.8055    5.4942  -26.9989 H   0  0  0  0  0  0  0  0  0  0  0  0
    3.6943   -1.1369  -19.0184 H   0  0  0  0  0  0  0  0  0  0  0  0
    4.3328    0.6005  -19.8890 H   0  0  0  0  0  0  0  0  0  0  0  0
    7.1309   -1.7840  -22.2417 H   0  0  0  0  0  0  0  0  0  0  0  0
    5.9119    5.6877  -20.6111 H   0  0  0  0  0  0  0  0  0  0  0  0
    7.4354    5.5193  -21.5476 H   0  0  0  0  0  0  0  0  0  0  0  0
    5.8158    2.8334  -23.3241 H   0  0  0  0  0  0  0  0  0  0  0  0
    4.1643    3.3492  -22.8413 H   0  0  0  0  0  0  0  0  0  0  0  0
    7.6042    3.2110  -21.1234 H   0  0  0  0  0  0  0  0  0  0  0  0
    4.6507    3.3525  -16.5247 H   0  0  0  0  0  0  0  0  0  0  0  0
    6.3378    2.7371  -16.5645 H   0  0  0  0  0  0  0  0  0  0  0  0
    6.0253    4.5053  -16.6143 H   0  0  0  0  0  0  0  0  0  0  0  0
    3.3754    3.1898  -20.7911 H   0  0  0  0  0  0  0  0  0  0  0  0
    2.2953    3.4738  -18.8348 H   0  0  0  0  0  0  0  0  0  0  0  0
    3.1951    3.7086  -17.3736 H   0  0  0  0  0  0  0  0  0  0  0  0
  1 12  1  0  0  0  0
  1 25  3  0  0  0  0
  2  3  1  0  0  0  0
  2  4  2  0  0  0  0
  3 12  2  0  0  0  0
  4 13  1  0  0  0  0
  5  7  2  0  0  0  0
  5 15  1  0  0  0  0
  6  8  1  0  0  0  0
  6 15  2  0  0  0  0
  7 16  1  0  0  0  0
  8 16  2  0  0  0  0
  9 12  1  0  0  0  0
  9 13  2  0  0  0  0
 10 14  1  0  0  0  0
 10 17  2  0  0  0  0
 11 14  2  0  0  0  0
 11 32  1  0  0  0  0
 13 14  1  0  0  0  0
 15 26  1  0  0  0  0
 16 31  1  0  0  0  0
 17 23  1  0  0  0  0
 17 32  1  0  0  0  0
 18 22  1  0  0  0  0
 18 27  1  0  0  0  0
 18 30  2  0  0  0  0
 19 27  1  0  0  0  0
 19 28  2  0  0  0  0
 19 29  1  0  0  0  0
 20 22  1  0  0  0  0
 20 26  1  0  0  0  0
 21 23  1  0  0  0  0
 21 26  1  0  0  0  0
 22 23  1  0  0  0  0
 23 28  1  0  0  0  0
 24 27  1  0  0  0  0
  2 33  1  0  0  0  0
  3 34  1  0  0  0  0
  4 35  1  0  0  0  0
  5 36  1  0  0  0  0
  6 37  1  0  0  0  0
  7 38  1  0  0  0  0
  8 39  1  0  0  0  0
  9 40  1  0  0  0  0
 10 41  1  0  0  0  0
 11 42  1  0  0  0  0
 20 43  1  0  0  0  0
 20 44  1  0  0  0  0
 21 45  1  0  0  0  0
 21 46  1  0  0  0  0
 22 47  1  0  0  0  0
 24 48  1  0  0  0  0
 24 49  1  0  0  0  0
 24 50  1  0  0  0  0
 28 51  1  0  0  0  0
 29 52  1  0  0  0  0
 29 53  1  0  0  0  0
M  CHG  1  28   1
M  END
> <OMEGA_C>
MVo2QBSeRsByf4vBteGvQM3bkMBTZp3BaRCQQOr/jcD8d5XBGWW7QATmWMDcVqPBaATCQDOn3kBQ
0bzBTtKlQN7gokB4UMfBlUPAQKur+EBM+cXBEqGkQB3IvEC+dNDBh4WGQFarBMBXjJnBPUykQDTE
0T6nsqTB94TUQHfHZ79kya7BZ6F2QFNqTcAsk5PB9Q6nQDx+CcDrY6HB8Ra1QDzNbr/HD6fBi520
QIurs0DHbb3Bv6OxQHC/50Cow8/BX8i4QE7FsT9LXKrBb6jYQL7DaUDuYZnBw3eLQPejWEAVhJjB
XhfPQOV8oUCbdqrB43OnQJPhWUAGsbTBbf7VQNLKaUDWpqXBwBKvQMhYN0Dcj6nBkw61QFI3YUAT
eYfBKeQBQMhEQMBi6oTBYby1QJ6rmUB3bLTBH12zQCT0XUDaTJPBOMuIQGpMSkDV1qLBNQZLQLpX
YkAJ3pLB7E/7QFppd0AgHZXBFfWvQOV3AEFthdjBI7zfQPlrNT+cz7LBYXy/QLEVr8Ad7Z7BaY6H
QNnnqcA61pDBidvTQGSPXcAgaqnB4ZbNQLKL60ByV7XBi2+bQGz4gUDIycfB1ibKQOTdDEEXgsXB
1MaZQFHQr0C8/dfBNXBsQBeGkb+1JZjB76WKQE24GT+uHJ/BkjDkQPFY5L/o7rHBOC69QLcBtkCB
46TBFO/tQECesECPYazB+Bq6QO5VNUDIl7rBp0GFQOVYVkASu7bBwVXzQGCATUDQ/KjByNKUQL+P
VkCPMoTB7c7KQOMsL0AXhITBLM/AQJUrkEAN6oTBCwdYQC0lTEA2VKbBieUSQG9SXkCorZbBqXxM
QJ1ZbUAZ/YrB0QY2QGxARcAwhovBA3avQNfEkMABZZ3BZIKPQAyxjcDMgJXBAxG7QAoOWcByY6PB
eYylQBuRokCYLsfBW1HBQBnQ3kAWyLzB3tGjQB1EvEBtWNDBNRG/QCai+EDw+MXBwRCGQB1FBMA7
tpnBxLWkQMoC0T7lwaTB57nUQFlpab8k3K7BUJd1QNCrTMA0rpPBYsGmQK6FCcDGg6HBnS21QLmr
b7+sKafBOEq0QAizs0ArU73BiD+wQClm50D6ts/Bm125QDhssT87Y6rBB7vYQIfFaUCmTZnBjISL
QB0gWECIjJjBUUjPQG6eoUAaYarB2EWoQGWvWUDiprTBtlrWQM/taUAxk6XBJaivQGckN0D9ianB
IcG0QGWfYUD5cYfB/V8CQBqKPsAX2YTBTqC1QIHPmUCXTLTB6kazQE8oXkAwRpPBZCmJQJHLSUBf
4KLBO7RKQEPnYEBx9pLBXkL7QEmod0DY+5TBh6qtQMk7AEGpetjBrSjgQDnLMz9m37LBlhm/QJQI
r8B52Z7BE9+GQHt9qcCU2JDB/JPTQMIVXsBfcqnBpZybQMCCgUCAnMfBW/nMQAD060A7V7XB0P+Y
QGkEr0BS2tfBgrjIQKnjDEHDkcXBFGlrQJegkL9LY5jBtR6LQAP+GT/8KJ/BSVvkQDBY5b9b/rHB
WYe9QDAgtkBJxaTBSBDuQM7CsEAtWqzBz5W7QLQWNkDbgrrBgzmGQD7ZVEAdzbbByNjzQJ8HTkD4
4KjB/nOUQDseV0A+NITBMGrKQEmSL0ATc4TBSoHAQARhkEDm44TBf/JYQMxwS0AwaqbBWNUSQORA
XEA60pbBSJ1LQKHfa0D2FIvB

> <OMEGA_E>
wB+hPuhGoT4=

> <OMEGA_NBR>
      2080

$$$$
50220709
  -OEChem-04172616093D

 56 60  0     1  0  0  0  0  0999 V2000
    2.8784   -3.0686  -17.3504 C   0  0  0  0  0  0  0  0  0  0  0  0
    5.5511   -4.5128  -19.5410 C   0  0  0  0  0  0  0  0  0  0  0  0
    5.7940    7.7977  -25.5194 C   0  0  0  0  0  0  0  0  0  0  0  0
    4.5507   -4.4105  -18.5575 C   0  0  0  0  0  0  0  0  0  0  0  0
    5.8923   -3.3929  -20.3196 C   0  0  0  0  0  0  0  0  0  0  0  0
    5.3683    6.5257  -25.9175 C   0  0  0  0  0  0  0  0  0  0  0  0
    4.2147   -2.0668  -19.1420 C   0  0  0  0  0  0  0  0  0  0  0  0
    5.1155    0.3935  -20.6195 C   0  0  0  0  0  0  0  0  0  0  0  0
    6.1551    8.0177  -24.1822 C   0  0  0  0  0  0  0  0  0  0  0  0
    6.6131   -0.9501  -21.8599 C   0  0  0  0  0  0  0  0  0  0  0  0
    3.8809   -3.1870  -18.3609 C   0  0  0  0  0  0  0  0  0  0  0  0
    5.2344   -2.1553  -20.1192 C   0  0  0  0  0  0  0  0  0  0  0  0
    5.6482   -0.9560  -20.8765 C   0  0  0  0  0  0  0  0  0  0  0  0
    5.3105    5.4786  -24.9663 C   0  0  0  0  0  0  0  0  0  0  0  0
    5.7233    1.3565  -21.3819 C   0  0  0  0  0  0  0  0  0  0  0  0
    5.7051    5.7787  -23.6196 C   0  0  0  0  0  0  0  0  0  0  0  0
    6.7483    3.5714  -19.2306 C   0  0  0  0  0  0  0  0  0  0  0  0
    4.3313    3.3467  -19.1450 C   0  0  0  0  0  0  0  0  0  0  0  0
    6.4785    5.0067  -21.3140 C   0  0  0  0  0  0  0  0  0  0  0  0
    5.2473    3.4303  -22.6745 C   0  0  0  0  0  0  0  0  0  0  0  0
    6.6711    3.5973  -20.7605 C   0  0  2  0  0  0  0  0  0  0  0  0
    5.4472    2.8441  -21.2830 C   0  0  2  0  0  0  0  0  0  0  0  0
    5.6174    3.4709  -17.0024 C   0  0  0  0  0  0  0  0  0  0  0  0
    4.5440    3.9484  -26.7081 C   0  0  0  0  0  0  0  0  0  0  0  0
    2.0637   -2.9630  -16.5234 N   0  0  0  0  0  0  0  0  0  0  0  0
    6.1088    7.0266  -23.2712 N   0  0  0  0  0  0  0  0  0  0  0  0
    5.7389    4.8226  -22.5975 N   0  0  3  0  0  0  0  0  0  0  0  0
    5.5748    3.4056  -18.4812 N   0  0  0  0  0  0  0  0  0  0  0  0
    4.2511    3.1499  -20.4424 N   0  3  0  0  0  0  0  0  0  0  0  0
    3.1438    3.5002  -18.4417 N   0  0  0  0  0  0  0  0  0  0  0  0
    7.8229    3.8095  -18.6904 O   0  0  0  0  0  0  0  0  0  0  0  0
    4.9013    4.1916  -25.3238 O   0  0  0  0  0  0  0  0  0  0  0  0
    6.9179    0.6491  -22.4446 S   0  0  0  0  0  0  0  0  0  0  0  0
    6.0580   -5.4534  -19.6985 H   0  0  0  0  0  0  0  0  0  0  0  0
    5.8440    8.6039  -26.2363 H   0  0  0  0  0  0  0  0  0  0  0  0
    4.2965   -5.2690  -17.9536 H   0  0  0  0  0  0  0  0  0  0  0  0
    6.6602   -3.4771  -21.0744 H   0  0  0  0  0  0  0  0  0  0  0  0
    5.0858    6.3437  -26.9439 H   0  0  0  0  0  0  0  0  0  0  0  0
    3.6903   -1.1341  -18.9956 H   0  0  0  0  0  0  0  0  0  0  0  0
    4.3308    0.6013  -19.9072 H   0  0  0  0  0  0  0  0  0  0  0  0
    6.4770    9.0023  -23.8766 H   0  0  0  0  0  0  0  0  0  0  0  0
    7.1169   -1.8345  -22.2210 H   0  0  0  0  0  0  0  0  0  0  0  0
    5.8912    5.6194  -20.6143 H   0  0  0  0  0  0  0  0  0  0  0  0
    7.4515    5.4871  -21.4944 H   0  0  0  0  0  0  0  0  0  0  0  0
    5.8248    2.8604  -23.4172 H   0  0  0  0  0  0  0  0  0  0  0  0
    4.1819    3.4145  -22.9478 H   0  0  0  0  0  0  0  0  0  0  0  0
    7.5853    3.1553  -21.1834 H   0  0  0  0  0  0  0  0  0  0  0  0
    4.6055    3.3184  -16.5988 H   0  0  0  0  0  0  0  0  0  0  0  0
    6.2867    2.6862  -16.6200 H   0  0  0  0  0  0  0  0  0  0  0  0
    5.9919    4.4568  -16.6897 H   0  0  0  0  0  0  0  0  0  0  0  0
    4.2456    2.8968  -26.8310 H   0  0  0  0  0  0  0  0  0  0  0  0
    3.7061    4.6026  -26.9907 H   0  0  0  0  0  0  0  0  0  0  0  0
    5.4093    4.1617  -27.3528 H   0  0  0  0  0  0  0  0  0  0  0  0
    3.3554    3.2072  -20.8832 H   0  0  0  0  0  0  0  0  0  0  0  0
    2.2685    3.4593  -18.9234 H   0  0  0  0  0  0  0  0  0  0  0  0
    3.1641    3.6516  -17.4534 H   0  0  0  0  0  0  0  0  0  0  0  0
  1 11  1  0  0  0  0
  1 25  3  0  0  0  0
  2  4  1  0  0  0  0
  2  5  2  0  0  0  0
  3  6  1  0  0  0  0
  3  9  2  0  0  0  0
  4 11  2  0  0  0  0
  5 12  1  0  0  0  0
  6 14  2  0  0  0  0
  7 11  1  0  0  0  0
  7 12  2  0  0  0  0
  8 13  1  0  0  0  0
  8 15  2  0  0  0  0
  9 26  1  0  0  0  0
 10 13  2  0  0  0  0
 10 33  1  0  0  0  0
 12 13  1  0  0  0  0
 14 16  1  0  0  0  0
 14 32  1  0  0  0  0
 15 22  1  0  0  0  0
 15 33  1  0  0  0  0
 16 26  2  0  0  0  0
 16 27  1  0  0  0  0
 17 21  1  0  0  0  0
 17 28  1  0  0  0  0
 17 31  2  0  0  0  0
 18 28  1  0  0  0  0
 18 29  2  0  0  0  0
 18 30  1  0  0  0  0
 19 21  1  0  0  0  0
 19 27  1  0  0  0  0
 20 22  1  0  0  0  0
 20 27  1  0  0  0  0
 21 22  1  0  0  0  0
 22 29  1  0  0  0  0
 23 28  1  0  0  0  0
 24 32  1  0  0  0  0
  2 34  1  0  0  0  0
  3 35  1  0  0  0  0
  4 36  1  0  0  0  0
  5 37  1  0  0  0  0
  6 38  1  0  0  0  0
  7 39  1  0  0  0  0
  8 40  1  0  0  0  0
  9 41  1  0  0  0  0
 10 42  1  0  0  0  0
 19 43  1  0  0  0  0
 19 44  1  0  0  0  0
 20 45  1  0  0  0  0
 20 46  1  0  0  0  0
 21 47  1  0  0  0  0
 23 48  1  0  0  0  0
 23 49  1  0  0  0  0
 23 50  1  0  0  0  0
 24 51  1  0  0  0  0
 24 52  1  0  0  0  0
 24 53  1  0  0  0  0
 29 54  1  0  0  0  0
 30 55  1  0  0  0  0
 30 56  1  0  0  0  0
M  CHG  1  29   1
M  END
> <OMEGA_C>
qDc4QH5jRMC1zYrBeKKxQLVokMARVJzBCmi5QMeG+UDBJ8zBnZ+RQGwijcCydZTB6Y28QLEkWcCQ
jqLBgMmrQCzS0EAOV8/BwN6GQJRGBMDTIpnBRbKjQMZ6yT7H9KTBsPbEQIhIAEEydcHBr57TQMM2
c78C4a7BBGF4QJn4S8AW45LBgICnQILwCcAP9KDBwL20QGe7dL8qA6fBQu+pQKZQr0AEu8fBiCW3
QIahrT8bDqvBy4+2QDTruEAF9bzBJfLXQC2SZEAs2JnB+pmKQB0wVkACKZnBAlDPQLU2oED/gqrB
AOqnQM6KW0BmZbXB/XnVQHs6ZkB8FabBcU+uQKoFNkCcQ6rBtMGzQKkjXkD0BIjBmGiRQFSzfEAg
qtXBQRQEQAGiPcDfL4TBinvDQJXZ4EBSK7rBMaW3QPRSmkCyx7TBxmSyQKf0WUBu2ZPBawmIQCyY
SUAaiqPBzTRJQMACYECLiJPBLlX6QHLPc0DjhZXBN9ecQN4hhkAwl8rByl/dQDUsJj+CjrPB4trB
QOSBrsB/lp3BrQG7QJWpCUH149HBBn2JQOybqMAOoY/BRCDVQCuIXsBamKjBwL6iQFr/ykARjdfB
MS1sQGcqkb/19pfBtpWKQEjxGT/zQZ/B6UPPQEQJEEE+A7/B3b3jQNjP6r+KxLHBmoS8QFjSs0AC
6qTBrHLuQPmVr0Bz9KvBEGW6QLUQN0B5VrvBN9KFQK6HWkAElbfBJLvyQEfwSUCUd6nBpGCTQOBf
VEBnyoTB5izJQIDrK0Cw9YTBzr2/QC6ejkCXhIXBSdyHQOhlOUDZpdbBfDBtQNZIk0AC7dfBWxmt
QIwshUCg0trBNr5WQFxCTUDOEKfBCC8RQHZkXUAsY5fBQIBKQOqzaUCWoIvBR7w1QBhiR8DsR4vB
XAKxQERxkMDI1pzBBOevQObP40AINtDBMfWQQFasjcAO+ZTBac27QHuLWMCh8aLBaEq7QLEs+EBy
n8bBLBaGQGXVBMBqXJnB0wekQIeg0D7pqKTBFdGmQFC6t0CJI9DBVEvSQEwgb78UGK/BGNF2QPxb
TcANRJPBI7imQL2fCcDpLqHBQhq0QNxlcb99EKfBcCW9QEP930BOKL3BItC3QL3Mrz9poqrB51G0
QOOXs0DBob3BLkvZQOMraUAQtpnBvfiLQD4xWkCkv5jBIknQQOCPoECyyqrB85SnQDX4WUD897TB
iGHWQE/qZ0Co96XB4fuuQP3ENkDl1KnBMc21QFUiaEAMxofBa3SgQKIxBkF6tq/BGZAAQDlKQsB6
xYTB6i6pQMOpoEBXCMfBnA61QL32mUCFg7TBovezQHVBYEB4kpPBIgSJQBXaSkD4DKPBMi5MQAkj
ZEBAE5PBS/T7QK9VeED9hZXBc6zEQL0/9EClkrPBFi/dQIR5Kz9WZrPBRlnBQNZprsBYMJ7B+yCu
QOTN9UAUk9fBNN6IQPNvqcDyPZDBA07UQLQtXcBrAqnBt4fCQIz7DEGRhMbBR6hqQCiMkr+UEZjB
aWGLQK72HD/v1J7BdsmdQGYQqECOgNfBGUrhQCwU6b8dTLLBJhXAQKvLtUBiD6XBnlzvQNN4rkCE
Bq3B2d26QLqiNkC/27rBCIiFQGhiVUDVH7fBMHLzQAZ0SkC+S6nBLZGVQP88X0DtaoTBpWjLQAQB
N0C6hoTBj83BQCUClECwnIXBaLSoQGPUDUGdDqjBU/aXQEOSEkECmbXBSBSFQLbC9kASi67BsUZY
QIa1TEBHfabBovETQO6JX0DK2ZbBF9xNQGLlb0DVNovBIhA6QMOmRsD0CovB3HOuQJdPkcCXwJ3B
QlOtQELK5kAvu8/BIGiPQB1YjsD/pJXBoDG6QEaEWcBImqPBivTCQEwG+EA968bBT2WHQHM1BMAn
SZnBKwqkQIMA0T6W4KTB2yieQBqFvEDENM/B38XTQAZLa7/w/67BIsp3QJ1uTcCNa5PBcOimQDOD
CcCaY6HBHMG0QHrub79VKqfB4rHJQLVO3kBx2b3BICa4QO6zsD8RtqrB8Nu3QL6TtEBDlL3BiyrX
QPWzZ0DBL5nBd9CJQFHoWEB395jBC+fRQC0VoECiUarBmMKoQIv4W0Cc9LTBdjDWQOnuZkCSd6XB
CCmvQOogN0CY0KnBKAmxQLKyZEAjmIfBQMkIQeCS60BSlrnB2hgIQHi7QMCXKITB5NyiQEXLpED1
Q8bBwVi8QF7ZmEDX3LTBQvuwQLAnXkAUapPB81iIQIQoSkAcTKPBMEtGQFJlY0B+p5PBzij5QCeB
dkB1ppTBYV7lQAZ97EDxHrbBR4zeQNBaMD9dQrPBz0y9QBq9r8BxfJ/B+FuoQHnC+UCH2NbBnoiG
QINvqsB/IJHBzw/SQNpoXsA90qnBalDOQCtUDEGZFsfBTEFwQEpcj78qmpfB6rOKQPc7Gz8gOJ/B
0nCOQEbCrkC8FtbBj2jjQD2P5r/PF7LBhEK+QG3GtEAxKqXB1JLxQD2/rkCGdqvB6oe4QAI1M0Al
87rBVWyGQH62YECdzLbB4ofzQH93SEAPfajBbFGQQDB2W0B8j4TBBiPGQEwuM0CWO4TBVLS8QHko
kkBlNYXBRyMTQak990BtGLPB40sNQUiRykAUp7vBZ7cKQVgbAEFmpsDBbNRXQHrBS0Bt9qbBiDcP
QJ+aX0CCs5fBiKxFQMG9bkAHyIvBlgmhQDbfvcDow6fBKvRyQC0ZXMC7mJPBcH+lQIAV6EBd787B
1uCAQJZQlcCx15jBzsuKQPq2D8AAwpfBeJe5QBkV+UDV3sXBj2KrQNnMYMDBWabBu16lQBZVnD5t
G6TBYqiZQLS2vED6Bs/BmwrcQIuphb8FjKvBiLWZQEVnlsDMQ6LB0R2kQOzqEcABIqHBBDG3QAA5
hr+4g6XBAqLBQFZE3kC2+LzB/yy9QMg+oj8GSqnBpOu0QDlUskA8o73Bm0LZQD3bcUCBapnB2KmL
QPwZX0AwhJnBj0PVQFZ/nUABTqvBFOauQGI7T0ByT7XB75TZQLipZUDpjqXBE4KzQP2rMEDDpanB
VVSwQOo4hUCZfIjBb/ziQEjXDEF0crPBQjGnQDDT3cA8VKzBWFihQO7pokCekMbBlMC7QJJqlUAD
LLXB5heyQIVdcECX5pPB1KKLQMbVRUAyk6PBsjRIQCbJZ0Apf5TBZar6QNWWg0Ag/ZTBndLUQDq7
7UCirLPBVIzpQAWuDT8zoa/BoAJNQAB4WsCxYIzBciifQEog/EACy9XBBRhnQIaHssAnppXB4LqE
QP8Rp7+hyZPBUd/CQIYuDUHgq8XBSaO+QFy4YsCQha3Bsd2IQOnTBD+jh5/BGBCKQNuyr0B2BNbB
XkTuQBDt9r+Gfa3Bi6zEQKe5tEC4J6bB3xL1QP/0qUDQbK3B+wzEQFE6KkALnLrBSpSNQDiNSEDE
BbjBbqH3QGF7RkBB+KfBlD2PQHqQgkA5j4XBwjjFQLRwYEDTu4PBBju7QAeMpkCOtYfBwEzxQEhi
EEHomqvB7fX6QOdmD0EKw7nBt33HQHV9F0HFzbTBEw5fQN6JQEA7V6fBBWYSQF4BW0DbhZjB4jZF
QODMekD73YzB

> <OMEGA_E>
4OWFPlCVlz6AUKE+vIAhPw==

> <OMEGA_NBR>
      6087

$$$$
50220708
  -OEChem-04172616093D

 55 59  0     1  0  0  0  0  0999 V2000
    2.9428   -3.0276  -17.3167 C   0  0  0  0  0  0  0  0  0  0  0  0
    4.6055    5.5839  -27.6659 C   0  0  0  0  0  0  0  0  0  0  0  0
    4.5875    4.4228  -26.8817 C   0  0  0  0  0  0  0  0  0  0  0  0
    4.9751    6.8115  -27.0916 C   0  0  0  0  0  0  0  0  0  0  0  0
    5.6007   -4.4867  -19.5174 C   0  0  0  0  0  0  0  0  0  0  0  0
    4.6208   -4.3734  -18.5141 C   0  0  0  0  0  0  0  0  0  0  0  0
    5.9041   -3.3837  -20.3352 C   0  0  0  0  0  0  0  0  0  0  0  0
    4.9374    4.4866  -25.5248 C   0  0  0  0  0  0  0  0  0  0  0  0
    5.3264    6.8814  -25.7343 C   0  0  0  0  0  0  0  0  0  0  0  0
    4.2260   -2.0557  -19.1608 C   0  0  0  0  0  0  0  0  0  0  0  0
    5.0853    0.3859  -20.6845 C   0  0  0  0  0  0  0  0  0  0  0  0
    6.5395   -0.9709  -21.9624 C   0  0  0  0  0  0  0  0  0  0  0  0
    3.9316   -3.1574  -18.3392 C   0  0  0  0  0  0  0  0  0  0  0  0
    5.2266   -2.1536  -20.1562 C   0  0  0  0  0  0  0  0  0  0  0  0
    5.6069   -0.9665  -20.9485 C   0  0  0  0  0  0  0  0  0  0  0  0
    5.3175    5.7219  -24.9188 C   0  0  0  0  0  0  0  0  0  0  0  0
    5.6846    1.3457  -21.4573 C   0  0  0  0  0  0  0  0  0  0  0  0
    6.7281    3.5253  -19.2439 C   0  0  0  0  0  0  0  0  0  0  0  0
    4.3005    3.3680  -19.2037 C   0  0  0  0  0  0  0  0  0  0  0  0
    5.7546    5.8726  -23.4910 C   0  0  0  0  0  0  0  0  0  0  0  0
    6.5178    4.9719  -21.2777 C   0  0  0  0  0  0  0  0  0  0  0  0
    5.2953    3.4780  -22.6832 C   0  0  0  0  0  0  0  0  0  0  0  0
    6.6732    3.5515  -20.7618 C   0  0  2  0  0  0  0  0  0  0  0  0
    5.4436    2.8383  -21.3174 C   0  0  2  0  0  0  0  0  0  0  0  0
    5.5487    3.6078  -17.0498 C   0  0  0  0  0  0  0  0  0  0  0  0
    2.1363   -2.9109  -16.4832 N   0  0  0  0  0  0  0  0  0  0  0  0
    5.5341    3.4286  -18.5177 N   0  0  0  0  0  0  0  0  0  0  0  0
    5.7934    4.8487  -22.5485 N   0  0  0  0  0  0  0  0  0  0  0  0
    4.2370    3.1415  -20.4963 N   0  3  0  0  0  0  0  0  0  0  0  0
    3.1031    3.5585  -18.5280 N   0  0  0  0  0  0  0  0  0  0  0  0
    7.7851    3.8218  -18.6982 O   0  0  0  0  0  0  0  0  0  0  0  0
    6.1764    6.9654  -23.1236 O   0  0  0  0  0  0  0  0  0  0  0  0
    6.8386    0.6258  -22.5581 S   0  0  0  0  0  0  0  0  0  0  0  0
    4.3356    5.5352  -28.7105 H   0  0  0  0  0  0  0  0  0  0  0  0
    4.3040    3.4783  -27.3222 H   0  0  0  0  0  0  0  0  0  0  0  0
    4.9890    7.7057  -27.6971 H   0  0  0  0  0  0  0  0  0  0  0  0
    6.1209   -5.4224  -19.6596 H   0  0  0  0  0  0  0  0  0  0  0  0
    4.3972   -5.2178  -17.8790 H   0  0  0  0  0  0  0  0  0  0  0  0
    6.6576   -3.4754  -21.1035 H   0  0  0  0  0  0  0  0  0  0  0  0
    4.9190    3.5862  -24.9287 H   0  0  0  0  0  0  0  0  0  0  0  0
    5.6073    7.8319  -25.3053 H   0  0  0  0  0  0  0  0  0  0  0  0
    3.6855   -1.1296  -19.0315 H   0  0  0  0  0  0  0  0  0  0  0  0
    4.3134    0.5980  -19.9596 H   0  0  0  0  0  0  0  0  0  0  0  0
    7.0235   -1.8600  -22.3385 H   0  0  0  0  0  0  0  0  0  0  0  0
    5.9422    5.5796  -20.5640 H   0  0  0  0  0  0  0  0  0  0  0  0
    7.5036    5.4323  -21.4398 H   0  0  0  0  0  0  0  0  0  0  0  0
    5.8888    2.9281  -23.4284 H   0  0  0  0  0  0  0  0  0  0  0  0
    4.2385    3.4845  -22.9885 H   0  0  0  0  0  0  0  0  0  0  0  0
    7.5860    3.0997  -21.1775 H   0  0  0  0  0  0  0  0  0  0  0  0
    4.5274    3.4977  -16.6563 H   0  0  0  0  0  0  0  0  0  0  0  0
    6.2009    2.8482  -16.5943 H   0  0  0  0  0  0  0  0  0  0  0  0
    5.9290    4.6110  -16.8068 H   0  0  0  0  0  0  0  0  0  0  0  0
    3.3447    3.1736  -20.9467 H   0  0  0  0  0  0  0  0  0  0  0  0
    2.2366    3.5205  -19.0258 H   0  0  0  0  0  0  0  0  0  0  0  0
    3.1069    3.7337  -17.5435 H   0  0  0  0  0  0  0  0  0  0  0  0
  1 13  1  0  0  0  0
  1 26  3  0  0  0  0
  2  3  1  0  0  0  0
  2  4  2  0  0  0  0
  3  8  2  0  0  0  0
  4  9  1  0  0  0  0
  5  6  1  0  0  0  0
  5  7  2  0  0  0  0
  6 13  2  0  0  0  0
  7 14  1  0  0  0  0
  8 16  1  0  0  0  0
  9 16  2  0  0  0  0
 10 13  1  0  0  0  0
 10 14  2  0  0  0  0
 11 15  1  0  0  0  0
 11 17  2  0  0  0  0
 12 15  2  0  0  0  0
 12 33  1  0  0  0  0
 14 15  1  0  0  0  0
 16 20  1  0  0  0  0
 17 24  1  0  0  0  0
 17 33  1  0  0  0  0
 18 23  1  0  0  0  0
 18 27  1  0  0  0  0
 18 31  2  0  0  0  0
 19 27  1  0  0  0  0
 19 29  2  0  0  0  0
 19 30  1  0  0  0  0
 20 28  1  0  0  0  0
 20 32  2  0  0  0  0
 21 23  1  0  0  0  0
 21 28  1  0  0  0  0
 22 24  1  0  0  0  0
 22 28  1  0  0  0  0
 23 24  1  0  0  0  0
 24 29  1  0  0  0  0
 25 27  1  0  0  0  0
  2 34  1  0  0  0  0
  3 35  1  0  0  0  0
  4 36  1  0  0  0  0
  5 37  1  0  0  0  0
  6 38  1  0  0  0  0
  7 39  1  0  0  0  0
  8 40  1  0  0  0  0
  9 41  1  0  0  0  0
 10 42  1  0  0  0  0
 11 43  1  0  0  0  0
 12 44  1  0  0  0  0
 21 45  1  0  0  0  0
 21 46  1  0  0  0  0
 22 47  1  0  0  0  0
 22 48  1  0  0  0  0
 23 49  1  0  0  0  0
 25 50  1  0  0  0  0
 25 51  1  0  0  0  0
 25 52  1  0  0  0  0
 29 53  1  0  0  0  0
 30 54  1  0  0  0  0
 30 55  1  0  0  0  0
M  CHG  1  29   1
M  END
> <OMEGA_C>
DFY8QBHEQcCmiIrBKmCTQIOvskDcU93Bb8ySQJiHjUDGDdfByDOfQJj32UCTu9jBRjmzQNCSj8CJ
I5zBU92TQEbzi8DyHJTBq+68QPONWMB6rqLBff+dQBKSj0DAMszBq3GqQBo03EDL383BGDuHQBaR
A8A5SZnBzLqiQEmUxT7ieaXBPkPRQLmJeL/3sq/BgJ97QFISSsChtpLB5j+nQEXUCcD4P6HBImyz
QOFtd7+dlqfBOCmqQM4Zt0CzWcfBPei1QHI+rD+jqKvBakzXQDyeYUCQ85nBv52JQM+NV0AmoZnB
ySW4QELsu0Ca7bvB3JHQQIMZn0C4OKrBt3KpQHeXXkA7d7XBP4vVQB1LY0AZGKbB2zGuQIOmNUD7
iarBw46xQL3mZkAMZojBjLgIQFVMOsCZ3YPB8xaxQKluW0AoJJTBamO5QPAom0BRY7TBfZWHQJEN
SUBn+KPBnJlGQBy+Y0BuOZTBjx/5QLSXdEDUlZXB5KTFQMvk3kA4/bjBG9baQCY2ID8Pd7TBUb2K
QPMfsUAzr+XBKbqJQAmdXkDfk9rB46WfQLiU9kCrk93BhN7DQFSErcDPRp3BpbWMQH34psAoCI/B
QAvVQJRsXsDm06jBhWidQMqDZUD3bcfBTm+zQIme+kA9ccrB3d9rQByYkL+OQJjBDQeKQHYXGT8+
rZ/BfMDgQC8V7r9OtbLBKCa+QMiLskAdg6TBFx3wQI/VrUDEhKvBBXG8QExlO0BWbbvBuaGHQNQC
X0B/6LfBMcDyQMFgRkCBa6nBhOCQQKvaX0AOQIXB4m3GQG5INkAjwYTBA7q9QESNk0BbdIbBVBBW
QKocS0DOkqfBBCUPQP9PYUDQNJjBEdhGQE/0bkAeWYzBURs7QPoiQMCwjorBc3OVQI+ls0BvX93B
JnahQMa72kBMtNjB5CuTQGuYjkBIFdfBfryyQGelj8Dx+5vBqyiTQOu0i8DUBJTBi868QHITWcBF
j6LBwnCrQJrT3ECfxM3BTgudQMaAkEB0JczBzRqHQAMqA8BUTJnBfR2jQBOowT6wiKXB9ejRQKn0
e7/Kn6/Bcpx6QJRGScDXspLBT0+nQCMRCsBXNaHBd9OzQLOpeb+mkafBpb2pQFi/t0DHP8fB14e2
QCjrqj+5savBnrPXQPWCYUBK/5nBZgWKQNb6VkAqtpnBbyy3QN8kvEAyybvBfnDRQJqbnkD/VKrB
Z9WpQMvfXUBAibXBLCLWQAqNYkBJJabB2sGuQNT2NEBFmqrB3rKxQADQZkD+d4jBVV0HQPXnN8Ad
64PBTW2xQFFNW0CBNZTBB6W6QNeKmkDViLTBSBiIQJY6SEBHC6TB50JHQHnfYkChU5TBfXL5QPni
dECKnpXB/EvDQHZS30BlorjBbsTbQJCtHD+5ZbTBXPuNQBgnskDizOXBPQajQPBM90AZjd3BHc+J
QIMdYUBxqNrBEUbDQPewrcDxDJ3BX7CLQDqapsC37I7ByAvVQK13X8CNqqjBQ4m0QHgY+0DiRcrB
1wCbQFagZ0AwW8fBDOlrQH1Rj7/RU5jBcTWKQKPlFz/ry5/BFWnhQA8M8L90l7LBQN2+QOQ1skAL
sKTBrhHxQMs7rUAGk6vBTTO8QF7eOUBii7vBO+iHQK99X0CD37fBbVbzQE87RUDRaqnBZPiQQMe3
X0BpWoXBW4jGQLY+NkDyzITBm869QJqFk0AUhIbBiRxXQGz9SUDyp6fBFOAPQJwMYEDWUZjBtVVH
QK5DbkBVdIzBI2o0QA/oRMBE0ovB05zTQB/WGUHupMDBg3PMQPXpEEF4fLbBLSDOQFpNDUHR48nB
ih+yQAvkj8BCvJzBUkCRQHrkjMBSFZXBmES9QG8PWMAE56LBki/AQGnc9kAFkbXBz/rCQENH70Bo
+sjB8dmFQAt9BMDQ6pnBKgilQKYVyD4W3qTB/YvUQLDSb7+hD6/B/kF2QDgNTMD9r5PBc26nQP2m
CcDkeKHBaWG1QMZ3c7/rRKfBZMy8QO+33EBPx77BCAK6QLoJrj+Ed6rBt3fZQDWJbEDBr5nB4jqM
QPidW0Cx2ZjByfSwQOo6r0DrHL7BoKTPQC+Ln0A5MKvBaE2oQGXoVEA75rTB0yfXQGH8Z0Dq/qXB
zUiwQEfjNEBttqnBqRy1QO2fbUAG0ofBI4r9P7NzPsB3ZIXBueyzQKfTY0BhmpPBKN60QNH6lkAP
1rTB7t6JQM/BSEBGD6PBZQ1MQNEwZ0C0W5PBS8z7QA+HfUD5b5XB6oOiQCO2nUDLI8bBjIvgQHG7
Kz9IAbPBDVrdQM1aKkFiW8HBmGTQQMyYGkH2Za/B8H/SQL1dFEHkstHBFM/CQKTQrcAw3p3BRfqI
QNhlqMBCR5DBGpbWQPTNXMDfwKjBx0S5QMyX6UA7x63BYxu/QOoI3EDYFtDBt9RoQDWmkr+G8JjB
HVmLQBeaFj95Tp/B75DjQNcv6b9WSrLBTbG+QID4tEDDo6XBtEjuQFsnrkA2hK3BCa27QPu2MEA+
sLrBdTmGQNa2TkCN9rbBTKT0QCQPS0CBKanBDcKUQCWOZEBoi4TBetDKQEiAPUD/YYTBMKjAQMYM
l0AmyIXB5iBaQI+jR0BkiqbBbTwUQJETYUBzMpfBE9xMQCSjdUC6kIvB7hs5QL5NRcCFI4vBjqna
QFxPGkGprbzBX3jeQGuHDkEpPcbBx53HQDj/EEHxm7PBPkStQLtfkcAJ7Z3BfEKOQMQrjsDU0JXB
nTS5QBXeWcCTx6PBM67QQLFU8kBZo8bBjSy5QDeP90AiDLTB3rGGQBXYA8AudpnBo/2jQEwozT4q
+KTBRTLUQBh4br+B6a7BLg52QBDRTMChlpPBpyqmQHSvCcD7jqHB0I+0QMu9cb9tPKfBkDe/QET/
3kDfbL3B2BO5QMzmrj+tnKrB1QDYQPzpaUBZlJnB9pyKQEoDW0DCLpnBkO2yQOrasUDTvr3BojvQ
QFa7n0Cu+arBQmSpQAQMV0BXKbXBp6nWQCptZ0DA56XBQ9OvQPCmNUDy7qnBCDqyQB6SZ0A944fB
wOUHQJ+pPsBsLoTBB+2xQIIJYUA4tpPBppy1QDEfmED4t7TBOPmIQCEpSkBsdqPBryNIQF5WZkCD
1JPBMjz6QPS7d0BnG5XBp5SmQPJDokByOMbBJhLgQB0WLD+T9rLB02fmQJeLKkHCT7zB+QPsQPbw
FUFQRc3BlCHEQD0oGkHEVazBQeu7QG/mr8DDp5/BJTKFQCkyqsDKS5HBdgfRQIINX8BMAarBEXDT
QGxR4EC9+s3Bf2KpQK2W6UCHM63BTTJvQII9jr+VypfBiB2KQJo8Gj9jeZ/BaqHjQCCY6L83AbLB
uYK/QKY4tUAHZqXBbj7vQCLWrUBwMK3BK869QE8MNEBF17rBlbCHQHKqUECvkrfB5jb0QA0kSkAJ
+6jBPIeRQHLgXkDo0ITB2C7HQHSzNUASjYTBLjS+QMN+k0DRg4XBwwRZQLoXS0C5HafBHtYQQPSO
YUDfz5fBQ/NHQLpEc0DC/ovBnqE0QCv2Q8CDaYvB92v+QEy4EkGt6r/B8VsJQZ0YAEEzH7zBUtnT
QJPXEUEyn8PB+xqyQP/7j8BWQpzBwyeRQGi/jMBjopTBsZi9QHpnWMAfb6LBSSX8QJZo2UB237vB
GxO9QGr1/EAaQcPBaoOGQH/hA8B6eJnBjb2lQFZryj6Ot6TBnLTUQF2Hcr+o567B3rR2QAtkS8CL
QJPBHB6oQAyFCcDcB6HBVAm2QGXzc78Y/KbBmMzQQH4X2EBpDr/BYIS5QJwfrj/lr6rBetPYQOOf
akCcy5nBNLuLQLOnWECq7pjBWb+4QAY4sECUdL7BsojMQDWCoEAbwKrBS+ymQJVVWEChLLXBs8LV
QKFDaUCICKbBbmKvQB9qNUBy+qnBUey0QH+dakAl6YfBc7L9PzJ/PcATAIXBB32zQPxYYUALspPB
jqq6QCtWlkABdrXBbSmJQGV0R0BXMqPBQi1LQKV0YUC4WpPBg3H7QIk7ekCWmpXBOTykQPB6pEBV
S8bBYIjfQAXbKD8ASrPBs8MHQdO7IUFU/b/BwMEZQeC8AEFQarnBLbvEQN0RIEHpvsbBkZrCQHoG
rsCtXp3B45SIQLUyqMC414/B2u3WQPCpXcA5RqjBAPcFQZyEvEBpPrnBa5acQAJ4+0CPLcbBOsRq
QMHAkL9lepjBv9aMQGknGj929Z7BTRHkQIXS6r/W/bHBiCC1QLsEskAN2aXBGgnqQO2As0DXc6vB
1mm1QB5hLkDiPbvB90yEQLheXUDDobbByXjzQC89T0Cbc6nBQ6mUQDkmYUCOmITBQMvKQISAOkDF
iYTBSmTAQMaKlUCm14XBDoBYQIlnRkB8n6bBXU8TQIuyWkAvKpfBjhJMQDWObkBJhovBAULKQOrh
ssDT1pvBemWVQMLUsEABkN3BLB6TQMEsjEDUIdfBYzOhQAw82ECAB9nBX3d1QDvEQ8BmOZLB5euR
QK9ViMC+EJPBXHSEQHlR/b/7BJnBo9GcQNDKjkCtMczBxPCqQL8M20C4Fs7B6la8QLerU8AzjqHB
v/yiQMnn0j6lWqXBEbLQQLKPfL+rYa/BxY2yQDEyjMDiyJrBtLqlQDoIBsBIr6DBw8eyQArVcb9+
RqfBhT2pQE5ntkDaa8fBNt62QAVPrD+/nqvBBILYQKtWYUCrGprBZdqKQFdvVkD8vJnBS0K2QHe5
u0Df77vB2B7RQIcan0APZ6rB4XqqQI09XUDnlbXBKKrWQJ9sY0C1QqbBuGavQC1yNUBHparB0uOy
QLskY0C7gIjBGP3dQP9B0sAo2pzBHF+yQHzfWUCzRZTBfGu5QIjDmkBLgbTB8tCIQLGGSUDoGqTB
9wtJQIATYUCtSpTBK2X6QMWyc0CRupXBGvvBQIUy30Bf57jBg5TbQEg0GD/RTLTBihaOQE3LrkDj
/eXBmeOJQAXJW0AgmdrBVsqiQMZ/9EA5/N3B8v5CQOLKPcBNXozBvbqKQMfOosB0z43BxgllQCyS
h7/IZZjBE9yaQHO/ZEA/TcfBDtuzQIOS+UBDtMrBvVPVQElFWsCId6fB3U+KQIphJj+1nJ/BVHjf
QME+8r//SrLB59O+QOR5skDkpqTBUXjwQKAVrkAY0KvB5wi+QHqhOkCefLvBeb2IQCULXEDfFrjB
GOrzQMT1RkCXn6nB4zySQOFQW0BgXYXBgNrHQB77MUBEAoXB1Pm+QK+EkUA3YIbBWL5YQFlNTUBV
vafBuJARQKTDXkDkRJjB4klJQFgOa0C+Y4zBCIGhQPnQvsBmL6fB5IPXQB2xGUE1W7fBt9jzQNmx
C0EoqrzBh6OuQHh6EkEaN7TB691zQACyXMDPLpPB/mOBQNTHlcD+V5jBziOLQCl/EMDxbpfBSkrn
QJD67EBs3L7B2QmiQFyM+kBgZrbBoMarQIlxYsAx8aXBvqelQDMAlD50+KPBEFzcQDjTiL8SS6vB
kyyaQKAkl8BhxaHBVnGkQNMoE8Ccz6DBLHu3QHzNiL+iRaXBN0i+QNKY3kCJx7vBWn29QHrYnz86
NanBpz3ZQB1cc0AdspnBTcKLQN6+XkClqJnB+hiyQM+zsUBge73BWXPTQJbcnUCnu6vB7bCuQDfp
TEDvgrXBxUvZQI+rZkBP2KXBO4yzQIicL0AOxanBxZOwQAPihUCWtojBWKCnQMfz3sDpq6vBIjmy
QHsicUByHJTBDoO7QO3Uk0AQkrXBA6qLQDS1REBysKPBYIJIQEE5Z0CompTBfLf6QMxchEA+TpXB
lwefQOxvp0D4qMXBOerpQGj4Bj83dq/BmiLhQPLzKUHmsbXBmJUJQdU6EUHmC7/B4/+YQMAzHUEE
I7DBMQFOQAGmWsB89YvBe0doQBLpssDnFJXBx/6EQEQqqL/ihpPBfQX9QM1/10Du5cLBZs2CQJ1u
70Ap9rPBWQW/QHjMZMDRHK3B8ByJQDfNAT/ua5/BTpjuQMRJ+r9RL63BQETBQJh3tEDcv6bBh8Ty
QJbQq0ACuq3BlK/DQBsxJ0BWxbrBmk2NQBgIRkCbKbjBH5r3QJzYSECSUqjB/5mPQJDdgkB9uoXB
qd3FQHqQYkDW9YPBdA67QCtep0DGAYjBqQtfQCjAPkCVbKfBpacSQE28WUCIlZjBbKZFQCTMekDw
/ozB

> <OMEGA_E>
IPXAPvgwwj7IHv0+yMEAP7SpBT/gkBA/agxWPw==

> <OMEGA_NBR>
     12769

$$$$
50491801
  -OEChem-04172616093D

 55 59  0     1  0  0  0  0  0999 V2000
    2.8805   -3.0774  -17.3380 C   0  0  0  0  0  0  0  0  0  0  0  0
    5.5453   -4.5193  -19.5399 C   0  0  0  0  0  0  0  0  0  0  0  0
    4.5527   -4.4160  -18.5485 C   0  0  0  0  0  0  0  0  0  0  0  0
    5.8830   -3.3991  -20.3193 C   0  0  0  0  0  0  0  0  0  0  0  0
    4.2165   -2.0712  -19.1277 C   0  0  0  0  0  0  0  0  0  0  0  0
    5.1045    0.3850  -20.6153 C   0  0  0  0  0  0  0  0  0  0  0  0
    6.0829    7.8405  -24.4305 C   0  0  0  0  0  0  0  0  0  0  0  0
    6.5911   -0.9592  -21.8677 C   0  0  0  0  0  0  0  0  0  0  0  0
    3.8864   -3.1917  -18.3457 C   0  0  0  0  0  0  0  0  0  0  0  0
    5.2281   -2.1611  -20.1132 C   0  0  0  0  0  0  0  0  0  0  0  0
    5.6344   -0.9639  -20.8762 C   0  0  0  0  0  0  0  0  0  0  0  0
    5.6464    7.3868  -25.6890 C   0  0  0  0  0  0  0  0  0  0  0  0
    5.7113    1.3465  -21.3790 C   0  0  0  0  0  0  0  0  0  0  0  0
    5.2457    6.0452  -25.8283 C   0  0  0  0  0  0  0  0  0  0  0  0
    5.6753    5.7245  -23.5494 C   0  0  0  0  0  0  0  0  0  0  0  0
    6.7305    3.5418  -19.1875 C   0  0  0  0  0  0  0  0  0  0  0  0
    4.3122    3.3283  -19.0851 C   0  0  0  0  0  0  0  0  0  0  0  0
    6.5056    4.9993  -21.2664 C   0  0  0  0  0  0  0  0  0  0  0  0
    5.2816    3.4374  -22.6476 C   0  0  0  0  0  0  0  0  0  0  0  0
    6.6628    3.5777  -20.7200 C   0  0  2  0  0  0  0  0  0  0  0  0
    5.4426    2.8311  -21.2729 C   0  0  2  0  0  0  0  0  0  0  0  0
    5.6149    3.4442  -16.9522 C   0  0  0  0  0  0  0  0  0  0  0  0
    4.5220    4.1587  -27.1426 C   0  0  0  0  0  0  0  0  0  0  0  0
    2.0595   -2.9780  -16.5165 N   0  0  0  0  0  0  0  0  0  0  0  0
    6.0965    6.9995  -23.3776 N   0  0  0  0  0  0  0  0  0  0  0  0
    5.2664    5.2442  -24.7468 N   0  0  0  0  0  0  0  0  0  0  0  0
    4.2387    3.1435  -20.4601 N   0  0  0  0  0  0  0  0  0  0  0  0
    5.6681    4.8502  -22.4843 N   0  0  2  0  0  0  0  0  0  0  0  0
    5.5592    3.3772  -18.4306 N   0  0  0  0  0  0  0  0  0  0  0  0
    3.1909    3.4835  -18.4275 N   0  3  0  0  0  0  0  0  0  0  0  0
    7.8042    3.7852  -18.6481 O   0  0  0  0  0  0  0  0  0  0  0  0
    4.8310    5.5757  -27.0657 O   0  0  0  0  0  0  0  0  0  0  0  0
    5.6170    8.2288  -26.7447 F   0  0  0  0  0  0  0  0  0  0  0  0
    6.8965    0.6398  -22.4511 S   0  0  0  0  0  0  0  0  0  0  0  0
    6.0488   -5.4608  -19.7025 H   0  0  0  0  0  0  0  0  0  0  0  0
    4.3017   -5.2746  -17.9434 H   0  0  0  0  0  0  0  0  0  0  0  0
    6.6459   -3.4835  -21.0791 H   0  0  0  0  0  0  0  0  0  0  0  0
    3.6957   -1.1374  -18.9758 H   0  0  0  0  0  0  0  0  0  0  0  0
    4.3229    0.5934  -19.8998 H   0  0  0  0  0  0  0  0  0  0  0  0
    6.4071    8.8634  -24.3083 H   0  0  0  0  0  0  0  0  0  0  0  0
    7.0887   -1.8445  -22.2351 H   0  0  0  0  0  0  0  0  0  0  0  0
    6.0051    5.6442  -20.5291 H   0  0  0  0  0  0  0  0  0  0  0  0
    7.4867    5.4267  -21.5213 H   0  0  0  0  0  0  0  0  0  0  0  0
    5.9411    2.9365  -23.3715 H   0  0  0  0  0  0  0  0  0  0  0  0
    4.2380    3.3579  -22.9862 H   0  0  0  0  0  0  0  0  0  0  0  0
    7.5787    3.1298  -21.1330 H   0  0  0  0  0  0  0  0  0  0  0  0
    4.6065    3.2932  -16.5396 H   0  0  0  0  0  0  0  0  0  0  0  0
    6.2867    2.6592  -16.5748 H   0  0  0  0  0  0  0  0  0  0  0  0
    5.9932    4.4300  -16.6440 H   0  0  0  0  0  0  0  0  0  0  0  0
    4.2069    3.9066  -28.1658 H   0  0  0  0  0  0  0  0  0  0  0  0
    5.4159    3.5739  -26.8798 H   0  0  0  0  0  0  0  0  0  0  0  0
    3.7094    3.9221  -26.4400 H   0  0  0  0  0  0  0  0  0  0  0  0
    3.3516    3.2229  -20.9149 H   0  0  0  0  0  0  0  0  0  0  0  0
    3.2080    3.6406  -17.4400 H   0  0  0  0  0  0  0  0  0  0  0  0
    2.3173    3.4450  -18.9126 H   0  0  0  0  0  0  0  0  0  0  0  0
  1  9  1  0  0  0  0
  1 24  3  0  0  0  0
  2  3  1  0  0  0  0
  2  4  2  0  0  0  0
  3  9  2  0  0  0  0
  4 10  1  0  0  0  0
  5  9  1  0  0  0  0
  5 10  2  0  0  0  0
  6 11  1  0  0  0  0
  6 13  2  0  0  0  0
  7 12  1  0  0  0  0
  7 25  2  0  0  0  0
  8 11  2  0  0  0  0
  8 34  1  0  0  0  0
 10 11  1  0  0  0  0
 12 14  2  0  0  0  0
 12 33  1  0  0  0  0
 13 21  1  0  0  0  0
 13 34  1  0  0  0  0
 14 26  1  0  0  0  0
 14 32  1  0  0  0  0
 15 25  1  0  0  0  0
 15 26  2  0  0  0  0
 15 28  1  0  0  0  0
 16 20  1  0  0  0  0
 16 29  1  0  0  0  0
 16 31  2  0  0  0  0
 17 27  1  0  0  0  0
 17 29  1  0  0  0  0
 17 30  2  0  0  0  0
 18 20  1  0  0  0  0
 18 28  1  0  0  0  0
 19 21  1  0  0  0  0
 19 28  1  0  0  0  0
 20 21  1  0  0  0  0
 21 27  1  0  0  0  0
 22 29  1  0  0  0  0
 23 32  1  0  0  0  0
  2 35  1  0  0  0  0
  3 36  1  0  0  0  0
  4 37  1  0  0  0  0
  5 38  1  0  0  0  0
  6 39  1  0  0  0  0
  7 40  1  0  0  0  0
  8 41  1  0  0  0  0
 18 42  1  0  0  0  0
 18 43  1  0  0  0  0
 19 44  1  0  0  0  0
 19 45  1  0  0  0  0
 20 46  1  0  0  0  0
 22 47  1  0  0  0  0
 22 48  1  0  0  0  0
 22 49  1  0  0  0  0
 23 50  1  0  0  0  0
 23 51  1  0  0  0  0
 23 52  1  0  0  0  0
 27 53  1  0  0  0  0
 30 54  1  0  0  0  0
 30 55  1  0  0  0  0
M  CHG  1  30   1
M  END
> <OMEGA_C>
IFo4QEf0RMBMtIrB3nKxQMGdkMCdUZzBj6+RQL1PjcBKY5TB5UG8QFyLWcABjqLBzu2GQJuOBMCf
BZnBXVijQMQixT4U7KTB4qbCQKbl+kCSccPBHurSQPqKdb8Z8a7BgLp4QJtETMDlw5LBp0ynQMVP
CsDj56DBDE20QAHCdr+EAqfBjK+0QLJg7EAog83BysK2QDtZrD9CCKvBJ92nQIBywUBVoM7BMpy1
QDgvt0AeZbzB6l/XQDasYkDmf5nBMf2JQNQCVUBVrpjBHi7QQIv6n0CPIarBnwKpQD/+W0A1LrXB
mTXVQD/4ZECawqXBoCmuQHIwNUDfLqrBQK2zQKBtXEAlnofBlbSQQAYUhUD4I9nBZc8DQDSYPsC3
IYTBtxbDQM/730BVBbvBbIaoQGXQp0Bx+cXBD6OHQEEvSUAzrqPBvGC1QKg0m0Dd37PBAOWxQAQk
WEDacZPByTdMQNzxXkB+a5PB97v5QJNAckA8L5XBqpeaQApsskCChtjB176zQEipA0Ew9dXB7q/c
QBHNIz/Pm7PBn4/BQJK+rsCnnp3BmKeJQODJqMAYjI/Ba6vUQMfxXsASoqjBY4ZsQFGVkb9nzpfB
2FSKQBnsFz+8Mp/B3wbNQK3QDUFOd8LBUNbiQGoY7L+G4bHBKCrAQF+dtECDO6TBtZLvQFKnrUCL
K6zBux2+QBbwO0Dg+LrBx52HQBXoVkC147fBsYTyQFFPSEB3EKnBS2iTQEzDUkAFUYTB6SzJQJ4w
KkApmYTBfsi/QLTCjUDbJoXBpJ6GQLIFekCnU+HBxE6tQDi6ZEDGCdfBCWdtQHkDe0AKhdPBYIFW
QPVDTkDKUafBTlBNQDz/aEA3hYvBcE4UQAt7XED0TJfBX+s5QDgaRsCiWovBJxiuQPhckMDPPp7B
KV6PQJyhjcC4DpbB14G5QFxbV8BsEqTBOQmHQH25AsD0j5nB2OujQCBC4D411aTBVWqmQD3ZvECa
487BfevSQE5IYL/oRa/B/5R3QLQ+TMDqvZPBiEemQLCWB8DRuqHBwi20QP4hZ78JYKfBLty1QEDm
5kBLVs7B4Vy4QG9FtT8afarBDIDFQA0q9kAOgMTBcSu1QOz5tEBLqLzB9wrXQCr0akDW9ZjB1pyJ
QBYEW0DqN5jBRiXPQIswokC59KnBgp+oQDi0XEDZmbTBsDzVQKrYakDgPqXBYM2uQHC6OECVjKnB
oquyQK78ZUBWFofBI/G1QKxDHEHCqrzBudIHQP7FQMBReoTBnhemQMufpEAZBMbBvDjFQFvH3ECR
07vB0OqHQHg8S0A5IqPBSrO0QBNSm0D9vrPB6BWxQAaXZkBT85LB5HdKQCo/X0CrDZPBtN35QJ5I
dUBRoZTBWsPRQGkAEEEfh8PBIu6zQJRhAEFB+dbBc2TeQB66PD8wNLPByvC8QDy4rsBhDqDB9ciG
QPrTqcDAi5HBBxHRQGzcW8BCXqrBeJVvQPSijL9mzJfB+qmKQKD1ID/lIp/BVuKaQPwMsEAVYdbB
OvThQPm/4L+JlrLB71u+QJ0Wt0CZQKTB/DXuQIV8sECeCqzBAE69QDRvO0CcYbrBYgOHQBCaVkAy
GrfB2uryQFbCTkCuaqjBEPKRQEBaYkCx4IPBAiHFQDQuLkAJWoTBtB/CQLp9kEBGPITBv3zBQOXd
LEGZOLzBmkOVQGoUHEHR77/BP9a1QB8zFUFsm7TBtP5WQElfTEDQzqbBNglKQKzrakATMIvB+VET
QArOVkAs+ZbB

> <OMEGA_E>
gOkcPMhfgD4=

> <OMEGA_NBR>
     14904

$$$$
50220705
  -OEChem-04172616093D

 55 59  0     1  0  0  0  0  0999 V2000
    2.9390   -2.9992  -17.3125 C   0  0  0  0  0  0  0  0  0  0  0  0
    5.0366    6.8830  -27.0719 C   0  0  0  0  0  0  0  0  0  0  0  0
    5.9141   -3.3678  -20.3239 C   0  0  0  0  0  0  0  0  0  0  0  0
    5.3896    6.9363  -25.7140 C   0  0  0  0  0  0  0  0  0  0  0  0
    4.6105    5.6734  -27.6466 C   0  0  0  0  0  0  0  0  0  0  0  0
    5.6209   -4.4636  -19.4957 C   0  0  0  0  0  0  0  0  0  0  0  0
    4.2223   -2.0435  -19.1644 C   0  0  0  0  0  0  0  0  0  0  0  0
    5.0756    0.3902  -20.7021 C   0  0  0  0  0  0  0  0  0  0  0  0
    4.8836    4.5644  -25.5043 C   0  0  0  0  0  0  0  0  0  0  0  0
    6.5438   -0.9658  -21.9633 C   0  0  0  0  0  0  0  0  0  0  0  0
    3.9340   -3.1386  -18.3319 C   0  0  0  0  0  0  0  0  0  0  0  0
    5.2275   -2.1425  -20.1557 C   0  0  0  0  0  0  0  0  0  0  0  0
    5.6053   -0.9601  -20.9549 C   0  0  0  0  0  0  0  0  0  0  0  0
    5.3243    5.7774  -24.9001 C   0  0  0  0  0  0  0  0  0  0  0  0
    4.5346    4.5147  -26.8601 C   0  0  0  0  0  0  0  0  0  0  0  0
    4.6403   -4.3505  -18.4935 C   0  0  0  0  0  0  0  0  0  0  0  0
    5.6764    1.3486  -21.4755 C   0  0  0  0  0  0  0  0  0  0  0  0
    6.7283    3.5087  -19.2541 C   0  0  0  0  0  0  0  0  0  0  0  0
    4.3002    3.3501  -19.2127 C   0  0  0  0  0  0  0  0  0  0  0  0
    5.7622    5.8993  -23.4724 C   0  0  0  0  0  0  0  0  0  0  0  0
    6.5400    4.9607  -21.2822 C   0  0  0  0  0  0  0  0  0  0  0  0
    5.2911    3.4916  -22.6936 C   0  0  0  0  0  0  0  0  0  0  0  0
    6.6766    3.5394  -20.7715 C   0  0  2  0  0  0  0  0  0  0  0  0
    5.4407    2.8411  -21.3321 C   0  0  2  0  0  0  0  0  0  0  0  0
    5.5513    3.5596  -17.0584 C   0  0  0  0  0  0  0  0  0  0  0  0
    2.1302   -2.8806  -16.4813 N   0  0  0  0  0  0  0  0  0  0  0  0
    5.5346    3.4032  -18.5283 N   0  0  0  0  0  0  0  0  0  0  0  0
    5.8394    4.8465  -22.5643 N   0  0  0  0  0  0  0  0  0  0  0  0
    4.2359    3.1450  -20.5084 N   0  3  0  0  0  0  0  0  0  0  0  0
    3.1027    3.5219  -18.5320 N   0  0  0  0  0  0  0  0  0  0  0  0
    7.7843    3.8046  -18.7062 O   0  0  0  0  0  0  0  0  0  0  0  0
    6.1632    6.9903  -23.0774 O   0  0  0  0  0  0  0  0  0  0  0  0
    4.1246    3.3453  -27.4036 F   0  0  0  0  0  0  0  0  0  0  0  0
    4.3907   -5.4091  -17.6887 F   0  0  0  0  0  0  0  0  0  0  0  0
    6.8390    0.6290  -22.5665 S   0  0  0  0  0  0  0  0  0  0  0  0
    5.0927    7.7755  -27.6774 H   0  0  0  0  0  0  0  0  0  0  0  0
    6.6671   -3.4611  -21.0925 H   0  0  0  0  0  0  0  0  0  0  0  0
    5.7150    7.8721  -25.2841 H   0  0  0  0  0  0  0  0  0  0  0  0
    4.3421    5.6361  -28.6920 H   0  0  0  0  0  0  0  0  0  0  0  0
    6.1497   -5.3958  -19.6287 H   0  0  0  0  0  0  0  0  0  0  0  0
    3.6735   -1.1208  -19.0468 H   0  0  0  0  0  0  0  0  0  0  0  0
    4.2970    0.6025  -19.9843 H   0  0  0  0  0  0  0  0  0  0  0  0
    4.8174    3.6675  -24.9063 H   0  0  0  0  0  0  0  0  0  0  0  0
    7.0343   -1.8548  -22.3315 H   0  0  0  0  0  0  0  0  0  0  0  0
    5.9550    5.5688  -20.5766 H   0  0  0  0  0  0  0  0  0  0  0  0
    7.5313    5.4158  -21.4242 H   0  0  0  0  0  0  0  0  0  0  0  0
    5.8522    2.9242  -23.4507 H   0  0  0  0  0  0  0  0  0  0  0  0
    4.2300    3.5358  -22.9803 H   0  0  0  0  0  0  0  0  0  0  0  0
    7.5850    3.0780  -21.1862 H   0  0  0  0  0  0  0  0  0  0  0  0
    4.5302    3.4455  -16.6654 H   0  0  0  0  0  0  0  0  0  0  0  0
    6.2024    2.7916  -16.6154 H   0  0  0  0  0  0  0  0  0  0  0  0
    5.9339    4.5580  -16.8003 H   0  0  0  0  0  0  0  0  0  0  0  0
    3.3449    3.1945  -20.9595 H   0  0  0  0  0  0  0  0  0  0  0  0
    2.2356    3.4871  -19.0289 H   0  0  0  0  0  0  0  0  0  0  0  0
    3.1071    3.6805  -17.5446 H   0  0  0  0  0  0  0  0  0  0  0  0
  1 11  1  0  0  0  0
  1 26  3  0  0  0  0
  2  4  2  0  0  0  0
  2  5  1  0  0  0  0
  3  6  2  0  0  0  0
  3 12  1  0  0  0  0
  4 14  1  0  0  0  0
  5 15  2  0  0  0  0
  6 16  1  0  0  0  0
  7 11  1  0  0  0  0
  7 12  2  0  0  0  0
  8 13  1  0  0  0  0
  8 17  2  0  0  0  0
  9 14  2  0  0  0  0
  9 15  1  0  0  0  0
 10 13  2  0  0  0  0
 10 35  1  0  0  0  0
 11 16  2  0  0  0  0
 12 13  1  0  0  0  0
 14 20  1  0  0  0  0
 15 33  1  0  0  0  0
 16 34  1  0  0  0  0
 17 24  1  0  0  0  0
 17 35  1  0  0  0  0
 18 23  1  0  0  0  0
 18 27  1  0  0  0  0
 18 31  2  0  0  0  0
 19 27  1  0  0  0  0
 19 29  2  0  0  0  0
 19 30  1  0  0  0  0
 20 28  1  0  0  0  0
 20 32  2  0  0  0  0
 21 23  1  0  0  0  0
 21 28  1  0  0  0  0
 22 24  1  0  0  0  0
 22 28  1  0  0  0  0
 23 24  1  0  0  0  0
 24 29  1  0  0  0  0
 25 27  1  0  0  0  0
  2 36  1  0  0  0  0
  3 37  1  0  0  0  0
  4 38  1  0  0  0  0
  5 39  1  0  0  0  0
  6 40  1  0  0  0  0
  7 41  1  0  0  0  0
  8 42  1  0  0  0  0
  9 43  1  0  0  0  0
 10 44  1  0  0  0  0
 21 45  1  0  0  0  0
 21 46  1  0  0  0  0
 22 47  1  0  0  0  0
 22 48  1  0  0  0  0
 23 49  1  0  0  0  0
 25 50  1  0  0  0  0
 25 51  1  0  0  0  0
 25 52  1  0  0  0  0
 29 53  1  0  0  0  0
 30 54  1  0  0  0  0
 30 55  1  0  0  0  0
M  CHG  1  29   1
M  END
> <OMEGA_C>
BRk8QEzzP8D8f4rBhCuhQDtB3EA5k9jBTUC9QLeKV8BXl6LBU3esQPD13UA5ts3BmYmTQFSMtUA5
LN3BAd6zQC3WjsAs95vBch2HQOvHAsCiUJnB6mqiQOnKxz77naXBPEacQOgPkkDDCMzBKWfRQHJB
d7/ntK/B4MV7QDbfSMCip5LBUkenQPEdCcDnPqHBYl6zQMrIdb+ro6fBs2CqQLPguEBiM8fBRhuR
QMx4kECC4dbBFX2UQCA3i8Cv8pPBYqW1QKqerD+6zavBXE7XQJWOYEBvCJrBe5uJQN9nVkCes5nB
tmO4QHbHvEBwx7vBgEfRQL29nkDxQarBp1CpQCp3X0CDjLXB5qbVQHyFYkAJLKbB2xmuQGHUNUAt
qKrB8KOxQMnPY0CCd4jB+1UIQF9cOMCs2YPBlRuxQBfOWUAKOpTBldy6QL0Wm0C3g7TB2YyHQA5H
SUAoEaTB4JJGQA5nYUB1QZTBRhn5QFJ/c0BfppXB7DjFQC2w30CInrjBgfyDQO0ZVkB9OtvBmICM
QC8XrcB7go3BSNnaQOIEIT89iLTBPfeiQNbQ+EBOa93BqFjVQBuDXcBpvajB8eC2QOHn+0DBRcrB
xPKKQCZbtEBOieXBv8rEQK2qrMCLB53BGRtrQMJ0j7/XX5jBS4GJQFA+Gj/r35/BUCiaQJG4akAo
QMfBrBjhQK1r7b/wprLBSo++QMszskDJnKTBTADxQBtOrUDPZKvB4ES7QCQmO0ASm7vBYVyHQJBK
YkCh17fBebjyQFD+REBHfanBdPeQQKyCXECwUoXBOXrGQCipMkBe7ITBmuK9QHfbkUDvZobBSRJW
QOtyTEAWrafBghQPQBEsX0AuO5jBUdtGQAyOa0BpW4zBMMk1QLhzRMBLxIvBNPbOQDzrDEFeqsnB
dwy7QJb2WMC3pqPBxVHFQFYX7kAb5cjBw1zPQM3AGUHfaMDBtYmvQHCskMDXrp3BugCHQHq6A8A1
tJnBoN2kQOZ7yj4v6aTBWCq6QNhC9kBFsLXBTbbVQBUpa78S0K7BPeJ2QLE2TMANwZPBjzynQLBc
CcCFnKHBc7S1QIoAcb9KPKfBG7O7QGjV20Cu177B9cjEQHzSEEH9a7bBuhCQQMGOjcAZrpXBe1O6
QBY9rz/EU6rBLjnZQPBmbUD0pZnBtA6MQJCaW0AXxpjBBM+wQINTrkB0O77Bfd7OQLD2n0CVNavB
UP+nQF1OVEDw1LTB9tXWQFYTaUDG9qXBlymwQAEzNUAloanBfAe1QP4/bUB6wYfB/XYAQJtzPcCu
TYXB9cWzQATnY0AWi5PBrBS0QCzClkA32LTBIbKJQN3KSECI+6LBPb5LQEwPZ0D4RJPBh6P7QLKt
fUBRZpXBTwWjQC+LnEBySsbBvq3DQL4jHUEBiq3BRhGGQC6lsMCT34/BXsbhQOH2MD9tp7LBcxTW
QLbpE0H3XNHBFRzTQEsRXsAJ0qnBAUHFQAdg2kCz/c/BV8zXQNR4KkEY+sDB1t++QCAEr8AKPJ/B
l3JuQPy2jr+nPZjBBoWKQNoeFj8miJ/B8LywQM3m6ECkE67By0blQPBZ5r/I8rHBTrm9QMVYtUAB
sKXBQFbtQLzXrkCYkq3BCY67QAAxMED9lrrBmvOFQGpETUDp4rbBhmb0QKaUTEBPJanBML2UQEyS
Y0DHd4TBjvDKQEVQPUAqXITBhFrAQAjolkD3roXBcchZQL6ER0C7dqbB7eUTQGPmYEDBGZfBQZtM
QIx3dUC6eYvBdEU2QHPgQsAbh4vB9azSQNMiEUF90cPBope7QBZxWcAxVKPBqEC8QEBS+0A9qMPB
DK78QCk3EkH6uL/BnrCvQALDkMBwVJ3BabiHQHMyA8CDeJnB32elQGcryD5R96TBX636QNRQ2EDY
0bvBGOHWQJJnbL9on67BF2p3QPNjS8A+gZPBTgyoQAFwCcDIXKHB/ay2QBQ+cr9zF6fBQ73PQM/A
1kCaP7/B/G4IQcA3/0AP1rvBqQKQQKxYjcA+YZXBeWi6QGoJrz89gKrBU4XYQBrMakCJp5nBYX6L
QF/kWEAz15jBnMq3QDwDr0A0f77BbS7LQNDFoEAUnarBttSmQBzjVkBLB7XBUXDVQHIyakBA56XB
qXyvQFc0NUBW0qnBz5O0QOSdaEATyIfBRA4BQJ5FO8B6D4XB8TSzQGSDYECwkpPBJ2y5QHgFlkCD
V7XBtw+JQPKuRkDcE6PBzbZKQICWZEAVWJPBOCr7QHSFeUCDbZXBAMOjQFByokBcVcbB4tgcQVBE
AEGYRLjBGXaFQH5UsMD7lY/B8EniQAb/MD+Qr7LBmL/DQFpKH0FlFMfBX8HTQAwjX8AKd6nBQkSc
QPFy+UBA5cbBMbQGQUZVIUF+kL/B4uW+QKE3r8Ag0p7B6mhwQKUIjb8QCJjBRvuKQHgGFT+RnJ/B
Az0FQWl0u0AYLbnBWvjmQLzO5r+wnLHB5mmzQGTCsUBYtKXBVjroQMBxtEAzVqvB5gW2QLppLUA+
CrvBejCEQAb+WUByirbBWFXzQBdaUUDRW6nB0lSUQKx3XkAefYTBvZHKQHlpOEC3eoTBrdy/QPB/
lEBMnIXBBllYQIRtREDxgabBFN4SQKsPX0ChMJfBBplLQOuKckCPiYvBDcvLQKskssCtx5vBGLyS
QBzojEDtIdfBaN2EQDNN/L8PE5nBFXCcQCZaj0B3MMzBFjuVQBClsUDYh93BfNd2QCAIQ8ATPpLB
K+28QLfIUsDrmqHB39OiQP/c2D7vWqXBi+GqQLCC20BdA87BhLzQQDyDdr8zcK/Bam6zQOG9i8A3
zJrByy6mQNtEBcAUuaDBt/WyQELgbb91TafBRiSpQJzYtkB0ZcfBSDGhQC/q2EBT7tjBHOeSQODJ
h8AIBpPBERu2QPBkrj98sKvB0TPYQKYZYUBzJ5rB+pKKQCydVUAan5nBEbS2QC4cvEBU9rvBIHbQ
QN11n0DKWKrBpVupQILOXkBsjLXBHvfVQFD4Y0ArTKbBx4WuQL5uNkAnpqrB1ESzQEqhX0BndYjB
NwbgQCRE0cAiqJzBKU6yQMp/WEBuP5TBZ9q4QChcm0DmdrTB8ymIQNg6SkAUA6TB2OhIQIgkX0BL
DZTBTjX6QDJoc0BZ1ZXBB/bDQIU230AkDbnBALOjQC2K/ED6/t7BCiiKQMRtqMD3QYzBRr/aQPar
Hj/YcLTBc1iJQFtwXUCQn9rBN1llQLsfh79Ef5jBpUOaQAfRZUDeT8fBbv2NQMTLr0Bb9+XBuEpE
QB0zPcAmZYzB2sjVQPFNWcBPjafBH1mKQB++Jz91i5/Bq9CzQJ33+UBEmMrBzubfQC6S7r8qU7LB
txy+QFCoskAakqTBt9DvQAd/rkC+tqvBfXK8QIr5O0AthrvBHoGHQJl8XkBw9bfBRBDzQCSER0Au
vqnB372SQEgpV0ATRIXBImPIQI3kLUC3J4XBEmi/QOOSj0D9LYbBAElXQMcAT0AQl6fBhBsRQLk0
XUA59pfBcsZJQBvyZ0DzIIzB

> <OMEGA_E>
8B3LPtyLBz9gJQ0/Ph0UPw==

> <OMEGA_NBR>
     18856

$$$$
50220715
  -OEChem-04172616093D

 52 56  0     1  0  0  0  0  0999 V2000
    2.8390   -3.0908  -17.4196 C   0  0  0  0  0  0  0  0  0  0  0  0
    5.5355   -4.5168  -19.5940 C   0  0  0  0  0  0  0  0  0  0  0  0
    4.5213   -4.4236  -18.6234 C   0  0  0  0  0  0  0  0  0  0  0  0
    5.8953   -3.3870  -20.3491 C   0  0  0  0  0  0  0  0  0  0  0  0
    5.1644    6.0188  -25.9561 C   0  0  0  0  0  0  0  0  0  0  0  0
    5.1393    5.1892  -24.8345 C   0  0  0  0  0  0  0  0  0  0  0  0
    4.2124   -2.0681  -19.1701 C   0  0  0  0  0  0  0  0  0  0  0  0
    5.1619    0.4055  -20.5742 C   0  0  0  0  0  0  0  0  0  0  0  0
    6.0735    7.7712  -24.5362 C   0  0  0  0  0  0  0  0  0  0  0  0
    6.6385   -0.9265  -21.8513 C   0  0  0  0  0  0  0  0  0  0  0  0
    3.8585   -3.1986  -18.4142 C   0  0  0  0  0  0  0  0  0  0  0  0
    5.2442   -2.1488  -20.1352 C   0  0  0  0  0  0  0  0  0  0  0  0
    5.6766   -0.9418  -20.8651 C   0  0  0  0  0  0  0  0  0  0  0  0
    5.6371    7.3283  -25.8030 C   0  0  0  0  0  0  0  0  0  0  0  0
    5.7807    1.3765  -21.3134 C   0  0  0  0  0  0  0  0  0  0  0  0
    5.6042    5.6833  -23.5875 C   0  0  0  0  0  0  0  0  0  0  0  0
    6.7753    3.6141  -19.1743 C   0  0  0  0  0  0  0  0  0  0  0  0
    4.3571    3.3822  -19.0865 C   0  0  0  0  0  0  0  0  0  0  0  0
    6.4736    5.0479  -21.2725 C   0  0  0  0  0  0  0  0  0  0  0  0
    5.2684    3.4183  -22.5893 C   0  0  0  0  0  0  0  0  0  0  0  0
    6.6967    3.6401  -20.7037 C   0  0  2  0  0  0  0  0  0  0  0  0
    5.4856    2.8555  -21.2078 C   0  0  2  0  0  0  0  0  0  0  0  0
    5.6358    3.5453  -16.9462 C   0  0  0  0  0  0  0  0  0  0  0  0
    2.0093   -2.9949  -16.6064 N   0  0  0  0  0  0  0  0  0  0  0  0
    6.0560    6.9534  -23.4600 N   0  0  0  0  0  0  0  0  0  0  0  0
    5.6323    4.8395  -22.4890 N   0  0  2  0  0  0  0  0  0  0  0  0
    5.5989    3.4638  -18.4235 N   0  0  0  0  0  0  0  0  0  0  0  0
    4.2824    3.1479  -20.3759 N   0  3  0  0  0  0  0  0  0  0  0  0
    3.1659    3.5352  -18.3899 N   0  0  0  0  0  0  0  0  0  0  0  0
    7.8630    3.7876  -18.6361 O   0  0  0  0  0  0  0  0  0  0  0  0
    5.6710    8.1598  -26.8647 F   0  0  0  0  0  0  0  0  0  0  0  0
    6.9694    0.6822  -22.3919 S   0  0  0  0  0  0  0  0  0  0  0  0
    6.0386   -5.4581  -19.7592 H   0  0  0  0  0  0  0  0  0  0  0  0
    4.2512   -5.2909  -18.0392 H   0  0  0  0  0  0  0  0  0  0  0  0
    6.6719   -3.4642  -21.0956 H   0  0  0  0  0  0  0  0  0  0  0  0
    4.8280    5.6603  -26.9177 H   0  0  0  0  0  0  0  0  0  0  0  0
    4.7687    4.1779  -24.9146 H   0  0  0  0  0  0  0  0  0  0  0  0
    3.6945   -1.1333  -19.0137 H   0  0  0  0  0  0  0  0  0  0  0  0
    4.3810    0.6062  -19.8557 H   0  0  0  0  0  0  0  0  0  0  0  0
    6.4290    8.7849  -24.4242 H   0  0  0  0  0  0  0  0  0  0  0  0
    7.1253   -1.8094  -22.2386 H   0  0  0  0  0  0  0  0  0  0  0  0
    5.9489    5.6819  -20.5426 H   0  0  0  0  0  0  0  0  0  0  0  0
    7.4332    5.5141  -21.5403 H   0  0  0  0  0  0  0  0  0  0  0  0
    5.9118    2.9061  -23.3199 H   0  0  0  0  0  0  0  0  0  0  0  0
    4.2155    3.3100  -22.8886 H   0  0  0  0  0  0  0  0  0  0  0  0
    7.6172    3.2128  -21.1280 H   0  0  0  0  0  0  0  0  0  0  0  0
    4.6214    3.4031  -16.5452 H   0  0  0  0  0  0  0  0  0  0  0  0
    6.2989    2.7610  -16.5523 H   0  0  0  0  0  0  0  0  0  0  0  0
    6.0148    4.5324  -16.6429 H   0  0  0  0  0  0  0  0  0  0  0  0
    3.3852    3.1662  -20.8171 H   0  0  0  0  0  0  0  0  0  0  0  0
    2.2925    3.4658  -18.8718 H   0  0  0  0  0  0  0  0  0  0  0  0
    3.1814    3.7148  -17.4063 H   0  0  0  0  0  0  0  0  0  0  0  0
  1 11  1  0  0  0  0
  1 24  3  0  0  0  0
  2  3  1  0  0  0  0
  2  4  2  0  0  0  0
  3 11  2  0  0  0  0
  4 12  1  0  0  0  0
  5  6  2  0  0  0  0
  5 14  1  0  0  0  0
  6 16  1  0  0  0  0
  7 11  1  0  0  0  0
  7 12  2  0  0  0  0
  8 13  1  0  0  0  0
  8 15  2  0  0  0  0
  9 14  2  0  0  0  0
  9 25  1  0  0  0  0
 10 13  2  0  0  0  0
 10 32  1  0  0  0  0
 12 13  1  0  0  0  0
 14 31  1  0  0  0  0
 15 22  1  0  0  0  0
 15 32  1  0  0  0  0
 16 25  2  0  0  0  0
 16 26  1  0  0  0  0
 17 21  1  0  0  0  0
 17 27  1  0  0  0  0
 17 30  2  0  0  0  0
 18 27  1  0  0  0  0
 18 28  2  0  0  0  0
 18 29  1  0  0  0  0
 19 21  1  0  0  0  0
 19 26  1  0  0  0  0
 20 22  1  0  0  0  0
 20 26  1  0  0  0  0
 21 22  1  0  0  0  0
 22 28  1  0  0  0  0
 23 27  1  0  0  0  0
  2 33  1  0  0  0  0
  3 34  1  0  0  0  0
  4 35  1  0  0  0  0
  5 36  1  0  0  0  0
  6 37  1  0  0  0  0
  7 38  1  0  0  0  0
  8 39  1  0  0  0  0
  9 40  1  0  0  0  0
 10 41  1  0  0  0  0
 19 42  1  0  0  0  0
 19 43  1  0  0  0  0
 20 44  1  0  0  0  0
 20 45  1  0  0  0  0
 21 46  1  0  0  0  0
 23 47  1  0  0  0  0
 23 48  1  0  0  0  0
 23 49  1  0  0  0  0
 28 50  1  0  0  0  0
 29 51  1  0  0  0  0
 29 52  1  0  0  0  0
M  CHG  1  28   1
M  END
> <OMEGA_C>
vLI1QILPRcBCW4vBzSKxQK+JkMB1wJzBtq6QQH6OjcDB/JTBEqa8QE3EWMDmyqLBLEOlQN6ZwEAf
ps/BanWkQNsNpkAorcbB0MuGQL9bBMBNXJnBbi6lQBuezz79l6TBRlrCQO6t+EAnSsTB+W7UQCYx
bb+Gz67BYfF2QN61TMBHUJPBPtCnQLiFCcDXFKHBwaa1QFoccb+m66bBY2O0QKGB6kCRbM7BX/u4
QJAvsD/qgarB/FWzQOPdtUAns7zBMM/YQDtOZ0DoZJnBlW2LQC92WEAysZjBdyfPQDKIoUAALqrB
vpaoQP3EWkD1trTBjUvWQLP3aEAeoaXBVoqvQL6/NkCAqanBGli0QKvlYkDXkYfBhZgAQEGsP8D2
2YTBbcrBQKGC3kAirrvB0ju0QB3dmkCR6bPBYCqzQJOvXUA6Y5PBQgmJQMJ3SUDkAaPB2Z5KQBNB
YkCaHpPBnZ37QFFockC9FpXBG3m1QHyOAkHf6tbBGwXfQKihLj+mIrPBBjzBQJ+orsDnEp7B4wmI
QM1OqcAyUJDB/n/VQJO1XcDRw6jBFn+aQGEhtUCGV9fBQ5mYQKexhUABUcfBIXNsQCERkb8bHJjB
BzGMQNctGz9z2J7BWLrNQN6ODEGwZMPBrALkQEyb57+O6LHBU12+QEnStUA8V6TB1NztQKVzsEBw
UqzBVC29QLL9OUAwj7rBAuWGQFvXU0DxG7fBTsDzQKCeTUA0BqnBO+KTQLHLWUCdXITBfJDJQAS0
MEAga4TB43jAQAkJkUCVJIXBm6ZYQCGjSkCEiabBwbcSQP3PXUCC+ZbB25xLQM+/bUAoQIvBpWI1
QAtiRcA55ovBko+wQNr2j8CsgJ3B9kWQQAI7jcCDr5XBuRW8QGchV8DIcqPBg57AQPbP90D8EsbB
qrDCQIgp30BHurzBnmWGQMltA8B13ZnBSOqkQJjs3T5ltaTBZX2kQJCPuUC5Zc/B2u3UQJWQX7+T
7q7BbkV2QPUhTMAy5pPBRWKnQD/7B8DzlqHBGIy1QMkwaL87MqfBGFOxQBq25ECHgs/BUUS5QIhp
tT/BVarBwOa0QDA/tEChG73Bxh7ZQGnBa0AmMZnB9LqLQMl7W0DtWpjBuzDQQNo8okCZQ6rBrcKn
QPVJXEDFc7TBJZXWQE8wa0DLcaXBnZSvQEgMOUCvYKnBoBa1QNN/ZEBXRofBjYgAQOkAP8DfXYXB
7TOmQOxjokANU8bB1c21QAbhmkD1DLTBQGGzQCdjZkCUIZPBq0uJQHVQS0Cqo6LBMftKQLlYYUCJ
v5LBxBf8QN1IdkDV8pTB+NauQP6h+0BUotjBIwPgQCKmPj/O5LLBxoPAQI0UrsC5757BH7WHQKMi
qcBaD5HBrtLUQPugW8CYdKnBfZjKQEdzDEHgB8bBmqDOQFHJ7ECXXrXB+pRrQFB2j7+/jJjBqHGL
QPaPHj/GD5/BAR+ZQNPVqkDErdbBPKLkQIXd37+pHrLBREC/QDU4t0Ckm6TBByvvQFSqsEDgX6zB
GHi6QBN3OEBSabrBL4+FQFaOWEASe7bBVOPzQMBuTkDPvKjB2GeUQMw0YEAWDYTBcrTHQGqSLECV
pYTBB2/EQAypj0DzVITB3+5YQD0+S0CEHKbBUEsTQA5XWUDaj5bBTJVLQHSTbUBd5YrB

> <OMEGA_E>
+HJqPkBUfj4=

> <OMEGA_NBR>
     20908

$$$$
50220718
  -OEChem-04172616093D

 51 55  0     1  0  0  0  0  0999 V2000
    2.8511   -3.0642  -17.4411 C   0  0  0  0  0  0  0  0  0  0  0  0
    5.4469   -4.5324  -19.7095 C   0  0  0  0  0  0  0  0  0  0  0  0
    4.4587   -4.4278  -18.7134 C   0  0  0  0  0  0  0  0  0  0  0  0
    5.8263   -3.3989  -20.4492 C   0  0  0  0  0  0  0  0  0  0  0  0
    4.2209   -2.0517  -19.1968 C   0  0  0  0  0  0  0  0  0  0  0  0
    5.1527    0.4051  -20.6192 C   0  0  0  0  0  0  0  0  0  0  0  0
    6.0266    7.7489  -24.5356 C   0  0  0  0  0  0  0  0  0  0  0  0
    5.1931    5.8975  -25.8522 C   0  0  0  0  0  0  0  0  0  0  0  0
    6.6520   -0.9191  -21.8770 C   0  0  0  0  0  0  0  0  0  0  0  0
    3.8454   -3.1858  -18.4592 C   0  0  0  0  0  0  0  0  0  0  0  0
    5.2214   -2.1460  -20.1931 C   0  0  0  0  0  0  0  0  0  0  0  0
    5.6710   -0.9391  -20.9096 C   0  0  0  0  0  0  0  0  0  0  0  0
    5.5981    7.2379  -25.7739 C   0  0  0  0  0  0  0  0  0  0  0  0
    5.8060    1.3817  -21.3169 C   0  0  0  0  0  0  0  0  0  0  0  0
    5.6436    5.6665  -23.5688 C   0  0  0  0  0  0  0  0  0  0  0  0
    6.7769    3.6226  -19.1393 C   0  0  0  0  0  0  0  0  0  0  0  0
    4.3609    3.3771  -19.0823 C   0  0  0  0  0  0  0  0  0  0  0  0
    6.5144    5.0459  -21.2512 C   0  0  0  0  0  0  0  0  0  0  0  0
    5.3079    3.4229  -22.5773 C   0  0  0  0  0  0  0  0  0  0  0  0
    6.7205    3.6392  -20.6721 C   0  0  2  0  0  0  0  0  0  0  0  0
    5.5128    2.8574  -21.1952 C   0  0  2  0  0  0  0  0  0  0  0  0
    5.6138    3.5410  -16.9254 C   0  0  0  0  0  0  0  0  0  0  0  0
    2.0403   -2.9548  -16.6108 N   0  0  0  0  0  0  0  0  0  0  0  0
    6.0500    6.9519  -23.4499 N   0  0  0  0  0  0  0  0  0  0  0  0
    5.2153    5.1361  -24.7468 N   0  0  0  0  0  0  0  0  0  0  0  0
    5.6736    4.8382  -22.4667 N   0  0  2  0  0  0  0  0  0  0  0  0
    5.5940    3.4562  -18.4034 N   0  0  0  0  0  0  0  0  0  0  0  0
    4.3009    3.1452  -20.3732 N   0  3  0  0  0  0  0  0  0  0  0  0
    3.1621    3.5452  -18.4024 N   0  0  0  0  0  0  0  0  0  0  0  0
    7.8471    3.8482  -18.5855 O   0  0  0  0  0  0  0  0  0  0  0  0
    7.0150    0.6953  -22.3784 S   0  0  0  0  0  0  0  0  0  0  0  0
    5.5701    8.2500  -27.1867 Cl  0  0  0  0  0  0  0  0  0  0  0  0
    5.9149   -5.4856  -19.9063 H   0  0  0  0  0  0  0  0  0  0  0  0
    4.1707   -5.2992  -18.1441 H   0  0  0  0  0  0  0  0  0  0  0  0
    6.5822   -3.4848  -21.2157 H   0  0  0  0  0  0  0  0  0  0  0  0
    3.7437   -1.1025  -19.0029 H   0  0  0  0  0  0  0  0  0  0  0  0
    4.3442    0.5997  -19.9300 H   0  0  0  0  0  0  0  0  0  0  0  0
    6.3368    8.7802  -24.4552 H   0  0  0  0  0  0  0  0  0  0  0  0
    4.8662    5.4815  -26.7937 H   0  0  0  0  0  0  0  0  0  0  0  0
    7.1337   -1.8011  -22.2725 H   0  0  0  0  0  0  0  0  0  0  0  0
    5.9957    5.6910  -20.5268 H   0  0  0  0  0  0  0  0  0  0  0  0
    7.4797    5.4993  -21.5205 H   0  0  0  0  0  0  0  0  0  0  0  0
    5.9563    2.9118  -23.3042 H   0  0  0  0  0  0  0  0  0  0  0  0
    4.2573    3.3182  -22.8859 H   0  0  0  0  0  0  0  0  0  0  0  0
    7.6456    3.2054  -21.0794 H   0  0  0  0  0  0  0  0  0  0  0  0
    4.5973    3.3847  -16.5350 H   0  0  0  0  0  0  0  0  0  0  0  0
    6.2840    2.7673  -16.5229 H   0  0  0  0  0  0  0  0  0  0  0  0
    5.9750    4.5341  -16.6201 H   0  0  0  0  0  0  0  0  0  0  0  0
    3.4081    3.1621  -20.8233 H   0  0  0  0  0  0  0  0  0  0  0  0
    2.2946    3.4878  -18.8967 H   0  0  0  0  0  0  0  0  0  0  0  0
    3.1660    3.7235  -17.4185 H   0  0  0  0  0  0  0  0  0  0  0  0
  1 10  1  0  0  0  0
  1 23  3  0  0  0  0
  2  3  1  0  0  0  0
  2  4  2  0  0  0  0
  3 10  2  0  0  0  0
  4 11  1  0  0  0  0
  5 10  1  0  0  0  0
  5 11  2  0  0  0  0
  6 12  1  0  0  0  0
  6 14  2  0  0  0  0
  7 13  1  0  0  0  0
  7 24  2  0  0  0  0
  8 13  2  0  0  0  0
  8 25  1  0  0  0  0
  9 12  2  0  0  0  0
  9 31  1  0  0  0  0
 11 12  1  0  0  0  0
 13 32  1  0  0  0  0
 14 21  1  0  0  0  0
 14 31  1  0  0  0  0
 15 24  1  0  0  0  0
 15 25  2  0  0  0  0
 15 26  1  0  0  0  0
 16 20  1  0  0  0  0
 16 27  1  0  0  0  0
 16 30  2  0  0  0  0
 17 27  1  0  0  0  0
 17 28  2  0  0  0  0
 17 29  1  0  0  0  0
 18 20  1  0  0  0  0
 18 26  1  0  0  0  0
 19 21  1  0  0  0  0
 19 26  1  0  0  0  0
 20 21  1  0  0  0  0
 21 28  1  0  0  0  0
 22 27  1  0  0  0  0
  2 33  1  0  0  0  0
  3 34  1  0  0  0  0
  4 35  1  0  0  0  0
  5 36  1  0  0  0  0
  6 37  1  0  0  0  0
  7 38  1  0  0  0  0
  8 39  1  0  0  0  0
  9 40  1  0  0  0  0
 18 41  1  0  0  0  0
 18 42  1  0  0  0  0
 19 43  1  0  0  0  0
 19 44  1  0  0  0  0
 20 45  1  0  0  0  0
 22 46  1  0  0  0  0
 22 47  1  0  0  0  0
 22 48  1  0  0  0  0
 28 49  1  0  0  0  0
 29 50  1  0  0  0  0
 29 51  1  0  0  0  0
M  CHG  1  28   1
M  END
> <OMEGA_C>
4Xg2QFocRMBlh4vB40yuQAcJkcAjrZ3BZ62OQDOwjcD6tJXBHnG6QMmGWcD4l6PB5BGHQB9PA8AU
k5nBteKkQFJuzz4Z9KTByNnAQLH290DiSMTB3y2mQK+4vEBh0c7BW93UQBBKa78tBK/BNxp2QGTk
S8BirJPBEBanQKlXCcBfi6HBN3m1QARpcL/dRqfBtCOzQIGc50D0MM7Basq5QBzcsD8ViarBgJi0
QOlTtUAAjbzBSNzYQAbZZ0BcHZnBMIyLQAYjWECXqJjB93XQQMN3oUBnAqrB/tmpQEwRW0BTnrTB
9g3XQArpaEBlYKXB6GiwQKzfNkDFj6nB+aOzQDSgYkBLZ4fBE5UCQMwaPcDq4oTB7ZnBQF123kBU
mbvBuOOmQONapEBl+cXBII61QKDSmkDMu7PBpAGzQLAyXUAlOpPB+qCJQG5LSUBM/KLBZV9KQMDj
YkApOJPB0xv7QOJIdkAvr5TBMnvgQLv8MT8EB7PB5D2yQDMABEFYftnBwUa9QPuJr8AOQJ/BvHaF
QG2TqcA4J5HByKHSQHYGX8DUuanBc5lvQGUdjb/YBZjB9AOLQKmIGT+vcJ/BFsfKQM17DEFIpMPB
kLebQEpor0CMWdbBQUfkQN6L5r8RLrLB0ty/QMgctkDYNqTB8FnvQA/6r0AWKqzBtJm+QOJaOkDs
brrBcjuIQO1cVEBqFrfBmqj0QFIlTUCpoqjBVB2TQHKfWEC2R4TB6hbJQH8bMUDNLoTBSjO/QKoX
kUD09YTBGh5aQCBgSkAflqbBgdsSQLs4X0BmLJfBjaBKQHdNbkABWYvBUp01QMFKRMBznIvBRqCv
QK+akMBWVZ3B7qaPQINbjcAjc5XBCW27QJHgWMDfVaPBa7qGQIJ2A8D6pJnBUOekQMh20T5T7KTB
jDulQFekvECA0c7BflnAQCjx90DFYMTBPCvVQM/wab/Q6a7BVU12QBjFS8CioZPBF02nQJgkCcDx
eaHBnZq1QE5ib78HOKfB7PixQCma50AcOs7BqOO5QNxwsT97fKrBI520QA9MtUBFmbzBZSLZQFkI
aEBWI5nBU9eLQIMCWEDlnpjBOXXQQB+ooUCEBqrBDeCpQLgqW0B5nLTBQy7XQDdOaUD4ZaXByYGw
QBUyN0B3jKnBBki0QO3RYECpZYfBc8kAQCmNPcCUFIXBHpKmQFBCpEC5+8XBr7XBQIxs3kDUsrvB
jay1QKjfmkAcxLPBOmWzQK2kXEBOOZPBW86JQA7XSUBy9aLBlhFLQClrYkBTJZPBkmv7QKF7dkAU
upTBtMbgQPVUMz8b7LLBOM2vQF4SBEGkfdnBniK/QNnxrsC9xp7BYdaGQHscqcDxy5DBxvHTQGox
XsBgY6nBpmBtQNBsjr/DSJjB0OmKQLtnGj+lcZ/BMHCaQLFJr0ADUdbBzUzKQJ95DEEKxsPBcrbk
QO7L5b8sDLLB07a/QAM5tkAvPaTBi07vQBBNsEARKazBLIm+QFs/OkBubbrBrDmIQEuIVECfDrfB
UMD0QCeeTUCxr6jBjdSTQO5kVkAtP4TBWNXJQNcGL0CfSYTBwNm/QPcSkEB13YTBh3daQMKbS0Da
jabBxngTQP0CX0DlFZfBnXxLQHlSbUBPQ4vB

> <OMEGA_E>
ONoXPtC7GD4=

> <OMEGA_NBR>
     22933

$$$$
50220719
  -OEChem-04172616093D

 51 55  0     1  0  0  0  0  0999 V2000
    2.8315   -3.0727  -17.4445 C   0  0  0  0  0  0  0  0  0  0  0  0
    5.4874   -4.5222  -19.6544 C   0  0  0  0  0  0  0  0  0  0  0  0
    4.4850   -4.4218  -18.6721 C   0  0  0  0  0  0  0  0  0  0  0  0
    5.8568   -3.3917  -20.4036 C   0  0  0  0  0  0  0  0  0  0  0  0
    4.2055   -2.0583  -19.1970 C   0  0  0  0  0  0  0  0  0  0  0  0
    5.1613    0.4085  -20.5972 C   0  0  0  0  0  0  0  0  0  0  0  0
    5.9851    7.7692  -24.5331 C   0  0  0  0  0  0  0  0  0  0  0  0
    5.1574    5.9190  -25.8550 C   0  0  0  0  0  0  0  0  0  0  0  0
    6.6510   -0.9210  -21.8616 C   0  0  0  0  0  0  0  0  0  0  0  0
    3.8423   -3.1889  -18.4468 C   0  0  0  0  0  0  0  0  0  0  0  0
    5.2268   -2.1460  -20.1722 C   0  0  0  0  0  0  0  0  0  0  0  0
    5.6741   -0.9383  -20.8901 C   0  0  0  0  0  0  0  0  0  0  0  0
    5.5417    7.2652  -25.7696 C   0  0  0  0  0  0  0  0  0  0  0  0
    5.8036    1.3817  -21.3113 C   0  0  0  0  0  0  0  0  0  0  0  0
    5.6585    5.6682  -23.5842 C   0  0  0  0  0  0  0  0  0  0  0  0
    6.7851    3.6192  -19.1453 C   0  0  0  0  0  0  0  0  0  0  0  0
    4.3697    3.3662  -19.0815 C   0  0  0  0  0  0  0  0  0  0  0  0
    6.5267    5.0430  -21.2587 C   0  0  0  0  0  0  0  0  0  0  0  0
    5.3070    3.4223  -22.5852 C   0  0  0  0  0  0  0  0  0  0  0  0
    6.7267    3.6369  -20.6783 C   0  0  2  0  0  0  0  0  0  0  0  0
    5.5141    2.8597  -21.1994 C   0  0  2  0  0  0  0  0  0  0  0  0
    5.6316    3.4916  -16.9284 C   0  0  0  0  0  0  0  0  0  0  0  0
    2.0073   -2.9683  -16.6268 N   0  0  0  0  0  0  0  0  0  0  0  0
    6.0436    6.9597  -23.4572 N   0  0  0  0  0  0  0  0  0  0  0  0
    5.2157    5.1447  -24.7595 N   0  0  0  0  0  0  0  0  0  0  0  0
    5.7188    4.8269  -22.4933 N   0  0  2  0  0  0  0  0  0  0  0  0
    5.6057    3.4363  -18.4072 N   0  0  0  0  0  0  0  0  0  0  0  0
    4.3057    3.1550  -20.3754 N   0  3  0  0  0  0  0  0  0  0  0  0
    3.1730    3.5190  -18.3939 N   0  0  0  0  0  0  0  0  0  0  0  0
    7.8546    3.8506  -18.5926 O   0  0  0  0  0  0  0  0  0  0  0  0
    5.4876    8.0614  -26.8572 F   0  0  0  0  0  0  0  0  0  0  0  0
    7.0070    0.6905  -22.3755 S   0  0  0  0  0  0  0  0  0  0  0  0
    5.9738   -5.4698  -19.8332 H   0  0  0  0  0  0  0  0  0  0  0  0
    4.2087   -5.2893  -18.0912 H   0  0  0  0  0  0  0  0  0  0  0  0
    6.6245   -3.4741  -21.1588 H   0  0  0  0  0  0  0  0  0  0  0  0
    3.7026   -1.1174  -19.0287 H   0  0  0  0  0  0  0  0  0  0  0  0
    4.3650    0.6070  -19.8952 H   0  0  0  0  0  0  0  0  0  0  0  0
    6.2787    8.8048  -24.4461 H   0  0  0  0  0  0  0  0  0  0  0  0
    4.8173    5.5085  -26.7943 H   0  0  0  0  0  0  0  0  0  0  0  0
    7.1340   -1.8041  -22.2532 H   0  0  0  0  0  0  0  0  0  0  0  0
    5.9853    5.6837  -20.5471 H   0  0  0  0  0  0  0  0  0  0  0  0
    7.4951    5.5037  -21.5036 H   0  0  0  0  0  0  0  0  0  0  0  0
    5.9281    2.8849  -23.3169 H   0  0  0  0  0  0  0  0  0  0  0  0
    4.2492    3.3484  -22.8778 H   0  0  0  0  0  0  0  0  0  0  0  0
    7.6490    3.1981  -21.0868 H   0  0  0  0  0  0  0  0  0  0  0  0
    4.6171    3.3260  -16.5369 H   0  0  0  0  0  0  0  0  0  0  0  0
    6.3047    2.7110  -16.5442 H   0  0  0  0  0  0  0  0  0  0  0  0
    5.9928    4.4789  -16.6048 H   0  0  0  0  0  0  0  0  0  0  0  0
    3.4136    3.1933  -20.8258 H   0  0  0  0  0  0  0  0  0  0  0  0
    2.3037    3.4667  -18.8854 H   0  0  0  0  0  0  0  0  0  0  0  0
    3.1805    3.6815  -17.4072 H   0  0  0  0  0  0  0  0  0  0  0  0
  1 10  1  0  0  0  0
  1 23  3  0  0  0  0
  2  3  1  0  0  0  0
  2  4  2  0  0  0  0
  3 10  2  0  0  0  0
  4 11  1  0  0  0  0
  5 10  1  0  0  0  0
  5 11  2  0  0  0  0
  6 12  1  0  0  0  0
  6 14  2  0  0  0  0
  7 13  1  0  0  0  0
  7 24  2  0  0  0  0
  8 13  2  0  0  0  0
  8 25  1  0  0  0  0
  9 12  2  0  0  0  0
  9 32  1  0  0  0  0
 11 12  1  0  0  0  0
 13 31  1  0  0  0  0
 14 21  1  0  0  0  0
 14 32  1  0  0  0  0
 15 24  1  0  0  0  0
 15 25  2  0  0  0  0
 15 26  1  0  0  0  0
 16 20  1  0  0  0  0
 16 27  1  0  0  0  0
 16 30  2  0  0  0  0
 17 27  1  0  0  0  0
 17 28  2  0  0  0  0
 17 29  1  0  0  0  0
 18 20  1  0  0  0  0
 18 26  1  0  0  0  0
 19 21  1  0  0  0  0
 19 26  1  0  0  0  0
 20 21  1  0  0  0  0
 21 28  1  0  0  0  0
 22 27  1  0  0  0  0
  2 33  1  0  0  0  0
  3 34  1  0  0  0  0
  4 35  1  0  0  0  0
  5 36  1  0  0  0  0
  6 37  1  0  0  0  0
  7 38  1  0  0  0  0
  8 39  1  0  0  0  0
  9 40  1  0  0  0  0
 18 41  1  0  0  0  0
 18 42  1  0  0  0  0
 19 43  1  0  0  0  0
 19 44  1  0  0  0  0
 20 45  1  0  0  0  0
 22 46  1  0  0  0  0
 22 47  1  0  0  0  0
 22 48  1  0  0  0  0
 28 49  1  0  0  0  0
 29 50  1  0  0  0  0
 29 51  1  0  0  0  0
M  CHG  1  28   1
M  END
> <OMEGA_C>
BDc1QE6mRMBSjovBc5ivQES2kMBHPJ3BUYWPQDJ/jcBdYJXB8mq7QPgQWcCqOqPBGZOGQCq7A8CC
k5nBoSmlQPkh0T4Jx6TBGIa/QOSc+EC7Q8TBfQmlQLtovUAO187B5dTUQLrGa7+S5K7BZuh1QCAW
TMAbk5PBNUKnQDRYCcDAYKHBapK1QHw1cL/mHqfB5lWxQN186EA2KM7B2La5QKDbsD96farBUxK1
QCJitUCArLzBjh/ZQOygZ0CrKZnBRtSLQBxwV0DSppjBu9rQQAZgoUDQEarBptKpQOUGW0CKrrTB
DEHXQALDaEBCbaXBcXOwQO8EN0BemKnBaTa0QDl2X0BgbYfBfHcAQHD4PcCuA4XB8GTBQBK23kA/
qLvBCOemQKehpECAE8bBLQC3QMp1mkAv8rPBimGzQCLtW0DbQZPB5MeJQNfqSUDPAKPBKBJLQB04
YUCoJpPB/Fj7QJJwdkCVvZTBiZqvQEv7AEGT29bBAzngQKzDMD8BAbPBRym/QIUIr8Beqp7Bw62G
QCpCqcC+upDBr/vTQFxYXsBBRanBjfdsQJYIj7+wOpjB2K2LQMlkGz9cKZ/B9OrIQKPgDEGbkcPB
kSeaQPBFsECxWtbBiEnkQNLr5r91BrLBy4e/QDXhtUCGYKTBqNfvQC0esEByB6zBZbO9QLqiOEAK
ibrBH/mHQNNMVkC5BbfBZMT0QPSsTEC0sajBU7+TQKjcVECNS4TBesDJQOGALUCSWoTBp8S/QIRT
j0Cb1oTBGXlaQLpfTEAym6bBvG8TQLPdXUBKFZfB4IxLQM6da0DsQYvBL9w0QHDWQ8DttYvBsA+w
QCRBkMDXMp3B8sKPQPEFjcAZZpXBJqO7QG14WMDgR6PBNSGGQPBjA8DW0ZnBoaSkQGic0T7PBaXB
V12mQKLmu0Bd5M7BHjrAQFDD90Duc8TBOU3VQO4nab8O6q7B7Yl1QJVqS8CrupPBzQanQKwFCcCQ
kaHBDWq1QC4Wb7+LTafBwwGzQAHm5kCSWs7B7/O5QBy2sT8NfKrBKEm0QCRPtUCWlLzB21XZQEQv
aECWJZnBsBSMQCVrV0DkjpjBHWvQQIDBoUCTB6rBHM2pQKc9W0A6lLTBFz7XQACAaUDfZ6XBVI2w
QAFNN0DFhqnBs8a0QKBTX0AfYIfBBT8AQDsaPcAwJ4XBa/mmQMrmo0D8/MXBdd7AQDeb3kBesrvB
P2C1QAH6mkB8urPBsbazQPYlXEBKNJPB1eiJQN3WSUAR6KLBHLdLQBIRYUDsBZPB3qD7QBYFd0B8
wpTBHGayQIqd/0CrMtfBtiLhQLWHND862bLB2/2/QOl3rsDkg57BLxKHQJatqMDQsZDB01rUQLfJ
XcBfSKnB5VxrQNDRjr+BlZjBkV6KQHwJGj/rn5/BfzicQAI1rkCZaNbBVtzJQIRvDEHW3sPBIfHk
QFFP5b8gCLLBpdW/QEVXtkD6N6TBMTjvQE5hsEA3N6zBKYe+QGePOkDNZrrBVCmIQGdHVED4BLfB
Esr0QADhTUA6t6jBUWKUQJGAVEBSNYTB6mzKQG5cLUBBWoTBFVLAQPQ9j0BRxYTBPp9aQPj+S0BU
fKbBFPkTQC6UXUD17ZbBjmdMQK+Aa0B0IYvB

> <OMEGA_E>
oKYVPsAoGT4=

> <OMEGA_NBR>
     24957

$$$$
50220716
  -OEChem-04172616093D

 53 57  0     1  0  0  0  0  0999 V2000
    2.8628   -3.0844  -17.3214 C   0  0  0  0  0  0  0  0  0  0  0  0
    4.8805    4.2202  -25.6327 C   0  0  0  0  0  0  0  0  0  0  0  0
    5.5400   -4.5366  -19.5008 C   0  0  0  0  0  0  0  0  0  0  0  0
    5.7217    7.8117  -25.5402 C   0  0  0  0  0  0  0  0  0  0  0  0
    4.5342   -4.4315  -18.5233 C   0  0  0  0  0  0  0  0  0  0  0  0
    5.2988    6.5522  -25.9727 C   0  0  0  0  0  0  0  0  0  0  0  0
    5.8896   -3.4172  -20.2763 C   0  0  0  0  0  0  0  0  0  0  0  0
    4.2135   -2.0842  -19.1044 C   0  0  0  0  0  0  0  0  0  0  0  0
    5.1149    0.3707  -20.5995 C   0  0  0  0  0  0  0  0  0  0  0  0
    6.1124    7.9813  -24.2039 C   0  0  0  0  0  0  0  0  0  0  0  0
    6.6463   -0.9752  -21.7952 C   0  0  0  0  0  0  0  0  0  0  0  0
    3.8702   -3.2047  -18.3270 C   0  0  0  0  0  0  0  0  0  0  0  0
    5.2754    5.4792  -25.0673 C   0  0  0  0  0  0  0  0  0  0  0  0
    5.2367   -2.1765  -20.0778 C   0  0  0  0  0  0  0  0  0  0  0  0
    5.6598   -0.9786  -20.8332 C   0  0  0  0  0  0  0  0  0  0  0  0
    5.7345    1.3293  -21.3588 C   0  0  0  0  0  0  0  0  0  0  0  0
    5.6875    5.7159  -23.7067 C   0  0  0  0  0  0  0  0  0  0  0  0
    6.7447    3.5861  -19.2599 C   0  0  0  0  0  0  0  0  0  0  0  0
    4.3316    3.3408  -19.1585 C   0  0  0  0  0  0  0  0  0  0  0  0
    6.4489    4.9747  -21.3803 C   0  0  0  0  0  0  0  0  0  0  0  0
    5.2245    3.3695  -22.7195 C   0  0  0  0  0  0  0  0  0  0  0  0
    6.6596    3.5844  -20.7946 C   0  0  2  0  0  0  0  0  0  0  0  0
    5.4398    2.8146  -21.3014 C   0  0  2  0  0  0  0  0  0  0  0  0
    5.6284    3.5064  -17.0213 C   0  0  0  0  0  0  0  0  0  0  0  0
    2.0438   -2.9786  -16.4986 N   0  0  0  0  0  0  0  0  0  0  0  0
    4.5571    3.2482  -26.1903 N   0  0  0  0  0  0  0  0  0  0  0  0
    6.0870    6.9577  -23.3272 N   0  0  0  0  0  0  0  0  0  0  0  0
    5.7670    4.7446  -22.6953 N   0  0  3  0  0  0  0  0  0  0  0  0
    5.5772    3.4232  -18.5006 N   0  0  0  0  0  0  0  0  0  0  0  0
    4.2471    3.1294  -20.4548 N   0  3  0  0  0  0  0  0  0  0  0  0
    3.1456    3.4835  -18.4498 N   0  0  0  0  0  0  0  0  0  0  0  0
    7.8239    3.8204  -18.7269 O   0  0  0  0  0  0  0  0  0  0  0  0
    6.9619    0.6211  -22.3808 S   0  0  0  0  0  0  0  0  0  0  0  0
    6.0447   -5.4787  -19.6559 H   0  0  0  0  0  0  0  0  0  0  0  0
    5.7473    8.6449  -26.2268 H   0  0  0  0  0  0  0  0  0  0  0  0
    4.2711   -5.2904  -17.9238 H   0  0  0  0  0  0  0  0  0  0  0  0
    4.9917    6.4048  -26.9975 H   0  0  0  0  0  0  0  0  0  0  0  0
    6.6605   -3.5042  -21.0277 H   0  0  0  0  0  0  0  0  0  0  0  0
    3.6939   -1.1489  -18.9579 H   0  0  0  0  0  0  0  0  0  0  0  0
    4.3145    0.5813  -19.9056 H   0  0  0  0  0  0  0  0  0  0  0  0
    6.4411    8.9543  -23.8697 H   0  0  0  0  0  0  0  0  0  0  0  0
    7.1593   -1.8605  -22.1410 H   0  0  0  0  0  0  0  0  0  0  0  0
    5.8145    5.5811  -20.7171 H   0  0  0  0  0  0  0  0  0  0  0  0
    7.4138    5.4815  -21.5290 H   0  0  0  0  0  0  0  0  0  0  0  0
    5.7635    2.7571  -23.4573 H   0  0  0  0  0  0  0  0  0  0  0  0
    4.1529    3.3839  -22.9675 H   0  0  0  0  0  0  0  0  0  0  0  0
    7.5755    3.1412  -21.2126 H   0  0  0  0  0  0  0  0  0  0  0  0
    4.6198    3.3534  -16.6098 H   0  0  0  0  0  0  0  0  0  0  0  0
    6.3042    2.7299  -16.6336 H   0  0  0  0  0  0  0  0  0  0  0  0
    5.9995    4.4979  -16.7226 H   0  0  0  0  0  0  0  0  0  0  0  0
    3.3490    3.1814  -20.8917 H   0  0  0  0  0  0  0  0  0  0  0  0
    2.2683    3.4244  -18.9261 H   0  0  0  0  0  0  0  0  0  0  0  0
    3.1690    3.6453  -17.4632 H   0  0  0  0  0  0  0  0  0  0  0  0
  1 12  1  0  0  0  0
  1 25  3  0  0  0  0
  2 13  1  0  0  0  0
  2 26  3  0  0  0  0
  3  5  1  0  0  0  0
  3  7  2  0  0  0  0
  4  6  1  0  0  0  0
  4 10  2  0  0  0  0
  5 12  2  0  0  0  0
  6 13  2  0  0  0  0
  7 14  1  0  0  0  0
  8 12  1  0  0  0  0
  8 14  2  0  0  0  0
  9 15  1  0  0  0  0
  9 16  2  0  0  0  0
 10 27  1  0  0  0  0
 11 15  2  0  0  0  0
 11 33  1  0  0  0  0
 13 17  1  0  0  0  0
 14 15  1  0  0  0  0
 16 23  1  0  0  0  0
 16 33  1  0  0  0  0
 17 27  2  0  0  0  0
 17 28  1  0  0  0  0
 18 22  1  0  0  0  0
 18 29  1  0  0  0  0
 18 32  2  0  0  0  0
 19 29  1  0  0  0  0
 19 30  2  0  0  0  0
 19 31  1  0  0  0  0
 20 22  1  0  0  0  0
 20 28  1  0  0  0  0
 21 23  1  0  0  0  0
 21 28  1  0  0  0  0
 22 23  1  0  0  0  0
 23 30  1  0  0  0  0
 24 29  1  0  0  0  0
  3 34  1  0  0  0  0
  4 35  1  0  0  0  0
  5 36  1  0  0  0  0
  6 37  1  0  0  0  0
  7 38  1  0  0  0  0
  8 39  1  0  0  0  0
  9 40  1  0  0  0  0
 10 41  1  0  0  0  0
 11 42  1  0  0  0  0
 20 43  1  0  0  0  0
 20 44  1  0  0  0  0
 21 45  1  0  0  0  0
 21 46  1  0  0  0  0
 22 47  1  0  0  0  0
 24 48  1  0  0  0  0
 24 49  1  0  0  0  0
 24 50  1  0  0  0  0
 30 51  1  0  0  0  0
 31 52  1  0  0  0  0
 31 53  1  0  0  0  0
M  CHG  1  30   1
M  END
> <OMEGA_C>
qjg3QCdnRcArkorBKi2cQHkLh0DLD83B3UexQIkrkcCeAZzB1Be3QIL5+UBAUszB+ReRQIXOjcCs
L5TBuo+pQOCr0UAIyM/ByHe8QBy0WsDnNaLBC9WGQBJkBcDJ1ZjBA62jQFTGvT7Ly6TB15jDQCBn
/0CXocHBb67UQA2meb+cXK7B1LF3QOgZTcCanZLBzM+oQMVVr0C+icjBr5KnQDZMC8A8n6DBKh21
QAmHer9wqqbBDIG3QNgnqj/O3qrB0v+1QJ3otkBAp73BVNTXQPWCZUA0FJrBwpyKQMvPVUCZRJnB
Kl3OQFYwn0DdCqvB/S6nQImmV0B0wbXBMBvVQFJmZUBaW6bBthKuQAQiNEBIaarBxRu0QKBpYECl
K4jBFc4CQMOhPsA4/YPBGNSRQCXiT0C0hdHB+MjCQFGl3kAKnrrB/4q4QHrTl0Dxj7XBtXiyQEMV
W0BSAZTB/OeHQF9ISEB9o6PB7VBJQJPxXkAfmZPBxF36QDmCdEC+0JXB4sfeQNABHz/6C7PB5m3B
QMhRr8A/P53BH+q3QJdRCkGH0NHBMK2IQE1LqcD2Y4/BA7yfQE30zED4+tfBySLVQBZEYMDEOKjB
GmhsQBYOk7/SqZfBgRCKQObMFD+2Pp/ByB3OQM5ED0En9b7B1RjlQIgj7r+zILHBnhC6QIqYskCu
vKXBpD3tQBdor0BoO6zBS264QJl0MECZqLvBqeSEQO2RWEBwvbfBgGryQMkJSUBUs6nBatWTQJud
VkDu4ITBxbvJQLK2LkCtEYXBGfy/QBHvj0Dux4XBulZWQGmbS0AxIqfBdCsRQBAqW0CfaJfBatBK
QBxMaUCrtIvBZis0QPLQRsDrgIzB5TzNQB5G+UDkkLXBvbmvQJpyj8CIXJ7BM62sQPDQ3EBYS9HB
Q1iPQLBRjcD7jpbBfTi7QHpc9EAAdcjB1Y27QB0IVcC4DqTBoPiFQJ6nAsACQ5rB0oukQKgR8z66
vqTBsleiQIZysUDB+s/BkfnVQHwDT7/2v67BUNd0QEBwTMCHipTBjUu/QIwT4ECadr7B3wynQJkD
BsA696HB2qG1QEI5XL8kRqfB8tm5QMpFvD/IAKrBuFW0QKIBtEAcnL3BoorZQLOWbUB24JjBeWeM
QAvUW0BP+JfB3zHQQL76o0CbHqrBhfmnQNG7XkDiJbTBbd/WQIWrbkBYM6XBtfCvQAlrPEC9EKnB
jBu2QJFUYEBe8IbBbTD/P+pKQcCq7IXB6bTYQKwHB0FgX67BEx2mQNY1nkDPYcbBAw22QBZEnEBI
ErTB9lK0QNdwYEDSx5LBOrWJQHcQT0AdUaLBoe5MQKWvY0AZRJLBjYX8QDHjdkBsl5TB6MLhQI7/
UD/xUbLBz4O/QOqArcD6+Z/BkXipQLDp60BkBtnBzoqGQH+iqcDbHpLBEDrDQNDmCkEJUsnB7GDU
QGeVWMBcDarB6wZrQDQdjr9UxZjBsSWKQC2+JT+/V5/B8jCXQJszn0BexNbBm/XlQFWw1r9J+bHB
qtG+QAfjuECFh6TB3CDvQFKpskDjKKzB5na6QP/6OUCuD7rBRbWFQN3XWkD4GbbBHx/0QFkDUkDL
iajB696VQAARVUCRsoPBiMHLQJ5FLUA+N4TBUAjCQI1Jj0CVG4TBm+lZQLHwUUB0z6XBF8AUQCKR
X0AZEJbBn3tOQIN2bUC+XIrB

> <OMEGA_E>
GAOfPpiswj4=

> <OMEGA_NBR>
     27037

$$$$
50220713
  -OEChem-04172616093D

 56 60  0     1  0  0  0  0  0999 V2000
    2.8711   -3.0623  -17.3630 C   0  0  0  0  0  0  0  0  0  0  0  0
    5.5452   -4.5192  -19.5447 C   0  0  0  0  0  0  0  0  0  0  0  0
    6.0774    7.8964  -24.5073 C   0  0  0  0  0  0  0  0  0  0  0  0
    4.5447   -4.4113  -18.5614 C   0  0  0  0  0  0  0  0  0  0  0  0
    5.8857   -3.4041  -20.3305 C   0  0  0  0  0  0  0  0  0  0  0  0
    6.0869    7.0483  -23.3926 C   0  0  0  0  0  0  0  0  0  0  0  0
    5.6455    7.3865  -25.7431 C   0  0  0  0  0  0  0  0  0  0  0  0
    4.2089   -2.0717  -19.1583 C   0  0  0  0  0  0  0  0  0  0  0  0
    5.1230    0.3792  -20.6224 C   0  0  0  0  0  0  0  0  0  0  0  0
    6.6155   -0.9606  -21.8719 C   0  0  0  0  0  0  0  0  0  0  0  0
    3.8751   -3.1868  -18.3712 C   0  0  0  0  0  0  0  0  0  0  0  0
    5.2288   -2.1658  -20.1350 C   0  0  0  0  0  0  0  0  0  0  0  0
    5.6488   -0.9689  -20.8901 C   0  0  0  0  0  0  0  0  0  0  0  0
    5.7470    1.3461  -21.3637 C   0  0  0  0  0  0  0  0  0  0  0  0
    5.6551    5.7150  -23.5467 C   0  0  0  0  0  0  0  0  0  0  0  0
    5.2355    6.0399  -25.8394 C   0  0  0  0  0  0  0  0  0  0  0  0
    6.7597    3.5619  -19.1827 C   0  0  0  0  0  0  0  0  0  0  0  0
    4.3413    3.3411  -19.1183 C   0  0  0  0  0  0  0  0  0  0  0  0
    6.5262    4.9963  -21.2697 C   0  0  0  0  0  0  0  0  0  0  0  0
    5.2840    3.4264  -22.6228 C   0  0  0  0  0  0  0  0  0  0  0  0
    6.6973    3.5819  -20.7116 C   0  0  2  0  0  0  0  0  0  0  0  0
    5.4745    2.8293  -21.2441 C   0  0  2  0  0  0  0  0  0  0  0  0
    5.6067    3.5084  -16.9668 C   0  0  0  0  0  0  0  0  0  0  0  0
    4.5320    4.1399  -27.1415 C   0  0  0  0  0  0  0  0  0  0  0  0
    2.0541   -2.9518  -16.5389 N   0  0  0  0  0  0  0  0  0  0  0  0
    5.2413    5.2427  -24.7454 N   0  0  0  0  0  0  0  0  0  0  0  0
    5.6669    4.8411  -22.4755 N   0  0  2  0  0  0  0  0  0  0  0  0
    5.5786    3.4074  -18.4435 N   0  0  0  0  0  0  0  0  0  0  0  0
    4.2717    3.1276  -20.4128 N   0  3  0  0  0  0  0  0  0  0  0  0
    3.1471    3.5055  -18.4298 N   0  0  0  0  0  0  0  0  0  0  0  0
    7.8270    3.8149  -18.6349 O   0  0  0  0  0  0  0  0  0  0  0  0
    4.8345    5.5577  -27.0748 O   0  0  0  0  0  0  0  0  0  0  0  0
    6.9396    0.6445  -22.4320 S   0  0  0  0  0  0  0  0  0  0  0  0
    6.0527   -5.4604  -19.6961 H   0  0  0  0  0  0  0  0  0  0  0  0
    6.3966    8.9243  -24.4183 H   0  0  0  0  0  0  0  0  0  0  0  0
    4.2904   -5.2665  -17.9530 H   0  0  0  0  0  0  0  0  0  0  0  0
    6.6518   -3.4928  -21.0865 H   0  0  0  0  0  0  0  0  0  0  0  0
    6.4194    7.4098  -22.4307 H   0  0  0  0  0  0  0  0  0  0  0  0
    5.6273    8.0226  -26.6157 H   0  0  0  0  0  0  0  0  0  0  0  0
    3.6845   -1.1382  -19.0173 H   0  0  0  0  0  0  0  0  0  0  0  0
    4.3307    0.5836  -19.9175 H   0  0  0  0  0  0  0  0  0  0  0  0
    7.1094   -1.8455  -22.2453 H   0  0  0  0  0  0  0  0  0  0  0  0
    6.0372    5.6462  -20.5290 H   0  0  0  0  0  0  0  0  0  0  0  0
    7.5022    5.4230  -21.5443 H   0  0  0  0  0  0  0  0  0  0  0  0
    5.9321    2.9238  -23.3558 H   0  0  0  0  0  0  0  0  0  0  0  0
    4.2346    3.3400  -22.9410 H   0  0  0  0  0  0  0  0  0  0  0  0
    7.6132    3.1325  -21.1230 H   0  0  0  0  0  0  0  0  0  0  0  0
    4.5918    3.3602  -16.5693 H   0  0  0  0  0  0  0  0  0  0  0  0
    6.2763    2.7366  -16.5593 H   0  0  0  0  0  0  0  0  0  0  0  0
    5.9733    4.5034  -16.6744 H   0  0  0  0  0  0  0  0  0  0  0  0
    4.2273    3.8772  -28.1652 H   0  0  0  0  0  0  0  0  0  0  0  0
    5.4256    3.5611  -26.8650 H   0  0  0  0  0  0  0  0  0  0  0  0
    3.7138    3.9065  -26.4442 H   0  0  0  0  0  0  0  0  0  0  0  0
    3.3774    3.1666  -20.8586 H   0  0  0  0  0  0  0  0  0  0  0  0
    2.2768    3.4596  -18.9202 H   0  0  0  0  0  0  0  0  0  0  0  0
    3.1572    3.6699  -17.4435 H   0  0  0  0  0  0  0  0  0  0  0  0
  1 11  1  0  0  0  0
  1 25  3  0  0  0  0
  2  4  1  0  0  0  0
  2  5  2  0  0  0  0
  3  6  2  0  0  0  0
  3  7  1  0  0  0  0
  4 11  2  0  0  0  0
  5 12  1  0  0  0  0
  6 15  1  0  0  0  0
  7 16  2  0  0  0  0
  8 11  1  0  0  0  0
  8 12  2  0  0  0  0
  9 13  1  0  0  0  0
  9 14  2  0  0  0  0
 10 13  2  0  0  0  0
 10 33  1  0  0  0  0
 12 13  1  0  0  0  0
 14 22  1  0  0  0  0
 14 33  1  0  0  0  0
 15 26  2  0  0  0  0
 15 27  1  0  0  0  0
 16 26  1  0  0  0  0
 16 32  1  0  0  0  0
 17 21  1  0  0  0  0
 17 28  1  0  0  0  0
 17 31  2  0  0  0  0
 18 28  1  0  0  0  0
 18 29  2  0  0  0  0
 18 30  1  0  0  0  0
 19 21  1  0  0  0  0
 19 27  1  0  0  0  0
 20 22  1  0  0  0  0
 20 27  1  0  0  0  0
 21 22  1  0  0  0  0
 22 29  1  0  0  0  0
 23 28  1  0  0  0  0
 24 32  1  0  0  0  0
  2 34  1  0  0  0  0
  3 35  1  0  0  0  0
  4 36  1  0  0  0  0
  5 37  1  0  0  0  0
  6 38  1  0  0  0  0
  7 39  1  0  0  0  0
  8 40  1  0  0  0  0
  9 41  1  0  0  0  0
 10 42  1  0  0  0  0
 19 43  1  0  0  0  0
 19 44  1  0  0  0  0
 20 45  1  0  0  0  0
 20 46  1  0  0  0  0
 21 47  1  0  0  0  0
 23 48  1  0  0  0  0
 23 49  1  0  0  0  0
 23 50  1  0  0  0  0
 24 51  1  0  0  0  0
 24 52  1  0  0  0  0
 24 53  1  0  0  0  0
 29 54  1  0  0  0  0
 30 55  1  0  0  0  0
 30 56  1  0  0  0  0
M  CHG  1  29   1
M  END
> <OMEGA_C>
FcA3QEH8Q8BZ54rBcXKxQD2dkMB9W5zBUHrCQF2v/EDfDsTBd26RQPsojcDCfZTBa1e8QHLcWcDW
pKLBgsfCQNeL4UD9I7vBuae0QNtd7EDH8c3BWq+GQEWXBMBNRJnB2++jQJ4owj65+qTBILLTQLHp
db+Z+a7BYgJ4QEX1S8BA+JLBN1KnQIqcCsCEFKHBlMK0QIMLeL/mHqfBTee3QEpMrD/X6KrBeva0
QCPhtkCpX7zBMomnQBpHwUAmt87By0/YQG/1Y0AndpnB5OuKQPbTVUBd8pjBcNbQQL/hn0BFKKrB
qhapQJ9KW0By+7TBilDWQBo9ZUBmsaXBdy+vQIgTNUDa86nB/GmzQFaJYEAOvIfBUwaRQDF6hECx
IdnBrnUDQHTqPMCiT4TBy7inQIXEp0Cu9sXBAFe1QHLqmkDIzbPBlIOyQO0SWkBcjJPBg7GIQMUq
SEByTaPBTGpJQH9aYEBPcJPB93b6QF8ndEBXFJXBO7SaQKDYsUA3mdjBfBHeQPb6JD+2dLPBtq/B
QNK7rsC2kZ3BJLHMQATKDkG+WMPB50qJQIuHqMCzn4/BVNvUQLeKX8A5sajB0WvNQBYd7UAjcrPB
FBO0QHZcAEHc7NTB7s5rQAOwkb92I5jBe5WKQORnFT8NV5/BRYDjQPw37L9v9rHB0TDBQOittEB9
O6TBvRHwQNOIrUC0WqzBhtO9QDQfO0C+2LrB7IGHQAbCVUAth7fBn5/zQBB7SEDa+6jBFvCSQLYN
V0DTjYTBM9fIQL0kL0CKeYTB4SS/QBEckEAlZYXBV0aHQO0jeEBpUuHB3p6tQOvoY0Ca69bBiq9t
QHEEekDNjdPBHCdYQA2pSkB03qbBV7cRQKRpXUCaXJfBUg9KQFrgakBJjIvBhX8rQB/fUsBrT4vB
fxq3QKHXj8Am7pnBytPFQCAQykASUs/Bw3eTQOgZj8CBDZPBKXTBQDjvVsDIBaDBmV7JQAE7rEDL
/8bBqo2xQPBJ8UAMRc3BOd6EQMUbCsCoOZjB99+oQDf4yz74CKPBji7JQODGjL9dS6/BY4V0QDSX
U8CCNpLBOWqoQP+sC8DvOJ/BLFqzQCFUgL9YxaXBZ6y3QFChpT82kqrBOk25QHnutkBlx7zBOpuh
QPoR+kB61MLBAWjcQDasaEDJ0pnBWlKOQPlHYkDCe5nBoRHZQOzKnUDHUKvBqImuQFPpWEC0jrXB
0AvbQIE9YkADD6bBY6iyQJsoNEC1LKrBG0O2QNw/f0ASbojBCgqGQIZYH0EcpcjBrunfP0KkUsD8
r4XBhWWmQKoV3UCB3rrBFR67QASmmUDjerTBJ9y1QKC3akDFCJTB+UuMQKrGTEDMrKPBPYdPQKh6
b0A3IpTBngr/QIU4dUCZdpXBmUeMQCnOD0EMM8DBKxzSQAJg5z4c67TBGIDKQGBYrMB5h5rBcnbS
QOkAw0CYKtfBDmeLQIcdq8CHaY7Bt6rcQO11WMBVWKXBJizYQA1+jUDgYMjBXRKuQIlVBEGnktPB
VK5jQHpuob8be5fBSI+XQPkxMD8n7ZvBsnfTQKkMAsCa0bLB1BLNQOSctUCEkqXB8Pv4QIVsp0D+
I67BkQzEQJU9N0CLG7vBymGNQGOjU0AxcLjBBqr3QP86QEAz66jBgVuVQAjJfUBDT4XBr9LJQEG/
T0DjJ4TBYerDQFG2n0AAO4fBvq9pQEZQLUEndMXB2FSlQNxwJEF3xMvBYGlmQA4XGEFZIs/BwFZf
QKDoTED1P6fB8QwYQPKPaEALB5jBq6lPQCfef0CBZozB

> <OMEGA_E>
gI7rPS5BBj8=

> <OMEGA_NBR>
     29201

$$$$
50220721
  -OEChem-04172616093D

 51 55  0     1  0  0  0  0  0999 V2000
    2.8379   -3.0708  -17.4515 C   0  0  0  0  0  0  0  0  0  0  0  0
    5.4936   -4.5234  -19.6604 C   0  0  0  0  0  0  0  0  0  0  0  0
    4.4914   -4.4230  -18.6778 C   0  0  0  0  0  0  0  0  0  0  0  0
    5.8613   -3.3933  -20.4113 C   0  0  0  0  0  0  0  0  0  0  0  0
    5.5640    7.2576  -25.7819 C   0  0  0  0  0  0  0  0  0  0  0  0
    4.2005   -2.0637  -19.2143 C   0  0  0  0  0  0  0  0  0  0  0  0
    5.1568    0.4051  -20.6072 C   0  0  0  0  0  0  0  0  0  0  0  0
    5.1743    5.9112  -25.8600 C   0  0  0  0  0  0  0  0  0  0  0  0
    6.0059    7.7603  -24.5436 C   0  0  0  0  0  0  0  0  0  0  0  0
    6.6560   -0.9194  -21.8652 C   0  0  0  0  0  0  0  0  0  0  0  0
    3.8434   -3.1918  -18.4582 C   0  0  0  0  0  0  0  0  0  0  0  0
    5.2253   -2.1496  -20.1855 C   0  0  0  0  0  0  0  0  0  0  0  0
    5.6730   -0.9404  -20.9001 C   0  0  0  0  0  0  0  0  0  0  0  0
    5.8054    1.3815  -21.3112 C   0  0  0  0  0  0  0  0  0  0  0  0
    5.6485    5.6691  -23.5804 C   0  0  0  0  0  0  0  0  0  0  0  0
    6.7816    3.6190  -19.1440 C   0  0  0  0  0  0  0  0  0  0  0  0
    4.3665    3.3687  -19.0802 C   0  0  0  0  0  0  0  0  0  0  0  0
    6.5095    5.0491  -21.2535 C   0  0  0  0  0  0  0  0  0  0  0  0
    5.3053    3.4233  -22.5814 C   0  0  0  0  0  0  0  0  0  0  0  0
    6.7205    3.6416  -20.6769 C   0  0  2  0  0  0  0  0  0  0  0  0
    5.5122    2.8588  -21.1970 C   0  0  2  0  0  0  0  0  0  0  0  0
    5.6297    3.4896  -16.9266 C   0  0  0  0  0  0  0  0  0  0  0  0
    2.0192   -2.9582  -16.6294 N   0  0  0  0  0  0  0  0  0  0  0  0
    5.2176    5.1415  -24.7586 N   0  0  0  0  0  0  0  0  0  0  0  0
    6.0493    6.9567  -23.4615 N   0  0  0  0  0  0  0  0  0  0  0  0
    5.6809    4.8382  -22.4775 N   0  0  2  0  0  0  0  0  0  0  0  0
    5.6025    3.4364  -18.4054 N   0  0  0  0  0  0  0  0  0  0  0  0
    4.3025    3.1484  -20.3729 N   0  3  0  0  0  0  0  0  0  0  0  0
    3.1703    3.5345  -18.3951 N   0  0  0  0  0  0  0  0  0  0  0  0
    7.8522    3.8458  -18.5915 O   0  0  0  0  0  0  0  0  0  0  0  0
    7.0158    0.6945  -22.3698 S   0  0  0  0  0  0  0  0  0  0  0  0
    5.9812   -5.4706  -19.8380 H   0  0  0  0  0  0  0  0  0  0  0  0
    4.2193   -5.2890  -18.0926 H   0  0  0  0  0  0  0  0  0  0  0  0
    6.6322   -3.4746  -21.1634 H   0  0  0  0  0  0  0  0  0  0  0  0
    5.5255    7.8943  -26.6534 H   0  0  0  0  0  0  0  0  0  0  0  0
    3.6900   -1.1257  -19.0535 H   0  0  0  0  0  0  0  0  0  0  0  0
    4.3535    0.6006  -19.9122 H   0  0  0  0  0  0  0  0  0  0  0  0
    4.8415    5.4959  -26.7998 H   0  0  0  0  0  0  0  0  0  0  0  0
    6.3113    8.7928  -24.4599 H   0  0  0  0  0  0  0  0  0  0  0  0
    7.1411   -1.8010  -22.2575 H   0  0  0  0  0  0  0  0  0  0  0  0
    5.9796    5.6883  -20.5319 H   0  0  0  0  0  0  0  0  0  0  0  0
    7.4739    5.5104  -21.5128 H   0  0  0  0  0  0  0  0  0  0  0  0
    5.9474    2.9059  -23.3094 H   0  0  0  0  0  0  0  0  0  0  0  0
    4.2528    3.3245  -22.8855 H   0  0  0  0  0  0  0  0  0  0  0  0
    7.6448    3.2102  -21.0886 H   0  0  0  0  0  0  0  0  0  0  0  0
    4.6153    3.3245  -16.5345 H   0  0  0  0  0  0  0  0  0  0  0  0
    6.3023    2.7078  -16.5440 H   0  0  0  0  0  0  0  0  0  0  0  0
    5.9921    4.4762  -16.6019 H   0  0  0  0  0  0  0  0  0  0  0  0
    3.4095    3.1758  -20.8220 H   0  0  0  0  0  0  0  0  0  0  0  0
    2.3012    3.4843  -18.8872 H   0  0  0  0  0  0  0  0  0  0  0  0
    3.1778    3.7041  -17.4097 H   0  0  0  0  0  0  0  0  0  0  0  0
  1 11  1  0  0  0  0
  1 23  3  0  0  0  0
  2  3  1  0  0  0  0
  2  4  2  0  0  0  0
  3 11  2  0  0  0  0
  4 12  1  0  0  0  0
  5  8  1  0  0  0  0
  5  9  2  0  0  0  0
  6 11  1  0  0  0  0
  6 12  2  0  0  0  0
  7 13  1  0  0  0  0
  7 14  2  0  0  0  0
  8 24  2  0  0  0  0
  9 25  1  0  0  0  0
 10 13  2  0  0  0  0
 10 31  1  0  0  0  0
 12 13  1  0  0  0  0
 14 21  1  0  0  0  0
 14 31  1  0  0  0  0
 15 24  1  0  0  0  0
 15 25  2  0  0  0  0
 15 26  1  0  0  0  0
 16 20  1  0  0  0  0
 16 27  1  0  0  0  0
 16 30  2  0  0  0  0
 17 27  1  0  0  0  0
 17 28  2  0  0  0  0
 17 29  1  0  0  0  0
 18 20  1  0  0  0  0
 18 26  1  0  0  0  0
 19 21  1  0  0  0  0
 19 26  1  0  0  0  0
 20 21  1  0  0  0  0
 21 28  1  0  0  0  0
 22 27  1  0  0  0  0
  2 32  1  0  0  0  0
  3 33  1  0  0  0  0
  4 34  1  0  0  0  0
  5 35  1  0  0  0  0
  6 36  1  0  0  0  0
  7 37  1  0  0  0  0
  8 38  1  0  0  0  0
  9 39  1  0  0  0  0
 10 40  1  0  0  0  0
 18 41  1  0  0  0  0
 18 42  1  0  0  0  0
 19 43  1  0  0  0  0
 19 44  1  0  0  0  0
 20 45  1  0  0  0  0
 22 46  1  0  0  0  0
 22 47  1  0  0  0  0
 22 48  1  0  0  0  0
 28 49  1  0  0  0  0
 29 50  1  0  0  0  0
 29 51  1  0  0  0  0
M  CHG  1  28   1
M  END
> <OMEGA_C>
NqA1QF6HRMCmnIvBPcuvQPS/kMB0SJ3BNbmPQGiJjcARbJXB/4+7QD0rWcBcSqPBQAyyQKo+6EBH
Qc7BLWqGQGcUBMDatpnBVgSlQPRszz5/26TB1pOlQHAovUBE4c7BvjDAQAhU+EBlWcTB9v3UQClf
a7/r667Byfp1QExGTMB0qpPBADanQKqTCcDde6HBkYm1QNS9cL9sM6fB7MW5QFbVsD9ofarBTsC0
QJtptUCxpLzBgwLZQASeZ0DjJpnBdbqLQNGYV0BUpJjBHU7QQJ6SoUASB6rBScWpQLoXW0DPprTB
GQ7XQGwQaUBQaqXBkmOwQMn1NkCDk6nBnya0QMRVX0CgaYfB1joBQNdSPcAKCYXBz/amQEqHpECl
EcbB0ZPBQPac3kAzsbvBlcm1QF7SmkDW0bPBtEezQF/tW0BVPpPBFa6JQOZ/SUCk+6LBq+VKQDs1
YkBDKZPBbkX7QN4hdkBsu5TBz4HgQBrJMT9q9bLB9mW/QNUOr8BFtJ7BPASHQKQ/qcCmvZDBuTrU
QKhfXsCTTqnBztCwQEue/EAsOtXBYShsQMgWkL+KbZjB6U+LQBLCGT9FTJ/Bku2aQMPer0D5ZdbB
cvbJQEevDEHjrcPBHoTkQBCH5r9JD7LBK1m/QLEGtkBKQaTB6ynvQG9VsEBOGqzBglG+QKb5OUCq
ebrBKBeIQGPEVECPFbfB66H0QBxzTUCAtajBtrCTQGXEVECcRoTBuazJQPBMLUALWoTBHb+/QMM8
j0C/0ITBxTRaQJlAS0CHk6bBNUYTQE3/XkAGGZfBXmFLQJQPbUD7RovBEmQ2QIvtRcDyfIvBFb+w
QEE7kMCQJ53BwaSQQFVijcC9TJXBRUa8QNvAV8A8HaPBmiayQPA/6ECMYs7BtTCHQBNqA8CsZ5nB
GfCkQAiP2j68rqTBG0fAQMx2+ECpfcTB2K2lQJImvUCb+c7B0w3VQPhtZb8MvK7BmJh3QIg7TMBU
dJPBHM+nQLlbCMASO6HBmbm1QI0Na78U+6bB+YS5QFSUsz9hXqrBFsW0QDqstUBkurzBLtDYQEFt
aUDjLpnBQ0GLQJZfXEAOrZjBkFDQQH8sokCgGarBupypQMgDXEDNorTBHefWQPVsakDBbaXBUiyw
QDNrOECbhqnB9LOzQAGzZECObYfBDhgBQI1pQMDz/4TBIZnBQLDh3kB0z7vBJAynQM6ipECZJMbB
2be1QFlGm0Ds3rPB9p+yQNWhZkDfSJPB43GJQIx+S0DL9aLBUlpJQCu3YkAxOZPBfM77QKU7bkAo
ypTBFErgQMk+Nz+w1LLBd5DAQE5nrsDUm57BLvyHQBxLqcDHr5DB0tvUQAB8XMBqKKnBO+6wQL6H
/EDPX9XB6vRtQDvVjr+6/5fBbTmLQLoeHz+zH5/BYhfKQETADEGN2cPBIQubQEzDr0DJe9bBfKXk
QBd747+23LHBW3i/QBXUtkAQWqTB9TfvQP7DsEAqNazBPyS+QAuGOkAgbrrBkO6HQEazVUCiEbfB
V2z0QA1xTkCktKjBis6SQLWeYkC0ToTBnTzFQL6RK0BNvYTBhODDQMQ8j0BlcITBXLFZQEpsS0Cm
jKbBvSESQAOFWkCtIpfByABJQK16b0BdYovB

> <OMEGA_E>
UCMiPkChIj4=

> <OMEGA_NBR>
     31224

$$$$
50220717
  -OEChem-04172616093D

 52 56  0     1  0  0  0  0  0999 V2000
    2.8760   -3.0797  -17.3845 C   0  0  0  0  0  0  0  0  0  0  0  0
    5.1828    6.0629  -25.9566 C   0  0  0  0  0  0  0  0  0  0  0  0
    5.4824   -4.5319  -19.6493 C   0  0  0  0  0  0  0  0  0  0  0  0
    5.6368    7.3783  -25.7840 C   0  0  0  0  0  0  0  0  0  0  0  0
    4.5055   -4.4285  -18.6423 C   0  0  0  0  0  0  0  0  0  0  0  0
    5.8401   -3.4013  -20.4039 C   0  0  0  0  0  0  0  0  0  0  0  0
    5.1804    5.2098  -24.8498 C   0  0  0  0  0  0  0  0  0  0  0  0
    4.2333   -2.0593  -19.1479 C   0  0  0  0  0  0  0  0  0  0  0  0
    5.1037    0.3937  -20.6362 C   0  0  0  0  0  0  0  0  0  0  0  0
    6.0796    7.7992  -24.5119 C   0  0  0  0  0  0  0  0  0  0  0  0
    6.6326   -0.9312  -21.8580 C   0  0  0  0  0  0  0  0  0  0  0  0
    3.8788   -3.1916  -18.3953 C   0  0  0  0  0  0  0  0  0  0  0  0
    5.2224   -2.1525  -20.1556 C   0  0  0  0  0  0  0  0  0  0  0  0
    5.6465   -0.9490  -20.8958 C   0  0  0  0  0  0  0  0  0  0  0  0
    5.7618    1.3698  -21.3334 C   0  0  0  0  0  0  0  0  0  0  0  0
    5.6460    5.6874  -23.5964 C   0  0  0  0  0  0  0  0  0  0  0  0
    6.7607    3.5987  -19.1697 C   0  0  0  0  0  0  0  0  0  0  0  0
    4.3437    3.3566  -19.0953 C   0  0  0  0  0  0  0  0  0  0  0  0
    6.4921    5.0320  -21.2731 C   0  0  0  0  0  0  0  0  0  0  0  0
    5.2706    3.4199  -22.6019 C   0  0  0  0  0  0  0  0  0  0  0  0
    6.6936    3.6228  -20.7014 C   0  0  2  0  0  0  0  0  0  0  0  0
    5.4775    2.8504  -21.2189 C   0  0  2  0  0  0  0  0  0  0  0  0
    5.6196    3.4678  -16.9475 C   0  0  0  0  0  0  0  0  0  0  0  0
    2.0526   -2.9816  -16.5653 N   0  0  0  0  0  0  0  0  0  0  0  0
    6.0838    6.9603  -23.4508 N   0  0  0  0  0  0  0  0  0  0  0  0
    5.6766    4.8300  -22.5072 N   0  0  2  0  0  0  0  0  0  0  0  0
    5.5834    3.4241  -18.4264 N   0  0  0  0  0  0  0  0  0  0  0  0
    4.2737    3.1479  -20.3895 N   0  3  0  0  0  0  0  0  0  0  0  0
    3.1496    3.5069  -18.4026 N   0  0  0  0  0  0  0  0  0  0  0  0
    7.8350    3.8196  -18.6220 O   0  0  0  0  0  0  0  0  0  0  0  0
    6.9840    0.6800  -22.3768 S   0  0  0  0  0  0  0  0  0  0  0  0
    4.8431    5.7173  -26.9218 H   0  0  0  0  0  0  0  0  0  0  0  0
    5.9584   -5.4818  -19.8429 H   0  0  0  0  0  0  0  0  0  0  0  0
    5.6475    8.0642  -26.6183 H   0  0  0  0  0  0  0  0  0  0  0  0
    4.2364   -5.2968  -18.0592 H   0  0  0  0  0  0  0  0  0  0  0  0
    6.5898   -3.4860  -21.1767 H   0  0  0  0  0  0  0  0  0  0  0  0
    4.8267    4.1940  -24.9471 H   0  0  0  0  0  0  0  0  0  0  0  0
    3.7486   -1.1133  -18.9563 H   0  0  0  0  0  0  0  0  0  0  0  0
    4.2770    0.5874  -19.9688 H   0  0  0  0  0  0  0  0  0  0  0  0
    6.4233    8.8148  -24.3825 H   0  0  0  0  0  0  0  0  0  0  0  0
    7.1245   -1.8134  -22.2402 H   0  0  0  0  0  0  0  0  0  0  0  0
    5.9558    5.6687  -20.5541 H   0  0  0  0  0  0  0  0  0  0  0  0
    7.4604    5.4922  -21.5194 H   0  0  0  0  0  0  0  0  0  0  0  0
    5.8949    2.8879  -23.3348 H   0  0  0  0  0  0  0  0  0  0  0  0
    4.2134    3.3425  -22.8960 H   0  0  0  0  0  0  0  0  0  0  0  0
    7.6130    3.1848  -21.1172 H   0  0  0  0  0  0  0  0  0  0  0  0
    4.6057    3.3112  -16.5506 H   0  0  0  0  0  0  0  0  0  0  0  0
    6.2859    2.6764  -16.5736 H   0  0  0  0  0  0  0  0  0  0  0  0
    5.9945    4.4483  -16.6188 H   0  0  0  0  0  0  0  0  0  0  0  0
    3.3799    3.1898  -20.8361 H   0  0  0  0  0  0  0  0  0  0  0  0
    2.2784    3.4546  -18.8907 H   0  0  0  0  0  0  0  0  0  0  0  0
    3.1609    3.6674  -17.4156 H   0  0  0  0  0  0  0  0  0  0  0  0
  1 12  1  0  0  0  0
  1 24  3  0  0  0  0
  2  4  1  0  0  0  0
  2  7  2  0  0  0  0
  3  5  1  0  0  0  0
  3  6  2  0  0  0  0
  4 10  2  0  0  0  0
  5 12  2  0  0  0  0
  6 13  1  0  0  0  0
  7 16  1  0  0  0  0
  8 12  1  0  0  0  0
  8 13  2  0  0  0  0
  9 14  1  0  0  0  0
  9 15  2  0  0  0  0
 10 25  1  0  0  0  0
 11 14  2  0  0  0  0
 11 31  1  0  0  0  0
 13 14  1  0  0  0  0
 15 22  1  0  0  0  0
 15 31  1  0  0  0  0
 16 25  2  0  0  0  0
 16 26  1  0  0  0  0
 17 21  1  0  0  0  0
 17 27  1  0  0  0  0
 17 30  2  0  0  0  0
 18 27  1  0  0  0  0
 18 28  2  0  0  0  0
 18 29  1  0  0  0  0
 19 21  1  0  0  0  0
 19 26  1  0  0  0  0
 20 22  1  0  0  0  0
 20 26  1  0  0  0  0
 21 22  1  0  0  0  0
 22 28  1  0  0  0  0
 23 27  1  0  0  0  0
  2 32  1  0  0  0  0
  3 33  1  0  0  0  0
  4 34  1  0  0  0  0
  5 35  1  0  0  0  0
  6 36  1  0  0  0  0
  7 37  1  0  0  0  0
  8 38  1  0  0  0  0
  9 39  1  0  0  0  0
 10 40  1  0  0  0  0
 11 41  1  0  0  0  0
 19 42  1  0  0  0  0
 19 43  1  0  0  0  0
 20 44  1  0  0  0  0
 20 45  1  0  0  0  0
 21 46  1  0  0  0  0
 23 47  1  0  0  0  0
 23 48  1  0  0  0  0
 23 49  1  0  0  0  0
 28 50  1  0  0  0  0
 29 51  1  0  0  0  0
 29 52  1  0  0  0  0
M  CHG  1  28   1
M  END
> <OMEGA_C>
hhA4QJoZRcCNE4vBaNmlQF8DwkA0p8/Bc2+vQCcFkcCrMZ3BgGC0QEob7EC0Rc7BJC2QQAW2jcB8
I5XBN+K6QMmuWcArO6PBu8WlQNm2pkBTzMbBN3eHQHPLA8DQLpnB2FGjQDSUyT7kFqXBQozCQLuS
+UBfGMTBJz7UQCFgbr8d3a7BxD14QB9DTMCNKZPB5x2nQC3CCcCnPqHB+K+0QGrwcr+wKqfBf2C4
QKxWrz/BqqrBBKy0QNP+tUBoxbzBSFfYQBZRZkB/W5nBT/+KQDbTVkA+w5jBpr/PQMUFoUA2L6rB
bKioQNffWkDF0LTBBTLWQEvbZ0B/nKXB6EevQHdtNkBQwKnB29OzQFbwXUBvlIfBb10DQPjSPsDM
hYTBd67CQBa73kA7m7vBuqa1QJ+PmkC+DrTBHauyQEgkW0A/aZPBxMGIQPd2SUCzHaPBjJJJQBRx
YECGOJPBoLj6QEN0dEDm+ZTB0XzfQDETLj/JA7PB5/qaQID0tkDwX9fB3Kq+QNpqr8Auvp7B/Le0
QMoGAUEx8tTBSpCHQAp/qcA/eZDBgN/SQM8aX8DdaanBVXSaQIA1hkC1k8fB1ulvQPyBjr+LppfB
Zt2IQMZgFj8PwJ/BW4vNQIkJDUFxD8PB3vvjQGsd6L/Z67HBKJa+QCBmtUDJbqTBUbvuQEDAr0DP
J6zB3qK8QInSOEC8rbrBS9SGQDjsVUD3KrfB6J3zQBvUS0AG8KjBNmKTQOHqU0CMZ4TB5SXJQBVK
K0C9loTBC9O/QK1YjkBd84TBaFBYQAAmTEBbsKbBmdARQAAYXUAtIJfB2UtKQAS3akA3U4vB0RE1
QJ2RRMD//YvBlmS/QCw+90BjYsbBOp+vQOUZkMAPvJ3BX8mwQMJC40BRyM/BfcWPQEcRjcCz0JXB
0xa7QMOyV8DVvaPBqhPBQKV330As3rzBhz6GQMAFA8AKAJrBab+kQHIK3D4k/KTBehCkQB4VuECt
b8/BIWfVQIlHYb/s+q7B1+l1QAeGS8DJ/pPBAdmmQBQrCMAd06HBUGS1QCd3ab/eZ6fBN0y6QDQp
tT/cTqrBGdqzQNtXtEAFDb3ByGjZQDFWa0A2DpnBqTuMQINtWUCqX5jBWBnQQOHKokCUJ6rBiVCp
QHnRW0BicLTBBzTXQFf8a0CfWKXBkpqwQG34OECcWqnBlDq1QIHmYEBBOofBGAIAQJs9PsA+fIXB
eo6lQFS2oUBxOcbBw0u1QLQ3m0Bo6bPBv+uzQI3fXkB0EJPB9P+JQNNGS0ALtaLBuBRMQPnBYkC6
z5LBuOD7QPXgeEA4sJTBnprhQCGJPT9RsbLB2yrJQNAxDEFHfcbBCEq/QK9XrsBjM5/BrVivQPXn
9EDnM9fBsUqHQP3aqMDTIpHBkW/TQOq2XMBp16nBzUvMQNvw7UBfirXBvuprQHITjr+mo5jBomaK
QPSkHT9ZmJ/BnPOYQGaoqEDOptbB8+vkQHTy4L+kMbLBUSy/QECOt0AhcqTBp9XuQIaPsUB+VqzB
5nq9QKbiOUDWRbrBbHqHQAUfVUAyt7bBPcX0QPZLUEDGoqjBQ+SUQGzjVUAUCYTBY+TKQM+QLkDz
ToTB5eLAQADhj0DNioTBWbBaQFjRTEBGQ6bBd0IUQHmfXkCzsJbBLehMQBqcbUCO7YrB

> <OMEGA_E>
GK1zPkirhz4=

> <OMEGA_NBR>
     33275

$$$$
50220728
  -OEChem-04172616093D

 55 59  0     1  0  0  0  0  0999 V2000
    2.8341   -3.0615  -17.4840 C   0  0  0  0  0  0  0  0  0  0  0  0
    5.5025   -4.5036  -19.6841 C   0  0  0  0  0  0  0  0  0  0  0  0
    5.9076    7.7566  -24.7657 C   0  0  0  0  0  0  0  0  0  0  0  0
    4.4971   -4.4060  -18.7045 C   0  0  0  0  0  0  0  0  0  0  0  0
    5.8597   -3.3758  -20.4432 C   0  0  0  0  0  0  0  0  0  0  0  0
    5.4528    7.1006  -25.9298 C   0  0  0  0  0  0  0  0  0  0  0  0
    6.0218    7.0253  -23.5698 C   0  0  0  0  0  0  0  0  0  0  0  0
    4.1864   -2.0527  -19.2555 C   0  0  0  0  0  0  0  0  0  0  0  0
    5.1626    0.4212  -20.6218 C   0  0  0  0  0  0  0  0  0  0  0  0
    6.6371   -0.9042  -21.9092 C   0  0  0  0  0  0  0  0  0  0  0  0
    3.8373   -3.1796  -18.4937 C   0  0  0  0  0  0  0  0  0  0  0  0
    5.2146   -2.1359  -20.2238 C   0  0  0  0  0  0  0  0  0  0  0  0
    5.6631   -0.9256  -20.9350 C   0  0  0  0  0  0  0  0  0  0  0  0
    5.8108    1.3989  -21.3236 C   0  0  0  0  0  0  0  0  0  0  0  0
    5.1106    5.7275  -25.8578 C   0  0  0  0  0  0  0  0  0  0  0  0
    5.6453    5.6681  -23.5803 C   0  0  0  0  0  0  0  0  0  0  0  0
    6.7891    3.6546  -19.1430 C   0  0  0  0  0  0  0  0  0  0  0  0
    4.3695    3.4058  -19.0873 C   0  0  0  0  0  0  0  0  0  0  0  0
    6.5685    5.0616  -21.2663 C   0  0  0  0  0  0  0  0  0  0  0  0
    5.3218    3.4439  -22.5631 C   0  0  0  0  0  0  0  0  0  0  0  0
    6.7425    3.6541  -20.6724 C   0  0  2  0  0  0  0  0  0  0  0  0
    5.5276    2.8773  -21.1909 C   0  0  2  0  0  0  0  0  0  0  0  0
    5.6221    3.5955  -16.9326 C   0  0  0  0  0  0  0  0  0  0  0  0
    4.6923    4.8976  -27.0568 C   0  0  0  0  0  0  0  0  0  0  0  0
    2.0197   -2.9533  -16.6570 N   0  0  0  0  0  0  0  0  0  0  0  0
    5.1954    5.0701  -24.6989 N   0  0  0  0  0  0  0  0  0  0  0  0
    5.7182    4.8577  -22.4674 N   0  0  2  0  0  0  0  0  0  0  0  0
    5.6021    3.5034  -18.4091 N   0  0  0  0  0  0  0  0  0  0  0  0
    4.3141    3.1644  -20.3749 N   0  3  0  0  0  0  0  0  0  0  0  0
    3.1661    3.5594  -18.4115 N   0  0  0  0  0  0  0  0  0  0  0  0
    7.8589    3.8806  -18.5890 O   0  0  0  0  0  0  0  0  0  0  0  0
    4.6612    5.6287  -28.1971 F   0  0  0  0  0  0  0  0  0  0  0  0
    3.4609    4.3669  -26.8265 F   0  0  0  0  0  0  0  0  0  0  0  0
    5.5752    3.8720  -27.2065 F   0  0  0  0  0  0  0  0  0  0  0  0
    7.0038    0.7107  -22.4036 S   0  0  0  0  0  0  0  0  0  0  0  0
    6.0007   -5.4469  -19.8530 H   0  0  0  0  0  0  0  0  0  0  0  0
    6.1642    8.8053  -24.7929 H   0  0  0  0  0  0  0  0  0  0  0  0
    4.2315   -5.2709  -18.1147 H   0  0  0  0  0  0  0  0  0  0  0  0
    6.6294   -3.4561  -21.1966 H   0  0  0  0  0  0  0  0  0  0  0  0
    5.3669    7.6379  -26.8627 H   0  0  0  0  0  0  0  0  0  0  0  0
    6.3885    7.4919  -22.6675 H   0  0  0  0  0  0  0  0  0  0  0  0
    3.6676   -1.1181  -19.1015 H   0  0  0  0  0  0  0  0  0  0  0  0
    4.3698    0.6164  -19.9149 H   0  0  0  0  0  0  0  0  0  0  0  0
    7.1119   -1.7861  -22.3133 H   0  0  0  0  0  0  0  0  0  0  0  0
    6.0709    5.7283  -20.5466 H   0  0  0  0  0  0  0  0  0  0  0  0
    7.5428    5.4877  -21.5478 H   0  0  0  0  0  0  0  0  0  0  0  0
    5.9512    2.9168  -23.2952 H   0  0  0  0  0  0  0  0  0  0  0  0
    4.2658    3.3599  -22.8594 H   0  0  0  0  0  0  0  0  0  0  0  0
    7.6636    3.2015  -21.0680 H   0  0  0  0  0  0  0  0  0  0  0  0
    4.6040    3.4515  -16.5419 H   0  0  0  0  0  0  0  0  0  0  0  0
    6.2844    2.8172  -16.5257 H   0  0  0  0  0  0  0  0  0  0  0  0
    5.9932    4.5865  -16.6321 H   0  0  0  0  0  0  0  0  0  0  0  0
    3.4222    3.1732  -20.8273 H   0  0  0  0  0  0  0  0  0  0  0  0
    2.3010    3.4848  -18.9076 H   0  0  0  0  0  0  0  0  0  0  0  0
    3.1645    3.7445  -17.4288 H   0  0  0  0  0  0  0  0  0  0  0  0
  1 11  1  0  0  0  0
  1 25  3  0  0  0  0
  2  4  1  0  0  0  0
  2  5  2  0  0  0  0
  3  6  1  0  0  0  0
  3  7  2  0  0  0  0
  4 11  2  0  0  0  0
  5 12  1  0  0  0  0
  6 15  2  0  0  0  0
  7 16  1  0  0  0  0
  8 11  1  0  0  0  0
  8 12  2  0  0  0  0
  9 13  1  0  0  0  0
  9 14  2  0  0  0  0
 10 13  2  0  0  0  0
 10 35  1  0  0  0  0
 12 13  1  0  0  0  0
 14 22  1  0  0  0  0
 14 35  1  0  0  0  0
 15 24  1  0  0  0  0
 15 26  1  0  0  0  0
 16 26  2  0  0  0  0
 16 27  1  0  0  0  0
 17 21  1  0  0  0  0
 17 28  1  0  0  0  0
 17 31  2  0  0  0  0
 18 28  1  0  0  0  0
 18 29  2  0  0  0  0
 18 30  1  0  0  0  0
 19 21  1  0  0  0  0
 19 27  1  0  0  0  0
 20 22  1  0  0  0  0
 20 27  1  0  0  0  0
 21 22  1  0  0  0  0
 22 29  1  0  0  0  0
 23 28  1  0  0  0  0
 24 32  1  0  0  0  0
 24 33  1  0  0  0  0
 24 34  1  0  0  0  0
  2 36  1  0  0  0  0
  3 37  1  0  0  0  0
  4 38  1  0  0  0  0
  5 39  1  0  0  0  0
  6 40  1  0  0  0  0
  7 41  1  0  0  0  0
  8 42  1  0  0  0  0
  9 43  1  0  0  0  0
 10 44  1  0  0  0  0
 19 45  1  0  0  0  0
 19 46  1  0  0  0  0
 20 47  1  0  0  0  0
 20 48  1  0  0  0  0
 21 49  1  0  0  0  0
 23 50  1  0  0  0  0
 23 51  1  0  0  0  0
 23 52  1  0  0  0  0
 29 53  1  0  0  0  0
 30 54  1  0  0  0  0
 30 55  1  0  0  0  0
M  CHG  1  29   1
M  END
> <OMEGA_C>
1mE1QBzvQ8Ar34vBkhSwQMgdkMAAeZ3BCAu9QAc2+EA3IMbBXOiPQPX9jMDaopXB8YK7QIgNWMC5
i6PBbn2uQF0440BRcM/B07LAQOTO4ED7jrzBAfeFQCpfA8BIC5rB9jOlQCCn1z6A+aTBA2PUQA97
Z78SRq/BOpZ1QOh9S8An85PB192mQB6zCMBbyqHBQDi1QITzbL/1eqfBL/K5QNENsz+plqrBuYmj
QAtIt0Cy3M7Bpqa0QFJhtUB8pLzBe0DZQD7kaUDfJJnBNNOLQPb3WUDDspjBSDHSQAL5oUBzIarB
NkyqQJhpXEAxgbTBL8LXQLzcaUAGYaXBWuKwQMAlOED+hqnBYOizQFwdZkDgdYfBlSeWQNG4nEBW
dNjBmEIBQBADPcCSQYXBUkCmQE8+okBsl8XBmPu2QKRym0A+vbPBvUSzQOA3YEDgRZPBwwyKQNiE
SkDk/6LBm6BKQGrMY0DBSpPB9Xv7QFRbeEA+tpTBTiiVQJ0etEC6k+HB/39dQJG9i0C+nNbBSGiy
QAzPd0DnptnBgR/gQALuNT+pOrPBfgXAQNVMrsDs0p7BdUHFQIjiDEH2V8bBumiHQNWqqMDi6pDB
1yPUQP8vXcCxkqnBa72rQAxq9EDn5tbBYW7MQKu970D/VrXBjblqQAEdj7/az5jBYdWLQG3PHT+0
UZ/BlJTjQOue5L+QgbLBBkXCQEVOt0CAX6TBpl7xQFubr0DqYazBGXC+QNasOkCSXLrBkIGIQPgH
V0Ac4LbBjjz1QOnkTEBTi6jBvVOTQNDlXEC7VYTBeBnJQGdMNECQNITBlMi/QKvEkkCYDoXBFQZb
QCYWS0A+nqbBcEMTQFUGX0C/QpfBlIdKQIWmb0AubovBtLLAQJgYtsCy9pjBZB4/QIEUYsC61JzB
esywQJ7twEDyMdDBr5ZyQK67lMDhUprBFQNlQPDwFcCSm6DBMhqtQO2L7EDNtM3BuWm2QOmXo0CD
2MfBx/G4QO4uWcCBfp/B3YKiQJOMoj6K5qTBO/bZQNIqh7/5p6vBQxWmQHxhksCNnJvB/VufQFFo
EcCTBqLBqs2zQDb0hb+hJ6bB7+S8QFGRoz+zSKnBFp6vQCTw+UAE4sLBNSy5QI66skD3Nr3B457a
QLn2bkC3C5nBHt6MQDfvXkDdQJnBDeTUQMxFn0BiqqrBq/SwQDjcUEBzFLXBjq/aQM0WZ0BqPqXB
oZ+0QI0FMkCwcanBodaxQJyrgUAAAIjBJkSqQMJ1FEHz3b/BqbnWQOT20sCa0ZbB8RW2QC8J3UCQ
8LrBg7a+QD3XlUCE47TBWW6zQJjhbEAIiZPBjMCMQHVOSED3aqPBaLNKQFZgaEC5O5TB91/8QKbJ
f0ATfJTBKvukQG0WIUF9osjB6obNQEI4G0E5d7rB9GOHQFy/FkFFdLnBrr7pQIvSCj/iOa/B8hL1
P6K7ZcBA25vBTVevQFottkD4ZdjB7HNVQHPXscCia5fBSYk9QO8pvr/2aqLBGF+oQAvkAUHs/dPB
hpy4QATBgUA5g8nBZjXbQFv4VcBgjKDB04eEQOQHCj9T/KDBetnrQECl+b8ZhK3BW0/BQKWLtEBw
paXBfiH0QJdSrkCSLazBc/3FQGcKK0BtUbrBg7ePQGeZS0CJ5rfBHN/4QCrgSUBB66fBSrWQQPIS
fkDJGYXBi2jGQIA8V0APdoPB6jq9QNWtokD544bB+H1hQPLsRUDPRqfBO7YUQGcSXkDrVJjBTfRH
QGp1eUD7h4zB

> <OMEGA_E>
4HCAPm7XMz8=

> <OMEGA_NBR>
     35411

$$$$
50220736
  -OEChem-04172616093D

 54 58  0     1  0  0  0  0  0999 V2000
    2.8627   -3.0434  -17.4581 C   0  0  0  0  0  0  0  0  0  0  0  0
    5.5128   -4.5111  -19.6642 C   0  0  0  0  0  0  0  0  0  0  0  0
    4.5159   -4.4026  -18.6770 C   0  0  0  0  0  0  0  0  0  0  0  0
    5.8592   -3.3937  -20.4428 C   0  0  0  0  0  0  0  0  0  0  0  0
    4.1898   -2.0607  -19.2603 C   0  0  0  0  0  0  0  0  0  0  0  0
    5.1433    0.3897  -20.6557 C   0  0  0  0  0  0  0  0  0  0  0  0
    6.0903    7.7044  -24.4813 C   0  0  0  0  0  0  0  0  0  0  0  0
    5.1650    5.8972  -25.8036 C   0  0  0  0  0  0  0  0  0  0  0  0
    6.6369   -0.9321  -21.9237 C   0  0  0  0  0  0  0  0  0  0  0  0
    3.8539   -3.1757  -18.4776 C   0  0  0  0  0  0  0  0  0  0  0  0
    5.2099   -2.1548  -20.2359 C   0  0  0  0  0  0  0  0  0  0  0  0
    5.6538   -0.9529  -20.9586 C   0  0  0  0  0  0  0  0  0  0  0  0
    5.6087    7.2264  -25.7138 C   0  0  0  0  0  0  0  0  0  0  0  0
    5.8094    1.3663  -21.3365 C   0  0  0  0  0  0  0  0  0  0  0  0
    5.6195    5.6416  -23.5306 C   0  0  0  0  0  0  0  0  0  0  0  0
    6.7740    3.6320  -19.1432 C   0  0  0  0  0  0  0  0  0  0  0  0
    4.3555    3.3960  -19.1047 C   0  0  0  0  0  0  0  0  0  0  0  0
    6.5418    5.0137  -21.2640 C   0  0  0  0  0  0  0  0  0  0  0  0
    5.3229    3.3986  -22.5755 C   0  0  0  0  0  0  0  0  0  0  0  0
    6.7314    3.6171  -20.6719 C   0  0  2  0  0  0  0  0  0  0  0  0
    5.5226    2.8373  -21.1989 C   0  0  2  0  0  0  0  0  0  0  0  0
    5.6284    8.1063  -26.9313 C   0  0  0  0  0  0  0  0  0  0  0  0
    5.5946    3.5804  -16.9415 C   0  0  0  0  0  0  0  0  0  0  0  0
    2.0576   -2.9226  -16.6239 N   0  0  0  0  0  0  0  0  0  0  0  0
    6.0868    6.9025  -23.4052 N   0  0  0  0  0  0  0  0  0  0  0  0
    5.1664    5.1297  -24.7056 N   0  0  0  0  0  0  0  0  0  0  0  0
    5.6524    4.8135  -22.4410 N   0  0  2  0  0  0  0  0  0  0  0  0
    5.5835    3.4862  -18.4173 N   0  0  0  0  0  0  0  0  0  0  0  0
    4.3053    3.1285  -20.3880 N   0  3  0  0  0  0  0  0  0  0  0  0
    3.1504    3.5859  -18.4423 N   0  0  0  0  0  0  0  0  0  0  0  0
    7.8345    3.8933  -18.5861 O   0  0  0  0  0  0  0  0  0  0  0  0
    7.0124    0.6829  -22.4079 S   0  0  0  0  0  0  0  0  0  0  0  0
    6.0128   -5.4550  -19.8238 H   0  0  0  0  0  0  0  0  0  0  0  0
    4.2585   -5.2599  -18.0726 H   0  0  0  0  0  0  0  0  0  0  0  0
    6.6232   -3.4815  -21.2011 H   0  0  0  0  0  0  0  0  0  0  0  0
    3.6673   -1.1264  -19.1173 H   0  0  0  0  0  0  0  0  0  0  0  0
    4.3313    0.5827  -19.9703 H   0  0  0  0  0  0  0  0  0  0  0  0
    6.4624    8.7152  -24.4013 H   0  0  0  0  0  0  0  0  0  0  0  0
    4.8261    5.4978  -26.7480 H   0  0  0  0  0  0  0  0  0  0  0  0
    7.1125   -1.8140  -22.3265 H   0  0  0  0  0  0  0  0  0  0  0  0
    6.0688    5.6838  -20.5310 H   0  0  0  0  0  0  0  0  0  0  0  0
    7.5082    5.4359  -21.5767 H   0  0  0  0  0  0  0  0  0  0  0  0
    5.9942    2.9093  -23.2966 H   0  0  0  0  0  0  0  0  0  0  0  0
    4.2798    3.2708  -22.9005 H   0  0  0  0  0  0  0  0  0  0  0  0
    7.6577    3.1716  -21.0635 H   0  0  0  0  0  0  0  0  0  0  0  0
    6.5915    7.9930  -27.4506 H   0  0  0  0  0  0  0  0  0  0  0  0
    4.8110    7.8151  -27.6073 H   0  0  0  0  0  0  0  0  0  0  0  0
    5.4970    9.1554  -26.6276 H   0  0  0  0  0  0  0  0  0  0  0  0
    4.5735    3.4404  -16.5570 H   0  0  0  0  0  0  0  0  0  0  0  0
    6.2516    2.8003  -16.5294 H   0  0  0  0  0  0  0  0  0  0  0  0
    5.9672    4.5705  -16.6402 H   0  0  0  0  0  0  0  0  0  0  0  0
    3.4139    3.1195  -20.8413 H   0  0  0  0  0  0  0  0  0  0  0  0
    2.2879    3.5169  -18.9438 H   0  0  0  0  0  0  0  0  0  0  0  0
    3.1447    3.7918  -17.4638 H   0  0  0  0  0  0  0  0  0  0  0  0
  1 10  1  0  0  0  0
  1 24  3  0  0  0  0
  2  3  1  0  0  0  0
  2  4  2  0  0  0  0
  3 10  2  0  0  0  0
  4 11  1  0  0  0  0
  5 10  1  0  0  0  0
  5 11  2  0  0  0  0
  6 12  1  0  0  0  0
  6 14  2  0  0  0  0
  7 13  1  0  0  0  0
  7 25  2  0  0  0  0
  8 13  2  0  0  0  0
  8 26  1  0  0  0  0
  9 12  2  0  0  0  0
  9 32  1  0  0  0  0
 11 12  1  0  0  0  0
 13 22  1  0  0  0  0
 14 21  1  0  0  0  0
 14 32  1  0  0  0  0
 15 25  1  0  0  0  0
 15 26  2  0  0  0  0
 15 27  1  0  0  0  0
 16 20  1  0  0  0  0
 16 28  1  0  0  0  0
 16 31  2  0  0  0  0
 17 28  1  0  0  0  0
 17 29  2  0  0  0  0
 17 30  1  0  0  0  0
 18 20  1  0  0  0  0
 18 27  1  0  0  0  0
 19 21  1  0  0  0  0
 19 27  1  0  0  0  0
 20 21  1  0  0  0  0
 21 29  1  0  0  0  0
 23 28  1  0  0  0  0
  2 33  1  0  0  0  0
  3 34  1  0  0  0  0
  4 35  1  0  0  0  0
  5 36  1  0  0  0  0
  6 37  1  0  0  0  0
  7 38  1  0  0  0  0
  8 39  1  0  0  0  0
  9 40  1  0  0  0  0
 18 41  1  0  0  0  0
 18 42  1  0  0  0  0
 19 43  1  0  0  0  0
 19 44  1  0  0  0  0
 20 45  1  0  0  0  0
 22 46  1  0  0  0  0
 22 47  1  0  0  0  0
 22 48  1  0  0  0  0
 23 49  1  0  0  0  0
 23 50  1  0  0  0  0
 23 51  1  0  0  0  0
 29 52  1  0  0  0  0
 30 53  1  0  0  0  0
 30 54  1  0  0  0  0
M  CHG  1  29   1
M  END
> <OMEGA_C>
NDc3QF3HQsA+qovBPGmwQNtakMBdUJ3B/4GQQGPijMCWapXBcn67QMQyWcDpiqPB3RKGQNLiA8AZ
FZrBGJakQLmDxz7GPqXBJOTCQKqK9kCp2cPBtkelQES2vECwbc7BG2HUQOCcbr+8Y6/BiKV2QEU/
S8A40pPBeLemQJHnCcA546HBhuu0QPbvc79Gq6fBQHqzQAY/50D0tc3Bgea5QKrjrj8+sarBLdOz
QK6HtECqPrzBjMTYQD1yaEA/JZnBQmCLQMJYWUB/1pjBklbRQFlwoEClHKrBXVWqQNiBWUCMmrTB
p2fXQEB+Z0D4X6XB8biwQDaWNUBgl6nBGxy0QImzAUFSc9fBjwazQMckZUA0iIfBUbADQFcLO8DG
/YTB/sbCQA7h3EDPPbvBXFOlQHkmpEAWpcXBFOC0QDIImkARh7PByquyQEEdX0CcVpPBrcSJQLo5
SECyGqPBzp9JQLR/ZUDqiZPB6LP6QM0reUBVsJTBlWXgQPzULj9xQ7PBCWnAQFiPrsArl57B7EWI
QNJQqMC3lJDBJfHTQKXQXsDim6nBaLRqQAIvkL8i8JjBppmKQHIrFT8yw5/B1cvOQFBxC0HQNcPB
Xm+aQP7tr0Dr+9XB9pnjQKQy6L+ynLLB7DPCQBHitUCRP6TBgEPwQB7zrUAAnazBttC/QDMyOkBg
X7rBb/SIQP9UUUBENLfBMQz1QMr6SkAggqjBW+3SQPPG/0DsmtvBePOZQKsV+kDC29zBP+evQFt8
EkFCBdXBJlqSQKMvXECndITB8AzIQNA4M0AdPITBGvO+QJ1BkkAqH4XBmX1aQOylR0DvuqbBeW0S
QCAUYUDPjJfBB0NJQEGsckDOtYvB6uk1QAxTQcA5yYvBESOxQL62j8DoBp3B4g+RQMwcjMDXK5XB
IQi8QOBaWMB4W6PBVyCGQB0GA8AYFJrB9MCkQBAJyz7FOqXB9VClQErKu0A+bs7BY93BQKhq9kDe
8MPBCxzUQJ7hbb9/eK/Beed2QNzxScB4vpPBQvimQBU5CcA60qHBJvi0QKZMcr8jrKfBQfCyQGCE
5kBNys3BA9u5QHl9rz9TvqrB4X+zQAODtEA4NrzB6FTZQHAgaUAeN5nBVfWLQGh9WED1wZjBawHS
QDlroECJOKrB6keqQG7iWUDpj7TBfcPXQMyDZ0Ayb6XBBuGwQFzmNUCFlqnBjr2zQGwZAUFEm9fB
1vSzQJxjaEChjofBpcYAQCYyOcALUoXBZXalQGuao0ArmMXBr+/BQGgR3UD4RbvBcKe0QDo8mkDl
drPBA2WzQCSoX0CjVpPB0B2KQByuSEDxDKPBg+BKQCSQYUDAV5PBjkL7QAQae0AP1ZTBCfXfQKQu
Lz+babPBJGjBQK/YrcAiMZ7BvgeJQI5Wp8AiPpDBVInUQOsyXsDsZ6nB0lpqQHK6jr/ZCZnBrP2K
QDZhFz9vr5/B09SaQN6TrkDD+NXBuT7NQJh7C0F2W8PBZzPjQEv/57+BtbLB3brDQHJEtkDgUKTB
IOzwQIVarUB86azBi7+/QPTbOkDDW7rBZ+KIQLx9UUAkI7fBLEX1QL51SkAFkqjBUheVQAigCUEw
WtjBEvLNQIbGDEH08dbBhMi4QDgT7kA5t97BY3GTQIbpXkBzZoTBAYbJQHsJOEDMHYTBE1W/QOlb
lEAZZIXBoRxbQIg/SUBxqKbBZ4YTQAkBXEBQTJfBIrxKQGOobUCofIvB

> <OMEGA_E>
qIoSPtBNFj4=

> <OMEGA_NBR>
     37519

$$$$
50491798
  -OEChem-04172616093D

 48 51  0     1  0  0  0  0  0999 V2000
    4.6899   -2.6246  -20.2875 C   0  0  0  0  0  0  0  0  0  0  0  0
    6.1662   -1.1108  -21.5910 C   0  0  0  0  0  0  0  0  0  0  0  0
    6.3644    0.3193  -21.8473 C   0  0  0  0  0  0  0  0  0  0  0  0
    5.1013   -1.3455  -20.7557 C   0  0  0  0  0  0  0  0  0  0  0  0
    5.5294    7.3036  -25.4613 C   0  0  0  0  0  0  0  0  0  0  0  0
    5.4375    1.1005  -21.1953 C   0  0  0  0  0  0  0  0  0  0  0  0
    6.0884    7.6542  -24.2139 C   0  0  0  0  0  0  0  0  0  0  0  0
    5.0152    6.0053  -25.6319 C   0  0  0  0  0  0  0  0  0  0  0  0
    5.7006    5.4865  -23.4584 C   0  0  0  0  0  0  0  0  0  0  0  0
    6.7334    3.2481  -19.1455 C   0  0  0  0  0  0  0  0  0  0  0  0
    4.2986    3.3309  -19.0890 C   0  0  0  0  0  0  0  0  0  0  0  0
    6.7247    4.6267  -21.2944 C   0  0  0  0  0  0  0  0  0  0  0  0
    5.3623    3.1423  -22.6317 C   0  0  0  0  0  0  0  0  0  0  0  0
    6.6999    3.2241  -20.6776 C   0  0  2  0  0  0  0  0  0  0  0  0
    5.4035    2.6090  -21.2188 C   0  0  2  0  0  0  0  0  0  0  0  0
    6.5352    9.0715  -23.9363 C   0  0  0  0  0  0  0  0  0  0  0  0
    5.5617    3.2871  -16.9293 C   0  0  0  0  0  0  0  0  0  0  0  0
    3.5082    4.5158  -26.7632 C   0  0  0  0  0  0  0  0  0  0  0  0
    4.3458   -3.6649  -19.8909 N   0  0  0  0  0  0  0  0  0  0  0  0
    6.1550    6.7382  -23.2292 N   0  0  0  0  0  0  0  0  0  0  0  0
    5.1152    5.1214  -24.6207 N   0  0  0  0  0  0  0  0  0  0  0  0
    4.2370    3.1285  -20.4619 N   0  0  0  0  0  0  0  0  0  0  0  0
    5.8317    4.5297  -22.4792 N   0  0  3  0  0  0  0  0  0  0  0  0
    5.5366    3.3311  -18.4116 N   0  0  0  0  0  0  0  0  0  0  0  0
    3.1697    3.5094  -18.4505 N   0  3  0  0  0  0  0  0  0  0  0  0
    7.8267    3.2724  -18.5915 O   0  0  0  0  0  0  0  0  0  0  0  0
    4.3851    5.6701  -26.8185 O   0  0  0  0  0  0  0  0  0  0  0  0
    5.4451    8.2081  -26.4635 F   0  0  0  0  0  0  0  0  0  0  0  0
    4.3142    0.1244  -20.2885 S   0  0  0  0  0  0  0  0  0  0  0  0
    6.7858   -1.8895  -22.0105 H   0  0  0  0  0  0  0  0  0  0  0  0
    7.1484    0.7146  -22.4761 H   0  0  0  0  0  0  0  0  0  0  0  0
    6.3437    5.3718  -20.5805 H   0  0  0  0  0  0  0  0  0  0  0  0
    7.7460    4.8993  -21.5988 H   0  0  0  0  0  0  0  0  0  0  0  0
    6.0318    2.5690  -23.2899 H   0  0  0  0  0  0  0  0  0  0  0  0
    4.3392    3.1137  -23.0348 H   0  0  0  0  0  0  0  0  0  0  0  0
    7.5591    2.6475  -21.0510 H   0  0  0  0  0  0  0  0  0  0  0  0
    6.8743    9.1518  -22.8929 H   0  0  0  0  0  0  0  0  0  0  0  0
    7.3627    9.3339  -24.6119 H   0  0  0  0  0  0  0  0  0  0  0  0
    5.6938    9.7602  -24.1023 H   0  0  0  0  0  0  0  0  0  0  0  0
    4.5350    3.3652  -16.5422 H   0  0  0  0  0  0  0  0  0  0  0  0
    6.0070    2.3374  -16.5983 H   0  0  0  0  0  0  0  0  0  0  0  0
    6.1620    4.1262  -16.5478 H   0  0  0  0  0  0  0  0  0  0  0  0
    3.0651    4.3434  -27.7552 H   0  0  0  0  0  0  0  0  0  0  0  0
    4.0866    3.6302  -26.4613 H   0  0  0  0  0  0  0  0  0  0  0  0
    2.7079    4.6982  -26.0309 H   0  0  0  0  0  0  0  0  0  0  0  0
    3.3896    3.3371  -20.9503 H   0  0  0  0  0  0  0  0  0  0  0  0
    3.1721    3.6500  -17.4605 H   0  0  0  0  0  0  0  0  0  0  0  0
    2.3050    3.5051  -18.9529 H   0  0  0  0  0  0  0  0  0  0  0  0
  1  4  1  0  0  0  0
  1 19  3  0  0  0  0
  2  3  1  0  0  0  0
  2  4  2  0  0  0  0
  3  6  2  0  0  0  0
  4 29  1  0  0  0  0
  5  7  1  0  0  0  0
  5  8  2  0  0  0  0
  5 28  1  0  0  0  0
  6 15  1  0  0  0  0
  6 29  1  0  0  0  0
  7 16  1  0  0  0  0
  7 20  2  0  0  0  0
  8 21  1  0  0  0  0
  8 27  1  0  0  0  0
  9 20  1  0  0  0  0
  9 21  2  0  0  0  0
  9 23  1  0  0  0  0
 10 14  1  0  0  0  0
 10 24  1  0  0  0  0
 10 26  2  0  0  0  0
 11 22  1  0  0  0  0
 11 24  1  0  0  0  0
 11 25  2  0  0  0  0
 12 14  1  0  0  0  0
 12 23  1  0  0  0  0
 13 15  1  0  0  0  0
 13 23  1  0  0  0  0
 14 15  1  0  0  0  0
 15 22  1  0  0  0  0
 17 24  1  0  0  0  0
 18 27  1  0  0  0  0
  2 30  1  0  0  0  0
  3 31  1  0  0  0  0
 12 32  1  0  0  0  0
 12 33  1  0  0  0  0
 13 34  1  0  0  0  0
 13 35  1  0  0  0  0
 14 36  1  0  0  0  0
 16 37  1  0  0  0  0
 16 38  1  0  0  0  0
 16 39  1  0  0  0  0
 17 40  1  0  0  0  0
 17 41  1  0  0  0  0
 17 42  1  0  0  0  0
 18 43  1  0  0  0  0
 18 44  1  0  0  0  0
 18 45  1  0  0  0  0
 22 46  1  0  0  0  0
 25 47  1  0  0  0  0
 25 48  1  0  0  0  0
M  CHG  1  25   1
M  END
> <OMEGA_C>
fROWQBj6J8DfTKLBNlHFQIoujr9luqzB/KjLQCl1oz5Kx67BPT6jQMg5rL+/C6bBfPCwQEa36UC7
sMvBz/+tQCzdjD8QkKnB9tPCQPbu9EAZtsHBI3ygQHgrwEA0Ds3BKGu2QCuRr0DUqrvB0XfXQHHh
T0DsKZnB142JQMotVUBXtpjB2TDXQKcNlEDfWqrBvZerQHYbSUDSDbXBt2XWQNxXTkDSa6XBuOms
QIz5JkAtwKnBjiDRQLUkEUF5fb/BPvmxQKVgUkA5b4fBb4ZgQDKBkEAWG9bBtxCLQGiNasCWIJ/B
DPbEQFCf10Bq1bnB3q+jQEHio0A398TBhZWHQMs5SEAHsqPBmJ26QEzzkEBa1bPB/yuxQEAxVUAP
S5PBhdxKQFSZYECxmpPBUHT6QLtuUUB9u5TBrFKMQGRxtUBbjNbBhz6uQEJUA0EytdPBtA2KQAze
/j3kTqLBWiXZQJHc8b+OFbDBAsDkQHLuNj8Kz7PBOf/KQOnlq0D0pKTBJt/3QOvGnEBVyqzBfATB
QDVrJECjUbrBndqKQIVHR0BXR7jBHeTxQF5xKUBpaKjBbvrbQOFtEkG3JLfBLJvrQKNXFUEW5cTB
ijO2QPspHEF90cDBnx6RQERfV0CBVoTBTjnAQEmXFUBAyYTBEC/FQCgKhEDpYYTBDipEQE79ikCP
Ct7BvMWCQAlVaEC7sNPBfE4tQF9XlkBUP9DB8u9YQESSVUA1mqfBYQNLQBSZaUALr4vB5oUTQMNS
YEB6n5fBxTCTQN7uJcCyZqTBJMvFQIRthb89YK3BkS/OQJJOyT5LYa7BISGiQN5Ypr8jTKfBiE2o
QK9S4kAnu8zBf0CwQOjfkz/hEanBAOecQNfltkBTLs3BRsu7QE8y8kCTX8PBX125QPV2rUCfEbzB
BBnYQJ6JVED9RpjBizyKQDR6U0ASB5jB+jbXQHsHl0CvnKnBlaGtQFasSkBySLTBv8jXQIzmU0AB
lqTBVfeuQCJnKkBl+6jB/0CBQNJypUAKHNbB1dCxQJT6TUA8rYbBL2fcQGclFkHg0rnBP9uGQMFM
acAb3KHBaM+lQCSJnUBA4MTBRYrEQAcg10ClKLvBeBSJQHaqSkC6EKPBsxC+QAVWkUAIprPByX6x
QO70TkALhJLBSRhMQNLJX0Ct+ZLBYnr6QPIUXUCNrZPB6IjCQPfqDkH9qcLBqHafQFvW/ECT/dTB
4cqJQIBbID738KLBMV7ZQLuO579a/rDBI9DoQBaNTj9syLLBl4bHQIsdrkAnQKTB8uX3QLr6oUBl
ZavB8g/CQLNFI0D4fLnBdqaMQEgwSkCDW7fBrOTzQN+gMECHhafB2jBwQApFhEBRRNTBp5BIQCIy
uUDQ49bBpkeTQLUzpkBsqt3BacmQQAFfSUBlsIPBAljEQO6QFkDY2IPBFpHAQAqjhEBPsYPBRWzf
QLqrJ0EtILrB9SrNQEtvEUGfP7LBV1z8QOXXDkGJWbrB1vpcQFovWkA+EqfB4rFLQAw7ZkAeBIvB
MzkVQFK/YkCJE5fBvAPWQCTRIsB+3bDBmbOgQMoDm7+3zabBeM2UQCSePD4XzaTBGUbDQHrUqL/T
ha3Bs+mxQKq36ECknsvBqCGvQJiqiD9eE6rB4pvFQJhV80AK0MHBjzWgQBWgv0Dy28zB0+e2QD7F
rkDmi7vBd77WQLwjTkDn+5jBGviIQIQzUUBfdJjBq/bVQOJgk0DnE6rBRsipQNo2SUCJzrTBD3bV
QAjATEB+PqXBSSKsQLSfJEAMoKnBC23WQIL7D0GOzL/BG9uxQBjBVUC/QofBUI5bQMk9kUAxktXB
44XlQPjvYsCWnrPBxnDHQCsp1kCo57nBNl2jQG1fo0DMw8TB1peGQEy2QkBJZaPBwXa5QESqkEDP
jbPBUYywQBjbTUA6EJPBaeNKQORWY0ADY5PBiG35QDLYWECBmZTBKdOKQHddtUCmN9bByd6uQKXk
AkFLmdPBDhbWQKqUaT74f7HBgCmQQNGuA8BOYqPB1NF0QNvh9z4GxJ/BsanJQOPsqkD3TaTBJZr2
QPZanECxfazBqFC+QMzcJEADU7rBvqiIQCa/SEDCyLfBFyDxQI6CKEA1QqjBjpPiQAcWEUHyjrfB
Dn/wQE13E0EQc8XBjXG8QOyjG0Ej7cDBlQ+RQHpEVEC2EYTB0k7EQHw6IECb4oPBoy7BQGJRiUBQ
D4XBHFk9QGcKjECoad3Bjmp/QO3UaEB5PtPBAtopQNrel0A9kM/BDLdVQK/PTEBJLqfBRw5MQIot
b0CzhovBtXMTQOpaZUBiYJfB

> <OMEGA_E>
wOvIPAhneT6Auo4+

> <OMEGA_NBR>
      2763

$$$$
220608
  -OEChem-04172616093D

 51 54  0     1  0  0  0  0  0999 V2000
    4.5574   -2.3175  -20.1890 C   0  0  0  0  0  0  0  0  0  0  0  0
    7.1194   -0.6947  -22.3415 C   0  0  0  0  0  0  0  0  0  0  0  0
    6.3592   -1.6659  -21.6797 C   0  0  0  0  0  0  0  0  0  0  0  0
    6.8060    0.6589  -22.1847 C   0  0  0  0  0  0  0  0  0  0  0  0
    4.9529    0.0797  -20.6978 C   0  0  0  0  0  0  0  0  0  0  0  0
    5.2831   -1.2864  -20.8576 C   0  0  0  0  0  0  0  0  0  0  0  0
    5.7214    1.0673  -21.3694 C   0  0  0  0  0  0  0  0  0  0  0  0
    5.4296    7.3467  -25.4322 C   0  0  0  0  0  0  0  0  0  0  0  0
    6.0376    7.6862  -24.2046 C   0  0  0  0  0  0  0  0  0  0  0  0
    4.9722    6.0297  -25.6202 C   0  0  0  0  0  0  0  0  0  0  0  0
    5.7637    5.4883  -23.4869 C   0  0  0  0  0  0  0  0  0  0  0  0
    6.7244    3.2479  -19.1289 C   0  0  0  0  0  0  0  0  0  0  0  0
    4.2984    3.1373  -19.1082 C   0  0  0  0  0  0  0  0  0  0  0  0
    6.5590    4.7084  -21.1984 C   0  0  0  0  0  0  0  0  0  0  0  0
    5.2498    3.2073  -22.5914 C   0  0  0  0  0  0  0  0  0  0  0  0
    6.6874    3.2931  -20.6525 C   0  0  2  0  0  0  0  0  0  0  0  0
    5.4484    2.5661  -21.2171 C   0  0  2  0  0  0  0  0  0  0  0  0
    6.4777    9.1052  -23.9257 C   0  0  0  0  0  0  0  0  0  0  0  0
    5.5322    3.2504  -16.9347 C   0  0  0  0  0  0  0  0  0  0  0  0
    3.5419    4.4623  -26.7521 C   0  0  0  0  0  0  0  0  0  0  0  0
    4.0044   -3.2002  -19.6660 N   0  0  0  0  0  0  0  0  0  0  0  0
    6.1866    6.7494  -23.2484 N   0  0  0  0  0  0  0  0  0  0  0  0
    5.1621    5.1240  -24.6417 N   0  0  0  0  0  0  0  0  0  0  0  0
    5.9211    4.5209  -22.5207 N   0  0  3  0  0  0  0  0  0  0  0  0
    5.5243    3.1679  -18.4119 N   0  0  0  0  0  0  0  0  0  0  0  0
    4.2427    2.8756  -20.3934 N   0  3  0  0  0  0  0  0  0  0  0  0
    3.0976    3.3635  -18.4489 N   0  0  0  0  0  0  0  0  0  0  0  0
    7.8068    3.3528  -18.5629 O   0  0  0  0  0  0  0  0  0  0  0  0
    4.3033    5.6974  -26.7872 O   0  0  0  0  0  0  0  0  0  0  0  0
    5.2566    8.2747  -26.4011 F   0  0  0  0  0  0  0  0  0  0  0  0
    7.9456   -0.9900  -22.9713 H   0  0  0  0  0  0  0  0  0  0  0  0
    6.6002   -2.7116  -21.8009 H   0  0  0  0  0  0  0  0  0  0  0  0
    7.3996    1.4045  -22.6927 H   0  0  0  0  0  0  0  0  0  0  0  0
    4.1231    0.3694  -20.0701 H   0  0  0  0  0  0  0  0  0  0  0  0
    5.9272    5.3254  -20.5425 H   0  0  0  0  0  0  0  0  0  0  0  0
    7.5477    5.1790  -21.3036 H   0  0  0  0  0  0  0  0  0  0  0  0
    5.7068    2.5847  -23.3747 H   0  0  0  0  0  0  0  0  0  0  0  0
    4.1780    3.3352  -22.8036 H   0  0  0  0  0  0  0  0  0  0  0  0
    7.5974    2.8249  -21.0557 H   0  0  0  0  0  0  0  0  0  0  0  0
    6.8857    9.1695  -22.9062 H   0  0  0  0  0  0  0  0  0  0  0  0
    7.2525    9.3977  -24.6497 H   0  0  0  0  0  0  0  0  0  0  0  0
    5.6151    9.7814  -24.0187 H   0  0  0  0  0  0  0  0  0  0  0  0
    4.5024    3.1687  -16.5569 H   0  0  0  0  0  0  0  0  0  0  0  0
    6.1392    2.4296  -16.5250 H   0  0  0  0  0  0  0  0  0  0  0  0
    5.9613    4.2143  -16.6237 H   0  0  0  0  0  0  0  0  0  0  0  0
    3.0570    4.3020  -27.7263 H   0  0  0  0  0  0  0  0  0  0  0  0
    4.2174    3.6213  -26.5361 H   0  0  0  0  0  0  0  0  0  0  0  0
    2.7743    4.5270  -25.9668 H   0  0  0  0  0  0  0  0  0  0  0  0
    3.3492    2.8841  -20.8424 H   0  0  0  0  0  0  0  0  0  0  0  0
    2.2350    3.3236  -18.9532 H   0  0  0  0  0  0  0  0  0  0  0  0
    3.0953    3.5662  -17.4697 H   0  0  0  0  0  0  0  0  0  0  0  0
  1  6  1  0  0  0  0
  1 21  3  0  0  0  0
  2  3  1  0  0  0  0
  2  4  2  0  0  0  0
  3  6  2  0  0  0  0
  4  7  1  0  0  0  0
  5  6  1  0  0  0  0
  5  7  2  0  0  0  0
  7 17  1  0  0  0  0
  8  9  1  0  0  0  0
  8 10  2  0  0  0  0
  8 30  1  0  0  0  0
  9 18  1  0  0  0  0
  9 22  2  0  0  0  0
 10 23  1  0  0  0  0
 10 29  1  0  0  0  0
 11 22  1  0  0  0  0
 11 23  2  0  0  0  0
 11 24  1  0  0  0  0
 12 16  1  0  0  0  0
 12 25  1  0  0  0  0
 12 28  2  0  0  0  0
 13 25  1  0  0  0  0
 13 26  2  0  0  0  0
 13 27  1  0  0  0  0
 14 16  1  0  0  0  0
 14 24  1  0  0  0  0
 15 17  1  0  0  0  0
 15 24  1  0  0  0  0
 16 17  1  0  0  0  0
 17 26  1  0  0  0  0
 19 25  1  0  0  0  0
 20 29  1  0  0  0  0
  2 31  1  0  0  0  0
  3 32  1  0  0  0  0
  4 33  1  0  0  0  0
  5 34  1  0  0  0  0
 14 35  1  0  0  0  0
 14 36  1  0  0  0  0
 15 37  1  0  0  0  0
 15 38  1  0  0  0  0
 16 39  1  0  0  0  0
 18 40  1  0  0  0  0
 18 41  1  0  0  0  0
 18 42  1  0  0  0  0
 19 43  1  0  0  0  0
 19 44  1  0  0  0  0
 19 45  1  0  0  0  0
 20 46  1  0  0  0  0
 20 47  1  0  0  0  0
 20 48  1  0  0  0  0
 26 49  1  0  0  0  0
 27 50  1  0  0  0  0
 27 51  1  0  0  0  0
M  CHG  1  26   1
M  END
> <OMEGA_C>
h9aRQMFRFMATg6HBgdLjQHbXMb9Xu7LBt37LQKo61b//b63B2srZQAerKD8/erHBKX6eQPc9oz0P
laXBMQ+pQOCnpL9r3KbBbBW3QLmdiD+G9KrBUb+tQGoY60ARdcvBPzTBQCD19UAco8HBhByfQPHy
wEA79szBPHC4QI6gr0A15bvBZi7XQFDdT0D8B5nBq4yJQOvJSECx3ZjBT+PRQGGrlkBDlqnBCP6n
QJZDTUApu7TBTP/VQEHCUkBlOKXBVFmuQMA7JECqvKnBKknPQOmuEUHvZ7/B8wexQAsHUEBKeofB
5K5iQNnKjkBLBNbBcySAQHXQTMAHVJ3BwvjFQAn710C3/LnBADClQNz3o0BNIsXBQnm9QPKqkEBQ
KrTBO8ewQK+/SkCOS5PBiMSHQI0KOEDFJaPBAD9GQCFDV0BSl5PBHdH5QG2UVkDkgJTBhbSJQOxQ
tkAvTNbBKzaoQBhlBEFoNdPBfUL+QGxtfb8zxbfBkDTTQFKLLcBIaK7Bz8nsQFTFsz+wirXBtvCD
QOkdvT6Rj6DBj6u9QPZpqkAeV6TBtYbxQBC6pUC8barBXp62QKZrJUBM/7rBZbKFQAN0VUCvbbbB
Tx7zQHTKNEArcqjBVlfcQB62EkH0P7fBeBToQNxcFkGbMsXBrK6zQLaAHEEzJsDBiROQQBDMSkB7
dITBLXTEQLp+G0A6M4TBRcO+QPPbhkBf/YTBxKVDQDWqiUCPz93BlvSGQP3DZ0ADStTB244xQHHd
kEAXvM/Bq1lWQJWUOEA4vabBiwoPQDy2VEA9oJfByhlGQI88ZEDawYvBEnuQQDpzEcD3yKPBbYvn
QHo/FL/077LBHwXNQE6Byb/hra7BG/HeQOYpRD+AxbDBdl2gQIAECD7JL6bB9smpQAXEnL9oQKjB
AjC7QMNjkj8Fd6rBQwSpQOdp4UCFMc3BaUeaQHEBt0B588zB9Wy+QPnZ8UCqJsTBrVK3QJdDr0BK
1rvBlPXXQIpHV0ByGpjBgmKKQN5+TUDccJjBwLvTQD9UmkCmD6nBnT6rQO6dT0DW4LPB+UnYQJj3
WUDHW6TBN7KxQJaFKECo8qjBGnl8QMjypEBdutXBFd+vQK5aTkAvy4bB65bbQP+wFkHZbLrBSsJ5
QFQySsDdO6DBgZehQNYin0BfTMTBqM3FQEkM2EBllbvBxVi8QDiXk0DrTbPB6dGwQECKVEDenpLB
/yiKQM4oOkBepKLBNgpGQMjaWUDhh5PBrzT6QNjHVkD5UZPBc+/IQKFtDkE9JsTBPnihQGGF+kAf
zdXBLUYBQdV9Wb9P4LfByaDTQMlKJ8CsVbDBgNXzQHzFwz+58rPB/+yEQOEezD40YqHB40jBQIIN
r0BSpaPB2FfzQD2qqEC5hqrBgaC8QPpwKkA39bnB5vyIQDQUUUDC5LXBWRH2QNrhPEAkU6fBut1m
QAGvhEBDedPBp4pEQBrUuUB+39bBT56QQMo2o0BhON3BSnaOQHoETUAZB4TBrC7AQAleE0A+QYTB
AEfAQNgKg0AeUYPBKn7iQG7WJ0EaaLvB/QTFQOt3FEGtw7PBDXn5QIIPDkEnsbjBe+hbQKMQN0CM
ZqbBpRQQQPjmU0CRxJfBv0lDQKS1aEDCwYvBXX74QDmL5b8vEaHBiXuPQGwxkL+6mq7BbJqyQAfu
6L9lOqrBlmaOQAhYkD7uVa7B4kjTQD1imz4qIqXB/4rUQBEbjb+zgaXBlG2wQCKogT+Yp6nBIa+w
QDsY60BgjMvBytHGQOT880DQ+MHBDX6eQLYtwkAo6szBz064QB6YrkAbBLzBvIfXQHFFVUDI5JjB
blqJQAiYUUC/0JjBtXTUQMQllUAkEarBvtyqQMbaRkAGzLTBYpfWQNzxUECMH6XBdCKuQHkVI0DZ
X6nB1wHbQAqzD0GYGcDB6rOwQCQIa0DBl4fBwVVtQIIujkAmF9fBXf0KQfQjFsCGcZ3BJzXKQLaN
1UDkYLrB9MCiQGizpEAqEcXBSh+8QNKqj0A8IbTB+7KwQNzOV0AEOZPBILWHQA96PUASDKPBNk1F
QMFxYEBlmZPBlCH6QDHlXkCLaJTBL5eIQHLuuEAqSNbBzO+sQAicBEFeSdPBU7RqQIJp1r+MK7LB
j4ezQEyHOcA4farB8txmQJTbTj8oubHBgxftQFmwWD/0XqHB083DQH9tq0CKrKTBfdL0QChEoUCK
vKvBKga+QCULIEBaXLrBVVWJQKnDR0BIebfBbEjzQLJ2L0DHCKjBGK3qQFTlD0F1OLjBv+jyQHDZ
EkF9XcbBuBnCQCUgHEFSW8DBNaWPQLQ0akA+koTBFbXDQFN8OkBZWIPBKMW+QMJTlUD2PYbB8FlM
QF6pikCa0N7B7YiQQBjVbEBQhtbBkG4/QMQSiUCtitDB0chWQL36P0DOwqbBTi0OQNKqW0CcnpfB
vOBEQO7gb0Dj1YvBagH4QEVj5b/nkaHBdquOQBDFjb9x467BV9+xQMA557/hnKrBZqyNQAPNmT5z
ia7BfNHSQOXhnj5mdKXBV/vTQLMtjL/G6KXB6N+vQPg3gz9G4KnBeiewQO/W7EBYXMvBTKWdQJUZ
xEA628zBw4DGQBkF9UDXyMHB5HO3QGojr0ASHrzBKrPXQLE6VUBXGpnBB4iJQK7iUUC13ZjBFBjU
QL5dlUD9ParB5gyqQInVR0CE8LTB81jWQCFNUUC8VqXB6rKtQK/NI0Dzh6nBZ1mFQI+muUAUAdfB
cHSxQB1MakAetIfBKF3vQHduEUG+HbbBMsYKQcVjFsD5Bp7B7aehQID2pUA0M8XBv5vJQMbN1UCy
V7rB/3m7QAgEkEBFSbTB1g+xQC2oV0BSWZPBSoaHQAcxPkBrG6PBRwtGQMi9YECzj5PB5HX6QERo
XkD4rZTBg+nYQF5yDkH0LcDBfpGsQErEBUFx9tLB/tJoQAto07+2cLLBkLuyQKSpOMDm76rBGUZl
QGe9VD9W2LHBH8LsQE1CWT/4tKHBNJTDQECUq0BDzqTBkWv0QJuAoUCy86vBXuy8QMj9IECuj7rB
/GuIQMwMSUD6iLfBYOfyQC7KL0CUU6jBCkFzQLd+mEBSn9bBTxJUQIebz0B01NfB4bqaQDNEvUCo
793BRH6QQER2aUAKnoTBKorEQPd0OUAkiIPBc6K/QB7llEC6VIbBWX/8QNe+IUH9w7XBfvrYQAoJ
D0F1bq/Bjs8EQfLEBUH2hrXBwS9WQEgHQUDkwqbBBqUOQChIXEAsh5fBNCxGQJ/cb0CuyYvB

> <OMEGA_E>
uAAcPhDwuD4YGb4+lIQGPw==

> <OMEGA_NBR>
      6498

$$$$
50491831
  -OEChem-04172616093D

 50 53  0     1  0  0  0  0  0999 V2000
    6.3942    0.2947  -21.8575 C   0  0  0  0  0  0  0  0  0  0  0  0
    6.1628   -1.1415  -21.6721 C   0  0  0  0  0  0  0  0  0  0  0  0
    5.4314    7.3230  -25.4025 C   0  0  0  0  0  0  0  0  0  0  0  0
    5.4575    1.0660  -21.2081 C   0  0  0  0  0  0  0  0  0  0  0  0
    5.8833    7.6753  -24.1141 C   0  0  0  0  0  0  0  0  0  0  0  0
    5.0246    5.9979  -25.6280 C   0  0  0  0  0  0  0  0  0  0  0  0
    5.0647   -1.3980  -20.8885 C   0  0  0  0  0  0  0  0  0  0  0  0
    5.7433    5.4450  -23.4730 C   0  0  0  0  0  0  0  0  0  0  0  0
    6.7491    3.2229  -19.1352 C   0  0  0  0  0  0  0  0  0  0  0  0
    4.3168    3.2788  -19.0892 C   0  0  0  0  0  0  0  0  0  0  0  0
    6.7380    4.6015  -21.2832 C   0  0  0  0  0  0  0  0  0  0  0  0
    5.3960    3.1055  -22.6371 C   0  0  0  0  0  0  0  0  0  0  0  0
    6.7227    3.1981  -20.6688 C   0  0  2  0  0  0  0  0  0  0  0  0
    5.4300    2.5773  -21.2186 C   0  0  2  0  0  0  0  0  0  0  0  0
    7.5932    9.4485  -23.7661 C   0  0  0  0  0  0  0  0  0  0  0  0
    5.5787    3.2540  -16.9257 C   0  0  0  0  0  0  0  0  0  0  0  0
    3.4667    4.5766  -26.7576 C   0  0  0  0  0  0  0  0  0  0  0  0
    6.1027    9.1188  -23.7281 C   0  0  0  0  0  0  0  0  0  0  0  0
    6.0753    6.7204  -23.1859 N   0  0  0  0  0  0  0  0  0  0  0  0
    5.1802    5.0841  -24.6489 N   0  0  0  0  0  0  0  0  0  0  0  0
    4.2612    3.0992  -20.4659 N   0  0  0  0  0  0  0  0  0  0  0  0
    5.9056    4.4789  -22.5085 N   0  0  3  0  0  0  0  0  0  0  0  0
    5.5486    3.2068  -18.4054 N   0  0  0  0  0  0  0  0  0  0  0  0
    3.1958    3.5178  -18.4564 N   0  3  0  0  0  0  0  0  0  0  0  0
    7.8327    3.3422  -18.5742 O   0  0  0  0  0  0  0  0  0  0  0  0
    4.4095    5.6743  -26.8224 O   0  0  0  0  0  0  0  0  0  0  0  0
    5.3143    8.2486  -26.3824 F   0  0  0  0  0  0  0  0  0  0  0  0
    4.2890    0.0696  -20.3769 S   0  0  0  0  0  0  0  0  0  0  0  0
    4.5205   -2.9910  -20.4411 Cl  0  0  0  0  0  0  0  0  0  0  0  0
    7.2086    0.7015  -22.4386 H   0  0  0  0  0  0  0  0  0  0  0  0
    6.7859   -1.9109  -22.1034 H   0  0  0  0  0  0  0  0  0  0  0  0
    6.3024    5.3350  -20.5887 H   0  0  0  0  0  0  0  0  0  0  0  0
    7.7644    4.9032  -21.5388 H   0  0  0  0  0  0  0  0  0  0  0  0
    6.0435    2.5066  -23.2945 H   0  0  0  0  0  0  0  0  0  0  0  0
    4.3695    3.1031  -23.0323 H   0  0  0  0  0  0  0  0  0  0  0  0
    7.5871    2.6276  -21.0394 H   0  0  0  0  0  0  0  0  0  0  0  0
    7.7439   10.5009  -23.4838 H   0  0  0  0  0  0  0  0  0  0  0  0
    8.1304    8.7989  -23.0594 H   0  0  0  0  0  0  0  0  0  0  0  0
    7.9795    9.2828  -24.7827 H   0  0  0  0  0  0  0  0  0  0  0  0
    4.5500    3.2329  -16.5367 H   0  0  0  0  0  0  0  0  0  0  0  0
    6.1334    2.3849  -16.5424 H   0  0  0  0  0  0  0  0  0  0  0  0
    6.0753    4.1793  -16.5985 H   0  0  0  0  0  0  0  0  0  0  0  0
    3.0370    4.4023  -27.7551 H   0  0  0  0  0  0  0  0  0  0  0  0
    3.9851    3.6678  -26.4179 H   0  0  0  0  0  0  0  0  0  0  0  0
    2.6620    4.8257  -26.0503 H   0  0  0  0  0  0  0  0  0  0  0  0
    5.5673    9.7703  -24.4345 H   0  0  0  0  0  0  0  0  0  0  0  0
    5.7183    9.2865  -22.7112 H   0  0  0  0  0  0  0  0  0  0  0  0
    3.4203    3.3250  -20.9578 H   0  0  0  0  0  0  0  0  0  0  0  0
    3.2001    3.6542  -17.4658 H   0  0  0  0  0  0  0  0  0  0  0  0
    2.3353    3.5640  -18.9638 H   0  0  0  0  0  0  0  0  0  0  0  0
  1  2  1  0  0  0  0
  1  4  2  0  0  0  0
  2  7  2  0  0  0  0
  3  5  1  0  0  0  0
  3  6  2  0  0  0  0
  3 27  1  0  0  0  0
  4 14  1  0  0  0  0
  4 28  1  0  0  0  0
  5 18  1  0  0  0  0
  5 19  2  0  0  0  0
  6 20  1  0  0  0  0
  6 26  1  0  0  0  0
  7 28  1  0  0  0  0
  7 29  1  0  0  0  0
  8 19  1  0  0  0  0
  8 20  2  0  0  0  0
  8 22  1  0  0  0  0
  9 13  1  0  0  0  0
  9 23  1  0  0  0  0
  9 25  2  0  0  0  0
 10 21  1  0  0  0  0
 10 23  1  0  0  0  0
 10 24  2  0  0  0  0
 11 13  1  0  0  0  0
 11 22  1  0  0  0  0
 12 14  1  0  0  0  0
 12 22  1  0  0  0  0
 13 14  1  0  0  0  0
 14 21  1  0  0  0  0
 15 18  1  0  0  0  0
 16 23  1  0  0  0  0
 17 26  1  0  0  0  0
  1 30  1  0  0  0  0
  2 31  1  0  0  0  0
 11 32  1  0  0  0  0
 11 33  1  0  0  0  0
 12 34  1  0  0  0  0
 12 35  1  0  0  0  0
 13 36  1  0  0  0  0
 15 37  1  0  0  0  0
 15 38  1  0  0  0  0
 15 39  1  0  0  0  0
 16 40  1  0  0  0  0
 16 41  1  0  0  0  0
 16 42  1  0  0  0  0
 17 43  1  0  0  0  0
 17 44  1  0  0  0  0
 17 45  1  0  0  0  0
 18 46  1  0  0  0  0
 18 47  1  0  0  0  0
 21 48  1  0  0  0  0
 24 49  1  0  0  0  0
 24 50  1  0  0  0  0
M  CHG  1  24   1
M  END
> <OMEGA_C>
jp3MQKTglj433K7BdzXFQJcbkr9yYK3B682tQBZW6kBhOMvBtKOuQIpziD8qqqnBx0O8QMmb9UC+
6cDBmMmgQBjvv0ATBs3BYRKiQF/xsr+zG6fBXMm3QG09rkDByLvB/PjXQE1DTkDfFJnBnCOKQGLX
UUC0tpjBV53XQI0/k0D9Q6rBTqysQKDARkC4GLXBXiDXQPqsTECkWaXBKMKtQIDyJECnv6nB4/vy
QAAtF0ECIb7BjISyQJFBUEDNZ4fBKN9dQDRzkkCjD9bBR0nDQMLmEUEd073BFWnCQDsN10C/fLnB
McSlQACxokAIMcXBaluIQJRYRkAYuqPBZfq8QCBTj0B4EbTBWY6xQGE8TUAtPpPB5YdMQKkjYUDB
ppPBW6X6QBnnVUDdl5TBdhqNQMWTtUA2lNbBiw6qQGr6A0E2D9PB0T+JQHR9jj3dA6PBTKiQQKBs
P8BYh6PBvKzmQNGXMz9ZgrPBYSbZQGOZ9L+y07DB8qzJQEC4qkDCtaTBVXb4QOXmnEBiT6zB+mPB
QGFsIEATW7rB8dKLQI6ZRkAxQrjB6MnyQDcrKECoUKjByc33QM8DKEHr3rvBTBYCQX3IDEGNebjB
1Vf/QCmGFEHkQsbBdZmRQFDnTkAYS4TB5UTEQK6hGEDnVoTBPmnCQDW9hUCzyYTB+15CQGnfjEB+
Ct7BMQx/QM+8akDyV9PBbF4qQIVsmkAHZ9DBnSeyQClTHEHLecPBYPy2QH2VFEFzsLXBOOZaQLLM
VEB8qafBMs5MQDbeaUDpuYvBcHUVQDAYZEDPtZfBgWKUQKwDJz6vOqXBxaKfQCkDnr+mgqfBVout
QArc6UBrAsvBehmwQDFlhj+s/KnBqCS+QBBy9EBi2cDBTiugQAqSv0D328zBJhPDQL8prL918q3B
rnC3QOlzrUBSrrvBOhnXQJz/TkCA5pjBCmiJQDzDVUBxi5jBUR3WQIQak0DYFarBd72qQGTQRkBe
0rTB1hLWQPSsTEDSKaXB/fCsQOSyI0BViqnB5BPzQIq/F0Fx6sLBk9exQDL8W0DvQ4fBrAFZQFu5
k0AcvtXBr4vIQGIKEUF5473Bb+HDQDnB1UCie7nBi02lQCIXokBzF8XBdS6HQBTaQkAXZ6PBhyG7
QOEkj0B7zrPBFMewQHCeUkDgDpPBAt1LQFz/akAno5PBsvH5QCQ6VEA2cZTBDBqMQFeFtUCsYtbB
fo6oQL79A0EwrtLBiczXQNbiVD6VN7HBqfDYQCpPNsDoVLLB/dtyQId56z4JX6DBTv2NQG80BcBp
dqTBZlDIQKGFqkCGfqTBJ9X2QI/knECsN6zBrd++QO/vIEA8RbrBR5KJQIwHR0CNxLfBu/DxQJm4
KEAwHajBzUj6QBxlKEHhssDBuV4GQb42DUFz/r/B19HwQDd1FkGHrMvBo++QQDqXXUCgJYTBUBLD
QIl2JUAOvYPBI1LCQK/ti0BlJ4XBahA9QOFAjkABtN3Bm7p3QO5HbEBa6tLBuDYmQCsZnUAzHtDB
z/euQG2fG0FI0MDBaePKQPRgEkE0IrXBq5tWQHRsSkD+NqfB7d1MQAdjeUDY14vBErAUQFTSbEA/
r5fBDCbOQDDjvT6XJ6/BJTnHQHuFib/BDa7BWxasQMzS5kAxd8zBQ7GvQEZljj9K2anBoJeeQLYO
vEB/F83BqXS/QBw49UDg+MLBBuijQOk8r78W9afBxEC4QBhYsECgyLvB4Q/XQJcCTkAbyJjB/zCJ
QDfNT0AslpjBPUPWQOxOlkA7rKnB0gOtQCspTEDyz7TBnbfWQGflUEDhEKXBf/qtQEMpKECZoanB
IJtCQOo5kEDLCdTBHMuwQN/2SECwMofByqHaQD+IF0GXXbjBnG2JQOggqkBFCtfBEJmlQKrOoUBX
0sTBM0fFQByH2UASrrrBwgGIQEMBR0DxoaPBCRO8QGa4kkALmLPBqGSwQC8tSkD3CpPB6ABKQPfP
XECQkJPBRKT5QHcfUUBDK5TBp9DLQLjWD0FMkcLBuYumQLj6AEEJytTBb3uKQIB4lz2MhqPBMbuS
QHLnPsBq6KTBPT/oQGr4TT+jobPBG5/bQIZB6b8to7HBTnjHQHO/rEB4/aPBlOz2QE4PoUAJjqvB
9H7CQFfiJ0B9G7rBilGMQMenSkD5ELjBF97yQJ+WLkDSJqjB2b4kQP54g0CCV9vBdttUQIEla0Ai
w87B/tcUQMAdpUCW3M/B472PQD7jRUD+MYTBTazCQGKgEECpZITBSUbAQFW9gUBZNITBE3rjQAaD
KEHSDbnBuwPBQO/BFUFbZbLBirr2QOgzDkHu2LXBmiuAQNOvxEDhVNzBVi2gQNQklUBtO9vBemla
QOelVUAhmqfBRW1JQB4GY0BRmovBGE0TQKWJYEDwsJfBKO+TQEA7QT6xiqXBbqWeQOrimr/D6qfB
hXOrQCdH6ECXbsvBtWywQIEDiT/xEqrBCdaeQLKGvUDZ2MzBtSC8QLKi9EBuesHBxG3CQHzyqb/v
OK7Bvcq4QO/yrUBrw7vBu+rWQK+iTkBE05jBAjOJQBkCVkARp5jBESrWQI1AlEB63KnBOv2rQBKA
SEDDzbTBaV7WQL8hTkD5FKXBIYOtQEgVJUDpkanBs5VMQIzai0BcZNTBtfuwQM8PWkB8RIfBpXnp
QM0xF0GLZ73BM6iGQOvMr0Cjz9bB+cSmQKACoUDwDsXBJFnDQKMh10Dn0bnBbXWHQGAqRECZiqPB
ngG8QPs2kEAqt7PBlVuwQEIHUkDIEpPBvg9LQNbgakCIzpPBf5/5QERNUUBxRJTBf8a+QDiwD0HK
Jr/BmrClQAvUAkEyPtPBNEHYQKgoYj7HNLHBbqDXQDeNNcDasbLBSYpxQH0q+z7+xqDB2GWMQE9j
A8A8BqXBHY/HQJMuq0B3RaTBd+L2QNumnkBUzavBI6HAQMkKI0DALbrBUQaLQJhJSEDF47fB+HHy
QHj4KkDBDqjBMgUrQJLegkBSy9vBi7NuQIitX0CxMtHBjtYdQBYyl0BTdM7BAPaPQI2vW0AhOoTB
sOzBQLb1IkBty4PBZorBQOzAikDhAoXBoMjoQPppKEGzl7vBA773QMV+DkESo7bB57r8QIZwFEEm
pMTBRKFqQFGRy0BiC9rBIb+dQP81pEDAydzBv6dXQMNzTED+cKfBUmhLQHNmeEDL/IvBwEAUQClK
bUAt7ZfB

> <OMEGA_E>
kLpTPoAXiD7wMbQ+BFXOPg==

> <OMEGA_NBR>
     10191

$$$$
50491832
  -OEChem-04172616093D

 47 50  0     1  0  0  0  0  0999 V2000
    6.4073    0.2952  -21.8465 C   0  0  0  0  0  0  0  0  0  0  0  0
    6.2102   -1.1430  -21.6269 C   0  0  0  0  0  0  0  0  0  0  0  0
    5.4452    7.3321  -25.4194 C   0  0  0  0  0  0  0  0  0  0  0  0
    5.4622    1.0618  -21.2026 C   0  0  0  0  0  0  0  0  0  0  0  0
    6.0371    7.6688  -24.1840 C   0  0  0  0  0  0  0  0  0  0  0  0
    4.9869    6.0169  -25.6147 C   0  0  0  0  0  0  0  0  0  0  0  0
    5.1303   -1.4077  -20.8212 C   0  0  0  0  0  0  0  0  0  0  0  0
    5.7536    5.4659  -23.4750 C   0  0  0  0  0  0  0  0  0  0  0  0
    6.7290    3.2236  -19.1355 C   0  0  0  0  0  0  0  0  0  0  0  0
    4.2959    3.2611  -19.0909 C   0  0  0  0  0  0  0  0  0  0  0  0
    6.7034    4.6186  -21.2662 C   0  0  0  0  0  0  0  0  0  0  0  0
    5.3823    3.1177  -22.6393 C   0  0  0  0  0  0  0  0  0  0  0  0
    6.7015    3.2089  -20.6671 C   0  0  2  0  0  0  0  0  0  0  0  0
    5.4164    2.5774  -21.2222 C   0  0  2  0  0  0  0  0  0  0  0  0
    6.4658    9.0906  -23.8974 C   0  0  0  0  0  0  0  0  0  0  0  0
    5.5561    3.2714  -16.9276 C   0  0  0  0  0  0  0  0  0  0  0  0
    3.5137    4.4962  -26.7498 C   0  0  0  0  0  0  0  0  0  0  0  0
    6.1763    6.7276  -23.2287 N   0  0  0  0  0  0  0  0  0  0  0  0
    5.1590    5.1082  -24.6350 N   0  0  0  0  0  0  0  0  0  0  0  0
    4.2421    3.0852  -20.4686 N   0  0  0  0  0  0  0  0  0  0  0  0
    5.8999    4.4952  -22.5076 N   0  0  3  0  0  0  0  0  0  0  0  0
    5.5282    3.2038  -18.4064 N   0  0  0  0  0  0  0  0  0  0  0  0
    3.1707    3.4713  -18.4553 N   0  3  0  0  0  0  0  0  0  0  0  0
    7.8123    3.3517  -18.5760 O   0  0  0  0  0  0  0  0  0  0  0  0
    4.3385    5.6885  -26.7933 O   0  0  0  0  0  0  0  0  0  0  0  0
    5.2829    8.2626  -26.3880 F   0  0  0  0  0  0  0  0  0  0  0  0
    4.3278    0.0546  -20.3329 S   0  0  0  0  0  0  0  0  0  0  0  0
    4.6295   -3.0045  -20.3337 Cl  0  0  0  0  0  0  0  0  0  0  0  0
    7.2054    0.7064  -22.4468 H   0  0  0  0  0  0  0  0  0  0  0  0
    6.8439   -1.9075  -22.0516 H   0  0  0  0  0  0  0  0  0  0  0  0
    6.2404    5.3364  -20.5730 H   0  0  0  0  0  0  0  0  0  0  0  0
    7.7292    4.9415  -21.4974 H   0  0  0  0  0  0  0  0  0  0  0  0
    6.0256    2.5197  -23.3016 H   0  0  0  0  0  0  0  0  0  0  0  0
    4.3548    3.1216  -23.0319 H   0  0  0  0  0  0  0  0  0  0  0  0
    7.5725    2.6517  -21.0424 H   0  0  0  0  0  0  0  0  0  0  0  0
    6.8592    9.1560  -22.8722 H   0  0  0  0  0  0  0  0  0  0  0  0
    7.2489    9.3881  -24.6102 H   0  0  0  0  0  0  0  0  0  0  0  0
    5.6008    9.7622  -24.0016 H   0  0  0  0  0  0  0  0  0  0  0  0
    4.5273    3.2439  -16.5393 H   0  0  0  0  0  0  0  0  0  0  0  0
    6.1203    2.4140  -16.5321 H   0  0  0  0  0  0  0  0  0  0  0  0
    6.0419    4.2067  -16.6126 H   0  0  0  0  0  0  0  0  0  0  0  0
    3.0509    4.3338  -27.7344 H   0  0  0  0  0  0  0  0  0  0  0  0
    4.1376    3.6282  -26.4903 H   0  0  0  0  0  0  0  0  0  0  0  0
    2.7271    4.6222  -25.9913 H   0  0  0  0  0  0  0  0  0  0  0  0
    3.3992    3.3041  -20.9600 H   0  0  0  0  0  0  0  0  0  0  0  0
    3.1726    3.5954  -17.4630 H   0  0  0  0  0  0  0  0  0  0  0  0
    2.3094    3.5078  -18.9621 H   0  0  0  0  0  0  0  0  0  0  0  0
  1  2  1  0  0  0  0
  1  4  2  0  0  0  0
  2  7  2  0  0  0  0
  3  5  1  0  0  0  0
  3  6  2  0  0  0  0
  3 26  1  0  0  0  0
  4 14  1  0  0  0  0
  4 27  1  0  0  0  0
  5 15  1  0  0  0  0
  5 18  2  0  0  0  0
  6 19  1  0  0  0  0
  6 25  1  0  0  0  0
  7 27  1  0  0  0  0
  7 28  1  0  0  0  0
  8 18  1  0  0  0  0
  8 19  2  0  0  0  0
  8 21  1  0  0  0  0
  9 13  1  0  0  0  0
  9 22  1  0  0  0  0
  9 24  2  0  0  0  0
 10 20  1  0  0  0  0
 10 22  1  0  0  0  0
 10 23  2  0  0  0  0
 11 13  1  0  0  0  0
 11 21  1  0  0  0  0
 12 14  1  0  0  0  0
 12 21  1  0  0  0  0
 13 14  1  0  0  0  0
 14 20  1  0  0  0  0
 16 22  1  0  0  0  0
 17 25  1  0  0  0  0
  1 29  1  0  0  0  0
  2 30  1  0  0  0  0
 11 31  1  0  0  0  0
 11 32  1  0  0  0  0
 12 33  1  0  0  0  0
 12 34  1  0  0  0  0
 13 35  1  0  0  0  0
 15 36  1  0  0  0  0
 15 37  1  0  0  0  0
 15 38  1  0  0  0  0
 16 39  1  0  0  0  0
 16 40  1  0  0  0  0
 16 41  1  0  0  0  0
 17 42  1  0  0  0  0
 17 43  1  0  0  0  0
 17 44  1  0  0  0  0
 20 45  1  0  0  0  0
 23 46  1  0  0  0  0
 23 47  1  0  0  0  0
M  CHG  1  23   1
M  END
> <OMEGA_C>
ZQjNQHwplz6Zxa7BB7rGQFNPkr/XA63BXD+uQM6g6kDZWsvBg8quQODnhz/9nqnBPjDBQJpm9UDG
eMHBv5SfQFKKwEDP6szBZCukQEAwtL/IkabBTB24QOXorkC5zLvBxFPXQIhPTkCUFZnB3XeJQP+1
UEAVupjBOoLWQGXLk0AoIarBGTysQN2HR0BTHbXBlXLWQEpfTUA6VqXB21KtQFnzJEAHx6nBgufO
QCFzEUHYLb/Bw8uxQCpfUUDEa4fBwOBgQCHhj0CS/9XBMaTFQHlI10BK1LnBPhalQGZ2o0CBFMXB
LL+HQHFzRUCjv6PB3cu8QE3Yj0CpD7TBXOewQHMLTUBSQJPBgexKQHYqXkB0pJPBF/75QMGBVkCT
m5TB+dSKQJAItkDDWNbB2A2pQMQzBEGKGtPB/HyKQM3RXz20qaLBOyWUQIRKQMBRq6LBnJLmQHbX
ND/5krPBVQHbQBwp9L/AabDBsrHHQH7DqkCWlaTBmlX3QOsgnkCX+qvBw9HAQDdCIUCmabrBi1qL
QA/JR0BvQbjBp1HyQB61KUDaVqjBmH7bQMx+EkFW+rbBTffnQJo1FkG94cTBJjqzQBgyHEEtA8DB
rt+QQJCbT0CKUITBVtnDQER+GkCtQYTBBFfBQIudhkCD5oTBgEFDQCuuikD4393Bc2eEQPE0aEA7
7NPBnIguQAzpk0Ah7s/BrYtZQOh1U0AqrqfBFAtLQNQbZkBKtIvBdc0TQOl/YEB1spfBCI2UQOye
Gj5oTKXBp7KgQBc6n7+uYafBUmWyQG9S6EDJosvB8W+vQCD2hT8PQ6rBfp3FQJFL80Buy8HBKDKg
QMtov0ChxszBxA/EQCVErL/K2a3BrCu2QGYJr0BPYbvB5djWQOCdTkBP/5jBYBqJQCDXUkAZfZjB
86nWQFfXkkAQMarBCLapQKIaSUC6xLTBmaLVQAzrS0AzQKXBV0CsQEqWI0A5oqnBRNzWQEzvD0He
6L/BhgmyQND5WUAdTofBM3tXQGwMk0BIW9XBDAPHQLJk1kDgzbnBFpiiQHyRo0DilcTBp56GQMQ3
QUBEXaPBxMa4QH7SkED/ZLPBiKmwQNBeUEDtFpPBwFZLQKjuZkAmfZPBDpT5QCIEWUC2n5TBxJWL
QFmktEDKMtbBVkawQH9yAkFAv9PBeBrXQBA1Wz6ikbHBVIrbQOgaNsAvybHBaSNzQG6v4T4wbKDB
qrOPQMYTBsAzLqTBj+bLQNvgqkBpWqTBZCz3QNLNmkCH6qzBpoe+QCLPJUB2U7rBkZyIQB31R0Br
wrfBZkDxQLgZJ0CiLqjBKPDiQPMvEUHpqrfBSRDxQOwkE0Huj8XBIiC9QB+xG0FSIcHBiTyRQEj3
WUCjHITBUBTEQIVmJEA/zoPBMNTBQClZi0CyPoXB0v06QJ0ljUBzRN3Bov11QAAca0Cyb9LBTyYl
QEH1nEB4uc/BgihVQBm2SEB1GqfB+bFMQN3odEAPr4vBS98TQMVLaEDxeZfB/ybOQFTFwT5JLq/B
EYvFQP/Oh7+2iq7BzgCrQISu5UCleszBIPGvQBBkkD813KnBhlCdQPDzukCP+szBtbW+QFB29ECS
CsPBHIChQOLqq78yrqjBLtm4QP6gr0Db1bvBNUnXQCuzTkDtmZjB3mmJQD3bT0Abo5jBcmPXQKBy
lkAEnanBfoGuQAfHS0B1wLTBxKDXQB9fUUCX6KTBMvWuQHf8KEAgjqnBp4eCQIimqkDeMtbBs+Gv
QPOsQ0CnLofBGvreQJabFkFi67jBUHCkQKoNoUCyqsTB4bHFQA7T2EDJ0LrBTdmIQJ/aSED3saPB
IOS9QCY9kkAxqbPBP02wQBfkSEDAAJPBOPpJQBffW0BsrpPBrI35QH3GUkD/2pPBj3DIQNvJD0Hp
Y8LBdFCkQItHAEGQy9TBDB2JQMBA2D3WBqTBA7iOQIrHPMDHC6bBdy3pQHuaTT/2W7PBjVTZQN4+
6L90Q7LB/xTIQKkLrUBpDqTBsCP4QC9EoUC4XqvBH/bDQHyLJkDg8rnBFOaNQO2RSkAxELjB7tXz
QEi0LkCu5afBw4lwQA6jiUAFi9TBv2dMQNgtv0BCLNfBWKOVQOZJq0Bnlt3B2qCOQJORP0CjV4TB
lJfBQMpyCkC+mYTBuR+/QBoifUC/0IPBQtXkQFnxJ0E+VbnBhZHLQKn4EkGGzrHB8Ln9QGYbDkEb
ZLjBQRhdQLFpWUA4wafBRqNIQCNTYEDWs4vB8a4TQACYYEAk4JfBuu6SQBQ6XT6CnKbB0++cQHrZ
lb+3jKnBnqarQA535EDDWczBqTexQHg6jT+dQqrBcgWcQJFcukC9pszBp6vAQLTW8kBaDMPBQOXB
QHbmor8vb6/BZ0i4QJbPrkDomLvBmqrWQFXpTkD2ZZjBIuaIQAqiUkALf5jBIy/XQKCalUBhf6nB
IUatQM9DS0CIebTBEhrXQD8PUEAMtaTB34uuQNIGJ0AnX6nB4yt+QD8Fq0BekdXBQjGvQDAET0A2
9IbBXoHlQLFAFUGKiLnBNpGiQICroEBMR8TBnS/HQP5W10CYybrBOhaIQAX5RECTdKPBwlm8QPbj
kUAVULPBEKavQAsMTUDGy5LB6axJQLmDZUDctJPBFub4QPvQU0A+ppPBkz/LQIbfDkE3dsLBvXCl
QAZG/0Ans9TBP9TZQKD2iz7ORLHBL4/WQK3BMMDQc7TByO5tQE2aAT/jGKLBjGOJQJwVAcAKVKfB
4iDJQGmorEAP2qPBIuv3QDOln0D3iavBRoTCQKT2JkCy07nBcHWMQPP3SUCSp7fBI2HzQMobLUD3
mafBPBlmQBXXikB7p9PBK+hHQPgtwUC8bdbBejeRQKnlqUD+Gt3B3OuNQFkaTUBAF4TB7rLAQB9G
F0B61YPBNKG+QHgRhUAoI4TBg6jrQH6PJkFE9rnBFdPUQECEEUFCA7LBoAkCQX6LDEE1z7nB6OJZ
QDKIT0BAe6fBJNRIQLtYcECW0ovB0XQTQEEZaUDv7pfB

> <OMEGA_E>
MInxPdAKPT7gwp0+yGW+Pg==

> <OMEGA_NBR>
     13729

$$$$
50491830
  -OEChem-04172616093D

 53 56  0     1  0  0  0  0  0999 V2000
    6.4603    0.3838  -21.9028 C   0  0  0  0  0  0  0  0  0  0  0  0
    6.2155   -1.0591  -21.8165 C   0  0  0  0  0  0  0  0  0  0  0  0
    5.4433    7.2725  -25.4780 C   0  0  0  0  0  0  0  0  0  0  0  0
    5.5233    1.1178  -21.2113 C   0  0  0  0  0  0  0  0  0  0  0  0
    6.0529    7.6322  -24.2668 C   0  0  0  0  0  0  0  0  0  0  0  0
    4.9563    5.9710  -25.6198 C   0  0  0  0  0  0  0  0  0  0  0  0
    5.1138   -1.3581  -21.0536 C   0  0  0  0  0  0  0  0  0  0  0  0
    5.7198    5.4778  -23.4619 C   0  0  0  0  0  0  0  0  0  0  0  0
    6.7288    3.2692  -19.0790 C   0  0  0  0  0  0  0  0  0  0  0  0
    4.2932    3.2914  -19.0702 C   0  0  0  0  0  0  0  0  0  0  0  0
    6.6891    4.6989  -21.2164 C   0  0  0  0  0  0  0  0  0  0  0  0
    5.4208    3.1648  -22.5921 C   0  0  0  0  0  0  0  0  0  0  0  0
    6.7237    3.2825  -20.6158 C   0  0  2  0  0  0  0  0  0  0  0  0
    5.4603    2.6266  -21.1839 C   0  0  2  0  0  0  0  0  0  0  0  0
    7.0431   10.8800  -22.5154 C   0  0  0  0  0  0  0  0  0  0  0  0
    5.5155    3.1698  -16.8883 C   0  0  0  0  0  0  0  0  0  0  0  0
    3.2102    4.7466  -26.6646 C   0  0  0  0  0  0  0  0  0  0  0  0
    6.6088    9.0167  -24.0975 C   0  0  0  0  0  0  0  0  0  0  0  0
    6.6262    9.4177  -22.6196 C   0  0  0  0  0  0  0  0  0  0  0  0
    6.2051    6.7194  -23.2870 N   0  0  0  0  0  0  0  0  0  0  0  0
    5.0949    5.0945  -24.6035 N   0  0  0  0  0  0  0  0  0  0  0  0
    4.2654    3.1040  -20.4454 N   0  0  0  0  0  0  0  0  0  0  0  0
    5.8549    4.5560  -22.4484 N   0  0  3  0  0  0  0  0  0  0  0  0
    5.5164    3.2958  -18.3663 N   0  0  0  0  0  0  0  0  0  0  0  0
    3.1482    3.4553  -18.4572 N   0  3  0  0  0  0  0  0  0  0  0  0
    7.8095    3.2642  -18.4999 O   0  0  0  0  0  0  0  0  0  0  0  0
    4.3454    5.6218  -26.8028 O   0  0  0  0  0  0  0  0  0  0  0  0
    5.3041    8.1664  -26.4844 F   0  0  0  0  0  0  0  0  0  0  0  0
    4.3504    0.0782  -20.4439 S   0  0  0  0  0  0  0  0  0  0  0  0
    4.5556   -2.9730  -20.7166 Cl  0  0  0  0  0  0  0  0  0  0  0  0
    7.2835    0.8217  -22.4479 H   0  0  0  0  0  0  0  0  0  0  0  0
    6.8322   -1.8031  -22.2986 H   0  0  0  0  0  0  0  0  0  0  0  0
    6.2285    5.4091  -20.5139 H   0  0  0  0  0  0  0  0  0  0  0  0
    7.7037    5.0398  -21.4699 H   0  0  0  0  0  0  0  0  0  0  0  0
    6.1077    2.6057  -23.2445 H   0  0  0  0  0  0  0  0  0  0  0  0
    4.4016    3.1131  -23.0027 H   0  0  0  0  0  0  0  0  0  0  0  0
    7.6114    2.7503  -20.9884 H   0  0  0  0  0  0  0  0  0  0  0  0
    7.0600   11.1825  -21.4580 H   0  0  0  0  0  0  0  0  0  0  0  0
    8.0459   11.0070  -22.9492 H   0  0  0  0  0  0  0  0  0  0  0  0
    6.3242   11.5061  -23.0643 H   0  0  0  0  0  0  0  0  0  0  0  0
    4.4810    3.2127  -16.5167 H   0  0  0  0  0  0  0  0  0  0  0  0
    5.9682    2.2090  -16.6020 H   0  0  0  0  0  0  0  0  0  0  0  0
    6.0969    3.9942  -16.4498 H   0  0  0  0  0  0  0  0  0  0  0  0
    2.7933    4.5263  -27.6584 H   0  0  0  0  0  0  0  0  0  0  0  0
    3.5265    3.8092  -26.1838 H   0  0  0  0  0  0  0  0  0  0  0  0
    2.4436    5.2357  -26.0457 H   0  0  0  0  0  0  0  0  0  0  0  0
    7.6357    9.0438  -24.4909 H   0  0  0  0  0  0  0  0  0  0  0  0
    5.9830    9.7276  -24.6569 H   0  0  0  0  0  0  0  0  0  0  0  0
    7.3442    8.7881  -22.0736 H   0  0  0  0  0  0  0  0  0  0  0  0
    5.6225    9.2872  -22.1888 H   0  0  0  0  0  0  0  0  0  0  0  0
    3.4226    3.2947  -20.9487 H   0  0  0  0  0  0  0  0  0  0  0  0
    3.1260    3.5878  -17.4662 H   0  0  0  0  0  0  0  0  0  0  0  0
    2.2957    3.4480  -18.9798 H   0  0  0  0  0  0  0  0  0  0  0  0
  1  2  1  0  0  0  0
  1  4  2  0  0  0  0
  2  7  2  0  0  0  0
  3  5  1  0  0  0  0
  3  6  2  0  0  0  0
  3 28  1  0  0  0  0
  4 14  1  0  0  0  0
  4 29  1  0  0  0  0
  5 18  1  0  0  0  0
  5 20  2  0  0  0  0
  6 21  1  0  0  0  0
  6 27  1  0  0  0  0
  7 29  1  0  0  0  0
  7 30  1  0  0  0  0
  8 20  1  0  0  0  0
  8 21  2  0  0  0  0
  8 23  1  0  0  0  0
  9 13  1  0  0  0  0
  9 24  1  0  0  0  0
  9 26  2  0  0  0  0
 10 22  1  0  0  0  0
 10 24  1  0  0  0  0
 10 25  2  0  0  0  0
 11 13  1  0  0  0  0
 11 23  1  0  0  0  0
 12 14  1  0  0  0  0
 12 23  1  0  0  0  0
 13 14  1  0  0  0  0
 14 22  1  0  0  0  0
 15 19  1  0  0  0  0
 16 24  1  0  0  0  0
 17 27  1  0  0  0  0
 18 19  1  0  0  0  0
  1 31  1  0  0  0  0
  2 32  1  0  0  0  0
 11 33  1  0  0  0  0
 11 34  1  0  0  0  0
 12 35  1  0  0  0  0
 12 36  1  0  0  0  0
 13 37  1  0  0  0  0
 15 38  1  0  0  0  0
 15 39  1  0  0  0  0
 15 40  1  0  0  0  0
 16 41  1  0  0  0  0
 16 42  1  0  0  0  0
 16 43  1  0  0  0  0
 17 44  1  0  0  0  0
 17 45  1  0  0  0  0
 17 46  1  0  0  0  0
 18 47  1  0  0  0  0
 18 48  1  0  0  0  0
 19 49  1  0  0  0  0
 19 50  1  0  0  0  0
 22 51  1  0  0  0  0
 25 52  1  0  0  0  0
 25 53  1  0  0  0  0
M  CHG  1  25   1
M  END
> <OMEGA_C>
HrvOQBR7xD4IOa/BROXGQL2Rh78iiK7BxC+uQAS46EAB08vB9L6wQOYUjz+7sKnBWrHBQDg79EBk
IsLB+JmeQHQSv0BG9czBUqSjQNnUrb+wbajBAAm3QIRKr0AMsrvBglLXQMg5UUDGoZjBuGGJQHyl
UkCrj5jBBA3WQDxdlkAdu6nBDnetQLSMSkCuvLTBqijXQDAUUkA+7aTBxrquQAQbKECQeKnBvmDh
QFUULkGiH7TBuH6wQOjdSkAkG4fBk3RNQFLkl0AoUdXB9HrTQE9EEEG9x8DBcgnUQLmuFkEA9bTB
JpDGQOwE10DYS7rByAmjQHoGo0AC1MTBJH6IQGynRkBFkKPBOFu7QGnKkUBglrPBFIawQMTtUkAq
7pLBEXxJQDAjXUBLqJPBROf5QFDpUEDG/5PBoA2LQG7ls0AzbNbB4rqpQJepAkEg4NPBMjaLQBA0
oD0pjaPBNseRQDZFPsCWu6XBZRLpQFJYUj8/lbPBqaHaQADN5r+hY7LB1E/HQAEXrUBmHKTBAIX2
QPVFoUBUwqvB/3HDQGDDJkCl9LnBuNmMQM88R0B2BbjBjpDzQFUEMEAm6KfB0evhQIXrMkH+qavB
H7wAQZgcMEHpl7fB31/KQMkYOEG5g7jBYmSPQFacTUA4IoTBq/u+QLdgDUDi0ITBqBnDQHChf0Ah
mYPBrcUyQG7XkEB0RN3BRrJhQO3Jc0BgeNHBw2McQNWKp0ChXdDBelf0QEGzEEFD7cPBmHS/QGGk
G0FsQcXBwwPrQD2cDEHOlrDBY+uzQG+YFEGegrHBgQtbQNnbUkD6lqfB6hBIQLueZUDeuovBnewS
QEyrXEC31pfBtEzMQICKqD56Ba/BJEbFQLQ3jr/Cyq3BwVuoQGdJ60COT8rBdiquQNYuij9urqnB
tzi4QILI9ECLAsDBneOfQGtswEBL5czB7EiiQCw2sr8ai6fBVsO7QNUKrEBmULzBUYTXQJzPT0Dj
EZnBgLmJQCEKUkALh5jBC2rWQCX3kkCyRarBb8uqQOGAR0DyG7XBHkvWQBIuTUA7UqXBFcusQNPB
JUBVr6nBg/cCQQlcFkEgSMHBWIqyQIhHUECmUofBwcJbQEdNk0Dp7dXBUbi4QFEHEUFktbvBw1rY
QHyBH0Hcr8HBf8bCQMbc1ECMVbnB0bapQFpyoUAfzMXBM4uHQIuHRkDtiaPB9hzDQAo0jECL+bTB
iVGxQNbhTUCKJ5PBYRlMQMnVYEBVWpPBC0D6QGuSWUCfrJTBb/WKQCpKt0AgW9bBKXmeQFhJBUHd
W9HBoj+JQLDFbz0KIaPByjaRQFP4P8A1TaTBKjvmQE9CQT86m7PBH1nZQMDe7r/RZLHB0A3DQJJM
qUBDfqXB6Tz3QKBbn0CE+6rBDYi5QOieGUCqrLrBIGqJQMwiU0BmfrfBNd7xQE19KEA+TajBE+gN
Qd4QIUECoMXBxScIQdcEFUFL5rjBUioDQZZvBkFZB8XBVrORQCQ/TkA/KoTBwZPEQAHFGEBPVITB
hEPCQHnNhUCOrYTB4eg9QMO/jkBA0d3Bflp/QFiBbED5ttPBfcwpQPmImUC67c/BEmiYQKbUF0HS
fbzBZ83BQFiMEEG+NbPBhT/YQFZzL0EW9r3BnkTOQBXeIEEkF8rB6s1YQH6QVEB1ZafB/BZNQAF0
aUA7bYvB654UQBOEY0DLU5fBRQ7QQDBCrT5Q/K7B0InKQHTLjb8Dqq3BFg21QJSw50DVt8vBG/Ow
QEa0hz9Xv6nBrq3MQI5J70DyScLBAXCeQML4wEBXqszBPJunQEehtb+ne6fBzri1QKI/rkBkgbvB
z2fWQCukUUAX4ZjBMY6IQO+TUEA115jByy/WQE7qk0DQKqrBCVisQIXmRkAp87TBwGbWQFawTkCe
I6XBce6tQGI1JED5rqnB0UamQDztI0Fj377BU7avQB3+U0ATYYfBmdpZQGJKk0Aq8dXBxa7mQAS1
C0GtqMDBE6DOQPZOG0HkUbnBkoXLQNbx0kAfR7rBiVqfQPzEpECiecTBRo6HQFcfQkB6yaPBDQ25
QNY3kECnjrPBdaKvQF9+T0DcNJPB9EpIQAsLX0BA/ZPBFbT4QJvmWkAQQpTBgnGIQCiJuECODNbB
m7mzQBZ4AkFzsNPBRdCMQACN/zt7QaPBGySYQPNrQsClHaTBh6PpQDl3ST+xjbPB85HfQE4v7L83
KLHBbP/JQEPDq0DpdKTBRpf2QOIFnUDovazBJOrCQEfHJEBiL7rBXtyLQJAkQkCUSbjBQ8DyQLBa
K0AA6qfB5JSVQI0ML0GSernBHm+vQI9hLEFUPsbB7e2QQFaEFkGV38DB8ZmOQFVyUUDgaITBd+TB
QBacHUC4IITBWba+QDciiEDYzoTBF4o6QGzjj0AMx93BhiiAQNEmbUB4RdTB+94oQJkWl0Bwsc/B
mMMCQWCCB0Gl+bzB2lvsQItkE0GBcsjBgMvjQAnJKEFbULfBT0rFQM/rEkGc8bHB3KNYQOoaTEAU
zKfB2DhHQBWraUD2GYzBsbsRQAt4X0C7K5jByKiTQCyFLj7gcqXBZB6eQGwSnb8S7qfB4kasQMK2
6UBuzcrBeRWwQCqBhj/IAarBWZe7QDVG9EANgsDBFmGgQFovv0Dg1czBKqPBQEDwq78VVa7BhDy4
QF+9rEBUvbvBYj/XQAsbT0Aq2JjBG5KJQOqbVkCnl5jB5pTWQIHXkkBdDqrBPTyrQEA4RkDL0bTB
jnHWQAdcTECjG6XBF0mtQCCqI0CEhKnB4TQGQU2BE0GhwcHBtJ6xQIzjW0BLQofBTUxYQDH/k0AW
rdXB0Cm+QPIREUFatbzBjCzgQHUGHkFdtcLB/dPCQPFE1UB/VLnBuz+mQABnoUCcLMXBdH6HQK5e
Q0CFcKPB8rG8QIRZjkDu8bPBZc6wQLjjUkDdDZPBeTRMQP7GbED3vpPBj/n5QEVhVUAyWZTBhvuL
QKyEtUAeVtbB0a2lQMUCBEHBVtLBq5bXQC3mTz6NQ7HBKGLWQHhLNsDzALPBaXVxQPqN8T6VmaDB
NuSLQPmDBMADCqXBZO7HQHUzqkAElqTBKmn3QHbznEBV+qvBJ7u+QLf5HkARQ7rBPf+JQO/oR0Bi
tbfBzE7yQAYwKECxBKjBMBASQbchHUE6IcbBy8wKQa+JEkFvRrnBopoFQZpNA0EpLsXBiqWQQOuw
XUDgL4TB66XCQAIcJUC6u4PBZC7CQHrGi0B4GIXBxcw7QJrLjkD6nd3Br7F2QHp3bECe6dLBWv4l
QMN4nUBl/s/BlNOeQMq0GEGW7b3BlwvGQEEdEUHDIbTB+6fhQJw8LkF9Tb/Bp0PXQIcAH0E2NcvB
+2dXQBQUS0BlSafBSQdNQJJ8e0D39YvBzDgVQE7+bkC11JfBFLiXQDSSBj4fx6XB6gylQNRTn78y
J6jBPEa4QNlm5EDhI8zBkriyQEYRiD/9OarBnBXPQIwD7UAmo8LBNtmeQGRiv0Cmo8zBgkLJQEr0
pb8KXa7BbomzQLYOr0AgH7vBsPrVQAu3UUDXvZjBFkGIQGNnVEDIq5jBQpPUQO6tlEBZ56nBNKyq
QEgjSUAEorTBBKDVQIK0T0BX/6TBLHOtQLr7I0CYhanBFk+yQHV2IEFXQrrBQoevQMGiXUBqQ4fB
4dNXQBh7kkDhrNXBltztQEkUCUH0usHB9O3WQNzHHkEOb8LB3ifLQFLT0kBgOLrBbCmdQAUnpUAB
EcTBaMqGQFDuPkDvcaPBnue1QDuWkUC3AbPBkk+vQJLkU0D/C5PBqpRIQNI1aUBt95PB4Ij4QJx7
V0BIJ5TBFjaJQB9NtkCqCdbBPtW6QES+/kD0sdTBMijcQGtClD4pV7HBHIPhQNzxMMCgu7LB2b93
QFYWxD59EqHBYDyUQJqpB8D6U6XBxmDJQJtArECR/6PBbIr0QHbhnUBHyKzBs4PBQJW7KUCSDrrB
wRqKQDndQkDS4LfBWTfyQLKhLUDL3KfBJLqiQEcsMEFaArvBE72aQGzBE0G6yrvBK0O/QFyoHkFo
ILLBTGuOQPfwXUCiRoTBJhrBQJT0J0BlpIPBuDy/QBEgjUDaHYXBM305QPhsjkAfjd3BHip7QKpq
akB4ldPBiEYmQAqRmEDDnM/B3IP+QFMOCEGO/rnB2KwCQe8CCEFBQ8jBxbHJQLayIEESiMrB3jfu
QKaZK0G/3cDBgGdVQLKuQUAnQ6fBpVhIQJ8veUBGOIzBaOIRQMgfaUDSHpjB

> <OMEGA_E>
iCp3PqDQej6ApYU+GLKUPkDdrT4=

> <OMEGA_NBR>
     18465

$$$$
220579
  -OEChem-04172616093D

 53 56  0     1  0  0  0  0  0999 V2000
    5.9811   -1.2470  -21.7258 C   0  0  0  0  0  0  0  0  0  0  0  0
    6.8012   -0.3535  -22.4366 C   0  0  0  0  0  0  0  0  0  0  0  0
    4.9695   -0.7530  -20.8822 C   0  0  0  0  0  0  0  0  0  0  0  0
    6.6147    1.0325  -22.3022 C   0  0  0  0  0  0  0  0  0  0  0  0
    4.7810    0.6351  -20.7418 C   0  0  0  0  0  0  0  0  0  0  0  0
    5.6028    1.5486  -21.4544 C   0  0  0  0  0  0  0  0  0  0  0  0
    6.3663    8.7514  -24.0645 C   0  0  0  0  0  0  0  0  0  0  0  0
    5.8275    7.6158  -24.7062 C   0  0  0  0  0  0  0  0  0  0  0  0
    6.7916    8.6298  -22.7334 C   0  0  0  0  0  0  0  0  0  0  0  0
    6.1463    6.3843  -22.7483 C   0  0  0  0  0  0  0  0  0  0  0  0
    6.7918    3.3264  -18.9801 C   0  0  0  0  0  0  0  0  0  0  0  0
    4.3651    3.4778  -19.0524 C   0  0  0  0  0  0  0  0  0  0  0  0
    6.9749    4.9816  -20.8519 C   0  0  0  0  0  0  0  0  0  0  0  0
    5.5318    3.9108  -22.4757 C   0  0  0  0  0  0  0  0  0  0  0  0
    6.8327    3.5166  -20.4897 C   0  0  2  0  0  0  0  0  0  0  0  0
    5.5359    3.0624  -21.1883 C   0  0  2  0  0  0  0  0  0  0  0  0
    5.3999    7.6907  -26.1542 C   0  0  0  0  0  0  0  0  0  0  0  0
    8.7737   10.4696  -20.2674 C   0  0  0  0  0  0  0  0  0  0  0  0
    5.5096    3.2162  -16.8430 C   0  0  0  0  0  0  0  0  0  0  0  0
    8.5802    9.4568  -21.3945 C   0  0  0  0  0  0  0  0  0  0  0  0
    5.7210    6.4466  -24.0332 N   0  0  0  0  0  0  0  0  0  0  0  0
    6.6621    7.4522  -22.1025 N   0  0  0  0  0  0  0  0  0  0  0  0
    6.1220    5.1969  -22.0421 N   0  0  3  0  0  0  0  0  0  0  0  0
    5.5577    3.2945  -18.3201 N   0  0  0  0  0  0  0  0  0  0  0  0
    4.3465    3.4503  -20.3674 N   0  3  0  0  0  0  0  0  0  0  0  0
    3.1547    3.6660  -18.3974 N   0  0  0  0  0  0  0  0  0  0  0  0
    7.8466    3.3979  -18.3588 O   0  0  0  0  0  0  0  0  0  0  0  0
    7.3204    9.7135  -22.0677 O   0  0  0  0  0  0  0  0  0  0  0  0
    6.4841    9.9332  -24.7130 F   0  0  0  0  0  0  0  0  0  0  0  0
    6.1275   -2.3122  -21.8273 H   0  0  0  0  0  0  0  0  0  0  0  0
    7.5756   -0.7330  -23.0867 H   0  0  0  0  0  0  0  0  0  0  0  0
    4.3361   -1.4402  -20.3411 H   0  0  0  0  0  0  0  0  0  0  0  0
    7.2494    1.7123  -22.8512 H   0  0  0  0  0  0  0  0  0  0  0  0
    4.0064    1.0078  -20.0879 H   0  0  0  0  0  0  0  0  0  0  0  0
    6.6349    5.6150  -20.0194 H   0  0  0  0  0  0  0  0  0  0  0  0
    8.0236    5.2164  -21.0866 H   0  0  0  0  0  0  0  0  0  0  0  0
    6.1449    3.4406  -23.2587 H   0  0  0  0  0  0  0  0  0  0  0  0
    4.5070    4.0542  -22.8490 H   0  0  0  0  0  0  0  0  0  0  0  0
    7.6813    2.9531  -20.9049 H   0  0  0  0  0  0  0  0  0  0  0  0
    5.0341    6.7059  -26.4805 H   0  0  0  0  0  0  0  0  0  0  0  0
    4.5962    8.4340  -26.2611 H   0  0  0  0  0  0  0  0  0  0  0  0
    6.2583    7.9869  -26.7750 H   0  0  0  0  0  0  0  0  0  0  0  0
    9.7289   10.2740  -19.7580 H   0  0  0  0  0  0  0  0  0  0  0  0
    8.7832   11.4867  -20.6861 H   0  0  0  0  0  0  0  0  0  0  0  0
    7.9482   10.3776  -19.5462 H   0  0  0  0  0  0  0  0  0  0  0  0
    4.4614    3.2011  -16.5100 H   0  0  0  0  0  0  0  0  0  0  0  0
    6.0138    2.2977  -16.5080 H   0  0  0  0  0  0  0  0  0  0  0  0
    6.0183    4.0915  -16.4128 H   0  0  0  0  0  0  0  0  0  0  0  0
    9.4060    9.5489  -22.1154 H   0  0  0  0  0  0  0  0  0  0  0  0
    8.5710    8.4398  -20.9755 H   0  0  0  0  0  0  0  0  0  0  0  0
    3.5006    3.6995  -20.8390 H   0  0  0  0  0  0  0  0  0  0  0  0
    2.3122    3.7744  -18.9252 H   0  0  0  0  0  0  0  0  0  0  0  0
    3.1258    3.6930  -17.3982 H   0  0  0  0  0  0  0  0  0  0  0  0
  1  2  1  0  0  0  0
  1  3  2  0  0  0  0
  2  4  2  0  0  0  0
  3  5  1  0  0  0  0
  4  6  1  0  0  0  0
  5  6  2  0  0  0  0
  6 16  1  0  0  0  0
  7  8  2  0  0  0  0
  7  9  1  0  0  0  0
  7 29  1  0  0  0  0
  8 17  1  0  0  0  0
  8 21  1  0  0  0  0
  9 22  2  0  0  0  0
  9 28  1  0  0  0  0
 10 21  2  0  0  0  0
 10 22  1  0  0  0  0
 10 23  1  0  0  0  0
 11 15  1  0  0  0  0
 11 24  1  0  0  0  0
 11 27  2  0  0  0  0
 12 24  1  0  0  0  0
 12 25  2  0  0  0  0
 12 26  1  0  0  0  0
 13 15  1  0  0  0  0
 13 23  1  0  0  0  0
 14 16  1  0  0  0  0
 14 23  1  0  0  0  0
 15 16  1  0  0  0  0
 16 25  1  0  0  0  0
 18 20  1  0  0  0  0
 19 24  1  0  0  0  0
 20 28  1  0  0  0  0
  1 30  1  0  0  0  0
  2 31  1  0  0  0  0
  3 32  1  0  0  0  0
  4 33  1  0  0  0  0
  5 34  1  0  0  0  0
 13 35  1  0  0  0  0
 13 36  1  0  0  0  0
 14 37  1  0  0  0  0
 14 38  1  0  0  0  0
 15 39  1  0  0  0  0
 17 40  1  0  0  0  0
 17 41  1  0  0  0  0
 17 42  1  0  0  0  0
 18 43  1  0  0  0  0
 18 44  1  0  0  0  0
 18 45  1  0  0  0  0
 19 46  1  0  0  0  0
 19 47  1  0  0  0  0
 19 48  1  0  0  0  0
 20 49  1  0  0  0  0
 20 50  1  0  0  0  0
 25 51  1  0  0  0  0
 26 52  1  0  0  0  0
 26 53  1  0  0  0  0
M  CHG  1  25   1
M  END
> <OMEGA_C>
+WS/QF2dn79gzq3BsqPZQJ/+tL4kfrPBcwafQJTFQL/NDqfBmqvTQLcnhD/+arLB3f2YQJCWIj8j
76XB2kmzQCY6xj+EoqvBebjLQKoFDEEnhMDB2Xq6QEG080BGpsXB/1TZQNcTCkH83bXBd67EQAtM
zECG/LXBsVbZQAzkVEAp15fBS6+LQL2TXkBba5jBoDLfQP5on0Cq0KbBIgSxQEtKekAvzrPB46Xa
QJsPYUDn6qPB3SWxQLj9Q0CwganBHcysQNsZ9kDeO9HBQWEMQWiDJ0GRI6LBAE+wQAbWTUB5vobB
qEgJQQxPF0EHKKvBpxK3QDVKzkAORMDBFzDVQJl47kAA0rDBnOfDQCVNpkA9VrDB8tixQMPYUkCN
j5LBbRaLQG3RXEB08KLBuuZJQGSfakD5LZPBaRf7QPB2WUDe3pLB30DqQFZqG0GQirDBV33PQHPu
HkFAtMXBzxTEQOH6E8A/nq7BpWvyQJykO7+ksbjBAsGKQAlZuL9+uqLBfvvnQKos2z8sz7bBnDSA
QA8AgT8GtKDB6VDUQCGus0ChJ6DBxGAAQWfspkB0sajBnaLEQD4zXEC9EbrBuzmQQBS8gUDYyrbB
Vc31QJX/PEBUPafBcxehQLuW1kAK2NPBIxSTQNzxBkHBFtLBI0TIQKOU/0BDM9bBf6kbQWhiJEFa
EJ7B9ocMQZDJN0ExfaXBrFf+QKwKJkG0XpzBccOOQILfTECMFITBa3HAQPQNE0BwEITBSJbAQHjt
gkBsTYPBB38WQT/IGEFR7LDB5yIJQVsJB0HUzafBFgpgQFXEbEBGtqbBlfsTQBmQcUC2ZpfBBw1I
QJZabECUL4vBZJa9QCFznb+3cq3B8v+cQHHmNb/15KbB/TfZQMxNt7428LLB9QSYQGVYLj8MzKXB
eV3UQB0thD/n3rHBZ6GzQGtYyT8iUavB/ArKQKRXDEFxgsDBSTC5QNg49EALsMXBql/YQEBMCkGg
6bXBXFnFQMpKzEANNLbBZFHZQI7GVUCYtJfBe5yLQBpbYECkaJjBdkbeQBmyoEDrhabBuvWxQLBc
ekAw0bPBt+baQBVcY0DdwaPBJbqxQDa/RUCQYqnBC0qrQKKw9kBvQtHBXxsMQVcPKkH1pqLBh1mv
QCnJSkDHtYbBcWoFQaoTFkE/zajBvQi3QOBzzkCwasDBjjHVQEWN7kCl/rDB5InGQDX+pUC/s7DB
7sOxQP9oWEBDbZLB45KLQGvlX0D97qLBGH5IQDNxZkB8TZPBzzX7QEX/U0BkxZLB90/qQLiLG0G7
p7DBQi3NQEFVH0GBpsXBKGPBQIkdE8B4Q67BYMCHQHzOsL/YsaLBWDPyQIXmQb9G+7fBrA1+QI5m
iT/cuKDBD8rpQEkj2T/qFbbBRb7PQIhYtECkMKDB2/v/QKnyqUAcj6fBU5rEQIy5WUBsEbrBQimR
QBCwgkAqs7bBp2z2QDGsQEA4HqfBfJKgQC7v1kAH89PBxs6QQDvWBkHhB9LBs2DGQG+iAEG7N9bB
7mcYQc/RJUGruZzBJqESQdTxNUGUQ6jB0Tf8QBDWMEE2iJ7BjtKNQMNCT0CrFoTBkQC8QAkDC0Ah
vYTBUXHCQGL3e0CBmoLBm24TQcBPD0Em6azBu9L9QPszCkHHLaPBQ+9hQDm/cUAUx6bBC70SQLhA
akBJnpfBPJJFQE8DZ0CzT4vBVE2+QIf0or/AnqzBoO/ZQJzh0b7GM7LBAxacQEaDPr+QqabByKrT
QFJaez9+wLHB+t6VQBb4JT9GH6bBj/yxQHxKxD9mkavBSbPNQAxRDEH3RMDBeqjaQD4UCkGTk7XB
MSy+QBlz9EDrtMXB8rrEQBh6zEADErbBcajZQPgRVUBNOpjBf+qLQNg9X0CrcpjBOUHdQGF4n0Cw
6qbBS9evQFh1eUCFDbTB+crZQIA3YUBiPaTBLxywQIuOQ0Awr6nBqcXyQOLMG0Ed56/BlKtSQNjm
/UCnD8/BC4eyQIr4V0Cl5IbBXSiPQOL35UDROdTBEBTWQFoi7kCdurDBwfK4QAPvzkB1c8DBnNzD
QP/epUDgsLDBcq2yQPC/VUDaupLBDoqKQJwJXUBE+aLBZuBKQDoaakBQDZPBhOD7QGhJW0BUfZPB
uyG3QFqB90C+jNDBY6/QQGxdH0E1WsXB5FnDQC3RFcCF6KzBmQX0QAEBUb8J2LbBp4aGQF05tL/R
faLB/rroQLeG0T+zKbbBawp3QJEHhj8QiKHBFFTQQA39skBYWKDBXt3+QAI+qEBXV6jBksfCQARV
WkBGXrrBQ/aOQKrfgUCN67bB+P/0QMJsPkDWvafBKc39QKkKFkHBDqjBzUQHQXCXIEGdwLTBs3rd
QICiKUFCyK7BbBQWQLUr8EDm8NHBTD1WQECq+kBOT8bB/K1VQCn8D0ERPtHBUE+RQIg3WEBb+4PB
azfDQGI1H0DHx4PB3fTCQLgRiUAYHoTBLoKNQK3ow0DcCtLBhjqNQL826UCf+dzBWX1eQLIPbUBN
o6bBLkcUQEPjb0CwKZfBPhNKQMcibECCDovB

> <OMEGA_E>
cNstPqDXMT7YWsA+

> <OMEGA_NBR>
      2966

$$$$
220581
  -OEChem-04172616093D

 54 57  0     1  0  0  0  0  0999 V2000
    5.9572   -1.2784  -21.5525 C   0  0  0  0  0  0  0  0  0  0  0  0
    4.9635   -0.7455  -20.7121 C   0  0  0  0  0  0  0  0  0  0  0  0
    6.7642   -0.4181  -22.3180 C   0  0  0  0  0  0  0  0  0  0  0  0
    4.7768    0.6475  -20.6333 C   0  0  0  0  0  0  0  0  0  0  0  0
    6.5795    0.9740  -22.2447 C   0  0  0  0  0  0  0  0  0  0  0  0
    5.5801    1.5290  -21.4064 C   0  0  0  0  0  0  0  0  0  0  0  0
    6.2912    8.8356  -23.9557 C   0  0  0  0  0  0  0  0  0  0  0  0
    5.8353    7.7419  -24.7047 C   0  0  0  0  0  0  0  0  0  0  0  0
    6.7157    8.6222  -22.6467 C   0  0  0  0  0  0  0  0  0  0  0  0
    6.2024    6.3484  -22.8485 C   0  0  0  0  0  0  0  0  0  0  0  0
    6.7981    3.3250  -19.0150 C   0  0  0  0  0  0  0  0  0  0  0  0
    4.3749    3.5218  -19.0598 C   0  0  0  0  0  0  0  0  0  0  0  0
    6.9314    4.9661  -20.8946 C   0  0  0  0  0  0  0  0  0  0  0  0
    5.5019    3.8751  -22.5284 C   0  0  0  0  0  0  0  0  0  0  0  0
    6.8204    3.5104  -20.5280 C   0  0  2  0  0  0  0  0  0  0  0  0
    5.5172    3.0556  -21.2047 C   0  0  2  0  0  0  0  0  0  0  0  0
    8.8972   10.6078  -20.4702 C   0  0  0  0  0  0  0  0  0  0  0  0
    5.5435    3.2687  -16.8586 C   0  0  0  0  0  0  0  0  0  0  0  0
    4.8482    6.9462  -26.7327 C   0  0  0  0  0  0  0  0  0  0  0  0
    8.4688    9.3726  -21.2526 C   0  0  0  0  0  0  0  0  0  0  0  0
    5.7708    6.5030  -24.1305 N   0  0  0  0  0  0  0  0  0  0  0  0
    6.6645    7.3905  -22.1213 N   0  0  0  0  0  0  0  0  0  0  0  0
    6.2901    5.1053  -22.2249 N   0  0  1  0  0  0  0  0  0  0  0  0
    5.5723    3.3219  -18.3382 N   0  0  0  0  0  0  0  0  0  0  0  0
    4.3417    3.4754  -20.3754 N   0  3  0  0  0  0  0  0  0  0  0  0
    3.1761    3.7436  -18.3933 N   0  0  0  0  0  0  0  0  0  0  0  0
    7.8624    3.3683  -18.4078 O   0  0  0  0  0  0  0  0  0  0  0  0
    5.5435    7.9863  -26.0321 O   0  0  0  0  0  0  0  0  0  0  0  0
    7.2314    9.6692  -21.9284 O   0  0  0  0  0  0  0  0  0  0  0  0
    6.3685   10.0706  -24.5048 F   0  0  0  0  0  0  0  0  0  0  0  0
    6.1004   -2.3473  -21.6099 H   0  0  0  0  0  0  0  0  0  0  0  0
    4.3422   -1.4065  -20.1260 H   0  0  0  0  0  0  0  0  0  0  0  0
    7.5274   -0.8273  -22.9634 H   0  0  0  0  0  0  0  0  0  0  0  0
    4.0168    1.0499  -19.9799 H   0  0  0  0  0  0  0  0  0  0  0  0
    7.2060    1.6275  -22.8336 H   0  0  0  0  0  0  0  0  0  0  0  0
    6.4093    5.5876  -20.1522 H   0  0  0  0  0  0  0  0  0  0  0  0
    7.9881    5.2671  -20.9469 H   0  0  0  0  0  0  0  0  0  0  0  0
    5.9725    3.3046  -23.3426 H   0  0  0  0  0  0  0  0  0  0  0  0
    4.4712    4.1353  -22.8110 H   0  0  0  0  0  0  0  0  0  0  0  0
    7.6672    2.9528  -20.9548 H   0  0  0  0  0  0  0  0  0  0  0  0
    9.8420   10.4012  -19.9461 H   0  0  0  0  0  0  0  0  0  0  0  0
    9.0392   11.4499  -21.1636 H   0  0  0  0  0  0  0  0  0  0  0  0
    8.1193   10.8647  -19.7360 H   0  0  0  0  0  0  0  0  0  0  0  0
    4.4998    3.2743  -16.5112 H   0  0  0  0  0  0  0  0  0  0  0  0
    6.0391    2.3487  -16.5152 H   0  0  0  0  0  0  0  0  0  0  0  0
    6.0705    4.1435  -16.4500 H   0  0  0  0  0  0  0  0  0  0  0  0
    4.6746    7.2571  -27.7735 H   0  0  0  0  0  0  0  0  0  0  0  0
    5.4537    6.0280  -26.7206 H   0  0  0  0  0  0  0  0  0  0  0  0
    3.8828    6.7553  -26.2413 H   0  0  0  0  0  0  0  0  0  0  0  0
    9.2423    9.1135  -21.9905 H   0  0  0  0  0  0  0  0  0  0  0  0
    8.3224    8.5283  -20.5630 H   0  0  0  0  0  0  0  0  0  0  0  0
    3.4949    3.7316  -20.8415 H   0  0  0  0  0  0  0  0  0  0  0  0
    2.3297    3.8612  -18.9126 H   0  0  0  0  0  0  0  0  0  0  0  0
    3.1598    3.7856  -17.3943 H   0  0  0  0  0  0  0  0  0  0  0  0
  1  2  1  0  0  0  0
  1  3  2  0  0  0  0
  2  4  2  0  0  0  0
  3  5  1  0  0  0  0
  4  6  1  0  0  0  0
  5  6  2  0  0  0  0
  6 16  1  0  0  0  0
  7  8  2  0  0  0  0
  7  9  1  0  0  0  0
  7 30  1  0  0  0  0
  8 21  1  0  0  0  0
  8 28  1  0  0  0  0
  9 22  2  0  0  0  0
  9 29  1  0  0  0  0
 10 21  2  0  0  0  0
 10 22  1  0  0  0  0
 10 23  1  0  0  0  0
 11 15  1  0  0  0  0
 11 24  1  0  0  0  0
 11 27  2  0  0  0  0
 12 24  1  0  0  0  0
 12 25  2  0  0  0  0
 12 26  1  0  0  0  0
 13 15  1  0  0  0  0
 13 23  1  0  0  0  0
 14 16  1  0  0  0  0
 14 23  1  0  0  0  0
 15 16  1  0  0  0  0
 16 25  1  0  0  0  0
 17 20  1  0  0  0  0
 18 24  1  0  0  0  0
 19 28  1  0  0  0  0
 20 29  1  0  0  0  0
  1 31  1  0  0  0  0
  2 32  1  0  0  0  0
  3 33  1  0  0  0  0
  4 34  1  0  0  0  0
  5 35  1  0  0  0  0
 13 36  1  0  0  0  0
 13 37  1  0  0  0  0
 14 38  1  0  0  0  0
 14 39  1  0  0  0  0
 15 40  1  0  0  0  0
 17 41  1  0  0  0  0
 17 42  1  0  0  0  0
 17 43  1  0  0  0  0
 18 44  1  0  0  0  0
 18 45  1  0  0  0  0
 18 46  1  0  0  0  0
 19 47  1  0  0  0  0
 19 48  1  0  0  0  0
 19 49  1  0  0  0  0
 20 50  1  0  0  0  0
 20 51  1  0  0  0  0
 25 52  1  0  0  0  0
 26 53  1  0  0  0  0
 26 54  1  0  0  0  0
M  CHG  1  25   1
M  END
> <OMEGA_C>
daG+QIKho7+Ia6zBsdSeQK/aPr9tsqXBnHTYQF4O1r5Ci7LBZtuYQIPFJT8CEaXBlIvSQAdVeT8c
9bHBgpCyQNy0wz9EQKvBoFHJQKteDUE0pb/B87q6QPO990BPo8XBS+fWQKP0CUFlLLXBxHnGQDYm
y0DDybbBzYnZQNrMVEC4HpjBbP+LQM9lYUBzepjBpc3dQDXqnkA1KKfB2g+wQD4CeEAQOrTBX0Da
QNypYEBmOaTBH42wQASPQ0BEo6nByloOQb25KUH6wqPBOmSxQMoxUUBl3obBjCSbQIhH3kCS3NXB
MYAHQVD2FUFVBarBqaq4QNAY0EBYC8HBz0PVQAl/7EBi+LDBJ0jJQAZfo0CfzLHBYFCyQHKZVECk
tJLBde+KQIBtXkC5AKPBjkVLQIKXb0BxJZPB3Jj7QFKSV0AqQ5PBtmSxQBSQ/0CrQdDBT2fnQDG1
GkFMba/B/srLQDchIUHHCcTBnTbDQPw5FsAc4azBUfOKQDIHtL/3AaHBE+DwQJvIU78jtbfBQYmA
QPVhhj/m1p/BrJfmQKhS0D8hq7bBCBnNQLvNskDAN6HBSp7/QDmMqEApk6fB6x6/QEF/U0C/vbrB
ChSPQIFUhEDofLbBUln1QEn7PEBXo6fBrngdQStrJkGzkZ/BraAQQcMyN0EFT6nB2ugBQaDVLUFV
453BP/6PQCaOUUD/FoTBe0DBQHBQFkATH4TBhEHCQIWXhECnmYPBrJaVQGg66EAVMN7ByYSuQArl
wEDEw9XBDH94QLAr2EA77tHBbeATQeXQEUGi7K/BmygFQcJzCEHygKTBq6xfQHLSbkBeu6bBDBkV
QF8ed0DzTJfBBTpKQNxHckCGJ4vBvanBQC8vob9npqzBky7aQOSUv7784LLBvbehQFIqQr+Oz6XB
wfPSQHBdgT9PP7LB1GSaQJ7QID9aJKXB3fSyQC5hxD8QY6vBHv7LQKsHDUHNCMDBKTa8QID19kBA
z8XBeEbYQGgECkG8bLXBA7fEQAwJzECjh7bBcULZQEgiVUD1GJjBdZ+LQJg7YEBrZ5jB3hHdQB2D
n0BvB6fBtjyvQNr1eEBuFbTBQb7ZQCB2YUBPLqTBiCiwQP6IQ0DjmqnBCUsQQXABKUGmX6TB3oKx
QAJ+VED5y4bBasKfQADX2kDEI9bBTj8JQUbdFUGYCqvBsTK4QKYT0EDb58DBH1bUQM5s7UB/5LDB
qyPFQF4UpUAbLLHBzCOyQPpZVUCDpJLB6mCKQGx6XEBV7KLBVWBKQOZKbUAGEJPBiGz7QMTbV0DU
SJPBjOWyQIXo/UDueNDBIp3pQOGrGkGpyq/BzoTQQPJsIEG6t8TBl1rHQJuqFMDRHa3BoZzyQCRX
Qr9QKLjB78OOQBQ0uL/ZD6HB3/3lQD2C1z8yC7fBauyBQArKgD/F15/BvMnOQPBHs0D3rqDBf8n+
QPmdqEB8IKjBDYvAQHbIV0AKh7rBGhuOQHaggkDHoLbBYPz0QJ9uPkDBoKfBAecfQcWYJUHHrqDB
PqsRQdssN0E/jKnBlmQEQT0TLEEJE57Bpi2QQKjPVEAW+IPBHLnBQEyJGkBC4IPBTC3CQMy+hkCF
voPBAOmZQJw95EA4ft7B4Ha1QIEjv0Dv8tXBRTyBQPNA0kCVUdLBOBYVQcHDEkGSXbHBkM8HQSOq
B0Fb5KXBAeJdQP/yakAfn6bBZ/oTQFBwc0DkNJfBbnFJQAeMcEDkEovBXLS5QGiLob9VcK3BIr/W
QJYK1L7ctrLBBPuXQDWSNr/Wa6fB2mrSQAhQez/z4bHBZKCTQDnpLj8NhqbBujOxQJ2Qxj8mpqvB
ogvMQGuVC0E6r8DB4GrWQE63CkFZyLXBNPzAQObs8ECk68XB4KbFQIRtzEDGvrXBTD3aQJ01UkBb
DpjBxKOMQHLHX0BQT5jBrm7fQCYmn0BquKbBxluxQDzGekBlwrPB4NDaQFL/X0CND6TB1tCwQCJd
REAOh6nB4JhqQJqY00DXc9PBrqeyQK6UUEDLwobBWuUHQZRLG0FBnKzBq/2SQLNs+kBXrdTBgmrT
QKzw70D9g7DB1ke9QIw2zEAXWMDBWnTDQAbDpkAGBrDB2CWzQEoOU0BHmJLBfnmLQLxUX0AU1aLB
uFRMQPJGa0An75LBPnz8QLJXU0DLRZPBjpzkQErdHEF6prDBMCu9QJpN8EAb19DBxGnOQFJAHkH4
IcbBqku9QABeFcAIAq7B12vwQC/wVb+2abfB0V6BQEWsrr/HeqPB1Z/oQE8m0D8MCbbBwzdzQLeH
jD9956HByzPVQGvrskBN55/BH24AQYSspkBZvKjBXtLFQK+QXUAw67nBydeQQC2sgUCH9LbBy6H1
QNswPEBQl6fBLV4qQAXL20BzatbBiiCCQNGZuEDWGdjBN6BmQD6PykBB9srBSF2RQE2uUUDC54PB
YGPCQPSqFUCi+oPBmNvDQMVGhECKmYPBu08MQcVfKkErpajBE+EIQf8SDkGP0qbBYfISQX88GEFW
SbPBStiUQMW0AUE8LN3B3AeGQHyvCkGmCNDBTSNhQMS9cUBFgKbBZQcWQAfNckD4D5fBODxLQP0H
bECY74rBari3QNKflL8Jh7HBSq7ZQJjSnr7xbLTBA5OUQLfsJb9u0KvBopvYQJ7Fhj+dlbHBOE6T
QLOsNj8l+6jBMXm1QI/Iyj/qx6vBuObHQEwyC0GjWsHBCL+0QPjL8EA/O8XBT5HaQH3XCkGvIrfB
wtbHQBB9zUCgbbXB+uLYQIJ5U0DKmpbBfg2LQBisWUBGD5jBW23eQPBcokDnEKXBY3a1QP1BfUBe
9rLB7SDcQPtoZECVpKLB8im0QNJzRUD21KjBPMOgQC9zJEFnYKvBus+sQJ/7TEBP54XBuadoQFqp
+UA0287BqujRQGEkJkHg8KnBZxa1QHD3zEAGOb/B0UjaQDY98UDXTrHB6NrHQAoZqEAca6/Bj1+w
QHwvUECtvZHB1KuMQDJJW0DBl6LBjdRFQL4sYUDZTJPBMfT5QB/uUUACT5HBGo+hQDpe8EDZIM/B
lg3qQC2rHUGW67LBpufGQIOGHUFUIsfBrKS4QHo2DcDgr7PBnJz0QND0M7/j1bjBtAJ1QJh/pr/Q
mKnBeMXyQI+J2T872LPBlTpwQP7ejD+Fo6TBgHDOQEPKtEDruJ7BSPH/QOLFrEDxvqXB69nJQBaf
X0DxGrnBFgiVQA4+g0DwLrbBub34QF+AREC73KXBEK2QQDElK0EiTaTBUgiXQOdzLUFEibLBK7GX
QEmME0FkUKzBgdqKQAuuSkC8moPBuTO9QKSDE0Bg5YLBO8C7QN8wg0ANcILB4rJOQHK5+EBvCNfB
K8tHQFiq4UAK5snBfIReQAvXDEFNbcvBEFTaQG4cN0Hu7ajB6fzaQNA0HUEOtaLBp5NkQA3fa0AX
nqbB6pcRQIV5Z0DR2pfBd3JAQJJCYEBRVIvB4kG2QORjlb81cbHB/jDdQNnF+76CzK/BjlGPQEgM
8b6CfbDBt0zdQFbRXz8gE63Br0KPQIVVZT9Iw63B/zi2QCJ5yj9CvqvBqKbGQOZWC0GHSsHBnpbZ
QJP0CkFXErfBszuzQHMV8UAlKsXBzlrHQG2uzUAbbbXB++rYQJlKVUBjipbBKR+LQHITWUBaMZjB
eqDcQEC8o0AA2qTBjri2QE1DfEDhBrPBP1rcQDxdZ0DehaLBLTu1QMRnRUC72ajBNZqRQOUFp0A4
59TBYEmsQBWATkCU8YXBhQPQQJBrKUHGJazBCrJ8QMCJ0UB75dDBbavZQH5r8UDJULHBJBy0QEo9
zUBfHb/BJxfIQFo1qEBpe6/BXUKwQKz2UECVxZHBvyiNQL2lWUBuuaLBF51FQD7dYECIh5PB1dr5
QPXNU0BsMpHBMC3sQC8XHUFn6rLB+RufQEjc8UBQDM/BBCvGQCuSHUHSJsfBx0C2QJb1DcBMbrPB
Zhn7QJvtgr8vobDBENhiQAEwfL9w2rHB4lz7QEPWsT+S/KvBGohiQPm+tj+RM63BdUrKQGIrtUDK
u57Bbp/9QPz2r0B4EaXBsdnLQAD1XkBiCbnB1HOWQKD6gUCdaLbB1bf5QOUKSkDcs6XBIJpvQOai
j0ADMNbBy6GiQO+LrEDgetzBax+oQJ6OmkCW5s7B90SKQE8yS0A7uIPB3g29QDjTFUAf1YLBZpq6
QMBThECkgoLB8hfhQFGXN0GcJanBkeazQPeILkHhyLDBEJPFQAKHH0FxWqXBSXpPQIyW3UBb7tbB
i3VaQDuZy0ARWsnB62plQElJaECg1qbBwawRQH+YZkAFJpjBxLA/QMq4YEBTkIvB

> <OMEGA_E>
VImAPsB3gT4UMJY+wArePiC17T4=

> <OMEGA_NBR>
      7772

$$$$
50491793
  -OEChem-04172616093D

 47 50  0     1  0  0  0  0  0999 V2000
    4.9768   -2.1309  -20.6251 C   0  0  0  0  0  0  0  0  0  0  0  0
    6.3172   -0.4909  -21.9245 C   0  0  0  0  0  0  0  0  0  0  0  0
    6.4630    0.9607  -22.1006 C   0  0  0  0  0  0  0  0  0  0  0  0
    5.2991   -0.8130  -21.0603 C   0  0  0  0  0  0  0  0  0  0  0  0
    6.3564    8.8539  -23.9870 C   0  0  0  0  0  0  0  0  0  0  0  0
    5.5411    1.6734  -21.3674 C   0  0  0  0  0  0  0  0  0  0  0  0
    5.8054    7.7170  -24.6158 C   0  0  0  0  0  0  0  0  0  0  0  0
    6.9110    8.7098  -22.7034 C   0  0  0  0  0  0  0  0  0  0  0  0
    6.3263    6.4476  -22.7290 C   0  0  0  0  0  0  0  0  0  0  0  0
    6.7940    3.3347  -18.9331 C   0  0  0  0  0  0  0  0  0  0  0  0
    4.3662    3.5617  -18.9887 C   0  0  0  0  0  0  0  0  0  0  0  0
    6.9940    5.0589  -20.7440 C   0  0  0  0  0  0  0  0  0  0  0  0
    5.6512    3.9879  -22.4643 C   0  0  0  0  0  0  0  0  0  0  0  0
    6.8484    3.5847  -20.4360 C   0  0  2  0  0  0  0  0  0  0  0  0
    5.5619    3.1768  -21.1655 C   0  0  2  0  0  0  0  0  0  0  0  0
    5.2801    7.8029  -26.0313 C   0  0  0  0  0  0  0  0  0  0  0  0
    5.5110    3.1413  -16.7954 C   0  0  0  0  0  0  0  0  0  0  0  0
    8.5038    9.2852  -20.4519 C   0  0  0  0  0  0  0  0  0  0  0  0
    4.7137   -3.2045  -20.2555 N   0  0  0  0  0  0  0  0  0  0  0  0
    5.7945    6.5306  -23.9713 N   0  0  0  0  0  0  0  0  0  0  0  0
    6.8845    7.5097  -22.1025 N   0  0  0  0  0  0  0  0  0  0  0  0
    3.2072    3.6732  -18.3882 N   0  0  0  0  0  0  0  0  0  0  0  0
    4.3772    3.6115  -20.3810 N   0  0  0  0  0  0  0  0  0  0  0  0
    6.3293    5.2445  -22.0515 N   0  0  3  0  0  0  0  0  0  0  0  0
    5.5642    3.3852  -18.2571 N   0  0  0  0  0  0  0  0  0  0  0  0
    7.8569    3.2685  -18.3257 O   0  0  0  0  0  0  0  0  0  0  0  0
    6.3664   10.0556  -24.6086 F   0  0  0  0  0  0  0  0  0  0  0  0
    4.4717    0.5994  -20.4960 S   0  0  0  0  0  0  0  0  0  0  0  0
    7.6683   10.0789  -21.8906 S   0  0  0  0  0  0  0  0  0  0  0  0
    6.9401   -1.2218  -22.4187 H   0  0  0  0  0  0  0  0  0  0  0  0
    7.2093    1.4171  -22.7338 H   0  0  0  0  0  0  0  0  0  0  0  0
    6.5012    5.6660  -19.9703 H   0  0  0  0  0  0  0  0  0  0  0  0
    8.0562    5.3375  -20.8074 H   0  0  0  0  0  0  0  0  0  0  0  0
    6.2442    3.4528  -23.2206 H   0  0  0  0  0  0  0  0  0  0  0  0
    4.6485    4.1972  -22.8654 H   0  0  0  0  0  0  0  0  0  0  0  0
    7.6982    3.0344  -20.8661 H   0  0  0  0  0  0  0  0  0  0  0  0
    4.9383    6.8093  -26.3571 H   0  0  0  0  0  0  0  0  0  0  0  0
    4.4384    8.5101  -26.0676 H   0  0  0  0  0  0  0  0  0  0  0  0
    6.0814    8.1520  -26.6992 H   0  0  0  0  0  0  0  0  0  0  0  0
    4.4707    3.2224  -16.4472 H   0  0  0  0  0  0  0  0  0  0  0  0
    5.8927    2.1328  -16.5780 H   0  0  0  0  0  0  0  0  0  0  0  0
    6.1305    3.8876  -16.2765 H   0  0  0  0  0  0  0  0  0  0  0  0
    9.0208   10.0532  -19.8579 H   0  0  0  0  0  0  0  0  0  0  0  0
    7.7538    8.7803  -19.8252 H   0  0  0  0  0  0  0  0  0  0  0  0
    9.2354    8.5478  -20.8140 H   0  0  0  0  0  0  0  0  0  0  0  0
    3.2937    3.6179  -17.3935 H   0  0  0  0  0  0  0  0  0  0  0  0
    3.5686    3.9477  -20.8638 H   0  0  0  0  0  0  0  0  0  0  0  0
  1  4  1  0  0  0  0
  1 19  3  0  0  0  0
  2  3  1  0  0  0  0
  2  4  2  0  0  0  0
  3  6  2  0  0  0  0
  4 28  1  0  0  0  0
  5  7  1  0  0  0  0
  5  8  2  0  0  0  0
  5 27  1  0  0  0  0
  6 15  1  0  0  0  0
  6 28  1  0  0  0  0
  7 16  1  0  0  0  0
  7 20  2  0  0  0  0
  8 21  1  0  0  0  0
  8 29  1  0  0  0  0
  9 20  1  0  0  0  0
  9 21  2  0  0  0  0
  9 24  1  0  0  0  0
 10 14  1  0  0  0  0
 10 25  1  0  0  0  0
 10 26  2  0  0  0  0
 11 22  2  0  0  0  0
 11 23  1  0  0  0  0
 11 25  1  0  0  0  0
 12 14  1  0  0  0  0
 12 24  1  0  0  0  0
 13 15  1  0  0  0  0
 13 24  1  0  0  0  0
 14 15  1  0  0  0  0
 15 23  1  0  0  0  0
 17 25  1  0  0  0  0
 18 29  1  0  0  0  0
  2 30  1  0  0  0  0
  3 31  1  0  0  0  0
 12 32  1  0  0  0  0
 12 33  1  0  0  0  0
 13 34  1  0  0  0  0
 13 35  1  0  0  0  0
 14 36  1  0  0  0  0
 16 37  1  0  0  0  0
 16 38  1  0  0  0  0
 16 39  1  0  0  0  0
 17 40  1  0  0  0  0
 17 41  1  0  0  0  0
 17 42  1  0  0  0  0
 18 43  1  0  0  0  0
 18 44  1  0  0  0  0
 18 45  1  0  0  0  0
 22 46  1  0  0  0  0
 23 47  1  0  0  0  0
M  END
> <OMEGA_C>
HkKfQAdhCMAgAKXBpibKQBFS+751Za/BitDOQEbtdT/0zbDBXpKpQOEeUL+Ie6jBYmfLQJKpDUFt
5b/Bs1CxQOcw1j9+8KrB48W5QMzx9kBC7cTBnSbdQIdbC0GLoLXB5HDKQB9TzkAC1bXBa2jZQHJr
VUDvdpfB/beLQKfyY0DP6JfBec7fQHfioUC886XBY9a0QFA6f0D2trPB9SXbQOdrZUDgfKPByvqx
QIxQS0DuUqnBZvaoQC6x+UAtQNDBP1qwQL4KSUACXYbBog8IQfyPFEF6naPB8taWQK8WTcA6C6LB
22y5QH360EA4xb/BiU3cQJdP8EDo0bDBjEJNQBAWa0AeG5PB2RGMQG0iZ0BIDKPBQ4nKQJ3Sp0B4
abDB/g2yQGCnWECJDpLB72v7QKkvUUABm5LBTrnLQKTjIEFa3sTBkBiPQNJyGT+796PBm2L1QFJD
IUHpH6/B7xTeQCRknL9+WbPBsLLmQA9itT/r3rXB+AnQQJJPtUAcw5/BMuYAQbnMqkCSdabBrtDH
QKT6XEDEw7nBiMCUQLlPhkBX7LbBmFf2QM8zQkC+7abBzAaeQCbm2UBE29LBEAeOQHcpCEGKitDB
7JrCQJVuAkHel9XBUBCPQJI8TkDok4PB5ZC8QKd/CEC2n4TBNC3EQLnNeEA8NoLBIFUQQezZIEH0
3J7Bgh/4QEV8DEESmp7BNcQTQcfDCEH8gqbBq8xSQPWKZ0D1JYvBtGNkQJqnfEAW6abBWCufQOpP
DMAOxaTBwoXMQO51Dr/Ib67BA7rQQPL7Yz91H7DBIYeqQL4oX7+I86fBh4nQQM4eDkHo477BC5mx
QCL5zT+Y2qrBEpHhQD7cCUFvuLTBuN66QKcu+0CRUcTBGHrIQG1zzUDf7LXBjavZQAbEV0DYwJfB
ZwCMQB4uZUA1GZjBODDgQNWln0AuwqbBl5CzQMyYekDMHbTBVeDaQLalYkAM3qPBM3ixQM+BR0D9
j6nBUWP8QAoaGkGlv67BZSOyQLqqW0AOdIbBoPyVQFm+0EDpu9XB07yVQCRsUcDCLKLBwQLdQHbL
7EAugbDBdfy2QN7y00BNur/BkslOQHZLcUCjOJPB5a+LQN6VY0DkPqPBDuvHQL8spkAbyrDBbXey
QCADWkDqTZLBKcD7QLQ9W0DP55LB9CHVQNSlIUEsasPBhKGOQIZaCz8+CKTBAv6lQCLmAkGGHNHB
g8PhQHwapb+d57HBsHnpQOatqz8B9bTBTkXTQIUltEAEYKDB7xsBQU4lp0DSAKjB9TTHQCcqWUDd
GrrBa1mTQKDagkAVYbfB7sn1QNuOPUCZIqfBo2gEQfnaEkEIW6fB46ULQWIxH0Gg0bPBdYzoQLMR
KEFQu6zB+uGQQKhUXUCXk4PBgRrCQKD8IUD3XYPBUTLDQK10ikCrnYPBpi+IQKU400BFzt3BoySy
QO2iu0Bt89XBRfp7QLRkw0CXOtDBmUhVQHRrcUA4Q4vBynBiQHXmdUCnHafBQLXeQA8y+r+h2LHB
XReeQF0VBr/kfK/BiYqSQJGeXj+p96zBX6PJQFgqN7/Owq/B1WvKQGDUC0FyiMHBPOq1QHl11T9N
RKvBliHeQCgnC0GTZrfBIam2QLMs8kA8acXBgtjJQMyVzkC8rLXBgNnZQEO8WEAncZbBs/GLQOoP
YEDUepfBxoPeQDXRpEDz/KTB3e62QPiof0C/87LBGpDcQBLYaUAzgaLBRMm0QNIqSkDMsKjBUbbz
QGHOHkGUz7LBp1WvQFyRU0CUfoXBb4HKQFCE+kDuJ9vBoVLwQJx9PcD5hLPB41XdQHLZ8UAPpLHB
3Ky2QBpWzkDXaL/B1QRNQKXwaUDv5pLBtUuNQK8cYEA2oqLBSYjJQMt8qUAJlK/BfLyxQFFVVkAy
WpHBRVD7QNpQVUAJUpHB30vKQPgeHkHcV8fBownlQN4iQT82E63BtWudQJxE8UCb/NHBFPqGQKoZ
p78w9LDB4fVjQPEKnT+agKzBfC/NQGk9t0Aj3p7BwO3/QOXJr0BRW6XBLovLQPdxYECZ7LjBt76W
QAtthEDJUrbBbTz5QERVSkBawKXBjUoAQeEQG0Em1qrB+/0GQf7GI0EuHbjBpD/cQOTbK0E9JrLB
KJuNQBzzUUAb/ILB7MK/QK7mGUAyj4LBSN6+QOBmhkDmJoLBL82+QA6x+kCFdOPBUGzZQIDFDEEd
UtnBuUXiQI7Z4EDlLNrBdFNRQPGOaUCd64rBiqJlQKhrb0C1sqbBL3feQLJZ+r9H4bHBD+6dQGqC
Bb++hK/B+nSSQA1JXz+l/KzBKnfJQH46N7/Xya/BAfXKQPWWC0G7scHBod+1QHuE1T+ZRqvBpbm2
QMbF8UCEcsXBFkLeQDcfC0GmgLfB6OjJQMibzkCWpbXBzNfZQIeKWEDGbpbBOfGLQGMVYEDje5fB
n6beQCrLpEC49qTBlg63QOu7f0Ag77LBMJzcQLW9aUCtfaLBb9O0QNkvSkBjr6jBjI+hQAng8EAK
V9DBaUSvQO9XU0CafoXB/LvLQOfpNEHZ3rDBvgXwQHGfPcDajrPB+K22QLEizkA+Xr/BPmbdQHb+
8UCSqrHBvP9MQGgEakCb6ZLBPVSNQBI3YED+oqLB9ZTJQEqLqUCWia/BB7axQOo0VkDtWZHBXkn7
QMD4VEAbTpHBTAHMQM5+HUGUysfBs/HkQGOeQD+TFq3BbCT4QEXNIUG4PrLBn8WGQKedpr99/rDB
39RjQJuZnT+WhazBHWzNQGo7t0Af1J7BAgsAQdKwr0CPWaXBuL/LQLqaYEBB5bjBteaWQCtxhECJ
U7bBM0X5QMorSkBdvKXB8zaUQKjY0EAV0tHBjLCHQL1cBEHilNDBYGa5QOhp+EDGiNbBdYeNQEjM
UUAE/oLBw6S/QNaaGUBdkILBatS+QMtAhkAPJILBBePXQFoTREHul63Bf0q9QMDSN0E7w7jBIHOz
QLBFLkElb6vBBUFRQA6QaUAw7orBucFlQI2jb0CetKbB

> <OMEGA_E>
AC0YPUBxZz4oEQY/1F8GPw==

> <OMEGA_NBR>
      3534

$$$$
50491792
  -OEChem-04172616093D

 49 52  0     1  0  0  0  0  0999 V2000
    5.1201   -2.0409  -20.9850 C   0  0  0  0  0  0  0  0  0  0  0  0
    6.4545   -0.3051  -22.1706 C   0  0  0  0  0  0  0  0  0  0  0  0
    6.5975    1.1553  -22.2268 C   0  0  0  0  0  0  0  0  0  0  0  0
    5.4651   -0.6969  -21.3016 C   0  0  0  0  0  0  0  0  0  0  0  0
    6.2619    8.9312  -24.0173 C   0  0  0  0  0  0  0  0  0  0  0  0
    5.7001    1.8002  -21.4050 C   0  0  0  0  0  0  0  0  0  0  0  0
    5.7487    7.7558  -24.6034 C   0  0  0  0  0  0  0  0  0  0  0  0
    6.7366    8.8710  -22.6945 C   0  0  0  0  0  0  0  0  0  0  0  0
    6.2296    6.5972  -22.6370 C   0  0  0  0  0  0  0  0  0  0  0  0
    6.8739    3.4331  -18.8845 C   0  0  0  0  0  0  0  0  0  0  0  0
    4.4479    3.5682  -18.9574 C   0  0  0  0  0  0  0  0  0  0  0  0
    7.0139    5.2257  -20.6652 C   0  0  0  0  0  0  0  0  0  0  0  0
    5.7254    4.1271  -22.4019 C   0  0  0  0  0  0  0  0  0  0  0  0
    6.9328    3.7316  -20.3852 C   0  0  2  0  0  0  0  0  0  0  0  0
    5.6678    3.2874  -21.1333 C   0  0  2  0  0  0  0  0  0  0  0  0
    5.2675    7.7535  -26.0370 C   0  0  0  0  0  0  0  0  0  0  0  0
    5.5803    3.0886  -16.7761 C   0  0  0  0  0  0  0  0  0  0  0  0
    8.0187    9.9324  -20.8096 C   0  0  0  0  0  0  0  0  0  0  0  0
    4.8270   -3.1339  -20.7068 N   0  0  0  0  0  0  0  0  0  0  0  0
    5.7422    6.6063  -23.9002 N   0  0  0  0  0  0  0  0  0  0  0  0
    6.7094    7.7032  -22.0306 N   0  0  0  0  0  0  0  0  0  0  0  0
    4.4638    3.6602  -20.3457 N   0  0  0  0  0  0  0  0  0  0  0  0
    6.2643    5.4169  -21.9314 N   0  0  3  0  0  0  0  0  0  0  0  0
    5.6341    3.3099  -18.2387 N   0  0  0  0  0  0  0  0  0  0  0  0
    7.2624   10.0052  -22.0824 N   0  0  0  0  0  0  0  0  0  0  0  0
    3.3038    3.7384  -18.3443 N   0  3  0  0  0  0  0  0  0  0  0  0
    7.9207    3.4628  -18.2467 O   0  0  0  0  0  0  0  0  0  0  0  0
    6.3159   10.0894  -24.7149 F   0  0  0  0  0  0  0  0  0  0  0  0
    4.6743    0.6595  -20.5778 S   0  0  0  0  0  0  0  0  0  0  0  0
    7.0574   -0.9920  -22.7460 H   0  0  0  0  0  0  0  0  0  0  0  0
    7.3237    1.6654  -22.8423 H   0  0  0  0  0  0  0  0  0  0  0  0
    6.5485    5.7984  -19.8494 H   0  0  0  0  0  0  0  0  0  0  0  0
    8.0610    5.5412  -20.7836 H   0  0  0  0  0  0  0  0  0  0  0  0
    6.3928    3.6696  -23.1472 H   0  0  0  0  0  0  0  0  0  0  0  0
    4.7228    4.2538  -22.8363 H   0  0  0  0  0  0  0  0  0  0  0  0
    7.8083    3.2292  -20.8222 H   0  0  0  0  0  0  0  0  0  0  0  0
    4.9585    6.7362  -26.3189 H   0  0  0  0  0  0  0  0  0  0  0  0
    4.4120    8.4376  -26.1376 H   0  0  0  0  0  0  0  0  0  0  0  0
    6.0821    8.0854  -26.6976 H   0  0  0  0  0  0  0  0  0  0  0  0
    4.5310    3.0181  -16.4538 H   0  0  0  0  0  0  0  0  0  0  0  0
    6.1038    2.1536  -16.5275 H   0  0  0  0  0  0  0  0  0  0  0  0
    6.0666    3.9295  -16.2600 H   0  0  0  0  0  0  0  0  0  0  0  0
    8.3371   10.9428  -20.5133 H   0  0  0  0  0  0  0  0  0  0  0  0
    7.3761    9.5059  -20.0252 H   0  0  0  0  0  0  0  0  0  0  0  0
    8.9042    9.2941  -20.9454 H   0  0  0  0  0  0  0  0  0  0  0  0
    3.6474    3.9842  -20.8238 H   0  0  0  0  0  0  0  0  0  0  0  0
    7.8781   10.4236  -22.7501 H   0  0  0  0  0  0  0  0  0  0  0  0
    3.2585    3.6864  -17.3467 H   0  0  0  0  0  0  0  0  0  0  0  0
    2.4752    3.9204  -18.8737 H   0  0  0  0  0  0  0  0  0  0  0  0
  1  4  1  0  0  0  0
  1 19  3  0  0  0  0
  2  3  1  0  0  0  0
  2  4  2  0  0  0  0
  3  6  2  0  0  0  0
  4 29  1  0  0  0  0
  5  7  1  0  0  0  0
  5  8  2  0  0  0  0
  5 28  1  0  0  0  0
  6 15  1  0  0  0  0
  6 29  1  0  0  0  0
  7 16  1  0  0  0  0
  7 20  2  0  0  0  0
  8 21  1  0  0  0  0
  8 25  1  0  0  0  0
  9 20  1  0  0  0  0
  9 21  2  0  0  0  0
  9 23  1  0  0  0  0
 10 14  1  0  0  0  0
 10 24  1  0  0  0  0
 10 27  2  0  0  0  0
 11 22  1  0  0  0  0
 11 24  1  0  0  0  0
 11 26  2  0  0  0  0
 12 14  1  0  0  0  0
 12 23  1  0  0  0  0
 13 15  1  0  0  0  0
 13 23  1  0  0  0  0
 14 15  1  0  0  0  0
 15 22  1  0  0  0  0
 17 24  1  0  0  0  0
 18 25  1  0  0  0  0
  2 30  1  0  0  0  0
  3 31  1  0  0  0  0
 12 32  1  0  0  0  0
 12 33  1  0  0  0  0
 13 34  1  0  0  0  0
 13 35  1  0  0  0  0
 14 36  1  0  0  0  0
 16 37  1  0  0  0  0
 16 38  1  0  0  0  0
 16 39  1  0  0  0  0
 17 40  1  0  0  0  0
 17 41  1  0  0  0  0
 17 42  1  0  0  0  0
 18 43  1  0  0  0  0
 18 44  1  0  0  0  0
 18 45  1  0  0  0  0
 22 46  1  0  0  0  0
 25 47  1  0  0  0  0
 26 48  1  0  0  0  0
 26 49  1  0  0  0  0
M  CHG  1  26   1
M  END
> <OMEGA_C>
z9ejQPydAsA24afBCIvOQDY8nL5bXbHB7h7TQEbhkz9t0LHBL+KuQO9mMr+0aarBsmHIQBjmDkFi
I8DBeme2QL9s5j+IPavBsPW3QKov+EDZ08TBOJLXQG3vDUFnjrXBBVnHQPcb00B8GLXBVPfbQPa3
W0B3E5fBaVWOQNZcZECuqJfBzXHgQPE4p0A9UqXByja3QNYQhEAQN7PBcdndQBjTbkDUFKPBAl+1
QJxkUkAZEanBvo+oQLYc+EC9S9DB+5GyQBWrRUCLNYbBg0wAQQDrHkH4eabBzXaaQK2RSMCEp6XB
8r+3QDdn00CCM7/BTrPWQKeA9kCrPrDBLteOQKpAakDqw6LB43TIQFpXrUCAc6/BmUq0QPnVU0Dr
6JHBaGXoQEAVIEGrqLDBiHFTQPBBb0AtwZLBY3b9QJeeXUBS+ZHB5hvKQCFuIUEtuMXBl5OVQPLS
KD9jn6TBh9bhQDvzfb/C97XBh1vqQOks1T8MvbbBNY3RQBmMuUCOy57B2/kAQU1RsUDoRKbBk5HM
QDzbakBhLbnBYyGXQHkfiECxsLbB1935QO6qTkDTk6bB0queQKOO10AkjdLBZS+NQGkAB0G1GdHB
W6DCQO1dAUGclNXBxv2QQEgoQUBboYPB7lHDQITUCUA4OITBvSHCQKR8e0CKFILBomQFQYIVL0FA
G6TB1AjsQPsXGEGzM6DBo3cOQaO0FEEhkKfBN29pQHz8fkAjl6bBDRn8QPHGJkE7ALbBNYtQQM/t
a0AOxorB7GgeQJLoekBC/ZbByj6kQBf3BcDG66bB2ePMQBCGxr7/UbHBKHDQQM1NiT9iXrLBCKCu
QNT3Qb+t6anBdTvQQBvqD0Fpv77Btnu0QOOo3j8FvKvBWN7cQKJBDUGGCrTBs6i9QGrb/ECxI8TB
1evFQIxw00DYx7TB/DXcQGZ2WkCY9JfByZ6OQLu0ZkAsLpjBjOLhQCT1o0A+cabB/G21QHYdg0Bu
5rPB6jHdQLeLaUDOAKTBm92zQLT0TkB3yanBtBv1QGWZHkE8Ka7BI2u0QCehU0B4sIbBeI6aQH71
30Aqw9TBDkWbQMVkS8BbW6TB0UvXQJiC9ECrSK/BGmW4QAYh10ByAr/B9fONQEOXZ0BTT6PB1cfF
QJxQrEAdtK/BcQG1QM5dWEDeg5LBdXuyQIKaAEHC287BKB1VQPXXdEDcJ5PB+BL+QNePYECIDpPB
F6PWQCTAIkE81sPB6aiVQC8kHj/DUKTBs+XfQJt0i7+S2rXBVnbmQPNxyD9Du7fBosbXQKxAt0Cd
h5/BfacBQfSMq0BBcqjBhFLLQMb2akCd47nB02uVQEPhhkBDcLfBvFT4QOxpRkB7fKfBf0P/QAOU
GEGcSqbBErkIQYw6I0EP17LB5D3gQFmbLEHpE63BLRiTQPOQUkCl24PBbNbEQMH9GEC3EYTBG+bE
QK3nhUCzWYPB/niVQGl96kAEEN3B5/esQFn1wUC/vNTB9dJ2QO6p2kCS4dDBAkJmQPVaeUCOEKfB
T92gQBTtDUEXVs/BjsFTQDeedUB4KIvBiV4fQKzefkCMUJfBcrXnQNvk7r+fyK3Bjc6tQBgPm77U
ebPBNLOgQGU4jT9+GrLBD+DSQAi7GL+mB67BUn/CQIgHEEGW2r/BrYq8QKHc5z8asqvB4rqjQNGu
/0A/c8HBUC3jQJaEDEEjS7jBfhfGQJuU1UAAm7TBg5DaQFm7YUCBLZbBUZGMQKgeXUD6q5fBADbe
QL6cqkBCcaTBfw64QNmohUAmqLLBjPrdQDz8dEBvNaLBpa23QPAAUkD3tqjBdip+QKsSA0FzNMnB
XY+uQD2TU0DlhIXBvegTQcDHGEFAg6/BDRn5QFNrOcB7ga3BzVymQO7V2kDM37vBTP/jQKoT9EBg
srLBa+GOQBOxXkDMzqLBRK3HQAXVr0C4zK7BoheyQLF8WEABWpHB0jEBQcAnHEFsnLbBUuVMQFjz
YEBOR5PBFoX7QMpWYkC41ZDBPpfAQGGZIkEnbsXBKVDmQHrwST+8RKfBfEmcQOWhgr8YOLjBrXCE
QFjrwz87t7XBC0PNQI/1u0CAEJ7BRj7/QCGLtkARCKXB+MDNQMM5cUBIxbjBGKiXQFGeiEANBLbB
uq37QFqYWEBlU6XB8b1UQFyv6UBcKMnBFblYQJ8rEUFLycbB/+KLQEuPBUGmTtHBTL2MQKp7TEAd
P4PB2dHAQNofHED+l4LBBoS7QJU9h0Bw84HBHeYdQSdFJ0Hkdq/BpFUOQSpkFUHvVqfB9F8dQZwr
C0HDd7LB8xtoQJK+aEAC/KbBHikHQSmhH0H1073BzPtGQGOhYEAWUIvBOr8YQCgwZEAE5pfB

> <OMEGA_E>
QMbcPFA6Zj5I0yQ/

> <OMEGA_NBR>
      2802

$$$$
26899
  -OEChem-04172616093D

 50 53  0     1  0  0  0  0  0999 V2000
    6.6220   -1.0551  -22.0978 C   0  0  0  0  0  0  0  0  0  0  0  0
    5.6480   -1.8155  -21.4296 C   0  0  0  0  0  0  0  0  0  0  0  0
    4.5770    0.2291  -20.6596 C   0  0  0  0  0  0  0  0  0  0  0  0
    5.5530    1.0166  -21.3215 C   0  0  0  0  0  0  0  0  0  0  0  0
    6.5832    0.3508  -22.0532 C   0  0  0  0  0  0  0  0  0  0  0  0
    5.5070    7.3314  -25.4384 C   0  0  0  0  0  0  0  0  0  0  0  0
    4.6263   -1.1707  -20.7136 C   0  0  0  0  0  0  0  0  0  0  0  0
    6.0927    7.6731  -24.2008 C   0  0  0  0  0  0  0  0  0  0  0  0
    4.9778    6.0385  -25.6032 C   0  0  0  0  0  0  0  0  0  0  0  0
    5.6965    5.5077  -23.4428 C   0  0  0  0  0  0  0  0  0  0  0  0
    6.7982    3.1931  -19.1675 C   0  0  0  0  0  0  0  0  0  0  0  0
    4.3731    3.2148  -19.0804 C   0  0  0  0  0  0  0  0  0  0  0  0
    6.6850    4.6426  -21.2598 C   0  0  0  0  0  0  0  0  0  0  0  0
    5.3387    3.1605  -22.6392 C   0  0  0  0  0  0  0  0  0  0  0  0
    6.7403    3.2194  -20.6985 C   0  0  2  0  0  0  0  0  0  0  0  0
    5.4646    2.5531  -21.2550 C   0  0  2  0  0  0  0  0  0  0  0  0
    6.6004    9.0743  -23.9478 C   0  0  0  0  0  0  0  0  0  0  0  0
    5.6620    3.2107  -16.9382 C   0  0  0  0  0  0  0  0  0  0  0  0
    3.5709    4.4727  -26.7675 C   0  0  0  0  0  0  0  0  0  0  0  0
    6.1731    6.7527  -23.2202 N   0  0  0  0  0  0  0  0  0  0  0  0
    5.0861    5.1531  -24.5950 N   0  0  0  0  0  0  0  0  0  0  0  0
    4.2974    3.0269  -20.4547 N   0  0  0  0  0  0  0  0  0  0  0  0
    5.8408    4.5375  -22.4780 N   0  0  3  0  0  0  0  0  0  0  0  0
    5.6132    3.1600  -18.4169 N   0  0  0  0  0  0  0  0  0  0  0  0
    3.2607    3.4482  -18.4303 N   0  3  0  0  0  0  0  0  0  0  0  0
    7.8942    3.2854  -18.6260 O   0  0  0  0  0  0  0  0  0  0  0  0
    4.3351    5.7066  -26.7847 O   0  0  0  0  0  0  0  0  0  0  0  0
    7.5443    1.0271  -22.7277 F   0  0  0  0  0  0  0  0  0  0  0  0
    5.4224    8.2365  -26.4399 F   0  0  0  0  0  0  0  0  0  0  0  0
    3.4089   -2.1039  -19.8872 Cl  0  0  0  0  0  0  0  0  0  0  0  0
    7.4057   -1.5529  -22.6494 H   0  0  0  0  0  0  0  0  0  0  0  0
    5.6849   -2.8942  -21.4663 H   0  0  0  0  0  0  0  0  0  0  0  0
    3.7857    0.7140  -20.1071 H   0  0  0  0  0  0  0  0  0  0  0  0
    6.2297    5.3292  -20.5309 H   0  0  0  0  0  0  0  0  0  0  0  0
    7.6940    4.9973  -21.5169 H   0  0  0  0  0  0  0  0  0  0  0  0
    5.9499    2.6051  -23.3658 H   0  0  0  0  0  0  0  0  0  0  0  0
    4.2895    3.1642  -22.9694 H   0  0  0  0  0  0  0  0  0  0  0  0
    7.6229    2.7030  -21.1040 H   0  0  0  0  0  0  0  0  0  0  0  0
    6.9912    9.1436  -22.9219 H   0  0  0  0  0  0  0  0  0  0  0  0
    7.4033    9.3079  -24.6625 H   0  0  0  0  0  0  0  0  0  0  0  0
    5.7761    9.7914  -24.0752 H   0  0  0  0  0  0  0  0  0  0  0  0
    4.6390    3.1741  -16.5355 H   0  0  0  0  0  0  0  0  0  0  0  0
    6.2354    2.3512  -16.5607 H   0  0  0  0  0  0  0  0  0  0  0  0
    6.1483    4.1444  -16.6193 H   0  0  0  0  0  0  0  0  0  0  0  0
    3.1085    4.3135  -27.7528 H   0  0  0  0  0  0  0  0  0  0  0  0
    4.2397    3.6306  -26.5361 H   0  0  0  0  0  0  0  0  0  0  0  0
    2.7854    4.5388  -26.0003 H   0  0  0  0  0  0  0  0  0  0  0  0
    3.4337    3.2149  -20.9225 H   0  0  0  0  0  0  0  0  0  0  0  0
    3.2805    3.5922  -17.4410 H   0  0  0  0  0  0  0  0  0  0  0  0
    2.3913    3.4825  -18.9233 H   0  0  0  0  0  0  0  0  0  0  0  0
  1  2  2  0  0  0  0
  1  5  1  0  0  0  0
  2  7  1  0  0  0  0
  3  4  1  0  0  0  0
  3  7  2  0  0  0  0
  4  5  2  0  0  0  0
  4 16  1  0  0  0  0
  5 28  1  0  0  0  0
  6  8  1  0  0  0  0
  6  9  2  0  0  0  0
  6 29  1  0  0  0  0
  7 30  1  0  0  0  0
  8 17  1  0  0  0  0
  8 20  2  0  0  0  0
  9 21  1  0  0  0  0
  9 27  1  0  0  0  0
 10 20  1  0  0  0  0
 10 21  2  0  0  0  0
 10 23  1  0  0  0  0
 11 15  1  0  0  0  0
 11 24  1  0  0  0  0
 11 26  2  0  0  0  0
 12 22  1  0  0  0  0
 12 24  1  0  0  0  0
 12 25  2  0  0  0  0
 13 15  1  0  0  0  0
 13 23  1  0  0  0  0
 14 16  1  0  0  0  0
 14 23  1  0  0  0  0
 15 16  1  0  0  0  0
 16 22  1  0  0  0  0
 18 24  1  0  0  0  0
 19 27  1  0  0  0  0
  1 31  1  0  0  0  0
  2 32  1  0  0  0  0
  3 33  1  0  0  0  0
 13 34  1  0  0  0  0
 13 35  1  0  0  0  0
 14 36  1  0  0  0  0
 14 37  1  0  0  0  0
 15 38  1  0  0  0  0
 17 39  1  0  0  0  0
 17 40  1  0  0  0  0
 17 41  1  0  0  0  0
 18 42  1  0  0  0  0
 18 43  1  0  0  0  0
 18 44  1  0  0  0  0
 19 45  1  0  0  0  0
 19 46  1  0  0  0  0
 19 47  1  0  0  0  0
 22 48  1  0  0  0  0
 25 49  1  0  0  0  0
 25 50  1  0  0  0  0
M  CHG  1  25   1
M  END
> <OMEGA_C>
GefTQMEOh79EyLDBgLy0QGFi6L+6b6vBYnaSQC6kaj7pRqXBDbKxQPEfgj9ykqrBNKnSQI6Xsz7u
bLDBNDmwQHia6kDOgcvBZQqUQHbZlb9dtaXBevfCQMGJ9UA9m8HB6UmfQFc7wUBO08zBp0m2QK8+
sEDbirvBJYvZQLxbTEAaV5nBcvCLQES/TUCTpJjBcuvVQGCQlEAGFKrB5NaqQJxFSkAJHbXBgLDX
QLsKTkB3lqXBYd6uQKBmI0BLCqrBgjbTQG0wEUENlb/BJi+1QKZ7TUBfgYfBK4pkQLogj0DwI9bB
HYrFQNIV2ED0wrnBGsGiQOnlpECbwsTB6IOJQE64QUBOo6PBPOi6QGYzkUDx0rPBKJ+zQMs9SkDD
VZPBPq9QQIKvXEBVcZPBqJ38QLxDUkAdApXBdrmKQB6ctkAoR9bBJGvxQGp4gz9a0rXBXIStQMvI
A0HxhNPBDSxaQJSlBsD9GJ/B4vvsQEfFxr8KMrXBeeq1QFM7OcASu6vBWUlyQADHNj9O26DBrlnH
QBOJqkBDP6TBVDX2QH7pn0CkIqzBtmW+QA+6JkAt7brBgUOJQL6BSkBuwbfBce7zQHb+LED31KjB
KrjfQDxMEkEGYLfBEOjsQB7tFEG0TMXBjNW4QK+pHEH6mcDBqHKUQI8kS0DGSITBdojHQKV5FkBW
fITBob7EQOaehEA+9ITBPPFGQD8IikDKBd7BWauHQIZbaEDzSdTBo0QyQLQ9kUCoANDBw8FbQOLA
TUAuYafB2PNRQGLmZUATh4vBQQsZQE7hXkDjYpfB+RXTQK4kd78TVbLBf7CxQJlS3r+JCa7BmPyQ
QPQZjD57vKbBY4myQM8NiT/e6qrBpsTTQIDJ2z6n3rDBGKirQFya5UAubczBOqCQQAKSjr+TSajB
TqycQIxIu0AMwczBiNDAQCYY9EB7JMPB2vy3QHZDsEC/l7vBnWDZQApPTUBazZjBWsOLQIgRTECt
dJjBhjHXQO6ClkDakanBlIasQOYmTkCJpLTBkK/YQHr2UEAdF6XB7DSwQHp0JkB5wanB19uBQE7f
qkDB9NXBaqGzQHg6RUAaK4fBjKvjQCTzFUEXNrnBwB+jQEjDoUALXMTBDtDGQILR2EDpzLrBv1eK
QDRzQ0AmeqPBUN+7QANCk0CwUrPBNQOzQN7DRkB8AJPBDIlPQNgQWkDRYpPBuN77QBjTVEBAOpTB
8LnNQEI3D0FGzcLBQin0QFuCjz8yfrXBISelQOoeAEFRy9TBoNZMQN2QA8BqMKPBGmbsQHQRub8R
ybbBgG+xQO+yM8CXJ6/BT8RuQMHGPT/JTKLBP9zIQNiGrEBhtqPBt4T3QDKsoUCmp6vBxofAQEt8
K0CTcbrBdw2LQI2xTUBXXbfBay71QBQ4MEAkPqjBTA1uQOYgikBPMtTBKshLQPzKv0D3DNfBTCiV
QN3EqkDIUN3Bx7KSQAnhP0AzIoTBV3rGQCQFDkCzaITByi/CQJBSgECSKYTBWULsQMf2JkFt47nB
L5TOQM2mE0GgQrLBZnIAQShcDEHwLLjBQEheQEgRUUDlVKfBEINPQBZHYUDcb4vBAZUYQAuLXUCl
dpfBKtSGQCyhl79qB6rBuaStQEFH77/gfqvBs6LTQFklhD7+/qvBkfesQI9OeD8QK6rBmhSGQG7K
Yz6Kf6nBS2KnQDX77UDYqsrBnvXTQIu/kr/Bj6zBOKqvQORb+EDj4b/BoyOlQPt4wkAbms3BR4ey
QKd5r0AGzLvBB3TcQB+ZTEDG7pnBDOSOQPcaUEAU4JfBxwHTQJz/k0CShqrBI6KnQJNXRkAiHLXB
gMTWQDPkTEAoHqbBAqusQJxOIUBk0anBkVixQBFIE0F4QLzBpV29QKouX0DTnIfBfaOdQOFZikD4
r9rBVpS1QBjc2ECfqbjBJCyqQM0FpEDjA8bBPHmJQBndQUAAzaLBC1S4QISaj0DNQ7TBLDe4QBEQ
UEAoQ5PBhhtZQHr9XkAlHZLBvGkAQVtYUkCeTJbBAf6dQNS/t0CyN9jBMOA+QKj7Uj8zeKjBC8Kh
QNqRBkGbEtLBaRYCQRXF/r/hp67Bx7JSQJfW3r+XTanBGweuQA+2PMCLzavBjjXxQJO7TT8a96zB
22bDQBEjqUBwq6TBqcPyQL3aoEB8i6zBnmq6QHgfIUA/67rB7sqFQFabRkAWiLfB1CPyQJ11LEAQ
4qnBc5+3QMDjE0ElmbPBSBbLQDuqG0FHjMDBGIySQGUTG0F0+b3B57mdQLHEX0C2wYPBePrQQO3P
K0DhH4TBFznNQK+WjkDWUYbBK7iXQPbbhUABSuPBEMK8QCOEeEDhkNjBLCyEQAgQdUBtE9bBWdJZ
QDDlTUBOFKbBoI1eQFqlakDzRorBhVwfQJerXkASkJXB

> <OMEGA_E>
AKcOPRDMhD6IL58+

> <OMEGA_NBR>
      2832

$$$$
220575
  -OEChem-04172616093D

 50 53  0     1  0  0  0  0  0999 V2000
    5.6341   -1.8142  -21.4647 C   0  0  0  0  0  0  0  0  0  0  0  0
    6.6086   -1.0519  -22.1298 C   0  0  0  0  0  0  0  0  0  0  0  0
    4.5765    0.2279  -20.6685 C   0  0  0  0  0  0  0  0  0  0  0  0
    5.5550    1.0174  -21.3255 C   0  0  0  0  0  0  0  0  0  0  0  0
    4.6179   -1.1723  -20.7378 C   0  0  0  0  0  0  0  0  0  0  0  0
    6.5769    0.3535  -22.0710 C   0  0  0  0  0  0  0  0  0  0  0  0
    5.4828    7.3376  -25.4235 C   0  0  0  0  0  0  0  0  0  0  0  0
    6.0925    7.6686  -24.1943 C   0  0  0  0  0  0  0  0  0  0  0  0
    4.9671    6.0396  -25.5967 C   0  0  0  0  0  0  0  0  0  0  0  0
    5.7089    5.4979  -23.4465 C   0  0  0  0  0  0  0  0  0  0  0  0
    6.8173    3.1999  -19.1765 C   0  0  0  0  0  0  0  0  0  0  0  0
    4.3910    3.2144  -19.1259 C   0  0  0  0  0  0  0  0  0  0  0  0
    6.7152    4.6320  -21.2738 C   0  0  0  0  0  0  0  0  0  0  0  0
    5.3292    3.1604  -22.6257 C   0  0  0  0  0  0  0  0  0  0  0  0
    6.7652    3.2125  -20.7030 C   0  0  2  0  0  0  0  0  0  0  0  0
    5.4777    2.5548  -21.2415 C   0  0  2  0  0  0  0  0  0  0  0  0
    6.5889    9.0717  -23.9291 C   0  0  0  0  0  0  0  0  0  0  0  0
    5.6487    3.2149  -16.9658 C   0  0  0  0  0  0  0  0  0  0  0  0
    3.5912    4.4544  -26.7741 C   0  0  0  0  0  0  0  0  0  0  0  0
    6.1863    6.7417  -23.2219 N   0  0  0  0  0  0  0  0  0  0  0  0
    5.0951    5.1456  -24.5978 N   0  0  0  0  0  0  0  0  0  0  0  0
    5.8577    4.5283  -22.4825 N   0  0  3  0  0  0  0  0  0  0  0  0
    5.6233    3.1658  -18.4443 N   0  0  0  0  0  0  0  0  0  0  0  0
    4.3165    3.0288  -20.4236 N   0  3  0  0  0  0  0  0  0  0  0  0
    3.2057    3.4464  -18.4412 N   0  0  0  0  0  0  0  0  0  0  0  0
    7.9063    3.3123  -18.6249 O   0  0  0  0  0  0  0  0  0  0  0  0
    4.3179    5.7111  -26.7763 O   0  0  0  0  0  0  0  0  0  0  0  0
    3.6728   -1.9003  -20.1038 F   0  0  0  0  0  0  0  0  0  0  0  0
    7.5348    1.0317  -22.7487 F   0  0  0  0  0  0  0  0  0  0  0  0
    5.3653    8.2565  -26.4092 F   0  0  0  0  0  0  0  0  0  0  0  0
    5.6660   -2.8927  -21.5122 H   0  0  0  0  0  0  0  0  0  0  0  0
    7.3875   -1.5480  -22.6899 H   0  0  0  0  0  0  0  0  0  0  0  0
    3.7899    0.7110  -20.1079 H   0  0  0  0  0  0  0  0  0  0  0  0
    6.2735    5.3269  -20.5445 H   0  0  0  0  0  0  0  0  0  0  0  0
    7.7244    4.9763  -21.5437 H   0  0  0  0  0  0  0  0  0  0  0  0
    5.9134    2.5922  -23.3645 H   0  0  0  0  0  0  0  0  0  0  0  0
    4.2726    3.1807  -22.9309 H   0  0  0  0  0  0  0  0  0  0  0  0
    7.6416    2.6841  -21.1065 H   0  0  0  0  0  0  0  0  0  0  0  0
    6.9833    9.1340  -22.9041 H   0  0  0  0  0  0  0  0  0  0  0  0
    7.3868    9.3196  -24.6446 H   0  0  0  0  0  0  0  0  0  0  0  0
    5.7578    9.7828  -24.0459 H   0  0  0  0  0  0  0  0  0  0  0  0
    4.6195    3.1776  -16.5794 H   0  0  0  0  0  0  0  0  0  0  0  0
    6.2164    2.3552  -16.5802 H   0  0  0  0  0  0  0  0  0  0  0  0
    6.1296    4.1484  -16.6382 H   0  0  0  0  0  0  0  0  0  0  0  0
    3.1202    4.3009  -27.7563 H   0  0  0  0  0  0  0  0  0  0  0  0
    4.2880    3.6284  -26.5687 H   0  0  0  0  0  0  0  0  0  0  0  0
    2.8147    4.4813  -25.9954 H   0  0  0  0  0  0  0  0  0  0  0  0
    3.4482    3.2116  -20.8848 H   0  0  0  0  0  0  0  0  0  0  0  0
    2.3376    3.4674  -18.9373 H   0  0  0  0  0  0  0  0  0  0  0  0
    3.2200    3.5925  -17.4521 H   0  0  0  0  0  0  0  0  0  0  0  0
  1  2  2  0  0  0  0
  1  5  1  0  0  0  0
  2  6  1  0  0  0  0
  3  4  1  0  0  0  0
  3  5  2  0  0  0  0
  4  6  2  0  0  0  0
  4 16  1  0  0  0  0
  5 28  1  0  0  0  0
  6 29  1  0  0  0  0
  7  8  1  0  0  0  0
  7  9  2  0  0  0  0
  7 30  1  0  0  0  0
  8 17  1  0  0  0  0
  8 20  2  0  0  0  0
  9 21  1  0  0  0  0
  9 27  1  0  0  0  0
 10 20  1  0  0  0  0
 10 21  2  0  0  0  0
 10 22  1  0  0  0  0
 11 15  1  0  0  0  0
 11 23  1  0  0  0  0
 11 26  2  0  0  0  0
 12 23  1  0  0  0  0
 12 24  2  0  0  0  0
 12 25  1  0  0  0  0
 13 15  1  0  0  0  0
 13 22  1  0  0  0  0
 14 16  1  0  0  0  0
 14 22  1  0  0  0  0
 15 16  1  0  0  0  0
 16 24  1  0  0  0  0
 18 23  1  0  0  0  0
 19 27  1  0  0  0  0
  1 31  1  0  0  0  0
  2 32  1  0  0  0  0
  3 33  1  0  0  0  0
 13 34  1  0  0  0  0
 13 35  1  0  0  0  0
 14 36  1  0  0  0  0
 14 37  1  0  0  0  0
 15 38  1  0  0  0  0
 17 39  1  0  0  0  0
 17 40  1  0  0  0  0
 17 41  1  0  0  0  0
 18 42  1  0  0  0  0
 18 43  1  0  0  0  0
 18 44  1  0  0  0  0
 19 45  1  0  0  0  0
 19 46  1  0  0  0  0
 19 47  1  0  0  0  0
 24 48  1  0  0  0  0
 25 49  1  0  0  0  0
 25 50  1  0  0  0  0
M  CHG  1  24   1
M  END
> <OMEGA_C>
WUq0QDg46L+zt6vB7nnTQNWlhr/ACbHB2XKSQGRaaT4LWaXBYsKxQPQ4gj+fmqrBI8aTQP8Mlr/x
5qXBPHbSQGP+tD53kbDBv3KvQI/N6kBrY8vBvfXCQABl9UAFjsHBZfKeQJ9EwUAExszBIq+2QLvu
r0BVkrvBMyfaQJnLTEBmaZnBeIOMQMO4TUDvAZnByuLWQPY4lEDBMKrBzYiqQOBDSkBjAbXBz3zY
QCmaTUDRn6XBIkmvQLaBI0CM7qnBd9jSQMIlEUHIbr/BYcK0QAfBTUDeuYfBUtZlQGSKjkBmMdbB
T/bFQBO810CKxrnB9wqjQCSppEBEyMTBUXK7QHXnkEAW3LPBV/KzQB+dSkD5jZPBmSCKQLDXQUCc
Y6PB9ylNQNaRXECph5PBoAD9QCf9U0C+/5TBDSyKQErBtkDONdbBtw5rQLY887981KDBNR3xQDIP
hD9t/bXBj7CrQLAaBEH8RdPBF1C1QO8hOcAJGazBI2bsQFgjxr/4hLXB6Y1yQDQHNj8Q3aDBjcDI
QEt2qkAaW6TBfy73QLM9n0CZWazBxjq9QPblJUBo6rrBJbmIQEuRS0CRcrfBE4j0QO7IK0AR2qjB
VnffQA8lEkGjO7fB+GDsQBQdFUEOKMXB8j+4QD2GHEEAXsDB2dKTQNddS0CaooTBbuzGQE67FkA3
pITBkyXEQAPAhEAKG4XB97BHQCuhiUDNDN7BjzeJQOY3aEC+jNTB2yQ0QM5mj0CZ9s/Bl69cQDSK
TUAsFKfBmpsVQDfpXUB9f5fBkBROQCXsZUDcnYvBU7m4QMen579TEazBdh+WQIxwoL/ZcKbBNyXS
QAth2D5mXLDBxvivQPYfgT+siarBwHvWQLgqeL8NH7HBliKRQHoKEj5Ft6XBaHGuQPH36kDXMMvB
PCTBQGui9UC9QsHBZPieQKocwUAsuczBduS2QNVrr0CfkbvBywnaQCHPSkCUhZnB0m2MQEXAT0DO
9pjB3HHXQGgCk0BQUqrBvneqQJHeSEBWDbXBgunXQP84S0CHuKXB7N2tQAg2I0Bm4KnBmiHRQGo/
EUH9G7/BRVy1QEaMTUBpxIfBU+tnQP30jUASR9bBrTPFQHl+10C1nrnB5I6jQMY8pED/0MTB7qy7
QE8okECc6rPBJgG0QMgFSkD0lpPBPqCJQLBzRUAMX6PBg4tNQDuyXkBlX5PBVQT9QN6SUkBcMJXB
ze+KQEBatkCVPdbBg2L3QDCPv7+turbBPWNcQOz4GD84dqDBTr+qQBM+BEF5DdPBq2u8QFh2OMAg
gazBAzl+QOWl87+/oaLBHDnpQL65hz/ZRrTBsxTKQOe5qUANfaTBPfX3QFUfnUCGjazB8aC9QLmT
I0CrxrrBpvCIQHGDSkBxubfBV1DzQF6rJ0BRAKnBicbeQLULEkHUAbfBFubpQAdsFUH3AMXBNFm2
QFyYHEExwb/BMoyUQIZOTEDilYTBbjnHQE0RFkCFs4TBW1TFQDByhEABOYXBzOhKQEbOiEAQMd7B
XlSKQBltZ0ANg9TBXmE1QB2/jkCRJ9DBeqRcQKYOVUARD6fBTr8VQKpIYUARR5fBtRlPQFnfZkDJ
cIvBr7SxQBKU3b86FK7B6mXTQF4zd79lTbLBMmWRQMwLkT5/vabB9jSzQBOciT9y3arBKr+QQJhN
jb+MUKjB23DUQDwf2z68yLDBEyesQFjo5EB0jMzByfGdQDpXukCO68zBIkG/QAAv9EAOFMPBCFe3
QKNFsEB8hrvBpyfaQCSpTUAh35jB0oGMQAA3TkD455jBDvrXQPmwlkCap6nBgiytQKj8TUDtjrTB
BcjZQCZRUUBWH6XBVCaxQBrJJkASp6nBy9WEQEZBqUBpWNbB7vWyQNS+SUA7aYfBUpDjQF4iFkEm
obnBtnOjQFVAoUAWZMTBoxXFQDwx2UBerbrBJVe7QAKDk0BDMrPBzF2zQIp4SUC/PpPBjjyLQJAF
REB/T6PBGCpMQFzkXEC4opPBrqH8QOZKUEAQNZTB54bJQKaVD0HXkcLB2AtgQFty6r8MUqTBzjn1
QGVajj93TrXBTNCmQGYY/0BdDtXBOSSxQJI/M8A3Q6/BaKrsQG2cub9ivrbB3pxvQD9WQT/eU6LB
147KQM3lrEAxtaPBXRb4QICZoUA9A6zBhMPBQNRXLEBCU7rB08iLQADES0CXVLfBbT32QOZ5MECo
R6jBc1R0QHFtiEAdn9TBO5RRQInBvUCIw9fBpEqZQHQqqUC5gd3BZ7uRQHUaRkAXi4TBPAnFQCxH
EkB4a4TB6tLBQLyHgkDid4TBZovpQOdzJ0G3GbrBHcrSQJVwEkHhHbLBMx0BQdSADUHt2LnB27pf
QM5BUECJKafBPHUVQKlfX0CcxpfBG4hLQLn6ZEA9s4vBgVa2QOyo37+85K3BBvmTQKEBmr8EG6jB
JFnTQPh19z7OfLDBoQSxQChRhz/8oarBI7rVQLB7Zr/JM7LBm5GQQAi5Pz6jlKbBYsipQMks50A0
AszB6ACcQIJ6vEDEsszBh0m/QPO+9ECbssLBGpG4QFGSr0Dlv7vBjdDZQPTQS0DbC5nB3yeMQMq4
TkDC1JjBgwLYQAcrlUBZ1anB7S+sQGIUTEBduLTBNb7YQGaOTkCRSqXBHiivQDgrJkDIoqnBh5SB
QCGorECqCNbBmoGzQDocRkBGeYfBMHXiQMDQFUHIhbjB3KKjQKzLoUAEk8TBd4HGQIle2EChprrB
em69QKPCkUDurrPBQ0mzQHjQR0DQTZPBnGKKQMqVR0DvRqPBst1LQEIXW0DPYZPBFWv8QL7AUUBN
fZTBW6DLQBCbD0EFEcLBoQf2QCC/tL/BHLjBSrFaQF65Ij/9aKHBliyiQE54AUHRFtTBXZq4QBQ0
NMC2Bq/BF9N3QBvi7b9+yqTBThLsQE3gjz9grbPBi2vJQHt2q0AtFaTBfJL4QNcDoECCyavBL2W/
QCaTJkCYabrBwbWKQEHfTUAkbrfBhoT0QPPnK0C9hqjB+wRwQJhDi0CFnNTBjalJQJCwwED93tbB
UK6UQL6ErkAxad3BgmiSQFH1QkAcgYTBmlLFQCehDUBTsITBn/bCQPg8gEBzbYTBMHrqQFnuJkG4
87jBtD3OQFLcEkHNeLHBrQcAQRZiDEHv3bfBl0JfQM8JWUDGFafB9LsUQPJDXkD0bJfBY/FLQATT
YEALaovB

> <OMEGA_E>
4HE4PbDoiT2ANIQ+7OWNPg==

> <OMEGA_NBR>
      6514

$$$$
25935
  -OEChem-04172616093D

 50 53  0     1  0  0  0  0  0999 V2000
    4.5652    0.2282  -20.6591 C   0  0  0  0  0  0  0  0  0  0  0  0
    4.5996   -1.1722  -20.7197 C   0  0  0  0  0  0  0  0  0  0  0  0
    6.5901   -1.0683  -22.1161 C   0  0  0  0  0  0  0  0  0  0  0  0
    5.5450    1.0086  -21.3279 C   0  0  0  0  0  0  0  0  0  0  0  0
    5.6108   -1.8200  -21.4457 C   0  0  0  0  0  0  0  0  0  0  0  0
    6.5655    0.3365  -22.0671 C   0  0  0  0  0  0  0  0  0  0  0  0
    5.4866    7.3425  -25.4177 C   0  0  0  0  0  0  0  0  0  0  0  0
    6.1090    7.6670  -24.1933 C   0  0  0  0  0  0  0  0  0  0  0  0
    4.9585    6.0496  -25.5882 C   0  0  0  0  0  0  0  0  0  0  0  0
    5.7193    5.4967  -23.4477 C   0  0  0  0  0  0  0  0  0  0  0  0
    6.7921    3.1979  -19.1667 C   0  0  0  0  0  0  0  0  0  0  0  0
    4.3666    3.2257  -19.1034 C   0  0  0  0  0  0  0  0  0  0  0  0
    6.7173    4.6212  -21.2743 C   0  0  0  0  0  0  0  0  0  0  0  0
    5.3548    3.1512  -22.6491 C   0  0  0  0  0  0  0  0  0  0  0  0
    6.7493    3.2026  -20.6990 C   0  0  2  0  0  0  0  0  0  0  0  0
    5.4710    2.5450  -21.2634 C   0  0  2  0  0  0  0  0  0  0  0  0
    6.6142    9.0674  -23.9300 C   0  0  0  0  0  0  0  0  0  0  0  0
    5.6407    3.2451  -16.9495 C   0  0  0  0  0  0  0  0  0  0  0  0
    3.5584    4.4780  -26.7558 C   0  0  0  0  0  0  0  0  0  0  0  0
    6.2045    6.7376  -23.2231 N   0  0  0  0  0  0  0  0  0  0  0  0
    5.0924    5.1517  -24.5942 N   0  0  0  0  0  0  0  0  0  0  0  0
    4.3017    3.0269  -20.4755 N   0  0  0  0  0  0  0  0  0  0  0  0
    5.8660    4.5232  -22.4876 N   0  0  3  0  0  0  0  0  0  0  0  0
    5.6006    3.1715  -18.4274 N   0  0  0  0  0  0  0  0  0  0  0  0
    3.2486    3.4740  -18.4694 N   0  3  0  0  0  0  0  0  0  0  0  0
    7.8780    3.3391  -18.6151 O   0  0  0  0  0  0  0  0  0  0  0  0
    4.2898    5.7318  -26.7597 O   0  0  0  0  0  0  0  0  0  0  0  0
    5.6377   -3.1686  -21.5038 F   0  0  0  0  0  0  0  0  0  0  0  0
    7.5299    1.0056  -22.7449 F   0  0  0  0  0  0  0  0  0  0  0  0
    5.3669    8.2636  -26.4009 F   0  0  0  0  0  0  0  0  0  0  0  0
    3.7842    0.7190  -20.0973 H   0  0  0  0  0  0  0  0  0  0  0  0
    3.8471   -1.7530  -20.2070 H   0  0  0  0  0  0  0  0  0  0  0  0
    7.3664   -1.5725  -22.6725 H   0  0  0  0  0  0  0  0  0  0  0  0
    6.2787    5.3229  -20.5496 H   0  0  0  0  0  0  0  0  0  0  0  0
    7.7317    4.9542  -21.5393 H   0  0  0  0  0  0  0  0  0  0  0  0
    5.9647    2.5903  -23.3725 H   0  0  0  0  0  0  0  0  0  0  0  0
    4.3070    3.1622  -22.9835 H   0  0  0  0  0  0  0  0  0  0  0  0
    7.6303    2.6717  -21.0888 H   0  0  0  0  0  0  0  0  0  0  0  0
    7.0159    9.1267  -22.9076 H   0  0  0  0  0  0  0  0  0  0  0  0
    7.4084    9.3121  -24.6506 H   0  0  0  0  0  0  0  0  0  0  0  0
    5.7858    9.7826  -24.0403 H   0  0  0  0  0  0  0  0  0  0  0  0
    4.6156    3.2108  -16.5521 H   0  0  0  0  0  0  0  0  0  0  0  0
    6.2152    2.3938  -16.5555 H   0  0  0  0  0  0  0  0  0  0  0  0
    6.1216    4.1855  -16.6423 H   0  0  0  0  0  0  0  0  0  0  0  0
    3.0717    4.3337  -27.7317 H   0  0  0  0  0  0  0  0  0  0  0  0
    4.2550    3.6478  -26.5673 H   0  0  0  0  0  0  0  0  0  0  0  0
    2.7941    4.5020  -25.9650 H   0  0  0  0  0  0  0  0  0  0  0  0
    3.4419    3.2131  -20.9509 H   0  0  0  0  0  0  0  0  0  0  0  0
    3.2579    3.6306  -17.4818 H   0  0  0  0  0  0  0  0  0  0  0  0
    2.3851    3.5072  -18.9727 H   0  0  0  0  0  0  0  0  0  0  0  0
  1  2  2  0  0  0  0
  1  4  1  0  0  0  0
  2  5  1  0  0  0  0
  3  5  2  0  0  0  0
  3  6  1  0  0  0  0
  4  6  2  0  0  0  0
  4 16  1  0  0  0  0
  5 28  1  0  0  0  0
  6 29  1  0  0  0  0
  7  8  1  0  0  0  0
  7  9  2  0  0  0  0
  7 30  1  0  0  0  0
  8 17  1  0  0  0  0
  8 20  2  0  0  0  0
  9 21  1  0  0  0  0
  9 27  1  0  0  0  0
 10 20  1  0  0  0  0
 10 21  2  0  0  0  0
 10 23  1  0  0  0  0
 11 15  1  0  0  0  0
 11 24  1  0  0  0  0
 11 26  2  0  0  0  0
 12 22  1  0  0  0  0
 12 24  1  0  0  0  0
 12 25  2  0  0  0  0
 13 15  1  0  0  0  0
 13 23  1  0  0  0  0
 14 16  1  0  0  0  0
 14 23  1  0  0  0  0
 15 16  1  0  0  0  0
 16 22  1  0  0  0  0
 18 24  1  0  0  0  0
 19 27  1  0  0  0  0
  1 31  1  0  0  0  0
  2 32  1  0  0  0  0
  3 33  1  0  0  0  0
 13 34  1  0  0  0  0
 13 35  1  0  0  0  0
 14 36  1  0  0  0  0
 14 37  1  0  0  0  0
 15 38  1  0  0  0  0
 17 39  1  0  0  0  0
 17 40  1  0  0  0  0
 17 41  1  0  0  0  0
 18 42  1  0  0  0  0
 18 43  1  0  0  0  0
 18 44  1  0  0  0  0
 19 45  1  0  0  0  0
 19 46  1  0  0  0  0
 19 47  1  0  0  0  0
 22 48  1  0  0  0  0
 25 49  1  0  0  0  0
 25 50  1  0  0  0  0
M  CHG  1  25   1
M  END
> <OMEGA_C>
xRWSQHSiaT7vRaXB2i+TQBoMlr/iwaXB/+HSQGK9iL/g7bDBkHCxQD0bgT+Mn6rB3YuzQPT26L/e
kKvBLBjSQJhIrD5UibDB4JGvQKz16kBwV8vBVH3DQDBY9UDci8HBOqyeQJqWwUCxtMzB3AS3QNDk
r0DWlLvB1ljZQEiqTEBQVZnBV7uLQFVyTkCq05jBWfTWQO3gk0DVMarB5lqrQEStSUBIMbXBXPrX
QCv4TECKl6XBBhKvQBLiIkB0G6rBKKfTQAMUEUGOcL/BuoC0QAGwT0B6mIfBN7xjQJ5Lj0DTC9bB
GovGQJea10DdyLnB3vSiQNzapEDswMTBqaeJQG+4QUDSzaPBnLa7QL69kECJ5rPBvTezQDD5SkBg
a5PBdehPQHdWXkBNwZPBYRj8QD2zVUC565TBskWJQJ5qt0DVE9bBPWi0QNXJSsDBB6zB1/TwQF22
gD979bXB0b2rQKE3BEHxNNPBIzFyQOcPOD9Jx6DBojZ2QDhi4L/hp6HBdrnrQMJGyb9RYbXB7erI
QN9UqkCJZaTB4Wn3QN2InkCAUKzBL9++QK7HJUD6+rrBrNKJQIxhSkAl3rfBgiv0QDv9KkDYtajB
7YHgQMgGEkHdQrfBQRHtQIP+FEF0NMXB7SS5QKyFHEGNUsDBqbKTQBB+TUC4aoTBy+LGQI0zGUCt
cYTBQuTDQNTvhUBZI4XBAZdEQNytikB02t3BHSmIQAh2aUDZidTB5dEyQAgQkEBkuM/BQUhcQAak
TUCFm6fB2YFQQGhbaECl2ovBjaUYQDh1YEAfyJfB4rvSQNZ21z5/WbDBTQrXQOGheL/BKrHBDMCW
QJNLob+4c6bBlImwQCdtgD8mfqrBJx+5QHLc579aL6zBjQqSQDXxCD49kaXBlCOvQAC36kASQMvB
EoPCQEwv9UDtY8HBJvWeQKgWwUAotszBjKO2QA11r0CFh7vBhFPZQBbbS0AlWJnBobyLQDJFUEBe
pZjB/BPXQCo1k0B1Q6rB3x+rQK1/SEAEHLXBsWzXQOvGS0BYmKXBVeOtQGXNIkD07qnBEWTSQPEI
EUE3Ob/B0i21QMRKT0A6gofB0etkQDW/jkD3HNbBP7nFQLJN10BAqrnBTTajQJ1MpEBaxcTBEDCJ
QOt3REBmpKPB2RO7QPNYkECr0rPB+mizQBdYS0ByVZPBdklQQIJbX0BEdJPBX178QFX5UkBFBpXB
tl2KQP+WtkA2LNbBRFa9QN66ScBz6KzBl51fQDLqFD8T/5/BBlOrQKoiBEExGdPBStDpQMjMhz9o
PbTBTVjxQGmosr/Zn7XBO2p/QIjc9L+Gr6LBD/fJQK4dqkARcaTBrJj3QP4YnUBJjazBBlW/QAle
JEBFubrBO96JQC+ASEA+/rfBSiPzQBaTKEDyxKjBRzTfQC/xEUEwCrfBqcbrQJQWFUEa+cTB5723
QGxnHEF6FcDBMXqUQJU5TkBaQYTByR/HQJHjF0BYc4TBDUPFQDtZhUA1CIXBlCxHQJTHiUDg/d3B
RUWIQIMMaEC4W9TBftMyQIg+kEAI8c/BFeVbQDcAU0BAbafBgmhRQAW0Z0AShovBVsoYQDCJYkA9
a5fB4qCQQFgHjz6gl6bBsciPQKcIjr9yGajBhCzSQBzTe78gOrLBXn6yQFkniD+N06rBbIGwQC/J
3r+l5q3BZobTQFgx0T53vrDBqMerQF485UAAbszBlw+dQGjXukB5wczBIc2/QEI09EDyCsPBmd+3
QGwzsEByhrvBD47ZQFwhTUBUxJjBhuuLQPb2TECwlpjB1CjYQDMklkBqn6nBJrqtQCw9TUB9srTB
50fZQD5LUEB8EKXBT8ewQD4aJkDKxKnB4gqDQP4JqkBBDtbBdyezQMjZRUCANofB3A7jQC0uFkHj
WLnB4hCjQIiVoUChSsTBPf3FQBIE2UDar7rBW9qKQPAwRECcm6PBXHS8QPn4kkC7UbPB9/ayQH5C
R0ASDJPBOIxPQEBUW0DVmpPB8uv7QDYYVECAHpTBIgTLQA9/D0FWnMLBgIivQBr7RMBMWK/BonP0
QNvPij9aSLXBTiGmQLqF/0CG59TBkHNuQJ4TQj/aKKLB6NhrQBrv2L/HyqTBfivrQCC9vL8puLbB
Y0jKQNl3rEA5xaPBDIr4QI3foEA3y6vBemfCQDLiKkDkYLrBLH2MQGbqS0DblrfBOsT1QCQRL0B+
JKjBS5VwQF5EiUAuTNTBzw1OQAHAvkCwT9fBwuKWQIjjqUD0Ut3BSBiSQHIOQUA6QITB/K7FQPhg
DkDpZoTBNtbBQAqJgEBNL4TBDwLqQEllJ0Hl67nBbjvQQAUOE0HgE7LBU6MAQUcvDUFf+bjBnsxf
QJdvUkAGiafBmPVOQEiMYkD9p4vBeuwYQLQUX0BCv5fBVJnUQJp5BD/wSbDBhcDWQEqcW7+NXLLB
FqmSQBDclb+XRanBS2CxQPA0ij+nrqrBO+i1QGX22b8Fy67BWsSPQKAJVz6fSafB5EyqQIpW5UAr
VMzBTdCdQCZBukCR58zByM+9QJRq9EDj48LB22i4QACzr0DkpbvB21XZQI/eTEATw5jBK6yLQH8E
T0DBUJjBWVDXQKI5lkB7lanB+bOsQItFTUAckbTBM0bYQMN4UEAtDaXB6iqvQH81J0CdjqnBHvOD
QA4xqUDyNNbBzLuzQMPdRUDmEofBu0DhQMOGFkFxaLnBfQ2lQJaXoEAeksTBPwXFQID12EDepbrB
nwuKQGmfR0CoWKPBJum7QGDqkkBgUbPB0f2yQP9QSECF55LB6mhPQMENXECwMpPB5SP8QCNhUEBs
QpTBOLXGQFbZD0FKOsLBtxK4QDveQcBZuLDBFN5XQEDaJj+gVqLBZ/SiQAkaAEE9m9TBXSXuQFCg
lD+u/7LB6KPxQOsRor9XsrbBRBhzQEkN6r9zhqbBgT3JQEiJrEDfwaPB/L73QL/9oEDXsavBu1vB
QJHOKUBGJbrBmY2LQDVmTEAwhrfBEVT0QG+eLkCERKjBB9V0QLnzh0Dnj9TBuFxOQK0AvUBrS9fB
U3KXQEA5qkBxh93BjMWSQHJfQkBeBITBDrzFQHFLDUDSZITBFkLDQBoOgEA4A4TBn/vlQPPzJ0Fo
wbnBs5TRQKhFEkEj0rHBkzoAQRJyDkEb6rnBiqNeQDp1WEDLNafB6mpPQEeFYUAsOovB3HQYQEqL
YECMQpfB

> <OMEGA_E>
gDEmPMDMCT2gtnA+gPWGPg==

> <OMEGA_NBR>
     10191

$$$$
220577
  -OEChem-04172616093D

 50 53  0     1  0  0  0  0  0999 V2000
    5.6971   -1.8424  -21.5084 C   0  0  0  0  0  0  0  0  0  0  0  0
    4.6354   -1.2445  -20.8173 C   0  0  0  0  0  0  0  0  0  0  0  0
    6.6623   -1.0411  -22.1314 C   0  0  0  0  0  0  0  0  0  0  0  0
    5.5277    0.9964  -21.3260 C   0  0  0  0  0  0  0  0  0  0  0  0
    4.5317    0.1548  -20.7296 C   0  0  0  0  0  0  0  0  0  0  0  0
    6.5852    0.3601  -22.0549 C   0  0  0  0  0  0  0  0  0  0  0  0
    5.4549    7.3364  -25.4151 C   0  0  0  0  0  0  0  0  0  0  0  0
    6.0494    7.6762  -24.1803 C   0  0  0  0  0  0  0  0  0  0  0  0
    4.9567    6.0320  -25.5906 C   0  0  0  0  0  0  0  0  0  0  0  0
    5.7151    5.4920  -23.4459 C   0  0  0  0  0  0  0  0  0  0  0  0
    6.8162    3.1933  -19.1701 C   0  0  0  0  0  0  0  0  0  0  0  0
    4.3946    3.2437  -19.1231 C   0  0  0  0  0  0  0  0  0  0  0  0
    6.7271    4.6205  -21.2740 C   0  0  0  0  0  0  0  0  0  0  0  0
    5.3286    3.1545  -22.6235 C   0  0  0  0  0  0  0  0  0  0  0  0
    6.7626    3.2015  -20.6971 C   0  0  2  0  0  0  0  0  0  0  0  0
    5.4637    2.5516  -21.2350 C   0  0  2  0  0  0  0  0  0  0  0  0
    6.5847    9.0689  -23.9344 C   0  0  0  0  0  0  0  0  0  0  0  0
    5.6515    3.2104  -16.9601 C   0  0  0  0  0  0  0  0  0  0  0  0
    3.5861    4.4429  -26.7684 C   0  0  0  0  0  0  0  0  0  0  0  0
    6.1761    6.7418  -23.2180 N   0  0  0  0  0  0  0  0  0  0  0  0
    5.0958    5.1383  -24.5937 N   0  0  0  0  0  0  0  0  0  0  0  0
    5.8769    4.5173  -22.4881 N   0  0  3  0  0  0  0  0  0  0  0  0
    5.6234    3.1690  -18.4387 N   0  0  0  0  0  0  0  0  0  0  0  0
    4.3246    3.0829  -20.4244 N   0  3  0  0  0  0  0  0  0  0  0  0
    3.2051    3.4580  -18.4400 N   0  0  0  0  0  0  0  0  0  0  0  0
    7.9056    3.2984  -18.6177 O   0  0  0  0  0  0  0  0  0  0  0  0
    4.3298    5.6897  -26.7781 O   0  0  0  0  0  0  0  0  0  0  0  0
    3.4428    0.6336  -20.0853 F   0  0  0  0  0  0  0  0  0  0  0  0
    7.5381    1.0609  -22.7162 F   0  0  0  0  0  0  0  0  0  0  0  0
    5.3459    8.2483  -26.4084 F   0  0  0  0  0  0  0  0  0  0  0  0
    5.7713   -2.9186  -21.5605 H   0  0  0  0  0  0  0  0  0  0  0  0
    3.8878   -1.8656  -20.3465 H   0  0  0  0  0  0  0  0  0  0  0  0
    7.4725   -1.5039  -22.6752 H   0  0  0  0  0  0  0  0  0  0  0  0
    6.2855    5.3216  -20.5505 H   0  0  0  0  0  0  0  0  0  0  0  0
    7.7406    4.9564  -21.5384 H   0  0  0  0  0  0  0  0  0  0  0  0
    5.9064    2.5739  -23.3576 H   0  0  0  0  0  0  0  0  0  0  0  0
    4.2732    3.1887  -22.9317 H   0  0  0  0  0  0  0  0  0  0  0  0
    7.6329    2.6625  -21.0996 H   0  0  0  0  0  0  0  0  0  0  0  0
    7.0325    9.1183  -22.9308 H   0  0  0  0  0  0  0  0  0  0  0  0
    7.3492    9.3063  -24.6889 H   0  0  0  0  0  0  0  0  0  0  0  0
    5.7620    9.7956  -24.0049 H   0  0  0  0  0  0  0  0  0  0  0  0
    4.6225    3.1828  -16.5723 H   0  0  0  0  0  0  0  0  0  0  0  0
    6.2100    2.3425  -16.5796 H   0  0  0  0  0  0  0  0  0  0  0  0
    6.1433    4.1369  -16.6287 H   0  0  0  0  0  0  0  0  0  0  0  0
    3.1351    4.2767  -27.7579 H   0  0  0  0  0  0  0  0  0  0  0  0
    4.2668    3.6119  -26.5316 H   0  0  0  0  0  0  0  0  0  0  0  0
    2.7928    4.4951  -26.0081 H   0  0  0  0  0  0  0  0  0  0  0  0
    3.4750    3.3256  -20.8927 H   0  0  0  0  0  0  0  0  0  0  0  0
    2.3393    3.4851  -18.9398 H   0  0  0  0  0  0  0  0  0  0  0  0
    3.2140    3.5852  -17.4482 H   0  0  0  0  0  0  0  0  0  0  0  0
  1  2  1  0  0  0  0
  1  3  2  0  0  0  0
  2  5  2  0  0  0  0
  3  6  1  0  0  0  0
  4  5  1  0  0  0  0
  4  6  2  0  0  0  0
  4 16  1  0  0  0  0
  5 28  1  0  0  0  0
  6 29  1  0  0  0  0
  7  8  1  0  0  0  0
  7  9  2  0  0  0  0
  7 30  1  0  0  0  0
  8 17  1  0  0  0  0
  8 20  2  0  0  0  0
  9 21  1  0  0  0  0
  9 27  1  0  0  0  0
 10 20  1  0  0  0  0
 10 21  2  0  0  0  0
 10 22  1  0  0  0  0
 11 15  1  0  0  0  0
 11 23  1  0  0  0  0
 11 26  2  0  0  0  0
 12 23  1  0  0  0  0
 12 24  2  0  0  0  0
 12 25  1  0  0  0  0
 13 15  1  0  0  0  0
 13 22  1  0  0  0  0
 14 16  1  0  0  0  0
 14 22  1  0  0  0  0
 15 16  1  0  0  0  0
 16 24  1  0  0  0  0
 18 23  1  0  0  0  0
 19 27  1  0  0  0  0
  1 31  1  0  0  0  0
  2 32  1  0  0  0  0
  3 33  1  0  0  0  0
 13 34  1  0  0  0  0
 13 35  1  0  0  0  0
 14 36  1  0  0  0  0
 14 37  1  0  0  0  0
 15 38  1  0  0  0  0
 17 39  1  0  0  0  0
 17 40  1  0  0  0  0
 17 41  1  0  0  0  0
 18 42  1  0  0  0  0
 18 43  1  0  0  0  0
 18 44  1  0  0  0  0
 19 45  1  0  0  0  0
 19 46  1  0  0  0  0
 19 47  1  0  0  0  0
 24 48  1  0  0  0  0
 25 49  1  0  0  0  0
 25 50  1  0  0  0  0
M  CHG  1  24   1
M  END
> <OMEGA_C>
9062QNLU678aEazBy1SUQJdKn7/XiabBRzHVQDBEhb8aDbHBmOKwQCgRfz+am6rBtwORQAqJHj5L
1qXBv7nSQORauD5xcLDB4o6uQKjD6kAcUsvB6ZTBQJ6j9UA1ccHB6ZyeQEQGwUB+uczBCuK2QBq+
r0BCkbvBuB7aQC5fTEBtXJnBh6CMQFGYT0Ap/JjBGUTXQAHbk0AZMarBtYOqQPDjSUDb/LTB1mbY
QBHmTECqk6XB2NauQE5NI0BL4anBK7bSQEYaEUGeeb/BPdm0QLJ3TUAxrofB+YFlQCcsjkC8JdbB
cqLFQNi810BgvrnBLRGjQDNtpEDVv8TBSw+8QIuNkECI57PBgfKzQH7QSkBegpPBhmOKQAFORUBG
ZaPByR9NQORPXUAhhZPB2Pr8QL0ZU0AK8ZTBco2KQBkStkB4OdbBKVdcQHIxIj+lrqDBTTjxQPvL
hz+/urXBzhGrQPj4A0FTRNPBtK64QJvKOsAAfKzBEtF4QA7M7r+MxaLB6R7vQCmBwL/FZrXBxiLJ
QOtKqkB1Z6TB17L3QNSankC4TqzBGwG9QAa7JEB03LrBDb6IQIQTTEAhdLfBUkD0QNJmKkATzKjB
2wnhQKfkEUFacrfBlizrQH3mFEHVgsXB5mG4QLu6HEHwCcDBkeuTQOKyS0AHlITBerjGQCzrFUAL
o4TBSZbEQDBhhEB6B4XBr6RIQMLaiEAXEN7BXomIQCopZ0DLQNTBpb0yQAHYj0ClENDByGZeQJ/W
VEAuJKfB5rcVQFYMX0C4hJfBKrJNQLl0ZUDclYvBxXq3QJkS7r8HmqvBgx/WQJnVh7+TtLDBQEWV
QDEpob+IL6bB5UWxQIIaez9Ei6rBrUvTQOV+rj79R7DBF46RQEIEED77r6XBCHSvQMDC6kANUsvB
ye/CQGwz9UD6ecHBy56eQFFdwUCmtczB6oi2QGGdr0B4jbvBIvbZQKCETEApZZnBoXaMQAEBUEAt
HpnBNUHXQP6Uk0BSRarBduKqQJnFSEAaEbXBaW/YQB+CTEAdnKXBlAavQENrIkAo7qnBfHfTQAj1
EEHDYr/BNl+0QEptUEDawofBqu9jQJosj0AKHNbB2NfFQLVp10Dct7nBPqCiQDKepEB6vsTBpZy7
QOhSkECM57PB/a6zQI30S0C6lZPB4GGKQN1gRECrgqPB3JtMQJRvXkCXuZPBOsv8QMmOUkBY8pTB
AreJQFAXt0DOI9bBe7fxQPzohD9rn7XBzRJdQNPOHj/DnKDBsA+sQHkVBEGHN9PBRDi6QHfpO8By
16vBaiXwQHhiw7/YALXB5fJ6QC5p8L8rWaLBr3vJQKsoqkCNdqTB+qL3QA8pnkCKfKzBUQG+QD1O
JEC04brBGzqJQE+/SUDqo7fBzGb0QDAWKkB0x6jBzm7gQDndEUGWN7fBs97sQADGFEG6K8XBhR65
QMN/HEFTQMDB6mKTQIE3T0BgsYTB4SbGQA1QGUB0kITB4hnEQNcJhkAoPIXBsKRFQNhqikCy9t3B
nfCHQFXzaEAydtTBOUoyQJ5ekECg4M/BiEJeQDXaUkAGS6fBZFkVQH2qX0D8wZfBAuVMQPiZZ0C5
zovBiY2yQDSL47/4Tq7B5FmQQHZNl7/72ajBxt7TQM5ke7+OQ7LBVIyxQIsThT/I36rBnh+PQACJ
VT4PPKfBH6zTQJxY0T6nprDBdtWpQNnd5UDFL8zBRlqcQK8Uu0AbsczBHg++QEGT9EAMzsLBp+e4
QG2er0DCq7vBGxraQAa7TEBS1pjBupyMQCRWTkDD3ZjBIJrYQEGVlUBTrKnBkOqsQPqjTED5oLTB
+J/ZQO5ST0C6GKXBb22wQO7KJUC0o6nBkuuBQFBpqkA979XBa/+yQHpRRkC3YofBOIriQAtTFkEu
YrnBjNijQKszoUDRasTB/9fFQKPK2ECbp7rBiIu+QOLekUB3nrPB9GCzQFq7R0CONpPBN3yLQFxT
R0AdUKPBJj9MQKCmW0D1kZPBFG78QOhyU0CyKpTB3VDHQDbiD0ElHcLB0CVXQO7aMT/0bqLB3C30
QHEbjj8qILXBq+CiQCNfAEE9fNTBRjqzQFZCNsBudq/Bs0JtQBEv5r8k2qXBde7tQP11uL/rlrbB
T3rJQIG/q0BL+qPBdyT5QNDFoEDDhqvB5JK/QOQzJ0DxcLrBmkOLQM4jT0DOMLfBYMn1QIZXLUBQ
O6jBMn5wQLMyiUDUTtTBZ3dKQBpwvkBm59bBrA6VQA98q0DEUN3BfcaRQMtBQkCshYTBYBXFQElw
DkBVhYTB1NzBQLaagEAgUITBmofnQGq8J0ExsLnBME3TQMwFEkF/v7HBjMkAQVogDkE+DLrBr95h
QMMQWUBwMKfBrrAVQEGRX0BTuZfBJl5LQJ1SYUA2movB4Ia0QFqF4b8SVq7BzmnUQDK8cL+Gq7LB
6LCSQBqdmL8QkajBy3GxQD4phz9MBavBmznTQDjR5j7hG7HBZXqQQBhNSj4l+6bB/GCrQNAR5UBG
f8zBJVKdQMpwukDu18zBV9S/QDIX9EAhK8PBHw64QOolsEBAlrvBzOXZQMmvTEAD4pjBd26MQDWq
TUC5sZjB4inYQKD/lUCRsqnBdEOrQP3xTkC4drTBR/7YQHn1T0DTJaXBBJ2vQG2qJkDem6nBi/mC
QPx2qUCmEdbBWm+zQMfGP0CSYYfBL0/fQDi3FkHKDrnBZcujQEQxoUAkZsTBd0TGQID12EAcz7rB
CG+7QNRyk0AaOLPBVmuzQEcDRkAMLpPBR8aKQKveRkBEIqPB6HdMQB2hWkAFQZPBKV/8QMcuU0CI
RpTBphnLQBVzD0GfyMLBQcHyQDI7lj8WzrXBSE9bQNhsJz+psKHBkX+kQMyS/0DA39TBlgS2QPU/
NcB7cK/B4iDuQBuXsL/mP7fBtwd0QFcP6r9oTKXB40fLQE2GrEBuwKPBYX74QNEtoEBJEqzB5XG+
QMXMK0BcZLrBEoyJQOmeT0CD/bbBB/j0QBTKLUC3WqjBMPNwQKqkiEAwRtTB75dNQB8GvkBJQNfB
q36WQHJkqUBRZN3BkEuSQIMWO0AjeYTB5mDFQCKCBkC66oTBmafCQIsXeUBq+IPBG6vmQMHfJ0Ea
u7nBhI/JQCgZFEFqQ7LBphr9QGO1DUGAw7fBk7xfQMrbV0Bw6KbBVmwVQN95XkCLTpfB4H9MQGYe
YECRSIvB

> <OMEGA_E>
oMszPWC3ND0g54U++PGFPg==

> <OMEGA_NBR>
     13873

$$$$
220580
  -OEChem-04172616093D

 49 52  0     1  0  0  0  0  0999 V2000
    5.7012   -1.7499  -21.6112 C   0  0  0  0  0  0  0  0  0  0  0  0
    4.6478   -1.1614  -20.8871 C   0  0  0  0  0  0  0  0  0  0  0  0
    6.6785   -0.9411  -22.2180 C   0  0  0  0  0  0  0  0  0  0  0  0
    4.5713    0.2359  -20.7604 C   0  0  0  0  0  0  0  0  0  0  0  0
    6.6099    0.4552  -22.0894 C   0  0  0  0  0  0  0  0  0  0  0  0
    5.5609    1.0598  -21.3506 C   0  0  0  0  0  0  0  0  0  0  0  0
    5.3956    7.2456  -25.4694 C   0  0  0  0  0  0  0  0  0  0  0  0
    6.0545    7.6328  -24.2770 C   0  0  0  0  0  0  0  0  0  0  0  0
    4.9145    5.9237  -25.5746 C   0  0  0  0  0  0  0  0  0  0  0  0
    5.7169    5.4927  -23.4320 C   0  0  0  0  0  0  0  0  0  0  0  0
    6.8105    3.1992  -19.1667 C   0  0  0  0  0  0  0  0  0  0  0  0
    4.3795    3.2415  -19.1450 C   0  0  0  0  0  0  0  0  0  0  0  0
    6.7640    4.6439  -21.2688 C   0  0  0  0  0  0  0  0  0  0  0  0
    5.3877    3.1773  -22.6116 C   0  0  0  0  0  0  0  0  0  0  0  0
    6.7818    3.2196  -20.6926 C   0  0  2  0  0  0  0  0  0  0  0  0
    5.4892    2.5820  -21.2356 C   0  0  2  0  0  0  0  0  0  0  0  0
    6.5428    9.0517  -24.0780 C   0  0  0  0  0  0  0  0  0  0  0  0
    4.1390    5.4353  -26.7802 C   0  0  0  0  0  0  0  0  0  0  0  0
    5.6101    3.1964  -16.9731 C   0  0  0  0  0  0  0  0  0  0  0  0
    6.2005    6.7439  -23.2740 N   0  0  0  0  0  0  0  0  0  0  0  0
    5.0787    5.0852  -24.5503 N   0  0  0  0  0  0  0  0  0  0  0  0
    5.8439    4.5625  -22.4320 N   0  0  2  0  0  0  0  0  0  0  0  0
    5.6044    3.1698  -18.4512 N   0  0  0  0  0  0  0  0  0  0  0  0
    4.3169    3.0564  -20.4416 N   0  3  0  0  0  0  0  0  0  0  0  0
    3.1902    3.4877  -18.4724 N   0  0  0  0  0  0  0  0  0  0  0  0
    7.8939    3.2769  -18.5987 O   0  0  0  0  0  0  0  0  0  0  0  0
    5.2245    8.1223  -26.4845 F   0  0  0  0  0  0  0  0  0  0  0  0
    5.7592   -2.8246  -21.7011 H   0  0  0  0  0  0  0  0  0  0  0  0
    3.8959   -1.7856  -20.4274 H   0  0  0  0  0  0  0  0  0  0  0  0
    7.4806   -1.3935  -22.7822 H   0  0  0  0  0  0  0  0  0  0  0  0
    3.7557    0.6830  -20.2114 H   0  0  0  0  0  0  0  0  0  0  0  0
    7.3619    1.0738  -22.5566 H   0  0  0  0  0  0  0  0  0  0  0  0
    6.3868    5.3600  -20.5239 H   0  0  0  0  0  0  0  0  0  0  0  0
    7.7717    4.9460  -21.5904 H   0  0  0  0  0  0  0  0  0  0  0  0
    6.0365    2.6403  -23.3192 H   0  0  0  0  0  0  0  0  0  0  0  0
    4.3493    3.1511  -22.9738 H   0  0  0  0  0  0  0  0  0  0  0  0
    7.6526    2.6748  -21.0863 H   0  0  0  0  0  0  0  0  0  0  0  0
    6.9754    9.1533  -23.0717 H   0  0  0  0  0  0  0  0  0  0  0  0
    7.3094    9.2846  -24.8317 H   0  0  0  0  0  0  0  0  0  0  0  0
    5.6986    9.7485  -24.1861 H   0  0  0  0  0  0  0  0  0  0  0  0
    3.8118    4.3988  -26.6110 H   0  0  0  0  0  0  0  0  0  0  0  0
    3.2590    6.0770  -26.9345 H   0  0  0  0  0  0  0  0  0  0  0  0
    4.7830    5.4756  -27.6711 H   0  0  0  0  0  0  0  0  0  0  0  0
    4.5753    3.1668  -16.6013 H   0  0  0  0  0  0  0  0  0  0  0  0
    6.1613    2.3236  -16.5929 H   0  0  0  0  0  0  0  0  0  0  0  0
    6.0985    4.1185  -16.6250 H   0  0  0  0  0  0  0  0  0  0  0  0
    3.4550    3.2390  -20.9147 H   0  0  0  0  0  0  0  0  0  0  0  0
    2.3275    3.5187  -18.9771 H   0  0  0  0  0  0  0  0  0  0  0  0
    3.1963    3.6340  -17.4831 H   0  0  0  0  0  0  0  0  0  0  0  0
  1  2  1  0  0  0  0
  1  3  2  0  0  0  0
  2  4  2  0  0  0  0
  3  5  1  0  0  0  0
  4  6  1  0  0  0  0
  5  6  2  0  0  0  0
  6 16  1  0  0  0  0
  7  8  1  0  0  0  0
  7  9  2  0  0  0  0
  7 27  1  0  0  0  0
  8 17  1  0  0  0  0
  8 20  2  0  0  0  0
  9 18  1  0  0  0  0
  9 21  1  0  0  0  0
 10 20  1  0  0  0  0
 10 21  2  0  0  0  0
 10 22  1  0  0  0  0
 11 15  1  0  0  0  0
 11 23  1  0  0  0  0
 11 26  2  0  0  0  0
 12 23  1  0  0  0  0
 12 24  2  0  0  0  0
 12 25  1  0  0  0  0
 13 15  1  0  0  0  0
 13 22  1  0  0  0  0
 14 16  1  0  0  0  0
 14 22  1  0  0  0  0
 15 16  1  0  0  0  0
 16 24  1  0  0  0  0
 19 23  1  0  0  0  0
  1 28  1  0  0  0  0
  2 29  1  0  0  0  0
  3 30  1  0  0  0  0
  4 31  1  0  0  0  0
  5 32  1  0  0  0  0
 13 33  1  0  0  0  0
 13 34  1  0  0  0  0
 14 35  1  0  0  0  0
 14 36  1  0  0  0  0
 15 37  1  0  0  0  0
 17 38  1  0  0  0  0
 17 39  1  0  0  0  0
 17 40  1  0  0  0  0
 18 41  1  0  0  0  0
 18 42  1  0  0  0  0
 18 43  1  0  0  0  0
 19 44  1  0  0  0  0
 19 45  1  0  0  0  0
 19 46  1  0  0  0  0
 24 47  1  0  0  0  0
 25 48  1  0  0  0  0
 25 49  1  0  0  0  0
M  CHG  1  24   1
M  END
> <OMEGA_C>
mnC2QLr937/U46zB3bqUQH+nlL/MGKfBArbVQM7scL+FvrHBM0iSQICccT48FabBsoTTQG4Q6T4S
t7DB0/KxQISnhz/7zarBpKisQOrb50BRwcvBMb7BQB5A9EBDN8LBSEOdQA6PvUDMmMzBjPC2QNvD
r0CzdLvBxO/ZQFW/TEBuVZnBjSSMQDF0T0DoKJnBxnLYQNmalECFJqrB6GesQFVZS0CS5LTBxQTZ
QGENTkCEiqXBHqevQEpAJUCb4qnB/l7RQJbTEEGpn8DB6nKEQPLtrUDRPdbBLIazQEKRTEDmyIfB
JmrGQLLN10AuMbrBboSiQBu6okDvZsTB/AC7QDEAkkDVdLPBC1ezQFrdSkD5m5PBuCOKQKGbQ0Bx
iKPBiixMQJE2X0Box5PB7pr8QDS4UUAoypTB8y6nQMD0AUFG4NPBmEu4QKfGNMDQm63B+VV5QPeN
5L9Na6PBQGHvQKBcsr8JQrbB311wQG/aLj/6sKHBaZTrQL9ziT/0c7TBnmDMQHaFq0D/MKTBX7H4
QElFnkAkuazBsirBQP75KECojbrBxS2LQKyrSUA+yrfBTeL0QDUwK0C7sKjB1DbfQA90EkHhkrjB
dubpQKCNFEFip8bB4Vq2QLj5G0EkfcHBBPRzQCLDjEBa49TBjJNQQIJ2wkDnedfBBg6ZQNg3r0Bo
Xt3BzmiSQN6sSkBvz4TBIinFQOO1FEBTvoTBrCbDQNTKg0D+/4TBJx5dQFhMT0A9UafBvPUUQBYz
YUAX0ZfBWZBMQBCUaEB93YvBjg+0QDvY379j2KzBuZLTQBJHdb/fy7HB8E6TQOAjkr//1qbB0YTS
QFe44D6nrrDBYumRQGkbgz5pxaXBI66xQJAMiD9wpqrBujWsQOj350A8xMvBlMzBQMRG9EBcS8LB
rWucQCzOvUCZiszBe3W3QEawr0DCibvBvxnaQOe9TUAQQ5nBLDiMQJkWT0DdKJnBXA/ZQG2UlEAB
LKrBtvusQBcSS0CR6LTBx2PZQAsoTkAtfKXBVQCwQOmeJUAn16nBP4bRQDrWEEEdwMDB/heCQEq2
rkAs/dXBHYyzQB5nUEAlvYfBWO/GQKDA10DyTLrBXTaiQOzaokAxY8TB9Vu8QIGpkUDLnbPBM2mz
QGNJTEDfj5PBVZWKQC3qRECEj6PBcGlLQEvxWkA+1JPByrH8QMs4U0B/sJTB+3qmQL8EAkGi39PB
9wC1QH22NMB6p63BKJDsQLBktr+Zc7bBD1t2QEY/4L+qCqPBNubqQP5yhT+McrTBzxBxQB+xNz/c
NqHBR3bMQDycq0AsT6TBgHn5QHFFnkDamazBRGDBQCB/J0BXibrBxraLQOFPSkADyLfBYj31QNji
KkBOkqjBodrfQJ9yEkHLwLjBgK/pQDKTFEH73sbBwHW2QOP8G0H5gcHBLE1uQK+/jUAij9TBeGVM
QF/Mw0An/9bBEM+VQJWir0CIRt3B0m6SQBV/TkCqw4TBHm/FQCqEGUCihITBY+PCQA0hhkDzI4XB
9bteQLqUUkDsZ6fBF3EUQPp2W0D07JfBEuRKQNf1YkBy5IvBk1e1QBrF3r/+eq3BAp2TQIbYlL9X
n6fBzerUQHdjbL8BHrLBVmaRQIRQbT42WKbBt+HSQECc8D6j2rDBa0ixQBYpiD8H4qrBVTuuQA5m
50A36cvBfx+eQOpYvUAosszB5h3DQOHH80C2WMLB2fy2QFe3r0DpdrvBZ/HZQD3NTUCJU5nBDR+M
QH3QTUDL7ZjBGHzYQB1plEDsOarBuCqrQJQ+TECGw7TBwprYQB78TUCUh6XBpP6uQFpuJUCdzKnB
xnyEQHcvrkDfQNbBK6nSQCqYEEEJu8DBS1K0QN3kTECvrIfBGpqiQL63okCzbMTB5SnHQFyB10CS
RLrBgx+6QM9RkkATWbPB252zQJOvSkBSf5PByryJQHH/QkDlT6PBTlZMQDi6W0Dya5PBiaH8QKK5
VkCh4pTB9W2pQKqnAUHpFtTBlfm2QGUFNMByaq7BErV2QCyN5b8FGaTBKLPuQIQCr7/qpLbBtqRu
QNuYKz8H5KHB+hjrQH0qjD9UdbTBgX3NQJO5q0DJO6TB9ar4QJJRnUBrAq3B/W+/QB7eKUCqiLrB
N7+JQGseS0DwhbfBHUH0QAZoKkA5rKjBWqpxQA1/jUBAyNTBGyVSQPivw0CvgdfBNe+YQBterkCW
at3BPOTfQFlJEkGynrjB2abrQNJBFEGtpsbBlby3QEq/G0Gvv8HBPV6TQGrdSUCzmoTBPKDGQEjZ
FUARpoTBtYHDQHVOhEDU+ITBUQFcQJD4TkDfAqfBvcAUQJU0XUAAYpfBmkBNQBpFZEB7fovBMfSz
QKjC3r8v3q3BOKDUQMlub78fJ7LBmj2SQJSuk79fEKjBl63TQGYN6T5fmrDBQf6QQNwcdD6TjKbB
V+WxQDiMhz9dw6rBXAqtQH1P50Cl4svBptGcQPpKvUD7lMzBGnjCQJ3F80A5Z8LBuo63QAZ0r0Cv
h7vBRgHaQB7HTUApK5nBsS6MQCAiTkCJ/pjBtH3YQAK5lEBPC6rBuHasQB8rS0Dsx7TB2SLZQFxh
TkD6YqXB0NWvQEI+JUDevanB0ciCQG0JrkCDENbB6J3SQFKIEEHW8cDBg5CzQDGCTkDwnofB3Cqi
QDGUokCFW8TBOF/HQCpr10CeXLrBBBy8QGuikUB/irPBD2mzQPzZSkAFcZPBYlCKQNxFQ0BmYqPB
wPlLQEqWXEDLnJPB1IH8QItXVkCGoJTB/SWoQI6AAUFsG9TBR7y0QOnZM8BnCK/BLGzuQAhosb+g
obbBbn9yQJI74792w6TBAOHsQBX0iD914rPBYL1tQKgpLz+bKKLBdH7LQHWQq0CXMKTBG+H4QE3C
nkAjaKzBRYHAQNh6J0DnebrBlBCLQG/QSkA0j7fBFBT1QGaNK0DSf6jBQDxvQL0sjUD9mNTBWxNO
QC87w0B3LtfBsMmWQPuhrkDOTd3B2wLhQBkxEkEC9bjBc9HqQHESFEG2FcfBN8G3QNPLG0EUvMHB
oXuSQDNoS0Cio4TB8ujFQFgWGEAvcITBVG3CQIFghUBc/YTBI6BdQH+HT0BHLafBStIUQHxnXkAR
qpfBMB5MQMYtZUBWr4vB

> <OMEGA_E>
YGIePiDdIj54kSQ+wK8oPg==

> <OMEGA_NBR>
     17503

$$$$
220576
  -OEChem-04172616093D

 50 53  0     1  0  0  0  0  0999 V2000
    4.6162   -1.1847  -20.6928 C   0  0  0  0  0  0  0  0  0  0  0  0
    5.6252   -1.8310  -21.4245 C   0  0  0  0  0  0  0  0  0  0  0  0
    4.5698    0.2175  -20.6430 C   0  0  0  0  0  0  0  0  0  0  0  0
    6.5851   -1.0740  -22.1169 C   0  0  0  0  0  0  0  0  0  0  0  0
    5.5371    1.0028  -21.3258 C   0  0  0  0  0  0  0  0  0  0  0  0
    6.5488    0.3319  -22.0786 C   0  0  0  0  0  0  0  0  0  0  0  0
    5.4929    7.3419  -25.4133 C   0  0  0  0  0  0  0  0  0  0  0  0
    6.0949    7.6675  -24.1787 C   0  0  0  0  0  0  0  0  0  0  0  0
    4.9679    6.0486  -25.5901 C   0  0  0  0  0  0  0  0  0  0  0  0
    5.7122    5.4910  -23.4465 C   0  0  0  0  0  0  0  0  0  0  0  0
    6.8186    3.1949  -19.1882 C   0  0  0  0  0  0  0  0  0  0  0  0
    4.3917    3.2120  -19.1337 C   0  0  0  0  0  0  0  0  0  0  0  0
    6.7352    4.6070  -21.2937 C   0  0  0  0  0  0  0  0  0  0  0  0
    5.3225    3.1507  -22.6334 C   0  0  0  0  0  0  0  0  0  0  0  0
    6.7653    3.1909  -20.7141 C   0  0  2  0  0  0  0  0  0  0  0  0
    5.4702    2.5423  -21.2489 C   0  0  2  0  0  0  0  0  0  0  0  0
    6.6066    9.0641  -23.9084 C   0  0  0  0  0  0  0  0  0  0  0  0
    5.6597    3.2686  -16.9776 C   0  0  0  0  0  0  0  0  0  0  0  0
    3.5336    4.5067  -26.7507 C   0  0  0  0  0  0  0  0  0  0  0  0
    6.1934    6.7322  -23.2148 N   0  0  0  0  0  0  0  0  0  0  0  0
    5.0903    5.1494  -24.5958 N   0  0  0  0  0  0  0  0  0  0  0  0
    5.8616    4.5150  -22.4897 N   0  0  3  0  0  0  0  0  0  0  0  0
    5.6262    3.1716  -18.4539 N   0  0  0  0  0  0  0  0  0  0  0  0
    4.3140    3.0226  -20.4304 N   0  3  0  0  0  0  0  0  0  0  0  0
    3.2064    3.4457  -18.4497 N   0  0  0  0  0  0  0  0  0  0  0  0
    7.9049    3.3458  -18.6402 O   0  0  0  0  0  0  0  0  0  0  0  0
    4.3153    5.7292  -26.7693 O   0  0  0  0  0  0  0  0  0  0  0  0
    7.4958    1.0038  -22.7782 F   0  0  0  0  0  0  0  0  0  0  0  0
    5.3615    8.5261  -26.6916 Cl  0  0  0  0  0  0  0  0  0  0  0  0
    3.8742   -1.7675  -20.1673 H   0  0  0  0  0  0  0  0  0  0  0  0
    5.6636   -2.9099  -21.4549 H   0  0  0  0  0  0  0  0  0  0  0  0
    3.7889    0.7055  -20.0786 H   0  0  0  0  0  0  0  0  0  0  0  0
    7.3565   -1.5751  -22.6828 H   0  0  0  0  0  0  0  0  0  0  0  0
    6.3168    5.3148  -20.5630 H   0  0  0  0  0  0  0  0  0  0  0  0
    7.7476    4.9296  -21.5786 H   0  0  0  0  0  0  0  0  0  0  0  0
    5.9007    2.5791  -23.3742 H   0  0  0  0  0  0  0  0  0  0  0  0
    4.2653    3.1792  -22.9360 H   0  0  0  0  0  0  0  0  0  0  0  0
    7.6359    2.6489  -21.1121 H   0  0  0  0  0  0  0  0  0  0  0  0
    7.0144    9.1147  -22.8881 H   0  0  0  0  0  0  0  0  0  0  0  0
    7.3974    9.3111  -24.6320 H   0  0  0  0  0  0  0  0  0  0  0  0
    5.7801    9.7831  -24.0089 H   0  0  0  0  0  0  0  0  0  0  0  0
    4.6332    3.2331  -16.5840 H   0  0  0  0  0  0  0  0  0  0  0  0
    6.2386    2.4277  -16.5681 H   0  0  0  0  0  0  0  0  0  0  0  0
    6.1326    4.2172  -16.6833 H   0  0  0  0  0  0  0  0  0  0  0  0
    3.0642    4.3562  -27.7341 H   0  0  0  0  0  0  0  0  0  0  0  0
    4.1912    3.6545  -26.5242 H   0  0  0  0  0  0  0  0  0  0  0  0
    2.7529    4.5826  -25.9796 H   0  0  0  0  0  0  0  0  0  0  0  0
    3.4454    3.2071  -20.8902 H   0  0  0  0  0  0  0  0  0  0  0  0
    2.3383    3.4648  -18.9457 H   0  0  0  0  0  0  0  0  0  0  0  0
    3.2207    3.5950  -17.4610 H   0  0  0  0  0  0  0  0  0  0  0  0
  1  2  1  0  0  0  0
  1  3  2  0  0  0  0
  2  4  2  0  0  0  0
  3  5  1  0  0  0  0
  4  6  1  0  0  0  0
  5  6  2  0  0  0  0
  5 16  1  0  0  0  0
  6 28  1  0  0  0  0
  7  8  1  0  0  0  0
  7  9  2  0  0  0  0
  7 29  1  0  0  0  0
  8 17  1  0  0  0  0
  8 20  2  0  0  0  0
  9 21  1  0  0  0  0
  9 27  1  0  0  0  0
 10 20  1  0  0  0  0
 10 21  2  0  0  0  0
 10 22  1  0  0  0  0
 11 15  1  0  0  0  0
 11 23  1  0  0  0  0
 11 26  2  0  0  0  0
 12 23  1  0  0  0  0
 12 24  2  0  0  0  0
 12 25  1  0  0  0  0
 13 15  1  0  0  0  0
 13 22  1  0  0  0  0
 14 16  1  0  0  0  0
 14 22  1  0  0  0  0
 15 16  1  0  0  0  0
 16 24  1  0  0  0  0
 18 23  1  0  0  0  0
 19 27  1  0  0  0  0
  1 30  1  0  0  0  0
  2 31  1  0  0  0  0
  3 32  1  0  0  0  0
  4 33  1  0  0  0  0
 13 34  1  0  0  0  0
 13 35  1  0  0  0  0
 14 36  1  0  0  0  0
 14 37  1  0  0  0  0
 15 38  1  0  0  0  0
 17 39  1  0  0  0  0
 17 40  1  0  0  0  0
 17 41  1  0  0  0  0
 18 42  1  0  0  0  0
 18 43  1  0  0  0  0
 18 44  1  0  0  0  0
 19 45  1  0  0  0  0
 19 46  1  0  0  0  0
 19 47  1  0  0  0  0
 24 48  1  0  0  0  0
 25 49  1  0  0  0  0
 25 50  1  0  0  0  0
M  CHG  1  24   1
M  END
> <OMEGA_C>
sreTQCSll7/miqXB9AG0QMtd6r9IZavBhDuSQHbDXj7fJKXBKbnSQC96ib9777DBBjCxQC9bgD89
m6rBG5DRQCL0qT4KobDBzcWvQAvx6kCHTsvBsQnDQNVb9UDibcHBv/ieQNCNwUCVuMzBNMq2QDu2
r0BokrvBTTLaQPl5TEB/gZnByIiMQAiRTUDPEZnBAYfXQFpsk0CMWarB3lGqQNWlSUAoEbXBkH3Y
QAs4TEB1tqXBoAuvQKm1IkDY/anBBWnTQKQGEUFxRL/BfRy1QCoxUUA40ofBHCdiQB03kECFAdbB
JDDGQHJu10D1t7nBt+OiQAzIpEBGxMTBE5K7QJV6kEDb6rPBMAq0QBn7SkCIoZPBPQyKQLtxQUB3
caPBUTVNQM6GXEDymJPBovT8QFciVkALH5XBTxeKQExVt0B0J9bBvN3vQIt7gD+nObbBsZGrQNJq
CEF3iNXBQfJ3QHU94r+YVqHBFDy1QGk7OsCzo6vByH1yQFibND/loKDBjWjrQDedyb94drXBhiPK
QA4TqkAcgaTBBez3QO6+nUDgoKzB1NK8QEAPJUBY/rrBkX2IQD53S0D5fLfB5Vj0QICHKUCL5ajB
RHbgQPjVEUHMGrfBvLfsQHj6FEFEDsXBqPa4QGqHHEErEsDBN0OUQObrTkDxq4TB86LHQOVfG0Bq
i4TBRD7EQCbzhkBrd4XBhBtEQJlli0Bh393BoR6GQPbjaUCBMdTBUS8wQGqkkkAy1s/BBIFcQOZA
TUA4H6fBJqYVQOm+XUDBkJfBZyBOQDkVZkAesIvBaWrXQGD3d7+0Q7HBbx+5QE3+57+odqzBcU3T
QBMB2T7FUrDBn5aWQISCob88xqbBn+ywQIaigD9fg6rBRAKSQGJjCD7eyaXBVreuQK6d6kDzO8vB
w3vBQGNe9UD1UMHBTOeeQCXdwEDhs8zB9m62QLRxr0BEf7vB+f3ZQGlJS0C/cZnBPWOMQDLAUEAR
BJnBm2bXQDpKk0CORKrBYg2rQEOHSEAFBLXBSivYQC/ES0CwpaXBj2auQAICI0Ay1qnB+jbRQIcl
EUGPI7/Bsdu0QKRfT0DLv4fBb9RnQMq7jUCPRdbBwfvEQIl210DHmrnBaiajQDclpEDzvsTB0VO7
QKxLkEAF0bPBdc+zQAdQS0AckpPBQdCJQInZREByZqPBvUNNQDfYYEDsg5PBO/b8QDSxUECTDZXB
N8CKQGwttkDPNNbBusteQMACFT+sXaDBWx2qQLQ3CEEeeNXBreDxQCr2sb9ErrXBeVm8QOSZOMAJ
JK3Bwa/qQKheiD8kFbTBU5l+QPs59b8EHqPBXCPKQFn+qUDIaqTBas/3QEGAnUCJkKzBVdC+QLgR
JEAcsrrBjZ+JQIPXSECExbfBdcnzQF+pKEC946jBLiveQO4JEkH497bBNXbqQA9IFUFy6cTB7nS2
QPl2HEFk9L/B0/STQHS9TkBjn4TBe3HGQDfKF0DQnITBR/fEQEpOhUB+OIXBUJ9KQKywiEDBLd7B
wWSKQN8NZ0DvjtTBCHc1QMZSjkD4H9DBiMtcQFbvUkCrIafBdqcVQOIHY0Axd5fBZX5OQLQ/akCJ
movBdZeOQNIQjr8r06/BaTuxQADg7b+94avB0RuPQII5lz4RH6/BIUfUQNjemb+8MqfBVk+yQNeh
ej/ZeKrBjR3VQJbGTj5uaKbBXvGuQMVQ7kAsAcvBynqcQEGUxUDNoszBxNzFQCPF9UCkeMHBU1a3
QF9zr0C1HbzB1B/aQKBKU0CpepnBXxmMQC+fTEA2/JjBVJ7TQBWqlUC2SqrB2xqrQGksR0DFLbXB
+PXXQFyYUUC5uaXBNuyvQHuQIUAz2qnBdHSDQHqtu0CxtNbBoL20QGP/YkCA4ofBhZDvQKAtEUHk
rbXBfxWhQN/bpkDxJsXBk3HJQOD/1UDHNrrBXgm8QOHnj0B1cbTBV9mzQO7GUkBtlJPBZ8aJQO7g
OUCUQKPBeYpLQHItWkBzi5PBDBz9QLAOXEB6J5XB41/YQA+8DkFcr7/B5bz3QFYkPz9/oqHBeJ6p
QPtvC0EjldTBGBtnQCNzzr/DZbPBE+iwQGfnO8Cgc6zBkaJoQAKWXD9FKrLBstfuQDPh479tLKTB
6onBQJtUqkAmyaTBx1HzQB/Co0DFx6vB3729QG2RIUB5+rrBt0KJQBPfR0CPmLfBxOz0QKbrMkCL
76jB8shvQAV0mkCoZtbBO/9PQPWR0UA0UNfBpUmYQPvSv0AUud3B1/yTQF0HYEC4roTBg53IQAIv
MkDw8YPByErCQJ5nkUANW4bB8rj8QFZ4IUGEKrXBs6nZQB5qDkEf7q7B/u0EQYV+BUHzXbXBw0Za
QHD9O0AI0KbBttATQIKLVUCrb5fBFEJMQJuJaEDNv4vB

> <OMEGA_E>
4CgPPUCQaj0oFrw+

> <OMEGA_NBR>
     20338

$$$$
220578
  -OEChem-04172616093D

 50 53  0     1  0  0  0  0  0999 V2000
    6.5661    0.3962  -22.0692 C   0  0  0  0  0  0  0  0  0  0  0  0
    4.5967    0.2204  -20.6335 C   0  0  0  0  0  0  0  0  0  0  0  0
    6.6523   -1.0037  -22.1228 C   0  0  0  0  0  0  0  0  0  0  0  0
    4.6915   -1.1794  -20.6840 C   0  0  0  0  0  0  0  0  0  0  0  0
    5.5415    1.0250  -21.3180 C   0  0  0  0  0  0  0  0  0  0  0  0
    5.7210   -1.7904  -21.4222 C   0  0  0  0  0  0  0  0  0  0  0  0
    5.4594    7.3436  -25.3973 C   0  0  0  0  0  0  0  0  0  0  0  0
    6.0879    7.6660  -24.1757 C   0  0  0  0  0  0  0  0  0  0  0  0
    4.9513    6.0440  -25.5762 C   0  0  0  0  0  0  0  0  0  0  0  0
    5.7215    5.4877  -23.4402 C   0  0  0  0  0  0  0  0  0  0  0  0
    6.8137    3.1760  -19.1846 C   0  0  0  0  0  0  0  0  0  0  0  0
    4.3839    3.2311  -19.1527 C   0  0  0  0  0  0  0  0  0  0  0  0
    6.7586    4.5998  -21.2925 C   0  0  0  0  0  0  0  0  0  0  0  0
    5.3758    3.1384  -22.6423 C   0  0  0  0  0  0  0  0  0  0  0  0
    6.7736    3.1811  -20.7123 C   0  0  2  0  0  0  0  0  0  0  0  0
    5.4752    2.5512  -21.2490 C   0  0  2  0  0  0  0  0  0  0  0  0
    6.5887    9.0675  -23.9099 C   0  0  0  0  0  0  0  0  0  0  0  0
    5.6324    3.2288  -16.9841 C   0  0  0  0  0  0  0  0  0  0  0  0
    3.5618    4.4688  -26.7497 C   0  0  0  0  0  0  0  0  0  0  0  0
    6.2006    6.7307  -23.2130 N   0  0  0  0  0  0  0  0  0  0  0  0
    5.0970    5.1418  -24.5876 N   0  0  0  0  0  0  0  0  0  0  0  0
    5.8662    4.5165  -22.4771 N   0  0  3  0  0  0  0  0  0  0  0  0
    5.6126    3.1607  -18.4620 N   0  0  0  0  0  0  0  0  0  0  0  0
    4.3136    3.0448  -20.4504 N   0  3  0  0  0  0  0  0  0  0  0  0
    3.1980    3.4837  -18.4769 N   0  0  0  0  0  0  0  0  0  0  0  0
    7.8971    3.2983  -18.6238 O   0  0  0  0  0  0  0  0  0  0  0  0
    4.2915    5.7231  -26.7515 O   0  0  0  0  0  0  0  0  0  0  0  0
    5.8177   -3.1365  -21.4542 F   0  0  0  0  0  0  0  0  0  0  0  0
    5.3171    8.2719  -26.3708 F   0  0  0  0  0  0  0  0  0  0  0  0
    7.2854    0.9986  -22.6041 H   0  0  0  0  0  0  0  0  0  0  0  0
    3.8008    0.6858  -20.0710 H   0  0  0  0  0  0  0  0  0  0  0  0
    7.4327   -1.4758  -22.7012 H   0  0  0  0  0  0  0  0  0  0  0  0
    3.9728   -1.7880  -20.1553 H   0  0  0  0  0  0  0  0  0  0  0  0
    6.3609    5.3148  -20.5573 H   0  0  0  0  0  0  0  0  0  0  0  0
    7.7717    4.9067  -21.5915 H   0  0  0  0  0  0  0  0  0  0  0  0
    6.0068    2.5798  -23.3492 H   0  0  0  0  0  0  0  0  0  0  0  0
    4.3345    3.1327  -22.9968 H   0  0  0  0  0  0  0  0  0  0  0  0
    7.6399    2.6300  -21.1072 H   0  0  0  0  0  0  0  0  0  0  0  0
    7.0032    9.1226  -22.8924 H   0  0  0  0  0  0  0  0  0  0  0  0
    7.3723    9.3212  -24.6391 H   0  0  0  0  0  0  0  0  0  0  0  0
    5.7551    9.7789  -24.0051 H   0  0  0  0  0  0  0  0  0  0  0  0
    4.6014    3.2048  -16.6015 H   0  0  0  0  0  0  0  0  0  0  0  0
    6.1914    2.3695  -16.5851 H   0  0  0  0  0  0  0  0  0  0  0  0
    6.1196    4.1625  -16.6666 H   0  0  0  0  0  0  0  0  0  0  0  0
    3.0822    4.3215  -27.7286 H   0  0  0  0  0  0  0  0  0  0  0  0
    4.2581    3.6399  -26.5543 H   0  0  0  0  0  0  0  0  0  0  0  0
    2.7919    4.4938  -25.9644 H   0  0  0  0  0  0  0  0  0  0  0  0
    3.4527    3.2401  -20.9203 H   0  0  0  0  0  0  0  0  0  0  0  0
    2.3339    3.5181  -18.9790 H   0  0  0  0  0  0  0  0  0  0  0  0
    3.2078    3.6312  -17.4879 H   0  0  0  0  0  0  0  0  0  0  0  0
  1  3  2  0  0  0  0
  1  5  1  0  0  0  0
  2  4  1  0  0  0  0
  2  5  2  0  0  0  0
  3  6  1  0  0  0  0
  4  6  2  0  0  0  0
  5 16  1  0  0  0  0
  6 28  1  0  0  0  0
  7  8  1  0  0  0  0
  7  9  2  0  0  0  0
  7 29  1  0  0  0  0
  8 17  1  0  0  0  0
  8 20  2  0  0  0  0
  9 21  1  0  0  0  0
  9 27  1  0  0  0  0
 10 20  1  0  0  0  0
 10 21  2  0  0  0  0
 10 22  1  0  0  0  0
 11 15  1  0  0  0  0
 11 23  1  0  0  0  0
 11 26  2  0  0  0  0
 12 23  1  0  0  0  0
 12 24  2  0  0  0  0
 12 25  1  0  0  0  0
 13 15  1  0  0  0  0
 13 22  1  0  0  0  0
 14 16  1  0  0  0  0
 14 22  1  0  0  0  0
 15 16  1  0  0  0  0
 16 24  1  0  0  0  0
 18 23  1  0  0  0  0
 19 27  1  0  0  0  0
  1 30  1  0  0  0  0
  2 31  1  0  0  0  0
  3 32  1  0  0  0  0
  4 33  1  0  0  0  0
 13 34  1  0  0  0  0
 13 35  1  0  0  0  0
 14 36  1  0  0  0  0
 14 37  1  0  0  0  0
 15 38  1  0  0  0  0
 17 39  1  0  0  0  0
 17 40  1  0  0  0  0
 17 41  1  0  0  0  0
 18 42  1  0  0  0  0
 18 43  1  0  0  0  0
 18 44  1  0  0  0  0
 19 45  1  0  0  0  0
 19 46  1  0  0  0  0
 19 47  1  0  0  0  0
 24 48  1  0  0  0  0
 25 49  1  0  0  0  0
 25 50  1  0  0  0  0
M  CHG  1  24   1
M  END
> <OMEGA_C>
Ox3SQHzZyj7AjbDB0ReTQFmnYT5hEaXBst/UQOh3gL95+7DBeiCWQGb3lr/leKXBGFSxQCQzgz80
i6rBYhK3QCws5b+hYKvBQ7OuQBL/6kDELcvB5c/CQPZP9UDKZ8HB5HCeQJ5owUAZnMzBtxa3QFib
r0B5hbvB+AnaQCtDS0AiepnB0kiMQGrKTkCnOJnBqkbYQFExk0AHV6rBSgasQEbcSEB/I7XBWMHY
QCmXS0DbsqXBMDWvQB9HI0AB/qnBw9bSQKEUEUF0R7/Bzzy0QOGjTkBn34fBfPRjQBYAj0Bb/9XB
B2vGQCVi10BMtLnByRqjQD2JpEBns8TBhLe7QDqHkEAw0bPBTZqzQFpJSkAxspPBzwiKQGPeQkB8
mqPBIqxMQED0XkCl0JPBvLT8QMkWU0CD/ZTBRVSJQIYjt0AYA9bBoSq6QNi7SMAooqvBiyWqQLJZ
BEFN99LB4CHpQIehfz9D1bTBgkBzQLqNLz9RkaDBjtjtQN7lvL8AnLXB7EF+QKfc5L8WPqHBGYzL
QL0SqkBUdaTB77H4QAAEnUBqu6zB9DfAQKwbJUA0y7rB7rOKQN19SEB3+bfBsnn0QGdSKECO26jB
4BngQBb2EUG2I7fBrunrQKkjFUHKHMXBuim4QEx2HEFpCsDBXT6TQDscTUDxz4TBLiDGQPGlF0A+
roTBvdPDQD0zhUBJVYXB/UJFQA5KikA61N3BPUKIQDX0aEAtb9TBsK4yQNHMj0Aet8/BbflcQDde
T0DPXKfB514VQPMnYUAT1ZfBC0xNQINlaEAo54vBkbWRQEzAYD52TaXB9snRQNjJzj75Z7DBBzSU
QKoOl7+V96XBCivUQIDbfr/lCbHBFauwQAmkgz/ie6rBrWa1QLa15L8a0KvBpoWvQIfJ6kByVMvB
OkHDQI4j9UBjg8HBNf6eQMVKwUAvwMzB7uG2QFORr0B5lrvBWSPaQHBWTECWepnBcF6MQGtpTUAu
8ZjBpI7XQMJgk0BTV6rBbr+qQLJBSUDzBbXByznYQJEaTECpr6XBX4iuQMGKI0DD3qnB9ZHTQMPy
EEHrZr/Bk0O1QLWMUECmv4fBGmhlQLb3jkClNdbB2mbGQNZK10BKx7nBixijQI2DpEA3y8TBQUC7
QDyMkEAt2bPBegm0QEaQSkBij5PBPqmJQCeWQkCcVqPBZyNNQIhjW0CsX5PBi/j8QN8XVkBbIpXB
/0uKQDP3tkCmNNbBcKq3QOp/SMBjbazBS6KrQDkvBEHRK9PBfTdwQK9yLj/D06DBB17pQC0wgT8s
drTBjS95QLRW5b+z+6HBcZjtQC1iu79wiLXBOpHKQEU0qkBke6TBAPj3QCpinUAisazBGSu+QL26
JEACxbrBzDGJQMHlSUChrrfB0tXzQOXVKEC756jBFJ3gQIXXEUGfPbfBOd/sQAXdFEHDMsXBQhi5
QEltHEHBO8DBEnaUQAwTTkBakoTBe+THQNq/GkAfgYTBtlzEQHSjhkBtY4XBUm9HQH4tikDnFN7B
nL6IQB2xaECritTBsoYzQD4NkEBnAdDBnfBbQLCST0AeAafBnFkVQE3pXEAfSpfBRnlOQAHvY0B1
covBJNGPQIDyjj684abBCcPTQCxw6T7Pc7DBDVKPQMk3jb+k1KjB5PPSQFbIbL8odLLBSB+yQEqr
iT8rq6rBWbqwQKYP2r+lpK7Bxm2qQDSq5UADJMzBtI6cQCb8ukD4rczBE0q+QCA79EC+ssLBZ0u4
QBBir0ALlbvBkUraQHN9TUBK4ZjBXoaMQLnoTUDw7JjBMobZQLxFlUCJ2KnBAjSuQBubS0DEpLTB
2RHaQBELT0C3JKXBReSwQJlDJkCOlqnBg9GBQETGqkCn69XBP/2yQDHLR0DAcIfBjVziQPoEFkEK
ErnBQImjQBoFoUAJYsTBnV7FQOJy2EDnhrrBFmm9QGQAkkAecrPBi26zQImFSECERZPB30KLQH9c
RUDwWaPBQj1MQKcWXEDdoJPBlYb8QO8oVUCpMJTBcszHQGasD0Fl88HB5dKvQAf5QcAvmrDBPfGj
QLRVAEG0b9TBFOZrQGHNPD+YeqLBVDHuQJqHhj9pVrPBu3pqQMB72r+D3KXB/pHsQOi6sb+O6bbB
mz/MQDQirEAXCaTBT/v5QD9cn0BbIqzBA8bCQDviJ0BiN7rB1wGNQNWVSkBXkbfBthn2QHY4LED7
NKjBGvhuQFvFiUDlR9TBiRJLQMdbv0BB59bBrv2UQHpqq0CDTN3BUMKRQN2nQ0CalYTBWSnFQB43
EEDUhITBz7rBQCp8gUClaoTBWJ/nQLxpJ0GhWLnBk2fSQErFEUEQhbHBOaoAQUm2DUFDkbnBRpNg
QK0cVECbPafBkJIVQF90X0BbxJfBOZZLQDrvYkC5rIvBbwrTQIr6Bj9O5bDB+NOQQDCwkD4mrabB
9yLUQOKyW791m7LBIkWSQNBzjb/vVKjBunixQJiMjj+u3qrB1tWzQCFI1r/0Sq7BNhysQMya5EBN
rszBG8adQDsTukC+78zB3ZvAQJ7N80CVYMPB1uW3QKNcsEBgmbvBqO/ZQHgaTUDA9ZjBkiGMQP4a
TEBLp5jBkE3YQKZhlkA4wqnBArqrQDS7T0A6crTBzujYQGarUEAvN6XBR3mvQFJkKEB8kKnBtrmD
QEzjqECLL9bBs9yzQK6uREC7XIfBI8nhQCdUFkF6d7nBNeCjQFQhoUAga8TBp3jGQH4K2UA97LrB
mam6QOIllEA4HbPBW3qzQJruRkDkMJPBGCiKQGRmRUAxFqPBZvRLQGrGV0CzJ5PBAY38QDjqUkDJ
Z5TBVQDNQAsmD0HcIsPBBd20QLp3QMBy8q/BGZ6lQErE/kB8JNXBcvLrQMKFkz/kMLTB14dtQAWy
Nz/LMaLBV7ztQO0Jpr+YOrfBTSJzQApZ3r/vBaXBvEPMQFUVrUCRvqPB9In4QL0hoEB0UazBCfS/
QE5eLUAqOrrB9EmKQNWlTkBBMbfBCrD0QKYXLkD8dajBehdyQI4piEAiWdTB71NPQGyAvUAGetfB
EoWXQOSBqEA9dt3BTNmSQCHEP0AUX4TBVWbGQKT2DEDZoYTBo6LCQD+lf0CmSITB6w/qQNRdJ0Gf
O7rB0AfMQDMkFEG5orLBjhr/QOzxDEE6KbjBAaRdQN0rVEAn0KbB7KgUQFvHWkBtKpfBVkhMQGot
XUAJL4vB

> <OMEGA_E>
AEr+PCC9Cj3kdIE+MLOBPg==

> <OMEGA_NBR>
     24020

$$$$
220584
  -OEChem-04172616093D

 50 53  0     1  0  0  0  0  0999 V2000
    4.5695    0.2360  -20.6695 C   0  0  0  0  0  0  0  0  0  0  0  0
    6.6004   -1.0486  -22.1278 C   0  0  0  0  0  0  0  0  0  0  0  0
    5.5484    1.0212  -21.3300 C   0  0  0  0  0  0  0  0  0  0  0  0
    4.6102   -1.1630  -20.7313 C   0  0  0  0  0  0  0  0  0  0  0  0
    6.5683    0.3556  -22.0758 C   0  0  0  0  0  0  0  0  0  0  0  0
    5.6274   -1.8071  -21.4566 C   0  0  0  0  0  0  0  0  0  0  0  0
    5.4837    7.3389  -25.4223 C   0  0  0  0  0  0  0  0  0  0  0  0
    6.0866    7.6718  -24.1898 C   0  0  0  0  0  0  0  0  0  0  0  0
    4.9673    6.0413  -25.5956 C   0  0  0  0  0  0  0  0  0  0  0  0
    5.7138    5.4977  -23.4476 C   0  0  0  0  0  0  0  0  0  0  0  0
    6.8186    3.1969  -19.1789 C   0  0  0  0  0  0  0  0  0  0  0  0
    4.3925    3.2113  -19.1271 C   0  0  0  0  0  0  0  0  0  0  0  0
    6.7235    4.6268  -21.2780 C   0  0  0  0  0  0  0  0  0  0  0  0
    5.3282    3.1625  -22.6281 C   0  0  0  0  0  0  0  0  0  0  0  0
    6.7666    3.2077  -20.7058 C   0  0  2  0  0  0  0  0  0  0  0  0
    5.4763    2.5564  -21.2447 C   0  0  2  0  0  0  0  0  0  0  0  0
    6.6062    9.0683  -23.9326 C   0  0  0  0  0  0  0  0  0  0  0  0
    5.6535    3.2561  -16.9690 C   0  0  0  0  0  0  0  0  0  0  0  0
    3.5645    4.4725  -26.7625 C   0  0  0  0  0  0  0  0  0  0  0  0
    6.1895    6.7417  -23.2214 N   0  0  0  0  0  0  0  0  0  0  0  0
    5.0959    5.1471  -24.5973 N   0  0  0  0  0  0  0  0  0  0  0  0
    5.8645    4.5267  -22.4859 N   0  0  3  0  0  0  0  0  0  0  0  0
    5.6253    3.1649  -18.4458 N   0  0  0  0  0  0  0  0  0  0  0  0
    4.3172    3.0317  -20.4255 N   0  3  0  0  0  0  0  0  0  0  0  0
    3.2073    3.4409  -18.4415 N   0  0  0  0  0  0  0  0  0  0  0  0
    7.9063    3.3237  -18.6277 O   0  0  0  0  0  0  0  0  0  0  0  0
    4.3216    5.7111  -26.7766 O   0  0  0  0  0  0  0  0  0  0  0  0
    3.6650   -1.8840  -20.0874 F   0  0  0  0  0  0  0  0  0  0  0  0
    7.5251    1.0306  -22.7583 F   0  0  0  0  0  0  0  0  0  0  0  0
    5.6706   -3.1563  -21.5148 F   0  0  0  0  0  0  0  0  0  0  0  0
    5.3763    8.2540  -26.4125 F   0  0  0  0  0  0  0  0  0  0  0  0
    3.7828    0.7225  -20.1120 H   0  0  0  0  0  0  0  0  0  0  0  0
    7.3780   -1.5473  -22.6873 H   0  0  0  0  0  0  0  0  0  0  0  0
    6.2861    5.3248  -20.5489 H   0  0  0  0  0  0  0  0  0  0  0  0
    7.7343    4.9655  -21.5491 H   0  0  0  0  0  0  0  0  0  0  0  0
    5.9077    2.5910  -23.3682 H   0  0  0  0  0  0  0  0  0  0  0  0
    4.2711    3.1888  -22.9312 H   0  0  0  0  0  0  0  0  0  0  0  0
    7.6406    2.6748  -21.1085 H   0  0  0  0  0  0  0  0  0  0  0  0
    7.0231    9.1236  -22.9162 H   0  0  0  0  0  0  0  0  0  0  0  0
    7.3917    9.3077  -24.6645 H   0  0  0  0  0  0  0  0  0  0  0  0
    5.7817    9.7899  -24.0304 H   0  0  0  0  0  0  0  0  0  0  0  0
    4.6258    3.2140  -16.5788 H   0  0  0  0  0  0  0  0  0  0  0  0
    6.2351    2.4164  -16.5609 H   0  0  0  0  0  0  0  0  0  0  0  0
    6.1207    4.2057  -16.6692 H   0  0  0  0  0  0  0  0  0  0  0  0
    3.0991    4.3154  -27.7467 H   0  0  0  0  0  0  0  0  0  0  0  0
    4.2390    3.6332  -26.5378 H   0  0  0  0  0  0  0  0  0  0  0  0
    2.7817    4.5303  -25.9919 H   0  0  0  0  0  0  0  0  0  0  0  0
    3.4499    3.2202  -20.8861 H   0  0  0  0  0  0  0  0  0  0  0  0
    2.3393    3.4647  -18.9375 H   0  0  0  0  0  0  0  0  0  0  0  0
    3.2216    3.5826  -17.4517 H   0  0  0  0  0  0  0  0  0  0  0  0
  1  3  1  0  0  0  0
  1  4  2  0  0  0  0
  2  5  1  0  0  0  0
  2  6  2  0  0  0  0
  3  5  2  0  0  0  0
  3 16  1  0  0  0  0
  4  6  1  0  0  0  0
  4 28  1  0  0  0  0
  5 29  1  0  0  0  0
  6 30  1  0  0  0  0
  7  8  1  0  0  0  0
  7  9  2  0  0  0  0
  7 31  1  0  0  0  0
  8 17  1  0  0  0  0
  8 20  2  0  0  0  0
  9 21  1  0  0  0  0
  9 27  1  0  0  0  0
 10 20  1  0  0  0  0
 10 21  2  0  0  0  0
 10 22  1  0  0  0  0
 11 15  1  0  0  0  0
 11 23  1  0  0  0  0
 11 26  2  0  0  0  0
 12 23  1  0  0  0  0
 12 24  2  0  0  0  0
 12 25  1  0  0  0  0
 13 15  1  0  0  0  0
 13 22  1  0  0  0  0
 14 16  1  0  0  0  0
 14 22  1  0  0  0  0
 15 16  1  0  0  0  0
 16 24  1  0  0  0  0
 18 23  1  0  0  0  0
 19 27  1  0  0  0  0
  1 32  1  0  0  0  0
  2 33  1  0  0  0  0
 13 34  1  0  0  0  0
 13 35  1  0  0  0  0
 14 36  1  0  0  0  0
 14 37  1  0  0  0  0
 15 38  1  0  0  0  0
 17 39  1  0  0  0  0
 17 40  1  0  0  0  0
 17 41  1  0  0  0  0
 18 42  1  0  0  0  0
 18 43  1  0  0  0  0
 18 44  1  0  0  0  0
 19 45  1  0  0  0  0
 19 46  1  0  0  0  0
 19 47  1  0  0  0  0
 24 48  1  0  0  0  0
 25 49  1  0  0  0  0
 25 50  1  0  0  0  0
M  CHG  1  24   1
M  END
> <OMEGA_C>
kjmSQLmgcT40W6XBgzbTQK43hr+5BbHBtIyxQGq3gj+/o6rBI4eTQNXdlL+82aXBsC/SQC0Utj5F
m7DBsxO0QBtQ578Mp6vBSnqvQIXY6kDLYMvBxsXCQLd/9UChhMHB7/OeQEZSwUC+w8zBDde2QBLt
r0DElLvBSzLaQMaZTEBTbpnBe4+MQJyFTUA4BJnBDSfXQMMOlEBAOarBy4CqQHtmSkBrBrXBLojY
QHlLTUB+paXBjT2vQOCbI0Ax9anByGXTQNUXEUH5db/BHOm0QNBjUEBvwIfBwyBkQOMej0CNGdbB
BBDGQBy810CGxbnBOhGjQCe1pEBcx8TBxqm7QFXakEAJ47PBlwK0QCOOSkDskJPBzyaKQP8GQkCE
Z6PBhkRNQOY3XEA7iJPBwgD9QC+4VECbBZXBoUqKQDrBtkCUNtbB8Y9qQGkm8b8Xs6DBk83wQJzp
gz/5ELbBrXW1QAwASsBFHqzBSgqsQI4QBEHLTNPBGxpyQAr0OD9j5aDBdBjsQDoOxr+Qf7XBAyjJ
QLFkqkAqZKTBsn/3QKzlnkB7ZKzBrQu9QLTTJUAI8rrB66yIQGwVTED/crfBu3/0QIEvK0Ak3qjB
CL3gQFL6EUFRVLfBuojsQGrsFEHeUMXBvQO5QHmjHEExPsDBxgaUQMOxTUBwoYTBP4bHQMWlGkC8
fITBtdzDQGeVhkB/WoXBk1dGQIkXikBA+d3BC6aHQK2FaEBWTdTByAYyQN33kEBZ78/Br8pcQJEX
TkDLFqfBbrcVQA29XUAUgJfBiy5OQLdIZUAYnYvB+TPSQKoY2z5nR7DBaqOWQOsmn793I6bBoxyw
QJr+gT/ab6rBY5/WQMu9dr8f/LDBJJSRQAnYGj46eqXBKQi5QJGQ5r950qvBA3iuQDYT60AUN8vB
ZL7BQNaJ9UAcWMHBXuWeQMlBwUAxv8zBJOO2QPl6r0Acm7vBYvTZQGUxS0AqiJnBnVCMQJUSUEBc
+pjBhCfXQCBRk0AUT6rB0nmqQE3+SEB4D7XBCtPXQIrVS0CFuaXBN9mtQGGfI0Aq3qnBalbRQDo/
EUERJL/BABi1QBYRTkDxx4fBckpqQCGCjUC+dtbB4oHFQCN110DnrrnBtoOjQMtTpEDY2cTBDoq7
QKBLkECA7rPBT+SzQPe6SkCBmpPBpo6JQNLxRUB0Y6PBqCpNQBSpXUBTXZPB+gL9QDp6UUDNM5XB
BLKKQE6qtkCeQNbBiVz3QIvAvr/lq7bBWp1dQEHlGj83J6DBLzK9QCY6ScBVZ6zBqU2qQLphBEFo
BdPBPCfpQB9FiD+KQLTBsq1/QPIs8r8wPKLBz47JQGntqUDPe6TB0qL3QAWlnUDYgazBUMC9QNe4
I0Axw7rBafiIQHldSkCgwLfBsEXzQDeCKED4BKnBQ3jeQL4YEkG//LbB/GrqQO57FUHR8MTBkne2
QAOEHEH15L/BBTyUQLsfTUC4oITB7cTGQKhaFkBttoTB7y7FQCyahEB+NYXBhMRMQPqeiEDRW97B
wIOMQB/PZ0CI79TBeGw4QLXPjEAuQdDBx5tcQE62VUDVFqfBmkcVQGxzX0CtQZfBuLNOQBWoZUD3
bYvBqseRQEg4nT6nVqbBLU7TQMrsdb/K8LHBHIKzQHpviz/onarBE++QQGtmir9Hy6fBhIvUQEiO
3T5ShbDBDquxQIrE27/Ol63BwuaoQFbH5UChTszB3WSbQGj+ukBet8zBpXq9QB699EBVAMPBpJu4
QB4JsEC9u7vB3SbaQMTPTkBmyJjBCGSMQJbnT0Da/5jBo2zYQHj2lkBroanB5vStQLaWTUBUoLTB
bizaQGwxUkBUC6XB4J+xQMK7J0ADnanBkXaAQKQ3qkDo3NXBQ4ixQB45R0AXa4fBdcTgQBu7FkGH
hbnBl0SjQMxRoUDvasTBvIXFQPI42UAV0brBQ6u+QDqckkAVorPBnBKzQBDCTUDKO5PB7J2LQHQE
RkCPaKPBHANLQIAqW0AL0JPBVpP8QD7rTEDyFpTBQMXGQPL4D0F8bMLBbm1gQKou5r+Vp6PB/jf1
QIgPjj8bKbXBTMiwQPWEQ8BJEK/BBX6hQPA/AEFinNTB2NdwQESbST/S5qHBkl3sQP31ub+sZrbB
2rfIQAffrEC7+KPB6cr4QELEokDzbqvBXCHBQMydKEBDYbrBrFmMQEiaTkC5PbfBkbH2QNAuMUCO
I6jBE4ttQIUQiUDRKtTBgZRHQD9PvkBmxdbB5z+TQGwXq0A2Td3BlP+PQM98R0BDvoTB2vrAQJJX
C0B93oTBcnzCQB78fUC33YPBAOHlQIMfKEGO87nBKW/QQL69EkFh/LHBndb/QJ17DkFq1LnBXCVh
QBg7U0BrWqfBw44UQOiDW0AFBJjB2HRJQGbtYkDF34vBh1HTQORM/j6n1bDBWPSWQFIsm7/IbafB
2LmxQAOjhz9PpqrB8GHWQFhdY7+EZLLBTCKTQLA/ND7Q86XB/kq4QKlV37/Coa3B5SaqQOv45kAy
G8zBOxOcQBtdvECvs8zB56+/QP2x9EBw0MLBwNW3QGEIsEAlpLvBfp7ZQIYxS0DIDZnBwfqLQChR
UEDX8JjBRPDXQOtplUBlzKnBYGOsQESTTEBiurTB5cfYQHDHTkA9TaXBVlmvQPBIJkAWrKnBkCqD
QLPeq0BwONbByvayQMYBRkCgh4fBUNTWQE5xF0HEwrfBSf6iQPUTokBMdsTBEGnGQHWn2EDzqrrB
4qa8QC9PkkCLjLPBVfOyQJhiSEDQW5PBBUyKQCpbR0BjXqPBm4JLQDKlXkDNkJPBRj78QHhbTUBI
dJTBYLvMQIV2D0EbS8LBtjD2QAvWsb/RibjB/DRjQJQSGz/hC6DB1ge7QJsxRcAXEa/B64+iQIBH
AUH9OdTB4e3qQPXWkj/kZrTBOQCAQEYl8L+fwKPBw9fJQPKrq0Bj9qPBoGn4QDsmoEDg4KvBxzjA
QOw/KEDgZ7rBZAKLQIcYTUBshbfBuKX0QFNyLEBTiqjBycVzQBNjikBwz9TBOodMQJZ0v0B5V9fB
ZDqXQEjHrUCAb93BR8uRQIL9Q0BnmITBdy3EQFeuDEAjx4TBNvHCQLWUf0C2aoTBV7/gQJ5KKEHC
U7jB8Ge6QD0xFkGGm7LBPAjxQITsDUGFULTBTrxeQEQqV0BHNqfBkIsUQHHNYUAKpZfBdGxLQFfO
ZUCpnYvB

> <OMEGA_E>
wIsOPcAnbz0YgIE+hFCIPg==

> <OMEGA_NBR>
     27702

$$$$
220589
  -OEChem-04172616093D

 49 52  0     1  0  0  0  0  0999 V2000
    4.5346    0.2512  -20.7628 C   0  0  0  0  0  0  0  0  0  0  0  0
    6.5743    0.4415  -22.0961 C   0  0  0  0  0  0  0  0  0  0  0  0
    4.5904   -1.1451  -20.8879 C   0  0  0  0  0  0  0  0  0  0  0  0
    6.6215   -0.9545  -22.2246 C   0  0  0  0  0  0  0  0  0  0  0  0
    5.5365    1.0595  -21.3538 C   0  0  0  0  0  0  0  0  0  0  0  0
    5.6348   -1.7471  -21.6123 C   0  0  0  0  0  0  0  0  0  0  0  0
    5.4373    7.2401  -25.4710 C   0  0  0  0  0  0  0  0  0  0  0  0
    6.0964    7.6205  -24.2768 C   0  0  0  0  0  0  0  0  0  0  0  0
    4.9229    5.9301  -25.5688 C   0  0  0  0  0  0  0  0  0  0  0  0
    5.7168    5.4909  -23.4250 C   0  0  0  0  0  0  0  0  0  0  0  0
    6.8153    3.2043  -19.1698 C   0  0  0  0  0  0  0  0  0  0  0  0
    4.3836    3.2140  -19.1415 C   0  0  0  0  0  0  0  0  0  0  0  0
    6.7887    4.6251  -21.2856 C   0  0  0  0  0  0  0  0  0  0  0  0
    5.3883    3.1753  -22.6135 C   0  0  0  0  0  0  0  0  0  0  0  0
    6.7863    3.2056  -20.6965 C   0  0  2  0  0  0  0  0  0  0  0  0
    5.4863    2.5801  -21.2382 C   0  0  2  0  0  0  0  0  0  0  0  0
    6.5968    9.0345  -24.0753 C   0  0  0  0  0  0  0  0  0  0  0  0
    4.1277    5.4577  -26.7675 C   0  0  0  0  0  0  0  0  0  0  0  0
    5.6215    3.1869  -16.9740 C   0  0  0  0  0  0  0  0  0  0  0  0
    6.2235    6.7330  -23.2708 N   0  0  0  0  0  0  0  0  0  0  0  0
    5.0643    5.0942  -24.5389 N   0  0  0  0  0  0  0  0  0  0  0  0
    5.8404    4.5593  -22.4266 N   0  0  2  0  0  0  0  0  0  0  0  0
    5.6113    3.1494  -18.4518 N   0  0  0  0  0  0  0  0  0  0  0  0
    4.3215    3.0641  -20.4422 N   0  3  0  0  0  0  0  0  0  0  0  0
    3.1924    3.4296  -18.4622 N   0  0  0  0  0  0  0  0  0  0  0  0
    7.8908    3.3669  -18.6045 O   0  0  0  0  0  0  0  0  0  0  0  0
    5.6890   -3.0911  -21.7207 F   0  0  0  0  0  0  0  0  0  0  0  0
    5.2952    8.1134  -26.4934 F   0  0  0  0  0  0  0  0  0  0  0  0
    3.7257    0.7110  -20.2145 H   0  0  0  0  0  0  0  0  0  0  0  0
    7.3335    1.0494  -22.5656 H   0  0  0  0  0  0  0  0  0  0  0  0
    3.8302   -1.7586  -20.4272 H   0  0  0  0  0  0  0  0  0  0  0  0
    7.4139   -1.4193  -22.7925 H   0  0  0  0  0  0  0  0  0  0  0  0
    6.4467    5.3562  -20.5382 H   0  0  0  0  0  0  0  0  0  0  0  0
    7.7957    4.8996  -21.6329 H   0  0  0  0  0  0  0  0  0  0  0  0
    6.0413    2.6413  -23.3195 H   0  0  0  0  0  0  0  0  0  0  0  0
    4.3515    3.1475  -22.9800 H   0  0  0  0  0  0  0  0  0  0  0  0
    7.6508    2.6461  -21.0831 H   0  0  0  0  0  0  0  0  0  0  0  0
    7.0201    9.1337  -23.0649 H   0  0  0  0  0  0  0  0  0  0  0  0
    7.3734    9.2583  -24.8216 H   0  0  0  0  0  0  0  0  0  0  0  0
    5.7608    9.7395  -24.1934 H   0  0  0  0  0  0  0  0  0  0  0  0
    3.7684    4.4334  -26.5893 H   0  0  0  0  0  0  0  0  0  0  0  0
    3.2679    6.1258  -26.9234 H   0  0  0  0  0  0  0  0  0  0  0  0
    4.7691    5.4708  -27.6611 H   0  0  0  0  0  0  0  0  0  0  0  0
    4.5890    3.1339  -16.5982 H   0  0  0  0  0  0  0  0  0  0  0  0
    6.1958    2.3311  -16.5896 H   0  0  0  0  0  0  0  0  0  0  0  0
    6.0875    4.1236  -16.6343 H   0  0  0  0  0  0  0  0  0  0  0  0
    3.4674    3.2808  -20.9151 H   0  0  0  0  0  0  0  0  0  0  0  0
    2.3292    3.4659  -18.9657 H   0  0  0  0  0  0  0  0  0  0  0  0
    3.1975    3.5488  -17.4693 H   0  0  0  0  0  0  0  0  0  0  0  0
  1  3  2  0  0  0  0
  1  5  1  0  0  0  0
  2  4  1  0  0  0  0
  2  5  2  0  0  0  0
  3  6  1  0  0  0  0
  4  6  2  0  0  0  0
  5 16  1  0  0  0  0
  6 27  1  0  0  0  0
  7  8  1  0  0  0  0
  7  9  2  0  0  0  0
  7 28  1  0  0  0  0
  8 17  1  0  0  0  0
  8 20  2  0  0  0  0
  9 18  1  0  0  0  0
  9 21  1  0  0  0  0
 10 20  1  0  0  0  0
 10 21  2  0  0  0  0
 10 22  1  0  0  0  0
 11 15  1  0  0  0  0
 11 23  1  0  0  0  0
 11 26  2  0  0  0  0
 12 23  1  0  0  0  0
 12 24  2  0  0  0  0
 12 25  1  0  0  0  0
 13 15  1  0  0  0  0
 13 22  1  0  0  0  0
 14 16  1  0  0  0  0
 14 22  1  0  0  0  0
 15 16  1  0  0  0  0
 16 24  1  0  0  0  0
 19 23  1  0  0  0  0
  1 29  1  0  0  0  0
  2 30  1  0  0  0  0
  3 31  1  0  0  0  0
  4 32  1  0  0  0  0
 13 33  1  0  0  0  0
 13 34  1  0  0  0  0
 14 35  1  0  0  0  0
 14 36  1  0  0  0  0
 15 37  1  0  0  0  0
 17 38  1  0  0  0  0
 17 39  1  0  0  0  0
 17 40  1  0  0  0  0
 18 41  1  0  0  0  0
 18 42  1  0  0  0  0
 18 43  1  0  0  0  0
 19 44  1  0  0  0  0
 19 45  1  0  0  0  0
 19 46  1  0  0  0  0
 24 47  1  0  0  0  0
 25 48  1  0  0  0  0
 25 49  1  0  0  0  0
M  CHG  1  24   1
M  END
> <OMEGA_C>
YBuRQIKjgD4/GqbBv2DSQJoG4j7OxLDBceSSQE6Tkr9sGqfBaOPTQDpZdL/5y7HBIyuxQHCchz+n
1KrBhVC0QB6i378M5qzBSf6tQAqv50CLxMvBzxXDQGnb80D2NsLBrIidQGfDvUDdjMzB4O+2QCu1
r0BcZrvBzRbaQD0TTUCpW5nBi0aMQNuxTUDDIZnBCD3ZQPIAlEDPSKrBw2ysQOM4S0B36LTBGCnZ
QN0oTUB9kqXBjY+vQHogJUDe56nBTxnTQByNEEFJmsDBRBaEQD6lrkDbI9bBJeOzQLv1S0DLyofB
wSbHQL1010CBKrrBzg6iQE4Do0CcT8TBRuS6QCXmkUDAabPBjo+zQGWQSUBBnZPBnEmKQHgaRECn
iaPBtFBMQD1/W0CTspPB1YH8QNN7V0Ac1pTBQAy2QDfVRcAXxK3BMHKpQG7QAUFy8tPBPXFuQJcF
Nj9Rt6HBo6vqQN1Thj9shrTBIyJ1QLQY4b/6aqPBZD7tQGCstb8DV7bBi0vOQNJlq0AmTqTBJnb5
QG3JnEA9EK3BD1LBQIcLKUBXjrrBmz+LQPZvSUAf17fBYNP0QBtZKUBJqqjBbKTgQHgjEkHchLjB
xfLrQN0hFEGZksbBXli4QPLUG0ERjMHBdS1xQHjejUDNttTBRSVRQKAGxEAkY9fBD5yYQO8Qr0Dy
Sd3BPNmSQAiRSEAvyYTBVUTGQJwwFUCXt4TBGM3CQDT0g0AOE4XBKupdQPz4UUAXUqfBeBEVQJzQ
XUC/uZfBU6RMQFIfY0AwwYvBf+KQQKfKhD5tRqbBGvjSQC/16D7CnbDB+GSSQI5Rkb+QdKfBtjzU
QHJtcL/Hz7HBLXGxQNfliD+sw6rBJBC0QLXp3b9oL63B1UOuQIk650BV7svBiVudQFh0vUBim8zB
Up3DQPKE80A3bMLBz9u2QD3Ar0DMb7vBuRTaQIR8TkDSSJnB6zaMQIgRTkBeDJnBiB/ZQKh9lECF
QarBSoWsQCWcS0AB1rTBNC7ZQFJATkDVfqXBFLCvQLbEJUA50anBs+iDQIgqrkC9L9bBCsDTQExh
EEGh4MDB3+SzQAwOT0C6tYfB8qKhQK/6okADTMTBIYzHQL5a10CmUbrB/by6QEcukkC6YbPBb42z
QHmSS0BQiJPBpU6KQBN4REABdaPBbNZLQJZiWUCsmJPB2aD8QJsoV0C8xJTB73i1QCTdRMANPq7B
mfKpQAp1AUF7LNTB2ahtQDVdNz+s7qHBlrHrQGA9iD9ALbTB1lNzQCAF4L9T9aPBft7tQMJZs7+J
RrbBUCTOQGnzq0AeTKTBz1D5QEFPnUDQDK3BDInBQNqAKUCDdrrBZl2LQD5mSUA5x7fBkuv0QAGO
KkA+kajBoFpwQGuEjUCtstTBixpRQCGvw0D+f9fB+oOYQOIzrkApUt3BJzzhQA4OEkHEyrjByavs
QDfYE0GU2MbBbRK5QASwG0Gl38HBeduSQFX/S0BTsoTBskDGQLmJGEDHjoTBgtbCQGKchUBWFIXB
lPFdQNQiUkDIP6fBO38UQIL9WUAwnZfBKQRMQCfuYED2povB5qHTQE5S7T5lWrDBljSRQLILiz6V
JabBQXbUQG2sbb/btrHBjlKSQHyWj79ceafB3QOyQOI1ij+Ui6rBatazQCgz3L80Q63BSjWsQHuA
50AX48vB7vHBQMXt80DJccLBcjecQJ1ivUC0l8zBdpq3QCh/r0C/m7vBcxraQPyeT0BaLZnBBiWM
QFF2UEC2D5nBGOTYQO4flUBTIqrBHAitQGNHS0AZ0LTBjmPZQI+MT0CQYqXBhR6wQDSAJkBZtqnB
GgXSQLKeEEEn+sDBjTiCQOP/rUD3EtbBJ0izQLvVT0Cno4fBVTPHQFyG10B3b7rBrRiiQPiNokCu
acTBiYS8QCW8kUB4obPBS2azQIWMUkCCe5PB65GKQHZ4RUCtc6PBzuhKQFHbWEB2tJPBV9b8QPNU
UkBJopTBI5m0QL3RQ8CCk67BMdqmQOWnAUG5ENTBo8fsQCAAiT/MwLPBDoluQI+HOj/pwqHBvBru
QMIEsr8NLLbBvdByQOMg3r+WC6TBbO7LQFY0rEBJVaTBnE/5QIz/nkApg6zBa1DBQLo6J0Aka7rB
grqLQGeASkA5qbfBgU71QO5cLEC5cqjBJangQIc9EkH+A7nBaQHqQFM8FEGzKMfBLRO3QJfaG0Fn
scHBvhRvQLnyjECzpdTBllJMQL/UwkCWINfB4hWWQLgOr0CGVd3BEx+SQOHKUkDotYTB2EDCQML5
E0Aq6YTBKWXFQAdcg0B8f4TBWYxeQOBIUkDITqfBB94TQLBoVkB+xpfBuTZKQOZZYUC0xovBXCrT
QFqb5j7/tbDBfRWRQLhBcj7VZKbB20/UQIbKcL8rH7LB/3GSQLzpk7/TzKfBhJyxQAQIhz9bzarB
EvuzQJQW378DqK3BoX6uQMJE50BM1svBnU2dQOOevUCRiszBHtnDQCxY80DfT8LB08y2QF+Cr0Dt
Y7vB0wPaQAb6TUDcQpnB5TKMQLj0TUBpCZnBRAXZQLYVlEASPKrBeUasQFD7SkAHz7TB9hnZQGt9
TUBceKXB76KvQETQJEC3y6nB3/aDQDmarkCmKtbBE0zUQP86EEGYu8DBT9GzQK5BTkDesofBcWqh
QCb/okALQMTBvK/HQMMF10CSPbrBOKq6QDrRkUAvXLPBPH6zQF3PSkAlhJPBTjKKQMj/QkACbKPB
jilMQChnXECfn5PBV2f8QGwVWUB2wJTBMBK1QDs1RcDjA6/BKWaqQCCEAUEsEtTBMQXsQFhhiD9s
JrTB2FhuQIxLLz+u8KHB7vntQJ12sr/voLbBrGhzQCZt479SYaTBbAjOQKWKq0CnRqTBKjf5QOPn
nEDOBq3BtxnBQG7XKED1ebrB4QuLQPkISUCzs7fBfN/0QE3WKUAxiKjBDT1wQJL0jUCLu9TB/V9R
QBs5xECketfBS6+YQEC7rkDFR93B/+ThQOvLEUFap7jB+THtQHepE0FJtsbBZMG5QNahG0H4r8HB
YsiSQCf9SkAGsITBiUHGQH7XF0BOjITB26rCQL9AhUB/EIXBf1JdQK1HT0CYMqfBLeQUQDclXkCj
ppfBiIZMQN4QZUCBsovB

> <OMEGA_E>
QEUUPmBBGj7QlBw+0DQdPg==

> <OMEGA_NBR>
     31332

$$$$
220591
  -OEChem-04172616093D

 51 54  0     1  0  0  0  0  0999 V2000
    4.5502    0.2588  -20.6950 C   0  0  0  0  0  0  0  0  0  0  0  0
    4.5659   -1.1397  -20.8000 C   0  0  0  0  0  0  0  0  0  0  0  0
    6.5846   -1.0217  -22.1539 C   0  0  0  0  0  0  0  0  0  0  0  0
    5.5544    1.0453  -21.3191 C   0  0  0  0  0  0  0  0  0  0  0  0
    5.5816   -1.7795  -21.5274 C   0  0  0  0  0  0  0  0  0  0  0  0
    6.5776    0.3809  -22.0624 C   0  0  0  0  0  0  0  0  0  0  0  0
    5.3772    7.3307  -25.4297 C   0  0  0  0  0  0  0  0  0  0  0  0
    5.9235    7.7089  -24.1956 C   0  0  0  0  0  0  0  0  0  0  0  0
    4.9669    6.0059  -25.6114 C   0  0  0  0  0  0  0  0  0  0  0  0
    5.7934    5.4928  -23.4803 C   0  0  0  0  0  0  0  0  0  0  0  0
    6.8158    3.1929  -19.1467 C   0  0  0  0  0  0  0  0  0  0  0  0
    4.3892    3.2205  -19.1147 C   0  0  0  0  0  0  0  0  0  0  0  0
    6.7261    4.6571  -21.2392 C   0  0  0  0  0  0  0  0  0  0  0  0
    5.3540    3.1868  -22.6129 C   0  0  0  0  0  0  0  0  0  0  0  0
    6.7768    3.2307  -20.6760 C   0  0  2  0  0  0  0  0  0  0  0  0
    5.4907    2.5823  -21.2265 C   0  0  2  0  0  0  0  0  0  0  0  0
    5.6278    3.1922  -16.9444 C   0  0  0  0  0  0  0  0  0  0  0  0
    7.2112    9.4389  -23.2070 C   0  0  0  0  0  0  0  0  0  0  0  0
    3.5237    4.4406  -26.7146 C   0  0  0  0  0  0  0  0  0  0  0  0
    6.1536    6.7758  -23.2415 N   0  0  0  0  0  0  0  0  0  0  0  0
    5.1843    5.1105  -24.6285 N   0  0  0  0  0  0  0  0  0  0  0  0
    5.9625    4.5267  -22.5096 N   0  0  3  0  0  0  0  0  0  0  0  0
    5.6152    3.1537  -18.4238 N   0  0  0  0  0  0  0  0  0  0  0  0
    4.3269    3.0612  -20.4163 N   0  3  0  0  0  0  0  0  0  0  0  0
    3.1981    3.4414  -18.4362 N   0  0  0  0  0  0  0  0  0  0  0  0
    7.9026    3.2580  -18.5831 O   0  0  0  0  0  0  0  0  0  0  0  0
    6.0449    9.0547  -23.9436 O   0  0  0  0  0  0  0  0  0  0  0  0
    4.2745    5.6762  -26.7618 O   0  0  0  0  0  0  0  0  0  0  0  0
    5.5872   -3.1253  -21.6340 F   0  0  0  0  0  0  0  0  0  0  0  0
    7.5529    1.0571  -22.7175 F   0  0  0  0  0  0  0  0  0  0  0  0
    5.1766    8.2517  -26.3997 F   0  0  0  0  0  0  0  0  0  0  0  0
    3.7653    0.7432  -20.1331 H   0  0  0  0  0  0  0  0  0  0  0  0
    3.7954   -1.7252  -20.3204 H   0  0  0  0  0  0  0  0  0  0  0  0
    7.3658   -1.5196  -22.7091 H   0  0  0  0  0  0  0  0  0  0  0  0
    6.2091    5.3327  -20.5419 H   0  0  0  0  0  0  0  0  0  0  0  0
    7.7407    5.0357  -21.4321 H   0  0  0  0  0  0  0  0  0  0  0  0
    5.8890    2.5760  -23.3550 H   0  0  0  0  0  0  0  0  0  0  0  0
    4.2943    3.2648  -22.8975 H   0  0  0  0  0  0  0  0  0  0  0  0
    7.6545    2.7056  -21.0811 H   0  0  0  0  0  0  0  0  0  0  0  0
    4.5953    3.1522  -16.5672 H   0  0  0  0  0  0  0  0  0  0  0  0
    6.1921    2.3297  -16.5600 H   0  0  0  0  0  0  0  0  0  0  0  0
    6.1058    4.1234  -16.6061 H   0  0  0  0  0  0  0  0  0  0  0  0
    7.2107   10.5291  -23.0609 H   0  0  0  0  0  0  0  0  0  0  0  0
    7.2077    8.9379  -22.2277 H   0  0  0  0  0  0  0  0  0  0  0  0
    8.1115    9.1444  -23.7663 H   0  0  0  0  0  0  0  0  0  0  0  0
    3.0171    4.2818  -27.6780 H   0  0  0  0  0  0  0  0  0  0  0  0
    4.2088    3.6027  -26.5182 H   0  0  0  0  0  0  0  0  0  0  0  0
    2.7744    4.4975  -25.9114 H   0  0  0  0  0  0  0  0  0  0  0  0
    3.4681    3.2681  -20.8849 H   0  0  0  0  0  0  0  0  0  0  0  0
    2.3346    3.4745  -18.9395 H   0  0  0  0  0  0  0  0  0  0  0  0
    3.2037    3.5675  -17.4442 H   0  0  0  0  0  0  0  0  0  0  0  0
  1  2  2  0  0  0  0
  1  4  1  0  0  0  0
  2  5  1  0  0  0  0
  3  5  2  0  0  0  0
  3  6  1  0  0  0  0
  4  6  2  0  0  0  0
  4 16  1  0  0  0  0
  5 29  1  0  0  0  0
  6 30  1  0  0  0  0
  7  8  2  0  0  0  0
  7  9  1  0  0  0  0
  7 31  1  0  0  0  0
  8 20  1  0  0  0  0
  8 27  1  0  0  0  0
  9 21  2  0  0  0  0
  9 28  1  0  0  0  0
 10 20  2  0  0  0  0
 10 21  1  0  0  0  0
 10 22  1  0  0  0  0
 11 15  1  0  0  0  0
 11 23  1  0  0  0  0
 11 26  2  0  0  0  0
 12 23  1  0  0  0  0
 12 24  2  0  0  0  0
 12 25  1  0  0  0  0
 13 15  1  0  0  0  0
 13 22  1  0  0  0  0
 14 16  1  0  0  0  0
 14 22  1  0  0  0  0
 15 16  1  0  0  0  0
 16 24  1  0  0  0  0
 17 23  1  0  0  0  0
 18 27  1  0  0  0  0
 19 28  1  0  0  0  0
  1 32  1  0  0  0  0
  2 33  1  0  0  0  0
  3 34  1  0  0  0  0
 13 35  1  0  0  0  0
 13 36  1  0  0  0  0
 14 37  1  0  0  0  0
 14 38  1  0  0  0  0
 15 39  1  0  0  0  0
 17 40  1  0  0  0  0
 17 41  1  0  0  0  0
 17 42  1  0  0  0  0
 18 43  1  0  0  0  0
 18 44  1  0  0  0  0
 18 45  1  0  0  0  0
 19 46  1  0  0  0  0
 19 47  1  0  0  0  0
 19 48  1  0  0  0  0
 24 49  1  0  0  0  0
 25 50  1  0  0  0  0
 25 51  1  0  0  0  0
M  CHG  1  24   1
M  END
> <OMEGA_C>
NJuRQFaEhD5hj6XB7xuSQFLjkb9TZqbBWLXSQGfHgr8XO7HBi72xQHjLhT90jarBlZyyQDDF478S
OKzBlHvSQGYEwz7Ef7DB9xGsQBiV6kAacMvB+4y9QDOv9kCwkMHB7PCeQA4wwEAc5MzBuGO5QODE
r0CV17vB5xraQPNXTEBfLJnBenSMQIIcTkDz6pjBYzzXQOIGlUDu6anBPlSrQPj0S0BF57TB09vY
QJ3DTkCLaKXBobOvQKtDJUDgz6nBPhe0QEJNTEAfjofBTcLmQKgFF0Hjp7nBw4RhQHoZjkCJt9XB
O+rEQPfS2ECG7rnByeWlQBGJo0A5B8XB98y+QNvakECTE7TB8a+zQHHVSUD3Y5PBWnaKQEzrQ0CB
VKPBY61MQGZAXEBBfZPBs+H8QECDUEA/qpTBCXDBQALgEEGRjL/B/siIQFejtUAwGNbBgsqyQH8F
SMBuEq3BebHxQHhNhz9dvbXBE6elQOkGBEGAMtPBp/pwQCk/Pj+OEKHBIOhyQNLT3L8ykKLBy7Tr
QLiCwr8jrLXB2bDGQGWlqkDXVaTBN7T3QDgkoUD5dKvBS3K8QMLcJEAa17rBQmuJQB/zUEAJLrfB
gvH0QNgoLUACpqjBqAyTQOK9SUCuiYTB6CXGQIsaFUD7eoTB+mLDQK3yg0A62YTBwL3mQGB3KEHQ
fLjBvqXmQKUBD0FN0rHBs8gBQaJPEkFOIb7BzBdBQG0EiUCEbN3Bhq6GQHeSZkBgJdTBC48xQLHr
j0B9Ss/Bi/VdQJQoUUA/FKfBS2oVQHVdXkAMhJfB0wlNQE1SZECijYvBI2OTQERjcD7MW6XBUZGV
QKkflb8MvaXBKbjVQCpig79Wt7DBi6iyQDo1hD+TkqrBksm2QPjJ5b/RXKvBHe7TQKBuwT6+ZrDB
PS6yQFEA6UCBBczBJz2dQDhrwUDLq8zBIoHJQALa8kB8v8LB2o+3QDhPsEBmpLvB2CTZQGizTUB1
KJnBFnmLQKdUTEB0I5nB0VXXQNTllEAFC6rBEqirQJtMS0D5/bTBjZTYQKXbTkCGaKXBec6vQAZ1
JEAp66nBnC+yQH2+TEAUqYfBVP9jQGYHjkA1CdbB13/XQNxLGUHTO7nB6Y6gQJq3pUBkcMTBzErL
QLKT1kDLlbrBcyW8QJGSkUCtzLPB2nWyQJTnSUD2fpPBdRGKQBwbQkDDjaPBgOJJQPxgWEDW0JPB
qZH7QMnCVEDSiZTBmiOGQC25t0AjztXBCDDgQJ04DEE4bsLBjuS4QNoqScCBpqvB93/yQKQGiD9f
zbXBDd+vQDqtAkFvLdTBUTpzQMAvNj9tDKHBw0x7QF8h4b+OsqHBwgbvQCYtwr+lGbXBURrJQNpM
q0A8Q6TBK8L3QAy6n0BqJKzBgN2+QBc7J0DX07rBfACKQJgXTECqkbfBxur0QIwSLUAweqjB5QKR
QK8DSUB0wYTB65fEQI5WFkAGf4TB0MLAQP5+hEB57oTBbmNBQEQCikALot3B5p+KQDYVakCaUdXB
qL02QElWi0AzVM/BmO3qQJ7zJ0ENoLnBrFy1QLOUHUHAG7nBiYvfQD9eEEHw67HBm2BdQNqgTkAy
Y6fBifISQJYHWUA665fBjVJJQLpnYEAW4YvBDNjTQIbL5j4P9q/BxwHXQAklcb8qCrHBQ6OUQFxY
mr+jG6fBZx+xQHzshT/0YarBIY63QJad4r8ti6zBTdCQQPzAQT59EqbBvZOsQPM26kBul8vBuYC/
QCNd9kAM4MHBnTeeQGMOwEDT0czBPV+4QJgVsECutrvBc+7ZQGGXTEA9IZnBTDCMQKIfUUAO85jB
ZB/YQNbGlEBlAarBI5asQI3XSkA757TBXM7YQKk9TkBYYKXB3EGvQH+1JUBmsqnBmISzQPjiSkD4
hofB5dHsQKKyFEFIYbnB5CtbQFx9j0CeStXBj4/FQErX2ECXD7rBm3qkQKHKo0BL1cTBsni9QINZ
kUCE2bPByG6zQOjuT0DjXpPBxIKKQGH0R0CrYqPByTdLQCmIWkDxj5PBC8D8QO0ZTEDjnJTBfcjJ
QHp1EEG+hcDBeMOIQNDZtEAeE9bBK7G6QMkoR8D3f63B5eJaQCvKJj/NC6HBJI2nQKODA0F2ktPB
QTrsQLRnij+SbrPB5pzxQHcbsL8WU7XBkPZ4QCiy7L9nsKPB46XJQL9Cq0BgSKTBhLX4QLV2n0Ax
/avB5DjAQO5UJUDHgLrBqDyLQL3sS0A2t7fBgZT0QBlUK0BCkajBhnOSQKKXTkDHi4TBz+/BQMHr
DUDPAIXBpT3GQCEzgEAvPoTBiEDyQD4PJkFi5LjB3iTlQC90DkEcYbHBJ/EEQaLRDEGfZrzBOFw8
QM2GiUDtD93BnweBQCwgZ0BnCtPBu8UpQLr4lEBaLM/BTGZfQEd7WECyO6fBUB8UQKgkWkDyoZfB
pcBKQACyYUDdnIvBvNvUQOol8j64SLDBRrfaQCqKab9lD7HBj1SZQE7Iob9J4KbBZ6CxQHGCgj+V
lKrBzjy9QM3f47+bO6zBhviSQF2n/j1KFqbBzm60QHSS6EDQjcvBheSdQJbGwUDNkszBNjnLQOp5
8EAjAsLBABi1QIHPrkBzcLvBnDXZQN8LUECoaJnBh3OLQAajUEAg9pjBwgfXQKU3k0BgharBdcep
QB6gSECy57TBhH7XQLAzTUAbmKXB7PCtQOBJI0CgxKnBIcGzQAepUkCstIfBPPdlQF7gj0DElNbB
zIrKQJNQHUFLzL7BWH2eQFGlpUBcYcTBRvPKQFSF00CKJLrBLRW4QAejkEBCiLPBkwSzQAzWU0Ac
jpPBHg2JQEk3Q0CrT6PBhmJKQGKXWkDvc5PB1j78QOluVkCqEZXB/reIQJ3SuEBEDtbB9GfjQOpM
CkHlmsDBJELDQPRZR8Dny6zBPBReQIetCz/WEqHBRsm0QPqZAkEaqtPBfH7rQMR8kT9lFbTBI9j1
QDO9p7+jXLXB+maCQOlJ+L/0VKPBd3bMQNgLq0B4m6TBCg33QMbRm0Djea3Btlu+QNRRJkD4nLrB
smWIQH49RkBDrrfB8TfzQBVWKUDYpKjBK9CSQIAcVkBkooTBzeDCQKocF0CJ7ITBeCHGQALxhEA3
woTBWutGQHFpjEB5bt7BUF2KQOzia0Dud9XBCUY1QJE0jkA9PdDByBjgQP8RK0H5v73B94C1QLMo
IEFetcXB9Py2QFxDG0GSjbfByqZaQGzgTkDBB6fBebcSQORpV0A+YZfBO/FKQEvwZED1jovB

> <OMEGA_E>
IO39PXDFFT5Aiho+8E0vPg==

> <OMEGA_NBR>
     35066

$$$$
220585
  -OEChem-04172616093D

 53 57  0     1  0  0  0  0  0999 V2000
    5.7116   -1.7826  -21.4648 C   0  0  0  0  0  0  0  0  0  0  0  0
    6.6522   -0.9882  -22.1448 C   0  0  0  0  0  0  0  0  0  0  0  0
    4.6731   -1.1761  -20.7347 C   0  0  0  0  0  0  0  0  0  0  0  0
    6.5632    0.4126  -22.0838 C   0  0  0  0  0  0  0  0  0  0  0  0
    4.5772    0.2248  -20.6738 C   0  0  0  0  0  0  0  0  0  0  0  0
    5.5306    1.0367  -21.3391 C   0  0  0  0  0  0  0  0  0  0  0  0
    5.4408    7.3033  -25.4497 C   0  0  0  0  0  0  0  0  0  0  0  0
    4.9293    5.9955  -25.5732 C   0  0  0  0  0  0  0  0  0  0  0  0
    6.0854    7.6612  -24.2430 C   0  0  0  0  0  0  0  0  0  0  0  0
    5.7269    5.5045  -23.4417 C   0  0  0  0  0  0  0  0  0  0  0  0
    6.8099    3.1855  -19.1986 C   0  0  0  0  0  0  0  0  0  0  0  0
    4.3777    3.2246  -19.1530 C   0  0  0  0  0  0  0  0  0  0  0  0
    2.8979    4.6657  -26.5489 C   0  0  0  0  0  0  0  0  0  0  0  0
    4.1622    4.0366  -27.1354 C   0  0  0  0  0  0  0  0  0  0  0  0
    6.7482    4.6215  -21.2887 C   0  0  0  0  0  0  0  0  0  0  0  0
    5.3637    3.1636  -22.6407 C   0  0  0  0  0  0  0  0  0  0  0  0
    4.1446    5.5407  -26.7894 C   0  0  0  0  0  0  0  0  0  0  0  0
    6.7633    3.1971  -20.7214 C   0  0  2  0  0  0  0  0  0  0  0  0
    5.4645    2.5652  -21.2563 C   0  0  2  0  0  0  0  0  0  0  0  0
    6.5874    9.0704  -24.0215 C   0  0  0  0  0  0  0  0  0  0  0  0
    5.6384    3.2819  -16.9949 C   0  0  0  0  0  0  0  0  0  0  0  0
    5.0853    5.1331  -24.5638 N   0  0  0  0  0  0  0  0  0  0  0  0
    6.2132    6.7517  -23.2541 N   0  0  0  0  0  0  0  0  0  0  0  0
    5.8570    4.5443  -22.4685 N   0  0  3  0  0  0  0  0  0  0  0  0
    5.6119    3.1765  -18.4701 N   0  0  0  0  0  0  0  0  0  0  0  0
    4.3031    3.0483  -20.4518 N   0  3  0  0  0  0  0  0  0  0  0  0
    3.1916    3.4477  -18.4668 N   0  0  0  0  0  0  0  0  0  0  0  0
    7.8980    3.3013  -18.6463 O   0  0  0  0  0  0  0  0  0  0  0  0
    5.3003    8.2002  -26.4526 F   0  0  0  0  0  0  0  0  0  0  0  0
    5.7867   -2.8593  -21.5031 H   0  0  0  0  0  0  0  0  0  0  0  0
    7.4428   -1.4549  -22.7137 H   0  0  0  0  0  0  0  0  0  0  0  0
    3.9478   -1.7885  -20.2197 H   0  0  0  0  0  0  0  0  0  0  0  0
    7.2869    1.0187  -22.6084 H   0  0  0  0  0  0  0  0  0  0  0  0
    3.7737    0.6849  -20.1179 H   0  0  0  0  0  0  0  0  0  0  0  0
    2.0060    4.7956  -27.1795 H   0  0  0  0  0  0  0  0  0  0  0  0
    2.5885    4.4212  -25.5220 H   0  0  0  0  0  0  0  0  0  0  0  0
    4.7612    3.3406  -26.5297 H   0  0  0  0  0  0  0  0  0  0  0  0
    4.1787    3.7150  -28.1872 H   0  0  0  0  0  0  0  0  0  0  0  0
    6.3508    5.3305  -20.5476 H   0  0  0  0  0  0  0  0  0  0  0  0
    7.7607    4.9315  -21.5866 H   0  0  0  0  0  0  0  0  0  0  0  0
    5.9926    2.6095  -23.3531 H   0  0  0  0  0  0  0  0  0  0  0  0
    4.3216    3.1615  -22.9928 H   0  0  0  0  0  0  0  0  0  0  0  0
    4.0969    6.2373  -27.6394 H   0  0  0  0  0  0  0  0  0  0  0  0
    7.6292    2.6502  -21.1227 H   0  0  0  0  0  0  0  0  0  0  0  0
    7.0149    9.1534  -23.0114 H   0  0  0  0  0  0  0  0  0  0  0  0
    7.3609    9.3054  -24.7674 H   0  0  0  0  0  0  0  0  0  0  0  0
    5.7514    9.7778  -24.1249 H   0  0  0  0  0  0  0  0  0  0  0  0
    4.6096    3.2574  -16.6065 H   0  0  0  0  0  0  0  0  0  0  0  0
    6.2080    2.4385  -16.5774 H   0  0  0  0  0  0  0  0  0  0  0  0
    6.1178    4.2281  -16.7036 H   0  0  0  0  0  0  0  0  0  0  0  0
    3.4401    3.2442  -20.9176 H   0  0  0  0  0  0  0  0  0  0  0  0
    2.3235    3.4696  -18.9628 H   0  0  0  0  0  0  0  0  0  0  0  0
    3.2053    3.5867  -17.4766 H   0  0  0  0  0  0  0  0  0  0  0  0
  1  2  1  0  0  0  0
  1  3  2  0  0  0  0
  2  4  2  0  0  0  0
  3  5  1  0  0  0  0
  4  6  1  0  0  0  0
  5  6  2  0  0  0  0
  6 19  1  0  0  0  0
  7  8  2  0  0  0  0
  7  9  1  0  0  0  0
  7 29  1  0  0  0  0
  8 17  1  0  0  0  0
  8 22  1  0  0  0  0
  9 20  1  0  0  0  0
  9 23  2  0  0  0  0
 10 22  2  0  0  0  0
 10 23  1  0  0  0  0
 10 24  1  0  0  0  0
 11 18  1  0  0  0  0
 11 25  1  0  0  0  0
 11 28  2  0  0  0  0
 12 25  1  0  0  0  0
 12 26  2  0  0  0  0
 12 27  1  0  0  0  0
 13 14  1  0  0  0  0
 13 17  1  0  0  0  0
 14 17  1  0  0  0  0
 15 18  1  0  0  0  0
 15 24  1  0  0  0  0
 16 19  1  0  0  0  0
 16 24  1  0  0  0  0
 18 19  1  0  0  0  0
 19 26  1  0  0  0  0
 21 25  1  0  0  0  0
  1 30  1  0  0  0  0
  2 31  1  0  0  0  0
  3 32  1  0  0  0  0
  4 33  1  0  0  0  0
  5 34  1  0  0  0  0
 13 35  1  0  0  0  0
 13 36  1  0  0  0  0
 14 37  1  0  0  0  0
 14 38  1  0  0  0  0
 15 39  1  0  0  0  0
 15 40  1  0  0  0  0
 16 41  1  0  0  0  0
 16 42  1  0  0  0  0
 17 43  1  0  0  0  0
 18 44  1  0  0  0  0
 20 45  1  0  0  0  0
 20 46  1  0  0  0  0
 20 47  1  0  0  0  0
 21 48  1  0  0  0  0
 21 49  1  0  0  0  0
 21 50  1  0  0  0  0
 26 51  1  0  0  0  0
 27 52  1  0  0  0  0
 27 53  1  0  0  0  0
M  CHG  1  26   1
M  END
> <OMEGA_C>
pcW2QEws5L/nt6vBGN/UQMv6fL+bKLHBAoqVQHSJlr+m4KXBdgXSQBw70z6sq7DBYniSQEAtZj79
Y6XBDvuwQOCzhD9otqrBuRquQLe06UDsmMvBKb2dQBfbv0DnlczBR7vCQJEo9UCj8cHBs0K3QNck
sECxiLvBg+rZQLHfS0DRlpnBFRaMQAxfTkBOOZnBxXY5QJ9NlUAgZNTBCjGFQPErgUA/FdnBnvHX
QDHjk0BWT6rBgaOrQM93SkAYILXB6KCEQLtNsUC1UNbBvWzYQG6dTEBaxaXBytyuQIsrJEDfDKrB
rcvSQFMgEUEDLMDBA260QCIKUkCV9YfBgLqiQJdCpECkgsTBM9LGQEQO2EB4CLrBemy7QANrkUBj
v7PB+JSzQHxLS0C4wpPB17KJQA8YQ0BMnaPBt0JMQNinXEACvJPBvbz8QHdIU0CNK5XB8JupQDc0
A0HpntPBPSy5QPX+NsBgBqzBCyvuQC46ur/AtbXB9ad8QJ3t5L/6waHBXi7pQM1lgj/z3bTBhYRx
QEdYLz9s8aDBqmEAQMd1mUCHb9nBtaklQIl6jUASLczB+VuYQKLMVUDnPNTB9LeFQB/DbUBdf+HB
FzrLQJ+TqkBqYaTBAFj4QOjOnUBmsazBR8O/QL4BJ0AU07rBo0qKQFdWSkBa8bfBJRqDQO6Xx0CM
Hd3BXCL0QGCcKUA1+6jBLnrgQCR0EkFQF7jBzYzrQOniFEGZI8bBNQu4QNpxHEHH/8DBqYGTQJl4
UEAd2oTBNqjGQAQRHEBynoTBoMTDQLdMh0D1oIXBJitcQDWgT0BHV6fBWbQUQKwNXkDCs5fBryNN
QOiLZUAQ0IvBu9u1QFpY47/cDqzBtoOUQE6elb98QqbBAa7UQD2Je78oP7HBKP2RQL9jbT7BlaXB
a13SQMLj1T6MkrDB3iSxQOdqhT+trarBv+2tQMdG6UBSpcvB032dQGVvv0BVjczBga/CQCr29EAV
BsLBGpS3QBgAsEAZi7vBRPDZQPaNTEANgZnBnxiMQLuETkBWM5nBzTA2QAQUlkDC+9PBOMOCQHWK
gECitdjBg07YQHn4k0BVSKrBtQGsQBdnSkCbFbXBPJyDQLLdsECIJtbBqqnYQKf2TEAssaXBIiCv
QOh+JEAi/qnB8JrRQCk1EUHPM8DBvRy0QAobT0Bk5IfBhsOiQH38o0DxdsTB0ebGQGwF2ECXE7rB
JyG8QL1FkUDwxrPBvIKzQBxKS0BetpPBEOOJQISpQ0A7maPBoRFMQJfmW0BsuJPBYbD8QMDKU0DN
C5XBvUWpQOriAkE6tdPBWMm3QHOVNsBchqzBpJl5QGTv4789UaLBch3uQCiMub9Rv7XBBWpwQJtW
MT//KqHB1hPqQG8Cgz9Dk7TBnq/5P2SmmkBD9djBctAiQLoWj0CqtMvBV5OVQHozVECD09PBBZeC
QM5Sa0AcFOHBIFvLQHHCqkCyaKTBlMf4QHfhnUADm6zBuva/QIxjJkAexLrBXKWKQO2rSkA+5LfB
xFaCQDu4xkC1Ct3BIWX0QHDDKUA426jBWareQNu1EkGsELjBSZfqQOw6FUHJEMbBQGm2QCk4HEFs
J8HBRhyTQDxoTUCn1oTBHgHGQG78F0BxvITBbK7DQMRhhUDGToXBI8xcQCqsUECHW6fBBpEUQK7/
XECNs5fBbL5MQPNwZEDbyovB7RKzQDzw378A6q3BFLHTQNRFdL/3VLLBHb+RQOrIk7+mBajBODbT
QBBS3j76wbDBw9aQQJhrcj6fh6bBTdKxQGCihT/gz6rBuvitQI1q6UD71MrBmwDBQB8380DkvsDB
MNCdQIyMv0CHYczB6Ty3QNQlrUCdi7vBQ1vaQHj/T0CXV5nB74eMQCAPUUAmOpnBbKjFQPZbJEF8
lcLBwJTyQFuwGkFzDcPB0/3ZQGihkkAGlarBCZ2sQDbDR0BQ9bTBc3HPQBpXD0Ftw7zBJq7ZQG5K
TECIi6XBMhKwQMjFI0AN16nBLMyEQHcls0BDS9bBH/KzQGBJVEDr1IfBMzvGQAxC1EBXkLnBCzei
QOB+okD0l8TB7Ka7QC53j0CKtLPBO7qzQC4FT0BbpJPBMqiKQLp2Q0ANkKPBtnZMQFJdYECF75PB
zr78QArxWkCR0pTBOq2qQGctA0Eqz9LBQ5ezQLh8NMBoC6/BSgztQDKitL/d7LbB6JNxQKKZ4r89
o6TB8W7sQHyRhT8pGLTBF+JtQMbXMD8OHKLBnOW/QJoSM0GK+b3B/DqxQHJSJEEfwMnB/nv+QEi5
E0H3kMrBT5MGQXF5IkFiyr7BzB/PQLDUqkBNzKTBL0T6QLTomkB6a63BHfrAQD4DJEBSk7rB30mL
QIF/RkCoybfBfyLSQGTFEEGzBLTBFln1QEJnJ0CibqjB88dyQNj/kUDfftXBO3pSQIC6yECuONfB
mpqZQLC3tUDrXN3BfNqSQOWbUkD21oTBpeHFQF3AHUAciYTB1kbDQK81iEDeVIXBDD9eQG6/TkAt
Y6fB1GQVQPiyYEDvApjBJFtMQCQOa0BMDIzB

> <OMEGA_E>
EH8dPmAQHj7g0Uc+

> <OMEGA_NBR>
     38023

$$$$
220583
  -OEChem-04172616093D

 53 56  0     1  0  0  0  0  0999 V2000
    5.6343   -1.7792  -21.4837 C   0  0  0  0  0  0  0  0  0  0  0  0
    6.6070   -0.9991  -22.1342 C   0  0  0  0  0  0  0  0  0  0  0  0
    4.6068   -1.1583  -20.7498 C   0  0  0  0  0  0  0  0  0  0  0  0
    6.5563    0.4015  -22.0454 C   0  0  0  0  0  0  0  0  0  0  0  0
    4.5485    0.2428  -20.6621 C   0  0  0  0  0  0  0  0  0  0  0  0
    5.5284    1.0391  -21.3052 C   0  0  0  0  0  0  0  0  0  0  0  0
    5.3869    7.3518  -25.3751 C   0  0  0  0  0  0  0  0  0  0  0  0
    5.8851    7.6927  -24.1002 C   0  0  0  0  0  0  0  0  0  0  0  0
    4.9777    6.0276  -25.6027 C   0  0  0  0  0  0  0  0  0  0  0  0
    5.7512    5.4625  -23.4695 C   0  0  0  0  0  0  0  0  0  0  0  0
    6.8282    3.1840  -19.1803 C   0  0  0  0  0  0  0  0  0  0  0  0
    4.3980    3.2431  -19.1322 C   0  0  0  0  0  0  0  0  0  0  0  0
    6.7563    4.6075  -21.2887 C   0  0  0  0  0  0  0  0  0  0  0  0
    5.3695    3.1371  -22.6365 C   0  0  0  0  0  0  0  0  0  0  0  0
    6.7792    3.1918  -20.7081 C   0  0  2  0  0  0  0  0  0  0  0  0
    5.4756    2.5657  -21.2357 C   0  0  2  0  0  0  0  0  0  0  0  0
    7.6588    9.4275  -24.0524 C   0  0  0  0  0  0  0  0  0  0  0  0
    5.6592    3.2095  -16.9704 C   0  0  0  0  0  0  0  0  0  0  0  0
    3.5643    4.4842  -26.7774 C   0  0  0  0  0  0  0  0  0  0  0  0
    6.1946    9.1237  -23.7388 C   0  0  0  0  0  0  0  0  0  0  0  0
    6.0938    6.7336  -23.1818 N   0  0  0  0  0  0  0  0  0  0  0  0
    5.1686    5.1068  -24.6374 N   0  0  0  0  0  0  0  0  0  0  0  0
    5.9313    4.4895  -22.5185 N   0  0  3  0  0  0  0  0  0  0  0  0
    5.6312    3.1704  -18.4495 N   0  0  0  0  0  0  0  0  0  0  0  0
    4.3226    3.0730  -20.4320 N   0  3  0  0  0  0  0  0  0  0  0  0
    3.2136    3.4781  -18.4469 N   0  0  0  0  0  0  0  0  0  0  0  0
    7.9189    3.2586  -18.6257 O   0  0  0  0  0  0  0  0  0  0  0  0
    4.3362    5.7109  -26.7873 O   0  0  0  0  0  0  0  0  0  0  0  0
    5.2495    8.2847  -26.3449 F   0  0  0  0  0  0  0  0  0  0  0  0
    5.6761   -2.8565  -21.5475 H   0  0  0  0  0  0  0  0  0  0  0  0
    7.3921   -1.4766  -22.7015 H   0  0  0  0  0  0  0  0  0  0  0  0
    3.8608   -1.7605  -20.2525 H   0  0  0  0  0  0  0  0  0  0  0  0
    7.3058    0.9976  -22.5446 H   0  0  0  0  0  0  0  0  0  0  0  0
    3.7541    0.7144  -20.1028 H   0  0  0  0  0  0  0  0  0  0  0  0
    6.2982    5.3119  -20.5788 H   0  0  0  0  0  0  0  0  0  0  0  0
    7.7744    4.9441  -21.5338 H   0  0  0  0  0  0  0  0  0  0  0  0
    5.9515    2.5339  -23.3489 H   0  0  0  0  0  0  0  0  0  0  0  0
    4.3197    3.1780  -22.9626 H   0  0  0  0  0  0  0  0  0  0  0  0
    7.6419    2.6402  -21.1099 H   0  0  0  0  0  0  0  0  0  0  0  0
    7.8820   10.4716  -23.7879 H   0  0  0  0  0  0  0  0  0  0  0  0
    8.3056    8.7554  -23.4694 H   0  0  0  0  0  0  0  0  0  0  0  0
    7.8432    9.2738  -25.1259 H   0  0  0  0  0  0  0  0  0  0  0  0
    4.6298    3.1916  -16.5831 H   0  0  0  0  0  0  0  0  0  0  0  0
    6.2088    2.3355  -16.5909 H   0  0  0  0  0  0  0  0  0  0  0  0
    6.1600    4.1305  -16.6375 H   0  0  0  0  0  0  0  0  0  0  0  0
    3.1016    4.3335  -27.7639 H   0  0  0  0  0  0  0  0  0  0  0  0
    4.2268    3.6360  -26.5499 H   0  0  0  0  0  0  0  0  0  0  0  0
    2.7786    4.5517  -26.0105 H   0  0  0  0  0  0  0  0  0  0  0  0
    5.5483    9.7963  -24.3218 H   0  0  0  0  0  0  0  0  0  0  0  0
    6.0107    9.2779  -22.6653 H   0  0  0  0  0  0  0  0  0  0  0  0
    3.4655    3.2900  -20.8993 H   0  0  0  0  0  0  0  0  0  0  0  0
    2.3467    3.5125  -18.9442 H   0  0  0  0  0  0  0  0  0  0  0  0
    3.2275    3.6129  -17.4562 H   0  0  0  0  0  0  0  0  0  0  0  0
  1  2  1  0  0  0  0
  1  3  2  0  0  0  0
  2  4  2  0  0  0  0
  3  5  1  0  0  0  0
  4  6  1  0  0  0  0
  5  6  2  0  0  0  0
  6 16  1  0  0  0  0
  7  8  1  0  0  0  0
  7  9  2  0  0  0  0
  7 29  1  0  0  0  0
  8 20  1  0  0  0  0
  8 21  2  0  0  0  0
  9 22  1  0  0  0  0
  9 28  1  0  0  0  0
 10 21  1  0  0  0  0
 10 22  2  0  0  0  0
 10 23  1  0  0  0  0
 11 15  1  0  0  0  0
 11 24  1  0  0  0  0
 11 27  2  0  0  0  0
 12 24  1  0  0  0  0
 12 25  2  0  0  0  0
 12 26  1  0  0  0  0
 13 15  1  0  0  0  0
 13 23  1  0  0  0  0
 14 16  1  0  0  0  0
 14 23  1  0  0  0  0
 15 16  1  0  0  0  0
 16 25  1  0  0  0  0
 17 20  1  0  0  0  0
 18 24  1  0  0  0  0
 19 28  1  0  0  0  0
  1 30  1  0  0  0  0
  2 31  1  0  0  0  0
  3 32  1  0  0  0  0
  4 33  1  0  0  0  0
  5 34  1  0  0  0  0
 13 35  1  0  0  0  0
 13 36  1  0  0  0  0
 14 37  1  0  0  0  0
 14 38  1  0  0  0  0
 15 39  1  0  0  0  0
 17 40  1  0  0  0  0
 17 41  1  0  0  0  0
 17 42  1  0  0  0  0
 18 43  1  0  0  0  0
 18 44  1  0  0  0  0
 18 45  1  0  0  0  0
 19 46  1  0  0  0  0
 19 47  1  0  0  0  0
 19 48  1  0  0  0  0
 20 49  1  0  0  0  0
 20 50  1  0  0  0  0
 25 51  1  0  0  0  0
 26 52  1  0  0  0  0
 26 53  1  0  0  0  0
M  CHG  1  25   1
M  END
> <OMEGA_C>
Z0y0QBG847+U3qvBSGzTQNrBf7/YErHBu2qTQK1DlL+U/6XBz8zRQEyQzT7oXLDB/oyRQCCfeD4U
TKXBmeiwQJQAhT8ccarBg2GsQJxB60AkAMvBG1O8QKAq9kBIzcDBW0mfQCfiwEBc0szBJQq4QADN
rkCMwbvBPIDaQFbGS0A9cZnBpLyMQI6OT0CnDpnBkTPYQH1wk0A6T6rBGNOrQOLGSECcF7XB7+7Y
QApGTEBCqqXB2TevQJA0JEDO4qnB0xT1QAvXFkFSa8DB0xe1QKZoTUBXw4fBRR1kQF9+j0AXONbB
FjrGQLz6EUED6b3BjgDDQKt510A9dLnBDWWlQLRqo0B0GcXBEs29QNipj0D9JbTBtjK0QMDnSkCi
mJPB21KKQGSrREC7dKPBJKxNQIKYXkBQk5PBn2f9QICMUEBZAZXBccKKQOy/tkBUTNbBsvunQFWO
BEFdwtLB6KK1QIvQNsBIYazBVYzsQJcBvb+5nLXBVBd3QKhW4b8LBaLBU8npQApifz9HW7TB7EJw
QGvlNj9y0qDBj4rJQPr6qUBloaTBG8j4QB42nkBDRazBgHK+QGUrIkB6yrrBWjuKQLJkS0BZs7fB
dIr0QPf4KEAp4ajBHDn8QOCLJ0GvTb7Bw+MEQToWDEE7wbvBrvv6QKVhFEHSAcnB/iaUQMVCTEAc
qoTBxa7GQA55FUA6uoTBEB/FQGIthECPGYXBN4BGQHCsikB5HN7B70GHQNS0aEBBZtTBqtQxQFWn
kUB2FdDB6IuxQMi9HEERk8LBwFfAQF1yFEF6UrXBictdQBiPUkCxMafBKjAWQD7MYECfjZfBF49O
QMw5Z0A3povB0SG1QBmz4r+IdavBMBqUQE6tk786naXBSrLTQI6yfL881LDBs5yRQFLdfT5RE6XB
MXTRQB240z6yR7DB/YiwQPAlhj+SWKrB5OWsQIB260BbFcvBfX68QMRA9kBp2MDBU8OfQL0bwUBp
88zBsmu3QBD4rkALyrvBVZXaQLIsTUCvh5nBxb+MQGg3UUB67pjBfurXQH+bk0AGcKrBCNmqQKdL
SUD+CLXBK4bYQOTjTEDWuqXBYaSuQI3LJED90qnBQov0QINAF0EZI8DBE6S1QPcRUEB9vofB0yhn
QHiEj0AomNbB7bLFQHwIEkGz1L3B98zCQL+F10Caf7nB+ialQLeko0D4LsXB4Gu8QBQUkEBJFrTB
RI+0QOdDUkBXmJPBAe+JQAwcRUDaTqPBDZJNQESKW0BmTpPBO879QKl1TkBnN5XBR+yLQEX/tkCP
hdbBsbOoQO26BEEX0dLBkgK3QI9ONsA70qvBITF5QCMi4b+zh6HBMN7sQGsdu7/dXrXBhhpwQOV2
Nz+AoaDBmf3oQG6agT8habTBETbKQJB6qkA/saTBzWz4QB3bnUA/oqzBgY+9QFEYI0AXwrrB7jKJ
QLlES0Bcm7fBL/TzQB8xKUCC+KjBLxj7QDL4J0EI7b3BhJ8EQSyQDEHgb7vBbwr7QEH6FEH4tcjB
v9eUQITMVEC1moTBCybEQB6bE0BnEYXB7r7IQFEWg0A7w4TByaFKQAu+ikDpjN7BN+mIQDsPaUCX
utTBpxI0QFBPkUBdjtDBEAixQFi9HEHNh8LBqjy/QENTFEG1QbXBGnpcQFv5UUCZ+qbBqYwVQGSa
WUC5KpfBiOhOQInpZEDuZIvBjfmzQFP25b9uJ6zB7VLRQKs4gb9L57HBRQCVQA1ll78uoKXB/9jP
QOzNxz5dFbHBQgyTQOiDXz4R4qTB0newQB/Xgj/xoarBpIOqQLn/60DgmcrBLFKeQMRtwUBUn8zB
IEC8QJP+9UAWjMDBUSq5QM9BrkAz4LvBqFPaQLL/S0CTnJnBqouMQJIZUEC5MJnBmY7YQOp5kkB6
f6rBgQOrQA6OSEBqM7XBBKfYQO28SkBvz6XByL6uQMIyI0C4A6rB+3xjQPmNiUC9ZtbBSSy1QHLe
U0BQ9IfB74fpQGjrGEGu2cDBNPCHQAWTtUDuANfBi1CmQNpQo0BVNsXBie/DQHjW1kAFabnBbqS+
QMnbjkDAXLTBYhW0QMyDTEAawJPBCuWJQDU+Q0CNjKPB24BNQEpnYEBOt5PBih79QMJ/VUC/PJXB
Pp3BQM/WD0F6eb3BH7ejQFR7BUF399HBijW1QHXkN8Duv6zBnfvoQJaXvb848rbBj1B9QB4i5b/k
K6HBms3mQNCWfT/iZrXBORB2QMgaLz9F6Z/BueTJQIdCqUBd4aTBblP5QNHhnEB+YqzBi128QG/A
IEA7BbvBWkGJQNW4TUC7m7fBHhr0QMuaJkDV9qjB2DlEQNmTgkA5F97BfbOJQBFnYUAKrtTBCC4z
QJL7iUBAANDBVUyUQEYlU0Bzz4TBBS7HQF2zHUCzloTB89zEQJAdiEDisIXBXJDrQFmcKUEPG77B
Kw0CQfCoD0F5Z73Bso7rQE1zGEHxocnBkGFfQKARzkByytjBQM2fQJfJtEA9eN3BhldcQMNbT0AD
P6fBz+QVQLX+YUDDq5fBD61OQLSNakCT0YvBbmi0QGF53b+bL63BhwyTQJJ0kb/YTqfBMGnUQNaT
bb9m0LHBz4yRQBTghD4MDKbBjhvTQLCP7z7/jrDBuraxQA0oij+joqrBqNauQBcY5kAXhMzBnjqd
QPfNvED2yMzBuWPEQOV/80ArPMPBLGm2QFH+sEB6b7vBr/TZQNI1TkC+JpnB0QiMQKInTkCI6JjB
XwXYQNjdlUCv+KnBNECsQDB9TUBHs7TBAuLYQFYHUECDYKXBYqWvQKzQJkAws6nBFqlEQAdbjkAd
MtTBTaOzQOItSEDUjYfB2DPcQIXnF0EZLbnBXfmIQHjtqkDx3dbBR8ehQM41o0AgSMTBLJ/HQOCu
2EBBt7rB/Fq6QPJyk0BARbPBrmizQBDGTkDdYJPBgziKQPqjRECTUaPBKAFLQOA/V0DWgJPBOcD8
QI45UkAjp5TBOFzXQCuqDUGhZsPBL2arQAtXAEGdA9XBxHG1QPFlM8BAJa7B6w91QHOW4L92waPB
NvztQNtCsb8eVbbBUotvQKnJNT+fj6HBx7vrQK45ij8UIrTBbf/LQBSirEB2+KPBGTD4QPesn0Ak
kqzBRznBQOe7K0C4XrrBmwqLQFgXS0AtmrfBuNT0QHmnLUB3kKjBxa4oQNrigUAgpdvBEKlZQCz5
ZkAyJ8/Bzl4UQFBDoUBB4M/Bs42SQBDASUA9joTBrN7CQHKrC0AJKYXBFazFQDg4fkBeKoTBe5fr
QPKVJ0ESQbrBQIq8QH8aGkHsfbXBay3wQIPbDUFP9LPBVoV8QLSgxUD+79vBzOegQPrZl0DvNtvB
DaBdQLTVUUClGqfBuNMTQEZgVkAXjpfBN6lKQNysXkCzjovB

> <OMEGA_E>
oB0VPlCiGj7wEJs+wHqhPg==

> <OMEGA_NBR>
     41861

$$$$
220592
  -OEChem-04172616093D

 50 53  0     1  0  0  0  0  0999 V2000
    6.6808   -1.0206  -22.1403 C   0  0  0  0  0  0  0  0  0  0  0  0
    5.5247    1.0047  -21.3428 C   0  0  0  0  0  0  0  0  0  0  0  0
    6.5812    0.3779  -22.0812 C   0  0  0  0  0  0  0  0  0  0  0  0
    5.7443   -1.8275  -21.4834 C   0  0  0  0  0  0  0  0  0  0  0  0
    4.5495    0.1583  -20.7246 C   0  0  0  0  0  0  0  0  0  0  0  0
    4.6831   -1.2390  -20.7796 C   0  0  0  0  0  0  0  0  0  0  0  0
    5.4716    7.3345  -25.4166 C   0  0  0  0  0  0  0  0  0  0  0  0
    6.0809    7.6677  -24.1875 C   0  0  0  0  0  0  0  0  0  0  0  0
    4.9690    6.0318  -25.5930 C   0  0  0  0  0  0  0  0  0  0  0  0
    5.7019    5.4974  -23.4386 C   0  0  0  0  0  0  0  0  0  0  0  0
    6.8133    3.1923  -19.1796 C   0  0  0  0  0  0  0  0  0  0  0  0
    4.3919    3.2443  -19.1220 C   0  0  0  0  0  0  0  0  0  0  0  0
    6.7348    4.6141  -21.2898 C   0  0  0  0  0  0  0  0  0  0  0  0
    5.3076    3.1668  -22.6221 C   0  0  0  0  0  0  0  0  0  0  0  0
    6.7559    3.1977  -20.7071 C   0  0  2  0  0  0  0  0  0  0  0  0
    5.4525    2.5556  -21.2416 C   0  0  2  0  0  0  0  0  0  0  0  0
    6.5702    9.0731  -23.9208 C   0  0  0  0  0  0  0  0  0  0  0  0
    5.6574    3.2245  -16.9643 C   0  0  0  0  0  0  0  0  0  0  0  0
    3.6227    4.4267  -26.7779 C   0  0  0  0  0  0  0  0  0  0  0  0
    6.1785    6.7413  -23.2151 N   0  0  0  0  0  0  0  0  0  0  0  0
    5.0989    5.1399  -24.5935 N   0  0  0  0  0  0  0  0  0  0  0  0
    5.8281    4.5355  -22.4652 N   0  0  3  0  0  0  0  0  0  0  0  0
    5.6234    3.1738  -18.4428 N   0  0  0  0  0  0  0  0  0  0  0  0
    4.3162    3.0810  -20.4225 N   0  3  0  0  0  0  0  0  0  0  0  0
    3.2048    3.4565  -18.4340 N   0  0  0  0  0  0  0  0  0  0  0  0
    7.9060    3.2816  -18.6310 O   0  0  0  0  0  0  0  0  0  0  0  0
    4.3296    5.6951  -26.7756 O   0  0  0  0  0  0  0  0  0  0  0  0
    7.5169    1.0841  -22.7613 F   0  0  0  0  0  0  0  0  0  0  0  0
    5.8583   -3.1725  -21.5434 F   0  0  0  0  0  0  0  0  0  0  0  0
    3.4562    0.6333  -20.0830 F   0  0  0  0  0  0  0  0  0  0  0  0
    3.7767   -2.0209  -20.1483 F   0  0  0  0  0  0  0  0  0  0  0  0
    5.3453    8.2543  -26.4001 F   0  0  0  0  0  0  0  0  0  0  0  0
    7.4858   -1.4778  -22.6966 H   0  0  0  0  0  0  0  0  0  0  0  0
    6.3473    5.3302  -20.5503 H   0  0  0  0  0  0  0  0  0  0  0  0
    7.7449    4.9188  -21.6010 H   0  0  0  0  0  0  0  0  0  0  0  0
    5.8988    2.6065  -23.3613 H   0  0  0  0  0  0  0  0  0  0  0  0
    4.2525    3.1835  -22.9330 H   0  0  0  0  0  0  0  0  0  0  0  0
    7.6209    2.6494  -21.1086 H   0  0  0  0  0  0  0  0  0  0  0  0
    6.9631    9.1368  -22.8954 H   0  0  0  0  0  0  0  0  0  0  0  0
    7.3676    9.3254  -24.6352 H   0  0  0  0  0  0  0  0  0  0  0  0
    5.7357    9.7802  -24.0381 H   0  0  0  0  0  0  0  0  0  0  0  0
    4.6298    3.2003  -16.5724 H   0  0  0  0  0  0  0  0  0  0  0  0
    6.2164    2.3583  -16.5807 H   0  0  0  0  0  0  0  0  0  0  0  0
    6.1514    4.1524  -16.6406 H   0  0  0  0  0  0  0  0  0  0  0  0
    3.1578    4.2673  -27.7620 H   0  0  0  0  0  0  0  0  0  0  0  0
    4.3318    3.6116  -26.5711 H   0  0  0  0  0  0  0  0  0  0  0  0
    2.8431    4.4402  -26.0021 H   0  0  0  0  0  0  0  0  0  0  0  0
    3.4622    3.3180  -20.8856 H   0  0  0  0  0  0  0  0  0  0  0  0
    2.3368    3.4802  -18.9300 H   0  0  0  0  0  0  0  0  0  0  0  0
    3.2177    3.5856  -17.4425 H   0  0  0  0  0  0  0  0  0  0  0  0
  1  3  2  0  0  0  0
  1  4  1  0  0  0  0
  2  3  1  0  0  0  0
  2  5  2  0  0  0  0
  2 16  1  0  0  0  0
  3 28  1  0  0  0  0
  4  6  2  0  0  0  0
  4 29  1  0  0  0  0
  5  6  1  0  0  0  0
  5 30  1  0  0  0  0
  6 31  1  0  0  0  0
  7  8  1  0  0  0  0
  7  9  2  0  0  0  0
  7 32  1  0  0  0  0
  8 17  1  0  0  0  0
  8 20  2  0  0  0  0
  9 21  1  0  0  0  0
  9 27  1  0  0  0  0
 10 20  1  0  0  0  0
 10 21  2  0  0  0  0
 10 22  1  0  0  0  0
 11 15  1  0  0  0  0
 11 23  1  0  0  0  0
 11 26  2  0  0  0  0
 12 23  1  0  0  0  0
 12 24  2  0  0  0  0
 12 25  1  0  0  0  0
 13 15  1  0  0  0  0
 13 22  1  0  0  0  0
 14 16  1  0  0  0  0
 14 22  1  0  0  0  0
 15 16  1  0  0  0  0
 16 24  1  0  0  0  0
 18 23  1  0  0  0  0
 19 27  1  0  0  0  0
  1 33  1  0  0  0  0
 13 34  1  0  0  0  0
 13 35  1  0  0  0  0
 14 36  1  0  0  0  0
 14 37  1  0  0  0  0
 15 38  1  0  0  0  0
 17 39  1  0  0  0  0
 17 40  1  0  0  0  0
 17 41  1  0  0  0  0
 18 42  1  0  0  0  0
 18 43  1  0  0  0  0
 18 44  1  0  0  0  0
 19 45  1  0  0  0  0
 19 46  1  0  0  0  0
 19 47  1  0  0  0  0
 24 48  1  0  0  0  0
 25 49  1  0  0  0  0
 25 50  1  0  0  0  0
M  CHG  1  24   1
M  END
> <OMEGA_C>
WcnVQDCkgr9RH7HBksqwQGGbgD/2varBk5nSQHd/wT5KprDBP9G3QFrr6b/u3avBQpWRQJ4dIj7y
y6XBLdyVQKWYnr+jPKbBLhevQNuz6kAoVcvB4JbCQPtd9UDxf8HB9QGfQCsEwUByvszB/nW2QOTq
r0BKgrvBcgbaQDxPTEDBb5nBw4qMQE6iT0DM+ZjBmYPXQImmk0CcUarBk9epQO+sSkAD+rTBpDDY
QGemTEAuqKXBLHuuQIiOI0DG7qnBtT7SQJUrEUHSXb/BBAm1QHhdTkDrtofB1tpnQNGnjUAuOdbB
H7bFQLm410CfuLnB2imjQD16pECAv8TBnX+6QCYjkUCpuLPB1fKzQDggS0D0ipPBeR6KQFwuRUBR
YaPBwBpNQCE3XUDVeJPBy/38QFYGUkBGDJXB7ouKQHM+tkBmNNbBUIrwQOnDij8lF7bBV3e7QG8J
S8DQWKzBqzFdQG0gIj/oqaDB8bVxQMtVAcCrL6HBfwyrQIARBEFQM9PBn4vvQDQnvb+ekrXBLB3L
QEGRqkD3ZqTBb9b3QLpmnUDizqzBT8O8QObQJkDx47rB0RSIQNm9S0CydrfBsN7zQCGQKUCA3qjB
itHeQEUwEkGwKbfByMPrQLU0FUHvFMXBwYq3QJp7HEEYTsDBgyeUQCLSTEBBlITB4uzGQCHuFkAw
pYTBgdjEQHfghEDpH4XBrBlKQI2NiECXGN7BGJ6KQFokZ0ClkdTBCfU1QPgVjkA2BNDB85NdQINZ
VECcFafB3I0VQNq7XkC6cJfBcu5NQIx6ZUAmiovBjeyVQKIJn7+R1KXBgHawQERSfz96m6rBtL2R
QEaDHT5UbKXBEUa3QOEt6798l6vBxsbRQH/kuj4eprDBGK7UQIWnhL+cI7HBw5OuQIUi60AdP8vB
TSzBQBvS9UDCTsHBHzafQM1BwUDiy8zB1qG2QHW3r0C5lrvBBxPaQNZyS0CBe5nBC56MQB/LT0Ba
8pjBW7/WQPalk0A9ParBQ4CpQBMfSkBAArXBUfHXQMVrTEA4sKXBTDKuQOc9I0A866nBAyLQQNh4
EUFtDb/BRjG1QGTiTEDqu4fBEsNpQBLWjUA7ddbBIdDEQIfO10CaoLnBN5yjQGtspEBG38TBf5G7
QOZ1kEAF87PBfBG0QDo1SkALj5PBCe+JQDYvRUB1WaPBPMRNQDsnXkAhXZPByxf9QDryUUAmI5XB
SjOLQHmVtkCYUtbBonJeQDxGID+vGqDBCYi6QPPGS8C46KvBd4LvQKk6iT+mLLbBMxf0QK2qzr9B
/bbBGZmqQKpeBEHRE9PBUFB+QCy07r/TpqHBKZPIQKXzqUABbaTBryn3QEp+nkBDV6zB6H27QDmw
JECZ87rBwJ6HQHgTTUDUXbfBEqLzQGvlKUAj/ajBysDcQI9mEkHC2bbB4HbpQNXXFUEowsTBNhC1
QEOXHEH46L/BiFGUQPZfS0AHmITBrwPHQBk1FUBwtYTBsxfFQP4HhECAGoXBWbBMQC3SiECxX97B
Q7KLQJzAZ0DtydTBiGI3QKbujUCaT9DBGxxdQPtmVEAoB6fBMPUVQBseYECfRZfBxjhPQPWHZkBJ
b4vBI12RQPE3lb+9kajBSBmyQGg4hz+mwKrB4QiQQFivYz5W+KbBpgmzQGyL4L8+Qa7BUgDUQCRx
3T5JprDBCefTQBJldL9BbrLBY9KpQKc85UCUUMzBbLOcQKpUukCGyczBFZe9QFVc9EBp6cLBJCa4
QD/Dr0DTm7vBGQ/aQBx6TUAbxZjB54qMQEzgT0Cg35jBFpbYQLEilkDSp6nBJy6tQF4fTUAPjrTB
A8bZQMZzUECmCaXB2LWwQIqoJkDSkanBSPSCQMguqUAWGtbBr6GyQKpeR0BsWYfBkHDgQMiNFkEW
VrnBN8CjQLTXoEDXaMTBtQDFQLn02EAQq7rBqj69QLKQkkC+arPBODezQOZMSUBcLZPB3pmLQMI1
SEBUT6PB0sRLQILMXEDyo5PB5nf8QOIaUEDMEpTBg7zGQDzMD0EvTMLBnFdZQGTFMz9KDaLBpB2z
QE61RcBJ6a/BMHP0QPLykT+RHLXBKE/zQO8dwr8UYrjBwdWiQN/i/0Dpp9TB00NwQD215L/9YKXB
Vl3KQG2CrEDa3aPBWfz4QNwAoUDfw6vBT9TAQK8YKUBXTbrBx6uLQBBiTUDPP7fBSQH2QCCfLkC7
KKjBUJZyQNH/h0DRbtTBFIdMQPkOvUBdPtfBbZaWQJEIqkAdZ93Bd1aRQEcaRECmhYTBKEjEQPfd
DkB8gYTBM9rBQCjagEBuOITBOHjlQGv0J0G5vLnBV+fPQCaCEkHw1bHBRJD/QF5ZDkF2mLnBsyJi
QJJzWUB0OqfBL1oVQKvxX0A81ZfBIYFKQNP1YkDcrYvB2QDVQNpbb7/IYbLBlICyQPyLiD8KwqrB
s63UQBjK5j5bnrDBn9izQE+V3r+Cd67BrImQQLhBaD7UCafB9NmRQAFllL8BzKjBUDanQG7+5UAq
D8zB3JmbQICwukD7uMzBq+a7QPTH9EAGv8LBFBq5QHx6r0CzyLvBUf3ZQOfOTUB0u5jB3n2MQKvd
T0AQ0ZjBBwXYQHiHlkCqlKnBOO+sQF9rTUDmjbTBxKPZQLFNUUC0AKXB6LSwQNo2J0CNi6nBVBSB
QGCqqUCf6dXBw5ayQE9iR0AyTIfBKhvfQOWrFkG4MLnBZKKkQL6ZoEB1lMTBAwLFQAbj2EDgt7rB
rMG+QPYekkBbqLPBsyyzQDtrSUDBIJPBWIuLQOFpSEBRQqPBU7VLQFujXEAukZPBh3T8QEHZTkCJ
DZTB3SrEQEsSEEHU9MHBqQj1QP67lD92ELXB7GS0QHt6RMBpT7DB0alaQPrfMz+GAaLBGytjQOTX
97+jIKXBePOdQJ6kAEHUINTB9QPvQCw0sb9WyrbBXv7HQOVirEAy96PB3nH4QGZpokDgSKvBu1K/
QMp6J0COXrrBSjWLQOETUEBLDbfBMff1QFf4L0B5J6jB/mRxQPIIiEBVYNTBhUhHQGe5vED/q9bB
c52TQHzeq0CWX93BPEyRQIfzQ0CyeITBXkzEQJruDkAcdoTBLb/BQM3ggEAhKYTBVUvjQPwjKEHB
arnBvhHQQDoPEkE8k7HBaIL+QCzYDkG847nB+fFhQEOTWUCsKqfB1j8VQEDZX0ARwJfByoRKQBWg
YkCEmovB

> <OMEGA_E>
gOM5PQA0PT3AV4g+4GuKPg==

> <OMEGA_NBR>
     45543

$$$$
220588
  -OEChem-04172616093D

 51 54  0     1  0  0  0  0  0999 V2000
    4.5265    0.2214  -20.6994 C   0  0  0  0  0  0  0  0  0  0  0  0
    6.5659    0.3931  -22.0352 C   0  0  0  0  0  0  0  0  0  0  0  0
    4.5785   -1.1771  -20.8132 C   0  0  0  0  0  0  0  0  0  0  0  0
    6.6123   -1.0040  -22.1479 C   0  0  0  0  0  0  0  0  0  0  0  0
    5.5249    1.0220  -21.3065 C   0  0  0  0  0  0  0  0  0  0  0  0
    5.6187   -1.7884  -21.5370 C   0  0  0  0  0  0  0  0  0  0  0  0
    5.3708    7.3560  -25.3355 C   0  0  0  0  0  0  0  0  0  0  0  0
    5.8981    7.6699  -24.0705 C   0  0  0  0  0  0  0  0  0  0  0  0
    4.9843    6.0306  -25.5938 C   0  0  0  0  0  0  0  0  0  0  0  0
    5.7780    5.4319  -23.4766 C   0  0  0  0  0  0  0  0  0  0  0  0
    6.8251    3.1981  -19.1784 C   0  0  0  0  0  0  0  0  0  0  0  0
    4.3949    3.2394  -19.1258 C   0  0  0  0  0  0  0  0  0  0  0  0
    6.7676    4.5776  -21.3034 C   0  0  0  0  0  0  0  0  0  0  0  0
    5.3571    3.1163  -22.6306 C   0  0  0  0  0  0  0  0  0  0  0  0
    6.7748    3.1729  -20.7040 C   0  0  2  0  0  0  0  0  0  0  0  0
    5.4687    2.5459  -21.2286 C   0  0  2  0  0  0  0  0  0  0  0  0
    5.6637    3.2857  -16.9694 C   0  0  0  0  0  0  0  0  0  0  0  0
    7.2659    9.5594  -23.8315 C   0  0  0  0  0  0  0  0  0  0  0  0
    3.5851    4.4856  -26.7871 C   0  0  0  0  0  0  0  0  0  0  0  0
    6.1241    6.6982  -23.1734 N   0  0  0  0  0  0  0  0  0  0  0  0
    5.2001    5.0891  -24.6517 N   0  0  0  0  0  0  0  0  0  0  0  0
    5.9138    4.4683  -22.5114 N   0  0  3  0  0  0  0  0  0  0  0  0
    5.6304    3.1900  -18.4456 N   0  0  0  0  0  0  0  0  0  0  0  0
    4.3151    3.0467  -20.4222 N   0  3  0  0  0  0  0  0  0  0  0  0
    3.2130    3.4889  -18.4413 N   0  0  0  0  0  0  0  0  0  0  0  0
    7.9109    3.3529  -18.6305 O   0  0  0  0  0  0  0  0  0  0  0  0
    5.9703    8.9746  -23.6657 O   0  0  0  0  0  0  0  0  0  0  0  0
    4.2970    5.7472  -26.7613 O   0  0  0  0  0  0  0  0  0  0  0  0
    5.6604   -3.1328  -21.6494 F   0  0  0  0  0  0  0  0  0  0  0  0
    5.1486    8.3286  -26.2481 F   0  0  0  0  0  0  0  0  0  0  0  0
    3.7236    0.6876  -20.1478 H   0  0  0  0  0  0  0  0  0  0  0  0
    7.3289    0.9945  -22.5070 H   0  0  0  0  0  0  0  0  0  0  0  0
    3.8186   -1.7847  -20.3443 H   0  0  0  0  0  0  0  0  0  0  0  0
    7.4095   -1.4761  -22.7029 H   0  0  0  0  0  0  0  0  0  0  0  0
    6.3421    5.3006  -20.5919 H   0  0  0  0  0  0  0  0  0  0  0  0
    7.7871    4.8881  -21.5760 H   0  0  0  0  0  0  0  0  0  0  0  0
    5.9399    2.5154  -23.3443 H   0  0  0  0  0  0  0  0  0  0  0  0
    4.3066    3.1536  -22.9547 H   0  0  0  0  0  0  0  0  0  0  0  0
    7.6349    2.6086  -21.0936 H   0  0  0  0  0  0  0  0  0  0  0  0
    4.6365    3.2636  -16.5767 H   0  0  0  0  0  0  0  0  0  0  0  0
    6.2311    2.4370  -16.5597 H   0  0  0  0  0  0  0  0  0  0  0  0
    6.1488    4.2278  -16.6740 H   0  0  0  0  0  0  0  0  0  0  0  0
    7.2444   10.6034  -23.4858 H   0  0  0  0  0  0  0  0  0  0  0  0
    8.0018    8.9931  -23.2418 H   0  0  0  0  0  0  0  0  0  0  0  0
    7.5476    9.5310  -24.8944 H   0  0  0  0  0  0  0  0  0  0  0  0
    3.0799    4.3688  -27.7573 H   0  0  0  0  0  0  0  0  0  0  0  0
    4.2974    3.6598  -26.6431 H   0  0  0  0  0  0  0  0  0  0  0  0
    2.8376    4.4699  -25.9803 H   0  0  0  0  0  0  0  0  0  0  0  0
    3.4512    3.2421  -20.8864 H   0  0  0  0  0  0  0  0  0  0  0  0
    2.3446    3.5164  -18.9365 H   0  0  0  0  0  0  0  0  0  0  0  0
    3.2301    3.6411  -17.4531 H   0  0  0  0  0  0  0  0  0  0  0  0
  1  3  2  0  0  0  0
  1  5  1  0  0  0  0
  2  4  1  0  0  0  0
  2  5  2  0  0  0  0
  3  6  1  0  0  0  0
  4  6  2  0  0  0  0
  5 16  1  0  0  0  0
  6 29  1  0  0  0  0
  7  8  2  0  0  0  0
  7  9  1  0  0  0  0
  7 30  1  0  0  0  0
  8 20  1  0  0  0  0
  8 27  1  0  0  0  0
  9 21  2  0  0  0  0
  9 28  1  0  0  0  0
 10 20  2  0  0  0  0
 10 21  1  0  0  0  0
 10 22  1  0  0  0  0
 11 15  1  0  0  0  0
 11 23  1  0  0  0  0
 11 26  2  0  0  0  0
 12 23  1  0  0  0  0
 12 24  2  0  0  0  0
 12 25  1  0  0  0  0
 13 15  1  0  0  0  0
 13 22  1  0  0  0  0
 14 16  1  0  0  0  0
 14 22  1  0  0  0  0
 15 16  1  0  0  0  0
 16 24  1  0  0  0  0
 17 23  1  0  0  0  0
 18 27  1  0  0  0  0
 19 28  1  0  0  0  0
  1 31  1  0  0  0  0
  2 32  1  0  0  0  0
  3 33  1  0  0  0  0
  4 34  1  0  0  0  0
 13 35  1  0  0  0  0
 13 36  1  0  0  0  0
 14 37  1  0  0  0  0
 14 38  1  0  0  0  0
 15 39  1  0  0  0  0
 17 40  1  0  0  0  0
 17 41  1  0  0  0  0
 17 42  1  0  0  0  0
 18 43  1  0  0  0  0
 18 44  1  0  0  0  0
 18 45  1  0  0  0  0
 19 46  1  0  0  0  0
 19 47  1  0  0  0  0
 19 48  1  0  0  0  0
 24 49  1  0  0  0  0
 25 50  1  0  0  0  0
 25 51  1  0  0  0  0
M  CHG  1  24   1
M  END
> <OMEGA_C>
RdmQQNSuYj5TmKXBHRzSQB5JyT4ISLDBQoOSQLKrlr91gabBuJfTQFCEgL/xLrHBP8ywQO7Qgj+d
c6rBBsyzQMjr5L+vS6zBYN2rQH9k60Ajr8rBFL28QLRv9UBSkMDBtn+fQJz6wEAswMzBjeW4QOnR
rUAt0LvBl2faQB2uTEBhbZnBTKOMQK9ST0CiAZnBhZDYQPF7kkBlbarBk22rQLtxR0CNC7XBK8vY
QIsQS0DhoaXBWf+uQKfvIkAU1KnBRz21QERJUkA9wYfB8YHoQErzGEHTpr7B0HJlQMWJj0AUTNbB
0fjDQF1X1kAzY7nBWmemQMjZokC0NsXBMj69QFr8jkBZF7TB/iu0QHEoTECekJPBKBWKQPj8QkC6
YKPBhKFNQLVKX0DBh5PBcyb9QCSVVkBOC5XBaAy/QOGXD0FMU73BNYGJQE3pt0AsF9bBSyK1QGV/
SMADMq3BdcGkQCRCBUEH/NHB2E5uQIwHMD+iLqHBhobqQHGYfj9FDrTBvmR0QEdw5L8qwaLBixrt
QHvyvL9yn7XBIPLKQHaeqUBKvKTBDDD5QEVrnECVm6zBpBO+QB/9IEAqwbrBzM+JQCzVSUBLo7fB
XlH0QJfzJkC/v6jB2V2UQCPeUED7nITBUGXHQEz4G0BTeoTB48LEQBFKh0BlZIXBS9LnQLSnKUHV
4rvBagcAQbTjD0E877nBnIXxQMt+GEG5J8fBDR1FQH7Ni0DdDt7BboSJQPo5akAgJdXBN5s1QI4J
j0C518/B5t9cQFN/T0BUF6fBmg4WQG4NYUDufZfBQ7lOQEUIaUDqn4vBgIfQQP5T3D49vrDB4LiQ
QIuxeT4niKXBYUXSQAM8d7+GpbHBwZKSQBy0k7+4eKbBOOGvQCeBhj9coarBFVCzQOHq4L/kgazB
PACtQI/F6kC1E8vBOgK7QC1C9kDDxMDBo0+hQKkKwECL+MzBHjC2QNVOr0AIgrvBfCfbQB0YTEDP
ppnB1myNQAErUEDGy5jBHHHYQMEXk0Bkk6rBrfGpQChlSkB067TB1IzYQIfRS0DG16XB2kKuQBOa
JECD1qnBFI63QNpnUECIxIfBokDpQKtgGEGs5L7B4gtnQPhwj0CTYtbBDknAQBkw2EBeNrnBeBKm
QKUWo0BOE8XB6rm5QP0LkUBiobPBGW+1QD9GTEA3lZPBme6JQJBeREAzKKPBAB5QQGgpX0DLFZPB
7nn+QDwAUUA3bpXBeZO+QDY3EEHB/L3BI5KOQCAetUCcnNbBvPu0QO13RsCfY63BH4WoQIBXBEE0
0NLBrjvoQDbVhD+hu7TBoABvQD9PND8N6qDBcFbrQGlLt7+iR7bBOqh1QPU04r8fjqLBO8jNQGyN
qkCmlKTB1Y/4QJnNm0A7ca3BoI29QKfZJkDVuLrB11iIQCIpSkCBi7fBiZ3zQAtgJ0AqJanBqfGW
QP/mT0CwdITBfl/JQDfIGEDGuYTB0e/HQGzNhUA+VoXB2rLpQNdVKUFNirzB7KX+QGY4D0FRnbnB
OjL0QG7XFkHIOMfBE6hMQHmsiUA7at7BIY2GQKspZ0AG4NPBvlMyQLh4lECwsNDB+e1bQAEYUUBc
tKbBtswXQMSlYECG4ZbB6pxSQGp5aEAqLYvBzenPQB+F2D4gkbDBxeqPQFYheD4sbKXBiwbSQECq
eb/3SbHB/zWSQGMblL/WJqbBuRyvQI0dhj+YiKrBw1GzQB7i4b/AB6zBlXGrQNnC60A53srBLnSg
QGUVwUD4Bc3BNq26QD1D9kB6oMDBFtC4QA5SrkDw97vBxMXaQPGUS0CblJnBNBSNQHZfTUCAnpjB
miTXQA8Kk0AiYKrBq8CoQMdVSkAg97TBmd3XQH66S0Box6XBYYWtQNaiJEAOzanBH163QCb+TECA
pYfBLNRnQO0DkEDjq9bBWGrpQMlyF0FerrzBP1GnQLsYo0CJdsXBIu3BQPNB10BaYLnBcRK/QLul
jkCPhbTBKi21QARRSUDwdpPBTHWJQNhFREB+BqPB2KtPQM2+WkDdy5LBL+z9QKmaVUB7aJXB2rGM
QOsxt0A1m9bBxBu+QGEwEEHOur3BQZu1QEMSR8DeoazBXpmlQK5FBUH7U9LBSnTnQEWXgz9fo7TB
YKJsQMWkND+29KDBui7rQG7auL++37XBVAl1QDdR4r9mMaLBbsDGQIkuqUDa5aTB8db3QJCVnkDE
46vB0Ke3QOY+IECL9LrBUsOGQGN9U0BF8rbB7vnyQOblJ0BpKanBVNCWQLB1SkBmUITBFwLKQBdE
FkCqqITB/evGQFR+hEBBLoXBfGlLQIRPi0Dlot7B0eiIQE+daUCdxNTBEp80QK0rkkAZqNDB9pPp
QElrKEFuWbrBf9P5QGPwDUFChLbBoBb6QNONFUGMX8TBeEtbQHcBU0Arh6bBhy0XQE4mXUAti5bB
G4VSQMP4YUAB24rB4kmTQAysXT6ZwKXB3o3UQD699T4JUbDBngeXQOzQlr8gpabBIzbYQJrnab+q
KbHBPzeyQHzYhz9yiqrBRXK5QC793r+LVKzB3AyzQMHI6EAJ6cvBiD+dQCWWwUA4p8zB07DLQM8V
8UDgucLBo/22QK+mr0BJo7vB7O7YQALlTkCGNZnBmiSLQFD/S0Cw45jBP4bWQPLVlECvHKrBhJGq
QGcSS0BN3bTBCrPXQBU8T0Bcb6XBu5yuQIoyJUBUwqnBSA6zQGqvTUCnkofBqsdjQDi0jkDoMNbB
GdDRQAiwG0GhZLzBltGfQIOnpUA8csTB98HMQAGx1ECwqrrBfyu6QC+ckUANpbPBTJGyQGG9SkAq
aJPBrBCJQE3pQUDZTKPBeNVJQK/YVkBzZJPBNpT7QONTV0ARu5TBFouGQGMyuECt4NXBsfbkQGhi
CkFcOMLBrNK8QDZTRcBmNK3B0gCxQGjXAkGR8tPBfotxQA9hJT+9Z6HBkRHsQEbCjj+oF7TBQuR+
QGDk6L/+9aLBxpryQGK5rL9thLXB8EjJQOKRq0D3Q6TBu9L2QEUtn0AXeKzBd2C+QB58J0DGnrrB
8wiJQESFSkALirfBjMHzQH/jLEAnkajBoxWSQEqkSUB1iITBd87FQIF/F0ADeoTBqqbBQLcNhUBf
6YTBM/NBQFDrikCl2d3BwyqKQFjVakBWZNXBi7I1QANEjED5kM/BOMbnQOJwKUFjTrzBR52zQApW
IEF4RcDBeVrLQHqNFkHgIbTBVM1aQCjcTUCVCKfByVASQEPHVkBLX5fBTkpKQGi6XkAXdIvB

> <OMEGA_E>
kDsJPvjAET7gRBU+2HcsPg==

> <OMEGA_NBR>
     49277

$$$$
220593
  -OEChem-04172616093D

 53 56  0     1  0  0  0  0  0999 V2000
    6.5845    0.4094  -22.0549 C   0  0  0  0  0  0  0  0  0  0  0  0
    4.5565    0.2228  -20.7031 C   0  0  0  0  0  0  0  0  0  0  0  0
    6.6237   -0.9859  -22.1912 C   0  0  0  0  0  0  0  0  0  0  0  0
    4.6017   -1.1731  -20.8402 C   0  0  0  0  0  0  0  0  0  0  0  0
    5.5493    1.0292  -21.3104 C   0  0  0  0  0  0  0  0  0  0  0  0
    5.6313   -1.7760  -21.5852 C   0  0  0  0  0  0  0  0  0  0  0  0
    5.4480    7.3297  -25.3667 C   0  0  0  0  0  0  0  0  0  0  0  0
    5.9985    7.6511  -24.1038 C   0  0  0  0  0  0  0  0  0  0  0  0
    4.9784    6.0224  -25.5849 C   0  0  0  0  0  0  0  0  0  0  0  0
    5.6945    5.4510  -23.4366 C   0  0  0  0  0  0  0  0  0  0  0  0
    6.8301    3.2179  -19.1802 C   0  0  0  0  0  0  0  0  0  0  0  0
    4.3991    3.2576  -19.1324 C   0  0  0  0  0  0  0  0  0  0  0  0
    6.7631    4.5940  -21.3125 C   0  0  0  0  0  0  0  0  0  0  0  0
    5.3660    3.1223  -22.6214 C   0  0  0  0  0  0  0  0  0  0  0  0
    6.7823    3.1901  -20.7055 C   0  0  2  0  0  0  0  0  0  0  0  0
    5.4826    2.5501  -21.2261 C   0  0  2  0  0  0  0  0  0  0  0  0
    7.3766    9.7243  -24.5211 C   0  0  0  0  0  0  0  0  0  0  0  0
    5.6639    3.3323  -16.9743 C   0  0  0  0  0  0  0  0  0  0  0  0
    3.5420    4.5197  -26.7885 C   0  0  0  0  0  0  0  0  0  0  0  0
    6.2708    9.0792  -23.6850 C   0  0  0  0  0  0  0  0  0  0  0  0
    6.1370    6.6935  -23.1765 N   0  0  0  0  0  0  0  0  0  0  0  0
    5.1030    5.1073  -24.6032 N   0  0  0  0  0  0  0  0  0  0  0  0
    5.8174    4.5037  -22.4563 N   0  0  2  0  0  0  0  0  0  0  0  0
    5.6338    3.2239  -18.4497 N   0  0  0  0  0  0  0  0  0  0  0  0
    4.3220    3.0410  -20.4244 N   0  3  0  0  0  0  0  0  0  0  0  0
    3.2124    3.5024  -18.4547 N   0  0  0  0  0  0  0  0  0  0  0  0
    7.9201    3.3240  -18.6290 O   0  0  0  0  0  0  0  0  0  0  0  0
    4.3537    5.7198  -26.7831 O   0  0  0  0  0  0  0  0  0  0  0  0
    5.6645   -3.1182  -21.7210 F   0  0  0  0  0  0  0  0  0  0  0  0
    5.3022    8.2639  -26.3327 F   0  0  0  0  0  0  0  0  0  0  0  0
    7.3477    1.0155  -22.5201 H   0  0  0  0  0  0  0  0  0  0  0  0
    3.7629    0.6829  -20.1331 H   0  0  0  0  0  0  0  0  0  0  0  0
    7.4144   -1.4523  -22.7603 H   0  0  0  0  0  0  0  0  0  0  0  0
    3.8446   -1.7855  -20.3729 H   0  0  0  0  0  0  0  0  0  0  0  0
    6.4094    5.3296  -20.5751 H   0  0  0  0  0  0  0  0  0  0  0  0
    7.7667    4.8784  -21.6616 H   0  0  0  0  0  0  0  0  0  0  0  0
    6.0120    2.5780  -23.3259 H   0  0  0  0  0  0  0  0  0  0  0  0
    4.3254    3.0873  -22.9761 H   0  0  0  0  0  0  0  0  0  0  0  0
    7.6473    2.6318  -21.0930 H   0  0  0  0  0  0  0  0  0  0  0  0
    7.5384   10.7579  -24.1812 H   0  0  0  0  0  0  0  0  0  0  0  0
    8.3073    9.1499  -24.4037 H   0  0  0  0  0  0  0  0  0  0  0  0
    7.0797    9.7290  -25.5803 H   0  0  0  0  0  0  0  0  0  0  0  0
    4.6355    3.3201  -16.5841 H   0  0  0  0  0  0  0  0  0  0  0  0
    6.2248    2.4836  -16.5558 H   0  0  0  0  0  0  0  0  0  0  0  0
    6.1543    4.2737  -16.6858 H   0  0  0  0  0  0  0  0  0  0  0  0
    3.0984    4.3808  -27.7855 H   0  0  0  0  0  0  0  0  0  0  0  0
    4.1705    3.6510  -26.5428 H   0  0  0  0  0  0  0  0  0  0  0  0
    2.7408    4.6157  -26.0410 H   0  0  0  0  0  0  0  0  0  0  0  0
    5.3480    9.6658  -23.8047 H   0  0  0  0  0  0  0  0  0  0  0  0
    6.5755    9.0867  -22.6281 H   0  0  0  0  0  0  0  0  0  0  0  0
    3.4533    3.2111  -20.8897 H   0  0  0  0  0  0  0  0  0  0  0  0
    2.3448    3.5087  -18.9519 H   0  0  0  0  0  0  0  0  0  0  0  0
    3.2252    3.6725  -17.4693 H   0  0  0  0  0  0  0  0  0  0  0  0
  1  3  2  0  0  0  0
  1  5  1  0  0  0  0
  2  4  1  0  0  0  0
  2  5  2  0  0  0  0
  3  6  1  0  0  0  0
  4  6  2  0  0  0  0
  5 16  1  0  0  0  0
  6 29  1  0  0  0  0
  7  8  1  0  0  0  0
  7  9  2  0  0  0  0
  7 30  1  0  0  0  0
  8 20  1  0  0  0  0
  8 21  2  0  0  0  0
  9 22  1  0  0  0  0
  9 28  1  0  0  0  0
 10 21  1  0  0  0  0
 10 22  2  0  0  0  0
 10 23  1  0  0  0  0
 11 15  1  0  0  0  0
 11 24  1  0  0  0  0
 11 27  2  0  0  0  0
 12 24  1  0  0  0  0
 12 25  2  0  0  0  0
 12 26  1  0  0  0  0
 13 15  1  0  0  0  0
 13 23  1  0  0  0  0
 14 16  1  0  0  0  0
 14 23  1  0  0  0  0
 15 16  1  0  0  0  0
 16 25  1  0  0  0  0
 17 20  1  0  0  0  0
 18 24  1  0  0  0  0
 19 28  1  0  0  0  0
  1 31  1  0  0  0  0
  2 32  1  0  0  0  0
  3 33  1  0  0  0  0
  4 34  1  0  0  0  0
 13 35  1  0  0  0  0
 13 36  1  0  0  0  0
 14 37  1  0  0  0  0
 14 38  1  0  0  0  0
 15 39  1  0  0  0  0
 17 40  1  0  0  0  0
 17 41  1  0  0  0  0
 17 42  1  0  0  0  0
 18 43  1  0  0  0  0
 18 44  1  0  0  0  0
 18 45  1  0  0  0  0
 19 46  1  0  0  0  0
 19 47  1  0  0  0  0
 19 48  1  0  0  0  0
 20 49  1  0  0  0  0
 20 50  1  0  0  0  0
 25 51  1  0  0  0  0
 26 52  1  0  0  0  0
 26 53  1  0  0  0  0
M  CHG  1  25   1
M  END
> <OMEGA_C>
D7TSQNqX0T59cLDB5s6RQAocZD7sn6XBq/XTQH1lfL+kh7HBwkCTQOInlr+zuKbBF5SxQGy+gz/F
e6rBfDO0QFZT4793rqzBZ1auQMSM6kD57srBmPO/QIjV9ECI1MDBW0+fQFa3wEDnrczBjjm2QDhu
rkAUfrvBfpDaQMjyTUAJcZnBJcWMQIh8UEAnD5nBjGvYQCcCk0Dyf6rBU7arQBzTR0Ca+LTB7wjZ
QOMqTEDhpKXBcHGvQA80I0Afz6nBzwzsQMyWG0FAK8TB7z61QOBDVUBIy4fBDLBiQAGhkEDVTtbB
a6rIQIJEEUHWer3BOWLEQGIx1kCOabnB3kujQENvo0Bk08TBUSi6QIwekECXprPBF0i0QE1UTkDn
mJPBjk2KQEygQkAeZaPBjZdNQHMnYEAqo5PBJ3H9QOW7VEA4CJXBd1GLQHoIt0DgQ9bBakO1QG6Q
R8CpxK3BxaupQA05BEFzqdLBniDrQGr9gT8qKbTBqtJwQDnQLj+wEKHBc0LtQJ/jub8cFbbBjQ52
QDqK5L/G+6LBmxnNQAaMqkC4maTBBIn4QL4bnEAPS63BgWLAQC79JECFm7rBUmmKQFqWRUARz7fB
4rb0QBpwKEBpvqjBNDrxQFcgLEEgc8HBtuoEQQ1mEkHDOsPBSI3iQAuqG0F3pMzBK1aUQJx8VEBB
rITBaDHHQIbyHkA5coTByu/EQIDCiECTfIXBM0xGQMYvjEChSN7BtXSFQI+paUCWV9TByWgvQP2z
k0DhU9DBlyKrQBSnGkH2b77BvGrSQBdjEUFCBrXBcgNdQGuDTUAiHqfBdRAWQN6NYEBonZfBUGpO
QAoKa0AtwYvBMZeRQHDnhD4thqXBhVTSQB514T4qZLDBRn6TQHTNkb9tY6bBKgnUQAQ1db81QbHB
4yOxQCBxiD+gf6rB15+0QFKW37+hQKzBUpatQLhG6kCroMvBDri/QPJ19kDmv8HByC6fQGgbwEBg
5szBh6G3QJhVsEC4pbvBskzaQEBrS0DUTJnBfoOMQEFTTkAr7JjBlO/XQNS+lEBkEarBeumrQE6d
S0By8LTBgtbYQND8TUDsiaXBWUWvQNHiJUB3z6nB3p7zQG1iFUFgpLnBj8W0QJRMS0D/nofBbath
QFhCjkDzxtXB2L/IQJyhEkHaar/Bf3vEQKIK2UCE5rnBkn2kQGb7o0Dd2cTBfp+8QCWlkUA5zrPB
lvSzQMhqSUDndZPBc0GKQFJCRUAQWaPB3PZMQEN7W0BLa5PBrDH9QN5DTkCO1ZTBZ1WKQGHktECf
QNbBch+2QPbZRcBbIa3BpAqoQItyA0GzodPBaP5vQB38OD+gDaHBinvqQF2qhT+nPrTBevV2QGvp
379gi6LB7m7tQIOqtr8DwbXBBuLJQEsTq0AjPqTBVmf4QCNxn0CjKqzBvFi/QIK+JkDypbrBcmuK
QA6cTEDhpLfB64f0QFVZK0C20ajBkkP5QMV3JkF7ELjBC93yQAyXDEGWBbLBbsQGQU8RD0HxsL7B
YtKTQCRISUAbiYTBQaTGQO+TE0BaoITBXHjEQPo3g0D+5oTBX7JDQLiEiED9m93BJnmFQPf1ZUB2
s9PBY50vQMfqkUA1qM/BnLLJQDKGG0H4AcfBygavQPALGUGdVrrBCM1dQLLPU0BBFKfBPYQVQIG/
XUB+Z5fB26FNQKCwYkBweIvBLgTSQNoy4j7UibDBdUyQQIK7gT5mDabB3tHSQGeOc79w2LHBS1eR
QAYUkr/6V6fB48OwQKLYhz/kn6rBPH2yQGgB37/dP63BTDWrQGy86EB5rsvBDtedQLc4vkAQz8zB
a2e9QJi19UCH9cHBOVC5QN5Sr0C30rvBxTTaQF9TTECYQJnBt2uMQH88TUA13JjByyLYQEd3lEAv
DKrB68GrQE9gS0Dq3LTB4sPYQISmTUAjeaXBlCevQBKDJUADwqnBlJZiQKGHg0A7hdXBcKO0QIPs
SkATl4fB1iTlQLHvFkEr27nBhBiDQEFOsUBwa9bBbaOlQFFKokAp5cTBcBLFQHCD2EDtKrrBPXq9
QHUtkUBN2LPB6eOzQEm/SEBca5PBQR+KQKuHREBbSaPBj/9MQAnSWkAmU5PB69j8QJ+YVUCczJTB
umDBQBGCEEFeQcDBDiyzQDVCRcBNjK7BjVCkQCjGAkG1kdPBBuzqQCwGhj+RELTBSVptQIA0Nj+b
j6HB9DrsQPMttb/TX7bBbU9xQCFw4L8WzKPB6L7JQKPlqkBzTKTBi7j4QDUhn0BbCqzBDoC+QCWH
JUDJnbrBlCiKQPDSTUAGeLfB2HL0QBeqKkBcs6jBkI48QFoQeEBIr9zB7PyLQGx6WUAs29TByck5
QCcXgUD8X87BBLWTQMyBR0DxgoTB2RzHQCMUFEBxkoTB66nDQDdng0Bl44TBujLlQLh0KEEpBLnB
trjiQE+FD0H85bHBkH8BQQvEEUGNvL3BfyZQQOOsx0BTJtfBSCuXQPFSs0CDod3Bwn5dQLwbU0De
AafB4nwVQOGpXUBdSpfBsuNNQJTCYUBsX4vBGs2QQMqciz7oLabBhTfSQBqY/D4MvbDB1aGSQNCX
j7/ga6fBBsrTQKx9Zr/jALLBFt+wQHhfjD+ov6rBuBy0QDaW2r/ETa3BVA+uQPrF5UCJp8zBrW6e
QBGyu0D8+MzBazTDQMji80AvX8PB8Pe2QPAWsUD4iLvBN/LZQJtWTUC1LJnBsBiMQDnIS0BquJjB
DqLXQEYalkC04qnBMi+rQD7ZTkBPo7TB7nPYQDY1UEBuZqXBufCuQO+3J0CNr6nBfNA+QIpdlEBX
jtTBcKu0QFo6SUALfIfBzqjbQE8xGEHrbrnBciSLQHaIqEBhAtfB2zyjQJSIokB4bcTB9TLHQB43
2UBa1LrBXsy6QHqwk0CwVrPBdLKzQEhrSED4UJPBfN2JQKhRRUBUKaPBEsxLQK2kVEBiKJPBtrn8
QGkYVEA1uJTBt1jVQPkODkFwocPBndC1QGIlQ8A/cq7BUoypQFEnAEFpIdXBVbhtQKcYOD/JuaHB
dZjqQJU3jj8GW7TBspV0QHFt37+f2qPB7UrtQHYNrb95lLbB8ObKQNmOrEAV56PB1+33QP1FoEBx
SqzBSxK/QNPKK0BxbbrBRbCJQBeOTkC4V7fBhzL0QMDNLUAesajBrtUjQEqkhkCw7NvBiKxGQELp
dUDCi87BXUcTQCIOrUD4b9HBqtCTQJTkREB2X4TBA2/HQCxaEkDdloTB1H7DQF2FgkAMsYTBZzjq
QO4JKEFEn7rBiKC8QAwGGkHBYbXBt/XwQC9FDkGQfLTBjRGHQEDawUCFCd3BI8SgQL/Aj0BPJdrB
MA9dQL6sVEDj2abBRDwUQGjkVUAEIJfBNFVMQNzGWUAOL4vB

> <OMEGA_E>
4OAGPnCFCz5Yb5c+4BydPg==

> <OMEGA_NBR>
     53115

$$$$
220590
  -OEChem-04172616093D

 51 54  0     1  0  0  0  0  0999 V2000
    5.5349   -1.8136  -21.5097 C   0  0  0  0  0  0  0  0  0  0  0  0
    6.5320   -1.0672  -22.1599 C   0  0  0  0  0  0  0  0  0  0  0  0
    4.5285    0.2430  -20.6855 C   0  0  0  0  0  0  0  0  0  0  0  0
    5.5313    1.0157  -21.3246 C   0  0  0  0  0  0  0  0  0  0  0  0
    4.5332   -1.1561  -20.7764 C   0  0  0  0  0  0  0  0  0  0  0  0
    6.5384    0.3374  -22.0771 C   0  0  0  0  0  0  0  0  0  0  0  0
    5.3772    7.3493  -25.3727 C   0  0  0  0  0  0  0  0  0  0  0  0
    5.8812    7.6899  -24.1080 C   0  0  0  0  0  0  0  0  0  0  0  0
    4.9898    6.0233  -25.6073 C   0  0  0  0  0  0  0  0  0  0  0  0
    5.7955    5.4527  -23.4851 C   0  0  0  0  0  0  0  0  0  0  0  0
    6.8291    3.1928  -19.1660 C   0  0  0  0  0  0  0  0  0  0  0  0
    4.4035    3.2190  -19.1175 C   0  0  0  0  0  0  0  0  0  0  0  0
    6.7404    4.6092  -21.2711 C   0  0  0  0  0  0  0  0  0  0  0  0
    5.3385    3.1513  -22.6248 C   0  0  0  0  0  0  0  0  0  0  0  0
    6.7791    3.1939  -20.6939 C   0  0  2  0  0  0  0  0  0  0  0  0
    5.4826    2.5530  -21.2343 C   0  0  2  0  0  0  0  0  0  0  0  0
    5.6595    3.2321  -16.9571 C   0  0  0  0  0  0  0  0  0  0  0  0
    7.2953    9.4907  -23.5872 C   0  0  0  0  0  0  0  0  0  0  0  0
    3.5215    4.5061  -26.7426 C   0  0  0  0  0  0  0  0  0  0  0  0
    6.1110    6.7321  -23.1890 N   0  0  0  0  0  0  0  0  0  0  0  0
    5.2093    5.0964  -24.6529 N   0  0  0  0  0  0  0  0  0  0  0  0
    5.9833    4.4720  -22.5402 N   0  0  3  0  0  0  0  0  0  0  0  0
    5.6346    3.1596  -18.4348 N   0  0  0  0  0  0  0  0  0  0  0  0
    4.3291    3.0448  -20.4168 N   0  3  0  0  0  0  0  0  0  0  0  0
    3.2201    3.4599  -18.4325 N   0  0  0  0  0  0  0  0  0  0  0  0
    7.9123    3.3512  -18.6141 O   0  0  0  0  0  0  0  0  0  0  0  0
    5.9576    9.0117  -23.7602 O   0  0  0  0  0  0  0  0  0  0  0  0
    4.3028    5.7244  -26.7693 O   0  0  0  0  0  0  0  0  0  0  0  0
    3.5654   -1.8676  -20.1580 F   0  0  0  0  0  0  0  0  0  0  0  0
    7.5140    1.0027  -22.7428 F   0  0  0  0  0  0  0  0  0  0  0  0
    5.1885    8.3000  -26.3156 F   0  0  0  0  0  0  0  0  0  0  0  0
    5.5387   -2.8917  -21.5735 H   0  0  0  0  0  0  0  0  0  0  0  0
    7.2983   -1.5749  -22.7269 H   0  0  0  0  0  0  0  0  0  0  0  0
    3.7516    0.7383  -20.1220 H   0  0  0  0  0  0  0  0  0  0  0  0
    6.2252    5.2958  -20.5832 H   0  0  0  0  0  0  0  0  0  0  0  0
    7.7585    4.9787  -21.4636 H   0  0  0  0  0  0  0  0  0  0  0  0
    5.8444    2.5211  -23.3711 H   0  0  0  0  0  0  0  0  0  0  0  0
    4.2767    3.2559  -22.8925 H   0  0  0  0  0  0  0  0  0  0  0  0
    7.6500    2.6540  -21.0939 H   0  0  0  0  0  0  0  0  0  0  0  0
    4.6306    3.1919  -16.5700 H   0  0  0  0  0  0  0  0  0  0  0  0
    6.2346    2.3835  -16.5581 H   0  0  0  0  0  0  0  0  0  0  0  0
    6.1322    4.1748  -16.6443 H   0  0  0  0  0  0  0  0  0  0  0  0
    7.2712   10.5550  -23.3102 H   0  0  0  0  0  0  0  0  0  0  0  0
    7.7904    8.9158  -22.7908 H   0  0  0  0  0  0  0  0  0  0  0  0
    7.8526    9.3693  -24.5277 H   0  0  0  0  0  0  0  0  0  0  0  0
    3.0213    4.3693  -27.7127 H   0  0  0  0  0  0  0  0  0  0  0  0
    4.1841    3.6499  -26.5479 H   0  0  0  0  0  0  0  0  0  0  0  0
    2.7653    4.5729  -25.9466 H   0  0  0  0  0  0  0  0  0  0  0  0
    3.4663    3.2492  -20.8793 H   0  0  0  0  0  0  0  0  0  0  0  0
    2.3531    3.4956  -18.9295 H   0  0  0  0  0  0  0  0  0  0  0  0
    3.2348    3.5978  -17.4422 H   0  0  0  0  0  0  0  0  0  0  0  0
  1  2  2  0  0  0  0
  1  5  1  0  0  0  0
  2  6  1  0  0  0  0
  3  4  1  0  0  0  0
  3  5  2  0  0  0  0
  4  6  2  0  0  0  0
  4 16  1  0  0  0  0
  5 29  1  0  0  0  0
  6 30  1  0  0  0  0
  7  8  2  0  0  0  0
  7  9  1  0  0  0  0
  7 31  1  0  0  0  0
  8 20  1  0  0  0  0
  8 27  1  0  0  0  0
  9 21  2  0  0  0  0
  9 28  1  0  0  0  0
 10 20  2  0  0  0  0
 10 21  1  0  0  0  0
 10 22  1  0  0  0  0
 11 15  1  0  0  0  0
 11 23  1  0  0  0  0
 11 26  2  0  0  0  0
 12 23  1  0  0  0  0
 12 24  2  0  0  0  0
 12 25  1  0  0  0  0
 13 15  1  0  0  0  0
 13 22  1  0  0  0  0
 14 16  1  0  0  0  0
 14 22  1  0  0  0  0
 15 16  1  0  0  0  0
 16 24  1  0  0  0  0
 17 23  1  0  0  0  0
 18 27  1  0  0  0  0
 19 28  1  0  0  0  0
  1 32  1  0  0  0  0
  2 33  1  0  0  0  0
  3 34  1  0  0  0  0
 13 35  1  0  0  0  0
 13 36  1  0  0  0  0
 14 37  1  0  0  0  0
 14 38  1  0  0  0  0
 15 39  1  0  0  0  0
 17 40  1  0  0  0  0
 17 41  1  0  0  0  0
 17 42  1  0  0  0  0
 18 43  1  0  0  0  0
 18 44  1  0  0  0  0
 18 45  1  0  0  0  0
 19 46  1  0  0  0  0
 19 47  1  0  0  0  0
 19 48  1  0  0  0  0
 24 49  1  0  0  0  0
 25 50  1  0  0  0  0
 25 51  1  0  0  0  0
M  CHG  1  24   1
M  END
> <OMEGA_C>
Tx6xQKIi6L/WE6zB4AXRQGybiL92R7HBQumQQEvWeD7+e6XBjQCxQPgCgj/MmKrBnA+RQDr7k78B
NqbB+jrRQJi/rD73nbDBYxKsQA8t60A0+8rB6jK8QNcT9kA/3cDBJayfQIu+wECp28zBn3S5QM98
rkB84bvBMIjaQINWTEAHVJnB0umMQKEETkCq8JjBQ7HXQON+k0BAK6rB59SqQHWuSUCr/7TBA+7Y
QIFoTEArjaXBfHGvQBlkI0DA36nByRq1QBXbTkAPqIfB2nLpQA3aF0GUsrzBS2BhQJkxkEDY8NXB
Wo3DQEht10AFg7nBlLKmQPIVo0ASOcXBO3e/QIMaj0BrUrTBU060QHk3SkCKepPB6oeKQMTeQkCx
VaPBXBZOQJ5vXUDDdZPBzzH9QIJ5VkCZ6ZTB7aS+QPQvEEHeFL7BpbCJQDQut0CBJ9bB/y9kQKIN
779+Q6HB7nLwQOVZgD9U8bXBGAimQJvMBEFHhtLBsjyxQPoQOcCdlqzBqovpQJSVyb+Y0LXB6Bpw
QKcDPT/c+aDBejTHQCZ3qUB5qqTBT0X4QDBRn0B+tavBhQW7QGBaIUAX+LrBwtqIQKJgUEDtI7fB
m8z0QLraKUBewKjBOC6UQB9ITEBrj4TBH4LHQOuLGEAId4TBDjvEQEqYhUBvJ4XByq3oQFXhKEFD
e7rBuUr5QBSnDkF5U7bBhkj7QKXoFUHTOMTBrV1BQBTRi0Cms93BTOSFQKyXaUAXYtTBw/owQHRV
kkCJks/BQthdQInyT0DXCKfB3JgWQCq3X0CQb5fBGwdPQNBCZkCMiYvBC+CyQLI55L8C/avB8K3S
QGFwg7++IrHBE56RQC7Thz5QjqXBXaKxQEhKhj/bm6rB4D+SQCQ5kb83QqbBLUDSQDTdwT5ijbDB
OAatQPZc6kBewsvBeQSfQAMdwEB+9MzBBPG+QPAd90A4+cHBm/+3QErwsEBTsLvBxEzaQFtvS0AD
NJnBC6iMQPQkTUD735jBpCPXQLqGlUDX3anBilWrQOkaTUCj4rTBFuLYQFEeT0Cqc6XB5rSvQOay
JUDL16nBJGm0QJIWSUBOi4fBgNZiQGGQjUB8y9XBpcvkQPtrFkF4MLjB1sCkQCY+pEBI3cTBpa3E
QB7n2UAIDbrBBza9QBodkkBr17PBj/KzQKJRSEDzYpPBu5CKQNcsREAYTqPBoC1NQK5ZWkBcY5PB
jCn9QDkTTkAQuJTB7UGKQHCTtEDBSdbBx9LHQLEJEUE2ssDBIk9mQBB37b83caHBxETxQG6Shj9I
4rXBQN2nQIl3A0HeydPBeoKzQNAgN8Cdb6zBhaLrQD+Iw79okrXB6ttwQDPOQD8yHKHByKXHQNYf
q0DhGKTBuoT3QO5PoUAXqqvBfYa9QPvgJ0Bpz7rBR4GJQNvgT0DbSrfB//H0QJnjLUCIw6jBU2GT
QEhIRkDYhYTBcWfGQE1bEUBbmYTBzs3DQGIZgkCStYTBTt5EQJSUh0Cqnd3BU4aGQDxAZUAavNPB
TdEwQOzPkEDsp8/BKGHpQJ/dJ0Hq9LfBTGvXQG/5EEHKhLDBsOMBQRGLDkGTk7nBnT1eQPc7UkBK
BqfBMcwVQBi9XEABY5fBsbpNQPN4YUAocIvB6va2QGIy5b/dnKzBHk2UQGSWnL8LFqfBSUvTQA4u
3T6XCrDBU86wQK63gz8baKrBtFTWQJjldb8GJLHBv6qQQAw8MT7JAKbByrKrQOCg6kC/UsvBU/O9
QH509kA6gcHBIl2eQLg+wEAgx8zBvlS4QGukr0ChsbvBmgjaQIn5SkDFMpnBSGeMQClzUECo/ZjB
DyXYQJsRlEDCCqrBzHGsQCrDSUDi9rTBuM3YQArRTECMcaXB+RuvQPSgJEBEwKnBM/KzQFa8S0Cg
l4fB2VftQNexFEHh3bnB5K5dQIBsj0BxitXBE3zEQMyM2ED10rnBJAGlQPuJo0Dl58TBwtO9QKOc
kEB077PBgIuzQMIZSkBzbpPBBoKKQK1NR0BXbKPBQGtMQKBiXkDNlpPB6NH8QCySTUA3rZTBAwPH
QLCGEEEp3L/Bb2WJQLpItUBrHtbBXXr3QO/Tv7/xlrbB11dbQL1mIz/11KDBC0SmQLT4A0HZK9PB
Mnu5QFVDN8CWYK3By154QJK+7r+roaPB0qLrQIPVhz+hi7PBMmvJQIt2qkBhVqTBrsL4QAHfnkCJ
9KvBhca/QI/KI0D3lLrB+w2LQHuQS0CqvbfB3H30QEjNKUDlqajBod+SQAK4SkD+lITB+UHFQHtk
E0AUk4TBWwTEQOUng0Dk0YTBtrLxQIwSJkH9/rjBgbHqQDhTDUEg57HBe38EQYzfDUFwHL7B+I8/
QKa0iUB6Xd3B57CCQMNgZ0ArXdPB/7krQB4WlEBvc8/B7mBfQM4aWEDBP6fBQVQVQIYfYUCBpZfB
dH5MQAavZUAqpIvB+pK7QN7K6L81ZKzBVvWYQOIGpb9qmabBfPrTQAb+3D7pYrDBiYaxQN09fT9H
eqrBLs7YQOyhdL9UZLHBM0eTQJBU0T0GtqXB+6mzQHxF6UALNsvB//6dQG8YwkD+f8zBzeTJQAjR
8EDej8HBhRC1QLMMrkAFb7vBVW3ZQO2hTkCrcJnBwMeLQNekT0C9B5nBBHHXQF4ekkC5nKrBhySq
QIZcRkBj/LTBQMrXQAo1S0C6oqXBgh+uQISEIUBiy6nBrgm0QGsmUECdxIfBJTZnQH3LkEDN0NbB
eXzMQCS6HUHa1b7B+zKfQIcPpUAhgMTBoKrJQBxG00AD2LnBGKO4QBpvj0CIprPBZTqzQDcETUBK
lpPBK1GJQNeJQkBYYqPBOKpLQOc8XkCLjJPBExn8QCwjWkA2FJXBMzmJQNG4uUC2EdbBbnjjQH38
CUHnG8DBHXX5QBRaur/OPrfB6WFgQLTMCD+bZaDBo0e0QFQiA0H8PNPBaq6/QEPbOMCk/qzBA3uC
QHaI+r81yqLBAN3qQJlJiz/3K7TBHs/MQHkPqkAAvKTBcYT3QGuimkCfi63BlLS+QGOdI0Dop7rB
WMmIQEUpREB8yLfBBXbzQFIDJ0Cmp6jBNheTQGM/TkD1rYTBD//FQG3dGEB6roTBDKTDQNrVhUCn
JYXBc89IQFPQjUC+t97Bz/6KQKGsbUAJwNXBPAU2QNKpjkD7itDBCFXjQNPtKkEKuL3BKgu5QJu/
IEGRA8bB33e3QAafHEFJzLfBYXtbQAQlT0DYH6fBEwAUQJh8XkAmf5fBmKpMQBSAaEBMp4vB

> <OMEGA_E>
aLMWPqAEGj7QeS0+cAU+Pg==

> <OMEGA_NBR>
     56849

$$$$
220596
  -OEChem-04172616093D

 50 53  0     1  0  0  0  0  0999 V2000
    6.6751   -1.0391  -22.1276 C   0  0  0  0  0  0  0  0  0  0  0  0
    4.6457   -1.2470  -20.8162 C   0  0  0  0  0  0  0  0  0  0  0  0
    5.5341    0.9938  -21.3236 C   0  0  0  0  0  0  0  0  0  0  0  0
    5.7090   -1.8408  -21.5070 C   0  0  0  0  0  0  0  0  0  0  0  0
    6.5951    0.3608  -22.0505 C   0  0  0  0  0  0  0  0  0  0  0  0
    4.5391    0.1505  -20.7287 C   0  0  0  0  0  0  0  0  0  0  0  0
    5.4716    7.3333  -25.4165 C   0  0  0  0  0  0  0  0  0  0  0  0
    6.0820    7.6631  -24.1876 C   0  0  0  0  0  0  0  0  0  0  0  0
    4.9614    6.0338  -25.5929 C   0  0  0  0  0  0  0  0  0  0  0  0
    5.7258    5.4827  -23.4525 C   0  0  0  0  0  0  0  0  0  0  0  0
    6.8099    3.1996  -19.1658 C   0  0  0  0  0  0  0  0  0  0  0  0
    4.3882    3.2417  -19.1255 C   0  0  0  0  0  0  0  0  0  0  0  0
    6.7251    4.6174  -21.2741 C   0  0  0  0  0  0  0  0  0  0  0  0
    5.3302    3.1482  -22.6241 C   0  0  0  0  0  0  0  0  0  0  0  0
    6.7607    3.2013  -20.6929 C   0  0  2  0  0  0  0  0  0  0  0  0
    5.4648    2.5477  -21.2337 C   0  0  2  0  0  0  0  0  0  0  0  0
    6.5708    9.0687  -23.9202 C   0  0  0  0  0  0  0  0  0  0  0  0
    5.6389    3.2220  -16.9592 C   0  0  0  0  0  0  0  0  0  0  0  0
    3.5787    4.4513  -26.7665 C   0  0  0  0  0  0  0  0  0  0  0  0
    6.1927    6.7299  -23.2224 N   0  0  0  0  0  0  0  0  0  0  0  0
    5.1052    5.1336  -24.6015 N   0  0  0  0  0  0  0  0  0  0  0  0
    5.8831    4.5090  -22.4932 N   0  0  3  0  0  0  0  0  0  0  0  0
    5.6152    3.1731  -18.4375 N   0  0  0  0  0  0  0  0  0  0  0  0
    4.3216    3.0748  -20.4263 N   0  3  0  0  0  0  0  0  0  0  0  0
    3.1975    3.4624  -18.4463 N   0  0  0  0  0  0  0  0  0  0  0  0
    7.8970    3.3145  -18.6108 O   0  0  0  0  0  0  0  0  0  0  0  0
    4.2964    5.7130  -26.7658 O   0  0  0  0  0  0  0  0  0  0  0  0
    5.7897   -3.1859  -21.5925 F   0  0  0  0  0  0  0  0  0  0  0  0
    7.5479    1.0635  -22.7101 F   0  0  0  0  0  0  0  0  0  0  0  0
    3.4479    0.6251  -20.0855 F   0  0  0  0  0  0  0  0  0  0  0  0
    5.3481    8.2549  -26.3988 F   0  0  0  0  0  0  0  0  0  0  0  0
    7.4874   -1.5008  -22.6693 H   0  0  0  0  0  0  0  0  0  0  0  0
    3.8997   -1.8703  -20.3458 H   0  0  0  0  0  0  0  0  0  0  0  0
    6.2771    5.3195  -20.5556 H   0  0  0  0  0  0  0  0  0  0  0  0
    7.7394    4.9551  -21.5331 H   0  0  0  0  0  0  0  0  0  0  0  0
    5.9052    2.5637  -23.3575 H   0  0  0  0  0  0  0  0  0  0  0  0
    4.2746    3.1852  -22.9312 H   0  0  0  0  0  0  0  0  0  0  0  0
    7.6333    2.6622  -21.0905 H   0  0  0  0  0  0  0  0  0  0  0  0
    6.9762    9.1285  -22.8994 H   0  0  0  0  0  0  0  0  0  0  0  0
    7.3588    9.3265  -24.6431 H   0  0  0  0  0  0  0  0  0  0  0  0
    5.7331    9.7740  -24.0239 H   0  0  0  0  0  0  0  0  0  0  0  0
    4.6089    3.1913  -16.5742 H   0  0  0  0  0  0  0  0  0  0  0  0
    6.2005    2.3586  -16.5728 H   0  0  0  0  0  0  0  0  0  0  0  0
    6.1253    4.1524  -16.6309 H   0  0  0  0  0  0  0  0  0  0  0  0
    3.0938    4.3052  -27.7430 H   0  0  0  0  0  0  0  0  0  0  0  0
    4.2842    3.6281  -26.5808 H   0  0  0  0  0  0  0  0  0  0  0  0
    2.8140    4.4642  -25.9758 H   0  0  0  0  0  0  0  0  0  0  0  0
    3.4711    3.3100  -20.8967 H   0  0  0  0  0  0  0  0  0  0  0  0
    2.3331    3.4894  -18.9484 H   0  0  0  0  0  0  0  0  0  0  0  0
    3.2043    3.5943  -17.4551 H   0  0  0  0  0  0  0  0  0  0  0  0
  1  4  1  0  0  0  0
  1  5  2  0  0  0  0
  2  4  2  0  0  0  0
  2  6  1  0  0  0  0
  3  5  1  0  0  0  0
  3  6  2  0  0  0  0
  3 16  1  0  0  0  0
  4 28  1  0  0  0  0
  5 29  1  0  0  0  0
  6 30  1  0  0  0  0
  7  8  1  0  0  0  0
  7  9  2  0  0  0  0
  7 31  1  0  0  0  0
  8 17  1  0  0  0  0
  8 20  2  0  0  0  0
  9 21  1  0  0  0  0
  9 27  1  0  0  0  0
 10 20  1  0  0  0  0
 10 21  2  0  0  0  0
 10 22  1  0  0  0  0
 11 15  1  0  0  0  0
 11 23  1  0  0  0  0
 11 26  2  0  0  0  0
 12 23  1  0  0  0  0
 12 24  2  0  0  0  0
 12 25  1  0  0  0  0
 13 15  1  0  0  0  0
 13 22  1  0  0  0  0
 14 16  1  0  0  0  0
 14 22  1  0  0  0  0
 15 16  1  0  0  0  0
 16 24  1  0  0  0  0
 18 23  1  0  0  0  0
 19 27  1  0  0  0  0
  1 32  1  0  0  0  0
  2 33  1  0  0  0  0
 13 34  1  0  0  0  0
 13 35  1  0  0  0  0
 14 36  1  0  0  0  0
 14 37  1  0  0  0  0
 15 38  1  0  0  0  0
 17 39  1  0  0  0  0
 17 40  1  0  0  0  0
 17 41  1  0  0  0  0
 18 42  1  0  0  0  0
 18 43  1  0  0  0  0
 18 44  1  0  0  0  0
 19 45  1  0  0  0  0
 19 46  1  0  0  0  0
 19 47  1  0  0  0  0
 24 48  1  0  0  0  0
 25 49  1  0  0  0  0
 25 50  1  0  0  0  0
M  CHG  1  24   1
M  END
> <OMEGA_C>
PprVQFQChb9PBbHBuKmUQHCdn7+qh6bBhhexQF1sfj/FlqrBYLC2QK2f679lDqzBYQvTQH3AuD5b
Z7DBRUCRQBYeGj5K1KXBSRevQP2p6kDoVMvBnJ/CQBA49UAxgMHBCsSeQP4UwUA6vszBJzq3QEhy
r0DQnrvB+erZQNPFTEB1U5nBVmyMQMp3T0D2AJnBzjPXQJTBk0BsMarBN5GqQD58SUAk/rTBxFfY
QOLhTEAAi6XB+9+uQFsNI0Cs3qnBQETSQGcZEUGWXL/Bt3G0QIc0TkBbrIfBnwhlQCVxjkC8IdbB
iyrGQL9b10CTx7nB6l2jQEJGpEDZz8TBa0K8QJhJkEAY8rPBs6+zQN4TS0AZgJPB2kqKQPTJREAk
aaPBu6NMQJmXXUAGkpPBh7T8QEIgVEDa4pTBF3yJQIzQtkBXINbBlkW5QHvlS8B+vazBmYjxQC8f
iD9UrrXBfqpcQNcGID8cr6DBhSOrQA0UBEGtMNPBfZjvQMIYwL/SWrXBRZR5QP9l7784xKLBQt7I
QJc5qkDOcaTBS6n3QBGQnkDLQ6zBC/e8QD4UJEAb3LrBlsmIQLLaS0ALc7fBoEP0QA5iKkBOuajB
nzzfQHUOEkHiMbfBhnvrQCg5FUEkJcXB2nW3QIFiHEHzMMDBEnyTQJE9TED6l4TBGmrGQDzzFkAp
lYTBSALEQEDghEAhDIXB4ABGQFrEiUCj8d3BcRiJQO4yaEBjpdTBDxg0QNLajkCHzs/BGSZeQKnX
U0BmLKfBb1EVQDVSX0BKlpfBOxNNQC4JZkD5o4vBqHaUQJcgnr+gmKbBmsvVQJgtg7/E7bDBIP+w
QEHYgD8RkarBZsi2QCD26b+9BKzBuO+QQOUDJj4o6qXB7CrTQPz3vz7TT7DBetGuQPPD6kA2Z8vB
aN3BQMek9UCdiMHBPvaeQPcAwUD70MzBFsy2QArdr0ArnLvBvgjaQDSzTEC+W5nBQIuMQAR/T0DJ
6JjBSHPWQI5tlEDUHKrBVD+qQClESkBL9rTBeB3YQFv1TUDdj6XBAquuQFrcI0Cs2KnBKoXRQHxV
EUGVdL/Bite0QLFGTECxpYfBsPZnQPOejUAKT9bByG7FQI7n10CXx7nBRlqjQJ9qpEDr1MTBrs67
QAzHkEAo6rPBoO6zQCCwSkD1eZPBgCuKQP11RUB6U6PBEjpNQMHqXEAHX5PBQgf9QIfqUUCL+ZTB
ZpyKQDMwtkCwSdbBAJq5QDQRS8CZo6zBjm9bQGHYIj+35KDBXMbxQBH6iT8wirXBnPuqQMUJBEH5
TtPBLud4QLEJ7r8i5qLBs+vvQLAdvr+LOLXBDKDHQNt/qkCEWKTBaMv2QA3Kn0ATHKzBua+8QMoA
JUDT1brBF3SIQE9nTEDwaLfBpQz0QEsdLEAZ2KjBJIjeQFVfEkGSS7fB8bTqQHFmFUHLQcXBvbW2
QHycHEH2TcDBM+qTQEdISkDbi4TBeLHGQJhtFEDCroTBOJvEQGymg0Dh6YTBSGRKQLF6iEDMMN7B
M6SKQLgSZ0DPoNTBWOs1QNcYjkDbHtDBd9FdQI3fVEDnC6fBsZgVQD6qXkAMUpfB1DlOQIPVZEAC
b4vB+W2RQE6ylb+azajBGdrUQMAwdb88Q7LB62qyQF3Uhj+Nw6rBlYCzQJC84L/5XK7B4ziQQFB8
Xj7RE6fB5J/UQKQm3D5KkLDBjeyoQGl75UCVNszBh5mbQP2jukDJqczB9lG9QLlj9ECj4MLBVJW4
QEWbr0CJqbvBQ//ZQHZOTUBKvpjBp4CMQPi+T0DN6pjB0WfYQB4zlkDGl6nBd3atQHrATEDDlrTB
J9fZQB6RUECpAqXBzeawQAaDJkBNlanB1u2AQIDAqUB919XBp0eyQH4+REAKYIfBu4LgQDKGFkEz
YbnBVFijQFn0oEBGXcTBvHnFQEfI2EAcuLrB2IW+QCsXkkAxlLPB0RSzQDqeSEAFMZPBTq+LQCoI
SEDGWqPB2KVLQIojXUDTtpPBulb8QNz1T0AWBJTBghHGQJHVD0GENcLBUNKzQLugRcAiHLDBiNFZ
QCDIMT8yHqLBFh71QBtZkT9NAbXBTIChQBYnAEEXf9TByZ9vQEEv5b+iz6XBfO7uQMLctL+Km7bB
TO7IQKs3rECt66PBXNn4QOm/oUDyaavBe4TAQCCUJ0DXWLrB/t+LQM5ZTkDMNrfBZS/2QIQZL0AC
IajBqqZuQOaQiEDCJ9TB0WZIQFa8vUAtytbBUN6TQBmvqkB3Qd3Bi+yQQNXyQEA0mITBW6XDQIvg
CkCPsoTBb6/BQDinfUC+CoTBjSblQCr1J0FCt7nBfdDQQIg7EkELzbHB3ML/QF18DkHn4LnBymFi
QKszWUBqS6fBiFkVQHqTYEBT7ZfBBztKQPpYY0D9wIvBAwvWQL4abr9BOLLBG6mTQFHilb+eXKjB
svmyQJD/iD/Os6rBPJe1QIMq37+SD67BZhXVQPhc6z7yobDBD8iRQLCXXT4ItqbBC56rQEKL5EBW
s8zB8KqbQCmTukBKxMzBoz3BQLpn80CdhsPBBiW3QFl1sEBpj7vB8djZQCQiT0DmuZjBhTiMQKhr
UUAe25jBEy3YQDoQl0CWo6nB/AatQDBzTkAaeLTBt5vZQFRAUkBP/qTB39CwQK6iJ0CXgqnBRKCA
QLLvqUAj6NXB+CmyQJx7RUCTVofB8RvgQMCXFkG/fLnBzZqhQNKyoUB5NsTBgsnGQBzM2EBWBrvB
Tam7QIa2k0DFN7PBKveyQAz6T0CNHZPBFWmLQAgWSED8RaPB411KQKC2WkBqrpPBhVD8QBbqS0CF
D5TBv5fPQMGlDkG3g8PBksi2QPQMRcCXna/BUxv1QAyBlj8TLbXByftdQLRwLD/TaqHBUXmlQMaW
/kAtNNXBTf/vQJb3r78arrbBB1J1QHbU5r9tM6XBD8rKQAKSrUAywqPB7mX4QLiuoUD/+6vBj2zB
QEoELEDCNLrBep6LQPu8TECUO7fB8/z1QJLWMEDcGajBHUFqQJuQiUDw/NPBUi5KQItPv0B1IdfB
AQCUQG7YqEC2P93BC+KQQCn3R0A1fYTBCFrAQLRiB0AIMYXBc6zEQFVNeUBQloPBtnPqQHpMJ0Fm
errBGOzGQJLEFUGLWrPBBYr7QBjDDEGJ/LbBrj5hQINUV0B6NqfBUfwTQBIbWkAQ5pfBtINIQKID
YkCmvIvB

> <OMEGA_E>
QCYHPYD9CT2ocII+dCaEPg==

> <OMEGA_NBR>
     60531

$$$$
220594
  -OEChem-04172616093D

 53 56  0     1  0  0  0  0  0999 V2000
    5.6455   -1.7839  -21.4546 C   0  0  0  0  0  0  0  0  0  0  0  0
    6.6158   -1.0210  -22.1251 C   0  0  0  0  0  0  0  0  0  0  0  0
    4.5860    0.2565  -20.6562 C   0  0  0  0  0  0  0  0  0  0  0  0
    5.5613    1.0453  -21.3166 C   0  0  0  0  0  0  0  0  0  0  0  0
    4.6299   -1.1431  -20.7253 C   0  0  0  0  0  0  0  0  0  0  0  0
    6.5812    0.3837  -22.0675 C   0  0  0  0  0  0  0  0  0  0  0  0
    5.4081    7.3458  -25.4055 C   0  0  0  0  0  0  0  0  0  0  0  0
    5.9468    7.6905  -24.1478 C   0  0  0  0  0  0  0  0  0  0  0  0
    4.9638    6.0285  -25.6061 C   0  0  0  0  0  0  0  0  0  0  0  0
    5.7938    5.4681  -23.4923 C   0  0  0  0  0  0  0  0  0  0  0  0
    6.8106    3.2238  -19.1624 C   0  0  0  0  0  0  0  0  0  0  0  0
    4.3809    3.2614  -19.1299 C   0  0  0  0  0  0  0  0  0  0  0  0
    6.7329    4.6412  -21.2699 C   0  0  0  0  0  0  0  0  0  0  0  0
    5.3392    3.1734  -22.6241 C   0  0  0  0  0  0  0  0  0  0  0  0
    6.7724    3.2289  -20.6890 C   0  0  2  0  0  0  0  0  0  0  0  0
    5.4845    2.5800  -21.2333 C   0  0  2  0  0  0  0  0  0  0  0  0
    7.7575    9.3904  -24.1166 C   0  0  0  0  0  0  0  0  0  0  0  0
    5.6190    3.2651  -16.9591 C   0  0  0  0  0  0  0  0  0  0  0  0
    3.5465    4.4554  -26.7441 C   0  0  0  0  0  0  0  0  0  0  0  0
    6.2857    9.1207  -23.8075 C   0  0  0  0  0  0  0  0  0  0  0  0
    6.1631    6.7364  -23.2247 N   0  0  0  0  0  0  0  0  0  0  0  0
    5.1727    5.1130  -24.6403 N   0  0  0  0  0  0  0  0  0  0  0  0
    5.9814    4.4947  -22.5421 N   0  0  3  0  0  0  0  0  0  0  0  0
    5.6107    3.2906  -18.4408 N   0  0  0  0  0  0  0  0  0  0  0  0
    4.3185    3.0599  -20.4260 N   0  3  0  0  0  0  0  0  0  0  0  0
    3.1802    3.4277  -18.4526 N   0  0  0  0  0  0  0  0  0  0  0  0
    7.9015    3.2388  -18.6035 O   0  0  0  0  0  0  0  0  0  0  0  0
    4.2607    5.7176  -26.7579 O   0  0  0  0  0  0  0  0  0  0  0  0
    3.6886   -1.8718  -20.0869 F   0  0  0  0  0  0  0  0  0  0  0  0
    7.5328    1.0644  -22.7527 F   0  0  0  0  0  0  0  0  0  0  0  0
    5.2676    8.2695  -26.3838 F   0  0  0  0  0  0  0  0  0  0  0  0
    5.6801   -2.8624  -21.4997 H   0  0  0  0  0  0  0  0  0  0  0  0
    7.3931   -1.5162  -22.6881 H   0  0  0  0  0  0  0  0  0  0  0  0
    3.8004    0.7391  -20.0937 H   0  0  0  0  0  0  0  0  0  0  0  0
    6.2124    5.3288  -20.5871 H   0  0  0  0  0  0  0  0  0  0  0  0
    7.7506    5.0130  -21.4594 H   0  0  0  0  0  0  0  0  0  0  0  0
    5.8463    2.5423  -23.3688 H   0  0  0  0  0  0  0  0  0  0  0  0
    4.2772    3.2754  -22.8921 H   0  0  0  0  0  0  0  0  0  0  0  0
    7.6478    2.6917  -21.0826 H   0  0  0  0  0  0  0  0  0  0  0  0
    7.9999   10.4339  -23.8670 H   0  0  0  0  0  0  0  0  0  0  0  0
    8.3874    8.7149  -23.5192 H   0  0  0  0  0  0  0  0  0  0  0  0
    7.9452    9.2164  -25.1864 H   0  0  0  0  0  0  0  0  0  0  0  0
    4.5864    3.3268  -16.5850 H   0  0  0  0  0  0  0  0  0  0  0  0
    6.0795    2.3287  -16.6111 H   0  0  0  0  0  0  0  0  0  0  0  0
    6.1975    4.1209  -16.5810 H   0  0  0  0  0  0  0  0  0  0  0  0
    3.0286    4.3161  -27.7046 H   0  0  0  0  0  0  0  0  0  0  0  0
    4.2596    3.6324  -26.5895 H   0  0  0  0  0  0  0  0  0  0  0  0
    2.8094    4.4602  -25.9276 H   0  0  0  0  0  0  0  0  0  0  0  0
    5.6569    9.7972  -24.4049 H   0  0  0  0  0  0  0  0  0  0  0  0
    6.0991    9.2957  -22.7376 H   0  0  0  0  0  0  0  0  0  0  0  0
    3.4528    3.2349  -20.8951 H   0  0  0  0  0  0  0  0  0  0  0  0
    2.3149    3.3916  -18.9526 H   0  0  0  0  0  0  0  0  0  0  0  0
    3.1808    3.5836  -17.4649 H   0  0  0  0  0  0  0  0  0  0  0  0
  1  2  2  0  0  0  0
  1  5  1  0  0  0  0
  2  6  1  0  0  0  0
  3  4  1  0  0  0  0
  3  5  2  0  0  0  0
  4  6  2  0  0  0  0
  4 16  1  0  0  0  0
  5 29  1  0  0  0  0
  6 30  1  0  0  0  0
  7  8  1  0  0  0  0
  7  9  2  0  0  0  0
  7 31  1  0  0  0  0
  8 20  1  0  0  0  0
  8 21  2  0  0  0  0
  9 22  1  0  0  0  0
  9 28  1  0  0  0  0
 10 21  1  0  0  0  0
 10 22  2  0  0  0  0
 10 23  1  0  0  0  0
 11 15  1  0  0  0  0
 11 24  1  0  0  0  0
 11 27  2  0  0  0  0
 12 24  1  0  0  0  0
 12 25  2  0  0  0  0
 12 26  1  0  0  0  0
 13 15  1  0  0  0  0
 13 23  1  0  0  0  0
 14 16  1  0  0  0  0
 14 23  1  0  0  0  0
 15 16  1  0  0  0  0
 16 25  1  0  0  0  0
 17 20  1  0  0  0  0
 18 24  1  0  0  0  0
 19 28  1  0  0  0  0
  1 32  1  0  0  0  0
  2 33  1  0  0  0  0
  3 34  1  0  0  0  0
 13 35  1  0  0  0  0
 13 36  1  0  0  0  0
 14 37  1  0  0  0  0
 14 38  1  0  0  0  0
 15 39  1  0  0  0  0
 17 40  1  0  0  0  0
 17 41  1  0  0  0  0
 17 42  1  0  0  0  0
 18 43  1  0  0  0  0
 18 44  1  0  0  0  0
 18 45  1  0  0  0  0
 19 46  1  0  0  0  0
 19 47  1  0  0  0  0
 19 48  1  0  0  0  0
 20 49  1  0  0  0  0
 20 50  1  0  0  0  0
 25 51  1  0  0  0  0
 26 52  1  0  0  0  0
 26 53  1  0  0  0  0
M  CHG  1  25   1
M  END
> <OMEGA_C>
uae0QDpW5L//oqvBnbTTQDewgr8fALHBe8CSQDlVgz79P6XB/fWxQKnMhT9diKrB0SeUQPlQkr9u
zaXB0pjSQJ52xD42irDBNQ+tQOUQ60CKPsvBTEy+QGsY9kCyLsHBZNeeQEzpwEBJ2czBHme5QL/6
rkA38LvBSPDZQIdSTkCiTJnBZDCMQO+6UEAUCpnBr3PXQHmElEDVKKrBktqqQHcYS0Av/rTBI7fY
QBanTkAQg6XB2YCvQL4eJUDd3anBwz34QC4/FkHh7sDBjs6zQNf3UEAmrIfBH/liQNGSjkD689XB
lyTJQFDuEUGtdb7BADjFQPuQ10AjzLnBmIalQLCdo0BCH8XBeme/QIXUj0BOVrTBB4uzQFKZUkCx
hpPBxzCKQAzVQ0BvaKPBoohLQI1fW0D4npPB2dj8QAdIT0De05TBu1eIQMj2tkAjENbBFBJsQP2X
77/rsaDBuAzxQJ88iD+bBbbBMJCoQMJPBEEcEtPBZMO1QFExN8BK/6vBIpTsQG4Rwr9LgbXBazpz
QHoyPT/mv6DBOszGQLyFqkBfsqTBQAX4QJlqoEDCrKvBFBW7QGy1IkBY87rBAt+IQMmfUUAbI7fB
Brv0QO9ELEAlqajBVP//QHPxJkGm777BpjIGQQdwC0FaJ7zBQT/+QD52E0HWfcnBa8OSQCTqVEAX
roTBlIvCQB8KFUCW44TB0FHGQHTeg0DQpYTBs9RBQFAdikDtot3BAE+IQIZ4aEAzt9TBAc0zQEG6
jkC9a8/BowW1QInBHEEpPcPBrSvDQFK7FEGt5rXByfpcQO4HT0AcKafB+ScUQDUPWUD0npfB0ZFL
QBxaZUAEuIvBaja2QHJC5b+02azBH66TQG4jnb9UPafBNbPSQFbZ3D4SILDBAFmwQB8Agz+LaKrB
Q37VQJ5Odb9MYrHBEhCQQNv3Kz7yGKbBMlSsQPLn6kDw98rB+q28QHGw9UDnzcDBdhyfQASUwEAN
yczBH1m4QOZOrkCgxbvBCEzaQAVzTECoUJnBxaGMQHLPUEAF6JjBNvXXQMBEk0CGParBQ1CrQK9h
SEDs9rTB3Y/YQHwvTEBkiKXBw56uQB4BJEAouanBkdf0QAPtFkEGbcDBihC1QKNtUEC6oIfBD7Bj
QBxLj0AANNbBpy/GQDHBEUGP273BNazDQHTp1kDbf7nBmU6lQM4Ko0DwE8XB4gu+QHI2j0B6JbTB
eRK0QCoyTEAWc5PB/0iKQDHQRkBjUaPBtzlNQI+NXkD0a5PB0zv9QJ0OUkCi6JTBGmSKQJOetkAs
P9bBtyv2QMyhvr+ODLfB1bVZQPp7Ij/HBaHBS5mnQPBsBEGVsdLBy6+4QLxBN8CSrK3BvVZ3QPma
77+cxKPBVR/rQEkNiD8XkbPBYvvIQNDnqUAco6TBNZv4QAYRnkCzHqzB2HW9QCTYIEDaqLrBW6+J
QHAGTEA8hrfB1hL0QPmFKECAvKjBf6T7QB2lJ0H5Q77BUfUEQRY8DEHo1LvBKZP6QPqdFEEDCMnB
CyeUQEyHT0BQgoTBjMTGQJsNGUCfeYTB/AXFQPbshUCtG4XBY75FQNGlikAQFd7BzS6HQBZbaECT
dtTBkqwxQH0vkUApB9DB9COxQNd1HEGec8LBbXvAQPMTFEGEQLXB53teQC0SV0DGFKfB9sYVQDqE
YEDEaJfBVehNQMp8ZkDfe4vBNZSyQHoE4b/KIa3BahfSQNe0er+1K7LB+meRQAKOhT57GabBGECx
QBKJiD9X/KrBRyGSQJpNkb/wKafB3qjRQL5u2D5LM7HBYiKuQBgq5kCak8zBeESgQNKAu0AMHM3B
o5bAQMIZ9UD8A8PBTkO3QDcfsUDQh7vBdCLaQJ27TECcOZnBjHiMQAvZS0C3upjB01vXQJr+lUDS
46nB1CaqQFepT0ChnLTBQX7YQKnXT0BIc6XBACWvQIaKJkAXy6nBwk9IQH4aj0ABhtTBlPS0QE9i
SEBHhIfBSIrgQOD2FkHQ5rjBeOOMQCGtqEBLL9fBhY2lQNQOokCGocTBfB7FQLsI2kBnjrrBSsq5
QKgTlEA3N7PBbP+zQOnJR0DOWJPBLwqKQIkvQ0AtJaPBCR1NQF93WEC8J5PB8uj8QOlIVECxyZTB
HwLNQCLFD0GcsMLBjHpmQIZD8L9weqLBYYzwQJDpjj9maLbBh+2pQFZWAEH5ENXBakyzQKBgNcCD
2K3BSdPqQPbcur910rbBbItwQIyGOj/Ef6HBoSvLQMxVrEByz6PBL373QIUgoEDCb6zBA229QDqw
LUChoLrB9V2IQH6dT0AFFbfBV2X0QDsOLkAlwqjB5jUtQL66gUDW7NvBEmJYQAXSaUCm/87Bjh0Z
QB1lpEDWvdDBVhiUQAUMRECtaITBeLHHQAxtEUCmooTBTs3DQNEPgkCytITBOvPoQFb+J0G1n7nB
5fDJQM/SFEGAPbLBkqj9QPGRDUF9W7fBY7SEQITCwkB4utzBpVakQGlGk0BI/NrBI5hcQAc+UEBu
yKbB7nIVQHKrWkDrF5fBWCtOQKZZX0DlM4vB5kW3QP6O4r/ecq3BixeWQLcbnb+PPqfBz2XSQKz1
7z7N1rDBEQixQIpyhT+QpKrBWVjVQDSFa7/fRbLBYHySQABKKD4/1aXB0GGrQH4e50AFIMzB10+f
QNrwu0Be9szBovu9QHB19UC9hMLBC4S3QAo3sEAtkLvBQuTZQCX0SkDlNZnBoTyMQOOLUEBN8ZjB
ONnXQBbxlEB46qnB1OmrQAkjTEBIxrTB/pLYQA/VTUDlbqXBFvGuQDN1JUCNuKnBDuo4QIIxnEDT
fNTB6fazQMz2SUBcmIfBCrrfQEiOFkHHWrjBBrSKQG66qUAU7dbBHFWlQFzCoUADqcTB3C3EQCpp
2UDxVLrBULC7QG5XkkAefLPBMXCzQJ2MSUBUbZPBiSWKQPS/RkA6W6PBRlNMQEnzXkCsgZPB37T8
QCvQTUAltZTBocbIQFAlEEGJ0sHBKRT1QC7Nt79aWbjB9E9iQIpKGj+M5J/BS3qlQOxJAUHhXNTB
Naa5QOu2NcCnga7BHC5+QCFH8b/bg6PB1e3pQBhpjj+eg7TBfJfKQE1Uq0Af/aPBaED4QPNHn0Cm
LqzBDg/AQK6QKEBNdbrBR5WKQH4DTEC5mrfB4Er0QCVGK0CotqjB+GEbQI3+jkA2w9vBJvo4QGOz
g0DRKs7BuCUUQBcyuECsyNHBYeySQGKxSECdkITBfkjFQCFJEUAEroTBFxfEQH8cgkBJvYTBGnTm
QObQJ0EmuLjBdjbMQBIUE0FyPbHBoQr+QLCpDUFr37fBWZyKQBcxwkDiQN3BkQadQGOyjUAGo9nB
gw5eQHUWVkBiJafBqxMVQEGGYUAliJfBtLtMQOi/ZkD6kIvB

> <OMEGA_E>
sKoXPjBaLT74z58+sFCpPg==

> <OMEGA_NBR>
     64369

$$$$
220595
  -OEChem-04172616093D

 53 56  0     1  0  0  0  0  0999 V2000
    4.5378    0.2426  -20.6681 C   0  0  0  0  0  0  0  0  0  0  0  0
    4.5576   -1.1569  -20.7396 C   0  0  0  0  0  0  0  0  0  0  0  0
    6.5323   -1.0626  -22.1594 C   0  0  0  0  0  0  0  0  0  0  0  0
    5.5239    1.0170  -21.3332 C   0  0  0  0  0  0  0  0  0  0  0  0
    5.5557   -1.8090  -21.4795 C   0  0  0  0  0  0  0  0  0  0  0  0
    6.5254    0.3412  -22.0956 C   0  0  0  0  0  0  0  0  0  0  0  0
    5.4371    7.3456  -25.3837 C   0  0  0  0  0  0  0  0  0  0  0  0
    5.9298    7.6885  -24.1068 C   0  0  0  0  0  0  0  0  0  0  0  0
    5.0032    6.0274  -25.6039 C   0  0  0  0  0  0  0  0  0  0  0  0
    5.6978    5.4785  -23.4407 C   0  0  0  0  0  0  0  0  0  0  0  0
    6.8396    3.1978  -19.1919 C   0  0  0  0  0  0  0  0  0  0  0  0
    4.4140    3.2311  -19.1215 C   0  0  0  0  0  0  0  0  0  0  0  0
    6.7516    4.6032  -21.3069 C   0  0  0  0  0  0  0  0  0  0  0  0
    5.3198    3.1543  -22.6239 C   0  0  0  0  0  0  0  0  0  0  0  0
    6.7769    3.1902  -20.7185 C   0  0  2  0  0  0  0  0  0  0  0  0
    5.4735    2.5512  -21.2430 C   0  0  2  0  0  0  0  0  0  0  0  0
    7.7171    9.4082  -24.2234 C   0  0  0  0  0  0  0  0  0  0  0  0
    5.6930    3.2735  -16.9738 C   0  0  0  0  0  0  0  0  0  0  0  0
    3.5763    4.5076  -26.7903 C   0  0  0  0  0  0  0  0  0  0  0  0
    6.2901    9.1114  -23.7634 C   0  0  0  0  0  0  0  0  0  0  0  0
    6.0871    6.7390  -23.1703 N   0  0  0  0  0  0  0  0  0  0  0  0
    5.1403    5.1184  -24.6189 N   0  0  0  0  0  0  0  0  0  0  0  0
    5.8262    4.5219  -22.4674 N   0  0  3  0  0  0  0  0  0  0  0  0
    5.6519    3.1802  -18.4499 N   0  0  0  0  0  0  0  0  0  0  0  0
    4.3263    3.0414  -20.4172 N   0  3  0  0  0  0  0  0  0  0  0  0
    3.2355    3.4737  -18.4294 N   0  0  0  0  0  0  0  0  0  0  0  0
    7.9315    3.3291  -18.6500 O   0  0  0  0  0  0  0  0  0  0  0  0
    4.3969    5.7024  -26.8043 O   0  0  0  0  0  0  0  0  0  0  0  0
    5.5725   -3.1572  -21.5408 F   0  0  0  0  0  0  0  0  0  0  0  0
    7.4892    1.0044  -22.7808 F   0  0  0  0  0  0  0  0  0  0  0  0
    5.3333    8.2718  -26.3642 F   0  0  0  0  0  0  0  0  0  0  0  0
    3.7635    0.7373  -20.1006 H   0  0  0  0  0  0  0  0  0  0  0  0
    3.8038   -1.7340  -20.2248 H   0  0  0  0  0  0  0  0  0  0  0  0
    7.2926   -1.5704  -22.7343 H   0  0  0  0  0  0  0  0  0  0  0  0
    6.3781    5.3241  -20.5647 H   0  0  0  0  0  0  0  0  0  0  0  0
    7.7577    4.9030  -21.6353 H   0  0  0  0  0  0  0  0  0  0  0  0
    5.9154    2.5981  -23.3628 H   0  0  0  0  0  0  0  0  0  0  0  0
    4.2643    3.1604  -22.9335 H   0  0  0  0  0  0  0  0  0  0  0  0
    7.6405    2.6398  -21.1202 H   0  0  0  0  0  0  0  0  0  0  0  0
    7.9758   10.4471  -23.9709 H   0  0  0  0  0  0  0  0  0  0  0  0
    8.4148    8.7237  -23.7186 H   0  0  0  0  0  0  0  0  0  0  0  0
    7.7882    9.2670  -25.3120 H   0  0  0  0  0  0  0  0  0  0  0  0
    4.6681    3.2434  -16.5753 H   0  0  0  0  0  0  0  0  0  0  0  0
    6.2686    2.4280  -16.5690 H   0  0  0  0  0  0  0  0  0  0  0  0
    6.1731    4.2183  -16.6794 H   0  0  0  0  0  0  0  0  0  0  0  0
    3.1465    4.3457  -27.7899 H   0  0  0  0  0  0  0  0  0  0  0  0
    4.1948    3.6414  -26.5126 H   0  0  0  0  0  0  0  0  0  0  0  0
    2.7648    4.6288  -26.0577 H   0  0  0  0  0  0  0  0  0  0  0  0
    5.5934    9.7968  -24.2683 H   0  0  0  0  0  0  0  0  0  0  0  0
    6.2200    9.2536  -22.6749 H   0  0  0  0  0  0  0  0  0  0  0  0
    3.4562    3.2325  -20.8716 H   0  0  0  0  0  0  0  0  0  0  0  0
    2.3640    3.4986  -18.9193 H   0  0  0  0  0  0  0  0  0  0  0  0
    3.2578    3.6235  -17.4410 H   0  0  0  0  0  0  0  0  0  0  0  0
  1  2  2  0  0  0  0
  1  4  1  0  0  0  0
  2  5  1  0  0  0  0
  3  5  2  0  0  0  0
  3  6  1  0  0  0  0
  4  6  2  0  0  0  0
  4 16  1  0  0  0  0
  5 29  1  0  0  0  0
  6 30  1  0  0  0  0
  7  8  1  0  0  0  0
  7  9  2  0  0  0  0
  7 31  1  0  0  0  0
  8 20  1  0  0  0  0
  8 21  2  0  0  0  0
  9 22  1  0  0  0  0
  9 28  1  0  0  0  0
 10 21  1  0  0  0  0
 10 22  2  0  0  0  0
 10 23  1  0  0  0  0
 11 15  1  0  0  0  0
 11 24  1  0  0  0  0
 11 27  2  0  0  0  0
 12 24  1  0  0  0  0
 12 25  2  0  0  0  0
 12 26  1  0  0  0  0
 13 15  1  0  0  0  0
 13 23  1  0  0  0  0
 14 16  1  0  0  0  0
 14 23  1  0  0  0  0
 15 16  1  0  0  0  0
 16 25  1  0  0  0  0
 17 20  1  0  0  0  0
 18 24  1  0  0  0  0
 19 28  1  0  0  0  0
  1 32  1  0  0  0  0
  2 33  1  0  0  0  0
  3 34  1  0  0  0  0
 13 35  1  0  0  0  0
 13 36  1  0  0  0  0
 14 37  1  0  0  0  0
 14 38  1  0  0  0  0
 15 39  1  0  0  0  0
 17 40  1  0  0  0  0
 17 41  1  0  0  0  0
 17 42  1  0  0  0  0
 18 43  1  0  0  0  0
 18 44  1  0  0  0  0
 18 45  1  0  0  0  0
 19 46  1  0  0  0  0
 19 47  1  0  0  0  0
 19 48  1  0  0  0  0
 20 49  1  0  0  0  0
 20 50  1  0  0  0  0
 25 51  1  0  0  0  0
 26 52  1  0  0  0  0
 26 53  1  0  0  0  0
M  CHG  1  25   1
M  END
> <OMEGA_C>
kjWRQO5peD5OWKXB6deRQG0UlL/I6qXBfgjRQDUEiL9wRrHB0cOwQBYugj9XqqrBUcixQJmN57/u
1avBSNDQQAusrj7Tw7DBhfytQNAO60DMEcvByMC9QGgI9kDU2sDBGxqgQGHgwEDN1MzBjFS2QBdQ
r0CehrvBPd7aQHGoTEAJiZnBlT+NQCDKTkDp+JjB2QzYQFBNk0B/dKrBrTuqQFXfSUC6/bTBntzY
QHYrTEB/v6XBqCavQDdHI0Cc8anBvPL2QNCHFkGQycHBziy2QEuAUUBGyofBh+JkQKc+kECcUtbB
TEjJQGHIEUF7G77B1cnCQCGm10DLXLnBun2kQBXKo0Cb88TBTnC6QJ2zkEAuvbPBBdy0QLqIS0Ba
mZPBUHGKQD6mQkB6VqPBnhFPQNhQXkCDb5PB9879QLIPVUAfM5XBp7OMQFp6tkAeb9bBRlKyQL0P
SsCYU6zBJ6fvQIiRgD/8PrbBtqqqQCJZBEHl6dLB9NxwQFnBPD8AzqDB4XFzQNL03b9PzKHBrVzp
QCUDyb/j37XBQxnMQMJeqkB/hKTB1j74QMDlnEANFa3B80q9QERHJkDw5rrB3HSIQE1DSkDBd7fB
0370QOzxKEAo9qjBfDn/QDonJ0FzxL/B2KIGQU+UC0Gvv73Btzj5QG9FFEH7fsrBVmGVQMKTT0Ak
moTBP5jIQBtkG0BJjYTBR4rFQJ78hkBwb4XByWBJQCcQi0ClUd7BwDuGQB8NaUC8GdTBTPMwQHUf
lEAVdtDBVP2yQMS/HEF7JcLBTQrHQKMOFEEvZrXBGTNdQM/hTkDw+KbB/EsXQELpX0DFWpfBkoBQ
QNXnZ0Anh4vBqQjTQOF63j5SE7DBQFPWQLq/dL9fKLHBRiqUQBjPnL/IIafB4WqwQMlBgz8VbarB
Vwy3QEGc5L/CnazBJz2QQAJaLT6wFabBuqCrQGVF60A5zsrBJUG8QMG29UAnpMDBRAKfQGrSwEDw
wMzBooq4QH4hrkASzrvB2C/aQJ02TECpWpnBFouMQKZCUUCE7pjBibnXQNU3k0ATP6rBDyWrQK5B
SEDd/7TBjGnYQHctTEBKkKXBDn2uQLkGJEAzwanBoXbyQBzfF0FwdsHB1Qy1QCu4UECaqIfB8Jpk
QDtNj0CiRtbBZsHFQBm2EUE3l73BIZzDQPKx1kAHcLnBMK6lQE8Do0D/I8XBY22+QPnqjkDPPLTB
YP2zQEZdTEASe5PBkh+KQL7MRkCnVqPBGzVNQKOrX0ArcJPBBS39QCjNUEAK9ZTBk2qKQFPttkBC
PdbB1Ei6QKUUSMAvmq3B9NRZQCwoIj8UC6HBaiKmQNPPBEEEZtLBNTnrQNi1iD+DmLPBp+DwQBWf
sb9MerXBnkV4QCh7778CsKPBEjzIQFa1qUCisaTBUGL4QBxNnkCyAazByei8QD8oIEBatbrBQXuJ
QI+vTEDLgrfBVuzzQLyaKEByyKjBNzv5QK+MKEHUN7/BFCUFQYVDDUF5vr3BzhD0QGE7FkEZN8rB
2yaUQM0lUECQh4TBMaXGQNY4GUBtgITBUCfFQIIDhkB0J4XBp8tGQN67ikB2Kt7B4fGHQJrAaEAe
ltTB34cyQFy3kEC5GdDB7PatQJZWHEFOT8HBRzDEQLleE0Gv1rTBTwJeQEapVkAXGKfBH7UVQBvB
YUDbaZfBFA9OQP72Z0CfgYvBcs2PQGhoiz4lM6bBToWQQM4dkL8NCafBbkHRQNaef79DzbHBClyw
QGwHiD97+qrBZmexQEJ54b8dvqzBGvHQQJrezj6aB7HBNKOtQOO95kAqZMzBcv6hQGd6u0CJPc3B
Qt29QAXI9UD4l8LBMMe3QHO4sEA2lrvBTmDaQNrMS0DESZnBvMOMQPbCS0B7uJjBcGzXQLWJlUAs
7anBOCCqQFT3TkBvrrTBBn7YQHbzTkBIg6XBUOuuQPY+JkC81KnBBbBKQI4IkUCT/tTBtIq1QJ0F
SEAUiofBAFbiQFPLFkGMMrnBoGmPQAXGqEDEatfBRqGnQIySoUAv3MTBYCPDQFs42kCrR7rBGlK6
QK+Ak0CtVbPBFFq0QIXBRkATX5PBoiGKQFHgQ0CnJaPBVBBOQG1AWUBsG5PBWiH9QHLmVEC04pTB
5FvGQKuBEEE/xsHBrD6yQEv1RsBAaq3BliLwQFigij+VQLbBtnKpQLvcAEGHydTBwllsQJwAQT9y
3qHBc3dvQPlt278LSKPBtCPqQNQCv7//T7bBxdrKQCjMq0B24KPBOaP3QK/Pn0ByX6zBYSm9QD1D
LEDlrbrBn1WIQBysT0DyJLfBID/0QKfxLEAF3ajBiYcwQLCng0DNctzByiZXQLzrbUCWSs/BkEEc
QKKFp0BkgtHBg8GUQCp+Q0AUY4TBY33IQGRvEUA8ooTBv0bEQF0KgkCFzITByrXmQFRBKEFXWbnB
ZyjUQL0JEkF/gLHBv8UAQfPkDkHBLbrB7RCJQB/EwkCaIt3BioOmQFs0kkDM6trBBvtcQO03UkDi
wabB4FoWQGyiXEC8BZfBZ2lPQBuWX0DvJYvBRMvTQN6S7T6WE7DB9VHWQG68bL/WgrHBTrOSQAa0
mL8IIajBUMSwQIwFhz9clqrBivG1QFKA4L9Mda3B1nePQKDZSz5ow6bBcL6qQD4B50A9HszBx/+f
QHmEu0BdEs3BMHK8QGqQ9UCQbsLB1OO3QCT3r0Cgo7vBJivaQOL0S0BlK5nBenqMQHjTT0Dd3ZjB
JbjXQKBWlUBK4qnBW1+sQJXVS0D3wrTBWsLYQCPITkARY6XBjSevQLIXJkBQranB0IQ5QE2VnEAt
hdTBaW60QKE/S0AliYfBMY/hQDNuFkGs/LjBNjOLQBFQqUAZAdfBp4WmQJE7oUA5z8TBXj7DQJV4
2UCJS7rB6xm8QJs6kkDYirPBpcWzQIv1SUCkXZPBIIGKQMHJR0BuTaPBiJxMQF+9XEDmapPBAAf9
QNDyTkBwsJTBeyzFQO9gEEHViMHByoK4QPblRcBMvq7BKHdXQONfKT885aHB8W6kQL1HAUHkUNTB
eOjsQNQpjD/LMrPB4ybxQLV1rb/SurXB16xzQNsd67+tDKXB+dvJQFibq0DqA6TB5Rr4QAgToEBW
DKzBm6jAQNPdJ0DlX7rBCxyLQGR5S0Dlo7fBiYf0QJF3LEAErqjBLn4bQLRcj0DOwtvBgeU4QH9Q
hECHJc7ByagVQBf2uEAc39HBsm+TQDdUSUC/eoTBwyfGQLw+E0C5kYTBVjTEQNkQg0ASwoTBaxvm
QN7hJ0EeELnBjp/TQOOOEUEySLHB+1IAQcB4DkG8FLrBjnqLQAeRwUCvYd3B6hidQHDrjEAaqNnB
Q0RfQGjBWED7F6fBqmsVQCGZX0DCc5fBfNBMQLMuY0BQdYvB

> <OMEGA_E>
QKv6PSAlFz7ouJM+qGKgPg==

> <OMEGA_NBR>
     68208

$$$$
220597
  -OEChem-04172616093D

 50 53  0     1  0  0  0  0  0999 V2000
    6.6621   -0.9952  -22.1147 C   0  0  0  0  0  0  0  0  0  0  0  0
    6.5787    0.4057  -22.0506 C   0  0  0  0  0  0  0  0  0  0  0  0
    5.7116   -1.7861  -21.4452 C   0  0  0  0  0  0  0  0  0  0  0  0
    4.5862    0.2252  -20.6517 C   0  0  0  0  0  0  0  0  0  0  0  0
    5.5421    1.0324  -21.3137 C   0  0  0  0  0  0  0  0  0  0  0  0
    5.4751    7.3387  -25.4152 C   0  0  0  0  0  0  0  0  0  0  0  0
    4.6764   -1.1739  -20.7144 C   0  0  0  0  0  0  0  0  0  0  0  0
    6.0883    7.6653  -24.1867 C   0  0  0  0  0  0  0  0  0  0  0  0
    4.9581    6.0414  -25.5914 C   0  0  0  0  0  0  0  0  0  0  0  0
    5.7210    5.4873  -23.4516 C   0  0  0  0  0  0  0  0  0  0  0  0
    6.8114    3.1912  -19.1833 C   0  0  0  0  0  0  0  0  0  0  0  0
    4.3805    3.2265  -19.1379 C   0  0  0  0  0  0  0  0  0  0  0  0
    6.7445    4.6105  -21.2918 C   0  0  0  0  0  0  0  0  0  0  0  0
    5.3601    3.1427  -22.6377 C   0  0  0  0  0  0  0  0  0  0  0  0
    6.7654    3.1938  -20.7103 C   0  0  2  0  0  0  0  0  0  0  0  0
    5.4683    2.5587  -21.2422 C   0  0  2  0  0  0  0  0  0  0  0  0
    6.6006    9.0636  -23.9244 C   0  0  0  0  0  0  0  0  0  0  0  0
    5.6414    3.2725  -16.9765 C   0  0  0  0  0  0  0  0  0  0  0  0
    3.5872    4.4541  -26.7736 C   0  0  0  0  0  0  0  0  0  0  0  0
    6.1965    6.7311  -23.2228 N   0  0  0  0  0  0  0  0  0  0  0  0
    5.0957    5.1415  -24.5988 N   0  0  0  0  0  0  0  0  0  0  0  0
    5.8717    4.5156  -22.4896 N   0  0  3  0  0  0  0  0  0  0  0  0
    5.6140    3.1807  -18.4537 N   0  0  0  0  0  0  0  0  0  0  0  0
    4.3075    3.0466  -20.4369 N   0  3  0  0  0  0  0  0  0  0  0  0
    3.1924    3.4477  -18.4541 N   0  0  0  0  0  0  0  0  0  0  0  0
    7.9002    3.2894  -18.6287 O   0  0  0  0  0  0  0  0  0  0  0  0
    4.2990    5.7196  -26.7676 O   0  0  0  0  0  0  0  0  0  0  0  0
    5.3604    8.2600  -26.3989 F   0  0  0  0  0  0  0  0  0  0  0  0
    3.5055   -2.1477  -19.8687 Cl  0  0  0  0  0  0  0  0  0  0  0  0
    7.4555   -1.4643  -22.6776 H   0  0  0  0  0  0  0  0  0  0  0  0
    7.3100    1.0100  -22.5668 H   0  0  0  0  0  0  0  0  0  0  0  0
    5.7759   -2.8632  -21.4918 H   0  0  0  0  0  0  0  0  0  0  0  0
    3.7840    0.6879  -20.0961 H   0  0  0  0  0  0  0  0  0  0  0  0
    6.3276    5.3221  -20.5640 H   0  0  0  0  0  0  0  0  0  0  0  0
    7.7587    4.9280  -21.5756 H   0  0  0  0  0  0  0  0  0  0  0  0
    5.9740    2.5713  -23.3495 H   0  0  0  0  0  0  0  0  0  0  0  0
    4.3143    3.1498  -22.9787 H   0  0  0  0  0  0  0  0  0  0  0  0
    7.6322    2.6451  -21.1071 H   0  0  0  0  0  0  0  0  0  0  0  0
    7.0180    9.1171  -22.9081 H   0  0  0  0  0  0  0  0  0  0  0  0
    7.3841    9.3101  -24.6559 H   0  0  0  0  0  0  0  0  0  0  0  0
    5.7721    9.7811  -24.0186 H   0  0  0  0  0  0  0  0  0  0  0  0
    4.6125    3.2489  -16.5880 H   0  0  0  0  0  0  0  0  0  0  0  0
    6.2074    2.4229  -16.5669 H   0  0  0  0  0  0  0  0  0  0  0  0
    6.1249    4.2139  -16.6766 H   0  0  0  0  0  0  0  0  0  0  0  0
    3.1069    4.3077  -27.7523 H   0  0  0  0  0  0  0  0  0  0  0  0
    4.2961    3.6340  -26.5868 H   0  0  0  0  0  0  0  0  0  0  0  0
    2.8194    4.4617  -25.9859 H   0  0  0  0  0  0  0  0  0  0  0  0
    3.4451    3.2430  -20.9035 H   0  0  0  0  0  0  0  0  0  0  0  0
    2.3251    3.4653  -18.9514 H   0  0  0  0  0  0  0  0  0  0  0  0
    3.2042    3.5893  -17.4642 H   0  0  0  0  0  0  0  0  0  0  0  0
  1  2  2  0  0  0  0
  1  3  1  0  0  0  0
  2  5  1  0  0  0  0
  3  7  2  0  0  0  0
  4  5  2  0  0  0  0
  4  7  1  0  0  0  0
  5 16  1  0  0  0  0
  6  8  1  0  0  0  0
  6  9  2  0  0  0  0
  6 28  1  0  0  0  0
  7 29  1  0  0  0  0
  8 17  1  0  0  0  0
  8 20  2  0  0  0  0
  9 21  1  0  0  0  0
  9 27  1  0  0  0  0
 10 20  1  0  0  0  0
 10 21  2  0  0  0  0
 10 22  1  0  0  0  0
 11 15  1  0  0  0  0
 11 23  1  0  0  0  0
 11 26  2  0  0  0  0
 12 23  1  0  0  0  0
 12 24  2  0  0  0  0
 12 25  1  0  0  0  0
 13 15  1  0  0  0  0
 13 22  1  0  0  0  0
 14 16  1  0  0  0  0
 14 22  1  0  0  0  0
 15 16  1  0  0  0  0
 16 24  1  0  0  0  0
 18 23  1  0  0  0  0
 19 27  1  0  0  0  0
  1 30  1  0  0  0  0
  2 31  1  0  0  0  0
  3 32  1  0  0  0  0
  4 33  1  0  0  0  0
 13 34  1  0  0  0  0
 13 35  1  0  0  0  0
 14 36  1  0  0  0  0
 14 37  1  0  0  0  0
 15 38  1  0  0  0  0
 17 39  1  0  0  0  0
 17 40  1  0  0  0  0
 17 41  1  0  0  0  0
 18 42  1  0  0  0  0
 18 43  1  0  0  0  0
 18 44  1  0  0  0  0
 19 45  1  0  0  0  0
 19 46  1  0  0  0  0
 19 47  1  0  0  0  0
 24 48  1  0  0  0  0
 25 49  1  0  0  0  0
 25 50  1  0  0  0  0
M  CHG  1  24   1
M  END
> <OMEGA_C>
wC/VQE/Gfr/g6rDBA4XSQKO0zz66Z7DBFsW2QF6g5L/Ij6vBPMKSQN+XZj7GNqXBvVixQJ8khD9i
gqrBSTSvQNnW6kBeUsvBX6WVQOZBlr8at6XBt9PCQNVJ9UBWfsHBv6ieQGdTwUAgu8zBWBK3QI+X
r0DHnLvBrfbZQEE8TEBhd5nB1yyMQJ9/TkBkGpnBjdLXQE6Jk0C0VarB4YWrQMIiSUAaGrXBTn7Y
QARnTEClrqXBbPyuQG7BI0D+76nByDfTQFUEEUEeZb/BGYa0QD1wUUDSz4fBOpVlQEOIjkBLMNbB
FUrGQIll10BkyLnBrA+jQG+HpEBSysTB3OS7QOp/kECj6rPB4qWzQOiQS0AVoZPB4daJQC/8QkC+
fqPBx1BMQFOmXEDuoZPBOM78QMyFUkCZB5XBspGJQKkGt0D2I9bBq4irQBMpBEEEMdPBNlpgQGpz
CcAP857BVpPuQLttu7+7a7XBYOvpQEhJgT/OiLTBFdS4QPM+N8BN76vBNS1yQGUcMD/QxKDBsXvK
QONOqkD5gqTBOEf4QIeynUC6mqzB5yq/QLqQJEDQy7rBvA6KQCeWSUBs1LfBWDv0QKBIKUBx26jB
opPgQHHfEUG9Q7fB6krsQET2FEFhP8XBMbW4QDt/HEEGJsDBzZmTQKntT0AztITBBqPGQCwQG0D6
iITBI//DQEfYhkCwaYXBI9dGQJ/YiUCiBN7BbXmJQA+TaEDCsdTBw3E0QGTGjkAf48/BKnxcQHmN
T0BPOqfB8c0UQEvHXUCKnJfBAhFNQGy2ZUC2tovB7DqRQFqak78hZa/BJQKQQDlIgj7W7K7BkqO0
QELx7L96OKvBTFvVQGmUhj4n8KXBXzKyQBeoej8HQKrB2navQOpz7EDqOcvBLK/WQCkIkr/tgabB
1xHGQPPH9EDHr8HB2HydQNaDw0A4uczBGmO4QKHXrkDdArzBQszZQEY7UUBwTJnB5aOLQFfjTEAP
/pjBBcHVQFs6lEC+SarBvdCrQFUiRkA/F7XBFEnYQKB3TkAbiKXBybevQILcIEAswanB/g7aQNsX
EEEUrr/BFsSzQCc/ZEAx1ofBigxrQCD9j0D5A9fBghrKQCHN1UCBQLrBKWWiQAp7pUBDCMXBM9i8
QFNbj0B8SLTBWz2zQPenUkCXgZPBjoqJQJoaOkAvQqPB3VVKQC7GWkBKoZPB9JX8QMqwWkA/5pTB
YB+HQO7SukBODtbBYBKrQJCQBUFyztLBDGQBQdF4/794UaHBnP1tQNk42b9x9bLBI59pQGvqSD8E
J7LBK661QBl7O8AnoqvBEFLvQMi5TD/eL6LB+F7FQPMcqkCevqTB+/31QG+IoECrBqzBuNW+QF5R
IEBeyrrB+SmKQA0AR0CDq7fBCOb0QDKXLUA8mKjBRizqQD8MEEE427fBQY7xQAORE0F8/8XBjvfA
QLRvHEHyur/Bt9uSQOO5YkD/t4TBahHHQNpEM0DiwIPB/8XBQHzkkUB8Y4bBOjtJQCjxjEAwst7B
aqCPQGjUcECzqdbB5AA+QKMmikB+adDBvBZaQOHbPEC14abBgdcSQNlTVkCLk5fBj5xKQIsvaUDo
1YvBl4nUQHY9Z79cC7LBHZLUQOAo+D5jUrDB2RWzQMZ72L948K3BP06RQDhPmT7wf6bBp96yQDQe
jT+eiqrB7R2pQMKy5UC6SMzBtaORQFVLi7+/JKjBfSycQAi/ukCIzMzBKQ+9QMyt9ECO5MLBim24
QEzOr0Clt7vBKTLaQAUpTkAF3pjBEE6MQIG4UEAo9ZjBbO/YQOBwlkA1wanBmGauQHfLTEBcpbTB
iQbaQB0jUUAuIKXB7xaxQKL6J0DlkKnBWMCBQGbxqUAdCNbBRn6yQG2NR0AGcYfB3ezfQJSmFkF1
RrnBANqjQNT5oECqgMTBjdjEQPIZ2UAftrrBr+m9QPqQkkCfjbPBVj2zQIXbT0A/QJPBNkOLQH/3
RkCxX6PB2+NKQGGjWkAut5PB6av8QEMmS0CMNJTBRxPGQMX2D0GLOcLBd7+hQN5DAEF1kdTBQ0xQ
QBq0A8BBA6PBUyruQMGorr/Kg7bBK3TuQOkNiz/9a7PBMA6zQP+UMMDBO6/BLKNuQHybQT+UIaLB
4XnKQLXYrECnAqTB6175QF9eoUBDz6vBc8jCQBN7KEC6M7rBNCqNQGkJTED3irfB0jH2QIYSL0Aa
PqjB8WZwQOyziEDNZNTB/vpJQIXdvUB4/9bBu9mUQG0Nq0Aha93BHTiRQORjSkCxl4TBT8XAQFDy
CUA7HoXBkfLEQD8nfEC+2IPBxtXkQHgQKEHgoLnBkZLPQDp8EkEWxLHBgBj/QPN/DkHEmbnBoX5g
QCO7VEAnTafBUkEUQHMoWkCy4ZfBnY1JQL1CYkA1xovB/0mQQGHjkL+Trq/BHy6PQMrOjD69H6/B
jMyzQMUB678XoavBk9vUQJmTij54S6bBn5WxQLYkfj+Ge6rBS6muQFdQ7kB2AMvBFBHWQET1kL/I
86bBPFCcQLGTxUC1nszBSJLFQNDm9UBzesHBrVy3QKZ7r0AgGLzB5xPaQLYlUUAQh5nBhPCLQBAk
TUAEBZnBU1rVQJp9lEDKd6rB6NqqQHFKR0D7OLXB4AnYQBLgTkCsw6XB1D2vQDWqIUDw6KnBiXOD
QL6+u0CeuNbBacy0QJhYY0Cn8ofBJQHvQIuJEUG/xbXBQgmhQInepkCzIcXBiF7JQBQi1kAPNLrB
whW8QKfIj0CEbrTBRcWzQPltUkC3oZPBtGKJQELXOkAQS6PBnWxLQMf9WkA6jJPBKBD9QAUbWkCJ
NZXBVczXQH7jDkFpwL/BpmSqQGXIBkEncNLBUiUBQRFk/7+j6qHBh8hrQHPc1b84OLPBRc9nQDRt
Tz/hQbLBpL+0QMd9OsCLG6zBUP7uQAFsTT9tkqLBhSbFQJZIqkBu3qTBuIj1QAzToEAgQqzBqYK9
QBx4IUAX/7rBqxSJQKCCSEBssrfBl3v0QCT/LUB/7KjBYQFwQLt5mkBeddbB59lPQM+M0UBVVNfB
NVyYQGwTwECYt93B2gSUQL3NYUAvv4TB9DTIQMEKMkBk9YPBdPHCQLNdkUCeeobBOen7QL3iIUEe
ULXBbDLZQFnEDkFHAa/B4b0EQcr1BUFOcLXBsXtZQLLvPUC11qbB+pcTQAjhVkDCbJfBY2NMQA4L
aUBwvovB

> <OMEGA_E>
wP1sPTABLj7kJIw+LBy5Pg==

> <OMEGA_NBR>
     71891

$$$$
220600
  -OEChem-04172616093D

 53 57  0     1  0  0  0  0  0999 V2000
    5.7839   -1.7989  -21.5760 C   0  0  0  0  0  0  0  0  0  0  0  0
    4.7298   -1.2510  -20.8269 C   0  0  0  0  0  0  0  0  0  0  0  0
    6.5852    0.4391  -22.0786 C   0  0  0  0  0  0  0  0  0  0  0  0
    5.5307    1.0172  -21.3251 C   0  0  0  0  0  0  0  0  0  0  0  0
    6.7077   -0.9515  -22.2071 C   0  0  0  0  0  0  0  0  0  0  0  0
    4.5878    0.1434  -20.7000 C   0  0  0  0  0  0  0  0  0  0  0  0
    5.4102    7.2949  -25.4331 C   0  0  0  0  0  0  0  0  0  0  0  0
    4.9055    5.9850  -25.5584 C   0  0  0  0  0  0  0  0  0  0  0  0
    6.0664    7.6503  -24.2325 C   0  0  0  0  0  0  0  0  0  0  0  0
    5.7317    5.4867  -23.4398 C   0  0  0  0  0  0  0  0  0  0  0  0
    6.8030    3.1827  -19.1848 C   0  0  0  0  0  0  0  0  0  0  0  0
    4.3751    3.2706  -19.1527 C   0  0  0  0  0  0  0  0  0  0  0  0
    2.8135    4.7051  -26.4567 C   0  0  0  0  0  0  0  0  0  0  0  0
    4.0357    4.0478  -27.0993 C   0  0  0  0  0  0  0  0  0  0  0  0
    6.7496    4.6119  -21.2812 C   0  0  0  0  0  0  0  0  0  0  0  0
    5.3656    3.1490  -22.6308 C   0  0  0  0  0  0  0  0  0  0  0  0
    4.0703    5.5497  -26.7471 C   0  0  0  0  0  0  0  0  0  0  0  0
    6.7601    3.1905  -20.7072 C   0  0  2  0  0  0  0  0  0  0  0  0
    5.4567    2.5582  -21.2397 C   0  0  2  0  0  0  0  0  0  0  0  0
    6.5201    9.0725  -23.9915 C   0  0  0  0  0  0  0  0  0  0  0  0
    5.6213    3.2562  -16.9858 C   0  0  0  0  0  0  0  0  0  0  0  0
    5.0828    5.1160  -24.5581 N   0  0  0  0  0  0  0  0  0  0  0  0
    6.2098    6.7366  -23.2498 N   0  0  0  0  0  0  0  0  0  0  0  0
    5.8664    4.5278  -22.4667 N   0  0  3  0  0  0  0  0  0  0  0  0
    5.6022    3.1880  -18.4623 N   0  0  0  0  0  0  0  0  0  0  0  0
    4.3060    3.0864  -20.4505 N   0  3  0  0  0  0  0  0  0  0  0  0
    3.1864    3.5047  -18.4745 N   0  0  0  0  0  0  0  0  0  0  0  0
    7.8911    3.2720  -18.6276 O   0  0  0  0  0  0  0  0  0  0  0  0
    7.7151   -1.4705  -22.9433 F   0  0  0  0  0  0  0  0  0  0  0  0
    3.5311    0.5880  -19.9820 F   0  0  0  0  0  0  0  0  0  0  0  0
    5.2394    8.2010  -26.4229 F   0  0  0  0  0  0  0  0  0  0  0  0
    5.8834   -2.8705  -21.6663 H   0  0  0  0  0  0  0  0  0  0  0  0
    4.0208   -1.9066  -20.3431 H   0  0  0  0  0  0  0  0  0  0  0  0
    7.3062    1.0819  -22.5616 H   0  0  0  0  0  0  0  0  0  0  0  0
    1.8990    4.8603  -27.0479 H   0  0  0  0  0  0  0  0  0  0  0  0
    2.5422    4.4633  -25.4184 H   0  0  0  0  0  0  0  0  0  0  0  0
    4.6425    3.3342  -26.5226 H   0  0  0  0  0  0  0  0  0  0  0  0
    3.9992    3.7312  -28.1521 H   0  0  0  0  0  0  0  0  0  0  0  0
    6.3470    5.3248  -20.5465 H   0  0  0  0  0  0  0  0  0  0  0  0
    7.7641    4.9205  -21.5736 H   0  0  0  0  0  0  0  0  0  0  0  0
    5.9941    2.5861  -23.3366 H   0  0  0  0  0  0  0  0  0  0  0  0
    4.3250    3.1509  -22.9874 H   0  0  0  0  0  0  0  0  0  0  0  0
    4.0037    6.2514  -27.5916 H   0  0  0  0  0  0  0  0  0  0  0  0
    7.6242    2.6385  -21.1055 H   0  0  0  0  0  0  0  0  0  0  0  0
    6.9310    9.1595  -22.9749 H   0  0  0  0  0  0  0  0  0  0  0  0
    7.2959    9.3388  -24.7245 H   0  0  0  0  0  0  0  0  0  0  0  0
    5.6635    9.7539  -24.1003 H   0  0  0  0  0  0  0  0  0  0  0  0
    4.5895    3.2497  -16.6046 H   0  0  0  0  0  0  0  0  0  0  0  0
    6.1654    2.3878  -16.5858 H   0  0  0  0  0  0  0  0  0  0  0  0
    6.1237    4.1817  -16.6681 H   0  0  0  0  0  0  0  0  0  0  0  0
    3.4544    3.3073  -20.9257 H   0  0  0  0  0  0  0  0  0  0  0  0
    2.3212    3.5280  -18.9754 H   0  0  0  0  0  0  0  0  0  0  0  0
    3.1954    3.6500  -17.4852 H   0  0  0  0  0  0  0  0  0  0  0  0
  1  2  2  0  0  0  0
  1  5  1  0  0  0  0
  2  6  1  0  0  0  0
  3  4  1  0  0  0  0
  3  5  2  0  0  0  0
  4  6  2  0  0  0  0
  4 19  1  0  0  0  0
  5 29  1  0  0  0  0
  6 30  1  0  0  0  0
  7  8  2  0  0  0  0
  7  9  1  0  0  0  0
  7 31  1  0  0  0  0
  8 17  1  0  0  0  0
  8 22  1  0  0  0  0
  9 20  1  0  0  0  0
  9 23  2  0  0  0  0
 10 22  2  0  0  0  0
 10 23  1  0  0  0  0
 10 24  1  0  0  0  0
 11 18  1  0  0  0  0
 11 25  1  0  0  0  0
 11 28  2  0  0  0  0
 12 25  1  0  0  0  0
 12 26  2  0  0  0  0
 12 27  1  0  0  0  0
 13 14  1  0  0  0  0
 13 17  1  0  0  0  0
 14 17  1  0  0  0  0
 15 18  1  0  0  0  0
 15 24  1  0  0  0  0
 16 19  1  0  0  0  0
 16 24  1  0  0  0  0
 18 19  1  0  0  0  0
 19 26  1  0  0  0  0
 21 25  1  0  0  0  0
  1 32  1  0  0  0  0
  2 33  1  0  0  0  0
  3 34  1  0  0  0  0
 13 35  1  0  0  0  0
 13 36  1  0  0  0  0
 14 37  1  0  0  0  0
 14 38  1  0  0  0  0
 15 39  1  0  0  0  0
 15 40  1  0  0  0  0
 16 41  1  0  0  0  0
 16 42  1  0  0  0  0
 17 43  1  0  0  0  0
 18 44  1  0  0  0  0
 20 45  1  0  0  0  0
 20 46  1  0  0  0  0
 20 47  1  0  0  0  0
 21 48  1  0  0  0  0
 21 49  1  0  0  0  0
 21 50  1  0  0  0  0
 26 51  1  0  0  0  0
 27 52  1  0  0  0  0
 27 53  1  0  0  0  0
M  CHG  1  26   1
M  END
> <OMEGA_C>
dxW5QKRC5r+um6zBcFqXQOogoL9mnabB97nSQKjL4D7noLDBk/uwQAI1gj/FmarBkaXWQHaSc78n
qLHBf8+SQMTdEj6KmaXBbCCtQAFw6UAId8vB5vmcQO6Ev0CNd8zBnR/CQA3P9EAb3MHB2Gm3QEaT
r0C+hLvBFbLZQD+xS0BvepnBjwCMQPBQUUCxOJnB7A80QIeQlkA6p9PBeiSBQGuHgUBhy9jBd/zX
QPCUk0D7P6rB3bKrQMSJSUDdC7XBPUCCQPCWsUAD+tXByVLYQDkxTEBIqKXBOp2uQDa6I0DZ6qnB
DqXQQNEoEUGm7r/B7uGzQAVlUED94ofBJKaiQHK2o0D2dsTBXLbGQGWS10Ct/7nBv7m7QMnjkEC5
u7PBhUWzQI0HTEDVspPB/cqJQByHRUCVmqPBo+1LQAlNYEDSy5PBR4T8QBJpUUBkBZXBROL2QKw4
vL/ai7fBAf5hQLuJFj8325/BdqmnQDI3A0EXYtPBskS8QIK2N8CoVK3BeKqAQPYJ9L+1vqLBk8zp
QG16ij8qfrTB8RDzP9qHm0AaYtjB6rMiQLLTjkDlWMvBQY+UQO9iVUBVLtTBEfN/QEDLbkCLN+HB
dBrLQHtkqkBPX6TBsnP4QGt0nUDJlqzBk8+/QHGDJUBTsbrBcmaKQAaoSUBE5rfBOh6AQCYLyECR
u9zBIvnzQPLcKEAa2KjBEsvdQHKNEkGKzLfBWHjpQNFrFUG1y8XBuzu1QB0QHEFazcDBct2SQA77
T0Aw1oTBjkrFQCfSGEC3r4TBOvXDQOHQhUBUWIXBFhRdQBmqU0DgZ6fBXo4UQADLYUCrzZfBzIFM
QP+ZaUCl4YvBXBOyQOH527/9/q3BBO7SQBzscL/ifbLBaaeRQHi8kT40fqbBPLmyQLLVij9a2KrB
wmCRQMMJjb/iDqjBJnjTQJDa5z4fBbHBSdKnQN446ECqcMvBHOW6QN7t9EC0t8HBbWWcQHD9vED3
u8zBsvK5QOROrkAu/bvB5SHaQFveTkDB9pjBuH6MQH+rT0DB2JjBbDjyQIOgGUFaacHB0OLgQKaG
F0FFBbbBWArXQL77lUD4y6nBxESrQK11TUBmrrTBdWTEQJHDEUHgqL/B+EvZQGcrUUB1NqXBeF+w
QO8KJ0CjrKnBVZuCQMbQrUDVQNbBgJWzQOPeTEBMa4fBrEzEQOh710BNNLrB5HGlQPAYoUDN8cTB
DezBQBTRj0AWWrTBx4uzQI+1S0DCQJPBadCKQBdFREBdOaPBgFxMQLnDXkD8jJPBiMr8QGs5UUAd
YZTB7S1iQOss67978aPByu7yQP5FlD8C7LXBxGegQFSCAkF7TNPB/PKxQLOJMsBiGq/BP+TrQMVQ
tb+4GbfBI79wQDmfPz/u6qHBJu33QNyTKUG92MTBh28FQRZ3DkGDS8TBqvrsQAzWCkGjubDBwQja
QNLyJUHdRrHBXNvDQMT+qkCOnaTBdUP3QNyZo0ATxqrBt4W5QBZHI0BTwrrBbTSJQPh3V0Atg7bB
A8WqQCk2HUGdkcHBC531QE0IMEDFZqjB9lF1QHbCi0AoQNXBudhJQDyYwEDS09bBzHyVQBESskCI
mt3BbXOSQG73SUBmeITBtI3FQD9YFUCzZ4TBnsnCQDUVhECilITB8lpeQI6fT0C+/6bB0nUVQCuZ
YEDjp5fBQhFMQKfNZ0CJoYvB5ka3QGU92b8fMK/BrAOUQAhrl78RjqnBK2PVQLYkCT9WZ7DBZhqy
QNEFij9YtqrBQsnXQKJaVb8FsbLBjcCQQMCNRz7+a6fBstmtQPeC5UAuUczBZHzEQDHo8UC9DcPB
dHCcQLcLvEDbv8zB4o22QO9Ir0BQjbvB76jZQEKeTkAW7JjBhPeLQIAFT0Bes5jBWJLuQOOXFUH1
47fBwgzCQECvHkFCJLrBXxDXQLUblkBczKnB67WrQL6RTEC3gbTBi5PWQNBSD0EyM8LBRZnYQBTw
UECNKqXBjV2vQNzrJkBde6nBJl6BQG5arUD2FtbBgnWzQDqoR0D1WYfBfbTHQOOt1kD/t7rBUjah
QCXkoUB1XcTBjz26QDWVkkByRrPBwymzQMjpSUDKLJPB9j+KQHyhRkClHqPBPE1LQFKgW0CDTZPB
Slr8QGyOUkCCX5TBHiz5QCoDqL+SZbjB0IFZQI6gHz8weqLBx++nQA+kAEFIe9TBk1y5QD9eMMDN
0bDBnlN2QIwQ7b/I1abBxdHuQDtXmD+ZA7PBU2kFQXAOIEHoUrjBGBHzQNbACUEmerHBooumQDdn
GUGSU7XBMU2+QNC0L0FULLzBherJQGqwrEDj5qPBQjL3QAawoEDuOqzB5D/AQD7NKUAZLrrBG12K
QNCZSkBEULfB2IHiQJqNFkHzpcnBzKb0QP0HL0DPX6jBuadpQFQejUC8dNTBMBJNQP6tw0B0OdfB
yw6VQKGWrECzYd3BZWOSQFX+Q0BIX4TBUnPFQHU/D0BSnYTBMsXCQKwGgUCgRITBY1peQHv8VUCm
7abBJz8UQLsBXkABX5fB7ClLQPlSYkDDWIvBNvqzQNWK6L/F66vBa0vTQGWah79/PbHBnFKSQMsp
bD50m6XBm9axQMz0gT9L1arBoXyTQLSvlb9NIqbBI3nSQJ5NsT4XybDB8aGuQDpI6UBhnMvB8PSd
QDyMv0Asi8zBSj7DQOnW9EBF98HBlr22QKo8sEDcZrvByA7aQNdeTUBQfJnBvVmMQOCITkDySJnB
uno0QJVimUCeNtTBvPiAQDOYgEBpZdjBCtzYQNmsk0B+aKrBT4mrQNfDSkDyD7XBjKWEQOkjsUAg
P9bBgBLZQHC2TEBPsKXBi8OvQA9cI0AME6rBQTrTQHD+EEFZOsDBQvyzQAImU0AF7ofBDCKiQFNO
pEDoXcTBk9XGQBf810DK+7nBBfC6QIqYkUB+mLPBjJWzQP9WTEDRu5PBZF2KQFPCQUBEpaPBcUtM
QAeIXUCz7pPBS6f8QNUEVkCd/ZTBVnJqQCYj8r8qBKHBZVLxQJNugj9YLrbBWgqqQO/3AkEapNPB
TuG0QMVOOcDMR6zBkSvsQESdx798tbXBdjhyQInJNz+HKqHBNWz6Pz8Un0ChednBgwoeQOxElECP
+MvBXJmRQPJsU0B5KNPBKC+BQJYLaUCLqeDBeYnNQCDzqkCscaTBQx35QMy1nEDgHK3Bv26/QPRg
KECR6brBlf6JQPg6SkACu7fBEb6FQH77xUA2Vd3BUvz0QHp0KUDQvajBUW3gQOhzEkFMGrjB81bs
QBemFEETHsbBj4q4QOdNHEGxM8HBDvWSQCEsUUCF5YTBjEPGQK9sHUBdi4TBkwvDQPH0h0DFkYXB
D1VdQNvQTEDdZ6fBVhYVQOxIXkBr+pfBBHlMQCuUZ0AaCIzB

> <OMEGA_E>
iKA0PqAETD4QYm8+IEAePg==

> <OMEGA_NBR>
     75732

$$$$
220599
  -OEChem-04172616093D

 54 58  0     1  0  0  0  0  0999 V2000
    5.5979   -1.7862  -21.5436 C   0  0  0  0  0  0  0  0  0  0  0  0
    6.5864   -1.0224  -22.1868 C   0  0  0  0  0  0  0  0  0  0  0  0
    4.5687    0.2492  -20.6963 C   0  0  0  0  0  0  0  0  0  0  0  0
    5.5617    1.0379  -21.3280 C   0  0  0  0  0  0  0  0  0  0  0  0
    4.5875   -1.1475  -20.8050 C   0  0  0  0  0  0  0  0  0  0  0  0
    6.5754    0.3808  -22.0909 C   0  0  0  0  0  0  0  0  0  0  0  0
    5.3800    7.3460  -25.3805 C   0  0  0  0  0  0  0  0  0  0  0  0
    5.9208    7.6758  -24.1260 C   0  0  0  0  0  0  0  0  0  0  0  0
    4.9652    6.0255  -25.6043 C   0  0  0  0  0  0  0  0  0  0  0  0
    5.7609    5.4570  -23.4788 C   0  0  0  0  0  0  0  0  0  0  0  0
    6.8243    3.2067  -19.1558 C   0  0  0  0  0  0  0  0  0  0  0  0
    4.3987    3.2372  -19.1157 C   0  0  0  0  0  0  0  0  0  0  0  0
    7.4403    9.7586  -24.2720 C   0  0  0  0  0  0  0  0  0  0  0  0
    7.2837    9.4356  -22.7789 C   0  0  0  0  0  0  0  0  0  0  0  0
    6.7216    4.6360  -21.2617 C   0  0  0  0  0  0  0  0  0  0  0  0
    5.3312    3.1641  -22.6143 C   0  0  0  0  0  0  0  0  0  0  0  0
    6.1571    9.1098  -23.7641 C   0  0  0  0  0  0  0  0  0  0  0  0
    6.7787    3.2215  -20.6859 C   0  0  2  0  0  0  0  0  0  0  0  0
    5.4897    2.5696  -21.2275 C   0  0  2  0  0  0  0  0  0  0  0  0
    5.6499    3.2442  -16.9492 C   0  0  0  0  0  0  0  0  0  0  0  0
    3.4664    4.5470  -26.7446 C   0  0  0  0  0  0  0  0  0  0  0  0
    6.1212    6.7226  -23.2020 N   0  0  0  0  0  0  0  0  0  0  0  0
    5.1603    5.1032  -24.6401 N   0  0  0  0  0  0  0  0  0  0  0  0
    5.9609    4.4861  -22.5312 N   0  0  3  0  0  0  0  0  0  0  0  0
    5.6274    3.1820  -18.4278 N   0  0  0  0  0  0  0  0  0  0  0  0
    4.3290    3.0464  -20.4121 N   0  3  0  0  0  0  0  0  0  0  0  0
    3.2100    3.4815  -18.4417 N   0  0  0  0  0  0  0  0  0  0  0  0
    7.9126    3.2861  -18.5970 O   0  0  0  0  0  0  0  0  0  0  0  0
    4.3170    5.7167  -26.7848 O   0  0  0  0  0  0  0  0  0  0  0  0
    3.6221   -1.8742  -20.2014 F   0  0  0  0  0  0  0  0  0  0  0  0
    7.5378    1.0650  -22.7577 F   0  0  0  0  0  0  0  0  0  0  0  0
    5.1589    8.5667  -26.6114 Cl  0  0  0  0  0  0  0  0  0  0  0  0
    5.6147   -2.8635  -21.6169 H   0  0  0  0  0  0  0  0  0  0  0  0
    7.3590   -1.5155  -22.7580 H   0  0  0  0  0  0  0  0  0  0  0  0
    3.7885    0.7299  -20.1247 H   0  0  0  0  0  0  0  0  0  0  0  0
    7.4301   10.8046  -24.6123 H   0  0  0  0  0  0  0  0  0  0  0  0
    8.1425    9.1790  -24.8893 H   0  0  0  0  0  0  0  0  0  0  0  0
    7.8718    8.6237  -22.3262 H   0  0  0  0  0  0  0  0  0  0  0  0
    7.1594   10.2492  -22.0492 H   0  0  0  0  0  0  0  0  0  0  0  0
    6.1996    5.3163  -20.5727 H   0  0  0  0  0  0  0  0  0  0  0  0
    7.7344    5.0182  -21.4571 H   0  0  0  0  0  0  0  0  0  0  0  0
    5.8394    2.5395  -23.3637 H   0  0  0  0  0  0  0  0  0  0  0  0
    4.2669    3.2579  -22.8760 H   0  0  0  0  0  0  0  0  0  0  0  0
    5.2709    9.7597  -23.7164 H   0  0  0  0  0  0  0  0  0  0  0  0
    7.6552    2.6923  -21.0878 H   0  0  0  0  0  0  0  0  0  0  0  0
    4.6198    3.2130  -16.5646 H   0  0  0  0  0  0  0  0  0  0  0  0
    6.2146    2.3866  -16.5548 H   0  0  0  0  0  0  0  0  0  0  0  0
    6.1324    4.1794  -16.6290 H   0  0  0  0  0  0  0  0  0  0  0  0
    3.0036    4.3955  -27.7310 H   0  0  0  0  0  0  0  0  0  0  0  0
    4.0688    3.6645  -26.4830 H   0  0  0  0  0  0  0  0  0  0  0  0
    2.6801    4.6913  -25.9891 H   0  0  0  0  0  0  0  0  0  0  0  0
    3.4617    3.2275  -20.8757 H   0  0  0  0  0  0  0  0  0  0  0  0
    2.3461    3.5066  -18.9448 H   0  0  0  0  0  0  0  0  0  0  0  0
    3.2175    3.6325  -17.4532 H   0  0  0  0  0  0  0  0  0  0  0  0
  1  2  2  0  0  0  0
  1  5  1  0  0  0  0
  2  6  1  0  0  0  0
  3  4  1  0  0  0  0
  3  5  2  0  0  0  0
  4  6  2  0  0  0  0
  4 19  1  0  0  0  0
  5 30  1  0  0  0  0
  6 31  1  0  0  0  0
  7  8  1  0  0  0  0
  7  9  2  0  0  0  0
  7 32  1  0  0  0  0
  8 17  1  0  0  0  0
  8 22  2  0  0  0  0
  9 23  1  0  0  0  0
  9 29  1  0  0  0  0
 10 22  1  0  0  0  0
 10 23  2  0  0  0  0
 10 24  1  0  0  0  0
 11 18  1  0  0  0  0
 11 25  1  0  0  0  0
 11 28  2  0  0  0  0
 12 25  1  0  0  0  0
 12 26  2  0  0  0  0
 12 27  1  0  0  0  0
 13 14  1  0  0  0  0
 13 17  1  0  0  0  0
 14 17  1  0  0  0  0
 15 18  1  0  0  0  0
 15 24  1  0  0  0  0
 16 19  1  0  0  0  0
 16 24  1  0  0  0  0
 18 19  1  0  0  0  0
 19 26  1  0  0  0  0
 20 25  1  0  0  0  0
 21 29  1  0  0  0  0
  1 33  1  0  0  0  0
  2 34  1  0  0  0  0
  3 35  1  0  0  0  0
 13 36  1  0  0  0  0
 13 37  1  0  0  0  0
 14 38  1  0  0  0  0
 14 39  1  0  0  0  0
 15 40  1  0  0  0  0
 15 41  1  0  0  0  0
 16 42  1  0  0  0  0
 16 43  1  0  0  0  0
 17 44  1  0  0  0  0
 18 45  1  0  0  0  0
 20 46  1  0  0  0  0
 20 47  1  0  0  0  0
 20 48  1  0  0  0  0
 21 49  1  0  0  0  0
 21 50  1  0  0  0  0
 21 51  1  0  0  0  0
 26 52  1  0  0  0  0
 27 53  1  0  0  0  0
 27 54  1  0  0  0  0
M  CHG  1  26   1
M  END
> <OMEGA_C>
LiKzQD6h5L9eWazBjMPSQNfcgr+AfrHBbzKSQDI3fz4ckqXBHPmxQA7bhD+ln6rBsMySQNzgkr+2
cKbBgGnSQA/1wj4furDBpSisQCMS60BaC8vB7Xa9QD+g9UACAsHBJeOeQPvQwECO1czBalm4QPaf
rkCj1LvBfGDaQEA7TUAXP5nBcsKMQIcuT0D27JjB4BbuQCkjHEElLcLBKRTpQB74FkE9O7bBbxfX
QE9alEDiF6rBIpmqQOB/SkAj6rTBNQfFQJrBEUHHHL7Bx+rYQGgtTkCkfKXB/6uvQKJ0JEDx0anB
/su0QI+hT0Dml4fB5tldQMeAkUD99NXB+uDDQKUf10C2nbnBbyGlQBVNo0D8HsXB3r++QAqOj0D2
P7TBfxO0QEumS0AobJPBP4eKQHb3QkD5S6PBHHBNQJrRXkCxiJPBOTT9QMxOUkCfxpTBBiWKQBjv
tkA5R9bBONFnQDjk77+JnKHBbzXxQAtRiD+4D7bBcRWlQFcRCUEu5NTB8auzQGdEN8B276zBynzr
QIH7wb9fELbBL3dyQALdOj98/6DBusPtQIjfLEEU5sTBg0cCQRjdEkFPHcfBY+X7QHn6CUH/m7LB
FxrlQOr8I0HEZLDB82LGQIgfqkDulKTBEoD3QGOVoEAwqKvBZ9y6QPeGIkD16LrBg4qIQOCAUEAk
ArfBYKuoQJAnHEEtu73Bwff0QNtOLEDGs6jBTdWTQP2gTUBRhITB4d3GQI29GEAycITB9jzEQAu+
hUAeCIXBHjtAQMinjED/2N3BmjOCQNaHakAe3dPBAIcrQEoflkCX6c/BqIxdQLSPTkCGAafBziUW
QFZsYEDhjpfBIuxNQIV6aEA3oIvBx9C2QA4g5r/7i6zBl2uUQHydnb/M56bBZg7TQOrY2D5xAbDB
xMSwQKRygj+OSarBnOfVQJ+bd7/iL7HBNbyQQBjuKD4N16XBz5OrQLZE60C868rB+4u9QMl59UDE
8MDBJz+eQMQMwUBWxMzBKPi3QOlDrkBez7vBPTLaQN9YTEB6QpnBCI+MQID3UED+85jBcDz4QJeo
F0E3jcHBQ8XrQJZiFUEnwLXBFQrYQIhDk0DzQ6rBgMirQOi2R0AWAbXBNoXKQP1eEUGvk77BibjY
QAY1TEAfgaXBVumuQJLNI0CKt6nBRoa0QDRoT0DCmofByUBmQLoPj0AzitbBjgjEQEut1kCPmrnB
s6mkQBZBo0A3HMXB70i+QCIBj0DYOLTBdtezQF3XS0A8cJPBp3OKQFzrRkDLXqPBRN9MQJ/bXkCf
hJPBQgr9QGwyUUBHy5TBEQmKQMVLt0CUTNbBEGv2QCY3wL8E5LbBIWFbQA0MIj+OtKDBTrOlQPgv
CUFz0tTBcFW5QPC5N8DzT63BRh95QMbd77+AWaPBIWPrQA7Phj9egrPB78L+QNuWJ0H76sTBgdQG
QfrWC0FRRcXBlCr4QIHsB0HkALHBgkTpQGGsI0GOprDB+uDIQNjtqUBZs6TBKLD4QPQknkBaHazB
7Sm+QIsaIEDppLrBKDWKQL7nSkDPnbfB++SxQA/HHUHrmr/Bx1L0QLOeKEAArKjBzIeTQIRkTkB2
ioTBnx7GQJLSF0C7eITBVnHEQA9UhUCXAYXB1NRIQOWrikB0dd7BnIiJQCROaUDH99TBSgg0QLhE
j0CBX9DBQhBfQP5VV0B7LafBiJcVQJzkYECVipfBkD1NQMDTZkCYlIvBcOWyQAMr47/DqazB46XS
QPwcgb9FvLHBdw6SQFTBhD5a0qXBVvOxQEPGhj+20arBHaCSQCq8kb8/uabB1m7SQPwYyj575rDB
yj6tQOzl5kCzXszB8WWgQFoCvEA8FM3BdX++QECw9UCAqsLBQKm3QC7csEAVkLvB6znaQPtlTEBM
NZnBfouMQC4jTkD++JjBuJE0QAoXm0DAoNTBstt7QEFYdkDuNdfBJb3XQMa4lUCG46nBuZarQO/P
TUB9xrTBz+GHQEB/q0CZptbBThTZQLZoT0Dyb6XBx/avQKHGJUDf2anBLD20QFsSTUDQmYfBRtXi
QI/jFkFIZbnBsT2lQNBpokA/nMTBiTnEQI4Q2kA8YLrB+ou7QEAYk0COdLPBWsezQKMnSkAlb5PB
ZZaKQJ1iQ0ANXqPBPrRMQO6ZXECKmJPBm/z8QF8IUEDur5TBJjnGQL9/EEEszcHBsv1nQN5S7792
06HB3p/xQPDRiT+yF7bBI+mlQDIaBUF3EtfBJkyzQFR+NsBZVK3BnGXrQGYGwL/RTrbB/wVyQFDt
PD9bQ6HBrNsBQBNXoUBNh9rB4VsZQJ9SnECGhMzBePuJQFgTS0AH9dDBvHZ8QEAcVUDO997Bn0fK
QMPbq0Bq7qPBXwL4QAh1oECFKKzB+/2+QHvrKkCLrrrBFeuJQFEPTkBOV7fBI4CNQNu3u0BVVd7B
1S71QFfmLUC8rqjB/zWTQOisSkCBkoTBVErGQNT2FUCnf4TBzJHDQGJfhEAi74TB9IPmQC1kKEFl
fbnBv63VQMTZEUG1obHBkRwBQWlQD0ESoLrBW+tdQFx9T0ATHKfBAJIVQAV+XkDJppfBzNBMQAIh
ZUDOqovB

> <OMEGA_E>
0LyhPWBB1D2QsX8+

> <OMEGA_NBR>
     78730

$$$$
220598
  -OEChem-04172616093D

 54 58  0     1  0  0  0  0  0999 V2000
    5.5657   -1.8078  -21.4946 C   0  0  0  0  0  0  0  0  0  0  0  0
    6.5568   -1.0595  -22.1514 C   0  0  0  0  0  0  0  0  0  0  0  0
    4.5494    0.2460  -20.6772 C   0  0  0  0  0  0  0  0  0  0  0  0
    5.5480    1.0195  -21.3195 C   0  0  0  0  0  0  0  0  0  0  0  0
    4.5587   -1.1523  -20.7665 C   0  0  0  0  0  0  0  0  0  0  0  0
    6.5550    0.3448  -22.0756 C   0  0  0  0  0  0  0  0  0  0  0  0
    5.3876    7.3535  -25.3592 C   0  0  0  0  0  0  0  0  0  0  0  0
    5.9181    7.6713  -24.0984 C   0  0  0  0  0  0  0  0  0  0  0  0
    4.9692    6.0373  -25.5983 C   0  0  0  0  0  0  0  0  0  0  0  0
    5.7504    5.4469  -23.4738 C   0  0  0  0  0  0  0  0  0  0  0  0
    6.8317    3.2025  -19.1676 C   0  0  0  0  0  0  0  0  0  0  0  0
    4.4061    3.2313  -19.1247 C   0  0  0  0  0  0  0  0  0  0  0  0
    7.4549    9.7339  -24.2480 C   0  0  0  0  0  0  0  0  0  0  0  0
    7.2971    9.4225  -22.7521 C   0  0  0  0  0  0  0  0  0  0  0  0
    6.7424    4.6085  -21.2829 C   0  0  0  0  0  0  0  0  0  0  0  0
    5.3409    3.1399  -22.6270 C   0  0  0  0  0  0  0  0  0  0  0  0
    6.1666    9.1019  -23.7334 C   0  0  0  0  0  0  0  0  0  0  0  0
    6.7852    3.1987  -20.6971 C   0  0  2  0  0  0  0  0  0  0  0  0
    5.4907    2.5533  -21.2348 C   0  0  2  0  0  0  0  0  0  0  0  0
    5.6575    3.2447  -16.9606 C   0  0  0  0  0  0  0  0  0  0  0  0
    3.5173    4.5522  -26.7902 C   0  0  0  0  0  0  0  0  0  0  0  0
    6.1105    6.7099  -23.1819 N   0  0  0  0  0  0  0  0  0  0  0  0
    5.1519    5.1055  -24.6399 N   0  0  0  0  0  0  0  0  0  0  0  0
    5.9612    4.4662  -22.5396 N   0  0  3  0  0  0  0  0  0  0  0  0
    5.6353    3.1729  -18.4386 N   0  0  0  0  0  0  0  0  0  0  0  0
    4.3349    3.0470  -20.4223 N   0  3  0  0  0  0  0  0  0  0  0  0
    3.2199    3.4767  -18.4464 N   0  0  0  0  0  0  0  0  0  0  0  0
    7.9166    3.3330  -18.6118 O   0  0  0  0  0  0  0  0  0  0  0  0
    4.3401    5.7416  -26.7927 O   0  0  0  0  0  0  0  0  0  0  0  0
    3.5832   -1.8641  -20.1616 F   0  0  0  0  0  0  0  0  0  0  0  0
    7.5212    1.0126  -22.7532 F   0  0  0  0  0  0  0  0  0  0  0  0
    5.2294    8.3090  -26.3033 F   0  0  0  0  0  0  0  0  0  0  0  0
    5.5780   -2.8864  -21.5492 H   0  0  0  0  0  0  0  0  0  0  0  0
    7.3245   -1.5656  -22.7179 H   0  0  0  0  0  0  0  0  0  0  0  0
    3.7725    0.7398  -20.1123 H   0  0  0  0  0  0  0  0  0  0  0  0
    7.4549   10.7776  -24.5954 H   0  0  0  0  0  0  0  0  0  0  0  0
    8.1501    9.1430  -24.8624 H   0  0  0  0  0  0  0  0  0  0  0  0
    7.8773    8.6076  -22.2946 H   0  0  0  0  0  0  0  0  0  0  0  0
    7.1821   10.2422  -22.0276 H   0  0  0  0  0  0  0  0  0  0  0  0
    6.2423    5.3020  -20.5908 H   0  0  0  0  0  0  0  0  0  0  0  0
    7.7585    4.9720  -21.4959 H   0  0  0  0  0  0  0  0  0  0  0  0
    5.8610    2.5163  -23.3690 H   0  0  0  0  0  0  0  0  0  0  0  0
    4.2787    3.2255  -22.8999 H   0  0  0  0  0  0  0  0  0  0  0  0
    5.2867    9.7607  -23.6891 H   0  0  0  0  0  0  0  0  0  0  0  0
    7.6576    2.6582  -21.0932 H   0  0  0  0  0  0  0  0  0  0  0  0
    4.6277    3.2077  -16.5757 H   0  0  0  0  0  0  0  0  0  0  0  0
    6.2290    2.3941  -16.5608 H   0  0  0  0  0  0  0  0  0  0  0  0
    6.1326    4.1858  -16.6464 H   0  0  0  0  0  0  0  0  0  0  0  0
    3.0684    4.4142  -27.7849 H   0  0  0  0  0  0  0  0  0  0  0  0
    4.1376    3.6779  -26.5435 H   0  0  0  0  0  0  0  0  0  0  0  0
    2.7201    4.6596  -26.0400 H   0  0  0  0  0  0  0  0  0  0  0  0
    3.4721    3.2449  -20.8875 H   0  0  0  0  0  0  0  0  0  0  0  0
    2.3548    3.5077  -18.9471 H   0  0  0  0  0  0  0  0  0  0  0  0
    3.2305    3.6225  -17.4572 H   0  0  0  0  0  0  0  0  0  0  0  0
  1  2  2  0  0  0  0
  1  5  1  0  0  0  0
  2  6  1  0  0  0  0
  3  4  1  0  0  0  0
  3  5  2  0  0  0  0
  4  6  2  0  0  0  0
  4 19  1  0  0  0  0
  5 30  1  0  0  0  0
  6 31  1  0  0  0  0
  7  8  1  0  0  0  0
  7  9  2  0  0  0  0
  7 32  1  0  0  0  0
  8 17  1  0  0  0  0
  8 22  2  0  0  0  0
  9 23  1  0  0  0  0
  9 29  1  0  0  0  0
 10 22  1  0  0  0  0
 10 23  2  0  0  0  0
 10 24  1  0  0  0  0
 11 18  1  0  0  0  0
 11 25  1  0  0  0  0
 11 28  2  0  0  0  0
 12 25  1  0  0  0  0
 12 26  2  0  0  0  0
 12 27  1  0  0  0  0
 13 14  1  0  0  0  0
 13 17  1  0  0  0  0
 14 17  1  0  0  0  0
 15 18  1  0  0  0  0
 15 24  1  0  0  0  0
 16 19  1  0  0  0  0
 16 24  1  0  0  0  0
 18 19  1  0  0  0  0
 19 26  1  0  0  0  0
 20 25  1  0  0  0  0
 21 29  1  0  0  0  0
  1 33  1  0  0  0  0
  2 34  1  0  0  0  0
  3 35  1  0  0  0  0
 13 36  1  0  0  0  0
 13 37  1  0  0  0  0
 14 38  1  0  0  0  0
 14 39  1  0  0  0  0
 15 40  1  0  0  0  0
 15 41  1  0  0  0  0
 16 42  1  0  0  0  0
 16 43  1  0  0  0  0
 17 44  1  0  0  0  0
 18 45  1  0  0  0  0
 20 46  1  0  0  0  0
 20 47  1  0  0  0  0
 20 48  1  0  0  0  0
 21 49  1  0  0  0  0
 21 50  1  0  0  0  0
 21 51  1  0  0  0  0
 26 52  1  0  0  0  0
 27 53  1  0  0  0  0
 27 54  1  0  0  0  0
M  CHG  1  26   1
M  END
> <OMEGA_C>
kxqyQCNn57/k9KvBNdHRQEmeh78VNrHB5pSRQJrfez7RaqXBCYmxQKx+gj9ojqrB4uCRQF9+k7/f
IabB48LRQG2LsD7OmrDBImesQEFQ60Cx38rBGmG9QFR79UCXycDBkQOfQGYxwUBZyczBZAO4QOZM
rkBYyrvB8pzaQFz1TEA9V5nBj/6MQCnNTkBt/5jBhI7uQDi+G0Hr+8HBf4HpQGTCFkFABLbBXsHX
QJ14k0BqQ6rBeeiqQLr0SEAbBLXBbFTFQHmhEUEL3r3BwiDZQIS3TECbk6XBEbSvQAtpI0Dv4KnB
Hwq1QLapT0BFr4fBhhthQLWrkUBcUtbB24jDQDC31kCWdLnB9tukQKFgo0B2HsXBVsK+QCTrjkAf
UbTBg1S0QPMQS0BFgpPBHreKQJECQ0DMYKPBiRJOQKWCXkBOkpPBEVX9QJRPVUDi5JTBeeKKQDC7
t0BlV9bBc1JlQE+a7r8MS6HBRq3wQLmbgT+YBrbBhFenQJTxBEExbdLBvH6yQHq6OMDWZKzBPWLq
QP9lyL87vrXBKHFxQLpgPT8W5qDBO47uQDpxLEFjw8TB2mYCQctJEkE15sbB6BL8QJK4CUFpW7LB
b9PlQAHgI0GXOLDBJ8HHQOipqUD8uaTBYUX4QM4an0CE96vBKY27QE8LIUDB87rBFuuIQHxuTkDr
MrfB4iypQK0rHEFBg73B1Ar1QKgfKkDPvqjBDxaUQM1KTUD6moTBOlTHQII5GUCJfITBHT7EQAHy
hUDiK4XBnWBEQFBBjUCFR97BAGeEQM5ia0AgWdTBVBUuQIwblUDhUdDBQDZeQL6rT0CfGafBMLUW
QMR+YEC2k5fBA8FOQDrXZ0BOqIvBDGOyQBxt4r830azBB3bSQLGdgL/Kx7HB+tSRQIOahz5s46XB
ygSyQEQ2hz9xyarBnSOSQDbnkL+036bBzJHSQF1/yz6q1rDBY9isQIm15kAjXczBooWgQKK+u0Cg
Fc3BUv+9QOGx9UAeq8LBSb+3QIbHsEAWkbvBxkLaQIxdTEAlK5nBQZSMQOQYTkB/9ZjBWnI0QH10
nECC5NTBEi16QCepdkDMLdfB5azXQCrelUDn06nBpcqrQNS6TUAwwbTBLG6IQIBaq0A9t9bBhyrZ
QJSsT0AYZaXB5BewQNz0JUDt0anBTym0QK3rSkAulIfBZCfjQCfjFkE7nbnBjHWlQD4rokCdnsTB
JvTDQPYb2kAbYLrBgfa7QJX8kkC5erPBUcezQBqdSUCZaZPBD7GKQH29Q0ABXKPBmcBMQH2cXECs
lpPBKP/8QEzLT0AZopTB+JzFQL2EEEEq08HBSYJmQBdG7r+RD6LBvAvyQLIHij+f7rXBvYqmQJPj
AEGFqdTBsoWyQMwRNsAAkq3BmDTrQP2av7+oWbbB74lxQLeRPj91V6HBCisDQFUoo0Ai89rB4+8X
QAiInkD+3MzBV/CHQEdaS0AZy9DB1ht7QOKaVEA94d7Bg7zJQGvcq0D556PBlPX3QG3koEAU/6vB
zhe/QKN7KkAqprrBaB2KQMs7TkCKULfBCS2PQGH2ukC/a97Bd0/1QG1aLkAApqjBthuTQFFZSEDX
kYTB/RfGQJlFE0AdloTBH5TDQJsOg0CMx4TBJLLmQLJlKEG5sbnB3PLWQNXAEUH6xLHBlTgBQSBi
D0ELF7vBnUleQMdCUED5HafB/6wVQFjVXkBap5fB78pMQAfYZECwp4vB3NK1QCdB8L/9SqvB2veN
QBeInb+HrqrBWp/ZQNwOkz5pHqvBZ8CxQDI0dj+4H6rBUpvbQC7mjr8cmavBtJaLQMugMz7QPKrB
nxCvQPFF7EBpLcvBBvTFQPld9ECaq8HByUqdQHlMw0CltczBvQu4QCSTrkBE/LvBL73ZQAi6UEDn
OJnBv7+LQGGWTUB695jB2335QMcAGUE1lcfBMIQEQVceEUEaj7zBUi7VQLpklEBaL6rBem2sQNP3
REDlILXBmYjZQB7bD0EVgL/BFTnYQDXGTkDCc6XBkbSvQL7UIEAjwanB7KCzQA/QYUD6u4fBNJpr
QKnCj0C+F9fBzm3JQFWZ1UBPLrrBclKiQGUopUAzC8XBitC8QP8Sj0CwR7TBJjKzQLivUUBRbpPB
PAqKQKfvPkDRU6PBdjVKQG2rWUCCnZPB0YT8QD/PWUD7zpTBBwKHQMyzukDxDdbB2wMBQcS/3b+Q
ZKzBV1RIQA5GPT/xCqrBVjeqQLWNBUGYs9LBPWi3QDAmPcAHh6vB6t1hQJ176L8rjarBStb2QPGy
XD8sg6vB61v5QLw2KkFLbMnBlsMAQb7pD0F02M7BthUOQbllAkHC8rvBFgAKQbeyHEGZhrbBLyLE
QLLyqUCar6TBoEj1QINGoUCe0KvBnCzAQPBbH0CHsbrBNf6KQAu8REBV4bfBMqPEQGaeG0FPjrvB
8+/0QGB8LkCzjajBC7CSQGEWYEDZo4TBiNLGQOo5MEAcvIPBV7XBQOyKkEB8J4bBlNNJQJnKjEAu
x97BIB2QQKjScED/yNbB7Kw+QDKGiUDcf9DBZXdcQLlXSECZG6fBhwATQNMKV0AgppfBYfJJQNf3
ZECxvYvBfeGsQDmb7r8rlqvBNTiGQE3ilb99GqrBDV7TQIaJgj7xA6zB6NmsQGyVeT/0KqrBYWDT
QD4mk7+8oazBJMuFQPfacT4QiKnBHWynQALU7UDWtMrBBx2wQKgU+EAf8L/BZRylQFxcwkAZpc3B
7W6yQOxFr0D/1rvBpgzdQGW6TECCEJrBdmiPQFLBT0BdN5jBLFTRQMxXIkEFfcHB6oHYQKfAGkF5
47XBjpDTQA7ek0ChparB3SenQDh7RkD/A7XBuH+xQDUEE0FiNLzB4lrXQMm2TEBwNabBH+usQL2n
IUAWuanBFDa9QGMiX0CG1YfBxoqdQP1nikBdwtrBDXu1QJaa2EDhs7jBLCWqQHbbo0DIEMbBmGS4
QC15j0AjTbTBy5m4QFMdUEBaf5PBZgeKQL1XQkDXiKLB5eRVQBdqXkBZEZLBkasAQZOFUkCHYpbB
D9+dQI/Ct0COQtjBNpD4QOnb578CR67BDZ0+QIDlWD92fajBY3mhQEJ+BkESGdLBjgKtQNZePMAj
7KvBUDhRQDJG3L+NZanBqBHxQJlaSz/J9azBHRTIQEEFM0FdFsPBMGbmQKeaHEFe7cfBkbTyQK6X
D0HiCrTBfWLUQEgCJkHiM6/Be1bEQLgmqUABw6TBlkbzQA2PoEAcxqzBz0C5QO2rIECN5rrBgSCF
QDZrR0CDQ7fB5KiSQCAVGkEZ27nBAn/yQFK/K0CFAarBgmWdQG2oX0C0EYTBpqzQQHrAK0ACTITB
Vf7MQPSQjkDCfIbBt4qXQDUAhkA3XOPBn7K8QOuleECuqtjBoCOEQK0EdUCBJNbBLq5aQI6BTkBe
vKXBeyccQJd6XkC/hJXBRkxbQPTeaEBINIrB3G6vQHTZ7L/Zg6vBPFG/QK4ri78ZFbTB25CeQEOw
Sj7u4qHBeeSsQFSmfj/QnarBHamfQOtPmr+mWKLB9hW/QFzdpD4HoLPB+1KnQJFx7kCAysrBeUew
QI6e+EA+AMDBUe2lQGYfw0BOxs3Bhte0QApor0B7LbzB323cQM0JTEBRMJrB7fiOQK+hT0BY3JfB
Ogm/QBXzJUGhJMPBPCfcQGAKHkEBBbrB0krTQIw3k0CJxqrBY1ifQLGnUUAKWLTBTf6wQEE4E0Hi
+bvBpr3VQLk2S0D0WabBP3eqQKERI0DGt6nBoDS+QCWKYUDU0IfBFZxlQLwNsEBG0trBTty2QNa8
2EBd4LjBTiqsQOxgpEDGacbBxfm7QMGUjkCQ+LTBwZm4QBIkUUA7bZPB2R6IQLEFPEDu86HBYFNW
QMgLYEA1j5HB7n0AQa7NUkDysJbBJhqfQInft0CLQ9jBKn2RQGtM97+O7ZnB9YLRQGoZfT/v17vB
cjufQLR7BkFsMtLBkVuvQJtxO8A/+6vBlNLLQBHeyr+XFbvBhJySQJeXLj+5w5rByeeuQFiKNUHv
gMLBagTIQGgGI0F2hsvBtgH6QB9/FUEl47vBFeXgQA8DKEGe3bLBY7zBQDBBqEBlQKXBcYnzQP07
oEBXJKzBkfKkQPPtJkBBMrvBdVh7QEUqZkCtS7TB7PWXQJg0F0GCHrbBSyHwQLdpKEAtOarBELKe
QFRFY0A75oPBQ6fRQKArLkAxRYTBP2/OQOmqj0Clq4bBo+1fQCBEp0AoUOPBoTxNQBrClUC/09XB
RApAQMMrzUDrRdnBmu9TQPvkPUAcn6TBZL8bQBKpXEAGwZTBwXZdQJ44b0DE1onB

> <OMEGA_E>
IJ+hPfj5fz4AgTA+CAOrPmzErD4=

> <OMEGA_NBR>
     83519

$$$$
220604
  -OEChem-04172616093D

 50 53  0     1  0  0  0  0  0999 V2000
    4.5723    0.2275  -20.6321 C   0  0  0  0  0  0  0  0  0  0  0  0
    4.6220   -1.1732  -20.6653 C   0  0  0  0  0  0  0  0  0  0  0  0
    6.5721   -1.0751  -22.1173 C   0  0  0  0  0  0  0  0  0  0  0  0
    5.5315    1.0061  -21.3322 C   0  0  0  0  0  0  0  0  0  0  0  0
    5.6235   -1.8241  -21.4013 C   0  0  0  0  0  0  0  0  0  0  0  0
    6.5352    0.3302  -22.0919 C   0  0  0  0  0  0  0  0  0  0  0  0
    5.5060    7.3317  -25.4139 C   0  0  0  0  0  0  0  0  0  0  0  0
    6.0880    7.6622  -24.1676 C   0  0  0  0  0  0  0  0  0  0  0  0
    4.9805    6.0399  -25.5927 C   0  0  0  0  0  0  0  0  0  0  0  0
    5.6897    5.4901  -23.4360 C   0  0  0  0  0  0  0  0  0  0  0  0
    6.8236    3.1977  -19.1968 C   0  0  0  0  0  0  0  0  0  0  0  0
    4.3966    3.2190  -19.1378 C   0  0  0  0  0  0  0  0  0  0  0  0
    6.7518    4.5986  -21.3137 C   0  0  0  0  0  0  0  0  0  0  0  0
    5.3216    3.1536  -22.6337 C   0  0  0  0  0  0  0  0  0  0  0  0
    6.7694    3.1855  -20.7233 C   0  0  2  0  0  0  0  0  0  0  0  0
    5.4698    2.5436  -21.2539 C   0  0  2  0  0  0  0  0  0  0  0  0
    5.6675    3.2710  -16.9840 C   0  0  0  0  0  0  0  0  0  0  0  0
    3.5687    4.4910  -26.7708 C   0  0  0  0  0  0  0  0  0  0  0  0
    6.6149    9.0557  -23.8907 C   0  0  0  0  0  0  0  0  0  0  0  0
    6.1767    6.7249  -23.2054 N   0  0  0  0  0  0  0  0  0  0  0  0
    5.0850    5.1447  -24.5928 N   0  0  0  0  0  0  0  0  0  0  0  0
    5.8126    4.5290  -22.4632 N   0  0  2  0  0  0  0  0  0  0  0  0
    5.6322    3.1780  -18.4605 N   0  0  0  0  0  0  0  0  0  0  0  0
    4.3164    3.0282  -20.4339 N   0  3  0  0  0  0  0  0  0  0  0  0
    3.2119    3.4487  -18.4515 N   0  0  0  0  0  0  0  0  0  0  0  0
    7.9110    3.3458  -18.6502 O   0  0  0  0  0  0  0  0  0  0  0  0
    4.3367    5.7221  -26.7769 O   0  0  0  0  0  0  0  0  0  0  0  0
    5.6712   -3.1731  -21.4238 F   0  0  0  0  0  0  0  0  0  0  0  0
    7.4792    0.9950  -22.8019 F   0  0  0  0  0  0  0  0  0  0  0  0
    5.4133    8.2438  -26.4095 F   0  0  0  0  0  0  0  0  0  0  0  0
    5.6425    9.9690  -24.1455 F   0  0  0  0  0  0  0  0  0  0  0  0
    7.6916    9.2927  -24.6823 F   0  0  0  0  0  0  0  0  0  0  0  0
    6.9894    9.1811  -22.5881 F   0  0  0  0  0  0  0  0  0  0  0  0
    3.7950    0.7204  -20.0671 H   0  0  0  0  0  0  0  0  0  0  0  0
    3.8884   -1.7518  -20.1236 H   0  0  0  0  0  0  0  0  0  0  0  0
    7.3342   -1.5817  -22.6908 H   0  0  0  0  0  0  0  0  0  0  0  0
    6.3952    5.3240  -20.5676 H   0  0  0  0  0  0  0  0  0  0  0  0
    7.7573    4.8870  -21.6540 H   0  0  0  0  0  0  0  0  0  0  0  0
    5.9300    2.6087  -23.3706 H   0  0  0  0  0  0  0  0  0  0  0  0
    4.2689    3.1500  -22.9529 H   0  0  0  0  0  0  0  0  0  0  0  0
    7.6354    2.6338  -21.1178 H   0  0  0  0  0  0  0  0  0  0  0  0
    4.6412    3.2392  -16.5895 H   0  0  0  0  0  0  0  0  0  0  0  0
    6.2429    2.4263  -16.5772 H   0  0  0  0  0  0  0  0  0  0  0  0
    6.1450    4.2166  -16.6876 H   0  0  0  0  0  0  0  0  0  0  0  0
    3.1052    4.3425  -27.7572 H   0  0  0  0  0  0  0  0  0  0  0  0
    4.2348    3.6446  -26.5476 H   0  0  0  0  0  0  0  0  0  0  0  0
    2.7838    4.5525  -26.0025 H   0  0  0  0  0  0  0  0  0  0  0  0
    3.4476    3.2148  -20.8926 H   0  0  0  0  0  0  0  0  0  0  0  0
    2.3426    3.4639  -18.9456 H   0  0  0  0  0  0  0  0  0  0  0  0
    3.2278    3.5989  -17.4629 H   0  0  0  0  0  0  0  0  0  0  0  0
  1  2  2  0  0  0  0
  1  4  1  0  0  0  0
  2  5  1  0  0  0  0
  3  5  2  0  0  0  0
  3  6  1  0  0  0  0
  4  6  2  0  0  0  0
  4 16  1  0  0  0  0
  5 28  1  0  0  0  0
  6 29  1  0  0  0  0
  7  8  1  0  0  0  0
  7  9  2  0  0  0  0
  7 30  1  0  0  0  0
  8 19  1  0  0  0  0
  8 20  2  0  0  0  0
  9 21  1  0  0  0  0
  9 27  1  0  0  0  0
 10 20  1  0  0  0  0
 10 21  2  0  0  0  0
 10 22  1  0  0  0  0
 11 15  1  0  0  0  0
 11 23  1  0  0  0  0
 11 26  2  0  0  0  0
 12 23  1  0  0  0  0
 12 24  2  0  0  0  0
 12 25  1  0  0  0  0
 13 15  1  0  0  0  0
 13 22  1  0  0  0  0
 14 16  1  0  0  0  0
 14 22  1  0  0  0  0
 15 16  1  0  0  0  0
 16 24  1  0  0  0  0
 17 23  1  0  0  0  0
 18 27  1  0  0  0  0
 19 31  1  0  0  0  0
 19 32  1  0  0  0  0
 19 33  1  0  0  0  0
  1 34  1  0  0  0  0
  2 35  1  0  0  0  0
  3 36  1  0  0  0  0
 13 37  1  0  0  0  0
 13 38  1  0  0  0  0
 14 39  1  0  0  0  0
 14 40  1  0  0  0  0
 15 41  1  0  0  0  0
 17 42  1  0  0  0  0
 17 43  1  0  0  0  0
 17 44  1  0  0  0  0
 18 45  1  0  0  0  0
 18 46  1  0  0  0  0
 18 47  1  0  0  0  0
 24 48  1  0  0  0  0
 25 49  1  0  0  0  0
 25 50  1  0  0  0  0
M  CHG  1  24   1
M  END
> <OMEGA_C>
TlCSQFj7aD6BDqXBFueTQGgqlr96UqXBkk7SQCacib9N8LDBOAKxQITHgD9YqKrBFvSzQEp86b/r
NavBHiDRQH0QqT4rvLDB7TCwQD6d6kClT8vBqNDCQK0w9UAlV8HB8l+fQLRGwUDVvczB3xG2QM2u
r0DZfLvBMFvaQJemTED4kpnB67CMQEsDTkBOGpnB2Q7YQOYnk0BngqrBrEqqQGzUSUDfEbXBwJ7Y
QOjeS0BJyaXB3AivQL/JIkAGCKrBHVy1QN5XUUBK34fBeGVkQKq2j0CQKtbB8KzTQAjkEEEwIL/B
aqfFQLky10CkpLnBcLiiQGyhpEAlvsTBJQG6QF3tkECrtLPBIzu0QOljS0Acr5PBvR+KQHPOQUCm
eKPBio9NQLW2XECVnJPBGyf9QJghVkCcM5XBPcaKQDUbt0AeN9bBP3q1QLkUS8DZY6vB8FXvQHO6
fj80arbB9TmtQHXmA0GQRtPBqI+0QDWBH0HwKcHBViH2QPauFEFEdcXB0KjfQJ7lEkFVtLTB6uBy
QMBuOD9viaDBG9t4QH084L8t/aDBKbLqQHV1yr+4hrXBE6XMQPVdqkBliqTB2zv4QHRinEBZO63B
y8K9QFj1JkDz9rrBGpuIQAaZSUB2n7fBLlX0QLSPKEA38ajBhISUQKBPT0BFt4TBnsXHQC9JG0AZ
noTBFKTEQBjuhkBJgIXBAbtGQAL2ikDQDt7BXoOHQMBAaUB/YdTBkyoyQA2ukUAkBdDB4qRcQKK+
TUD+I6fBm+0VQFewXUCMkJfBUpROQNhTZkAVtIvB8q3TQFi83j5nKbDBNPXXQNKxdL+YArHBvkOW
QOBAn7+E1KbBK+CwQN8lgj+YharBUmy5QBjR5b8CRazBrGORQAGPGT5fAKbBq3muQO916kBwNcvB
hB/BQDQs9UAZQMHBaraeQFy/wEBTs8zBBRC3QFD4rkCMmbvBndzZQDiZS0DeaJnB/T6MQFjFUEA7
C5nByX7XQMhYk0CXQarB5UqrQF5lSEDlCrXB3jjYQD8aTEAonqXBMneuQAeEI0AN2anBSn+0QHM6
TUBfvYfBX2VpQLsVjUD6W9bB353QQBIYEUEa977B3U7FQKXp1kBFp7nBynijQJnQo0BF0MTBuSi8
QLzvj0BQ77PBsJmzQHcPS0DRkZPBcN+JQC+5RUDUcaPBUcFMQE9lYEDfkZPBwcT8QGGvUEAp+5TB
QseJQJR0tkCUH9bBDqC9QM6tSMD+Bq3BZ9VbQG14Gj9u9qDB/b6qQOjiA0EFINPBOI2wQD49H0Hb
6cDBQa7yQKiAFUGCVMXB/afcQLEjE0EOjbTBpD7rQGmyiT/Z27PBT7PyQCqmsL+1TbXB0oJ9QEPY
8r8vQKPBHZzJQDEEqkD4fKTBDv73QHDJnUARaKzBzr++QEcMI0C1srrBrtiJQGF8SUBEyLfBWtrz
QGbkKEDW1ajBTY2TQMlqTEB7pITB+OfFQGX8FEBDuoTBX7bEQIbyg0AMDYXBoo1KQHx3iEBjL97B
/H2MQH1ZZ0AoDtXByLE4QDu/i0B5A9DBXUtdQDa3VEAuNafBUE0VQGDkYkA4jZfBoapNQM4maUBW
pYvBpzrTQDbP1T6+G7DBlmXXQKO2eb9HyrDBLd+VQH7Xnr+PgabBHJmwQD15gT9nfarBSPy4QAby
5r8K4KvBIg6RQPMOHj6A3KXBKtmuQLWh6kARL8vB1tTCQLrG9ED+V8HBu5SeQBEUwUBUqszBEBW3
QHzurkDZmrvBxN3ZQIKrS0Blb5nBszeMQD4PUEAyHZnBIrTXQPEik0DjUKrBEZSrQD8ESEBnGbXB
u0zYQLizS0BSpqXB2oeuQCJAI0D25KnBGFC0QPILT0DIyIfBLwNnQOYFjkAsP9bBQtvRQBLpEEHA
3r7BGBHGQL2d1kB8srnB90mjQCQBpECDzsTBoua7QB/sj0B567PBsIuzQDgOS0BWnJPBgwOKQFTf
RUAzh6PBa01MQEUgXkAxqpPB7K/8QAOdUkB5AJXBoS2JQBsZt0C3C9bBClC9QAdXScB9XazBpzFb
QKTYHT9r3qDB7juqQLQmBEGG/NLBDijqQLOJGEFhBsfBaNTpQMQoEUGUx7XB/x6vQAWlHUGVcL3B
7r3qQC9fhj8u67PB2PXxQKtttL/uFrXBo7F8QM1e8b+A1qLBsUPKQKv0qUDShKTBQC/4QHVMnUAI
kKzBonu/QDMrI0BbtbrBQj6KQLhaSEDZ7LfBnu3zQC1RKECg1qjBUliTQPvfTUA2tITBbAvGQIa3
F0AQoYTBliHEQBlChUAMOoXB+oRHQH+niUB/Ct7BkPuKQM2MaECX/9TBcLQ2QKwAjUC72c/BMvhd
QE3VVUBHUafBvfYUQFItYEDnrJfBUc1MQBE1ZkCmuovB1N+RQEfscD6TMaXBZoCTQBUplb+ZeqXB
NIzSQHAWiL/i4LDB4/awQGrqgT+rpKrBIPGzQN0t6L+AQKvBA1nRQDrorj7epbDBOyCvQHcE60Do
P8vBO2XCQNFd9UA/VsHBxvmeQJNuwUCjv8zBq9O2QM6Dr0BSnrvBnkPaQJBzTEBnhpnBfZ2MQIOe
TUD3DZnBtUzXQMmck0DVVarBSzmqQHrkSUAAFbXBvHTYQGeVTECGvKXBl/auQItKI0CLAqrBlBS1
QNevT0D20YfBej5oQOlXjkDHXdbB0V3SQNYXEUH0Bb/BgbvFQCo210DCsbnBeUKjQK2FpEDi18TB
N7S7QOZrkEAi+LPBzyC0QHSeSkBdo5PBchCKQBJbQkCGcaPBrYFNQJDJW0CLhZPBEhL9QJykVUAC
JpXB0XiKQGoRt0AHOtbBC6a1QNhnSsAuaKvB3LjvQAckgT+IQbbBV2erQGM+BEEBIdPBskjvQInn
FkEulsbBfYzlQEsGEkFMQbXBq72wQAfaHkG2Gr/BOVtxQOQTOj/0xqDB0IZ3QF1y379JQKHBrSTr
QLC8yL9gaLXB5H3JQC4YqkCQgqTBpq73QNM+nkCziKzB8Y+8QMT0JEDFAbvBAWCIQPcITEBge7fB
10n0QL8JKkA59ajB6TGUQIdJTUA4soTB9H/HQMd1GUDLnITBJUTEQKIKhkA+XYXB4ldKQIiTiUBW
Pt7BIQGLQPSjaEAP0tTBtoI2QK9EjkBRI9DBgLNcQMwLT0B1HafB2M0VQMAeXUAkdZfBwalOQAqp
ZECpmYvBEY7MQHQooT48dLDBX9PNQBhvi79ZQ7HBWM2PQAUIoL+nmKXBM9qsQINfdz+XLarBHIGv
QAyR779ZzKvBXPeNQP35Gj63x6TBHc2mQJqt7UDLq8rB4eSuQLpz+ECo0r/B0Q2lQGQfwkBXi83B
3ZWyQK5Zr0AdwbvBO+TcQAdjS0ApGJrBdUuPQNXMUUCpTZjBlaTVQDBZkkCU7arBqrSmQE/+RkDb
BLXB7GPXQKGnSUBXQqbBpFGsQN9qIUCeuanBhgS9QDmBXkAw34fBmiKeQIPwiUCLotrBoEGwQHNN
E0HZubvBB0q1QKy+2EAXo7jBhUuqQKbKo0DC9MXB8Rm4QHqAj0B9MLTBfWm4QI9NUEAijpPBJduJ
QDnLREC2pKLBA69VQDniX0DeIJLBLpIAQbqYUUC0ZZbBVxOeQHxOt0B9KdjBaJuwQEIcTsAjhKzB
uY5bQDhBKT+ezp7BoNCgQH/pBUH4UNLBHTKqQNInIkGvg8PBzfbWQEcEF0EzH7fB+jeRQOoIFkEM
OLTBiQvkQN0AaD9sq7TBdh3mQKBkyL8DFrbBNCRxQBhd7b/1Z6HBFUvJQDkIqUD08qTBpaL1QF6e
nED1jK3BNce4QI5nIUBJ7rrBtbOEQPVgSEB7SbfBsfjxQOoIJkBl7anBNSidQGN0YEB8I4TBj8PP
QJ/5KUAjW4TB247NQIHOjUDCdYbBNFCYQP5ohUBTPePBuVy9QBc7eEB0gNjB+8aEQN3Hc0AmCdbB
TgtbQD0mU0Ba5qXBjOUbQCbeX0AckZXBEidbQJABakA7QorB

> <OMEGA_E>
AJ2QPRDouj0A1rs90JaQPViGpT4=

> <OMEGA_NBR>
     88049

$$$$
220607
  -OEChem-04172616093D

 50 53  0     1  0  0  0  0  0999 V2000
    6.5676    0.4465  -22.0747 C   0  0  0  0  0  0  0  0  0  0  0  0
    6.7098   -0.9437  -22.1807 C   0  0  0  0  0  0  0  0  0  0  0  0
    5.5110    1.0215  -21.3195 C   0  0  0  0  0  0  0  0  0  0  0  0
    5.7933   -1.7907  -21.5414 C   0  0  0  0  0  0  0  0  0  0  0  0
    4.5769    0.1470  -20.6861 C   0  0  0  0  0  0  0  0  0  0  0  0
    5.4900    7.3275  -25.4218 C   0  0  0  0  0  0  0  0  0  0  0  0
    4.7305   -1.2464  -20.7986 C   0  0  0  0  0  0  0  0  0  0  0  0
    6.0892    7.6597  -24.1882 C   0  0  0  0  0  0  0  0  0  0  0  0
    4.9839    6.0272  -25.6016 C   0  0  0  0  0  0  0  0  0  0  0  0
    5.6977    5.4895  -23.4413 C   0  0  0  0  0  0  0  0  0  0  0  0
    6.8127    3.1882  -19.1900 C   0  0  0  0  0  0  0  0  0  0  0  0
    4.3862    3.2465  -19.1102 C   0  0  0  0  0  0  0  0  0  0  0  0
    6.7329    4.6048  -21.3006 C   0  0  0  0  0  0  0  0  0  0  0  0
    5.3100    3.1562  -22.6189 C   0  0  0  0  0  0  0  0  0  0  0  0
    6.7439    3.1891  -20.7154 C   0  0  2  0  0  0  0  0  0  0  0  0
    5.4306    2.5609  -21.2282 C   0  0  2  0  0  0  0  0  0  0  0  0
    6.5556    9.0707  -23.9093 C   0  0  0  0  0  0  0  0  0  0  0  0
    5.6749    3.2148  -16.9657 C   0  0  0  0  0  0  0  0  0  0  0  0
    3.5643    4.4770  -26.7705 C   0  0  0  0  0  0  0  0  0  0  0  0
    6.1767    6.7328  -23.2154 N   0  0  0  0  0  0  0  0  0  0  0  0
    5.1046    5.1326  -24.6022 N   0  0  0  0  0  0  0  0  0  0  0  0
    5.8036    4.5345  -22.4571 N   0  0  2  0  0  0  0  0  0  0  0  0
    5.6267    3.1726  -18.4438 N   0  0  0  0  0  0  0  0  0  0  0  0
    4.2964    3.0852  -20.4104 N   0  3  0  0  0  0  0  0  0  0  0  0
    3.2062    3.4517  -18.4073 N   0  0  0  0  0  0  0  0  0  0  0  0
    7.9092    3.2880  -18.6511 O   0  0  0  0  0  0  0  0  0  0  0  0
    4.3428    5.7013  -26.7858 O   0  0  0  0  0  0  0  0  0  0  0  0
    5.9356   -3.1300  -21.6444 F   0  0  0  0  0  0  0  0  0  0  0  0
    3.5207    0.5928  -19.9670 F   0  0  0  0  0  0  0  0  0  0  0  0
    5.3692    8.2485  -26.4049 F   0  0  0  0  0  0  0  0  0  0  0  0
    3.5933   -2.3047  -19.9971 Cl  0  0  0  0  0  0  0  0  0  0  0  0
    7.2738    1.0918  -22.5759 H   0  0  0  0  0  0  0  0  0  0  0  0
    7.5240   -1.3619  -22.7538 H   0  0  0  0  0  0  0  0  0  0  0  0
    6.3696    5.3283  -20.5560 H   0  0  0  0  0  0  0  0  0  0  0  0
    7.7411    4.8943  -21.6317 H   0  0  0  0  0  0  0  0  0  0  0  0
    5.9296    2.6002  -23.3379 H   0  0  0  0  0  0  0  0  0  0  0  0
    4.2632    3.1523  -22.9570 H   0  0  0  0  0  0  0  0  0  0  0  0
    7.5989    2.6299  -21.1231 H   0  0  0  0  0  0  0  0  0  0  0  0
    6.9255    9.1376  -22.8755 H   0  0  0  0  0  0  0  0  0  0  0  0
    7.3653    9.3335  -24.6060 H   0  0  0  0  0  0  0  0  0  0  0  0
    5.7154    9.7678  -24.0438 H   0  0  0  0  0  0  0  0  0  0  0  0
    4.6510    3.1946  -16.5642 H   0  0  0  0  0  0  0  0  0  0  0  0
    6.2323    2.3431  -16.5922 H   0  0  0  0  0  0  0  0  0  0  0  0
    6.1776    4.1379  -16.6416 H   0  0  0  0  0  0  0  0  0  0  0  0
    3.1045    4.3219  -27.7577 H   0  0  0  0  0  0  0  0  0  0  0  0
    4.2219    3.6274  -26.5349 H   0  0  0  0  0  0  0  0  0  0  0  0
    2.7761    4.5534  -26.0070 H   0  0  0  0  0  0  0  0  0  0  0  0
    3.4394    3.3215  -20.8685 H   0  0  0  0  0  0  0  0  0  0  0  0
    2.3322    3.4722  -18.8928 H   0  0  0  0  0  0  0  0  0  0  0  0
    3.2305    3.5789  -17.4158 H   0  0  0  0  0  0  0  0  0  0  0  0
  1  2  2  0  0  0  0
  1  3  1  0  0  0  0
  2  4  1  0  0  0  0
  3  5  2  0  0  0  0
  3 16  1  0  0  0  0
  4  7  2  0  0  0  0
  4 28  1  0  0  0  0
  5  7  1  0  0  0  0
  5 29  1  0  0  0  0
  6  8  1  0  0  0  0
  6  9  2  0  0  0  0
  6 30  1  0  0  0  0
  7 31  1  0  0  0  0
  8 17  1  0  0  0  0
  8 20  2  0  0  0  0
  9 21  1  0  0  0  0
  9 27  1  0  0  0  0
 10 20  1  0  0  0  0
 10 21  2  0  0  0  0
 10 22  1  0  0  0  0
 11 15  1  0  0  0  0
 11 23  1  0  0  0  0
 11 26  2  0  0  0  0
 12 23  1  0  0  0  0
 12 24  2  0  0  0  0
 12 25  1  0  0  0  0
 13 15  1  0  0  0  0
 13 22  1  0  0  0  0
 14 16  1  0  0  0  0
 14 22  1  0  0  0  0
 15 16  1  0  0  0  0
 16 24  1  0  0  0  0
 18 23  1  0  0  0  0
 19 27  1  0  0  0  0
  1 32  1  0  0  0  0
  2 33  1  0  0  0  0
 13 34  1  0  0  0  0
 13 35  1  0  0  0  0
 14 36  1  0  0  0  0
 14 37  1  0  0  0  0
 15 38  1  0  0  0  0
 17 39  1  0  0  0  0
 17 40  1  0  0  0  0
 17 41  1  0  0  0  0
 18 42  1  0  0  0  0
 18 43  1  0  0  0  0
 18 44  1  0  0  0  0
 19 45  1  0  0  0  0
 19 46  1  0  0  0  0
 19 47  1  0  0  0  0
 24 48  1  0  0  0  0
 25 49  1  0  0  0  0
 25 50  1  0  0  0  0
M  CHG  1  24   1
M  END
> <OMEGA_C>
zinSQCSc5D7tmLDBZLbWQOCUcb//cbHB6VmwQJ6/gj9TjqrBy2K5QLE15b/WVKzB1nWSQN56Fj4n
faXBNq6vQN566kDQX8vBOGCXQG+Ln7+MY6bB9drCQKgc9UBigcHB6nufQNjewEAj0MzBgFO2QBmq
r0DEh7vBoAHaQCULTEAShZnBiFuMQDXGT0C94ZjBx3PXQG1ak0C0Z6rBHeupQMj+SUB287TB8M3X
QK8aTEA4uaXB3MetQHjlI0B006nBjcfRQHkhEUFDRr/B05i1QKa+TUDTuYfBKh1kQPlDj0D+KdbB
rafFQBpz10ASubnBsVijQPE9pEBa0cTB87a5QMkakUAsqLPBGg60QOILS0DvjJPBPXyJQIpzRUCZ
SKPBSDJNQHDoXEA7QpPBFhj9QBFvUkBcNZXBWfiKQNJwtkA/SdbBf/C9QLVSSMC/J63B91NhQDXB
Fz93vJ/BudCrQN75A0ErPdPB0PdlQGSAE8AB+p/Bu8LoQJfBiz+Bm7TBYsTwQKpTrr/dB7bB3NPL
QJSBqkCccqTBa7f3QBqenEC3Da3B8b69QCNqJkAKtLrBH2yIQEe/SUDXp7fBcirzQJFQKEAa/KjB
ZZ3dQHkzEkEMAbfBQrDrQBlWFUES2cTBiuS2QMxIHEHCWcDB59SUQMl0TECVg4TB+27HQK/1FUC/
vITBKK/FQK9phEDyIYXBm7BGQF5NikDJD97BChqHQKMmaEBnR9TBXKsxQIy1kUBeDtDB7B9cQOGS
VECb8qbBGkIVQMk4XkBkJJfBDcFOQDYNZUB9U4vB3AGQQPyPij6A3K7Bm+aPQFRukb+caq/Bju6y
QDBOeD+LO6rBULyyQEE9778BXKvBm9jVQEsoVj6AEabBP6uvQO1/7EBTPcvBEJbVQGLemL/cuKbB
imfGQKW19EAtt8HBCXqdQJOjw0Cnu8zBk2G4QA7erkAhDbzB8fDZQAlbU0DURpnBhuqLQLQNTEAr
6ZjBv6LTQIKWlUDEGKrBa8GrQKxGRkAdCrXBhhPYQHWWUUBkhaXBEUSwQKr6IEC8sqnBaK/aQJP8
D0HOtL/BxBq0QGoNY0CRwIfBqQFqQLNdkED4+NbB+0jKQIK61UDFSrrBYViiQOGMpUC3DsXBq9C8
QKmFj0D+UbTBt4SzQLWTUkD3cJPBJ+SJQMYYOUAYLaPB5thKQLSAWUCJipPB7M/8QCAxXEDG5ZTB
8eqGQNcUu0BVCtbBEKiyQEgcTsDT4avBlC74QMagRT91TqHBdFirQEqcBUF5ztLB744AQa4xBsCC
pKHBc0dqQMo1Uz9jALLBSB5qQG2J07+B9bLBTgDBQA0YqkBeq6TB2ErzQJP7o0B7davBwHm+QLZp
IEDHy7rBjfeJQB4SR0AkgbfBozL1QNgwM0DkrqjBn9bqQBTgD0FE47fB8DHyQNFkE0HAB8bBV8HB
QFtpHEFLvr/BZkmTQDvVX0BymITB3gHIQC+EMkCbxIPBTHfBQIyDkUCwOYbBEupHQH9ojUDiot7B
nPGOQF04cUB7o9bBiBQ9QJO2ikCtWNDB4LFaQG7nOkAUyabBtlkTQN6jVECkepfBYRhLQG8EaEDq
v4vB21jSQFUrAD8VNbHBJhnVQI8rYr+W2LLB8KOxQCbvhz/6tarB+Qa4QArn3r9Owq3BZCOUQLwJ
ND5lpaXBhtKpQOEW50CuDszBPBuYQEhIm79cD6fBqNObQL5zvEAvrszBDVm/QEvQ9EAAw8LBlE64
QFHhr0AMtLvBArPZQFQMTEDeCZnBigSMQDh+UECe55jBmW3YQCIulUAu4KnBePurQFAETUA0s7TB
hdnYQCCRTkBsTaXB106vQCZpJkBgqKnBFUCBQHN+rEBj+tXB2yOzQAwzSkD3eofB8mPhQPwZFkEh
hbjBNCSjQB8JokBffcTBd5vGQLSS2EDXr7rBLhy9QC0skkDGnLPBhg6zQAQTSkDKUZPBpFKKQIpB
R0CgU6PBYDtLQMIiXUDoipPBGFf8QDTFTkB0c5TBCijLQCC2D0HVHsLBQw67QAbgRMCDPq/B+FJn
QE/eGj80YJ/BXz6iQPVaAUEZK9TBWpRqQLVcEsDySqDBi3/pQEh0kz/58rTBHpHtQEvkpL+HBLjB
A5PKQHu3q0AJEqTBvwD5QMeJn0AR+qvBiRS/QIP4J0BFdrrBiW2KQBPMTkCRWbfBcJ30QHueK0D+
fajBladuQKNEi0Aad9TB6G1JQATKwEDp39bBPWKUQIbUrUBiW93BxP2RQHl8SEAoh4TBvYHEQDCk
EUDci4TB8P7CQDpIgkCNkITBVQbpQOBCJ0G78rjB5erMQMgPE0FXhrHBQS7/QCjZDEErxLfBi6Re
QA/CVkBnKKfBrDwUQL/nXkDioJfBd+tKQHB4ZEBtmIvB2R+PQJUvlj64Fq/BDeSOQEdnjr+6vK/B
XD2yQG0pfD/leqrBAcmxQOkN7b+cyqvBJzfVQGYZXz71bKbB5iCvQFtx7kCPBMvBTNLUQCyll7+k
K6fBAJWcQK3JxUCdp8zB+BfGQD7c9UDxfsHB8Gm3QN+Mr0A1JLzBeA3aQP9VU0Dcf5nBYwqMQIFw
TEAP+JjBpDzTQIHdlUDpRarBJdGqQI+CR0DsL7XBh8DXQH8JUkCPv6XBwrmvQIndIUBX3qnBIoKD
QBkxvEDHu9bBstm0QC8wYkAN4IfBb9rvQAhLEUEZwLXBYx+hQKgEp0C3LcXBA6LJQC4S1kDTPLrB
UQW8QGP/j0BYeLTBQNazQL9wUkBWlJPB5aCJQH31OUA6PqPBsYNLQNHmWUDCgZPB3xb9QFyoW0DK
L5XBtajYQATIDkHFvr/BlJOxQGn5TMBTZ6zBnLv3QF3/RT9/sKHB//+qQOziBkEVb9LBszUAQXwh
BsCPOqLB/GloQLVgWj8XJLLBXtFnQCvJz7/+Q7PBotPAQBhTqkCFyaTBjd/yQKU4pEBusKvBzD69
QP+wIUC6AbvB6+6IQDeXSEA/kbfBbbf0QN2VM0DF/ajBqYxvQL8Fm0DtdtbBjFRQQGg80kAYUdfB
cVyYQEJawEAUv93BGCOUQEL6XkC3poTBzc/IQFtIMUAe+4PBjl3CQN39kEC7UIbBqAv9QAWVIUFn
RbXB0PPZQICYDkGS/q7B4Q8FQRqZBUF5arXBmuxZQCkhPEC4yabBUrsTQJRmVUBSY5fBY1lMQEsQ
aEC1tIvB

> <OMEGA_E>
IIlrPZBzOT4oRYc+cKC9Pg==

> <OMEGA_NBR>
     91732

$$$$
220602
  -OEChem-04172616093D

 54 58  0     1  0  0  0  0  0999 V2000
    6.6313    0.4185  -21.9837 C   0  0  0  0  0  0  0  0  0  0  0  0
    6.7211   -0.9724  -22.1286 C   0  0  0  0  0  0  0  0  0  0  0  0
    4.6384   -1.2292  -20.8982 C   0  0  0  0  0  0  0  0  0  0  0  0
    5.5443    1.0156  -21.2909 C   0  0  0  0  0  0  0  0  0  0  0  0
    5.7273   -1.7962  -21.5805 C   0  0  0  0  0  0  0  0  0  0  0  0
    4.5278    0.1653  -20.7596 C   0  0  0  0  0  0  0  0  0  0  0  0
    5.3555    7.3479  -25.3537 C   0  0  0  0  0  0  0  0  0  0  0  0
    5.9087    7.6662  -24.1024 C   0  0  0  0  0  0  0  0  0  0  0  0
    4.9407    6.0287  -25.5882 C   0  0  0  0  0  0  0  0  0  0  0  0
    5.7372    5.4411  -23.4662 C   0  0  0  0  0  0  0  0  0  0  0  0
    6.8194    3.1863  -19.1542 C   0  0  0  0  0  0  0  0  0  0  0  0
    4.3948    3.2775  -19.1350 C   0  0  0  0  0  0  0  0  0  0  0  0
    7.7317    9.4839  -24.1701 C   0  0  0  0  0  0  0  0  0  0  0  0
    7.3448    9.3299  -22.6953 C   0  0  0  0  0  0  0  0  0  0  0  0
    6.7551    4.6012  -21.2788 C   0  0  0  0  0  0  0  0  0  0  0  0
    5.3943    3.1082  -22.6302 C   0  0  0  0  0  0  0  0  0  0  0  0
    6.3061    9.0805  -23.7991 C   0  0  0  0  0  0  0  0  0  0  0  0
    6.7833    3.1895  -20.6851 C   0  0  2  0  0  0  0  0  0  0  0  0
    5.4828    2.5536  -21.2191 C   0  0  2  0  0  0  0  0  0  0  0  0
    5.6253    3.2270  -16.9564 C   0  0  0  0  0  0  0  0  0  0  0  0
    3.6011    4.4687  -26.8212 C   0  0  0  0  0  0  0  0  0  0  0  0
    6.1074    6.7039  -23.1858 N   0  0  0  0  0  0  0  0  0  0  0  0
    5.1381    5.0966  -24.6312 N   0  0  0  0  0  0  0  0  0  0  0  0
    5.9439    4.4653  -22.5207 N   0  0  3  0  0  0  0  0  0  0  0  0
    5.6155    3.1826  -18.4358 N   0  0  0  0  0  0  0  0  0  0  0  0
    4.3361    3.1043  -20.4354 N   0  3  0  0  0  0  0  0  0  0  0  0
    3.2038    3.5305  -18.4676 N   0  0  0  0  0  0  0  0  0  0  0  0
    7.9049    3.2467  -18.5877 O   0  0  0  0  0  0  0  0  0  0  0  0
    4.3148    5.7266  -26.7835 O   0  0  0  0  0  0  0  0  0  0  0  0
    5.8102   -3.1361  -21.7209 F   0  0  0  0  0  0  0  0  0  0  0  0
    3.4227    0.6358  -20.1365 F   0  0  0  0  0  0  0  0  0  0  0  0
    5.1770    8.5711  -26.5904 Cl  0  0  0  0  0  0  0  0  0  0  0  0
    7.4014    1.0471  -22.4059 H   0  0  0  0  0  0  0  0  0  0  0  0
    7.5533   -1.4087  -22.6609 H   0  0  0  0  0  0  0  0  0  0  0  0
    3.8789   -1.8706  -20.4760 H   0  0  0  0  0  0  0  0  0  0  0  0
    7.9294   10.4835  -24.5845 H   0  0  0  0  0  0  0  0  0  0  0  0
    8.4048    8.7522  -24.6407 H   0  0  0  0  0  0  0  0  0  0  0  0
    7.7377    8.4868  -22.1079 H   0  0  0  0  0  0  0  0  0  0  0  0
    7.2623   10.2182  -22.0518 H   0  0  0  0  0  0  0  0  0  0  0  0
    6.2824    5.3076  -20.5806 H   0  0  0  0  0  0  0  0  0  0  0  0
    7.7731    4.9446  -21.5147 H   0  0  0  0  0  0  0  0  0  0  0  0
    5.9916    2.5007  -23.3260 H   0  0  0  0  0  0  0  0  0  0  0  0
    4.3494    3.1372  -22.9728 H   0  0  0  0  0  0  0  0  0  0  0  0
    5.5320    9.8523  -23.9216 H   0  0  0  0  0  0  0  0  0  0  0  0
    7.6509    2.6390  -21.0779 H   0  0  0  0  0  0  0  0  0  0  0  0
    4.5911    3.2165  -16.5818 H   0  0  0  0  0  0  0  0  0  0  0  0
    6.1651    2.3511  -16.5670 H   0  0  0  0  0  0  0  0  0  0  0  0
    6.1275    4.1462  -16.6206 H   0  0  0  0  0  0  0  0  0  0  0  0
    3.1462    4.3343  -27.8137 H   0  0  0  0  0  0  0  0  0  0  0  0
    4.3017    3.6438  -26.6244 H   0  0  0  0  0  0  0  0  0  0  0  0
    2.8129    4.4713  -26.0540 H   0  0  0  0  0  0  0  0  0  0  0  0
    3.4950    3.3494  -20.9177 H   0  0  0  0  0  0  0  0  0  0  0  0
    2.3447    3.5749  -18.9774 H   0  0  0  0  0  0  0  0  0  0  0  0
    3.2052    3.6682  -17.4771 H   0  0  0  0  0  0  0  0  0  0  0  0
  1  2  2  0  0  0  0
  1  4  1  0  0  0  0
  2  5  1  0  0  0  0
  3  5  2  0  0  0  0
  3  6  1  0  0  0  0
  4  6  2  0  0  0  0
  4 19  1  0  0  0  0
  5 30  1  0  0  0  0
  6 31  1  0  0  0  0
  7  8  1  0  0  0  0
  7  9  2  0  0  0  0
  7 32  1  0  0  0  0
  8 17  1  0  0  0  0
  8 22  2  0  0  0  0
  9 23  1  0  0  0  0
  9 29  1  0  0  0  0
 10 22  1  0  0  0  0
 10 23  2  0  0  0  0
 10 24  1  0  0  0  0
 11 18  1  0  0  0  0
 11 25  1  0  0  0  0
 11 28  2  0  0  0  0
 12 25  1  0  0  0  0
 12 26  2  0  0  0  0
 12 27  1  0  0  0  0
 13 14  1  0  0  0  0
 13 17  1  0  0  0  0
 14 17  1  0  0  0  0
 15 18  1  0  0  0  0
 15 24  1  0  0  0  0
 16 19  1  0  0  0  0
 16 24  1  0  0  0  0
 18 19  1  0  0  0  0
 19 26  1  0  0  0  0
 20 25  1  0  0  0  0
 21 29  1  0  0  0  0
  1 33  1  0  0  0  0
  2 34  1  0  0  0  0
  3 35  1  0  0  0  0
 13 36  1  0  0  0  0
 13 37  1  0  0  0  0
 14 38  1  0  0  0  0
 14 39  1  0  0  0  0
 15 40  1  0  0  0  0
 15 41  1  0  0  0  0
 16 42  1  0  0  0  0
 16 43  1  0  0  0  0
 17 44  1  0  0  0  0
 18 45  1  0  0  0  0
 20 46  1  0  0  0  0
 20 47  1  0  0  0  0
 20 48  1  0  0  0  0
 21 49  1  0  0  0  0
 21 50  1  0  0  0  0
 21 51  1  0  0  0  0
 26 52  1  0  0  0  0
 27 53  1  0  0  0  0
 27 54  1  0  0  0  0
M  CHG  1  26   1
M  END
> <OMEGA_C>
wTPUQHBL1j6x3q/BIRPXQDnseL9ZB7HB0W2UQOpVnb+CL6fBiGqxQLEAgj++U6rBpUW3QGTq5b/L
pKzB6+OQQABNKT6zE6bB41+rQJ4h60Bl1MrBxRO9QBxR9UDB0cDBHRqeQALrwECvtMzBTZe3QIId
rkDYurvBfDjaQKHsS0DNO5nB66GMQD3CUUBpFJnB+Wn3QDS+F0FJXMHB1wjrQC1HFUH3j7XBlCnY
QAA9k0AGO6rBHp6sQNfsRkCUCrXBzsvJQKpJEUGlZL7B4xDZQDcgTEANe6XBa3OvQH9tI0CrwKnB
zgK0QK2GTkC1pofB0XhmQKT/jkDekdbBMXDDQDqG1kCefLnBEGukQAQXo0DHDMXBOzS+QKjjjkBZ
KrTBNbKzQJ+vS0CFfJPBGsGKQFmsRkC1e6PBfQtNQCfzYUCovZPB//T8QDnJT0CCs5TB0xKKQCZA
t0CDRNbB8ey5QJW1SMB/xK3BugxbQNrCIj+DF6HB8amlQAgjCUESudTBgtjsQIEIhj88P7PB+bTx
QO9QtL97SbXBXkB4QB5v77/zzqPBpr39QHW8J0EQrcTB+nkGQeYIDEEVIMXB5pr3QBvKB0ET3bDB
mWToQKp9I0EParDBKQnJQAjYqUARpaTBkL34QB46nkAJHqzBHLu/QJILIECnm7rBcS6LQG7ISEA8
yLfBAQaxQAqjHUFpX7/Bz9P0QBflKECen6jBg+qSQJjbTUCgp4TBKUjFQA15FkA8iYTBrRTEQP2t
hED/9oTBuFpJQMWyikBmgt7BLqeJQJIzaUDJ/tTBVwY0QA0Vj0CJbtDB1a5fQMVbVkBzV6fBVA8W
QKXLZEC80ZfBASJNQALEakAu0YvBPuSRQHAkhT6iRqXBDpWSQBnYkb/O26XBYhrSQGJohb85GrHB
OpuxQP2LhD93hqrBaquyQEUc5b+4vavBxOrRQHD0uD5djLDBXLWsQBQD60CXMcvBPHW9QIr49UBo
IsHBF9yeQJDpwEAB38zBhf63QEULr0CizbvBT3LaQHKPTECUSJnB2s6MQBi/TkBEAJnBYZbzQJY2
GkF9q8DBs/DjQF9HF0HxJbXBnqbXQJA7lED7J6rBFUSrQKQ4SkBXAbXBdlbGQKMIEkFMl77BlSDZ
QBbATUCViKXBPMyvQNx7JEBM4KnBcqm0QChvTEADpYfBgERiQJszkEDpRNbBGs3DQB+Z10AIrLnB
64KkQA6to0AJD8XBV5K+QGfZj0BzOrTBvxO0QK5fSkCZe5PBI7uKQNgOREBfZ6PBtGxNQEB0XUDp
lpPB+zf9QBh6UUCPyJTB2H2KQE/qtkA3XNbBQESzQEzVSMDAPqzBj/PwQKOFgz+b8LXBr6qnQIuv
CEF/S9XBK+hxQLzyQD+HyKDBUMl0QJjh27+lxqHB14rqQB08xr+qrLXBsXn4QBRnKkH05cPB0fwF
QdhdD0Hu9sPBqwLxQHNPCkEuLbDBuYLdQK5YJUE0HLDBkKDHQG1AqkCOlKTBliL4QAr6n0CI2avB
wWm8QJvfIkAW6brBPFeJQJnmTkArR7fB3jWsQM9xHUEGFcDBzhj1QGeIK0BCvKjBJaiTQBc5SkAn
mYTBF5PGQP7iFECYnYTBZDPEQNvcg0Cs64TBoQBFQA1xi0AQL97B5MaFQNp1aUCRXNTBh6svQL76
kkCmMNDBkJBeQJKNUUB2J6fB3i8WQJKSX0AJn5fB/8hNQMztZUD6qIvBhOWQQG0RhT4Tm6XB0JKR
QNL5kb80NqbBdN3QQNYUhb8QhbHBMaWwQBD3hD+O1KrBrqexQBkh5b9LGqzBR6rQQNmTuj4l87DB
lgOsQE1m6EDZ3MvBUTugQKJPvUDl98zBv8O8QLMx9kDKBcLBNtu4QN8nsEAWqrvBIGLaQOGlS0A0
XpnB9rOMQMNzTUB4A5nBFWA1QHK0mUB1FNTBrFx/QHPyekAP49fBiGLYQI1ylEA5E6rB9ySrQCGz
TECZ6rTBM3OGQCsErkBkeNbB4/nYQPRLTUC2laXBPGWvQD/sJEAI9KnBm8e0QObyS0DTuYfB/wHl
QAFgF0FGSbrBM3GmQNh8okD0ycTBYPDDQNeL2UAYELrBMAO9QHnUkUBvvrPBrhG0QNzGSEChjJPB
+3GKQJzvQ0DRbKPB/nVNQB2QW0BLhpPBfQP9QHC+VEA255TB5K/AQEnLEEEudsDBanqyQA3iSMAs
j6zBOZvvQCTrgz+jXbbB2uSjQEaXBkHmM9bBU9xvQHWBQD+fHKHBOr9yQOMZ3L+vI6LB4ynpQBKu
xb+kJrbBwZP9Pwvsn0BQatnBh5oeQIxVl0AsxsvBOuSOQJa7TUDaUNLBzfd9QJPoXkD+9N/BlqPK
QAzPqkA0NqTB++n4QPPgnkCcMqzBWGq9QGneJ0BR3brB5liJQB2hT0A8WbfBZ8yIQC4GwUCI2t3B
UL70QMibKkBF0ajBTtWTQNv5SEBxpoTBvSrHQFlCFUCloYTBIuHDQHv8g0CWGYXBnhLlQN/oKEFX
h7nBj0/jQGgbEEFoSLLBBkQBQeAnEkEgTr7BS/FdQBL1UUApIqfBNwwWQCwmXkCig5fBDyxOQPoj
Y0DTlIvB

> <OMEGA_E>
gMKnPYAUZj2Yy2Q+

> <OMEGA_NBR>
     94730

$$$$
220601
  -OEChem-04172616093D

 54 58  0     1  0  0  0  0  0999 V2000
    4.6167    0.2230  -20.5858 C   0  0  0  0  0  0  0  0  0  0  0  0
    4.6764   -1.1775  -20.6344 C   0  0  0  0  0  0  0  0  0  0  0  0
    6.5459   -1.0507  -22.1857 C   0  0  0  0  0  0  0  0  0  0  0  0
    5.5323    1.0144  -21.3273 C   0  0  0  0  0  0  0  0  0  0  0  0
    5.6406   -1.8138  -21.4314 C   0  0  0  0  0  0  0  0  0  0  0  0
    6.5073    0.3529  -22.1345 C   0  0  0  0  0  0  0  0  0  0  0  0
    5.4240    7.3579  -25.3783 C   0  0  0  0  0  0  0  0  0  0  0  0
    5.9870    7.6713  -24.1276 C   0  0  0  0  0  0  0  0  0  0  0  0
    4.9781    6.0461  -25.6024 C   0  0  0  0  0  0  0  0  0  0  0  0
    5.7295    5.4675  -23.4632 C   0  0  0  0  0  0  0  0  0  0  0  0
    6.8256    3.1936  -19.1830 C   0  0  0  0  0  0  0  0  0  0  0  0
    4.3991    3.2325  -19.1207 C   0  0  0  0  0  0  0  0  0  0  0  0
    7.5066    9.7166  -24.5404 C   0  0  0  0  0  0  0  0  0  0  0  0
    7.6646    9.3350  -23.0567 C   0  0  0  0  0  0  0  0  0  0  0  0
    6.7433    4.6005  -21.2966 C   0  0  0  0  0  0  0  0  0  0  0  0
    5.2962    3.1606  -22.6211 C   0  0  0  0  0  0  0  0  0  0  0  0
    6.3444    9.0829  -23.7836 C   0  0  0  0  0  0  0  0  0  0  0  0
    6.7675    3.1874  -20.7122 C   0  0  2  0  0  0  0  0  0  0  0  0
    5.4640    2.5501  -21.2402 C   0  0  2  0  0  0  0  0  0  0  0  0
    5.6716    3.2670  -16.9674 C   0  0  0  0  0  0  0  0  0  0  0  0
    3.5899    4.5048  -26.8079 C   0  0  0  0  0  0  0  0  0  0  0  0
    6.1338    6.7210  -23.1922 N   0  0  0  0  0  0  0  0  0  0  0  0
    5.1429    5.1225  -24.6331 N   0  0  0  0  0  0  0  0  0  0  0  0
    5.8805    4.5008  -22.5026 N   0  0  3  0  0  0  0  0  0  0  0  0
    5.6349    3.1819  -18.4446 N   0  0  0  0  0  0  0  0  0  0  0  0
    4.3139    3.0292  -20.4142 N   0  3  0  0  0  0  0  0  0  0  0  0
    3.2174    3.4803  -18.4358 N   0  0  0  0  0  0  0  0  0  0  0  0
    7.9153    3.3233  -18.6359 O   0  0  0  0  0  0  0  0  0  0  0  0
    4.3385    5.7444  -26.7913 O   0  0  0  0  0  0  0  0  0  0  0  0
    5.7048   -3.1618  -21.4641 F   0  0  0  0  0  0  0  0  0  0  0  0
    7.4264    1.0318  -22.8631 F   0  0  0  0  0  0  0  0  0  0  0  0
    5.2757    8.3068  -26.3312 F   0  0  0  0  0  0  0  0  0  0  0  0
    3.8656    0.7046  -19.9772 H   0  0  0  0  0  0  0  0  0  0  0  0
    3.9792   -1.7672  -20.0577 H   0  0  0  0  0  0  0  0  0  0  0  0
    7.2761   -1.5453  -22.8090 H   0  0  0  0  0  0  0  0  0  0  0  0
    7.4600   10.7755  -24.8346 H   0  0  0  0  0  0  0  0  0  0  0  0
    8.0365    9.1436  -25.3156 H   0  0  0  0  0  0  0  0  0  0  0  0
    8.3066    8.4888  -22.7706 H   0  0  0  0  0  0  0  0  0  0  0  0
    7.7301   10.1207  -22.2896 H   0  0  0  0  0  0  0  0  0  0  0  0
    6.3170    5.3112  -20.5734 H   0  0  0  0  0  0  0  0  0  0  0  0
    7.7583    4.9227  -21.5725 H   0  0  0  0  0  0  0  0  0  0  0  0
    5.8329    2.5677  -23.3764 H   0  0  0  0  0  0  0  0  0  0  0  0
    4.2319    3.2228  -22.8922 H   0  0  0  0  0  0  0  0  0  0  0  0
    5.5125    9.7537  -23.5226 H   0  0  0  0  0  0  0  0  0  0  0  0
    7.6319    2.6371  -21.1122 H   0  0  0  0  0  0  0  0  0  0  0  0
    4.6451    3.2433  -16.5726 H   0  0  0  0  0  0  0  0  0  0  0  0
    6.2388    2.4147  -16.5651 H   0  0  0  0  0  0  0  0  0  0  0  0
    6.1585    4.2063  -16.6663 H   0  0  0  0  0  0  0  0  0  0  0  0
    3.1269    4.3687  -27.7964 H   0  0  0  0  0  0  0  0  0  0  0  0
    4.2686    3.6640  -26.6022 H   0  0  0  0  0  0  0  0  0  0  0  0
    2.8056    4.5400  -26.0375 H   0  0  0  0  0  0  0  0  0  0  0  0
    3.4399    3.2026  -20.8681 H   0  0  0  0  0  0  0  0  0  0  0  0
    2.3478    3.4983  -18.9293 H   0  0  0  0  0  0  0  0  0  0  0  0
    3.2356    3.6408  -17.4489 H   0  0  0  0  0  0  0  0  0  0  0  0
  1  2  2  0  0  0  0
  1  4  1  0  0  0  0
  2  5  1  0  0  0  0
  3  5  2  0  0  0  0
  3  6  1  0  0  0  0
  4  6  2  0  0  0  0
  4 19  1  0  0  0  0
  5 30  1  0  0  0  0
  6 31  1  0  0  0  0
  7  8  1  0  0  0  0
  7  9  2  0  0  0  0
  7 32  1  0  0  0  0
  8 17  1  0  0  0  0
  8 22  2  0  0  0  0
  9 23  1  0  0  0  0
  9 29  1  0  0  0  0
 10 22  1  0  0  0  0
 10 23  2  0  0  0  0
 10 24  1  0  0  0  0
 11 18  1  0  0  0  0
 11 25  1  0  0  0  0
 11 28  2  0  0  0  0
 12 25  1  0  0  0  0
 12 26  2  0  0  0  0
 12 27  1  0  0  0  0
 13 14  1  0  0  0  0
 13 17  1  0  0  0  0
 14 17  1  0  0  0  0
 15 18  1  0  0  0  0
 15 24  1  0  0  0  0
 16 19  1  0  0  0  0
 16 24  1  0  0  0  0
 18 19  1  0  0  0  0
 19 26  1  0  0  0  0
 20 25  1  0  0  0  0
 21 29  1  0  0  0  0
  1 33  1  0  0  0  0
  2 34  1  0  0  0  0
  3 35  1  0  0  0  0
 13 36  1  0  0  0  0
 13 37  1  0  0  0  0
 14 38  1  0  0  0  0
 14 39  1  0  0  0  0
 15 40  1  0  0  0  0
 15 41  1  0  0  0  0
 16 42  1  0  0  0  0
 16 43  1  0  0  0  0
 17 44  1  0  0  0  0
 18 45  1  0  0  0  0
 20 46  1  0  0  0  0
 20 47  1  0  0  0  0
 20 48  1  0  0  0  0
 21 49  1  0  0  0  0
 21 50  1  0  0  0  0
 21 51  1  0  0  0  0
 26 52  1  0  0  0  0
 27 53  1  0  0  0  0
 27 54  1  0  0  0  0
M  CHG  1  26   1
M  END
> <OMEGA_C>
6buTQBtkZD6hr6TB7qSVQBO4lr9XE6XBuXfRQFp8hr9bfLHB4QixQP/WgT9PnqrB0H+0QBsp6L9+
c6vBgjvQQIy1tD57E7HBN5GtQLZz60C8BsvB5pW/QE979UBMBcHBpkyfQIB5wUCp0czBuVe3QML1
rkCLtLvBuWvaQKxkTECydpnBrsWMQAjiTkBI95jBNDbwQAR3G0HNUsTBvET1QFhcFUExdLjBYsnX
QGA3k0B7X6rBanqpQBRHSkAE+LTBNAXLQKFTEUHqRL7BVo/YQMb+S0CqsqXBMdmuQII0I0Dp66nB
lH21QLAWUUAvvYfBysBlQH8nkECmdtbBcUjEQKsS10CaibnB3pKkQHLro0ClEMXB3yy8QEoGkEA+
BbTByVC0QNmkS0CcjpPB2AuKQFHeQUBWUKPBLOlNQP68XkCBfJPBCEr9QKKwVEBTFpXBTNWKQBzS
t0CoVNbBUY22QD1bSsCJtqvBZqXtQGQThD+h57bBb9KoQHPoBEFcptLB/2V3QJNjND9W0Z/Bhat+
QHcz4r81dqDBG9boQCXNxb++eLbBYrjuQEZoLEFWrcbBbJUAQSlMEkFxhsrBw+cEQUzSB0FEKrbB
EF33QGjuIUEoUbLBgCTKQF71qUA6lqTB1kP4QGGGnUB2lKzB5qa6QNxUJEDPArvBAGyHQK9CTkAr
I7fBwWawQPQOHEFALrzBbTj0QD/GKEDK5ajB/KSUQMORT0ColITBS6THQDeKGkBkhYTBEBLFQDia
hkCcVIXBcR5IQI7Mi0AKX97BHpiIQC1+akBD0dTBc44zQHNHkUDBTNDBgCdcQMP3TEDW8abB90EW
QJPjX0Aeb5fBxBRPQEwCaUBll4vBs1ySQPgvdT5lLKXBgJWTQJuklL/ymaXBZ1nRQH1uh78lbbHB
U+KwQOuJgj800KrBwCGzQMCf57/VravBV5DQQAdosT7JDbHBgaqsQNIv6kBEVMvB1sagQHxHv0DO
5czBOAO9QDU19kDWR8HB2D+4QE2Lr0BNprvB2FvaQNYYTEABkZnBx6uMQJV3T0D1MJnBJuQ1QGkZ
nkArgtTB9+h+QJnEgUBei9jBJLDYQCVck0AMZ6rBsLCqQJH3SkBZFbXB+y+HQADnsUD6mtbB0eDY
QEn4S0CYxaXB7jKvQNmhI0BYE6rB7gW1QORbUkCE64fBuZ7uQPDVFkE04r7BeXSmQLMWo0Dv9cTB
h03DQBuC2EBgnrnBvlq8QPzfkEB04bPByhe0QAABTEDtuZPBxziKQErNQkApjaPBh4RNQJx5X0Ac
wZPBNy79QChxU0D1JJXB8qDCQMRTEEFx977B6mm0QKYjSsCs/qvBSMvuQMiqgT+3t7bBdZymQIzj
A0HcE9PBX9NzQIT/Oj+Df6DBSG94QCD23r+NP6HBZlXpQMr+x78fKbbBYc//P4zFpUAl0tnBFYIe
QOeRmkBOQczBQgWOQM7cU0CqMNPBHnB9QBhEakCCweDBr/nLQL5IqkCDh6TBLjH5QKAInUCjwqzB
UgK9QLE/JkB/CLvBRN+IQByRTUDTgLfBGyGKQLINxkB5yN3Bd4b0QPl2KEDw7ajBuRuUQMFDUUDS
zYTBoQfHQPf2G0CXnITBkKLEQJJJh0BXkIXBk6rwQKr8J0EC+rzBuhEAQeeXDUELz7jBqNH8QITq
E0FuzcbB5eFcQKF9TkBJPqfByQsWQHoAYUBivZfB9GFOQAl6aUB22ovBz7DSQKLH9z4ii7DBN5fW
QBT7Z78YqrHBOoGUQHi3mr8gr6fBGgSwQAZuhz8qzarBq7y3QLZe4L+9Ia3Bjw2QQMgrPD7uj6bB
ZseuQNsw5kCSfMzB7/WhQCdWu0DgMM3B016/QLtB9UBAvMLBpla3QJmusEDqhLvBHuzZQGBeS0Cl
UpnBcD+MQNbCTkBNxZjBho07QPpemEBOT9XBFd+CQCDuc0C8wdfB/H7XQKQflUBY/qnBsaeqQEuf
TUAFuLTBM+6KQEeUqkBC9dbBgfzXQM5ATkC3h6XB0A6uQClAJkBcv6nBYOS0QFCtSUBKlIfB3CHj
QC7HFkE2YrnBW86lQGf9oUACpsTBjDzEQOfX2UBTXLrBr/e5QC5Ek0AUTbPBD82zQPXWSEBmaJPB
GauJQIL3RkBdM6PBw9JMQBo3W0C9KJPBK/H8QP0aUEAp8pTBqzzHQC9LEEHU7MHBXLu7QL7lRcCZ
FK7BThpZQPHPID9mfKHBV3ipQD+QAEHF2tTBxXTqQE2MkD9PG7TBXk3xQPZ4qb+CArbB+TF5QJfT
7r/XUqTBkLUJQFoHnkB+XNvB5YMeQCCbmEAfS83BKAyPQLvWSEC7f9HB/aSEQC+vU0Abkd/BBo7L
QEa3q0AG8aPBasH3QE/UnkCIi6zB5u6+QCcHK0CHd7rB0EqJQCL6TEAEhrfBmL2QQPNvu0Cfi97B
O3XzQCpbK0Ah4qjB0AOUQMpeR0DicoTBS9bGQFa0EUAHsITB06XEQEBKgkBTzYTBQf7mQOREKEHh
ibnB3zbVQAzrEUG1rLHB1EYBQW0bD0FEZbrBQ+5cQGN4V0DD36bBfBgVQF7zXUAAFJfBKQ1OQApz
YUDbMovBmp7TQGQugz5W/qvBoZzTQML2kr/Nl6zB9HCGQAaolb80FqrBJRCtQJrkeT8vKqrBgSCt
QGNW7r8Ii6vBEQGGQCUYcz5FianBo0inQJzS7UDQs8rBXPGvQGAY+EDu7r/B9w+lQNRZwkAZpM3B
I2myQO9Kr0Ci1bvBVhDdQJ7uTEB8DJrBGWmPQKuhT0C2OJjBJBXRQEtcIkHxfMHB3kHYQKnKGkGj
4rXB75zTQMjuk0CWpKrBjEunQIx7RkDQA7XB80SxQAsHE0HeM7zB/2/XQL/cTEBxMqbBqA2tQJK1
IUC3uKnBzR29QDYuX0CC04fBZZ6dQMphikCLwdrBZl61QGSh2ECKsrjBnCaqQM3bo0CLD8bBMW24
QHOBj0CUS7TBLZS4QLEpUEDSfZPBjxuKQF1TQkBIi6LBzcdVQHoAXkBQFZLBKaoAQXriUkChW5bB
E9+dQGO8t0DtQdjBmzmtQKKbTcAXE6zB2f0+QI36WD/ggqjBXkqhQOp7BkFLGNLBGFPxQDOmSz9p
76zB8kXxQEzv1r8n3a3BnapRQLQR3L91YqnBKc7HQBYIM0EcGMPBjyzmQCCfHEEt7MfBAHnyQHil
D0FSCLTBmxrUQG4OJkFBNK/BOWLEQN44qUBiwqTBaFDzQNiioEBOxqzBG3a5QI/AIEAD5brBbkaF
QCtDR0CwRbfBQmmSQKkUGkEZ3LnBnZ7yQHbyK0Ce+6nBVkidQPWRX0A2EoTBB53QQKreK0DOSITB
dNTMQKGejkAPeYbB06aXQBn3hUCrW+PBD8q8QAqyeEBEqNjBzTmEQCbldEDdJNbBzeJaQKqFTkC+
waXB5RQcQFTyXUB0i5XBoA9bQMJeaEBxN4rB

> <OMEGA_E>
gOZePXBeXj548IA+vDmiPg==

> <OMEGA_NBR>
     98623

$$$$
220613
  -OEChem-04172616093D

 50 53  0     1  0  0  0  0  0999 V2000
    4.4878    0.2912  -21.8615 C   0  0  0  0  0  0  0  0  0  0  0  0
    4.4359   -1.1127  -21.9528 C   0  0  0  0  0  0  0  0  0  0  0  0
    6.6072   -1.2574  -20.8782 C   0  0  0  0  0  0  0  0  0  0  0  0
    5.6025    0.9544  -21.2783 C   0  0  0  0  0  0  0  0  0  0  0  0
    5.4991   -1.8865  -21.4598 C   0  0  0  0  0  0  0  0  0  0  0  0
    5.4963    7.3845  -25.4048 C   0  0  0  0  0  0  0  0  0  0  0  0
    6.6778    0.1430  -20.7754 C   0  0  0  0  0  0  0  0  0  0  0  0
    6.2040    7.6415  -24.2129 C   0  0  0  0  0  0  0  0  0  0  0  0
    4.9290    6.1071  -25.5925 C   0  0  0  0  0  0  0  0  0  0  0  0
    5.7680    5.4575  -23.5067 C   0  0  0  0  0  0  0  0  0  0  0  0
    6.8067    3.3214  -19.1492 C   0  0  0  0  0  0  0  0  0  0  0  0
    4.3721    3.1780  -19.1147 C   0  0  0  0  0  0  0  0  0  0  0  0
    6.6049    4.6775  -21.2562 C   0  0  0  0  0  0  0  0  0  0  0  0
    5.3852    3.0878  -22.6270 C   0  0  0  0  0  0  0  0  0  0  0  0
    6.7559    3.2809  -20.6811 C   0  0  2  0  0  0  0  0  0  0  0  0
    5.5266    2.5055  -21.2057 C   0  0  2  0  0  0  0  0  0  0  0  0
    6.8398    8.9926  -23.9618 C   0  0  0  0  0  0  0  0  0  0  0  0
    5.6137    3.5463  -16.9637 C   0  0  0  0  0  0  0  0  0  0  0  0
    3.6675    4.5047  -26.8753 C   0  0  0  0  0  0  0  0  0  0  0  0
    6.3252    6.6729  -23.2855 N   0  0  0  0  0  0  0  0  0  0  0  0
    5.0810    5.1661  -24.6334 N   0  0  0  0  0  0  0  0  0  0  0  0
    5.9086    4.4784  -22.5397 N   0  0  3  0  0  0  0  0  0  0  0  0
    5.6044    3.2910  -18.4250 N   0  0  0  0  0  0  0  0  0  0  0  0
    4.3195    2.8800  -20.3979 N   0  3  0  0  0  0  0  0  0  0  0  0
    3.1642    3.3830  -18.4509 N   0  0  0  0  0  0  0  0  0  0  0  0
    7.8892    3.4951  -18.5973 O   0  0  0  0  0  0  0  0  0  0  0  0
    4.2257    5.8400  -26.7570 O   0  0  0  0  0  0  0  0  0  0  0  0
    5.4611   -3.2358  -21.5384 F   0  0  0  0  0  0  0  0  0  0  0  0
    5.3629    8.3445  -26.3510 F   0  0  0  0  0  0  0  0  0  0  0  0
    8.1328    0.7374  -20.0080 Cl  0  0  0  0  0  0  0  0  0  0  0  0
    3.6640    0.8767  -22.2423 H   0  0  0  0  0  0  0  0  0  0  0  0
    3.5795   -1.5940  -22.4015 H   0  0  0  0  0  0  0  0  0  0  0  0
    7.4218   -1.8587  -20.5021 H   0  0  0  0  0  0  0  0  0  0  0  0
    6.0074    5.3115  -20.5846 H   0  0  0  0  0  0  0  0  0  0  0  0
    7.5901    5.1399  -21.4166 H   0  0  0  0  0  0  0  0  0  0  0  0
    5.9756    2.4990  -23.3444 H   0  0  0  0  0  0  0  0  0  0  0  0
    4.3299    3.0929  -22.9374 H   0  0  0  0  0  0  0  0  0  0  0  0
    7.6744    2.8159  -21.0684 H   0  0  0  0  0  0  0  0  0  0  0  0
    7.3457    8.9846  -22.9851 H   0  0  0  0  0  0  0  0  0  0  0  0
    7.5738    9.2050  -24.7531 H   0  0  0  0  0  0  0  0  0  0  0  0
    6.0617    9.7702  -23.9652 H   0  0  0  0  0  0  0  0  0  0  0  0
    4.5875    3.4808  -16.5729 H   0  0  0  0  0  0  0  0  0  0  0  0
    6.2445    2.7960  -16.4645 H   0  0  0  0  0  0  0  0  0  0  0  0
    6.0163    4.5514  -16.7697 H   0  0  0  0  0  0  0  0  0  0  0  0
    3.1360    4.4125  -27.8340 H   0  0  0  0  0  0  0  0  0  0  0  0
    4.4789    3.7632  -26.8332 H   0  0  0  0  0  0  0  0  0  0  0  0
    2.9647    4.3266  -26.0480 H   0  0  0  0  0  0  0  0  0  0  0  0
    3.4307    2.9049  -20.8554 H   0  0  0  0  0  0  0  0  0  0  0  0
    2.3004    3.3023  -18.9483 H   0  0  0  0  0  0  0  0  0  0  0  0
    3.1612    3.6109  -17.4773 H   0  0  0  0  0  0  0  0  0  0  0  0
  1  2  2  0  0  0  0
  1  4  1  0  0  0  0
  2  5  1  0  0  0  0
  3  5  2  0  0  0  0
  3  7  1  0  0  0  0
  4  7  2  0  0  0  0
  4 16  1  0  0  0  0
  5 28  1  0  0  0  0
  6  8  1  0  0  0  0
  6  9  2  0  0  0  0
  6 29  1  0  0  0  0
  7 30  1  0  0  0  0
  8 17  1  0  0  0  0
  8 20  2  0  0  0  0
  9 21  1  0  0  0  0
  9 27  1  0  0  0  0
 10 20  1  0  0  0  0
 10 21  2  0  0  0  0
 10 22  1  0  0  0  0
 11 15  1  0  0  0  0
 11 23  1  0  0  0  0
 11 26  2  0  0  0  0
 12 23  1  0  0  0  0
 12 24  2  0  0  0  0
 12 25  1  0  0  0  0
 13 15  1  0  0  0  0
 13 22  1  0  0  0  0
 14 16  1  0  0  0  0
 14 22  1  0  0  0  0
 15 16  1  0  0  0  0
 16 24  1  0  0  0  0
 18 23  1  0  0  0  0
 19 27  1  0  0  0  0
  1 31  1  0  0  0  0
  2 32  1  0  0  0  0
  3 33  1  0  0  0  0
 13 34  1  0  0  0  0
 13 35  1  0  0  0  0
 14 36  1  0  0  0  0
 14 37  1  0  0  0  0
 15 38  1  0  0  0  0
 17 39  1  0  0  0  0
 17 40  1  0  0  0  0
 17 41  1  0  0  0  0
 18 42  1  0  0  0  0
 18 43  1  0  0  0  0
 18 44  1  0  0  0  0
 19 45  1  0  0  0  0
 19 46  1  0  0  0  0
 19 47  1  0  0  0  0
 24 48  1  0  0  0  0
 25 49  1  0  0  0  0
 25 50  1  0  0  0  0
M  CHG  1  24   1
M  END
> <OMEGA_C>
S5yPQHUXlT5v5K7BKfONQBZsjr9qn6/BY27TQBL0oL+LBqfBf0ezQKFQdD8MOqrBVvivQCp58b+f
ravBWeGvQNdN7ED0PMvBMbDVQAV5Ej78M6bBSofGQPWG9ED+s8HBPrqdQIRtw0CFvczBZpO4QIuj
rkDBDbzBXtDZQOeRVECVMZnBTOiLQJhjS0AA65jBk1vTQHiulUCqDKrBjlOsQCCfRUAMBLXB9S/Y
QPj6UUDgcqXBv9mwQDBaIEA3panBfN/aQOHhD0Hcsb/BF6OzQKb2YkCUtYfB97dqQIYmkECgANfB
B2jKQFeI1UDKSLrBmpeiQKVQpUA8EcXBdBO9QBBPj0BFUbTB/FazQC6gUkBgZpPBhTmKQDpSOEDS
LqPBfoJKQHeDWECKm5PBtXT8QEKvX0BXx5TByTiHQAjhukBbDtbBrcGuQOkWT8ChTqzBtpyrQDWD
BUHHztLB8x8CQQrDPD9JEKDBvn9qQMxuYD878LHBJxdlQKQHzL9ZNrPBH3/tQBPq7b9nBKTBODzA
QIv3qUA6raTB1OHyQBJ6pEAvVavBBzi/QBbvH0BMwbrBmY6KQJjxRUCyf7fBzJT1QLw3NEAGjKjB
1g/rQA3BD0GF4bfBtVzyQNlHE0FYBsbBPfnBQJtSHEHOuL/BlcySQArGXkBllYTBvNLHQA7yMkBS
t4PBZIXAQE+lkUBeKIbBVbRIQD0zjUD4q97B81KPQNfXcEB8qtbBK749QGtzikBRYtDBDZBbQKTq
OUDO16bB2jkTQHBZU0ALlpfB11BKQLEYZ0Bs0YvB8MuOQPz5oD6qF6/B/wWNQM5Ji7/V6q/Bad7S
QD6En7/chKfB+bWyQKhceD9Ie6rBOCuvQIka77/pHqzBqAmvQCpb7kAl/srBST/VQJjBHD7kmqbB
fIGcQNmwxUD6oMzBKg3GQB/D9UCgesHBNXy3QGxmr0BXIrzBCzXaQDGKVEC5cJnBVlCMQBi3S0A8
85jBAw/TQPn9lUAIParBg2WrQDrvRkD4KLXByQTYQLN4UkDYsqXBO22wQKtHIUAz0anBv1WDQNYj
vEAGstbBndu0QM71YUDI1IfBi+zvQFg6EUHFv7XBDyWhQEXgpkAPKsXBwKbJQAr01UCDOrrBrDy8
QPbYj0B7drTB/f+zQIxqUkCuiZPBOiOKQGEzOUDcOaPBnNlLQC/MWEA3hZPBRw/9QEYuX0BzHJXB
U5rYQKG8DkEWur/BzdatQDXYTcB816zBi9eqQL7aBkGoZtLBYwwCQQ4FPT9ii6DBSqtoQFecZz+b
BbLBqN9iQDc0yL82d7PBywXtQBUY7b9gn6TB6DzAQJU5qkCFyaTBA43yQGO+pECmmavBifu9QERe
IUBJ+brBZoOJQK12R0Aki7fBkDr1QDKtNEAj5qjBKz9vQFT2mkBubtbBPPJPQPAr0kDMQNfBMR2Y
QM5awEBOuN3B8CiUQGG9XUCdnYTBUijJQOCPMUB58oPBdefBQP8NkUC6P4bBIRf9QJuFIUF9RLXB
HR7aQHN/DkEy+q7BbxwFQXuLBUEacrXBJhJbQD40O0ABzqbB5DEUQBUEVEC+bJfBp2dMQMz3ZkAg
uIvB

> <OMEGA_E>
KAErPsDDtj4=

> <OMEGA_NBR>
    100610

$$$$
220612
  -OEChem-04172616093D

 51 54  0     1  0  0  0  0  0999 V2000
    4.5457    0.2385  -20.6542 C   0  0  0  0  0  0  0  0  0  0  0  0
    4.5830   -1.1621  -20.7064 C   0  0  0  0  0  0  0  0  0  0  0  0
    6.5546   -1.0625  -22.1296 C   0  0  0  0  0  0  0  0  0  0  0  0
    5.5237    1.0166  -21.3283 C   0  0  0  0  0  0  0  0  0  0  0  0
    5.5891   -1.8120  -21.4376 C   0  0  0  0  0  0  0  0  0  0  0  0
    6.5308    0.3421  -22.0841 C   0  0  0  0  0  0  0  0  0  0  0  0
    5.4390    7.3554  -25.3902 C   0  0  0  0  0  0  0  0  0  0  0  0
    6.0027    7.6846  -24.1388 C   0  0  0  0  0  0  0  0  0  0  0  0
    4.9681    6.0463  -25.5940 C   0  0  0  0  0  0  0  0  0  0  0  0
    5.7328    5.4801  -23.4589 C   0  0  0  0  0  0  0  0  0  0  0  0
    6.8248    3.1939  -19.1858 C   0  0  0  0  0  0  0  0  0  0  0  0
    4.3983    3.2056  -19.1238 C   0  0  0  0  0  0  0  0  0  0  0  0
    6.7332    4.6104  -21.2876 C   0  0  0  0  0  0  0  0  0  0  0  0
    5.3185    3.1563  -22.6316 C   0  0  0  0  0  0  0  0  0  0  0  0
    6.7672    3.1945  -20.7124 C   0  0  2  0  0  0  0  0  0  0  0  0
    5.4679    2.5532  -21.2462 C   0  0  2  0  0  0  0  0  0  0  0  0
    5.6668    3.2287  -16.9714 C   0  0  0  0  0  0  0  0  0  0  0  0
    3.5799    4.4841  -26.7794 C   0  0  0  0  0  0  0  0  0  0  0  0
    6.4702    9.0860  -23.8439 C   0  0  0  0  0  0  0  0  0  0  0  0
    6.1593    6.7336  -23.2014 N   0  0  0  0  0  0  0  0  0  0  0  0
    5.1242    5.1350  -24.6151 N   0  0  0  0  0  0  0  0  0  0  0  0
    5.8997    4.5024  -22.5103 N   0  0  3  0  0  0  0  0  0  0  0  0
    5.6341    3.1550  -18.4487 N   0  0  0  0  0  0  0  0  0  0  0  0
    4.3177    3.0408  -20.4237 N   0  3  0  0  0  0  0  0  0  0  0  0
    3.2157    3.4238  -18.4301 N   0  0  0  0  0  0  0  0  0  0  0  0
    7.9104    3.3566  -18.6396 O   0  0  0  0  0  0  0  0  0  0  0  0
    7.6607    9.3433  -24.5753 O   0  0  0  0  0  0  0  0  0  0  0  0
    4.3388    5.7209  -26.7838 O   0  0  0  0  0  0  0  0  0  0  0  0
    5.6256   -3.1608  -21.4784 F   0  0  0  0  0  0  0  0  0  0  0  0
    7.4840    1.0090  -22.7801 F   0  0  0  0  0  0  0  0  0  0  0  0
    5.3345    8.2809  -26.3715 F   0  0  0  0  0  0  0  0  0  0  0  0
    3.7642    0.7312  -20.0949 H   0  0  0  0  0  0  0  0  0  0  0  0
    3.8366   -1.7415  -20.1833 H   0  0  0  0  0  0  0  0  0  0  0  0
    7.3197   -1.5683  -22.6998 H   0  0  0  0  0  0  0  0  0  0  0  0
    6.2795    5.3096  -20.5698 H   0  0  0  0  0  0  0  0  0  0  0  0
    7.7485    4.9509  -21.5394 H   0  0  0  0  0  0  0  0  0  0  0  0
    5.8674    2.5611  -23.3763 H   0  0  0  0  0  0  0  0  0  0  0  0
    4.2581    3.2147  -22.9182 H   0  0  0  0  0  0  0  0  0  0  0  0
    7.6353    2.6524  -21.1155 H   0  0  0  0  0  0  0  0  0  0  0  0
    4.6403    3.1834  -16.5787 H   0  0  0  0  0  0  0  0  0  0  0  0
    6.2486    2.3835  -16.5751 H   0  0  0  0  0  0  0  0  0  0  0  0
    6.1363    4.1742  -16.6619 H   0  0  0  0  0  0  0  0  0  0  0  0
    3.1267    4.3279  -27.7694 H   0  0  0  0  0  0  0  0  0  0  0  0
    4.2501    3.6436  -26.5463 H   0  0  0  0  0  0  0  0  0  0  0  0
    2.7875    4.5430  -26.0187 H   0  0  0  0  0  0  0  0  0  0  0  0
    5.6922    9.8041  -24.1422 H   0  0  0  0  0  0  0  0  0  0  0  0
    6.6703    9.1884  -22.7671 H   0  0  0  0  0  0  0  0  0  0  0  0
    3.4537    3.2495  -20.8818 H   0  0  0  0  0  0  0  0  0  0  0  0
    2.3453    3.4507  -18.9217 H   0  0  0  0  0  0  0  0  0  0  0  0
    3.2343    3.5540  -17.4388 H   0  0  0  0  0  0  0  0  0  0  0  0
    7.9602   10.2262  -24.3930 H   0  0  0  0  0  0  0  0  0  0  0  0
  1  2  2  0  0  0  0
  1  4  1  0  0  0  0
  2  5  1  0  0  0  0
  3  5  2  0  0  0  0
  3  6  1  0  0  0  0
  4  6  2  0  0  0  0
  4 16  1  0  0  0  0
  5 29  1  0  0  0  0
  6 30  1  0  0  0  0
  7  8  1  0  0  0  0
  7  9  2  0  0  0  0
  7 31  1  0  0  0  0
  8 19  1  0  0  0  0
  8 20  2  0  0  0  0
  9 21  1  0  0  0  0
  9 28  1  0  0  0  0
 10 20  1  0  0  0  0
 10 21  2  0  0  0  0
 10 22  1  0  0  0  0
 11 15  1  0  0  0  0
 11 23  1  0  0  0  0
 11 26  2  0  0  0  0
 12 23  1  0  0  0  0
 12 24  2  0  0  0  0
 12 25  1  0  0  0  0
 13 15  1  0  0  0  0
 13 22  1  0  0  0  0
 14 16  1  0  0  0  0
 14 22  1  0  0  0  0
 15 16  1  0  0  0  0
 16 24  1  0  0  0  0
 17 23  1  0  0  0  0
 18 28  1  0  0  0  0
 19 27  1  0  0  0  0
  1 32  1  0  0  0  0
  2 33  1  0  0  0  0
  3 34  1  0  0  0  0
 13 35  1  0  0  0  0
 13 36  1  0  0  0  0
 14 37  1  0  0  0  0
 14 38  1  0  0  0  0
 15 39  1  0  0  0  0
 17 40  1  0  0  0  0
 17 41  1  0  0  0  0
 17 42  1  0  0  0  0
 18 43  1  0  0  0  0
 18 44  1  0  0  0  0
 18 45  1  0  0  0  0
 19 46  1  0  0  0  0
 19 47  1  0  0  0  0
 24 48  1  0  0  0  0
 25 49  1  0  0  0  0
 25 50  1  0  0  0  0
 27 51  1  0  0  0  0
M  CHG  1  24   1
M  END
> <OMEGA_C>
nXaRQFE2dD7JO6XB1aeSQFzAlL+9pqXBmr/RQBX/h79WCbHBiMKwQC8fgj9ToKrB5dmyQJDw5783
gKvBGPzQQKQqrz43rLDBPAyuQElf60AxH8vBZxbAQHzo9UAtHMHBtvqeQCN7wUCDwMzBRnO3QDdd
r0Drq7vBy2TaQH5pTEBtfJnBqL6MQJ0oTUCO/ZjBuHbXQEeIk0ADTarBHTGqQEcASkCDDbXB44zY
QOxxTEDxsqXB7/iuQFtnI0Ak+KnBz1a1QF+jTkCFxYfBvxxlQBZ+j0AmPNbBHwzPQCpgEUE4wL7B
CRnFQIR510CQnLnBVPmjQBtSpEDN68TBqcq8QHITkEAoFbTBw0q0QInrSUDglpPB7iqKQAedQkCk
Y6PBBc5NQDofW0DFcJPBAyL9QFbSVkD7HZXBEiT1QEB+FUEjmsTBT9eKQFIRt0AlRdbBogS0QAtL
SsC+06vBo3zvQHYngT+ePbbBjbSqQGN+BEHG+NLB4uhwQLcwOz9DwqDBFop1QOHn3r95d6HBTzvq
QO29yL8rmbXB0vHIQPXnqUDkjqTBWvP3QH9tnkC9UKzBWMG7QCzpI0CbArvBaEKIQMm9TUCKWLfB
gFT0QGDAKUCO7KjBt32UQHO8S0AzoYTBrPTHQPyKGEC9mYTBZlzEQKqShUCoS4XBIxtIQGd+ikDC
J97BDwGIQDoxaUDlXtTBQ2YyQJBgkUBAJtDB5Sa2QKHdHEFPI8HByHLVQOADE0HxIrbBlgldQK33
T0D1DafBWRkWQKvYXECTX5fBgv5OQJx0Y0CQgovBALr+QLWeI0HnJMPB13SSQDBieT5KGaXBRjCU
QHoWlL++a6XBwt/SQAjGhb+V77DBwECxQLWhgz8enKrBz3C0QOB/5r8GS6vBTJnRQOAfuD4bqLDB
BzWuQHse60DFZMvBXWvBQDcG9kA8j8HBk3aeQCNewUBGyczBbjW3QHsJsED+q7vBoybaQL7+S0AR
cJnBmH+MQNqGTUCtApnB/QzXQBNTlEDyLarBXVuqQJIgS0AECLXBrHTYQFKNTUA4qaXBohSvQKAx
JEBB+KnBXeG0QHAeTkAMvofB9XtlQHmBjkDcLNbBfQ3TQAlMEUFW0r/BRhDGQPH010B05bnBcj6j
QEa2pEAl1cTBOku8QJ32kEBM+rPBv/WzQJzgSUB/kZPB7xWKQF7bQkA0aaPB1BlNQHB/W0BrgZPB
BAf9QDZPUkB6BJXBAKXbQIL/FEH8xbTB5lmKQL90tkD0RNbBNii2QMKPScC3havBaOLvQBYThD95
QbbBib+qQBMeBEEkW9PBLc1yQIE0Oz8Km6DBJ1p5QG/R3r8kJaHBNWbrQFftxb8phLXBk2nIQMRr
qkCKY6TB63P3QCKAn0DqLqzBqmK8QFPQJUCL+rrBWHiIQKTvTUD0YrfBLl70QJmHK0AU7ajBuPuT
QHydS0CYoITBQT7HQGKbF0All4TBShzEQP8khUDGN4XBv2hIQHEmiUC5E97BqKmIQJ3+Z0CqTtTB
YeYyQNoOkEAxEdDB/OjwQE0UE0GAZcTBlH67QAEZHUGoo8LBgddcQLa8T0BiGKfBH4kVQI8hXUBL
eJfBvP9NQIDtY0B3k4vBl6nmQEsMI0HN3bPBtOjSQJOK3D7HY7DBrYTXQJ67db+dH7HBDlSXQOcL
oL+UXabBS7OwQEWAgT8vharBN9i5QGBs5r+mD6zB31GSQHqSEj7ZkKXBKQGuQDXv6kDnDcvBLNu/
QBJx9UCXBsHBNPyeQCoLwUABtszB9zu3QJferkDenLvBNefZQB/bSkDafJnB/kuMQBA7UUBYE5nB
X7nXQOTqkkAuVqrBf/uqQAZQSEBOErXBxSXYQA5IS0CvsKXBHj+uQHcwI0D/4anBl7a0QHK+TkDk
zIfBODxnQItojkAfUNbBFo7PQHEFEUFyuL7B0cHEQHX/1kCsh7nBjyCkQO3Do0BI6MTBRdm7QDbd
j0CK7LPBy7CzQEkmS0C0n5PBZ7uJQNaMRUDadqPBhBJNQKZWYUBtk5PBa978QPDhT0A/FpXBmtj3
QPHsE0FSx8PBDyGKQPYDt0AEKdbBGmq+QFD3SMCer6zBRgFgQKivFz+FCKDBi4+qQJJTBEFk4NLB
asDpQNI5iT+YWrTBNtrxQMoWsb9gk7XB72mAQMDD879KkKLBhW3KQHfEqUDGhqTBrzv4QIrynEBT
mKzBhWi+QHIfI0D5v7rB+oSJQAx2SUBJzLfBIqHzQACqJ0DY6qjBysyTQI9qTkA6roTBtBvGQH/Q
FkCSsYTBAgHFQGHWhEC2O4XBd8JIQHnkiUA6Kt7BeHGKQFaCaEDk2tTBde01QCBJjkAwCNDB1IW4
QPHCHEHv2sHBnAbTQFQ1E0EsCLbBmdBcQPAmVEDYNKfBvXwVQBKyY0C7h5fB+UVOQK+UakBCqYvB
lggBQXf2IUEDYMLBzE/TQIIa5z4OVbDB7AvYQNAucL8fJ7HBdJ6WQKVIn7+S5abBT4qwQGztgj/v
nKrBs+i5QJCW5L9KWKzBT1uRQK6AFz5fEabBQ/uwQGff6UBdX8vBF7bEQG0D9EBEisHBI1ufQAXU
wEBYu8zBySG2QJlVr0CGdrvBH9XZQN5XTED/c5nBFzWMQOi+T0Cr6ZjBKk3XQGpek0DUV6rBZDmq
QP99SUCs8LTBttTXQA5PTEBbqKXBoe6tQPDCI0Bf0qnBUfi0QMqcTkDWtYfBUipoQMwmjkDvYdbB
YjvVQJE5EEFrYb/B4ovGQIee1kC9trnBPpGiQH9BpEDZs8TBhKC5QLDdkEA6nLPBVMWzQNcdS0Ai
iJPB1X+JQN4fRUA2T6PBsuZMQLgWXkAwV5PB3tH8QGFXU0DoGpXBms+xQChlHkHga77BsDKKQA/3
tkC9J9bBjJu+QPj6R8BKDK3BDrJbQDuGFz+s/aDBs/GtQNeqA0GSQ9PBKnvqQHmkjD9EHLTBLtTy
QAZ6rb/AebXB5p5+QJCz87+nT6PBZ4LLQEF/qkB4ZqTBRYn3QIXJnEDh+qzB/Vm+QM4sJkAMp7rB
FM+IQIG3SEB4tLfBDlPzQAHAKECD46jBNB+UQMH9TEDZjYTBgPPGQHBSF0AyooTBnL3EQA0QhUBp
JoXBnS5JQH/giUA/Nt7ByzeLQClPaECJD9XBAlg3QJZ4jUByC9DBcMXnQL9IEEFq5rfBIdTpQGVl
FUErCMbB3ChcQC/kU0Bp/6bBkB8VQFUEYECEQZfB00lOQNN9ZkBnaYvBX+O7QDp5LEF6Dr3B9pKQ
QORKlj78fKbBvPOPQIK3jL+8wqfB+qTRQOYpfL/uKrLB9iCyQAGYiT8l66rBj3+wQJyN3r9ej63B
p9XSQMyo0j5m5bDBKN2sQJDU5UBlbMzBgUGgQPvJukCJ5szB+5q/QDJD9UA07sLBrHu5QErNsEDu
hbvBr+PZQLDOTECM5ZjBWzaMQLzgTEA2BpnBywTZQH04lkBbo6nBdoutQEzlTkBKprTBF9DZQOAu
UECuJaXB0eewQPgFJ0C6wqnB70eyQETERUCTgYfBoRDiQG4ZF0FcYbnBjISGQDgEqUBxFdbB47am
QE6KoUC2ecTBnQTGQIoj2kDhjbrBWti8QO22k0DMPbPBQvuyQHJwR0BuVZPBoSuLQBI4RUAAdqPB
zEpLQHTOWUCzwJPBFRv8QPI7U0BxK5TBPLk1QDdtpkA/2dLBNSjJQFU2EEHLcMLBOO+vQHAxRcD2
sa7Bl3/zQGljij9gm7XBYaCmQF4hAEHM2NTBGG1uQGpDRz85FaLBgsdsQAAn17/KRaTBrV7qQKWY
vb8qt7bBmLfLQF2QrEDxtKPBK2z5QLuZoEBl5KvBOMPBQGFsLEAdbLrBOSqMQM9wTkAvcbfB5BL2
QNxgLkCfQajB8fyQQJdvQUBfs4TBSGDEQDXwDUAkoYTBLPjAQGVXgEB3Y4TBrornQKt0KEFw4rnB
XKzQQAtjE0FC9bHBX4EAQTu2DkH/X7nBEmeJQFNDvkAREN3BclqSQAfyiEB2LtjB02RgQIYXVEDR
V6fBAb4UQJL5XED16pfB+khKQETzX0BqyovBaFEUQE5Em0CQjdjBbBrTQHJw/D7DW7HBw5rWQCRw
ZL/G5bLBVb+ZQJIWn79cH6fB50+yQHylhT9M1KrBkN25QBBN4b8myq3BqpSVQNyoEz6GmqXBtpqw
QHWB50AsJ8zBEiWgQKi7vUC9vczBJDzEQIfX9EABlsLBVZy3QN0SsUCwULvBoy/ZQJsqS0BdIJnB
S4eLQJ8RUUCvKpnBc0HYQFMJlUBm1KnBt4GsQJE4TUBwzLTBe6zYQLsDTkBuWqXB5GWvQEtnJUCh
zanBmBKyQHuCSkAFrIfB6sPYQLDYF0GEg7fB72CLQL9ZrECLwNbB+eOjQNato0BRUsTBAIbHQDwn
2UARPrrB62G7QEwCk0APR7PB3VuyQIkMSkABgJPBofCJQE04RUARjaPBdHtKQPsiYUB25ZPBJ7L7
QD0nTkAFe5TBwLNEQGtim0CpJ9TB5+jTQMwND0GZGcLBuRm9QMQERsC/Q6/BOjFrQFVJDj/JHJ/B
wSitQK5kAUFJg9TBELzpQBmKkz9jNLXB2mTvQD0gpb8dArjB/gKEQOBg9b80HqPBFcPLQFiTq0DR
1aPBIKT4QL/onkDEPKzBCz/BQNsbK0AOfbrBqlGLQF44TECKurfBSaP0QL2GK0Awg6jBfdOQQN95
SUC1yITBdhfDQN+5EUDlrYTBUxnCQMlVgkAwwITBiWLlQMM8KEGVFLjBEnu5QNkgGEGMe7PBRyLv
QPnhDUGs5LLBFMKHQEFCxkDfo9zBjIefQODhkkCDJdrBY09dQEL2UUBeaqfBd6gTQD9TY0DGA5jB
uipKQKSEakCc+4vBMHgqQCdvkEDecNrBXGXUQBDs9T4zIrDBd1HWQE4TZ7/T7rHBcw+SQJKOlr+J
2qjBHFKxQJhgiD/enqrBJU+1QNOu3b/7Nq7BWmiPQIDgVz6vI6fBHWioQDYo6EBYdMvBQpeXQOZ4
vkCTmcvBxF3AQFJS9UDvfMLBFfW3QCrmsEADKbvBpWraQEctS0Bo1JjB97SMQN+cTkDgsJjBZxrZ
QMxqlUBfianBE3etQPkWTUCCfLTBwZLZQC2mTkAiEKXBaQKwQDiYJkBteanBrPGzQMVvR0BISYfB
RwviQK6ZFkEVWbjBvkRxQFKor0AZGtTBSW+gQFbJo0BAmcPBPMvHQJor2UCKYbrBXWC9QLq+kkBA
MbPB9cizQC8gSEBGHpPBCy2LQFnpR0ChI6PBVqNMQKX1WkACUJPBQRH9QMEiTkAfQJTBJrSNQFLm
q0BWG97Bl/bNQO65D0HqJsLBQ0e3QOwpRMCm2a/BISpXQPi/Kz97TKLBVTegQGHiAUERidPB3wPu
QINAjj/A/LLB6irxQNsLqr+SLLbBWXxxQKEC6b8FBabBq4/LQCXNq0ArpqPBj5z5QKDCn0CatKvB
pLjBQOdGKUAgH7rB/zqMQLQ5TUC4YrfB21r1QNMELEAzTKjBu9KSQGXvREC3UoTB/pPFQK/8DkCJ
a4TBmY/DQBvwgEBWUITBimPrQKmCJ0EaDbnB2mnLQLu7FEE0rLHBo6X+QLPLDEEF17bBb+1WQHJT
kEDWz9HBLek8QLkEx0DUztTBAA1hQCqqWUCi+KbB9McVQJZsXkAOaZfBxjRMQOJiYEBuV4vBy8Bz
QCmRokDRX+PB

> <OMEGA_E>
cChKPuBcSz4YWGA+YElhPkhysT7oHLU+yFW5Pg==

> <OMEGA_NBR>
    106924

$$$$
220603
  -OEChem-04172616093D

 53 56  0     1  0  0  0  0  0999 V2000
    4.5528    0.2635  -20.6781 C   0  0  0  0  0  0  0  0  0  0  0  0
    4.5840   -1.1367  -20.7488 C   0  0  0  0  0  0  0  0  0  0  0  0
    6.5785   -1.0269  -22.1379 C   0  0  0  0  0  0  0  0  0  0  0  0
    5.5438    1.0476  -21.3265 C   0  0  0  0  0  0  0  0  0  0  0  0
    5.5973   -1.7817  -21.4741 C   0  0  0  0  0  0  0  0  0  0  0  0
    6.5618    0.3776  -22.0721 C   0  0  0  0  0  0  0  0  0  0  0  0
    5.4630    7.3133  -25.4765 C   0  0  0  0  0  0  0  0  0  0  0  0
    6.0453    7.6943  -24.2492 C   0  0  0  0  0  0  0  0  0  0  0  0
    4.9741    6.0095  -25.6171 C   0  0  0  0  0  0  0  0  0  0  0  0
    5.7045    5.5289  -23.4456 C   0  0  0  0  0  0  0  0  0  0  0  0
    6.8227    3.1856  -19.1631 C   0  0  0  0  0  0  0  0  0  0  0  0
    4.3963    3.2030  -19.1094 C   0  0  0  0  0  0  0  0  0  0  0  0
    6.7136    4.6704  -21.2487 C   0  0  0  0  0  0  0  0  0  0  0  0
    5.3412    3.2002  -22.6112 C   0  0  0  0  0  0  0  0  0  0  0  0
    6.7702    3.2363  -20.6930 C   0  0  2  0  0  0  0  0  0  0  0  0
    5.4818    2.5860  -21.2339 C   0  0  2  0  0  0  0  0  0  0  0  0
    7.1261    9.3666  -22.6654 C   0  0  0  0  0  0  0  0  0  0  0  0
    5.6511    3.1474  -16.9501 C   0  0  0  0  0  0  0  0  0  0  0  0
    3.4796    4.4979  -26.7207 C   0  0  0  0  0  0  0  0  0  0  0  0
    6.4817    9.1355  -24.0439 C   0  0  0  0  0  0  0  0  0  0  0  0
    6.1588    6.7865  -23.2517 N   0  0  0  0  0  0  0  0  0  0  0  0
    5.1043    5.1424  -24.5954 N   0  0  0  0  0  0  0  0  0  0  0  0
    5.8327    4.5805  -22.4498 N   0  0  3  0  0  0  0  0  0  0  0  0
    5.6283    3.1319  -18.4301 N   0  0  0  0  0  0  0  0  0  0  0  0
    4.3243    3.0629  -20.4128 N   0  3  0  0  0  0  0  0  0  0  0  0
    3.2097    3.4039  -18.4168 N   0  0  0  0  0  0  0  0  0  0  0  0
    7.9141    3.2478  -18.6083 O   0  0  0  0  0  0  0  0  0  0  0  0
    4.3427    5.6558  -26.7947 O   0  0  0  0  0  0  0  0  0  0  0  0
    5.6256   -3.1302  -21.5364 F   0  0  0  0  0  0  0  0  0  0  0  0
    7.5322    1.0474  -22.7401 F   0  0  0  0  0  0  0  0  0  0  0  0
    5.3272    8.1970  -26.4934 F   0  0  0  0  0  0  0  0  0  0  0  0
    5.3906    9.9414  -24.1522 F   0  0  0  0  0  0  0  0  0  0  0  0
    7.3856    9.4668  -25.0045 F   0  0  0  0  0  0  0  0  0  0  0  0
    3.7651    0.7518  -20.1235 H   0  0  0  0  0  0  0  0  0  0  0  0
    3.8273   -1.7193  -20.2445 H   0  0  0  0  0  0  0  0  0  0  0  0
    7.3507   -1.5285  -22.7023 H   0  0  0  0  0  0  0  0  0  0  0  0
    6.2846    5.3575  -20.5044 H   0  0  0  0  0  0  0  0  0  0  0  0
    7.7189    5.0164  -21.5307 H   0  0  0  0  0  0  0  0  0  0  0  0
    5.9511    2.6533  -23.3453 H   0  0  0  0  0  0  0  0  0  0  0  0
    4.2894    3.1969  -22.9332 H   0  0  0  0  0  0  0  0  0  0  0  0
    7.6455    2.7161  -21.1092 H   0  0  0  0  0  0  0  0  0  0  0  0
    7.4219   10.4218  -22.5706 H   0  0  0  0  0  0  0  0  0  0  0  0
    6.4022    9.1165  -21.8758 H   0  0  0  0  0  0  0  0  0  0  0  0
    8.0148    8.7262  -22.5643 H   0  0  0  0  0  0  0  0  0  0  0  0
    4.6214    3.0986  -16.5664 H   0  0  0  0  0  0  0  0  0  0  0  0
    6.2204    2.2805  -16.5832 H   0  0  0  0  0  0  0  0  0  0  0  0
    6.1290    4.0744  -16.6005 H   0  0  0  0  0  0  0  0  0  0  0  0
    3.0328    4.3093  -27.7081 H   0  0  0  0  0  0  0  0  0  0  0  0
    4.0678    3.6215  -26.4111 H   0  0  0  0  0  0  0  0  0  0  0  0
    2.6816    4.6820  -25.9864 H   0  0  0  0  0  0  0  0  0  0  0  0
    3.4648    3.2827  -20.8741 H   0  0  0  0  0  0  0  0  0  0  0  0
    2.3414    3.4374  -18.9118 H   0  0  0  0  0  0  0  0  0  0  0  0
    3.2234    3.5150  -17.4231 H   0  0  0  0  0  0  0  0  0  0  0  0
  1  2  2  0  0  0  0
  1  4  1  0  0  0  0
  2  5  1  0  0  0  0
  3  5  2  0  0  0  0
  3  6  1  0  0  0  0
  4  6  2  0  0  0  0
  4 16  1  0  0  0  0
  5 29  1  0  0  0  0
  6 30  1  0  0  0  0
  7  8  1  0  0  0  0
  7  9  2  0  0  0  0
  7 31  1  0  0  0  0
  8 20  1  0  0  0  0
  8 21  2  0  0  0  0
  9 22  1  0  0  0  0
  9 28  1  0  0  0  0
 10 21  1  0  0  0  0
 10 22  2  0  0  0  0
 10 23  1  0  0  0  0
 11 15  1  0  0  0  0
 11 24  1  0  0  0  0
 11 27  2  0  0  0  0
 12 24  1  0  0  0  0
 12 25  2  0  0  0  0
 12 26  1  0  0  0  0
 13 15  1  0  0  0  0
 13 23  1  0  0  0  0
 14 16  1  0  0  0  0
 14 23  1  0  0  0  0
 15 16  1  0  0  0  0
 16 25  1  0  0  0  0
 17 20  1  0  0  0  0
 18 24  1  0  0  0  0
 19 28  1  0  0  0  0
 20 32  1  0  0  0  0
 20 33  1  0  0  0  0
  1 34  1  0  0  0  0
  2 35  1  0  0  0  0
  3 36  1  0  0  0  0
 13 37  1  0  0  0  0
 13 38  1  0  0  0  0
 14 39  1  0  0  0  0
 14 40  1  0  0  0  0
 15 41  1  0  0  0  0
 17 42  1  0  0  0  0
 17 43  1  0  0  0  0
 17 44  1  0  0  0  0
 18 45  1  0  0  0  0
 18 46  1  0  0  0  0
 18 47  1  0  0  0  0
 19 48  1  0  0  0  0
 19 49  1  0  0  0  0
 19 50  1  0  0  0  0
 25 51  1  0  0  0  0
 26 52  1  0  0  0  0
 26 53  1  0  0  0  0
M  CHG  1  25   1
M  END
> <OMEGA_C>
ZLCRQKzlhj67bKXBRbCSQBp/kb+c/aXBeYPSQK9yg79bGrHBA2exQNgYhj+XnKrBFR2zQAwP5L8J
y6vBFfrRQIpQwT6Uk7DBMdGuQMUG6kDpz8vB23LBQAo49kBY/sHB8iufQClOwEDO78zBhYu2QG7s
sECDkLvBl1PaQGvhS0APTpnBga6MQI/+TEAT4JjBeNXWQNNzlUBZ/anByeqqQI/QTEDO47TBPqXY
QMsfT0BFi6XBrGqvQJGAJUDt3qnBIgnkQGbdFUG6UrXBHNa0QFNuSUC/mYfBCrJeQBbvj0AUxNXB
smnPQNMqEkH2WcDBzBTFQB4r2UCMA7rBPlajQF2OpEBHw8TBdaW6QCiTkkBKmbPBIxu0QC1xSEC/
cJPBAmGKQNgFREBcTaPB72tNQCvZWUCsVZPBI0D9QJvcT0DC3ZTBtPeKQI/8tECPW9bBpQS0QMBU
SMCiSqzBjAfxQHARhj+m67XBXHiqQAgnA0Fj8tPBrn+sQOMPH0GsN8HBE1fsQO53F0EkCcjB2Pdw
QG52QD8C/aDBRPJ0QIkQ3L+u9KHBMznrQBamw79GnrXB0hvJQJlwq0AcCaTBPwH3QJ2GoEDuPqzB
TG++QLXPKUAvw7rBX0KJQCSaTEBGd7fBx6f0QFfULUCU36jBj4DtQJu/JkGdkLTBD9/MQBvdEUGl
Aa/BpTwAQa2eC0Gcg7TBKOKTQBtQRkANiITBIw3HQCj0EUBlqoTBByHEQJdhgkDdzYTBCxpCQP7l
iUAgqt3BjSuCQIXGZ0D3SdPByp4rQKTSlUAo5M/BvL5dQAoYUkAX/qbB4dkVQGz+W0BHS5fBu0xO
QMb1YECNYovB5LTSQKoJ4D47M7DBFBvWQPDfc7+ePrHBf3KUQKN8nL/kAqfBc0uwQCqEgz/PdqrB
Vi+3QCQ25L+Mj6zB6mCQQMP1Lz7qA6bBEzKsQAYc60CYzMrBnOi7QK6K9UAnf8DBW06fQLa8wEAn
x8zBW7y3QHbqrUATxbvBw2raQHgeTECicJnBrcyMQMLiUUD77pjBhrLXQEgOk0DqVKrBUtmqQJH6
R0AbBbXB0WzYQHz7S0DfpKXB92CuQEkGJEA8yKnB/L/yQNOFF0E9SsHBrZS1QCpsUEDGtIfBYRNm
QHhwj0D+e9bB3RfGQE6IEUFANL3BAK3CQDBI1kD+VLnBZiOlQEnxokBvIcXBVeW9QPnBjkDsPrTB
y1K0QCZ7TEAsh5PBVSWKQKUdR0BLVaPBcg9OQNDYYECBY5PBo3r9QDK+UECjFJXBRbuLQNy4tkAP
Y9bBw6K6QFLkR8AkeK3BlXVaQIMEIz8I56DBMCeoQGmFBEHfjtLBP6LFQHwzE0EUVLLBLkmoQHxC
H0FAJ8HBaqXqQL82iT/R0LPBHXXwQFIhsb+2pLXB0kp5QEo/778zeqPB7Y7IQFWjqUD8vaTBgk/4
QKIBnkC3MazBwq68QJsKIECvu7rBhCmJQPARTEBMhbfBntbzQJ9GKEBp5KjB2UP6QBcMKEH46b7B
p0kFQUKTDEFy073B4njzQMI9FkGVEMrBDruUQPMYUECFi4TBYhPHQGChGECOmITB+eHFQFK8hUCu
L4XBXAVKQNSxikDAd97BGxGIQP2TaECPjdTBlZoyQIKGkUDegNDB/updQFPvVkCMD6fBiWAWQFYW
Y0CLUpfB4VdPQI9haUA1dovB0TjTQOLw8z51TbDBoPPWQIvSab9waLHBRGqVQCiCmr9mLqfB2LWw
QOgKhz8niKrBJTC4QOyp4L/hyKzBbRqRQPzlPT44FabBS6uuQCOR6UDLwsvB7evBQKGI9UCv/sHB
i5yeQDv4v0Dl2czBiqS3QNoTsEAdp7vBo8vZQHqES0BaLZnBGCSMQDELT0Af0ZjBEoTXQBjDlEAJ
/KnBN1urQBqvS0Cp2rTBg03YQN0aTkAMbqXBaJKuQEz8JUACtqnBRurhQNS+FUHTBbXBkCy0QDGM
SEDNgIfBhn1gQJskjkCCutXBGFvRQGubEUE7cMDBgWbGQGA22EAWHbrBt2ijQJ0IpEBAvcTBbHC8
QNSKkUBCxbPBRHezQPXVSEBOWJPB3w6KQEC9R0B9RKPBDfFLQGV4WkC0T5PB4ar8QAeOTkC5s5TB
4U+JQCIItUB6KNbBrdC7QP4IRsDzy63BigVcQOMYIj+/2qDBq2SqQFfsAkGK5dPBn1iwQIxIH0Fg
XMLB0YXxQPqCFUGyfcfBQ/7qQDsvjz9Q5rPB7XPxQIvjqr8+z7XBdIN7QB5L7r+PrqPB9k3JQM4k
q0AjMqTB7gj4QLZyn0BTCazB3pq+QLpaJkBOjrrButuJQEg1TUD7jLfBV+/zQKpDK0B+tajBV6Ts
QNlzJkH0VrTBzQrIQHbGEkFpPq/BOeT8QMP1CkGvU7PBuTCTQJdLRkBfcYTBzODFQPgdEEB7qITB
7f3DQDKCgUB+m4TBY7dBQLCxiEBwht3BEUaFQMvrZUBK09PB6hYvQCozkUB0gc/BCmpeQA5QWUA7
BqfBbZMUQK3cXEApUJfBBVVMQKZOYEBHWIvBd+eRQHGXbT5oS6XBS3SSQO5vlb8P2KXBytbRQOg7
ir/mI7HBNY2xQEFYgD/znKrB0GmyQJlQ6b8HvKvBm7vRQOS4pT7xpLDB++WsQO9H60BMzcrBv768
QBrR9UA8hsDBRJOfQMQDwUDtuMzB1wq2QOawrkBVgbvB7tvaQAr5S0CuiJnBVkqNQKxDUEASMJnB
6gbYQNYLk0C0c6rBATerQNwsSEDfFLXBej3ZQLGzS0DYv6XBx8avQCVJIkAL/6nBgevxQNhkGEEv
TcLBH2W1QB8sUkCt5IfB4TRmQEIZkECSetbBPRzHQFK1EUHCVb3BKTrCQCvX1kCEN7nByECkQOOB
o0C588TBD4a6QJYNkEAyxLPBRpq0QIjOS0CBspPBIsGKQOn4QUCHg6PBJEhPQK6hY0C+0ZPBc7X9
QOjPUkBtHJXBL2uMQIX0tkA2YdbB2NayQCTwSsB1OazBvLjwQPaxez8QGrbBYtqoQBiUBEEAk9LB
QDPKQCNAE0GGerLBe1ynQHcLH0E/nsDBXkByQJTFOj86xqDBKIV0QHQB37/xuqHB2TfqQGqWy7/7
s7XB8r/LQG7+qUDehqTB/iX4QNr8nEAcDq3BTf++QKImJUCA5brBNJ2JQMhER0CRs7fBPhf1QHX6
KEBO7qjBwVz5QAz0KEHt+L/BwrAFQSSvDUHubb/BxL7vQHhWF0GdEcvBGnKUQFb/UEDxzITBA2bH
QI/TG0BPkoTBKvHEQPs2h0DhhoXBbPVKQCFHi0DAgN7BfpCHQDpeaUCkZ9TBjRkyQGXVkkDZmdDB
t8ZdQNG2TEDTNafBgfAXQJ5DZkDk0pfBYl5QQCj0bkBY8ovBOL2OQIS2Vj70oKTBc8GOQCLYmL+o
K6XBpOXLQLLBj7+PNbHBYZWtQOtOej+cU6rBOFWtQHxA7r++cKvB8jrMQC6vkT7CubDBdB6nQA73
7UBOtsrB/bSwQK+F+ED38r/B0dOkQIp0wkAIns3BVROzQKx+r0C537vBi+DcQEqUTEAcE5rB/0GP
QIT1T0DwLZjBElHUQHhUk0BmvKrBBSalQN4LSUAY57TBRizXQB6kS0DINabBo4KsQAnHIUDzvqnB
7tiDQDl+GkH84rjBIFe9QNddYECA2YfBjhOdQP5SikAHsdrBinSxQH1mE0ER/rvBxoS2QGXK2EAu
wrjB00KqQAMMpEBaDsbB8vm4QO+Rj0CjX7TB9Ya4QIWwUECpf5PBgoGJQMOIQEDec6LBIexVQPI4
X0B0/5HBypgAQYn6UkBra5bByiKdQFW0t0AUNdjBDEGtQMmRTcCH86vB8A7qQPP7cD/Ik7bB5y+g
QAxOBkF/L9LBP1HBQFbSIEHmlsPBLkPLQBYFFUFCPrPBaPNtQFuMNj+U0Z/BW25uQHhe4b8RwqDB
GkvjQI3J0b8XDLbBGKjFQGETqUDE3aTBh0z0QP45n0BZ5azB36S0QGDwIUBIHLvBQbiCQOopTkCS
nrbBLxryQNSWKUCU86nBL5aEQMYlK0ESDLbBaItdQNBRGUEd6b/BtUhvQBUREEG9fLLBnpSdQD1t
YUC8DoTBW7rQQNIBLUALSITBzkrNQOUkj0Aik4bBhKyWQJjRhUBnRePBlnW8QN8NeUDcsdjBmQ2E
QC92dEAU/dXBJLlYQOTGSUApjKXBYPMbQG42XkCRYpXBL8hbQHgwa0BULIrBVDmQQA7+iT4b667B
9hiQQPKVkb+3gK/B43jVQB2Jmb+Bs6bB6RGzQMG1dz8nO6rBZtKyQFZ+779/ZqvBY+bVQC+UUD6o
BqbBbJSvQHFu7EDiQMvB+mjHQClk9EAQ0sHBbWedQECRw0ApuszBRFy4QDG4rkDsE7zBw73ZQPiP
U0AXQZnBnLaLQJkrTEDF85jB6rzTQMOHlUD+HarBROirQJcMRkAwDLXBehLYQDR/UUD5f6XBF1Sw
QCPaIECdsqnBn266QKdoHkEYvLnB4aOzQNKXY0AbxIfBiXVqQFw7kECyBNfB4F/bQEYAEEGIbL/B
l4zKQMNl1UDpWrrB+WCiQBFspUB0FMXBTKq8QAx8j0BVULTBmDuzQEXmUkCuc5PBn9iJQBz6OEBF
NqPByUVKQCqZWUAknpPBXYn8QBm0XEAS2ZTBA6WGQO4cu0CBAtbBc/uyQJowTsB26avBQTr4QFpf
Qj/yNaHB+PupQPSGBUGZzNLBLSvpQGu7GUFdh8jBoBH+QOl8DUE077jBo9pqQEVCUz/gFLLBPbFq
QIWG07+IGbPB7RbwQFkZ4r8LkqPBZ1HBQI8yqkCnrqTB/G/zQNi/o0AIiKvBpdm+QHlmIEDLx7rB
jimKQMJpRkAZjbfB8jz1QEMAM0AOn6jBi/TIQOYSLkFzB7jB6FeeQDOXIEHN7L7BQXqwQEjXFkGM
MLLBL8aSQPxuYEDMo4TBIHvHQE0hM0Cuv4PBp/rAQEbMkUCyPobBUfBHQJ1ijUCap97BN3iPQCCS
cUC/zNbB0hw+QEwGikC9XNDB2bFaQPaYOkBH2KbB6eISQI6LVECAk5fBIktKQI5JaEDQ1IvBvaHM
QBt7oT75cbDBB/fNQB5Ui79eQbHBRPKPQJVAoL+HlqXBr+asQPIpdz8lK6rBaK2vQPyc779LyqvB
jQ2OQG4SGT4RxaTBrKSmQHXC7UDwlsrB/eGvQD1F+EBrzr/BfcKkQOlDwkDphs3BlZqyQLwyr0Ce
w7vBcdzcQGKBS0DJF5rBFEOPQMrKUUDwTJjBC47VQL9NkkBW7qrBNaSmQMLLRkDSBLXBf1rXQG6m
SUCTQabB3EusQGVWIUAnuKnBZl+CQDEoGkE0xbjB2/68QNG7XkB034fB67WdQBJIikDsqdrBHyqw
QKJCE0HF0bvBxLa1QAWA2ED3n7jB3jGqQCzLo0CG+cXBcSK4QKNYj0BzNrTBX2K4QPRrUEDEjZPB
6NGJQA+xREB1o6LBbp5VQDLdX0ACIJLBA44AQRHhUUASZpbBB2edQGudt0BuI9jBdtawQNggTsBD
gqzBS7RbQC57KD9Yy57BlKWfQAw4BkFXDdLBYPq/QDbKIEEAYMPBi77JQIzwFEEWCLPBWRjkQG5w
aD8VqbTBCUbmQG0nyL8sFLbBtXlxQPG27b83ZqHBfxPJQI/5qEA996TBjo31QGqlnEAMiK3B/6C4
QBIOIUCF7rrBgZ+EQLBOSECZRbfB1vLxQK8MJkDD66nBVMiCQLjMKkHQ6LXBv/RaQGbvGEFq07/B
o19sQJimD0G/ZrLBRCOdQPqqYEBUI4TB48PPQIdDKkDUWYTBjoPNQKHwjUBxeIbB3YyXQEzchUDV
QePB4CK9QDdVeUCWodjBY66EQJLmc0CxA9bBkvJaQL30UkD/5KXBLNMbQEbFX0DGj5XBaBhbQD4O
akDAQYrB

> <OMEGA_E>
AGScPWDCyz1gIc49YKibPVgklD4QzlU+zKahPg==

> <OMEGA_NBR>
    113414

$$$$
220614
  -OEChem-04172616093D

 54 58  0     1  0  0  0  0  0999 V2000
    4.5186    0.2557  -20.6997 C   0  0  0  0  0  0  0  0  0  0  0  0
    6.5557    0.4158  -22.0410 C   0  0  0  0  0  0  0  0  0  0  0  0
    4.5432   -1.1404  -20.8418 C   0  0  0  0  0  0  0  0  0  0  0  0
    6.5736   -0.9790  -22.1837 C   0  0  0  0  0  0  0  0  0  0  0  0
    5.5265    1.0492  -21.2999 C   0  0  0  0  0  0  0  0  0  0  0  0
    5.5657   -1.7560  -21.5867 C   0  0  0  0  0  0  0  0  0  0  0  0
    5.3482    7.3481  -25.3634 C   0  0  0  0  0  0  0  0  0  0  0  0
    5.8494    7.6825  -24.0943 C   0  0  0  0  0  0  0  0  0  0  0  0
    4.9780    6.0181  -25.6077 C   0  0  0  0  0  0  0  0  0  0  0  0
    5.7213    5.4567  -23.4616 C   0  0  0  0  0  0  0  0  0  0  0  0
    6.8416    3.1897  -19.1720 C   0  0  0  0  0  0  0  0  0  0  0  0
    4.4122    3.2479  -19.1118 C   0  0  0  0  0  0  0  0  0  0  0  0
    7.4935    9.6487  -24.3094 C   0  0  0  0  0  0  0  0  0  0  0  0
    7.3356    9.3833  -22.8056 C   0  0  0  0  0  0  0  0  0  0  0  0
    6.7560    4.6118  -21.2864 C   0  0  0  0  0  0  0  0  0  0  0  0
    5.3638    3.1369  -22.6221 C   0  0  0  0  0  0  0  0  0  0  0  0
    6.1739    9.1067  -23.7664 C   0  0  0  0  0  0  0  0  0  0  0  0
    6.7859    3.1971  -20.7010 C   0  0  2  0  0  0  0  0  0  0  0  0
    5.4796    2.5716  -21.2204 C   0  0  2  0  0  0  0  0  0  0  0  0
    5.6831    3.2314  -16.9565 C   0  0  0  0  0  0  0  0  0  0  0  0
    3.5168    4.5458  -26.7948 C   0  0  0  0  0  0  0  0  0  0  0  0
    6.0388    6.7300  -23.1668 N   0  0  0  0  0  0  0  0  0  0  0  0
    5.1692    5.0938  -24.6440 N   0  0  0  0  0  0  0  0  0  0  0  0
    5.9219    4.4870  -22.5124 N   0  0  3  0  0  0  0  0  0  0  0  0
    5.6482    3.1746  -18.4351 N   0  0  0  0  0  0  0  0  0  0  0  0
    4.3311    3.0797  -20.4112 N   0  3  0  0  0  0  0  0  0  0  0  0
    3.2313    3.4838  -18.4209 N   0  0  0  0  0  0  0  0  0  0  0  0
    7.9341    3.2727  -18.6219 O   0  0  0  0  0  0  0  0  0  0  0  0
    4.3958    5.6939  -26.8172 O   0  0  0  0  0  0  0  0  0  0  0  0
    5.5742   -3.0971  -21.7362 F   0  0  0  0  0  0  0  0  0  0  0  0
    5.1996    8.2922  -26.3208 F   0  0  0  0  0  0  0  0  0  0  0  0
    3.7295    0.7258  -20.1316 H   0  0  0  0  0  0  0  0  0  0  0  0
    7.3314    1.0116  -22.4988 H   0  0  0  0  0  0  0  0  0  0  0  0
    3.7760   -1.7431  -20.3786 H   0  0  0  0  0  0  0  0  0  0  0  0
    7.3597   -1.4552  -22.7508 H   0  0  0  0  0  0  0  0  0  0  0  0
    7.5516   10.6820  -24.6822 H   0  0  0  0  0  0  0  0  0  0  0  0
    8.1451    9.0028  -24.9162 H   0  0  0  0  0  0  0  0  0  0  0  0
    7.8721    8.5464  -22.3345 H   0  0  0  0  0  0  0  0  0  0  0  0
    7.2787   10.2256  -22.1005 H   0  0  0  0  0  0  0  0  0  0  0  0
    6.3008    5.3175  -20.5760 H   0  0  0  0  0  0  0  0  0  0  0  0
    7.7717    4.9500  -21.5393 H   0  0  0  0  0  0  0  0  0  0  0  0
    5.9428    2.5322  -23.3356 H   0  0  0  0  0  0  0  0  0  0  0  0
    4.3121    3.1743  -22.9420 H   0  0  0  0  0  0  0  0  0  0  0  0
    5.3325    9.8143  -23.7299 H   0  0  0  0  0  0  0  0  0  0  0  0
    7.6466    2.6455  -21.1069 H   0  0  0  0  0  0  0  0  0  0  0  0
    4.6559    3.2093  -16.5638 H   0  0  0  0  0  0  0  0  0  0  0  0
    6.2420    2.3665  -16.5697 H   0  0  0  0  0  0  0  0  0  0  0  0
    6.1779    4.1604  -16.6370 H   0  0  0  0  0  0  0  0  0  0  0  0
    3.1090    4.3758  -27.8021 H   0  0  0  0  0  0  0  0  0  0  0  0
    4.0814    3.6582  -26.4733 H   0  0  0  0  0  0  0  0  0  0  0  0
    2.6913    4.7299  -26.0914 H   0  0  0  0  0  0  0  0  0  0  0  0
    3.4724    3.2989  -20.8746 H   0  0  0  0  0  0  0  0  0  0  0  0
    2.3621    3.5202  -18.9142 H   0  0  0  0  0  0  0  0  0  0  0  0
    3.2498    3.6172  -17.4300 H   0  0  0  0  0  0  0  0  0  0  0  0
  1  3  2  0  0  0  0
  1  5  1  0  0  0  0
  2  4  1  0  0  0  0
  2  5  2  0  0  0  0
  3  6  1  0  0  0  0
  4  6  2  0  0  0  0
  5 19  1  0  0  0  0
  6 30  1  0  0  0  0
  7  8  1  0  0  0  0
  7  9  2  0  0  0  0
  7 31  1  0  0  0  0
  8 17  1  0  0  0  0
  8 22  2  0  0  0  0
  9 23  1  0  0  0  0
  9 29  1  0  0  0  0
 10 22  1  0  0  0  0
 10 23  2  0  0  0  0
 10 24  1  0  0  0  0
 11 18  1  0  0  0  0
 11 25  1  0  0  0  0
 11 28  2  0  0  0  0
 12 25  1  0  0  0  0
 12 26  2  0  0  0  0
 12 27  1  0  0  0  0
 13 14  1  0  0  0  0
 13 17  1  0  0  0  0
 14 17  1  0  0  0  0
 15 18  1  0  0  0  0
 15 24  1  0  0  0  0
 16 19  1  0  0  0  0
 16 24  1  0  0  0  0
 18 19  1  0  0  0  0
 19 26  1  0  0  0  0
 20 25  1  0  0  0  0
 21 29  1  0  0  0  0
  1 32  1  0  0  0  0
  2 33  1  0  0  0  0
  3 34  1  0  0  0  0
  4 35  1  0  0  0  0
 13 36  1  0  0  0  0
 13 37  1  0  0  0  0
 14 38  1  0  0  0  0
 14 39  1  0  0  0  0
 15 40  1  0  0  0  0
 15 41  1  0  0  0  0
 16 42  1  0  0  0  0
 16 43  1  0  0  0  0
 17 44  1  0  0  0  0
 18 45  1  0  0  0  0
 20 46  1  0  0  0  0
 20 47  1  0  0  0  0
 20 48  1  0  0  0  0
 21 49  1  0  0  0  0
 21 50  1  0  0  0  0
 21 51  1  0  0  0  0
 26 52  1  0  0  0  0
 27 53  1  0  0  0  0
 27 54  1  0  0  0  0
M  CHG  1  26   1
M  END
> <OMEGA_C>
OpiQQPnrgj4UmaXBcsjRQAfg1D7rU7DB1GGRQJz5kb8RvKbBwlrSQD6ier8jeLHBH9mwQGZLhj9D
ZqrB3RmyQL7D4L93sazBfSSrQFUj60At6MrBbS67QB3X9UAUwcDBk0ufQF+UwECq3MzBrxS3QFyd
rkBEsbvBvO7aQLkjTEBPYJnBuTCNQFbeT0D55JjByMrvQAlhGkGnecLBK73qQN8hFkHHcbbBJjHY
QHyTk0CLSqrBoqSrQBzDSEAL+rTBvpDFQOy0EUGvIb7BAybZQNOdTECym6XB21ivQKaVJEBZw6nB
Pdy1QIrOTkADp4fBMBNhQGl3kUCoW9bBoD3BQGBc10ClVbnBsGmlQE0Ao0DmJsXBJ4C9QIWVj0B3
GbTBqb20QCItS0Ade5PBI5iKQJQaRUA5SqPB8sxOQM31XkAQXpPB3eP9QJxzUUCZ+ZTBYKqMQM40
tkCtidbBwV+yQA43RsDV463BAWOmQMesBEEBkdLBKbBuQJjOOT+TDaHBEpvqQJd9gT+N/bPBlalx
QEce379vB6PB2oLrQBZEur+iAbbBBqfxQFbpKkEXdcXBMlICQVELEEFxVMfBNOj7QDe+CEEWrbLB
1uroQD2cI0G8zbDB/p/JQAkpqkCfm6TByrH4QCRmnkB7UKzByiu+QBkQIkBbr7rBbPyJQDYoS0A/
ibfBzKOqQCwHHUHf1r3BWLH0QEpPKUD82qjBzfyUQMtlTUC+goTB3L7HQPp0F0C2joTBG7HFQPsh
hUCOGIXBxvlGQL8GjEDBat7BqpqCQNMfakBCydPBej4sQF1bl0A1u9DBazxeQBYhU0A7/6bBUC0X
QD1KYUBEUJfBTPxPQCGAZ0C8cIvBvR2QQFYVgD546qXBaTrRQG7X2T6Mp7DB8l+RQJfIkr9F/6bB
HjjSQCpdeL92wrHB8kGwQEKlhj9IsKrBk1uyQFi74L856KzBEUmrQBNa6UDNW8vBm46gQAcyvkAw
7szBDEK7QMvW9UBgU8HBtXG5QOXvrkBgw7vB73jaQNXlS0AvcJnBYq2MQFmUTkDq9ZjBIEg1QHh1
mkBwuNPBfsx+QAjDgEAvo9jBwGTYQFuxk0A6MqrBO2urQOWUSkCE97TBQTWFQLzVsECTV9bBNL/Y
QPptTEA5oaXBzOGuQEPaJECj3KnBCFC1QCWrTkCDv4fBPeHmQDJ4GEHwW73BBM+nQEACokCiEMXB
lgHDQC1E2EBhtLnBK5a9QHGFkECV7bPBGUK0QP0pSkCWj5PBsw+KQPB6REACXaPBTOFNQFGRXUBq
Z5PBmz79QFdvVUC0DpXBCou8QNZBEEGt3b7B/lWzQK9SRsAj9K3BEYijQB55A0EYAtPBAyptQPv9
Nj8+b6HBb8PpQAB9gz87YLTBhfRxQKef4L/4SKPBXWfrQLNWuL8GVLbB96v3P3V8oUCSftjBKdAi
QC8UlUD7VcvBg5KQQFvkUUCiyNPB2Cp6QOe0akA48eDBAkrKQGFDqkDkb6TBWAT5QJ8ZnkDnO6zB
cN+9QL1lJEBvvrrB0cmJQDW1TUAlibfB5ymFQF8wxkB7Vt3BHD30QEntKEAU36jB+nGUQMR2TEAr
nITBkp3HQHQaGEC4loTBa6zEQEtlhUBzQYXBZC/lQJWdKUFJa7vBR4D2QNvYD0GGwbbBQ3/5QJ9A
FkGtvsTBXBFdQI5pUkBXDafBzDcWQExUYEBTVpfBuC9PQKyZZUAKeIvB

> <OMEGA_E>
ACiVPdCVcT4=

> <OMEGA_NBR>
    115515

$$$$
220615
  -OEChem-04172616093D

 53 56  0     1  0  0  0  0  0999 V2000
    4.5288    0.2363  -20.6960 C   0  0  0  0  0  0  0  0  0  0  0  0
    6.5416   -1.0527  -22.1770 C   0  0  0  0  0  0  0  0  0  0  0  0
    5.5143    1.0169  -21.3493 C   0  0  0  0  0  0  0  0  0  0  0  0
    4.5554   -1.1617  -20.7737 C   0  0  0  0  0  0  0  0  0  0  0  0
    6.5199    0.3506  -22.1148 C   0  0  0  0  0  0  0  0  0  0  0  0
    5.5686   -1.8082  -21.5030 C   0  0  0  0  0  0  0  0  0  0  0  0
    5.3911    7.3663  -25.3466 C   0  0  0  0  0  0  0  0  0  0  0  0
    5.9234    7.6875  -24.0789 C   0  0  0  0  0  0  0  0  0  0  0  0
    4.9916    6.0412  -25.5935 C   0  0  0  0  0  0  0  0  0  0  0  0
    5.7277    5.4639  -23.4540 C   0  0  0  0  0  0  0  0  0  0  0  0
    6.8336    3.2021  -19.1967 C   0  0  0  0  0  0  0  0  0  0  0  0
    4.4085    3.2252  -19.1148 C   0  0  0  0  0  0  0  0  0  0  0  0
    6.7472    4.5910  -21.3100 C   0  0  0  0  0  0  0  0  0  0  0  0
    5.2938    3.1550  -22.6241 C   0  0  0  0  0  0  0  0  0  0  0  0
    6.7651    3.1830  -20.7215 C   0  0  2  0  0  0  0  0  0  0  0  0
    5.4576    2.5486  -21.2451 C   0  0  2  0  0  0  0  0  0  0  0  0
    7.5903    9.5185  -24.3337 C   0  0  0  0  0  0  0  0  0  0  0  0
    5.6946    3.2683  -16.9742 C   0  0  0  0  0  0  0  0  0  0  0  0
    3.6124    4.4946  -26.8044 C   0  0  0  0  0  0  0  0  0  0  0  0
    6.2583    9.1097  -23.7038 C   0  0  0  0  0  0  0  0  0  0  0  0
    6.1168    6.7205  -23.1694 N   0  0  0  0  0  0  0  0  0  0  0  0
    5.1655    5.1146  -24.6320 N   0  0  0  0  0  0  0  0  0  0  0  0
    5.8504    4.5040  -22.4877 N   0  0  3  0  0  0  0  0  0  0  0  0
    5.6493    3.1778  -18.4501 N   0  0  0  0  0  0  0  0  0  0  0  0
    4.3133    3.0324  -20.4099 N   0  3  0  0  0  0  0  0  0  0  0  0
    3.2358    3.4750  -18.4144 N   0  0  0  0  0  0  0  0  0  0  0  0
    7.9220    3.3860  -18.6629 O   0  0  0  0  0  0  0  0  0  0  0  0
    4.3760    5.7271  -26.7923 O   0  0  0  0  0  0  0  0  0  0  0  0
    3.5982   -1.8788  -20.1440 F   0  0  0  0  0  0  0  0  0  0  0  0
    7.4735    1.0233  -22.8048 F   0  0  0  0  0  0  0  0  0  0  0  0
    5.6068   -3.1571  -21.5643 F   0  0  0  0  0  0  0  0  0  0  0  0
    5.2081    8.3190  -26.2888 F   0  0  0  0  0  0  0  0  0  0  0  0
    3.7483    0.7248  -20.1316 H   0  0  0  0  0  0  0  0  0  0  0  0
    7.3110   -1.5531  -22.7462 H   0  0  0  0  0  0  0  0  0  0  0  0
    6.3541    5.3112  -20.5773 H   0  0  0  0  0  0  0  0  0  0  0  0
    7.7590    4.8948  -21.6163 H   0  0  0  0  0  0  0  0  0  0  0  0
    5.8520    2.5759  -23.3745 H   0  0  0  0  0  0  0  0  0  0  0  0
    4.2322    3.1971  -22.9089 H   0  0  0  0  0  0  0  0  0  0  0  0
    7.6255    2.6270  -21.1221 H   0  0  0  0  0  0  0  0  0  0  0  0
    7.8254   10.5562  -24.0545 H   0  0  0  0  0  0  0  0  0  0  0  0
    8.3869    8.8521  -23.9714 H   0  0  0  0  0  0  0  0  0  0  0  0
    7.5171    9.4412  -25.4285 H   0  0  0  0  0  0  0  0  0  0  0  0
    4.6711    3.2328  -16.5726 H   0  0  0  0  0  0  0  0  0  0  0  0
    6.2753    2.4247  -16.5728 H   0  0  0  0  0  0  0  0  0  0  0  0
    6.1713    4.2149  -16.6795 H   0  0  0  0  0  0  0  0  0  0  0  0
    3.1703    4.3463  -27.8006 H   0  0  0  0  0  0  0  0  0  0  0  0
    4.2763    3.6498  -26.5685 H   0  0  0  0  0  0  0  0  0  0  0  0
    2.8113    4.5524  -26.0528 H   0  0  0  0  0  0  0  0  0  0  0  0
    5.4638    9.7785  -24.0663 H   0  0  0  0  0  0  0  0  0  0  0  0
    6.3336    9.1894  -22.6092 H   0  0  0  0  0  0  0  0  0  0  0  0
    3.4384    3.2167  -20.8579 H   0  0  0  0  0  0  0  0  0  0  0  0
    2.3609    3.5027  -18.8979 H   0  0  0  0  0  0  0  0  0  0  0  0
    3.2662    3.6271  -17.4265 H   0  0  0  0  0  0  0  0  0  0  0  0
  1  3  1  0  0  0  0
  1  4  2  0  0  0  0
  2  5  1  0  0  0  0
  2  6  2  0  0  0  0
  3  5  2  0  0  0  0
  3 16  1  0  0  0  0
  4  6  1  0  0  0  0
  4 29  1  0  0  0  0
  5 30  1  0  0  0  0
  6 31  1  0  0  0  0
  7  8  1  0  0  0  0
  7  9  2  0  0  0  0
  7 32  1  0  0  0  0
  8 20  1  0  0  0  0
  8 21  2  0  0  0  0
  9 22  1  0  0  0  0
  9 28  1  0  0  0  0
 10 21  1  0  0  0  0
 10 22  2  0  0  0  0
 10 23  1  0  0  0  0
 11 15  1  0  0  0  0
 11 24  1  0  0  0  0
 11 27  2  0  0  0  0
 12 24  1  0  0  0  0
 12 25  2  0  0  0  0
 12 26  1  0  0  0  0
 13 15  1  0  0  0  0
 13 23  1  0  0  0  0
 14 16  1  0  0  0  0
 14 23  1  0  0  0  0
 15 16  1  0  0  0  0
 16 25  1  0  0  0  0
 17 20  1  0  0  0  0
 18 24  1  0  0  0  0
 19 28  1  0  0  0  0
  1 33  1  0  0  0  0
  2 34  1  0  0  0  0
 13 35  1  0  0  0  0
 13 36  1  0  0  0  0
 14 37  1  0  0  0  0
 14 38  1  0  0  0  0
 15 39  1  0  0  0  0
 17 40  1  0  0  0  0
 17 41  1  0  0  0  0
 17 42  1  0  0  0  0
 18 43  1  0  0  0  0
 18 44  1  0  0  0  0
 18 45  1  0  0  0  0
 19 46  1  0  0  0  0
 19 47  1  0  0  0  0
 19 48  1  0  0  0  0
 20 49  1  0  0  0  0
 20 50  1  0  0  0  0
 25 51  1  0  0  0  0
 26 52  1  0  0  0  0
 26 53  1  0  0  0  0
M  CHG  1  25   1
M  END
> <OMEGA_C>
TOyQQIfrcT5VkaXBI1XRQNu9hr9qarHB4XSwQBcrgj9Ry6rBN8aRQF2xlL+SMKbBtKLQQMKEsz4l
67DBrDGyQJB0578LBqzB1YOsQGO460DVxcrBSIy9QJv/9UCGocDBQrufQLZRwUBlv8zBe0m3QELY
rkC0obvBE63aQILvTEDjkpnBLxKNQH5qTkAt65jB0ejXQG/pkkDleqrBHWepQPDqSUAi/rTBhHvY
QIS2S0CjxaXBDKWuQIUbI0D49anBs+PyQPJLGEFXq8LBxDm2QI0sUUApy4fBEjJnQOXTj0BWb9bB
AETIQILBEUFPob3BwLzDQJwO10DaWrnBZ0ulQDGro0BZDsXBgDa7QJcgkEDZ5rPBJce0QO9gS0C0
mZPBRgaKQOwSQkBgR6PBDBhPQOhlXkDAUJPBxYD9QJKzWECnTZXBYAiMQGZEt0C1VtbBqElmQJN9
8L/3JqHBFSfvQLf7gj9CcLbBnWqzQDcOSsCfg6zBEqmmQJQaBUF4T9LBqeRvQKKNOT+HDaHBgPPp
QGrNxr9B+LXBJFXLQEb1qUBTnqTBHkr4QA2inEAx7qzB4UO7QKvbJED2/rrBBm6HQA+eTEBjRbfB
YgT0QCUhKEAV+qjBgWn6QEjmKEGHb8DByDAGQQiiDUGCxb/B2YvwQAIPF0GNbcvBqXmVQEzmTkCt
lITBKs/IQAkvG0AvlYTBJHvFQA/ghkCYb4XBkeZKQMIUi0CuZ97BQNeIQMqWaUA8jNTB4OwzQFat
kUAPbNDBGteuQNp0HEHFh8DB0azKQOAHE0G537TBQg9cQBXeTUDj3KbBTxkXQBcsYEDkLpfBNQpR
QFUiaECLaYvBBUTRQLKX1D6ibbDBmkiTQFzfnb/7+qbBiGevQBaYgT/ykqrB113UQLPBeb9OdbHB
h4SPQNZLJj5JBKbB7qy1QDLB5r9lmazB3UiuQMqL6kA/CMvB4Vy9QLuw9UCGw8DBn2igQCpbwEBo
yszBTUi2QNTdrkDlc7vBBsvaQGB4S0CFhpnBWzCNQCumUEAF5pjBp5/YQCdskkAzgarBlcmqQOlx
SEA8+LTBwYvYQGN+SkDiuqXB2y+uQDwvI0D2z6nBDcr2QB1TFkGSysDB5W22QMUeT0BovofBzzFm
QCB5j0A9TtbBdB/IQLexEUHa9r3BekLCQH1V10ClP7nBt6KkQPFPo0Ah5cTBKYe6QGUokEBvr7PB
HNm0QHkmS0Bqj5PBxzyKQF1KRkCFS6PBFSxPQLjVX0BXTJPBfMf9QKhYVEB5OpXBjBWNQFLntUBC
ZtbB1Rn1QApZwb/zF7fBUZBZQEMHIj8RxKDBkgO5QHRgScCsVK3BLIarQMUDBEFo7dLBjBLpQKGr
hT8OKLTBGAN3QNLY77+rXaPBjH3NQGTtqUAnk6TB3Of4QMQxm0AsPq3Blte+QFeFJECEo7rBxWiJ
QCgeSECFw7fBsq/zQNXbJUC49ajB5Xn+QB4AJ0FIvL7BMuMFQYR7C0G6QrzBfrf7QMHRE0EEasnB
mqyVQCI2TkD5hYTB/ULIQN6kF0BJqoTBNIrGQLc6hUDlQIXB48BKQAJBikDJTd7B+BaHQAHDZ0D6
GNTBcDYyQDAek0D/cNDBPSyzQLqNHEGyfsLBIzvDQH03FEFnV7XBXfldQJl3VkAd+KbBS1cXQP+F
YkDSMZfBadRQQM4VaEAfXovBoYuTQE2Whj51tqTBThbRQGDnh7/aNrHBPV2xQKn+gz90qqrBEsGU
QK6fkb8N76TBrInQQND9rz4Q9bDB9WuzQGmf5r/XM6vBVDutQIBD6kCbgcvBGsSgQL9zv0Ak/8zB
Cb68QP2z9kB0a8HBQmi3QKMusEAkn7vBKoHaQLJTTUBxmZnBer2MQFUTUkCiUZnBCwPZQCXsk0Bt
garB6mCrQCh+S0DaH7XBuDvZQL4OTUCez6XBk66vQPx7JEAJGKrB/FhWQOOwjUBwmdXBgJa0QGEk
U0BU94fBWUvvQBY1FkEEtL3BVaiNQOAwsECEfNfBA6ymQBdHo0CGC8XBWTTCQG5M2UDVoLnBW1O7
QDG7kUDJwrPBPiq0QGlLU0Bj0pPBwo+KQGoQREALqKPBYsdMQLB9XkAu75PB2W/9QG+1TkArJJXB
D0TDQPumEEHfYL/BqrVwQJXE67+YCJ/BOoTuQBNPfz+UyLbBkIy0QKG8ScCScavBO/GpQHObA0Gs
gdPBRS93QNyVQz9M8p/BonroQDOtyb88EbbBTGrNQD8cq0CjjaTBZE/5QFEbnUBEJa3Bfea+QLtS
KEAI+7rB+8KJQEuiS0DXu7fByfH0QF6OKUAV76jBI/E7QAtPg0A9Vd3BZSlzQCU4ZEBbfNHBcL8i
QNYLm0BlodDBTJ2TQOpJWEA39ITB6f3CQKc0F0DvE4XBrHvHQJDohECaEIXBF97xQBZ5J0ExH7zB
69r7QLw8DUFX0LbByvcAQdYqEkGq48TBmBd+QDKVy0BIotvBxkCnQG6lokA9fdzBIKFdQL8AT0BU
ZqfBTGgVQM6KXEBI8JfBWuVMQDNiaUAQDYzBdODPQCqY9T6JirHBoK+XQCV1nr8Du6bBW0CwQB5n
hT96varBPpnSQJUNaL/tH7PBrt2TQDT4Gj68TKXBRL+2QN5F4r/Poa3BNA6tQA2K5kCLPszBbiKh
QFVOu0AWEc3BLQC/QAgk9UDLlMLBy0a3QEJPsEDYeLvBL+3ZQMp3S0A6SpnB+TyMQP00UECwyZjB
civYQD1ulECCFarBoUiqQBmNTUDWorTB3iHYQHIOTUDkgqXBvB6uQGRpJUAwrqnBrVI8QELDnEBR
zdTBzdi0QBi8S0BBkYfBNvPhQPxFFkHKmbjBpPmMQL3NqEArDdfBST+mQFt2oUDyqsTBeU/EQBZn
2UDVS7rBKrW5QPwSk0B1NbPBsb6zQIwySkAPZZPB3JaJQMjTRUDALaPB6bFMQDrZXUCaPpPBjtj8
QJeBUUAq45TBf7bJQET+D0Fk48HBBAbwQJnus78p+bnBIQRpQJOxEj/fq57BVbO5QHfHRsBq867B
AKmnQHDjAEFFjNTBkD/mQDDCkD+4kbXBkXuCQGS887+XeKLBNVjNQHl2q0AkAaTBoGD4QGxTnUAU
2qzBF0W+QBspK0Bxd7rBXcyIQIMuTUBFWbfBiYDzQAtkKUAPyqjBa1kfQKhVj0D3FdzB4uc5QNnX
hEBfWs7Bu6sYQOh9uUCKWtLBv/WTQK5lSkA6b4TBInbGQGqFE0BRn4TBaPPEQA43g0DP2ITBvX7o
QIaNJ0Gs8bjBjnzPQDmgEkF3VbHBejAAQaBuDUErbrjB1yKOQI2zwECMgd3B68CeQH4NjEBhgdnB
AzdcQEUpVEBc3abBWgQVQDNyX0AxL5fBY8pNQJMTZkDmT4vB

> <OMEGA_E>
wIkNPqDDIz6A+ZU+1PykPg==

> <OMEGA_NBR>
    119354

$$$$
330374
  -OEChem-04172616093D

 50 53  0     1  0  0  0  0  0999 V2000
    6.5534    0.4750  -22.0850 C   0  0  0  0  0  0  0  0  0  0  0  0
    4.6030    0.2733  -20.6286 C   0  0  0  0  0  0  0  0  0  0  0  0
    6.6526   -0.9236  -22.1509 C   0  0  0  0  0  0  0  0  0  0  0  0
    4.7053   -1.1267  -20.6985 C   0  0  0  0  0  0  0  0  0  0  0  0
    5.5338    1.0924  -21.3149 C   0  0  0  0  0  0  0  0  0  0  0  0
    5.7297   -1.7242  -21.4557 C   0  0  0  0  0  0  0  0  0  0  0  0
    5.4694    7.3287  -25.4652 C   0  0  0  0  0  0  0  0  0  0  0  0
    6.1144    7.6583  -24.2541 C   0  0  0  0  0  0  0  0  0  0  0  0
    4.9247    6.0388  -25.6140 C   0  0  0  0  0  0  0  0  0  0  0  0
    5.6945    5.5047  -23.4746 C   0  0  0  0  0  0  0  0  0  0  0  0
    4.2760    3.1729  -19.0477 C   0  0  0  0  0  0  0  0  0  0  0  0
    7.0989    4.3953  -21.7466 C   0  0  0  0  0  0  0  0  0  0  0  0
    5.2950    3.1967  -22.6369 C   0  0  0  0  0  0  0  0  0  0  0  0
    6.8277    3.2358  -20.7764 C   0  0  2  0  0  0  0  0  0  0  0  0
    5.4627    2.6230  -21.2391 C   0  0  2  0  0  0  0  0  0  0  0  0
    6.6723    9.0449  -24.0244 C   0  0  0  0  0  0  0  0  0  0  0  0
    5.4331    2.9815  -16.8360 C   0  0  0  0  0  0  0  0  0  0  0  0
    3.5587    4.4298  -26.7695 C   0  0  0  0  0  0  0  0  0  0  0  0
    6.2195    6.7350  -23.2802 N   0  0  0  0  0  0  0  0  0  0  0  0
    5.0456    5.1561  -24.6053 N   0  0  0  0  0  0  0  0  0  0  0  0
    3.1206    3.3402  -18.4549 N   0  0  0  0  0  0  0  0  0  0  0  0
    4.2976    3.1202  -20.4365 N   0  0  0  0  0  0  0  0  0  0  0  0
    5.8426    4.5506  -22.4960 N   0  0  2  0  0  0  0  0  0  0  0  0
    5.4630    3.0631  -18.3179 N   0  0  0  0  0  0  0  0  0  0  0  0
    8.0253    3.1408  -18.4328 O   0  0  0  0  0  0  0  0  0  0  0  0
    6.6238    5.2086  -18.9790 O   0  0  0  0  0  0  0  0  0  0  0  0
    4.2601    5.7015  -26.7818 O   0  0  0  0  0  0  0  0  0  0  0  0
    5.8246   -3.0699  -21.5183 F   0  0  0  0  0  0  0  0  0  0  0  0
    5.3532    8.2396  -26.4582 F   0  0  0  0  0  0  0  0  0  0  0  0
    6.8374    3.7556  -19.0401 S   0  0  0  0  0  0  0  0  0  0  0  0
    7.2600    1.0873  -22.6257 H   0  0  0  0  0  0  0  0  0  0  0  0
    3.8120    0.7266  -20.0497 H   0  0  0  0  0  0  0  0  0  0  0  0
    7.4363   -1.3836  -22.7345 H   0  0  0  0  0  0  0  0  0  0  0  0
    3.9956   -1.7455  -20.1696 H   0  0  0  0  0  0  0  0  0  0  0  0
    7.3386    5.3161  -21.1946 H   0  0  0  0  0  0  0  0  0  0  0  0
    7.9285    4.1483  -22.4254 H   0  0  0  0  0  0  0  0  0  0  0  0
    5.8637    2.6135  -23.3762 H   0  0  0  0  0  0  0  0  0  0  0  0
    4.2351    3.2258  -22.9296 H   0  0  0  0  0  0  0  0  0  0  0  0
    7.6175    2.4771  -20.8794 H   0  0  0  0  0  0  0  0  0  0  0  0
    7.1159    9.1005  -23.0194 H   0  0  0  0  0  0  0  0  0  0  0  0
    7.4444    9.2588  -24.7782 H   0  0  0  0  0  0  0  0  0  0  0  0
    5.8624    9.7845  -24.1090 H   0  0  0  0  0  0  0  0  0  0  0  0
    6.3605    3.4080  -16.4260 H   0  0  0  0  0  0  0  0  0  0  0  0
    4.5699    3.5469  -16.4552 H   0  0  0  0  0  0  0  0  0  0  0  0
    5.3466    1.9289  -16.5286 H   0  0  0  0  0  0  0  0  0  0  0  0
    3.0719    4.2695  -27.7429 H   0  0  0  0  0  0  0  0  0  0  0  0
    4.2758    3.6175  -26.5801 H   0  0  0  0  0  0  0  0  0  0  0  0
    2.7970    4.4390  -25.9760 H   0  0  0  0  0  0  0  0  0  0  0  0
    3.2118    3.3753  -17.4597 H   0  0  0  0  0  0  0  0  0  0  0  0
    3.4865    3.4331  -20.9308 H   0  0  0  0  0  0  0  0  0  0  0  0
  1  3  2  0  0  0  0
  1  5  1  0  0  0  0
  2  4  1  0  0  0  0
  2  5  2  0  0  0  0
  3  6  1  0  0  0  0
  4  6  2  0  0  0  0
  5 15  1  0  0  0  0
  6 28  1  0  0  0  0
  7  8  1  0  0  0  0
  7  9  2  0  0  0  0
  7 29  1  0  0  0  0
  8 16  1  0  0  0  0
  8 19  2  0  0  0  0
  9 20  1  0  0  0  0
  9 27  1  0  0  0  0
 10 19  1  0  0  0  0
 10 20  2  0  0  0  0
 10 23  1  0  0  0  0
 11 21  2  0  0  0  0
 11 22  1  0  0  0  0
 11 24  1  0  0  0  0
 12 14  1  0  0  0  0
 12 23  1  0  0  0  0
 13 15  1  0  0  0  0
 13 23  1  0  0  0  0
 14 15  1  0  0  0  0
 14 30  1  0  0  0  0
 15 22  1  0  0  0  0
 17 24  1  0  0  0  0
 18 27  1  0  0  0  0
 24 30  1  0  0  0  0
 25 30  2  0  0  0  0
 26 30  2  0  0  0  0
  1 31  1  0  0  0  0
  2 32  1  0  0  0  0
  3 33  1  0  0  0  0
  4 34  1  0  0  0  0
 12 35  1  0  0  0  0
 12 36  1  0  0  0  0
 13 37  1  0  0  0  0
 13 38  1  0  0  0  0
 14 39  1  0  0  0  0
 16 40  1  0  0  0  0
 16 41  1  0  0  0  0
 16 42  1  0  0  0  0
 17 43  1  0  0  0  0
 17 44  1  0  0  0  0
 17 45  1  0  0  0  0
 18 46  1  0  0  0  0
 18 47  1  0  0  0  0
 18 48  1  0  0  0  0
 21 49  1  0  0  0  0
 22 50  1  0  0  0  0
M  END
> <OMEGA_C>
k7XRQJA38z4drrDBtkuTQIzuiz5wB6XBLOLUQDBwbL8dNbHBdpGWQJs2kL+NlqXBORWxQBjTiz/4
hKrB41m3QNKz3L9JpavB+gSvQAuF6kCzuMvBwqjDQHEQ9UBQCMLB15adQPQ9wUBi6czBDzm2QFUm
sED4y7vBH9WIQLwQS0C1YZjBOyrjQG2mjED6+K3Bz3CpQCWXTEBdGLXBIXzaQGcXT0AHNqbBFs6u
QBvfJ0CU6anBWYPVQP63EEERMsDBKtytQHTQPkA5sIbBNMFjQNfAjUAIKNbB/gXHQFmF10DXPbrB
fHWhQHb+pECy18TBC7hHQKfFVUCvo5PB8IWJQA+yR0D+faPBjva6QByekUC197PBCtGuQBAJREAE
i5LBrWcAQUECSUBNdpPBYvbTQDOtpkAB1ZfBFFOIQPBytkAqQdbBTWO6QJZ4RMCHJazBzE2rQFzV
A0FlqtPB4MvaQDRbcEAmUpjBv1HoQP8riz9nAbXBaPdzQGsFOj/DZaDBPPbtQLoZsb9b4LXBd7d/
QDdt379MW6HB6NXqQG8dqkB4jqnBF7b9QIe+hEAqZ7PBTKO7QAtEJ0BdArvBqIWHQMNyTkC9b7fB
RsLzQFGJHkABCafBM7XjQHabEUG0J7jBVTjuQAwkFEG7OcbBDpm7QFWNHEFS38DB4ojLQA8dWkCH
aIPBSzySQFYAY0AupIPBFherQEPl9j+GOoTBw5pEQNOfiEB08d3BJdOIQHGEZ0AgpNTBEgIzQPQL
jkDEzs/Bs41NQEcEWEB6rYvBWCNfQDO4W0A1cqfBf/nNQDaNmj7FLbHBGPOPQOuBMj4GUKXBYOzP
QHCzjL9rgbHB5gKSQBUYnb87rKXBkC6uQNtUdD/kA6vBNRCyQCJ07r8UuKvBrMCwQNfS6kBA4crB
kY3FQGAv9EAVIcHBwf+eQDTcwUCCV8zBNXy3QBHLrkDVWLvBvMWKQB74TED8oJjBx03WQL2hkECV
E6rBpbqpQIPQRkAATLXB1uzYQBKTQ0D4uabBj8atQOqaHkCuU6rBFEnYQDoGEEHxFb/Bes2vQEU+
S0BC0IbB0HVfQPShkUC5mtXBMWHIQMvp1UBJfLnB1/iiQOWrpEBbgcTBejdMQBV6W0BI4pPBVZqJ
QEocQEALrKPBkNm6QKw0j0AGwrPBnRGxQGHhS0BOr5LBL7XoQK7QsD9MEpfBTDcAQYj/c0CUPJXB
ZnmJQLZRuEC2u9XBviS0QLt9TcA7+avBslqtQHpbBEECqNLBD9jgQCoqNEBquJjBE9zkQJb1Yj+v
p7XBeYVuQK7bKD+CraDBBFPoQBmVy7/sMbbBmex1QBm76L96TaHBQofHQIAypEAiw6PBDDb2QPZp
nUA6+avB7cG8QHZmI0AhO7vBdRaIQKrNSEDi37fBYV7zQPVGI0D75qrBI5PmQFF1EEHdC7fBGhPx
QNtwE0FnGMXBM9W+QPAhHEGfob/BHaHPQL6rOkA4rYPBHoSmQLp+hUB444PBCFCYQDeaG0CfE4TB
BYlAQNVjjUA8cN3Bz1iEQKzTa0Bj6tPBQSYuQGdIlEDXW8/BvTpTQPDSZEC1BIzB9a9cQKJ1TkCF
dafBO8qPQD3xOz5YWKXBYljOQIpBnD7DCrHBe3GRQBrpm7+zzaXBZ9zPQD46jL9zebHB82quQA3Z
dT9c8KrBG3SxQH+a7b/j2KvBb7mwQKHG6kCH68rBM27FQBwr9EAQKMHBPwufQA3KwUDIYszBcwK4
QBOWrkDFbrvBKq6KQFqETEB9mZjB0JvWQB+wkEDdC6rB/DqqQNuVRkBSTbXBxCbZQM/KQ0C7pabB
wRCuQCnyHkDESKrBamvWQMFIEEEQ6b7BmmSvQLYOSkB4vIbBaWhfQJRlkUDgjdXBw2/IQH3Z1UC7
h7nBqlCjQDOApEAIk8TB7tNLQNdgWkDu3pPB3dCJQOLWQEB7q6PB0hm8QObUjkDg5rPBqdawQDTi
SkAynJLB2u3oQGHCsD9QBJfBCwoAQWUydEAhDpXB5cmIQBeCuEA4sNXBlNGyQM4OTcAhTqzBVvSs
QM5jBEEDqdLB9cjgQIIYNEABn5jBpj1uQLrJKz8FuKDBeqvlQC9WYz/gY7XBfjl0QBFO57/bgqHB
lljoQLtfy79UH7bBVBXHQNhCpEDZ2KPBZJz2QA6mnUA8wqvBZ928QAEQIkCPNbvB5JKIQKyISUBO
2rfBHaHzQK5aI0DdyqrBNL3jQNLXEEEAxbbBK6XvQNAzFEEUusTBGTy8QOv2G0Fbmr/BAT7PQHz+
OUCGkoPBBcmlQL3MhEB1zoPBqhGYQOv4GUA9CITBqRs/QIlejUDoTt3BG+6EQALba0AEGdTBvj8v
QLVBk0D5Js/BF4pSQJHYYkBU/IvBPqBdQFFZUED5f6fB

> <OMEGA_E>
8Nc4PlCpRT64Bkc+

> <OMEGA_NBR>
    122185

$$$$
330376
  -OEChem-04172616093D

 50 53  0     1  0  0  0  0  0999 V2000
    4.5342   -1.2276  -20.6370 C   0  0  0  0  0  0  0  0  0  0  0  0
    5.4969   -1.9127  -21.3950 C   0  0  0  0  0  0  0  0  0  0  0  0
    4.5177    0.1760  -20.6217 C   0  0  0  0  0  0  0  0  0  0  0  0
    6.4413   -1.1932  -22.1460 C   0  0  0  0  0  0  0  0  0  0  0  0
    5.4684    0.9236  -21.3675 C   0  0  0  0  0  0  0  0  0  0  0  0
    6.4352    0.2137  -22.1418 C   0  0  0  0  0  0  0  0  0  0  0  0
    5.5248    7.3477  -25.3567 C   0  0  0  0  0  0  0  0  0  0  0  0
    6.1678    7.6380  -24.1333 C   0  0  0  0  0  0  0  0  0  0  0  0
    4.9648    6.0692  -25.5406 C   0  0  0  0  0  0  0  0  0  0  0  0
    5.7409    5.4625  -23.4234 C   0  0  0  0  0  0  0  0  0  0  0  0
    4.3402    3.2061  -19.0909 C   0  0  0  0  0  0  0  0  0  0  0  0
    6.6969    4.5244  -21.2595 C   0  0  0  0  0  0  0  0  0  0  0  0
    5.3079    3.1026  -22.6672 C   0  0  0  0  0  0  0  0  0  0  0  0
    6.7925    3.0646  -20.8331 C   0  0  2  0  0  0  0  0  0  0  0  0
    5.4559    2.4638  -21.2976 C   0  0  2  0  0  0  0  0  0  0  0  0
    6.7657    9.0032  -23.8774 C   0  0  0  0  0  0  0  0  0  0  0  0
    5.4767    3.1906  -16.8541 C   0  0  0  0  0  0  0  0  0  0  0  0
    3.5525    4.5152  -26.7171 C   0  0  0  0  0  0  0  0  0  0  0  0
    6.2654    6.6853  -23.1854 N   0  0  0  0  0  0  0  0  0  0  0  0
    5.0915    5.1536  -24.5643 N   0  0  0  0  0  0  0  0  0  0  0  0
    3.1877    3.4297  -18.5094 N   0  0  0  0  0  0  0  0  0  0  0  0
    4.3176    2.9881  -20.4697 N   0  0  0  0  0  0  0  0  0  0  0  0
    5.8674    4.4650  -22.4878 N   0  0  3  0  0  0  0  0  0  0  0  0
    5.5291    3.2041  -18.3377 N   0  0  0  0  0  0  0  0  0  0  0  0
    7.2814    1.4088  -18.8610 O   0  0  0  0  0  0  0  0  0  0  0  0
    8.0038    3.8474  -18.6447 O   0  0  0  0  0  0  0  0  0  0  0  0
    4.2783    5.7743  -26.7075 O   0  0  0  0  0  0  0  0  0  0  0  0
    7.3710    0.8469  -22.8892 F   0  0  0  0  0  0  0  0  0  0  0  0
    5.4292    8.2825  -26.3296 F   0  0  0  0  0  0  0  0  0  0  0  0
    7.0274    2.8391  -19.0792 S   0  0  0  0  0  0  0  0  0  0  0  0
    3.8049   -1.7815  -20.0645 H   0  0  0  0  0  0  0  0  0  0  0  0
    5.5114   -2.9926  -21.4009 H   0  0  0  0  0  0  0  0  0  0  0  0
    3.7730    0.6941  -20.0357 H   0  0  0  0  0  0  0  0  0  0  0  0
    7.1778   -1.7242  -22.7309 H   0  0  0  0  0  0  0  0  0  0  0  0
    6.2085    5.1311  -20.4827 H   0  0  0  0  0  0  0  0  0  0  0  0
    7.6928    4.9382  -21.4757 H   0  0  0  0  0  0  0  0  0  0  0  0
    5.8767    2.5424  -23.4239 H   0  0  0  0  0  0  0  0  0  0  0  0
    4.2499    3.1501  -22.9647 H   0  0  0  0  0  0  0  0  0  0  0  0
    7.6313    2.5688  -21.3435 H   0  0  0  0  0  0  0  0  0  0  0  0
    7.2279    9.0205  -22.8794 H   0  0  0  0  0  0  0  0  0  0  0  0
    7.5300    9.2173  -24.6390 H   0  0  0  0  0  0  0  0  0  0  0  0
    5.9742    9.7654  -23.9280 H   0  0  0  0  0  0  0  0  0  0  0  0
    6.4685    2.9329  -16.4540 H   0  0  0  0  0  0  0  0  0  0  0  0
    5.1811    4.1851  -16.4887 H   0  0  0  0  0  0  0  0  0  0  0  0
    4.7414    2.4438  -16.5200 H   0  0  0  0  0  0  0  0  0  0  0  0
    3.0497    4.3886  -27.6873 H   0  0  0  0  0  0  0  0  0  0  0  0
    4.2565    3.6851  -26.5581 H   0  0  0  0  0  0  0  0  0  0  0  0
    2.8020    4.5186  -25.9130 H   0  0  0  0  0  0  0  0  0  0  0  0
    3.2879    3.5850  -17.5266 H   0  0  0  0  0  0  0  0  0  0  0  0
    3.4664    3.2003  -20.9496 H   0  0  0  0  0  0  0  0  0  0  0  0
  1  2  1  0  0  0  0
  1  3  2  0  0  0  0
  2  4  2  0  0  0  0
  3  5  1  0  0  0  0
  4  6  1  0  0  0  0
  5  6  2  0  0  0  0
  5 15  1  0  0  0  0
  6 28  1  0  0  0  0
  7  8  1  0  0  0  0
  7  9  2  0  0  0  0
  7 29  1  0  0  0  0
  8 16  1  0  0  0  0
  8 19  2  0  0  0  0
  9 20  1  0  0  0  0
  9 27  1  0  0  0  0
 10 19  1  0  0  0  0
 10 20  2  0  0  0  0
 10 23  1  0  0  0  0
 11 21  2  0  0  0  0
 11 22  1  0  0  0  0
 11 24  1  0  0  0  0
 12 14  1  0  0  0  0
 12 23  1  0  0  0  0
 13 15  1  0  0  0  0
 13 23  1  0  0  0  0
 14 15  1  0  0  0  0
 14 30  1  0  0  0  0
 15 22  1  0  0  0  0
 17 24  1  0  0  0  0
 18 27  1  0  0  0  0
 24 30  1  0  0  0  0
 25 30  2  0  0  0  0
 26 30  2  0  0  0  0
  1 31  1  0  0  0  0
  2 32  1  0  0  0  0
  3 33  1  0  0  0  0
  4 34  1  0  0  0  0
 12 35  1  0  0  0  0
 12 36  1  0  0  0  0
 13 37  1  0  0  0  0
 13 38  1  0  0  0  0
 14 39  1  0  0  0  0
 16 40  1  0  0  0  0
 16 41  1  0  0  0  0
 16 42  1  0  0  0  0
 17 43  1  0  0  0  0
 17 44  1  0  0  0  0
 17 45  1  0  0  0  0
 18 46  1  0  0  0  0
 18 47  1  0  0  0  0
 18 48  1  0  0  0  0
 21 49  1  0  0  0  0
 22 50  1  0  0  0  0
M  END
> <OMEGA_C>
ChiRQCQjnb+MGKXBSuavQP3T9L8HKavB45CQQFIsND5C+aTBih/OQJS7mL/yKrHBbP2uQL9xbD+S
8KrBTe3NQN7YWj5eIrHBfMuwQBgg60Cf2srB7F7FQK5q9EAWEcHBgN+eQNc2wkAwU8zBHLW3QPvM
rkAUY7vBBeOKQBgwTUAUupjBqUzWQPDHkEB3E6rB/tmpQGGRRkB0VrXB2FvZQLUhREAxqqbBnJau
QB6vHUCAYarB5oDYQDMNEEEABb/BSkGvQGUyTEAn1YbBdVxjQF58kEC1vNXBNX7IQEfu1UCze7nB
0+2iQILqpEDFg8TBcANMQJuAW0A2E5TB8ymKQMc8P0DzwaPB28G7QEHhjkD+5rPBNu6wQJ4PTUCr
s5LB1ADpQAhTtD9F45bBjg8AQWs7dkBUKJXB0ueIQHPHuEAJqdXBS9/rQLPLWD8dHbfBLLytQCWF
BEEDo9LBYuDgQHKzNUAfopjBRINzQM8H5L8KhKDBSV2wQNqGP8AaNavBeHhxQB+vMT81SaDBULDl
QP2w3L/72LXB4avGQMkxpECN3KPBzSv2QP0FnkBOzqvB9A28QOy2IkApZLvBMv+HQBWbSUCct7fB
8zP0QANnJEB1v6rB+ErnQMtTEEH+CLfBEfbwQN55E0HBHMXBdyy/QPs+HEGdbL/Bo/3OQC61O0DH
oYPB2culQHrshUDQ6IPBlbmXQJRmHEANKYTBey5DQC9vjECKf93BojWIQJDYa0D6dtTBgVMzQEKY
kEDLTc/BMmxSQG9wZUB4NozB4thdQBvRTEDcmKfB37rXQCPvZr+yVrHB/W+6QLNa4L8NPqzB2ibT
QF7Y+j4xc7DBhGaYQCmzmr8xVabBLmOxQB2diD8fYarB42OTQA7EPj5RZKXBCG2uQJeO6kDEqMvB
S6HCQIMf9UBv68HBS6+dQIwNwUDa9czBGqm1QJnlr0CQyrvBBRiJQLEtT0D2UJjBXHfiQMNHjUDx
1K3BJoqpQC96S0BNA7XBhYPaQMqBT0DPIabBG8uuQCdjJ0ASwKnBFtnSQP3+EEHK3r/BuFetQMrs
QkBzhobBnDJjQJsfjkB6Q9bBPcLFQBWH10A6IrrBJaOhQHWWpEAM7sTBqt9HQIbiWUBRqJPBGvOJ
QG/0SUBMaqPBX4a6QGxckUBj9LPBvMauQMGtR0CaYZLB1E8AQRrPQUDgZ5PB0HrYQKREpkBwapfB
GKyIQDdvtkDLWNbB+VZiQIWkHz/+x5/B8zOqQB38A0H/htPB3v7bQNPobkBaJZjBmMfxQN6nqL8M
8bXBmgu+QMG9NMBd3KzBr7zpQBJhkT+KdbTBcc6BQJcJ778Nd6LBjxrpQG3XqkATWqnBSX39QMY6
hkA2MLPBQCC8QD41JkA627rBRq6HQOdgTECLarfBivDzQNOHH0C1KqfBUszfQIoCEkEDtLfB7TLs
QKzbFEF6qcXB0la4QEBwHEEAwsDBL6DLQKgJW0DmM4PBzqmSQDQrakAti4PBX6qoQEMJAEDTCoTB
j5FEQHsXiUApFt7BLhGIQCqaZ0Dtp9TB3OoxQHLrjkB5+8/BxhNNQKy/W0D4r4vB9ZJgQMigXkB1
b6fB/k/SQKJojL/afrHBMjW0QFKC87/BOKzBoiXPQFrbmT4W5bDB8bOSQKmJp7+AbabB9PutQOKK
bD8T8arBhRePQAjruj3BxKXBxW+wQD3S6kDovsrBpkLFQK3280AF+8DBnrWeQDrYwUC2QczBdrG3
QJRJrkATWLvBqKWKQCo4T0CEq5jBb6/WQJMMkEBgGKrB7TqqQPg5RUALU7XBktnYQJanQkADoqbB
AJetQJjIHUA3Q6rBq/HXQF/kD0GP2r7BggWvQKbhSkD2yIbBBsNkQLzDj0C/0dXBOmPIQEpt1UC1
abnBRt6iQK52pEAzeMTB+KBLQJoHXUAo+JPB1tCJQPiRQkBnu6PB9g28QHtAjkCt57PB2LawQFBF
TUCJppLBtqjnQDOOsD8i3ZbBuyYAQXJuc0BhKpXByxKJQK1auEBfo9XBCRxbQNa/FD+pJ6DBrwmt
QHByBEEhe9LBPWbgQJAbNECtnJjBlOjrQFS1xr/VA7bBIcu2QL2bPsDbnazBblPmQFyXaT/JB7XB
vfB2QDyF97/jb6LBjXHHQMTmo0BO6KPB8sf2QGirnEA826vBfyG9QIKTIECAKrvBILCIQPMWSEAX
+LfBi0TzQOiqIUDju6rBR3HmQAwtEEEN1rbB/I7wQIZ2E0HA4sTB3Gu+QAT7G0FrS7/BvoXOQDJC
OEBYn4PBmGumQCVOhUDhuYPBItuWQMoCHEB+NoTBDg5FQI+4i0BpnN3BzzmJQDXtakBAj9TBiW00
QCJhj0D8a8/BfxtSQN85ZUChE4zB90heQHh1U0BtnafBBwiLQOTAk7/dN6jBRHGpQM+s6L9bjq7B
dPiNQIiEbT74oabBAe7KQGsVjL8QUrPB7a2vQOZeez9jUqvB52TOQGS+lj4nw7HBiZasQEsa50Ar
hcvB/aOcQEUvvUDgNczBfCPCQOPR80AZI8LBknO4QMQRr0CDQ7vB1XSLQBzdS0BRZ5jB2LHXQPXY
kkCwjanBL9KrQO47SkDizbTBNOvaQL5vR0BRJ6bBm2GwQNrSIEATBKrBaYSAQK0Gr0D/ZdXBj++t
QP4PPUDza4bBB4HpQHRoFEHhTbjBsrqiQL1SokDpD8TBzCjIQIsh10DHHrrB8HhMQHi1WUAb55PB
p7SLQNq0QUAWd6PBZUO8QKT5kEC7SbPB7uSwQNRlSEBHMZLBnfPrQBtkuD8XkJbBuBH/QBzseUC3
PZTBCE3OQPMcD0FCP8HBXR/vQKY2bz/QsrbBk1mmQLuXAUGumNPB+7XhQHoqN0CzEZjB2aJiQDEj
278CjqTB3RanQIScOMDHxK/BEptsQIoAPD9lyaHByi7iQCLbzb8VN7jBp5jIQDdEpkA7QqPBgXP3
QIcIoECbb6vB4dq+QB7bJ0Dp1LrB8BGKQDuGS0BFTLfBFQP2QPJFKECoM6rBvyFpQNKAjkAN2dPB
/JhKQDEgxUBdLtbBgjqTQLQor0Ah2tzB4WfNQAVmKkBjPoPBlcujQCCXeUAFtoLBFWeWQA3OCkCg
loTBhOrwQDucJUHbd7jBjPPYQDR6EEFryrDBvbEDQSQrC0FY1bjBkHVRQNHLYED4+YvBCwxiQFLJ
UUDIZafBkN7OQIRpfL/Lu7PBZvStQGrm5b/0s6/BvBTPQGhCxz7LhrHBcFmNQEJ3nb/WbanBrFKu
QFCAfD9oQavBYxyNQDi7Fz7pKqfBfsepQMaK50BYPMvBqjCcQArfvEBWL8zBaxDAQOwb9ECB8cHB
RYm5QP5urkBPabvBag2LQN+MTUAAOZjB0W7XQI5GkkB6hanBoRGrQD33SUBpvbTBSdHZQA0HRkBS
LabBObKuQM9BIUBo3qnBJH9/QPxWrkAOR9XBOD2uQI/bO0DYXobBKgLnQA2tFEE2GrjBIHykQJ5n
oUAtScTBZwnIQDTl1kBAJrrB1PhLQBlPWkBsl5PBS9KKQJvKREBjT6PBWma8QFyhkECyU7PBrsiw
QBWpSEDKHpLBVGvpQDKvsD8YzJbBGOr/QDshdEC3WJTBWcPKQLBqD0Gq2cDBfK1YQGSaHT/FKaHB
x8egQFsrAkEY/dLB+v7gQK00NED1J5jBHAXoQCnctb/0h7jBva6tQESvNsA7bLHBepXoQLyegD/H
pbTBG2VoQL8O7r/lTqbBk0vIQBnTpUD9QaPB8233QGoWn0AHT6vBJvy9QPwvJkCMqbrBwXKJQEx0
TEDjU7fB8VH0QFPXJUDEV6rBzy9rQCQajUC34dPBm8tGQEUhw0DNttXBHJGRQFE6sEAi2tzBrHjN
QP8vJkAIWYPBf4ylQFmbeEB/fYLBucyVQLFLC0CBkITByR/tQBYCJkGJELjBbv/XQIP6D0E/f7DB
+LcCQYcLDEFcE7nBwoNRQIePX0ANpovBgRBhQGrOV0D+M6fB

> <OMEGA_E>
4ONIPpAfVj5AUVs+FH3IPjh30j4=

> <OMEGA_NBR>
    126712

$$$$
330375
  -OEChem-04172616093D

 50 53  0     1  0  0  0  0  0999 V2000
    5.4764   -1.9067  -21.4219 C   0  0  0  0  0  0  0  0  0  0  0  0
    6.4517   -1.1945  -22.1397 C   0  0  0  0  0  0  0  0  0  0  0  0
    4.5028    0.1888  -20.6622 C   0  0  0  0  0  0  0  0  0  0  0  0
    5.4828    0.9279  -21.3744 C   0  0  0  0  0  0  0  0  0  0  0  0
    4.5002   -1.2128  -20.6884 C   0  0  0  0  0  0  0  0  0  0  0  0
    6.4616    0.2123  -22.1269 C   0  0  0  0  0  0  0  0  0  0  0  0
    5.5231    7.3384  -25.3608 C   0  0  0  0  0  0  0  0  0  0  0  0
    6.1737    7.6345  -24.1422 C   0  0  0  0  0  0  0  0  0  0  0  0
    4.9534    6.0624  -25.5317 C   0  0  0  0  0  0  0  0  0  0  0  0
    5.7312    5.4705  -23.4096 C   0  0  0  0  0  0  0  0  0  0  0  0
    4.3415    3.2016  -19.1054 C   0  0  0  0  0  0  0  0  0  0  0  0
    6.7055    4.5315  -21.2467 C   0  0  0  0  0  0  0  0  0  0  0  0
    5.3421    3.1012  -22.6708 C   0  0  0  0  0  0  0  0  0  0  0  0
    6.8078    3.0682  -20.8266 C   0  0  2  0  0  0  0  0  0  0  0  0
    5.4765    2.4658  -21.3021 C   0  0  2  0  0  0  0  0  0  0  0  0
    6.7861    8.9957  -23.9007 C   0  0  0  0  0  0  0  0  0  0  0  0
    5.4609    3.2078  -16.8580 C   0  0  0  0  0  0  0  0  0  0  0  0
    3.5216    4.5137  -26.6935 C   0  0  0  0  0  0  0  0  0  0  0  0
    6.2639    6.6915  -23.1839 N   0  0  0  0  0  0  0  0  0  0  0  0
    5.0733    5.1569  -24.5454 N   0  0  0  0  0  0  0  0  0  0  0  0
    3.1865    3.4421  -18.5359 N   0  0  0  0  0  0  0  0  0  0  0  0
    4.3318    2.9925  -20.4851 N   0  0  0  0  0  0  0  0  0  0  0  0
    5.8732    4.4720  -22.4766 N   0  0  3  0  0  0  0  0  0  0  0  0
    5.5228    3.1821  -18.3411 N   0  0  0  0  0  0  0  0  0  0  0  0
    7.2865    1.3945  -18.8667 O   0  0  0  0  0  0  0  0  0  0  0  0
    7.9998    3.8325  -18.6196 O   0  0  0  0  0  0  0  0  0  0  0  0
    4.2760    5.7559  -26.7016 O   0  0  0  0  0  0  0  0  0  0  0  0
    3.5541   -1.8915  -20.0031 F   0  0  0  0  0  0  0  0  0  0  0  0
    7.4197    0.8400  -22.8495 F   0  0  0  0  0  0  0  0  0  0  0  0
    5.4317    8.2643  -26.3425 F   0  0  0  0  0  0  0  0  0  0  0  0
    7.0296    2.8263  -19.0722 S   0  0  0  0  0  0  0  0  0  0  0  0
    5.4772   -2.9866  -21.4341 H   0  0  0  0  0  0  0  0  0  0  0  0
    7.1993   -1.7308  -22.7053 H   0  0  0  0  0  0  0  0  0  0  0  0
    3.7493    0.7128  -20.0928 H   0  0  0  0  0  0  0  0  0  0  0  0
    6.2153    5.1328  -20.4669 H   0  0  0  0  0  0  0  0  0  0  0  0
    7.6993    4.9507  -21.4624 H   0  0  0  0  0  0  0  0  0  0  0  0
    5.9352    2.5530  -23.4176 H   0  0  0  0  0  0  0  0  0  0  0  0
    4.2892    3.1299  -22.9881 H   0  0  0  0  0  0  0  0  0  0  0  0
    7.6518    2.5797  -21.3354 H   0  0  0  0  0  0  0  0  0  0  0  0
    7.2501    9.0179  -22.9036 H   0  0  0  0  0  0  0  0  0  0  0  0
    7.5513    9.1942  -24.6656 H   0  0  0  0  0  0  0  0  0  0  0  0
    6.0024    9.7655  -23.9575 H   0  0  0  0  0  0  0  0  0  0  0  0
    6.4546    2.9801  -16.4450 H   0  0  0  0  0  0  0  0  0  0  0  0
    5.1442    4.2061  -16.5217 H   0  0  0  0  0  0  0  0  0  0  0  0
    4.7376    2.4565  -16.5083 H   0  0  0  0  0  0  0  0  0  0  0  0
    3.0295    4.3765  -27.6677 H   0  0  0  0  0  0  0  0  0  0  0  0
    4.2041    3.6717  -26.5058 H   0  0  0  0  0  0  0  0  0  0  0  0
    2.7603    4.5524  -25.9005 H   0  0  0  0  0  0  0  0  0  0  0  0
    3.2787    3.5960  -17.5521 H   0  0  0  0  0  0  0  0  0  0  0  0
    3.4874    3.2130  -20.9732 H   0  0  0  0  0  0  0  0  0  0  0  0
  1  2  2  0  0  0  0
  1  5  1  0  0  0  0
  2  6  1  0  0  0  0
  3  4  1  0  0  0  0
  3  5  2  0  0  0  0
  4  6  2  0  0  0  0
  4 15  1  0  0  0  0
  5 28  1  0  0  0  0
  6 29  1  0  0  0  0
  7  8  1  0  0  0  0
  7  9  2  0  0  0  0
  7 30  1  0  0  0  0
  8 16  1  0  0  0  0
  8 19  2  0  0  0  0
  9 20  1  0  0  0  0
  9 27  1  0  0  0  0
 10 19  1  0  0  0  0
 10 20  2  0  0  0  0
 10 23  1  0  0  0  0
 11 21  2  0  0  0  0
 11 22  1  0  0  0  0
 11 24  1  0  0  0  0
 12 14  1  0  0  0  0
 12 23  1  0  0  0  0
 13 15  1  0  0  0  0
 13 23  1  0  0  0  0
 14 15  1  0  0  0  0
 14 31  1  0  0  0  0
 15 22  1  0  0  0  0
 17 24  1  0  0  0  0
 18 27  1  0  0  0  0
 24 31  1  0  0  0  0
 25 31  2  0  0  0  0
 26 31  2  0  0  0  0
  1 32  1  0  0  0  0
  2 33  1  0  0  0  0
  3 34  1  0  0  0  0
 12 35  1  0  0  0  0
 12 36  1  0  0  0  0
 13 37  1  0  0  0  0
 13 38  1  0  0  0  0
 14 39  1  0  0  0  0
 16 40  1  0  0  0  0
 16 41  1  0  0  0  0
 16 42  1  0  0  0  0
 17 43  1  0  0  0  0
 17 44  1  0  0  0  0
 17 45  1  0  0  0  0
 18 46  1  0  0  0  0
 18 47  1  0  0  0  0
 18 48  1  0  0  0  0
 21 49  1  0  0  0  0
 22 50  1  0  0  0  0
M  END
> <OMEGA_C>
jD6vQDsN9L8DYKvBd3TOQJHmmL8KHrHBnBaQQPtXQT47TKXB93KvQP6NbT/V/qrB0QGQQJk7m7/G
gaXBGsXOQPpfWT7fA7HBfL2wQMrT6kD74srBpY7FQLhN9EAjI8HBjYKeQGj/wUAFQczBlWW3QFUO
r0DpRrvBye2KQLnmTEDQ15jBepPWQOsBkUA9+anBVfKqQBB6RkDXXbXBc9nZQK5dREDLnKbBlz+v
QEzPHUDGaqrBjyfZQE3uD0GfNL/Brr+uQBVNTUBI3YbBO2JhQERwkEBAjNXB7XHIQIUg1kCreLnB
JliiQLIFpUD7XMTBx+9LQB1LXEBxSZTBXp6KQPmEP0Br4aPBh/G7QO8aj0D7z7PBDbuwQG+nS0B8
upLBZyvpQIh9sj/17pbBKP7/QEJHdUAL9ZTBANWIQGswuED4nNXBw3VjQM4d8r9LBqDB5G3tQDIL
Vz/dy7bBwdCtQJE6BEGEvdLBofLgQOniNEDmk5jBmUWvQDEkP8AXeavBeWDmQLaL3b94pLXBAfVv
QD95Nj8lvqDBcePGQPA/pEA4vKPB/WD2QEhsnkADs6vBee29QM5kI0A8V7vBTkGJQNtQSECc57fB
29v0QP4ZJUD3rqrBvgDoQF9JEEGSOrfBB6TxQJ8bE0EbU8XBrRPAQHo/HEEFqb/BeIzOQEK5PkBs
j4PBKp2kQGqYhkBqLITBbpqXQAY3HUACEYTBAeRBQJYMjEBjV93BpoeGQHz8akDLC9TBLqgwQJmt
kUA0NM/B59ZRQFMkZkCsaozBYTFfQIeiTUAcyafBP0W0QKB68r+icazBrV2SQDuqp7+ku6bBB1jP
QNSBoT5g1bDB8+mtQAi3bT/a76rBAaDSQJgVir/libHBoa6OQNZptz1Q+KXByrKwQAW06kDBxsrB
S0bFQF3d80AT/MDBIB6fQL6xwUCxUszBZ9K3QHkirkBTYbvBDaiKQK5dTkAxkZjB7TTWQBY6kECO
B6rBaM+pQM1vRUBXQ7XB1arYQP8GQ0CmmqbBPWatQPDoHUBiNarB09vWQKYDEEFzu77BKlivQC7h
SkDMtIbB44NiQFKJkEDDt9XBaz/IQIdZ1UAJabnBVFmjQAU3pEANjsTBSPhLQChIXUBc15PBN6+J
QLE9QkASoqPBidu7QPlDjkA+47PB7MSwQGx8S0CXk5LBp7DoQEDksD/l75bB7vT/QKRldEDPI5XB
2+6IQKuMuEATpdXB7RPzQBHR0L84JrfBDUhZQGTsEj/GhKDBwQmtQE14BEGcdtLBj5LgQN8YNEAf
mpjB2/m2QHwLPsDe6azBA8x1QOZn+L/646LBYa3mQEgcbz+b2bTBVZ7GQFzgo0Dy2qPByjz2QFUm
nUD5uavBBnS8QMicIECkI7vBRjKIQMuYSEBL2LfBahDzQL9iIkCqwarB1InkQHdrEEFhoLbBh+vv
QMrYE0Fnm8TBGem8QOXYG0GiU7/BhifPQBGEOkCyioPBV+ulQPNJhUDdyoPBW+SXQPwZG0CV/IPB
VBFCQIa1jEDzd93BQn+HQKZsa0BdeNTBKKIyQIrikEBsRM/BL8RSQN6JZUAn9IvBdOVdQDE1U0DD
e6fBv/mpQE3u5r9JsK7BFMPLQKAkir9uTbPBhAuOQGCOeD6m0qbBrvuvQI5Wfj/1W6vBug+LQP3m
kb8xgKjBPPrOQHzUnj5LvrHBg1msQP+n5kC6rcvBV+ibQI/kvEAlLszBSgbDQJVy80APdsLB8264
QClMr0CaRrvBX1eLQIDzSkCdXJjBFWjXQChTk0Bgc6nB9cmrQCQGS0DBwbTB497aQGYwSECMH6bB
B3GwQHRxIUChAKrB+yp+QHeGrkCCNtXBl9WtQJZRO0BsZIbBm87oQFmPFEHnbbjBSESiQJpZokCg
/MPBlOHIQFcn10BXVrrBMipMQBY0WEDi2ZPBlK+LQPLWQUBWb6PB1Re8QK9vkUDRObPBosawQLAk
R0C+J5LBrdHrQP+3tj9jtJbBfgP/QHrEeEC5HZTB/1vRQCinDkEq8MHBRfdTQKzJ6b83O6TB1Jzv
QHatdD/vqrbBiKqlQKQ7AUG7ytPBHJ/hQD6DNkDcDpjB9cSnQEfDN8DV5a/BtG3jQEnIy78pFLjB
C2RsQE4PPj+9A6LBTRXIQC5/pkCCJKPB1Rn3QITEoEDOSKvBz9q+QGvjKECuzLrBlQaKQI4jTEDU
PbfBDAP2QO2DKUCoNarBwPJlQHMtjkBchNPBEf5HQMzOxEAw9NXB7lCRQDgmrkBqvdzBHFbNQHvA
KECqOYPB2ZWjQCOgd0DqpILB22OWQGfSCEA/l4TBkGbyQMJ1JUGL9rjBzF/UQOA+EkGUW7HB88AC
Qf93CkHmuLfBtBJRQJeeXkBD6ovBDh9iQB9cUkDpXKfBOVSvQMJv5b+Iiq/BQXiOQCIqnr8BTKnB
4iPPQKAb0T4omLHB6EiuQBiOfj9zUKvBUILPQKBjd7/PvrPB11aNQNiuFj5xOafBPfWrQNln5kBU
q8vBJk+cQGdfvECCOczBuGLCQKdt80A6b8LByMi4QF/8rkDkS7vBY9aKQPDbTEB7MZjB3TDXQPWK
kkAabKnBm7mqQGDsSkDIrbTB4pzZQNo6RkAZKqbBGHmuQOSgIUDQ3qnB5ux/QBqcrUDiT9XBEwuu
QC6YO0DIVYbBIWXmQMz1FEEaSLjBlSGjQKPJoUDHEMTB+K/IQBcY10AsU7rBFZ9LQLT0WUAVj5PB
J5iKQBagRECcR6PBqay7QFNDkUCvK7PB546wQLxiR0DYGZLB3O7oQNChrT9y8JbBDNP/QGwcckCC
PpTBedjPQBrJDkEo4MHBhJ/uQOtovr8W/bnBLqNXQFTFHD/neaHB8MSkQGQcAUGSwdPB17/gQFTr
MkBzKJjBodOvQOKwNsCYGrHBuqdrQCYJ8L/oDabBFE3oQOpChD9uxbTBQ2LIQOfxpUDJFKPBiSP3
QLBTn0B3RqvBGtS9QM3gJ0DPobrBWhuJQC37TEBFRrfBYRf0QK1XJkAhYKrBkxVpQHH1jECMrtPB
x81IQNdOw0DpC9bBdlOSQI7VrUDH0dzByVLNQJZ3JkCNSIPBKDilQIOaeEDNiYLBI7aVQJH6CkBI
doTB1ljvQFXzJUFsy7jBhJXRQGB4EkFeS7HBY7gBQR4pC0ExcbfBhzBRQHwBX0BCnYvBcYhgQH2t
V0BKJ6fB

> <OMEGA_E>
YD1WPlAXZz6AtdA+SC7WPg==

> <OMEGA_NBR>
    130391

$$$$
330377
  -OEChem-04172616093D

 50 53  0     1  0  0  0  0  0999 V2000
    4.5040    0.1929  -20.6606 C   0  0  0  0  0  0  0  0  0  0  0  0
    6.4495   -1.1767  -22.1560 C   0  0  0  0  0  0  0  0  0  0  0  0
    5.4758    0.9369  -21.3776 C   0  0  0  0  0  0  0  0  0  0  0  0
    4.5065   -1.2076  -20.6909 C   0  0  0  0  0  0  0  0  0  0  0  0
    6.4483    0.2286  -22.1452 C   0  0  0  0  0  0  0  0  0  0  0  0
    5.4866   -1.8943  -21.4275 C   0  0  0  0  0  0  0  0  0  0  0  0
    5.5210    7.3450  -25.3577 C   0  0  0  0  0  0  0  0  0  0  0  0
    6.1669    7.6380  -24.1363 C   0  0  0  0  0  0  0  0  0  0  0  0
    4.9624    6.0658  -25.5392 C   0  0  0  0  0  0  0  0  0  0  0  0
    5.7401    5.4663  -23.4199 C   0  0  0  0  0  0  0  0  0  0  0  0
    4.3450    3.1963  -19.0895 C   0  0  0  0  0  0  0  0  0  0  0  0
    6.7016    4.5314  -21.2528 C   0  0  0  0  0  0  0  0  0  0  0  0
    5.3173    3.1094  -22.6661 C   0  0  0  0  0  0  0  0  0  0  0  0
    6.8009    3.0709  -20.8304 C   0  0  2  0  0  0  0  0  0  0  0  0
    5.4654    2.4725  -21.2986 C   0  0  2  0  0  0  0  0  0  0  0  0
    6.7398    9.0120  -23.8731 C   0  0  0  0  0  0  0  0  0  0  0  0
    5.4746    3.1601  -16.8487 C   0  0  0  0  0  0  0  0  0  0  0  0
    3.5163    4.5320  -26.7020 C   0  0  0  0  0  0  0  0  0  0  0  0
    6.2618    6.6899  -23.1843 N   0  0  0  0  0  0  0  0  0  0  0  0
    5.0881    5.1539  -24.5595 N   0  0  0  0  0  0  0  0  0  0  0  0
    3.1931    3.4286  -18.5103 N   0  0  0  0  0  0  0  0  0  0  0  0
    4.3270    2.9963  -20.4706 N   0  0  0  0  0  0  0  0  0  0  0  0
    5.8786    4.4688  -22.4872 N   0  0  3  0  0  0  0  0  0  0  0  0
    5.5305    3.1739  -18.3325 N   0  0  0  0  0  0  0  0  0  0  0  0
    7.3070    1.4044  -18.8706 O   0  0  0  0  0  0  0  0  0  0  0  0
    7.9970    3.8500  -18.6302 O   0  0  0  0  0  0  0  0  0  0  0  0
    4.2834    5.7662  -26.7095 O   0  0  0  0  0  0  0  0  0  0  0  0
    3.5561   -1.8890  -20.0124 F   0  0  0  0  0  0  0  0  0  0  0  0
    7.3907    0.8616  -22.8839 F   0  0  0  0  0  0  0  0  0  0  0  0
    5.4997   -3.2451  -21.4469 F   0  0  0  0  0  0  0  0  0  0  0  0
    5.4183    8.2795  -26.3299 F   0  0  0  0  0  0  0  0  0  0  0  0
    7.0346    2.8334  -19.0760 S   0  0  0  0  0  0  0  0  0  0  0  0
    3.7530    0.7125  -20.0842 H   0  0  0  0  0  0  0  0  0  0  0  0
    7.1955   -1.7083  -22.7280 H   0  0  0  0  0  0  0  0  0  0  0  0
    6.2057    5.1340  -20.4776 H   0  0  0  0  0  0  0  0  0  0  0  0
    7.6968    4.9506  -21.4624 H   0  0  0  0  0  0  0  0  0  0  0  0
    5.8845    2.5480  -23.4231 H   0  0  0  0  0  0  0  0  0  0  0  0
    4.2591    3.1585  -22.9626 H   0  0  0  0  0  0  0  0  0  0  0  0
    7.6403    2.5784  -21.3431 H   0  0  0  0  0  0  0  0  0  0  0  0
    7.1835    9.0382  -22.8669 H   0  0  0  0  0  0  0  0  0  0  0  0
    7.5145    9.2357  -24.6213 H   0  0  0  0  0  0  0  0  0  0  0  0
    5.9381    9.7623  -23.9397 H   0  0  0  0  0  0  0  0  0  0  0  0
    6.4694    2.9185  -16.4460 H   0  0  0  0  0  0  0  0  0  0  0  0
    5.1622    4.1498  -16.4844 H   0  0  0  0  0  0  0  0  0  0  0  0
    4.7506    2.4016  -16.5162 H   0  0  0  0  0  0  0  0  0  0  0  0
    3.0239    4.3997  -27.6767 H   0  0  0  0  0  0  0  0  0  0  0  0
    4.1898    3.6830  -26.5133 H   0  0  0  0  0  0  0  0  0  0  0  0
    2.7545    4.5788  -25.9098 H   0  0  0  0  0  0  0  0  0  0  0  0
    3.2913    3.5744  -17.5259 H   0  0  0  0  0  0  0  0  0  0  0  0
    3.4801    3.2219  -20.9521 H   0  0  0  0  0  0  0  0  0  0  0  0
  1  3  1  0  0  0  0
  1  4  2  0  0  0  0
  2  5  1  0  0  0  0
  2  6  2  0  0  0  0
  3  5  2  0  0  0  0
  3 15  1  0  0  0  0
  4  6  1  0  0  0  0
  4 28  1  0  0  0  0
  5 29  1  0  0  0  0
  6 30  1  0  0  0  0
  7  8  1  0  0  0  0
  7  9  2  0  0  0  0
  7 31  1  0  0  0  0
  8 16  1  0  0  0  0
  8 19  2  0  0  0  0
  9 20  1  0  0  0  0
  9 27  1  0  0  0  0
 10 19  1  0  0  0  0
 10 20  2  0  0  0  0
 10 23  1  0  0  0  0
 11 21  2  0  0  0  0
 11 22  1  0  0  0  0
 11 24  1  0  0  0  0
 12 14  1  0  0  0  0
 12 23  1  0  0  0  0
 13 15  1  0  0  0  0
 13 23  1  0  0  0  0
 14 15  1  0  0  0  0
 14 32  1  0  0  0  0
 15 22  1  0  0  0  0
 17 24  1  0  0  0  0
 18 27  1  0  0  0  0
 24 32  1  0  0  0  0
 25 32  2  0  0  0  0
 26 32  2  0  0  0  0
  1 33  1  0  0  0  0
  2 34  1  0  0  0  0
 12 35  1  0  0  0  0
 12 36  1  0  0  0  0
 13 37  1  0  0  0  0
 13 38  1  0  0  0  0
 14 39  1  0  0  0  0
 16 40  1  0  0  0  0
 16 41  1  0  0  0  0
 16 42  1  0  0  0  0
 17 43  1  0  0  0  0
 17 44  1  0  0  0  0
 17 45  1  0  0  0  0
 18 46  1  0  0  0  0
 18 47  1  0  0  0  0
 18 48  1  0  0  0  0
 21 49  1  0  0  0  0
 22 50  1  0  0  0  0
M  END
> <OMEGA_C>
GiGQQG5/RT73SKXBNGLOQPOelr9jP7HB4jmvQInWbz9CBavB6DSQQGSTmr8Mh6XBtVjOQI4aaj5H
KbHBP5KvQPV28r+Ua6vBZ6ywQJIK60Cf3MrBNFfFQGBq9EAxF8HBOcyeQOoawkAwUMzBv663QK/r
rkAEXLvBLwqLQOqQTEA4t5jBWXPWQIUBkUDFBarBKieqQJMAR0AWVLXBpaDZQOuJREC9pKbB5eSu
QJ88HkB6Y6rBJqzXQDsxEEEG/L7BGzCvQE4+SkAfyobBywphQAsGkUCZndXBYGDIQGMT1kBnebnB
1dGiQInspEDQecTB81pMQOFuW0AeFZTB43aKQNzCP0C+w6PBYB28QL4Aj0DR5bPBsPmwQOMhS0Dj
qJLBnNLpQDPCsz8X95bBvef/QNZldkCUCpXBVhGJQHqEuEAZrdXB8pZjQNnK8b9UGaDBx4DsQBOU
XD8wErfBe/2vQEOvT8Avk6vB6mKtQP14BEGzo9LBwBvhQDZWNUCsm5jBlzBwQHBpNj+GrKDBxUHm
QOWp2r/y0rXBXpXGQAVKpEAQ0qPB7kv2QDhrnkDtsqvBB068QKQSI0ByYrvB5kqIQKklSkBgs7fB
+Hz0QPsDJUClvqrBjN/lQIScEEFj77bBbXbwQE3FE0Fh+MTBFgW+QGIyHEGXhL/BJgXPQDXJOkB+
kYPBWjClQFHLhEAB4IPB1ASYQNOzGUBBIYTBvYdBQFXKjEDQad3BohKGQO+1a0A2G9TBW0kwQDWF
kkBTR8/BOaVSQIzCZEABNYzBurpeQPAzTkD6nafBdSbPQMJjpz6v4LDBhm+SQL8Spr+YrabB6cCt
QGdVcD+79qrBh5bSQJ1wiL/qi7HBIJuOQFouzj1b96XBmV60QHO78L/QYazBzlewQBG86kCHxsrB
Gg/FQHr880CmAcHBr+KeQDWqwUD4TMzB4Ba4QDIwrkBhZrvBAo+KQA/gTkBzkpjBrmrWQBFMkEAt
CKrBx8epQPDzRUBpQbXBFqXYQJgsQ0AAmKbBdlKtQAhwHkBaNqrBTCDXQHwDEEFI2L7B+CGvQKYy
SkCetYbB+1dkQKG7j0Bjy9XBboLIQDBr1UBhdbnBymCjQGQ5pECiicTB0ZJLQNfIXEDm2JPBKqGJ
QJXfQkDCo6PBQfC7QCJxjkD337PBUK2wQOaFTEB1k5LBMePnQDqAsD/I5pbBYRIAQYSSc0DzHJXB
lNSIQCRTuEA9odXBpB3zQI2kzr/IK7fBORFZQNycFT/FhqDBdZK3QFN1TsDv9qzB5K2sQJZtBEFT
fdLBC17gQJwVNECKlZjB81bmQJNKcj/V77TBRCN2QE3i9r+ezaLBywLHQAERpEBb2qPBxID2QJUG
nUA+wavBw168QLQKIUA7IrvBfiuIQO9NSUAX1rfB0/7yQChDIkAuu6rBNYnlQDNcEEFg0bbBv7Pv
QLDGE0GG28TB4Ei9QFvuG0HuSb/BOL7OQN4YOEBckYPB4FCmQP/nhEDUpoPB5i6XQIX3GkA3HYTB
9O9DQJbSi0Cai93BDxiJQCXbakB6odTBTJg0QLw0j0BNVM/BPjRSQBu/ZEDr84vBnd1dQNgEVECs
fqfB

> <OMEGA_E>
YJFOPuAnXD4=

> <OMEGA_NBR>
    132374

$$$$
330378
  -OEChem-04172616093D

 50 53  0     1  0  0  0  0  0999 V2000
    4.4949    0.1893  -20.6701 C   0  0  0  0  0  0  0  0  0  0  0  0
    4.5113   -1.2125  -20.6806 C   0  0  0  0  0  0  0  0  0  0  0  0
    6.4615   -1.1834  -22.1357 C   0  0  0  0  0  0  0  0  0  0  0  0
    5.4730    0.9324  -21.3829 C   0  0  0  0  0  0  0  0  0  0  0  0
    5.4975   -1.8982  -21.4059 C   0  0  0  0  0  0  0  0  0  0  0  0
    6.4573    0.2219  -22.1337 C   0  0  0  0  0  0  0  0  0  0  0  0
    5.5254    7.3389  -25.3589 C   0  0  0  0  0  0  0  0  0  0  0  0
    6.1818    7.6314  -24.1425 C   0  0  0  0  0  0  0  0  0  0  0  0
    4.9558    6.0631  -25.5321 C   0  0  0  0  0  0  0  0  0  0  0  0
    5.7319    5.4697  -23.4107 C   0  0  0  0  0  0  0  0  0  0  0  0
    4.3396    3.2024  -19.1032 C   0  0  0  0  0  0  0  0  0  0  0  0
    6.7013    4.5302  -21.2475 C   0  0  0  0  0  0  0  0  0  0  0  0
    5.3312    3.1055  -22.6719 C   0  0  0  0  0  0  0  0  0  0  0  0
    6.8008    3.0669  -20.8305 C   0  0  2  0  0  0  0  0  0  0  0  0
    5.4671    2.4686  -21.3054 C   0  0  2  0  0  0  0  0  0  0  0  0
    6.7585    9.0046  -23.8831 C   0  0  0  0  0  0  0  0  0  0  0  0
    5.4617    3.1737  -16.8580 C   0  0  0  0  0  0  0  0  0  0  0  0
    3.5150    4.5206  -26.6923 C   0  0  0  0  0  0  0  0  0  0  0  0
    6.2644    6.6899  -23.1826 N   0  0  0  0  0  0  0  0  0  0  0  0
    5.0761    5.1563  -24.5476 N   0  0  0  0  0  0  0  0  0  0  0  0
    3.1873    3.4457  -18.5296 N   0  0  0  0  0  0  0  0  0  0  0  0
    4.3252    2.9950  -20.4836 N   0  0  0  0  0  0  0  0  0  0  0  0
    5.8707    4.4722  -22.4782 N   0  0  3  0  0  0  0  0  0  0  0  0
    5.5225    3.1772  -18.3415 N   0  0  0  0  0  0  0  0  0  0  0  0
    7.2765    1.3851  -18.8774 O   0  0  0  0  0  0  0  0  0  0  0  0
    8.0009    3.8191  -18.6239 O   0  0  0  0  0  0  0  0  0  0  0  0
    4.2754    5.7594  -26.7010 O   0  0  0  0  0  0  0  0  0  0  0  0
    5.5161   -3.2480  -21.4051 F   0  0  0  0  0  0  0  0  0  0  0  0
    7.4116    0.8521  -22.8598 F   0  0  0  0  0  0  0  0  0  0  0  0
    5.4231    8.2704  -26.3339 F   0  0  0  0  0  0  0  0  0  0  0  0
    7.0254    2.8188  -19.0777 S   0  0  0  0  0  0  0  0  0  0  0  0
    3.7296    0.7100  -20.1137 H   0  0  0  0  0  0  0  0  0  0  0  0
    3.7644   -1.7650  -20.1299 H   0  0  0  0  0  0  0  0  0  0  0  0
    7.2106   -1.7171  -22.7018 H   0  0  0  0  0  0  0  0  0  0  0  0
    6.2107    5.1310  -20.4675 H   0  0  0  0  0  0  0  0  0  0  0  0
    7.6959    4.9487  -21.4613 H   0  0  0  0  0  0  0  0  0  0  0  0
    5.9183    2.5547  -23.4215 H   0  0  0  0  0  0  0  0  0  0  0  0
    4.2773    3.1407  -22.9852 H   0  0  0  0  0  0  0  0  0  0  0  0
    7.6424    2.5774  -21.3423 H   0  0  0  0  0  0  0  0  0  0  0  0
    7.1934    9.0354  -22.8731 H   0  0  0  0  0  0  0  0  0  0  0  0
    7.5409    9.2199  -24.6257 H   0  0  0  0  0  0  0  0  0  0  0  0
    5.9609    9.7580  -23.9619 H   0  0  0  0  0  0  0  0  0  0  0  0
    6.4530    2.9261  -16.4505 H   0  0  0  0  0  0  0  0  0  0  0  0
    5.1567    4.1685  -16.5013 H   0  0  0  0  0  0  0  0  0  0  0  0
    4.7300    2.4238  -16.5230 H   0  0  0  0  0  0  0  0  0  0  0  0
    3.0213    4.3860  -27.6660 H   0  0  0  0  0  0  0  0  0  0  0  0
    4.1936    3.6753  -26.5054 H   0  0  0  0  0  0  0  0  0  0  0  0
    2.7546    4.5629  -25.8985 H   0  0  0  0  0  0  0  0  0  0  0  0
    3.2831    3.5970  -17.5458 H   0  0  0  0  0  0  0  0  0  0  0  0
    3.4793    3.2167  -20.9686 H   0  0  0  0  0  0  0  0  0  0  0  0
  1  2  2  0  0  0  0
  1  4  1  0  0  0  0
  2  5  1  0  0  0  0
  3  5  2  0  0  0  0
  3  6  1  0  0  0  0
  4  6  2  0  0  0  0
  4 15  1  0  0  0  0
  5 28  1  0  0  0  0
  6 29  1  0  0  0  0
  7  8  1  0  0  0  0
  7  9  2  0  0  0  0
  7 30  1  0  0  0  0
  8 16  1  0  0  0  0
  8 19  2  0  0  0  0
  9 20  1  0  0  0  0
  9 27  1  0  0  0  0
 10 19  1  0  0  0  0
 10 20  2  0  0  0  0
 10 23  1  0  0  0  0
 11 21  2  0  0  0  0
 11 22  1  0  0  0  0
 11 24  1  0  0  0  0
 12 14  1  0  0  0  0
 12 23  1  0  0  0  0
 13 15  1  0  0  0  0
 13 23  1  0  0  0  0
 14 15  1  0  0  0  0
 14 31  1  0  0  0  0
 15 22  1  0  0  0  0
 17 24  1  0  0  0  0
 18 27  1  0  0  0  0
 24 31  1  0  0  0  0
 25 31  2  0  0  0  0
 26 31  2  0  0  0  0
  1 32  1  0  0  0  0
  2 33  1  0  0  0  0
  3 34  1  0  0  0  0
 12 35  1  0  0  0  0
 12 36  1  0  0  0  0
 13 37  1  0  0  0  0
 13 38  1  0  0  0  0
 14 39  1  0  0  0  0
 16 40  1  0  0  0  0
 16 41  1  0  0  0  0
 16 42  1  0  0  0  0
 17 43  1  0  0  0  0
 17 44  1  0  0  0  0
 17 45  1  0  0  0  0
 18 46  1  0  0  0  0
 18 47  1  0  0  0  0
 18 48  1  0  0  0  0
 21 49  1  0  0  0  0
 22 50  1  0  0  0  0
M  END
> <OMEGA_C>
DNaPQF3PQT5tXKXB8FyQQHMzm7/OcaXBhMTOQJ56l7/hFbHBJCOvQOKxbj8oEKvBr+uvQPv48r9N
P6vBCaLOQLo4Yz7MEbHB4s+wQC/Y6kDv3srBLtHFQDM09EDiI8HBspWeQN8EwkC1QczBY2u3QKYH
r0AkSbvBUd6KQF/zTEBJ05jBVnHWQJ73kEDk+qnBHZmqQO7ARkAWYLXB/Z/ZQIpIREDepKbBIPKu
QNL8HUBdcarB0UXYQO0SEEGGEL/BWsauQJ8dS0A13YbBn/VgQP6okEDOidXBP3bIQH4T1kAKdrnB
Vm+iQKMApUCPYcTBevxLQJuFXECZPJTBFGiKQOStP0BZ3qPB5ty7QEYcj0Bj07PBdriwQPBXS0BO
u5LB39joQFdLsT/UBJfBuAMAQblsdEDE/ZTBVNCIQMZMuECpm9XB6IOwQMnfT8CQPavBmyvtQHwg
Wj/k4LbBN4qtQIZTBEHkq9LBUtDgQMBmNEAPn5jB/bFuQE/DNT/l6KDBRexwQHrs4b8PCqHB1bzm
QPjI279enbXBA77GQP4wpEB/vaPBzkT2QNVbnkDFsKvBFGO9QCSAI0AuX7vB4N+IQAMBSUCq4bfB
5470QCf0JEAWvarBDTDmQCiREEEv/LbBEE/xQKiEE0F+AcXB0r++QN0gHEHksb/B8X7OQP9FO0CU
moPBEASlQKtkhUCfAoTB/VuXQMEfG0AFL4TBoVxBQA9ajED5U93BrjGGQNk3a0ALC9TB2EswQC4D
kkAsMM/B/R1SQFk1ZkC4XYzBMKxeQAPeTUCkv6fBTD7PQMDXnz5K7LDB/FTSQNWYir98nrHBsF+S
QA+9pr+Jq6bBav+tQBgbbj/c96rB5v+zQEjs8b89dazBReKOQKIsxD0O6KXByWCwQDmi6kBtxMrB
mL3EQBcL9EB49sDBF+SeQJKWwUBJR8zB/qW3QEZGrkDPUrvBAbGKQLEoT0CFopjBm73WQCAVkEBq
DqrBFS2qQFl2RUCeR7XBWejYQK+sQkAOmqbBpp+tQIn3HUCaO6rB6lHXQHH3D0FN4b7BkAavQNeJ
SkAqv4bBDElhQMG9kEDrodXBgAXIQEyM1UCZYrnBLgijQPxEpEBMecTBRMFLQFl3XUDb8pPBqt+J
QFKiQkCGsaPBpP67QONTjkC+27PBrLywQEPWTEBsnJLBl7PnQALLrz8u25bBWCsAQWkCc0A3GpXB
aGGJQKYUuEC7q9XBT/a2QLX5TsDKIa3BB1laQOAxFT+2V6DBbvesQI1NBEF3htLBFXHgQOfFM0Ci
k5jBNormQKF3bT/a+7TBOgbsQCmMxL81H7bBPvl1QK0n979TxaLBIpLHQMrto0A326PB/dP2QKSv
nECc1avBEAi9QKrcIECqIrvB55yIQMRXSEBP6LfBC03zQNuwIUCPtqrB0urlQHBQEEHT37bBeNbv
QIaKE0Gl78TBt7i9QPgDHEEhUb/B2YjOQFsIOEATlIPBcF+mQC0ihUBgsoPBxuOWQE+eG0DaK4TB
/iJCQGOIjEAtdN3BJQOGQLfxakBlE9TBfzcwQGlpkkAJVs/BVjRSQEy8ZUCJDozBZmReQImNU0CL
kqfB

> <OMEGA_E>
EMo6PgAmTz4=

> <OMEGA_NBR>
    134357

$$$$
50491820
  -OEChem-04172616093D

 50 53  0     1  0  0  0  0  0999 V2000
    6.6997   -1.0502  -22.1265 C   0  0  0  0  0  0  0  0  0  0  0  0
    5.7624   -1.8564  -21.4690 C   0  0  0  0  0  0  0  0  0  0  0  0
    5.5527    0.9811  -21.3224 C   0  0  0  0  0  0  0  0  0  0  0  0
    6.6043    0.3505  -22.0653 C   0  0  0  0  0  0  0  0  0  0  0  0
    4.7110   -1.2646  -20.7555 C   0  0  0  0  0  0  0  0  0  0  0  0
    4.5919    0.1343  -20.6804 C   0  0  0  0  0  0  0  0  0  0  0  0
    5.4503    7.3473  -25.3945 C   0  0  0  0  0  0  0  0  0  0  0  0
    6.0570    7.6710  -24.1619 C   0  0  0  0  0  0  0  0  0  0  0  0
    4.9549    6.0435  -25.5848 C   0  0  0  0  0  0  0  0  0  0  0  0
    5.7109    5.4834  -23.4443 C   0  0  0  0  0  0  0  0  0  0  0  0
    6.8092    3.1805  -19.1748 C   0  0  0  0  0  0  0  0  0  0  0  0
    4.3891    3.2613  -19.1435 C   0  0  0  0  0  0  0  0  0  0  0  0
    6.7185    4.6109  -21.2747 C   0  0  0  0  0  0  0  0  0  0  0  0
    5.3359    3.1380  -22.6332 C   0  0  0  0  0  0  0  0  0  0  0  0
    6.7621    3.1918  -20.7015 C   0  0  2  0  0  0  0  0  0  0  0  0
    5.4700    2.5359  -21.2428 C   0  0  2  0  0  0  0  0  0  0  0  0
    6.5516    9.0731  -23.8863 C   0  0  0  0  0  0  0  0  0  0  0  0
    5.6272    3.2388  -16.9726 C   0  0  0  0  0  0  0  0  0  0  0  0
    3.6088    4.4486  -26.7850 C   0  0  0  0  0  0  0  0  0  0  0  0
    6.1689    6.7317  -23.2034 N   0  0  0  0  0  0  0  0  0  0  0  0
    5.1005    5.1373  -24.5992 N   0  0  0  0  0  0  0  0  0  0  0  0
    5.8727    4.5048  -22.4914 N   0  0  3  0  0  0  0  0  0  0  0  0
    5.6115    3.1761  -18.4505 N   0  0  0  0  0  0  0  0  0  0  0  0
    4.3213    3.0639  -20.4406 N   0  3  0  0  0  0  0  0  0  0  0  0
    3.2027    3.5183  -18.4697 N   0  0  0  0  0  0  0  0  0  0  0  0
    7.8976    3.2653  -18.6171 O   0  0  0  0  0  0  0  0  0  0  0  0
    4.3077    5.7212  -26.7674 O   0  0  0  0  0  0  0  0  0  0  0  0
    7.5414    1.0561  -22.7439 F   0  0  0  0  0  0  0  0  0  0  0  0
    3.7975   -2.0483  -20.1388 F   0  0  0  0  0  0  0  0  0  0  0  0
    3.5274    0.6095  -19.9927 F   0  0  0  0  0  0  0  0  0  0  0  0
    5.3193    8.2775  -26.3679 F   0  0  0  0  0  0  0  0  0  0  0  0
    7.5024   -1.5086  -22.6851 H   0  0  0  0  0  0  0  0  0  0  0  0
    5.8493   -2.9320  -21.5117 H   0  0  0  0  0  0  0  0  0  0  0  0
    6.2699    5.3072  -20.5508 H   0  0  0  0  0  0  0  0  0  0  0  0
    7.7304    4.9545  -21.5353 H   0  0  0  0  0  0  0  0  0  0  0  0
    5.9223    2.5630  -23.3650 H   0  0  0  0  0  0  0  0  0  0  0  0
    4.2819    3.1637  -22.9468 H   0  0  0  0  0  0  0  0  0  0  0  0
    7.6372    2.6592  -21.1022 H   0  0  0  0  0  0  0  0  0  0  0  0
    6.9612    9.1243  -22.8667 H   0  0  0  0  0  0  0  0  0  0  0  0
    7.3376    9.3335  -24.6105 H   0  0  0  0  0  0  0  0  0  0  0  0
    5.7159    9.7820  -23.9816 H   0  0  0  0  0  0  0  0  0  0  0  0
    4.5946    3.2247  -16.5935 H   0  0  0  0  0  0  0  0  0  0  0  0
    6.1756    2.3723  -16.5748 H   0  0  0  0  0  0  0  0  0  0  0  0
    6.1233    4.1662  -16.6503 H   0  0  0  0  0  0  0  0  0  0  0  0
    3.1370    4.3023  -27.7679 H   0  0  0  0  0  0  0  0  0  0  0  0
    4.3245    3.6347  -26.5972 H   0  0  0  0  0  0  0  0  0  0  0  0
    2.8353    4.4444  -26.0029 H   0  0  0  0  0  0  0  0  0  0  0  0
    3.4654    3.2755  -20.9125 H   0  0  0  0  0  0  0  0  0  0  0  0
    2.3385    3.5478  -18.9721 H   0  0  0  0  0  0  0  0  0  0  0  0
    3.2123    3.6740  -17.4819 H   0  0  0  0  0  0  0  0  0  0  0  0
  1  2  1  0  0  0  0
  1  4  2  0  0  0  0
  2  5  2  0  0  0  0
  3  4  1  0  0  0  0
  3  6  2  0  0  0  0
  3 16  1  0  0  0  0
  4 28  1  0  0  0  0
  5  6  1  0  0  0  0
  5 29  1  0  0  0  0
  6 30  1  0  0  0  0
  7  8  1  0  0  0  0
  7  9  2  0  0  0  0
  7 31  1  0  0  0  0
  8 17  1  0  0  0  0
  8 20  2  0  0  0  0
  9 21  1  0  0  0  0
  9 27  1  0  0  0  0
 10 20  1  0  0  0  0
 10 21  2  0  0  0  0
 10 22  1  0  0  0  0
 11 15  1  0  0  0  0
 11 23  1  0  0  0  0
 11 26  2  0  0  0  0
 12 23  1  0  0  0  0
 12 24  2  0  0  0  0
 12 25  1  0  0  0  0
 13 15  1  0  0  0  0
 13 22  1  0  0  0  0
 14 16  1  0  0  0  0
 14 22  1  0  0  0  0
 15 16  1  0  0  0  0
 16 24  1  0  0  0  0
 18 23  1  0  0  0  0
 19 27  1  0  0  0  0
  1 32  1  0  0  0  0
  2 33  1  0  0  0  0
 13 34  1  0  0  0  0
 13 35  1  0  0  0  0
 14 36  1  0  0  0  0
 14 37  1  0  0  0  0
 15 38  1  0  0  0  0
 17 39  1  0  0  0  0
 17 40  1  0  0  0  0
 17 41  1  0  0  0  0
 18 42  1  0  0  0  0
 18 43  1  0  0  0  0
 18 44  1  0  0  0  0
 19 45  1  0  0  0  0
 19 46  1  0  0  0  0
 19 47  1  0  0  0  0
 24 48  1  0  0  0  0
 25 49  1  0  0  0  0
 25 50  1  0  0  0  0
M  CHG  1  24   1
M  END
> <OMEGA_C>
MmTWQBBthr8SA7HBfWW4QOed7b+QwKvB/K+xQBAnez9blKrBrFbTQHZvsz7LhbDBzcCWQOXeob8w
C6bB3vCSQMd9CT6DcaXBJWmuQGQd60D6J8vB1dLBQL149UCLS8HBTI6eQIVkwUCqrczBYb+2QCF4
r0ACjrvByeTZQB+OS0DpZZnBUnOMQEK5UED1JZnB3f3WQLCMk0B9MqrBD8CqQEPUSEDIELXBaGPY
QAZHTEC3nKXB9AmvQKxMIkBW8anB8abRQIkrEUE6F7/BvBG0QElJT0Dqx4fB3vVmQCJbjkC4R9bB
tmfFQCtq10CgoLnBVDejQLVkpEAvy8TBGe27QAgnkEB27rPBfJGzQAhGS0CkmpPB50eKQCAXREBa
hqPBPPhMQFAsYUDiwZPBb7n8QLj6UEDe75TBnNiJQCwUt0C1I9bBflPxQFcthz9o87XBpglzQJgX
A8BGHKHB8MBhQAoJHD8j8Z/BxDeqQJlwBEFe8dLBxhPwQNIYwb8Fe7XB3S27QGKmO8DeF6zB96LI
QLvUqUATaKTBmF/3QJ6LnkA9SKzBMIO9QHsHJECd67rBYAWJQNd6SkADk7fBAWT0QLIvKkA10ajB
E8LeQP78EUEH77bBs83qQN5VFUFh4sTBlOi2QPmCHEFd2r/BUAeTQN5hTkCRv4TBSJ7FQCLTF0Ai
mYTBBPLDQIlRhUDeM4XBqcRIQNmsiUCoJN7BRmKKQDafaEAXx9TBx3Q1QM04jkD8BdDBMsldQP2g
UUDmTKfBjKoVQEoPY0DbxpfBupVNQEgia0Dv2ovBhISVQDhXob+vfqbBtpO3QJfa7L8bCqzB52Cx
QNmFfD8toKrB1M2RQNMPDT4p06XB/CPWQM9whb/bFrHBblHTQEDwtz71erDB8p2uQFa/6kB6QMvB
LP7BQEJT9UBPZsHByqSeQHQLwUCFtMzBMvO2QJJyr0DakLvB+NvZQDfQS0AVU5nByW2MQDZJUEBW
D5nBUgvXQOOwk0CcJarBiaWqQEk/SUDmALXBV1zYQDCRTEBki6XBmPSuQLidIkBJ5KnBdC/RQNoz
EUGOMb/BXyu0QAomTEB4sofBBjdmQEwGjkCQLdbBFpjFQCxu10CrsLnBNU+jQBo4pEAvyMTBRSq8
QDE5kEC96rPBU5CzQMRySkAqh5PBX0KKQB48REDLcaPBNA1NQG5wYUDXrJPBSqT8QEHhUUAl2pTB
mrGJQKWftkASINbBt8ZdQKwDHD9IqaDBwmX2QPorz7+DpLbBj4PxQENKiT96yrXBI32qQJEnBEH4
FtPB7Kt7QDCK8b/FsKLB4Ue6QFVEO8AobKzBv5DIQI//qUC8YaTBrHb3QOevnkDoMazBDSi9QOwc
JEAi4LrBHeGIQAppS0BOebfBclf0QMhgKkC1vqjBT+fdQGwoEkGBALfBrn7qQLl5FUGX7MTBzjW2
QNlgHEFKDcDBqieTQH2ySkBppoTB0LnFQMsOFEDBsYTB+xbEQGJ6g0B38oTBg6lHQG89iUDrA97B
M+aJQFrIZ0A7qtTBMvU0QF4sjkAO5M/BRchdQPggUkB4NafBKdgVQMQ8ZED6tJfBfalNQLf+akDk
w4vB3LbVQETtcb8HG7LB3/q0QCAI4L/Q+63BXeayQHmwiD8ktqrBxBjVQKRP5D4YiLDBTveSQDsg
lb9xXqjBLzWRQJjGZz5B2KbBc+mpQKch5UCBg8zB5kibQG6zukDOuszBGSK/QBUj9ECzS8PBts23
QBg8sEDwpbvBCvfZQMrGTkDRvpjBylqMQMC1UUAL7JjBzGjYQCvklkBSpanB+JOtQObHTUD+jrTB
vNbZQLbsUUCEA6XBdQuxQJCHJ0DrjqnBgVCAQC7pqUDT3dXBoguyQIZwRkB5XofBAGbfQAC7FkFM
WbnBnVOiQE9xoUCdTcTBMw7GQK0P2UBJ8rrBOBG9QOQjk0CLarPB/AezQEgyUEBRKJPB/q2LQJjP
SEDZWaPBjYxKQH5+WkCrv5PBWGD8QGIRS0B6D5TBzgvLQDZkD0FxCsPBAHP1QH+fkz8pBLXBJZpm
QI8k+b+qdaTBfQZcQLYhND/60KHBw9qiQJ11/0CY6tTBoqTvQCbHsr+ih7bBQe+1QBSANMDFIK/B
CRHKQJk1rUCv3KPBfsD4QFrsoUC2wavBtZvBQPQrKkCUQ7rB3ySMQBwpTUBST7fBoDr2QHp/MED3
HKjBIq1rQEQYiUCUDtTBtD5IQIePvkAe7NbB/1+TQD/hqUDEQ93BbbqQQIpOSUBhjYTB3RrAQMhj
CEBAJoXBPZXEQBNgekDlpoPB3UrnQBLQJ0GYHrrBkoTJQFlxFEEUjbLBoub8QJyGDUFF/LfB/ipi
QKfxWEADUafBGjMUQFTfWUDy+JfBgp1IQPlwYUC2zIvBk5OTQFIRl78UmajBAfS1QJZq3r8wPa7B
q86xQOvCiT+P5arBtM6QQOB4VT75BKfBWc/VQHyzZ79qd7LBFxLUQCCC+D6m4rDB0furQGPL5ECK
vczBD9ydQKsvukDsDs3BUs+/QAUZ9EDgW8PBO+u3QDxJsEBkt7vBFKrZQKpHTUCW2JjBHSeMQJpW
TkAdl5jBcoDWQGMrl0CYhKnBs6KqQH61T0BnarTBx3PYQMQVUkC7F6XBpVevQPrOJ0CDiKnBw8aD
QDsnqUCGU9bB24GzQAwjRUDiQofBIzjgQMatFkHtZ7nBC+yjQPEgoUDljMTBzOHFQKkt2UBi8brB
R3m7QGaqk0DkVbPBdEKzQN7vR0DmFZPBiWqKQOonR0DxBqPBks5LQDKoWkBCJpPBQXT8QNJvTkBl
UZTBJurKQNF5D0Gn/sLBBoVaQPokKD+Q/aHBzTP2QDLJuL9JNbjB1UXzQDPonD+7j7XBFcSlQDsG
/0DOM9XBJth1QBKW6b8RbaXB4+a3QHCqM8ANVK/BwbPHQDfjrEDuqaPB5rv2QMjMokABiKvBJza9
QFSsK0B7YbrBEMeIQDYqUUDE0LbBcKL0QLlLMUDUaKjBXBByQCBtiECeg9TBEYNPQCLWvUB9mtfB
6ZOXQI/SqED0md3BrW6SQBIDQUBeS4TBzp/FQGXHDEBVj4TBRqnCQJ+Jf0CjIYTBc1PnQPLcJ0FP
FbrBbFTLQG3tE0E/dbLBpj7+QG+7DUFkXbjByapeQLNGV0AnyKbBrbIUQMrBXUDgMpfBrdNLQJpt
YECaLovB

> <OMEGA_E>
oGNjPQARZz1w540+kKCOPg==

> <OMEGA_NBR>
    138049

$$$$
50491825
  -OEChem-04172616093D

 50 53  0     1  0  0  0  0  0999 V2000
    4.6200   -1.1829  -20.6939 C   0  0  0  0  0  0  0  0  0  0  0  0
    5.6322   -1.8279  -21.4224 C   0  0  0  0  0  0  0  0  0  0  0  0
    4.5706    0.2195  -20.6450 C   0  0  0  0  0  0  0  0  0  0  0  0
    6.5907   -1.0696  -22.1153 C   0  0  0  0  0  0  0  0  0  0  0  0
    5.5376    1.0062  -21.3265 C   0  0  0  0  0  0  0  0  0  0  0  0
    6.5499    0.3364  -22.0799 C   0  0  0  0  0  0  0  0  0  0  0  0
    5.4730    7.3466  -25.4144 C   0  0  0  0  0  0  0  0  0  0  0  0
    6.0695    7.6783  -24.1784 C   0  0  0  0  0  0  0  0  0  0  0  0
    4.9634    6.0467  -25.5934 C   0  0  0  0  0  0  0  0  0  0  0  0
    5.7124    5.4959  -23.4485 C   0  0  0  0  0  0  0  0  0  0  0  0
    6.8191    3.1942  -19.1866 C   0  0  0  0  0  0  0  0  0  0  0  0
    4.3922    3.2204  -19.1321 C   0  0  0  0  0  0  0  0  0  0  0  0
    6.7330    4.6122  -21.2910 C   0  0  0  0  0  0  0  0  0  0  0  0
    5.3212    3.1561  -22.6322 C   0  0  0  0  0  0  0  0  0  0  0  0
    6.7650    3.1944  -20.7133 C   0  0  2  0  0  0  0  0  0  0  0  0
    5.4696    2.5462  -21.2480 C   0  0  2  0  0  0  0  0  0  0  0  0
    6.6174    9.0658  -23.9288 C   0  0  0  0  0  0  0  0  0  0  0  0
    5.6546    3.2724  -16.9753 C   0  0  0  0  0  0  0  0  0  0  0  0
    3.6054    4.4541  -26.7816 C   0  0  0  0  0  0  0  0  0  0  0  0
    6.1849    6.7411  -23.2176 N   0  0  0  0  0  0  0  0  0  0  0  0
    5.0951    5.1489  -24.5989 N   0  0  0  0  0  0  0  0  0  0  0  0
    5.8626    4.5202  -22.4899 N   0  0  3  0  0  0  0  0  0  0  0  0
    5.6260    3.1810  -18.4523 N   0  0  0  0  0  0  0  0  0  0  0  0
    4.3134    3.0258  -20.4282 N   0  3  0  0  0  0  0  0  0  0  0  0
    3.2076    3.4523  -18.4462 N   0  0  0  0  0  0  0  0  0  0  0  0
    7.9088    3.3150  -18.6380 O   0  0  0  0  0  0  0  0  0  0  0  0
    4.3265    5.7145  -26.7786 O   0  0  0  0  0  0  0  0  0  0  0  0
    7.4920    1.0094  -22.7847 F   0  0  0  0  0  0  0  0  0  0  0  0
    5.3743    8.2620  -26.4055 F   0  0  0  0  0  0  0  0  0  0  0  0
    3.8777   -1.7667  -20.1700 H   0  0  0  0  0  0  0  0  0  0  0  0
    5.6741   -2.9067  -21.4501 H   0  0  0  0  0  0  0  0  0  0  0  0
    3.7878    0.7063  -20.0822 H   0  0  0  0  0  0  0  0  0  0  0  0
    7.3644   -1.5695  -22.6791 H   0  0  0  0  0  0  0  0  0  0  0  0
    6.3109    5.3178  -20.5602 H   0  0  0  0  0  0  0  0  0  0  0  0
    7.7453    4.9376  -21.5725 H   0  0  0  0  0  0  0  0  0  0  0  0
    5.8974    2.5837  -23.3740 H   0  0  0  0  0  0  0  0  0  0  0  0
    4.2636    3.1862  -22.9332 H   0  0  0  0  0  0  0  0  0  0  0  0
    7.6355    2.6537  -21.1132 H   0  0  0  0  0  0  0  0  0  0  0  0
    7.0631    9.1094  -22.9241 H   0  0  0  0  0  0  0  0  0  0  0  0
    7.3859    9.2972  -24.6811 H   0  0  0  0  0  0  0  0  0  0  0  0
    5.8016    9.8003  -24.0001 H   0  0  0  0  0  0  0  0  0  0  0  0
    4.6262    3.2461  -16.5858 H   0  0  0  0  0  0  0  0  0  0  0  0
    6.2231    2.4240  -16.5665 H   0  0  0  0  0  0  0  0  0  0  0  0
    6.1361    4.2149  -16.6756 H   0  0  0  0  0  0  0  0  0  0  0  0
    3.1439    4.2974  -27.7677 H   0  0  0  0  0  0  0  0  0  0  0  0
    4.3042    3.6316  -26.5690 H   0  0  0  0  0  0  0  0  0  0  0  0
    2.8219    4.4783  -26.0099 H   0  0  0  0  0  0  0  0  0  0  0  0
    3.4434    3.2057  -20.8872 H   0  0  0  0  0  0  0  0  0  0  0  0
    2.3383    3.4662  -18.9402 H   0  0  0  0  0  0  0  0  0  0  0  0
    3.2237    3.6053  -17.4581 H   0  0  0  0  0  0  0  0  0  0  0  0
  1  2  1  0  0  0  0
  1  3  2  0  0  0  0
  2  4  2  0  0  0  0
  3  5  1  0  0  0  0
  4  6  1  0  0  0  0
  5  6  2  0  0  0  0
  5 16  1  0  0  0  0
  6 28  1  0  0  0  0
  7  8  1  0  0  0  0
  7  9  2  0  0  0  0
  7 29  1  0  0  0  0
  8 17  1  0  0  0  0
  8 20  2  0  0  0  0
  9 21  1  0  0  0  0
  9 27  1  0  0  0  0
 10 20  1  0  0  0  0
 10 21  2  0  0  0  0
 10 22  1  0  0  0  0
 11 15  1  0  0  0  0
 11 23  1  0  0  0  0
 11 26  2  0  0  0  0
 12 23  1  0  0  0  0
 12 24  2  0  0  0  0
 12 25  1  0  0  0  0
 13 15  1  0  0  0  0
 13 22  1  0  0  0  0
 14 16  1  0  0  0  0
 14 22  1  0  0  0  0
 15 16  1  0  0  0  0
 16 24  1  0  0  0  0
 18 23  1  0  0  0  0
 19 27  1  0  0  0  0
  1 30  1  0  0  0  0
  2 31  1  0  0  0  0
  3 32  1  0  0  0  0
  4 33  1  0  0  0  0
 13 34  1  0  0  0  0
 13 35  1  0  0  0  0
 14 36  1  0  0  0  0
 14 37  1  0  0  0  0
 15 38  1  0  0  0  0
 17 39  1  0  0  0  0
 17 40  1  0  0  0  0
 17 41  1  0  0  0  0
 18 42  1  0  0  0  0
 18 43  1  0  0  0  0
 18 44  1  0  0  0  0
 19 45  1  0  0  0  0
 19 46  1  0  0  0  0
 19 47  1  0  0  0  0
 24 48  1  0  0  0  0
 25 49  1  0  0  0  0
 25 50  1  0  0  0  0
M  CHG  1  24   1
M  END
> <OMEGA_C>
CNeTQLFnl78ijaXBWzu0QBL36b8KYavBhkKSQEPPYD7mKKXBsObSQMLniL8K7LDBLTSxQOLJgD+q
nKrBl5jRQEFArD6yo7DBqiKvQJsX60CYUMvBbDnCQPm09UBrbcHBAdSeQKx+wUBSv8zBBcy2QAre
r0BzlrvBAjbaQNdtTEAWfpnByYyMQLwbTkCaDpnBwnTXQNiWk0DtU6rBA0eqQFT9SUCyDrXBkXrY
QJFwTEDTtKXBOgevQGr0IkDq+6nBm8HTQJINEUFAbr/BV/K0QEVuUUBqzYfBd79mQCKIjkCpQNbB
XurFQPa210CuvbnBDAujQCXEpEByysTBMpq7QBSlkEBN67PBUwi0QDiVS0BKnpPBpAeKQCWmQUD8
bKPBsElNQN7xXEDBkZPBCRX9QKwoVECUGpXB7HKKQIvdtkCjOtbBab7vQJ00gT8PR7bBFPqrQDAx
BEFpPtPBvyt4QJUj4r83XKHB+5G1QCoHOsC9mavBRGtyQL7OND9qqKDBxKjrQOjjyL/KbrXBB/PJ
QBArqkBfe6TBytn3QDkBnkBvlKzBvbe8QKNaJUDg/brBYG+IQBbqS0BDd7fBylX0QLLWKUDQ56jB
mwTiQOe/EUGSZLfBR1nsQGvBFEHMcsXBBKe5QA3OHEE3AMDBngmUQIfAT0DHr4TBhyPHQPYiG0A1
iITB2lrEQD3ghkCpZ4XBADZJQHiEiUBAJN7B77uJQNFraEBgjdTBf5o0QBNOj0AzFNDBfGBcQPgq
TUDnGKfBRaYVQGvWXUB4hZfB2VFOQBG9ZkAlqovBZYLXQBpbe7+sIrHBIUC5QIpw6b/JTKzBIzbT
QFSI0j5DTbDBe4KWQPijor+ktKbBI8KwQEyxfj9giarBncyRQGLo/z2MzqXBleSuQHLP6kAwJ8vB
+zPCQHQc9UCOR8HB+caeQO8xwUDsq8zB2Lu2QHEmr0BsibvBnfPZQPsuS0DHdpnBu1eMQCgtUEC0
CpnBOoDXQFXikkCQT6rBJQ2rQPDhR0CFDrXBxCHYQDkYS0AtqqXBRFSuQPxmIkCt3anBk1bSQCPy
EEFLGL/BWLq0QHdQT0AUx4fBjAVoQJ0vjkA/W9bBBqDFQNsG10DGnLnBTimjQNIupEDfxsTBQZG7
QCLlj0AI4bPB4sGzQLvWSkCMmJPBbMOJQGFcREDkbaPBAkBNQBWFYEBSiJPBVtD8QJNTU0BoFZXB
sDKKQF/8tkBzJ9bBG0teQFB0Ez9/aaDBZC+rQARABEEs+dLBoRbyQDvms7/rfrXBVKm8QMtYOcCz
4KzBrYLqQC+Nhj9fHLTBn1J+QBwp9r/+DaPBFjTKQCGpqUCZe6TBLPb3QEMDnUDClazBQrK+QJ8l
I0D0u7rBfZ2JQC6HSEBnzrfBHbzzQAPLJ0Cv4ajBx4PfQHe9EUHD8bbB8X/rQGYEFUED58TBTby3
QB5fHEHr2b/BI9CTQP1KTkBIqYTBH4HGQDsaGEAjm4TBmJnEQEhwhUB+RoXBvQBKQJuYiUCyO97B
rAKLQFdqaECc39TBmmk2QH/TjUD8HNDBHLxcQB2XUkBHKafBBKEVQO3yYkBtepfBz41OQN7baUCs
novBKWiQQIZ4jr+G3afBAAmxQMJe379ls63Bqg6RQLDZjj5BbqbB8GHSQFToe78EJLLBT6WyQBWU
iD/mxKrBV4bTQPSQ0j7PvbDBXE6oQENf5kDJFszBWB+cQCc4u0B4t8zBML+8QHsd9UAGvsLBEIu4
QGgEsEBAq7vBVyraQBhHTUBk5ZjBhIKMQJJ2TkB89ZjBRUzYQINOlkDurqnBxTOtQAxxTUCko7TB
s9HZQE6eUEB/JqXBkAGxQKCGJkBVrqnBcsaBQOxRqkDT8tXB4tSyQA4jSUA3c4fBzvPgQBK8FkE/
WbnBi12kQOs2oUAOgsTB1g/FQPpM2UBHo7rBpi29QGDIkkBbd7PBtFWzQAZSSUDVSJPBZUCLQOaZ
REAjXqPBHCVMQAgcXUD2spPBTpz8QGYqUEADOJTBQXnFQPUzEEF+A8LBRhX0QH18iz8DbLXBD+Cf
QKDKAEF1O9TBX39tQB6B2b/3eKTBxX6wQFJCNMCyxq7B8mdvQEayQT8M+aHBilLrQDSgvL8uqbbB
QcnJQJdirEBX3qPB+6H4QKmFoUCUvavB8MjAQNbCKUAfb7rBfqOLQJqfTUCESrfBxC32QLRfL0Aq
TKjBJaRxQITdiEDkX9TBWVNJQLHKvUDS09bBKa6UQLMFrEACXN3BuJGRQOTERUACmoTBjLjEQBNY
EUDLe4TBmNfBQMkUgkCidoTBQXXlQG8uKEHpnrnBLDXSQL8/EkHYrbHBuBUAQRrBDkFWIbrBbwRg
QB+wUUCSO6fBp38VQFzPX0B72ZfBT2tLQGj1ZECOwovBvtjWQJYpZL/LHrLBGPe2QGtZ3r8uCq7B
tlrUQMxk/D4bY7DBzZiUQFc1mb9nOqjBqdexQFNFiD9GkKrBk42RQFC5Qj6ze6bBvtapQB+m5kBR
L8zBg5WbQOUSvEDSs8zBCpS/QEOQ9EDa78LB7iy4QMPgr0CKt7vBgcbZQBLFTECg9pjBKRCMQJ6+
T0Cf35jBshbYQNLGlUC2yanBHdisQMpiTEAsrrTB2QXZQIK6T0DzNqXB3a6vQB64JkCDlqnBV5qB
QP+1q0DkD9bBgQ2zQEZ9SECIcIfBNuzgQIM9FkEEt7jBVeeiQEHaoUAceMTB3afGQDGT2ECVyrrB
ZkG9QIM7kkBEm7PB/RSzQLqTSUD2RZPBwJyKQFbgR0A1UKPBjyRLQBJ8W0BZhJPBf2f8QIZ9TkD8
XJTB0xnMQDCCD0GudMLBUf1dQMYWIT/p/aDBHm6iQOz+AEH7XdTBUEnxQBUPp7+El7bBkti4QDtf
M8CqXa/BghztQGVakT8mibPBynt4QLA27b9wEKXB4ZfJQPcXrEAaB6TBN5X4QD6roEDOy6vB06HA
QNuJJ0C5ULrBhnmLQMvxTED4erfBLfn0QJ1pLUAUaajBggxwQNpgikCpjtTBarhJQGGlv0DFC9fB
aAiVQHE4rUDoY93BX+KRQGjuRUC8goTBjJ/EQMHrD0DrlYTBC6TCQGJngUDCa4TBdEjpQAhMJ0H/
S7nBiynLQMzIE0Fi6LHB+DH+QBXEDEFZg7fBFsBfQGqXWEAyLqfBRkAUQOKqXUARn5fBr5pKQEXB
YUBGjovB

> <OMEGA_E>
gIcJPUD9Yj0Ax3w+2LGJPg==

> <OMEGA_NBR>
    141741

$$$$
50491826
  -OEChem-04172616093D

 50 53  0     1  0  0  0  0  0999 V2000
    5.7163   -1.7916  -21.4354 C   0  0  0  0  0  0  0  0  0  0  0  0
    6.6634   -0.9980  -22.1070 C   0  0  0  0  0  0  0  0  0  0  0  0
    4.6787   -1.1843  -20.7041 C   0  0  0  0  0  0  0  0  0  0  0  0
    6.5749    0.4023  -22.0456 C   0  0  0  0  0  0  0  0  0  0  0  0
    4.5860    0.2170  -20.6394 C   0  0  0  0  0  0  0  0  0  0  0  0
    5.5385    1.0275  -21.3074 C   0  0  0  0  0  0  0  0  0  0  0  0
    5.4389    7.3510  -25.4004 C   0  0  0  0  0  0  0  0  0  0  0  0
    6.0458    7.6796  -24.1692 C   0  0  0  0  0  0  0  0  0  0  0  0
    4.9480    6.0455  -25.5860 C   0  0  0  0  0  0  0  0  0  0  0  0
    5.7426    5.4820  -23.4606 C   0  0  0  0  0  0  0  0  0  0  0  0
    6.8103    3.1802  -19.1831 C   0  0  0  0  0  0  0  0  0  0  0  0
    4.3799    3.2334  -19.1414 C   0  0  0  0  0  0  0  0  0  0  0  0
    6.7425    4.6066  -21.2849 C   0  0  0  0  0  0  0  0  0  0  0  0
    5.3602    3.1390  -22.6420 C   0  0  0  0  0  0  0  0  0  0  0  0
    6.7648    3.1887  -20.7094 C   0  0  2  0  0  0  0  0  0  0  0  0
    5.4663    2.5561  -21.2427 C   0  0  2  0  0  0  0  0  0  0  0  0
    6.5512    9.0801  -23.9062 C   0  0  0  0  0  0  0  0  0  0  0  0
    5.6392    3.2410  -16.9770 C   0  0  0  0  0  0  0  0  0  0  0  0
    3.5625    4.4650  -26.7552 C   0  0  0  0  0  0  0  0  0  0  0  0
    6.1890    6.7348  -23.2190 N   0  0  0  0  0  0  0  0  0  0  0  0
    5.1115    5.1385  -24.6047 N   0  0  0  0  0  0  0  0  0  0  0  0
    5.9254    4.4960  -22.5180 N   0  0  3  0  0  0  0  0  0  0  0  0
    5.6121    3.1724  -18.4552 N   0  0  0  0  0  0  0  0  0  0  0  0
    4.3063    3.0478  -20.4396 N   0  3  0  0  0  0  0  0  0  0  0  0
    3.1941    3.4737  -18.4606 N   0  0  0  0  0  0  0  0  0  0  0  0
    7.8988    3.2729  -18.6268 O   0  0  0  0  0  0  0  0  0  0  0  0
    4.2964    5.7174  -26.7637 O   0  0  0  0  0  0  0  0  0  0  0  0
    5.3085    8.2760  -26.3790 F   0  0  0  0  0  0  0  0  0  0  0  0
    5.7854   -2.8684  -21.4810 H   0  0  0  0  0  0  0  0  0  0  0  0
    7.4582   -1.4651  -22.6695 H   0  0  0  0  0  0  0  0  0  0  0  0
    3.9517   -1.7963  -20.1911 H   0  0  0  0  0  0  0  0  0  0  0  0
    7.3026    1.0080  -22.5652 H   0  0  0  0  0  0  0  0  0  0  0  0
    3.7862    0.6779  -20.0788 H   0  0  0  0  0  0  0  0  0  0  0  0
    6.2801    5.3072  -20.5739 H   0  0  0  0  0  0  0  0  0  0  0  0
    7.7616    4.9452  -21.5231 H   0  0  0  0  0  0  0  0  0  0  0  0
    5.9409    2.5395  -23.3584 H   0  0  0  0  0  0  0  0  0  0  0  0
    4.3102    3.1829  -22.9668 H   0  0  0  0  0  0  0  0  0  0  0  0
    7.6312    2.6413  -21.1089 H   0  0  0  0  0  0  0  0  0  0  0  0
    6.9960    9.1272  -22.9012 H   0  0  0  0  0  0  0  0  0  0  0  0
    7.3119    9.3421  -24.6563 H   0  0  0  0  0  0  0  0  0  0  0  0
    5.7135    9.7901  -23.9699 H   0  0  0  0  0  0  0  0  0  0  0  0
    4.6098    3.2234  -16.5896 H   0  0  0  0  0  0  0  0  0  0  0  0
    6.1950    2.3786  -16.5801 H   0  0  0  0  0  0  0  0  0  0  0  0
    6.1334    4.1720  -16.6623 H   0  0  0  0  0  0  0  0  0  0  0  0
    3.0894    4.3099  -27.7360 H   0  0  0  0  0  0  0  0  0  0  0  0
    4.2548    3.6359  -26.5469 H   0  0  0  0  0  0  0  0  0  0  0  0
    2.7872    4.4999  -25.9756 H   0  0  0  0  0  0  0  0  0  0  0  0
    3.4438    3.2424  -20.9067 H   0  0  0  0  0  0  0  0  0  0  0  0
    2.3277    3.5003  -18.9593 H   0  0  0  0  0  0  0  0  0  0  0  0
    3.2062    3.6203  -17.4714 H   0  0  0  0  0  0  0  0  0  0  0  0
  1  2  1  0  0  0  0
  1  3  2  0  0  0  0
  2  4  2  0  0  0  0
  3  5  1  0  0  0  0
  4  6  1  0  0  0  0
  5  6  2  0  0  0  0
  6 16  1  0  0  0  0
  7  8  1  0  0  0  0
  7  9  2  0  0  0  0
  7 28  1  0  0  0  0
  8 17  1  0  0  0  0
  8 20  2  0  0  0  0
  9 21  1  0  0  0  0
  9 27  1  0  0  0  0
 10 20  1  0  0  0  0
 10 21  2  0  0  0  0
 10 22  1  0  0  0  0
 11 15  1  0  0  0  0
 11 23  1  0  0  0  0
 11 26  2  0  0  0  0
 12 23  1  0  0  0  0
 12 24  2  0  0  0  0
 12 25  1  0  0  0  0
 13 15  1  0  0  0  0
 13 22  1  0  0  0  0
 14 16  1  0  0  0  0
 14 22  1  0  0  0  0
 15 16  1  0  0  0  0
 16 24  1  0  0  0  0
 18 23  1  0  0  0  0
 19 27  1  0  0  0  0
  1 29  1  0  0  0  0
  2 30  1  0  0  0  0
  3 31  1  0  0  0  0
  4 32  1  0  0  0  0
  5 33  1  0  0  0  0
 13 34  1  0  0  0  0
 13 35  1  0  0  0  0
 14 36  1  0  0  0  0
 14 37  1  0  0  0  0
 15 38  1  0  0  0  0
 17 39  1  0  0  0  0
 17 40  1  0  0  0  0
 17 41  1  0  0  0  0
 18 42  1  0  0  0  0
 18 43  1  0  0  0  0
 18 44  1  0  0  0  0
 19 45  1  0  0  0  0
 19 46  1  0  0  0  0
 19 47  1  0  0  0  0
 24 48  1  0  0  0  0
 25 49  1  0  0  0  0
 25 50  1  0  0  0  0
M  CHG  1  24   1
M  END
> <OMEGA_C>
2Ou2QNVT5b+re6vBLzrVQOF7f78R27DBQ7iVQGGWl7/2oaXB2WXSQC34zT5uXbDBccCSQNY0Xj6K
HaXBazuxQJyEgz+DdarBeguuQKI760AdNMvB/nbBQFq/9UCYWsHBWVaeQLV0wUAmsMzBL8O3QD5s
r0Bcr7vB6+3ZQLmHS0DodpnBYyiMQJXwTkCCIZnBqsLXQCNpk0BiR6rBHYerQLLlSEC3IrXBHHnY
QHIUTEDzrKXB/OuuQDKXI0Aa8anBpKPRQP1HEUHQP7/Bp3S0QONsT0DY0IfBEQBkQGThjkCRCtbB
UQzGQOGD10CTwLnBp5GjQHBupEBf1sTBx5y9QBnfj0DpJLTBoJazQHkIS0BTpJPBnc2JQDsPQ0BD
hKPBUWtMQKNRXkA+r5PBrML8QL53UUDGA5XBd3yJQBP1tkAnHNbBF9+pQIJqBEEbCNPB0yG5QJiU
N8AE2avBW6nuQB2Hu788W7XBdeh8QEzu5b9Th6HBF6/pQPcFgT+QhbTBjVByQEqKLT91oaDB9vbI
QFnUqUBwl6TBDV/4QFM/nkBeL6zBQxy+QMOGIkAL3rrBPO2JQDG0S0Dwu7fB2zL0QMgKKUAa36jB
397fQAAJEkGbNbfBRPvpQHJ5FUEHQMXBCNW2QFCkHEFqwr/Bz4OTQP9MTkCWt4TBEj3GQKk7GEAd
pITBJEXEQAeBhUBRTIXBkLhFQBHriUBm493BEyeIQMCyaEAiYNTB/WAyQP/+j0Afzs/B6mdcQASD
T0D6QKfBX/kUQDUEYEC4rJfBsTJNQNWyZ0CCxYvBF9G1QH2w5b9IpavBAUiUQOWKl7+e8KXBTM/U
QJ12gL8tzLDBVa6RQF6jXj7xV6XBLGzSQENdyz6HM7DBr/GwQKo+gz/IbarBBL+vQCDe6kCCWMvB
x1fDQK4m9UBqgcHBVPeeQKB0wUBPxszB4ci2QF6Tr0DDnLvBohLaQJIrTECSf5nBm06MQMBRTUDp
A5nBXGPXQICHk0D5VarB/RurQGTbSECYFLXB60fYQCJdTEAptKXBVrKuQGR6I0B256nBBBHUQCPi
EEEgZL/BuQi1QEZSTUAqyYfBvw9lQCBCj0AlQNbBsk/GQFhG10Aux7nBa/aiQKKepECx0sTB7W+7
QBhzkECj6LPBAOmzQPrFSUA4nJPBzbuJQErQQkAra6PBp/JMQD9YW0CYdpPBteH8QPMsVUADHpXB
yhaKQA9Kt0CUONbBY0KsQMQ3BEGsM9PB58K3QJTFN8DUEazBpPR4QJ+R5b80AqLBdXDuQOuSvL8V
NrXBiIZvQNVLLj9p/qDBy0jqQKUPgD8mLLTBTPrJQJ8zqkCnf6TBCsr3QLLYnUA3nKzB1by+QKtU
JEBXyLrBCZ+JQIMvSUCEyrfB+PvzQPJqKUBj7ajBJTLhQAW0EUGKPLfBb2LtQIWzFEH7MsXBisi5
QEp6HEG6M8DBbjCUQLuzSkBUo4TBGWzHQAqXFkAItITBoFbEQOunhEAJOYXBJc5GQM2eikCBHN7B
QKGIQK8/aUDWpNTBWGkzQEIvkEAeBNDBzVBcQP42UECWHafBkz0VQG0lXUArZZfBUidOQEOlY0BC
iIvBaHayQPE+2799DK7BLwaRQPAtjr8PQKjB2QrUQNBBbb9aHrLBmOKQQKycjj6rj6bB8kHUQAjb
6z5NXrDB7JuyQMBiij/8l6rBWEaoQFn15UBGGczBb4+bQDHyukBMo8zBtsG8QBPM9EDtxMLB7oW4
QP7Br0Dco7vBNDXaQOq5TEB745jBUWiMQFxYT0BaCZnB7TDZQM3alUD+vqnBtaeuQKgSTEC2rrTB
8iDaQFDDT0COJaXBLB+xQOHHJkCWn6nBsj+AQFROqkCVudXBgLiyQOwfSUAlfIfBa83gQDy2FkES
cLnBNtajQF0EoUDxacTBoArFQJcT2UAUo7rBq8S9QGNhkkABe7PB/TWzQNy8SUCVUZPBkFaLQLDv
RUC3c6PBV6RLQIqsXUAw1ZPBdJT8QKxfTkDwKpTB/2LFQCQQEEHRFcLBwB+gQECDAEE4StTBZ1ey
QBTsMcA/YK/BFspuQLvo27/BFqXBpaXtQJbfsb8vlrbB/PJtQFmRPD8hLKLBzD/uQLKkhz+mcbPB
7SLLQKFKrEBl8qPBSqH5QCKOoEAD36vB6WPDQP9kKECmOLrB64aNQMrhSkBAp7fBVUn2QNKgLUAO
QqjB93ZtQFAWiUBRDNTBs/RGQP5VvkDChNbB+qySQHlnq0DAN93Bn3CRQNqqRkCoooTBVy/EQCmu
EECLjYTBOS/CQB/JgUAQd4TBDjflQGcpKEFqwLnBxRHSQNlHEkFJwrHBJQgAQRLEDkFwMrrBM8Fg
QLARVEDsYafB0DcVQMZ5YEARB5jB33lKQJgxZUC344vBaKWzQLjt2b/0K67BJ2bUQMahZb+BabLB
1QmSQIEWj7+VUajBnsTTQNCM+z7rtrDB+wSRQNSNiz6rsabBsCGyQOTtiz+rzarBZmGrQD4M5UAT
gszBLXacQNy0ukC7wszBfFvAQGbk80BkPMPB6LG3QLY9sED3jLvBpvvZQCrnTEAg65jBtDSMQJg3
TUCi2pjBX+LYQNoXlkCYyKnBNFetQMwKTkBxkLTBI4nZQIQlUECmLqXBZFawQHpuJ0B4nanBnWeB
QKIqqkCq6NXBCROzQNCXQUBddofBOxXhQItfFkGENrnB/c6iQMt5oUASTMTBXH7GQBja2EAB2brB
k2+7QHaPk0DYLbPBNT6zQDLURkBxRpPBhbaKQNZ+RUBqSaPBuclLQHReWkB4eJPBe2n8QLBtUUAW
QZTBM6LMQLc2D0F57sLBJ7ykQGx5/0CR6dTBQEm0QD5cMcCbaK/BtgPuQMs1rL9G+LbBqeZxQHal
3r+cEKXBcRntQLuLjT+N77PB18ptQIyfNz/US6LBMKTMQJLerEAW0KPBRST5QCvnn0DOT6zBpGvC
QFcYLEDpMLrBWzSMQFfAS0D1hLfBW4X1QF6zLUBDVqjBPJ1sQHqWiUAoENTBPDdLQA1Jv0CECdfB
mKCUQDGcqUCNR93BEeORQI9APUB7lITBk+/EQMB7CEC354TBXUnCQC4me0AGHYTBQkfpQHVtJ0HK
8LnBvyLLQK0dFEEWbbLB+Gr+QOMGDUFX3bfBMjFfQA4pVEBUHqfButwUQEimXUBvjpfBbIlLQBuP
YEAWgovB

> <OMEGA_E>
4PM5PQCHPj3o8YQ+IIuFPg==

> <OMEGA_NBR>
    145433

$$$$
29518
  -OEChem-04172616093D

 80 81  0     1  0  0  0  0  0999 V2000
    8.2333   -0.5034  -14.6711 C   0  0  0  0  0  0  0  0  0  0  0  0
    8.0254    0.5566  -15.5739 C   0  0  0  0  0  0  0  0  0  0  0  0
    7.4526   -1.6737  -14.7614 C   0  0  0  0  0  0  0  0  0  0  0  0
    4.4459    9.3643  -20.8335 C   0  0  0  0  0  0  0  0  0  0  0  0
    6.6739    8.3661  -20.8797 C   0  0  0  0  0  0  0  0  0  0  0  0
    4.8231   10.2583  -21.8488 C   0  0  0  0  0  0  0  0  0  0  0  0
    7.0474    9.2611  -21.8985 C   0  0  0  0  0  0  0  0  0  0  0  0
    6.2197   -0.7080  -16.6224 C   0  0  0  0  0  0  0  0  0  0  0  0
    7.0125    0.4556  -16.5506 C   0  0  0  0  0  0  0  0  0  0  0  0
    6.4586   -1.7818  -15.7551 C   0  0  0  0  0  0  0  0  0  0  0  0
    5.3594    8.4113  -20.3411 C   0  0  0  0  0  0  0  0  0  0  0  0
    6.1225   10.2040  -22.3843 C   0  0  0  0  0  0  0  0  0  0  0  0
    6.7692    1.5371  -17.5017 C   0  0  0  0  0  0  0  0  0  0  0  0
    5.6468   -2.9988  -15.8848 C   0  0  0  0  0  0  0  0  0  0  0  0
    5.5246    6.5582  -18.6413 C   0  0  0  0  0  0  0  0  0  0  0  0
    2.8143   -3.6612  -17.7488 C   0  0  0  0  0  0  0  0  0  0  0  0
    8.7476   -4.5770  -16.6489 C   0  0  0  0  0  0  0  0  0  0  0  0
    5.1660    6.5200  -16.1702 C   0  0  0  0  0  0  0  0  0  0  0  0
    6.5687    0.4330  -21.0353 C   0  0  0  0  0  0  0  0  0  0  0  0
    4.3278   -0.6444  -21.4369 C   0  0  0  0  0  0  0  0  0  0  0  0
    3.7773   -4.7699  -18.1996 C   0  0  0  0  0  0  0  0  0  0  0  0
    7.9546   -4.7134  -17.9571 C   0  0  0  0  0  0  0  0  0  0  0  0
    4.9912    4.3854  -17.4865 C   0  0  0  0  0  0  0  0  0  0  0  0
    4.4071    1.5817  -20.2070 C   0  0  0  0  0  0  0  0  0  0  0  0
    4.8727   -5.0357  -17.1477 C   0  0  0  0  0  0  0  0  0  0  0  0
    6.8193   -3.6715  -18.0419 C   0  0  0  0  0  0  0  0  0  0  0  0
    4.7339    5.8946  -17.5059 C   0  0  2  0  0  0  0  0  0  0  0  0
    5.1465    0.2246  -20.4677 C   0  0  0  0  0  0  0  0  0  0  0  0
    5.1365    2.4798  -19.1658 C   0  0  1  0  0  0  0  0  0  0  0  0
    4.2812    3.6706  -18.6709 C   0  0  1  0  0  0  0  0  0  0  0  0
    4.8773    7.5726  -19.3323 N   0  0  0  0  0  0  0  0  0  0  0  0
    5.4891    1.6540  -18.0186 N   0  0  0  0  0  0  0  0  0  0  0  0
    5.7828   -3.8730  -16.9892 N   0  0  0  0  0  0  0  0  0  0  0  0
    7.6846    2.2713  -17.8608 O   0  0  0  0  0  0  0  0  0  0  0  0
    4.7790   -3.1841  -15.0389 O   0  0  0  0  0  0  0  0  0  0  0  0
    6.6945    6.2457  -18.8394 O   0  0  0  0  0  0  0  0  0  0  0  0
    3.0028    3.2313  -18.2056 O   0  0  0  0  0  0  0  0  0  0  0  0
    6.4813   11.0576  -23.3677 F   0  0  0  0  0  0  0  0  0  0  0  0
    8.9926   -0.4198  -13.9076 H   0  0  0  0  0  0  0  0  0  0  0  0
    8.6389    1.4437  -15.5190 H   0  0  0  0  0  0  0  0  0  0  0  0
    7.6160   -2.4870  -14.0698 H   0  0  0  0  0  0  0  0  0  0  0  0
    3.4464    9.4076  -20.4265 H   0  0  0  0  0  0  0  0  0  0  0  0
    7.3859    7.6447  -20.5068 H   0  0  0  0  0  0  0  0  0  0  0  0
    4.1162   10.9866  -22.2180 H   0  0  0  0  0  0  0  0  0  0  0  0
    8.0458    9.2246  -22.3087 H   0  0  0  0  0  0  0  0  0  0  0  0
    5.4241   -0.7719  -17.3499 H   0  0  0  0  0  0  0  0  0  0  0  0
    2.0498   -3.5015  -18.5235 H   0  0  0  0  0  0  0  0  0  0  0  0
    2.3269   -3.9589  -16.8087 H   0  0  0  0  0  0  0  0  0  0  0  0
    3.3766   -2.7290  -17.5911 H   0  0  0  0  0  0  0  0  0  0  0  0
    9.5461   -5.3331  -16.6230 H   0  0  0  0  0  0  0  0  0  0  0  0
    9.1922   -3.5724  -16.5928 H   0  0  0  0  0  0  0  0  0  0  0  0
    8.0725   -4.7274  -15.7936 H   0  0  0  0  0  0  0  0  0  0  0  0
    4.6056    6.0522  -15.3473 H   0  0  0  0  0  0  0  0  0  0  0  0
    6.2433    6.3556  -16.0200 H   0  0  0  0  0  0  0  0  0  0  0  0
    4.9588    7.6002  -16.1872 H   0  0  0  0  0  0  0  0  0  0  0  0
    7.1536    1.0547  -20.3414 H   0  0  0  0  0  0  0  0  0  0  0  0
    7.0614   -0.5429  -21.1572 H   0  0  0  0  0  0  0  0  0  0  0  0
    6.5037    0.9354  -22.0117 H   0  0  0  0  0  0  0  0  0  0  0  0
    3.3158   -0.7923  -21.0321 H   0  0  0  0  0  0  0  0  0  0  0  0
    4.2623   -0.1423  -22.4134 H   0  0  0  0  0  0  0  0  0  0  0  0
    4.8200   -1.6206  -21.5589 H   0  0  0  0  0  0  0  0  0  0  0  0
    3.2052   -5.6956  -18.3603 H   0  0  0  0  0  0  0  0  0  0  0  0
    4.2549   -4.4657  -19.1427 H   0  0  0  0  0  0  0  0  0  0  0  0
    8.6382   -4.5670  -18.8064 H   0  0  0  0  0  0  0  0  0  0  0  0
    7.5185   -5.7220  -18.0071 H   0  0  0  0  0  0  0  0  0  0  0  0
    6.0742    4.2066  -17.5587 H   0  0  0  0  0  0  0  0  0  0  0  0
    4.6133    3.9706  -16.5404 H   0  0  0  0  0  0  0  0  0  0  0  0
    4.3378    2.1316  -21.1571 H   0  0  0  0  0  0  0  0  0  0  0  0
    3.3951    1.3640  -19.8347 H   0  0  0  0  0  0  0  0  0  0  0  0
    4.3931   -5.2462  -16.1804 H   0  0  0  0  0  0  0  0  0  0  0  0
    5.4631   -5.9090  -17.4620 H   0  0  0  0  0  0  0  0  0  0  0  0
    7.2521   -2.6672  -17.9239 H   0  0  0  0  0  0  0  0  0  0  0  0
    6.3403   -3.7507  -19.0290 H   0  0  0  0  0  0  0  0  0  0  0  0
    3.6599    6.0769  -17.6589 H   0  0  0  0  0  0  0  0  0  0  0  0
    5.2308   -0.3081  -19.5090 H   0  0  0  0  0  0  0  0  0  0  0  0
    6.0507    2.8769  -19.6310 H   0  0  0  0  0  0  0  0  0  0  0  0
    4.1628    4.3886  -19.4958 H   0  0  0  0  0  0  0  0  0  0  0  0
    3.9247    7.7263  -19.0696 H   0  0  0  0  0  0  0  0  0  0  0  0
    4.7579    1.1365  -17.5743 H   0  0  0  0  0  0  0  0  0  0  0  0
    2.5437    2.7892  -18.9100 H   0  0  0  0  0  0  0  0  0  0  0  0
  1  2  1  0  0  0  0
  1  3  2  0  0  0  0
  2  9  2  0  0  0  0
  3 10  1  0  0  0  0
  4  6  2  0  0  0  0
  4 11  1  0  0  0  0
  5  7  1  0  0  0  0
  5 11  2  0  0  0  0
  6 12  1  0  0  0  0
  7 12  2  0  0  0  0
  8  9  1  0  0  0  0
  8 10  2  0  0  0  0
  9 13  1  0  0  0  0
 10 14  1  0  0  0  0
 11 31  1  0  0  0  0
 12 38  1  0  0  0  0
 13 32  1  0  0  0  0
 13 34  2  0  0  0  0
 14 33  1  0  0  0  0
 14 35  2  0  0  0  0
 15 27  1  0  0  0  0
 15 31  1  0  0  0  0
 15 36  2  0  0  0  0
 16 21  1  0  0  0  0
 17 22  1  0  0  0  0
 18 27  1  0  0  0  0
 19 28  1  0  0  0  0
 20 28  1  0  0  0  0
 21 25  1  0  0  0  0
 22 26  1  0  0  0  0
 23 27  1  0  0  0  0
 23 30  1  0  0  0  0
 24 28  1  0  0  0  0
 24 29  1  0  0  0  0
 25 33  1  0  0  0  0
 26 33  1  0  0  0  0
 29 30  1  0  0  0  0
 29 32  1  0  0  0  0
 30 37  1  0  0  0  0
  1 39  1  0  0  0  0
  2 40  1  0  0  0  0
  3 41  1  0  0  0  0
  4 42  1  0  0  0  0
  5 43  1  0  0  0  0
  6 44  1  0  0  0  0
  7 45  1  0  0  0  0
  8 46  1  0  0  0  0
 16 47  1  0  0  0  0
 16 48  1  0  0  0  0
 16 49  1  0  0  0  0
 17 50  1  0  0  0  0
 17 51  1  0  0  0  0
 17 52  1  0  0  0  0
 18 53  1  0  0  0  0
 18 54  1  0  0  0  0
 18 55  1  0  0  0  0
 19 56  1  0  0  0  0
 19 57  1  0  0  0  0
 19 58  1  0  0  0  0
 20 59  1  0  0  0  0
 20 60  1  0  0  0  0
 20 61  1  0  0  0  0
 21 62  1  0  0  0  0
 21 63  1  0  0  0  0
 22 64  1  0  0  0  0
 22 65  1  0  0  0  0
 23 66  1  0  0  0  0
 23 67  1  0  0  0  0
 24 68  1  0  0  0  0
 24 69  1  0  0  0  0
 25 70  1  0  0  0  0
 25 71  1  0  0  0  0
 26 72  1  0  0  0  0
 26 73  1  0  0  0  0
 27 74  1  0  0  0  0
 28 75  1  0  0  0  0
 29 76  1  0  0  0  0
 30 77  1  0  0  0  0
 31 78  1  0  0  0  0
 32 79  1  0  0  0  0
 37 80  1  0  0  0  0
M  END
> <OMEGA_C>
xrsDQVndAL+nvGrB6GcAQfd9Dj+4LnnBCXzuQIY81r/ULmzBdkSOQArUFUEPq6bBg5DVQKnbBUGj
CafB3FaaQP0hJEFiyq7BH4ThQGQtFEEiMK/BKAjHQJVBNb+e+oTBgmbgQOhA6T6vZ4TBrazOQHwR
5L/tFHzBh4CrQIaUBkGRuqLBw+vDQKNDI0EXE7PBNp3YQJi+xD+IA4zBjbK0QNnsP8BRKH7BvMmw
QO3c0UBuIZXBOh00QCxRasCR/Y3BPPYLQaN2ksDuMIXBBVClQOKj0ECMXIHBLjPSQBaw3T5bSKjB
rn2KQIL6JL++fqvB2b9xQFajmMDJmJHB24v+QDfUlsArqI/B4LefQFxVjEBt5IvBogaNQAp2yj/h
p6HBW+2bQGckocBnLonBxzfaQEr6asDbVZDB1HuXQIKgvEACDIzBGbCkQJ7zZT7QvaPB/V2kQGi0
HkCKU5nBaf+IQM7rakDsXZXBqxKcQIxS8kCOqJrBEqevQCG10z8uJpDBBg25QKbfd8DM6YfBFej1
QNZcEUD44o7Bke2YQAbIS8A9n3DB8TjWQNncx0AXt5bBrS1AQGTOTkD5pJHB3GbPQLzrMEEX8brB
wOEPQdvq1r5nhV7B5jgKQfLLuD+3TXjBZbbzQPEqH8AVHmHBQpJcQKSFFkF/aaPBG1nsQL2h9EDe
DaTBNbiDQEbJL0FevrHBgLsAQcuXE0E7eLLBEJKtQPeZRb+DzIrBNjADQJ4YYMAOMJTBgOsUQD9f
fcA+eIbBOhpYQKyoLsCJuozBzrwYQQCpqsDh+4TBMhMTQfmhZMAbvoTBySgBQQlHl8CTsnzBZGGT
QFmrwUCnjnXBt8jHQGFhy0D+KIDBX66eQKI080BTf4HBLurkQCn/hj9Gu6LB8vbhQFz+Cr8LQqnB
bh7QQC13bz8AGLDBmjVUQIHRSr+1QajB22SIQE+sEb6TTrPBXz2aQE5wz7+deKzBCiJNQFhCtsDc
4ZLBYiiIQA7njsAnJJnBBzYKQb4kksBvc5bBPJfwQMsat8CdDpDBjF/CQI2chkA6eIzBQKCTQKgd
fkDTUoTB6s6KQJtsCEDPQanB2UlZQM6Xrj9trZ7BV5SMQMrgp8BicYHBdNGuQLgWvcAasovBJhHo
QK6yKsAUZI/BdePKQOgKcMBSO5jBRzxqQBx2wkBpRY3By2KnQNnAnb5ZEpzBg5/BQMAfOEA/DJ3B
rTWFQC1vjEBz95vBsi57QOs990CPjpjBYkCYQCh5kT8dmIzB8csiQCOCMkCqR5fB

> <OMEGA_E>
GAyxPg==

> <OMEGA_NBR>
      1609

$$$$
29519
  -OEChem-04172616093D

 82 83  0     1  0  0  0  0  0999 V2000
    8.2498   -0.5104  -14.6587 C   0  0  0  0  0  0  0  0  0  0  0  0
    8.0504    0.5434  -15.5704 C   0  0  0  0  0  0  0  0  0  0  0  0
    7.4626   -1.6768  -14.7419 C   0  0  0  0  0  0  0  0  0  0  0  0
    4.4060    9.3959  -20.7563 C   0  0  0  0  0  0  0  0  0  0  0  0
    6.6247    8.3833  -20.8711 C   0  0  0  0  0  0  0  0  0  0  0  0
    4.7655   10.2998  -21.7700 C   0  0  0  0  0  0  0  0  0  0  0  0
    6.9811    9.2895  -21.8850 C   0  0  0  0  0  0  0  0  0  0  0  0
    6.2383   -0.7179  -16.6115 C   0  0  0  0  0  0  0  0  0  0  0  0
    7.0410    0.4394  -16.5501 C   0  0  0  0  0  0  0  0  0  0  0  0
    6.4683   -1.7854  -15.7352 C   0  0  0  0  0  0  0  0  0  0  0  0
    5.3238    8.4292  -20.2994 C   0  0  0  0  0  0  0  0  0  0  0  0
    6.0510   10.2421  -22.3387 C   0  0  0  0  0  0  0  0  0  0  0  0
    6.8149    1.5074  -17.5193 C   0  0  0  0  0  0  0  0  0  0  0  0
    5.6485   -2.9971  -15.8574 C   0  0  0  0  0  0  0  0  0  0  0  0
    5.5282    6.5512  -18.6343 C   0  0  0  0  0  0  0  0  0  0  0  0
    2.7649   -3.6371  -17.6731 C   0  0  0  0  0  0  0  0  0  0  0  0
    8.7336   -4.5839  -16.6439 C   0  0  0  0  0  0  0  0  0  0  0  0
    5.1664    6.4716  -16.1666 C   0  0  0  0  0  0  0  0  0  0  0  0
    4.3304   -0.7197  -21.4210 C   0  0  0  0  0  0  0  0  0  0  0  0
    6.5843    0.3646  -21.1076 C   0  0  0  0  0  0  0  0  0  0  0  0
    3.7324   -4.7239  -18.1642 C   0  0  0  0  0  0  0  0  0  0  0  0
    7.9209   -4.7316  -17.9383 C   0  0  0  0  0  0  0  0  0  0  0  0
    5.0805    4.3462  -17.5173 C   0  0  0  0  0  0  0  0  0  0  0  0
    4.4535    1.5322  -20.2368 C   0  0  0  0  0  0  0  0  0  0  0  0
    4.8352   -5.0137  -17.1272 C   0  0  0  0  0  0  0  0  0  0  0  0
    6.7973   -3.6774  -18.0255 C   0  0  0  0  0  0  0  0  0  0  0  0
    4.7621    5.8447  -17.5110 C   0  0  2  0  0  0  0  0  0  0  0  0
    5.1806    0.1667  -20.4946 C   0  0  0  0  0  0  0  0  0  0  0  0
    5.2012    2.4358  -19.2074 C   0  0  1  0  0  0  0  0  0  0  0  0
    4.3675    3.6405  -18.7030 C   0  0  1  0  0  0  0  0  0  0  0  0
    4.8576    7.5668  -19.3018 N   0  0  0  0  0  0  0  0  0  0  0  0
    5.5454    1.6129  -18.0591 N   0  0  0  0  0  0  0  0  0  0  0  0
    5.7614   -3.8645  -16.9693 N   0  0  0  0  0  0  0  0  0  0  0  0
    3.0408    3.2017  -18.2152 N   0  3  0  0  0  0  0  0  0  0  0  0
    7.7343    2.2397  -17.8714 O   0  0  0  0  0  0  0  0  0  0  0  0
    4.7927   -3.1817  -14.9991 O   0  0  0  0  0  0  0  0  0  0  0  0
    6.7137    6.2947  -18.8173 O   0  0  0  0  0  0  0  0  0  0  0  0
    6.3899   11.0971  -23.3278 F   0  0  0  0  0  0  0  0  0  0  0  0
    9.0074   -0.4251  -13.8938 H   0  0  0  0  0  0  0  0  0  0  0  0
    8.6679    1.4281  -15.5200 H   0  0  0  0  0  0  0  0  0  0  0  0
    7.6212   -2.4867  -14.0452 H   0  0  0  0  0  0  0  0  0  0  0  0
    3.4176    9.4425  -20.3234 H   0  0  0  0  0  0  0  0  0  0  0  0
    7.3400    7.6514  -20.5260 H   0  0  0  0  0  0  0  0  0  0  0  0
    4.0557   11.0382  -22.1124 H   0  0  0  0  0  0  0  0  0  0  0  0
    7.9706    9.2542  -22.3163 H   0  0  0  0  0  0  0  0  0  0  0  0
    5.4419   -0.7813  -17.3382 H   0  0  0  0  0  0  0  0  0  0  0  0
    1.9945   -3.4586  -18.4377 H   0  0  0  0  0  0  0  0  0  0  0  0
    2.2854   -3.9677  -16.7399 H   0  0  0  0  0  0  0  0  0  0  0  0
    3.3217   -2.7064  -17.4895 H   0  0  0  0  0  0  0  0  0  0  0  0
    9.5230   -5.3495  -16.6166 H   0  0  0  0  0  0  0  0  0  0  0  0
    9.1914   -3.5842  -16.6106 H   0  0  0  0  0  0  0  0  0  0  0  0
    8.0688   -4.7118  -15.7770 H   0  0  0  0  0  0  0  0  0  0  0  0
    4.6229    5.9728  -15.3507 H   0  0  0  0  0  0  0  0  0  0  0  0
    6.2489    6.3479  -16.0153 H   0  0  0  0  0  0  0  0  0  0  0  0
    4.9170    7.5429  -16.1720 H   0  0  0  0  0  0  0  0  0  0  0  0
    3.3317   -0.8585  -20.9814 H   0  0  0  0  0  0  0  0  0  0  0  0
    4.2341   -0.2359  -22.4042 H   0  0  0  0  0  0  0  0  0  0  0  0
    4.8177   -1.6986  -21.5402 H   0  0  0  0  0  0  0  0  0  0  0  0
    7.1893    0.9987  -20.4428 H   0  0  0  0  0  0  0  0  0  0  0  0
    7.0736   -0.6134  -21.2265 H   0  0  0  0  0  0  0  0  0  0  0  0
    6.4900    0.8494  -22.0905 H   0  0  0  0  0  0  0  0  0  0  0  0
    3.1659   -5.6483  -18.3504 H   0  0  0  0  0  0  0  0  0  0  0  0
    4.2022   -4.3870  -19.1000 H   0  0  0  0  0  0  0  0  0  0  0  0
    8.5944   -4.6078  -18.7991 H   0  0  0  0  0  0  0  0  0  0  0  0
    7.4718   -5.7354  -17.9655 H   0  0  0  0  0  0  0  0  0  0  0  0
    6.1674    4.2080  -17.6151 H   0  0  0  0  0  0  0  0  0  0  0  0
    4.7378    3.8999  -16.5721 H   0  0  0  0  0  0  0  0  0  0  0  0
    4.3787    2.0752  -21.1905 H   0  0  0  0  0  0  0  0  0  0  0  0
    3.4438    1.3248  -19.8528 H   0  0  0  0  0  0  0  0  0  0  0  0
    4.3636   -5.2265  -16.1564 H   0  0  0  0  0  0  0  0  0  0  0  0
    5.4106   -5.8918  -17.4556 H   0  0  0  0  0  0  0  0  0  0  0  0
    7.2411   -2.6774  -17.9122 H   0  0  0  0  0  0  0  0  0  0  0  0
    6.3152   -3.7552  -19.0112 H   0  0  0  0  0  0  0  0  0  0  0  0
    3.6821    5.9861  -17.6647 H   0  0  0  0  0  0  0  0  0  0  0  0
    5.2936   -0.3474  -19.5287 H   0  0  0  0  0  0  0  0  0  0  0  0
    6.1176    2.8177  -19.6811 H   0  0  0  0  0  0  0  0  0  0  0  0
    4.2450    4.3605  -19.5256 H   0  0  0  0  0  0  0  0  0  0  0  0
    3.9045    7.7012  -19.0307 H   0  0  0  0  0  0  0  0  0  0  0  0
    4.8125    1.0858  -17.6291 H   0  0  0  0  0  0  0  0  0  0  0  0
    2.5492    2.7407  -18.9540 H   0  0  0  0  0  0  0  0  0  0  0  0
    3.1596    2.5700  -17.4492 H   0  0  0  0  0  0  0  0  0  0  0  0
    2.5170    3.9979  -17.9125 H   0  0  0  0  0  0  0  0  0  0  0  0
  1  2  1  0  0  0  0
  1  3  2  0  0  0  0
  2  9  2  0  0  0  0
  3 10  1  0  0  0  0
  4  6  2  0  0  0  0
  4 11  1  0  0  0  0
  5  7  1  0  0  0  0
  5 11  2  0  0  0  0
  6 12  1  0  0  0  0
  7 12  2  0  0  0  0
  8  9  1  0  0  0  0
  8 10  2  0  0  0  0
  9 13  1  0  0  0  0
 10 14  1  0  0  0  0
 11 31  1  0  0  0  0
 12 38  1  0  0  0  0
 13 32  1  0  0  0  0
 13 35  2  0  0  0  0
 14 33  1  0  0  0  0
 14 36  2  0  0  0  0
 15 27  1  0  0  0  0
 15 31  1  0  0  0  0
 15 37  2  0  0  0  0
 16 21  1  0  0  0  0
 17 22  1  0  0  0  0
 18 27  1  0  0  0  0
 19 28  1  0  0  0  0
 20 28  1  0  0  0  0
 21 25  1  0  0  0  0
 22 26  1  0  0  0  0
 23 27  1  0  0  0  0
 23 30  1  0  0  0  0
 24 28  1  0  0  0  0
 24 29  1  0  0  0  0
 25 33  1  0  0  0  0
 26 33  1  0  0  0  0
 29 30  1  0  0  0  0
 29 32  1  0  0  0  0
 30 34  1  0  0  0  0
  1 39  1  0  0  0  0
  2 40  1  0  0  0  0
  3 41  1  0  0  0  0
  4 42  1  0  0  0  0
  5 43  1  0  0  0  0
  6 44  1  0  0  0  0
  7 45  1  0  0  0  0
  8 46  1  0  0  0  0
 16 47  1  0  0  0  0
 16 48  1  0  0  0  0
 16 49  1  0  0  0  0
 17 50  1  0  0  0  0
 17 51  1  0  0  0  0
 17 52  1  0  0  0  0
 18 53  1  0  0  0  0
 18 54  1  0  0  0  0
 18 55  1  0  0  0  0
 19 56  1  0  0  0  0
 19 57  1  0  0  0  0
 19 58  1  0  0  0  0
 20 59  1  0  0  0  0
 20 60  1  0  0  0  0
 20 61  1  0  0  0  0
 21 62  1  0  0  0  0
 21 63  1  0  0  0  0
 22 64  1  0  0  0  0
 22 65  1  0  0  0  0
 23 66  1  0  0  0  0
 23 67  1  0  0  0  0
 24 68  1  0  0  0  0
 24 69  1  0  0  0  0
 25 70  1  0  0  0  0
 25 71  1  0  0  0  0
 26 72  1  0  0  0  0
 26 73  1  0  0  0  0
 27 74  1  0  0  0  0
 28 75  1  0  0  0  0
 29 76  1  0  0  0  0
 30 77  1  0  0  0  0
 31 78  1  0  0  0  0
 32 79  1  0  0  0  0
 34 80  1  0  0  0  0
 34 81  1  0  0  0  0
 34 82  1  0  0  0  0
M  CHG  1  34   1
M  END
> <OMEGA_C>
D/8DQVWpAr/yiWrBg84AQTUfCz+IIHnBn83uQEui1r/23mvBtv2MQMJVFkHXDKbB0/3TQAYiBkHt
96bBE3+YQNTLJEH7KK7BzWTfQMyhFEFwFK/BQqDHQEfGN79w5ITB/0/hQFDz4D6bZoTBePzOQEmJ
5L9Uw3vB91yqQNXdBkEiZaLBd6HBQMPfI0GYtbLB0xPaQEjzwD+LJ4zBVcC0QPTPP8AGuH3Bp+aw
QHaj0UD9EpXBxvMwQBDHaMCTYo3BB70LQeuuksDGJoXBXFOlQHMXz0BCVYHBjZKKQKI8OL8jXqvB
orLSQCaxuj5m3KjBTd9uQJUql8BZUJHB4nf9QGRpl8CXgY/BoJOiQN4Ti0BaI4zBAYOOQHkgxD/m
5KHB/7maQFdwoMBoBInBLYPZQDdba8ApNJDBRWOYQMwHu0CDFozBX8elQFq4Kj7Y9KPBZXCmQM/j
G0C/qJnBgsKLQBP+aEDKn5XBi3GbQIMj8kAwaprBPnSxQLlzzj8ieZDBkV24QHhTd8A3wYfBNJxC
QH/oTEDHuJHBmn/3QIVXD0CR+I7B3F2ZQAuhS8B1/G/BcdbWQBVuyUDIiZbBM3rMQJaNMUFLn7rB
WR4QQTKj2b7VTF7Bo68KQbXLtj8RUnjB1uDzQJMlH8A8uWDBGbpaQFwUF0FTlqLBqOHqQH7Y9EAy
NaTB8seBQFmcMEFH5rDB3w7/QCERFEG+h7LBCCSuQHoFSL+5tIrBtUv/P7ZZXcCBgJPBYkQSQEXv
fcBo64XBSpdUQHA2LcCV6ovBMF4YQfAuq8DG7oTB0g8TQdNiZcCa4oTBqxkBQbbGlsCYbnzB7+6T
QHohv0BFnHXBM/fHQDAiy0BgH4DBDVidQNJf8UBNYIHBxTlVQMDEW7/R2afBpX2HQMeLcb64O7PB
USqaQLVs2b9EUqzBkA7mQI2pfz/WiqPBhlriQAgGHb/2z6nB263PQG9wWT9rubDBOJ5KQOq+tMC0
zZLBkHiGQH9ijMDhzJjBvoIJQTFzk8CQZJbBLxnvQH2It8BCuY/BalvFQNenhkDI64zB/puXQF2X
eUCmk4TBRx6MQI3PBEAthqnB4WZcQHuTqT940p7B6KKLQEQ/p8BPQIHBUiOtQNyJvMARpYvBbrfn
QA1aK8AvTI/BfhbKQJhUcMDkFpjB/adrQMqNv0BnUY3BZ2WpQNzbsb65OpzBYMPDQONVNEDNcp3B
4taHQCiJi0BnNJzBiON5QFFw9kDHPpjBWQCaQA/6ij9RCI3BQCYjQOFnL0DioZfBjzdKQPF6JEDk
l4vBThYhQBref0DQTI/B

> <OMEGA_E>
wGNoPg==

> <OMEGA_NBR>
      3253

$$$$
29521
  -OEChem-04172616093D

 83 85  0     1  0  0  0  0  0999 V2000
    6.3343   -1.8352  -21.6377 C   0  0  0  0  0  0  0  0  0  0  0  0
    7.0958   -0.6689  -21.4297 C   0  0  0  0  0  0  0  0  0  0  0  0
    4.9410   -1.8154  -21.4300 C   0  0  0  0  0  0  0  0  0  0  0  0
    8.1549   -0.4719  -14.6668 C   0  0  0  0  0  0  0  0  0  0  0  0
    7.9499    0.5609  -15.6003 C   0  0  0  0  0  0  0  0  0  0  0  0
    7.3968   -1.6558  -14.7472 C   0  0  0  0  0  0  0  0  0  0  0  0
    6.4649    0.5188  -21.0170 C   0  0  0  0  0  0  0  0  0  0  0  0
    4.3091   -0.6321  -21.0035 C   0  0  0  0  0  0  0  0  0  0  0  0
    4.4312    9.3127  -20.8652 C   0  0  0  0  0  0  0  0  0  0  0  0
    6.6509    8.2993  -20.9465 C   0  0  0  0  0  0  0  0  0  0  0  0
    4.8063   10.2184  -21.8720 C   0  0  0  0  0  0  0  0  0  0  0  0
    7.0244    9.2092  -21.9523 C   0  0  0  0  0  0  0  0  0  0  0  0
    6.1959   -0.7596  -16.6696 C   0  0  0  0  0  0  0  0  0  0  0  0
    6.9651    0.4196  -16.6030 C   0  0  0  0  0  0  0  0  0  0  0  0
    6.4309   -1.8067  -15.7631 C   0  0  0  0  0  0  0  0  0  0  0  0
    5.0688    0.5374  -20.7837 C   0  0  0  0  0  0  0  0  0  0  0  0
    5.3448    8.3507  -20.3894 C   0  0  0  0  0  0  0  0  0  0  0  0
    6.1023   10.1655  -22.4170 C   0  0  0  0  0  0  0  0  0  0  0  0
    6.7417    1.4770  -17.5901 C   0  0  0  0  0  0  0  0  0  0  0  0
    5.6527   -3.0470  -15.8737 C   0  0  0  0  0  0  0  0  0  0  0  0
    5.5741    6.5938  -18.6004 C   0  0  0  0  0  0  0  0  0  0  0  0
    8.7544   -4.5704  -16.6234 C   0  0  0  0  0  0  0  0  0  0  0  0
    2.7875   -3.6728  -17.7066 C   0  0  0  0  0  0  0  0  0  0  0  0
    5.1619    6.5108  -16.1318 C   0  0  0  0  0  0  0  0  0  0  0  0
    4.3657    1.8104  -20.3427 C   0  0  0  0  0  0  0  0  0  0  0  0
    7.9542   -4.7511  -17.9217 C   0  0  0  0  0  0  0  0  0  0  0  0
    3.7566   -4.7550  -18.2044 C   0  0  0  0  0  0  0  0  0  0  0  0
    5.0956    4.3914  -17.4905 C   0  0  0  0  0  0  0  0  0  0  0  0
    6.8183   -3.7128  -18.0365 C   0  0  0  0  0  0  0  0  0  0  0  0
    4.8527   -5.0556  -17.1636 C   0  0  0  0  0  0  0  0  0  0  0  0
    4.7873    5.8914  -17.4853 C   0  0  2  0  0  0  0  0  0  0  0  0
    5.1422    2.5422  -19.2226 C   0  0  1  0  0  0  0  0  0  0  0  0
    4.3300    3.7124  -18.6450 C   0  0  1  0  0  0  0  0  0  0  0  0
    4.8686    7.4879  -19.3965 N   0  0  0  0  0  0  0  0  0  0  0  0
    5.4800    1.5888  -18.1613 N   0  0  0  0  0  0  0  0  0  0  0  0
    5.7721   -3.9042  -16.9922 N   0  0  0  0  0  0  0  0  0  0  0  0
    3.0244    3.2498  -18.1237 N   0  3  0  0  0  0  0  0  0  0  0  0
    7.6623    2.2215  -17.9121 O   0  0  0  0  0  0  0  0  0  0  0  0
    4.8511   -3.2880  -14.9776 O   0  0  0  0  0  0  0  0  0  0  0  0
    6.7922    6.4587  -18.6601 O   0  0  0  0  0  0  0  0  0  0  0  0
    6.4576   11.0262  -23.3958 F   0  0  0  0  0  0  0  0  0  0  0  0
    6.8191   -2.7461  -21.9568 H   0  0  0  0  0  0  0  0  0  0  0  0
    8.1642   -0.6863  -21.5871 H   0  0  0  0  0  0  0  0  0  0  0  0
    4.3574   -2.7084  -21.5981 H   0  0  0  0  0  0  0  0  0  0  0  0
    8.8943   -0.3565  -13.8881 H   0  0  0  0  0  0  0  0  0  0  0  0
    8.5449    1.4608  -15.5501 H   0  0  0  0  0  0  0  0  0  0  0  0
    7.5553   -2.4482  -14.0307 H   0  0  0  0  0  0  0  0  0  0  0  0
    7.0467    1.4180  -20.8779 H   0  0  0  0  0  0  0  0  0  0  0  0
    3.2411   -0.6188  -20.8440 H   0  0  0  0  0  0  0  0  0  0  0  0
    3.4341    9.3542  -20.4523 H   0  0  0  0  0  0  0  0  0  0  0  0
    7.3577    7.5609  -20.5975 H   0  0  0  0  0  0  0  0  0  0  0  0
    4.1003   10.9545  -22.2271 H   0  0  0  0  0  0  0  0  0  0  0  0
    8.0203    9.1739  -22.3686 H   0  0  0  0  0  0  0  0  0  0  0  0
    5.4244   -0.8583  -17.4189 H   0  0  0  0  0  0  0  0  0  0  0  0
    9.5530   -5.3255  -16.5762 H   0  0  0  0  0  0  0  0  0  0  0  0
    9.1994   -3.5646  -16.6040 H   0  0  0  0  0  0  0  0  0  0  0  0
    8.0840   -4.6914  -15.7597 H   0  0  0  0  0  0  0  0  0  0  0  0
    2.0213   -3.4852  -18.4732 H   0  0  0  0  0  0  0  0  0  0  0  0
    2.3029   -4.0131  -16.7796 H   0  0  0  0  0  0  0  0  0  0  0  0
    3.3442   -2.7447  -17.5099 H   0  0  0  0  0  0  0  0  0  0  0  0
    4.5995    6.0095  -15.3303 H   0  0  0  0  0  0  0  0  0  0  0  0
    6.2406    6.3846  -15.9569 H   0  0  0  0  0  0  0  0  0  0  0  0
    4.9144    7.5826  -16.1381 H   0  0  0  0  0  0  0  0  0  0  0  0
    4.2727    2.4829  -21.2082 H   0  0  0  0  0  0  0  0  0  0  0  0
    3.3637    1.5519  -19.9698 H   0  0  0  0  0  0  0  0  0  0  0  0
    8.6332   -4.6340  -18.7791 H   0  0  0  0  0  0  0  0  0  0  0  0
    7.5179   -5.7608  -17.9347 H   0  0  0  0  0  0  0  0  0  0  0  0
    3.1906   -5.6770  -18.4036 H   0  0  0  0  0  0  0  0  0  0  0  0
    4.2320   -4.4085  -19.1339 H   0  0  0  0  0  0  0  0  0  0  0  0
    6.1763    4.2398  -17.6282 H   0  0  0  0  0  0  0  0  0  0  0  0
    4.7823    3.9495  -16.5331 H   0  0  0  0  0  0  0  0  0  0  0  0
    7.2468   -2.7055  -17.9281 H   0  0  0  0  0  0  0  0  0  0  0  0
    6.3507   -3.8076  -19.0277 H   0  0  0  0  0  0  0  0  0  0  0  0
    4.3763   -5.2792  -16.1976 H   0  0  0  0  0  0  0  0  0  0  0  0
    5.4323   -5.9289  -17.4974 H   0  0  0  0  0  0  0  0  0  0  0  0
    3.7111    6.0372  -17.6601 H   0  0  0  0  0  0  0  0  0  0  0  0
    6.0695    2.9458  -19.6553 H   0  0  0  0  0  0  0  0  0  0  0  0
    4.1647    4.4536  -19.4408 H   0  0  0  0  0  0  0  0  0  0  0  0
    3.8819    7.5190  -19.2372 H   0  0  0  0  0  0  0  0  0  0  0  0
    4.7584    0.9821  -17.8280 H   0  0  0  0  0  0  0  0  0  0  0  0
    2.5104    2.8055  -18.8575 H   0  0  0  0  0  0  0  0  0  0  0  0
    3.1744    2.5982  -17.3801 H   0  0  0  0  0  0  0  0  0  0  0  0
    2.5060    4.0333  -17.7809 H   0  0  0  0  0  0  0  0  0  0  0  0
  1  2  1  0  0  0  0
  1  3  2  0  0  0  0
  2  7  2  0  0  0  0
  3  8  1  0  0  0  0
  4  5  1  0  0  0  0
  4  6  2  0  0  0  0
  5 14  2  0  0  0  0
  6 15  1  0  0  0  0
  7 16  1  0  0  0  0
  8 16  2  0  0  0  0
  9 11  2  0  0  0  0
  9 17  1  0  0  0  0
 10 12  1  0  0  0  0
 10 17  2  0  0  0  0
 11 18  1  0  0  0  0
 12 18  2  0  0  0  0
 13 14  1  0  0  0  0
 13 15  2  0  0  0  0
 14 19  1  0  0  0  0
 15 20  1  0  0  0  0
 16 25  1  0  0  0  0
 17 34  1  0  0  0  0
 18 41  1  0  0  0  0
 19 35  1  0  0  0  0
 19 38  2  0  0  0  0
 20 36  1  0  0  0  0
 20 39  2  0  0  0  0
 21 31  1  0  0  0  0
 21 34  1  0  0  0  0
 21 40  2  0  0  0  0
 22 26  1  0  0  0  0
 23 27  1  0  0  0  0
 24 31  1  0  0  0  0
 25 32  1  0  0  0  0
 26 29  1  0  0  0  0
 27 30  1  0  0  0  0
 28 31  1  0  0  0  0
 28 33  1  0  0  0  0
 29 36  1  0  0  0  0
 30 36  1  0  0  0  0
 32 33  1  0  0  0  0
 32 35  1  0  0  0  0
 33 37  1  0  0  0  0
  1 42  1  0  0  0  0
  2 43  1  0  0  0  0
  3 44  1  0  0  0  0
  4 45  1  0  0  0  0
  5 46  1  0  0  0  0
  6 47  1  0  0  0  0
  7 48  1  0  0  0  0
  8 49  1  0  0  0  0
  9 50  1  0  0  0  0
 10 51  1  0  0  0  0
 11 52  1  0  0  0  0
 12 53  1  0  0  0  0
 13 54  1  0  0  0  0
 22 55  1  0  0  0  0
 22 56  1  0  0  0  0
 22 57  1  0  0  0  0
 23 58  1  0  0  0  0
 23 59  1  0  0  0  0
 23 60  1  0  0  0  0
 24 61  1  0  0  0  0
 24 62  1  0  0  0  0
 24 63  1  0  0  0  0
 25 64  1  0  0  0  0
 25 65  1  0  0  0  0
 26 66  1  0  0  0  0
 26 67  1  0  0  0  0
 27 68  1  0  0  0  0
 27 69  1  0  0  0  0
 28 70  1  0  0  0  0
 28 71  1  0  0  0  0
 29 72  1  0  0  0  0
 29 73  1  0  0  0  0
 30 74  1  0  0  0  0
 30 75  1  0  0  0  0
 31 76  1  0  0  0  0
 32 77  1  0  0  0  0
 33 78  1  0  0  0  0
 34 79  1  0  0  0  0
 35 80  1  0  0  0  0
 37 81  1  0  0  0  0
 37 82  1  0  0  0  0
 37 83  1  0  0  0  0
M  CHG  1  37   1
M  END
> <OMEGA_C>
m7LKQDvp6r/5Ga3B8hDjQI89K78KcKvBrByeQKRd6L+dcKvBc3oCQWqg8b45q2rBd2X+QOCXDz/K
mnnBvLLsQGbw079x9GvBruDOQHDOBD/XIqjBeOSJQMjRIb8gB6jBZsyNQPkAFUHk66bBiNTUQMnJ
BEF0kqfBNs2ZQLl+I0HN+a7BjMfgQP9YE0FRnq/B8kTGQAlzQr9iW4XBXuLeQGHY1j4L04TBn8nN
QFNC57/HNXzB+TOiQFaRCT8GRabB/wirQI2cBUGCHaPBM0bDQAKmIkHzVbPBOLzXQGgOvT+ZuIzB
mOK0QF4CQ8Cx+n3BRF+yQE4A00CozZTBNRIMQeVAksCp/ITBt2YyQF4Pa8AHp43BgC6lQKRY0EDY
DYHBJ7SLQFy85z/kvaLBlYj+QBwJmMCQX4/BkmtwQP8omMCVopHBzA6jQFeGjEB+7IvBHy/aQGae
bcDLSpDBP0mbQOHHocAAT4nBYzGZQHKGvEDU4YvBq4ykQMmzIkDxx5nBaY+KQOyXbUDsKJXB2sub
QOCc70DzK5vBS1yvQGlfyz9BSpHB6bS4QNfdecDv74fBgY9BQE39T0BP/ZDB2jH1QL8sDkD2S4/B
9zubQDluUsBdpG/BpFnZQNmtzkDQR5XB6KTOQEtrMEGJKrvBrTXaQGq/L8CEp6/BXqACQUGzL79N
sqzBJXCLQA9XLcDryKzB+E4OQSCHtr6iNV7BBrgIQZX7uj8gzXjBrcTxQMKuHMCMfWDByH7hQE6A
tT8BBqfBdG1PQNtrHr+YwKbBCshbQJ2qFUFhnqPB6XHrQAzz8UCwx6TBwDWDQM9FL0Ek0bHBG1MA
QS3IEkHR8rLBAJWtQLe2W7/+WYvBCNkYQUZqqsD1m4TBzTATQcwiZMAW1YTBQFgBQT4glsC+J3zB
hF0BQGkNX8AiyZPBKmITQIVrgMCQPIbBrAdWQBipL8A4FIzBdy+TQL9NwEDDSHXB1LLHQKtOzEB3
T3/BFkOdQKik8kDEGoHB6rmIQGzoHkBuqqnBdkZXQHSlxj8+wp/BsiEKQZVJlMCOO5bBSpLwQG1Y
uMBYeo/BKTNMQMqptcCGOpPBVmyHQNASjcAuEpnBcKTFQEush0B2Bo3B4wiZQH7EfEC+Q4TBK+bn
QKwnLcCwbI/BAjnLQBSvc8C3OJjB5AqMQIfvqMC1lIHBtdWtQJK5vcCs+ovBXoJtQIUwwUDRR43B
IznCQMyIPEAIPp3BlUWFQDmEjkCohpvB03B4QHqb8EDL5ZnBgkSYQKpoez/Wn47B8aogQKaNM0AZ
3JbBhClLQHZJJkB2CovBMmIgQGoQgUA1P47BjODKQGfJ6L+g6KzBFWnjQOnuJ78KOKvBakqeQBh6
5b8pQqvBfxMDQSbY8r5Nn2rBJJH/QFzDET/FYHnBEYztQPtq078892vBrWXPQMCyCD9p5afBUj2K
QKZiG7+k16fBU2aNQMEzFUEd6KbBVyPVQKS/BUGICqfBlHKZQM9+I0HMDK/BihHhQAkPFEFhMa/B
cNDGQG5NOr+4M4XBgcHfQHUi4z4IqITBJjzOQLIm5L/qEnzBabqiQPb6Dj/BDabB9OeqQKo4BkFQ
0aLBDEXDQKjkIkHLNLPBBH3YQOfgwD+XfozBec60QMOaQMCN/n3BUjWxQFoS0kC09pTBnpY1QFCs
a8DyAI7Bzd4LQWknlMB00YTBqxCmQAiI0UBCHoHBf2OMQAvR6j/Fi6LBSZlzQPtAmcCljJHBiiX/
QDGgl8DybI/BXuGhQM+zjEDVc4vBJJmcQDStocAGEonB4hXbQPkJbMDjIpDBK6yYQJPPvEBRu4vB
fe6kQLwsJECrgpnBWjKKQMWsbUBMzJTBLrubQKqf8UBbrprBWRuwQBgVzj8hFJHBVpq5QInXeMDD
x4fBGjhBQIJbTkAqt5DBWMz1QCOVEECNCI/BEiiZQG7hTMAJa3DBP9XWQHbNyEBNh5bBMtHOQAOL
MEGeErvBaETaQLbILsD3eK/BWcwCQXaPLb9ueazBqH2LQI22K8BgnazB7goPQaqRvr6JQ17BVGcJ
QbaCuz9VhHjBUKnyQH0CHcDAq2DB6ybiQLkBtz8ewKbBfBpQQJGkFr8ilqbBIHtaQCOzFUGhwKPB
+hnsQFvA9EB4+6PBOJ6CQCLuLkEcHbLBVpcAQZ6oE0EeYbLB/uitQHptUL8LJ4vBzQUFQLmQYcB2
P5TBZfkVQBbJfsA8g4bBq15ZQKDvL8BstYzBmo8YQc+GrMAEmITBNRATQZlFaMD6KITBGcoAQdpN
mcAJNXzBlI2UQAZhwkBB+3TB6anIQIEpzUAr2H/BxZaeQOXq80AzVYHBfsWJQMqJIEBmeKnB9lhY
QBNDyj8mpJ/BPzBPQCbqtsBi3pLBw0qJQGt9j8CSEJnB18kKQUicksA1F5bBdAfxQFbHt8C/CJDB
ZoLEQDVBh0AqQIzBe6eWQMCFfkCh0YPBgQuNQF5dqMDqWoHB+JevQO6evcBuiYvBQiDpQKT9K8AD
II/BNfzLQHaUcMCsEJjBllJsQFfMwUAx74zBBGXCQJRRP0BT7ZzBzJaEQAC+jkCEGpvBtgR6QB7E
9UBespjBYzmZQAUofj8KdI7Brx4hQB+lMUAZopbB40tLQAqFJEBIy4rBewMfQAm+f0Dn9I3B

> <OMEGA_E>
AJtLPYA8BD0=

> <OMEGA_NBR>
      6159

$$$$
50199280
  -OEChem-04172616093D

 69 74  0     1  0  0  0  0  0999 V2000
   11.3857    1.3043  -23.8362 C   0  0  0  0  0  0  0  0  0  0  0  0
    6.2158   10.0417  -22.3804 C   0  0  0  0  0  0  0  0  0  0  0  0
   10.8818    1.0259  -22.5511 C   0  0  0  0  0  0  0  0  0  0  0  0
   10.8897    2.4012  -24.5705 C   0  0  0  0  0  0  0  0  0  0  0  0
    5.3788    9.2351  -21.5899 C   0  0  0  0  0  0  0  0  0  0  0  0
    7.4490    9.5399  -22.8401 C   0  0  0  0  0  0  0  0  0  0  0  0
    6.5054   -0.5048  -21.6884 C   0  0  0  0  0  0  0  0  0  0  0  0
    5.2555    0.0874  -21.9384 C   0  0  0  0  0  0  0  0  0  0  0  0
    9.8898    1.8500  -21.9970 C   0  0  0  0  0  0  0  0  0  0  0  0
    9.8949    3.2287  -24.0171 C   0  0  0  0  0  0  0  0  0  0  0  0
    5.7710    7.9263  -21.2662 C   0  0  0  0  0  0  0  0  0  0  0  0
    7.8478    8.2291  -22.5147 C   0  0  0  0  0  0  0  0  0  0  0  0
    7.2413   -0.1349  -20.5499 C   0  0  0  0  0  0  0  0  0  0  0  0
    4.7445    1.0553  -21.0540 C   0  0  0  0  0  0  0  0  0  0  0  0
    9.4077    2.9622  -22.7192 C   0  0  0  0  0  0  0  0  0  0  0  0
    7.0003    7.3998  -21.7439 C   0  0  0  0  0  0  0  0  0  0  0  0
    6.7456    0.8437  -19.6627 C   0  0  0  0  0  0  0  0  0  0  0  0
    5.4782    1.4476  -19.9049 C   0  0  0  0  0  0  0  0  0  0  0  0
    5.7589    4.8121  -19.8769 C   0  0  0  0  0  0  0  0  0  0  0  0
    7.5367    1.1292  -18.4018 C   0  0  0  0  0  0  0  0  0  0  0  0
    7.2349    2.5246  -17.8619 C   0  0  0  0  0  0  0  0  0  0  0  0
    5.7239    2.6576  -17.6285 C   0  0  0  0  0  0  0  0  0  0  0  0
    6.9429    3.3669  -22.7318 C   0  0  0  0  0  0  0  0  0  0  0  0
    8.4818    5.3150  -22.2517 C   0  0  0  0  0  0  0  0  0  0  0  0
    5.8600    4.4096  -22.3990 C   0  0  0  0  0  0  0  0  0  0  0  0
    3.5146    4.4877  -18.7671 C   0  0  0  0  0  0  0  0  0  0  0  0
    3.4581    2.1010  -18.5383 C   0  0  0  0  0  0  0  0  0  0  0  0
    8.3024    3.7801  -22.1142 C   0  0  2  0  0  0  0  0  0  0  0  0
    7.4492    6.0089  -21.3015 C   0  0  2  0  0  0  0  0  0  0  0  0
    4.5751    3.8446  -19.6543 C   0  0  2  0  0  0  0  0  0  0  0  0
    4.8821    2.4963  -18.9429 C   0  0  2  0  0  0  0  0  0  0  0  0
    6.2525    5.1253  -21.1599 N   0  0  0  0  0  0  0  0  0  0  0  0
    2.7754    3.3625  -18.1494 N   0  3  0  0  0  0  0  0  0  0  0  0
    6.1902    5.4242  -18.9036 O   0  0  0  0  0  0  0  0  0  0  0  0
   12.1545    0.6757  -24.2608 H   0  0  0  0  0  0  0  0  0  0  0  0
    5.9131   11.0465  -22.6355 H   0  0  0  0  0  0  0  0  0  0  0  0
   11.2575    0.1807  -21.9935 H   0  0  0  0  0  0  0  0  0  0  0  0
   11.2738    2.6066  -25.5588 H   0  0  0  0  0  0  0  0  0  0  0  0
    4.4358    9.6215  -21.2321 H   0  0  0  0  0  0  0  0  0  0  0  0
    8.0915   10.1631  -23.4445 H   0  0  0  0  0  0  0  0  0  0  0  0
    6.8998   -1.2434  -22.3705 H   0  0  0  0  0  0  0  0  0  0  0  0
    4.6868   -0.2005  -22.8102 H   0  0  0  0  0  0  0  0  0  0  0  0
    9.4946    1.6323  -21.0157 H   0  0  0  0  0  0  0  0  0  0  0  0
    9.5063    4.0629  -24.5823 H   0  0  0  0  0  0  0  0  0  0  0  0
    5.1313    7.3139  -20.6480 H   0  0  0  0  0  0  0  0  0  0  0  0
    8.8027    7.8563  -22.8546 H   0  0  0  0  0  0  0  0  0  0  0  0
    8.1942   -0.6034  -20.3525 H   0  0  0  0  0  0  0  0  0  0  0  0
    3.7826    1.5046  -21.2522 H   0  0  0  0  0  0  0  0  0  0  0  0
    7.2728    0.3841  -17.6368 H   0  0  0  0  0  0  0  0  0  0  0  0
    8.6106    1.0572  -18.6286 H   0  0  0  0  0  0  0  0  0  0  0  0
    7.7688    2.6753  -16.9120 H   0  0  0  0  0  0  0  0  0  0  0  0
    7.5628    3.2803  -18.5908 H   0  0  0  0  0  0  0  0  0  0  0  0
    5.4103    1.8820  -16.9144 H   0  0  0  0  0  0  0  0  0  0  0  0
    5.5215    3.6515  -17.2027 H   0  0  0  0  0  0  0  0  0  0  0  0
    6.6423    2.3903  -22.3246 H   0  0  0  0  0  0  0  0  0  0  0  0
    7.0495    3.2917  -23.8240 H   0  0  0  0  0  0  0  0  0  0  0  0
    9.5045    5.5989  -21.9628 H   0  0  0  0  0  0  0  0  0  0  0  0
    8.2963    5.6210  -23.2919 H   0  0  0  0  0  0  0  0  0  0  0  0
    5.7700    5.1271  -23.2279 H   0  0  0  0  0  0  0  0  0  0  0  0
    4.8951    3.9046  -22.2447 H   0  0  0  0  0  0  0  0  0  0  0  0
    3.9876    5.1080  -17.9916 H   0  0  0  0  0  0  0  0  0  0  0  0
    2.8353    5.1086  -19.3696 H   0  0  0  0  0  0  0  0  0  0  0  0
    2.9373    1.6303  -19.3851 H   0  0  0  0  0  0  0  0  0  0  0  0
    3.4826    1.4026  -17.6888 H   0  0  0  0  0  0  0  0  0  0  0  0
    8.2591    3.5495  -21.0395 H   0  0  0  0  0  0  0  0  0  0  0  0
    7.9245    6.1062  -20.3142 H   0  0  0  0  0  0  0  0  0  0  0  0
    4.1238    3.6210  -20.6322 H   0  0  0  0  0  0  0  0  0  0  0  0
    2.7797    3.4586  -17.1540 H   0  0  0  0  0  0  0  0  0  0  0  0
    1.8314    3.3539  -18.4794 H   0  0  0  0  0  0  0  0  0  0  0  0
  1  3  1  0  0  0  0
  1  4  2  0  0  0  0
  2  5  1  0  0  0  0
  2  6  2  0  0  0  0
  3  9  2  0  0  0  0
  4 10  1  0  0  0  0
  5 11  2  0  0  0  0
  6 12  1  0  0  0  0
  7  8  2  0  0  0  0
  7 13  1  0  0  0  0
  8 14  1  0  0  0  0
  9 15  1  0  0  0  0
 10 15  2  0  0  0  0
 11 16  1  0  0  0  0
 12 16  2  0  0  0  0
 13 17  2  0  0  0  0
 14 18  2  0  0  0  0
 15 28  1  0  0  0  0
 16 29  1  0  0  0  0
 17 18  1  0  0  0  0
 17 20  1  0  0  0  0
 18 31  1  0  0  0  0
 19 30  1  0  0  0  0
 19 32  1  0  0  0  0
 19 34  2  0  0  0  0
 20 21  1  0  0  0  0
 21 22  1  0  0  0  0
 22 31  1  0  0  0  0
 23 25  1  0  0  0  0
 23 28  1  0  0  0  0
 24 28  1  0  0  0  0
 24 29  1  0  0  0  0
 25 32  1  0  0  0  0
 26 30  1  0  0  0  0
 26 33  1  0  0  0  0
 27 31  1  0  0  0  0
 27 33  1  0  0  0  0
 29 32  1  0  0  0  0
 30 31  1  0  0  0  0
  1 35  1  0  0  0  0
  2 36  1  0  0  0  0
  3 37  1  0  0  0  0
  4 38  1  0  0  0  0
  5 39  1  0  0  0  0
  6 40  1  0  0  0  0
  7 41  1  0  0  0  0
  8 42  1  0  0  0  0
  9 43  1  0  0  0  0
 10 44  1  0  0  0  0
 11 45  1  0  0  0  0
 12 46  1  0  0  0  0
 13 47  1  0  0  0  0
 14 48  1  0  0  0  0
 20 49  1  0  0  0  0
 20 50  1  0  0  0  0
 21 51  1  0  0  0  0
 21 52  1  0  0  0  0
 22 53  1  0  0  0  0
 22 54  1  0  0  0  0
 23 55  1  0  0  0  0
 23 56  1  0  0  0  0
 24 57  1  0  0  0  0
 24 58  1  0  0  0  0
 25 59  1  0  0  0  0
 25 60  1  0  0  0  0
 26 61  1  0  0  0  0
 26 62  1  0  0  0  0
 27 63  1  0  0  0  0
 27 64  1  0  0  0  0
 28 65  1  0  0  0  0
 29 66  1  0  0  0  0
 30 67  1  0  0  0  0
 33 68  1  0  0  0  0
 33 69  1  0  0  0  0
M  CHG  1  33   1
M  END
> <OMEGA_C>
8Ss2QUbzpj+dsL7BvufGQKyqIEEhC7PB1BsuQfVPgz+2aLTBTDwuQaWtGUB3kMTBFR+sQB/DE0Eb
uKzBlV7uQJejGEF7uLbBSSzQQJ07Ab/Sga3BGy2oQAoWsz3oga/BcDweQb/L7D/V+a/Bd1EeQeCi
TkAfI8DBq6u4QAik/UBEIarBHSH7QEqqA0EsHrTBCbnnQC4YCr42ZqTBo9KXQKwShz+JbqjB9YUW
QYGVPUAFwbXBOgLgQFzL7EBu863B3NvXQKz/Vz8rTZ3BeU2vQNZKuT9OPZ/B0ki4QLb8mUD9A5/B
iCzxQBSIkD/pNpPBTITnQAyTIUAV5Y7BXyq3QBgWKkAuB43BgizeQMF7V0Ci2rXBZ7UHQdMUqkBn
A7LBbIW7QJsbjUAaMbPBku9gQN6aj0AYI5bBLFJdQPd2BkBfTpTBuNYEQQztcUDJ6bDBLWDuQEVJ
wEBzaarBYGeSQAUOdkDwO53BQjqcQGzDH0APi5fB2xTIQHUCpECGR6nBBKAxQNozV0D9MZHBgRbG
QK6SrUCNOpfB83hCQbz8LD8bFsLBBzi9QIi+MEF7FbXBtB40QTAQOT6o8q/BSGE0QZLSJkCCeMzB
efKNQIrxGUFj26nByHYBQQecIkFZjrvB7srcQBEpn7/V9rLBH/qVQOlbTb5Ue7bByekXQf3t0D8/
IKjB0BkYQasDgkCWqMTBwjOkQJgL6kACL6XB/9cMQYBm+0Av1rbBRhsDQUd5Gr/U0aLBiBVyQEOV
wD9zBKrBYbroQGWnxD4zGI3BM8UJQRBShz9hB5XBZZr4QG84K0DTS4fBzQLyQB3xUUDjuZTB3CCt
QMPj8D+iUIfB9q+wQGexaUA6n4nBrI3UQHn6GEC/mLLBgJXhQNWrUkCLl77BhRIYQfcps0DCs6/B
yL0EQSXfs0C4VbrBx6O4QNYQpEDR0rnBeqScQOjkeUAd9bHBAzV/QM50o0DQ7o/B/XQ1QIR5o0Df
9JrBs/w7QMiu0D/CFJvBIeJeQMSGsz+1go3BSSUEQXkqY0DYUKjBOZX9QNZlw0CEg6LBhPaDQNu+
Z0DADqXBOuYxQMRZXUB7O4nB22zqPxinVkDQ1ZPBsX02QeN7qT/l2L7BqL3HQJ91IEGS7rLBfW8u
QXxIhD8VlrTBh2kuQRXoGkD+rcTBxGHvQAdtGEH2ebbBFmWsQMB6E0FizKzBiqLPQCbe9L63oq3B
SX2nQLhW5j3beq/B4GoeQccX7D+gIbDBW1seQeoMT0DnOsDBDcv7QFZkA0G86LPBQ4q4QGLj/EAv
RqrBS6bnQJ/95L1XmKTBwHiXQJ3KiT/AUajBQo0WQcooPUC33rXBrB7gQDwV7EAo8q3BkRXYQJRR
XD8xZ53B6mKvQKlSuz//Lp/BM0m4QLMemkBP357BzevxQEjtkT9yY5PBo1zoQPDzIUBp9o7Bqx64
QBoGKkDS7YzBfRveQAFbVkA+6rXBYJEHQeN5qUCrFrLBeSW7QMH3i0DIBbPBbUBjQKKtj0Cxe5XB
zGJeQM1EBkBy+JPBtswEQfPVcED9/bDBPFruQLSHv0AWbarBQ26SQDDSdkDh6pzBCJecQBgxIECc
XJfBXibIQJ41o0B/LqnBqEswQHDoVkBnTJHBMUnGQJ8krkByLZfB6+VCQUqKND/WQsLBbFe+QDSa
MEFE7bTBnpA0QYaBQT5NKLDB5Y00QRukKEAjkszBVisCQTVwIkF8LrvBPxeOQAatGUEZCKrBHgLc
QPpCm79GKbPBR+uUQJbSMb7SZbbB+BkYQYgNzz/yS6jBdQoYQTc6gkAFt8TBSUQNQYPe+kAzgLbB
JZajQLEi6UAuf6XBpCIDQR4PFL/xI6PBXz1xQEdtwz8UzKnBz+LpQEQuxz7VR43BnhgKQRVbiT/n
UpXBS9b5QFFNK0DcaYfBGnfyQBS0UkB/yZTBjXmuQE/r7z86O4fB2rqxQDNfaUAwcInB8OfUQAAj
F0DhzLLBskjhQNoIU0BVq77BAvUXQa+lskBq2K/BonEEQXlHs0ASZbrBzjS3QEzZokAIo7nBtLKc
QI99dkATmrHBEqaBQGG4oEBD6I7BRCY6QMkapkBT6ZnBFtc9QODlyT+1kZrBuvdgQDM1uD9M7ozB
myoEQaTvYUC3ZajB+9v9QCKnwkCRkKLBFgGDQDlHaUDlpKTBCRAqQDY2XEA3XYnBnrXsP2KwVkAz
spTBKEQ2QSY4qD+d/b7Br27HQOR4IEG7+bLBIScuQZg0GkBB08TBSl4uQbD3gz+jr7TBn97uQEdn
GEFFpLbBSnqsQKiPE0EDs6zBtzjRQHOB8L5YeK3BCeOoQE6h0T3fa6/BHjEeQb+nTkCbV8DBjXoe
QX+b7D+5MLDB03P7QL5lA0H0D7TBV8+4QC8h/UAeJ6rBsqvoQDz9v70UXKTBki+YQJnDhz8YUajB
u4oWQV09PUCZ8LXBoSngQEE97EB98q3BoFDYQHdNXj96MJ3BpYGvQIVeuj+PG5/BV3W4QJvEmUD3
7Z7BlEnxQECjkj9pB5PBRxznQK/vIUDekY7Bnai2QOzTKUBR1IzBAx7eQIv3VkCE9LXBp60HQRyi
qUDoE7LBz1y7QACOjECKH7PBP4BhQMCzj0BB8pXBcs9cQHV6BkCZSZTB7dYEQSgbcUChB7HB/Hzu
QDK3v0Aja6rBkXOSQIstdkAYFp3BHxycQPbUH0AHapfBAz/IQOBso0C6OKnBjZowQDtGV0BeR5HB
DVPGQKqKrUDoLZfBsJNCQZbLMD+2b8LBUOS9QByWMEGR/LTByDE0QSKoJ0BNvszBvIQ0QbfEPz5M
QbDBS8UBQf5dIkFJc7vBiVSOQOfHGUEa16nBhS/eQPVPmb/D97LBMLWWQCJwRr6HYLbBm9QXQWv3
gUCl1cTBYlAYQWV30D8UUKjBtQINQevQ+kCcwrbBfCqkQOd+6UAOQ6XBFrwDQSqOC7/P1aLBqoJy
QCcMwD9b5KnBTe3oQBOOxj6iAI3BANwJQVEoiz8VzJTBlsz3QBPVKkDk5obB48DxQMkfU0CPRpTB
uoasQN+G7z9UL4fBVuGvQHcsaUBUYonBTbDUQMwBGEAezbLBaVfhQKY4U0CktL7BRxAYQRyvskAU
zK/B0aAEQY+Qs0CgYbrBQe+3QJybo0DIt7nBJ6+cQMo/eEBNzbHBUQ+AQAKpokCImI/BIxs3QCFx
pEDYr5rB1yQ8QBQX0D9vF5vB9NxdQDEKtD8td43BlzUEQT71YUAUcajBhuf9QMDTwkCyi6LB482D
QN4CaEDN46TBTcMuQG7qXEAxUInBst3pP90mV0DNK5TBK582QZhyqz9p277BcYDHQOtAIEGjL7PB
/RMuQb+5GkD1vMTBCdQuQYx2hj+sirTBt4isQNl1E0Em2qzBwOHuQB0XGEHX1rbB2ubOQAjf7b70
ya3BUpGmQEqH/D2ObK/Bu9YdQfbeTUB6R8DBpKkeQcuh7D+VELDBds+4QEP8/EB1OarBCmX7QP8b
A0GYL7TBa5bnQKJQy72G26TBO/+WQDdpij9+J6jBflgWQXpbPEBQ2rXB+xngQM3m60DqAK7B9XvY
QBguXj/Qjp3BJYuvQKF1uz8lHZ/BM8q4QCMjmkDtrZ7BCw7zQHpLkj+dppPBY2LpQAJmIUDvAY/B
sTS5QFu6KEBt0ozBDKPdQDnkVUB3x7XBhnsHQZgNqUCwDLLB2Nu6QOzhi0CK1rLBQhNlQL53j0B4
JJXBRqdfQPXXBUBsrZPBPqMEQe4BcEBh6rDB3GbuQN92v0D+Y6rBSgiTQA3UdkCxp5zBxi+dQLDU
H0DkLpfBlDTIQFs8o0D7CKnBdNYvQCWBVkAeeZHBr/PGQPo+rkAwBJfBDS9DQfaxOz8pRsLB2wO+
QCpZMEFQQLXBawE0QR9VKEB1rMzB50Q1QTZvXj5hFrDBlGqOQHy/GUG/AqrBzccBQcz1IUGusbvB
BOjaQEEfmb8GZLPBcoOTQPZcJL7rQ7bBpSMXQT4igUB2z8TBG5UYQSz4zz+eLajBmSukQCON6UBu
SKXB3PQMQXQX+kDI4LbBMzADQeQNEL8MkqPBwgJwQJXVwz8VeanBbNrrQEvZwT5plY3BF5YKQQ3g
iz9Yx5XBDCn7QPHqKUC0fIfBhBjzQDAOU0DtwJTBt/WvQCnR6z8WMIfBONOyQOCYZ0COMonBPGDU
QCC+FkBCp7LBhZ7gQJ2OUkChib7B9ucXQRsbskDp1q/BFVUEQUTBskBcXLrBCMe2QLaxokBAdrnB
F2mcQGSEdkC9WLHBoqeCQJPhnkB7VY7BbM89QFw7p0A6ZJnBVuY/QPo/wz9kGJrBibRiQPCgvD/W
Z4zBahoEQbUuYUApUajB5BX+QPbfwkAEj6LBsk+DQJmjaUCkWqTBr5okQETUW0AgoInBrnLwP4gr
VkCQbpXB

> <OMEGA_E>
YKAXPUBKID1ApSA9oMQlPQ==

> <OMEGA_NBR>
      4705

$$$$
270424
  -OEChem-04172616093D

 68 72  0     1  0  0  0  0  0999 V2000
   11.3445    1.2445  -23.7420 C   0  0  0  0  0  0  0  0  0  0  0  0
   10.8072    0.9742  -22.4686 C   0  0  0  0  0  0  0  0  0  0  0  0
   10.8954    2.3602  -24.4771 C   0  0  0  0  0  0  0  0  0  0  0  0
    6.4897   -0.5352  -21.6875 C   0  0  0  0  0  0  0  0  0  0  0  0
    5.2484    0.0732  -21.9416 C   0  0  0  0  0  0  0  0  0  0  0  0
    9.8355    1.8306  -21.9231 C   0  0  0  0  0  0  0  0  0  0  0  0
    9.9148    3.2133  -23.9368 C   0  0  0  0  0  0  0  0  0  0  0  0
    7.2256   -0.1767  -20.5451 C   0  0  0  0  0  0  0  0  0  0  0  0
    4.7485    1.0495  -21.0601 C   0  0  0  0  0  0  0  0  0  0  0  0
    9.4003    2.9635  -22.6448 C   0  0  0  0  0  0  0  0  0  0  0  0
    6.7388    0.8069  -19.6582 C   0  0  0  0  0  0  0  0  0  0  0  0
    5.4846    1.4338  -19.9096 C   0  0  0  0  0  0  0  0  0  0  0  0
    5.7972    4.8202  -19.9321 C   0  0  0  0  0  0  0  0  0  0  0  0
    7.5218    1.0742  -18.3883 C   0  0  0  0  0  0  0  0  0  0  0  0
    7.2447    2.4769  -17.8525 C   0  0  0  0  0  0  0  0  0  0  0  0
    5.7369    2.6462  -17.6334 C   0  0  0  0  0  0  0  0  0  0  0  0
    6.9470    3.3532  -22.6986 C   0  0  0  0  0  0  0  0  0  0  0  0
    8.4660    5.3413  -22.2549 C   0  0  0  0  0  0  0  0  0  0  0  0
    5.8354    4.3840  -22.4371 C   0  0  0  0  0  0  0  0  0  0  0  0
    3.5742    4.5063  -18.7667 C   0  0  0  0  0  0  0  0  0  0  0  0
    3.4708    2.1180  -18.5546 C   0  0  0  0  0  0  0  0  0  0  0  0
    8.2883    3.8048  -22.0671 C   0  0  2  0  0  0  0  0  0  0  0  0
    4.6122    3.8504  -19.6683 C   0  0  2  0  0  0  0  0  0  0  0  0
    7.3552    6.1088  -21.4545 C   0  0  1  0  0  0  0  0  0  0  0  0
    4.9025    2.4955  -18.9535 C   0  0  2  0  0  0  0  0  0  0  0  0
    5.7935    8.1356  -21.3386 C   0  0  0  0  0  0  0  0  0  0  0  0
    8.0522    8.3915  -22.4071 C   0  0  0  0  0  0  0  0  0  0  0  0
    6.8793    7.4146  -22.1749 C   0  0  0  0  0  0  0  0  0  0  0  0
    6.1930    5.1870  -21.2412 N   0  0  0  0  0  0  0  0  0  0  0  0
    2.7974    3.3889  -18.1787 N   0  3  0  0  0  0  0  0  0  0  0  0
    6.2852    5.4022  -18.9677 O   0  0  0  0  0  0  0  0  0  0  0  0
   12.1022    0.5957  -24.1560 H   0  0  0  0  0  0  0  0  0  0  0  0
   11.1411    0.1107  -21.9125 H   0  0  0  0  0  0  0  0  0  0  0  0
   11.3043    2.5607  -25.4564 H   0  0  0  0  0  0  0  0  0  0  0  0
    6.8775   -1.2775  -22.3693 H   0  0  0  0  0  0  0  0  0  0  0  0
    4.6779   -0.2087  -22.8142 H   0  0  0  0  0  0  0  0  0  0  0  0
    9.4201    1.6214  -20.9484 H   0  0  0  0  0  0  0  0  0  0  0  0
    9.5567    4.0567  -24.5084 H   0  0  0  0  0  0  0  0  0  0  0  0
    8.1714   -0.6580  -20.3445 H   0  0  0  0  0  0  0  0  0  0  0  0
    3.7934    1.5116  -21.2616 H   0  0  0  0  0  0  0  0  0  0  0  0
    7.2324    0.3356  -17.6263 H   0  0  0  0  0  0  0  0  0  0  0  0
    8.5965    0.9780  -18.6026 H   0  0  0  0  0  0  0  0  0  0  0  0
    7.7728    2.6166  -16.8978 H   0  0  0  0  0  0  0  0  0  0  0  0
    7.5967    3.2240  -18.5791 H   0  0  0  0  0  0  0  0  0  0  0  0
    5.3993    1.8828  -16.9169 H   0  0  0  0  0  0  0  0  0  0  0  0
    5.5540    3.6473  -17.2160 H   0  0  0  0  0  0  0  0  0  0  0  0
    6.6515    2.3879  -22.2616 H   0  0  0  0  0  0  0  0  0  0  0  0
    7.0819    3.2384  -23.7842 H   0  0  0  0  0  0  0  0  0  0  0  0
    9.4568    5.6420  -21.8836 H   0  0  0  0  0  0  0  0  0  0  0  0
    8.3837    5.5902  -23.3232 H   0  0  0  0  0  0  0  0  0  0  0  0
    5.7341    5.0464  -23.3093 H   0  0  0  0  0  0  0  0  0  0  0  0
    4.8832    3.8626  -22.2600 H   0  0  0  0  0  0  0  0  0  0  0  0
    4.0666    5.0904  -17.9753 H   0  0  0  0  0  0  0  0  0  0  0  0
    2.9167    5.1647  -19.3533 H   0  0  0  0  0  0  0  0  0  0  0  0
    2.9505    1.6465  -19.4014 H   0  0  0  0  0  0  0  0  0  0  0  0
    3.4829    1.4253  -17.7001 H   0  0  0  0  0  0  0  0  0  0  0  0
    8.2330    3.6059  -20.9867 H   0  0  0  0  0  0  0  0  0  0  0  0
    4.1372    3.6263  -20.6348 H   0  0  0  0  0  0  0  0  0  0  0  0
    7.7723    6.3903  -20.4764 H   0  0  0  0  0  0  0  0  0  0  0  0
    5.4734    9.0488  -21.8615 H   0  0  0  0  0  0  0  0  0  0  0  0
    4.9297    7.4676  -21.2054 H   0  0  0  0  0  0  0  0  0  0  0  0
    6.2059    8.4023  -20.3543 H   0  0  0  0  0  0  0  0  0  0  0  0
    7.6826    9.2952  -22.9137 H   0  0  0  0  0  0  0  0  0  0  0  0
    8.4951    8.6691  -21.4392 H   0  0  0  0  0  0  0  0  0  0  0  0
    8.8150    7.9061  -23.0336 H   0  0  0  0  0  0  0  0  0  0  0  0
    6.4495    7.1392  -23.1493 H   0  0  0  0  0  0  0  0  0  0  0  0
    2.7728    3.4789  -17.1831 H   0  0  0  0  0  0  0  0  0  0  0  0
    1.8640    3.3980  -18.5375 H   0  0  0  0  0  0  0  0  0  0  0  0
  1  2  1  0  0  0  0
  1  3  2  0  0  0  0
  2  6  2  0  0  0  0
  3  7  1  0  0  0  0
  4  5  2  0  0  0  0
  4  8  1  0  0  0  0
  5  9  1  0  0  0  0
  6 10  1  0  0  0  0
  7 10  2  0  0  0  0
  8 11  2  0  0  0  0
  9 12  2  0  0  0  0
 10 22  1  0  0  0  0
 11 12  1  0  0  0  0
 11 14  1  0  0  0  0
 12 25  1  0  0  0  0
 13 23  1  0  0  0  0
 13 29  1  0  0  0  0
 13 31  2  0  0  0  0
 14 15  1  0  0  0  0
 15 16  1  0  0  0  0
 16 25  1  0  0  0  0
 17 19  1  0  0  0  0
 17 22  1  0  0  0  0
 18 22  1  0  0  0  0
 18 24  1  0  0  0  0
 19 29  1  0  0  0  0
 20 23  1  0  0  0  0
 20 30  1  0  0  0  0
 21 25  1  0  0  0  0
 21 30  1  0  0  0  0
 23 25  1  0  0  0  0
 24 28  1  0  0  0  0
 24 29  1  0  0  0  0
 26 28  1  0  0  0  0
 27 28  1  0  0  0  0
  1 32  1  0  0  0  0
  2 33  1  0  0  0  0
  3 34  1  0  0  0  0
  4 35  1  0  0  0  0
  5 36  1  0  0  0  0
  6 37  1  0  0  0  0
  7 38  1  0  0  0  0
  8 39  1  0  0  0  0
  9 40  1  0  0  0  0
 14 41  1  0  0  0  0
 14 42  1  0  0  0  0
 15 43  1  0  0  0  0
 15 44  1  0  0  0  0
 16 45  1  0  0  0  0
 16 46  1  0  0  0  0
 17 47  1  0  0  0  0
 17 48  1  0  0  0  0
 18 49  1  0  0  0  0
 18 50  1  0  0  0  0
 19 51  1  0  0  0  0
 19 52  1  0  0  0  0
 20 53  1  0  0  0  0
 20 54  1  0  0  0  0
 21 55  1  0  0  0  0
 21 56  1  0  0  0  0
 22 57  1  0  0  0  0
 23 58  1  0  0  0  0
 24 59  1  0  0  0  0
 26 60  1  0  0  0  0
 26 61  1  0  0  0  0
 26 62  1  0  0  0  0
 27 63  1  0  0  0  0
 27 64  1  0  0  0  0
 27 65  1  0  0  0  0
 28 66  1  0  0  0  0
 30 67  1  0  0  0  0
 30 68  1  0  0  0  0
M  CHG  1  30   1
M  END
> <OMEGA_C>
HIM1QcFLnz+E773BKeosQTNleT/Hv7PBhlMuQfYMF0AK0cPBN6vPQHICCb/pf63BHPOnQI7+lT1z
iK/BEF4dQQJR6j+CYq/BMKMeQd6mTUCSfr/B4DfnQMzuNL5tXKTBk/OXQK9Vhj8ke6jBkGcWQZSq
PUCQKLXBiaTXQIuTTj8PRJ3BL4KvQN6Ftz/hRp/BAIO5QEk/mkDmdJ/B77LwQNV/iT87G5PBrtTn
QLyEHkD60Y7BapS3QKVaKUBDEY3Bjk3eQCmbVkCjlrXBz3QHQd/rqkAPCrLB3bu6QKxJjEAaf7PB
O8BkQDczkEAzIpbBUyFeQJSMB0Dgb5TB2ZwEQXmBc0B0ibDBKZeTQEVsdkCeWJ3Bal3rQJJ7w0Db
oqvBPeGcQBO3H0DMoJfBEGS5QFQrAkFltarBxdUAQa1DBkGuQbPBIyPcQFZE7UAwZrHBLi3GQAv8
pUDq7anBJwkzQPviWEAJbpHBryDJQA/frEDtvZfBfKJBQb+BGD+FP8HBvkEyQZeq4j3hTK/BRN40
QXbiI0CgpsvBYhTcQOWEo79r9LLBa7GVQEbCVb59g7bBzbgWQd+Jzz89lqfBIOgYQeHQgUA1EcTB
3r0CQWtwKL9ywaLBtMZyQC19wT/KF6rBam/nQJXQqz60Ao3BIIsJQc5eej8j0pTBBbv4QF52J0Ci
LofBbBjzQCtWTkDmoZTBPsesQOYA8T/RVYfBP7qxQE5taUBMuonBsdjUQOzTGEDWF7LB9p7iQFBB
T0ADRr7BJU8XQXCLtECfEa/B1SMGQdPiskD0lbrBuX23QIF8oUCMebrB00KcQFg1d0B4FLLBvCGC
QITkokBjzY/BD6s6QGtFpUB605rButU8QJPA0j8jNpvBTedeQJdxtj/lmY3BgLoDQfzGZkCs5KfB
m2OEQA4WaEALFKXBm7b4QI59zECgz6PB+iWvQBXIEEFr5K7BHsCdQJv27kDApKnBlpbGQKdvBkGb
1aLBhdf1QD25FEFNT7fBwusHQc+0CkF1g6vBMAoNQev+/EDJRLjBrGLOQFd05EDJMbnBeXUxQISm
XkD7donBr5juPxF5WUCzTJTByHc1QZkHmj91EL7ByPgsQebPcz9507PBvwUuQUYNE0CYIMTBpXLP
QMYGD786R63Bh/2nQAhkfD0QZa/B+DUdQT3r5j+8nK/BMiceQd6ISUAt8L/B5yfnQNLzQr5wMaTB
+VOYQLolhz83dajBv/QVQZR4OkAklbXBNQnYQIbtUD//Pp3BtwywQIifuT9sT5/BXwq5QAaDm0A/
RJ/BZnnxQHJKjT/pLpPBZKToQJ7oIEBbDY/Bt3C4QEspK0B8LY3BTyzdQE3/WUC95bXBhjsIQR7F
qUCUKrLB86u7QC0MkEBmdbPBAvZjQI0akECQJ5bB+r9fQC92B0BxWpTBxoUEQZqwcUBL67DB6YaT
QC90d0CIbJ3B26DwQG8fwUDraqrBBGSdQAzbIEB4rZfBWe74QOSLAUFiZbfBe+65QAxAAEGF7KrB
JDvpQGCk8kD/bKzB+S7IQM4bp0D7jKnBY/UyQC8hWEDsf5HBI2LHQFQirkDsZZfBHrdBQRBjDj/h
R8HBzI4yQYkT3D3qOa/B5oA0QZPsHkB3/8vB8IjbQPusqL9HobLB4KuVQIV/Zr5TWrbBgJ4WQTsE
zj9Yx6fBsUYYQR2ffkBioMTBjJgCQWWCLr/Ag6LBxsxzQO4Uwz/UHarB9IHoQGalwD67+YzBk+YJ
QezhgD9A+JTBPeX5QPsNK0DCfIfB43XzQE4aUEDd/pTBaAauQFmn9D8LZofB5ICyQHQ/a0D32YnB
WzPSQFrQHEB0hLLBkMTgQE+ZU0Bjnb7BoNIYQbzSsUDbBrDB7BsFQYiKs0CYebrBOTy6QMu/pkCf
LLrBeBScQGoxgUC3VLLBP4mBQP/MokAKy4/BnWo5QBYRpUDkz5rB4cc+QLErzz+0B5vB18ZhQOxj
uD9/ao3Bz48DQTgAZEDrTKjBD7WEQPgzaUBoNKXBxM//QJhOv0DLfaLBgnbyQB7MEkGpDLjB/8QN
QcJj/UA8I7jBr/rnQLQA8kAU0b3BgfW2QESHEUHXbKzBxZKlQBXd7kDVlrDBP7ivQH1l+UAXsaLB
SvT7QM7KAUFyS6bB9EUwQEI/XkAci4nBsi7vP+KMV0C0fJTB6as1QVqFnj8c7b3BtE0uQSHsFUB/
5MPBkUEtQZhVez/srbPBiBbOQERDC78eh63BK5WmQBKaqz1Ncq/BtpoeQXikTED4mL/BgakdQf0/
6z/4Wq/BtUDmQMR+SL5Wd6TBpVCXQB9FiD98VKjB0oUWQRZuPUCyNrXByYnXQAxITD8RWZ3Bq4Gv
QK4suD8vNJ/BDpu5QLKKmkDDUZ/Bs5rxQDgWiT/fXJPBQmrpQDfKHkDVJY/Bsma5QH7KKUC6D43B
EHPeQNHnVUDHj7XBy2UHQTPAqkCRL7LB1rG6QDOci0AKVLPBVqdmQL0RkEAVpJXBWDdgQMsrB0Dh
65PBOrgEQY9Dc0DAmbDBfc6TQFvedkBlFp3BLY/rQL0jw0DWoqvBzZGdQFcFIEAAcJfBKI66QMlB
AkGORKrBw7cAQSfxBUF6kbPBzu7bQKED7UCnSbHBTXTGQCSQpUBn06nBGSUyQF9kWEAgjJHBrjPJ
QOuirUClrJfBLctBQW2SFj9fOMHBVLY0QVwZIkBMxcvBKcYyQYj2Az5eJ6/BItvZQFeFpb8WA7PB
SOyTQB1CP76qY7bBCMEYQU8NgUAwOsTBNB0XQUKJ0T/bhafBRSkCQQBWMb8z8KLB5atxQCjVxD9g
1anBsMDoQNcbrz7DJ43BhOYJQf4Rdz/tRJXBMDn7QHhkKEAPp4fBQwX0QIoCTkClHJXBmjOvQG8k
8j9LPofBOPWzQInwaUCHs4nBSmPVQO3PF0CWFrLBZHDiQFoIT0A7Q77BflQXQcGYtEAYX6/BTb4F
QaGRskDeubrB98G2QAezoEASTrrBWoCcQFg8dUASxrHBNpiDQMeToECFBI/BMIw+QMoJp0C6CZrB
xok/QNaOyD+mYZrBr9liQKOEvT8luYzBYO8DQSH8ZkDC8afBI/iDQF3baECzv6TBN1P5QE0EzEDP
2KPBIPavQCboEEHwXK7BT+GeQE9z70A76ajBPRvJQAR8BkHpiaLB5zn1QCNsFEHqh7fBgHoIQf1h
CkEP/avBhGwMQXwG/EAPz7jBnc/MQJY85EDg7LjBzgMqQFx+XkAfponBzR/yP8dEWEA3KpXBACU0
QbyAiz/OMr7BApMtQeVbDkB4CcTBF3wrQc76VT9EALTBH9TJQHE2DL8Qz63BN4ejQA1OIT5Fhq/B
n3QeQWpHR0AMqL/B7HQcQTm43D9Hmq/BNGLjQF9Mfr4f4aTB5l2XQAYmmD8rfKjBohsWQSMCOEBj
VbXBbh3XQNxRRD/jq53Bf8WxQPXlxT+2s5/BPfO2QGXEoECQQp/BstHyQPaYgD/x5JPB5i3YQIOy
yj9atorBFCnEQDbAOEAmro7BuETeQL9CW0CkqLXB/DUJQdlIqUAHs7HBwiC9QCbnkEC6MLPBok5m
QNiuj0ANTZXBXgZxQIvWCEAndZLBvg0FQbDYcEBrk7DBxsCTQML0fEB6O53BP/DyQKrOwEBe46nB
7m2iQKjdJ0ASuZfBalkBQcVzAkE7orXBpdu9QBrrAEFiV6vBqj7tQHbc8kADdqvBT6PJQIFNqECK
WanB2h82QL9mU0Ck1pHBrXHCQE7KtkBHpJfBLNc/QQ1E1D4RjsHBUCY0QYpZGkCb4svBV2EwQV7t
Ib1+kq/BmpfTQHnDqL/UWLPBGmSPQMy6vL2WQbbB4EMZQVlofkAWLcTBc7oVQUhlwz+yzafBnU4A
QXOQTL9DhqPBZDlzQHdU2z+FyKnBi30AQRu4TD2QVJHB8jwGQa4v2z8r9JXB1ui+QDuRXz8kbIjB
JNXsQNZO5D+2xIPBcTy0QBfYWEBi74fB05LdQBtYYkB/2ZHBoL/SQKcJHkD8Z7LBMRviQCm1VUDz
YL7BS90ZQS2rsEA1iK/BFzAGQUWFs0B1+7nBUq27QKJvp0D08LnBQ3+dQO0ygkBbArLB2j2DQDvi
nkBUdY7BvZ47QAT/pkCDLJnBjARUQAK1qz/SUpfB8kJ+QAuv4D8KYIrBzfMDQa9wYkDN+qfBTM+D
QPuXbUDb1qTBT8sAQW9qvUB77qHBTiz9QKHPE0GaFLbBFKcSQfeU/kB6VbXBZOj0QOpa9UBpvLzB
S4O8QBVcEkGpeKzB5UWsQEHz8UAk2bHB4TavQEZw+UCLnqPBKwH9QGMXAUFllqTBj7whQKkwW0Bn
UYrBYt0DQEsmSkCGp5bBfNQ1QTb46D/rHMbB/zY0QQiysz8VXbvBHc0nQY8DM0DZLcrB+j7RQMqd
L78c0KrBiqCrQIB9S7zSzq3BkrskQU1P/T8Um7TBA14YQc7KV0C4d8PBvgjmQPQ+sr49OKHBmKSb
QLI5hD9haafBBwEXQf6sPkCKorjBNpXVQKrvKz++mprBGmyxQOgrtz8G+J3BCBq7QOWGm0D55p7B
MjzrQCxtbD/z74/BLILLQGpywz/h6YfBkui6QHb3NEDlvYzB/tnfQPTvUkCw/7TBuMwKQXf2pUBp
grHBZgfBQLXejkCn5rLB8adkQC4EkUBn0ZbBNfFiQCjoCkA/VJPBVRAHQUqVaUB9aLHBSk6VQJp4
d0BIYZ3BWjP4QMVPu0B3I6nBpNKeQBzuI0B785bBukLYQEj++kBHO7TBcKfkQAljAUF8mKDB3ib1
QAvr7ECJ0qrB0ubNQLyupEC+4ajBPQcwQLY8W0AalZLBzm7HQAVfr0DWA5fBkeFBQVKWsT9NP8vB
Od0+QTO3JD/rULjBde0oQS2XRkA3ctLBhifeQI4ru78l4a/ByvaaQK07mL6nBrXBmF4jQakM1D9H
Y6zBaIANQd2zg0CIlcbBUGQBQSZlX78y5p7BcgJ9QLzMxD+LtqnB1nP3QMCn6bxgwozB/AIDQTmh
zz9CGpHB38qwQJy9VD/8jobBurvbQF+E3T+qRoDBB2GnQCR8VkDevIbBiFLWQPROXUCp/I7BZdXU
QJGBGkAZhLDBh/ffQJ9aRECcm73BJJ0bQZnLrECIjK/BXBcHQVS0skAXgLnBYXnCQDSepUBVm7nB
XjCgQG6egkBlF7LB/1aAQA6no0CyOZDBFb49QLUypkAo5JvBYMpFQK2mvj+RM5nBqZJlQOWa1j/5
eIvB4F0JQWE5UkDbL6nBWYaIQE73ZUA1SKXB9LEDQQZutkBfS6HBvx3YQOEPD0EyyLTBTafkQCFp
7UBQvLvBznS3QHVy70AX37LB/bDiQLfDEkGe5qHB8rXEQEhH9kBknp7BdsL6QJIi/ECW85nBjdUK
QW/U+EBsZqzBWd8gQHXOZkAa8orB9Oz0Pz6TVUAo55bB

> <OMEGA_E>
QJeTPuBWlj7AjJM+gCyfPnCP9D4=

> <OMEGA_NBR>
     10414

$$$$
270429
  -OEChem-04172616093D

 68 72  0     1  0  0  0  0  0999 V2000
   11.6548    1.2362  -23.7990 C   0  0  0  0  0  0  0  0  0  0  0  0
   11.3637    2.2845  -24.6934 C   0  0  0  0  0  0  0  0  0  0  0  0
   10.9187    1.1080  -22.6099 C   0  0  0  0  0  0  0  0  0  0  0  0
    5.1999    0.2436  -21.9435 C   0  0  0  0  0  0  0  0  0  0  0  0
   10.3291    3.1972  -24.4049 C   0  0  0  0  0  0  0  0  0  0  0  0
    9.8870    2.0226  -22.3235 C   0  0  0  0  0  0  0  0  0  0  0  0
    4.7125    1.1841  -21.0304 C   0  0  0  0  0  0  0  0  0  0  0  0
    6.4618   -0.3261  -21.7358 C   0  0  0  0  0  0  0  0  0  0  0  0
    9.5767    3.0606  -23.2208 C   0  0  0  0  0  0  0  0  0  0  0  0
    5.4518    1.5100  -19.8665 C   0  0  0  0  0  0  0  0  0  0  0  0
    6.6309    0.7796  -19.5562 C   0  0  0  0  0  0  0  0  0  0  0  0
    7.2140   -0.0321  -20.5727 C   0  0  0  0  0  0  0  0  0  0  0  0
    5.7683    4.8609  -19.9217 C   0  0  0  0  0  0  0  0  0  0  0  0
    7.2499    0.8762  -18.1540 C   0  0  0  0  0  0  0  0  0  0  0  0
    6.3144    1.4819  -17.1205 C   0  0  0  0  0  0  0  0  0  0  0  0
    5.8507    2.8113  -17.6849 C   0  0  0  0  0  0  0  0  0  0  0  0
    8.7593    4.9280  -21.7157 C   0  0  0  0  0  0  0  0  0  0  0  0
    7.1274    3.2133  -22.6691 C   0  0  0  0  0  0  0  0  0  0  0  0
    7.5578    5.8446  -21.4095 C   0  0  0  0  0  0  0  0  0  0  0  0
    5.9789    4.1776  -22.3697 C   0  0  0  0  0  0  0  0  0  0  0  0
    3.5684    4.5143  -18.6548 C   0  0  0  0  0  0  0  0  0  0  0  0
    3.5385    2.1278  -18.3938 C   0  0  0  0  0  0  0  0  0  0  0  0
    8.4308    4.0133  -22.9265 C   0  0  0  0  0  0  0  0  0  0  0  0
    4.5633    3.9027  -19.6282 C   0  0  2  0  0  0  0  0  0  0  0  0
    4.9105    2.5707  -18.9106 C   0  0  2  0  0  0  0  0  0  0  0  0
    8.3728   -2.1474  -19.9822 C   0  0  0  0  0  0  0  0  0  0  0  0
    9.6748   -0.0352  -19.5774 C   0  0  0  0  0  0  0  0  0  0  0  0
    8.5865   -0.7103  -20.4656 C   0  0  0  0  0  0  0  0  0  0  0  0
    6.3513    5.0040  -21.2021 N   0  0  0  0  0  0  0  0  0  0  0  0
    2.7680    3.3705  -18.1474 N   0  3  0  0  0  0  0  0  0  0  0  0
    6.1793    5.5628  -19.0024 O   0  0  0  0  0  0  0  0  0  0  0  0
   12.4420    0.5329  -24.0269 H   0  0  0  0  0  0  0  0  0  0  0  0
   11.9353    2.3893  -25.6037 H   0  0  0  0  0  0  0  0  0  0  0  0
   11.1431    0.3103  -21.9172 H   0  0  0  0  0  0  0  0  0  0  0  0
    4.6082   -0.0407  -22.8011 H   0  0  0  0  0  0  0  0  0  0  0  0
   10.1127    4.0020  -25.0918 H   0  0  0  0  0  0  0  0  0  0  0  0
    9.3278    1.9260  -21.4046 H   0  0  0  0  0  0  0  0  0  0  0  0
    3.7638    1.6664  -21.2141 H   0  0  0  0  0  0  0  0  0  0  0  0
    6.8682   -1.0008  -22.4747 H   0  0  0  0  0  0  0  0  0  0  0  0
    7.5250   -0.1365  -17.8239 H   0  0  0  0  0  0  0  0  0  0  0  0
    8.1537    1.5003  -18.2142 H   0  0  0  0  0  0  0  0  0  0  0  0
    5.4528    0.8189  -16.9532 H   0  0  0  0  0  0  0  0  0  0  0  0
    6.8472    1.6375  -16.1708 H   0  0  0  0  0  0  0  0  0  0  0  0
    5.3030    3.3659  -16.9086 H   0  0  0  0  0  0  0  0  0  0  0  0
    6.7253    3.3964  -18.0055 H   0  0  0  0  0  0  0  0  0  0  0  0
    9.6381    5.5456  -21.9530 H   0  0  0  0  0  0  0  0  0  0  0  0
    8.9761    4.3045  -20.8358 H   0  0  0  0  0  0  0  0  0  0  0  0
    7.2743    2.5423  -21.8099 H   0  0  0  0  0  0  0  0  0  0  0  0
    6.8817    2.6185  -23.5611 H   0  0  0  0  0  0  0  0  0  0  0  0
    7.7615    6.4287  -20.4999 H   0  0  0  0  0  0  0  0  0  0  0  0
    7.3904    6.5286  -22.2546 H   0  0  0  0  0  0  0  0  0  0  0  0
    5.8017    4.8252  -23.2410 H   0  0  0  0  0  0  0  0  0  0  0  0
    5.0653    3.6078  -22.1444 H   0  0  0  0  0  0  0  0  0  0  0  0
    4.0946    5.0139  -17.8280 H   0  0  0  0  0  0  0  0  0  0  0  0
    2.9213    5.2400  -19.1693 H   0  0  0  0  0  0  0  0  0  0  0  0
    3.0300    1.5067  -19.1460 H   0  0  0  0  0  0  0  0  0  0  0  0
    3.6489    1.5563  -17.4604 H   0  0  0  0  0  0  0  0  0  0  0  0
    8.2724    4.6535  -23.8069 H   0  0  0  0  0  0  0  0  0  0  0  0
    4.0533    3.6753  -20.5760 H   0  0  0  0  0  0  0  0  0  0  0  0
    9.3452   -2.6547  -19.8976 H   0  0  0  0  0  0  0  0  0  0  0  0
    7.8797   -2.1339  -18.9990 H   0  0  0  0  0  0  0  0  0  0  0  0
    7.7397   -2.6861  -20.7026 H   0  0  0  0  0  0  0  0  0  0  0  0
   10.5951   -0.6373  -19.6032 H   0  0  0  0  0  0  0  0  0  0  0  0
    9.8863    0.9740  -19.9605 H   0  0  0  0  0  0  0  0  0  0  0  0
    9.3112    0.0344  -18.5416 H   0  0  0  0  0  0  0  0  0  0  0  0
    8.9982   -0.7690  -21.4839 H   0  0  0  0  0  0  0  0  0  0  0  0
    2.6039    3.4794  -17.1670 H   0  0  0  0  0  0  0  0  0  0  0  0
    1.8927    3.3284  -18.6292 H   0  0  0  0  0  0  0  0  0  0  0  0
  1  2  1  0  0  0  0
  1  3  2  0  0  0  0
  2  5  2  0  0  0  0
  3  6  1  0  0  0  0
  4  7  1  0  0  0  0
  4  8  2  0  0  0  0
  5  9  1  0  0  0  0
  6  9  2  0  0  0  0
  7 10  2  0  0  0  0
  8 12  1  0  0  0  0
  9 23  1  0  0  0  0
 10 11  1  0  0  0  0
 10 25  1  0  0  0  0
 11 12  2  0  0  0  0
 11 14  1  0  0  0  0
 12 28  1  0  0  0  0
 13 24  1  0  0  0  0
 13 29  1  0  0  0  0
 13 31  2  0  0  0  0
 14 15  1  0  0  0  0
 15 16  1  0  0  0  0
 16 25  1  0  0  0  0
 17 19  1  0  0  0  0
 17 23  1  0  0  0  0
 18 20  1  0  0  0  0
 18 23  1  0  0  0  0
 19 29  1  0  0  0  0
 20 29  1  0  0  0  0
 21 24  1  0  0  0  0
 21 30  1  0  0  0  0
 22 25  1  0  0  0  0
 22 30  1  0  0  0  0
 24 25  1  0  0  0  0
 26 28  1  0  0  0  0
 27 28  1  0  0  0  0
  1 32  1  0  0  0  0
  2 33  1  0  0  0  0
  3 34  1  0  0  0  0
  4 35  1  0  0  0  0
  5 36  1  0  0  0  0
  6 37  1  0  0  0  0
  7 38  1  0  0  0  0
  8 39  1  0  0  0  0
 14 40  1  0  0  0  0
 14 41  1  0  0  0  0
 15 42  1  0  0  0  0
 15 43  1  0  0  0  0
 16 44  1  0  0  0  0
 16 45  1  0  0  0  0
 17 46  1  0  0  0  0
 17 47  1  0  0  0  0
 18 48  1  0  0  0  0
 18 49  1  0  0  0  0
 19 50  1  0  0  0  0
 19 51  1  0  0  0  0
 20 52  1  0  0  0  0
 20 53  1  0  0  0  0
 21 54  1  0  0  0  0
 21 55  1  0  0  0  0
 22 56  1  0  0  0  0
 22 57  1  0  0  0  0
 23 58  1  0  0  0  0
 24 59  1  0  0  0  0
 26 60  1  0  0  0  0
 26 61  1  0  0  0  0
 26 62  1  0  0  0  0
 27 63  1  0  0  0  0
 27 64  1  0  0  0  0
 27 65  1  0  0  0  0
 28 66  1  0  0  0  0
 30 67  1  0  0  0  0
 30 68  1  0  0  0  0
M  CHG  1  30   1
M  END
> <OMEGA_C>
6Xk6Qcg8nj9OZL7BlNE1Qbw0EkAkjMXB1rIuQdbRjT8A4bTBhWWmQChpeT5IjK/BHEQlQX6eTEBM
PcPBTzEeQYJxAUB/lrLBfsyWQHGQlz82PqjBT8fOQID0pr7S4q3BLToZQRrhQ0A4xLnBUHWuQGBH
wT+O7p7BKzDUQAiSRz8Cc5zBr9jmQGBSA73jlKTBi5W4QNyMm0CwX5/BPP/nQIZLYD9OO5HB1g/K
QMCvvT/d9ojBoTi7QJjsM0Cteo3BKiYMQR6ynUDYua3BURPkQBSnTUA/WrXBetnxQFIHu0CQRqvB
EVO/QBKvhUAN9bLBM2BkQFR1kEDvPJXBKHZiQHstCEB4JpPBl+QGQfxsgEB0abfBpwaSQE/FeUCZ
Bp3BHiOdQJ6GJED8SJfBHfcFQTBvCcCM25/BFMwaQXBHEL2anpzBMmIJQc7XNb+OuaPBJD7LQGIg
oEDxnanBwiYxQMu1V0DVLZHBwLzFQCQCskDzBJjBcBJHQXRrCD8uN8DB5/Y+QWLqGEB21MzBSUoy
QS3inj5xVq/BbXaTQFLQJr2oaLbBh80hQVMQgEALvMjBej4VQSWI9j+xPKvBouFwQPtM1T99tqnB
lMjbQMgZgL8kzLPBaszwQHjCC75ql47BgnUCQWwJwD/BtpHBKH2uQK6lUT83oIfBNhzbQO+a0T/b
XYHBdbKpQHBqV0DoRIfBTzXXQJVeWUAyC5DBtzUaQWp1sUDJn6/BFp4PQaa+iUC7r6bB3sboQOy0
IkC3eq7BsDbcQMeUJ0AwfbzBQl74QB+4zUC6/6PB+n3sQBfq0EBYCbLBLae5QDhomkCE7bnBNhei
QDLmZkDTJ7HBSQeDQBNyoEDYn47BE/c6QAWup0CwWpnBcetBQBfdwD/zKpnBVohpQC40xz/srovB
zVsEQaXplEBudL7BzLSBQIQ3a0CNm6TB2IUVQWjnKcBaLp/Bhib8QCaSCMD//ZfB4qv3QN7pK8Dj
nqXBeYUpQfcjI79I05zBGC4eQd5ZeT8Jr5/BvfoUQUn/DD06VZTBz/gPQYDdRL8a36vBHKYmQN6t
XkDxVYnBAkXyPysEVUCZCJXBvyo4Qc+yvT+lir7B7aEwQRgLDUBTaMfBYoIvQW+J3T+EXbTBPZKm
QAAeVrznQa7BsnIgQb6xSkCcFMbBmNUeQWzTKkBZBrPB+r2VQKrObz9ANKfBfVfNQFJiJL9A16vB
iHUXQULHWkC95rvBxW6sQKbKqD8L3p3B4i/UQPapMT//c5vBTmTjQIjYr77nPKLBLVG+QNblk0D6
TZ7Be8TsQCCIhT+UM5HBCp/iQHSpG0ANBI3B5USyQFJEJUCZ6IvBcrQJQa7/sUAVYbLBd/reQPZQ
d0AoU7rBCN4BQaTwpUC1GafBNVHUQB5CWUCGEK/B7VlmQP8wkEBQYZbBtjtWQDu7CEARMZTBKusF
QVCMj0A0HbvBfAeVQPx+cUAz9ZzBRveZQLZ0G0Bty5bBNcAYQUiTv75EgqXBo5MFQX47JMBBuKLB
rn4GQV/qib9fqJ/BRc7ZQJmej0AoMqfBV/8uQOLJXEB6uJHBsn7HQCk/rUAgKZfB6I1EQdpMPT9q
ir/Bj0M3QSw+AUCZP8/BM6k1QYGHmT8vgK3BK7OVQEPUhL4sibXB7c8aQTE7bkA478zBn7cXQQ8q
NEAZPavBshRuQFpYsT9W5KjBjJraQK94rr+WWrHBimrkQGz/nT5I/orByqEHQeVyfD825JLBo9Tx
QGKrJED0KIXBC9fuQNbwS0AppZLBZYymQPHh5z/5WobBf1arQCERZUDenYjBk1YBQZ1bz0Cp17TB
VQAbQc1AuECU7bHBOVLdQFceQEBpxb/BMD/HQM3Ak0Diw7zB68sNQefHkEDoX6PByU8AQVNfw0Au
VqLBb+eyQF0sQ0Bn3K7Bg6/pQDgDJEBB66zBHmWCQPAGo0BV/o/B5H1AQOqHpUA3iZvB4UA2QFM8
1j80GpvB6Y5RQFGTuz83Po3BkkAGQYzVoEAvx8LBGeaHQCvDY0Cs8KTBHOsnQRQ0Y79mwqPBEbsV
QWY2zL4TLa7BIcEZQbG+Kz/4zqLBTuIUQQ4EQ8C+tKDBIx3xQHGXQ8AiSJ7Bf6ACQew8KsDcXKvB
CmkJQY+hgL+r/5bB7PMqQJuEZECXy4nBYOroPwkHYEC27ZTBt3M7QROwtD/YGsDBw+04QZczsj8q
7bTBip4uQUXYEEAcZMbB70mVQPlCjz6p767BnHgpQSDMDUC6ErDBZG4eQctqQkDtksHBdSiNQG2n
nz80NKfByqW6QKHQ9L6bU67BvmUbQUvuPkBpYrbBtzGrQMIWwj8gA5/BQmHPQJ6XKz89up3BIYbX
QKkzp76yo6XBWW63QEm2nUATfZ/BHuftQExTYD8mM5TBkHTXQN1vxD+OuIrBO03FQJj0NkBbs47B
pPblQAXERUBU4LTB/BEJQZ+zpkD247LBH3rAQG/2gUAxobLBfVfwQKQmvEDVk6vB+gpnQBIskEBa
lJTB/E9wQGAFDED31JDBh7YIQXqya0C8CrHBWcKSQAoDfECappzBkK+gQAYmJ0DD/pbBAWATQZYw
qL6vDKjBm2T/QIkVGMCqCq3BFgkAQWDPl7/cLaXBDHrLQHPenkBeoKnBsF00QOgmVUBnTpHBC/zC
QAXxtkBmipjBHjVHQV9bRj/Q3cPBudRCQYQ1Pz+CFLDBQDIxQU2iFEDa687BQ599QK997z1RXrXB
rmIoQaGbEEAXdafB9FwUQQkAa0DhbcbBvABfQKKE5j/odKfBOb7BQHuYmL/Jj7TBuV/6QGe/0b2V
qpHBpE4EQVs2wj8/wpbBlXW9QMGGYz8GzofBh3fuQL9S2z+bN4TBwHK4QGcdW0A13ofBT/zeQKwX
XECZh5LBjg7gQJ46CUBBorDBVrjnQJ6MOUAaiL3B11AFQUWdrUD8T7vB+QoZQTJOs0CD9bDBOx+6
QCUqlUDy1LnB3bujQOXZXkCfjLDB7kn/QElQxEBD4KPBfqbkQIGB2UCjdK/BYYOEQAEankBOtI3B
Zv49QGGsqEAoRJjBUGVTQFW7pj9hmpTBKzaAQP+g+j8Kd4jBfeMJQQaDYECmX6jBzW2BQK+Xa0C+
B6TBz/QhQTh0cb+uuafBEF8RQWovmT3dLLDBp78UQXJ/AD/TUaLBRKoOQR+ePMBLSazBIxbkQBjo
QcA/K6vBtUT8QAAEAMBARrXBewUCQdY7yb/I/5zBoxwaQAgsX0BiHorBRzUGQKimSUCBqJbBg6o7
QSG2qD+vZr3BhlYzQft5B0CprsXBnaMzQUfquT9f9LLBYhWcQOQ/fj43Tq/BWn0iQZrxQEBQl8PB
ZcoiQSN5FkBa1bDBvZKRQBV4nT+Z2afBr+7AQC9gBL8l2K3BffUZQdjvR0AzLbnBt8usQMHXwD/l
EZ/BSXfQQK1AKT9wCZ3BYbHaQJ2dt757laTBkya4QACwnEBejZ/BR1fsQMczYz+7C5PB1/3SQEhD
wz/v94nBUWjBQNTKNUDVLY7B5kELQZCroUBcJK7BPAzmQBHpSUDefrTBaVfuQCUbvUDXJazBK3q/
QD91gkAFv7LBcQZnQF1XkEAx0pTBE7ZqQNvQCUDR1pHBfNIGQamwgEDWL7fB7aiSQFcAe0CR0pzB
wXifQMHeJUCQKpfBYgcVQVL24L7866XBFuoAQZO3IMDQDqrBrR8BQQ38nr+YDKPB+JzJQBNcoEAM
8anBn0kzQLCjVkDKR5HBhEbFQC5XtEDmbpjByDBIQZaSGj/GEb/BIOE5QUShAkADqM3BfWU6QWqg
XT8kiazBP9KHQGVSpT3bLLbBKhQcQVXIZ0Cd+snBjKAcQZKvHECUzKjBMnZoQDH55D/rx6jBWPzJ
QCHMnr+t2LPBa+X4QD7Wp72WUZDBtpIDQapNxj84K5XBU4+4QEVlXT8+jYfB0wToQK7A2j/IEIPB
rUKyQOr1WEAQkIfB/9/bQKYFXEDxd5HBAJkYQQaOtkD2hrDBvIAPQTKNkEBowKbBoDXsQNHNJEB1
La3BvmvfQCfmHUBAKbvB0r3zQOo10kBLPKXBvoDnQNyc0EBLRbPBvei4QJOXlECNG7rB8DqjQDOA
XkAmn7DBRK6EQEi0nkCPB47B5lU+QCuzqECQoJjBs51LQMhtrz+BpZbBOFV3QDx/4j+ivonBJGID
QQuMkkCskr7BdniBQI94a0CjQKTByFIjQUCLiL9616TBGAEUQRah6L22T67BkiEWQfhn4j4JsKDB
hoMPQbIoRsDQjqjBHJblQA+dR8AjEqjBHUgAQRxSDsDUi7LBShsCQY9+xb9ZmZrBnkMfQACuX0A9
xInBR6sAQNJXT0ATF5bB

> <OMEGA_E>
uAf8Ppz6Gj8cTAc/OK7/Pg==

> <OMEGA_NBR>
     15048

$$$$
270425
  -OEChem-04172616093D

 62 65  0     1  0  0  0  0  0999 V2000
    8.1371    0.9521  -17.6676 C   0  0  0  0  0  0  0  0  0  0  0  0
    7.3647    1.9587  -17.0705 C   0  0  0  0  0  0  0  0  0  0  0  0
    7.7950    0.4655  -18.9387 C   0  0  0  0  0  0  0  0  0  0  0  0
    6.2702    2.5010  -17.7567 C   0  0  0  0  0  0  0  0  0  0  0  0
    6.6513    0.9483  -19.6043 C   0  0  0  0  0  0  0  0  0  0  0  0
    5.8967    2.0180  -19.0367 C   0  0  0  0  0  0  0  0  0  0  0  0
    5.7430    4.8608  -19.9603 C   0  0  0  0  0  0  0  0  0  0  0  0
    6.2243    0.2319  -20.8697 C   0  0  0  0  0  0  0  0  0  0  0  0
    4.7026    0.2965  -21.0470 C   0  0  0  0  0  0  0  0  0  0  0  0
    8.2868    3.8572  -22.3973 C   0  0  0  0  0  0  0  0  0  0  0  0
    6.8686    3.4870  -22.8985 C   0  0  0  0  0  0  0  0  0  0  0  0
    8.4603    5.3961  -22.3814 C   0  0  0  0  0  0  0  0  0  0  0  0
    4.2027    1.7430  -20.9742 C   0  0  0  0  0  0  0  0  0  0  0  0
    5.8200    4.5363  -22.4762 C   0  0  0  0  0  0  0  0  0  0  0  0
    3.6789    4.4884  -18.5306 C   0  0  0  0  0  0  0  0  0  0  0  0
    3.4500    2.1308  -18.5862 C   0  0  0  0  0  0  0  0  0  0  0  0
    4.4216    4.0369  -19.7890 C   0  0  2  0  0  0  0  0  0  0  0  0
    7.4706    6.0704  -21.3649 C   0  0  1  0  0  0  0  0  0  0  0  0
    4.5473    2.4716  -19.6282 C   0  0  1  0  0  0  0  0  0  0  0  0
    8.3728    8.3876  -21.9874 C   0  0  0  0  0  0  0  0  0  0  0  0
    6.1792    7.6794  -22.9748 C   0  0  0  0  0  0  0  0  0  0  0  0
    5.6880    9.3813  -20.7200 C   0  0  0  0  0  0  0  0  0  0  0  0
    7.0833    7.5684  -21.7134 C   0  0  0  0  0  0  0  0  0  0  0  0
    6.2521    5.2124  -21.2311 N   0  0  0  0  0  0  0  0  0  0  0  0
    2.7600    3.3900  -18.2218 N   0  3  0  0  0  0  0  0  0  0  0  0
    6.2683    5.3316  -18.9542 O   0  0  0  0  0  0  0  0  0  0  0  0
    6.3862    8.1143  -20.5437 O   0  0  0  0  0  0  0  0  0  0  0  0
    8.9954    0.5511  -17.1491 H   0  0  0  0  0  0  0  0  0  0  0  0
    7.6135    2.3158  -16.0821 H   0  0  0  0  0  0  0  0  0  0  0  0
    8.4130   -0.2845  -19.4099 H   0  0  0  0  0  0  0  0  0  0  0  0
    5.7017    3.2996  -17.3035 H   0  0  0  0  0  0  0  0  0  0  0  0
    6.7083    0.7088  -21.7347 H   0  0  0  0  0  0  0  0  0  0  0  0
    6.5356   -0.8214  -20.8100 H   0  0  0  0  0  0  0  0  0  0  0  0
    4.4361   -0.1274  -22.0265 H   0  0  0  0  0  0  0  0  0  0  0  0
    4.2223   -0.2907  -20.2504 H   0  0  0  0  0  0  0  0  0  0  0  0
    8.4270    3.4646  -21.3794 H   0  0  0  0  0  0  0  0  0  0  0  0
    9.0371    3.4133  -23.0681 H   0  0  0  0  0  0  0  0  0  0  0  0
    6.8847    3.4217  -23.9964 H   0  0  0  0  0  0  0  0  0  0  0  0
    6.5855    2.5111  -22.4772 H   0  0  0  0  0  0  0  0  0  0  0  0
    9.4931    5.6375  -22.0898 H   0  0  0  0  0  0  0  0  0  0  0  0
    8.2623    5.7897  -23.3893 H   0  0  0  0  0  0  0  0  0  0  0  0
    4.6591    2.3084  -21.8001 H   0  0  0  0  0  0  0  0  0  0  0  0
    3.1093    1.7372  -21.0940 H   0  0  0  0  0  0  0  0  0  0  0  0
    5.7092    5.2828  -23.2763 H   0  0  0  0  0  0  0  0  0  0  0  0
    4.8549    4.0376  -22.3037 H   0  0  0  0  0  0  0  0  0  0  0  0
    4.3838    4.6482  -17.7014 H   0  0  0  0  0  0  0  0  0  0  0  0
    3.1215    5.4172  -18.7222 H   0  0  0  0  0  0  0  0  0  0  0  0
    2.7295    1.4222  -19.0206 H   0  0  0  0  0  0  0  0  0  0  0  0
    3.9096    1.6844  -17.6920 H   0  0  0  0  0  0  0  0  0  0  0  0
    3.7816    4.2360  -20.6612 H   0  0  0  0  0  0  0  0  0  0  0  0
    7.9773    6.0915  -20.3888 H   0  0  0  0  0  0  0  0  0  0  0  0
    8.1035    9.4264  -22.2291 H   0  0  0  0  0  0  0  0  0  0  0  0
    9.0130    8.3735  -21.0930 H   0  0  0  0  0  0  0  0  0  0  0  0
    8.9163    7.9433  -22.8344 H   0  0  0  0  0  0  0  0  0  0  0  0
    5.9444    8.7369  -23.1663 H   0  0  0  0  0  0  0  0  0  0  0  0
    6.7076    7.2583  -23.8428 H   0  0  0  0  0  0  0  0  0  0  0  0
    5.2462    7.1213  -22.8073 H   0  0  0  0  0  0  0  0  0  0  0  0
    5.2125    9.6736  -19.7722 H   0  0  0  0  0  0  0  0  0  0  0  0
    6.4067   10.1567  -21.0240 H   0  0  0  0  0  0  0  0  0  0  0  0
    4.9178    9.2703  -21.4975 H   0  0  0  0  0  0  0  0  0  0  0  0
    2.5397    3.3908  -17.2464 H   0  0  0  0  0  0  0  0  0  0  0  0
    1.9187    3.4866  -18.7536 H   0  0  0  0  0  0  0  0  0  0  0  0
  1  2  2  0  0  0  0
  1  3  1  0  0  0  0
  2  4  1  0  0  0  0
  3  5  2  0  0  0  0
  4  6  2  0  0  0  0
  5  6  1  0  0  0  0
  5  8  1  0  0  0  0
  6 19  1  0  0  0  0
  7 17  1  0  0  0  0
  7 24  1  0  0  0  0
  7 26  2  0  0  0  0
  8  9  1  0  0  0  0
  9 13  1  0  0  0  0
 10 11  1  0  0  0  0
 10 12  1  0  0  0  0
 11 14  1  0  0  0  0
 12 18  1  0  0  0  0
 13 19  1  0  0  0  0
 14 24  1  0  0  0  0
 15 17  1  0  0  0  0
 15 25  1  0  0  0  0
 16 19  1  0  0  0  0
 16 25  1  0  0  0  0
 17 19  1  0  0  0  0
 18 23  1  0  0  0  0
 18 24  1  0  0  0  0
 20 23  1  0  0  0  0
 21 23  1  0  0  0  0
 22 27  1  0  0  0  0
 23 27  1  0  0  0  0
  1 28  1  0  0  0  0
  2 29  1  0  0  0  0
  3 30  1  0  0  0  0
  4 31  1  0  0  0  0
  8 32  1  0  0  0  0
  8 33  1  0  0  0  0
  9 34  1  0  0  0  0
  9 35  1  0  0  0  0
 10 36  1  0  0  0  0
 10 37  1  0  0  0  0
 11 38  1  0  0  0  0
 11 39  1  0  0  0  0
 12 40  1  0  0  0  0
 12 41  1  0  0  0  0
 13 42  1  0  0  0  0
 13 43  1  0  0  0  0
 14 44  1  0  0  0  0
 14 45  1  0  0  0  0
 15 46  1  0  0  0  0
 15 47  1  0  0  0  0
 16 48  1  0  0  0  0
 16 49  1  0  0  0  0
 17 50  1  0  0  0  0
 18 51  1  0  0  0  0
 20 52  1  0  0  0  0
 20 53  1  0  0  0  0
 20 54  1  0  0  0  0
 21 55  1  0  0  0  0
 21 56  1  0  0  0  0
 21 57  1  0  0  0  0
 22 58  1  0  0  0  0
 22 59  1  0  0  0  0
 22 60  1  0  0  0  0
 25 61  1  0  0  0  0
 25 62  1  0  0  0  0
M  CHG  1  25   1
M  END
> <OMEGA_C>
djECQau5cz8/V43BwavrQH62+j9lkIjBfHD5QIpU7j54gpfBJKXIQKYPIEC1DY7BwNfUQDPEcj+n
1ZzBnrG8QAMnAUA0S5jBzsa3QJKLm0DDrp/BIS3HQFRwbT4v9abBb3uWQAbMlz5JYKjBo5YEQT7c
dkC3LbPBcMvbQJ0rX0APMLfBRV0HQSitrEACDbPBinyGQAAZ3z81y6fBqj26QPYokUApz7PBAHNr
QOCgj0CkPpTBiMxcQF1eCEB6sJTB2H2NQHougUD0T57BGA/vQNpAwkBO66rB1IORQIAvHkCKBp3B
HvcFQaEzBkFH5q/BCLzFQAS+9UBdzLfBbwS2QPkZFkGlwqXBb6riQC4w8kAUta3BChHIQLDLpkBR
2anBsKMwQKf1WEBExpHBrpXIQCKcqkA5opfBJFzMQCLUAUFrWaTBV+0PQSEUDT9hMYnBy6HzQLA2
FEAhqIDBjpsGQQenkb5+R5vBH3S2QAYtU0ChbYrBy6rWQNx2NT+f4K3B+CPRQP1JUr/YeqbBxvSN
QAB6Ar4zNrDB0hyHQKbWlL7mAKLBCtUGQdu7XUD6CKvBGJgQQQx0WkB9i7jBgE/cQIf8WkCi+L/B
b7zSQJe2IEA50bPB0eMXQT9mtED/t7DBPzIEQXFFuUA1HbvBdReVQAi8E0CHZq7BLP5GQKFd3j+d
wKjBXbG2QAANqUD2NbrB/VqbQLYzgUDhbbLB7EeMQOa9lEBnnI3BbsdHQIdZrUAMx5XBk68uQHoJ
tj87KpjBBTd6QAWa1z9EiY3BIwVyQD+Nh0AxSqXBBUb/QFLtwkA3HKPB/qcBQX7SFkEr1bHBWjUQ
QeH5BUGLvqjBC6kOQd8v/kDPrLbBsji+QE/KC0GfVLnB/6TWQMpD6ED2vb7B9uCnQAri40BhdbbB
MM2mQCfHGkFjLZ7B5gPNQLWBIkEOMajBBF+dQCZTFEHs+qvBT4oiQG4CWUCV+InBspb1P5AkX0Bu
B5bBLIsDQWE5gz84nY3Bv+ftQOmZAED5rYjBDR77QGpBAj8qn5fBGnjJQI9MIEBp4o3B0V/VQBmC
cz9HrJzBE/68QOGXAEDuC5jBgTq4QCOemkC2kJ/Bzj/HQKgyaT6SuqbBBX2WQM2Akj6Y+6fBbKoE
QXsJeUBCwbPBoijbQLXCYUCwRrfBxSgHQW2urUD2V7PBaLGGQGJQ3j9dgafBBki6QOJVk0Bw0LPB
HrBrQGKgj0BdPJTBKC1dQDyuCEBhaJTBJ9uNQEW4gEB/Np7BxiDwQEERwUCXgKrBP7qRQKyYHUC8
xJzByHHuQHMsA0Hp57bBnIe2QJn2/UBK+6jBiWMWQXo4BUFC3aTBTxHmQGwS80CFmavBp63IQAhk
pkCtrqnBPyYwQGZ7WUAs1JHB0v7IQORwqUCve5fBfab+QHMKBUGhi6PB3dcRQWAnKj/FtonBR5b2
QEunGEAy4IDBkXwHQcwObr5beZvBLJq2QNmkUUBtGIrB5E7WQF/wMz86t63B/VzRQKj9Ur8NQKbB
QYGNQCFHG764vK/BL3mHQAX+k74PfaHBz8oHQacVXkDvxqvBXCkQQYJeXkBMhrnBVGPaQCLAW0C5
CsDBvTrSQI5AJECSn7PB8N4XQbm6tUAYdLHBdOICQcZJu0BMLLvB4IWVQO/uEkCWHa7BLnBHQARj
3j9LgKjBxSC4QDpKrEBL/7nB0a+aQPh3hECns7LBGiaMQGqqlECsi43BkqtIQM14rUDP2ZXBJrkv
QCIYtD9WwJfB65R6QKco3D/oIo3B5EBzQL3WhkAKQKXB1LMAQQF+vUAy46LB6aDmQHxVFEGf2bbB
IywIQeILAUHaBbnBD0faQAXh9UD107zBB16xQKZNEEES26nBHF+hQIun7ECOhq7BQEuvQAtO9EAH
t6DBO7sdQfleDkH7TZ7BXnMcQS1m6UCeu6TBN3kaQXG5DEHVjqzBlCogQEWcWkBlFYrBfbj2P98M
X0BITJbB6/cDQQyMfD9+1I7BVevvQATS/T8Er4nBzxH6QCAQ7D6ap5jBbfXKQMGCH0ARj47BPIfT
QECBZz9OSp3B2JW8QIoy/j9BhpjBls+3QPhumkDjtp/B5ZjCQPAyDz7B7abBkr2RQMpWdD4UiafB
FuMGQdhjfkD4q7LBuf7gQMYOVkBZyrTBjlkGQWEPsUAwTLPBLTeEQHqQ2j9taKfBMnO9QNdwjECl
jrPB/FNrQNK+j0BMUJTBprJdQDVECUBOJZTBSXONQBR4gEDJT57BoEjrQJtyxEBJOqvB4ueQQHDs
HEDv1ZzBy/m7QFie8EAWlbjBwv69QBsDAkGPIqXBYVf2QHSZG0GaKbXBVWXZQBwF8kDXgK7BlWvH
QLilpUBt7qnBQgQwQBX8WUDAw5HBFQ3IQMa3qkB5vZfB4Hn+QD3BBkEWY7DB2Y8SQT2VHz+hOovB
v+j5QOrYFkAB+YHBMIoGQQs3k77vrZzBzjG5QMr9UUD2q4rBD4fQQBJ5ED8aQ67B5NzLQGLwar8M
OqbBtoCGQIBvbr4r+a7BlY6DQNC+jr5moKDBDU8MQedYa0AtparBeTQSQWk2ZkD8sbjB1jHgQLk9
PECU+bzB9ZDbQHftIUC0CK/B8VUWQTCXvUAjXbHBCfYBQbWuukAaebvBAJ+TQBX/DUCGLq7BFn1C
QO3+4D9NU6jBlZG8QLxmoUCen7rBbU2eQCv0eED3nrLBWSiMQOwOlUAorY3BGy5IQC2ErUBI+JXB
JEkwQDoasj/BIJfBiBh9QDJO4j923ozBQThyQO2hhkCTU6XBonn7QAkSyEByd6PBo6SwQA+OCEFo
b7rBySzOQD4E5ECnbL/BXV2gQLK620DA/rbB0GqxQJLZEUH5VafB+jCjQMwm7kDogqPB7ADSQK94
A0GI7p3BUGEKQVI9JEF+IrbBzCznQNh1GUEMCL3Bb+3gQPnaJEF97q/B3tMfQOApXECVB4rBfqD2
P+CZXkA5RJbBaa4KQanXUT8cMZfBzc4CQZJn4j8+6o/Bivz7QIig0T543J/BPHvcQOOjE0AoRpHB
bkbSQDpXaz88OKHB2sHBQIx37z8mxJnBq7G0QHN7lkBiqp/BW1m3QHxPnj7CJqrB6wCKQM5rZT/2
NavBOs8KQVqIfkBGArTB9mHrQMeEcEBY3rnB7wgMQQx5rUC+vq/B1BdvQHTnoz8UPaDBgybGQOXb
eUB6BbLBKjNQQIBxjUB6KZnBQLh/QJ9mJECyQo/BwKCMQOFQcUASp5/BrlruQN7ovUBoAarBTPqS
QJ3wFkAkbZrBRhb8QBg6BkEqUq/B9b3KQK4U4ECyxrrBCEWdQLz5DEGErKvBYSnaQPfc50DqIq/B
Bv/NQIGzmkCw86jBBjE1QPSVW0AgFZHBK+68QHBUq0CemJfBpBG2QNbH9EDWU6jBZn4aQQJwzz5u
H5bB+pYMQb96BUBIQonB1kQEQTlem77siqXB8gnRQO7tQ0BCy4vBUDfIQJra7z7+xLHBF2G0QMYd
Rb8tnqjBXViLQJuN5T+ASrDBGwhqQPk6Fj588q7B7OoLQbWHUUCsQ63BCysYQWo+c0DVj7nBciHo
QNokkEAHSMDBgfTqQAXhL0BqWr3BO1AZQRU4r0Bb/KnBFloPQfzQwkAgi7bBvAguQIJ91j/uYaHB
F2dsQN1twj7jMpvBCjOqQPSoiECofrbBwA2/QDZCOkD9sK7B8zJnQEC6qkAYN5XBLEoaQMVblUDY
dp7BGhZsQBfszT/zu4vBwBOXQI/0Q0Bt84nBtN6BQNNsaEAg9afB6g/4QHXXxkDL2KHBxeTtQPSs
FEH54LLBWj4DQVi8CUFSGafBZ+kLQXwsAUE3HbTBuQm9QNTM/UA7BL7BKgbmQIQZ1kDXvr/BNDyy
QE/QxkCd0brBc3yDQMLtD0Er3qXBxE2yQK4QG0FnEqzBs06PQCP2CUE1nLPBGEwkQD7+eEBSTIrB
8uEDQJodOUCcz5PB

> <OMEGA_E>
RlNWP2JJXj9Ca1M/MlpoPw==

> <OMEGA_NBR>
     19371

$$$$
270426
  -OEChem-04172616093D

 59 63  0     1  0  0  0  0  0999 V2000
   11.3496    1.2528  -23.7231 C   0  0  0  0  0  0  0  0  0  0  0  0
   10.8198    0.9891  -22.4451 C   0  0  0  0  0  0  0  0  0  0  0  0
   10.8764    2.3487  -24.4727 C   0  0  0  0  0  0  0  0  0  0  0  0
    9.8280    1.8295  -21.9110 C   0  0  0  0  0  0  0  0  0  0  0  0
    9.8783    3.1879  -23.9423 C   0  0  0  0  0  0  0  0  0  0  0  0
    4.7556    1.0635  -21.0510 C   0  0  0  0  0  0  0  0  0  0  0  0
    5.2415    0.0727  -21.9228 C   0  0  0  0  0  0  0  0  0  0  0  0
    7.2136   -0.1943  -20.5217 C   0  0  0  0  0  0  0  0  0  0  0  0
    9.3650    2.9404  -22.6486 C   0  0  0  0  0  0  0  0  0  0  0  0
    5.4971    1.4462  -19.9039 C   0  0  0  0  0  0  0  0  0  0  0  0
    6.7433    0.8060  -19.6478 C   0  0  0  0  0  0  0  0  0  0  0  0
    6.4725   -0.5519  -21.6594 C   0  0  0  0  0  0  0  0  0  0  0  0
    5.8053    4.8322  -19.9289 C   0  0  0  0  0  0  0  0  0  0  0  0
    7.5362    1.0786  -18.3860 C   0  0  0  0  0  0  0  0  0  0  0  0
    7.2701    2.4867  -17.8623 C   0  0  0  0  0  0  0  0  0  0  0  0
    5.7648    2.6595  -17.6315 C   0  0  0  0  0  0  0  0  0  0  0  0
    6.9064    3.3967  -22.7431 C   0  0  0  0  0  0  0  0  0  0  0  0
    8.4930    5.3128  -22.1951 C   0  0  0  0  0  0  0  0  0  0  0  0
    5.8105    4.4430  -22.4435 C   0  0  0  0  0  0  0  0  0  0  0  0
    7.3709    6.0975  -21.4550 C   0  0  0  0  0  0  0  0  0  0  0  0
    3.5944    4.5066  -18.7350 C   0  0  0  0  0  0  0  0  0  0  0  0
    3.4928    2.1161  -18.5310 C   0  0  0  0  0  0  0  0  0  0  0  0
    8.2513    3.7818  -22.0711 C   0  0  0  0  0  0  0  0  0  0  0  0
    4.6206    3.8604  -19.6566 C   0  0  2  0  0  0  0  0  0  0  0  0
    4.9192    2.5057  -18.9446 C   0  0  2  0  0  0  0  0  0  0  0  0
    6.1849    5.2187  -21.2379 N   0  0  0  0  0  0  0  0  0  0  0  0
    2.7890    3.3837  -18.1985 N   0  3  0  0  0  0  0  0  0  0  0  0
    6.3139    5.3973  -18.9655 O   0  0  0  0  0  0  0  0  0  0  0  0
    7.0721   -1.7875  -22.7312 Cl  0  0  0  0  0  0  0  0  0  0  0  0
   12.1198    0.6141  -24.1294 H   0  0  0  0  0  0  0  0  0  0  0  0
   11.1750    0.1424  -21.8765 H   0  0  0  0  0  0  0  0  0  0  0  0
   11.2800    2.5447  -25.4551 H   0  0  0  0  0  0  0  0  0  0  0  0
    9.4187    1.6247  -20.9327 H   0  0  0  0  0  0  0  0  0  0  0  0
    9.5055    4.0191  -24.5225 H   0  0  0  0  0  0  0  0  0  0  0  0
    3.8077    1.5381  -21.2572 H   0  0  0  0  0  0  0  0  0  0  0  0
    4.6688   -0.2081  -22.7943 H   0  0  0  0  0  0  0  0  0  0  0  0
    8.1508   -0.6895  -20.3149 H   0  0  0  0  0  0  0  0  0  0  0  0
    7.2473    0.3484  -17.6157 H   0  0  0  0  0  0  0  0  0  0  0  0
    8.6088    0.9742  -18.6064 H   0  0  0  0  0  0  0  0  0  0  0  0
    7.8076    2.6347  -16.9140 H   0  0  0  0  0  0  0  0  0  0  0  0
    7.6171    3.2256  -18.5995 H   0  0  0  0  0  0  0  0  0  0  0  0
    5.4317    1.8993  -16.9096 H   0  0  0  0  0  0  0  0  0  0  0  0
    5.5871    3.6624  -17.2161 H   0  0  0  0  0  0  0  0  0  0  0  0
    6.5817    2.4179  -22.3603 H   0  0  0  0  0  0  0  0  0  0  0  0
    7.0544    3.3342  -23.8313 H   0  0  0  0  0  0  0  0  0  0  0  0
    8.4930    5.5955  -23.2581 H   0  0  0  0  0  0  0  0  0  0  0  0
    9.4665    5.5640  -21.7488 H   0  0  0  0  0  0  0  0  0  0  0  0
    5.7096    5.1243  -23.3012 H   0  0  0  0  0  0  0  0  0  0  0  0
    4.8530    3.9310  -22.2673 H   0  0  0  0  0  0  0  0  0  0  0  0
    7.7503    6.4428  -20.4819 H   0  0  0  0  0  0  0  0  0  0  0  0
    7.0738    6.9656  -22.0617 H   0  0  0  0  0  0  0  0  0  0  0  0
    4.0959    5.0460  -17.9180 H   0  0  0  0  0  0  0  0  0  0  0  0
    2.9565    5.2041  -19.2976 H   0  0  0  0  0  0  0  0  0  0  0  0
    2.9828    1.6045  -19.3605 H   0  0  0  0  0  0  0  0  0  0  0  0
    3.5190    1.4543  -17.6527 H   0  0  0  0  0  0  0  0  0  0  0  0
    8.1663    3.5458  -21.0001 H   0  0  0  0  0  0  0  0  0  0  0  0
    4.1340    3.6390  -20.6179 H   0  0  0  0  0  0  0  0  0  0  0  0
    2.7002    3.4729  -17.2064 H   0  0  0  0  0  0  0  0  0  0  0  0
    1.8804    3.3874  -18.6161 H   0  0  0  0  0  0  0  0  0  0  0  0
  1  2  1  0  0  0  0
  1  3  2  0  0  0  0
  2  4  2  0  0  0  0
  3  5  1  0  0  0  0
  4  9  1  0  0  0  0
  5  9  2  0  0  0  0
  6  7  1  0  0  0  0
  6 10  2  0  0  0  0
  7 12  2  0  0  0  0
  8 11  2  0  0  0  0
  8 12  1  0  0  0  0
  9 23  1  0  0  0  0
 10 11  1  0  0  0  0
 10 25  1  0  0  0  0
 11 14  1  0  0  0  0
 12 29  1  0  0  0  0
 13 24  1  0  0  0  0
 13 26  1  0  0  0  0
 13 28  2  0  0  0  0
 14 15  1  0  0  0  0
 15 16  1  0  0  0  0
 16 25  1  0  0  0  0
 17 19  1  0  0  0  0
 17 23  1  0  0  0  0
 18 20  1  0  0  0  0
 18 23  1  0  0  0  0
 19 26  1  0  0  0  0
 20 26  1  0  0  0  0
 21 24  1  0  0  0  0
 21 27  1  0  0  0  0
 22 25  1  0  0  0  0
 22 27  1  0  0  0  0
 24 25  1  0  0  0  0
  1 30  1  0  0  0  0
  2 31  1  0  0  0  0
  3 32  1  0  0  0  0
  4 33  1  0  0  0  0
  5 34  1  0  0  0  0
  6 35  1  0  0  0  0
  7 36  1  0  0  0  0
  8 37  1  0  0  0  0
 14 38  1  0  0  0  0
 14 39  1  0  0  0  0
 15 40  1  0  0  0  0
 15 41  1  0  0  0  0
 16 42  1  0  0  0  0
 16 43  1  0  0  0  0
 17 44  1  0  0  0  0
 17 45  1  0  0  0  0
 18 46  1  0  0  0  0
 18 47  1  0  0  0  0
 19 48  1  0  0  0  0
 19 49  1  0  0  0  0
 20 50  1  0  0  0  0
 20 51  1  0  0  0  0
 21 52  1  0  0  0  0
 21 53  1  0  0  0  0
 22 54  1  0  0  0  0
 22 55  1  0  0  0  0
 23 56  1  0  0  0  0
 24 57  1  0  0  0  0
 27 58  1  0  0  0  0
 27 59  1  0  0  0  0
M  CHG  1  27   1
M  END
> <OMEGA_C>
xpc1QalboD/SyL3BtB0tQcI2fT+dj7PBxwUuQUpQFkAeyMPBhT8dQW8t6j+nSa/Bew0eQSsHTEDP
ib/BMi6YQFofiD+HaKjBh7qnQGrelD3UYa/B79XmQDT3Rr5hLKTBGtcVQS0wPEBcMLXBcuivQIQb
uT8tO5/Bb8nXQJBWTj+2Lp3BmB7PQCRHDb9oRq3BssS5QGChmkBmbp/BfyjxQO8Oij+RFpPB66To
QJslH0Dq5Y7BWXm4QLc0KkBjDY3BAAHdQOVjWUDP8bXBSOMHQcYCqkCEj7HBVu+5QGYtjkA2jLPB
0N7rQM8ew0DSo6vB/ApmQMY1kEBP4ZXBvIlfQD9uB0BtP5TBHwUEQVAIckCckbDBrtuTQEkRd0Cn
QJ3Bb2qdQFZdIECPjpfBb+rFQI3/pkBC56nBmH4yQL6OWECHlpHBUwvKQEe2rEBauZfBqE7iQPnM
5L+L2bXB4+pBQY03HT8cCcHB2cwyQe3cET4RA6/B8Ho0QQzcIkAKpMvBA7MWQR31zz9DdqfBshYY
QVycgEAWLsTBRLFzQCrhxD+1DqrBKmeVQMYVVb7FWrbB1mkCQTOFML/jhKLBLurnQNNisj7t7IzB
wr0JQaxieT/V2ZTBmNf5QHeeKEDQT4fB5L7zQOJwTkDZy5TBztCtQCMc8z/ZRofB3smyQM9kakCo
uonBR53SQPu+GkDp4bLBPb3hQOdiVUBzpr7BheMHQRgOs0CvELrB9nYXQSMMskCk/a3BQbW2QJL6
o0DNaLrBZUubQBCWe0CEI7LBGgL4QMsrzkD42qPBk1ziQCbm3kBtfrDBmhGDQHB4oUD6V4/BxTY9
QN2HpkByYZrBSuY+QGlfzT9a4prBBThhQPgluj/LOI3BNakCQSPuYkAlAKjB7kmEQCHlaECM8aTB
adAsQPlDXkDOponB26/wP6nLWEDV7ZTBUg81Qa3ShD9z37rBmbEoQfbthT/ZcrHBEDQyQZ7YAkDV
n8LBGWYZQSzMA0DKzK/BMMciQWciQ0B5DMHBKICYQO0Cmj/P/ajBsdqlQAPuRT5fE7DB8IrjQBeF
g75owqTB2h8WQdRvQ0DWtrfBUvywQOFIwj/3xJ/BZPjVQLK2Oz8cf53BLZbLQNe5Br+mAq7BzzG4
QGqXnkD9nJ/BACLwQMO5cj+8cZPBs9TTQOFgvj/ObIrBiGHAQLh6M0D9QY7BV6wJQda0o0ALkK3B
4wveQA49WEAjxLTBmRTtQLtCwkDA1qvBK7S6QCRcjUDgYLPBBhFoQDEbkEAYNZXB6ohqQJWLB0Cp
Q5PBlZwEQS0Lg0Dpm7bBwqOTQGd4e0C2Np3B3ZmgQMwuJUCmzpfBfTPGQH4IqEAfF6rBNOI1QCy3
VUC+fZHBFWPGQHC+s0B5IpjBjUbcQPsV47/nzLbBIr5AQeU2hD7DJ7zB6fEqQWqVjT54fqvBH987
QdPeAkASycnBDSgQQXkKBUBWgKjBgp4gQX1tdEApAsfBJJd2QABe3z+alqrBaBeTQEPM8LwBHLfB
P0QAQUbFT7+QM6PB60f+QPt8GLxA8ZDBzeUEQRX01T9xHZXBOEO6QF0rRD87m4jBMDbnQB941D+9
NYPBxPmuQCBZUUD9lIfBXknaQCQ7XkBQ5JDBmtwXQe6BtkCNza/BmuQMQQZEkkAaF6bBCB3gQFN7
MECqha3BQ7bWQLJtL0DGsrvB/vjyQL2P1kBnzaTBtsnoQKeS1kAB8rLBmFG4QMxVoUCDmbrB6OWb
QAyqekBZ8LHBV/yEQLUvn0C9eo7BnC0+QEzQp0AkEZnBanZKQBqkuT/U/pjB+Tp0QCcqyz/lpovB
L4MDQYvZlEAeLr7BIMqCQNo4bUBbu6TBC4AoQGrwW0DztInBhrD+P6WMUUARpZXBS340QWlxhT+8
87rB5nUxQbnpAkDht8LBTEgoQVakhj+kebHB2w4iQZgnQ0AcFsHB5/0YQT0SBEBBx6/B5lmYQEkF
mD8puajBgo2lQEp7ND4m0K/BE+rjQKBZgr4Ar6TBD6oVQXXEQ0CbqrfBcjuxQBaQwT8hl5/B3X3W
QNp3PD8HaZ3B1o7LQHinCL9I2a3B7Ym4QH2TnkDWgp/B0QjxQNphdT8mb5PBgevUQLvZvj8mWorB
KSDBQBiOM0ALI47BhWYJQf19okACAq3BDwPdQC9JWkDACrXBfmftQP4qwkB0mavBpxO6QMHDjkCw
Y7PBE+RoQGsdkEDrLZXBJ4hrQCoDCEAT/pLBVGkEQcSFg0AKarbBBy6UQLdIe0BaHZ3BwxihQGAs
JUCFo5fBcQPGQNq1qEDr+6nBY3c1QOXuVUDyvJHBxhbHQH9Vs0BmAZjBvhvcQOwQ5L+Kp7bBaTJA
QZKyhz5dQ7zBnfk6QfXEAkA97snB+aYqQac3kT73hKvBAbcfQf0pdEC0EMfB+swPQa8sBUCTdqjB
zOt1QD6J3D9wP6rBNHaSQD3WYL0VxrbBMo0AQeViTb8YM6PBaov/QFhdpzuh9pDB8DYFQaAh2D+l
LJXB+Ii7QFjrQz/+fYjBDX7oQF421T83LIPB0dSvQBgjUUBYbIfBX9naQJycXkD/zZDBjikYQexU
tEClwq7BQ4ULQS/3j0DPmaXBqi7eQIKiL0AEDK7BCs7VQNeQNEAfQLzBxyrzQKiz1kA8maTB7y7q
QFkx1kCwyrLBfrG3QLlTo0DGgbrBNiWbQLfmfUCA+LHBPC6FQLCJnkAXVI7BJyxAQIxaqEA8B5nB
In1MQKc8tT+UfJjBFkN1QBdj0j+vLIvBe8wDQaeSlkDHzr3B+XaDQDumbEDao6TBnEYkQI/OXECC
FIrBixQBQM33UECpSpbB50a7QIRZLEE6PbLBuFvdQBLNJUHf1rjBP8mmQMZtHUGqh6vBZbbpQLot
EEGQGLnBbk6zQDbNB0FGt6vBI6mXQMuMTT/4fqfBm+ymQMAoZb6dJK7BJ7niQCxqFb9qAKLBqWnT
QFjkAEHA87LBfHOtQHL4kT/3653BJb3TQNxD4z7dRJvBmFzMQHpYa79GXqvBsI7HQJGliECI1p7B
FbDqQEwwKT/kuZDBFWDkQATaBECVhIzB0US0QHMYGUAC44vBW0O4QJFPtEAfErTBzJ0AQehpyUCf
6arBhqHGQFx4hUD4sbLBfEgEQS75mEDygqnBxLt3QGfXjkCC25bBtsxYQJDNB0CdnJTBCzjgQHL9
0kAr5rPBF1GbQHA0Z0DeNp3BD1qcQM47EkA77JbBS2jeQLRjhEDGjajBdTI3QODsX0CxvZLBh1TW
QKgPnkB5epfB4o3eQDpZDsCvZbPBlNiwQK7SPEF4UrLBmQTuQCNlMUEWtb3B/HeNQKiUIkErPqbB
My8CQa5CC0G6A77BLXikQBHx+ECQWabBGgx2QFqoqz9Ws6nBTeWVQMrk9L5mYbXBL5//QLIEj78l
8p/BeSHeQDCDVL3dzYrBQo0GQfYE9z4H5pHBA5vyQLorCkAff4TBSAj0QK+RMkAZ8pHB8FmlQAm5
1z/SRIbBUHmwQL+9WkBD2ojBxHinQDrIt0CUwbvByIOiQBX2vEB+f63BhEX1QKi41kCXVaPBB+wP
QTS02EAs+qzBv7CqQP86YEAzULLBQmTbQFN5d0BCX7nB5dQMQeMijECYgLDBnr4NQQwDk0ASPqLB
yjaMQMYRn0AHNJDBADtZQDzSpkDNDJzB+1Y4QFiD1D/ufZvBgxlPQLDBvz9Dd43Br9XwQLXxzkA8
l7vBLGyNQOh+WkBlJKXB6QAuQCtfaUCa6YrBRJr/Py2sZ0DuoJbB

> <OMEGA_E>
8AGdPpDLnj5suZw+8scxPw==

> <OMEGA_NBR>
     23538

$$$$
270428
  -OEChem-04172616093D

 56 60  0     1  0  0  0  0  0999 V2000
   11.6618    1.1256  -24.1781 C   0  0  0  0  0  0  0  0  0  0  0  0
   10.7711    1.6947  -25.1093 C   0  0  0  0  0  0  0  0  0  0  0  0
   11.5305    1.4220  -22.8081 C   0  0  0  0  0  0  0  0  0  0  0  0
    9.7632    2.5784  -24.6736 C   0  0  0  0  0  0  0  0  0  0  0  0
   10.5174    2.2955  -22.3681 C   0  0  0  0  0  0  0  0  0  0  0  0
    4.9038    0.9272  -21.0732 C   0  0  0  0  0  0  0  0  0  0  0  0
    5.7257    0.0571  -21.8267 C   0  0  0  0  0  0  0  0  0  0  0  0
    7.5827    0.4023  -20.2531 C   0  0  0  0  0  0  0  0  0  0  0  0
    9.6433    2.9090  -23.3036 C   0  0  0  0  0  0  0  0  0  0  0  0
    5.4444    1.5262  -19.9188 C   0  0  0  0  0  0  0  0  0  0  0  0
    6.7710    1.2733  -19.5018 C   0  0  0  0  0  0  0  0  0  0  0  0
    7.0595   -0.2031  -21.4192 C   0  0  0  0  0  0  0  0  0  0  0  0
    5.7751    4.7817  -19.7929 C   0  0  0  0  0  0  0  0  0  0  0  0
    7.0613    2.1178  -18.2817 C   0  0  0  0  0  0  0  0  0  0  0  0
    5.6844    2.4975  -17.7326 C   0  0  0  0  0  0  0  0  0  0  0  0
    8.8864    4.6485  -21.5623 C   0  0  0  0  0  0  0  0  0  0  0  0
    7.2128    3.1112  -22.6944 C   0  0  0  0  0  0  0  0  0  0  0  0
    7.7353    5.5863  -21.1667 C   0  0  0  0  0  0  0  0  0  0  0  0
    6.0781    4.0424  -22.2274 C   0  0  0  0  0  0  0  0  0  0  0  0
    3.5141    4.5188  -18.5920 C   0  0  0  0  0  0  0  0  0  0  0  0
    3.3403    2.1113  -18.5682 C   0  0  0  0  0  0  0  0  0  0  0  0
    8.5378    3.8785  -22.8710 C   0  0  0  0  0  0  0  0  0  0  0  0
    4.5063    3.9083  -19.5887 C   0  0  2  0  0  0  0  0  0  0  0  0
    4.7633    2.5103  -18.9779 C   0  0  2  0  0  0  0  0  0  0  0  0
    6.4973    4.7872  -21.0103 N   0  0  0  0  0  0  0  0  0  0  0  0
    2.6920    3.3752  -18.1001 N   0  3  0  0  0  0  0  0  0  0  0  0
    6.1601    5.4683  -18.8499 O   0  0  0  0  0  0  0  0  0  0  0  0
    8.1834   -1.3208  -22.4826 Br  0  0  0  0  0  0  0  0  0  0  0  0
   12.4448    0.4623  -24.5149 H   0  0  0  0  0  0  0  0  0  0  0  0
   10.8606    1.4536  -26.1582 H   0  0  0  0  0  0  0  0  0  0  0  0
   12.2080    0.9788  -22.0933 H   0  0  0  0  0  0  0  0  0  0  0  0
    9.0780    3.0060  -25.3906 H   0  0  0  0  0  0  0  0  0  0  0  0
   10.4048    2.4998  -21.3136 H   0  0  0  0  0  0  0  0  0  0  0  0
    3.8866    1.1273  -21.3756 H   0  0  0  0  0  0  0  0  0  0  0  0
    5.3356   -0.4120  -22.7178 H   0  0  0  0  0  0  0  0  0  0  0  0
    8.5964    0.1981  -19.9415 H   0  0  0  0  0  0  0  0  0  0  0  0
    7.6297    1.5409  -17.5373 H   0  0  0  0  0  0  0  0  0  0  0  0
    7.6293    3.0179  -18.5596 H   0  0  0  0  0  0  0  0  0  0  0  0
    5.3386    1.7532  -17.0002 H   0  0  0  0  0  0  0  0  0  0  0  0
    5.7140    3.4905  -17.2601 H   0  0  0  0  0  0  0  0  0  0  0  0
    9.7981    5.2425  -21.7237 H   0  0  0  0  0  0  0  0  0  0  0  0
    9.0589    3.9251  -20.7517 H   0  0  0  0  0  0  0  0  0  0  0  0
    7.3559    2.3188  -21.9450 H   0  0  0  0  0  0  0  0  0  0  0  0
    6.9307    2.6591  -23.6567 H   0  0  0  0  0  0  0  0  0  0  0  0
    7.9755    6.0850  -20.2161 H   0  0  0  0  0  0  0  0  0  0  0  0
    7.5895    6.3433  -21.9513 H   0  0  0  0  0  0  0  0  0  0  0  0
    5.8416    4.7581  -23.0285 H   0  0  0  0  0  0  0  0  0  0  0  0
    5.1858    3.4418  -21.9972 H   0  0  0  0  0  0  0  0  0  0  0  0
    4.0503    4.9943  -17.7575 H   0  0  0  0  0  0  0  0  0  0  0  0
    2.8771    5.2642  -19.0906 H   0  0  0  0  0  0  0  0  0  0  0  0
    2.7950    1.6947  -19.4279 H   0  0  0  0  0  0  0  0  0  0  0  0
    3.3673    1.3693  -17.7567 H   0  0  0  0  0  0  0  0  0  0  0  0
    8.3988    4.6197  -23.6718 H   0  0  0  0  0  0  0  0  0  0  0  0
    4.0050    3.7831  -20.5598 H   0  0  0  0  0  0  0  0  0  0  0  0
    2.6544    3.3883  -17.1009 H   0  0  0  0  0  0  0  0  0  0  0  0
    1.7650    3.4390  -18.4695 H   0  0  0  0  0  0  0  0  0  0  0  0
  1  2  1  0  0  0  0
  1  3  2  0  0  0  0
  2  4  2  0  0  0  0
  3  5  1  0  0  0  0
  4  9  1  0  0  0  0
  5  9  2  0  0  0  0
  6  7  1  0  0  0  0
  6 10  2  0  0  0  0
  7 12  2  0  0  0  0
  8 11  2  0  0  0  0
  8 12  1  0  0  0  0
  9 22  1  0  0  0  0
 10 11  1  0  0  0  0
 10 24  1  0  0  0  0
 11 14  1  0  0  0  0
 12 28  1  0  0  0  0
 13 23  1  0  0  0  0
 13 25  1  0  0  0  0
 13 27  2  0  0  0  0
 14 15  1  0  0  0  0
 15 24  1  0  0  0  0
 16 18  1  0  0  0  0
 16 22  1  0  0  0  0
 17 19  1  0  0  0  0
 17 22  1  0  0  0  0
 18 25  1  0  0  0  0
 19 25  1  0  0  0  0
 20 23  1  0  0  0  0
 20 26  1  0  0  0  0
 21 24  1  0  0  0  0
 21 26  1  0  0  0  0
 23 24  1  0  0  0  0
  1 29  1  0  0  0  0
  2 30  1  0  0  0  0
  3 31  1  0  0  0  0
  4 32  1  0  0  0  0
  5 33  1  0  0  0  0
  6 34  1  0  0  0  0
  7 35  1  0  0  0  0
  8 36  1  0  0  0  0
 14 37  1  0  0  0  0
 14 38  1  0  0  0  0
 15 39  1  0  0  0  0
 15 40  1  0  0  0  0
 16 41  1  0  0  0  0
 16 42  1  0  0  0  0
 17 43  1  0  0  0  0
 17 44  1  0  0  0  0
 18 45  1  0  0  0  0
 18 46  1  0  0  0  0
 19 47  1  0  0  0  0
 19 48  1  0  0  0  0
 20 49  1  0  0  0  0
 20 50  1  0  0  0  0
 21 51  1  0  0  0  0
 21 52  1  0  0  0  0
 22 53  1  0  0  0  0
 23 54  1  0  0  0  0
 26 55  1  0  0  0  0
 26 56  1  0  0  0  0
M  CHG  1  26   1
M  END
> <OMEGA_C>
45Y6QTYSkD/HbMHBc1YsQeHq2D/J38jBDn04QT4Ftj/1drbBLDYcQewEJUCEY8XBXkcoQeTpEkDn
8bLBQuycQDtabT/llajB1zi3QNoEaj0tna7BmaXyQPz6zT5VBqLBzEoaQWktOkDIbbrBdTiuQAxZ
wz+cWZ/BJKzYQFn7oj+uA5zBzufhQNbvT76HWqvB8c24QNUDmUD0V57BAfbhQGWKB0DlQJLBgua1
QJnXH0Ba3I3B1y4OQWLAlECSf6zB887mQPsdR0AbjrXB6of3QJ/CskBOVanBaH/CQLBbgUCf0bHB
v+ZgQCiakEBWvJTBicdVQPUfB0DDi5TB85oIQUQ5eEDG97bBtTOQQGchekC5tZzB3GyYQJKoIEC0
0pfBg+nPQK4wmUAAFajBU0osQGYDWEAIzZDBNh/FQIj8rkCWzJbBTe8CQUsPqb9z3LPBFB5HQTq2
7D6IHsTB58QtQRgOuj8ARNHB/1NDQeOPej8Pv7DBkT8RQRhiQEDsH8vBHXomQQz9H0BGgqrBS714
QM9MkD89AavB1byqQGz30r4ovrXBCIsJQUDmSj4/iJ/BHCb0QJY6xT93TIzBQyP0QPMkQUAXepTB
jtWqQFVo4D96AIjBOdm2QM5jX0DHFIrB38QcQajCp0A1yq3BP/EQQTo1e0CLA6bBj2PrQC5nFEBV
j6/BPsjdQHgvKkD2QL3BIjf/QPS3wkB8uqHBjt3yQFH8ykA1nK/BQu66QIhCmEBvOrjBxvGlQKlF
XEAt+q/BNZyBQP7Qn0BDD47BrSI4QEt0qECjuZjBuOAyQHnt2D9pbJvBSYJXQCRFrz+lDY7BSmEG
QUvUk0DfX73BWCmAQJ0eckCReqTBJeEpQPfZWECpzojBAurhP+wYXECJwZPB

> <OMEGA_E>
9OEdPw==

> <OMEGA_NBR>
     24777

$$$$
270431
  -OEChem-04172616093D

 65 69  0     1  0  0  0  0  0999 V2000
   11.4015    1.0488  -23.4372 C   0  0  0  0  0  0  0  0  0  0  0  0
   11.1683    2.0355  -24.4154 C   0  0  0  0  0  0  0  0  0  0  0  0
   10.6594    1.0531  -22.2397 C   0  0  0  0  0  0  0  0  0  0  0  0
   10.1801    3.0152  -24.2073 C   0  0  0  0  0  0  0  0  0  0  0  0
    9.6811    2.0422  -22.0228 C   0  0  0  0  0  0  0  0  0  0  0  0
    4.6620    1.2416  -20.9927 C   0  0  0  0  0  0  0  0  0  0  0  0
    5.0981    0.3418  -21.9693 C   0  0  0  0  0  0  0  0  0  0  0  0
    7.1489   -0.0311  -20.7014 C   0  0  0  0  0  0  0  0  0  0  0  0
    9.4228    3.0171  -23.0176 C   0  0  0  0  0  0  0  0  0  0  0  0
    5.4870    1.5491  -19.8838 C   0  0  0  0  0  0  0  0  0  0  0  0
    6.6975    0.8303  -19.6960 C   0  0  0  0  0  0  0  0  0  0  0  0
    6.3624   -0.2591  -21.8432 C   0  0  0  0  0  0  0  0  0  0  0  0
    5.7605    4.9235  -19.9197 C   0  0  0  0  0  0  0  0  0  0  0  0
    7.5478    0.9881  -18.4531 C   0  0  0  0  0  0  0  0  0  0  0  0
    6.6964    1.4930  -17.2853 C   0  0  0  0  0  0  0  0  0  0  0  0
    6.0562    2.8116  -17.7235 C   0  0  0  0  0  0  0  0  0  0  0  0
    8.6192    5.0342  -21.7008 C   0  0  0  0  0  0  0  0  0  0  0  0
    6.9708    3.2958  -22.6200 C   0  0  0  0  0  0  0  0  0  0  0  0
    7.4206    5.9816  -21.4859 C   0  0  0  0  0  0  0  0  0  0  0  0
    5.8435    4.3044  -22.3903 C   0  0  0  0  0  0  0  0  0  0  0  0
    3.6114    4.4903  -18.5949 C   0  0  0  0  0  0  0  0  0  0  0  0
    3.6858    2.1242  -18.2574 C   0  0  0  0  0  0  0  0  0  0  0  0
    8.3095    4.0365  -22.8514 C   0  0  0  0  0  0  0  0  0  0  0  0
    4.6091    3.9229  -19.5782 C   0  0  2  0  0  0  0  0  0  0  0  0
    5.0172    2.5884  -18.8787 C   0  0  2  0  0  0  0  0  0  0  0  0
    6.7755   -2.6528  -22.2464 C   0  0  0  0  0  0  0  0  0  0  0  0
    6.8315   -1.2500  -22.8654 C   0  0  0  0  0  0  0  0  0  0  0  0
    6.2158    5.1551  -21.2405 N   0  0  0  0  0  0  0  0  0  0  0  0
    2.7978    3.3162  -18.2079 N   0  3  0  0  0  0  0  0  0  0  0  0
    6.2181    5.6043  -19.0070 O   0  0  0  0  0  0  0  0  0  0  0  0
   12.1498    0.2885  -23.6055 H   0  0  0  0  0  0  0  0  0  0  0  0
   11.7488    2.0399  -25.3261 H   0  0  0  0  0  0  0  0  0  0  0  0
   10.8407    0.2983  -21.4887 H   0  0  0  0  0  0  0  0  0  0  0  0
   10.0010    3.7679  -24.9608 H   0  0  0  0  0  0  0  0  0  0  0  0
    9.1266    2.0576  -21.0961 H   0  0  0  0  0  0  0  0  0  0  0  0
    3.6907    1.7049  -21.0845 H   0  0  0  0  0  0  0  0  0  0  0  0
    4.4678    0.1098  -22.8151 H   0  0  0  0  0  0  0  0  0  0  0  0
    8.1051   -0.5227  -20.5996 H   0  0  0  0  0  0  0  0  0  0  0  0
    7.9863    0.0148  -18.1878 H   0  0  0  0  0  0  0  0  0  0  0  0
    8.3527    1.7105  -18.6538 H   0  0  0  0  0  0  0  0  0  0  0  0
    5.9149    0.7574  -17.0440 H   0  0  0  0  0  0  0  0  0  0  0  0
    7.3302    1.6580  -16.4015 H   0  0  0  0  0  0  0  0  0  0  0  0
    5.5422    3.2634  -16.8623 H   0  0  0  0  0  0  0  0  0  0  0  0
    6.8448    3.4918  -18.0779 H   0  0  0  0  0  0  0  0  0  0  0  0
    9.5089    5.6261  -21.9617 H   0  0  0  0  0  0  0  0  0  0  0  0
    8.8108    4.4734  -20.7742 H   0  0  0  0  0  0  0  0  0  0  0  0
    7.0627    2.6460  -21.7372 H   0  0  0  0  0  0  0  0  0  0  0  0
    6.7366    2.6835  -23.5033 H   0  0  0  0  0  0  0  0  0  0  0  0
    7.6099    6.6308  -20.6184 H   0  0  0  0  0  0  0  0  0  0  0  0
    7.2706    6.6016  -22.3821 H   0  0  0  0  0  0  0  0  0  0  0  0
    5.7116    4.9269  -23.2875 H   0  0  0  0  0  0  0  0  0  0  0  0
    4.9058    3.7722  -22.1722 H   0  0  0  0  0  0  0  0  0  0  0  0
    4.1224    4.9194  -17.7204 H   0  0  0  0  0  0  0  0  0  0  0  0
    2.9870    5.2615  -19.0697 H   0  0  0  0  0  0  0  0  0  0  0  0
    3.2312    1.3385  -18.8788 H   0  0  0  0  0  0  0  0  0  0  0  0
    3.8563    1.7361  -17.2424 H   0  0  0  0  0  0  0  0  0  0  0  0
    8.2234    4.6117  -23.7851 H   0  0  0  0  0  0  0  0  0  0  0  0
    4.0837    3.6739  -20.5120 H   0  0  0  0  0  0  0  0  0  0  0  0
    7.1171   -3.3936  -22.9843 H   0  0  0  0  0  0  0  0  0  0  0  0
    7.4278   -2.6893  -21.3614 H   0  0  0  0  0  0  0  0  0  0  0  0
    5.7414   -2.8813  -21.9493 H   0  0  0  0  0  0  0  0  0  0  0  0
    6.1783   -1.2083  -23.7494 H   0  0  0  0  0  0  0  0  0  0  0  0
    7.8648   -1.0162  -23.1616 H   0  0  0  0  0  0  0  0  0  0  0  0
    2.4405    3.4381  -17.2818 H   0  0  0  0  0  0  0  0  0  0  0  0
    2.0367    3.2023  -18.8464 H   0  0  0  0  0  0  0  0  0  0  0  0
  1  2  1  0  0  0  0
  1  3  2  0  0  0  0
  2  4  2  0  0  0  0
  3  5  1  0  0  0  0
  4  9  1  0  0  0  0
  5  9  2  0  0  0  0
  6  7  2  0  0  0  0
  6 10  1  0  0  0  0
  7 12  1  0  0  0  0
  8 11  1  0  0  0  0
  8 12  2  0  0  0  0
  9 23  1  0  0  0  0
 10 11  2  0  0  0  0
 10 25  1  0  0  0  0
 11 14  1  0  0  0  0
 12 27  1  0  0  0  0
 13 24  1  0  0  0  0
 13 28  1  0  0  0  0
 13 30  2  0  0  0  0
 14 15  1  0  0  0  0
 15 16  1  0  0  0  0
 16 25  1  0  0  0  0
 17 19  1  0  0  0  0
 17 23  1  0  0  0  0
 18 20  1  0  0  0  0
 18 23  1  0  0  0  0
 19 28  1  0  0  0  0
 20 28  1  0  0  0  0
 21 24  1  0  0  0  0
 21 29  1  0  0  0  0
 22 25  1  0  0  0  0
 22 29  1  0  0  0  0
 24 25  1  0  0  0  0
 26 27  1  0  0  0  0
  1 31  1  0  0  0  0
  2 32  1  0  0  0  0
  3 33  1  0  0  0  0
  4 34  1  0  0  0  0
  5 35  1  0  0  0  0
  6 36  1  0  0  0  0
  7 37  1  0  0  0  0
  8 38  1  0  0  0  0
 14 39  1  0  0  0  0
 14 40  1  0  0  0  0
 15 41  1  0  0  0  0
 15 42  1  0  0  0  0
 16 43  1  0  0  0  0
 16 44  1  0  0  0  0
 17 45  1  0  0  0  0
 17 46  1  0  0  0  0
 18 47  1  0  0  0  0
 18 48  1  0  0  0  0
 19 49  1  0  0  0  0
 19 50  1  0  0  0  0
 20 51  1  0  0  0  0
 20 52  1  0  0  0  0
 21 53  1  0  0  0  0
 21 54  1  0  0  0  0
 22 55  1  0  0  0  0
 22 56  1  0  0  0  0
 23 57  1  0  0  0  0
 24 58  1  0  0  0  0
 26 59  1  0  0  0  0
 26 60  1  0  0  0  0
 26 61  1  0  0  0  0
 27 62  1  0  0  0  0
 27 63  1  0  0  0  0
 29 64  1  0  0  0  0
 29 65  1  0  0  0  0
M  CHG  1  29   1
M  END
> <OMEGA_C>
kmw2QQw/hj9af7vBQ7EyQe9FAkCxUsPBwIwqQfDKhj/Y6rHBoOEiQaP5QECaqMHB1uUaQZmyAkCb
LrDBUi+VQE7unj8f8afB5yOjQHL9rj4mwa/BzcPkQOAn/7xhnKXBpcMWQckYQUDzI7jBkpWvQJJH
xj8cEp/BMVLWQKmQVD9QkZ3Bx5jLQHGqhL72vq7B/lW4QJCNnUCkW5/BRIfxQH/1fD/ln5PB0kjW
QPYavz9YSIrBu8zBQGTxM0C2yY3BSugJQZEYoUBGm63B6RDfQPTuUkCz9bTBK3XtQBdpv0As46vB
qP26QFW9iUBRH7PBHCFnQJ+wj0BKwpTBmORrQD/yB0A2D5LBj/MEQdsqgUDEz7bB0n2TQAERe0A4
oJzBRI2gQNenJUCjB5fBQtHYQLTHKcCW+LHB8ZvaQMD+n79G7LbBfufGQLX2pECB7KnBbQ4zQCE9
VECwqZHBYPrGQL5Ws0BbDpjBwmVCQZS0kz7817zB6Po7QcKNAkDcm8rBZHMtQTi+mD7y6KvBBwQg
Qa0lcUDMr8fBZgYSQb+vA0DgxKjBDTVsQIQ52j/7rKjBm/iOQHHO4D1FhbbBqa4BQX3RBb//y6TB
aY//QGNwcjykgJHBvKQFQS/w2j/tOpXBC0e9QLfnQT8QWojBwJDqQDY51D9SNoPBlVmxQMXaUED3
5YbBQwjbQA55X0Ccn5DBkSQYQU4JtECesa/B5PgMQb0lj0B3MabB9QHiQFhXKUDg5a3B7ZHXQCa/
K0C0BrzB+oPzQIIv1EBk8qTBoKjoQEhA00B9DrPBYsW2QGqpnUDXTLrBO/ycQI1rcUCvYLHB2+qD
QCFsnUBhw43BySs/QCxeqEC9jpjBccxOQJRUqz/JB5fBzcx2QHU43j9a8InBQJMDQQaTk0DpR77B
Z62CQPIga0CMGKTBiL/jQHUxWcDM37fB8bDtQPccLMAs5KrBW7m3QOhnOMAdmK/B2bTFQPmpmr/a
/r3BcKz7QBcUgr/pSrnB8jEcQD0KXEAqQYrBglgCQFryTEBtxZbB

> <OMEGA_E>
CJ7WPg==

> <OMEGA_NBR>
     26159

$$$$
270427
  -OEChem-04172616093D

 66 71  0     1  0  0  0  0  0999 V2000
   11.3985    1.3117  -23.8396 C   0  0  0  0  0  0  0  0  0  0  0  0
    6.2438   10.0315  -22.3812 C   0  0  0  0  0  0  0  0  0  0  0  0
   10.9035    1.0365  -22.5504 C   0  0  0  0  0  0  0  0  0  0  0  0
   10.8831    2.3947  -24.5812 C   0  0  0  0  0  0  0  0  0  0  0  0
    5.3922    9.2236  -21.6078 C   0  0  0  0  0  0  0  0  0  0  0  0
    7.4789    9.5259  -22.8308 C   0  0  0  0  0  0  0  0  0  0  0  0
    6.6736   -0.4699  -21.4756 C   0  0  0  0  0  0  0  0  0  0  0  0
    5.3991    0.0279  -21.8386 C   0  0  0  0  0  0  0  0  0  0  0  0
    9.9026    1.8516  -21.9990 C   0  0  0  0  0  0  0  0  0  0  0  0
    9.8743    3.2085  -24.0332 C   0  0  0  0  0  0  0  0  0  0  0  0
    5.7727    7.9101  -21.2894 C   0  0  0  0  0  0  0  0  0  0  0  0
    7.8661    8.2109  -22.5105 C   0  0  0  0  0  0  0  0  0  0  0  0
    7.3421    0.0279  -20.3332 C   0  0  0  0  0  0  0  0  0  0  0  0
    4.7807    1.0257  -21.0586 C   0  0  0  0  0  0  0  0  0  0  0  0
    9.3959    2.9459  -22.7314 C   0  0  0  0  0  0  0  0  0  0  0  0
    7.0058    7.3812  -21.7550 C   0  0  0  0  0  0  0  0  0  0  0  0
    6.7316    1.0280  -19.5533 C   0  0  0  0  0  0  0  0  0  0  0  0
    5.4651    1.5120  -19.9302 C   0  0  0  0  0  0  0  0  0  0  0  0
    5.7757    4.8411  -19.8410 C   0  0  0  0  0  0  0  0  0  0  0  0
    7.2104    1.8101  -18.3503 C   0  0  0  0  0  0  0  0  0  0  0  0
    5.9719    2.5031  -17.7773 C   0  0  0  0  0  0  0  0  0  0  0  0
    6.9271    3.3561  -22.7381 C   0  0  0  0  0  0  0  0  0  0  0  0
    8.4699    5.2925  -22.2682 C   0  0  0  0  0  0  0  0  0  0  0  0
    5.8355    4.3763  -22.3569 C   0  0  0  0  0  0  0  0  0  0  0  0
    3.6217    4.4687  -18.5778 C   0  0  0  0  0  0  0  0  0  0  0  0
    3.5716    2.0804  -18.3979 C   0  0  0  0  0  0  0  0  0  0  0  0
    8.2891    3.7609  -22.1246 C   0  0  2  0  0  0  0  0  0  0  0  0
    7.4532    5.9917  -21.3098 C   0  0  2  0  0  0  0  0  0  0  0  0
    4.5992    3.8814  -19.5760 C   0  0  2  0  0  0  0  0  0  0  0  0
    4.9417    2.5176  -18.9384 C   0  0  2  0  0  0  0  0  0  0  0  0
    6.2596    5.1104  -21.1368 N   0  0  0  0  0  0  0  0  0  0  0  0
    2.7853    3.3234  -18.1646 N   0  3  0  0  0  0  0  0  0  0  0  0
    6.2180    5.4809  -18.8912 O   0  0  0  0  0  0  0  0  0  0  0  0
   12.1753    0.6914  -24.2617 H   0  0  0  0  0  0  0  0  0  0  0  0
    5.9506   11.0405  -22.6308 H   0  0  0  0  0  0  0  0  0  0  0  0
   11.2928    0.2009  -21.9877 H   0  0  0  0  0  0  0  0  0  0  0  0
   11.2631    2.5998  -25.5711 H   0  0  0  0  0  0  0  0  0  0  0  0
    4.4469    9.6125  -21.2592 H   0  0  0  0  0  0  0  0  0  0  0  0
    8.1317   10.1495  -23.4236 H   0  0  0  0  0  0  0  0  0  0  0  0
    7.1396   -1.2368  -22.0766 H   0  0  0  0  0  0  0  0  0  0  0  0
    4.8996   -0.3576  -22.7152 H   0  0  0  0  0  0  0  0  0  0  0  0
    9.5194    1.6405  -21.0116 H   0  0  0  0  0  0  0  0  0  0  0  0
    9.4683    4.0295  -24.6055 H   0  0  0  0  0  0  0  0  0  0  0  0
    5.1215    7.2962  -20.6848 H   0  0  0  0  0  0  0  0  0  0  0  0
    8.8225    7.8348  -22.8426 H   0  0  0  0  0  0  0  0  0  0  0  0
    8.3140   -0.3565  -20.0611 H   0  0  0  0  0  0  0  0  0  0  0  0
    3.8051    1.4074  -21.3209 H   0  0  0  0  0  0  0  0  0  0  0  0
    7.6487    1.1319  -17.6033 H   0  0  0  0  0  0  0  0  0  0  0  0
    7.9600    2.5560  -18.6530 H   0  0  0  0  0  0  0  0  0  0  0  0
    5.5774    1.9405  -16.9183 H   0  0  0  0  0  0  0  0  0  0  0  0
    6.2142    3.5292  -17.4635 H   0  0  0  0  0  0  0  0  0  0  0  0
    6.6414    2.3631  -22.3608 H   0  0  0  0  0  0  0  0  0  0  0  0
    7.0207    3.3192  -23.8335 H   0  0  0  0  0  0  0  0  0  0  0  0
    9.4968    5.5745  -21.9929 H   0  0  0  0  0  0  0  0  0  0  0  0
    8.2724    5.5957  -23.3070 H   0  0  0  0  0  0  0  0  0  0  0  0
    5.6918    5.0878  -23.1834 H   0  0  0  0  0  0  0  0  0  0  0  0
    4.8910    3.8483  -22.1593 H   0  0  0  0  0  0  0  0  0  0  0  0
    4.1549    4.8927  -17.7142 H   0  0  0  0  0  0  0  0  0  0  0  0
    3.0068    5.2498  -19.0487 H   0  0  0  0  0  0  0  0  0  0  0  0
    3.0607    1.4414  -19.1332 H   0  0  0  0  0  0  0  0  0  0  0  0
    3.6952    1.5278  -17.4549 H   0  0  0  0  0  0  0  0  0  0  0  0
    8.2483    3.5325  -21.0493 H   0  0  0  0  0  0  0  0  0  0  0  0
    7.9453    6.0963  -20.3316 H   0  0  0  0  0  0  0  0  0  0  0  0
    4.0736    3.7013  -20.5253 H   0  0  0  0  0  0  0  0  0  0  0  0
    2.5539    3.4030  -17.1950 H   0  0  0  0  0  0  0  0  0  0  0  0
    1.9455    3.3019  -18.7071 H   0  0  0  0  0  0  0  0  0  0  0  0
  1  3  1  0  0  0  0
  1  4  2  0  0  0  0
  2  5  1  0  0  0  0
  2  6  2  0  0  0  0
  3  9  2  0  0  0  0
  4 10  1  0  0  0  0
  5 11  2  0  0  0  0
  6 12  1  0  0  0  0
  7  8  2  0  0  0  0
  7 13  1  0  0  0  0
  8 14  1  0  0  0  0
  9 15  1  0  0  0  0
 10 15  2  0  0  0  0
 11 16  1  0  0  0  0
 12 16  2  0  0  0  0
 13 17  2  0  0  0  0
 14 18  2  0  0  0  0
 15 27  1  0  0  0  0
 16 28  1  0  0  0  0
 17 18  1  0  0  0  0
 17 20  1  0  0  0  0
 18 30  1  0  0  0  0
 19 29  1  0  0  0  0
 19 31  1  0  0  0  0
 19 33  2  0  0  0  0
 20 21  1  0  0  0  0
 21 30  1  0  0  0  0
 22 24  1  0  0  0  0
 22 27  1  0  0  0  0
 23 27  1  0  0  0  0
 23 28  1  0  0  0  0
 24 31  1  0  0  0  0
 25 29  1  0  0  0  0
 25 32  1  0  0  0  0
 26 30  1  0  0  0  0
 26 32  1  0  0  0  0
 28 31  1  0  0  0  0
 29 30  1  0  0  0  0
  1 34  1  0  0  0  0
  2 35  1  0  0  0  0
  3 36  1  0  0  0  0
  4 37  1  0  0  0  0
  5 38  1  0  0  0  0
  6 39  1  0  0  0  0
  7 40  1  0  0  0  0
  8 41  1  0  0  0  0
  9 42  1  0  0  0  0
 10 43  1  0  0  0  0
 11 44  1  0  0  0  0
 12 45  1  0  0  0  0
 13 46  1  0  0  0  0
 14 47  1  0  0  0  0
 20 48  1  0  0  0  0
 20 49  1  0  0  0  0
 21 50  1  0  0  0  0
 21 51  1  0  0  0  0
 22 52  1  0  0  0  0
 22 53  1  0  0  0  0
 23 54  1  0  0  0  0
 23 55  1  0  0  0  0
 24 56  1  0  0  0  0
 24 57  1  0  0  0  0
 25 58  1  0  0  0  0
 25 59  1  0  0  0  0
 26 60  1  0  0  0  0
 26 61  1  0  0  0  0
 27 62  1  0  0  0  0
 28 63  1  0  0  0  0
 29 64  1  0  0  0  0
 32 65  1  0  0  0  0
 32 66  1  0  0  0  0
M  CHG  1  32   1
M  END
> <OMEGA_C>
HmA2QYrmpz90t77B6szHQACBIEG4DLPB1XQuQZqshD9LZ7TBGSEuQXRCGUBCpsTB0oysQNmTE0HU
3KzBdFPvQARqGEF3pbbB6Y3VQICV8L4czqvBjcWsQNLh5DyNta7BM3EeQY0A7T/s/a/B9PwdQShY
TUD2Q8DBwLm4QE8f/UCqUKrBLrf7QMBfA0F7FbTBOvLqQLrO5DxcqqLBZvuYQIZIgz/zd6jBi1UW
QQOKPED02bXBri/gQOky7EAzCq7BoGnXQOOUgz8sbZzBVeKuQNeJwT/3cJ/BgNK4QADqmkBFup7B
dLvmQO6v5z9WzZLBcRm/QD4zIEDsN47BiKrdQJvKVkCg57XBhYQHQSVcqUBeJbLBkLy6QMEKjED9
2rLBX8lnQIj/jkBTn5TBC5VkQPclBUDsLpPBLqAEQT2ycEAW/7DBYIDuQAu8v0BieqrBVSyTQDFp
eECZm5zBtSKeQKsgIUDbgZfBCk/IQKKIo0ATGKnBGEIyQHOyVEAtUZHBL/rGQN1jr0A7IZfB7c1C
QQ8BMT/6F8LBq2u+QBemMEHZC7XBOq80QcW+TT7U5q/BoDU0QXtjJkCUkczBDE2OQPfMGUHKEqrB
ZBsCQTZkIkGbY7vBZXfkQOJOnr/SnLDB1cmcQM4Tt76uuLXBnU8YQRT90T+qF6jBCX4XQZzxgEAV
2MTBsOOjQFJ66UBmeqXB/ygNQRe3+kCsvbbBBQYFQdCFtr4ifaDB/IVzQA0mtD8dkarBXML0QOPh
kD+Q04zBt7j+QPOUI0A+OZXB7HmyQBhi+D+/WIfBx9rGQBneYUA6tYvBa4bUQFk9F0Dp4rLBd6ng
QA1tVED5qr7B9PIXQR1iskBf8a/B3VsEQcIPs0DVdLrBkyO2QKfPokCgd7nB3oKcQPZKdkAxRrHB
N/WEQEiRnECpto3BmG5AQIP+p0CsY5jBbOJDQHt/uD+2EJnBw31sQOKOwz+Xo4vB3PgDQcsUYkD0
ZKjBHED+QNwUw0AQp6LBuVqCQNrhbEDqM6TBCnMjQI/KWUBvj4nB4wT5P59RU0AVqJXB2j42QfaW
pD+egr7BxKPIQPSvIEHZ/7LBSUEuQZ3VF0AtfcTBUx0uQXkpgj+ZOrTBfkzwQL6XGEEpgLbBMByt
QE+/E0FV5qzBnLrWQKcR874EsqvBbzOuQPQ2wjxUza7BvigeQTePTEBmLsDB/CUeQS+86z8t5a/B
3YD8QOODA0E787PB6yK5QHRt/UDsWKrBMlfrQOivpTwjb6LBWgiaQD5Jgz8Yr6jBy0oWQaUePECV
zLXBzq7gQFRy7EAgAK7BBV7XQF3Igj+hS5zB40ivQETxwT9kkZ/BaEC4QG0xm0C4557BvcnlQDNM
5T9xhJLBNyC+QGMbIUBOR47Bpr7dQCOtV0CxErbBDKwHQUhlqUDyHLLBUtm6QDWFjEAsCLPBCR5m
QOTujkBt6pTBDORjQE6wBEB8nZPB4pcEQSXLcEB4B7HB+qfuQJXMv0CafKrBrbSSQPRreEA+2pzB
+eKdQEZYIUBNupfB0DzIQG/Go0A1OanBuBwzQGIMVEDUJJHB9AbGQHTMr0A3SZfBLKRCQWp1KD8P
1MHBN2C/QITYMEGeALXB/340QXumJECIYszBCSU0QYbeNj4usa/B6LcCQfyXIkE3KbvBpcKOQAz5
GUFdLqrB0wzmQEK1nr+NcLDBw7SeQD6bur6I37XB8dwXQXemgEA9y8TBgNsXQexa0T/TBKjBtJcN
QXz5+kBYi7bB6xykQA7K6UBIj6XBfhkFQcM1vL5UFqDBlwF2QPxMtD+N8KrBm1fyQIP8jD+fbIzB
0rv+QH4kIUCgs5TBT6qwQKGk/T9VXofBWDXGQM77YkBH7IvBpFfUQHz7F0A4J7PBEhThQILzVUCw
1L7BTxcYQb8rskBr06/BR7EEQXtLs0DrbLrBZXm2QM9vo0AUn7nB3omcQMBbd0B3hLHBJf+DQHEV
nkAGMo7BZ7g8QCeupkCg15jBeXZCQKiSvj8aypnBYkBrQOkquz8QW4zB67QDQTv3YUAhcKjBeCX+
QEzcwkAsn6LBhiOCQNWlbEDleaTBpJYpQPyNWEDFQInBC0H1PzPoUkAH55TB/aQ2QUG+qD/Jqr7B
3+nGQCMxIEGSCLPBsIMuQcA1hT+hZrTBh3suQROnGUBho8TBh/XuQGhnGEGxbrbB5Z6rQNYUE0Fz
9KzB+/LWQERC575IsavBBRmuQNQ77jy4uK7BL2QeQTpC7T/MErDBUjoeQZCgTUBUVcDB7MD7QH9z
A0FR0bPBNzq4QKNS/ECnV6rB/tXrQDwHfz2miKLBq6OZQMS6gj/qj6jBw10WQTqgPEA+97XBUiHg
QFbu60Cj7K3BZKvXQHaNhz94Y5zBR/GuQPhUwj/2fJ/BtSy5QCVFmkCHsp7BzETmQM6T7j9CzpLB
2qG9QFojH0DiI47BpqzdQNJKV0BSGrbBdocHQfdiqUBvM7LBxLe6QBwBjEBK3rLBVslnQHQxj0Dj
opTB6GJiQNdDBUDmgZPB150EQZa2cECVJrHBS6fuQAh0v0C7cKrBZwiTQKdeeECWoJzBKWmdQL7S
IEArlJfBgInIQBEjo0D0D6nBp9kxQI9fVUDSSJHBkv/HQKPrrUBZC5fB1StDQThKMz8U+8HBeiq9
QGs/MEEyGbXBTao0QSkGUj5o36/B7LY0QYzYJkC0hszBZPcBQcyLIkESELvBKAKNQB0XGUGNTKrB
zE7mQFLkm78Na7DBXpSeQFATu75kxLXB4hoYQU4W0j/nNKjB3M8XQaQYgUCh78TBKF8NQR5V+0DX
UbbB6majQCpt6EA4kaXBF4MFQatonb4RRqDB/790QJUGsj/6warBFrb1QADcmj9V4IzBlNX8QOCH
KUBPSpXB7zixQCHE7z/ZhofBDgPEQIBhYECFPovBTKLUQOU8F0A4PLPBMJngQCdPVkAd377BkfsX
QVNPskCFA7DBhkwEQVFms0A3e7rBKcS1QFYPo0DWZrnBlqGcQPbJdUAPRLHBzRSFQBzAnEC/vo3B
0J5AQDw/qEDyaJjBxjpBQOQ/vj9DopnB0O5oQG51vj/PJYzBvt0DQbS9YUBqj6jBBZD+QICkwkCL
oaLByzaCQE6KbUAEPaTBA/0kQBOdWUAzd4nBBiX2P2BzVUDoa5XBKq82QR5Bpz/z3r7B0rnKQC1l
IEEX67LBBlsuQer0GEDsxMTBS7QuQW57gj8Rl7TBNY2uQG+UE0Ey8KzBz1vyQAYUGEFJTLbBHiXW
QHfC6r7Px6vBFo+tQPovKT0v0q7BTRYeQVFYTEChYMDBcYoeQW9P6T+8LLDBAdS5QG7X/ECaa6rB
nPD9QOzuAkFOt7PBgRnrQJBoJz28laLBMbiZQAp4hj8utqjB41kWQeq8OkCY/7XBhHDhQC5160BE
6q3Bn2fXQJcMhj+scZzBX1CvQA+2xT/6qZ/BCwS3QDUCnEC9457BmgfmQLVS5z/FpJLBjcW+QDV+
I0BBao7BsdXdQLyqVkDfSrbBwr4HQXVAqEBlC7LBoLe6QHhVi0CX77LBkBZlQOqujkA0m5TBpRhl
QN83BEAbdJPBUpUEQfqObkC5IbHBsuLuQIeUvkAHZ6rBQ82RQOKBeUDnwJzBxPOdQHaWIkA/vpfB
J2PIQPS0okDpJqnBNbQyQJKbUkDDAJHB6tjDQHvusUA5ZZfBgTlDQfj+MT/EP8LBbfnBQPWfMEHn
67TBTXg0QXWiJkDWqszBFgA1QQvqOz6MHbDBYEWQQBb/GUGCSKrBjfoDQdP1IUGi47rBKT7lQIIv
nb9QhrDBtsOdQE3hs76w1bXBeI0XQYt+gECU7MTB5lsYQT4TzT9JTajBYCykQKtR6UAAyKXBJVkO
QdGL+UByLLbBugEFQSLfsb7ySaDBZlV1QIG/tz+q7KrBWBvyQLX3jT+/jIzB9mj/QHROIUBgy5TB
R5KxQEOyAkC4XIfB0z3HQGymZUAFR4zBN5nUQOT/FUDzsLPB3C7hQGLAV0AwDb/BXysYQR2/sECG
s6/BAdsEQVOQskBcVbrBXki1QB5aokAadLnBieOcQL64c0AWR7HB5ciDQBgxnUB62I3BJTY7QEjF
pkBlUZjBcvFDQJMUuz8Ah5nBvRluQBrJuz99KIzBIJ8DQVSZXkAIk6jBS2b+QEp6wUBbiaLB6cWA
QADKbUCOUKTB3hkoQKR7VkDgIInB/Hb1P1HSUEA+4JTB

> <OMEGA_E>
cCqJPQDQjj2waJI9AAmvPQ==

> <OMEGA_NBR>
     30698

$$$$
270433
  -OEChem-04172616093D

 71 76  0     1  0  0  0  0  0999 V2000
   11.3823    1.3027  -23.5437 C   0  0  0  0  0  0  0  0  0  0  0  0
   11.1334    2.3080  -24.4995 C   0  0  0  0  0  0  0  0  0  0  0  0
   10.5969    1.2238  -22.3779 C   0  0  0  0  0  0  0  0  0  0  0  0
    7.8217    9.2788  -23.0220 C   0  0  0  0  0  0  0  0  0  0  0  0
   10.0923    3.2308  -24.2989 C   0  0  0  0  0  0  0  0  0  0  0  0
    9.5605    2.1494  -22.1715 C   0  0  0  0  0  0  0  0  0  0  0  0
    8.0959    7.9559  -22.6201 C   0  0  0  0  0  0  0  0  0  0  0  0
    4.7504    1.1291  -21.0523 C   0  0  0  0  0  0  0  0  0  0  0  0
    6.6216    9.9052  -22.6342 C   0  0  0  0  0  0  0  0  0  0  0  0
    5.2762    0.1737  -21.9315 C   0  0  0  0  0  0  0  0  0  0  0  0
    5.9634    7.8944  -21.4404 C   0  0  0  0  0  0  0  0  0  0  0  0
    9.2950    3.1493  -23.1423 C   0  0  0  0  0  0  0  0  0  0  0  0
    7.1623    7.2504  -21.8243 C   0  0  0  0  0  0  0  0  0  0  0  0
    5.4849    1.4874  -19.9002 C   0  0  0  0  0  0  0  0  0  0  0  0
    5.6814    9.2015  -21.8578 C   0  0  0  0  0  0  0  0  0  0  0  0
    6.7561    0.8736  -19.6959 C   0  0  0  0  0  0  0  0  0  0  0  0
    6.5238   -0.4108  -21.6483 C   0  0  0  0  0  0  0  0  0  0  0  0
    5.7141    4.8404  -19.7739 C   0  0  0  0  0  0  0  0  0  0  0  0
    7.5717    1.1445  -18.4508 C   0  0  0  0  0  0  0  0  0  0  0  0
    7.2768    2.5336  -17.8895 C   0  0  0  0  0  0  0  0  0  0  0  0
    5.7720    2.6440  -17.6055 C   0  0  0  0  0  0  0  0  0  0  0  0
    6.8570    3.4543  -22.7070 C   0  0  0  0  0  0  0  0  0  0  0  0
    8.6304    5.0609  -21.7213 C   0  0  0  0  0  0  0  0  0  0  0  0
    5.8145    4.4770  -22.2983 C   0  0  0  0  0  0  0  0  0  0  0  0
    3.5109    4.4538  -18.6238 C   0  0  0  0  0  0  0  0  0  0  0  0
    3.4865    2.0589  -18.4634 C   0  0  0  0  0  0  0  0  0  0  0  0
    8.2071    4.1759  -22.9228 C   0  0  1  0  0  0  0  0  0  0  0  0
    7.5004    5.9332  -21.1382 C   0  0  2  0  0  0  0  0  0  0  0  0
    4.5455    3.8591  -19.5635 C   0  0  2  0  0  0  0  0  0  0  0  0
    4.8923    2.4991  -18.8975 C   0  0  2  0  0  0  0  0  0  0  0  0
    4.4226    9.8775  -21.3712 C   0  0  0  0  0  0  0  0  0  0  0  0
    7.2344   -0.0579  -20.5552 N   0  0  0  0  0  0  0  0  0  0  0  0
    6.2814    5.0947  -21.0348 N   0  0  0  0  0  0  0  0  0  0  0  0
    2.7244    3.2992  -18.1443 N   0  3  0  0  0  0  0  0  0  0  0  0
    6.1175    5.4636  -18.7961 O   0  0  0  0  0  0  0  0  0  0  0  0
    7.1605   -1.6299  -22.7172 Cl  0  0  0  0  0  0  0  0  0  0  0  0
   12.1779    0.5906  -23.7061 H   0  0  0  0  0  0  0  0  0  0  0  0
   11.7440    2.3695  -25.3882 H   0  0  0  0  0  0  0  0  0  0  0  0
   10.7905    0.4546  -21.6449 H   0  0  0  0  0  0  0  0  0  0  0  0
    8.5354    9.8146  -23.6303 H   0  0  0  0  0  0  0  0  0  0  0  0
    9.9046    4.0017  -25.0317 H   0  0  0  0  0  0  0  0  0  0  0  0
    8.9647    2.0996  -21.2721 H   0  0  0  0  0  0  0  0  0  0  0  0
    9.0185    7.4808  -22.9194 H   0  0  0  0  0  0  0  0  0  0  0  0
    3.7932    1.5872  -21.2533 H   0  0  0  0  0  0  0  0  0  0  0  0
    6.4227   10.9241  -22.9320 H   0  0  0  0  0  0  0  0  0  0  0  0
    4.7290   -0.1114  -22.8179 H   0  0  0  0  0  0  0  0  0  0  0  0
    5.2546    7.3707  -20.8160 H   0  0  0  0  0  0  0  0  0  0  0  0
    7.3254    0.3900  -17.6892 H   0  0  0  0  0  0  0  0  0  0  0  0
    8.6408    1.0780  -18.7007 H   0  0  0  0  0  0  0  0  0  0  0  0
    7.8409    2.6827  -16.9570 H   0  0  0  0  0  0  0  0  0  0  0  0
    7.5717    3.2987  -18.6227 H   0  0  0  0  0  0  0  0  0  0  0  0
    5.4895    1.8503  -16.8982 H   0  0  0  0  0  0  0  0  0  0  0  0
    5.5717    3.6265  -17.1533 H   0  0  0  0  0  0  0  0  0  0  0  0
    6.9643    2.6991  -21.9145 H   0  0  0  0  0  0  0  0  0  0  0  0
    6.5469    2.9638  -23.6415 H   0  0  0  0  0  0  0  0  0  0  0  0
    9.0016    4.4013  -20.9231 H   0  0  0  0  0  0  0  0  0  0  0  0
    9.4409    5.7262  -22.0538 H   0  0  0  0  0  0  0  0  0  0  0  0
    5.7133    5.2454  -23.0790 H   0  0  0  0  0  0  0  0  0  0  0  0
    4.8438    3.9841  -22.1411 H   0  0  0  0  0  0  0  0  0  0  0  0
    4.0010    4.9646  -17.7818 H   0  0  0  0  0  0  0  0  0  0  0  0
    2.8657    5.1660  -19.1592 H   0  0  0  0  0  0  0  0  0  0  0  0
    2.9928    1.5108  -19.2793 H   0  0  0  0  0  0  0  0  0  0  0  0
    3.5496    1.4144  -17.5742 H   0  0  0  0  0  0  0  0  0  0  0  0
    8.1272    4.8123  -23.8164 H   0  0  0  0  0  0  0  0  0  0  0  0
    7.8041    6.1851  -20.1115 H   0  0  0  0  0  0  0  0  0  0  0  0
    4.0723    3.6609  -20.5366 H   0  0  0  0  0  0  0  0  0  0  0  0
    3.6112    9.7066  -22.0940 H   0  0  0  0  0  0  0  0  0  0  0  0
    4.1369    9.4607  -20.3941 H   0  0  0  0  0  0  0  0  0  0  0  0
    4.6022   10.9580  -21.2706 H   0  0  0  0  0  0  0  0  0  0  0  0
    2.5873    3.3686  -17.1562 H   0  0  0  0  0  0  0  0  0  0  0  0
    1.8362    3.2793  -18.6035 H   0  0  0  0  0  0  0  0  0  0  0  0
  1  2  1  0  0  0  0
  1  3  2  0  0  0  0
  2  5  2  0  0  0  0
  3  6  1  0  0  0  0
  4  7  1  0  0  0  0
  4  9  2  0  0  0  0
  5 12  1  0  0  0  0
  6 12  2  0  0  0  0
  7 13  2  0  0  0  0
  8 10  1  0  0  0  0
  8 14  2  0  0  0  0
  9 15  1  0  0  0  0
 10 17  2  0  0  0  0
 11 13  1  0  0  0  0
 11 15  2  0  0  0  0
 12 27  1  0  0  0  0
 13 28  1  0  0  0  0
 14 16  1  0  0  0  0
 14 30  1  0  0  0  0
 15 31  1  0  0  0  0
 16 19  1  0  0  0  0
 16 32  2  0  0  0  0
 17 32  1  0  0  0  0
 17 36  1  0  0  0  0
 18 29  1  0  0  0  0
 18 33  1  0  0  0  0
 18 35  2  0  0  0  0
 19 20  1  0  0  0  0
 20 21  1  0  0  0  0
 21 30  1  0  0  0  0
 22 24  1  0  0  0  0
 22 27  1  0  0  0  0
 23 27  1  0  0  0  0
 23 28  1  0  0  0  0
 24 33  1  0  0  0  0
 25 29  1  0  0  0  0
 25 34  1  0  0  0  0
 26 30  1  0  0  0  0
 26 34  1  0  0  0  0
 28 33  1  0  0  0  0
 29 30  1  0  0  0  0
  1 37  1  0  0  0  0
  2 38  1  0  0  0  0
  3 39  1  0  0  0  0
  4 40  1  0  0  0  0
  5 41  1  0  0  0  0
  6 42  1  0  0  0  0
  7 43  1  0  0  0  0
  8 44  1  0  0  0  0
  9 45  1  0  0  0  0
 10 46  1  0  0  0  0
 11 47  1  0  0  0  0
 19 48  1  0  0  0  0
 19 49  1  0  0  0  0
 20 50  1  0  0  0  0
 20 51  1  0  0  0  0
 21 52  1  0  0  0  0
 21 53  1  0  0  0  0
 22 54  1  0  0  0  0
 22 55  1  0  0  0  0
 23 56  1  0  0  0  0
 23 57  1  0  0  0  0
 24 58  1  0  0  0  0
 24 59  1  0  0  0  0
 25 60  1  0  0  0  0
 25 61  1  0  0  0  0
 26 62  1  0  0  0  0
 26 63  1  0  0  0  0
 27 64  1  0  0  0  0
 28 65  1  0  0  0  0
 29 66  1  0  0  0  0
 31 67  1  0  0  0  0
 31 68  1  0  0  0  0
 31 69  1  0  0  0  0
 34 70  1  0  0  0  0
 34 71  1  0  0  0  0
M  CHG  1  34   1
M  END
> <OMEGA_C>
Dx42QWu9pj+WWbzBeSIyQTq2E0AL/8PB+YwpQRKnnD/tBbPBXkv6QPR1FEERLbjBK3ohQdXFTkAc
ZMLByfcYQX+PCUBCX7HB7YgBQQCX/kDt9bTBZwOYQMiHkD8La6jBAuTTQJ17HkHYErXBPdaoQEDW
MT6mc6/BxdO+QNCe/EDehavBKbgUQWaOSUBaI7nBPDHlQEQD6EBCmK7BLoSvQK9ivj+SM5/BzM21
QEw5E0G23K7BljHYQGyhXz8pkZ3BUcPQQFhS0r6jL63Bndm2QEXkmkDpMJ7BF0vyQIOAkj9Nm5PB
39voQBgmIkCuHY/BKbS4QJc2KUAI2IzBx2zbQO0TXUAFqLXBQRYKQaLyoUBOxa3BGhC6QNRDj0D5
YrLBz7FgQMWFjkCA/ZTBICNfQMLFA0DxtJPBZlADQZSghUDoYbfB9QLwQIfcvUAdG6nBc3SRQEr7
dkAigpzB3I2cQLHwH0AgLpfBxYWNQCwKHkFJ+KrB/3/nQMBKbb0ScaTB5gDJQPcHo0AtR6jBT1wu
QH4lU0CfJ5HB1cLDQA/WrkB+XpbB0CLlQI6f0L/JvLXB2NhCQagvFz8Npr3Bfec7QfClF0AZG8vB
EqYsQarG6D7UKK3B9JAIQXMIHUHTCr3BE3keQZMNgEDWQMjBSW8PQYJgBkBKLarBr0sQQc9i70DW
WrfBjcRyQIopyz+6BqrBsobNQALJLkHGdLfBtFOXQPkX5L0Ji7bBZCWoQPLc60A6h6bB1GnqQMav
xz6Jg43B5kAKQeH6iT/+mpXBZuj6QIGxK0DXp4fBNkvyQIweU0BJ+5TBJKqvQJPW7D9sL4fBBUuy
QFUYaEDiOYnBX9veQFe+LEDhUK/B3X/RQDuuPUCxIb3BtQYQQYfXjECCYqfB5A0XQeM8t0AjbrDB
qtO2QPHZp0DLobjBHgCbQMr6fkD+ILHBjgiAQK7dnkA0QY7B8Wc3QH5PpUAORpnBEYo/QBViwT8G
PJrBlSxjQKMKtT/9l4zBKAkCQYr+mUAAiL7BKLv5QKzsxUBK5KDBIFCCQPBMakDzSqTBRh1nQC5O
G0GEwLDBm2GEQBNfF0E2J6PBoUWTQBxUL0EsKqrBCZclQGuXV0DwP4nBnAnrPw7gUUDl05TBfb01
QU/XpT96irzBsUspQfNxnD95K7PBFaQxQSbrEkCDN8TB7Nb6QNbaFEGJBLjBaroYQeCCCUAfgLHB
JAAhQVoETkDAl8LBLasBQbwz/0A+57TBmgSaQEo8kD8ch6jBqYTUQE3rHkHz47TBixKsQAoVOj7t
dq/Bttq+QDoZ/UCplKvBh2AUQcE2SUBvSrnBAzTlQJRy6EBDpq7BpDSwQLRJvj+nHJ/BcjC2QKGX
E0E/yK7BO7vYQPS9YD9gJJ3BV9XTQKWoyb7o46zBLfG2QHC2mkDdQp7BkjTxQDf2kT+m6ZLBgynn
QErKIUDAfI7BaL62QPkNKUBjqYzBAeTaQHBLXUBCrLXBou8JQWkYokDk9a3BDLy5QDmxj0DserLB
AbxfQPWOjkBKN5XB32RdQFu4A0CHK5TBDAcDQTSShUCtg7fBGtbvQJ8WvkAXOanB4miRQPbCdkBN
nZzBKhecQNe8H0CLPZfBE9uNQIRkHkEu6arB7TfpQMSmNb0m7aPB87TIQCRoo0BmX6jB9S4uQJ8Y
U0C0M5HBXQHEQHZfrkBCaZbBxpTpQPKOzb9QS7XBAndCQXRhFT/C2b3BVnksQTXL6T5lSa3B9E47
QVWPFkAbXcvB3ukIQdp1HUEt07zBbUkPQemWBkD6RarByucdQdwSf0C5esjBI24QQZz770BHSrfB
4uZ2QMauyT9+XKrB92XOQDZNL0FsLLfBcZ+bQNrv0L1Tt7bBJuinQCcu7EB8sqbBJT/oQKd3xD4x
7ozBRtsJQVkYiT/+jpTBeBj4QCggK0B63IbBioLxQFbVUkANP5TBONesQGLB7D/VE4fBJd+vQGsD
aEBXHonBl1zeQHGfLUCDQa/BD8zQQGQoPUCwFb3BDQMQQWkcjUDplKfBHtYWQUpht0Dws7DB+9W2
QMg6qEB4v7jBOoKaQCk2gEA4P7HB5m9+QNqrn0BTjY7BxvQ1QMqypECsopnBQQ4+QIRTyD/e/ZrB
5YtfQAbQrj9hVo3BVaoBQfrJmUCMr77B9735QD3yxUClAqHBHZaCQHXtaUDobqTBQSVoQIPaG0EN
xLDBkmOEQNKMF0ECKKPBQLaTQAemL0F4/KnBy2coQC3AVkBsP4nB8gzoPyufUkBpipTBwZ03QfTP
oT+x57zBQjwsQWzOnz9DMLPBWnsyQfheDUCE3sTB6tStQGjPD0HQnK7Bx70bQdRvC0Acc7HBcgIi
QaUtSUA8JMPB1Xa5QOX79UDEnKvB2n2XQN0rlD/EtKjB71zLQMXNHEHW/7PBnaaoQBy3WD5lxa/B
vxIAQYLd/0ADebPBUY8WQaycSEDMcLnBzrfiQKZd5UCgE67Bbb6uQH7VwT8CdJ/BbUr0QNDNFEGm
h7bBh7bXQNw+aj/c153BG73QQM2hub7mg63BmxG3QNgamkA4KZ7BkpzxQLeTlj9E05PBIkznQJ7I
IkAZDY/BPO62QIR7KEDQ8YzBoGrfQOayWECJ9bXBhSkLQTy/oUC8Aq7BkuO8QHXdikB/NbLBaTxg
QDS5j0Cm+5TBdt5bQNkLBkC7K5TBeOIEQT/chEDVpLfB3/vwQM1Tu0Aq8ajBbtaQQO98eECEkJzB
2VObQFvlIED/ZJfBAGQKQZ9HI0HeubvBLV/nQIAsxbsUw6TBdcvLQGOVnkAxD6jB4qIuQB/gVUCX
45DB5OXCQIyIr0BneJbBTmjlQJ2eyb9VFbbBV05EQWcKDT+ZQr7BUCowQYklBj/vFq3Bbjg7QTDM
DUCjUszBNUKOQLXOFUH5x6zB2fgSQTCnCkBqAarBFiYeQQ+Dd0BiQcnBGMaiQPM14kCYXafBSY1x
QLYFzj9mUqrBsMDCQLHxLEHZNbbBPkWXQCaal7144bbBjO0PQWol9ECdRLXBEUXqQFEIzD5P4Y3B
+O0JQWbMkT8j1pXB8cz4QO/wKkAQfIfB89fwQGhRVUCwsZTBvdGtQJi06D+NfIfBVgawQEZ2ZkAh
JYnBZyzkQBqQJkCb5a/Bt4fVQGIhO0Cgjb3B1x4SQfEtjUAjxqfByEQXQVXEuEAdyLDBA5W3QCrW
o0B+RLjBduSeQFiSckCt1bDB+i+AQHKRoEDqYY7BAz82QOMnpkD3RpnBxOE6QL9c0D9x/ZrBrj5e
QL83sT+odI3BiFwDQYoPmUBrz77BtR77QOwww0BPv6DBFImBQMAYbUBLXKTBLlsTQQruK0GRgrXB
0IcVQemiGUEMisDBsyQCQeXWLkHN7MDBAPUqQA3OWEAg6YjB403nP9SfVkAC/pPB

> <OMEGA_E>
kLZgPlDJYD6AvGU+

> <OMEGA_NBR>
     34395

$$$$
442086
  -OEChem-04172616093D

 62 65  0     1  0  0  0  0  0999 V2000
    6.4025   -0.4966  -21.7313 C   0  0  0  0  0  0  0  0  0  0  0  0
    5.1990    0.1859  -21.9815 C   0  0  0  0  0  0  0  0  0  0  0  0
    7.1530   -0.1969  -20.5816 C   0  0  0  0  0  0  0  0  0  0  0  0
    4.7591    1.1884  -21.0971 C   0  0  0  0  0  0  0  0  0  0  0  0
    6.7062    0.7860  -19.6747 C   0  0  0  0  0  0  0  0  0  0  0  0
    5.5245    1.5322  -19.9532 C   0  0  0  0  0  0  0  0  0  0  0  0
    5.7505    4.9138  -19.9292 C   0  0  0  0  0  0  0  0  0  0  0  0
    7.5138    1.0210  -18.4150 C   0  0  0  0  0  0  0  0  0  0  0  0
    6.6009    1.5052  -17.2839 C   0  0  0  0  0  0  0  0  0  0  0  0
    8.5044    3.8219  -22.3636 C   0  0  0  0  0  0  0  0  0  0  0  0
    7.1042    3.2717  -22.7160 C   0  0  0  0  0  0  0  0  0  0  0  0
    8.5012    5.3613  -22.4439 C   0  0  0  0  0  0  0  0  0  0  0  0
    5.9584    2.8101  -17.7437 C   0  0  0  0  0  0  0  0  0  0  0  0
    5.9781    4.2846  -22.3896 C   0  0  0  0  0  0  0  0  0  0  0  0
    3.5942    4.5095  -18.6580 C   0  0  0  0  0  0  0  0  0  0  0  0
    3.6240    2.1223  -18.4155 C   0  0  0  0  0  0  0  0  0  0  0  0
    4.5872    3.9230  -19.6521 C   0  0  2  0  0  0  0  0  0  0  0  0
    7.5650    5.9531  -21.3373 C   0  0  1  0  0  0  0  0  0  0  0  0
    4.9864    2.5843  -18.9619 C   0  0  2  0  0  0  0  0  0  0  0  0
    7.2050    8.1586  -20.0971 C   0  0  0  0  0  0  0  0  0  0  0  0
    8.3068    8.2335  -22.3500 C   0  0  0  0  0  0  0  0  0  0  0  0
    5.3348    9.0401  -22.0795 C   0  0  0  0  0  0  0  0  0  0  0  0
    7.2169    7.5036  -21.5096 C   0  0  0  0  0  0  0  0  0  0  0  0
    6.3471    5.0877  -21.1975 N   0  0  0  0  0  0  0  0  0  0  0  0
    2.8140    3.3500  -18.1737 N   0  3  0  0  0  0  0  0  0  0  0  0
    6.1618    5.5736  -18.9811 O   0  0  0  0  0  0  0  0  0  0  0  0
    5.9063    7.6937  -22.1479 O   0  0  0  0  0  0  0  0  0  0  0  0
    6.7499   -1.2506  -22.4222 H   0  0  0  0  0  0  0  0  0  0  0  0
    4.6112   -0.0595  -22.8536 H   0  0  0  0  0  0  0  0  0  0  0  0
    8.0772   -0.7224  -20.3916 H   0  0  0  0  0  0  0  0  0  0  0  0
    3.8288    1.7014  -21.2914 H   0  0  0  0  0  0  0  0  0  0  0  0
    7.9985    0.0807  -18.1135 H   0  0  0  0  0  0  0  0  0  0  0  0
    8.2824    1.7827  -18.6130 H   0  0  0  0  0  0  0  0  0  0  0  0
    5.8232    0.7543  -17.0808 H   0  0  0  0  0  0  0  0  0  0  0  0
    7.1913    1.6777  -16.3719 H   0  0  0  0  0  0  0  0  0  0  0  0
    8.7717    3.5109  -21.3429 H   0  0  0  0  0  0  0  0  0  0  0  0
    9.2425    3.4216  -23.0741 H   0  0  0  0  0  0  0  0  0  0  0  0
    7.0740    3.0428  -23.7915 H   0  0  0  0  0  0  0  0  0  0  0  0
    6.9302    2.3509  -22.1401 H   0  0  0  0  0  0  0  0  0  0  0  0
    9.5245    5.7360  -22.2939 H   0  0  0  0  0  0  0  0  0  0  0  0
    8.1377    5.6737  -23.4339 H   0  0  0  0  0  0  0  0  0  0  0  0
    5.3877    3.2403  -16.9075 H   0  0  0  0  0  0  0  0  0  0  0  0
    6.7510    3.5107  -18.0454 H   0  0  0  0  0  0  0  0  0  0  0  0
    5.8310    4.9552  -23.2491 H   0  0  0  0  0  0  0  0  0  0  0  0
    5.0449    3.7388  -22.1865 H   0  0  0  0  0  0  0  0  0  0  0  0
    4.1220    4.9966  -17.8248 H   0  0  0  0  0  0  0  0  0  0  0  0
    2.9365    5.2396  -19.1524 H   0  0  0  0  0  0  0  0  0  0  0  0
    3.1212    1.4765  -19.1505 H   0  0  0  0  0  0  0  0  0  0  0  0
    3.7618    1.5690  -17.4749 H   0  0  0  0  0  0  0  0  0  0  0  0
    4.0717    3.6995  -20.5978 H   0  0  0  0  0  0  0  0  0  0  0  0
    8.1220    5.8747  -20.3919 H   0  0  0  0  0  0  0  0  0  0  0  0
    6.9671    9.2285  -20.1905 H   0  0  0  0  0  0  0  0  0  0  0  0
    6.4451    7.6674  -19.4716 H   0  0  0  0  0  0  0  0  0  0  0  0
    8.1945    8.0425  -19.6309 H   0  0  0  0  0  0  0  0  0  0  0  0
    8.0415    9.2961  -22.4519 H   0  0  0  0  0  0  0  0  0  0  0  0
    9.2797    8.1455  -21.8442 H   0  0  0  0  0  0  0  0  0  0  0  0
    8.3693    7.7740  -23.3475 H   0  0  0  0  0  0  0  0  0  0  0  0
    4.3603    9.0517  -22.5897 H   0  0  0  0  0  0  0  0  0  0  0  0
    5.2007    9.3283  -21.0264 H   0  0  0  0  0  0  0  0  0  0  0  0
    6.0143    9.7521  -22.5708 H   0  0  0  0  0  0  0  0  0  0  0  0
    2.6297    3.4487  -17.1958 H   0  0  0  0  0  0  0  0  0  0  0  0
    1.9489    3.2903  -18.6716 H   0  0  0  0  0  0  0  0  0  0  0  0
  1  2  2  0  0  0  0
  1  3  1  0  0  0  0
  2  4  1  0  0  0  0
  3  5  2  0  0  0  0
  4  6  2  0  0  0  0
  5  6  1  0  0  0  0
  5  8  1  0  0  0  0
  6 19  1  0  0  0  0
  7 17  1  0  0  0  0
  7 24  1  0  0  0  0
  7 26  2  0  0  0  0
  8  9  1  0  0  0  0
  9 13  1  0  0  0  0
 10 11  1  0  0  0  0
 10 12  1  0  0  0  0
 11 14  1  0  0  0  0
 12 18  1  0  0  0  0
 13 19  1  0  0  0  0
 14 24  1  0  0  0  0
 15 17  1  0  0  0  0
 15 25  1  0  0  0  0
 16 19  1  0  0  0  0
 16 25  1  0  0  0  0
 17 19  1  0  0  0  0
 18 23  1  0  0  0  0
 18 24  1  0  0  0  0
 20 23  1  0  0  0  0
 21 23  1  0  0  0  0
 22 27  1  0  0  0  0
 23 27  1  0  0  0  0
  1 28  1  0  0  0  0
  2 29  1  0  0  0  0
  3 30  1  0  0  0  0
  4 31  1  0  0  0  0
  8 32  1  0  0  0  0
  8 33  1  0  0  0  0
  9 34  1  0  0  0  0
  9 35  1  0  0  0  0
 10 36  1  0  0  0  0
 10 37  1  0  0  0  0
 11 38  1  0  0  0  0
 11 39  1  0  0  0  0
 12 40  1  0  0  0  0
 12 41  1  0  0  0  0
 13 42  1  0  0  0  0
 13 43  1  0  0  0  0
 14 44  1  0  0  0  0
 14 45  1  0  0  0  0
 15 46  1  0  0  0  0
 15 47  1  0  0  0  0
 16 48  1  0  0  0  0
 16 49  1  0  0  0  0
 17 50  1  0  0  0  0
 18 51  1  0  0  0  0
 20 52  1  0  0  0  0
 20 53  1  0  0  0  0
 20 54  1  0  0  0  0
 21 55  1  0  0  0  0
 21 56  1  0  0  0  0
 21 57  1  0  0  0  0
 22 58  1  0  0  0  0
 22 59  1  0  0  0  0
 22 60  1  0  0  0  0
 25 61  1  0  0  0  0
 25 62  1  0  0  0  0
M  CHG  1  25   1
M  END
> <OMEGA_C>
UOHMQL5I/r7I2a3BLl6mQFBiPj4K2q/BE+XkQNSnSb4yp6TBY0qYQNMcmD/cxqjBDJnWQGo2ST/h
ZZ3BZciwQP0fxD8poJ/BXQS4QHY9nUABb5/BC3HwQJuwgj/7UZPB1zrTQKqrwD98RYrB3REIQUya
dECm6LLBylXjQExkUUBjurXBGgUIQZGPq0AGjbPBWKu+QHrZM0AQ843BjUy/QM8biUD4HbPB/gZm
QM5NkECXQ5XBBu9nQBfUB0AFU5PBeMqSQOASe0CNN53B1xTyQI9/vkDGsqrB3JCfQA5lJUD4sZfB
X4/mQJyJAkHWxqDB2ugEQUe8A0HbzLLBqbaqQCakEEHZorDBzPDmQE8d8ECtE6zBQxvLQKjOokBm
lKnB5hg0QKtmVkClY5HBZi3FQNZaskA92ZfBaQC9QGoy9kDnLrHBHP/XQFAUoL+bYLPBIY+TQKyV
c71F1LbBDzwBQcHwOL8FIqPB6Ap1QKLI2T+xVKrBzPP/QDxdpT1b6JDBjYQEQdMu5D9c55TB61e6
QNkZQT9qpYjBNB/mQI291j+6+YLB4lgMQSmyYEBNvqrBZuETQef6WkDGl7jBDF7iQI29QkD9VL7B
WcTdQJJ0FkDgHrHBg2QYQQiNt0D7WbLBMzQCQR6PtUCyeLvB+WesQOVgT0B/QofBiwjYQLuuYEDw
XJDBiZe6QLOQnkBC/rnBEHChQK9Ib0DtfbHBGeeDQP7jn0A7mY7BIPA7QDSrp0AEOJnBU8JHQIj+
vD9FNJnBu8FwQNTUyD+QzIvBEkuCQAPEbEA2yKTBnPMBQYb9u0CzIqPBZ/LeQOinE0EUhqHBAT7O
QO9a9UDtxZvBxhwDQfytAEEFDJ3BAaoAQdy8FEGOnbPBl3kUQddTAkH0wK7BuugFQYDE+EC0x7rB
2oeLQMHTEEGzt7TByGumQJ5AFUErNqjB63TAQHQIHEEOkbTB0EwoQCe3XEDokInBJHT5PwOUUkBj
X5XBXTnQQIPb2L4ZFq7BKVCnQFpfAD68qa/BYnXoQODGVb2/FqXB/piWQGqKhT/ZPKjBl03YQBaI
Yj8lrp3BFtauQKnwuD9RM5/BpaK5QOE/mEAPBp/BWFXyQIFolD/Wr5PBcgvoQKzcIUBr+o7BThwK
QWkyfkAEvrLBVuDqQMXZTUBbyLXBFsIGQYP0r0Cmn7PBpLi3QLdiKEBo8ozBkFTCQD+efkB2YbLB
vcBkQBvCj0BkbpXBuCldQO1cBkCiApTBaL2SQB3mdUBk75zB2e7qQKouwECff6vB0yicQP8IH0Bf
YpfBWku1QAoL40Bl17jBxA25QAkw/kBIAabBzRTqQHcdGkGmEbXB1i/UQEj56kDfSK/BDXbLQNUv
nUA3VqnBt/IwQMKyV0CVLJHBQaTGQNhorkDzlZfBjln2QIRHBEHmarLBxAndQCynkL8dyLPBprOU
QAq/Ib7UlLbB7dcDQUap+b6K1qPBtdBtQPBIuT9rbqnBkCDrQCwBxj49sI3B/UYKQX2qjz/nuZXB
dF/5QMoTKkAyY4fBEuLxQO8XVEDKoZTBmoUOQY79bUCvd6rBBBAXQd3CakDJLrjBJDnqQK3nRECB
gr7B4wzrQE7/DkCn0bHBVgIWQc4xwECN8rHBC4MBQd65t0C8y7vBdmyuQObV6j/NVofBMuqwQCYm
Z0CbV4nBL1C2QPPQkUClPLnB7NqpQKdEUEAq2K/BdtWCQCqeoECj5I7BAwI8QIVwpkBt1JnBlso7
QCUEzT9JqJrBTQ1fQO+ftj8rDY3BmPKCQC/XaEDnoKTBuZv7QP6Fx0AV+KPBOEGmQE63AEFmNLvB
UGjHQNn11UAkpL/BSGCcQOsdzEDWb7bBdXypQNrmDUEpvajBRX6gQA325kASjaPBqgPOQLSuAkGy
Kp/Bgl8DQbtYI0FYQbfBhaXTQC/tGUFv2bvBQJHaQOySIUEEG67B5/UrQKG6XEArOYnBphDtP3K3
WECfcJTBljPQQLRW7L5QuK3BVMGpQAhuWD4J+a/BS3rmQIJ6Pr73NKTBCk6aQJiVmD9G46jBZY7W
QIPpQz+J5ZzBIzSxQLQ+wj9YcZ/BqcW4QFaum0BcYJ/BqEvuQLmtdT+TbZLBEAfQQN6gvT9RuYnB
hiQHQTy0eUCKmbTBGJbgQDgzWUBgK7fBHnYHQeQhrkCA/bPBSDS9QEz4MkAxuY3Bboi9QFExjEAG
cLPBIvlkQLpUkEDjp5XBENhlQH6zB0BYkpPBpfqSQGCNeUBGTZ3Bt1/yQL7AvUA2e6rBewmfQHJi
JEAkpJfBulK3QDBM+kCeYarBder9QKypAUHgnKDBn5L3QG7LGEHCfrXBG1voQPjr70AfsarBHH/L
QBksokBeianBAQU0QIApV0CgWpHBRcrFQLDBsECEwZfBhTP7QCCsAUECTbTBPZzcQDhMmL+iS7PB
wQ6YQNX9ybxZJrfBk/wBQeHCNL82fKLBy195QE/w2T/gqKrBG9j7QL65XLtu24/BfiYEQebC1z9E
oZPBGUW2QMDkQD8vSojBBdrhQJIj0z9qQYLB1U8MQacqX0Cb3qzBiyoSQRNtZEBZ7LrBLLrdQJlR
UECs3r/BeqXbQNd+G0DrHbPBuP4XQQsiuUAmwLLBQEIBQf10u0CYhbvBZp6qQBGlUEBPPIfBTXnX
QIjpXUBZEZDBSdO3QDsTpEAovrnBr8efQJX3dEBH2rHBPM6CQPSPoUAfKI/BeEY6QClzpkBK8ZnB
nUVFQJAkwj/8spnBVtxsQFmYwz9DNYzBwTyDQLzNakAx9KTB1bECQTVtuEBQMqPBwayyQHKXDkGU
i6rB9Y+nQFfW60DMXrHBfkupQM0l7UCeAqPBIfb3QJwAE0HjXqDBL3vwQLVO9EC3ZZnB3EsQQbpo
/UCy7KDB1YADQfnFHUGPAL3Bt5LVQHNWHUFfrLXBVLIDQSq7IEGJta7B/OkrQCYXXkBAd4nBV7z1
P2TQU0Ad7pTB8MPOQL3/7L6rEK7BF4imQDD/Aj4cx6/BszfnQOjCyb1bFqXB37eWQFZoij9ZgqjB
IdnXQBnHXT8hzZ3BMQ2vQH73uz8gc5/BxAC5QOgwmkBxJJ/Bt+3xQNwckT9Az5PBmYzoQChNIUDn
SI/B6SkJQc7wcEDD/bHBfGrnQP4MTUAdG7bBTh8JQZCvqUDqrbLBMm+4QLJgKUBJKI3B3dTAQNbQ
gUBRkbLBVepkQKDyj0CUQZXBSYZeQICSBkAXGJTB/4qSQMTpd0Dh+JzBHGTvQOvpvUA7MavB95ec
QNZiIECDjZfBA0gCQaRiBEGYvLHBxpLCQIIS5kAokLnBdumsQLp+EkERNqnB8gjeQArL6kClQq/B
+fTLQDxMnkAAYKnBWZYxQH0wV0BlJJHBHMTFQKqRsEApuZfBhuTDQDmU/UCctabBFeHaQFsVmb/1
o7PBrr6TQIXtGb79rbbB2f8CQRB+D7+lwaPBdk1vQMMRwz972KnBEPzpQLETwT4BvY3BUBMKQWKF
iD9JzJXBWkD6QN4pKkB5wofBV4PyQBteUkA4FZXBh3sLQf9eXUAznqnBeksWQfd+V0CR6bbByU7o
QFlCS0B25r7BMFHjQFO6C0Ae/bLBxPMYQRCztUDVRrDBy9QFQTE9s0DY/LrBCemuQGHg7T+2f4fB
QTOyQFl+aECSlYnBdlq2QGCzlUALV7nBH5+mQObLWEDmJrDB5SqDQJ01oEDmqY7BIbQ7QGIAp0Ao
dpnBUAc9QApfzT+huprBRWZhQJphtj85LI3BNFCCQJ5Ga0CanqTBDuH+QHzPw0C8baPB5qD4QKHz
E0HkjrTBh9ALQam0BkFWbqrBzlUMQYMt+kBz+LfBWi63QIziAkF0HrzBMSPWQFPV10BG9L/Bp/em
QMlC0UBq6LfBwLyaQAC/F0GnJaLB6vDDQBwBH0FSfKvBEL2WQMqWD0G346/BilgsQDZSW0CQL4nB
e4HuP1QUWEBebpTBMcLMQM9NBr8crK3BdWumQM1aKD5eu6/BBazkQFcgZ75DdaTBCXqYQBhtlj97
t6jBPnPWQPRjQz8OP53BA/CwQEyowj9nkJ/B9PK3QPdtnUAZhJ/B9xbwQIz+fT9HH5PB1gbTQI9G
wT8/KYrBUrIHQWvPdUCU57LBoXLiQFTFUkDLqLXBIcYHQfEorEAckLPBRya/QIdVNEB6Bo7BgYe+
QEZLikAeSbPBN01mQHs5kECjXZXBX61oQJHkB0ANQZPByQSTQIXEekBuR53BnXvxQHjyvkAYs6rB
DN2fQPtLJUDIspfBCZfwQKv7AkFNpLbBBnO8QDPl/0Dp2afBZnIaQcNV/kCHT6XBATXqQDi18UDw
XKvBkNzJQDBFpED2xqnBPG40QJ1eVkDRdpHB4xnFQKS0skAs75fByaoDQQMVA0Et0qPBCtLXQC05
pL/NKrPBbKKTQEDJqL3JtbbBOg4BQYulQb8M5KLBVa11QM3A2D9gUarBBcn+QIRJMj1HmpDB8KgE
QXzQ3T8Bt5TBGL+5QLdeRj8ydIjBqO3lQLgX2D8w4ILBXwkMQV7xYUD3vqrBUWwTQULrW0D4nLjB
zI/hQHV1QkCNN77BY5jcQPTUGEAk4bDB3CcYQfgOuEB4VrLBxQICQbs9tkCSfLvBCzStQE2KUUCz
ZIfBMdzYQL7nX0A/kZDBLIW6QP9/n0DRPLrBrGOgQDRdckCgv7HBrvWDQPXzn0BdtY7BTjY8QBt9
p0CDW5nBqqhIQC1Suz/wC5nB3sBxQNL1yj9RqYvBupSCQLwPbEAg16TBfXwBQc8cukCxKKPBiNzq
QGFTFEGNMrbBFMIIQfwHAEGGYbnB0+bZQFp690DOT7zBQ6+5QAVyEUG9f6jBNYekQPOp8EB2EK3B
r9y2QCgg9kBdg5/BUo0jQWvDB0FsIJ/BWqYdQbnR20BKqqTBVlgfQX/eBEGJRK3B/xEoQKMyXUBK
qYnBN7T6P/wKUkCVgJXBVTzSQHCW+L4hHa3B0oGqQCct3z0DY6/BbLroQHzp+L3l0qPBB1uZQERa
iT8/Z6jBWdXXQF3EVz/cwJzBHpGvQByxuT9A/J7BWR26QACEmEDDI5/B04nvQGvVjD9AYJLBEtzl
QCGJH0D1CI7BvdwGQYRZeEAcZbXB7RrgQO3aU0A377bBhVMGQd55rUDDqLTBpVW1QFSrKUCFq4zB
oEq9QAKriUBCQbPB38xjQLapkEDbAJbBqDBbQB1aCEAajpTBWAmTQMFxdkDqLp3Bv+fyQCBEu0Cs
hqrBob6bQLQFIEBRbpfB28MDQVGBBEFezbDB57y6QMCw90BUK67BeugHQXYn9kC7w5jBg17oQIZB
7UDf+KnBEdnLQKzbn0B0YqnBsl0xQCEDWkC+VJHBCo7IQIDIq0CEZZfBELboQA6D/EDp557Bz3ff
QHdanL+ngLLBdiGZQO3kMr6LgLbBA5cDQd1rFb+oFaLB6dh1QNjwwz97PKrB56rlQGijsz7ybIzB
hhIJQYOzgT/C05PB+LP1QJTmJ0AkP4bBSMHxQPQMUEAHrZPBuroNQWFHXkAJ+q3BxN4QQTlcZUDJ
O7zBDUDbQMaJRUDxdr/BDRvdQImTGEA+P7LBFsYWQYbMuUAzGLTB4Cf9QAyZukDt2LvB0gSqQLMH
8T+DCofBD+KuQMSRaUD+WInBYYm3QONioUCYmLnBIX6fQHRRcEBIlrHBULmBQJU4o0BoqI/BYT86
QKfqpUDWt5rByV86QM7y2D9khJvBvi9aQNaxtD8n5Y3BOA+EQH+MaECK9KTBvsoDQXJ8tED7m6PB
657+QNB4FUFaFrDBazsUQdBBAkEL6K3BAMECQbEn/0AxPLnBxQ61QCMuDUGgn63BXPW3QIVw7UAh
j7bBcOOiQMel5kAYTKnB5MMFQQuJAUEcppDB0X8LQYq/00DeSJjB4DoVQRJrA0FhuZzBKaIwQKzt
XkDuWonBp77qP5O/W0DMG5TBi03SQCQqwL6yP67BGd6pQOF6SD74F7DBwATpQMCOW73g4qTB9gmY
QBWvij8AjqjBWvXXQEMOXD/oYZ3Bj7euQOactz/HHJ/Bdj67QO4Bl0AsdJ7BrjXxQLDgjj/7MpPB
zbvmQLfsHkC1Yo7BHy4EQU8zjEA987vBfh3XQM+7iUDwD7zBj0ENQcf+lkA9tLDBRxK2QCnkJUCz
n4zBLuXFQHcuc0CmRbHBqdRjQJcbkECbWZXBJ+xZQF+WBkA2OJTB+/+SQNbqdUC2sZzBesz6QAFr
r0CFM6nB10abQPoFHkB9PpfBKtADQYD970Aad7bB47fAQK8p60C31KzBfk34QHRoEkHWvqHBA8Xx
QNqb4ECl8KvB1cXSQPqzlUBgJKjBJqEvQDt+WECZBJHBTaPGQF/CrkBVJZfB7VcCQXlF+EAK/6LB
1uLfQFWbh78AArTBrm+YQI6HPL2ITLfBsuYDQTQ5Ar/2aaPBgGZxQP9YwD+v+anByl/pQFalqz7e
UY3BussJQSXciT8gD5XBJFz3QMUNJkAzrobBxUTxQLOmUUDP45PBFqcKQWM1WkB3gb7B/U0JQbgs
pUD3mMHB0AnKQKLKqUBbpr3BmOzMQPhNZ0CbbMLBJbwRQaKgcUCdxKzBJJcbQSb5qkD+w7HB/Rys
QMnp5D+7J4fBEyavQOtaZEDK84jBL7+iQAsAcUCYqbHBcGXSQBRhMkBi1q/BSemBQA53oUBe0o7B
0107QJFmpkAG6ZnBabU4QEdR1D/3HZvBi3lZQBcTsj+Sgo3BagKEQFYnakDzhKTB/voEQRyWr0B0
QqHBhwYAQR73CEHt07fBbD8VQaoN7EDBxbXBu8T7QPbV3EAcOr3BjY+8QGKlBkGxt67BAlqyQMeq
10CbN7PB6eewQM/n40BWLqXBSmUEQRtEGUGFxJrBgp8AQbtlG0Ec+ajB0HzVQDJsE0EPjaDBuMAs
QCJ/XECvConBOOHoP1DyWkCdC5TB

> <OMEGA_E>
UHIaP5iNGz808Bw//EcdP8p9JD+K8Ck/MOw3Pw==

> <OMEGA_NBR>
     41703

$$$$
50199277
  -OEChem-04172616093D

 52 55  0     1  0  0  0  0  0999 V2000
    6.1584   10.0443  -22.1600 C   0  0  0  0  0  0  0  0  0  0  0  0
    5.3342    9.1761  -21.4235 C   0  0  0  0  0  0  0  0  0  0  0  0
    7.3876    9.5836  -22.6670 C   0  0  0  0  0  0  0  0  0  0  0  0
    5.3852    0.2037  -21.8453 C   0  0  0  0  0  0  0  0  0  0  0  0
    6.6525   -0.3397  -21.5688 C   0  0  0  0  0  0  0  0  0  0  0  0
    5.7338    7.8468  -21.2012 C   0  0  0  0  0  0  0  0  0  0  0  0
    7.7975    8.2567  -22.4357 C   0  0  0  0  0  0  0  0  0  0  0  0
    4.8331    1.1635  -20.9806 C   0  0  0  0  0  0  0  0  0  0  0  0
    7.3512    0.0515  -20.4099 C   0  0  0  0  0  0  0  0  0  0  0  0
    6.9667    7.3623  -21.7180 C   0  0  0  0  0  0  0  0  0  0  0  0
    5.5425    1.5906  -19.8306 C   0  0  0  0  0  0  0  0  0  0  0  0
    6.7965    0.9991  -19.5267 C   0  0  0  0  0  0  0  0  0  0  0  0
    5.7361    4.8201  -19.9322 C   0  0  0  0  0  0  0  0  0  0  0  0
    8.3088    3.8219  -22.5695 C   0  0  0  0  0  0  0  0  0  0  0  0
    6.8801    3.3974  -22.9876 C   0  0  0  0  0  0  0  0  0  0  0  0
    8.4019    5.3595  -22.5008 C   0  0  0  0  0  0  0  0  0  0  0  0
    5.8015    4.3702  -22.4571 C   0  0  0  0  0  0  0  0  0  0  0  0
    3.6072    2.1671  -18.3219 C   0  0  0  0  0  0  0  0  0  0  0  0
    3.5106    4.5287  -18.7293 C   0  0  0  0  0  0  0  0  0  0  0  0
    4.9247    2.6434  -18.9244 C   0  0  2  0  0  0  0  0  0  0  0  0
    7.4504    5.9372  -21.3981 C   0  0  2  0  0  0  0  0  0  0  0  0
    4.5227    3.9087  -19.6743 C   0  0  2  0  0  0  0  0  0  0  0  0
    6.2858    5.0269  -21.2182 N   0  0  0  0  0  0  0  0  0  0  0  0
    2.7496    3.3767  -18.1908 N   0  3  0  0  0  0  0  0  0  0  0  0
    6.2399    5.3744  -18.9589 O   0  0  0  0  0  0  0  0  0  0  0  0
    7.7376    1.3936  -17.9011 Br  0  0  0  0  0  0  0  0  0  0  0  0
    5.8487   11.0638  -22.3366 H   0  0  0  0  0  0  0  0  0  0  0  0
    4.3936    9.5304  -21.0283 H   0  0  0  0  0  0  0  0  0  0  0  0
    8.0188   10.2504  -23.2356 H   0  0  0  0  0  0  0  0  0  0  0  0
    4.8380   -0.1159  -22.7199 H   0  0  0  0  0  0  0  0  0  0  0  0
    7.0906   -1.0580  -22.2459 H   0  0  0  0  0  0  0  0  0  0  0  0
    5.0971    7.1860  -20.6315 H   0  0  0  0  0  0  0  0  0  0  0  0
    8.7530    7.9184  -22.8085 H   0  0  0  0  0  0  0  0  0  0  0  0
    3.8595    1.5794  -21.1941 H   0  0  0  0  0  0  0  0  0  0  0  0
    8.3190   -0.3779  -20.1968 H   0  0  0  0  0  0  0  0  0  0  0  0
    8.5405    3.3982  -21.5812 H   0  0  0  0  0  0  0  0  0  0  0  0
    9.0317    3.4456  -23.3083 H   0  0  0  0  0  0  0  0  0  0  0  0
    6.8253    3.3729  -24.0859 H   0  0  0  0  0  0  0  0  0  0  0  0
    6.6781    2.3927  -22.5878 H   0  0  0  0  0  0  0  0  0  0  0  0
    9.4377    5.6460  -22.2666 H   0  0  0  0  0  0  0  0  0  0  0  0
    8.1169    5.7800  -23.4765 H   0  0  0  0  0  0  0  0  0  0  0  0
    5.5930    5.1356  -23.2191 H   0  0  0  0  0  0  0  0  0  0  0  0
    4.8803    3.8104  -22.2380 H   0  0  0  0  0  0  0  0  0  0  0  0
    3.1290    1.4306  -18.9843 H   0  0  0  0  0  0  0  0  0  0  0  0
    3.7810    1.7140  -17.3347 H   0  0  0  0  0  0  0  0  0  0  0  0
    4.0180    5.0724  -17.9188 H   0  0  0  0  0  0  0  0  0  0  0  0
    2.8438    5.2161  -19.2706 H   0  0  0  0  0  0  0  0  0  0  0  0
    5.6288    2.8988  -18.1188 H   0  0  0  0  0  0  0  0  0  0  0  0
    8.0160    5.9741  -20.4554 H   0  0  0  0  0  0  0  0  0  0  0  0
    4.0415    3.6465  -20.6281 H   0  0  0  0  0  0  0  0  0  0  0  0
    1.9048    3.2532  -18.7113 H   0  0  0  0  0  0  0  0  0  0  0  0
    2.5282    3.5346  -17.2285 H   0  0  0  0  0  0  0  0  0  0  0  0
  1  2  1  0  0  0  0
  1  3  2  0  0  0  0
  2  6  2  0  0  0  0
  3  7  1  0  0  0  0
  4  5  1  0  0  0  0
  4  8  2  0  0  0  0
  5  9  2  0  0  0  0
  6 10  1  0  0  0  0
  7 10  2  0  0  0  0
  8 11  1  0  0  0  0
  9 12  1  0  0  0  0
 10 21  1  0  0  0  0
 11 12  2  0  0  0  0
 11 20  1  0  0  0  0
 12 26  1  0  0  0  0
 13 22  1  0  0  0  0
 13 23  1  0  0  0  0
 13 25  2  0  0  0  0
 14 15  1  0  0  0  0
 14 16  1  0  0  0  0
 15 17  1  0  0  0  0
 16 21  1  0  0  0  0
 17 23  1  0  0  0  0
 18 20  1  0  0  0  0
 18 24  1  0  0  0  0
 19 22  1  0  0  0  0
 19 24  1  0  0  0  0
 20 22  1  0  0  0  0
 21 23  1  0  0  0  0
  1 27  1  0  0  0  0
  2 28  1  0  0  0  0
  3 29  1  0  0  0  0
  4 30  1  0  0  0  0
  5 31  1  0  0  0  0
  6 32  1  0  0  0  0
  7 33  1  0  0  0  0
  8 34  1  0  0  0  0
  9 35  1  0  0  0  0
 14 36  1  0  0  0  0
 14 37  1  0  0  0  0
 15 38  1  0  0  0  0
 15 39  1  0  0  0  0
 16 40  1  0  0  0  0
 16 41  1  0  0  0  0
 17 42  1  0  0  0  0
 17 43  1  0  0  0  0
 18 44  1  0  0  0  0
 18 45  1  0  0  0  0
 19 46  1  0  0  0  0
 19 47  1  0  0  0  0
 20 48  1  0  0  0  0
 21 49  1  0  0  0  0
 22 50  1  0  0  0  0
 24 51  1  0  0  0  0
 24 52  1  0  0  0  0
M  CHG  1  24   1
M  END
> <OMEGA_C>
iRHFQIC1IEG9R7HBz7GqQFjREkFtY6vB+mbsQHNWGUEBVrXBXlOsQMCPUD5Aw67B7+DUQETvrb7W
jKzB7nq3QKIY+0AJnKnBZIX5QJIbBEFafLPBo6iaQH7slD852KfBED3rQKD1Uj13R6PBbO/eQE6Y
60B8vq3BglyxQO6Xyz8npZ7BTn3ZQMTDfz+hNpzBx423QOQ9mkATdZ/BAvEEQWOZdEBjjrTBAyrc
QNduWUCR5rfBA24GQUCBq0CzAbTBLKa5QGrYi0AYqLPB59tmQAuyCkAvk5LBSq5gQFjrkECx1ZXB
UJedQKAtKUA+ZZfBZmnuQKL9vUBaL6vBNbqQQNEoekD/ZJ3BYSXJQFzcoEDavqnBNPovQBcbWEDI
hpHB7azHQML6q0Diq5fBp5r3QDJisj9hNY/BfCi7QDUFMUFssbLBjpiMQGh8GEECOqjBJU0AQXwB
JEGQ4rnBy9CaQBBb7b1awrXBK+biQDtth7+M97HB2hujQPvz5UBCDaXBTwwMQYJj/UDpd7bBXwJ3
QE0pyj94janBlRoFQep6wb4Jk6HBtaUIQWV7WUBBpqzBB4IQQaqEXEB2d7rBo2jaQOTcV0ABsMDB
IrPVQA4iGUDks7TBBAEXQQ+stED+IbLBn94BQXT1uEDzz7vB2fmyQOFWpECiwLnBoCucQC7dc0Bg
57HBtkFIQG4ctz/h35fBbftxQINl2z90rYrBVpOAQAdRokCjWY/BZwE2QAfqpkAmKprBax+0QJeG
OUBk85DBiEEAQW8rv0CupKPBU1SBQKpgaUBYBqXBr8/zP/I0UEDYsJXBZM4hQFo2YkD604nBzMbG
QMWyIEGwxLDBTkruQPlPGUEotLTBpH6rQByiEkGvP6vBNKavQKggcj67xK7B8/7XQGzwl77NL6zB
87X6QBLoA0HSFbPB/pC3QMZb+kB3t6nByaycQEwhmD+Z/6fBdJLsQJCrqT3BoaLBAELfQMjc6kDv
t63BDbyxQMbezT/Mip7BfVPZQPK5gT8+rZvBZCG3QAAWmkDyl5/BtykEQVOmc0AaRrXB02zaQPUg
W0CEtbjBMQAGQYzZqkB/bLTBbDm4QFyUi0BZ0rPBuKJkQGB2CkB76JLBD1FgQJApkUAeuZXBtMqc
QGOkKUBJbpfBBDjuQHzZvECpaavBNxeQQIulekAzaZ3BINfIQNzin0DD6KnB+w0vQK1zWED6f5HB
tI3HQFD/q0Ah35fBzaf0QArXsD8ZPY7BCGy9QFgnMUG2/LHB+ZQBQd8aJEE6+7jBMj6NQPNOGEHQ
LqjBMk2fQMT8rb3w7rXBsjnnQHaWf7/9ibHBNbgMQZH1/EAd9rXBbHmiQE/v5ECQdKXBp5x7QJw4
zT/nBKrBgKcFQaRer745oKDBiLoHQb2uVkA2dK3BTKMPQZf3W0DuQLvBb0fYQFmjXkBSe8HB9uTT
QLM6GUAhFLbBLa0WQeles0CxlbLBRF4BQdY1uUD3HbzBxQ2wQEyipEDWp7nBsGmbQM3GcUBb5LHB
Z81FQESYuz9Rg5jB0J9uQE7a1D8TLIvBCcaAQPMEokCoNY/Bvd81QH+gp0C875nBaoKyQFwwOkBL
0pDBkWsAQftZvUAv8qPBUEKAQLIXakBM/qTBA3jwP5IgUkBDjZXBwDsiQEZVYUC5vYnByoe+QMBh
H0HXCK/BuW3LQDiOF0EH/KTBSFbBQB4pEkGGILjBcF/oQKOZtz6PZqHBxIwCQcAySLt8QZnBYw3c
QBe1AkG8E6TBIYnQQAAP+kDwK7fBXOXHQMQ+pj8fWp/B8n8AQWrbED8AA4/B1+XeQDNo6kDHJa3B
znrEQI9s9j/yNZXBh9XgQKauwj/f64zBK6O3QFjCm0Ckup/BsScJQby3eUCZC7XBidLmQA0nS0Aa
crbBJj8GQTbPrUDzU7XBZDLAQIXYgUDBILPBOQVuQAQRGUAzrI/BWwtXQOhpj0BG6pjBweehQE7x
PkCIDZPBQobvQO+BvEDbxqvBGOiUQH4adUCDwJzB5oLLQFbmnUCn7qnB7qMtQPGuXUCb4JHBSfHC
QPs9tEB8lpjBEGDcQDHFDkCgan3B0X2yQBaDL0HYxa/BkpLIQBGLIUFa+J3BPs+3QPk8GEE527/B
ETjrQKk2r711PqnBACIPQYFCN7862prBasDmQDHk+UAbYpzB8UDRQKB45UDoG77BcUqxQAHyxT95
lKXBNlALQbHniT4stIjBXzAQQbFSZ0A0UK3BbvgTQRF9ZkDujrvBvx7jQOUqOUA5577BTezmQMoZ
EUCsd7HBEfwVQbRavUC+rrTBAE39QCwMt0A07LzB6a+2QIzrlUBZ9LnBuVKlQBIdWkDh07DBDItf
QK+4vj+dYJTBya5uQEPZCEAYHIfBQ/NkQIvGrEAqYpTBEm4tQAwkl0DEvp/Bp1GtQDvvaUAAsozB
rOQBQTE2vEDPlKTB72iOQA5fS0CKpqPBYlf1P+CkREAUkZXBez8bQN3peEAoA4vB

> <OMEGA_E>
QgUHP+bDCj9YL0w/

> <OMEGA_NBR>
     44638

$$$$
442094
  -OEChem-04172616093D

 71 76  0     1  0  0  0  0  0999 V2000
   11.3823    1.3027  -23.5437 C   0  0  0  0  0  0  0  0  0  0  0  0
   11.1334    2.3080  -24.4995 C   0  0  0  0  0  0  0  0  0  0  0  0
   10.5969    1.2238  -22.3779 C   0  0  0  0  0  0  0  0  0  0  0  0
    7.8217    9.2788  -23.0220 C   0  0  0  0  0  0  0  0  0  0  0  0
   10.0923    3.2308  -24.2989 C   0  0  0  0  0  0  0  0  0  0  0  0
    9.5605    2.1494  -22.1715 C   0  0  0  0  0  0  0  0  0  0  0  0
    8.0959    7.9559  -22.6201 C   0  0  0  0  0  0  0  0  0  0  0  0
    4.7504    1.1291  -21.0523 C   0  0  0  0  0  0  0  0  0  0  0  0
    6.6216    9.9052  -22.6342 C   0  0  0  0  0  0  0  0  0  0  0  0
    5.2762    0.1737  -21.9315 C   0  0  0  0  0  0  0  0  0  0  0  0
    5.9634    7.8944  -21.4404 C   0  0  0  0  0  0  0  0  0  0  0  0
    9.2950    3.1493  -23.1423 C   0  0  0  0  0  0  0  0  0  0  0  0
    7.1623    7.2504  -21.8243 C   0  0  0  0  0  0  0  0  0  0  0  0
    5.4849    1.4874  -19.9002 C   0  0  0  0  0  0  0  0  0  0  0  0
    5.6814    9.2015  -21.8578 C   0  0  0  0  0  0  0  0  0  0  0  0
    6.7561    0.8736  -19.6959 C   0  0  0  0  0  0  0  0  0  0  0  0
    6.5238   -0.4108  -21.6483 C   0  0  0  0  0  0  0  0  0  0  0  0
    5.7141    4.8404  -19.7739 C   0  0  0  0  0  0  0  0  0  0  0  0
    7.5717    1.1445  -18.4508 C   0  0  0  0  0  0  0  0  0  0  0  0
    7.2768    2.5336  -17.8895 C   0  0  0  0  0  0  0  0  0  0  0  0
    5.7720    2.6440  -17.6055 C   0  0  0  0  0  0  0  0  0  0  0  0
    6.8570    3.4543  -22.7070 C   0  0  0  0  0  0  0  0  0  0  0  0
    8.6304    5.0609  -21.7213 C   0  0  0  0  0  0  0  0  0  0  0  0
    5.8145    4.4770  -22.2983 C   0  0  0  0  0  0  0  0  0  0  0  0
    3.5109    4.4538  -18.6238 C   0  0  0  0  0  0  0  0  0  0  0  0
    3.4865    2.0589  -18.4634 C   0  0  0  0  0  0  0  0  0  0  0  0
    8.2071    4.1759  -22.9228 C   0  0  1  0  0  0  0  0  0  0  0  0
    7.5004    5.9332  -21.1382 C   0  0  2  0  0  0  0  0  0  0  0  0
    4.5455    3.8591  -19.5635 C   0  0  2  0  0  0  0  0  0  0  0  0
    4.8923    2.4991  -18.8975 C   0  0  2  0  0  0  0  0  0  0  0  0
    4.4226    9.8775  -21.3712 C   0  0  0  0  0  0  0  0  0  0  0  0
    7.2344   -0.0579  -20.5552 N   0  0  0  0  0  0  0  0  0  0  0  0
    6.2814    5.0947  -21.0348 N   0  0  0  0  0  0  0  0  0  0  0  0
    2.7244    3.2992  -18.1443 N   0  3  0  0  0  0  0  0  0  0  0  0
    6.1175    5.4636  -18.7961 O   0  0  0  0  0  0  0  0  0  0  0  0
    7.1605   -1.6299  -22.7172 Cl  0  0  0  0  0  0  0  0  0  0  0  0
   12.1779    0.5906  -23.7061 H   0  0  0  0  0  0  0  0  0  0  0  0
   11.7440    2.3695  -25.3882 H   0  0  0  0  0  0  0  0  0  0  0  0
   10.7905    0.4546  -21.6449 H   0  0  0  0  0  0  0  0  0  0  0  0
    8.5354    9.8146  -23.6303 H   0  0  0  0  0  0  0  0  0  0  0  0
    9.9046    4.0017  -25.0317 H   0  0  0  0  0  0  0  0  0  0  0  0
    8.9647    2.0996  -21.2721 H   0  0  0  0  0  0  0  0  0  0  0  0
    9.0185    7.4808  -22.9194 H   0  0  0  0  0  0  0  0  0  0  0  0
    3.7932    1.5872  -21.2533 H   0  0  0  0  0  0  0  0  0  0  0  0
    6.4227   10.9241  -22.9320 H   0  0  0  0  0  0  0  0  0  0  0  0
    4.7290   -0.1114  -22.8179 H   0  0  0  0  0  0  0  0  0  0  0  0
    5.2546    7.3707  -20.8160 H   0  0  0  0  0  0  0  0  0  0  0  0
    7.3254    0.3900  -17.6892 H   0  0  0  0  0  0  0  0  0  0  0  0
    8.6408    1.0780  -18.7007 H   0  0  0  0  0  0  0  0  0  0  0  0
    7.8409    2.6827  -16.9570 H   0  0  0  0  0  0  0  0  0  0  0  0
    7.5717    3.2987  -18.6227 H   0  0  0  0  0  0  0  0  0  0  0  0
    5.4895    1.8503  -16.8982 H   0  0  0  0  0  0  0  0  0  0  0  0
    5.5717    3.6265  -17.1533 H   0  0  0  0  0  0  0  0  0  0  0  0
    6.9643    2.6991  -21.9145 H   0  0  0  0  0  0  0  0  0  0  0  0
    6.5469    2.9638  -23.6415 H   0  0  0  0  0  0  0  0  0  0  0  0
    9.0016    4.4013  -20.9231 H   0  0  0  0  0  0  0  0  0  0  0  0
    9.4409    5.7262  -22.0538 H   0  0  0  0  0  0  0  0  0  0  0  0
    5.7133    5.2454  -23.0790 H   0  0  0  0  0  0  0  0  0  0  0  0
    4.8438    3.9841  -22.1411 H   0  0  0  0  0  0  0  0  0  0  0  0
    4.0010    4.9646  -17.7818 H   0  0  0  0  0  0  0  0  0  0  0  0
    2.8657    5.1660  -19.1592 H   0  0  0  0  0  0  0  0  0  0  0  0
    2.9928    1.5108  -19.2793 H   0  0  0  0  0  0  0  0  0  0  0  0
    3.5496    1.4144  -17.5742 H   0  0  0  0  0  0  0  0  0  0  0  0
    8.1272    4.8123  -23.8164 H   0  0  0  0  0  0  0  0  0  0  0  0
    7.8041    6.1851  -20.1115 H   0  0  0  0  0  0  0  0  0  0  0  0
    4.0723    3.6609  -20.5366 H   0  0  0  0  0  0  0  0  0  0  0  0
    3.6112    9.7066  -22.0940 H   0  0  0  0  0  0  0  0  0  0  0  0
    4.1369    9.4607  -20.3941 H   0  0  0  0  0  0  0  0  0  0  0  0
    4.6022   10.9580  -21.2706 H   0  0  0  0  0  0  0  0  0  0  0  0
    2.5873    3.3686  -17.1562 H   0  0  0  0  0  0  0  0  0  0  0  0
    1.8362    3.2793  -18.6035 H   0  0  0  0  0  0  0  0  0  0  0  0
  1  2  1  0  0  0  0
  1  3  2  0  0  0  0
  2  5  2  0  0  0  0
  3  6  1  0  0  0  0
  4  7  1  0  0  0  0
  4  9  2  0  0  0  0
  5 12  1  0  0  0  0
  6 12  2  0  0  0  0
  7 13  2  0  0  0  0
  8 10  1  0  0  0  0
  8 14  2  0  0  0  0
  9 15  1  0  0  0  0
 10 17  2  0  0  0  0
 11 13  1  0  0  0  0
 11 15  2  0  0  0  0
 12 27  1  0  0  0  0
 13 28  1  0  0  0  0
 14 16  1  0  0  0  0
 14 30  1  0  0  0  0
 15 31  1  0  0  0  0
 16 19  1  0  0  0  0
 16 32  2  0  0  0  0
 17 32  1  0  0  0  0
 17 36  1  0  0  0  0
 18 29  1  0  0  0  0
 18 33  1  0  0  0  0
 18 35  2  0  0  0  0
 19 20  1  0  0  0  0
 20 21  1  0  0  0  0
 21 30  1  0  0  0  0
 22 24  1  0  0  0  0
 22 27  1  0  0  0  0
 23 27  1  0  0  0  0
 23 28  1  0  0  0  0
 24 33  1  0  0  0  0
 25 29  1  0  0  0  0
 25 34  1  0  0  0  0
 26 30  1  0  0  0  0
 26 34  1  0  0  0  0
 28 33  1  0  0  0  0
 29 30  1  0  0  0  0
  1 37  1  0  0  0  0
  2 38  1  0  0  0  0
  3 39  1  0  0  0  0
  4 40  1  0  0  0  0
  5 41  1  0  0  0  0
  6 42  1  0  0  0  0
  7 43  1  0  0  0  0
  8 44  1  0  0  0  0
  9 45  1  0  0  0  0
 10 46  1  0  0  0  0
 11 47  1  0  0  0  0
 19 48  1  0  0  0  0
 19 49  1  0  0  0  0
 20 50  1  0  0  0  0
 20 51  1  0  0  0  0
 21 52  1  0  0  0  0
 21 53  1  0  0  0  0
 22 54  1  0  0  0  0
 22 55  1  0  0  0  0
 23 56  1  0  0  0  0
 23 57  1  0  0  0  0
 24 58  1  0  0  0  0
 24 59  1  0  0  0  0
 25 60  1  0  0  0  0
 25 61  1  0  0  0  0
 26 62  1  0  0  0  0
 26 63  1  0  0  0  0
 27 64  1  0  0  0  0
 28 65  1  0  0  0  0
 29 66  1  0  0  0  0
 31 67  1  0  0  0  0
 31 68  1  0  0  0  0
 31 69  1  0  0  0  0
 34 70  1  0  0  0  0
 34 71  1  0  0  0  0
M  CHG  1  34   1
M  END
> <OMEGA_C>
Dx42QWu9pj+WWbzBeSIyQTq2E0AL/8PB+YwpQRKnnD/tBbPBXkv6QPR1FEERLbjBK3ohQdXFTkAc
ZMLByfcYQX+PCUBCX7HB7YgBQQCX/kDt9bTBZwOYQMiHkD8La6jBAuTTQJ17HkHYErXBPdaoQEDW
MT6mc6/BxdO+QNCe/EDehavBKbgUQWaOSUBaI7nBPDHlQEQD6EBCmK7BLoSvQK9ivj+SM5/BzM21
QEw5E0G23K7BljHYQGyhXz8pkZ3BUcPQQFhS0r6jL63Bndm2QEXkmkDpMJ7BF0vyQIOAkj9Nm5PB
39voQBgmIkCuHY/BKbS4QJc2KUAI2IzBx2zbQO0TXUAFqLXBQRYKQaLyoUBOxa3BGhC6QNRDj0D5
YrLBz7FgQMWFjkCA/ZTBICNfQMLFA0DxtJPBZlADQZSghUDoYbfB9QLwQIfcvUAdG6nBc3SRQEr7
dkAigpzB3I2cQLHwH0AgLpfBxYWNQCwKHkFJ+KrB/3/nQMBKbb0ScaTB5gDJQPcHo0AtR6jBT1wu
QH4lU0CfJ5HB1cLDQA/WrkB+XpbB0CLlQI6f0L/JvLXB2NhCQagvFz8Npr3Bfec7QfClF0AZG8vB
EqYsQarG6D7UKK3B9JAIQXMIHUHTCr3BE3keQZMNgEDWQMjBSW8PQYJgBkBKLarBr0sQQc9i70DW
WrfBjcRyQIopyz+6BqrBsobNQALJLkHGdLfBtFOXQPkX5L0Ji7bBZCWoQPLc60A6h6bB1GnqQMav
xz6Jg43B5kAKQeH6iT/+mpXBZuj6QIGxK0DXp4fBNkvyQIweU0BJ+5TBJKqvQJPW7D9sL4fBBUuy
QFUYaEDiOYnBX9veQFe+LEDhUK/B3X/RQDuuPUCxIb3BtQYQQYfXjECCYqfB5A0XQeM8t0AjbrDB
qtO2QPHZp0DLobjBHgCbQMr6fkD+ILHBjgiAQK7dnkA0QY7B8Wc3QH5PpUAORpnBEYo/QBViwT8G
PJrBlSxjQKMKtT/9l4zBKAkCQYr+mUAAiL7BKLv5QKzsxUBK5KDBIFCCQPBMakDzSqTBRh1nQC5O
G0GEwLDBm2GEQBNfF0E2J6PBoUWTQBxUL0EsKqrBCZclQGuXV0DwP4nBnAnrPw7gUUDl05TBfb01
QU/XpT96irzBsUspQfNxnD95K7PBFaQxQSbrEkCDN8TB7Nb6QNbaFEGJBLjBaroYQeCCCUAfgLHB
JAAhQVoETkDAl8LBLasBQbwz/0A+57TBmgSaQEo8kD8ch6jBqYTUQE3rHkHz47TBixKsQAoVOj7t
dq/Bttq+QDoZ/UCplKvBh2AUQcE2SUBvSrnBAzTlQJRy6EBDpq7BpDSwQLRJvj+nHJ/BcjC2QKGX
E0E/yK7BO7vYQPS9YD9gJJ3BV9XTQKWoyb7o46zBLfG2QHC2mkDdQp7BkjTxQDf2kT+m6ZLBgynn
QErKIUDAfI7BaL62QPkNKUBjqYzBAeTaQHBLXUBCrLXBou8JQWkYokDk9a3BDLy5QDmxj0DserLB
AbxfQPWOjkBKN5XB32RdQFu4A0CHK5TBDAcDQTSShUCtg7fBGtbvQJ8WvkAXOanB4miRQPbCdkBN
nZzBKhecQNe8H0CLPZfBE9uNQIRkHkEu6arB7TfpQMSmNb0m7aPB87TIQCRoo0BmX6jB9S4uQJ8Y
U0C0M5HBXQHEQHZfrkBCaZbBxpTpQPKOzb9QS7XBAndCQXRhFT/C2b3BVnksQTXL6T5lSa3B9E47
QVWPFkAbXcvB3ukIQdp1HUEt07zBbUkPQemWBkD6RarByucdQdwSf0C5esjBI24QQZz770BHSrfB
4uZ2QMauyT9+XKrB92XOQDZNL0FsLLfBcZ+bQNrv0L1Tt7bBJuinQCcu7EB8sqbBJT/oQKd3xD4x
7ozBRtsJQVkYiT/+jpTBeBj4QCggK0B63IbBioLxQFbVUkANP5TBONesQGLB7D/VE4fBJd+vQGsD
aEBXHonBl1zeQHGfLUCDQa/BD8zQQGQoPUCwFb3BDQMQQWkcjUDplKfBHtYWQUpht0Dws7DB+9W2
QMg6qEB4v7jBOoKaQCk2gEA4P7HB5m9+QNqrn0BTjY7BxvQ1QMqypECsopnBQQ4+QIRTyD/e/ZrB
5YtfQAbQrj9hVo3BVaoBQfrJmUCMr77B9735QD3yxUClAqHBHZaCQHXtaUDobqTBQSVoQIPaG0EN
xLDBkmOEQNKMF0ECKKPBQLaTQAemL0F4/KnBy2coQC3AVkBsP4nB8gzoPyufUkBpipTBwZ03QfTP
oT+x57zBQjwsQWzOnz9DMLPBWnsyQfheDUCE3sTB6tStQGjPD0HQnK7Bx70bQdRvC0Acc7HBcgIi
QaUtSUA8JMPB1Xa5QOX79UDEnKvB2n2XQN0rlD/EtKjB71zLQMXNHEHW/7PBnaaoQBy3WD5lxa/B
vxIAQYLd/0ADebPBUY8WQaycSEDMcLnBzrfiQKZd5UCgE67Bbb6uQH7VwT8CdJ/BbUr0QNDNFEGm
h7bBh7bXQNw+aj/c153BG73QQM2hub7mg63BmxG3QNgamkA4KZ7BkpzxQLeTlj9E05PBIkznQJ7I
IkAZDY/BPO62QIR7KEDQ8YzBoGrfQOayWECJ9bXBhSkLQTy/oUC8Aq7BkuO8QHXdikB/NbLBaTxg
QDS5j0Cm+5TBdt5bQNkLBkC7K5TBeOIEQT/chEDVpLfB3/vwQM1Tu0Aq8ajBbtaQQO98eECEkJzB
2VObQFvlIED/ZJfBAGQKQZ9HI0HeubvBLV/nQIAsxbsUw6TBdcvLQGOVnkAxD6jB4qIuQB/gVUCX
45DB5OXCQIyIr0BneJbBTmjlQJ2eyb9VFbbBV05EQWcKDT+ZQr7BUCowQYklBj/vFq3Bbjg7QTDM
DUCjUszBNUKOQLXOFUH5x6zB2fgSQTCnCkBqAarBFiYeQQ+Dd0BiQcnBGMaiQPM14kCYXafBSY1x
QLYFzj9mUqrBsMDCQLHxLEHZNbbBPkWXQCaal7144bbBjO0PQWol9ECdRLXBEUXqQFEIzD5P4Y3B
+O0JQWbMkT8j1pXB8cz4QO/wKkAQfIfB89fwQGhRVUCwsZTBvdGtQJi06D+NfIfBVgawQEZ2ZkAh
JYnBZyzkQBqQJkCb5a/Bt4fVQGIhO0Cgjb3B1x4SQfEtjUAjxqfByEQXQVXEuEAdyLDBA5W3QCrW
o0B+RLjBduSeQFiSckCt1bDB+i+AQHKRoEDqYY7BAz82QOMnpkD3RpnBxOE6QL9c0D9x/ZrBrj5e
QL83sT+odI3BiFwDQYoPmUBrz77BtR77QOwww0BPv6DBFImBQMAYbUBLXKTBLlsTQQruK0GRgrXB
0IcVQemiGUEMisDBsyQCQeXWLkHN7MDBAPUqQA3OWEAg6YjB403nP9SfVkAC/pPB

> <OMEGA_E>
kLZgPlDJYD6AvGU+

> <OMEGA_NBR>
     48335

$$$$
50199279
  -OEChem-04172616093D

 59 63  0     1  0  0  0  0  0999 V2000
   11.2874    1.0474  -23.3566 C   0  0  0  0  0  0  0  0  0  0  0  0
   11.0990    2.0445  -24.3339 C   0  0  0  0  0  0  0  0  0  0  0  0
   10.5196    1.0613  -22.1750 C   0  0  0  0  0  0  0  0  0  0  0  0
    6.3614   -0.5470  -21.7324 C   0  0  0  0  0  0  0  0  0  0  0  0
    5.1716    0.1609  -21.9747 C   0  0  0  0  0  0  0  0  0  0  0  0
   10.1326    3.0468  -24.1395 C   0  0  0  0  0  0  0  0  0  0  0  0
    9.5602    2.0711  -21.9728 C   0  0  0  0  0  0  0  0  0  0  0  0
    7.1248   -0.2626  -20.5880 C   0  0  0  0  0  0  0  0  0  0  0  0
    4.7588    1.1739  -21.0892 C   0  0  0  0  0  0  0  0  0  0  0  0
    9.3536    3.0604  -22.9648 C   0  0  0  0  0  0  0  0  0  0  0  0
    6.7064    0.7326  -19.6805 C   0  0  0  0  0  0  0  0  0  0  0  0
    5.5387    1.5046  -19.9510 C   0  0  0  0  0  0  0  0  0  0  0  0
    5.7685    4.9490  -19.9434 C   0  0  0  0  0  0  0  0  0  0  0  0
    7.5383    0.9638  -18.4363 C   0  0  0  0  0  0  0  0  0  0  0  0
    6.6578    1.4904  -17.2988 C   0  0  0  0  0  0  0  0  0  0  0  0
    6.0335    2.8027  -17.7692 C   0  0  0  0  0  0  0  0  0  0  0  0
    8.5871    5.0704  -21.6279 C   0  0  0  0  0  0  0  0  0  0  0  0
    6.9035    3.4153  -22.6519 C   0  0  0  0  0  0  0  0  0  0  0  0
    7.4225    6.0629  -21.4498 C   0  0  0  0  0  0  0  0  0  0  0  0
    5.8140    4.4663  -22.4323 C   0  0  0  0  0  0  0  0  0  0  0  0
    3.6381    4.5014  -18.6562 C   0  0  0  0  0  0  0  0  0  0  0  0
    3.6787    2.1234  -18.3768 C   0  0  0  0  0  0  0  0  0  0  0  0
    8.2765    4.1123  -22.8119 C   0  0  0  0  0  0  0  0  0  0  0  0
    4.6314    3.9205  -19.6454 C   0  0  2  0  0  0  0  0  0  0  0  0
    5.0338    2.5762  -18.9580 C   0  0  2  0  0  0  0  0  0  0  0  0
    6.1907    5.2686  -21.2516 N   0  0  0  0  0  0  0  0  0  0  0  0
    2.8365    3.3425  -18.2175 N   0  3  0  0  0  0  0  0  0  0  0  0
    6.2216    5.5975  -19.0042 O   0  0  0  0  0  0  0  0  0  0  0  0
   12.0216    0.2710  -23.5132 H   0  0  0  0  0  0  0  0  0  0  0  0
   11.6973    2.0388  -25.2330 H   0  0  0  0  0  0  0  0  0  0  0  0
   10.6671    0.2979  -21.4254 H   0  0  0  0  0  0  0  0  0  0  0  0
    6.6883   -1.3084  -22.4251 H   0  0  0  0  0  0  0  0  0  0  0  0
    4.5727   -0.0731  -22.8425 H   0  0  0  0  0  0  0  0  0  0  0  0
    9.9867    3.8080  -24.8917 H   0  0  0  0  0  0  0  0  0  0  0  0
    8.9816    2.0915  -21.0612 H   0  0  0  0  0  0  0  0  0  0  0  0
    8.0374   -0.8093  -20.4020 H   0  0  0  0  0  0  0  0  0  0  0  0
    3.8379    1.7055  -21.2782 H   0  0  0  0  0  0  0  0  0  0  0  0
    8.0009    0.0148  -18.1275 H   0  0  0  0  0  0  0  0  0  0  0  0
    8.3248    1.7004  -18.6572 H   0  0  0  0  0  0  0  0  0  0  0  0
    5.8679    0.7608  -17.0671 H   0  0  0  0  0  0  0  0  0  0  0  0
    7.2693    1.6661  -16.4015 H   0  0  0  0  0  0  0  0  0  0  0  0
    5.4906    3.2606  -16.9291 H   0  0  0  0  0  0  0  0  0  0  0  0
    6.8344    3.4799  -18.1009 H   0  0  0  0  0  0  0  0  0  0  0  0
    9.5128    5.6258  -21.8391 H   0  0  0  0  0  0  0  0  0  0  0  0
    8.7134    4.4843  -20.7057 H   0  0  0  0  0  0  0  0  0  0  0  0
    6.9366    2.7368  -21.7867 H   0  0  0  0  0  0  0  0  0  0  0  0
    6.6778    2.8391  -23.5613 H   0  0  0  0  0  0  0  0  0  0  0  0
    7.6035    6.7013  -20.5725 H   0  0  0  0  0  0  0  0  0  0  0  0
    7.3240    6.6919  -22.3469 H   0  0  0  0  0  0  0  0  0  0  0  0
    5.7373    5.1158  -23.3168 H   0  0  0  0  0  0  0  0  0  0  0  0
    4.8475    3.9718  -22.2556 H   0  0  0  0  0  0  0  0  0  0  0  0
    4.1605    4.9588  -17.8031 H   0  0  0  0  0  0  0  0  0  0  0  0
    3.0001    5.2545  -19.1420 H   0  0  0  0  0  0  0  0  0  0  0  0
    3.1915    1.4163  -19.0643 H   0  0  0  0  0  0  0  0  0  0  0  0
    3.8302    1.6400  -17.4004 H   0  0  0  0  0  0  0  0  0  0  0  0
    8.2459    4.7131  -23.7328 H   0  0  0  0  0  0  0  0  0  0  0  0
    4.1109    3.6907  -20.5868 H   0  0  0  0  0  0  0  0  0  0  0  0
    2.5747    3.4528  -17.2587 H   0  0  0  0  0  0  0  0  0  0  0  0
    2.0140    3.2644  -18.7808 H   0  0  0  0  0  0  0  0  0  0  0  0
  1  2  1  0  0  0  0
  1  3  2  0  0  0  0
  2  6  2  0  0  0  0
  3  7  1  0  0  0  0
  4  5  2  0  0  0  0
  4  8  1  0  0  0  0
  5  9  1  0  0  0  0
  6 10  1  0  0  0  0
  7 10  2  0  0  0  0
  8 11  2  0  0  0  0
  9 12  2  0  0  0  0
 10 23  1  0  0  0  0
 11 12  1  0  0  0  0
 11 14  1  0  0  0  0
 12 25  1  0  0  0  0
 13 24  1  0  0  0  0
 13 26  1  0  0  0  0
 13 28  2  0  0  0  0
 14 15  1  0  0  0  0
 15 16  1  0  0  0  0
 16 25  1  0  0  0  0
 17 19  1  0  0  0  0
 17 23  1  0  0  0  0
 18 20  1  0  0  0  0
 18 23  1  0  0  0  0
 19 26  1  0  0  0  0
 20 26  1  0  0  0  0
 21 24  1  0  0  0  0
 21 27  1  0  0  0  0
 22 25  1  0  0  0  0
 22 27  1  0  0  0  0
 24 25  1  0  0  0  0
  1 29  1  0  0  0  0
  2 30  1  0  0  0  0
  3 31  1  0  0  0  0
  4 32  1  0  0  0  0
  5 33  1  0  0  0  0
  6 34  1  0  0  0  0
  7 35  1  0  0  0  0
  8 36  1  0  0  0  0
  9 37  1  0  0  0  0
 14 38  1  0  0  0  0
 14 39  1  0  0  0  0
 15 40  1  0  0  0  0
 15 41  1  0  0  0  0
 16 42  1  0  0  0  0
 16 43  1  0  0  0  0
 17 44  1  0  0  0  0
 17 45  1  0  0  0  0
 18 46  1  0  0  0  0
 18 47  1  0  0  0  0
 19 48  1  0  0  0  0
 19 49  1  0  0  0  0
 20 50  1  0  0  0  0
 20 51  1  0  0  0  0
 21 52  1  0  0  0  0
 21 53  1  0  0  0  0
 22 54  1  0  0  0  0
 22 55  1  0  0  0  0
 23 56  1  0  0  0  0
 24 57  1  0  0  0  0
 27 58  1  0  0  0  0
 27 59  1  0  0  0  0
M  CHG  1  27   1
M  END
> <OMEGA_C>
Epk0Qa8Rhj8/2rrBaJUxQc3YAkDIq8LBHlAoQXjZhz96ZrHB15DLQFwHDL8F3K3Bl32lQDS8JD5F
zK/BGB8iQTL/QkC1HcHBi/YYQRCNBEBiyK/BVf7jQJZ3hr5MtKTBQEiYQEhBlj+ttqjBgKgVQc/c
Q0D7t7fBdZrWQLiNOz+ycZ3BPz2xQF6YwD+Sm5/BlZe4QC9enkAhjJ/BkjnxQN25dj97fZPB0gzV
QE7Evj/4Y4rBNRLBQNxfM0BNJ47BoWQJQbhAokABBq3BeuncQLiTWkD/NrXBMoXtQFUDwkAwmavB
qgy6QMDrjkBydbPBSdZoQMALkED0P5XBum9rQGvlB0C8A5PBdGwEQeqXg0DKfrbBlTSUQF7pekDY
KZ3BShWhQKDgJEDlqZfBERrGQEqYqEBAA6rBYYk1QNjrVUBgvZHBAhfHQLges0CyCJjBYVhAQRnB
ij7+GrzBPSg7Qb97AkAa3cnBd6wqQXKMmD5RZ6vBtgbWQCJ6p7+UZrPBYVOSQMS3lb1mvbbBtMkf
QdS1c0AvIsfBgrQPQSTbBUA9fajBZZkAQRMvT79VN6PBoqB1QD5O2j+2OarB4gMAQcvUcTw4BZHB
aTIFQUOl2T/7QZXBh8W7QD3CQj9/iYjB9Z3oQA5C1T8zNoPBNLOvQJutUEDlbofBHLPaQJ22XkCW
zpDBbzQYQT4GtEB4tq7B5WkLQW9/j0A8paXBdvjdQPEmL0AfS67BJbDVQJ2zNUCAfbzBh0/zQO5w
1kBklKTBVV7qQMUj1kBbxrLBNZi3QFe0o0DWiLrBsR6bQDIxfkCKC7LBDSOFQEOunkCtbI7BAgJA
QJkkqEDFIpnBK0FMQGBItT+ug5jBpCJ1QMLs0T8BNIvBGu8DQe3RlkDN3L3Bi4yDQOczbEDYsaTB
zcckQDH6XEDBEYrBj+QAQEfrUED6PpbBrqc1QbY+oj/69L3BM0gtQZPVfD/QvLPBav0tQai8F0Cx
1MPB1gHQQCFaDb+AVK3B/DSoQHqnSj2PZK/Bym0dQa726D8xV6/BjwYeQYTSTEAKeb/B32/nQIYU
P75dMaTB9Q2YQAangz8RY6jBuO4VQT4RPEBfH7XBaLbXQEvQTD8JJp3BN5avQGZLtj/XNZ/BnZe5
QAlQmkDrjJ/BE4zwQEZJiT+n+JLBvfvnQHz8HkBL2o7B0L+3QNRmKkDWHI3BqCvdQEDbWEA8xrXB
VgkIQTPbqUAgZrHBM3W6QEuKjkCJqbPB2BfsQKodw0BrjqvBDxFkQH0nkEBnb5bBGnVeQC2+B0Bl
ZJTBqyMEQdqecUBEarDBQLaTQIgCdkAkg53BePycQMnJH0D+pZfBdPHFQHosp0CB96nBCE4zQBgy
WUCte5HBWmfJQNBfrEDCx5fBqPhBQfesIj8NTMHBUggzQd/vCT4ESa/BeV80QYgfJUD4rsvBRpHc
QDu2pb8mw7LBKACWQPKwdb64XLbBsPcWQXEzzT93hKfBu/YXQb4mgUDVB8TBS9wCQfYoKr+gjKLB
vsxyQAXxvT9+A6rBT9fmQJVNsT7Q0ozBF3oJQXBldj9um5TBDfD4QF2rKECAPIfBplfzQF/+TUCM
wZTBlt6sQJWT9D/vSofBEAmyQD/kakCh4onBsFXSQH8mG0B6hLLB/xTiQIraUkC2dL7BRCoIQdzb
skDw57nB3ZEXQQLbsUDdxq3BUGG4QEZOpEAJj7rBqF+bQLqBfUCucrLB3e/3QH71zUCvuaPB4/ni
QOkI30AsaLDBUnOBQGvGo0B7OpDBWl85QL9epEAyRpvBPBE9QDvW0T8BHZvBKHdfQAIJuD8Yf43B
BN8CQdhMYkB12afBIvSEQL74ZkD0RqXBv6UyQMoPYECbh4nBL3XuP/YQWUDCPZTB3rjmQF5BJkHY
cLLBXpjTQCbNH0EKwqjB9ajqQE64F0He/rrBvjyvQEC/6T9wS4vB0nfbQCheBEDU8IvB42XEQP7K
CkF2nafBLfrbQBKeAkHu17nBG+6ZQPCJmT/W1pPBEjryQEC92j9LN5XBgZHIQHQt+ECKG7DBtpGw
QIDxUz/gI53BtcvcQHDYkT8YIZ7B8MXvQNirPkAYxLPB1sWYQADV2z1Q+KXBVq23QODlRr8CXazB
NsrZQIAYAD5hULHBp4LcQMjBtUCyjqbB8A+1QIyesECEi7jBdFLQQBRoh0CygaTBaiSpQBjQgkBB
qbXBBtMYQSAOvD+4e7PB3f8NQQCUtL3s3KXBbAW7QOCjykB5EK7BPa8GQWhFBUBc/azBiAv2QOAF
VD/he6jBweLLQNg3ZEC99a7BT5wfQcDAjT73V63B3WnzQFj1PUBYjb3BSGvyQDxsNkHUTrPBXKHQ
QJgBK0HzOKLB0/f4QIrOHEEOcMLBrKOdQIbAB0A5PoTBf/3rQGfxIUA9UIXBynu1QGnhBUHbN6DB
RHDfQMTA7kAhWcDBXw9wQLowgD91R5PB3jAKQYMf7z+ujpXBwy5/QPtyBb+VbqLBpCWKQJLoWD+U
W6vBx9rGQANUwb+SA6fBRCKmQC0Vp7/itrLBAKjuQFWZ976adrbBfvHJQDjoZT+HKbbBR2LdQIc7
x0Dw657BMkH8QNsGt0C6WKrBLxTTQJLDsEAvJL3BkWabQJMEv0DmX73BM3HpQBonb0C7x5/Bbc6x
QHT0hUCpIqDBKsiKQIBOgkC1NbHBUvOlQMTNXkBt9bzB8yYTQRzblj+Ue7vBRSYmQRCVC0AERrTB
7yITQaW7hz2PiZ3BJnIJQbcLkr/WAqfBFyWcQHEWy0AY16nBl1ENQYeyKkCoUKbB+3kiQWoV977W
WLLBt+IsQQw++D4JM6nBkqQ1QRITkT9jiLrBeUUpQSbJkj/wG7HBvUIyQQPzBkDZfMLB0zvPQC5x
Cr8xfq3BVEioQNt/2D2KsK/BTWoZQethCEAmrK/BYk0iQUpyRUBtHcHBsFTmQNf0Wb7CNqTBnXCY
QPSYij89oKjBI6IVQdvvRUBgyLfBWPvWQKRORj87IJ3BXnKvQOV2tz8HQZ/B8aa5QOQimkAhmJ/B
zPjvQC8chD+o85LBVBroQN6qHEAv2I7BAgG4QO87KUCQCo3BqoQIQcj1pEDK6K3BE5TcQHp1V0Cd
8LTBaPrpQIFbwkChDazB8M64QEuLjEDFgbPB44tmQMxPkEAFwJXBvIJeQFJ3B0D2TZTBPrUDQfl6
g0Bz0rbB8JeTQHfGdkAcNJ3BTwOdQL+9H0D4j5fB1DHEQBvjpkBBIarBX7UyQKjuWEDlb5HBilXL
QE64q0CEApjBXrtBQSjOvz5uqLvB0PIrQVslzj73/arBqu47QdPNBkDJpcnBHmbbQJn6pL+M7rLB
FHuWQEl3F77Vz7bB4iEQQTrJCUAcY6jBdb4fQZ81dUBWOsfBlgYCQf1rOL+nfqLBbNN0QJAryT/z
W6rBa+PlQEsVnz4tzozBjSgJQa2UZz9zlpTB80r5QKcLJkBTQYfBo53zQBxMS0CgxpTBSuqsQBNO
8j/uPYfBJsGyQJK5aUDmw4nBxUoWQVCYuEBjV7DBhFIMQacVlECqbKbBERHfQB6yL0BmtK3BSHDV
QHWALkAI37vBVazvQLrv1kClDqXBqZDkQLJr1kD1J7PBWUG2QNfKoEBHrbrBRSaaQEVYeEAxHbLB
GbaDQClWoUBaPI/Bk8s9QHbgpkBZL5rBCVo9QNF80D/NA5vBE6hfQGj4tz+UYo3Bi3YCQfnGlEAG
dr7BZn+DQAfKaED21KTBny4uQM0FXkCHe4nBvzrwP9gcWkDZppTB

> <OMEGA_E>
RP+XPthKmD6A+Z8/2MmcPg==

> <OMEGA_NBR>
     52511

$$$$
50199276
  -OEChem-04172616093D

 52 55  0     1  0  0  0  0  0999 V2000
   11.1662    1.0743  -23.5765 C   0  0  0  0  0  0  0  0  0  0  0  0
    6.7673   -0.4273  -21.2953 C   0  0  0  0  0  0  0  0  0  0  0  0
   11.0077    2.1406  -24.4835 C   0  0  0  0  0  0  0  0  0  0  0  0
   10.3899    1.0261  -22.4016 C   0  0  0  0  0  0  0  0  0  0  0  0
    7.3819   -0.0362  -20.0880 C   0  0  0  0  0  0  0  0  0  0  0  0
    5.5452    0.1515  -21.6876 C   0  0  0  0  0  0  0  0  0  0  0  0
   10.0607    3.1489  -24.2273 C   0  0  0  0  0  0  0  0  0  0  0  0
    9.4508    2.0418  -22.1376 C   0  0  0  0  0  0  0  0  0  0  0  0
    6.7960    0.9629  -19.2886 C   0  0  0  0  0  0  0  0  0  0  0  0
    4.9443    1.1306  -20.8781 C   0  0  0  0  0  0  0  0  0  0  0  0
    9.2674    3.0977  -23.0625 C   0  0  0  0  0  0  0  0  0  0  0  0
    5.5869    1.5662  -19.6929 C   0  0  0  0  0  0  0  0  0  0  0  0
    5.8068    4.8668  -19.8809 C   0  0  0  0  0  0  0  0  0  0  0  0
    8.5711    5.0665  -21.6247 C   0  0  0  0  0  0  0  0  0  0  0  0
    6.8183    3.5026  -22.6793 C   0  0  0  0  0  0  0  0  0  0  0  0
    7.4309    6.0711  -21.3528 C   0  0  0  0  0  0  0  0  0  0  0  0
    5.7690    4.5856  -22.4003 C   0  0  0  0  0  0  0  0  0  0  0  0
    3.6326    2.2013  -18.2592 C   0  0  0  0  0  0  0  0  0  0  0  0
    3.5477    4.5352  -18.7583 C   0  0  0  0  0  0  0  0  0  0  0  0
    8.2117    4.1653  -22.8408 C   0  0  0  0  0  0  0  0  0  0  0  0
    4.9751    2.6541  -18.8394 C   0  0  2  0  0  0  0  0  0  0  0  0
    4.6116    3.9129  -19.6347 C   0  0  2  0  0  0  0  0  0  0  0  0
    6.1821    5.3018  -21.1741 N   0  0  0  0  0  0  0  0  0  0  0  0
    2.7280    3.3803  -18.3306 N   0  3  0  0  0  0  0  0  0  0  0  0
    6.4111    5.2855  -18.8979 O   0  0  0  0  0  0  0  0  0  0  0  0
   11.8832    0.2932  -23.7820 H   0  0  0  0  0  0  0  0  0  0  0  0
    7.2354   -1.1728  -21.9210 H   0  0  0  0  0  0  0  0  0  0  0  0
   11.6139    2.1841  -25.3762 H   0  0  0  0  0  0  0  0  0  0  0  0
   10.5150    0.2111  -21.7042 H   0  0  0  0  0  0  0  0  0  0  0  0
    8.3038   -0.5043  -19.7762 H   0  0  0  0  0  0  0  0  0  0  0  0
    5.0710   -0.1562  -22.6079 H   0  0  0  0  0  0  0  0  0  0  0  0
    9.9408    3.9646  -24.9249 H   0  0  0  0  0  0  0  0  0  0  0  0
    8.8694    2.0151  -21.2278 H   0  0  0  0  0  0  0  0  0  0  0  0
    7.2711    1.2669  -18.3676 H   0  0  0  0  0  0  0  0  0  0  0  0
    3.9906    1.5519  -21.1601 H   0  0  0  0  0  0  0  0  0  0  0  0
    9.4977    5.6180  -21.8420 H   0  0  0  0  0  0  0  0  0  0  0  0
    8.7198    4.4357  -20.7358 H   0  0  0  0  0  0  0  0  0  0  0  0
    6.8448    2.7922  -21.8399 H   0  0  0  0  0  0  0  0  0  0  0  0
    6.5568    2.9677  -23.6043 H   0  0  0  0  0  0  0  0  0  0  0  0
    7.6492    6.6467  -20.4412 H   0  0  0  0  0  0  0  0  0  0  0  0
    7.3276    6.7590  -22.2049 H   0  0  0  0  0  0  0  0  0  0  0  0
    5.7198    5.2872  -23.2461 H   0  0  0  0  0  0  0  0  0  0  0  0
    4.7826    4.1226  -22.2502 H   0  0  0  0  0  0  0  0  0  0  0  0
    3.2226    1.3701  -18.8517 H   0  0  0  0  0  0  0  0  0  0  0  0
    3.7581    1.8801  -17.2146 H   0  0  0  0  0  0  0  0  0  0  0  0
    3.9989    5.0390  -17.8908 H   0  0  0  0  0  0  0  0  0  0  0  0
    2.9428    5.2565  -19.3274 H   0  0  0  0  0  0  0  0  0  0  0  0
    8.1778    4.8059  -23.7344 H   0  0  0  0  0  0  0  0  0  0  0  0
    5.6613    2.9190  -18.0215 H   0  0  0  0  0  0  0  0  0  0  0  0
    4.1740    3.6225  -20.6013 H   0  0  0  0  0  0  0  0  0  0  0  0
    1.9989    3.2131  -18.9943 H   0  0  0  0  0  0  0  0  0  0  0  0
    2.3265    3.5590  -17.4324 H   0  0  0  0  0  0  0  0  0  0  0  0
  1  3  1  0  0  0  0
  1  4  2  0  0  0  0
  2  5  1  0  0  0  0
  2  6  2  0  0  0  0
  3  7  2  0  0  0  0
  4  8  1  0  0  0  0
  5  9  2  0  0  0  0
  6 10  1  0  0  0  0
  7 11  1  0  0  0  0
  8 11  2  0  0  0  0
  9 12  1  0  0  0  0
 10 12  2  0  0  0  0
 11 20  1  0  0  0  0
 12 21  1  0  0  0  0
 13 22  1  0  0  0  0
 13 23  1  0  0  0  0
 13 25  2  0  0  0  0
 14 16  1  0  0  0  0
 14 20  1  0  0  0  0
 15 17  1  0  0  0  0
 15 20  1  0  0  0  0
 16 23  1  0  0  0  0
 17 23  1  0  0  0  0
 18 21  1  0  0  0  0
 18 24  1  0  0  0  0
 19 22  1  0  0  0  0
 19 24  1  0  0  0  0
 21 22  1  0  0  0  0
  1 26  1  0  0  0  0
  2 27  1  0  0  0  0
  3 28  1  0  0  0  0
  4 29  1  0  0  0  0
  5 30  1  0  0  0  0
  6 31  1  0  0  0  0
  7 32  1  0  0  0  0
  8 33  1  0  0  0  0
  9 34  1  0  0  0  0
 10 35  1  0  0  0  0
 14 36  1  0  0  0  0
 14 37  1  0  0  0  0
 15 38  1  0  0  0  0
 15 39  1  0  0  0  0
 16 40  1  0  0  0  0
 16 41  1  0  0  0  0
 17 42  1  0  0  0  0
 17 43  1  0  0  0  0
 18 44  1  0  0  0  0
 18 45  1  0  0  0  0
 19 46  1  0  0  0  0
 19 47  1  0  0  0  0
 20 48  1  0  0  0  0
 21 49  1  0  0  0  0
 22 50  1  0  0  0  0
 24 51  1  0  0  0  0
 24 52  1  0  0  0  0
M  CHG  1  24   1
M  END
> <OMEGA_C>
xqgyQamBiT/FnLzBBo7YQFrD2r7fXKrBuB8wQdL/CEAh3sPBJz0mQe9Xgz9/NrPBNDjsQGBtFL0y
tKDBaHKxQGAbGz46gK3BofggQQqHSUCa0cHBezYXQUStAkDGGbHBFnnZQIp9dj/4TprBWjeeQL24
kD9sBqfBVUcUQbhARkD3f7jB0MeyQKV6yD8bi53BtNG5QIe8m0ALDJ/BbCMJQcggokBS/6zB1C/a
QOAqYEBMb7XBPMrtQHxGwkCN0qrBxpu4QHi9kkDkM7PBS31oQHjhDEDgEpLBtwxjQGggkUAREZbB
/mIDQRxKhUDuubbBajSfQLrcKUApt5bBQJKTQKhtekDzE53BEtTFQAKoqUCbZKnBjJcuQMJWWEAb
pZLBZCfNQLUiqUDMLpfBfyE+QZYYlj6KQb7Bp4jnQFIflr8wXq/BptI5QS3IC0CJAsvBfz0oQbwe
WD4koq3BiNwEQW4cAb+WNZ7BbUWiQArmH77n3LTBgQ0fQc27fUBBZsfBOOkNQSP4AECJ0qnBQK3o
QH4poj/I8JLBW2Z/QDalxj/kR6nBxvYXQfnGs0BbvK7BMIQLQVrxjUAA46XBbAjbQDOzMkA1uK7B
s9HRQJrvPUCa1bzBIsb0QPSx1ECTh6PB8HvqQBZK2ECko7HBrAi3QAUxqUAI+LnB7gqZQEHsg0Bc
ALLBpT5OQDBfrz830JbB74NwQNKm8D+Zt4nBuO5/QCw/oUBrII/BjlY8QCE1qECcnprBONgCQebJ
mUD7373BWCm1QJbQOkABLJDBSZGFQGbXZ0Bez6TBgdz/P6uiTUBR9JfBteUUQMXGY0B2dYvBGGcy
QYVeoj8LKL/B4erbQPrV474XW6nBingpQWrubj9TK7XB9a0rQTzSG0A/hcTBF97tQOABGb0QiZ/B
xk61QLD++z3G9KzBNQUaQfHi4j+UgLDBJfobQfr6UEB17L/BPx/aQApneT9jepnBFPagQNFIjj9u
y6bBcjkTQf5VPECn0bXBlPWzQOGFyD/ILJ3B9dy6QKnimkCJEp/B8I/YQHA0Z0B+sLbBnzIIQefc
qUBtWbDBfaq3QG5KlkCEXbPBHDHtQDbxxEAnuqrB/yZnQDIwDUCBXZLBe5BjQA1ckUA6fJbBmPsB
QSA0c0CYv7DBZhufQL71KUD0oZbBkEyUQFqNeUByPZ3B37DFQA8gq0BfTanB45AuQBqrWUDA2pLB
7WrPQIn4pUBMLZfB1Gk+QbKrIT9jtcLBkdbrQAr9mL8YIa7BMHouQVa1CD3lGbHB05QyQTxHLEBs
K8zBjGwFQRzJAL+PqJzB2V2nQAGETL6ubbTB5k8TQTmPwj/tzKjBm58WQaS/hECxHcTBPijoQHru
pT/WA5LBf8iCQG01wz9wZqnB6oTLQFu3J0C/u7TBrRveQD+Ra0DGXL/BHVcKQVKutUCqkbjBbUwX
Qd1UrUDE6avBdUC1QP56rkDHurnBHTaYQA5Jh0DQILLBzuj4QJNcz0A22aLB4eDlQDMr4UAiqK/B
ARtNQBTwsj+jXpfB2jNtQJJU7T/oD4rBaat/QCxSokD+no/Bv049QHfcp0D+RZvBJHz/QOxqXUCo
dKjBggC0QE7fO0AA6o/BAPSGQF8fZkAqA6XBy6f9P8d1T0AfB5jBsk8WQCnrZUCBnIvB

> <OMEGA_E>
/CUCP/S+CT8=

> <OMEGA_NBR>
     54564

$$$$
50199275
  -OEChem-04172616093D

 62 66  0     1  0  0  0  0  0999 V2000
   11.3023    1.3200  -23.9576 C   0  0  0  0  0  0  0  0  0  0  0  0
    6.3264   10.0853  -22.3142 C   0  0  0  0  0  0  0  0  0  0  0  0
   10.7929    1.0094  -22.6822 C   0  0  0  0  0  0  0  0  0  0  0  0
   10.8115    2.4370  -24.6644 C   0  0  0  0  0  0  0  0  0  0  0  0
    5.4484    9.2814  -21.5668 C   0  0  0  0  0  0  0  0  0  0  0  0
    7.5574    9.5633  -22.7561 C   0  0  0  0  0  0  0  0  0  0  0  0
    5.4953    0.1207  -21.7050 C   0  0  0  0  0  0  0  0  0  0  0  0
    6.7452   -0.4248  -21.3645 C   0  0  0  0  0  0  0  0  0  0  0  0
    9.8024    1.8234  -22.1095 C   0  0  0  0  0  0  0  0  0  0  0  0
    9.8113    3.2480  -24.0964 C   0  0  0  0  0  0  0  0  0  0  0  0
    5.7988    7.9558  -21.2659 C   0  0  0  0  0  0  0  0  0  0  0  0
    7.9137    8.2354  -22.4549 C   0  0  0  0  0  0  0  0  0  0  0  0
    4.9192    1.1104  -20.8901 C   0  0  0  0  0  0  0  0  0  0  0  0
    7.4004   -0.0065  -20.1903 C   0  0  0  0  0  0  0  0  0  0  0  0
    9.3178    2.9500  -22.8077 C   0  0  0  0  0  0  0  0  0  0  0  0
    7.0268    7.4104  -21.7260 C   0  0  0  0  0  0  0  0  0  0  0  0
    5.5944    1.5779  -19.7347 C   0  0  0  0  0  0  0  0  0  0  0  0
    6.8292    0.9830  -19.3652 C   0  0  0  0  0  0  0  0  0  0  0  0
    5.7020    4.8606  -19.8962 C   0  0  0  0  0  0  0  0  0  0  0  0
    6.8534    3.4218  -22.8150 C   0  0  0  0  0  0  0  0  0  0  0  0
    8.4459    5.3005  -22.2724 C   0  0  0  0  0  0  0  0  0  0  0  0
    5.7914    4.4718  -22.4247 C   0  0  0  0  0  0  0  0  0  0  0  0
    3.6232    2.1684  -18.2923 C   0  0  0  0  0  0  0  0  0  0  0  0
    3.4637    4.5077  -18.7893 C   0  0  0  0  0  0  0  0  0  0  0  0
    8.2233    3.7694  -22.1791 C   0  0  2  0  0  0  0  0  0  0  0  0
    4.9452    2.6564  -18.8775 C   0  0  2  0  0  0  0  0  0  0  0  0
    7.4364    6.0021  -21.3067 C   0  0  2  0  0  0  0  0  0  0  0  0
    4.5312    3.8940  -19.6721 C   0  0  2  0  0  0  0  0  0  0  0  0
    6.2170    5.1530  -21.1752 N   0  0  0  0  0  0  0  0  0  0  0  0
    2.7224    3.3516  -18.2410 N   0  3  0  0  0  0  0  0  0  0  0  0
    6.1873    5.3977  -18.9041 O   0  0  0  0  0  0  0  0  0  0  0  0
    7.7196    1.4278  -17.7251 Br  0  0  0  0  0  0  0  0  0  0  0  0
   12.0712    0.7009  -24.3957 H   0  0  0  0  0  0  0  0  0  0  0  0
    6.0567   11.1042  -22.5497 H   0  0  0  0  0  0  0  0  0  0  0  0
   11.1627    0.1479  -22.1462 H   0  0  0  0  0  0  0  0  0  0  0  0
   11.2036    2.6705  -25.6432 H   0  0  0  0  0  0  0  0  0  0  0  0
    4.5060    9.6829  -21.2246 H   0  0  0  0  0  0  0  0  0  0  0  0
    8.2306   10.1843  -23.3284 H   0  0  0  0  0  0  0  0  0  0  0  0
    4.9791   -0.2196  -22.5905 H   0  0  0  0  0  0  0  0  0  0  0  0
    7.2033   -1.1651  -22.0036 H   0  0  0  0  0  0  0  0  0  0  0  0
    9.4101    1.5865  -21.1315 H   0  0  0  0  0  0  0  0  0  0  0  0
    9.4231    4.0942  -24.6438 H   0  0  0  0  0  0  0  0  0  0  0  0
    5.1284    7.3451  -20.6793 H   0  0  0  0  0  0  0  0  0  0  0  0
    8.8667    7.8460  -22.7813 H   0  0  0  0  0  0  0  0  0  0  0  0
    3.9527    1.5185  -21.1467 H   0  0  0  0  0  0  0  0  0  0  0  0
    8.3483   -0.4476  -19.9198 H   0  0  0  0  0  0  0  0  0  0  0  0
    6.5307    2.4320  -22.4599 H   0  0  0  0  0  0  0  0  0  0  0  0
    6.9574    3.4026  -23.9099 H   0  0  0  0  0  0  0  0  0  0  0  0
    9.4764    5.5454  -21.9756 H   0  0  0  0  0  0  0  0  0  0  0  0
    8.2710    5.6397  -23.3041 H   0  0  0  0  0  0  0  0  0  0  0  0
    5.6914    5.2122  -23.2321 H   0  0  0  0  0  0  0  0  0  0  0  0
    4.8240    3.9742  -22.2617 H   0  0  0  0  0  0  0  0  0  0  0  0
    3.1888    1.3874  -18.9338 H   0  0  0  0  0  0  0  0  0  0  0  0
    3.7807    1.7663  -17.2806 H   0  0  0  0  0  0  0  0  0  0  0  0
    3.9204    5.0955  -17.9795 H   0  0  0  0  0  0  0  0  0  0  0  0
    2.7959    5.1528  -19.3791 H   0  0  0  0  0  0  0  0  0  0  0  0
    8.1698    3.5066  -21.1123 H   0  0  0  0  0  0  0  0  0  0  0  0
    5.6270    2.9474  -18.0648 H   0  0  0  0  0  0  0  0  0  0  0  0
    7.9176    6.0702  -20.3199 H   0  0  0  0  0  0  0  0  0  0  0  0
    4.1002    3.5952  -20.6390 H   0  0  0  0  0  0  0  0  0  0  0  0
    1.9043    3.1805  -18.7901 H   0  0  0  0  0  0  0  0  0  0  0  0
    2.4562    3.5358  -17.2948 H   0  0  0  0  0  0  0  0  0  0  0  0
  1  3  1  0  0  0  0
  1  4  2  0  0  0  0
  2  5  1  0  0  0  0
  2  6  2  0  0  0  0
  3  9  2  0  0  0  0
  4 10  1  0  0  0  0
  5 11  2  0  0  0  0
  6 12  1  0  0  0  0
  7  8  1  0  0  0  0
  7 13  2  0  0  0  0
  8 14  2  0  0  0  0
  9 15  1  0  0  0  0
 10 15  2  0  0  0  0
 11 16  1  0  0  0  0
 12 16  2  0  0  0  0
 13 17  1  0  0  0  0
 14 18  1  0  0  0  0
 15 25  1  0  0  0  0
 16 27  1  0  0  0  0
 17 18  2  0  0  0  0
 17 26  1  0  0  0  0
 18 32  1  0  0  0  0
 19 28  1  0  0  0  0
 19 29  1  0  0  0  0
 19 31  2  0  0  0  0
 20 22  1  0  0  0  0
 20 25  1  0  0  0  0
 21 25  1  0  0  0  0
 21 27  1  0  0  0  0
 22 29  1  0  0  0  0
 23 26  1  0  0  0  0
 23 30  1  0  0  0  0
 24 28  1  0  0  0  0
 24 30  1  0  0  0  0
 26 28  1  0  0  0  0
 27 29  1  0  0  0  0
  1 33  1  0  0  0  0
  2 34  1  0  0  0  0
  3 35  1  0  0  0  0
  4 36  1  0  0  0  0
  5 37  1  0  0  0  0
  6 38  1  0  0  0  0
  7 39  1  0  0  0  0
  8 40  1  0  0  0  0
  9 41  1  0  0  0  0
 10 42  1  0  0  0  0
 11 43  1  0  0  0  0
 12 44  1  0  0  0  0
 13 45  1  0  0  0  0
 14 46  1  0  0  0  0
 20 47  1  0  0  0  0
 20 48  1  0  0  0  0
 21 49  1  0  0  0  0
 21 50  1  0  0  0  0
 22 51  1  0  0  0  0
 22 52  1  0  0  0  0
 23 53  1  0  0  0  0
 23 54  1  0  0  0  0
 24 55  1  0  0  0  0
 24 56  1  0  0  0  0
 25 57  1  0  0  0  0
 26 58  1  0  0  0  0
 27 59  1  0  0  0  0
 28 60  1  0  0  0  0
 30 61  1  0  0  0  0
 30 62  1  0  0  0  0
M  CHG  1  30   1
M  END
> <OMEGA_C>
R9Y0QYL0qD8hqb/BtnHKQHddIUFig7LBh68sQTg0gT8ldbXBv/ssQTX3G0DCUMXBklmuQJuAFEG1
iKzB/NXxQG4DGUGTDLbBd9mvQCBD9z3mo63B99jXQOaD2b5n6qrBhtYcQVRk6T864LDBDfscQTbf
T0B7xcDBc4+5QLGV/kCPIKrBPj39QETEA0Gjo7PB12mdQL4gjj/zHqfBwM/sQADZ1buyhaHB2xUV
QeXMPEAWdrbBsdvgQOch7UDkzq3BMAWzQMz5yT+m4J3BG4naQC+jez/e65rBI3e2QBuKm0B4K5/B
r07bQHL/WkAkhbbBayIHQUudqUD4LbLBBVO5QOsYj0DVZbPBbOJnQObGCkCvVpLB5K1dQNA+kECL
UJbBqpIDQb49cUDXbrHB9j6eQE0CKkARBZfBo/btQCgRwEASdKrBl/+QQBg4eUBpYJ3B1vHGQA3l
pEDCZqnBnjsuQJSAVkCM7ZHBmv7FQCK6rECmO5fBVgf3QBLDtj8HzY3BsCNBQVhsMz9WKsPBK9DB
QO+qMUG3ZbTBnJoyQStrFz5YK7HBEEIzQXnpKkBbJc3BXTGQQALtGkHoy6nBfbADQQvzIkGqoLrB
f1SfQJzpYL5VubTBbIHmQEIjlb9oB7DBw48WQY8Ryz9gDanBKsUWQRAEg0B4JsXBLRykQPcK60Al
b6XBF94NQRIS+0ANQLbBufl8QIxfwj9cLKnBz5IFQWIw5b7GW5/BQfvQQLulG0D4rbPBa6PeQLrE
WUB8R7/BPp8XQS90sUASzq/BElYEQWx4tEDPbrrBFCC2QDvKpkBM27nBXV6aQKZYfkAEGLLBTBVM
QL+XsT9SeJfBUvZxQKYW4j+4PorB2Od6QKgOo0D11Y/BBfAyQLXjpEBYCJvBkrcCQZ1sYEAB5qjB
bxC0QDiiPEC4hJDBRF39QF8/wkAnj6LBoTSDQDYXZkCdHKXBLcHzP4CNS0AcUpbBBDMdQM5KYkDN
W4rBcvo0QRpWqz8P8b/BUzbLQAAbIUF/irLB6acsQXgggT+8z7XBWh0tQWV/HUAThsXBEsLyQFO6
GEHS8rXBt+CuQCpMFEExmqzBvPCyQPDCJz6ioa3BwBnaQFYIzr6wdKrBb54cQRh25z+0OrHBKPQc
QZ6SUEAU+cDB8Qj+QKp/A0FyeLPBf/i5QNcy/kBWIKrBtrCfQGgElD+3SafBJ0jtQACo5btSxKDB
k94UQbE6PEDDvLbBP2PhQKSm7EBptK3Bf5azQKDgzD/cvZ3BRQvaQAGkej8GUJrBPku2QC28m0A0
FJ/BrQPbQFZBXUC3BLfB4ksHQX8TqUA3FLLBD+y4QGtUj0A0XbPBzNVmQIFsCkAzgJLBTc1dQF5q
kEDLAJbBwFUDQZpfcEALq7HBgd2dQEKuKkAq+JbBr07uQKV/v0CsWarBXaSQQMAuekBiPp3BmDfH
QB1wpEDbTqnBr0ktQCk1VkBx9pHBX/LFQA/srEBUKJfBV7rzQA5TsT96wYzBDGtBQZntOj/yccPB
7qTCQIxiMUHwfbTB/5YyQSDoEj70k7HBtYAzQZBYLUCrTc3BKUIEQYyhIkERe7rBlaCQQHPAGkHb
8qnBRa2jQGznJr7H7bTBkHvpQNQOkr8tc6/BLTIWQTEdxz+gd6nBncMWQYyKg0B8SsXB51MOQeOB
+kDs+rXBwFekQLHA6kCadaXBBnmBQPbEyj//tanBsHsFQasa7b6eQ57BxpLQQH94HECMxbTB6Jze
QOkIYUBywr/BkccXQR4ZsEDSiq/BCNYEQSfLtEAQSbrBrIS0QI2mp0A5obnBLG2aQBJmfUBv8LHB
44BLQP7Ssj960JfB9S1wQHxl3j9QeIrBSLZ7QNMGokAyXY/BN7wzQLwWpkDyhZrBMR4CQaXGXUDd
M6nBqw6zQAJNPUDyVpDBNbL9QEedwUAYdKLBlG6CQMyfZ0AL9KTB5hDzP61oTECvgZbBzTUbQI56
YECHZYrBozs1QV27qj/wHMDBqCfLQFo2IUE+/rHBYIUtQYKkHUBQqMXBoMksQUS+fz/1BLbBWiWv
QEY+FEHSDKzB8DXyQNLSGEFwu7XBUtO0QEDTIj6bYK3BddTbQG69yr7h9qnBq2cdQSDpUEBHGcHB
78ccQft55j9+b7HBsR26QBfN/UCk4KnBDmv9QAl0A0FLibPBJ92gQJOrkz+RMqfBEh/uQMDJRzyC
M6DBnzIVQbw7PEDy5bbBaybhQDdN7ECQuK3BAN+zQGkRzj8Qk53BbibaQNb1fz9L6JnB0vm1QIxy
m0BkQZ/B9JrbQPLqW0AfL7fBO0IHQb76qECmULLBEB25QKc4jkDNgrPBSq5lQMyyCkAqoZLBgmRc
QEiUkED3QJbB6JMDQbANcEBm2rHBE2OdQDA3K0BA95bBMjTuQO74vkArhqrBxTOQQJ7oeUDUYZ3B
WDPHQNK0o0Coe6nB/dwsQK7nVkDT4ZHBSY/FQBvXrEBTWpfBtX3yQGeztT/RN4zB+6ZBQbVUOT8q
nsPBprjCQAefMUGLsbPBa/0zQWWwLUAAas3BgpoyQUpYAz7W0LHB+DuRQGuvGkHTKKnB+dMDQU3T
IkGtTbrBZjumQEdaNr76urTBncfrQFZmkb9Z1a7BMlgXQXvog0BRYsXBhEAWQamRxT9ztKnBIamk
QNYQ6kCfPKXBPdcNQVNn+kDGTLbBmciCQLlzyT8azqnB4NcFQWDt3r7ChJ3BLJXRQO/cGkCy8LTB
KyDfQFvYX0Aa7b/Bd70XQQttsEAt2q/B2ZUEQc6TtEDyg7rBOUG0QFtkpkC7yrnBwOOaQKtRekAl
C7LBaQ9KQLH1tT/yGZjBK6BuQE+j2z+trorBt+95QAs6o0CJxI/Be5UxQC1epUAd7JrB3WgCQWO1
XUCTYKnBMBOyQGfAPkAqR5DB8bL9QDDNwEDFoqLBXDeCQDaAZkCuFaXB2DHvP44aTUD3JJbB+1sd
QDTJYUCSPYrB3M40Qar9qT+zIMDBys/KQDRFIUF7L7LBTc4sQelkHEBpv8XBbb8sQaJ1gT9B67XB
IhPyQBDuGEHU0LXB2sauQHFVFEHYOqzBpHO1QKxADz5iH63BriDdQMjXwb4s06nBUMQcQQvjT0D9
J8HBJ9gcQaSt6D8YTLHB3m/9QPOgA0Ejg7PB0Om5QCMf/kDH8anBnPOgQCpnjz++56bBmn3vQDD2
QD32HaDBLfEUQehhPEBL2LbB3B3hQDq07EAltK3Bihq0QGa2zD+HXp3BdgnbQPregj8azJnBhHi2
QCcqm0CwLZ/BeAvbQCVLXECO9bbBbzMHQQhBqUCNQbLBMgq5QHMwj0CVdrPB0lFlQIzECkCNmpLB
tXVcQGx9kECubZbBxG8DQZ2UcEB8v7HBQHOdQDfQKkCJ1pbBfDTuQJV6v0BzdKrBdq2QQFMqeUAQ
X53BcCPHQOtZpEBTaanBvqwsQEQqV0BS/JHBujLGQMsnrEBSPZfB6M/zQGrfvD/1OYzBxyZBQZ8C
Nz+wqcPBIzzCQO+eMUGp+rPBBP4yQciZK0CAls3BIMcyQcCRGj7ip7HB7MYDQaHqIkGnYrrBD7mQ
QIq/GkHNaqnBL8OmQIk3W76iabTBhYntQBJMjb9Sva7BsnkWQdoIg0BvgMXBXqMWQaWxyT8/eKnB
kO0NQYLT+kAaMLbBR3mkQJpx6kCzSKXBbFmCQAKHwT+BaqnBqL4GQV9Nwb5Tf53ByrDQQCf+G0Bl
e7TBcmXeQKg8XkBCt7/B+LQXQYOfsEDw0a/BdoEEQcvCtEBxdrrByRu1QAdlp0C8xrnBjFiaQAWz
fUBlGLLBFAxKQKzStT+BFZjB5HFtQJRg3D83oIrB7TR5QFmWo0Dj94/BIwEyQNLppEDsPpvBOWwC
QQd9XkA4QqnBXuWxQOeNPkD3HJDBkLr9QFVjwUBCkqLBRSiDQB9FZUA6G6XBSwzvP38eTUDsQpbB
ovMcQPO1YkDFXYrBPMY1QdWTsj8ZD8DBBNfIQDmXIEGQt7LBxeQtQXEpiD+R2LXBSkgtQWjiH0BN
qMXBbFCtQLa6E0Euk6zBSF/wQAdpGEGJQbbBrNP7QOdTwD75FJrBiq3xQG7Gjr66s6PB4awdQcHj
6z+3M7HBruIcQS91UUCgDcHBbja5QHNc/UCsBarBb378QO5WA0HRr7PBaOLfQF6Tqz/r4pXB0j7L
QMDjgzzWCanBjzYVQcX0PED1vbbBl6zgQDw77EBhtK3BAFu5QEex1D9kOJvB8pmuQBJGeD+V3KTB
cWW3QH02m0BD0Z7BwhHbQFHwWkACqrbBKjwHQTP8qEBXFbLBHFC5QCrLjkDEJrPBv2ZjQChTDEDY
iZLBlxFcQKVzkUDad5bBHJADQQPob0AykbHBWC+dQGC+LUCY+5XBbmvuQGJkv0AjSarBzZiRQJkE
ekCJ8pzByLHHQO4PpEBbHKnB8XkrQLNsWUC18pHBXzLHQCeBrEBd7pbBbcJ0QPvknj+WrqzB71pC
QT6QTT80ncPBhqq/QIrCMEFoubTBik00QRsVWj7WmLHBP14zQZ7yL0CYfc3B7BGPQA0HGkEi06nB
wrwCQalYIkH99brBJZAMQdRFCz6G65XBQ7kDQQc4gb91/6bBWacXQby+yz9TW6nB2zMWQTV4g0Bn
Y8XBni2kQOfP6UD4NqXBdI8NQZCF+kC6SrbBOubnQNPg6z9RgY7BapnDQHKd/L6yabDBWMvQQL7h
GkACErTBrRDeQIoWXEBVbr/BV8AXQUhrsEBmra/Be3sEQT9ntED+SrrBPG21QNvwpkDternBN4ua
QKRPfUB/vbHBHWpKQKkRvT+xcpjBsb9nQHYf2j8rrIrBQKd2QNNwpUAvCJDBbrAyQEgZpUAyn5vB
YsUCQd25XUAsE6nBneCtQMG3RUCX1o7BPCj+QIHvwUCecKLBkQGFQDSzY0BbraTBHUbsP7O+T0BH
M5bBOggcQGFqZUCgVIrBTNM1QUSGsD9krb/BrTbJQNzKIEGZ5rLBYyEuQecNij+1XrXBoTctQYa+
HUDicsXBUt7wQNeTGEEUVLbBCkutQIjtE0EM36zBN/P9QIzC6T4Og5nBxCD0QHpUZb64CaPBMfUd
QWRM7z/K0bDBbtYcQXMBUEAy8MDB0rb8QJJ4A0E8wbPBsPS4QF62/UDCS6rBTmPhQGVdtD/DaZXB
pmnNQOBiAz0OYKjBFkwVQYxIPUDZjLbB0YzgQMSH7EAm3K3Bro+6QNJT2D/TvprBmBywQJKXeD/U
R6TBPkW3QKqgm0DAzJ7B3h3bQFS7WkDshrbBNSUHQbRGqUCqH7LBmjK5QISyjkAYG7PBFnplQMbF
DEBuIJLB2U1bQLookUCHkJbB/pQDQX2PcEAQebHBpuOdQGw2L0CyqJXB6SzuQDLHv0AhW6rBwNmR
QOfSeUCP2ZzB+3PHQK5kpEAaHqnBLdcrQCCpWEBA5JHBqQLHQDg3rUCW8pbBe9J2QJRblz/TB6zB
nVlCQRzfRj9DLMPBgD7AQLr9MEEA6LTBVKU0QXAxeD5f+rDBEzMzQYhvLED+V83BvyIDQa2CIkEK
87rByOqOQGc+GkFYOarBRr0NQTzuez7DWZXBIzEFQbb4cb9EQ6bB8R0YQfBp0j8V5KjBuBIWQddQ
gkBAZ8XBCLMNQTyx+kAgSrbBkqKjQLku6kAkkKXBQibpQIRn9z9JHI7BNhHGQNEK/r4Zr6/B4v/Q
QFzUGkAv1rPBoRPeQC4VW0C3S7/BgqcXQbj4sEC+wa/BxFIEQaBXtECEW7rB2z61QFSVpkBkfrnB
WXyaQLT8fEAGqrHBDcdNQJ++uT/h2pfBiTJqQP143z+9IYrBqph0QA36pUAyNpDB7oMxQJrro0Dm
3pvBQ8wCQdEzX0Af9KjBLmWuQGLqSEDilI7BRe79QMiKwkBghKLBC8mFQAq5YUBcjKTBB33uP0nl
TECyNJbBfzkbQPXeZUAuWIrBguk1QTs8sj8Ixr/BvNrIQCu5IEHK57LBZm4tQceJH0CQaMXBABAu
QXvQiD8GirXBRnjwQCaHGEE6YLbBGi+tQLPlE0F/yKzBZqn9QJPC4j71PpnBnyb0QBIKfL4nwKLB
RxMdQS9rUUCk0sDBFeYdQZlL7T+56LDBDoL8QNp3A0GBw7PB3wa5QO67/UDxLKrBTxbhQB7Msz9m
S5XB+snNQCALbTxeO6jBI3QVQWt/PUBDfLbBR4ngQKeP7ECvza3BhY66QEsI2D/MwJrBcnywQKLQ
dj+FSqTBf1e3QDKLm0Ccz57Bt3zbQMicWUDvTbbB0iMHQYNWqUCzHrLBkIy5QHhjjkC8FLPBhsdk
QFuqDEDoUZLB/GxbQHRNkUBRk5bBxscDQc2PcECUWbHBpaydQGQTL0C8u5XBNjbuQCTKv0BxVqrB
dM6RQCXueUBK5JzBdYLHQG5ipEA5HqnBDOMrQFsQWUA24JHBxRTHQJcRrUA385bBTwd5QCulmD9l
T6zBt3VCQa7jSz8MUcPB+ri/QDzhMEEl87TB7n4zQfk7L0DiQc3BsHM0QYviYD5WQ7HBjdgCQdhw
IkEzD7vBkd6OQMY1GkEnF6rBK3sNQR9kbT6Z/JTBuS4FQf8uer8h2aXBNmIWQdFZg0BKMcXBLOgX
QY31zT+bC6nBw5cNQUi8+kB8UbbBiuqjQC9D6kCQXqXBH53oQPqY9z8DAY7BPrbGQDC+BL8Cia/B
nXLRQJM+GkAMaLPBHF7eQFoxWEC4Er/BuKYXQStjsUD/1K/BhCUEQcgVtEBwXbrBU/y1QK4FpkCa
irnBArSaQM/CfECcrrHBzbtMQL4ivD8ZMZjBNCNpQJIv3D9raYrB1fl0QJgapkBDPJDBPZUxQLQZ
pEDo3ZvBMDADQbWpX0D1z6jB+eOtQBuUSEBbmo7Bmvr9QP52wkCTf6LBOqqFQC8sYkBwmaTBxSvt
PxIYTkAbFpbBqHQcQA/nZUCPR4rBktY1QQsHsj+Xpr/Bo/nIQH+wIEEfKbPBZGItQQV1H0CiSsXB
MvstQV7hiD8DarXBejmtQPf6E0Hl/6zBOZjwQDBpGEGuk7bBm6v+QOhC9T5I/ZjBg1z1QP8zX759
eKLByQIdQQBbUUB3uMDBeNEdQdqE7T/7y7DBkwS5QJT8/UCYSarBpJP8QNdkA0Hh3LPB9NvhQDHx
tz9mFpXBUAXPQKz2Bj2N/afBoVMVQcNmPUD3ZLbBvI/gQIao7ECo2K3By0K7QEZg2j++j5rB1XCx
QNbZeT8xFaTBQUW3QBbLm0AWv57BxT7bQBQaW0B/Z7bBMUsHQfRCqUBh37HBRGe5QCYRj0CIDbPB
A8llQKwBDUDkJJLBhwhbQC83kUCGo5bBw50DQel+cECwRrHB1AqeQMjhL0Cfl5XBcTfuQDsLwEDV
OqrBHvSRQCb+eUBY2JzBv37HQNu0pEAiC6nBOAYsQO/QWEDx4JHBcQnHQAomrUBq3ZbB0Tx6QBjx
lT9fBKzBN15CQSQGSz/LMMPBsea/QEzRMEGiRrXBWXszQcspL0A9Is3BI100QdQmYj5UILHBvuKO
QD5ZGkFlW6rB0+4CQQI6IkEkTLvBBP8NQcvMjT4mtpTBNdwFQY+rcr9LhaXBR1oWQdxXg0AKGMXB
79sXQYCXzj+o66jB7tajQLOz6kDvc6XBB6ANQQd2+kDsYbbBpkDpQKG+/D88043BPi7IQEWfAL/y
S6/Bb+LQQM1UG0AaubPB8XLeQERYW0DvKr/BGsEXQfPCsECiYq/BEb4EQVlgtEDUH7rBhsO1QJ/0
pkClc7nBdZCaQFUQfkD4qbHBs2hOQOTFuj/s7ZfBGUJqQKsL3z8wLIrBxdlzQCNppkC4VZDBCREx
QF6To0CfApzB7cYCQSy6XkB5xajBzyWuQDQnSkBmfY7Bzqn9QK8Rw0DQW6LBXCiGQOJ/YUDfjKTB
h0juPxfWTEDmIJbBMO0bQJw3ZkC7UYrB

> <OMEGA_E>
0CSNPpBdkz5Qy5c+4OmZPlC2zT6I5c8+uPLPPmSL0T4=

> <OMEGA_NBR>
     62895

$$$$
50199283
  -OEChem-04172616093D

 77 82  0     1  0  0  0  0  0999 V2000
   11.4415    1.3273  -23.8913 C   0  0  0  0  0  0  0  0  0  0  0  0
   10.9331    1.0156  -22.6156 C   0  0  0  0  0  0  0  0  0  0  0  0
   10.9343    2.4307  -24.6071 C   0  0  0  0  0  0  0  0  0  0  0  0
    9.9245    1.8123  -22.0517 C   0  0  0  0  0  0  0  0  0  0  0  0
    9.9215    3.2290  -24.0455 C   0  0  0  0  0  0  0  0  0  0  0  0
    4.7381    1.1248  -21.0183 C   0  0  0  0  0  0  0  0  0  0  0  0
    5.2734    0.1827  -21.9010 C   0  0  0  0  0  0  0  0  0  0  0  0
    9.4281    2.9285  -22.7565 C   0  0  0  0  0  0  0  0  0  0  0  0
    5.4816    1.5021  -19.8798 C   0  0  0  0  0  0  0  0  0  0  0  0
    6.7675    0.9218  -19.6848 C   0  0  0  0  0  0  0  0  0  0  0  0
    6.5432   -0.3643  -21.6338 C   0  0  0  0  0  0  0  0  0  0  0  0
    5.7446    4.7980  -19.8670 C   0  0  0  0  0  0  0  0  0  0  0  0
    7.5596    1.1620  -18.4191 C   0  0  0  0  0  0  0  0  0  0  0  0
    7.2604    2.5396  -17.8398 C   0  0  0  0  0  0  0  0  0  0  0  0
    6.4196   10.1915  -22.0329 C   0  0  0  0  0  0  0  0  0  0  0  0
    5.2736    9.2186  -21.7064 C   0  0  0  0  0  0  0  0  0  0  0  0
    7.4757    9.5336  -22.9417 C   0  0  0  0  0  0  0  0  0  0  0  0
    5.8105    7.9173  -21.0975 C   0  0  0  0  0  0  0  0  0  0  0  0
    8.0165    8.2365  -22.3179 C   0  0  0  0  0  0  0  0  0  0  0  0
    5.7506    2.6625  -17.5894 C   0  0  0  0  0  0  0  0  0  0  0  0
    6.9653    3.2968  -22.7970 C   0  0  0  0  0  0  0  0  0  0  0  0
    8.4640    5.2432  -22.2758 C   0  0  0  0  0  0  0  0  0  0  0  0
    5.8218    4.2352  -22.3686 C   0  0  0  0  0  0  0  0  0  0  0  0
    3.5445    4.4829  -18.6358 C   0  0  0  0  0  0  0  0  0  0  0  0
    3.4730    2.0855  -18.4703 C   0  0  0  0  0  0  0  0  0  0  0  0
    8.3028    3.7139  -22.1467 C   0  0  2  0  0  0  0  0  0  0  0  0
    4.5552    3.8607  -19.5808 C   0  0  2  0  0  0  0  0  0  0  0  0
    6.8578    7.2525  -22.0346 C   0  0  0  0  0  0  0  0  0  0  0  0
    7.3855    5.9446  -21.3958 C   0  0  1  0  0  0  0  0  0  0  0  0
    4.8862    2.5116  -18.8928 C   0  0  2  0  0  0  0  0  0  0  0  0
    7.1459   -1.3428  -22.6047 C   0  0  0  0  0  0  0  0  0  0  0  0
    7.2629    0.0156  -20.5553 N   0  0  0  0  0  0  0  0  0  0  0  0
    6.2367    5.0186  -21.1722 N   0  0  0  0  0  0  0  0  0  0  0  0
    2.7287    3.3397  -18.1613 N   0  3  0  0  0  0  0  0  0  0  0  0
    6.2084    5.4360  -18.9264 O   0  0  0  0  0  0  0  0  0  0  0  0
   12.2227    0.7191  -24.3227 H   0  0  0  0  0  0  0  0  0  0  0  0
   11.3183    0.1653  -22.0724 H   0  0  0  0  0  0  0  0  0  0  0  0
   11.3235    2.6632  -25.5873 H   0  0  0  0  0  0  0  0  0  0  0  0
    9.5280    1.5702  -21.0767 H   0  0  0  0  0  0  0  0  0  0  0  0
    9.5230    4.0677  -24.5971 H   0  0  0  0  0  0  0  0  0  0  0  0
    3.7671    1.5589  -21.2054 H   0  0  0  0  0  0  0  0  0  0  0  0
    4.7202   -0.1220  -22.7771 H   0  0  0  0  0  0  0  0  0  0  0  0
    7.2936    0.3944  -17.6774 H   0  0  0  0  0  0  0  0  0  0  0  0
    8.6332    1.0938  -18.6485 H   0  0  0  0  0  0  0  0  0  0  0  0
    7.8025    2.6658  -16.8910 H   0  0  0  0  0  0  0  0  0  0  0  0
    7.5802    3.3156  -18.5508 H   0  0  0  0  0  0  0  0  0  0  0  0
    6.0057   11.0725  -22.5453 H   0  0  0  0  0  0  0  0  0  0  0  0
    6.9005   10.5052  -21.0947 H   0  0  0  0  0  0  0  0  0  0  0  0
    4.5905    9.6961  -20.9885 H   0  0  0  0  0  0  0  0  0  0  0  0
    4.7273    8.9836  -22.6318 H   0  0  0  0  0  0  0  0  0  0  0  0
    7.0171    9.3001  -23.9139 H   0  0  0  0  0  0  0  0  0  0  0  0
    8.3097   10.2357  -23.0889 H   0  0  0  0  0  0  0  0  0  0  0  0
    6.2846    8.1417  -20.1306 H   0  0  0  0  0  0  0  0  0  0  0  0
    4.9734    7.2208  -20.9426 H   0  0  0  0  0  0  0  0  0  0  0  0
    8.7279    7.7683  -23.0140 H   0  0  0  0  0  0  0  0  0  0  0  0
    8.5293    8.4742  -21.3742 H   0  0  0  0  0  0  0  0  0  0  0  0
    5.4502    1.8779  -16.8793 H   0  0  0  0  0  0  0  0  0  0  0  0
    5.5496    3.6509  -17.1505 H   0  0  0  0  0  0  0  0  0  0  0  0
    6.7212    2.2696  -22.4886 H   0  0  0  0  0  0  0  0  0  0  0  0
    7.0707    3.3359  -23.8913 H   0  0  0  0  0  0  0  0  0  0  0  0
    9.4672    5.5381  -21.9343 H   0  0  0  0  0  0  0  0  0  0  0  0
    8.3324    5.5402  -23.3267 H   0  0  0  0  0  0  0  0  0  0  0  0
    5.5859    4.9243  -23.1930 H   0  0  0  0  0  0  0  0  0  0  0  0
    4.9311    3.6380  -22.1236 H   0  0  0  0  0  0  0  0  0  0  0  0
    4.0517    4.9752  -17.7929 H   0  0  0  0  0  0  0  0  0  0  0  0
    2.9171    5.2155  -19.1647 H   0  0  0  0  0  0  0  0  0  0  0  0
    2.9789    1.5422  -19.2893 H   0  0  0  0  0  0  0  0  0  0  0  0
    3.5203    1.4421  -17.5794 H   0  0  0  0  0  0  0  0  0  0  0  0
    8.2485    3.4689  -21.0757 H   0  0  0  0  0  0  0  0  0  0  0  0
    4.0526    3.6430  -20.5347 H   0  0  0  0  0  0  0  0  0  0  0  0
    6.3667    7.0044  -22.9872 H   0  0  0  0  0  0  0  0  0  0  0  0
    7.8412    6.1925  -20.4258 H   0  0  0  0  0  0  0  0  0  0  0  0
    8.1546   -1.6220  -22.2661 H   0  0  0  0  0  0  0  0  0  0  0  0
    6.5150   -2.2424  -22.6577 H   0  0  0  0  0  0  0  0  0  0  0  0
    7.2086   -0.8797  -23.6005 H   0  0  0  0  0  0  0  0  0  0  0  0
    2.5820    3.4133  -17.1748 H   0  0  0  0  0  0  0  0  0  0  0  0
    1.8455    3.3348  -18.6301 H   0  0  0  0  0  0  0  0  0  0  0  0
  1  2  1  0  0  0  0
  1  3  2  0  0  0  0
  2  4  2  0  0  0  0
  3  5  1  0  0  0  0
  4  8  1  0  0  0  0
  5  8  2  0  0  0  0
  6  7  2  0  0  0  0
  6  9  1  0  0  0  0
  7 11  1  0  0  0  0
  8 26  1  0  0  0  0
  9 10  2  0  0  0  0
  9 30  1  0  0  0  0
 10 13  1  0  0  0  0
 10 32  1  0  0  0  0
 11 31  1  0  0  0  0
 11 32  2  0  0  0  0
 12 27  1  0  0  0  0
 12 33  1  0  0  0  0
 12 35  2  0  0  0  0
 13 14  1  0  0  0  0
 14 20  1  0  0  0  0
 15 16  1  0  0  0  0
 15 17  1  0  0  0  0
 16 18  1  0  0  0  0
 17 19  1  0  0  0  0
 18 28  1  0  0  0  0
 19 28  1  0  0  0  0
 20 30  1  0  0  0  0
 21 23  1  0  0  0  0
 21 26  1  0  0  0  0
 22 26  1  0  0  0  0
 22 29  1  0  0  0  0
 23 33  1  0  0  0  0
 24 27  1  0  0  0  0
 24 34  1  0  0  0  0
 25 30  1  0  0  0  0
 25 34  1  0  0  0  0
 27 30  1  0  0  0  0
 28 29  1  0  0  0  0
 29 33  1  0  0  0  0
  1 36  1  0  0  0  0
  2 37  1  0  0  0  0
  3 38  1  0  0  0  0
  4 39  1  0  0  0  0
  5 40  1  0  0  0  0
  6 41  1  0  0  0  0
  7 42  1  0  0  0  0
 13 43  1  0  0  0  0
 13 44  1  0  0  0  0
 14 45  1  0  0  0  0
 14 46  1  0  0  0  0
 15 47  1  0  0  0  0
 15 48  1  0  0  0  0
 16 49  1  0  0  0  0
 16 50  1  0  0  0  0
 17 51  1  0  0  0  0
 17 52  1  0  0  0  0
 18 53  1  0  0  0  0
 18 54  1  0  0  0  0
 19 55  1  0  0  0  0
 19 56  1  0  0  0  0
 20 57  1  0  0  0  0
 20 58  1  0  0  0  0
 21 59  1  0  0  0  0
 21 60  1  0  0  0  0
 22 61  1  0  0  0  0
 22 62  1  0  0  0  0
 23 63  1  0  0  0  0
 23 64  1  0  0  0  0
 24 65  1  0  0  0  0
 24 66  1  0  0  0  0
 25 67  1  0  0  0  0
 25 68  1  0  0  0  0
 26 69  1  0  0  0  0
 27 70  1  0  0  0  0
 28 71  1  0  0  0  0
 29 72  1  0  0  0  0
 31 73  1  0  0  0  0
 31 74  1  0  0  0  0
 31 75  1  0  0  0  0
 34 76  1  0  0  0  0
 34 77  1  0  0  0  0
M  CHG  1  34   1
M  END
> <OMEGA_C>
ahA3QZPmqT9SIb/Bz+0uQW/+gT+87LTBxvIuQeuQG0BZ28TB6coeQTv55z/xabDBhr4eQYyoTkAr
XcDBzJ6XQM/5jz+FJajBAsCoQDIPOz5JNa/Br9kWQXxsO0A5DbbB8GivQItEwD/eCZ/BI4/YQNz8
az91ep3BsWHRQIGGur79Ea3BitO3QPmImUC0757BDejxQEe7lD9hWpPB7VToQO2IIkDbt47BBW3N
QD8QI0FgQ7DBVsGoQFR/E0HDpq3BHDnvQLuJGEGdiLfBm++5QMBa/UDDx6jBe0MAQZPIA0H1irLB
PgW4QBRmKkAut4zBwuPeQG3/UkBWYLbBj2wHQSrIp0DWNLLBCky6QBWHh0DW8rLB8dhiQMlzj0AR
FpXB60VeQE55BUA8w5PBHNgEQf2wbUBpLLHBgMSRQHMWd0BspZzBynLbQFQU6EDjRrDBRFbsQI86
vkCnKqvBc1ucQGi9IEB6JJfBRavkQJfhq79W1rTBfmnoQEDnfjxHcaTBapPHQJiYoECgYKnBHKMu
QHK9VUA/SpHB+6rGQIzzrUAxaZfBPZBDQdwTOD/LlMLBvhc1QepNKT47lLDBGC01QTJyKkDYsszB
1nIYQZr9yD8snajBaV4YQYAqgkDlxsTBnBdxQHmKxz+QpKnBxAuXQE/f+b11N7bBQmXpQOTzyT5Q
a43BviEKQb8AjD8WMJXBA675QPCcKkDFIIfBnJDyQFUyVEAfaJTBpS7AQOwoMUGwXLTBONHcQF8V
KEHywajBg+WSQCojG0F96KfBsEWXQMS8D0HkDbXByovgQCPNFEGYT7/BWvQEQVnFI0EdtrjBCRvJ
QHZEAkGFC6HBvCWfQJUQ50BziqfBmaULQdmV+ECzHLjBLngIQSaWB0Fe/qrBUWiuQFdg8D/hCIfB
CJaxQMinaUA+NInBLBTXQHVAEUC56LPBXUPiQHx/VUBXIb/BkHkXQYA4sUBmea/BcFEFQZtJsUAg
nbrB2r+yQIKTnUAyi7nBb8udQH7VaEAx/bDBdqeBQLQ0n0DrV47BprE6QAPlpkA1UZnB16Y+QN1l
xT9mUJrBfkxhQAiWuD+ioozBu/kDQbkCXkAFm6jBr66BQBwnaUABR6TBGbzLQHIk4EC15bfBF+v6
QL4oxkAKaKPBNnkCQdycz7/zILLBJHvQQP2CD8DlQrXBx6zmQBA2Yb+8zbzB2D8lQN5zWkAFZonB
JjjsPyBuVUCKCpXBeh44QT+lsD8ckL/Bo34vQVkqHkA9QMXBhTEwQQuRhj82WbXBewgfQXyMT0Bs
ssDBk8UfQbP/6D+px7DBYc6XQI8/jT9ZL6jBqKipQLIQJj6rJa/BO2QXQdtvO0ClXLbBg9yuQKaR
vj9V+57BlPXXQETsaT+JNp3BIU7SQN8Pv76i1KzB9/S3QGLPmEC0Ep/BFoPwQDVllD/s+pLBqZ/m
QAKEIkCfdI7B94TMQCOTIkGHmK/B9NunQI/NEkEJWa3BwEjuQEmVGEHJDbfBRgO5QGdw+0CZx6jB
XvX/QGOkA0EmWbLBKi22QDJ/KkAlsIzBx9DfQGP/UEBIfrbByqEHQaZdp0CIW7LB/hO7QFRJhkBl
DbPBDtJhQNj/j0A4bZXBgohbQKalBkDGFZTBh08FQYKebEAKYLHBi3GRQJbBdkD52JzBYjvbQNAv
50CyRrDBXKvsQMJWvUCiQavB61abQCGaIEDDPZfBA7fmQEyFqr/zkrTBSo7oQECdNjzBF6TBLDzI
QENfn0A6eqnBSrAuQAOHV0BuLpHBHY3GQFhwrUBLjZfBONlEQaFBSz+zDMPBs4c1QX7CLUDPG83B
erw2QWxOVj76CbHBzUMYQSpNgkCnFMXBAY0ZQQ8TyD+A/KjB2YBxQEHmwz+t1KnBtn2YQDVOGr43
N7bBR4PnQDW4yj6sDo3Bf4AJQTRiiz/MpJTBW2X3QADqKkBRyobBdkzxQMrqU0D0IJTBAFu/QHIB
MUHraLPBKtnbQHH2JkHj+6fBt7GRQDAFGkGkiqfBH7qWQCmBD0Eu27TB/XzfQI8zFUGL277BJmQE
QX/4I0GqHrjBqZXHQPHVAEEQ7KDBNESeQMDc5EB32KfB2WkLQUIe+UAZBrjBoywIQfkdB0G4warB
dBusQBTl8D/RCIfBbn6vQG7aaUDvO4nBI1bYQDY8D0Ai+LPBOvfiQMUqU0D4QL/Br6gXQXUUsUCZ
pq/B3GYFQcL6sEDMv7rB0WOzQI5TnECdo7nBc7CeQBUCZkBMGLHBPhaBQOkaoUB84o7BusQ4QFpr
pkA63ZnBih87QNK+zj862ZrBcvJcQDSOtT9sNI3BTaYEQfSWXEAM0KjBZ6iBQE63aEDFg6TBJfTL
QJJh30DJ9bfB3Ez7QB44xUCyf6PBQX0DQXsPzL94v7HBfiDTQJOUD8C1IrXBrPToQIs6XL/UgLzB
dOQpQHo7XEC/OYnBhlfoP8kqWECEa5TBCZQ4QTVlvT8+GcHBf5kyQaxIkT8dlrbBufUtQTiDIUAN
fsbBCi4iQe0a7D9caLHB9YUdQYoGT0DTVcHBkFGXQC2zjz8XMajBSfaoQE7hLj6PGK/B48oXQeEE
OkB3t7bBVpSuQCAgwj+MCp/Byu3XQEZXdD8EWZ3Bnc/RQOJHtb4u2azBV3m4QEaYmUDDmp7B7Gfw
QBbllz+bE5PBxATmQGoLI0CERo7Bxpu7QJ+AG0GRA7XBJK3pQK3LFUEiPLjBSYmyQJptFEHYfqnB
NRnyQI9V+0ClD7fBjvG6QE7m+EDqGqjBVGS1QJSEKkBepIzBDkHgQPftUkCN6LXBv10JQe/BpUCC
hbHBTPW9QB2sikADvrLBnqlgQHPOkEChmJXBEkxaQIFnCED4Q5TB3DMGQQGsaUAiB7HBFJ2RQD6J
eEC03ZzB+YDpQOIr7EDgcqvB89byQAouu0AxhKnBIvCaQEv/IUDWSJfBmt/lQDIbqr+ghrTBGnzo
QNiJUj1pPKTBbRrLQF7GoEAcwKjBH70tQAg2WUDbT5HBSXnGQIKtrEDywpbBslVFQdQtcT9JCMXB
b6E6QWrfpj46grLBynEyQRPDMUDZlc7B8YQdQc3UyT9LXqnBOEoVQcj5gEDqesXBQpJwQE+Hxj8G
16nBe3qXQMHoIb6hEbbBBNDnQHZLzj6pSY3BuHQJQYR6kT/GxJTBeFb2QNHHKUAfhobBVe7wQP7K
VUD+upPBZDO3QHnrLEFJorXBlSqlQKRhE0FkcbrBftruQM52GkHQnsDBlAgAQYWaHkEPEbPBaW3H
QGdqHUFnBaTBLN2QQG7PF0FXkafBR+fcQHXF6UDLi7zBctQJQcmo9EDlH7nB3iO2QJ5l8ECMpp/B
VyCkQNIA50DsF63BHiWrQMA/7z+6IIfByniuQElXaUA3EYnBxmDWQNmDE0DF/bLB/RPjQHFnUUCP
rb7B4OUZQeDTrUCDRq/B+iYGQUtBsUCgrrnBhnK6QHZQokDaM7nBBTefQLGvdEDtb7HBiOx/QLBn
okCTDY/BMp03QDTIpkDKK5rBnjM6QFjH0z8vG5vBuexaQLPutz/PcI3B9CAGQTE6VkD9kajBls6C
QIBga0CnraTB1mj/QKcY/kCkN6bBiDMBQdlquUCxoqHB2SYDQYqayr+txbHBrlHSQE+ED8DL5LTB
I6jnQHLWX7/ghrzBvm4pQNDcXUDtWYnBMA3mP8DtWUCcfpTBxKI4QSHOrz94ysDBDEgxQdgjJECN
jMXB3nkvQV2Taj9vKrfBwd8gQfmTU0DSpcDBRicfQZNV1D9WN7LByZGYQJmnnT+xdajBgQGoQPu4
Zj4oNK/BrQ4YQeF3N0DJ1bbBsKuwQEt/zD8aXp/Bl83WQM2sXj/AGp3BZSHPQNjizb6Wu6zBOAa2
QHQznkCUcZ/BhPLvQCivjD/Y65LBombSQJ3nyz89+onBOrG4QCKsHEG1xbDBBQPNQD5wEEH/MLrB
ddvSQHZVGUHggabBYzDRQEDp8EA3nLfBga3WQOtzAUG7AaTBW8e9QC7uOEBG1o3BszPhQF2FUUDN
brbBRqcJQVoApUBm97HBiOa9QGCriEDcHrPBLAliQGUIkUDZT5XBHvRmQFKLCUBbLJPBV14GQS55
aEAUY7HBryKRQCscfUCoL53BKj3sQJWT6kDMU63B9mjzQHrgukCxQarBu7qeQM65KEBOi5fBFYTh
QGwztb/4WbTBtLDlQPpPjb1R6aPBssrKQAqOoUCvcqnB41MxQEkhV0AmapHBi1vCQEhAtECD7JfB
R1RFQcwoTz8PiMTBIT84QUEmOkBG9szBvv40QbgMkrtzl7PBrQIbQWWxhkAsXsTBEQoYQQ31pj/v
3qrBvSZ1QBOG3D/cL6rB7CSWQDJ+ib13OLbBpAP/QEI9Hj7xcJDBbW8EQZw37T/1aJTBv5G5QFBf
Vz+mUojBsArlQFrP4z/uqYLBrcC3QO/XLUFXsLLBYeuXQDzIFkEbfq/BU8S4QHBlEkHLUsHBVP/s
QC4NF0H3yrvBdwnzQGIfIEH+mafBts/CQAV1IUFrz5/BuSGxQEI840BxYLbBDOrgQBmL4EAaVr7B
qgDqQPPE/kB+uZzBeH+2QC+o9UA/r6LBi3qrQH1dVUCPNofBzRfXQHuDZUB3WpDB9erXQI/zEEDs
zbPBOWnkQKVuUkAIMr/BmyEaQc31rECHma/B1MIGQcYqsECIL7rBOwW4QB38nkD4w7nBKGOgQN+z
bUDvV7HBUIqBQCERoUDEp47BjEs3QEfxp0DVUpnBOvpHQPWWvT+4/pjBcFJwQEpwzj90lIvBR/EF
QdfEVUDu56jBcN+AQEeAbUArvqTBFukFQTUZ+UCPtq7BCTEBQcXJukDgSqLBJWUAQZDX4L+EX7HB
GKrLQIiSEcCu97TB74blQB/wdL9DSbzBY6skQL3RXUANnonBNtr0P53RUUDaeJXB

> <OMEGA_E>
MAYcPpjSID4gGEc+MExoPg==

> <OMEGA_NBR>
     68017

$$$$
50220810
  -OEChem-04172616093D

 46 49  0     1  0  0  0  0  0999 V2000
    7.0737   -2.7106  -15.9159 C   0  0  0  0  0  0  0  0  0  0  0  0
    7.6195   -2.4822  -14.8562 C   0  0  0  0  0  0  0  0  0  0  0  0
    5.6053   -0.7287  -22.8519 C   0  0  0  0  0  0  0  0  0  0  0  0
    5.6729   -1.6890  -21.8294 C   0  0  0  0  0  0  0  0  0  0  0  0
    5.5779    0.6392  -22.5336 C   0  0  0  0  0  0  0  0  0  0  0  0
    6.3971   -1.9949  -18.1652 C   0  0  0  0  0  0  0  0  0  0  0  0
    5.6698    0.0910  -20.1608 C   0  0  0  0  0  0  0  0  0  0  0  0
    5.8377   -4.2340  -17.4095 C   0  0  0  0  0  0  0  0  0  0  0  0
    5.1923   -3.5761  -19.5653 C   0  0  0  0  0  0  0  0  0  0  0  0
    6.4329   -2.9786  -17.1653 C   0  0  0  0  0  0  0  0  0  0  0  0
    5.7031   -1.2855  -20.4747 C   0  0  0  0  0  0  0  0  0  0  0  0
    5.7648   -2.2925  -19.3913 C   0  0  0  0  0  0  0  0  0  0  0  0
    5.6386    1.0662  -21.1830 C   0  0  0  0  0  0  0  0  0  0  0  0
    5.3350    3.2900  -18.6930 C   0  0  0  0  0  0  0  0  0  0  0  0
    4.0244    3.3590  -19.3682 C   0  0  0  0  0  0  0  0  0  0  0  0
    5.4345    3.9117  -23.1274 C   0  0  0  0  0  0  0  0  0  0  0  0
    5.8916    4.9098  -22.0505 C   0  0  0  0  0  0  0  0  0  0  0  0
    6.2457    3.4226  -21.9157 C   0  0  0  0  0  0  0  0  0  0  0  0
    5.5673    2.5545  -20.8192 C   0  0  2  0  0  0  0  0  0  0  0  0
    8.2764   -2.2099  -13.5815 C   0  0  0  0  0  0  0  0  0  0  0  0
    5.5910    3.6832  -17.2568 C   0  0  0  0  0  0  0  0  0  0  0  0
    5.2338   -4.5128  -18.5891 N   0  0  0  0  0  0  0  0  0  0  0  0
    6.2405    2.8369  -19.5316 N   0  0  0  0  0  0  0  0  0  0  0  0
    4.1614    2.9228  -20.5944 N   0  3  0  0  0  0  0  0  0  0  0  0
    2.8487    3.8192  -18.7929 N   0  0  0  0  0  0  0  0  0  0  0  0
    5.5744   -1.0425  -23.8849 H   0  0  0  0  0  0  0  0  0  0  0  0
    5.7019   -2.7394  -22.0788 H   0  0  0  0  0  0  0  0  0  0  0  0
    5.5100    1.3718  -23.3243 H   0  0  0  0  0  0  0  0  0  0  0  0
    6.8458   -1.0266  -17.9994 H   0  0  0  0  0  0  0  0  0  0  0  0
    5.6682    0.4022  -19.1267 H   0  0  0  0  0  0  0  0  0  0  0  0
    5.8641   -4.9898  -16.6384 H   0  0  0  0  0  0  0  0  0  0  0  0
    4.7097   -3.8138  -20.5017 H   0  0  0  0  0  0  0  0  0  0  0  0
    4.3700    3.6500  -23.2190 H   0  0  0  0  0  0  0  0  0  0  0  0
    5.8947    3.9307  -24.1263 H   0  0  0  0  0  0  0  0  0  0  0  0
    6.6783    5.6437  -22.2795 H   0  0  0  0  0  0  0  0  0  0  0  0
    5.1536    5.3629  -21.3722 H   0  0  0  0  0  0  0  0  0  0  0  0
    7.2951    3.1684  -22.1255 H   0  0  0  0  0  0  0  0  0  0  0  0
    8.2078   -1.1356  -13.3552 H   0  0  0  0  0  0  0  0  0  0  0  0
    7.7823   -2.7847  -12.7843 H   0  0  0  0  0  0  0  0  0  0  0  0
    9.3344   -2.5045  -13.6441 H   0  0  0  0  0  0  0  0  0  0  0  0
    6.6543    3.5323  -17.0187 H   0  0  0  0  0  0  0  0  0  0  0  0
    5.3304    4.7424  -17.1148 H   0  0  0  0  0  0  0  0  0  0  0  0
    4.9744    3.0615  -16.5910 H   0  0  0  0  0  0  0  0  0  0  0  0
    3.4277    2.8513  -21.2701 H   0  0  0  0  0  0  0  0  0  0  0  0
    2.0039    3.8369  -19.3277 H   0  0  0  0  0  0  0  0  0  0  0  0
    2.8461    4.1332  -17.8435 H   0  0  0  0  0  0  0  0  0  0  0  0
  1  2  3  0  0  0  0
  1 10  1  0  0  0  0
  2 20  1  0  0  0  0
  3  4  2  0  0  0  0
  3  5  1  0  0  0  0
  4 11  1  0  0  0  0
  5 13  2  0  0  0  0
  6 10  1  0  0  0  0
  6 12  2  0  0  0  0
  7 11  2  0  0  0  0
  7 13  1  0  0  0  0
  8 10  2  0  0  0  0
  8 22  1  0  0  0  0
  9 12  1  0  0  0  0
  9 22  2  0  0  0  0
 11 12  1  0  0  0  0
 13 19  1  0  0  0  0
 14 15  1  0  0  0  0
 14 21  1  0  0  0  0
 14 23  2  0  0  0  0
 15 24  2  0  0  0  0
 15 25  1  0  0  0  0
 16 17  1  0  0  0  0
 16 18  1  0  0  0  0
 17 18  1  0  0  0  0
 18 19  1  0  0  0  0
 19 23  1  0  0  0  0
 19 24  1  0  0  0  0
  3 26  1  0  0  0  0
  4 27  1  0  0  0  0
  5 28  1  0  0  0  0
  6 29  1  0  0  0  0
  7 30  1  0  0  0  0
  8 31  1  0  0  0  0
  9 32  1  0  0  0  0
 16 33  1  0  0  0  0
 16 34  1  0  0  0  0
 17 35  1  0  0  0  0
 17 36  1  0  0  0  0
 18 37  1  0  0  0  0
 20 38  1  0  0  0  0
 20 39  1  0  0  0  0
 20 40  1  0  0  0  0
 21 41  1  0  0  0  0
 21 42  1  0  0  0  0
 21 43  1  0  0  0  0
 24 44  1  0  0  0  0
 25 45  1  0  0  0  0
 25 46  1  0  0  0  0
M  CHG  1  24   1
M  END
> <OMEGA_C>
+lviQFp6LcCCp37B0tLzQOLcHsATs23B416zQBiMOr+y0LbBV4i1QLYx2L+Soq7BPH6yQNmjIz/C
RLTBCbXMQOBZ/79mUpHB/m61QFlGuj1pSaHBL866QEB9h8CYRovBTSemQATeZMCwhZzBStrNQCqh
PsCZUonB/n+2QPSLpL8WzKPBN3m4QAi4EsB6IZvBLm+0QKx5iD/XdqnBi7iqQNyOUkBKi5XBnseA
QLX5VkAC8prBf+etQMNYekDXBLnBz4e8QLscnUBqZ7DBc9zHQFcMW0BHU6/BfieyQER9I0CfjabB
P2wEQa5uDcDDTVnBp+myQPK5a0DoDYrBrHunQHpokMCTtpTBTbLHQI2QNUDFQJzBIyqFQG8OO0A+
waTB61A2QHNtdEDbV5bBiGGyQIlvhb8vFL/BnnW2QOBSL8BJobDBT1KwQMyVrz8UmLrBbRDbQHto
g7/Q/o/BjGG1QHftzT5qA5nB1aa7QCysn8BoG4XB1rWWQMgVdMCPA6TBOdeLQFWZaUBuwLnBM6G8
QCuRe0CrAsHBoLTVQN+YtEB5PLLBpuqkQPScq0A8+qrBlXHpQLHHSkAHAbHBUFMDQShbkb/lrlXB
ogj5QLw3MsCOjEzBs1kVQSRJIMASTlrB1+/UQHEQYkBCJojBr5KqQPHBl0AF64jBoi6fQMzuQ0By
uoTBJmBbQDJ7NkAxKarBxj8AQKiPdUAdn5rBfiY2QM5ChEBtv47BAdLkQMF5LMAuBn/BcLv2QEFi
HcA8Nm7Bfi2xQEXWOr941rbBG4G0QDCf2L8ir67BXPSvQNdeIz+QQrTBuQTOQA4B/7/Ac5HBoA61
QIycqz3iT6HBp9q8QHtkh8DKRYvBGBOnQCBnZcC/dpzBdcnPQKosPsDwbInB9062QGtGpb/+16PB
Pjy5QLgEE8DCLZvBbQmzQArKhz/XdqnBS4CqQK7MUUCnhZXBQqiAQN91V0Cc8ZrBtGPqQNBxjUBn
QK3B++30QPlMRkBT4LLBoHLGQD7mWUCsn6/Bj7GxQB9VI0AJkabBRSUGQRVdC8BS/FnBk+OyQP2j
akDRCIrBJQupQKaOkMABopTBuDPHQJtgM0BIMZzBvTOFQLAEPkDk2qTBteo1QMagc0DzQJbB4Y6v
QJJahb93Gb/BvK+1QAF5L8BjtLDBDaWsQPuUrz8CjLrBflHcQEm7gr/RNZDByqa1QFNXyT4fCZnB
jS++QEx6n8DXFYXBojqXQJ0EdcDU46PBgu30QAHYkkDk9qTBAuXrQKu7q0AquLHBIwf+QPU/RkCS
YLvB0YcDQaJ4FEBMn67BK9qwQCI8a0D6ObbBoXwFQW+BjL++slbBakH8QGJfLsCT/UzBkfIWQTfo
H8AMBlvBWMTUQMtUX0DJG4jB4l6rQL1pl0At6YjBy6CeQLzdQ0Alt4TBLxxcQLvwPECWYKrBiuH/
P3rAdUBGi5rB8o01QPfmgkBRlY7B9YW8QA2jqcC+V5DB7tjRQPwwx8CDBI3BFNncQGhmFr/2XLXB
KozLQPwUyr+lpq7BmhrTQCNfRT88n7PBTbG1QAfxVMBTtZvBWwCnQNF1FT6ZY6TBtBV0QCQSf8DP
YJDBuipnQB5fA8BW0ZrBNt+jQFGphsAFOZTBX0WwQLHkmr/iJ6bBsHWdQEQEDsCI+p7BK9e3QDoC
lD+jG6vBUJCnQKOydUCSRLnBrKvNQK5jh0DE/7LB0V6hQAVnNkDJt5TBdwGKQDGMgkByNpnBKg2M
QGvGMkDM1p/BWSCpQP/KJ0Ad/6nBpIbrQGal6sCwAInBzHmcQM6ii0AGSsTBTElFQPlYO8C+upPB
FwKRQKilPUBry7PBhvbNQCzmYkCeDarBzp3rQIjvpUB8D7bBk6/xQJBsXr/N4LvB+B/TQAedJ8BV
/6/By4fgQKInwz8w0rjBXVzVQG7PX8Dg457BZp+SQBTM2D4Axp3Bet1YQOCIlcAbporBF3NBQMJa
mr+LX53BknbEQEWGNkAkCJTBt4aTQFuCEkAt/I3BdOtWQKnTjECarJXBlWWcQJ7VnkCRuJvBARNc
QKMRDkAIIaDB3JvjQGv2A8Hwd43BINcGQbQ648BPDIrBqq7kQAyM78BAdYDBuhF9QCiQeUCuDMfB
mmeYQAKSrkBF7sPBDHG2QHLCg0AU5cnBEKbjQImUaECdNqTBwBoCQX3brEBEPrHBe4/oQID7tEBY
FL3BJFi4QHZSr8Ch8ZLBrFTLQOhY0MCCFZHB/KXdQFZ0Fr+eG7XBLvzKQOUfx79bfq7B6hvWQBa0
Rj+2NrPB3gK0QED5VcBDZZzBJg6nQBDWVT6TcKTBWOtxQG8VgcCEDJHBSk1nQDBKAMCiXJrByN6h
QN7aiMC4YpXBRJivQADhlL+rF6bBeLecQMOjC8At8p7BiJ+7QCqZmj97oqrB1nWaQEDhbED6ErnB
TszFQDvWhUBHgrbBHPiAQKxsOkATWJfBkJKvQNgmKkAkv5PBCk6mQMYLV0AHeJ7B/luwQIYELkBY
vanB4OzhQBtL+MBt947BPOiBQE61gkCGBsPBoEFFQOK7OsCvlZPBAZOMQKqmO0BXRLHBtJfTQK4r
YkDvGq7BUtvbQE1fpUDODbzB2+HxQGEHZL/trbvB74/RQBWUJsAV06/BmLjkQIqIwT9tYLjBclbT
QPjAYMBiyZ/Bzm+QQMWRAD/pV57BvFFWQOsRmMDPmIvB1e5CQGxFj7+wUZzBDERZQJl1BEDBz5nB
Rq9aQNNuakCzLZPBBSu9QJ2dTkCzB43BZ3W8QMZI0T/BqZPB6BysQCA7jkDlQ57BFRz1QLfz9MDC
oofBkZbKQGwoCcGa7Y3Bjh73QPvA/8CSvZXBXwtEQHCiZ0D50sLBRfJ8QPa2pUBHXMPBM1uTQK0Q
b0ChI8rBIz7xQLRLZUAjH6vBNSj5QH0TrkCNr7nBo3LOQBZjs0C2asLBYSysQLxhPsCDEYDBXvy6
QNBHQMBAMW7BG5i5QORBHb+gybfB6UapQLpAvr/39K/B0x3LQLwzID+sybTB/NCrQOi4A8DUSpLB
6Kq8QEAE6z1JDaLBwpdxQIypcsDLio3BvkxwQEgCPMDJA5/B9NmaQCYZPMCMporBtvWqQNrVkL/U
AaXBPkGaQMhAA8AzspzBqdzLQEa9gT8F5qnB7mS2QJO8gEBsvZ/Bu0u/QOrgiUCCFqvBeNgTQXhM
SUDMHZ3BfsQPQf3L2D8lhJnBptsHQecEC0ACgaTBPSPfQNbEFkCBjabBPs/MQDatQsDQnFjBMVOc
QH7CnEC3XpjByD9QQNTuccDPipfBDcLIQLQxOUDuBJ3BYJbYQFA1WECX1K7BQN+vQDq8rEDtw7DB
Wqq4QN7GZb8yH8DB8mebQNWQG8DvT7LB/g7YQAp6pD+T0brBwOHFQDvHsr8gP5DBIZy+QDFIxD6O
spnBAnhXQFb7jsAEp4fB0R5VQBRHPMBu9abBfjILQflPfkABRJnBwiYkQVMtXkDgJ5/BbikdQS+3
ez+++5jBKjUEQeQgvj/fF5PBpBQRQcfl5j9HZavBs3PMQKviAcARu1HBOXm5QEyobcA1kk7BifDt
QPdQWsA5RVnBsxqbQMUxjkBQXZDB5zirQFmUvEA+1ZfBmEt3QIrvn0Ani5vBfmzlQDNYV0BkKLbB
vQS4QEG2sEAHcLjBBpqcQOjlwUAQMK3B4V/NQBZ+RsDhH5nBsIHWQCtRe8CYYpLBVcWQQMoLT0Dj
/JXBGCuZQCwa8z9Jq5jBqFWZQAE1iEA+X53B7iy8QMe3Sb+s5p3BUJSzQAPfJkBMJqrBpa6+QHhg
HsAM3avBTmmuQN51hr73krDBjavCQBivB8DA+6DBJB+qQLZ0yT+A1KLBJMKxQMQjJz7IyqXBEtmr
QJJPfUAdeafBpbG7QFvHlEDMU8HB9H/nQFwSlkBy7bzB8bzHQNcV30D9L6HBj2HPQIPP80C/H6zB
u46uQNVOz0BLBqvBfda3QA+9oUA8i6/BOYjhQLxencBsRYrBSMuwQJSkjEBE7szBZsO0QMroxr+B
arPBnNifQPqkm0Don7nBvh7lQFionEAGmrLBjmUGQUvLkEBkz8LBK7KDQMyTXkCvOo7BuqmSQHPJ
jj9785LBAMiRQO/0qEASXJvB2Ru/QEfV/b6cnZXBX9/AQCA0F0B14bHB5KTDQIghYMBiOK7BIJim
QLxF7D7urbbBBIzgQLKmykBomZ3BsEK3QBoa8UAz2ZrBdWTEQPpZCkHGoa3Bya3tQIxA7kD7YbDB
5cuMQPAx2UADVKvBD6jRQFjgu8DwJYzBtTQCQQYXosDcKorBCNnWQLoLksD2YILB6tiNQBlVjUBh
+M3BHny/QL2SpUD88NHBeCC9QPAyWkD9U8/B9gb+QPoFnkAxl63BuZ0UQUPikUANJ7/B8pwFQdPm
i0DTtMrB

> <OMEGA_E>
aO1sP3KZeD/JUog/lfqKPwubsD97k68/

> <OMEGA_NBR>
      5100

$$$$
50220798
  -OEChem-04172616093D

 53 56  0     1  0  0  0  0  0999 V2000
    6.8396   -0.5574  -22.6235 C   0  0  0  0  0  0  0  0  0  0  0  0
    6.2639   -1.5611  -21.8245 C   0  0  0  0  0  0  0  0  0  0  0  0
    6.5864    0.7978  -22.3450 C   0  0  0  0  0  0  0  0  0  0  0  0
    5.1359    0.1440  -20.4992 C   0  0  0  0  0  0  0  0  0  0  0  0
    5.1403    3.5689  -23.1898 C   0  0  0  0  0  0  0  0  0  0  0  0
    6.9603    4.4704  -21.8362 C   0  0  0  0  0  0  0  0  0  0  0  0
    3.5777   -2.0840  -19.2856 C   0  0  0  0  0  0  0  0  0  0  0  0
    5.6228   -3.3597  -19.4893 C   0  0  0  0  0  0  0  0  0  0  0  0
    3.9004   -4.0502  -18.0695 C   0  0  0  0  0  0  0  0  0  0  0  0
    5.4119   -1.2103  -20.7546 C   0  0  0  0  0  0  0  0  0  0  0  0
    4.8585   -2.2356  -19.8570 C   0  0  0  0  0  0  0  0  0  0  0  0
    5.7128    1.1590  -21.2866 C   0  0  0  0  0  0  0  0  0  0  0  0
    5.8673    3.5879  -21.9807 C   0  0  0  0  0  0  0  0  0  0  0  0
    5.5092    4.4052  -24.2563 C   0  0  0  0  0  0  0  0  0  0  0  0
    7.3207    5.3311  -22.8853 C   0  0  0  0  0  0  0  0  0  0  0  0
    6.5816    5.3164  -24.0932 C   0  0  0  0  0  0  0  0  0  0  0  0
    5.3684    3.2538  -18.7186 C   0  0  0  0  0  0  0  0  0  0  0  0
    4.0141    3.2818  -19.3017 C   0  0  0  0  0  0  0  0  0  0  0  0
    5.4863    2.6131  -20.8761 C   0  0  2  0  0  0  0  0  0  0  0  0
    4.7090    4.3544  -25.5449 C   0  0  0  0  0  0  0  0  0  0  0  0
    8.4628    6.3085  -22.6751 C   0  0  0  0  0  0  0  0  0  0  0  0
    5.7059    3.6054  -17.2924 C   0  0  0  0  0  0  0  0  0  0  0  0
    6.2017    7.4292  -25.0725 C   0  0  0  0  0  0  0  0  0  0  0  0
    3.1170   -2.9955  -18.4053 N   0  0  0  0  0  0  0  0  0  0  0  0
    5.1344   -4.2466  -18.5979 N   0  0  0  0  0  0  0  0  0  0  0  0
    6.2292    2.8541  -19.6245 N   0  0  0  0  0  0  0  0  0  0  0  0
    4.0797    2.8467  -20.5313 N   0  3  0  0  0  0  0  0  0  0  0  0
    2.8574    3.6647  -18.6422 N   0  0  0  0  0  0  0  0  0  0  0  0
    6.9172    6.1773  -25.1133 O   0  0  0  0  0  0  0  0  0  0  0  0
    7.4771   -0.8275  -23.4523 H   0  0  0  0  0  0  0  0  0  0  0  0
    6.4734   -2.6006  -22.0292 H   0  0  0  0  0  0  0  0  0  0  0  0
    7.0586    1.5664  -22.9389 H   0  0  0  0  0  0  0  0  0  0  0  0
    4.4730    0.4096  -19.6890 H   0  0  0  0  0  0  0  0  0  0  0  0
    4.2940    2.9064  -23.2960 H   0  0  0  0  0  0  0  0  0  0  0  0
    7.5219    4.4833  -20.9138 H   0  0  0  0  0  0  0  0  0  0  0  0
    2.9648   -1.2362  -19.5538 H   0  0  0  0  0  0  0  0  0  0  0  0
    6.6009   -3.5119  -19.9214 H   0  0  0  0  0  0  0  0  0  0  0  0
    3.5261   -4.7643  -17.3509 H   0  0  0  0  0  0  0  0  0  0  0  0
    3.8720    5.0658  -25.4857 H   0  0  0  0  0  0  0  0  0  0  0  0
    5.3589    4.6228  -26.3908 H   0  0  0  0  0  0  0  0  0  0  0  0
    4.3161    3.3377  -25.6926 H   0  0  0  0  0  0  0  0  0  0  0  0
    9.4068    5.8450  -22.9977 H   0  0  0  0  0  0  0  0  0  0  0  0
    8.2803    7.2181  -23.2662 H   0  0  0  0  0  0  0  0  0  0  0  0
    8.5289    6.5712  -21.6090 H   0  0  0  0  0  0  0  0  0  0  0  0
    6.7857    3.4753  -17.1278 H   0  0  0  0  0  0  0  0  0  0  0  0
    5.4290    4.6520  -17.0975 H   0  0  0  0  0  0  0  0  0  0  0  0
    5.1491    2.9458  -16.6106 H   0  0  0  0  0  0  0  0  0  0  0  0
    6.5206    8.0620  -25.9138 H   0  0  0  0  0  0  0  0  0  0  0  0
    5.1213    7.2365  -25.1477 H   0  0  0  0  0  0  0  0  0  0  0  0
    6.4171    7.9438  -24.1244 H   0  0  0  0  0  0  0  0  0  0  0  0
    3.2991    2.6973  -21.1382 H   0  0  0  0  0  0  0  0  0  0  0  0
    1.9757    3.6194  -19.1119 H   0  0  0  0  0  0  0  0  0  0  0  0
    2.9042    3.9864  -17.6965 H   0  0  0  0  0  0  0  0  0  0  0  0
  1  2  1  0  0  0  0
  1  3  2  0  0  0  0
  2 10  2  0  0  0  0
  3 12  1  0  0  0  0
  4 10  1  0  0  0  0
  4 12  2  0  0  0  0
  5 13  2  0  0  0  0
  5 14  1  0  0  0  0
  6 13  1  0  0  0  0
  6 15  2  0  0  0  0
  7 11  1  0  0  0  0
  7 24  2  0  0  0  0
  8 11  2  0  0  0  0
  8 25  1  0  0  0  0
  9 24  1  0  0  0  0
  9 25  2  0  0  0  0
 10 11  1  0  0  0  0
 12 19  1  0  0  0  0
 13 19  1  0  0  0  0
 14 16  2  0  0  0  0
 14 20  1  0  0  0  0
 15 16  1  0  0  0  0
 15 21  1  0  0  0  0
 16 29  1  0  0  0  0
 17 18  1  0  0  0  0
 17 22  1  0  0  0  0
 17 26  2  0  0  0  0
 18 27  2  0  0  0  0
 18 28  1  0  0  0  0
 19 26  1  0  0  0  0
 19 27  1  0  0  0  0
 23 29  1  0  0  0  0
  1 30  1  0  0  0  0
  2 31  1  0  0  0  0
  3 32  1  0  0  0  0
  4 33  1  0  0  0  0
  5 34  1  0  0  0  0
  6 35  1  0  0  0  0
  7 36  1  0  0  0  0
  8 37  1  0  0  0  0
  9 38  1  0  0  0  0
 20 39  1  0  0  0  0
 20 40  1  0  0  0  0
 20 41  1  0  0  0  0
 21 42  1  0  0  0  0
 21 43  1  0  0  0  0
 21 44  1  0  0  0  0
 22 45  1  0  0  0  0
 22 46  1  0  0  0  0
 22 47  1  0  0  0  0
 23 48  1  0  0  0  0
 23 49  1  0  0  0  0
 23 50  1  0  0  0  0
 27 51  1  0  0  0  0
 28 52  1  0  0  0  0
 28 53  1  0  0  0  0
M  CHG  1  27   1
M  END
> <OMEGA_C>
wd3aQMmxDr/Y/LTBo3HIQCjSx7+AmK7B2sPSQNI9TD+RwrLBD1mkQG+BEz5k/qPBhn2kQCdoZECt
hLnBv7reQEcNj0CTsK7BqPhkQLBgBcDzSJrBHO6zQIsFV8Aa6pvBsqB5QF+bgcBljpDBXC6tQMDq
mr92CabBm3ibQMYUD8Af257BUs+2QMZYlD/2SqrBScG7QGafZUB82K/BmkuwQGz3jEDtDMLBdUPq
QISYqkAZFbfBZJzSQCMgqkDqvsDBP8qrQJ0+UECav5XB2HOAQGUJUkDXaZrBxI+vQMc9J0BIAqfB
1q+WQIVXi0ADXMzBk2cHQVXfyUCwZrXBE5e2QIq/ZkDXVorBEnTGQO+77UBnlMjB3HxHQKK2P8AC
PpPBLU2kQBvkh8BxyJTB71XHQOCpNkDi/pzBLY2CQOkwNkAOQKTBqN82QLKKakA0I5XBmlndQL2s
xUD358jBw0TvQEvaU789nrvBbibPQFBwJsDHO7DBGuDhQH2AyD/OgrfB7iKPQEa10T7+gp3BVGiJ
QLcCOkA8XrrBjLPwQAh3j0CCT6fBA8A9QDU6nr9GbpzBPTrTQBPDYMDyXp/BTKthQON0mMCyzorB
3M53QKoaokCd4svBDHyrQD7uk0BtINPBaR2KQBacVUBtis3BPYIWQYUKu0BC+7fBBnwEQWX65kBE
IbrBdXYIQUFH0kBD36zB0iTZQEZrXkDEBYnBRLqtQFjdlEDGx4jBp8WkQJaHPECX4oTB6qjQQAX+
AEFoT8/BreGjQFyR50CWLsnBRVnNQKcz/kDc/sDBHSVTQOOgLEAGG6nB9uT8P1GkZ0Al5ZjB5N05
QO4gf0Brko3B67TbQExAEr/m1rTBQG7JQM4Kyb/tXq7Br1HTQGslST/8u7LBcOakQIhuED648aPB
gHakQHDGZEDui7nBuzLfQIO5jkCOzK7BK+uzQODqVsDqo5vBdPdkQBXmBMAAUJrBadZ3QE1ZgcAx
hpDBjeetQEVmm7+C4aXBE8KbQKzuDsDTtZ7B7km3QEVpkz9XTarB0BO8QGZDZUCn7K/BFsqvQHmn
jUCqBcLB80vqQNW0qkCrJLfB8x3SQBPPqkCKt8DBXfqrQJvsTkBfypXB/LGAQNDfUEDEeprB0e+v
QJ3VJkBQFafBMaKVQGyGjECcQMzBNJgHQSqnyUDHkrXBEpu2QIBHZEAOVorBp9LDQArr7UCwnMjB
N7GjQO/Bh8D7kZTBUVVGQNcEP8DnUZPBNKXHQJdeNkAEEJ3BduOCQGuFNUAhVqTBOFo3QFw+aUA1
M5XBBIPcQDnoxkDQycjBWTjwQL2lWL+Ib7vBg3TQQNMVJ8AV5q/BoUPiQKyGxj9RjbfB9ZePQJyK
0j54fp3BJnmJQC4mOkDsZrrBpJvxQHOwjkCofKfBunXTQGTVYMB28p7BCTk+QCkSnb9wjZzBLeJe
QH4rmMCx1YrB8ad1QBUyo0DUnMvBHw2qQDuHlUDkDtPBahKJQL8MWECBgM3BiIkWQfO1ukCDV7jB
vZYEQTn75kCkM7rBJwcJQU620UCCCa3BnynZQGQaXEB7AonBApWtQBaBk0CFq4jBydGkQPtROUBx
94TBFt/NQCtVAUEoQ8/B/aOhQJA65kCUdcnB4B/JQJOa/kBP+sDBDulTQPAgLEArNqnBpvD9PyKm
ZkCu+JjBJEk6QEdufUAGno3BI+PaQHQ2Er8u5bTBruPHQOJkyb/Ml67B1SDTQL79SD8soLLBq9Sj
QJB4Cj4NBqTBXHzeQNLljkD1q67BpmSkQNESY0Cbd7nB91mzQI9uVsCzxpvBkOpiQDLqBcC3aZrB
thR4QD5XgcAdfJDBu2qsQBkTnL/wFabBR56aQIVgD8Ba5J7BHdu2QIz9kj8oO6rBmbi7QAbIZECu
za/BkqTpQEWPqkBtE7fBoM+vQN90jEDn/8HBSc3RQAr3qUBMtcDBGL+rQE8vT0A/q5XBp3GAQImu
UEC+WZrBA7GvQDyKJkCP8abBVBsHQRbeyUA6frXBWiSWQD6pikC7S8zBcmC2QFB6ZkD5RYrBB+XE
QCPX7UATUcjBjcGjQJ9nh8CwmJTBN4VFQAnbP8DcT5PBfmvHQFI0NkBA7JzBtKyCQI95NUCbNaTB
9rY2QIcQaUCHGpXBrevbQD7exUCo18jBu3bvQMfVV7+4fLvBdFDOQPpJJ8CyQrDBbL3iQFe3xj+W
SbfBTl+OQIAvzj4ImZ3BO5PwQIFuj0CdT6fBx46JQK4KOEDvTrrBVtfSQGrOX8BOI5/BlF87QJBf
oL+RrJzBDhZgQJYXmMDKtorB5SoWQfMLu0DBI7jBqRUEQefw5kDgN7rBu1IIQQ5T0kD2+KzB2UJ2
QIYkoUC1y8vBAcyqQAeGk0B/EdPBReWJQLYDVEBEfc3B2v7YQD1UX0CA9IjBZ/isQBaclED0wIjB
q+mkQH7kO0DSyoTBhZTOQC40AUEECc/BaU+iQHWR50DGysjBXjvMQLcE/kAyuMDBv4RTQCNRLEDm
GKnBUeb8P3mTZkBI55jBtW05QCEofUAChI3BqMrZQBZdEr/sEbXBdEDHQEyAyb9xsK7BxgbSQMOx
SD++yrLBT6OjQC1QCD5uAqTBaKHeQNF4jkApoq7B4j+kQH70Y0AlebnBFrJjQGxlBsBKRZrBy6yz
QFzfVsBN25vBYLF5QFzFgcD0cZDBnD2sQBlSnL+RFqbByNOaQMykD8Ag257BmTi2QH7Ekj9OTKrB
f4a7QNzSZEC3zK/BSBfqQLU1qkD//bbBDAuwQAHjjEA5+sHB5UvSQIAXqkDToMDB1qKrQD5sT0B7
t5XBYFqAQOIjUkClZZrBVz6vQOZjJkBo+qbB2nIHQfItyUDpWbXB6nWWQD1Yi0DrSszBtG+2QC4r
ZkBQUIrBupbEQFJg7UBJfcjBG+NGQJKgQMBYK5PBV1+kQMXGh8CgrJTBCRfHQFJhNUDq9ZzBcUeC
QPamNUADNaTBHxg3QMw+bEBVJ5XBIt7cQPoaxkAwtMjBAQbuQH/XV7/TurvB5KzNQCtTJ8A6XrDB
IUfhQPmexj/8hbfBkoWOQEq/zD7lgp3BxMDwQGOZjkDURqfBJyqJQIaXOUAqWLrB+/M7QAozob9D
c5zBrAPTQO4hYMBWT5/BVTdiQJCbmMCCqYrB4XQWQRwuukCRArjBWo4EQZFp5kD4CLrBD60IQfpp
0UBD0azBCUF3QMIKokCuzcvBgUGrQNURlECpDNPBZ/aJQMGXVUDRgM3BU/fYQNOUXUDa+4jBC7at
QJiilECuyYjBFYGkQFRDPEBm2ITBKr7OQKcGAUHBJM/BZFCiQKQM5kCiTcnBNjHKQDT3/UD/2sDB
lXZSQBXcK0B7CKnBC079PzkgakBw6pjBVWU6QOCagEA3m43B

> <OMEGA_E>
AAAAAAAAAAAAAAAAAAAAAA==

> <OMEGA_NBR>
      8934

$$$$
270586
  -OEChem-04172616093D

 39 42  0     1  0  0  0  0  0999 V2000
    6.0954   -1.5502  -21.8354 C   0  0  0  0  0  0  0  0  0  0  0  0
    6.5084   -0.5695  -22.7599 C   0  0  0  0  0  0  0  0  0  0  0  0
    5.1864    0.1918  -20.4012 C   0  0  0  0  0  0  0  0  0  0  0  0
    3.5811   -2.0270  -19.1563 C   0  0  0  0  0  0  0  0  0  0  0  0
    5.6152   -3.3337  -19.4127 C   0  0  0  0  0  0  0  0  0  0  0  0
    3.9472   -4.1034  -17.9522 C   0  0  0  0  0  0  0  0  0  0  0  0
    5.3819   -1.1744  -20.6766 C   0  0  0  0  0  0  0  0  0  0  0  0
    4.8517   -2.1912  -19.7458 C   0  0  0  0  0  0  0  0  0  0  0  0
    5.6483    1.1822  -21.2968 C   0  0  0  0  0  0  0  0  0  0  0  0
    6.2356    0.7943  -22.5258 C   0  0  0  0  0  0  0  0  0  0  0  0
    3.1225   -3.0019  -18.2576 C   0  0  0  0  0  0  0  0  0  0  0  0
    5.3789    3.1727  -18.7256 C   0  0  0  0  0  0  0  0  0  0  0  0
    4.0375    3.2248  -19.3373 C   0  0  0  0  0  0  0  0  0  0  0  0
    6.1289    3.5840  -22.0016 C   0  0  0  0  0  0  0  0  0  0  0  0
    5.8593    3.0013  -23.3927 C   0  0  0  0  0  0  0  0  0  0  0  0
    5.5453    2.6541  -20.9070 C   0  0  2  0  0  0  0  0  0  0  0  0
    5.6799    3.4110  -17.2679 C   0  0  0  0  0  0  0  0  0  0  0  0
    5.1662   -4.2527  -18.5243 N   0  0  0  0  0  0  0  0  0  0  0  0
    6.2660    2.8696  -19.6423 N   0  0  0  0  0  0  0  0  0  0  0  0
    4.1520    3.0045  -20.6215 N   0  3  0  0  0  0  0  0  0  0  0  0
    2.8572    3.4817  -18.6591 N   0  0  0  0  0  0  0  0  0  0  0  0
    6.5319    1.7201  -23.5155 O   0  0  0  0  0  0  0  0  0  0  0  0
    1.5486   -2.8480  -17.5206 Cl  0  0  0  0  0  0  0  0  0  0  0  0
    6.3251   -2.5903  -22.0138 H   0  0  0  0  0  0  0  0  0  0  0  0
    7.0376   -0.8647  -23.6540 H   0  0  0  0  0  0  0  0  0  0  0  0
    4.6777    0.4865  -19.4953 H   0  0  0  0  0  0  0  0  0  0  0  0
    2.9723   -1.1667  -19.3923 H   0  0  0  0  0  0  0  0  0  0  0  0
    6.5794   -3.4771  -19.8776 H   0  0  0  0  0  0  0  0  0  0  0  0
    3.6001   -4.8442  -17.2471 H   0  0  0  0  0  0  0  0  0  0  0  0
    7.2144    3.6824  -21.8534 H   0  0  0  0  0  0  0  0  0  0  0  0
    5.6571    4.5748  -21.9255 H   0  0  0  0  0  0  0  0  0  0  0  0
    4.7767    2.8624  -23.5293 H   0  0  0  0  0  0  0  0  0  0  0  0
    6.2402    3.6912  -24.1601 H   0  0  0  0  0  0  0  0  0  0  0  0
    6.7591    3.2915  -17.0915 H   0  0  0  0  0  0  0  0  0  0  0  0
    5.3743    4.4312  -16.9926 H   0  0  0  0  0  0  0  0  0  0  0  0
    5.1257    2.6844  -16.6557 H   0  0  0  0  0  0  0  0  0  0  0  0
    3.4141    3.0651  -21.2937 H   0  0  0  0  0  0  0  0  0  0  0  0
    1.9905    3.5107  -19.1570 H   0  0  0  0  0  0  0  0  0  0  0  0
    2.8720    3.6382  -17.6715 H   0  0  0  0  0  0  0  0  0  0  0  0
  1  2  1  0  0  0  0
  1  7  2  0  0  0  0
  2 10  2  0  0  0  0
  3  7  1  0  0  0  0
  3  9  2  0  0  0  0
  4  8  1  0  0  0  0
  4 11  2  0  0  0  0
  5  8  2  0  0  0  0
  5 18  1  0  0  0  0
  6 11  1  0  0  0  0
  6 18  2  0  0  0  0
  7  8  1  0  0  0  0
  9 10  1  0  0  0  0
  9 16  1  0  0  0  0
 10 22  1  0  0  0  0
 11 23  1  0  0  0  0
 12 13  1  0  0  0  0
 12 17  1  0  0  0  0
 12 19  2  0  0  0  0
 13 20  2  0  0  0  0
 13 21  1  0  0  0  0
 14 15  1  0  0  0  0
 14 16  1  0  0  0  0
 15 22  1  0  0  0  0
 16 19  1  0  0  0  0
 16 20  1  0  0  0  0
  1 24  1  0  0  0  0
  2 25  1  0  0  0  0
  3 26  1  0  0  0  0
  4 27  1  0  0  0  0
  5 28  1  0  0  0  0
  6 29  1  0  0  0  0
 14 30  1  0  0  0  0
 14 31  1  0  0  0  0
 15 32  1  0  0  0  0
 15 33  1  0  0  0  0
 17 34  1  0  0  0  0
 17 35  1  0  0  0  0
 17 36  1  0  0  0  0
 20 37  1  0  0  0  0
 21 38  1  0  0  0  0
 21 39  1  0  0  0  0
M  CHG  1  20   1
M  END
> <OMEGA_C>
jw3DQL5sxr/qrq7BBUXQQLjNEb9XFLbBTPelQDRxRD7CNaPBezBlQOa6AcAeQJnBeq+zQKRaVcBI
TZvBg598QDpPg8Acno/BtTisQKpSlr+9aaXBykCbQMI8DMCA953BNL+0QN1Rlz/bX6rBWIrHQIhW
Sz/ZNLTBqNZHQGwfQMCLD5LBMCCsQBgNS0ACzpXBFzOBQI9iTkDRsprBkR/EQLxgZUBXA7DBin+7
QBAVQEA2JLvB23KxQKTcKUCXQafB48G1QHNOWkDBJIrBYVGlQAoWiMDCMZTBzoLIQK+nN0BVI53B
09yEQGJKQEC7+KTBFd02QPvTXkDJRZXBjwXRQCUs3D/EH7zBBjrGP9hFNsAiKozB8GbKQK3HJcAu
HLDBqzPhQChaXb9cO73BsK+VQGQZ+T5g9pvBiDo+QGRXlb9pI5vBMIrSQGWJXsBnBZ/BR2dmQJcD
m8Ae+onBIdzmQLisa0DF067B9Aa1QN9kkkBwZ6/BzdqYQKQxN0AJPLzB5q/HQLw8bEDfR8HBXUrY
QPqnUkBwu4jBQPqrQKnMjUDo8IfB5QWkQLPNK0DGPoXBuIBaQEUqREB9WarB0sn+PyuvYECgQZnB
O843QHvXaEA8X43B3vmaQKBs8z+ivZfBa9WUQPe+UED7Y5XBgnWwQLFRH0Ae56nBRgWYQMkdbr+5
QJ/ByjjPQJFdqL4oFazBexW/QLQkJsA2d6nBIyWpQOh6wD/I/6HBECqwQC0zjj1hdKTBc3apQILv
dkDVq6fB1JScQMjjh0ByM53BeZefQCeaEcAPz6HBVdm/QOr/jkADt8HBZFToQIgFmkBXSrzB/oOe
QLyLyEDqB63BwTqpQDoe0kBESaHBrRGyQMsSnUC6VbDBnqe7QNgRhEDHcM3BkDDWQAYD0b9Yb67B
WD6gQPPtj0Dfx7rBn1HgQF8moUDzK7LBLBgIQXMCnECaJ8HBp4KWQKREskDCS5rBjgqCQAxQYsBP
lJvBFdiUQDP/kz8wrpHBGxKKQIp7Y0B4hY3BWYW7QERaDEDHvLHBohaAQPXmKb89ZZnBu9PhQCEg
2z6HILDBuunEQId4aMBbaavBWCB3QElQx0C1Bq7Bd8KrQEr84UD8IbLB1S/MQCT70UBXQaDBQImc
QHbU8UAqKZ/Bm/2ZQDv0eUBnTc/Bi3bGQDlen0B3S9LBqHfPQGXPT0DPQ8/B6CP2QIY5qEAPmKzB
ZwkVQXp1o0Dg1bzBG4QJQTf+lUDU+sjBr/mZQGFN8T8Z65fBMr+TQKiTT0DzhZXBIwWwQLwMH0D2
AqrBvFy7QN6GWb9lkpzBq5mqQBZF2b5rQa/B5Qq8QFPiJsA++KnBgXCoQOM7vz/pKqLBRI2vQAhY
ez05rKTBUjOpQB+cdkC2t6fBD+ibQBp8h0D/Qp3ByqnBQO2WDMDYRZ/BEY7BQIaDj0CInsHBy7Hp
QIVAmkCfALzBdPyeQG6RyEBU+azBDf+oQCTI0UDNK6HBnZqyQIsgnUDyRrDB+Bu+QCjuhEAHYc3B
ncCwQHFS3b//t7HBTHmhQK9dkEC30rrBlgHhQKURoUB457HBHvEIQaFOnEChssDBFsqVQIbLsUBP
TprBa3bQQKxiVsAvdJXB+66TQGxdkT9c5pHB/ZiIQL70YUCtrI3B3ie7QMFiDEDa2bHBrXu/QBXZ
A78LbJTBI66hQK2Qhz7thbXBR9jAQIFRacDRB6zBWjF4QGJ6x0CBG67Br6CsQNwa4kCj+rHB3+LL
QPmI0UDcAaDByD6cQNF28UAuCp/BZYycQIsLfED8ZM/B0VjJQERSoECGI9LBLO/RQMF6UUBvK8/B
xXb2QPDbp0CeN6zBOr8VQQSPo0DIQbzB050KQVmJlkCehcjB

> <OMEGA_E>
OCYvP+oQqT/Yl7A/

> <OMEGA_NBR>
     11329

$$$$
50220806
  -OEChem-04172616093D

 41 44  0     1  0  0  0  0  0999 V2000
    6.8389   -0.5572  -22.6048 C   0  0  0  0  0  0  0  0  0  0  0  0
    6.2929   -1.5242  -21.7437 C   0  0  0  0  0  0  0  0  0  0  0  0
    6.5656    0.8091  -22.4056 C   0  0  0  0  0  0  0  0  0  0  0  0
    5.1791    0.2382  -20.4841 C   0  0  0  0  0  0  0  0  0  0  0  0
    3.5753   -2.0167  -19.2624 C   0  0  0  0  0  0  0  0  0  0  0  0
    5.6494   -3.2784  -19.3862 C   0  0  0  0  0  0  0  0  0  0  0  0
    3.9003   -4.1026  -18.0598 C   0  0  0  0  0  0  0  0  0  0  0  0
    5.4591   -1.1314  -20.6766 C   0  0  0  0  0  0  0  0  0  0  0  0
    4.8868   -2.1478  -19.7649 C   0  0  0  0  0  0  0  0  0  0  0  0
    5.7261    1.2304  -21.3468 C   0  0  0  0  0  0  0  0  0  0  0  0
    3.0757   -3.0147  -18.4108 C   0  0  0  0  0  0  0  0  0  0  0  0
    6.6772    4.3169  -22.1598 C   0  0  0  0  0  0  0  0  0  0  0  0
    5.5889    3.9638  -23.0932 C   0  0  0  0  0  0  0  0  0  0  0  0
    4.8237    2.9789  -18.5881 C   0  0  0  0  0  0  0  0  0  0  0  0
    4.1743    4.2094  -19.2413 C   0  0  0  0  0  0  0  0  0  0  0  0
    4.3192    2.9135  -20.0431 C   0  0  0  0  0  0  0  0  0  0  0  0
    5.3525    2.7275  -21.2094 C   0  0  1  0  0  0  0  0  0  0  0  0
    7.7584    5.3385  -22.4556 C   0  0  0  0  0  0  0  0  0  0  0  0
    5.1590   -4.2192  -18.5451 N   0  0  0  0  0  0  0  0  0  0  0  0
    6.5607    3.5905  -21.0635 N   0  0  0  0  0  0  0  0  0  0  0  0
    4.7423    3.1831  -22.4687 N   0  3  0  0  0  0  0  0  0  0  0  0
    5.4764    4.3873  -24.4130 N   0  0  0  0  0  0  0  0  0  0  0  0
    1.4447   -2.9145  -17.7987 Cl  0  0  0  0  0  0  0  0  0  0  0  0
    7.4719   -0.8642  -23.4243 H   0  0  0  0  0  0  0  0  0  0  0  0
    6.5122   -2.5702  -21.8996 H   0  0  0  0  0  0  0  0  0  0  0  0
    7.0008    1.5434  -23.0672 H   0  0  0  0  0  0  0  0  0  0  0  0
    4.5387    0.5393  -19.6683 H   0  0  0  0  0  0  0  0  0  0  0  0
    2.9670   -1.1647  -19.5278 H   0  0  0  0  0  0  0  0  0  0  0  0
    6.6490   -3.3937  -19.7785 H   0  0  0  0  0  0  0  0  0  0  0  0
    3.5201   -4.8594  -17.3896 H   0  0  0  0  0  0  0  0  0  0  0  0
    5.9036    2.9718  -18.3786 H   0  0  0  0  0  0  0  0  0  0  0  0
    4.2928    2.4310  -17.7957 H   0  0  0  0  0  0  0  0  0  0  0  0
    3.1789    4.5440  -18.9136 H   0  0  0  0  0  0  0  0  0  0  0  0
    4.7897    5.0847  -19.4965 H   0  0  0  0  0  0  0  0  0  0  0  0
    3.3847    2.3489  -20.1774 H   0  0  0  0  0  0  0  0  0  0  0  0
    8.4542    5.3934  -21.6053 H   0  0  0  0  0  0  0  0  0  0  0  0
    8.3080    5.0390  -23.3602 H   0  0  0  0  0  0  0  0  0  0  0  0
    7.2973    6.3242  -22.6161 H   0  0  0  0  0  0  0  0  0  0  0  0
    3.8296    2.9367  -22.7948 H   0  0  0  0  0  0  0  0  0  0  0  0
    4.6978    4.0936  -24.9677 H   0  0  0  0  0  0  0  0  0  0  0  0
    6.1740    4.9854  -24.8075 H   0  0  0  0  0  0  0  0  0  0  0  0
  1  2  1  0  0  0  0
  1  3  2  0  0  0  0
  2  8  2  0  0  0  0
  3 10  1  0  0  0  0
  4  8  1  0  0  0  0
  4 10  2  0  0  0  0
  5  9  1  0  0  0  0
  5 11  2  0  0  0  0
  6  9  2  0  0  0  0
  6 19  1  0  0  0  0
  7 11  1  0  0  0  0
  7 19  2  0  0  0  0
  8  9  1  0  0  0  0
 10 17  1  0  0  0  0
 11 23  1  0  0  0  0
 12 13  1  0  0  0  0
 12 18  1  0  0  0  0
 12 20  2  0  0  0  0
 13 21  2  0  0  0  0
 13 22  1  0  0  0  0
 14 15  1  0  0  0  0
 14 16  1  0  0  0  0
 15 16  1  0  0  0  0
 16 17  1  0  0  0  0
 17 20  1  0  0  0  0
 17 21  1  0  0  0  0
  1 24  1  0  0  0  0
  2 25  1  0  0  0  0
  3 26  1  0  0  0  0
  4 27  1  0  0  0  0
  5 28  1  0  0  0  0
  6 29  1  0  0  0  0
  7 30  1  0  0  0  0
 14 31  1  0  0  0  0
 14 32  1  0  0  0  0
 15 33  1  0  0  0  0
 15 34  1  0  0  0  0
 16 35  1  0  0  0  0
 18 36  1  0  0  0  0
 18 37  1  0  0  0  0
 18 38  1  0  0  0  0
 21 39  1  0  0  0  0
 22 40  1  0  0  0  0
 22 41  1  0  0  0  0
M  CHG  1  21   1
M  END
> <OMEGA_C>
NtjaQL+mDr+41rTBLF/JQBAaw78p863BGhnSQAwgTz+bPrPBM7ulQLL2cz6H36PBgNFkQEYSAcBm
GZrB6se0QHzRUcDdFpvBJp95QN1Ig8CBepDBSLGuQGzRkL+daaXB02CcQEl2CcB7Hp7B9ju3QJh9
nT8oxqrBnNdEQOHwQMBDSZPB+avVQEwkikA2R7HBWNiyQGiufUDdvrjBHlyaQJelPkB8tJTBiJOF
QJyzhkA07pnB8jaKQAJ2OkAsWKDBW0erQDePLkDNrKnBAEX4QLfUqkD/pLPBLRalQN8Dh8BWXJTB
3/DRQNnKZUAXgqjB6sCXQIS3S0D7v7PBSD6vQGZkjEDqTcPBi+y4Px2HOsDTY47B6hnvQIM6Xb/r
ZLvB4WPQQNt9JMBVMq/BgwbgQJaMxT+6ibjBxzyRQEENCj+jWJ3BS+M9QLYVlb8BOZzBosTUQFIy
WcBSOp7BGUphQMx/m8DPHYvBEeq8QEExPkBHB5PB1F6JQJ+VG0CJXY7BrHNLQEFokUAET5fBFEWZ
QBK2okDC+JvBVJ9YQMlUFkBUa6HBb0QHQXuWrEDA16zBeu0EQdg/oUCo4brBooPpQJ1fykC/7bTB
uxh1QAnzO0DaW7bBYlSWQAP/gkDYvcfBJ5HFQGCIn0CqdcbBIx/cQAgaEr/gV7TB4cLJQL5sxb+s
rq3BMIzSQIarSj/d5rLBM+SiQPIxVT7xRKTBNpJlQOjIAcDDjZnBq0i0QKJ/VMA9SJvBLHl7QLME
hMB/I5DBpW6tQCo+lL8jeKXBF+2bQIwyC8C3B57BpbG0QMaymj//CqvBcBJHQINMQcDhmJLBfCyA
QPCiS0B4bZrBxLmsQKNAS0BfjJbBUzHfQNvHg0BXyLXB6Hu3QFvqbUC7drzBaAq0QFRHeED9S7DB
Uz+sQATQLEBAKqjBW1szQCWmXkB/k5PBNTmlQBhUiMDkdJTBeNd+QLomN0B7n6TBeSjGQBjfPkBp
sZ7BSmS5QMy/VUARAIzBx3DBPwkVOcC6II3BDMrxQP35Xr+JobrBOVfRQEmAJcA72a7BUijiQP7j
wz/i2bfB28WMQPEyAD+QDp7Bb7Y+QJtTlb88cpvB2rfTQPaUXMBJup7BUyBkQM8vnMAasorBbI35
QN7HWUBwqLTByj3sQFdjpEDfXrbBR0SoQJJwjkCAzcHB6pO1QFTiLUARF8DBGemjQPLimUCa363B
jMXxP9PLWEAcbJjBer0wQN7nMEAb5YzBljg4QHgRkEB/Z5DBlh/mQBZXQUD9e57BkXfYQFUkVEAB
GorB3XOjQIftXkBiSobB

> <OMEGA_E>
9iV/P5Atcz8=

> <OMEGA_NBR>
     13071

$$$$
50220795
  -OEChem-04172616093D

 50 53  0     1  0  0  0  0  0999 V2000
    8.0734    3.9835  -22.6875 C   0  0  0  0  0  0  0  0  0  0  0  0
    3.1658    4.5535  -26.2519 C   0  0  0  0  0  0  0  0  0  0  0  0
    7.2870    4.4524  -23.7398 C   0  0  0  0  0  0  0  0  0  0  0  0
    3.9290    4.0616  -25.1989 C   0  0  0  0  0  0  0  0  0  0  0  0
    7.4816    3.2970  -21.6274 C   0  0  0  0  0  0  0  0  0  0  0  0
    5.3173    3.5480  -22.6720 C   0  0  0  0  0  0  0  0  0  0  0  0
    3.6082    5.7000  -26.8930 C   0  0  0  0  0  0  0  0  0  0  0  0
    5.4505    5.8596  -25.5290 C   0  0  0  0  0  0  0  0  0  0  0  0
    5.9091    4.2346  -23.7322 C   0  0  0  0  0  0  0  0  0  0  0  0
    5.0943    4.7210  -24.8243 C   0  0  0  0  0  0  0  0  0  0  0  0
    6.1037    3.0791  -21.6198 C   0  0  0  0  0  0  0  0  0  0  0  0
    5.2722    3.1669  -18.4439 C   0  0  0  0  0  0  0  0  0  0  0  0
    4.0039    3.3319  -19.0734 C   0  0  0  0  0  0  0  0  0  0  0  0
    6.6191   -1.8640  -20.6056 C   0  0  0  0  0  0  0  0  0  0  0  0
    6.5920   -1.0860  -21.9173 C   0  0  0  0  0  0  0  0  0  0  0  0
    5.4760   -1.4513  -19.6843 C   0  0  0  0  0  0  0  0  0  0  0  0
    6.5838    0.4222  -21.6769 C   0  0  0  0  0  0  0  0  0  0  0  0
    5.4646    0.0561  -19.4402 C   0  0  0  0  0  0  0  0  0  0  0  0
    5.4292    0.8432  -20.7575 C   0  0  0  0  0  0  0  0  0  0  0  0
    5.4742    2.3457  -20.4893 C   0  0  1  0  0  0  0  0  0  0  0  0
    5.5423    3.6068  -17.0446 C   0  0  0  0  0  0  0  0  0  0  0  0
    4.7348    6.3676  -26.5571 N   0  0  0  0  0  0  0  0  0  0  0  0
    6.1691    2.5953  -19.1927 N   0  0  0  0  0  0  0  0  0  0  0  0
    4.1044    2.8372  -20.2936 N   0  3  0  0  0  0  0  0  0  0  0  0
    2.9814    3.8868  -18.4548 N   0  0  0  0  0  0  0  0  0  0  0  0
    9.1463    4.1535  -22.6935 H   0  0  0  0  0  0  0  0  0  0  0  0
    2.2533    4.0561  -26.5600 H   0  0  0  0  0  0  0  0  0  0  0  0
    7.7630    4.9863  -24.5590 H   0  0  0  0  0  0  0  0  0  0  0  0
    3.6032    3.1637  -24.6798 H   0  0  0  0  0  0  0  0  0  0  0  0
    8.1015    2.9349  -20.8113 H   0  0  0  0  0  0  0  0  0  0  0  0
    4.2431    3.3744  -22.6601 H   0  0  0  0  0  0  0  0  0  0  0  0
    3.0491    6.1248  -27.7203 H   0  0  0  0  0  0  0  0  0  0  0  0
    6.3480    6.4212  -25.2859 H   0  0  0  0  0  0  0  0  0  0  0  0
    6.5566   -2.9383  -20.8127 H   0  0  0  0  0  0  0  0  0  0  0  0
    7.5766   -1.6913  -20.0989 H   0  0  0  0  0  0  0  0  0  0  0  0
    7.4627   -1.3572  -22.5250 H   0  0  0  0  0  0  0  0  0  0  0  0
    5.7010   -1.3686  -22.4915 H   0  0  0  0  0  0  0  0  0  0  0  0
    4.5205   -1.7556  -20.1291 H   0  0  0  0  0  0  0  0  0  0  0  0
    5.5649   -1.9784  -18.7277 H   0  0  0  0  0  0  0  0  0  0  0  0
    7.5422    0.7216  -21.2335 H   0  0  0  0  0  0  0  0  0  0  0  0
    6.5036    0.9411  -22.6395 H   0  0  0  0  0  0  0  0  0  0  0  0
    4.5946    0.3161  -18.8255 H   0  0  0  0  0  0  0  0  0  0  0  0
    6.3558    0.3343  -18.8630 H   0  0  0  0  0  0  0  0  0  0  0  0
    4.4828    0.6198  -21.2677 H   0  0  0  0  0  0  0  0  0  0  0  0
    5.3183    2.7958  -16.3508 H   0  0  0  0  0  0  0  0  0  0  0  0
    4.9218    4.4694  -16.7989 H   0  0  0  0  0  0  0  0  0  0  0  0
    6.5908    3.8883  -16.9398 H   0  0  0  0  0  0  0  0  0  0  0  0
    3.3157    2.8417  -20.9309 H   0  0  0  0  0  0  0  0  0  0  0  0
    3.0676    4.2195  -17.4946 H   0  0  0  0  0  0  0  0  0  0  0  0
    2.0822    3.9958  -18.9228 H   0  0  0  0  0  0  0  0  0  0  0  0
  1  3  1  0  0  0  0
  1  5  2  0  0  0  0
  2  4  2  0  0  0  0
  2  7  1  0  0  0  0
  3  9  2  0  0  0  0
  4 10  1  0  0  0  0
  5 11  1  0  0  0  0
  6  9  1  0  0  0  0
  6 11  2  0  0  0  0
  7 22  2  0  0  0  0
  8 10  2  0  0  0  0
  8 22  1  0  0  0  0
  9 10  1  0  0  0  0
 11 20  1  0  0  0  0
 12 13  1  0  0  0  0
 12 21  1  0  0  0  0
 12 23  2  0  0  0  0
 13 24  2  0  0  0  0
 13 25  1  0  0  0  0
 14 15  1  0  0  0  0
 14 16  1  0  0  0  0
 15 17  1  0  0  0  0
 16 18  1  0  0  0  0
 17 19  1  0  0  0  0
 18 19  1  0  0  0  0
 19 20  1  0  0  0  0
 20 23  1  0  0  0  0
 20 24  1  0  0  0  0
  1 26  1  0  0  0  0
  2 27  1  0  0  0  0
  3 28  1  0  0  0  0
  4 29  1  0  0  0  0
  5 30  1  0  0  0  0
  6 31  1  0  0  0  0
  7 32  1  0  0  0  0
  8 33  1  0  0  0  0
 14 34  1  0  0  0  0
 14 35  1  0  0  0  0
 15 36  1  0  0  0  0
 15 37  1  0  0  0  0
 16 38  1  0  0  0  0
 16 39  1  0  0  0  0
 17 40  1  0  0  0  0
 17 41  1  0  0  0  0
 18 42  1  0  0  0  0
 18 43  1  0  0  0  0
 19 44  1  0  0  0  0
 21 45  1  0  0  0  0
 21 46  1  0  0  0  0
 21 47  1  0  0  0  0
 24 48  1  0  0  0  0
 25 49  1  0  0  0  0
 25 50  1  0  0  0  0
M  CHG  1  24   1
M  END
> <OMEGA_C>
vywBQRHyfkD4f7XBOp1KQHy2kUDgA9LBwC7pQDx6jkAO673B2nR7QE74gUBal8nBPWnvQFgBU0Dk
BK3BDCeqQKQSY0BQYLXBAuxmQApmtkD1JNfBb2quQMaBu0BQO8zBUBe9QOyBh0CA273BZgSjQMIS
l0AimMbBzFHDQLUQRUBV9azBgrWoQFiuSkAPjZPBICCAQDM9VUBglpjBqs/TQDaW7r9e2KTBzfHS
QCQBi7+zVq/BmDuvQFjDub+EeZ3Brq7SQPQq2D42aq3BNN6uQGC5ZT18hZvBRrytQALbVz9DD6bB
Cy2vQEAgFkAQ6qPB1lqxQIzVZkBJW4jBfIOXQA/Dy0AJddTB+GjFQIIZJkCWipnBmVeDQB6UNUBY
WaLBRc8+QOvBeECIo5PBaFcSQZnphEBPjLXBtjUQQFjLgUDpetTBSWr4QIuPn0DmeMTBCJpmQKV5
SkA5cMXBq58BQaPUO0B/fabBbMeHQOX2V0DZR7XB4iRDQCv+w0A8w93BNCPLQGp6zUCXScrBec/R
QEsMPMBXgKbBT3PyQJp72L+ByqDBp87uQAS5rb8lM7TBu262QOgsr7+A7rPBJKiQQCC44L9UCKHB
+BOyQLc8/b9O0pXBFVrxQAK7OD9H3qnBwR3QQOLrcD/AHbXBwgaTQJDboT6wmpbB8WLLQPwoqz54
55bBB3OPQEqrHj9OJKrBXC+qQBjuMkBXzoLBZX+dQO8Ej0AXZIbBzufSQLfaeEC6hIfBSTRUQETe
NUB+cqfB1VJEQAYGh0Dm9IvBgUIFQCq7f0DRYZfB3HsHQYwViEAQS7TBeTmpQGC210BUP9TB9AP4
QCGdmEAH7bzB7a/AQDgKyECZpcvBhBL6QCytX0A2hKzBb0m3QBZLcUCPAbbBYAGGQIpawECenNfB
3LKQQCMWjUAHtcrBri7MQMTkkECFyL3BM2i0QPUKokDrvcbBPT3OQHA8UEC0X63B/jesQGr7SEAp
iJTB6hyFQOqCVEAcOZrBbnS4QOQ/87+izaHB29DgQDQhnL+W+qXBVhWQQN5Lnb9xD6bBVKrgQIhq
jj6kmKPBjMePQGzCiT4MsKPBLjm4QOKxdT/K7qfBcgK4QOdxHECGFKXBdkSxQNobYEBBBonB/TZy
QJBRm0BhC9PBEPrKQFtDKEDVOZrBwYKLQOKcOUDyG6TBTVNFQOaFdED9pZXBw4wYQbUbjkBToLPB
gj6yQOo/9UBnMtjBz2AEQTl3q0Be7MLBpHTcQP/G2UBy28jBMRgGQaolRkCP0KXBcBqVQDX+ZEDX
oLbBQENlQGkvy0CDSd7BqnKFQGSGXkByPcfBcJ24QA9IPcC9HKTBOE+4QMMo77/1B5nB1Bb9QNBg
17/9WKLBLVDjQAQhsL+IpK7B/OaNQAZxsb90uq7BA5pnQKxc2b96fKLBtefiQBQy3D766prBRzT9
QLjDPD+xI6fBP4hmQHinOD/eTKfB3S2NQOSk1z4OBJvBJWW4QIQ1YD9KsbDBRgypQFhyKUD4AITB
VU6cQBfOikApCofBt0jSQDPXckA3cIfBmalnQH9xO0CqpqnB/uBFQDQgg0DTy43BlPsNQHJEfEDh
25nBCmICQSeSmEB/ybDBj8psQGgukkDlCtLBPfDtQK6Xo0Dc+LnB4JuMQJZPhkB838jB3oDxQEIj
f0C15ajB0JmwQLg2eUDZYLPBOu2AQFDUuEB/zdbByli0QE4Fx0A9JsrBDt3DQCGclUDARLvBvDes
QJYMoUC4zMTBr23HQCQsY0CZMarB+i2gQNaHXkAX1JHB0EB0QDIyXEAvHJjBsUaaQBqBwb924qfB
6KGrQLhNjr8d8JzBZiGuQCpxLb90z7DBTySmQCx6xD7I35rBDa+oQL6YUT+9yK7Bble6QFAbnT9P
zaPB1/GyQOLILUA2x6HBtcOgQO5jfEAMf4bBUHCfQI2i00CAE9PBPznCQM4NREAy0ZbB1LeEQAKb
PkD/pKHBxIIpQBhldEBkR5TBgMMSQZp4o0BKx6/BzjQ7QPWwe0D3WdXBYGT9QBAdt0AWDcDB4++E
QGNJUEBd/cTBXcEBQRU+bkCVw6HBb8uPQOArY0BDV7TBkhhhQPqSw0BV+N3BpJnMQEZS3UDnYMfB
aaagQCrBJMAAUqnBBNNuQKcwsb/0+qfBeyibQCJB178sr5bBRqvNQPK4r78TcZzB1U7QQGT9ab9x
d7HBBmifQP93cb9derjBKuiDQOZbHT8gNprBfbW0QDB3Iz99KJPB2g+5QP2bsD+7HLXBbpuGQHLI
iT/MT6/BRATdQJ9Ehj8cxqPBMSKbQPyARkAYIoHBf+aHQOAslkC9QIXBtL2/QAN3jEDapITB3BVd
QHAVN0DrfafBLccjQEDnhEDDmozBBJznP7M+ckAm55jB63QEQV1Yh0AZcbDB2t6gQPS2y0DHitHB
umfxQInnlEAvTbnBaOC4QKgBv0Bvu8jB+qX0QJmSYkBrK6jBjmGxQJqubEArnrHBHqp7QAL2skAs
W9TBCbaJQITrg0DPisbBcqXFQJpmjED147nBQUutQM93mkCuFcPBsuPIQLeQUUAxwqjB2OanQNun
WEA31I/BIICAQAW0X0DPgZXByYbLQHSNqr8F467BXJOdQEP0Ub8Lhq7BnN7jQIolfL9Hr6TBftmb
QKWALT+rLazBKELiQCYfAz8VUKLB0A+0QF7vgz8u4KHBGVWzQM5wIkCc75/BPUCtQHPddkDvloTB
ODZjQFhFj0DbD8/Bs6XGQJRSNUAjR5XBaK+GQAECP0D/H5/BMww8QCbHgEBNKJHBZn4VQaT6jUDt
+6/BtFepQOAR6EAmEdbBNdQAQbYTpkCEr7/BTYTUQDzj0UAqXcbBDpkDQYqpTUAuS6HBR0KPQFcw
X0BDB7LByhtUQDN7u0BeKtvBZvx9QDg1TkCffMLB54PLQCnLGsDuC7DBrwvcQOoWZb9Cy7XBdriN
QPZgg7/SKrbBZbyLQDKBrr/3VqjBZhvWQHbkxL/M7p3B/KACQQBBp7+Ob6XBhpqpQGX/nD8M9rLB
dK10QKX4fT/1gqvBLWfyQHqCNT9cr5rBcDj0QDKfhj+TgKjBYcOjQEyxCz/lIJvBj5elQFY6Q0D3
FH7BWQSYQMxylkA/EIPBqjPOQECqhUCvRoPBZI5dQD/cPECKmqTBf/w8QDAEjECFf4nBIUcEQFIC
g0CtWpXBKOgGQftWTkCbWbbBMralQFv+BUH86rXBfhsCQd0gkkCFM7jBEUauQEz84EALB7TBgSH1
QIfVHkBjMq/BNEHJQOWSjUDWv6vBlMDHQIovE0EAkbjBmsn3QOXZ7kANh7fBJPDhQAhUpUAf57LB
PADYQGbi0UCo1LTBqNrSQNw7RUD95anB4F2oQJwuPUCf45HBQbODQJITTkDzVZjBvnSwQEfAA8Ds
95/BnDHbQPXyt78zIqPBdeGKQD8up79856TB5sncQAD6Uj2WbqDBkVOMQFg2Oz48N6LB9y+3QJZ+
UD84cqXBeIm4QIp4EkDYR6LBHBiqQJCVUUCsPYbBdbTwQHhsDEEDbLnBlAjIQIQpGkD+B5fBt7WM
QERXNECGJKLBdHFBQJQBcUBjY5TBrEEUQQJ1MEC1ebrBV22FQIU6DEG5U7XBfuELQZM6pECtzL3B
GB2UQGmiy0CW77HBhtL8QHTXtz+MzK3BhHeuQEFanECOl6fBgsrCQCMWJEEIHrrB5YIMQVYd5UAr
R7jB85ivQKTgRsDAf6LBPGKtQNRPA8DwOZfB9Ez1QESz+r8mB5/BgFvgQPBEyb8Fv6vBk2OLQIqb
t791nq3BcHNZQFQv3r/7CaLBcFPcQHxuMj75tJfB2Cv7QKT58D5oQ6PBn+ljQDquMT9rT6bB8wyH
QLTboD4pmZnBazG6QH5vQT/ZL67Bs8CeQIABG0C8mYHBTP2VQDh5hEBfhITBeufKQDBUYED354PB
QipuQOjQOUDQJqjBkJk9QJicgEDdf4zBvqcNQNmUfEBOIpnB

> <OMEGA_E>
8m1EwUEEP8E2jT3Bl15DwbKYQME=

> <OMEGA_NBR>
     17614

$$$$
50220799
  -OEChem-04172616093D

 46 49  0     1  0  0  0  0  0999 V2000
    4.4873    4.4723  -25.6780 C   0  0  0  0  0  0  0  0  0  0  0  0
    4.1922    3.2650  -25.0191 C   0  0  0  0  0  0  0  0  0  0  0  0
    5.3206    5.4253  -25.0623 C   0  0  0  0  0  0  0  0  0  0  0  0
    6.7671   -0.5809  -22.6392 C   0  0  0  0  0  0  0  0  0  0  0  0
    6.1664   -1.5638  -21.8360 C   0  0  0  0  0  0  0  0  0  0  0  0
    6.5962    0.7809  -22.3370 C   0  0  0  0  0  0  0  0  0  0  0  0
    4.7175    3.0140  -23.7397 C   0  0  0  0  0  0  0  0  0  0  0  0
    5.8735    5.1624  -23.7957 C   0  0  0  0  0  0  0  0  0  0  0  0
    5.1616    0.1789  -20.4594 C   0  0  0  0  0  0  0  0  0  0  0  0
    5.5387   -3.4099  -19.5768 C   0  0  0  0  0  0  0  0  0  0  0  0
    3.6113   -2.0216  -19.1269 C   0  0  0  0  0  0  0  0  0  0  0  0
    3.9082   -4.0704  -18.0418 C   0  0  0  0  0  0  0  0  0  0  0  0
    5.3688   -1.1900  -20.7320 C   0  0  0  0  0  0  0  0  0  0  0  0
    4.8235   -2.2192  -19.8219 C   0  0  0  0  0  0  0  0  0  0  0  0
    5.7790    1.1781  -21.2485 C   0  0  0  0  0  0  0  0  0  0  0  0
    5.5708    3.9613  -23.1188 C   0  0  0  0  0  0  0  0  0  0  0  0
    5.3352    3.2184  -18.6813 C   0  0  0  0  0  0  0  0  0  0  0  0
    4.0234    3.2664  -19.3530 C   0  0  0  0  0  0  0  0  0  0  0  0
    5.6099    2.6540  -20.8419 C   0  0  2  0  0  0  0  0  0  0  0  0
    5.5794    3.5352  -17.2294 C   0  0  0  0  0  0  0  0  0  0  0  0
    6.2645    3.7078  -21.7848 C   0  0  0  0  0  0  0  0  0  0  0  0
    5.0745   -4.3126  -18.6889 N   0  0  0  0  0  0  0  0  0  0  0  0
    3.1704   -2.9522  -18.2536 N   0  0  0  0  0  0  0  0  0  0  0  0
    6.2540    2.8280  -19.5322 N   0  0  0  0  0  0  0  0  0  0  0  0
    4.1936    2.9807  -20.6167 N   0  3  0  0  0  0  0  0  0  0  0  0
    2.8141    3.5427  -18.7345 N   0  0  0  0  0  0  0  0  0  0  0  0
    4.0745    4.6681  -26.6566 H   0  0  0  0  0  0  0  0  0  0  0  0
    3.5612    2.5301  -25.4968 H   0  0  0  0  0  0  0  0  0  0  0  0
    5.5355    6.3581  -25.5623 H   0  0  0  0  0  0  0  0  0  0  0  0
    7.3623   -0.8725  -23.4919 H   0  0  0  0  0  0  0  0  0  0  0  0
    6.3147   -2.6092  -22.0632 H   0  0  0  0  0  0  0  0  0  0  0  0
    7.0907    1.5298  -22.9377 H   0  0  0  0  0  0  0  0  0  0  0  0
    4.4702    2.0959  -23.2275 H   0  0  0  0  0  0  0  0  0  0  0  0
    6.5339    5.8843  -23.3383 H   0  0  0  0  0  0  0  0  0  0  0  0
    4.5234    0.4679  -19.6374 H   0  0  0  0  0  0  0  0  0  0  0  0
    6.4627   -3.5997  -20.1028 H   0  0  0  0  0  0  0  0  0  0  0  0
    3.0348   -1.1237  -19.2941 H   0  0  0  0  0  0  0  0  0  0  0  0
    3.5517   -4.7981  -17.3279 H   0  0  0  0  0  0  0  0  0  0  0  0
    6.6442    3.3884  -16.9956 H   0  0  0  0  0  0  0  0  0  0  0  0
    5.3012    4.5806  -17.0305 H   0  0  0  0  0  0  0  0  0  0  0  0
    4.9708    2.8680  -16.6013 H   0  0  0  0  0  0  0  0  0  0  0  0
    7.2888    3.3701  -22.0012 H   0  0  0  0  0  0  0  0  0  0  0  0
    6.3007    4.6636  -21.2415 H   0  0  0  0  0  0  0  0  0  0  0  0
    3.4785    2.9836  -21.3157 H   0  0  0  0  0  0  0  0  0  0  0  0
    1.9671    3.5338  -19.2660 H   0  0  0  0  0  0  0  0  0  0  0  0
    2.7886    3.7510  -17.7567 H   0  0  0  0  0  0  0  0  0  0  0  0
  1  2  1  0  0  0  0
  1  3  2  0  0  0  0
  2  7  2  0  0  0  0
  3  8  1  0  0  0  0
  4  5  1  0  0  0  0
  4  6  2  0  0  0  0
  5 13  2  0  0  0  0
  6 15  1  0  0  0  0
  7 16  1  0  0  0  0
  8 16  2  0  0  0  0
  9 13  1  0  0  0  0
  9 15  2  0  0  0  0
 10 14  1  0  0  0  0
 10 22  2  0  0  0  0
 11 14  2  0  0  0  0
 11 23  1  0  0  0  0
 12 22  1  0  0  0  0
 12 23  2  0  0  0  0
 13 14  1  0  0  0  0
 15 19  1  0  0  0  0
 16 21  1  0  0  0  0
 17 18  1  0  0  0  0
 17 20  1  0  0  0  0
 17 24  2  0  0  0  0
 18 25  2  0  0  0  0
 18 26  1  0  0  0  0
 19 21  1  0  0  0  0
 19 24  1  0  0  0  0
 19 25  1  0  0  0  0
  1 27  1  0  0  0  0
  2 28  1  0  0  0  0
  3 29  1  0  0  0  0
  4 30  1  0  0  0  0
  5 31  1  0  0  0  0
  6 32  1  0  0  0  0
  7 33  1  0  0  0  0
  8 34  1  0  0  0  0
  9 35  1  0  0  0  0
 10 36  1  0  0  0  0
 11 37  1  0  0  0  0
 12 38  1  0  0  0  0
 20 39  1  0  0  0  0
 20 40  1  0  0  0  0
 20 41  1  0  0  0  0
 21 42  1  0  0  0  0
 21 43  1  0  0  0  0
 25 44  1  0  0  0  0
 26 45  1  0  0  0  0
 26 46  1  0  0  0  0
M  CHG  1  25   1
M  END
> <OMEGA_C>
V5iPQNgcj0CabM3BjyaGQEX2UEAZJ8jBlEKqQLqbrUCqf8jBKYzYQBi3FL8XHbXBwFLFQOwryL8M
sK7BPBTTQCjoRz8UsrLBtPWWQNjlQEDw6r3B5PO7QLkypUCfXb7BKCylQGY4Nz7IrKPBZj2xQKc7
WsBHnZzB3h9nQIVhAcD3A5nBYSB6QIxAgsCbVZDBls2rQCpTmL8z26XBZ1qaQIMHDsAxk57BZe24
QIjMlj8F/anBA0SyQKWGfUA687jBLbqqQIf6TUBIc5XBGsCAQFYNUUDz0prBboSzQAXbKUAcvKbB
L4qyQPo/YkDe1YnBBHfIQMlMbUBDR67BE2KiQGwAisDagpXBCOdKQBHxPMBTB5LBaiDIQCn9NEDy
QZzBnzGGQIDDPkAP76TBOBo0QE28YkA24JXBamKCQNlglUC/QNXBT+tjQG3tIUBj+cvBhCKxQMx1
y0Cqf8zBNpjrQDFaX79v77vBaBLKQLL8JsCGgbDBEOfiQKbRwz+DgLfBIQyPQPAjBkDj0bnBehXR
QGBMvEDYtLrBt7+QQCeL7z53GZ3Bn87OQBJhZsB50qDB5DpCQArWj783WprBvk9jQDqKmcB2n4rB
6ZzUQMLaWED49ofBPKOpQKqUkkCPPojBuBCfQKWMN0CPz4TBsD3pQCavV0B6ArDBYp/JQD48lUCg
7qnB/55eQLvzPkCjhqrBSMr7P4MqYkDLIJrBKHkyQOsPcEDIDY7BMYeXQM3am0AlIczBGJ+2QKxO
tUBUB8fBjSuJQJ+ua0A9RcfBHEPWQHA0FL9MZrXB6PbDQOo0yL9q067B0fLQQHF9SD/88bLBZqLH
QAp8qEAVHL3BxZmZQIamUkClRr3BvLCkQOxgNT4BoKPBjQCzQGmPVsC885vBVGNjQFp/BcCAuJnB
Imd6QEZ8gsCOWpDBahGrQE98mL9Z5aXB9iOaQB9GDsDHl57BwVO4QBvulj8m9qnBm+u4QFK7gkD6
FrjBXUiqQJ5vSkBNEZXBvByBQEU2UUC5wJrB3tK0QBDBKUDFa6bBI/iwQPsGXEAWV4nBIVjNQHBP
bEA7eK3B9k+kQKQ1iMC31JTBWHtHQBtCQcBnvJLBURnIQAXAMEATuJvBFs2HQMfKQkCA6qTBPOkz
QAupYkD/A5bBFq+KQG2DpUBOx9PBc2XBQBqh0kBmucrBTv1iQDqCRECiOcvBWHvoQOFjXr+kXbzB
2PbIQBj9JsBmnLDBKrzfQDZGxD8H8bfBIxXgQHWcu0CuT7nBYlKOQGCLGECzirnBoZqQQK9y7T6F
+pzB2erRQD6lX8CzpJ/Bqas7QJ3Rnb9mk5vBIrFjQO/YmcCZp4rBoZ7SQG8CUEBiPYfBqPmoQPmX
j0DqnYfBxy+cQAy+MUCTmITBhhXtQHZfUUDDPa/BugvRQCaCk0Cms6jBLtljQIrsR0AYuKrB9Mb9
P8EVZUBMfJrBBXMwQAnSbEABIY7BoMLjQPm380CLmaPBeeL+QJo730C+/6rBjGO9QKwE4EBPcqDB
muTOQIjtGb/UarbBzGHAQLQ8yr/FOa/BsX/KQMDwQj9277PBjsT0QNsNtkDJzq7BJi+yQNgXuEDM
uqTBe4upQKaILT6M5qLBfwevQMfAYMBLf53BOQlzQO1I+r8oLJfB0oV7QJH9g8A9U5DBwRatQIiu
mb+GdaXBkIKcQMaADsCK/Z3BRGG4QAEklT+xBqrBbuvOQKFyoUBhaavBxuGpQHhaT0AHipXBOKh/
QIhiT0D6+5rBiE6zQFAsKUDZ1abBxDKxQF00akBWFIrBrsvFQMZzaEAhcK/B5HufQAkFjsASrZbB
nFVVQEAOOsBseZDBl/HHQMzxN0BaUZzBV4mFQDuxOUBAAqXBq90yQGo3aUBfcJbB/XXsQJ1FCUHH
WqDBPMENQXsl70D0wa3BMpeoQK6P70CLvprBg3vdQKfDZb/u4b3BzvnDQKIXKMD0KbHB//jUQJMJ
wT9DmrnBMwMFQcwtpkA2WLTBLkaTQCR0qkAv6aLBFUmbQEiF7D7cYpvBu8nJQD9acMAJm6LB7SVV
QGpRe7/aUZfBwTFjQEYNnMB764rBD5jTQHg6Z0ARP4jBvaWlQOoJlkBn8IjBPqyfQCXgPkDls4TB
FYWuQGoLbUC3A7bBC/DjQO5nTUC6ebLBg/tcQHAaNUCNh6rBee77PwB4bEBd7JrBpGwwQJSUeEDM
rY7BNYG1QO2K90BGxqbBHcOVQCxU4kB6yKzB37PaQAd/4UD3jaPBS/nPQBX1HL9tKbbBz3fAQMxS
zL9rJa/B7QfMQIwAPz98i7PBGkabQO0Yt0Aqna/BZkXgQNBAtkAlYabBwqaoQEIjEz6o06LBFyCv
QOPPYsCRmJ3BrqFyQHBWAMDmJpfBuk18QF3BhcDTbZDBV6GsQHbknL/Sa6XBCkOcQNjNEMDXA57B
Nku4QMYrkj/wz6nBG6vAQL4SoUAoeazBxrmpQCNNUkCMj5XBL/p/QNV1VEBFGpvBAg+zQGGWJ0Bw
sKbBptCwQG5ua0CbBorBcRzGQDnBZEDNU6/BU+CfQAZcj8CN0ZbB4pFVQJXYPcB2fpDBLIrHQFBp
N0AdMZzBvWKFQPYDOkCb86TBshczQErrbUB7jJbBZVGxQHNhDEEDoqTBRHhyQDI/80AxNq/B9ujy
QNTH8UBM7J7BTfneQBVCZ79Zl73Bv7TDQJsDKcC2L7HBRhnYQEWZvz9R+bjB9emCQPbFpkC0L7TB
o6/8QIVKpUB846PBMniZQBXc3D4EapvBp+nJQC+zccBkuqLB3ElUQGZ5hL8QO5fBhWtkQIUPnsCh
D4vBhNrSQB/QY0AI/4fBM1mnQEtOl0By4IjBE2WdQEAtQkCezYTBGNy1QGSXWEDc+7bBH3noQIwS
V0C9LLDBr3NcQD1oM0D2aKrBTbn6P5sEbUDH5JrBOmoxQHGVgEAK7I7B/BrXQMh68kDWiKTBj1Ku
QNxw5kDgU6jBTPb4QCSz1EAYhaTBQdnJQN4AJL+C/LbBsqW+QF9hz7/gdK/BvCjFQMMdOD+cfrTB
tVmnQOGfvEDcJ6zBKxbyQL75qkB8WqjBy8CqQPn4AD4iwaLBhA2TQF3PYsDa5qDBQM2jQISPAsDt
WZLB/QyKQOVBhsD3Go/BB6uuQDZln7/uTqXBZNWhQMz4EcDBeJ3BPSe2QHeUjz/5QarB2F/JQLT2
nkASP6zBiACsQA8hUkB37pXB7PaAQOykUkD5z5rBBGmxQOaHJkDcJafBUNu1QNuybECVk4rB2YjC
QNJXY0DBGrDBkVyHQPlSj8DQsJnB+vuXQD79P8DwWovBgzvIQOLJNkCx85zBqz6EQGZsOUDqxaTB
YOw2QM/BaUDMnJXBL2PcQEFNCUF5oqHBz2qUQAVR/UDIS6jBng4MQYTo3UAokqHBCxvWQJkdb79Z
t77BTD/CQBCdKsDLa7HBRAbNQPzHuz/saLrBZBaIQLZPs0BgAq/BGfsFQdgQlEC6UqjBDumeQCZD
1T4/+prBfReRQLXWcMAEWanBsM+uQBe0ir8Nbo/BH7OAQHSJnsAda4nBEVvYQNWuZUCnEInBEHys
QBH0l0CWZ4nBbOWjQBfdQ0AY/YTBDzqrQE5jZECasrbBNzvhQDwXSkDCCLPBfOtXQNHjM0DG76nB
JT7+P1v3Z0ADhpnBRq84QE0zfEB99I3B9nTMQGp090COR6rBaZLlQOa34kD7ErLB6tOqQHJg4UDJ
R6XBdHDkQByVIL/ud7LB4LTLQAMAzr8iU63B2TXcQLaWPD/gqbDBXWveQMxCt0CJf7TBAS6iQILm
tkAHKajBJXqiQK2hDD7dfKTBvt+JQNxQYcBP5aTBbgyAQCc+/r+UJ5bBIbpEQMkbhMByyZXBoPeq
QDSQnb/XI6bBRpGRQAAeEMBqXKDB0tS5QKGzkT9w+qnBZ0i9QB6OoEAZU6/BONWtQBvvWkA17ZbB
xneBQGKETEDPnprBb7WvQAPsJ0Dw2afBFqq5QGShgEDQPYzBA3O2QFiDYkDG97HBWsZkQA35jcCA
kJ/BbKZRQBpPO8BXCJHB6fvIQOVJRUC7hp7BMbiCQPLWMEDBfaTByjo5QKQUYEDM75TBdRHTQH8l
DEE6J6jBX2T+QGkw9ECuNLbBQrWXQNYM8UBAPp/BtNz9QI7Ya7/t07fBcbzRQNXuKcDV3a7BEzTw
QLr4vT+bZLTBpVLyQFFKp0AkU7rBgXeGQM/7pkAh36TBlbOJQJI42z537p7BLtaWQP6pcMD6q6zB
TUeFQE09g787b5LBBVQfQBnlm8CQnJHBaZ/cQLQ8hECjvovB52iqQGUtoEBMaIvBaZKuQOjiVkDO
yIXBp/uZQPgBXUAoGbfB/bHSQJdES0CJV7bByGhSQBPNI0A9CanBE8D/P6RVWUCHYpjBIHQ9QM/t
dEA7ZI3BkOSfQDgWuUBJ4r7BcxeHQD1uk0CGhr7BufLHQOSNukBqtbnB1C0CQdCaXjvz7ZDBKTjq
QEAakr/0eZDBsGz2QK4Ykz8idZbBnGGWQIJcXkALBbnBnUTXQFtZlkDDMLTBhEe0QLjFGLtdOZvB
kKO3QBdVacBFS5TBAiJyQCU8D8BA2JXBm6hlQK/skcDrnJTBgOnBQGNvk7+6opXBChWmQPh9FsDL
PpXByc7NQIfplD/8d5vBpqa+QPXaYECZ37PBrBqsQGFKikCDRpnBSLGEQBdLZkCzNpzBKVy+QMtc
GUCulaHBzHatQIMEtUDmqZPBmgbOQPFcFECHX63BOtSdQP1Kl8C8ApTBk2VAQEvQVcBagZXB67jN
QBiMaEAxXJzB/lqPQPWcH0ABHaHBkIg2QLrfgEBUNZrBzzKUQHXU1EBRIMPBTrtQQGhekkDReMLB
L+XaQCZw10BR+bnB4JcRQa1bHTs+Bo3BM/j0QMX/AMBSLIzB5GMFQQlOAUDd4JbBt02DQALGJEDf
urjBm+L1QD+Tl0DNMbDByvOVQK7qX7zHXZ/BdufZQDNjccA1ypPBGPVUQCyzob8nlJbBtiY9QEDp
rcAfX5TBy/TOQEHlvkCJjZLByKKcQBAJzUDYh5jBp8edQE5HskC50IvBOJrBQDWxsj+oB7HB1zfx
QNEOE0Ahda3BWbh1QOMb6T9rE6TBO84EQM08XkBNlpzBxYIsQGSHnEAgYpbBaVvZQPEq70BLBaHB
/H+7QAfl4kBu5ajBzuf1QGrD0ECbtpzBAKi1QGr6Fr8xjrfBlIytQMtOz78TMrDBg/q3QMw4Pj8S
ErTBuUa6QGo/uED0fazBBsj0QIsWpkCkUKDBNpKpQE6erzzWyqHBAD6tQB5nbcAoHp/Blw6FQNH/
CcDROZTBxa6MQHqZjMCANo/BEAynQD7zqL9aQ6XBDrWdQHqaGcAWf53BYzGzQBwEiD/pEqnBZRvX
QNPSmUDKQqjBg3CiQJMTSEASVJTBRg1+QPtIXUCRr5vBtga1QLUnIUDFI6XBH1eiQPWfWEA5bIjB
TcvUQJmXV0A8/KvBY5WkQNrdlcAT95fBLMR5QPXoScD1QI3BbAjCQI4zJUBcvJnBPqOJQHJNRUBJ
XqXB2ecxQNg4gkD1v5jBL1/aQJb2B0GJR57Bc5alQBEz+kCpKqzBzlEGQfs22kBdppbB4x26QCnD
Ur/A6r/BZEasQMJCKcB35bLBkHS9QI0ZxD9Bz7nB3EejQH/ErkCWfbLB3EoFQYPFjkAtAZ3BKBak
QM0Pgz6CeJnBnCrAQFa8e8AyH6bBb2BxQGw3lb+NtZLB8/GFQDbdpcAwkInBIdTAQMz6QkCM9ITB
2VieQFnIjkAj8obBHsOHQIRkNUD3sYTBICXKQMqMVkA1X7TB9OD0QOcEO0DtZavBdV1uQMa4SkBe
3qvBi0UFQKhbiEAzRp7B+aYnQAUzikDxG5HB

> <OMEGA_E>
aKDePqDeyD70+SU/JBYvPyTnYT+An1c/Po+HP0LYdT8=

> <OMEGA_NBR>
     24328

$$$$
50220832
  -OEChem-04172616093D

 50 53  0     1  0  0  0  0  0999 V2000
    6.9186   -0.5446  -22.5336 C   0  0  0  0  0  0  0  0  0  0  0  0
    6.3417   -1.5499  -21.7376 C   0  0  0  0  0  0  0  0  0  0  0  0
    6.6007    0.8055  -22.3047 C   0  0  0  0  0  0  0  0  0  0  0  0
    5.1038    3.5989  -23.2431 C   0  0  0  0  0  0  0  0  0  0  0  0
    5.4920    4.4770  -24.2709 C   0  0  0  0  0  0  0  0  0  0  0  0
    5.0895    0.1420  -20.5116 C   0  0  0  0  0  0  0  0  0  0  0  0
    6.9063    4.4588  -21.8352 C   0  0  0  0  0  0  0  0  0  0  0  0
    5.6428   -3.3479  -19.4309 C   0  0  0  0  0  0  0  0  0  0  0  0
    3.5762   -2.1006  -19.2775 C   0  0  0  0  0  0  0  0  0  0  0  0
    3.8930   -4.0666  -18.0597 C   0  0  0  0  0  0  0  0  0  0  0  0
    5.4286   -1.2072  -20.7161 C   0  0  0  0  0  0  0  0  0  0  0  0
    4.8725   -2.2340  -19.8187 C   0  0  0  0  0  0  0  0  0  0  0  0
    5.6613    1.1578  -21.3028 C   0  0  0  0  0  0  0  0  0  0  0  0
    5.8078    3.5881  -22.0153 C   0  0  0  0  0  0  0  0  0  0  0  0
    7.2978    5.3352  -22.8568 C   0  0  0  0  0  0  0  0  0  0  0  0
    6.5802    5.3541  -24.0756 C   0  0  0  0  0  0  0  0  0  0  0  0
    3.9495    3.2276  -19.3095 C   0  0  0  0  0  0  0  0  0  0  0  0
    5.3093    3.2145  -18.7398 C   0  0  0  0  0  0  0  0  0  0  0  0
    5.4064    2.6099  -20.9148 C   0  0  1  0  0  0  0  0  0  0  0  0
    8.4483    6.2924  -22.6027 C   0  0  0  0  0  0  0  0  0  0  0  0
    2.7084    3.6138  -18.5485 C   0  0  0  0  0  0  0  0  0  0  0  0
    6.2209    7.4753  -25.0267 C   0  0  0  0  0  0  0  0  0  0  0  0
    5.1430   -4.2444  -18.5555 N   0  0  0  0  0  0  0  0  0  0  0  0
    3.1060   -3.0197  -18.4103 N   0  0  0  0  0  0  0  0  0  0  0  0
    3.9912    2.8529  -20.5689 N   0  0  0  0  0  0  0  0  0  0  0  0
    6.1442    2.8402  -19.6682 N   0  3  0  0  0  0  0  0  0  0  0  0
    5.6504    3.5366  -17.4352 N   0  0  0  0  0  0  0  0  0  0  0  0
    6.9367    6.2256  -25.0751 O   0  0  0  0  0  0  0  0  0  0  0  0
    7.6071   -0.8102  -23.3222 H   0  0  0  0  0  0  0  0  0  0  0  0
    6.5971   -2.5854  -21.9076 H   0  0  0  0  0  0  0  0  0  0  0  0
    7.0737    1.5771  -22.8941 H   0  0  0  0  0  0  0  0  0  0  0  0
    4.2672    2.9320  -23.3909 H   0  0  0  0  0  0  0  0  0  0  0  0
    4.9576    4.4799  -25.2094 H   0  0  0  0  0  0  0  0  0  0  0  0
    4.3819    0.4028  -19.7385 H   0  0  0  0  0  0  0  0  0  0  0  0
    7.4492    4.4490  -20.9017 H   0  0  0  0  0  0  0  0  0  0  0  0
    6.6350   -3.4844  -19.8350 H   0  0  0  0  0  0  0  0  0  0  0  0
    2.9591   -1.2600  -19.5587 H   0  0  0  0  0  0  0  0  0  0  0  0
    3.5084   -4.7897  -17.3557 H   0  0  0  0  0  0  0  0  0  0  0  0
    9.3924    5.8234  -22.9169 H   0  0  0  0  0  0  0  0  0  0  0  0
    8.2895    7.2171  -23.1769 H   0  0  0  0  0  0  0  0  0  0  0  0
    8.4967    6.5307  -21.5299 H   0  0  0  0  0  0  0  0  0  0  0  0
    1.8328    3.5350  -19.2096 H   0  0  0  0  0  0  0  0  0  0  0  0
    2.5807    2.9392  -17.6891 H   0  0  0  0  0  0  0  0  0  0  0  0
    2.8054    4.6494  -18.1905 H   0  0  0  0  0  0  0  0  0  0  0  0
    6.5545    8.1218  -25.8518 H   0  0  0  0  0  0  0  0  0  0  0  0
    5.1421    7.2838  -25.1244 H   0  0  0  0  0  0  0  0  0  0  0  0
    6.4192    7.9744  -24.0667 H   0  0  0  0  0  0  0  0  0  0  0  0
    7.1308    2.7279  -19.5495 H   0  0  0  0  0  0  0  0  0  0  0  0
    6.6054    3.4907  -17.1422 H   0  0  0  0  0  0  0  0  0  0  0  0
    4.9414    3.8148  -16.7871 H   0  0  0  0  0  0  0  0  0  0  0  0
  1  2  1  0  0  0  0
  1  3  2  0  0  0  0
  2 11  2  0  0  0  0
  3 13  1  0  0  0  0
  4  5  2  0  0  0  0
  4 14  1  0  0  0  0
  5 16  1  0  0  0  0
  6 11  1  0  0  0  0
  6 13  2  0  0  0  0
  7 14  2  0  0  0  0
  7 15  1  0  0  0  0
  8 12  1  0  0  0  0
  8 23  2  0  0  0  0
  9 12  2  0  0  0  0
  9 24  1  0  0  0  0
 10 23  1  0  0  0  0
 10 24  2  0  0  0  0
 11 12  1  0  0  0  0
 13 19  1  0  0  0  0
 14 19  1  0  0  0  0
 15 16  2  0  0  0  0
 15 20  1  0  0  0  0
 16 28  1  0  0  0  0
 17 18  1  0  0  0  0
 17 21  1  0  0  0  0
 17 25  2  0  0  0  0
 18 26  2  0  0  0  0
 18 27  1  0  0  0  0
 19 25  1  0  0  0  0
 19 26  1  0  0  0  0
 22 28  1  0  0  0  0
  1 29  1  0  0  0  0
  2 30  1  0  0  0  0
  3 31  1  0  0  0  0
  4 32  1  0  0  0  0
  5 33  1  0  0  0  0
  6 34  1  0  0  0  0
  7 35  1  0  0  0  0
  8 36  1  0  0  0  0
  9 37  1  0  0  0  0
 10 38  1  0  0  0  0
 20 39  1  0  0  0  0
 20 40  1  0  0  0  0
 20 41  1  0  0  0  0
 21 42  1  0  0  0  0
 21 43  1  0  0  0  0
 21 44  1  0  0  0  0
 22 45  1  0  0  0  0
 22 46  1  0  0  0  0
 22 47  1  0  0  0  0
 26 48  1  0  0  0  0
 27 49  1  0  0  0  0
 27 50  1  0  0  0  0
M  CHG  1  26   1
M  END
> <OMEGA_C>
92TdQFNtC7/JRLTBLe/KQIRixr+t5q3B8TjTQJM2Tj8ccLLB81GjQOpUZkDf8bnByL6vQFJDj0C+
KsLBHd2iQLJlET7NF6TBcgDdQNqujkCMrq7Bf5G0QJFEVsBicpvB2OBkQKxvBsBiOJrBmid5QNgh
gsAtepDBWbetQCOFmr9+uqXB0+ubQFL6DsCxjJ7BMCm1QOsxlD8fbKrBaNm5QL2jZUBqH7DBwofp
QO+5qkDT2rbBGpHSQClVq0C/msDBBsV8QHaRTkD0eZrB3eWpQMa5TUAE65XBmwGtQLgIJ0CPUafB
SywHQWhbyUBZ0rTB7FYtQBJJZ0BMY5TBQxHHQKY170CuNsjBiJOkQOjRh8CgcZTBEshGQDlDQcBF
SJPBZnB/QPSVNkAvjaTBUJ3EQH7FNUCOWJ3BQNC0QL9XYkBAe4vBmPndQPQ3x0C+mcjBRG3zQDZn
T7/Hk7rBbhvTQP12JcDSQq/BclviQHreyT8pJ7fBF42IQF6mO0CkILvBjKSeQLRbj0DCrMnBlziM
QKU6zj526J3BP2DuQOJdjkCjNqfBg1HUQMcAX8ARrp7BFmI9QEZIob80eJzBT4lgQFVFmcBt2IrB
UkcWQYdZukDhVbfBo6EEQV3y5kBearnBc/IHQcH70EBKPazBnprqP+s9YkBcrZnB0CklQFscPEA5
g43BVoszQBHIlEAghpHBz77RQMnyAUFn0M7B2YukQL4U6UC9/sjBGmrNQFou/0CniMDBMC/kQACW
LkBeZZzBzV/TQGhoX0BDI4nBTSCeQBwmdEAVTIbByHXpQFEZy75VJrHBXTfRQOkVuL+yp6zBAqne
QCYfcT+rDK/BU3edQKDbc0CFxbfBlV2oQFwulEAtf8DBaYCjQHpPTT4rzqPBHTrjQLsyiEDPta/B
MIyQQIMkX8B7GqbB3Hh/QJCuA8A4FZfBBxNLQGq2h8CiDpjBCjGuQF2rkr+54aXBcMWUQFwaD8Ct
/KDB/Nq6QATLoD8fiajBLX66QOr9aEA2L6/BgbzuQGZroUCdk7jBhbzQQFFTqEA34sDB7699QIHP
U0C7R5nBeDWqQCGGX0Cw4ZTBKm2vQC6BLUCf2qXBzVQNQXA2tkAE37jBkJArQPP0ZUDEVJPBfPnO
QNwl7kDMKsjBPgdyQADyjsD4lKHBTBdRQP3fQ8C+xpLBH3aBQNMSN0CvIaPBABHGQM2KRkC4B5zB
k7azQMojf0BbyorBK/HaQPvTwUBOf8nB/TgCQdkYIL9lOrbBElvZQMbJHcDrYK7BOMHxQFdm3j8c
a7LBN7x9QEq/U0Ccn7fBgMCRQKDumEDs68bBqRyJQHOm2j5yh57BCrP5QGrSg0DrPKnB3jmgQPhB
asBDra3BbDuCQNJ9jr/X75LBxqwlQMgeocBuh5TB6LgYQZSmoEA33bzBMGcMQeuM1EBIT73B6MUS
QXaBvEDOprDBPj7pP/5jV0DrhZjBbpQoQJ7XPUDvG4zB+akpQALvlEAWBpHBxiTYQGQpAEGiWM/B
vCmsQCRq8EAz/sbBx37fQNp3+0B2JcHBJsflQH++REBx+5rBSjHSQLswgkB/cYjBRRacQA5ZiEB8
3IXBaTwAQWBYCL/uP6vBdnnlQGCOyL/2zqfBqQjyQIAJTD+48qrBhsbRQNQMmUBAmK3BUe7TQF5G
tUAiO7bBOPGsQACMez1cKqTBDYy7QHATP0AYg7nBniu2QDCDVsDgK5nBupRqQGAFCsA8uZ3BIlFo
QBgbfsCDApLBudK7QPB+or8sFKTBxRKiQEDTEsCcrp7BigfIQGD2jD+keKfBYvjEQFAvXECbGK/B
Vji/QLD8dkAaTMLBRCHJQNhOp0BdpcDBJQeQQHAkZUAD4pnB95K8QIACbEAWDZbBN/G7QKheI0BU
dKXBIK22QBgFVUB4bs3BaPVUQFAFiUDSy5TBZ7DFQIC68EC80sbBSOqeQMh9hcB765LBOi4+QKCe
P8BhYpfB2OqOQCAHNEDabqLBHvLUQPjcPEDfHpzB0RbLQAyvjkBSm43BNY/HQNxPw0DDR8nBSiEQ
QcH2Qb9WH67BCH3wQGLGJcChAajBfpYDQVElzD9JZK3BSvzZQEIppEDSrKXBiufdQGj31UCk87TB
QJmMQCHzjz4VrqHBt3uxQEJn+z/xwLrBnDzYQBxCYMCU95nBnahJQCt4sL+qFKLBhSdEQIu9k8DR
xIzBSHCUQIqmW0CtTM/BGJvJQKSeeUCyRdPBq8i/QHMWEUCG0c3B+nAaQE/VgUC/WJnBJGdNQHWz
e0AwgYzBqz5gQOvDq0C/0pTBZ5TEQP6YAUFPT87B4dKoQIlw90AUE8LBfj/iQKHu+UDbOMLBZ2Dz
QNb4LEAjpZrBlETqQNo4j0Ccz4vBcWa2QAT7n0DBTInB

> <OMEGA_E>
sAIPP6iiWT/YPGU/

> <OMEGA_NBR>
     27177

$$$$
50220804
  -OEChem-04172616093D

 53 56  0     1  0  0  0  0  0999 V2000
    6.8835   -0.5427  -22.5612 C   0  0  0  0  0  0  0  0  0  0  0  0
    6.3227   -1.5472  -21.7531 C   0  0  0  0  0  0  0  0  0  0  0  0
    6.5749    0.8083  -22.3230 C   0  0  0  0  0  0  0  0  0  0  0  0
    5.0952    0.1469  -20.5037 C   0  0  0  0  0  0  0  0  0  0  0  0
    6.9263    4.4620  -21.8279 C   0  0  0  0  0  0  0  0  0  0  0  0
    5.1184    3.5891  -23.2156 C   0  0  0  0  0  0  0  0  0  0  0  0
    3.5803   -2.0947  -19.2727 C   0  0  0  0  0  0  0  0  0  0  0  0
    5.6422   -3.3484  -19.4381 C   0  0  0  0  0  0  0  0  0  0  0  0
    3.8936   -4.0673  -18.0650 C   0  0  0  0  0  0  0  0  0  0  0  0
    5.4269   -1.2031  -20.7168 C   0  0  0  0  0  0  0  0  0  0  0  0
    4.8744   -2.2301  -19.8181 C   0  0  0  0  0  0  0  0  0  0  0  0
    5.6606    1.1632  -21.2977 C   0  0  0  0  0  0  0  0  0  0  0  0
    5.8242    3.5929  -21.9949 C   0  0  0  0  0  0  0  0  0  0  0  0
    7.3141    5.3253  -22.8655 C   0  0  0  0  0  0  0  0  0  0  0  0
    5.5092    4.4347  -24.2670 C   0  0  0  0  0  0  0  0  0  0  0  0
    6.5889    5.3324  -24.0812 C   0  0  0  0  0  0  0  0  0  0  0  0
    3.9328    3.2468  -19.3232 C   0  0  0  0  0  0  0  0  0  0  0  0
    5.2838    3.2230  -18.7316 C   0  0  0  0  0  0  0  0  0  0  0  0
    5.4127    2.6170  -20.9014 C   0  0  1  0  0  0  0  0  0  0  0  0
    8.4690    6.2836  -22.6356 C   0  0  0  0  0  0  0  0  0  0  0  0
    4.7136    4.4211  -25.5582 C   0  0  0  0  0  0  0  0  0  0  0  0
    2.6817    3.6514  -18.5883 C   0  0  0  0  0  0  0  0  0  0  0  0
    6.2187    7.4679  -25.0116 C   0  0  0  0  0  0  0  0  0  0  0  0
    3.1095   -3.0156  -18.4078 N   0  0  0  0  0  0  0  0  0  0  0  0
    5.1412   -4.2478  -18.5663 N   0  0  0  0  0  0  0  0  0  0  0  0
    3.9925    2.8641  -20.5785 N   0  0  0  0  0  0  0  0  0  0  0  0
    6.1332    2.8519  -19.6484 N   0  3  0  0  0  0  0  0  0  0  0  0
    5.6071    3.5372  -17.4212 N   0  0  0  0  0  0  0  0  0  0  0  0
    6.9318    6.2150  -25.0799 O   0  0  0  0  0  0  0  0  0  0  0  0
    7.5525   -0.8091  -23.3661 H   0  0  0  0  0  0  0  0  0  0  0  0
    6.5770   -2.5827  -21.9249 H   0  0  0  0  0  0  0  0  0  0  0  0
    7.0357    1.5790  -22.9231 H   0  0  0  0  0  0  0  0  0  0  0  0
    4.3980    0.4075  -19.7211 H   0  0  0  0  0  0  0  0  0  0  0  0
    7.4734    4.4623  -20.8968 H   0  0  0  0  0  0  0  0  0  0  0  0
    4.2714    2.9313  -23.3432 H   0  0  0  0  0  0  0  0  0  0  0  0
    2.9651   -1.2511  -19.5488 H   0  0  0  0  0  0  0  0  0  0  0  0
    6.6330   -3.4858  -19.8452 H   0  0  0  0  0  0  0  0  0  0  0  0
    3.5086   -4.7921  -17.3630 H   0  0  0  0  0  0  0  0  0  0  0  0
    9.4092    5.8080  -22.9513 H   0  0  0  0  0  0  0  0  0  0  0  0
    8.3070    7.2001  -23.2219 H   0  0  0  0  0  0  0  0  0  0  0  0
    8.5274    6.5375  -21.5669 H   0  0  0  0  0  0  0  0  0  0  0  0
    3.8873    5.1438  -25.4881 H   0  0  0  0  0  0  0  0  0  0  0  0
    5.3707    4.6958  -26.3966 H   0  0  0  0  0  0  0  0  0  0  0  0
    4.3059    3.4135  -25.7269 H   0  0  0  0  0  0  0  0  0  0  0  0
    1.8180    3.5778  -19.2655 H   0  0  0  0  0  0  0  0  0  0  0  0
    2.5302    2.9837  -17.7273 H   0  0  0  0  0  0  0  0  0  0  0  0
    2.7831    4.6881  -18.2349 H   0  0  0  0  0  0  0  0  0  0  0  0
    6.5421    8.1200  -25.8363 H   0  0  0  0  0  0  0  0  0  0  0  0
    5.1381    7.2796  -25.0953 H   0  0  0  0  0  0  0  0  0  0  0  0
    6.4319    7.9591  -24.0507 H   0  0  0  0  0  0  0  0  0  0  0  0
    7.1188    2.7449  -19.5171 H   0  0  0  0  0  0  0  0  0  0  0  0
    6.5578    3.4876  -17.1150 H   0  0  0  0  0  0  0  0  0  0  0  0
    4.8897    3.8136  -16.7817 H   0  0  0  0  0  0  0  0  0  0  0  0
  1  2  1  0  0  0  0
  1  3  2  0  0  0  0
  2 10  2  0  0  0  0
  3 12  1  0  0  0  0
  4 10  1  0  0  0  0
  4 12  2  0  0  0  0
  5 13  2  0  0  0  0
  5 14  1  0  0  0  0
  6 13  1  0  0  0  0
  6 15  2  0  0  0  0
  7 11  1  0  0  0  0
  7 24  2  0  0  0  0
  8 11  2  0  0  0  0
  8 25  1  0  0  0  0
  9 24  1  0  0  0  0
  9 25  2  0  0  0  0
 10 11  1  0  0  0  0
 12 19  1  0  0  0  0
 13 19  1  0  0  0  0
 14 16  2  0  0  0  0
 14 20  1  0  0  0  0
 15 16  1  0  0  0  0
 15 21  1  0  0  0  0
 16 29  1  0  0  0  0
 17 18  1  0  0  0  0
 17 22  1  0  0  0  0
 17 26  2  0  0  0  0
 18 27  2  0  0  0  0
 18 28  1  0  0  0  0
 19 26  1  0  0  0  0
 19 27  1  0  0  0  0
 23 29  1  0  0  0  0
  1 30  1  0  0  0  0
  2 31  1  0  0  0  0
  3 32  1  0  0  0  0
  4 33  1  0  0  0  0
  5 34  1  0  0  0  0
  6 35  1  0  0  0  0
  7 36  1  0  0  0  0
  8 37  1  0  0  0  0
  9 38  1  0  0  0  0
 20 39  1  0  0  0  0
 20 40  1  0  0  0  0
 20 41  1  0  0  0  0
 21 42  1  0  0  0  0
 21 43  1  0  0  0  0
 21 44  1  0  0  0  0
 22 45  1  0  0  0  0
 22 46  1  0  0  0  0
 22 47  1  0  0  0  0
 23 48  1  0  0  0  0
 23 49  1  0  0  0  0
 23 50  1  0  0  0  0
 27 51  1  0  0  0  0
 28 52  1  0  0  0  0
 28 53  1  0  0  0  0
M  CHG  1  27   1
M  END
> <OMEGA_C>
4UXcQNXtCr9RfbTBhlPKQLULxr9tBq7BxmXSQMHrTj+XlbLBCgyjQIxtFj57B6TBWaTdQOfIjkCf
n67BRcqjQHezZUCWubnBCSNlQOoPBsCALprBrIy0QGlLVsBMgZvBCTF5QD8ngsAghZDBgqmtQD3+
mb8XvKXBdfubQOu5DsCEi57B8yO1QInjlD/FYarB+l+6QF7xZUCZ9a/BeQ3qQKJoqkCR7LbBu0uw
QEjpjUC8IsLBJdjSQB+jqkBEpsDB+7J7QPjLT0DRlZrB4hSpQNxETkBB2pXB+TStQLt8J0D4NafB
4YAHQT0TyUC7FbXBs9WWQIx5jUBGd8zBY6ArQPCvaUDOtJTBVf/GQAH57kC4F8jBDwJHQLH/QMAw
Q5PBb4SkQP/th8DNh5TBCYV/QCdNN0C2oKTBakPEQNiFNkD5L53BQ22zQKdhYkCFXovBotHdQGzh
xkC6o8jB0q3xQCUiT7/Z7brBu3bSQB9LJcBLZq/BziThQAodyj9vYrfByryMQLWe0D65xJ3BZCbv
QMHKjkCcLKfBK6+IQAybO0DQvrrBYsM9QE0koL/yY5zBwUHUQPkXX8D5wp7BI41gQOpYmcBo54rB
PowWQcbauUA5nLfBVekEQXBn5kByxrnBKHAIQRsz0UAHiazBw8l4QDaapECK58vBZNyrQC1ElkAo
LNPBlMmJQC52WkC30M3BXLToP/H6ZEDWH5rBv+4hQBL1PkCC0Y3Byh4yQAYFlkAm4ZHBHVnRQIXr
AUG1sM7BpmukQMTy6EBGw8jB6tHNQKCw/kDTZ8DB/8zjQOysL0D0IpzBbdnRQFQ1X0Ca64jBK3ic
QFgRdEDaQIbBPVLcQEgNCL9oj7TBsonKQMFJxb+rHa7BOibSQGYgUT/ro7LBUf6iQC58Ej5VFqTB
dmKjQKYAZkD0ornBHz3dQPq1jkBLf67BGJa0QNaqVsAQo5vBc49lQCTxBcA9PZrBfed5QDPKgcBu
eZDBYsOtQBYumr8Y1KXB0BWcQOr2DsC3qJ7Bh+G0QB/tlD8ua6rBK+u5QCIDZkDe3a/BpBKwQDMA
jkBxCcLBO9XpQOlJqkBOybbBnsjSQFyGqkCficDBMAl7QEI6UUAWo5rBeuOoQPKcUUCX+JXBycis
QBkuJ0BuLKfBw8+WQOKBjUDUZczBqHIHQZ3MyEC167TBSc4qQAzKakDbxJTB1CfIQGS57kApL8jB
ebSkQM3Vh8AKkZTBT6NHQDRyQMDpQJPBdp9+QD6CNkACl6TBOM7DQB6rNUAwIp3BZ4+zQAwcakDo
p4vBUVjeQOhExkBilcjBmdPxQMPDSr+N/rrBq+LSQL3KJMABga/BUavgQEm8yz8acbfBrrOMQAn3
yz4Ez53B2i2IQGUuPEDSqrrBGKTuQFirjkBTCKfBShvUQIsGYMBB+57BQS8+QAn5n78DdpzBGaBh
QCexmMB5worBjN94QKK6pEBd48vBNv+rQH4jlkAFFtPBOa+JQIyTWkBbvM3B7HkWQZNwuUDNarfB
3PMEQe8i5kDznrnBUFcIQfHw0ED8XqzBApvmP1OqY0DUG5rB9XQiQE58QUAyuI3BphEwQDjylkCq
MJLB//zSQOCPAUEh087BAYGlQAM36UCc48jBBQzPQGau/kAsiMDBwhHjQM+/K0Aq9pvBRP3RQKcH
Z0DVNYnBAdWcQOndfkBcqIbBXADcQHHDCr8il7TBSEzKQNBFxr/fGq7BlM3RQCuhTj8Rt7LBF8Ci
QAzMDj7SHqTBiBbdQO/IjkA+ia7BvZ6jQO3OZUBoxbnBkIG0QKXaVsAmm5vB7mFlQA4zBsB4LprB
Kth5QBP6gcDpcJDBQIytQJPGmr9N0qXBr/WbQKsuD8A8n57Brpq0QPIxlD+ifarBeOa5QA3gZUAw
9q/B78npQAV4qkD4ybbBKXWwQCcAjkCjJcLB6/TSQCW8qkBbkcDBCGx7QOmUUEB/oZrBXyapQNC2
UECjBpbBLq6sQK33JkD0Q6fBEVYHQeAfyUBu17TB2oaXQFlujUBVj8zB2b0rQIx6akBjrJTBjqvH
QPQY70DqCcjBqKikQB78h8CHi5TBjJlHQKe3QMDzL5PBSI1+QCCJNkAEnqTBwurDQKxINUB+QJ3B
fPezQHLCaEBTtIvB31veQKjuxkAQh8jBEnnxQC81Tr8tBrvBvLDSQJNOJcBzda/B/0DgQGstyj/u
jbfB7niMQNNyyz542J3B+1DuQHXCjkDUC6fBVIKIQCnTO0Bv2rrBywnUQOoXYMDg8p7Bs/E9QHqH
oL/OZJzBfpJhQJTzmMCAvorBJ24WQQPtuUDUTLfBRtYEQTt+5kBmh7nB0RkIQSot0UCMSKzBTgh6
QFmDpEBzGMzBQOGsQBM1lkDuM9PBNZyKQIdNWkA0783BNNXnP2RLZECW+pnBwFMjQKq7QEB8qo3B
3MgxQHaqlkBUBZLB4F3SQJr2AUH/m87BuBmlQFcz6UAVzMjBczzOQBnK/kCgVcDBgTvjQMeXK0A9
I5zBnXHSQE+/ZUCHS4nByUudQAIgfUA0qobB

> <OMEGA_E>
xKQLP06vCz+wmAs/

> <OMEGA_NBR>
     30146

$$$$
50220833
  -OEChem-04172616093D

 48 51  0     1  0  0  0  0  0999 V2000
    6.7296   -0.5917  -22.6489 C   0  0  0  0  0  0  0  0  0  0  0  0
    3.0922   -3.0413  -18.3250 C   0  0  0  0  0  0  0  0  0  0  0  0
    6.1655   -1.5755  -21.8192 C   0  0  0  0  0  0  0  0  0  0  0  0
    3.5306   -2.0762  -19.2432 C   0  0  0  0  0  0  0  0  0  0  0  0
    6.4949    0.7701  -22.3897 C   0  0  0  0  0  0  0  0  0  0  0  0
    7.0369    4.4140  -21.9010 C   0  0  0  0  0  0  0  0  0  0  0  0
    5.1301    3.6343  -23.2210 C   0  0  0  0  0  0  0  0  0  0  0  0
    7.3967    5.2860  -22.9414 C   0  0  0  0  0  0  0  0  0  0  0  0
    5.4933    4.5058  -24.2607 C   0  0  0  0  0  0  0  0  0  0  0  0
    5.0712    0.1619  -20.5067 C   0  0  0  0  0  0  0  0  0  0  0  0
    3.9501   -4.1063  -17.9816 C   0  0  0  0  0  0  0  0  0  0  0  0
    5.6170   -3.3138  -19.4271 C   0  0  0  0  0  0  0  0  0  0  0  0
    5.3394   -1.2000  -20.7383 C   0  0  0  0  0  0  0  0  0  0  0  0
    4.8152   -2.2125  -19.8071 C   0  0  0  0  0  0  0  0  0  0  0  0
    5.8905    3.5908  -22.0276 C   0  0  0  0  0  0  0  0  0  0  0  0
    5.6490    1.1600  -21.3201 C   0  0  0  0  0  0  0  0  0  0  0  0
    6.6190    5.3438  -24.1131 C   0  0  0  0  0  0  0  0  0  0  0  0
    5.3758    3.1734  -18.7275 C   0  0  0  0  0  0  0  0  0  0  0  0
    4.0195    3.2413  -19.3010 C   0  0  0  0  0  0  0  0  0  0  0  0
    5.4768    2.6261  -20.9170 C   0  0  1  0  0  0  0  0  0  0  0  0
    5.7158    3.4447  -17.2830 C   0  0  0  0  0  0  0  0  0  0  0  0
    6.0232    7.3557  -25.1742 C   0  0  0  0  0  0  0  0  0  0  0  0
    5.1837   -4.2277  -18.5284 N   0  0  0  0  0  0  0  0  0  0  0  0
    6.2324    2.8358  -19.6637 N   0  0  0  0  0  0  0  0  0  0  0  0
    4.0810    2.9093  -20.5631 N   0  3  0  0  0  0  0  0  0  0  0  0
    2.8691    3.5893  -18.6116 N   0  0  0  0  0  0  0  0  0  0  0  0
    6.9460    6.2502  -25.0888 O   0  0  0  0  0  0  0  0  0  0  0  0
    7.3448   -0.8823  -23.4877 H   0  0  0  0  0  0  0  0  0  0  0  0
    2.1082   -2.9696  -17.8858 H   0  0  0  0  0  0  0  0  0  0  0  0
    6.3642   -2.6200  -22.0089 H   0  0  0  0  0  0  0  0  0  0  0  0
    2.8963   -1.2448  -19.5131 H   0  0  0  0  0  0  0  0  0  0  0  0
    6.9612    1.5230  -23.0079 H   0  0  0  0  0  0  0  0  0  0  0  0
    7.6351    4.3707  -21.0028 H   0  0  0  0  0  0  0  0  0  0  0  0
    4.2670    2.9947  -23.3323 H   0  0  0  0  0  0  0  0  0  0  0  0
    8.2707    5.9127  -22.8423 H   0  0  0  0  0  0  0  0  0  0  0  0
    4.9126    4.5345  -25.1708 H   0  0  0  0  0  0  0  0  0  0  0  0
    4.4157    0.4466  -19.6970 H   0  0  0  0  0  0  0  0  0  0  0  0
    3.6160   -4.8427  -17.2657 H   0  0  0  0  0  0  0  0  0  0  0  0
    6.5979   -3.4280  -19.8644 H   0  0  0  0  0  0  0  0  0  0  0  0
    6.7975    3.3162  -17.1300 H   0  0  0  0  0  0  0  0  0  0  0  0
    5.4290    4.4751  -17.0262 H   0  0  0  0  0  0  0  0  0  0  0  0
    5.1684    2.7405  -16.6391 H   0  0  0  0  0  0  0  0  0  0  0  0
    6.3438    8.0407  -25.9730 H   0  0  0  0  0  0  0  0  0  0  0  0
    5.0159    6.9757  -25.3996 H   0  0  0  0  0  0  0  0  0  0  0  0
    6.0060    7.8938  -24.2149 H   0  0  0  0  0  0  0  0  0  0  0  0
    3.3019    2.8566  -21.1878 H   0  0  0  0  0  0  0  0  0  0  0  0
    1.9874    3.6003  -19.0834 H   0  0  0  0  0  0  0  0  0  0  0  0
    2.9204    3.8296  -17.6423 H   0  0  0  0  0  0  0  0  0  0  0  0
  1  3  1  0  0  0  0
  1  5  2  0  0  0  0
  2  4  2  0  0  0  0
  2 11  1  0  0  0  0
  3 13  2  0  0  0  0
  4 14  1  0  0  0  0
  5 16  1  0  0  0  0
  6  8  2  0  0  0  0
  6 15  1  0  0  0  0
  7  9  1  0  0  0  0
  7 15  2  0  0  0  0
  8 17  1  0  0  0  0
  9 17  2  0  0  0  0
 10 13  1  0  0  0  0
 10 16  2  0  0  0  0
 11 23  2  0  0  0  0
 12 14  2  0  0  0  0
 12 23  1  0  0  0  0
 13 14  1  0  0  0  0
 15 20  1  0  0  0  0
 16 20  1  0  0  0  0
 17 27  1  0  0  0  0
 18 19  1  0  0  0  0
 18 21  1  0  0  0  0
 18 24  2  0  0  0  0
 19 25  2  0  0  0  0
 19 26  1  0  0  0  0
 20 24  1  0  0  0  0
 20 25  1  0  0  0  0
 22 27  1  0  0  0  0
  1 28  1  0  0  0  0
  2 29  1  0  0  0  0
  3 30  1  0  0  0  0
  4 31  1  0  0  0  0
  5 32  1  0  0  0  0
  6 33  1  0  0  0  0
  7 34  1  0  0  0  0
  8 35  1  0  0  0  0
  9 36  1  0  0  0  0
 10 37  1  0  0  0  0
 11 38  1  0  0  0  0
 12 39  1  0  0  0  0
 21 40  1  0  0  0  0
 21 41  1  0  0  0  0
 21 42  1  0  0  0  0
 22 43  1  0  0  0  0
 22 44  1  0  0  0  0
 22 45  1  0  0  0  0
 25 46  1  0  0  0  0
 26 47  1  0  0  0  0
 26 48  1  0  0  0  0
M  CHG  1  25   1
M  END
> <OMEGA_C>
9FjXQOp6F78KMbXBreZFQIOkQsCzmZLBhUvFQCOqyb/Dja7B8PRhQN7fBMAt8pnBoNbPQKwmRT8G
HrPBpi7hQHU/jUAoNa/BkimkQPOYaECexLnB0rHsQOImqUDlh7fBdMmvQLMvkEDqFcLBk0eiQADG
JT6pDaTBjs58QOdmg8BD2o/BW76zQPEUVMCzapvBUNyqQMKZmb8W6KXBeRaaQEqZDcDXdJ7B5H68
QAnQZUBuOLDBZcS0QOJ5lD+Uj6rBEs/TQIoAq0C558DBUQasQB4ZS0D00ZXBmJ+AQORwT0B1aJrB
K0KvQL0RKEDwVafBdOe2QFt1XECKQ4rBZr7AQB1i60DJZMnByOClQOxIh8AzOpTBm2/HQE99NUBF
T53BLZeCQPAxOkBJgaTB0543QD63ZUCb5JTB1kXeQKkByEDitcjBswjrQLDeYb/I5rvBe+wGQLsN
PsARFo/BxqfLQMqtJ8AhErDBjlw5QP1Tn7/QGpzBv8HeQATxwj8+ELjB0lL0QNnci0CwBajBj4uI
QLmoP0CmqLrByFQEQZ00vUAAvbbBJTSdQAQbkUDbXcnBWU2NQH6m5D5mk53BvmtnQEL3msAfIIrB
nSHTQL5jW8Bd6p7B2ITZQGw9VEA1ConBpbqtQEI0j0CsNYjBPmOlQJNkL0DxHIXBgQDLQNymAEGe
yM/B+4GgQEQ530BoMsvBcTHAQKCZ/EAquMHB9FFTQBzTNkCygKnBXWT+P4ZqZkDhqpjBO+g6QHYX
dUBfI43BhhfaQCAFDL8G6LTBoF1FQOvqQMBZ/JLBqU3HQGd1xb8Hg67B3qBiQMMxA8DqQZrBXUfS
QJagTz+3vbLBlU2kQOkrZ0BiqLnBCmzgQHqejkCbFq/BTBKwQMR3jkAfKsLBPfPrQKKxqUAOlrfB
RmWjQNSwND40BKTBivp6QHMhg8CbT5DBhG6zQDmHVMCNxJvByg+sQBw4l78P+6XB5HOaQGTpDMBF
u57BqkC8QMcWZ0AaCrDBTzu2QKOmlz8KVqrBybLTQP6+qUAGF8HBRKSrQB/NS0AWl5XB91yAQFVT
T0BCQprBO6CvQM1MKUBAG6fBPQG2QOYAXUBJAIrBuhLIQPUy7kAJKcjBhuukQDOSh8BfrZTBJXfH
QPqyN0DfDZ3Bt62CQKIoOUDNUaTB2L82QHzwZUA01pTBCMbdQIGwxUBzJcnB75PuQLZSU7+Wf7vB
jHUGQCxoO8DxeI/B07XNQKxpJcAuILDBn+06QNN/mr80ZJzBrLPhQHtUyT+0f7fBW9mIQEasPUAp
dLrBtiTzQKhxjkBw06fBgN2dQPw6jkAZgsnBtLMDQUR4vkCR1bbBxAqOQBaH5j7zlZ3BmKZkQEC3
msBVpYrB0s/SQDGgXMBWPp/BCKnYQBgkVkBIuIjBfxisQF06j0Bs6YfBO86kQNH2LkAm64TBU2rR
QPSWAUFH1M7BLEWlQEP96EDJXMjBzvbQQMxY/UC8iMDBpqtTQODYM0BpUanB6Q39P68rZkCyqJjB
YZY5QO4GdkALGo3Bme3aQIOzE78QJbXBpdWhQG7mh8D5gJTBTTvIQAERyb9esq7BNjSzQMVKVsAr
8ZvBCCbTQNWESD9mA7PBLTTgQFNEj0An/q7BEx6lQEyyZkC8x7nBtOvqQPiTq0AqTLfBAf6vQLeY
j0BPFcLBF8GkQOEyHD4FL6TBum5xQDIggMDCSJDBl91jQIpsAsCTVZrBHSCtQP5Smr+2JKbBAQyb
QB33DcCr4Z7BO/28QC4sZkAfJ7DBv2m3QBdClD9OjarBbbzSQADqq0BkzcDBM0msQAAgSkCDzZXB
JQaBQAxnTECrfprB+6CwQNVzJ0DLTqfBv262QCeqW0DUNYrBBK3AQMa07UAjosjB5wtDQG33OsAU
PpPB+EPIQO/2NUD9OZ3B7pWDQOx+NkAIj6TBb483QCBYYUAtFZXBDmzcQFXcyECdq8jB0k7vQGfM
W7+6v7vBK8ezQEG7o8DqB5LBSpzOQPNCJ8DZSbDB+3zSQHZEYcADWZ/BT1fiQNGPxT+I1bfBJ9Py
QO75jkDrtqfBIW6KQFx1O0D0vbrBJdwCQSkZwUC8ZLbBTcudQAWhj0CsbcnBz7SPQBAj3D4/s53B
mM9WQDFSlsDqjorBDXo+QIVKlr+GlZzB2xLZQNb9VEDA44jBFWqsQOePjkBDKIjBAzOlQOqsLUC5
IIXBRRbKQJvNAUHKG8/BJmWfQNdY40B33MnBJFzDQDpJ/kBU5sDBzK5VQGHgMEAklanBhsf+P69s
YEBJ6pjB8fY5QERhcUD/V43BIlHaQMsmFr/rPbXBLlGiQCj4hsCIR5TB+WbHQKzlyb8Dzq7Bsg2z
QFNDVcDh5pvBEKvSQN9QRj/tH7PB8O2kQNf5Z0Df0bnBNinhQOkZjkBdJ6/BRd+vQFqLkED9DMLB
ZwTsQAylqkATZbfB3+yjQEbaGj5HWKTBerJyQHt6fsBl94/BjhVjQKktAsBFRJrBnjasQJSZmr9Z
R6bBpXeaQI2+DcDQ657B7Su9QGLDZUD8QbDB1Nu2QDexkz/6sKrBaybTQKFFrEBjxsDBB0WsQImK
SUDk55XB4u+AQCeOS0CNjprBnHOwQCQ0J0CSbafBUZW2QKBnW0CKVIrBhuC9QB0G7EDyPsnBYG5D
QM0BOsD2AJPBLinIQJtmNUDYWZ3BC3mDQKYPN0ALq6TBTlk3QCA2X0BXE5XB++DcQLzwyUASfMjB
lsLuQFAIX79K07vBD6G0QMx0osBRvJHBjKzNQOO8J8APYrDBhDHSQAFCYMBkY5/BeAXiQDosxD+2
77fBr+mJQPeSPUDhybrBy0b0QA7ljEBI9qfBoFWdQDNJkUAcV8nBdbsDQb9cv0AHibbBWbuOQLMI
3T5H5p3BHwZZQKoilcA6GorBMw09QMf5lr9bkpzB1EHZQBP9VEBEC4nB932sQPlrjkANSojBCoOl
QGtqLUC3NoXBhp/HQMxGAUGVjc/Bc1aeQMqF3kD8NsvBXwa8QN/6/EBOjMHBqn5VQNzYMkAeuKnB
6TP+P15nXkAI5JjBAc85QKc0bkDlTY3B

> <OMEGA_E>
kKUGPtDRCD7oIgw+CMcQPg==

> <OMEGA_NBR>
     33745

$$$$
50220835
  -OEChem-04172616093D

 47 50  0     1  0  0  0  0  0999 V2000
    6.8792   -0.5832  -22.5811 C   0  0  0  0  0  0  0  0  0  0  0  0
    6.2935   -1.5733  -21.7719 C   0  0  0  0  0  0  0  0  0  0  0  0
    6.6210    0.7771  -22.3330 C   0  0  0  0  0  0  0  0  0  0  0  0
    7.0047    4.4816  -21.8770 C   0  0  0  0  0  0  0  0  0  0  0  0
    5.1694    3.5871  -23.2259 C   0  0  0  0  0  0  0  0  0  0  0  0
    7.3349    5.3644  -22.9189 C   0  0  0  0  0  0  0  0  0  0  0  0
    5.5053    4.4671  -24.2679 C   0  0  0  0  0  0  0  0  0  0  0  0
    5.1407    0.1534  -20.4992 C   0  0  0  0  0  0  0  0  0  0  0  0
    5.6089   -3.3439  -19.4291 C   0  0  0  0  0  0  0  0  0  0  0  0
    3.5602   -2.0679  -19.2759 C   0  0  0  0  0  0  0  0  0  0  0  0
    3.8522   -4.0354  -18.0524 C   0  0  0  0  0  0  0  0  0  0  0  0
    5.4220   -1.2061  -20.7235 C   0  0  0  0  0  0  0  0  0  0  0  0
    4.8533   -2.2208  -19.8191 C   0  0  0  0  0  0  0  0  0  0  0  0
    5.9107    3.5914  -22.0195 C   0  0  0  0  0  0  0  0  0  0  0  0
    5.7345    1.1568  -21.2940 C   0  0  0  0  0  0  0  0  0  0  0  0
    6.5817    5.3624  -24.1093 C   0  0  0  0  0  0  0  0  0  0  0  0
    5.3833    3.1979  -18.7262 C   0  0  0  0  0  0  0  0  0  0  0  0
    4.0316    3.2197  -19.3135 C   0  0  0  0  0  0  0  0  0  0  0  0
    5.5212    2.6200  -20.9046 C   0  0  1  0  0  0  0  0  0  0  0  0
    5.7015    3.5243  -17.2884 C   0  0  0  0  0  0  0  0  0  0  0  0
    6.1018    7.4799  -24.9950 C   0  0  0  0  0  0  0  0  0  0  0  0
    5.0994   -4.2304  -18.5488 N   0  0  0  0  0  0  0  0  0  0  0  0
    3.0778   -2.9800  -18.4069 N   0  0  0  0  0  0  0  0  0  0  0  0
    6.2580    2.8629  -19.6467 N   0  0  0  0  0  0  0  0  0  0  0  0
    4.1136    2.8609  -20.5667 N   0  3  0  0  0  0  0  0  0  0  0  0
    2.8671    3.5584  -18.6435 N   0  0  0  0  0  0  0  0  0  0  0  0
    6.8716    6.2656  -25.0979 O   0  0  0  0  0  0  0  0  0  0  0  0
    7.5291   -0.8681  -23.3953 H   0  0  0  0  0  0  0  0  0  0  0  0
    6.5105   -2.6157  -21.9527 H   0  0  0  0  0  0  0  0  0  0  0  0
    7.0996    1.5347  -22.9359 H   0  0  0  0  0  0  0  0  0  0  0  0
    7.5851    4.4812  -20.9662 H   0  0  0  0  0  0  0  0  0  0  0  0
    4.3417    2.9038  -23.3455 H   0  0  0  0  0  0  0  0  0  0  0  0
    8.1663    6.0446  -22.8071 H   0  0  0  0  0  0  0  0  0  0  0  0
    4.9401    4.4575  -25.1881 H   0  0  0  0  0  0  0  0  0  0  0  0
    4.4610    0.4332  -19.7079 H   0  0  0  0  0  0  0  0  0  0  0  0
    6.5979   -3.4957  -19.8356 H   0  0  0  0  0  0  0  0  0  0  0  0
    2.9550   -1.2185  -19.5565 H   0  0  0  0  0  0  0  0  0  0  0  0
    3.4593   -4.7507  -17.3451 H   0  0  0  0  0  0  0  0  0  0  0  0
    6.7858    3.4392  -17.1239 H   0  0  0  0  0  0  0  0  0  0  0  0
    5.3763    4.5511  -17.0650 H   0  0  0  0  0  0  0  0  0  0  0  0
    5.1741    2.8207  -16.6275 H   0  0  0  0  0  0  0  0  0  0  0  0
    6.3792    8.1609  -25.8131 H   0  0  0  0  0  0  0  0  0  0  0  0
    5.0302    7.2414  -25.0640 H   0  0  0  0  0  0  0  0  0  0  0  0
    6.3083    7.9640  -24.0291 H   0  0  0  0  0  0  0  0  0  0  0  0
    3.3413    2.7657  -21.1948 H   0  0  0  0  0  0  0  0  0  0  0  0
    1.9904    3.5398  -19.1240 H   0  0  0  0  0  0  0  0  0  0  0  0
    2.9034    3.8214  -17.6794 H   0  0  0  0  0  0  0  0  0  0  0  0
  1  2  1  0  0  0  0
  1  3  2  0  0  0  0
  2 12  2  0  0  0  0
  3 15  1  0  0  0  0
  4  6  2  0  0  0  0
  4 14  1  0  0  0  0
  5  7  1  0  0  0  0
  5 14  2  0  0  0  0
  6 16  1  0  0  0  0
  7 16  2  0  0  0  0
  8 12  1  0  0  0  0
  8 15  2  0  0  0  0
  9 13  1  0  0  0  0
  9 22  2  0  0  0  0
 10 13  2  0  0  0  0
 10 23  1  0  0  0  0
 11 22  1  0  0  0  0
 11 23  2  0  0  0  0
 12 13  1  0  0  0  0
 14 19  1  0  0  0  0
 15 19  1  0  0  0  0
 16 27  1  0  0  0  0
 17 18  1  0  0  0  0
 17 20  1  0  0  0  0
 17 24  2  0  0  0  0
 18 25  2  0  0  0  0
 18 26  1  0  0  0  0
 19 24  1  0  0  0  0
 19 25  1  0  0  0  0
 21 27  1  0  0  0  0
  1 28  1  0  0  0  0
  2 29  1  0  0  0  0
  3 30  1  0  0  0  0
  4 31  1  0  0  0  0
  5 32  1  0  0  0  0
  6 33  1  0  0  0  0
  7 34  1  0  0  0  0
  8 35  1  0  0  0  0
  9 36  1  0  0  0  0
 10 37  1  0  0  0  0
 11 38  1  0  0  0  0
 20 39  1  0  0  0  0
 20 40  1  0  0  0  0
 20 41  1  0  0  0  0
 21 42  1  0  0  0  0
 21 43  1  0  0  0  0
 21 44  1  0  0  0  0
 25 45  1  0  0  0  0
 26 46  1  0  0  0  0
 26 47  1  0  0  0  0
M  CHG  1  25   1
M  END
> <OMEGA_C>
pCLcQMlKFb8fprTBEGTJQM1iyb/hLK7B/t7TQB3zRj/tqbLBZibgQGRpj0AFBK/BImylQHSTZUCs
zrnBrrfqQD6pq0DUWbfBmiuwQGzyjkCiJMLBmICkQDYSHT5L/qPBWHyzQOUCVsDfbpvBNdpjQDBY
BMAQNZrB+4l2QMIhgcBba5DBQIGtQLdgmr/DyaXBTk6bQFUhDsByjZ7BsCS9QBTaZUDtJ7DBCoG3
QAMSlD8kWqrBsp3SQCeZq0Dg38DB6kOsQAerTEA4z5XBRgOBQK8PTkAMgprBXK2wQBKuJ0C4PKfB
lnK2QOyNYUC0TorBUELDQPha70DT9cfBTC6jQMRfh8DrY5TBsfpEQNS4PsBeQZPBtEHIQHA6N0CK
LJ3BjKKDQFwZN0CAiKTBIH83QAq8Y0DmJZXBcuTbQGl/yECNyMjBle7wQLw7Xr+EKbvBQFbQQABo
J8Azn6/Bpy/jQK1vxD+5fLfBL7nyQBdmj0DAuqfBEO+KQD7YOUCUw7rBP6kCQYFtwUDmdLbBHhWe
QLSjjkA/gcnBtsCOQNLQ3T6+qZ3BUSLTQF25X8BYr57BUR89QO73m7+/c5zBzmRdQK0FmMCyworB
EiXZQGEbXEC2/YjBAAusQLqikUAuhYjBSZKlQF6GNEAbBYXBjSLMQPWSAkFGgc7BefegQOG550AQ
g8jB9d3JQCvZ/kCsO8DBn9hVQEgBMUDyjqnBEsT+P0uLYkAL/pjBpNE5QE+RdEBnb43BPZjZQDMv
G78B87TBaFDHQBlby7/UU67BHLTRQP6xQT+y/LLBAgClQEUcaEAt9LnBRwnhQPImjkChO6/B0fqv
QArSkEDTJ8LBNvbrQILTqkCTcbfBNaGjQD4uGj41AaTBXmBjQJwDBcB74ZnBsC+zQO1yVsD2d5vB
RjN4QKxmgcCCHZDBP0esQIJDm79cy6XBlLKaQK+ODsDqcZ7Bvxq9QNmqZUB8XbDBijW2QHDxkj/0
h6rB/S/TQFiorEAT1cDBYT+sQOWTS0DJ/JXByt+AQAHKTUCIm5rB0xKwQJiHJ0AadqfBOdC2QNoY
XkCycYrBAqm9QIaj60DztcnB5OJFQA+CP8Cg15LB5aGjQNiUh8BuUZTB3vHHQJpPNkBxbJ3BUDWD
QK1qOEAlsqTB4oc3QIdcYkAaHZXBYU7dQOpWykAHh8jBycLtQIEcZr9IkLvBUPjNQPyCKMC8xa/B
hafgQEb/wD+P8bfBRQ+KQF+WPUCY+LrB2RT0QHXpjECoB6jBhoSdQLKgkUDndMnBGbYDQZKAv0Cj
jLbBK4aOQFBH4D6lj53Bmhg8QJWRnb/yBZzB833SQAotYMC/657BW01gQLI5mMAyW4rBWHjZQHYP
V0ANLonB0hatQD7yj0DfeIjByZOlQDbaMEBGQoXBfOfHQEcNAUGb+8/B8MueQPJL3UAw9cvBgCW6
QOnl/EB2F8LBJ9NUQPk7NEDKuanB2E3+P5WWYUAK5pjB+lc6QIr7cUAWXY3BwyXbQKT7E7+al7TB
IDDIQAcuyL9xI67BAYDTQDdgSD9jh7LB/0/gQFMHkEB7DK/BUl+mQLNUZEBg5rnBY87qQDkMrEDi
cLfB4BOxQM0KjkCYSsLBATCkQPAWLj7jzaPBWgNjQAEJBcCPEZrBkFSzQKeqVcD8dZvBM+V2QODw
gcBIe5DBvcisQNW1mL+sqqXBjdmaQHjPDcAKdZ7B/669QNktZkD/L7DBaWC3QHLglT+aL6rBvAfT
QOBAq0DAA8HBxxesQIRATUC5vJXBR+eAQCgdTkBNeJrBEeOwQOYbKUACLqfBTtS1QPOyX0DGJYrB
HRnCQDVK7kAYR8jB2L5EQCJtQMAGM5PBv1yjQBeqh8D+fZTB+VDIQIwhOUB8G53BMeKDQFL1OUD1
lKTBn7E2QA3BYEA0D5XBVe/bQF0ryEAK8cjBjaXvQIzUXb98J7vBg5jOQF/oJsCvqa/B6CDjQN61
xD/hUrfBW6XyQFSLkEDNuafBdziMQOrLN0Ba27rBwYwCQUwxwkA3jbbBf1afQEUYjUDYs8nBC7KO
QIMk6D7kbZ3BANk7QNhsnb8INZzB9PfSQJeXXsD8wJ7BbjVeQHY2mcCL44rBIXbYQLC/WUCQwojB
F3SrQHOMkEA7LYjBNqqkQIW2MUDUDIXBQrTKQDsVAkHe087BRxagQL2d5UAQ8cjB7MbHQA0u/kAG
jsDBht1WQJyONkCmuanBUG/9P/dkX0AY75jBGHU4QEGRb0CeR43BtoTbQEHuFb8cp7TB0cvIQFZ9
yb++Kq7BvFPTQP5bRj/0q7LBH3GlQLUPZkAc5LnB8zvgQGhXj0CeE6/B+UWwQClQj0BhM8LBwuzq
QOOnq0BdY7fBwBKkQGgnHz669aPB6m+zQOowVsBXcpvBxGVjQN80BcCtIprByjN3QB6JgcBXW5DB
rwutQNtfmr9awaXBkAqbQI1uDsCrhJ7BCh+9QOH9ZUAiO7DBdAe3QENDlD8oW6rBy9XSQPHaq0B7
6MDB+DisQNSjTEAf15XBfuyAQIt2TkDYgprBV2qwQF0UKEAHSqfBdoe2QDx8X0DUSYrBSRfBQKDt
7UBIqcjBinKjQEKRh8CoYpTB2hhFQHPdP8C4LJPBLRvIQGdwN0A9PZ3Bp3SDQNpjOEBykqTByGE3
QMgvY0B9E5XBR3rcQK/NyEBzycjBFEDwQEY5X7/SLLvB1KfPQFV7J8BMn6/BqKniQKvwwz+9gbfB
Ce6KQHBtOkBJ4LrBoc/yQN0rj0CFyqfB+yqeQFIwj0Bij8nBOtECQetHwUCiebbBfWyOQKmO3z6v
nJ3B3APTQHahX8DdwJ7BOkE8QLUnnr8MW5zBLpxeQHBzmMCaqorByCzZQGfBWEDl+ojBU6KsQPGe
kEB3WYjB0EilQEI1MkABHIXBRHXKQFXlAUHxJc/BpKmfQCfo40Cwz8nBFD/EQMpp/kAU7cDBiHZV
QD1oM0DRnKnBj0D+Pwb2YUA945jBSOY5QBNec0CqV43B

> <OMEGA_E>
AKo0PYBsPj3ArUg9wCozPQ==

> <OMEGA_NBR>
     37292

$$$$
50220801
  -OEChem-04172616093D

 59 62  0     1  0  0  0  0  0999 V2000
    6.0261   -5.1601  -17.9484 C   0  0  0  0  0  0  0  0  0  0  0  0
    6.7803   -5.9656  -17.4464 C   0  0  0  0  0  0  0  0  0  0  0  0
    6.9044   -0.5407  -22.6207 C   0  0  0  0  0  0  0  0  0  0  0  0
    6.3216   -1.5573  -21.8435 C   0  0  0  0  0  0  0  0  0  0  0  0
    6.6017    0.8071  -22.3564 C   0  0  0  0  0  0  0  0  0  0  0  0
    5.6763   -3.3031  -19.4847 C   0  0  0  0  0  0  0  0  0  0  0  0
    5.0965    0.1188  -20.5715 C   0  0  0  0  0  0  0  0  0  0  0  0
    5.1190    3.5587  -23.2074 C   0  0  0  0  0  0  0  0  0  0  0  0
    6.9045    4.4497  -21.8007 C   0  0  0  0  0  0  0  0  0  0  0  0
    3.8656   -3.9841  -18.0141 C   0  0  0  0  0  0  0  0  0  0  0  0
    3.5689   -2.0979  -19.3664 C   0  0  0  0  0  0  0  0  0  0  0  0
    5.1735   -4.1698  -18.5089 C   0  0  0  0  0  0  0  0  0  0  0  0
    5.4163   -1.2230  -20.8120 C   0  0  0  0  0  0  0  0  0  0  0  0
    4.8686   -2.2399  -19.9114 C   0  0  0  0  0  0  0  0  0  0  0  0
    5.6740    1.1431  -21.3360 C   0  0  0  0  0  0  0  0  0  0  0  0
    5.8148    3.5702  -21.9811 C   0  0  0  0  0  0  0  0  0  0  0  0
    5.5100    4.4096  -24.2534 C   0  0  0  0  0  0  0  0  0  0  0  0
    7.2911    5.3180  -22.8319 C   0  0  0  0  0  0  0  0  0  0  0  0
    6.5766    5.3206  -24.0529 C   0  0  0  0  0  0  0  0  0  0  0  0
    3.9541    3.1622  -19.2960 C   0  0  0  0  0  0  0  0  0  0  0  0
    5.3160    3.1690  -18.7287 C   0  0  0  0  0  0  0  0  0  0  0  0
    5.4208    2.5791  -20.9025 C   0  0  1  0  0  0  0  0  0  0  0  0
    7.6979   -6.9121  -16.8259 C   0  0  0  0  0  0  0  0  0  0  0  0
    4.7303    4.3826  -25.5545 C   0  0  0  0  0  0  0  0  0  0  0  0
    8.4393    6.2810  -22.5949 C   0  0  0  0  0  0  0  0  0  0  0  0
    2.7058    3.5275  -18.5370 C   0  0  0  0  0  0  0  0  0  0  0  0
    6.1618    7.4386  -25.0002 C   0  0  0  0  0  0  0  0  0  0  0  0
    3.0879   -2.9656  -18.4483 N   0  0  0  0  0  0  0  0  0  0  0  0
    4.0019    2.8037  -20.5588 N   0  0  0  0  0  0  0  0  0  0  0  0
    6.1537    2.7856  -19.6514 N   0  3  0  0  0  0  0  0  0  0  0  0
    5.6593    3.5224  -17.4335 N   0  0  0  0  0  0  0  0  0  0  0  0
    6.9212    6.2124  -25.0415 O   0  0  0  0  0  0  0  0  0  0  0  0
    7.5843   -0.7948  -23.4204 H   0  0  0  0  0  0  0  0  0  0  0  0
    6.5658   -2.5918  -22.0348 H   0  0  0  0  0  0  0  0  0  0  0  0
    7.0764    1.5885  -22.9313 H   0  0  0  0  0  0  0  0  0  0  0  0
    6.6627   -3.4495  -19.8993 H   0  0  0  0  0  0  0  0  0  0  0  0
    4.3967    0.3681  -19.7876 H   0  0  0  0  0  0  0  0  0  0  0  0
    4.2805    2.8916  -23.3428 H   0  0  0  0  0  0  0  0  0  0  0  0
    7.4427    4.4538  -20.8644 H   0  0  0  0  0  0  0  0  0  0  0  0
    3.4775   -4.6683  -17.2741 H   0  0  0  0  0  0  0  0  0  0  0  0
    2.9474   -1.2769  -19.6921 H   0  0  0  0  0  0  0  0  0  0  0  0
    7.5486   -7.9097  -17.2647 H   0  0  0  0  0  0  0  0  0  0  0  0
    8.7339   -6.5863  -17.0003 H   0  0  0  0  0  0  0  0  0  0  0  0
    7.5041   -6.9549  -15.7439 H   0  0  0  0  0  0  0  0  0  0  0  0
    3.8930    5.0936  -25.4956 H   0  0  0  0  0  0  0  0  0  0  0  0
    5.3935    4.6654  -26.3853 H   0  0  0  0  0  0  0  0  0  0  0  0
    4.3390    3.3690  -25.7264 H   0  0  0  0  0  0  0  0  0  0  0  0
    9.3836    5.8101  -22.9060 H   0  0  0  0  0  0  0  0  0  0  0  0
    8.2761    7.1973  -23.1812 H   0  0  0  0  0  0  0  0  0  0  0  0
    8.4907    6.5341  -21.5257 H   0  0  0  0  0  0  0  0  0  0  0  0
    1.8343    3.4482  -19.2035 H   0  0  0  0  0  0  0  0  0  0  0  0
    2.5801    2.8415  -17.6863 H   0  0  0  0  0  0  0  0  0  0  0  0
    2.7910    4.5596  -18.1662 H   0  0  0  0  0  0  0  0  0  0  0  0
    6.4891    8.1008  -25.8153 H   0  0  0  0  0  0  0  0  0  0  0  0
    5.0921    7.2115  -25.1196 H   0  0  0  0  0  0  0  0  0  0  0  0
    6.3249    7.9384  -24.0340 H   0  0  0  0  0  0  0  0  0  0  0  0
    7.1369    2.6540  -19.5253 H   0  0  0  0  0  0  0  0  0  0  0  0
    6.6162    3.4943  -17.1444 H   0  0  0  0  0  0  0  0  0  0  0  0
    4.9501    3.8056  -16.7878 H   0  0  0  0  0  0  0  0  0  0  0  0
  1  2  3  0  0  0  0
  1 12  1  0  0  0  0
  2 23  1  0  0  0  0
  3  4  2  0  0  0  0
  3  5  1  0  0  0  0
  4 13  1  0  0  0  0
  5 15  2  0  0  0  0
  6 12  1  0  0  0  0
  6 14  2  0  0  0  0
  7 13  2  0  0  0  0
  7 15  1  0  0  0  0
  8 16  1  0  0  0  0
  8 17  2  0  0  0  0
  9 16  2  0  0  0  0
  9 18  1  0  0  0  0
 10 12  2  0  0  0  0
 10 28  1  0  0  0  0
 11 14  1  0  0  0  0
 11 28  2  0  0  0  0
 13 14  1  0  0  0  0
 15 22  1  0  0  0  0
 16 22  1  0  0  0  0
 17 19  1  0  0  0  0
 17 24  1  0  0  0  0
 18 19  2  0  0  0  0
 18 25  1  0  0  0  0
 19 32  1  0  0  0  0
 20 21  1  0  0  0  0
 20 26  1  0  0  0  0
 20 29  2  0  0  0  0
 21 30  2  0  0  0  0
 21 31  1  0  0  0  0
 22 29  1  0  0  0  0
 22 30  1  0  0  0  0
 27 32  1  0  0  0  0
  3 33  1  0  0  0  0
  4 34  1  0  0  0  0
  5 35  1  0  0  0  0
  6 36  1  0  0  0  0
  7 37  1  0  0  0  0
  8 38  1  0  0  0  0
  9 39  1  0  0  0  0
 10 40  1  0  0  0  0
 11 41  1  0  0  0  0
 23 42  1  0  0  0  0
 23 43  1  0  0  0  0
 23 44  1  0  0  0  0
 24 45  1  0  0  0  0
 24 46  1  0  0  0  0
 24 47  1  0  0  0  0
 25 48  1  0  0  0  0
 25 49  1  0  0  0  0
 25 50  1  0  0  0  0
 26 51  1  0  0  0  0
 26 52  1  0  0  0  0
 26 53  1  0  0  0  0
 27 54  1  0  0  0  0
 27 55  1  0  0  0  0
 27 56  1  0  0  0  0
 30 57  1  0  0  0  0
 31 58  1  0  0  0  0
 31 59  1  0  0  0  0
M  CHG  1  30   1
M  END
> <OMEGA_C>
z9XAQG0fpcBClo/BEvjYQE7mvsBKkovBjvDcQB5sCr8a97TB0ErKQDJWx79uv67B/UDTQJifTj/S
2bLB5KO1QIJmU8Cr4JvB7hajQKlh8z1XkqTBtc6jQK3BY0DIqLnByvHcQA5kjkDMZ67BsGZ3QGf7
fsDTHJDBSmhkQANEBsBX7prBYY2lQP9uhcAyEpTBj1KtQNyMnL8Cf6bB6MubQAFaD8CjSp/BJZG1
QLpQkj8UsKrBCBO6QDl+ZEA32a/BJlKwQFQbjUADB8LB+VDpQLUsqkClp7bBNXPSQCxCqkBebMDB
ag99QDViSkAiXprB3RyqQKvQSkB51JXBe3etQAkQJUBVOKfBFlX2QEEw3cBqm4bBQF6XQJA+jECw
b8zBcgcHQZX9yEBzwrTBiCstQNbBYUCzS5TBLy3FQCcJ7kBvAMjBZqBFQNfLPcAGlpPBSA+AQDJv
M0B0eKTB/OrEQBNIMkAcNp3B1Bi1QGBvYUC/d4vBanrdQNLLxkDrVMjBL7LyQDV4S7/7XLvB1BrS
QEzgJcBLR7DBl3HiQLRTyz9Ec7fBvTTVQDPFXMDVMZ/BrbGMQP96vD76TJ7B7/mIQNIPOUAUvrrB
ySruQMeFjkAx6qbBno5eQBNjlcBtMYrBS6I8QOpwo79+iZ3Bb47xQIgc/cANHorBPb4LQd7C0sCE
AIjByCHwQGaO3sAj53vBiSZ5QOv+okAG98vBi5esQFxLlUAKFdPBJNmKQG2eV0DFz83BDyMWQb/s
uUB6P7fB02oEQRxQ5kAdc7nBFtoHQfsW0UCgNKzB08vqPxKwXEDZoJnB2SAlQF7aNUCPfY3BHaAy
QPnnkUBWVJHBT6bPQOucAUHBhc7Bj/KiQIjE5kDl9MjBamXKQL0H/kChRcDBwGHkQKrbKUDbM5zB
wrfTQBKiX0DHJ4nBAGeeQDyPc0CETYbBVQy9QLllq8DXX5HBkaTSQIQEysBv3Y7B4DDdQLqgDL8G
vrTBLoDKQPdWx784dK7BkrXTQA4ITT8Os7LBzQe1QH0NVcDY8ZvBK+GjQCqUBj5hR6TBE8LdQO9e
jkBFiK7BzI+kQIpqY0DpvLnBLTB1QHcfgcBXcZDBHgtlQNo6BcA5kZrBcx+kQHaLh8AmkJTBPtat
QDNTm7/8J6bBFQKcQPC1DsDp+57Be0W2QHrokj98g6rB3Ne6QNtzZEDE7q/Be+jpQE9JqkCtx7bB
2+GwQIz7jEDVHMLB0s/SQCdfqkAzhsDBi5l8QOxlSkC4hZrB+6apQMarS0CL3ZXBa/2tQIK4JUA7
PKfBe47sQIb97sAG9ovBfhQHQYilyUAO0LTBoq+XQGEsjEDAe8zBf/MrQOPvX0AcgJTBdNHEQMPJ
7kCNnMfB8iVFQFBoPsB/fZPBFGeAQH6xM0B7oKTB7fXEQH5RNEAKMZ3B+OezQNm5YUDMcIvBlOrc
QLqAx0CkX8jBJ9XyQD7dT793JLvBEgvSQMEIJsCZ9q/BwN3iQDC/yT8TX7fBYanUQP8zXsB3O5/B
QMyNQMGTxz5H9p3BCzLvQPtmjkCdEqfBtNqJQDNmOEAk0LrB429bQEGzl8B9v4rBe14+QH0rnr8N
6JzBHO31QA6b7MDef4PBR+TZQLY1BsFUM43B7bUEQVDf78Ak/pDBT1EWQQkeu0CCTbfBR0MEQcL+
5kBydrnBOssHQcmQ0UDoPqzBbKN5QN/QokCa88vBH7esQPhllUAjJ9PBhkGLQOtrV0Bw3s3BbRXp
PzHFWUC335nBkYwkQEK+M0CTto3BDdovQO4EkUAWg5HBd3TOQJBDAkGLGc7B/XKiQC2250CMTsjB
3izLQDER/kA+2L/BTH3kQCN8LUCNH5zBVWbSQDBzYEAtBYnBR9CcQL7rckAqVobB

> <OMEGA_E>
BHczP3a7Mz8=

> <OMEGA_NBR>
     39539

$$$$
50220826
  -OEChem-04172616093D

 44 47  0     1  0  0  0  0  0999 V2000
    6.7491   -0.6273  -22.5879 C   0  0  0  0  0  0  0  0  0  0  0  0
    3.0734   -3.0087  -18.2555 C   0  0  0  0  0  0  0  0  0  0  0  0
    6.1803   -1.5881  -21.7349 C   0  0  0  0  0  0  0  0  0  0  0  0
    3.5476   -2.0254  -19.1380 C   0  0  0  0  0  0  0  0  0  0  0  0
    6.5302    0.7430  -22.3600 C   0  0  0  0  0  0  0  0  0  0  0  0
    7.0080    4.5200  -21.9641 C   0  0  0  0  0  0  0  0  0  0  0  0
    5.1496    3.6403  -23.2826 C   0  0  0  0  0  0  0  0  0  0  0  0
    7.2437    5.4950  -22.9550 C   0  0  0  0  0  0  0  0  0  0  0  0
    5.3889    4.6148  -24.2723 C   0  0  0  0  0  0  0  0  0  0  0  0
    5.1235    0.1885  -20.4459 C   0  0  0  0  0  0  0  0  0  0  0  0
    3.8849   -4.1240  -17.9625 C   0  0  0  0  0  0  0  0  0  0  0  0
    5.5745   -3.3454  -19.3889 C   0  0  0  0  0  0  0  0  0  0  0  0
    5.3704   -1.1854  -20.6518 C   0  0  0  0  0  0  0  0  0  0  0  0
    4.8213   -2.1928  -19.7194 C   0  0  0  0  0  0  0  0  0  0  0  0
    5.9254    3.6118  -22.0960 C   0  0  0  0  0  0  0  0  0  0  0  0
    5.6993    1.1668  -21.2953 C   0  0  0  0  0  0  0  0  0  0  0  0
    6.4072    5.5709  -24.0869 C   0  0  0  0  0  0  0  0  0  0  0  0
    5.4012    3.1819  -18.7558 C   0  0  0  0  0  0  0  0  0  0  0  0
    4.0459    3.2064  -19.3315 C   0  0  0  0  0  0  0  0  0  0  0  0
    5.5281    2.6540  -20.9528 C   0  0  1  0  0  0  0  0  0  0  0  0
    5.7165    3.4386  -17.3018 C   0  0  0  0  0  0  0  0  0  0  0  0
    5.1075   -4.2763  -18.5246 N   0  0  0  0  0  0  0  0  0  0  0  0
    6.2746    2.9046  -19.6987 N   0  0  0  0  0  0  0  0  0  0  0  0
    4.1270    2.9358  -20.6077 N   0  3  0  0  0  0  0  0  0  0  0  0
    2.8811    3.4773  -18.6305 N   0  0  0  0  0  0  0  0  0  0  0  0
    6.5523    6.5864  -24.9702 F   0  0  0  0  0  0  0  0  0  0  0  0
    7.3576   -0.9428  -23.4226 H   0  0  0  0  0  0  0  0  0  0  0  0
    2.0965   -2.9118  -17.8053 H   0  0  0  0  0  0  0  0  0  0  0  0
    6.3635   -2.6381  -21.9089 H   0  0  0  0  0  0  0  0  0  0  0  0
    2.9481   -1.1569  -19.3673 H   0  0  0  0  0  0  0  0  0  0  0  0
    6.9984    1.4757  -23.0006 H   0  0  0  0  0  0  0  0  0  0  0  0
    7.6542    4.4641  -21.1006 H   0  0  0  0  0  0  0  0  0  0  0  0
    4.3685    2.9089  -23.4293 H   0  0  0  0  0  0  0  0  0  0  0  0
    8.0672    6.1852  -22.8465 H   0  0  0  0  0  0  0  0  0  0  0  0
    4.7921    4.6287  -25.1723 H   0  0  0  0  0  0  0  0  0  0  0  0
    4.4873    0.4991  -19.6303 H   0  0  0  0  0  0  0  0  0  0  0  0
    3.5232   -4.8736  -17.2743 H   0  0  0  0  0  0  0  0  0  0  0  0
    6.5467   -3.4852  -19.8380 H   0  0  0  0  0  0  0  0  0  0  0  0
    6.8019    3.3589  -17.1418 H   0  0  0  0  0  0  0  0  0  0  0  0
    5.3786    4.4485  -17.0263 H   0  0  0  0  0  0  0  0  0  0  0  0
    5.1985    2.6956  -16.6777 H   0  0  0  0  0  0  0  0  0  0  0  0
    3.3586    2.9226  -21.2474 H   0  0  0  0  0  0  0  0  0  0  0  0
    2.0006    3.4762  -19.1044 H   0  0  0  0  0  0  0  0  0  0  0  0
    2.9214    3.6738  -17.6508 H   0  0  0  0  0  0  0  0  0  0  0  0
  1  3  1  0  0  0  0
  1  5  2  0  0  0  0
  2  4  2  0  0  0  0
  2 11  1  0  0  0  0
  3 13  2  0  0  0  0
  4 14  1  0  0  0  0
  5 16  1  0  0  0  0
  6  8  2  0  0  0  0
  6 15  1  0  0  0  0
  7  9  1  0  0  0  0
  7 15  2  0  0  0  0
  8 17  1  0  0  0  0
  9 17  2  0  0  0  0
 10 13  1  0  0  0  0
 10 16  2  0  0  0  0
 11 22  2  0  0  0  0
 12 14  2  0  0  0  0
 12 22  1  0  0  0  0
 13 14  1  0  0  0  0
 15 20  1  0  0  0  0
 16 20  1  0  0  0  0
 17 26  1  0  0  0  0
 18 19  1  0  0  0  0
 18 21  1  0  0  0  0
 18 23  2  0  0  0  0
 19 24  2  0  0  0  0
 19 25  1  0  0  0  0
 20 23  1  0  0  0  0
 20 24  1  0  0  0  0
  1 27  1  0  0  0  0
  2 28  1  0  0  0  0
  3 29  1  0  0  0  0
  4 30  1  0  0  0  0
  5 31  1  0  0  0  0
  6 32  1  0  0  0  0
  7 33  1  0  0  0  0
  8 34  1  0  0  0  0
  9 35  1  0  0  0  0
 10 36  1  0  0  0  0
 11 37  1  0  0  0  0
 12 38  1  0  0  0  0
 21 39  1  0  0  0  0
 21 40  1  0  0  0  0
 21 41  1  0  0  0  0
 24 42  1  0  0  0  0
 25 43  1  0  0  0  0
 25 44  1  0  0  0  0
M  CHG  1  24   1
M  END
> <OMEGA_C>
//jXQK6YIL/ys7TBZ7JEQO2NQMBEC5LB3sTFQLZFy78t4a3BfQxjQKqgAcCGGpnBUffQQNg3Pj9G
4bLBKUHgQBWkkEBntq/BO8mkQMr6aEDYQrrBJsznQNXWr0Dxo7fB83GsQImsk0CWLcLBVvOjQC8I
QT5FkaPBcaF4QHz3g8A8s4/BJ2KyQGUaVsBgHJvB69mrQBe8l7/nNqXBeEiaQIpXDMBZwZ3BO529
QHUoZ0CuxLDBS2C2QAZblT/VXKrBfAfNQDVFskAOssDB+9asQHWjS0DaC5bBCXiBQP40TUDgpprB
g+awQKDaKUBZn6fB6O22QGQSXEAaaorB7HCjQNvXiMBXMpTBR8nIQLPkOUACl53BxxCEQEfkO0CD
3KTBFmQ4QNuLXkAqC5XBKKzRQB3E0kD3wsfBFHHrQGhZcb9tYbvBiSwGQLpbOsBRcY7BnaHLQMHW
KMBfRa/Bbq48QC0UlL8/8JrB2vLfQE/lvD8mAbjBUe/0QEfajkD2zajBCcuLQC4sOkArb7vBOxMB
QUvtxUC4xbbB5FiZQGoelEDRYMnBv5ePQCaF/z7jCp3BhHthQK70m8DXMYrBQH7RQOsMX8A0tJ7B
WanZQIH4VkB0IonBnx2sQEFajkDPNYjBJlqmQNeELEDWa4XBsfJWQCAMO0Cu+qnBPgkAQKt6XkDX
1ZjB9Pc6QDAfa0DJNI3BuGXXQJMTIr+Cv7TBVaNEQJ0ZQcD4CZLBzYDFQOOqy7/T2a3BlihjQBjb
AcBUC5nBxHLQQNH0PD9G8rLBVuikQNyTaUAPRbrBG1vgQMu/kEBDr6/B1mesQO9MlEBkHsLB7c3n
QMoysECijrfB2yKkQBf0QT6gfaPBK5R4QF9BhMC+tY/BC4GyQA4kVsCZCZvBZOurQOrAl7+LIqXB
Q2aaQONZDMDIqp3BaMG9QGBQZ0Cpx7DBs0i2QHw3lT8/XKrBYO3MQAntskD/lcDBtNisQGpDS0Cl
DpbBfX+BQBxYTUBorZrB+e2wQIjrKUAFpafBINy2QBcQWkDpYorBdn+jQGL/iMBDK5TBLs7IQKC1
OUDHmp3BkBqEQJo4PEBd5KTB4WM4QN1LXkDVD5XBDFbRQIHJ00CXjsfBWpbqQAqDc7/Pd7vBmfsF
QLYeO8DKd47Bw1nLQGYQKcCqOa/BkdI8QAFolL/T25rBRSffQA75uz84JLjB+AaMQCydOkBhfrvB
yBT1QFrKjkC5yajBtTqZQCX4lEABTsnBJhYBQZtAxkB0qrbBZBeQQNShAD/B6ZzBtkthQHtdnMAa
P4rBo6zRQITjXsD5mp7BiYnZQPnuU0CTFYnBdmusQCBZjUCHEojBeOilQNFYKkBEf4XBqxFXQBGo
O0BmBKrBDQcAQMIRXkAF2pjBfe86QHnAakClOI3BfazbQM8tGb9TrLTBLY6gQCvGh8CqPJTBqjrI
QKxzyb/5MK7B1TCyQNNeVcBQjpvB0PnTQDq8RD/hz7LBE1qlQHDDaEBIUrrBXinfQE5SkkCBgK/B
i2isQAIDlEAQKcLBrx/mQJjusUAtW7fBhSikQCKVOD5eIqTB0JtuQHwqgMB9F5DBBeFhQPB/AcC4
AZrBno6sQJcUmL/Xz6XBvjSaQFSnDMCtfJ7BqrK9QDgVaEB0wLDBFZS3QMkOlj81mqrBeuPLQGue
s0CShMDBjRWtQGQpSEDnDJbBkbCBQKHPSEBnp5rBnXGxQNizKUC4tKfBBvu2QOHtVUApW4rBloNA
QGm6OsCCBJPBeDXJQC8bOUDHpJ3BlHuEQPpxOkCW7qTB51c4QNAbVkC8+ZTBG/zPQH1S1EAii8fB
X53wQP9JZr80HLvB32ayQIK4o8BBzZHBEXrOQDW7J8A9oK/Bb57RQJwaYMDa457BuMzjQOSYwT/g
qrfB+TONQDZpOEA3nbvBEWPzQAglkUCSgKjBG7KZQBkHlECgbMnBE5//QJXpyEDbWbbBsZOOQO1e
9D5x0Z3BSYdTQLSWlsCadIrB5ac8QFoFlL/QN5zBibzZQMV4UUAyFInBFLSrQIbVikBu54fBFLSm
QGivJECtj4XBp/pXQO3IOkCDFKrBhfn/Pw0qVUDfw5jBvJE6QFClYEDwFo3BjwTbQO4wG7+UvbTB
a9SgQLbKh8A9OZTBaoDHQJYayr8oQK7BF0myQGYjVcBgiJvBm6nTQAX3Qj8U2LLB7rHfQL3nkUAU
hK/BWDulQAeZaUCcQbrBRUfmQMMGskDRQrfBO+GrQM71lEDV+sHBGAykQMrjNz4HG6TBKBZvQJpt
gMAGE5DBkLBhQCLjAcBr85nBDTKsQCZEmL+Lz6XBxRaaQDasDMBBc57BzvG9QB/gZ0CGv7DB9H+3
QHShlT/NmKrBYGPLQP1+tEDGSsDB7xatQKkZSEAPDpbBNbuBQBACSUCgr5rBKpOxQJ6EKUBttafB
nfa2QKO/VUDTWorBhqZAQLBnO8Cm+ZLBSkLJQKjgOEAiop3B452EQGWEOkBK9aTBjEQ4QPWcVkBj
DZXBD9HOQF/r1UAVIMfBKsDvQCP/aL8fNrvBbtWyQNWmo8B4zJHBQGrNQFEfKMDJua/BlL3RQDl5
X8Dk3p7BYpLjQMB1wD+Ms7fBR2z0QIwZkED/najBtR+NQDg8OUATl7vB7fr/QDfKyEDARbbBFNaY
QEFwlUBUMMnBX6iOQGZf9T64wZ3BUjhUQBz7lsBbdIrBqz08QDH1lL9YIpzBnbTZQLkIUUCYEYnB
kMqrQHTHikDB5ofBs5OmQCeaJEBKkYXBYFdYQH7sOkDGHqrBrwsAQKzOVUCT35jBnD46QMs7YUDG
Ko3B2P+ZQOvsb7/XyrHBMucbQQ2XXsDCJKXBVnLBQIPQyL8T3K/BXdMHQfRPOcCUBafBuACUQH8I
0D4x3a7Bj4bMQNp3P0DBS7rBzY66QCyRnUBDM6/Bk/3XQFugdkCatcLBeAnGQB0JuUABprfBkVfd
QONu/j6FKqjBwl0uQVnRKsCGbqXBm+8ZQUH9Qr9GRanBfYrjQAiaWr8fFavBfawGQbRjwb/2IKnB
IpG9QJ40YUBParDBZV61QDczkD8wzqnB4q/UQE7pp0C3Z8HBJGKsQGTTU0A/6JXBHaaAQI7DT0Bb
TZrBEcWvQAgjJ0DXHqfBAIW3QAqqbkDco4rBgC8tQe+bq7+Od6fB0wLIQIVNPUAiUJ3BhemCQHUm
OUBlWqTBrdc2QFOCYkB+vJTBCYffQElIwkA9isnBlkOAQC0rvr/EiLXBlTIdQeQekcCRfqPBqcDF
QJi/JsBqCLLBHPbyQMzTX8CN26bB0KFrQIlVZD9VerDB9xjPQAMb9j9XWLvBSV6vQPDfqkC3u6fB
L1rjQH16XECYL8rB6JvDQAFH20AAprbBEmT3QPXwhj9apqTBtM89QbSbR8AO/6PB6jsZQQ0WmT4J
3KrBlHDaQLR9bEAOkYnBZAWsQOQdmEDfOYnBLzOoQD3TQkD/6oTBuidUQNPINEBaXqnBbF38Pw48
X0AGb5jBftA5QOFMc0CGBo3B

> <OMEGA_E>
sFx+Pojwfz6cmYc+HLyHPmaQeD8=

> <OMEGA_NBR>
     43711

$$$$
50220827
  -OEChem-04172616093D

 37 39  0     1  0  0  0  0  0999 V2000
    6.9074   -0.5898  -22.6632 C   0  0  0  0  0  0  0  0  0  0  0  0
    5.0890   -4.2530  -18.6124 C   0  0  0  0  0  0  0  0  0  0  0  0
    6.3577   -1.5499  -21.7998 C   0  0  0  0  0  0  0  0  0  0  0  0
    5.6631   -3.3235  -19.4921 C   0  0  0  0  0  0  0  0  0  0  0  0
    6.6244    0.7729  -22.4739 C   0  0  0  0  0  0  0  0  0  0  0  0
    5.2217    0.2200  -20.5573 C   0  0  0  0  0  0  0  0  0  0  0  0
    3.7925   -4.0193  -18.1115 C   0  0  0  0  0  0  0  0  0  0  0  0
    3.6306   -2.0030  -19.2993 C   0  0  0  0  0  0  0  0  0  0  0  0
    5.5121   -1.1525  -20.7407 C   0  0  0  0  0  0  0  0  0  0  0  0
    4.9298   -2.1694  -19.8378 C   0  0  0  0  0  0  0  0  0  0  0  0
    5.7796    1.1980  -21.4201 C   0  0  0  0  0  0  0  0  0  0  0  0
    5.2922    3.8898  -23.2472 C   0  0  0  0  0  0  0  0  0  0  0  0
    6.4971    4.2877  -22.4882 C   0  0  0  0  0  0  0  0  0  0  0  0
    5.3865    2.6838  -21.3363 C   0  0  2  0  0  0  0  0  0  0  0  0
    4.9069    4.4272  -24.6085 C   0  0  0  0  0  0  0  0  0  0  0  0
    4.5796    3.0435  -20.0605 C   0  0  0  0  0  0  0  0  0  0  0  0
    3.0867   -2.9174  -18.4615 N   0  0  0  0  0  0  0  0  0  0  0  0
    4.6084    3.0073  -22.5506 N   0  0  0  0  0  0  0  0  0  0  0  0
    6.5747    3.5471  -21.4107 N   0  3  0  0  0  0  0  0  0  0  0  0
    7.3894    5.2883  -22.8533 N   0  0  0  0  0  0  0  0  0  0  0  0
    7.5492   -0.8993  -23.4748 H   0  0  0  0  0  0  0  0  0  0  0  0
    5.6348   -5.1385  -18.3218 H   0  0  0  0  0  0  0  0  0  0  0  0
    6.5820   -2.5962  -21.9457 H   0  0  0  0  0  0  0  0  0  0  0  0
    6.6502   -3.4888  -19.8979 H   0  0  0  0  0  0  0  0  0  0  0  0
    7.0562    1.5051  -23.1400 H   0  0  0  0  0  0  0  0  0  0  0  0
    4.5692    0.5259  -19.7528 H   0  0  0  0  0  0  0  0  0  0  0  0
    3.3518   -4.7349  -17.4333 H   0  0  0  0  0  0  0  0  0  0  0  0
    3.0595   -1.1252  -19.5633 H   0  0  0  0  0  0  0  0  0  0  0  0
    3.9618    3.9660  -24.9314 H   0  0  0  0  0  0  0  0  0  0  0  0
    4.7808    5.5184  -24.5496 H   0  0  0  0  0  0  0  0  0  0  0  0
    5.6981    4.1882  -25.3343 H   0  0  0  0  0  0  0  0  0  0  0  0
    4.3357    4.1161  -20.0705 H   0  0  0  0  0  0  0  0  0  0  0  0
    3.6496    2.4564  -20.0374 H   0  0  0  0  0  0  0  0  0  0  0  0
    5.1812    2.8126  -19.1691 H   0  0  0  0  0  0  0  0  0  0  0  0
    7.3215    3.5657  -20.7459 H   0  0  0  0  0  0  0  0  0  0  0  0
    8.1752    5.4945  -22.2703 H   0  0  0  0  0  0  0  0  0  0  0  0
    7.2458    5.8021  -23.6991 H   0  0  0  0  0  0  0  0  0  0  0  0
  1  3  1  0  0  0  0
  1  5  2  0  0  0  0
  2  4  2  0  0  0  0
  2  7  1  0  0  0  0
  3  9  2  0  0  0  0
  4 10  1  0  0  0  0
  5 11  1  0  0  0  0
  6  9  1  0  0  0  0
  6 11  2  0  0  0  0
  7 17  2  0  0  0  0
  8 10  2  0  0  0  0
  8 17  1  0  0  0  0
  9 10  1  0  0  0  0
 11 14  1  0  0  0  0
 12 13  1  0  0  0  0
 12 15  1  0  0  0  0
 12 18  2  0  0  0  0
 13 19  2  0  0  0  0
 13 20  1  0  0  0  0
 14 16  1  0  0  0  0
 14 18  1  0  0  0  0
 14 19  1  0  0  0  0
  1 21  1  0  0  0  0
  2 22  1  0  0  0  0
  3 23  1  0  0  0  0
  4 24  1  0  0  0  0
  5 25  1  0  0  0  0
  6 26  1  0  0  0  0
  7 27  1  0  0  0  0
  8 28  1  0  0  0  0
 15 29  1  0  0  0  0
 15 30  1  0  0  0  0
 15 31  1  0  0  0  0
 16 32  1  0  0  0  0
 16 33  1  0  0  0  0
 16 34  1  0  0  0  0
 19 35  1  0  0  0  0
 20 36  1  0  0  0  0
 20 37  1  0  0  0  0
M  CHG  1  19   1
M  END
> <OMEGA_C>
MwndQGv/Fr9ATrXBR9miQE4YiMAm5pTB+3HLQI5ixr8GZq7B5je1QIm0VMC775vBzfrTQMraRT+J
yrPBMxinQOZEYT5IdaTBD7lyQMqdgMBy5JDBGFtoQG4xAMDvZJrB/mKwQPSEk78F7aXB8MCdQHjX
CsDMs57BavK4QAxZmT9XXKvBWVmpQE/yeEBH+rnB/OfPQB81iUDu57PB/V2sQA7EK0CusKrB8gSd
QI+rjUBO3sTB54uSQCLIQkD2e6DB3otFQJO2OsA2sZPBv3eTQBB3QECHZ7TBEmTSQPcDY0AWSavB
5HXsQIY5qUCg07bBWJPxQKI7Zr9OzLvBMFC0QGtupMAjk5LBu5/SQCQoJsDhkK/BJM7UQDlJX8Du
Lp/BuszhQJemwD/LHrnBKzeSQAihBj/QBZ7Bn4RWQJqEl8Bwd4vBJ85DQOYGkL+dgZzBzI59QELS
fUBxc8fBXPyYQGCWsECcZcTB4Va2QGgFhkC+rMrBXL6KQLO2g0BZkKDBw5NpQBg1HUCHTKDBxcyl
QOkBNEA/WpnBvUnqQJM0ZECR96XBvs0CQSPTr0CXKbLBQ93nQOSquUDHl73BKeLdQLe4G78YHbXB
YX5GQJwNOMBqHJPBrRzLQPowxL9eG67BDf5mQODg87+nI5rBeX7VQAxIQz+A9LPBb8amQMqblD79
xqTBXXR5QBFdf8C9bJDB4mq0QIcRT8AkbpvBuLKvQFrWi7+P2KXBwOecQMo9BcCsZJ7BYsm5QFTV
nT+I0qvBJ3mvQAG3eECEJ7vBQ0TVQDaOiEB4ubTBGFquQLHFLkDRmKvBMsqlQFqWjEDBTMbBftKS
QChGSUCE0aHB72ekQHnxhMBskZTBSbOXQEPGQkDoq7XBozjVQCLlY0DZ5avByXXzQBsvp0BgjrfB
v9TyQOqrc7+AabvBZAkHQHFFMcDhyo/BAKfRQL6PJcBTCK/BxkJBQC0Thb9yP5zBCF7kQEfyuz9W
VrnB612RQDo1IT/gj57ByJ9gQFFSl8CA8IrB9frTQDinWMBOvZ7Bt66HQAu2fECYJsnB7KqiQD+k
r0D0H8bB//y/QHmSg0BSusvB//2LQLchh0DbNqLBxB5pQHRSJUBm5qHBsWKkQKYDO0BBZ5rBDPPr
QL1CZUDVRKbBn/QFQaySrUARprLBvbvwQBXVtkBBgL7BrK2MQKQ2UEA01ZbB+AqeQCQKBMBI9qfB
tCmWQEAo9j96lJnBWRqWQNhOQr9fWKTBrCmZQNbgiUCdl53BUbO5QOjCLEBqxanBuIrEQGDNFcDi
Zq3BRL7aQMBo3b125KvBmKesQODE0T/SGqPBlMa0QEBEeD5eYKbBkCGwQDZkgUDPIKfBjY61QE4a
k0BWoMDBzAfjQJZYkkBIc73Bism6QFbfpED7Nq/BFRulQI4Qh0AAlMvBTBq3QGbT0kCuoKrB1RPi
QMwWsL91O6/B2BGeQPqkn0Cve7jBJBvmQDz6nkC1f7PBqGICQT5phkAMAcTBs3R3QD3bXUDDf4/B
7uWGQIIwNsDyl6bBhDmMQKH6jj/vZJTBWvtxQMO1Br/jE6DBgzCRQDVyqkCPf5vBOUXLQCT3HkA5
ArHBeKLKQF0fVsCsLLDBymjyQGdcJz/xeK3BbBGCQIhdikBiwcvBqmGzQHlVnEAgndHBLOStQPlw
S0CxWM3BRza/QNQr6kDc5LDBbCeWQKdw2EAQ3qfBEFPNQDR41kAu3aPBFbAAQZvMo0B5fa/BQV4R
QcUGh0CMM8HBiiT/QKpfekDBiMvB

> <OMEGA_E>
OteHP9ELiD/8Oqk/

> <OMEGA_NBR>
     46033

$$$$
50220825
  -OEChem-04172616093D

 49 52  0     1  0  0  0  0  0999 V2000
    6.4689    5.8078  -23.9230 C   0  0  0  0  0  0  0  0  0  0  0  0
    7.3140    5.6319  -22.8094 C   0  0  0  0  0  0  0  0  0  0  0  0
    5.4050    4.9115  -24.1448 C   0  0  0  0  0  0  0  0  0  0  0  0
    6.6820   -0.6109  -22.6721 C   0  0  0  0  0  0  0  0  0  0  0  0
    6.1394   -1.5694  -21.7951 C   0  0  0  0  0  0  0  0  0  0  0  0
    7.0733    4.5856  -21.8942 C   0  0  0  0  0  0  0  0  0  0  0  0
    5.1634    3.8628  -23.2341 C   0  0  0  0  0  0  0  0  0  0  0  0
    6.4819    0.7648  -22.4450 C   0  0  0  0  0  0  0  0  0  0  0  0
    5.1544    0.2148  -20.4735 C   0  0  0  0  0  0  0  0  0  0  0  0
    5.5210   -3.3696  -19.4719 C   0  0  0  0  0  0  0  0  0  0  0  0
    3.6054   -1.9570  -19.0546 C   0  0  0  0  0  0  0  0  0  0  0  0
    3.8547   -4.0110  -17.9644 C   0  0  0  0  0  0  0  0  0  0  0  0
    5.3719   -1.1633  -20.6829 C   0  0  0  0  0  0  0  0  0  0  0  0
    4.8263   -2.1687  -19.7331 C   0  0  0  0  0  0  0  0  0  0  0  0
    5.9746    3.7056  -22.0813 C   0  0  0  0  0  0  0  0  0  0  0  0
    5.7040    1.1961  -21.3483 C   0  0  0  0  0  0  0  0  0  0  0  0
    5.3914    2.9924  -18.7670 C   0  0  0  0  0  0  0  0  0  0  0  0
    4.0435    3.0692  -19.3728 C   0  0  0  0  0  0  0  0  0  0  0  0
    5.5581    2.6912  -20.9942 C   0  0  1  0  0  0  0  0  0  0  0  0
    7.2046    2.9019  -17.0156 C   0  0  0  0  0  0  0  0  0  0  0  0
    5.0217    4.0256  -16.4873 C   0  0  0  0  0  0  0  0  0  0  0  0
    5.6864    2.8853  -17.2789 C   0  0  0  0  0  0  0  0  0  0  0  0
    5.0298   -4.2665  -18.5900 N   0  0  0  0  0  0  0  0  0  0  0  0
    3.1358   -2.8833  -18.1896 N   0  0  0  0  0  0  0  0  0  0  0  0
    6.2839    2.8715  -19.7264 N   0  0  0  0  0  0  0  0  0  0  0  0
    4.1623    2.9813  -20.6678 N   0  3  0  0  0  0  0  0  0  0  0  0
    2.8331    3.1805  -18.7107 N   0  0  0  0  0  0  0  0  0  0  0  0
    6.6364    6.6281  -24.6052 H   0  0  0  0  0  0  0  0  0  0  0  0
    8.1485    6.3001  -22.6560 H   0  0  0  0  0  0  0  0  0  0  0  0
    4.7738    5.0279  -25.0134 H   0  0  0  0  0  0  0  0  0  0  0  0
    7.2573   -0.9336  -23.5273 H   0  0  0  0  0  0  0  0  0  0  0  0
    6.3113   -2.6204  -21.9745 H   0  0  0  0  0  0  0  0  0  0  0  0
    7.7286    4.4531  -21.0460 H   0  0  0  0  0  0  0  0  0  0  0  0
    4.3530    3.1725  -23.4160 H   0  0  0  0  0  0  0  0  0  0  0  0
    6.9243    1.4910  -23.1109 H   0  0  0  0  0  0  0  0  0  0  0  0
    4.5579    0.5331  -19.6313 H   0  0  0  0  0  0  0  0  0  0  0  0
    6.4516   -3.5724  -19.9810 H   0  0  0  0  0  0  0  0  0  0  0  0
    3.0445   -1.0505  -19.2279 H   0  0  0  0  0  0  0  0  0  0  0  0
    3.4757   -4.7347  -17.2580 H   0  0  0  0  0  0  0  0  0  0  0  0
    7.3907    2.8233  -15.9343 H   0  0  0  0  0  0  0  0  0  0  0  0
    7.6754    2.0519  -17.5312 H   0  0  0  0  0  0  0  0  0  0  0  0
    7.6319    3.8424  -17.3937 H   0  0  0  0  0  0  0  0  0  0  0  0
    5.2561    3.9157  -15.4182 H   0  0  0  0  0  0  0  0  0  0  0  0
    5.4018    4.9926  -16.8484 H   0  0  0  0  0  0  0  0  0  0  0  0
    3.9317    3.9837  -16.6297 H   0  0  0  0  0  0  0  0  0  0  0  0
    5.2836    1.9299  -16.9113 H   0  0  0  0  0  0  0  0  0  0  0  0
    3.4209    3.0937  -21.3295 H   0  0  0  0  0  0  0  0  0  0  0  0
    1.9787    3.1973  -19.2301 H   0  0  0  0  0  0  0  0  0  0  0  0
    2.8129    3.2441  -17.7129 H   0  0  0  0  0  0  0  0  0  0  0  0
  1  2  1  0  0  0  0
  1  3  2  0  0  0  0
  2  6  2  0  0  0  0
  3  7  1  0  0  0  0
  4  5  1  0  0  0  0
  4  8  2  0  0  0  0
  5 13  2  0  0  0  0
  6 15  1  0  0  0  0
  7 15  2  0  0  0  0
  8 16  1  0  0  0  0
  9 13  1  0  0  0  0
  9 16  2  0  0  0  0
 10 14  1  0  0  0  0
 10 23  2  0  0  0  0
 11 14  2  0  0  0  0
 11 24  1  0  0  0  0
 12 23  1  0  0  0  0
 12 24  2  0  0  0  0
 13 14  1  0  0  0  0
 15 19  1  0  0  0  0
 16 19  1  0  0  0  0
 17 18  1  0  0  0  0
 17 22  1  0  0  0  0
 17 25  2  0  0  0  0
 18 26  2  0  0  0  0
 18 27  1  0  0  0  0
 19 25  1  0  0  0  0
 19 26  1  0  0  0  0
 20 22  1  0  0  0  0
 21 22  1  0  0  0  0
  1 28  1  0  0  0  0
  2 29  1  0  0  0  0
  3 30  1  0  0  0  0
  4 31  1  0  0  0  0
  5 32  1  0  0  0  0
  6 33  1  0  0  0  0
  7 34  1  0  0  0  0
  8 35  1  0  0  0  0
  9 36  1  0  0  0  0
 10 37  1  0  0  0  0
 11 38  1  0  0  0  0
 12 39  1  0  0  0  0
 20 40  1  0  0  0  0
 20 41  1  0  0  0  0
 20 42  1  0  0  0  0
 21 43  1  0  0  0  0
 21 44  1  0  0  0  0
 21 45  1  0  0  0  0
 22 46  1  0  0  0  0
 26 47  1  0  0  0  0
 27 48  1  0  0  0  0
 27 49  1  0  0  0  0
M  CHG  1  26   1
M  END
> <OMEGA_C>
0wDPQG/ZuUBJYr/B+gvqQLY4tEClebbBnfWsQEwrnUCZKMHBRNPVQMhmHL95YLXBj3XEQNHhyL9e
XK7BTVjiQGu9kkA9J6/BzzqlQEQ4d0B237nB+GvPQPLMQz9lj7PBtPCkQDj1Wz69yaPB5KuwQPCn
V8CIxpvBuL5mQEV/+r/Kb5jBarN2QPdZgMANt4/BU+arQMrllL+rdqXBznCaQBfMCsBa3Z3B1y+/
QOoobUB/prDBWIe2QMEamT9QyarBh4asQMqDP0DcIpbB9WOBQLJtREB4+5rBIdyxQJw8LEAa9KfB
eYzmQJK4OUABIIjBabGgQG/RgED05YPBFPe1QDSoOEAhO4rBe/SgQGaHiMBLuJTBTLBIQAmIOMBJ
hJHB0RXJQKDGN0C3z53BNTGFQJbNPkDBV6XB/lA1QMKMS0B7r5XBVl3UQL8Z1EBe18TBNGACQUaa
yUB8P7XBo8KYQGvkoEBwG8jBITzoQJkDb7/VN7zBYPbJQNm0J8C+y6/B7lD3QOd/jkA7XqjBpUuL
QKMKS0D8U7vBipPdQEfavj8c47jBs9qRQPx5CD/cDJ3BynPOQEWiZMAk2Z/BRNlCQJx2hr/I0pnB
FXFeQL6Cl8BuEIrBs4DsQLSxNEAA837BwJz1QMRRA0D/P4zByjj0QDHpdUBSJovBTjKoQPeaekDs
sHbBNtusQCnDn0CPyYbBLKF7QFz1fkCKCYXBlBOpQHMI9z9DSofBG/BaQKH/RUDHoqrBbUb9P96f
TEA+15nBUgc0QMaeT0ALtI3BEm/PQCImuUAWfb/BrF+tQPl0nECcOMHBaILqQOets0BJlLbBBizU
QFpPH7+ie7XB/F/DQH6wyb+cWK7B7qelQPAcdkBy5LnBOMjiQARkkkC+M6/BxFvOQCguQT8nnbPB
onalQDiWXT4PjKPBmdNmQGvU/L+kWJjBJE2xQEJpV8DTmpvByoB2QPaPgcCb54/BFOurQFPrlL8J
SaXBLMWaQBDiCsD/q53BppO/QEyDbEBLp7DBSJq2QJeumD9XqarBbh6sQIy+QUCeJpbBkkmBQAaK
RkBvDZvBUhayQCgzLEDs5afBTNXiQN62KkAgnofBqMumQCMOikAx9oTBIL6zQGLkPkDQLorBmkxI
QN7pOsACn5HBEmahQHn4iMCXuZTB3A7JQCKfOECltp3BKEmFQBwbP0CrY6XBlLY1QD6eTkCOoJXB
v8nUQOxK00CD+sTBeCeZQNQMoECYK8jBtqECQT8JyUCsZLXBS67lQHMRc78DdbzBXXfIQDwyKMAQ
0K/BhsGLQKzOSUAqU7vBEcP3QDRJjkDUaajB7RjcQBgXvT/sCbnBNCqTQND0CT/Ir5zBF91CQDSi
iL+DppnBwnfPQFg6Y8CtjZ/BwH1dQMVemcBgeorBMVfnQFMWKUD1yH3Bh17rQBo92D96CIvBpXb3
QOqBXECbGIvBUJCsQDVfiEDqlHjBcOu5QJ4tpEB0aojB46GEQKsekECTcYbBmsWfQObYC0Blv4bB
AFFbQIRKRUCYuqrBURX9PxYOT0BqrpnBUmM1QLkDVEDgp43BEv3PQITnuEAtUb/BpmvrQIaLskBH
g7bBlAStQLE4nUBf8MDBJrjUQPfeHr8gn7XBCpvDQPZqyr8Qla7B5jrjQCBRkUA6Ja/BpNukQGG7
d0A6oLnBvu7OQO1LQT/UqrPB4LylQOweTT77r6PBL6dnQCS2+7+uZ5jBvtGwQNWzWMCX6pvBSZl3
QKfSgMBdxI/BL/irQOSilr/thaXBNKmaQCCqC8Cf7J3BLje/QGVBbEBagLDB6Aa3QDo1lz8QtarB
fsCrQDM9QkDFH5bBAQmBQGFUR0BdD5vBnvaxQJ3YKkB016fBkjbhQEfoKkDcTYfBsCqqQAgbkEC9
+IXBTDazQOWORUBaKorBbcNJQKI7OcADfZHBGj6hQLgOicAN2JTBgsHIQNGFN0CIoZ3B6uqEQDlc
O0BIVaXBT9M1QGfbVECXq5XBIMTVQPry0kBDz8TBFWYDQWYpx0AuZrXBDG6YQOiNoUAiy8fB43Dm
QLD3cL/XlLzB0ZfIQPB7KMC+H7DBl3n4QAqJjEC1b6jBEUWKQCrvTEAj/LrBEMjcQN/rvT/GBbnB
vnSTQB50BD/bzpzBsP5DQMEqh7/ut5nBCGzOQJHSZcD9D6DBYXZfQP8JmMBhH4rByo7lQJQCLkD7
KH3B7f7mQDwz0j+EE4rB6fr3QHKNVkCONovBqaWvQAsVkUCTkHrBiKa/QDoBp0Dz8onBFbmIQHSw
mEDrrofB1PScQNzuGEDQPobBkwRaQIYoPUBJparBsyb9P6ECVkCdtJnB5QQ2QM94XUA9vo3B3TXN
QLeVuEAH07/BPUXmQPrftUBmfbbB2qitQAtumUCc38HBXDvaQDRXHb/DcLTBSvnHQCgVyb9Rka3B
wwHfQN3FlEDgDa/BGU2mQBx0cEAgdLrBnwjSQHmyQT+j9LLBwrijQPwGVD632qPBHGOyQORAVcCq
8JrByzVjQLj5AcCSMZnBJ1J0QPTPgcD1EpDBebKsQGaMlb/cKqXBIryaQPR+C8D6tJ3Bb0i+QNLj
a0D82rDBKEq2QOi+lz+5uarBkRmuQP9WR0CHeJbBgBuCQEZ7SECX4prB9hOxQOqSK0CKEqjBlJqq
QM+kj0BktYXBRPqoQEJW+z9y8ITBD/m6QEQyTECB3IrBReuhQEneh8AYI5TB4rhDQD1oPsD5hpLB
mX3JQPDlOEDNMJ7Byn2EQFA2PkAFO6XBF5I4QOIoUEARKpXBryjSQKl/0kDKZ8XBCRj/QGUyzUCz
BrXBYw+bQE36mkAuJcnB8LXuQJxrb78L6brBY97OQJOiJ8DOua7Bc3HyQLDIkkBo7afBpTGOQP+3
QEChGrzBwgThQEzrvT9lIbjBRGyOQFSyBT/eiJ3Bkt/RQOLzXsAcSp7BnUQ9QNJhlL+2EpvBn51a
QLN/mcAzqorBUWS0QJKkkEDEhHrB+Da4QDRQq0DZ84nBSnuHQGu4kEBCOobBPDeyQGmpAEB06XjB
29+FQL6M+j/0loXB2vm1QIPehT+5iojBmhjeQAf0SkA1TYrBaQxYQM1aQkBMXKrBvFkAQGv2TUAu
+pjB/zw6QOTkV0DHOY3BM1LKQI/XsEAKNcHBSXepQEhFkkDMO8LB+BPlQA5zsEADIbjBSG/dQDrY
E7/qfrTBIXPKQBwMx7+W7q3BWLiiQCX6Z0BQEbrBwWHeQBg0kkB97a/Bi5nVQANYSj/uo7LB2iWn
QNJqSz4QvaPBOlqyQBteVcDIaZvBAFJmQGLh+b/7wpnBLnxyQA/ifcDvdpDBI0+vQCc2lb83d6XB
jg2cQA9kCsCpP57B64S8QHJgaEDivbDBPYm5QGJBmD+IWKrB8aSsQGbDRUCh75XBNHOBQENLRkD5
lprBzcmxQA1qKkAomKfB41XfQCYRK0DxqobBbBK1QCE9mkBn7ofBiNK0QLfYU0ChKIrBYa+gQKPg
hsCOiZTBxK9EQK78NsDD+5LBCTnJQJ3KO0BDkp3BW42EQMgrOEDn2KTB5sQ3QBaWU0D07ZTBKwTP
QLKVyEDzX8fBf3aVQLYOkkByR8nBfsn+QBJjx0AHdLfBxR3yQLKlYL8R/brBDKbQQIWJJsC1X6/B
QK6JQGrSOECC6rrBmxfzQJ3mkUDkAqnB5AnlQLObxD+ZjrfBUXCSQDSF/T6uPZ3BZ6HRQAm7YcBU
v57BvJZCQHD3h7+5w5vBdvtWQFDWlcAv+4rB1FrkQCxoNkDHJXzBLU7eQNGOyz9FNIjBh8n5QEvP
R0CAOovBtwC7QI/Xn0DqvX7BU3vOQP6HqUDqq4zBe+iVQCT4p0BtKIrBPbWaQDVvNkAgi4XBDzlY
QLXnNkA8AqrB6fn+PyDWUkC2vJjB1to5QKjsXUD0CY3BIknXQFbWp0C2RcHBnfuyQMuGjUCuX8LB
b3ruQIkKqEDTnLfB6D3JQHvxF7/+M7fB0H+8QOt0yr9Z5a/BOZulQFV1Z0C2x7nB/ODhQKZ2jUB/
Fq/B/I3GQNxlQz/EaLTBhoapQGOnGT6w+6LBRbGRQCDvYMA6J6HBSEWlQEnrAcCgsZLButqLQCbw
hcBuUI/B1imtQHDOm7/VqaXB/zGhQPR7EMAOzJ3B6D69QMTyZUDuGLDBi6q1QPfNkz8/U6rBnMer
QKi1U0BC2JXBnkmAQEpUUkBheprBZtyvQDVcKEDyI6fBYJjmQPoeYkAnCYjBMrupQDMvpkChg4jB
amO2QN/jbUB6aYrBqTCHQIiZjsBk4ZnBN6SaQGPDP8CBo4vB5F/HQNicOUDzGJ3BstOCQEGaOEBD
aqTBQ5s1QARFZ0BzI5XBa1zhQJDju0DY18fBq2mhQGsmjUAy0MnBmwAFQd6lvECvvrbBKyPVQBSp
YL+J/b7BXGq+QP/0J8DsGLLB1iWJQMO9QECTj7rBNyj0QGE8jUBhwafBwmrRQDUlwj+5+LnB8U2d
QLC+3D51OJvB9DaOQFhYbsCWlanBGfKwQJQIir+i1Y/BKW+DQJFjnsAZlYnBU0ztQKR7dUBGfH/B
xl3vQM5/HkCgH4nBymv5QO7/hECXjY3BHYmxQCxEr0AxPYDBHHy7QPnQukAZGI7BRSqHQNwTqkCt
3InBFgekQNJqRUBL3YTBzQhUQCYmMUCTYanBILH6P3A3Y0AP65jBNdQ3QKhqekCLgo3BiKzPQP4Z
pkCajsLBQ6nwQMUSkkBmxLzBK+ekQOSJoUAnPL/B8MHiQL9cGb/aAbPBxr3KQHl+yr/MwK3BmuHm
QMrtc0D2lbPBxdiaQN2Rh0DwZbbB9fPaQCAfQj/7/bDBteajQHctID6bGKTB1OWIQFQTX8CswqXB
HwiAQCygAcA4gZbBg/dCQMEAhcB105bBJharQIL+mr9NQqbBd0uRQFe5D8CKy6DBq8i7QHK4ZUBK
h7DB/su6QO0UlT9unKnBhJSsQEvDXEC+IZbBBuyAQEOPUEC4XZrBPTGxQHG/KUB6GqfBKiTnQBb5
fUAjx4jBQASlQNdOrUBwr4nBQn22QDOHfkDz+IrBC1ViQEJsjcDQt6DBpvlQQEXiPsBsr5HBzLHI
QJ8wRUBjbp3BTL+DQBtNM0B4HaTBq/o1QLYYYEDj7pTBOCzXQJj4uEBvjMnB7LsIQR80lUBsXr/B
srmLQDIGskCZe8PBhVj7QBUjY7+/n7jBJHHQQLoTKMC0b6/B0jwAQRx0WUC80K7BRbFzQKpYg0Az
D7TBSaLtQA31wD/jGrXB842MQNgg4D7vIp7BSImVQMsDbMA9o63BJLOFQBcXi7+NeZLBJjYdQOI/
ncBE35LBwU7tQLRQi0BFroDBXFTzQHIfPEBdaYnB1m/3QHhhk0Bcro7B6F6sQIgeuUAZmoHBuxq0
QB5RwkBzp4/BiyWCQBY6rUAs44rBhbWmQHUxVUCLCoXBW8hVQAlyJUC52KjBD637Pz3EVEDhgJjB
23E3QLqfdkCGco3B5p7XQK2aqkCaIMHBiKaxQDyikkAQDsLBdAfyQFSLpUBFE7jBbrrBQF0dOr+C
r7XBiPm1QDBG0L/ln63BmXulQMUKbUADzbnBECbmQDofiUCx1a/B8lnAQOX/Jz/lwbPBij6mQDSV
bD6JrqHB8i+WQFRRT8A5DJrBVsnUQMhc/b9duJTB8AHMQC6BhsC3mo/BZMSpQFjBkr+sgqPB1YGu
QLrhA8CGmZrBHC+/QPb5Y0ByhLDBoZixQEi7kz88zqnBlBqrQLNbSEDvxZXBF0GAQAcmT0D/j5rB
brOvQK35KUCIWafB1HHdQKd+KED/lobBeAy1QGwpmkDUhofB9HSzQL4kVEDS+YnBajalQLxcicD5
cpTBrDrjQNKzQ8BDZI/BQm7HQMtuOEDTS53B/GGDQGJkQUCm06TBtus1QCXRYUAmCJXB+IHgQHvd
wEAEWsfB/9+dQFDRlUCHGMnBX7oHQWF+t0AEc7fBSN7LQPJhjL/GZb3BQkq2QM8gLMCCLa/BBU+I
QDl3SEDvirrBhMb6QMjyhEA3+6jBLpvKQOchrD995rnBjdWaQBBbFz9iDZrBr1tvQOFWU8BlE57B
8YzmQNfXhr+Be5TBMuvYQBOgosCcwYvBCZ/iQKA0MkDu8HvB0HnbQOUVxz+/S4jB2EX4QKCBREBx
FYvBESC7QJP2nkB24n3B/uDOQMoWqUB8MozBB0iWQM3qqEDvr4nBVPWYQEV5N0DHbIXBcvFWQCQN
RkCAHKrB5oL8PyW+ZUDs8pjBQMY3QAtca0DpH43BxA2+QAj5lECTP8XBrZuiQC4XY0CoCMTBT9vX
QKpaokAmobzBMO75QHAY6r7agavB+QToQAQlsr/Uc6TBDEGgQKo0OEC/IrrBAn3VQEYPjUBPtLLB
D+vnQMADUz+rfKzB5FyzQOAghT7i0p7BfH2gQFhlTcCuzqLBqMeEQFB6978g5JPBPrw6QNjwasCS
pJvB9fnCQLDRh78rlZ7BpAelQBBCCMCMoZvB2Pu4QK5VVEB0T7HBKG/EQHY1mT/wJabBbdGsQHzM
YUD5CZbBA/GBQF6fSkBn7pnBRk2zQChQKECsZqbBKQjkQOxde0BxzYfBadaqQD51tEDr0IvBxDa1
QPh/hEAGOovB3295QOwXfcACxKLBjepCQMKOLcCZBZTBoi3JQFxmVECEm53BHpOFQGZqLEC8oKPB
wGU4QLnCVEB7PJTBuVG/QJfdpUB6x8zB4l2PQIyiTUDhsMrBTIHtQKz+vEBHob3Bu9QKQXMSOb9l
NLDBHJT2QNpOF8B4g6PBCnCLQMR3AUDyRLnBGXPpQAdZl0ANI6zBH0f1QDmvwz+vHrLB4j6aQOcP
Dz9TZJnBH+u5QNwLXMBZXajBs1CIQLoTlb8o443BqHP/P4xlh8ANCpzBekXpQD1FjECVzX/BN9jq
QGdiNkDzXofB1HL5QJe1jECfsI3BLcqwQJtSw0Cx+oPBY0S/QPiyw0Co4pHBCwSJQC+5uEBIAo7B
sh6gQKPqakD0RIXBia5aQJv7GkBPYKjBf4wAQHk1REDqjJfBv885QI6fbECz0IzBwvefQDismUAY
ZsbBwZaGQGOUakAMZcTBpATAQGq6pUBPEb/Bsk3lQKwmKb+mNbHB6VnZQGLEwb8WxKjB3XeMQOVN
O0Dm6rrBa/bFQGQ1jkBfk7XBKQTXQNyoLT+5ZLHBi7yzQLgiqD6ySaDBdLq1QKd8RcCwe5XBL35w
QCoi678vyJvBv2phQIGkf8C5JZXB3FK/QFpIgr/cd6DB/eOkQCJC+L+iaJrB2IurQNXzVEBtT7PB
jVe9QEpXlj/e8qjB57+wQNm5ZEDpL5jBEmmEQEJ4SUBaMZrBznatQI6DJ0B0eKjBCHLDQHBmQUCX
aIXBjxnrQBKSm0B48Y7B666/QHQDhUDaro3BohGbQP7+gsB/zJLB9b89QLHTN8DaQ5nBvpfIQHpj
U0BNlKDBAAKCQPQjK0CI56PBlClGQFepTkA05pLBi9qaQP1UrEDbjs3BQ0RdQKQPV0DdH8rBFBPU
QPYSwUB1u8DBx3f5QL8RhL9UkbfBPQ7kQByZIsDHpqjBq11yQE4uA0AzcLnB/7jeQIVsl0BvAbDB
NavfQE53qT8w+bfB9SqjQCkGOj9NaJnByZbXQN9FSsBS3JPBXOpUQHKvbL+b3J7BQcM4QHIim8AV
qpPBc0/OQDjWW0C1b3vBrwekQE7NIkCxWITBMK7aQLGnEUBFQIjBuCP1QJLNqEBBL4fBpY8BQRto
hEAmvpHB1R3oQG+ltUCtzpTBtvSnQLthnEA11YrBO0NOQANQGUCHoafB98oLQDf9OUDR65TBIXVQ
QAEUZ0D+nYvB

> <OMEGA_E>
aKu5PpDVsj5YXK0+kDCoPkhFoz5cMR0/nKApP8hqMD8YX2M/8Kg4Pw==

> <OMEGA_NBR>
     54737

$$$$
50220814
  -OEChem-04172616093D

 43 45  0     1  0  0  0  0  0999 V2000
    7.4848   -0.4045  -21.8569 C   0  0  0  0  0  0  0  0  0  0  0  0
    2.8766   -3.1650  -18.8495 C   0  0  0  0  0  0  0  0  0  0  0  0
    6.8143   -1.4115  -21.1455 C   0  0  0  0  0  0  0  0  0  0  0  0
    3.5171   -2.1200  -19.5278 C   0  0  0  0  0  0  0  0  0  0  0  0
    6.9615    0.8954  -21.8929 C   0  0  0  0  0  0  0  0  0  0  0  0
    5.1121    0.1947  -20.4686 C   0  0  0  0  0  0  0  0  0  0  0  0
    3.6461   -4.2290  -18.3390 C   0  0  0  0  0  0  0  0  0  0  0  0
    5.6261   -3.2694  -19.1461 C   0  0  0  0  0  0  0  0  0  0  0  0
    5.6285   -1.1149  -20.4364 C   0  0  0  0  0  0  0  0  0  0  0  0
    4.9188   -2.1698  -19.6873 C   0  0  0  0  0  0  0  0  0  0  0  0
    5.7453    1.1953  -21.2368 C   0  0  0  0  0  0  0  0  0  0  0  0
    5.5468    3.5793  -19.1670 C   0  0  0  0  0  0  0  0  0  0  0  0
    4.1011    3.2552  -19.3358 C   0  0  0  0  0  0  0  0  0  0  0  0
    5.2771    2.6363  -21.1552 C   0  0  2  0  0  0  0  0  0  0  0  0
    5.3568    3.4097  -22.4928 C   0  0  0  0  0  0  0  0  0  0  0  0
    7.0975    5.4718  -18.8325 C   0  0  0  0  0  0  0  0  0  0  0  0
    5.3517    4.9165  -17.0457 C   0  0  0  0  0  0  0  0  0  0  0  0
    6.2970    4.3426  -18.1132 C   0  0  0  0  0  0  0  0  0  0  0  0
    4.9913   -4.2665  -18.4892 N   0  0  0  0  0  0  0  0  0  0  0  0
    6.2011    3.2235  -20.2353 N   0  0  0  0  0  0  0  0  0  0  0  0
    3.9436    2.8109  -20.5558 N   0  3  0  0  0  0  0  0  0  0  0  0
    3.0649    3.3969  -18.4190 N   0  0  0  0  0  0  0  0  0  0  0  0
    8.4041   -0.6311  -22.3766 H   0  0  0  0  0  0  0  0  0  0  0  0
    1.8045   -3.1552  -18.7194 H   0  0  0  0  0  0  0  0  0  0  0  0
    7.2063   -2.4178  -21.1401 H   0  0  0  0  0  0  0  0  0  0  0  0
    2.9485   -1.2907  -19.9218 H   0  0  0  0  0  0  0  0  0  0  0  0
    7.4903    1.6724  -22.4248 H   0  0  0  0  0  0  0  0  0  0  0  0
    4.2250    0.4353  -19.9014 H   0  0  0  0  0  0  0  0  0  0  0  0
    3.1514   -5.0337  -17.8156 H   0  0  0  0  0  0  0  0  0  0  0  0
    6.6992   -3.3135  -19.2605 H   0  0  0  0  0  0  0  0  0  0  0  0
    5.0003    4.4395  -22.3433 H   0  0  0  0  0  0  0  0  0  0  0  0
    6.3994    3.4299  -22.8429 H   0  0  0  0  0  0  0  0  0  0  0  0
    4.7275    2.9093  -23.2435 H   0  0  0  0  0  0  0  0  0  0  0  0
    7.6612    6.0534  -18.0882 H   0  0  0  0  0  0  0  0  0  0  0  0
    7.7969    5.0231  -19.5533 H   0  0  0  0  0  0  0  0  0  0  0  0
    6.3990    6.1351  -19.3635 H   0  0  0  0  0  0  0  0  0  0  0  0
    5.9372    5.4667  -16.2943 H   0  0  0  0  0  0  0  0  0  0  0  0
    4.6326    5.5992  -17.5218 H   0  0  0  0  0  0  0  0  0  0  0  0
    4.8085    4.0943  -16.5570 H   0  0  0  0  0  0  0  0  0  0  0  0
    7.0140    3.6682  -17.6222 H   0  0  0  0  0  0  0  0  0  0  0  0
    3.0695    2.6224  -21.0036 H   0  0  0  0  0  0  0  0  0  0  0  0
    2.1307    3.1523  -18.6786 H   0  0  0  0  0  0  0  0  0  0  0  0
    3.2541    3.7433  -17.5002 H   0  0  0  0  0  0  0  0  0  0  0  0
  1  3  1  0  0  0  0
  1  5  2  0  0  0  0
  2  4  2  0  0  0  0
  2  7  1  0  0  0  0
  3  9  2  0  0  0  0
  4 10  1  0  0  0  0
  5 11  1  0  0  0  0
  6  9  1  0  0  0  0
  6 11  2  0  0  0  0
  7 19  2  0  0  0  0
  8 10  2  0  0  0  0
  8 19  1  0  0  0  0
  9 10  1  0  0  0  0
 11 14  1  0  0  0  0
 12 13  1  0  0  0  0
 12 18  1  0  0  0  0
 12 20  2  0  0  0  0
 13 21  2  0  0  0  0
 13 22  1  0  0  0  0
 14 15  1  0  0  0  0
 14 20  1  0  0  0  0
 14 21  1  0  0  0  0
 16 18  1  0  0  0  0
 17 18  1  0  0  0  0
  1 23  1  0  0  0  0
  2 24  1  0  0  0  0
  3 25  1  0  0  0  0
  4 26  1  0  0  0  0
  5 27  1  0  0  0  0
  6 28  1  0  0  0  0
  7 29  1  0  0  0  0
  8 30  1  0  0  0  0
 15 31  1  0  0  0  0
 15 32  1  0  0  0  0
 15 33  1  0  0  0  0
 16 34  1  0  0  0  0
 16 35  1  0  0  0  0
 16 36  1  0  0  0  0
 17 37  1  0  0  0  0
 17 38  1  0  0  0  0
 17 39  1  0  0  0  0
 18 40  1  0  0  0  0
 21 41  1  0  0  0  0
 22 42  1  0  0  0  0
 22 43  1  0  0  0  0
M  CHG  1  21   1
M  END
> <OMEGA_C>
voPvQHwbz77q2q7BSBo4QCCQSsDdy5bBbA7aQOestL8SKqnB4BhhQE6uB8DoOJzBgsTeQAY5ZT+h
JK/B7JWjQOhnRz65v6PBVllpQL5Th8BdtpLBRAm0QDQ+UcAxK5nBSBy0QBe1jr+zfaPBcGadQCDe
CsCTf53Bvtm3QCUAmT8I5anBUH+xQNYSZUAFVpnBUDyDQLZVUEDEr5rBnN2oQKi5KEDoPanBwGqr
QOo3WkAt8bPBDB/jQMoYr0DuqJbBfEGrQPxTnUCZXYjBDIHJQHX2ikDc55DBXrifQOqGiMDK6ZPB
GG/GQGBNTkD74aHBmGN8QDzlM0BOcqTBPCdEQJZmWUAgWpPBEHcGQfCQIb8xA7PBafrmP7zuScBf
wZXBMJrmQNK9GsDrHqnBw7M8QDk1pb/NX5/BbbDvQIkS1j8VZrPBXTOHQA7l3j4oNp/BwK9JQEgU
ocBNho7BeF/WQKAPVMBzFZrBRQKgQGEQjkAQv7LBucfMQFSDW0A0vrbB3EeXQL4xOkDB8rnB8ij1
QNa1wUC6tJDBT4D5QJa9oEA0bZzBbMTMQKpSxECK6JrB0v29QNrurkDUWoLBCD6UQNwss0CrLIzB
JN+ZQI0Eg0CpdITBCnPgQGLEakA9+ozB7nJEQPDVJ0BbB6jBxFwIQLG/SUDQbZXB6UJQQDKSb0Bo
AIzBPE/iQCV2IL9MorLBG5d4QKlEOsDvaIzBrO3OQDLCzL/cHazB7JuPQERE9b8NsZLB5q3XQDRC
Oz98abHBH52mQMZ7Fz4++6LBrfFsQLNihsA+u5DBPt+VQO2HY8C1+aDBwxqxQJrlm78oLKTBf8Kc
QIwnD8AaM53Bsta4QDS6kD9LvanBvKOuQN4CaUCvO5jBSNWBQJPtUkDbxZrBz7SsQF8JJ0A8SKjB
KWWwQATGWkDy0LLBbnDEQJk3UkDUMIXBVKzlQFZOpUC/9Y/B/768QHu9ikCxBY7B5x+DQIcPkMBd
z5rBSdLHQGA8TkBl/J/BVbGAQNvaL0DtRKTBBao9QI4aYkDxNZTBYXD5QAdnbL9ambjBtwJkQGMt
LMAdWoTBi9jWQMEeKcBPLq3BQFmUQKrca787i4/BHB7nQHjCvD8ZWrbBtFmQQF7c5D5A0pzBsidP
QI7YnsAm5YvBVdifQEH4c8AU/ajBQWSnQAfkjkDXU7HBCJDRQBQeWECUvrXBs9qaQEMkP0DH27jB
kafOQMt/ckAymXvBsaCmQIfELkAIsIPBjITdQA1oJUBCyofBWUjvQAQYtUB6eIjB0oz/QC4TkEDs
rpLBfFrfQJKtvUAUHJbBvCKjQNlyoEC2YIvBim1MQFn1HUAvKqjBh+0CQNHBUUDHpJbBuvNFQBVj
fUBxDI3B6MjDQL4QNb/4EbbB+FxJQHxqY8COl5LBtJKwQMpl0r8DTq/BcHRWQJKhHMDBWpnBMoXE
QHDcJT8PNbPBVhWdQFCXBT5p0qLB1SiHQOCijcChX5DBoDq1QMhzS8BdJ5vBDxaeQAwNnr+blaXB
ujOUQN+LEcBOyZ3BMiGxQFgQiz8Yl6nB0DqnQN5XP0B+1ZTBNXSAQN2HVEAl/prBkjmzQB6YI0By
KqbB+mnNQNUkXkAlwa3BpFnOQJDvEEDZP4TB1iq0QMBdlED5dIbBiNGqQOIuSkAG4IjB54auQC0y
h8B0lJTB9tHFQOBkJ0CVZZvBceSHQGy5RUC1GqXB8L81QCC4dEA7sJbBnhLSQNSLg78Hgr3BKCEL
QHr/bsBbH4/Bh+uvQIrtK8A2jbHB/kIjQFyX4L88FZvBUAXUQMeYrj+WYrjBdieNQGNW5j69l5vB
m++BQHrKqMDqMIvBwLjUQLjPQcCBgJ7B/CHNQN8JkECtq6rB0pruQJT0RkC0L67B0RS/QDHoXEBb
yrXBWzbQQGkvGkCEE3fBjxLHQNf5mj/P/oXBMy3tQFAwIkDe6IfBjOS2QIvsmEDqg3vBoF3SQJHA
nUBjUorBrPCZQPFJqEDfj4nBaDSMQFGLOEALIoXBOMdmQCcCUEBGHKvBgHwEQChxgUB+epvBTMsw
QHfGfUAMy47BZ27eQAxSGL8aN7XBMp2kQAqdhcAcP5TB8ZjMQJiUxb+QP67BIla2QDd1UMBDe5vB
hr7TQNCFQz9vMbTBKsGkQO43az6rNKXBj/10QDijfsCIipDBr+hmQMA8AcBxuprBDLivQKf8kb8s
LabBJp6dQOqICcDKwJ7BPam2QIVWmT8APKzBgcC2QM2fgUAuDbrBnn7XQA86ikBRxbHBDf6qQI69
LEDXq6vBMD2JQNqDQUAh9aLBvlqSQLaKgkAkN8zBsqq2QH/CxUCvm8XBFq+3QEUplEDeb8XBBGBF
QIccO8DK05PBv9SbQFAdSUBVWbbBEXDRQANFYEBntanB3uz3QF96qEChc7LB+m/0QG4Fab+qYbvB
+Q23QI/FoMCIi5HB8vzUQKKGJcC3D6/BoWjWQBtZWcCXgJ7BFefhQHdFvj+qjLnBBJSOQHydCj/7
EJ/Bt8dZQGbplcAX9YrBB15AQLvglr+4OJ3B9nKCQNBLg0Ar/qLBaDxXQA/oHUC+oKTB9rKVQMHD
LkBvEZvBAtCTQMZQkEA2TtTBBN6UQJX7PkAnuszB+YhnQFVAi0CPccjBW2W3QHsR0UCN8M3BATiZ
QJUa0UCutcHB2anSQAxO0kApS8HBYLzVQJvliUCrO8nBLxrkQFYzXED0OqPBDHwGQUuSq0CGeazB
yTz6QMYru0BF67jBSuLcQP4TG7/dOrXBhpNEQFlVPMC/m5PBwMDKQMZdw79TFq7BaHBkQK6K+r/U
j5rBgzrTQC7nQj/pW7TB73akQLSglT6gLKXBdr95QA6SgMDOlZDB0Ai1QDXMTMAEJpvBPaOuQDpM
i7+8+KXBbGScQPlLBcDAcJ7BYaS2QEninT8DbazB8B27QNC6gUDAmrrB/jDbQIa4iUBvIbLBchus
QOHLL0A5HqzBQnaJQDUPR0Bbu6PBbG2ZQA5ngkA+G83B3xS/QMbdxECufsbBVFG+QEpIk0CHEcbB
IVelQK42hMCPV5TBFrKeQJXpS0B2+LbBZeXSQF3UYUCV76nB+iH9QN5IpkBbybLBfFfyQA77cr+4
a7vBxOcDQNglOMCZmpDBE1bSQP/gJMAkzK7Bgwk9QJVCj7+L5JzB7dLhQIhAuz840rnBMsWOQE2p
IT9DBZ/B/l5hQLeHmMC0J4vB1jzVQOniU8AaKJ7BS4aDQGw3hkB/7aPBuFFXQKm2JEAUmqXBiZyU
QBWFNECQtpvBZI2cQPd2j0CcPdXBqMuaQHSBPkDWbc3B/0B1QNJyjEBYqsnBz2PBQNxvz0Bq3s7B
FIWhQP+M0UAE7MLBSODaQILL0EBP/sHBZ4bcQK+uh0BViMnBikvkQNKPXkDyO6PBBc4IQdIWqUDS
razBZ4wAQX0MuEDPXbnBZKXeQAbdHb9dOLXBbHSkQJOehcBcHZTBRFfMQJwLyb8qXa7BRx62QJRS
UcDPdZvB0nrUQF2rPj+yC7TBZRelQNzATD4CKqXBnbN0QA5BfsBfapDBv2FmQGYdAsDX0prBc5Gv
QMuXlb/fQ6bB1ladQMDqCsDl157BlIm3QA7ulT+VCazBYTSxQP8FhEBqG7nB5bDUQJUljEBjYLHB
x1msQIqlKkDVPKvBIM6MQOLHP0ByA6LBnwPFQPa+v0AjpMbB0zycQPQtfECCiMzBxkSkQNJHnUCc
J8PBevxEQMokO8Bgz5PBUeqZQEYVSEDpcrXB2kXTQIq4XUC64qnB7CzzQDJ/rEDCqbHBUZX0QAv6
bb/CaLvBKOy2QHacoMBwUpHBa0rUQAJiJ8BkSa/BSS3WQMp9WsAfep7B+ujiQOqDvD9+T7nBgtaO
QIBSAj+ZCJ/BuZdZQBpolcD7vorBSsw/QBhHmb/GaZ3BjUuGQD17gkAl7aHBTmNdQL2sHECVPqPB
5xGbQOGoLEDqVJrB9z65QGcm0ECT2c3BZinJQHAq10BnJ8DBhenjQG1psEAfZcjBJv+SQKhQkEDZ
stPBfKO5QMrQV0A2Mc7BfFyCQDinT0CtYsrBXeSFQB+nrUAMa8HBTDzpQIc/VUAgKqTB2sMEQYE7
rkCS9KvBbsLyQOEKwkDAk7fBThrdQBhzHr9LWrXBOntEQFGCO8CCspPBvzvLQPSgxb/eL67BgB5l
QLRX+r9cr5rBsnrTQGqfPz/GaLTBbH6lQED8iT71GqXBQAJ5QN5GgMAXl5DB4hS1QDrITcDLJJvB
NVavQIDgjb/RA6bBD8WcQFwoBsDDgp7BGY23QClGmz+kUKzBps60QHrOg0Bm+bnB1D/ZQMBiikB3
dLLBb3+tQMIfLkDYu6vBVAeOQNreRUB8mqLBYk7LQNdrvkAti8fBUsWjQM6reEAVlc3BktqpQBA/
nECtSMTBjAOlQIRchMBmTJTB36ObQK2gS0CdB7bBxhTVQA5tX0A/b6rBNN36QMpDp0DtaLPByU7y
QESJdb/hm7vB178DQDqeNsDwupDBzNrSQNT4JcBv7a7BZUU+QJGljr/lFZ3BvZHhQLACuj+s7bnB
yBWQQOYxGz9u4Z7B0xFgQK38l8C0IYvBpUvVQPyRVcAVHp7BvFOIQG+rhUBKqaLBsxVfQGwGJEAW
z6PBXeabQF0QM0Bf3ZrBi/fAQORBzkAw987BIj3OQGRZ1kCdIcHBBnvqQM3trkDf2MjBC/CbQK72
jUB78dTBFYDBQFw4VEAxyM7BJ4qJQHdYTEBApsvBBS2LQOG8rEC+AsPBn7TpQHFJWUC7XaTB78kI
QaNyqEBLyK3BWFX8QJTbukBtubnBE4fxQArky75Jaa7BOK85QP5UU8CoY5fBYUHcQLw2uL9mAqnB
3gFiQJj4EMDqBZ3BO8DfQPAlZT9noq7BmTejQKjj1z39EaTBRu1rQO+BisBf5JLBNx61QPANVsCy
TJnB2dS0QETAmL8nzKPBtxKeQDrEEcCyBZ7BsUO4QA8llD9TganBVwetQEW5gECFLZzBBwGCQCL2
WkAzh5vBp+ikQHJQJEDK0qnB4vWcQNKAQEDEgrXBg7zSQK2diUBNrorBu3PfQF7LvkDTq5nBXV++
QG8woUAvQpTBoSGhQKzMisDe4pPBDa3BQAJGYUDQbaTBBq14QBo1KkBY5qPB9j5IQLRCakBripPB
x8cHQWCZF78KZbLBJdvpP78RVMBTgpbB7BHqQE9zG8B716jBNcA8QLEMvL+di6DB11bwQIl+2D8C
vrLBCjiFQDMumT7jEaDBGeJMQLoKpMApjY7Bj4vXQKh9V8DvCJrBxxqPQLSbgEBwl7XBqne7QK7C
QECZ5rnBJqiGQP6SE0DlW7nBlU3fQAwpoUBl8YTB0mW6QHdca0Diu4bBqwbtQARgakCfiY3B1pTr
QDQH1kADzJPBujL6QHd9q0BavpzB6CfQQJf2z0CEVaDB+rujQFfqtEAOTJHBXtNBQOOUDUA58qXB
44IOQPXMTkCW6JPB8epWQE9fiEDWao3BKJbzQLy2Ej+QGZ/BuCOeQD41jcD9SprBjDDfQMyNKL+Y
753BXE6xQH3OTcDSiZ3B8ELbQGy+3z+eWZ/B+JiZQPjG7j4ro53B2CpuQMzMi8DrqZTBYB9rQN8M
AsCIXJXBuCWyQHSKN7/vDZ3BkB+dQELh/7/S4ZrB4MOtQJCz2z/NjZ7BEresQB3UfUDeJq/BbF+/
QNY3k0B0i6XBxPOSQFQkP0AekKDBiMlLQBIgQEAeXZvBVDLpQIbpXEA9SrvB6H6eQDS2YkBRqMLB
Lla9QLXjhECuZLrBiMBGQLmhTMCRY5LBtKyPQMTlRUBCL6zB7EiqQPa9hUCGK53BVK3jQA+srEB/
SqXBw/8KQWHJHj8fzp/BrhmtQMaHq8CVFJzBOtHxQCCpyL9BtZ3B8u/OQJBHTsAa/KHB3E7rQAy+
LED4KaDBgjNuQNvY0T57YJ3B2f9QQGhnqcAnGZLBSjFLQD81jb9mfZPBJWgrQLqufEBdTZ3BW+Yl
QHY8CkDFd57BgCBSQCEiOkCuoZLBVtL1QNb2ZEBOccPB4pj/QJx3eUAfhLXB+W7lQExRGEAyjLnB
NWarQItabEB2wcrBn/KaQA/HHUBaG8HBYyt+QLIIgUAPBMLB7E7BQBI4p0DOELzBKCWqQAXxkkDj
4ZXBQsHvQHQ0tkDJRp7BPMvxQFGBtUBXH6zB

> <OMEGA_E>
yLtQP65FXj90VD8/fjGEP04MhD+dfYM/wBCDPxx8az+KXa0/

> <OMEGA_NBR>
     61916

$$$$
50220830
  -OEChem-04172616093D

 53 56  0     1  0  0  0  0  0999 V2000
    6.7106   -0.6130  -22.6724 C   0  0  0  0  0  0  0  0  0  0  0  0
    6.1501   -1.5828  -21.8208 C   0  0  0  0  0  0  0  0  0  0  0  0
    6.5158    0.7567  -22.4152 C   0  0  0  0  0  0  0  0  0  0  0  0
    5.1573    3.7083  -23.2050 C   0  0  0  0  0  0  0  0  0  0  0  0
    7.1160    4.4278  -21.9253 C   0  0  0  0  0  0  0  0  0  0  0  0
    5.4810    4.6191  -24.2205 C   0  0  0  0  0  0  0  0  0  0  0  0
    7.4378    5.3407  -22.9452 C   0  0  0  0  0  0  0  0  0  0  0  0
    5.1550    0.1821  -20.4754 C   0  0  0  0  0  0  0  0  0  0  0  0
    5.5392   -3.3650  -19.4746 C   0  0  0  0  0  0  0  0  0  0  0  0
    3.5914   -1.9775  -19.1169 C   0  0  0  0  0  0  0  0  0  0  0  0
    3.8644   -3.9953  -17.9721 C   0  0  0  0  0  0  0  0  0  0  0  0
    5.3712   -1.1874  -20.7118 C   0  0  0  0  0  0  0  0  0  0  0  0
    4.8239   -2.1877  -19.7727 C   0  0  0  0  0  0  0  0  0  0  0  0
    5.9613    3.6149  -22.0438 C   0  0  0  0  0  0  0  0  0  0  0  0
    5.7196    1.1672  -21.3192 C   0  0  0  0  0  0  0  0  0  0  0  0
    6.6138    5.4421  -24.0864 C   0  0  0  0  0  0  0  0  0  0  0  0
    5.3752    3.0663  -18.7389 C   0  0  0  0  0  0  0  0  0  0  0  0
    4.0305    3.1250  -19.3501 C   0  0  0  0  0  0  0  0  0  0  0  0
    5.5484    2.6421  -20.9436 C   0  0  1  0  0  0  0  0  0  0  0  0
    7.1765    3.0619  -16.9769 C   0  0  0  0  0  0  0  0  0  0  0  0
    5.1207    4.4719  -16.6711 C   0  0  0  0  0  0  0  0  0  0  0  0
    6.4184    7.6925  -24.7143 C   0  0  0  0  0  0  0  0  0  0  0  0
    5.6628    3.1538  -17.2519 C   0  0  0  0  0  0  0  0  0  0  0  0
    5.0517   -4.2471  -18.5773 N   0  0  0  0  0  0  0  0  0  0  0  0
    3.1292   -2.8859  -18.2323 N   0  0  0  0  0  0  0  0  0  0  0  0
    6.2689    2.8531  -19.6798 N   0  0  0  0  0  0  0  0  0  0  0  0
    4.1463    2.9171  -20.6306 N   0  3  0  0  0  0  0  0  0  0  0  0
    2.8279    3.3427  -18.6992 N   0  0  0  0  0  0  0  0  0  0  0  0
    6.8848    6.3720  -25.0544 O   0  0  0  0  0  0  0  0  0  0  0  0
    7.2932   -0.9214  -23.5278 H   0  0  0  0  0  0  0  0  0  0  0  0
    6.3162   -2.6319  -22.0160 H   0  0  0  0  0  0  0  0  0  0  0  0
    6.9745    1.4959  -23.0551 H   0  0  0  0  0  0  0  0  0  0  0  0
    4.2893    3.0742  -23.3093 H   0  0  0  0  0  0  0  0  0  0  0  0
    7.7477    4.3464  -21.0531 H   0  0  0  0  0  0  0  0  0  0  0  0
    4.8624    4.6886  -25.1030 H   0  0  0  0  0  0  0  0  0  0  0  0
    8.3152    5.9640  -22.8553 H   0  0  0  0  0  0  0  0  0  0  0  0
    4.5478    0.4867  -19.6357 H   0  0  0  0  0  0  0  0  0  0  0  0
    6.4806   -3.5617  -19.9659 H   0  0  0  0  0  0  0  0  0  0  0  0
    3.0167   -1.0869  -19.3239 H   0  0  0  0  0  0  0  0  0  0  0  0
    3.4888   -4.7080  -17.2529 H   0  0  0  0  0  0  0  0  0  0  0  0
    7.3576    3.1277  -15.8939 H   0  0  0  0  0  0  0  0  0  0  0  0
    7.5602    2.1029  -17.3551 H   0  0  0  0  0  0  0  0  0  0  0  0
    7.6924    3.8895  -17.4857 H   0  0  0  0  0  0  0  0  0  0  0  0
    5.3389    4.5158  -15.5938 H   0  0  0  0  0  0  0  0  0  0  0  0
    5.6025    5.3212  -17.1776 H   0  0  0  0  0  0  0  0  0  0  0  0
    4.0329    4.5212  -16.8270 H   0  0  0  0  0  0  0  0  0  0  0  0
    6.6653    8.3901  -25.5282 H   0  0  0  0  0  0  0  0  0  0  0  0
    5.3283    7.6701  -24.5689 H   0  0  0  0  0  0  0  0  0  0  0  0
    6.9054    8.0255  -23.7859 H   0  0  0  0  0  0  0  0  0  0  0  0
    5.1636    2.3156  -16.7436 H   0  0  0  0  0  0  0  0  0  0  0  0
    3.3975    2.9416  -21.2930 H   0  0  0  0  0  0  0  0  0  0  0  0
    1.9726    3.3470  -19.2173 H   0  0  0  0  0  0  0  0  0  0  0  0
    2.8147    3.4956  -17.7111 H   0  0  0  0  0  0  0  0  0  0  0  0
  1  2  1  0  0  0  0
  1  3  2  0  0  0  0
  2 12  2  0  0  0  0
  3 15  1  0  0  0  0
  4  6  2  0  0  0  0
  4 14  1  0  0  0  0
  5  7  1  0  0  0  0
  5 14  2  0  0  0  0
  6 16  1  0  0  0  0
  7 16  2  0  0  0  0
  8 12  1  0  0  0  0
  8 15  2  0  0  0  0
  9 13  1  0  0  0  0
  9 24  2  0  0  0  0
 10 13  2  0  0  0  0
 10 25  1  0  0  0  0
 11 24  1  0  0  0  0
 11 25  2  0  0  0  0
 12 13  1  0  0  0  0
 14 19  1  0  0  0  0
 15 19  1  0  0  0  0
 16 29  1  0  0  0  0
 17 18  1  0  0  0  0
 17 23  1  0  0  0  0
 17 26  2  0  0  0  0
 18 27  2  0  0  0  0
 18 28  1  0  0  0  0
 19 26  1  0  0  0  0
 19 27  1  0  0  0  0
 20 23  1  0  0  0  0
 21 23  1  0  0  0  0
 22 29  1  0  0  0  0
  1 30  1  0  0  0  0
  2 31  1  0  0  0  0
  3 32  1  0  0  0  0
  4 33  1  0  0  0  0
  5 34  1  0  0  0  0
  6 35  1  0  0  0  0
  7 36  1  0  0  0  0
  8 37  1  0  0  0  0
  9 38  1  0  0  0  0
 10 39  1  0  0  0  0
 11 40  1  0  0  0  0
 20 41  1  0  0  0  0
 20 42  1  0  0  0  0
 20 43  1  0  0  0  0
 21 44  1  0  0  0  0
 21 45  1  0  0  0  0
 21 46  1  0  0  0  0
 22 47  1  0  0  0  0
 22 48  1  0  0  0  0
 22 49  1  0  0  0  0
 23 50  1  0  0  0  0
 27 51  1  0  0  0  0
 28 52  1  0  0  0  0
 28 53  1  0  0  0  0
M  CHG  1  27   1
M  END
> <OMEGA_C>
37zWQDjsHL8YYbXBtc3EQCGYyr/1kK7BHoHQQGa2QT9jUrPBsgilQOtUbUDMo7nBVbbjQNmwjUDx
Zq/BBWSvQIPPk0CAw8HByALuQGTnqkDSj7fBpvWkQK55Oj6WzaPB/kCxQGtbV8Dky5vBKtplQAIe
/b9/75jB+1J3QD2yf8DXxo/BLOGrQB3+l7/VsaXBCV2aQNUDDMBsLp7B4MK+QMlZZ0CkWbDB9wa3
QFtmlT+vjarBTKTTQIAlrkDasMDBxgGsQFQ+REBG6ZXBgvmAQEb/R0D2zJrB2IyxQPkYKUBmjKfB
FqblQPD1Q0Ch0IfBkNyjQBEaj0BaXoXBi2PNQFsp9kDwtsXBizW1QBzXSUDQA4rBnqehQCboh8BI
npTBoEVIQPyyOMC+25HBCpvIQNqYNkAxcJ3Baa6EQOuxOkCPC6XBOPw0QJ/uVUABmJXBj1DcQLLn
y0Bub8jBAWLpQLnia78GObzBXx7KQE1xKMC3ILDByC7fQBx7vz/xcLjBMUKJQFy/RECDebrBXe33
QJMVi0C4bKjBnZibQBAJlkAA08jBMAsFQXjZvkC417bB5oeRQHEu+T7+FZ3BMWHPQHjyY8Alup/B
EBFBQP4di79Ll5rBrkhfQPanlsDbBYrBxXHrQLwrSEBTTX7BYe3xQEGVBkAz14rBDSj2QNDteEC5
4ovBiNiqQE2BkEBXgHnB7UezQHBHqkCha4nBdg2BQN2tkECfnYbB+knVQN89BkHYOczBXYGqQDNx
9UAPjcTBFPncQGdoAEGESb7BzzulQHQzFEDl8oXBdXBZQJVCPEAKWKrBdn38P501VkANvZnB/iM0
QAi4X0BFsI3BgoXXQJQ+Hr+6UbXB58bFQGZKy7/GeK7Bz3DRQNSLQD+OPbPBgH3jQGNFjkDYXK/B
yHGlQAGGa0BxnrnBviXtQHmuq0A/iLfBHzmvQPwAk0C5w8HBPOCmQHILNj65jqPBDfmwQE+3WMBV
zpvBHAFnQFwV+7+Q85jBXFh1QBl5f8Cf5Y/B6EStQJePmL8/iKXBsfuaQFo0DMCNIJ7Bkxm/QCH+
ZkBWTbDBsYS4QHnJlD9TX6rBTL3SQC9KrkCXrcDBPMmrQDGRREDa3JXBohOBQMxNSEA135rBzEyy
QHvFKEC3dKfBZSXjQCj8OUCWRofBKoGmQAaPkUAHvIXBUgDPQOL29kAXYsXBPbqzQBR3SkD87YnB
upegQD93iMBBtJTBKsNHQCmGN8Cq+JHBHODIQHeMN0CeSp3BqCOFQIW2OECqDqXBZlU1QFPgV0Al
tJXBVavaQFoVzEDlecjBWOfpQC9Ibb/JNLzBF+zKQJDNKMB5D7DB8M3fQI3gvj+warjBXcb3QP0a
jEBxY6jB6CeKQJekQUDxdLrB0mAEQa1EwECXz7bByYibQESSlEDD2sjB/CmUQPxU9z5kt5zBPgPP
QP5oZsBXuJ/BrXtDQIdph7/YlZrBAzdcQJhjlsB4LYrBAvrnQCCoPkA6KH3BBDLsQEYp8z8qBIrB
kST3QBDxaUDgVovBlm+sQI1Ak0AsJHrB2li5QPJjqkCM0onBHESEQNPAlkCzT4fBECvWQJqUBkFM
+cvBlZSsQBYe+ECJkMPBlljhQGorAEFuP77BmT6gQCiyGUBy3IXB+oRaQPDHN0CnYarBaR79P7Op
V0Bp15nB+aA0QAFWY0Bf1Y3BJsjXQNZdGr/nPbXBLMLFQH2Oyb9yda7ByHfRQPQpRD9nLbPB/i6l
QEKRbEC2ornBzLLjQCAFjkDPcK/BbF6vQNkzk0Dq0sHBSMbtQKsVq0Ckp7fBasmlQAwfQD4msqPB
2UpmQMut+78W/ZjBYByxQD6uV8C00pvBDTJ2QKxtf8A044/BAqusQOY8l78VnKXBnKuaQDq/C8B2
LZ7BwuK+QOyWZ0COVLDBrNa3QKxYlj/IbarBoGPTQIbfrUCPy8DBnMSrQCinQ0Dl1pXBDueAQKhc
R0DlxJrB0uCxQNyaKUDieafBVpHjQDKgOEDAXYfBVdamQGSwkEAEpoXBNM7NQBn79UDc0sXBIgy0
QITzSEC764nBptBHQLr/N8Bo+ZHBfxihQAAOiMB+spTBdLLIQDTRN0BrVp3B8taEQAJ8OkD+BKXB
/Ac1QMr1VEAlf5XBIs3bQJB1y0ComsjB847qQMPiaL9aEbzBBCLLQGLlJ8C5BrDB3zLgQJLewD+G
RrjBD42JQNGLQ0CabrrBVvv3QMCyi0AneKjB952bQJL+lEBL5sjB+tgEQUdEv0Ao+LbBe2KSQHsy
+z4o+JzBwRZCQFbqiL91o5rBoznPQObBZMD/u5/Bp5ddQAF3lsAeKIrBTKToQI3bPEAxWX3BKKPs
QD7b8D9vLYrBWF/3QC3taEDJbIvB3/6sQEk5kkBG/HnBz4O5QPGkqUCbvInBxIuEQFTWlUBwKYfB
CHTVQAcPBkGkZMzBUwirQHDU9UAmdcTBZT7eQFY5AEHQfr7BPb2gQMrnF0Ap2oXBvPNZQJflO0C0
WKrBzjb8PwhfVUBempnB+IY0QM5dXkBzlY3BTTTtQJj92L5ncLHBqRHXQGVZub+iCqzBMyTjQAml
bD83bK/BvWqkQJTgVUCuM7jBp27eQNcskkCfe6/BwsepQMrZgkDtbsHBybrjQIqrqkC13bjBO8Ss
QPzPYz6IpaLBcxa0QBx7U8CO6prBLh9nQILg/L8iG5zBNplpQH9XfsB8gZLB55i2QEhuj7/xoqTB
cyqfQP/GCcDSsZ7B0w6+QAQKZUDNKq/B8fvBQLA+oD+RJKjBvTnJQIBWo0AJ3sHBByGtQCiuWEBK
xZTBoXeCQHQ8T0AzypnBh+G1QM8+LEBiqKXBJ9DlQPjDgkB6vYfBYimcQDyaokAEn4bB9RGxQFS1
tUAJntPBA6u1QMyvc0C0WYnBnaGeQB03hsAP1ZTBiBU+QET3OMA4FZbB1xXLQNu2RkB90pvBS/GH
QB3QMkBEcaPB7kg1QHxtYEBVa5XBGdfOQBN/vECz3crBBPgCQateLL9LIrfBeureQCPhHsAvkK3B
t630QMnN2j/Ua7PB+UiMQMVwJEAz8rfBC83yQHR/l0CIoajB9t+VQPlSeUAhU8jBrhz8QBMhw0DB
L7nB6oyUQFaT8D4Hz5zB3UnVQH98XsDA4ZzB0jlFQAlnjb8/9p7BO0FIQFwylsCrl43BqpjrQAqM
jECV0n7BQDH4QJsmS0BMfonBzfnvQDWInECvK43Bc7WiQI//q0CMmXzBc8+lQJ2gvECBCIzB1X5z
QIZJnECNlYfBFuq4QJ+Ey0CLPdrB2XOzQFlmlEBxZtbB+kWQQLkNvEDR19DB49SrQEMLQEAP5oPB
zg9hQOjDI0DCj6jBPV8AQH38VkAdw5nBI7UwQBdHdkD3643BSYDCQLaOIL/r5LXBwS60QAmQyL+e
bK7BMT/BQFb8PD+iarPBzVqjQMSQakBY77jBXBPkQLIbiED/9q7BjVGxQLjXjUCbnMHBcYvxQOKd
oUBwmbfBSiKhQFADZj5MG6LBXz+cQG53XMAOXJ3BU8/CQH+L5r/q7JLBqHTMQPO2gsCXDpDBPVil
QLZikr+YUqTBLJWnQHSRBsAJlZvBD3W8QLR7ZEAVjK/BHjSvQIBGlz94nqnBx9zXQEfBpECD6MDB
XYaoQDS8SkBBHZXBbzl8QLz5VUAFCJrBqP6sQFogKkBNmKbB1B3aQFYGKkBt1oXBoJe1QBXSnECU
XofBTbbsQKv+6UAQjMbBlUWxQKAXWUDyYonBSPKuQG9bjcAuj5fB/DXVQBo1M8DkXI3BUpnEQPIh
NkBZgpzBm6KAQKCnQEC0FqTBXWMzQMiQckDW0JTBPxjjQKhTvkBAZcnBk4LOQFEmdL8pkL3B0ny0
QBCUJ8DeZLDBCRjOQKuouj96/7jBETGFQCYJSUB+Z7nBnd33QCM1hUA666fB2nieQM0uj0Cj2MjB
YrsHQbXQskCtIrfBJxuTQCjZCz82pJrBqqeEQF10bMA5WaPBcePIQI/dRb9Fw5DBxbLdQGcMnMAG
EIzBtbPfQGeYNUBninrBqkvWQKThyT9rPIfBhJD1QGPeQUCceIrBdvy7QD2AokCTqn3BUjHQQByW
qUAkK4zBKrGXQAb4rEAHqonBYVX1QNMQ/EDryM3BHXnQQDyw+ECUysLBOtUDQSSM6kCU48DBNB2W
QEmrQECPsYTBs3FQQGbQP0B5QqnBd574P8xReEBz05jBGOY1QBC5gECVCo3B

> <OMEGA_E>
IG1LPjB7TD6QNU0+cJHIPlgnJj8=

> <OMEGA_NBR>
     66665

$$$$
50220828
  -OEChem-04172616093D

 48 51  0     1  0  0  0  0  0999 V2000
    6.6814   -0.5398  -22.7803 C   0  0  0  0  0  0  0  0  0  0  0  0
    5.2701   -4.2778  -18.6132 C   0  0  0  0  0  0  0  0  0  0  0  0
    6.2014   -1.5235  -21.9003 C   0  0  0  0  0  0  0  0  0  0  0  0
    5.7643   -3.3124  -19.5100 C   0  0  0  0  0  0  0  0  0  0  0  0
    6.4588    0.8236  -22.5118 C   0  0  0  0  0  0  0  0  0  0  0  0
    3.9896   -4.1260  -18.0471 C   0  0  0  0  0  0  0  0  0  0  0  0
    5.1652    3.7384  -23.2958 C   0  0  0  0  0  0  0  0  0  0  0  0
    7.0293    4.5439  -21.9788 C   0  0  0  0  0  0  0  0  0  0  0  0
    5.2262    0.2171  -20.5017 C   0  0  0  0  0  0  0  0  0  0  0  0
    3.7225   -2.0118  -19.2268 C   0  0  0  0  0  0  0  0  0  0  0  0
    5.5194    4.6641  -24.2994 C   0  0  0  0  0  0  0  0  0  0  0  0
    7.3207    5.4515  -23.0188 C   0  0  0  0  0  0  0  0  0  0  0  0
    5.4829   -1.1468  -20.7487 C   0  0  0  0  0  0  0  0  0  0  0  0
    4.9931   -2.1677  -19.8094 C   0  0  0  0  0  0  0  0  0  0  0  0
    5.7103    1.2173  -21.3749 C   0  0  0  0  0  0  0  0  0  0  0  0
    5.9203    3.6762  -22.1030 C   0  0  0  0  0  0  0  0  0  0  0  0
    3.1944   -3.0099  -18.3773 C   0  0  0  0  0  0  0  0  0  0  0  0
    5.4060    3.1586  -18.7761 C   0  0  0  0  0  0  0  0  0  0  0  0
    4.0481    3.2009  -19.3458 C   0  0  0  0  0  0  0  0  0  0  0  0
    5.5234    2.6920  -20.9875 C   0  0  2  0  0  0  0  0  0  0  0  0
    5.7266    3.3618  -17.3146 C   0  0  0  0  0  0  0  0  0  0  0  0
    0.9604   -2.1537  -18.6485 C   0  0  0  0  0  0  0  0  0  0  0  0
    6.5717    5.5039  -24.1470 N   0  0  0  0  0  0  0  0  0  0  0  0
    6.2754    2.9103  -19.7303 N   0  0  0  0  0  0  0  0  0  0  0  0
    4.1215    2.9492  -20.6270 N   0  3  0  0  0  0  0  0  0  0  0  0
    2.8894    3.4644  -18.6314 N   0  0  0  0  0  0  0  0  0  0  0  0
    1.9015   -2.9540  -17.8869 O   0  0  0  0  0  0  0  0  0  0  0  0
    7.2240   -0.8311  -23.6675 H   0  0  0  0  0  0  0  0  0  0  0  0
    5.8738   -5.1365  -18.3588 H   0  0  0  0  0  0  0  0  0  0  0  0
    6.3830   -2.5680  -22.1064 H   0  0  0  0  0  0  0  0  0  0  0  0
    6.7326   -3.4467  -19.9690 H   0  0  0  0  0  0  0  0  0  0  0  0
    6.8609    1.5742  -23.1761 H   0  0  0  0  0  0  0  0  0  0  0  0
    3.6153   -4.8677  -17.3571 H   0  0  0  0  0  0  0  0  0  0  0  0
    4.3208    3.0803  -23.4384 H   0  0  0  0  0  0  0  0  0  0  0  0
    7.6486    4.5123  -21.0946 H   0  0  0  0  0  0  0  0  0  0  0  0
    4.6514    0.5018  -19.6328 H   0  0  0  0  0  0  0  0  0  0  0  0
    3.1456   -1.1218  -19.4304 H   0  0  0  0  0  0  0  0  0  0  0  0
    4.9391    4.7044  -25.2093 H   0  0  0  0  0  0  0  0  0  0  0  0
    8.1614    6.1212  -22.9132 H   0  0  0  0  0  0  0  0  0  0  0  0
    6.8119    3.2705  -17.1607 H   0  0  0  0  0  0  0  0  0  0  0  0
    5.3950    4.3631  -17.0024 H   0  0  0  0  0  0  0  0  0  0  0  0
    5.2061    2.5999  -16.7158 H   0  0  0  0  0  0  0  0  0  0  0  0
   -0.0263   -2.1864  -18.1634 H   0  0  0  0  0  0  0  0  0  0  0  0
    1.3140   -1.1130  -18.6903 H   0  0  0  0  0  0  0  0  0  0  0  0
    0.8803   -2.5550  -19.6696 H   0  0  0  0  0  0  0  0  0  0  0  0
    3.3477    2.9340  -21.2603 H   0  0  0  0  0  0  0  0  0  0  0  0
    2.0052    3.4729  -19.0984 H   0  0  0  0  0  0  0  0  0  0  0  0
    2.9379    3.6458  -17.6492 H   0  0  0  0  0  0  0  0  0  0  0  0
  1  3  1  0  0  0  0
  1  5  2  0  0  0  0
  2  4  2  0  0  0  0
  2  6  1  0  0  0  0
  3 13  2  0  0  0  0
  4 14  1  0  0  0  0
  5 15  1  0  0  0  0
  6 17  2  0  0  0  0
  7 11  2  0  0  0  0
  7 16  1  0  0  0  0
  8 12  1  0  0  0  0
  8 16  2  0  0  0  0
  9 13  1  0  0  0  0
  9 15  2  0  0  0  0
 10 14  2  0  0  0  0
 10 17  1  0  0  0  0
 11 23  1  0  0  0  0
 12 23  2  0  0  0  0
 13 14  1  0  0  0  0
 15 20  1  0  0  0  0
 16 20  1  0  0  0  0
 17 27  1  0  0  0  0
 18 19  1  0  0  0  0
 18 21  1  0  0  0  0
 18 24  2  0  0  0  0
 19 25  2  0  0  0  0
 19 26  1  0  0  0  0
 20 24  1  0  0  0  0
 20 25  1  0  0  0  0
 22 27  1  0  0  0  0
  1 28  1  0  0  0  0
  2 29  1  0  0  0  0
  3 30  1  0  0  0  0
  4 31  1  0  0  0  0
  5 32  1  0  0  0  0
  6 33  1  0  0  0  0
  7 34  1  0  0  0  0
  8 35  1  0  0  0  0
  9 36  1  0  0  0  0
 10 37  1  0  0  0  0
 11 38  1  0  0  0  0
 12 39  1  0  0  0  0
 21 40  1  0  0  0  0
 21 41  1  0  0  0  0
 21 42  1  0  0  0  0
 22 43  1  0  0  0  0
 22 44  1  0  0  0  0
 22 45  1  0  0  0  0
 25 46  1  0  0  0  0
 26 47  1  0  0  0  0
 26 48  1  0  0  0  0
M  CHG  1  25   1
M  END
> <OMEGA_C>
1s3VQAgyCr8SPrbB1KSoQCLkiMDZ55TB0HHGQIACw7/YM6/B9nS4QPT9U8CEFJzBxq7OQDHWUj8W
GLTBZVZ/QO4HhMB4YJDBKEmlQG1Cb0DeXbrBtO/gQH9nkUCK1K/BJj2nQOdYXj6GA6TB2zxuQEzB
AMBw0JnBQJ+wQClAlUAdZcLBPEPqQM5yrkBxJrjBFHSvQOLKkr9j/aXBNsefQPS6CsC7eZ7Btrq2
QBLSmz/D/6rBZnO9QIlGa0Di0rDBWnFMQNihQMCmBJPBoP2sQMgmSkBbNZbBMYqBQArcTEAmxJrB
0L+wQCRKLEB55qfBPkC3QMsnV0BmhIrBudx1P6vWCcAoMJXBokvSQJofsEAVLcHBTtDIQPVCOkCT
153BCuODQBC/PEAcBKXBx+s4QA24XUAoDZXByGPzP3AOPcBMGI/BsyrnQNnEVL8UV73BD/a7QA5e
pMDE3pLBkkHMQCtaJMDY2bDBpnHXQPOWXMCAwJ/BzYzbQKJ+yT+caLnBrmFnQELEm8BU24rB7EOK
QDYkRUDNgbvBi8H0QJNkkEC5wajBZdiUQGhzAD8CEJ3BuFBJQK6Wj79mcZvBIA2eQBSKlkCqrMnB
R5UCQXrgw0A5TrfBX/vZQCFQUUAhSYnBKqSsQH2ei0D1BIjBRpimQPFkJkAAuoXBu1/XvAfuC8CP
TpHBwTGoP0t1jr+4hZXBRFlhP3qFI8BEW53BNEBWQC/GO0ADFarBjVQAQJ9DXkCFyZjBZwY8QGVV
aUCdMY3B81LaQKryBb/BzLTB25U1QBzuLsBbLJPBUVTFQDPBvb+Ve67BmclYQPLY5783dJrB3cLT
QFMWWT8Q5bLB+RZkQJ5/eMBKRJDB0xngQDxNk0CAJrDBUw+mQDvNa0CdqbrB/BijQA4Zlz7ZU6TB
z5GrQAwJTsCDTZzB9cvoQHuNr0AprbjBT6KwQJTwkkDC4cLB8oKpQOJdib+NMKbBwP+UQL6YA8Cz
E5/BfF+3QHptoj/0uarB1sC9QIxIbEBPCbHBJvWaQGOcg8B2oZTBSF6tQHwFTUBEM5bBbNWBQMA+
TUBPvprBCmOxQMiyL0Be36fBVoO3QKP9WUDfgIrBa4bgQNtwnsD0NZDBdzfRQP8zr0DZxsHBGGPJ
QAE/P0Cd253BDX2EQCTaQEBbEaXB1bI4QE18WEB3+5TB07WyQAyppcCC3pDBVozvQMzdVr/jIbvB
kMTtPwfDI8Dj0I/BlHTKQNwxIsBW96/Bw881QOeIar8VhJzBQmrkQPF8yj+GrLfBpv9IQAPfksBo
rorBpojzQNH1k0DvAanBSP+LQAg0P0A1uLvBGVCOQKqqGz8N5Z3BpOjJQN6bW8CcE6DB2XEBQScF
xkCQ77fBXl6eQLGlkkBaN8rBXlPaQOMvVkCXSonB5PSrQG6hjED+8YfBeKOnQG/6J0Clv4XBIkzw
QLxou8A3I43BuxPtQCPxlsA1N5jBKezmQCV9g8D0x4rBJwJYQMm6QkCjNqrBBTQAQEZ8V0A1vZjB
wRw7QCiYYUDJEY3B7IbGQFB8B78cGbjBCB6CQN8sj8DzCZvBzYq6QH/OxL+u3rDBkgWOQCMZX8As
eKLBZEfDQNrQUj8bKLXBeL6GQFOYh8C//Y/BZt6gQAjngUBgA7jBBhXpQBDUfkCd/7DBOcanQEuB
Jz6PsqPBvpGjQGeRAcD1x5PBgvevQHpHnEDVU8DBz/H1QJbZmUBSi7nBDCarQDpRmb/Il6bBSb2e
QOISEMBp4J7BitazQACZlz8Y3qrBdpe9QJ+HZ0ANCrDBAnKXQIPKQMBZP4zBC4yrQLtjUkB39pXB
OA+AQLw7VED/iJrBKumuQHZfKUBVVKfBBZ62QPfCaUBckYrB+dmrQG02yL/6/HrBcqXZQITqp0C+
98DBN+jGQNC9OEDXR53BB/eBQC3rOUD2c6TBKnk2QIeLbEAbIpXBU1ObQPCYNcADQIHBwEbSQMhc
S78U8b/BEs1qQOBWrcAvz53Bfxm9QD7TJMBXLLPBa2OKQITnasAR76rBe5TMQCXtyz//wLrBxdp6
QNL/n8CPVYrB+Dl/QBAgcUBdvLfB7SAAQVtXaED8PKvBe8WbQHNM2j5x35vBiKmwQB0bi7+OA5HB
5s2ZQBh/p0CvVcbBdJELQfMeo0CQMbrBWD3ZQBAKYkCoTonBmoqtQINYlkBMDYnBYx+lQAaVP0BD
C4XBjimtQBqfyL+FZmnBOTTMQBshtL/ouYDBG7aWQAPAQL9uNoDB2LZRQK88MkCnUanBALD7P7rE
akCU2pjBrQM6QNbYf0DChI3Bd/nIQM2SFb+gD7fBkm9SQNiqYcBduJPBA++2QA5fx79FZrDBmlNe
QCyPH8DlRZvBrBrGQBHmRT9wTLTBOteMQFJXh8Din4/BKcLlQNOIiUAfcK/BnEemQBo5c0DoybnB
DRidQHS6PT4QVqTBDQy8QNDlO8AgFpvBqRTzQHPtpEAWxbfBNb+1QHUnlUCN2MHB/JuhQJjolr8i
9qbB78OYQIzODcAeC5/BgoevQOMPlz+JAKvBrEa+QIxyZ0CwUbDBOJq2QAzgecCSH5PBFAmrQHI7
SUAy6pXBqvh/QEqrUkBSlJrBeRSuQHT+KUC5kKfBHJK1QPgLVkA2PYrBl0rfQFnCiMCLU4PBUETb
QK9mqkDrucDBQjrGQPb2MkCYb53BgROCQEYYQkCxz6TBW6g2QI4xaUCYApXBDKXaQM1ej8A/u47B
Dh3ZQIu4YL/LVL7BsrASQEjhccCfEJHBRWO5QGmIJsBugrLBUlEoQMv59b/QIZ7BOT3VQDwDwj9C
TbnBhS2IQIyBoMCE0YnBTZL5QGdChUCgcKjBZDmIQBktUkCw2brB5pmLQHpv8j4bQJ3Bu6DbQHdT
L8BpOZ7BQH8IQebztUCH/bbB4ESjQBlnmUDSEcnBQtbXQAfZSUCY7IjB8PutQP8cjEDV6YfBII+i
QHVpKUBlXoXBDLv8QDN3mMAShoDBLh3hQP+CTMAUpYHB84zDQJqGlsBaSX7BNCxTQExTRUDb8anB
O279P0znbUDs2ZjBTrM5QHi8dECIJo3BbgXKQLXKGL8AqLbBHorJQN/vi8Aq7pfBWGq+QBifxr/l
Ba/BtwWxQLADXsAI753B98DFQPOMRD+eW7TBj0LkQNraecDnro/BF5OmQMYRa0DbXLrBR4HhQFCN
j0CNnq/ByxqnQJnaXz5X9aLBgfbLQFhw0L/6+5LB2y60QNjTkEC+q8LBntHsQESpqkDzL7jBgeGu
QKThkr9j6qTBOZS0QAhhBcAZ+ZvBWT2zQAr0mD/QlKrBYaK9QG6UaECLo7DB+7nkQLNuIsBu5IzB
qJmsQCdCTUD7BZbBkRGBQMD3T0AJj5rBp6SvQEWaK0Cam6fBok+3QDTzXEBWaYrB0cH4QAfAVb+D
BIDBu37WQB/eqkDZesHBoRLIQACoOUCemJ3BRzeDQO9AP0DZyaTBRuc3QGBJYUAk5ZTBj+D/QLlB
CcA/qYTBs0nWQOFLab/5VL7BAOjHQDjGrcDSo5nBdVbBQHuYJsBe3LDBH36bQFI9dcB+CaTBBKrQ
QIgkwD+TFbrBop/4QDwfk8BzcovBdqGKQKZKQ0AfbLvBDhr0QESfj0A9VqjBzs2XQBPUBT9zmpvB
8erKQOrIFb9yxJDBF9+iQPb5kEAPJsrBB/oDQezHv0CgUbfBFvnZQNV4VUBaMonB1KytQIAjj0CC
L4jBghSmQI6KLkByY4XB7i0IQVH2J7+PS3PBEzT8QDOfhr20P4bB1kvYQNv8Sb+qRHnBtgVVQKjK
P0Bu36nBAdL+P6SpYUB4p5jBANI6QPdobUBjDI3BBpvJQN6pFL/WxLbB07zKQDuOi8CgxZfBlu++
QMHJxL9MDq/BTWqyQBhsXMA8sp3BGy/FQAa+SD/1drTB7GTnQJMOesDL34/BnOLjQBtPjEDnHbDB
VmKkQBOjcEAIA7rBlp6oQPK3aj592aLBaGHRQMlwzr+lV5PBiPzuQLmsp0BeprjBMc+xQCm7k0Dj
UMLBFYewQMkKkb/Y2aTBu623QOPvA8By8pvByp6zQL5mmj+MkarBQ4S9QK3saEAJqbDBTUTqQId9
IcAMa43BR3CsQC5/TUDpB5bBNeOAQBCMT0BOjZrBCZ2vQOIdLEA9nqfB5RK3QO+DXEDOZ4rBad0R
QYBzOsCVtoDBhTbWQMQJq0DmgcHBDwDIQMTbOkCinp3BbhKDQG3ZPkDhx6TBxX83QCl2YEAp4JTB
HwsDQVGa/7+jzYXBGEPVQEfQZL/jgb7BUnnHQMNurcAWRpnB+7nBQIOrJcBX6bDBzrybQAXzcsCY
k6PBjzvPQFWCwj+PRbrBm077QBGxk8DEqIvB84n4QDyZiUD/OKnBrAeHQG+xTEC7yrrBVBeaQOXl
Bz8FZJvB7OfRQDE8EL/vTZHBLPkFQUBpukBqHLjBF6aeQCU0lkDbesnBEcPZQJh6VUBEMonB6i+t
QCnEjkCJG4jB3AOmQBd9LUCSb4XBRcsbQb5UF8DV2HXBwdgIQSTObMDnD3nBmTIcQXK8V8AV04bB
36xUQInZPkBF26nBT+79P0KHYEAhoJjBem46QOCZbECIB43B

> <OMEGA_E>
WJDrPixV7T7m6SE/mNoMP1bATT9SBFA/

> <OMEGA_NBR>
     71923

$$$$
50220829
  -OEChem-04172616093D

 44 47  0     1  0  0  0  0  0999 V2000
    6.5076    5.5093  -24.1351 C   0  0  0  0  0  0  0  0  0  0  0  0
    5.4475    4.5968  -24.3027 C   0  0  0  0  0  0  0  0  0  0  0  0
    7.2945    5.4642  -22.9675 C   0  0  0  0  0  0  0  0  0  0  0  0
    6.7584   -0.6122  -22.5807 C   0  0  0  0  0  0  0  0  0  0  0  0
    3.0701   -3.0243  -18.2664 C   0  0  0  0  0  0  0  0  0  0  0  0
    6.1763   -1.5767  -21.7412 C   0  0  0  0  0  0  0  0  0  0  0  0
    3.5276   -2.0409  -19.1585 C   0  0  0  0  0  0  0  0  0  0  0  0
    5.1548    3.6602  -23.2899 C   0  0  0  0  0  0  0  0  0  0  0  0
    7.0036    4.5303  -21.9514 C   0  0  0  0  0  0  0  0  0  0  0  0
    6.5290    0.7570  -22.3555 C   0  0  0  0  0  0  0  0  0  0  0  0
    5.0828    0.1933  -20.4734 C   0  0  0  0  0  0  0  0  0  0  0  0
    3.9022   -4.1207  -17.9592 C   0  0  0  0  0  0  0  0  0  0  0  0
    5.5789   -3.3256  -19.3911 C   0  0  0  0  0  0  0  0  0  0  0  0
    5.3441   -1.1798  -20.6728 C   0  0  0  0  0  0  0  0  0  0  0  0
    4.8050   -2.1910  -19.7368 C   0  0  0  0  0  0  0  0  0  0  0  0
    5.9142    3.6305  -22.0926 C   0  0  0  0  0  0  0  0  0  0  0  0
    5.6730    1.1766  -21.3092 C   0  0  0  0  0  0  0  0  0  0  0  0
    5.3994    3.1667  -18.7551 C   0  0  0  0  0  0  0  0  0  0  0  0
    4.0401    3.2049  -19.3224 C   0  0  0  0  0  0  0  0  0  0  0  0
    5.5085    2.6644  -20.9572 C   0  0  1  0  0  0  0  0  0  0  0  0
    5.7287    3.3994  -17.3003 C   0  0  0  0  0  0  0  0  0  0  0  0
    5.1290   -4.2552  -18.5165 N   0  0  0  0  0  0  0  0  0  0  0  0
    6.2646    2.8951  -19.7062 N   0  0  0  0  0  0  0  0  0  0  0  0
    4.1119    2.9531  -20.6032 N   0  3  0  0  0  0  0  0  0  0  0  0
    2.8791    3.4622  -18.6101 N   0  0  0  0  0  0  0  0  0  0  0  0
    6.7166    6.2421  -24.9004 H   0  0  0  0  0  0  0  0  0  0  0  0
    4.8584    4.6145  -25.2078 H   0  0  0  0  0  0  0  0  0  0  0  0
    8.1231    6.1469  -22.8500 H   0  0  0  0  0  0  0  0  0  0  0  0
    7.3853   -0.9238  -23.4031 H   0  0  0  0  0  0  0  0  0  0  0  0
    2.0903   -2.9417  -17.8198 H   0  0  0  0  0  0  0  0  0  0  0  0
    6.3665   -2.6257  -21.9141 H   0  0  0  0  0  0  0  0  0  0  0  0
    2.9126   -1.1858  -19.3971 H   0  0  0  0  0  0  0  0  0  0  0  0
    4.3449    2.9592  -23.4273 H   0  0  0  0  0  0  0  0  0  0  0  0
    7.6132    4.4992  -21.0605 H   0  0  0  0  0  0  0  0  0  0  0  0
    7.0086    1.4924  -22.9844 H   0  0  0  0  0  0  0  0  0  0  0  0
    4.4247    0.4995  -19.6737 H   0  0  0  0  0  0  0  0  0  0  0  0
    3.5531   -4.8698  -17.2640 H   0  0  0  0  0  0  0  0  0  0  0  0
    6.5542   -3.4523  -19.8374 H   0  0  0  0  0  0  0  0  0  0  0  0
    6.8145    3.3071  -17.1502 H   0  0  0  0  0  0  0  0  0  0  0  0
    5.4027    4.4084  -17.0075 H   0  0  0  0  0  0  0  0  0  0  0  0
    5.2086    2.6524  -16.6827 H   0  0  0  0  0  0  0  0  0  0  0  0
    3.3406    2.9565  -21.2396 H   0  0  0  0  0  0  0  0  0  0  0  0
    1.9955    3.4653  -19.0783 H   0  0  0  0  0  0  0  0  0  0  0  0
    2.9252    3.6446  -17.6279 H   0  0  0  0  0  0  0  0  0  0  0  0
  1  2  1  0  0  0  0
  1  3  2  0  0  0  0
  2  8  2  0  0  0  0
  3  9  1  0  0  0  0
  4  6  1  0  0  0  0
  4 10  2  0  0  0  0
  5  7  2  0  0  0  0
  5 12  1  0  0  0  0
  6 14  2  0  0  0  0
  7 15  1  0  0  0  0
  8 16  1  0  0  0  0
  9 16  2  0  0  0  0
 10 17  1  0  0  0  0
 11 14  1  0  0  0  0
 11 17  2  0  0  0  0
 12 22  2  0  0  0  0
 13 15  2  0  0  0  0
 13 22  1  0  0  0  0
 14 15  1  0  0  0  0
 16 20  1  0  0  0  0
 17 20  1  0  0  0  0
 18 19  1  0  0  0  0
 18 21  1  0  0  0  0
 18 23  2  0  0  0  0
 19 24  2  0  0  0  0
 19 25  1  0  0  0  0
 20 23  1  0  0  0  0
 20 24  1  0  0  0  0
  1 26  1  0  0  0  0
  2 27  1  0  0  0  0
  3 28  1  0  0  0  0
  4 29  1  0  0  0  0
  5 30  1  0  0  0  0
  6 31  1  0  0  0  0
  7 32  1  0  0  0  0
  8 33  1  0  0  0  0
  9 34  1  0  0  0  0
 10 35  1  0  0  0  0
 11 36  1  0  0  0  0
 12 37  1  0  0  0  0
 13 38  1  0  0  0  0
 21 39  1  0  0  0  0
 21 40  1  0  0  0  0
 21 41  1  0  0  0  0
 24 42  1  0  0  0  0
 25 43  1  0  0  0  0
 25 44  1  0  0  0  0
M  CHG  1  24   1
M  END
> <OMEGA_C>
7j3QQAdMsEC3FMHB/lGuQNQYk0AGbMLB3GzpQMvarkBXvbfBN0XYQAm6HL86pbTBJX1EQI6NQcCg
IZLBmKTFQHzQyb/s7a3BjsNhQJyeAsCCRJnBPPSkQGZBakCyUbrBeB3gQN73kECLnK/Bae3QQAHJ
QT/917LBLqaiQCDzRT59yaPBfb15QJTcg8B3rI/BVoayQDvWVMD4IJvB2QKrQEcDl7/xYaXBK8KZ
QN84DMDx5J3By0C9QFFZaECQvbDBBIm1QKSblj9CearBB8isQIurSkBYCpbBHUiBQMMcTUBPlJrB
yUWwQDGGKkBIqKfBelG3QOCPWUDuZorBhSCkQIAqiMC7IZTBz3fIQBVKOUBYpp3B1JSDQDgAPUBV
06TBjkM4QOaTXUBp4ZTBYu7WQIS/x0D8M8fBVHibQL6pk0CIqcnBTvgBQU6zxEDEzLbBVlTsQIB8
bL+RObvBR8cFQClEPMDyjo7BI7rLQLwKKMAAUK/BVWg6QKrHl79OLZvBDwmLQEJjPUAja7vBjJ/z
QND5j0Dhe6jBukbgQF0Fvz8J4LfBy5aNQEq//z63Y53BxmZjQF3Vm8CSHIrB2LvRQPjyXMDvsp7B
aRDaQAWoU0CtM4nBmeKsQEgRjUBVD4jBeKymQHHAKUAndoXBB8xVQEM3PUC26qnBJ23/P2jHXUBV
oJjBhjY7QE1BaUAABo3BlirQQI0KsECmLsHB123pQNfIrkDm2bfBU0euQMbFkkDNecLByi7XQA0d
Hb+xwrTBm8FFQMDLQMCX4ZHBXT3FQDKFyb9m5a3BooNjQG5WAcAx6ZjBdEPgQCf9kEB9sK/Bb/uk
QIj3aUDYU7rBRiDQQGSmQT8Z8rLBs3SjQBkgTj6skaPBp+B5QNkrhMAZr4/BLZKyQL6LVcAbJ5vB
sX2rQJQhlr8OMqXB9E+aQFS4C8Dmr53BbmC9QLxoaECMwrDBorW1QHMslz+oZarBW5ysQFSGSkCK
AJbBaTSBQL4XTUCUlprBwnCwQK/sKkAkoqfBIsS2QF0sWEBJUYrB7OqjQAHTiMBcRZTB/XvIQJAG
OkCpmp3BKbGDQFFEPUC+1qTBOv43QF6hXUBm6pTBtMXWQPtmx0DdVMfBFfMBQeu0xEDQ8bbBkmeb
QMklk0CDtsnBMX/qQAfcbb9hd7vBW4kHQJTdOsAgMY7BcSzLQKzxJ8BgSK/B2AA9QOE3k7/qoJrB
EefzQGYRkEBvlajBsAmLQMMWPUCvYbvBn/HeQH2Svj9WGrjBbSGPQDnnAj9GCZ3BJBxjQAdnnMBc
OIrB6pbRQD8cXsAlz57B4HnZQIA3UkDKDonByzesQA47jEAE44fBZP6lQJrKJ0AHfoXBNDFWQCKX
PUDQ9KnBBBz/PwEiXkD2r5jBbr86QNoOaUA9DY3Blm3OQBbAsUAc98DBJ4fnQEvqsEDLmrfBUJSt
QIhpk0BeZMLB3DbbQOi+Fr9GuLTBUq2gQDDzh8ACWpTBqeTHQAxYyL/LOa7BZzuyQMxNVcBqoZvB
1ivfQNN7kkAWiq/Buy2lQOjHaUCKWrrBF4vTQMojRz+v17LB+P2jQEAjQD6kHaTBhvFuQOpzgMCN
KpDBJBdiQPplAcBj8ZnBMGisQIwol79XzqXBaDmaQDZiDMBJep7BDF+9QP4KaUCLwbDBj0K3QKI1
lz+bm6rBzwqtQJaXSECFDJbBxYyBQC7DSEAomprBRh2xQMZjKkB9tqfB7zq3QNpIV0DgYorBY9hA
QJQQO8CCAJPBVQnJQCKxOUCgrJ3BtzOEQPTzOkBC5aTBqyg4QOBXVUAn4ZTBu1zUQHKcyUB1CcfB
pJ8AQT6mx0A7mrbB+NCaQLqHk0DVpcnB/gvwQFmlY79lLrvBG4yyQFD3o8Bd+pHBUhjOQAgqJ8Co
rq/B/p3RQJbdX8CX/57BmJnyQED4kUAmZajBIxeMQJEpO0BWhLvBk07jQMrYwj/itLfBkYWOQHel
9z7rxZ3B0+5TQLEPl8A+korBG+c8QHFck79/EpzBEgzaQNKnU0BxLInBU6+rQDR2i0DL+IfBMF+n
QBX8JUBmg4XBVEpXQB2PO0A6BqrBkmX/Py9FVEDppJjBXo46QAR+X0CG/IzBdEbOQHs1skDs2MDB
oVCtQPz8k0D0Q8LBlKfnQA4OsUDkiLfBjbPaQLGNFr9A1rTB8YagQIIviMADeZTB3onHQIYzyL/o
Tq7B5gmyQL62VcDWv5vBvxOlQEiTakAwQ7rBYHPfQMVwkkBogK/B9DLTQNlyRz/67rLB0UykQAA0
Qj6dEqTBLxlvQP52gMAdLZDBOnpiQAfoAMCe2pnBb2msQB3xlr800aXBzjeaQExNDMCLfZ7Bk4O9
QH5HaUBjtLDBSF63QPhslz+wmqrBqtusQAqyR0B4AJbBp3qBQNpfSED/nZrBIkexQJdzKkBwr6fB
y6u2QJQAVUAFS4rB5VBBQNKgOsBp6ZLBWAfJQEV8OUA/nJ3BtVKEQDDYOkAc6aTBUtc3QBYyVUCd
8ZTBdxXUQJk5ykBl48bBiliaQFFWlEC1fMnBfbwAQYGvx0B3i7bB0EjvQMihY7+XWLvB/EKyQKRm
pMA8L5LBmZbNQLwbJ8AUy6/BE0LRQM2aYMA4Mp/BHuyLQPIXPEDia7vBLxnzQG6rkUByZajB1Lzi
QGzwwj/q2LfBaTWPQCwm+T5fp53B4S9UQFwVl8CMk4rBMos9QCeqkb+h55vBu3DZQLYHUUB6A4nB
cCKrQN02ikBPyofBA5SmQIQ/I0CzioXBmLZXQDSJO0DuEKrBpxn/P3uLVEDbv5jBFe45QAsZX0Bh
C43B6ezUQDP1p0D1bsHBExvYQEexdkAGv8LB0TvGQCYOuUBnrrfBGu2ZQJjHcL8+vLHBBdobQfrF
XsDHDKXBdFjBQNZVyb9qyK/BzsYHQRV8OcDv7qbBwI7MQNR7P0BeVbrBt6e6QJ+VnUDOPK/B+vuT
QB8yzz4j2a7BZVPdQK/m/T5cKKjBCFIuQXoIK8BAWaXB7OYZQRj4Q78bOKnBhnnjQIVUW78QCKvB
U6IGQWjLwb8AEKnBbJu9QGE3YUDecrDBbl+1QLMlkD+Iz6nB9GmsQPDoU0Af7ZXBba2AQLfIT0AM
UZrB4cqvQJYqJ0B/JKfBv423QDDSbkBOqYrBtSUtQYQXrL8bZ6fB5wjIQD9gPUCIVZ3BE++CQFc0
OUCMXqTBA+I2QI1sYkBDv5TBAcHdQCQUvUAA6MfBwW7jQDaJXEC+OcrBvNfDQChM20A6rbbBICuA
QCCwvr/4dbXBzyMdQTM0kcCGY6PBt5rFQEgYJ8Cn67HBl9ryQNb3X8CiwabBNBDPQHoh9j/AY7vB
L26vQD7oqkCIxqfBp6JrQIMDZD9lerDBG2f3QInrhj/SqaTBPMM9QXfTR8D+56PBWTUZQZ/elj6M
1KrBv3naQKKxbED+lonBnwmsQDIxmEB/QInBlkCoQG3+QkBM74TBDTBUQJ/fNEAyYqnBSXD8PzwX
X0BdcZjBoNk5QH0yc0AhCY3BmaGLQNU5bkBgx47BlNO2QGfQcEBM+JHB0z5YQAFJUECd6ZXBj6Hk
QOmceL+YMLbB77uhQIM7h8Do6ZPBzRLSQOCR679qqq7BHNS1QHlNWcAJcZvBi5jCQPGKVUBNSpzB
G1VvQGQSNkBoTKDB96HZQFicyD7iQrbBhd2oQMBZgjyOVqfB3B1wQKNXesCxZ5DBna9rQPi/AMDc
YJvBL8qzQPBJrb+CNqfBTK6fQHvfEMCdS5/BcAqjQL9nOUDYo6PBlVW8QE+HaD8Vqa7B3JqcQAQY
XkBk9b3B+UPJQLPTdEAicrvBrkewQOJ9GUA1zK7BrNCDQOlXf0DZdMfBDdhFQH/FNMB+H5TBRfeN
QINtKEDou7bBjWjUQJJ6TUD6qbLBhj7jQHo/lUAnb8HBB6mCQK6agUCg24bBs/XOQAHhg0CVfYzB
NyMWQLJsTUBMapPBXWf7QBAErb+F7rvBFwmyQJQdo8D21pDBdfraQDSROMCPk67B67vVQLmXZ8Cr
PZ7Btd7jQFAOVkDQn57BkMU+QCdQH0DLv6XBR53nQPxohj/lJrzBtU2RQP70xj6/w6HBrEJRQMmt
kcBCnorB/TlJQMHpkr96Q57BoOBGQNa3Y0D1a8fB3puBQKDAokDh/MbBi1eUQM8MbUDQ4c7BbAHx
QCLyUUAjHq/BNqsAQVXhmkBXG7/B/eLXQPz3okCTFMjB

> <OMEGA_E>
EEKNPpiwjj7kGJY+cM+WPvz6fT8Y1oM/

> <OMEGA_NBR>
     76876

$$$$
50157432
  -OEChem-04172616093D

 50 54  0     1  0  0  0  0  0999 V2000
    6.6194    5.4667  -23.9902 C   0  0  0  0  0  0  0  0  0  0  0  0
    7.6220    5.1039  -23.0734 C   0  0  0  0  0  0  0  0  0  0  0  0
    5.3144    4.9650  -23.8389 C   0  0  0  0  0  0  0  0  0  0  0  0
    7.3193    4.2524  -21.9961 C   0  0  0  0  0  0  0  0  0  0  0  0
    5.0062    4.1158  -22.7613 C   0  0  0  0  0  0  0  0  0  0  0  0
    5.9999    3.7652  -21.8086 C   0  0  0  0  0  0  0  0  0  0  0  0
    6.3510    3.2555  -19.3303 C   0  0  0  0  0  0  0  0  0  0  0  0
    4.0888    3.4492  -19.0576 C   0  0  0  0  0  0  0  0  0  0  0  0
    7.2662   -1.3065  -20.4985 C   0  0  0  0  0  0  0  0  0  0  0  0
    4.8274   -1.4893  -21.1382 C   0  0  0  0  0  0  0  0  0  0  0  0
    6.5540   -0.9020  -22.8830 C   0  0  0  0  0  0  0  0  0  0  0  0
    5.6176    0.4128  -19.7041 C   0  0  0  0  0  0  0  0  0  0  0  0
    7.3470    1.0223  -21.4613 C   0  0  0  0  0  0  0  0  0  0  0  0
    4.9099    0.8341  -22.1064 C   0  0  0  0  0  0  0  0  0  0  0  0
    5.8127   -1.0805  -20.0201 C   0  0  0  0  0  0  0  0  0  0  0  0
    7.5457   -0.4777  -21.7736 C   0  0  0  0  0  0  0  0  0  0  0  0
    5.0985   -0.6646  -22.4180 C   0  0  0  0  0  0  0  0  0  0  0  0
    5.6527    2.8286  -20.6304 C   0  0  2  0  0  0  0  0  0  0  0  0
    5.8863    1.3014  -20.9711 C   0  0  0  0  0  0  0  0  0  0  0  0
    5.5390    3.9694  -17.0529 C   0  0  0  0  0  0  0  0  0  0  0  0
    5.3319    3.4724  -18.4184 N   0  0  0  0  0  0  0  0  0  0  0  0
    4.2291    3.0222  -20.2864 N   0  3  0  0  0  0  0  0  0  0  0  0
    2.8687    3.7759  -18.4869 N   0  0  0  0  0  0  0  0  0  0  0  0
    7.5478    3.2437  -19.0633 O   0  0  0  0  0  0  0  0  0  0  0  0
    6.8514    6.1303  -24.8101 H   0  0  0  0  0  0  0  0  0  0  0  0
    8.6268    5.4801  -23.1969 H   0  0  0  0  0  0  0  0  0  0  0  0
    4.5479    5.2322  -24.5512 H   0  0  0  0  0  0  0  0  0  0  0  0
    8.0983    3.9665  -21.3048 H   0  0  0  0  0  0  0  0  0  0  0  0
    4.0043    3.7264  -22.6570 H   0  0  0  0  0  0  0  0  0  0  0  0
    7.9620   -0.9971  -19.7047 H   0  0  0  0  0  0  0  0  0  0  0  0
    7.4137   -2.3739  -20.7198 H   0  0  0  0  0  0  0  0  0  0  0  0
    4.9550   -2.5588  -21.3615 H   0  0  0  0  0  0  0  0  0  0  0  0
    3.7971   -1.3058  -20.7993 H   0  0  0  0  0  0  0  0  0  0  0  0
    6.7471   -0.3091  -23.7892 H   0  0  0  0  0  0  0  0  0  0  0  0
    6.6943   -1.9698  -23.1067 H   0  0  0  0  0  0  0  0  0  0  0  0
    4.5842    0.5756  -19.3642 H   0  0  0  0  0  0  0  0  0  0  0  0
    6.3163    0.7049  -18.9062 H   0  0  0  0  0  0  0  0  0  0  0  0
    8.0547    1.3234  -20.6748 H   0  0  0  0  0  0  0  0  0  0  0  0
    7.5396    1.6086  -22.3719 H   0  0  0  0  0  0  0  0  0  0  0  0
    5.1109    1.4184  -23.0164 H   0  0  0  0  0  0  0  0  0  0  0  0
    3.8730    1.0059  -21.7819 H   0  0  0  0  0  0  0  0  0  0  0  0
    5.6212   -1.6807  -19.1184 H   0  0  0  0  0  0  0  0  0  0  0  0
    8.5776   -0.6532  -22.1117 H   0  0  0  0  0  0  0  0  0  0  0  0
    4.4008   -0.9705  -23.2114 H   0  0  0  0  0  0  0  0  0  0  0  0
    4.5688    4.0516  -16.5410 H   0  0  0  0  0  0  0  0  0  0  0  0
    6.1857    3.2702  -16.5025 H   0  0  0  0  0  0  0  0  0  0  0  0
    6.0179    4.9589  -17.0917 H   0  0  0  0  0  0  0  0  0  0  0  0
    3.4693    2.8489  -20.9130 H   0  0  0  0  0  0  0  0  0  0  0  0
    2.0279    3.6904  -19.0213 H   0  0  0  0  0  0  0  0  0  0  0  0
    2.8293    4.0971  -17.5407 H   0  0  0  0  0  0  0  0  0  0  0  0
  1  2  1  0  0  0  0
  1  3  2  0  0  0  0
  2  4  2  0  0  0  0
  3  5  1  0  0  0  0
  4  6  1  0  0  0  0
  5  6  2  0  0  0  0
  6 18  1  0  0  0  0
  7 18  1  0  0  0  0
  7 21  1  0  0  0  0
  7 24  2  0  0  0  0
  8 21  1  0  0  0  0
  8 22  2  0  0  0  0
  8 23  1  0  0  0  0
  9 15  1  0  0  0  0
  9 16  1  0  0  0  0
 10 15  1  0  0  0  0
 10 17  1  0  0  0  0
 11 16  1  0  0  0  0
 11 17  1  0  0  0  0
 12 15  1  0  0  0  0
 12 19  1  0  0  0  0
 13 16  1  0  0  0  0
 13 19  1  0  0  0  0
 14 17  1  0  0  0  0
 14 19  1  0  0  0  0
 18 19  1  0  0  0  0
 18 22  1  0  0  0  0
 20 21  1  0  0  0  0
  1 25  1  0  0  0  0
  2 26  1  0  0  0  0
  3 27  1  0  0  0  0
  4 28  1  0  0  0  0
  5 29  1  0  0  0  0
  9 30  1  0  0  0  0
  9 31  1  0  0  0  0
 10 32  1  0  0  0  0
 10 33  1  0  0  0  0
 11 34  1  0  0  0  0
 11 35  1  0  0  0  0
 12 36  1  0  0  0  0
 12 37  1  0  0  0  0
 13 38  1  0  0  0  0
 13 39  1  0  0  0  0
 14 40  1  0  0  0  0
 14 41  1  0  0  0  0
 15 42  1  0  0  0  0
 16 43  1  0  0  0  0
 17 44  1  0  0  0  0
 20 45  1  0  0  0  0
 20 46  1  0  0  0  0
 20 47  1  0  0  0  0
 22 48  1  0  0  0  0
 23 49  1  0  0  0  0
 23 50  1  0  0  0  0
M  CHG  1  22   1
M  END
> <OMEGA_C>
ANLTQF3vrkDr67/Bt+fzQGlTo0A6lrjB5w+qQE3hnkACtr7BnTfqQLYTiEDq96/BAjOgQPG0g0Af
F7bB+v6/QFL5cED4d67BZDvLQJpaUEB/pJrBw9eCQOi/XEDvdZjB6YToQDs8p78F/aPB/nmaQD2i
vr/8GqnBE7rRQNnnZr9cELfBqcOzQGBV0z7ooZ3BpBrrQJLbgj/AsKvBlB2dQNmFVT/x2bDBjgG6
QDRMir8lKaDBXHbxQOqP9L5uMK7BSSejQMUhKr8PWLPBpuK0QCcINUARC6XB+Vy8QH2Vpj/KxKfB
Lj+xQBwKfkBQbIjBjp6qQM47XkDXWJPBt1SHQJRrQUCQSqLBNJk3QKWocUAj5ZPB7YfxQG2ZT0Cx
gZjB3D7bQForxEARe8bBdwcKQWNdr0BAk7nBwoiRQIBup0DwaMTByJIBQbbbfUBUcKrBNyOAQHp9
bkByQbXBhsj+QJNCf786o53B9TztQPDtF8A6wqXBBo+eQAzEI8BQ5KrBhQNzQO0lp78KZabBWejX
QMQ8nr4xUL7BazfWQM0i/L9+2rjBnbGSQBFYEz/66ZrB5x7KQOdyND/mP5fBEOAAQVhlqT8XZqXB
qETxQETlzT+y+bLBO4yjQAePtT+nIbjBld53QGfBgD9TQa7B5uCzQAsi17+I8pjBCj4JQSY4J7+7
5LDBLNOMQHNweL8IsbnByjOSQFWmgUDhU4TBoPHFQH1LUUAzBYTB45LAQPGunkC2u4jBcgheQF9U
NkDaTafBZ8gBQD4wbECvK5jBaBM1QHgbg0BUU4zBgQHVQDoJr0Ai97/BRNH0QPJUo0DMkbjB2CWr
QL4in0Bq1L7BpcLqQNwgiEDF+K/BjeagQOgFhEBfOLbBd23AQBllcUCuiq7B+FPLQPUtUUD6uJrB
AuKCQId3XEAIepjB/2WaQGU6vr9U0KjBqbrQQJjLaL9WArfB/7ToQATCpb9w/aPB2micQLjxVD/b
srDBq0i0QCd22z4tjp3Bh7rqQM1fgz813qvBSWKiQMhcK78MIbPBmGu6QCKSiL+yAqDB2/3wQF/f
877vR67BnvS0QNa8NUA+HKXB/zy8QMGGpz+ExqfBenmxQGZkgEDPk4jB4sWqQHJ/X0DWbZPB62qH
QJnHQkDMYKLB8I43QGYvb0B8y5PB0ZrxQCy9T0BLkZjB+rTcQP04xECpg8bBR4UKQfpCr0CzfrnB
jdSSQArCp0AClMTBi78BQcPBfUAMZqrB4MKAQJNob0AHcbXB3ydzQN3Qpr9n/aXB6nieQMWiI8Co
jqrB+iHVQH1H/b+QwLjBcnXWQGlopb7eUL7BSlP/QBtHer9Lvp3BeGHtQFlLF8BXtKXBx1CiQCJ5
tD/HCbjBV8t2QOSFgD8z+a3B8l+TQGHOFz8NuZrB1wLLQIE8Oj9xRpfB7eIAQfPzqj9lsaXB/GPw
QNBXzT+HOLPB1a6LQARje79PX7nBA7y0QGd+1L+zvJjBtewIQYxcJ7+sGbHBj3uSQJcQg0B1dYTB
smfGQBjmVEDlG4TBLpLAQI8joEDBB4nBokheQAwyOUBrc6fB85sBQB5TaUAyCZjBzxU1QGBGgUAW
LYzBp1nWQABwrkDcwb/BiSb2QEoDokDabLjBPT6sQNVWn0D/kL7BTtbrQCT+hkDKza/B2rOhQD2N
hECA7bXBeCbBQCG9cUCGPK7B6/LKQOUuUUB1XprB6rSCQLzdW0BhT5jB9wmnQEWClL9L77TBCoPz
QGmThL+Li67BH5m4QG/l0b8yoKHBEhrMQHFMiD+khbPBThKRQIo27D4JlKbBZ6zdQCIvFj8KLqDB
GzPSQARD2r75QbbB6hOXQEAMhL/ASanBxdDjQCEoaL8X4KLB+kS1QBNGNUCq5aTBSQS8QL1moj/F
uqfBLVKwQMU8e0AgHojB1iOqQKNqW0C9D5PBktGHQNx+RkAFWaLBt9E2QE0Mb0BaxJPB6CXxQNnD
WEBeT5jBW0feQA2Sw0DQTMbBUksLQV1BrUAca7nBevqTQIBUqEAeS8TBp04CQYTUeUA0VarBvmSB
QC9ucUDtHrXBwEuPQNMpN7/bXrrB8EKrQH9WDsC86LbBaBf4QDFUBsAQfrDBSgsJQR2UAL+Cb6/B
EVWtQGm3xL9WVJnB4+i8QHElLcBchqPBbuXqQAmuyj9TgLTBO3C0QPqFvz8hDLnBr0hyQDvJYz/y
C6zBEZ2FQC9uDD9tSZ7BuJvSQG3HLD8Y25fB1Yz8QAwyjT/rEKHBJnbdQCn0Br9Xjr7BveBwQM3a
x7+GY6jBD5L7QB2arL8pbZ3BYk2RQARcfUBa94PBmyrGQEpAUEDeyYPBOiO+QGr5nUDmZYjBbeRf
QGROQkA9pqfBdLYBQFT4bEBcOZjBAzYzQM/3fkAWCIzB

> <OMEGA_E>
AAAAAAAAAACAnuc9

> <OMEGA_NBR>
      2839

$$$$
50157457
  -OEChem-04172616093D

 57 61  0     1  0  0  0  0  0999 V2000
    7.3514    3.9684  -22.1510 C   0  0  0  0  0  0  0  0  0  0  0  0
    4.9874    4.4370  -22.4864 C   0  0  0  0  0  0  0  0  0  0  0  0
    7.6719    4.7668  -23.2610 C   0  0  0  0  0  0  0  0  0  0  0  0
    5.3143    5.2988  -23.5354 C   0  0  0  0  0  0  0  0  0  0  0  0
    6.0006    3.7559  -21.7729 C   0  0  0  0  0  0  0  0  0  0  0  0
    6.6578    5.4407  -23.9664 C   0  0  0  0  0  0  0  0  0  0  0  0
    6.3390    3.2486  -19.3249 C   0  0  0  0  0  0  0  0  0  0  0  0
    4.0747    3.4852  -19.0374 C   0  0  0  0  0  0  0  0  0  0  0  0
    6.7265   -0.9077  -22.8558 C   0  0  0  0  0  0  0  0  0  0  0  0
    7.1544   -1.3811  -20.4046 C   0  0  0  0  0  0  0  0  0  0  0  0
    4.8038   -1.4974  -21.3338 C   0  0  0  0  0  0  0  0  0  0  0  0
    7.3842    0.9538  -21.3128 C   0  0  0  0  0  0  0  0  0  0  0  0
    5.0251    0.8591  -22.2194 C   0  0  0  0  0  0  0  0  0  0  0  0
    5.4564    0.3652  -19.7649 C   0  0  0  0  0  0  0  0  0  0  0  0
    7.5913   -0.5390  -21.6244 C   0  0  0  0  0  0  0  0  0  0  0  0
    5.2294   -0.6422  -22.5540 C   0  0  0  0  0  0  0  0  0  0  0  0
    5.6594   -1.1300  -20.0942 C   0  0  0  0  0  0  0  0  0  0  0  0
    5.6327    2.8080  -20.6115 C   0  0  2  0  0  0  0  0  0  0  0  0
    5.8805    1.2761  -20.9720 C   0  0  0  0  0  0  0  0  0  0  0  0
    5.1333    5.9875  -26.6347 C   0  0  0  0  0  0  0  0  0  0  0  0
    5.5607    4.1288  -17.0860 C   0  0  0  0  0  0  0  0  0  0  0  0
    5.9861    6.9395  -25.7605 C   0  0  0  0  0  0  0  0  0  0  0  0
    5.3295    3.5409  -18.4155 N   0  0  0  0  0  0  0  0  0  0  0  0
    4.2020    2.9895  -20.2468 N   0  3  0  0  0  0  0  0  0  0  0  0
    2.8603    3.8500  -18.4664 N   0  0  0  0  0  0  0  0  0  0  0  0
    7.5438    3.3011  -19.1037 O   0  0  0  0  0  0  0  0  0  0  0  0
    7.0357    6.2339  -25.0418 O   0  0  0  0  0  0  0  0  0  0  0  0
    8.1437    3.5102  -21.5776 H   0  0  0  0  0  0  0  0  0  0  0  0
    3.9518    4.2894  -22.2177 H   0  0  0  0  0  0  0  0  0  0  0  0
    8.7008    4.8640  -23.5744 H   0  0  0  0  0  0  0  0  0  0  0  0
    4.5346    5.8641  -24.0243 H   0  0  0  0  0  0  0  0  0  0  0  0
    7.0383   -0.2965  -23.7155 H   0  0  0  0  0  0  0  0  0  0  0  0
    6.8665   -1.9727  -23.0930 H   0  0  0  0  0  0  0  0  0  0  0  0
    7.3061   -2.4480  -20.6257 H   0  0  0  0  0  0  0  0  0  0  0  0
    7.7601   -1.0980  -19.5312 H   0  0  0  0  0  0  0  0  0  0  0  0
    3.7431   -1.3094  -21.1112 H   0  0  0  0  0  0  0  0  0  0  0  0
    4.9457   -2.5624  -21.5699 H   0  0  0  0  0  0  0  0  0  0  0  0
    8.0114    1.2283  -20.4518 H   0  0  0  0  0  0  0  0  0  0  0  0
    7.6856    1.5459  -22.1896 H   0  0  0  0  0  0  0  0  0  0  0  0
    5.3305    1.4658  -23.0847 H   0  0  0  0  0  0  0  0  0  0  0  0
    3.9616    1.0384  -22.0030 H   0  0  0  0  0  0  0  0  0  0  0  0
    4.3945    0.5415  -19.5383 H   0  0  0  0  0  0  0  0  0  0  0  0
    6.0667    0.6253  -18.8875 H   0  0  0  0  0  0  0  0  0  0  0  0
    8.6516   -0.7297  -21.8464 H   0  0  0  0  0  0  0  0  0  0  0  0
    4.6202   -0.9137  -23.4288 H   0  0  0  0  0  0  0  0  0  0  0  0
    5.3506   -1.7448  -19.2359 H   0  0  0  0  0  0  0  0  0  0  0  0
    4.3561    6.5654  -27.1563 H   0  0  0  0  0  0  0  0  0  0  0  0
    5.7793    5.4913  -27.3739 H   0  0  0  0  0  0  0  0  0  0  0  0
    4.6586    5.2290  -25.9948 H   0  0  0  0  0  0  0  0  0  0  0  0
    4.5982    4.2583  -16.5694 H   0  0  0  0  0  0  0  0  0  0  0  0
    6.2059    3.4605  -16.4969 H   0  0  0  0  0  0  0  0  0  0  0  0
    6.0511    5.1070  -17.1980 H   0  0  0  0  0  0  0  0  0  0  0  0
    6.4492    7.6970  -26.4099 H   0  0  0  0  0  0  0  0  0  0  0  0
    5.3285    7.4346  -25.0308 H   0  0  0  0  0  0  0  0  0  0  0  0
    3.4345    2.7627  -20.8465 H   0  0  0  0  0  0  0  0  0  0  0  0
    2.0115    3.7402  -18.9837 H   0  0  0  0  0  0  0  0  0  0  0  0
    2.8358    4.2221  -17.5386 H   0  0  0  0  0  0  0  0  0  0  0  0
  1  3  2  0  0  0  0
  1  5  1  0  0  0  0
  2  4  1  0  0  0  0
  2  5  2  0  0  0  0
  3  6  1  0  0  0  0
  4  6  2  0  0  0  0
  5 18  1  0  0  0  0
  6 27  1  0  0  0  0
  7 18  1  0  0  0  0
  7 23  1  0  0  0  0
  7 26  2  0  0  0  0
  8 23  1  0  0  0  0
  8 24  2  0  0  0  0
  8 25  1  0  0  0  0
  9 15  1  0  0  0  0
  9 16  1  0  0  0  0
 10 15  1  0  0  0  0
 10 17  1  0  0  0  0
 11 16  1  0  0  0  0
 11 17  1  0  0  0  0
 12 15  1  0  0  0  0
 12 19  1  0  0  0  0
 13 16  1  0  0  0  0
 13 19  1  0  0  0  0
 14 17  1  0  0  0  0
 14 19  1  0  0  0  0
 18 19  1  0  0  0  0
 18 24  1  0  0  0  0
 20 22  1  0  0  0  0
 21 23  1  0  0  0  0
 22 27  1  0  0  0  0
  1 28  1  0  0  0  0
  2 29  1  0  0  0  0
  3 30  1  0  0  0  0
  4 31  1  0  0  0  0
  9 32  1  0  0  0  0
  9 33  1  0  0  0  0
 10 34  1  0  0  0  0
 10 35  1  0  0  0  0
 11 36  1  0  0  0  0
 11 37  1  0  0  0  0
 12 38  1  0  0  0  0
 12 39  1  0  0  0  0
 13 40  1  0  0  0  0
 13 41  1  0  0  0  0
 14 42  1  0  0  0  0
 14 43  1  0  0  0  0
 15 44  1  0  0  0  0
 16 45  1  0  0  0  0
 17 46  1  0  0  0  0
 20 47  1  0  0  0  0
 20 48  1  0  0  0  0
 20 49  1  0  0  0  0
 21 50  1  0  0  0  0
 21 51  1  0  0  0  0
 21 52  1  0  0  0  0
 22 53  1  0  0  0  0
 22 54  1  0  0  0  0
 24 55  1  0  0  0  0
 25 56  1  0  0  0  0
 25 57  1  0  0  0  0
M  CHG  1  24   1
M  END
> <OMEGA_C>
8j7rQPb6fUAnNbHB/JifQAv8jUAU5LPB0H/1QLuJmEB1FrrB7g6qQB+QqUCTSLzBogTAQAphcEDj
Lq7B7gzVQCMarkA/u7/BvNjKQM/oT0BcmZrBBmSCQCMOX0CsTJjBQT/XQOxfaL+m2LbBNvHkQDTJ
sL+yPKPBx7iZQDasv7+hq6rBqUvsQDotdD+ygKrBnc2gQOvvWz9LwbHBpJquQGf2uj6SHp7Bp+vy
QHT+Cb/V/qzBEFenQG9oJL+dbrTBFhq1QDCkkL/uwKDB4T60QIa1M0BE5KTBQy28QEdYoz+/xqfB
vUOkQE2Zv0DIE9XBJ/GxQDQfhEAasIjBRY6/QBkQ3kCFFc7BI4uqQO6dYkALU5PBwXaGQEVTP0B7
+aHBCA83QAZmdkA8u5PB/WbxQAxFU0Bn1JjBRSThQBh8x0CvVcjBm0wCQaqnYEDjnqzBCut8QCJD
iUDJvbHBYzYLQbmlm0B3mLzBtRuRQFKmu0DWMcDBljnhQLXJl75jub3BY7rbQCiA/L9/vrjBbMvp
QI2rHMB7AaXB/lL4QESLjL/MP5zB+o5vQJmbp7+046jBiEOeQCj+I8Auj6zBoS4AQRU6nT9dnaPB
hvD1QK/exT8+hLHByJOqQEOeuz9frbjB7Ip9QLPqhD8TBrDB7J+MQCygCj9qTpzBTSLCQIYSID+g
GZfBEW0KQaDPOr9uxa7BvNiTQLXqab8abrvB6jerQC1U378d45nBSWWLQHkX0kABQNnBA/C4QPu4
r0DH/drBXxOVQL9Tp0Bk9c/BtySTQA5EiEAKjoTB4pbGQBp5XUCV+YPBg6LBQPRso0COlYnB7F/O
QHZN9kCLR9PBSYOqQDno7UAoP8jBjc9bQHzQMECcxabBDb0AQMJeb0CV3pfBSX01QD4bh0D1TozB

> <OMEGA_E>
iMNHPg==

> <OMEGA_NBR>
      4090

$$$$
50158039
  -OEChem-04172616093D

 53 56  0     1  0  0  0  0  0999 V2000
    6.6872    5.3844  -23.9064 C   0  0  0  0  0  0  0  0  0  0  0  0
    7.6943    4.9387  -23.0335 C   0  0  0  0  0  0  0  0  0  0  0  0
    5.3750    4.8967  -23.7701 C   0  0  0  0  0  0  0  0  0  0  0  0
    7.3830    4.0342  -22.0029 C   0  0  0  0  0  0  0  0  0  0  0  0
    5.0576    3.9943  -22.7384 C   0  0  0  0  0  0  0  0  0  0  0  0
    6.0466    3.5864  -21.8068 C   0  0  0  0  0  0  0  0  0  0  0  0
    6.3367    3.2873  -19.3276 C   0  0  0  0  0  0  0  0  0  0  0  0
    4.0706    3.4556  -19.0498 C   0  0  0  0  0  0  0  0  0  0  0  0
    6.3184   -1.3762  -22.0816 C   0  0  0  0  0  0  0  0  0  0  0  0
    4.9551   -1.0318  -21.4639 C   0  0  0  0  0  0  0  0  0  0  0  0
    7.4558   -0.6883  -21.3069 C   0  0  0  0  0  0  0  0  0  0  0  0
    7.6374    2.6345  -14.8911 C   0  0  0  0  0  0  0  0  0  0  0  0
    4.7372    0.4882  -21.4518 C   0  0  0  0  0  0  0  0  0  0  0  0
    7.2525    0.8354  -21.2812 C   0  0  0  0  0  0  0  0  0  0  0  0
    6.6412    2.6491  -16.0306 C   0  0  0  0  0  0  0  0  0  0  0  0
    7.5851    4.0756  -14.3368 C   0  0  0  0  0  0  0  0  0  0  0  0
    5.8744    1.1992  -20.6632 C   0  0  0  0  0  0  0  0  0  0  0  0
    6.6714    4.1217  -16.4352 C   0  0  1  0  0  0  0  0  0  0  0  0
    5.6475    2.7508  -20.5653 C   0  0  2  0  0  0  0  0  0  0  0  0
    5.4675    4.5197  -17.2798 C   0  0  0  0  0  0  0  0  0  0  0  0
    5.3139    3.6512  -18.4541 N   0  0  0  0  0  0  0  0  0  0  0  0
    4.2271    2.9998  -20.2617 N   0  3  0  0  0  0  0  0  0  0  0  0
    2.8398    3.7356  -18.4756 N   0  0  0  0  0  0  0  0  0  0  0  0
    7.5416    3.2534  -19.1018 O   0  0  0  0  0  0  0  0  0  0  0  0
    6.6818    4.8198  -15.1908 O   0  0  0  0  0  0  0  0  0  0  0  0
    6.9205    6.1002  -24.6808 H   0  0  0  0  0  0  0  0  0  0  0  0
    8.7080    5.2911  -23.1543 H   0  0  0  0  0  0  0  0  0  0  0  0
    4.6080    5.2163  -24.4601 H   0  0  0  0  0  0  0  0  0  0  0  0
    8.1671    3.6752  -21.3527 H   0  0  0  0  0  0  0  0  0  0  0  0
    4.0523    3.6086  -22.6550 H   0  0  0  0  0  0  0  0  0  0  0  0
    6.4655   -2.4658  -22.0471 H   0  0  0  0  0  0  0  0  0  0  0  0
    6.3370   -1.0366  -23.1277 H   0  0  0  0  0  0  0  0  0  0  0  0
    4.1592   -1.5066  -22.0564 H   0  0  0  0  0  0  0  0  0  0  0  0
    4.9195   -1.4106  -20.4318 H   0  0  0  0  0  0  0  0  0  0  0  0
    7.4706   -1.0679  -20.2746 H   0  0  0  0  0  0  0  0  0  0  0  0
    8.4147   -0.9164  -21.7953 H   0  0  0  0  0  0  0  0  0  0  0  0
    7.3410    1.9074  -14.1207 H   0  0  0  0  0  0  0  0  0  0  0  0
    8.6464    2.3915  -15.2558 H   0  0  0  0  0  0  0  0  0  0  0  0
    4.7280    0.8602  -22.4869 H   0  0  0  0  0  0  0  0  0  0  0  0
    3.7720    0.7111  -20.9735 H   0  0  0  0  0  0  0  0  0  0  0  0
    8.0501    1.2953  -20.6793 H   0  0  0  0  0  0  0  0  0  0  0  0
    7.2997    1.2227  -22.3097 H   0  0  0  0  0  0  0  0  0  0  0  0
    6.9641    1.9979  -16.8562 H   0  0  0  0  0  0  0  0  0  0  0  0
    5.6394    2.3445  -15.6936 H   0  0  0  0  0  0  0  0  0  0  0  0
    7.2103    4.0701  -13.3026 H   0  0  0  0  0  0  0  0  0  0  0  0
    8.5877    4.5274  -14.3611 H   0  0  0  0  0  0  0  0  0  0  0  0
    5.8595    0.8032  -19.6371 H   0  0  0  0  0  0  0  0  0  0  0  0
    7.5936    4.3231  -17.0001 H   0  0  0  0  0  0  0  0  0  0  0  0
    4.5600    4.4475  -16.6624 H   0  0  0  0  0  0  0  0  0  0  0  0
    5.5984    5.5577  -17.6194 H   0  0  0  0  0  0  0  0  0  0  0  0
    3.4776    2.8395  -20.9040 H   0  0  0  0  0  0  0  0  0  0  0  0
    1.9996    3.5895  -18.9978 H   0  0  0  0  0  0  0  0  0  0  0  0
    2.7925    4.0837  -17.5393 H   0  0  0  0  0  0  0  0  0  0  0  0
  1  2  1  0  0  0  0
  1  3  2  0  0  0  0
  2  4  2  0  0  0  0
  3  5  1  0  0  0  0
  4  6  1  0  0  0  0
  5  6  2  0  0  0  0
  6 19  1  0  0  0  0
  7 19  1  0  0  0  0
  7 21  1  0  0  0  0
  7 24  2  0  0  0  0
  8 21  1  0  0  0  0
  8 22  2  0  0  0  0
  8 23  1  0  0  0  0
  9 10  1  0  0  0  0
  9 11  1  0  0  0  0
 10 13  1  0  0  0  0
 11 14  1  0  0  0  0
 12 15  1  0  0  0  0
 12 16  1  0  0  0  0
 13 17  1  0  0  0  0
 14 17  1  0  0  0  0
 15 18  1  0  0  0  0
 16 25  1  0  0  0  0
 17 19  1  0  0  0  0
 18 20  1  0  0  0  0
 18 25  1  0  0  0  0
 19 22  1  0  0  0  0
 20 21  1  0  0  0  0
  1 26  1  0  0  0  0
  2 27  1  0  0  0  0
  3 28  1  0  0  0  0
  4 29  1  0  0  0  0
  5 30  1  0  0  0  0
  9 31  1  0  0  0  0
  9 32  1  0  0  0  0
 10 33  1  0  0  0  0
 10 34  1  0  0  0  0
 11 35  1  0  0  0  0
 11 36  1  0  0  0  0
 12 37  1  0  0  0  0
 12 38  1  0  0  0  0
 13 39  1  0  0  0  0
 13 40  1  0  0  0  0
 14 41  1  0  0  0  0
 14 42  1  0  0  0  0
 15 43  1  0  0  0  0
 15 44  1  0  0  0  0
 16 45  1  0  0  0  0
 16 46  1  0  0  0  0
 17 47  1  0  0  0  0
 18 48  1  0  0  0  0
 20 49  1  0  0  0  0
 20 50  1  0  0  0  0
 22 51  1  0  0  0  0
 23 52  1  0  0  0  0
 23 53  1  0  0  0  0
M  CHG  1  22   1
M  END
> <OMEGA_C>
iP3VQJ1MrEBZQL/BgDf2QLcJnkCWRLjBzP+rQCyynEA2Kb7BdkHsQBwYgUDeBbDBENihQM+hf0A7
6LXBFH7BQFiIZUBRdK7BEsbKQJpiUkDvnprBDkKCQEcoXUDmZZjBajDKQGonsL8Op7DBP5CeQNIR
hL8LtqvB5pXuQP8yML+MdKrB7GX0QFOcKEDKQW7B5JaXQMb4+T40navBYBToQCveVT/8P6rBnoTU
QLOKKUCrPoDBwrjyQPdqgkB7Y2XBVPu7QG1/mT9CTqXBeHzVQFTlg0BEe4PBMri0QMkNMECshaTB
FvauQC2hkEAZPYrBQAuqQJmtaUD8oZPBSkSHQL78P0DrF6LBpr81QDoUb0AAzpPBpFTxQMU3UEBp
0JjB/NDVQHo7mkBZDXPBjHTdQI40w0AvcsXB5FMLQddQqUD6O7nBwXSTQBTspkA5rsPBc6wCQQ43
a0BT0qrBQayBQHzzZkBnPbXBp+XOQEXPHcCMYLDB/sjKQDiuhL9xBbnBGRiFQF7ZwL92c7DBxWyd
QOiNtL9HdKPBhQ/vQASyiL9mMqLBjKIGQRSWar/CXK7BTOnqQN0m9D937mHBeFcKQRIOGUCrF3TB
GUyXQAo3XD8y5bPBomdxQMMHNj/MyafBLs0AQTXNpT8+b6XBH5fpQCaAnD9berLB0dneQBW6/z+I
2YbBnXW0QAwMFkAbGXvBy7rmQJY+gkB511TBMWcJQRvgkEASx2XBTYG7QOqbTT/CGJ3Buv7yQJRW
ikAsAIjBieuRQOBRjkCxTIXB7iWzQOfYsUCZ9IzBUpFeQMq5NUBrO6fBZPP/P4+6ZUB/+5fBybcy
QEatgkB+UIzBuSLUQD9AtkB08L7BlQz1QCNTp0AGPbjBFRaqQNAep0AMlL3BGPrrQPFQiUBgLLDB
UsGgQE92iUBEcLXBworBQClOdUB+ga7BCbHMQCpwT0DsNZvBWSOEQCjWU0BYF5nBq5y1QIhQyb/G
uqnBR8HVQHn8fL9GvaHBz8GyQBflL79exrPB80GSQFZ9xUAJLX/BK2jIQAhP2z4ijp7BO/ilQM4p
QD+E3LDBtxq7QOWurkCaQnjBMeSZQHz8z0D8eYvBYHzFQEykrj8YlajBFj3KQPxQmkBCeIbBn4e3
QGekNEBckKXB4sexQKgoYECyfojBp6yrQMdWUkAY5pPBYWuJQOSwN0CW2KLBYTg6QGRoa0BOrZTB
JRHzQPTkUUCgJJnBKgrBQDNlukDwjY7BICLbQA9TzUASIcXBbKoKQSjtskDoSbnBPOiQQNJMskCF
y8LBq8cCQdqfekAZM6vB4W2AQNLEe0BAdbTBMQTAQLlFJcDED6zBMOeVQHSN0L+D76XBGMnWQCHQ
z79ij5rBs6r1QDADdb/dcaXBch7SQB4GLL/YxLfBHamaQMG1jb8/PbnBI5VsQHl1sEBjQ33B8nCN
QGXu4kCw1XXBhO2oQATbxj5foZrBpCzgQNN5Vj+G85jBYzamQLfurj/ZJrjB6o+FQMpUPj9Dba3B
eNzSQHyExUAQEnLB8GW0QJNMlkCaBGzBS/R9QDhVxEC1V5DBaFSdQEi/8kAvkIzBhGTlQI0gtT/X
RqzB4sjsQN7Kk0CNCIbBCD/EQAGKKkC4JYXBXlmSQJ5qY0DwjYTB92djQICiJkCMxqfBxcMEQNNm
Z0AlDJnBZXQ3QBsygECKII3BAOrYQA7+t0DAw77BpG/4QEmAnkAf2bnBBq6tQGwss0Al3rvB0s/s
QOxUgEBP/bHBeuqhQIsnlUDAAbTBrnbBQCY9d0Dz2q7BmvPLQPxfS0BonpvBWn2DQNRIVUBh8JjB
5Cq/QJlm0L+A8KbBkhTpQLvZU78LF6fBRnidQKhsc7+gGK7BxCvpQG114EA2PZDB5pPhQGKeHT8u
a6PBirKUQPMI+T4CUqrB7CjAQFvhxkCfXo/BjewFQXwevkD8eI/BMEa+QL3BrD+MIKrBqLzMQD0P
o0BIc4fBmiq1QFHFNUCtHKbBKjuzQDlscUBUzIjB2OyrQEKuWEBvFpTBlpiHQMh6QUA2FqPBPZo4
QFjnY0DKAJTBOqXyQGieTUCEDJrBfIP6QIc3nECtyIjBtOrhQEQ4z0DbwMTBOM0MQVgUokD+GrzB
hXiVQCyMxkD9rr/BYpACQSJEWUC2Uq7B2aKAQAN5kUDX3bHBc0rFQLdSKcBH6anB4AmzQEz71r9J
sJ7BpCIAQRdDp79OsaHBXfP1QCStUb/JR6/BGkepQC8Ubb9JYrbBLBt/QFi0w7+Vwa3BNubqQLd4
8UBP7pfBkuvrQMya90AVpYnBjZ3XQGdFGj+n+prBasX/QAwdlj/JMaTBjgx7QDz9cz/Eyq/BeyeH
QKnA5z7HM6LBPOmlQFmN2kBgLYzBSr+2QD+UuUCBK5fBar0JQUelsUAxepfBmngUQdl7y0DX0IvB
gwjKQB4Rtj+xZrLBdcPGQO7/rkCinX7BSSrFQPzAPUBr2ITBPe+TQAMZeUDn4oTB4R1eQLQPO0Cl
KKjBdm4CQN+EX0BQOpjB+mQ2QO/NckBTOozBZKTXQBh6uEDp5r7Bm//1QMt9rUC1F7fBcVqvQBJX
pEAi9L7Bp/rrQNTMjkC/SK/BgumkQJoFhkAPCLfBYJfCQBhud0CT267Bic3LQMjOS0BEh5vBOIeD
QH71VUCd+pjByOK9QBZU0L8xvKbB2yPoQHJYWL/wtabBr/WcQA8yb78FBq7B/n4QQSjQikAnP3vB
iwvhQGleGj97FqPBDp2UQM2BAj/HTarBGPoAQbJGWkDiAIPBQoUBQeBZp0AMIW7Bro2+QJRlrT+L
9KnBMxzdQNVEjED1x4XBZNC1QDKeNkC+DKbB7VOyQLxUakB2eYjBjderQHwWXkDyJJTBUyOIQHT9
RECSN6PBsjc4QIicX0A69JPBi3LyQBjJTEBOFJrBKCLZQHrTpUCOaHjBTDDfQNVW0EBB3MTBP4cK
QWemvECNF7fBflaYQN4qrEBDGMXBR/0BQQqEhUBIhKnBJwmGQLYEbUCBMLfBmL/DQGxtKcALsanB
3TOxQD5d1r/viJ7BwLv+QK2nqr8YNaHB7ZT1QIkOWL8E2K7BI0mpQCG+ar/jQ7bBoH59QJDAv7+p
yq3BlacbQTVackAe4XDBcZoZQRiWnUAZg4PBAHzWQKeAGD+DsZrBJI7/QJKjkj/Wu6PBSgh8QGI4
fD924K/BGoiGQPgT+D7BPaLBhusHQa1tPUDBPYrBQjX3QDhZJ0CZG3vBbV8AQXdUm0CKoF3BvI4H
QdlpyEDs8W3Bo+bKQMpktT9QLrLBBaXmQJpCoEDlnozBTWOyQLEvK0BllYTBVbCXQGtpiEB/UoXB
yexfQBAbQkAscqjB3CcCQGOnWUCjK5jBhpk1QC+CbED+H4zB6uPZQIlvt0DJx77B3yb5QOmhnUAq
3bnBmZWuQBD5skAJ6bvBFDLtQNYXf0CQBbLBJ32iQCIIlUBuELTBhsrBQLuEdkBP567BsPnLQF4O
TEDIn5vBQomDQKYSVEA975jB4iu+QK1m0b9WKafBkDjoQCvhVr/6BKfBJRCdQOSicb9eZ67BFF3k
QIFO40CtiobBIqTgQL01Gj/WP6PBz12UQOAa/D75karBG67bQH35u0CSM43Bpv7cQN6h0kCpYXbB
qiy+QCA4rD86IKrBYuy1QLFVp0BSO4fBBEK1QJOoNUDaIqbB7m+zQASubECHw4jBaeGrQOcdVUCE
CZTBtqiHQFSkQUDJIKPB2QI5QGbnYkB/75PBhJfyQGL7UEBK85nBo3O8QE1/sUAi/3fBOiXjQJaj
zkA5wMTBeC4NQT/poED0G7zBB5SWQLaQxkCLvL/BqKUCQbwqV0DcWq7BESmBQOKZkUD88bHBbmzE
QFaJKcCgNqrBU2ixQDua2b/3+Z7BAeX+QNEtqr9djKHB7cP1QIovUr/9I6/ByWKpQObfab+ypLbB
ywB+QIMBwr8sN67BX7YCQQyc7kAFnIfB6PfNQLhL/UDcgojBK9TVQCeNFD9t4JrBW/z+QM/vkz8s
yqPB6HJ7QNt2eD/qHbDBZjaGQPlF6D7YhKLBL8PSQIyXxEDwb5XBfZ33QCyRpkCNW43B0M76QN4s
xUAM4W/BKc3RQPOu7EC882vBIqzKQM1WtT8wVbLBuOqXQMXDtUA6ForBiMzRQBQBUEBTH4bBxw+Z
QHh/U0AG3IPBp1JeQIRUPEBpO6jB+rACQP3NX0DtJZjBDis3QHWscEBUIIzBlZzWQG3os0BMh7/B
pv71QGjco0BjibjBOcerQG/KpkAncb7B7YzqQL8Yh0CRYLDBJDOgQNjgiUCmUrbBOE+/QBSKdECE
CK/BK6DKQMTDRUA4w5vB99+CQKLcWUBYyZjBO4zXQHestb8jTqfBs2jjQDrsCr/J9bDBMCiqQCPn
ir8kcqPB6qqvQJTI30BjP4rB/ELhQB6ccj8bC67BGVWnQAojxz7nOKDB9TKfQJz2uEDQOYTBOe3O
QGhLzECLN5LBsU+0QMwoqz9HqKnBHzHEQEtjmECW+oTBciSyQLTqNUBtHabB/Vi0QPjNV0DNkYjB
PHyrQKKLU0BwGpTByaaFQNpcSUCxBqPBDxY5QGo2akBymJPBbr/wQFY8OkCX65nBa5/jQC1bqkDY
VYzBbWXfQEFNykBmu8XBxHgLQVOmrUC7b7nBXLyTQHvyskCJ2sPBO28BQZdMdUDUFavBPrl+QJ7v
fkA0obXB/fPYQHihHsC5pqnBwmbuQEsQnr/gxqDBEQ8CQdznSb9rjLPBBujMQBidPr8NiLfBb0CT
QOhIpL/U76nBzEeiQPZx279qgJzBxHeVQCV98EDkYY7BowHAQIMr9kCH0oTBlnb5QOW+lD9G46fB
FgjoQG/XxT+yO7XBBUCGQNd/HT9/0p3Bd/S8QFxBET84bZnBKV2YQBsNwUC9qnfBNRaCQIZCrEC1
BIjBadO9QDByv0C0NJnBBnLmQHM85ED/3pTB5/acQP3cmD+jJLDBAKTSQCgnlUCQ/XnBoQ/NQFot
KEAnnYbB+MSWQISZSECUMYTBZL9ZQKjfSUCYFqjBlyoCQF/GaUDks5fBMrI4QFhydkBAvovBbCfW
QOdxq0B/aMDBhN/zQJ7Wp0CkA7jBgQKvQOJSlUCW37/BfJnqQDUZjkBPF6/BOTWlQKNxeEDK3LbB
K6bCQBwucUA4Q67B9DrMQF4bVkAEb5rBVyyDQA71WEDSj5jBrw+2QBOlvr9orq3BTIO5QCf+jr8p
v6HBpQvRQGJnCL+rkbTBWuECQUmKgkCR3mfBBcKrQB39rj6P15/B0RvDQJxXbT9V2bLBxIrWQHtN
fkCraW3BUT4MQclkm0BN3HrBNCvGQNKIqz+P2KbBgWrYQOIvdEAfzoLB9/W3QG/aNUBtvqTBN+yt
QL6uhUCcc4jBO3+qQP3iZUBkXJPBYqaJQLq8PEBFWKLB6cM1QJ1GZkD0IpTB/L3yQIPNVUAClJjB
Wk76QMQAl0APJIbBfl/dQF0xv0DlQ8fBVPIIQfnhuEBmbLjBj3KYQLael0CVZMbB5AUBQdKfikCg
zajBYvqGQE0VV0Bge7bB1KfBQO8pIcCS0q7B/mGUQKlYtr/9L7DBjq+kQKxQ5L9bEZ3BQuDaQIYS
n7+WIJ/BCfHyQOooI78kWbLByO3MQPlsS7/QDb3BFTUFQSwllEC5zljBDTUKQQtLRUB6iWbBUqaJ
QAOf4z7y2qHBIZ2wQGTPFj+NWpfBZvfXQMDjyj/SmLfBqMuhQAFmhT/NibXBPrHHQAJNRkCpwWXB
GAXFQG4/nEC4ymjBBTcOQQRWvUCgonbBCNYbQaDijUC6cX/BGObnQGlwoD9HbaTBwejgQEe6MUDe
yITB5C+TQKFnc0DWkoPBZsSrQDa4qECKGonBwKhkQEPaLUBQf6fB9j8BQBRAWkB4dJjBglgwQIDg
e0DzoozBSOjQQNWHtkCO8b7Bqw3xQCYErUD+crfBIPioQLDzoUAFSb7Bm0zpQIQHj0CKSa/Bv+ig
QONChECPEbbBJ7fAQMK2dUDeVK7Bk5vMQPyBTkCoEJvBpNeDQDczV0DaJpnBOym5QOqXy79a6KnB
stbZQN8ke79QMaLBxqizQEOVMb+Tz7PBzxfqQKAV0EBvp3jBhUbLQCqq0z52uJ7BVu+lQFoCOj8J
obDB2jfRQDWspkDWQ3bBZZTdQPtC4ECGk4fBFiHGQCKIrj/onajBKYnQQHiql0CPkobBQoK3QKgA
NEBEaKXBVQewQJomaEAKbIjB+yerQJEeWkDb6JPBgmeJQMkPNkCwqKLByY05QG/6cEAl9pTBaRjz
QGVDTECBIJnBgdnGQFaOvUAJt4zBWN3WQJ6czUALM8XBgeAHQVbBvEBw9bfB/WiQQNv2qEAYG8TB
mTgBQag/h0ALsKnBajSCQAX5aEDCprXBYFzEQOlbJcCnc6zBWS6aQL5L2L9LzqXBztPcQGAW0L/4
GZvBYg35QGnKZ78XN6bBdkTSQN4wJL/wIrjBhBObQHWnkL+ODbnB7KvgQKNK50ClSWzBmF4GQWwz
ykD2pHfBVlasQDZ5qT5Pk5rBEzfjQGC2Vj9FPZnB0FekQKIGrT/V27fB/SSGQF+bLj8a3qzBnePh
QEfRj0CsymvB3bywQKlYrEBpGnDBrs/IQGaQ/EAK7obBRWv6QI+D6EBKLozBC2jlQGqCuD8Em6zB
NIPwQKm5i0DruIjB2U67QLfnLEBkmITB2geRQLO9ekDE9YTBqrtjQAYVIUDlZqfBjjAEQHa+akD9
TpnBIqI2QDbkhECImI3BTnPVQOhYrECrL8DBwaP1QCneoUD9xLjBmUysQK6ymkByF7/B8H3sQLyw
hkAgFrDBPh+jQKxCfkA+f7bBfrjCQHSra0DRpa7BojfMQOh1VUDzmprBtmKDQGjRWECSgJjBGd+8
QIHxtr+0Oa/BhOOiQGPzi792KaXBqz/mQFQDGb+FmK/BTfinQAJr7UCkAZHB9u6XQNzPzD5i7KTB
dRDcQBTvZz+Ncq/BwPWTQLFVykC3RorBfz7OQDzw1kCOB5bBARnBQG8doz/kfKXBw1y6QNnMrUD1
F4fBEQu3QA7hNEDvvKTBt+KwQMjuekAvN4jBcRCrQOauYEDOZpPBT0uJQNbaREBKiKLBxng2QEhy
YkBG7JPBRXvyQAwWVEAfaJjBeWLeQFIbu0Cqt43BaFbcQO3rwUBwtsbBC74KQWK4rkCyvbnBJrWT
QKJQokAZ28TBHr0CQe4wfUB8eKrB476DQNu+YUBQ2rXB6R7FQGDoH8DSI6/BdoGpQFd6mr/0WrbB
qReFQOXp1r/jLaXBcM61QI6HrL+SBp7BGhj6QL6WWL/CmqjBE+L3QNKqVr/P9rbBBJWRQDnZ+ECn
KpfBlDeyQBBABEG5AIzBx1qDQA1OIz/1zavBZMCGQB5eID+odZ3B0zT6QE6ivD/oRq/Bpf/JQFVJ
lT8StbbBqViEQITL10CqJIPBXNl4QHcMuEBR9Y7BQUnEQEs3xECoDZ3Bv77mQFJU7kAabJjBHHnU
QPr6gj+5a57BJO7BQLdEtEBFTn3Bkc/LQB+9VkAAzYTBZ3uTQPkLbED6v4PBB/hjQHfnQEC2/afB
AeMBQGEDWkAGXJjBbywxQPnRcUB7L4zBpU3VQO6itUCIDL/Bs5aqQDinqUCYJL3B4mD2QMrmo0A+
17jB8s2gQJBcjEAl87TBVcvsQIZQhkDetLDButPBQAx+dUDkga7B/q7MQHIYUEBSKZvBQzeEQO8T
UkCV+pjBTMCzQM6Xxr+XmKnBtT/UQEK5fL9Fm6HBRRSyQBzTLL/ntLPBQdznQCh7x0DITYvBh/TH
QPRf4T7kfp7B//6lQEZERT+857DBjAO6QBjJw0DRGo/BNqHjQPhOw0AkM37BAG7FQFa1rz9Si6jB
F1WmQOwCpUDG24bBdpi3QNYyNUDLhqXB3HaxQNSnakAumYjB2sGrQDacUUAAv5PBGJqJQDrdN0Bh
z6LB2Bk6QGdaaUD8oZTBRynzQBxrU0CTQ5nB1Da5QGj8sUD+uHnBsbDcQGZvzEAuRsXBqjyRQOH3
tkDy+sHBy5cLQTcDrUAsUrrBLOZ/QNg2g0A9jbPBqTUDQYiNcECTF6zBrja9QD60JMDl1KvBy+aT
QIRQyb9Y2qXBE7PUQBQrz7+jZprBOTj0QFWOe7/PSaXBYLDRQG2XLr8AlLfB7BKaQJLzir/8PbnB
lbf7QDecrUCBnY7BN671QKqb5kAuh43BGYuoQIMn2T7HhprB/R7gQL1xVj978ZjB5P6mQLrAsD/l
OLjBMWiFQMnWSD/FlK3BN92pQKkO40CJ947BD224QLpUtkASOpfBpl38QDuMrUCSAHjBmSbnQMjm
4kArpHbBYHLlQO+ytT+GLqzBxV2DQNEEqUC9tYbBXAPTQJzkX0CqTIbBXHOcQPgzQ0Doi4PBxNBj
QELXJ0DRzKfBmR4FQAaeZkCEG5nBgaE2QO/cfECgBo3B

> <OMEGA_E>
XkorPxwyKz/6uTM/DHEzP+ZeMz+MKy8/vBkvPzwJLj+k+S0/vCotPw==

> <OMEGA_NBR>
     13253

$$$$
50158048
  -OEChem-04172616093D

 56 58  0     1  0  0  0  0  0999 V2000
    5.7135    4.5511  -24.1700 C   0  0  0  0  0  0  0  0  0  0  0  0
    5.3821    3.7121  -23.0919 C   0  0  0  0  0  0  0  0  0  0  0  0
    6.6341    5.5964  -23.9860 C   0  0  0  0  0  0  0  0  0  0  0  0
    7.0096    4.8518  -21.7058 C   0  0  0  0  0  0  0  0  0  0  0  0
    6.0715    3.8096  -21.8567 C   0  0  0  0  0  0  0  0  0  0  0  0
    7.2437    5.7892  -22.7305 C   0  0  0  0  0  0  0  0  0  0  0  0
    6.4165    3.3067  -19.3646 C   0  0  0  0  0  0  0  0  0  0  0  0
    4.1391    3.3943  -19.1430 C   0  0  0  0  0  0  0  0  0  0  0  0
    8.6087    7.4455  -21.3841 C   0  0  0  0  0  0  0  0  0  0  0  0
    5.5258   -1.5651  -21.3058 C   0  0  0  0  0  0  0  0  0  0  0  0
    6.2593   -1.0440  -20.0597 C   0  0  0  0  0  0  0  0  0  0  0  0
    5.8814   -0.7095  -22.5257 C   0  0  0  0  0  0  0  0  0  0  0  0
    5.8829    0.4196  -19.7777 C   0  0  0  0  0  0  0  0  0  0  0  0
    5.5492    0.7694  -22.2893 C   0  0  0  0  0  0  0  0  0  0  0  0
    6.2065    1.3499  -20.9922 C   0  0  0  0  0  0  0  0  0  0  0  0
    5.7677    2.8416  -20.6830 C   0  0  2  0  0  0  0  0  0  0  0  0
    5.5328    4.0784  -17.1286 C   0  0  0  0  0  0  0  0  0  0  0  0
   11.3364   11.0084  -19.2745 C   0  0  0  0  0  0  0  0  0  0  0  0
    9.3992    8.7488  -21.5320 C   0  0  0  0  0  0  0  0  0  0  0  0
   10.0067    9.2328  -20.2063 C   0  0  0  0  0  0  0  0  0  0  0  0
    5.3717    3.7027  -18.5448 N   0  0  0  0  0  0  0  0  0  0  0  0
    4.3263    2.9364  -20.3653 N   0  3  0  0  0  0  0  0  0  0  0  0
    2.8934    3.5494  -18.5455 N   0  0  0  0  0  0  0  0  0  0  0  0
    8.0679    6.9120  -22.5636 N   0  0  0  0  0  0  0  0  0  0  0  0
    7.6068    3.2755  -19.0636 O   0  0  0  0  0  0  0  0  0  0  0  0
    8.4306    6.9675  -20.2671 O   0  0  0  0  0  0  0  0  0  0  0  0
   10.7167   10.4581  -20.4501 O   0  0  0  0  0  0  0  0  0  0  0  0
    5.2614    4.3924  -25.1378 H   0  0  0  0  0  0  0  0  0  0  0  0
    4.5924    2.9841  -23.2059 H   0  0  0  0  0  0  0  0  0  0  0  0
    6.8749    6.2535  -24.8086 H   0  0  0  0  0  0  0  0  0  0  0  0
    7.5622    4.9331  -20.7815 H   0  0  0  0  0  0  0  0  0  0  0  0
    5.8239   -2.6072  -21.4935 H   0  0  0  0  0  0  0  0  0  0  0  0
    4.4403   -1.5196  -21.1340 H   0  0  0  0  0  0  0  0  0  0  0  0
    5.9811   -1.6614  -19.1928 H   0  0  0  0  0  0  0  0  0  0  0  0
    7.3446   -1.1119  -20.2251 H   0  0  0  0  0  0  0  0  0  0  0  0
    6.9582   -0.8062  -22.7289 H   0  0  0  0  0  0  0  0  0  0  0  0
    5.3106   -1.0699  -23.3942 H   0  0  0  0  0  0  0  0  0  0  0  0
    4.8051    0.4749  -19.5648 H   0  0  0  0  0  0  0  0  0  0  0  0
    6.4482    0.7695  -18.9013 H   0  0  0  0  0  0  0  0  0  0  0  0
    5.9067    1.3503  -23.1524 H   0  0  0  0  0  0  0  0  0  0  0  0
    4.4574    0.8732  -22.2044 H   0  0  0  0  0  0  0  0  0  0  0  0
    7.2969    1.3475  -21.1374 H   0  0  0  0  0  0  0  0  0  0  0  0
    4.5540    4.3512  -16.7074 H   0  0  0  0  0  0  0  0  0  0  0  0
    5.9485    3.2277  -16.5687 H   0  0  0  0  0  0  0  0  0  0  0  0
    6.2166    4.9367  -17.0525 H   0  0  0  0  0  0  0  0  0  0  0  0
   11.8585   11.9404  -19.5368 H   0  0  0  0  0  0  0  0  0  0  0  0
   10.5655   11.2202  -18.5189 H   0  0  0  0  0  0  0  0  0  0  0  0
   12.0590   10.2853  -18.8684 H   0  0  0  0  0  0  0  0  0  0  0  0
   10.2140    8.5853  -22.2526 H   0  0  0  0  0  0  0  0  0  0  0  0
    8.7231    9.5281  -21.9136 H   0  0  0  0  0  0  0  0  0  0  0  0
    9.2055    9.4079  -19.4732 H   0  0  0  0  0  0  0  0  0  0  0  0
   10.7005    8.4732  -19.8170 H   0  0  0  0  0  0  0  0  0  0  0  0
    3.5906    2.6862  -20.9946 H   0  0  0  0  0  0  0  0  0  0  0  0
    2.0639    3.3068  -19.0486 H   0  0  0  0  0  0  0  0  0  0  0  0
    2.8268    3.9034  -17.6126 H   0  0  0  0  0  0  0  0  0  0  0  0
    8.3031    7.4009  -23.4036 H   0  0  0  0  0  0  0  0  0  0  0  0
  1  2  2  0  0  0  0
  1  3  1  0  0  0  0
  2  5  1  0  0  0  0
  3  6  2  0  0  0  0
  4  5  2  0  0  0  0
  4  6  1  0  0  0  0
  5 16  1  0  0  0  0
  6 24  1  0  0  0  0
  7 16  1  0  0  0  0
  7 21  1  0  0  0  0
  7 25  2  0  0  0  0
  8 21  1  0  0  0  0
  8 22  2  0  0  0  0
  8 23  1  0  0  0  0
  9 19  1  0  0  0  0
  9 24  1  0  0  0  0
  9 26  2  0  0  0  0
 10 11  1  0  0  0  0
 10 12  1  0  0  0  0
 11 13  1  0  0  0  0
 12 14  1  0  0  0  0
 13 15  1  0  0  0  0
 14 15  1  0  0  0  0
 15 16  1  0  0  0  0
 16 22  1  0  0  0  0
 17 21  1  0  0  0  0
 18 27  1  0  0  0  0
 19 20  1  0  0  0  0
 20 27  1  0  0  0  0
  1 28  1  0  0  0  0
  2 29  1  0  0  0  0
  3 30  1  0  0  0  0
  4 31  1  0  0  0  0
 10 32  1  0  0  0  0
 10 33  1  0  0  0  0
 11 34  1  0  0  0  0
 11 35  1  0  0  0  0
 12 36  1  0  0  0  0
 12 37  1  0  0  0  0
 13 38  1  0  0  0  0
 13 39  1  0  0  0  0
 14 40  1  0  0  0  0
 14 41  1  0  0  0  0
 15 42  1  0  0  0  0
 17 43  1  0  0  0  0
 17 44  1  0  0  0  0
 17 45  1  0  0  0  0
 18 46  1  0  0  0  0
 18 47  1  0  0  0  0
 18 48  1  0  0  0  0
 19 49  1  0  0  0  0
 19 50  1  0  0  0  0
 20 51  1  0  0  0  0
 20 52  1  0  0  0  0
 22 53  1  0  0  0  0
 23 54  1  0  0  0  0
 23 55  1  0  0  0  0
 24 56  1  0  0  0  0
M  CHG  1  22   1
M  END
> <OMEGA_C>
6tS2QHCikUARXMHBzzmsQMmSbUBGvLjBNUrUQPwVs0BO47/BlE7gQExCm0CApa3BXEnCQLnPc0Cd
2q7BYsznQCpBuUD517XBvlPNQI6hU0Cg6prBg3OEQNY8WUDOJJnBFL0JQe1B7kCZEqvBYtOwQKBW
yL88cqrBz0vIQGmhhb8xeqDByzS8QPafNb+1NLTB00C8QGzY1j7FOJ7BVJOxQPb3RD+OULLB2JvG
QLnJrD8N8KfBxpC4QMncNUDQdqXB7gyxQDKCgkBKB4nBt2E1QWsiMEEqMprBBGMWQT77C0GZQazB
XRsgQbu5E0GSpqHB6uSrQHT5bEDGW5TBK3GKQBzuO0Af7KLB9iw5QLMoY0AdXZTBDxYBQQsv3UAz
grTBEmvzQLihUUApgpjBneMGQfD13kABI6LBj3crQS1UJ0G6maPBAV2oQO2OjEBNGsnBRPWSQAn8
PkC2pbnByf7bQLocyED+d8bBY/3xQFfcnUBrQKbBRl26QHXcJsDE8qvBixaOQO+Awr98EqnBeWW/
QK+o1L/aipnBEwfrQBJUjr8NzaHBdKneQIBiTr/I1LXBkvCpQPjziL9OJ7vBkMOZQMcj8z7QhJzB
YlfOQPQART/yNZfBCAS9QA7VrD8HOLnBTKOOQECHXz+worHBLoDpQGt7rD9oGanBD7qRQBI9i0C1
qIXBQVq+QOqRTkCvjITBue7GQBr5nUCQa4jBQbw9QeILP0FLS5zBaQwpQSCGM0GsJpTBgvFAQXqQ
JEF18pbBpGwjQYFdCUFqBbLB0JELQT1zGEEfT6/B40kTQcKGFkEOyZvBGTUrQTiSB0EoiZ7BvMtl
QCbqK0D49KfBXhYEQPqiU0BxY5jBEOs0QErReUCd5ozBctkEQWrU7ECLOrvB

> <OMEGA_E>
xLBLPw==

> <OMEGA_NBR>
     14481

$$$$
50158051
  -OEChem-04172616093D

 53 56  0     1  0  0  0  0  0999 V2000
    6.0611   -0.7726  -22.4176 C   0  0  0  0  0  0  0  0  0  0  0  0
    7.2270   -4.9550  -15.7306 C   0  0  0  0  0  0  0  0  0  0  0  0
    5.8093    0.6026  -22.2480 C   0  0  0  0  0  0  0  0  0  0  0  0
    6.3425   -1.5821  -21.3010 C   0  0  0  0  0  0  0  0  0  0  0  0
    7.1134   -4.7150  -17.1633 C   0  0  0  0  0  0  0  0  0  0  0  0
    6.0648    0.3496  -19.8418 C   0  0  0  0  0  0  0  0  0  0  0  0
    7.7082   -3.7971  -15.1733 C   0  0  0  0  0  0  0  0  0  0  0  0
    5.8875    1.1978  -20.9589 C   0  0  0  0  0  0  0  0  0  0  0  0
    6.3267   -1.0171  -20.0067 C   0  0  0  0  0  0  0  0  0  0  0  0
    7.5198   -3.4219  -17.3743 C   0  0  0  0  0  0  0  0  0  0  0  0
    6.3881    3.1770  -19.4515 C   0  0  0  0  0  0  0  0  0  0  0  0
    4.1351    3.4890  -19.1871 C   0  0  0  0  0  0  0  0  0  0  0  0
    7.5196   -2.7115  -18.6504 C   0  0  0  0  0  0  0  0  0  0  0  0
    6.3463    6.1334  -23.5547 C   0  0  0  0  0  0  0  0  0  0  0  0
    5.2422    5.1111  -23.8841 C   0  0  0  0  0  0  0  0  0  0  0  0
    7.5800    5.4327  -22.9620 C   0  0  0  0  0  0  0  0  0  0  0  0
    4.8505    4.3020  -22.6364 C   0  0  0  0  0  0  0  0  0  0  0  0
    7.2037    4.6395  -21.7023 C   0  0  0  0  0  0  0  0  0  0  0  0
    6.0858    3.5952  -21.9998 C   0  0  0  0  0  0  0  0  0  0  0  0
    5.6697    2.7098  -20.7297 C   0  0  1  0  0  0  0  0  0  0  0  0
    5.6465    4.2155  -17.2775 C   0  0  0  0  0  0  0  0  0  0  0  0
    5.4083    3.7462  -18.6531 N   0  0  0  0  0  0  0  0  0  0  0  0
    4.2470    2.8905  -20.3547 N   0  3  0  0  0  0  0  0  0  0  0  0
    2.9227    3.8146  -18.5888 N   0  0  0  0  0  0  0  0  0  0  0  0
    6.5113   -1.7783  -18.8556 N   0  0  0  0  0  0  0  0  0  0  0  0
    7.5768    3.0547  -19.1700 O   0  0  0  0  0  0  0  0  0  0  0  0
    8.4330   -2.8882  -19.4501 O   0  0  0  0  0  0  0  0  0  0  0  0
    7.8737   -2.8774  -16.1715 O   0  0  0  0  0  0  0  0  0  0  0  0
    6.0382   -1.2069  -23.4061 H   0  0  0  0  0  0  0  0  0  0  0  0
    6.9803   -5.8676  -15.2083 H   0  0  0  0  0  0  0  0  0  0  0  0
    5.5548    1.2101  -23.1039 H   0  0  0  0  0  0  0  0  0  0  0  0
    6.5692   -2.6297  -21.4333 H   0  0  0  0  0  0  0  0  0  0  0  0
    6.7758   -5.4168  -17.9115 H   0  0  0  0  0  0  0  0  0  0  0  0
    5.9973    0.7614  -18.8457 H   0  0  0  0  0  0  0  0  0  0  0  0
    7.9199   -3.6392  -14.1261 H   0  0  0  0  0  0  0  0  0  0  0  0
    6.6378    6.6588  -24.4761 H   0  0  0  0  0  0  0  0  0  0  0  0
    5.9590    6.8600  -22.8252 H   0  0  0  0  0  0  0  0  0  0  0  0
    4.3569    5.6459  -24.2586 H   0  0  0  0  0  0  0  0  0  0  0  0
    5.6094    4.4221  -24.6590 H   0  0  0  0  0  0  0  0  0  0  0  0
    7.9978    4.7435  -23.7107 H   0  0  0  0  0  0  0  0  0  0  0  0
    8.3336    6.1898  -22.6997 H   0  0  0  0  0  0  0  0  0  0  0  0
    4.4068    4.9823  -21.8945 H   0  0  0  0  0  0  0  0  0  0  0  0
    4.1113    3.5395  -22.9229 H   0  0  0  0  0  0  0  0  0  0  0  0
    8.0954    4.1131  -21.3313 H   0  0  0  0  0  0  0  0  0  0  0  0
    6.8443    5.3390  -20.9332 H   0  0  0  0  0  0  0  0  0  0  0  0
    6.4844    2.8990  -22.7524 H   0  0  0  0  0  0  0  0  0  0  0  0
    4.7134    4.6240  -16.8622 H   0  0  0  0  0  0  0  0  0  0  0  0
    5.9863    3.3734  -16.6566 H   0  0  0  0  0  0  0  0  0  0  0  0
    6.4180    4.9994  -17.2861 H   0  0  0  0  0  0  0  0  0  0  0  0
    3.4731    2.5961  -20.9153 H   0  0  0  0  0  0  0  0  0  0  0  0
    2.0628    3.5936  -19.0489 H   0  0  0  0  0  0  0  0  0  0  0  0
    2.9108    4.2698  -17.6985 H   0  0  0  0  0  0  0  0  0  0  0  0
    5.8596   -1.6408  -18.1096 H   0  0  0  0  0  0  0  0  0  0  0  0
  1  3  2  0  0  0  0
  1  4  1  0  0  0  0
  2  5  1  0  0  0  0
  2  7  2  0  0  0  0
  3  8  1  0  0  0  0
  4  9  2  0  0  0  0
  5 10  2  0  0  0  0
  6  8  2  0  0  0  0
  6  9  1  0  0  0  0
  7 28  1  0  0  0  0
  8 20  1  0  0  0  0
  9 25  1  0  0  0  0
 10 13  1  0  0  0  0
 10 28  1  0  0  0  0
 11 20  1  0  0  0  0
 11 22  1  0  0  0  0
 11 26  2  0  0  0  0
 12 22  1  0  0  0  0
 12 23  2  0  0  0  0
 12 24  1  0  0  0  0
 13 25  1  0  0  0  0
 13 27  2  0  0  0  0
 14 15  1  0  0  0  0
 14 16  1  0  0  0  0
 15 17  1  0  0  0  0
 16 18  1  0  0  0  0
 17 19  1  0  0  0  0
 18 19  1  0  0  0  0
 19 20  1  0  0  0  0
 20 23  1  0  0  0  0
 21 22  1  0  0  0  0
  1 29  1  0  0  0  0
  2 30  1  0  0  0  0
  3 31  1  0  0  0  0
  4 32  1  0  0  0  0
  5 33  1  0  0  0  0
  6 34  1  0  0  0  0
  7 35  1  0  0  0  0
 14 36  1  0  0  0  0
 14 37  1  0  0  0  0
 15 38  1  0  0  0  0
 15 39  1  0  0  0  0
 16 40  1  0  0  0  0
 16 41  1  0  0  0  0
 17 42  1  0  0  0  0
 17 43  1  0  0  0  0
 18 44  1  0  0  0  0
 18 45  1  0  0  0  0
 19 46  1  0  0  0  0
 21 47  1  0  0  0  0
 21 48  1  0  0  0  0
 21 49  1  0  0  0  0
 23 50  1  0  0  0  0
 24 51  1  0  0  0  0
 24 52  1  0  0  0  0
 25 53  1  0  0  0  0
M  CHG  1  23   1
M  END
> <OMEGA_C>
WfTBQIXLRb8lV7PB60PnQEePnsBYsHvB0+W5QCFHGj/o+7HBevXKQFyDyr+FaKrBJqHjQGXhlsBt
TonBwxLCQAD5sj4EvJ7B16n2QCEDc8DmxXLBmma8QG1QmT+9q6fBenTKQBYvgr/SDaDBjqLwQO7/
WsCi/orBpWvMQEtTS0CjnJvBD1OEQCZLX0Amf5nBTKDwQJiILcAeNJXBghTLQOJExEAScLzB/r+n
QCeOo0ClEr/Bb4/yQFzYrUA0srfBZTebQP6piUBaF7XBT4TmQN92lEBknq3B577CQCUYZkCg/6/B
fG61QNZtLUB/1qXBCLC0QAblhkBUOIrBCRGtQM3Bb0CBOZXBx+eHQDL9OEBp1qLBTQ07QMYidEDY
tZTBbVzQQNmd47802JbBGXXyQBOAQ0AnXJnBnu0GQX7YOMDWmZvBuPX7QDEnOMBVX4HB3DjBQGx8
mr+9P7vBhl7fQBHDu8BJVXPB4MCxQBbmmj/M1LjB5zbSQMBNKMBzd6vBcdPYQKRWrcDYSo/BnOm/
QEnpQj/4w5bBxW/9QKPoaMB4BGLBAGnUQK0U1UAaz8PBILC+QPCE20AcmrbBjmuLQNiqtECtEcLB
aYCzQBKCjUCdRcXB/e3/QAbLl0CLr73BXlYFQTQTxkAJmbXB1QSNQM9un0D9J6/Bvo+DQJKGYkAo
YrfByYYBQZyeg0B9pqrBGgTbQCPZqkA+d6fBQIDPQMmJOUD+BLbBX9SWQML3k0DB5YbBf4+/QK3l
V0DJQIXBnmDNQGf7n0DoSYrBtkZeQAQnJkChUqfBdgQEQPD9ZUApZJjBHUo6QCCiiEB1lo3B14G7
QHkG0r+G4JDBJhyhQBHTb7/xwq7B9XVCQQlde8D+4ZjBojacQBXz4j56C63BKxrGQNG3zL9NNavB
W2owQVs8gsBpLaDBvETiQN4TAz+8iaTBLhg+QZNKNsDLeJLBcjy8QJ8Mlz+2mqfBQjXnQMyRX7/0
FabBREoiQbIwRMBQrZ3B7VvMQIGeSkC3PZvBcy+EQA6HXkDRUZnBUugNQZeUMMDY6qLBOdzMQHwg
wkB3a7zBnkioQKGqokCu577BtRD0QEfxqUClGbjBscObQIEYiUDT27TBI4joQMUpkEDrCq7BsLLC
QKDgYEDLAbDBu921QEYALEABj6XBheazQOUVh0By/4nBIausQL2qbkBa85TBAC+IQPwYOUCJrKLB
XlE6QLtec0DFqpTB+5gGQVeWuL+sMaLBZp/yQPPTSkBhBpnBAAIEQY41asAEW6fBgtAqQX4HFcBP
f5XBtk+IQPTRvr8j1bLBiI1QQZKlkcAblZjBXKh/QPQucj/Q5K/B1FHJQLOIKsARYqzB+IUuQX4s
msBCVqbBivr7QBDRiT828aDBgytIQdFUHsCjH4zBHNDVQKsv00DhyMPB9fjBQB9R2UCHYrbB/EqM
QM28tECSvsHBB8qyQHRRjEAULcXBsdr/QPnqk0DDTL7BcaQGQbklwUBvF7bBYziPQNJfn0Bpz67B
nsSCQFe8Y0DsBLfBm2QCQayJe0BQg6vBdFzfQLaUpkA+qKfB/mTNQGUpMkDVBbbB5smVQJPYk0A+
vobBFyi/QOk1WUDA7YTB/SvMQMmSoEAVI4rBnBdfQHmTJ0APSafB27IDQAXbZUCxepjB+MY4QMLw
h0DggY3B7VQQQbDVT7/MVZ7BYv6vQP51Ub9hkrLB2mEoQQ7qicCXbofB1WGpQIlsDj9SorDBWSPJ
QI6Myr/oe6vBhEQmQT3BecBQl5LBNYfSQB5QwT6SKqDBP5QXQUnTb8Bi/4HB19O7QDUulz8vjKfB
sljaQKiyeb+pQKLBDD8UQR+yR8C8KJPB3DzMQF+oS0CLY5vBfA6EQLTCXkDiV5nBQpEKQbmjHsCg
i5zB1WLNQBSowkCITLzBt0WoQBrCo0A2vb7BVVv0QK/sqUBfDbjBBaWbQF0yikCRsrTBY6ToQN5E
kEBbAK7BMmPCQJ8FYkAZ+a/Bkla1QOkfLEDHkqXB2Si0QAejhkBBAorBiq2sQMEBb0B5AZXB48uH
QA75N0AxpKLBr2M6QEyEdEBOqpTBjU7xQHFB2L+hoprBZZTyQKfGSEASQJnBlsoSQdj+JMCubaXB
/qMLQa3mQcDzGonBM8KhQNyQpL/8f7nB98s0QR/nncDVF4TBGyWWQEOHkT88G7bBjDDPQPcRKMBw
HK3Bq8swQQRChcA5HZnBlAHeQBKdUD9RzpjBFVsUQUKmdsC6GnPBQGTWQH2h00APrMPB2fzCQJX2
2UD+PLbB6neMQEZItkCLgsHB40OyQDRbjUDsDMXB6bX/QGvJk0AGR77B3fcGQUvDwEDbELbBlZWP
QDmHoECUma7B2UaCQF6uZkDJ1bbBt1gCQX4Ke0AxfqvBy8rfQEPBpkBHmqfBiLLMQDecM0A4EbbB
xiCWQIs7k0A1q4bB7oG/QLG8V0BWDIXB/nHMQGsdoECMF4rB3DVeQF34JEBQJKfBX4EDQCWxZkBc
ZpjBUlw5QAz/iEC9kI3ByxnnQOOo0L9lEZPBhvOvQCZQUb/8i7LBeigeQaobf8AufYPBpXupQIvL
Dj+Do7DB49vIQKihyr9HaqvBNcgOQam5SsBzS4nBImLSQAh1wT6SHqDBSQ8tQbzrjMDT0IrBHdy7
QGFUlz8Si6fBXgraQCs9er/fKaLB/FgVQcV9ScD6y5PBykHMQF3MS0BxaZvBRBGEQKPJXkCDXZnB
HaAKQRNYHsBsw5zBV1nNQP3TwkCPTLzBrj+oQCLso0Dqvr7BclX0QF4YqkC+D7jBgKWbQHVMikAP
trTBiaPoQCtikECFBK7BjWfCQBUyYkBf/q/B5F+1QHc+LEC/l6XBwCa0QIaWhkCDBYrB1a6sQA8L
b0BBBpXBr9OHQH4SOECrqqLBFmM6QB91dEAGsJTBGGTxQBfb2L+vl5rBPZnyQIXiSEAmRpnBe1sS
QaQsI8DyxKXB5KYnQWYLecAol5TB7cqhQMh8pL8jfLnBnuEdQUkBh8BLG3bB/miWQKzZkT/CI7bB
acXOQIAxKMCABa3BA+sAQeoBK8Ah/4XBIdfdQKMQUT89w5jBgLs6QeX5oMBYJonBDFfWQPXW00D+
qsPB3fHCQEQa2kA0O7bBXG6MQDtytkARgsHBsj6yQCaPjUC9EMXB0LH/QF7+k0A/S77BnvMGQcbv
wEC1EbbBcZSPQOCXoEAdm67BnEmCQHLiZkDt2rbBZFoCQQ1Le0Dog6vBjcbfQPzVpkDbnKfBQbjM
QNLSM0COF7bB8xyWQPomk0CJrYbBVIG/QMGVV0AqEoXBom3MQDYToED4F4rBxUpeQP8aJUBOLKfB
S4UDQOCeZkDwbJjBk1I5QBXxiECnlY3BFZnnQLx00r+j/JLB

> <OMEGA_E>
DJ5cP6ZkWD8ip1g/VLtYPw==

> <OMEGA_NBR>
     18324

$$$$
50158056
  -OEChem-04172616093D

 52 55  0     1  0  0  0  0  0999 V2000
    6.8423    5.7403  -23.8228 C   0  0  0  0  0  0  0  0  0  0  0  0
    9.2551    5.8481  -16.4262 C   0  0  0  0  0  0  0  0  0  0  0  0
    7.8090    4.9176  -23.2144 C   0  0  0  0  0  0  0  0  0  0  0  0
    5.4866    5.6115  -23.4685 C   0  0  0  0  0  0  0  0  0  0  0  0
    9.2337    4.4456  -16.2891 C   0  0  0  0  0  0  0  0  0  0  0  0
    8.0672    6.5469  -16.7264 C   0  0  0  0  0  0  0  0  0  0  0  0
    7.4224    3.9712  -22.2460 C   0  0  0  0  0  0  0  0  0  0  0  0
    5.0961    4.6722  -22.4960 C   0  0  0  0  0  0  0  0  0  0  0  0
    8.0226    3.7433  -16.4407 C   0  0  0  0  0  0  0  0  0  0  0  0
    6.8584    5.8427  -16.9045 C   0  0  0  0  0  0  0  0  0  0  0  0
    6.0636    3.8497  -21.8578 C   0  0  0  0  0  0  0  0  0  0  0  0
    6.8316    4.4383  -16.7566 C   0  0  0  0  0  0  0  0  0  0  0  0
    6.3718    3.2031  -19.4535 C   0  0  0  0  0  0  0  0  0  0  0  0
    4.1040    3.3306  -19.1175 C   0  0  0  0  0  0  0  0  0  0  0  0
    5.9230   -1.6363  -20.8754 C   0  0  0  0  0  0  0  0  0  0  0  0
    7.2403   -0.8460  -20.8477 C   0  0  0  0  0  0  0  0  0  0  0  0
    4.8987   -0.9402  -21.7893 C   0  0  0  0  0  0  0  0  0  0  0  0
    7.0073    0.5985  -20.3819 C   0  0  0  0  0  0  0  0  0  0  0  0
    4.6300    0.4978  -21.3137 C   0  0  0  0  0  0  0  0  0  0  0  0
    5.9394    1.3453  -21.2503 C   0  0  0  0  0  0  0  0  0  0  0  0
    5.6607    2.8419  -20.7601 C   0  0  2  0  0  0  0  0  0  0  0  0
    5.5631    3.6589  -17.0615 C   0  0  0  0  0  0  0  0  0  0  0  0
    5.3662    3.4585  -18.5196 N   0  0  0  0  0  0  0  0  0  0  0  0
    4.2369    3.0345  -20.3894 N   0  3  0  0  0  0  0  0  0  0  0  0
    2.8757    3.5025  -18.4897 N   0  0  0  0  0  0  0  0  0  0  0  0
    7.5849    3.2690  -19.2841 O   0  0  0  0  0  0  0  0  0  0  0  0
    7.1409    6.4698  -24.5611 H   0  0  0  0  0  0  0  0  0  0  0  0
   10.1820    6.3882  -16.3013 H   0  0  0  0  0  0  0  0  0  0  0  0
    8.8488    5.0125  -23.4907 H   0  0  0  0  0  0  0  0  0  0  0  0
    4.7439    6.2351  -23.9439 H   0  0  0  0  0  0  0  0  0  0  0  0
   10.1451    3.9101  -16.0679 H   0  0  0  0  0  0  0  0  0  0  0  0
    8.0834    7.6227  -16.8199 H   0  0  0  0  0  0  0  0  0  0  0  0
    8.1671    3.3321  -21.7950 H   0  0  0  0  0  0  0  0  0  0  0  0
    4.0531    4.5755  -22.2328 H   0  0  0  0  0  0  0  0  0  0  0  0
    8.0030    2.6707  -16.3155 H   0  0  0  0  0  0  0  0  0  0  0  0
    5.9536    6.3771  -17.1539 H   0  0  0  0  0  0  0  0  0  0  0  0
    6.1168   -2.6505  -21.2547 H   0  0  0  0  0  0  0  0  0  0  0  0
    5.5157   -1.6979  -19.8554 H   0  0  0  0  0  0  0  0  0  0  0  0
    7.9403   -1.3381  -20.1564 H   0  0  0  0  0  0  0  0  0  0  0  0
    7.6726   -0.8322  -21.8591 H   0  0  0  0  0  0  0  0  0  0  0  0
    5.2919   -0.9128  -22.8162 H   0  0  0  0  0  0  0  0  0  0  0  0
    3.9564   -1.5075  -21.7725 H   0  0  0  0  0  0  0  0  0  0  0  0
    6.6626    0.5809  -19.3374 H   0  0  0  0  0  0  0  0  0  0  0  0
    7.9588    1.1470  -20.4447 H   0  0  0  0  0  0  0  0  0  0  0  0
    3.9293    0.9781  -22.0125 H   0  0  0  0  0  0  0  0  0  0  0  0
    4.1807    0.4622  -20.3103 H   0  0  0  0  0  0  0  0  0  0  0  0
    6.3376    1.4118  -22.2735 H   0  0  0  0  0  0  0  0  0  0  0  0
    5.6257    2.6750  -16.5737 H   0  0  0  0  0  0  0  0  0  0  0  0
    4.7016    4.2129  -16.6604 H   0  0  0  0  0  0  0  0  0  0  0  0
    3.4731    2.9493  -21.0292 H   0  0  0  0  0  0  0  0  0  0  0  0
    2.0288    3.4011  -19.0116 H   0  0  0  0  0  0  0  0  0  0  0  0
    2.8391    3.7277  -17.5160 H   0  0  0  0  0  0  0  0  0  0  0  0
  1  3  1  0  0  0  0
  1  4  2  0  0  0  0
  2  5  1  0  0  0  0
  2  6  2  0  0  0  0
  3  7  2  0  0  0  0
  4  8  1  0  0  0  0
  5  9  2  0  0  0  0
  6 10  1  0  0  0  0
  7 11  1  0  0  0  0
  8 11  2  0  0  0  0
  9 12  1  0  0  0  0
 10 12  2  0  0  0  0
 11 21  1  0  0  0  0
 12 22  1  0  0  0  0
 13 21  1  0  0  0  0
 13 23  1  0  0  0  0
 13 26  2  0  0  0  0
 14 23  1  0  0  0  0
 14 24  2  0  0  0  0
 14 25  1  0  0  0  0
 15 16  1  0  0  0  0
 15 17  1  0  0  0  0
 16 18  1  0  0  0  0
 17 19  1  0  0  0  0
 18 20  1  0  0  0  0
 19 20  1  0  0  0  0
 20 21  1  0  0  0  0
 21 24  1  0  0  0  0
 22 23  1  0  0  0  0
  1 27  1  0  0  0  0
  2 28  1  0  0  0  0
  3 29  1  0  0  0  0
  4 30  1  0  0  0  0
  5 31  1  0  0  0  0
  6 32  1  0  0  0  0
  7 33  1  0  0  0  0
  8 34  1  0  0  0  0
  9 35  1  0  0  0  0
 10 36  1  0  0  0  0
 15 37  1  0  0  0  0
 15 38  1  0  0  0  0
 16 39  1  0  0  0  0
 16 40  1  0  0  0  0
 17 41  1  0  0  0  0
 17 42  1  0  0  0  0
 18 43  1  0  0  0  0
 18 44  1  0  0  0  0
 19 45  1  0  0  0  0
 19 46  1  0  0  0  0
 20 47  1  0  0  0  0
 22 48  1  0  0  0  0
 22 49  1  0  0  0  0
 24 50  1  0  0  0  0
 25 51  1  0  0  0  0
 25 52  1  0  0  0  0
M  CHG  1  24   1
M  END
> <OMEGA_C>
+PPaQFWwt0Aglb7B9BQUQUoju0DZaIPBp+P5QC5dnUAUt7nB05GvQLiRs0Bmv7vBGL0TQTdCjkAG
UILBJBMBQW+A0UCiz4XBsITtQGwnfkDp97HBBROjQKyClUDn97PBllwAQYCRb0CfhoPBu3fbQKT3
ukCAPIfBDAnCQD9idkC63K7BVJzaQEIGjkCWDYbBBebLQOv+TEDYoJvB3FODQL8nVUC58JjBRom9
QLdz0b/LAKfBjbDnQHGQWL//x6bBX8KcQLOycL9zUK7B9jvgQB45GT8XDqPBSCmUQH7b/j6LgqrB
TQ++QEMyrD+FAKrBiyS1QIzhNUDIFKbBvQSyQNgrakD/fYjBurerQHZXXUA7KJTBnJSHQOw0QkBu
HaPB8gs4QJcpYEDY6pPBrLfyQOM2UUDjRZrBJoLkQFkIz0AlfcTBRukiQVdszEAcaYLBnZQNQW9m
oEDp7LvBNM6XQBqGx0Acjb/BS1IiQVA+ekAWi4DBg1UBQY7t80Atj4bBl6wCQbJAVUA9XK7BMbOB
QONqkkCz3LHBHgwAQRjtKkAlhoLBgIO+QN8QzEBKO4nBoLzDQHOiKcCTCarB44CwQE5V2b/l157B
uRb+QINFq79AQKHB8YX1QB4LVb9Y367BXFepQFatab+rh7bBTTZ9QBr2wL/9La7B3jPVQLqyFD8X
s5rBT67+QJXPkj/LjqPBZ3l7QFFkej+OGbDBRsiFQGqi7D6Re6LB4s3KQHG2tD8OMLLBagW0QCsz
K0DwloTBmHOWQHjQhkBpSIXBDEheQJvAPEDiO6jBFdgBQOSqWUDOF5jBd7M1QFmTbkDeIIzBEcHV
QAQotUD1n7/BMtnyQGR29UBRAYbBOz70QLUerUAIm7fBdTGuQLqin0AycL/BMEsFQeYjz0CYv4XB
lebFQC4W9ECo+obBeijrQJLSj0AOYK/BhrakQE+8gkCzHbfBNVv1QHd6p0AbXobB2qewQCJjzECf
xIfBA7zCQOUSdkAL0q7B1FHIQMHppUCFY4fBUxfNQK1WUkB/JpvBfReEQMaUVUAK+5jBa9izQGHG
y7+v76jBUGPYQLyxeb+zXaLBJoiqQBNzPL/U6bLBw3bNQAaW7T76B5/B/aSfQCk2Nz9L0K/BzdfD
QMLUrz/w7ajBvuC3QMQLN0DrqaXBVdSxQFkrdkCpj4jBHOKrQPoJYEDx9JPBWMmJQEKNPkCn+6LB
kkU4QD92YEDvR5TBFWrzQPQsUkAhBpnBcavcQHfNy0AT68XBcIkBQeryCUG8dIXBvVcJQbZ3vUD4
w7fBQQiXQH9KpUBzscXBdoMWQZ4w0EDWE4XBbrmzQNW8CEH8HofB2JYBQUEFiUCJZqnB2VCGQFSW
ZEARDbfBXMYDQdEeikCvD4bBiEuOQGRpy0CAqYjB2wy9QHDDJsBVdqvBXd2WQBuL0r+g9aPBIKDd
QJqWyr+TJZvBTrv1QFx/d7/bOafBF+/GQGlGPL+ZHLjBzkaPQDv0lb8uQrfBRxqxQBbb4z420pnB
vLzoQC/HYj+xm5rB+EebQJIgpz/+KLfBC7yBQC/+Nz+JLKvBhPjgQDtYtT+/263BuDzFQPNAREA9
sYTBzVaSQNyseUBIp4TBIgFkQF1zM0DrJqjBcScDQLChVkAukpjBzOkzQD4eckBcnIzBJOf9QErp
90BDWovBAefLQPQjpL/4A7HBV74KQTwJ20DioZHB0ubQQDvZ9UCaQ4vB1q3XQBDG0b/lgabBPGOz
QNrA+b0O0rLB5g0AQZPQu0CHsZfBUEq7QFSq10DZp5HBKevLQKooUb+B053BWMGmQPc2Lj/ZHqrB
nKPSQMsrukB7ApjBvy60QMQmuj66nZ/B13XLQAquWED67ZzBxe6DQKMoYUC3sZjB1cPkQLdZoEBD
q8HBHVbqQELDyEB707rBScm5QHikikAGFL/B2cDoQC10vUCu5K7BdZC2QMR2fkDKIrPBFyq+QLeq
pkC0savBWIa7QCC3mUABYJ/BMRSoQGIooD+jL5bBZhSoQPcCLEDkFpnBtoWNQC+clkAkgJzBJTY3
QGJHSkAu8ZTB5EXvQHk7O0D7i57BtiMHQaPVB0HwmIbB3avVQDAF879nrbfBJP8bQSbY3EBvzJHB
Idu+QJjCBUERRYbBobzpQHu+IsABG6XBRUyqQH5XGz4d3brB1TwJQUWypEAJL5zB+7yYQK341kA6
uJHBuBXVQNKoi78RypXBmrCSQCGNxT/peavBHGzlQAowqUCBL8rB8Q3/QKH1iUCd9r/BP7MEQW6U
10APrLzBuXXQQFJy30CjrbzBFY6fQEOVoEDYKcHBkPC2QOpZWkDJ1sPBBNkBQQAPqEBLCK3Bp8jr
QDoY20AqNarBh2+WQB+sZECMi7HBqLjOQHNvTUAySrHB0PqjQC9rvUBnMK3BoN+HQDT2eD/aa5PB
8kC/QNaQiz9LsI/BU+9wQAh3rkB3Wp3BBn4HQH3rdEBSCpXBtPYsQJcxD0CwJZLBhFYCQd7i8kAa
K4jB6bHQQNpimr/E17DBds0FQbmnxkBiEYfBFRnpQCIfAUFPNJDBh9TVQK6i0L+UKabB5Em8QIaA
nDysErPBt0j3QJm/qUBwBY7BIbnUQGZk5UCUNZfBXkDHQFZpUb/1sZ3BbgCtQNDJUT9IoarB+hzc
QATAuEBBWJbBimmzQNyp1z4w4Z/BaovPQBKAVUAbqZvBOpCHQDuRakAwDZnBLxLCQHMlnECv88HB
XtbsQAGtkUBCd7zBwJGqQFXqv0Dj27vBPtzlQJyGhEAxwrDBd4OiQGraskCpJ7DBpfHMQGIip0DZ
O6rBx8fEQOXSmUASAZ7BTPOjQK4spT/tqJbBPgKpQCDALkBECJnBYq+WQCChm0DhLZvBbn05QJok
WUB785bBG5zyQL4jMkDGFJzBlD8KQcuIBEFl2oLBdmfcQLIM6b8JUbfBCEsQQXzeukDg3YDBxozj
QFsaEkEzAJHBFPPkQDD5JMBnd6TBJ2C4QN8wsD4OQbvBXFn8QDjKh0D+CI3B9kq/QD9g8UAjSp3B
6kLLQFJ3kr8hhZXB+lOcQMzF3j9WXKzBjEDIQBW5pkCnM8rBveytQH2SfkAvFMLBE2r8QOhmbkBk
w8DB4sYAQcgdrkB3t7zB8zW+QJge3UD6ArzBc7KLQEk1xkBkyL/BSoLTQM39TEDTlrDBHKACQbXf
fkBJ/KzBeiSTQFSwzUC886vBOh+NQDfnlkBTCLDBnufgQDIfxEA6F6rBVOmBQAoiij/+L5XBAp+2
QF/bhT8Odo/B212FQNiEtkAg7ZrBpoIOQPtHhEAdAJfB+OEmQFIxHUAmZJXBzQ4aQVnZpEBYlovB
AkXdQHQV2b/Km67BTdQaQb9GgUB2dJLBiewHQaCSv0BDjIvBtPy9QKuggb/Xn7TBikffQHMhw78C
bKPBsGoJQTkrcEB1LpnB69zsQKGBtkBtSZLBBZWgQFHmJL7JdK/BlQDCQCZ9K79iPJ7B0XHtQHIN
kkATCZnB9VKiQIBG/zswOqTBmvvBQKrvMUA9u6LBzMWGQEBcYEBbfJnBpfPMQAAYrEDN0sLBXCn0
QAqxtkAu17vBzjijQPlttUDzsbzB7mTzQOoenUBDVLHB9z+hQNhum0BJQLLB9NnIQKZRpEAv8arB
pNvGQJWviEB9ZKDBg06GQLYXhz+B3Z7BVaKaQPi4GUCHV57BtueeQMVwkkAcfprBJ1k+QE9qX0Ci
Z5TBKH/aQFyXBkB6I6jB1VwnQaatq0BaWIbBu7XzQPV5FsAlkrLBUdEoQSH7WUDYj5LBbGsHQVgd
20C2VYbBsI28QEAqkr/hMb3BxUP3QAoVA8Dw0p7BjTsKQbn2OUDlhp7B+2XRQAV8y0CxT5LB766I
QG4buj6CE7TBiMTDQABWCL9orZXBmuDNQA+/v0DbHsrBSNrNQM4DikDiA8XBcroIQSaurkAOSsDB
mwD0QGoX2UCy+bnB2MuhQLe/10COxbrBqsOHQBXMrEDOwsHBKIT2QEe6dUAmMrPB5UIHQcFKp0DX
VKzB7vmDQDQppEDj4K3Bk2WgQGxMckAFPLTBxbrHQP4yxkBVkqjBQIRQQOXjkT8XZqPBepZ+QF0K
OT+UqZbBZUSXQFhZr0CCpJfBZsYmQAicikClOpHBe/wcQJ7uKECG7ZPBdpgQQfXn0EALjIrBW4fZ
QLqPuL8ZtLDBIgkWQTgVqkDZgo/BEOX4QMGK40AQdIzBP4LSQDYY8L+PHKbBidzHQASzZr4DO7TB
xkkHQfyhlUDGQpbB+B3bQL8Hz0BxLpPB5o27QCIxiL8z4p7Bdw6vQPsUDD+GLK3B6xflQJwop0D/
+JfBaL+qQFzKMT7tTqLBqBnIQNLPQEC2CZ/B6Y+FQN5YZkCo1pjBY0XSQNVSmkCrvMLBDxH1QMFB
r0CRwbvBpaGlQLdnokDT7b3BPW7zQIYCnkAmOrDB+/GiQEUxkUAqarLBGlrGQHVhpEDsCKvBYBHE
QME2kUCOV5/BOaSUQLnYjD/bUZrBVhygQKQXIkCC4pvBe42YQBbel0BT5JrBNsM5QKLhXkCQa5TB
GkHnQM/UFUDMoaHBM9wbQfdy4ECXRYXBOnPsQOHBAsAOGrbB9pAlQWD3m0BwIo7BxsfwQBPXAEFI
vojBwb/eQAJKNcDBhqPBw1TNQIo/6D3lUbzBcbwLQdFpcEBqNZrB/na8QDHL3UASs5TBY9i2QNPi
sb8Bu5bBUyGfQNSetz+yErDBs5jTQCYIqEDh1crBtBDYQCNKb0C5KMPBe1YKQQ87qEADNb/B/vrv
QEoV0kCRnrvBP0qfQD8HxUC/3b3B/XONQAcxkkBC4MLB3v36QMlEd0BhVrDBILEFQXELr0ChYqvB
mmuDQNRomUAEFa/BA5mmQMJhXEBum7LBnJDAQOsCx0C+aKrBt51jQBrufT8cPpvBwQCeQI8PTT+E
LpLBCVeLQNaPtECcnZnBJkYYQMu2iUAjmJLBDMIgQKb3JEDREZPBQia8QPpD9kBMU4fBUu3PQBq8
wb8p1rPBiuiqQAIrzkAwjoTB+tTJQCjt/UCW3pHBut2lQEcquL/iy6/BHjTxQBZXTb9cxa7BjB6n
QNXLrUCfVYzB8jnGQFyl3UDeqZnBkBidQJiSKL/SqKbBsHjoQCtuprxao6XB6my0QCwRtUBHCJfB
aHO+QPgVLz1ke6HBAljIQPJ/UkD025vB+O+AQDAlMECUnJzBkH3dQFuek0ABQ8HBbM31QBDVrUBi
xrjBBOGsQLjPlEBFMb/B9CTrQBJ2nUDMhK3BsgOiQI10hEDU3rPBbty5QNAqn0DmPavBGPauQETM
kEAhW5/Bnvq0QFY0Yj8BpZfBpG6qQN+5EUBcjprB3CeCQFtjgUDftp7B+EQ3QGqK/z+OMpzBpK7u
QGQJTkA10JnBbd6+QIaPB0FnXIHBvqfWQAVmB8A/z7rB34+gQOs1yEAJ5XjBxCTXQNhVDkGU/ZPB
Q1qMQKFf/b/Is7PBMbIIQW8fW7/84rHBjO+ZQJkWj0DPIYrBkxPRQG+440CTuaHB3qJ5QPS8GL+b
nKPBMfgAQW8CCD/dz6HB1hXkQDUVoUA+OcnBWY3oQEhxZEAS+sDBQTYMQWfGqkACK7rBo3LsQFOr
z0CxarnBiX+hQPz1tUDvAcDBHbOcQKV2gEAmIMXBQyf2QE1QeEB0yKzBXNT7QCx4sUDamafBRZ9+
QAAlh0BNj7LBgberQOt1RUAzL7PBYJivQLupwECvGKzB2rCZQEzt4j5KWJPBFknRQB9zYj/raZLB
dq9QQP3Zk0AhvZ/B5j79P/eIG0Cji53B/UA6QM9rgj83jZrB0128QFTj9UBW0InB0VLUQFh0qr/i
5rLBNc3gQMw45UBD747Bh3SUQGia4UAPA4vBUe+oQDgtn7/u36/B0zz0QEBbOr++jqzB7QHdQJ5U
wUDOnJXBJXqQQEiqvUAgsZHBkXSdQACoDr+QeKbBk8/oQACJOb0aJKPBqYi0QFQ8rkAUZZfBJXe9
QABC6DzmBqDBp/3HQIAlSECMNZzB7YGAQJhBKUBgap3Bk3zUQNQvnUDWl8LBoyv4QIJ1nkCcJLrB
O7urQBwPs0DIZL7BPXrpQGgWikAmkK/BA3KcQJgfnkBR7rPBX+e/QPRWn0DEMKvBVz6wQODOi0BO
CaDB/yKxQKDPVT/EWJbBiW2oQKAnDUDOzJnBd5ODQDBQeEDKzaDBwpo1QKCt9D/sL53BNyfuQAiE
QECyHZrBEga/QMspCUES84TBKB/dQJJw7r+bGLrBLaj/QCUG9EDAuo3BgahxQEuu7UAAyobBO4iQ
QEbp2b/qxLTBYbUKQfYeSr+s7K7BtB75QLEwtEBmapnBUeNjQIzJrUCme5LBNm54QF8w9b7JMKTB
45kAQeo32D7TS57B/XDfQPzjrUDB1snBlDLNQOtNd0ATjcTBwwsKQRDLjECALb3BN5QAQQr5v0B8
qbjBr4uyQAAT1UAR57zBtVeSQO0/sEDMcsTBF1fjQI+yT0BG6bDBy4cBQULNjUAvl6nBziWAQOds
r0D7+7DBa9yTQKYyeUBlirXBfV7HQNc4wUCMtKnBz1OUQGRfzz5rpJLBP4XLQPfAVD+HhZDBuAtW
QGB/jUAljKPBt/L9P2rEFEBKup/Bvuc1QAVweD9xe5rBqRO9QHC490ALPIfBuYLQQOCOxL9siLPB
X3u/QFdszECdO4TBati1QJFSAUF4/JHBniblQKzY47/ssqnBk1SyQOJc/b4fX7TBdEO7QKIKrEAm
/YvBw4KxQMlr4kBDxJnBH/TbQEOKeb//uaDBms6oQCCGmj4yZavB62y1QHJotkCr9ZbBMSy+QP14
rD2djaHBUg3IQG5GU0Cq+JvBwDiAQL6SNECTJZzBb/HdQF4jlED/GMHBI2v1QK2or0DStLjBlU2t
QAcDlEDwDr/BVRzrQAInoEBZVq3BwSWjQBKvg0Cjs7PBcti5QMvFn0CQMavBhAavQCf4kUC0PJ/B
DFizQBi5aD/gqZfBNIapQEFrFECFRJrBqhSCQCOEg0BxVJ7Byjo1QL8eBUDyrpvBrX7uQDjVTEBO
H5rBpMfAQKdCCEHvSYHBudXXQDtZCcDJa7rBxJTEQOr8w0BI53fBrZuzQFjxEUGlSJTBhgn8QBRx
JcDECKnByHyiQH6bnb4w57vB6Xq8QPDiikDIkYnBTSKrQPYm60AU+aHBOLnrQJh9lb8BMpnBVxSR
QPelij9JBKzB5jTkQJFAoUDSHMnBGv7pQD04ZkCAqsDBChAMQV1brUCJDrrByzfrQBEu0UA5jLnB
QfCgQBzItEBY77/BQLedQGkDfkB98sTBO6v3QOQKf0ALUqzBPZT6QPymtUCJiqfBoV2AQEvzhEAA
Y7LBf0iuQCngREDy67LBFT2uQOvAwEAjNqzBSVCXQIG17D4MuJPBRdfOQGh0Yj9KLJLBaR5RQKt3
lkCuP5/BuNj5P697IUAjD53BknQ3QCdGjT91+ZnBLT/AQFBx90AAm4fBQ1DRQKQvyb9/frPB14nf
QIAQ8kDol4/BA/ScQEKP20CmJ4fBy+ziQAhG7r+LYKnB0561QABm8b58vLTBL2rbQGQH0UCGMJfB
+3KYQFjUukCbzI7BYwrZQNQDhr8pgqDBe5qrQEDKrj5u4qvByxC3QMjNtUBSHpfBa8G9QIA5jz1z
t6HBezzJQKzOUkAVWJvBA5mBQOAqNUCIO53BM7bSQLJmk0B/esLB7aH3QAzYlkB+Y7rBh7erQFZK
rUDyo77BqXzpQCzeh0BMOq/BAbScQOidnUATmLPBwz7BQIykoEAiI6vB90myQPCZkUC8c5/BURey
QNDdZT/y5JfBP9+pQFhAFEA1eZrBvwOFQJw7g0Dvvp/BVKI2QHjXB0AhT53BKyLvQFjmSkAk95jB
C1XDQAN6CEHy04HBeAzZQBdcDMCPSrrBRcT6QCaoA0H35Y/By0aFQCtJ30Ao7oDB3AT4QKlYLcCZ
aqjBEg6oQEmBgL4PfLzBIx/0QJBgzEAvHp3BUvB6QN5OpUAUWI7BCmLmQDuLo79BwZjB3/2VQIJ5
lj8m2KzBsWTdQIXun0CjQcrBWoLJQB42Y0A7WsPBPDMJQczCgkA+Hr3B/RIBQaxhuECd6LnB3Y+0
QEVKz0BnF77BDnmRQBF3qUAubcTBTNnhQBETS0A0l6/B7/oBQVoNjUAbk6nB2KGBQHd3sUAy8rDB
N1SSQD4seEDyQrTBpEDKQFmRwkDHearBYBqVQO9P8T5EQJTBBrDMQBp9WD8hJZLBIZFYQHAblkBr
nqHBfzQAQMgvJUA7X5/B7/01QHXJkz8gTZvB

> <OMEGA_E>
ZqsvP3TSKj+bkYw/o6iLP37Aij/yRIg/mhOEP25nhD+0LYU/K0KGPw==

> <OMEGA_NBR>
     27351

$$$$
50158059
  -OEChem-04172616093D

 52 55  0     1  0  0  0  0  0999 V2000
    6.3822   -1.3159  -21.9358 C   0  0  0  0  0  0  0  0  0  0  0  0
    7.3030   -0.7067  -21.0658 C   0  0  0  0  0  0  0  0  0  0  0  0
    5.2212   -0.6249  -22.3273 C   0  0  0  0  0  0  0  0  0  0  0  0
    7.0687    0.5962  -20.5932 C   0  0  0  0  0  0  0  0  0  0  0  0
    4.9806    0.6767  -21.8542 C   0  0  0  0  0  0  0  0  0  0  0  0
    7.8379    3.9072  -16.3284 C   0  0  0  0  0  0  0  0  0  0  0  0
    6.6906    6.0187  -16.7789 C   0  0  0  0  0  0  0  0  0  0  0  0
    9.0985    5.9905  -16.3707 C   0  0  0  0  0  0  0  0  0  0  0  0
    5.8954    1.3031  -20.9749 C   0  0  0  0  0  0  0  0  0  0  0  0
    6.6581    4.6176  -16.6283 C   0  0  0  0  0  0  0  0  0  0  0  0
    9.0637    4.5855  -16.2449 C   0  0  0  0  0  0  0  0  0  0  0  0
    7.9076    6.7091  -16.6173 C   0  0  0  0  0  0  0  0  0  0  0  0
    6.3117    3.1045  -19.2176 C   0  0  0  0  0  0  0  0  0  0  0  0
    4.0589    3.4730  -19.0244 C   0  0  0  0  0  0  0  0  0  0  0  0
    6.7203    5.0457  -24.1998 C   0  0  0  0  0  0  0  0  0  0  0  0
    7.8081    4.6854  -23.1670 C   0  0  0  0  0  0  0  0  0  0  0  0
    5.3571    5.2958  -23.5280 C   0  0  0  0  0  0  0  0  0  0  0  0
    7.3722    3.4970  -22.2935 C   0  0  0  0  0  0  0  0  0  0  0  0
    4.9411    4.1015  -22.6509 C   0  0  0  0  0  0  0  0  0  0  0  0
    6.0328    3.8338  -21.5812 C   0  0  0  0  0  0  0  0  0  0  0  0
    5.6275    2.7498  -20.5217 C   0  0  1  0  0  0  0  0  0  0  0  0
    5.4059    3.8520  -16.9415 C   0  0  0  0  0  0  0  0  0  0  0  0
    5.2958    3.5840  -18.3880 N   0  0  0  0  0  0  0  0  0  0  0  0
    4.2021    2.8743  -20.1775 N   0  3  0  0  0  0  0  0  0  0  0  0
    2.8422    3.8965  -18.5121 N   0  0  0  0  0  0  0  0  0  0  0  0
    7.5214    3.2570  -19.0870 O   0  0  0  0  0  0  0  0  0  0  0  0
   10.2056    3.8812  -16.0705 F   0  0  0  0  0  0  0  0  0  0  0  0
    7.9361    8.0579  -16.7206 F   0  0  0  0  0  0  0  0  0  0  0  0
    6.5661   -2.3145  -22.3036 H   0  0  0  0  0  0  0  0  0  0  0  0
    8.1911   -1.2401  -20.7603 H   0  0  0  0  0  0  0  0  0  0  0  0
    4.5130   -1.0956  -22.9930 H   0  0  0  0  0  0  0  0  0  0  0  0
    7.7857    1.0642  -19.9349 H   0  0  0  0  0  0  0  0  0  0  0  0
    4.0900    1.2031  -22.1644 H   0  0  0  0  0  0  0  0  0  0  0  0
    7.7987    2.8407  -16.1628 H   0  0  0  0  0  0  0  0  0  0  0  0
    5.7870    6.5601  -17.0170 H   0  0  0  0  0  0  0  0  0  0  0  0
   10.0368    6.5171  -16.2784 H   0  0  0  0  0  0  0  0  0  0  0  0
    7.0257    5.9562  -24.7362 H   0  0  0  0  0  0  0  0  0  0  0  0
    6.6185    4.2158  -24.9145 H   0  0  0  0  0  0  0  0  0  0  0  0
    8.7338    4.4197  -23.6986 H   0  0  0  0  0  0  0  0  0  0  0  0
    7.9931    5.5566  -22.5215 H   0  0  0  0  0  0  0  0  0  0  0  0
    5.4267    6.1957  -22.8991 H   0  0  0  0  0  0  0  0  0  0  0  0
    4.5962    5.4509  -24.3071 H   0  0  0  0  0  0  0  0  0  0  0  0
    7.2359    2.6081  -22.9270 H   0  0  0  0  0  0  0  0  0  0  0  0
    8.1466    3.2944  -21.5390 H   0  0  0  0  0  0  0  0  0  0  0  0
    3.9877    4.3289  -22.1516 H   0  0  0  0  0  0  0  0  0  0  0  0
    4.8207    3.2086  -23.2820 H   0  0  0  0  0  0  0  0  0  0  0  0
    6.1862    4.7751  -21.0332 H   0  0  0  0  0  0  0  0  0  0  0  0
    5.4245    2.8952  -16.3991 H   0  0  0  0  0  0  0  0  0  0  0  0
    4.5346    4.4402  -16.6176 H   0  0  0  0  0  0  0  0  0  0  0  0
    3.4481    2.5464  -20.7466 H   0  0  0  0  0  0  0  0  0  0  0  0
    2.0017    3.7493  -19.0336 H   0  0  0  0  0  0  0  0  0  0  0  0
    2.8051    4.3490  -17.6212 H   0  0  0  0  0  0  0  0  0  0  0  0
  1  2  1  0  0  0  0
  1  3  2  0  0  0  0
  2  4  2  0  0  0  0
  3  5  1  0  0  0  0
  4  9  1  0  0  0  0
  5  9  2  0  0  0  0
  6 10  1  0  0  0  0
  6 11  2  0  0  0  0
  7 10  2  0  0  0  0
  7 12  1  0  0  0  0
  8 11  1  0  0  0  0
  8 12  2  0  0  0  0
  9 21  1  0  0  0  0
 10 22  1  0  0  0  0
 11 27  1  0  0  0  0
 12 28  1  0  0  0  0
 13 21  1  0  0  0  0
 13 23  1  0  0  0  0
 13 26  2  0  0  0  0
 14 23  1  0  0  0  0
 14 24  2  0  0  0  0
 14 25  1  0  0  0  0
 15 16  1  0  0  0  0
 15 17  1  0  0  0  0
 16 18  1  0  0  0  0
 17 19  1  0  0  0  0
 18 20  1  0  0  0  0
 19 20  1  0  0  0  0
 20 21  1  0  0  0  0
 21 24  1  0  0  0  0
 22 23  1  0  0  0  0
  1 29  1  0  0  0  0
  2 30  1  0  0  0  0
  3 31  1  0  0  0  0
  4 32  1  0  0  0  0
  5 33  1  0  0  0  0
  6 34  1  0  0  0  0
  7 35  1  0  0  0  0
  8 36  1  0  0  0  0
 15 37  1  0  0  0  0
 15 38  1  0  0  0  0
 16 39  1  0  0  0  0
 16 40  1  0  0  0  0
 17 41  1  0  0  0  0
 17 42  1  0  0  0  0
 18 43  1  0  0  0  0
 18 44  1  0  0  0  0
 19 45  1  0  0  0  0
 19 46  1  0  0  0  0
 20 47  1  0  0  0  0
 22 48  1  0  0  0  0
 22 49  1  0  0  0  0
 24 50  1  0  0  0  0
 25 51  1  0  0  0  0
 25 52  1  0  0  0  0
M  CHG  1  24   1
M  END
> <OMEGA_C>
DDvMQDVuqL93fK/BgrLpQFjsNL/NhqjBVhSnQML5H79FnrLBHDPiQCKgGD/xvqTB/GCfQCM7LT9u
1a7BZND6QIwPekCLoILBzhnWQIGZwEAsO4bBWpMRQRayv0BC94LBXqe8QO7Lpj+tzKfBUA/VQBLD
k0C1BoXB3AQRQSW8kkCJ9YHB6gr9QKGw1kAp8ITBEPnJQOqwRkCNvZnByOKBQExGXkD/MZjBegzX
QK92oUAkmcHBNtz5QH3ulUAaVrnBEm2rQGN3qUBHObzBvujrQPzOX0AXWbLBrB2eQF4/g0AINbXB
UAzBQEBcdUBkpqzBghS0QEz9L0BhLKTBOP2sQJKHdkAviIfBEnepQPZgZUCWGpPB3neGQA70N0Cf
a6HBv+Y1QJBfeUDZGJTB6K7wQIRyUEAdspjB8kkjQfRleEB8kIDBhvT9QPXsAEHiw4XBlR3SQKog
FMDVbbLBpg4DQTC7nr8oFabBNWqQQO88jL+u8bfBHiT5QMk2iD+lep/Bd+GCQNb9mT+1ULHBzY75
QNHNNUB4TYHBJS+5QLrs0UDZIojB3ZYgQXOM0EA8OoLBRNLgQJSZvkCn48XBgcrTQCDohkD+UMfB
wr0LQR9ujUCklr3Bfcf/QADQsUAiLLTBhaetQO9CxkBvMbfBMRSTQCturkDwdMLB3YznQLzrJkCN
arfBVVgCQb3WUkDuT6zB+TZ/QCmGikBkNrHB90KaQEZaTUCQQbrBo/XFQFDNmEDwQ6jBkJWtQApL
OUBwMYPBnBuRQC4WjkDk8ITB2qxcQFn4IkAf+aXBFBwAQBv0b0DFRJjBrYYzQGQri0Aw+IzBM6DN
QD8gtL8Dw6zBDHjwQGhHCr86HKvBL3ejQFaSbL+X5avBaiXpQNwFTz8hiqjB4PSbQEpw2D6/SqnB
m+XrQBdSnUBfQnjBJ8PwQKxsr0D/DI/BNdgVQS/ewEDtLIPBhsK+QOC9pj8PdafBpabaQHAbm0CH
jIbBZu8JQWA2sUBo2HTBzR0NQTRWv0A5io3BUHrLQLiBRECJ+JnB+5+DQNr0YEBG2JjBPhq+QF8u
rUDtuMHBX0DVQETNgUCsDcLBExHDQEMewkBMoLbBQjTEQG1rR0DdSbnBPTiyQJZxpEDIuq3BeN7I
QEZ/b0BT363B6gy3QHAWMkDBxKTB3oWwQChig0D6c4jBkVGrQEqUaECwqpPB3zCJQBT3QkBElaLB
LOY3QDXrdUC3i5TB9dfwQIn7NkD7cpfBduERQdGrtEDTzGDB6YUYQUUazUB4EpbBSD7TQC98HMAw
sq7BJmcIQV4tab9L0avBic2IQOuTy78yPa3BPPoBQR7AvD/ZYKfB1BF3QOD4ST9yr6jBs4baQKnO
j0Cc72rB7n/hQLKpskCbwpbBRqElQRkAzkCQ64HBcevLQM5swkBx1MfBzOabQIpCqEDOZsPBjhDQ
QJDaZUBG7MnBhbX3QB34hkCazcDB8SDlQD/XyEApLbXBQuSwQNFB4EAuerbB0ymiQEZkOkCI07rB
6k7WQLIVC0AmkLnBjve3QP2zs0BF7qXBDKOPQPW4n0CK3q7BLCXrQKu+eUAqVazB7GKvQLbqTkBn
GoPBw+iVQKIdmUCmiobBgh5jQL/eOEDe06fB3tsCQKN0bkCl7JjByN4zQKI6hkBDE43BGnjKQAAk
yb9MQqrBl1btQNRoMb8kWqnB71qgQKw7ib83DarBxQXmQME/LT9p4qfB2+GYQNTtmj7moqjBJtv1
QGOGpEDB84jBfJ2vQILpxUBNEYfB3+jvQFck8kCCYYjBR7C7QHC5lz8XHqfB9AXJQIvVoEAYCojB
0ZcEQVMDzUA1cInBOzDDQA2O7kCYB4fBaXDMQH/BTEApcZzBt12EQC69W0BesZnBVsnGQDd1xkA7
a7XBunCbQEt3r0DaVrTBrhfpQEvfr0C4oa7B5n6fQBvRgEAYCbjB7dXtQFkZgUC5OrLBc+7CQOuy
T0Cc6rHBvMa0QBCkLEDVZqbBnVG0QDZNa0A/Y4nBFq2sQDZdW0BS35TBxbiHQPBSQkAJr6PBKmg8
QDAocUB4qZTBF8vyQEjMR0AmgZrBefMZQQ8O0EANDYvB4fiqQH8VCUEA7IXBN/jPQIF2KMAIHqvB
+dMGQT0yib/LyKnBdKuFQMrM37/0+6rBSm4AQTlDrT9qVKfBPBxxQFM0Lz+NtajB2LMEQSEOiEBO
R4nB60eNQAMww0DRWobBCsH+QFurCEG2mojBG7jQQEIyxkBq3L3BpWPDQAq750DprLLBeDWRQPUm
sEDE66vBD4GDQJnuv0DGTrnB2vADQTV3wECFn6/BqZPfQCm8sECAKabBGq2AQC1GYUACurbBZjan
QPeHgEAEn8DBXRv6QLO2gEANerrBxW8CQS44YkAV6azBALnIQLjRFUBStrbBbJDJQIpxOUAgKobB
JKyVQMoZakCyD4XBrVxeQAEePkB3yqjBfTMFQAfDbUDZr5jBG6s8QDP8gUD5A43BYkDLQA/3wL/w
uqvBAIPuQNUaJr+gY6rBUFyhQPJFf7+wCavBdOPnQLsQOD+UVKjBhJKaQExWvD794KjBqKn/QOYj
fEBkO4TBXI/bQL7cwkBMMIbBxJ8UQQ3nv0BB6YPB1M69QFv/nj+LX6fBeLjZQHi3lUCZ84XBFb8T
QfHgkkBqx4PB95cBQe7m10B914TBxMPLQKC1RECdV5rBZLaDQJ05X0A5D5nBXGe/QMV+tkCIQb/B
ROnEQOq5hkBNBMLBYoHVQJtcwUAzk7TBSH6zQJ0PVECC/LjBCCfEQOQspUCodqvBzkrJQKAoaUBq
Gq7BaNy2QCxGL0DM6qTBmgOwQHx3fEB3SYjBLHGrQEYDZkBWz5PBXFuJQNpzQ0CX5KLBLL43QBeK
c0ClzZTBukzyQB+jP0BvsZjBhvYlQbMVd0CRToPB+2sCQfmSAUHVnYTBlVLQQKK0I8BTSq3BAlQH
QR8Ohb+X8KrBsVWGQOzh07/TKqzBgYgBQftOsD9BeKfByax0QMuAQD+IXajBjQj+QHSJN0BmQoPB
gLW+QIBD1UDlZYfBUNojQRYN0ED4TIPB1anNQH32yUCfqcXBZBOdQFnWvUCZm77BRmazQFhof0An
csnBox/nQMS9f0BtLcPBTyP4QL73u0DqYrXBEJPPQKYt40A1orLBF8yQQOdMXkBgPLjB97m5QGew
EEBBArvBJOLVQNpsrECoFKTB8QOiQI1SrEBFRqrBVazrQMVTW0Ai3K7BhTivQLk1QUAyioPBbROV
QMngkkDu84XBzeljQO7bPECCSajBXBcDQDZLbUCoSJnBkRgzQEoyhEAhQ43BDHrLQMRCwb8qkavB
lGXdQGj/Yb/ZkKLB7E2wQIg5Sb/Jb7LBZGzUQIAa7z5nd6DBAKSnQKDXEj/OcLDBRFj4QHSTdkAN
LoDBYID6QMS+r0BGro7B5F8eQX7nmEBZF4bBVFa6QOhXnT+wjqfBUOLiQMp+k0CuE4jBAI0SQTDG
fUCbBn7B8rwTQZrasEBmB47BqNnJQGhgUED2GZzBaNaBQJSZXEAMs5jBvJfnQJpDuUAdt7vBNOe4
QFK+vkBl+7fBbHvxQN7ViUBqBb7BeOuvQDqUo0Ck8a3BMPjoQPgWXEDPFrTBJPG5QDSSZkA58K/B
QAqxQDx/LkBenqXBTH+zQB7/i0BpSorB9DurQPTlbUC4z5TBFBqEQKzSN0A/K6LBiF83QNQzb0B9
dJPB9PjwQKSSTkBXXZvBwr0cQRh5UUCEdm7BahYfQeZQyEBEJJXBkonSQKj9IsDTN63BaBLyQD82
uL89Q53BhguiQI48o7/DQ7nBuHLhQHIZbz+UY5nBWZiSQGlMjz/cuLXBXXvmQLwNTECuEnbBEP7p
QKd5xEAGOpTB8JUvQeF4mkB9bYXBJp7sQGIJzEB3DcPB7Dr9QMjjxEB5abXBWh2zQAKl4EBoG7bB
EkejQDeWtEDKcb7BPwvdQO52fUBToMTBh6cJQamzhkBhU8DB5wnEQOU5r0AJVqfB8vuNQN7upkAb
w6vBpW3uQMePGEBSK7bB9zb/QDomb0Dlsq3B51akQC7QT0D2RrbBmHmmQDIDb0A464PBegGjQJYX
q0DWMorB+JBVQA3KJECdcabBBNH+Pw2KYEA24JbBk344QEqehUDFQ4zBz5vLQAveuECZt8HBvu2p
QKFLnkAzTL7BAijsQFyAxEAzg7rBTKOoQKqLj0BbqbPBpgzrQN7KtUA34a/BOnubQCj2Nb1XeqzB
1zzNQEqWQL/ffJ7BG03VQBgizb9Rr7DB6fTIQLFcm0C1QKzBrCypQAACnzqOtaHBjWqxQNiRWb+m
8LPBtUTjQOabxr8m96XBimnHQI3bM0AeuKDB2CWHQMn1X0DVq5nB5W4UQdvvm0Db+obBPLn9QCJs
s0AQ2YXBfc8bQYE9m0Bwu5LBggDbQJznnkBR9ozBoKIKQXSQhkDrxpnBaTvpQM53nkCP3pjBMR7G
QHWkikB8oaDBCpiUQPEPez8q8ZnBjKCgQIjVGEBQVJzBQ3maQJ6ck0AzlZzBhwM+QEIGXUAV4ZTB
hsvjQK0PCEASuqTB3ESkQO8TZL/JP77BzwYDQSeXEMCF36LBenbMQO9QxEDU3cnBsgeRQOEzlUB2
18PBYQkDQdrI2EBiJr3BIsaOQBwIdkC9HLHBqSkCQUCnvkBva6rBxy6AQJfOCT/4/q7ByuzXQHgT
N7/TRpbBGhjmQP37DcBGaLbBfYwgQUN7rEBHHoLBT54SQdqwdUDaHoTBUFjzQC3xsUD/5HrBVvcA
QRYN1UCwOYjBAaceQW05vED4dJXBGLoqQbm7iEAIX5PBY2LVQOqre0A0S4rBETa9QJJqsUCzN4zB
3/0PQcV1h0AWKKLBxXYIQdg2SkBcRJfB/WbuQHLUv0BMXJvBkzRjQLMIYj9bfprBbwqfQBQVPD+z
xZHBum6NQIrGsEAjH5zB2wMeQNOgiUDdcpPBZUokQIauJEBH3ZLBasDLQBVoukDfeMHBlHa3QIdX
k0B1H7/BBzTeQAmj0kARMrnBDaO1QBlyhEB8grTBVNzcQO+qw0Ael67BrtGbQIATa7ylXqzBsLPN
QI+RPL8JdJ7BslXVQBjwyb8kr7DBgxLJQD7wm0B6E6zBi8GpQGgnvzyin6HBH36xQNeWUb8Q4bPB
PHzjQE5gxL/T+aXBohbIQIczNUDGbqDBSrmGQEmvX0At2ZnBQTPNQDd+pkC9moHBbey8QHjoxkAm
9YnBdxnZQGQ3dkAfnIbBuIfbQGELy0CUs5PBmgb6QLuUgUAhnI/BA43pQHJTn0AJyZjBX9bFQOo5
i0C+b6DBX2KVQCE3fj+CzZnBZa2gQA83GUBEb5zBndOZQG54k0DtwJzBPrA9QKebXEDT6pTBDnvm
QP7ACkCTrKPB8SCkQJJyWr8GLL7BvRgDQdjfD8BB7qLB3ybNQGvFxUDIn8nBW0GpQDO9gECzesXB
93HtQCXR8EAu/LrBfkelQH6lTUD6wLLBywXrQGiQ1kAjSKjBb4yAQOXFEj8o1a7B0H3YQBKxNL+y
P5bB6/TlQHxTDMC5cbbB5rXpQPLbs0CSV3vB3uyzQDhRoUBXPHfBJlydQLRjvEDX1IzBYee5QO5s
5kDFHIbB8+DmQMt5TEDHaoDB0im8QNAiWEAN7InBfDfLQHn03UAf55nBo3/4QDQI3EBpEJHB/IUL
QTLqj0DJJozBW/AAQQBLRECWDJPB6aUCQbtFpkAu6p3BmsxkQO0GYT9tI5rB+LWgQGBIQz9HrZHB
bD2MQLZssEAzf5zBt+8dQHlniUC9YpPBohskQDIyJECB55LBC6j1QN0uLj9EN23BtpgHQft2Sz+F
oX/BtAXJQJstVj/Ptm7BXC/8QNfhiT94vonBa8i1QBAojT+oTYHBdZLTQB4VfkBd+bDBxIOwQDPa
w0AlHrPBZdDVQCpXokBSL8LBOizPQDKSnj+HqYrBHoW7QGQJoUDNe6zB51XhQJm/f0AImLvBefy8
QCUQxEB0+r3Bt+jNQFTrOECDo5nBg4WFQG3sS0C5zJfBt1vFQIpYTb97z7PBMHWaQA/wTr+Wz63B
OKnqQNTGYr9H1avBTsyXQGJfvz6P8qXBqTDpQPLSiT62uaPBoUW9QMzyuD6tp53BO3y6QCRyyz+4
gpXB0BCwQAqNokDXk6DBfsGrQOFOb0AgrpvBBAyNQA8x/j/67ZPBZQw7QO7xckBOv5fBnenzQOyP
SkBKz5rB92H5QNhePkAlY7/By1+xQM3g5ECsYsTBaCUCQen88T5B613BUrcYQYhhKj8ahH7BHnS1
QMl7QD8liWDBpwYIQfwblj+3xZDBtnCTQLYrmj/P04HBj3XbQB6JR0AmDKzB+YaeQIBi3kBk46/B
kerfQF0Lo0ATcsrBxqXGQNFF1b8uP7nBqR3IQFXxAT6+eLjBpTGAQLPlOr/norPBEWiXQIEI4L9/
VKnBg7foQHSg6788fqfBWIQEQeOsVr/KQ7DBbyKZQGcVqD+Ug6rBwXtyQLU9oj5LmqHB32cBQdgu
9T2Yz53BwJTuQAxwmz9OBajBAvq5QI6ADr8v4JjBb1/JQLUetEAcUpzB0nuRQKmas0BarZ/BHQhu
QKrPtD8rYJDBEKcIQOxaVEAtopTBc+wzQPnLlkDJ0prBj0bMQM6iukBPrMHB0u7tQDARokDjZb3B
p7eoQJv7xECZRbvBGe7rQE6Tk0BlvrLBWnSmQKFltkDBo7DBd1KbQEwmDb0iXazBoNPNQJGUO796
gZ7B3E/VQOzvyb+Zu7DBRdPHQN3lnEDKRKzBS3upQMCxRjxxo6HB7CGxQBkFVb/K47PBurPjQKJR
w7/nC6bBpXLGQB4fNUC2K6HB95OGQIZjX0DawJnBA6zoQLk4gEASiILBqHHHQMUNoUDDf4bBHHb6
QPGYSEDApYvBn63YQKz9u0AbCJDBBfsFQVW1gEAc2pTBgwnqQFB2oEBng5nB8UPFQBxYi0A6vKDB
3TeVQIi+fT/P3ZnBwAWgQAY4GUDGopzBugiaQKV4k0DCVJzBWq89QIgXXEDFxJTBP8PjQF30CECq
qaTBbZKjQCpGX78fKr7BPl8DQdODDsD5C6PB577NQD+KxUAQ3cnBFKoEQU5SmkDOS8LBaxiPQMcr
2EBeh77BJw4DQTIzgUC1eK/BsSaLQL6ivkB0wqvB9oR/QJarCj9GzK7B5tbYQJ+ZMb92UpbBBAPm
QOcTDMBUgbbB0LABQSeLkUCbjX3BiWLZQBGXVkAWJ3nBkIaqQGHej0AmF4nBJ1W/QL+/tkDEvn/B
+kEKQWFgIEDrhojBhrrgQK+HH0Akw47BQ3++QHA10EBRCpPBIdLyQOhq0EBQF43Bz48TQeFnk0D6
xZHBjoALQRVjV0BzWZvBc4/7QHN+tkDgy57Bd4BkQExVXj/lGprBUuugQMF2Rj+nv5HBTUCNQAqW
sECtbpvBYOseQOgkiUCX8pLBk0kjQCuGI0ASAZPBiRLQQPLGt0CRzsDBW6+zQB6Rl0BNa73B+Wvo
QGJkzkC7OLnBOXmvQOYejkA0c7LBbX3kQCbmxEBTQq7B5c2tQOh6hL/Eu57BucrDQLDrWT9VtqnB
4XLPQCCSs7+aK7DBjbzHQN6opEAkq6rBf2myQCA2uD5Z+5/BtS+7QAB39L9C8abB7zLUQAAKg7yM
dbHBnUPOQKQMWEAwNZzBbRuGQHRzZ0AkKpnB7rsFQbKm0EBvPYPBubfbQEpE3EBGUYTBoo4QQVr6
zkBiS47BZ/bDQL5nvEDgnYvB/PcEQdrDrkBba5XBkULZQFJIukBq1JbB1X/BQEoVmkCQop7B3SGm
QAjCoz+CppbB9eWoQGxvLkDEJZnBg8aSQP6wmUAAfpzBWq44QKwtVEBzKZbBAXzxQHzCNkAeh53B
kQ+1QNByT8A466XBkQPoQMCv/T6nLLrB4yfTQCAev0DpNsnB9BahQFsNhkAQPcPBOjb+QJwg50AV
0bvB74KZQKLXakDb7K/B7IX3QMNK1kB4gajBKwOgQECVt7/Qe5fBmlfEQEo+9T+DJ6vBi0XbQCUO
BcCYObbBtcENQeHv6EBGlXzB+yoHQbQnsUDNwH7BD+XMQOjG20BlrHjBxf3YQLOS/ECXvofBOuQP
QczY7kAwBJLBWFshQQUxxUDuWI3BPdLEQFRvnEDX8IfBPoSiQFTGxkCYg4zBzKYMQcB4rkAYVp3B
UToGQQjRjkCFx5HB4W/XQNtY2kCAbprB1/+EQLuIhj+RTpTBm7i7QOyiiD/l6I/B7eh+QKTpskCW
cp3Bo3YLQGO0gEC7dJbBj9kpQN0XGUCWtZPB

> <OMEGA_E>
0EU8P6QiTz+mRE0//jZGP7TQRD8clYs/Z06LP+Ygiz/iN4s/+LqQPw==

> <OMEGA_NBR>
     36382

$$$$
50158053
  -OEChem-04172616093D

 60 63  0     1  0  0  0  0  0999 V2000
    6.3129   -1.2702  -21.8442 C   0  0  0  0  0  0  0  0  0  0  0  0
    7.2451   -0.6520  -20.9953 C   0  0  0  0  0  0  0  0  0  0  0  0
    5.1716   -0.5637  -22.2686 C   0  0  0  0  0  0  0  0  0  0  0  0
    7.0337    0.6670  -20.5646 C   0  0  0  0  0  0  0  0  0  0  0  0
    4.9536    0.7590  -21.8378 C   0  0  0  0  0  0  0  0  0  0  0  0
    5.8711    1.3897  -20.9646 C   0  0  0  0  0  0  0  0  0  0  0  0
    6.3076    3.1658  -19.2274 C   0  0  0  0  0  0  0  0  0  0  0  0
    4.0382    3.4137  -18.9751 C   0  0  0  0  0  0  0  0  0  0  0  0
   10.7908    4.7458  -14.7394 C   0  0  0  0  0  0  0  0  0  0  0  0
    6.8259    4.7384  -24.4284 C   0  0  0  0  0  0  0  0  0  0  0  0
    7.9291    4.4314  -23.3974 C   0  0  0  0  0  0  0  0  0  0  0  0
    5.5487    5.2429  -23.7299 C   0  0  0  0  0  0  0  0  0  0  0  0
    9.0108    5.1179  -16.5179 C   0  0  0  0  0  0  0  0  0  0  0  0
    8.5157    3.5956  -14.4982 C   0  0  0  0  0  0  0  0  0  0  0  0
    7.4379    3.4070  -22.3607 C   0  0  0  0  0  0  0  0  0  0  0  0
    5.0405    4.2199  -22.6958 C   0  0  0  0  0  0  0  0  0  0  0  0
    7.5055    5.1476  -16.8002 C   0  0  0  0  0  0  0  0  0  0  0  0
    7.0120    3.6331  -14.8560 C   0  0  0  0  0  0  0  0  0  0  0  0
    9.2706    4.8649  -15.0071 C   0  0  1  0  0  0  0  0  0  0  0  0
    6.1371    3.8952  -21.6393 C   0  0  0  0  0  0  0  0  0  0  0  0
    6.8734    3.7931  -16.3726 C   0  0  1  0  0  0  0  0  0  0  0  0
    5.6387    2.8606  -20.5492 C   0  0  1  0  0  0  0  0  0  0  0  0
    5.4066    3.6866  -16.8554 C   0  0  0  0  0  0  0  0  0  0  0  0
    5.2825    3.5101  -18.3318 N   0  0  0  0  0  0  0  0  0  0  0  0
    4.2078    3.0651  -20.2298 N   0  3  0  0  0  0  0  0  0  0  0  0
    2.7939    3.6449  -18.3972 N   0  0  0  0  0  0  0  0  0  0  0  0
   11.6049    5.3603  -15.4821 O   0  5  0  0  0  0  0  0  0  0  0  0
    7.5235    3.2488  -19.0937 O   0  0  0  0  0  0  0  0  0  0  0  0
   11.1980    4.0488  -13.7707 O   0  0  0  0  0  0  0  0  0  0  0  0
    6.4715   -2.2872  -22.1714 H   0  0  0  0  0  0  0  0  0  0  0  0
    8.1241   -1.1910  -20.6740 H   0  0  0  0  0  0  0  0  0  0  0  0
    4.4598   -1.0385  -22.9276 H   0  0  0  0  0  0  0  0  0  0  0  0
    7.7609    1.1408  -19.9220 H   0  0  0  0  0  0  0  0  0  0  0  0
    4.0798    1.2960  -22.1764 H   0  0  0  0  0  0  0  0  0  0  0  0
    7.1864    5.5116  -25.1228 H   0  0  0  0  0  0  0  0  0  0  0  0
    6.5918    3.8219  -24.9897 H   0  0  0  0  0  0  0  0  0  0  0  0
    8.8072    4.0234  -23.9195 H   0  0  0  0  0  0  0  0  0  0  0  0
    8.2090    5.3613  -22.8808 H   0  0  0  0  0  0  0  0  0  0  0  0
    5.7698    6.1912  -23.2182 H   0  0  0  0  0  0  0  0  0  0  0  0
    4.7670    5.4078  -24.4860 H   0  0  0  0  0  0  0  0  0  0  0  0
    9.4745    4.3122  -17.1059 H   0  0  0  0  0  0  0  0  0  0  0  0
    9.4531    6.0831  -16.8056 H   0  0  0  0  0  0  0  0  0  0  0  0
    8.6191    3.5357  -13.4047 H   0  0  0  0  0  0  0  0  0  0  0  0
    8.9682    2.7050  -14.9586 H   0  0  0  0  0  0  0  0  0  0  0  0
    7.2273    2.4556  -22.8711 H   0  0  0  0  0  0  0  0  0  0  0  0
    8.2264    3.2533  -21.6094 H   0  0  0  0  0  0  0  0  0  0  0  0
    4.1602    4.6349  -22.1833 H   0  0  0  0  0  0  0  0  0  0  0  0
    4.7585    3.2930  -23.2167 H   0  0  0  0  0  0  0  0  0  0  0  0
    7.0411    5.9656  -16.2299 H   0  0  0  0  0  0  0  0  0  0  0  0
    7.3367    5.3083  -17.8752 H   0  0  0  0  0  0  0  0  0  0  0  0
    6.5320    2.6962  -14.5370 H   0  0  0  0  0  0  0  0  0  0  0  0
    6.5316    4.4825  -14.3485 H   0  0  0  0  0  0  0  0  0  0  0  0
    8.8916    5.7320  -14.4464 H   0  0  0  0  0  0  0  0  0  0  0  0
    6.3810    4.8308  -21.1149 H   0  0  0  0  0  0  0  0  0  0  0  0
    7.4468    2.9876  -16.8546 H   0  0  0  0  0  0  0  0  0  0  0  0
    4.9378    2.8236  -16.3600 H   0  0  0  0  0  0  0  0  0  0  0  0
    4.8767    4.6067  -16.5681 H   0  0  0  0  0  0  0  0  0  0  0  0
    3.4631    2.9518  -20.8875 H   0  0  0  0  0  0  0  0  0  0  0  0
    1.9627    3.5477  -18.9445 H   0  0  0  0  0  0  0  0  0  0  0  0
    2.7309    3.9083  -17.4346 H   0  0  0  0  0  0  0  0  0  0  0  0
  1  2  1  0  0  0  0
  1  3  2  0  0  0  0
  2  4  2  0  0  0  0
  3  5  1  0  0  0  0
  4  6  1  0  0  0  0
  5  6  2  0  0  0  0
  6 22  1  0  0  0  0
  7 22  1  0  0  0  0
  7 24  1  0  0  0  0
  7 28  2  0  0  0  0
  8 24  1  0  0  0  0
  8 25  2  0  0  0  0
  8 26  1  0  0  0  0
  9 19  1  0  0  0  0
  9 27  1  0  0  0  0
  9 29  2  0  0  0  0
 10 11  1  0  0  0  0
 10 12  1  0  0  0  0
 11 15  1  0  0  0  0
 12 16  1  0  0  0  0
 13 17  1  0  0  0  0
 13 19  1  0  0  0  0
 14 18  1  0  0  0  0
 14 19  1  0  0  0  0
 15 20  1  0  0  0  0
 16 20  1  0  0  0  0
 17 21  1  0  0  0  0
 18 21  1  0  0  0  0
 20 22  1  0  0  0  0
 21 23  1  0  0  0  0
 22 25  1  0  0  0  0
 23 24  1  0  0  0  0
  1 30  1  0  0  0  0
  2 31  1  0  0  0  0
  3 32  1  0  0  0  0
  4 33  1  0  0  0  0
  5 34  1  0  0  0  0
 10 35  1  0  0  0  0
 10 36  1  0  0  0  0
 11 37  1  0  0  0  0
 11 38  1  0  0  0  0
 12 39  1  0  0  0  0
 12 40  1  0  0  0  0
 13 41  1  0  0  0  0
 13 42  1  0  0  0  0
 14 43  1  0  0  0  0
 14 44  1  0  0  0  0
 15 45  1  0  0  0  0
 15 46  1  0  0  0  0
 16 47  1  0  0  0  0
 16 48  1  0  0  0  0
 17 49  1  0  0  0  0
 17 50  1  0  0  0  0
 18 51  1  0  0  0  0
 18 52  1  0  0  0  0
 19 53  1  0  0  0  0
 20 54  1  0  0  0  0
 21 55  1  0  0  0  0
 23 56  1  0  0  0  0
 23 57  1  0  0  0  0
 25 58  1  0  0  0  0
 26 59  1  0  0  0  0
 26 60  1  0  0  0  0
M  CHG  2  25   1  27  -1
M  END
> <OMEGA_C>
owPKQO6Wor/3wK7B99fnQNPnJr9Q9qfBa32lQGJPEL8MJrLBtBPhQJjAKj9lhKTBz4OeQJxOQj/R
s67BxN+7QC3jsT9mt6fBk9fJQEidSkDL0ZnBVTmBQGd6WkD0zJfBN6csQaHdl0Bi1GvBg23aQFCh
l0BVbcPBP7v9QL3NjUDTLbvBCo+xQNXFp0DI1r3BJywQQR/Go0CnJITBXUAIQbQeZkCO+GfBAQPu
QFYMWkDP4rLBE0yhQJcJh0D/kLXB4SzwQEW5pEDIZobBtmLgQCuEaEArsm3BaVQUQRetm0AzHXDB
wGLEQO9KeUBhHa3B0/LbQM3CckAk+4LBAXC0QMwUN0C/ZKTBvwKtQBrxa0Dr14bBnQqpQMykYEB2
p5LBlKaGQDAqRECP1qHBBtAyQDlGaUCILZPB1a05QZCHq0CitnfBY8DwQFvsT0Dmv5jBBiszQcmP
gUDCVFzBuhbPQCZhEsAZX7HBQvwBQRdzmL9BZKXBkbaOQF3thL/Na7fBRln4QEsHkj9EYJ/BEo6C
QCDjpT8rabHBKPflQGdfsEBq+8jBoe/SQI+ZdEDv6sfBM+oMQci/gEAKW7/B51cDQSiQq0DzC7fB
mqK4QH8exkDuvrnBfouYQPYMrUBj48PBspcXQbP9iUDk2IjBDEAXQcWowkDecYbBu+cJQZtIYkCd
eVbBnX0PQRYeLUCFVm/BFUbnQKEoHUAa+LbBe58DQZo2UEAF4KzBCyCFQFtRlEBMd7HBbEWYQEfB
UkDRu7nBElHhQFnmvkDD1oHBlMbqQIzdqUB2AI/BGQbRQMWNLECvl2jB4wLRQM1wj0BFk2XBMkQO
QfJst0B+JGfBTDHMQCOWmkA+66jBN0zuQPM0P0BC1obBLQKeQMq1NEBJ4YLBLg6cQH5qk0B1i4TB
wqNdQFjqPECIGafBrzj7P8wMY0BdjpfBeMYuQDUiekAZeovBD5DKQO+ioL+ehK7BkBjqQKmPEL9/
u6jBIeKjQKgMHb92JLHBjxHjQEC4Qz8GmaXBHlmcQCwlNj951K3Bzqq7QOTltT/06afBvE3JQLEE
TkBzI5rBOO+AQGK6WkCwsJfBRz8uQQOHo0CvXXHBh2TiQPsylEBqb8PBdHz9QC9/m0BHWbnBW1ey
QH5Ll0CvyMDBcp0QQUf2qkCJOYbBQCMLQU5reUAIymrBGpLxQCWidkBfjrDBXNilQFjibUB0B7jB
JZvwQPcXqkBi5IfBTmnlQOxXeEA2GG/BO9sVQRNapUDLZ3TB2MbAQFX3ekCvpq3BsELeQM/NfUBw
pYPBflazQKkcOUAToqTBnsquQBDjcUCZDYfB0zOpQAZNZEBu1ZLBJpqFQMhzRUCV0aHBbQgzQH8B
ZkDIs5LB+u04QT57hkCUdnrBjybwQA+TT0AV6pjBYQ03QT6/v0AH+mXBhPvPQPu+EcDT87DBeOED
QTtCh7/AsabB7+CLQLXekb9Yt7XBk+T7QJMqpj+rXaHBo9l8QPaBmD/q0K/BBIzqQJehrEDpbsnB
2FfpQEZ0aEA7rsbBZsIPQW+gl0CaYLvB3eX3QLEnvECkYLbBix+rQJTXt0Cv9b3BgK6fQEGPkECj
DcjB0f8XQfPFkEAQzYrBHAEXQRjIyUCmB4nBdeMNQS12eEA6aFnBzmMSQRdGQEDoEnLBFij5QLes
NUBwXrPBATsCQTF1gkA3WanBEcGDQF0mdkCwGLbB2UKrQButLECWDrvB9d/hQM/PxEDfgIPBOGnp
QP42rUCNeJDBDnjXQKCqPEAl4mjBLzzWQBizl0CQLGfBj7YPQVBwwUCwwWvBUhu6QKjVnUBGnKrB
GNLwQLwMSkBNZYfBUMGhQMbvOUBY0oLBlc+cQAi7lUCCuITBObtaQIJ7PkAf+KbBTtX5PwPqXUAL
2pbBt4EwQFQzdkAV+IrB5ufJQJhzoL8XsK7B3inpQIXyFL8xqKjBf5ujQMLtGL+2bLHBUUTiQNSe
Pj+TY6XBCEacQAadOT9mBq7B4GG7QA1dtT+u5afB/lfJQPuvTkC3JJrBeuKAQB3QV0B8mZfBuSEt
QS/+T0AJw2nBuUrjQPJ9lEC2UsPBiZz+QPKdmkCuPLnBhE+zQNA5mEDDoMDBXWkLQXqmlEBZgm3B
IA0PQd1cGEBFYoDBYybyQAURdEARm7DBH0WmQOVPb0Cz97fBmgLmQDwxlEDL7HHBG5LtQHPBGUDO
NYLBqLUUQfT6TEB1jmzBLm/BQDGCekBCm63BWyLeQE8weEBqcYPBBG6zQIDpOEApnaTBIvKuQEcy
fEBJW4fBkQupQMHlXEA3lpLBQa6FQEUoRUCjzqHBH/cyQN11ZUCEspLBqZ44QfMxcECgSXjBhSrw
QB3AUkBX+ZjBeCA1Qe8xMUB671jB+EPPQANvEcCEOLHB90IDQfz8ir8biKbBn8OLQMgPjr/hJbbB
h8f6QHFwoT9U6qDBPVJ9QKDUmz/cGrDBVM3rQB8xrUCIOMnBD6jpQPdEaUADtsbBnEYQQbRHlkCW
TbvB6qP5QFsmu0B5HbbBlqqsQK6+uECMsr3B6HygQGgtkkCm6MfBH3kTQVBupkAIYnrB5V0OQYOm
pEAQHV7B3mMUQfCwqz8qmH7BxigXQbJONECsXofB1s/4QJA7M0CKmrPBabQCQTEQgEBNZanB4EeE
QHqieECV/7XBvQ6rQN41LkCAGLvBq03VQAzxg0BRvGTB6yDaQDw0tUD5WHPBA9vlQLyY6z+YhonB
SlvdQCUy+D+eq3bB3sUNQYR2LECEkl7BtZy7QGyvnUCngqrBURTyQFgWi0BsponBEUGbQLuDVEAz
AoLBgg6kQJCHn0D574bBTg1bQBvnP0BjA6fBSRb6P6FNYUCg+ZbBS0QwQFhsc0C35YrBqDbRQLgi
uEAy7cDBWBKxQOTFmkAUDr7BxHHsQHQFyUDuCLnBLEirQKRMj0DuQbPB6rznQHBpvEDETK7BchLG
QLBxoECAK6vBbqTMQAhQSkBg+J3BlqaEQNgIVUDLbZrB+ubbQOBv878EqrbBjE7gQOxb6kDaXITB
MJDjQDQK+0CS74/BtJPtQCTsukAanoPBUFPgQCB1tD5Mi63BSG7QQJDq1781NaLB4G7IQOhA30DU
epfB+l/TQHQLn0BcYIvBUPOvQOB7Mj8Trq3B7iagQHAtp79JD6LBUFHoQJibk79+UKzBeNvXQHjZ
r0A8FZfBwHOYQICeYj7baaPB/BW/QNwSk0A6XJ/BLJCmQIC8fz9/JZnBLDGoQMjMHUD8vZrB8NSQ
QFTAkUAc0ZzBoNg1QMBrPkDkypfBhgLeQBhGp78/jr/BVObxQBAfMkAs5p3B0kfRQJBSR8B2IbbB
UvTUQCquwUB8LcnBR8ucQL8AjUBdJcTBZIECQcq030DiN7vBYCWSQG9fckDkHLHByvL9QMQZyEA6
XKjBmHz1QMR//UCsbX7BGg6/QFus7UDbmIHB8+7XQNseDkEWPZDB0pcCQeD/+UAEh5LB+9wHQdYJ
uEA/oIXB/ULoQNyRr0D8yXbB6sPuQKEVMT/AGLXBLnvvQJ+5YD8HzqbBPsbfQJLbob9yC5vBKyrT
QPQhMsBBCqLBM7SmQLvU4EBi/pTB34vLQFNi60A5tJ/BMhPfQNzDe0De/IrBMHmxQOP6n0AWBYnB
916sQJfg5D+DXq7BUCWhQKNFWD4zp7TBN/qPQMnI6r+QoqjBEV6SQOf/z78BYJrBSGYFQTCnpr98
AavBG/75QNE0r0CTOZnBUuBrQEmLxD51jaTB4KaPQDmZRz9As5LBsJjGQEeHJj8yy5bBBuF6QCs0
q0BL5pzBu/cHQBsGa0CroJfBOrYnQHKOAUDLD5bB

> <OMEGA_E>
EsJjP3CWZT98y2U/CG6VPw==

> <OMEGA_NBR>
     40599

$$$$
50215519
  -OEChem-04172616093D

 46 49  0     1  0  0  0  0  0999 V2000
    6.7820   -0.4913  -22.3959 C   0  0  0  0  0  0  0  0  0  0  0  0
    6.2920   -1.4570  -21.5020 C   0  0  0  0  0  0  0  0  0  0  0  0
    6.6049    0.8759  -22.1242 C   0  0  0  0  0  0  0  0  0  0  0  0
    5.4226    0.3172  -20.0700 C   0  0  0  0  0  0  0  0  0  0  0  0
    5.1156   -1.7512  -17.9713 C   0  0  0  0  0  0  0  0  0  0  0  0
    4.7605   -3.3531  -19.7629 C   0  0  0  0  0  0  0  0  0  0  0  0
    4.2777   -3.9880  -17.5582 C   0  0  0  0  0  0  0  0  0  0  0  0
    5.6274   -1.0574  -20.3209 C   0  0  0  0  0  0  0  0  0  0  0  0
    5.1602   -2.0632  -19.3440 C   0  0  0  0  0  0  0  0  0  0  0  0
    5.8888    1.2954  -20.9718 C   0  0  0  0  0  0  0  0  0  0  0  0
    4.6635   -2.7255  -17.0558 C   0  0  0  0  0  0  0  0  0  0  0  0
    6.3446    3.2027  -19.3886 C   0  0  0  0  0  0  0  0  0  0  0  0
    4.0821    3.4564  -19.0871 C   0  0  0  0  0  0  0  0  0  0  0  0
    5.3043    3.5074  -23.2130 C   0  0  0  0  0  0  0  0  0  0  0  0
    5.0722    4.7840  -22.3990 C   0  0  0  0  0  0  0  0  0  0  0  0
    6.0234    3.6964  -21.8623 C   0  0  0  0  0  0  0  0  0  0  0  0
    5.6239    2.7783  -20.6628 C   0  0  1  0  0  0  0  0  0  0  0  0
    5.5849    4.0437  -17.1237 C   0  0  0  0  0  0  0  0  0  0  0  0
    4.9694   -1.1971  -15.1939 C   0  0  0  0  0  0  0  0  0  0  0  0
    4.3306   -4.2826  -18.8796 N   0  0  0  0  0  0  0  0  0  0  0  0
    5.3551    3.6754  -18.5326 N   0  0  0  0  0  0  0  0  0  0  0  0
    4.1993    2.9604  -20.3020 N   0  3  0  0  0  0  0  0  0  0  0  0
    2.8679    3.7259  -18.4641 N   0  0  0  0  0  0  0  0  0  0  0  0
    7.5493    3.1413  -19.1662 O   0  0  0  0  0  0  0  0  0  0  0  0
    4.5841   -2.5082  -15.6847 O   0  0  0  0  0  0  0  0  0  0  0  0
    7.2961   -0.8000  -23.2941 H   0  0  0  0  0  0  0  0  0  0  0  0
    6.4233   -2.5071  -21.7177 H   0  0  0  0  0  0  0  0  0  0  0  0
    7.0167    1.6135  -22.7971 H   0  0  0  0  0  0  0  0  0  0  0  0
    4.9016    0.6233  -19.1748 H   0  0  0  0  0  0  0  0  0  0  0  0
    5.4240   -0.7766  -17.6229 H   0  0  0  0  0  0  0  0  0  0  0  0
    4.7994   -3.6020  -20.8131 H   0  0  0  0  0  0  0  0  0  0  0  0
    3.9296   -4.7418  -16.8676 H   0  0  0  0  0  0  0  0  0  0  0  0
    4.5005    2.7626  -23.3080 H   0  0  0  0  0  0  0  0  0  0  0  0
    5.8771    3.5505  -24.1511 H   0  0  0  0  0  0  0  0  0  0  0  0
    5.4784    5.7429  -22.7533 H   0  0  0  0  0  0  0  0  0  0  0  0
    4.1017    4.9551  -21.9102 H   0  0  0  0  0  0  0  0  0  0  0  0
    7.0954    3.9337  -21.9288 H   0  0  0  0  0  0  0  0  0  0  0  0
    4.6406    4.3855  -16.6748 H   0  0  0  0  0  0  0  0  0  0  0  0
    5.9572    3.1680  -16.5719 H   0  0  0  0  0  0  0  0  0  0  0  0
    6.3287    4.8525  -17.0729 H   0  0  0  0  0  0  0  0  0  0  0  0
    4.8579   -1.1672  -14.1000 H   0  0  0  0  0  0  0  0  0  0  0  0
    6.0180   -0.9994  -15.4610 H   0  0  0  0  0  0  0  0  0  0  0  0
    4.3244   -0.4312  -15.6492 H   0  0  0  0  0  0  0  0  0  0  0  0
    3.4296    2.7370  -20.9001 H   0  0  0  0  0  0  0  0  0  0  0  0
    2.0091    3.5425  -18.9424 H   0  0  0  0  0  0  0  0  0  0  0  0
    2.8539    4.1030  -17.5380 H   0  0  0  0  0  0  0  0  0  0  0  0
  1  2  1  0  0  0  0
  1  3  2  0  0  0  0
  2  8  2  0  0  0  0
  3 10  1  0  0  0  0
  4  8  1  0  0  0  0
  4 10  2  0  0  0  0
  5  9  1  0  0  0  0
  5 11  2  0  0  0  0
  6  9  2  0  0  0  0
  6 20  1  0  0  0  0
  7 11  1  0  0  0  0
  7 20  2  0  0  0  0
  8  9  1  0  0  0  0
 10 17  1  0  0  0  0
 11 25  1  0  0  0  0
 12 17  1  0  0  0  0
 12 21  1  0  0  0  0
 12 24  2  0  0  0  0
 13 21  1  0  0  0  0
 13 22  2  0  0  0  0
 13 23  1  0  0  0  0
 14 15  1  0  0  0  0
 14 16  1  0  0  0  0
 15 16  1  0  0  0  0
 16 17  1  0  0  0  0
 17 22  1  0  0  0  0
 18 21  1  0  0  0  0
 19 25  1  0  0  0  0
  1 26  1  0  0  0  0
  2 27  1  0  0  0  0
  3 28  1  0  0  0  0
  4 29  1  0  0  0  0
  5 30  1  0  0  0  0
  6 31  1  0  0  0  0
  7 32  1  0  0  0  0
 14 33  1  0  0  0  0
 14 34  1  0  0  0  0
 15 35  1  0  0  0  0
 15 36  1  0  0  0  0
 16 37  1  0  0  0  0
 18 38  1  0  0  0  0
 18 39  1  0  0  0  0
 18 40  1  0  0  0  0
 19 41  1  0  0  0  0
 19 42  1  0  0  0  0
 19 43  1  0  0  0  0
 22 44  1  0  0  0  0
 23 45  1  0  0  0  0
 23 46  1  0  0  0  0
M  CHG  1  22   1
M  END
> <OMEGA_C>
HgbZQLSJ+77DKrPBvVfJQKN+ur8cBKzBulvTQCo4YD9q/rDBG4atQEZpoj5Zj6DB2rKjQEon4L88
xY/B7FWYQBOZVsBgGp7BkeKIQAo7f8Azd4zBohO0QGFYh78dkaLBsSClQPALBMB2wJrBH3G8QDHR
pT9FxqfBoDuVQChvLsBScojBRgfLQOT4TEDbG5vB76CCQDM2XUBOspjBN72pQP95YEAntLnBrU+i
QMYWmUAdMbPBUL/AQBOSbEDw5a7BIvezQHLQMUBlTaXBVbeyQFhmgUBJ/YjBkgWfQKE7mb8tGnPB
8ZOKQAYLicBiCZfBuFyrQI86a0DPQpTBc2CGQJh3PUCQaqLBTYw3QPF0bkCEtpPBnpPxQFgLSUBo
VJnBBbGSQCyGIMBk9HrBeXnpQBTPTL9PWrrBTovNQJVzIMDcva3B6ojgQCuGzj98YLbBPtqcQI6Q
Hz8WZpnBn5GtQETNRr/H+4zBjJSZQOqGZsA0gabBE397QCS9l8DJ8IbB5wOQQOTOMEDXdrrBdxG8
QGU7Y0BrNcHBCU+vQDDGt0CrBrbBeUGDQO+PnkAXSK/Bag3jQGDCe0Abbq/BqX+UQMhVjEDnZYXB
iqG+QDfASkBYk4TBsITKQAVIm0A/lYjBMXSbQAdnlb91mWHBrpPAQJ3Yf788YHfBZmGKQD3G3L72
YnrBJ39bQG4qL0B5M6fBlpQAQJO4YkD2iZfBsKY2QIRLg0DqTYzB66/DQCE8EL9QfrTBzOnIQL6+
u79U/avBTky9QGSTTT9SabLBlYjAQHCNuT6NQJ/Bb/3eQOGCxL8whY7BvoO/QHU5U8CgUZnBGVbV
QPDAcsBN1YfBj2jHQCMWgb9jS6HBRbfMQIUl+r/JSZjBrXC8QGqepD9svafBgIXjQHd2HcAiJIbB
EkfLQDYSTkCsGJvB08SCQACSXEBNuJjBMoyiQB37fEBA+bfB4lyuQCJ1okB3HLDBrPLBQKCDa0Dq
vq7BhD+0QOcgMUC5PKXBWpayQDC8gUCPAYnBYk76QD++P8CcR2jBm97DQILrhcBJOZHBDGerQDOF
a0AjRJTBg7WGQMNyPEBzaaLBAJg3QBoBbkBNz5PB1drxQFcCS0AWUZnBAc/1QBZXAcC/R3nBlZTE
QNppa7+ipbzBGhnOQHTyIMDZn63B1AG5QK3Wvj8y/LjBOl++QC7ONT8ZF5fBA2PpQLphA7/Tf43B
fJWxQItTaMDdxaDBC5bYQDBskMAzcoHBr0eCQK/gYEAk0bfBBjyuQKEhf0AlRcDB7XnCQEZJvUDt
ybLBl4WWQM0orkDsVarBy73jQHLMZUBFGrHBFjiUQOpFjECFa4XBceW+QOrVS0D4k4TBwgXKQObz
m0ACnYjB4Y8EQTBAIcC0QFrB8ZDaQKKUWMCX4WPBwVEHQebMdMCdzG3BO11cQGm3LUB4NafBRNIA
QPIcYkD8q5fBJlI2QDg3g0DHaozBhr/DQBZyD7+bfLTBGZTIQDg5u79I+KvBUHK9QERdTj/NarLB
MQPAQJinuz7DPp/B17nlQPTCRcDfcJnBuVy4QKoV2r98OI7BSJ7VQI6TasA1B4fBg7jGQNx6gL+f
RKHBcSjMQAy2+L9MO5jBz068QFb2pD/lvqfBAJTqQL9hfsDzupDB/1DLQLsNTkC7F5vB1ciCQNxh
XEDYvJjBq+uiQBH3fEB9ALjBpauuQIV2okASI7DBfDTCQGiGa0D3v67B1le0QEFJMUDdP6XBW3uy
QDhmgUAD/IjBpA0MQXTWrcADSpvBbEW9QJVvI8A85YXB2GKrQKA7a0CiQpTBUcuGQEnGPEDjc6LB
1Is3QP1+bUDP1JPBm9/xQMnKSkBNSpnBhIcBQbtFpMCgNpHBwODEQOrBar8Vo7zBlrvNQFO4IMDK
lq3B/W+5QMBQvz9r/7jB/qy9QHkwNz/9FpfBDn31QN6tUsBe9aDBc96kQIoqUr/rNY3BQB3ZQK27
isAuT4DBa6SCQHbnYEC13bfBX7SuQOIMf0BASsDBV9XCQDRFvUD/zbLBY8WWQH4yrkB0YarBiwbk
QLG6ZUBHFLHB8RSUQOTbi0CeZoXB9MW+QBYGS0C3lITBbebJQEmfm0BvjYjBrRwVQQvdy8BVh5rB
G+v/QP0/scAKoKHBog8XQWGjk8CKWZ3BG5xcQGl8LkBRSKfBxNYAQM7CYUAUt5fBwyU2QNDEgkBU
a4zB/izCQP5qFL+QWbTB+drJQBr+ur9bzqvBO5y6QDOESD/rWbLBcdTBQLhmxD6dM5/BDd/jQKBC
ur+qgI7BJ5/EQPAMUcDY15jBnMbcQMAcbcBwdIfBHorJQJsTfL8lJ6HBWNbQQEpL9L8yFZjB56O7
QCffpD9KvqfBhQ/qQHHuFsCECYbBMRPLQB3kTkC0RJvBJ7GCQEb8XECXupjBuEzcQEhcnEDUpa7B
REHsQN09ZkB09rPBVJW+QGQWakAhWK/BQJSzQDSvMUD3YaXBCxizQIQsg0BwPInBiZwBQViSNcCN
QmjBPZrKQAwqhMDVqpDBUHerQEVbbUC5cJTBFUWGQIAiPkCMfqLBttE3QHgNbEA1mZPB8ZfxQKSB
SkCFb5nB2AD9QGAw8b+zcnnB5BXCQHBIc78fd7zB8gTQQBtVIMBCYa3Be/ezQE+8uT9z77jBh6TA
QNilPj94EJfBlZTtQKHl2L72sI3BJCG2QIbZZ8CXJqDBD0/hQJETjcDy/4DBvGrpQERTpkDy3qbB
qa7VQLLVuEC6jLPBBRfxQCQWZEDWrLzBjGkCQUcRP0AN/6/BFd6kQGrZbkDhUrXBJ+iUQMoQjkDd
noXBumS/QH8FT0AWv4TBabDKQCFGnUB9+YjB7jIJQbdgFcDykVrBOhDkQFGzT8AEU2PBdfYLQZf0
acBg1m3BGCFbQDzuMEC4TafB/7wAQDdQX0AaWZfBtiU3QJ7PgUBEKYzBq1jCQMHPE7/MV7TBDQ7K
QBm8ur+NzavBT5m6QDDXSD+HVrLB3LnBQHxExD54MJ/BUyK+QEu81b9t+I3BqQvrQBo2Q8AZXZnB
DtfgQHy+a8DigIfBFWDJQN1IfL9gJKHBbM/QQMVn9L8CE5jBco67QFjrpD9IuqfBshDGQBEFJMA1
iIXBsiDLQIfyTkDfPpvBLL6CQKEWXUBgtpjB9nTcQFddnEBtnq7BQWfsQCw2ZkCl7bPBpra+QKQj
akCxUq/BPaOzQNrFMUA7XaXBtR+zQOYXg0BUNInBHmy7QD2fT8BGS2bBQpbyQGr2ecBENpHBuoKr
QIdVbUAMapTB7FSGQEljPkAofKLBM+k3QFAnbEDRlZPBj6TxQFaKSkB+aJnB/RSzQBFVE8DxZnfB
tV/CQFRmcr8rdrzB94TQQMYTIMCWYq3B9t6zQMHbuT8z67jBJpLAQJqLPj8mDZfBzuypQNOnTr8a
vozBG2/5QPCIT8AWEaHBsjTnQMESjMB6E4HBz4vpQJVSpkCm1qbBgOLVQIPXuEAGhrPB8UbxQAEK
ZECqo7zBIHgCQSYAP0BJ9K/BGgelQFnwbkBjT7XBvO6UQBH3jUBcloXBPmq/QKvNTkBtuYTBfLjK
QKIwnUBI7ojBqZeqQHnvOsAUulfBPPyvQLW7h8A4BGvBzgfeQEhEUsAeJmPBOURbQLthMUAKTqfB
fNYAQFqIX0DFV5fBzTg3QEPNgUBfJIzB3L+5QAo5H7/LpbPBz6DFQEdru7+GL6vBEFGyQIx9Pj9e
sbHBKLG/QLgV0T6Wwp7BJ7C/QLsx37+aW47B/qr/QJzKE8B0gpjBe/f6QGIxPcADiYbBgpTHQHrH
cL+Gw6DBptHWQOET3b8X9JfB4t+3QLDhoz9UR6fBia3RQBSiF8CjcYXBf0PMQPofTUCa8JrBAqOD
QDgOVUCK5JjBXF+wQKFNgUA1E7jBTDDHQIIcoEBYXbDBpdHLQILGX0BD3q7B8Si2QPHaMUB+RaXB
/iOxQPSseUB3tIjB4P/LQFxgQ8CZ5mXBsoAIQQZUOsBv44/B7FarQMKqWUASrZPBaFCJQGZlSUB/
PKPB0TQ4QHTlXEC47ZPBINnyQPjzUUB1QJnB6xa6QFzAFsCOEXjBsVG2QKWTgr8TorvBBS7NQIof
IMBhqKzBiVGoQCW2sT81KbjB6p6/QBVnRz8DpZbBIYWgQKj+o78Q3Y3BNrAIQVCJEcB97J/BhpQE
QQbgXMBbc3/B7VaNQGkTfED90LfBvXe7QH9rfED7Y8DBgJXiQGYms0DuK7PBsXS0QFv6skDwmKrB
runqQC/vREB1RLHBcd2RQPCDfUAWsoTBXSDGQFbKTUCyQITB98e/QBPVnEDr9YjBnTC2QGSaPcBm
KVjBckfQQHavg8Dm7WnBdCzrQFEiJ8CYyGHB9lBlQJOWT0Av1ajBAYUCQB3KWUAdRJjBz+w0QAOn
ZUCyA4zBprSvQMC7Kb8bfLPBnTDHQPQ5vr+YgKzBnq+pQHSqMj/qDrHBUkXSQGA30j59l6DB5g7y
QDKHwr8bZJDBA1MEQdxoOsC4R5/BxYUQQeBLW8BRCY7BzXPYQMj7c79U9KLBrxzxQE7t5r/WdZvB
jHi7QGaroD+3o6fBhiUFQZpbFcDUiYnBS3nLQJw6TUCY3prBo+eCQBaAW0BqqpjBEhKlQA5HfEDU
5bfBzMGyQEpooUAgB7DBvtnDQHxUZ0AdqK7Bwca0QAaBL0B2DaXB9RmyQL22f0BIuYjBhbIRQVzi
OMAcim/Be+4PQfxzbMAlpJjBulGrQMb6aECVCZTBNDuHQDhfPUDwcKLBUIM3QMYGbUDh25PBPSby
QMR/TkCKKJnBZUQFQeSoAcD6ZX3Bi0OiQKrJib+JubrB/AzMQPDFIcDUb67BwF2XQF4+qT8Sa7bB
Vy3fQCxRUT+rRJnBFUXgQA64Lr8wOo3BYggEQasBScBauafBIucZQffzgcD12YjBGhSEQNHCY0De
wrfBVOCwQOAofUD1L8DBRFbIQCoYu0AHsbLBC4qbQCJlrkDwQ6rBhXTlQPH9XUBjALHBv4WTQD7J
iUAYJIXBsaq+QArbR0C1YoTB2TDJQKJXmkBkMojBOGoQQTI9IsCe7F7BFY4LQXC3esA1nnDBoJAi
QdCnN8DvjXTB/dpdQAV6MUCtbafBfBgBQCjJYkDR3pfBM5w1QN7vgUDMY4zBAfzCQGcsFb/QYrTB
eZXJQHbQu7/hzKvB5/i7QBkoST9DcrLBny3BQM92wz7pRJ/BuOXoQPmdQ8A6C5nBaie8QMJd0b8s
743BFaraQLVTY8AFXYbB74zIQPdWfb9KJ6HBMC7PQFD987+q/ZfBd/K7QPb9pD8+1afBS+PuQIBc
ecBZKZDBkhfLQNmnTkDTTJvBN7+CQKgFXUCpvJjBusrNQIPJo0Bc2q3B78brQHHMgECTPLLBHFC9
QHSua0C3RK/BTnOzQAKIMUAqaqXBWFSzQFJJg0A+SInBivQGQf0SvMDUNYjBwAzCQMOUHMCIa4XB
b5CrQLsybUAHd5TBsTKGQFjWPEDGb6LBSA04QHo9bUAYpJPB65nxQGNwSkBBdZnB7DwEQc6joMCX
c5HBdkzDQOVzdL8Rf7zB13TPQI7mIMDCVq3BTpO2QIeKuj+sE7nB84C/QC2UPj9HJJfBudn3QL+P
UsAfm6DBAWOoQLG1Qb8hDY3BixLfQK0YhsA6937BuerSQIfLsEDixqXBBETCQAFevUDKKrPBFqj1
QDJggUCCrrrBZicDQW+baUCaSq3BQr2nQAksYkCcHrbBnCyVQKUtjkBvpoXBUL+/QBJwT0CzxoTB
yuDKQHdvnUB3EYnBAWARQQIp18B8UYrBtUoOQQuyqcCdqYHByYTuQLIyyMAFoYXB0NRaQEYOLkD8
JafBgOQAQFBYYEA5XZfB8IY3QP3lgkDtQIzBTyCvQEBIL7+kNLPB1dXHQGgcvr9FTazB+pKoQDCF
LT9z3rDBG9PSQFxi3T7Vn6DBPfr1QABIuL9UepDBI/QFQfwINsAPW5/BMHUTQUgpU8A4Po7B8LXZ
QDTHbb/06KLBwOTzQGK8378KgJvBL+m6QOC8oD8TmafBB+UHQbvbDcDItonBlFfLQBJlTkDlDZvB
etqCQPDgW0ASsZjBhD/eQJfQmUBB067B8vbtQGlKX0ALwLPBnSHAQAJ1ZUD3U6/BFjO0QFf6L0Bi
M6XBgZuyQGp9gUAa+YjBCsUVQQhxLcCCJnDBsE8SQabgZcAMzJjBs2erQCYVa0D4OpTBEtmGQOKT
PkAchKLBTLk3QFYra0AyrpPB5vjxQPtnTkDvP5nBmI8IQWIY8b9g2n3B+yehQOTpjr8xULrBRSbN
QHutIcBwLq7BunSVQNWEpD+WLbbB3BPgQNcUWz9CZpnB3NPjQHymHL93SI3B3TwFQWrXRcBWwqfB
gXAdQQv/ecB1IInBqAbrQAyepEA/FafBuEXYQJq4tUD6+bPBj0nzQAvAWkAxbrzBPwUDQe+KOEB2
ia/BtcumQOhUaUD8arXBwi+UQBK6i0BGXIXBSTe/QCiAS0A2kYTBfM/JQADqm0CBlYjBTNsUQauz
FcBAm1/BGAcQQY/yb8DhvXDBsXUmQQHeKsD4snXBbsdcQLuuM0DffafBV/gAQNnUX0CQkpfBmGc2
QDjAgEBkL4zB

> <OMEGA_E>
YIdyP5Z4cj+cAHI/lLxxP7xxcT9aTG8/lj1wP5w5cT8mvHA/

> <OMEGA_NBR>
     48079

$$$$
50158052
  -OEChem-04172616093D

 57 59  0     1  0  0  0  0  0999 V2000
    6.6184    5.6149  -23.9386 C   0  0  0  0  0  0  0  0  0  0  0  0
    7.5929    5.2280  -23.0012 C   0  0  0  0  0  0  0  0  0  0  0  0
    5.3153    5.0919  -23.8542 C   0  0  0  0  0  0  0  0  0  0  0  0
    7.2646    4.3278  -21.9717 C   0  0  0  0  0  0  0  0  0  0  0  0
    4.9830    4.1883  -22.8288 C   0  0  0  0  0  0  0  0  0  0  0  0
    5.9466    3.8121  -21.8582 C   0  0  0  0  0  0  0  0  0  0  0  0
    6.3222    3.0550  -19.4476 C   0  0  0  0  0  0  0  0  0  0  0  0
    4.0838    3.4017  -19.0976 C   0  0  0  0  0  0  0  0  0  0  0  0
    6.8202   -1.4113  -20.9616 C   0  0  0  0  0  0  0  0  0  0  0  0
    7.1622   -0.5121  -22.1612 C   0  0  0  0  0  0  0  0  0  0  0  0
    5.3982   -1.1157  -20.4635 C   0  0  0  0  0  0  0  0  0  0  0  0
    7.0668    0.9715  -21.7771 C   0  0  0  0  0  0  0  0  0  0  0  0
    5.2812    0.3503  -20.0412 C   0  0  0  0  0  0  0  0  0  0  0  0
    5.6584    1.3205  -21.2121 C   0  0  0  0  0  0  0  0  0  0  0  0
    5.5626    2.8153  -20.7490 C   0  0  2  0  0  0  0  0  0  0  0  0
    9.4809    7.1269  -18.2969 C   0  0  0  0  0  0  0  0  0  0  0  0
    7.9473    7.0635  -18.3923 C   0  0  0  0  0  0  0  0  0  0  0  0
    7.4010    5.9459  -17.4861 C   0  0  0  0  0  0  0  0  0  0  0  0
    5.8601    5.9630  -17.4942 C   0  0  0  0  0  0  0  0  0  0  0  0
    5.2726    4.8632  -16.5805 C   0  0  0  0  0  0  0  0  0  0  0  0
    5.6008    3.4319  -17.0551 C   0  0  0  0  0  0  0  0  0  0  0  0
    5.3405    3.2564  -18.4929 N   0  0  0  0  0  0  0  0  0  0  0  0
    4.1665    3.0842  -20.3637 N   0  3  0  0  0  0  0  0  0  0  0  0
    2.9078    3.8047  -18.4838 N   0  0  0  0  0  0  0  0  0  0  0  0
    7.5115    2.8575  -19.2227 O   0  0  0  0  0  0  0  0  0  0  0  0
    6.8705    6.3132  -24.7229 H   0  0  0  0  0  0  0  0  0  0  0  0
    8.5956    5.6231  -23.0721 H   0  0  0  0  0  0  0  0  0  0  0  0
    4.5690    5.3845  -24.5779 H   0  0  0  0  0  0  0  0  0  0  0  0
    8.0208    4.0265  -21.2619 H   0  0  0  0  0  0  0  0  0  0  0  0
    3.9854    3.7773  -22.7800 H   0  0  0  0  0  0  0  0  0  0  0  0
    6.8856   -2.4657  -21.2680 H   0  0  0  0  0  0  0  0  0  0  0  0
    7.5365   -1.2205  -20.1489 H   0  0  0  0  0  0  0  0  0  0  0  0
    8.1865   -0.7324  -22.4963 H   0  0  0  0  0  0  0  0  0  0  0  0
    6.4564   -0.7186  -22.9792 H   0  0  0  0  0  0  0  0  0  0  0  0
    4.6803   -1.3195  -21.2716 H   0  0  0  0  0  0  0  0  0  0  0  0
    5.1733   -1.7613  -19.6018 H   0  0  0  0  0  0  0  0  0  0  0  0
    7.8249    1.1929  -21.0115 H   0  0  0  0  0  0  0  0  0  0  0  0
    7.2569    1.5856  -22.6697 H   0  0  0  0  0  0  0  0  0  0  0  0
    4.2450    0.5508  -19.7314 H   0  0  0  0  0  0  0  0  0  0  0  0
    5.9590    0.5328  -19.1942 H   0  0  0  0  0  0  0  0  0  0  0  0
    4.9255    1.1725  -22.0189 H   0  0  0  0  0  0  0  0  0  0  0  0
    9.8565    7.9291  -18.9491 H   0  0  0  0  0  0  0  0  0  0  0  0
    9.7752    7.3319  -17.2571 H   0  0  0  0  0  0  0  0  0  0  0  0
    9.9081    6.1648  -18.6161 H   0  0  0  0  0  0  0  0  0  0  0  0
    7.5239    8.0277  -18.0747 H   0  0  0  0  0  0  0  0  0  0  0  0
    7.6567    6.8607  -19.4337 H   0  0  0  0  0  0  0  0  0  0  0  0
    7.7559    4.9723  -17.8549 H   0  0  0  0  0  0  0  0  0  0  0  0
    7.7611    6.1022  -16.4585 H   0  0  0  0  0  0  0  0  0  0  0  0
    5.5124    6.9446  -17.1397 H   0  0  0  0  0  0  0  0  0  0  0  0
    5.5070    5.7984  -18.5228 H   0  0  0  0  0  0  0  0  0  0  0  0
    5.6805    4.9967  -15.5676 H   0  0  0  0  0  0  0  0  0  0  0  0
    4.1791    4.9795  -16.5537 H   0  0  0  0  0  0  0  0  0  0  0  0
    6.6635    3.2272  -16.8587 H   0  0  0  0  0  0  0  0  0  0  0  0
    4.9799    2.7196  -16.4919 H   0  0  0  0  0  0  0  0  0  0  0  0
    3.3862    3.0310  -20.9869 H   0  0  0  0  0  0  0  0  0  0  0  0
    2.0622    3.8648  -19.0142 H   0  0  0  0  0  0  0  0  0  0  0  0
    2.9053    4.0354  -17.5108 H   0  0  0  0  0  0  0  0  0  0  0  0
  1  2  1  0  0  0  0
  1  3  2  0  0  0  0
  2  4  2  0  0  0  0
  3  5  1  0  0  0  0
  4  6  1  0  0  0  0
  5  6  2  0  0  0  0
  6 15  1  0  0  0  0
  7 15  1  0  0  0  0
  7 22  1  0  0  0  0
  7 25  2  0  0  0  0
  8 22  1  0  0  0  0
  8 23  2  0  0  0  0
  8 24  1  0  0  0  0
  9 10  1  0  0  0  0
  9 11  1  0  0  0  0
 10 12  1  0  0  0  0
 11 13  1  0  0  0  0
 12 14  1  0  0  0  0
 13 14  1  0  0  0  0
 14 15  1  0  0  0  0
 15 23  1  0  0  0  0
 16 17  1  0  0  0  0
 17 18  1  0  0  0  0
 18 19  1  0  0  0  0
 19 20  1  0  0  0  0
 20 21  1  0  0  0  0
 21 22  1  0  0  0  0
  1 26  1  0  0  0  0
  2 27  1  0  0  0  0
  3 28  1  0  0  0  0
  4 29  1  0  0  0  0
  5 30  1  0  0  0  0
  9 31  1  0  0  0  0
  9 32  1  0  0  0  0
 10 33  1  0  0  0  0
 10 34  1  0  0  0  0
 11 35  1  0  0  0  0
 11 36  1  0  0  0  0
 12 37  1  0  0  0  0
 12 38  1  0  0  0  0
 13 39  1  0  0  0  0
 13 40  1  0  0  0  0
 14 41  1  0  0  0  0
 16 42  1  0  0  0  0
 16 43  1  0  0  0  0
 16 44  1  0  0  0  0
 17 45  1  0  0  0  0
 17 46  1  0  0  0  0
 18 47  1  0  0  0  0
 18 48  1  0  0  0  0
 19 49  1  0  0  0  0
 19 50  1  0  0  0  0
 20 51  1  0  0  0  0
 20 52  1  0  0  0  0
 21 53  1  0  0  0  0
 21 54  1  0  0  0  0
 23 55  1  0  0  0  0
 24 56  1  0  0  0  0
 24 57  1  0  0  0  0
M  CHG  1  23   1
M  END
> <OMEGA_C>
AcrTQByts0BMgr/BVfnyQBZMp0B0ArjBRReqQI7wokB+1b7BRXfoQKF9ikDxxa/Bt3SfQIwGhkBq
obbBqkq+QMD5c0CE3a7BUU/KQHaFQ0DAlJvBba6CQKm1WUDex5jBtj7aQK6ltL9ksafBkDDlQEwX
A78qSrHBGb6sQMDNjr9XtaPBPCPiQPW1eD+TN67B5f+oQORVsz5qVKDBVxG1QNwEqT9NsqnBJAGy
QPQtNEAD/qXBlrEXQXwP5EAdYJLBlFD+QOwH4kCFI5PBq9TsQPxEvkB144vBOIa7QP7QvkAF9IvB
ZbmoQFqfm0DPpITBdTmzQPSkW0DWcIjBQOWqQJBoUECP8ZPBmlOFQMtiRUD16KLB6Rk6QPeAc0Dq
3pPBj17wQJbgNkAtyJnB0drbQAoGykCZyMXBiIcJQVTws0Cgk7jB3DSSQP9NrECDn8TBK1UAQXTZ
gEBkGKrBeRF/QKK/cUCDPbbB3VbcQMzOHcDeJKrB/SrxQE84nL8KMaHBwPsCQQWBO79r+LPBg5rO
QLL4N7931bfB0MSVQNblqL9RLKrB94ulQL9w4b9z0JzB7WX6QLOvmD+CF6jB7jjoQCT2yj+YW7XB
4taHQD3+DD/x2Z3B9q++QPhiCD/RjZnBe52dQAETlj+sJrDBF7QdQU67/UDNl5fBYGccQZSe6kB2
DorBbIceQQRGxUDH7ZTB3cPwQItxAEHmmJDB9wP1QIaK20A3eJvBRjD4QPQcn0Dg1o7B51r4QARF
w0ACq4PBwmWwQPo53kAiHonBFjmwQOSMuUDELpTBX8a1QE3ln0AJFXnBaruFQGFYn0ADboTBvjvV
QKqKTkCK3obBsVufQCMOLkB074PBLbdYQKX7QUA35afBiPoDQK1Yd0AFHZjB0+85QCUigUAnFozB
qIvPQOywtECNMb/B9BbxQNLlqEB6SbjBDYumQG4Ao0CSyb3B0q7pQE+Ui0BF8K/BRuyeQB7jhUDI
arXBTkjAQI6LdECAQq7BePrMQL6qT0D41ZrBsB2EQN7cWEBzK5nBvke3QJ6Wxb8w76rBdD3QQPxF
g7/3NqHBANO9QJAyHb8hmrTBYsLBQE7UyD6aYp7Brl+vQMBuUT9u/rHBMo3HQLUIrz8iFajBcve3
QGioM0DOL6XB0YMjQXgz5UA0ppLB1/sPQQ9Mx0C9PJLBrsv5QB/u3UBMp4zB1FjQQPsqw0AfIY3B
7i3TQPWOmkBr/oXBWhCvQI8adUCvYojBrE2rQChCYUDP5JPBZAyKQJ5SM0DtaqLBxkQ5QLNDckBC
OJXBdlDzQBnQS0BlxZjBL0fVQOZNy0B1kcXBYk0IQdFftkC8ZLnBCeCMQOXHq0DwI8PBP98BQSIy
gkCIxarBm9h+QIR5cEAfbLTBa6zCQNleI8Do+azB+gKVQEHSyr8+86jBo2/KQJY/2L+FWZrBlp/y
QIQGgr8BGaPBCPTfQIhNGr8ewbbBoP+qQJAWfr+0ZLvBPsWfQAKxvD6/GpzBQuzUQGkvQj80nJfB
xPe1QEK0uz+56LjBMM+MQEwVUT9FVLDBC9npQAJ+tT+xBarB/+IwQVe71EBZn5bBbGQfQVskAUFm
KJfBsDsoQV787UDzdYrBr1YLQamGvkDmb5rB8y0UQVE6qkBzvY3BtQ8BQRx/40CgN4TBDhH0QGrM
/EADopDBu3e1QEYD10AgXIrBw7HKQHNLuUADdZXBUB7yQG7KikAtb4fBWRHRQOBEpECFGnvBmIq1
QOxhOUAxBITBjJuQQMtFiEBTnIXBj7llQGcdGkA58abBn0YEQEI0aECLhpnB4VM1QORRh0DjEI7B
M/PTQDPjs0AgiL/B9wX1QJz3pUAPu7jBYgWqQBS0pEBnAb7BQCzsQLxBiUAcVLDBV/igQE1GiEBQ
kLXBC9TBQBSAdUAFdq7Bmb3MQHC2TUD+z5rB8Q6EQBYNT0Au25jBhSOzQE6bwr8yKqrBsobSQODa
fr/+vKHBWN+zQEh4H7/bJrTBcI7GQDiO2z5Wi57B4M2nQP79UD+ARrHBQfnFQGwVsT+KfKjBKgi4
QKolNUChYaXBYPG0QMST8UBxfajBIrqsQJ2t8kBeWZzB/2G1QPBVxkA8vZfB+uWpQI/NwkCssIvB
hxrCQHrnnUCG+IXByCKwQKBLYUBxFIjBNlqrQIo6TUBpeJPB/N+JQDbnNkBKwqLBlLA6QNaZa0C1
wZTBHQnzQKSOVECG1JjBUb/aQFcvykAW6cXBXaUKQVlUsUDL9LnBTbqQQJfdrkAeUcPB7vACQUNg
fEDIQqvBV7qAQAw+eUAbebTBrk68QDHMIsDcb6zBVaOSQKePw78qyabBrVPRQCV00r8po5rBLh3z
QHcygL+LEKXB9jjUQM8sIr+WnrfBX96cQPNogb93C7rBe5amQM2X1z6V3JrB3xveQPBGTT+cuZjB
FFGqQHrUuD+iebjByaqGQMStVT+JT67BHJjmQFkJtz+pxavBXsyuQAu2CEEN6avBS2jWQG966EBv
/6nBTX+fQG8I2kAAPazBYizCQBsUBUFUk5jBY0OLQDS2+0Dl0JrBpjeiQD/SrkDzM5zBTJbXQHMF
v0AOupjBxCWyQKQp4UA0vofBf0qHQOcTvUAO9YrBGpzjQD6EnkDVqYjB78/AQJvco0CGm3rB9wbG
QKA6MkDgfYTBO4yQQCtUXEA0P4TB1sxkQCG6J0Cf2qfBLB8HQN2tbkCkepnBg3Q2QFIZfUBoFI3B
te7SQI9qs0AAPr/BOnnyQEQfpkAY77fBWfuoQCF1o0CpY77BgAvoQEM0iUCutK/Bem6eQLNxhkDF
MrbB/py9QPLrckAJn67BhNDJQEBCQUAXcZvBDKaCQJq+XkBK3ZjBmDTcQCiKtb+3cajBkejkQAos
/r5EC7LBkF6vQCR1k7+84KPBKKPhQL3jej+Lwq7BsH2rQCf3nD6fS6DBvDa1QOyqpT/jsqnBLoyx
QJHvMUCE1KXBOS4AQRm7CUFfSpDBSPcMQb6R60B9wZPBAasIQQipxEDRbozBxzniQMgytkC44ozB
wmbcQDckjUAnIYbBOv6xQH5UbEA8mIjBhi6rQC5bXUAuJpTBX8iEQDhwQUDXqaLBRWU6QCtheUB1
7pPB67nvQPI5MkAtvZnB2OraQCrbyUCrgMXB+GAJQVwhskBuo7jBjNKQQNV/rUDQCMTBmj8AQWbK
fUCoK6rB8I98QPTgc0DprLXBBk/eQODgHcAODavBNkL0QOJRnb85M6LBA6MCQcbBMb/QHrXBO0PN
QKUNNL9iWbjBN0aXQI/Irb8UFKrBh9ypQIL457+2+ZzB6tj6QIcOmj9v4qjB8hjmQDgkzj9u4rXB
eL+KQJuc+D5sZp3Btl3CQKJA+z5txZnBd72cQCFtkT9a5a/BJ8cDQZwWF0Elu5XBWerdQP4nBkG0
lpDBjK8EQW0rDkENFIjBSWkIQfYq40AR/pvBqCMeQdUx80Bqe5PBWOkSQQXzqUBCAY/BZ6EMQTFu
zUDVJITBk6TNQLSyz0A+rInBtUXZQDObr0AvPJXBcgr3QLtebkBM2YfBEOTcQJTdlUC6NXvBIgSy
QDMiLkDWeITB132XQAHhiUB0jYXBLN9WQPL5NkBKXqfBot4CQJbedkC15ZfB2+g7QFOMh0CTaIzB
fHrSQCbRs0DER7/BY6fxQOjAp0CovbfBavaoQDKYokAWp77Bx1TnQJKlikD7iq/BnX2eQImVhUDR
c7bBQFG9QFCIc0C1qq7B63bJQKD9P0Dsd5vBS4GCQBSzW0Ckz5jBNLTdQMOnsb9rGajB+v3mQPzP
874hurHB8hqwQJmgkr/d9KPB0IXiQFpEgD8woq7BoQurQCyXnj60dqDBPn+1QFirpj87z6nBLVqx
QAg7MkAG6qXB3NQpQXfLnkAUs5HBtaQTQeOosUCUJ5TBwqwDQaZCpkBEM4vBcCPaQKMft0CNAI7B
dv62QOC1okBW7obBuzmyQDLLY0CjlYjByAWqQKTHTkBO25PBBoaEQErzQUByxKLBVCg8QODPe0CL
6JPBhzbvQMJNMEDHq5nB4WjaQF5FykC3isXBNckIQTHatEB6PrjByxaRQManq0CLecTBfJb/QLsU
gUBK36nBK1Z9QIlecEA/FbbBCe3gQKUaHMAqkKrBUr/0QO7Plb++raHBLOcDQXAuKb9ojLTBxTTQ
QMTVNL9BLbjBtQmZQLPLrr+/XarBKPCpQAkt5784F53BGCX7QMkooD9Cq6jBMyXnQMSazz+iz7XB
dNqJQEBV8j6t153BpvTAQKveAT+UwpnBJZ6dQMZakj8kJrDBfwA1QZk8p0AEKpjBFL8vQffhq0Cm
FYrBgJ4oQZyGd0BAF5HBr/AUQees1EAgx5TBG9ANQT6OpEC6yJvB7wsDQdtHg0DKRIrBmAUJQc3l
tEAtqIPBCZXZQMAC2kD91ozBsUzTQE+rr0BQbpbBkgK/QMmmqEDe+3zBUD6YQOcLskDI1ojBpOrP
QE8BREBLBobBQ1qXQHmJTEBQs4PBb3RWQLoLOkD9kKfBZYUFQH1LgEATCJjBfUI+QGkYh0D1P4zB
ZTbUQFaPtECRV7/BdRv1QFYLp0DzcrjBqWiqQODCpEB4/L3BYT7sQLDHiUBtMbDBi0ShQOzrh0Ds
p7XBuvfBQNAfdUDJhq7BUszMQFS2U0BrLpvBPsmDQLuuWEBzMpnBZRO0QHixwr8FIKrB2+DNQGW8
fb+flaDBNfm6QOUQIb+dAbTBhKjAQL0A5T6NBJ7BI6utQOgMUj+Aq7HBX53GQFZtsT/B8afBoOe3
QDMlNkBqYqXBgacoQdLh0EAuSHnByWQVQcFYs0Al+XzBWzMAQXJkyUCIx3XB5KrYQD7Sq0Dkf3fB
Ls/WQJ5WmEDQ44bB5euuQBwMe0D8zojB6iarQNuoaEBpT5TBnuOJQLdYOEABvaLBegc4QF2iZkCq
lJTBESzzQGUpTUDzP5nBBgrbQEIPy0CerMXBdpoKQbsls0DufrnBikSRQCLOrkBCW8PBLeoCQfmT
fUByE6vBUB6BQMS2d0DrrbTBAIu+QBzoIsBu+qvBY9+RQMeAw7/YC6jB9NnHQC9Q0L/nkJnBHSzw
QLblgb8jj6LBeQbdQG9TJr/BOrbBVqOnQAwUgr8PrbrB0syeQAoJ6j7OnJvBSn/UQCdIUj+3ZJfB
lm+0QLVouD/+vLjBji6LQJFTWT8I7K/BUtnoQFeGtD+C+6nBl183QeidwECfeX7BU40mQTSA7kBH
R4HBbdgpQWm32EAwKmjBOFQUQRyJq0D5DIfBUp8XQVHAlUCUtXPBa/QBQZuE00DNA2XBfRL7QIGn
5UBY7X/BSAnbQGMjkkC8hWvBrn27QIuivkCZl3TBC3LXQDRsskD0y4zBnxLzQCHTg0DE/YfBdmix
QJafPkDzVYTBtYWSQDtGj0BrGYbBkxVlQKTpI0CWk6fBssACQJ6rV0CAmZjBY/ozQDqnf0AZPI3B
OHXWQD1FtEDuZ7/BwxT2QPx7pEB+crjBrOmrQFZEpkALW77BKyjrQIsOh0DsXrDB88ugQEhJiUCF
NLbBuBLAQGRAdEC34a7BDaLKQHLYP0DAWZvBos+CQBR0U0BprZjBChPSQH9Tvb92c6fBpljoQK4r
Dr/hi6/BR9CiQGeLi7/5SKbBf1PlQFC9Zz/B8qvBKfWeQK7OtT5yaaLBFvG1QH7Qqz9IMqrBggmz
QKYlNEBgCabB20MAQS+O3UD9057BRdTQQJfI6UDG6Z3BLjy2QO6ayEBmpZfBUULKQEVsvECHoozB
5F2tQNyUnkBF3IXBkMayQM7NXEAKbojBhqmqQFL4R0Bdt5PB302GQEqDRkDa/qLBYmU6QAi/bEBp
tpPBcCnxQCBFRUCXm5nBn9TeQIcay0Bwi8XBK2sLQUb2rkDmTLnBkrmTQPTGsUCc0MPBOu0BQYdh
dED5QKvBRRqAQLjffEDzgbXBW0XUQEo9IcAvQqrBK//hQLCssb/7op/ByB4FQUhEV78FMrDBvdLY
QBzZKb+gZbfBOdKSQHBFmL98Fa7BpmeTQOof4b9vdKDBE/b2QEMjgz9vZKTBYsXzQF/yxT+XHrLB
9sV5QK3aHz+y6qHBSZutQNBb4D4UcJrBVXqlQMG3pT8V97HBS9UIQexh9kDaXKPBxDkHQcja2kAX
xpbBv70BQUizvkCi/6LBKHHOQFZnBEF1zJnBH3nDQCun7EAABqbB+yeWQFP11UAuPZbBl4qzQOdr
q0AlhZzBDeToQJYTrEAdFY7BPf/PQGH82UAhFIjB4xi1QBGTo0Clu3rB7cuLQDZtp0CcUIfB1b3T
QCzZSUA8dIbBcTicQGdCOEDEc4PBZLBbQDPHSEBhJajBM3YFQCYgdkCvDZjB8BQ5QEObdUCRyovB
V5HWQJRoskAVAL/Bezb3QPpqo0BhO7jBqlysQDiZo0CZsr3BLqTtQB3EhUBhI7DB2XWiQJeZhkCp
d7XBlN/CQPMocECQbK7BlcDMQEnaVkAHI5vBa/6DQKmtWkAzLZnBPNizQEg3yb+Tu6vBhkzEQNQ8
i7+X2aDBpWfCQCrzHr/vsrTB6re0QFcasT6DyZ7BP2+0QBnTVD/9fbLBX6TFQI4MqT+DhKfB4wS4
QGhZM0DVLKXBjNH5QCy98r7gyonBFGT7QKq1AD5rxnzB9h7VQOpwiD82cXfBMN3VQNBVE0C75oLB
ZcSuQNZ7TkB+g4HBo++vQGR0i0BQ74nB0zqrQEf6dEBR5JTBhPyJQJsGN0AujqLBn+A4QH2xZEAH
TZTBDgTzQJDkV0B16ZjBhuLdQFlQyUDHNMXBw88LQRCyrkCJQbnBgYCTQLSMrkDvCcPBQ4MDQUeK
ckAyLavB/gKCQGyudkA5grTBlHzAQHYTJcBMUa3BHKuQQEaqzb96kavBxSS4QLsW4L/ahJrBan7n
QJ2cjb8I1KDBqoHlQDvlJ79BS7XB2zy0QNTCc79pTrzBpYWRQDPUtz6L257B1VPAQJhbLT/g6ZbB
1wfBQPjJvT+F2LjBzEWRQObbYT+7c7LBSM3oQDyQoj8RoafBS+cKQdK1j7/6CYvB7l7cQFRXiL9w
u4rBVib6QOm6rT5Kt4/B9Wv7QIbbM792MXHBrpkMQZawMz8rKXvB8vK2QIKYBT9S+HnBO1rXQFrG
sD/lnWbB2eDyQK5YOEApDYHBo/3WQATy+z8ZSIvBUEiRQGjrKEDMioLB9E2vQA2lakAi5nLB4Z+V
QP3toUBxUojB8LLOQC9inEBHUYnBBChlQMxMIUA0SafBfuMDQDYDUEC595fBp9Q0QBhMgEBzHo3B
QeDUQP5/tEDJcL/BDa31QKR4pkBflbjB5e2qQMYZpUCbFb7Bz5DsQLcsiUDtWbDBs4ahQFJsiEAA
vLXBfiHCQPKRdUAlmK7B+wTNQCLfUUDdBpvBqF6EQPRMUkCJ6ZjBIX2zQAmpxb+esanB/5PUQCa7
eb8h3aHBz1awQEo+KL+vt7PBTDLIQH405T7rkp7BOJakQMYiST/ouLDB2QPFQNdUsT/sjKjB4wG4
QECLNkB9eKXBbkzuQO603kAVLJ7BYXnxQBTx6kBzPJLB2EbhQGIfx0ApvIrBVDWwQCs8wUAEc4vB
xbWgQEDkm0AzU4TBnlWxQGCPX0AyDIjBSuirQDjnUkAqo5PBhBCKQJCbOkB706LBOU45QAhIZkCi
pJTBxXLzQPJ+U0BPCZnBwOLbQAsUy0AkvsXB7PMKQZc1skDYo7nBJOSRQJVQr0D1dsPBNhIDQY8R
e0BhUqvBo0KBQJVgeUAmv7TB6Su9QB/II8DSEqzBlg6UQOTKyr/VvqXBS+3VQACGzr/ss5rByiz0
QE40db9bvaXBrGHPQDSMKL/J3bfB05WXQNobiL9nELnBgQGpQEQu2D4LgJrBoZjgQGPVVz+KE5nB
86ikQOOVsz9+AbjB2GqEQB1iSz+bJq3BF6vkQBrztT+lY6zBfDf6QMFJ+UCtHKPB7NkAQU74wUDo
r5/BRrXMQDgh2EDCOaDBJJQJQUKw8UADUZDBtCneQJbsA0Hc2pDBAOLwQLzfqEBr+ozBX9DpQIZZ
z0D/coLB5n+gQC7t3kCq0YjBJG2nQEaFukDWzZPBheerQGaJoUBFNHjBMgl7QBVSm0AEcoTBfo/T
QPalWkDzFYbBdI6fQJM/LUAByoPBfdlkQOIGLUCd8afBO/IEQLXkYkBYOZnB+2A0QD4UeEC++4zB
xeLSQMK8s0CcYb/B8dDzQC0Lp0CFZrjBFEKpQB+Go0Co/73B1SzrQOI6ikBSBrDBjV2gQAcQh0Dy
j7XBfxjBQNYYdUAPVa7BLbvMQPlYT0Di3JrB69qDQGSmV0DUCJnBIa63QOzNyL/9QqrBx6TYQFew
e79ceqLBeXqyQIO/J7+UE7TBgcbKQLsy1D4T2J7BBkOlQBQiQz+At7DB+8HFQGLcrz9doajBH6K3
QBaPNEAjSqXBkfnhQFxhD0E1fY/B7n4BQQbI+0CbQpLBZa3/QDyS1EBvw4rBGszTQGVevkD4oovB
wTHUQGFAlEDfIIXB/sauQCJebUCkJIjBsR+rQCvXXkCqypPBCKuJQGqwNkDSiqLBnJA4QNezbUCn
05TBuz/zQPaYT0Aw9pjBgIzZQHHoyUDhy8XBoOUJQfFus0BkeLnBiBCQQNXwrECfbMPBXWgCQQTl
f0BH1arBTFyAQPBBdUAklLTBlX/CQMf3I8Df56zBeqyYQKna1L8pKqbBXlnbQEn10b8OdJvBvuH3
QPVFar9Of6bB7RbRQNMTG78mZ7jBGruZQNWEib9MXLnBcfCrQBYFrj5tpJrBtxLjQAKkUj/7YJnB
R9ajQG9rsz8+3rfBF3uFQDaNOD+x8qzBywHlQN14uT/doqzBNqjlQDXsHEGmCJXBlHnBQDjHCEEn
N5DBAD3nQGjpFEFBPYfBMYz9QBMu8UBdiprBz6cRQTm5BEF3kJHByGgMQeR+vUC+64zBSDYCQVs4
30DMdYLByNq6QM6300CedojBMwDNQEoqt0DEFJTB+HPyQNVdg0A4rYbB0ejRQGEOnEAJInnB/ICz
QGI3L0CwLoTBXtmQQMNBhUA3SIXByV1kQLXEIUBATqfBTHMDQAShZEC1JJnBXqE0QP1Vg0Aoeo3B

> <OMEGA_E>
nEItP3bwKz9sEig/DJcxP5wXMj/yyio/kJ0nP3hzKD9Udig/tNsoPw==

> <OMEGA_NBR>
     57731

$$$$
50215544
  -OEChem-04172616093D

 45 48  0     1  0  0  0  0  0999 V2000
    6.0930   -0.5803  -22.5495 C   0  0  0  0  0  0  0  0  0  0  0  0
    6.2993   -1.4658  -21.4775 C   0  0  0  0  0  0  0  0  0  0  0  0
    5.8740    0.7874  -22.3052 C   0  0  0  0  0  0  0  0  0  0  0  0
    6.0359    0.3804  -19.9077 C   0  0  0  0  0  0  0  0  0  0  0  0
    7.2855   -3.0601  -19.1482 C   0  0  0  0  0  0  0  0  0  0  0  0
    5.8938   -1.6496  -17.7400 C   0  0  0  0  0  0  0  0  0  0  0  0
    6.8592   -3.5732  -16.8130 C   0  0  0  0  0  0  0  0  0  0  0  0
    6.2680   -0.9905  -20.1456 C   0  0  0  0  0  0  0  0  0  0  0  0
    6.4812   -1.9112  -19.0041 C   0  0  0  0  0  0  0  0  0  0  0  0
    5.8726    1.2890  -20.9779 C   0  0  0  0  0  0  0  0  0  0  0  0
    7.4627   -3.9099  -18.0444 C   0  0  0  0  0  0  0  0  0  0  0  0
    6.3449    3.2290  -19.4116 C   0  0  0  0  0  0  0  0  0  0  0  0
    4.0839    3.4544  -19.0932 C   0  0  0  0  0  0  0  0  0  0  0  0
    6.4307    5.1185  -21.7312 C   0  0  0  0  0  0  0  0  0  0  0  0
    7.3675    4.0249  -22.2792 C   0  0  0  0  0  0  0  0  0  0  0  0
    5.9154    3.6828  -21.9079 C   0  0  0  0  0  0  0  0  0  0  0  0
    5.6070    2.7739  -20.6761 C   0  0  1  0  0  0  0  0  0  0  0  0
    8.3510   -5.1307  -18.1579 C   0  0  0  0  0  0  0  0  0  0  0  0
    5.6004    4.1041  -17.1604 C   0  0  0  0  0  0  0  0  0  0  0  0
    6.0894   -2.4675  -16.6799 N   0  0  0  0  0  0  0  0  0  0  0  0
    5.3591    3.7067  -18.5582 N   0  0  0  0  0  0  0  0  0  0  0  0
    4.1927    2.9504  -20.3050 N   0  3  0  0  0  0  0  0  0  0  0  0
    2.8733    3.7089  -18.4578 N   0  0  0  0  0  0  0  0  0  0  0  0
    7.5483    3.1640  -19.1813 O   0  0  0  0  0  0  0  0  0  0  0  0
    6.1025   -0.9513  -23.5637 H   0  0  0  0  0  0  0  0  0  0  0  0
    6.4824   -2.5124  -21.6714 H   0  0  0  0  0  0  0  0  0  0  0  0
    5.7059    1.4602  -23.1332 H   0  0  0  0  0  0  0  0  0  0  0  0
    5.9822    0.7416  -18.8913 H   0  0  0  0  0  0  0  0  0  0  0  0
    7.7583   -3.2832  -20.0932 H   0  0  0  0  0  0  0  0  0  0  0  0
    5.2735   -0.7737  -17.6202 H   0  0  0  0  0  0  0  0  0  0  0  0
    7.0154   -4.2130  -15.9570 H   0  0  0  0  0  0  0  0  0  0  0  0
    6.5911    5.5251  -20.7218 H   0  0  0  0  0  0  0  0  0  0  0  0
    6.0706    5.9179  -22.3955 H   0  0  0  0  0  0  0  0  0  0  0  0
    7.6761    4.0428  -23.3349 H   0  0  0  0  0  0  0  0  0  0  0  0
    8.1966    3.6500  -21.6612 H   0  0  0  0  0  0  0  0  0  0  0  0
    5.2411    3.5343  -22.7642 H   0  0  0  0  0  0  0  0  0  0  0  0
    9.3867   -4.8555  -17.9099 H   0  0  0  0  0  0  0  0  0  0  0  0
    8.0004   -5.9053  -17.4600 H   0  0  0  0  0  0  0  0  0  0  0  0
    8.3111   -5.5186  -19.1865 H   0  0  0  0  0  0  0  0  0  0  0  0
    4.6577    4.4447  -16.7075 H   0  0  0  0  0  0  0  0  0  0  0  0
    5.9880    3.2429  -16.5962 H   0  0  0  0  0  0  0  0  0  0  0  0
    6.3363    4.9212  -17.1335 H   0  0  0  0  0  0  0  0  0  0  0  0
    3.4187    2.7185  -20.8943 H   0  0  0  0  0  0  0  0  0  0  0  0
    2.0119    3.5075  -18.9240 H   0  0  0  0  0  0  0  0  0  0  0  0
    2.8643    4.0935  -17.5347 H   0  0  0  0  0  0  0  0  0  0  0  0
  1  2  2  0  0  0  0
  1  3  1  0  0  0  0
  2  8  1  0  0  0  0
  3 10  2  0  0  0  0
  4  8  2  0  0  0  0
  4 10  1  0  0  0  0
  5  9  2  0  0  0  0
  5 11  1  0  0  0  0
  6  9  1  0  0  0  0
  6 20  2  0  0  0  0
  7 11  2  0  0  0  0
  7 20  1  0  0  0  0
  8  9  1  0  0  0  0
 10 17  1  0  0  0  0
 11 18  1  0  0  0  0
 12 17  1  0  0  0  0
 12 21  1  0  0  0  0
 12 24  2  0  0  0  0
 13 21  1  0  0  0  0
 13 22  2  0  0  0  0
 13 23  1  0  0  0  0
 14 15  1  0  0  0  0
 14 16  1  0  0  0  0
 15 16  1  0  0  0  0
 16 17  1  0  0  0  0
 17 22  1  0  0  0  0
 19 21  1  0  0  0  0
  1 25  1  0  0  0  0
  2 26  1  0  0  0  0
  3 27  1  0  0  0  0
  4 28  1  0  0  0  0
  5 29  1  0  0  0  0
  6 30  1  0  0  0  0
  7 31  1  0  0  0  0
 14 32  1  0  0  0  0
 14 33  1  0  0  0  0
 15 34  1  0  0  0  0
 15 35  1  0  0  0  0
 16 36  1  0  0  0  0
 18 37  1  0  0  0  0
 18 38  1  0  0  0  0
 18 39  1  0  0  0  0
 19 40  1  0  0  0  0
 19 41  1  0  0  0  0
 19 42  1  0  0  0  0
 22 43  1  0  0  0  0
 23 44  1  0  0  0  0
 23 45  1  0  0  0  0
M  CHG  1  22   1
M  END
> <OMEGA_C>
fPnCQIuRFL9XZbTBL5TJQECgu7/90avB3Pe7QD6UST8HcbLBcibBQEPDwj7oQp/BsCLpQD/YQ8Bx
L5nBNJq8QA4n07+U643BZn7bQMmvZMAVgYbBuJPIQA2Pfb8lKqHBEmbPQMKj9L9/CJjBuey7QID9
pD/H0qfBKM7uQJ07esDWWpDBdwnLQFmnTkAAS5vBQ6+CQDIUXUDjvpjBncjNQO7Ko0CM2a3BccLr
QDzMgEDXO7LBJ0u9QCWza0BoQ6/BemyzQPeHMUCdaKXBkp0FQWAupMBrQ5HBtDazQIJUg0B5SInB
DtzCQInrHcCIcIXBen2rQDU7bUAtd5TBZiqGQKfSPECxcKLBpeQ3QBdfbUCYqZPB+4vxQLl+SkBJ
c5nB4UfDQEqJc7+DgrzBu2/PQA3LIMATX63BVpa2QE7muj+7ELnBz22/QFXWPT9RIZfBmkP4QLAg
UsDevqDBpcCoQIIQRr9E9ozBEH7gQLPQhsAFUH/BnerSQIHNsEA1xqXBVULCQHlfvUAFKrPBQKL1
QLJegUDgrbrBRCUDQXSZaUAQSq3BbbenQI8yYkArHbbB9y8WQe5fm8CCR4/BoAEAQfT3vMAXrovB
EfoEQXOYsMDgfZnBgAuVQAk7jkDiqIXBcp2/QCKMT0AexYTB5MLKQNZ6nUBSEYnBFsxaQD/8LUB9
J6fBs8IAQCV6YEBRZJfBoFA3QJr9gkAmR4zBjozVQMIfBr/0X7PB97rKQEyKu78VhavBq3HNQMGf
Vj9SpbHBmqWwQBUmqT6o/5/BEAGqQDel2789vI7BVemeQG7JVsD80pzBwteRQPCGfsALDIvBDK63
QIINhr+m0qHBYtuqQBz3AsCUtJnB0pi7QF/1pD9N06fBQdqdQFq1LMBTT4fBCe/KQDoPTUA2Q5vB
RqKCQHYXXUDPu5jBKn7XQLfyn0ByLq7B/+rsQL48ckD5X7PBEVy+QEyKa0CjWK/Bw4izQK7lMUAZ
eKXBu7ibQHKLF8DCAHfBADSzQBVNg0CIR4nBz6+SQPQqicDolpXBgnmrQLS2bEAtdJTBVCGGQORF
P0AQj6LBSeI3QNq2a0Drh5PBBoHxQIiXSUBVf5nByCPkQD4XWb/2w7rBz/jQQFHgIMBy4azBPNnU
QFjhxj8k2bfBw7miQNBVJz+HhpjBtY+yQJ0hOb9pF4zBTJWfQGiYZ8D/M6XBL72HQBs8l8DeW4XB
D93hQE7MqkC0OKbBLdHOQNTVu0D5F7PBHJvzQEE+ckC9A7zBf1MDQTYrUEB3JK/B/9ulQNuLa0At
qrXB/md3QBW4/b/SFHPBFAaiQFStUcDSlm3BkOazQF5zzb8RLXPBzxqVQFuajkBPsoXBzkW/QBN8
T0AZtoTBBwPLQHQ3nUAbF4nBpMJaQB1IM0A5Z6fBcaUAQJhzX0DxRJfBnYU3QNo9gUDxDYzBnN/m
QKG2/b6I36/BYFvLQCvzu791kavBO0DfQDJ6Xj+6763Bb72gQILWlD7UP6PBo+U+QCEP5r8Gs57B
ClKaQCuEWMAs2Z3B4kEtQO1vgcDSt5fBPQyoQJRGir9CNqXBTvuKQEQWBsC0j6DBloq7QFS8oz8d
w6fBZC8KQK3SMcDVGZrBftnKQAHATEBAVZvBX6CCQKJTXUBHu5jBYnnHQM4apEAuTa7BJY7qQMvN
hECj7rHBIye9QGqeaEAiga/BYDWzQOX+MEDtcaXBmt0vP4gwIMAUSpjBVYuzQOsxg0AAV4nBdmaA
QAhmisDQjJnBoY+rQCGQbEAkf5TB0uqFQI3TQECpm6LBMAQ4QCF3a0AqfJPBy17xQFJnSEDTipnB
+PYAQQ3yS7/JrbTBVTLRQDn2IMB5Hq3Becb0QDkjzj/VLbHB+UiGQD2tFj/5OZ7BOTglQGY5VL8f
yKDB/5G7QP+zZ8COPp/Bb34EQCTjmcBgWpTBIwXJQGygskBrS6bBnR66QCNdu0AyALTBn0T2QKej
hUBjOrrBk5UCQd/NeUCchazBFRKqQHQ3WED2m7bBZxbzPZv+McDkfJ/BUVepPlQRRsDkcJHBoM8K
P3hht7/nnpbB9oyVQJ+VjkA2uIXB5p+/QP8zT0BhyYTBgG7LQI4KnUA4LonBEU9aQBAtN0CIh6fB
v7EAQOPaX0CGPJfBmdE3QJWegEBX9ovBEnKqQC1FK7+InbLBEAnEQFSVu7+Q6avBlnijQLGSLz+5
DLDBIpzNQNb12j6f4p/BmBIIQZrjG8AtOJ7B6ATjQOKMyr9W3I/B+ssOQQD3OsAyd4vBGGHUQH8T
ab+AaKLB/OXsQAps178i2prBgJu2QPL8nz/v0qbB4DgUQa6yRcBIYJbBSFvMQCQHTUC70ZrBbOOD
QGSnU0DW45jBiG2zQOmle0CpO7jBvt7MQGG9m0A/0LDBgJXNQOgbV0Ai6q7BhoG2QL3qL0DeF6XB
WGsnQcK3esAhjZnBtuewQKP3c0AjeojB9Ez7QE0HDMC9ZojB6lyrQFu/VUDkhpPBWheKQAgiS0Bw
RKPBUU44QH0/W0CQB5TBPNjyQH5NVUCwLJnByyucQDcNjL8BtrnBnw7LQBxSH8ADB67BbHmPQOfb
pT9AIrXBXTnaQM3sVD/7hJjBuS4MQey1IMD/lqbBmnTHQMsegb/wY43B6ZgYQYoFWcAebIXBw0CQ
QMrjekAc6rfB7AW+QNVicUC9hsDBeKbpQEcXrECYzrPBTuG7QMHXsED3MavBP23rQGenNkCWOLHB
VLo1QR3FUcCeypnBMs8pQQoal8Buq5PB97EkQetmi8A+gaHBXbCRQHfmdECIaYTB0bzGQOutSEDp
MITB5XK+QOJ4mkDCjojB7mJoQKh6VUCo9KjBEhYDQKB2WkDSeJjBoT80QIaBYUCEFYzBBq2uQGCs
Mb8PMrPBmFLHQFRfv7/uR6zBpn6oQEAhLD9F7bDBrSrTQOpN3T7vwaDBj2b1QG9Nt7+IeJDBe5cF
QUI2N8DKN5/B6OsSQbpFU8CDBY7BRoXZQNwvb7/k8qLBYmPzQE9+4L+VeJvBgk27QN7hoD9TvKfB
b7gHQXLcDMC/tInBFlzLQPQATkAkDpvBn+qCQEvkW0CbtZjBUz/PQJ8KokBZ963BDf/tQMrQfUCo
8bHBrVO/QP2TZ0ATO6/BrDW0QNXeL0CPPKXBjrwIQYul8r+EsHvBI8CyQKXMgUC/BYnByckRQWwV
Z8AYj5jBkXirQDL9akCNQJTB/9qGQARjPUCreqLBmfE3QDg5bECcu5PByPfxQDHbTkCRPZnBsnWg
QEVwkL80Q7rBOVXMQC9/IsCCG67B+UqVQC+doz+jOrbBJNHgQML8Wz/Tl5nBqh/jQITQGr9LUI3B
qu0EQYyeR8C7mqfBg6EcQZtOesCTzIjBd2DTQOfTr0Bw76XB3RbEQFEGu0CYgLPBG8r4QMWbfUDu
UbrB2wkEQfE2Z0DFwKzBt46qQMB3XEDXMrbBlBj4QEfMHMAEUXPBSG4YQce4DMDOXnXBLHkGQY79
UL/FJ3nBYFiUQF4ajEDbaYXB4m+/QOhtTEDykYTB/erJQLtEnEBRsojBl6ZcQDAHMUD0YKfBFyMB
QLi/YEBim5fBNbs2QNq4gUCPR4zBKXy4QP4fH7/nl7PB/EvEQFTLu78UJavBzKSxQPZVPz9FpLHB
vc2/QDyV0j4/vp7Bf+nBQBxU278AJI7BXxAAQS91E8Bh5pjBz9/+QBgSOcBRxIbBvQPHQIwMcb+V
vKDBbU/XQKp93L+QAJjBy8y3QNlFpD8oQKfBIMnVQPCmFMDNYoXBjm/MQABoTUCA65rB/cSDQF5c
VEA665jBzfqwQIELgkC9/7fBEgLJQLkHoEBbUbDBv1rMQCJVX0CM5K7Bjne2QAIZMkB6RaXBR8zA
QKqJEcCo9XTBbvKwQHYBeEAZo4jBzpcJQaQEOMAgXZDBcGSrQF4FWUBxqZPBrKeJQIwDSkDLRqPB
Lzs4QG4NW0Dc/JPB4PzyQL7wUkDuN5nBkae0QMGGgr9IkbvBLzjLQNSVIMDGnazB/aSnQLZusj9F
GLjBV2bAQAP7SD90o5bB7uSiQO3Bn7+wVI3BuzUIQUPBEsDohKDBqEAHQfKEVsCK/n/BCOKNQF2F
f0BapLfBOJm7QPaifUCiWcDB1cvkQPpZskBmLrPBpRS3QC1Ls0AeearB7vHqQNncQkCKZrHB3bys
QHa1SsCBwHLBXKDZQJrLD8DIfWjBZsesQDmmr79hx3PB7ZiRQIc2e0DFp4TBvfHFQLHaS0DIOoTB
P3e/QGEQnEDAx4jB8VtmQEdIUUDw5ajB8boCQEMVWEDIXJjBr5c0QNPXYkBtD4zB0uqHQM79SkAT
uJTBFUOQQCupikBMuZrBez+cQOfO+j+YWJfB0F3CQKgmRUAEx6XBazS0QNkn2UD4PKXBicbCQKtl
rEBQuLTBRU7JQLHF9kBSa7bBPJ+tQI9diUA3VKPBF922QDEGsEBFzanBkfy4QGuR8j+DF6DBkwy9
QIz5/EDUp6vBmFzbQLB77z4txq7BCfapQN6bk7+P06rBycfyQB0sVL7TepDBjYUEQWoQgb86apnB
1WT3QGKhyj7jupvBTUbPQK4EEz/n7qLBV727QOK+FEHh5KbBMenEQIBhhb9u+b3BAMbLQPcrz0D2
w7rBiCvBQMomBb/8/rLBgJewQPCTCr81qqHB5nmPQO6REMCjEKzBnY/3QPmjiT8xk7PBW7RjQBZ8
TUCVE47BJTaAQEI9qEDRwZjB2eWVQNBniT+8qpLBNdvZQDyfQ0CtHKzBaICrQAYW3UA+75zBi7bE
QG8CjUCsTbjBauPQQH0iCUE6TLvBwB/TQFTTBL96jI3BldICQfzJSj5+y4nBEOgVQYF4lr+RHJnB
t0r5QGs78r+N3ZzBF9EHQZ0CmD+1f5zBL1nbQMnFGEEYlqPBRj6zQBVcIEHUJ63B+6mjQMNIFUHh
eqDB3W6sQAZU6L/eS7/B/jXAQOX5Yr64t8PBcOTkQKlRvb9XHL/BB7miQH3gS78GwJrBcQmAQHjC
KMBhvqXB59uLQDtMK8AKR7PB

> <OMEGA_E>
uopiP+x9Yj9Gr2E//rlgP549YT/AXWE/bUymPw==

> <OMEGA_NBR>
     65427

$$$$
50215905
  -OEChem-04172616093D

 50 53  0     1  0  0  0  0  0999 V2000
    6.8085    5.3680  -23.9441 C   0  0  0  0  0  0  0  0  0  0  0  0
    7.7516    4.5117  -23.3443 C   0  0  0  0  0  0  0  0  0  0  0  0
    5.4779    5.3783  -23.4861 C   0  0  0  0  0  0  0  0  0  0  0  0
    5.0379   -0.8141  -21.9657 C   0  0  0  0  0  0  0  0  0  0  0  0
    6.2611   -1.4377  -21.6604 C   0  0  0  0  0  0  0  0  0  0  0  0
    8.6892   -2.6958  -20.4173 C   0  0  0  0  0  0  0  0  0  0  0  0
    9.7895   -0.5469  -20.7703 C   0  0  0  0  0  0  0  0  0  0  0  0
    7.3663    3.6682  -22.2833 C   0  0  0  0  0  0  0  0  0  0  0  0
    5.0881    4.5373  -22.4269 C   0  0  0  0  0  0  0  0  0  0  0  0
    4.8358    0.5426  -21.6493 C   0  0  0  0  0  0  0  0  0  0  0  0
    9.9340   -3.2773  -20.1130 C   0  0  0  0  0  0  0  0  0  0  0  0
   11.0300   -1.1266  -20.4651 C   0  0  0  0  0  0  0  0  0  0  0  0
    7.0856    0.6570  -20.7295 C   0  0  0  0  0  0  0  0  0  0  0  0
    8.6069   -1.3237  -20.7466 C   0  0  0  0  0  0  0  0  0  0  0  0
    7.3001   -0.6982  -21.0516 C   0  0  0  0  0  0  0  0  0  0  0  0
    6.0300    3.6732  -21.8073 C   0  0  0  0  0  0  0  0  0  0  0  0
    5.8486    1.2855  -20.9929 C   0  0  0  0  0  0  0  0  0  0  0  0
   11.1140   -2.5032  -20.1329 C   0  0  0  0  0  0  0  0  0  0  0  0
    6.3390    3.1850  -19.3361 C   0  0  0  0  0  0  0  0  0  0  0  0
    4.0778    3.4083  -19.0399 C   0  0  0  0  0  0  0  0  0  0  0  0
    5.6231    2.7653  -20.6301 C   0  0  1  0  0  0  0  0  0  0  0  0
    5.5739    4.0483  -17.0911 C   0  0  0  0  0  0  0  0  0  0  0  0
   13.5154   -2.3356  -19.8536 C   0  0  0  0  0  0  0  0  0  0  0  0
    5.3345    3.4595  -18.4196 N   0  0  0  0  0  0  0  0  0  0  0  0
    4.2008    2.9495  -20.2641 N   0  3  0  0  0  0  0  0  0  0  0  0
    2.8638    3.7594  -18.4619 N   0  0  0  0  0  0  0  0  0  0  0  0
    7.5431    3.3051  -19.1315 O   0  0  0  0  0  0  0  0  0  0  0  0
   12.3096   -3.1399  -19.8257 O   0  0  0  0  0  0  0  0  0  0  0  0
    7.1060    6.0164  -24.7550 H   0  0  0  0  0  0  0  0  0  0  0  0
    8.7721    4.5014  -23.6979 H   0  0  0  0  0  0  0  0  0  0  0  0
    4.7541    6.0330  -23.9485 H   0  0  0  0  0  0  0  0  0  0  0  0
    4.2510   -1.3781  -22.4446 H   0  0  0  0  0  0  0  0  0  0  0  0
    6.4065   -2.4826  -21.8915 H   0  0  0  0  0  0  0  0  0  0  0  0
    7.7941   -3.2997  -20.3991 H   0  0  0  0  0  0  0  0  0  0  0  0
    9.7366    0.5011  -21.0256 H   0  0  0  0  0  0  0  0  0  0  0  0
    8.0942    3.0124  -21.8289 H   0  0  0  0  0  0  0  0  0  0  0  0
    4.0645    4.5491  -22.0825 H   0  0  0  0  0  0  0  0  0  0  0  0
    3.9026    1.0206  -21.9084 H   0  0  0  0  0  0  0  0  0  0  0  0
    9.9870   -4.3263  -19.8617 H   0  0  0  0  0  0  0  0  0  0  0  0
   11.9249   -0.5222  -20.4830 H   0  0  0  0  0  0  0  0  0  0  0  0
    7.8821    1.2255  -20.2727 H   0  0  0  0  0  0  0  0  0  0  0  0
    4.6161    4.1639  -16.5627 H   0  0  0  0  0  0  0  0  0  0  0  0
    6.2351    3.3877  -16.5111 H   0  0  0  0  0  0  0  0  0  0  0  0
    6.0497    5.0333  -17.2070 H   0  0  0  0  0  0  0  0  0  0  0  0
   14.3809   -2.9622  -19.5924 H   0  0  0  0  0  0  0  0  0  0  0  0
   13.6552   -1.9194  -20.8622 H   0  0  0  0  0  0  0  0  0  0  0  0
   13.4251   -1.5143  -19.1274 H   0  0  0  0  0  0  0  0  0  0  0  0
    3.4318    2.7500  -20.8714 H   0  0  0  0  0  0  0  0  0  0  0  0
    2.0162    3.6682  -18.9847 H   0  0  0  0  0  0  0  0  0  0  0  0
    2.8378    4.1032  -17.5233 H   0  0  0  0  0  0  0  0  0  0  0  0
  1  2  1  0  0  0  0
  1  3  2  0  0  0  0
  2  8  2  0  0  0  0
  3  9  1  0  0  0  0
  4  5  1  0  0  0  0
  4 10  2  0  0  0  0
  5 15  2  0  0  0  0
  6 11  2  0  0  0  0
  6 14  1  0  0  0  0
  7 12  1  0  0  0  0
  7 14  2  0  0  0  0
  8 16  1  0  0  0  0
  9 16  2  0  0  0  0
 10 17  1  0  0  0  0
 11 18  1  0  0  0  0
 12 18  2  0  0  0  0
 13 15  1  0  0  0  0
 13 17  2  0  0  0  0
 14 15  1  0  0  0  0
 16 21  1  0  0  0  0
 17 21  1  0  0  0  0
 18 28  1  0  0  0  0
 19 21  1  0  0  0  0
 19 24  1  0  0  0  0
 19 27  2  0  0  0  0
 20 24  1  0  0  0  0
 20 25  2  0  0  0  0
 20 26  1  0  0  0  0
 21 25  1  0  0  0  0
 22 24  1  0  0  0  0
 23 28  1  0  0  0  0
  1 29  1  0  0  0  0
  2 30  1  0  0  0  0
  3 31  1  0  0  0  0
  4 32  1  0  0  0  0
  5 33  1  0  0  0  0
  6 34  1  0  0  0  0
  7 35  1  0  0  0  0
  8 36  1  0  0  0  0
  9 37  1  0  0  0  0
 10 38  1  0  0  0  0
 11 39  1  0  0  0  0
 12 40  1  0  0  0  0
 13 41  1  0  0  0  0
 22 42  1  0  0  0  0
 22 43  1  0  0  0  0
 22 44  1  0  0  0  0
 23 45  1  0  0  0  0
 23 46  1  0  0  0  0
 23 47  1  0  0  0  0
 25 48  1  0  0  0  0
 26 49  1  0  0  0  0
 26 50  1  0  0  0  0
M  CHG  1  25   1
M  END
> <OMEGA_C>
Y9/ZQKPGq0Cdjb/Bcw34QPhfkEAhwbrB2UqvQLQarECf47vBJjahQB5pUL/Zua/BIVvIQG4GuL+H
SK3BEwcLQeqHLMCLVqPByqEcQdUDDL+TKabBgLjrQALDakA8RLLBVtGiQIQxkUBIarPBfb6aQGfn
Cj+5Ma3B0PEeQaG/UcBX56DB43owQS80kL9zuKPBAr3iQD4vKD8H1qXBy7UJQQZvqb8M+aXBh5rp
QNG+Mr+kaajBlvXAQHAVa0BGda7Biye7QC6LpD978afB+9IxQec0IMA6EKHBGNnKQHjXS0BosJrB
vn2CQNAgWkCrUZjBdPCzQFv7MECMCqXBb12yQN6LgUCKuojBIT9YQft5FcAf1J7BoLSqQMJoXUBQ
W5PBPm2GQCrEPEDKHKLBrkg3QHmZcEAFspPBwmDxQJeGU0BCDZnB/vNEQSD0SMACm57BiWTjQPeF
wEBMCsbBW1oMQYcLkEBUlb3BTSGYQEwOwUCYlr/BjAiIQPZjsL+BjrPBtwHNQF7jHsDGIa/B7mj5
QN4uU8BXMaPBJckbQUhKAD9ZNKjBCIIBQefLQECToa7BixCCQDmSkUDfqLDB8MN5QHShgj9vRK/B
nsofQWdxisCu5J7BVcw+QY2wBb803aPBLjr8QLfdnD9vLqLB4LaTQL4+hUBkgITB0IXHQN7PWECy
FoTBfJfBQJ4QoUD/p4nBPBhmQVmVPcBWvZzBn3taQZmv9b+/5abBLM1WQVvVwb/SBJnBaKNbQKn/
L0Cf+KbB8wkBQKLDakCr4JfBJp41QHFNg0CgL4zBxHTaQAJsq0ACkr/BJE74QP2Bj0DO0brBm/Sv
QKB9rEDP17vBGCKsQBRsHb83fbPBLIfHQBWptb+PSa3BCYgIQealMMA+WqLBVRgAQSYSs79ntpLB
JrHrQHplaUD8UrLByj6jQKDfkUB1VbPBPxmmQGupPT++1rDBHKcWQWrPYcC0JZzBD0wOQZOOCsDN
g4zBir7WQItx+D5aw6HB/Dr6QD0/2L8At53BsALdQHemXr/YWKTBhhLBQMJ8a0Dbc67B4nq7QKsE
pz/07qfBRKoZQbckT8BXIpHBWA7LQJoMT0Cb0JrBYH6CQGSnW0AKcJjBXhq0QGzcMUBzB6XBVT2y
QHVYgEDSnIjBWJkyQUtwosA/VI/BKQCrQN1TaUAj4pPB+pGGQL3HO0BgH6LBSdM2QJnbbUAlpJPB
GrfxQIERUkC4GpnBhlMnQdRmfcCOjorBUyvkQGQBwEB2EsbB1XEMQUqnjkDysL3BuA2ZQJ3IwUCE
hb/BibSbQFrmhL9eS7rBtyjMQMRLHcBYW6/BGGQGQUVbP8D9uarBXcvuQI+LFb/FEo/Bx1IBQXNr
PkAGva7Bh5uCQPHckkDWgLDBjguRQJ5ArT9toLXBm0gfQcQXi8CLxp/BW4QQQc4l979VJ4TBchbn
QFP1Zz9o75rBpqmTQLmOiUA06YTBr8i/QHOYSUBnToTB+7DIQNxnm0CGM4jB28g8QfDJscDEQ4nB
VPMmQeTPucADZJLBg548QaDZlsBP9ZXBUyFcQIZNLEDE46bBdUwAQLq9YkCzl5fBEh41QCcJg0Ar
PYzB4a/YQBoUrEDHzr/BbDn3QP9ZkUCu6LrBQyiuQLhprECuFrzBrzq/QAyTAL8mBLXBlfXJQIPp
s7/n0azBaQTMQCa2T8B82JnBLQPvQHU6tb9HV5DBY0PrQMIGbkDARbLB7AiiQIUckkDnd7PBfRi4
QCraWj8Wn7LB/lnWQOu/g8CqZZHBkkj5QKA7EsDz6ofBjX/FQFrAzT4Mx5/BsDPYQNJo8b8fXZnB
MhnNQBy8dL/5H6LBNYrAQL1RbkAUc67BAmS8QE7oqT/x+afBL/vsQOWNacDzXojBfQbLQBObT0AI
9prBT32CQNIQXUDLi5jB2eKzQLscM0C3JqXBM3SyQIHNgUBO04jBPL4GQYRCgsBTMm7B7RyrQDnY
a0DqFJTBeGeGQHG7O0CRKqLBz+02QJ4Tb0B5s5PBLoXxQAsSTEAkEZnBJDH2QDX/kcD4UoDBqeTh
QPRTwECTa8bBZ+kLQYIOkUDfxr3BkceWQLbowECb3L/BHHW8QDvFWb8yKr3Bt87PQPZmHMCisq7B
s7u6QP5vZ8DxtqDB8pf4QLdCwr6V74/BqWMBQdoiRUAiia7BEVqBQPhykkA5qbDBGk2vQIorxT/u
7LjBUODMQBfxpMCf0pHBVFAFQZb89L8aD4HBFavGQHkTPT/KkpfBDQuUQHHWi0AaLIXBWEu/QIgu
TEBec4TBtYTJQK9ZnEBXcojB7UYJQdqXnMC5y2LBcFEWQRUVa8ARXnPBmvL6QKlhUcDSbGbBLbVb
QAWOKkCk06bB+0AAQNmpYkAaj5fBLng1QMQ4hEDLW4zBB1nZQBC1pkD88MDBVeGuQOqRmEDExr/B
d/H3QDzvnEBdELnBgW26QCyM7L5u+7TBRpLKQJqIqb9xHK3B/2cAQdGnH8DKuJrBU/TDQHyz078K
aJDBCayiQGC0gUB2mbbBOjDsQIjdhEB/CrDB6f2xQO6EYj+ac7LBOScHQZ2MTsBWw5HBjm/RQBBG
GMDmeIfB7OnHQAR3/T7cJKDBzNbbQEo62r/f85nBs6fPQGBwV79uoqLBiBjBQM/jb0Dpja7BFx+7
QEY2sj9lFKjBrhr3QIvUSsAKEIjB1CPLQCJUUUDPt5rByaeCQBv0WEBpUZjB4Ey0QMTmNkCuIaXB
VZyxQJC5gEDsk4jBkdvyQBexa8DHTmrBR8SqQK+YXkARXZPBhPiGQIW8QUDLWaLBOTc3QAlZaECZ
bJPBzW7xQLbyTUADkpjBoFoDQVfEecCF+n7BeHjiQLgWuUC05MfBvaKXQK9Nn0DT8cXBM0EMQdLx
p0Cz87nBwXm0QNltVL/f97zBLvXSQEb2FcAsEq/BH1QJQX9vIsDiHKLB6D+nQDT/hr+z/o/Ba96B
QPP4bkCaqrXBjg4CQStKeEAiM6rBRnekQA3WxD8bcrjBTlUVQVXVdcDyR5LBCT+/QHC2FcD8IYDB
EdfLQC3gVj+MA5jBcsiSQB7KgkCPXITBUF3HQJ4wV0A9HITB2dG/QErWoEAGMInBXCEBQUZjisCc
RF7BiKP2QMItKMABsWXBYZrQQJlse8C6R2vBy0ldQIakOEAgbKfB/OsAQG/pYUArlZfBIio1QP3j
eUAivIvBWlvYQCC+rEBCaL/BBjHdQEc3gEAtmMDBVjXIQD6mvUClx7XB8JWgQMLtVb/pX6/B3xvI
QFF8ub/8L63BgaQKQQxkLcCnaqPB+dMcQbsMFL8DMabBtuXRQLwESUDVK7jBNdy8QJkWokCKVa3B
e+qZQE2MAz+erazBgU0eQZM0VMBQ/6DBKocwQdjVl78lwaPBJ8riQAx4JT+u1KXB2LAJQYU9q78C
DKbBS53pQNLvNL9mb6jB+o7BQGxoakA6Z67B3bW6QCVioT9unafBcX8xQdCtI8DDJ6HBwAjLQE9m
SkCArprBIaCCQO5nWUBtZ5jBBz60QOwfMEBLC6XB9mWyQBiRgEAqt4jB1kJGQVdnkMCKV5zBA8uq
QAfWW0DIXpPBcNiGQCvyP0CkYaLBFm03QIRWbkCWsZPBzZPxQB/zUkDcI5nBznFFQUxXRsDO4J7B
HAjhQGruwUAV4cXBFJfpQDmLZkBJ+8fB+oTEQMTR30Ao37TB7EmHQGtys79BIrPBLubMQKpiH8Bo
JK/BaEb4QPnvUsDZQ6PBB0kcQQi18T6OLqjBqqnVQOW9BEDxIbnBXXawQElIr0CA+aXBNUZ3QGLI
ez/Sea7B4tQeQV62i8CpAJ/BDwY/QQo5Gb/O36PBZZr8QMSjnD87aqLBVbeTQIhFhEDFgITBRnXH
QH6XVkC9FYTBdbbBQPEPoEDRmYnB6+hWQajLmcA8uJrBiGQ8QdbDlsAnO5XBOhhAQR/8osCBJqPB
4w1dQGJNOEAlfqfBPFcBQMZ0akBz8ZfBlIY1QJCjgEBEDozBqGvWQGslq0CiM8DB9Y2sQD4Dm0Do
M7/BntL1QHbXn0A6pbjBhzmhQDgwT7/NRK/BS9TIQBRytb9dFa3BHUQLQcrFKcB4X6PBtlodQSij
Br+VeqbBTNGhQPJNgEAPiLbBu0rrQGTrhEA6ArDBirSaQBxcDD9PzKzBLPweQTokUMAP8qDB0Rgx
QXwskL+NBqTBngXkQJBUND/OVabBPjwKQUiqpL/nL6bBU6HqQGj7KL9Jn6jBcsTAQPLea0DXoq7B
HMS7QGLcpz9x/afBPCcyQf59H8DIRKHB/CHLQMxtTUA4n5rBqsSCQGI3XUCndJjBQou0QNqIMkDg
FaXB0jKyQHligUCEoYjB2xtHQcf2jcCqY5zBgiSrQLbJakAm5JPBMPmGQLHzP0AFQKLBjUQ3QG+J
bUBJlpPBn1zxQOQmTUBPYZjBMSlGQfCkQcDoAZ/B423eQJ0swEBtwsbB2p6UQMEgo0CYGMXBCwgL
QXbXq0AuebnB376HQKpTsb8Y2rLBxnTNQALOHcC50K7BUo/5QMBiT8AhFqPBoMIcQUw9BT+/mKjB
osaBQFs6Z0Cw4rXBY+QBQfgqd0CkYKrBaKJ4QJOQgT9Yk67BVpMfQfOLicCj0Z7BW5E/QRlrCb80
QaTBqzL+QJzhpT+cQ6PBVMuTQPLyi0CfEYXB/m++QGojS0ClMITBJ6XJQLKWm0BjOYjBhctXQXgm
l8AvyprB7FI9QX40lMA2PpXB2OtAQWTOoMDgJaPBEvNcQAAvNECcLqfBANEAQLD+YkA+lJfBCmU1
QGrpgUBoF4zBjhfbQDDapUBOxcDBUyf6QCo9lkAroLnBcHWvQCZ/nUBG8r7BoXa5QJRL4r7PHrXB
kQXJQHYEqb95R63BVZD/QOyGIcC3HpvBFrDDQByH1b85h5DBtJvtQC27fEC9o7DBQLKiQCqBhkCh
1bXBSL6xQC4jaD9xg7LBiq4GQRAdUcBRP5LBHXLRQAHzGcBTr4fBJV7HQKj5+T7pM6DBgOzaQPxg
3L/lK5rBDoTOQDBTWb9txqLBJaTBQDrcbkCjdq7BYt66QGt3sj/OFqjBi8f2QBpVTcCwdIjBxQzL
QLg4UUCds5rBh5KCQPTKV0B2QJjBfjC0QBCMNkBTFKXBO36xQIZkf0AveojBCBbzQPy5b8ANKmvB
V7WqQCgjXUAyS5PBO96GQDK8QECVSaLBhQI3QBZ7Z0B0YpPBrYbxQKScUUDQu5jBr04DQZgDfcBx
8n/Bu7/kQA5JuEA9q8fBEdINQWmbnECcDLvBf72XQN3HqEDHj8TBn2yzQF+UTL8bIr3BJKnQQJz7
FcDESK/B83UIQYFhJMAqlaLBuEOnQKxkh7/i+I/B58sCQfVvYkC2W6vBQiiBQJ9LgEBxcbTBNcyk
QJKSyT9Ae7jBBb0UQfn4eMDw5pLB7Le/QOBZF8B0RoDBBofLQEUsUz82D5jBMrWSQL80gUAiOoTB
gJfHQOxjVUACFITBZkW/QDsDoEBWB4nBKlIBQXurjMDXSV/BI/z2QEdqLMAbZGbBes7QQJ9Tf8Ds
C2zBhBNdQF5eN0CsWafBRcoAQLNkYUD6kJfB8dk0QFDjeEDfsIvBrDjWQPIGrED8N8DBBu+rQMBD
nUABBr/B7rz1QMIPoEAZwrjB2nm/QMoU/75nCrXBRy/KQGQcs79D2KzBFffLQFsKT8BCCprBB5zv
QEpRt798W5DBnuSgQP1Gg0DjP7bBOgLrQPp7hUCxFLDBhba4QE1BXD8Uq7LBTi3WQIgOhMA6wpHB
0tT5QPjdFMA8D4jBPADGQDC+0T7xz5/B+43YQMTm8L+2bJnBUIrNQG2Zcr9LKKLBYC3AQGtkb0Bf
i67BWPa8QMYXqz/4BajBxU/tQDV2a8BAqojBSUPLQOucT0Cy3JrBwsqCQEDzXUBflpjBJGq0QHnD
M0CMLaXBTHuyQHw1gkDL0YjBzaHrQJLSvMC79YDBIU6rQKT4bEDTF5TBI96GQNApPUDWO6LBsG43
QKhEb0A1upPBLFrxQJKwSEDln5jBPXr4QM1akMDrOIDBknjeQGGIwEBW3MbBMeqTQL3kpUBm2cTB
YBoLQXlLq0DXsbnBcm68QB1lWb8ULb3BSd3PQF8VHMCmta7BKV66QPeCZcDc7KDBXGD5QPr8y76k
0I/BQ2OAQO8kcEDxX7XBZckBQZD5dkCAiqrBwziwQDXyxT+H/rjBSGDMQCMgpcBZTpLBzLIFQSmv
/L8JLIHBDSfHQDcMPz+Vm5fBSiSUQE3QjEAQO4XBiaS+QCKBTEC9a4TBEwjKQExQnEA6Y4jBhXf2
QFUczsDsk3PBE5DIQIXFvsBQioHBLhz6QA5Xy8DsHIjBqbVcQOvELEBC86bBitMAQDm/YkBZmJfB
UtU1QEEfhEBKXYzBNI/WQHVbrEAPR8DB4Uy0QENxj0ChG8HB2aXtQK5Rr0AaqrbBHyqqQGb5ML/1
v7LBqTbIQJznub9oCa3BgR4KQbziLsBcZ6LB648BQe1tqb8CDJPBIgypQEZLa0ApU7jBDzvjQKjF
lEAy963BljSjQHuBKD8nFLDBWnAYQbTyXcBHBJzBot8PQQ93A8DCsYzBG8vZQHTyAT9oWaLBC0r9
QLo1079y+J3BsHnfQMLiW78fnKTBiebAQMz2bUDKp67BfMK7QBi7pT8Z/KfB34AbQYjKSMAQJZHB
y1XLQKp5TUAqpprBMvSCQEyJXEBAjpjB59W0QAayMkC3JqXBw0GyQKzZgECaoojBD+4sQbxZY8AP
J4DBZUSrQHAJakAx6pPBWUiHQGinP0CPZqLBGrk3QHnTbEBlp5PBUbXxQHKmTUBsgpjBIeIpQQ/O
ecBgTYvB4x7fQE1AwEC0AsfBY5OiQH4DjUAOgMjBI8ADQZoTxkD087XBAViYQBtHkr8uNrnBkoDN
QB5DH8D0Fa/BsOYHQSvGP8BJtarBDF7xQBU4Ab9RlI/B0NWNQNX4QEBA8bjBNon1QNYEl0CeqKbB
cNGKQMP9mz9BP7TBaS0hQVpnicBud5/BPg0SQZJK5b+YYoTBpd3sQJx5dz+AJpzBsseTQDwdi0CW
DoXBHLe+QPwVSkC2OoTBKYHJQDc5m0ADM4jBLag4QSiKh8BGC3nBiNgyQWMzIcAVLX/BYpgdQW62
aMCwxXfBbcpdQE0ANEALX6fBLi8BQOOgYkAopJfBbQU2QOVegUD6I4zB

> <OMEGA_E>
vP4/P7gvQD/8G0E/aDU9PxioSj9kXj0/7M89P1A8Pj845D4/

> <OMEGA_NBR>
     73364

$$$$
50158057
  -OEChem-04172616093D

 57 60  0     1  0  0  0  0  0999 V2000
    6.5830    4.3922  -24.1766 C   0  0  0  0  0  0  0  0  0  0  0  0
    8.0220   11.6073  -20.4138 C   0  0  0  0  0  0  0  0  0  0  0  0
    6.2641    3.4310  -23.2005 C   0  0  0  0  0  0  0  0  0  0  0  0
    6.7687    5.7369  -23.8084 C   0  0  0  0  0  0  0  0  0  0  0  0
    8.1395   10.1629  -20.1213 C   0  0  0  0  0  0  0  0  0  0  0  0
    6.2085    5.1760  -21.5110 C   0  0  0  0  0  0  0  0  0  0  0  0
    6.9583   11.7778  -21.2704 C   0  0  0  0  0  0  0  0  0  0  0  0
    6.0960    3.8127  -21.8426 C   0  0  0  0  0  0  0  0  0  0  0  0
    6.6028    6.1352  -22.4656 C   0  0  0  0  0  0  0  0  0  0  0  0
    7.1495    9.5148  -20.8237 C   0  0  0  0  0  0  0  0  0  0  0  0
    6.4105    3.2275  -19.4046 C   0  0  0  0  0  0  0  0  0  0  0  0
    4.1333    3.3006  -19.1283 C   0  0  0  0  0  0  0  0  0  0  0  0
    6.9115    8.0762  -20.8775 C   0  0  0  0  0  0  0  0  0  0  0  0
    5.6305   -1.6376  -21.1243 C   0  0  0  0  0  0  0  0  0  0  0  0
    6.7788   -1.0032  -20.3182 C   0  0  0  0  0  0  0  0  0  0  0  0
    5.2576   -0.7655  -22.3388 C   0  0  0  0  0  0  0  0  0  0  0  0
    6.4296    0.4289  -19.8779 C   0  0  0  0  0  0  0  0  0  0  0  0
    4.8862    0.6524  -21.8817 C   0  0  0  0  0  0  0  0  0  0  0  0
    6.0716    1.3195  -21.1069 C   0  0  0  0  0  0  0  0  0  0  0  0
    5.7317    2.8157  -20.7206 C   0  0  2  0  0  0  0  0  0  0  0  0
    5.2773   10.2521  -22.3513 C   0  0  0  0  0  0  0  0  0  0  0  0
    5.5631    3.8801  -17.1114 C   0  0  0  0  0  0  0  0  0  0  0  0
    6.4548   10.5120  -21.4795 N   0  0  0  0  0  0  0  0  0  0  0  0
    5.3795    3.3797  -18.4842 N   0  0  0  0  0  0  0  0  0  0  0  0
    4.2989    2.9824  -20.3942 N   0  3  0  0  0  0  0  0  0  0  0  0
    2.8940    3.5129  -18.5344 N   0  0  0  0  0  0  0  0  0  0  0  0
    6.8098    7.4835  -22.1448 N   0  0  0  0  0  0  0  0  0  0  0  0
    7.6117    3.3784  -19.2032 O   0  0  0  0  0  0  0  0  0  0  0  0
    6.8587    7.4624  -19.8178 O   0  0  0  0  0  0  0  0  0  0  0  0
    6.6854    4.0972  -25.2105 H   0  0  0  0  0  0  0  0  0  0  0  0
    8.6574   12.3892  -20.0247 H   0  0  0  0  0  0  0  0  0  0  0  0
    6.1462    2.3959  -23.4853 H   0  0  0  0  0  0  0  0  0  0  0  0
    7.0395    6.4671  -24.5566 H   0  0  0  0  0  0  0  0  0  0  0  0
    8.8698    9.7004  -19.4739 H   0  0  0  0  0  0  0  0  0  0  0  0
    5.9879    5.4942  -20.5028 H   0  0  0  0  0  0  0  0  0  0  0  0
    6.5958   12.7050  -21.6891 H   0  0  0  0  0  0  0  0  0  0  0  0
    5.9455   -2.6304  -21.4780 H   0  0  0  0  0  0  0  0  0  0  0  0
    4.7499   -1.7426  -20.4735 H   0  0  0  0  0  0  0  0  0  0  0  0
    6.9704   -1.6159  -19.4249 H   0  0  0  0  0  0  0  0  0  0  0  0
    7.6829   -0.9750  -20.9442 H   0  0  0  0  0  0  0  0  0  0  0  0
    6.1158   -0.7126  -23.0249 H   0  0  0  0  0  0  0  0  0  0  0  0
    4.3994   -1.2157  -22.8592 H   0  0  0  0  0  0  0  0  0  0  0  0
    5.5680    0.3953  -19.1949 H   0  0  0  0  0  0  0  0  0  0  0  0
    7.2940    0.8659  -19.3565 H   0  0  0  0  0  0  0  0  0  0  0  0
    4.6439    1.2631  -22.7639 H   0  0  0  0  0  0  0  0  0  0  0  0
    4.0087    0.5991  -21.2204 H   0  0  0  0  0  0  0  0  0  0  0  0
    6.9439    1.3380  -21.7767 H   0  0  0  0  0  0  0  0  0  0  0  0
    5.0614    9.1736  -22.3649 H   0  0  0  0  0  0  0  0  0  0  0  0
    4.4046   10.7956  -21.9601 H   0  0  0  0  0  0  0  0  0  0  0  0
    5.4950   10.5953  -23.3734 H   0  0  0  0  0  0  0  0  0  0  0  0
    4.5916    3.9028  -16.5959 H   0  0  0  0  0  0  0  0  0  0  0  0
    6.2510    3.2157  -16.5680 H   0  0  0  0  0  0  0  0  0  0  0  0
    5.9841    4.8958  -17.1448 H   0  0  0  0  0  0  0  0  0  0  0  0
    3.5530    2.8682  -21.0503 H   0  0  0  0  0  0  0  0  0  0  0  0
    2.0582    3.4259  -19.0766 H   0  0  0  0  0  0  0  0  0  0  0  0
    2.8385    3.7527  -17.5652 H   0  0  0  0  0  0  0  0  0  0  0  0
    6.8967    8.1058  -22.9227 H   0  0  0  0  0  0  0  0  0  0  0  0
  1  3  1  0  0  0  0
  1  4  2  0  0  0  0
  2  5  1  0  0  0  0
  2  7  2  0  0  0  0
  3  8  2  0  0  0  0
  4  9  1  0  0  0  0
  5 10  2  0  0  0  0
  6  8  1  0  0  0  0
  6  9  2  0  0  0  0
  7 23  1  0  0  0  0
  8 20  1  0  0  0  0
  9 27  1  0  0  0  0
 10 13  1  0  0  0  0
 10 23  1  0  0  0  0
 11 20  1  0  0  0  0
 11 24  1  0  0  0  0
 11 28  2  0  0  0  0
 12 24  1  0  0  0  0
 12 25  2  0  0  0  0
 12 26  1  0  0  0  0
 13 27  1  0  0  0  0
 13 29  2  0  0  0  0
 14 15  1  0  0  0  0
 14 16  1  0  0  0  0
 15 17  1  0  0  0  0
 16 18  1  0  0  0  0
 17 19  1  0  0  0  0
 18 19  1  0  0  0  0
 19 20  1  0  0  0  0
 20 25  1  0  0  0  0
 21 23  1  0  0  0  0
 22 24  1  0  0  0  0
  1 30  1  0  0  0  0
  2 31  1  0  0  0  0
  3 32  1  0  0  0  0
  4 33  1  0  0  0  0
  5 34  1  0  0  0  0
  6 35  1  0  0  0  0
  7 36  1  0  0  0  0
 14 37  1  0  0  0  0
 14 38  1  0  0  0  0
 15 39  1  0  0  0  0
 15 40  1  0  0  0  0
 16 41  1  0  0  0  0
 16 42  1  0  0  0  0
 17 43  1  0  0  0  0
 17 44  1  0  0  0  0
 18 45  1  0  0  0  0
 18 46  1  0  0  0  0
 19 47  1  0  0  0  0
 21 48  1  0  0  0  0
 21 49  1  0  0  0  0
 21 50  1  0  0  0  0
 22 51  1  0  0  0  0
 22 52  1  0  0  0  0
 22 53  1  0  0  0  0
 25 54  1  0  0  0  0
 26 55  1  0  0  0  0
 26 56  1  0  0  0  0
 27 57  1  0  0  0  0
M  CHG  1  25   1
M  END
> <OMEGA_C>
/afSQKOMjEC+acHBDFoAQYe3OUF1T6PBKXPIQPuUW0CZmrnBiZnYQGiUt0CFd77BlDsCQTqbIkFf
+KDBHKzGQOyhpUCbFqzBnareQOJxPEHKKarBKxLDQNUDdECava7BG0rTQIdTxECdubPBe8jkQKM8
GEHllqbBuCLNQKaOTkC3PJvBY0SEQAY9U0DUBpnBDSvdQB84AUEfBafB6iy0QJyc0b+Q/qjBCuzY
QH1qgL+4i6LBkD6oQDD4Q7/1tbLB9b7NQOyY2z73BZ/BjFucQFEEJz+qDa/BqErCQKjkqD/j2qjB
82m3QO00NEDIw6XBP9+oQLEIJEFez7LBlgSyQM9TeEAo5IjB343OQFUxKEEI1qvB0iSsQBlNWECW
35PB9JCJQCPgPkBNJ6PBjTY5QPfTYECKRpTBRurZQJR470CMKLHBFJPzQDI4WEAzoJnBj3rbQNvL
7kDyip7BJu/VQF4cg0Ahr8nBpYQKQf45RkGkMqDBh63EQAtWGUDM4bvBLkPhQIbyzkDsc8TB5+oN
Qbc0G0GAypvBgZy/QGfQr0DNBaTBFBHTQK9HS0FGg63BMEG+QJFYKMD30qvBIP+XQJoM37+5yaPB
VA3fQGfVzr8/ZpvB+dn1QGubeb/RjafB9LTDQAlsNr8GM7jB/MeMQB+bm7+137bB7yyyQBdgyj4U
j5nBQmjpQGuqXT8w2prBiJqUQLmtoT93HLbBiUeAQGJcGT9uw6nB1DTeQBlFqz+4Nq7BTPehQAPH
EkFX67LBGPKMQOK6LEFKrq/BPNevQHCGKUG7/LrBc+6SQJTHeUBcxITB2AfIQH3NTUA7i4TB9X2/
QEyqnEB0KInBCWRjQDiQN0AFZ6jB17kDQJ9BW0DvnJjBO6k1QPwrcECFhYzBmLHcQHCxAUG0YbfB
JsHOQFOLi0BJvsHBXlH9QEynOkF74KrBPLbFQG6tW0Cln7nBdsTWQHZztkDmJ7/Byun9QAiPJUFz
PbDBYfLLQDhGpkCNPqzB+pr5QE4iN0FtDaDB+BDEQBA/dUCntq7BP4TWQOG6w0BfarTB4ur7QNIK
FkH0bKjBWRrNQIMlT0AxJ5vBsjSEQOuiUkAC/pjBw7D5QDOk/UAbEqrBxvWzQG9o0b9h+KjBqRrZ
QOazf7+1rKLBoQinQEP7Qb9OkbLBBTzOQLHs3j5jFJ/ByUObQJLLJz9mvK7B2OjBQGlGqj/F1KjB
uK63QLKxNUDOtaXBHlHyQMOZFkF5XpTBbamxQHyUdUBzuojBWnr4QBMwIUFJ6Z7BFv+rQIVyV0CA
zJPBdMmJQIIcQUA6MaPBgdc4QOEwXkCNN5TBkGDfQH+Y7kAYPbLBwYrzQMzdV0A6d5nB8IQHQbOj
5UCAa6TBjonPQPRRgUCH/snBiWv/QIsNSkHewq7Bruu/QM2UGUAHsrvBQSXdQDdYzUDGbcXB/pv/
QFXPIkFtwrjBUtnJQAQSsUCyDaTBm+73QEoCQ0EvypnB9Qa+QIjtJ8A96avBuT6YQIxG4L8QoKPB
ar3fQHpVzr8xj5vBu631QCNKeL/wzqfBM/zBQOv0Mb+2NLjBPEWLQL+fmr+MmrbBPiezQIBFzT75
dpnBg0PqQOYCXz90DpvBblqSQC5soj81sbXBRex/QHAjFz/PNKnBfjrdQOyzqz81Ya7BLIfyQEYh
BUHDbpXBDTIGQbdDG0HJ747B+HjTQF2UG0HD75DBwIKSQH8qdkCfoYTBEqnHQDpqSkDleYTBMw+/
QNZWm0AxzojBbTpkQD8pPEAZiqjBP4IDQB9JWUC0mJjBwfc0QEdna0CCZ4zB257RQAQ7AkHD9bbB
6UjKQBtbjEA4osHBpC4HQT5zNkETLqnBf4e8QFLZXEAS9rnBcBLZQHHctEAiYr7BPtP5QMTVIkGf
T63BpIjKQO8AokAg4KvBj20PQY/dMUEpPp/BLX6+QPDZcEBg5K7B2R3ZQJ4fwEDQc7PBlc/9QDEv
E0GXnaXBoMXJQIx1QECEl5vBAm2CQBxwWkAku5jBCuntQHpU+kCsZKbB5K7XQKG1wL/8VajBKT/n
QPLTCL/mErHBRIepQC4klr/V2KTBgDDkQLQzaj83IK3B49+lQAkdkT429KDBBDW1QKKwoj8cxKnB
VA6xQMA4MUBZEqbBA1QRQTVjEUHmgZPBfK+0QG7KbUC46YjBrnAKQTK0HEHpap3B8uOqQLpDUkD7
65PBmJCEQO5YRUC076LBOjo6QLhMc0BDhZPBJuTmQAhe6UAUpLDBlaTwQGi8P0AnOJrBB2zpQDLT
5UCOHZ7B4X7JQPQ8hECVB8rB9Q4IQY2tRUGGPa3BQWuwQKtjH0DngLzB3G7kQP5qy0DsR8TB+2zq
QG8TIUHn/rTBw5XIQH8kq0CrjqPBTP4XQSKTPEFe/JnBW5rYQNESIsCce6vBff7sQADPtr/8W6HB
Sl0EQcCoQ7+IErPBBDjTQGp/J78uP7jBtuWTQH/dqL+jsKvB8C6gQFKS7L8CTp7Bmmv5QJuUhT/F
LqbBCVbuQBatyz/ilbPBlkiEQEEIAD/b+Z7B4Mu5QNz10z5HxpnBLJegQKpBkT+k0LDBU6ALQTS+
AEEmvJPBnuUiQbqKEUE3/ZLB24wKQb+GGUGyeozBX6yWQAyid0B4e4TBadrHQHw5PEDZ5oTBg9rG
QO8HlUAnI4nBVOhWQBZBQ0Bj46fBnvwCQKEOdkCti5fBPNE7QFA1gUDdv4vBn2/sQANM/UCavrbB

> <OMEGA_E>
kNdlP4SHZT86N2M/

> <OMEGA_NBR>
     76480

$$$$
50222406
  -OEChem-04172616093D

 42 44  0     1  0  0  0  0  0999 V2000
    6.6088    5.3327  -23.9660 C   0  0  0  0  0  0  0  0  0  0  0  0
    7.6218    4.9532  -23.0673 C   0  0  0  0  0  0  0  0  0  0  0  0
    5.3097    4.8142  -23.8174 C   0  0  0  0  0  0  0  0  0  0  0  0
    7.3309    4.0812  -22.0015 C   0  0  0  0  0  0  0  0  0  0  0  0
    5.0153    3.9375  -22.7560 C   0  0  0  0  0  0  0  0  0  0  0  0
    6.0122    3.5931  -21.8045 C   0  0  0  0  0  0  0  0  0  0  0  0
    6.3412    3.2482  -19.2937 C   0  0  0  0  0  0  0  0  0  0  0  0
    4.0821    3.4670  -19.0389 C   0  0  0  0  0  0  0  0  0  0  0  0
    6.3814   -1.3696  -22.1247 C   0  0  0  0  0  0  0  0  0  0  0  0
    5.0032   -1.0349  -21.5308 C   0  0  0  0  0  0  0  0  0  0  0  0
    7.5026   -0.6552  -21.3484 C   0  0  0  0  0  0  0  0  0  0  0  0
    4.7688    0.4860  -21.5256 C   0  0  0  0  0  0  0  0  0  0  0  0
    7.2696    0.8652  -21.3243 C   0  0  0  0  0  0  0  0  0  0  0  0
    5.8840    1.1976  -20.7074 C   0  0  0  0  0  0  0  0  0  0  0  0
    5.6468    2.7443  -20.5624 C   0  0  2  0  0  0  0  0  0  0  0  0
    5.5278    4.0922  -17.0636 C   0  0  0  0  0  0  0  0  0  0  0  0
    5.3220    3.5172  -18.3975 N   0  0  0  0  0  0  0  0  0  0  0  0
    4.2267    2.9804  -20.2430 N   0  3  0  0  0  0  0  0  0  0  0  0
    2.8605    3.8321  -18.4960 N   0  0  0  0  0  0  0  0  0  0  0  0
    7.5381    3.2458  -19.0268 O   0  0  0  0  0  0  0  0  0  0  0  0
    6.8279    6.0211  -24.7688 H   0  0  0  0  0  0  0  0  0  0  0  0
    8.6251    5.3317  -23.1953 H   0  0  0  0  0  0  0  0  0  0  0  0
    4.5362    5.0892  -24.5192 H   0  0  0  0  0  0  0  0  0  0  0  0
    8.1187    3.7804  -21.3268 H   0  0  0  0  0  0  0  0  0  0  0  0
    4.0223    3.5228  -22.6643 H   0  0  0  0  0  0  0  0  0  0  0  0
    6.5424   -2.4565  -22.0710 H   0  0  0  0  0  0  0  0  0  0  0  0
    6.4087   -1.0464  -23.1758 H   0  0  0  0  0  0  0  0  0  0  0  0
    4.2221   -1.5187  -22.1355 H   0  0  0  0  0  0  0  0  0  0  0  0
    4.9536   -1.4115  -20.4984 H   0  0  0  0  0  0  0  0  0  0  0  0
    7.5230   -1.0330  -20.3156 H   0  0  0  0  0  0  0  0  0  0  0  0
    8.4670   -0.8642  -21.8344 H   0  0  0  0  0  0  0  0  0  0  0  0
    4.7826    0.8594  -22.5602 H   0  0  0  0  0  0  0  0  0  0  0  0
    3.7907    0.7015  -21.0709 H   0  0  0  0  0  0  0  0  0  0  0  0
    8.0570    1.3418  -20.7218 H   0  0  0  0  0  0  0  0  0  0  0  0
    7.3096    1.2532  -22.3528 H   0  0  0  0  0  0  0  0  0  0  0  0
    5.8669    0.7718  -19.6933 H   0  0  0  0  0  0  0  0  0  0  0  0
    4.5572    4.2038  -16.5581 H   0  0  0  0  0  0  0  0  0  0  0  0
    6.1742    3.4262  -16.4731 H   0  0  0  0  0  0  0  0  0  0  0  0
    6.0068    5.0778  -17.1592 H   0  0  0  0  0  0  0  0  0  0  0  0
    3.4699    2.7919  -20.8688 H   0  0  0  0  0  0  0  0  0  0  0  0
    2.0236    3.7284  -19.0334 H   0  0  0  0  0  0  0  0  0  0  0  0
    2.8159    4.1991  -17.5669 H   0  0  0  0  0  0  0  0  0  0  0  0
  1  2  1  0  0  0  0
  1  3  2  0  0  0  0
  2  4  2  0  0  0  0
  3  5  1  0  0  0  0
  4  6  1  0  0  0  0
  5  6  2  0  0  0  0
  6 15  1  0  0  0  0
  7 15  1  0  0  0  0
  7 17  1  0  0  0  0
  7 20  2  0  0  0  0
  8 17  1  0  0  0  0
  8 18  2  0  0  0  0
  8 19  1  0  0  0  0
  9 10  1  0  0  0  0
  9 11  1  0  0  0  0
 10 12  1  0  0  0  0
 11 13  1  0  0  0  0
 12 14  1  0  0  0  0
 13 14  1  0  0  0  0
 14 15  1  0  0  0  0
 15 18  1  0  0  0  0
 16 17  1  0  0  0  0
  1 21  1  0  0  0  0
  2 22  1  0  0  0  0
  3 23  1  0  0  0  0
  4 24  1  0  0  0  0
  5 25  1  0  0  0  0
  9 26  1  0  0  0  0
  9 27  1  0  0  0  0
 10 28  1  0  0  0  0
 10 29  1  0  0  0  0
 11 30  1  0  0  0  0
 11 31  1  0  0  0  0
 12 32  1  0  0  0  0
 12 33  1  0  0  0  0
 13 34  1  0  0  0  0
 13 35  1  0  0  0  0
 14 36  1  0  0  0  0
 16 37  1  0  0  0  0
 16 38  1  0  0  0  0
 16 39  1  0  0  0  0
 18 40  1  0  0  0  0
 19 41  1  0  0  0  0
 19 42  1  0  0  0  0
M  CHG  1  18   1
M  END
> <OMEGA_C>
+HrTQNalqkBhur/BdeXzQMiAnkDmibjB5eipQJcNmkD2ib7BBJfqQJGZgkAhA7DBs32gQKD/e0A8
DLbBuWPAQMD1ZUCIb67BFevKQBLjT0B7WZrBSaCCQMjjXUCcT5jBrDTMQNpPr79e/7DBfBqgQBt3
hL/9PqzBfhXwQLa5J7+XyarBapqYQETR+D5hNKzB7KDoQLF/XT8amKrBk0m8QCxLmT+qqKXBhbK0
QAajL0Dff6TB2OOwQGbzgkA0gojB1U2qQBAaYUAhLpPBQEGHQLy+PkCq8aHB3BI3QIZAdUDk95PB
7jfxQMK6T0DhNpjB0H3aQBatwECPJsbBgQAKQZidqkAQkLnB7CiRQObaokBGJ8TBSOYBQaTxcUBF
narB7LaAQFR2YUB+ULXB8lrRQLY2HcBokbDBSBTNQIPwhb/+Z7nBZBuHQK5kwr+PFbHBF4SeQDGt
tL/P/KPBgLzwQPY5hL9GhqLBAHkHQYs9Xb/trK7B9gqZQA8DXD8we7TBRZpyQESUMz8+kajBaekA
Qf+/qz87xqXBHujpQI9ooD+M0rLB7L27QHyRRT/Ui53B0tSRQLqFhkD7doTBtZLFQOtGW0DlyIPB
aDfAQKl9okALRonBmBJeQCWuMkBg86bBSYIBQM6ebkBzRJjBEjg0QDFfhkAJiYzB/qfSQILusUBq
gr/B1OjzQDYJpUC7pLjBSvKoQPwtokC+8r3B1n3rQDiRiEBLL7DBKEqgQNIJhkAgb7XBNGHBQLbz
ckA+T67BXjvNQPNIUkBAxZrBXm2EQMiCV0BO/JjBmH2zQOLQxL+5VavBuxTOQJ0uh7+yvaHBN+C5
QMKWGb8B8rTB5mTBQHTYvz5dnJ7BTSqtQC63Vj8sDrLBDNTGQKLnrT9ZM6jBv1e4QHO9M0CqIqXB
c7ewQCvYhED/PYnBXcGrQJFCYUBexJPBMmOKQLk+NEBcYaLBiFA5QAajbEAr1JTBO3PzQOP/U0CD
jJjBSiTZQATqx0Dn+cXBRfoJQUoDsUBh3rnBEoePQEC1q0CiS8PBZqoCQYo9fEB/E6vB6z6AQIHN
c0DxTrTB0am9QPdvI8A5jK3BBm+RQMxOxr/IHKnBD3bIQDX+3L836JrB/TbwQE6mib+K4qPB97zb
QHojHr8TWLfBJ+ilQN+Icr9So7vBpbqfQOBpwj5yCpzBLNXVQLp1NT+o9pfBTaezQAoTvz9F8bjB
hMqKQLFsXT8HLLDBo+3oQOkjsj8EXqrBjVGRQEwFh0AtTYXB1XfGQEUGY0CSSoTBGxi+QOQnpUBs
PorBuDBmQBf0HECPB6fBDVMEQHEKYUAHE5nBT/Q0QIy7g0AKlo3BTMLTQD1jsUDmnb/BOPryQLyc
pUCiEbjBlBiqQGiboEBY3L7BZHXoQCmYiUDpqq/BQ3qfQGpnhED/f7bB5kC+QKiMckDloq7BRivK
QGzqQ0BjMZvB6a+CQNA7XEAfr5jBmvfYQBRuub8kB6nB3SzlQLSn876tDLLBLs6rQALokb/806TB
h/7iQG/Sej+DJa7BRVCpQJcenD4nu6DBfsC1QP1gqD+ctKnBwkOyQLz9MkA9tKXBg7yzQLJxeUBp
ConB18mqQBb8VkA9vpPBIWOFQO6jQkAIpaLBgPo5QMBGdkAK05PBS4HwQDoAPUBuSZnBP8PbQHFN
x0Ct/cXBvosJQe4bskCpubjBpDiSQCNkqUB+tcTBMVgAQQJpgEBh86nB+z5/QNM5bkCgELbBmsPZ
QPeaHsDVHqzB7hPwQHiirL9HcKLB8fkCQc88Mr/hurTBh97OQPp7G797xrjB3IqUQLQ3o7/aV6vB
sCekQOYl6r8pPp7B0Mv6QHJOkD+VxafBGjTqQFl20z/k37TBr2+IQG+YAz/MEZ7B426/QLk42T7Y
85nB8r2eQOdtmD88SrDBG3aVQL95gUAltoTBkPrHQNceTEA2mYTBj3vEQBOJm0Dey4nBGqlYQH/F
OkC4hafBIjkDQAlBdkBT95fBF1s6QHKKhEB7LYzB4tbNQFocuEAQjr7B0r7uQBriq0DrgrfB+Iak
QH7upkBpWb3BaoXmQMs0jkA7T6/B+hKcQMV/iUAOHrXBGua8QLMCekCj663BFYvMQC2POkDPpZvB
7SKFQIApVkBMxJnBLRDEQJqJor8EEKPByzDoQMQjgb5XPKHB6FqZQJ5qC7+69KTBTxLsQPSZNT8C
2KrBJPecQHvMvT74x67B3VzBQApEtj9ap63BGYa1QHdBLUCTd6bBFim1QH5vgUBXfYrBgNmsQPWZ
VUA3npTBtDOIQGr1LUDO9qLBpIE/QHaseUDrt5XB4OvyQGPwOUC3mZnBxU3UQDKzzkAY5MTBnjEH
QXhQuUCYZ7jB/0WLQEtesEBVwcLBdwoAQfFxhED8B6rBe6h4QH6MeECoQrTBUrfLQJdR8b/IGarB
3SrBQAs49b/9+ZvB0T3hQEnnqD5M+ZnBzE0DQYBtSr9dNaDBie5/QNvDpL91UabBXGuRQJSTeD2D
4Z3BhxYCQSW3vD837ajBiZn2QMojCD6E3LHBy3OjQL8+gL493LXBuMx8QI1FZj/c2q/BiQ3GQMHJ
6T9PwrXBV52WQEZriEDoeobBkAPJQLFrWkBARYXBMBLGQIaUn0CqJ4zByo1fQDLlE0D9+abB5Q4J
QDKUdUBF5JnBXB5AQF2ri0BRoY7BHm7NQDaWq0DwoL7Bu6HwQEyun0DuRrjByv2kQDN4mUBuqrzB
OHXrQAjggUBA7a/By5yfQNKKd0DWS7TBXsfCQEDCX0Csrq3BgD7OQFN+UUAI7JnBgwCGQI3OUkDE
HpnBrEKmQAOger+EwrHBXfOTQHOQEr+K0abBl+m9QHq/Tz547bbBPpS3QADg/rysWZ/BkIbiQJBo
Kz+upq/BZNTSQDRKjz8ubaTBtH+8QBMnJEDs2KPBheKtQJ5rh0DoNYnByJWrQHFUX0DYUZPBjzWO
QCUyIECeQqHBdlU8QFH0c0DAfJbBIbrzQCPoYED0u5fBfXPRQMmWwkCF/8TB4N0HQT5yrUBYz7nB
/gCKQGFYokDulcHB+WUDQU85cUDzLKvBp3yAQGq6W0C94LLBJrq8QGxQ6L+8rbDB1OmLQIStpb+e
BbfBi2B3QEHvVz54/afBugWFQI69ub/tD6PBqhbLQPc05b2FsL7BqFmnQARBhD+pJrjBGnuoQMgN
tD6uA5jBMSjNQIK7XL9jUZ3BLj75QGoWJb4Spa7BZtDyQF8rwj/sgrPBPbrvQLq0mT+2cZ/B6wCO
QBVjiED+fIXBSX/EQLvcbkBgx4PBxeO4QO5BqEDsyIrBpitxQKgE+T//HaXBAEAJQH+uZUDW9prB
bQM2QCsOjUAFHZDB

> <OMEGA_E>
YHfdPtxi3j48HuM+qFwPP5yIET8=

> <OMEGA_NBR>
     80501

$$$$
50222500
  -OEChem-04172616093D

 54 58  0     1  0  0  0  0  0999 V2000
    7.2318    4.2240  -21.9061 C   0  0  0  0  0  0  0  0  0  0  0  0
    4.9287    4.0162  -22.6865 C   0  0  0  0  0  0  0  0  0  0  0  0
    7.5408    5.0083  -23.0188 C   0  0  0  0  0  0  0  0  0  0  0  0
    5.2411    4.7973  -23.8038 C   0  0  0  0  0  0  0  0  0  0  0  0
    5.9198    3.7254  -21.7204 C   0  0  0  0  0  0  0  0  0  0  0  0
    6.5552    5.3059  -23.9711 C   0  0  0  0  0  0  0  0  0  0  0  0
    6.3215    3.2243  -19.2845 C   0  0  0  0  0  0  0  0  0  0  0  0
    4.0737    3.5655  -19.0534 C   0  0  0  0  0  0  0  0  0  0  0  0
    7.3962   -1.2666  -20.6313 C   0  0  0  0  0  0  0  0  0  0  0  0
    4.9365   -1.5468  -21.1379 C   0  0  0  0  0  0  0  0  0  0  0  0
    6.5302   -0.8481  -22.9652 C   0  0  0  0  0  0  0  0  0  0  0  0
    5.7209    0.3599  -19.7039 C   0  0  0  0  0  0  0  0  0  0  0  0
    7.3214    1.0728  -21.5476 C   0  0  0  0  0  0  0  0  0  0  0  0
    4.8599    0.7931  -22.0523 C   0  0  0  0  0  0  0  0  0  0  0  0
    5.9635   -1.1149  -20.0668 C   0  0  0  0  0  0  0  0  0  0  0  0
    7.5658   -0.4063  -21.9035 C   0  0  0  0  0  0  0  0  0  0  0  0
    5.0956   -0.6859  -22.4115 C   0  0  0  0  0  0  0  0  0  0  0  0
    5.6048    2.7801  -20.5642 C   0  0  2  0  0  0  0  0  0  0  0  0
    5.8808    1.2781  -20.9606 C   0  0  0  0  0  0  0  0  0  0  0  0
    5.5605    4.2998  -17.1444 C   0  0  0  0  0  0  0  0  0  0  0  0
    5.9029    6.5116  -25.9444 C   0  0  0  0  0  0  0  0  0  0  0  0
    5.3185    3.6152  -18.4181 N   0  0  0  0  0  0  0  0  0  0  0  0
    4.1846    2.9355  -20.1941 N   0  3  0  0  0  0  0  0  0  0  0  0
    2.8763    4.0462  -18.5483 N   0  0  0  0  0  0  0  0  0  0  0  0
    7.5156    3.1638  -19.0112 O   0  0  0  0  0  0  0  0  0  0  0  0
    6.9420    6.0899  -25.0390 O   0  0  0  0  0  0  0  0  0  0  0  0
    7.9994    3.9959  -21.1813 H   0  0  0  0  0  0  0  0  0  0  0  0
    3.9266    3.6334  -22.5610 H   0  0  0  0  0  0  0  0  0  0  0  0
    8.5439    5.3877  -23.1470 H   0  0  0  0  0  0  0  0  0  0  0  0
    4.4812    5.0137  -24.5401 H   0  0  0  0  0  0  0  0  0  0  0  0
    8.1218   -0.9388  -19.8723 H   0  0  0  0  0  0  0  0  0  0  0  0
    7.5780   -2.3225  -20.8805 H   0  0  0  0  0  0  0  0  0  0  0  0
    5.1002   -2.6045  -21.3920 H   0  0  0  0  0  0  0  0  0  0  0  0
    3.9197   -1.4190  -20.7381 H   0  0  0  0  0  0  0  0  0  0  0  0
    6.6447   -0.2264  -23.8654 H   0  0  0  0  0  0  0  0  0  0  0  0
    6.7026   -1.9033  -23.2240 H   0  0  0  0  0  0  0  0  0  0  0  0
    4.7017    0.4697  -19.3051 H   0  0  0  0  0  0  0  0  0  0  0  0
    6.4491    0.6669  -18.9387 H   0  0  0  0  0  0  0  0  0  0  0  0
    8.0632    1.3904  -20.8000 H   0  0  0  0  0  0  0  0  0  0  0  0
    7.4307    1.6842  -22.4554 H   0  0  0  0  0  0  0  0  0  0  0  0
    4.9824    1.4068  -22.9570 H   0  0  0  0  0  0  0  0  0  0  0  0
    3.8370    0.9105  -21.6654 H   0  0  0  0  0  0  0  0  0  0  0  0
    5.8504   -1.7425  -19.1705 H   0  0  0  0  0  0  0  0  0  0  0  0
    8.5831   -0.5303  -22.3033 H   0  0  0  0  0  0  0  0  0  0  0  0
    4.3663   -1.0062  -23.1701 H   0  0  0  0  0  0  0  0  0  0  0  0
    4.6001    4.4997  -16.6468 H   0  0  0  0  0  0  0  0  0  0  0  0
    6.1825    3.6630  -16.4983 H   0  0  0  0  0  0  0  0  0  0  0  0
    6.0807    5.2506  -17.3324 H   0  0  0  0  0  0  0  0  0  0  0  0
    6.3407    7.1257  -26.7452 H   0  0  0  0  0  0  0  0  0  0  0  0
    5.4186    5.6272  -26.3839 H   0  0  0  0  0  0  0  0  0  0  0  0
    5.1561    7.1036  -25.3951 H   0  0  0  0  0  0  0  0  0  0  0  0
    3.4143    2.6051  -20.7395 H   0  0  0  0  0  0  0  0  0  0  0  0
    2.0291    3.9189  -19.0641 H   0  0  0  0  0  0  0  0  0  0  0  0
    2.8593    4.5203  -17.6680 H   0  0  0  0  0  0  0  0  0  0  0  0
  1  3  2  0  0  0  0
  1  5  1  0  0  0  0
  2  4  1  0  0  0  0
  2  5  2  0  0  0  0
  3  6  1  0  0  0  0
  4  6  2  0  0  0  0
  5 18  1  0  0  0  0
  6 26  1  0  0  0  0
  7 18  1  0  0  0  0
  7 22  1  0  0  0  0
  7 25  2  0  0  0  0
  8 22  1  0  0  0  0
  8 23  2  0  0  0  0
  8 24  1  0  0  0  0
  9 15  1  0  0  0  0
  9 16  1  0  0  0  0
 10 15  1  0  0  0  0
 10 17  1  0  0  0  0
 11 16  1  0  0  0  0
 11 17  1  0  0  0  0
 12 15  1  0  0  0  0
 12 19  1  0  0  0  0
 13 16  1  0  0  0  0
 13 19  1  0  0  0  0
 14 17  1  0  0  0  0
 14 19  1  0  0  0  0
 18 19  1  0  0  0  0
 18 23  1  0  0  0  0
 20 22  1  0  0  0  0
 21 26  1  0  0  0  0
  1 27  1  0  0  0  0
  2 28  1  0  0  0  0
  3 29  1  0  0  0  0
  4 30  1  0  0  0  0
  9 31  1  0  0  0  0
  9 32  1  0  0  0  0
 10 33  1  0  0  0  0
 10 34  1  0  0  0  0
 11 35  1  0  0  0  0
 11 36  1  0  0  0  0
 12 37  1  0  0  0  0
 12 38  1  0  0  0  0
 13 39  1  0  0  0  0
 13 40  1  0  0  0  0
 14 41  1  0  0  0  0
 14 42  1  0  0  0  0
 15 43  1  0  0  0  0
 16 44  1  0  0  0  0
 17 45  1  0  0  0  0
 20 46  1  0  0  0  0
 20 47  1  0  0  0  0
 20 48  1  0  0  0  0
 21 49  1  0  0  0  0
 21 50  1  0  0  0  0
 21 51  1  0  0  0  0
 23 52  1  0  0  0  0
 24 53  1  0  0  0  0
 24 54  1  0  0  0  0
M  CHG  1  23   1
M  END
> <OMEGA_C>
3GrnQEorh0CcP6/BzredQGSEgEDrfbXBlU7xQP1DoECIJrjB3ranQLyDmUAwbr7BxW69QJltbkBP
w63BHMTRQC7KqUDhxL/B3EnKQMtaTkC2RprBIlyCQG0xZEBDbZjBhq3sQOYgor/2DKXBrvedQOr+
xb9jGqnBCPfQQB4fWb/GuLfB5xG3QK5IuD6HoZ3ByUjqQPtPiT9mYazBoYSbQJwJSz8ba7DB9NS+
QNK1jr/JiKDBIxvyQFgG0L51Oq/BUQ+jQLyVL7/SSrPBc1qzQGrtMUBwg6TBii+8QGiZoz9Hr6fB
WO+xQDOYiUDOJ4nB3uS8QPhe0EAkjs/BIjGqQAxfZ0BFWJPB+ueFQDbfO0B0jaHBaBU4QBB6gUDx
YpTBy3/wQLJ7SkDYFpjBdiTeQF7gwkDoT8jBuPr/QOm8f0Bmc6nBf017QCSKaEDmfLTBnbMIQRRo
rEADLbnB5GWPQEBwoEApUsTBwfIBQbFXcL+I+p7B0n7yQLujFMBRC6fBITWjQNmvJsDXIqvBbtx6
QLygtb+v56XBaKHUQCPPZ75Q7L7BqXvWQAWe87/CyrnBEXSWQF558D7DcJrBCl/OQF66Kj9jgpfB
CQMBQWL3sT9+ZqbB88ftQBGV1z+gpLPBKnCfQOwQtD/ep7fBtZB1QCwXaT+lUq3Bdza7QKEJ378i
XZnBU1QJQT/DB78SbbLBVLiLQE/KgL9gXLnBxzOTQLH9j0CQLIXBUdfFQPJtakCd/IPBeZXCQOkE
qEDVqIrBsObKQOAF5EAk9tXB4WStQNYRtEBPEtPBCf+kQAtR40AgKcvB84NaQLy5JkCL6qXBztwB
QO/OekBLg5jBFP82QD6mkEAfWI3BNSfqQJUNikCfKa/B7WqiQDp6gED6bbbBl7T0QBxjpEBt3bfB
Lz+tQONAmkBOOb/BGnLAQFQ7cUAJKK7B7YjWQMfmrECa8r/B7X3KQKj+UEDQUJrBxRqCQGQ0X0Df
OZjBUlaqQH++k78igLXB9Gj1QFCtg79hD67BsqS3QE4q07/W9qHB1LPOQJDxiT+7cbPBK+uQQLIm
6j7cT6fBtFDcQEyhEz9r6Z/BornVQPo4075LMLbBBLuXQHKOhL9PD6rBnhnjQDjPab9XmKLB1IC0
QMToNEBj1KTBega8QOA9oj/O0KfBF8ywQJQigkC0TIjBnm7EQDsOz0DlutDB596pQOr+YEA2FpPB
X9KGQMPHRUBULKLB7fw1QAzcc0BsmZPB6sfwQEI7VEC/K5jBYU7jQGodx0DQUsjBFQQBQUz+gkDP
K6nBAt+CQKv5ZEBd9rXB6iUKQUJCskBQXbjBYAiWQKLon0Bod8XBWsmTQLFhNb9wPbvB7CKvQNrU
DcCTdbfBq4T6QJ+3BcB/A7DBlwoKQZrI+769fa7BIpiqQMXNxr/s05nB72e8QKyuLcDh2aPBN4rt
QBBIzT9e/LPB7iK4QJo0wT+CP7nBwV50QLgEZD8fEa3BK6eDQBGbCD8FL5/BdbDPQCw7KD//uJfB
KUv7QOE0jD+uZ6DBmMniQLDSAL/7U77BHwNyQJfmyL9bnqnB26n5QD3wrb+l25zB8tqRQJNrhUBw
L4TBU5fFQLHkWEAZt4PBviHAQDm3oUCM8IjBCLDSQAIq5EDIzdbBnju7QDKIsEAIdtTBfeinQGV/
3kDJT83BYE1dQEeePkDBVqfBazUAQHLFb0Dy55fBcn8zQDNng0DZ9ovB

> <OMEGA_E>
aPk3PnB1cz4=

> <OMEGA_NBR>
     82602

$$$$
50222475
  -OEChem-04172616093D

 49 51  0     1  0  0  0  0  0999 V2000
    6.7955    5.7563  -23.8351 C   0  0  0  0  0  0  0  0  0  0  0  0
    7.7762    4.9569  -23.2176 C   0  0  0  0  0  0  0  0  0  0  0  0
    5.4413    5.6025  -23.4851 C   0  0  0  0  0  0  0  0  0  0  0  0
    7.4052    4.0089  -22.2441 C   0  0  0  0  0  0  0  0  0  0  0  0
    5.0660    4.6600  -22.5098 C   0  0  0  0  0  0  0  0  0  0  0  0
    6.0475    3.8609  -21.8624 C   0  0  0  0  0  0  0  0  0  0  0  0
    6.3715    3.2015  -19.4652 C   0  0  0  0  0  0  0  0  0  0  0  0
    4.1083    3.3486  -19.1209 C   0  0  0  0  0  0  0  0  0  0  0  0
    5.9736   -1.6288  -20.8562 C   0  0  0  0  0  0  0  0  0  0  0  0
    7.2836   -0.8294  -20.8649 C   0  0  0  0  0  0  0  0  0  0  0  0
    4.9292   -0.9514  -21.7609 C   0  0  0  0  0  0  0  0  0  0  0  0
    7.0466    0.6158  -20.4126 C   0  0  0  0  0  0  0  0  0  0  0  0
    4.6510    0.4870  -21.2927 C   0  0  0  0  0  0  0  0  0  0  0  0
    5.9494    1.3502  -21.2601 C   0  0  0  0  0  0  0  0  0  0  0  0
    5.6583    2.8446  -20.7676 C   0  0  2  0  0  0  0  0  0  0  0  0
    6.2075    5.0999  -16.8063 C   0  0  0  0  0  0  0  0  0  0  0  0
    5.6148    3.6925  -17.0894 C   0  0  0  0  0  0  0  0  0  0  0  0
    7.6926    5.2723  -17.2145 C   0  0  0  0  0  0  0  0  0  0  0  0
    5.3763    3.4306  -18.5250 N   0  0  0  0  0  0  0  0  0  0  0  0
    4.2341    3.0295  -20.3883 N   0  3  0  0  0  0  0  0  0  0  0  0
    2.8828    3.5508  -18.4957 N   0  0  0  0  0  0  0  0  0  0  0  0
    7.5809    3.2012  -19.2707 O   0  0  0  0  0  0  0  0  0  0  0  0
    8.4923    4.1664  -16.7750 O   0  0  0  0  0  0  0  0  0  0  0  0
    7.0823    6.4870  -24.5768 H   0  0  0  0  0  0  0  0  0  0  0  0
    8.8149    5.0707  -23.4909 H   0  0  0  0  0  0  0  0  0  0  0  0
    4.6883    6.2092  -23.9660 H   0  0  0  0  0  0  0  0  0  0  0  0
    8.1612    3.3895  -21.7845 H   0  0  0  0  0  0  0  0  0  0  0  0
    4.0241    4.5428  -22.2511 H   0  0  0  0  0  0  0  0  0  0  0  0
    6.1673   -2.6470  -21.2248 H   0  0  0  0  0  0  0  0  0  0  0  0
    5.5856   -1.6787  -19.8281 H   0  0  0  0  0  0  0  0  0  0  0  0
    8.0014   -1.3072  -20.1819 H   0  0  0  0  0  0  0  0  0  0  0  0
    7.6954   -0.8244  -21.8849 H   0  0  0  0  0  0  0  0  0  0  0  0
    5.3078   -0.9275  -22.7934 H   0  0  0  0  0  0  0  0  0  0  0  0
    3.9937   -1.5289  -21.7266 H   0  0  0  0  0  0  0  0  0  0  0  0
    6.7283    0.6060  -19.3597 H   0  0  0  0  0  0  0  0  0  0  0  0
    7.9914    1.1715  -20.5049 H   0  0  0  0  0  0  0  0  0  0  0  0
    3.9318    0.9526  -21.9826 H   0  0  0  0  0  0  0  0  0  0  0  0
    4.2203    0.4545  -20.2810 H   0  0  0  0  0  0  0  0  0  0  0  0
    6.3247    1.4196  -22.2918 H   0  0  0  0  0  0  0  0  0  0  0  0
    5.6118    5.8401  -17.3606 H   0  0  0  0  0  0  0  0  0  0  0  0
    6.1239    5.2959  -15.7271 H   0  0  0  0  0  0  0  0  0  0  0  0
    6.3174    2.9361  -16.7096 H   0  0  0  0  0  0  0  0  0  0  0  0
    4.6571    3.6042  -16.5556 H   0  0  0  0  0  0  0  0  0  0  0  0
    7.7556    5.3452  -18.3102 H   0  0  0  0  0  0  0  0  0  0  0  0
    8.0821    6.1964  -16.7625 H   0  0  0  0  0  0  0  0  0  0  0  0
    3.4661    2.9240  -21.0200 H   0  0  0  0  0  0  0  0  0  0  0  0
    2.0342    3.4545  -19.0158 H   0  0  0  0  0  0  0  0  0  0  0  0
    2.8501    3.7925  -17.5259 H   0  0  0  0  0  0  0  0  0  0  0  0
    8.4704    3.4790  -17.4304 H   0  0  0  0  0  0  0  0  0  0  0  0
  1  2  1  0  0  0  0
  1  3  2  0  0  0  0
  2  4  2  0  0  0  0
  3  5  1  0  0  0  0
  4  6  1  0  0  0  0
  5  6  2  0  0  0  0
  6 15  1  0  0  0  0
  7 15  1  0  0  0  0
  7 19  1  0  0  0  0
  7 22  2  0  0  0  0
  8 19  1  0  0  0  0
  8 20  2  0  0  0  0
  8 21  1  0  0  0  0
  9 10  1  0  0  0  0
  9 11  1  0  0  0  0
 10 12  1  0  0  0  0
 11 13  1  0  0  0  0
 12 14  1  0  0  0  0
 13 14  1  0  0  0  0
 14 15  1  0  0  0  0
 15 20  1  0  0  0  0
 16 17  1  0  0  0  0
 16 18  1  0  0  0  0
 17 19  1  0  0  0  0
 18 23  1  0  0  0  0
  1 24  1  0  0  0  0
  2 25  1  0  0  0  0
  3 26  1  0  0  0  0
  4 27  1  0  0  0  0
  5 28  1  0  0  0  0
  9 29  1  0  0  0  0
  9 30  1  0  0  0  0
 10 31  1  0  0  0  0
 10 32  1  0  0  0  0
 11 33  1  0  0  0  0
 11 34  1  0  0  0  0
 12 35  1  0  0  0  0
 12 36  1  0  0  0  0
 13 37  1  0  0  0  0
 13 38  1  0  0  0  0
 14 39  1  0  0  0  0
 16 40  1  0  0  0  0
 16 41  1  0  0  0  0
 17 42  1  0  0  0  0
 17 43  1  0  0  0  0
 18 44  1  0  0  0  0
 18 45  1  0  0  0  0
 20 46  1  0  0  0  0
 21 47  1  0  0  0  0
 21 48  1  0  0  0  0
 23 49  1  0  0  0  0
M  CHG  1  20   1
M  END
> <OMEGA_C>
l3TZQDUzuEAxrr7B+tb4QLmenkC3vbnBNh+uQJxHs0B64bvBlvfsQJRIgEDp87HBDB2iQGselUAZ
FLTB9ITBQFUYd0Al5q7BAOPLQELlTECwuJvB7XaDQMdOVkCh95jB6Se/QHx90L+G2abB5hLpQDlR
VL9S66bBFrydQFiMc79JFq7B5n3hQGiiHT8PTaPBMtWUQCJV+T5hV6rBuWG+QObRrD+/FKrBuBC1
QGoONkAhJKbBpqPGQAIyo0BTc4bBv6yzQI5RbEAWt4jB5in2QEm2qEA+t4nBvgqsQBCPW0AZM5TB
m32HQITjQUAvG6PBqn84QN4/Y0Ah95PBipbyQEfhTEBUKprBd+AHQfZShUBCM4bBT6LiQFWVz0BC
ncTBvQkNQVZDokBg7bvBTwaWQF+xxkBsur/BOpQCQc7sWECbRq7BGcWAQERekUBGArLBjlrFQCFo
KcBjzKnBS72yQAHf1r8BoJ7BqQUAQSRRp7+edKHB9kD2QKoJU783FK/BsdmpQDNybb/fWLbBaZh/
QIi0w78m0K3BSU7XQLUjGz+84JrBkrn/QDH0lT8WCqTBEaN7QMvbcz9R3K/B8QyHQPiv6D6DP6LB
4GPKQKK0tT+fVbLBIpSzQP/hukCP4orBS/fDQNN3qUBkonvB9SfKQG7oO0AyrYXB+gaVQJerZkDY
cYTBiy34QNYLq0Bie5LBYFABQbRIxkCaGYbB0dRdQDQjO0D9KKjBzy8CQJ4WXUBsIJjBbGg2QLS3
ckD5NIzBrIYHQXynXkBucYvBkuXUQJf7tUDxF7/BtxP0QG6Wp0Di07fBPMaqQPhXpkCfb77B9ivp
QNzAiUAH3a/B/LufQGpjiEDAgbbBr5u+QIhndEAC/K7BmKXJQB7oQkBzz5vBMFaCQDxKV0DN7ZjB
0VvaQKHrtb/VGKfBa8nlQO4SC78XybDBLHWsQLlKkL/5baPBpE7iQOPKcj+D+63BGi2oQAXxsD7b
VaDB8N20QPFCpz+0xKnBOKaxQOIUNEA5O6bBG9zGQCtGgEDXlYPBhKOwQMB/NEAh24jBGNyqQPpQ
qEDNkITBlsepQKbsREDKOZTBzNCEQEhDRkD7KaPBrP07QN66c0C5pJPB8d7vQECcOUCn6ZnBTx6/
QFZdykD6J37BN0ndQK8KzUCFLcXBzToKQd13s0CLXbjBE9ySQNtcsUA5CMTBPq8AQWcffUCVXarB
/fF+QM8peEB9JLbBBvvcQJbNHsCeWqnB66bwQCtimr8IgqDB52IDQZLRQ78yS7PBLKzPQJAvRb8G
Y7fBrh+WQINArb90/KnBncSkQP664L+zd5zBrgP6QIwbmD9rxKfBVvboQNWXxT9rMbXB9MKGQBVQ
Cz/qEZ7BQDe9QHA3DD/ad5nB4u6dQJnzkj+OUrDBZFjMQMxWckAGJ3bBarrlQCEHhkD6j4fBYLvE
QONW9j/C7ofByI2RQOHCKUCI84TBK/KmQHnDsEBhDY3B0keLQNUjokB9/4DBH+NXQBahRUBoMqjB
35IFQJXHfEAPs5fBKwE+QHEvf0DUxovB7w2uQKNt40A0QH/BKtLNQIpauEDZ773BXS7wQBPgqUDB
o7fBNMKkQHS7pkCUh7zBzYPpQGLQiUAX76/B0cydQEMMh0AdurTBfAvAQARQcUBmNq7Ben7NQALN
UED2OZvBpeOEQC4xXkDNyZnBarq0QJABzL9WqarBgu/QQMgqi7+AdKHB7MG5QD/pL7/KhLTB85HE
QBzCsT6hdJ7B4F2tQLZgQj/x07HBbxLIQIOJpz9FRqjB83G4QGJkL0AmQ6XBExikQNrqfkCODILB
QvixQChJl0ClRozBxJq4QJqTJUDmMIHBZ5OsQLAqeUCl0ZXBmt2KQGInLUCmJqLBDj46QND+ckCM
nJXB9pHzQJj0TUDy2pjBGt3lQO6yK0CLToLBRvHSQDoB0UAF28PBZdgHQW5kt0CGubjBH4OKQFKR
sUBqdMHBfBgCQc5DfEAaSKvB/nJ8QKc9c0CRsbPBile+QLaZJ8AVxKzBlQ6TQP+ly7+oGKjBa5rM
QGu13r9rdJrBS6ryQLjqjb9P96PBDkfbQOc0Nr+ZMrfBt+qkQAFNh7+29rrB7mWjQIgOtT4dg5vB
CxzaQILtMz+FGpjBcROzQKQjsj+b4rjBIzeLQJSmSj8stq/Bz9TpQPD9rj/xuKrBX62tQK+BkkA9
GHbBnRSBQDS1d0CvIILBqGOeQHhTtEArJ43BYN/TQKtHoEBkiYvBm++wQOa2CUAxrnLB7sirQPJ+
+D+sjYfB1CloQCFlC0Dg26XBhRQFQOkUXEDTBZnBWgs2QL50jEAkMI/BcdbsQDX8NkB/kYnBEZjX
QDoUq0BcRcDBqlv4QFr1mECpAbrB2XOsQACio0C7o73ByAnuQAdFf0APDrHBN/ahQLA0ikAPvLTB
Sa7CQESJcEADPq7BJUXMQG9RVkBokJrBnz6DQCPlWkAgnZjBdnG2QCBDv79Gwa3BNLC6QPdpj79A
1qHBJinQQOewBb/0zbTB+oCsQHAtqj4c2p/B7YPBQIMYbj83/bLB1vfFQNxSqz/Q/abBJJG3QKYv
NUBnyqTBEzvRQDK6qkCHrIfBaTOwQJjnhUD/pIjBbH3WQJ1KuUByEXjBX9WqQGh3b0CG5ZPBiV+J
QKHIOkCqOKLBChE2QCehZUBSCpTBd6/yQDYdV0AqkJjBC675QBJU1kBCzHbBVpPfQCSzvkAPGcfB
nroMQdh9nkAYErzBxlmTQPd3sUCMd8LBUKcDQSJxY0DnS6zBG8qAQMxFhEBY0bLBWZjCQNT+IMDb
9a7BcYOUQBu1ub9iErDB+4KmQMjQ5b/rDp3BYU3cQCnPnb+QYp/B6FLyQKxiG7+wy7LBp1vLQIdJ
Sb8tQ73BYjOKQFNJ2D6NsKHBD/axQBboFD/mY5fBIFPVQA71zD+P5bfB6syfQFI/gz+PZrXBFPvn
QBoYoT800aTB0lbwQN+Dn0DFsIrBmEfGQN4CxkBkg4zBUTu7QAs7VUCH0YPBCiWRQMgdkUAomIXB
QBa5QEJkyUAWs3LBbrjcQK9anUAQ023BmMZjQCuEKED4JqfBapwBQGWOVECuGJjBT7EwQO1rfkAS
sozBdC/9QF2I30DyamjBxoHVQPyiskA2k7/B0LLzQMpFp0B8urfBIg+sQNYHoUATQb/B1WfoQOS0
ikBhgK/Ba5+gQO9lhEAEB7fBDl++QIEVc0Ax5a7BG7DJQDG6QUAli5vBF4CCQEMZXkBtupjBYdva
QMO7tr9e3qfBzwvoQDUoAL/WI7HBOGysQJk6kr8Fb6TBpIzjQBBPej/Y963BmEqnQKSXpD7S7KDB
RlC1QHZVqD+F7anBjWSxQDl4M0D4/6XB6h3eQFosk0A62YbBU660QME1cUBny4jBQwjfQKpCvkAn
+4zBTrOrQIeEX0BAOpTBp6eEQMnbRUCuy6LByB45QG9uckDBfZPB25vvQIWrM0AOv5nB5KbhQJoJ
uUBYUJjBzhveQI/WyEBo1sXBhs0JQQaAtEAbBbjBsvmUQLl8qUCoU8XBx+7/QGi6gUCFlanBkvCA
QJgzbUCH6bbBMHbdQD1fHsAUfarBYVDwQMn+oL+1BqHB9skEQQL1M7+tRbPBd2rTQDrXM7+4FbjB
ieWWQCilq792NqvB7PmjQHKf5r+utp3B5IX6QFeVmT+8iqfBgMDqQAI+zT90+rTBs3+FQO99AT+r
857B0ia7QMsm/j6qy5nB50OfQLDSlz+mtbDBxq7gQC3vmUD2eHzBLMD5QMDhf0CvaonBmfO3QMqs
M0A5mYTBRG+ZQApuikBBc4XBcZ/BQEcS0EBsGIvBVgL7QPSy0EDOSIrBNcJWQOiHQEAQqKfBJGQB
QCoJb0DfZpfBek06QLg4gkDm0IvBpxviQERY1EDYppvBrAjSQNp4tkC/ZL7BRRvyQD+xpkDlkLfB
PuKnQIP8pkCjiL3BGQDoQPmsh0Cd1K/B2pidQOXsh0AQzrXBIWK9QOvPcED8uK7BThXKQBU/RUAE
1JvBr6SDQNqYZECNYpnBLMrZQPM0v78NlajBXufkQDaSC78Y37HBtBOtQDEcl79zHaTBldniQDE3
bD/2Q67BRuGqQBJpjT5kVaDBKPe1QIfIoD+/pqnBsbaxQFWaL0Bq96XBdfKsQOclZkAdJYLBq9O3
QDS6j0BGwovBgjDCQGOvDUAcKIPBXm6tQBR7dUDq7ZXB5e6EQCdKPUBhoqLBZJA8QGWBeEAr8JPB
kEHvQFQwNEB/f5nBnFq6QC/Quj+8iHPBl73ZQIV8zkD7TMTBE0AJQZhnskAcRLjBH1mPQC3+skCg
08LBz2sAQcykdkDArarBwZJ6QLCyd0DzRLXBl2baQGUIIsDofavBTpzxQCGgr79PLaLB17gCQT23
RL9otrTBt/TNQEOjM78CbbjB5w+VQKnSq7/aaqrBfl2mQJuJ7L/2Up3Bai/7QC9WjD+WD6jBkETp
QLmYyT/gKrXBsFaKQPES+z73cp3Brt3BQIKc2D72xZnBOmieQAOziz9GDrDBrVe4QFucgkCOj3XB
ywiKQDrTXUCauYHBq2mlQCagrUC/JIvBnz/aQGoQl0Dym4vBBMy0QOSr1z/DG4rBZ+TkQGm7FUDu
O4TBNYJWQLwnK0DZ1abB5ckDQNeyaECyDpfBM3Y/QF9Vi0A95IzBtX3HQBFDGz/Nz3TBXvPZQB8v
t0Cazr7BqjT5QGRcnUBg5LnB66auQL3OskAC67vBOEDtQAK1fkCmB7LBK4+iQEzwlEByDbTBwNzB
QD9UdkDH467BTSTMQFQ3TEArk5vBjZSDQECFVECO65jBe/O9QP2p0b9TNqfBxgjoQPmqV7+6CKfB
D+KcQKclcb+Vca7BIH3gQFxFGT+GOaPBh0eUQGnb/D7ylKrBxCa+QL8brD98GqrBCl21QOueNUBg
GabBUjnLQIsNoUCY9obBKpizQCnKa0C6oojBQOGzQJYnx0CwNozB1QKsQOsrWECQD5TBGsWHQLuj
QUBmGaPBsLo4QB0yYkA29ZPB3bzyQG17UUDb4pnBPhuKQHX5y0APx4fBZzTjQK5VzkBWysTBCDQN
QWWQoEBdJ7zB1qaWQG1oxkBzvr/Bo6sCQVjAVkBWXa7B9jyBQNOQkUCu67HBKjHEQJKWKcC5SqrB
RyaxQJtN2r9YCJ/B36n+QOv4qr/FkaHBzp71QGowUr+AJq/BaTWpQEz4aL++rrbBaJJ9QK2Iwb8h
RK7B85XVQAXcEj8i3JrBntz+QH5Wkz8Au6PB8mZ7QDi3eT8xILDBNhSGQHUg6D5FiaLBXLfKQP1N
tT+5TbLBDeLNQIArp0A3pXzB9m3rQE6EnkA8dYrB/xHHQEc6OEDcJIXBL4mUQIPHbkDggoTBe1bG
QOeX5EBRzorBWC6xQMxwwUDj3pTBppNeQEIKPEAGNKjBg48CQCXTXUDpLpjBd3k2QJpncECgKYzB
7T94QCeE40BlFIvBAl3aQOTUtkCk277B23/5QAjRnEA+9bnBnhGvQMbBskAJ8LvBC3DtQC7ifUDX
ErLB0t2iQNsAlUCQDrTBlw7CQKIfdkDJ567B2RXMQG83TEDgi5vBP6KDQKZWU0B455jB33S9QBvl
0b/xTKfB2J3nQPnWWL9ME6fBpXicQFQCcL/ghK7BECjgQE4CGD+MN6PBZweUQJP8/j6ioKrBTwS+
QIX/qz81HarBGG61QKGiNUAPG6bB3TC2QEoMpkCiJYfBMxuzQCFQakDPpIjBmVm9QJPzsEBqhnbB
COKrQG6ZU0Bi9ZPButiHQNzeQUAJH6PBQS05QJs7YkAq65PB35nyQC9GU0Aw1pnBuV7AQCEy3kAD
53PBwLTjQGflzUB92sTBlFgNQTDFn0CKP7zBRiiXQJeAxkBwwL/BxLcCQQ6sVUANaq7BpIuBQNPY
kUB+57HBnKXDQKSdKcBOaqrBoZmwQFQH27/hIJ/B7yr+QJwnrL8ZnqHBXkP1QB6CUr9KL6/Bds6o
QB99Z7+4wbbB6518QIuJwL/aWq7B8hrVQG3OED9u3ZrBY5X+QPBrkj86rKPBixZ7QKn/ez8mK7DB
w8aFQIOv6T6GlqLB367KQPcNtT8aTrLBuSfRQP1nskCr4ovBzEmYQMcEtUDr5InBaiPRQKO5TEDZ
7IXBylWYQEfUUUCf0YPBJVGiQFLGpEDZCW3B+i3bQDjloUBu/XDBeNBeQFtdPUA0QajBX/YCQEzz
X0AWKZjBIzM3QJU7b0DbFozBE8jEQGC85EAdOWXBWUTVQIU8tEAhkr/B+ez1QBLdpkCulbjBw12r
QEu6pEDBOb7BIMHsQK4YikDnOrDB4PihQNVBiEC51LXBsnTCQO8cdkC1l67B6YjMQJGST0DO+JrB
8GiEQAZdTkCB8pjBW7OwQCbew78nw6nBh0DQQEgugb9oXqHBnt+yQBbZKL+R47PB323FQMzb3j4N
dp7BVt6nQD1mTT8xU7HBf8HFQERqsD+/gKjBDzW4QKQsNkAljaXBYiuoQEQ3j0A894LBa+iwQHY7
RkBK/4fBDUrCQP8is0B0SojBV42rQPD3RUCQqJPB1ACKQA4JOkB6/qLBz5E7QNHHZ0BAgpTBAbHy
QOBKV0CE4pjB1sCwQCf1vUBffpLBOl3cQLtjykDn9cXBnA8LQcKzskB+ornB/FySQLGwrkA6pcPB
oBQDQS3FfkBeBavBvsOBQM6ieEDS4LTBzfC4QOJbJMAv06vBAxCQQG6Sv787eqbBjD3OQFtn0b+F
J5rBTO7wQIPHhr/YnqTBnG3TQAsRNb/LNrfBNe6bQOukhb/Ez7nBsGSlQPY57D4Z0prBiSvdQI02
TT+bqZjBYnKrQE7Jsz9morjBn4mGQBo3Wz9Yh67BjpHmQGo5tD/4ravBYOyFQLealkC20YPBOIqw
QCrmjUBc2XTBZffRQINWM0BqHIbBQI+aQJqJF0C+goTBisbBQP6az0DvHYPBBYPjQFdMqECyWInB
uNRkQMezLkAVNqjBSjkHQB2Ta0BPFpnBXTM4QGBRdkCzuozBOEvBQEMj1EBlpJXB4oXbQKIit0DR
mr7BFVj6QEeznEAqurnBth+wQONGs0BBwrvBrdXtQAwmfUCR9LHB832jQDtflUC99LPBF1nCQDv0
dUBs1q7B/APMQHVXTEBOjZvBd6+DQFGEUkC42ZjBPfS8QNRY0r8dRKfB2SPnQOdVWr88BafB8hmc
QIItcL8Sgq7B/HLfQDVZFT8QJqPBS7+TQEMVAD+lqKrB/dG9QD6nqz+eGarB1le1QDZ/NUAQE6bB
ubDZQE8MSEBT4oLBAmayQNH0b0BDrYjBYjfbQATAyj+dX4PBuvirQKJ1UkAE2pPB092HQNjiQUDr
FqPB7/w4QCQgYkCB9JPBXpfyQORRVUCEH5rByxG1QNT4gT9jLn7BJi7lQPFdzkBAh8TBps8NQW2H
n0DZ8rvBVnSYQHdQx0Bykr/B4scCQeMPVEBxVq7BxhuCQPp1kkC417HBlxvDQKneKcBRYKrBQgOw
QH5c278QGp/B4ar9QJXurL/QjqHBYNr0QHdmU79PH6/BFIGoQHiqaL+JvbbB2r97QIIywL/jWK7B
buvTQJqtDD+q1prBTuv9QBD8kD8yeKPBWOp6QKLPfD9+PrDB2UuFQMAo7T7ao6LBzbXKQGqMtD8a
RbLBLPP2QN44YUA5oYbBdrbYQJN6W0Df23TBromVQNTAX0BZEITB3JO2QPPsmkBtzYjBTrzeQE9i
oj8QwovBp832QFEUnT+sbH3BhtteQBgOPkBnO6jBZyYDQFkCYUBFR5jBMnY2QEt3bkCQHIzBQba2
QJBBiz348X7B

> <OMEGA_E>
cDEkP2QlIT8kcSE/kAIiP+LRIj/KjCM/OJcjPwDSIz9cLxo/9OolPw==

> <OMEGA_NBR>
     91262

$$$$
50222480
  -OEChem-04172616093D

 63 67  0     1  0  0  0  0  0999 V2000
    7.2344    4.2579  -21.9005 C   0  0  0  0  0  0  0  0  0  0  0  0
    4.9470    3.9800  -22.7042 C   0  0  0  0  0  0  0  0  0  0  0  0
    7.5423    5.0115  -23.0371 C   0  0  0  0  0  0  0  0  0  0  0  0
    5.2676    4.6983  -23.8555 C   0  0  0  0  0  0  0  0  0  0  0  0
    5.9296    3.7374  -21.7182 C   0  0  0  0  0  0  0  0  0  0  0  0
    6.5657    5.2397  -24.0188 C   0  0  0  0  0  0  0  0  0  0  0  0
    6.3235    3.2283  -19.2756 C   0  0  0  0  0  0  0  0  0  0  0  0
    4.0729    3.5452  -19.0403 C   0  0  0  0  0  0  0  0  0  0  0  0
    7.3397   -1.2839  -20.5806 C   0  0  0  0  0  0  0  0  0  0  0  0
    4.9022   -1.5196  -21.2057 C   0  0  0  0  0  0  0  0  0  0  0  0
    6.5958   -0.8369  -22.9488 C   0  0  0  0  0  0  0  0  0  0  0  0
    5.6500    0.3646  -19.7219 C   0  0  0  0  0  0  0  0  0  0  0  0
    7.3477    1.0660  -21.4797 C   0  0  0  0  0  0  0  0  0  0  0  0
    4.9121    0.8252  -22.1074 C   0  0  0  0  0  0  0  0  0  0  0  0
    5.8845   -1.1119  -20.0840 C   0  0  0  0  0  0  0  0  0  0  0  0
    7.5851   -0.4162  -21.8360 C   0  0  0  0  0  0  0  0  0  0  0  0
    5.1386   -0.6554  -22.4639 C   0  0  0  0  0  0  0  0  0  0  0  0
    5.6133    2.7939  -20.5618 C   0  0  2  0  0  0  0  0  0  0  0  0
    5.8843    1.2896  -20.9618 C   0  0  0  0  0  0  0  0  0  0  0  0
    5.2503    9.6401  -23.4253 C   0  0  0  0  0  0  0  0  0  0  0  0
    5.5466    4.2164  -17.0987 C   0  0  0  0  0  0  0  0  0  0  0  0
    6.0461    8.6611  -24.3030 C   0  0  0  0  0  0  0  0  0  0  0  0
    5.0941    7.6646  -25.0007 C   0  0  0  0  0  0  0  0  0  0  0  0
    5.8838    6.6435  -25.8640 C   0  0  0  0  0  0  0  0  0  0  0  0
    5.3144    3.5767  -18.3977 N   0  0  0  0  0  0  0  0  0  0  0  0
    4.1907    2.9529  -20.2005 N   0  3  0  0  0  0  0  0  0  0  0  0
    2.8725    4.0095  -18.5266 N   0  0  0  0  0  0  0  0  0  0  0  0
    7.5183    3.1823  -19.0034 O   0  0  0  0  0  0  0  0  0  0  0  0
    6.9402    5.9795  -25.1222 O   0  0  0  0  0  0  0  0  0  0  0  0
    7.9955    4.0717  -21.1573 H   0  0  0  0  0  0  0  0  0  0  0  0
    3.9429    3.6073  -22.5654 H   0  0  0  0  0  0  0  0  0  0  0  0
    8.5348    5.4193  -23.1601 H   0  0  0  0  0  0  0  0  0  0  0  0
    4.5235    4.8422  -24.6249 H   0  0  0  0  0  0  0  0  0  0  0  0
    8.0334   -0.9749  -19.7848 H   0  0  0  0  0  0  0  0  0  0  0  0
    7.5153   -2.3407  -20.8302 H   0  0  0  0  0  0  0  0  0  0  0  0
    5.0587   -2.5787  -21.4581 H   0  0  0  0  0  0  0  0  0  0  0  0
    3.8699   -1.3749  -20.8546 H   0  0  0  0  0  0  0  0  0  0  0  0
    6.7630   -0.2126  -23.8389 H   0  0  0  0  0  0  0  0  0  0  0  0
    6.7647   -1.8933  -23.2049 H   0  0  0  0  0  0  0  0  0  0  0  0
    4.6150    0.4890  -19.3708 H   0  0  0  0  0  0  0  0  0  0  0  0
    6.3462    0.6536  -18.9208 H   0  0  0  0  0  0  0  0  0  0  0  0
    8.0574    1.3658  -20.6945 H   0  0  0  0  0  0  0  0  0  0  0  0
    7.5107    1.6824  -22.3760 H   0  0  0  0  0  0  0  0  0  0  0  0
    5.0908    1.4409  -23.0013 H   0  0  0  0  0  0  0  0  0  0  0  0
    3.8729    0.9586  -21.7722 H   0  0  0  0  0  0  0  0  0  0  0  0
    5.7185   -1.7432  -19.1986 H   0  0  0  0  0  0  0  0  0  0  0  0
    8.6186   -0.5538  -22.1866 H   0  0  0  0  0  0  0  0  0  0  0  0
    4.4420   -0.9583  -23.2594 H   0  0  0  0  0  0  0  0  0  0  0  0
    5.9428   10.3414  -22.9368 H   0  0  0  0  0  0  0  0  0  0  0  0
    4.5417   10.2014  -24.0520 H   0  0  0  0  0  0  0  0  0  0  0  0
    4.6965    9.0781  -22.6588 H   0  0  0  0  0  0  0  0  0  0  0  0
    4.5832    4.3880  -16.5964 H   0  0  0  0  0  0  0  0  0  0  0  0
    6.1739    3.5625  -16.4750 H   0  0  0  0  0  0  0  0  0  0  0  0
    6.0575    5.1787  -17.2502 H   0  0  0  0  0  0  0  0  0  0  0  0
    6.6003    9.2272  -25.0661 H   0  0  0  0  0  0  0  0  0  0  0  0
    6.7550    8.1040  -23.6729 H   0  0  0  0  0  0  0  0  0  0  0  0
    4.5211    7.1202  -24.2356 H   0  0  0  0  0  0  0  0  0  0  0  0
    4.4023    8.2229  -25.6486 H   0  0  0  0  0  0  0  0  0  0  0  0
    5.1832    5.8817  -26.2364 H   0  0  0  0  0  0  0  0  0  0  0  0
    6.3331    7.1759  -26.7153 H   0  0  0  0  0  0  0  0  0  0  0  0
    3.4230    2.6496  -20.7649 H   0  0  0  0  0  0  0  0  0  0  0  0
    2.0283    3.8996  -19.0513 H   0  0  0  0  0  0  0  0  0  0  0  0
    2.8505    4.4544  -17.6313 H   0  0  0  0  0  0  0  0  0  0  0  0
  1  3  2  0  0  0  0
  1  5  1  0  0  0  0
  2  4  1  0  0  0  0
  2  5  2  0  0  0  0
  3  6  1  0  0  0  0
  4  6  2  0  0  0  0
  5 18  1  0  0  0  0
  6 29  1  0  0  0  0
  7 18  1  0  0  0  0
  7 25  1  0  0  0  0
  7 28  2  0  0  0  0
  8 25  1  0  0  0  0
  8 26  2  0  0  0  0
  8 27  1  0  0  0  0
  9 15  1  0  0  0  0
  9 16  1  0  0  0  0
 10 15  1  0  0  0  0
 10 17  1  0  0  0  0
 11 16  1  0  0  0  0
 11 17  1  0  0  0  0
 12 15  1  0  0  0  0
 12 19  1  0  0  0  0
 13 16  1  0  0  0  0
 13 19  1  0  0  0  0
 14 17  1  0  0  0  0
 14 19  1  0  0  0  0
 18 19  1  0  0  0  0
 18 26  1  0  0  0  0
 20 22  1  0  0  0  0
 21 25  1  0  0  0  0
 22 23  1  0  0  0  0
 23 24  1  0  0  0  0
 24 29  1  0  0  0  0
  1 30  1  0  0  0  0
  2 31  1  0  0  0  0
  3 32  1  0  0  0  0
  4 33  1  0  0  0  0
  9 34  1  0  0  0  0
  9 35  1  0  0  0  0
 10 36  1  0  0  0  0
 10 37  1  0  0  0  0
 11 38  1  0  0  0  0
 11 39  1  0  0  0  0
 12 40  1  0  0  0  0
 12 41  1  0  0  0  0
 13 42  1  0  0  0  0
 13 43  1  0  0  0  0
 14 44  1  0  0  0  0
 14 45  1  0  0  0  0
 15 46  1  0  0  0  0
 16 47  1  0  0  0  0
 17 48  1  0  0  0  0
 20 49  1  0  0  0  0
 20 50  1  0  0  0  0
 20 51  1  0  0  0  0
 21 52  1  0  0  0  0
 21 53  1  0  0  0  0
 21 54  1  0  0  0  0
 22 55  1  0  0  0  0
 22 56  1  0  0  0  0
 23 57  1  0  0  0  0
 23 58  1  0  0  0  0
 24 59  1  0  0  0  0
 24 60  1  0  0  0  0
 26 61  1  0  0  0  0
 27 62  1  0  0  0  0
 27 63  1  0  0  0  0
M  CHG  1  26   1
M  END
> <OMEGA_C>
63/nQAhBiEA/NK/BH06eQFm4fkAborXB0FrxQGZeoEAKTLjB+o+oQMhYlkD9177Bo7+9QOswb0Db
vq3BeRrSQMqrp0COJsDBNVrKQKqcTkBtNJrBGFWCQNPkYkB5UpjBxt7qQPRWpL8VpaTBCt+cQNaB
wr9WpanBoRDTQPQ/Vr89l7fB4sy0QCKxuj6Hxp3BZiDrQIZyiD9n1qvBnC+dQGBDUz/927DB+E28
QBpTjr8HrKDBErnyQOgS1b4QsK7Bo2+kQGLFJ7/8tbPB0J+zQB/PMkCofqTBRky8QHwRpT/YsafB
fQKoQNE9GkH2ZrvBA36xQO7shkAlyojBX3nBQNCTCkGRbMLBnQKjQDJE9UB4AcjBTUi8QNCX1ECF
6c7BQQ+qQAzpZEBmLpPBkxqGQGz8PECRmqHB6NY3QLRNgECINpTBGJbwQC2rS0D8BpjBKxbeQDJY
v0A6+sjBPNv/QAZLgkApQqnB8Fh8QAveZkDdhbTBmo4IQdRqrUDLR7nBbsCQQIDzmkDM/8TB94gA
QQyWeb9UR57BAH3wQIjOFcA8pKbBpOChQCoKJcBDqqvBuat3QET+r7861qbB32rYQG2xWb4gtr7B
B3jYQOtW8r+xo7nBKq6TQDBa+j5Y95rBSRTLQNlRJz/YXZfB6eoAQSzSrj9UjqXBklfwQDNa1z8d
ArPBNOiiQPBvuD+eArjBCN53QLBpdT9dLa7B7f22QEQi37/NlpnBuOUJQRrIDb8lfrHBiiSOQAlW
db82E7rBMyu+QGB2JUF4frfBj1WRQAg5I0F8asDBWUmWQBRAEUE/RbXBaqmSQFBqjEBixYTBM5DF
QPj/Y0DYzIPBBtfBQE+4pUBcAIrBWzXTQNCiE0Fnh8jBJCnYQNupAUEqYr3BJK2QQEbY40CV4sHB
39+MQByRA0FPMM3B79ylQIk2vEA95NHBhajKQFih5UD8uNXBLxNbQIGSKUCZHqbBc88BQKGSeUD6
aJjB7W02QKaKjkD6DI3BRs7nQLEeiEDWP6/BlK2eQGJzfkBmubXBDsbxQIddoEAsULjBDgKpQPJh
lkA05r7BIP+9QBcTb0C4zq3BMIrSQB7yp0BHJcDBrGXKQMrdTkDXPprBqlaCQKRAYkBQTZjB4ADr
QFyro7+fq6TBKdicQIyOwr9wf6nB1IzSQD/UV789lLfB7Bu1QEcIvj66vp3B8OrqQKCTiD+w8qvB
R9GcQP41Uj/EyrDBRpC8QBShjb87m6DBEHzyQD4a1b4Qwq7BUAqkQL8pKb/rm7PBxKyzQPcEM0CV
iaTBNDu8QJZHpT+UtafBTcBOQPBLFUGXLsTB+oWxQHwkhkCSu4jBj8Z7QNWrBUGE2MvBxIKlQHDr
90AgbcbBQN+7QDjq10DDGc7BnBiqQAUaZEAHLJPBzCWGQIiKPUC8qKHB+cY3QExFf0AuIpTBCKjw
QNhYTEBjFpjBmBDeQOLuwEC7ycjBBxEAQQT9gUCZTqnBwy19QNw4ZkA2qrTBpMsIQe5IrUAvSbnB
/0qRQL71mkA7FMXBTLMAQTAfd7+EXJ7B3pnwQJGGFcBUpKbBdtGhQH4fJcDAfavBz8x3QHL8r7+0
n6bBK6XXQAsIZL7Au77BKezXQIRB87+ZmbnBFxWUQN3g/T5v3prB1pjLQAYKKj/XZJfBBesAQW2P
rz+juqXBOdnvQA711j9aJ7PB5EOiQOl3tz+o+bfBck53QLVddD/uCq7BLoS3QMj53b+nfZnByrsJ
QZHbDb+VoLHBT4yNQKDUd7+A6rnBzywWQNcjHEGMJcjBJL06QCCxDEGp7LzBBCd7QJ87IkHH/cHB
ZbWSQE0/i0DQrITBms7FQGZOYkBz0IPBWaPBQK0ZpUCn4InBAzFPQFmL8UCCCM7Bcc2HQCtQDkGg
GdPBrwC8QMfWCEHwVsTBNKabQAUE50CZHL/BeRKkQAPBwECZBNHB40fJQICz6UAn6tTBmihbQI8d
K0AJPabBAMMBQBemeEABWJjBnU42QEJqjUBj6ozB

> <OMEGA_E>
kNukPuCpoj4=

> <OMEGA_NBR>
     93615

$$$$
50222508
  -OEChem-04172616093D

 56 58  0     1  0  0  0  0  0999 V2000
    6.5534    5.7310  -23.7527 C   0  0  0  0  0  0  0  0  0  0  0  0
    7.6090    5.2095  -22.9846 C   0  0  0  0  0  0  0  0  0  0  0  0
    5.2418    5.2552  -23.5649 C   0  0  0  0  0  0  0  0  0  0  0  0
    7.3533    4.2116  -22.0307 C   0  0  0  0  0  0  0  0  0  0  0  0
    4.9762    4.2756  -22.5918 C   0  0  0  0  0  0  0  0  0  0  0  0
    6.0284    3.7587  -21.7978 C   0  0  0  0  0  0  0  0  0  0  0  0
    6.4065    3.3218  -19.4328 C   0  0  0  0  0  0  0  0  0  0  0  0
    4.1411    3.4824  -19.2148 C   0  0  0  0  0  0  0  0  0  0  0  0
    7.1725   -0.7600  -14.6815 C   0  0  0  0  0  0  0  0  0  0  0  0
    5.6644   -1.6027  -21.3442 C   0  0  0  0  0  0  0  0  0  0  0  0
    6.5336   -1.0790  -20.1907 C   0  0  0  0  0  0  0  0  0  0  0  0
    5.7755   -0.6763  -22.5670 C   0  0  0  0  0  0  0  0  0  0  0  0
    6.1313    0.3531  -19.8091 C   0  0  0  0  0  0  0  0  0  0  0  0
    5.3551    0.7543  -22.2034 C   0  0  0  0  0  0  0  0  0  0  0  0
    6.2170    1.3132  -21.0336 C   0  0  0  0  0  0  0  0  0  0  0  0
    5.7484    2.7594  -20.6692 C   0  0  2  0  0  0  0  0  0  0  0  0
    7.1191    0.3031  -15.7639 C   0  0  0  0  0  0  0  0  0  0  0  0
    6.2461    1.4927  -15.3164 C   0  0  0  0  0  0  0  0  0  0  0  0
    6.2617    2.4725  -16.4643 C   0  0  0  0  0  0  0  0  0  0  0  0
    5.3347    3.6734  -16.2728 C   0  0  0  0  0  0  0  0  0  0  0  0
    5.5271    4.6450  -17.4556 C   0  0  0  0  0  0  0  0  0  0  0  0
    5.3740    3.9587  -18.7514 N   0  0  0  0  0  0  0  0  0  0  0  0
    4.3225    2.7509  -20.2868 N   0  3  0  0  0  0  0  0  0  0  0  0
    2.9096    3.7193  -18.6225 N   0  0  0  0  0  0  0  0  0  0  0  0
    6.1091   -1.3527  -14.3561 O   0  5  0  0  0  0  0  0  0  0  0  0
    7.5925    3.2544  -19.1232 O   0  0  0  0  0  0  0  0  0  0  0  0
    8.2863   -1.0421  -14.1662 O   0  0  0  0  0  0  0  0  0  0  0  0
    6.7489    6.4978  -24.4877 H   0  0  0  0  0  0  0  0  0  0  0  0
    8.6148    5.5758  -23.1280 H   0  0  0  0  0  0  0  0  0  0  0  0
    4.4365    5.6441  -24.1705 H   0  0  0  0  0  0  0  0  0  0  0  0
    8.1714    3.7851  -21.4694 H   0  0  0  0  0  0  0  0  0  0  0  0
    3.9675    3.9168  -22.4497 H   0  0  0  0  0  0  0  0  0  0  0  0
    6.0024   -2.6117  -21.6228 H   0  0  0  0  0  0  0  0  0  0  0  0
    4.6152   -1.6449  -21.0164 H   0  0  0  0  0  0  0  0  0  0  0  0
    6.4052   -1.7344  -19.3166 H   0  0  0  0  0  0  0  0  0  0  0  0
    7.5884   -1.0860  -20.5025 H   0  0  0  0  0  0  0  0  0  0  0  0
    6.8172   -0.6679  -22.9202 H   0  0  0  0  0  0  0  0  0  0  0  0
    5.1203   -1.0531  -23.3662 H   0  0  0  0  0  0  0  0  0  0  0  0
    5.0982    0.3460  -19.4315 H   0  0  0  0  0  0  0  0  0  0  0  0
    6.8072    0.7168  -19.0212 H   0  0  0  0  0  0  0  0  0  0  0  0
    5.4829    1.4008  -23.0841 H   0  0  0  0  0  0  0  0  0  0  0  0
    4.2976    0.7518  -21.9007 H   0  0  0  0  0  0  0  0  0  0  0  0
    7.2647    1.3614  -21.3651 H   0  0  0  0  0  0  0  0  0  0  0  0
    8.1389    0.6607  -15.9694 H   0  0  0  0  0  0  0  0  0  0  0  0
    6.6925   -0.1340  -16.6787 H   0  0  0  0  0  0  0  0  0  0  0  0
    5.2182    1.1578  -15.1133 H   0  0  0  0  0  0  0  0  0  0  0  0
    6.6662    1.9566  -14.4118 H   0  0  0  0  0  0  0  0  0  0  0  0
    7.2894    2.8454  -16.5862 H   0  0  0  0  0  0  0  0  0  0  0  0
    5.9540    1.9407  -17.3766 H   0  0  0  0  0  0  0  0  0  0  0  0
    4.2895    3.3320  -16.2413 H   0  0  0  0  0  0  0  0  0  0  0  0
    5.5820    4.1846  -15.3307 H   0  0  0  0  0  0  0  0  0  0  0  0
    4.7768    5.4464  -17.3852 H   0  0  0  0  0  0  0  0  0  0  0  0
    6.5355    5.0808  -17.3993 H   0  0  0  0  0  0  0  0  0  0  0  0
    3.6010    2.2590  -20.7742 H   0  0  0  0  0  0  0  0  0  0  0  0
    2.0811    3.3193  -19.0146 H   0  0  0  0  0  0  0  0  0  0  0  0
    2.8501    4.2899  -17.8035 H   0  0  0  0  0  0  0  0  0  0  0  0
  1  2  1  0  0  0  0
  1  3  2  0  0  0  0
  2  4  2  0  0  0  0
  3  5  1  0  0  0  0
  4  6  1  0  0  0  0
  5  6  2  0  0  0  0
  6 16  1  0  0  0  0
  7 16  1  0  0  0  0
  7 22  1  0  0  0  0
  7 26  2  0  0  0  0
  8 22  1  0  0  0  0
  8 23  2  0  0  0  0
  8 24  1  0  0  0  0
  9 17  1  0  0  0  0
  9 25  1  0  0  0  0
  9 27  2  0  0  0  0
 10 11  1  0  0  0  0
 10 12  1  0  0  0  0
 11 13  1  0  0  0  0
 12 14  1  0  0  0  0
 13 15  1  0  0  0  0
 14 15  1  0  0  0  0
 15 16  1  0  0  0  0
 16 23  1  0  0  0  0
 17 18  1  0  0  0  0
 18 19  1  0  0  0  0
 19 20  1  0  0  0  0
 20 21  1  0  0  0  0
 21 22  1  0  0  0  0
  1 28  1  0  0  0  0
  2 29  1  0  0  0  0
  3 30  1  0  0  0  0
  4 31  1  0  0  0  0
  5 32  1  0  0  0  0
 10 33  1  0  0  0  0
 10 34  1  0  0  0  0
 11 35  1  0  0  0  0
 11 36  1  0  0  0  0
 12 37  1  0  0  0  0
 12 38  1  0  0  0  0
 13 39  1  0  0  0  0
 13 40  1  0  0  0  0
 14 41  1  0  0  0  0
 14 42  1  0  0  0  0
 15 43  1  0  0  0  0
 17 44  1  0  0  0  0
 17 45  1  0  0  0  0
 18 46  1  0  0  0  0
 18 47  1  0  0  0  0
 19 48  1  0  0  0  0
 19 49  1  0  0  0  0
 20 50  1  0  0  0  0
 20 51  1  0  0  0  0
 21 52  1  0  0  0  0
 21 53  1  0  0  0  0
 23 54  1  0  0  0  0
 24 55  1  0  0  0  0
 24 56  1  0  0  0  0
M  CHG  2  23   1  25  -1
M  END
> <OMEGA_C>
cLXRQLBkt0BxBb7BFn3zQDq0pkBv4LfBfrynQK0qqEDlhLzB3k3rQI/FhkDQPrDBwjyfQNXRiEAF
vLTBeOjAQEqOcED8Ya7B9AHNQLaYVEBvdpvBEoSEQGrgXkDbt5nBvoTlQPKOQr9o52rBZEK1QK4j
zb8FwarBEBPRQLQdir+HhqHBhtC4QEojLb8qibTBnjPEQGTGtD4JeZ7BMl2rQGUaQT9/oLHBpvHG
QCQWqD+5RKjB5PK3QKuaMECJWqXBDNDjQDozmz7uOHzBHuDHQFwRvz8IEHXB7F/IQBk+HkDRtoPB
sbWqQHQZa0CsLoLBAN6wQOmjlEAZpYvBKvirQDBbfUDZApbB91GKQPMNMEBWS6LBHjY6QE4IbkDy
+pTBmn3DQGQkrb+WsmXBmvXyQF5HUEBV/JjBe5QEQR9lhb/rqGLBuvbXQJTtz0Dk5sPBZNYJQZRs
skA8BrnBNviNQECctEBIXcHBIL4CQbQ+ckA9wavBZut9QAqsekD+mLPBTBPAQNIlJ8CQ+6zBnK+T
QHqL0r+nIajBivfMQDQA3r9iiJrBitTyQEYDi78MBaTBLibaQFL8Kr+ZXLfBatmjQEHMhr8E7rrB
QySjQLQpsT6mc5vB09TZQLt9Nz9UK5jBHHSvQNBNsz9ArLjByoWJQOF0QD+vNK/Bo3joQIxBrj/K
66rB6jgCQUskKT/Qgn/BBCnWQEkxCb4LboXBofumQNUylD/uz3HBLVHVQHxw+j+MlmbBgELpQNkb
NkBysITBU4e+QKRn+D9eA4vBUUOJQEtAVUAq7oHBq5+yQHvohUCYSnXB7NuYQItIrkDSFIvB1SLR
QEqWokDGMYvBVHdmQIyTEECMMabBKTAFQDZwVEDOHZjBcGc2QO5GiUCQbY7BlW/UQKDstUDLvb7B
t7n1QFSzpUCIWbjBKzqqQI55p0BSNr3BYNHsQBMmh0DyZ7DB9w+hQBJWiUASLrXBfTbCQE+yckCJ
jK7B2zDNQPx+VEBKZJvBgESEQH+CWUDFbJnBh3QWQZm6wUAK+HfBCVawQAIvxL/WNarBLkvLQK8W
hb95uaDB2oO4QHk0KL/7HLTBLmHAQEjR1T4GGJ7BnTStQA6HTj+KybHB8LnGQLOlrD/eBqjBK1e4
QAmfM0B0dKXBMIEHQSWbmkAX4HnBKTPjQKkjokAypW7B0a7FQOd5dEA6Pm/Bfem+QBDdT0BU4ILB
YSaxQMlKi0DVsorBprOrQOEIckAeNpXB3EOKQLm+NEDgtKLBEY45QIV3ZkDBnJTBvOIoQbxQv0AK
BoDBtVHzQFXNUkDcCJnBGVYQQTog40Bram7BgUTbQIB8zUC108TBzRALQb+3sECmi7nB1MyQQICR
s0DiOMLBz04DQR0kdEBNravBxZ2AQGWhfECLDrTBLQS5QMi2JMBsDKzBGDmOQHGsvb8uFKjB257E
QFF81b8HspnBNW7tQIhzjr8nyqLBkoPaQApfOb8PVLbBXK+kQGyGgr+ox7rBksyeQPnR8j6YfpvB
D1bVQN9JQz/KlZfBZOG0QB42tT8u3LjBj8KKQAY1YT9YErDBvfDoQFNPrj+nF6rBnKMEQUYAlEA4
doXBuV0PQd6qfUBEc3LBYyfpQJWvqkBg1V3BDMDSQPq/vEBrtnbB5BHUQKBgQkCaL2XBp0ymQJ1B
g0Crq2jByQPdQMQxM0CrsoXBsuGlQCVtHkC+kYLBeruSQOVcmUANAojB6+TJQClNpECv+4rBnfZl
QA7BHEB9TafBPhYEQAEPU0BxR5jBGRw2QCWbgUBGeo3BOgDSQNEntEDPYb/BclzzQGcXp0ATkbjB
wGKoQColpEAA2L3BfCvrQEAhikDFMLDBovifQCdzh0DtbbXB6C/BQDIOdUAdYK7BZh3NQEo/UUD9
7JrBuCKEQE74V0B0IpnBQHXZQM+LEUHlj5HBFCu0QATSw79seKrBJpLPQLrWgb91KqHB8L25QMmy
IL+2VrTBWsPCQCOI1j5uUJ7BmvysQBwrUj/wxrHBNhHHQBI8sD9vKqjBKCy4QHnhNECyRqXByir8
QCu0AEG86pPBJgf7QBsc3EDuzovBEtvQQKvcwkDWuYzBbE7TQLn3mUDixoXB8juvQPRSdECEZojB
sG6rQO6lYkDN95PBKjWKQEqPNUB2j6LBtLA4QNIybECv6pTBItnYQI2dGkHFjYjBnH3zQFSMTkC1
4JjBVLC+QJEeFkExwJjBkVbYQBV1ykAWysXBQaoJQX5Qs0DXw7nBYNmOQE3lrUBrIcPBeooCQVtn
f0A4GqvBwvZ/QOpHdkDhUrTB0x2+QCV4I8CtfqzBAFGSQMgMxL/wDqjB08bKQHq91L+WJ5rBUX7x
QGBFhL+ZgqPBoXHbQE5jJr9X37bBwGSlQCOYgL8G27rBW1KhQCWr2D5RkZvBjabXQH0iSD9Q2pfB
ww6zQHBuuT+q17jBxbWKQCQGWj82yq/Bhv/oQMN7tT/8e6rBVQP3QG2C9EC7AJzBkt8NQU9wCEFh
hpPBrgILQbpxxkDWaI3B6OH9QB8Y6UD8qIPBcjG2QIr41kDM8YnB8oXLQGbYuUCQIJXBM0nyQCc/
ikDNMYfBsdTQQIoio0Azm3rB2bu1QLPCN0D0N4TBvcGQQIGRh0CSi4XBq+NlQFLjHkAtRKfBwqkD
QJWLYEARJ5nBYFg0QLM3g0Deo43BamnXQBhitECUhb/Bt7P3QN5kpkAsgrjBPmetQE/gpEBeZL7B
zADuQF0giUDUUbDBpW2jQPwQiEDbH7bBxXPDQHk3dUCnza7BFzPNQKJwUkA5K5vB1Z+EQPZKT0BI
/JjB/rbJQNVy70D1g1TBvUiuQBDJxL/v1ajBDKTSQChMfb8O3aHBy7WpQEjAML/yCLPBFGnJQGLT
7D4TsJ7BdKigQLDfRj8YPrDBtbnDQHgzsD8ou6jBNF64QOxFN0DgqqXBTA6bQGCd50CgoFvBgdmX
QNkA2kDcSXPBjPuqQKUorUDTnHbBEwKpQAkTokDIJYfBREyxQPChZEDyj4jBpEasQEjFT0BkzZPB
TWKKQBY7P0BVH6PBAb85QLH8XECqU5TBug3kQOIiAEEOTGHBmWPzQLreWECqCZnBec7UQMMr5ECo
+UHBcN/eQKwIy0BwxsXBlf8LQVInskBParnB1sWUQLker0Ce4sPB5ZQDQbc4e0CgJKvB9CqDQLAo
eEDNVbXBBHK1QKv9JMCEDqvB7SKQQKh2wL8aTaTBon7VQJ45zb+kmJrB+NHwQJT2g790YabBqZTH
QKz2P7+KqrfBGByPQBvKir9Z3LfBx96rQBZZ/D6Q6JnB4EHkQGR3Vz8r35nBbaufQJCKrj+WrrfB
83eBQIcOVz/WMazBpjDiQAebsT99I63BhT+NQHUuzkC3m1HBK7uIQJqqAkEOY1nBRP1rQMyk2UCa
GnjBtXSpQBoe8UAiOX3B7XnMQDnfrECDM3HBR32YQMuPlUDeY23BjSWJQL0SqkAYT4rB7XzBQANr
tEBZgIvB7gTSQEcxVUCF9IXBIDmaQJXBP0CBxoPBuoxlQM8bOUDad6jBx8kEQBHSWkCNz5jBkXI1
QBcEaUDffIzBA0XTQAats0BxUb/BjDjyQPf9p0CFsLfBeNqpQIkwokB1xb7B+MLnQEMci0AZda/B
lUefQHA1hUAGk7bB1Nm9QDqWc0AMsK7B1IjJQLPEP0A2cJvB3GuCQL2pWUCdxpjB91j9QLzpDUH8
Sn/B+Q7cQEr0s7/BCKjBmoDmQP4n+r4zjrHBfVWuQAxSkr/xDqTBlYniQAIofT96X67BGrupQADI
oD7qi6DBFEW1QOAQpz+P0anBtJmxQEJ9MkAO7qXBO/byQLU47EAl8oDBHCjgQITU40CMKozBHmrZ
QC8OtECFPI7BHTy2QHqtoEA194bB+GqyQD8+YEB0mIjBWd6pQBpjS0AA0pPBisGEQDDXQkBS1qLB
6r87QJX9eEDx15PBtnfgQGmYG0HcVYHBt9vvQMgDN0CSnJnBb1YRQbBFE0Hs5XnBpkvbQEYNykDu
lsXBSwwJQTM4tUCUJrjBpyGSQF0Gq0BMp8TB6sv/QOAJgkCUranBQCN/QI4Ib0CxSLbBvNneQA0t
HcAlkKrBOcvyQLSumr8bgaHB6LUDQUetL7+uPbTBVRTQQFpaM7+eH7jBBY+XQJ3TrL90j6rBbm+n
QEnM5r+XO53BJq36QMXhmz9OPKjB+zboQLWyzj8BeLXBLnOIQGTf+z4bD57BZEi/QGVa/z5gv5nB
HN+dQCs6lD9jSbDBrDQIQbJc2UAH43/BI3/bQPms4kABrHXBbSzBQM9T9ED50ozBq1L2QJWQ8EAy
N5LBoALQQKSdr0DCpJbBSq/3QKgjo0BWuYzBblW+QJMgp0AdHH3BxWCXQNe+r0Bd5ojBZo7QQJqe
QUCFJIbBIwuYQMzOR0DUoYPBX0hXQOhCPUDcvqfBAJYFQEd1f0AWB5jBBTg9QMyNhECBGozB797S
QIhXs0ByVL/BA8bxQLASqEC3pbfBQIupQDikoUDjyb7Bll7nQPBYi0DUX6/BJgqfQPzLhECIjrbB
B5S9QHl9c0Bmoa7BrGvJQCV5P0ARZJvBP2OCQMh9WkCqxpjBIlwPQQCE20A/EXzBgIXcQDhxs798
JqjBNO3mQBKf9L7CobHBOLyuQCTYkr8ZL6TBsbriQG04fz8HZa7BC++pQLonnT4bnKDBUGO1QGTz
pj/a1anBenuxQNw1MkA546XB19ryQAlf70Cp5IDBRzHjQM3840DvT4zButHbQFLIs0AhFY7B61a3
QIWWoUAzB4fBC2SyQIIGYkAolIjB6s+pQD+KTEALzJPB15qEQKEtQkAvyaLBlOg7QALEekCl45PB
nUoTQbhC00C8umjB0KrvQEbANUD7iZnBXegcQbHR00BJRIXBnN7aQDaQyUBBo8XBp8gIQeB/tUA0
GbjByNeRQOs0qkBys8TBrVn/QAaggkAojKnBQM9+QLvbbUARRbbBf3bfQPzMHMDCt6rBSy/zQGFQ
mr9ImqHBuvIDQXZgK79ZTrTBmpfQQDNbML93OLjBSwiYQHAcrb+gtKrBid2nQD4H6L8VZJ3B1tD6
QJPlnD97PqjBxVXoQE1e0D84d7XB5Z6IQCVn9T7FH57BDm+/QC7S+j4pzJnBPAqeQE07lD/wULDB
YQPbQLbE40DvNXbBdYP1QFIxCUEZSIDBztbEQB3U9ECbxY3B8Fz7QM4F70CPFZLBgZTTQOmCrkA2
iZbBwZT5QAqcokAyLIzB8aa+QIIiqEB/J33BHyCZQPtjsUC2NonBXRzQQI0tQkArDYbB9aKXQCA0
S0BWn4PBm9hWQAdhO0ADpqfBsaoFQBBngEBOEZjBNJ09QG7/hUADMIzBe07SQOKWtEC5Jr/B9d3x
QAT1pkCl4rfBG0qoQNflpECCRL7B23nnQP/SiUA9sK/BfdCdQH+bh0ASIrbBgBm9QLoQdECaoK7B
R87IQKoUPUCYdJvBpEqCQKbOWUBd1pjBtJoAQeBi5EA9vJzBMbjeQN0usL/yzKfBO/nnQCQX9L7Y
frHB356wQD11lL+f8KPBHpTiQOxjgD/Hkq7BaWiqQPixlj7mlaDBaD21QI2CpT/c6KnBUACxQNCZ
MUBy+6XBPHYFQV6H50BxjZDBkorlQAgy2EAEW4nBMDLcQA18qUCM2IvBMLq2QN6El0CyXIXBriiw
QNQ7UEBXRYjBsL2oQA8ARUBI0ZPBBx6EQEFvQUCu2KLBNRg+QKjxfkAS9JPBNK4PQYM520BABqPB
QxrvQNxRM0DgqJnBr4rbQFxm6UAuK6DBN1faQIsSy0DnZcXBexcJQYDfskBBmLjBwweQQKxXr0AA
18PBJvH/QNfXfkAFK6rByy97QEeZdkAwl7XBHfviQAF/G8AfG6rB4wz1QPZYkL+uS6HBYoEEQRYh
Jr+/M7TB253RQPa8Or8n/LfBq0maQMdFs7+wdqrBxTyqQE2R6L+/EJ3BB876QIYNoz9lkajBrTzn
QFVqzj8wzrXB1d2IQAGW4T6pL57B+X+/QD08Aj+WwJnBWbGdQEJnkT8vVLDBqJcTQSO/00BdzY7B
afMIQX6RBEEpmo7B5JHuQKB920DS44DBB+jIQJaf60D794rBRYjUQHWhpkC1Z5TBoPP4QIKBlkAy
C4rBKsu9QEJTmkAninnBaHyZQBShqUCmO4fBQ+HMQEH7K0BC9YXByk6UQFqLN0DB3IPB46BVQAKK
OkDZqqfBrIMIQC9+hEAPJZjBJdZAQNTXh0BWPYzBSTLUQJpKtECpNb/BBlv1QPBnpUAAkrjBahWq
QLqupUCVpb3BkXPsQGERiEBhVbDB7fCgQLe3iED/WLXBt/jBQGQwdEDXc67B4KnMQMvcUEBP/5rB
m0+EQN9aUkCKCpnBGJQcQT8TskAcqXjBj8SxQCTHw7/wm6rBFnXMQFnHhL8YGKHBHFK5QFyTIb8z
arTB4rbAQKjP0D4tVp7BWy2tQPoCUz/677HB7ZDGQNeArj+7KajBeCO4QJGLNEDFZaXBCb8FQRen
t0Djy4DBM7joQEJnp0AE0HHBmfS6QM3Ds0DuCXnB+cavQHzlpEAH3YfBFa6wQBTtZ0ChnIjBxHir
QHEDUEA+tZPBie+JQB9NNkDDy6LBXOA6QOwra0Dxp5TB8wEsQRi2wEDqr4HBHOvyQOnTVUDT3ZjB
lp0fQdmEn0An/mbBvhLbQE7vykCggcXBWtoKQZSGsEDbzLnBpLuQQMq6sEA/1MLB3BcDQVIxeEBy
Z6vBgZGAQMAEe0BQNbTBTBa7QK7wI8DXkazBnqWPQOVxwL/5dKjBsyrGQGfy1r+MH5rBjp/uQCxT
i7/tK6PBIVXbQBjMLL+Zp7bBBqWlQCJ0fr8LHLvBcBafQN+94T6nv5vBPmvVQA/zQD+kx5fBvV60
QOBguT8z9bjBibqKQHMZYD/1LLDBPb7oQPxnsT/lQqrBj/YCQWbT2UD2YYLBRGkEQYWMpUBTUIjB
OdfqQJFUhEDGwnDBJ8LuQC5ytUBv9WHBHfijQNhKpUBH2G3Bxwi4QIfS1kBdbnjBeY2PQBpgsEAQ
8InB1i/HQEhHskAdhY3BCXfPQBS+T0CqmYXBLnGWQE/FTEDO04PBgvJkQIqhJECAxKfBcYMFQPdS
aEDoDpnB3Dk4QBDmf0AtGI3BsgXSQFYdtUBYFr/BEj3zQFfVp0C+QbjBW3yoQHSopEBKub3BJPjq
QHg/ikDaB7DBv/WfQEFsh0CKcLXBsgLBQA+wdEBMXK7BF13MQFCzT0BT+5rBrv+DQPgcVEBSGpnB
hwYaQQsOfUC7R27B6x62QBsWxb+u8arBmuXOQOrBg799K6HBw1i9QJL6HL/kmbTBAgHBQIoPyz5g
Z57BzwWvQKQSUj9HC7LB1h/HQL8Orz8nIqjBR7y3QLQJNEDjW6XB2j4IQXV8lkBNiXrBJPPlQOCl
mEANqG3BcLzCQKn+skCgKHnBczG6QAHDpEDHH4jB4GCwQElXaUAmp4jBSQKrQLaPUUAbvZPBmIWJ
QCioNEDUtKLBLuE6QM8YcEC12JTBfMYrQczucUC6bXfByqvyQE0dUUDL0ZjBvLkWQSlQYUDQnFvB
BGnYQP3vy0AtYMXBz5MJQTNgtECLVLnBmRmPQNB8rkD1C8PBN2UCQQ4hf0Bp8qrB5gWAQPeidUAk
dLTBszzBQPhfI8Bk9KzBkcSTQEDOyL8OCqnBrnnIQPsN2L98TprBG1zxQJqwhL/b9aLBA5bfQCyy
G7+IpLbBac6qQKw4fb9Dc7vBFgSfQPM+xj6fHZzBV1XUQHpMQj8SpZfBzsy1QGGouz8g97jBUW+M
QCr5Uj8IabDBN3bpQCyNtD/2CarBDbUNQR9Lt0CO1H3BVz0FQTzLhUBd3oTBrxTaQEi7b0CWO2vB
MHvsQDmAp0CsCV7B79GkQOvWr0DvBHDB7bDMQCDB1EBmZXnBf6ueQNWvtkDUSYvBhqPWQK+Rq0At
BY3BcgrLQFvyREDRJIXBTM+SQAGRW0AfM4TBWTtkQN8nIEC0hafB7nAFQMMZbUCbO5nBqsA4QMyg
g0C2ZI3BMHvRQB7vtEAlVr/Bja3yQHaLqECOZLjBRyWoQDf5o0AH+73BapnqQGBXi0ANELDBVdaf
QOIGh0CYnbXB2dvAQNufdUCubK7B55bMQGl2UEAs9ZrBth6EQGgWVUBuFJnB9KAjQeyEvEANyY/B
IT+2QCCOxL+Ma6rB6xbRQNH+f7/gGKHBxxy7QNX8IL/iSrTBWCzDQNyV2D7iTp7BlUStQFSeTz88
wbHBtRfHQP7xsD8AMajBps+3QOInNUAnXaXB0+0LQSsTx0DFFJLBj675QPVbtUDaWYnBGYLKQDfO
vkDnN4zBoT+rQFG7okAasYXBlmqvQBLtZEC/K4jBASCrQE5zU0DtqJPBP7qJQL34NUDRsaLB72Q6
QDd8b0Dw45TBwr0xQawlzkBjeJXBBPTyQFulTUCT7JjBQq4oQUh/o0CXRYjBuLvXQNlyy0DSs8XB
pjgJQUx6tUAldbnBqr+OQIQvrUBqXsPB8DMCQRlxgUBG4KrBPhKAQH3xc0C+prTBJRPBQBhHI8Co
cazBIGOUQPNiyL/NBqjBUJ3MQP4D078CFJrB2xDzQH72fr+nZaPBPtLcQMdVIL+d07bBQA6nQKnC
gr9izrrBFqehQNoDzz5loJvBxpbXQP59TT+W0JfBTMayQOmIuD8L1bjBHwKLQNhYUT8rvK/BbAHp
QJZUtz/ng6rBtA8KQdcK6kAod5LB+HEHQbXxuECm0pnBdjb+QLSNkkCdr4jBLbIAQf6UxEB2p4HB
w7fDQA+v4ECpiYrBP6DFQM5vuEBhyZTBQbGxQKG0p0C8QnrBv1eKQNjZrEDAhofBjfvOQH2NTkAY
doXBtDWWQEoVQkDv1oPBTJ1kQAm8IUAJhqfB20IFQERoa0AhUpnBPWc3QClMg0CEcI3B

> <OMEGA_E>
4rpMPxbwSz8cH0w/foZNP+J6Tz8+eFA/lsZSP0BLSj+6fEo/3IRKPw==

> <OMEGA_NBR>
    103146

$$$$
50157480
  -OEChem-04172616093D

 57 61  0     1  0  0  0  0  0999 V2000
    4.9177    4.1974  -22.8670 C   0  0  0  0  0  0  0  0  0  0  0  0
    5.1795    5.0580  -23.9448 C   0  0  0  0  0  0  0  0  0  0  0  0
    7.2085    4.4650  -22.0946 C   0  0  0  0  0  0  0  0  0  0  0  0
    5.9213    3.9085  -21.9106 C   0  0  0  0  0  0  0  0  0  0  0  0
    7.4739    5.3389  -23.1636 C   0  0  0  0  0  0  0  0  0  0  0  0
    6.4577    5.6553  -24.0948 C   0  0  0  0  0  0  0  0  0  0  0  0
    6.3265    3.4170  -19.4388 C   0  0  0  0  0  0  0  0  0  0  0  0
    4.0654    3.5311  -19.1321 C   0  0  0  0  0  0  0  0  0  0  0  0
    7.4255   -1.0910  -20.6121 C   0  0  0  0  0  0  0  0  0  0  0  0
    4.9903   -1.3958  -21.2162 C   0  0  0  0  0  0  0  0  0  0  0  0
    6.6577   -0.7294  -22.9875 C   0  0  0  0  0  0  0  0  0  0  0  0
    5.7087    0.5489  -19.7978 C   0  0  0  0  0  0  0  0  0  0  0  0
    7.3789    1.2340  -21.5865 C   0  0  0  0  0  0  0  0  0  0  0  0
    4.9423    0.9287  -22.1865 C   0  0  0  0  0  0  0  0  0  0  0  0
    5.9700   -0.9347  -20.1133 C   0  0  0  0  0  0  0  0  0  0  0  0
    7.6448   -0.2553  -21.8948 C   0  0  0  0  0  0  0  0  0  0  0  0
    5.1998   -0.5605  -22.5003 C   0  0  0  0  0  0  0  0  0  0  0  0
    5.6242    2.9623  -20.7281 C   0  0  2  0  0  0  0  0  0  0  0  0
    5.9158    1.4457  -21.0705 C   0  0  0  0  0  0  0  0  0  0  0  0
    8.8563    5.9527  -23.2935 C   0  0  0  0  0  0  0  0  0  0  0  0
    5.5289    4.1677  -17.1737 C   0  0  0  0  0  0  0  0  0  0  0  0
    5.6831    6.9746  -25.9766 C   0  0  0  0  0  0  0  0  0  0  0  0
    5.3163    3.6033  -18.5121 N   0  0  0  0  0  0  0  0  0  0  0  0
    4.2003    3.1060  -20.3630 N   0  3  0  0  0  0  0  0  0  0  0  0
    2.8465    3.8252  -18.5416 N   0  0  0  0  0  0  0  0  0  0  0  0
    7.5261    3.4449  -19.1857 O   0  0  0  0  0  0  0  0  0  0  0  0
    6.7676    6.5393  -25.1238 O   0  0  0  0  0  0  0  0  0  0  0  0
    3.9396    3.7505  -22.7660 H   0  0  0  0  0  0  0  0  0  0  0  0
    4.4023    5.2669  -24.6651 H   0  0  0  0  0  0  0  0  0  0  0  0
    7.9997    4.2150  -21.4032 H   0  0  0  0  0  0  0  0  0  0  0  0
    8.1166   -0.7438  -19.8300 H   0  0  0  0  0  0  0  0  0  0  0  0
    7.6223   -2.1509  -20.8312 H   0  0  0  0  0  0  0  0  0  0  0  0
    5.1693   -2.4578  -21.4404 H   0  0  0  0  0  0  0  0  0  0  0  0
    3.9570   -1.2650  -20.8622 H   0  0  0  0  0  0  0  0  0  0  0  0
    6.8083   -0.1304  -23.8977 H   0  0  0  0  0  0  0  0  0  0  0  0
    6.8455   -1.7899  -23.2112 H   0  0  0  0  0  0  0  0  0  0  0  0
    4.6739    0.6634  -19.4428 H   0  0  0  0  0  0  0  0  0  0  0  0
    6.4045    0.8763  -19.0113 H   0  0  0  0  0  0  0  0  0  0  0  0
    8.0855    1.5737  -20.8148 H   0  0  0  0  0  0  0  0  0  0  0  0
    7.5262    1.8235  -22.5034 H   0  0  0  0  0  0  0  0  0  0  0  0
    5.0966    1.5206  -23.1007 H   0  0  0  0  0  0  0  0  0  0  0  0
    3.9045    1.0493  -21.8423 H   0  0  0  0  0  0  0  0  0  0  0  0
    5.8210   -1.5405  -19.2073 H   0  0  0  0  0  0  0  0  0  0  0  0
    8.6786   -0.3828  -22.2484 H   0  0  0  0  0  0  0  0  0  0  0  0
    4.5053   -0.9013  -23.2823 H   0  0  0  0  0  0  0  0  0  0  0  0
    9.4904    5.3016  -23.9131 H   0  0  0  0  0  0  0  0  0  0  0  0
    8.7748    6.9426  -23.7664 H   0  0  0  0  0  0  0  0  0  0  0  0
    9.3053    6.0592  -22.2950 H   0  0  0  0  0  0  0  0  0  0  0  0
    4.5700    4.2098  -16.6364 H   0  0  0  0  0  0  0  0  0  0  0  0
    6.2339    3.5336  -16.6162 H   0  0  0  0  0  0  0  0  0  0  0  0
    5.9424    5.1829  -17.2655 H   0  0  0  0  0  0  0  0  0  0  0  0
    6.0708    7.6653  -26.7399 H   0  0  0  0  0  0  0  0  0  0  0  0
    5.2305    6.1011  -26.4687 H   0  0  0  0  0  0  0  0  0  0  0  0
    4.9230    7.4882  -25.3697 H   0  0  0  0  0  0  0  0  0  0  0  0
    3.4373    2.9044  -20.9772 H   0  0  0  0  0  0  0  0  0  0  0  0
    1.9995    3.7161  -19.0620 H   0  0  0  0  0  0  0  0  0  0  0  0
    2.8139    4.1465  -17.5952 H   0  0  0  0  0  0  0  0  0  0  0  0
  1  2  2  0  0  0  0
  1  4  1  0  0  0  0
  2  6  1  0  0  0  0
  3  4  2  0  0  0  0
  3  5  1  0  0  0  0
  4 18  1  0  0  0  0
  5  6  2  0  0  0  0
  5 20  1  0  0  0  0
  6 27  1  0  0  0  0
  7 18  1  0  0  0  0
  7 23  1  0  0  0  0
  7 26  2  0  0  0  0
  8 23  1  0  0  0  0
  8 24  2  0  0  0  0
  8 25  1  0  0  0  0
  9 15  1  0  0  0  0
  9 16  1  0  0  0  0
 10 15  1  0  0  0  0
 10 17  1  0  0  0  0
 11 16  1  0  0  0  0
 11 17  1  0  0  0  0
 12 15  1  0  0  0  0
 12 19  1  0  0  0  0
 13 16  1  0  0  0  0
 13 19  1  0  0  0  0
 14 17  1  0  0  0  0
 14 19  1  0  0  0  0
 18 19  1  0  0  0  0
 18 24  1  0  0  0  0
 21 23  1  0  0  0  0
 22 27  1  0  0  0  0
  1 28  1  0  0  0  0
  2 29  1  0  0  0  0
  3 30  1  0  0  0  0
  9 31  1  0  0  0  0
  9 32  1  0  0  0  0
 10 33  1  0  0  0  0
 10 34  1  0  0  0  0
 11 35  1  0  0  0  0
 11 36  1  0  0  0  0
 12 37  1  0  0  0  0
 12 38  1  0  0  0  0
 13 39  1  0  0  0  0
 13 40  1  0  0  0  0
 14 41  1  0  0  0  0
 14 42  1  0  0  0  0
 15 43  1  0  0  0  0
 16 44  1  0  0  0  0
 17 45  1  0  0  0  0
 20 46  1  0  0  0  0
 20 47  1  0  0  0  0
 20 48  1  0  0  0  0
 21 49  1  0  0  0  0
 21 50  1  0  0  0  0
 21 51  1  0  0  0  0
 22 52  1  0  0  0  0
 22 53  1  0  0  0  0
 22 54  1  0  0  0  0
 24 55  1  0  0  0  0
 25 56  1  0  0  0  0
 25 57  1  0  0  0  0
M  CHG  1  24   1
M  END
> <OMEGA_C>
b12dQN1QhkCG77bBJr6lQP3aoUAFj7/B8KvmQKfhjkCowbDBVXu9QM0kekDpSK/BZirvQDnYqkAh
T7nBu6XOQEr4tEAgwsDBWnLKQJmwWkC7gpvB6heCQLb9YUCNDpnBhZ3tQDyni7+g5aTBU7CfQN6q
sr/RuqnBSQzVQAe5Or9f5rfB8q22QEOGDD/vYZ7BFCDsQCb1nT8QsazBFieeQEy9bT/efbHBCgq/
QAxIb78a6KDBOKL0QBy4gr6aKK/BuGSmQAB9D7+VALTBLfmzQDaWPUA506XB3U29QBkLuT98kKjB
QLMNQeN8vkAkWbrBhOywQAVehUDKY4nBHdy1QKgv30Ad0M/BUx+qQASdZkCvGJTBQ2mGQPnHRkCG
56LBaiw2QE/QdEA/VZTBqNXwQNB4XEBAfJnBAZDYQKNB0UCI/cjB4yJ8QKAIcEC8ILbBfd+MQDyK
qEAVUsXBI/3/QAvhhkDUOavBlt0BQXFqPr+/o57BGerzQOunCcBYpqbBM2ulQAZMHcDphavBKkB9
QKvqob/c5abBrt3ZQGN+Bb6CLr/BEw7bQHgb5b+jsLnBnpCVQGvSKT/iipvB7/HMQBlXYD8SF5jB
CV4BQRxvyT++hKbBbNbwQP9n6T8PB7TBRBejQG2kwj8kzrjB6eJ5QN9Phj8Yva7B/EW6QAAuxb+X
qJnBm9sKQe34w76l/LHBWSuQQJW4Zr8oQrrB1dgXQcmmqUD8Tb/BnWUMQYMp3kCaIb7BleIUQVjl
wUA1XLLBCD2SQGy2hkBhF4XBK3zHQFEmYkAO7oTBXii+QDjapUC0H4rBDETCQNZJ9UBe69XBTGCn
QPM7w0Djv9PBcomdQKCf70AN9crB7/xbQG/hOUA+0afBj/D/P2rUbUD9fpjBRBc0QGawhED/wozB
VQmdQAvkhUAzzrbBdA+lQMrOoUC5YL/BP4XmQDtijkD4v7DBAmC9QNsheUCDN6/BRbHuQMueqkDY
Q7nBi+DNQNUbtUAQmcDBionKQAvQWUDacpvB3UeCQHDcY0DhJpnBPFnVQCnSOL+D/rfBOuftQJWg
jb8UA6XBAAKgQFTYs7/816nBOnvsQC/3nD/noqzB+XGeQC5KbD9HerHBkQe3QNXNBz/OYZ7Bh/L0
QKjvhL7LNq/BBrSmQOCrD7/LErTBiFu/QBqZc7+Q/qDBjB60QOd3PEA2waXB1J29QFVrtz+HhqjB
2WkNQad8vkAnV7rBtumwQIRQhkAaeYnBXZu1QAu/3UBnAtDBjCCqQKvEZkD3FJTBHouGQKPgRECc
0aLBdeU2QALKe0CjtZTB3e7wQLR8XEDzcpnBc4TXQLYr0kD1r8jB77F7QLS6bkB7/bXBbQGMQCai
qEA8FMXB4QUAQZUthkBeTKvBeR3aQFDp5L3yN7/BWmbbQN/D479C47nBnB30QFuKCsAj2KbBagkC
QXecRL9pvJ7B5eN9QDtlo78gAafBjbylQMnJHcCvsavB8oMBQQxfxz+ra6bBN0rxQIaT6T/Q67PB
VVejQCbJwj/wwbjBynt6QFMlhT/nta7Bee+VQGu3JD/4hZvBf1fNQHZLWj81FZjBbgMLQXIGxb77
DLLBX3uQQO6uZb+/WLrB75m6QMMpyL/Yx5nByoQXQQXzqUAgZb/BwfwLQZRQ3kDfB77B8bgUQdiZ
wUCDX7LBxDqSQF34h0AvLoXB/4DHQOPVZECN6YTByBq+QAPApkB2X4rBiNnBQFbG9EBa69XBmRWq
QKLqwEDzJ9TBlRSbQM9Y7ECYhcvBkkJcQIP5NEDtl6fB2PcAQFrFdUCI85jBHck0QEWJiUArQ43B
QkmdQIwAhkDo97bBn8ilQDxDoUBLo7/Bk3nmQIDvjkCZtrDBglS9QJUfekANR6/BCiDvQDV9qkAR
VLnBwLrOQA9RtEB+1cDB96LKQA5gXEBFk5vBkTuCQOwVZUDXIJnBY2WfQD0Isb+Z46nBW3DVQDWv
Nr9F6LfB6h7tQMJEjL8g26TBS46eQKm9cT+bjrHBZje2QI7LDT/+Y57BUWHsQPcdnj+WiazBAKqm
QMX4Cr9+HLTBn2++QBJ0br8+9qDBZrn0QPqdgb6sDq/BhvuzQB0APkAhzKXB3mS9QITuuT/ohajB
wroNQb7cvUBLZ7rBJUexQOexhEDxVYnBV1q2QFfX3UBwC9DB0nGqQJZadkDctZTBYnuGQHcuR0Bu
2qLB1T82QDiVcUD9IpTBJcXwQGmiWEDTTJnBwNbYQIxM0EBgHMnBYPt7QC5ob0AAKLbBNgCNQDDH
p0Bsb8XB66L/QJlNh0AsG6vBX3Z8QILin79PJKfBmQylQNF2HMDbtKvBAGHbQNTu4r+gwbnB+57a
QHbc272LIr/B+osBQXtiQr+1h57BHDjzQPb2CcDlpqbBxOKjQDMoxT8c1bjB+n56QIqpiD8l467B
2AOVQJQqLD88oJvB9kvMQDvGXz+4CJjBTGQBQdRvyD9YSabByoTxQAwy6j931LPBBqSQQHhSYL/R
b7rBUUW5QHs8xb8uwJnBhPMKQfe7xL6kzbHBd9gXQRWwqEAXSb/B/IQMQdZc3UCnSL7BxuMUQZ6W
wUA3a7LB18WSQDNMjkDCqIXBSJ+9QC0JUECARYXBKJLIQDfmnkCCjYjBbenCQNO980BRLdbBaRqo
QA+wwUDb8dPBAs2dQNVj7kAhScvBRwtcQHBxOEDVq6fB5e3/P+iAY0DJ/ZfBCho0QOdWhEA7rozB
kZ7nQJehkUCXmrDBIrvuQEYErUAVYLnBAg6fQOzPhUD9xbbBww+/QO+bfEDKE6/BzNGlQKZLoEBr
rr/BAkfOQDNOtUDO+sDBENjKQMClW0BlSZvBKTyCQNdqXkCF45jBZuieQHGUsL96kKnB9frSQNfP
Nr/wCbjBY0ntQC2Ei78/NKXBnT6dQAiYcz9HRLHBflK3QPG5Dz/VUp7Bg7DrQAQFnz9e3qzB3cik
QFc9Cr/l2LPB1SW/QP3ObL8E7aDBpILzQHdSf762eK/BexS1QORfP0CrraXBFGa9QDRpuz/7f6jB
PteAQIQho0Cxi8fBUv2vQJxKg0AWDYnBkD66QIxS50CgWM/BEBuqQDVHZEAQ35PBO1OHQJL7SEC5
6aLBQk81QLeTa0DSJpTBHDXxQGkFYUBvWZnBznDaQKS9z0D7ecnBrJoAQVBVi0CaA6vBWNIGQToC
vEATULrBZTyAQMdZbUBByrXBP0Z8QLB1n78GiabBwlSkQOw/HMAYa6vBgaLYQNUk47/O5rnBnCzX
QHYe5b3oU7/BaAsCQQiHQL+/EZ/BlybzQLubCcBsCafBeKehQDV5xT/wmrjB+qp4QGpNij/+Ua7B
83KWQFiJLj8CVJvBCR/OQKZdYT+MH5jBeXQBQfHPyD/oyqbBqP7vQEgt6z8LMbTBCeCNQGVVX7/y
+bnBCPm6QOoExL9+qJnBkyMKQZshxL6ygLLB+6ZXQL7pvUDATsXBE2yNQJtuqEAkqM/BVANdQFcX
hUAhXsfBayGRQA1Lg0BO0YTB+v3GQLB3XkCZqoTBpUW8QN03pEAyjYnBma/JQDA4+kAisNXBSmOj
QNPG0EBT9NLBTiupQOHl/ECT28nBwIleQEYsQECEEqjB0Zz/P6m6ZEAVdZjBpbkxQEnqe0ABbozB
Dq/nQEDSkUCegLDBfgTvQM4erUCUSbnBmuaeQFyXhkCQorbBlv2+QMRbfUDM+a7BjAKmQE/poEBw
jb/Bo4zOQCNvtUD/4MDBaNHKQKH3W0C0O5vBKB6CQIgrX0Dy35jBo4ftQEn5ir9iUqXBSDOfQBJq
sL/qq6nBJiLTQIWIMr9YIrjBOYG3QDpSDz/+WZ7B5rrrQN1CoD9C46zBcD+dQI5bdT8CQ7HBG2q/
QAT3bL/TBKHBD6jzQOnucr5hja/Bb/GkQADaB79L67PB3g21QBOcP0Bfn6XBS3S9QA4DvD+XfqjB
M6KBQMUDpEBwj8fBFNWvQJg+hEA0ConBi8q6QDws60AvOM7BC/upQAW9ZkAx5JPB20mHQCW5SEAa
3KLB1OU0QAO2a0CLKJTB9i7xQLwHYEBhP5nBY1LaQGyRzkDBnsnBQJoAQaBwi0Ay5qrBPwAHQcHz
u0BFPLrBzLp/QBrlb0DYnLXBvy0CQa1iQL8TLp/BNWzzQDw8CcDyNKfBZMCkQE0KHMDfkqvBXdh8
QJMUoL9coabB1T3XQPKLtb02ZL/Bmt7YQAC94L9cDrrBCKWWQD0jLT9fVpvBelPOQP9aYD8JJpjB
GHsBQXTHyT+ZzqbBnfTvQO8E7T9lMLTBUX2hQH8bxz9zk7jBpbd4QBpjij+RSK7BO1C7QBOxxL8C
xpnBHTYKQbisu766mLLBQgiOQAhfXL9ADrrBtY1ZQKwRv0ADcMXBzc2OQOQHqUDLn8/BkehdQEcv
hkD5bMfBqsOQQH41hUD46ITBT/DFQDHYXkAbl4TB7DG9QAzDpEDaeonBSxHJQD2K/ECi/dTBii2f
QGJ92EDRCtHB4y6wQLQZAUF1HcjBKoNeQHvrPkB8/6fBk/3+P4aSY0DRcpjBXxUxQNXkfECEd4zB
xE/nQF4CkkAogrDBGtHuQHQhrUA+ULnB3n+eQKfzhkC6qbbBJJa+QIfmfUCTAa/BMMqlQNMeoUDd
mr/BfnfOQMZitUBS8MDBgrnKQGE9XUCMU5vBCwuCQFtXYUCg75jBCBPTQNhUML9+HbjBzPbtQFlP
iL8XUqXBSpyfQFHAr7/Cj6nBTJrrQBs+oj/v9qzB1AidQHjedT+AMLHBtsi3QJgkEz+1UJ7BNrfz
QLY9Yr4zl6/B0PSkQFArB7/C1bPB3Oi/QHwtab+P9aDBcMW0QNA4QEApp6XBdGO9QGhbvT/PfajB
1ZaBQFAapEDLqsfBGhCwQOBVg0D5AInBYj+7QLi46kCpbc7BzOqpQEcAc0COX5TBSgmHQAssSUDg
3KLBmAg1QBouaUDN/ZPBfv/wQPZcXEBmK5nBOIjaQA8lzkCauMnBWV0AQZezi0Dk3qrBXuwGQU7g
u0CvQLrB8L1+QHoNcUBon7XBGOrWQGkup73hY7/Buu/YQFaY379mBrrBLAP0QHzmB8AoLafBXW4C
QQ0iOb/OOJ/Bfr19QIQmoL/9eqbB01ilQP2sG8CbcqvBDHoBQUaxzD8T8KbB3ILvQDGT7j9YS7TB
KPGgQIc2xz97hbjBBWt4QB3riT87J67BLfaWQMzeLz/sQ5vB0qrOQMTZZT/zJZjBbTcKQZN7sb5e
rbLBl/SNQIM1Xb8C7rnB3BG8QOeHwr+UsZnBIoRZQF5Ev0AfnsXBxPGOQFPeqEC2uM/BqahdQEFT
hkDygcfB1PuQQGjpikD4VIXBcDi+QN33TkBB84TBQ5vFQJP8nkBQM4jBNcHJQM7E+0BEONXBNJuf
QBwR2EDmPtHBQJ6wQDgDAUFcZMjBodpdQJscPkAw8KfBywr/P5kCXEAjD5jBCokxQNIAfECWW4zB
FpeeQIT8hUD2+rbBnE6nQBK5oEA/ur/BW13nQPYAkEACg7DB1ie+QGqIfEBIEq/BICXwQNI1q0CU
LrnBQBbQQJMjtEAO2MDBCCfKQGr/XUDFN5vBI8uBQGY4X0D6x5jBd5qxQC/9ab8vFbfBVSj4QLPY
Wr8qT63B87q0QAKlvL9oaaPBzt7VQCyMpD9TabPB6vyRQAGBKD87kqnBM7PYQFppOj/Uvp/B5End
QBGmSr6IOrbBEIOZQNcEU78FVazBX1HgQFnzQb+mgKLB1Gy0QJsHQECkpaXBpze9QFuouT+UhqjB
zycOQTsFv0CDLLrBX56vQE/ZgUAcy4jBtGO3QOmn30DKoM/BN5ypQGxfZED+wpPB3dGGQB7NTUBV
76LBcJM0QBzAakAz9JPB7VDwQJhKZ0DpO5nBJGfaQLNFz0BmRMnBWwd/QPJFbkADRLbBuNGOQMCO
pkC0pcXBujgAQX+IiEAt3qrBBFueQLO33r4kYL3BOdG2QKNW/L/6ILnBoZH9QD/n9L9zSa/BmY8L
Qfj4rL7Rq6zBR6OjQCxlsr/evpvBmge6QFA0IsDYVKXBoRD1QFL55D//xbLB2v7CQNF24D+H07nB
rDR9QKr0jj9A76/BN6SAQPorOD/77aHBnc/HQHRKSj9cCpjBfNT3QFgXnj+SF5/B0FvuQDqZi77A
5r3BGzl1QFgorL8w+azBOJnzQGJknb+gLpzBmIYYQbHLqUAY6L7B8eAMQQdD3kCALb7BqREVQcZf
w0CeJ7LBitKQQNAugUDgiITBvrvGQMF/WkBkm4TBvdC7QCfbokB7BInBOA3EQDaK9EAf99XBauil
QCbNxEA7RdPBRJChQL4V8kBxfMrBRK5dQG05SkCcNqjBsP79P7bZZUBUSZjBmSQxQFr4d0BhI4zB

> <OMEGA_E>
AAAAAAC7LzwAdTo8gKdUPYA+Xj0AnnA9QLXTPQ==

> <OMEGA_NBR>
      6855

$$$$
50157415
  -OEChem-04172616093D

 50 53  0     1  0  0  0  0  0999 V2000
    8.8553    5.7864  -23.2722 C   0  0  0  0  0  0  0  0  0  0  0  0
    5.4428   -0.4731  -22.5394 C   0  0  0  0  0  0  0  0  0  0  0  0
    9.7015   -3.1819  -19.7014 C   0  0  0  0  0  0  0  0  0  0  0  0
    6.3683   -1.2380  -21.8042 C   0  0  0  0  0  0  0  0  0  0  0  0
    8.7711   -2.4891  -20.4920 C   0  0  0  0  0  0  0  0  0  0  0  0
    5.2027    0.8716  -22.1950 C   0  0  0  0  0  0  0  0  0  0  0  0
    4.9307    4.1980  -22.8632 C   0  0  0  0  0  0  0  0  0  0  0  0
    5.2256    5.0536  -23.9408 C   0  0  0  0  0  0  0  0  0  0  0  0
    7.2457    4.3534  -22.1143 C   0  0  0  0  0  0  0  0  0  0  0  0
    6.8089    0.6841  -20.3773 C   0  0  0  0  0  0  0  0  0  0  0  0
    9.8721   -2.8148  -18.3506 C   0  0  0  0  0  0  0  0  0  0  0  0
    8.2544   -1.1322  -18.5414 C   0  0  0  0  0  0  0  0  0  0  0  0
    7.5335    5.2406  -23.1660 C   0  0  0  0  0  0  0  0  0  0  0  0
    7.0545   -0.6609  -20.7108 C   0  0  0  0  0  0  0  0  0  0  0  0
    8.0302   -1.4404  -19.9096 C   0  0  0  0  0  0  0  0  0  0  0  0
    5.9317    3.8622  -21.9164 C   0  0  0  0  0  0  0  0  0  0  0  0
    5.8916    1.4692  -21.1106 C   0  0  0  0  0  0  0  0  0  0  0  0
    6.5193    5.5955  -24.0853 C   0  0  0  0  0  0  0  0  0  0  0  0
    6.3254    3.4026  -19.4427 C   0  0  0  0  0  0  0  0  0  0  0  0
    4.0597    3.5288  -19.1246 C   0  0  0  0  0  0  0  0  0  0  0  0
    5.6115    2.9342  -20.7288 C   0  0  1  0  0  0  0  0  0  0  0  0
    5.5551    4.1653  -17.1676 C   0  0  0  0  0  0  0  0  0  0  0  0
    6.4929    7.8310  -24.8621 C   0  0  0  0  0  0  0  0  0  0  0  0
    9.9282    6.2363  -23.3481 N   0  0  0  0  0  0  0  0  0  0  0  0
    9.1565   -1.8093  -17.7948 N   0  0  0  0  0  0  0  0  0  0  0  0
    5.3222    3.7960  -18.5747 N   0  0  0  0  0  0  0  0  0  0  0  0
    4.1881    3.0499  -20.3434 N   0  3  0  0  0  0  0  0  0  0  0  0
    2.8396    3.7503  -18.4966 N   0  0  0  0  0  0  0  0  0  0  0  0
    7.5276    3.4540  -19.1983 O   0  0  0  0  0  0  0  0  0  0  0  0
    6.7873    6.4446  -25.1379 O   0  0  0  0  0  0  0  0  0  0  0  0
    4.9153   -0.9187  -23.3698 H   0  0  0  0  0  0  0  0  0  0  0  0
   10.2815   -3.9890  -20.1240 H   0  0  0  0  0  0  0  0  0  0  0  0
    6.5543   -2.2667  -22.0756 H   0  0  0  0  0  0  0  0  0  0  0  0
    8.6254   -2.7548  -21.5287 H   0  0  0  0  0  0  0  0  0  0  0  0
    4.4886    1.4510  -22.7615 H   0  0  0  0  0  0  0  0  0  0  0  0
    3.9347    3.7942  -22.7565 H   0  0  0  0  0  0  0  0  0  0  0  0
    4.4577    5.2963  -24.6604 H   0  0  0  0  0  0  0  0  0  0  0  0
    8.0368    4.0421  -21.4482 H   0  0  0  0  0  0  0  0  0  0  0  0
    7.3331    1.1256  -19.5426 H   0  0  0  0  0  0  0  0  0  0  0  0
   10.5902   -3.3483  -17.7456 H   0  0  0  0  0  0  0  0  0  0  0  0
    7.6883   -0.3342  -18.0840 H   0  0  0  0  0  0  0  0  0  0  0  0
    4.5993    4.4382  -16.6966 H   0  0  0  0  0  0  0  0  0  0  0  0
    5.9968    3.3116  -16.6328 H   0  0  0  0  0  0  0  0  0  0  0  0
    6.2436    5.0221  -17.1227 H   0  0  0  0  0  0  0  0  0  0  0  0
    6.7325    8.4402  -25.7462 H   0  0  0  0  0  0  0  0  0  0  0  0
    5.4249    7.9382  -24.6216 H   0  0  0  0  0  0  0  0  0  0  0  0
    7.0970    8.1711  -24.0080 H   0  0  0  0  0  0  0  0  0  0  0  0
    3.4216    2.7966  -20.9335 H   0  0  0  0  0  0  0  0  0  0  0  0
    1.9862    3.5425  -18.9747 H   0  0  0  0  0  0  0  0  0  0  0  0
    2.8153    4.1173  -17.5667 H   0  0  0  0  0  0  0  0  0  0  0  0
  1 13  1  0  0  0  0
  1 24  3  0  0  0  0
  2  4  1  0  0  0  0
  2  6  2  0  0  0  0
  3  5  2  0  0  0  0
  3 11  1  0  0  0  0
  4 14  2  0  0  0  0
  5 15  1  0  0  0  0
  6 17  1  0  0  0  0
  7  8  2  0  0  0  0
  7 16  1  0  0  0  0
  8 18  1  0  0  0  0
  9 13  1  0  0  0  0
  9 16  2  0  0  0  0
 10 14  1  0  0  0  0
 10 17  2  0  0  0  0
 11 25  2  0  0  0  0
 12 15  2  0  0  0  0
 12 25  1  0  0  0  0
 13 18  2  0  0  0  0
 14 15  1  0  0  0  0
 16 21  1  0  0  0  0
 17 21  1  0  0  0  0
 18 30  1  0  0  0  0
 19 21  1  0  0  0  0
 19 26  1  0  0  0  0
 19 29  2  0  0  0  0
 20 26  1  0  0  0  0
 20 27  2  0  0  0  0
 20 28  1  0  0  0  0
 21 27  1  0  0  0  0
 22 26  1  0  0  0  0
 23 30  1  0  0  0  0
  2 31  1  0  0  0  0
  3 32  1  0  0  0  0
  4 33  1  0  0  0  0
  5 34  1  0  0  0  0
  6 35  1  0  0  0  0
  7 36  1  0  0  0  0
  8 37  1  0  0  0  0
  9 38  1  0  0  0  0
 10 39  1  0  0  0  0
 11 40  1  0  0  0  0
 12 41  1  0  0  0  0
 22 42  1  0  0  0  0
 22 43  1  0  0  0  0
 22 44  1  0  0  0  0
 23 45  1  0  0  0  0
 23 46  1  0  0  0  0
 23 47  1  0  0  0  0
 27 48  1  0  0  0  0
 28 49  1  0  0  0  0
 28 50  1  0  0  0  0
M  CHG  1  27   1
M  END
> <OMEGA_C>
Oq8NQdspuUB4LbrBESuuQBZA8r6fULTBQTkbQVSkS8CKnJ3B0cjLQIF3nr/xbq7Bk1YMQfFMH8Cw
76PBH3ymQNkjXz90j7HBNcidQCBWhkDv57bBZTinQCy3oUDDhr/B+NznQCdPi0AB6rDBgOLZQNgh
Lz+jBKPB8vMdQWkmNMAXzpLB9xEEQZfrkL/ZVJTBbRLxQDKzp0DnU7nBg77hQIUxKb+tr6XBk3sA
QTZeuL/tRp/BtNC9QPUtd0DeVK/Bn4e8QLcPvD+Z4qjB8J3QQHoOs0CvrsDB1WnKQBvEWUC3ipvB
TOmBQJLYYUAm/5jBepGzQIzJO0Cb1KXBlMOxQIVKhUBUV4nB4cXPQMeX+kCV5cbB/tkeQeePx0Dv
yLrBAYESQaeX57+8W47Bmk+qQOPwckAPmZTBGAWGQGIxQ0BAv6LBq7w1QHoEcEAG+ZPBXuLwQN8N
XUAIlpnBVTHZQAI6zkBzGsnB20mdQPQua79i9brBDoEkQYBLf8AG/qDB2LzRQCcREcDPmrDByQEK
QSxOMMCuOqzByKKPQGy7uT+LF7bB79J7QGbTckBEDbbBUKWOQBl7qUBpSMXB6ZYAQRpZgUDslavB
iajqQNkUkD81V5zBhnEpQURLVsAM943Bxwb2QG8hq74CrJDBLy2TQKAFjkCckoXBu+W/QAHxU0AL
EIXBpsvHQMe0oEBY+4jBV3DXQPQKB0Eg+M3Bj5itQGwF/kAW+cTBVRrjQNu8AkFsEMDBTPtaQNn6
MkDVd6fBTz3+PwS5YkAlzJfBJC00QADBg0CdiIzB4VsNQep4ukAAILrBMVCkQDkRLL8ROLDBQDot
Qas5i7+sQp3B+dbMQPO7nb+cO67BkQkZQQecBL92FZ/B+x+cQNUqLD9xmK3B8DGeQI7KhECpI7fB
C1SnQMBtoECQu7/Bs5LnQJBjjEBYx7DBU6vlQAC5aj+UeKfBUkw0QRC4CMD46aPBFH4UQW6hBMAa
363BdqTwQN55qECHR7nBYtXtQP+u4L4rzanBpVQMQUOzgb8EkKfB5OW9QPvvdkCjXa/BRXy8QP6J
vD/T4ajBZ0vQQF/iskBJwsDBtk3KQK7sV0Cdc5vBhOGBQErfYkAU/pjBQ4GzQDsDPEBF2aXBNK+x
QHClhUB7WYnBL8nOQClk+kA4BMfBNnIeQW47yUC6wbrBAAkoQU34JsBHA6zBGEyqQOs0c0Dhl5TB
z+yFQEnRRUCKzaLBJag1QAtvcED485PBc6LwQIF3WUDHU5nBcpjYQGETzkDzMsnBzWmLQHBIo79e
xLPBajs3QX0ZOr+G1ZbBQcPSQOFPEcC+GLDBTkoTQSO0kj5SFprB4Pt5QHN2jD/MLq/B8519QIgp
bUApdrbBd9iOQLiHp0AOkcXBZFgAQWOfg0B8Q6vBBFj/QMlJxT9hjqTBytpDQV2uJMAxhqLBk+EK
Qd2cHcBJVrTBXTSTQIJEj0C7qYXBNQC/QPpIVEBL+4TBYGDIQEWFoEC9AYnBw0DWQALxBkE1Gs7B
IpasQKiI/UBIFsXBywriQHvBAkHcMcDBLqFaQMoHOED2nafBLSD+PxPoY0C20pfBkws0QCxcg0DY
dIzBzlkNQUaKukBaH7rBflSkQPHzK7/6ObDBwwApQUucJMD/bqvBMNvMQN6xnb+yPq7Bc5wUQfU0
BMAl1a3BfSacQNJLLD+8mq3BwjKeQFrNhEDYJLfBjFOnQCJzoEBcvL/BFZLnQHJtjEDQx7DBd7Hl
QA62aj+zeafBA6o0QWI/AcAT2aLBsggZQf7TAb9BEJ/BPKLwQDyGqECOR7nBNN/tQMx54L4M06nB
N10MQaFhgb+MlKfBLue9QA35dkCmXq/BaIK8QNeRvD9g46jBWUnQQALsskCPwsDBD07KQGL0V0Cb
dJvBFuGBQGPZYkCd/5jBoISzQGsHPEB52qXBD6qxQGCshUAXW4nBXLnOQHRu+kCHA8fBXG8eQbtQ
yUB7wLrBDKcsQTsygb/f2JzBcUqqQIU8c0BdmZTBQO+FQF3QRUAwz6LBW6Q1QKRfcEDF9ZPBRqLw
QGSCWUBSVJnBFJTYQEsgzkCuMsnBoWuLQNo5o78xxbPBXrIvQcgjWMCjHrDBkcPSQHZOEcCUGrDB
KmQLQSOJHsBfW7TBPgx6QLuPjD/3Ma/BLqJ9QMwobUC+d7bBEtiOQNiLp0D5kcXBJVgAQU6rg0DK
Q6vBylr/QDs0xT+Ci6TBv1hEQcVMGsD+A6HBPdoSQS4lmT5nN5rBwC2TQIxKj0Dzq4XBn/u+QJJa
VEBH/ITBj1nIQKKNoEBqA4nBiy/WQOn3BkEBGc7BtISsQG2K/UCBFsXBR/XhQAvIAkF0MMDBpKha
QPcGOEAGoKfBSB3+PxrVY0DZ1JfBcAM0QNRSg0CBdozBV7ANQfIquUCWLbrBYx+uQKSV8r5CTbTB
JEoTQcWt8b/CqY7BE7vLQHyInr91aq7BxxAEQedgkr/bWpTBsXKmQPAHXz92jbHBUcqdQIBXhkBa
6LbBXzqnQNa6oUDbhr/BFN/nQPNPi0Bn6rDBA+fZQGVULz+VBaPBI38eQdiuOsBj8ZPB0EYMQWqT
H8BcAaTBURTxQE21p0APVLnBlq7hQAI6Kb9qq6XBPHAAQYqhuL82RZ/BotK9QIIvd0BcVa/ByIW8
QOYWvD994qjBB6DQQNERs0DFrsDB8WnKQJDFWUD2ipvB1+qBQJbMYUAq/5jBTpKzQEbNO0A51aXB
0cWxQBBIhUAkV4nBFMrPQNOb+kDA5cbBatseQUaQx0AZybrBPeUaQeIOTcDmYZ7BClCqQPLhckCY
mJTB5wWGQIY4Q0AowKLBAMI1QMTsb0Cg+JPBtOLwQKgbXUCAlpnBPDTZQHg9zkCZGsnBWD6dQB1s
a7+98brB3WIWQSZ41r+3VYbBva7RQMwbEcBelbDBZnb2QDvKtL6AdpDBmZWPQCuiuT8XFbbBxtd7
QAjUckD1DbbB4qaOQKSAqUA9SMXBBpgAQfBYgUB3lqvBUsLqQD1XkD/eXJzBXDwqQX9hX8D3kI/B
eZUJQcgJL8BqUazBki6TQNr6jUCnkYXBMvK/QJ/2U0DeD4XBzcXHQAi5oEA1/IjBIHXXQNEMB0FP
+M3B3ZytQIgK/kBB+cTB3x7jQKG+AkGZEMDBfPxaQA0RM0B5eafByUf+P4mnYkAQzJfBtDI0QPGt
g0CCh4zBgpeFQF1rq0DwDcfBtT+uQEC2777mUbTBqtMgQa1Yxr87fpTBmd7LQK/Jnb/Vb67BR3sS
QVjqSL8Hk5rBK7SmQPfhYD8TmLHBjeznQBdii0AG/LDBJdrwQN5Wp0Cif7nB9KqdQMhkhkA22bbB
G73ZQK/hLz/e+KLB5UIdQczJO8BDZpPBRqz8QEGGNMDCAp7B08umQACfoUCviL/BdRDiQEyyJr8V
wKXBCc0AQS2Btr9ybp/B5dS9QGGdd0CzTa/BT528QBTFvD8/46jBNlvQQOP2skDvu8DBom/KQFX9
WUDVi5vBAeuBQPTRYUBo+ZjBG5azQBIPPECd0KXBPcqxQNtGhUD+U4nBhDnUQB/8+kC1gMbBG0FV
QLxjs0BbL83B1FUMQZvPYsBVGpjBilSqQOr9ckDClZTBageGQE0zQ0AXuaLBfLw1QFLUb0BH8pPB
yPDwQDwUXUAZoZnBMuTZQMBDzkA/EMnBeUOdQG5Iar/C8LrBv28uQTalir8TspDBJqPRQC/kEMCw
j7DB4uUUQf07jj7piJvB1xCQQFztuj+9K7bB+64AQTiogUCwqqvBZ2MIQQX2s0D3frrBnqt7QJDm
ckCi7bXBR/LpQKh/jz9PLZzBfkcoQW6BYcCIs47BPenhQIaSVMAcu6HBKDKTQB7ujUBFjYXBI/2/
QL3tU0BdD4XBysTHQLy7oEDy9ojBkG3cQFBMB0FLhM3BnbCyQNpmAEEgQsTBmTzpQG3OAUG4x7/B
kgNbQFfZMkBacKfB2UT+P6BtYkDLxJfBiyY0QJWng0DCgYzBH4cDQfBE2EBhwLXBWPbCQCUhx77z
urXBN2cCQWv2aMADm5PB407OQPn1ob+KeK3BkhD5QHSJM8CPIJzBn/G6QJBVdj8igLPBPbSjQHFW
eUBAr7jB8SWuQA1rlkBfhcHBbWbeQGAcnEBQla7Bb6/HQFRFDj+LmKDBnUj1QGgdV8CrQYnBzZHP
QMnFvr/qdo/BAyLnQC3Yt0DgIrfBSgDRQFTgS78v1qLB89vdQEKj2r+EFprBsvS8QE4me0DSRK/B
Kr29QPACvD/Q36jBXczPQH8/tEArxsDBYnrKQN4DWEAEppvBnhWCQE39Y0BhOJnBXYezQKKGPEBN
/qXBzxCyQCzEhkC5nInBbIa9QC8r80BBN8rBxVYQQW3q8kDaf7TBSEXbQOGGE8ACVofBGJ6qQLgG
dUDK15TB3A2GQHzaQ0D366LB2D42QNn+ckCELpTB2M/wQEyrUkDAlZnB3RDZQNRAzkB8XMnBTGHA
QJITQb/e1b3BTcMMQZabj8Ar9ZTB8QLVQJ1NE8AZPK/BHFMCQXjrP8BqHqTBlYCyQA6w0D/P87nB
RxmIQB3eT0BgErnBVF2cQLhVk0Cc48jBN2fxQIEMnkAGYqfBhCjIQMpfZj86aJjBTlr+QCIqgMCW
s4LBHMy6QBryJr+g0Y3BkrmTQM0bkUDw+YXB9MK+QOxIVkA9LYXBdEjJQKYxoUBxTInBZ+LGQGgg
A0HwOtHBcyScQHya6EAaHsvB/YvAQPNkA0Hi8sLBGwNbQFq0MkCmlafBa/H+P5g2ZUCj8ZfB9/w0
QLLIhUDpy4zBnIUDQYhH2ECMwLXBB/3CQDo5x76furXBhBndQEfVGMAkeofB/VDOQDvuob/xdq3B
mKHPQMMywL+JfY/BPfK6QPVIdj/ngLPBdrajQKhPeUC5sLjB6yauQExqlkB+hsHB/mLeQBsfnEDt
la7Br6fHQERqDj9nmKDB2kD4QKd3XcBBNIrBgxr5QO27M8ASNpzByx7nQDTbt0BWI7fBo+3QQFPP
S79E1KLBdsndQC7W2r8NGJrBcfS8QMwle0DhRa/BzLq9QHQHvD+p4KjBecrPQMVBtEDIxsDBbXzK
QAEGWEAxp5vBxxeCQEb4Y0CcOJnBOoezQH6IPEBI/6XBJRSyQH6zhkAFnInB54m9QEgv80BkN8rB
rFUQQc/r8kCSf7TBGt0CQTLoacANYpTB1aCqQMz6dEDg15TBEg6GQE/fQ0DD7KLB70Q2QNn4ckBX
LpTBJ9LwQMGpUkBdl5nBKQ/ZQPlBzkBfXcnBT3DAQMUzQb961b3BMsfSQOwHEMBAnH7BeBHVQMtF
E8DcOa/BOcm6QMFwLL9/lo3BI3+yQMOd0D8H9bnBxB6IQP/OT0ByFLnBZV+cQJlUk0Dj5MjBeWHx
QFQRnkBKYqfB+STIQKavZj+OaJjBBUgBQRqYhMBFB4TBuRICQZRhPsAWSqTB/7yTQC0HkUB8+IXB
8sa+QE4fVkBDLoXBc0vJQPsgoUA6SonBleXGQN4hA0FMO9HBJCacQBaj6EBlHcvBFJXAQMBmA0EV
88LB1QFbQMHBMkColqfB+vr+P743ZUCS8ZfBfQU1QMnBhUBSy4zBsXADQf5R2ECoprXBvyqtQOmv
C784sLPBsGQOQUDjXsCCdpfBk43MQMfIor8rI67Bn3H+QOSuM8BIu53BhpGkQC0wSj9M57DB6VKm
QNfHc0ANCLnBYx+wQEGflEAEvMHBFWbeQAnhm0BXjq7B8kzbQGBwLz/XKKPBko8fQcqwMMBF95LB
MVITQZ4sQ7/elZrBJkHnQC2jt0AcGrfBF3PjQClDKb9ot6XBGpwBQS3Rtb8UXJ/BRRK+QO09eEAJ
Xa/BQnK8QAsSuT9jyajBXHzQQCqzs0CmzsDBFoHKQDqgV0DXdpvBQRWCQJhHYkDrF5nB8ruzQKSX
O0Dh36XBl9KxQKxphUChYYnBy5y9QIBr80B828nBojUQQSAF80DpXLTBmskhQejltr9/jpTBF3eq
QG6RckDtn5TBdjaGQNE9RUC276LBGCY2QOUUcEB6CZTB7gTxQErzWUAEf5nBmR/ZQLtczkCNUMnB
I5WbQKDKgb8fHbrBee8MQXpxkcBdGJbB7izTQBP5EsCgTrDBveTjQErWVcCBP6HBomqLQISWqT8e
ALXBKFGMQCOVRkA5tbnBN8GeQFRMkUBmKMnBOILwQEy7nkBcO6fB1AjtQOMxkz8fvpzBPDUrQTsY
UsCII47BP00VQTxxmT62zJvBjE2TQGzjjkAcsYXBj0u/QP79U0BaAoXB2F/IQDRooECLDInB5nfG
QIWBA0E009DBmyKcQMsB6UCtpMrBt0PBQOY8A0HTg8LBP2pbQBuFN0BryafBiO7+PxbPY0B15pfB
7LM0QFskg0A4iYzB9XYDQeVE2EDyp7XBMDGtQEalC78Ls7PBsZwhQRfcw797bpTBE5DMQHO+or8Y
JK7BEksTQV4uRr8YmJrB9JikQDBNSj+J67DB5UimQOPYc0BfB7nBkRewQJSmlEBou8HBBG7eQOrW
m0DEj67BYjzbQNRjLz80J6PBQAQeQWlmOsBhMJPB8x/+QLsONMAYxZ3B5EjnQGmat0AtG7fBkHTj
QKUOKb/SuKXBD5cBQab4tb+hXp/BYhC+QM48eECDXa/BdG28QDAUuT+yyqjBMX3QQOuxs0DfzsDB
7oDKQNGcV0DHd5vByBWCQGZOYkA9GJnBebizQL2WO0Ci4KXBftexQJRlhUAXYonB6qS9QDNw80Dq
2cnBcz0QQSL18kBUXrTB8Q4NQTPPYcBWzpfB3niqQPyOckBcoJTBIzSGQLw9RUDd76LB0yc2QHMr
cEB2CpTBNAXxQDrkWUAPgJnBUCHZQHdczkB/UMnBW56bQLnNgb8dILrBQzsvQWGEh7/GrpDB9izT
QJf4EsDQTbDB8L4VQdCXkj5crZvBBn2LQIizqT+bB7XBhz+MQNW2RkCas7nBabSeQFlZkUA4J8nB
1ZHwQIqonkDEPafBW+HsQJEPkz+It5zBBwspQQSwX8BFcY7BfT7jQItdVMB3ZqHB1VOTQG7gjkAJ
sYXBu0+/QFjyU0BaA4XBeWbIQKhioED2DInBSYDGQCqEA0GC0dDBhCicQLAM6UBXosrBnVLBQMg9
A0H+gcLBAmNbQDOBN0D+yKfBI/H+P+/sY0C155fBN7Y0QK4xg0BkiozB+KCFQBVmq0DWDsfB8jmu
QNDG776pUbTBwp4NQQkQYMBcwpfBGNPLQE/onb+xb67Byub8QCFANMA++Z3BYrKmQAvVYD8Cl7HB
qPLnQKlgi0CR+7DBhuHwQLpTp0CAf7nBS7KdQOxghkCM2bbBtb/ZQIydLz/W+KLBh8IeQVdJMsCu
KZPBtXkSQdh3Rr+mjprBFNSmQGmaoUArib/BLADiQHsxJ7/pvaXBsMgAQWiMtr/oap/BG9u9QKWY
d0CLTa/B5J+8QFizvD+L4qjBo2PQQMvxskBZvMDBpXLKQP32WUBHi5vBOu2BQADXYUAM+pjBeZuz
QBgKPEBN0KXBfsqxQFBLhUBKVInBSz3UQCv2+kBwgsbB3VZVQNRds0DIMM3BIvYgQRm6ub9VmpTB
RlaqQIT/ckDglZTBWQuGQO8yQ0BtuaLB6b41QEHdb0Cy85PBqfPwQDwNXUAeoJnB+O3ZQI09zkDj
EMnBej6dQKooar9S8brBmC0MQSAbksBkgpbBO5fRQI3wEMALkbDBp3XiQBEeVsBRlaHBQQ6QQAzw
uj/YKbbBl7EAQdeogUC7qavBHGcIQQDzs0CnfrrBhrp7QK3dckA97rXBXwPqQOxkjz+tL5zBKWYq
Qe4qVMAVYo7BxGwUQdETlD68pJvBITKTQE31jUAajoXBY/u/QGX4U0DmDoXBOsbHQFK/oECb94jB
4XLcQKFIB0Ephs3BorKyQHtiAEEMRcTBBjzpQKTNAUH0yL/BDg1bQAbYMkDmcKfBQE3+P2p1YkCM
xpfBeSU0QAuug0Big4zB

> <OMEGA_E>
Tg0zPwxuND8ocTQ/YAgzPyoxOz8ImDo/qJc6P062OT+2qTk/eDI7Pw==

> <OMEGA_NBR>
     15643

$$$$
50157426
  -OEChem-04172616093D

 52 55  0     1  0  0  0  0  0999 V2000
    5.1342   -0.6750  -22.0259 C   0  0  0  0  0  0  0  0  0  0  0  0
   11.1849   -0.7849  -20.7325 C   0  0  0  0  0  0  0  0  0  0  0  0
    6.4018   -1.2338  -21.7810 C   0  0  0  0  0  0  0  0  0  0  0  0
    9.9404   -0.2031  -21.0169 C   0  0  0  0  0  0  0  0  0  0  0  0
    4.8793    0.6703  -21.7011 C   0  0  0  0  0  0  0  0  0  0  0  0
    4.9305    4.1355  -22.8803 C   0  0  0  0  0  0  0  0  0  0  0  0
    5.2040    4.9942  -23.9553 C   0  0  0  0  0  0  0  0  0  0  0  0
    7.1800    0.9173  -20.9432 C   0  0  0  0  0  0  0  0  0  0  0  0
    7.2214    4.3804  -22.1029 C   0  0  0  0  0  0  0  0  0  0  0  0
   11.2471   -2.1558  -20.4120 C   0  0  0  0  0  0  0  0  0  0  0  0
    8.9236   -2.3800  -20.6438 C   0  0  0  0  0  0  0  0  0  0  0  0
    7.4385   -0.4363  -21.2432 C   0  0  0  0  0  0  0  0  0  0  0  0
    8.7803   -1.0100  -20.9733 C   0  0  0  0  0  0  0  0  0  0  0  0
    5.8912    1.4705  -21.1133 C   0  0  0  0  0  0  0  0  0  0  0  0
    5.9241    3.8517  -21.9174 C   0  0  0  0  0  0  0  0  0  0  0  0
    7.5077    5.2683  -23.1644 C   0  0  0  0  0  0  0  0  0  0  0  0
    6.4869    5.5858  -24.1040 C   0  0  0  0  0  0  0  0  0  0  0  0
    6.3223    3.3727  -19.4297 C   0  0  0  0  0  0  0  0  0  0  0  0
    4.0596    3.5450  -19.1205 C   0  0  0  0  0  0  0  0  0  0  0  0
    5.6079    2.9323  -20.7272 C   0  0  2  0  0  0  0  0  0  0  0  0
    5.5558    4.1860  -17.1704 C   0  0  0  0  0  0  0  0  0  0  0  0
    5.7311    6.7670  -26.0909 C   0  0  0  0  0  0  0  0  0  0  0  0
    8.9109    5.8862  -23.2851 C   0  0  0  0  0  0  0  0  0  0  0  0
   10.1329   -2.9252  -20.3720 N   0  0  0  0  0  0  0  0  0  0  0  0
    5.3233    3.8030  -18.5736 N   0  0  0  0  0  0  0  0  0  0  0  0
    4.1843    3.0808  -20.3428 N   0  3  0  0  0  0  0  0  0  0  0  0
    2.8400    3.7615  -18.4912 N   0  0  0  0  0  0  0  0  0  0  0  0
    7.5204    3.4032  -19.1654 O   0  0  0  0  0  0  0  0  0  0  0  0
    6.7873    6.4609  -25.1461 O   0  0  0  0  0  0  0  0  0  0  0  0
    9.7433    5.4740  -22.2883 F   0  0  0  0  0  0  0  0  0  0  0  0
    8.8250    7.2420  -23.2159 F   0  0  0  0  0  0  0  0  0  0  0  0
    9.4744    5.5313  -24.4706 F   0  0  0  0  0  0  0  0  0  0  0  0
    4.3545   -1.2801  -22.4645 H   0  0  0  0  0  0  0  0  0  0  0  0
   12.0852   -0.1889  -20.7590 H   0  0  0  0  0  0  0  0  0  0  0  0
    6.5837   -2.2747  -22.0044 H   0  0  0  0  0  0  0  0  0  0  0  0
    9.8697    0.8456  -21.2654 H   0  0  0  0  0  0  0  0  0  0  0  0
    3.9069    1.0957  -21.9008 H   0  0  0  0  0  0  0  0  0  0  0  0
    3.9520    3.6878  -22.7881 H   0  0  0  0  0  0  0  0  0  0  0  0
    4.4305    5.2079  -24.6781 H   0  0  0  0  0  0  0  0  0  0  0  0
    7.9813    1.5419  -20.5771 H   0  0  0  0  0  0  0  0  0  0  0  0
    8.0098    4.1004  -21.4199 H   0  0  0  0  0  0  0  0  0  0  0  0
   12.2053   -2.6033  -20.1930 H   0  0  0  0  0  0  0  0  0  0  0  0
    8.0447   -3.0066  -20.6083 H   0  0  0  0  0  0  0  0  0  0  0  0
    4.6039    4.4890  -16.7099 H   0  0  0  0  0  0  0  0  0  0  0  0
    5.9725    3.3292  -16.6208 H   0  0  0  0  0  0  0  0  0  0  0  0
    6.2650    5.0260  -17.1325 H   0  0  0  0  0  0  0  0  0  0  0  0
    6.1102    7.4648  -26.8521 H   0  0  0  0  0  0  0  0  0  0  0  0
    5.3953    5.8398  -26.5783 H   0  0  0  0  0  0  0  0  0  0  0  0
    4.8860    7.2285  -25.5590 H   0  0  0  0  0  0  0  0  0  0  0  0
    3.4143    2.8556  -20.9398 H   0  0  0  0  0  0  0  0  0  0  0  0
    1.9865    3.5612  -18.9724 H   0  0  0  0  0  0  0  0  0  0  0  0
    2.8156    4.1176  -17.5571 H   0  0  0  0  0  0  0  0  0  0  0  0
  1  3  1  0  0  0  0
  1  5  2  0  0  0  0
  2  4  2  0  0  0  0
  2 10  1  0  0  0  0
  3 12  2  0  0  0  0
  4 13  1  0  0  0  0
  5 14  1  0  0  0  0
  6  7  2  0  0  0  0
  6 15  1  0  0  0  0
  7 17  1  0  0  0  0
  8 12  1  0  0  0  0
  8 14  2  0  0  0  0
  9 15  2  0  0  0  0
  9 16  1  0  0  0  0
 10 24  2  0  0  0  0
 11 13  2  0  0  0  0
 11 24  1  0  0  0  0
 12 13  1  0  0  0  0
 14 20  1  0  0  0  0
 15 20  1  0  0  0  0
 16 17  2  0  0  0  0
 16 23  1  0  0  0  0
 17 29  1  0  0  0  0
 18 20  1  0  0  0  0
 18 25  1  0  0  0  0
 18 28  2  0  0  0  0
 19 25  1  0  0  0  0
 19 26  2  0  0  0  0
 19 27  1  0  0  0  0
 20 26  1  0  0  0  0
 21 25  1  0  0  0  0
 22 29  1  0  0  0  0
 23 30  1  0  0  0  0
 23 31  1  0  0  0  0
 23 32  1  0  0  0  0
  1 33  1  0  0  0  0
  2 34  1  0  0  0  0
  3 35  1  0  0  0  0
  4 36  1  0  0  0  0
  5 37  1  0  0  0  0
  6 38  1  0  0  0  0
  7 39  1  0  0  0  0
  8 40  1  0  0  0  0
  9 41  1  0  0  0  0
 10 42  1  0  0  0  0
 11 43  1  0  0  0  0
 21 44  1  0  0  0  0
 21 45  1  0  0  0  0
 21 46  1  0  0  0  0
 22 47  1  0  0  0  0
 22 48  1  0  0  0  0
 22 49  1  0  0  0  0
 26 50  1  0  0  0  0
 27 51  1  0  0  0  0
 27 52  1  0  0  0  0
M  CHG  1  26   1
M  END
> <OMEGA_C>
TkukQJDKLL8eNbDBd/UyQQjwSL843KXBQNvMQM7snb+VP67BCgwfQajtT76WIqjBTCOcQPGWKz/f
m63BVMadQDdWhEDKCrfBcoemQDHQn0BwpL/BVsLlQKXSaj/Ei6fB7xXnQE0sjEC50rDB/PMzQTL4
CcC2S6PBA8cOQcVRGMBwJqXB2wfuQHZf377+8anB/HsMQSpHgb9PyafBboS8QIE6vD/756jBIpK9
QFKCdkDsVq/Byj7wQDiWqEDEULnBFZXPQOC+skD11MDBr1DKQJXaV0AFcJvBiuiBQCbhYkDK9pjB
s3OzQCmqO0BN0aXBHMmxQAf0hUAKXYnB9GS3QDmL2EAUutDBM5MOQVhbvED3R7rBUyAiQX02O8Dp
+aLBcViqQLtkc0DPlpTBgeWFQAAsRUALvqLBwsE1QD+8cEDu7ZPB06bwQN3NWUC3UpnBlzHZQIe/
zkAxK8nBYuQbQWErr0BtTrLBWjMNQd++50AiurnBAZcXQX8AsUC+w8PBHliLQCTao786t7PBCl1B
QXZ5Qb5tEqbBx63SQPmTEcAGCbDBJ+odQSt4WD9/H6rBBwt6QE4/jD/sNK/BMe18QKkEbED5TbbB
CseNQMOmpkDAbMXBMWf/QGRdxT/9naTB+ycAQTs2g0DoW6vByEhDQT+dJsBdi6HBGbcAQfJsQMDD
3aTB21KTQImlj0DwrYXBHx+/QN0QVUBx94TB/HrIQC/VoEBDD4nBb4bDQEnf7kAD0dbB/6WsQPHf
ukBhoNTBA1qcQL5P50DdeMzBHYRaQGrCNkDKhKfBckb+P2fqY0Bmx5fBDDI0QH3Dg0DadIzBCMPB
QHi0qb7Q+7XBQQEDQcVqaMDgHZTBfWTOQG9hnL/23q3BtPb5QETLMsDTmpzBDRm5QMDbgT/Kh7PB
B/GcQEpnh0CP57bBHJamQNNtokBmkr/BY5fIQAzEEj8kw6DBP/fmQFRcjEBu5LDBw8b2QNjyVsAd
uonB0sXQQFF8vr/f0o/BtLvRQDg4Rr9BK6PBZdPeQBhK2b+7fJrBbHe9QJrOvj8Z5KjB8PK8QHSS
eUChVK/BlKjwQEy9qEBRUrnBlRTQQKuus0DTusDB9U/KQIdiWkAhu5vBs9+BQLplY0DYHJnBbSiz
QJDJPEBs9KXBgg2yQF7ghkDTmInBpkTJQGKe+UDV4MfBcuEOQbvMu0CuTrrBFbncQNiTE8AUvIfB
QGmqQCe1dUAY1ZTB176FQKq4QkAkxqLBFeY1QDGrcUAkCJTB2qDwQA0mVkABoJnBNP7YQKZ4zkDy
M8nByBkcQVExrkD3WLLBw+ANQW4w50DPsrnB37MXQVtVsEBy0sPB87O+QM6NLr/THr7B0F8NQUtF
j8CRh5XBB5DVQAH+D8DP0K/BlKMCQS0FP8DUn6TBsA2vQLNU2D9GybnBIwB6QNVhdUDfBLbBgB+O
QPAFqkA9X8XBTx/KQF7raD+2j5jB0g8AQQ1UgkCLhqvBwA0AQcAigMCrNIPBcfW7QLYeJ7/3HY7B
QamTQFCEkEBG3oXBM3G/QGe2VkDhP4XB8sXIQHy7oUBmSInBL7LRQNBgBkEE9c7Bq0WmQC35+EA1
8sbBBdvXQCH+A0FTuMDBNFdaQClYMECkWqfBPUf+P4bcYkBnvJfBGKk0QO1ehUBDrIzBMa/BQO7b
qL58/LXBHHLeQNvzGMB95YfBtUXOQCw6nL9F363B9sHQQDj2v7/Q3I/B3w65QPMXgj9IiLPBiu+c
QHp1h0Am5rbBNpOmQDp8okDvkL/BYJHIQD0nEz/Tw6DBSvbmQOhqjEBw47DBU5j5QD9eXcDjs4rB
fOb5QAYGM8BTtJzBb5jRQKQARr9gK6PBD6zeQNGD2b9ngZrBunO9QAEFvz+b5KjBpfK8QP+teUCp
U6/BgKfwQILHqEAVUrnBBBLQQOi6s0AAusDBbVLKQMlxWkCmupvBeeKBQABuY0DjG5nB1ymzQNvh
PEAZ9KXB7A+yQBPXhkBllonB+ETJQBWu+UDu3cfBv+EOQe3Qu0CvT7rBTGQDQRZtacBS6pTBFGyq
QCu4dUCX05TBF8GFQI3OQkDpxaLBWOo1QC2tcUBvB5TBVqPwQK8sVkDhn5nB9PjYQCuHzkD0MsnB
chscQfUurkBNW7LBJeQNQX4050Azs7nBtrAXQQpZsEAr1MPBSqG+QGQULr+rH77BkkvUQFd8EMBE
aX/BP2zVQH7sD8Am0a/Bnee7QOmbLL+O5Y3BEgavQAWa2D+IybnBX/15QGB+dUAmA7bBPBuOQDgW
qkBCXcXBKC7KQONtaT/4kJjBFQ8AQZ9mgkDvhKvBhxECQcachMARkYTBOlYCQdN9PcAWz6TBjKuT
QLN3kEBf24XBF3O/QB6bVkATP4XBnMjIQKmxoUBCRInBeq/RQMppBkH18c7Bl0amQDoM+UDA7cbB
B+LXQJkDBEGttcDBcFtaQAR2MEDdWqfBhFL+P8LkYkBovJfBjqo0QJRahUD/qozB8UakQCzRLL8i
NLDBj3wjQfSeN8CkAqPBw9PMQLYEnr8qPq7Bv+kOQY/rF8A9JqXBuiKcQP6OKz+Imq3B57+dQItT
hECdCrfBQH6mQLXNn0BupL/BJsPlQEGXaj+kiqfBDxHnQCIsjEC207DBpig1QSRn/7/Vh6PB1Agf
QZngRL7RH6jBagDuQHgu4L7D7anBhXwMQQ03gb9HxafBDoa8QI8uvD8C56jBqo69QAd9dkB1V6/B
ljbwQO+WqEDEUbnBdovPQJS8skDL1cDB2VHKQLvhV0CocJvB4umBQMjpYkDp9pjBrHSzQC6nO0A+
0aXB2s6xQCEEhkDBXonBzFa3QIWI2ECNutDBJY4OQd9fvEBXSbrB4cEyQYbSL7/TCqbBNlqqQNF3
c0Dgl5TBcuaFQHMjRUBhvaLBe8M1QJfNcECY7pPBAqjwQIXPWUBlU5nBBybZQJG7zkCJLMnBmt8b
QX01r0BhT7LBSiwNQVrD50CZvLnBWpIXQWMDsUDaxMPBllKLQEbPo7/ytrPBm8ElQT4zesBU/KDB
bKTSQIKdEcBkCbDBRikBQZStQcB9y6TBwgp6QE1DjD8NM6/B2+B8QE7/a0AfTbbB8buNQEekpkA8
bMXBl2z/QAY/xT9Pn6TBViYAQUw3g0A6XavBDPpEQVA6GMBN46HBtl0dQWKHWj9GHKrBPVqTQLq5
j0B6r4XBiiS/QAQ1VUBT+ITBY4LIQCXkoEByEonBE3fDQAPb7kD+0dbBKpSsQHXdukBSoNTBtE6c
QF1P50C1eMzBQYVaQLWqNkBKg6fBDUv+P/z0Y0DXx5fBpjI0QKrSg0AkdozB6WzWQEveVb51hLXB
efekQCEYhcATOJbBSSDPQP04mr+8y63BmDesQMB1TcDKSZ7BCfHNQLHRkT+VH7PBehidQFX6hUCk
7LbBYAamQJbIoEDkob/BosG2QFpj/j7dN6HBCi7mQNfEjkBKlLDB5ympQOSuccASaovBlBC7QDrA
yr86TpDB4kW/QOp4W7/3kKPB4X+3QCyL8r/EVpvBJPu9QOe3wD8d5KjBD8C8QAdEe0CWJK/BqZXv
QMs6qkAlObnBMBvPQEuls0A82cDBClzKQPQZWEA0mJvBkOmBQLkfZEAAH5nBRHOzQHJcPUAS6KXB
HO6xQB7ThkDUjYnBxSi3QAVL2EBp69DBvEYOQV3AvUCjObrBPQG0QGnIIMCooIjBg3yqQAZadUBB
yZTBvuSFQIWRQ0Bjx6LBVMo1QD/BckBGGZTB85HwQNIJUkDCd5nB3uTYQI7rzkAIUMnBuY4bQY/S
sECRNLLBpO0MQb8k6UAsybnB3lEXQdDpsUA8qsPBBZXiQDWa9b5DT73BVkKcQPCFpcCwQ5jBiaTV
QHlMD8DMra/BNzapQOzeXsCmnabBspXTQEwx8z9+F7nBNp17QG89b0DEKbbBQGiNQOorp0B9e8XB
O4WqQDXLQz9rbZnBKCL/QNOxhkDo86rBQJqjQHZDkMAUN4XBDKXDQMJWFL+4943BJZ6TQNhHkUB0
7IXBNHu+QNs8VkDvH4XBX0PJQJ8loUBDOYnBtWnDQOIS7kDmHdfBTEOsQP5gukBfrNTBejCcQKeI
50CqvczBjMBaQG5tMUCRZKfBskf+P+dPZECs2ZfBjFA0QEbchUAevIzBoTGuQCga9r7CQbTBzsIT
QdH27r/tto7B6f3LQGqwnr/zYa7Bd3AEQQFZkL/iYpTBjl2mQG81XT+ahrHBNmWdQOCEhkCj6rbB
QfqmQJcAokCbgb/BQQnaQNNBMD+RCKPBw47nQFqvikAyBLHBDfYeQapXOcCN/pPBsI0MQdPkHsAu
BaTBB/3hQGMtKL9dqqXB9rQAQUhQt7+sSJ/BkHS8QAjQuz+T4qjBcnO9QHzZdkAdZa/BKDHxQLOY
p0DxV7nBzIHQQK8us0CLqMDB5ljKQJwIWkB+mJvBPeeBQHncYUAd/pjBLVyzQGKoO0D23KXB2PSx
QGSthUDjZonBuAfKQHyS+UAfk8fB9y8PQQOBukC1UrrBSUQbQTkKTMCUap7B4FaqQAZOc0Czo5TB
pd6FQG79QkDmvKLBSeQ1QFXxb0CQ7ZPBcNPwQAuLXUD3pZnBymbZQDhgzkDcDsnBGG0cQRp6rEDV
arLBIFEOQbXi5UB1nLnBg+gXQXBPr0Bu4cPBaEmdQCpCbr9w4LrBye8WQbkz07+eZobBAg7SQGMs
EcCGibDBbTj3QIKbrL4ofpDBcl+PQMQuuD+VDLbBzOF6QLmhc0B3DbbBR22OQGj/qUDXP8XBv+nq
QIhYkT9PZZzBp20AQcv5f0DVxavBP8UqQcbJXcDMoY/BDMoJQf+cLsDNUazBQGqTQDlqjkB0nIXB
ETbAQCjpVEACHIXBRPHHQI8joUAYGInB/G7SQCyABkEHm87BjA2nQKUj+UCZl8bBvOTYQBi8A0Hg
ZMDBDI1aQBaYMkCBbafB2lP+P99oYkD2tpfB8I00QODNg0A0f4zBlzeuQFYS9r4oQrTBiJ4bQcJ5
SsDEoZ3BmwHMQGK5nr+RYq7Bl50MQWCWHsD276PBeWamQAw9XT8qh7HB1WadQF+ChkCb6rbB8Pum
QF78oUDzgb/BLgTaQKsFMD89BqPBUY/nQOmwikC3A7HBfm8eQQ6fMsD315LB32kEQSjojr+QWZTB
2wXiQOJCKL+zq6XBPrwAQfwSt78jR5/BlHa8QOfEuz+e4ajBvHS9QGTWdkDVZK/BajHxQD6Zp0DF
V7nBioLQQLcrs0DiqMDBH1nKQBcGWkBcmJvBT+eBQD/rYUD7/pjBWV2zQPWjO0CK3KXBiPGxQCS6
hUDVZ4nBxQrKQEiO+UC6lMfBzS8PQRmDukB6UrrBLvUSQfG35L8tZY7Bo1aqQORec0CgpJTBit+F
QLP5QkDjvKLBxOQ1QFsPcEAT75PBktPwQCJ+XUBxpZnBEmbZQGhazkDiD8nBkWwcQZl/rEBJarLB
iFAOQfDk5UDJnLnBAOkXQTpQr0DZ4MPBFU6dQLMzbr/P4LrBTuwkQVMOfsCWA6HBPgzSQN8zEcCr
ibDBvDYKQbXiL8A8N6zBhm+PQJhAuD+HDrbBzeR6QJOdc0BQDbbBTm+OQMb4qUB8QMXB4dPqQK4Z
kT84X5zB2W0AQZABgEDoxKvBngQqQTVoVMDnBI7B+Kv2QDeco75LsJDBv2aTQIx+jkCXnoXBnyvA
QKIBVUCuG4XB6vLHQF4soUA8GYnB6XDSQIt8BkE+nc7B7RCnQGIi+UBlmMbBcOvYQK26A0EfZ8DB
CpBaQKOIMkANbafBJFT+PyyEYkA+uJfB2440QL/jg0BmgYzBJLrdQBCWSz34XbbB9MSuQPdHKcBM
3IzBHJjQQJ51gb880a/BitG+QPDV2b9LDJTBHMHVQN8VsD8qK7PBImSbQM6Ch0AzerbBJgClQPEg
oEB3hb/B4sO0QJr1FD9myaLBduTjQBTukUDi4K/BigORQBRuZsDMkJDBuPSSQEeZLsCO9KHBCy29
QOVUOb8c8qXBjrKwQIAA4b8FtJ7B8qy/QHo40j/2bKnBQam6QKgGgUCZfq7BKSjuQNRaqkAQ7rjB
CHnOQPvmsUBV3sDBO9jJQBTSV0D4O5vBeYWBQBRRZEC14JjBnQqzQKTiQUBrqaXBitewQD2yg0Ce
DYnBvWu3QDLJ10A+xdDBxP0NQYc4ukAbT7rB8JuDQAo6aMBs5ZrBEvapQEhIdECObJTBw5yFQAxr
Q0AyfKLBFBw1QJ/Vc0CN75PBgV/vQO5QSkCb45jBirDZQFyryUAJ18nB6/0ZQdWxs0BmXbHByPYN
Qe3a5EDFW7zB/EUXQfe1pEBzhsLBvOTtQJYWGb7a1b3BxvK4QFsyKcCSmoTB1lTVQFUzAsBXUrLB
VHHVQEljc7//fJHBHWzgQFJ/DEB1H7jBPwN4QLvtckDEm7XBBbeMQCSjpUAjg8XBZ7mlQEvQRT+/
KJvBXRL8QO8JjEAn4qnBComEQG6XisDlBIvBU0iIQMw+MMCcK6rB7JaSQKxmjkDab4XBsB+8QJZw
TUDZ7YTB8frIQBIgnUDORYjBCtrEQH8Y6kCZftfBjg+mQMLHu0DK3dPBAUahQBg37ECOOMzBCsVa
QPxmLkDUAKfBJgP9P7/FZUBtuJfBT4QzQAWLhkBklozB

> <OMEGA_E>
sq0sP/TjLj+M4C4/FqwsP/DCLT/oyi0/iM0tP7TcMj8=

> <OMEGA_NBR>
     22929

$$$$
50157435
  -OEChem-04172616093D

 51 54  0     1  0  0  0  0  0999 V2000
    4.9139    4.1890  -22.8628 C   0  0  0  0  0  0  0  0  0  0  0  0
    6.4210    1.1333  -22.3882 C   0  0  0  0  0  0  0  0  0  0  0  0
    5.1871    5.0291  -23.9526 C   0  0  0  0  0  0  0  0  0  0  0  0
    6.6715   -0.2167  -22.6936 C   0  0  0  0  0  0  0  0  0  0  0  0
    5.7252    0.4935  -20.1388 C   0  0  0  0  0  0  0  0  0  0  0  0
    7.2010    4.4708  -22.0731 C   0  0  0  0  0  0  0  0  0  0  0  0
    6.3196   -1.8051  -18.1587 C   0  0  0  0  0  0  0  0  0  0  0  0
    4.8330   -2.9602  -19.6777 C   0  0  0  0  0  0  0  0  0  0  0  0
    5.2317   -3.7740  -17.5233 C   0  0  0  0  0  0  0  0  0  0  0  0
    5.9619   -0.8597  -20.4483 C   0  0  0  0  0  0  0  0  0  0  0  0
    5.7072   -1.8854  -19.4244 C   0  0  0  0  0  0  0  0  0  0  0  0
    5.9412    1.5031  -21.1027 C   0  0  0  0  0  0  0  0  0  0  0  0
    5.9068    3.9278  -21.8908 C   0  0  0  0  0  0  0  0  0  0  0  0
    7.4778    5.3288  -23.1540 C   0  0  0  0  0  0  0  0  0  0  0  0
    6.4694    5.6190  -24.1058 C   0  0  0  0  0  0  0  0  0  0  0  0
    6.4377   -1.2158  -21.7315 C   0  0  0  0  0  0  0  0  0  0  0  0
    6.3244    3.3792  -19.4468 C   0  0  0  0  0  0  0  0  0  0  0  0
    4.0583    3.5628  -19.1431 C   0  0  0  0  0  0  0  0  0  0  0  0
    5.6138    2.9587  -20.7352 C   0  0  2  0  0  0  0  0  0  0  0  0
    8.8733    5.9151  -23.2999 C   0  0  0  0  0  0  0  0  0  0  0  0
    5.5521    4.2103  -17.1920 C   0  0  0  0  0  0  0  0  0  0  0  0
    5.7347    6.7672  -26.1139 C   0  0  0  0  0  0  0  0  0  0  0  0
    6.0809   -2.7563  -17.2301 N   0  0  0  0  0  0  0  0  0  0  0  0
    4.6028   -3.8852  -18.7212 N   0  0  0  0  0  0  0  0  0  0  0  0
    5.3245    3.8315  -18.5968 N   0  0  0  0  0  0  0  0  0  0  0  0
    4.1881    3.0541  -20.3494 N   0  3  0  0  0  0  0  0  0  0  0  0
    2.8364    3.7918  -18.5202 N   0  0  0  0  0  0  0  0  0  0  0  0
    7.5194    3.2920  -19.1832 O   0  0  0  0  0  0  0  0  0  0  0  0
    6.7856    6.4678  -25.1622 O   0  0  0  0  0  0  0  0  0  0  0  0
    6.7043   -2.5078  -22.0386 F   0  0  0  0  0  0  0  0  0  0  0  0
    3.9373    3.7381  -22.7656 H   0  0  0  0  0  0  0  0  0  0  0  0
    6.5944    1.8936  -23.1354 H   0  0  0  0  0  0  0  0  0  0  0  0
    4.4153    5.2288  -24.6812 H   0  0  0  0  0  0  0  0  0  0  0  0
    7.0448   -0.4871  -23.6703 H   0  0  0  0  0  0  0  0  0  0  0  0
    5.3747    0.7624  -19.1533 H   0  0  0  0  0  0  0  0  0  0  0  0
    7.9862    4.2236  -21.3739 H   0  0  0  0  0  0  0  0  0  0  0  0
    6.9806   -0.9821  -17.9304 H   0  0  0  0  0  0  0  0  0  0  0  0
    4.3462   -3.0448  -20.6380 H   0  0  0  0  0  0  0  0  0  0  0  0
    5.0485   -4.5274  -16.7714 H   0  0  0  0  0  0  0  0  0  0  0  0
    9.4957    5.2363  -23.9015 H   0  0  0  0  0  0  0  0  0  0  0  0
    8.8096    6.8932  -23.7991 H   0  0  0  0  0  0  0  0  0  0  0  0
    9.3243    6.0402  -22.3044 H   0  0  0  0  0  0  0  0  0  0  0  0
    4.6024    4.5327  -16.7402 H   0  0  0  0  0  0  0  0  0  0  0  0
    5.9465    3.3455  -16.6384 H   0  0  0  0  0  0  0  0  0  0  0  0
    6.2778    5.0358  -17.1480 H   0  0  0  0  0  0  0  0  0  0  0  0
    6.1231    7.4443  -26.8889 H   0  0  0  0  0  0  0  0  0  0  0  0
    5.3879    5.8343  -26.5825 H   0  0  0  0  0  0  0  0  0  0  0  0
    4.8949    7.2499  -25.5928 H   0  0  0  0  0  0  0  0  0  0  0  0
    3.4245    2.7695  -20.9290 H   0  0  0  0  0  0  0  0  0  0  0  0
    1.9843    3.5663  -18.9927 H   0  0  0  0  0  0  0  0  0  0  0  0
    2.8096    4.1820  -17.5999 H   0  0  0  0  0  0  0  0  0  0  0  0
  1  3  2  0  0  0  0
  1 13  1  0  0  0  0
  2  4  2  0  0  0  0
  2 12  1  0  0  0  0
  3 15  1  0  0  0  0
  4 16  1  0  0  0  0
  5 10  1  0  0  0  0
  5 12  2  0  0  0  0
  6 13  2  0  0  0  0
  6 14  1  0  0  0  0
  7 11  1  0  0  0  0
  7 23  2  0  0  0  0
  8 11  2  0  0  0  0
  8 24  1  0  0  0  0
  9 23  1  0  0  0  0
  9 24  2  0  0  0  0
 10 11  1  0  0  0  0
 10 16  2  0  0  0  0
 12 19  1  0  0  0  0
 13 19  1  0  0  0  0
 14 15  2  0  0  0  0
 14 20  1  0  0  0  0
 15 29  1  0  0  0  0
 16 30  1  0  0  0  0
 17 19  1  0  0  0  0
 17 25  1  0  0  0  0
 17 28  2  0  0  0  0
 18 25  1  0  0  0  0
 18 26  2  0  0  0  0
 18 27  1  0  0  0  0
 19 26  1  0  0  0  0
 21 25  1  0  0  0  0
 22 29  1  0  0  0  0
  1 31  1  0  0  0  0
  2 32  1  0  0  0  0
  3 33  1  0  0  0  0
  4 34  1  0  0  0  0
  5 35  1  0  0  0  0
  6 36  1  0  0  0  0
  7 37  1  0  0  0  0
  8 38  1  0  0  0  0
  9 39  1  0  0  0  0
 20 40  1  0  0  0  0
 20 41  1  0  0  0  0
 20 42  1  0  0  0  0
 21 43  1  0  0  0  0
 21 44  1  0  0  0  0
 21 45  1  0  0  0  0
 22 46  1  0  0  0  0
 22 47  1  0  0  0  0
 22 48  1  0  0  0  0
 26 49  1  0  0  0  0
 27 50  1  0  0  0  0
 27 51  1  0  0  0  0
M  CHG  1  26   1
M  END
> <OMEGA_C>
wD6dQBQMhkD95rbB8XjNQKkPkT8gG7PBg/ylQCPuoEDenr/BFH3VQK3gXb5qjLXBOjW3QCKu/D48
HKHBzG7mQJEQj0CjlbDB/TnKQH0M578ORZHBIKiaQGt0PcDra53Bu2mnQPGJccCzL4zBNMi+QCcY
XL8wlqPBtqG2QEZT8b9BZZvBTB6+QKZkwD8+0qjBIgS9QHFge0BTIK/B7knvQEOFqkBQO7nBewXP
QD7Ps0C22MDBmwHOQIqem78h2q3BOmHKQDVEWEAhk5vBtd2BQEEEZEAMJZnBAqSzQO9bPUCq4aXB
NvkNQUJIvUA1ZrrB4qqxQAy7hkBIiYnBn4K3QIOM2EBS6dDB2ZbCQAdoMMA614nBPkqTQCuneMD6
xJXBa2KqQJg2dUA1xpTBxwSGQPZ1Q0Cly6LB7oY1QNSsckBxKZTBiZ7wQJWvUkBId5nBziPZQAH4
zkAqTMnBg4nWQNp/IMAiT7DBRv17QNM9b0DbH7bBKgXTQLBg8j9lFbnBfkqNQBhSp0Asc8XBwm7h
QFdj+b63XL3BOv2rQAUtQz/0OZnBF4//QBcoh0DL/arBKGHfQCRpe7+EcY/BKxSLQHPdQsC2GqXB
ZI2hQHjgkMDeK4bBZO4XQfaPp0BeNr/BOPQMQfmU3ECiZL7BUjAVQTRJwUB1b7LBGkeTQDEMkUDo
64XBYEm+QCMcVkB2G4XBHOTIQCMloUAZL4nBpvDDQKs37kB8HNfB6mmsQM+yukAGqdTBqaKcQG//
50ACvszBwCpbQIM/MUCqbqfBFv79P6I+ZED28JfBF9EzQNjShUCSzIzBygGeQIM5hEBEELfBxPyb
QJj4Lj+3hK3BwI6mQMi0n0C2rr/Brd2jQAlMKL+SFrDBStTlQMLEaj9TtqfBxjrnQJThjEBPx7DB
pSIdQePrWb68haLBoy8TQRMWFsDk86nBjzk1Qckb/79v5KLBzlLuQCT65r4K4qnBLSsNQRJPgb9m
gqfBdZS8QNnEvD/H66jBXNK9QAP+dkDyUa/BGuHvQKwPqUBBT7nB7nvPQB7askC22sDBjSHMQGNA
nr94J67BCGPKQP7qV0BNa5vBVeyBQKzYYkB2+pjB3auzQE4FPEBk0aXBWjMOQaU9vED6ZrrBD5ax
QOPYhUBOV4nBHqy3QFqQ2EDuwtDBuLswQUmXNb8zYaDBZ9MmQUnzM8A2k6fBJlCqQHpVc0DTk5TB
QA2GQOeqRUAbxqLBdps1QMBKcEA+95PBHLjwQGqYWUAdTZnBjGDZQIm2zkCSL8nBnCbQQHDjIsCZ
kLDB7qd9QPkza0B6VrbBFcd5QOmGjj/cDq/BDMmNQIdYpkBOecXB67SKQHt/oL8JmbPBebX/QHKJ
xj/oDaXBRUMAQTdxhEBWSKvBWIEZQYA+Tz8JaaDB98cHQWbwP8B3y63BUPNEQeNIGMCEFaHBdjcY
QSgQp0CtVb/Baw0NQTbY20ADPL7B/G4VQYuyv0AobbLBkBCTQHV8j0DRrYXB6eK+QGzQVED08YTB
ikDIQLu+oEBjAYnBPe7DQIPH7kBi3NbBjtSsQNrlukBXpdTB4amcQDF850DYhszBevFaQIasN0Ca
lqfBnD3+P4OQY0Bm2ZfBQ8szQPFYg0CxeYzBzrmdQOWUhkC837bBTH6mQBJzYD/bhrHBpxunQGUH
okDJe7/BRcutQHuD8L79PLTBUUfaQIWcLz/TE6PB0OrnQF5Ni0BH9LDBiMgDQQUEkr8gPpTBAHMN
Qd/OHMDfvaPBSdMdQUS4M8A1MZPB9vbhQHW0Kb8ftqXBiLAAQUJat7+NNZ/BRry8QOB2vD/s46jB
Bta9QPl1d0ArVK/BZE3xQJJGp0DldbnBOZfQQK0as0APscDB8UTLQGkxn7+AYa7BAm/KQH/kWUBo
iZvBD+qBQFzvYUBFApnB8amzQN3zO0Ds06XB9wgPQT7fuUDUdbrBuK6xQChwhUA2WYnBO5XPQI2s
+kD23cbBgkwSQY3M6b/Ib47Bn6QbQXYeSMCorJ3Ba0qqQGkTc0AjmpTBFxWGQIQlQ0AEwKLBOrE1
QLokcEC0/5PBoebwQGVNXUBIlZnByTbZQKdczkBpFMnBQv/PQN8yI8AA+LDBL7N7QCBgc0BcAbbB
eMOPQOTXuj8KEbbBWm6OQO4MqkC/MMXBBK6cQKOmab/62rrBs13rQMmakD+ZdZzBlZYAQdGOgUCF
lavBxuT0QIKhub7XfJDBOdYLQS4VLMAiIazBujopQTkEV8BRbo7Bmt0YQbPnpEA/ir/B8RsOQYHj
2UB7Fr7BvFQWQcpKvECTebLBfRGTQNwmjkBUl4XBv9W/QJJTVEBLDoXBGK3HQHjioECM/ojBq1DX
QAMfB0EB7M3B91qtQMn1/UD9+8TBRLziQNXKAkGJAcDBbStbQG62MkApeKfBvjr+P1XEYkDz05fB
Pg40QP3eg0C7kIzBFeSdQLBThEAjJLfB3sneQKVxlT/lHrDBMlymQNqZn0D7zL/BL2znQC03NL7G
rbLBoB+nQKr35D7quaPBsSDmQIX/j0ABb7DBv1WTQIbOAsCNBZbBtL59QGkLOcD0aKfBibVMQJKU
ecCysZfBRUSvQP5+Zb9sZabBSeGVQCxr+r/3P6HBssG9QCKCvz/2x6jBBUC9QFwrekDbMa/B1vvu
QDwgq0DnJLnBAvHOQPGQs0Bj4MDB4IDPQFHNmr8R7a3Bd0/KQIQXV0C0g5vBqNKBQGlSZECwG5nB
QJ+zQPssPUCN16XBfqsNQZWvvkAJNrrBAKWxQDtEhkCxeInBLC63QJFU2EAF6tDBhMF3QJNRQcBP
aJHBmpJOQHcadsDdiqLB2GCqQMOAdEDvtpTB++uFQMR6RkBI4qLB62o1QJ7JcUD9FJTBFI/wQB11
UUB8bJnBG9nYQET5zkD+SsnBmLTYQNzWH8BpXbDBSEp+QNx0aUBxirbBw23xQFor+j+VxLPBIMyN
QL91pUAUs8XBhj8AQcdX1L5ST7jBo0+PQNcBLj9Bv53Bydf+QM6EiUCenarB5yikQHkeqr+1GJHB
eRiAQLgWNsBiCbDB6GInQPWclcAo55PBPPcXQUwjqUCS5L7BL3cMQcrC3UDxTL7BQ58UQcxRw0DN
NbLB+0yTQIzNkEBH34XBfAG+QOLyVEDoCoXBkRHJQJ9/oEAIGYnBoG7DQK877kCrFdfBhG2sQOJt
ukA/s9TBhRycQABt50AVvszBhdVaQNDyN0CPsqfBGc/9P42QZEAF75fBVKozQAtZhECAnYzBX+Pm
QHIRj0A/lLDBx2nOQDJMkT9j/LLBrcbvQEg1qkBfQbnBND/XQBa4Wb5XVLXBzGC1QHEL+z6zOqHB
d6qdQGc5hkCUALfBO6GNQFDNAcBpv5bBfJPXQNfWLsBPxJfBZYWnQI5nccCvGozBh62+QOqeW7/I
hqPB0Iu2QBsL8b/DU5vBb4+9QLRewD9W2KjBlk29QFOYe0DjKa/BmK+mQFnjoED7zr/B76vPQBu5
s0C9y8DBw7XPQP3dmr80n63BH1vKQFQGWEBWl5vB0+CBQAdDZEDsIpnBvIazQIqgPUCC6aXBqriD
QEJ3qkBM58fBcM2xQGaahkCnh4nBHSPTQLdj+0CnzMbBdKKGQOSPPsD1Qo/BPaPPQNAwasBeK5DB
knCqQHoOdUAZxZTBu+yFQK+FREAy1aLBnaU1QOWnckB5HpTBAJvwQAZTUkDvf5nBYt3YQF6SzkDP
OMnBzOfXQPg+IMDaFrDBz+f/QCRLh0Cl8arBX3rUQCed8j+a7rjBUasHQcfTt0C+JbrBod3jQMQn
977FE73BFtinQOHCQD/kj5nBRph8QLkecEBbOLbBsqZnQLOcsL8pOZnBGEz3QB0DKcAvHpvBPoKh
QOrSkMApGobBh15jQCrnxkBZV8XBZzySQCmBsEDxxs/BcddbQBTrjkARdcjBM3OTQOn2kEBO54XB
ZGS+QEnHVUBRHIXBrRPJQB/5oEDqLYnBchLbQJFTB0F/5M3B16axQNycAEEcg8TBBFLoQLY3AkEj
JcDBINZaQKBSM0ChgafB3hP+P42rZEA26JfBsRQ0QCZ/hUD+uIzB/0CdQP+Th0An1bbB6im5QI6j
gz/ShLPBpramQJuNokC2hb/BYDTBQL6qor6LBrbBldzIQLLrET9Fy6DBOFnnQK/qjED107DBZRvP
QPmBwb8164/B/uT6QGKiMcDRN5zBeQ32QO/NV8DhM4rBW43RQG8VSL+WPKPBz1veQIzx2b+ldJrB
0MC9QCd7vz++36jBCVa9QNA4ekCPP6/Bz8rwQAJqqEDra7nBny/QQFOjs0BAvsDBt33NQG2enL/x
/K3BxGPKQOZbWkAHqJvBnt+BQKdgY0BcHZnBSnezQFwbPUCJ5qXBBMEOQakau0D8cLrB4b+xQGaT
hkAlhYnBjafOQJbM+kA2KsfBhD3bQET+FcA0+ofBHv8CQXIzZsBTH5TBTFeqQHhodUASxpTBV/eF
QOvUQkAnxqLBPKU1QAq4cUBSGJTBZLXwQBpWVkBwjpnBAt7YQBJ9zkAINMnB5mPTQOhOIcCwubDB
Jbp6QMODdUAl7rXBBmqvQHQo2z8yv7nBKR6OQPc1qkA5SMXBiO29QFHCKL9jLr7BVr3KQB0oZz+Z
lpjBWj0AQT27g0AHXKvB3JW5QBCzMb8pNo7BQ/cDQfMgPMCHHKTByhf/QFtIgcBAzYPBWKsYQajk
pUBgar/BZc4NQTDi2kAWMr7BUPgVQSsTvkAOc7LBxUWTQMMdkECo0YXBQxm/QCgHVkBxLoXBGWzI
QDN2oUCpJ4nBDnbWQIsJB0HOQ87B9lCsQO7M/UCIYcXBJGbhQBolA0HpSsDBAABbQARpMEA+Y6fB
yB3+P+gPY0AS2ZfBSQ80QF9YhUBVu4zBpC2eQCbphEARP7fBSg/fQKkplj8LC7DBUDynQFBWoEAR
4L/BRAHoQHoNLL4yh7LBLLSmQEIf5j4446PBFIHmQC/Mj0DgarDBzoVUQPoI37+bXp7BXECnQGJ3
TsD+iJ7BjzhLQJkpesBIfJfB2FmvQOQXZ78DWabBQomVQN/Y+7/5HaHBf5K9QJXvvz+I2qjBo169
QHCIekAJPq/BsA3wQAxUqkDWL7nB0eHPQHiPs0B3zcDBpD/QQBpgmr/2za3ByDnKQCT0VkBAjJvB
P8eBQOxlZEDdIJnBCnqzQPpyPUDj5aXBVSsOQdIcvkD4EbrBzrGxQDoahkBDfInB9fDNQPa3+kAf
OMfBHSEmQFiRLcBsl5nBUg6PQI+phcAM2ZnB+FqqQLxhdEA6vJTBHc6FQHMmR0BP8KLBq201QGGh
cUB2EZTB9XHwQHbkUEBhcJnB1C3YQG1qzkD0SMnBm+zYQFG2HsA5xLDB8It+QN0sa0Cft7bBv9Px
QDQE+z+lorPB3PSOQJyypkCb0MXBxKYAQSeWzr7jGrjBiSmOQN51Lz/AGp7B+dr+QDF0iUDGfqrB
S0w3QA7ASb/aGqDBlW7IQIZuW8DqU6DBnB4lQC3KlcDzxJPB6aMYQeHLqECZuL7B7v8MQfFK3UCl
HL7BieUUQciUwkD6A7LBRmOTQIGskECA34XB3QO+QEF/VEDgEoXB8yzJQCZIoEDBGonBQ23VQAYC
B0FLVs7B26qrQPij/UAEWsXBKu3gQMQfA0F5ZMDBgIhaQDhEOUB3xafB0qv9P5G0ZEAG65fB89Mz
QE0JhEAwlIzBoGbnQBw/jUCF07DBQ1S5QHI7hD9ChbPBHEnwQAHLqEBvbLnBLJfBQMFgn764C7bB
5l/IQGCaET/LxaDBTFWdQLpFh0A70bbBzsX1QOKjnL9BnJHBlMbSQERJRMAthprB5yL2QAKsV8Dt
P4rBrzTRQHf1R7+LO6PByBveQHyi2b/1dZrBILS9QCbJvz9T3KjBtXG9QGiAekDBNa/BgoymQD2a
oUAqrL/BeOjPQJp8s0C9ycDB2dvNQNTcm7/oAq7B4GnKQIhDWkDYoJvBkt+BQL1iY0D3F5nBy4Wz
QLlDPUDT36XBMWyDQCLTq0CsrMfBl7SxQOR5hkCBfInBhYPTQA8++0AUucbBjaYAQYH6A8DAp4nB
WyjfQAdReMCDfZLBOleqQJFKdUBFvpTB0ACGQCb2QkBdwaLB6pQ1QJiucUD8FZTBFr/wQNJCVkCK
jJnB2z/ZQDlzzkBoLsnBqzzXQLFRH8Cq5LDBBF4AQR8uhEBxZ6vB2ZKvQDnQ2z+dvrnBIAgIQVvR
tUCVY7rBpH++QL2bJr8RNr7B6MzJQPzCZT/kjJjB+OB6QDwpdUB20LXB0LD+QDHhOb78NZHB0g3A
QES4XcDCDaHB5fb/QAsQgcC544PBbEZkQPOwyECsFsXBoLGRQANssUCemM/Bjf5ZQH3BkEDmIsjB
EDeTQBcCkEBuyoXBjAi/QHnLVUB7JoXBamHIQIlboUAWHInBAJLbQE9NB0Fwys3BUf+xQKqIAEFm
dsTBxpnoQJEWAkFFCsDBRRtbQIyYMEC4YKfBThP+P8YUY0Ae2pfBE+kzQEVIhUDet4zBb12mQOYD
dED1A7nB4CakQItGSj+axLDBK/SvQPDhlEDes8HB3DqsQGXbDL9zgrPBP3LcQELIMT9iYqPBmp7e
QHP0m0ADla7Bi5AWQdv9dL+oXp7BXqD2QBcaJcBN25nBzSAeQYZkMcBXNpPB903jQMElKb+CxqXB
o1gBQbfvtL8+Z5/BRcm8QFmcuT++zqjBGTa+QOODeEBEXa/Bkd7nQHFnt0CkL7fBMHXQQBnUs0Do
zcDBOJfLQOYepL/x/K3Bo5fKQI56V0Dec5vBkiOCQE5QYkALH5nBcfezQIPBO0Cq4aXBqKoEQdM3
2kC0wbXBv7yxQJ1jhUB/YonBBHe9QF+480AqwcnBUrEkQSgQ07+PW5jBW8UJQRpLT8DjzpPBzHyq
QAx9ckB0oZTBamCGQFk6RUBc9aLBsCs2QOk5cEBZFpTBlRTxQNXzWUAFeJnBUfHYQPmgzkA8SMnB
arvSQKPeJMBboLDBg3WMQJqVRkCysLnB386KQJ3LqT+Kx7TBmVGeQIbGkUCoF8nBP0eaQLJFgr8B
4LnBSKrvQJnLlT+gS53BLoTwQOsIn0AjO6fBpYkbQYOYWL18Y6LBOzbWQGedPMAFcZrBApgpQXhF
VMCZcI7BKmkUQfv8zUAgO7jBZWcAQQkM9kCwtLrBwEsFQWfV40AVTK3BbC+TQO7ijkAst4XB+Ca/
QI3yU0BBAIXBikzIQHNfoECQConBbjjGQE22A0HatdDBlvabQCRb6UDvg8rBxkPBQG5SA0E/ZcLB
69ZbQJVbN0BH0afBFRf/Pyf/Y0Ad95fBpJw0QE87g0CYlozBXADoQCqVi0AO+bDBqcmmQMbfYj9o
krHBg9rwQG+Xp0Cce7nByjyuQHKG6r50VLTBhZnZQNKaLj+56qLBM8WdQLN9hkBZ2LbBlpQSQYJQ
R79YnprB1o/8QC+pM8ANRZ3BZ8IdQSloM8CGMpPBLL/hQCj+KL/Eq6XB2rMAQWx/tr8lPJ/BVa68
QFYEvT+E2qjB+PC9QFzdd0CHS6/BCOimQK1doUDznL/B11fQQPsPs0Duu8DBbKnLQBnXnb/Wd67B
IIPKQMkeWkALh5vBJPqBQDEuYkBA+pjBEbWzQNVEPED2y6XBXpWDQECArECffMfB1MixQLFuhUAY
UonBiXHUQLIn+0AHbsbBEsAgQcKgvL8rq5TBEdwMQfVcXsCBXZfBY2GqQGBCc0Dfk5TBnyGGQLd2
Q0AMuKLBDcw1QEdOcEDC95PBlwPxQIL9XEDOmpnB6qnZQCZxzkDxDMnBAvrSQP2NIMBmmrHBJLwA
QezhgUDpqKvBgDWQQMpfvD9iI7bBb1wIQTFftEAvd7rB/EedQFzuZb8G/LrBYtHpQBOTjj88HZzB
Lrx7QDOUc0Az3rXBh+gUQZ9yjz6O3ZvBYVPhQNxeVcDSg6DBYlMpQfR3VsDggY7BsEllQNJPyUCj
ucTBT5+RQHyUskCHac/BGtBZQHKqkUDeBsjBrC2TQIEjjkDhjoXBNuu/QNw5VEDBCoXBaszHQCDc
oEAZ9IjB8nTcQNRoB0HGcs3BaQ+zQPGWAEGeFMTBb9XpQATDAUHvwr/BhkJbQEYTM0CBcKfBDnj+
P1zqYkCqzJfBDCI0QNDtg0A5iIzB

> <OMEGA_E>
HDwxP/DMMT9ssTI/LukwP8h6OT/uujM/FLQ0P1BMOT9wAjc/RNw3Pw==

> <OMEGA_NBR>
     31840

$$$$
50157441
  -OEChem-04172616093D

 52 55  0     1  0  0  0  0  0999 V2000
    5.4453   -0.4667  -22.5415 C   0  0  0  0  0  0  0  0  0  0  0  0
   10.0447   -1.5561  -18.5573 C   0  0  0  0  0  0  0  0  0  0  0  0
    6.3692   -1.2326  -21.8054 C   0  0  0  0  0  0  0  0  0  0  0  0
    9.1501   -0.7897  -19.3181 C   0  0  0  0  0  0  0  0  0  0  0  0
    5.2106    0.8800  -22.2003 C   0  0  0  0  0  0  0  0  0  0  0  0
    7.2500    4.3569  -22.1216 C   0  0  0  0  0  0  0  0  0  0  0  0
    7.5280    5.2321  -23.1850 C   0  0  0  0  0  0  0  0  0  0  0  0
    6.8026    0.6858  -20.3704 C   0  0  0  0  0  0  0  0  0  0  0  0
    4.9302    4.2004  -22.8564 C   0  0  0  0  0  0  0  0  0  0  0  0
    9.8202   -2.9406  -18.4220 C   0  0  0  0  0  0  0  0  0  0  0  0
    7.8893   -2.8238  -19.7510 C   0  0  0  0  0  0  0  0  0  0  0  0
    7.0617   -0.6526  -20.7182 C   0  0  0  0  0  0  0  0  0  0  0  0
    8.0452   -1.4290  -19.9274 C   0  0  0  0  0  0  0  0  0  0  0  0
    5.8945    1.4751  -21.1108 C   0  0  0  0  0  0  0  0  0  0  0  0
    5.9347    3.8698  -21.9124 C   0  0  0  0  0  0  0  0  0  0  0  0
    5.2171    5.0403  -23.9519 C   0  0  0  0  0  0  0  0  0  0  0  0
    6.5126    5.5919  -24.0914 C   0  0  0  0  0  0  0  0  0  0  0  0
    6.3266    3.4052  -19.4419 C   0  0  0  0  0  0  0  0  0  0  0  0
    4.0601    3.5292  -19.1223 C   0  0  0  0  0  0  0  0  0  0  0  0
    5.6133    2.9391  -20.7264 C   0  0  2  0  0  0  0  0  0  0  0  0
    4.1145    5.3889  -24.9371 C   0  0  0  0  0  0  0  0  0  0  0  0
    5.5545    4.1622  -17.1643 C   0  0  0  0  0  0  0  0  0  0  0  0
    6.6442    7.8449  -24.8017 C   0  0  0  0  0  0  0  0  0  0  0  0
    8.7624   -3.5487  -19.0119 N   0  0  0  0  0  0  0  0  0  0  0  0
    5.3227    3.7954  -18.5720 N   0  0  0  0  0  0  0  0  0  0  0  0
    4.1893    3.0512  -20.3409 N   0  3  0  0  0  0  0  0  0  0  0  0
    2.8392    3.7493  -18.4953 N   0  0  0  0  0  0  0  0  0  0  0  0
    7.5297    3.4520  -19.2013 O   0  0  0  0  0  0  0  0  0  0  0  0
    6.8049    6.4476  -25.1304 O   0  0  0  0  0  0  0  0  0  0  0  0
    4.9152   -0.9125  -23.3701 H   0  0  0  0  0  0  0  0  0  0  0  0
   10.8952   -1.0911  -18.0810 H   0  0  0  0  0  0  0  0  0  0  0  0
    6.5488   -2.2638  -22.0715 H   0  0  0  0  0  0  0  0  0  0  0  0
    9.3024    0.2728  -19.4369 H   0  0  0  0  0  0  0  0  0  0  0  0
    4.5045    1.4630  -22.7729 H   0  0  0  0  0  0  0  0  0  0  0  0
    8.0452    4.0524  -21.4574 H   0  0  0  0  0  0  0  0  0  0  0  0
    8.5245    5.6302  -23.3075 H   0  0  0  0  0  0  0  0  0  0  0  0
    7.3082    1.1187  -19.5199 H   0  0  0  0  0  0  0  0  0  0  0  0
    3.9330    3.8041  -22.7350 H   0  0  0  0  0  0  0  0  0  0  0  0
   10.5073   -3.5312  -17.8343 H   0  0  0  0  0  0  0  0  0  0  0  0
    7.0530   -3.3232  -20.2175 H   0  0  0  0  0  0  0  0  0  0  0  0
    3.5855    6.2897  -24.5925 H   0  0  0  0  0  0  0  0  0  0  0  0
    4.5543    5.5784  -25.9274 H   0  0  0  0  0  0  0  0  0  0  0  0
    3.4053    4.5508  -25.0051 H   0  0  0  0  0  0  0  0  0  0  0  0
    4.5980    4.4324  -16.6930 H   0  0  0  0  0  0  0  0  0  0  0  0
    5.9975    3.3081  -16.6312 H   0  0  0  0  0  0  0  0  0  0  0  0
    6.2415    5.0200  -17.1174 H   0  0  0  0  0  0  0  0  0  0  0  0
    6.8953    8.4596  -25.6787 H   0  0  0  0  0  0  0  0  0  0  0  0
    5.6013    8.0346  -24.5076 H   0  0  0  0  0  0  0  0  0  0  0  0
    7.3133    8.1047  -23.9682 H   0  0  0  0  0  0  0  0  0  0  0  0
    3.4234    2.7963  -20.9311 H   0  0  0  0  0  0  0  0  0  0  0  0
    1.9864    3.5412  -18.9743 H   0  0  0  0  0  0  0  0  0  0  0  0
    2.8137    4.1157  -17.5652 H   0  0  0  0  0  0  0  0  0  0  0  0
  1  3  1  0  0  0  0
  1  5  2  0  0  0  0
  2  4  2  0  0  0  0
  2 10  1  0  0  0  0
  3 12  2  0  0  0  0
  4 13  1  0  0  0  0
  5 14  1  0  0  0  0
  6  7  2  0  0  0  0
  6 15  1  0  0  0  0
  7 17  1  0  0  0  0
  8 12  1  0  0  0  0
  8 14  2  0  0  0  0
  9 15  2  0  0  0  0
  9 16  1  0  0  0  0
 10 24  2  0  0  0  0
 11 13  2  0  0  0  0
 11 24  1  0  0  0  0
 12 13  1  0  0  0  0
 14 20  1  0  0  0  0
 15 20  1  0  0  0  0
 16 17  2  0  0  0  0
 16 21  1  0  0  0  0
 17 29  1  0  0  0  0
 18 20  1  0  0  0  0
 18 25  1  0  0  0  0
 18 28  2  0  0  0  0
 19 25  1  0  0  0  0
 19 26  2  0  0  0  0
 19 27  1  0  0  0  0
 20 26  1  0  0  0  0
 22 25  1  0  0  0  0
 23 29  1  0  0  0  0
  1 30  1  0  0  0  0
  2 31  1  0  0  0  0
  3 32  1  0  0  0  0
  4 33  1  0  0  0  0
  5 34  1  0  0  0  0
  6 35  1  0  0  0  0
  7 36  1  0  0  0  0
  8 37  1  0  0  0  0
  9 38  1  0  0  0  0
 10 39  1  0  0  0  0
 11 40  1  0  0  0  0
 21 41  1  0  0  0  0
 21 42  1  0  0  0  0
 21 43  1  0  0  0  0
 22 44  1  0  0  0  0
 22 45  1  0  0  0  0
 22 46  1  0  0  0  0
 23 47  1  0  0  0  0
 23 48  1  0  0  0  0
 23 49  1  0  0  0  0
 26 50  1  0  0  0  0
 27 51  1  0  0  0  0
 27 52  1  0  0  0  0
M  CHG  1  26   1
M  END
> <OMEGA_C>
PECuQO3t7r4WVbTBK7cgQRQvx79QdZTBItDLQEXHnb92ca7BvWYSQagrSr9fi5rBL72mQCdKYT8u
mrHBsf/nQAxsi0Ah+bDBueXwQBptp0DTernBrq7ZQF6OLz+a9qLBbMSdQOpphkD/2bbBWB8dQXwz
PMBYYJPBTnX8QKK5NMARAp7BxfnhQEcOJ7/IvqXBPrkAQSnotr89a5/B+Z+8QAjQvD/n4qjBLum9
QFard0CuTK/BTvKmQDVKoUBtnb/BdGfQQOnwskAqu8DBInPKQCHvWUD0iJvBOuyBQNrdYUBt+pjB
9p+zQNkZPECaz6XB8amDQPpxrEAkf8fBY76xQJcwhUCFUInB95zUQCIJ+0D4acbBujIMQQkeY8Br
GJjBN1OqQM/nckB8k5TBIg+GQLBGQ0A4uqLBnrU1QOjzb0Ba9pPBZvPwQHPtXEBPnJnB8MHZQJVS
zkAdC8nBAkmdQIucab/19brBnVIuQaGni7/kpZDBgY/RQKviEMBXkrDB0dYUQX2xiz7ffpvBxCSQ
QFtEuz/+LrbBTrkAQROtgUDUqKvBLGQIQfYqtEDIdbrB+NzpQPEvjz/OKJzBk7V7QKx1c0BV4bXB
AR4oQbn/YcC6rI7BXLLhQKWvVMByvaHBZnhlQCRFyUBvvcTBjryRQF+CskBFa8/BOPBZQFigkUB6
CsjBFSOTQEbWjUA0i4XBL+u/QC63U0ChDIXBY7rHQKmjoEB08IjB9aXcQI5aB0H2bc3BLj6zQKaN
AEGFD8TBtgbqQMqsAUH2vr/BzBhbQI72MkDzcqfBSUP+P4eiYkBjy5fBDRM0QMmzg0CFhYzBFw6k
QM3MK79dMbDBpcsyQd/JTL8iv6XBoofMQAgLnr/qNK7BcOoeQULdW77pCKjBkAycQNMOLT8Vnq3B
uMLnQMJHjEC02rDBfX/wQL8oqEAVaLnBM6DlQIwTaj/BgKfB6yeeQKPlhECJErfB+LkzQRX5CsAs
M6PBXIwOQVTwGMB8GKXBuMLtQDua4b7C46nBPFEMQfFjgr/EtqfBjX28QA6lvD+E6KjBdwa+QHUX
d0BXWa/BGQenQJ4woECyx7/B2x/QQDbHskDwyMDBql/KQHDxV0CPcZvBxeyBQNSVYkDb95jBXJqz
QHQSPEBA1qXBwb2DQDrYqkBDtcfBfbWxQDxlhUDeUInBiJLTQK3i+kCEhcbBYt4hQZEMPMD56KLB
TVaqQKHNckAPkJTB3v+FQIO/RUAJyaLBMrQ1QMQTcEAq75PB07rwQF4/WkD/XJnBYD/ZQDUzzkBy
HMnBnA2LQOQNo784tLPBMjlBQasDU75O76XBgD3SQJGxEcCx+6/BbdUdQSWeVT8jA6rB0f95QKdq
jT8GPa/BaoYAQRmKg0DTYqvBzxUIQUd+tUDZUrrBx07/QHWLxD8sjKTBomN9QJvmbUByR7bBbwhD
QdDJJ8AucKHBIHYAQZbqQMDY1aTBgUVkQIg6x0A27sTB0umRQEtvsUDQl8/BGUFbQIyTj0DIV8jB
BTKTQLfUjkDlnYXBhy+/QNvaU0D29oTBa0PIQE1ioEBW94jB53TbQBpHB0FTjM3BpByyQBBOAEG2
McTBfdLoQILDAUHT2L/BAsxaQJkEOEDcmqfBBUb+P8mpY0Dg0JfBEwo0QI4Zg0AlbozBJwqkQAaT
K79FLrDBLjojQb99OMBd8KLBw3/MQKIMnr8MMq7BFq4OQX+KGMBTFqXB4Q+cQL1NLT/rmq3Bwsnn
QA1TjEC+2rDBEIPwQJIwqEAHabnBAaflQGX6aT/qfqfBUS+eQCHmhEAeErfBdvA0QUfCAMBHb6PB
nugeQRxWUb5aB6jBD73tQJM34r5l3qnBBlIMQQtWgr8HsqfBP4a8QGi2vD+T5qjBABC+QPQhd0AK
Wa/B9wmnQFQyoEBtx7/B2SHQQNPIskABysDBcm7KQNMEWEBBcZvBV/yBQAuyYkDK9pjBA6ezQB4g
PEBP1aXBwMKDQEzRqkBAtsfBUsexQEyFhUAhUonBMaLTQNfg+kDbiMbBUZoyQT/eM79676XB6Gaq
QGfyckAkkJTB9gyGQKnSRUCNx6LBA9c1QNUtcEAZ7ZPBP8rwQCBGWkA7XZnBGD7ZQHEuzkD6HsnB
IQaLQHDeor8ksbPBI3IlQdgee8AE7aDBdjHSQESwEcDj+q/BFOYAQf4mQsDiv6TBJwh6QDiZjT/h
OK/BV4oAQZucg0BhYqvB/BYIQVSItUBqVLrBaVz/QPp3xD9TjaTBjnZ9QJ/ebUDYRrbBG7xEQcl4
GcAZyKHBYEsdQf2LVz8yAqrBx0ZkQDQzx0Ct8MTBR/GRQGllsUCtmM/B0FFbQLyJj0BYWMjBSEST
QD/5jkCmn4XB+0G/QMwlVEA29oTBN1XIQNuCoEDa+ojB4YDbQGBDB0HnkM3BNTGyQLVSAEFeMsTB
1+3oQPHAAUE63r/BsuNaQK0UOEDXmKfBSIb+P7u6Y0DDzZfBRDI0QF8qg0BobIzB9XDBQEeso74T
CbbBIEYAQepICcD4jInB6bDNQK3Qm79X8K3BxiT1QLLQnb+DlZHBdFO5QOG0gz+ijbPBZW7nQDsw
jUC817DBzlTwQCfAqED3brnBK4bIQNFaEz82yqDB91mdQENHh0Dt1LbBcAT1QDUDYMApsIrBqwzU
QG3qRMA8NJvB1G7RQKGKRb9/PqPBYl/eQCCy2b/Am5rB3729QPn6vz8s5ajBq3W9QHp4ekCqOq/B
EZSmQEiioUDprb/BJfPPQLJ+s0CoysDBxW/KQBZTWkCappvBEOaBQPM8Y0CaGZnBPYazQFlOPUCa
5qXBGHKDQIrsq0BMrMfBqcGxQFdJhkCffInB0JrTQPJG+0BQssbBzj/fQHlcfMDgXZPBf16qQPYe
dUAlwJTBFQKGQNf4QkCSxaLB7Kg1QIpxcUCxFJTBOcTwQCFDVkBekZnBGkzZQKB/zkC0LMnB00C+
QF2MKr8CLr7BqPoIQU4O6L99k4LBaUHUQIDyD8Ap5K/ByqD9QMgvQr6P4pDBgaqvQNsD2z8xzbnB
N2EAQY4ThEB6bKvBUQ8IQc6/tUA8ZrrB1vfJQE0WaD/VkpjBi+l6QF0sdUDk1LXBeb39QGV4hsC5
foTBLczCQMR8XMAbFqLBEmFkQKjKyEBrE8XBbLSRQIiMsUBHmM/BkP5ZQCvgkEDsI8jBAUSTQAO9
j0BTx4XBKSO/QBddVUDbK4XBS2XIQAAyoUAFGYnBwqnbQBBXB0HRwc3BERmyQMCOAEHjbcTBhbbo
QOISAkE6A8DBThdbQE6xMEA4ZafBGjD+PyDmYkBt2JfBKgg0QCIahUDktIzBzF7BQIfVo77uCbbB
cOrgQGd/esB1vJLBH6DNQKTzm7/68q3BJTHUQKXFRMDzJpvBpUK5QCWhgz+WjLPBnW3nQFUsjUCa
1rDBzFLwQAO7qEA5brnBnYrIQAzsEj+UyqDBHlmdQG9Bh0Bz07bBnn/3QP6EV8C5AIrBWyH1QILJ
nL+IkZHBwlvRQEAhRr8wQKPB6FHeQBja2b+om5rB/7q9QPbXvz9D5KjBhnW9QA5tekBTOa/BNZKm
QCuboUDQrL/B+fDPQNx3s0AOysDBHnHKQDxBWkBWpZvB0+eBQBo3Y0AtGJnBwYazQDc/PUAk5aXB
YG2DQNblq0BcqsfBEsexQDxKhkAGfInB/pfTQGJA+0CbssbBGJwAQdokA8BaiInBUWGqQC0bdUBF
v5TBcgKGQDrsQkDVw6LB9a01QHxwcUA+E5TB2MXwQCo0VkCGkJnB8kjZQP53zkB2LMnBbSy+QIlw
Kr9SL77B0HvZQGL9nsA88pLBpDPUQBT/D8DA6K/BpvHCQPVBXsB77aHBuY+vQEr42j+8yrnBCGEA
QQsShEA3a6vBKQ4IQS27tUCvZbrBOhTKQKmkZz9xk5jBmed6QFMidUAF07XBrqIAQV1/gMCPiYPB
2w/9QAepM75XFpHBclpkQDvEyEAWEcXBw6yRQIqFsUCvls/B/vNZQMnZkEBuIcjBGUuTQLjDj0DK
xoXBySS/QN5dVUC6KoXBvW7IQKgvoUAbGYnBOabbQAJTB0Ftws3BgxayQMOLAEEIbsTBdbToQEoQ
AkHIA8DB1BZbQLmhMEAZY6fBYzj+P4rjYkCv1pfB4Q40QB8chUC0s4zBsF7WQLDnV76nf7XB9GOk
QNlBhcAMR5bBP+HOQHSNmr8Sy63BrcSrQAKzTcBhVJ7BswXOQNSikT9yGLPBc0CdQPH9hUAx5bbB
RwOmQDTXoEBMnb/BnZm2QHxd/T7QNaHB+2rmQK4Pj0Crj7DBonKoQAokcsAed4vBpm+6QL2Qy7/z
UJDBK/m+QHY0XL9dkaPBAQe3QOUU879bW5vBsgW+QJ+QwD+G3qjBg/68QGNje0DBHK/BKU/vQNlx
qkDcN7nBawzPQBm4s0AB1sDBp2nKQFf/V0AKkpvBTuuBQHvfY0B/HZnBNJmzQC5dPUDg4qXBPPsN
QdQ6vUCdYLrBys2xQKeGhkBKg4nBw423QEFh2EA36dDBXUOzQFJHIcCpp4jBDneqQFLudED6wJTB
N/6FQH2ZQ0CTyKLBrbM1QGZmckBDHJTBxKbwQHBBUkCOd5nB2CrZQNfezkBcScnB/5HiQGWj9r5Y
Sb3BF7GbQEmrpcCSV5jBfUrVQOJ8D8CHr6/Bj+CoQMMEX8CmqabBeM3TQCIL8z+zDbnBoAR8QAwX
b0AvH7bBnFWNQPA1p0Acc8XBtFKqQJhQQz95bJnB+IL/QPMzh0Bg9KrBa8yiQPWGkMCDR4XBr/zC
QAkXFr9o9Y3B+fQXQdyAp0DxLb/BLPYMQT2D3EAkYb7BSy0VQfhFwUALabLB6W+TQF7ZkEAZ44XB
Amu+QEOiVUCWGIXB7wzJQGLroEBnKInB1PnDQHMN7kBmHNfB94SsQMmAukB8qNTBMKOcQBnM50BR
wMzBvQdbQKKnMUAqbKfBmT3+PzIYZEDA4pfB/hY0QJOThUBYvIzBTwroQHBeN76zerLB1qmOQDL1
hsCVLZrBviLQQEexmr9msK3BtNenQB0eT8DZKJ/BiRDfQDA8lT8DELDBUSyeQDHNhEDdQLfBODWn
QL43oEAg4r/B4IGmQFXt5z706aPB9IbmQNapj0Dbb7DB7xdIQBuTesDLXpfB4kVVQA+o3r9EJJ7B
OSSvQGPSZb/bWqbBObqVQHoW/L9GMqHBzoi9QO7Gvz+J4ajBF2S9QF5VekB+Qa/BVAzwQHEyqkCt
NLnByNrPQJpus0DO0MDBr0jKQCXDVkA/j5vBFNeBQGc1ZEC5H5nB7oKzQFFbPUDI6aXB+CkOQcj6
vUDEGLrBpMuxQK/rhUCVe4nBtNfNQGWV+kCiOsfBkZIlQHKwLMCpXJnB/W2qQFEfdEBDvJTBttaF
QHM2R0Bg8qLBwZQ1QG5OcUDdDJTBwoDwQJKiUEAsdJnBsCDYQGpLzkDrS8nBn64AQejI176hB7jB
+MybQIM4psD3gpjBK/zWQA1SD8Bdna/BrIjIQPihXMBQZaHB3tHxQLi7+T+IsrPBF4p+QDT1akC9
t7bBkOqOQDGUpkDV0cXBZ+aNQMwWMT/gJ57B0uX+QDtLiUB6harBJ3AhQHuAlcDCipPB7PI4QNfo
Rb/qq5/Bs6AYQV+qqECWwL7BE/0MQXYp3UARI77BTOcUQZhxwkBiC7LBD3+TQJB4kEDQ3IXBayG+
QEMYVEDOFIXBKkbJQOoZoEAEGYnBfE/VQHHyBkGHWM7BoZCrQMJ3/UC1XMXBHNDgQGQQA0G6ZsDB
/JBaQOCVOUARyafBfu39P+x5ZEBQ5pfBPwc0QD3Hg0BCjYzB6gXoQGTQN77XebLBaOInQF2RMsAu
P5nBmBbQQLOtmr/Wr63B1mpVQOTe379MKp7B5Q7fQHk1lT9GELDBtTKeQN7PhEDdQLfBSj2nQDg7
oEDV4b/BwH2mQJ5h6D7d6aPBmIzmQOipj0Aib7DBHPJQQEzQgMAEepfBmxOoQHdKT8DpM5/B3w+v
QJ+XZb88XabBUa2VQEkl/L95N6HBeIi9QMXRvz+/4ajBRWm9QDlYekBEQa/B6BPwQAgzqkCxM7nB
UuPPQHVxs0Dwz8DBaErKQCPAVkDijpvBStiBQH8wZEC5H5nB5IWzQNtfPUDO6aXBzC0OQfn7vUCG
FrrBcsqxQDPhhUCYeonBrOPNQG2Z+kDWOMfBfKiRQHVsh8AjbprBqm6qQNIVdEC1u5TBKtmFQEtA
R0D98qLBp5U1QItAcUDbDJTB+oHwQEiaUECGc5nBeyrYQJVPzkCsSsnB8K0AQahM2L6ABbjBGkHM
P/djKcAz2JbBqvDWQKBTD8Damq/B8UU3QO4xS7/emJ/B/NDxQAOr+T+hs7PBT5Z+QED7akAhuLbB
rvOOQMGYpkC80cXBtuuNQA1uMT+TJZ7BdOr+QO5JiUCWhKrBlustQBhwmsAYrZPBVtnIQLDYWsDN
iKHBbqUYQeGsqEA2vr7BdgENQZor3UBoIL7BtukUQfhwwkDJCLLBS32TQGFskEDQ24XBWx++QL7+
U0CRFIXBA0XJQCIPoED0FonBZVzVQAD1BkF8Vs7BvJyrQA99/UDgWsXBn9zgQEIRA0HIZMDBPJda
QL6sOUB3yqfBp/H9P7JwZEDP5pfB5gU0QLy6g0C+jIzBZffdQGDiBz0zJbbBNFOuQE/3JMCOXozB
PejPQDr5gr+dqK/BwC+9QELs0L+BsJPBdojWQBB7rj9M9bLBGwWcQKcuh0BBgbbBT0alQDLjn0A7
jr/B9aWzQFAYFT/jyqLBx5nkQPl2kkB06q/BtiCTQM3UZsD0BpDBKViVQFBIM8ByoaHBkQy8QI1a
Or9L2qXBCWSwQHKX4L/QbJ7Bfaa/QGLI0T9SW6nBtGG7QIEIgUC1gq7Ba0DuQPu+qkBEB7nBv5PO
QEb4sUBv6sDBW/nJQA0DWEDPNJvB1oiBQHj6Y0Ab45jBr22zQL0VQkCPpaXBMcQNQdglu0C1hrrB
vZKwQMzQg0DiCYnBdmS3QGh42EDUqdDBhSGHQIkUbcC8cJrBRuepQHUgdEAGaJTBntmFQJMRREBa
iaLBn+Y0QKufckBe85PBLIbvQCbYSkAA3ZjBLsjZQCb/yUDi0snBNnDuQEYIMb5Oj73BsXq3QIJx
IcCzDITBDUbUQBIRA8AVKbLB5/TRQDkIVL/kLJHBYTziQFdjC0Du0LfBe5p5QIyMcUBoobXB6+CM
QM41pUBph8XB5LyjQPmiRz92SZvB2+v8QCUSjUBh7anBsYCHQJPWisC7YIrBEdiLQPGYOMBD6anB
wkwXQRsFo0DYzr7BJWoNQRX42EC8Mr/BJgIVQRJdwUBeqLLBWTCSQF1NjkCdc4XBCA+8QAT6TUBs
4oTBXHvIQEN2nUDDQojB67TEQDv/6kBhXdfBRt+lQFeivEBTzNPBsGuhQPLJ7EDGB8zBEF1bQFbu
L0DeIqfB1+38P3OmZEAgx5fB8v4yQJmThUC/kIzBsDquQHTX7r7tVbTBKX8NQRhgYMBtxJfBpcfL
QCfXnb8Jc67BELb8QLZwNMAu/J3Br7imQAVHYT+PmbHBtgToQIxri0Bu+LDBNuzwQNBup0CDebnB
j7TZQPxgLz8a+KLBPcudQEFphkCo2rbB46IeQUC3MsAMJ5PBaGcSQYauR78EiZrBSO3hQIF0J79x
vqXBPbcAQSLrtr8Uap/Bw6G8QIDEvD/94qjB/u29QDOqd0CqTK/BOfymQJVHoUBHnr/BpXDQQOby
skBzusDBmnTKQM3oWUC1iJvBMe2BQPncYUAS+5jB56OzQBQWPEC3z6XBDrGDQA50rEDjfsfBz72x
QMo4hUBiUYnB8YfUQDEN+0BVacbB39wgQSySur/jk5TBwVOqQGHqckDzk5TBCBKGQGRGQ0DhuqLB
wLY1QJvwb0AW95PBM/TwQKHpXECDm5nBL8/ZQL5ZzkAwCcnBRUSdQBlpab+a97rBkAgMQelDksBX
h5bBQIjRQCrmEMDblbDBR0XiQKA3VsDHm6HB3xuQQN5Guz/BLLbBX7sAQd+qgUAPqKvBTWcIQWQu
tECJc7rBzPPpQGkjjz8nLZzBx8F7QCJ3c0BU4rXBMkEqQUGxVMDrXo7BiF8UQQutkT7+m5vB94ll
QERGyUDru8TB6sCRQPyHskAna8/B0PxZQDWjkUCGCsjBJiKTQPDgjUCajIXBCeq/QLbMU0BZDIXB
5bnHQP2roEA78ojBg5bcQINeB0FAbM3Bfx+zQIqFAEE5FMTBotvpQPa1AUEHu7/BJyBbQJv4MkD+
c6fB7Ub+P8idYkAyzJfB6xI0QP2xg0A/hozB

> <OMEGA_E>
5KArP8iyLD/0tCw/kDctP1w4LT+4rCU/dLQoPzS2KD/adCo/sKArPw==

> <OMEGA_NBR>
     40875

$$$$
50157458
  -OEChem-04172616093D

 51 54  0     1  0  0  0  0  0999 V2000
    7.2546   -0.1813  -22.3040 C   0  0  0  0  0  0  0  0  0  0  0  0
    6.5075   -1.2106  -21.7045 C   0  0  0  0  0  0  0  0  0  0  0  0
    6.9720    1.1641  -22.0050 C   0  0  0  0  0  0  0  0  0  0  0  0
    4.9433    4.1501  -22.9075 C   0  0  0  0  0  0  0  0  0  0  0  0
    5.2255    5.0077  -23.9857 C   0  0  0  0  0  0  0  0  0  0  0  0
    5.1990    0.4519  -20.4919 C   0  0  0  0  0  0  0  0  0  0  0  0
    7.2042    4.4894  -22.0552 C   0  0  0  0  0  0  0  0  0  0  0  0
    5.2382   -3.2423  -19.9000 C   0  0  0  0  0  0  0  0  0  0  0  0
    3.3389   -1.7537  -19.7574 C   0  0  0  0  0  0  0  0  0  0  0  0
    3.2220   -3.9403  -18.9466 C   0  0  0  0  0  0  0  0  0  0  0  0
    5.4720   -0.8990  -20.7933 C   0  0  0  0  0  0  0  0  0  0  0  0
    4.6790   -1.9715  -20.1492 C   0  0  0  0  0  0  0  0  0  0  0  0
    5.9216    1.4971  -21.1105 C   0  0  0  0  0  0  0  0  0  0  0  0
    5.9188    3.9109  -21.9079 C   0  0  0  0  0  0  0  0  0  0  0  0
    7.5016    5.3195  -23.1507 C   0  0  0  0  0  0  0  0  0  0  0  0
    6.4956    5.6085  -24.1018 C   0  0  0  0  0  0  0  0  0  0  0  0
    6.3215    3.3551  -19.4458 C   0  0  0  0  0  0  0  0  0  0  0  0
    4.0578    3.5657  -19.1410 C   0  0  0  0  0  0  0  0  0  0  0  0
    5.6095    2.9582  -20.7400 C   0  0  2  0  0  0  0  0  0  0  0  0
    8.8852    5.9381  -23.2617 C   0  0  0  0  0  0  0  0  0  0  0  0
    5.5567    4.1851  -17.1861 C   0  0  0  0  0  0  0  0  0  0  0  0
    6.4308    7.8320  -24.9032 C   0  0  0  0  0  0  0  0  0  0  0  0
    4.5041   -4.2043  -19.3015 N   0  0  0  0  0  0  0  0  0  0  0  0
    2.6322   -2.7393  -19.1656 N   0  0  0  0  0  0  0  0  0  0  0  0
    5.3263    3.8142  -18.5926 N   0  0  0  0  0  0  0  0  0  0  0  0
    4.1824    3.1132  -20.3691 N   0  3  0  0  0  0  0  0  0  0  0  0
    2.8377    3.7701  -18.5064 N   0  0  0  0  0  0  0  0  0  0  0  0
    7.5160    3.2598  -19.1828 O   0  0  0  0  0  0  0  0  0  0  0  0
    6.7542    6.4484  -25.1615 O   0  0  0  0  0  0  0  0  0  0  0  0
    8.0475   -0.4241  -22.9959 H   0  0  0  0  0  0  0  0  0  0  0  0
    6.7251   -2.2418  -21.9405 H   0  0  0  0  0  0  0  0  0  0  0  0
    7.5586    1.9490  -22.4592 H   0  0  0  0  0  0  0  0  0  0  0  0
    3.9776    3.6712  -22.8409 H   0  0  0  0  0  0  0  0  0  0  0  0
    4.4664    5.2068  -24.7276 H   0  0  0  0  0  0  0  0  0  0  0  0
    4.4255    0.6912  -19.7772 H   0  0  0  0  0  0  0  0  0  0  0  0
    7.9659    4.2899  -21.3159 H   0  0  0  0  0  0  0  0  0  0  0  0
    6.2585   -3.4467  -20.1894 H   0  0  0  0  0  0  0  0  0  0  0  0
    2.8777   -0.7930  -19.9325 H   0  0  0  0  0  0  0  0  0  0  0  0
    2.6465   -4.7197  -18.4694 H   0  0  0  0  0  0  0  0  0  0  0  0
    9.5393    5.2726  -23.8441 H   0  0  0  0  0  0  0  0  0  0  0  0
    8.8115    6.9129  -23.7660 H   0  0  0  0  0  0  0  0  0  0  0  0
    9.3065    6.0770  -22.2551 H   0  0  0  0  0  0  0  0  0  0  0  0
    4.6100    4.5150  -16.7335 H   0  0  0  0  0  0  0  0  0  0  0  0
    5.9421    3.3141  -16.6358 H   0  0  0  0  0  0  0  0  0  0  0  0
    6.2906    5.0031  -17.1382 H   0  0  0  0  0  0  0  0  0  0  0  0
    6.6644    8.4359  -25.7924 H   0  0  0  0  0  0  0  0  0  0  0  0
    5.3592    7.9208  -24.6710 H   0  0  0  0  0  0  0  0  0  0  0  0
    7.0222    8.1934  -24.0490 H   0  0  0  0  0  0  0  0  0  0  0  0
    3.4149    2.9013  -20.9740 H   0  0  0  0  0  0  0  0  0  0  0  0
    1.9842    3.5699  -18.9875 H   0  0  0  0  0  0  0  0  0  0  0  0
    2.8136    4.1173  -17.5690 H   0  0  0  0  0  0  0  0  0  0  0  0
  1  2  1  0  0  0  0
  1  3  2  0  0  0  0
  2 11  2  0  0  0  0
  3 13  1  0  0  0  0
  4  5  2  0  0  0  0
  4 14  1  0  0  0  0
  5 16  1  0  0  0  0
  6 11  1  0  0  0  0
  6 13  2  0  0  0  0
  7 14  2  0  0  0  0
  7 15  1  0  0  0  0
  8 12  1  0  0  0  0
  8 23  2  0  0  0  0
  9 12  2  0  0  0  0
  9 24  1  0  0  0  0
 10 23  1  0  0  0  0
 10 24  2  0  0  0  0
 11 12  1  0  0  0  0
 13 19  1  0  0  0  0
 14 19  1  0  0  0  0
 15 16  2  0  0  0  0
 15 20  1  0  0  0  0
 16 29  1  0  0  0  0
 17 19  1  0  0  0  0
 17 25  1  0  0  0  0
 17 28  2  0  0  0  0
 18 25  1  0  0  0  0
 18 26  2  0  0  0  0
 18 27  1  0  0  0  0
 19 26  1  0  0  0  0
 21 25  1  0  0  0  0
 22 29  1  0  0  0  0
  1 30  1  0  0  0  0
  2 31  1  0  0  0  0
  3 32  1  0  0  0  0
  4 33  1  0  0  0  0
  5 34  1  0  0  0  0
  6 35  1  0  0  0  0
  7 36  1  0  0  0  0
  8 37  1  0  0  0  0
  9 38  1  0  0  0  0
 10 39  1  0  0  0  0
 20 40  1  0  0  0  0
 20 41  1  0  0  0  0
 20 42  1  0  0  0  0
 21 43  1  0  0  0  0
 21 44  1  0  0  0  0
 21 45  1  0  0  0  0
 22 46  1  0  0  0  0
 22 47  1  0  0  0  0
 22 48  1  0  0  0  0
 26 49  1  0  0  0  0
 27 50  1  0  0  0  0
 27 51  1  0  0  0  0
M  CHG  1  26   1
M  END
> <OMEGA_C>
iCXoQAWeOb6JbrLBfT3QQIP0mr/Toq3BzRrfQEwBlT8tCrDBIC+eQNfNhEB/QrfBMTenQLY+oECm
4r/B/F2mQDhl5z5/76PB94jmQNKoj0D1cLDBrJ+nQB6CT8AsM5/BL7FVQDZ54L8RD57B3DROQIkt
fMCtkpfBbhqvQCsjZr+5WKbBkbqVQERa/L+EMaHBYn29QG+hvz9e4qjBpma9QLdMekBbQ6/BFw3w
QDQ5qkCINLnBytvPQHB4s0Bz0MDB9EnKQJe6VkDvkJvBqdmBQGI0ZECxIJnB+4CzQGBSPUBt66XB
5SkOQeUEvkDmF7rBu9CxQPHrhUArfYnB+8jNQACg+kCsOcfB8CGQQIqJhsBwaZrBv3UoQAZRL8Ag
U5nBUHGqQM4bdECyvZTBiNaFQNA+R0DT86LBRpw1QB9JcUAsDZTByYLwQA+hUEBXdpnBwyLYQKpZ
zkCuSsnBksIAQVsj2b6G97fB5jPXQDl5D8A5hq/Bq9/xQCh4+T9+rLPBfZB+QCH0akAVurbBfeyO
QMGdpkAs0sXBu52NQA7wMD+dN57BWuj+QK5GiUD0hqrBgkXIQF6WXMDRg6HBeCw4QAIAS7+5dZ/B
K2ApQN0Hl8BlwZPBJqEYQeu4qECxwL7B/vsMQTY23UDaIL7BRecUQfd2wkBdCrLB8ISTQJN6kEBO
3oXBESa+QKoZVEAjFoXBMkzJQHEZoEAZG4nBvkLVQI/5BkHSVs7B0X6rQOp2/UA0XsXBtbXgQDIY
A0FFZMDBs41aQLyuOUDHyqfBS/n9P8d4ZEB65pfB5hE0QPrAg0A5jYzB3hPWQN2jXL55grXBQYzO
QMoLm78vzK3Bst7NQNIrkT8iG7PBAT+dQJv5hUDN6bbBhQCmQBzXoECAob/BP6e2QCgE/T68MaHB
RG3mQG4Cj0AelrDBL9erQCoCTsDsSJ7BEum5QM1Wzb9KVJDBKOCnQPLxc8AZO4zBcdu+QDSYXL/j
jqPBv+G2QOBL87+xWpvBjwG+QNlYwD/g3qjBTgC9QO1Le0BhIq/BPU3vQMFuqkCfPLnBMwrPQJa2
s0Cf2sDBumvKQNb/V0Acl5vBxO2BQBfsY0A7IpnBgZqzQNxNPUDd5qXBs/sNQf0uvUC9ZrrBG9Wx
QGyPhkDniInBu4e3QClp2EA17NDBLnSkQC7ZhMAKs5bBcXGyQLb3I8D19IjB1XqqQFP4dEAnxpTB
p/+FQPmVQ0CZzKLB4rs1QFSEckDjIJTBLqnwQL1AUkAMfZnBoSjZQAXczkBOTsnBGDPiQIW1+b5X
Tb3BvcPUQI/LD8CIsq/BkqfTQOh48j8OErnBnP97QLYTb0BeI7bBGlGNQNU5p0CUdsXB6pCqQPGM
Qz+OZJnBGIn/QIIdh0C1/KrBUEmpQAjpXsBgo6bBkT/CQCX9Gr+iyY3BUe6hQAMxksDGP4bBkvEX
QRlzp0CHNb/BfvgMQaF53EBLZr7B4jAVQY4zwUCrb7LB03iTQKjlkECA6IXBdXG+QG+1VUC6HYXB
LxbJQKryoEABL4nBgvTDQOwS7kDVH9fBSHOsQHKMukAyq9TBHKWcQNza50CvwczBLAlbQFugMUC5
b6fBzUf+P8Q2ZEC25pfB4yQ0QG2ohUCSwYzB9DakQGh8L78E9q/BovzMQFp7nr/zJ67BJOabQKMH
KD9KRK3BXeqoQNLpbEDSKLnBCJmxQC3vkUB70sHBBOvlQI/Raj+Kj6fBiyLdQFz+nEBvVK7B670U
QZ2DBMChya3BqE4ZQVP1Ab9iNp/BifczQepqA8D6faPBYRLuQAre4L6516nBPnsMQfITgb/In6fB
you8QD3puz+yy6jBn5q+QFJJd0D9Sa/B44DmQDj+t0D8BLfBMRbQQEDzskALxMDBAGLKQA6oVUAO
TpvBjfuBQO4cY0DeEpnB0dOzQL0iPECtzqXBsIYDQSKr20Dbj7XBGn2xQGVHhUBFTonBgzu9QNAr
80Dvo8nBvFUoQcixJMDHp6vB68gsQVTUhL8ZRZ3B1liqQHtGckAYjZTBTj+GQCYuSEAB/aLBhLw1
QLw2cEBlCpTBOsTwQJ96VkC2NpnBtTHYQNWlzUBCTcnB5zeLQCZ5pb+4bLPBRgPTQBOPEcC5EbDB
VeJ4QLcOiT8Ana7BqYyRQER7OkDQC7rB3NegQKi1jUAHTsnBzr//QBkWxj9z0aTBjnPtQJi7oUBb
zqbBuVoLQRz3HsB9PrTBEnwTQRmdmz6+T5rByJtDQa/RHcCy4aHBzYQTQXP1z0A4yLfBsWj+QOTn
9kBNs7rBY6EDQWb45UC8Ja3BBgiTQDl9j0AotYXBYim+QMtIU0AF34TBeJ7IQJPFn0BY8IjB+K3F
QA5aA0FqptDB7oSbQDtQ6UAQN8rBDfXBQGMJA0G3T8LBb6hbQG5CPUCw+afBum3+P2AJZUCF/ZfB
a/kzQIxogkA9eIzBdzjBQBXqpb73A7bBmXPNQNB0nL92663BDTa5QNk+gz8hibPByG/nQMQgjUDw
17DB/1LwQNy0qECebrnB9a7IQPy7Ej/3x6DB0VidQC48h0BC07bBJ3PUQLoQRcB/IZvBidD0QDXe
nr8AhZHBENH1QGA4WsCYm4rBi13RQB2XRr9+O6PBDEzeQDMw2r+amJrBR8a9QNqivz9M4qjB/He9
QGBWekA3Oq/B/Y6mQByeoUB3q7/BrO7PQBt4s0AsycDBc3HKQDQ8WkC/pZvBGOeBQO8tY0AQGpnB
0YuzQI8qPUBT5aXB62uDQF3tq0AvqcfBib6xQFBKhkA7fYnBoaDTQLdB+0Cpr8bBCkDgQOcmesAo
I5PBwx8AQatRBsAcsYnBYV6qQAgQdUBCwJTBGgaGQNHTQkDUxKLBdKg1QAJ0cUB6FpTBbsbwQMc8
VkDMkJnBckXZQM95zkA6K8nBQfe9QPW2K79aKL7BK97TQENVEMBV3q/B84SvQK+K2j8SyLnBA2MA
QQIChECMbavBYA4IQS20tUBSZrrBWGbKQGHkZz+GkpjBDOh6QO4UdUDu0rXBK2XDQFcTXsDi9qHB
p+r8QC5RR75L2JDBGxL/QAS8gsAQR4TBbVdkQMXKyEBAD8XBFa2RQL2QsUAllc/BWPBZQO7hkEBj
IcjBtD+TQJy/j0DMyIXBCyC/QE5mVUAEK4XBH2HIQBA0oUCKGonBEq3bQJZUB0FLv83BaCKyQJGP
AEEXacTB08ToQOcMAkGyAcDBaSJbQLV8MEAFZKfBBDL+P7LkYkBN2pfBmgQ0QJcjhUCNt4zBSw2k
QDxILL/dJrDBhoTMQJRVnr/xJ67B2hKcQFnMLD9pma3Bc8PnQNNUjEBM2rDBlH/wQGw3qEBZZ7nB
5bjlQPxEaj9giKfBzCmeQB/vhEDrErfBEsgOQfevGMA5KaXBUfQeQSrvXr4j7KfBAK0zQUDeBMCW
Y6PB+sjtQIcq4r6X36nB1VMMQaB0gr97sqfBgIy8QLqrvD+g6qjBBgm+QHgnd0DmWa/BEAinQFk9
oECMx7/BiSDQQMPUskCAyMDBo2LKQNXtV0DNcpvBk++BQK6tYkBM+pjBWaCzQGUWPEDd16XBVb6D
QDbnqkDetMfB+LWxQP9xhUA1U4nB4prTQNnv+kAGhcbBV1siQcAUOcCqCqPBp0cyQU/BQb9EyKXB
N1mqQB3ickBekpTBCwSGQMPARUB7yqLB47g1QHA7cEA58pPBPb3wQKQTWkAuXZnBlUDZQM4/zkAk
HMnBigmLQMpYo78gp7PB/i/SQOHoEcAi5q/BnAl6QBxCjT+nN6/BZ4YAQduZg0DvYavBehUIQTuP
tUCrUbrBDHf/QOfXxD/VoaTBV2h9QPT2bUAXSLbB5uwAQafwQcD06aTB0LUdQfVCVT/g0anBCTxD
QeauH8Dvr6HBAkZkQFZIx0Ax7cTBKuqRQCaBsUBLl8/B9UJbQHSij0DxV8jBODOTQGzrjkB0oYXB
KCa/QGzwU0At+ITBMkvIQPJooECh+YjBR33bQDlNB0H+i83BqyayQOxWAEFqMMTBkt7oQJDIAUHT
2L/BE9VaQJH0N0Cmm6fBRk/+P8TLY0Cj05fByQ40QOA1g0D8cYzBHBSuQPBf8L4jTLTBcZ3LQGVA
nr+0Z67BNKmmQHTWYD8zlbHBzP/nQFFvi0Cn+bDBV+TwQF10p0CjernBnNfZQFOTLz9h/aLBT8Sd
QKZthkBp2rbBGu38QPmsNMDJAp7Bu1ASQV3wS7+6c5rBiVsdQc47NsB/dpPB8OzhQOCvJ7+qvKXB
e7EAQdI5t7/2aJ/B1Km8QIG5vD+546jBqeq9QP2rd0COTa/BSfCmQLBUoUDRnL/BZWXQQL37skBv
usDBJ3LKQC/nWUBRiZvBheqBQEvdYUCS/JjBRaWzQP8SPEC90KXBu6WDQFqErEBcfcfBwrixQB0r
hUBAUYnBbZ7UQEgW+0DWZ8bB4cUMQR2HYMAMDpjB21cgQRaQwb9rlJTBBlCqQPLickCylJTBuRGG
QAA+Q0D0u6LBqq41QIr8b0CN+ZPBFPHwQL/2XEDum5nBh7/ZQDJgzkD6CcnBeQ+dQLNjar+f6rrB
2DnRQBc4EcBUgrDBYQyQQFYKuz+qKLbBqbkAQZevgUCeqavBaGMIQbwytEB5dbrBzkXqQEKIjz/w
O5zB67Z7QCt4c0Ar4rXBeYTiQIj6VcBqt6HBRo4UQcg7iT6kX5vB0qgoQY8tWsBmt47Bj3NlQMhV
yUDVucTBPLaRQOmaskBuac/BpeVZQPOzkUCwCcjBFR2TQBzTjUB0jIXBVuG/QHanU0BxDYXBcbfH
QNmboEBa8IjB6abcQPxhB0GRa83BtUCzQAaVAEGzDMTBkArqQIaxAUEGvb/BjiFbQO3mMkDkdKfB
bjn+P9+rYkATz5fBAgg0QAK7g0AFiYzBBxitQCYOC7/TvbPBwInMQLSuor/NOK7Bdl2kQNASSj+D
4rDBmLelQLC2c0Dw3rjBjQqvQG5IlEAhn8HBE5bbQBChLz9pQ6PBZVTeQBPOm0BXoa7BuBMNQcBg
H8Cc5qPBOBkFQRNPj7/ieZTBcnkeQfHnNMD9kJPBNj/jQJcyKr85wKXB1VgBQY3/tr//Wp/BynC8
QNn5uD+8y6jBfOy9QM87eEDhUK/BAtnmQAWJt0B1PLfBVsHPQOiFs0AZ6sDBjJLKQOt5V0C0cJvB
5COCQGAaYkAnD5nBuM2zQF+EO0DK16XBL2kEQagA2kCw97XBrOSxQDIyhUBNWInB7ErCQLLAyUA9
NNPBQXUbQRjiSsD+9J3B0pATQQEL6b9JxI7BpoeqQLlEckAgl5TBwEWGQOT9REAs5aLBvkA2QHwK
cEDiApTBTxbxQHA5WkCQfZnBOqDZQPYqz0AzR8nBe5KbQMX9gL/0MbrB8lXTQMC3EsAGdLDBVveK
QERHqT/25rTBRZWLQDm0RkAjbbnBTCWdQJvNkEAy9sjB+u3tQKPfkz/g+ZzB5s3wQGCwnkAxXafB
f40KQWCpMMCrK6zBXKX4QNcKor7/t5DBQBAqQYI5WMCz647BRgUUQflQzUCegrjBxzMAQf/J9UBv
8brB2UsFQRLZ40DGh63BzF6TQNCdjkD0pYXB1ma/QMeHU0A5/ITB9GrIQB42oEARAYnBg03NQOCW
4UCrENnB8fnHQNBjqUA4XNbBROCfQIQozkDsuNHBmIhbQJAbN0D9vKfB/ib/P2jPY0C/4JfB/8o0
QFAmg0BNg4zB

> <OMEGA_E>
4MQyP0zOLz/68Dg/3HQ3P9D2Nj+46zU/8nM1Pw==

> <OMEGA_NBR>
     47199

$$$$
50093273
  -OEChem-04172616093D

 55 59  0     1  0  0  0  0  0999 V2000
    5.7313   -1.7912  -21.6155 C   0  0  0  0  0  0  0  0  0  0  0  0
    5.7340   -0.9110  -22.6906 C   0  0  0  0  0  0  0  0  0  0  0  0
    6.9668    4.6551  -21.4104 C   0  0  0  0  0  0  0  0  0  0  0  0
    7.3543    5.6901  -22.2670 C   0  0  0  0  0  0  0  0  0  0  0  0
    5.6033    0.0986  -20.1422 C   0  0  0  0  0  0  0  0  0  0  0  0
    6.2430   -3.4061  -19.2130 C   0  0  0  0  0  0  0  0  0  0  0  0
    4.9594   -1.8551  -18.0284 C   0  0  0  0  0  0  0  0  0  0  0  0
    5.5592   -3.8363  -17.0879 C   0  0  0  0  0  0  0  0  0  0  0  0
    5.6475   -1.2836  -20.3345 C   0  0  0  0  0  0  0  0  0  0  0  0
    5.6170   -2.1766  -19.1980 C   0  0  0  0  0  0  0  0  0  0  0  0
    5.6614    0.4946  -22.5157 C   0  0  0  0  0  0  0  0  0  0  0  0
    6.1232    3.6006  -21.8297 C   0  0  0  0  0  0  0  0  0  0  0  0
    5.6577    1.0349  -21.2117 C   0  0  0  0  0  0  0  0  0  0  0  0
    5.6635    3.6526  -23.1599 C   0  0  0  0  0  0  0  0  0  0  0  0
    6.0556    4.7028  -24.0162 C   0  0  0  0  0  0  0  0  0  0  0  0
    6.8972    5.7151  -23.5732 C   0  0  0  0  0  0  0  0  0  0  0  0
    6.3261    2.7339  -19.4321 C   0  0  0  0  0  0  0  0  0  0  0  0
    4.1066    3.3021  -19.1485 C   0  0  0  0  0  0  0  0  0  0  0  0
    5.5987    1.2802  -23.8028 C   0  0  0  0  0  0  0  0  0  0  0  0
    4.7978    2.5683  -23.7325 C   0  0  0  0  0  0  0  0  0  0  0  0
    5.6356    2.5308  -20.8403 C   0  0  1  0  0  0  0  0  0  0  0  0
    5.5754    4.7973  -25.4320 C   0  0  0  0  0  0  0  0  0  0  0  0
    5.6269    3.5521  -17.1335 C   0  0  0  0  0  0  0  0  0  0  0  0
    6.4655    7.8918  -24.4280 C   0  0  0  0  0  0  0  0  0  0  0  0
    6.2343   -4.2643  -18.1719 N   0  0  0  0  0  0  0  0  0  0  0  0
    4.9097   -2.6643  -16.9497 N   0  0  0  0  0  0  0  0  0  0  0  0
    5.3237    3.2242  -18.5218 N   0  0  0  0  0  0  0  0  0  0  0  0
    4.2220    2.8920  -20.4762 N   0  3  0  0  0  0  0  0  0  0  0  0
    2.9241    3.7093  -18.5847 N   0  0  0  0  0  0  0  0  0  0  0  0
    7.4936    2.5068  -19.1514 O   0  0  0  0  0  0  0  0  0  0  0  0
    7.2893    6.7270  -24.3954 O   0  0  0  0  0  0  0  0  0  0  0  0
    5.7945   -2.8593  -21.8000 H   0  0  0  0  0  0  0  0  0  0  0  0
    5.7849   -1.3280  -23.7001 H   0  0  0  0  0  0  0  0  0  0  0  0
    7.3482    4.7022  -20.3964 H   0  0  0  0  0  0  0  0  0  0  0  0
    8.0115    6.4746  -21.8966 H   0  0  0  0  0  0  0  0  0  0  0  0
    5.5374    0.4525  -19.1102 H   0  0  0  0  0  0  0  0  0  0  0  0
    6.7890   -3.7571  -20.0838 H   0  0  0  0  0  0  0  0  0  0  0  0
    4.4338   -0.9120  -17.9108 H   0  0  0  0  0  0  0  0  0  0  0  0
    5.5338   -4.5069  -16.2379 H   0  0  0  0  0  0  0  0  0  0  0  0
    6.6305    1.4555  -24.2009 H   0  0  0  0  0  0  0  0  0  0  0  0
    5.1449    0.6323  -24.5968 H   0  0  0  0  0  0  0  0  0  0  0  0
    3.9081    2.4630  -23.1465 H   0  0  0  0  0  0  0  0  0  0  0  0
    4.5508    2.7915  -24.7537 H   0  0  0  0  0  0  0  0  0  0  0  0
    4.6480    5.3738  -25.4893 H   0  0  0  0  0  0  0  0  0  0  0  0
    5.3689    3.8027  -25.8371 H   0  0  0  0  0  0  0  0  0  0  0  0
    6.3368    5.2830  -26.0471 H   0  0  0  0  0  0  0  0  0  0  0  0
    5.9272    4.6000  -17.0425 H   0  0  0  0  0  0  0  0  0  0  0  0
    4.7482    3.3831  -16.5047 H   0  0  0  0  0  0  0  0  0  0  0  0
    6.4403    2.9207  -16.7653 H   0  0  0  0  0  0  0  0  0  0  0  0
    6.8907    8.6209  -25.1226 H   0  0  0  0  0  0  0  0  0  0  0  0
    5.4651    7.6106  -24.7656 H   0  0  0  0  0  0  0  0  0  0  0  0
    6.4015    8.3219  -23.4259 H   0  0  0  0  0  0  0  0  0  0  0  0
    3.4205    2.8552  -21.1077 H   0  0  0  0  0  0  0  0  0  0  0  0
    2.9271    3.9790  -17.6286 H   0  0  0  0  0  0  0  0  0  0  0  0
    2.1104    3.7190  -19.1538 H   0  0  0  0  0  0  0  0  0  0  0  0
  1  2  2  0  0  0  0
  1  9  1  0  0  0  0
  2 11  1  0  0  0  0
  3  4  1  0  0  0  0
  3 12  2  0  0  0  0
  4 16  2  0  0  0  0
  5  9  2  0  0  0  0
  5 13  1  0  0  0  0
  6 10  1  0  0  0  0
  6 25  2  0  0  0  0
  7 10  2  0  0  0  0
  7 26  1  0  0  0  0
  8 25  1  0  0  0  0
  8 26  2  0  0  0  0
  9 10  1  0  0  0  0
 11 13  2  0  0  0  0
 11 19  1  0  0  0  0
 12 14  1  0  0  0  0
 12 21  1  0  0  0  0
 13 21  1  0  0  0  0
 14 15  2  0  0  0  0
 14 20  1  0  0  0  0
 15 16  1  0  0  0  0
 15 22  1  0  0  0  0
 16 31  1  0  0  0  0
 17 21  1  0  0  0  0
 17 27  1  0  0  0  0
 17 30  2  0  0  0  0
 18 27  1  0  0  0  0
 18 28  2  0  0  0  0
 18 29  1  0  0  0  0
 19 20  1  0  0  0  0
 21 28  1  0  0  0  0
 23 27  1  0  0  0  0
 24 31  1  0  0  0  0
  1 32  1  0  0  0  0
  2 33  1  0  0  0  0
  3 34  1  0  0  0  0
  4 35  1  0  0  0  0
  5 36  1  0  0  0  0
  6 37  1  0  0  0  0
  7 38  1  0  0  0  0
  8 39  1  0  0  0  0
 19 40  1  0  0  0  0
 19 41  1  0  0  0  0
 20 42  1  0  0  0  0
 20 43  1  0  0  0  0
 22 44  1  0  0  0  0
 22 45  1  0  0  0  0
 22 46  1  0  0  0  0
 23 47  1  0  0  0  0
 23 48  1  0  0  0  0
 23 49  1  0  0  0  0
 24 50  1  0  0  0  0
 24 51  1  0  0  0  0
 24 52  1  0  0  0  0
 28 53  1  0  0  0  0
 29 54  1  0  0  0  0
 29 55  1  0  0  0  0
M  CHG  1  28   1
M  END
> <OMEGA_C>
HGe3QNhG5b907KzBO323QMQ4ab9whrXB8u/eQIH2lEBzSKvBuFbrQGEVtkDNIrLBdk6zQOACyj08
I6HBwMbHQPr9WcBKtJnBr7OeQCBz7b8gOpDBtuSxQOiFdcAQtIjBnri0QNRMpL8ZraLBIL6zQPhM
C8B9lZnBKSq1QFA4/T45ILTBAPHDQLJwZkAwo67Brwu1QLt4hD+ZsanBDju1QHXDaUBkR7nBicfB
QHV9lkAgIcDBnLXcQMjhtkDulbzBjm/KQEr4LkDwdJvBimmDQApVU0AwMJnBmSizQH7doz8vbL7B
+IeZQINeJEAq3L3B7Va0QEH5IUDnuKbBhWmyQN2DmUCpdMvBpw+0QMxVY0BUEYnBYuXOQHqJ/ECJ
bMPBFH/HQPh0iMD1X5HBIhydQIiDKsDzmIfBl1uqQGtZTkCeLJTBfhqHQD4WOUBFz6PBxiM7QJFk
bUB2rZTBZ8vvQO5uIEAENpnB+kHpQD9D10C4KcPBuGy5QAD+NsBcZq7B4B25QID9qb/Qmb3BZiTr
QNF4lkDeK6PBQy8AQbgvz0BCLK/BLDKxQCKx5z6z4ZjBWD/ZQGt0cMCfq6DBduGNQDx7ab9HSY/B
4xSxQK04kMA/54HBWS3UQFJPuj94m8HB96KkQB3cIT9OxsTB5B56QIWiHUAULLnBd6CRQHynMkCf
B8bBOryUQE/2q0AN6svBGc6rQMxfc0Bxss7BHsfKQJAOqUCNYNDBmqu9QOMyk0AjV4jBbvGXQBiE
WECWCYTBlBbOQEbsOkBiH4bBVIDcQDLvCUEU+8jB5OGuQL2J80DxH8bBJdnMQJomBUEmaLvBJula
QPe6NkCs3KjBOVU7QF+nfkBvB43BlBAHQFoDbkD3OpnBNkS/QJFCAcBf4KXBb6O+QHsBob/0K6/B
gmHhQFQojkBBsqnB4u3sQO2ErEC6Y7HBWY65QACpMTz6vpvBlu/QQDT0VsB6aZHB1IymQG7d3L/V
RYnBAmC7QOIjZcDDIYDB+yG8QCPwsL+8HJzB2uC7QA6sCcBZUZLBDyK7QPyzHz6Q9q7BdknHQNj9
VEAyIazBdoi6QPSTVD9RC6XBCJG4QHqPTkB8v7bB1D/EQLEhhkCmc77B7U/eQEuHqEBny7vBJHTO
QIpZLkA0VJjB6PiGQBSzUEC6g5bBQH+4QDy8TD8G3bnBJsydQOpEBEAuYLrBzpC4QK7IFkBhWaPB
sda0QDj3g0BjycnB+lm3QGa7cEA+uIbBqLLOQM6H6kDha8TBSFrRQBZGg8DlZ4jBDp2lQDi6GsA3
AoDByPStQDwBUkC3e5HB2AiLQDPaLUC8u6DBOZRBQEBubEAvWpLB4/vzQBS+I0B87JXBpwbqQE1G
xkC+McPByi/CQDZZRsAbcqbB/KLAQFyC478b2rbBLoXtQNFkk0AGraHBwKQAQXxFx0BnHa/BnyC3
QApx8D491ZPBwLbiQMA9csCHDZjBIPGUQKIUSr91H4nBbhu7QD0PhcDEm3HBrl3ZQPqFdT8CMr3B
SIqqQABsdj1soL/BdmmBQKgJAEBFnLXBGLuVQFYsC0AWr8LBqrCWQO9VlUB8tsrBeBOvQDiTRUAo
K8zBXs3MQIL6kUBFGs/BxhPAQKtBmkBe4obBAl+bQCq/aEB0j4HBCuTRQDZmTEDMRYPB1rPbQBe9
/0CTkcrBLvCuQF+c30CD2sbBzETMQLeJ+0Bnz7zBKOFiQL3pJUCUtqXBXkdBQAsFgkA6+YrBvocN
QOrZZ0DR35bBVDucQBRN57//GK7BFPKgQGpWXL/OJrbBep3mQFSSiUAi0qjBU1r4QO0VqkADGa/B
k9qiQICyKL1fNKHBUPN9QJ/eX8A2TpzBHTKpQIpgC8CCEZHBVGuMQOAyhMDpKYvB+p6cQMopsr/u
kKPBRviWQEZyFsC9BpvBNmimQPvmBD8h6bPBfCbGQGocXEDtqazBRoGpQNx1cz8PMKnBtLC3QCLm
akBkLLfBI6jJQLBqlkCFcL3BUtTpQCiPsEC/brnBuT7IQI+uF0DBFZrBMHOFQMtBUkA3JpfB+n+o
QPQwsz95s73B2FaWQEH7MkD5QLzBFhixQAxXGUBRVaXBfcS6QKt4n0CImsjB8yG3QACGR0BzKIfB
3jUOQfE56UAvjrrB4ARyQHQ4jcDqg5TBBY+kQGhDQ8Cb64jBQYKrQJIBPUB6YZLBApWGQHm0PUAg
AKLBgAZFQHYEdkAWO5LB7drrQMCO9j9ZKJjBY5f7QLQ80ED3cr/B71KYQE2WNsCeNrDBLBGgQDzZ
mb96db7BMBfzQDF+hkBIw6DBebkIQXRAvkDvxqvBA+qiQPiedD6wwJjB8HxeQGzLbsAs06PBDq68
QCSOp798NY/BtBeIQAckm8C7woTBTurJQAOYtj+97cDBGHyWQLTJZj+2WcTBWqZzQOg3M0DlgbfB
bpWPQFy0SEDFOsTBlq+gQC7MtkDyk8jBULiuQIlSgkARZczBPFLVQLEVrEBrVs3BxF7GQPLWgkAp
24XBm5+aQP9qQ0AaHILBPGDNQCUkFUBJuITByOoTQeWqAEFfNsDBeacHQeIg+UCJfrPBd2QbQVlk
1EBGJbjBLvxZQB07R0A68KbBjopIQDoigUDvcYrBH50RQMwlgUAfpJbBDHyXQKrM1L/Hmq3BzDKc
QJZVN7+WqLXBMd7hQG8yjkDrU6jBDJvzQAi2rkDMmq7BTBueQGCt0z0ntqDBwXR0QGqeVsD+z5vB
1nKkQFYgAsBKk5DBC6yHQIolf8Cyq4rBst+XQGCpn7+2EqPB/TiSQBAyDcCFiJrB7aihQNPnKT/q
arPBMmfBQKBcZUC1K6zB/sGkQFg7jD/XsajBavGyQFgmdEAtrrbB2+jEQMsKm0BN8rzBChXlQEIv
tUCI8LjBcX/DQMTuIECJl5nB6LOAQACCW0D/p5bBssCjQF+xxT9BNb3BkJeRQHY7PEDCwrvBzVis
QEGXIkAZ16TBNgW2QMYYpEBQHMjBq2KyQDbGUEA8qobBOtYLQQ3a7UD3D7rBUYZoQFqYiMCyBZTB
vM+fQDEDOsBjbYjB+MKmQMdBRkBD45HButWBQK70RkDpgaHB8oc7QKtEf0DevJHBpRvnQJWHBEAh
qpfBHNj2QM7c1EC/9L7Bp5OTQBhWLcBnuK/B5FGbQNJYh79D973B6VfuQEsei0AQRaDB1VkGQY7g
wkC4SKvBuyqeQChRxD54QpjBXv5UQDeLZcD1VKPBxu63QLoNlb9Et47BbliDQOyDlsCDRITBBivF
QG0YyT+Gb8DBz7yRQETlhT9+28PBySdqQB54PECtA7fBJdaKQJL0UUCNvMPBTfCbQEhsu0C7FcjB
BvmpQKTyhkDa5svB9JLQQMy1sEAz2MzBfJ/BQAx3h0DxXIXBU+CVQDSrTEDjnYHB9KDIQFpkHkAS
OoTBJIsRQfP6AkEnuL/B1UcFQfzA/UBSALPB1QQZQXQE2UAOp7fBoH1QQFJ7UEADcqbB/gs/QFTC
hUC384nBjh4IQObFhUDnJZbBIsCaQEKE7r95eq3BUIWeQKqra7/zlrXBeeTfQJraiUDknajB5qXw
QECoqkDC967BqwigQDRWpr3msKDBeHp+QFgCZMA4kJvBFHioQIagDMA1cZDBXHyNQBRphcBoZorB
TPCaQJkpuL+I+KLB5j+WQE4+GcBBX5rBXdGiQHE+7j5sbrPBkCDAQNW4WkAdYazBtbOlQKa9aD9o
vKjBS1CxQBQgaEAi47bBLknCQFJTlUCBOr3Bd8zhQClxsECeTLnBp23DQK98F0BTvpnBftF/QC+X
TkD3ypbBp/+jQGdfqz/RRb3B6KeQQOYiLkC14rvBCBisQN1AF0BL+KTBDP2yQC6onUCyZMjBvPWx
QBt1R0CJ14bB3GgJQZ5s6kA3krrBil90QCY4j8Bgt5PBsLakQLNHRMCzPYjBRFCmQK2tO0ArC5LB
zyeBQAF+OUB7oKHBTSY5QJy5cEAE35HBYHDnQIBD+j+e05fB6pryQOVq0EB0Y7/BC7iXQBCAOsAg
iK/BItCdQB+Jor9z4L3BeJHsQLdXh0DlkKDBjJ4EQbuWv0AWtavBmfqfQBo9Uz5PQZjBgjRfQNE0
dMDLDaPBjTi7QErHp7+Tpo7B/eCJQGpHnMDt84PBalTFQF0Gsj/qiMDBaVKSQKDKUT9N4MPB9HBo
QGEZLUB+HLfBAX2JQGUIQ0CV38PB+EiYQNhEtEDtYcjBhq2nQPgVgEAdH8zBfh7NQIfZqkDrLM3B
mF7AQGg+g0AEnIXB2peVQM8YQkAWw4HBAurIQOlvFkDEYYTBtL4OQQZWAUEHSMDBl7ECQWQq+kBp
hrPBGOMWQUBh1kCxJrjBeL5OQGpZQUAvjKbBOZE8QM6BfUAdGYrBokoFQEdbe0A9RJbBokWcQAhw
v79xZ7HBKY2hQHja+r7x9bjBjhPsQKq1j0CXJanBiX3+QPBOsUDX7K7BsdKkQHQvHz5So6PBPT18
QJFjU8BEdaDBRNGpQBQyB8AlqZTBx4uLQKm6gsDHto/Bg1mdQOJxlb9BrqbBQSOXQK0VDMC5pJ7B
cEaoQN8cXT99BbbBjsLKQKc+bECrWa3BshSsQN4ymj/XGqvBVi28QFKegEDMrrfBGtXOQBGpokCP
cb3BH9PvQKnXukAeGbnBVoLMQBgyHkAYX5vB45+KQICiWkC0zpfB0tKqQP7+6D+tVr/BmuyZQOze
TUBHIL3BxQm1QITvJkDbhqbBU9i/QKz+rkC2ZsjBaqS8QDr3REBuDojBafIRQWpS8kCRa7nBFjdv
QGDHiMA3JZnBV66kQEbxQsDu+IzBq4ewQLrvQED+T5PBmSOLQPC5S0D+zaLBWa1QQF6YfUCrhpLB
AcjvQPnx/T+Aw5nBzR8BQeSJ20BXob7B8GSXQD4uIcB9DLTBPx6gQOoSQ7/YbMHBLLf4QJc1ikCY
L6HB6BwMQSDlw0A1WKvB0mOlQC1juz4dD5vBVupbQNKGXcBwC6jBnhq+QAB4o7+gZpLB+MyGQOcq
m8C/r4nB0iXMQII27D8RoMLBGi2YQGAxsj91MMbBRCV7QB8lTUDgUbjBQzeTQIMNaEBw5MTBzmem
QIjyxkBT78fBLuWyQHg5k0DUoMzB1pTaQFQbvEDb+8zBT8HMQMG9gEAfSobBJj+gQDHAP0Dy+4LB
hEXSQIFCEEDQFYbBl+MXQWnFBUGBs77BALgLQaxYAEHCFbLBLuEeQZQ23ECharfBexFjQA4oWUDy
l6fBfgJVQDrVgkByqYrBnlcdQDjAhkAOxJbB1GKXQGFW2r+EGrLBWqqcQOo5M78EqbnBvzDnQBT8
iECp2KnBupr5QFqVqkDqn6/B4++fQDANYL1kVqTBoHdyQL3WYMBWKKHBdu6kQEClFMA4XJXB+aiG
QD90icDZaZDBtHaYQDtYsL9TYafBc0CSQNqIGcDLV5/BomOjQC1QJz+QuLbBwN/FQHvLXkC9DK7B
5DGnQAyZfj/qzavBiEq3QHjJc0DfYbjBTPLJQHvvm0ChJL7BUPDqQBMetEAxzLnBh5/HQOy+EEAr
EpzBFL2FQFQvTUDGgZjBBPClQKUYzj+/CcDBzAmVQMBrQEBa073B9yawQFh8GUDtOafBhfW6QBZF
qEDIGcnBnMG3QA6EN0CAwYjBAYEPQdSY60CjHrrBeXFlQPaAj8BK2JnBicufQHJkUMABrI3B3aSr
QI58M0AQA5TBykCGQMRGPkARgaPBvOdGQDElcEC9OZPBM+XqQKEL4z+SdprBy1z9QE7Q1EBqVL/B
IoKSQGqhLsCQv7TBcDubQJjfeL/qH8LBXdTzQAF8g0Cq4qHBgasJQYorvUBHC6zBBIGgQJqTHz4v
wpvBuSRSQP75asCEvqjB0De5QFhevr+zGZPBKeqBQH3kocDRYorBA0PHQClQ0T8kU8PBS0qTQAdL
lz+H48bBqF9xQPKxP0DyBLnBdVSOQFiaWkCCl8XBAIWhQPI4wEBmosjBYAKuQOJ/jEDnU83BCLLV
QL5htUDurs3Bgd7HQFYIdEAy/YbBWFybQAVNMkAFr4PBtWLNQFXPAkDjyIbBMHIVQZ5oAkGUZr/B
mEYJQcP3+UDUyLLBx28cQf981UC0HbjB3ktZQOK0S0AGS6jB4jxLQEg3eECFXIvBAZITQKIGgEAi
d5fB

> <OMEGA_E>
8NpSwQRmXcHRtWXB52tfwSI7X8GwSFfBwV9VwQ==

> <OMEGA_NBR>
     53847

$$$$
50157456
  -OEChem-04172616093D

 52 55  0     1  0  0  0  0  0999 V2000
    5.4490   -0.4673  -22.5465 C   0  0  0  0  0  0  0  0  0  0  0  0
   10.2804   -2.1684  -19.5149 C   0  0  0  0  0  0  0  0  0  0  0  0
    6.3758   -1.2339  -21.8147 C   0  0  0  0  0  0  0  0  0  0  0  0
    9.3756   -1.4508  -20.3132 C   0  0  0  0  0  0  0  0  0  0  0  0
    5.2118    0.8782  -22.1969 C   0  0  0  0  0  0  0  0  0  0  0  0
    7.2489    4.3612  -22.1204 C   0  0  0  0  0  0  0  0  0  0  0  0
    7.5256    5.2365  -23.1843 C   0  0  0  0  0  0  0  0  0  0  0  0
    6.8144    0.6824  -20.3724 C   0  0  0  0  0  0  0  0  0  0  0  0
    4.9299    4.1998  -22.8563 C   0  0  0  0  0  0  0  0  0  0  0  0
    9.8048   -2.8387  -18.3678 C   0  0  0  0  0  0  0  0  0  0  0  0
    7.0571   -0.6526  -20.7278 C   0  0  0  0  0  0  0  0  0  0  0  0
    8.0196   -1.4288  -19.9403 C   0  0  0  0  0  0  0  0  0  0  0  0
    5.8997    1.4733  -21.1078 C   0  0  0  0  0  0  0  0  0  0  0  0
    5.9350    3.8703  -21.9119 C   0  0  0  0  0  0  0  0  0  0  0  0
    5.2151    5.0411  -23.9516 C   0  0  0  0  0  0  0  0  0  0  0  0
    6.5100    5.5942  -24.0914 C   0  0  0  0  0  0  0  0  0  0  0  0
    7.6084   -2.1092  -18.7699 C   0  0  0  0  0  0  0  0  0  0  0  0
    6.3267    3.4014  -19.4403 C   0  0  0  0  0  0  0  0  0  0  0  0
    4.0598    3.5333  -19.1256 C   0  0  0  0  0  0  0  0  0  0  0  0
    5.6157    2.9375  -20.7254 C   0  0  2  0  0  0  0  0  0  0  0  0
    4.1124    5.3884  -24.9375 C   0  0  0  0  0  0  0  0  0  0  0  0
    5.5519    4.1717  -17.1680 C   0  0  0  0  0  0  0  0  0  0  0  0
    6.6420    7.8468  -24.8044 C   0  0  0  0  0  0  0  0  0  0  0  0
    8.4961   -2.8002  -18.0137 N   0  0  0  0  0  0  0  0  0  0  0  0
    5.3220    3.7992  -18.5744 N   0  0  0  0  0  0  0  0  0  0  0  0
    4.1908    3.0487  -20.3414 N   0  3  0  0  0  0  0  0  0  0  0  0
    2.8381    3.7581  -18.5016 N   0  0  0  0  0  0  0  0  0  0  0  0
    7.5295    3.4464  -19.1988 O   0  0  0  0  0  0  0  0  0  0  0  0
    6.8013    6.4490  -25.1317 O   0  0  0  0  0  0  0  0  0  0  0  0
    6.3097   -2.0687  -18.3855 F   0  0  0  0  0  0  0  0  0  0  0  0
    4.9190   -0.9103  -23.3767 H   0  0  0  0  0  0  0  0  0  0  0  0
   11.3278   -2.2070  -19.7755 H   0  0  0  0  0  0  0  0  0  0  0  0
    6.5633   -2.2624  -22.0854 H   0  0  0  0  0  0  0  0  0  0  0  0
    9.7136   -0.9268  -21.1949 H   0  0  0  0  0  0  0  0  0  0  0  0
    4.5002    1.4608  -22.7631 H   0  0  0  0  0  0  0  0  0  0  0  0
    8.0444    4.0594  -21.4553 H   0  0  0  0  0  0  0  0  0  0  0  0
    8.5213    5.6364  -23.3066 H   0  0  0  0  0  0  0  0  0  0  0  0
    7.3319    1.1119  -19.5274 H   0  0  0  0  0  0  0  0  0  0  0  0
    3.9333    3.8015  -22.7353 H   0  0  0  0  0  0  0  0  0  0  0  0
   10.4997   -3.3959  -17.7571 H   0  0  0  0  0  0  0  0  0  0  0  0
    3.5819    6.2883  -24.5930 H   0  0  0  0  0  0  0  0  0  0  0  0
    4.5525    5.5787  -25.9275 H   0  0  0  0  0  0  0  0  0  0  0  0
    3.4044    4.5493  -25.0060 H   0  0  0  0  0  0  0  0  0  0  0  0
    4.5953    4.4475  -16.7002 H   0  0  0  0  0  0  0  0  0  0  0  0
    5.9906    3.3185  -16.6299 H   0  0  0  0  0  0  0  0  0  0  0  0
    6.2418    5.0273  -17.1236 H   0  0  0  0  0  0  0  0  0  0  0  0
    6.8922    8.4604  -25.6823 H   0  0  0  0  0  0  0  0  0  0  0  0
    5.5997    8.0376  -24.5090 H   0  0  0  0  0  0  0  0  0  0  0  0
    7.3125    8.1071  -23.9721 H   0  0  0  0  0  0  0  0  0  0  0  0
    3.4258    2.7889  -20.9307 H   0  0  0  0  0  0  0  0  0  0  0  0
    1.9858    3.5484  -18.9807 H   0  0  0  0  0  0  0  0  0  0  0  0
    2.8116    4.1295  -17.5735 H   0  0  0  0  0  0  0  0  0  0  0  0
  1  3  1  0  0  0  0
  1  5  2  0  0  0  0
  2  4  2  0  0  0  0
  2 10  1  0  0  0  0
  3 11  2  0  0  0  0
  4 12  1  0  0  0  0
  5 13  1  0  0  0  0
  6  7  2  0  0  0  0
  6 14  1  0  0  0  0
  7 16  1  0  0  0  0
  8 11  1  0  0  0  0
  8 13  2  0  0  0  0
  9 14  2  0  0  0  0
  9 15  1  0  0  0  0
 10 24  2  0  0  0  0
 11 12  1  0  0  0  0
 12 17  2  0  0  0  0
 13 20  1  0  0  0  0
 14 20  1  0  0  0  0
 15 16  2  0  0  0  0
 15 21  1  0  0  0  0
 16 29  1  0  0  0  0
 17 24  1  0  0  0  0
 17 30  1  0  0  0  0
 18 20  1  0  0  0  0
 18 25  1  0  0  0  0
 18 28  2  0  0  0  0
 19 25  1  0  0  0  0
 19 26  2  0  0  0  0
 19 27  1  0  0  0  0
 20 26  1  0  0  0  0
 22 25  1  0  0  0  0
 23 29  1  0  0  0  0
  1 31  1  0  0  0  0
  2 32  1  0  0  0  0
  3 33  1  0  0  0  0
  4 34  1  0  0  0  0
  5 35  1  0  0  0  0
  6 36  1  0  0  0  0
  7 37  1  0  0  0  0
  8 38  1  0  0  0  0
  9 39  1  0  0  0  0
 10 40  1  0  0  0  0
 21 41  1  0  0  0  0
 21 42  1  0  0  0  0
 21 43  1  0  0  0  0
 22 44  1  0  0  0  0
 22 45  1  0  0  0  0
 22 46  1  0  0  0  0
 23 47  1  0  0  0  0
 23 48  1  0  0  0  0
 23 49  1  0  0  0  0
 26 50  1  0  0  0  0
 27 51  1  0  0  0  0
 27 52  1  0  0  0  0
M  CHG  1  26   1
M  END
> <OMEGA_C>
Rl6uQMpC774kX7TBd3wkQVTHCsB/HpzBkgbMQCXvnb90hK7BZwIWQS+0ub9agaLB+MamQOjOYD8z
k7HBufbnQI+Oi0Ck9rDBftHwQBuRp0BcebnBvg/aQKmuLj/H+qLBXcGdQCNlhkC+2bbBWeAcQcGt
NcBV8ZLBoNPhQFoRJ7+Y0qXBOVAAQaPhtr+xhZ/Bjcq8QDWWvD/P3KjBZeu9QM+zd0CJS6/Bd+Km
QNFQoUDNnL/Bk1HQQA4Es0Awu8DBMnjzQLX9BsDNKJbBH3TKQOivWUDQhZvBiumBQHIhYkA9AZnB
CrSzQIL/O0CVzaXB+JiDQKRtrEDnf8fBDamxQGx+hUAoWInB7IrUQCEZ+0BWb8bBBvAHQbk2M8Ak
HJDBqU2qQOYlc0BymJTBHxuGQI4eQ0BCu6LBOqM1QIyEcEAwA5TBWfHwQBqRXEAMl5nBi6TZQBZe
zkDJDcnBL+nJQARlBMCIFZPBW2idQEgHab9uA7vBgD41QSE/DcBCNJ7B3wbSQGnLEMDzrrDB32ob
Qe9Abb89j6nBggGQQBv6uj/NGrbBCLYAQTLmgUB8pKvBR1cIQWVdtEDdc7rBmp7qQOdSjj8TOJzB
ebt7QOxLc0Ds4bXBxv4nQfhWWcCLDo7BdD5lQB86yUBxvsTBtK2RQKOEskB7a8/BauJZQNqTkUBU
DMjB1gyTQI9RjkDpmYXBRbO/QFNiVEASCoXB3LzHQGrfoEAM/YjBP43cQNxdB0Fzdc3BjjCzQNuZ
AEFXEsTBoP/pQMC2AUHXxr/BMUBbQE19MkARcqfBPS7+P/0YY0CM2JfBvvAzQMokhEB0lozB9jmu
QBac777IWbTBh+8IQaJsNMAdSpDB17PLQDVVnr+jda7B8yHzQAXDB8BKSJbBzL2mQIDxYD/hkrHB
SvnnQEOGi0BT+LDBidPwQMiMp0BDernBt8vZQA/5LT8U7qLBv8CdQKRqhkBe2bbBh3weQWFLM8A5
p5PBJGzhQIEwKL8Uv6XBjDsAQV8Tt79sf5/BmbO8QHWGvD8l2ajBdey9QFqvd0BRTK/BBOOmQKBS
oUDnnL/BmFLQQP0Gs0ABu8DBxSAWQcsquL+mYKLB4HrKQIK1WUCxhpvBjfGBQJ8wYkAD/5jBh7Kz
QLEGPEBBzaXBNY+DQMJ9rEC0e8fB1LyxQOd3hUDFVonBvWjUQCIf+0AibsbBILskQQq4B8COgJzB
gVmqQKopc0B5l5TBBRyGQPxBQ0AkuqLBqLg1QD+PcEBx/5PBr/nwQCF+XEAzmZnBEKjZQHdozkD4
C8nBws0cQbU8P7+tFKvB91KdQPf2aL92AbvBM1IEQZI6V8C3MInBmaDRQCgNEcB+nLDBZ/PRQBlf
B8AH3pPBMBiQQOlCuz/eILbBGLgAQUDWgUCBp6vBu1gIQaZWtED8dLrBIFPqQLLojT/AKZzBybR7
QNpnc0A24LXBP0sqQYP4VcDiEY/BCz9lQOFKyUDNtsTBTZiRQJ6ZskBXaM/BtsJZQOOokUBxB8jB
xSOTQOtLjkALl4XBcMa/QDBMVEBdCoXB8NPHQCfWoEBH+4jBi2/cQPZjB0HXcs3BGgSzQC2RAEF7
FsTBdMbpQODAAUEjwr/BHTpbQOy+MkBUcafBclD+P0MwY0CG1JfBYg40QD4ihEDjkYzB5ojBQIdR
pr5qDbbBPRnMQDzQUMCYxozBK7/NQKulnL8B9a3B5Le+QH3KGcDH/5TBQ065QNwPgz+6ibPBfGvn
QPcrjUB12LDBSErwQDjLqEDtbbnBunnIQGguET8FwqDBU1idQC0+h0AG1bbBZjX4QOjHWMA8korB
zhTRQNU+Rr+KT6PBTPXdQBIM2b/eyZrBiq+9QD1Mvz8p3ajBA3i9QJFOekC1O6/B04mmQICtoUC4
q7/BJObPQNOPs0CSyMDBytYEQVKr7b9rI5jB7m/KQC8DWkDApZvB+OeBQOhSY0CNHJnB5ImzQG8T
PUAZ5aXBuWSDQN0ArEDYqMfBz8SxQNpnhkCTgYnBmJHTQExc+0BgsMbBPv4KQXJXLMDCLZDBOWKq
QEUddUDpwpTBgASGQEHhQkD5xaLBNKw1QHC9cUAwGpTBIcfwQCsWVkBAk5nBcjvZQOuTzkDoKsnB
hvwTQUDtlL/Fj53BcXa+QJVCK7+3NL7Bt+m0QHqedMDqMIjBeIrUQNBLEMBR5a/BlSedQJdjEsDW
1pbB3ZSvQNhx2j+nxrnBrmEAQWkQhEA0bqvB0wgIQdHRtUBmZLrBJR3KQNamZD//h5jB5ep6QAQM
dUAA1rXBmEABQeqmgcDMQ4TB5j9kQHzYyEDMDMXBJaWRQNavsUBflM/BcupZQHnykEATI8jBA0qT
QIn3j0BNz4XB5hS/QBCnVUDgKoXBoXbIQI5FoUBpIonBiZ3bQA5hB0FUwM3BURKyQJGbAEFdasTB
h7PoQGscAkFUAsDBahxbQDmQMEAUZafBcDT+P483Y0AB3pfBJgw0QLdQhUAjvIzBR4rBQPiypb4G
ErbBukYKQRB/L8D69Y/ByfzNQFBgnL+6/a3Bl8cEQfK37r9JSZjB6zi5QFoZgz8Yi7PBSGrnQPwh
jUC02LDBXUvwQBXAqEAcbrnB/bzIQFxmET/Yx6DBhVKdQLFGh0DW0rbBPMjzQAUDW8ChaorBYXzR
QAKtRb8/WaPB8AreQLYr2b/z0ZrBWLu9QBJUvz9l36jBqnO9QANOekCwOq/B2IamQEOzoUDdqb/B
i+bPQD2Ns0Cdx8DBubC+QEuaGcAb6ZTB4GzKQJ76WUB5pZvBXOWBQFtLY0DTG5nBQYazQMwLPUC9
5KXBVF+DQHEPrECIpcfBZcSxQGdXhkAhgInBt53TQFdb+0CprcbBvevJQIOrT8Dh6IzBTGCqQOoM
dUAGwpTBnwCGQE/KQkCaxKLBfak1QIXNcUDvGZTB1cTwQMUVVkCok5nBrz7ZQP2SzkBtKcnBvamU
QP68DsCANJfB+Fq+QPPyKr+jOL7BStcaQVpDOcAz043BENbUQMweEMB08K/BgP8QQR9Yqr8Vp5zB
aFSvQF5m2j/txLnBY2EAQYn/g0Bbb6vBqgoIQVa/tUBsZbrB+G7KQG+3ZD+ejZjBMdl6QDEvdUCv
0rXBPj38QOAzg8BICITBrUVkQM7qyECmCMXBJpyRQNy7sUCUkc/BktJZQEgGkUAMH8jBTEqTQJ7l
j0BCzYXBzxO/QOx+VUC9KoXBSnfIQPYzoUDkH4nBaKvbQEhhB0E/vc3BGiCyQLSdAEH1ZsTB/8Lo
QKAYAkG6/7/BoBRbQF9mMECHYqfBxSn+PwZOY0CL3ZfB0Q00QBFehUBuvIzBy6LVQLyJX74/kLXB
+yDDQCzdM8Ar1YnBryPOQOxSm7+F2K3BhlbLQISv5780b5HBmaTNQFL5kD9EH7PB7UedQG3uhUB/
6bbBEQSmQCjGoEANo7/BnHC3QE+W/T4zHKHBGHbmQCcEj0C/l7DB3WqmQPxodsC0ZozBBA2/QMIy
W7+umKPBSvW2QHWv8b/cdpvBjUm+QLdtwD+11KjBaA29QLZEe0AQIq/B8VHvQEpnqkCPQLnBfgvP
QHWps0Dq3cDB6EKaQD4cPcC5gZ3BSmzKQBJCWECFlJvBjuaBQJLdY0DFJ5nBv7WzQM1LPUCH46XB
IPoNQbU6vUAbarrBIqixQJC6hkCTi4nB7YO3QDlX2ED879DB64aSQL75ecCiB5bBgGeqQIgkdUBM
yJTB8BOGQOQ+Q0B2zaLB9ZE1QEOAckBrLZTBRajwQGmuUkAxd5nBmSbZQFnNzkBpUsnBldyEQATu
QMCa7KbBQovhQK1D+75EYL3BTpvSQJ0yMsBEHILBxuzTQIMQEMBvwq/Ba97gQCP4fr/MoI/BgTTT
QCBA8j/4GbnB3xN8QKf6bkCYIbbBRFKNQPYgp0AJeMXBq0GsQPmYQz8LOZnB3ZP/QKgqh0Dg/arB
sB+gQALdk8A1jobBsPUXQZ6Fp0DdN7/ByPAMQcuC3ECEar7B6iwVQelIwUDMcrLBfT+TQHwCkUAd
74XBX0++QP8oVkCeHIXBmtfIQE8toUDOMYnBo+7DQLv/7UAlJNfBsm+sQB15ukBSrtTBq6GcQCLJ
50BdxczBBVFbQMfmMEC3b6fBAx/+P7MAZEAg9ZfBJNIzQBvDhUBH0YzB83TXQCSUV77wY7XBZFaH
QCtQQsAVS4/B1/LPQKlZmr/WrK3BmNaNQGK4AsDlDZfBKnjOQMJ+kT9qCbPBJUOdQJbmhUAC8rbB
6hKmQMzEoEB0qL/B9Gi1QLgu+j7uSKHBjlnmQBkSj0DbkLDB8DSqQK9rdcDHDIzBPda+QNctW78D
nKPBaAa3QNqY8b8WdZvBcYu9QBMywD/x4qjBZuy8QLFIe0AFJK/Bdk7vQE9vqkCrObnBSBnPQAyx
s0Cl28DBlbfYQJrpLcAjzJfBRkfKQNK7V0AAmJvBvNCBQOwOZEACIpnBZ2WzQIFMPUDS6KXBEvgN
QRhPvUCWW7rBzsmxQPmihkAyjInBbK23QI5j2EBn79DBNdrRQPqMasBcPZDBSWSqQML6dEDgx5TB
T9KFQPHtQ0Anz6LBR4s1QKadckCtHpTBd4bwQAL0UUDIf5nBrUHZQCrdzkBdTcnBEXwAQSu8IsAE
lZvBLSPkQBTB9b4gIr3BeQlQQGv/S8C+2IvBv0XXQEw3D8A3c6/BpIdnQAxdtL+6mZnBXXbUQDj9
8j/i+bjB1hB8QP7PbkC3MbbBEXCNQMcep0BxgcXBM9SnQLmZPz/cnZnB6mP/QAxGh0Bl8KrB5TOl
QLEzk8BzFYbBWf0XQX6ep0CNJb/BKPAMQdqV3EC9XL7BCx8VQbZiwUDLYbLBa3WTQLsUkUCZ7IXB
ElW+QBTeVUCuHYXBaxzJQIP3oEAXNonBkiDEQH4T7kDhINfBfqmsQBqFukCSsNTBsb2cQKPL50D0
x8zBG5xaQORQMkCMdKfBSdr9Py1zZEAt5ZfBiP8zQEeghUAkvYzB5m7VQHsjY76JkbXBOeGTQNVj
esDRmJXB5srNQE3Um78p263B1SGbQMwWPcCfmZ3BrKPNQCe8kD+cH7PBGlCdQMPrhUCJ6LbBUwqm
QCLKoECuoL/Byx23QJAp/T6iJaHBC3nmQI0Nj0Dpk7DBgD+pQMBwcsAhtYvByPG+QPWUW78jmaPB
0kG3QCzG8b/ZbpvBMCq+QNhSwD/V2KjBqhK9QIZFe0BmIK/B51PvQBR1qkAIPLnB9g3PQLW2s0Cc
2cDBfKjLQFQj6b9vUJHB7HPKQFEiWEDzkpvB4fCBQMftY0C8JJnBtrWzQHpJPUA246XB8fgNQXVU
vUDRY7rBirqxQHa1hkBLiYnBe4W3QO1g2EAX7NDBzYPEQKzZMMCluonBL3WqQLoedUAmxpTB4RWG
QPRjQ0DJy6LBnq41QPWVckC2KJTB4q/wQEmFUkAidpnB1SXZQMjhzkDWTMnBndLnQDhrU79KK4/B
lE3hQF2Y/b7kYb3BS2J8QCWEl8B1/pbBv0nTQKxiEMBBya/BuHCLQMIkQsCsRaXB4XLTQLP+8T/S
FrnBQSp8QInlbkA8IrbB4VmNQDEjp0AldsXBJJirQF5WQz8xSpnB0ZT/QPY3h0Ak+arBbcCjQLrh
kMDUj4XBQfgXQfSmp0DEMb/BcOwMQRie3EBDY77BkykVQS5iwUACbLLBzlWTQAUJkUDa7IXBTle+
QIYVVkBHGoXBBfTIQG4foUCVL4nBu+zDQMsQ7kATH9fBo4CsQLh/ukC4q9TBW5mcQFbG50CQwszB
xklbQDAwMUBybqfB5Ur+P2UrZEAo8JfBMPszQG/FhUCfy4zB

> <OMEGA_E>
ZDsuP1ZeLj+4lC8/6KAvP7xpKD/I1yg/PEApPw==

> <OMEGA_NBR>
     60259

$$$$
50157489
  -OEChem-04172616093D

 55 58  0     1  0  0  0  0  0999 V2000
    6.5187   -2.7085  -17.1659 C   0  0  0  0  0  0  0  0  0  0  0  0
    6.1005   -1.8485  -18.1938 C   0  0  0  0  0  0  0  0  0  0  0  0
    5.8087    1.0342  -22.4422 C   0  0  0  0  0  0  0  0  0  0  0  0
    7.2318    4.4156  -22.1041 C   0  0  0  0  0  0  0  0  0  0  0  0
    6.0675   -0.3112  -22.7579 C   0  0  0  0  0  0  0  0  0  0  0  0
    7.5094    5.2771  -23.1784 C   0  0  0  0  0  0  0  0  0  0  0  0
    6.2515    0.5677  -20.0940 C   0  0  0  0  0  0  0  0  0  0  0  0
    4.9177    4.2278  -22.8541 C   0  0  0  0  0  0  0  0  0  0  0  0
    7.7673   -3.3570  -17.2752 C   0  0  0  0  0  0  0  0  0  0  0  0
    8.1831   -2.3451  -19.3497 C   0  0  0  0  0  0  0  0  0  0  0  0
    6.9387   -1.6755  -19.3123 C   0  0  0  0  0  0  0  0  0  0  0  0
    6.5393   -0.7741  -20.4072 C   0  0  0  0  0  0  0  0  0  0  0  0
    5.9275    1.4982  -21.1069 C   0  0  0  0  0  0  0  0  0  0  0  0
    5.9209    3.9147  -21.9028 C   0  0  0  0  0  0  0  0  0  0  0  0
    6.4324   -1.2256  -21.7492 C   0  0  0  0  0  0  0  0  0  0  0  0
    5.2055    5.0518  -23.9602 C   0  0  0  0  0  0  0  0  0  0  0  0
    6.4977    5.6115  -24.0990 C   0  0  0  0  0  0  0  0  0  0  0  0
    6.3258    3.4095  -19.4549 C   0  0  0  0  0  0  0  0  0  0  0  0
    4.0590    3.5531  -19.1383 C   0  0  0  0  0  0  0  0  0  0  0  0
    5.6105    2.9576  -20.7357 C   0  0  2  0  0  0  0  0  0  0  0  0
    6.6981   -2.6753  -22.1296 C   0  0  0  0  0  0  0  0  0  0  0  0
    4.1075    5.3723  -24.9598 C   0  0  0  0  0  0  0  0  0  0  0  0
    5.5539    4.2018  -17.1872 C   0  0  0  0  0  0  0  0  0  0  0  0
    6.6096    7.8542  -24.8407 C   0  0  0  0  0  0  0  0  0  0  0  0
    8.5748   -3.1666  -18.3474 N   0  0  0  0  0  0  0  0  0  0  0  0
    5.3237    3.8321  -18.5943 N   0  0  0  0  0  0  0  0  0  0  0  0
    4.1881    3.0474  -20.3464 N   0  3  0  0  0  0  0  0  0  0  0  0
    2.8376    3.7764  -18.5125 N   0  0  0  0  0  0  0  0  0  0  0  0
    7.5238    3.3476  -19.1955 O   0  0  0  0  0  0  0  0  0  0  0  0
    6.7898    6.4545  -25.1478 O   0  0  0  0  0  0  0  0  0  0  0  0
    5.8921   -2.8718  -16.3015 H   0  0  0  0  0  0  0  0  0  0  0  0
    5.1553   -1.3302  -18.1282 H   0  0  0  0  0  0  0  0  0  0  0  0
    5.5167    1.7206  -23.2232 H   0  0  0  0  0  0  0  0  0  0  0  0
    8.0234    4.1326  -21.4261 H   0  0  0  0  0  0  0  0  0  0  0  0
    5.9862   -0.6467  -23.7813 H   0  0  0  0  0  0  0  0  0  0  0  0
    8.5024    5.6845  -23.2986 H   0  0  0  0  0  0  0  0  0  0  0  0
    6.2786    0.8909  -19.0638 H   0  0  0  0  0  0  0  0  0  0  0  0
    3.9213    3.8301  -22.7296 H   0  0  0  0  0  0  0  0  0  0  0  0
    8.0872   -4.0210  -16.4857 H   0  0  0  0  0  0  0  0  0  0  0  0
    8.8363   -2.1979  -20.1971 H   0  0  0  0  0  0  0  0  0  0  0  0
    7.7624   -2.8005  -22.3780 H   0  0  0  0  0  0  0  0  0  0  0  0
    6.4397   -3.3294  -21.2839 H   0  0  0  0  0  0  0  0  0  0  0  0
    6.0841   -2.9438  -23.0019 H   0  0  0  0  0  0  0  0  0  0  0  0
    3.5672    6.2739  -24.6353 H   0  0  0  0  0  0  0  0  0  0  0  0
    4.5532    5.5486  -25.9499 H   0  0  0  0  0  0  0  0  0  0  0  0
    3.4069    4.5263  -25.0185 H   0  0  0  0  0  0  0  0  0  0  0  0
    4.6012    4.5000  -16.7253 H   0  0  0  0  0  0  0  0  0  0  0  0
    5.9701    3.3398  -16.6452 H   0  0  0  0  0  0  0  0  0  0  0  0
    6.2628    5.0415  -17.1402 H   0  0  0  0  0  0  0  0  0  0  0  0
    6.8616    8.4594  -25.7240 H   0  0  0  0  0  0  0  0  0  0  0  0
    5.5619    8.0356  -24.5588 H   0  0  0  0  0  0  0  0  0  0  0  0
    7.2678    8.1338  -24.0049 H   0  0  0  0  0  0  0  0  0  0  0  0
    3.4240    2.7615  -20.9247 H   0  0  0  0  0  0  0  0  0  0  0  0
    1.9854    3.5490  -18.9837 H   0  0  0  0  0  0  0  0  0  0  0  0
    2.8114    4.1645  -17.5913 H   0  0  0  0  0  0  0  0  0  0  0  0
  1  2  2  0  0  0  0
  1  9  1  0  0  0  0
  2 11  1  0  0  0  0
  3  5  2  0  0  0  0
  3 13  1  0  0  0  0
  4  6  2  0  0  0  0
  4 14  1  0  0  0  0
  5 15  1  0  0  0  0
  6 17  1  0  0  0  0
  7 12  1  0  0  0  0
  7 13  2  0  0  0  0
  8 14  2  0  0  0  0
  8 16  1  0  0  0  0
  9 25  2  0  0  0  0
 10 11  2  0  0  0  0
 10 25  1  0  0  0  0
 11 12  1  0  0  0  0
 12 15  2  0  0  0  0
 13 20  1  0  0  0  0
 14 20  1  0  0  0  0
 15 21  1  0  0  0  0
 16 17  2  0  0  0  0
 16 22  1  0  0  0  0
 17 30  1  0  0  0  0
 18 20  1  0  0  0  0
 18 26  1  0  0  0  0
 18 29  2  0  0  0  0
 19 26  1  0  0  0  0
 19 27  2  0  0  0  0
 19 28  1  0  0  0  0
 20 27  1  0  0  0  0
 23 26  1  0  0  0  0
 24 30  1  0  0  0  0
  1 31  1  0  0  0  0
  2 32  1  0  0  0  0
  3 33  1  0  0  0  0
  4 34  1  0  0  0  0
  5 35  1  0  0  0  0
  6 36  1  0  0  0  0
  7 37  1  0  0  0  0
  8 38  1  0  0  0  0
  9 39  1  0  0  0  0
 10 40  1  0  0  0  0
 21 41  1  0  0  0  0
 21 42  1  0  0  0  0
 21 43  1  0  0  0  0
 22 44  1  0  0  0  0
 22 45  1  0  0  0  0
 22 46  1  0  0  0  0
 23 47  1  0  0  0  0
 23 48  1  0  0  0  0
 23 49  1  0  0  0  0
 24 50  1  0  0  0  0
 24 51  1  0  0  0  0
 24 52  1  0  0  0  0
 27 53  1  0  0  0  0
 28 54  1  0  0  0  0
 28 55  1  0  0  0  0
M  CHG  1  27   1
M  END
> <OMEGA_C>
75jQQBJYLcCyU4nBVzfDQNec7L/4jJHBkuC5QMtghD+NibPBE2vnQO9MjUA31bDBLynCQIZXn74u
ELbBBk3wQEjeqEBDbbnB9gvIQIlTET9qwKDBrl2dQMlJh0Aw1bbBfI34QLDZVsCRM4rBIu4CQTUW
FsAezJrBfAneQFV31r+Xf5rBKkLRQNYpRr8JQqPBda69QGTEvz/j2qjB+Xe9QK2KekDnOK/BLNbN
QOfenL9K/q3BM5OmQKiooUCHrr/BRu3PQLGRs0CwysDBlGzKQKY0WkCjo5vBX+OBQL9lY0BTG5nB
KImzQLhIPUDM4qXBD1fWQHE3K8B8CbHBdHCDQB/qq0C2rcfB07mxQMB0hkB3f4nBiIHTQJBV+0Cz
ucbBkTIJQfSpSsBvx5LBeFuqQKlBdUAlwZTBmwSGQF4IQ0BxxaLBeps1QO+wcUCvGZTBx8LwQIE+
VkBtkJnBKEbZQJeLzkDILsnB9ou8QLfLN8B7aYLBGPikQKBEqr+XBpHByIiwQAU83D8lybnB2V8A
QVY+hECoaKvBtI6/QF+MJb8BQL7BtwkIQWbntUCXY7rBA+rIQO4QZD+sgpjB7vZ6QJEfdUBO1rXB
GmUBQQCsgMDM4oPBe2ENQSmrDMCkk6HBUGX4QPo7M8AyBrPBqRHOQK0VVcB3RarBy7DCQGtmPMDm
A7jBkkxkQGzDyEAQFcXBz7ORQHWOsUBimc/BKgpaQLzXkEDlJcjBLj2TQOH/j0BpzYXBIQu/QLy+
VUBrKYXBM2nIQD5UoUANH4nBC5LbQKhZB0G1ys3B6vqxQPKRAEF3eMTB2pHoQN4jAkH7CcDBmSJb
QAm9MEDjZafBzCH+P64iY0Cs3pfB8e0zQHBDhUDwuozBGEsIQa57S8DoJZLBv9UCQYP5FcBcvprB
Rua5QJp4hD8WirPBl2znQOlNjUAU1LDB8SjCQCL5nr6iEbbBRk3wQFHgqED2a7nBJA7IQPk6ET9W
waDBiF2dQEhOh0AA07bBYbnzQDCVVMCaionBb+zCQHlP7L9Xi5HBmADeQDF11r8JgJrBK0nRQPcv
Rr82RKPBRbC9QALIvz/t2qjBIXm9QG6QekBCN6/BYc7NQAjdnL9mAK7Bi5GmQNauoUAOrL/Bv+vP
QHSWs0C2yMDBjXDKQOArWkBcopvBDuiBQA9pY0AxGZnBfoqzQPBJPUCu4aXBBznWQIU6K8BPDbHB
L26DQMnwq0AHq8fB+MKxQJdvhkCcfYnBwobTQF1e+0DQs8bBxNbNQDRQKsAHVYnBtGGqQIY5dUBE
v5TB4QWGQNgNQ0CAw6LBtKk1QES4cUB5FpTBd8fwQGEwVkD5j5nBoUDZQMiVzkD0K8nBIl0XQfpM
bcASH5LB7KANQeC9DcBqaaHB8JWwQAll3D9uybnBJGEAQRI9hEARaKvBoY+/QAY9Jb/PQb7B/AkI
QTjotUC3YrrBr+jIQK7TYz82g5jB6PZ6QGModUDq07XBHgL8QBU3fsB59oLBAdykQIlMqL+EPpHB
+UP4QEVaM8DVC7PBHvDNQM0XVcB3SarBiYnCQHNSPMD7BrjBmEhkQADKyEA0EsXB6rCRQHuVsUDB
ls/BagVaQHvekEAuI8jBbUeTQDr7j0ARy4XBiRS/QACzVUDlJ4XBJXPIQHJOoUBiHYnBHZPbQLVg
B0E2xM3BowOyQEqYAEH2b8TB7Z/oQC0jAkH9BMDBwCFbQGzGMECgY6fBFTb+P6MuY0DR2pfB6QM0
QDlGhUCct4zBjxQtQXYUgr8Zi5zBHJcYQXU8AL9+lp7BWCGcQKfOKT8RUK3BWhipQFvYbEDuJLnB
lxWkQOw3Lr/Q3q/Boq2xQLD3kUDby8HBMCrmQHVdaj8Ht6fB/t3cQJdUnUApRK7BfIg1QeU5AMDL
YqPBZAEXQW5v97+gPq7BrggNQbi2eb+Xi6fBzGbuQDkM5b5L5KnB6cy8QGf4uz+O3ajBlae+QGVz
d0AzQq/Bcm7MQB6Iob+x5K3BNjbmQA1YuECE87bByvTPQOYns0Ant8DBXYfKQH6XVEArR5vBfQCC
QPeCYUAjCJnBOAG0QJ74O0A6z6XBvk7RQCQTMMA1KrDB9UQDQfMx3EDKd7XB/4mxQGd0hkCQb4nB
RNC8QK9M80BMlMnBGY0qQd1WHMBHB6zB4iqqQNsQZ0BqEpTBo2WGQHO3R0Db/KLBbsA1QLQbc0CA
OJTBdPzwQMIfWEC8UZnBr/nXQMDrzUC3PcnB5EI2Qd3yKL8vzZXB0L0RQYz3fT6pY5nBda95QCHs
ij9OwK7B7+aRQGUdOkBwDLrBT/mKQCJ9o78xZrPBcgOhQESqjUDmScnBJQ8AQQ9ixj+7G6XBbPXs
QPtBokBGuKbBMB9FQcnOGsAMsqHBq7wOQRkREcCyWLXBDMvbQKtHOcB3fLjBdkLpQEGBS8AUtKrB
SGOyQKNEUMBL8a7BcE8TQf6n0EAYqLfB5NL9QO9f90AwnrrBSUgDQauD5kD4Da3BvbuSQDuTikD4
TYXBfDnGQHVIYkB+toTBIC3BQIbHpUDNWIrB0THFQBl0A0GxlNDBRSibQDRD6UAkK8rBGWXBQA8Z
A0FgPsLBPA5cQIhdPUA2AqjBRvz+P1dabEDfYJjBTrczQORCg0AXmozBIviHQHlCXMB/iJLBAXiO
QKMAH8DAl5rBxRvOQP+0kT8rDbPBtUWdQP0DhkCg7LbB3ZnWQPvFVr6RdbXBOwOmQB3noEDBo7/B
WG62QOYT/T4GMaHB62PmQHY5j0CKkrDBGNKpQArPb8BfdovBWjbXQBR8DcAZ+5PBgsW2QPPC7r/c
VpvBtOq+QHCOWr+plqPBFvK9QAqwwD+f16jBw/68QD+Ee0DMIa/B2x/PQJpom78Pxa3BQUHvQBGp
qkBGObnBqALPQP/fs0Ct2cDBr17KQOs6WEDYlJvBDN+BQD0NZEAcI5nBvpSzQASBPUBO5KXBtZPY
QKqbKsC/grDBi/ANQRCHvUDgX7rBQrixQJe9hkC3iYnBZ3u3QMST2EAk69DBmHPQQLW2SMD4P4zB
lGeqQHIzdUAdxpTBIvqFQAfCQ0BazaLBiZE1QF+FckDQI5TB9Z3wQPGkUkADe5nBbxvZQB4Pz0Av
TMnBLeBSQA0KfMDDwJHBfDBqQFGwDsDGF6DBIerTQL8p8z86AbnB+xt8QO4Cb0BHKbbBnOviQE0s
9L5dPr3BrleNQII6p0DlesXBsgaqQMJGQj/4aJnBZ3z/QNRmh0CX9qrBctakQNmDj8D4RoXBZgr2
QEsZ3b+9hpTBG9f5QIjGOcAwWK7B07bCQGaKVMBAB6zBcwHUQAq9NMDSJLnBwPAXQfHXp0DnLL/B
k+UMQfPP3EDKX77BLx8VQfOVwUCnZ7LBKVeTQE8QkUA264XBslm+QD0kVkDVG4XB9fHIQJ0noUAt
MYnBp+PDQCxG7kByHdfBF3WsQP20ukC1q9TBDZCcQF/450AdwczBIQhbQI/PMUBQcqfBtAr+Pwkn
ZEBO65fBp+QzQN2lhUA/xIzBun/NQPiNS8AyJYzBCMjWQPfCDcAv95PBpgfOQLE+kT8dCrPBd0Kd
QGLxhUAF67bB+HrWQHTdWr5rcbXBuAKmQM3OoEARo7/Bd2C2QGIe/D54LKHBfWbmQB4Vj0CVk7DB
oF+kQGvpcMCC44vBmAqOQGfsHsAVmJrBX5a2QEP37r9CUZvBGNW+QLUeW7+wkKPBQOW9QJdbwD92
1KjBUf28QHdTe0AOIa/By/vOQOnWm7/av63BYUbvQCyAqkAVO7nBgAbPQEm8s0DI2sDB+F7KQGwZ
WEDLk5vB+eCBQLQMZEBmIZnBBpCzQPZcPUB14qXBXGLYQHrZKsCifLDBW/UNQbdRvUCGY7rBIcGx
QGq7hkAtiYnBe4K3QAZq2EBr7dDB05KFQKNvWsB7AJPBG2yqQG8ldUAWxZTBzfaFQKSwQ0DoyqLB
Vpo1QEuhckA/IpTBDJ7wQOV2UkBvepnBTiLZQKLkzkBnTsnBs4jlQA5IXsAlZYbBjPH1QBYH4L+C
U5TBwNjTQKei8j8U/7jBWQ58QHLvbkBMJrbBZsjiQPae9r4zOr3B2FWNQIYmp0CQecXB5P2pQJkA
Qj9bZJnBF4D/QNc8h0Bw+KrBckOdQFZEkMBY4oXByJBqQGNMDcCENKDBqaX5QC0SOsCAU67BCYTC
QJW5VMBx/6vBDsjTQMIANcBVHrnBZvEXQYubp0C6ML/Ble0MQcmZ3EALZL7BlyYVQXZfwUDaa7LB
n2KTQMIVkUCt6oXBQF6+QBIgVkB9GoXBy//IQFAhoUDQMYnBNe3DQLEW7kCrINfB1nasQLiKukC/
rNTBOpqcQG/V50C3w8zBKvxaQBq+MUD+bqfBTxP+P9lLZEBB6ZfBX/UzQKC5hUBDw4zBWGclQWMw
BsAUk5vBne8WQWhes7+tH6LBb4CkQKn5Sj9R17DBEDmmQJgpdEA7ArnBE+OsQKVBC7+OorPBiN2v
QBrplECJs8HBpZ7bQKsDMD+WLqPB6ZreQFXhm0Bal67BaLkdQd9vMMBIW5LBxRz1QIw7BMDF45XB
FC8BQVaysr/bQ5/BrCfjQKZXKL8cuaXBkZi8QLV+uT+vw6jBRiC+QDZ7eEBqXa/BWGzMQB6Eo7+u
I67BP93nQJBVt0DjMbfBOm/QQC/Ks0B9z8DBAIPKQK+UV0CTdZvBvRGCQMFoYkCJHJnBwNOzQFnF
O0Ba36XBphzUQB0ML8A5+bDBWK4EQdEe2kDZxLXBqbqxQK9uhUDcYonB5na9QKur80AhxcnB6rUI
Qb/YLsBSpo/BAnCqQECfckCQoZTBAUSGQP1TRUD58qLBbQ82QLFGcEACEpTB0gPxQMzAWUBAfJnB
HvHYQI6UzkAYSsnBYzY2QQ8WCMB/kJ3BkmQcQRTtYb+BManBa06LQGQxqj9M6LTBpTmMQMLuRkB+
rLnBvwubQClGgb/sBrrBNjieQIDRkUADF8nBftHtQO12kz+m2JzBu4zwQOPonkACP6fBUNooQVTb
UsDBVo3BEL3TQOwGA8CQppPB9RbtQCRLM8C9JrfB6YLeQHoHUsACy6nBfku2QKhjS8DjBrTBy2oU
QYrdzUCOP7jBn2wAQZ/19UBAt7rB/VIFQda640AvT63BDjKTQCDzjkDptYXBQCK/QKj/U0DiAYXB
dVDIQJRloEBSC4nBRT3GQLOuA0HeudDBF/ebQPRN6UAxicrBLD7BQHFNA0F5acLBhJZbQLOEN0Bj
zqfB5tX+P9YDZEBs8ZfB+og0QKVBg0A4kozBvBMNQTU5DsCQGI7BkFz7QA2kwr+RCpTBci2nQKD6
Yj89oLHBngXoQHuQi0Am9rDBsKSuQEmb6r5HZbTBa+TwQDWUp0A1eLnB3mzZQKyxLT+z2qLB982d
QMB6hkAw2LbBzuMeQVHEMcDga5PByMMSQcUd/b91/aPBQWoAQVhitL/7MZ/BrZLhQJZVKL/lqqXB
ZrW8QD7MvD8O1qjBzfa9QCLNd0CiSq/BI57LQJQWn7/Qba7BxPSmQChfoUDdm7/B52XQQKYOs0Ch
ucDBoHvKQIXmWUBYhZvBhfGBQB8gYkBd/ZjBf7azQNgoPECby6XBmI3SQOSoLMBRjLHB06iDQE6C
rECPfcfBlLaxQORdhUCUUonBWonUQNEl+0BwbMbBKoYhQWZeKcAqI57Ba1aqQLomc0DXlJTBNCCG
QNFXQ0AyuqLB+LQ1QGNWcEAr/ZPBWPrwQNCxXEBWl5nBeb3ZQBRuzkC/CsnBXE8LQUd6FcCZjIXB
6wPgQJGXib+RJJDBdtaQQB3AvD+ePrbBIr0AQeregUDVpKvBEBOeQKN0ZL+yIrvBu2EIQcBbtECP
crrBPWXpQL10jT+H/pvBOsx7QAyPc0BA37XBu7UqQf1+VMA22o7BRBEVQSQd8L+tg6zBXNjsQBjq
MMAAYLfBTL3aQNMdUsA3YqrBjhS1QDRHRsCZI7XBi2tlQKtRyUBpu8TB5rmRQBSXskCmac/BEvhZ
QICskUAwCcjBIxuTQH8gjkCEkYXB+Me/QOcLVEA0CoXBAcbHQHzBoEAZ84jBFJHcQMlmB0FDcc3B
NSezQBqYAEG4E8TBNezpQHvBAUELwb/BzEdbQADoMkBMc6fBY1H+P1P2YkAe05fBQwM0QOX3g0BB
jozB5VYhQbwRKsCoXZ3BAbISQUw6/b897KPB7hinQHa6Yj9xnLHBUw7oQEl4i0AT/bDBm32uQJB4
674lX7TBJunwQBdzp0A8gbnBvm/ZQPJvLT8F3KLBXs2dQF9yhkCR2LbBnlodQYLAL8C1RpLBMyP7
QHBWwr9c/pPBq2IAQUKItL8NMJ/BlIrhQAawKL9oq6XBA7O8QEyzvD9L1ajBhP29QPa1d0A7Ta/B
nHfLQPpdn7/laK7B6u+mQPhLoUCQnr/BN2TQQKLvskCqwMDBo5nKQLbmWUBYiJvBDRSCQC5RYkDF
+pjBw8KzQAAlPEAEzKXB4kTSQCLeLMAbhLHBGZyDQH10rEBufcfB3PKxQJZ3hUAIVYnB55nUQOQB
+0DYdsbBaMwLQZWfC8BmyI3BAIGqQABIc0AKlpTBdDGGQLRwQ0DgtqLBlws2QAmscEDr95PBKxvx
QACfXEBunZnBXLfZQE5GzkDuE8nB8H8vQezVRsA7xaDBCWsVQYRX8r9+bazBiMKQQFurvD9HOrbB
ycMAQe/DgUB0ravButydQHnwZL8AGrvBBWUIQR8ytEC+frrBRHXpQKZYjT/qAZzB+MV7QMSTc0AZ
3LXBc44oQT2xUcClP43BUIDfQIjPh7+UUJDBFoDsQMZOMcCdW7fBf3vaQPVGUsCDWarBw7u0QIFl
RsCqFbXBL2xlQBBLyUD9usTBXaORQFB/skAVa8/BU8xZQF+lkUDKBcjBwl6TQAxHjkAckoXBfQHA
QHE/VEAQDIXB5grIQPjUoED9+IjBkpzcQPBQB0Fjfc3Bgj6zQJKNAEGKGsTBVwzqQGmtAUFAzr/B
NFlbQNEBM0BAbafBJuL+P19VY0A1y5fBxHQ0QC8rhEDBiYzB

> <OMEGA_E>
1GAtPzhkLT8glS8/fBMmP2YkJj9MhSs/rDcsP7o4LD8=

> <OMEGA_NBR>
     67845

$$$$
50157506
  -OEChem-04172616093D

 58 62  0     1  0  0  0  0  0999 V2000
    4.8592    4.3341  -22.7683 C   0  0  0  0  0  0  0  0  0  0  0  0
    5.1412    5.1675  -23.8661 C   0  0  0  0  0  0  0  0  0  0  0  0
    7.2098    4.3566  -22.1459 C   0  0  0  0  0  0  0  0  0  0  0  0
    5.8891    3.9424  -21.8735 C   0  0  0  0  0  0  0  0  0  0  0  0
    6.4719    5.5870  -24.1198 C   0  0  0  0  0  0  0  0  0  0  0  0
    7.5010    5.1313  -23.2766 C   0  0  0  0  0  0  0  0  0  0  0  0
    6.3099    3.4301  -19.4128 C   0  0  0  0  0  0  0  0  0  0  0  0
    4.0520    3.4898  -19.0787 C   0  0  0  0  0  0  0  0  0  0  0  0
    6.6870   -0.6500  -23.0282 C   0  0  0  0  0  0  0  0  0  0  0  0
    7.4099   -1.0827  -20.6480 C   0  0  0  0  0  0  0  0  0  0  0  0
    4.9870   -1.3570  -21.3043 C   0  0  0  0  0  0  0  0  0  0  0  0
    7.3875    1.2633  -21.5617 C   0  0  0  0  0  0  0  0  0  0  0  0
    4.9594    0.9909  -22.2140 C   0  0  0  0  0  0  0  0  0  0  0  0
    5.6865    0.5491  -19.8219 C   0  0  0  0  0  0  0  0  0  0  0  0
    7.6551   -0.2155  -21.9027 C   0  0  0  0  0  0  0  0  0  0  0  0
    5.2211   -0.4891  -22.5628 C   0  0  0  0  0  0  0  0  0  0  0  0
    5.9477   -0.9284  -20.1711 C   0  0  0  0  0  0  0  0  0  0  0  0
    5.6029    2.9849  -20.7004 C   0  0  2  0  0  0  0  0  0  0  0  0
    5.9126    1.4751  -21.0687 C   0  0  0  0  0  0  0  0  0  0  0  0
    5.5224    4.0853  -17.1143 C   0  0  0  0  0  0  0  0  0  0  0  0
    5.7715    7.0398  -25.9239 C   0  0  0  0  0  0  0  0  0  0  0  0
    9.3907    6.4292  -22.7565 C   0  0  0  0  0  0  0  0  0  0  0  0
    5.3075    3.5563  -18.4664 N   0  0  0  0  0  0  0  0  0  0  0  0
    4.1816    3.1066  -20.3235 N   0  3  0  0  0  0  0  0  0  0  0  0
    2.8342    3.7594  -18.4752 N   0  0  0  0  0  0  0  0  0  0  0  0
    7.5121    3.5111  -19.1853 O   0  0  0  0  0  0  0  0  0  0  0  0
    6.8351    6.4251  -25.1671 O   0  0  0  0  0  0  0  0  0  0  0  0
    8.8083    5.4117  -23.5855 O   0  0  0  0  0  0  0  0  0  0  0  0
    3.8490    3.9888  -22.6047 H   0  0  0  0  0  0  0  0  0  0  0  0
    4.3419    5.4887  -24.5176 H   0  0  0  0  0  0  0  0  0  0  0  0
    8.0067    4.0730  -21.4743 H   0  0  0  0  0  0  0  0  0  0  0  0
    6.8573   -0.0234  -23.9161 H   0  0  0  0  0  0  0  0  0  0  0  0
    6.8743   -1.7039  -23.2818 H   0  0  0  0  0  0  0  0  0  0  0  0
    7.6034   -2.1377  -20.8918 H   0  0  0  0  0  0  0  0  0  0  0  0
    8.0899   -0.7612  -19.8453 H   0  0  0  0  0  0  0  0  0  0  0  0
    3.9478   -1.2324  -20.9656 H   0  0  0  0  0  0  0  0  0  0  0  0
    5.1674   -2.4132  -21.5530 H   0  0  0  0  0  0  0  0  0  0  0  0
    8.0800    1.5791  -20.7675 H   0  0  0  0  0  0  0  0  0  0  0  0
    7.5567    1.8748  -22.4602 H   0  0  0  0  0  0  0  0  0  0  0  0
    5.1306    1.6070  -23.1091 H   0  0  0  0  0  0  0  0  0  0  0  0
    3.9158    1.1038  -21.8853 H   0  0  0  0  0  0  0  0  0  0  0  0
    4.6474    0.6582  -19.4776 H   0  0  0  0  0  0  0  0  0  0  0  0
    6.3729    0.8548  -19.0186 H   0  0  0  0  0  0  0  0  0  0  0  0
    8.6948   -0.3371  -22.2406 H   0  0  0  0  0  0  0  0  0  0  0  0
    4.5398   -0.8081  -23.3654 H   0  0  0  0  0  0  0  0  0  0  0  0
    5.7784   -1.5563  -19.2839 H   0  0  0  0  0  0  0  0  0  0  0  0
    4.5707    4.0811  -16.5628 H   0  0  0  0  0  0  0  0  0  0  0  0
    6.2546    3.4564  -16.5867 H   0  0  0  0  0  0  0  0  0  0  0  0
    5.9035    5.1151  -17.1799 H   0  0  0  0  0  0  0  0  0  0  0  0
    6.2015    7.6718  -26.7149 H   0  0  0  0  0  0  0  0  0  0  0  0
    5.1461    6.2577  -26.3790 H   0  0  0  0  0  0  0  0  0  0  0  0
    5.1557    7.6586  -25.2546 H   0  0  0  0  0  0  0  0  0  0  0  0
   10.4338    6.5989  -23.0616 H   0  0  0  0  0  0  0  0  0  0  0  0
    8.8200    7.3631  -22.8669 H   0  0  0  0  0  0  0  0  0  0  0  0
    9.3643    6.1054  -21.7056 H   0  0  0  0  0  0  0  0  0  0  0  0
    3.4162    2.9203  -20.9395 H   0  0  0  0  0  0  0  0  0  0  0  0
    1.9860    3.6645  -18.9963 H   0  0  0  0  0  0  0  0  0  0  0  0
    2.8035    4.0490  -17.5185 H   0  0  0  0  0  0  0  0  0  0  0  0
  1  2  2  0  0  0  0
  1  4  1  0  0  0  0
  2  5  1  0  0  0  0
  3  4  2  0  0  0  0
  3  6  1  0  0  0  0
  4 18  1  0  0  0  0
  5  6  2  0  0  0  0
  5 27  1  0  0  0  0
  6 28  1  0  0  0  0
  7 18  1  0  0  0  0
  7 23  1  0  0  0  0
  7 26  2  0  0  0  0
  8 23  1  0  0  0  0
  8 24  2  0  0  0  0
  8 25  1  0  0  0  0
  9 15  1  0  0  0  0
  9 16  1  0  0  0  0
 10 15  1  0  0  0  0
 10 17  1  0  0  0  0
 11 16  1  0  0  0  0
 11 17  1  0  0  0  0
 12 15  1  0  0  0  0
 12 19  1  0  0  0  0
 13 16  1  0  0  0  0
 13 19  1  0  0  0  0
 14 17  1  0  0  0  0
 14 19  1  0  0  0  0
 18 19  1  0  0  0  0
 18 24  1  0  0  0  0
 20 23  1  0  0  0  0
 21 27  1  0  0  0  0
 22 28  1  0  0  0  0
  1 29  1  0  0  0  0
  2 30  1  0  0  0  0
  3 31  1  0  0  0  0
  9 32  1  0  0  0  0
  9 33  1  0  0  0  0
 10 34  1  0  0  0  0
 10 35  1  0  0  0  0
 11 36  1  0  0  0  0
 11 37  1  0  0  0  0
 12 38  1  0  0  0  0
 12 39  1  0  0  0  0
 13 40  1  0  0  0  0
 13 41  1  0  0  0  0
 14 42  1  0  0  0  0
 14 43  1  0  0  0  0
 15 44  1  0  0  0  0
 16 45  1  0  0  0  0
 17 46  1  0  0  0  0
 20 47  1  0  0  0  0
 20 48  1  0  0  0  0
 20 49  1  0  0  0  0
 21 50  1  0  0  0  0
 21 51  1  0  0  0  0
 21 52  1  0  0  0  0
 22 53  1  0  0  0  0
 22 54  1  0  0  0  0
 22 55  1  0  0  0  0
 24 56  1  0  0  0  0
 25 57  1  0  0  0  0
 25 58  1  0  0  0  0
M  CHG  1  24   1
M  END
> <OMEGA_C>
iX6bQI6wikBkJbbBXoSkQMhbpUDW7b7BBbfmQEdpi0DDKrHBMHO8QHtQfEDX/K7BgxnPQFXIskBz
9cDBfQjwQEkzpEBgNrrB3erJQJyGW0BkTZvBS6qBQNhYX0AqoZjBSPzVQKdpJr++ObjBLR7tQFqV
ir8XL6XBGZWfQLyxrb8jb6rBi2bsQO+yoT9IfqzBZbOeQNSpfT9ftrHBc/e1QMiSDD88k57BRvb0
QLCiXL65OK/B5hKnQBpx+r6bgLTBSVO+QK6tbb9/XqHBvUqzQIkIP0BhmqXBTDS9QA7RvD+0jKjB
y7ewQA+7gkAe6ojBd7C4QG5G4UAaZM/BaEAWQUO8zUBbDbbBIdepQPKaY0BJu5PB4c+FQAjSRkB4
lqLB4WM1QH+acEAdzZPBRGPwQG+1YECGe5nBgrnaQIKazUBIVsnB0e4MQaIsrUAqr7zBO1Z2QA1J
f0Bn1rTBqPCKQCKjr0D8I8TBeBsAQbpVgkB3y6vBTG/bQOgIwLwpVL/B9fnbQCQa2r8RQbrBVE/z
QHnQCMBsIqfBQHABQSzcQr88w57BGal8QH6+nb+WuafBGVulQMBxGsCUbKzBjUcBQaIgyj/DI6bB
P9DxQIb67z+ArrPB9y2kQB6yzT9k37jBGpx6QPJKjT8MFa/B3reUQOeBKD8X0pvBLe/LQCvTWj8R
JpjB2x0LQZ6brL637LHBY0aRQJ7iTr9a7LrBB+m4QCY1x7+ARZrBI0OSQH2YgkCcgITBjSXIQOY0
XUChsYTBdOm8QDCvo0BwcInBwnLGQL9/9UAbuNXB06ykQHs/yEA0CNPBj/ukQN8S9UBkCcrBCvEm
QVYq00A/frjBuB4NQWqe60Bw77bBG9QVQXFfw0ASpa3BR6NaQEfmOkAIhKfBQzb+P/iGakBb+JfB
Jm0zQBSRgUDXJYzBRxqdQOj4h0Bq0rbBLiGlQKVCo0B3hL/B0yTnQK45j0C0DLHBMc29QNIJfECj
W6/BFVHOQLomtUB3AcHBOVTvQLkJq0ANybnB1tfKQE6rXEC3hpvB3z2CQJctYkCmGJnBnXLrQO8l
j7+HiKTB3z2eQFZ3rb+tKarBVmbWQHAlNr/SvLfB29C0QLt4ED8+dJ7BARftQBFNnD+HHazBQM2f
QOcXej9aybHBDXG8QD3+bL/P/aDBF9X0QMTci77boa7B5EunQMnPA78LTbTBOY60QJBMP0DG2KXB
Tri9QOCcuz8zgqjBMZewQDTFfkC974jBvwK2QBKA40A8Qc/BAEIbQY5eu0ACbrPBRkKqQAK5cEB0
cZTBA++GQBN1SECo/KLB18Q1QAZjbUCULZTBFw3xQHl9WkCfTZnBW8jYQBxH0ECxa8nB5nkLQXqA
vUB2yrvBRS97QM+/dECvzbXBBseLQB2hqkDDF8XBu2MAQcMVh0DNn6vBF24AQQ8CTb/sBp7B0g3x
QCmQC8D2VabBF3ajQB/XGsDX96vBfq95QFDlmb/pqqfBntfcQNS/173v5r7B8+7bQEX84r+6krnB
j2CTQKyCMz/J7pvBkFHKQByGXj+D7ZfB0mYBQQlIxD/Rp6XBK6TzQGOH6D+gVLPB+XCmQFgJyT+s
AbnBjX58QPhdjz/6Yq/BIwG2QM1RxL8p1pnBbyALQaIw2L6sH7HBE+GRQB9EVb/fzbrBkq+RQNLY
hkDRKIXBywu+QJWZREDLS4XBuMvGQP5EmkB2u4fB/enCQE4F+EC/otXBuAyiQMU8ykC1z9LB0H2i
QNXs9kAGxsnBlAsqQfEny0DIHLbBNiUVQQyky0DwP6zBGKYeQaysmUDbh7HB/lZdQI9/PEDi+6fB
g63/P7ufYUAZOpjBPekyQDmegEC3lIzB09+aQMs/i0DbD7bBTQqkQHjupUAc177B+jzmQMAPi0AP
MbHBAuq7QMKOfEDB+a7BX83OQAWpskCf8cDBhLHvQCZno0ANR7rBwenJQDloXUASaZvBsIWBQNDH
Y0AFw5jBEMifQN94rL8AiKrB3KjWQO0gJb+dN7jBKyTtQATeib8zIKXBTUSfQBcEgD990bHBTsG1
QP7NDj9+nZ7B4bnsQBE+oj+IcKzBf6anQKIZ9r69lrTBpju+QByNa79TZqHB4lb1QLZtWL63Jq/B
2wyzQFRfP0CYmqXBnF69QFq+vT94kKjBse2wQJODg0D7/YjBCvO4QC524UDzXM/BLmkWQQxjzUAk
MbfB9M2pQEYFdUAwYpTBmpqFQPGZRkAKh6LB8g81QJCYb0C2r5PBmUDwQNzdW0COU5nBQbjaQIwl
zUDMW8nB7dUMQRaOqkD+7rzB++l0QFqQgEA5tbTBfneKQBa9sEBT/MPBjK//QBjzgUDFzqvBjuN8
QI5LnL+75KfB35GlQMDbGcBSgazBv6bcQNGI2b/uObrBbGLcQHTin7wjUL/BRlwBQdqRQb87qp7B
LVbzQNp8CMD9DqfBVCGlQGXZzj/39bjB6YN7QCXJjj9oSa/BP2eUQIy1Kj+R8JvBGHrLQKQGXT/r
IpjB3V0BQVGgyj9YDabBFFfyQL1z8D8Ln7PBjAiSQNZ4TL8PDbvBGJC4QHIyxr8fUZrBS1kLQVP1
qr6qyLHBLV+SQOInjEACMoXBvyS+QIHPTUBKEoXBlJ7HQIk5nkCwLIjBhvPGQG1U9UBuutXBxk+k
QETTyEDn89LBg9ClQPe49UC8/MnBYycnQQkr0UAGvLnBJ4wNQSsK60Dm4LjBsN4VQUKrxkDVjq7B
ryVaQD8xN0A+SqfBWzv9P0qPYUD7gZfBjT8zQAYUg0AONIzBL8boQGaUjUBPg7HBsRbwQDX5qUCo
FLrBKmWeQDiFh0C707bBnVq/QMUYeUBsrK/Bn33OQBGOtkCl88DBePikQG39pEDqIL/BqT3LQHUS
XkDC7ZvBdaiCQM0lY0AGcZnBhiifQHxstL8+sajBtODRQKG9S7/UmbfBNMXtQEgejL+ly6TBRWSc
QKsTZD/H8bDBzy+4QEeiFD9VEZ7BiUbrQA6SmT+3Fq3B0gSkQOX2G7+UN7PBtPq/QJVpar+GU6DB
+A3zQPq7mL4zUa/Bqxi1QJANPkB7F6bBj1q9QNL8tz84g6jB2Q6xQAcXh0CD04nB5QW7QEY/3UBJ
ctHBSn5dQBXrkEDPRsvBFZ+qQC0Kd0BUFZXBuGGHQCUkSEAhQ6PByag2QPlra0AcZ5TBVonxQBNj
XUDQzJnBBTfZQNEr1EBS6sjB5XuBQMzasUAJuMTB03MBQcO5hEBFT6zBZfYHQYFRtkABarvBr5V+
QDzScUAI6LXB/DV9QGeeor/eiKXBs6qkQEKIHsDpTqrBV3bXQAZh7r9vPrnB1m3VQPKMYb4WDL/B
coQCQZN/Or9v4J7BiZrzQAtXCsCXXabBZe+fQN1iuj8UcbjBNIp3QGk2gz9T0a3BtYyXQA/2NT+v
8JrBonLPQKdvbT8BE5jBq4EBQaQExz+YPqfBotPuQGKj4T+omLTBQKOMQA/nd799IrnBRXK8QOcU
v78Z45jBLsoJQad44r6PerLBcySSQI64j0DINobBRNm+QGppV0DogIXB3wXHQDmFokAaUYnB39jI
QBca9UDT6tbBAyS0QESkv0CD4tXBYjGdQFLe6UBSAM7BZjYlQGDTnUDMds/BTGWGQLLahUC9LdHB
B91JQGfPa0AvMsbBzkBeQDXRO0B5P6jBpeoAQIhQXECcUJjBmbEzQEQ/gECj24zBCb/oQPwjjUBZ
obHBSiXwQBacqUDILbrB8M2dQP5eiUBzjrbB2BW/QOIGekAMo6/Bc2vOQCg0t0CH48DBRY+kQNTc
pkDx1r7BejXLQEyRXkCN95vBLLOCQL4jY0DGbZnBV/XRQF7BS78AkbfBrIntQHgBjL+/uqTBmfae
QCa1s7/HtajBlU3rQMSgmT9uDa3Bm3ucQFafZT9++7DBBve3QIjcFT8IE57BNgjzQFgqmb79QK/B
fwukQITHGr8fPLPB1q+/QIRjab/yT6DBGgG1QCBdPkB8GqbBdlW9QAyKuD+xhajBsiWxQLgoiECa
74nBXje6QMKr4EDW9NDBbPRiQHJZkkCWo8vBiaKqQHGJeECdKpXB3FOHQHn1R0CcPaPByPI2QCzp
aUCpT5TBnYPxQD+rXUAb2ZnBr8HZQGSu00C3EcnBjT6BQDwRs0CujcTBa4IBQfaHg0CbjqzBXBYI
QRU8tUCgn7vB0p98QFOmd0CIdrXBgK/VQAmhY75hBL/BoHvXQKF97r8iMLnBiFfzQFVRCsB9SKbB
ZVwCQVtYOr83yp7BYb18QH+Zob/dlaXB0WykQFA0HsDgUKrB5nwBQakPxz8AMafBoP/uQEp14T+I
kLTBTzKgQMUBuz/xerjB26J3QLFWhD895K3B8UqXQDHONz/w+ZrBGirPQAVubj8HEJjBjcwJQfsY
5L7LYbLBLbyMQOF3dr99LLnBMPy7QGVtvr9r35jBvkySQPwskUClWIbB17G+QPSbWUDLjYXBZVjH
QK1qo0A1e4nBPf7IQEbw9kAIr9bBLGyuQFVLxECJP9XBMFOfQMmd8ECe6czBZXEqQCVYnkAb8s/B
55KKQNfLiUBebdHB5zBRQIvKa0BY9cbBbxBeQPE5O0CvMqjBUkcBQBh/WUD0J5jBhgs0QEQ1f0Ce
xozBUDGeQKPehEBiKrfBNeinQCFTn0AB77/BMu7lQCdskEAdI7DB8Py8QMySe0CjBa/BmCTQQMWR
s0C2nsDBRYPvQC5hrED7rLjB7rfJQNAjXEA8NpvBtliBQGogZEByvZjBcNqtQB/xgb9wUbbB6mv5
QDN3Rr/rYq/BLQu+QM79vr9G46LBb9fOQLF0oj9Hd7TBAnGTQDdtDT+Q7qfBzFnfQIODST9DDKHB
Me3XQGGcVL4RSbfBklOcQOdhbb/JwKrBszPoQBiTML8YzaPBs1mzQGwoPkDzpKXBjR29QAW+tj87
tqjBOKawQE/FhkDSE4nBvVjMQM7A+UBQmcfBgakaQWzOu0AZ6rDBL3ipQJGOaUCT0pPB8qSFQKLR
SkDktaLBu5w0QDdjdUCQ35PBWQfwQEIuYkDfK5nBxv/YQIDJzUCJMMnBgXALQbf7wEC8nLnBBkN+
QOG9a0AkobbBU3eQQLwopECTKsbBm3H+QIYdiUDBU6rBVgOWQPaOGr+45LvBdhq0QNBaBMDBVLjB
N/z/QAzI6b/qZLHBQZMLQeAeRL65A7DBNsCxQNhOtb8CqprBEUXEQF0II8Df0qTB4rzsQHDZ6z/Y
MrXBcwO3QKVK1T8+HLrB1dx2QN1icz/Rha3BQ/WGQD9kGz8nt5/Bo4nTQAzdWD+rxZjBCWX9QDhC
rT/Uv6HBuznkQD6/jb4dg7/Bjhp9QNQYwb+cHarBIAcAQRLcjL/iOZ7BK/qRQPnWiEB7yoTByrTG
QNjxY0AHm4TBVaO+QB7wpkDKz4nB6m/UQNZIBkF8wc7BN6GpQPFF+0BMMsbBJFPdQKp2A0ERocDB
cFspQcy7zUDcv7LB1J4TQWcUyEC6dKnBqIYeQUmumUAk9K/BbU9aQLs7QUD8t6fBr2z8PwrAbkBN
AZjBmtMyQAs5hEBPPYzBTh/aQC3moECI6a3BjKvjQMpwu0CvorbBwZOnQAIxc0Ak8rjBkHm8QH13
fUAZ/q7ByKTQQP8KtEBRqMDBNguzQNtQkkAT+sHB1X/JQHGQWkC5VpvBFgGBQCPeY0DsypjBIfXE
QAXySr9Ti7jBUjH4QKIBbb/H8KjBo0+qQE5qwr+aVabBdITjQBCrqD/sg7DBX6GUQPA6Nj/Ryq3B
XBPIQBhlGT9+T57BdxztQOR2Ib4PULPB162eQOAuQb+sqrDB0fPRQJUnYL/6DaHBt6qyQLnCPkAk
rKXBwYa8QC0TuD/ImqjBNrWwQAd4hkApKonB4/e+QGMW80DLFMrBbUmIQHfQSUCUns3Bl1epQA53
aUCc65PBcCOFQIodSkDdwKLBcPgzQMMzdUBr6JPB4y/wQEELXUDIopnByMPaQIRazkC9G8nBR+2h
QG4xi0ATHczB7HbpQGd+pkAzTKbBoMT5QO631UBYprXB2UOOQPJ7REB9qrnBkaS8QECqa76W0L/B
8fLLQJU3678Wq7rBUVn/QOSu/L/+6qrBqi0KQevX7b6CKqXBQCqPQEcuvb/rvaDB+mWxQPVUJMAk
T6jBdPf/QKFx4T8WvazBMQDcQKya7j8R67fBWWiLQEnanz85HrXBe8pzQHNnOz/6EajBStmsQJrM
IT87vZjBrFrkQNHShT+OeZrBBB4EQXq0Vb4l6LjBG4WCQOXum7/VbLTBrijaQGUvtr86tJnBfwKS
QEYqiUBq6YTBszrGQNtTYkDKrYTBgWa/QB5VpkDK3YnB7PnIQD1DA0Ff+tDBcc6dQPRB6EBHQcvB
SfLAQOY5A0HOv8LBHO55QL3uRkCt8dXBFNabQLL1EEC538vB+kRZQLmHS0CxLcjB+EBZQGiMP0BG
uafBQvr6P+9DbkDdA5jBllIyQLJNhECJSYzB

> <OMEGA_E>
gLzSPSB32j1Q1Nw9GCMePphJHj7wD1U+QGJdPg==

> <OMEGA_NBR>
     74788

$$$$
50157513
  -OEChem-04172616093D

 60 64  0     1  0  0  0  0  0999 V2000
    4.9445    4.1379  -22.8828 C   0  0  0  0  0  0  0  0  0  0  0  0
    5.2312    4.9642  -23.9800 C   0  0  0  0  0  0  0  0  0  0  0  0
    7.1838    4.5172  -22.0180 C   0  0  0  0  0  0  0  0  0  0  0  0
    5.9099    3.9245  -21.8706 C   0  0  0  0  0  0  0  0  0  0  0  0
    7.4673    5.3867  -23.0841 C   0  0  0  0  0  0  0  0  0  0  0  0
    6.4894    5.6155  -24.0877 C   0  0  0  0  0  0  0  0  0  0  0  0
    6.3054    3.4365  -19.3995 C   0  0  0  0  0  0  0  0  0  0  0  0
    4.0428    3.5616  -19.0896 C   0  0  0  0  0  0  0  0  0  0  0  0
    5.4315   -1.0162  -22.7908 C   0  0  0  0  0  0  0  0  0  0  0  0
    7.7899   -0.7834  -21.9134 C   0  0  0  0  0  0  0  0  0  0  0  0
    5.9254   -1.4971  -20.3602 C   0  0  0  0  0  0  0  0  0  0  0  0
    6.4681    1.2648  -22.5518 C   0  0  0  0  0  0  0  0  0  0  0  0
    4.6030    0.5515  -20.9941 C   0  0  0  0  0  0  0  0  0  0  0  0
    6.9718    0.7791  -20.1223 C   0  0  0  0  0  0  0  0  0  0  0  0
    6.7492   -0.2122  -22.9049 C   0  0  0  0  0  0  0  0  0  0  0  0
    4.8777   -0.9284  -21.3475 C   0  0  0  0  0  0  0  0  0  0  0  0
    7.2456   -0.6982  -20.4674 C   0  0  0  0  0  0  0  0  0  0  0  0
    5.6077    2.9667  -20.7000 C   0  0  2  0  0  0  0  0  0  0  0  0
    5.9087    1.4232  -21.0844 C   0  0  0  0  0  0  0  0  0  0  0  0
    9.0242    6.9889  -21.8967 C   0  0  0  0  0  0  0  0  0  0  0  0
    5.5196    4.2086  -17.1322 C   0  0  0  0  0  0  0  0  0  0  0  0
    5.8055    6.6376  -26.1819 C   0  0  0  0  0  0  0  0  0  0  0  0
    8.8404    6.0571  -23.1147 C   0  0  0  0  0  0  0  0  0  0  0  0
    5.2968    3.6454  -18.4748 N   0  0  0  0  0  0  0  0  0  0  0  0
    4.1784    3.1653  -20.3347 N   0  3  0  0  0  0  0  0  0  0  0  0
    2.8216    3.8335  -18.4841 N   0  0  0  0  0  0  0  0  0  0  0  0
    7.5037    3.5380  -19.1534 O   0  0  0  0  0  0  0  0  0  0  0  0
    6.8036    6.4615  -25.1468 O   0  0  0  0  0  0  0  0  0  0  0  0
    3.9784    3.6606  -22.8102 H   0  0  0  0  0  0  0  0  0  0  0  0
    4.4880    5.1066  -24.7505 H   0  0  0  0  0  0  0  0  0  0  0  0
    7.9559    4.2971  -21.2957 H   0  0  0  0  0  0  0  0  0  0  0  0
    4.6908   -0.6019  -23.4905 H   0  0  0  0  0  0  0  0  0  0  0  0
    5.6250   -2.0694  -23.0427 H   0  0  0  0  0  0  0  0  0  0  0  0
    7.9935   -1.8348  -22.1646 H   0  0  0  0  0  0  0  0  0  0  0  0
    8.7207   -0.2020  -21.9871 H   0  0  0  0  0  0  0  0  0  0  0  0
    5.5368   -1.4216  -19.3340 H   0  0  0  0  0  0  0  0  0  0  0  0
    6.1183   -2.5526  -20.6026 H   0  0  0  0  0  0  0  0  0  0  0  0
    7.4043    1.8356  -22.6390 H   0  0  0  0  0  0  0  0  0  0  0  0
    5.7273    1.6648  -23.2598 H   0  0  0  0  0  0  0  0  0  0  0  0
    3.8571    0.9531  -21.6958 H   0  0  0  0  0  0  0  0  0  0  0  0
    4.2083    0.6059  -19.9688 H   0  0  0  0  0  0  0  0  0  0  0  0
    6.5979    0.8388  -19.0895 H   0  0  0  0  0  0  0  0  0  0  0  0
    7.9127    1.3430  -20.2047 H   0  0  0  0  0  0  0  0  0  0  0  0
    7.1380   -0.2813  -23.9315 H   0  0  0  0  0  0  0  0  0  0  0  0
    3.9453   -1.5071  -21.2725 H   0  0  0  0  0  0  0  0  0  0  0  0
    7.9868   -1.1120  -19.7679 H   0  0  0  0  0  0  0  0  0  0  0  0
   10.0177    7.4590  -21.9406 H   0  0  0  0  0  0  0  0  0  0  0  0
    8.2487    7.7688  -21.9116 H   0  0  0  0  0  0  0  0  0  0  0  0
    8.9367    6.4025  -20.9702 H   0  0  0  0  0  0  0  0  0  0  0  0
    4.5608    4.2717  -16.5968 H   0  0  0  0  0  0  0  0  0  0  0  0
    6.2099    3.5602  -16.5726 H   0  0  0  0  0  0  0  0  0  0  0  0
    5.9549    5.2146  -17.2243 H   0  0  0  0  0  0  0  0  0  0  0  0
    6.1889    7.3275  -26.9482 H   0  0  0  0  0  0  0  0  0  0  0  0
    5.5809    5.6649  -26.6439 H   0  0  0  0  0  0  0  0  0  0  0  0
    4.8884    7.0540  -25.7397 H   0  0  0  0  0  0  0  0  0  0  0  0
    9.6206    5.2818  -23.0964 H   0  0  0  0  0  0  0  0  0  0  0  0
    8.9325    6.6482  -24.0379 H   0  0  0  0  0  0  0  0  0  0  0  0
    3.4138    3.0151  -20.9615 H   0  0  0  0  0  0  0  0  0  0  0  0
    1.9726    3.7305  -19.0024 H   0  0  0  0  0  0  0  0  0  0  0  0
    2.7920    4.1321  -17.5302 H   0  0  0  0  0  0  0  0  0  0  0  0
  1  2  2  0  0  0  0
  1  4  1  0  0  0  0
  2  6  1  0  0  0  0
  3  4  2  0  0  0  0
  3  5  1  0  0  0  0
  4 18  1  0  0  0  0
  5  6  2  0  0  0  0
  5 23  1  0  0  0  0
  6 28  1  0  0  0  0
  7 18  1  0  0  0  0
  7 24  1  0  0  0  0
  7 27  2  0  0  0  0
  8 24  1  0  0  0  0
  8 25  2  0  0  0  0
  8 26  1  0  0  0  0
  9 15  1  0  0  0  0
  9 16  1  0  0  0  0
 10 15  1  0  0  0  0
 10 17  1  0  0  0  0
 11 16  1  0  0  0  0
 11 17  1  0  0  0  0
 12 15  1  0  0  0  0
 12 19  1  0  0  0  0
 13 16  1  0  0  0  0
 13 19  1  0  0  0  0
 14 17  1  0  0  0  0
 14 19  1  0  0  0  0
 18 19  1  0  0  0  0
 18 25  1  0  0  0  0
 20 23  1  0  0  0  0
 21 24  1  0  0  0  0
 22 28  1  0  0  0  0
  1 29  1  0  0  0  0
  2 30  1  0  0  0  0
  3 31  1  0  0  0  0
  9 32  1  0  0  0  0
  9 33  1  0  0  0  0
 10 34  1  0  0  0  0
 10 35  1  0  0  0  0
 11 36  1  0  0  0  0
 11 37  1  0  0  0  0
 12 38  1  0  0  0  0
 12 39  1  0  0  0  0
 13 40  1  0  0  0  0
 13 41  1  0  0  0  0
 14 42  1  0  0  0  0
 14 43  1  0  0  0  0
 15 44  1  0  0  0  0
 16 45  1  0  0  0  0
 17 46  1  0  0  0  0
 20 47  1  0  0  0  0
 20 48  1  0  0  0  0
 20 49  1  0  0  0  0
 21 50  1  0  0  0  0
 21 51  1  0  0  0  0
 21 52  1  0  0  0  0
 22 53  1  0  0  0  0
 22 54  1  0  0  0  0
 22 55  1  0  0  0  0
 23 56  1  0  0  0  0
 23 57  1  0  0  0  0
 25 58  1  0  0  0  0
 26 59  1  0  0  0  0
 26 60  1  0  0  0  0
M  CHG  1  25   1
M  END
> <OMEGA_C>
AzmeQJtphED/D7fBKGanQLPankD+1r/BSOHlQPiMkEDrJLDBNB69QHsqe0AP967BxfPuQD5grEAt
rLjBTKnPQHSys0CPs8DBJsbJQPHvW0AuMpvBe16BQMvxY0Bpt5jBLM+tQAIUgr95U7bBlkb5QGGP
SL+nTq/B+5y9QCuiv7/H4aLBU/rOQI3joT8harTBkEuTQPMxDT/g86fBSxnfQPpzRz9g+qDBQ/nX
QIpIWb4kPbfBQRacQNOsbb+fx6rB49vnQBS7Mr9NvaPB4XGzQBzePUCPmaXBGhS9QNUptj/arKjB
GWMQQeGk30B5LK/Bp6CwQJ6shkCzDonBdsa5QHdn1ECYdNHBe3INQejTwUD/6rjBkn+pQIBNaUBo
zJPBfLWFQIGTSkCRraLBMpU0QDVYdUBx35PBAx7wQGBuYkAeOpnBH7fZQLnEzkCuLMnBqp1+QDtH
akBae7bBhp2PQDFpo0AKAcbBCZf+QPqBiUCxXarB8RqWQKwXGr+J7LvBJwC0QHVwBMCAV7jBWsr/
QDDc6r8XUbHBAIgLQejQTr6s5a/BZi2xQGv4tb/vq5rB0cjDQGteI8AT0qTB0O/sQLj16j/GHLXB
VEa3QOMY1T8iFLrBnNp2QEX8cz8Kka3BjqqGQIoaGz8BwJ/BOCLTQBy6Vj8/t5jB2DT9QJvnqz9J
o6HBGGrkQLIHkL7Kc7/BLH98QKrpwL8WLqrBnJP/QDpXjr+gJJ7BlEggQdSv7kBShq/BlfoDQWOa
+EDzSq/B4/wOQSnhzEDlwqfBBPKRQBeyiEAnxoTBSLfGQNDZY0C2lITB746+QJrdpkBgy4nBUAvG
QK966kDXldfBppayQPJGtUCfJtXBj22cQKC64UD96s3B1O0ZQakEqUCExbjBhesOQeO91ECSTcDB
R3taQCj3QEAcsafBRn/8P0HBbkDxBJjBba8yQAc6hEDNPYzBUUObQOA0iUAJhbbBcE6kQFOjpEA2
Kb/BoSPmQHX4ikDoTLHBfwy8QApYekB+Rq/BucPvQHcmpEAoO7rB/7nOQDBUs0Am8cDBCjbKQIBf
XUAIqZvB3OCBQA0lZUCNBpnBCHbWQPyOMr9U+LfBSintQE56i78i2aTBgK2fQNonr79MJqrBar3s
QInxnj8heazBwTefQJ5Odj/DwLHBc/i1QIH9Dj8zgZ7BEEb1QMbceb7X/q7BYn6nQMIoBr9nVLTB
W02+QD6pbL+2GqHBbzazQFpDPkCxzKXByXO9QD4euz99lajBkcwUQRFr2EDJJbbBjm6xQDr0hEDw
V4nBHUO4QJv+3kBq9c/BdhQPQcOVr0C7P7zBaDeqQHmcdkDYspTBZ86FQD0oRkAntqLBGgQ2QG89
ckCj8ZPBqoHwQOUsW0DEh5nB8N3ZQInnz0C2AcnBSkx2QO5+ekBBZrXBseCKQBCPrkDhdcTBInL/
QAX2gUBN3avB2RrcQDDdtL0DKb/BKGjcQJnT4L+Q1LnBdU/zQJOKCcBcpqbBxmkBQZObQb8fcp7B
1cd8QHHXnb86gKfBr1WlQBl/G8C++6vB5GsBQZ0JyT9bJqbBvzvyQFxB6z9svbPBCAmlQAwJyD/8
+rjBNXx7QDrSij/kNq/BR62UQNLSLD/szZvBldXLQKpEYD/CF5jBJkwLQU8Kv74jo7HBssqRQIrM
Wr/Eu7rBQbe4QITjxL+p75nB36clQbSb4EBzorfBtIEKQVLJ8kDw4rjBT1gSQa8+00Czh63BPvmS
QIYxjkDglYXByE6+QFHlUECtToXBj27IQIdyn0BVoYjBoL/FQDoz9UBt5dXBYY+pQL2gw0C3GNTB
1dWfQA2p70BWL8vBNmMZQXw+lUAKgrnBm4wRQR7JtEBG3cTBXGlaQPzvNUCvaKfBAr/+P/XCY0Dq
sZfBIpE0QF8VhUC2hozBeuPnQB2yj0AZArHBL4/vQDw2q0Bet7nB8DKeQMPMh0Asv7bB3K++QOL/
e0CFVq/BrNikQH2JpEAxPr/BqoTOQICLtkDk4sDBDr/KQIfhXUA4opvBSjCCQGFPYUBiFpnBE2Sf
QH+Hsb8jKqnBOmnSQO4lPL9J5rfBDOTtQGXbiL9IGqXBWo6cQL51bj8HHrHBKdK3QM4KFT9SO57B
MjnrQCI3nz/OEK3BjmmkQHJFEL9RkbPBhPK/QOZHaL95r6DB5k3zQFasfr7Rf6/BdpS0QFZ7P0B/
4aXBcCG9QEp9uz+BiajBiTSDQCzbl0CZUNHBaKuwQKNEhUAMY4nBzKi+QJHl8UDvGs3Bgnh8QEIx
rUBLV8bBKiKqQEzadEBBsJTBFdyGQKP6SEDKBqPBBuE1QKinZ0CB95PBFwzxQPBFXUAzgpnBMeba
QDgM0EDNhsnBQcwAQUIFiEDMj6vBT6oHQW7nt0Ay8LrBL4N+QECbcUAY4bXBRn59QP4Rob+aCabB
1BClQNbPHMAw66rBJDPYQPAM5r+FqrnBARHWQDnbE75vRL/BLngCQW5nNr83GJ/B1PHzQPdpCMCE
0KbB41OgQBCKwT8/iLjBzJp3QNMxhz9lDa7BxRGXQPcQMz+EJZvBUtfOQLZbaz83JZjB1l4BQX9k
yz/nIKfB4+buQI2E6T/Ye7TBBz2NQPG+ab+LkrnBflK8QGMnwL9tVZnBD/cJQZzAwr5TobLB/6xN
QKS3nkAMPNbBjOifQKZ6pEBCUNXBWHKGQDgcakB3RdDBd7eRQKYrjUD+sIXB7Pe+QA+QU0DsNYXB
szzGQFT7oEBzyIjBvkjNQN5SAUFK7dPBMdafQDYQ5EBVk8/BrGW5QFJYBEGUh8bBMslCQBeFoEBY
asLBmrV1QKHxz0AjdcfBXzNdQJ0mPkCgEKjB3BQAQDAvWUCY55fBPRUzQCezekBVVozBzDvoQKWO
kEBQyLDBdn3vQMEUrEDmh7nBxpCeQLY2iEDLZ7bBNi6/QGwSfUDTDK/BINKkQC2CpEAv+77BsFrO
QIaltkBIw8DBUtDKQFK0W0BZVJvBsj6CQIDFXUAU4pjBcLPtQDYZi7+OUaXBNDCfQK6ysb8+bKnB
BlHSQBgcN7/DE7jBkO23QCB8Dz/DSJ7BxlrrQB8cnz+yBq3BGJycQLyicT9AHbHBmMm/QIIrbb/h
46DBQD/zQEpefb5qnq/BIFOkQAQcDL8Bu7PBXhC1QK0/P0Aas6XBtk+9QHwTuz/tf6jB/qGFQAt1
jUCTadDBfAewQOTig0CmJInBnDK9QL2W7UCFKs7BuJt9QDM+qUAddMbBKiSqQOQhZEBt5JPBlk+H
QKp+SECF6KLBO1A1QOWCakBhIpTBECzxQC99YkCtdpnB2NLaQNH1zkD9nsnBwg4BQXMmiUBRXavB
S4MHQS5guUDUu7rB/Dh/QNi1ckA1bLXBFGUCQQ2ZPr83RJ/BZZrzQMJgCcDyJ6fB5cCkQH27HMBN
S6vB4xp9QGWAob/sSKbByQrWQBcC5b0nYL/B0QDYQP4t479B97nBNjeXQFaCLT9ULJvBoQrPQAA9
Yj/2K5jBBnABQSmayT+9CqfBuCnvQBL06j8EYbTBq1agQPqnxD9HeLjB0ct3QHhmiD+FA67BvBG8
QG8GxL+ImZnBeu4JQRdkwb6BwrLBoSGNQMJKYr8Ix7nB9CFUQDXtkEDE0NXBGeuiQEu/l0Dhj9TB
etOIQOl+V0D2Ac7BOEaRQAusg0Do3ITBzGzHQGbPYEDkuYTBmNG7QAj1pEAfxonBp0nMQJGs/UBD
BtXBJCagQMrb3EDF2dDBLKK0QP7AAkFCE8jB4QVDQKDynkDRTsLBHzV3QHfyykC73MjBnXdeQE6Q
P0DlDqjBiJ3/P410Y0Atb5jBJLcxQG3BekDLaIzBrDObQMRqiUDAQLbBKEWkQEwMpEDDB7/BGMzl
QPDRjEBny7DByOi7QNoifEDn667BuHjvQLV1pUB90rnByqDOQKa8skAK2cDBehLKQDKDXEAQW5vB
AqyBQI84ZUAF4ZjBHtHtQOOmiL8cP6XBHC+gQOdPrb8/YarBmD3WQCKVJb+KRLjBZn62QApgDj+G
lZ7B9KzsQKBaoz97mazB5v2eQOxQfT+MurHBUBG/QLpka7+rXaHBsFn1QCDxT75sUq/BTGenQCIH
+74CfLTBxj2zQPDOPkD/k6XBDoS9QAFDvT/XkqjBNFoSQWje3kBLV7bBiNewQGk6hUDeIYnBDpm3
QEZR4UCQNs/BbbsOQdkXs0BchrvBDO6pQJ1AdkD9d5TB9taFQD/1RUCJiKLBWR01QHXJckAY8pPB
KjzwQA2YWECoHJnBfN3ZQLQLzUDNXMnB6S52QNgJe0AkFrXBAuWKQEperUDHacTBodz+QAQAhUAs
LavBj9QBQap/Pb+53J7BvyH0QFfWB8CuLafBev6lQMNIGsC+WKzBjfR9QBqBnb/zoafBaHHbQMsg
v7xrZr/BuVXcQIK42b+mRLrBxz+VQI4wKT/i0JvB93XMQPXqXT9KLJjB8HoBQchrzD8rSqbBmsbx
QP+R8T8LzrPBwW+kQAM3zT9b57jBdDF7QEgYjT/0GK/B4Om5QPMCxr/1QJrBb0oLQYG0pL5xELLB
03+RQI1eUL8t3rrB3A0jQQPS6EAvkrfBE5IHQfSB9kBJArrBewcPQYS/3EAvt63BwUeSQE+XjkBN
coXB1qK9QG3KUUAvAYXBX83HQKvEn0C5cojBMxXFQA0I9UBgrdXBjpyiQAKmyEDeqNLBmPekQMm4
9UDWwsnBLoIZQVlxm0CM27fBxgwSQcoztUCmJsTBl7xaQIQYNUDOPKfBerH9P4B2ZEA4ypfBTuoy
QJ1zhUBdiozB

> <OMEGA_E>
EBtOPkDE0j3AbiE+eOQbPtCb3z0=

> <OMEGA_NBR>
     79967

$$$$
50157520
  -OEChem-04172616093D

 52 55  0     1  0  0  0  0  0999 V2000
    8.5579   -2.8099  -18.0226 C   0  0  0  0  0  0  0  0  0  0  0  0
    7.5979   -2.1126  -18.7728 C   0  0  0  0  0  0  0  0  0  0  0  0
    7.2493    4.3610  -22.1214 C   0  0  0  0  0  0  0  0  0  0  0  0
    5.2113    0.8790  -22.1951 C   0  0  0  0  0  0  0  0  0  0  0  0
    7.5260    5.2373  -23.1843 C   0  0  0  0  0  0  0  0  0  0  0  0
    5.4423   -0.4691  -22.5375 C   0  0  0  0  0  0  0  0  0  0  0  0
    6.8074    0.6833  -20.3651 C   0  0  0  0  0  0  0  0  0  0  0  0
    4.9298    4.2021  -22.8561 C   0  0  0  0  0  0  0  0  0  0  0  0
    9.9052   -2.7923  -18.4421 C   0  0  0  0  0  0  0  0  0  0  0  0
    8.0159   -1.4219  -19.9243 C   0  0  0  0  0  0  0  0  0  0  0  0
    7.0443   -0.6545  -20.7116 C   0  0  0  0  0  0  0  0  0  0  0  0
    5.8979    1.4747  -21.1058 C   0  0  0  0  0  0  0  0  0  0  0  0
    5.9352    3.8713  -21.9125 C   0  0  0  0  0  0  0  0  0  0  0  0
    5.2152    5.0436  -23.9510 C   0  0  0  0  0  0  0  0  0  0  0  0
    6.5102    5.5967  -24.0905 C   0  0  0  0  0  0  0  0  0  0  0  0
    6.3613   -1.2386  -21.7976 C   0  0  0  0  0  0  0  0  0  0  0  0
    9.3842   -1.4318  -20.2844 C   0  0  0  0  0  0  0  0  0  0  0  0
    6.3271    3.4034  -19.4410 C   0  0  0  0  0  0  0  0  0  0  0  0
    4.0602    3.5329  -19.1245 C   0  0  0  0  0  0  0  0  0  0  0  0
    5.6156    2.9394  -20.7256 C   0  0  2  0  0  0  0  0  0  0  0  0
    4.1114    5.3932  -24.9347 C   0  0  0  0  0  0  0  0  0  0  0  0
    5.5533    4.1686  -17.1666 C   0  0  0  0  0  0  0  0  0  0  0  0
    6.6395    7.8502  -24.8011 C   0  0  0  0  0  0  0  0  0  0  0  0
   10.2963   -2.1128  -19.5487 N   0  0  0  0  0  0  0  0  0  0  0  0
    5.3226    3.7985  -18.5735 N   0  0  0  0  0  0  0  0  0  0  0  0
    4.1908    3.0514  -20.3415 N   0  3  0  0  0  0  0  0  0  0  0  0
    2.8387    3.7558  -18.4995 N   0  0  0  0  0  0  0  0  0  0  0  0
    7.5300    3.4481  -19.1999 O   0  0  0  0  0  0  0  0  0  0  0  0
    6.8018    6.4530  -25.1295 O   0  0  0  0  0  0  0  0  0  0  0  0
    6.5795   -2.5336  -22.1280 F   0  0  0  0  0  0  0  0  0  0  0  0
    9.8012   -0.7446  -21.3754 F   0  0  0  0  0  0  0  0  0  0  0  0
    8.2688   -3.3532  -17.1352 H   0  0  0  0  0  0  0  0  0  0  0  0
    6.5607   -2.1067  -18.4721 H   0  0  0  0  0  0  0  0  0  0  0  0
    8.0451    4.0576  -21.4573 H   0  0  0  0  0  0  0  0  0  0  0  0
    4.5056    1.4633  -22.7670 H   0  0  0  0  0  0  0  0  0  0  0  0
    8.5219    5.6368  -23.3067 H   0  0  0  0  0  0  0  0  0  0  0  0
    4.9137   -0.9125  -23.3684 H   0  0  0  0  0  0  0  0  0  0  0  0
    7.3260    1.1153  -19.5220 H   0  0  0  0  0  0  0  0  0  0  0  0
    3.9330    3.8046  -22.7347 H   0  0  0  0  0  0  0  0  0  0  0  0
   10.6428   -3.3331  -17.8678 H   0  0  0  0  0  0  0  0  0  0  0  0
    3.5822    6.2931  -24.5881 H   0  0  0  0  0  0  0  0  0  0  0  0
    4.5501    5.5846  -25.9251 H   0  0  0  0  0  0  0  0  0  0  0  0
    3.4026    4.5548  -25.0034 H   0  0  0  0  0  0  0  0  0  0  0  0
    4.5969    4.4424  -16.6974 H   0  0  0  0  0  0  0  0  0  0  0  0
    5.9935    3.3149  -16.6305 H   0  0  0  0  0  0  0  0  0  0  0  0
    6.2423    5.0249  -17.1211 H   0  0  0  0  0  0  0  0  0  0  0  0
    6.8901    8.4650  -25.6780 H   0  0  0  0  0  0  0  0  0  0  0  0
    5.5964    8.0388  -24.5072 H   0  0  0  0  0  0  0  0  0  0  0  0
    7.3081    8.1108  -23.9674 H   0  0  0  0  0  0  0  0  0  0  0  0
    3.4256    2.7941  -20.9316 H   0  0  0  0  0  0  0  0  0  0  0  0
    1.9863    3.5471  -18.9789 H   0  0  0  0  0  0  0  0  0  0  0  0
    2.8124    4.1249  -17.5705 H   0  0  0  0  0  0  0  0  0  0  0  0
  1  2  2  0  0  0  0
  1  9  1  0  0  0  0
  2 10  1  0  0  0  0
  3  5  2  0  0  0  0
  3 13  1  0  0  0  0
  4  6  2  0  0  0  0
  4 12  1  0  0  0  0
  5 15  1  0  0  0  0
  6 16  1  0  0  0  0
  7 11  1  0  0  0  0
  7 12  2  0  0  0  0
  8 13  2  0  0  0  0
  8 14  1  0  0  0  0
  9 24  2  0  0  0  0
 10 11  1  0  0  0  0
 10 17  2  0  0  0  0
 11 16  2  0  0  0  0
 12 20  1  0  0  0  0
 13 20  1  0  0  0  0
 14 15  2  0  0  0  0
 14 21  1  0  0  0  0
 15 29  1  0  0  0  0
 16 30  1  0  0  0  0
 17 24  1  0  0  0  0
 17 31  1  0  0  0  0
 18 20  1  0  0  0  0
 18 25  1  0  0  0  0
 18 28  2  0  0  0  0
 19 25  1  0  0  0  0
 19 26  2  0  0  0  0
 19 27  1  0  0  0  0
 20 26  1  0  0  0  0
 22 25  1  0  0  0  0
 23 29  1  0  0  0  0
  1 32  1  0  0  0  0
  2 33  1  0  0  0  0
  3 34  1  0  0  0  0
  4 35  1  0  0  0  0
  5 36  1  0  0  0  0
  6 37  1  0  0  0  0
  7 38  1  0  0  0  0
  8 39  1  0  0  0  0
  9 40  1  0  0  0  0
 21 41  1  0  0  0  0
 21 42  1  0  0  0  0
 21 43  1  0  0  0  0
 22 44  1  0  0  0  0
 22 45  1  0  0  0  0
 22 46  1  0  0  0  0
 23 47  1  0  0  0  0
 23 48  1  0  0  0  0
 23 49  1  0  0  0  0
 26 50  1  0  0  0  0
 27 51  1  0  0  0  0
 27 52  1  0  0  0  0
M  CHG  1  26   1
M  END
> <OMEGA_C>
Fe0IQbzUM8BjLpDBUCLzQKk0B8C+LpbBofrnQGKNi0Cb+LDBBsOmQCgJYT+Ej7HBHNXwQEaYp0B1
ebnBTyeuQPwr8L63TLTBg9bZQELsLj/P66LB28CdQNd3hkBT2bbBjnseQc20MsBWiZPB+EAAQTAB
tr/xZJ/BvGrhQHWLJ79YsaXBWbu8QIjEvD+g2KjBzuy9QJfDd0DGTK/BTeOmQH9loUCim7/BdlPQ
QIUYs0BSucDBZ4/LQN6Inr+RYa7BsSUWQWJFt798RqLBZnfKQA/SWUAlh5vBK+2BQKwbYkD4/pjB
/rKzQLwePEAXzqXBipCDQDmVrEAzesfB67SxQBNlhUAwVYnBanbUQI40+0CZaMbBr70kQZc3B8DM
Y5zBDVOqQLYac0CIlpTBTBuGQN1KQ0B9u6LBSK01QH5fcED3/pPBp/XwQKqtXEBVmZnBZ6jZQPZ+
zkA4CcnBjYvSQOcmIsA2BrHBn9EcQaicPr/HAKvBFE0EQVObVsDdFInB7vDRQO3TBsDpxpPB4rgA
QaXXgUCDqKvBCC6QQCpMuz/RIrbBy1kIQetgtEAOdLrBKT2dQIOWab9w8rrBUm7qQOrCjj8SLZzB
y7V7QNB+c0DD4LXB5kgqQQBSVcA78Y7BGkJlQCNhyUBwtMTBYpqRQAq1skCPZs/Bq8RZQPrAkUDw
BsjBehmTQC8ojkAylIXBs8q/QPQmVEAwC4XBOcHHQKvLoED194jB9nvcQNJwB0GlbM3BUBWzQPae
AEHKDsTBA9zpQPbFAUFNvb/BbzxbQOnSMkDlc6fBDj/+P00DY0DM1JfBKP4zQFv/g0BVkIzByN3L
QFXsT8DCp4zBhoe+QBANGcDY5ZTB2mTnQH48jUAB3LDBaUO5QFpwgz+th7PB5kHwQG7YqEAicrnB
DmbBQLPtpL7GCLbBjG3IQJBGEj//v6DBAVCdQKxNh0Bm17bBwff3QF7qV8D/cIrB483dQI7n178c
sprBL/jQQD5gRb9fR6PByKm9QOW6vz+j3KjBRnG9QDF1ekA4Pq/BnH+mQKO5oUC9rr/BsNvPQNeb
s0BQzMDBnozNQG1xnL/I763B/sEEQXmg7L8+CpjBbmvKQGc7WkADqJvB2+KBQGJmY0AwHZnB0oSz
QI5GPUCp5qXB01eDQA8MrEA5q8fB28CxQERnhkCpgYnBK4LTQINo+0Cts8bB4OMKQaupK8B+D5DB
3FyqQHo4dUDFw5TBzP+FQH8NQ0C/x6LBL6E1QIm1cUDkGZTB8MLwQN9KVkDnlZnBWi7ZQLWgzkCW
LsnBho3VQNgPIcDwarDBKewTQZ1/lL96fZ3Bsae0QBmZc8AUEIjBRvmcQEyiEcABv5bB+14AQWch
hEAQcqvB8ZevQEjV2j/LxbnBuQQIQYLdtUCFabrBCk6+QMOdKr/OL77BShnKQBwwZj80h5jBK9t6
QE8qdUC+17XBXh0BQXQngcAoHoTBCSlkQIjkyEAoD8XBipWRQCu5sUAjl8/BTM9ZQP79kECdJMjB
rEWTQD/tj0AGzoXBdxa/QEWeVUCJLYXBpW7IQPVHoUCkIInB/ovbQNFnB0GOw83B2gKyQIygAEFW
bcTBfaToQMMiAkG/BcDBuRNbQPfIMEC+Z6fBiiH+P8ItY0Dz3ZfBw/4zQONDhUDpuozB/fLCQBU/
M8DYxInBDk7LQLhI5790apHBsT6dQFX4hUDt57bBM9HNQM2wkT/wFrPBmASmQHXQoEC4oL/BJTzW
QMmOVr4dhLXBsxK3QF7x/D5GJKHBXGDmQMscj0BsjrDBMO6lQL9rdcAMRYzBkrW2QH8w8b8Ca5vB
8Qa/QMlaW79pmqPB7yC+QNqbwD/106jB6Pa8QCBoe0DAHK/BB0bvQBaAqkDJNrnB7AnPQC68s0Bl
18DBQN7OQAbGmr/g0q3B6ouZQBlMPMDWXp3BVUTKQIk0WECGj5vBsr2BQELeY0BRJpnBYZKzQAJd
PUBX4KXBmfQNQQlVvUA9XbrB9nOxQF2yhkBch4nBVZC3QJxq2ECf6tDBYsmRQDHleMBA3ZXBFjyq
QA4bdUCbxJTBjfCFQAlXQ0D3zKLBLDk1QBJ1ckCYLZTBWX/wQC+gUkAbcZnBtSvZQD7jzkDISsnB
eOnXQP3sH8DaQLDBKdODQOL1P8BSvqbBIY3SQJKKMcD7D4LB2xzhQEuKf7/rqY/B0AR8QCIBb0CA
I7bBCE/TQCcl8z/KD7nBkVuNQDwlp0BveMXB6GXiQDSH9L5UUL3BmXKrQGidQj/uSZnBM3b/QHpI
h0Dh8arBrJqfQJ5Ck8DTZYbBofMXQRqfp0D0KL/BH+0MQaSb3EB+Xr7BSyIVQZ5mwUDkZLLBNgmT
QMH8kEBz7IXBOxS+QMoTVkAZGIXB/aXIQIEioUDpK4nBWP/DQP8V7kCdHdfBCoSsQO6LukAjqtTB
dqecQEfY50CwwczBpA9bQBsTMUBacafBP3r9Pw3/Y0BP95fB4mwzQI+0hUCN0IzB+b5MQAHadsAe
W6LByTt9QIOXN8DshqfBBeudQD9YhEAWJbfBUQrfQKHWlT8AGLDBvWemQP6an0Cjzb/Bb8bnQAFD
Mb52orLBLsumQDzF5j5u4aPBTx/mQDoRkEAPa7DBjqNMQH5QesAGFZfBuAqWQEVP+r9QQqHBIFKv
QB/GZL+NcqbByLa9QDvivz9N1qjBuj+9QDhKekDdMK/BRgDvQGosq0A5IbnBIfvOQFWWs0Cr3sDB
Yc/PQDF/mr9I563B42OUQDzmA8D/85XBck7KQNvvVkDig5vBDNOBQEw3ZEAeGpnBuJqzQHlDPUCt
2qXBT60NQZC+vkBHMLrBXKmxQMUXhkCKdYnBoD63QFtT2EA46dDBefV5QELLQcDpHZHBs2KqQF1J
dEDgtJTBOeiFQJuoRkA+5KLBaG81QEiScUBZEZTBNo3wQKc6UUB7bJnBFebYQGr9zkD1SMnBfSXZ
QC62H8CjTLDBZ0urQKbBmr9Mwo/BLfInQJAsksBa9KbBBZp+QODIM8D4JrDBEV1+QFVyaUAAjbbB
ltTxQFGT+j/5sLPBId2NQLRxpUB5tcXBBnsAQd6h0r5JPLjBemqOQI4NLz8JDJ7Bxc/+QOGciUB5
l6rBLYsnQGqYlcC6GpPBM/wXQWkxqUDU3L7ByHkMQWbP3UBeSL7B9pwUQSVmw0BYL7LBeFKTQFud
kEDZ2oXBKAW+QL+LVEBtCoXBUxfJQGtRoEC4E4nBH4DDQH467kC8FNfBVIOsQLNqukBsstTBAymc
QLpp50BsvszBgchaQKZeOECLtqfBtNH9Pyh9ZECX7JfBqLQzQEEhhEAol4zBWOyGQPC/QcAjRo/B
spaNQKWOAsDaE5fBh0GdQEXwhUAq6bbBTFPOQBjQkT9WCrPBVgimQMfJoEBOob/Bse3WQAboVL5V
c7XBkL61QKUO+j5xQqHB8mHmQMoUj0DZjrDBEL6pQOeKdMAE7IvBDOe2QAw78b9QZ5vBqdO+QOu6
W7+jnqPBQLC9QINMwD9J3ajBqvW8QPdYe0ChHa/BL0vvQHR0qkD1N7nBQw7PQDGzs0As2MDBAFnP
QBKomr8Ix63BpZPYQOwwLcAemZfBiWTKQA/FV0DbkpvBbO2BQHr5Y0ArGpnB9H+zQI5QPUAS4qXB
QPkNQTk/vUBaYLrBbuuxQC+XhkBhhYnBf5K3QMxe2ECt69DB+4TRQMqaacDGBpDBGYKqQKTrdEAI
wZTBqO2FQBjUQ0D6xqLB+sY1QA+BckDZFZTBwKXwQKwGUkDHfJnB1i7ZQK/ZzkCtS8nBiTPXQHkm
IMAbULDBJnwAQajkIcCLSJvBgQZPQC1eS8B64IvBhxNnQEeptL/NtpnBnAt8QBrtbkCdJbbBKGbU
QJyJ8z+y9bjB1V6NQO4hp0CqeMXBAWbjQM0i875mOL3BIo+oQOG0Pz+3jJnBkHX/QMFCh0B88arB
bZakQBCrksCK8IXBq/QXQbiCp0AXLL/BPPQMQX6E3EBqYr7BZikVQSxRwUCRaLLBlZaTQPn+kEA7
5IXB1IC+QGPIVUBLGIXBSjfJQLXxoEBQL4nBdQDEQBsK7kDRHtfBloesQDN/ukD+qtTB7KicQKXL
50DWwszBMtNaQIwiMkA4a6fBkk7+PwxNZEBw25fBsD40QCqUhUCItIzBv6opQQxv779pF5zBd9Aa
QRLOmL94i6LBG4zmQCb5j0Aka7DBnT6tQESSYz+ZNLLB3WXuQNJ2rUBlrLjB3/K3QK7s277jLLXB
IU7fQMy6QT/hTaPBGIqdQEJ5hkD84LbBYUciQaCmJsCSLpPBa/sEQWUxo78Z5Z/B5jTqQBLnDL8j
T6bBQfjAQDApwD+zO6nBcIG9QMmVekB7Ka/BpcWlQDDookCtZL/BTQDOQASBt0B6FsDBu3vWQOV7
k79KPK/Bpjz9QGUEAcByy5bB9NHIQFUCWkApaJvB1dB/QDHKV0BdZpnBuVC0QA2VO0Ag8qXB6qeC
QIiFrEDTcsfBvlusQCCqgUC/QInB9tLNQHYpAEGoRsXBczANQVOVKsAbrJDBWBqnQJVAbUBGopTB
kECGQOS9O0ClMaPBZLwvQGWfX0B7p5TBHOLuQC3PYUA/LpnBi1jWQOpf1EB8JsjBbXjgQPr9GsBn
ELLB4VPTQD/8BMArD5TBzIo6QUpO6r887J3BLwogQXV6H7/xZanBrgEAQV90h0DE+qrBltOVQKf/
tz8AzbbBLbQGQcN9vEBxVbnBsrWoQOrXYr8YBLzB10HuQJDBmT+iX5zB1v98QF4Bb0AhOrbBLbIt
QWtCSMCyPY7BuPNeQOvIx0ARn8TBvB6RQLJztEDyOM/BBeRbQCZIkEA/VsjBMs2MQCnih0B0rYXB
z827QHLLTUA3CoXBJGjAQOZ0nkBqiojBQT/VQLKhCkEVGszBr92rQFHqAUGiIcPBRN3hQCGtBEEN
Z77BaOJdQDnwKEAwJajBKz/2P4ZtT0AZvJjBLL4qQLZzdUDvKI3B0tcNQRQQNcB53JPBrtYHQTh+
8b9bn5vB/AbmQNQIkkA7ObDB4O67QOnulD/5GLXBQdTtQBKisEBqOLjByrnFQNAxFL4zd7jB6xvM
QGp6Cj91rqLB2jGcQDJPi0ACWLbB5rz7QBhjZsA3zI7Bz//jQDSD37/YF57BkFvWQO5nQr9zEqbB
LfS/QNn+wz/VKarBh7S8QOwDgEDk9K7BUV2kQFbQqEC7nr7B+wbNQPqFvEBPWb/BNjPTQF2zjb/h
+rDBv3/FQAC8IsAJr5jB2VHKQDJLVEBHwJvB+aqBQKpCVkC6LJnBJPqzQMhMPEAKRabBxdGAQFZe
tEDjY8bB5ruwQPgQeUDhKonBz/rNQBoKA0F7yMPB8bTRQDK8XMDZOJHB/8epQNhDaECsoZTBUGKG
QHCDPEBAIaPBCLg0QMBjXkDwD5TBcbbwQKj+UUBzs5nBb1DVQPJ82kCqJ8fBMJDcQGRBF8C8R7TB
U1GbQK7IGcD47ZrBiXseQbedPcBaypHBm7sTQeMkpL9/nJ/BT7f/QOEniECB/6rBaUWxQJhw8j9C
4LrBuowGQb0Xv0Bx57jBKuPCQFfd0b6gz8DB5YbNQIJvST+jRprB3Zx5QEdHekDUnrXBY30CQRx7
isCw2IjBaARdQICez0BsN8PBQs+OQM8avUAQKs7B68tWQPK9mEBga8fBa+qRQDOng0BWToXBWSG/
QCVVQEBkZoXBbVzGQKENmEDNO4jBPUXVQAH+DUEMbcrBC0usQKP1BEH9asHB4sjiQOjEBkEg77zB
LJNcQExaK0De76fB23b9P0ZGUEDR+pfBrSoyQOFZckDRd4zBDNxRQKQ6dMBmq5rBzN9xQFODNsAC
xqHB0pqsQF38ikDSPrbBMu/KQKPPhz9FA7PB5uq9QBAepkDhEL7B9ILNQKsxlb6RC7bBDNOnQGmS
0j75YaLB1FHyQOJlhkDRma3B1D5zQFmCeMB+M5DBpCGZQNW+/L9uLp7BclGqQIpUcb8raqXBUPa3
QBuetj9CGqnByE/GQJlsd0Cnwq3BxOYBQWgLokBBV7XBYKjpQHRMskAkqb3B9ie9QDvCpb/QTa/B
FFmoQPnUBcAviZPBVGzGQJC7RkAuYJrBzCZ+QCwMaUBCAprBMHSzQA/zOECBiKXBtIUZQTCBrUAh
xbTBCPKoQAF2ekARuIjBSMXgQIsq3kD3hs3BSKSYQHc6QsAB0ozBEM2lQC90akCCTZTBSqeFQIGE
TEARxqPBMKIuQCDogEAJF5bBVlHqQPuNM0CFNJfBnDX8QKxtzUCXK8XBOJfAQBj1JcCZR7LBXu/H
QHpLo78q+Y/Bjj4gQFn3j8AfMJ3BPphZQN8kMsAt2KnBx16LQLywgUDFtbbBH3PXQDG76T9wP7jB
wM2pQBjYsUB3c8TBChrcQEJeD7+uk73B9WKZQJf4LD+30prBe14DQf5YckDAdqfBBcpaQC0ZlMCt
vorBHd4iQfYDlkCuXbnB9P4bQdydzUDQJ7jBiMoeQacurUC/X6zB9ueKQJWCi0Ce1oXB362uQMyo
PUBohYTBd5zDQKpTk0CrJIfBZIzzQDr58kDd2dLBe0vTQJR5w0C/K9LBdqDGQJPA8EBM58nB1Hld
QOsKRUBkR6nB4+n1P9J7fkCFyprBbh8pQCl6i0AOko7B

> <OMEGA_E>
IFcxP+BzMj+clys/6NMrP+b9Kz8gejw/5KFDP9hGbD8=

> <OMEGA_NBR>
     87252

$$$$
50168766
  -OEChem-04172616093D

 43 45  0     1  0  0  0  0  0999 V2000
    6.3498   -1.3086  -21.5385 C   0  0  0  0  0  0  0  0  0  0  0  0
    7.4233   -0.4870  -21.1482 C   0  0  0  0  0  0  0  0  0  0  0  0
    5.1068   -0.7354  -21.8603 C   0  0  0  0  0  0  0  0  0  0  0  0
    7.2317    0.8980  -20.9957 C   0  0  0  0  0  0  0  0  0  0  0  0
    4.9099    0.6466  -21.7026 C   0  0  0  0  0  0  0  0  0  0  0  0
    4.9075    4.1691  -22.8355 C   0  0  0  0  0  0  0  0  0  0  0  0
    5.1583    5.0448  -23.9008 C   0  0  0  0  0  0  0  0  0  0  0  0
    7.2102    4.4194  -22.0849 C   0  0  0  0  0  0  0  0  0  0  0  0
    5.9432    1.4600  -21.1710 C   0  0  0  0  0  0  0  0  0  0  0  0
    5.9228    3.8692  -21.8979 C   0  0  0  0  0  0  0  0  0  0  0  0
    7.4631    5.3135  -23.1395 C   0  0  0  0  0  0  0  0  0  0  0  0
    6.4406    5.6304  -24.0623 C   0  0  0  0  0  0  0  0  0  0  0  0
    6.3395    3.3049  -19.4349 C   0  0  0  0  0  0  0  0  0  0  0  0
    4.0807    3.5186  -19.1678 C   0  0  0  0  0  0  0  0  0  0  0  0
    5.6397    2.9032  -20.7469 C   0  0  2  0  0  0  0  0  0  0  0  0
    8.8393    5.9421  -23.2689 C   0  0  0  0  0  0  0  0  0  0  0  0
    5.5395    4.2334  -17.2350 C   0  0  0  0  0  0  0  0  0  0  0  0
    5.6528    7.0154  -25.8764 C   0  0  0  0  0  0  0  0  0  0  0  0
    5.3250    3.5903  -18.5384 N   0  0  0  0  0  0  0  0  0  0  0  0
    4.2144    2.9996  -20.3617 N   0  3  0  0  0  0  0  0  0  0  0  0
    2.8670    3.8973  -18.6143 N   0  0  0  0  0  0  0  0  0  0  0  0
    7.5370    3.3777  -19.1798 O   0  0  0  0  0  0  0  0  0  0  0  0
    6.7512    6.4991  -25.0987 O   0  0  0  0  0  0  0  0  0  0  0  0
    6.0914    8.1046  -26.5518 F   0  0  0  0  0  0  0  0  0  0  0  0
    5.2231    6.0848  -26.7707 F   0  0  0  0  0  0  0  0  0  0  0  0
    6.4805   -2.3793  -21.5908 H   0  0  0  0  0  0  0  0  0  0  0  0
    8.3956   -0.9203  -20.9655 H   0  0  0  0  0  0  0  0  0  0  0  0
    4.3041   -1.3571  -22.2286 H   0  0  0  0  0  0  0  0  0  0  0  0
    8.0679    1.5338  -20.7446 H   0  0  0  0  0  0  0  0  0  0  0  0
    3.9678    1.0915  -21.9872 H   0  0  0  0  0  0  0  0  0  0  0  0
    3.9311    3.7198  -22.7298 H   0  0  0  0  0  0  0  0  0  0  0  0
    4.3707    5.2752  -24.6029 H   0  0  0  0  0  0  0  0  0  0  0  0
    8.0092    4.1500  -21.4101 H   0  0  0  0  0  0  0  0  0  0  0  0
    9.4757    5.3055  -23.9011 H   0  0  0  0  0  0  0  0  0  0  0  0
    8.7459    6.9376  -23.7274 H   0  0  0  0  0  0  0  0  0  0  0  0
    9.2933    6.0389  -22.2716 H   0  0  0  0  0  0  0  0  0  0  0  0
    4.5750    4.3466  -16.7183 H   0  0  0  0  0  0  0  0  0  0  0  0
    6.2110    3.6110  -16.6253 H   0  0  0  0  0  0  0  0  0  0  0  0
    5.9934    5.2240  -17.3852 H   0  0  0  0  0  0  0  0  0  0  0  0
    4.8339    7.2939  -25.1969 H   0  0  0  0  0  0  0  0  0  0  0  0
    3.4522    2.7062  -20.9388 H   0  0  0  0  0  0  0  0  0  0  0  0
    2.0215    3.7793  -19.1350 H   0  0  0  0  0  0  0  0  0  0  0  0
    2.8373    4.2884  -17.6944 H   0  0  0  0  0  0  0  0  0  0  0  0
  1  2  1  0  0  0  0
  1  3  2  0  0  0  0
  2  4  2  0  0  0  0
  3  5  1  0  0  0  0
  4  9  1  0  0  0  0
  5  9  2  0  0  0  0
  6  7  2  0  0  0  0
  6 10  1  0  0  0  0
  7 12  1  0  0  0  0
  8 10  2  0  0  0  0
  8 11  1  0  0  0  0
  9 15  1  0  0  0  0
 10 15  1  0  0  0  0
 11 12  2  0  0  0  0
 11 16  1  0  0  0  0
 12 23  1  0  0  0  0
 13 15  1  0  0  0  0
 13 19  1  0  0  0  0
 13 22  2  0  0  0  0
 14 19  1  0  0  0  0
 14 20  2  0  0  0  0
 14 21  1  0  0  0  0
 15 20  1  0  0  0  0
 17 19  1  0  0  0  0
 18 23  1  0  0  0  0
 18 24  1  0  0  0  0
 18 25  1  0  0  0  0
  1 26  1  0  0  0  0
  2 27  1  0  0  0  0
  3 28  1  0  0  0  0
  4 29  1  0  0  0  0
  5 30  1  0  0  0  0
  6 31  1  0  0  0  0
  7 32  1  0  0  0  0
  8 33  1  0  0  0  0
 16 34  1  0  0  0  0
 16 35  1  0  0  0  0
 16 36  1  0  0  0  0
 17 37  1  0  0  0  0
 17 38  1  0  0  0  0
 17 39  1  0  0  0  0
 18 40  1  0  0  0  0
 20 41  1  0  0  0  0
 21 42  1  0  0  0  0
 21 43  1  0  0  0  0
M  CHG  1  20   1
M  END
> <OMEGA_C>
aDHLQMt+p7/ETqzBEoztQDVU+b5vL6nBuGqjQAhBPL//4a7Ba2rnQE7kZT8Z96fBoR2dQCmGJT/o
nq3BlQqdQD1phUACr7bBbhClQPBuoUDDNL/B5rnmQJxrjUDurbDBqS6+QJbiuj8/XqnBL4e9QC2g
d0DYLq/B5dHuQHUIqkCvHbnBvxnOQOUrtECRf8DBO93KQCuDU0CpepvBIZWCQA8xYUC4V5nBqHi0
QO7NOUCW+aXBpW0NQY0lvkCqJrrBTEOxQJt3h0A14YnB1+O0QIR+4EDoAs/BzGaqQEXIZUCsTpTB
ONyGQGL5P0DM5KLBXX03QK1teUAV6pTBgS/xQAYsWEA7cJnBHQrYQED4z0A5ysjB1uzCQF2sAUEJ
atTBZCOnQAG3wkBnKtbB+1/PQCdHGMD0uazBQlQGQQica79VuafBIruJQFm0rb8f1LHBExYBQUBT
xD/g9KXB5/B9QDm2iz/Q5a/BqJd7QEYRbkCp1rXBedyLQM3OqEC70sTBnCUAQezMhEDJR6vBgZwX
QQjHqUCMNb/BL+8LQboA3kC80b3BNbEUQUU+wUBHLLLBLmaSQH0Xi0Acv4XBgMDGQHcaZ0CVAIXB
ocm/QBcrp0DjFIvB7a6aQHFn6UAzk8nBgfBcQAgzLUCZgqfBwl8BQDzgcUBvFJnB1ZY1QM86iUAz
jo3BK5fFQEInpr//uq3BONXYQPTopb6oSbTBIJ6yQH/FbL8Z+qPBh/zWQMKFhD/ta7HBLNSwQHUS
3D5uEKHB392dQIrEg0A5sbbBFMqkQJaKoEBUIr/BJFXnQCDgjUA2urDBN8bAQEDTtj+SDqjBWaC+
QDFUdkDYKK/BRpvuQAVuqkDSP7nBfTjNQCSKtEDFc8DBl7jLQLKFVkBya5vBLAaDQNXHYkBis5nB
30W2QJUuOUA6taXBZDoNQSCyvkCCjbrBEEmwQFmnikD3KorBsTqzQKTw3ECqpc/BEIiqQEleakCT
gJTB3mCIQLrLPUAgAKPBfSs3QNgXe0BxoJXBIwPyQLAaVkASR5nBleHVQGzb0UAnicjBy1q+QL9I
AEG2KtXB0f+rQLGMvEDAr9bB1GbFQA9TFcDdMbDB7w3pQGABH7+IibvBeXOlQJPg1r/3vJ7Bc3vm
QN2Y4z+7WrbBgDmjQHZ/Nj+Nc5nBSYJ+QHUKaED37bXB9CyLQFuEp0CNqsTB0pUAQXUshkBzUqvB
wzUXQfxaqkCft7/ByYALQbGB3kBkOL7BdtsUQYrrwUDhqbLBafyQQD+6jkC8RYbBQSrFQENGbkDy
B4XBfQi/QM8zqkC2covBgE2WQNYJ40DF3srB0GFhQJvDJ0DvnqfBPOsBQBOXcECf3ZnBz4gzQKqQ
i0AZc47Bo7nPQNe+m7+1MK7B8aK+QM1Err7U4bXBdorUQPSdSr8RiaPBZrq0QFpRfD/LErPBWnvK
QCgKCD9YsKDBHUbnQJ/9jUAJxrDBHVfuQEnyqUA3dLnBKSKdQATzhkAiIrbByh+9QJvnuj91l6jB
IPm9QFjReUAr4K7BiNqjQHdloUADDr/BjjPNQBN3tEBet8DBNqrKQB4JV0AsY5vB5C+CQNrvYEBe
GJnBOi60QCMRO0Apn6XBGFh7QAtepUD6jMbBhQyxQDW/iEDkw4nBjVO5QJWj5UA5Vs/BaDuqQMgA
aEBuJpTBGaWGQERtP0CKoaLBskA2QA4pd0A6npTBsjTxQPIHWEBmipnBMIrZQFhGz0AuKcnBPlbJ
QOXOBUEnqtLBYuyuQL+wzkCANtjBvCXZQIzVDcA+d7DBqx65QDKYL79y873Bi/nfQFyovb9SiZ3B
LKWmQMu30j+a7rjBXu/MQF64Vz8tcJjB5LwAQcKQhUBXjKvBdd8GQTWkt0A+lrrBkTJ7QG20c0Dk
zLTB0udTQG/gwEBfIsTBpBWJQK8eqkBFys7BtcRUQGb3h0C9JcbBWkaSQHTCi0Bmj4XBJCHHQNqf
akCN7oTBRd6+QNG7qEBVA4vBqd2cQEmo6kARUMrBXfFcQFGKK0D7PqfB3yYAQBnNbUCVupjBggc0
QGtFiECFR43B4E/QQDRBm79gsK3BVjrxQCNbgb5Ofa3BJ6ylQPz0Ub/886vBUsPnQAocjD+3OavB
ZwOcQGrJBj+FxqnBAFLmQPnbkECSVrDB+9PtQIMerEB/HbnBAxGeQPNxhECTvrbBXTS9QPptvz9Z
D6nB/sO9QBHJekAX867BVjKlQBgIn0Adnr/BXZXNQO04tEAfyMDBrFfKQOhAVEC1TZvBCuCBQD+V
YUD79ZjBycOzQIS2PECzvKXB6+eAQJaRoUAnssfBPB+xQB21hkCkfonBiIW5QMJf6UDDJ87BPwiq
QHZ3Z0BNF5TBYy2GQD9hRkBIy6LBW4c1QLypc0AgOZTBp8fwQJsoU0DsVZnBiIXZQJ7QzUAgasnB
LlXJQI3FCEGABc/B3dOvQN342kCDI9jBCc3XQOgMEMClLK/BeOsIQdnKDL/VE6/BplGMQBrExr+0
SqzBNJQAQXHd6T8UJKvBQUN2QJ+2Uz9Io6jBeJf/QPzGikDipKrB6mIGQfEXu0CPALrBi7t+QNzq
aUBF4LXB8gNXQEY3vECRlsXBry+OQOjppkA7vM/BmIldQC1ng0BxnMfBwTSSQPn+ikAWbYXBsZXF
QP3EYkDStoTBi+bAQHb2pUALZ4rB8MacQCs76UB8E8nBL3RbQAG1OUC7tKfBC7b+P6EObEAYYJjB
WVAzQLQmhEDXp4zBHr7NQHxVpL+qUq3Bhx/EQHWgyr4yq7XB9jHPQDSyUL/0uaLBHqW8QEgkdj9r
drPBCM7GQAHcCT99cqDB7ireQO/RnEABja7BeJbmQEn7t0C7PLfB11ikQLx+d0A9objBEjS+QMeE
uz+LyKjBuQS9QLq+e0DUKa/BNZCvQEick0DjusHBO4nPQMC8s0Cz2MDBMozKQPHpV0A9mZvBiReC
QEXpY0DuNZnBscizQHCZPEBZ7aXBTFuYQCptikCbMMzBUuaxQBVshkB7jYnBgUi3QAn56kCT9szB
SpeqQHO8dECYzJTBZDmGQKW7Q0DM5qLBJRk2QNH5ckCuNZTBSuvwQB8RU0C3k5nBk47ZQMonz0Bx
J8nBeL6tQHY14EAAONfBmumSQPAP6UCb6MbBMAPUQCHAFMA3CK/B0XbCQB+PQb+Xzb3BOsnWQOuf
v7/lTJzBBpW1QHCI0T/+97nBm+nGQAiFYD8fPpjBHQ3xQIx7n0BjWKfBtfP+QHdV0ECdirbBkGeI
QGHdTkAl3rjBXk93QCqvnkD4vczBhcGtQAdqkUB99NLBTeWOQDgSUUC5bszBdoSTQE+3kEAL7oXB
3oa+QAZvVUAAI4XB7B/JQGfVoEA9MYnB0nXDQGT/BUHd1MzB8odbQJtwMkDblafBct7+P0cxZUAt
/5fB3J80QHXLhUDJ04zBmSHMQEXdn7+9Z67BAZyuQIKy9L5nQrTBgRriQIpFLb8uuKXBsy6nQH37
XT9NdbHB86zaQHTzKT973qLBPc7nQKAxi0DP/rDBMIPwQG32pkA7jLnB3JudQA3FhUDH2bbBkUi9
QG7yuj/6wKjBHti9QMnwdkDhSK/Bw5GmQPFpoECprb/BJvTPQIxoskAAy8DBZYnKQMy8WUBrgJvB
nfeBQBqfYkBfCJnBT+azQAdgO0D9v6XBJuuCQG2dqkCPi8fB0ZmxQN2IhkBja4nB5LjRQCJG+0Be
xcbB+lSqQDEndEBdo5TB/EGGQG5XQkANsaLBo6Q1QI+JcUDvFZTBGQTxQPCuXEA7kZnBacnZQCBG
zkDYA8nB+kWoQE2KAkE28MjBFVXaQBrFAkFKYrzBq+bRQHfSEcCxlLDB/Z6dQG39ar/H6LrBqb74
QNZgor+VOaHBdnKQQJHZuT8V+7XBOHrrQFXLiz8XJJzBqakAQcm6gUDOq6vB6DIIQZSjs0BglLrB
mHx7QDgLckD71bXBwDNjQAJPx0DN2sTB4bWQQKJ+sEDKgc/BiEZZQNZqj0B4+MfBCPuSQGSqj0BM
uoXBh3u/QMnLVkCnBIXBz8fHQAHYoUANIonBJ5/mQOMiB0HVBczBGalbQBHDMEByXqfBilb+P4SE
Y0Dd5pfB5c4zQHYkhUAntozBC+jMQANTo7/nQK7BllmsQKWpDr/ycbPB9v/kQJmIKL8rKKbBdtSj
QN53Rj8ChbDBH2fdQOVuLz+YbaPBt+DdQKSknEAcgq7BwEXmQGwNuEBXKLfB9sSmQA4yckB7+7jB
2+28QKk7uD9sqKjB+xy+QEx6eECJRq/Bi5+wQH77kkAh3sHBauLPQEhvs0DA2MDB1ofKQJpsV0AH
YpvBLgqCQJeIYkCLEpnBJAG0QNV0O0BYx6XBo6yXQNbUjEBsMszBIpGxQH7ChUCRWYnBaIzAQCY1
9UBoZMnBGWKqQGjPckA2lZTBZ1yGQJ/5REAK4qLB2OE1QLCrcEDNEJTBIQnxQFw5WkA9cpnBhIDZ
QORdzkCzOMnBK4DXQOQkCkEPWs7BCKSbQJLO7kAp7M7BoWPTQN4tE8CjerDBq9OZQPWWg78csbnB
xnf9QITbm78cAqLBwcSJQGzEpj/xT7TBJoDwQFJ0kz9IRZ3BysvvQD07oEDELKfB7Rv+QKrf0EDO
XLbBKN2MQCavREBHkbnBc8p1QNUXoUDcEMzBC+OrQD3flUCvCdPBAzKOQAMkVkBt9szBNgCTQEle
j0DFtIXBJuq+QKjTVEAx7YTBPinIQIW4oEB8B4nBdlS5QCO4/kAvHcHB/ORbQEHPNkAFvqfBkKH+
P8g7ZEA+8pfByTU0QDWjg0CLlYzBNrDNQB2Zn7/OL67BOODuQCpU3r4rP6rB2pGkQL2QNL/8t6/B
8O3mQLNPaj/SwKfBNk6cQAt9Iz8tDa3BnHioQCNnbUA8ErnBqj+xQCFOkkC4s8HBvPTdQCDam0DI
W67BYim9QKrNuj9bwajBbpS+QLrAdkBSQK/BAtXnQHuptkB5BLfBVD3QQLvnskAVscDBXmTKQKmG
VUCQSpvBaAGCQCT/Y0BwIpnBXP2zQMOJO0DUxqXBgp8FQWeb10DChrXBUmuxQJh8hkAda4nBBNrO
QHAG+0Co3cfBBlyqQGeXc0DNoJTBhleGQM5qR0CL+aLBMrg1QHrqcUCBJZTBjLzwQMNoVUACKZnB
6l/XQGJzzUA4YcnB9kO9QIJkAkF4Kb7BzBH0QJqDCEGzDcnBpr/TQIU5EsCbCLDBkUAHQSnBWL8+
IqnBHkyLQIcsqb9U8rLB1G8AQWSVxT+NDKXBCGx5QH0uhj/VSK7Bir2QQN+kO0BS8rnBoiOgQL5/
jkD8JcnBkp/uQLYToEAf3abBYwkVQQGXyUBw7bfB1j0CQULV80BMgbrBIWEGQfo04UCFEa3BogGT
QC45kUCv5IXBobW9QNbuVUBk34TBtNPIQHi/oEChHYnBDIK4QC2AAkEYMc7BweRbQIlHO0DB7KfB
bnj+P64QZkDYEpjBouIzQMXjg0CcoYzB

> <OMEGA_E>
DJDVPnjn3T5Ad+Y+ZLzpPjRf8D6AZfE+QDD0Pphf/D4=

> <OMEGA_NBR>
     93635

$$$$
50168771
  -OEChem-04172616093D

 52 55  0     1  0  0  0  0  0999 V2000
    7.9922   -1.4047  -19.9354 C   0  0  0  0  0  0  0  0  0  0  0  0
    8.7937   -2.0216  -19.2666 C   0  0  0  0  0  0  0  0  0  0  0  0
    7.2478    4.3423  -22.1301 C   0  0  0  0  0  0  0  0  0  0  0  0
    5.2148    0.8754  -22.1920 C   0  0  0  0  0  0  0  0  0  0  0  0
    7.5270    5.2096  -23.1975 C   0  0  0  0  0  0  0  0  0  0  0  0
    5.4485   -0.4717  -22.5345 C   0  0  0  0  0  0  0  0  0  0  0  0
    6.8151    0.6832  -20.3641 C   0  0  0  0  0  0  0  0  0  0  0  0
    4.9240    4.1958  -22.8563 C   0  0  0  0  0  0  0  0  0  0  0  0
    7.0541   -0.6555  -20.7097 C   0  0  0  0  0  0  0  0  0  0  0  0
    5.9009    1.4723  -21.1035 C   0  0  0  0  0  0  0  0  0  0  0  0
    5.9312    3.8636  -21.9148 C   0  0  0  0  0  0  0  0  0  0  0  0
    5.2111    5.0294  -23.9564 C   0  0  0  0  0  0  0  0  0  0  0  0
    6.5111    5.5710  -24.1010 C   0  0  0  0  0  0  0  0  0  0  0  0
    6.3693   -1.2405  -21.7957 C   0  0  0  0  0  0  0  0  0  0  0  0
    6.3262    3.4071  -19.4434 C   0  0  0  0  0  0  0  0  0  0  0  0
    4.0595    3.5342  -19.1248 C   0  0  0  0  0  0  0  0  0  0  0  0
   11.2495   -2.4379  -18.6710 C   0  0  0  0  0  0  0  0  0  0  0  0
   10.6710   -3.7576  -19.1980 C   0  0  0  0  0  0  0  0  0  0  0  0
    9.7635   -2.7602  -18.4673 C   0  0  0  0  0  0  0  0  0  0  0  0
    5.6139    2.9367  -20.7251 C   0  0  2  0  0  0  0  0  0  0  0  0
    4.1026    5.3896  -24.9309 C   0  0  0  0  0  0  0  0  0  0  0  0
    5.5541    4.1760  -17.1700 C   0  0  0  0  0  0  0  0  0  0  0  0
    6.5466    7.8557  -24.8384 C   0  0  0  0  0  0  0  0  0  0  0  0
    5.3223    3.8035  -18.5762 N   0  0  0  0  0  0  0  0  0  0  0  0
    4.1894    3.0477  -20.3400 N   0  3  0  0  0  0  0  0  0  0  0  0
    2.8387    3.7577  -18.4987 N   0  0  0  0  0  0  0  0  0  0  0  0
    7.5293    3.4561  -19.2042 O   0  0  0  0  0  0  0  0  0  0  0  0
    6.8078    6.4500  -25.1221 O   0  0  0  0  0  0  0  0  0  0  0  0
    6.5829   -2.5364  -22.1282 F   0  0  0  0  0  0  0  0  0  0  0  0
    5.5927    8.3015  -25.6962 F   0  0  0  0  0  0  0  0  0  0  0  0
    6.1222    8.0835  -23.5598 F   0  0  0  0  0  0  0  0  0  0  0  0
    8.0433    4.0368  -21.4667 H   0  0  0  0  0  0  0  0  0  0  0  0
    4.5073    1.4582  -22.7632 H   0  0  0  0  0  0  0  0  0  0  0  0
    8.5253    5.6010  -23.3258 H   0  0  0  0  0  0  0  0  0  0  0  0
    4.9203   -0.9157  -23.3654 H   0  0  0  0  0  0  0  0  0  0  0  0
    7.3352    1.1175  -19.5231 H   0  0  0  0  0  0  0  0  0  0  0  0
    3.9250    3.8056  -22.7290 H   0  0  0  0  0  0  0  0  0  0  0  0
   11.9362   -2.4426  -17.8116 H   0  0  0  0  0  0  0  0  0  0  0  0
   11.5496   -1.6484  -19.3758 H   0  0  0  0  0  0  0  0  0  0  0  0
   10.5564   -3.9144  -20.2807 H   0  0  0  0  0  0  0  0  0  0  0  0
   10.9431   -4.7086  -18.7166 H   0  0  0  0  0  0  0  0  0  0  0  0
    9.4683   -3.0391  -17.4450 H   0  0  0  0  0  0  0  0  0  0  0  0
    3.5857    6.2953  -24.5807 H   0  0  0  0  0  0  0  0  0  0  0  0
    4.5347    5.5755  -25.9252 H   0  0  0  0  0  0  0  0  0  0  0  0
    3.3845    4.5586  -24.9928 H   0  0  0  0  0  0  0  0  0  0  0  0
    4.5980    4.4506  -16.7005 H   0  0  0  0  0  0  0  0  0  0  0  0
    5.9947    3.3232  -16.6328 H   0  0  0  0  0  0  0  0  0  0  0  0
    6.2431    5.0323  -17.1265 H   0  0  0  0  0  0  0  0  0  0  0  0
    7.4787    8.4134  -25.0125 H   0  0  0  0  0  0  0  0  0  0  0  0
    3.4239    2.7865  -20.9280 H   0  0  0  0  0  0  0  0  0  0  0  0
    1.9858    3.5454  -18.9758 H   0  0  0  0  0  0  0  0  0  0  0  0
    2.8132    4.1308  -17.5713 H   0  0  0  0  0  0  0  0  0  0  0  0
  1  2  3  0  0  0  0
  1  9  1  0  0  0  0
  2 19  1  0  0  0  0
  3  5  2  0  0  0  0
  3 11  1  0  0  0  0
  4  6  2  0  0  0  0
  4 10  1  0  0  0  0
  5 13  1  0  0  0  0
  6 14  1  0  0  0  0
  7  9  1  0  0  0  0
  7 10  2  0  0  0  0
  8 11  2  0  0  0  0
  8 12  1  0  0  0  0
  9 14  2  0  0  0  0
 10 20  1  0  0  0  0
 11 20  1  0  0  0  0
 12 13  2  0  0  0  0
 12 21  1  0  0  0  0
 13 28  1  0  0  0  0
 14 29  1  0  0  0  0
 15 20  1  0  0  0  0
 15 24  1  0  0  0  0
 15 27  2  0  0  0  0
 16 24  1  0  0  0  0
 16 25  2  0  0  0  0
 16 26  1  0  0  0  0
 17 18  1  0  0  0  0
 17 19  1  0  0  0  0
 18 19  1  0  0  0  0
 20 25  1  0  0  0  0
 22 24  1  0  0  0  0
 23 28  1  0  0  0  0
 23 30  1  0  0  0  0
 23 31  1  0  0  0  0
  3 32  1  0  0  0  0
  4 33  1  0  0  0  0
  5 34  1  0  0  0  0
  6 35  1  0  0  0  0
  7 36  1  0  0  0  0
  8 37  1  0  0  0  0
 17 38  1  0  0  0  0
 17 39  1  0  0  0  0
 18 40  1  0  0  0  0
 18 41  1  0  0  0  0
 19 42  1  0  0  0  0
 21 43  1  0  0  0  0
 21 44  1  0  0  0  0
 21 45  1  0  0  0  0
 22 46  1  0  0  0  0
 22 47  1  0  0  0  0
 22 48  1  0  0  0  0
 23 49  1  0  0  0  0
 25 50  1  0  0  0  0
 26 51  1  0  0  0  0
 26 52  1  0  0  0  0
M  CHG  1  25   1
M  END
> <OMEGA_C>
9L//QGXMs7+le5/B3LIMQflhAcDlIZrBku3nQOnzikB6CrHBeN+mQCYcYD8+ibHBzdzwQEW1pkCT
lLnBvlmuQOSE8b7ARrTBNBXaQC/oLj+b6aLBBZGdQExEhkDI2bbB+LrhQLjMJ7+CraXBZtS8QGhz
vD/o06jBf8y9QI1Ed0CaUa/BpcGmQIjwoEChpr/BA1vQQAJGskDezsDBo9HLQF/Hnr+AXa7BJnDK
QJINWkD8i5vBu+eBQNQwYkCH/5jBHv4zQQ8GHMAgXpXBc7wqQUl9cMCMlZnBTjccQdmnMMDzvJPB
DaWzQKryO0DozKXBQUiDQK53rECAcsfBJruxQLChhUAqXInBFH7RQORh+0AftcbB6k+qQOFsc0D9
m5TBpA+GQNQNQ0BDuKLB0aw1QFF+cEBh/ZPB5+/wQEAwXUBFopnBs9nZQLxmzkAA+sjBZqfSQPBT
IsCZBrHBmveyQOPSBEHVkc3BVenDQAFWAUF2erzBh7EAQaEtgUDJu6vBsDuQQLGkuj8YG7bBxWcI
QY07s0A7m7rBMnOdQM9rar9d7LrB17nqQJMKjz83L5zB6jJ7QKGPc0AQ1bXB0fo+QdlSHMA9fo7B
+Mo4QR3/0r+PAZvB5+YoQdOFesD1PqLBvxYvQY6slsCju5XBM34XQb6AQsBHj4vB13xlQOhyyUA8
pcTBlRyRQOdqskDaZs/BK5xYQPXfkUAt8cfB0yKTQGxrjkCOmoXBUtS/QN2uVEDxD4XB38fHQMoI
oUAFA4nBNFHvQEWdBkGsGcjBXCFbQJlVMkCFbKfBSjD+P0LoYkB8zpfBLgw0QCsvhEDvkYzBkfu1
QBpH7r9GzJvBb/KuQNBuLcDSF5XBjSzmQOf9j0CmgLDB71bOQEgEkj9GBbPB1UruQH4Aq0DRPrnB
j5vWQMxaVb4+eLXBRBG2QED4+T5SNaHB4WudQD0shUBd5LbBo1i+QAImXL8erKPBZvy9QMqOwD83
0KjB6BG9QEHUe0AOC6/BpHqlQBcxn0D22L/BAybOQIvbs0BS28DBc7POQHANm78t063BFXLKQP8M
WEB2hZvBk+iBQCwLZEDEGZnBn53FQITBc8C1e4PBnOvGQEh3nMBhMIzBgNumQMDhbsB2B43BjL+z
QFiFPUCy06XBD9KBQK2WokCtIMjBSq+xQH2OhkD8eYnBkfu5QHEl7EAXJs3BFm6qQKHxdEA5t5TB
tBmGQLKlQ0B/wKLBgIE1QG69ckA+JZTBArjwQMurUkCecpnBHM3ZQMZuzkCQQsnBDujWQPVXIMC3
TbDB1kPJQOlLCkF5lMzBFT+xQFaS4kBDidfBaGn/QAv7iEC+3arB4nTUQDbP8z/L7rjBN8sGQQw0
uUBiKLrB7w/jQKwW874BPr3Bp4qpQOHHPz9VbpnByrp8QOPebEBiALbBZ025QOiggcC48HbBIQLg
QLmFRcC7xYLBdj/iQHklnsA+uJHBvIq7QIUDvcDfaorBQEaFQB8Nf8AOVovBftxZQG/GvUCBIsbB
QN6PQCWMp0DHGdDBgd1dQKHihEDlH8jBwEiTQM3ZkEAF3YXB2U2+QEK9VUBODYXBEubIQD/6oECS
HYnBHuKcQBT96EC+QsjBV11bQCCKMUCYZqfB+Bn+P8V0ZEBV85fB3aQzQNnLhUDnxozBykUAQSRg
rL+u6Z/B82INQVTO8r9wTprB4ImeQPqYgkDNDLfB24amQHCsZD94j7HBVyCnQH1wnUAgwr/BMD2x
QPCozL4DELXBFuLWQJ/DJj9acqLBiB3nQJQbjUDWhrDB8AbiQGYjIL+OBabBwzq7QH7ouj/Yi6jB
6wK+QK2NdUC1Kq/BjIPvQLlDqUDRELnBjHXPQEnfsUBcvsDBKnbQQBr+kb97ja/B+2/KQPlYWEB7
VJvBuguCQL+NYUDt+ZjBV5g0QdncBMBhu5TBYYktQSJJXcB9wpjBsUIdQViIIcAmc5PBpZOzQF0Y
O0CJmKXBXVkNQYB0v0CGvLnBNSexQLqQiECRl4nBK7a2QFRo2UBbJ9DBLiyqQOWOaUBbGpTBPT+G
QFwgQ0Chr6LB6Qc2QK5rdECaR5TBvOnwQHRzW0CwYZnBXO7YQGySzkAL5MjBUZvdQIkZFcAqhbPB
O0jBQJ7j/UAeXdXBcxyxQAF4uUABatfBpfl+QI9fZ0D7WLbB1luOQEe2uj/zw7XBcNqOQIGfokA/
xcXBo4OhQL2sUr+r+LvB2YrjQLuPgj+s95rBRioAQchihUA48arBxAE/QVc9/7/Vqo3BibM4QQhk
pL9+fJrB/5csQRH/acD6ZqHBOuYyQdy1i8BRlZTBiE0YQRj7MsDtSovBjWoYQYnSq0AEgb7BsWQL
Qdzr3kC7jr3Bo94TQZ2yw0C7obHBWFaSQCvji0C8a4XBcLHGQBaTaEC+0oTB1Ku/QAtZqEAmqIrB
aimZQM0r3kDKhcvB76xbQKV3M0CBeafBSXj/P0rsakBWWJjB4fozQL3EhUD90ozB

> <OMEGA_E>
uOkQP/CmDz8oTQc/

> <OMEGA_NBR>
     96551

$$$$
50168796
  -OEChem-04172616093D

 52 55  0     1  0  0  0  0  0999 V2000
    6.8900   -1.6862  -19.3297 C   0  0  0  0  0  0  0  0  0  0  0  0
    7.2197   -2.4451  -18.4444 C   0  0  0  0  0  0  0  0  0  0  0  0
    6.1015   -0.3808  -22.7274 C   0  0  0  0  0  0  0  0  0  0  0  0
    6.4416   -1.2650  -21.6964 C   0  0  0  0  0  0  0  0  0  0  0  0
    5.8596    0.9719  -22.4416 C   0  0  0  0  0  0  0  0  0  0  0  0
    6.9433    4.8987  -21.8197 C   0  0  0  0  0  0  0  0  0  0  0  0
    7.2093    5.7426  -22.9085 C   0  0  0  0  0  0  0  0  0  0  0  0
    6.2376    0.5517  -20.0752 C   0  0  0  0  0  0  0  0  0  0  0  0
    5.1253    3.8761  -23.0720 C   0  0  0  0  0  0  0  0  0  0  0  0
    6.5173   -0.7946  -20.3740 C   0  0  0  0  0  0  0  0  0  0  0  0
    5.9355    1.4749  -21.1072 C   0  0  0  0  0  0  0  0  0  0  0  0
    5.8997    3.9399  -21.8914 C   0  0  0  0  0  0  0  0  0  0  0  0
    5.4827    4.6098  -24.2141 C   0  0  0  0  0  0  0  0  0  0  0  0
    6.4869    5.6090  -24.1084 C   0  0  0  0  0  0  0  0  0  0  0  0
    6.3254    3.3779  -19.4477 C   0  0  0  0  0  0  0  0  0  0  0  0
    4.0615    3.5619  -19.1454 C   0  0  0  0  0  0  0  0  0  0  0  0
    8.1475   -2.7320  -16.0788 C   0  0  0  0  0  0  0  0  0  0  0  0
    9.1225   -3.4211  -17.0427 C   0  0  0  0  0  0  0  0  0  0  0  0
    7.6281   -3.3526  -17.3814 C   0  0  0  0  0  0  0  0  0  0  0  0
    5.6114    2.9531  -20.7392 C   0  0  2  0  0  0  0  0  0  0  0  0
    4.7583    4.3163  -25.5205 C   0  0  0  0  0  0  0  0  0  0  0  0
    5.5584    4.2021  -17.1900 C   0  0  0  0  0  0  0  0  0  0  0  0
    5.7288    7.3297  -25.6279 C   0  0  0  0  0  0  0  0  0  0  0  0
    5.3277    3.8253  -18.5954 N   0  0  0  0  0  0  0  0  0  0  0  0
    4.1888    3.0616  -20.3580 N   0  3  0  0  0  0  0  0  0  0  0  0
    2.8422    3.7956  -18.5185 N   0  0  0  0  0  0  0  0  0  0  0  0
    7.5247    3.3020  -19.1955 O   0  0  0  0  0  0  0  0  0  0  0  0
    6.8004    6.4623  -25.1491 O   0  0  0  0  0  0  0  0  0  0  0  0
    5.4294    6.9876  -26.9079 F   0  0  0  0  0  0  0  0  0  0  0  0
    4.5928    7.2740  -24.8697 F   0  0  0  0  0  0  0  0  0  0  0  0
    6.0254   -0.7398  -23.7432 H   0  0  0  0  0  0  0  0  0  0  0  0
    6.6446   -2.3028  -21.9160 H   0  0  0  0  0  0  0  0  0  0  0  0
    5.6109    1.6464  -23.2476 H   0  0  0  0  0  0  0  0  0  0  0  0
    7.5368    4.9794  -20.9211 H   0  0  0  0  0  0  0  0  0  0  0  0
    7.9742    6.5005  -22.8249 H   0  0  0  0  0  0  0  0  0  0  0  0
    6.2533    0.8852  -19.0481 H   0  0  0  0  0  0  0  0  0  0  0  0
    4.2440    3.2523  -23.0959 H   0  0  0  0  0  0  0  0  0  0  0  0
    7.9068   -3.1994  -15.1126 H   0  0  0  0  0  0  0  0  0  0  0  0
    8.1707   -1.6385  -15.9615 H   0  0  0  0  0  0  0  0  0  0  0  0
    9.8446   -2.8216  -17.6166 H   0  0  0  0  0  0  0  0  0  0  0  0
    9.5807   -4.3825  -16.7677 H   0  0  0  0  0  0  0  0  0  0  0  0
    7.0678   -4.2933  -17.2757 H   0  0  0  0  0  0  0  0  0  0  0  0
    3.8651    4.9539  -25.5964 H   0  0  0  0  0  0  0  0  0  0  0  0
    5.4298    4.5239  -26.3667 H   0  0  0  0  0  0  0  0  0  0  0  0
    4.4566    3.2587  -25.5428 H   0  0  0  0  0  0  0  0  0  0  0  0
    4.6092    4.5211  -16.7348 H   0  0  0  0  0  0  0  0  0  0  0  0
    5.9566    3.3372  -16.6392 H   0  0  0  0  0  0  0  0  0  0  0  0
    6.2821    5.0294  -17.1464 H   0  0  0  0  0  0  0  0  0  0  0  0
    6.1097    8.3616  -25.6166 H   0  0  0  0  0  0  0  0  0  0  0  0
    3.4236    2.7912  -20.9423 H   0  0  0  0  0  0  0  0  0  0  0  0
    1.9876    3.5809  -18.9913 H   0  0  0  0  0  0  0  0  0  0  0  0
    2.8201    4.1784  -17.5949 H   0  0  0  0  0  0  0  0  0  0  0  0
  1  2  3  0  0  0  0
  1 10  1  0  0  0  0
  2 19  1  0  0  0  0
  3  4  1  0  0  0  0
  3  5  2  0  0  0  0
  4 10  2  0  0  0  0
  5 11  1  0  0  0  0
  6  7  2  0  0  0  0
  6 12  1  0  0  0  0
  7 14  1  0  0  0  0
  8 10  1  0  0  0  0
  8 11  2  0  0  0  0
  9 12  2  0  0  0  0
  9 13  1  0  0  0  0
 11 20  1  0  0  0  0
 12 20  1  0  0  0  0
 13 14  2  0  0  0  0
 13 21  1  0  0  0  0
 14 28  1  0  0  0  0
 15 20  1  0  0  0  0
 15 24  1  0  0  0  0
 15 27  2  0  0  0  0
 16 24  1  0  0  0  0
 16 25  2  0  0  0  0
 16 26  1  0  0  0  0
 17 18  1  0  0  0  0
 17 19  1  0  0  0  0
 18 19  1  0  0  0  0
 20 25  1  0  0  0  0
 22 24  1  0  0  0  0
 23 28  1  0  0  0  0
 23 29  1  0  0  0  0
 23 30  1  0  0  0  0
  3 31  1  0  0  0  0
  4 32  1  0  0  0  0
  5 33  1  0  0  0  0
  6 34  1  0  0  0  0
  7 35  1  0  0  0  0
  8 36  1  0  0  0  0
  9 37  1  0  0  0  0
 17 38  1  0  0  0  0
 17 39  1  0  0  0  0
 18 40  1  0  0  0  0
 18 41  1  0  0  0  0
 19 42  1  0  0  0  0
 21 43  1  0  0  0  0
 21 44  1  0  0  0  0
 21 45  1  0  0  0  0
 22 46  1  0  0  0  0
 22 47  1  0  0  0  0
 22 48  1  0  0  0  0
 23 49  1  0  0  0  0
 25 50  1  0  0  0  0
 26 51  1  0  0  0  0
 26 52  1  0  0  0  0
M  CHG  1  25   1
M  END
> <OMEGA_C>
r3rcQBDU179Ao5rBIwjnQOx8HMAhjpPBvT/DQHT4wr7L0bXBNSHOQBjsob9Gkq3B24G7QNjPeD94
iLPBoC/eQGDCnEDZjq7BsLLmQKvDt0CWRLfBNJrHQMA+DT/rmaDBfQKkQJYReECJk7jBW43QQAJu
S7/r/aLBpO+9QJ3IvD+H26jB9cm8QLAnfECnIa/BAXKvQOSDk0B7tsHB1JTPQI98s0AH3sDBkmnK
QBEwWED3lJvB1veBQPj2Y0DRKZnBTFwCQWDZLsBcoYDBu/URQc7yWsCIV4jBxBn0QFKRVsAJDYvB
OZCzQOL/PEDk6aXByEOYQAcfikAMKszBkd6xQOV3hkAPhYnBu1K3QDWN6kABBs3BqHyqQDbRdEBh
w5TBSAqGQM3wQ0Aj3aLBXuY1QMjrckDoJZTBCcrwQNVTU0B5kJnBjJzZQIbLzkBkMcnBi72tQLya
30BuQ9fBZPiSQOzE6EA/9cbB0s/AQA1lPb8B8r3BMqDUQNVgE8AJVK/BZ4yzQKa90j8e+7nBtC3x
QNdWn0BWXqfB5Cz/QN4D0EBsmbbB+xrIQOaeYj9rYpjBdM6HQEUmUEBuxLjBswT9QKrDTMAZzXHB
ILsCQZa70b8qYn/BU4MdQUOVNMC17ozBjUoZQZE9jMAsJIbBiCviQKJiicCaNIrBAV53QAiGnkCD
xczB+8CtQMbDkEDt7tLBr5yOQFyOUECOV8zBbH6TQAqtkEDV4IXBzJy+QDOVVUAPHYXB1wbJQAvx
oEDFK4nBsYLDQEbJBUHS7szBMRxbQIajMkDaiafBpWn+P7gtZUBH7pfBKXw0QGO1hUBmwozBXOQA
QW3ps79gzJ/By6oNQQbCAcCtdZrBzuGsQLCZC7+1qbPBqZfMQNfFor+oO67BKTCkQAg2ST9WvrDB
bhTeQDSPnEA1h67BWYTmQBnGt0CSNLfBlyXcQE7VLz/7RKPB8QenQBjNcUBi+bjBZYXjQPi4KL+J
46XBe6q8QCs8uT8fvKjB+Sm+QBumeECRRK/BZVKxQBf8kUCb7sHBDirQQOYOs0BN5cDBwYfKQOak
V0DXaZvBaAyCQOhSYkBYEZnB8rwsQaC6+r9MHo3BaLw0QcDnKsBWO5fBpRkdQfARMcDnBpTBuuSz
QMfPO0AJzqXBu7SZQDF7iUDTX8zBIamxQG5IhUDLU4nBLeW2QO+q6kAuyMzBZGmqQBx3ckCgk5TB
bk6GQNBgRUBC6KLBWfE1QIAacEA7CpTB3g7xQL5hWkDbfZnBgJzZQGYSz0BHH8nB7j6tQD1i4EA/
ENfBJrOSQNns50D/rsbBryWbQIccgb/nFbrBu1TTQLbREsAlc7DB0HSKQIFwqD9vp7TBTA7wQKcp
oEA/NKfBgWX+QLmQ0EDbbrbBvLnuQG09kz+F/5zB7taMQKXmRECMf7nBvG4xQYQmFcDoLIXBCbIr
QWRrXL857YzBDm45QadKBcBfSp7BwSo/QVJWY8AOipbBmu4XQQ/hbsArs5DB2+N4QJ4DnUDaqMzB
13uuQG3ikUDwKNPBhCKRQHrJTkBQ2czBIxqTQK21jkBtpoXBmh2/QKOwU0DI9YTBhDDIQJhKoECB
+IjBO6bCQLnqBUG2i8zBjr5bQJ+qN0DLx6fBRLb+P0fgY0A17ZfBb080QCEfg0BjiYzBsa+WQA1a
+L95tKHBYaaBQHxGNMBsi53B/hPoQFn7Nb7JkbLBgvXPQK0Vm7844q3B6UTfQPhLlT+8A7DBxOHl
QEjIkEDJYLDBqujtQFa8q0DsIrnB52ymQGTz4T6R86PBvRGeQAaCg0C1H7fBTjSvQJBNZr9sjabB
RLW9QEcqvz/Cz6jB2lm9QKtXekDmIq/BzsilQLAinkAy/b/BFwTOQDO4s0Dr3sDBimvKQFzLVkB0
fJvBSOmBQBM4ZEAWFpnBcJIcQIG+X8Dug47BQVRtQNVzi8BkaY3BjsRQQJyCd8ACe5jBtMOzQCkT
PUBsz6XB2TmCQNBLoUAnTcjBkrWxQM0ihkB4cYnBrmm5QKLO60DDK83BEXiqQHg1dEAqr5TBYgyG
QPpoRkAi26LBOII1QJzMcUCvFZTBJrXwQDiDUUBFbpnBo4LZQDt4zkCuQMnBv0DIQIY1CkG9lszB
3fGwQIEn4kBmkdfBdbIAQXmR1L7GIrjB04nWQCVzD8DU5q/BAC7yQI8l+j9bj7PBqMH+QM/6ikDW
jqrBEXkGQWySukAK97nBxbWNQLGdKz9vMp7B5BN/QHggZ0AFarbBqC26Pz5efMBMOY3BWoMcQARm
HcB2kovBWZWTQBQbfMBBrYnBLb5nQKeJrcAYVIvBzSE0QDYVlMDVvJ3BGohZQLLzu0CCPcbBZVOQ
QHX6pkAKPdDBE9tfQOM6g0APbcjBs1qTQJipkEAZ2YXBlBO+QBu2VEDCAoXBvB7JQDdhoEC9EYnB
FUecQCFU6EBST8jB3hxbQEPmN0CyrKfBtRv+P1uuZEB09JfBg6MzQJ9XhEAInozBtE+UQMAi8L8r
a6PB4B98QIY9LsAETJ/B8+roQO48zL1p+rLBTXfOQKM1kb8EN6/BdLThQNvDnD9no6/BiwSeQLRj
gkATDrfBbxWmQDlSnUAIzL/BlnqnQGJU7j48MqTBuuvkQF39kUDy76/BxEauQNOhWL8Ps6fBs2O/
QJAfwz9Ym6jB4fW8QJWgekAx5K7BKpLtQCsprEAkz7jBigTOQC2QskAzvsDB9XTKQGLOVkBCQZvB
Yw6CQD/wZUBgNJnB6uEXQDvbUMDIwo/B9ptmQBWGhcARxo7BvvhHQMurbcAz2JnBGEW0QEmEPUC7
lKXBGWsMQUvuwUAusbnBLaOwQKIAhkDoYonBs9q0QFi530C6Bs/BflWqQDAhdkAOsZTBKpeGQB0Z
RUBxxqLB5og1QFo0dUCeaZTBVjTwQNx6TECo5ZjBRR/YQDwGzUBpRcnBnYXDQEJtAUE6N9TBDD2l
QNGmw0CgWtbBjmIBQfF3pL51brjBH9XSQK48CcCEE7LBn1/2QCwMAUBGcLLBhvh/QNzQYkDQjLbB
68qNQBbpoUC01cXBYNqPQKqYKj9DGZ7B6RH9QKWhjUB52qnBM3OvP1tgasAyC47BoHIbQM3DDcDj
IY3BME2RQHuqccDLb4vBWuFeQIQjp8AbWYzBquknQHYyj8DYxZ7BsYwXQWgNrUB9E77BqKEKQYll
4EAvAr7BhMESQeEiyEBeobHBBFeSQH2rkUB6/IXBdSq7QPTRUkDc+oTBEiXJQGYgn0AWt4jBe6mb
QJGy6EDjTcnBMMpcQBCQM0Cfh6fBD+X+PzHyZkDXTJjBufUyQFI8h0DIEY3BDBP5QMt3vL/BRJ/B
djUHQbaRCsA+ZpnB4bq1QMx9o77I/bXBplvRQD2ijr/r2a/B46qqQGZ+dz87a7LBnCSdQII2hUCL
iLbBqAmmQG94n0DdU7/BphbUQP94Hz/aKaLBuibnQHFli0Awr7DB8njfQAI6Jr+22aXBx9G7QBVJ
vT+9vqjBpUy9QErydkD09q7BnN3vQHU+p0ACQrnBhlHPQLeTsUCFqsDBrzPKQFTNV0DIRJvBrOSB
QOBDYUBf45jBJJsVQXQyH8AtiobBBu4oQfzbGMC8FI7BOMoTQQyAPsD4IJLBCzqzQA4wO0AdhqXB
mhMOQe7TukBrVbrBqhixQFc+iUCtoYnBuSy3QIAa2UAFH9DB7gWqQKRLaECj+pPB1PGFQGDhQEAs
gaLBm/g1QFDpdkB2UJTBgbzwQJRbW0BQa5nBR0rZQK6uzUC45cjBCVjDQCUH/EDQwtXBnmOvQMJJ
uECGANfBVwCpQOzTMb8Tcb3BlLXbQKjuBMAbyrLB9umUQEMVyT8NFLfBa7l6QN2BcEAlhbXBBEyN
QCX+pUC9IsXBneDdQLincj+tS5rBpFgAQf8OgkBAWqvBRLEVQQGgTcB/2X/BaSkNQYuoyb9yA4TB
XFYuQePhs78n9ZDBON42Qa28QsB13ozBJHUTQRAngsAiQpPBWS0YQTLypUA+Tb/Bx8YMQSV/2kCw
Hr7Bvk8VQas7vkBcW7LBf3ySQIUEjECdV4XBr5zHQN1WbEB+1YTBdIC+QKJZqUBY94rBIkOaQNM+
4EAZbsvBjBRbQCSSLkA/JafBkVX/PxcHbkBOZpjBYhw0QJK1h0B/7YzB

> <OMEGA_E>
QBcQP3LlDj9Uvw0//GYKP6JtBj8=

> <OMEGA_NBR>
    101215

$$$$
50168798
  -OEChem-04172616093D

 48 50  0     1  0  0  0  0  0999 V2000
    6.8968   -1.6761  -19.3179 C   0  0  0  0  0  0  0  0  0  0  0  0
    7.2334   -2.4237  -18.4247 C   0  0  0  0  0  0  0  0  0  0  0  0
    6.9444    4.9012  -21.8195 C   0  0  0  0  0  0  0  0  0  0  0  0
    5.8593    0.9790  -22.4397 C   0  0  0  0  0  0  0  0  0  0  0  0
    7.2104    5.7445  -22.9088 C   0  0  0  0  0  0  0  0  0  0  0  0
    6.0966   -0.3723  -22.7273 C   0  0  0  0  0  0  0  0  0  0  0  0
    6.2406    0.5551  -20.0747 C   0  0  0  0  0  0  0  0  0  0  0  0
    5.1244    3.8803  -23.0702 C   0  0  0  0  0  0  0  0  0  0  0  0
    6.5183   -0.7925  -20.3722 C   0  0  0  0  0  0  0  0  0  0  0  0
    5.9373    1.4793  -21.1056 C   0  0  0  0  0  0  0  0  0  0  0  0
    5.8997    3.9436  -21.8901 C   0  0  0  0  0  0  0  0  0  0  0  0
    5.4829    4.6118  -24.2133 C   0  0  0  0  0  0  0  0  0  0  0  0
    6.4877    5.6104  -24.1085 C   0  0  0  0  0  0  0  0  0  0  0  0
    6.4354   -1.2606  -21.6997 C   0  0  0  0  0  0  0  0  0  0  0  0
    6.3261    3.3814  -19.4464 C   0  0  0  0  0  0  0  0  0  0  0  0
    4.0620    3.5625  -19.1437 C   0  0  0  0  0  0  0  0  0  0  0  0
    5.6124    2.9566  -20.7375 C   0  0  2  0  0  0  0  0  0  0  0  0
    4.7595    4.3165  -25.5199 C   0  0  0  0  0  0  0  0  0  0  0  0
    5.5581    4.2021  -17.1876 C   0  0  0  0  0  0  0  0  0  0  0  0
    7.6491   -3.3161  -17.3514 C   0  0  0  0  0  0  0  0  0  0  0  0
    5.7294    7.3299  -25.6292 C   0  0  0  0  0  0  0  0  0  0  0  0
    5.3279    3.8265  -18.5935 N   0  0  0  0  0  0  0  0  0  0  0  0
    4.1898    3.0632  -20.3565 N   0  3  0  0  0  0  0  0  0  0  0  0
    2.8424    3.7946  -18.5167 N   0  0  0  0  0  0  0  0  0  0  0  0
    7.5255    3.3060  -19.1944 O   0  0  0  0  0  0  0  0  0  0  0  0
    6.8010    6.4629  -25.1499 O   0  0  0  0  0  0  0  0  0  0  0  0
    6.6801   -2.5580  -21.9995 F   0  0  0  0  0  0  0  0  0  0  0  0
    8.6401   -2.7243  -16.6352 F   0  0  0  0  0  0  0  0  0  0  0  0
    5.4301    6.9874  -26.9091 F   0  0  0  0  0  0  0  0  0  0  0  0
    4.5931    7.2743  -24.8712 F   0  0  0  0  0  0  0  0  0  0  0  0
    7.5387    4.9815  -20.9214 H   0  0  0  0  0  0  0  0  0  0  0  0
    5.6123    1.6555  -23.2445 H   0  0  0  0  0  0  0  0  0  0  0  0
    7.9756    6.5021  -22.8258 H   0  0  0  0  0  0  0  0  0  0  0  0
    6.0179   -0.7288  -23.7437 H   0  0  0  0  0  0  0  0  0  0  0  0
    6.2590    0.8890  -19.0478 H   0  0  0  0  0  0  0  0  0  0  0  0
    4.2414    3.2588  -23.0927 H   0  0  0  0  0  0  0  0  0  0  0  0
    3.8668    4.9545  -25.5977 H   0  0  0  0  0  0  0  0  0  0  0  0
    5.4319    4.5223  -26.3658 H   0  0  0  0  0  0  0  0  0  0  0  0
    4.4572    3.2591  -25.5406 H   0  0  0  0  0  0  0  0  0  0  0  0
    4.6085    4.5194  -16.7321 H   0  0  0  0  0  0  0  0  0  0  0  0
    5.9574    3.3370  -16.6378 H   0  0  0  0  0  0  0  0  0  0  0  0
    6.2808    5.0302  -17.1430 H   0  0  0  0  0  0  0  0  0  0  0  0
    6.7927   -3.5228  -16.6927 H   0  0  0  0  0  0  0  0  0  0  0  0
    8.0182   -4.2595  -17.7799 H   0  0  0  0  0  0  0  0  0  0  0  0
    6.1100    8.3619  -25.6181 H   0  0  0  0  0  0  0  0  0  0  0  0
    3.4250    2.7924  -20.9412 H   0  0  0  0  0  0  0  0  0  0  0  0
    1.9880    3.5794  -18.9898 H   0  0  0  0  0  0  0  0  0  0  0  0
    2.8199    4.1766  -17.5928 H   0  0  0  0  0  0  0  0  0  0  0  0
  1  2  3  0  0  0  0
  1  9  1  0  0  0  0
  2 20  1  0  0  0  0
  3  5  2  0  0  0  0
  3 11  1  0  0  0  0
  4  6  2  0  0  0  0
  4 10  1  0  0  0  0
  5 13  1  0  0  0  0
  6 14  1  0  0  0  0
  7  9  1  0  0  0  0
  7 10  2  0  0  0  0
  8 11  2  0  0  0  0
  8 12  1  0  0  0  0
  9 14  2  0  0  0  0
 10 17  1  0  0  0  0
 11 17  1  0  0  0  0
 12 13  2  0  0  0  0
 12 18  1  0  0  0  0
 13 26  1  0  0  0  0
 14 27  1  0  0  0  0
 15 17  1  0  0  0  0
 15 22  1  0  0  0  0
 15 25  2  0  0  0  0
 16 22  1  0  0  0  0
 16 23  2  0  0  0  0
 16 24  1  0  0  0  0
 17 23  1  0  0  0  0
 19 22  1  0  0  0  0
 20 28  1  0  0  0  0
 21 26  1  0  0  0  0
 21 29  1  0  0  0  0
 21 30  1  0  0  0  0
  3 31  1  0  0  0  0
  4 32  1  0  0  0  0
  5 33  1  0  0  0  0
  6 34  1  0  0  0  0
  7 35  1  0  0  0  0
  8 36  1  0  0  0  0
 18 37  1  0  0  0  0
 18 38  1  0  0  0  0
 18 39  1  0  0  0  0
 19 40  1  0  0  0  0
 19 41  1  0  0  0  0
 19 42  1  0  0  0  0
 20 43  1  0  0  0  0
 20 44  1  0  0  0  0
 21 45  1  0  0  0  0
 23 46  1  0  0  0  0
 24 47  1  0  0  0  0
 24 48  1  0  0  0  0
M  CHG  1  23   1
M  END
> <OMEGA_C>
cLLcQKiL1r8fi5rB0HfnQLgeG8DHZZPBnDjeQNbWnEBsjq7BWH+7QMGfej9yhLPBuLvmQKrSt0A/
RbfBQhfDQKabvr5z0bXBQ7PHQL8YDj/rmKDB3fqjQPZWeEC3j7jB1pXQQKHjSr9H+qLBHf69QENZ
vT8z2KjBrsq8QLpjfEDYHq/BN3SvQASUk0DStMHBT5vPQCGIs0BD3sDBte7NQCpaob/qmK3Bv2/K
QBppWEAtkpvBhPuBQIT/Y0BSJpnBHJmzQEk5PUBr5qXB402YQOggikDOKMzBNNyxQEp3hkBAgInB
VMX0QLY6VMCZz4rBAFe3QNKO6kCOCM3Bh36qQAbmdECAv5TBdBKGQAwLREAs2qLB4ek1QGPackA3
IpTB/dDwQDCVU0A1jpnBIqLZQHDQzkADM8nBKsPVQP21I8AT/6/BvD0KQbdbLsD4FIXBmMOtQG2Y
30DjRdfB1/qSQNbG6EBG+MbBVz3xQK5on0DzXqfBOJizQP3m0z/E9LnB9Tf/QFQR0EBEm7bBeJLA
QNqTOr8O873BvEnIQNSUYz/LYZjBhLmHQJKQUEDyvbjB73l3QHiLnkAZyMzBYtKtQJe2kEAo7dLB
fKGOQKaUUEA/U8zBtXiTQIuekEBY24XB+KK+QJKRVUBFGoXBH/zIQE73oEDwJInBmF3ZQL11YcCu
ioXBpEoAQS1OiMAxPY7B+ITDQHbKBUH38czBgjJbQDu3MkB9h6fB/nf+P34VZUAG65fBFHk0QMym
hUAevozB+P8AQRydsr8Gup/Bc+ANQeeIAMBJYJrBnR/eQOqQnECFia7BDyCkQAIiSj+CurDB6JDm
QNvHt0B/NrfBy8isQPV7Cr9lpbPBbxncQARtMD+IQqPBfQGnQOL1cUAL+rjBl4LjQMA9KL/o26XB
F6G8QHqNuT88uqjBVCq+QHS/eEDgRa/BP06xQMAPkkBG78HBTi7QQJ8as0A45sDBXn3MQJNzor89
Oa7Bp4bKQIrFV0C6apvBOQuCQPJVYkBbEJnB1+GzQIz1O0BgzqXBBqqZQE2YiUAfYMzBMq6xQGcu
hUBnUYnBEmsdQYYBL8DM6pPBRe22QOfE6kBIxczB7GiqQNBvckBdkpTBHUyGQAyMRUDs6KLBu+41
QBgKcECbCJTBKA7xQLR+WkABf5nBpaDZQGkgz0CgH8nBO7HTQBL+I8Cv4bDB42kvQWX4/b/K3ZLB
qT2tQOyH4ECADdfBcL6SQDgK6EDTqsbB9CDwQLgioEBxN6fBFWWKQGf4qD+LorTB2Xn+QD+L0EBW
cbbB4AWbQMt1gL9HEbrBLqzuQBypkz/+/ZzBJ8qMQMAdRUCYf7nBVdh4QGQonUADqMzBjnCuQFr8
kUCXKdPByw6RQHMIT0AV2szBMiCTQEOPjkCLoYXB0ym/QKduU0CE94TBoTHIQE8zoECL84jBt5sW
QXfkO8DQ9ovBfGUhQQHta8CH2pfBn7bCQCj2BUFrh8zBtblbQCb0N0DAyafBCLL+P1jgY0B/7JfB
1Us0QLgHg0BehozBmTm3QFfB7b8zf5vBl7ywQEa4LMAGspTBDD2dQNVShkDm/7bBatHNQN/fjz/I
BrPBdWemQB5foUDdsL/B6l/WQGb/Zr6DYbXBxGS2QAv4+T4QGqHBhqzmQJBTjkDoqrDBAfS+QD+W
XL81eaPBBsO9QA2Zvz8B0KjBL/28QJn3ekA5Nq/BWvzvQEpTqUABXLnBrZfPQJVvs0CQ0cDBRwXP
QJhCnL9qo63BplnKQJREWEC8o5vBPeeBQHI1ZEBfJ5nB926zQGk5PUA37qXBIDkOQcKMvEC2b7rB
sO+xQBMMh0DtmonB2BypQNYibcDZeYzBUSa+QDjn80Cy68nBUHuqQHiEdUDH05TBh+CFQHvgQ0Du
0qLBRsw1QCuockChHZTBDZvwQEmxUkCei5nBpN/YQBpWzkBKP8nBlnHXQBX+IMDWCrDBP4O6QE5/
UsCgFoPBmDjEQFKRBkHnKcHByGLJQF0eBUFbzNLB6ap7QG5qcEAYQbbBO3zTQHPb8D+tBLnBB+GN
QJtbqEC7hcXBcaHiQONQ/76LKL3BtBSqQGaLQT94UZnB1Zz/QNZThkDAB6vBQFQYQUgxp0AMRr/B
qRUNQdv220CGXb7BTlkVQaprwEDCcrLBhpyTQKp3kUCU+YXBcJK+QD7XVkD8KIXBlDTJQDNuoUBH
TInBunWGQOFkdsCOc4vB1vK3QMT7lMDR5Y7B3XecQGLi6UAvb8rBtLFaQJcmMkB7dafBAEL+P2Q/
ZEB03ZfBuVw0QI+6hUA1vozBbNiWQA2C979aS6HB2/iBQPZkM8DJ+5zBHMSdQJjHhECLOLfBGO/e
QBx2lD+VArDBpaymQIY7oED42b/BAvbnQGRrPb7OcrLB9l6mQM2l4j4C2KPBmk7mQIVfj0AhgbDB
uk2vQMO9Zr+3UabB6mW9QITrvj8J0ajBKiW9QEz0eUDBRa/B/KbvQBcFqkASQrnB2XXPQNZLs0Ak
1sDBMyDQQIvpm7+3qK3BKD3KQFoOV0DKlJvBn9KBQA1kZEBMHZnBnl6zQNkTPUCX5qXBA+gNQVMB
vkDuObrBEOWxQGqDhkBMiYnBINVRQLX0dcDUu5fB2429QJe380Dg48nBDnCqQFG3dEDiw5TBlb6F
QCTHRkDW6KLBM581QMelcUD7B5TBFoDwQF5nUUBvgJnBuIzYQGVWzkBDP8nBfzbZQMR/IMCFFbDB
DlNNQMg7ZcALFY3B3HLDQFB2BkHQHsHBa53IQN4bBUF6wdLBdad9QGgaa0CDpbbBF6rxQKAV+T+w
o7PBdkGOQA7CpkBxvsXBXaEAQWCF2b5MA7jB0LGNQKQuLT9VF57BxdL+QHbUiEB4o6rB/lgYQaXO
qEBn7b7BnZkMQf0x3UCyQL7BtMEUQSV+wkDAMrLBwZ6TQJQikUCX6oXBJUq+QOOGVUDHGIXBfVvJ
QGq4oEDqNInBZuYQQKUmd8BwIZvB9KRwQD45msBs/pjB/fGbQMR16UA4aMrBtU1aQGWlOECxtqfB
Kev9P4VzZEDf2ZfB+ik0QIcwhEAVjozBcXSuQDtJ6b+8RpzBst+pQP6OJsDl9JTBB7mdQDlphEA5
sLbBBN7UQERmkj9PI7LB/GqlQMePn0DwZL/BJE3WQJRsU76XPLXBvBy0QOyaAD8eOKHBbt/mQHAq
j0A7gbDB8+22QKaJV7/jL6TBkrnAQN5KwT/yZqjBafi9QLojekBO9K7BCt7uQE82qkCSQLnB9wjO
QCYvs0Cqs8DB00zFQJYkmb+Le67BHGHLQDYjWEBDSZvBY5OCQLz3YUD2WZnBt7O1QNznPECzpKXB
xnQNQSz9vUCoibrBuhiwQJLKh0BumYnBrzOmQJRJX8BtzIvBXie0QDYH3UBGmc/BUEiqQGbfaUCg
P5TBL9qHQBKIQEDB3aLB7Bs2QHBKdkD7/ZTBYZbxQMyYVEAMGJnBjVvXQJ0iz0ClAcnB0mXDQHig
HsB84rHBZ/+5QLIwOsB6S4PBucbAQDwQAEF1HtXBPjipQC+/vUDCptbBm/J9QJrzaUBb37XBOxbj
QIhj8z8dKrfBtFGMQEyXpUCtI8XByXTkQOBT975CzbzBNjioQNaYRD/cY5nBHyIAQd0miECk6arB
xZMXQc+1qECBY7/BBPsLQV8x3UDzir7BOccUQfVpwkC8nLLBU8KQQPpxi0BwsoXBkILEQBl2ZUDX
u4TBlWS/QOxWp0B9YYrB3zmEQLDpacCK64nBmZC1QK52jsAJn43BWcGYQKXX5EBQbsrBFDZgQHJF
LEDOl6fBBKMAQJWBa0AaLZnBS5UyQIHdh0Aeqo3Bv9ACQX5bn78OSaHBLIESQSZE279VBp3BPuWd
QFlGg0Dgx7bBDtemQDEsaj+wv7HBnZymQPDcnUCTiL/BCZ6zQBhRq74qvLXBg0DVQB5NHz+zTKLB
VTXnQEp9i0A1orDBSArjQMrIGb8yeKbBYEG6QDBKuT8ccKjBxKy9QGPHdEC5Da/BjaPvQI7Xp0C0
JrnBO0/PQKh8sUDRscDBSOHTQOTChr//crDBrx7KQFnfVkBGOZvBgeKBQJvTYEBh2JjBOhKzQEUg
OkBcd6XBPsENQcyQvEB3DrrBYh+xQJ05iECgi4nBhfklQayeDcDvI5jBZii4QFIR20BbU9DBwPyp
QC1+ZkAR5pPBqtyFQI/KQUDChaLBihQ2QEcRd0BiS5TBcKjwQKvlW0CNbJnBQX7ZQEwRzkAT5cjB
X/nlQCmYB8CDU7XBt881QQAKp79oyJnBg7KqQAZMuUAUUtbBa5WWQOiG7UCTH8vBNeJ8QPy8akAI
7bXBAxWOQCyHvD9+zLXB0BuOQDV+o0AxdsXBUrmkQK+bPb+W0rzBGEHfQOu5bj8eaZrBNl4AQRev
gkDVPavBNT8YQRhKqEBx+r7BzCgMQdA63EAc0b3B2boUQeQuwEAhB7LBdpeSQCusikBuNYXB+ujH
QJ2HakDVzITB6zm+QO52qED43YrBdHYjQVCTFsCxgI/B12gqQUIgS8CFzZvBBEvGQDwE80B2uNXB
DcRaQAaKMUDzQafBScb/Pwyzb0AIc5jByyw0QGg/h0CC2ozB

> <OMEGA_E>
POgLPyzICj+clAY//JIGP5hBAz/MNQE/

> <OMEGA_NBR>
    106446

$$$$
50168736
  -OEChem-04172616093D

 52 54  0     1  0  0  0  0  0999 V2000
    7.8896   -1.4010  -20.0228 C   0  0  0  0  0  0  0  0  0  0  0  0
    8.5340   -2.1279  -19.3019 C   0  0  0  0  0  0  0  0  0  0  0  0
    4.9117    4.1486  -22.8332 C   0  0  0  0  0  0  0  0  0  0  0  0
    5.2640    0.9817  -22.2842 C   0  0  0  0  0  0  0  0  0  0  0  0
    5.2031    4.9549  -23.9395 C   0  0  0  0  0  0  0  0  0  0  0  0
    5.7050   -0.2430  -22.8064 C   0  0  0  0  0  0  0  0  0  0  0  0
    6.6311    0.6448  -20.3001 C   0  0  0  0  0  0  0  0  0  0  0  0
    7.2173    4.3452  -22.0814 C   0  0  0  0  0  0  0  0  0  0  0  0
    7.0702   -0.5735  -20.8260 C   0  0  0  0  0  0  0  0  0  0  0  0
    5.8206    1.4883  -21.0833 C   0  0  0  0  0  0  0  0  0  0  0  0
    5.9051    3.8548  -21.8717 C   0  0  0  0  0  0  0  0  0  0  0  0
    7.5023    5.2031  -23.1594 C   0  0  0  0  0  0  0  0  0  0  0  0
    6.4947    5.5193  -24.0974 C   0  0  0  0  0  0  0  0  0  0  0  0
    6.6744   -0.9827  -22.1137 C   0  0  0  0  0  0  0  0  0  0  0  0
    6.3049    3.3746  -19.4065 C   0  0  0  0  0  0  0  0  0  0  0  0
    4.0466    3.5183  -19.0844 C   0  0  0  0  0  0  0  0  0  0  0  0
    5.5727    2.9362  -20.6829 C   0  0  2  0  0  0  0  0  0  0  0  0
    8.8873    5.8159  -23.2833 C   0  0  0  0  0  0  0  0  0  0  0  0
    5.5436    4.2800  -17.1892 C   0  0  0  0  0  0  0  0  0  0  0  0
   10.8006   -2.9827  -16.5668 C   0  0  0  0  0  0  0  0  0  0  0  0
    9.2630   -3.0119  -18.4157 C   0  0  0  0  0  0  0  0  0  0  0  0
    5.7573    6.7557  -26.0341 C   0  0  0  0  0  0  0  0  0  0  0  0
    5.3085    3.6392  -18.4890 N   0  0  0  0  0  0  0  0  0  0  0  0
    4.1618    3.0551  -20.3046 N   0  3  0  0  0  0  0  0  0  0  0  0
    2.8352    3.8158  -18.4823 N   0  0  0  0  0  0  0  0  0  0  0  0
    7.5110    3.4159  -19.1809 O   0  0  0  0  0  0  0  0  0  0  0  0
    6.8169    6.3918  -25.1273 O   0  0  0  0  0  0  0  0  0  0  0  0
   10.1486   -2.2254  -17.6028 O   0  0  0  0  0  0  0  0  0  0  0  0
    7.2116   -2.0831  -22.6868 F   0  0  0  0  0  0  0  0  0  0  0  0
    6.1458    7.8503  -26.7292 F   0  0  0  0  0  0  0  0  0  0  0  0
    5.5172    5.7356  -26.9016 F   0  0  0  0  0  0  0  0  0  0  0  0
    3.9167    3.7464  -22.7129 H   0  0  0  0  0  0  0  0  0  0  0  0
    4.4971    1.5411  -22.7993 H   0  0  0  0  0  0  0  0  0  0  0  0
    4.4392    5.1487  -24.6780 H   0  0  0  0  0  0  0  0  0  0  0  0
    5.3004   -0.6142  -23.7365 H   0  0  0  0  0  0  0  0  0  0  0  0
    6.9120    0.9372  -19.2991 H   0  0  0  0  0  0  0  0  0  0  0  0
    8.0087    4.0569  -21.4054 H   0  0  0  0  0  0  0  0  0  0  0  0
    9.5266    5.1586  -23.8911 H   0  0  0  0  0  0  0  0  0  0  0  0
    8.8104    6.8012  -23.7663 H   0  0  0  0  0  0  0  0  0  0  0  0
    9.3278    5.9318  -22.2821 H   0  0  0  0  0  0  0  0  0  0  0  0
    4.5899    4.3763  -16.6494 H   0  0  0  0  0  0  0  0  0  0  0  0
    6.2389    3.6659  -16.5981 H   0  0  0  0  0  0  0  0  0  0  0  0
    5.9784    5.2782  -17.3459 H   0  0  0  0  0  0  0  0  0  0  0  0
   11.4599   -2.3200  -15.9870 H   0  0  0  0  0  0  0  0  0  0  0  0
   10.0427   -3.4202  -15.9003 H   0  0  0  0  0  0  0  0  0  0  0  0
   11.3975   -3.7872  -17.0212 H   0  0  0  0  0  0  0  0  0  0  0  0
    8.5558   -3.5559  -17.7723 H   0  0  0  0  0  0  0  0  0  0  0  0
    9.8467   -3.7312  -19.0090 H   0  0  0  0  0  0  0  0  0  0  0  0
    4.8507    6.9777  -25.4521 H   0  0  0  0  0  0  0  0  0  0  0  0
    3.3924    2.8155  -20.8967 H   0  0  0  0  0  0  0  0  0  0  0  0
    1.9808    3.6793  -18.9836 H   0  0  0  0  0  0  0  0  0  0  0  0
    2.8151    4.1670  -17.5462 H   0  0  0  0  0  0  0  0  0  0  0  0
  1  2  3  0  0  0  0
  1  9  1  0  0  0  0
  2 21  1  0  0  0  0
  3  5  2  0  0  0  0
  3 11  1  0  0  0  0
  4  6  2  0  0  0  0
  4 10  1  0  0  0  0
  5 13  1  0  0  0  0
  6 14  1  0  0  0  0
  7  9  1  0  0  0  0
  7 10  2  0  0  0  0
  8 11  2  0  0  0  0
  8 12  1  0  0  0  0
  9 14  2  0  0  0  0
 10 17  1  0  0  0  0
 11 17  1  0  0  0  0
 12 13  2  0  0  0  0
 12 18  1  0  0  0  0
 13 27  1  0  0  0  0
 14 29  1  0  0  0  0
 15 17  1  0  0  0  0
 15 23  1  0  0  0  0
 15 26  2  0  0  0  0
 16 23  1  0  0  0  0
 16 24  2  0  0  0  0
 16 25  1  0  0  0  0
 17 24  1  0  0  0  0
 19 23  1  0  0  0  0
 20 28  1  0  0  0  0
 21 28  1  0  0  0  0
 22 27  1  0  0  0  0
 22 30  1  0  0  0  0
 22 31  1  0  0  0  0
  3 32  1  0  0  0  0
  4 33  1  0  0  0  0
  5 34  1  0  0  0  0
  6 35  1  0  0  0  0
  7 36  1  0  0  0  0
  8 37  1  0  0  0  0
 18 38  1  0  0  0  0
 18 39  1  0  0  0  0
 18 40  1  0  0  0  0
 19 41  1  0  0  0  0
 19 42  1  0  0  0  0
 19 43  1  0  0  0  0
 20 44  1  0  0  0  0
 20 45  1  0  0  0  0
 20 46  1  0  0  0  0
 21 47  1  0  0  0  0
 21 48  1  0  0  0  0
 22 49  1  0  0  0  0
 24 50  1  0  0  0  0
 25 51  1  0  0  0  0
 25 52  1  0  0  0  0
M  CHG  1  24   1
M  END
> <OMEGA_C>
A3j8QFVUs7+wLqDBW4sIQQgwCMBHaprB6yydQG3BhEBgqrbB/nKoQBRTez/zRbLBbX+mQKuOnkAi
hL/BLY+2QAjTeL6bc7bBVjLUQNgOJT+mZqLB8fPmQLYLi0CqprDB7D7iQJjPEr+gm6bBVkK6QOCB
vj+RqqjBffa8QI61dkBL+a7BARPwQOZ/pkBtRrnB69TPQGmesECRx8DBh5TVQDSRe7/Z6LDBxMHJ
QKz5V0CFQJvBZn2BQJYrYUDWrJjBfVOyQJzqO0CUdqXBlDIOQZIbukBDRLrBx2SxQOD1iEBkg4nB
Zc8sQSjlPsDBiITBJzUUQZDDQMBWU5PBsDu4QFIu2EDlRdDBiN+pQFboaEBu6ZPBVC2FQNaGQ0Dj
b6LBG3Q1QKI1dECs25PBvlnwQBKeWkCKcpnBZCTaQK6JzEC3BMnBvmAiQVBtDsB00ozBBcXmQFJS
BcCOfrXBw6rEQPs1+0BR1dXBq4ywQBSKt0CINtfBrap6QC/Fb0D0s7XBguiPQO1CxT/yZLbBlA2O
QMjBpECBbMXBF52pQMM6Hb9Q5L3B2i7dQIjrbz+UZJrBuiMAQXPSgUBHPqvB3WwYQZsTpUATIb/B
RfcMQQ6j2UBuIb7Bxj4VQenQvUCnQbLBe+CSQEQKjEAPMoXB1qTHQJ+dakDkyITByU6/QP3mqEBj
xIrBk1s3QSl6FMC6yn/B/64gQQblWsCsZ37BSlw2QZNhcsCCK4jBXeQIQQ6TY8CcLY7B4osdQZbL
bsBwEpjBsTibQGRJ30DuncvBgRxZQM4xNECLLKfBfIr9P+h5a0Bq3pfB9Ck0QC1YhUCaXozBWYqw
QKa4579SpZvB/N2qQBcYJsAtaJTBKQqdQOanhUC2gbbBNy/SQMztjj9+gLLB5qqkQLVIoUAeI7/B
FOrTQLP0eb5yVbXBd8G2QIEVAT/t66DBh3LmQM+Vj0CPb7DBukq5QPiuWL9Or6PBPQ7BQEDZvz8n
dKjBC6K9QD+KekDq7K7BNivuQCSbq0BU/7jBGmfNQCmltEDGdMDBGMHFQOzVnL8pFa7ByGbLQNNs
V0AxW5vBQriCQBqcYUBNdZnBPbG1QNIRPEBvtqXBGBoNQUB7v0DxN7rBKjSwQHn0h0ASv4nBTMXJ
QBoZisCpZHfBT5ulQFn+YMBxhIvB91G0QEqi4ECbDs/ByVaqQIWEaECyS5TBXeeHQNo6PkBj3qLB
IMQ2QEm9eEChOJXBiazxQPsXVUC1NJnBVG/XQG3zzkDsCMnBSOXKQClQW8A3w4TBvEnEQGhjIcCM
JbHBtDahQIMkAEGsUcnBnhzEQKcq8UDlQdjB3y58QElYbUAPo7XBsOHdQKkq7z/I+LfBt22LQK/b
p0BVzsTB0hzgQHIYCb/+Er3Br9WsQO5vST/I9ZjBOwMAQYP3h0BJ8qrBuzQXQUaMqkDTK7/BfpsL
QVz13kD9Fb7Bb3QUQalbw0BBSLLBr/eQQIIvi0BKxYXBxUrFQONcZ0AQ2oTBQ8O+QADGp0AgtIrB
mSTnQA4ahsDj5m3BY8itQHKLgsDxaG3BRITHQJJfq8CIBX3BVeaIQLCsT8Bn6IbBK0GiQBFZkcCg
kI7BmDCdQOAMx0Dm0NDBz21gQMnjJ0AYd6fBOjsBQP2dbkAra5nBWo4zQK7FiUDA943BaauwQJsD
6b9eBZzBCherQK2jKMCY/ZTBpXKdQKM4hUD/l7bBXhbSQKWMkj+Wj7LBaRqlQHN5oEBJSL/B+vrT
QFJpV74QgLXBkci2QEv8Aj8+AaHBnbnmQHC4j0D9drDBgme5QJozVr+c56PBbx3BQCUEwj8hdqjB
69a9QO0Se0DW7K7B7LLuQJLNqkCkNrnBfdnNQNS+s0DjqMDBFAnGQESzmb82U67B42LLQDhGWUCx
XZvBJbCCQOCBZEDqgZnBpse1QPcePUAPraXBTGANQdOMvkDlh7rBTx6wQNGIh0BHo4nBlbbBQE9D
EcA+3nrBEvelQKrlZcAJTozBc/ezQEQR30BiSM/BQI6qQPK6dkDn45TBQAqIQF2gP0A306LBcRM2
QBxXdUDK/ZTBqUfxQPBSUkDs9pjBSmrXQO/rzkDlGsnBEnrHQL9LWsCjbYTBGBDFQEChH8BPe7HB
BczBQNOnAEEx9dTBEKWlQOi7wEBmNtbBgTx9QIP0a0BvvrXBCI/dQCLD8z9A/rfB49uLQLbapkCt
9sTBlyXgQPw0+74lRb3BR86sQNl7SD/hBZnBTw4AQbzAiED23arBVXcXQbY9qUDCY7/BEeQLQe69
3UB3ir7BL70UQT3+wkCOnbLBTD+RQPwTkkADVYbBA9y7QL6rV0C3EYXBU27HQNHPoUA8E4nBNZHc
QAy3DcAmhm/B86TAQKyvrL80PoLBeoqjQP5CGMBT+XHB6aSGQGkZXMDxeojBQLanQJWhk8Aqi4/B
eSSaQP+e6EDtzMnBaMhgQJlrKEAIXqfBcJoAQPcXZUDS45jBhV0yQNLciEAU1o3BU7+qQOt46L+Y
ZZzB1KqkQBRqJsDVLZXB3tmdQIIGhEBMkLbBr4rUQNByjz9/MbLBKBqlQJKOn0C5OL/BD/zTQHAW
ab7EYbXBrl21QJU7/j4SDKHBcgjnQDMOj0C0fLDBGHG1QBq4V79cLqTBnvnBQDaIvz/BSajBsVi+
QLo/eUCS5q7BzJruQDFxqkDNMbnB9YvNQEaTs0DElcDBmyvCQHXbmb+qma7BUrTLQIr7V0BoNZvB
N+OCQNxoYUA8fJnBOoO2QMzMO0D1laXB1kcNQQhlvkAZgbrB/5+vQJRWiUABzYnBBzntQLZXd8Bd
NonBUK2gQL6lYMDMJozBAwi1QAaX3UCcANDBdEyqQCIwaUCOPZTB65CIQO7KPUCY26LBKZE2QJxf
eEDpYpXBme7xQKYQV0Df/5jBMCPXQL+pz0D/68jBshTFQA6TVsBeD4XB23S9QHwqHsBcIrLBLI6l
QPJLvEA029XBVvyUQBAM8UAHc8rBbXl+QJasaEB0u7XBKQ/jQGAM7z86RbfBXcOLQGSapUAz5sTB
KzfhQF64A7/KBr3BXpmrQDfZQz/iCpnB1FAAQXkMiED686rBRF8XQRxZqUDvbr/BxbULQeG63UB8
b77Bx7EUQSmVwkCVl7LBF0OQQLZljEAa4YXBSfXEQKLAa0DDxITBjam9QPhNqUBC7IrB418DQVzT
bMAgTIPBGRPqQIEknsB2z4rBk0f1QMbFVcA7rpDBfw+DQAA7UsARwIfBEYyfQNZ4kcA4GY/BIvXC
QE8h9UCyitXBbzpiQCooJ0DpgafBcIIBQCTpbUAmqpnBYIEyQLSyiUD6Jo7BHYeSQK4L7b8dnqTB
UDZ3QAdULMAnp6DBciOdQBb9hEC2brbB9abiQK6zoD/Cn6/B+S2lQE2ln0BNNr/BS4joQJQDOr2D
nbPBdCWoQDwj7T4wcaTBNarlQM0PkUCh9q/B2oWtQJwdU78GkqjB/T3AQMxnxD+0kqjBGQm9QAoL
fEAAlq7BYE3uQHfTqkCZ6rjBjgXOQN6PskA5mMDBUqLMQJ6wib9rerDBlmXKQNReVUCW9prBY8aB
QD0EYkDF/JjBuZe0QDSCPUAtYaXBy08NQePovUBnRrrBFN2vQLxKhkD/QInBW+qUQN4IjsBh9o3B
RkFCQJTFa8CMSJvBu1a1QOld4kDUXM7BUYCpQGrvZUCn0pPBVraGQIEYQ0A+oqLBVxA1QOdfeEC4
oJTB5LXwQHg4UkAN45jBPS7YQJGay0A+YcnB9ZFZQOG7cMCCFJDBfrzPQGStEsDxJLXB3w3GQCOr
AUG8BtTBioafQDx8yECIMNXB7698QNY+a0C4pLXBdmH4QCTVAkBi7rHBZB+MQIDRpUCG9cTBXDkB
Qf+Xgb6gFbnBpHeRQJv/Ij99Ep7B21z+QEnAi0BAEarBn20XQUSfp0Ar1r7BvhkMQbFw3EDgnL7B
2XgUQU+Dw0D1W7LBxc+QQNpuiUBBL4XBZCPFQCKmY0AUdoTBWG2+QOsepkBWL4rBswWbQK1TjsDS
S4XBBB2TQI0fr8Aq7pDBdhKvQDM0esBnDpLB+xf9P6JNWcDM+ZvB0/pLQPNPlcB1Dp/BRMmfQBB/
7kDCGcjBzYddQLGsMUAMeafBaBz/P/8pcUBb7JjBEfkxQK7ah0BBMI3BlfmSQHzQ7r9AOqPBqVB4
QPqoLMCWGp/B3nCdQJN0g0CfsLbB+7PhQHifmT8Onq/BjROlQEnFnkBtXb/BrC3nQEjy7r0/SrPB
37GoQEj/5z4PwaPBmOrlQAHBj0AQQbDBZ66tQLNPWr8Ij6fBWEHAQB7gwD+wW6jBd129QIFSeUDX
267BvS/uQKUuqkAwHLnBVJ/NQJmnskDlrsDBhdvLQOBJkb8Yoa/BDL3KQG5mV0DeNZvBjzaCQGFP
ZkC8TJnBs9y0QOGJPECAfaXBdEANQcNKvUAHeLrBC0uwQG3KhkCGcYnBHGk9QB18L8DBs4fBgbRC
QDh/a8ANtpnBBAe2QLb12kBidNDBT1mqQLjFdkAxupTBmRSHQIwoQ0BHuaLBFXk1QIgbd0AFsJTB
oI7wQGF8TkBI15jB+b7XQB7bzUDwKcnBrDBcQNw7c8CjnI7BJ5TOQPa9F8Ca97PBKjamQPLmuEAZ
+tXBvSqWQI2970BpJMvBp999QMDsZkA++rXBVwL3QL9y/T8rVLLBYO+LQCrFpECvGcXBriwAQQwv
sb4+67jBBL+SQAxkJz/ARp3BxNz+QF/8iUB2c6rBAEQXQWlXp0DAL7/BDf8LQTUs3EBFpb7BN44U
QZ05wkDUjrLBn9SRQLxekkAVHobBB+q6QDPiVEAR9ITB/prIQOkcoEBky4jBR91TQLTIOsDm9n7B
CPRVQKQs4784j4rBWQvuP8+bLsB60YfBkef+P2LwVsAvHprB7LpJQIL0lMC6r53BvWLEQC5e8UDT
NtbB+SReQLV8L0AWaKfBkGH/P0YwaEA6mpjBhVIyQNARiUBnco3BMx/jQOB+zL/+e5vBqGntQLtj
FMDWI5TBxGycQPhThkAHobbB7Fi1QGj0gT/4YLPBSnylQB/KoEAZYb/BMBLCQFYYkb5UPLbB2unI
QBd/Ej8f36DBToLmQIXji0Cez7DBBpDVQKNYOL96u6PBzNC7QGwsvj+SzKjB3Za8QGFieEBnHK/B
4GLvQCvqp0CHU7nBKOLOQF3PskC5tcDBxRDUQHoPkb8Gga7BwBbKQGm8V0DblZvB59aBQBn6YUAY
BZnBKJiyQK3HO0DhxqXBXf0NQV3WukDxZbrBLOGxQEiBiEAvyInBxdsSQQrQzr8+/IDB+VT5QHSc
SsDPJYvBw/+3QAZ13kBi98/BZjuqQKD4aEAmPJTBGG2FQHtvQUAkpqLBXGA2QBBmd0B4SpTBw6Dw
QHASVkAEtJnBnJ/ZQBvuzkBk8sjBetMRQZiqNMBhXIfBzlrjQJjpFcAHerHBjdynQDsZvkD9CNbB
kEqYQAca8kAYUsrBmSB5QBIfc0ADn7XBXpWmQM851D+FQrnBZ8OMQHaRp0CKLMXB+ga+QBi9IL+X
XL7BTi/JQIjqXj+FkZjBnwAAQTI5gkCPgKvBI+YXQTLIpUCiar/BNesMQTam2kB/IL7BykoVQSTK
vUDvbLLBlFmTQDrOi0DteoXBctLHQC/LaEBXFYXBiTXAQKpQqEAo84rBIn0jQTP7t79H93zBrC8N
QSFGQ7+bw4XB160IQRFm3b+0unPBAiXiQN6bQcCDn4TBSQ75QJD5hsCvto3BG5fGQHUz9kCOV9XB
+aVZQAsNL0A2OKfBkCf/P+U8bkACQ5jBgmQ1QEgCiEBS6IzBu8vfQCQszb+CGZvBShPqQLoaFMCi
spPBKY+cQCCQhkAFqrbBwTO3QB9mgz+mc7PBK7alQHTcoECVcL/BNwfDQC2Nkr7DJbbBvZ7HQGqH
Ez8/xKDBBqHmQKFtjEDmxrDB/1rTQNKmOr/id6PBQk28QOJkvz+P0ajBu7m8QMg2eUBFHq/BzYrv
QIZSqEDZTbnB7RXPQOXdskDstMDBbN/SQCg2k78bOa7BgDzKQLxUWEBrnZvBVuqBQOepYUC9EpnB
oOGyQI5aPEAq0qXBEgIOQYB1u0CCYLrBBLqxQLYkiEASxInBnWYhQeteVsAQRI/Bqzb3QFVhScDl
u4rBHC22QIdP4EB4+87BtUSqQKpdaUAJSpTBGK2FQGZ0QUC0tqLBXE02QN/odUADU5TBvLnwQAIT
VkAXrpnBcl3ZQBd5zkAgAMnB9oARQcRyNsAL1YfBP3DhQO/+F8BuArHB55OdQOBx+UCLjMjBFGLG
QCGC+EBAANfB0WR5QGWZc0DFp7XBwCyqQNk81z8YgLnBvx+NQKd7p0AKSMXB6/C/QEZxIb/LTL7B
3zrHQN+XYT+NepjB1QYAQUXzgkD/bKvB3v4XQZBppkDTW7/BYt0MQdcu20CdJb7BFEUVQQ2nvkCc
ZrLBdBaTQNJzi0Brg4XBEWLHQOVRZ0DxFYXBsU/AQOTnp0Cfz4rBLXoxQTgGRcBTaozB9BogQaY3
jsBm1I/B868eQSvnOcD6MpfBJDviQPWoPMB82YPBRab0QDqXhsC2A43Bst6iQB4BxkBhSNLB4FJa
QAX0LkBqTqfBoC7/P1AXbEAeSpjBfQ81QIErh0CC7ozBhH4AQcgIrL8TOqDBpbcNQbyU87/ru5rB
8ZGdQE1/hEDAsbbBCpGmQHsVaT/brbHBS1amQFQ3n0Bkar/BFTmxQEJ6wr43P7XBdiPXQNEbKD/A
maLBJXLnQNfqikCS0LDBUELiQEkRHr96P6bB9kC7QNqzuz/tn6jB1KW9QI+pdUCaG6/BegbwQG86
p0AMULnBYHDPQCnmsUBcssDBZHnQQJgSkL9ZyK/B60DKQLv0V0CnUJvB8vmBQIFdYEDo35jBjlCz
QMXyOkC4kaXBfikOQQPgukAzWLrBqTCxQN8viEC1k4nBvK02QRfsM7+0+5DB678dQbSmIsAx/ZPB
jCG4QBYw3UCW/s/B+x2qQCnwZkBC+JPBDwWGQDfiQUCxlaLB+yk2QP4XdUDPOpTB6MPwQJRwXUAa
gZnBx9DZQHttzkCq4sjBXbQyQbiU/b/7C5bBZ3/dQLQEFMDxzrPBUdeoQLxkvECeDdbBodiXQC1L
8EBlcMrBPth7QAJBbkDdwbXBX3mOQPKmvT+M3LXB85aNQNqtpUDgOcXB0nGhQGguTL9hK7zB6Pvj
QJLLgj9mIZvBLokAQSdbgUCIiKvBIkAYQUI8pkCqYb/BzNkMQSG52kDYCL7B7moVQfnlvUDhXLLB
BaiSQGNlikDIO4XBTg7IQLxbakAH3oTBfCu+QDKDqECz14rB7OdGQb74t75Z/5LBF+kqQS9nBT0S
2ZPB7Ts1Qd5xT79UQYjBEZMZQSxxGMA5iYvB2A4eQaGxZ8Cps5XBCHDGQLQc9UAzXtXBNB9bQFeN
MUB3UqfB163/PwMBbUAmVpjB5lY0QKMShkApxYzBFsgEQSD4k78lxaLBCUEUQWIC1r8Frp7Bfc2e
QJVthEDQ8rbB4UKeQFOeVD+Wda/Bt/emQHE1n0Avp7/BcAihQLd2EL9cbrDB6TrkQFJiYz947abB
xlXnQI7zj0DQbbDBpR3mQNWcAb95gqfBeA6+QMqFxT8Jt6nB5H2+QL/UekDcGK/BoI3vQBt3q0CU
EbnBd1/PQJJms0Drw8DBN5rDQHb5nr9KvqvBJFzLQBbgVUCdUpvBLtOCQKwBXUDwHpnBkUu1QOKy
PUCa86XB5ZINQXiGwECOBbrBT56wQNi/hUBrjInBoe1MQXOCIMBgFJ7BH2MnQb54EMC8JprBdwy2
QInX2kBdEtDBNJWqQHRaY0DHEZTB2ayHQKqVQkB/+KLBedk2QL5jbkBShZTBVI7xQPQpXUCbPZnB
EfXYQHS7zkC0KcnBLNc4QdAj9r+zKKHBTGfCQFCwJcAY46rBeWbCQJIq/UBG59XB5xqsQAMtukBJ
09bBWgeAQKvyaUDuN7bBIeeDQM5Prj9gFrPBUmCOQJSUpEDJksXBCcWIQM5Xjr8IwLTBPcv/QGFP
uj+GXaTBzzkAQUbriECywqrBpUYYQZnmq0BNvL7Bc+ELQXSu30BIB77BiV0UQVBFxUCN/bHBGLmR
QHdbh0DPWYXBaUvHQBVIZUCfzoTBeF69QIpIpkD3m4rB92dZQbxADcDEzKPBh0pRQfBGCsAaBZbB
jXVLQempZsBRD57B5E4qQaNM7L8MH5LBBaIlQfpkVsAFoJnBtyOaQA0K40C9HcvBqgRfQIyTM0Ag
3qfBLDwBQAffZkCIyZjBwJkzQNg5gUBU74zB

> <OMEGA_E>
uh0XP6i8Fj9U1Bc/hPAXP5g+GD+y1hg/DB4VP3C5FD/AXhQ/OEAUPw==

> <OMEGA_NBR>
    115478

$$$$
50168805
  -OEChem-04172616093D

 54 56  0     1  0  0  0  0  0999 V2000
    8.1184   -1.2210  -20.1033 C   0  0  0  0  0  0  0  0  0  0  0  0
    9.0268   -1.7103  -19.4738 C   0  0  0  0  0  0  0  0  0  0  0  0
    4.9319    4.1231  -22.8534 C   0  0  0  0  0  0  0  0  0  0  0  0
    5.2082    0.9373  -22.2255 C   0  0  0  0  0  0  0  0  0  0  0  0
    5.2129    4.9446  -23.9501 C   0  0  0  0  0  0  0  0  0  0  0  0
    5.6053   -0.3187  -22.7134 C   0  0  0  0  0  0  0  0  0  0  0  0
    6.6503    0.6568  -20.2908 C   0  0  0  0  0  0  0  0  0  0  0  0
    7.2298    4.3507  -22.0913 C   0  0  0  0  0  0  0  0  0  0  0  0
    7.0836   -0.5653  -20.8036 C   0  0  0  0  0  0  0  0  0  0  0  0
    5.8106    1.4766  -21.0611 C   0  0  0  0  0  0  0  0  0  0  0  0
    5.9245    3.8385  -21.8908 C   0  0  0  0  0  0  0  0  0  0  0  0
    7.5041    5.2241  -23.1623 C   0  0  0  0  0  0  0  0  0  0  0  0
    6.4938    5.5369  -24.1020 C   0  0  0  0  0  0  0  0  0  0  0  0
    6.6087   -1.0365  -22.0432 C   0  0  0  0  0  0  0  0  0  0  0  0
    6.3137    3.4088  -19.4210 C   0  0  0  0  0  0  0  0  0  0  0  0
    4.0570    3.5633  -19.1149 C   0  0  0  0  0  0  0  0  0  0  0  0
    5.5879    2.9369  -20.6908 C   0  0  2  0  0  0  0  0  0  0  0  0
    8.8847    5.8486  -23.2837 C   0  0  0  0  0  0  0  0  0  0  0  0
   11.4033   -4.4198  -18.3370 C   0  0  0  0  0  0  0  0  0  0  0  0
    5.5394    4.2817  -17.1966 C   0  0  0  0  0  0  0  0  0  0  0  0
   10.1158   -2.2941  -18.7197 C   0  0  0  0  0  0  0  0  0  0  0  0
   10.2805   -3.7607  -19.1473 C   0  0  0  0  0  0  0  0  0  0  0  0
    5.7836    6.8193  -26.0694 C   0  0  0  0  0  0  0  0  0  0  0  0
    5.3166    3.8824  -18.5913 N   0  0  0  0  0  0  0  0  0  0  0  0
    4.1779    3.0713  -20.3220 N   0  3  0  0  0  0  0  0  0  0  0  0
    2.8407    3.7475  -18.4792 N   0  0  0  0  0  0  0  0  0  0  0  0
    7.5147    3.4001  -19.1647 O   0  0  0  0  0  0  0  0  0  0  0  0
    6.8200    6.4203  -25.1320 O   0  0  0  0  0  0  0  0  0  0  0  0
    7.1436   -2.1367  -22.6197 F   0  0  0  0  0  0  0  0  0  0  0  0
    5.3532    5.7533  -26.7983 F   0  0  0  0  0  0  0  0  0  0  0  0
    4.7400    7.4197  -25.4311 F   0  0  0  0  0  0  0  0  0  0  0  0
    3.9439    3.7016  -22.7416 H   0  0  0  0  0  0  0  0  0  0  0  0
    4.4399    1.4951  -22.7402 H   0  0  0  0  0  0  0  0  0  0  0  0
    4.4472    5.1301  -24.6889 H   0  0  0  0  0  0  0  0  0  0  0  0
    5.1419   -0.7294  -23.5983 H   0  0  0  0  0  0  0  0  0  0  0  0
    6.9594    0.9714  -19.3050 H   0  0  0  0  0  0  0  0  0  0  0  0
    8.0237    4.0687  -21.4155 H   0  0  0  0  0  0  0  0  0  0  0  0
    9.5280    5.2008  -23.8974 H   0  0  0  0  0  0  0  0  0  0  0  0
    8.7994    6.8368  -23.7593 H   0  0  0  0  0  0  0  0  0  0  0  0
    9.3258    5.9604  -22.2823 H   0  0  0  0  0  0  0  0  0  0  0  0
   11.5144   -5.4687  -18.6492 H   0  0  0  0  0  0  0  0  0  0  0  0
   12.3469   -3.8828  -18.5139 H   0  0  0  0  0  0  0  0  0  0  0  0
   11.1543   -4.3806  -17.2663 H   0  0  0  0  0  0  0  0  0  0  0  0
    4.5904    4.6209  -16.7558 H   0  0  0  0  0  0  0  0  0  0  0  0
    5.9222    3.4226  -16.6261 H   0  0  0  0  0  0  0  0  0  0  0  0
    6.2729    5.1007  -17.1625 H   0  0  0  0  0  0  0  0  0  0  0  0
   11.0452   -1.7423  -18.9241 H   0  0  0  0  0  0  0  0  0  0  0  0
    9.8894   -2.2453  -17.6443 H   0  0  0  0  0  0  0  0  0  0  0  0
   10.5309   -3.8022  -20.2176 H   0  0  0  0  0  0  0  0  0  0  0  0
    9.3383   -4.2999  -18.9700 H   0  0  0  0  0  0  0  0  0  0  0  0
    6.2336    7.5497  -26.7579 H   0  0  0  0  0  0  0  0  0  0  0  0
    3.4105    2.8212  -20.9124 H   0  0  0  0  0  0  0  0  0  0  0  0
    1.9908    3.4998  -18.9444 H   0  0  0  0  0  0  0  0  0  0  0  0
    2.8121    4.1283  -17.5550 H   0  0  0  0  0  0  0  0  0  0  0  0
  1  2  3  0  0  0  0
  1  9  1  0  0  0  0
  2 21  1  0  0  0  0
  3  5  2  0  0  0  0
  3 11  1  0  0  0  0
  4  6  2  0  0  0  0
  4 10  1  0  0  0  0
  5 13  1  0  0  0  0
  6 14  1  0  0  0  0
  7  9  1  0  0  0  0
  7 10  2  0  0  0  0
  8 11  2  0  0  0  0
  8 12  1  0  0  0  0
  9 14  2  0  0  0  0
 10 17  1  0  0  0  0
 11 17  1  0  0  0  0
 12 13  2  0  0  0  0
 12 18  1  0  0  0  0
 13 28  1  0  0  0  0
 14 29  1  0  0  0  0
 15 17  1  0  0  0  0
 15 24  1  0  0  0  0
 15 27  2  0  0  0  0
 16 24  1  0  0  0  0
 16 25  2  0  0  0  0
 16 26  1  0  0  0  0
 17 25  1  0  0  0  0
 19 22  1  0  0  0  0
 20 24  1  0  0  0  0
 21 22  1  0  0  0  0
 23 28  1  0  0  0  0
 23 30  1  0  0  0  0
 23 31  1  0  0  0  0
  3 32  1  0  0  0  0
  4 33  1  0  0  0  0
  5 34  1  0  0  0  0
  6 35  1  0  0  0  0
  7 36  1  0  0  0  0
  8 37  1  0  0  0  0
 18 38  1  0  0  0  0
 18 39  1  0  0  0  0
 18 40  1  0  0  0  0
 19 41  1  0  0  0  0
 19 42  1  0  0  0  0
 19 43  1  0  0  0  0
 20 44  1  0  0  0  0
 20 45  1  0  0  0  0
 20 46  1  0  0  0  0
 21 47  1  0  0  0  0
 21 48  1  0  0  0  0
 22 49  1  0  0  0  0
 22 50  1  0  0  0  0
 23 51  1  0  0  0  0
 25 52  1  0  0  0  0
 26 53  1  0  0  0  0
 26 54  1  0  0  0  0
M  CHG  1  25   1
M  END
> <OMEGA_C>
y+QBQaJKnL+O06DByG0QQXLr2r9BypvBcNKdQLnwg0Cr07bB6qmmQDfzbz/ZzbHBrM+mQBY6nkDX
mb/Byl6zQKYqo74ltbXBBM/UQBUjKD+nU6LBelrnQEk5i0DmurDBEK3iQN23EL+7babBofC5QCgA
vT8rfajBd5W9QGqpdUBMIK/BmCHwQOcrp0B2TLnBi83PQIsusUD50MDBEnrTQJSrhL+OWLDB5gnK
QNkpWkAmXpvBUdOBQNcMZEBG65jB+8+yQOj2O0DChqXBqCcOQaknu0AdRbrBEnQ2QVhvjcAjspLB
ikKxQHwDiUC6konBcNohQdHSEsDnwZXB5nwkQYWucMCsLZnBMBO5QMA32kA5jtDB/yGqQBR5eEAG
u5TBdrGFQPqQRECJk6LBvc01QLvXb0Bj1ZPBi3jwQP+bWUBUUZnBLT3aQLFyzUBBDsnBB5jkQGPA
CMAq9bTBGk2rQLkauEDWYtbB/q2XQGFu7UDPcsvBfGh8QLjnbEDh7rXBuROOQORevz8E7LXByU+O
QHEppEDtgsXBOYqkQJ+7Or9CybzBX7PeQJKreD+ncJrBAGEAQeUygkAEU6vBu3IYQVBtpkDYLb/B
dsoMQVvH2kDzEr7BWDYVQXK7vkAZQrLBBzs4Qdf/rsCcMZXB8YxFQZaAeMCGHJTBFngyQYUtjMBM
IYrBdOSSQJvek0DkC4bBd4K9QHAMW0BGAoXBY7vIQPw4o0DeTInBL7kwQUIF37+fZJfBEzseQdiy
D8CbJ43Bcn4oQf1Wc8CwvaHBl2kVQbmYicB2wpfBdHnHQFGX8UA8ENbBMkZaQJiONECmTKfBd9P+
P/v8X0AMjpfBQ/ozQEYbhECUcIzB1ZnjQBSjyr8ZIJzBpO7uQDRpE8DM35TBTCWcQFmDiEAzXrbB
lTi2QFfyij83sLPBSJGlQO8mokDMQb/BYWnCQNCZWr4+tbbB/dTIQLPFFj+BNqHB7yTmQDGGjkC5
arDBCE/VQHvrMr8YP6TBrCe8QNhhwz8sAanBeU68QLWmfEDM067BKT3vQGruqUDxCbnBKDfPQMwp
s0AbqcDBqKvTQIOqi7/6EK/ByOzJQAvBV0CXZZvBd6aBQMpPYECZ1JjB+pmyQNbTPUAlsqXBNOgN
QZ+/vEByMbrBVOoJQfZ+r8Bn+4bBNGGxQDRUhkDXaonBswP8QEwxSsBtD4zBfNICQbBsksC4PpDB
JTa4QFOS5EA2L87BjvapQIZlZkAf/JPBVGmFQBoMQkCykaLBxtA1QLGgdEA1E5TB13TwQM8aVkBl
gZnBiifaQFW8y0COdcnBdU/iQOxkE8CoLbLBqY6qQIJeAUHIHcfB2qDHQBgr+ECWCtfB9CF4QIDe
eEAwRLXB10SoQEgp4D+Gh7nBWPCMQJH8qECOEsXBKYS+QOxjCb/w5L7BqenIQMjBXT/Q3JjBkl//
QM+2hUAo8KrBB+cXQT0Jp0Ak/b7BDN8MQbUE3EBVM77BOBcVQdnUwECDObLBKk8NQYjDz8DND4rB
AHAYQYhBosDDRYPB/Cb6QOFEscC3+oDBp9iSQOesiEAHFIXBNLnHQPFQZEAQ24TBaSO/QD59pkBx
ZorBe3gMQSiYL8CLTojBjB7iQK1eTcDfHIbBkK0PQU3BkMCcPZbBG6LoQKfEn8CR8pPBwa6dQMcR
z0C3UdDBmtBZQB9UMECONqfBzFv+P7ppbEDdHJjB0Yc0QJbAhUD1mozBBqcAQTEqp79UxKDBLfAN
QTtV7b9mP5vBauucQLXKhkA2drbB1l+nQOEaez/ID7LBBSGmQPOxoEAsUb/BKlqyQNB8mL5L17XB
kczWQLekLj8J1KLB5s/mQFAzjUCTfbDBjn3iQJx4E78HuKbBTGi7QDR7wT/O0KjBJQq9QM24eUBR
467Bz6jvQNEFqUC1DrnB4JnPQKovskBDr8DB6mTRQCdGh7/Na7DBNg7KQK8iWkB1QZvBwb2BQDTu
YkDB1ZjBCRSzQNRRPUDXgaXB6wYOQcVXvECtJbrBM6QzQX77kcB6JZHBUuiwQHjihkD/SInB6e0d
Qdh1HsAZapTBwZ4iQez7ecAtT5jBkEC4QFz14UA7nM7BuPipQE9WdkDRhpTB8N2FQMIdQ0CGeaLB
nF41QJZ3b0BL1ZPBcHvwQPtMWkB7NJnBkIjaQMvzykDNdsnBxuTeQDSTDsAvp7TBLpOpQP2gAEHV
/sfBybTHQF/880Cwq9fBbfR5QL6SdEDiaLXBkIOPQNgOyD8gO7bBiXeNQHBep0CnIsXBdfmiQDg5
Mr9M5LzBudbiQPeCgj9OMZvBORcAQbEyhEB2EqvBoicYQfgAp0Bh+r7Bk9gMQcm520C4Fr7ByScV
QR9NwECQKbLBv902QfalssBDAJTBAXhCQc8dfsA3dJHBV8UtQaxAk8BA24jBwmaSQF8FkUAns4XB
tXW9QLUpVkD15ITBEBLIQDZUoUBP1ojBTL8sQdAO8b8BrJTB5ukXQeLSIMBUJozBPIUoQZKgd8BF
mKDBktITQQ4CkMBN/5fBblSeQHpry0ApiNDBi+laQCEyMUAiI6fBezX+P0XuX0CRmpfB8T4zQNwG
hECrc4zBK77cQM1d1r8c7ZrB5D3nQOKBG8CtzZPBEL3mQFczjkDkwrDBoba5QDYVhD+HirPBrtbu
QLi3qUBiaLnBo6/BQLBCor7uErbBb3fIQPOvED8lwaDBCgqdQCNmhkBZtrbB4dPQQK8sR79vTaPB
kPa9QNakvz/E2ajBdzm9QEvLekDLG6/BnUulQOQioEBjtL/BsWTOQMPTs0D11sDBVojNQKmgnL97
/a3BCYjKQM/xWUBjlpvBbveBQD9FY0CYEpnBpLOzQEEUPUCD0qXBflmBQGUwpEDr48fBnYgRQfU5
mMCZCJjBFb6xQDFPhkBOdInBJY/0QJF+VsA3XovBFqf9QKVXmMCe8Y/BrJK6QHmt7EA2B83BxW2q
QDYKdUAutpTBPSqGQG07QkB5saLB0qg1QN0DckDNHJTBc+PwQBQgVkA3iZnBXijaQB2SzkBLNMnB
rkzVQK8kIcC9i7DB/UbKQFp6CkGRcszBBYexQHtT40CAadfBHCoAQVLShUBqWKvBD0mwQBAL3D+c
xrnB/S0HQV1Xt0A2YrrBJbS+QFAcKL/FPb7BtxPKQCa+Yz/8hZjBtMx6QN91ckCqmLXB50taQBnb
v0D73cXBpiWPQEm4qEAO6M/BNKNbQAvohkA8zsfB6iIUQTHiuMB3DJvBN6ANQSTmgsCXwZ7Bhycg
QXDNjMCsDZTBpj6TQMfgj0C7xIXBEQG/QNdmVUAOHoXBh3TIQP8noUDEEInBHOgIQYvHPcCAkofB
v/DaQGkXW8BNXIXBHa/gQKQJpMCt/5PB3t4CQfDwrcDDS4nBfYqdQKDB6UAgG8jBDohbQMoeL0D8
SKfBuGL+P8pDY0AV45fB2tQzQFSvhUBIxYzB7RoAQWwjpb8Gs5/Bj7UNQc5K5r++JZrBsnudQE7T
hEA1xbbBy0WnQLF3aj9L2LHBcmumQDS3n0CYdL/BiX6yQGo1wL4IT7XB5TLVQKfWKD8OSaLBjXXn
QCSrikDN4bDBgTXhQMjoGr9k3aXBeLG6QIpsvD96najBxoe9QDi9dUDuMK/BXEHwQBb2pkCjW7nB
9bjPQGzisUDctsDB5B/RQOjWjr/fk6/BwjnKQN6GWEDcZ5vBjwKCQD6eX0As1ZjBrgezQHZpO0DL
oqXBl0sOQUOGukBbW7rBTA4qQT7Ie8DqFqPBj4axQLZah0CHiInBLV4eQX84GsDTqpPB51EiQcwp
d8CPWJfBAWm3QKZY3EDbrs/BY0WqQHtMZkCG+5PB1NuFQJ6dQkBEnqLByEk2QHQIc0BiGJTBhcfw
QH5nXUDPnJnBEN/ZQBprzkD+18jBCm7fQMKoEsAPjrPBSMHEQDsY/0DMO9XBg9WsQF3WvEBjtdbB
x417QHsib0CM27XBL8KPQLM3vj+FPLbBIrCNQIOqpkAhPMXBrqSjQFv8S78kWLzBU07gQNoWgj8o
nprBBIAAQYvhgEDQmavBYWAYQXjppUCHZ7/BJAcNQb1t2kA1Bb7B/IcVQUVovUAQXrLBiKYsQWeE
n8BTWKXByd8dQY5uX8BIXKjB0SQ5QTkkWMAW6qPB5huTQGMjiUByIIXB9aXIQNt6aEAf7oTBWUS+
QGbTp0DHtorBCz4tQclq6r96hJTBalwZQTlCGsAbO4vBQkwTQe+ujcCSm5bBSpEuQcQJisBgKZLB
H52bQNSa5EC/scrBdZlaQExyM0AvYqfB3bn/P10Ya0CRL5jBgpU0QL5+hEB1lYzBwVkKQay2ar8b
76bBy+MbQQHrqL95YqTBp5qdQMskhkCgsLbBhricQAWlRT+pea7BvkymQCihoEBvc7/BfX+jQK2h
GL/RarDB2PXlQNfwfT9gIajBR5bmQNHnj0C1TLDB8UnsQLP4wL5bwKnBTxa9QG+Uxj+JianBDWy9
QEQGfEAT7a7Bzy/vQOZaq0Aq8LjBBUXPQCxbs0C8sMDB0aPKQF0kmL95iq3Bj3zKQJ6rVUAaNpvB
tByCQGYzXkCD2JjBouuzQINWPkDOyqXBuY8NQSmxv0D07bnBvLUlQTwriMAqoqDBJ9WwQOQXhUAv
T4nBuQwxQfkl5r/GXqHBC+k0QUUSTsB8xqXBVRu5QPhR50Dwuc3BGxeqQMhPY0Bz4JPBInOGQDpj
RED8vaLBMww2QMIecEDgHZTBMMrwQHItW0DdKpnBewvaQPq7y0DxhsnBrkfPQLPxIcA/R67B9VrM
QBe7AkED2tPBwC6dQA9a0UCV/NPBxKl8QF+gb0DL27XBw5N9QAOSnT/Yv7DBJqGNQBvTpkDNTMXB
ELWKQFJnmL+4G7TBDz4AQWJWzz/by6XBaar/QIlpiEBeqKrBUBcYQbKbqkAGnb7BSx0MQS3M3kAU
/L3BOWYUQXdrxEBN6LHBOP0oQesLqMBv/KPBq0ooQezMiMAa7pfB8AUVQX18fsBGUqLB3CCSQIry
hkD2B4XBbWbHQBLQYkBRr4TB1Ae+QBx8pUBWTIrBJzk9Qf0Pj7/DpqTB1U0yQYqZ6L8LmJjBRIpF
QXi8YMCaFaTBiEUyQR6fTcDGea7BbRGoQG939kB2BcfBxRNcQECHNkCznafBO/T/P6qFaUAEUZjB
rbIzQEjTgUAEgYzBSdvjQKDlx7+n/prBfRbvQOLhD8AKiJPByEecQOLQhUAaurbBNhy3QIGOfz9i
X7PBq0OlQKqHoEBab7/BC4zEQLrImb52DbbBUNfHQCtbET9PrqDB9CzmQOAWjEAVzLDBxKXVQJyh
N7+HYKPBY8m7QDDAvD8swajBaF+8QLnid0AmLK/Bpf3uQLY/qEB/SbnBgoXOQPL3skAZssDBrL/V
QBvmkb90Ia7BxxfKQMSAV0A3s5vBoeGBQABaY0DOIJnBYGmyQNFJO0BD16XBhsANQX5pu0BxUrrB
ESoKQWD0q8CI/4TBUESyQKAciUDu7onB9RH8QOp4RMDSg4rBk/cCQaTjj8CmbI7BNbi3QO4H3kB6
ENDB7VuqQHWYakASZZTBJkiFQLJbQUAQr6LBrqo2QJ1keUAVZJTBCovwQLEvU0Daw5nBLSzZQMxV
z0D84sjBXT3mQMrLFcAg7LDBe5WoQMonvUC0HtbBp02XQOhK8UDLlsrBtBd5QBVScUBXyLXBgC6p
QE5O0T9La7nBJpeMQNgvp0BWQMXB7afBQLgMJ78yML7BtGjGQEDUXT+9YpjBfqD/QKCpgkDIcqvB
Pr4XQSB9pkCWVb/Ba54MQd4720B4Cr7B2QAVQe1kvkCfVrLBWaQNQSl5zMAq4ofBkqgYQW0xnsCM
YYHBhLH6QBRKrcAq9H3BtbiTQEVFjUByr4XBL4LHQLnRaEDiMYXBdoLBQASCqEAdFIvBuW4MQcPe
KMDKz4bB4A7iQL2iRsCgl4TBPc0PQXOojsAhcJTB2/roQBnBncCrCJLByjfGQG3Y9UCsb9XBrzVZ
QPBELkD5LqfBkV7/P2mQb0D8S5jBzwM2QFCQiUAPEY3BP8XfQG7px79QtJrBOCTrQBHYEcBLcZPB
vYicQLjLhkD2ybbBAvO3QBEygz/ebLPBwLClQCNzoUD8f7/BJ+vDQEmglb7a9bXBWJDGQD/yFz8u
naDBOInmQC+ejEDN2LDBrcLSQNYINr/HKKPBdga8QN5swD8WyqjB4qK8QAx5eUBCPq/BeZ/vQPtd
qECdZLnB0DjPQE8Xs0CCzsDB5AbTQHvkkr/34a3BWDjKQCoSWkDPyJvBjwiCQEYpZEB6KZnBnbOy
QIkiPUCJ6aXBEw0OQWOQu0BAZLrBMYAUQdN7j8D5PJjBXzCyQA7thkA9vInBH9j5QCQ/S8AfDovB
gVMCQcHtkcC12I/Bru+2QG3b3kDBf8/BIpWqQOEmd0CR+ZTBt52FQN39QkBmwqLB6pg2QAbWcUBQ
CpTBt2TwQJYBU0Amo5nBjrbZQMPKzkCgEsnB7bnhQM4qGMBNfrDB/uTEQOfkAEHO39TBYjSqQBSx
wEAjq9bBGnB5QI+yc0C81bXBRZurQNNs1j9jmLnBQfmMQIyiqEDxQ8XB8oHBQAttJb/TGb7BITbF
QBzRZz9qWZjByNT/QBNOg0CKcKvB3RwYQbmQpkA8Wb/BXO8MQZlN20DXJ77BUTYVQbu8vkBoZLLB
dr8XQbKur8DJZpvB0p0PQeWOdMD10p7BQA4jQXq9gsDuc5TBZQWUQAaLkUApD4bB6We+QBicVUCZ
aYXByNnJQI3uoEARUInBllALQcw9MMB7R4fBLIPgQDZ9UsAyA4XBxdHnQPvsnsCqtZPBUVkHQQJj
p8CjVonB9CicQPSA50AtNsrBCvlZQDhHMEC4TKfBNJn/P68fYkA6rZfBXH81QCm1hUBVtYzBTGwB
QSemn79W0KDBUBgPQSTB4r8oY5vB3qWcQC4hh0Dlg7bB5lunQAdbeD/HI7LBEhCmQHtgoUD2T7/B
10uzQFU8mr7j7bXB9QjWQFtdLz/MwKLBQJHmQCvIjECrjbDB3QLjQFpADr8rs6bBfbO6QG3AwD+s
0qjBX6u8QDyBeUBb867BFanvQF7DqECDD7nB1bvPQPpxskD3q8DBAcPSQFNAhb/xebDBlNLJQEP7
WECuTpvBg42BQCzVX0BEpZjBpnSyQHUjPUAZkKXBmRwOQanEu0BuGLrBwswPQRD8l8D0lJfBEmOx
QKWyhUDPMonBvU0fQRrXGcAeu5TBr7wjQWD0dcBxmpjBuiu6QDEi5UBFJM7BTPCpQMzEZ0BF6JPB
i0eFQBmEQ0AAeaLBlpg1QE7YcEDrtJPB32TwQNcuXECPepnBijvbQIIty0DraMnB5L3hQJUtDMCp
yLTBt2zNQL03AkFe5tPBs0+hQLCrzUAV29TBGUh5QGZ1dUCHgrXBq1WPQKkzxT83WrbBaGWNQK2f
qEAeFsXB7lakQPxANb9+Ab3BswbhQNkggj/QAJvBCuT/QLNgg0AOKqvBOysYQf1spkBN9r7BNBEN
QaNL20Bg+b3BTTsVQblav0AGGbLBy7QTQT1euMC6bJrBA8wKQfV8mcA7J4/Bw7QCQeG6isCNcJzB
7L2SQPtZiECK64TBygfHQBH+YED9t4TBR/u/QEKYpUDD7onBBy4uQVLC6L9MKpXBs6MZQcLFG8AS
Z4zBDb8wQYGniMAPw5PBzacoQdnKc8BhDKHB24amQB4r80DavMfBTFVZQGFSNEAkOKfBfJX9P0uY
Z0BbrJfB23A0QEowg0CqLIzB

> <OMEGA_E>
WJgVP7AFFj9EVRY/HE8bPzBhEz+U5hQ/rDkVP3xCFT8EWhU/

> <OMEGA_NBR>
    123859

$$$$
50168838
  -OEChem-04172616093D

 50 52  0     1  0  0  0  0  0999 V2000
    4.9383    4.1271  -22.9091 C   0  0  0  0  0  0  0  0  0  0  0  0
    4.8843    0.4871  -21.0634 C   0  0  0  0  0  0  0  0  0  0  0  0
    5.2151    4.9919  -23.9824 C   0  0  0  0  0  0  0  0  0  0  0  0
    5.1807   -0.8498  -21.3815 C   0  0  0  0  0  0  0  0  0  0  0  0
    7.2088    4.4384  -22.0784 C   0  0  0  0  0  0  0  0  0  0  0  0
    7.2150    1.0954  -21.4582 C   0  0  0  0  0  0  0  0  0  0  0  0
    5.9197    3.8709  -21.9203 C   0  0  0  0  0  0  0  0  0  0  0  0
    5.9003    1.4779  -21.0955 C   0  0  0  0  0  0  0  0  0  0  0  0
    7.4926    5.2998  -23.1548 C   0  0  0  0  0  0  0  0  0  0  0  0
    6.4869    5.5973  -24.1015 C   0  0  0  0  0  0  0  0  0  0  0  0
    7.5151   -0.2499  -21.7679 C   0  0  0  0  0  0  0  0  0  0  0  0
    6.4904   -1.2196  -21.7363 C   0  0  0  0  0  0  0  0  0  0  0  0
    6.3152    3.3571  -19.4440 C   0  0  0  0  0  0  0  0  0  0  0  0
    4.0543    3.5688  -19.1313 C   0  0  0  0  0  0  0  0  0  0  0  0
    5.5955    2.9432  -20.7338 C   0  0  1  0  0  0  0  0  0  0  0  0
    8.8767    5.9156  -23.2805 C   0  0  0  0  0  0  0  0  0  0  0  0
    5.5588    4.1939  -17.1852 C   0  0  0  0  0  0  0  0  0  0  0  0
    9.8454   -0.4003  -21.1920 C   0  0  0  0  0  0  0  0  0  0  0  0
    9.9240   -1.5817  -20.2030 C   0  0  0  0  0  0  0  0  0  0  0  0
    5.9149    7.6022  -25.2551 C   0  0  0  0  0  0  0  0  0  0  0  0
    5.3237    3.8186  -18.5893 N   0  0  0  0  0  0  0  0  0  0  0  0
    4.1736    3.1252  -20.3611 N   0  3  0  0  0  0  0  0  0  0  0  0
    2.8356    3.7718  -18.4946 N   0  0  0  0  0  0  0  0  0  0  0  0
    7.5120    3.2855  -19.1832 O   0  0  0  0  0  0  0  0  0  0  0  0
    8.7870   -0.6185  -22.1628 O   0  0  0  0  0  0  0  0  0  0  0  0
    6.7783    6.4495  -25.1483 O   0  0  0  0  0  0  0  0  0  0  0  0
    6.7622   -2.5119  -22.0344 F   0  0  0  0  0  0  0  0  0  0  0  0
    8.9074   -1.5240  -19.3006 F   0  0  0  0  0  0  0  0  0  0  0  0
   11.1089   -1.5372  -19.5396 F   0  0  0  0  0  0  0  0  0  0  0  0
    6.6035    8.5993  -25.8682 F   0  0  0  0  0  0  0  0  0  0  0  0
    4.8153    7.3100  -25.9990 F   0  0  0  0  0  0  0  0  0  0  0  0
    3.9699    3.6543  -22.8379 H   0  0  0  0  0  0  0  0  0  0  0  0
    3.8758    0.7624  -20.7925 H   0  0  0  0  0  0  0  0  0  0  0  0
    4.4523    5.1948  -24.7196 H   0  0  0  0  0  0  0  0  0  0  0  0
    4.4000   -1.5955  -21.3532 H   0  0  0  0  0  0  0  0  0  0  0  0
    7.9840    4.2067  -21.3631 H   0  0  0  0  0  0  0  0  0  0  0  0
    7.9962    1.8400  -21.4983 H   0  0  0  0  0  0  0  0  0  0  0  0
    9.5185    5.2563  -23.8834 H   0  0  0  0  0  0  0  0  0  0  0  0
    8.7979    6.8977  -23.7696 H   0  0  0  0  0  0  0  0  0  0  0  0
    9.3154    6.0387  -22.2793 H   0  0  0  0  0  0  0  0  0  0  0  0
    4.6135    4.5252  -16.7304 H   0  0  0  0  0  0  0  0  0  0  0  0
    5.9461    3.3247  -16.6334 H   0  0  0  0  0  0  0  0  0  0  0  0
    6.2927    5.0121  -17.1424 H   0  0  0  0  0  0  0  0  0  0  0  0
    9.6399    0.5254  -20.6345 H   0  0  0  0  0  0  0  0  0  0  0  0
   10.8061   -0.3052  -21.7193 H   0  0  0  0  0  0  0  0  0  0  0  0
    9.8548   -2.5102  -20.7889 H   0  0  0  0  0  0  0  0  0  0  0  0
    5.6146    7.9162  -24.2446 H   0  0  0  0  0  0  0  0  0  0  0  0
    3.4027    2.9346  -20.9689 H   0  0  0  0  0  0  0  0  0  0  0  0
    1.9812    3.5772  -18.9765 H   0  0  0  0  0  0  0  0  0  0  0  0
    2.8131    4.1123  -17.5547 H   0  0  0  0  0  0  0  0  0  0  0  0
  1  3  2  0  0  0  0
  1  7  1  0  0  0  0
  2  4  2  0  0  0  0
  2  8  1  0  0  0  0
  3 10  1  0  0  0  0
  4 12  1  0  0  0  0
  5  7  2  0  0  0  0
  5  9  1  0  0  0  0
  6  8  2  0  0  0  0
  6 11  1  0  0  0  0
  7 15  1  0  0  0  0
  8 15  1  0  0  0  0
  9 10  2  0  0  0  0
  9 16  1  0  0  0  0
 10 26  1  0  0  0  0
 11 12  2  0  0  0  0
 11 25  1  0  0  0  0
 12 27  1  0  0  0  0
 13 15  1  0  0  0  0
 13 21  1  0  0  0  0
 13 24  2  0  0  0  0
 14 21  1  0  0  0  0
 14 22  2  0  0  0  0
 14 23  1  0  0  0  0
 15 22  1  0  0  0  0
 17 21  1  0  0  0  0
 18 19  1  0  0  0  0
 18 25  1  0  0  0  0
 19 28  1  0  0  0  0
 19 29  1  0  0  0  0
 20 26  1  0  0  0  0
 20 30  1  0  0  0  0
 20 31  1  0  0  0  0
  1 32  1  0  0  0  0
  2 33  1  0  0  0  0
  3 34  1  0  0  0  0
  4 35  1  0  0  0  0
  5 36  1  0  0  0  0
  6 37  1  0  0  0  0
 16 38  1  0  0  0  0
 16 39  1  0  0  0  0
 16 40  1  0  0  0  0
 17 41  1  0  0  0  0
 17 42  1  0  0  0  0
 17 43  1  0  0  0  0
 18 44  1  0  0  0  0
 18 45  1  0  0  0  0
 19 46  1  0  0  0  0
 20 47  1  0  0  0  0
 22 48  1  0  0  0  0
 23 49  1  0  0  0  0
 23 50  1  0  0  0  0
M  CHG  1  22   1
M  END
> <OMEGA_C>
2QaeQOEQhEDORbfBZkycQIJg+T7hgajBauKmQAm+n0D327/BocilQPuNWb9ADavBTa7mQHcHjkCZ
oLDB8eDmQO00jD9UqqvBkW69QDC9d0DAXK/B4s68QPosvT+vw6jBkcPvQDqYqUAOPbnB1pTPQHQd
s0DQz8DBTnvwQJHrf76lJK7BjbHPQDgdnL/n463BtxXKQDraVkBbjZvBGL2BQNJmZEDaDJnBKg6z
QHRdPEDg3qXBywYOQXNMvUB7PrrBbuGxQCM0hkAxe4nBrYYdQSj3zL5FianBjcgeQT52yr++n6HB
lka9QI5F80CKCsrBoVuqQI5jdEDntpTBcI6FQM4DSECW46LBJ3o1QH9kcUDy9JPBZGLwQIlFUkAi
d5nBlZcMQfpXHr9WTbHBlufYQFpizkDRL8nBoGPYQMHCIMCBRrDBmIQOQS8Sw7+ZZ5rBPr4xQe/D
xL8FUZzBLVDTQLiWCUEW8s7BqxaaQNzr6UD1/c/BIRN+QAfgaUAYtLbBcgx4QMQrQz8PV6bBgHmO
QKE7pkCkwcXBs8yMQDE5zL9y06rBI33/QCydhkCb56rB+uD/QAWE6z+F/KvBs0sYQbszqEAfEb/B
AcQMQfG53EAyKL7BrwsVQTw9wUALPLLBIaKTQH3OkEDz14XBRUa+QE/HVEAbEYXB8l3JQAVjoECa
I4nB8zwaQdV+Bj9rE6XBveUsQfpCnL4Swa3BNK0dQXSmIMCZT6bBsaqzQLNR/UDm9MHBYMZZQO7P
O0A/wKfBepj9Pz/xZEDbz5fB3wk0QDiYg0Dub4zB/ReeQFM0hEBBR7fBdq7nQMlvjT9clavB5O+m
QPfZn0Ci4L/BYfnwQFGRcb4NJK7BD9XmQDsjjkBJp7DBZuScQJ0rAj8GuKjB/5O9QHkneEDKXq/B
G329QErzvj+TzKjBTQbwQINAqUDEVbnBPrnPQNrqskCK28DBDTmmQHsPVr8WHqvB8FLQQEx5mr9w
663BLEDKQC6aV0B9iZvB29aBQJ32Y0A8CpnBemOzQEL5PEA036XBaAoOQdiCvUDVPrrB/sexQIEj
hkCgconBs+JhQHNn/L/osqDB/82IQGtnQcAV75nBLpy9QJ+A80B32snBrGCqQERpdECosJTBZ9CF
QJE4SEC/5qLBIoc1QIghcEDv8pPBGIrwQI1tU0DlbZnBZg6GQFhX5L9z+arBfcXYQJU6zkBCOcnB
y57ZQDbPH8B6PrDBdoSxQHtqJ8DD1pfBAhKKQG9hhsChXZ/BfGHDQKBVBkFxEsHBbpzIQBQQBUHG
tNLBtzl+QCwiakAzsrbBi3EAQeP66z/RvqvBNHiOQOmEpkBOv8XB/pkIQQkrBb+fRrDBi4//QOX9
hkBZ46rBWOp4QLYWSz8by6bBjIUYQaGwqEBqB7/BbKUMQYzq3ECOKL7BzOYUQcaawUDcNLLBDnCT
QNttkEDazYXBLmq+QDLCVEDiDYXBIwnJQPOFoEBTFYnBT9QfQCn4E8DeD6LB//tgQHXsgb8YXJzB
AgFuQMpzScDKaJLB2AucQK0b6UDCYcrBTWxaQBYyPECJyqfBsvT9P9WLY0Bq05fBI9szQA68gkDb
aIzBQLKgQKiygUCkprfBbFOaQDTrQT9T4q3BcwSpQD+QnEBnVcDB6hCgQFaVIL8KPK/BMy7nQLN9
kUBBVrDBVK7jQMBudj+A6KfBEAS/QPH0eUCsYa/BX3W7QJBBxT+NX6nBOq3vQIvBrECiBbnBXmvQ
QIvoskAiC8HBh+3oQCtB4b5zeajBu2vGQAAVnr9E66vByv/KQJWSV0BKbpvBSpSCQCSnW0BV8pjB
kVi0QG+AP0DkBabBrSgNQXXxw0CxnLnBTPawQC5GhUBSeYnBqXgYQdIjMr4OeqLBBqcrQWbgc78A
oZ7Bcfu2QBRg2kCfTtDBjZmqQAOdY0AID5TB3QOHQJF8SkAhIqPBuKA2QP8EZUDc8JPBBUbxQCC/
XUAoXZnByS4HQUDmh7/JU6XBSN/ZQI2tzkACW8nBFtvJQHdPJcBv9KvB9HgmQYADzb9Yb5XBY5k7
Qbh7eb2nwJzBdE3CQAMG/kCewtXBvNmuQMJSukC1YtfB48+CQFfQYECNRLfBw095QJGDnD+NSbDB
7UyRQBFZoEDhi8bBcAyHQD2QnL870LLBn4H/QAUpjECeWKrBOAv/QOvIyz/sU6bBRL4YQXwqsECN
Bb7BOgcLQeaq4kCpxb3BcyYTQQTOyUDsd7HBuECSQPhahkBwLoXBRATIQJYgZEDa34TBHGS9QF36
pUBacYrBwhQTQasMAD8TEZzBPAkdQX091j4XiKnBPFMwQRp71b/G5KTBcG6aQHCy4ECZaMvB6Wdd
QGF4RUAMTKjBP5MAQL6mXkBYJpjBGvwzQGUmckA2HozBVdidQBVXhEA2DbfB1kucQKakKT/jh63B
IHmmQMwZoEBDnL/BRGOkQMNBL78hF7DBGnbnQJu0i0Dq7bDB8/DlQNVSaD/yc6fBz829QNQKdkAg
Yq/BLba8QJiDuz9/26jB2VfwQFuep0A9frnBsZbPQOO4skAhzcDB2dTtQAQz5b7IqanBV9/MQFTq
n78+Ea7Bo17KQKTwV0ATfpvBK+6BQGNqY0D8CpnBBZezQHt2O0BW2KXB7WUOQbr+ukDuhrrBHcKx
QGdUhkBBconBtCYMQVOlBsBGxKDBAT0hQT3LBMCqc5rB7qq1QGCw5kArhM3BWF+qQE3dc0DvqZTB
DvuFQIodRUB0yqLBWro1QEDGcUDCCpTBA7nwQIKSWUD0ZpnBJSwLQVW0br92jqfBPjDZQDBNz0Au
9cjBCe3TQIbjIsBjprDB720kQYHiUcCPspXB8HwgQRBujb/N0ZLBUNbEQHDBBUE219HB8qCiQJBB
z0BZW9XBtxl9QL3za0BwULbB7mB6QO1Liz8ZI6/BOJ2NQJ9Wp0BYVcXBAHGLQAHYpL/ynrPBFWIA
QWbqgkBweKvBnsD/QBZMxD83o6TBPGwYQek2pkBHj7/BWjANQV/Z2kD7OL7BFqkVQbLyvUCVi7LB
JEuTQJUnkEAeyYXBUv2+QGXgVUC+BIXBNYXIQJUnoUDcJ4nB2YILQRvCQMA/uaXBZh39QKpVBsBm
LZvBGjouQRy97r/qJaDBNH2eQNzl7UC0JMfBI75aQOBhNkCwj6fB80n+PxTfZEAl5ZfBnhc0QCuB
hEA1l4zBjeSdQEQxhEDHCbfB6mGcQDyvKz94ma3BSIKmQNDnn0C9m7/BGV2kQASzLL9PPrDBsnnn
QHizi0Bd57DBOtzlQLyUZj/ASqfBvta9QEbxdUBwW6/Bw728QG+Fuz/zy6jBdFjwQISRp0B5ernB
iZnPQOyUskBPzMDBepDtQHMB6L6vvKnBms3MQLSwnr/pPK7BBFbKQDskWEDrc5vBbN6BQAduY0Aa
B5nBxKGzQEJ8O0CizaXBhmIOQcADu0DwgbrBppWxQGx9hkCZbInBmv8RQao1a7++6JzB2dQgQYzh
BsBvkprBpaa1QH1u5kDXis3B7EaqQAcGdEBVo5TBov+FQPEURUD5xKLBdIQ1QAq3cUCJC5TB867w
QBL4WUDNW5nBRXgKQVjsgr911qfB9S/ZQE0gz0DP9sjB0RDUQGGwIsAwlLDBzPExQayIBMAiSaHB
mfwVQXByUcBTIJzBysjEQJagBUEO4NHBS7CiQKHszkB3YdXBazt9QLOTa0ApTbbBwMN6QEoIjT81
Pa/B6qiNQPoPp0AiV8XBcmmLQLYJo7/w0LPBfWMAQaL7gkDSb6vBdo7/QFrLwT++PaTBNnAYQeU8
pkDahr/BCygNQYzX2kBEN77BjKAVQYsKvkDdhbLBShWTQMBGkEC0xoXBZ9m+QIpNVkB1+4TBw0rI
QJdcoUASI4nBu0kEQeVycL/PZJfBQ9kaQYaqvDya3ZvBVSQmQVPZAcCtNJLByG2eQNWj7UDnLcfB
NdtaQHVHNkCNjKfBNAL+P462ZECT6JfBhb8zQHB/hECumIzB7DyeQF9eg0CMP7fBwKbnQJdSjD8/
lavB+7GmQPwEn0AH1b/BquzwQEqder7fIa7BYOXmQHPKjUADsbDB4uWcQIPh/z4vnajBd729QJQ1
d0BfXK/BHoG9QFbWvT/lwKjBANTvQI38qEA4YrnBDVvPQOO4skDN4sDBpUGmQGftV7/2C6vBGUjQ
QDuFm7/c3q3Br1PKQANQV0DHh5vB4OWBQPBUZEDzE5nBiYKzQPlpPEDH2KXBMPUNQbY9vUCjUbrB
9cmxQHlzhkBnfYnB9YNgQKsi+L8csqDBlZBrQPBVWMCSspzBSfi0QMLd5UCat83BaXCqQL6fdEDg
t5TB4uqFQErYR0DJ5qLBIZE1QNswcUBpCJTBEJ3wQLQgU0BebJnBOFSGQJ+e5b8o3KrBs73YQOYZ
z0B9F8nBKH3ZQIRgIMC0MLDBkB2gQDbsacDKXpvBsRlKQLzIh8Ai/qPB6KjDQFxwBUGbCtLBc4Gi
QAMLzkCukdXBqdt+QPHGZ0CDqLbBb2sAQdDr6j8UyavBIA+OQE9ZpUBmrsXB8Y8IQWCEB7+gSrDB
4sP/QOCyhkC59arBQgh5QK19SD/snqbB3GYYQQVzqEBrIb/BPIwMQZiu3EBiNr7BDt8UQYFBwUDr
SbLBS3OTQE/rkEAY4IXB1Eq+QFJ7VUDJDYXBHCHJQKzDoEDEJYnBjQ0cQJYo3L80xKHBLOh7QKey
nr8Z05rBlZNJQGElXsB+BpXBKYadQKrE7EBfYsfB9KxaQIprO0BqyKfBfCH+PzqMZEDa6pfBFMoz
QN6Kg0DRhIzBBcqdQOZXhEAjC7fBbTScQFl+KT8ihq3Bb2qmQJwdoEAnmr/Bi0ykQEcGL79pI7DB
323nQMShi0Ak77DBAN3lQPxCZz+FZ6fBksS9QATsdUAJYq/BYKG8QBgruz/o0ajB/UfwQBOip0DT
e7nBqYnPQBm4skDPy8DBzLLtQNsV6L43uqnBb93MQIVcn78JLK7BMlnKQODiV0BafZvBLOqBQMp4
Y0AFCZnBCI2zQLtfO0Ds1aXB7WIOQajkukBBjLrBVsixQGRLhkDncInB27cSQdzQe7/DKJ3ByT0K
QTpYDcCg9pbB0Ki1QGK55kBFgs3BL16qQG/Xc0CFqJTBV/KFQF8iRUD/x6LBArc1QOfvcUDBCJTB
b7TwQJRmWUC0ZpnBqOkKQdBLf7/9HqjBUSjZQMFFz0A39cjBWDXUQIjgIsBmkbDBi4DqQCP+AsDc
YZTBWMUVQWeVF8D11Y3Blt7EQIHFBUHk09HBoZOiQFdXz0AVWtXBCPV8QGsJbEDgTLbB9S56QGpQ
iz9FHK/Bt4yNQHZfp0BYUsXBpFWLQIC7pL8SqbPBamEAQd/DgkCpfavBNKT/QCwvwz++gaTBglsY
QaEOpkC+l7/B7jINQTbA2kBEPr7B2rEVQWzQvUBnk7LBD1WTQLojkEC2xoXBi/++QEbFVUBoBIXB
VZHIQI0ZoUB6JonBNzkNQehPhL0ULpnBSFAkQfr+gL8sN53BhDAMQZqsRcCwJpzBKoCeQIrx7UDX
IcfBK6haQHdwNkD4jKfBZzr+P/kVZUDa4pfBWRw0QCaZhEB7lYzBTTieQPzvg0DkS7fBjKrnQGtG
jT/DlKvBNPqmQJCVn0B+5L/BIhDxQA94cr7MHK7Bk9LmQL49jkDTpLDBj/mcQH+V/z7tmKjBA6S9
QJD5d0CSX6/Bdny9QMdcvj/swqjBoOrvQFF+qUAHULnB2J/PQHQOs0Dm2sDBwHGmQMKSWL+N/KrB
EofQQMT8mr8K1q3BSTfKQI2PV0CAipvBn8uBQFISZEBUEpnBtmWzQJbKPEBi36XBjv0NQQG/vUCN
PLrBEa2xQFQ4hkATeInBNPxfQLXW/78x+6DBYomIQLXaP8AD3pnBXP+8QHIh80ArFcrBtFGqQA1+
dEDMtZTBTdCFQAgXSEDV66LBWmQ1QOptcED2/5PB9H/wQOxnU0BQbZnB622GQNFB5r/6CqvB1NLY
QHhnzkCdOMnBS93ZQLTvH8ByN7DB0CxdQFQCW8Cz1ZHByvGrQMqiGsCVkZXBrObSQFySCUHi+s7B
hOWZQJKX6UDvC9DBFJ9+QGZKaUBzurbBumQAQdIn7D89yqvB2omOQGH6pUDvycXBJ6UIQfK9BL9F
RbDBS5P/QEMlh0CR4arB/R55QG/NRz85nqbBEXUYQcjrqEDYBr/BBZcMQQwn3UD3Jb7BIt8UQcTV
wUCnM7LBAFOTQM+OkECQ1oXB9UG+QOnuVEBYEIXBv/TIQPuUoECoGonBtZgfQCMyGcAWnqLBMZ5a
QH6ZhL9Qx5zB9uORQM1PdsAk7p7BrUqzQIIg/UBdAMLBQXhaQL3vO0BE0KfBHMH9P4LNY0Df4ZfB
MKYzQCL5gkD8d4zB

> <OMEGA_E>
bOQWPyQzFz/Mrhc/DjAUP2SKFD/gKRU/GK4SP1h4FT8=

> <OMEGA_NBR>
    130943

$$$$
50157501
  -OEChem-04172616093D

 62 66  0     1  0  0  0  0  0999 V2000
    5.1384   -0.6413  -22.0769 C   0  0  0  0  0  0  0  0  0  0  0  0
   11.1791   -0.7873  -20.7419 C   0  0  0  0  0  0  0  0  0  0  0  0
    6.4023   -1.2071  -21.8295 C   0  0  0  0  0  0  0  0  0  0  0  0
    9.9382   -0.1976  -21.0257 C   0  0  0  0  0  0  0  0  0  0  0  0
    4.8853    0.7008  -21.7376 C   0  0  0  0  0  0  0  0  0  0  0  0
    4.9244    4.1991  -22.8446 C   0  0  0  0  0  0  0  0  0  0  0  0
    5.2093    5.0461  -23.9210 C   0  0  0  0  0  0  0  0  0  0  0  0
    7.1803    0.9309  -20.9573 C   0  0  0  0  0  0  0  0  0  0  0  0
    7.2170    4.4198  -22.0846 C   0  0  0  0  0  0  0  0  0  0  0  0
   11.2354   -2.1630  -20.4417 C   0  0  0  0  0  0  0  0  0  0  0  0
    8.9128   -2.3770  -20.6923 C   0  0  0  0  0  0  0  0  0  0  0  0
    7.4371   -0.4198  -21.2732 C   0  0  0  0  0  0  0  0  0  0  0  0
    8.7754   -1.0016  -21.0019 C   0  0  0  0  0  0  0  0  0  0  0  0
    5.8947    1.4911  -21.1319 C   0  0  0  0  0  0  0  0  0  0  0  0
    5.9200    3.8942  -21.8970 C   0  0  0  0  0  0  0  0  0  0  0  0
    7.5126    5.3618  -23.1063 C   0  0  0  0  0  0  0  0  0  0  0  0
    6.4955    5.6298  -24.0773 C   0  0  0  0  0  0  0  0  0  0  0  0
    6.3194    3.3689  -19.4177 C   0  0  0  0  0  0  0  0  0  0  0  0
    4.0553    3.5328  -19.1112 C   0  0  0  0  0  0  0  0  0  0  0  0
    9.1785    7.2968  -21.2138 C   0  0  0  0  0  0  0  0  0  0  0  0
    8.8700    8.2488  -22.3849 C   0  0  0  0  0  0  0  0  0  0  0  0
    9.7285    6.0224  -21.8745 C   0  0  0  0  0  0  0  0  0  0  0  0
    9.1058    7.4227  -23.6604 C   0  0  0  0  0  0  0  0  0  0  0  0
    8.9727    5.9277  -23.2316 C   0  0  0  0  0  0  0  0  0  0  0  0
    5.6088    2.9477  -20.7240 C   0  0  2  0  0  0  0  0  0  0  0  0
    5.5452    4.1434  -17.1469 C   0  0  0  0  0  0  0  0  0  0  0  0
    5.7054    6.8319  -26.0406 C   0  0  0  0  0  0  0  0  0  0  0  0
   10.1188   -2.9297  -20.4209 N   0  0  0  0  0  0  0  0  0  0  0  0
    5.3172    3.7822  -18.5566 N   0  0  0  0  0  0  0  0  0  0  0  0
    4.1841    3.0828  -20.3382 N   0  3  0  0  0  0  0  0  0  0  0  0
    2.8331    3.7430  -18.4848 N   0  0  0  0  0  0  0  0  0  0  0  0
    7.5172    3.4016  -19.1522 O   0  0  0  0  0  0  0  0  0  0  0  0
    6.7976    6.3943  -25.1962 O   0  0  0  0  0  0  0  0  0  0  0  0
    4.3602   -1.2385  -22.5286 H   0  0  0  0  0  0  0  0  0  0  0  0
   12.0812   -0.1935  -20.7534 H   0  0  0  0  0  0  0  0  0  0  0  0
    6.5828   -2.2455  -22.0649 H   0  0  0  0  0  0  0  0  0  0  0  0
    9.8720    0.8549  -21.2589 H   0  0  0  0  0  0  0  0  0  0  0  0
    3.9159    1.1316  -21.9400 H   0  0  0  0  0  0  0  0  0  0  0  0
    3.9358    3.7770  -22.7400 H   0  0  0  0  0  0  0  0  0  0  0  0
    4.4380    5.2602  -24.6460 H   0  0  0  0  0  0  0  0  0  0  0  0
    7.9803    1.5478  -20.5753 H   0  0  0  0  0  0  0  0  0  0  0  0
    8.0114    4.0948  -21.4291 H   0  0  0  0  0  0  0  0  0  0  0  0
   12.1908   -2.6165  -20.2232 H   0  0  0  0  0  0  0  0  0  0  0  0
    8.0320   -3.0016  -20.6722 H   0  0  0  0  0  0  0  0  0  0  0  0
    9.9290    7.7395  -20.5425 H   0  0  0  0  0  0  0  0  0  0  0  0
    8.2637    7.0739  -20.6450 H   0  0  0  0  0  0  0  0  0  0  0  0
    7.8259    8.5917  -22.3367 H   0  0  0  0  0  0  0  0  0  0  0  0
    9.5430    9.1186  -22.3606 H   0  0  0  0  0  0  0  0  0  0  0  0
   10.8129    6.1069  -22.0388 H   0  0  0  0  0  0  0  0  0  0  0  0
    9.5197    5.1404  -21.2512 H   0  0  0  0  0  0  0  0  0  0  0  0
    8.3521    7.6710  -24.4221 H   0  0  0  0  0  0  0  0  0  0  0  0
   10.1111    7.6175  -24.0622 H   0  0  0  0  0  0  0  0  0  0  0  0
    9.5468    5.2970  -23.9263 H   0  0  0  0  0  0  0  0  0  0  0  0
    4.5912    4.4357  -16.6838 H   0  0  0  0  0  0  0  0  0  0  0  0
    5.9636    3.2792  -16.6101 H   0  0  0  0  0  0  0  0  0  0  0  0
    6.2515    4.9850  -17.0938 H   0  0  0  0  0  0  0  0  0  0  0  0
    6.1033    7.4227  -26.8788 H   0  0  0  0  0  0  0  0  0  0  0  0
    5.1704    5.9541  -26.4322 H   0  0  0  0  0  0  0  0  0  0  0  0
    5.0124    7.4512  -25.4521 H   0  0  0  0  0  0  0  0  0  0  0  0
    3.4159    2.8590  -20.9380 H   0  0  0  0  0  0  0  0  0  0  0  0
    1.9816    3.5491  -18.9720 H   0  0  0  0  0  0  0  0  0  0  0  0
    2.8049    4.0882  -17.5467 H   0  0  0  0  0  0  0  0  0  0  0  0
  1  3  1  0  0  0  0
  1  5  2  0  0  0  0
  2  4  2  0  0  0  0
  2 10  1  0  0  0  0
  3 12  2  0  0  0  0
  4 13  1  0  0  0  0
  5 14  1  0  0  0  0
  6  7  2  0  0  0  0
  6 15  1  0  0  0  0
  7 17  1  0  0  0  0
  8 12  1  0  0  0  0
  8 14  2  0  0  0  0
  9 15  2  0  0  0  0
  9 16  1  0  0  0  0
 10 28  2  0  0  0  0
 11 13  2  0  0  0  0
 11 28  1  0  0  0  0
 12 13  1  0  0  0  0
 14 25  1  0  0  0  0
 15 25  1  0  0  0  0
 16 17  2  0  0  0  0
 16 24  1  0  0  0  0
 17 33  1  0  0  0  0
 18 25  1  0  0  0  0
 18 29  1  0  0  0  0
 18 32  2  0  0  0  0
 19 29  1  0  0  0  0
 19 30  2  0  0  0  0
 19 31  1  0  0  0  0
 20 21  1  0  0  0  0
 20 22  1  0  0  0  0
 21 23  1  0  0  0  0
 22 24  1  0  0  0  0
 23 24  1  0  0  0  0
 25 30  1  0  0  0  0
 26 29  1  0  0  0  0
 27 33  1  0  0  0  0
  1 34  1  0  0  0  0
  2 35  1  0  0  0  0
  3 36  1  0  0  0  0
  4 37  1  0  0  0  0
  5 38  1  0  0  0  0
  6 39  1  0  0  0  0
  7 40  1  0  0  0  0
  8 41  1  0  0  0  0
  9 42  1  0  0  0  0
 10 43  1  0  0  0  0
 11 44  1  0  0  0  0
 20 45  1  0  0  0  0
 20 46  1  0  0  0  0
 21 47  1  0  0  0  0
 21 48  1  0  0  0  0
 22 49  1  0  0  0  0
 22 50  1  0  0  0  0
 23 51  1  0  0  0  0
 23 52  1  0  0  0  0
 24 53  1  0  0  0  0
 26 54  1  0  0  0  0
 26 55  1  0  0  0  0
 26 56  1  0  0  0  0
 27 57  1  0  0  0  0
 27 58  1  0  0  0  0
 27 59  1  0  0  0  0
 30 60  1  0  0  0  0
 31 61  1  0  0  0  0
 31 62  1  0  0  0  0
M  CHG  1  30   1
M  END
> <OMEGA_C>
EW6kQCIpJL+NnbDBpd0yQbKJSb+C76XBbd/MQKqBmr+9oq7BrwIfQU9QSr64NKjBkFScQERmMz+v
5q3B9ZSdQPJehkC3wbbBxLKmQNV5oUAnXr/BusTlQDBRbj+hqKfBkPHmQCFvjUAyrbDBDcQzQTFu
CsCtiKPBA5sOQQkgGMDbiaXB/vztQAHv1r6PL6rBJmgMQQU0gL/yA6jBaaG8QCHcvj8oDqnBQnC9
QNs5eUAoLa/B52bwQAqUq0Cu2bjBQdvPQKMntEA6nsDBxDjKQGWbV0BuV5vBL8WBQOAYYkDQ45jB
+NoSQSR/6UD2tanBo+sNQTb7A0FaFLPB36cbQVm3wEAL/67BhLERQYiG7UCCSL3BEpAPQeSvvUBm
2rnBbnuzQHimPEC4yqXBgnKxQLuWhEDOLInBd5K2QPGe2kAnU9DBwuYhQc6AO8DwXaPBWyaqQEkP
ckDXc5TB7OOFQIZMRUCWtKLB7VA1QCWNb0DK4JPBl4zwQIu0WUCgN5nBsYXZQBaezEDFkcnBbYaL
QI2Gnr+ROrTBlUxBQa0sRr4FB6bBp6bSQMu2D8DahLDByfMdQTfZWj9KEqrBYJ16QBzYkD8Gha/B
teR7QL66cUCY67XBdgSOQIVTqEAQK8XBTl7/QPgcxj9NmqTBmC4AQVcIg0C2bqvBtQ1DQRZ1J8Ao
yaHBLoMAQdwZQMCoYKXBIt0eQfOp90ANV6TBJjgEQXpd4kABKaXB/236QGl3CUGXsbLBP7AYQbzl
EUFw4rLBfAEtQZ1rw0B0T7DBqFAYQWZ+pEBrAqrBAqIFQbx49UBqYMPBI8chQZ/C80Bsf8DB0b8Y
QWaBqUAfab/BduuSQGrxjUBgeIXB9tW+QGPeUUCI4YTBegzIQE+Fn0AYwIjBDE7DQMmG7UDZB9fB
HXSlQEqIvkAnddPB6mWgQNRv7kDYncvBK55aQJ/5NkAXgafBqaT9P88jY0CbxpfBC4MzQK3SgkCS
X4zBOFikQJB7JL+DnrDBtzUjQeVIOMD0aqPBPsPMQILgmr84pK7BkLAOQYYDGMCwjaXBmUqcQOcT
Mz/p5a3BQqCdQLhPhkDCwLbBg7+mQE1soUDFXL/BlL7lQA9MbT/aqKfB9PvmQJtejUBlq7DBJ/A0
QQ6SAMB1x6PBdPgeQQqeRL43NqjBl+XtQM1e2b7ELarBDl8MQc6wgL9qA6jBgJ+8QKqMvj+1DanB
dnq9QDoYeUD8K6/BbXPwQKGDq0C917jBaOjPQM4ZtEBYnMDBVUPKQE5qV0CAVpvB2NCBQFgJYkDB
4pjBTOESQcBn6UARs6nB5PINQfvwA0EDEbPBq64bQXWhwECz/K7BhLkRQYx07UCTRb3B7pYPQUCd
vUAn2LnBZYOzQKuCPEDOyaXBHYKxQHWLhEBpLInB7KG2QJKT2kAfUdDB9aMyQSTzMb95IqbBzzOq
QG7zcUAec5TBkeyFQPU2RUBOs6LBsmo1QByOb0DJ35PBeJfwQItoWUCrNpnB6pPZQDKSzECLj8nB
dmuLQGeInr+SPLTBUGUlQQ4ke8AxhKHBeoLSQMPjD8A1ibDBaOUAQdqaQcBuUaXB3416QIjOkD+w
gq/B/Pp7QBmccUAd67XB8BGOQJZHqEDCKcXBJWH/QPaBxT/FnKTBJTMAQfX3gkCBbKvB+7ZEQfuH
GcCuI6LB8mIdQV2lWz+NEqrB9uIeQeKQ90CaU6TBCD4EQclE4kCYJqXBkHz6QFBtCUForrLBpLcY
QVvbEUFj3rLBTAgtQWdWw0D7TLDBfFcYQRNnpECUAKrByqoFQfpo9UCwXcPBlM8hQXGw80D1e8DB
PcYYQQ1vqUAfZ7/BHv2SQOTujUBPeIXBwN6+QNzEUUBp4ITBfCLIQM50n0BMwIjBZl7DQOJ87UB0
BdfBqISlQDB9vkCkc9PBJXSgQDBj7kDXm8vBS6xaQFPoNkCAf6fBftP9P80sY0B9xZfBBaEzQBPV
gkC6XozBi5jWQECdK74Py7XB3eexQFuxKcCLdonB7QDPQKbDlr90NK7BlBa6QBbmz7/305DBpjLO
QCyrlj++P7PBp/WcQD/ch0C/o7bBzT2mQPhOokBPW7/B/4m2QD2WAD92daHBgg7mQJsFkEAfZ7DB
MbamQDWae8CuRI3B9I2rQPS5TcCTF5/Bif++QHEtWb+q86PBl+S2QMCi87974ZvBAwa+QNI8wz9F
AKnBG6q8QKHDfUCI967BgbnvQKQ0rUC8v7jBbWnPQNrwtED9n8DBcUTKQBHAV0DleZvBjciBQGtZ
Y0AdB5nByY4SQVzE6kBwpKnBFXwNQV2uBEG597LBPHobQQBEwkBiAa/BehcRQScZ70CLN73B3DIP
QdE9v0C3zrnBn3izQAJTPkAV3KXBvZmxQGdphUCDV4nBoXi2QL502kDffNDB+bWjQKExhsDE35fB
VE2qQLn5c0BGoJTBqeKFQFLlQ0DHvKLBK2M1QG5ycUCrBJTBPXXwQFt/UUB8VZnBgFXZQAWXzEBe
sMnBwuniQK6F2b5emb3BmSi0QDitHcAp+YDBtmnVQJthDcDSNbDBgLHCQEa6Ir/mF47BFhPUQAdp
+T9XHbnBHbl6QMeOdECyyrXBjLONQFywqEA/OsXBSSSqQBS9QT+zp5nBUjT/QE2ZhkDu9qrBtGCg
QBYWl8BgmIfBwRmpQN4aXMBShafBYYkeQYn5+EAEQ6TBEPcDQaFR40CwFqXBHJP5QAYrCkGhgbLB
hUIYQa6XEkGqybLBEsosQeBWxUCFZLDBeF0YQU3ipUDFCarBT9sEQTX19kDaOsPBUBMhQUyT9UCW
hsDBcE8YQRQxq0DhbL/BVTqTQK+Qj0B7sIXB0Cm+QMjjUkC3BIXB1N/IQMzBn0BR44jBqlbDQN6z
7EB9StfB8wKlQLlSvkCBedPBI5GgQGTf7kCa3MvBTNpaQB0bMkBXZKfBIbL9P0l2Y0Be0pfBfrEz
QD/JhECGnIzBK5TWQEK/Kr5Qz7XB0AikQOOrhcC3GJfB2v7OQGnDlr+YOq7BJJirQKifTcDXB5/B
jifOQHy5lj9aQrPB0+ucQO/bh0BApLbBijOmQGVOokD1W7/BKYS2QGY7AD+9eKHBWwTmQG8HkECJ
Z7DB+OynQNI8dMCyPIzBFBm6QLnFzr/f0JDBY/C+QKeHWb9I+qPBMNu2QNmu878r5ZvB6fy9QPIs
wz87AqnBb6C8QHjDfUDx967BGK/vQKY1rUB5wLjBFF/PQHjwtEDKoMDBPTzKQMazV0CjepvBusCB
QLZaY0BBCJnBO4sSQSzG6kD3panB/XgNQWGvBEEl+bLBCnYbQVlFwkAEA6/BwRERQTYa70AOOb3B
kC0PQew+v0D+z7nBGXCzQA5LPkDT3KXBHJKxQDNnhUBxWInBk262QP1v2kBnftDBEsKyQKy+I8Aa
RYnBuEWqQJLyc0AooZTBV9qFQAzcQ0BmvaLBulM1QIKFcUCGBpTBd23wQIJ1UUCJVpnB6ErZQDGV
zEB1scnBQ+niQOWc2L69nb3BqVKbQHDypcCLSZnBRXPVQBBbDcDuPLDBt9aoQAr6XcCjZafBZgHU
QEaH+T9RH7nBlaV6QPuNdEAky7XBCamNQFuvqEDbOsXBhSiqQBgzQT+ZqZnBFyr/QEydhkAW96rB
6SGiQL/rkcB/JIbB5KfCQLy6Hb9CVY7BFIYeQX76+ECLRKTBbPMDQTtU40AzGKXBJo75QL0tCkGQ
grLB20AYQZyXEkF+y7LBvsUsQexXxUCaZrDBr1kYQevjpUA+C6rBPtQEQU/29kCtO8PB3gwhQaOT
9UAPicDBmUkYQQ4yq0BZbr/B/jKTQHOQj0CasYXBpiC+QHzfUkBYBYXBadnIQJK+n0Bq5IjBykzD
QC2u7EAoTNfBbfqkQKJMvkDPetPBpIWgQL/a7kCX3svBlclaQCUKMkB9ZKfBw5H9P9iOY0Bf1JfB
/KIzQHDWhEC/nozBVYmuQAna3r6jrrTBxowgQQz6yb/CwJTBRvbLQI39mr+r1K7BP04SQV4cTb/x
y5rBpQCnQFZFaD/E1LHBwh+dQC35h0BdgrbBooqmQGjUokDBJb/BQKvZQKKPMD+SJqPB0zHnQDI7
jEA+1bDB9OgcQR6qPcA9zpPBZzX8QD7+NMBqfJ7B6fvhQEP9JL+ODabBhKYAQSU8t7+vw5/Bx7i8
QLF3vj+yB6nBM069QAZieUAUJq/BbM/wQBzZqkBF3rjBaSHQQBpntEAMhsDBp1PKQO5zWUDpdZvB
N8+BQDxbYUC76ZjBzj0TQZJV6ECfsqnBYIMOQU5cA0ELHLPBE84bQRUzv0Am6q7BrWQSQb0Z7EAx
Rr3BC+IPQU9bvECR1LnBdXazQCplPEA4yKXB152xQNRshEBqNInB+ji3QDTN2kA3R9DBbQEMQS4G
ZMDQnJjBiTSqQDocckBpfZTBPvCFQJOmQkDep6LBDHU1QNaZb0A06pPB59DwQCBWXEB0gpnBM/7Z
QKTRzEBud8nBhrGdQMDhXr/iX7vBuCMuQfBYj7+J35DBb7bRQMdMD8ClDLHBqccUQe9Whj4opZvB
L4WQQCe9vz9fYrbBQg16QCiud0Bce7XBr8WNQDZYqkBX38TBpb3pQClbjj/5SZzBl2UAQZZqgEAO
1qvBJtonQXr4Y8BBI4/BMnrhQCKDVMAeSqLB4VIfQeBT9kAHV6TBQo0EQWqr4UBmJaXBJab7QHPq
CEFlzLLBl1UZQfw7EUF25bLBWzItQbBWwUBtJ7DBmScYQSopo0DW6qnB1IoGQWpH9EBbc8PB3Jgi
QUXq8UDrYsDBLgUZQZ3ap0CeVb/BdwSTQMEEjUApbIXB9ri/QODcUUCR/YTBOKjHQObQn0CzxYjB
mSDEQFys7UAt+NbBACymQIe0vkD9bdPBivCgQFml7kAWnMvBvN9aQH62MUCKWKfBDdD9P6hRYkBI
wZfBLsQzQPqQg0BveozBIoSuQEC13r73rLTBXFMNQQ5GYcBxRZjBf+7LQM4Im7+9067BgH78QPiu
NMA1dJ7BiPymQGJIaD+V0bHB/RqdQC/2h0Brf7bBn4KmQFDRokANI7/BNq/ZQFJnMD8+JaPBMS3n
QLA+jEDL0rDBb3IeQcojNMB0j5PBgFASQe5mSr+nx5rB0u/hQMRVJb+8CqbBd6YAQVcut79jwJ/B
Vrm8QMJuvj/6BKnBX0u9QGpheUBOI6/BlMfwQCLcqkAv3LjB3xfQQONmtEDUg8DB0FTKQOJvWUAL
c5vBXNCBQK1dYUDV5pjBuDkTQd9h6EBosqnBO3wOQc9fA0GAHLPBK8obQWw9v0Dc6K7BRl8SQcod
7EDURb3Bs90PQVBgvEAX07nBgHezQIlhPEBIxaXBLJ+xQAJ2hEBBMonByCq3QCbI2kBPRdDB6LYg
QVUxvb/d25TBCjaqQBQjckDrepTBNPGFQFCgQkCJpKLBNXg1QMyeb0Az55PBE9LwQOBUXEDZf5nB
vPHZQCTRzECCdcnBDa2dQFinXr/6XrvBDNQLQaDDksDnIZfBW7DRQLJND8CeDbHBYxXiQFEMVsBm
JqLBnH2QQLHDvz/LXbbBrwV6QPSjd0AOeLXBR7yNQMpSqkBz3MTBhdDpQNVOjj8TS5zB+GMAQXJx
gECO06vBsQQqQcqeVsB3zo7BUlAUQVjpjD5dwJvBg08fQZVk9kDwV6TBW4oEQVu44UArJKXBBZb7
QDXrCEHwzLLBH0wZQVpBEUHI5rLBYS4tQSVhwUBgJrDBKiQYQZs1o0C66KnByYUGQblH9EB5c8PB
lpMiQRDv8UBMYsDBHwEZQWvep0C+U7/B9gWTQG4RjUBqaoXBtri/QHDyUUBs+oTB1arHQEPZn0Bf
xIjBKBDEQJan7UB+9tbBeiCmQEetvkDCa9PBluCgQMKe7kBMmsvBaeFaQJyoMUC8VKfBItX9P5ZR
YkDevZfBmMgzQOGWg0DDd4zB

> <OMEGA_E>
QsE+PyTCPj80BUA/9AZAP0wyPT/MND0/

> <OMEGA_NBR>
    137244

$$$$
270662
  -OEChem-04172616093D

 54 58  0     1  0  0  0  0  0999 V2000
    5.4874   -4.5228  -19.2212 C   0  0  0  0  0  0  0  0  0  0  0  0
    5.8963   -3.4512  -20.0293 C   0  0  0  0  0  0  0  0  0  0  0  0
    6.2218   -1.2940  -22.0367 C   0  0  0  0  0  0  0  0  0  0  0  0
    6.6354   -0.1974  -22.7927 C   0  0  0  0  0  0  0  0  0  0  0  0
    4.3838   -4.3723  -18.3584 C   0  0  0  0  0  0  0  0  0  0  0  0
    5.5428    0.2025  -20.2224 C   0  0  0  0  0  0  0  0  0  0  0  0
    4.0878   -2.0805  -19.1155 C   0  0  0  0  0  0  0  0  0  0  0  0
    5.6553   -1.0918  -20.7603 C   0  0  0  0  0  0  0  0  0  0  0  0
    5.2008   -2.2253  -19.9708 C   0  0  0  0  0  0  0  0  0  0  0  0
    5.9677    1.3022  -20.9665 C   0  0  0  0  0  0  0  0  0  0  0  0
    6.4769    1.0932  -22.2773 C   0  0  0  0  0  0  0  0  0  0  0  0
    3.6841   -3.1505  -18.3088 C   0  0  0  0  0  0  0  0  0  0  0  0
    5.5612    3.2859  -18.2287 C   0  0  0  0  0  0  0  0  0  0  0  0
    4.3184    3.5605  -18.9749 C   0  0  0  0  0  0  0  0  0  0  0  0
    8.3259    5.8563  -22.7436 C   0  0  0  0  0  0  0  0  0  0  0  0
    8.0140    4.7648  -23.7954 C   0  0  0  0  0  0  0  0  0  0  0  0
    6.5125    3.7027  -21.3012 C   0  0  0  0  0  0  0  0  0  0  0  0
    7.2569    6.9652  -22.7665 C   0  0  0  0  0  0  0  0  0  0  0  0
    5.5837    5.5727  -23.7906 C   0  0  0  0  0  0  0  0  0  0  0  0
    6.5151    4.3512  -23.8456 C   0  0  2  0  0  0  0  0  0  0  0  0
    6.1263    3.3499  -22.7581 C   0  0  1  0  0  0  0  0  0  0  0  0
    5.8392    2.7019  -20.3752 C   0  0  2  0  0  0  0  0  0  0  0  0
    5.7616    3.5320  -16.7561 C   0  0  0  0  0  0  0  0  0  0  0  0
    6.4537    2.7715  -19.0407 N   0  0  0  0  0  0  0  0  0  0  0  0
    4.4348    3.0641  -20.1775 N   0  3  0  0  0  0  0  0  0  0  0  0
    3.1971    4.1968  -18.4706 N   0  0  0  0  0  0  0  0  0  0  0  0
    6.7850    2.1329  -23.0974 O   0  0  0  0  0  0  0  0  0  0  0  0
    5.9226    6.4197  -22.6821 O   0  0  0  0  0  0  0  0  0  0  0  0
    2.3149   -2.9538  -17.2487 Cl  0  0  0  0  0  0  0  0  0  0  0  0
    6.0183   -5.4624  -19.2605 H   0  0  0  0  0  0  0  0  0  0  0  0
    6.7403   -3.5645  -20.6935 H   0  0  0  0  0  0  0  0  0  0  0  0
    6.3349   -2.2947  -22.4269 H   0  0  0  0  0  0  0  0  0  0  0  0
    7.0744   -0.3435  -23.7686 H   0  0  0  0  0  0  0  0  0  0  0  0
    4.0732   -5.1963  -17.7331 H   0  0  0  0  0  0  0  0  0  0  0  0
    5.1283    0.3443  -19.2353 H   0  0  0  0  0  0  0  0  0  0  0  0
    3.5483   -1.1455  -19.0835 H   0  0  0  0  0  0  0  0  0  0  0  0
    8.3470    5.3974  -21.7441 H   0  0  0  0  0  0  0  0  0  0  0  0
    9.3083    6.2988  -22.9647 H   0  0  0  0  0  0  0  0  0  0  0  0
    8.3021    5.1457  -24.7863 H   0  0  0  0  0  0  0  0  0  0  0  0
    8.6121    3.8728  -23.5573 H   0  0  0  0  0  0  0  0  0  0  0  0
    7.6044    3.6450  -21.1811 H   0  0  0  0  0  0  0  0  0  0  0  0
    6.1705    4.7203  -21.0615 H   0  0  0  0  0  0  0  0  0  0  0  0
    7.4222    7.6379  -21.9121 H   0  0  0  0  0  0  0  0  0  0  0  0
    7.3517    7.5330  -23.7039 H   0  0  0  0  0  0  0  0  0  0  0  0
    5.6823    6.1443  -24.7252 H   0  0  0  0  0  0  0  0  0  0  0  0
    4.5446    5.2297  -23.6785 H   0  0  0  0  0  0  0  0  0  0  0  0
    6.3500    3.8601  -24.8160 H   0  0  0  0  0  0  0  0  0  0  0  0
    5.0367    3.2044  -22.7963 H   0  0  0  0  0  0  0  0  0  0  0  0
    6.7735    3.2137  -16.4650 H   0  0  0  0  0  0  0  0  0  0  0  0
    5.6395    4.6044  -16.5438 H   0  0  0  0  0  0  0  0  0  0  0  0
    5.0179    2.9580  -16.1840 H   0  0  0  0  0  0  0  0  0  0  0  0
    3.6971    2.9517  -20.8433 H   0  0  0  0  0  0  0  0  0  0  0  0
    2.3846    4.3067  -19.0432 H   0  0  0  0  0  0  0  0  0  0  0  0
    3.1995    4.5464  -17.5337 H   0  0  0  0  0  0  0  0  0  0  0  0
  1  2  2  0  0  0  0
  1  5  1  0  0  0  0
  2  9  1  0  0  0  0
  3  4  1  0  0  0  0
  3  8  2  0  0  0  0
  4 11  2  0  0  0  0
  5 12  2  0  0  0  0
  6  8  1  0  0  0  0
  6 10  2  0  0  0  0
  7  9  2  0  0  0  0
  7 12  1  0  0  0  0
  8  9  1  0  0  0  0
 10 11  1  0  0  0  0
 10 22  1  0  0  0  0
 11 27  1  0  0  0  0
 12 29  1  0  0  0  0
 13 14  1  0  0  0  0
 13 23  1  0  0  0  0
 13 24  2  0  0  0  0
 14 25  2  0  0  0  0
 14 26  1  0  0  0  0
 15 16  1  0  0  0  0
 15 18  1  0  0  0  0
 16 20  1  0  0  0  0
 17 21  1  0  0  0  0
 17 22  1  0  0  0  0
 18 28  1  0  0  0  0
 19 20  1  0  0  0  0
 19 28  1  0  0  0  0
 20 21  1  0  0  0  0
 21 27  1  0  0  0  0
 22 24  1  0  0  0  0
 22 25  1  0  0  0  0
  1 30  1  0  0  0  0
  2 31  1  0  0  0  0
  3 32  1  0  0  0  0
  4 33  1  0  0  0  0
  5 34  1  0  0  0  0
  6 35  1  0  0  0  0
  7 36  1  0  0  0  0
 15 37  1  0  0  0  0
 15 38  1  0  0  0  0
 16 39  1  0  0  0  0
 16 40  1  0  0  0  0
 17 41  1  0  0  0  0
 17 42  1  0  0  0  0
 18 43  1  0  0  0  0
 18 44  1  0  0  0  0
 19 45  1  0  0  0  0
 19 46  1  0  0  0  0
 20 47  1  0  0  0  0
 21 48  1  0  0  0  0
 23 49  1  0  0  0  0
 23 50  1  0  0  0  0
 23 51  1  0  0  0  0
 25 52  1  0  0  0  0
 26 53  1  0  0  0  0
 26 54  1  0  0  0  0
M  CHG  1  25   1
M  END
> <OMEGA_C>
bpivQG+6kMAExZnBNK68QGDgXMD5O6DBWRnHQJ+ipb8cS7DBy1TUQO4YSr6NV7bBA0iMQCPqi8AS
3pLBmV6xQOhQTz6Fx6HBPs+CQHgnBcCW7JjB4Pe0QNO/i78aFabByWymQLZqDsBBxJ/Bk/e+QOqt
pj94u6fBCEPPQNvsiz/QN7LBC8lrQJaiScBkeJLBD/WxQKRLUkBl1JHBgjCKQIDfY0CZzJfBuDYF
QYZmu0Dy8rXBTDkAQRh5mED3XL7BT2bQQPb4bEDuaKrBhDjoQDLj3kDgIbbBAa6yQGlTskAmU77B
AHzQQOo8i0Dgw77BDQvEQKxkVkChELbBi9q6QJrrLEBgAKPBIl+4QAYNYkCMDIbBiITOQKxfMUBH
U5jBjemNQPAZREB8a6HBtZxMQN1LhkC/w5PBwB7ZQEKBCECTx7jBmoW9QFNuzUAEdbXBxicUQKwK
PcBf/YnBxJXAQC7MrsCMFZrBPLDXQCUgZMBfjKXB07fKQH/cEsA1arPBpGHiQJjhr74QJr7BdFeC
QO5HpsBq3Y3ByRqkQJ5HsD7b4ZnBQRdjQFyfkr8Dq5jBK40FQS23rEAC9K3B8e4UQfuPyUC9t7fB
NtUEQT+ppEBmSsbBGcsJQR7cd0BxdbzBHFfzQDpHaUDhcqnB23TFQN8Ml0DgfajBTYLtQA9q9EDj
S6/BN0HrQHoO8UCTob3BwtW1QGiexEA5zcXBkG2RQFRZp0CLbb3BDTPLQIcMd0Ash8bBdSyhQJ8V
TUDfXrbBa8DYQMSsTUBauIPBs3a0QIBXk0C/WYTB05KgQGxPPUDEeIHBxp1sQJPoPEAEv6bB+J0Y
QLbQiUBxWJjBlMRMQOF7kUD+RIzB

> <OMEGA_E>
eKMlPw==

> <OMEGA_NBR>
      1206

$$$$
270664
  -OEChem-04172616093D

 54 58  0     1  0  0  0  0  0999 V2000
    5.3971   -4.4803  -19.2453 C   0  0  0  0  0  0  0  0  0  0  0  0
    5.7867   -3.4138  -20.0696 C   0  0  0  0  0  0  0  0  0  0  0  0
    6.1289   -1.2611  -22.0592 C   0  0  0  0  0  0  0  0  0  0  0  0
    6.5917   -0.1794  -22.8063 C   0  0  0  0  0  0  0  0  0  0  0  0
    4.3657   -4.3015  -18.3036 C   0  0  0  0  0  0  0  0  0  0  0  0
    5.4152    0.2658  -20.2903 C   0  0  0  0  0  0  0  0  0  0  0  0
    4.0821   -2.0002  -19.0340 C   0  0  0  0  0  0  0  0  0  0  0  0
    5.5579   -1.0417  -20.7882 C   0  0  0  0  0  0  0  0  0  0  0  0
    5.1287   -2.1683  -19.9667 C   0  0  0  0  0  0  0  0  0  0  0  0
    5.8356    1.3550  -21.0530 C   0  0  0  0  0  0  0  0  0  0  0  0
    6.4743    1.1183  -22.2970 C   0  0  0  0  0  0  0  0  0  0  0  0
    3.7162   -3.0574  -18.1943 C   0  0  0  0  0  0  0  0  0  0  0  0
    5.6398    3.4298  -18.3821 C   0  0  0  0  0  0  0  0  0  0  0  0
    4.2712    3.5392  -18.9148 C   0  0  0  0  0  0  0  0  0  0  0  0
    5.0541    5.7272  -23.9389 C   0  0  0  0  0  0  0  0  0  0  0  0
    5.9320    4.5740  -24.5164 C   0  0  0  0  0  0  0  0  0  0  0  0
    5.8351    3.7469  -21.6357 C   0  0  0  0  0  0  0  0  0  0  0  0
    5.9129    6.8989  -23.4212 C   0  0  0  0  0  0  0  0  0  0  0  0
    7.9387    5.6197  -23.3395 C   0  0  0  0  0  0  0  0  0  0  0  0
    7.2596    4.3090  -23.7274 C   0  0  1  0  0  0  0  0  0  0  0  0
    7.0798    3.4083  -22.4856 C   0  0  2  0  0  0  0  0  0  0  0  0
    5.6076    2.7539  -20.5192 C   0  0  2  0  0  0  0  0  0  0  0  0
    6.0182    3.7434  -16.9581 C   0  0  0  0  0  0  0  0  0  0  0  0
    6.4484    3.0183  -19.3361 N   0  0  0  0  0  0  0  0  0  0  0  0
    4.2288    2.9137  -20.0555 N   0  3  0  0  0  0  0  0  0  0  0  0
    3.1970    4.1621  -18.3027 N   0  0  0  0  0  0  0  0  0  0  0  0
    6.9860    2.1108  -23.0697 O   0  0  0  0  0  0  0  0  0  0  0  0
    7.0207    6.4452  -22.6159 O   0  0  0  0  0  0  0  0  0  0  0  0
    2.4716   -2.8079  -17.0016 Cl  0  0  0  0  0  0  0  0  0  0  0  0
    5.8882   -5.4382  -19.3331 H   0  0  0  0  0  0  0  0  0  0  0  0
    6.5882   -3.5451  -20.7815 H   0  0  0  0  0  0  0  0  0  0  0  0
    6.2072   -2.2640  -22.4521 H   0  0  0  0  0  0  0  0  0  0  0  0
    7.0395   -0.3425  -23.7755 H   0  0  0  0  0  0  0  0  0  0  0  0
    4.0723   -5.1206  -17.6638 H   0  0  0  0  0  0  0  0  0  0  0  0
    4.9791    0.4267  -19.3154 H   0  0  0  0  0  0  0  0  0  0  0  0
    3.5639   -1.0549  -18.9688 H   0  0  0  0  0  0  0  0  0  0  0  0
    4.3874    6.0978  -24.7314 H   0  0  0  0  0  0  0  0  0  0  0  0
    4.4515    5.3332  -23.1073 H   0  0  0  0  0  0  0  0  0  0  0  0
    5.3356    3.6498  -24.5052 H   0  0  0  0  0  0  0  0  0  0  0  0
    6.1941    4.8286  -25.5540 H   0  0  0  0  0  0  0  0  0  0  0  0
    5.9693    4.7465  -21.1966 H   0  0  0  0  0  0  0  0  0  0  0  0
    4.9512    3.7498  -22.2905 H   0  0  0  0  0  0  0  0  0  0  0  0
    6.3063    7.4582  -24.2829 H   0  0  0  0  0  0  0  0  0  0  0  0
    5.2796    7.5611  -22.8125 H   0  0  0  0  0  0  0  0  0  0  0  0
    8.8130    5.4050  -22.7076 H   0  0  0  0  0  0  0  0  0  0  0  0
    8.2640    6.1457  -24.2491 H   0  0  0  0  0  0  0  0  0  0  0  0
    7.9376    3.7807  -24.4139 H   0  0  0  0  0  0  0  0  0  0  0  0
    7.9769    3.4856  -21.8538 H   0  0  0  0  0  0  0  0  0  0  0  0
    7.0966    3.5764  -16.8194 H   0  0  0  0  0  0  0  0  0  0  0  0
    5.7788    4.7943  -16.7381 H   0  0  0  0  0  0  0  0  0  0  0  0
    5.4553    3.0887  -16.2765 H   0  0  0  0  0  0  0  0  0  0  0  0
    3.4053    2.6000  -20.5282 H   0  0  0  0  0  0  0  0  0  0  0  0
    2.2980    4.1533  -18.7404 H   0  0  0  0  0  0  0  0  0  0  0  0
    3.3202    4.6209  -17.4227 H   0  0  0  0  0  0  0  0  0  0  0  0
  1  2  2  0  0  0  0
  1  5  1  0  0  0  0
  2  9  1  0  0  0  0
  3  4  1  0  0  0  0
  3  8  2  0  0  0  0
  4 11  2  0  0  0  0
  5 12  2  0  0  0  0
  6  8  1  0  0  0  0
  6 10  2  0  0  0  0
  7  9  2  0  0  0  0
  7 12  1  0  0  0  0
  8  9  1  0  0  0  0
 10 11  1  0  0  0  0
 10 22  1  0  0  0  0
 11 27  1  0  0  0  0
 12 29  1  0  0  0  0
 13 14  1  0  0  0  0
 13 23  1  0  0  0  0
 13 24  2  0  0  0  0
 14 25  2  0  0  0  0
 14 26  1  0  0  0  0
 15 16  1  0  0  0  0
 15 18  1  0  0  0  0
 16 20  1  0  0  0  0
 17 21  1  0  0  0  0
 17 22  1  0  0  0  0
 18 28  1  0  0  0  0
 19 20  1  0  0  0  0
 19 28  1  0  0  0  0
 20 21  1  0  0  0  0
 21 27  1  0  0  0  0
 22 24  1  0  0  0  0
 22 25  1  0  0  0  0
  1 30  1  0  0  0  0
  2 31  1  0  0  0  0
  3 32  1  0  0  0  0
  4 33  1  0  0  0  0
  5 34  1  0  0  0  0
  6 35  1  0  0  0  0
  7 36  1  0  0  0  0
 15 37  1  0  0  0  0
 15 38  1  0  0  0  0
 16 39  1  0  0  0  0
 16 40  1  0  0  0  0
 17 41  1  0  0  0  0
 17 42  1  0  0  0  0
 18 43  1  0  0  0  0
 18 44  1  0  0  0  0
 19 45  1  0  0  0  0
 19 46  1  0  0  0  0
 20 47  1  0  0  0  0
 21 48  1  0  0  0  0
 23 49  1  0  0  0  0
 23 50  1  0  0  0  0
 23 51  1  0  0  0  0
 25 52  1  0  0  0  0
 26 53  1  0  0  0  0
 26 54  1  0  0  0  0
M  CHG  1  25   1
M  END
> <OMEGA_C>
2rSsQOJej8BR9pnBziy5QDB8WsCXjqDBxB/EQDVqob81ebDBzu7SQES6N75Zc7bBKrSLQCWmicDQ
bZLBLEmtQOMQiD6NUqLBxKCCQLkDAMCSRZjBTtqxQPlXhb8jTqbBlh6kQP/FCsDAu5/BbL26QOlw
rT+bbKjBmi3PQDUkjz9EYLLBndVtQPKrQ8DhjZHB9ni0QGSCW0CHDpPBRK2IQMmBYkCYUZfBOLuh
QCBFt0Dfgr/B2tK9QPVdkkCoIcTBErm6QODNb0DpFa3Boja9QAjE3ECkXrvBbAn+QKjUs0BFt7rB
ok7oQLPjiUDI0b3Blo3iQFshWkBx4rPBPnGzQARAMEA7J6TBWpXAQBKUb0AZqofBeFnOQLIrQUBK
sJrBeFKHQHt6OkCycaDB05tMQEowhUDaa5LB+IzfQLgWB0CmjrjB9KngQBk/zkBP7bTBRy4eQPi0
M8BAA4jBAmy8QLcFrsAeqprBztLSQKDiYsB8QKbBR6HGQAflEMD3nbPBQUPhQA5fr74uNL7BilCC
QETco8B0T43BI1WfQOpx2j4ChprBdhZkQDgIh78wwJfBUWWMQDAhw0D72cXBlHKOQL6pqkCn27jB
F72qQJaVaUCPCsTBPTbGQI6DmkCFbszB1gS/QH3jl0CckqnBeHCeQMH8b0D3UrLBm83JQFip7kBT
Q8LBr/KoQF708UAPgLbBPAINQWb1rEAdqbXBNDkEQcapxEBA/sHBewD+QKX2cUCcT8PBEkP/QN8U
X0CV1K7BYBfjQIrjZEAyjobBKuy4QKRqmUCW54XBCpKuQCatRUBUNoLBIPFZQLdmJkDbOaTB8xET
QC3ohEBs7JXByH1UQLHek0CuYYvBidWGQOChjMBuN53BcdSVQG/7VcBgsqPBx5PHQDD/ob8FjK/B
cNXWQBRLTr4dzLXBp6WEQL10h8A8CZLBGRysQC/Zpj6wd6LBHZigQMfk+78WxJPBtWOyQJMTgb8W
xqXBptCiQLmtB8AIBJ/B06+6QMoPsz9Jx6jBdirRQCV6kD9yabLB7oKRQCcvQcBQUo3BA361QOgC
ZUCjA5TBM1WIQGNoYEDHcpfB5iClQCgHl0A8iMfBKpXTQLhfhkBqN8jBb+G6QLXOc0BYAa7BVPWj
QIMZxUDZAMPBcpTpQE+dvUBccrrByFbuQCMXjkBi0b3BHvnjQGM4XUBRZ7TBFvmyQDS/NEC29aTB
7G3EQDDqgUDoMonBjX3OQMSfSUC5v5vBxPGGQDKmP0AbD6HBjHlKQHCneEBnXpHB7njhQOfTB0CX
4LjBfe28QGiNyUDxVLnBHPOOQAPkM8DL7n7BEvt5QB91qsBZ0qDBXG+XQFMeXsBvRKzBrQrMQMki
EsCTNrLBlgfnQHVaz74QQb3BkzRyQGRLocCwE43BWOybQNfMBj8nAZvBvYuqQDMPhb+RHpDBie2W
QKzvlkCQlc/B1YOSQP3dgUB2QsLBmJnSQF2CR0ANysnBYanjQPmzlkBi5c7BGmm+QFgwmkCdnKrB
qU2fQPmjckDgeLPBWsOwQD8d20D6E8nBG4uCQEWZzUAtO8HBMN75QEx2wkB/vbLBvYD4QJMF0kDi
kcDBExEIQWkYiUCN8L/BBA//QJHIX0DZyq7BTYjnQHPef0AExojBBFO6QDhOo0DTBojBf0+2QEd7
W0AS6YLBO7ZYQIiEMEC0FqXBGFUPQAWKcUAzS5TBJQNTQPSfiECFD4rB

> <OMEGA_E>
2vArP/yPRD8=

> <OMEGA_NBR>
      3311

$$$$
270652
  -OEChem-04172616093D

 51 55  0     1  0  0  0  0  0999 V2000
    5.5218   -4.4927  -19.1921 C   0  0  0  0  0  0  0  0  0  0  0  0
    5.8743   -3.4061  -20.0085 C   0  0  0  0  0  0  0  0  0  0  0  0
    6.0644   -1.2747  -22.0481 C   0  0  0  0  0  0  0  0  0  0  0  0
    6.5018   -0.1948  -22.8155 C   0  0  0  0  0  0  0  0  0  0  0  0
    4.4394   -4.3779  -18.2992 C   0  0  0  0  0  0  0  0  0  0  0  0
    5.4287    0.2550  -20.2513 C   0  0  0  0  0  0  0  0  0  0  0  0
    4.0671   -2.0830  -19.0284 C   0  0  0  0  0  0  0  0  0  0  0  0
    5.5359   -1.0554  -20.7596 C   0  0  0  0  0  0  0  0  0  0  0  0
    5.1475   -2.1960  -19.9291 C   0  0  0  0  0  0  0  0  0  0  0  0
    5.8941    1.3442  -21.0064 C   0  0  0  0  0  0  0  0  0  0  0  0
    6.4226    1.1057  -22.3026 C   0  0  0  0  0  0  0  0  0  0  0  0
    3.7121   -3.1735  -18.2205 C   0  0  0  0  0  0  0  0  0  0  0  0
    5.5519    3.2211  -18.2314 C   0  0  0  0  0  0  0  0  0  0  0  0
    4.2981    3.5155  -18.9463 C   0  0  0  0  0  0  0  0  0  0  0  0
    6.6811    5.7774  -23.6914 C   0  0  0  0  0  0  0  0  0  0  0  0
    7.2521    4.3556  -23.6873 C   0  0  0  0  0  0  0  0  0  0  0  0
    6.5458    3.7639  -21.3252 C   0  0  0  0  0  0  0  0  0  0  0  0
    5.1882    5.7467  -24.0792 C   0  0  0  0  0  0  0  0  0  0  0  0
    4.9030    3.4942  -23.3079 C   0  0  0  0  0  0  0  0  0  0  0  0
    5.8265    2.7507  -20.4149 C   0  0  2  0  0  0  0  0  0  0  0  0
    6.3836    3.4137  -22.8308 C   0  0  1  0  0  0  0  0  0  0  0  0
    5.7603    3.3795  -16.7481 C   0  0  0  0  0  0  0  0  0  0  0  0
    6.4471    2.7751  -19.0801 N   0  0  0  0  0  0  0  0  0  0  0  0
    4.4321    3.1479  -20.1909 N   0  3  0  0  0  0  0  0  0  0  0  0
    3.1535    4.0571  -18.3860 N   0  0  0  0  0  0  0  0  0  0  0  0
    6.8936    2.1076  -23.1012 O   0  0  0  0  0  0  0  0  0  0  0  0
    4.4500    4.8527  -23.2183 O   0  0  0  0  0  0  0  0  0  0  0  0
    2.3646   -3.0268  -17.1245 Cl  0  0  0  0  0  0  0  0  0  0  0  0
    6.0802   -5.4154  -19.2492 H   0  0  0  0  0  0  0  0  0  0  0  0
    6.7012   -3.4947  -20.6975 H   0  0  0  0  0  0  0  0  0  0  0  0
    6.1306   -2.2785  -22.4410 H   0  0  0  0  0  0  0  0  0  0  0  0
    6.9013   -0.3619  -23.8049 H   0  0  0  0  0  0  0  0  0  0  0  0
    4.1659   -5.2145  -17.6733 H   0  0  0  0  0  0  0  0  0  0  0  0
    4.9879    0.4219  -19.2795 H   0  0  0  0  0  0  0  0  0  0  0  0
    3.5141   -1.1577  -18.9611 H   0  0  0  0  0  0  0  0  0  0  0  0
    6.7876    6.2154  -22.6880 H   0  0  0  0  0  0  0  0  0  0  0  0
    7.2338    6.3896  -24.4192 H   0  0  0  0  0  0  0  0  0  0  0  0
    7.2826    3.9773  -24.7197 H   0  0  0  0  0  0  0  0  0  0  0  0
    8.2717    4.3787  -23.2750 H   0  0  0  0  0  0  0  0  0  0  0  0
    6.1239    4.7639  -21.1460 H   0  0  0  0  0  0  0  0  0  0  0  0
    7.6170    3.7677  -21.0751 H   0  0  0  0  0  0  0  0  0  0  0  0
    4.7714    6.7606  -23.9876 H   0  0  0  0  0  0  0  0  0  0  0  0
    5.0935    5.4040  -25.1202 H   0  0  0  0  0  0  0  0  0  0  0  0
    4.8337    3.1516  -24.3509 H   0  0  0  0  0  0  0  0  0  0  0  0
    4.2758    2.8547  -22.6695 H   0  0  0  0  0  0  0  0  0  0  0  0
    6.7804    3.0631  -16.4848 H   0  0  0  0  0  0  0  0  0  0  0  0
    5.6201    4.4341  -16.4688 H   0  0  0  0  0  0  0  0  0  0  0  0
    5.0324    2.7570  -16.2072 H   0  0  0  0  0  0  0  0  0  0  0  0
    3.7054    3.1384  -20.8778 H   0  0  0  0  0  0  0  0  0  0  0  0
    2.3384    4.1948  -18.9487 H   0  0  0  0  0  0  0  0  0  0  0  0
    3.1421    4.3107  -17.4188 H   0  0  0  0  0  0  0  0  0  0  0  0
  1  2  2  0  0  0  0
  1  5  1  0  0  0  0
  2  9  1  0  0  0  0
  3  4  1  0  0  0  0
  3  8  2  0  0  0  0
  4 11  2  0  0  0  0
  5 12  2  0  0  0  0
  6  8  1  0  0  0  0
  6 10  2  0  0  0  0
  7  9  2  0  0  0  0
  7 12  1  0  0  0  0
  8  9  1  0  0  0  0
 10 11  1  0  0  0  0
 10 20  1  0  0  0  0
 11 26  1  0  0  0  0
 12 28  1  0  0  0  0
 13 14  1  0  0  0  0
 13 22  1  0  0  0  0
 13 23  2  0  0  0  0
 14 24  2  0  0  0  0
 14 25  1  0  0  0  0
 15 16  1  0  0  0  0
 15 18  1  0  0  0  0
 16 21  1  0  0  0  0
 17 20  1  0  0  0  0
 17 21  1  0  0  0  0
 18 27  1  0  0  0  0
 19 21  1  0  0  0  0
 19 27  1  0  0  0  0
 20 23  1  0  0  0  0
 20 24  1  0  0  0  0
 21 26  1  0  0  0  0
  1 29  1  0  0  0  0
  2 30  1  0  0  0  0
  3 31  1  0  0  0  0
  4 32  1  0  0  0  0
  5 33  1  0  0  0  0
  6 34  1  0  0  0  0
  7 35  1  0  0  0  0
 15 36  1  0  0  0  0
 15 37  1  0  0  0  0
 16 38  1  0  0  0  0
 16 39  1  0  0  0  0
 17 40  1  0  0  0  0
 17 41  1  0  0  0  0
 18 42  1  0  0  0  0
 18 43  1  0  0  0  0
 19 44  1  0  0  0  0
 19 45  1  0  0  0  0
 22 46  1  0  0  0  0
 22 47  1  0  0  0  0
 22 48  1  0  0  0  0
 24 49  1  0  0  0  0
 25 50  1  0  0  0  0
 25 51  1  0  0  0  0
M  CHG  1  24   1
M  END
> <OMEGA_C>
QLKwQE/Ej8CFiZnB8vm7QNz8WcBVEaDBXg/CQEIqo79uYrDBdg7QQECCR74ehrbBOA+OQAQYjMC4
ZJLByretQISUgj6TAqLBBCaCQDpPBcAzOpjBXCaxQCYYh7+2E6bBMrikQFaLDMC1bp/Bfpy8QLkP
rD8MDajBMobNQA2JjT+8a7LBO5JtQH4aS8CDw5HBkKmxQPYmTkDk2ZHB/ImJQIz9YEDukZfBmsvV
QH7guEDvh73BdhHoQFRhi0CAf73BGnfRQCLkcEAGmqrBgAWmQNTkt0AtosDBjOWcQByhX0CbdrrB
2HK6QCwLMEDPUaPBWEbMQAh6WkCDpbbBxlS4QF5JWEAz/IXByk7OQKqaMUAUpJjB1NONQKZ2SUAP
h6HBmtNJQArUgUCcFpPB+JfcQM7iBkBRz7jBjmaOQHVJm0Aav7nB1VUXQE62QcDy/ojB65DCQL5K
rcBP/pnB/W/WQIKoX8B6lKXB9i3EQH7TEcAhh7PBStfcQLJNub5dcL7BQ0+FQJPdpsDyYo3B+Jyf
QAUA2D5yPJrBQ+dgQMowlL9lsJfBVzTZQJfkxkD6gLXBIXvnQGR3zECdWsPBqArpQNiLfkDvwcXB
6FgEQa0ejEBAM7rBIffDQLNxmEADK6nBRr7zQKUhcUDamajBnK+YQIRW2ECn5r/BUP6iQHbtrEAS
9sjBEa6aQGm0SUCrzsLBNtOIQBazNkAhW7XBVfnYQAMKREDw4IPByNezQHvkjUArwIPBgwmhQG1y
MEBeqIHBPSVtQPDbSEDKBafBaqgVQNw7hkD2lpfBsRdJQNnwiUCoWYvBzNqxQBCOj8CoN5nBymS8
QGM1XMCRRKDBQLfCQAy7pL8BALHBBlzQQBgsNb4K+LbBlvGPQPqQisAZ45HBhoeuQGTYRz6GVqLB
gMGCQFilBcCGq5jB/rexQMahjL9XpKbBNPukQGD2DsDM9p/Bvg69QFChpj+rHajB3qPNQMzLjj+P
kbLB78VwQA9OSMC9o5HBCq2xQK44UEBO3ZHBNxiKQCI4ZECMxZfBELbeQLDdi0AJ2sfBPMrkQAk2
kUB3w7vBAr3QQMgMb0BZyanBepuuQNKFi0BhnsrBxu2aQA3KYkAMP7nB7ui5QGR6K0DNAaPBXsHK
QGgoXkAFwbXBYgW5QIUAYUAnLIbBZCXNQEJ2K0CxUJjBegqNQI3jQkBaS6HBLqhNQMOuh0C7zpPB
zOPbQDIRC0ANnLjBakmYQPlPVkDplcTB6YEcQGoJO8AFpIjB6cPDQMMZrcB5a5nBnlLWQOflY8AO
5qXBoDXFQBf+EcA6UbTBB/LcQKo6ob6F8L7BNAOIQGk8pMDXc4zBLrugQKfiqz4nf5rB6Q5hQM/d
lb/Hg5jBOVPuQGKcpkDgCMzBuj/tQEUBW0AvbMrBTXIDQbecjUAwx7nBAs7ZQC05sUBaWLnB7ZTD
QNs8l0CX2KfBvB7zQDrZbUD356fB29egQAEIq0AIvMjBjMGqQNzzhEDSNdPBq5mIQE9/MEDlIbXB
XrWNQH3tkEDbJ7fBoPLYQC6wSUAk4oPBjPK2QLIXk0DGoITBN4mgQFVuP0CbcYHBqBdqQG/DOkAu
fabBn6wZQO53i0CVYJjBT6pOQOd8k0B2X4zBl1mnQMQdkMCZ1ZnBEiy5QA0JXMDDpp/B10zNQM5p
or/BFK/BC+vZQCY4Q76PdrXBRDmDQNJDicCPU5PBjXKyQBmXkj51oaHB1CeCQKAk+b8SjJjBP2S4
QPZVhL9FP6XByLSmQJqiCcBBBp/BH8m9QMSHrz+uIajBVVDRQNStjz/GK7LBaophQHGMQMBtqpLB
vQK0QLA0WUA3z5LByMqIQO06YEAxWZfBjloNQVupnEA+rKzBkMAGQa1FXUDYV6/Bkwm8QHM5dEAN
EK3B0mILQb6EuECXyrbB+6ffQMJhjEBQYb7BB9W0QPH1MUC0JKTB477gQH4uW0CdxrTBctm+QCo6
aUBhOofB473OQGcxQ0DkcZrBu4GIQHV3OUCtkqDBnvRLQAvXg0B0npLBw6zaQCjQB0DeP7nB19Hr
QOCFtkBYALvBVswIQPKbLsDrg4rBvGK1QPGgr8A9W5rBrf7UQG6ZZsCImqTBf4rTQL/0EcDHq7HB
Kk7qQC0Svb5E77zBPVJrQFx+o8A91o7BCg+lQCWN7T4Qy5nBOzJnQB/hd79PIpjBH9ECQbBoqUC+
YqbBTwQeQecCnUBf16nBWaESQbc4QUAOz7TB2CoGQeiVN0B+6qfBRlCeQMp1ekAztrHBHebDQEsN
mUDXWqnBPkEPQZrj2UBUxLTBIKoWQbHSrECp4bzBmRX2QCQXgUATjMTBvxS/QHJSjUDRtMHBpl3h
QBCuX0A4+4XBUDq2QEyplUA6GYXBWtqsQClgPEDtJoLBhkVdQBSjJEDvfqTBgUITQEbyg0CPVJbB
cE9SQJ7+kUD+fIvB

> <OMEGA_E>
JLsRP3BJFj9MRig/

> <OMEGA_NBR>
      6177

$$$$
270654
  -OEChem-04172616093D

 51 55  0     1  0  0  0  0  0999 V2000
    6.1910   -1.2577  -21.9371 C   0  0  0  0  0  0  0  0  0  0  0  0
    5.7268   -3.3704  -19.8886 C   0  0  0  0  0  0  0  0  0  0  0  0
    6.6530   -0.2016  -22.7355 C   0  0  0  0  0  0  0  0  0  0  0  0
    5.2576   -4.4289  -19.0901 C   0  0  0  0  0  0  0  0  0  0  0  0
    5.4250    0.3466  -20.2673 C   0  0  0  0  0  0  0  0  0  0  0  0
    3.9693   -1.9247  -18.9999 C   0  0  0  0  0  0  0  0  0  0  0  0
    5.5762   -0.9932  -20.6932 C   0  0  0  0  0  0  0  0  0  0  0  0
    5.0864   -2.1079  -19.8501 C   0  0  0  0  0  0  0  0  0  0  0  0
    5.8680    1.4176  -21.0749 C   0  0  0  0  0  0  0  0  0  0  0  0
    6.5110    1.1321  -22.3116 C   0  0  0  0  0  0  0  0  0  0  0  0
    4.1464   -4.2381  -18.2466 C   0  0  0  0  0  0  0  0  0  0  0  0
    3.5022   -2.9844  -18.2015 C   0  0  0  0  0  0  0  0  0  0  0  0
    5.6518    3.5263  -18.4370 C   0  0  0  0  0  0  0  0  0  0  0  0
    4.2602    3.4837  -18.9223 C   0  0  0  0  0  0  0  0  0  0  0  0
    8.9982    4.8461  -21.4096 C   0  0  0  0  0  0  0  0  0  0  0  0
    8.5650    3.4177  -21.8074 C   0  0  0  0  0  0  0  0  0  0  0  0
    5.9764    3.8551  -21.7379 C   0  0  0  0  0  0  0  0  0  0  0  0
    9.0064    5.7622  -22.6524 C   0  0  0  0  0  0  0  0  0  0  0  0
    7.3505    4.4061  -23.7833 C   0  0  0  0  0  0  0  0  0  0  0  0
    5.6531    2.8576  -20.5989 C   0  0  2  0  0  0  0  0  0  0  0  0
    7.2110    3.4255  -22.5909 C   0  0  1  0  0  0  0  0  0  0  0  0
    6.0709    3.9401  -17.0458 C   0  0  0  0  0  0  0  0  0  0  0  0
    6.4651    3.1457  -19.3966 N   0  0  0  0  0  0  0  0  0  0  0  0
    4.2627    3.0541  -20.1578 N   0  3  0  0  0  0  0  0  0  0  0  0
    3.1383    3.8246  -18.1803 N   0  0  0  0  0  0  0  0  0  0  0  0
    6.9914    2.1132  -23.1586 O   0  0  0  0  0  0  0  0  0  0  0  0
    7.7230    5.7230  -23.3177 O   0  0  0  0  0  0  0  0  0  0  0  0
    3.7021   -5.2613  -17.4817 F   0  0  0  0  0  0  0  0  0  0  0  0
    2.1194   -2.7348  -17.1611 Cl  0  0  0  0  0  0  0  0  0  0  0  0
    6.3056   -2.2772  -22.2746 H   0  0  0  0  0  0  0  0  0  0  0  0
    6.5794   -3.5212  -20.5342 H   0  0  0  0  0  0  0  0  0  0  0  0
    7.1222   -0.4141  -23.6848 H   0  0  0  0  0  0  0  0  0  0  0  0
    5.7503   -5.3894  -19.1239 H   0  0  0  0  0  0  0  0  0  0  0  0
    4.9650    0.5537  -19.3124 H   0  0  0  0  0  0  0  0  0  0  0  0
    3.4730   -0.9662  -18.9641 H   0  0  0  0  0  0  0  0  0  0  0  0
    8.2929    5.2467  -20.6666 H   0  0  0  0  0  0  0  0  0  0  0  0
   10.0083    4.8125  -20.9754 H   0  0  0  0  0  0  0  0  0  0  0  0
    9.3437    2.9726  -22.4442 H   0  0  0  0  0  0  0  0  0  0  0  0
    8.4470    2.8133  -20.8960 H   0  0  0  0  0  0  0  0  0  0  0  0
    5.1008    3.9275  -22.3997 H   0  0  0  0  0  0  0  0  0  0  0  0
    6.1826    4.8400  -21.2935 H   0  0  0  0  0  0  0  0  0  0  0  0
    9.2209    6.7948  -22.3398 H   0  0  0  0  0  0  0  0  0  0  0  0
    9.7861    5.4206  -23.3491 H   0  0  0  0  0  0  0  0  0  0  0  0
    8.1249    4.0328  -24.4696 H   0  0  0  0  0  0  0  0  0  0  0  0
    6.3893    4.4688  -24.3143 H   0  0  0  0  0  0  0  0  0  0  0  0
    7.1654    3.8743  -16.9572 H   0  0  0  0  0  0  0  0  0  0  0  0
    5.7496    4.9754  -16.8590 H   0  0  0  0  0  0  0  0  0  0  0  0
    5.6026    3.2720  -16.3080 H   0  0  0  0  0  0  0  0  0  0  0  0
    3.4490    2.8859  -20.7143 H   0  0  0  0  0  0  0  0  0  0  0  0
    2.2280    3.7504  -18.5875 H   0  0  0  0  0  0  0  0  0  0  0  0
    3.2401    4.1445  -17.2383 H   0  0  0  0  0  0  0  0  0  0  0  0
  1  3  1  0  0  0  0
  1  7  2  0  0  0  0
  2  4  2  0  0  0  0
  2  8  1  0  0  0  0
  3 10  2  0  0  0  0
  4 11  1  0  0  0  0
  5  7  1  0  0  0  0
  5  9  2  0  0  0  0
  6  8  2  0  0  0  0
  6 12  1  0  0  0  0
  7  8  1  0  0  0  0
  9 10  1  0  0  0  0
  9 20  1  0  0  0  0
 10 26  1  0  0  0  0
 11 12  2  0  0  0  0
 11 28  1  0  0  0  0
 12 29  1  0  0  0  0
 13 14  1  0  0  0  0
 13 22  1  0  0  0  0
 13 23  2  0  0  0  0
 14 24  2  0  0  0  0
 14 25  1  0  0  0  0
 15 16  1  0  0  0  0
 15 18  1  0  0  0  0
 16 21  1  0  0  0  0
 17 20  1  0  0  0  0
 17 21  1  0  0  0  0
 18 27  1  0  0  0  0
 19 21  1  0  0  0  0
 19 27  1  0  0  0  0
 20 23  1  0  0  0  0
 20 24  1  0  0  0  0
 21 26  1  0  0  0  0
  1 30  1  0  0  0  0
  2 31  1  0  0  0  0
  3 32  1  0  0  0  0
  4 33  1  0  0  0  0
  5 34  1  0  0  0  0
  6 35  1  0  0  0  0
 15 36  1  0  0  0  0
 15 37  1  0  0  0  0
 16 38  1  0  0  0  0
 16 39  1  0  0  0  0
 17 40  1  0  0  0  0
 17 41  1  0  0  0  0
 18 42  1  0  0  0  0
 18 43  1  0  0  0  0
 19 44  1  0  0  0  0
 19 45  1  0  0  0  0
 22 46  1  0  0  0  0
 22 47  1  0  0  0  0
 22 48  1  0  0  0  0
 24 49  1  0  0  0  0
 25 50  1  0  0  0  0
 25 51  1  0  0  0  0
M  CHG  1  24   1
M  END
> <OMEGA_C>
dRzGQJv9oL8zf6/B6UG3QGS1V8DsG5/BLOXUQEZjTr5W4rXBKz6oQMK5jcBwuJjB6ZmtQFNwsT50
I6LBgQh+QPNd9r+5/5fBknCyQCNEfr+vi6XB38OiQDLnBsAPzZ7B38a7QOFztT9ZmajB+lnQQFbp
kD8mfrLBQ6+EQJeeh8D/+JHBoCRgQMj/PsCpnJHByNu0QJSuYUARf5PBOVOIQO30XkDmYJfBn/gP
QQMTm0DjRqvBawoJQT+8WkCXda7BUz6/QFe5dkAg563BJhoQQd9juEAcOLXBszfrQIv+jEAlRL7B
AOa0QI7iNkCcyqTBO8DmQKo7W0AsurTB3kTCQK4qfEDYXYjBzOHOQCZTSUBTLJvByGeIQGp2Q0Ad
Q6HBW9lIQPfFdEBDcZHBtrnfQN4+B0DTRLnBqiL3QIUit0CpirrBa+5sQERcqMCS2ovB36MHQHkH
L8DlSYnBj8fJQFi+EcBLMrLBY4rSQJ1bYcAHRqTB+ujjQKUD1L5jer3BbQK4QOd1rMCv/ZjBOeGe
QPW/DT/Of5rBeEVeQAdYd796tpfBpK8EQTnlp0BLVaXBHiIgQQ4AmkCyzafB2X8VQQY/PkDFjbPB
tyYHQcgNNEDsKqfBdDmjQANce0CpMrPBrNfFQPzgmkAbWarBsIgTQepu2UDZt7LB0ZMcQTF1rUDj
yrrBmv8BQd0MgUDDwcPBvnTMQCoAj0Cpg8LBlUrlQJ70d0BWqIfB6/y3QJY2n0As34bBe0izQBJp
UUDMdoLBBL1cQDayOEDYtqXB6pYOQBcGcEBFs5TBFl1PQGifhEAZ6InBCijGQOwCob9GhK/B506U
QColVMAOnqPB/gTVQNHYTb6t4rXBVGmFQD/vi8AQNZ3BoHWtQFuwsD6SK6LB9aKhQGPV/b8Vk5PB
3lOyQF+Sfr9wlaXBeJaiQAgEB8D52Z7Bzcq7QO9atT9DmqjBXnDQQDnvkD8OfbLBwpOEQGKih8AQ
/5HBo62SQDqsQsBTLo3BmdG0QMyEYUD/fZPBpkuIQNfeXkBtYZfBhfYPQYUkm0BlPqvB3BAJQTbY
WkDVbq7BcEa/QNGydkBN5a3BOBsQQeN0uECfL7XBfEvrQMsFjUDZPr7Bp+K0QEDUNkCxyqTBAdLm
QAlFW0CBtbTBQzTCQBvue0ChW4jB5NnOQGY0SUA5K5vBwWOIQFtzQ0ChRKHBRclIQI+vdEDjcZHB
LtvfQAlJB0D5QLnBHyn3QDQst0AghLrBJnVsQPZbqMDy44vB6uaRQDowN8Ayin7BoeLJQAa9EcCL
N7LBftyUQGT8WsDANqzB8h/kQLBX0743eL3B9jJ1QC5FqcCo46DBrZeeQA8vDT8bjJrBF3WsQCLE
iL8u3I/BYKcEQTnwp0DbTqXBlR0gQUEamkA2wqfBbYoVQRluPkAmhrPBMS0HQYwhNEDYJKfBu0ij
QLdWe0AvM7PBjtjFQGvcmkC5VarBVYYTQRyB2UApr7LBG5gcQUCJrUD4wLrBkA0CQdQagUAVu8PB
OYzMQAUBj0A4gMLBgjnlQHu1d0DrpIfBFey3QEgXn0Cm24bB7DOzQHUjUUA7doLBgbhcQKDCOEC+
uaXBY4gOQIL/b0CwtJTB60pPQCeMhEAD6InB

> <OMEGA_E>
cIkrP2RZQj8=

> <OMEGA_NBR>
      8188

$$$$
270668
  -OEChem-04172616093D

 54 58  0     1  0  0  0  0  0999 V2000
    5.5182   -4.5529  -19.3075 C   0  0  0  0  0  0  0  0  0  0  0  0
    5.8049   -3.4802  -20.1675 C   0  0  0  0  0  0  0  0  0  0  0  0
    5.9562   -1.2742  -22.1515 C   0  0  0  0  0  0  0  0  0  0  0  0
    6.3788   -0.1695  -22.8980 C   0  0  0  0  0  0  0  0  0  0  0  0
    4.5851   -4.3905  -18.2654 C   0  0  0  0  0  0  0  0  0  0  0  0
    5.4700    0.1910  -20.2570 C   0  0  0  0  0  0  0  0  0  0  0  0
    4.1969   -2.0921  -18.9587 C   0  0  0  0  0  0  0  0  0  0  0  0
    5.5061   -1.0954  -20.8248 C   0  0  0  0  0  0  0  0  0  0  0  0
    5.1456   -2.2433  -19.9942 C   0  0  0  0  0  0  0  0  0  0  0  0
    5.9226    1.2926  -20.9842 C   0  0  0  0  0  0  0  0  0  0  0  0
    6.3622    1.1076  -22.3198 C   0  0  0  0  0  0  0  0  0  0  0  0
    3.9307   -3.1565  -18.0894 C   0  0  0  0  0  0  0  0  0  0  0  0
    5.5252    3.2405  -18.2128 C   0  0  0  0  0  0  0  0  0  0  0  0
    4.3171    3.5566  -18.9998 C   0  0  0  0  0  0  0  0  0  0  0  0
    4.9355    4.2679  -25.1026 C   0  0  0  0  0  0  0  0  0  0  0  0
    6.4844    4.2087  -25.0279 C   0  0  0  0  0  0  0  0  0  0  0  0
    6.7055    3.6644  -21.1722 C   0  0  0  0  0  0  0  0  0  0  0  0
    4.3799    5.5410  -24.3965 C   0  0  0  0  0  0  0  0  0  0  0  0
    6.4702    5.8928  -23.2097 C   0  0  0  0  0  0  0  0  0  0  0  0
    6.9670    4.4889  -23.5853 C   0  0  1  0  0  0  0  0  0  0  0  0
    6.3581    3.4369  -22.6402 C   0  0  1  0  0  0  0  0  0  0  0  0
    5.8830    2.6748  -20.3457 C   0  0  2  0  0  0  0  0  0  0  0  0
    5.7001    3.5063  -16.7423 C   0  0  0  0  0  0  0  0  0  0  0  0
    6.4160    2.6628  -18.9819 N   0  0  0  0  0  0  0  0  0  0  0  0
    4.4915    3.1250  -20.2190 N   0  3  0  0  0  0  0  0  0  0  0  0
    3.1699    4.1618  -18.5141 N   0  0  0  0  0  0  0  0  0  0  0  0
    6.8110    2.1516  -23.0733 O   0  0  0  0  0  0  0  0  0  0  0  0
    5.0281    5.8474  -23.1297 O   0  0  0  0  0  0  0  0  0  0  0  0
    2.8059   -2.9288  -16.7786 Cl  0  0  0  0  0  0  0  0  0  0  0  0
    6.0136   -5.5026  -19.4454 H   0  0  0  0  0  0  0  0  0  0  0  0
    6.5285   -3.6010  -20.9601 H   0  0  0  0  0  0  0  0  0  0  0  0
    5.9739   -2.2616  -22.5886 H   0  0  0  0  0  0  0  0  0  0  0  0
    6.7165   -0.2998  -23.9155 H   0  0  0  0  0  0  0  0  0  0  0  0
    4.3710   -5.2139  -17.6001 H   0  0  0  0  0  0  0  0  0  0  0  0
    5.0907    0.3265  -19.2549 H   0  0  0  0  0  0  0  0  0  0  0  0
    3.6761   -1.1537  -18.8375 H   0  0  0  0  0  0  0  0  0  0  0  0
    4.6285    4.2819  -26.1588 H   0  0  0  0  0  0  0  0  0  0  0  0
    4.5192    3.3760  -24.6115 H   0  0  0  0  0  0  0  0  0  0  0  0
    6.8239    3.2086  -25.3356 H   0  0  0  0  0  0  0  0  0  0  0  0
    6.9089    4.9645  -25.7051 H   0  0  0  0  0  0  0  0  0  0  0  0
    7.7791    3.4888  -21.0089 H   0  0  0  0  0  0  0  0  0  0  0  0
    6.4544    4.6954  -20.8824 H   0  0  0  0  0  0  0  0  0  0  0  0
    4.5175    6.3985  -25.0716 H   0  0  0  0  0  0  0  0  0  0  0  0
    3.3065    5.3911  -24.2083 H   0  0  0  0  0  0  0  0  0  0  0  0
    6.8893    6.1897  -22.2370 H   0  0  0  0  0  0  0  0  0  0  0  0
    6.7792    6.6166  -23.9783 H   0  0  0  0  0  0  0  0  0  0  0  0
    8.0654    4.4492  -23.5400 H   0  0  0  0  0  0  0  0  0  0  0  0
    5.2639    3.4878  -22.7414 H   0  0  0  0  0  0  0  0  0  0  0  0
    6.6860    3.1419  -16.4181 H   0  0  0  0  0  0  0  0  0  0  0  0
    5.6291    4.5878  -16.5544 H   0  0  0  0  0  0  0  0  0  0  0  0
    4.9128    2.9838  -16.1792 H   0  0  0  0  0  0  0  0  0  0  0  0
    3.7990    3.1045  -20.9401 H   0  0  0  0  0  0  0  0  0  0  0  0
    2.3837    4.2992  -19.1166 H   0  0  0  0  0  0  0  0  0  0  0  0
    3.1278    4.4614  -17.5610 H   0  0  0  0  0  0  0  0  0  0  0  0
  1  2  2  0  0  0  0
  1  5  1  0  0  0  0
  2  9  1  0  0  0  0
  3  4  1  0  0  0  0
  3  8  2  0  0  0  0
  4 11  2  0  0  0  0
  5 12  2  0  0  0  0
  6  8  1  0  0  0  0
  6 10  2  0  0  0  0
  7  9  2  0  0  0  0
  7 12  1  0  0  0  0
  8  9  1  0  0  0  0
 10 11  1  0  0  0  0
 10 22  1  0  0  0  0
 11 27  1  0  0  0  0
 12 29  1  0  0  0  0
 13 14  1  0  0  0  0
 13 23  1  0  0  0  0
 13 24  2  0  0  0  0
 14 25  2  0  0  0  0
 14 26  1  0  0  0  0
 15 16  1  0  0  0  0
 15 18  1  0  0  0  0
 16 20  1  0  0  0  0
 17 21  1  0  0  0  0
 17 22  1  0  0  0  0
 18 28  1  0  0  0  0
 19 20  1  0  0  0  0
 19 28  1  0  0  0  0
 20 21  1  0  0  0  0
 21 27  1  0  0  0  0
 22 24  1  0  0  0  0
 22 25  1  0  0  0  0
  1 30  1  0  0  0  0
  2 31  1  0  0  0  0
  3 32  1  0  0  0  0
  4 33  1  0  0  0  0
  5 34  1  0  0  0  0
  6 35  1  0  0  0  0
  7 36  1  0  0  0  0
 15 37  1  0  0  0  0
 15 38  1  0  0  0  0
 16 39  1  0  0  0  0
 16 40  1  0  0  0  0
 17 41  1  0  0  0  0
 17 42  1  0  0  0  0
 18 43  1  0  0  0  0
 18 44  1  0  0  0  0
 19 45  1  0  0  0  0
 19 46  1  0  0  0  0
 20 47  1  0  0  0  0
 21 48  1  0  0  0  0
 23 49  1  0  0  0  0
 23 50  1  0  0  0  0
 23 51  1  0  0  0  0
 25 52  1  0  0  0  0
 26 53  1  0  0  0  0
 26 54  1  0  0  0  0
M  CHG  1  25   1
M  END
> <OMEGA_C>
KZWwQFuxkcC5dZrB5cG5QCO8XsD3VqHB/pi+QH4Yo79HNrHB+x7MQJ2WLb4NL7fBvriSQPp+jMCL
H5LBHAqvQKSOQz5CDqLBP02GQGTkBcCEq5fBUTKwQIQ2jL8hmabBXqikQLCRD8AZ9J/B3YW9QJ50
pT+v36fB6ZbLQObGjT/1jrLBTpB7QAoESsAet5DBWM6wQBNkT0DOs5HBoiWKQN6fY0CX/5fBhu+d
QAqTiEAp0sjBl4DPQHuthkAxOcjBpJPWQFCGakC1YKnB0CeMQKVPsUAhLMPBLwzPQBqSvECHrbnB
q/HeQLikj0DLrrzBgHXLQLj1W0AsH7XBPEG8QCsvK0Dvw6LBame2QHBnYEBV8IXB4U/NQPtqKkAE
25fBibqPQFb/R0BvwKHBX99KQM0thUD3HJTBZ/PZQLuzCUAKlrjBP+agQPodu0CHCbnBNpQzQINx
O8B9OobBAm/AQKoVsMAskJvBaenQQBx3ZsBCrqfBeSq/QGK+EMB1tbTBj+3WQKx6mb74Ur/Bmt+L
QInYpsAbzYzBBueiQOgupz7+CZrBxEVrQIGtk78us5bBxRyUQDEFiUBFRdHBlp2QQGUQWEBs5MTB
r13aQIFaTUBnr8rBCRbdQAbdnkAMpM3BD+74QCtJX0AwEqjBNYrOQAVBlkAyD6fBZY+QQK/AzECX
ksjBu51TQCqErECFqsHBe3XcQMQRxkBW5bHBNu/YQP2600Cd07/BrgsBQe9fjkABUrzBL3KoQFQ3
X0Bi7rXBG/TVQNYUSUA4WIPBkyG0QFDPkkBmb4TB2jWdQIT2PkACb4HBFSNzQMCvRkBLhafBBo4Y
QEqTiUDc7pjBsy1IQP7DjkDvfIzBATexQO69kMA1ypnBRVu9QELuXMC5XqDB/ojFQJKEpb+fhbDB
ET3SQAxwQ74IkbbBkjyOQPJBjMDvw5LBel6xQGQmQD7pwqHBVEuDQNmBBsCD55jB72S0QDzMjL/0
MqbBRo+mQH8mD8AE3Z/BD/O+QOwzpT/FqKfB/O3NQCYEjD8ESrLBTH1uQBQES8ClW5LBkA6xQDbx
UEC2pZHBLkeKQCJ2ZED26pfB9KW6QIeB0UAqvrXBCTq0QI8jskBQDr/B53/TQOARakD4+qnBKezq
QOVA20C8CbTBCcgAQQh+mkCrEr3BTdnSQJali0DJfL7BJzXFQM4TWED+urXBVtm7QEigK0A+xqLB
pu61QBRpYECNz4XBNwXOQE9VLkAa6ZfBlhePQGC4RUA+jqHBN+RLQOF0hkAYFpTB1unXQGXCCEBo
zrjBergCQbI/tUC+vLPBK3YXQG5XP8B+w4nBBarCQNiLrsCVG5rBigjYQHywY8AozKXBHM7IQGea
EsDrurPBjE3fQLcUqL5Qfb7BdwSFQCCepsDerI3BOJCkQJWipD7mzpnB+ENjQDFFlr9JoZjBq7ip
QBqH70AsiLfB3HqtQI5Vw0AXZK7B6RiTQLdFpkAH2r7BH9K5QEE+w0BynsbBzTz2QDeJYEC3NKnB
2VrLQKkalkCpwafBs/71QNK970AAo7rBO6HuQFtn7EDGaKzBuCoLQXuhfEAPJrzB37wFQS26rEAw
LsTB19jQQOSFdUBQMcbBAxyiQIbNUkCz17XBi6LVQCkySkB3LoPBRMOyQDegkkD7JYTBpvKcQEsW
PUC4dYHB1X5wQPjYQEDgH6fBEggZQElEikAf2ZjBWEhKQDVAkUDRjozB

> <OMEGA_E>
tlkoP+hJJj8=

> <OMEGA_NBR>
     10290

$$$$
270667
  -OEChem-04172616093D

 54 58  0     1  0  0  0  0  0999 V2000
    5.3007   -4.4142  -19.0560 C   0  0  0  0  0  0  0  0  0  0  0  0
    5.7588   -3.3630  -19.8717 C   0  0  0  0  0  0  0  0  0  0  0  0
    6.2277   -1.2643  -21.9431 C   0  0  0  0  0  0  0  0  0  0  0  0
    6.7047   -0.2011  -22.7251 C   0  0  0  0  0  0  0  0  0  0  0  0
    4.1694   -4.2310  -18.2373 C   0  0  0  0  0  0  0  0  0  0  0  0
    5.3770    0.3281  -20.3050 C   0  0  0  0  0  0  0  0  0  0  0  0
    3.9473   -1.9436  -19.0498 C   0  0  0  0  0  0  0  0  0  0  0  0
    5.5693   -1.0063  -20.7197 C   0  0  0  0  0  0  0  0  0  0  0  0
    5.0854   -2.1178  -19.8741 C   0  0  0  0  0  0  0  0  0  0  0  0
    5.8246    1.3998  -21.1000 C   0  0  0  0  0  0  0  0  0  0  0  0
    6.5301    1.1289  -22.3014 C   0  0  0  0  0  0  0  0  0  0  0  0
    3.4938   -2.9950  -18.2347 C   0  0  0  0  0  0  0  0  0  0  0  0
    5.6764    3.5803  -18.5080 C   0  0  0  0  0  0  0  0  0  0  0  0
    4.2628    3.5065  -18.9286 C   0  0  0  0  0  0  0  0  0  0  0  0
    5.7284    6.4509  -23.4324 C   0  0  0  0  0  0  0  0  0  0  0  0
    7.2103    5.9504  -23.3698 C   0  0  0  0  0  0  0  0  0  0  0  0
    5.8307    3.8056  -21.7647 C   0  0  0  0  0  0  0  0  0  0  0  0
    4.9602    5.8743  -24.6419 C   0  0  0  0  0  0  0  0  0  0  0  0
    6.5650    4.1254  -25.0088 C   0  0  0  0  0  0  0  0  0  0  0  0
    7.4065    4.4444  -23.7396 C   0  0  2  0  0  0  0  0  0  0  0  0
    7.1152    3.4624  -22.5538 C   0  0  2  0  0  0  0  0  0  0  0  0
    5.5854    2.8245  -20.6273 C   0  0  2  0  0  0  0  0  0  0  0  0
    6.1515    4.0620  -17.1585 C   0  0  0  0  0  0  0  0  0  0  0  0
    6.4518    3.1533  -19.4800 N   0  0  0  0  0  0  0  0  0  0  0  0
    4.2124    2.9982  -20.1318 N   0  3  0  0  0  0  0  0  0  0  0  0
    3.1712    3.8820  -18.1593 N   0  0  0  0  0  0  0  0  0  0  0  0
    7.0522    2.1209  -23.1034 O   0  0  0  0  0  0  0  0  0  0  0  0
    5.1817    4.4561  -24.7935 O   0  0  0  0  0  0  0  0  0  0  0  0
    2.0885   -2.7623  -17.2248 Cl  0  0  0  0  0  0  0  0  0  0  0  0
    5.8172   -5.3627  -19.0579 H   0  0  0  0  0  0  0  0  0  0  0  0
    6.6269   -3.5067  -20.4979 H   0  0  0  0  0  0  0  0  0  0  0  0
    6.3641   -2.2823  -22.2772 H   0  0  0  0  0  0  0  0  0  0  0  0
    7.2090   -0.4053  -23.6580 H   0  0  0  0  0  0  0  0  0  0  0  0
    3.8197   -5.0386  -17.6112 H   0  0  0  0  0  0  0  0  0  0  0  0
    4.8808    0.5297  -19.3672 H   0  0  0  0  0  0  0  0  0  0  0  0
    3.4252   -0.9982  -19.0473 H   0  0  0  0  0  0  0  0  0  0  0  0
    5.2137    6.1456  -22.5094 H   0  0  0  0  0  0  0  0  0  0  0  0
    5.7295    7.5484  -23.5057 H   0  0  0  0  0  0  0  0  0  0  0  0
    7.8062    6.5554  -24.0690 H   0  0  0  0  0  0  0  0  0  0  0  0
    7.5806    6.1028  -22.3453 H   0  0  0  0  0  0  0  0  0  0  0  0
    5.9301    4.8180  -21.3461 H   0  0  0  0  0  0  0  0  0  0  0  0
    4.9723    3.7756  -22.4519 H   0  0  0  0  0  0  0  0  0  0  0  0
    3.8844    6.0529  -24.4979 H   0  0  0  0  0  0  0  0  0  0  0  0
    5.2980    6.3867  -25.5548 H   0  0  0  0  0  0  0  0  0  0  0  0
    6.9500    4.7131  -25.8552 H   0  0  0  0  0  0  0  0  0  0  0  0
    6.6491    3.0530  -25.2385 H   0  0  0  0  0  0  0  0  0  0  0  0
    8.4644    4.3148  -24.0117 H   0  0  0  0  0  0  0  0  0  0  0  0
    7.9639    3.5239  -21.8568 H   0  0  0  0  0  0  0  0  0  0  0  0
    7.2488    4.0011  -17.1123 H   0  0  0  0  0  0  0  0  0  0  0  0
    5.8357    5.1051  -17.0097 H   0  0  0  0  0  0  0  0  0  0  0  0
    5.7158    3.4309  -16.3699 H   0  0  0  0  0  0  0  0  0  0  0  0
    3.3783    2.7659  -20.6321 H   0  0  0  0  0  0  0  0  0  0  0  0
    2.2445    3.7712  -18.5185 H   0  0  0  0  0  0  0  0  0  0  0  0
    3.3110    4.2635  -17.2456 H   0  0  0  0  0  0  0  0  0  0  0  0
  1  2  2  0  0  0  0
  1  5  1  0  0  0  0
  2  9  1  0  0  0  0
  3  4  1  0  0  0  0
  3  8  2  0  0  0  0
  4 11  2  0  0  0  0
  5 12  2  0  0  0  0
  6  8  1  0  0  0  0
  6 10  2  0  0  0  0
  7  9  2  0  0  0  0
  7 12  1  0  0  0  0
  8  9  1  0  0  0  0
 10 11  1  0  0  0  0
 10 22  1  0  0  0  0
 11 27  1  0  0  0  0
 12 29  1  0  0  0  0
 13 14  1  0  0  0  0
 13 23  1  0  0  0  0
 13 24  2  0  0  0  0
 14 25  2  0  0  0  0
 14 26  1  0  0  0  0
 15 16  1  0  0  0  0
 15 18  1  0  0  0  0
 16 20  1  0  0  0  0
 17 21  1  0  0  0  0
 17 22  1  0  0  0  0
 18 28  1  0  0  0  0
 19 20  1  0  0  0  0
 19 28  1  0  0  0  0
 20 21  1  0  0  0  0
 21 27  1  0  0  0  0
 22 24  1  0  0  0  0
 22 25  1  0  0  0  0
  1 30  1  0  0  0  0
  2 31  1  0  0  0  0
  3 32  1  0  0  0  0
  4 33  1  0  0  0  0
  5 34  1  0  0  0  0
  6 35  1  0  0  0  0
  7 36  1  0  0  0  0
 15 37  1  0  0  0  0
 15 38  1  0  0  0  0
 16 39  1  0  0  0  0
 16 40  1  0  0  0  0
 17 41  1  0  0  0  0
 17 42  1  0  0  0  0
 18 43  1  0  0  0  0
 18 44  1  0  0  0  0
 19 45  1  0  0  0  0
 19 46  1  0  0  0  0
 20 47  1  0  0  0  0
 21 48  1  0  0  0  0
 23 49  1  0  0  0  0
 23 50  1  0  0  0  0
 23 51  1  0  0  0  0
 25 52  1  0  0  0  0
 26 53  1  0  0  0  0
 26 54  1  0  0  0  0
M  CHG  1  25   1
M  END
> <OMEGA_C>
BZ+pQIZBjcDAcpjB6ke4QHs7V8A6+Z7BJEnHQInVob+Gi6/BCY3WQOjyTb72zLXBl2uFQHhkh8D2
5ZHBDBCsQIf/pz6rcKLBTaF8QHnI+L/sZZjBczeyQLHNgL/swaXBt7uiQGGKB8Ae/p7B/WK6QGks
sz/dzKjBzvbQQI5/kD8vabLB+JpfQHauP8Cw4JHBcaW1QGgjZUBjEJTBrWiIQG1qYEDNbZfBU0+3
QINtzkB5dbvBc7rmQJNpvkBq9brBfZW6QMuOc0AcHq7B3LmeQH/6u0CpIsXBexTSQKUDhEDuEcjB
5QHtQMg4jkCt6r3Bz6/jQHWYXUA8brTBRruyQA3FNEDLBKXBEtnEQLn7gUCuRInBMHXOQNnPSUAI
15vBNcyGQAjiP0DjDaHBzvRKQDxyeEA/RpHBVKvhQLi8B0DO07jBOdClQJuYjkAkWcbBLaoFQOnJ
MMB+zInBWia6QG2bq8B9dpjBmA/UQDBtYMCt+6PBqabLQI0QEsC2N7LBerDmQB9/z76gQ73BcnZ0
QM47ocCq44zBXi+cQNuaBz/x75rBMjdbQGiKf7/wYJjBn9amQJeoxEBCE7TBali3QKiM8UCuC7zB
QMz5QDDG0UA8jcDBLJTyQIBKw0A5w7LBtMO9QLssmkDPxKrBOx2fQGmjcUBtnbPBmZl4QIKxwUDH
+8PB6oipQIJfzEBTcMzBWGbeQFnRlkB7187BiMXUQE1kQ0Bw6MnBFG4HQY8SikD6F8DBldj+QN6G
YUCp2q7BevbnQKgIgEAR5ojBNr66QBddo0DdE4jBIui2QBqUW0CK9YLBOTZYQEYFMUCKDqXBRqYP
QI5acUDVJZTB/+ZTQEVuiEDm9onBGHCuQFQ/jsCZQJnBYr+7QOzAWMDt1J/BVdXGQI5uor9BM7DB
uzbVQO4VO74UL7bBUlaKQDFLicBdnJLBPNutQErXgz5MRKLBl6eAQH9LAcDoHZnB2VuzQMoihr+h
MKbBlO2kQJjVCsDwuZ/B5wW7QFzbrD8NXajB2+7PQFIGjz9UP7LBvPhmQEXdRMDAkJLBP6O0QPmY
XEBGG5PBVbiIQCjpYkBPTJfBbuvoQIKP0kCiGLbB5D4AQYm3sEDPsLzBLgW5QD7Ab0BgHK3BiZ+8
QFoN3EDuGrvBlMO4QKbRlUAhYsPBbcDkQK8HiUAuib7BK63gQIhCW0CyNLTBn/myQBy7L0D5I6TB
ySDBQGDDcUBQxYfBtEPOQDPVQUBqxJrBWgmHQKlMOEDXPKDBojpNQG9VhkCFh5LBxu7eQC4fB0BC
lrjBLqKjQJe3tUC41bzBu2YNQA2MN8ClbYrBJ9u/QMgYrMB+R5nB51TXQCg7YMDP86TBj5fKQE+M
EcCJN7PB6GTkQPnFr7611r3BtSiAQM9co8CLio3BEGmfQKxP1D7nhJrBrx1eQFuci7/9HZnBk4bk
QEi3xkDt4a3BGPn7QKgm8EBZ77XBEZUEQemLvkC0fMTBA9wOQeQwp0BYZ7jBiy29QNvil0DvmanB
0EOcQJw4b0CXL7LBSM+qQJtf8UCzs7XB3XTBQA4Z7EAN2MLB2sy9QJ7wokCSc8vBtVWkQBhzckAk
48PB1yf1QN5CakB2hsTByc/9QBKbY0AKYa/BTLPjQMN7Z0CGuobBqGC5QFaMmkB3FYbB1WqvQGQs
SEBeOILBolFZQCmqIUBQxqPBMIMTQKDEhUC9+5XB361VQKT6lUCSoYvBU5KGQJhqjMDMM53BGt2V
QPuuVcDdqKPBGh7IQOcXor91cq/BIFnXQNjJUL5yurXBbCSEQAc6h8CRBpLB/1KsQOVrpz6Pa6LB
gm6gQIJz+799tpPBGLuyQAXxgL8Es6XBR+miQJF/B8CQ9Z7B3cS6QN7lsj/Aw6jBGmjRQPxHkD8n
Z7LB6Q2RQJnXQMCMSo3Bv321QHUZZkD/J5TByjqIQI1dYECweZfBWP7pQMZ810Cq47PBg+kDQZmL
tkBZSbnBU1O5QAVpcUBscq7BD9nBQAEB4EC+17rBHonIQIADnEBMKcTB4//vQLMvjkCfbr3BVRrk
QOfiXECQPLTBcnKyQI/gNECkFKXBJZ7EQAh9gkAKWonBd1TOQPv7S0Da/pvBeJeGQNdPP0BlEqHB
2YxKQPdReEC/U5HBF1LhQLc8CEAA67jBzxmtQIPXuECAML7BqSuOQGmRM8Dy4H7BVl95QDEzqsBj
0qDBVaaXQH/UXcBQOqzBTsLMQJY9EsCUErLBr7jnQBzZ0b4WKL3Bzb5wQEgEocB3FY3BVSecQI92
Bz8f9ZrBEmmqQBLEhL9PDZDB9NzfQNALy0B7DqzB54P7QNGv9UBDxbLBu90LQYQZxkAUG8DB6QIQ
QTFdrECqbLPBnkS6QJPRmUC6eKvByLWeQNtXakBII7TBDPaqQFYc80AgKrbBa4nLQKwJ8kBdAMLB
ZazTQIhNrEDScsvB+Bq2QA29fkClYcbBrv0CQQl3ekC518LBTfv9QABCXkAdRq7BqsTnQJEogUA3
BonBxPC5QJmno0DSGYjBrCe3QEnOW0CGDoPBEMpXQNi2L0A6B6XBaT8PQJm8cECnLpTBknNTQEOW
iEAZCorBBOGGQMugjMB+L53B3aeVQG/qVcCar6PBwUTHQL7Yob/cka/ByqfWQDl7Tb5GzbXBxvaE
QF53h8BtAJLBzK2rQIyZpz4DgqLBk7ugQOy1+7/uxJPBsxCyQPnhgL++zKXBJqyiQPOTB8CnBZ/B
Vk+6QEIjsz/K0ajBoRTRQNiGkD8eZ7LBueGRQPYsQcCqTY3B7Yi1QMHmZEAMEJTBzlCIQNNgYEBf
cpfBXp63QLV+zkCVb7vBrwTnQEVvvkAt6LrBfay6QJWNc0CZHa7B5h6fQGYYvEBXIcXBanDSQP4S
hEDUCcjBO0rtQDg/jkCJ3r3B+N7jQMWgXUA5ZLTBx66yQA6/NEB+B6XBFLPEQH/KgUDMQYnBRV7O
QKGYSUCm1ZvBZLyGQJ8MQEBWFaHBlrtKQEZleEBNTJHBm/bhQJrDB0AxyrjBCyumQA21jkAwWMbB
WKuPQAH6M8DK4n7B7/x5QC13qsD6xqDBcBGXQLAIXsBGQqzBm6TLQG4OEsA6P7LBOeHmQNL0zr45
Qb3BASxzQG5UocDSBo3BUGGbQIxOBz+eD5vBjLeqQP3NhL8uI5DBmg+nQOy4xECHELTBVLG3QDee
8UBcBLzBDSr6QLvL0UDYe8DBBMnyQKBHw0C+s7LBLM29QJEqmkCPwqrBpEmfQJ+mcUCao7PByGB5
QPfYwUAxAMTB5QaqQCR+zECVbMzBldjeQPXclkB7zc7BUhvVQGKBQ0D038nBNZQHQYoUikB4B8DB
W/P+QHaeYUCjyq7BYM/nQAmYf0Bx4IjBBKG6QG0to0ASD4jBhbO2QL8pW0B59YLB4xtYQFZuMUCt
GqXBRnMPQJp1cUBpL5TBtqBTQJNSiECA+onB

> <OMEGA_E>
KJEtPzJeLT8CwUY/OBxEPw==

> <OMEGA_NBR>
     14188

$$$$
284490
  -OEChem-04172616093D

 57 62  0     1  0  0  0  0  0999 V2000
    5.2860   -4.5057  -19.2440 C   0  0  0  0  0  0  0  0  0  0  0  0
    5.7254   -3.4255  -20.0259 C   0  0  0  0  0  0  0  0  0  0  0  0
    6.1341   -1.2628  -21.9972 C   0  0  0  0  0  0  0  0  0  0  0  0
    6.5662   -0.1863  -22.7754 C   0  0  0  0  0  0  0  0  0  0  0  0
    4.2312   -4.3297  -18.3298 C   0  0  0  0  0  0  0  0  0  0  0  0
    5.4317    0.2822  -20.2515 C   0  0  0  0  0  0  0  0  0  0  0  0
    4.0401   -1.9925  -18.9883 C   0  0  0  0  0  0  0  0  0  0  0  0
    6.2577    5.1255  -21.0623 C   0  0  0  0  0  0  0  0  0  0  0  0
    7.3026    5.7347  -23.1698 C   0  0  0  0  0  0  0  0  0  0  0  0
    5.5589   -1.0342  -20.7302 C   0  0  0  0  0  0  0  0  0  0  0  0
    5.1010   -2.1625  -19.9079 C   0  0  0  0  0  0  0  0  0  0  0  0
    6.7445    6.1149  -21.9304 C   0  0  0  0  0  0  0  0  0  0  0  0
    5.8704    1.3667  -21.0279 C   0  0  0  0  0  0  0  0  0  0  0  0
    6.2987    3.7702  -21.4250 C   0  0  0  0  0  0  0  0  0  0  0  0
    6.4364    1.1286  -22.3065 C   0  0  0  0  0  0  0  0  0  0  0  0
    6.8302    3.3954  -22.6848 C   0  0  0  0  0  0  0  0  0  0  0  0
    7.3422    4.3846  -23.5400 C   0  0  0  0  0  0  0  0  0  0  0  0
    3.6151   -3.0710  -18.1971 C   0  0  0  0  0  0  0  0  0  0  0  0
    7.4946    8.4815  -22.0443 C   0  0  0  0  0  0  0  0  0  0  0  0
    6.6142    7.5354  -21.5490 C   0  0  0  0  0  0  0  0  0  0  0  0
    6.4282    2.8561  -19.1110 C   0  0  0  0  0  0  0  0  0  0  0  0
    4.2278    3.4416  -18.9011 C   0  0  0  0  0  0  0  0  0  0  0  0
    7.3872    9.9465  -21.6564 C   0  0  0  0  0  0  0  0  0  0  0  0
    5.4874    7.9505  -20.6003 C   0  0  0  0  0  0  0  0  0  0  0  0
    5.2316    9.4632  -20.6667 C   0  0  0  0  0  0  0  0  0  0  0  0
    5.7421    2.7572  -20.4637 C   0  0  2  0  0  0  0  0  0  0  0  0
    5.6245    3.4160  -16.7854 C   0  0  0  0  0  0  0  0  0  0  0  0
    5.4134    3.1443  -18.2124 N   0  0  0  0  0  0  0  0  0  0  0  0
    4.3362    3.0681  -20.1568 N   0  3  0  0  0  0  0  0  0  0  0  0
    3.0935    4.0148  -18.3469 N   0  0  0  0  0  0  0  0  0  0  0  0
    7.6164    2.6776  -18.8669 O   0  0  0  0  0  0  0  0  0  0  0  0
    6.8862    2.1042  -23.1654 O   0  0  0  0  0  0  0  0  0  0  0  0
    6.4876   10.1563  -20.5404 O   0  0  0  0  0  0  0  0  0  0  0  0
    7.8622    4.0376  -24.7402 F   0  0  0  0  0  0  0  0  0  0  0  0
    2.3281   -2.8415  -17.0442 Cl  0  0  0  0  0  0  0  0  0  0  0  0
    5.7577   -5.4720  -19.3444 H   0  0  0  0  0  0  0  0  0  0  0  0
    6.5425   -3.5597  -20.7193 H   0  0  0  0  0  0  0  0  0  0  0  0
    6.2408   -2.2720  -22.3666 H   0  0  0  0  0  0  0  0  0  0  0  0
    7.0037   -0.3682  -23.7459 H   0  0  0  0  0  0  0  0  0  0  0  0
    3.8938   -5.1613  -17.7290 H   0  0  0  0  0  0  0  0  0  0  0  0
    4.9938    0.4599  -19.2804 H   0  0  0  0  0  0  0  0  0  0  0  0
    3.5562   -1.0315  -18.8947 H   0  0  0  0  0  0  0  0  0  0  0  0
    5.8471    5.4099  -20.1048 H   0  0  0  0  0  0  0  0  0  0  0  0
    7.7004    6.4871  -23.8346 H   0  0  0  0  0  0  0  0  0  0  0  0
    8.2760    8.1712  -22.7223 H   0  0  0  0  0  0  0  0  0  0  0  0
    8.3865   10.3129  -21.3785 H   0  0  0  0  0  0  0  0  0  0  0  0
    7.0157   10.5151  -22.5217 H   0  0  0  0  0  0  0  0  0  0  0  0
    4.5669    7.4186  -20.8826 H   0  0  0  0  0  0  0  0  0  0  0  0
    5.7668    7.6791  -19.5715 H   0  0  0  0  0  0  0  0  0  0  0  0
    4.7656    9.7165  -21.6304 H   0  0  0  0  0  0  0  0  0  0  0  0
    4.5620    9.7605  -19.8462 H   0  0  0  0  0  0  0  0  0  0  0  0
    4.6563    3.6140  -16.3022 H   0  0  0  0  0  0  0  0  0  0  0  0
    6.0985    2.5433  -16.3123 H   0  0  0  0  0  0  0  0  0  0  0  0
    6.2771    4.2942  -16.6721 H   0  0  0  0  0  0  0  0  0  0  0  0
    3.5781    3.0047  -20.8058 H   0  0  0  0  0  0  0  0  0  0  0  0
    2.2838    4.1692  -18.9131 H   0  0  0  0  0  0  0  0  0  0  0  0
    3.0851    4.2739  -17.3811 H   0  0  0  0  0  0  0  0  0  0  0  0
  1  2  2  0  0  0  0
  1  5  1  0  0  0  0
  2 11  1  0  0  0  0
  3  4  2  0  0  0  0
  3 10  1  0  0  0  0
  4 15  1  0  0  0  0
  5 18  2  0  0  0  0
  6 10  2  0  0  0  0
  6 13  1  0  0  0  0
  7 11  2  0  0  0  0
  7 18  1  0  0  0  0
  8 12  1  0  0  0  0
  8 14  2  0  0  0  0
  9 12  2  0  0  0  0
  9 17  1  0  0  0  0
 10 11  1  0  0  0  0
 12 20  1  0  0  0  0
 13 15  2  0  0  0  0
 13 26  1  0  0  0  0
 14 16  1  0  0  0  0
 14 26  1  0  0  0  0
 15 32  1  0  0  0  0
 16 17  2  0  0  0  0
 16 32  1  0  0  0  0
 17 34  1  0  0  0  0
 18 35  1  0  0  0  0
 19 20  2  0  0  0  0
 19 23  1  0  0  0  0
 20 24  1  0  0  0  0
 21 26  1  0  0  0  0
 21 28  1  0  0  0  0
 21 31  2  0  0  0  0
 22 28  1  0  0  0  0
 22 29  2  0  0  0  0
 22 30  1  0  0  0  0
 23 33  1  0  0  0  0
 24 25  1  0  0  0  0
 25 33  1  0  0  0  0
 26 29  1  0  0  0  0
 27 28  1  0  0  0  0
  1 36  1  0  0  0  0
  2 37  1  0  0  0  0
  3 38  1  0  0  0  0
  4 39  1  0  0  0  0
  5 40  1  0  0  0  0
  6 41  1  0  0  0  0
  7 42  1  0  0  0  0
  8 43  1  0  0  0  0
  9 44  1  0  0  0  0
 19 45  1  0  0  0  0
 23 46  1  0  0  0  0
 23 47  1  0  0  0  0
 24 48  1  0  0  0  0
 24 49  1  0  0  0  0
 25 50  1  0  0  0  0
 25 51  1  0  0  0  0
 27 52  1  0  0  0  0
 27 53  1  0  0  0  0
 27 54  1  0  0  0  0
 29 55  1  0  0  0  0
 30 56  1  0  0  0  0
 30 57  1  0  0  0  0
M  CHG  1  29   1
M  END
> <OMEGA_C>
pyapQOMukMDK85nB1ja3QLQ7W8AeNaDB20rEQJmiob9b+q/BfB7SQEi+Pr4INLbB/2WHQNyMisBv
o5LBodCtQMR6kD4SA6LBLEiBQIIL/7/z55fB/z7IQLIDpECkf6jB8K7pQFqCt0CpW7nBYeKxQBhf
hL9y16XBgzujQF5mCsBXQ5/BtNLXQHytw0Bcca/BRdq7QGjxrj8wOajB047JQDxLcUBoZqvB1PbN
QMh2kD+jc7LBCZHaQKBOWUCOerXB7fLqQHZOjEDnUbzBHV5nQEmLRMCqk5HBDtTvQCK0B0HRWrDB
hqfTQPIh8UBEZKzBi7PNQOTKNkBU45jBzkmHQD5DXEBlNZfB0WPsQAElH0E2QK3B2pivQJZq/kBU
zaTBJGmnQBFpF0F3VaXBA7+3QMx1MECWtaPBp/uzQFCfWkB/SIbB1DqtQBo8SUDxspHBUsKKQGpb
REAwQaHBDvxFQEF5gECKxpLBd7nzQKBdK0Bw75bB9FvcQL6qBkC1UrnBJprPQCWAIkHWUqTBZZf7
QPczgUDs68XB7P4UQOzaNcCCWojBeD+4QNoar8BpwZrBZVzRQHnSY8AkwaXBvbTHQMloEcDZ7rLB
sh7gQNmIvL6b973BazN5QKYppcAU1Y3BQs2fQCV+6z5CPprBX5ljQL8IhL9cKJfBFhu7QB4erUCh
1qDBb2n2QFiWz0BCrb7BeGoEQSq9AkE7x7XBDS8GQZgBJUFCB6vBiYDgQMY9KEFZLLTBJySSQBFl
7UCqD6fBoom4QHi79UB7kpzB+X+YQOh2G0EUC63Bp/uRQPoqHEEaxZ7BkwCVQBFMZ0DwaoLBDyfD
QCPGIkCnf4LBK97IQLxpiUBrYIXBzv5kQMVMQEBHcqbBaykSQMdphUD7TZfBoHJFQKDDiECKDIvB

> <OMEGA_E>
oMk1Pw==

> <OMEGA_NBR>
     15438

$$$$
284493
  -OEChem-04172616093D

 58 63  0     1  0  0  0  0  0999 V2000
    5.4119   -4.4777  -19.1861 C   0  0  0  0  0  0  0  0  0  0  0  0
    5.8560   -3.3888  -19.9515 C   0  0  0  0  0  0  0  0  0  0  0  0
    6.6644    7.8808  -20.1874 C   0  0  0  0  0  0  0  0  0  0  0  0
    6.8958    8.5101  -22.5383 C   0  0  0  0  0  0  0  0  0  0  0  0
    6.2003   -1.2695  -21.9708 C   0  0  0  0  0  0  0  0  0  0  0  0
    6.6380    9.2378  -19.8295 C   0  0  0  0  0  0  0  0  0  0  0  0
    6.8874    9.8642  -22.1742 C   0  0  0  0  0  0  0  0  0  0  0  0
    6.6133   -0.1944  -22.7531 C   0  0  0  0  0  0  0  0  0  0  0  0
    4.2676   -4.3462  -18.3760 C   0  0  0  0  0  0  0  0  0  0  0  0
    5.4213    0.2782  -20.2532 C   0  0  0  0  0  0  0  0  0  0  0  0
    6.2849    5.1083  -21.0759 C   0  0  0  0  0  0  0  0  0  0  0  0
    7.3547    5.6836  -23.1812 C   0  0  0  0  0  0  0  0  0  0  0  0
    4.0140   -2.0323  -19.0872 C   0  0  0  0  0  0  0  0  0  0  0  0
    6.7958    7.5031  -21.5486 C   0  0  0  0  0  0  0  0  0  0  0  0
    5.5984   -1.0364  -20.7199 C   0  0  0  0  0  0  0  0  0  0  0  0
    5.1547   -2.1632  -19.9068 C   0  0  0  0  0  0  0  0  0  0  0  0
    6.8169    6.0811  -21.9382 C   0  0  0  0  0  0  0  0  0  0  0  0
    5.8521    1.3632  -21.0289 C   0  0  0  0  0  0  0  0  0  0  0  0
    6.2996    3.7549  -21.4324 C   0  0  0  0  0  0  0  0  0  0  0  0
    6.7729   10.2318  -20.8193 C   0  0  0  0  0  0  0  0  0  0  0  0
    6.4425    1.1180  -22.2973 C   0  0  0  0  0  0  0  0  0  0  0  0
    6.8191    3.3700  -22.6946 C   0  0  0  0  0  0  0  0  0  0  0  0
    7.3332    4.3424  -23.5609 C   0  0  0  0  0  0  0  0  0  0  0  0
    3.5714   -3.1222  -18.3271 C   0  0  0  0  0  0  0  0  0  0  0  0
    6.4127    2.8521  -19.1085 C   0  0  0  0  0  0  0  0  0  0  0  0
    4.2241    3.4820  -18.9024 C   0  0  0  0  0  0  0  0  0  0  0  0
    5.7269    2.7568  -20.4644 C   0  0  2  0  0  0  0  0  0  0  0  0
    6.7203   11.6937  -20.4371 C   0  0  0  0  0  0  0  0  0  0  0  0
    5.6042    3.3968  -16.7773 C   0  0  0  0  0  0  0  0  0  0  0  0
    5.4023    3.1642  -18.2131 N   0  0  0  0  0  0  0  0  0  0  0  0
    4.3230    3.0913  -20.1557 N   0  3  0  0  0  0  0  0  0  0  0  0
    3.1059    4.0799  -18.3398 N   0  0  0  0  0  0  0  0  0  0  0  0
    7.5917    2.6314  -18.8551 O   0  0  0  0  0  0  0  0  0  0  0  0
    6.8803    2.0824  -23.1640 O   0  0  0  0  0  0  0  0  0  0  0  0
    7.8281    3.9846  -24.7684 F   0  0  0  0  0  0  0  0  0  0  0  0
    2.1517   -2.9491  -17.3316 Cl  0  0  0  0  0  0  0  0  0  0  0  0
    5.9469   -5.4154  -19.2182 H   0  0  0  0  0  0  0  0  0  0  0  0
    6.7330   -3.4875  -20.5740 H   0  0  0  0  0  0  0  0  0  0  0  0
    6.5845    7.1214  -19.4236 H   0  0  0  0  0  0  0  0  0  0  0  0
    6.9789    8.2341  -23.5791 H   0  0  0  0  0  0  0  0  0  0  0  0
    6.3416   -2.2806  -22.3231 H   0  0  0  0  0  0  0  0  0  0  0  0
    6.5140    9.5204  -18.7946 H   0  0  0  0  0  0  0  0  0  0  0  0
    6.9689   10.6270  -22.9344 H   0  0  0  0  0  0  0  0  0  0  0  0
    7.0675   -0.3738  -23.7163 H   0  0  0  0  0  0  0  0  0  0  0  0
    3.9227   -5.1858  -17.7907 H   0  0  0  0  0  0  0  0  0  0  0  0
    4.9528    0.4521  -19.2958 H   0  0  0  0  0  0  0  0  0  0  0  0
    5.8605    5.4074  -20.1288 H   0  0  0  0  0  0  0  0  0  0  0  0
    7.7849    6.4221  -23.8413 H   0  0  0  0  0  0  0  0  0  0  0  0
    3.4828   -1.0929  -19.0459 H   0  0  0  0  0  0  0  0  0  0  0  0
    7.7384   12.0566  -20.2326 H   0  0  0  0  0  0  0  0  0  0  0  0
    6.2838   12.2733  -21.2638 H   0  0  0  0  0  0  0  0  0  0  0  0
    6.1002   11.8150  -19.5367 H   0  0  0  0  0  0  0  0  0  0  0  0
    4.6385    3.6255  -16.3030 H   0  0  0  0  0  0  0  0  0  0  0  0
    6.0343    2.4951  -16.3169 H   0  0  0  0  0  0  0  0  0  0  0  0
    6.2916    4.2439  -16.6363 H   0  0  0  0  0  0  0  0  0  0  0  0
    3.5616    3.0303  -20.8011 H   0  0  0  0  0  0  0  0  0  0  0  0
    2.2923    4.2434  -18.8978 H   0  0  0  0  0  0  0  0  0  0  0  0
    3.1134    4.3475  -17.3763 H   0  0  0  0  0  0  0  0  0  0  0  0
  1  2  2  0  0  0  0
  1  9  1  0  0  0  0
  2 16  1  0  0  0  0
  3  6  2  0  0  0  0
  3 14  1  0  0  0  0
  4  7  1  0  0  0  0
  4 14  2  0  0  0  0
  5  8  2  0  0  0  0
  5 15  1  0  0  0  0
  6 20  1  0  0  0  0
  7 20  2  0  0  0  0
  8 21  1  0  0  0  0
  9 24  2  0  0  0  0
 10 15  2  0  0  0  0
 10 18  1  0  0  0  0
 11 17  1  0  0  0  0
 11 19  2  0  0  0  0
 12 17  2  0  0  0  0
 12 23  1  0  0  0  0
 13 16  2  0  0  0  0
 13 24  1  0  0  0  0
 14 17  1  0  0  0  0
 15 16  1  0  0  0  0
 18 21  2  0  0  0  0
 18 27  1  0  0  0  0
 19 22  1  0  0  0  0
 19 27  1  0  0  0  0
 20 28  1  0  0  0  0
 21 34  1  0  0  0  0
 22 23  2  0  0  0  0
 22 34  1  0  0  0  0
 23 35  1  0  0  0  0
 24 36  1  0  0  0  0
 25 27  1  0  0  0  0
 25 30  1  0  0  0  0
 25 33  2  0  0  0  0
 26 30  1  0  0  0  0
 26 31  2  0  0  0  0
 26 32  1  0  0  0  0
 27 31  1  0  0  0  0
 29 30  1  0  0  0  0
  1 37  1  0  0  0  0
  2 38  1  0  0  0  0
  3 39  1  0  0  0  0
  4 40  1  0  0  0  0
  5 41  1  0  0  0  0
  6 42  1  0  0  0  0
  7 43  1  0  0  0  0
  8 44  1  0  0  0  0
  9 45  1  0  0  0  0
 10 46  1  0  0  0  0
 11 47  1  0  0  0  0
 12 48  1  0  0  0  0
 13 49  1  0  0  0  0
 28 50  1  0  0  0  0
 28 51  1  0  0  0  0
 28 52  1  0  0  0  0
 29 53  1  0  0  0  0
 29 54  1  0  0  0  0
 29 55  1  0  0  0  0
 31 56  1  0  0  0  0
 32 57  1  0  0  0  0
 32 58  1  0  0  0  0
M  CHG  1  31   1
M  END
> <OMEGA_C>
dC6tQLpJj8AZfZnBsmS7QLTiWMCknJ/BJEPVQOEv/EC2f6HBAqrcQGYpCEFyTrTBOmnGQP1/or8d
xK/BOWrUQBzOE0Heop7BYWXcQK7THUHFZLHB5p/TQNgGR75XBrbBYJCIQFkUi8AhApPBqXutQLBt
jj5+BqLBzR3JQPB2o0Bdm6jBcFnrQNjftUAAc7nB6HKAQCIRAsChspjBjHfZQA8Z8ECbY6zBLiaz
QDiphL9FwqXBDPOkQGNyCsAuQZ/BDSTaQDWYwkB8ga/BtUS7QBB8rj8/O6jBkpbJQDZQcECndavB
s7vYQKS1I0HxjabB4ijOQBQajz/XYLLBcjbaQKqtV0CKjrXBk6nqQJ/0ikDGfLzBVpFkQJLRR8Dm
nZLBtjTNQHiINkAt3pjBtSuHQNzZXkAMOJfBkEK3QMZuMEAit6PB2AzXQGYZO0Edf6PB3lWzQLxk
WUDhN4bBxd+sQAaDSkBitJHBzFWKQCDXRUDQPqHBoMdGQL+OgkAAuJLBNe/yQJBpKEAm15bBryvc
QDpFBUDpT7nBaX/6QJIDf0CmJcbBJLYJQHi+PMATp4rBO02+QLxKrcDWvpnB8XTXQOsyX8Cgl6TB
ObTSQMji40CRY5vBzlLfQAy/A0ETorzBq+7KQOP1EcCclbLBCXPQQL5TGEE/W5bBCAHfQCAIKkGj
ebfBXSniQFJnv74Lu73B5g17QPjxpcBnU47BbH2eQFx05z61XZrBU4m7QFQJrUDhB6HBPh75QPaB
zUAHu77BRuZeQIvji78UXpjB46D3QOnnQEFM3KHBiRTJQEZfREFPHKrBkDTDQHEKPUEiS5zBQG6U
QMQHaEB6bILBERnBQG2vH0DxiILBm1TJQEHOh0AVF4XBlfFjQMzvQUC4aKbBqrUSQLzJh0DALpfB
sUJHQKMei0C7AovB

> <OMEGA_E>
oP4wPw==

> <OMEGA_NBR>
     16705

$$$$
284491
  -OEChem-04172616093D

 57 62  0     1  0  0  0  0  0999 V2000
    7.5270    9.5407  -23.3125 C   0  0  0  0  0  0  0  0  0  0  0  0
    7.5690    8.1505  -23.4186 C   0  0  0  0  0  0  0  0  0  0  0  0
    7.1547    5.3331  -24.0067 C   0  0  0  0  0  0  0  0  0  0  0  0
    7.1954    3.9446  -24.1094 C   0  0  0  0  0  0  0  0  0  0  0  0
    6.5567   10.1499  -22.5171 C   0  0  0  0  0  0  0  0  0  0  0  0
    6.2586    5.1329  -21.7743 C   0  0  0  0  0  0  0  0  0  0  0  0
    5.6707    7.9789  -21.9338 C   0  0  0  0  0  0  0  0  0  0  0  0
    5.4211    0.4280  -20.1149 C   0  0  0  0  0  0  0  0  0  0  0  0
    5.9589   -1.3560  -21.6500 C   0  0  0  0  0  0  0  0  0  0  0  0
    6.6855    5.9276  -22.8393 C   0  0  0  0  0  0  0  0  0  0  0  0
    6.6411    7.3696  -22.7292 C   0  0  0  0  0  0  0  0  0  0  0  0
    5.4615   -0.9333  -20.4209 C   0  0  0  0  0  0  0  0  0  0  0  0
    6.2939    3.7311  -21.8621 C   0  0  0  0  0  0  0  0  0  0  0  0
    5.8766    1.3869  -21.0354 C   0  0  0  0  0  0  0  0  0  0  0  0
    6.7655    3.1480  -23.0428 C   0  0  0  0  0  0  0  0  0  0  0  0
    6.3726    0.9470  -22.2670 C   0  0  0  0  0  0  0  0  0  0  0  0
    6.4151   -0.4175  -22.5726 C   0  0  0  0  0  0  0  0  0  0  0  0
    5.6287    9.3690  -21.8278 C   0  0  0  0  0  0  0  0  0  0  0  0
    5.7738   -2.8913  -18.9373 C   0  0  0  0  0  0  0  0  0  0  0  0
    4.9754   -1.9292  -19.4368 C   0  0  0  0  0  0  0  0  0  0  0  0
    6.6518    3.1710  -19.4276 C   0  0  0  0  0  0  0  0  0  0  0  0
    4.4439    3.7164  -18.9973 C   0  0  0  0  0  0  0  0  0  0  0  0
    5.2862   -3.9161  -17.9537 C   0  0  0  0  0  0  0  0  0  0  0  0
    3.5323   -1.8612  -18.9961 C   0  0  0  0  0  0  0  0  0  0  0  0
    3.3108   -2.6378  -17.7003 C   0  0  0  0  0  0  0  0  0  0  0  0
    5.8484    2.8597  -20.7158 C   0  0  1  0  0  0  0  0  0  0  0  0
    6.1076    4.0676  -17.1122 C   0  0  0  0  0  0  0  0  0  0  0  0
    5.7119    3.6828  -18.4617 N   0  0  0  0  0  0  0  0  0  0  0  0
    4.4666    3.2465  -20.3151 N   0  3  0  0  0  0  0  0  0  0  0  0
    3.3037    4.1427  -18.3657 N   0  0  0  0  0  0  0  0  0  0  0  0
    7.8498    3.0169  -19.2532 O   0  0  0  0  0  0  0  0  0  0  0  0
    6.8432    1.7909  -23.2440 O   0  0  0  0  0  0  0  0  0  0  0  0
    3.8609   -3.9460  -17.8363 O   0  0  0  0  0  0  0  0  0  0  0  0
    6.8935   -0.8315  -23.7545 F   0  0  0  0  0  0  0  0  0  0  0  0
    4.4342   10.1215  -20.8436 Cl  0  0  0  0  0  0  0  0  0  0  0  0
    8.2506   10.1481  -23.8483 H   0  0  0  0  0  0  0  0  0  0  0  0
    8.3310    7.6899  -24.0429 H   0  0  0  0  0  0  0  0  0  0  0  0
    7.4922    5.9368  -24.8457 H   0  0  0  0  0  0  0  0  0  0  0  0
    7.5626    3.4865  -25.0241 H   0  0  0  0  0  0  0  0  0  0  0  0
    6.5369   11.2344  -22.4428 H   0  0  0  0  0  0  0  0  0  0  0  0
    5.8960    5.6067  -20.8638 H   0  0  0  0  0  0  0  0  0  0  0  0
    4.9464    7.3706  -21.3955 H   0  0  0  0  0  0  0  0  0  0  0  0
    5.0326    0.7488  -19.1501 H   0  0  0  0  0  0  0  0  0  0  0  0
    5.9984   -2.4123  -21.9042 H   0  0  0  0  0  0  0  0  0  0  0  0
    6.8203   -2.9459  -19.2285 H   0  0  0  0  0  0  0  0  0  0  0  0
    5.6041   -4.9128  -18.2751 H   0  0  0  0  0  0  0  0  0  0  0  0
    5.7223   -3.7276  -16.9662 H   0  0  0  0  0  0  0  0  0  0  0  0
    3.2178   -0.8213  -18.8484 H   0  0  0  0  0  0  0  0  0  0  0  0
    2.9113   -2.2884  -19.7939 H   0  0  0  0  0  0  0  0  0  0  0  0
    3.7616   -2.1323  -16.8374 H   0  0  0  0  0  0  0  0  0  0  0  0
    2.2388   -2.7389  -17.5032 H   0  0  0  0  0  0  0  0  0  0  0  0
    6.3963    5.1222  -17.0820 H   0  0  0  0  0  0  0  0  0  0  0  0
    5.2789    3.9106  -16.4161 H   0  0  0  0  0  0  0  0  0  0  0  0
    6.9555    3.4620  -16.7802 H   0  0  0  0  0  0  0  0  0  0  0  0
    3.6339    3.1877  -20.8965 H   0  0  0  0  0  0  0  0  0  0  0  0
    3.3772    4.4633  -17.4284 H   0  0  0  0  0  0  0  0  0  0  0  0
    2.4485    4.1146  -18.8695 H   0  0  0  0  0  0  0  0  0  0  0  0
  1  2  2  0  0  0  0
  1  5  1  0  0  0  0
  2 11  1  0  0  0  0
  3  4  2  0  0  0  0
  3 10  1  0  0  0  0
  4 15  1  0  0  0  0
  5 18  2  0  0  0  0
  6 10  2  0  0  0  0
  6 13  1  0  0  0  0
  7 11  2  0  0  0  0
  7 18  1  0  0  0  0
  8 12  1  0  0  0  0
  8 14  2  0  0  0  0
  9 12  2  0  0  0  0
  9 17  1  0  0  0  0
 10 11  1  0  0  0  0
 12 20  1  0  0  0  0
 13 15  2  0  0  0  0
 13 26  1  0  0  0  0
 14 16  1  0  0  0  0
 14 26  1  0  0  0  0
 15 32  1  0  0  0  0
 16 17  2  0  0  0  0
 16 32  1  0  0  0  0
 17 34  1  0  0  0  0
 18 35  1  0  0  0  0
 19 20  2  0  0  0  0
 19 23  1  0  0  0  0
 20 24  1  0  0  0  0
 21 26  1  0  0  0  0
 21 28  1  0  0  0  0
 21 31  2  0  0  0  0
 22 28  1  0  0  0  0
 22 29  2  0  0  0  0
 22 30  1  0  0  0  0
 23 33  1  0  0  0  0
 24 25  1  0  0  0  0
 25 33  1  0  0  0  0
 26 29  1  0  0  0  0
 27 28  1  0  0  0  0
  1 36  1  0  0  0  0
  2 37  1  0  0  0  0
  3 38  1  0  0  0  0
  4 39  1  0  0  0  0
  5 40  1  0  0  0  0
  6 41  1  0  0  0  0
  7 42  1  0  0  0  0
  8 43  1  0  0  0  0
  9 44  1  0  0  0  0
 19 45  1  0  0  0  0
 23 46  1  0  0  0  0
 23 47  1  0  0  0  0
 24 48  1  0  0  0  0
 24 49  1  0  0  0  0
 25 50  1  0  0  0  0
 25 51  1  0  0  0  0
 27 52  1  0  0  0  0
 27 53  1  0  0  0  0
 27 54  1  0  0  0  0
 29 55  1  0  0  0  0
 30 56  1  0  0  0  0
 30 57  1  0  0  0  0
M  CHG  1  29   1
M  END
> <OMEGA_C>
dt3wQLKmGEERgLrBVDXyQGBoAkE/WbvBivPkQN2oqkDGDcDB+EDmQA50fEAD4MDBFNDRQP1lIkEU
I7TBTkbIQJNApECqMa7BIna1QOBS/0BqeK/BWXmtQGgj2z5o66DBRq++QHuSrb8aM63B2O/VQAqv
vUDVtrbBwoPUQOvT60B11bXBOsSuQI7qbr8IXqPBZGfJQJTJbkCp5a7BTg28QMOGsT+NSKjB6n7Y
QIp4SUCfV7jBMuzLQHJwcj/gIrLB3kjNQPzH1b7DlLTBgh60QJLnFUFJn67BncK4QHAKOcCIf5fB
LzafQKXv9r+JfpvBMNvUQKfxSkDEa5vBjjSOQMrYbUCO+pfBkyipQCGiesAloY/BZRFiQEI87r8Z
+JfBxORTQP3RKMBBmo3B6CW7QJAEN0D6uaXB2HHDQPApgkDE5YjBqMe2QLWza0CIsZPBSe6OQIbG
T0BHhaLBM29TQA2RhEDp7JLBNjH7QAoVQUB/BprBuvvaQBI95T/O87nBTxl3QJyLfMDLsI7Bfpfc
QDrgVL9GCb7BBuWNQIPxIUG6v6bBfAIEQcBeIkE8yb7B5UsFQcYT9kDGV8DB7L/vQCD6vUD/w8bB
qgDyQGwjX0B1McjBRC7RQPi/M0HfirPB4qu8QMtps0D56KbBy0ieQM/b60DkKavBEAuhQE6zPz9t
M5nBpPK/QKBjGsDPO6/BkT/aQJCJPMAE1JnB7VSzQKY1ncBdM5LBPh23QECRbsDEuofB9/BNQLA/
Ur95yZbBw1I6QHx0EsDSWZ7BiL5wQPt2CMD7sobBeUgPQD5KL8CnBozBQa7MQFjpo0AAqIjBquyo
QMRGekAwVIPBSpPeQNGRXUDhPYbBhJFoQOUDTEAaLKfBySNYQILTjkBjbYvBhrQcQC2rg0C29JbB
gM4AQSn/DkE35rjB41z/QByA8UDxl7nBJhDrQCt2mEBODb7BV8boQPgNWEAvuL7BF9/jQAcqGkE1
u7LBr9vMQLd2lUA3S6zByqTBQLOu8UCd863ByAGlQPgUmT2qoZ7BWz6yQCWA4r+hparBuxTdQG8x
rUAY17TB6mLfQIxY20CsHrTBcuGiQBUSpb+W7aDB51rKQLRAUUCt16zBP4C2QBbNej8ZCabBanPY
QG5+KEAiKbbB5MXFQEAv9z78xa/BBbXDQNiRYr8BEbLBHOXDQEAWD0HwQa3BSvqmQOKnT8Csz5TB
6EiQQLKXDsDdA5nB6xjTQBryLUB1Q5nBY+iNQIWqXEBdLJbBc0KUQMzGhsBR5ozBq3REQB9OAsCF
sJXBNvswQOl2McCWRYvBvky5QNUTHUDco6PBTvPCQDMlbECD6YbBJP21QCBoVECXt5HBIw2OQChY
PUDeqKDBtbNUQF5ofkBoUZHBcM/4QNoFHkBYsZfBg3nXQHyxoj+DnbfBc1hNQILzg8CiJYzB9XXS
QC5Prb9mabvBpEmfQAbgHEH6n6XBgEUNQZCcF0EkJ73B6GELQaOH4ECzb77B3NH3QA5wqkAsyMTB
MbzzQJYQOEA48MXBnwvmQMd/K0FXQbLBEhbCQFLypUA3HKXBErCoQLxt4EBWranBnPuYQIxw4T4Y
AJfBetywQKYQNcAHkKzBq1nIQHDhWMD5/pbBHvKbQGmKp8BcUo/BKiyiQMpwgcC69oTBYbM1QDbK
eL8OqZTBbWYbQE4NG8BOG5zB7oZPQDLEEsA0XYTBDcXXP2ggMsC904nB3ObOQNv2lkDCvobBWMSn
QGocZ0AhcIHBijzcQBlnQUBuFITB/0JnQPBmPUAdaqXB4SRaQOqsiUCT2InBl4MeQHpOgEBEdZXB
SLPQQBLLD0GRWr/BdsXPQJz58kAvpb/BgLvhQCqtl0DToL/BGMDgQBxBVkAt5r/BFpfWQEBhGkFT
pLXBWOnEQNZIlkDvtq3BIKHaQFW38EAbhKzB4IqiQDJwAz5HmZ7BnbSwQECV4L/yJ6rB7MnTQHlE
rUB5ibbBSr3UQJaK20BtOrbB85ShQBGSn79CgaDBULzDQJ6vUkC73K3B5JyyQOcMgj/CVKbBRsbR
QBwvKEA6ELfBMKnBQIhg+z73/q/BpsPAQKgtY7/f5bHB7I7bQLypDkGSOazBMnOoQOkcScDo35PB
uHqQQAOoCsDhP5jBDWrOQNR0NUDfL5rBR8eIQPHfYEAq+ZbB0kCXQDLqgsCznIvBYwFFQHUwAMDf
wpTBMHk0QDTxLMDcGYrBLSW0QNMkIEAiXKTBqqW+QNrMd0AAC4jBpEexQNVEXEDSrJLBfKWIQKCj
PkD9UKHBNyhKQEDqgEBrGZLBcHX0QJw9KEA8upjBZgXSQKhSoT9rIrjBYFNTQERYgcALq4rBkEvP
QEIPsb8FLbvBDvLiQBy9G0EcQKDBwODMQF3oGEF0sMbBZiPLQBjr4kCeRsfBgnPtQKMQqUC9kcbB
SKzrQMLqNECVBsfBVErXQCjFK0HAibXB6ii6QPRwp0DdoKbBfoPeQN523kA5KqXBlreWQAsVBD+X
BJfBBjiwQAaoNMAIxavBD8nJQHX0UMAWLZbBIMKfQKTBo8DhyI3BeJClQGMaeMBzy4PBeFU0QPg2
cb85/pPB4M4bQB7xG8D495rBfA5TQGdrC8B8Z4PBikvfP1JBL8CWfYjBBprJQOcinUDON4jBL/Oj
QL+xckAXbILBasXYQItoT0DIJYXBDs1bQDbIO0A+8aXBvQdQQHiCjECgvIrBhlcTQDKggED4HZbB
dNn3QCCGEEGur7nBBkv5QCyP9EDEhLrBZ2vsQNBemkApQL/BHtLtQB7fW0BZDsDBHWbYQAlEGkHA
cbPB4q/OQMv/k0COf63Bm9m7QFgL70Dz3a7BCESzQHhOor3WSaDBikXFQJec7r8ofazB8NPcQNNp
rUAG+bXBMk3bQCaP20DsG7XBy8C0QCJruL9suKLBkOjPQFJHTkCjL67BUD/CQMIZYT/EmqfBXJXf
QHDsKEC+kbfBYLjSQNKn4D7FZLHB6UbUQIoQbb+M0rPBSmi6QATEDUHqCK7Behu+QBxoWcDJzJbB
BsSkQELsG8AD5prBgjfaQHmcKkA+qprBSFmTQExhTUC0fZfBDBOuQKx8jcB5+47BucJsQHqmF8Dr
i5fB4WddQP1JScCVM43BVSPBQB6MFkAWEKXBUqvHQBcZZEAyN4jBCaq7QENcS0D7DZPBbLiUQKw6
L0B9BqLBcxhdQFifaEDpk5LBQzwAQerYIEAVIJnBLjfiQHghpD/IKLnBXGqAQL59jsClNo7BZynk
QN2Zq79VN73BqLCTQEjMGUGaT6bBHZ4HQW0/GkHU473BrP4IQVzU5UDuar/Bg5j3QJesrUAZ7cXB
hAX6QOaGPkBxU8fBRrHXQDaeK0FZ3LLBHaLCQNIso0AcQ6bBsnCkQMqR20B3pKrBMV2mQPXedz6X
npjBqbHGQPDrOsB8gq7BlLvfQFvYXMAdAZnBkG+4QNNgrcDmgZHB2Iy7QGJoh8BeCIfBnGtYQJo3
qr8GaZbBJtBFQPcUM8CU/53BhWR5QPzYKMC8P4bBOp8YQBbTT8CWwIvBGtrQQNzOk0C78ofBPtOs
QIoHWkDMvoLB+KjiQA9sPUBEdIXBmbZ0QF5fK0CDxqbBz+FgQGg0fUD/EovBD9smQLy7ZkCutZbB
9HzTQEUGEUEjP7zBSfHUQBSP9UCiEr3BfrfrQKZtm0B2Eb7BHh3tQKz8XUCQ377B2LLXQB3MGkE/
RbLBsgDOQOYPlUBUUKzBONPeQMcq8EAd86nBipWyQIAHPL3EGZ/BmJLEQD9b6r9CTavB8CLcQFN5
rkAZyrTBVJ3aQLae3EAW7bPByhC0QPkmtL9GiKHBUjjPQHJnUEBTAK3BaY/BQHieaT8Ia6bBMuLe
QDgLK0CmYrbBhwXSQPCl8T5INbDBjZLTQHqSZL/7orLB5V7dQO1TDkG0H6nBhG29QHVFV8CknJXB
iBWkQPDIGcCEtZnBQozZQLu9LEAPe5nBPK+SQI+FT0BaTZbBlGatQLpqjMD5yo3BqWdrQBaBFcCi
WpbBghFcQH4jR8AbAozBC3XAQIetGEBz4KPBrQXHQIQ8ZkDEB4fBMAG7QE5/TUBR3pHBMwuUQA1e
MUAe1qDBkMdbQGrFakD3YpHBmM3/QM74IkCK8ZfBuoLhQJFeqD+g+bfBKXx/QOJqjcBfBY3BOHLj
QIpdp78ACLzBS6/iQEJnGkGR0pzBXB7PQPi5GkEhX8PBJZnRQHzH5kB158TBJ+P2QPK6rkChvsTB
Qk75QGijQEDTJMbBLozWQM8mLEHxv7HBNfXBQHM9pEC2E6XBt0HjQI+93EAhz6LB/bClQPUKjT5U
bpfBhP3FQHjLOMCGUq3B/AzfQC23WsCK0ZfByMG3QC1PrMCBUZDBqOK6QGFWhsAe2IXBeBJXQN3r
pb+mN5XBB3FEQFLvMMDtzZzBkhJ4QH2yJsCLDoXBhkkXQCKrTcCDjorBKjXQQGbglECLw4bB/C6s
QHAsXEDkjoHBswPiQKeOP0A/RYTBfVlzQGaDLUCxlaXBb5VfQP5af0Aa4onB4YclQIriaEBEhJXB
0KbwQHcLEEH3kLrBxnbvQPqH80CWJ7vBe/3/QMX5l0DTwbrBFLz+QAr1VkDhU7vBbNLuQHQwGkFS
o7DB7EjVQNGYlUAZrarBcqDqQIaO70CV46fBUL2lQDDesj0Ycp7Blz+8QKXs4r8eZanBFj7rQDgM
rUD+brLB3XTsQCtE20BP0bHB5NSlQDMWpL//nKDBSLzTQNlmUUBWI6vBQwy8QOJ4fD9eC6XBSKvo
QMvzJ0D/j7PBNmXSQNzb9D622K3BqYvSQKb6ZL/mAbDBhdDrQIwODkELTafBj6mhQHaWTcBxP5TB
CxSOQPSuDcBvj5nBvSPOQLaqMEDuapfByJiHQETEXUCvp5fB38yJQBqJhcCpMo3B9JY8QCFSAsBf
bpjBh6saQDqEMMCeiY7BDoG8QKXWHUCRw6LBFm6wQNuPcEBDQYbB0sOrQD4uV0Apa5HBJp+PQDs3
PUBQ46HB3sZBQEgPf0AolpTB3CTyQJkCIkAHHJTBoEXpQE0/oT+h2bTBitA4QDtRg8DOj47BvRXo
QFfer7+Lc7jBi67pQBuWGkGXDZvBYQrzQIl7GUFR1sHBI+fwQEor5EDE88LBuKIIQXa7qUAQ3cDB
PH8HQQhvNkD12cHB7dLvQGSQK0EkTbDBKTvFQN5YpkA2LqTBFknoQO6n3ECMmaDBJC6UQD5R7D4Q
jJfBcq68QFKHNcAhMqvBWh/EQKYdVsAh2JTBkIGTQIJTpsDWFY/BPpWRQNUQf8BUyITBiM0rQB9E
eb9z55fBnPIdQEloHMCHoJ/BdjEuQGySEMD/HIfB0kapP4z+McCFs47Bl667QJ5YmUD7roXBc7eR
QEpma0BnHILBy3HHQK3iRkApOILBHUtyQOv0O0AMxqfBCug7QNZ6ikCiKY3BL5MSQCoAgEBM55nB
y/oHQWxAC0ET+LfBoOUHQQ7e6UBU8rfBAg0BQYgAj0CtmrvBY/AAQQfcREDnjrvB2o3tQHx7FkFi
nLPBsOnXQFMyj0BpbavBItXKQPco6kADNa/Bhy2sQFA7Xr1nGJ3BusbDQHw5/L8BQafBkBjtQLZl
pUCGirPBIT3tQHSy00C9kLPBsT2tQPjNt7/0p57Ba2jXQIh8REBNRKvBZp7BQCVDUD9HIKTBppbs
QHJaGECQb7PB2RjYQA8Hhj6YvKzBkTjZQHjHj78SSq7Buv/KQK9lC0HKOq/BCt+qQL/yUcA+c5HB
omSWQPhpFcB6J5fBfb/SQBhGLEAPV5fBZbCLQArtVUACvpfBsO+TQDSnhsBA8InBHwtNQB7IC8Ct
AZbBtsUsQHxNNsBwxovBBgbBQD+lE0CpgKLB78W0QHhFckA2lYbB7hiwQE3IU0Bxi5HBSc+TQFNH
MUBnwKHBLV9JQPy5dkD705TBkAH3QHrFIEChApTB4i7uQKhHgT8AH7TB/+5MQDjKhcC2PIvBReHu
QH+G0r+cjbbBrJ6gQLBEGUGs06nBEXIVQePfE0HTXrvBHmsVQVDM2EBfYLvBDWUJQZ7Gn0A++8HB
syoJQcRCIkCe4cHBdiTuQNzfJ0F8rLPBhqbHQGT7oEC2I6XBadyvQP7k2EAwyavBuIiaQEpktT4W
VpbBy/XEQDfVQsB/lajBn2fNQKUhWcDYDpLBxFueQPCTp8AlZIvBQ8+bQJc9fcCJooHBubA6QPQb
kL917pXBxJ8uQGm2KcDh+pzBevM/QDKuEsBCmoTBIpPNPyR4OcAv24vBZEK/QCmHmkC3fYbBwT6W
QPSHbUCuWILBM2LMQNKES0BeUILBimJ6QCNhLEC2kqfBqmZDQBTeh0B7j43Brd0ZQDw5dEA0GJrB

> <OMEGA_E>
/qB0wYT0e8FuRnPBvE9ywTrpb8HjnnHBKHtywQ==

> <OMEGA_NBR>
     23539

$$$$
284492
  -OEChem-04172616093D

 58 63  0     1  0  0  0  0  0999 V2000
    7.9170    9.5704  -22.2615 C   0  0  0  0  0  0  0  0  0  0  0  0
    7.9945    8.1855  -22.4091 C   0  0  0  0  0  0  0  0  0  0  0  0
    4.8691   -1.8144  -17.8730 C   0  0  0  0  0  0  0  0  0  0  0  0
    4.5262   -3.2239  -19.8052 C   0  0  0  0  0  0  0  0  0  0  0  0
    7.7147    5.3881  -23.1528 C   0  0  0  0  0  0  0  0  0  0  0  0
    4.2883   -2.7881  -17.0604 C   0  0  0  0  0  0  0  0  0  0  0  0
    3.9455   -4.1976  -18.9927 C   0  0  0  0  0  0  0  0  0  0  0  0
    7.7906    4.0048  -23.2969 C   0  0  0  0  0  0  0  0  0  0  0  0
    6.8286   10.1410  -21.6018 C   0  0  0  0  0  0  0  0  0  0  0  0
    6.4937    5.0974  -21.0909 C   0  0  0  0  0  0  0  0  0  0  0  0
    5.4828    0.3271  -19.7446 C   0  0  0  0  0  0  0  0  0  0  0  0
    6.2728   -1.3941  -21.2418 C   0  0  0  0  0  0  0  0  0  0  0  0
    5.8957    7.9420  -21.2373 C   0  0  0  0  0  0  0  0  0  0  0  0
    4.9881   -2.0325  -19.2455 C   0  0  0  0  0  0  0  0  0  0  0  0
    7.0654    5.9348  -22.0500 C   0  0  0  0  0  0  0  0  0  0  0  0
    6.9841    7.3714  -21.8970 C   0  0  0  0  0  0  0  0  0  0  0  0
    5.5888   -1.0215  -20.0885 C   0  0  0  0  0  0  0  0  0  0  0  0
    6.5622    3.7002  -21.2216 C   0  0  0  0  0  0  0  0  0  0  0  0
    6.0586    1.3234  -20.5509 C   0  0  0  0  0  0  0  0  0  0  0  0
    3.8264   -3.9795  -17.6201 C   0  0  0  0  0  0  0  0  0  0  0  0
    7.2157    3.1654  -22.3367 C   0  0  0  0  0  0  0  0  0  0  0  0
    6.7418    0.9339  -21.7075 C   0  0  0  0  0  0  0  0  0  0  0  0
    6.8499   -0.4180  -22.0509 C   0  0  0  0  0  0  0  0  0  0  0  0
    5.8182    9.3269  -21.0897 C   0  0  0  0  0  0  0  0  0  0  0  0
    6.5552    3.0538  -18.7822 C   0  0  0  0  0  0  0  0  0  0  0  0
    4.3000    3.5629  -18.6735 C   0  0  0  0  0  0  0  0  0  0  0  0
    5.9609    2.7830  -20.1876 C   0  0  1  0  0  0  0  0  0  0  0  0
    3.2068   -5.0205  -16.7505 C   0  0  0  0  0  0  0  0  0  0  0  0
    5.6538    3.8589  -16.5462 C   0  0  0  0  0  0  0  0  0  0  0  0
    5.4725    3.5211  -17.9529 N   0  0  0  0  0  0  0  0  0  0  0  0
    4.5288    3.1423  -19.9882 N   0  3  0  0  0  0  0  0  0  0  0  0
    3.0711    3.9556  -18.2079 N   0  0  0  0  0  0  0  0  0  0  0  0
    7.7151    2.9039  -18.4333 O   0  0  0  0  0  0  0  0  0  0  0  0
    7.3427    1.8175  -22.5714 O   0  0  0  0  0  0  0  0  0  0  0  0
    7.5061   -0.7833  -23.1613 F   0  0  0  0  0  0  0  0  0  0  0  0
    4.4775   10.0316  -20.2726 Cl  0  0  0  0  0  0  0  0  0  0  0  0
    8.7046   10.2037  -22.6591 H   0  0  0  0  0  0  0  0  0  0  0  0
    8.8489    7.7552  -22.9262 H   0  0  0  0  0  0  0  0  0  0  0  0
    5.2242   -0.8911  -17.4217 H   0  0  0  0  0  0  0  0  0  0  0  0
    4.6110   -3.4080  -20.8737 H   0  0  0  0  0  0  0  0  0  0  0  0
    8.1663    6.0255  -23.9091 H   0  0  0  0  0  0  0  0  0  0  0  0
    4.1994   -2.6108  -15.9919 H   0  0  0  0  0  0  0  0  0  0  0  0
    3.5888   -5.1227  -19.4377 H   0  0  0  0  0  0  0  0  0  0  0  0
    8.2987    3.5840  -24.1608 H   0  0  0  0  0  0  0  0  0  0  0  0
    6.7822   11.2217  -21.4930 H   0  0  0  0  0  0  0  0  0  0  0  0
    5.9908    5.5337  -20.2296 H   0  0  0  0  0  0  0  0  0  0  0  0
    4.9484    0.6088  -18.8391 H   0  0  0  0  0  0  0  0  0  0  0  0
    6.3652   -2.4397  -21.5249 H   0  0  0  0  0  0  0  0  0  0  0  0
    5.1069    7.3078  -20.8372 H   0  0  0  0  0  0  0  0  0  0  0  0
    2.1220   -4.8742  -16.6639 H   0  0  0  0  0  0  0  0  0  0  0  0
    3.6148   -4.9831  -15.7317 H   0  0  0  0  0  0  0  0  0  0  0  0
    3.3905   -6.0208  -17.1618 H   0  0  0  0  0  0  0  0  0  0  0  0
    5.9194    4.9141  -16.4352 H   0  0  0  0  0  0  0  0  0  0  0  0
    4.7315    3.6688  -15.9900 H   0  0  0  0  0  0  0  0  0  0  0  0
    6.4502    3.2488  -16.1110 H   0  0  0  0  0  0  0  0  0  0  0  0
    3.7940    3.0943  -20.6902 H   0  0  0  0  0  0  0  0  0  0  0  0
    2.9971    4.2422  -17.2597 H   0  0  0  0  0  0  0  0  0  0  0  0
    2.3027    3.9384  -18.8365 H   0  0  0  0  0  0  0  0  0  0  0  0
  1  2  2  0  0  0  0
  1  9  1  0  0  0  0
  2 16  1  0  0  0  0
  3  6  2  0  0  0  0
  3 14  1  0  0  0  0
  4  7  1  0  0  0  0
  4 14  2  0  0  0  0
  5  8  2  0  0  0  0
  5 15  1  0  0  0  0
  6 20  1  0  0  0  0
  7 20  2  0  0  0  0
  8 21  1  0  0  0  0
  9 24  2  0  0  0  0
 10 15  2  0  0  0  0
 10 18  1  0  0  0  0
 11 17  1  0  0  0  0
 11 19  2  0  0  0  0
 12 17  2  0  0  0  0
 12 23  1  0  0  0  0
 13 16  2  0  0  0  0
 13 24  1  0  0  0  0
 14 17  1  0  0  0  0
 15 16  1  0  0  0  0
 18 21  2  0  0  0  0
 18 27  1  0  0  0  0
 19 22  1  0  0  0  0
 19 27  1  0  0  0  0
 20 28  1  0  0  0  0
 21 34  1  0  0  0  0
 22 23  2  0  0  0  0
 22 34  1  0  0  0  0
 23 35  1  0  0  0  0
 24 36  1  0  0  0  0
 25 27  1  0  0  0  0
 25 30  1  0  0  0  0
 25 33  2  0  0  0  0
 26 30  1  0  0  0  0
 26 31  2  0  0  0  0
 26 32  1  0  0  0  0
 27 31  1  0  0  0  0
 29 30  1  0  0  0  0
  1 37  1  0  0  0  0
  2 38  1  0  0  0  0
  3 39  1  0  0  0  0
  4 40  1  0  0  0  0
  5 41  1  0  0  0  0
  6 42  1  0  0  0  0
  7 43  1  0  0  0  0
  8 44  1  0  0  0  0
  9 45  1  0  0  0  0
 10 46  1  0  0  0  0
 11 47  1  0  0  0  0
 12 48  1  0  0  0  0
 13 49  1  0  0  0  0
 28 50  1  0  0  0  0
 28 51  1  0  0  0  0
 28 52  1  0  0  0  0
 29 53  1  0  0  0  0
 29 54  1  0  0  0  0
 29 55  1  0  0  0  0
 31 56  1  0  0  0  0
 32 57  1  0  0  0  0
 32 58  1  0  0  0  0
M  CHG  1  31   1
M  END
> <OMEGA_C>
8lf9QDsgGUGSF7LBItP/QMD3AkHkRbPBxM+bQAw/6L/v+47BtdaQQGpUTsAMcZ7Btt72QH5rrED6
OLnBFjqJQNdwMsDDe4jBVIJ8QMBShsD+8JfB1kz5QPwmgED+X7rBnYPaQHRBIkGI0KzB/MvPQC4e
o0AVuqjBFHOvQMh2pz7j9J3BDrvIQCZxsr9E76nBPqm8QA8l/kD05anBqZ6fQOwUAsDI9pnBHBji
QPjpvUB5ZrDB2H3fQDzi60AKLa/BxdeyQJvBgr9UtaDBgv3RQN/PbEDdxanB+N/BQFtmqT8laKTB
ROR0QFiwfsAI9ozBv+bmQHKWSkB8sbLBd7zXQBoRbz/4qK3BrjLbQCUK1r4+aLDBVi66QNE6FUGt
t6jBIsTRQPxwQ0D2QZbBUJmJQAoHZEBAY5XBab++QCQdMkBLgKHBiztNQKWnoMAcAYbBBuy0QPL3
dkCRXoTBjR6vQClZYUCFn4/BSeyQQMUbSUC855/B2IxEQE4ofUDFqZHBbOL2QPXZOUCAd5PBVvfq
QNOj6D8vkrTBMTLwQE+JSL9jSrnBAkiPQGiBIEE3LqLBJUYLQTtCI0HgRbXBMpUNQZIq+EDdaLfB
PiynQIYeZL+UX4vBeY2TQGwcWsBE/abBC6kCQZzQwEDWRb/BgmGGQPEXJ8C63n/BaK5lQBHto8BU
gJvBkMcEQY1gZUA9ScHBxgfZQCiMM0Gn8avByLS/QHUUsUBO1qHBjlmeQJrcGz9vtpbBaq/LQLgj
HMDwMqzB/mujQEPZ6UCksqbBes8HQHb5m8CwT4XBQFhnQGl1n8AVtXvBnf5YQBKqwMBiS4nB0Wu9
QKhAnUBWe4PB2GiXQJbNakAJ13/B8GfOQPnsT0BH44DBHdFyQKYIRkCOhaXB9tA/QOe/h0DqE4rB
mV8TQM4OfEAjsZbB

> <OMEGA_E>
gu5mwQ==

> <OMEGA_NBR>
     24799

$$$$
50093271
  -OEChem-04172616093D

 53 58  0     0  0  0  0  0  0999 V2000
    5.3580   -4.4768  -19.2011 C   0  0  0  0  0  0  0  0  0  0  0  0
    6.8629    9.8666  -22.1112 C   0  0  0  0  0  0  0  0  0  0  0  0
    5.8481   -3.3974  -19.9427 C   0  0  0  0  0  0  0  0  0  0  0  0
    6.9267    8.5297  -22.5217 C   0  0  0  0  0  0  0  0  0  0  0  0
    6.2118   -1.2731  -21.9467 C   0  0  0  0  0  0  0  0  0  0  0  0
    7.3241    5.6872  -23.2022 C   0  0  0  0  0  0  0  0  0  0  0  0
    6.6191   -0.2009  -22.7379 C   0  0  0  0  0  0  0  0  0  0  0  0
    7.3120    4.3419  -23.5747 C   0  0  0  0  0  0  0  0  0  0  0  0
    5.4186    0.2785  -20.2412 C   0  0  0  0  0  0  0  0  0  0  0  0
    6.2760    5.1085  -21.0873 C   0  0  0  0  0  0  0  0  0  0  0  0
    4.2009   -4.3023  -18.4159 C   0  0  0  0  0  0  0  0  0  0  0  0
    6.6145   10.1627  -20.7569 C   0  0  0  0  0  0  0  0  0  0  0  0
    4.0159   -2.0580  -19.0605 C   0  0  0  0  0  0  0  0  0  0  0  0
    6.5195    7.8893  -20.2107 C   0  0  0  0  0  0  0  0  0  0  0  0
    5.6048   -1.0385  -20.6973 C   0  0  0  0  0  0  0  0  0  0  0  0
    6.7935    6.0860  -21.9543 C   0  0  0  0  0  0  0  0  0  0  0  0
    5.1601   -2.1699  -19.8840 C   0  0  0  0  0  0  0  0  0  0  0  0
    6.7535    7.5106  -21.5603 C   0  0  0  0  0  0  0  0  0  0  0  0
    5.8525    1.3619  -21.0236 C   0  0  0  0  0  0  0  0  0  0  0  0
    6.2940    3.7546  -21.4409 C   0  0  0  0  0  0  0  0  0  0  0  0
    6.4440    1.1143  -22.2921 C   0  0  0  0  0  0  0  0  0  0  0  0
    6.8083    3.3687  -22.7037 C   0  0  0  0  0  0  0  0  0  0  0  0
    6.4200    2.8620  -19.1149 C   0  0  0  0  0  0  0  0  0  0  0  0
    4.2264    3.4756  -18.9012 C   0  0  0  0  0  0  0  0  0  0  0  0
    5.7284    2.7579  -20.4667 C   0  0  2  0  0  0  0  0  0  0  0  0
    5.6265    3.4390  -16.7870 C   0  0  0  0  0  0  0  0  0  0  0  0
    3.5573   -3.1119  -18.3504 N   0  0  0  0  0  0  0  0  0  0  0  0
    6.4469    9.1851  -19.8374 N   0  0  0  0  0  0  0  0  0  0  0  0
    5.4134    3.1777  -18.2162 N   0  0  0  0  0  0  0  0  0  0  0  0
    4.3260    3.0895  -20.1553 N   0  3  0  0  0  0  0  0  0  0  0  0
    3.0992    4.0564  -18.3392 N   0  0  0  0  0  0  0  0  0  0  0  0
    7.6032    2.6549  -18.8690 O   0  0  0  0  0  0  0  0  0  0  0  0
    6.8787    2.0794  -23.1668 O   0  0  0  0  0  0  0  0  0  0  0  0
    5.8600   -5.4326  -19.2298 H   0  0  0  0  0  0  0  0  0  0  0  0
    7.0029   10.6636  -22.8264 H   0  0  0  0  0  0  0  0  0  0  0  0
    6.7363   -3.5028  -20.5480 H   0  0  0  0  0  0  0  0  0  0  0  0
    7.1056    8.2819  -23.5576 H   0  0  0  0  0  0  0  0  0  0  0  0
    6.3618   -2.2855  -22.2918 H   0  0  0  0  0  0  0  0  0  0  0  0
    7.7408    6.4264  -23.8703 H   0  0  0  0  0  0  0  0  0  0  0  0
    7.0724   -0.3857  -23.7006 H   0  0  0  0  0  0  0  0  0  0  0  0
    7.6938    4.0499  -24.5419 H   0  0  0  0  0  0  0  0  0  0  0  0
    4.9416    0.4575  -19.2889 H   0  0  0  0  0  0  0  0  0  0  0  0
    5.8592    5.4059  -20.1364 H   0  0  0  0  0  0  0  0  0  0  0  0
    3.8171   -5.1393  -17.8515 H   0  0  0  0  0  0  0  0  0  0  0  0
    6.5564   11.1951  -20.4451 H   0  0  0  0  0  0  0  0  0  0  0  0
    3.4988   -1.1120  -18.9980 H   0  0  0  0  0  0  0  0  0  0  0  0
    6.3964    7.1197  -19.4630 H   0  0  0  0  0  0  0  0  0  0  0  0
    4.6627    3.6642  -16.3071 H   0  0  0  0  0  0  0  0  0  0  0  0
    6.0726    2.5514  -16.3146 H   0  0  0  0  0  0  0  0  0  0  0  0
    6.3044    4.2972  -16.6683 H   0  0  0  0  0  0  0  0  0  0  0  0
    3.5644    3.0300  -20.8006 H   0  0  0  0  0  0  0  0  0  0  0  0
    2.2838    4.2084  -18.8977 H   0  0  0  0  0  0  0  0  0  0  0  0
    3.1020    4.3232  -17.3754 H   0  0  0  0  0  0  0  0  0  0  0  0
  1  3  2  0  0  0  0
  1 11  1  0  0  0  0
  2  4  2  0  0  0  0
  2 12  1  0  0  0  0
  3 17  1  0  0  0  0
  4 18  1  0  0  0  0
  5  7  1  0  0  0  0
  5 15  2  0  0  0  0
  6  8  2  0  0  0  0
  6 16  1  0  0  0  0
  7 21  2  0  0  0  0
  8 22  1  0  0  0  0
  9 15  1  0  0  0  0
  9 19  2  0  0  0  0
 10 16  2  0  0  0  0
 10 20  1  0  0  0  0
 11 27  2  0  0  0  0
 12 28  2  0  0  0  0
 13 17  2  0  0  0  0
 13 27  1  0  0  0  0
 14 18  2  0  0  0  0
 14 28  1  0  0  0  0
 15 17  1  0  0  0  0
 16 18  1  0  0  0  0
 19 21  1  0  0  0  0
 19 25  1  0  0  0  0
 20 22  2  0  0  0  0
 20 25  1  0  0  0  0
 21 33  1  0  0  0  0
 22 33  1  0  0  0  0
 23 25  1  0  0  0  0
 23 29  1  0  0  0  0
 23 32  2  0  0  0  0
 24 29  1  0  0  0  0
 24 30  2  0  0  0  0
 24 31  1  0  0  0  0
 25 30  1  0  0  0  0
 26 29  1  0  0  0  0
  1 34  1  0  0  0  0
  2 35  1  0  0  0  0
  3 36  1  0  0  0  0
  4 37  1  0  0  0  0
  5 38  1  0  0  0  0
  6 39  1  0  0  0  0
  7 40  1  0  0  0  0
  8 41  1  0  0  0  0
  9 42  1  0  0  0  0
 10 43  1  0  0  0  0
 11 44  1  0  0  0  0
 12 45  1  0  0  0  0
 13 46  1  0  0  0  0
 14 47  1  0  0  0  0
 26 48  1  0  0  0  0
 26 49  1  0  0  0  0
 26 50  1  0  0  0  0
 30 51  1  0  0  0  0
 31 52  1  0  0  0  0
 31 53  1  0  0  0  0
M  CHG  1  30   1
M  END
> <OMEGA_C>
eHSrQFpCj8Dim5nBC53bQJTdHUGq47DBACS7QIBuWcCRip/BqKfdQKZ5CEGDLLTBZMfGQDP2or/Z
kq/BP1/qQKP9tUACnrnBe8/TQGi8Tb5C57XBk/vpQH/wikARmbzBzmStQCycjj797aHB5NTIQON4
o0DQsqjBeW2GQBqsicCsU5PB9KnTQIaaIkETDqbBm4KAQP+2A8Due5jB9p/QQEd1/EB9r6HBWFqz
QAXuhL/+k6XBgmTZQFnAwkBloq/Bah+lQGbfCsB4Ep/BgRzYQKFW8ECLe6zBq0e7QDZRrj89MKjB
MWjJQP5LcEDuhqvBlzXOQAyijj9KVrLB5N3ZQPqYV0BCobXB7nDNQHgqN0Bn65jBxz6HQN5vXkCa
NZfBLU+3QC6BMEC9u6PBhQy0QLYYXECxS4bB4qpjQMooR8CxzZLB60zOQBT2EkEHs57BqDqtQN5f
S0DDupHBhm6KQNi6RUASPqHB2llGQBbOgUCetpLBGk3zQB7pKUCr85bBNR7cQDgUBUCKVbnBFYW7
QDjYrcC21pnBAhjgQAaeKkGLnLbBtI/XQKEtYMBhYqTBV2HjQNCCBEHzdbzBw5PLQGhFEsCJVbLB
RbT3QFylzUBL9r7BvFDiQOZ7xb7emr3B1zP2QG2YgUC4VcTBzCGeQBg66j6iT5rBv367QN78rEBL
F6HBVUt0QOd0pMDNz47BZs7RQDIfM0GSj6PBu+xfQI1Ujr/5+5fBtq/MQLjU40BRtJvBdzSVQHCC
akADdYLBlVLCQIdJI0BNhILBkr3JQFmCiUC4WIXBwh5kQNPrQUChZ6bB3SkSQAmrhkCILpfB5oZG
QLJXikDcAIvBlaSrQDgxj8AAlpnBu5rPQL6fFEGJjJ/BfkS7QBg9WcB6hJ/BOHnQQIB7/UDP9KHB
dOXGQFjtor+0ka/BidTqQGDTtUDwmrnBDAvUQNCUTb604rXBP1nqQOLNikB4kbzBTButQBgYjz6N
+qHBRVzIQOKvo0DlxajBYIiGQIK2icA9VJPB6ZfXQAqYI0EDuqfB4muAQJzeA8BygpjBZlTgQCpb
CEGAY7TBjkOzQC/ahL8smaXBIHzZQF7UwkAhrq/B5RmlQNjVCsAfFJ/BMtbYQKKQ8EB2nKzB5Be7
QMpwrj+1OajBKAnJQDuMcECUkqvBmVnOQJCpjj+KVLLBue3ZQKuaV0Brn7XBJVfNQAsdN0CW+5jB
rDWHQFlVXkBtNZfBlxG3QEeXMEABxqPBXtKzQPv1WED+RobB2ppjQGZgR8A81JLBAdbfQPhbHUGI
4bHBih6tQKdUSkC9wZHBIDSKQBuZRUAVPqHBVsxGQLgkgkBzsJLBazPzQLeNKUDgC5fBCITcQDsL
BUDkSrnBodG7QKG4rcAizJnBmuDIQHr1GUFFgZfBPMLXQP/SX8CKVqTBqtrKQBn25UCtyJvBJ8PL
QE9CEsAAUrLBHor4QNhZzUAe7b7BZLXiQOB8xb5hkb3BL772QDpdgUDOR8TBxJydQCTp6j7eY5rB
A4u6QARYrUAGO6HBMZl0QKCFpMCs0I7B0CDXQDR1NEF72KXBSoxfQODXjr8zBpjB95zmQKipA0Hd
jbzBcfWUQAr3ZkC3bILBxOvBQOZeH0AhpYLB0Z7JQAvBh0C3KIXBt3tjQA+lQUBaYKbBwqQSQPlQ
h0BTJJfBpU5HQJOnikBJ+orBfTllQKQUTcDa65LBXEPsQAEuHUEusK/BjiCAQGD+BMCMqJjB0p7q
QPDrB0EvMbPBwFfHQOT1o7+oe6/BygPvQE7QtEB0MrnBjQ3UQMDHUb7/0LXBcm/rQP47ikCKbbzB
JO+tQPDEiD5MzaHBgBvNQO4Mo0CVRKjByyOKQILojMBXv5PBNcnkQAjOIUH40qTB+e+6QEvzWsCs
kp/B2BnbQNoK+0Cs2aDBjpizQKp0hr9KhqXBeoHfQPnRwUCuFa/Bkt+kQMz8C8AbIJ/BSOrhQOwp
70DxsKvBurG7QOBqrT/tDKjBfyXLQBDOb0DPS6vBRNrNQI4Kjj+qSLLBSgvaQJ4PV0CBi7XBukvN
QORTNkCOq5jBaHSHQAh9YEDaV5fBwPK3QK5cMEDYmKPBS7eyQE4nXEBnL4bBeYatQHbYj8C99JnB
KV7cQI8oEkF8pp3BQ7GsQOanS0DKppHBrRqLQFT3RkCDVaHBFzJHQJ8AhECtEJPB6vfyQEq1KEBz
hZbBgdDZQKkOBUBSdbnB2PQsQKzwScA1643BXTPzQI/pKUEXRLXBIoddQOvAkr/FIpjBUe7vQFER
BEFbgrvBs6PMQF2yEsClNrLBNrj9QKj4y0DOc77BCcfiQMmsxb5Sf73BTiz2QOXogEBvTcTBwACf
QL+I4j4eI5rBrlrAQLXLrEC+naDBk1R/QEWpqMBzUI/BtMvlQHU7MkHYJ6LBBSXXQIpdYMDdhKTB
rLvUQFtk4kDuAZvBjbGTQFCla0BkgYLBvy3AQE3cIkDGVYLB+MzIQOkniUCqH4XBdh5mQLRzQ0Az
mKbB9AkUQLp6iUBXrJfBjKJGQD/GjEA1X4vBMYxlQH9dTsBzDpPBL8HWQIXcFEHKup/BDD6AQCjS
BcDRtZjBHQvXQEK6/UCZ56HBUFzHQAbqo7+wd6/BtGvvQDZPtEBnSrnBIvbTQKC4Ub6ozLXBKn/s
QF6TiUAOXbzBoO6tQDBsiD6IxKHBJqTMQDpYo0A4Z6jBE5eKQKpgjcAr45PBBoDeQPN1I0H8F6jB
lYy7QLC9WsC+kJ/BJuPlQByqB0G0fbTBN7GzQHN7hr9UgKXB9JXeQPrrwUCrXq/BfSqlQFAlDMCP
Hp/BFrreQBjg70DfgazB4567QJhxrT8SBajB4CXLQEnsb0ABTavBkMHNQIzajT+DQLLBEHLaQB+Q
VkCvfrXBFTzNQCmbNkDsqpjBJWSHQB3KYEDnVZfBBeG3QBuKMEA1laPBuqGyQK3iW0BbK4bB2Tiu
QOLuj8A1BJrBOOrlQPzEHEGHNrLBHaisQIEMTEBOppHBlgeLQN0fR0D/UaHBEA9HQDQ0hEBhEpPB
fNDyQPkVKEC6gpbBydHZQOu5BECtarnBlOksQIfXS8ASHY7B+KbQQJGQGkG/t5fBAm9dQOfPlL/R
KpjBgn7RQF3J5kDrl5vBiKzMQNmoEsB8M7LBbqj+QF8xy0Cyhr7BS5viQA8Axb7kfb3B0EP4QNOS
f0AbHMTBq/+eQAN+4T7qGZrBne2/QPddrUALxaDBRSKAQOtOqcCShY/BWITeQChmNEFNYqbBXPDX
QIGKX8CvdKTBPHvrQDeZAkHUobzBqaGTQGOja0DIfoLBhNq/QNw1IkA8W4LBS+bIQAPWiECYDYXB
GfRlQNOAQ0DLk6bBFu0TQHaniUCer5fB9HhGQLIJjUAOYovB

> <OMEGA_E>
HGdCP8KdQj8on0Q/pgBFPw==

> <OMEGA_NBR>
     33158

$$$$
288521
  -OEChem-04172616093D

 49 53  0     1  0  0  0  0  0999 V2000
    5.2717   -4.4694  -19.1336 C   0  0  0  0  0  0  0  0  0  0  0  0
    5.7087   -3.4044  -19.9439 C   0  0  0  0  0  0  0  0  0  0  0  0
    6.0832   -1.2478  -21.9691 C   0  0  0  0  0  0  0  0  0  0  0  0
    6.5014   -0.1822  -22.7785 C   0  0  0  0  0  0  0  0  0  0  0  0
    4.2360   -4.2674  -18.2011 C   0  0  0  0  0  0  0  0  0  0  0  0
    5.4912    0.3307  -20.2076 C   0  0  0  0  0  0  0  0  0  0  0  0
    4.0695   -1.9327  -18.8875 C   0  0  0  0  0  0  0  0  0  0  0  0
    5.5673   -1.0005  -20.6787 C   0  0  0  0  0  0  0  0  0  0  0  0
    5.1110   -2.1248  -19.8272 C   0  0  0  0  0  0  0  0  0  0  0  0
    5.9297    1.4126  -21.0055 C   0  0  0  0  0  0  0  0  0  0  0  0
    6.4165    1.1462  -22.3218 C   0  0  0  0  0  0  0  0  0  0  0  0
    3.6360   -2.9988  -18.0788 C   0  0  0  0  0  0  0  0  0  0  0  0
    5.2998    3.2101  -18.2335 C   0  0  0  0  0  0  0  0  0  0  0  0
    4.3857    3.3142  -20.3335 C   0  0  0  0  0  0  0  0  0  0  0  0
    6.7631    5.3020  -20.9493 C   0  0  0  0  0  0  0  0  0  0  0  0
    8.2583    3.8372  -20.9688 C   0  0  0  0  0  0  0  0  0  0  0  0
    5.8436    2.8463  -20.4540 C   0  0  2  0  0  0  0  0  0  0  0  0
    6.7170    3.7747  -21.3732 C   0  0  0  0  0  0  0  0  0  0  0  0
    6.4958    3.5029  -22.9153 C   0  0  0  0  0  0  0  0  0  0  0  0
    7.3950    4.3814  -23.8404 C   0  0  0  0  0  0  0  0  0  0  0  0
    5.0276    3.7472  -23.3713 C   0  0  0  0  0  0  0  0  0  0  0  0
    6.2914    2.9000  -19.0435 N   0  3  0  0  0  0  0  0  0  0  0  0
    5.4047    3.2934  -16.8539 N   0  0  0  0  0  0  0  0  0  0  0  0
    6.8488    2.1273  -23.2037 O   0  0  0  0  0  0  0  0  0  0  0  0
    4.1322    3.4213  -18.9282 O   0  0  0  0  0  0  0  0  0  0  0  0
    8.1537    5.2220  -20.7922 O   0  0  0  0  0  0  0  0  0  0  0  0
    2.3485   -2.7440  -16.9271 Cl  0  0  0  0  0  0  0  0  0  0  0  0
    5.7312   -5.4423  -19.2272 H   0  0  0  0  0  0  0  0  0  0  0  0
    6.5032   -3.5634  -20.6579 H   0  0  0  0  0  0  0  0  0  0  0  0
    6.1561   -2.2616  -22.3343 H   0  0  0  0  0  0  0  0  0  0  0  0
    6.8936   -0.3832  -23.7645 H   0  0  0  0  0  0  0  0  0  0  0  0
    3.9017   -5.0851  -17.5798 H   0  0  0  0  0  0  0  0  0  0  0  0
    5.0919    0.5241  -19.2229 H   0  0  0  0  0  0  0  0  0  0  0  0
    3.6054   -0.9623  -18.7911 H   0  0  0  0  0  0  0  0  0  0  0  0
    4.2537    4.2903  -20.8233 H   0  0  0  0  0  0  0  0  0  0  0  0
    3.7072    2.5795  -20.7915 H   0  0  0  0  0  0  0  0  0  0  0  0
    6.4404    5.9963  -21.7391 H   0  0  0  0  0  0  0  0  0  0  0  0
    6.2192    5.5257  -20.0197 H   0  0  0  0  0  0  0  0  0  0  0  0
    8.5047    3.2844  -20.0503 H   0  0  0  0  0  0  0  0  0  0  0  0
    8.9464    3.5374  -21.7729 H   0  0  0  0  0  0  0  0  0  0  0  0
    7.1871    4.1384  -24.8928 H   0  0  0  0  0  0  0  0  0  0  0  0
    7.1781    5.4446  -23.6599 H   0  0  0  0  0  0  0  0  0  0  0  0
    8.4539    4.1807  -23.6201 H   0  0  0  0  0  0  0  0  0  0  0  0
    4.9387    3.5422  -24.4484 H   0  0  0  0  0  0  0  0  0  0  0  0
    4.3546    3.0789  -22.8142 H   0  0  0  0  0  0  0  0  0  0  0  0
    4.7516    4.7935  -23.1734 H   0  0  0  0  0  0  0  0  0  0  0  0
    7.2288    2.7231  -18.7435 H   0  0  0  0  0  0  0  0  0  0  0  0
    4.6005    3.5188  -16.3040 H   0  0  0  0  0  0  0  0  0  0  0  0
    6.2847    3.1282  -16.4085 H   0  0  0  0  0  0  0  0  0  0  0  0
  1  2  2  0  0  0  0
  1  5  1  0  0  0  0
  2  9  1  0  0  0  0
  3  4  2  0  0  0  0
  3  8  1  0  0  0  0
  4 11  1  0  0  0  0
  5 12  2  0  0  0  0
  6  8  2  0  0  0  0
  6 10  1  0  0  0  0
  7  9  2  0  0  0  0
  7 12  1  0  0  0  0
  8  9  1  0  0  0  0
 10 11  2  0  0  0  0
 10 17  1  0  0  0  0
 11 24  1  0  0  0  0
 12 27  1  0  0  0  0
 13 22  2  0  0  0  0
 13 23  1  0  0  0  0
 13 25  1  0  0  0  0
 14 17  1  0  0  0  0
 14 25  1  0  0  0  0
 15 18  1  0  0  0  0
 15 26  1  0  0  0  0
 16 18  1  0  0  0  0
 16 26  1  0  0  0  0
 17 18  1  0  0  0  0
 17 22  1  0  0  0  0
 18 19  1  0  0  0  0
 19 20  1  0  0  0  0
 19 21  1  0  0  0  0
 19 24  1  0  0  0  0
  1 28  1  0  0  0  0
  2 29  1  0  0  0  0
  3 30  1  0  0  0  0
  4 31  1  0  0  0  0
  5 32  1  0  0  0  0
  6 33  1  0  0  0  0
  7 34  1  0  0  0  0
 14 35  1  0  0  0  0
 14 36  1  0  0  0  0
 15 37  1  0  0  0  0
 15 38  1  0  0  0  0
 16 39  1  0  0  0  0
 16 40  1  0  0  0  0
 20 41  1  0  0  0  0
 20 42  1  0  0  0  0
 20 43  1  0  0  0  0
 21 44  1  0  0  0  0
 21 45  1  0  0  0  0
 21 46  1  0  0  0  0
 22 47  1  0  0  0  0
 23 48  1  0  0  0  0
 23 49  1  0  0  0  0
M  CHG  1  22   1
M  END
> <OMEGA_C>
drGoQEoFj8CYEZnBUa22QM/hWcANjZ/B8anCQEa5n7/MwK/BuwvQQOSQOr5QOrbBVI2HQNyOiMDw
m5HB57evQEVVqT4QqaHBZTmCQNxh97+tGZfBISeyQAwRgL/obaXBfY2jQC78B8A0np7BA8C9QLXQ
tD9ZC6jBtlPNQMy1kj/2krLBtrRoQA/tP8B7oZDBy5epQHpyTUA23pHBAViMQIUcVEAQq6LBR2vY
QMOpqUAsmKfBISIEQVKVdUATwKfBd/66QEIqNkDAoaPBZPHWQIWUcUBK/KrBa93PQNouYEB2UrfB
2aPsQHU0jEAMub7BtOGgQPDSb0CG+LrBRlPJQMaZOUAaWZjBovOsQH3HUkDU1IbBkCnbQE4lCEAv
obnB1DqEQGD3WkD1bJfBwHUCQc8ap0CBVqbBcE4WQIydL8CuaofBvmW3QBknrsBQ0ZnBghrQQPgN
ZMBNQ6XB2v7EQHi+EMCfrLLBK5jcQP8wxL6sHb7BjbV5QCq5osBro4zBNPGiQK0rBj9uyJnBNb5m
QK9Xdr88VJbBsh6IQDJKiUAblqbBkENtQOAVJUAAVabBAxjOQHThv0DA6a3BkwPHQO7SsEBtKKDB
ZRMIQU00UkDrZqDBmyQPQTBlYkDvLq7BZPzlQHhthECBJMfB6rLlQDM6rkCIR73BFEMHQU3IhUAE
9rzBmQmeQGqzYkBXlsPB4liLQP0LRUCJg7bBAg2YQHZkmUAqY7nBd1LnQDlHLkDF8pXBZjeTQA40
YUCSboLBNhzJQLozSECuRIPB7r+EQKm9i8BK05zBr5eSQIxPU8CvUqPB9p3CQJuXn791wq/BgR7Q
QJ7LOb7wOLbBXYiHQNV9iMB+nJHB/3qvQPsyqj4TsKHBbBamQF8BAsDBWpPB/fWxQKi2f79pc6XB
sF+jQCjcB8BRo57ByLe9QL7ttD+oDKjB5mPNQF7Qkj/TkbLBjTKYQAo7RsC/4ozB2XSpQKN+TUDD
4JHBL0OMQDcfVEDHr6LBRVjYQCmyqUCxlqfBsBoEQYqydUDnuafBUOu6QE0yNkA2o6PBbOjWQEql
cUCq+qrBz+rPQJI5YEA4UbfBQrXsQBo/jEA1tb7B3/GgQHPLb0CO+7rBYjPJQEaKOUA0WZjBjsas
QDPkUkBc14bBu0nbQNk0CEC5nbnBcRyEQGEDW0ARcpfBaGsCQcUop0C9UKbBYMubQBLuPcDQ933B
jvdvQNloqMCvcaDBkGmQQBeKWMDF66vBiPfEQA2vEMCOrbLBtsTcQOfww76dGb7Br8d5QAaoosAO
oozB9YGiQLnEBj/a1JnBceOyQB25kb8gso/BTguIQGNJiUD9m6bBhiNtQDYSJUA4WqbBKgzOQCXo
v0Bg6a3BceTGQA3asEClKKDBagcIQeFTUkD3X6DBbiIPQVWGYkCwJq7B1xzmQOR0hEA4IcfBoLnl
QGJDrkDFRL3BNEsHQbPbhUDP7rzBOCeeQFGpYkCVmcPB0GaLQBv9REBaiLbBkxSYQC1fmUAqZ7nB
kyznQPIWLkCf8JXB8QaTQB5dYUD5coLBNevIQAtQSEBLRYPB

> <OMEGA_E>
6KQ+PxoqWT8=

> <OMEGA_NBR>
     35117

$$$$
50215543
  -OEChem-04172616093D

 43 46  0     1  0  0  0  0  0999 V2000
    7.3244   -0.2620  -22.2760 C   0  0  0  0  0  0  0  0  0  0  0  0
    6.6828   -1.2892  -21.5618 C   0  0  0  0  0  0  0  0  0  0  0  0
    6.9779    1.0826  -22.0463 C   0  0  0  0  0  0  0  0  0  0  0  0
    5.3636    0.3747  -20.3653 C   0  0  0  0  0  0  0  0  0  0  0  0
    5.6920   -3.2434  -19.5203 C   0  0  0  0  0  0  0  0  0  0  0  0
    3.6826   -1.8625  -19.3812 C   0  0  0  0  0  0  0  0  0  0  0  0
    3.7231   -4.0630  -18.3337 C   0  0  0  0  0  0  0  0  0  0  0  0
    5.6965   -0.9750  -20.5984 C   0  0  0  0  0  0  0  0  0  0  0  0
    5.0159   -2.0406  -19.8278 C   0  0  0  0  0  0  0  0  0  0  0  0
    5.9690    1.4141  -21.1067 C   0  0  0  0  0  0  0  0  0  0  0  0
    5.0476   -4.2491  -18.7772 C   0  0  0  0  0  0  0  0  0  0  0  0
    3.0414   -2.8683  -18.6361 C   0  0  0  0  0  0  0  0  0  0  0  0
    6.4919    3.4711  -19.7561 C   0  0  0  0  0  0  0  0  0  0  0  0
    4.3292    3.4445  -18.9821 C   0  0  0  0  0  0  0  0  0  0  0  0
    4.4607    3.6568  -23.1167 C   0  0  0  0  0  0  0  0  0  0  0  0
    4.7138    4.9450  -22.3099 C   0  0  0  0  0  0  0  0  0  0  0  0
    5.6362    3.7308  -22.1305 C   0  0  0  0  0  0  0  0  0  0  0  0
    5.5905    2.8783  -20.8253 C   0  0  1  0  0  0  0  0  0  0  0  0
    6.1141    4.3169  -17.4004 C   0  0  0  0  0  0  0  0  0  0  0  0
    5.6477    3.8511  -18.7176 N   0  0  0  0  0  0  0  0  0  0  0  0
    4.2475    2.9649  -20.2039 N   0  3  0  0  0  0  0  0  0  0  0  0
    3.2502    3.5504  -18.1113 N   0  0  0  0  0  0  0  0  0  0  0  0
    7.7086    3.6143  -19.8144 O   0  0  0  0  0  0  0  0  0  0  0  0
    5.8993   -5.7258  -18.4025 Cl  0  0  0  0  0  0  0  0  0  0  0  0
    1.3981   -2.6314  -18.0928 Cl  0  0  0  0  0  0  0  0  0  0  0  0
    8.0851   -0.5054  -23.0030 H   0  0  0  0  0  0  0  0  0  0  0  0
    6.9439   -2.3202  -21.7493 H   0  0  0  0  0  0  0  0  0  0  0  0
    7.4839    1.8672  -22.5893 H   0  0  0  0  0  0  0  0  0  0  0  0
    4.6336    0.6185  -19.6076 H   0  0  0  0  0  0  0  0  0  0  0  0
    6.7075   -3.3908  -19.8573 H   0  0  0  0  0  0  0  0  0  0  0  0
    3.1558   -0.9490  -19.6144 H   0  0  0  0  0  0  0  0  0  0  0  0
    3.2310   -4.8360  -17.7621 H   0  0  0  0  0  0  0  0  0  0  0  0
    3.5889    3.0263  -22.8877 H   0  0  0  0  0  0  0  0  0  0  0  0
    4.6514    3.6395  -24.2000 H   0  0  0  0  0  0  0  0  0  0  0  0
    5.0850    5.8478  -22.8170 H   0  0  0  0  0  0  0  0  0  0  0  0
    4.0226    5.2347  -21.5047 H   0  0  0  0  0  0  0  0  0  0  0  0
    6.6314    3.8230  -22.5899 H   0  0  0  0  0  0  0  0  0  0  0  0
    5.2468    4.5527  -16.7662 H   0  0  0  0  0  0  0  0  0  0  0  0
    6.7131    3.5272  -16.9234 H   0  0  0  0  0  0  0  0  0  0  0  0
    6.7309    5.2186  -17.5279 H   0  0  0  0  0  0  0  0  0  0  0  0
    3.3954    2.6953  -20.6526 H   0  0  0  0  0  0  0  0  0  0  0  0
    2.3415    3.2515  -18.4025 H   0  0  0  0  0  0  0  0  0  0  0  0
    3.3831    3.9254  -17.1938 H   0  0  0  0  0  0  0  0  0  0  0  0
  1  2  1  0  0  0  0
  1  3  2  0  0  0  0
  2  8  2  0  0  0  0
  3 10  1  0  0  0  0
  4  8  1  0  0  0  0
  4 10  2  0  0  0  0
  5  9  1  0  0  0  0
  5 11  2  0  0  0  0
  6  9  2  0  0  0  0
  6 12  1  0  0  0  0
  7 11  1  0  0  0  0
  7 12  2  0  0  0  0
  8  9  1  0  0  0  0
 10 18  1  0  0  0  0
 11 24  1  0  0  0  0
 12 25  1  0  0  0  0
 13 18  1  0  0  0  0
 13 20  1  0  0  0  0
 13 23  2  0  0  0  0
 14 20  1  0  0  0  0
 14 21  2  0  0  0  0
 14 22  1  0  0  0  0
 15 16  1  0  0  0  0
 15 17  1  0  0  0  0
 16 17  1  0  0  0  0
 17 18  1  0  0  0  0
 18 21  1  0  0  0  0
 19 20  1  0  0  0  0
  1 26  1  0  0  0  0
  2 27  1  0  0  0  0
  3 28  1  0  0  0  0
  4 29  1  0  0  0  0
  5 30  1  0  0  0  0
  6 31  1  0  0  0  0
  7 32  1  0  0  0  0
 15 33  1  0  0  0  0
 15 34  1  0  0  0  0
 16 35  1  0  0  0  0
 16 36  1  0  0  0  0
 17 37  1  0  0  0  0
 19 38  1  0  0  0  0
 19 39  1  0  0  0  0
 19 40  1  0  0  0  0
 21 41  1  0  0  0  0
 22 42  1  0  0  0  0
 22 43  1  0  0  0  0
M  CHG  1  21   1
M  END
> <OMEGA_C>
cmHqQNwehr5TNbLB5dnVQIcDpb9/fqzBWEvfQDiSij/TXrDBQaKrQI7cvz447KLBISW2QMCTT8Cp
KZzBLa9rQOFn7r+nDJvB30ZuQOADgsBhq5LBWUm2QHGZeb9zyaTB44GgQM+YAsBUn57BBAK/QA4A
tT+L2qjB54WhQHj4h8C9N5bB16VCQNuSN8DPFpXBtr3PQAUmXkB6DJ7B+YiKQE1zXEBB25fBHL6O
QHEJakAV77jBRdeWQGc9nkC5erLB5Fu0QBHFbkAyC7HBwOWyQD02OEA4mqbBW6bDQLsjikATNIvB
4bm0QAJ4dkCgvZXBeOuHQEvAPUCdoaHB8QNQQIM5Y0Dt45DBgqz2QDVQZ0Dkg57BNse8QB06t8BO
OJPBiPSyPw1pKMD6vZDBqFwBQWRiAb8TBrjBkjTeQK1+FMB+/q3BTnzvQKb/7j/PtrTBvUaUQA5V
Hj9U3JzBjqPWQNcCWcDV257BRPlJQMLxcr9O6pzB0chOQK/AmsDaGI7BSrFlQKyuQUAKGrfB8NeU
QNvsaECAmcHBL7iiQGkhu0ApibbB5LiAQFGCp0CzCazBuzTUQMmrdEAEuLTB9+WnQFmvkUAUIYbB
A9LWQJG9YUAsY4fB52PXQBz/pkAWOYzBA09ZQD1/LECPOKXB49oVQJYYUEBsOJPBDoRYQJQ5e0D4
jInB

> <OMEGA_E>
nNJkPw==

> <OMEGA_NBR>
     36143

$$$$
50215547
  -OEChem-04172616093D

 42 44  0     1  0  0  0  0  0999 V2000
    6.7859   -0.2932  -22.5912 C   0  0  0  0  0  0  0  0  0  0  0  0
    4.9622   -4.4051  -19.0333 C   0  0  0  0  0  0  0  0  0  0  0  0
    6.2804   -1.3069  -21.7663 C   0  0  0  0  0  0  0  0  0  0  0  0
    5.5736   -3.3556  -19.7420 C   0  0  0  0  0  0  0  0  0  0  0  0
    6.6102    1.0540  -22.2446 C   0  0  0  0  0  0  0  0  0  0  0  0
    3.7658   -4.1764  -18.3300 C   0  0  0  0  0  0  0  0  0  0  0  0
    5.4577    0.3735  -20.2066 C   0  0  0  0  0  0  0  0  0  0  0  0
    3.7953   -1.8385  -19.0330 C   0  0  0  0  0  0  0  0  0  0  0  0
    5.5977   -0.9840  -20.5730 C   0  0  0  0  0  0  0  0  0  0  0  0
    4.9932   -2.0635  -19.7549 C   0  0  0  0  0  0  0  0  0  0  0  0
    5.9494    1.4095  -21.0442 C   0  0  0  0  0  0  0  0  0  0  0  0
    3.1837   -2.8941  -18.3285 C   0  0  0  0  0  0  0  0  0  0  0  0
    6.5245    3.0979  -19.3045 C   0  0  0  0  0  0  0  0  0  0  0  0
    4.2780    3.2676  -18.9233 C   0  0  0  0  0  0  0  0  0  0  0  0
    5.7781    2.8803  -20.6148 C   0  0  1  0  0  0  0  0  0  0  0  0
    7.5895    4.2342  -21.9768 C   0  0  0  0  0  0  0  0  0  0  0  0
    5.7769    3.2362  -16.8860 C   0  0  0  0  0  0  0  0  0  0  0  0
    6.0893    3.9431  -21.7319 C   0  0  0  0  0  0  0  0  0  0  0  0
    5.5355    3.1107  -18.3303 N   0  0  0  0  0  0  0  0  0  0  0  0
    4.3746    3.1046  -20.2236 N   0  3  0  0  0  0  0  0  0  0  0  0
    3.0992    3.5335  -18.2441 N   0  0  0  0  0  0  0  0  0  0  0  0
    7.7316    2.9969  -19.1162 O   0  0  0  0  0  0  0  0  0  0  0  0
    1.6922   -2.6178  -17.4649 Cl  0  0  0  0  0  0  0  0  0  0  0  0
    7.3132   -0.5507  -23.4979 H   0  0  0  0  0  0  0  0  0  0  0  0
    5.4116   -5.3871  -19.0289 H   0  0  0  0  0  0  0  0  0  0  0  0
    6.4137   -2.3418  -22.0449 H   0  0  0  0  0  0  0  0  0  0  0  0
    6.4922   -3.5360  -20.2804 H   0  0  0  0  0  0  0  0  0  0  0  0
    6.9826    1.8278  -22.8995 H   0  0  0  0  0  0  0  0  0  0  0  0
    3.2934   -4.9843  -17.7910 H   0  0  0  0  0  0  0  0  0  0  0  0
    4.9701    0.6267  -19.2768 H   0  0  0  0  0  0  0  0  0  0  0  0
    3.3496   -0.8548  -19.0226 H   0  0  0  0  0  0  0  0  0  0  0  0
    7.6925    4.9865  -22.7726 H   0  0  0  0  0  0  0  0  0  0  0  0
    8.0448    4.6154  -21.0508 H   0  0  0  0  0  0  0  0  0  0  0  0
    8.0979    3.3073  -22.2807 H   0  0  0  0  0  0  0  0  0  0  0  0
    4.8164    3.2173  -16.3502 H   0  0  0  0  0  0  0  0  0  0  0  0
    6.4033    2.3988  -16.5450 H   0  0  0  0  0  0  0  0  0  0  0  0
    6.2919    4.1864  -16.6816 H   0  0  0  0  0  0  0  0  0  0  0  0
    5.6565    3.5794  -22.6755 H   0  0  0  0  0  0  0  0  0  0  0  0
    5.6034    4.8876  -21.4456 H   0  0  0  0  0  0  0  0  0  0  0  0
    3.6032    3.1293  -20.8595 H   0  0  0  0  0  0  0  0  0  0  0  0
    2.2392    3.6142  -18.7479 H   0  0  0  0  0  0  0  0  0  0  0  0
    3.1089    3.6447  -17.2504 H   0  0  0  0  0  0  0  0  0  0  0  0
  1  3  1  0  0  0  0
  1  5  2  0  0  0  0
  2  4  2  0  0  0  0
  2  6  1  0  0  0  0
  3  9  2  0  0  0  0
  4 10  1  0  0  0  0
  5 11  1  0  0  0  0
  6 12  2  0  0  0  0
  7  9  1  0  0  0  0
  7 11  2  0  0  0  0
  8 10  2  0  0  0  0
  8 12  1  0  0  0  0
  9 10  1  0  0  0  0
 11 15  1  0  0  0  0
 12 23  1  0  0  0  0
 13 15  1  0  0  0  0
 13 19  1  0  0  0  0
 13 22  2  0  0  0  0
 14 19  1  0  0  0  0
 14 20  2  0  0  0  0
 14 21  1  0  0  0  0
 15 18  1  0  0  0  0
 15 20  1  0  0  0  0
 16 18  1  0  0  0  0
 17 19  1  0  0  0  0
  1 24  1  0  0  0  0
  2 25  1  0  0  0  0
  3 26  1  0  0  0  0
  4 27  1  0  0  0  0
  5 28  1  0  0  0  0
  6 29  1  0  0  0  0
  7 30  1  0  0  0  0
  8 31  1  0  0  0  0
 16 32  1  0  0  0  0
 16 33  1  0  0  0  0
 16 34  1  0  0  0  0
 17 35  1  0  0  0  0
 17 36  1  0  0  0  0
 17 37  1  0  0  0  0
 18 38  1  0  0  0  0
 18 39  1  0  0  0  0
 20 40  1  0  0  0  0
 21 41  1  0  0  0  0
 21 42  1  0  0  0  0
M  CHG  1  20   1
M  END
> <OMEGA_C>
ZSbZQMgblr7KurTBwMqeQHD2jMAdRJjB9/jIQKRJp79IIa7Bj1qyQHjBVsCZ753B34bTQEzohj/X
9LHBEgJxQOSkhcDIo5LBlKWuQLA9vz4sp6HB2uZyQE1U67+KQ5jBkSCzQNTpe79ylaTBmcifQBcQ
BMATCp7BoGG+QLZptD+bWqjBZsJLQIU4OcDHoJLBq8jQQDdDRkCTb5rBIOWIQCEgUUDSYpfBCOa4
QNdWOEAO66TBcd3yQHx+h0Bt0K/BDty4QCEdT0B/FofB3NvCQFtcfEDn2q3B5SKxQL8VR0CNpJLB
e/yLQO+xRkDvyaHB5llGQJMlYkD885HBfWn3QBHNP0Dj7ZjBwJjYPx+KJ8AquIvBigXqQCn6DL+2
+7vBGSytQHNjrMBCO5jBRD3NQGvgFcDlW7DBY8DPQKRNYsA8PqLBFXHfQP/z6T9AMrfBg8ZSQKx/
n8AHVI7BrgqfQGduID/6NprBV2BWQNjVWr9YLpjBqCj2QMuRn0BPLrbBrrcAQayxk0AhaKjB9pAB
QRaqU0DYPrLBjx+aQLbnTUA2zYLBCejMQCGFGUARXITBp1fJQMH2hUDvc4XB/AG1QLoUZUBYZ7XB
bE+zQP5mnECgkKvBWJpmQLVGSEAy4KbBGk8PQMpPZ0DM+5XBF/hGQPpCaUDGAIrB8RvZQGzWub5a
OLXBxzGoQJJujsAtw5fBHzLHQET6r79Q6K7BgqS3QEBFWcAjGZ7BxGrWQMCOeT+b9LHBcO+CQJXV
iMBynJHB3YatQCXZmD5dPaLBrX55QKkg/b/kC5jBOR6yQLlsh78nPqXBIfShQDOiCcC8V57BDZm/
QMJhqj8WlKjBC49aQNuaQsDivZHBoJLQQAAfN0ANlpnB67mJQBAjXEB+kZjBTNa8QC6bMkAKrqTB
smG6QEnIgUA98bbBlSayQNl+TkByC4fBamrSQHH9dUCuMqzBhfquQME8SkDLwpLBmACQQMejS0A2
wqLBpnxGQFFLd0BQNZTBs/v0QGMTIkBoDpfB2DP8P2YjNcCIGYrBuAjpQGwuHb/dnrzBQ+y4QAOr
rMBenpfBiIPJQLjkGcBdcrHBDULUQGYWYsDj0KLBM+blQJcb3z+jorbBedVtQF3bosDFyIzBjRqc
QJrlDD8fDpvBUF5YQHvMg7+QEpjB8mTLQPPLmUAnxbvBXA+5QEWxRkDGWbvBoKiZQP0AjUDbULXB
77aSQGnpXkCjqIPB04G8QHYEEEBT7IPB/J3JQIe9f0CJx4TBtrnTQKvNmUA/9KfBcyDzQKJKYEAq
/a3Bv/pyQC6HT0BabKjB2XATQCKgf0CK65jBIwlCQMVFgUA/WozBZpLYQBjilr5Pz7TB5vNMQCxc
O8BBl5LBKCHIQGSxp7/KRq7BgAZzQCOJ7r8OP5jBanbTQGNxhj8F67HBFOVyQNORhsBgtpLB8mWu
QOwzuj4Hp6HBiKWyQDAGV8CEGZ7BOqayQB7Xfb+iqqTBfLGfQFnQBMAuHp7BRVK+QJdqsz/4TKjB
5pWfQH5hjcDodZjBMovQQIRfRUA4SJrBOq+IQDIbU0AVY5fBj964QKK3N0AY0KTBJt7yQOVJh0CV
qq/Bqv63QL6pTUDc94bBxuDCQGr6e0DVtq3BsqWwQAKpR0Atj5LBYeGLQK4jRkAdvqHBUA1GQM6X
ZkDSDZLBMg73QAzDPUCirJjBOFe3QG3fv8BPs5jBIT7pQKCBDL+TGbzBM5QSQDTVMMC1J47BxubL
QDb8FcBPmrDBhOpVQLhYYr+7GpjBl8bfQBfJ6T/rE7fBU4BVQByqoMCSZo7BIdieQN7xHD8IM5rB
yQDQQEzHYcDNdKLB5yz2QMh1n0CFArbBSroAQXZck0CAP6jB0o0BQWdNU0CjILLBxhCZQGVGTkB+
xILB6uHKQKc+FkAJS4TBL4zJQEB7hEAkK4XBmAO1QIP2ZEAjRrXBiVyzQAQxnEAAZavB62tmQNMP
RkCJ1qbBwzUPQBKxa0DTIJbBP5FGQNuMb0ALIorBfAzZQCCAL79N0rbBNYqHQHnjj8BFs5rBQ2vJ
QC/70r+On6/B+96WQIEBY8D6FKLBCAXSQB6iLj9J5rTB9QaEQIA9hcDDyY/BGImrQJYBAz6ziaTB
/1CfQHvz9r8tl5PBW9OyQJKkn7/LXKbBfOCiQFIvEMB5mJ7BDUe6QP+SjT+X2KvBxeaPQDZLOMCb
PYzBP5+uQIzXV0C5LbTBC4nqQOCqg0AOVKvBH3KzQPH/JkDfs6nB9RWDQAawjECjiaDB8O3ZQDVe
pUBlZb3B55aMQO4zOUCdFaLBOnTPQATliUCAMbTB0/vaQIXXSkB7G6XB5/AHQUFKmkCzL6nBXTST
QD/PTEC6ELvBWK+LQLeYHcDXa33B44HqQFpIf79M2b3BFup8QKdrr8BpaZ3BoK7OQJ2sLMCJK7HB
hnyZQPSic8BOcarBG9HeQKxRtT8KXrrBMXVwQJWVnMAWJIrBg2+aQHRU4D6cc53BKn+oQG9pcr+j
1JDBeC1PQKmKkED0IJvBO0afQK+EnECaDp3Bw0J3QBlGm0CgU6jBix31QK4pukBtV7vBm3jiQIxA
kUBqS8TBjQW+QD03uUBebr/Bve9fQAGKGkCie6XBuJyTQC4HHUCdNprB9y/oQK/cN0CVN57B3lsQ
QeHxk0APkqLBwvMMQYPnsED9Qq7BJajVQFWuL78GS7fB+gOpQGSPjsCCJpbBnp7GQPQs078oBrDB
9bq3QJRGYMClmZ3BOzzQQOTJLj+vH7XBi0mFQMRohcAHrY/Bdg+tQNS9Az7YTaTBP4l9QL1M/b9t
GZjBlE2yQP7On7+JcKbBFMGiQH5eEMA+o57Bgui6QI7djT/AtKvBaV9gQOCNO8A7p5DB5c6vQC6/
WUD9l7PBzf3tQDZJgkCeX6vB9ui1QM0qJ0CpSanBZd6IQFZpjUA/WZ/Be/jaQAy2pUDhFb3B48CQ
QIllOkD3MKHBcHbRQKLkiUCg4bPBB7/eQMcoSECpF6XBlywKQUyul0DUlqnBNPaSQCFEUUA8KrrB
DoIHQKyrJMCWq4jBpGvlQBePf7/CkL7Beii5QHj4rMBaZpXBCJjKQNzSLMCPw7HB6yTTQB6dbsDv
i6LBCWzcQOxftT/zrbrB6SN0QJ7HnMBB9onBFj+eQPDb4D5m55zBaOFcQA0JhL+H1pjBugVdQFCi
kUC+nJnBbxemQBA/nEAqI5zBsGSAQOy2nEAn/KbB2x33QFqSuUCYRrvBQpfhQDvbkUA1KcTB9Uy/
QEJ9ukAOs77BukFmQM67HUBUUKTBnNOYQBbMHEBXd5nB4O7sQH+KM0CYZp7BdxsTQahokEC9NKPB
jwgPQdRWrkBqsK7B

> <OMEGA_E>
rO0wP6gmBz+obDM/NLOeP45Rkz8=

> <OMEGA_NBR>
     40163

$$$$
50215555
  -OEChem-04172616093D

 45 47  0     1  0  0  0  0  0999 V2000
    6.3582   -0.2164  -22.8426 C   0  0  0  0  0  0  0  0  0  0  0  0
    5.4365   -4.5318  -19.2274 C   0  0  0  0  0  0  0  0  0  0  0  0
    6.0373   -1.2824  -21.9984 C   0  0  0  0  0  0  0  0  0  0  0  0
    5.8320   -3.4224  -19.9906 C   0  0  0  0  0  0  0  0  0  0  0  0
    6.2190    1.0995  -22.3897 C   0  0  0  0  0  0  0  0  0  0  0  0
    4.3783   -4.4100  -18.3104 C   0  0  0  0  0  0  0  0  0  0  0  0
    5.4774    0.2871  -20.2150 C   0  0  0  0  0  0  0  0  0  0  0  0
    4.1133   -2.0591  -18.9136 C   0  0  0  0  0  0  0  0  0  0  0  0
    5.5664   -1.0401  -20.6900 C   0  0  0  0  0  0  0  0  0  0  0  0
    5.1713   -2.1796  -19.8439 C   0  0  0  0  0  0  0  0  0  0  0  0
    5.8431    1.3707  -21.0501 C   0  0  0  0  0  0  0  0  0  0  0  0
    3.7193   -3.1754  -18.1523 C   0  0  0  0  0  0  0  0  0  0  0  0
    6.4404    2.8663  -19.1208 C   0  0  0  0  0  0  0  0  0  0  0  0
    4.2494    3.5085  -18.9482 C   0  0  0  0  0  0  0  0  0  0  0  0
    5.7786    2.8041  -20.4997 C   0  0  1  0  0  0  0  0  0  0  0  0
    6.1100    5.3347  -20.9523 C   0  0  0  0  0  0  0  0  0  0  0  0
    7.8364    3.7857  -21.8384 C   0  0  0  0  0  0  0  0  0  0  0  0
    5.5417    3.2554  -16.7872 C   0  0  0  0  0  0  0  0  0  0  0  0
    6.3203    3.9077  -21.5034 C   0  0  0  0  0  0  0  0  0  0  0  0
    5.4501    3.3086  -18.2549 N   0  0  0  0  0  0  0  0  0  0  0  0
    4.3675    3.0959  -20.1912 N   0  3  0  0  0  0  0  0  0  0  0  0
    3.1014    4.0729  -18.4139 N   0  0  0  0  0  0  0  0  0  0  0  0
    7.5748    2.5118  -18.8193 O   0  0  0  0  0  0  0  0  0  0  0  0
    2.4085   -3.0332  -17.0133 Cl  0  0  0  0  0  0  0  0  0  0  0  0
    6.7134   -0.4084  -23.8442 H   0  0  0  0  0  0  0  0  0  0  0  0
    5.9445   -5.4776  -19.3445 H   0  0  0  0  0  0  0  0  0  0  0  0
    6.1502   -2.2976  -22.3489 H   0  0  0  0  0  0  0  0  0  0  0  0
    6.6457   -3.5177  -20.6943 H   0  0  0  0  0  0  0  0  0  0  0  0
    6.4001    1.9193  -23.0691 H   0  0  0  0  0  0  0  0  0  0  0  0
    4.0701   -5.2644  -17.7261 H   0  0  0  0  0  0  0  0  0  0  0  0
    5.1289    0.4763  -19.2105 H   0  0  0  0  0  0  0  0  0  0  0  0
    3.6087   -1.1126  -18.7875 H   0  0  0  0  0  0  0  0  0  0  0  0
    6.4973    6.0681  -21.6748 H   0  0  0  0  0  0  0  0  0  0  0  0
    5.0362    5.5108  -20.7911 H   0  0  0  0  0  0  0  0  0  0  0  0
    6.6464    5.4419  -19.9980 H   0  0  0  0  0  0  0  0  0  0  0  0
    8.1238    4.5859  -22.5363 H   0  0  0  0  0  0  0  0  0  0  0  0
    8.4248    3.8772  -20.9135 H   0  0  0  0  0  0  0  0  0  0  0  0
    8.0318    2.8074  -22.3019 H   0  0  0  0  0  0  0  0  0  0  0  0
    4.6224    3.6688  -16.3467 H   0  0  0  0  0  0  0  0  0  0  0  0
    5.6647    2.2108  -16.4652 H   0  0  0  0  0  0  0  0  0  0  0  0
    6.4067    3.8466  -16.4522 H   0  0  0  0  0  0  0  0  0  0  0  0
    5.7544    3.8139  -22.4420 H   0  0  0  0  0  0  0  0  0  0  0  0
    3.6087    2.9946  -20.8347 H   0  0  0  0  0  0  0  0  0  0  0  0
    2.2888    4.1891  -18.9851 H   0  0  0  0  0  0  0  0  0  0  0  0
    3.0859    4.3639  -17.4573 H   0  0  0  0  0  0  0  0  0  0  0  0
  1  3  1  0  0  0  0
  1  5  2  0  0  0  0
  2  4  2  0  0  0  0
  2  6  1  0  0  0  0
  3  9  2  0  0  0  0
  4 10  1  0  0  0  0
  5 11  1  0  0  0  0
  6 12  2  0  0  0  0
  7  9  1  0  0  0  0
  7 11  2  0  0  0  0
  8 10  2  0  0  0  0
  8 12  1  0  0  0  0
  9 10  1  0  0  0  0
 11 15  1  0  0  0  0
 12 24  1  0  0  0  0
 13 15  1  0  0  0  0
 13 20  1  0  0  0  0
 13 23  2  0  0  0  0
 14 20  1  0  0  0  0
 14 21  2  0  0  0  0
 14 22  1  0  0  0  0
 15 19  1  0  0  0  0
 15 21  1  0  0  0  0
 16 19  1  0  0  0  0
 17 19  1  0  0  0  0
 18 20  1  0  0  0  0
  1 25  1  0  0  0  0
  2 26  1  0  0  0  0
  3 27  1  0  0  0  0
  4 28  1  0  0  0  0
  5 29  1  0  0  0  0
  6 30  1  0  0  0  0
  7 31  1  0  0  0  0
  8 32  1  0  0  0  0
 16 33  1  0  0  0  0
 16 34  1  0  0  0  0
 16 35  1  0  0  0  0
 17 36  1  0  0  0  0
 17 37  1  0  0  0  0
 17 38  1  0  0  0  0
 18 39  1  0  0  0  0
 18 40  1  0  0  0  0
 18 41  1  0  0  0  0
 19 42  1  0  0  0  0
 21 43  1  0  0  0  0
 22 44  1  0  0  0  0
 22 45  1  0  0  0  0
M  CHG  1  21   1
M  END
> <OMEGA_C>
+3XLQP2RXb6gvbbBI/itQD8EkcC10ZnBPjHBQCwkpL+s/K/B5p+6QBQIW8C37J/B0wHHQL68jD8O
HrPBERuMQKsejcCpe5LB+UavQFL7kj5ruKHBDaCDQIzIA8ALT5fBlB+yQDsihb8yhaXBUnulQIl+
C8BCwJ7BBfu6QL9xrz+wZqjBnAhuQJA6S8D6N5HBFRjOQC9xN0BU95jBxfqHQAiLYEDhlZfBnOq4
QJV1M0Bv/6PBuYTDQPG1qkBNnqfBHcT6QFdIckATta7BmFWxQPtXUEAgTIbBxz/KQNMXekDfBqzB
mGeuQHm/U0AZCpLBV8KLQHQiRkCih6HBEH1GQIpVgkCYT5PBy2TyQKfBIEDcjZbBliUaQC4gQsA/
G4jBftTWQKgV0b4Dwb7Bsjm+QJNIr8CVwZrBV87EQDAME8CYyrLBy6nUQCMiYcDjjaXByM3MQPyq
9T9vjbjBWz6CQB12qMARz43BLCCkQHzg8z4Ur5nBK/RmQJ1qjr+/TJbBtOnPQC4uwkAPZq3BSCih
QJ1YsEA9VKbBIq/UQLIjrkDQ+5/BNPsBQZq/kkBaSrTBx8sGQeUjeEDMTqfBQYIAQaCsM0BearLB
8+qTQNzNakANxoLBmkW1QCZ9DUDCuIPBuwPNQNsudkAhnoPBHSS4QHQXdEAlibPBJvVmQAKoP0Bv
rabBSnwSQG4NhkBn4ZfB635FQAyli0B0qIvBfojXQDAOp74bjLXBfq6nQBVOjsB1KpjBHK/HQIeS
rL+wAa/B7Ae4QN+LWMC+Rp7BGAPTQBrPgT/lerLBPjiCQF2TiMApGJLB8jOuQBA8oT7mQKLBqAF7
QKwF+r+HMJjBe0KzQD7hhL/NP6XBtu+iQH5VCMDzZZ7B0mi9QGgsrj986KjBiG1aQNZjQcCQFpLB
iKfPQK1AQECnm5rBJ8OIQMVxXUD79pfBpHW3QNRqNECdHqXBeFHwQIK1h0Au1K/BPgmmQIMAdkBR
8LfBCh23QBl9U0Avi4fB+VLAQL8Mf0CRZa3BVz6xQKUqWkCtMJPB9pyKQCrAP0DixaHBXhRHQB8D
eUAXBJPBfmP0QFR9KUD3pZjBqZD6P+yRM8AclorBOkznQHZEEr9c+7zBht+3QE7WrMDcIZjBiBnL
QLVCGMATcLHBx9zUQBt5YcBq6KLB7SrgQMWJ5T9serfBsBprQFbGosAPb43BX4yeQENcDj/ay5rB
odBaQDRjf791IZjBREnzQGEIokCsn7XBbIEAQWpZkEB1Y6jB6LH+QIMUVUB0MrPBHqOtQC/NlUBu
Ub3BPESuQIE7OUBS4LvBcaaDQDPEdkA/D7bBYIKaQKA7bEDnc4PBTAG8QBcKEEDRVoXBIjrTQIMw
eUDqIIXBtYm0QP7YnEB1hanBU1BiQBSnMkDuVabBFW0PQIj8dkBH9ZbBQAZJQKF2h0DngIvBfMfE
QMwFhb4Pk7bB1rdqQAy5a8CbdZTBbEu4QPS2pb/6x6/BRJx1QNx9HcAF85nBqqjDQNTXhz857bLB
g3CYQNrekcCUEZPB3OCpQDcLnz66e6HBii3GQP/KQMBSuZzB0DWqQOa2gb/pVKXBGEWjQNyICcAm
SZ7B8FS4QPhnrj8VM6jB0CTBQOFkhsDE/JbBLPPNQKuMNUA3t5jBPqOIQDp6ZECH3pfB/hi6QJdB
M0A66KPB1jLMQEo0qUCPmafBHo3/QAALZUDqO67BDo6wQEhJV0D3XobBZlfPQFrvdUAu4avB1bWu
QBlhWEBPIZLBcKqNQFNaTUDy5KHBcoxFQKokgkAcsJPBdvzwQGr3GUC085XB8hruQEHOpcA+bJTB
FEXPQHOw9L6onr7BvqMsQHDLfMDkUJHBXXG5QHxHFMD4jbLBkLZAQMEW47/y0JrBUojLQBWw7j+t
WrjB0w2UQGgNsMBGAY/BOLeeQPgUBj9zfJnBQx3lQH5fMMCa+5/BNzvbQNdFv0BuVa3B5VeqQETk
sUCojqbBlcbcQDZlq0As25/BgtEFQZL5ikDXy7PB5uYIQVbwZ0Dit6bBVKIBQf5JJUBW2bHBlvWT
QPfydkDLGoPBArexQDqoFEBbi4PBY2HNQHhseUBUq4PB/s+9QC2YckDbf7PBCOJsQAJ/TUDbZafB
DzESQOFnhUA3ZJjBBkJCQKhbikCM94vBWNUFQfSp7L3uY6bBxTKaQN0NkMCTUZzBMDryQJbkmL8Z
BaPBuPuzQGh2XMDvCKDB5Mf5QI2TlT9NZKfBMGpvQLuxh8BGX5XBAly0QFXdkT4RGaLBQreIQDNP
7r/GzZXBjWbGQKQ0f79nuqDBHmirQNZNB8AN1JzBEM/NQADesT+bQKXBYPZdQFbgOsA5HpLBSB3R
QEAodEBsVp/BiKSLQF5EaUC8kpnB0Lq5QLD+MkC7ZqbBb2iRQHSohkBhz7TB2TLgQFzvd0DlFLfB
2jy8QFXbp0D7iY/BPri2QBwCTkBAn7LBZWmyQATTikCNfJjB2DOOQLhPM0Bzm6HBxGBOQNLKdED+
W5PBdjX3QPGNg0C6bZ/BfqIIQMLRJcB8eonBmIgWQZS+i77PN6jBF+GgQEx6sMCqzJ7BkxgAQTZQ
C8DELaLBvGnOQBOcacCSWqXB+uIGQYdx/z980anBuOZHQM2wocB7ipLBAYySQI+L2j7Ft6DBgQGC
QNnVWb9NRJPB4MqQQMvsjkDQXL3B8cdlQP8rb0D0kLLB7RuWQFXio0BlDLDBBoHbQJBXhEBIjL/B
oHbnQGsXmUArfLLBWfj6QLeWSkAAXbbB/3OeQOVzsEDVXovB0QzSQEvMl0A564nBNJDLQA4DxUCR
pJLB25qwQFOKE0B7R7fBENprQPMFD0CfLKTBJIoZQIvaUkDg5pTBlchOQH2Cj0AYWY3B

> <OMEGA_E>
tBYnP9y7FD86zjs/oceKPw==

> <OMEGA_NBR>
     43586

$$$$
50215937
  -OEChem-04172616093D

 42 45  0     1  0  0  0  0  0999 V2000
    6.5547   -0.2759  -22.7241 C   0  0  0  0  0  0  0  0  0  0  0  0
    6.0675   -1.3170  -21.9304 C   0  0  0  0  0  0  0  0  0  0  0  0
    6.4826    1.0440  -22.2677 C   0  0  0  0  0  0  0  0  0  0  0  0
    5.3498    0.2954  -20.2403 C   0  0  0  0  0  0  0  0  0  0  0  0
    3.9420   -2.0829  -18.9860 C   0  0  0  0  0  0  0  0  0  0  0  0
    5.7870   -3.3989  -19.8685 C   0  0  0  0  0  0  0  0  0  0  0  0
    4.3211   -4.3980  -18.3435 C   0  0  0  0  0  0  0  0  0  0  0  0
    5.4880   -1.0458  -20.6733 C   0  0  0  0  0  0  0  0  0  0  0  0
    5.0687   -2.1773  -19.8241 C   0  0  0  0  0  0  0  0  0  0  0  0
    5.8600    1.3573  -21.0307 C   0  0  0  0  0  0  0  0  0  0  0  0
    3.5623   -3.2127  -18.2451 C   0  0  0  0  0  0  0  0  0  0  0  0
    6.4500    2.8649  -19.1320 C   0  0  0  0  0  0  0  0  0  0  0  0
    4.2469    3.4421  -18.9447 C   0  0  0  0  0  0  0  0  0  0  0  0
    5.9072    4.0570  -22.8803 C   0  0  0  0  0  0  0  0  0  0  0  0
    5.8907    5.1703  -21.8320 C   0  0  0  0  0  0  0  0  0  0  0  0
    6.5114    3.8066  -21.4823 C   0  0  0  0  0  0  0  0  0  0  0  0
    5.8057    2.8046  -20.5063 C   0  0  1  0  0  0  0  0  0  0  0  0
    5.5612    3.1983  -16.7888 C   0  0  0  0  0  0  0  0  0  0  0  0
    5.4118   -4.4736  -19.1402 N   0  0  0  0  0  0  0  0  0  0  0  0
    5.4103    3.0964  -18.2474 N   0  0  0  0  0  0  0  0  0  0  0  0
    4.4084    3.1988  -20.2285 N   0  3  0  0  0  0  0  0  0  0  0  0
    3.0813    3.9162  -18.3605 N   0  0  0  0  0  0  0  0  0  0  0  0
    7.6149    2.6070  -18.8511 O   0  0  0  0  0  0  0  0  0  0  0  0
    2.1472   -3.1563  -17.2281 Cl  0  0  0  0  0  0  0  0  0  0  0  0
    6.9871   -0.4903  -23.6903 H   0  0  0  0  0  0  0  0  0  0  0  0
    6.1350   -2.3362  -22.2814 H   0  0  0  0  0  0  0  0  0  0  0  0
    6.9070    1.8372  -22.8653 H   0  0  0  0  0  0  0  0  0  0  0  0
    4.8544    0.5106  -19.3051 H   0  0  0  0  0  0  0  0  0  0  0  0
    3.3824   -1.1620  -18.9146 H   0  0  0  0  0  0  0  0  0  0  0  0
    6.6585   -3.4726  -20.5021 H   0  0  0  0  0  0  0  0  0  0  0  0
    4.0247   -5.2640  -17.7702 H   0  0  0  0  0  0  0  0  0  0  0  0
    4.9691    3.5613  -23.1705 H   0  0  0  0  0  0  0  0  0  0  0  0
    6.5659    4.1376  -23.7575 H   0  0  0  0  0  0  0  0  0  0  0  0
    6.5369    6.0516  -21.9571 H   0  0  0  0  0  0  0  0  0  0  0  0
    4.9400    5.4753  -21.3701 H   0  0  0  0  0  0  0  0  0  0  0  0
    7.6106    3.7879  -21.4451 H   0  0  0  0  0  0  0  0  0  0  0  0
    4.5789    3.3848  -16.3302 H   0  0  0  0  0  0  0  0  0  0  0  0
    5.9763    2.2582  -16.3967 H   0  0  0  0  0  0  0  0  0  0  0  0
    6.2417    4.0283  -16.5479 H   0  0  0  0  0  0  0  0  0  0  0  0
    3.6878    3.2706  -20.9180 H   0  0  0  0  0  0  0  0  0  0  0  0
    2.2775    4.1001  -18.9263 H   0  0  0  0  0  0  0  0  0  0  0  0
    3.0449    4.0740  -17.3737 H   0  0  0  0  0  0  0  0  0  0  0  0
  1  2  1  0  0  0  0
  1  3  2  0  0  0  0
  2  8  2  0  0  0  0
  3 10  1  0  0  0  0
  4  8  1  0  0  0  0
  4 10  2  0  0  0  0
  5  9  1  0  0  0  0
  5 11  2  0  0  0  0
  6  9  2  0  0  0  0
  6 19  1  0  0  0  0
  7 11  1  0  0  0  0
  7 19  2  0  0  0  0
  8  9  1  0  0  0  0
 10 17  1  0  0  0  0
 11 24  1  0  0  0  0
 12 17  1  0  0  0  0
 12 20  1  0  0  0  0
 12 23  2  0  0  0  0
 13 20  1  0  0  0  0
 13 21  2  0  0  0  0
 13 22  1  0  0  0  0
 14 15  1  0  0  0  0
 14 16  1  0  0  0  0
 15 16  1  0  0  0  0
 16 17  1  0  0  0  0
 17 21  1  0  0  0  0
 18 20  1  0  0  0  0
  1 25  1  0  0  0  0
  2 26  1  0  0  0  0
  3 27  1  0  0  0  0
  4 28  1  0  0  0  0
  5 29  1  0  0  0  0
  6 30  1  0  0  0  0
  7 31  1  0  0  0  0
 14 32  1  0  0  0  0
 14 33  1  0  0  0  0
 15 34  1  0  0  0  0
 15 35  1  0  0  0  0
 16 36  1  0  0  0  0
 18 37  1  0  0  0  0
 18 38  1  0  0  0  0
 18 39  1  0  0  0  0
 21 40  1  0  0  0  0
 22 41  1  0  0  0  0
 22 42  1  0  0  0  0
M  CHG  1  21   1
M  END
> <OMEGA_C>
PcDRQBBIjb4My7XBNSnCQOCUqL9zca/Bg3HPQEOhhT9EJLLB4DGrQCQ5lz4p7KHBdUp8QIpOBcBQ
45fBby+5QCaHWcCy8p7BYUaKQJe8jMBqv5LBcp2vQF3dhb/bYqXBlzKiQJhYC8DXl57BLYW7QGG6
rT/gPqjB8vtjQJqcTcDo9ZHBu2bOQPRZN0BfDpnB+uaHQJ5LXEC2jpfBYwe9QPvSgUDGCrfBOoC8
QEJzpUDkp67BmF3QQFKfc0Cp26vB8Me5QER/M0DcDKTBZvWxQIKxTECIT4bBXS2tQPInj8AaH5nB
xSCtQOQqRkCV+pHB/xGNQOK5TEDf06HBjjNFQJCiekBe4pLBb63zQEzZJkD7zpbB2WsJQIgBSsAV
04nBGZbfQAEP+77Hhb3BGVLEQLWDFcBoQLLBJAbdQAUp6z8i7LbB/VabQN21Aj/icJrB23lYQH27
lL8bUZfB1xLVQEc+XsBMBKTBpsqAQKRyqMBPKY7BkwKfQObrY0AyXbnB8xvSQINnhEBYD77BDC7R
QBynwUAuqK/BrRSeQIw1r0AJ9qrBW4rzQEJtckCZj6vBq4aSQNmgWEAupILB1T2/QMqFEEBoLIPB
WbzHQL/ngEAdYoTB3ARsQLBRUUAfWKfB4sERQL4zg0ADaZfBMd9CQAJegkBn/YrB3kTVQNxOg74s
r7XBO73FQKexo79DH6/BpI3RQJaIij+NhLLB55quQJ5+wj4AE6LBxWS1QLCgVMBWlp7BQmd6QBpG
779g1ZfBzRCAQKMXg8CK8JHBVR6yQJwyeL/QRKXBLIahQLW6A8DFcZ7B8z++QC42tz//o6jB+XCk
QDQti8C/SpjBmSTQQMb+PkDjnJnBbJWIQCJlWUCXepfBsuvmQBsWiUB8FrTB8jq3QGpIhUD4ZLfB
/+TDQE+AhEC/i6vBq8K5QFqHOED7ZqTBEje1QMb+T0DhtIbBHVtaQC8YOMDEyJHBd4SwQOSBVkDD
YZLB2ZCMQBL/REC+nKHBns1DQB4JbEARlZLBoM30QO3OKECqepfBxYy8QNp6vcBTXZjBIjPkQKjV
/77COr3BisbIQGXFE8AEm7HBRZjdQNRH7j/nr7fBp8OfQDv+HT9+gZrB5E/RQE+5X8DCfKPBq95b
QEmcZr/rm5fBlO9lQO2InMBTGI3BHh79QEv0XEB8orXBhej3QJ+sp0AFDbXB8VemQJgroUBvtrrB
iY2rQD3yT0DmS7vB4eK8QKXBokBNZ6fBm76XQACUZkApz4LBMBK7QBXkDEAHfITBJFvQQH+id0Dm
FoTBeVVoQBTMPkDtuqbBfIwNQEdiakAd0pbBKDxCQDcje0CIz4rBfmjVQG4aN78wT7fBJEDGQKlx
1b8286/BDjvQQCpfKD+dQbXBwuGsQLCoAz7SZqTB6yx9QJ0V+7/+75fB6qC2QHAZYMB0bp3BXvmG
QGcAhcC16Y/B2uOxQPgioL/paabBrimiQGO0D8A+iJ7BNhm7QNs6jD/33KvBod9hQE53O8C4kJDB
1zSwQObiWUDTr7PBG6TvQCOfgEBV06vBD2+YQC71NEB6bJXBHWSQQBy2hUDA8ZrBCQCRQFbNOEBH
mKHBLJ62QFItJkCXfanBWFvdQJ3nokDPrr3BKQ2pQBmNjcBfQpbBs+zSQGGmiECwP7TBjM3fQOKc
RkAnYqXBiGULQQnVlEBlR6rBxsmSQJbeUkATILrBrdAJQIRtJ8DiU4jBJBPlQGQMhb+Mj77B3SzK
QBQiLsCGlrHB9HLcQLQRsT8d4brBy/WdQLw85z6tDJ3BU1NcQOfdgb8TkJjBMczRQAG+bsCpcqLB
+uh4QBLNnMAKOorBbWG4QHmsJUDSQpLBlrZ/QFQ1GUA0KpDB7CBkQIfIlkDZn5nBmJaqQBoEnUB3
uJvB7fpiQDQLIkCSS6TBakL6QLvntUDKDLzBVh/jQAnqjUAwmcTBkXjCQPZ/uEClcr/B98btQKzD
MkCyoJ7BymsUQcZVjUC+8aPBmHMQQW/dqkBJgK/BG8XVQIMFOr8bYLfBHMPGQPpc17+LB7DBrkPQ
QLoJJT/tULXBGtasQPDU2T2jfKTBV3u3QHXIYMCpep3BLAd+QASK/r9K+ZfBGzuEQJqNgsDAmI/B
u0CyQDy5or+gfqbBxMiiQBMfEcDHmZ7BJeu6QDjUiT+Q76vB+/6nQJyZjcAE5ZXBZHCvQElsWEBR
xLPBr7DuQOlvgEAx5qvB1MWXQPEaM0AggZXBdWWPQA+7hEBJBZvB2FaQQCfjNkALraHBEwu2QHbg
JEAOkanBTCrcQJyDokDpw73B3ehgQIV9OMBsspDBwu3RQH8ziEAfVLTBAhffQNr9RUD+dKXB9NQK
Qfz7lEBUWarBJRSSQNXXUEA8NrrBIQfBQCodv8B+RpTBOZLlQH/8hb/Bnr7BKunKQG8HL8CArLHB
TGTcQL/Trz+K7LrBxrSdQFbb2T6BJp3Bi9LSQBKQcMDVYaLB9utdQNzBhL9FwZjBHLNwQNEhmcDR
xInBVsa3QO9PJEAQV5LBGJl+QJbyFkDQP5DBUN5hQHaPlUB4s5nB8WipQCI+nEC5ypvBZtlhQAGk
H0B8YaTBHej4QKPBtUCwIbzBfh7iQIyNjUAprcTBPxvBQNvht0Coib/BnyPtQEFhMkBCs57BmeET
QXqmjUDmAqTBPcwPQaoYq0BTkq/BOtTfQCAGZL/5Z7bBiJDKQMgv7b8oF7DBFMrZQADr9z4QVLTB
2PGkQADikb0a2KbBAFKaQACY578s4pTBgDyYQEg9bMBkM6HBOAqIQJQqgcAPBY/BhH+uQJhztr9N
6KfBEDifQDxgFMDSYp/BUAK8QHAAZj98bazBcL6OQAg9K8D1o4zBfNqqQIgASEDLobPBnHjqQPwm
eEBv3azB0JmaQDAkEkAOLZXBWPiVQOi8b0DHwpjBBPyRQPh9J0COBaHBIpe1QCaTF0ACoqnBADTU
QEAml0CxE7/BGruMQHqakMCoHJnBeIfLQEZkgUAI6bTBVKreQNqeO0D/OqbBSC4IQbTIkkAU+qvB
JDmNQG6bOEBkxLnBTGuKQPiGBMAoGn/BabD0QJJHmr+O0bzB667PQGwFOsC4frHB0NbrQLM9nD/V
wLjB3D2LQKTxbj6Im6HBh4CfQFC0Qr8pR5PBVh2cQKPogsArK6nBAet9QEfJlsBHrIjB/wy6QFDB
8j/vt5LBZ3SBQBA+6D8nS5DBoAlzQLVgikDebZbBaB2yQIUBjUCl2pjB5W9iQP8/GkBLx6PBLJzv
QErjrEAFGb7BY6PbQFR7fkAlQ8XBENy3QBqjqUDVf8HB0jzvQLDXKEBNzZ/BplASQdBxjEAV/qXB
+rkLQTCFqUDnUbHB

> <OMEGA_E>
jC0bPxIDHj+iZos/sbOOP0WDlj8=

> <OMEGA_NBR>
     47609

$$$$
50215700
  -OEChem-04172616093D

 39 41  0     1  0  0  0  0  0999 V2000
    6.6674   -0.2099  -22.6989 C   0  0  0  0  0  0  0  0  0  0  0  0
    5.2771   -4.4278  -19.0528 C   0  0  0  0  0  0  0  0  0  0  0  0
    6.2019   -1.2574  -21.8885 C   0  0  0  0  0  0  0  0  0  0  0  0
    5.7507   -3.3522  -19.8266 C   0  0  0  0  0  0  0  0  0  0  0  0
    6.5171    1.1238  -22.2879 C   0  0  0  0  0  0  0  0  0  0  0  0
    4.1304   -4.2689  -18.2539 C   0  0  0  0  0  0  0  0  0  0  0  0
    5.4050    0.3611  -20.2512 C   0  0  0  0  0  0  0  0  0  0  0  0
    3.9396   -1.9465  -18.9857 C   0  0  0  0  0  0  0  0  0  0  0  0
    5.5677   -0.9838  -20.6553 C   0  0  0  0  0  0  0  0  0  0  0  0
    5.0846   -2.1015  -19.8046 C   0  0  0  0  0  0  0  0  0  0  0  0
    5.8874    1.4244  -21.0562 C   0  0  0  0  0  0  0  0  0  0  0  0
    3.4615   -3.0301  -18.2218 C   0  0  0  0  0  0  0  0  0  0  0  0
    6.4790    2.9331  -19.1817 C   0  0  0  0  0  0  0  0  0  0  0  0
    4.2575    3.4313  -18.9374 C   0  0  0  0  0  0  0  0  0  0  0  0
    5.7925    2.8631  -20.5319 C   0  0  1  0  0  0  0  0  0  0  0  0
    6.3548    3.9371  -21.4992 C   0  0  0  0  0  0  0  0  0  0  0  0
    5.5917    3.0470  -16.8289 C   0  0  0  0  0  0  0  0  0  0  0  0
    5.4865    3.2802  -18.2773 N   0  0  0  0  0  0  0  0  0  0  0  0
    4.4002    3.2083  -20.2244 N   0  3  0  0  0  0  0  0  0  0  0  0
    3.0525    3.7393  -18.3245 N   0  0  0  0  0  0  0  0  0  0  0  0
    7.6167    2.5578  -18.9201 O   0  0  0  0  0  0  0  0  0  0  0  0
    2.0252   -2.8437  -17.2477 Cl  0  0  0  0  0  0  0  0  0  0  0  0
    7.1432   -0.4311  -23.6428 H   0  0  0  0  0  0  0  0  0  0  0  0
    5.7942   -5.3757  -19.0724 H   0  0  0  0  0  0  0  0  0  0  0  0
    6.3293   -2.2806  -22.2099 H   0  0  0  0  0  0  0  0  0  0  0  0
    6.6287   -3.4809  -20.4421 H   0  0  0  0  0  0  0  0  0  0  0  0
    6.8834    1.9239  -22.9139 H   0  0  0  0  0  0  0  0  0  0  0  0
    3.7631   -5.0966  -17.6653 H   0  0  0  0  0  0  0  0  0  0  0  0
    4.9074    0.5814  -19.3183 H   0  0  0  0  0  0  0  0  0  0  0  0
    3.4309   -0.9946  -18.9465 H   0  0  0  0  0  0  0  0  0  0  0  0
    6.2465    4.9331  -21.0450 H   0  0  0  0  0  0  0  0  0  0  0  0
    7.4189    3.7358  -21.6917 H   0  0  0  0  0  0  0  0  0  0  0  0
    5.7980    3.9041  -22.4472 H   0  0  0  0  0  0  0  0  0  0  0  0
    4.6795    3.4085  -16.3316 H   0  0  0  0  0  0  0  0  0  0  0  0
    5.7106    1.9701  -16.6388 H   0  0  0  0  0  0  0  0  0  0  0  0
    6.4639    3.5878  -16.4330 H   0  0  0  0  0  0  0  0  0  0  0  0
    3.6640    3.2658  -20.8987 H   0  0  0  0  0  0  0  0  0  0  0  0
    2.2165    3.8040  -18.8694 H   0  0  0  0  0  0  0  0  0  0  0  0
    3.0194    3.8968  -17.3375 H   0  0  0  0  0  0  0  0  0  0  0  0
  1  3  1  0  0  0  0
  1  5  2  0  0  0  0
  2  4  2  0  0  0  0
  2  6  1  0  0  0  0
  3  9  2  0  0  0  0
  4 10  1  0  0  0  0
  5 11  1  0  0  0  0
  6 12  2  0  0  0  0
  7  9  1  0  0  0  0
  7 11  2  0  0  0  0
  8 10  2  0  0  0  0
  8 12  1  0  0  0  0
  9 10  1  0  0  0  0
 11 15  1  0  0  0  0
 12 22  1  0  0  0  0
 13 15  1  0  0  0  0
 13 18  1  0  0  0  0
 13 21  2  0  0  0  0
 14 18  1  0  0  0  0
 14 19  2  0  0  0  0
 14 20  1  0  0  0  0
 15 16  1  0  0  0  0
 15 19  1  0  0  0  0
 17 18  1  0  0  0  0
  1 23  1  0  0  0  0
  2 24  1  0  0  0  0
  3 25  1  0  0  0  0
  4 26  1  0  0  0  0
  5 27  1  0  0  0  0
  6 28  1  0  0  0  0
  7 29  1  0  0  0  0
  8 30  1  0  0  0  0
 16 31  1  0  0  0  0
 16 32  1  0  0  0  0
 16 33  1  0  0  0  0
 17 34  1  0  0  0  0
 17 35  1  0  0  0  0
 17 36  1  0  0  0  0
 19 37  1  0  0  0  0
 20 38  1  0  0  0  0
 20 39  1  0  0  0  0
M  CHG  1  19   1
M  END
> <OMEGA_C>
+FrVQMjoVr5Ul7XBqt2oQDiwjcAqbJjBlnXGQE7zoL+SG6/BgwW4QAeLVsDbnJ7BAozQQNLXjz+M
TbLBTCyEQAibiMDjB5LBz/WsQOjeuD5mAqLBMSJ8QLYn+b+y4pfBaCqyQIfce7/+PaXBOLWiQDN+
BsDNb57B8mW8QDZStj8ic6jBhYldQL/sQcA2xpHBDlTPQCq4O0AqdJnB1D2IQLGaW0DNf5fBw1u5
QH89N0BJQaTBlVrLQCP6e0BP/qvB+u6yQA8CQ0CkoYbBaJGvQBfvUUDZN5LBlM6MQG9VTUCEy6HB
sFtDQK9Qb0CFmJLBarzzQLSyI0BGXJfBsZwBQJ/+NcBX+4nBI5XkQBq+3L6AJL3BKmq5QKsFrMA6
lJjB9YnKQBH1EcDKrbHBYB7UQJ/GXsCDiaPB0UTcQLtD9j+3T7fBGtdwQIUXo8B6Uo3BpAmdQNLZ
FD/gi5rBX5RbQB2ffr9fkpfBo+PHQDTcnUAiXKjB/WftQLIXb0CyiK3B+Yi5QFPdeUD2k7PBqL6V
QHQkWkAkp4LBYr22QKgs/D8tHIXBJ9jOQH2eZUC5doPBsn9qQBQDUUCVMKfBC9sNQPJzc0CQ9JbB
hz1BQHNkeUA0s4rBkFrDQKC4yz1LhLTBl3+vQGpDlcCE4JrByoi2QDjUir9QYa/BNFC4QPbnX8AW
yaDByobHQCbQpD83mq7B+iOPQCb3lMCvB5PBtoCvQFBsBT68hJ7B0eGAQBCLE8CW05bB/kmsQHLZ
iL/3X6TBLDehQNLoE8DLuZ7BZCW+QPZLpz8SfqPBqT1vQOCZXsBYEpHBeEWqQN8+MUAtdJPB7VGW
QMWMeEAEZ6LBGrfIQEElI0AZvpzBNmj3QJnvH0B/8JjBdXs9QLPnY0D1lJPBZn6KQNlBZEB8xpfB
m9S/QIfzbkCPKKPB1c15QBLKhEDvP6vBZMquQAt7HEAXDorBt8AdQGMdXsDQhofBKv3JQDmNxT36
/rzBCIzBQDIissD1W5zB0YO0QBJvAMBG2bPBpr3QQHG4YMCF5abBmPHRQMpNDEDJibLBB1uIQFyh
scDtgo7BP66mQP1rFj5xKpbB54FeQPcKs7/PNJXBwXv+QCEnWUCQIJTBzmH8QDyMzD/kC5TBamgG
QX0PHkC565/BlPwVQLqBiEC0MZjB4n0iQDEfI0CQRpTBjjk+QJxMd0B1H4vBjqHUQIOgiUA4NKfB
XjOKQDpyh0DtfrLBi5A6QANFiEB5YarBwGTxQL1y3r2/9K/BdpNGQF5WTMCPspfBO2/eQLUSl79F
bKrBVk5tQMh+CMCmTZ3Bo5neQM2plT9XoK/BNDh5QIBrh8C8fpPB9sylQFl3nD50L6TBhM68QPuz
ScCIfZrBNUK4QDsre78QjKTBmaujQGmLBsBkvZ7BLNW4QN1dsj9VoKnBn1apQEi8hsD15pTBofnD
QI+wc0BKcKTBwySJQODvaUAnhJnBUcGkQAjwMkAOI6nB6wiVQBHBTkBzWrTBKqjEQAxpp0BGvZPB
VdKvQBCHikBVdJvBCE6AQFsbN0A7m6HBtMddQHSMdEAMoZDBiPbmQLtthEARA6jBsODIQI7ar8Ci
sI/BVDcHQW2fiL5ud7TB8QACQJ9gTcCunpbBEA/tQHYiCsC8qKrB80FGQGpFq7+Ih6DBSBTtQB0V
/j/q+rPBQIFbQCNzocBzMY/B0beIQHyM7D5DsJ/BzRvfQLf1SMBMipvBiciGQIeAh0C727PB1kKw
QMX0T0DT7bnBhMd5QNUNIUAZP7fBg9GtQIXrr0DXY43BUYXgQIRDl0DRL5DBVzXPQFWgxEDs4JfB
X2pJQIiUF0AEiqLBs5omQORhVEBAHZDBwDRvQAwsjkAqwYrB8M3WQEaVLr/nILfBPimpQIHPjcDn
+JXBxpXHQNrw0b8116/B+RW4QCPIXsBZZZ3BHszQQNv9Lz93GLXB5O2EQMLbhMClqI/BfaGsQLxz
FT6vXqTBkLl8QKTc+7+5L5jB8oOyQALenb9GXqbBaNKiQB1GD8CukZ7BxrG6QOL+jj/GzqvBSR1f
QLvZOsDExJDBm1GvQGL5WUAD27PBWZ/sQIY9g0CSY6vBSRW1QAefJ0DGjKnBSUWPQOP+O0D24aHB
9rfaQEbJpUCBRr3BXaXQQPhfikAnCLTBMg3dQIV4SkD3GaXBv2cJQS3SmEDRgqnB+hKTQMFkUEC3
kLrBTQMFQBF8JMDE+4jBDyfnQDGbf7+sTr7Bm4a5QO0OrMBSHpXBx/3LQItDLMBIerHB6eLTQAXO
bMBWOKLBKCDdQKqYtT8lqLrB+Q9zQOU5nMBu94nBujCdQJG37D72EJ3Bzq1bQCoug79EBZnBYTaN
QATJgEBEpKDBk29iQBa/JEC8bKXBNp2UQKERHEB8J5rBCnH2QPwWukATXrvBTEPiQNKdkUCKPMTB
Jvi+QJYhukCTIb/BKoTqQEU+N0DuQJ7BQScSQZ/ZkUAYC6PBDmMOQUlPr0DZoK7BvqDbQACHL7/P
dLbBQ5+IQC70j8BvrprB3JPLQO5Z0r+/Rq/B0FuYQIkrY8BPA6LBRXzTQDstLj9AxbTB7GCDQGbk
hMDa1o/BIyqrQGyVCz56p6TB/LOdQLD187/TnZPBVnazQNaTnr9KQ6bBggajQKiJD8AyjJ7Bl0i6
QOSKjT8o+qvB5uiNQP3LNsCdUIzB2FiuQKjlVkAvn7TBUFfoQDTJhEBwSKvBj0GyQJK/JkDTGarB
1imKQMuMOUDRIKPBSP/ZQMskpUDMnr3BkIHOQF8cikAlabTB6UbYQE5eTUByGqXBw4kGQVcEnECz
5KjByC+UQNz8SUA+wrvB/4yHQH8YG8C+vX3B1ULuQLT6f7/rSL3BPo+AQJDIr8CFYJ3BZa3RQOZS
LMAZpbDB/FCcQOxudMAFUqrBnYrgQIPFtD+vOLrBeZFuQMU4nMBGOorBHQqZQOrX5j7XvZ3ByNGl
QBrpab+e35DB4H+GQCEef0A9I6LB/hxbQBFiH0DDE6fB6AyOQIxvG0DIO5vBq1n0QDqtukAyX7vB
oinkQFK6kEDHUsTBrg6+QPE4uEClDMDB5D/kQNlBPEDV/53BYoUOQVRClkB+HKLBNMMLQah6skAJ
9a3B

> <OMEGA_E>
RLEWP0o4hD9+WIo/dyqVP2n1nz8=

> <OMEGA_NBR>
     51436

$$$$
50215938
  -OEChem-04172616093D

 46 49  0     1  0  0  0  0  0999 V2000
    6.6290   -0.2344  -22.7500 C   0  0  0  0  0  0  0  0  0  0  0  0
    5.3478   -4.4021  -19.0487 C   0  0  0  0  0  0  0  0  0  0  0  0
    6.1010   -1.2787  -21.9809 C   0  0  0  0  0  0  0  0  0  0  0  0
    5.7581   -3.3468  -19.8813 C   0  0  0  0  0  0  0  0  0  0  0  0
    6.5773    1.0828  -22.2720 C   0  0  0  0  0  0  0  0  0  0  0  0
    4.2408   -4.2350  -18.1959 C   0  0  0  0  0  0  0  0  0  0  0  0
    5.3844    0.3280  -20.2907 C   0  0  0  0  0  0  0  0  0  0  0  0
    3.9515   -1.9530  -19.0065 C   0  0  0  0  0  0  0  0  0  0  0  0
    5.5070   -1.0071  -20.7296 C   0  0  0  0  0  0  0  0  0  0  0  0
    5.0604   -2.1155  -19.8679 C   0  0  0  0  0  0  0  0  0  0  0  0
    5.9133    1.3883  -21.0566 C   0  0  0  0  0  0  0  0  0  0  0  0
    3.5453   -3.0102  -18.1740 C   0  0  0  0  0  0  0  0  0  0  0  0
    6.4638    2.8888  -19.1440 C   0  0  0  0  0  0  0  0  0  0  0  0
    4.2681    3.4822  -18.9488 C   0  0  0  0  0  0  0  0  0  0  0  0
    5.8340    5.2964  -23.5640 C   0  0  0  0  0  0  0  0  0  0  0  0
    6.7533    4.1469  -23.9650 C   0  0  0  0  0  0  0  0  0  0  0  0
    5.7697    3.9780  -22.7931 C   0  0  0  0  0  0  0  0  0  0  0  0
    5.8041    2.8184  -20.5012 C   0  0  1  0  0  0  0  0  0  0  0  0
    5.6521    3.4432  -16.8368 C   0  0  0  0  0  0  0  0  0  0  0  0
    6.4026    3.9323  -21.3898 C   0  0  0  0  0  0  0  0  0  0  0  0
    5.5109    3.4283  -18.2977 N   0  0  0  0  0  0  0  0  0  0  0  0
    4.4026    3.1497  -20.2120 N   0  3  0  0  0  0  0  0  0  0  0  0
    3.0599    3.8075  -18.3532 N   0  0  0  0  0  0  0  0  0  0  0  0
    7.5932    2.5093  -18.8550 O   0  0  0  0  0  0  0  0  0  0  0  0
    2.1821   -2.7964  -17.1073 Cl  0  0  0  0  0  0  0  0  0  0  0  0
    7.0758   -0.4433  -23.7107 H   0  0  0  0  0  0  0  0  0  0  0  0
    5.8818   -5.3407  -19.0633 H   0  0  0  0  0  0  0  0  0  0  0  0
    6.1483   -2.2940  -22.3459 H   0  0  0  0  0  0  0  0  0  0  0  0
    6.6090   -3.4759  -20.5337 H   0  0  0  0  0  0  0  0  0  0  0  0
    7.0487    1.8741  -22.8360 H   0  0  0  0  0  0  0  0  0  0  0  0
    3.9241   -5.0466  -17.5577 H   0  0  0  0  0  0  0  0  0  0  0  0
    4.8807    0.5405  -19.3593 H   0  0  0  0  0  0  0  0  0  0  0  0
    3.4158   -1.0154  -18.9880 H   0  0  0  0  0  0  0  0  0  0  0  0
    6.2538    6.1927  -23.0839 H   0  0  0  0  0  0  0  0  0  0  0  0
    5.0020    5.5884  -24.2216 H   0  0  0  0  0  0  0  0  0  0  0  0
    6.5823    3.6090  -24.9091 H   0  0  0  0  0  0  0  0  0  0  0  0
    7.8341    4.2132  -23.7713 H   0  0  0  0  0  0  0  0  0  0  0  0
    4.8927    3.3369  -22.9660 H   0  0  0  0  0  0  0  0  0  0  0  0
    4.7699    3.9227  -16.3875 H   0  0  0  0  0  0  0  0  0  0  0  0
    5.7369    2.4110  -16.4662 H   0  0  0  0  0  0  0  0  0  0  0  0
    6.5557    4.0070  -16.5617 H   0  0  0  0  0  0  0  0  0  0  0  0
    7.4829    3.7548  -21.4967 H   0  0  0  0  0  0  0  0  0  0  0  0
    6.2372    4.9020  -20.8975 H   0  0  0  0  0  0  0  0  0  0  0  0
    3.6589    3.1255  -20.8800 H   0  0  0  0  0  0  0  0  0  0  0  0
    2.2179    3.7980  -18.8925 H   0  0  0  0  0  0  0  0  0  0  0  0
    3.0300    4.0519  -17.3839 H   0  0  0  0  0  0  0  0  0  0  0  0
  1  3  1  0  0  0  0
  1  5  2  0  0  0  0
  2  4  2  0  0  0  0
  2  6  1  0  0  0  0
  3  9  2  0  0  0  0
  4 10  1  0  0  0  0
  5 11  1  0  0  0  0
  6 12  2  0  0  0  0
  7  9  1  0  0  0  0
  7 11  2  0  0  0  0
  8 10  2  0  0  0  0
  8 12  1  0  0  0  0
  9 10  1  0  0  0  0
 11 18  1  0  0  0  0
 12 25  1  0  0  0  0
 13 18  1  0  0  0  0
 13 21  1  0  0  0  0
 13 24  2  0  0  0  0
 14 21  1  0  0  0  0
 14 22  2  0  0  0  0
 14 23  1  0  0  0  0
 15 16  1  0  0  0  0
 15 17  1  0  0  0  0
 16 17  1  0  0  0  0
 17 20  1  0  0  0  0
 18 20  1  0  0  0  0
 18 22  1  0  0  0  0
 19 21  1  0  0  0  0
  1 26  1  0  0  0  0
  2 27  1  0  0  0  0
  3 28  1  0  0  0  0
  4 29  1  0  0  0  0
  5 30  1  0  0  0  0
  6 31  1  0  0  0  0
  7 32  1  0  0  0  0
  8 33  1  0  0  0  0
 15 34  1  0  0  0  0
 15 35  1  0  0  0  0
 16 36  1  0  0  0  0
 16 37  1  0  0  0  0
 17 38  1  0  0  0  0
 19 39  1  0  0  0  0
 19 40  1  0  0  0  0
 19 41  1  0  0  0  0
 20 42  1  0  0  0  0
 20 43  1  0  0  0  0
 22 44  1  0  0  0  0
 23 45  1  0  0  0  0
 23 46  1  0  0  0  0
M  CHG  1  22   1
M  END
> <OMEGA_C>
8CDUQAr6b770/7XBYyGrQMrdjMDGY5jBWzvDQNeqo7/e2K/BrEK4QPcxVsDiDJ/BVXnSQOSZij8X
LbLBZ7SHQOaEh8BOkZHB9EysQK3rpz5fU6LB7OV8QDH8+b9YDZjBOTmwQCzpgL8g1qXBuu6hQJxk
B8B08Z7BwDm9QCWzsT8DdKjBtOViQCunQMBsZJHBiNfOQMjhOEABJ5nB4JOIQEbcXkAwl5fB3q+6
QFB8qUALg7zBIBvYQNCzhEBNuL/BkaG4QBeYfkA+WLbBiru5QLlgNECAAqTBKt60QGZdXEDLsYbB
6eHMQBGre0BQHqvBQFmwQOJoW0CpYZLB6OGMQC+USUAasqHBBNVDQJ2uc0BB05LBk/vyQKuYIEAj
15bBHKcLQGj3MsCt24jBTW3iQEz+4r6ar73BaDe8QFvnqsCngZjBPL/EQKjQEsB4xLLBUn3TQFN1
XsAXRaTB5Y7hQG7h7z85sLbBKyV7QOF9ocAjdozB+S6cQOxgCj/U35rBlJxaQJ/5gb9h55fB3h7I
QGoqxkDKq7jBBxCgQDLUskDqxcHBG6LSQF/5ZkDTRcfB8bD6QOfShkCzK77BSpGcQFOQVUBLurfB
U6OYQN0Me0CfGYPBzZS3QK1NGkDIuoPBScjRQBc5gEBHfoTB33PvQFhPcEAl+avBUpfHQELdnEAY
LqfB1CpqQIIHSEBKCqfBjvENQLURc0DnI5fBLexBQAGpgUBGEovBZNrZQDBhT77wnLXB9JaqQBWz
jsBH7JjBf1/KQI4Go79gd6/B8u+5QNx1WcCPOp/Bim3TQKxqjz8GMbLBPHOGQE7RiMCPXJLBRmmu
QBhLmj5QXKLBaLCAQKzf+78GcJjBqde0QF6Bg7+MuKXBzwalQKIqCcDcDp/BqYa8QGxisT87oqjB
vD9jQPnCQcBlGZLBPPrNQLynPkCD45nB/SuIQNDPYkCNW5fBvXgHQVyxgUAbtqvBUj8AQY+fm0AG
drXBAk3jQDAImEA+p6vBhNi0QIBiM0CwWqTBRL+2QEh6W0D+9obBu/K5QPCSfECu3azBy7qwQDwF
X0AFoZLBSIaIQKzPO0DDqaDBfjpIQHdJg0CQvJLB4sHwQKkgH0AulZfBvCQKQFxcMsCW6InBAb7q
QHjhyr5y/bzBmY26QJpXrcBiHZnByO7OQEt2EsCJMbLBbsfVQHOeYsDGN6TBRv/fQGhA+D+E3bbB
KmZ1QLbxosBTh43BX2ieQNMa/D5Y25rBifRgQKnRgb/tQpjBEF4IQagtPUDxLqzBCnsUQa+vjUA2
mabBRBEIQUU9ukCOWbfBluj3QGoki0BJ77zBZw7hQCzltEDHpabBiCmbQMtTeUBE+ILBO3a5QLxS
GECRaYTByyDUQDcffkAAyoTB/LCeQDJUlECsEKzBMZe5QJ6IX0DB4bTBAlVdQEMlJ0DLmqTBWe4P
QG7QgUAThpbB1GtMQOKtkUBRnIvB9EXcQLAerL5+XrTBsI2jQHw7kcBKgZnBnHLKQOUKrr9XTq7B
03q1QI70XMCc/p7Ban7WQPhvfD+yOLHBSnp8QDZyi8DPZZPBCZytQPBjjD7dn6HBxjh5QLC5/7/z
TZjBrpmzQJnBiL9a1qTBltmhQJNeC8CWjJ7BOiC+QET8qD9p7KfB2P9VQLCORcAkvZLBu5LPQJ5D
QkACAprBkVSIQDDmXUB2YJfB5mnoQNCfukCVCKfBco3gQASDv0DsIrPB2NHBQJIypUCQOKzB6V+3
QF7aMUBwaqTBhgW3QHayVkAL7IbByMXEQICma0DM763B8+ewQEykW0AumpLBapaKQFgGREBPZaHB
zPBFQI42dkAVL5LBygb1QBCwMEAFGZjBfUP0P2oiN8CVDIvB6X3uQGjcEL85ervB6GGyQP9ksMCP
95nB8xfOQAGqGMCR2rDBBWzSQJKsZcDIlqPB5LrkQPd14z/o57XBW5RgQAY+psB7M4/BA2OcQOZN
/j4qWZrBlW9bQLk6g7+1z5fBQ6UBQS8Rp0BII6TB4NfjQGUp1kAsrKHBBE3WQN6A3kDWbbbBqr/1
QKhor0Dz5LjBUhuiQA8As0DOlarBAi2aQMGKbkCP2oLBc8S8QITKE0Bcl4TBFrLSQEgPfkAcm4TB
YSSwQLJkW0BpxbTB/jrmQEqAXECy6K/BpeViQA+VPUCcR6bBtRMOQFLSdEBrFZbBewBIQFWOhECG
i4rB+MPrQAIam77EhrHBI64+QNZrO8BlgJXBedHVQOriqb+QKKzBDW9oQGxn9L+2QJvBj0bhQOdE
hT8/la/BHwdqQBcShMDhJJPB3rCqQIpTrj4u26LBwpu0QNmBUsA7QpzBQWW1QFlygb+BrqTBvBuf
QLo/BcCfr57BKX+/QBipsD9+fKjBsKCfQJvMicARiJbBsEnQQOpQWEClJp3BRhqKQEVqXEAdtpfB
tPHhQLujvUB+iazBfQvHQOojxkDTmrbBqEq2QL+3p0By9K3BOQa0QJFiNkDoH6bBWRTCQMLniUBC
q4rB8q21QDr8bkBtdbDBdVW0QII7dEBNOZXBi3qIQBv6PUBahqHBEG9NQHARZUAMC5HBZXL3QIFK
XUD5HJ3BzrS6QDU/ucACn5PBR2ECQa9uDL8YKbfBNL36PzCeMsBM5ZLBBbfdQNEHF8Aavq3BufpG
QMzgfb8xD53B/RTzQFGN6T+3hrPB2/BJQPYZncA0vY7ByDySQLykFT9EEp3BoE7VQA2LW8BW0Z7B
85D/QGnCqkA4Gq3BFvXlQNDq1kDmfqbBbdS3QLqI5UDPxrfBSnDRQFNguUAhYr7BOAicQLPLs0Cy
7qjBXtClQJLikkDZ7YXB/OLTQAktYUB4eobBqNHWQKUJpkDctovB/lSZQAjZYEABXrXBMsjSQPu7
XkAU+bTBEwxbQAkiLkDAWqXBPnATQCWgU0BLoZPBW5BUQNW6fEDjqYnBV3n1QLMp0r3Yl67Bf4eU
QIrij8BiAZ3BdpzgQJyXl79OsqnBcpSoQKfgW8Bzc6LBg2XjQJk9lz8YJK7BOYZ3QEGuh8A50ZPB
KUGmQBkClz7XYaTBvQ2LQNLd7b/weJXBBCm5QPrAfL+nZKTBOu+jQIHPBsBnvZ7BLTq7QNLrsj9k
J6nBFBRuQJbqOsAhDpDB0QfFQDvVdEB00KPBF9OIQKLJaUD3bJnBIWeyQORciEAKccbBA+TUQI5D
kkANDr7B6AW5QD/7U0DK/rzBL9GmQI16M0Dz5ajBJe3CQL3Mp0AOHpPBzTCWQFbxT0CyKbTB8E+v
QMQMi0AwEJvBCqKBQKAcNkCBh6HBNa1aQNLJc0CPwpDBh1fpQOIihEA5n6bBIv4wQGVFJsDLo4TB
K7kJQU0jhL74tbLBaCSYQF1HsMCh4J/B/LruQPXXCsAi+6nBBJS7QHK/aMCffKnBM0/0QDUDAUBV
o7HBW8ZYQBrGocC/p4/B9FqHQMEr3z4arqDBxHCHQLAeWb+ujZLBOF6VQKYvnEDz4MbBw8S7QDnF
fECfjM7Bn/X2QPlSj0BsJMDBFI/QQAIgrUDAeLjBzvPIQDr1FkCH1r7BhQ2rQEVesEAKBI3BqRXe
QOmCl0CLRo/BxU3OQOX+xEBwIJfB0vOHQC0BiEBwXbPB1fF6QAg7IkCEu7bBrDdNQD7mFEB3lqLB
ZR8kQOVtUkCsbZDBlrdpQPwqjkDk3IrBnAD0QL5C4L2GAa/B/ZFFQGu/TMCC5JfBcFHfQGYfmL9z
CKrB9YxsQO/wCMBiep3BpxjiQECFlj8Me67Br/93QLSUh8Crn5PBI7OlQG7gmD6PX6TBM1u8QPPf
ScCLdprBCUS4QO37fL+0iqTBCFOjQG7wBsDZ0J7BZVW6QGDJsj+lTqnBisSoQEDWhsC37JTBlLTE
QE+1dEDfBqTBkheJQMUdakAxa5nB5gmwQFAuiEDLl8bB5h3TQDLpkUAOWb7Bthm3QJmWU0ClK73B
FhimQHiKM0AU/ajBTbjDQM7Kp0BSVZPBitaUQIT5T0CMMrTByY6vQNUTi0ARM5vBr0+BQBWSNkAR
gKHBRk1cQA5BdEBXppDBMuHoQC3ug0Dm+KbBnzvIQMnkr8Arp4/B3dkIQb1Cib7wPLPBUe8AQD7W
TcBl4ZbBCETtQAg8C8AtZqrBNqhFQJxjrL++wqDBC9PyQEaEAECDELLB6QhaQJ2eocAwWo/BXVSH
QHjL5D6VbKDBYbXeQGTgSMCTZpvBlRaTQHQpnECC6sbBXdO4QDhFfEBhvM7Brwf1QLHHjkBfksDB
6ErPQIjOrECAwLjB0L3GQAJiFkCEEr/BAjysQHZysEBSJY3BSw7fQP1vl0DLlo/BOfHOQIvxxEDR
Y5fBLMqGQIcWiEAOXLPBsLl3QO1vIkBoqLbBlERMQJ2wFUDSeKLB/KklQM0aU0BSOJDBVjVsQGtY
jkC6xorB

> <OMEGA_E>
YIEHPyhoJT9Yhy4/VmZsPyE7hD92MYY/

> <OMEGA_NBR>
     56517

$$$$
50215910
  -OEChem-04172616093D

 46 49  0     1  0  0  0  0  0999 V2000
    6.7015   -0.2521  -22.6865 C   0  0  0  0  0  0  0  0  0  0  0  0
    5.1956   -4.4621  -19.1098 C   0  0  0  0  0  0  0  0  0  0  0  0
    6.2188   -1.2943  -21.8865 C   0  0  0  0  0  0  0  0  0  0  0  0
    5.7106   -3.3889  -19.8563 C   0  0  0  0  0  0  0  0  0  0  0  0
    6.5671    1.0759  -22.2646 C   0  0  0  0  0  0  0  0  0  0  0  0
    4.0393   -4.2841  -18.3288 C   0  0  0  0  0  0  0  0  0  0  0  0
    5.4772    0.3218  -20.2169 C   0  0  0  0  0  0  0  0  0  0  0  0
    3.9094   -1.9530  -19.0405 C   0  0  0  0  0  0  0  0  0  0  0  0
    5.5992   -1.0169  -20.6482 C   0  0  0  0  0  0  0  0  0  0  0  0
    5.0709   -2.1266  -19.8299 C   0  0  0  0  0  0  0  0  0  0  0  0
    5.9491    1.3826  -21.0257 C   0  0  0  0  0  0  0  0  0  0  0  0
    3.3972   -3.0309  -18.2938 C   0  0  0  0  0  0  0  0  0  0  0  0
    6.5001    3.0354  -19.2187 C   0  0  0  0  0  0  0  0  0  0  0  0
    4.2692    3.4469  -18.9273 C   0  0  0  0  0  0  0  0  0  0  0  0
    5.2030    3.9170  -22.9037 C   0  0  0  0  0  0  0  0  0  0  0  0
    5.1976    5.0991  -21.9232 C   0  0  0  0  0  0  0  0  0  0  0  0
    5.7687    2.8284  -20.5444 C   0  0  1  0  0  0  0  0  0  0  0  0
    6.1218    3.8908  -21.6615 C   0  0  0  0  0  0  0  0  0  0  0  0
    7.6293    4.1578  -21.9037 C   0  0  0  0  0  0  0  0  0  0  0  0
    5.6718    3.2779  -16.8468 C   0  0  0  0  0  0  0  0  0  0  0  0
    5.5224    3.4112  -18.3052 N   0  0  0  0  0  0  0  0  0  0  0  0
    4.3585    2.9931  -20.1548 N   0  3  0  0  0  0  0  0  0  0  0  0
    3.0847    3.8487  -18.3299 N   0  0  0  0  0  0  0  0  0  0  0  0
    7.6452    2.6891  -18.9487 O   0  0  0  0  0  0  0  0  0  0  0  0
    1.9637   -2.8149  -17.3229 Cl  0  0  0  0  0  0  0  0  0  0  0  0
    7.1781   -0.4727  -23.6302 H   0  0  0  0  0  0  0  0  0  0  0  0
    5.6874   -5.4233  -19.1357 H   0  0  0  0  0  0  0  0  0  0  0  0
    6.3208   -2.3170  -22.2183 H   0  0  0  0  0  0  0  0  0  0  0  0
    6.5996   -3.5279  -20.4535 H   0  0  0  0  0  0  0  0  0  0  0  0
    6.9380    1.8751  -22.8891 H   0  0  0  0  0  0  0  0  0  0  0  0
    3.6434   -5.1092  -17.7553 H   0  0  0  0  0  0  0  0  0  0  0  0
    5.0203    0.5378  -19.2625 H   0  0  0  0  0  0  0  0  0  0  0  0
    3.4156   -0.9929  -19.0108 H   0  0  0  0  0  0  0  0  0  0  0  0
    4.3341    3.2448  -22.9589 H   0  0  0  0  0  0  0  0  0  0  0  0
    5.6382    4.0370  -23.9068 H   0  0  0  0  0  0  0  0  0  0  0  0
    5.6286    6.0651  -22.2249 H   0  0  0  0  0  0  0  0  0  0  0  0
    4.3245    5.2729  -21.2771 H   0  0  0  0  0  0  0  0  0  0  0  0
    8.1689    4.1114  -20.9462 H   0  0  0  0  0  0  0  0  0  0  0  0
    8.0311    3.3962  -22.5881 H   0  0  0  0  0  0  0  0  0  0  0  0
    7.7580    5.1554  -22.3489 H   0  0  0  0  0  0  0  0  0  0  0  0
    4.7617    3.6445  -16.3495 H   0  0  0  0  0  0  0  0  0  0  0  0
    5.8293    2.2201  -16.5897 H   0  0  0  0  0  0  0  0  0  0  0  0
    6.5364    3.8695  -16.5114 H   0  0  0  0  0  0  0  0  0  0  0  0
    3.5772    2.7877  -20.7442 H   0  0  0  0  0  0  0  0  0  0  0  0
    2.2262    3.8021  -18.8406 H   0  0  0  0  0  0  0  0  0  0  0  0
    3.0886    4.1853  -17.3882 H   0  0  0  0  0  0  0  0  0  0  0  0
  1  3  1  0  0  0  0
  1  5  2  0  0  0  0
  2  4  2  0  0  0  0
  2  6  1  0  0  0  0
  3  9  2  0  0  0  0
  4 10  1  0  0  0  0
  5 11  1  0  0  0  0
  6 12  2  0  0  0  0
  7  9  1  0  0  0  0
  7 11  2  0  0  0  0
  8 10  2  0  0  0  0
  8 12  1  0  0  0  0
  9 10  1  0  0  0  0
 11 17  1  0  0  0  0
 12 25  1  0  0  0  0
 13 17  1  0  0  0  0
 13 21  1  0  0  0  0
 13 24  2  0  0  0  0
 14 21  1  0  0  0  0
 14 22  2  0  0  0  0
 14 23  1  0  0  0  0
 15 16  1  0  0  0  0
 15 18  1  0  0  0  0
 16 18  1  0  0  0  0
 17 18  1  0  0  0  0
 17 22  1  0  0  0  0
 18 19  1  0  0  0  0
 20 21  1  0  0  0  0
  1 26  1  0  0  0  0
  2 27  1  0  0  0  0
  3 28  1  0  0  0  0
  4 29  1  0  0  0  0
  5 30  1  0  0  0  0
  6 31  1  0  0  0  0
  7 32  1  0  0  0  0
  8 33  1  0  0  0  0
 15 34  1  0  0  0  0
 15 35  1  0  0  0  0
 16 36  1  0  0  0  0
 16 37  1  0  0  0  0
 19 38  1  0  0  0  0
 19 39  1  0  0  0  0
 19 40  1  0  0  0  0
 20 41  1  0  0  0  0
 20 42  1  0  0  0  0
 20 43  1  0  0  0  0
 22 44  1  0  0  0  0
 23 45  1  0  0  0  0
 23 46  1  0  0  0  0
M  CHG  1  22   1
M  END
> <OMEGA_C>
6nLWQDwPgb4DfrXBbUKmQK/JjsDk4JjBRADHQPOqpb+AF6/B/by2QBPjWMCn2Z7B7CXSQD62iT/o
HbLBBkKBQHMXicBgoZLBOUWvQIDApD40vKHBoTN6QO76+b/4UpjB8CyzQOIogr+DL6XB80SiQFoa
CMC7o57BEl++QJL4sD+0NKjBkWtZQKf6QcCzWZLBswDQQFdDQkDpv5nBip2IQF2ZXEAca5fBJH+m
QNGwekC3OrfB11KmQJQro0CfYq/BVpm4QBkFNUDzWqTBv+XDQM8CeUC5Sq3BWCP0QNgMhUC3Oq/B
E3+1QFnJUUBWxobBNrewQGVQWkD3cJLB/HiLQJ2PP0AgPaHBL2tFQJlRdkCWo5LB2qX0QPcZLEDe
lpfBvln7PyAoNMA2lYrBRbPlQC4E8r63Cr3B3P61QNuLrcDhFZnB3EPKQDNJFMARv7HBwC/TQETJ
YcDboKPBFQTeQJ4E8D/uHLfB9S1pQOV+o8DzCo7B56WgQCGwCT+OGZrB6phaQCQxfr8yFpjBCLGK
QGuqT0Dqq7fBOWy0QAMvgUATQb/BMh20QE4VwkClzLHBAWKKQIC7qEB8N6rBxbMCQamQg0DdkafB
fn8AQXhbWUCCtLTBKUH4QC75pECWyrLBkl+YQPk+aUDAy4LBV4m6QIUVDkCft4TB3SnRQHmld0BW
F4TBOvFkQPdoMkAm9KXBenkOQExVc0B3uZbBTaxFQNfthUATG4vBSwzYQHyjg76FQbXBVRWpQPx3
jsDkd5jBGgLIQPJGpr+j8q7BOZ24QMD4V8CKjJ7BVuzSQNwciT8V+bHBVpKDQBGqicCtXZLB+eys
QHBKpD6LBKLBUkJ6QLqK/r9nYpjBoaiyQEexgr9kPaXBhbWiQA6kCMBTlZ7Busi8QFKtsD8vYqjB
PDZbQF6bRMBjVZLBafvOQCznO0CGo5nBtxWIQB4vXECjaZfB5YjbQNLxpUBIpKnBkVn1QPxzg0BA
ma/BPgK4QLK8NEA+baTB8JbFQECNeECVH63BlDKmQPkcgECUt7bBQQG0QJ7WSED4oIbBGJavQA42
UkCQS5LBpT6LQJjaRkBriqHBSjVFQLrkdkASgpLBR+vzQJk9J0A5kZfB1fr6PytKOcDZ4YrBZGPo
QKPc9L4rqbzB0O+5QAikrMDuepjBS/vLQMikFMAshbHBVW7VQDeEX8ByOaPBs/ffQN9H7z82y7bB
sjNvQGstpMCCs43B21KcQDIiCj8LpZrBuKtYQN26hb9bS5jBq6XhQJ4LrEBWHKHBJ5rTQB46xEBx
qq3B89P/QOgJiUAC4rfBu+8GQdC2YUDmU6vBFnGYQMUDQUAigLjBNFyMQBCTlkDgq7TBEpG3QHX8
i0Cuxb3Bw5WWQGEvX0C+r4LB6Gy5QMcbBUCxpYTBS1HPQB41b0Bl1YPB/B5lQFNhQ0D2nKbB4AsP
QMPrekB9vZbBRUxFQO8Qg0D6vIrBnQzrQIpEmL7JtLHBNe49QBT/OMB7bZXBCHbVQFayqL9yMKzB
kiJoQJBi8L9WM5vBWqfgQG8zhj/Vya/BVtRoQJTxgsAHB5PBD0KrQNHwtj7HtqLBFzG0QPpPUcAe
KpzBZna1QJzpfr/gnKTB1vGeQNfdA8BynZ7BsuC/QGkKsj+db6jBkgGfQMX5iMB6Z5bBaFnQQNlw
WkAYSJ3B5V2KQNyuW0CDu5fBILK9QCntpkAjMrDBjoDfQO/7iECWJrXBpSq0QJQMN0DCQKbBSBG1
QA0YbUBa27DBWCSUQI+UT0A3YrnB1CfCQJk6iEAMiYrBumq0QFsgdEAjPZXBQ6qIQPsCP0DOnqHB
+lZOQNzoYUBp9pDBEH/3QP6SX0D5Gp3B/dG5QJmBuMCsbpPB9dUBQTcdDL8PbrfB2Ub5P6G/L8Cy
1pLBcVDdQFaDFsBqvK3BHQ9HQOs6db/DCZ3BE8fxQL4d6j9v87PBV3BIQLjOm8AimY7B5ViTQOhM
Gz+bzZzBvdjUQAXdWsCyup7BhbjDQAEKtkBoZKjBK7GrQNUmvUA3U7XB0ZrlQGfNiUCn0L3BLKL9
QJOwgkDY4bDBHsyQQJSLCUChELnBMvNpQOGWbUDfwLfBvU2fQCqzYkBIYcHB3OOlQHyTkEBGuYXB
C97TQIyAXEAjlIbBMfvWQPdvpECCT4vBy0BbQASEMEAVf6XBnHQUQErzT0B1iJPBtZ9VQDlYeECV
honB

> <OMEGA_E>
SA0XP8DLEz/wdlk/

> <OMEGA_NBR>
     59194

$$$$
50215978
  -OEChem-04172616093D

 52 55  0     1  0  0  0  0  0999 V2000
    6.7737   -1.2708  -22.9202 C   0  0  0  0  0  0  0  0  0  0  0  0
    5.0567   -4.9298  -18.7872 C   0  0  0  0  0  0  0  0  0  0  0  0
    6.2474   -2.1972  -22.0037 C   0  0  0  0  0  0  0  0  0  0  0  0
    5.6141   -4.0244  -19.7101 C   0  0  0  0  0  0  0  0  0  0  0  0
    6.7548    0.1039  -22.6270 C   0  0  0  0  0  0  0  0  0  0  0  0
    3.9845   -4.5317  -17.9652 C   0  0  0  0  0  0  0  0  0  0  0  0
    5.7060   -0.3746  -20.4839 C   0  0  0  0  0  0  0  0  0  0  0  0
    4.0210   -2.3185  -18.9877 C   0  0  0  0  0  0  0  0  0  0  0  0
    5.6935   -1.7512  -20.7832 C   0  0  0  0  0  0  0  0  0  0  0  0
    5.1027   -2.7093  -19.8175 C   0  0  0  0  0  0  0  0  0  0  0  0
    6.2455    0.5721  -21.3889 C   0  0  0  0  0  0  0  0  0  0  0  0
    3.4668   -3.2258  -18.0659 C   0  0  0  0  0  0  0  0  0  0  0  0
    7.4076    2.7775  -21.7281 C   0  0  0  0  0  0  0  0  0  0  0  0
    5.4860    3.5867  -22.6901 C   0  0  0  0  0  0  0  0  0  0  0  0
    4.5969    4.9878  -18.9217 C   0  0  0  0  0  0  0  0  0  0  0  0
    6.0283    4.9922  -19.4875 C   0  0  0  0  0  0  0  0  0  0  0  0
    3.8102    3.7251  -19.3198 C   0  0  0  0  0  0  0  0  0  0  0  0
    6.7753    3.7195  -19.0548 C   0  0  0  0  0  0  0  0  0  0  0  0
    4.5936    2.4199  -19.0128 C   0  0  0  0  0  0  0  0  0  0  0  0
    6.0795    2.4070  -19.5309 C   0  0  0  0  0  0  0  0  0  0  0  0
    6.1978    2.0897  -21.0952 C   0  0  2  0  0  0  0  0  0  0  0  0
    7.6774    4.6535  -23.4047 C   0  0  0  0  0  0  0  0  0  0  0  0
    6.8893    3.6369  -22.6903 N   0  0  0  0  0  0  0  0  0  0  0  0
    5.0761    2.6396  -21.8761 N   0  3  0  0  0  0  0  0  0  0  0  0
    4.6363    4.3977  -23.4342 N   0  0  0  0  0  0  0  0  0  0  0  0
    8.5909    2.5707  -21.4781 O   0  0  0  0  0  0  0  0  0  0  0  0
    2.1327   -2.7301  -17.0524 Cl  0  0  0  0  0  0  0  0  0  0  0  0
    7.1941   -1.6163  -23.8531 H   0  0  0  0  0  0  0  0  0  0  0  0
    5.4522   -5.9317  -18.7094 H   0  0  0  0  0  0  0  0  0  0  0  0
    6.2665   -3.2524  -22.2331 H   0  0  0  0  0  0  0  0  0  0  0  0
    6.4356   -4.3348  -20.3388 H   0  0  0  0  0  0  0  0  0  0  0  0
    7.1318    0.8104  -23.3517 H   0  0  0  0  0  0  0  0  0  0  0  0
    3.5592   -5.2280  -17.2577 H   0  0  0  0  0  0  0  0  0  0  0  0
    5.2956   -0.0340  -19.5448 H   0  0  0  0  0  0  0  0  0  0  0  0
    3.6203   -1.3185  -19.0637 H   0  0  0  0  0  0  0  0  0  0  0  0
    4.6510    5.0385  -17.8242 H   0  0  0  0  0  0  0  0  0  0  0  0
    4.0637    5.8709  -19.3037 H   0  0  0  0  0  0  0  0  0  0  0  0
    5.9846    5.0319  -20.5859 H   0  0  0  0  0  0  0  0  0  0  0  0
    6.5655    5.8747  -19.1098 H   0  0  0  0  0  0  0  0  0  0  0  0
    2.8626    3.7083  -18.7614 H   0  0  0  0  0  0  0  0  0  0  0  0
    3.5993    3.7655  -20.3986 H   0  0  0  0  0  0  0  0  0  0  0  0
    7.7909    3.7496  -19.4764 H   0  0  0  0  0  0  0  0  0  0  0  0
    6.8345    3.7052  -17.9565 H   0  0  0  0  0  0  0  0  0  0  0  0
    4.6100    2.2786  -17.9221 H   0  0  0  0  0  0  0  0  0  0  0  0
    4.0596    1.5811  -19.4832 H   0  0  0  0  0  0  0  0  0  0  0  0
    6.5831    1.5784  -19.0116 H   0  0  0  0  0  0  0  0  0  0  0  0
    7.0274    5.1944  -24.1082 H   0  0  0  0  0  0  0  0  0  0  0  0
    8.1036    5.3628  -22.6800 H   0  0  0  0  0  0  0  0  0  0  0  0
    8.4907    4.1632  -23.9599 H   0  0  0  0  0  0  0  0  0  0  0  0
    4.1277    2.3326  -21.7973 H   0  0  0  0  0  0  0  0  0  0  0  0
    3.6457    4.2778  -23.3680 H   0  0  0  0  0  0  0  0  0  0  0  0
    5.0158    5.1008  -24.0355 H   0  0  0  0  0  0  0  0  0  0  0  0
  1  3  1  0  0  0  0
  1  5  2  0  0  0  0
  2  4  2  0  0  0  0
  2  6  1  0  0  0  0
  3  9  2  0  0  0  0
  4 10  1  0  0  0  0
  5 11  1  0  0  0  0
  6 12  2  0  0  0  0
  7  9  1  0  0  0  0
  7 11  2  0  0  0  0
  8 10  2  0  0  0  0
  8 12  1  0  0  0  0
  9 10  1  0  0  0  0
 11 21  1  0  0  0  0
 12 27  1  0  0  0  0
 13 21  1  0  0  0  0
 13 23  1  0  0  0  0
 13 26  2  0  0  0  0
 14 23  1  0  0  0  0
 14 24  2  0  0  0  0
 14 25  1  0  0  0  0
 15 16  1  0  0  0  0
 15 17  1  0  0  0  0
 16 18  1  0  0  0  0
 17 19  1  0  0  0  0
 18 20  1  0  0  0  0
 19 20  1  0  0  0  0
 20 21  1  0  0  0  0
 21 24  1  0  0  0  0
 22 23  1  0  0  0  0
  1 28  1  0  0  0  0
  2 29  1  0  0  0  0
  3 30  1  0  0  0  0
  4 31  1  0  0  0  0
  5 32  1  0  0  0  0
  6 33  1  0  0  0  0
  7 34  1  0  0  0  0
  8 35  1  0  0  0  0
 15 36  1  0  0  0  0
 15 37  1  0  0  0  0
 16 38  1  0  0  0  0
 16 39  1  0  0  0  0
 17 40  1  0  0  0  0
 17 41  1  0  0  0  0
 18 42  1  0  0  0  0
 18 43  1  0  0  0  0
 19 44  1  0  0  0  0
 19 45  1  0  0  0  0
 20 46  1  0  0  0  0
 22 47  1  0  0  0  0
 22 48  1  0  0  0  0
 22 49  1  0  0  0  0
 24 50  1  0  0  0  0
 25 51  1  0  0  0  0
 25 52  1  0  0  0  0
M  CHG  1  24   1
M  END
> <OMEGA_C>
D8LYQHypor+dXLfBoNChQJPAncA8TJbBs+rHQKWfDMCrB7DB2aazQI/HgMBIrp3BlSfYQBTN1D0p
BLXBygF/QKgDkcDJuI/BuZe2QGrOv74U36PBMqyAQK1hFMDD5pfBfjG2QOsm4L/5Q6bBTkmjQM9l
LcA8ip7BRtvHQAV4Ej9gHKvBv+BdQNByTsDkhpDB/wrtQNnCMUAP063BPI2vQP6LZUBJhbXBrxmT
QCGcn0CtX5fBF+jAQO+/n0B05pvB7NlzQNdobkDrjprBV8/YQMgLbkArcJjBJf+SQIzfGkBKGpjB
povCQBENGkBSP5zB+FPGQKG9BUAEw6jB5Kz1QB3plEDTPLvBxnTcQMLDaEC8hbXBzm+iQMjuKEBI
Aq/BR1yUQNy5jEA6ebvBJnQJQQWHJEAy06vBrn0IQKi5LsA/a4jBQzbmQM/hzr8t077BNniuQMTQ
vcDbrJXB1YbIQNknUMBw3bHBKPDNQMy2isDStaLBEjjkQOd3Tz820LrBzcljQOlLp8CrD4rBsHWp
QLtvC727W5zBTrJnQD/DqL+CgpjBYtWUQHk7oUABmI7B6QmCQDveu0D8bZrBnYG/QAMFoUABsKTB
NxjSQJj9u0D24JjBGjU3QPpUbUBAF5bBGFtmQJ39cEBlMKPBr075QCr6b0Ciz5vBorTaQMIhbUDU
po/Bt4STQAzVEUBlYI/BK+iBQANjyj+y3ZvBJKnSQIIIyj+7F5jBieDgQHU4pkCp3cDBg6gBQeWb
q0C2cLXBw9kHQVU5hUDVrb/BEBaEQL1JFUDRYK7B4lJpQOrjiECn8brBB4GgQNg5o0DESMDBukXx
QB80j79GQbTBNsOmQLfRj8DBtZPBxJbcQFXUAMCTSK3BGpe7QHi9Z8As2ZrBoIzmQDqJfD5oLrTB
2r54QCCPh8BJfpDBHwWxQGLmPL4WdabBzMV2QHnHDsDtlZvBAB68QKySxr9kVKbBUhSmQMO7HsAm
357BQjPHQGxvPT+MAa3BDndNQI2WRsBLbJTB4g7iQA/CRkBTCbDBHZisQFNoV0C0cbzB2l+nQPMY
i0BNuI3BL7CzQBLANkAwf43BkKeIQA7DlEDbE5fBpbLHQAnrG0A+NZjBOk2cQPE7h0CF36HBhXeo
QMXsLUDAw6HBEcW7QIR4D0CK1azBJ0LxQAzMlUDBWr/BA93UQDVhdECi+LjBJ/ycQPakH0B7kLXB
cImXQHtVckAmpsXBR5cCQbhuSkAgrqvBDHzIP4zRMcDpeZDBXb8EQXK5vb9KsLnB3VS3QAumq8AQ
spDBM4rlQA6XQ8CoPa3BQyPcQByadMCsRJ3B5lH2QPiabD/5obnBNO5YQNYHncCnA4vBAByXQFTP
Jz4Nd6HB0TdVQI3Err+Ymp7BupGXQEJ5k0APJIbBrIrEQM9wnkANqY7Bxe3KQJLHK0AKCIfBFNeW
QJImEEAbCIzBBTVVQDYeg0D51ZXBm/yBQAtRt0CiQ5fBjHLlQGk3QEC5cpnBxvvOQPskrj+X9JfB
LeKEQLz/jEB2SKjBxTq5QA9emkA8YKPBlQuLQP/2CEBNWqDBzgLfQDYmpEAj+MXBwk3+QANPr0A+
PrrB0tcFQfmOgkBtnsLBNjeAQDIMBEBcLLbB6R51QL4VW0A4Z8fBEV+lQP14jkCQg8rBUtfZQPAR
er8SzbfBkv6lQMzgjsAU8ZXBN7HIQNQe7L9UKLDBm7i2QJJLY8B8Zp3B6kfYQHA7zz60I7bBNxuC
QOizg8DBwY/BkkyyQMCDjD36W6XBstF/QLif9r85ZpjBwxC1QE7Bqr+q1abBkrijQDyeEcAgwJ7B
XxvFQLp2dT8P1qzBEU1eQJA4NsCc+JDBk1vuQKWwRUAPJq/BSoq9QC6LWkC8YLzB0AaPQMwYWUDg
nIvBwANuQJ9UekCpfpXBgtS/QBPrXkBwJY3Bm4yDQOwKR0BLa5/BxmvOQObfLUBQJZfB59a0QBLc
S0CGL6HBUFTDQGdeIECZ36vByDgFQU0Dc0A678DBBbnnQIt8akCiHbnBq8emQJ86P0D4ULTBukSu
QJgxXEDOwMbBPoIIQUwlOEAa36rBRQEFQPbfGsC0UYnBy0foQOm/r7+A+77BabS0QLHnrcCA9pTB
Q3XKQMFiOsAKY7HBn0TSQELBdMC0I6LBx/PlQOlfiD/sDrzBASpqQP4/msBpE4rBFbOhQAVT7T6b
eJ7BFc1iQFvNc7+hQJnBh9GFQA+zf0B+n4TBLyeGQDXeFUAtPIrBA7YoQGwTdEDvKJTBuix+QGUM
n0AFw5bBLvHIQOdKkUCq/I3B/b/PQJuLQ0AxFYbBIxR0QCDTA0ALVJ7BpS1mQIehYUCzc6bB+rjw
QF+eOUC8d5jBfwnJQOAE0j/U6JXB/EG8QJghiEBRIaLBxiX+QKfeiEAgO8jB1xgSQe05jUDZg73B
P4YLQfE7M0AV7MLBrc+GQFFdP0CK9rPBJZeQQJbiR0AZVsjBvuXAQDeycUAtrczBNZbcQLThd79n
XrfB9eFaQGziNcCibJHBWFfKQADt6r9m46/BfZp9QJTy9b8TxJjBPDfbQJBi0z6JpbXB4NaAQEk4
g8D1+I/BE2azQMBBnj1tI6XBGBS3QKCIYcA+LZ3BMwK2QARWqb/2qqbBM7ajQACrEMA3v57BXQDH
QCaWdz+/d6zB/7WlQIAIjsCQ2ZXBWHDrQHMtS0Cuvq/BBN+3QLuiUkCPgrzBGZ2RQD8qWECsNovB
GZpvQDoUeUDl1JTB4f7BQD5NYUCKLo3Bw6SDQBrJR0Cg+p7Bxa3PQEVTMEDpQJfBPsW0QCc8TUBI
GaHB0ozCQIOtIEAXzKvBoFoBQUqzdkAOBsLBl7bhQF3IakAk0bnBqXWjQJd4OECnAbTBriSnQDUa
TUBwuMbBsH0HQciqR0BrnKvB/h2+QDS7v8BiGZTB17brQCKIrr/odr7BDmYiQENEJcD+5YzBHMrL
QFLEOcBXKbHB0N5fQLendL+P1ZnBz9fpQEJwiT9da7vBudtmQPfJmcB0WorBCU6iQBMB8T4cUp7B
Om7TQPhYcsDkpaHBEc6IQIBbfUDiEoTBCfuJQJRCFED744nByOoqQPGmcECyNpPB2nV9QDe3nkDt
B5bBaNTJQO66kkCpMI7Bom7TQHKdR0CMPobBPtZ0QKRIBEBOBJ7B4sZkQFByY0Bb06XBtrrxQKXj
PEBf1pjBwOLKQM+/1j8t8ZXBS9S7QJfSiEDiMaLBv/bzQCcjiEDfWMnBn34NQYP3kUBdFr/B4fcI
QbzTOEDcysPBgaaDQNA6NUDkO7PBZAuKQHgVNEAt3MfBIyO4QOgdYkAv+MzBZTTVQPD2nr/o07jB
qMekQAXXlcCyqZXBUUzFQJn5B8C4BbHB7L60QELndMDUqp3BHCrUQD67Fj5QEbfBiE2DQPUjiMBv
8I7BAwq0QF2Jar4RlaXBWICBQGwhB8BCOZjBU2q0QMZtz7+/VqfBO0+jQO4EIsD/AZ/BzjnDQIqQ
LD/jb63BclZjQKj5PcBuOZDBxQrvQNnSMUC5TazB/krHQNbaakDd87nBm1KZQOBpikBa3I3Bniqt
QPzgOkBZ64zB/up4QJewjUBu1JfB3A3GQFCwJEA0IJfBD1WVQHNqgkCDHKLB+c+oQDCcKUD2TaHB
YMXBQPAHDUDqzqvB2QsKQUgIj0CUErjBIgzuQHF+b0ClRrTB64CtQBwBM0AQZbXBhAq9QBgHjUDW
BcPBlCQHQU8FHEA0BKfBLQ8QQDfLG8Bj7ofB2UHiQBjc0L/uMcDB9juyQIdttcAXrZTBdPzFQOAn
TMBubrLBfWfOQFgehcD0zaLB/mLgQPteUT+FHL3BXlBuQKAyncA/zIjB5+6nQMERID6UGZ7BUqZn
QERIkL+pNJnBCA+GQHrxkEDBrYbBQCKzQPY3okAIe47BExbDQEFeOUBSCYbBe4eTQJaWC0CeuovB
XuRCQMfMbkAf8pbBCH9gQBaZrkCWfZjBUa/gQKwiUkBPC5jBfNPSQLGyxj+NZJbBy8h+QCKyg0BD
/KjBNkWvQObDmUA3QqPBa0iOQFOK+D+cJqDB6VsFQV+bpUCfZ77BhjoRQdLFoECyX7HBtsQVQZQ4
cEArRrvB7zqQQH5JJEAnDbjBvHugQABTiUDzgsbBIznSQNO1oUA/D8bBf4HkQPu1pr9+4bbBA2yj
QM/vlMBe4ZTBns3RQKLbCsAzXq/BK2i3QCehc8D7W5zBSCjgQKEWuD1Iv7XBV7J6QLgDiMCOyY/B
0Ea3QE8Jf76nZqXBTBt+QHNtCcBhpZnBO3+6QIaz0r/LoqbBL3ClQJLSIsBTzJ7B/jXKQM+xIz9z
16zB8FZWQHrKP8DTLJLBxOPsQNvVN0AsL7DBu1GyQOQoYEB9C7rB+16SQNXAi0B6Fo/BhsDCQPCa
jUCjY5HBltd/QNzSPkBk4JHBebrMQPWOgUDiE53BiF2JQEXUKEBJoJ3BVca6QMOsKED33Z/BqyrF
QJv3CkBpxKvBu8H5QHAtkUAwEL/BbO/dQNcVb0BlDbjBg2+jQNEwJ0D+QbPBzciZQN6jg0Bs7sHB
7gEJQc1fLkASNq3Bpk/vPxOoH8Db6ovBFUf2QBt72r8VjL3B3FCxQJS3s8BnC5PBbUHVQC1AT8Cw
RbDBX5LUQIvjg8A9QKDBb6jtQCpDPz8At7vBpS9cQJXfnMDtDIrBpAKmQC/SGz7Jo57Bvv5hQIb5
l7/Ed5vBGeeMQGw6kkDzi4bBugiCQNc1pEAs7JPBIFDOQH9JrkDe3I/BqVXTQJI1bkBOCozBQKKO
QJJBDkDVrIzBKDA6QOxhP0DMmZDBEAq+QMtZmUBXbKLBDp7vQCOLgUCwPp7B96Z4QFET0j9gbJ/B
R+pzQLyqWECwzqLBUqTJQAdd9D9MZ5rBO+/lQBM8pECmjsTBRsUGQUGzpkBqKbrBcE0HQaqEd0AL
tsPBH0eFQH7MEUA6LbPBUZd1QNWFeEAIscLBsiCnQCkWmUDV18bBMcj1QNNvlb/1PLPBviGLQGjx
l8AAoJrBAtrfQOq4A8CYeqzBOGmhQBsSeMD3faHBdO3qQKywST4UXLPBP1x0QIOuiMB46JDBAo6y
QG2kbL5GW6bBh8iVQN7cAsCc4ZTBcRC+QDXny79f86XBP9WmQN/5IMDZsp7BXAnKQDAfMT/SoazB
IxZ/QPrcOsCRCI7B9yrlQO26Q0AHd6/BxSOyQCZhU0DSg7zBGvijQLIeikAg8o3Ba1GwQOXaNEDx
gY3B0QKHQGmAk0BoqpfBcFrGQFeXGUCZ85fBeKacQK68hUCbM6LByfOoQEYBK0AC4aHBw2S+QKVF
DEAWsKzBECX3QJX0k0ACqb7BYKPZQOfRcEA0lbjBfk+hQOTOG0DFyrXB+dmeQD+6bUCq+8XBLbQD
QUbrR0DusarBcHJVQMfrFMBj9YHBUIcHQdguxL/8WrjBTAiHQK4fucA70JzB7dnoQBBwRsCARqzB
AGyuQEPqh8DO7KjBqsf7QJB1Xz9xnrjBEyFSQDElnsDUqIvBzVmXQCXP6j1DzaHBteKZQGgzgb+S
pZLBU8CSQPujkkBqkobBkj7BQKWAnUDtko7B1FLGQMlJKkB0xIbB8EKTQNQzDkDrWozBSJFRQOPX
gUDtvpbBr1eAQG4KtkDV+5fBekXkQPXzPUDj3ZjBEaXNQAOUqT+Xj5fBq2eGQNk/i0B/4ajBaMK5
QN/umEDvZ6PBSVuLQMjjBUDiy6DBASbmQJwVokBZgsXBcI4BQZCirUAXcLnBUB0JQeG5gECYksHB
Hr6EQDjt/z+aurbBlEqCQAwuVkD2EcjBTYqtQKEcjECAtMrB

> <OMEGA_E>
MY6IP2DXiT+wR3c/VCd9P9iCgz+miYc/7wGPPw==

> <OMEGA_NBR>
     65624

$$$$
50215995
  -OEChem-04172616093D

 46 49  0     1  0  0  0  0  0999 V2000
    6.7357   -0.2877  -22.6904 C   0  0  0  0  0  0  0  0  0  0  0  0
    5.2882   -4.4561  -19.0417 C   0  0  0  0  0  0  0  0  0  0  0  0
    6.2462   -1.3296  -21.8962 C   0  0  0  0  0  0  0  0  0  0  0  0
    5.7733   -3.3935  -19.8230 C   0  0  0  0  0  0  0  0  0  0  0  0
    6.5822    1.0429  -22.2785 C   0  0  0  0  0  0  0  0  0  0  0  0
    4.1279   -4.2847  -18.2643 C   0  0  0  0  0  0  0  0  0  0  0  0
    5.4327    0.2960  -20.2708 C   0  0  0  0  0  0  0  0  0  0  0  0
    3.9345   -1.9829  -19.0483 C   0  0  0  0  0  0  0  0  0  0  0  0
    5.5974   -1.0459  -20.6763 C   0  0  0  0  0  0  0  0  0  0  0  0
    5.0978   -2.1498  -19.8352 C   0  0  0  0  0  0  0  0  0  0  0  0
    5.9126    1.3626  -21.0668 C   0  0  0  0  0  0  0  0  0  0  0  0
    3.4537   -3.0480  -18.2659 C   0  0  0  0  0  0  0  0  0  0  0  0
    6.4510    2.9092  -19.1873 C   0  0  0  0  0  0  0  0  0  0  0  0
    4.2508    3.4607  -18.9230 C   0  0  0  0  0  0  0  0  0  0  0  0
    7.0544    4.4936  -23.2923 C   0  0  0  0  0  0  0  0  0  0  0  0
    5.6442    4.0323  -22.8759 C   0  0  0  0  0  0  0  0  0  0  0  0
    7.5892    4.0876  -21.9066 C   0  0  0  0  0  0  0  0  0  0  0  0
    6.1348    4.0236  -21.4123 C   0  0  0  0  0  0  0  0  0  0  0  0
    5.7362    2.8030  -20.5217 C   0  0  1  0  0  0  0  0  0  0  0  0
    5.6583    3.2973  -16.8337 C   0  0  0  0  0  0  0  0  0  0  0  0
    5.5000    3.3684  -18.2926 N   0  0  0  0  0  0  0  0  0  0  0  0
    4.3292    3.0172  -20.1575 N   0  3  0  0  0  0  0  0  0  0  0  0
    3.0893    3.9315  -18.3326 N   0  0  0  0  0  0  0  0  0  0  0  0
    7.6038    2.5742  -18.9371 O   0  0  0  0  0  0  0  0  0  0  0  0
    2.0199   -2.8325  -17.2960 Cl  0  0  0  0  0  0  0  0  0  0  0  0
    7.2330   -0.5090  -23.6232 H   0  0  0  0  0  0  0  0  0  0  0  0
    5.8058   -5.4040  -19.0380 H   0  0  0  0  0  0  0  0  0  0  0  0
    6.3652   -2.3537  -22.2177 H   0  0  0  0  0  0  0  0  0  0  0  0
    6.6655   -3.5265  -20.4169 H   0  0  0  0  0  0  0  0  0  0  0  0
    6.9793    1.8382  -22.8919 H   0  0  0  0  0  0  0  0  0  0  0  0
    3.7539   -5.1022  -17.6657 H   0  0  0  0  0  0  0  0  0  0  0  0
    4.9325    0.5120  -19.3383 H   0  0  0  0  0  0  0  0  0  0  0  0
    3.4147   -1.0362  -19.0482 H   0  0  0  0  0  0  0  0  0  0  0  0
    7.4868    3.9220  -24.1268 H   0  0  0  0  0  0  0  0  0  0  0  0
    7.1308    5.5698  -23.5066 H   0  0  0  0  0  0  0  0  0  0  0  0
    4.8457    4.7593  -23.0853 H   0  0  0  0  0  0  0  0  0  0  0  0
    5.3531    3.0457  -23.2656 H   0  0  0  0  0  0  0  0  0  0  0  0
    8.1195    3.1241  -21.8876 H   0  0  0  0  0  0  0  0  0  0  0  0
    8.2044    4.8545  -21.4133 H   0  0  0  0  0  0  0  0  0  0  0  0
    5.8583    4.9629  -20.9110 H   0  0  0  0  0  0  0  0  0  0  0  0
    4.7696    3.7252  -16.3466 H   0  0  0  0  0  0  0  0  0  0  0  0
    5.7735    2.2469  -16.5283 H   0  0  0  0  0  0  0  0  0  0  0  0
    6.5505    3.8664  -16.5336 H   0  0  0  0  0  0  0  0  0  0  0  0
    3.5480    2.8506  -20.7591 H   0  0  0  0  0  0  0  0  0  0  0  0
    2.2354    3.9487  -18.8529 H   0  0  0  0  0  0  0  0  0  0  0  0
    3.1047    4.2541  -17.3862 H   0  0  0  0  0  0  0  0  0  0  0  0
  1  3  1  0  0  0  0
  1  5  2  0  0  0  0
  2  4  2  0  0  0  0
  2  6  1  0  0  0  0
  3  9  2  0  0  0  0
  4 10  1  0  0  0  0
  5 11  1  0  0  0  0
  6 12  2  0  0  0  0
  7  9  1  0  0  0  0
  7 11  2  0  0  0  0
  8 10  2  0  0  0  0
  8 12  1  0  0  0  0
  9 10  1  0  0  0  0
 11 19  1  0  0  0  0
 12 25  1  0  0  0  0
 13 19  1  0  0  0  0
 13 21  1  0  0  0  0
 13 24  2  0  0  0  0
 14 21  1  0  0  0  0
 14 22  2  0  0  0  0
 14 23  1  0  0  0  0
 15 16  1  0  0  0  0
 15 17  1  0  0  0  0
 16 18  1  0  0  0  0
 17 18  1  0  0  0  0
 18 19  1  0  0  0  0
 19 22  1  0  0  0  0
 20 21  1  0  0  0  0
  1 26  1  0  0  0  0
  2 27  1  0  0  0  0
  3 28  1  0  0  0  0
  4 29  1  0  0  0  0
  5 30  1  0  0  0  0
  6 31  1  0  0  0  0
  7 32  1  0  0  0  0
  8 33  1  0  0  0  0
 15 34  1  0  0  0  0
 15 35  1  0  0  0  0
 16 36  1  0  0  0  0
 16 37  1  0  0  0  0
 17 38  1  0  0  0  0
 17 39  1  0  0  0  0
 18 40  1  0  0  0  0
 20 41  1  0  0  0  0
 20 42  1  0  0  0  0
 20 43  1  0  0  0  0
 22 44  1  0  0  0  0
 23 45  1  0  0  0  0
 23 46  1  0  0  0  0
M  CHG  1  22   1
M  END
> <OMEGA_C>
lYrXQGpIk74JhrXBzzipQGSYjsBuVZjBmuDHQKQvqr9+K6/Bsb64QCAvWcCZlZ7BIaHSQPp8hT9Y
OrLByheEQGUcicA8HZLBstitQIaRlz6bKqLBEs97QKrQ/b/UYpjB+h2zQFPfhb8gaaXBDCGjQECW
CcB0rp7BtzO9QBZprj/iiKjBrAldQOURQ8CdIJLB6G7OQDswOkCHf5nB8AaIQCx8XUBmYpfBUb3h
QM3Lj0C0VrrBVJ20QH0IgUDhAbfBmNryQLnNgkC2QK/BqlDEQBzBgEBwTKvBFo+3QCBkM0B8LKTB
fRC1QA0HU0Bhq4bBsv+vQFeUV0BCV5LB8IiKQJEaQUCaQqHB6LZFQKide0AwqZLB/FHzQEzAJEAj
f5fBTUYBQDBINcAeXorB23TnQD9OAr9X/LzB3si5QH3trMC5TZjBh6/LQIOjFsDkvbHBwUvVQBKy
YcDNVaPBElbfQIpI6z+WIrfBd0BwQFZFo8BvU43Ba9edQBIQAz/HtJrBM4taQC+jhL+rYpjBgJPv
QGoCe0CmA8HBgS/kQDI8skCCDbzBTRCbQIlMmECzrrjB7kyrQB7sQkDzH7rBSekBQXbwR0C3Ga/B
VkUDQU5Ym0B/TqvBQHe7QLLPnkDTSafB4aCYQDZqbkDixYLBtcC4QH7MD0DpOYTBuZ3RQDFzd0Df
RITB8RFjQHNvNkCWEqbBhREPQMC3fECl0pbBArRGQIYhiEDwFovB9azKQIhDo77EPLbB7JtyQBon
bMBTeJPBtwa5QFqZq78hHbDBwEF5QEfQH8D0dpnBTrPLQMfLez9VNLLBiuucQCuxkcBoeJLB9JWm
QEIThz7TE6LBruvGQADlQ8D7lJ3BXsKoQPlgiL/F3KXB92OjQLAzDcDcvJ7BqD+4QFvdqD9US6jB
GB/EQP3XhsDJU5fBnMjLQORxMUCGsJjBANyIQNkna0Aq45fBxpbyQMAFhUAxm7jBFgvCQPkMgkDO
ZbbBxO37QG5jc0As5KzBMh7MQNwtfECPU6rBopW3QPrfMEBnv6PByjqyQMOBYEBUjIbB+QuvQCbP
XECJQ5LB3EiLQB0KSkDkiaHBkplKQGisikAg5pPBzsvtQEDjEEAc+JXBhCjyQIFLpcCDNJXB/4fX
QJ8HCL88E77Bwtk2QENofMAHoo/B1tC3QDYyFsD+PLPBUbNDQCqo6L/2/5nBTLLbQMik4D9dvbbB
AhKaQH0Xr8AX/I3BZY+XQJyu9D7SfJrBrJrkQMaXNMB3kqHBIHL+QECXWkAvZL7Bm4T9QBUepUCs
+LrBaOevQHHtnkA6lLjBQ3SyQEt7S0CH4rnBdGEEQWODMkDXtqvBujgIQUn1kEAGu6jBOOTFQKu1
nEBIRqbBVJ+XQEVkg0CuVoPBKqSwQAJKH0AcQoPBqtHQQFs0fkDPRYTBu2plQCkaQ0CZlqbBlm0W
QFgXjkD9c5jBT2tLQPl8lkABd4zB/kbtQLCXsL6y4LDBMoQ8QP5SO8Cfj5XBYMfVQPV4rb9c2KvB
LPBmQKIN9L+DOJvBHifkQP6Ifz8Osa7ByjdnQFVHhMCRQpPBqT+rQB4Vqj4ZkaLBaIuzQHJKU8CR
N5zBxju1QNn/gr8kdqTBAVyeQGKmBcA5mp7B83TBQFGdrj8c86fBAD+eQLI2isCVmpbB3GHQQMKF
W0AD/JzBkyCKQKL0W0Bto5fB9GbQQGoEgEAs97/B3IGtQJJgRUAJUbvBZQnhQLkXiECCi7TBbk+1
QBKRcECfQbDBLBa1QDYLNkAK9qXBMgfBQLDhiUA+YYrBSfGzQFx6dUDDD5XBrj2JQI5aPEAyaaHB
GQNNQDDuY0CBBpHBYoL3QOgJYUDLt5zBAAi5QJHnucBnyZPBDTYDQcKxGb8IcbbBGF72P781MsAH
+5LB6oXcQAcMGcA7m63BiQhGQP+ne7+v/ZzBhdf3QLCb4j9iMbLBy5JGQIZXncBn7o7BAVOSQM2y
FT/V7pzBHUrUQDqLXMD8uZ7BpFrnQChEX0BzO8XBBQ3EQIG7nEDzAsTBZ12NQBrgT0C/p77BTjC1
QNq0AECulLvBr3L8QJ8daEASObLBvy7oQHjOqUDhwLLBIlCfQEJpk0DiKK/BfXCkQOAekkBarYXB
J/rSQFfvYECuQ4bBpHHVQN5apkBOOovByShdQLroKkCqQqXBGH4TQEj/UEBTnZPBDltTQJ6XfECZ
r4nBy5biQBFmgr8gXrbBxuCmQD5pkMBVp5TB2LvQQIBY97/MD6/Bx7i4QHIiaMDtMJzBxAnbQBTD
uD6/NrXBdsh/QJNVhsCRl4/BlOCuQEwPtr18kqXBtI54QHMkB8ClopnBipi2QP9avL+ImKbB1Jaj
QJKoGsD6wZ7Bdn3BQG0GWD/ys6zBuUZVQOW7P8AvFJLBEX+iQIA+OkDMEbXBx9zkQCsIeUA+D7TB
iEShQMTqa0Bf2JHBNZOgQGV/hkCcd53BVYi7QBKDIECaNpbBuRiiQOi4LUBuyKDBZkS6QIvhFkAH
aavB+ji1QBVckkD/mcPBJTm9QIKFeECFYrnB9OfjQOVxQ0CW8KvBtAoEQdCAlUAwvLbBafN9QCDg
JEAHR7jBmOzoPwNjJsDo14vBxSj2QM1ZsL9W4rzBnyC3QFfyrcDqv5LBZwPXQMBKP8BV7K/B5KrW
QJrVd8AqCKDBBNToQLgdhz8P3LrBuppkQMQanMAqzonB8lyaQB4EiD5LOZ/B2opXQE7FmL9mjZvB
VEqyQBaaikCTIIzBxcqBQCSfWkBEjY7BVjqDQBqVl0DCyJ/BkK28QAl4mUCX1J/B5ineQGErLEAY
0JbBbOe1QCLcxT8UMJLBoVGCQEePD0BCc6DBJiTPQKJbqUBOJsXBYga0QOB5dUBzHsrBNYSWQDR7
o0CrKsPBYRL8QOooOkBg06bBwGwRQaS8k0B2X7LBQ1MDQdQ9qUCPBb3B7BvEQGXaib8c8bnBIduk
QPn7lsCE9pbBRaa3QE6h/r8S+bHBx/OwQJ1UdMA9E5/B+9rGQNBFlz61mbfBRyqJQK2eicAEuo7B
dGWxQGtXIL62N6XBlYWFQHHxBMB0sZbBBkeuQPlzxL9LhafB+GyhQKU0H8CgAp/Br3m8QMfBRj+x
Qa3BsQFzQAG5PsDZmI7BMaW0QB3oR0DfabTBn6f6QI+qYEA0u6/BlTyYQO4+dkBWKJPBQambQK1G
hkC0H5/BxK63QLBELUAFppXBc7CiQMHEK0Ap9qDBgPK/QNGwEUDLq6rBUxfeQJ7Ul0D6/7/B5NXY
QNLteEBbgLbBLEntQKk0J0DSzajBcxISQQFdgEA9C7DBw3iSQCnuSECUPbnBTPUtQIBwHcBQbITB
9ZfLQNI3t7/Q4sHByNWwQExmt8CJDpfBHzq1QG2gQsAy17PBPi3GQCuThMCxYKXB+fLQQEj+fD+2
ur3BeuB/QDnGn8BvgojBujirQE3eQz5fL53B5dRyQIdriL/RkZbB836kQAPEk0AArI3BwaBwQNGO
YUANgJDBOZZ8QKlbk0AFtaLBMwK3QNW3mkCSQ6HBWK/ZQChzP0BXhpXB6ROzQFSO5T9n45DBj12E
QOYECEBQ+aDBpYL9QFSop0DStL/BKvzbQN8UhEDsQ8fBy7HEQM0ysEBwIMDBX23/QKCPDUDEC6PB
XfYcQSwXbED5x6rBwxkWQa01lkAQiLXB

> <OMEGA_E>
1isVPwKCNj+kwVo/vveBP9OChT8=

> <OMEGA_NBR>
     69917

$$$$
50216010
  -OEChem-04172616093D

 42 45  0     1  0  0  0  0  0999 V2000
    6.5547   -0.2759  -22.7241 C   0  0  0  0  0  0  0  0  0  0  0  0
    6.0675   -1.3170  -21.9304 C   0  0  0  0  0  0  0  0  0  0  0  0
    6.4826    1.0440  -22.2677 C   0  0  0  0  0  0  0  0  0  0  0  0
    5.3498    0.2954  -20.2403 C   0  0  0  0  0  0  0  0  0  0  0  0
    3.9420   -2.0829  -18.9860 C   0  0  0  0  0  0  0  0  0  0  0  0
    5.7870   -3.3989  -19.8685 C   0  0  0  0  0  0  0  0  0  0  0  0
    4.3211   -4.3980  -18.3435 C   0  0  0  0  0  0  0  0  0  0  0  0
    5.4880   -1.0458  -20.6733 C   0  0  0  0  0  0  0  0  0  0  0  0
    5.0687   -2.1773  -19.8241 C   0  0  0  0  0  0  0  0  0  0  0  0
    5.8600    1.3573  -21.0307 C   0  0  0  0  0  0  0  0  0  0  0  0
    3.5623   -3.2127  -18.2451 C   0  0  0  0  0  0  0  0  0  0  0  0
    6.4500    2.8649  -19.1320 C   0  0  0  0  0  0  0  0  0  0  0  0
    4.2469    3.4421  -18.9447 C   0  0  0  0  0  0  0  0  0  0  0  0
    5.9072    4.0570  -22.8803 C   0  0  0  0  0  0  0  0  0  0  0  0
    5.8907    5.1703  -21.8320 C   0  0  0  0  0  0  0  0  0  0  0  0
    6.5114    3.8066  -21.4823 C   0  0  0  0  0  0  0  0  0  0  0  0
    5.8057    2.8046  -20.5063 C   0  0  1  0  0  0  0  0  0  0  0  0
    5.5612    3.1983  -16.7888 C   0  0  0  0  0  0  0  0  0  0  0  0
    5.4118   -4.4736  -19.1402 N   0  0  0  0  0  0  0  0  0  0  0  0
    5.4103    3.0964  -18.2474 N   0  0  0  0  0  0  0  0  0  0  0  0
    4.4084    3.1988  -20.2285 N   0  3  0  0  0  0  0  0  0  0  0  0
    3.0813    3.9162  -18.3605 N   0  0  0  0  0  0  0  0  0  0  0  0
    7.6149    2.6070  -18.8511 O   0  0  0  0  0  0  0  0  0  0  0  0
    2.1472   -3.1563  -17.2281 Cl  0  0  0  0  0  0  0  0  0  0  0  0
    6.9871   -0.4903  -23.6903 H   0  0  0  0  0  0  0  0  0  0  0  0
    6.1350   -2.3362  -22.2814 H   0  0  0  0  0  0  0  0  0  0  0  0
    6.9070    1.8372  -22.8653 H   0  0  0  0  0  0  0  0  0  0  0  0
    4.8544    0.5106  -19.3051 H   0  0  0  0  0  0  0  0  0  0  0  0
    3.3824   -1.1620  -18.9146 H   0  0  0  0  0  0  0  0  0  0  0  0
    6.6585   -3.4726  -20.5021 H   0  0  0  0  0  0  0  0  0  0  0  0
    4.0247   -5.2640  -17.7702 H   0  0  0  0  0  0  0  0  0  0  0  0
    4.9691    3.5613  -23.1705 H   0  0  0  0  0  0  0  0  0  0  0  0
    6.5659    4.1376  -23.7575 H   0  0  0  0  0  0  0  0  0  0  0  0
    6.5369    6.0516  -21.9571 H   0  0  0  0  0  0  0  0  0  0  0  0
    4.9400    5.4753  -21.3701 H   0  0  0  0  0  0  0  0  0  0  0  0
    7.6106    3.7879  -21.4451 H   0  0  0  0  0  0  0  0  0  0  0  0
    4.5789    3.3848  -16.3302 H   0  0  0  0  0  0  0  0  0  0  0  0
    5.9763    2.2582  -16.3967 H   0  0  0  0  0  0  0  0  0  0  0  0
    6.2417    4.0283  -16.5479 H   0  0  0  0  0  0  0  0  0  0  0  0
    3.6878    3.2706  -20.9180 H   0  0  0  0  0  0  0  0  0  0  0  0
    2.2775    4.1001  -18.9263 H   0  0  0  0  0  0  0  0  0  0  0  0
    3.0449    4.0740  -17.3737 H   0  0  0  0  0  0  0  0  0  0  0  0
  1  2  1  0  0  0  0
  1  3  2  0  0  0  0
  2  8  2  0  0  0  0
  3 10  1  0  0  0  0
  4  8  1  0  0  0  0
  4 10  2  0  0  0  0
  5  9  1  0  0  0  0
  5 11  2  0  0  0  0
  6  9  2  0  0  0  0
  6 19  1  0  0  0  0
  7 11  1  0  0  0  0
  7 19  2  0  0  0  0
  8  9  1  0  0  0  0
 10 17  1  0  0  0  0
 11 24  1  0  0  0  0
 12 17  1  0  0  0  0
 12 20  1  0  0  0  0
 12 23  2  0  0  0  0
 13 20  1  0  0  0  0
 13 21  2  0  0  0  0
 13 22  1  0  0  0  0
 14 15  1  0  0  0  0
 14 16  1  0  0  0  0
 15 16  1  0  0  0  0
 16 17  1  0  0  0  0
 17 21  1  0  0  0  0
 18 20  1  0  0  0  0
  1 25  1  0  0  0  0
  2 26  1  0  0  0  0
  3 27  1  0  0  0  0
  4 28  1  0  0  0  0
  5 29  1  0  0  0  0
  6 30  1  0  0  0  0
  7 31  1  0  0  0  0
 14 32  1  0  0  0  0
 14 33  1  0  0  0  0
 15 34  1  0  0  0  0
 15 35  1  0  0  0  0
 16 36  1  0  0  0  0
 18 37  1  0  0  0  0
 18 38  1  0  0  0  0
 18 39  1  0  0  0  0
 21 40  1  0  0  0  0
 22 41  1  0  0  0  0
 22 42  1  0  0  0  0
M  CHG  1  21   1
M  END
> <OMEGA_C>
PcDRQBBIjb4My7XBNSnCQOCUqL9zca/Bg3HPQEOhhT9EJLLB4DGrQCQ5lz4p7KHBdUp8QIpOBcBQ
45fBby+5QCaHWcCy8p7BYUaKQJe8jMBqv5LBcp2vQF3dhb/bYqXBlzKiQJhYC8DXl57BLYW7QGG6
rT/gPqjB8vtjQJqcTcDo9ZHBu2bOQPRZN0BfDpnB+uaHQJ5LXEC2jpfBYwe9QPvSgUDGCrfBOoC8
QEJzpUDkp67BmF3QQFKfc0Cp26vB8Me5QER/M0DcDKTBZvWxQIKxTECIT4bBXS2tQPInj8AaH5nB
xSCtQOQqRkCV+pHB/xGNQOK5TEDf06HBjjNFQJCiekBe4pLBb63zQEzZJkD7zpbB2WsJQIgBSsAV
04nBGZbfQAEP+77Hhb3BGVLEQLWDFcBoQLLBJAbdQAUp6z8i7LbB/VabQN21Aj/icJrB23lYQH27
lL8bUZfB1xLVQEc+XsBMBKTBpsqAQKRyqMBPKY7BkwKfQObrY0AyXbnB8xvSQINnhEBYD77BDC7R
QBynwUAuqK/BrRSeQIw1r0AJ9qrBW4rzQEJtckCZj6vBq4aSQNmgWEAupILB1T2/QMqFEEBoLIPB
WbzHQL/ngEAdYoTB3ARsQLBRUUAfWKfB4sERQL4zg0ADaZfBMd9CQAJegkBn/YrB3kTVQNxOg74s
r7XBO73FQKexo79DH6/BpI3RQJaIij+NhLLB55quQJ5+wj4AE6LBxWS1QLCgVMBWlp7BQmd6QBpG
779g1ZfBzRCAQKMXg8CK8JHBVR6yQJwyeL/QRKXBLIahQLW6A8DFcZ7B8z++QC42tz//o6jB+XCk
QDQti8C/SpjBmSTQQMb+PkDjnJnBbJWIQCJlWUCXepfBsuvmQBsWiUB8FrTB8jq3QGpIhUD4ZLfB
/+TDQE+AhEC/i6vBq8K5QFqHOED7ZqTBEje1QMb+T0DhtIbBHVtaQC8YOMDEyJHBd4SwQOSBVkDD
YZLB2ZCMQBL/REC+nKHBns1DQB4JbEARlZLBoM30QO3OKECqepfBxYy8QNp6vcBTXZjBIjPkQKjV
/77COr3BisbIQGXFE8AEm7HBRZjdQNRH7j/nr7fBp8OfQDv+HT9+gZrB5E/RQE+5X8DCfKPBq95b
QEmcZr/rm5fBlO9lQO2InMBTGI3BHh79QEv0XEB8orXBhej3QJ+sp0AFDbXB8VemQJgroUBvtrrB
iY2rQD3yT0DmS7vB4eK8QKXBokBNZ6fBm76XQACUZkApz4LBMBK7QBXkDEAHfITBJFvQQH+id0Dm
FoTBeVVoQBTMPkDtuqbBfIwNQEdiakAd0pbBKDxCQDcje0CIz4rBfmjVQG4aN78wT7fBJEDGQKlx
1b8286/BDjvQQCpfKD+dQbXBwuGsQLCoAz7SZqTB6yx9QJ0V+7/+75fB6qC2QHAZYMB0bp3BXvmG
QGcAhcC16Y/B2uOxQPgioL/paabBrimiQGO0D8A+iJ7BNhm7QNs6jD/33KvBod9hQE53O8C4kJDB
1zSwQObiWUDTr7PBG6TvQCOfgEBV06vBD2+YQC71NEB6bJXBHWSQQBy2hUDA8ZrBCQCRQFbNOEBH
mKHBLJ62QFItJkCXfanBWFvdQJ3nokDPrr3BKQ2pQBmNjcBfQpbBs+zSQGGmiECwP7TBjM3fQOKc
RkAnYqXBiGULQQnVlEBlR6rBxsmSQJbeUkATILrBrdAJQIRtJ8DiU4jBJBPlQGQMhb+Mj77B3SzK
QBQiLsCGlrHB9HLcQLQRsT8d4brBy/WdQLw85z6tDJ3BU1NcQOfdgb8TkJjBMczRQAG+bsCpcqLB
+uh4QBLNnMAKOorBbWG4QHmsJUDSQpLBlrZ/QFQ1GUA0KpDB7CBkQIfIlkDZn5nBmJaqQBoEnUB3
uJvB7fpiQDQLIkCSS6TBakL6QLvntUDKDLzBVh/jQAnqjUAwmcTBkXjCQPZ/uEClcr/B98btQKzD
MkCyoJ7BymsUQcZVjUC+8aPBmHMQQW/dqkBJgK/BG8XVQIMFOr8bYLfBHMPGQPpc17+LB7DBrkPQ
QLoJJT/tULXBGtasQPDU2T2jfKTBV3u3QHXIYMCpep3BLAd+QASK/r9K+ZfBGzuEQJqNgsDAmI/B
u0CyQDy5or+gfqbBxMiiQBMfEcDHmZ7BJeu6QDjUiT+Q76vB+/6nQJyZjcAE5ZXBZHCvQElsWEBR
xLPBr7DuQOlvgEAx5qvB1MWXQPEaM0AggZXBdWWPQA+7hEBJBZvB2FaQQCfjNkALraHBEwu2QHbg
JEAOkanBTCrcQJyDokDpw73B3ehgQIV9OMBsspDBwu3RQH8ziEAfVLTBAhffQNr9RUD+dKXB9NQK
Qfz7lEBUWarBJRSSQNXXUEA8NrrBIQfBQCodv8B+RpTBOZLlQH/8hb/Bnr7BKunKQG8HL8CArLHB
TGTcQL/Trz+K7LrBxrSdQFbb2T6BJp3Bi9LSQBKQcMDVYaLB9utdQNzBhL9FwZjBHLNwQNEhmcDR
xInBVsa3QO9PJEAQV5LBGJl+QJbyFkDQP5DBUN5hQHaPlUB4s5nB8WipQCI+nEC5ypvBZtlhQAGk
H0B8YaTBHej4QKPBtUCwIbzBfh7iQIyNjUAprcTBPxvBQNvht0Coib/BnyPtQEFhMkBCs57BmeET
QXqmjUDmAqTBPcwPQaoYq0BTkq/BOtTfQCAGZL/5Z7bBiJDKQMgv7b8oF7DBFMrZQADr9z4QVLTB
2PGkQADikb0a2KbBAFKaQACY578s4pTBgDyYQEg9bMBkM6HBOAqIQJQqgcAPBY/BhH+uQJhztr9N
6KfBEDifQDxgFMDSYp/BUAK8QHAAZj98bazBcL6OQAg9K8D1o4zBfNqqQIgASEDLobPBnHjqQPwm
eEBv3azB0JmaQDAkEkAOLZXBWPiVQOi8b0DHwpjBBPyRQPh9J0COBaHBIpe1QCaTF0ACoqnBADTU
QEAml0CxE7/BGruMQHqakMCoHJnBeIfLQEZkgUAI6bTBVKreQNqeO0D/OqbBSC4IQbTIkkAU+qvB
JDmNQG6bOEBkxLnBTGuKQPiGBMAoGn/BabD0QJJHmr+O0bzB667PQGwFOsC4frHB0NbrQLM9nD/V
wLjB3D2LQKTxbj6Im6HBh4CfQFC0Qr8pR5PBVh2cQKPogsArK6nBAet9QEfJlsBHrIjB/wy6QFDB
8j/vt5LBZ3SBQBA+6D8nS5DBoAlzQLVgikDebZbBaB2yQIUBjUCl2pjB5W9iQP8/GkBLx6PBLJzv
QErjrEAFGb7BY6PbQFR7fkAlQ8XBENy3QBqjqUDVf8HB0jzvQLDXKEBNzZ/BplASQdBxjEAV/qXB
+rkLQTCFqUDnUbHB

> <OMEGA_E>
jC0bPxIDHj+iZos/sbOOP0WDlj8=

> <OMEGA_NBR>
     73940

$$$$
50215968
  -OEChem-04172616093D

 49 52  0     1  0  0  0  0  0999 V2000
    6.7551   -0.2606  -22.6972 C   0  0  0  0  0  0  0  0  0  0  0  0
    5.3542   -4.4452  -19.0393 C   0  0  0  0  0  0  0  0  0  0  0  0
    6.2655   -1.3172  -21.9222 C   0  0  0  0  0  0  0  0  0  0  0  0
    5.8180   -3.3880  -19.8406 C   0  0  0  0  0  0  0  0  0  0  0  0
    6.5864    1.0612  -22.2639 C   0  0  0  0  0  0  0  0  0  0  0  0
    4.1917   -4.2816  -18.2620 C   0  0  0  0  0  0  0  0  0  0  0  0
    5.4227    0.2806  -20.2825 C   0  0  0  0  0  0  0  0  0  0  0  0
    3.9540   -2.0002  -19.0841 C   0  0  0  0  0  0  0  0  0  0  0  0
    5.6040   -1.0516  -20.7048 C   0  0  0  0  0  0  0  0  0  0  0  0
    5.1187   -2.1592  -19.8688 C   0  0  0  0  0  0  0  0  0  0  0  0
    5.9009    1.3557  -21.0579 C   0  0  0  0  0  0  0  0  0  0  0  0
    3.4942   -3.0579  -18.2838 C   0  0  0  0  0  0  0  0  0  0  0  0
    6.4438    2.9186  -19.1823 C   0  0  0  0  0  0  0  0  0  0  0  0
    4.2523    3.5054  -18.9194 C   0  0  0  0  0  0  0  0  0  0  0  0
    7.5398    4.6742  -23.2386 C   0  0  0  0  0  0  0  0  0  0  0  0
    6.2698    4.1317  -23.9104 C   0  0  0  0  0  0  0  0  0  0  0  0
    7.5323    4.1332  -21.8065 C   0  0  0  0  0  0  0  0  0  0  0  0
    5.2464    3.9382  -22.7844 C   0  0  0  0  0  0  0  0  0  0  0  0
    6.0405    3.9804  -21.4502 C   0  0  0  0  0  0  0  0  0  0  0  0
    5.7114    2.7837  -20.5053 C   0  0  1  0  0  0  0  0  0  0  0  0
    5.6822    3.4413  -16.8433 C   0  0  0  0  0  0  0  0  0  0  0  0
    5.5092    3.4365  -18.3010 N   0  0  0  0  0  0  0  0  0  0  0  0
    4.3074    2.9724  -20.1170 N   0  3  0  0  0  0  0  0  0  0  0  0
    3.1010    4.0282  -18.3545 N   0  0  0  0  0  0  0  0  0  0  0  0
    7.5748    2.5250  -18.9174 O   0  0  0  0  0  0  0  0  0  0  0  0
    2.0573   -2.8456  -17.3184 Cl  0  0  0  0  0  0  0  0  0  0  0  0
    7.2626   -0.4634  -23.6287 H   0  0  0  0  0  0  0  0  0  0  0  0
    5.8893   -5.3831  -19.0199 H   0  0  0  0  0  0  0  0  0  0  0  0
    6.3940   -2.3364  -22.2559 H   0  0  0  0  0  0  0  0  0  0  0  0
    6.7103   -3.5142  -20.4359 H   0  0  0  0  0  0  0  0  0  0  0  0
    6.9854    1.8696  -22.8586 H   0  0  0  0  0  0  0  0  0  0  0  0
    3.8344   -5.0953  -17.6482 H   0  0  0  0  0  0  0  0  0  0  0  0
    4.9107    0.4802  -19.3528 H   0  0  0  0  0  0  0  0  0  0  0  0
    3.4169   -1.0634  -19.1003 H   0  0  0  0  0  0  0  0  0  0  0  0
    8.4340    4.3226  -23.7740 H   0  0  0  0  0  0  0  0  0  0  0  0
    7.5262    5.7741  -23.2303 H   0  0  0  0  0  0  0  0  0  0  0  0
    5.8918    4.8517  -24.6511 H   0  0  0  0  0  0  0  0  0  0  0  0
    6.4794    3.1721  -24.4056 H   0  0  0  0  0  0  0  0  0  0  0  0
    8.0439    3.1606  -21.7572 H   0  0  0  0  0  0  0  0  0  0  0  0
    8.0234    4.8409  -21.1225 H   0  0  0  0  0  0  0  0  0  0  0  0
    4.4998    4.7457  -22.8073 H   0  0  0  0  0  0  0  0  0  0  0  0
    4.7403    2.9677  -22.8942 H   0  0  0  0  0  0  0  0  0  0  0  0
    5.7371    4.8974  -20.9238 H   0  0  0  0  0  0  0  0  0  0  0  0
    4.8041    3.9058  -16.3708 H   0  0  0  0  0  0  0  0  0  0  0  0
    5.7880    2.4073  -16.4833 H   0  0  0  0  0  0  0  0  0  0  0  0
    6.5844    4.0143  -16.5832 H   0  0  0  0  0  0  0  0  0  0  0  0
    3.5159    2.7318  -20.6787 H   0  0  0  0  0  0  0  0  0  0  0  0
    2.2419    4.0134  -18.8661 H   0  0  0  0  0  0  0  0  0  0  0  0
    3.1288    4.4204  -17.4351 H   0  0  0  0  0  0  0  0  0  0  0  0
  1  3  1  0  0  0  0
  1  5  2  0  0  0  0
  2  4  2  0  0  0  0
  2  6  1  0  0  0  0
  3  9  2  0  0  0  0
  4 10  1  0  0  0  0
  5 11  1  0  0  0  0
  6 12  2  0  0  0  0
  7  9  1  0  0  0  0
  7 11  2  0  0  0  0
  8 10  2  0  0  0  0
  8 12  1  0  0  0  0
  9 10  1  0  0  0  0
 11 20  1  0  0  0  0
 12 26  1  0  0  0  0
 13 20  1  0  0  0  0
 13 22  1  0  0  0  0
 13 25  2  0  0  0  0
 14 22  1  0  0  0  0
 14 23  2  0  0  0  0
 14 24  1  0  0  0  0
 15 16  1  0  0  0  0
 15 17  1  0  0  0  0
 16 18  1  0  0  0  0
 17 19  1  0  0  0  0
 18 19  1  0  0  0  0
 19 20  1  0  0  0  0
 20 23  1  0  0  0  0
 21 22  1  0  0  0  0
  1 27  1  0  0  0  0
  2 28  1  0  0  0  0
  3 29  1  0  0  0  0
  4 30  1  0  0  0  0
  5 31  1  0  0  0  0
  6 32  1  0  0  0  0
  7 33  1  0  0  0  0
  8 34  1  0  0  0  0
 15 35  1  0  0  0  0
 15 36  1  0  0  0  0
 16 37  1  0  0  0  0
 16 38  1  0  0  0  0
 17 39  1  0  0  0  0
 17 40  1  0  0  0  0
 18 41  1  0  0  0  0
 18 42  1  0  0  0  0
 19 43  1  0  0  0  0
 21 44  1  0  0  0  0
 21 45  1  0  0  0  0
 21 46  1  0  0  0  0
 23 47  1  0  0  0  0
 24 48  1  0  0  0  0
 24 49  1  0  0  0  0
M  CHG  1  23   1
M  END
> <OMEGA_C>
zSnYQC1whb7Wk7XBSlWrQCU/jsCPUJjBQH/IQIabqL+6YK/BXS26QNDUWMB2uZ7BEMTSQCPUhz9y
HLLBlCKGQBcDicB6GJLBjYatQIivjz6XQqLB0g59QLwCAMBRrJjB7FOzQCqchr9ro6XBasyjQMwv
CsBM857BGtS8QDCHrT+EdqjB6qBfQFO1Q8A8RZLBrDPOQKzJOkBydZnB5hKIQIJYYEDrWpfBv0Xx
QE+TlUCN6LnBd6LIQLQ2hECASL/BvQjxQA1DhEC2c67BXeKnQDILfEBpRrbBmUvBQE6/fkD7mavB
ocO2QAMoMkDuCqTBfdS1QNY+XEAVv4bBFUuwQLHvW0B7aJLBitaJQPc7PkCv76DB2HZGQKnmgEAW
1pLBYWTyQAGZIUDrVpfBM6sDQNAdNsAZjIrBnmfoQLlI7b6DB73BEHW8QG9CrMC6KJjBaZvMQNmG
FcAJDLLBnbrWQE3oYMCifKPBK4jfQPBO7z9q3rbB12Z1QF8Mo8B1L43BIiSdQFHb9T560prBKq5a
QB4ciL9RzZjBk/EGQXxSikArMb7BldbwQJLFuECv17nBSYm8QNJAm0CENcXBi1fPQEMDS0CtPsPB
0LMAQdpHSkC9Dq7BB2AAQdnomkDQ+qjBK/6PQKDcl0BjdbbB0rCXQKfuPUBTJ7fBDZa3QHW3nEDj
Y6fBRbuZQFb5eUCA94LBnze5QFERGkDb3YPBobPSQD11gEBaqoTB2ANhQATWLkAPbqXB5XoPQHZt
gEC87ZbB9T1IQCl0jUAYe4vBsT3RQLgClr42/bXB2OasQKwPj8D/GJnBhjfAQGSoqL++xq/BWIW5
QAWSV8CoQ5/BRf/QQDC8gT/RF7LBLQ+JQPPAi8D4WJLBBJWrQAgRmD4L/6HBo6d9QKbyAsAO0JfB
m/GuQILNhL8wmaXBAjaiQBYHCsBAwp7Bb3y8QEw1rD9/QqjBh2xkQHTqScALq5HB17nOQM6xN0BV
D5nBF0eIQJqQXkCOmZfBJLCWQKdDoEAForXBUkWnQBm1u0DkSazB6LO3QEr4eUDZMLfBf8rRQJ7J
p0AGsajBjwTQQPBackA0WKzBi/y5QKrvMkCvHqTBOjSyQOy5UEBBY4bBIBevQFKlVEA2I5LBE/+M
QF7/SUCwwKHBcHlEQOSCeUB98ZLBj6DzQNT9JECqtZbBAM8LQIjuQcB6RInBA43eQCAVAr9Sxr3B
daS+QISrrMCHh5nBfjvAQD4yFcCZwrLBfyTVQDZpXMDya6TBzLHgQM5G5T8moLbBdAN+QF8Ep8CO
q43BkB2cQKC2Az/fd5rBhglbQAmfjr/zN5fBhp5uQO5skkBZprPB6uKTQOu5s0CV7rzBcWasQILd
3EAV867BMR+QQPtXu0DyqKXBWcunQOEmPUC/JbnBPwfOQGeJhUBTpr3BTuTsQNhkuEAheazBRP3U
QAWWqUB/8J/B77fwQCeKW0DI6q3B1P6UQP6ya0Af0YLB49C1QAexDUAN24PBACPOQNTZdUAwt4PB
brRqQL/1SUC4JKfB6XQPQOh3fkCgYZfBhrdCQC76g0AdJ4vBteHMQGzHgL5/wrbBN4StQIrjj8Br
GpnBLR3EQP4KqL/H2a/BYOS7QEp3WsBVSJ/BL2/GQL3ehz9jS7PBwcyJQIX5isB1WJLBxPyvQCy1
iD5RzKHBK+CCQG0pAcDj4JfBICm0QLVVh7+ZfaXBAommQNDtCsA0tp7BDnK6QE/2qz+UhqjB/CJp
QC6QRsApupHBvfrNQAKwN0CDHZnBCwyIQPCGYUDcjpfBs5HgQIghvkAnRLLBOT4AQY7Cm0ATPrbB
6NrEQFxaqEBomqnBOZf5QDL+a0C/yK7BWj3JQMSMckA+ZqzBnQO4QP5zMUCqCqTBKBKzQFSrVkCc
dobBbCSvQPx8V0DUMpLBP0+LQG77RkBsg6HBprVFQNTVgECGCJPB3ffxQNA2H0AErpbBTCYQQFkj
OsAhdYnBSpbYQAdT477vvb7BBdi9QONMrsBbiJnBlonJQOUVFcC0brLBp0XXQB33YcB/eKTBlJrK
QJQs8D8+3rjBv1B9QImxpcBQoI3Br7akQIca6T5UxZnBZ0NlQFaOiL/dY5fBuPTxQNl92UBP1q7B
VFjMQN03yUD/6bjBen35QBy/kkA9kb7B8soQQYyFp0AWrbXB+0XRQED8rkCjiaHBglKjQNXbskDg
HarBUb4AQW8gL0C4vbLBcVgGQT96ckDbb6fBwP63QBJCZ0Co8LPBAViWQHuPc0AD4oLB6VS2QLVA
FEBMqYPB9XvPQHOSe0AuE4TBBLdlQPUfQkBXo6bBvEoQQPLpgkCmaJfBinxFQLBYikAXZYvB9ujr
QFZ2sb7cRLHB8cY6QFzuOsDgv5XBwozVQLkmrr+C6KvBFVNmQG6s87/oUJvBvy3iQLj/fz90Ra/B
O6JkQPFEhMD3aJPB+t+rQCxwpj6JZ6LB4OSyQNglVMBHMJzBeG+1QFjtg7+wZaTBXS2eQEgHBsAB
lZ7BNjnBQJTTrT/Y/6fBcA+dQNSDisBVo5bBXYrQQMD4V0AKkZzBpfeJQIBJW0DokZfBhLPgQL5P
l0BrY77BgxLGQOAJZkAsRsPBYmHjQPqEjEBJf7LBbVOmQNpKSkBWgrrBuAC3QNguckDs16/BwHe1
QERrNUCTw6XBaKDAQIDsiEApIorBcdKzQOaqc0Ah1ZTB7XCJQB7AO0CeWKHBVwJMQKgEZEC4GJHB
A7T3QLbhWkDpB5zBtUm3QFlyusCzvpPBxlMCQR44Gr9i8bbBeYLyP/5bMcCsRZPBU+LcQB9gGcC4
ha3BBBVGQOaVeb/mGp3B3v/zQLIn4z8GUrPBHDNDQNY8ncA9JI/B0OaTQEsNFD8ohZzBq6rTQAQD
XsBto57BkWoAQag9mEBy+cHBos3QQLpYtkAil7/BCLa0QKn8fEAbX8rBItvaQIotMEAjicXBHwH9
QONSakCj+rDB9i/pQLqHqUDBuq3BNxGGQKJiYkCYVbzBLnalQFAWBEBH5LnB8rehQNsplEBxBa7B
QfmjQLoFkkBOjoXBfKnRQBdZXkA96IXBGNHVQFrXpEDg8orBn+BdQPFjKkD9RKXBWJsSQEO/UUBZ
zJPBRblRQEyQfEAwvonBis7qQI4Lpr7DwLHBBcKeQIlHisDfdJbBiabVQLpKrL8UKKzBt1K0QKTo
U8ChJpzBhU3gQAiugj+T2K/BU1VoQKP6g8AxIJPBiwmsQOtvqD4UhqLBQwNpQFu8878nMJvBawG2
QOg0g78ngKTBD2KfQErqBcBkjZ7BGS7AQB8Urz/VVKjBJh4+QGeZOsArf5XBHk/QQImyV0A+2pzB
1PiJQHK5W0AeqJfB75qnQCoCu0DPc7nBFPDWQOP3rkAuT7vBhE6XQF5unUBwe7DBG9DhQLeljkA/
kLLBqMS2QDj7bkDPbrDBLLS0QJTXNUBU+qXB6kjBQOn/iUD+gYrBd/azQOyjdEB1G5XBSfSIQM7j
OkC2W6HBophMQMMpZUDUG5HBAYT3QEShWED9WpzBUrSoP8DTKsACbZHBbJsBQb+hEr+1ibfBweWu
QCP2p8B1o5TBtJLdQHpGGMBwtK3BtPjUQDbaXcCLsp7B1eXwQFBr5j8AKLTBLV9HQDTQnMCUwI7B
QqaUQH2SEz+JepzBdWpIQGCwer/dAJ3B2P6kQNuz3ECw/bbB4PaUQEfntUClzsDBbhzbQMuFoEAZ
RMPB/3PrQJ5wy0COn7rB7MSXQBAarkCHu6jBazNtQGdmkkA+NbLBikv6QEDXb0B6VrXBQj3tQLf0
nkCVTqvBiZevQJS/RUASVrfBSN+kQACJk0Bx5IXB7FzSQFPaYEDEOYbBYpXWQOS/pUC2fIvB0Klc
QAnqJ0AuHKXB0QATQNNtUkDosZPBReRSQPyufkCI0InBawPrQHyzq75cj7HB4lM7QCS7OsAvs5XB
aE/VQHZMrb/HD6zBGKNmQGqa87/DUpvBJr7gQMFxgT8opa/BMmJlQBYShMAUU5PBy5urQGL4pj7w
gqLBNSKzQFvfU8BOMZzBHFq1QOujg79yfqTBoFGeQMjoBcAVnZ7BKlDAQMparj+MOajBxWidQLxN
isDik5bBj2rQQIrQVkC7qZzBpeSJQPyIW0D7opfBZFOpQDYVu0AiUrnBH6zYQFHQrkCqDrvBgH2Y
QC+EnUBnabDB0f/iQMJWjkBTTrLBFL23QHzQbkBMTbDBLBG1QCqLNUB83qXB59zAQJRfiUAVVIrB
SduzQMnfc0Bw+ZTBsCaJQBETO0DeW6HBjf5LQMsnZUA/K5HBepr3QGA7V0B8EZzBALe3QHwkusD+
oZPBr9MBQX5VFr/4RbfBM67zP+0tMcD/NJPByArdQDXcGMCena3BujlGQJwGer/BI53BpcDxQA3w
5D824LPBLSdEQFv6nMBbAo/BLfeTQLaeEz9yiZzB69/TQLy/XcD5qp7B0simQNvE3EAf2bbB4/mW
QC8jtkBjusDBrR3dQHtvoEAxA8PBFk7tQFwry0CXS7rBqbeYQCkdrkDQpqjB+ZhvQByukkDSOrLB
6Hb7QJoAb0BJCLXB3zfuQDuBnkBnAqvBLL2wQBnHRUAfPLfB+1SkQDkEk0DixYXBa53RQH1CX0CT
B4bB0V7WQB4BpUDMOovBdjpdQIiiKECGMKXBS34SQD3cUkDF1ZPBAeFRQApefkBL2onBpg/sQDLp
q74zWLHBY6WBQEA5jMDRAZ7BvgnWQKK9rb++9avBfBWYQKjdV8AwgKPBQsLhQNtRgT+Waa/Bn0ti
QEJGhMB3tpPBlo2rQBw/oz7rlaLBCLCNQLPe7r9UVpTB7aS1QMKkhL+9f6TB7U2eQOGuBsAjtp7B
OM/AQPXarT+ZIajBxUpuQMX5N8AJ5I7BfWzQQDAiVkDbcZzBv6mJQIwUW0Deo5fBdwarQNhgu0A+
IbnBi27aQFsJr0BFubrBxKaZQIarnUAVUbDBzDjkQKxdjkDG+rHBmc+4QO/3bkAFJrDBb4C1QJRQ
NUCMwqXBAAPAQLrHiED3IIrB4IOzQG8Yc0DE1JTB6l2JQLcNO0D3YqHB6+pKQDejZECAR5HBuJP3
QORXVkDUuJvBdI9FQLnTI8A7IILBdn4CQRnKFb+k/LbBnSZ6QD8lq8BWsaHBLN3dQIsGGcCJha3B
1JukQFZJZMD9ZqvBkSbzQGQJ5T8XhrPBhMo/QKkSncAdhI/BRi+TQOIFET/EyZzBJ16SQA1tZ79e
l5DBPW2oQNkE3UBYn7bB9w+ZQICgtkCemsDBXETfQFjOoEBlrsLBhxXvQIVUy0Cd27nBf36ZQH4c
rkAmiajBnxNyQDHxkkA4QrLBrcj8QP4Pb0AUp7TBNRXvQNFcnkBGoKrB5SOyQK07RkAZIbfB5EWj
QPBrkkDMp4XBcHrQQAjaXUB6zYXBrqHVQBNfpEDX7orBqvtdQIgFKUDqUKXBiaIRQF+jUkBdDJTB
9SNQQCeCfUDi74nB

> <OMEGA_E>
cG0WP/7WJT88Jiw/VkBZPwI4aT+QT2o/8q1xPw==

> <OMEGA_NBR>
     80099

$$$$
50215985
  -OEChem-04172616093D

 43 46  0     1  0  0  0  0  0999 V2000
    6.6673   -0.2625  -22.7055 C   0  0  0  0  0  0  0  0  0  0  0  0
    5.1628   -4.3908  -19.0434 C   0  0  0  0  0  0  0  0  0  0  0  0
    6.1800   -1.2847  -21.8867 C   0  0  0  0  0  0  0  0  0  0  0  0
    5.6762   -3.3349  -19.8156 C   0  0  0  0  0  0  0  0  0  0  0  0
    6.5546    1.0761  -22.3082 C   0  0  0  0  0  0  0  0  0  0  0  0
    4.0169   -4.1903  -18.2529 C   0  0  0  0  0  0  0  0  0  0  0  0
    5.4643    0.3748  -20.2520 C   0  0  0  0  0  0  0  0  0  0  0  0
    3.8927   -1.8723  -19.0092 C   0  0  0  0  0  0  0  0  0  0  0  0
    5.5712   -0.9760  -20.6535 C   0  0  0  0  0  0  0  0  0  0  0  0
    5.0446   -2.0674  -19.8072 C   0  0  0  0  0  0  0  0  0  0  0  0
    5.9491    1.4269  -21.0748 C   0  0  0  0  0  0  0  0  0  0  0  0
    3.3826   -2.9327  -18.2360 C   0  0  0  0  0  0  0  0  0  0  0  0
    6.5061    2.9986  -19.2073 C   0  0  0  0  0  0  0  0  0  0  0  0
    4.2700    3.4028  -18.9334 C   0  0  0  0  0  0  0  0  0  0  0  0
    7.2232    4.2759  -22.5031 C   0  0  0  0  0  0  0  0  0  0  0  0
    5.7411    4.1459  -22.9441 C   0  0  0  0  0  0  0  0  0  0  0  0
    6.1101    4.1342  -21.4554 C   0  0  0  0  0  0  0  0  0  0  0  0
    5.8011    2.8820  -20.5520 C   0  0  1  0  0  0  0  0  0  0  0  0
    5.6707    3.2654  -16.8425 C   0  0  0  0  0  0  0  0  0  0  0  0
    5.5210    3.3713  -18.3016 N   0  0  0  0  0  0  0  0  0  0  0  0
    4.3896    3.0727  -20.1978 N   0  3  0  0  0  0  0  0  0  0  0  0
    3.0629    3.6927  -18.3173 N   0  0  0  0  0  0  0  0  0  0  0  0
    7.6561    2.6641  -18.9443 O   0  0  0  0  0  0  0  0  0  0  0  0
    1.9589   -2.6900  -17.2571 Cl  0  0  0  0  0  0  0  0  0  0  0  0
    7.1329   -0.5056  -23.6492 H   0  0  0  0  0  0  0  0  0  0  0  0
    5.6479   -5.3556  -19.0570 H   0  0  0  0  0  0  0  0  0  0  0  0
    6.2702   -2.3144  -22.1997 H   0  0  0  0  0  0  0  0  0  0  0  0
    6.5580   -3.4909  -20.4193 H   0  0  0  0  0  0  0  0  0  0  0  0
    6.9355    1.8546  -22.9525 H   0  0  0  0  0  0  0  0  0  0  0  0
    3.6230   -5.0013  -17.6583 H   0  0  0  0  0  0  0  0  0  0  0  0
    5.0060    0.6116  -19.3031 H   0  0  0  0  0  0  0  0  0  0  0  0
    3.4042   -0.9091  -18.9932 H   0  0  0  0  0  0  0  0  0  0  0  0
    7.9248    3.4469  -22.6773 H   0  0  0  0  0  0  0  0  0  0  0  0
    7.7511    5.2338  -22.6203 H   0  0  0  0  0  0  0  0  0  0  0  0
    5.2165    5.0114  -23.3750 H   0  0  0  0  0  0  0  0  0  0  0  0
    5.3903    3.2245  -23.4320 H   0  0  0  0  0  0  0  0  0  0  0  0
    5.8761    5.0822  -20.9487 H   0  0  0  0  0  0  0  0  0  0  0  0
    4.7533    3.6233  -16.3523 H   0  0  0  0  0  0  0  0  0  0  0  0
    5.8473    2.2151  -16.5674 H   0  0  0  0  0  0  0  0  0  0  0  0
    6.5238    3.8783  -16.5161 H   0  0  0  0  0  0  0  0  0  0  0  0
    3.6244    2.9659  -20.8326 H   0  0  0  0  0  0  0  0  0  0  0  0
    2.2124    3.6568  -18.8421 H   0  0  0  0  0  0  0  0  0  0  0  0
    3.0424    3.9377  -17.3480 H   0  0  0  0  0  0  0  0  0  0  0  0
  1  3  1  0  0  0  0
  1  5  2  0  0  0  0
  2  4  2  0  0  0  0
  2  6  1  0  0  0  0
  3  9  2  0  0  0  0
  4 10  1  0  0  0  0
  5 11  1  0  0  0  0
  6 12  2  0  0  0  0
  7  9  1  0  0  0  0
  7 11  2  0  0  0  0
  8 10  2  0  0  0  0
  8 12  1  0  0  0  0
  9 10  1  0  0  0  0
 11 18  1  0  0  0  0
 12 24  1  0  0  0  0
 13 18  1  0  0  0  0
 13 20  1  0  0  0  0
 13 23  2  0  0  0  0
 14 20  1  0  0  0  0
 14 21  2  0  0  0  0
 14 22  1  0  0  0  0
 15 16  1  0  0  0  0
 15 17  1  0  0  0  0
 16 17  1  0  0  0  0
 17 18  1  0  0  0  0
 18 21  1  0  0  0  0
 19 20  1  0  0  0  0
  1 25  1  0  0  0  0
  2 26  1  0  0  0  0
  3 27  1  0  0  0  0
  4 28  1  0  0  0  0
  5 29  1  0  0  0  0
  6 30  1  0  0  0  0
  7 31  1  0  0  0  0
  8 32  1  0  0  0  0
 15 33  1  0  0  0  0
 15 34  1  0  0  0  0
 16 35  1  0  0  0  0
 16 36  1  0  0  0  0
 17 37  1  0  0  0  0
 19 38  1  0  0  0  0
 19 39  1  0  0  0  0
 19 40  1  0  0  0  0
 21 41  1  0  0  0  0
 22 42  1  0  0  0  0
 22 43  1  0  0  0  0
M  CHG  1  21   1
M  END
> <OMEGA_C>
NlrVQBJjhr7zpLXBBjalQHmBjMD3WJjBfsLFQHJxpL/6F6/BMaO1QE5uVcBmhp7B7r7RQBW+iT8y
d7LBiYqAQNEWhsD1BZLBTNuuQLDqvz4NBKLBviF5QP6l77/oEpjBO0eyQBTYeb9tOqXBf22hQJxQ
BMAjdZ7BGF++QDujtj9ImajBLHxYQAixO8BR45HBkTHQQMjoP0CEqJnB7qOIQAjHWUCKd5fBUSTn
QFXUiEBMBrTBCre3QPiqhECcjbfBtoXDQLZLhECrpKvBsKK5QLhyOEB1aqTBW3a1QMj7UEBrvYbB
NqywQJDCV0CkaZLBiHeMQIinREAblaHBTgZEQHpUbEDMiZLB+P70QOqAKkDrjZfBbb76P4wpLMCa
DorBCUHkQD9vAb+AMb3Bs7u0QHthq8C4dJjBLaXIQF8fFMALmbHBz9rRQKdrX8DUWqPBfu/dQANl
7T/RnrfBEN9nQGUKoMA/RI3BeDGgQASSHD/AbJrBM99ZQOS9aL8O8pfBVpj9QJaZXEAba7XBzQj4
QI17p0BR9rTB1+2mQMVdoEDz/7rBYH2sQAZeTkC9dLvBEAm8QPqgokD6lqfBIRuYQNzkZ0CS0YLB
Vx27QKrDDUANioTBw8LQQKQ2eED4IITBqfVnQNvQPUBAqabB35cNQBYJakCFvJbBS7ZCQNECfECr
yIrBjCLMQAwfgL7wMrbBh4psQKCXasDIW5TBOKy9QOJfpr8Rza/BQch4QIBIHcCZAprBrGnJQPYu
iD9KdbLB7oKYQPZrksDlHpPB7uGoQFp3jj4ky6HBUKzGQLRMRsBoUp3BWmCsQAK3hb+amaXBSpak
QBSGDMDvtJ7BEjq4QIB/rD+lMKjByhDBQFmbiMAGZJfBgr3MQPD/NEDk2pjBVLmIQGAOakALyJfB
KnbkQDs+oEDBkajBWAH6QF4CdkABgq7BaMDJQMJUc0DmH6zBwH+3QKzOMUC226PBbjKxQD4dWUBj
cobBevauQBahW0A/MpLB3oOLQNgCTEB4kKHBab1IQAEciEDhmJPB3ODuQOTAFEDKK5bBfkjtQFw8
qcBy8ZTBhGLZQEKd575hA77B1aguQN48ecD5+JDBC8G/QEwxFMDssLLBF0JFQO4i379huprBnYfU
QHX17z+kcbfBNJiTQAAvsMB/547B8qeaQDiC8z5UFJrBgWzlQFSbOMDR36DBrAfrQFVxpUCvBaDB
UGTgQI5Rv0BWk6zB/agCQTfCfkDKxLbBqvoHQcMBS0AjN6rBOvu0QNLOfkA/FbPBwuqVQDVrfEAL
EIPB0hiwQJc2FkCKuIPBFkLPQAvRdkCixIPBYTBmQAKrR0CgtKbBgToUQFcYi0DxG5jBhsZIQDPl
kkC5EIzBuwTrQBtthb5+ArLBM2tBQLX+N8BUQJXBryfWQInbpL9SX6zB6chqQLm17r9FJZvBGvnf
QILFij//K7DBOgRtQNcwgsCpzpLBE6GrQEFkwD7+4qLB7cu1QCyeT8BEJ5zBpkS2QHNieb9BvqTB
+TagQCmcAsBio57BaWG/QF81tT8IvajBEAShQMEPiMDLRJbBuOXPQEQFXkB03J3B1XmKQPF4XEDt
0pfBpeSPQAW2akDy4rjBFeCXQBh+nkDOY7LBkDu1QBgVb0CR6bDBJlKzQLRZOEBgfabB6S/DQPXo
iUCzBovBlJy0QA5QdkBom5XBTCyIQOIGPkCfnaHBR2xPQFwrY0Bz7pDBIdr2QJkPZ0A8PZ7B1jW8
QH5St8CKPpPB+8oBQbgTAb/8w7fB+D0AQB0AL8CCmpLBGn/eQNRsFMD43q3BYiRJQAx3c78UBZ3B
yG3wQI837z+Jc7TBj01NQDX9msCSR47Bv/2TQG+XHj+V5JzBqGHWQHL0WMADyZ7BFMFnQEp6QkDX
ILfBukyWQMK6aUDlicHBOPqjQGhju0AIZ7bBCI6BQCzDp0D5/avBzDfVQIvfdECyg7TBRUWnQBN6
kUDKAobBHSbWQAMZYUDgLofBmQrXQGG5pkAx+4vBmwdaQCcGLUA1RqXBx2YVQBcvUEAzVZPBBnFX
QJX4ekC+konBwGnVQBF9Mr+9ZrfBRtuoQFxWjsAvGJbBx2rGQNAa1L80FrDBso+3QDkmYMDvlZ3B
7SnQQDVgLD/QQ7XB+z2FQI/7hMBpmY/BYTytQCjVAT4IZaTBu7F9QDjy+7+YE5jB/USyQPgaoL8o
fqbBA7SiQPclEMC9pJ7BmSS7QBrwjD/A06vB44JgQBWYOsDnl5DBk9KvQCp3WkATibPBSDnvQFEC
gUA5rKvBVUmYQAv2M0AOS5XBvPiPQP9FhUA2wprBPMqQQG4zOEDcdaHBD222QLRZJkA0YanBV7Xc
QFyLo0D3e73BG23SQC0WiUBzE7TBWovfQJIBR0DgQqXBlyYLQZhYlUA7HarBwWCSQKZ2U0CC97nB
8ekHQKNAI8A+lYjBKQPlQD3Cgb/2rr7Biuu4QIPIrMDtU5XB+UzKQItZLcBSzbHB+eHSQF7QbsCT
jKLBqj3cQDTVsz+L27rBQwx0QCU9nMA624nBTYeeQBaF4j66/pzBh0NdQHBzgr9u0pjBPkq4QNTr
JEDrJZLBnJ9/QO24F0COC5DB/BpjQOkklkDsaJnB7geqQF2+nEBJg5vBWKtiQIkvIUCnKqTBm4r5
QCWitkDO1rvB5obiQE6yjkCHbMTBM7rBQIcPuUDlN7/B2pXtQIkJM0AOhZ7BJTUUQbrLjUCNy6PB
mSUQQfyFq0DxT6/BFBvzQAEL3r2Saq/BTPxEQHMOS8CC8JfBEXbfQMG8lr/fAarBmN9sQNx5B8C6
d53BlYjgQFMTlj9tK6/BL7d2QMXBhsDijpPBqHmmQPOaoT7EGaTBmj+8QL3WSMCxNprBAcq4QHgY
eb9QWqTBEpOjQAXDBcD+pJ7Bgj+6QBprsz8/ZanBRjWoQNQrhsBstJTB7hvFQK4XdECcFaTBTISJ
QGfiaEBOeJnBs5yQQJrulEATorfBaHmzQCGwckDv8rzBQs2VQImPS0DhcLTBOS6mQBlmM0BcE6nB
3rfEQAbNpUCxFJPBYUmwQDcVikCMH5vBZhCBQA3RN0Anv6HBcq1dQFqzcUDToZDBCNnoQMdahECB
NqfBDzHHQE89r8DYQ4/Bw0AIQRW9ir6MxLPBMzsAQGTuS8ADD5fB6+/tQJoeCsBmK6rBfolGQJdL
qb/71KDBrJXvQBpX/j9RarPBGh1YQIuxoMCVUY/BpO6IQO1G8z6DzZ/BxKPeQCA9SMAlEJvB1qSZ
QKdgrkDD/LHB+P9oQAsmn0C7RbzB+kOwQKunX0AZYsXB1GjVQOMcfkAgGbvB5Ah6QH6EIEBynrfB
TVetQGr6rUDT04zBD/TfQH/ZlEBfdY/ByyLQQK9Iw0D98pbBSoxKQJ6IGUBj7qLB72wmQMuBUUBw
TpDBKZFuQNEdjECCmorBoXjVQIHQM7+gXbfBNcBfQPQtOsDSjpDB9UTGQE431L80C7DBPtV8QHLn
+r8KC5jBhkXQQJJKKz+pRLXBXvSEQDO2hMBQkI/BYfisQFK1Bj68bKTBaUW3QBpXX8CgiJ3BMvex
QF+Hn78be6bBiVKiQOiOD8D4m57BIhi7QEgAjT+E3avB/aCoQC70jcB+DpbBkO+vQMY5WkAbpbPB
R0bvQBzzgEB4wqvBiRWYQMCINEBZZpXBduGPQBuEhUCn5ZrBTbWQQOaOOECmkqHBWGm2QDlsJkAn
dqnB4fXcQHU/o0DpnL3Bh5LSQNfriECDMLTBHoLfQAwXR0A5VaXBOiwLQcRJlUBcMarB7pGSQEsI
U0B0GLrBjfXCQLT7vsBA2ZTBky/lQD3tgr8Kn77BcxYpQGL5K8C9k4vBsRvKQL53LcASurHBvExc
QIeFgb9VypjBNIHcQH/usj/23LrBxY9zQJYCnMB704nBdyCeQHr45j6ODZ3Bc6nSQLPVbcAke6LB
Awy4QFd4JUARO5LBRRR/QOZ2GEBwKJDBdvFiQN1wlkC/k5nBm/qpQJbxnEBgppvBLIdiQLqSIUCH
SqTB7cz5QJ1TtkDM97vBWdDiQF5OjkB5iMTBYQTCQGfFuEDDYL/BY3rtQORDM0BXk57BdjEUQbvR
jUDP2qPB/DMQQaViq0BrZ6/B

> <OMEGA_E>
OqMMP0LnND/Q5WQ/2nOKP/GZhz8ufI0/

> <OMEGA_NBR>
     84950

$$$$
50225042
  -OEChem-04172616093D

 46 49  0     1  0  0  0  0  0999 V2000
    6.1039   -1.2683  -21.9933 C   0  0  0  0  0  0  0  0  0  0  0  0
    6.5265   -0.1951  -22.7936 C   0  0  0  0  0  0  0  0  0  0  0  0
    5.4161    0.2971  -20.2580 C   0  0  0  0  0  0  0  0  0  0  0  0
    4.0263   -2.0431  -19.0009 C   0  0  0  0  0  0  0  0  0  0  0  0
    5.8543   -3.3776  -19.8903 C   0  0  0  0  0  0  0  0  0  0  0  0
    4.4370   -4.3266  -18.2828 C   0  0  0  0  0  0  0  0  0  0  0  0
    5.5454   -1.0288  -20.7195 C   0  0  0  0  0  0  0  0  0  0  0  0
    5.1350   -2.1582  -19.8627 C   0  0  0  0  0  0  0  0  0  0  0  0
    5.8819    1.3773  -21.0394 C   0  0  0  0  0  0  0  0  0  0  0  0
    6.4169    1.1282  -22.3299 C   0  0  0  0  0  0  0  0  0  0  0  0
    3.6701   -3.1453  -18.2111 C   0  0  0  0  0  0  0  0  0  0  0  0
    6.4324    2.8230  -19.0838 C   0  0  0  0  0  0  0  0  0  0  0  0
    4.2753    3.5600  -18.9839 C   0  0  0  0  0  0  0  0  0  0  0  0
    6.5598    3.8044  -21.3732 C   0  0  0  0  0  0  0  0  0  0  0  0
    5.8275    2.7890  -20.4678 C   0  0  1  0  0  0  0  0  0  0  0  0
    6.3939    3.4816  -22.8751 C   0  0  0  0  0  0  0  0  0  0  0  0
    7.2756    4.4595  -23.6765 C   0  0  0  0  0  0  0  0  0  0  0  0
    4.9240    3.6380  -23.3471 C   0  0  0  0  0  0  0  0  0  0  0  0
    5.5529    3.4003  -16.8098 C   0  0  0  0  0  0  0  0  0  0  0  0
    5.5059   -4.4257  -19.1084 N   0  0  0  0  0  0  0  0  0  0  0  0
    5.4772    3.4089  -18.2753 N   0  0  0  0  0  0  0  0  0  0  0  0
    4.4384    3.2021  -20.2363 N   0  3  0  0  0  0  0  0  0  0  0  0
    3.0748    3.9976  -18.4481 N   0  0  0  0  0  0  0  0  0  0  0  0
    7.5345    2.3981  -18.7541 O   0  0  0  0  0  0  0  0  0  0  0  0
    6.8646    2.1395  -23.1620 O   0  0  0  0  0  0  0  0  0  0  0  0
    2.2808   -3.0547  -17.1599 Cl  0  0  0  0  0  0  0  0  0  0  0  0
    6.2065   -2.2812  -22.3537 H   0  0  0  0  0  0  0  0  0  0  0  0
    6.9390   -0.3872  -23.7731 H   0  0  0  0  0  0  0  0  0  0  0  0
    4.9572    0.4882  -19.2992 H   0  0  0  0  0  0  0  0  0  0  0  0
    3.4618   -1.1238  -18.9498 H   0  0  0  0  0  0  0  0  0  0  0  0
    6.7023   -3.4735  -20.5521 H   0  0  0  0  0  0  0  0  0  0  0  0
    4.1660   -5.1706  -17.6659 H   0  0  0  0  0  0  0  0  0  0  0  0
    6.1522    4.8077  -21.1804 H   0  0  0  0  0  0  0  0  0  0  0  0
    7.6314    3.7902  -21.1251 H   0  0  0  0  0  0  0  0  0  0  0  0
    7.1742    4.2490  -24.7513 H   0  0  0  0  0  0  0  0  0  0  0  0
    6.9556    5.4922  -23.4734 H   0  0  0  0  0  0  0  0  0  0  0  0
    8.3266    4.3356  -23.3763 H   0  0  0  0  0  0  0  0  0  0  0  0
    4.8550    3.3987  -24.4185 H   0  0  0  0  0  0  0  0  0  0  0  0
    4.2808    2.9521  -22.7762 H   0  0  0  0  0  0  0  0  0  0  0  0
    4.5939    4.6740  -23.1809 H   0  0  0  0  0  0  0  0  0  0  0  0
    4.6813    3.9269  -16.3940 H   0  0  0  0  0  0  0  0  0  0  0  0
    5.5596    2.3611  -16.4492 H   0  0  0  0  0  0  0  0  0  0  0  0
    6.4750    3.9062  -16.4874 H   0  0  0  0  0  0  0  0  0  0  0  0
    3.7200    3.2098  -20.9320 H   0  0  0  0  0  0  0  0  0  0  0  0
    2.2609    4.0560  -19.0262 H   0  0  0  0  0  0  0  0  0  0  0  0
    3.0222    4.2550  -17.4832 H   0  0  0  0  0  0  0  0  0  0  0  0
  1  2  2  0  0  0  0
  1  7  1  0  0  0  0
  2 10  1  0  0  0  0
  3  7  2  0  0  0  0
  3  9  1  0  0  0  0
  4  8  1  0  0  0  0
  4 11  2  0  0  0  0
  5  8  2  0  0  0  0
  5 20  1  0  0  0  0
  6 11  1  0  0  0  0
  6 20  2  0  0  0  0
  7  8  1  0  0  0  0
  9 10  2  0  0  0  0
  9 15  1  0  0  0  0
 10 25  1  0  0  0  0
 11 26  1  0  0  0  0
 12 15  1  0  0  0  0
 12 21  1  0  0  0  0
 12 24  2  0  0  0  0
 13 21  1  0  0  0  0
 13 22  2  0  0  0  0
 13 23  1  0  0  0  0
 14 15  1  0  0  0  0
 14 16  1  0  0  0  0
 15 22  1  0  0  0  0
 16 17  1  0  0  0  0
 16 18  1  0  0  0  0
 16 25  1  0  0  0  0
 19 21  1  0  0  0  0
  1 27  1  0  0  0  0
  2 28  1  0  0  0  0
  3 29  1  0  0  0  0
  4 30  1  0  0  0  0
  5 31  1  0  0  0  0
  6 32  1  0  0  0  0
 14 33  1  0  0  0  0
 14 34  1  0  0  0  0
 17 35  1  0  0  0  0
 17 36  1  0  0  0  0
 17 37  1  0  0  0  0
 18 38  1  0  0  0  0
 18 39  1  0  0  0  0
 18 40  1  0  0  0  0
 19 41  1  0  0  0  0
 19 42  1  0  0  0  0
 19 43  1  0  0  0  0
 22 44  1  0  0  0  0
 23 45  1  0  0  0  0
 23 46  1  0  0  0  0
M  CHG  1  22   1
M  END
> <OMEGA_C>
w1LDQB5Zor818q/B5NjQQDHMR75fWbbBuVCtQFQdmD5NEKLBeNeAQHPCAsDtAZjBWla7QAMqWMBe
H5/BJvyNQMVzisAxQ5LB03OxQOGvg7+cwaXBHlKkQLIfCsDb5p7Btji8QBpLsD/GUKjBClfNQDZq
kD+vo7LB8eJqQANMScBYsJHBmNbNQEGrNECpq5jBBM+IQEHXY0AL35fBQOrRQGh7c0BG/KrBI3u6
QGF+MkAivqPBoJrMQCvSXkA8ALfBENLoQG20jkBkab3Bc5GdQDDUaEDOxrrBsLGxQByeWUBseobB
vTCwQKqfjcD93ZjBd0WvQJ0qWkDiM5LBNAeOQLnuTEAB5KHB7chEQDbYf0CllZPBxxrxQOl6GUBp
CJbBGavbQEbtCECzS7nBV/gRQG5/Q8B5R4nB1pvGQJP/EcBw1LLBLgzeQDE6xr5RL77BdKGeQDH5
+T6xZJrB4I5dQCrYj786mZfBoHnWQJZOXsC/aqTByk+FQPB1pcDDU43Bg97EQNHYmUB1canBnTT0
QCGSckBOAKnBy5LlQM/3h0DCAsbBopTeQOi/r0CIybvB1DkFQTy9ikCsArvBxFubQPeDWUAcWcPB
QvyIQOPvPECSNbbBZwGTQH6RlUBocrnBR82VQPBSe0DgJoPBb+ixQP8bF0Dnl4PB8jLPQPr+eUA7
5oPBRBVuQMdsTUC2dKfB/7IQQKDKgUCxNZjBKGtBQJkoiECU3YvB

> <OMEGA_E>
gHqOPg==

> <OMEGA_NBR>
     86024

$$$$
50225097
  -OEChem-04172616093D

 47 50  0     1  0  0  0  0  0999 V2000
    6.1014   -1.3198  -21.9642 C   0  0  0  0  0  0  0  0  0  0  0  0
    6.5237   -0.2576  -22.7746 C   0  0  0  0  0  0  0  0  0  0  0  0
    5.3878    0.2667  -20.2579 C   0  0  0  0  0  0  0  0  0  0  0  0
    5.8246   -3.4292  -19.8930 C   0  0  0  0  0  0  0  0  0  0  0  0
    4.0586   -2.0931  -18.9222 C   0  0  0  0  0  0  0  0  0  0  0  0
    4.4273   -4.2996  -18.2387 C   0  0  0  0  0  0  0  0  0  0  0  0
    5.5273   -1.0686  -20.7001 C   0  0  0  0  0  0  0  0  0  0  0  0
    5.1288   -2.2017  -19.8351 C   0  0  0  0  0  0  0  0  0  0  0  0
    6.3996    1.0715  -22.3328 C   0  0  0  0  0  0  0  0  0  0  0  0
    5.8653    1.3421  -21.0488 C   0  0  0  0  0  0  0  0  0  0  0  0
    6.4271    2.7950  -19.1056 C   0  0  0  0  0  0  0  0  0  0  0  0
    4.2819    3.5626  -19.0029 C   0  0  0  0  0  0  0  0  0  0  0  0
    6.9731    2.1656  -23.2076 C   0  0  0  0  0  0  0  0  0  0  0  0
    6.5429    3.8193  -21.3737 C   0  0  0  0  0  0  0  0  0  0  0  0
    5.8190    2.7676  -20.4871 C   0  0  1  0  0  0  0  0  0  0  0  0
    6.3985    3.5603  -22.8888 C   0  0  0  0  0  0  0  0  0  0  0  0
    7.2412    4.6103  -23.6484 C   0  0  0  0  0  0  0  0  0  0  0  0
    4.9238    3.6705  -23.3613 C   0  0  0  0  0  0  0  0  0  0  0  0
    5.5391    3.3236  -16.8272 C   0  0  0  0  0  0  0  0  0  0  0  0
    5.4665   -4.4552  -19.0946 N   0  0  0  0  0  0  0  0  0  0  0  0
    3.7227   -3.1440  -18.1424 N   0  0  0  0  0  0  0  0  0  0  0  0
    5.4771    3.3795  -18.2913 N   0  0  0  0  0  0  0  0  0  0  0  0
    4.4314    3.1772  -20.2482 N   0  3  0  0  0  0  0  0  0  0  0  0
    3.0922    4.0364  -18.4747 N   0  0  0  0  0  0  0  0  0  0  0  0
    7.5319    2.3707  -18.7843 O   0  0  0  0  0  0  0  0  0  0  0  0
    6.2161   -2.3368  -22.3092 H   0  0  0  0  0  0  0  0  0  0  0  0
    6.9480   -0.4615  -23.7466 H   0  0  0  0  0  0  0  0  0  0  0  0
    4.9133    0.4694  -19.3091 H   0  0  0  0  0  0  0  0  0  0  0  0
    6.6486   -3.5470  -20.5811 H   0  0  0  0  0  0  0  0  0  0  0  0
    3.5066   -1.1679  -18.8466 H   0  0  0  0  0  0  0  0  0  0  0  0
    4.1483   -5.1300  -17.6070 H   0  0  0  0  0  0  0  0  0  0  0  0
    8.0631    2.1948  -23.0620 H   0  0  0  0  0  0  0  0  0  0  0  0
    6.7497    1.9270  -24.2579 H   0  0  0  0  0  0  0  0  0  0  0  0
    6.1224    4.8108  -21.1494 H   0  0  0  0  0  0  0  0  0  0  0  0
    7.6133    3.8092  -21.1203 H   0  0  0  0  0  0  0  0  0  0  0  0
    6.8509    5.6168  -23.4374 H   0  0  0  0  0  0  0  0  0  0  0  0
    8.2890    4.5471  -23.3193 H   0  0  0  0  0  0  0  0  0  0  0  0
    7.1840    4.4140  -24.7292 H   0  0  0  0  0  0  0  0  0  0  0  0
    4.5359    4.6720  -23.1237 H   0  0  0  0  0  0  0  0  0  0  0  0
    4.8737    3.5063  -24.4478 H   0  0  0  0  0  0  0  0  0  0  0  0
    4.3165    2.9108  -22.8473 H   0  0  0  0  0  0  0  0  0  0  0  0
    4.6765    3.8580  -16.4025 H   0  0  0  0  0  0  0  0  0  0  0  0
    5.5178    2.2739  -16.4991 H   0  0  0  0  0  0  0  0  0  0  0  0
    6.4700    3.7969  -16.4814 H   0  0  0  0  0  0  0  0  0  0  0  0
    3.7045    3.1647  -20.9348 H   0  0  0  0  0  0  0  0  0  0  0  0
    2.2789    4.1007  -19.0530 H   0  0  0  0  0  0  0  0  0  0  0  0
    3.0467    4.3141  -17.5152 H   0  0  0  0  0  0  0  0  0  0  0  0
  1  2  2  0  0  0  0
  1  7  1  0  0  0  0
  2  9  1  0  0  0  0
  3  7  2  0  0  0  0
  3 10  1  0  0  0  0
  4  8  1  0  0  0  0
  4 20  2  0  0  0  0
  5  8  2  0  0  0  0
  5 21  1  0  0  0  0
  6 20  1  0  0  0  0
  6 21  2  0  0  0  0
  7  8  1  0  0  0  0
  9 10  2  0  0  0  0
  9 13  1  0  0  0  0
 10 15  1  0  0  0  0
 11 15  1  0  0  0  0
 11 22  1  0  0  0  0
 11 25  2  0  0  0  0
 12 22  1  0  0  0  0
 12 23  2  0  0  0  0
 12 24  1  0  0  0  0
 13 16  1  0  0  0  0
 14 15  1  0  0  0  0
 14 16  1  0  0  0  0
 15 23  1  0  0  0  0
 16 17  1  0  0  0  0
 16 18  1  0  0  0  0
 19 22  1  0  0  0  0
  1 26  1  0  0  0  0
  2 27  1  0  0  0  0
  3 28  1  0  0  0  0
  4 29  1  0  0  0  0
  5 30  1  0  0  0  0
  6 31  1  0  0  0  0
 13 32  1  0  0  0  0
 13 33  1  0  0  0  0
 14 34  1  0  0  0  0
 14 35  1  0  0  0  0
 17 36  1  0  0  0  0
 17 37  1  0  0  0  0
 17 38  1  0  0  0  0
 18 39  1  0  0  0  0
 18 40  1  0  0  0  0
 18 41  1  0  0  0  0
 19 42  1  0  0  0  0
 19 43  1  0  0  0  0
 19 44  1  0  0  0  0
 23 45  1  0  0  0  0
 24 46  1  0  0  0  0
 24 47  1  0  0  0  0
M  CHG  1  23   1
M  END
> <OMEGA_C>
7D7DQILvqL++tq/BB8LQQHzog75pMrbB2WisQIaGiD4gEKLBvGK6QOt3W8DVJJ/BK+CBQAT2BcCq
YJfBXKyNQECWicDn6JHB0d+wQC3HiL/NmaXBhR+kQP3oDMAzrp7BzcnMQFQniT+oqbLBOLC7QMXK
qz/iY6jB+arNQNDhMkBL2JjBIgWJQDABZEDzBZjBySPfQPOZCkA7qbnBkF/RQClwdEBF/arBlDW6
QF8gMUB95aPBHsDMQHHbY0BXHLfBTrjnQGuHk0D0L73BfY+dQMLoakDp47rBr0CxQFu2VEABnobB
oe2uQCSRjsC+wZjBQUFuQI43ScCNI5HBv0SvQARJWECEVJLBBM6NQH1XS0BK/KHB6OZFQAIqgUBE
zJPBiQXxQIS5F0AvRpbBJurGQMWNFcBRebLBr1XeQOtH7L4f+b3BrjmdQBxZ8D4XeZrBYsHUQIkB
Y8AJpqTBwmxgQMV+lb/pxZbB976EQNQopMA524zBQgIBQdt2DEAMf7jB5P3XQLKm9j8/EMLB6urD
QMDxmUAFMqnBGaDzQNjJc0Bn9qjBeDrbQPO8s0Dlf7vBjp8EQXiBkUDtjbrB/OLlQLo/jUCB1cXB
YCaRQDGBlUBL/bjBmfWbQPBmYEAflcPBqiCKQMNKOkBSx7bBHaaVQB/pdkA+OIPBnpGwQG2HEUA9
/oPB9wnPQBcBc0Dk2YPBXhZtQOaJSkB9eqfBydkRQNI4g0CVbJjBufxCQEkNikAOH4zBS3HIQJUR
qr/fWa/BZqzTQBHsfb5+7LXBvZytQFKLZj4766HBa+m7QFsYXsCiAp/ByQKCQPPEB8BzDZjB5EqL
QObLisC8oZLBJIy0QLmyjL8QYqXBlzmmQKn9DsAAvp7BqGnLQJFpiT+Do7LBiWS4QJK1qD8Ii6jB
QfbMQB+uQEBOp5rBZtmHQEWzZUAGSpfBQ8jRQNquC0DstLrBJU61QKEmdUCzKa3BhvKwQIUfL0AZ
aaTBSXXYQNdGZECWjbXBCNoCQRYka0Bxn7DBnD7UQOQklECadr7BnSe6QFoLZEA/pIfBhDSuQD7+
j8AH8ZjBhTdqQLQdS8DdHpLBmYexQHlfZECGLpPBmeeFQK8qN0CB/J/BHYxJQCGXhkAsrpLB9zXx
QMELJkB+45jBPQjPQEuxFcAr7LHBWcPiQEuC3L7djr3B9umfQF+Jzz5fHprBI5bXQPbxZcBtF6TB
BCthQKZOmL/ArpfBlbSAQAFypcAbz43BpxXuQJPx+D/MlL/BW1e1QDuuDkDQ4L/B336WQFoxekAz
X7HBYoG8QKQgmUAsLqnBtecEQRdflUAR/qzBT9IEQRCaOUDGcqrBt+0OQeTwYUCG67bBhd3YQP42
tEBhBrvB46bsQL5XjkDaosTBwTa0QCkVkkB0E8LBN8afQPsGgkAdaIPBmue8QAyZIUAJ0YTBF0PY
QIccg0C5DIbBcLVWQDxsHUAoFaPBcawPQMl6g0CYAZbBj7ZQQFX4l0DpBYzB

> <OMEGA_E>
ELbePtqaGD8=

> <OMEGA_NBR>
     87927

$$$$
50225095
  -OEChem-04172616093D

 45 48  0     1  0  0  0  0  0999 V2000
    6.0628   -1.3906  -21.9192 C   0  0  0  0  0  0  0  0  0  0  0  0
    6.5141   -0.3631  -22.7490 C   0  0  0  0  0  0  0  0  0  0  0  0
    5.4056    0.2547  -20.2453 C   0  0  0  0  0  0  0  0  0  0  0  0
    5.7618   -3.4514  -19.8307 C   0  0  0  0  0  0  0  0  0  0  0  0
    4.0384   -2.0626  -18.8563 C   0  0  0  0  0  0  0  0  0  0  0  0
    4.3407   -4.2812  -18.1783 C   0  0  0  0  0  0  0  0  0  0  0  0
    5.5146   -1.0947  -20.6567 C   0  0  0  0  0  0  0  0  0  0  0  0
    5.0995   -2.2047  -19.7734 C   0  0  0  0  0  0  0  0  0  0  0  0
    5.9030    1.3072  -21.0594 C   0  0  0  0  0  0  0  0  0  0  0  0
    6.4527    0.9744  -22.3314 C   0  0  0  0  0  0  0  0  0  0  0  0
    6.4412    2.7910  -19.1164 C   0  0  0  0  0  0  0  0  0  0  0  0
    4.2852    3.5246  -19.0211 C   0  0  0  0  0  0  0  0  0  0  0  0
    6.5765    3.8172  -21.3726 C   0  0  0  0  0  0  0  0  0  0  0  0
    5.8469    2.7497  -20.5091 C   0  0  1  0  0  0  0  0  0  0  0  0
    6.3709    3.6920  -22.8934 C   0  0  0  0  0  0  0  0  0  0  0  0
    7.1471    4.8225  -23.5939 C   0  0  0  0  0  0  0  0  0  0  0  0
    4.8834    3.7496  -23.3137 C   0  0  0  0  0  0  0  0  0  0  0  0
    5.5519    3.3586  -16.8440 C   0  0  0  0  0  0  0  0  0  0  0  0
    5.3749   -4.4668  -19.0338 N   0  0  0  0  0  0  0  0  0  0  0  0
    3.6739   -3.1036  -18.0765 N   0  0  0  0  0  0  0  0  0  0  0  0
    5.4841    3.3778  -18.3104 N   0  0  0  0  0  0  0  0  0  0  0  0
    4.4508    3.1549  -20.2712 N   0  3  0  0  0  0  0  0  0  0  0  0
    3.0848    3.9651  -18.4852 N   0  0  0  0  0  0  0  0  0  0  0  0
    7.5568    2.4049  -18.7854 O   0  0  0  0  0  0  0  0  0  0  0  0
    7.1174    2.1421  -23.4434 S   0  0  0  0  0  0  0  0  0  0  0  0
    6.1345   -2.4171  -22.2471 H   0  0  0  0  0  0  0  0  0  0  0  0
    6.9149   -0.6005  -23.7233 H   0  0  0  0  0  0  0  0  0  0  0  0
    4.9380    0.4875  -19.3000 H   0  0  0  0  0  0  0  0  0  0  0  0
    6.5833   -3.5914  -20.5176 H   0  0  0  0  0  0  0  0  0  0  0  0
    3.5164   -1.1204  -18.7771 H   0  0  0  0  0  0  0  0  0  0  0  0
    4.0341   -5.1051  -17.5510 H   0  0  0  0  0  0  0  0  0  0  0  0
    6.2154    4.8088  -21.0622 H   0  0  0  0  0  0  0  0  0  0  0  0
    7.6546    3.7392  -21.1686 H   0  0  0  0  0  0  0  0  0  0  0  0
    7.0080    4.7438  -24.6822 H   0  0  0  0  0  0  0  0  0  0  0  0
    6.7708    5.7958  -23.2457 H   0  0  0  0  0  0  0  0  0  0  0  0
    8.2171    4.7359  -23.3539 H   0  0  0  0  0  0  0  0  0  0  0  0
    4.8068    3.6550  -24.4069 H   0  0  0  0  0  0  0  0  0  0  0  0
    4.3351    2.9248  -22.8351 H   0  0  0  0  0  0  0  0  0  0  0  0
    4.4502    4.7101  -22.9976 H   0  0  0  0  0  0  0  0  0  0  0  0
    4.6813    3.8877  -16.4292 H   0  0  0  0  0  0  0  0  0  0  0  0
    5.5503    2.3169  -16.4906 H   0  0  0  0  0  0  0  0  0  0  0  0
    6.4753    3.8566  -16.5132 H   0  0  0  0  0  0  0  0  0  0  0  0
    3.7298    3.1494  -20.9641 H   0  0  0  0  0  0  0  0  0  0  0  0
    2.2692    4.0174  -19.0614 H   0  0  0  0  0  0  0  0  0  0  0  0
    3.0346    4.2305  -17.5223 H   0  0  0  0  0  0  0  0  0  0  0  0
  1  2  2  0  0  0  0
  1  7  1  0  0  0  0
  2 10  1  0  0  0  0
  3  7  2  0  0  0  0
  3  9  1  0  0  0  0
  4  8  1  0  0  0  0
  4 19  2  0  0  0  0
  5  8  2  0  0  0  0
  5 20  1  0  0  0  0
  6 19  1  0  0  0  0
  6 20  2  0  0  0  0
  7  8  1  0  0  0  0
  9 10  2  0  0  0  0
  9 14  1  0  0  0  0
 10 25  1  0  0  0  0
 11 14  1  0  0  0  0
 11 21  1  0  0  0  0
 11 24  2  0  0  0  0
 12 21  1  0  0  0  0
 12 22  2  0  0  0  0
 12 23  1  0  0  0  0
 13 14  1  0  0  0  0
 13 15  1  0  0  0  0
 14 22  1  0  0  0  0
 15 16  1  0  0  0  0
 15 17  1  0  0  0  0
 15 25  1  0  0  0  0
 18 21  1  0  0  0  0
  1 26  1  0  0  0  0
  2 27  1  0  0  0  0
  3 28  1  0  0  0  0
  4 29  1  0  0  0  0
  5 30  1  0  0  0  0
  6 31  1  0  0  0  0
 13 32  1  0  0  0  0
 13 33  1  0  0  0  0
 16 34  1  0  0  0  0
 16 35  1  0  0  0  0
 16 36  1  0  0  0  0
 17 37  1  0  0  0  0
 17 38  1  0  0  0  0
 17 39  1  0  0  0  0
 18 40  1  0  0  0  0
 18 41  1  0  0  0  0
 18 42  1  0  0  0  0
 22 43  1  0  0  0  0
 23 44  1  0  0  0  0
 23 45  1  0  0  0  0
M  CHG  1  22   1
M  END
> <OMEGA_C>
jQLCQDT+sb+KWq/BSHPQQI3mub7p/bXBdfqsQKtlgj5y9qHBU2C4QALjXMBOpZ7BrzqBQPQABMCz
2ZbBHOeKQL3/iMAlbZHBgXewQGYgjL/yQKXBPy+jQDsaDcDhL57BveW8QORQpz+ueajBIXzOQKRx
eT+cprLBZB7OQPieMkBT7pjBOSCJQGiSYUBNK5jBWXLSQJBNdEAA+6rBbRm7QCH7L0CJEqTBzN7L
QOxJbEC1JbfBsrTkQBxSmkBMwLzBC0WcQPz5b0BlgrrBfKmxQDTzVkCNwIbBPv+rQEjwjsAwRZjB
eiFrQLGhRsC0nJDBFX6vQA8tWECoe5LB22yOQHbpSUBlK6LBBW1FQCLEfUCf4ZPBUNHxQIPpGUB9
SJbBuMHjQHoYCUAJjLvBxk3EQNmxGsD8+bHBPEfdQB27Gb9ayb3BWASeQHef+T58ZprBZ6rSQGjZ
ZcAdJKTBrgxhQPNpj79uN5bBWReBQExdo8BfaIzBj+TGQBbimUBWf6jBJfL0QOROb0A+WanBSEHg
QDDNl0AxdcXBiKrYQA53uUBK97nBE3kDQX+Ml0DO1LrBV9GZQBnsaUBbQcPBQbmKQH0wO0A4rrbB
8WeOQMK4lkAZ+7fBSc2VQDzQeEAWb4PBdZyxQGNIFEC97IPBjTXPQKjSdkAgG4TBerVuQFOPSUCQ
tqfBQDoRQJiOgEDHfZjBlzZCQHJgh0DCLYzB

> <OMEGA_E>
YKTjPg==

> <OMEGA_NBR>
     88980

$$$$
50225098
  -OEChem-04172616093D

 46 49  0     1  0  0  0  0  0999 V2000
    6.0527   -1.3710  -21.9482 C   0  0  0  0  0  0  0  0  0  0  0  0
    6.5090   -0.3417  -22.7735 C   0  0  0  0  0  0  0  0  0  0  0  0
    5.4093    0.2711  -20.2659 C   0  0  0  0  0  0  0  0  0  0  0  0
    3.9860   -2.0170  -18.9372 C   0  0  0  0  0  0  0  0  0  0  0  0
    5.7765   -3.4078  -19.8177 C   0  0  0  0  0  0  0  0  0  0  0  0
    4.3550   -4.2967  -18.1835 C   0  0  0  0  0  0  0  0  0  0  0  0
    5.5091   -1.0736  -20.6853 C   0  0  0  0  0  0  0  0  0  0  0  0
    5.0834   -2.1723  -19.8036 C   0  0  0  0  0  0  0  0  0  0  0  0
    5.9085    1.3225  -21.0725 C   0  0  0  0  0  0  0  0  0  0  0  0
    6.4564    0.9939  -22.3460 C   0  0  0  0  0  0  0  0  0  0  0  0
    3.6168   -3.0958  -18.1233 C   0  0  0  0  0  0  0  0  0  0  0  0
    6.4360    2.7928  -19.1151 C   0  0  0  0  0  0  0  0  0  0  0  0
    4.2764    3.5251  -19.0233 C   0  0  0  0  0  0  0  0  0  0  0  0
    6.5642    3.8353  -21.3722 C   0  0  0  0  0  0  0  0  0  0  0  0
    5.8439    2.7581  -20.5117 C   0  0  1  0  0  0  0  0  0  0  0  0
    6.3620    3.7072  -22.8952 C   0  0  0  0  0  0  0  0  0  0  0  0
    7.1262    4.8426  -23.5993 C   0  0  0  0  0  0  0  0  0  0  0  0
    4.8734    3.7478  -23.3161 C   0  0  0  0  0  0  0  0  0  0  0  0
    5.5594    3.4240  -16.8451 C   0  0  0  0  0  0  0  0  0  0  0  0
    5.4117   -4.4353  -19.0183 N   0  0  0  0  0  0  0  0  0  0  0  0
    5.4726    3.3717  -18.3103 N   0  0  0  0  0  0  0  0  0  0  0  0
    4.4424    3.1484  -20.2715 N   0  3  0  0  0  0  0  0  0  0  0  0
    3.0847    4.0004  -18.4972 N   0  0  0  0  0  0  0  0  0  0  0  0
    7.5571    2.4232  -18.7838 O   0  0  0  0  0  0  0  0  0  0  0  0
    7.1272    2.1667  -23.4439 S   0  0  0  0  0  0  0  0  0  0  0  0
    2.2455   -2.9510  -17.0566 Cl  0  0  0  0  0  0  0  0  0  0  0  0
    6.1171   -2.3969  -22.2797 H   0  0  0  0  0  0  0  0  0  0  0  0
    6.9062   -0.5755  -23.7502 H   0  0  0  0  0  0  0  0  0  0  0  0
    4.9463    0.5006  -19.3176 H   0  0  0  0  0  0  0  0  0  0  0  0
    3.4399   -1.0860  -18.9003 H   0  0  0  0  0  0  0  0  0  0  0  0
    6.6174   -3.5320  -20.4838 H   0  0  0  0  0  0  0  0  0  0  0  0
    4.0707   -5.1236  -17.5497 H   0  0  0  0  0  0  0  0  0  0  0  0
    6.1914    4.8227  -21.0620 H   0  0  0  0  0  0  0  0  0  0  0  0
    7.6427    3.7692  -21.1661 H   0  0  0  0  0  0  0  0  0  0  0  0
    6.9874    4.7590  -24.6873 H   0  0  0  0  0  0  0  0  0  0  0  0
    6.7404    5.8132  -23.2542 H   0  0  0  0  0  0  0  0  0  0  0  0
    8.1971    4.7674  -23.3596 H   0  0  0  0  0  0  0  0  0  0  0  0
    4.7983    3.6520  -24.4094 H   0  0  0  0  0  0  0  0  0  0  0  0
    4.3344    2.9169  -22.8375 H   0  0  0  0  0  0  0  0  0  0  0  0
    4.4292    4.7033  -23.0005 H   0  0  0  0  0  0  0  0  0  0  0  0
    4.6720    3.9343  -16.4427 H   0  0  0  0  0  0  0  0  0  0  0  0
    5.6073    2.4008  -16.4441 H   0  0  0  0  0  0  0  0  0  0  0  0
    6.4644    3.9758  -16.5510 H   0  0  0  0  0  0  0  0  0  0  0  0
    3.7193    3.1293  -20.9619 H   0  0  0  0  0  0  0  0  0  0  0  0
    2.2754    4.0749  -19.0798 H   0  0  0  0  0  0  0  0  0  0  0  0
    3.0347    4.2687  -17.5351 H   0  0  0  0  0  0  0  0  0  0  0  0
  1  2  2  0  0  0  0
  1  7  1  0  0  0  0
  2 10  1  0  0  0  0
  3  7  2  0  0  0  0
  3  9  1  0  0  0  0
  4  8  1  0  0  0  0
  4 11  2  0  0  0  0
  5  8  2  0  0  0  0
  5 20  1  0  0  0  0
  6 11  1  0  0  0  0
  6 20  2  0  0  0  0
  7  8  1  0  0  0  0
  9 10  2  0  0  0  0
  9 15  1  0  0  0  0
 10 25  1  0  0  0  0
 11 26  1  0  0  0  0
 12 15  1  0  0  0  0
 12 21  1  0  0  0  0
 12 24  2  0  0  0  0
 13 21  1  0  0  0  0
 13 22  2  0  0  0  0
 13 23  1  0  0  0  0
 14 15  1  0  0  0  0
 14 16  1  0  0  0  0
 15 22  1  0  0  0  0
 16 17  1  0  0  0  0
 16 18  1  0  0  0  0
 16 25  1  0  0  0  0
 19 21  1  0  0  0  0
  1 27  1  0  0  0  0
  2 28  1  0  0  0  0
  3 29  1  0  0  0  0
  4 30  1  0  0  0  0
  5 31  1  0  0  0  0
  6 32  1  0  0  0  0
 14 33  1  0  0  0  0
 14 34  1  0  0  0  0
 17 35  1  0  0  0  0
 17 36  1  0  0  0  0
 17 37  1  0  0  0  0
 18 38  1  0  0  0  0
 18 39  1  0  0  0  0
 18 40  1  0  0  0  0
 19 41  1  0  0  0  0
 19 42  1  0  0  0  0
 19 43  1  0  0  0  0
 22 44  1  0  0  0  0
 23 45  1  0  0  0  0
 23 46  1  0  0  0  0
M  CHG  1  22   1
M  END
> <OMEGA_C>
o6/BQLR9r7/xla/Be0nQQNH3rr4WMLbBGxmtQNLIij6EIKLB+Bp/QEAWAcB0f5fBzdi4QIoZWsCo
ip7BxFuLQHB+icDVd5HBb0qwQBprib+Be6XBPquiQI8HC8DZbZ7BnBK9QF1HqT95lKjBqprOQPZw
fj+jxLLBdnpnQN4hRsCG/JDBjvPNQPq8MkCk65jB89eIQAKbYUDAL5jB3A3SQEZ2dUBF+qrBMwG7
QDCEMED6F6TBJJXLQChCbUBWKbfBkgnkQFj2mkB0y7zBPvObQHrbb0B0h7rB/eaxQFoiW0DbwobB
uSytQAjujcCHJZjBfR+vQKrKV0B9e5LBSSiOQPJ/SUATLKLBt2tFQIMDgEA7+pPBCNTxQLQVG0BJ
RZbBUxLkQAirCkAYjbvBwLYPQLzcPMDsc4jBR7/DQG1mGcDPPLLBtP/cQIhUE79fAL7BukeeQHYn
AD9hiprBlyZcQNMBi7/nM5fBIsLTQH4MYsDh3qPB/0KCQKH0o8CvZYzBVCDGQIFTmkAOf6jB35D0
QFk7cUAkVKnB3pjfQHBJmECwf8XBjbHXQGwFukCCCLrBOycDQSuOmEBi4LrBi4uZQA+7aUBsRsPB
PbOKQI6uOkBAs7bB87uNQD6BlkD0ALjB7oCVQGzLe0CTioPB9G6zQMemGUCCjYPBwtzOQAJzfkCM
aITBTAhuQA5GSEALsqfBpJ8RQMplgkBqo5jBxTdCQG6ZiED8R4zBt7DIQMYvr7/nEa/Bu2vWQD0i
ob69iLXBjVmsQFY2cD4sPaLBss2AQBI0BMDU8ZfBNI66QJ5RXcBxuZ7BAgSLQHeCi8DPKpLBe4Oz
QPj/jL9vXqXB5eCkQKW6DcDulp7BriG5QNvTpz9l0ajBB/7OQMpjgj/Yi7LBTbVnQCarScAOrJHB
XBHNQEfaQEDiz5rBIMeHQGBiZEDOYpfBtdezQF5QdEDJba3BCTixQCnCLkAyp6TBJz3bQIqockAF
x7TB3IQCQaGfg0C0yK7BpBbUQBAIm0C/lb3B0Pu5QNFtY0Ciu4fBbo2tQMPkj8B7nZjBam+xQInM
Y0BSTZPB5gmGQNQvNkDfIqDBUXpJQKqlhUBNqJLBMXXwQPvsIkBdzJjBF/jgQNt/DUB9ubvB+RwO
QJ4xQMBaconBKFLOQPfsGMCzg7HBJ/fmQPYFB78q7bzBsdecQCs64D7fsJrBe/JeQHXekL89spfB
9CbWQOcXZcB31aPBsfuAQHg6psB3S43Br1SXQC+ubUC/hbLBkjmzQHd8mUCDa6nBfAgQQeWTgkBc
arTB0WgBQXTEo0CZPavBiwsFQefDV0AqaajBcMTvQIZam0BiBcPBxQG3QMYJk0BUH8LBIF/QQEDJ
ukBB57nBeWafQCNmgUCcgIPBqQ+9QGz9IEAl7YTBM+XXQAQbg0BxHYbB3BZXQHU0HEBKO6PB2mcP
QBOEgkB27ZXByvJQQInTlkAR+YvB

> <OMEGA_E>
eKHCPqAdDj8=

> <OMEGA_NBR>
     90852

$$$$
50225120
  -OEChem-04172616093D

 47 50  0     1  0  0  0  0  0999 V2000
    6.0599   -1.3595  -21.9388 C   0  0  0  0  0  0  0  0  0  0  0  0
    6.5467   -0.3376  -22.7536 C   0  0  0  0  0  0  0  0  0  0  0  0
    5.4129    0.2855  -20.2610 C   0  0  0  0  0  0  0  0  0  0  0  0
    5.7766   -3.3823  -19.8282 C   0  0  0  0  0  0  0  0  0  0  0  0
    3.9805   -1.9981  -18.9199 C   0  0  0  0  0  0  0  0  0  0  0  0
    4.2801   -4.2921  -18.1401 C   0  0  0  0  0  0  0  0  0  0  0  0
    5.5056   -1.0580  -20.6797 C   0  0  0  0  0  0  0  0  0  0  0  0
    5.0770   -2.1546  -19.7976 C   0  0  0  0  0  0  0  0  0  0  0  0
    5.9288    1.3306  -21.0639 C   0  0  0  0  0  0  0  0  0  0  0  0
    5.3779   -4.4463  -19.0073 C   0  0  0  0  0  0  0  0  0  0  0  0
    6.5022    0.9961  -22.3241 C   0  0  0  0  0  0  0  0  0  0  0  0
    3.5836   -3.0679  -18.0958 C   0  0  0  0  0  0  0  0  0  0  0  0
    6.4557    2.8108  -19.1199 C   0  0  0  0  0  0  0  0  0  0  0  0
    4.2839    3.4989  -19.0110 C   0  0  0  0  0  0  0  0  0  0  0  0
    6.5528    3.8518  -21.3816 C   0  0  0  0  0  0  0  0  0  0  0  0
    5.8552    2.7679  -20.5114 C   0  0  1  0  0  0  0  0  0  0  0  0
    6.3713    3.6892  -22.9038 C   0  0  0  0  0  0  0  0  0  0  0  0
    7.1010    4.8371  -23.6216 C   0  0  0  0  0  0  0  0  0  0  0  0
    4.8862    3.6663  -23.3418 C   0  0  0  0  0  0  0  0  0  0  0  0
    5.5680    3.3642  -16.8396 C   0  0  0  0  0  0  0  0  0  0  0  0
    5.4885    3.3704  -18.3058 N   0  0  0  0  0  0  0  0  0  0  0  0
    4.4525    3.1450  -20.2650 N   0  3  0  0  0  0  0  0  0  0  0  0
    3.0780    3.9175  -18.4701 N   0  0  0  0  0  0  0  0  0  0  0  0
    7.5681    2.4146  -18.7897 O   0  0  0  0  0  0  0  0  0  0  0  0
    6.0545   -5.6151  -19.0549 F   0  0  0  0  0  0  0  0  0  0  0  0
    7.1987    2.1661  -23.4036 S   0  0  0  0  0  0  0  0  0  0  0  0
    2.2215   -2.8795  -17.0229 Cl  0  0  0  0  0  0  0  0  0  0  0  0
    6.1082   -2.3849  -22.2743 H   0  0  0  0  0  0  0  0  0  0  0  0
    6.9608   -0.5754  -23.7223 H   0  0  0  0  0  0  0  0  0  0  0  0
    4.9430    0.5194  -19.3171 H   0  0  0  0  0  0  0  0  0  0  0  0
    6.6233   -3.5014  -20.4880 H   0  0  0  0  0  0  0  0  0  0  0  0
    3.4480   -1.0593  -18.8816 H   0  0  0  0  0  0  0  0  0  0  0  0
    3.9716   -5.1120  -17.5085 H   0  0  0  0  0  0  0  0  0  0  0  0
    6.1466    4.8326  -21.0935 H   0  0  0  0  0  0  0  0  0  0  0  0
    7.6303    3.8224  -21.1625 H   0  0  0  0  0  0  0  0  0  0  0  0
    6.9763    4.7283  -24.7091 H   0  0  0  0  0  0  0  0  0  0  0  0
    6.6775    5.7995  -23.2985 H   0  0  0  0  0  0  0  0  0  0  0  0
    8.1715    4.8047  -23.3704 H   0  0  0  0  0  0  0  0  0  0  0  0
    4.8272    3.5485  -24.4338 H   0  0  0  0  0  0  0  0  0  0  0  0
    4.3731    2.8244  -22.8540 H   0  0  0  0  0  0  0  0  0  0  0  0
    4.4029    4.6099  -23.0483 H   0  0  0  0  0  0  0  0  0  0  0  0
    4.6836    3.8674  -16.4217 H   0  0  0  0  0  0  0  0  0  0  0  0
    5.6034    2.3256  -16.4788 H   0  0  0  0  0  0  0  0  0  0  0  0
    6.4770    3.8947  -16.5195 H   0  0  0  0  0  0  0  0  0  0  0  0
    3.7296    3.1333  -20.9558 H   0  0  0  0  0  0  0  0  0  0  0  0
    2.2616    3.9649  -19.0456 H   0  0  0  0  0  0  0  0  0  0  0  0
    3.0247    4.1721  -17.5045 H   0  0  0  0  0  0  0  0  0  0  0  0
  1  2  2  0  0  0  0
  1  7  1  0  0  0  0
  2 11  1  0  0  0  0
  3  7  2  0  0  0  0
  3  9  1  0  0  0  0
  4  8  1  0  0  0  0
  4 10  2  0  0  0  0
  5  8  2  0  0  0  0
  5 12  1  0  0  0  0
  6 10  1  0  0  0  0
  6 12  2  0  0  0  0
  7  8  1  0  0  0  0
  9 11  2  0  0  0  0
  9 16  1  0  0  0  0
 10 25  1  0  0  0  0
 11 26  1  0  0  0  0
 12 27  1  0  0  0  0
 13 16  1  0  0  0  0
 13 21  1  0  0  0  0
 13 24  2  0  0  0  0
 14 21  1  0  0  0  0
 14 22  2  0  0  0  0
 14 23  1  0  0  0  0
 15 16  1  0  0  0  0
 15 17  1  0  0  0  0
 16 22  1  0  0  0  0
 17 18  1  0  0  0  0
 17 19  1  0  0  0  0
 17 26  1  0  0  0  0
 20 21  1  0  0  0  0
  1 28  1  0  0  0  0
  2 29  1  0  0  0  0
  3 30  1  0  0  0  0
  4 31  1  0  0  0  0
  5 32  1  0  0  0  0
  6 33  1  0  0  0  0
 15 34  1  0  0  0  0
 15 35  1  0  0  0  0
 18 36  1  0  0  0  0
 18 37  1  0  0  0  0
 18 38  1  0  0  0  0
 19 39  1  0  0  0  0
 19 40  1  0  0  0  0
 19 41  1  0  0  0  0
 20 42  1  0  0  0  0
 20 43  1  0  0  0  0
 20 44  1  0  0  0  0
 22 45  1  0  0  0  0
 23 46  1  0  0  0  0
 23 47  1  0  0  0  0
M  CHG  1  22   1
M  END
> <OMEGA_C>
/OrBQHIDrr+agq/BlH7RQD/VrL5bB7bBwTatQBIrkj56FqLBxNm4QLp3WMAkoJ7B/79+QM7A/7/7
W5fBx/aIQKRYicDlHpHB9y2wQJZsh7/3b6XBCHeiQKDkCcB6YZ7BArm9QDBSqj/KgqjBvxesQF1I
jsDmDpjBIhLQQCv9fj+pl7LB+VhlQLVXRMAzxJDBZZXOQLnjM0Cd9ZjB8hWJQJXtX0CAFpjBJbDR
QK2DdkCQDavBx127QIQkMUBJF6TBWeHLQLsbbEAKO7fBkTvjQGDJmkAJ+bzBcVucQBGlakDru7rB
cS2yQP9OV0Bot4bBKaKvQEW0V0BhcpLBNnuOQG1HSUC0HqLBT/5EQF+4ekDJwpPBJi7yQGmIGkBi
UZbBp77BQPeus8B5cJjBilvmQLehCkB5OrvBwCwOQC9JOMDgLojBiHbDQEWiGMDAMbLB+L7eQNdL
E787x73BWS2eQA35BD91iZrBIPLTQKMWYMBT56PBZKtcQNGVh7+EDZfBBC5+QKOVo8ByEYzB6rDE
QLCkmkBpv6jBZCv0QPyhdEC3TKnB3D3fQJdOl0A0rMXB3a3VQFuVuUBUY7rBTr4CQXnAmUCI9rrB
BHiaQGgaY0B+eMPBhfCLQL3CNED51LbBl+SMQECEk0DXYrjBR+CVQO+Dd0C+X4PBU0+zQGjXFECH
1IPBVkPPQNVCeUD7J4TBK7JuQEeHSECJpafBW70QQCfBfUBMXZjB55NBQHSBhUBECYzBbB/IQLgi
sb98BK/B5t/VQHHprb4RkbXBjfqtQACfcT4vCaLBtnS5QE9WXMCAgp7BlLh+QNZyAcC5CpjBB5eF
QMVMisCJyJHBW9GzQDr2jL8GOqXBASOkQNatDMDteZ7BvDC6QEa8pj/cwqjB+zWqQE79j8AkM5jB
FOXOQD1Nfz9xnrLBdntgQP4uRcD1s5HB04PNQEt/Q0AEEZvBbp+HQDcNYEBiR5fBQVOyQE+fckDE
tK3Be2yxQFFILkADxqTB7nvYQCtOcUBpeLXB0WQBQdtahUD5CLDB/43OQAy3mEDefb7BI8W6QCF/
YUBc0ofBV4CxQFR0YkBkW5PBzlCGQAt2M0CQJqDBIvJHQBpWgUCzUZLBdzTyQLxEK0CWVpnBAwm/
QFzetcDoSZjB4V3fQKoEC0AhE7zB5PMFQDxMNsC7wInBcA3NQNgiGsA8dbHB0RLmQADmD78L/bzB
o/GfQLq35T5yU5rBIZTVQAIzZcBuaKPB9sBdQF5lib+XAJjBOcNzQL5fpMAn7YzBLBCVQAalakCZ
frLBJvGxQB7gmED0z6nBBXIOQcpXhEDx7rXBifn/QBTzpUCryazBg98EQVK3XUCIfqnB7DfpQMos
mUBMPMTB4wOxQMsEj0A8nsLBhVPKQCvcuECsELvB0aifQDFvfUB7bYPB1Me/QAMgH0AeK4XBeNDX
QBmag0CIPYbBHgZYQOsIGUDUSaPBtt0NQOw+ekCggpXBTItOQHkMkkABjIvB

> <OMEGA_E>
+MipPpavAz8=

> <OMEGA_NBR>
     92752

$$$$
290128
  -OEChem-04172616093D

 58 61  0     1  0  0  0  0  0999 V2000
    5.4033   -2.1762  -20.3507 C   0  0  0  0  0  0  0  0  0  0  0  0
    6.5468   -1.0176  -22.1870 C   0  0  0  0  0  0  0  0  0  0  0  0
    7.0231    0.1651  -22.7835 C   0  0  0  0  0  0  0  0  0  0  0  0
    5.3836    0.2805  -20.4602 C   0  0  0  0  0  0  0  0  0  0  0  0
    5.7608   -0.9630  -21.0105 C   0  0  0  0  0  0  0  0  0  0  0  0
    6.7059    1.3973  -22.2006 C   0  0  0  0  0  0  0  0  0  0  0  0
    5.8543    1.4477  -21.0850 C   0  0  0  0  0  0  0  0  0  0  0  0
    6.4355    2.9213  -19.2419 C   0  0  0  0  0  0  0  0  0  0  0  0
    4.2149    3.3220  -18.9287 C   0  0  0  0  0  0  0  0  0  0  0  0
    7.2476    2.7637  -22.4523 C   0  0  0  0  0  0  0  0  0  0  0  0
    5.6557    5.0658  -23.8608 C   0  0  0  0  0  0  0  0  0  0  0  0
    5.1486    4.2082  -22.6891 C   0  0  0  0  0  0  0  0  0  0  0  0
    7.0838    4.9801  -21.2420 C   0  0  0  0  0  0  0  0  0  0  0  0
    7.6721    5.7323  -22.4511 C   0  0  1  0  0  0  0  0  0  0  0  0
    6.5229    6.2310  -23.3479 C   0  0  1  0  0  0  0  0  0  0  0  0
    5.7213    2.8593  -20.5734 C   0  0  1  0  0  0  0  0  0  0  0  0
    6.2978    3.7385  -21.7274 C   0  0  2  0  0  0  0  0  0  0  0  0
    8.5313    6.9016  -21.9470 C   0  0  0  0  0  0  0  0  0  0  0  0
    6.3507    8.1247  -24.8294 C   0  0  0  0  0  0  0  0  0  0  0  0
    6.7075    5.9003  -14.7799 C   0  0  0  0  0  0  0  0  0  0  0  0
    5.6369    3.0285  -16.8794 C   0  0  0  0  0  0  0  0  0  0  0  0
    6.0231    4.4684  -16.5650 C   0  0  0  0  0  0  0  0  0  0  0  0
    5.1307   -3.1747  -19.8147 N   0  0  0  0  0  0  0  0  0  0  0  0
    5.4098    2.9276  -18.3129 N   0  0  0  0  0  0  0  0  0  0  0  0
    4.3312    3.1885  -20.2253 N   0  3  0  0  0  0  0  0  0  0  0  0
    3.0759    3.7788  -18.2832 N   0  0  0  0  0  0  0  0  0  0  0  0
    7.6323    2.7752  -19.0149 O   0  0  0  0  0  0  0  0  0  0  0  0
    7.0752    6.9326  -24.4755 O   0  0  0  0  0  0  0  0  0  0  0  0
    6.2631    4.5887  -15.1634 O   0  0  0  0  0  0  0  0  0  0  0  0
    6.7826   -1.9739  -22.6300 H   0  0  0  0  0  0  0  0  0  0  0  0
    7.6253    0.1222  -23.6791 H   0  0  0  0  0  0  0  0  0  0  0  0
    4.7524    0.3334  -19.5854 H   0  0  0  0  0  0  0  0  0  0  0  0
    8.2666    2.8513  -22.0475 H   0  0  0  0  0  0  0  0  0  0  0  0
    7.2622    2.9761  -23.5315 H   0  0  0  0  0  0  0  0  0  0  0  0
    6.2571    4.4375  -24.5343 H   0  0  0  0  0  0  0  0  0  0  0  0
    4.7938    5.4720  -24.4104 H   0  0  0  0  0  0  0  0  0  0  0  0
    4.4263    4.8007  -22.1083 H   0  0  0  0  0  0  0  0  0  0  0  0
    4.6481    3.3179  -23.0976 H   0  0  0  0  0  0  0  0  0  0  0  0
    7.9008    4.6587  -20.5793 H   0  0  0  0  0  0  0  0  0  0  0  0
    6.4060    5.6486  -20.6908 H   0  0  0  0  0  0  0  0  0  0  0  0
    8.3054    5.0431  -23.0291 H   0  0  0  0  0  0  0  0  0  0  0  0
    5.8872    6.9083  -22.7588 H   0  0  0  0  0  0  0  0  0  0  0  0
    8.9547    7.4431  -22.8058 H   0  0  0  0  0  0  0  0  0  0  0  0
    7.9072    7.5859  -21.3537 H   0  0  0  0  0  0  0  0  0  0  0  0
    9.3475    6.5131  -21.3202 H   0  0  0  0  0  0  0  0  0  0  0  0
    6.8313    8.6029  -25.6957 H   0  0  0  0  0  0  0  0  0  0  0  0
    5.3137    7.8612  -25.0847 H   0  0  0  0  0  0  0  0  0  0  0  0
    6.3530    8.8214  -23.9782 H   0  0  0  0  0  0  0  0  0  0  0  0
    6.8743    5.9282  -13.6930 H   0  0  0  0  0  0  0  0  0  0  0  0
    7.6471    6.1358  -15.3011 H   0  0  0  0  0  0  0  0  0  0  0  0
    5.9414    6.6411  -15.0524 H   0  0  0  0  0  0  0  0  0  0  0  0
    6.4499    2.3502  -16.5814 H   0  0  0  0  0  0  0  0  0  0  0  0
    4.7186    2.7611  -16.3361 H   0  0  0  0  0  0  0  0  0  0  0  0
    6.9348    4.7354  -17.1197 H   0  0  0  0  0  0  0  0  0  0  0  0
    5.2048    5.1424  -16.8584 H   0  0  0  0  0  0  0  0  0  0  0  0
    3.5849    3.2946  -20.8824 H   0  0  0  0  0  0  0  0  0  0  0  0
    2.2680    4.0330  -18.8148 H   0  0  0  0  0  0  0  0  0  0  0  0
    3.0625    3.8541  -17.2862 H   0  0  0  0  0  0  0  0  0  0  0  0
  1  5  1  0  0  0  0
  1 23  3  0  0  0  0
  2  3  2  0  0  0  0
  2  5  1  0  0  0  0
  3  6  1  0  0  0  0
  4  5  2  0  0  0  0
  4  7  1  0  0  0  0
  6  7  2  0  0  0  0
  6 10  1  0  0  0  0
  7 16  1  0  0  0  0
  8 16  1  0  0  0  0
  8 24  1  0  0  0  0
  8 27  2  0  0  0  0
  9 24  1  0  0  0  0
  9 25  2  0  0  0  0
  9 26  1  0  0  0  0
 10 17  1  0  0  0  0
 11 12  1  0  0  0  0
 11 15  1  0  0  0  0
 12 17  1  0  0  0  0
 13 14  1  0  0  0  0
 13 17  1  0  0  0  0
 14 15  1  0  0  0  0
 14 18  1  0  0  0  0
 15 28  1  0  0  0  0
 16 17  1  0  0  0  0
 16 25  1  0  0  0  0
 19 28  1  0  0  0  0
 20 29  1  0  0  0  0
 21 22  1  0  0  0  0
 21 24  1  0  0  0  0
 22 29  1  0  0  0  0
  2 30  1  0  0  0  0
  3 31  1  0  0  0  0
  4 32  1  0  0  0  0
 10 33  1  0  0  0  0
 10 34  1  0  0  0  0
 11 35  1  0  0  0  0
 11 36  1  0  0  0  0
 12 37  1  0  0  0  0
 12 38  1  0  0  0  0
 13 39  1  0  0  0  0
 13 40  1  0  0  0  0
 14 41  1  0  0  0  0
 15 42  1  0  0  0  0
 18 43  1  0  0  0  0
 18 44  1  0  0  0  0
 18 45  1  0  0  0  0
 19 46  1  0  0  0  0
 19 47  1  0  0  0  0
 19 48  1  0  0  0  0
 20 49  1  0  0  0  0
 20 50  1  0  0  0  0
 20 51  1  0  0  0  0
 21 52  1  0  0  0  0
 21 53  1  0  0  0  0
 22 54  1  0  0  0  0
 22 55  1  0  0  0  0
 25 56  1  0  0  0  0
 26 57  1  0  0  0  0
 26 58  1  0  0  0  0
M  CHG  1  25   1
M  END
> <OMEGA_C>
o+esQIZHC8A/zqLB+n7RQDZAgr/hfrHBV73gQEgIKT6zRLbBn0asQLyajz55rqPBUVi4QOKEdr98
FajBCZfWQPXZsj/PmrHBqVa7QPdOuT8TrqjB1O/NQI72OkBZ75nBdeCGQAacVEDxbZfB++vnQM7g
MEBFnrPBq/u0QPQaokDk4r7BOsGkQHuphkAtg7XBLq7iQC1dn0CQ76nBHYL1QPdut0Dum7PBcbvQ
QC9kx0BsyLrB6hS3QOb+NkBHlqTBT4fJQDZEb0DP0a3BaIAIQc3Z3ECIk6/B9zjLQPD+AUGtosbB
5aPWQPnOvECjemzBI2G0QLbTQUAHCYfBlb3AQEn9jkAhhYTB/y6kQKouS8CRhJ7BvRytQKJdO0Dh
gJLBZZmKQAYQTEB6zaHBFtxEQHDYcUAQRJLBrzv0QCadMUCPHpjBSWjiQAnY3UDOzcPBZ2vIQLnW
kkBjnXLB2ArZQJOo/L8qCrXBFgL0QFIt+j3Bbr3BvROYQJCxqj4Ar5zBEEQEQbl7NkBIYbDB0WPo
QD54PkB8QLzB7TnIQLv/jUAzRsTBzGaZQEAar0CVSMPBc6SNQIifmUDc3bDBgL2UQHNYVEDtx7jB
J9P8QEUUlUBSoqTBCP7MQIHBtEDQhqXBx+IEQWlhoUCsO7jBmGO8QC8R3UD3EbbBY0YPQRku7kBW
crbBrAf9QBXA8kBW1KrBeY8VQXdr0EC8j6rBppnaQH+lCUHOkM3B2gmqQPuO+0CGrcjBA0zLQHsk
DUFJ07/B6/nbQCq0vUCVFlvBTbX0QNNYxEBQ0XTB4B++QM+D1EC31nDBuGXOQMxpFkDFpoTBYf6W
QDO2MEBOsILBv+ndQCKIl0AT9YjBBo6mQMSOpEAH3obB425lQEzbUkAfD6fBSiYRQKcOgUC2hJbB
cf9DQG+pdkAOSorB6EKoQKJiC8DH5aLBtuXNQFyIhb+jibHBctndQPBCAj6WW7bBmGSsQHDejz72
R6PBuNu1QBSOeL/h86fBlHfVQBICrz8vmLHBck28QGjCtz8BT6jBlvPOQKkYQUAQ6pnBPNKHQA9I
XUAGmpfBgGrmQPd8LkAVE7TBrh+3QECqpkC6AL7BTEmmQJhCikB23bTBgJ7nQD7XnEC2uanBeGP6
QGB5tUCcPbPBln/VQMpeyUBwprnB6gi4QPvfNkBWb6TBbOLKQOfhbkDCsq3B9aIMQR7U10A9BK/B
tsfRQEjBBEFMSMTBdzkDQftcEEDufYDBOPK3QIt/eEAjxYfBSlG5QE8GJ0A+3YDBbKCdQKoLS8Dl
057BnKCwQOG/Y0CTD5PB6ESLQI/CSkCCx6HBfblCQNeea0DCX5LBZpP0QPPtL0AtJ5jBWOfmQKBD
4UDTc8LBWODcQN634D+btoPBMgrUQKA8AMCCLbXBn1XwQGJVjj21pL3BcIGZQD6Osj7aEJzBChAE
QYZOM0AEnbHBRcfjQL1nO0Ays7zBrIjIQJWfkkAGyMPBaeabQL8mtkDjBMLBcfSQQKmPnUA6y6/B
wCaUQHkUX0DpXbjBEfMAQTvMj0Du3KTBoknUQHHHskCA06TBPw4GQYYln0A2Z7jBFjrDQMS13kAV
WbTBXnYTQcuy6UBhybXBbeYDQfX57UDfwKnBaJkZQcVlyEC+e6rBms3gQEnvDEEAHMvBYcOvQPrl
AUFtCcbBvJzUQPfRDkEoGb3B0LIPQSC4xT+z+oLB2SAGQVG8TkBJToTBS6ADQQ3QF0C8fG/BLOCd
QMz5kEAO7ITBQKDWQKw7jUCcAYfBEHW8QJyPOUB90nDBLlKbQGhSA0CQ/4HBKv1lQOQ1SkDR/abB
EZcLQOUTaECIaZbBJ19CQNSBeUCVkIrB

> <OMEGA_E>
yJ2DPzPpgz8=

> <OMEGA_NBR>
     20330

$$$$
298703
  -OEChem-04172616093D

 57 60  0     1  0  0  0  0  0999 V2000
    4.8107   -2.0262  -20.3868 C   0  0  0  0  0  0  0  0  0  0  0  0
    6.4710   -1.0680  -21.9487 C   0  0  0  0  0  0  0  0  0  0  0  0
    7.1007    0.0565  -22.5334 C   0  0  0  0  0  0  0  0  0  0  0  0
    5.1572    0.3938  -20.4919 C   0  0  0  0  0  0  0  0  0  0  0  0
    5.4850   -0.8971  -20.9453 C   0  0  0  0  0  0  0  0  0  0  0  0
    6.7559    1.3500  -22.0982 C   0  0  0  0  0  0  0  0  0  0  0  0
    5.7993    1.4950  -21.0827 C   0  0  0  0  0  0  0  0  0  0  0  0
    6.4739    2.9548  -19.2751 C   0  0  0  0  0  0  0  0  0  0  0  0
    4.2315    3.3141  -18.9410 C   0  0  0  0  0  0  0  0  0  0  0  0
    7.2718    2.7219  -22.4789 C   0  0  0  0  0  0  0  0  0  0  0  0
    5.2359    4.3014  -22.6661 C   0  0  0  0  0  0  0  0  0  0  0  0
    7.2183    4.9778  -21.2577 C   0  0  0  0  0  0  0  0  0  0  0  0
    5.7438    5.1859  -23.8171 C   0  0  2  0  0  0  0  0  0  0  0  0
    7.7767    5.7976  -22.4300 C   0  0  1  0  0  0  0  0  0  0  0  0
    6.6157    6.3380  -23.2801 C   0  0  0  0  0  0  0  0  0  0  0  0
    5.7453    2.9132  -20.5922 C   0  0  1  0  0  0  0  0  0  0  0  0
    6.3749    3.7604  -21.7426 C   0  0  0  0  0  0  0  0  0  0  0  0
    4.5229    5.7639  -24.5529 C   0  0  0  0  0  0  0  0  0  0  0  0
    8.6116    6.9681  -21.8765 C   0  0  0  0  0  0  0  0  0  0  0  0
    5.6167    4.8723  -16.5739 C   0  0  0  0  0  0  0  0  0  0  0  0
    5.7461    3.3647  -16.9130 C   0  0  0  0  0  0  0  0  0  0  0  0
    6.2605    5.8432  -17.6068 C   0  0  0  0  0  0  0  0  0  0  0  0
    4.2433   -2.9368  -19.9306 N   0  0  0  0  0  0  0  0  0  0  0  0
    5.4750    3.0884  -18.3256 N   0  0  0  0  0  0  0  0  0  0  0  0
    4.3697    3.2895  -20.2411 N   0  3  0  0  0  0  0  0  0  0  0  0
    3.0356    3.6060  -18.3062 N   0  0  0  0  0  0  0  0  0  0  0  0
    7.6674    2.7553  -19.0728 O   0  0  0  0  0  0  0  0  0  0  0  0
    7.1441    7.0807  -24.3743 O   0  0  0  0  0  0  0  0  0  0  0  0
    6.3658    7.0731  -17.0509 F   0  0  0  0  0  0  0  0  0  0  0  0
    7.5086    5.4399  -17.9738 F   0  0  0  0  0  0  0  0  0  0  0  0
    5.4544    5.9681  -18.6923 F   0  0  0  0  0  0  0  0  0  0  0  0
    6.7438   -2.0626  -22.2691 H   0  0  0  0  0  0  0  0  0  0  0  0
    7.8409   -0.0770  -23.3085 H   0  0  0  0  0  0  0  0  0  0  0  0
    4.4285    0.5350  -19.7074 H   0  0  0  0  0  0  0  0  0  0  0  0
    8.3192    2.8340  -22.1619 H   0  0  0  0  0  0  0  0  0  0  0  0
    7.2009    2.8646  -23.5673 H   0  0  0  0  0  0  0  0  0  0  0  0
    4.5425    4.8945  -22.0517 H   0  0  0  0  0  0  0  0  0  0  0  0
    4.7007    3.4427  -23.0976 H   0  0  0  0  0  0  0  0  0  0  0  0
    8.0584    4.6083  -20.6514 H   0  0  0  0  0  0  0  0  0  0  0  0
    6.5800    5.6286  -20.6420 H   0  0  0  0  0  0  0  0  0  0  0  0
    6.3355    4.5748  -24.5145 H   0  0  0  0  0  0  0  0  0  0  0  0
    8.4172    5.1556  -23.0526 H   0  0  0  0  0  0  0  0  0  0  0  0
    5.9900    6.9860  -22.6489 H   0  0  0  0  0  0  0  0  0  0  0  0
    4.8621    6.4017  -25.3825 H   0  0  0  0  0  0  0  0  0  0  0  0
    3.9107    4.9408  -24.9499 H   0  0  0  0  0  0  0  0  0  0  0  0
    3.9223    6.3626  -23.8522 H   0  0  0  0  0  0  0  0  0  0  0  0
    9.0144    7.5592  -22.7122 H   0  0  0  0  0  0  0  0  0  0  0  0
    7.9745    7.6081  -21.2485 H   0  0  0  0  0  0  0  0  0  0  0  0
    9.4422    6.5728  -21.2733 H   0  0  0  0  0  0  0  0  0  0  0  0
    4.5460    5.1139  -16.5017 H   0  0  0  0  0  0  0  0  0  0  0  0
    6.0979    5.0443  -15.5998 H   0  0  0  0  0  0  0  0  0  0  0  0
    6.7691    3.0356  -16.6780 H   0  0  0  0  0  0  0  0  0  0  0  0
    5.0292    2.8008  -16.2981 H   0  0  0  0  0  0  0  0  0  0  0  0
    3.6457    3.4964  -20.8991 H   0  0  0  0  0  0  0  0  0  0  0  0
    2.2200    3.8124  -18.8467 H   0  0  0  0  0  0  0  0  0  0  0  0
    2.9879    3.6105  -17.3073 H   0  0  0  0  0  0  0  0  0  0  0  0
    7.6818    7.7913  -24.0450 H   0  0  0  0  0  0  0  0  0  0  0  0
  1  5  1  0  0  0  0
  1 23  3  0  0  0  0
  2  3  2  0  0  0  0
  2  5  1  0  0  0  0
  3  6  1  0  0  0  0
  4  5  2  0  0  0  0
  4  7  1  0  0  0  0
  6  7  2  0  0  0  0
  6 10  1  0  0  0  0
  7 16  1  0  0  0  0
  8 16  1  0  0  0  0
  8 24  1  0  0  0  0
  8 27  2  0  0  0  0
  9 24  1  0  0  0  0
  9 25  2  0  0  0  0
  9 26  1  0  0  0  0
 10 17  1  0  0  0  0
 11 13  1  0  0  0  0
 11 17  1  0  0  0  0
 12 14  1  0  0  0  0
 12 17  1  0  0  0  0
 13 15  1  0  0  0  0
 13 18  1  0  0  0  0
 14 15  1  0  0  0  0
 14 19  1  0  0  0  0
 15 28  1  0  0  0  0
 16 17  1  0  0  0  0
 16 25  1  0  0  0  0
 20 21  1  0  0  0  0
 20 22  1  0  0  0  0
 21 24  1  0  0  0  0
 22 29  1  0  0  0  0
 22 30  1  0  0  0  0
 22 31  1  0  0  0  0
  2 32  1  0  0  0  0
  3 33  1  0  0  0  0
  4 34  1  0  0  0  0
 10 35  1  0  0  0  0
 10 36  1  0  0  0  0
 11 37  1  0  0  0  0
 11 38  1  0  0  0  0
 12 39  1  0  0  0  0
 12 40  1  0  0  0  0
 13 41  1  0  0  0  0
 14 42  1  0  0  0  0
 15 43  1  0  0  0  0
 18 44  1  0  0  0  0
 18 45  1  0  0  0  0
 18 46  1  0  0  0  0
 19 47  1  0  0  0  0
 19 48  1  0  0  0  0
 19 49  1  0  0  0  0
 20 50  1  0  0  0  0
 20 51  1  0  0  0  0
 21 52  1  0  0  0  0
 21 53  1  0  0  0  0
 25 54  1  0  0  0  0
 26 55  1  0  0  0  0
 26 56  1  0  0  0  0
 28 57  1  0  0  0  0
M  CHG  1  25   1
M  END
> <OMEGA_C>
//CZQO6tAcAhGKPB0xLPQOiyiL/nlq/B7jjjQAA/Zz1xRLTB7gelQBCcyT5i76PBtoSvQCimZb8L
kKfBeTDYQITMrD81ybDBupO5QDxcvz9FqajBNyrPQAYcPUBzM5rB2GiHQPIaVEA8h5fByLLoQE40
LkDB1LPBRIynQDeliUATVLXB7vvmQBFKn0DKD6rBNM23QEnzpUBvib7BiNr4QAGGuUCRcLPBtLPT
QJfQykCnPbrBjdm3QO5xOkDXvKTBX//LQOKpcEDD8K3BUbuQQBNyuEBCbMTBR8kJQWH63kAjA6/B
NbyzQMHpm0Bml4TBauC3QOpWV0DRTYfBIFbIQC37ukDQ2ozBRcmHQGX0O8DFcZ/BKjOvQA6pRUC+
mpLBxNSLQNaHUkDM7aHBAUhCQD7JZkAWc5LBdlv1QGZXMEAflZjBcpzkQCWV4kCO/sLB1LTLQDlX
4kAoaIjB3EbwQPkTrkBXyo/BEIquQNn6vkDoiZXB08zXQAMCBMAmJ7LBpej6QNaynb27d7rBcraN
QHb1CD+1qJ3BZBsFQQRgNUCUS7HBhG3mQKtVN0DMibzBxVuRQPGfnEDxabDBb2yWQNdUXEDMx7jB
GO8AQRJ3k0D6NaXBqo/SQL0dtEDVIqXBurzKQHtkkkCdHcTBs6wGQd36pECna7jBvq2/QI2N30Db
MLXBMpabQFTazEBHD8vB1Uh6QNIankB4mcfBhQZ7QF2ay0Bd0b7BHzsQQa/k8UCasrXBFy//QDV1
80Df/KnBYRMXQSxU0kDCL6rB8niRQMCko0ByA4TBXCLDQIdqoUDrmHnBq5zYQDBHQkCUbIXBgO+g
QDFAM0CMYoLBIVNpQEnFX0BtMafBWBQOQIv9c0AJxpbBQjk/QLQRZ0BydYrBmtH1QB5S+UAtXMDB

> <OMEGA_E>
N8OKPw==

> <OMEGA_NBR>
     21588

$$$$
298712
  -OEChem-04172616093D

 58 62  0     1  0  0  0  0  0999 V2000
    5.5204   -2.1758  -20.2904 C   0  0  0  0  0  0  0  0  0  0  0  0
    6.5544   -1.0076  -22.1863 C   0  0  0  0  0  0  0  0  0  0  0  0
    7.0024    0.1807  -22.7953 C   0  0  0  0  0  0  0  0  0  0  0  0
    5.4208    0.2781  -20.4311 C   0  0  0  0  0  0  0  0  0  0  0  0
    5.8100   -0.9615  -20.9823 C   0  0  0  0  0  0  0  0  0  0  0  0
    6.6960    1.4088  -22.1974 C   0  0  0  0  0  0  0  0  0  0  0  0
    5.8567    1.4501  -21.0730 C   0  0  0  0  0  0  0  0  0  0  0  0
    6.4368    2.9343  -19.2471 C   0  0  0  0  0  0  0  0  0  0  0  0
    4.2122    3.3437  -18.9292 C   0  0  0  0  0  0  0  0  0  0  0  0
    7.2636    2.7746  -22.4124 C   0  0  0  0  0  0  0  0  0  0  0  0
    6.7333    4.9789  -15.3921 C   0  0  0  0  0  0  0  0  0  0  0  0
    7.3161    5.1557  -16.8060 C   0  0  0  0  0  0  0  0  0  0  0  0
    5.1560    4.1932  -22.6736 C   0  0  0  0  0  0  0  0  0  0  0  0
    7.0329    5.0131  -21.2147 C   0  0  0  0  0  0  0  0  0  0  0  0
    5.8964    4.6202  -16.6108 C   0  0  0  0  0  0  0  0  0  0  0  0
    5.6795    5.0005  -23.8739 C   0  0  2  0  0  0  0  0  0  0  0  0
    7.6588    5.7574  -22.4066 C   0  0  1  0  0  0  0  0  0  0  0  0
    6.5724    6.1825  -23.4196 C   0  0  0  0  0  0  0  0  0  0  0  0
    5.7151    2.8625  -20.5651 C   0  0  1  0  0  0  0  0  0  0  0  0
    6.2927    3.7451  -21.7077 C   0  0  0  0  0  0  0  0  0  0  0  0
    4.4686    5.5195  -24.6633 C   0  0  0  0  0  0  0  0  0  0  0  0
    8.4259    6.9833  -21.8820 C   0  0  0  0  0  0  0  0  0  0  0  0
    5.6430    3.1434  -16.8865 C   0  0  0  0  0  0  0  0  0  0  0  0
    5.3079   -3.1729  -19.7252 N   0  0  0  0  0  0  0  0  0  0  0  0
    5.4184    2.9908  -18.3118 N   0  0  0  0  0  0  0  0  0  0  0  0
    4.3261    3.1914  -20.2218 N   0  3  0  0  0  0  0  0  0  0  0  0
    3.0643    3.7810  -18.2865 N   0  0  0  0  0  0  0  0  0  0  0  0
    7.6300    2.7341  -19.0439 O   0  0  0  0  0  0  0  0  0  0  0  0
    7.2265    6.7127  -24.5676 O   0  0  0  0  0  0  0  0  0  0  0  0
    6.7801   -1.9609  -22.6407 H   0  0  0  0  0  0  0  0  0  0  0  0
    7.5743    0.1449  -23.7107 H   0  0  0  0  0  0  0  0  0  0  0  0
    4.8070    0.3247  -19.5437 H   0  0  0  0  0  0  0  0  0  0  0  0
    8.2676    2.8469  -21.9689 H   0  0  0  0  0  0  0  0  0  0  0  0
    7.3203    3.0017  -23.4872 H   0  0  0  0  0  0  0  0  0  0  0  0
    7.1163    4.1846  -14.7346 H   0  0  0  0  0  0  0  0  0  0  0  0
    6.4761    5.8620  -14.7888 H   0  0  0  0  0  0  0  0  0  0  0  0
    7.4737    6.1644  -17.2155 H   0  0  0  0  0  0  0  0  0  0  0  0
    8.1139    4.4870  -17.1613 H   0  0  0  0  0  0  0  0  0  0  0  0
    4.4441    4.8173  -22.1135 H   0  0  0  0  0  0  0  0  0  0  0  0
    4.6408    3.2972  -23.0501 H   0  0  0  0  0  0  0  0  0  0  0  0
    7.8263    4.7207  -20.5111 H   0  0  0  0  0  0  0  0  0  0  0  0
    6.3182    5.6768  -20.7060 H   0  0  0  0  0  0  0  0  0  0  0  0
    5.0778    5.3108  -16.8619 H   0  0  0  0  0  0  0  0  0  0  0  0
    6.2714    4.3365  -24.5210 H   0  0  0  0  0  0  0  0  0  0  0  0
    8.3680    5.0850  -22.9114 H   0  0  0  0  0  0  0  0  0  0  0  0
    5.9342    6.9478  -22.9536 H   0  0  0  0  0  0  0  0  0  0  0  0
    4.8169    6.1017  -25.5292 H   0  0  0  0  0  0  0  0  0  0  0  0
    3.8664    4.6678  -25.0125 H   0  0  0  0  0  0  0  0  0  0  0  0
    3.8549    6.1606  -24.0135 H   0  0  0  0  0  0  0  0  0  0  0  0
    8.8777    7.5230  -22.7273 H   0  0  0  0  0  0  0  0  0  0  0  0
    7.7314    7.6504  -21.3504 H   0  0  0  0  0  0  0  0  0  0  0  0
    9.2171    6.6532  -21.1929 H   0  0  0  0  0  0  0  0  0  0  0  0
    6.5171    2.5501  -16.5798 H   0  0  0  0  0  0  0  0  0  0  0  0
    4.7567    2.8054  -16.3296 H   0  0  0  0  0  0  0  0  0  0  0  0
    3.5786    3.2849  -20.8794 H   0  0  0  0  0  0  0  0  0  0  0  0
    2.2477    4.0044  -18.8186 H   0  0  0  0  0  0  0  0  0  0  0  0
    3.0530    3.8730  -17.2908 H   0  0  0  0  0  0  0  0  0  0  0  0
    7.7801    7.4403  -24.3093 H   0  0  0  0  0  0  0  0  0  0  0  0
  1  5  1  0  0  0  0
  1 24  3  0  0  0  0
  2  3  2  0  0  0  0
  2  5  1  0  0  0  0
  3  6  1  0  0  0  0
  4  5  2  0  0  0  0
  4  7  1  0  0  0  0
  6  7  2  0  0  0  0
  6 10  1  0  0  0  0
  7 19  1  0  0  0  0
  8 19  1  0  0  0  0
  8 25  1  0  0  0  0
  8 28  2  0  0  0  0
  9 25  1  0  0  0  0
  9 26  2  0  0  0  0
  9 27  1  0  0  0  0
 10 20  1  0  0  0  0
 11 12  1  0  0  0  0
 11 15  1  0  0  0  0
 12 15  1  0  0  0  0
 13 16  1  0  0  0  0
 13 20  1  0  0  0  0
 14 17  1  0  0  0  0
 14 20  1  0  0  0  0
 15 23  1  0  0  0  0
 16 18  1  0  0  0  0
 16 21  1  0  0  0  0
 17 18  1  0  0  0  0
 17 22  1  0  0  0  0
 18 29  1  0  0  0  0
 19 20  1  0  0  0  0
 19 26  1  0  0  0  0
 23 25  1  0  0  0  0
  2 30  1  0  0  0  0
  3 31  1  0  0  0  0
  4 32  1  0  0  0  0
 10 33  1  0  0  0  0
 10 34  1  0  0  0  0
 11 35  1  0  0  0  0
 11 36  1  0  0  0  0
 12 37  1  0  0  0  0
 12 38  1  0  0  0  0
 13 39  1  0  0  0  0
 13 40  1  0  0  0  0
 14 41  1  0  0  0  0
 14 42  1  0  0  0  0
 15 43  1  0  0  0  0
 16 44  1  0  0  0  0
 17 45  1  0  0  0  0
 18 46  1  0  0  0  0
 21 47  1  0  0  0  0
 21 48  1  0  0  0  0
 21 49  1  0  0  0  0
 22 50  1  0  0  0  0
 22 51  1  0  0  0  0
 22 52  1  0  0  0  0
 23 53  1  0  0  0  0
 23 54  1  0  0  0  0
 26 55  1  0  0  0  0
 27 56  1  0  0  0  0
 27 57  1  0  0  0  0
 29 58  1  0  0  0  0
M  CHG  1  26   1
M  END
> <OMEGA_C>
y6awQE5AC8DKUqLBgb3RQBv4gL9xfbHBvBPgQKABOT7MXLbBF3etQMhfjj7tcqPBr+u5QHAndr+z
26fBTkXWQHpUtD9VlLHBJ2q7QEabuT9zlajBX/rNQNPLO0AF+pnBTMqGQE//VUDnbpfBXG/oQMmS
MUCRTLPBJnfXQGxTn0D8RXbBZx3qQJj7pECWcobB1v2kQGwuhkB4Y7XBZw3hQH5roECdt6nBLq+8
QHrYk0Dz4oTB1b61QC4EoEDO/b7BkhT1QN48uECuQLPBvlDSQDbXxUBWW7vBs+G2QOczN0BShaTB
Hl7JQC+vb0Bfqa3BDP+OQLyfsEBwTsXBY9AGQRR330BqDq/B2ZO0QBUtSUCQF4fBldqpQDYQS8BB
zZ3BN2OtQOtpP0CpfpLB0m+KQHk/TEBWxqHBwB1EQIv7cUDASpLBBSn0QEv7LkD3WZjBzz/nQJrO
1kBaisTB5PbYQOH/+r8uILXBCGHyQNJTFD6Xr73BIdOZQNA7pj57WZzBLEgEQU80NkBFwK/Btj/q
QPobQEDD5bvBqLjjQOvnhUDuwGvBEDzPQKiVu0DDnmzBbijvQNtCxUA+uYnBg9IBQR+Vj0BTSonB
WjaOQEgnmkBZ6LDBFYGUQC4FU0CVZrjBbHH6QEcQl0DQFqTBeC7KQIKotUD4paXBhn2iQNjxqUAh
5YbBRa/IQEDEikAUK8TBU+MFQSm4okBzSrfBP+W9QJlU3kATobfBECSaQNtAw0DPO8zBinJ3QOVe
lUCZGcjB6bZ2QOsjxUCQG8DBGQsOQYy88ECY0bXBUGf3QLHP9ECPzarBZ3kTQffm1EAEi6nB34vQ
QHU0I0Bpo4TB5zaYQO6KM0ALo4LBiwdlQDU7UkAOCafBjNkPQOwjgECIjJbBwWNDQB7fd0CSU4rB
xPb4QOUW7kCCecLB

> <OMEGA_E>
HdqCPw==

> <OMEGA_NBR>
     29502

$$$$
50215530
  -OEChem-04172616093D

 44 47  0     1  0  0  0  0  0999 V2000
    2.7584   -2.9421  -17.3278 C   0  0  0  0  0  0  0  0  0  0  0  0
    5.7505   -4.3252  -19.1014 C   0  0  0  0  0  0  0  0  0  0  0  0
    6.7363   -0.0667  -22.7861 C   0  0  0  0  0  0  0  0  0  0  0  0
    4.6380   -4.2281  -18.2467 C   0  0  0  0  0  0  0  0  0  0  0  0
    6.1186   -3.2308  -19.9007 C   0  0  0  0  0  0  0  0  0  0  0  0
    6.3250   -1.1361  -21.9820 C   0  0  0  0  0  0  0  0  0  0  0  0
    6.5990    1.2488  -22.3259 C   0  0  0  0  0  0  0  0  0  0  0  0
    4.2615   -1.9317  -18.9858 C   0  0  0  0  0  0  0  0  0  0  0  0
    5.5785    0.4304  -20.2682 C   0  0  0  0  0  0  0  0  0  0  0  0
    3.8946   -3.0319  -18.1878 C   0  0  0  0  0  0  0  0  0  0  0  0
    5.3737   -2.0290  -19.8532 C   0  0  0  0  0  0  0  0  0  0  0  0
    5.7570   -0.8956  -20.7121 C   0  0  0  0  0  0  0  0  0  0  0  0
    6.0052    1.5156  -21.0651 C   0  0  0  0  0  0  0  0  0  0  0  0
    6.5108    3.0356  -19.1590 C   0  0  0  0  0  0  0  0  0  0  0  0
    4.2542    3.3531  -18.9302 C   0  0  0  0  0  0  0  0  0  0  0  0
    5.8115    4.2629  -22.8618 C   0  0  0  0  0  0  0  0  0  0  0  0
    5.7537    5.3357  -21.7702 C   0  0  0  0  0  0  0  0  0  0  0  0
    6.4673    4.0039  -21.4913 C   0  0  0  0  0  0  0  0  0  0  0  0
    5.8539    2.9403  -20.5244 C   0  0  1  0  0  0  0  0  0  0  0  0
    5.6174    3.1537  -16.8025 C   0  0  0  0  0  0  0  0  0  0  0  0
    1.8293   -2.8754  -16.6270 N   0  0  0  0  0  0  0  0  0  0  0  0
    5.4847    3.2831  -18.2620 N   0  0  0  0  0  0  0  0  0  0  0  0
    4.4316    3.2025  -20.2258 N   0  3  0  0  0  0  0  0  0  0  0  0
    3.0297    3.5745  -18.3174 N   0  0  0  0  0  0  0  0  0  0  0  0
    7.6910    2.8356  -18.8951 O   0  0  0  0  0  0  0  0  0  0  0  0
    6.3214   -5.2410  -19.1432 H   0  0  0  0  0  0  0  0  0  0  0  0
    7.1596   -0.2562  -23.7614 H   0  0  0  0  0  0  0  0  0  0  0  0
    4.3529   -5.0710  -17.6346 H   0  0  0  0  0  0  0  0  0  0  0  0
    6.9745   -3.3069  -20.5549 H   0  0  0  0  0  0  0  0  0  0  0  0
    6.4427   -2.1501  -22.3347 H   0  0  0  0  0  0  0  0  0  0  0  0
    6.9485    2.0682  -22.9365 H   0  0  0  0  0  0  0  0  0  0  0  0
    3.6939   -1.0142  -18.9355 H   0  0  0  0  0  0  0  0  0  0  0  0
    5.1122    0.6178  -19.3122 H   0  0  0  0  0  0  0  0  0  0  0  0
    4.8992    3.7184  -23.1467 H   0  0  0  0  0  0  0  0  0  0  0  0
    6.4395    4.4170  -23.7517 H   0  0  0  0  0  0  0  0  0  0  0  0
    6.3395    6.2606  -21.8777 H   0  0  0  0  0  0  0  0  0  0  0  0
    4.7991    5.5620  -21.2727 H   0  0  0  0  0  0  0  0  0  0  0  0
    7.5661    4.0543  -21.4826 H   0  0  0  0  0  0  0  0  0  0  0  0
    4.6603    3.4067  -16.3230 H   0  0  0  0  0  0  0  0  0  0  0  0
    5.8918    2.1189  -16.5498 H   0  0  0  0  0  0  0  0  0  0  0  0
    6.3997    3.8386  -16.4434 H   0  0  0  0  0  0  0  0  0  0  0  0
    3.7056    3.2578  -20.9113 H   0  0  0  0  0  0  0  0  0  0  0  0
    2.1974    3.6299  -18.8689 H   0  0  0  0  0  0  0  0  0  0  0  0
    2.9793    3.6787  -17.3241 H   0  0  0  0  0  0  0  0  0  0  0  0
  1 10  1  0  0  0  0
  1 21  3  0  0  0  0
  2  4  1  0  0  0  0
  2  5  2  0  0  0  0
  3  6  1  0  0  0  0
  3  7  2  0  0  0  0
  4 10  2  0  0  0  0
  5 11  1  0  0  0  0
  6 12  2  0  0  0  0
  7 13  1  0  0  0  0
  8 10  1  0  0  0  0
  8 11  2  0  0  0  0
  9 12  1  0  0  0  0
  9 13  2  0  0  0  0
 11 12  1  0  0  0  0
 13 19  1  0  0  0  0
 14 19  1  0  0  0  0
 14 22  1  0  0  0  0
 14 25  2  0  0  0  0
 15 22  1  0  0  0  0
 15 23  2  0  0  0  0
 15 24  1  0  0  0  0
 16 17  1  0  0  0  0
 16 18  1  0  0  0  0
 17 18  1  0  0  0  0
 18 19  1  0  0  0  0
 19 23  1  0  0  0  0
 20 22  1  0  0  0  0
  2 26  1  0  0  0  0
  3 27  1  0  0  0  0
  4 28  1  0  0  0  0
  5 29  1  0  0  0  0
  6 30  1  0  0  0  0
  7 31  1  0  0  0  0
  8 32  1  0  0  0  0
  9 33  1  0  0  0  0
 16 34  1  0  0  0  0
 16 35  1  0  0  0  0
 17 36  1  0  0  0  0
 17 37  1  0  0  0  0
 18 38  1  0  0  0  0
 20 39  1  0  0  0  0
 20 40  1  0  0  0  0
 20 41  1  0  0  0  0
 23 42  1  0  0  0  0
 24 43  1  0  0  0  0
 24 44  1  0  0  0  0
M  CHG  1  23   1
M  END
> <OMEGA_C>
cYkwQGJLPMBcn4rBxQO4QBxoisC2z5jBtI/XQHCwiL3cSbbBg2qUQGxMh8Ap+ZHBZ8vDQMPETsCt
NJ/BL2bKQMFrkb8L26/B6irTQBzYnz9Ym7LBEl6IQGBA97/14pfBxoKyQPhh3D46JaLBm0F5QDEK
QsCtgJHBZ/WrQDbbAcBO057BMjm4QEZEZb9XsqXBTSrAQKD/wT9FhajBlFjQQH5GQkClRZnBniKI
QBqZVkAPcZfB6ve5QNNpiEDz5LbBYR64QDu+qkBoKa7BJPTOQPsfgEAV7qvBR1O7QPwtPEDtMaTB
oMGzQFzWSUCUa4bBtCbqP1IGOMAvBIXBuYKvQMYeUkCQGJLBA9CNQKj1TEB5zqHBBOdBQIDEZEAL
ipLB1Bz2QNF6NUAXKZfBC0nKQD62p8AtJZnBFxvlQBQqg75uF77Bu0qLQFpFosCfE43BSC/fQGuk
U8B1cKTBlCrOQKOaCcBxrbLB61neQK9cBEDwfbfBwGhsQHrRgb/ge5fBT5ejQFknHj9cf5rBDMac
QHL6bUBfLLnBaRDOQA5YjUBtA77Bx9zKQKpWyEB0Ba/Ba5KZQNb7sUBmLqrBlR3yQDm9gUBz3KvB
QSGVQH8HWkBnlYLBaom8QCecB0DmZYTB9MnMQPirdUAkjIPBGCltQEyAUEBJSqfB3qEMQJFQaEB5
85bBWqw+QJlva0DQl4rB0OmXQPQoH8AbPIHB5EiXQH2cj8CTnJrB+MvgQBIVD7/lFLfBZQGTQMi/
hMDvuo/B2KWkQA9EYcDoEqLBOzzTQIFZxb/Jya/Bp9/WQNxGSz//SrXBEJ6pQI377r/ku5PBKKCx
QN2qOz5D4aTBvyacQImLNcBlSYzBZOmtQKjEDMDRtJ7BUsm7QBF4lr9LkabBvV2+QL/Glj8jRazB
XY6tQNwRW0BBmbTBafXoQEMgiEAeEazB1KmRQFr1NEBkkpbBwneGQNJohEBvX5zBk4qMQC8YNkC6
06LBjXW0QJNEKkA2NKrBKvvWQEsyp0AgTr7BnHiUQFi7DMAPeXDBEFjNQCefjEA94LTB/+DaQFyD
U0AaraXBE78GQf5UoEBIJarB6QWSQBIvTUDoX7vBI0yQQDjJr8DnPJ3BqeTyQIgYWL90FL7B9reI
QHCSnMALBorBTNmnQJhHcsDiaKrBR8HaQP0jJcDJO7HBoAPiQMnZxT8z1rrBaLewQCUtXb+HEZHB
1tWfQGrN7z4c1Z3BqIixQFJ+LEAn/ZLBtSBzQC3tFECbj5HBTbhMQGNokkAhgJvBdFSeQPYwnkCs
7ZzBzNJdQNXXGEBC3KXBpmzxQPQqvUC2arzBnkXgQKx3kkAJB8XB6G+6QKPMuUAhhMDBgGDoQGKB
Q0BFtJ7Bw3EPQRofm0D+jqPBnC8LQYvztkDYWa/B

> <OMEGA_E>
WHIEP2R7nj8=

> <OMEGA_NBR>
     43272

$$$$
50225091
  -OEChem-04172616093D

 50 53  0     1  0  0  0  0  0999 V2000
    2.7903   -2.9432  -17.3319 C   0  0  0  0  0  0  0  0  0  0  0  0
    5.8347   -4.3276  -19.0238 C   0  0  0  0  0  0  0  0  0  0  0  0
    4.7153   -4.2240  -18.1764 C   0  0  0  0  0  0  0  0  0  0  0  0
    6.1773   -3.2586  -19.8702 C   0  0  0  0  0  0  0  0  0  0  0  0
    6.3494   -1.1760  -22.0006 C   0  0  0  0  0  0  0  0  0  0  0  0
    6.7181   -0.0957  -22.8131 C   0  0  0  0  0  0  0  0  0  0  0  0
    4.2804   -1.9757  -19.0180 C   0  0  0  0  0  0  0  0  0  0  0  0
    5.5959    0.3782  -20.2830 C   0  0  0  0  0  0  0  0  0  0  0  0
    3.9361   -3.0488  -18.1775 C   0  0  0  0  0  0  0  0  0  0  0  0
    5.4046   -2.0743  -19.8676 C   0  0  0  0  0  0  0  0  0  0  0  0
    5.7785   -0.9441  -20.7327 C   0  0  0  0  0  0  0  0  0  0  0  0
    6.5394    1.2261  -22.3650 C   0  0  0  0  0  0  0  0  0  0  0  0
    6.0085    1.4703  -21.0752 C   0  0  0  0  0  0  0  0  0  0  0  0
    6.4945    2.9538  -19.1381 C   0  0  0  0  0  0  0  0  0  0  0  0
    4.2617    3.4039  -18.9653 C   0  0  0  0  0  0  0  0  0  0  0  0
    7.0474    2.3477  -23.2381 C   0  0  0  0  0  0  0  0  0  0  0  0
    6.4863    3.9874  -21.4151 C   0  0  0  0  0  0  0  0  0  0  0  0
    5.8642    2.8833  -20.5122 C   0  0  1  0  0  0  0  0  0  0  0  0
    6.3739    3.6996  -22.9304 C   0  0  0  0  0  0  0  0  0  0  0  0
    7.1496    4.7928  -23.6995 C   0  0  0  0  0  0  0  0  0  0  0  0
    4.8977    3.7052  -23.4085 C   0  0  0  0  0  0  0  0  0  0  0  0
    5.5982    3.2976  -16.8180 C   0  0  0  0  0  0  0  0  0  0  0  0
    1.8518   -2.8536  -16.6463 N   0  0  0  0  0  0  0  0  0  0  0  0
    5.4837    3.3428  -18.2805 N   0  0  0  0  0  0  0  0  0  0  0  0
    4.4481    3.1727  -20.2444 N   0  3  0  0  0  0  0  0  0  0  0  0
    3.0323    3.6857  -18.3916 N   0  0  0  0  0  0  0  0  0  0  0  0
    7.6635    2.7152  -18.8554 O   0  0  0  0  0  0  0  0  0  0  0  0
    6.4304   -5.2284  -19.0236 H   0  0  0  0  0  0  0  0  0  0  0  0
    4.4533   -5.0449  -17.5253 H   0  0  0  0  0  0  0  0  0  0  0  0
    7.0328   -3.3421  -20.5240 H   0  0  0  0  0  0  0  0  0  0  0  0
    6.5027   -2.1877  -22.3462 H   0  0  0  0  0  0  0  0  0  0  0  0
    7.1420   -0.2787  -23.7895 H   0  0  0  0  0  0  0  0  0  0  0  0
    3.6846   -1.0749  -19.0141 H   0  0  0  0  0  0  0  0  0  0  0  0
    5.1357    0.5578  -19.3226 H   0  0  0  0  0  0  0  0  0  0  0  0
    8.1311    2.4515  -23.0809 H   0  0  0  0  0  0  0  0  0  0  0  0
    6.8525    2.0897  -24.2896 H   0  0  0  0  0  0  0  0  0  0  0  0
    5.9720    4.9367  -21.2044 H   0  0  0  0  0  0  0  0  0  0  0  0
    7.5519    4.0831  -21.1595 H   0  0  0  0  0  0  0  0  0  0  0  0
    6.6939    5.7743  -23.5018 H   0  0  0  0  0  0  0  0  0  0  0  0
    8.1979    4.8016  -23.3664 H   0  0  0  0  0  0  0  0  0  0  0  0
    7.1093    4.5807  -24.7781 H   0  0  0  0  0  0  0  0  0  0  0  0
    4.4407    4.6788  -23.1777 H   0  0  0  0  0  0  0  0  0  0  0  0
    4.8634    3.5323  -24.4943 H   0  0  0  0  0  0  0  0  0  0  0  0
    4.3423    2.9081  -22.8925 H   0  0  0  0  0  0  0  0  0  0  0  0
    4.6628    3.6579  -16.3651 H   0  0  0  0  0  0  0  0  0  0  0  0
    5.7860    2.2624  -16.4969 H   0  0  0  0  0  0  0  0  0  0  0  0
    6.4321    3.9385  -16.4956 H   0  0  0  0  0  0  0  0  0  0  0  0
    3.7283    3.1910  -20.9384 H   0  0  0  0  0  0  0  0  0  0  0  0
    2.2114    3.7232  -18.9616 H   0  0  0  0  0  0  0  0  0  0  0  0
    2.9659    3.8515  -17.4077 H   0  0  0  0  0  0  0  0  0  0  0  0
  1  9  1  0  0  0  0
  1 23  3  0  0  0  0
  2  3  1  0  0  0  0
  2  4  2  0  0  0  0
  3  9  2  0  0  0  0
  4 10  1  0  0  0  0
  5  6  2  0  0  0  0
  5 11  1  0  0  0  0
  6 12  1  0  0  0  0
  7  9  1  0  0  0  0
  7 10  2  0  0  0  0
  8 11  2  0  0  0  0
  8 13  1  0  0  0  0
 10 11  1  0  0  0  0
 12 13  2  0  0  0  0
 12 16  1  0  0  0  0
 13 18  1  0  0  0  0
 14 18  1  0  0  0  0
 14 24  1  0  0  0  0
 14 27  2  0  0  0  0
 15 24  1  0  0  0  0
 15 25  2  0  0  0  0
 15 26  1  0  0  0  0
 16 19  1  0  0  0  0
 17 18  1  0  0  0  0
 17 19  1  0  0  0  0
 18 25  1  0  0  0  0
 19 20  1  0  0  0  0
 19 21  1  0  0  0  0
 22 24  1  0  0  0  0
  2 28  1  0  0  0  0
  3 29  1  0  0  0  0
  4 30  1  0  0  0  0
  5 31  1  0  0  0  0
  6 32  1  0  0  0  0
  7 33  1  0  0  0  0
  8 34  1  0  0  0  0
 16 35  1  0  0  0  0
 16 36  1  0  0  0  0
 17 37  1  0  0  0  0
 17 38  1  0  0  0  0
 20 39  1  0  0  0  0
 20 40  1  0  0  0  0
 20 41  1  0  0  0  0
 21 42  1  0  0  0  0
 21 43  1  0  0  0  0
 21 44  1  0  0  0  0
 22 45  1  0  0  0  0
 22 46  1  0  0  0  0
 22 47  1  0  0  0  0
 25 48  1  0  0  0  0
 26 49  1  0  0  0  0
 26 50  1  0  0  0  0
M  CHG  1  25   1
M  END
> <OMEGA_C>
hZMyQCVePMDEp4rBxbW6QHp7isCkMJjB2+OWQAgrh8BBaZHBgazFQBCNUMAg9p7B+i3LQIuGlr9A
AbDBSfrWQFj6w71RgbbBtfiIQGXk/L/kJJjBjBGzQBOnwT6YQ6LB7uh7QDUgQ8Bya5HBIPKsQLfA
BMDw8J7Bhum4QDaycb943KXBuULRQAjxnD+S67LBS0XAQFQzvD8bmqjBr9LPQM8LPUDXGpnBtl+I
QPHYWUDouJfBTIThQPA/FkC557nBEZDPQKAxf0AbUqvBkqe7QMWIOED7GKTBOffLQEzGbEBocbfB
NcnkQPdemUComL3BBLqcQBIibUCJRLvBzCSzQJcLU0A2i4bBnwftP+WhNsCnK4XB33qvQMLwVUCL
PpLB/laOQKgNS0CN9KHB0BBCQL/ha0AXIpPBbTv1QNXFLUDa15bB1MXNQDxPp8BYMJjBgoGOQKtv
ocDVM4zBCA3hQKHlVcAoMaTBORbQQIkCDMDsxLLBQYvkQHmujr7OUL7BHdBrQDeXib/lHJjBXlek
QB3ODj+7lJrBIRkCQQ3mHECxpbjBvEfbQHW+BUANUcLB6hq/QEP5nUCxoqnBiKnxQAqpgkC1RqnB
qzTWQDDHuECiA7zBgyoDQZimmUB57rrBcH/jQAGVkkCfOcbBQBqOQMu4lUD2a7nBFaGbQJURYkA7
9MPBO/SKQHQeOkDtI7fBXDWVQFMaakDB64LBBie5QPjKEECR+YPB6tPNQLYPfED89oPBE51uQIs4
TEDIgafBDogNQJZIbkBGsZfBjtA9QOB+dkAJQ4vByFAyQCBXM8AwFovBIEu6QJ7DisACzpfBuPOV
QHClhcDKPpHB/3PHQPjPUsBznZ7BkaPQQI9jl7+KyK/BuSLZQKgtuL2kh7bBQWCLQEP797/EY5jB
bHq2QIKYsT6vJ6LB5cR8QExvPsC1lJHBpkuwQJhLBcA61p7Bqwq+QDALd7+dpqXBQfnOQAtpnD8s
QLPB+Ha9QD5fuD/H+KjBOqXNQCK4SkB7K5vBkeuGQC4lVEAhtJbB2kTRQNpWFUBSa7vB0m2yQPI6
e0CrkK3BRPqxQMihNEB51qTBlJbUQPpib0CYZLbBiBwBQUTrfkCDCbLBqJfLQNqsmEBnU7/BY3y8
QJaRY0AJwIfBE7zqP1SUKcDm2IXBqwKxQM6xX0CfIZPBN8aGQKTiMkCdT6DBlz1EQFiUZ0AkDZHB
bAj0QNZIPUAJAZrBGxfMQOhgqMA/mpfBYSuMQF4un8Av9ovBqzbjQETrWsAdqaPBIFPYQDrhC8CK
WbLBY4jnQJ/ugr6LRb7BETByQC/Igr+YtpjBRiCrQE2DBD8OHJrBkZLtQInICkBde8DBVDy0QIrk
EkCrYsDBWMiSQL1HfEB/arHBi024QHmEnECWnanBYAgCQfudn0D0fK7BCNUEQX+2TkBO5qvBnbYM
QUzYeUDAn7jBWbPNQBo4uUCVA7zBJVvjQGzolEDDv8XBeFCrQEFfk0CCk8LBZS2gQF6XdUC0B4PB
kQ7IQGWBJEAIHoXBP9XVQMrAiUBqk4bBI9RZQPymG0CTBaTBi9QKQDpCXECcSpTBQ3NIQFl5gEC8
uYnB

> <OMEGA_E>
eEWEPjC04z4=

> <OMEGA_NBR>
     45259

$$$$
50215906
  -OEChem-04172616093D

 47 50  0     1  0  0  0  0  0999 V2000
    2.8665   -2.9634  -17.3240 C   0  0  0  0  0  0  0  0  0  0  0  0
    1.8944   -2.7492  -16.6353 C   0  0  0  0  0  0  0  0  0  0  0  0
    6.6758   -0.0969  -22.7960 C   0  0  0  0  0  0  0  0  0  0  0  0
    6.2430   -1.1645  -22.0043 C   0  0  0  0  0  0  0  0  0  0  0  0
    6.5805    1.2155  -22.3156 C   0  0  0  0  0  0  0  0  0  0  0  0
    4.2832   -1.9661  -18.9853 C   0  0  0  0  0  0  0  0  0  0  0  0
    5.5402    0.4037  -20.2693 C   0  0  0  0  0  0  0  0  0  0  0  0
    4.7810   -4.2286  -18.2500 C   0  0  0  0  0  0  0  0  0  0  0  0
    6.1340   -3.2442  -19.8902 C   0  0  0  0  0  0  0  0  0  0  0  0
    3.9856   -3.0661  -18.1822 C   0  0  0  0  0  0  0  0  0  0  0  0
    5.7056   -0.9220  -20.7262 C   0  0  0  0  0  0  0  0  0  0  0  0
    5.3677   -2.0539  -19.8614 C   0  0  0  0  0  0  0  0  0  0  0  0
    5.9847    1.4877  -21.0566 C   0  0  0  0  0  0  0  0  0  0  0  0
    6.5013    3.0170  -19.1451 C   0  0  0  0  0  0  0  0  0  0  0  0
    4.2529    3.3847  -18.9270 C   0  0  0  0  0  0  0  0  0  0  0  0
    5.8589    4.2001  -22.8791 C   0  0  0  0  0  0  0  0  0  0  0  0
    5.7116    5.2821  -21.8095 C   0  0  0  0  0  0  0  0  0  0  0  0
    6.4634    3.9815  -21.4768 C   0  0  0  0  0  0  0  0  0  0  0  0
    5.8465    2.9147  -20.5125 C   0  0  1  0  0  0  0  0  0  0  0  0
    0.7291   -2.4150  -15.8357 C   0  0  0  0  0  0  0  0  0  0  0  0
    5.6284    3.3375  -16.7999 C   0  0  0  0  0  0  0  0  0  0  0  0
    5.8379   -4.2982  -19.0939 N   0  0  0  0  0  0  0  0  0  0  0  0
    5.4877    3.3574  -18.2641 N   0  0  0  0  0  0  0  0  0  0  0  0
    4.4256    3.1839  -20.2161 N   0  3  0  0  0  0  0  0  0  0  0  0
    3.0270    3.6137  -18.3195 N   0  0  0  0  0  0  0  0  0  0  0  0
    7.6768    2.8014  -18.8725 O   0  0  0  0  0  0  0  0  0  0  0  0
    7.0838   -0.2839  -23.7784 H   0  0  0  0  0  0  0  0  0  0  0  0
    6.3210   -2.1764  -22.3737 H   0  0  0  0  0  0  0  0  0  0  0  0
    6.9653    2.0304  -22.9107 H   0  0  0  0  0  0  0  0  0  0  0  0
    3.6885   -1.0662  -18.9314 H   0  0  0  0  0  0  0  0  0  0  0  0
    5.0718    0.5891  -19.3139 H   0  0  0  0  0  0  0  0  0  0  0  0
    4.5443   -5.0740  -17.6209 H   0  0  0  0  0  0  0  0  0  0  0  0
    6.9753   -3.3129  -20.5640 H   0  0  0  0  0  0  0  0  0  0  0  0
    4.9813    3.6175  -23.1962 H   0  0  0  0  0  0  0  0  0  0  0  0
    6.5197    4.3670  -23.7426 H   0  0  0  0  0  0  0  0  0  0  0  0
    6.2658    6.2275  -21.9051 H   0  0  0  0  0  0  0  0  0  0  0  0
    4.7275    5.4780  -21.3587 H   0  0  0  0  0  0  0  0  0  0  0  0
    7.5580    4.0748  -21.4204 H   0  0  0  0  0  0  0  0  0  0  0  0
    0.3993   -3.3039  -15.2778 H   0  0  0  0  0  0  0  0  0  0  0  0
    0.9876   -1.6133  -15.1283 H   0  0  0  0  0  0  0  0  0  0  0  0
   -0.0826   -2.0744  -16.4954 H   0  0  0  0  0  0  0  0  0  0  0  0
    4.6811    3.6494  -16.3358 H   0  0  0  0  0  0  0  0  0  0  0  0
    5.8805    2.3190  -16.4697 H   0  0  0  0  0  0  0  0  0  0  0  0
    6.4291    4.0292  -16.4992 H   0  0  0  0  0  0  0  0  0  0  0  0
    3.6960    3.2101  -20.8995 H   0  0  0  0  0  0  0  0  0  0  0  0
    2.1924    3.6346  -18.8699 H   0  0  0  0  0  0  0  0  0  0  0  0
    2.9780    3.7578  -17.3312 H   0  0  0  0  0  0  0  0  0  0  0  0
  1  2  3  0  0  0  0
  1 10  1  0  0  0  0
  2 20  1  0  0  0  0
  3  4  2  0  0  0  0
  3  5  1  0  0  0  0
  4 11  1  0  0  0  0
  5 13  2  0  0  0  0
  6 10  1  0  0  0  0
  6 12  2  0  0  0  0
  7 11  2  0  0  0  0
  7 13  1  0  0  0  0
  8 10  2  0  0  0  0
  8 22  1  0  0  0  0
  9 12  1  0  0  0  0
  9 22  2  0  0  0  0
 11 12  1  0  0  0  0
 13 19  1  0  0  0  0
 14 19  1  0  0  0  0
 14 23  1  0  0  0  0
 14 26  2  0  0  0  0
 15 23  1  0  0  0  0
 15 24  2  0  0  0  0
 15 25  1  0  0  0  0
 16 17  1  0  0  0  0
 16 18  1  0  0  0  0
 17 18  1  0  0  0  0
 18 19  1  0  0  0  0
 19 24  1  0  0  0  0
 21 23  1  0  0  0  0
  3 27  1  0  0  0  0
  4 28  1  0  0  0  0
  5 29  1  0  0  0  0
  6 30  1  0  0  0  0
  7 31  1  0  0  0  0
  8 32  1  0  0  0  0
  9 33  1  0  0  0  0
 16 34  1  0  0  0  0
 16 35  1  0  0  0  0
 17 36  1  0  0  0  0
 17 37  1  0  0  0  0
 18 38  1  0  0  0  0
 20 39  1  0  0  0  0
 20 40  1  0  0  0  0
 20 41  1  0  0  0  0
 21 42  1  0  0  0  0
 21 43  1  0  0  0  0
 21 44  1  0  0  0  0
 24 45  1  0  0  0  0
 25 46  1  0  0  0  0
 25 47  1  0  0  0  0
M  CHG  1  24   1
M  END
> <OMEGA_C>
kXQ3QEKoPcCLl4rBXnvyPzTzL8ABFYXBhqDVQAByxr1HXrbB3sbHQK0Plb/bCLDBzZPSQAqVmz9N
hrLB0Q+JQA+p+7/y4ZfBQEmxQLi3zj6AJ6LB5f2YQF1Qh8Dm/5HB50nEQNqgT8A5H5/BRRN/QBY7
RMAgdZHBe5S2QH4GbL83z6XBCcSrQB5zA8Aj5J7B44K/QGlsvj/gc6jBuQrQQBoXQUAzKZnBeBeI
QIyeWECPapfBRXy7QNNmhkBtCLfBUsW2QEwHqUDgea7BeNTOQHbRfkCG0KvBtRa7QKCKOkCTGaTB
/aM6P/KPGsAnX33Bghu0QCyaVUBEZobBbdC6QMOKicA1wJjBEZuvQKLfVkDMHJLBO56NQM7FS0B9
uqHBF7tBQEhGZ0BajpLBk6j1QMBJM0DR+pbBpq7iQBZakb4cOr7B2UXKQJNKC8A9/bLB4+PeQKby
AUAsSbfBMRFsQKN3iL9zc5fBUkyiQIjOFj/3gprBLmuRQAheosCt94zBbzXfQBkHVMAcg6TBKmef
QNuFZ0DTkbnBBKHQQN6+i0DE8L3BloHIQKdHx0CPPa/BvEeXQLZLr0Ce3qrBUNvxQO5kgkAFXavB
J3fMPtlyU8AQcnTBZNB8PwiBzr+eDXLBcyqpvX3CBMCO9oPBnMuVQPqPaUCrr4LBvyy8QJlqFED8
wYPBBLvNQFXvgEBr/oPByYtsQNByTUAuMqfBIFAMQLmdaECG9ZbBc5c+QH5/cEA5porBs4r4QAkY
cMCQ/o3BQAUMQZOba8DuV4jBQ47JQAhhBr44/LbBTKK6QJ6YmL9dwLDBrgjKQDwplT8fxrLB+dHR
QAoUJMAhkJvBawSrQOR4sj73FKLBKSmsQMj2iMDyvZHBVFGEQHP/LsDT55vBtcLSQANrZ8C7TpTB
irOrQAQ8db9AUabBIluqQHw4BsDBL5/Bye26QDR7tj+fQqjBGHPOQL/WNkAQV5jBGxGIQH66XkC8
rZfBzWjDQKmri0DcKrXBk7LKQFhuqUCOjqvBVYTWQA0AdECiuKrBifK7QJvKNUDwkaPBtJEeQeEc
YMBqYoHBrSywQLUbV0DiEobB8eKFQIVrdcCKiZXB6guuQO1qVUA30pHB6ZaPQDn/UkAz7aHBZP9A
QGS9c0BUZZPBgSzzQMYbJUA7s5XB+rLUQPYvn75VCb/Bx5K6QIZ6DMB59bPBdA/WQEFn/T8xlrfB
+DLvQMpQB8AZWp7B2GqeQLDYBj/xKZrBeAytQCf6pMDWr4zBsn1LQP4fFsDZd57B/66iQLvegkAV
jLfBc5DXQB6yjkCjV7zBvgvkQBrTwUDJ26vBSSqvQLj/tUA8EKfBOAH5QEMaZkDPAqvBg9wnQePt
jcA/GoHB36woQfhFLMCXiITBqCQZQUCGT8BBjHLBDGKSQAthckBY24LBhka0QDyLFUB4CYPB6nfL
QEqofkAziYPBNYN0QGiIXEDixKfBXV8OQFb9ekCeNJjBf486QPuje0B2f4vBM9oxQBmbM8AUCYrB
ACrnPxUAKsAvW4TBCEndQGSQD79pcLfBV1HQQNZWxb8zD7DB9bfUQHQQTD9wdLXBNQSJQMqj/r93
JZjBZmOyQD75SD7Sn6TByp6WQHLbhMCF+4/BD9HEQDBAWcD9eJ3Bvjh7QCDNPsDfupDBecm6QOmY
lb/lkabB71mtQM1ODMDUqp7Bdlq+QE88mD99HKzB/AGuQGFsXUC2DrTBQIvrQLtfh0C+IazBiOyW
QIFANkBAzpXB4LiLQG59hUAeZ5vBUrGPQLFpOEC1/aHBVCC2QLpMK0CA0KnBy9oiPzSEHsBNCXvB
5iXXQNO5p0BtEr7BVGO5QObnisCMRZbB94POQHf7jEBcnLTBBdXdQN0oUkD9qqXBwn4IQWSQnkCT
jqrBOByRQKufUUDEiLrBPODtQB7vWb9Bp77BCNTWQNRaJcBgpbHBWEPfQBTpxT/fF7vBpZ5sQKr0
ir/Z2pjBTJOiQJGi+T7BTZ3BktmNQIFAncDGRIrBqZXgQAPqY8DQcKLBUUe3QL8TLEDVlJLBFbJ+
QNwFF0C0kJDBFUVYQHMzlEDwJ5rB0RCkQGS6nkARLJzB0HNiQFG/HEBNuaTBqaobPPtL1b8huYDB
kYBhPVVEWsDSm3rB3l12PxL/DcBPvmrBRXfyQGPtvEBpbbzBZq/eQMsRk0Cb8cTBY7u6QK4mu0C5
6b/BJ1jsQLLVQEDv357BX7IRQcGemEDmLqTBYMIMQbAvtUBKzK/B

> <OMEGA_E>
CKktP5YNYT/Wjo4/

> <OMEGA_NBR>
     47977

$$$$
50216014
  -OEChem-04172616093D

 43 46  0     1  0  0  0  0  0999 V2000
    2.7779   -2.9758  -17.3452 C   0  0  0  0  0  0  0  0  0  0  0  0
    6.6964   -0.0993  -22.7955 C   0  0  0  0  0  0  0  0  0  0  0  0
    6.3107   -1.1715  -21.9800 C   0  0  0  0  0  0  0  0  0  0  0  0
    6.5583    1.2185  -22.3365 C   0  0  0  0  0  0  0  0  0  0  0  0
    4.2711   -1.9488  -18.9818 C   0  0  0  0  0  0  0  0  0  0  0  0
    5.5812    0.3975  -20.2615 C   0  0  0  0  0  0  0  0  0  0  0  0
    4.7116   -4.2211  -18.2482 C   0  0  0  0  0  0  0  0  0  0  0  0
    6.1175   -3.2635  -19.8610 C   0  0  0  0  0  0  0  0  0  0  0  0
    3.9287   -3.0480  -18.1860 C   0  0  0  0  0  0  0  0  0  0  0  0
    5.7607   -0.9287  -20.7044 C   0  0  0  0  0  0  0  0  0  0  0  0
    5.3815   -2.0547  -19.8379 C   0  0  0  0  0  0  0  0  0  0  0  0
    5.9906    1.4846  -21.0637 C   0  0  0  0  0  0  0  0  0  0  0  0
    6.5003    3.0065  -19.1524 C   0  0  0  0  0  0  0  0  0  0  0  0
    4.2519    3.3502  -18.9204 C   0  0  0  0  0  0  0  0  0  0  0  0
    5.7870    4.2559  -22.8408 C   0  0  0  0  0  0  0  0  0  0  0  0
    5.7448    5.3160  -21.7354 C   0  0  0  0  0  0  0  0  0  0  0  0
    6.4532    3.9768  -21.4803 C   0  0  0  0  0  0  0  0  0  0  0  0
    5.8417    2.9093  -20.5179 C   0  0  1  0  0  0  0  0  0  0  0  0
    5.6358    3.2800  -16.7949 C   0  0  0  0  0  0  0  0  0  0  0  0
    1.8309   -2.9016  -16.6697 N   0  0  0  0  0  0  0  0  0  0  0  0
    5.7815   -4.3120  -19.0745 N   0  0  0  0  0  0  0  0  0  0  0  0
    5.4599    3.1275  -18.2463 N   0  0  0  0  0  0  0  0  0  0  0  0
    4.4190    3.1681  -20.2136 N   0  3  0  0  0  0  0  0  0  0  0  0
    3.0535    3.6969  -18.3141 N   0  0  0  0  0  0  0  0  0  0  0  0
    7.6933    2.8863  -18.8980 O   0  0  0  0  0  0  0  0  0  0  0  0
    7.1008   -0.2881  -23.7790 H   0  0  0  0  0  0  0  0  0  0  0  0
    6.4348   -2.1860  -22.3292 H   0  0  0  0  0  0  0  0  0  0  0  0
    6.8870    2.0385  -22.9576 H   0  0  0  0  0  0  0  0  0  0  0  0
    3.6937   -1.0371  -18.9391 H   0  0  0  0  0  0  0  0  0  0  0  0
    5.1263    0.5836  -19.2998 H   0  0  0  0  0  0  0  0  0  0  0  0
    4.4524   -5.0635  -17.6242 H   0  0  0  0  0  0  0  0  0  0  0  0
    6.9672   -3.3510  -20.5218 H   0  0  0  0  0  0  0  0  0  0  0  0
    4.8692    3.7198  -23.1240 H   0  0  0  0  0  0  0  0  0  0  0  0
    6.4078    4.4175  -23.7343 H   0  0  0  0  0  0  0  0  0  0  0  0
    6.3348    6.2389  -21.8366 H   0  0  0  0  0  0  0  0  0  0  0  0
    4.7961    5.5413  -21.2263 H   0  0  0  0  0  0  0  0  0  0  0  0
    7.5523    4.0209  -21.4807 H   0  0  0  0  0  0  0  0  0  0  0  0
    4.6505    3.3543  -16.3115 H   0  0  0  0  0  0  0  0  0  0  0  0
    6.1744    2.4072  -16.3973 H   0  0  0  0  0  0  0  0  0  0  0  0
    6.2145    4.1927  -16.5897 H   0  0  0  0  0  0  0  0  0  0  0  0
    3.6867    3.2004  -20.8937 H   0  0  0  0  0  0  0  0  0  0  0  0
    2.2318    3.8273  -18.8689 H   0  0  0  0  0  0  0  0  0  0  0  0
    3.0113    3.8166  -17.3222 H   0  0  0  0  0  0  0  0  0  0  0  0
  1  9  1  0  0  0  0
  1 20  3  0  0  0  0
  2  3  1  0  0  0  0
  2  4  2  0  0  0  0
  3 10  2  0  0  0  0
  4 12  1  0  0  0  0
  5  9  2  0  0  0  0
  5 11  1  0  0  0  0
  6 10  1  0  0  0  0
  6 12  2  0  0  0  0
  7  9  1  0  0  0  0
  7 21  2  0  0  0  0
  8 11  2  0  0  0  0
  8 21  1  0  0  0  0
 10 11  1  0  0  0  0
 12 18  1  0  0  0  0
 13 18  1  0  0  0  0
 13 22  1  0  0  0  0
 13 25  2  0  0  0  0
 14 22  1  0  0  0  0
 14 23  2  0  0  0  0
 14 24  1  0  0  0  0
 15 16  1  0  0  0  0
 15 17  1  0  0  0  0
 16 17  1  0  0  0  0
 17 18  1  0  0  0  0
 18 23  1  0  0  0  0
 19 22  1  0  0  0  0
  2 26  1  0  0  0  0
  3 27  1  0  0  0  0
  4 28  1  0  0  0  0
  5 29  1  0  0  0  0
  6 30  1  0  0  0  0
  7 31  1  0  0  0  0
  8 32  1  0  0  0  0
 15 33  1  0  0  0  0
 15 34  1  0  0  0  0
 16 35  1  0  0  0  0
 16 36  1  0  0  0  0
 17 37  1  0  0  0  0
 19 38  1  0  0  0  0
 19 39  1  0  0  0  0
 19 40  1  0  0  0  0
 23 41  1  0  0  0  0
 24 42  1  0  0  0  0
 24 43  1  0  0  0  0
M  CHG  1  23   1
M  END
> <OMEGA_C>
ackxQAZzPsDjworBG0nWQJhTy700XbbB4PDJQHD0lb8i16/BRN3RQLb2mz8nsbLB2ayIQOxy+b+z
2pfBUpmyQOKFyz6kF6LBj8WWQNkSh8Bc/JHBOcLDQJDdUMA8457BKnB7QKsSQ8ABfZHBw1e4QNa/
bb+hoqXBRzWsQHSAA8D9s57BFbO/QPIFvj9hgqjBaALQQONpQEA3OJnBYg+IQG1qVkAGXZfBJC+5
QHcwiEDeubbBldW3QLccqkAX4q3BYoDOQOGDfkC816vB9O66QEUxOkCiJKTBUli0QMvrUUAGXIbB
0VnqPz2zOcCMW4XB5gG5QN77icCkmJjBbLeuQD0pSECC+JHBy2iNQC3CSkBitaHBemxDQNOabEA8
g5LBUy/2QN25OEArL5fBeDnjQH5+k75nO77Be+nNQNrmC8AxorLBV2LcQF13AkA/qbfBKWZsQLW/
hL9cg5fBDwukQP9kFT8SZprByHmOQDgIosBE/ozB//LeQDF3VsCxLKTBTNCbQAESbkDx/bjBFQ3N
QNxbjUDj373BarbKQP2kx0Bqsa7BoXmZQCJSsUB4z6nBWazxQPCqgEBj2KvBFdGUQHCsVkDcfYLB
VZTFQJ8PGkCeLYPBDd3GQKIqhkDJt4TBAfNrQNLSTEBkJqfBPdUOQKrxdEBs85bBh7hAQDlDdEDK
k4rB67IrQJPwOMCCM4vBsvfaQLiJ+L0DlrXBJ6zPQJRVlr8Zwq7BBdrSQCgwmj+skrLBv1yJQFrQ
8b85ipfBQb20QAI63D6usqHBHpKTQOsGhsBF2JHBvlHEQOZYUMAs+53B2Lp3QBs9P8CeepHBuy+8
QO0HaL87zqTBrTOuQOZEAcAP7p3B95e/QGbHvz/Ck6jBqATRQEflS0CKoJrBQUeJQNcaU0DE6JbB
jizSQMoeq0AU06vBZlnqQHBJikDmoLLBpti9QB/GfkBCGq7BaIO3QGUCPEBI46TBybK7QCbFUUD7
G4fByIfaP6IAM8DOJobBQf62QOHAicCcBJjBpKayQHnOV0DHpJLBkPWKQGvoRUB2R6HB/mZHQAl3
W0B/GZHB+Kb3QJUVQ0AYUpnBo/XpQAu/qb7dL73BeubVQBx6DMDEHrHBGlrbQPyqAEAY67fBf6xv
QMtwdb/+UJfBAZ2mQM9jIz+M/ZnBaECJQBwDocBxGo3BF4XgQFw5V8Cv5qLBT4DdQHPSskDXt6PB
sP3EQHEZyEAOlK/B63juQEyqj0CNQ7vBxX0DQZvGdEBXZ6/BVNGjQNK4f0CRBrTBrC2eQGrsXUAo
kILBW67HQDNOEUDHOoXBHQLUQF/IgEB86oTBzMpiQOz6QkDVE6bB4NMOQFeCV0CWzpTBa8lJQOxy
ZUACNInBgGOXQFBbI8DQP4HBoWLgQM7BEr94BLfB48/SQGtcxr+rqq/BLa7WQIRISD9IRrXBiWqp
QPZM7r+jk5PBmsuxQHY5QD4IxaTBvUaTQMjbhMDXPZDBh56kQJkJYcDrxqHB1PmbQF6uNsCTYYzB
U7K7QDY2lr+ea6bBLNetQGY9DMDYgp7B72q+QDh4lj8hPKzBJautQCSmWkBWqbTB1i/pQM4CiEAu
M6zB2QWSQBwENkDll5bBktWGQP3PhEB6c5zBIsqMQCORNkB42KLBzaG0QK5EKkCJPKrBiw7XQKG/
pkA0d77BWLCTQAt5E8DRXHDBk6eXQPrFjsDIu5rBQH7NQCldjEBs/7TBPCLbQBeTU0Afw6XBXuEG
QeU3oEB2VKrBNwuSQMacTEDYaLvBvFHyQIWSXb/2Bb7B3hHaQFrLJcDIFrHB9szhQCSvwz+q3brB
LESwQGKfXL8AzJDBoE2gQGnj9T7xsZ3BpeSIQMBIncAvtYrBKgWoQDfnccDVHKrBhuuxQCqiLUCy
BZPBn+RzQGJMFkBei5HBXYJNQM/gkkDslJvBZbqeQLOLnkBAD53BBTleQEJBGUD91qXBuYzxQJ+4
vEBKn7zBgT7gQGjhkUB/K8XB8YK6QKZYuUCgrcDBQLPoQH7MQ0BNyp7ByZoPQTcgm0DsvqPB8k4L
Qaa4tkCyka/B

> <OMEGA_E>
oA4QP7gCHj+fE58/

> <OMEGA_NBR>
     58602

$$$$
50225103
  -OEChem-04172616093D

 48 51  0     1  0  0  0  0  0999 V2000
    2.7842   -2.9199  -17.2924 C   0  0  0  0  0  0  0  0  0  0  0  0
    5.7763   -4.3594  -19.0247 C   0  0  0  0  0  0  0  0  0  0  0  0
    4.6636   -4.2373  -18.1725 C   0  0  0  0  0  0  0  0  0  0  0  0
    6.1434   -3.2891  -19.8570 C   0  0  0  0  0  0  0  0  0  0  0  0
    6.3324   -1.2377  -21.9900 C   0  0  0  0  0  0  0  0  0  0  0  0
    6.7199   -0.1813  -22.8181 C   0  0  0  0  0  0  0  0  0  0  0  0
    4.2844   -1.9660  -18.9811 C   0  0  0  0  0  0  0  0  0  0  0  0
    5.6239    0.3584  -20.2959 C   0  0  0  0  0  0  0  0  0  0  0  0
    3.9183   -3.0408  -18.1509 C   0  0  0  0  0  0  0  0  0  0  0  0
    5.3981   -2.0872  -19.8419 C   0  0  0  0  0  0  0  0  0  0  0  0
    5.7835   -0.9737  -20.7217 C   0  0  0  0  0  0  0  0  0  0  0  0
    6.0506    1.4378  -21.1036 C   0  0  0  0  0  0  0  0  0  0  0  0
    6.5923    1.1493  -22.3879 C   0  0  0  0  0  0  0  0  0  0  0  0
    6.4960    2.9077  -19.1360 C   0  0  0  0  0  0  0  0  0  0  0  0
    4.2548    3.3246  -18.9990 C   0  0  0  0  0  0  0  0  0  0  0  0
    6.5460    3.9856  -21.3831 C   0  0  0  0  0  0  0  0  0  0  0  0
    5.8992    2.8563  -20.5319 C   0  0  1  0  0  0  0  0  0  0  0  0
    6.3490    3.8690  -22.9078 C   0  0  0  0  0  0  0  0  0  0  0  0
    7.0748    5.0432  -23.5902 C   0  0  0  0  0  0  0  0  0  0  0  0
    4.8608    3.8687  -23.3264 C   0  0  0  0  0  0  0  0  0  0  0  0
    5.5736    3.3416  -16.8345 C   0  0  0  0  0  0  0  0  0  0  0  0
    1.8570   -2.8234  -16.5926 N   0  0  0  0  0  0  0  0  0  0  0  0
    5.4317    3.0975  -18.2751 N   0  0  0  0  0  0  0  0  0  0  0  0
    4.4737    3.1429  -20.2822 N   0  3  0  0  0  0  0  0  0  0  0  0
    3.0341    3.6861  -18.4511 N   0  0  0  0  0  0  0  0  0  0  0  0
    7.6790    2.7851  -18.8380 O   0  0  0  0  0  0  0  0  0  0  0  0
    7.1642    2.3652  -23.4971 S   0  0  0  0  0  0  0  0  0  0  0  0
    6.3479   -5.2756  -19.0389 H   0  0  0  0  0  0  0  0  0  0  0  0
    4.3800   -5.0610  -17.5341 H   0  0  0  0  0  0  0  0  0  0  0  0
    6.9977   -3.3843  -20.5107 H   0  0  0  0  0  0  0  0  0  0  0  0
    6.4543   -2.2576  -22.3236 H   0  0  0  0  0  0  0  0  0  0  0  0
    7.1214   -0.3900  -23.7987 H   0  0  0  0  0  0  0  0  0  0  0  0
    3.7145   -1.0488  -18.9605 H   0  0  0  0  0  0  0  0  0  0  0  0
    5.1684    0.5592  -19.3374 H   0  0  0  0  0  0  0  0  0  0  0  0
    6.1135    4.9435  -21.0586 H   0  0  0  0  0  0  0  0  0  0  0  0
    7.6273    3.9842  -21.1809 H   0  0  0  0  0  0  0  0  0  0  0  0
    6.9427    4.9731  -24.6799 H   0  0  0  0  0  0  0  0  0  0  0  0
    6.6535    5.9934  -23.2302 H   0  0  0  0  0  0  0  0  0  0  0  0
    8.1469    5.0021  -23.3475 H   0  0  0  0  0  0  0  0  0  0  0  0
    4.7871    3.7835  -24.4206 H   0  0  0  0  0  0  0  0  0  0  0  0
    4.3482    3.0161  -22.8571 H   0  0  0  0  0  0  0  0  0  0  0  0
    4.3878    4.8063  -22.9991 H   0  0  0  0  0  0  0  0  0  0  0  0
    4.5777    3.4581  -16.3820 H   0  0  0  0  0  0  0  0  0  0  0  0
    6.0910    2.4906  -16.3677 H   0  0  0  0  0  0  0  0  0  0  0  0
    6.1586    4.2593  -16.6741 H   0  0  0  0  0  0  0  0  0  0  0  0
    3.7707    3.1921  -20.9917 H   0  0  0  0  0  0  0  0  0  0  0  0
    2.2417    3.8270  -19.0447 H   0  0  0  0  0  0  0  0  0  0  0  0
    2.9456    3.8059  -17.4623 H   0  0  0  0  0  0  0  0  0  0  0  0
  1  9  1  0  0  0  0
  1 22  3  0  0  0  0
  2  3  1  0  0  0  0
  2  4  2  0  0  0  0
  3  9  2  0  0  0  0
  4 10  1  0  0  0  0
  5  6  2  0  0  0  0
  5 11  1  0  0  0  0
  6 13  1  0  0  0  0
  7  9  1  0  0  0  0
  7 10  2  0  0  0  0
  8 11  2  0  0  0  0
  8 12  1  0  0  0  0
 10 11  1  0  0  0  0
 12 13  2  0  0  0  0
 12 17  1  0  0  0  0
 13 27  1  0  0  0  0
 14 17  1  0  0  0  0
 14 23  1  0  0  0  0
 14 26  2  0  0  0  0
 15 23  1  0  0  0  0
 15 24  2  0  0  0  0
 15 25  1  0  0  0  0
 16 17  1  0  0  0  0
 16 18  1  0  0  0  0
 17 24  1  0  0  0  0
 18 19  1  0  0  0  0
 18 20  1  0  0  0  0
 18 27  1  0  0  0  0
 21 23  1  0  0  0  0
  2 28  1  0  0  0  0
  3 29  1  0  0  0  0
  4 30  1  0  0  0  0
  5 31  1  0  0  0  0
  6 32  1  0  0  0  0
  7 33  1  0  0  0  0
  8 34  1  0  0  0  0
 16 35  1  0  0  0  0
 16 36  1  0  0  0  0
 19 37  1  0  0  0  0
 19 38  1  0  0  0  0
 19 39  1  0  0  0  0
 20 40  1  0  0  0  0
 20 41  1  0  0  0  0
 20 42  1  0  0  0  0
 21 43  1  0  0  0  0
 21 44  1  0  0  0  0
 21 45  1  0  0  0  0
 24 46  1  0  0  0  0
 25 47  1  0  0  0  0
 25 48  1  0  0  0  0
M  CHG  1  24   1
M  END
> <OMEGA_C>
njAyQKrfOsDCVorBLte4QECAi8CGMpjBEzyVQMyXh8A5YZHBVZbEQGWAUsAY257BMqPKQPhtnr+D
66/BFQnXQMicOb5mi7bBlRmJQOym+7852ZfBoPazQOJ6tz7yXaLBqcV6QDOcQsAcNZHB77ysQPyU
BcA4vJ7BjBK5QF1Geb/4xaXBU57BQEIIuD8Y1KjBhvTSQK4akz9XGrPBXd/PQA4XOkCBFpnBoSeI
QMPGVED8/ZfBH3nRQEYTf0CVEKvBYMa8QMPNNkBfQaTB0yrLQC6dd0BCQ7fB0WTiQJ1hoUChuLzB
rYubQLiYd0B6nLrBn1qyQF/dVUAWrYbBlLPtPyazNMCevYTBsdCtQOQ8RkBRM5LBqyiPQCwlSUD/
QaLB7y1CQHDoa0Dym5PBI7r1QDI/MkBStJbBe0HlQLZfF0AJ+rvBByLLQMnRqMC9T5jBUSmMQJbz
ocDYRYzBXe3fQB6YWMD3FaTB4InOQEJ9EMDNlrLBO+LjQBivx762Y77BK7ttQMA/hr8Hr5fBWGOl
QAAlDz8Ms5rB1KHDQN4wnkDzd6jBtxL0QDj9fkBpcqnB8ireQF8jn0CGcMXBbenUQAXKv0CM17nB
xVkCQYgRoECbx7rBQzCZQGQlckBxXcPBZCSLQHUHQUBF27bB5GiMQFHNmUAX/rfBtXySQPNQXUBi
DoPB2+nCQK1lH0AO8YLBMBPFQMxLiECjZIXBDlNxQIRLTED77qfBGHgPQEjtdECTW5jBOYU8QPaT
c0DJsovB

> <OMEGA_E>
uMuXPg==

> <OMEGA_NBR>
     59703

$$$$
50249262
  -OEChem-04172616093D

 48 52  0     1  0  0  0  0  0999 V2000
    5.2273   -4.2462  -17.9523 C   0  0  0  0  0  0  0  0  0  0  0  0
    5.7251   -3.3231  -18.8811 C   0  0  0  0  0  0  0  0  0  0  0  0
    6.1455   -1.7138  -21.4217 C   0  0  0  0  0  0  0  0  0  0  0  0
    6.6651   -0.7477  -22.2982 C   0  0  0  0  0  0  0  0  0  0  0  0
    5.1646    0.0474  -20.0583 C   0  0  0  0  0  0  0  0  0  0  0  0
    3.8830   -4.1506  -17.5401 C   0  0  0  0  0  0  0  0  0  0  0  0
    5.3861   -1.3165  -20.3035 C   0  0  0  0  0  0  0  0  0  0  0  0
    4.8666   -2.3182  -19.3637 C   0  0  0  0  0  0  0  0  0  0  0  0
    5.6829    1.0241  -20.9305 C   0  0  0  0  0  0  0  0  0  0  0  0
    6.4577    0.6218  -22.0522 C   0  0  0  0  0  0  0  0  0  0  0  0
    3.5200   -2.2824  -18.9153 C   0  0  0  0  0  0  0  0  0  0  0  0
    6.3360    2.8282  -19.3572 C   0  0  0  0  0  0  0  0  0  0  0  0
    4.1134    3.0744  -18.8639 C   0  0  0  0  0  0  0  0  0  0  0  0
    7.4774    3.7715  -23.6897 C   0  0  0  0  0  0  0  0  0  0  0  0
    7.5019    5.2496  -23.2656 C   0  0  0  0  0  0  0  0  0  0  0  0
    5.9343    4.8714  -21.4679 C   0  0  0  0  0  0  0  0  0  0  0  0
    5.8269    3.3665  -21.8200 C   0  0  1  0  0  0  0  0  0  0  0  0
    7.1429    2.8863  -22.4778 C   0  0  1  0  0  0  0  0  0  0  0  0
    5.5016    2.4901  -20.5832 C   0  0  1  0  0  0  0  0  0  0  0  0
    5.7710    3.5507  -17.0116 C   0  0  0  0  0  0  0  0  0  0  0  0
    3.0583   -3.1902  -18.0230 N   0  0  0  0  0  0  0  0  0  0  0  0
    5.4171    3.0561  -18.3471 N   0  0  0  0  0  0  0  0  0  0  0  0
    4.1267    2.7552  -20.1373 N   0  3  0  0  0  0  0  0  0  0  0  0
    2.9655    3.3696  -18.1465 N   0  0  0  0  0  0  0  0  0  0  0  0
    7.5563    2.7879  -19.2453 O   0  0  0  0  0  0  0  0  0  0  0  0
    7.0240    1.5223  -22.9353 O   0  0  0  0  0  0  0  0  0  0  0  0
    6.2390    5.6139  -22.6648 O   0  0  0  0  0  0  0  0  0  0  0  0
    2.6531   -1.3624  -19.4062 F   0  0  0  0  0  0  0  0  0  0  0  0
    5.8661   -5.0221  -17.5569 H   0  0  0  0  0  0  0  0  0  0  0  0
    6.7488   -3.3817  -19.2204 H   0  0  0  0  0  0  0  0  0  0  0  0
    6.3282   -2.7624  -21.6048 H   0  0  0  0  0  0  0  0  0  0  0  0
    7.2273   -1.0579  -23.1666 H   0  0  0  0  0  0  0  0  0  0  0  0
    4.5923    0.3504  -19.1940 H   0  0  0  0  0  0  0  0  0  0  0  0
    3.5008   -4.8605  -16.8215 H   0  0  0  0  0  0  0  0  0  0  0  0
    6.7139    3.6278  -24.4684 H   0  0  0  0  0  0  0  0  0  0  0  0
    8.4636    3.4893  -24.0867 H   0  0  0  0  0  0  0  0  0  0  0  0
    8.3104    5.4057  -22.5362 H   0  0  0  0  0  0  0  0  0  0  0  0
    7.6793    5.8792  -24.1500 H   0  0  0  0  0  0  0  0  0  0  0  0
    4.9788    5.2213  -21.0502 H   0  0  0  0  0  0  0  0  0  0  0  0
    6.7345    5.0205  -20.7280 H   0  0  0  0  0  0  0  0  0  0  0  0
    5.0136    3.2429  -22.5504 H   0  0  0  0  0  0  0  0  0  0  0  0
    7.9563    2.9692  -21.7418 H   0  0  0  0  0  0  0  0  0  0  0  0
    4.8604    3.6445  -16.4016 H   0  0  0  0  0  0  0  0  0  0  0  0
    6.4632    2.8439  -16.5306 H   0  0  0  0  0  0  0  0  0  0  0  0
    6.2550    4.5343  -17.1014 H   0  0  0  0  0  0  0  0  0  0  0  0
    3.3165    2.7003  -20.7208 H   0  0  0  0  0  0  0  0  0  0  0  0
    2.0737    3.3470  -18.5984 H   0  0  0  0  0  0  0  0  0  0  0  0
    3.0287    3.6053  -17.1767 H   0  0  0  0  0  0  0  0  0  0  0  0
  1  2  2  0  0  0  0
  1  6  1  0  0  0  0
  2  8  1  0  0  0  0
  3  4  2  0  0  0  0
  3  7  1  0  0  0  0
  4 10  1  0  0  0  0
  5  7  2  0  0  0  0
  5  9  1  0  0  0  0
  6 21  2  0  0  0  0
  7  8  1  0  0  0  0
  8 11  2  0  0  0  0
  9 10  2  0  0  0  0
  9 19  1  0  0  0  0
 10 26  1  0  0  0  0
 11 21  1  0  0  0  0
 11 28  1  0  0  0  0
 12 19  1  0  0  0  0
 12 22  1  0  0  0  0
 12 25  2  0  0  0  0
 13 22  1  0  0  0  0
 13 23  2  0  0  0  0
 13 24  1  0  0  0  0
 14 15  1  0  0  0  0
 14 18  1  0  0  0  0
 15 27  1  0  0  0  0
 16 17  1  0  0  0  0
 16 27  1  0  0  0  0
 17 18  1  0  0  0  0
 17 19  1  0  0  0  0
 18 26  1  0  0  0  0
 19 23  1  0  0  0  0
 20 22  1  0  0  0  0
  1 29  1  0  0  0  0
  2 30  1  0  0  0  0
  3 31  1  0  0  0  0
  4 32  1  0  0  0  0
  5 33  1  0  0  0  0
  6 34  1  0  0  0  0
 14 35  1  0  0  0  0
 14 36  1  0  0  0  0
 15 37  1  0  0  0  0
 15 38  1  0  0  0  0
 16 39  1  0  0  0  0
 16 40  1  0  0  0  0
 17 41  1  0  0  0  0
 18 42  1  0  0  0  0
 20 43  1  0  0  0  0
 20 44  1  0  0  0  0
 20 45  1  0  0  0  0
 23 46  1  0  0  0  0
 24 47  1  0  0  0  0
 24 48  1  0  0  0  0
M  CHG  1  23   1
M  END
> <OMEGA_C>
v0WnQEXhh8Bfno/BQzS3QK+tVMCIDJfBDqjEQAxf27+cX6vBPUjVQMdrP7+/YrLBtESlQBM7Qj1q
d6DBpIN4QBXShMAiUozB4VqsQFqEqL+HbaLBGrubQI1dFMDh6JrBStq1QCYXgz+6cafBvKXOQEMu
Hz/4arDBcUdhQCYTEsBxUpfB4MDKQG8ANUCV25rBlaCDQDrDREBV6ZbBmEbvQDdgcUBohL3BSg/w
QNX8p0DjH7rBHea9QFDim0A9vqvBlnW6QKd0V0Bcj67B4JLkQOi4OEBx0rPBBw2wQHdeH0B6qqTB
2au4QCE+Y0DOF4jBs7tDQB0sTMACL5DBvFitQDSXQ0DhxpLBGg6EQN9VMEAxGaHBfso9QIKnV0AK
LJHBIs3xQMRsMkBP9pnBy8TgQJfawj+Ee7fBlKXHQOOks0CAUbXBYMwpQAlkrr/eP5vBTLe7QLS0
oMCBdIzBG/bXQF1tWMBMw5nBo4DKQCnLMMCy1qzBIUbnQKtqh78oVbnBJfSSQNZosz5PjZnB/Axg
QHaJm8B8kobB3tfWQCguaEA3v8PBGGsHQbtQX0B+scDBWfcEQYn7rEA2SrTBmbz1QBkivEAtM8HB
P1KfQD4Vp0DaZqjB84DXQD6ooEDY0qXB0W+gQGaMT0AmZ7TBpZn+QAcHPkA1763BpIibQB1AaUCK
NoPBVtLOQCEDNkCiPoTBMCnIQGQZkUC4z4jBQEFUQDfSLEA/xKXB4rcEQGU1VkCeyZTBkdZBQGu8
ZkDvaYnB4z5KQJirTsBgPo/Bqw9lQETiD8CdhZbB15fBQIDo2b8GkKvBcKXRQLGAPb8TqbLBXdSj
QPD9ez0dYKDBCSyCQHldh8CfCIzBR1arQGrYpr/tSaLBbqCcQACYE8BigprBdgm0QLrBhD9TdKfB
lAHMQIjUID9MjbDBSl+4QEdZVcAa3pbBkKDJQCXgNEBnyZrB6pqCQIwKSUDNDJfBB6fvQAg6cEC1
cb3BLqDyQJoXp0Bs4rnBavO/QFFYnEDzhqvBJXO6QHzyWEAefa7Bnt7jQJSbN0Cd1LPBLg+vQLWI
IEBvqKTBqo63QMNkZkD2KIjBYs+qQOh/iMAXyY/BICSsQLwaRkA2z5LB8h2DQIQcM0DpL6HBP+Y7
QL8aX0BkdZHBE6DwQNr2MEA41JnBIi/eQPa7wj8opLfBQs/KQDlEtEBRArXBprThQFsOWMAHIprB
8sUJQCn2TcBXIYzB1vs5QJZSu79LBZnBd0rGQFMpMMBHNK3B5m/iQE+7hr9sybnBgZGRQAf5uj46
dJnBM4lvQIGWn8BjcobBSevWQGfwaUD5p8PBM1sHQU6xW0B3scDBf18GQSORqkDADLTB3ib5QJVf
u0C148DBndmhQEeqqEBzKajBHq7ZQLaxn0CTlKXBzDagQBHAU0DOUbTBIQn+QEcXOkDR863Bs1qa
QAysbkBoW4PBlenMQFNhOECYLYTBqPnHQPoqkkA09ojBE4dSQG6OL0Bv4aXB1h8DQFryXkCmJpXB
e8I/QO4vb0D2uonB

> <OMEGA_E>
YEQqPrztqT4=

> <OMEGA_NBR>
      1942

$$$$
284495
  -OEChem-04172616093D

 53 58  0     1  0  0  0  0  0999 V2000
    5.3236   -4.1863  -17.9238 C   0  0  0  0  0  0  0  0  0  0  0  0
    5.7950   -3.2338  -18.8334 C   0  0  0  0  0  0  0  0  0  0  0  0
    6.0960   -1.6943  -21.4207 C   0  0  0  0  0  0  0  0  0  0  0  0
    6.6069   -0.7305  -22.2912 C   0  0  0  0  0  0  0  0  0  0  0  0
    6.4259    7.8906  -23.3829 C   0  0  0  0  0  0  0  0  0  0  0  0
    5.1396    0.0655  -20.0284 C   0  0  0  0  0  0  0  0  0  0  0  0
    5.8557    4.7450  -21.5308 C   0  0  0  0  0  0  0  0  0  0  0  0
    7.2704    5.0727  -23.4842 C   0  0  0  0  0  0  0  0  0  0  0  0
    6.2729    7.6109  -20.9796 C   0  0  0  0  0  0  0  0  0  0  0  0
    3.9582   -4.1825  -17.5729 C   0  0  0  0  0  0  0  0  0  0  0  0
    6.3106    9.2759  -23.1918 C   0  0  0  0  0  0  0  0  0  0  0  0
    5.3628   -1.2940  -20.2913 C   0  0  0  0  0  0  0  0  0  0  0  0
    4.8866   -2.2968  -19.3540 C   0  0  0  0  0  0  0  0  0  0  0  0
    6.4015    7.0427  -22.2611 C   0  0  0  0  0  0  0  0  0  0  0  0
    6.5061    5.6010  -22.4298 C   0  0  0  0  0  0  0  0  0  0  0  0
    5.6649    1.0400  -20.8911 C   0  0  0  0  0  0  0  0  0  0  0  0
    6.0026    3.3578  -21.6521 C   0  0  0  0  0  0  0  0  0  0  0  0
    6.4122    0.6339  -22.0300 C   0  0  0  0  0  0  0  0  0  0  0  0
    6.7751    2.8259  -22.7180 C   0  0  0  0  0  0  0  0  0  0  0  0
    7.3838    3.6935  -23.6379 C   0  0  0  0  0  0  0  0  0  0  0  0
    6.1650    9.0058  -20.8607 C   0  0  0  0  0  0  0  0  0  0  0  0
    3.5275   -2.3432  -18.9655 C   0  0  0  0  0  0  0  0  0  0  0  0
    6.3308    2.8089  -19.2758 C   0  0  0  0  0  0  0  0  0  0  0  0
    4.1142    3.2154  -18.8687 C   0  0  0  0  0  0  0  0  0  0  0  0
    5.5269    2.4929  -20.5199 C   0  0  2  0  0  0  0  0  0  0  0  0
    5.7394    3.6150  -16.9636 C   0  0  0  0  0  0  0  0  0  0  0  0
    3.0905   -3.2789  -18.0919 N   0  0  0  0  0  0  0  0  0  0  0  0
    6.1821    9.8093  -21.9529 N   0  0  0  0  0  0  0  0  0  0  0  0
    5.4208    3.3224  -18.3674 N   0  0  0  0  0  0  0  0  0  0  0  0
    4.1426    2.8191  -20.1237 N   0  3  0  0  0  0  0  0  0  0  0  0
    2.9606    3.5167  -18.1608 N   0  0  0  0  0  0  0  0  0  0  0  0
    7.5495    2.7501  -19.1557 O   0  0  0  0  0  0  0  0  0  0  0  0
    7.0193    1.4872  -22.9192 O   0  0  0  0  0  0  0  0  0  0  0  0
    8.1170    3.2018  -24.6620 F   0  0  0  0  0  0  0  0  0  0  0  0
    6.0524    9.5543  -19.6304 F   0  0  0  0  0  0  0  0  0  0  0  0
    2.6311   -1.4798  -19.5046 F   0  0  0  0  0  0  0  0  0  0  0  0
    5.9966   -4.9147  -17.4962 H   0  0  0  0  0  0  0  0  0  0  0  0
    6.8337   -3.2189  -19.1287 H   0  0  0  0  0  0  0  0  0  0  0  0
    6.2638   -2.7435  -21.6145 H   0  0  0  0  0  0  0  0  0  0  0  0
    7.1547   -1.0365  -23.1702 H   0  0  0  0  0  0  0  0  0  0  0  0
    6.5317    7.4815  -24.3768 H   0  0  0  0  0  0  0  0  0  0  0  0
    4.5645    0.3619  -19.1636 H   0  0  0  0  0  0  0  0  0  0  0  0
    5.2406    5.1556  -20.7438 H   0  0  0  0  0  0  0  0  0  0  0  0
    7.7694    5.7362  -24.1750 H   0  0  0  0  0  0  0  0  0  0  0  0
    6.2573    6.9831  -20.1009 H   0  0  0  0  0  0  0  0  0  0  0  0
    3.5936   -4.9189  -16.8721 H   0  0  0  0  0  0  0  0  0  0  0  0
    6.3247    9.9309  -24.0504 H   0  0  0  0  0  0  0  0  0  0  0  0
    4.8463    4.0127  -16.4595 H   0  0  0  0  0  0  0  0  0  0  0  0
    6.0632    2.6915  -16.4611 H   0  0  0  0  0  0  0  0  0  0  0  0
    6.5478    4.3596  -16.9186 H   0  0  0  0  0  0  0  0  0  0  0  0
    3.3437    2.7493  -20.7211 H   0  0  0  0  0  0  0  0  0  0  0  0
    2.0675    3.4386  -18.6038 H   0  0  0  0  0  0  0  0  0  0  0  0
    3.0218    3.8121  -17.2074 H   0  0  0  0  0  0  0  0  0  0  0  0
  1  2  2  0  0  0  0
  1 10  1  0  0  0  0
  2 13  1  0  0  0  0
  3  4  2  0  0  0  0
  3 12  1  0  0  0  0
  4 18  1  0  0  0  0
  5 11  2  0  0  0  0
  5 14  1  0  0  0  0
  6 12  2  0  0  0  0
  6 16  1  0  0  0  0
  7 15  1  0  0  0  0
  7 17  2  0  0  0  0
  8 15  2  0  0  0  0
  8 20  1  0  0  0  0
  9 14  2  0  0  0  0
  9 21  1  0  0  0  0
 10 27  2  0  0  0  0
 11 28  1  0  0  0  0
 12 13  1  0  0  0  0
 13 22  2  0  0  0  0
 14 15  1  0  0  0  0
 16 18  2  0  0  0  0
 16 25  1  0  0  0  0
 17 19  1  0  0  0  0
 17 25  1  0  0  0  0
 18 33  1  0  0  0  0
 19 20  2  0  0  0  0
 19 33  1  0  0  0  0
 20 34  1  0  0  0  0
 21 28  2  0  0  0  0
 21 35  1  0  0  0  0
 22 27  1  0  0  0  0
 22 36  1  0  0  0  0
 23 25  1  0  0  0  0
 23 29  1  0  0  0  0
 23 32  2  0  0  0  0
 24 29  1  0  0  0  0
 24 30  2  0  0  0  0
 24 31  1  0  0  0  0
 25 30  1  0  0  0  0
 26 29  1  0  0  0  0
  1 37  1  0  0  0  0
  2 38  1  0  0  0  0
  3 39  1  0  0  0  0
  4 40  1  0  0  0  0
  5 41  1  0  0  0  0
  6 42  1  0  0  0  0
  7 43  1  0  0  0  0
  8 44  1  0  0  0  0
  9 45  1  0  0  0  0
 10 46  1  0  0  0  0
 11 47  1  0  0  0  0
 26 48  1  0  0  0  0
 26 49  1  0  0  0  0
 26 50  1  0  0  0  0
 30 51  1  0  0  0  0
 31 52  1  0  0  0  0
 31 53  1  0  0  0  0
M  CHG  1  30   1
M  END
> <OMEGA_C>
3FqqQOf1hcAHZI/BTXC5QCv2TsC4qpbB0hLDQPbf2L+RXavBcmvTQLj/Or9LVLLB4qDNQJJ//EAq
ELvBhHekQKAPhj0QOqDBQWK7QAPXl0AqP6zBtqboQNpTokCy37vBY7vIQECM80Ao1qfBsVN9QDLX
hcBSlYzBoPDJQD5qFEG2iLnB95urQMShpb+pVKLB+V6cQC3/EsAI1ZrBXNnMQLRd4UDMFrLBQDLQ
QHo7s0ArcLPBK0e1QDQehT/7IKfBkhXAQLfmVkCCN63BDDHNQPNGIj9ZPbDBps3YQFPcNEB1vrXB
EEjsQOhhbEBaGr3BBUjFQOUXEEGf4qbBacJhQJX2FcBsuZfBSpbKQFLEM0DZNJrBhaeDQLfITUAE
85bB+tuwQGOMH0DFKKTBd6m3QHJbZ0BatYfBh8tFQH7ZUcAvvJDBudPFQPPyHEGZn6/BaHetQGCi
VECB8JLBjZCEQHpsNEBB/aDB7no9QHoRYUBoSZHBr5XxQAwBMEDZPpnBWZ7gQHRcvj+LWrfBFt8B
QRHrTEDBS8XBoq3BQH3eGEEIC53BS2QoQNVpvb9bCZzB7uO/QGNFncBH+IvBiq3aQJcCTsCWB5nB
tnDIQEKVL8B26qzBGvPkQMashL96XLnBEQTRQEho70CsA8PBrhCSQBRJuT7+TpnBULOnQOX6pEBQ
86XBxp74QNSOt0BzZsHBHzzIQPF130CSzqDByP1lQNZnncAH+obBm2PKQBDlHkEhZ8DBqRSbQAho
gEATrYPB0QXCQFRCLEBFsIPBo4fRQP2Bi0BjWYfB4v9VQEL0L0C3xKXBkVEEQJgSXECJ1JTBRGVB
QNL4c0DMqInBOhSrQBavhsAZfY/BZuW5QHIAUMBov5bBWjHDQAdu2r+Oc6vB1oDTQAeVPL+vXrLB
IVzGQNB88kD5ZKfBEOSjQHB8KD0yU6DBak26QDwwl0DfG6zBvEDnQP98okDRwrvB+k7MQEyX/EDp
j7rBrLF+QPgch8DyuIzBZJnCQGuHD0G/TKbB+nerQHteqL/9bqLBkIWcQOzCFMCR8ZrBbCPLQNTw
4EAWt7HBCbvOQCbwskDUQ7PBUcW0QJXUgj+ZKafB97O/QHbsVUB1Fa3BfhbNQCAkID9rPLDB5Z3Y
QPijNEDon7XBvY3rQKTGbEBdAr3B8FPIQNJhFEEf5rjBOvthQC77GMD25ZfBqU/KQL7NMEBUEZrB
4r6DQO4WTUD1zpbBmYmwQLARHkBUEKTB2dq3QM5rZUBknYfBwoxGQAQwVcCz6pDBD4zDQOaiHEFq
767B4n6sQNDWQ0DCN5LBvFSEQIDsMkA70aDB6Oc/QE4nbUCxnZHB4WnxQILyMkCcTZnBKejgQLdE
vj/ZO7fBhYcBQYQETkCcPcXBC9/IQE6OIUFud8HBOgUoQER1xb9BSJzBqtnAQH67ncDWDIzBvCrb
QPgyTsAYE5nB8MrIQJA/MMChBq3BNiblQBGyhL95ZrnBZ5rFQJH83UD6cKDBfBqRQBFtqT4jdJnB
aVWmQBv6o0DR0qXBPrj2QOUBuECMTsHByjnQQA7870AJjMLB78xnQBDInsBTHYfBeeC+QBdcFkES
a57BUZWaQDctb0C+4YLBvsvMQGlxN0DXfYPBbrTIQNplkUDBh4jBgTJVQGToLUAHiKXBYCoIQKKe
cUDZgZXBdQdEQK3Of0AQ+4nBLcNJQOlYUMAzvI/BEjljQDQ3EMBR45bBfTu/QNya1r/+1avBrdLP
QE/PN7/rybLBuVrUQFq4/UDAerrB726jQOD3tD2bTKDBJYq+QMiJmEDvF6zBT/vrQIE2okAVurvB
Y9/OQIkx80ATUafBuqaCQPW6h8CRn4zBLCrSQHUEFUEcr7jBStGpQFAUo7/EeqLB6MObQPrZEcBi
zJrBZnvSQNrH4UC/qrHBTi3UQPyVs0D6ObPBa3O0QFashz/hO6fB/7bBQCAgWECNKq3BMWvLQFxm
JT9merDBT8XZQAYvNUC4vrXBvTDuQH7ua0C3Cr3Bo+XMQG/mD0GgGKbBpVu4QCdCUsCXPpfBCkTK
QKCzM0DmG5rB/0iDQJ2FTUDSFJfBjx6xQI0FIUCQNqTB+X62QEpeaUAtwofBTWWrQCO4h8BjUpDB
Q3bOQDQnHUH2rK7BIuWsQPPzVUD8/5LBsd2EQKrwN0A5QKHB5NY7QLPWW0CSXpHBfxzxQM70LUBw
75jBWL3fQEhjvj9lhrfBE4YCQaJLS0ABRsXBgarJQNk5GEGyJZzBDNLhQMf9UcBgdJrB0T8JQCV1
UcADo4zB5yM3QG5vvb+VVpnBu9HCQPCHLsDDoa3BGSXgQHyag78s/bnBzW3XQFJI8UD9gMLBi4GR
QLuGxz4oUZnBrVyrQDERpkBTwKXBbIb8QLYbt0A4OsHB1KPNQMt93kC8Z6DBEWhxQJSMoMAxJofB
sHXTQIjOH0HUbL/B4dSZQLHzgUDl34PBtTbAQEBbLkDHnoPBoqXQQBYxjEDUW4fBDaJXQDgvN0Br
OqbBYgkDQC3rVUDs+pTBecE+QAUVbEDUo4nBoi5LQKidUsC6/Y/B2MhjQBofEsBYHpfB5iG+QAOI
2b+OZqzBJ3DPQIzmOr/HGLPBY8m2QKZi9ECvV6rBJPWiQECdJT1zfqDBtL28QETHlkCQ4KvB2uPn
QG4goUBZ47vBgNn7QOQ09ECmLLPBpiWDQFKuicBfTo3BEF6+QKGRD0HgcafBHw6pQJsyqL+V9KLB
ZWibQBMLFcAqZ5vBmPrVQKW+3kA0ZrDB0ZzRQGjmsUCDD7PBwnC0QEffgj+NMafB2YvAQN4kVUCS
BK3BBMnLQPyGHz+Lb7DBLWnZQDU8M0ARirXBcKrsQPxaakDS8bzBFKAAQUNkD0HrFLDBt/63QEWY
VsDONZjBqXDKQA9XMUDs8ZnBEmqDQK5+TEAL0pbBluewQLAsHkAPAaTB2IK3QHStbkBi5ofBrWWr
QL0fisAsVJHBIN/iQB/KGUHfV6rBoX6sQNS8SEBVTZLBaq6EQE91NEBx6KDBwaM9QKZbZ0DJg5HB
5HjxQCPPNkCMM5nBWkvhQDwdvD+CIrfBSfgCQc0oS0CZ0MTBdvQSQfF1GUHqzbLB9DDhQCWaVsCd
pZvBpKkLQBrTUsCWlYzBgBI4QHjWvr/yRJnBO9/AQFOxL8C9cq7Bh7PfQIHZgr9qWrrBAKCZQOdx
5EDj+KfBuuqQQKBspj4xfJnBa7qpQCcApEDEdqXBPz71QMlgtkDk08HBQ0QKQfjz40Atp7fB+thy
QIDOosAG5YfBJqOmQPoMGEGzz6LB6w2aQFZAe0CSWIPBGOrLQP4OQkCNZIPBcNLIQG6PlUDuLInB
+ahWQBqvMUAHx6XBsqUFQEtraUCDYZXBWt1AQCCqeEDK0onBfp6cQMGNVMDKdYjBPD6sQLe9FcBf
eI/BTia+QNM+2r/XWavBgqLNQBj0P783lLLBsMjqQFuv/kBFg7jBZgGqQDDuoz1GC5/BhL/BQGO6
mUAF/avByAziQGDnoUD6mr3BxvarQNuU9kASX63B9+Z5QOr7hsBrFozBrpLmQGKsFUEMcrfBJlCs
QDJnpb/ljaHBQhCcQNbVEsA/+ZnBlArNQLmO40BRZLPBnlTQQOd+tEC3VbTBEsa4QGKphj/XZKbB
Pp/EQO5wWUBS1azBOArLQFJDID9LPbDB/o3WQG7HNEBpObbBbB7lQKiiakDwhL7B7qCpQNq9EUFU
pqzBT2B4QDlSTsAJG53BBkTMQMjWNkA3R5nBhqOEQGfNU0DgHpfBGq20QLnpIUCdoaPBQBO1QDAk
bUAgE4fBT4paQN8DhcDSL5bBwIzGQH56HkHAnrHBBHitQLJ3WECAa5LBmsuHQC9QN0CLA6HBIbA8
QJbuakDtPJLB5ozyQDdkLUCJeJfBwjvbQISuuz/FCLjBJB72QMBdSEBdhsfBKraJQGi+GkE856bB
RzJWQLWrSsDVD6fB/7KoQAXiWMAbYoDBiTTEQHoO0b+y24zBj+W/QCFiMMAAS63BS7vbQJ44ib/T
CLrBYEQCQeBP8UDWNL3BQt2cQGepyD7Xc5fBMTi0QOzZp0Bo3aTBd03tQDUZtkAaB8TBE5mUQCLc
4kAhWKnB3s5hQP0en8Dcr4bBt2b9QBEEIEGcXLvByYiXQB1Zg0ADg4PBFr++QPHZMkDjxYLBeKLO
QNqmjkBAeIbBklpeQLUGMUBdEKbBJ6MFQNloZkBbR5bB0K48QF0KgED6r4rB+A9eQKkgiMA4Q5fB
to97QGksUsC5fJ7Bfte+QKwS278VP6zBqInOQKflOr82OrPBPSnqQLAKAEGgTrfBM+ypQJpvAj0z
pZ/BNW7BQPuYmUD1gavBWWXiQDfGo0AV/LzBvPCqQPtn9kBpY6zBBhmAQNswicAS0ozB1oXlQEFM
FkFf/bXBsc+sQKyYqr98ZKLBdOOcQHk2F8CTApvBN27MQIc75EADbrLBESXQQJRNtUD4pbPBIei4
QH3Lgz/Ou6bB863EQIFtWUBmoazBOb7LQBtWIz+zmbDBIyjXQLTpNkCHFbbBj93lQJOjbkDEKr7B
7S+oQLuaEUFCaavB6cWsQLn1HMDVapDBaYzLQCCrMkCaK5nBmbiDQDP0TUC3GJfB1Xm0QD/VH0BZ
qaPBMsqzQDifaUDqCofBfVueQNjUWcCvlonBvBnFQDmxHkG0JrDB4KerQA1uSUDi75HBX2yHQMYt
NEAGGKHB9Ac7QIQoaEDHapLBkxLyQNQQLUA1b5fBGD3cQNXSwD/rJ7jBVGH3QAhyTkDjOsfBZd6H
QJ8zGkFnpqXBROPLQFnCzb+5C43Buc8tQPHsnsAbq5nBnwVjQLipT8DqjqbB85bAQD5TMMCYba7B
xPTcQLVRg7/etrrBJx0CQRRf80ChAbzBSSScQKKgoj4XD5jBA4SzQMvlpkDyVKTBar/tQGqwuEAL
QMPBOZSTQNkd4kAziqjBC5JpQBgdocBtQ4fBYFf8QKDqIEFtuLnBQiOVQH61dkCTCYPBLKjFQA0+
OUAdeILBqqjGQAJ5kkAZfYfBmiJeQHITL0BQPqbB1/kEQG81aEA8s5bBpyg6QM7xekAyxYrB

> <OMEGA_E>
BKEJP5DBCj8A1Co/lHYrP8BPOz/YIUA/

> <OMEGA_NBR>
      7548

$$$$
50216011
  -OEChem-04172616093D

 42 45  0     1  0  0  0  0  0999 V2000
    6.6139   -0.7962  -22.2505 C   0  0  0  0  0  0  0  0  0  0  0  0
    6.0580   -1.8087  -21.4510 C   0  0  0  0  0  0  0  0  0  0  0  0
    6.4733    0.5527  -21.8786 C   0  0  0  0  0  0  0  0  0  0  0  0
    5.1844   -0.1197  -19.9236 C   0  0  0  0  0  0  0  0  0  0  0  0
    5.6336   -3.6000  -19.0305 C   0  0  0  0  0  0  0  0  0  0  0  0
    3.5165   -2.4172  -18.8443 C   0  0  0  0  0  0  0  0  0  0  0  0
    3.8300   -4.3860  -17.6074 C   0  0  0  0  0  0  0  0  0  0  0  0
    5.3423   -1.4703  -20.2840 C   0  0  0  0  0  0  0  0  0  0  0  0
    4.8150   -2.5183  -19.3985 C   0  0  0  0  0  0  0  0  0  0  0  0
    5.7448    0.9114  -20.7147 C   0  0  0  0  0  0  0  0  0  0  0  0
    5.1405   -4.5333  -18.1089 C   0  0  0  0  0  0  0  0  0  0  0  0
    6.8131    3.1492  -20.1513 C   0  0  0  0  0  0  0  0  0  0  0  0
    5.9355    3.7178  -22.1392 C   0  0  0  0  0  0  0  0  0  0  0  0
    3.6013    3.7297  -19.0296 C   0  0  0  0  0  0  0  0  0  0  0  0
    3.1283    2.2800  -19.2170 C   0  0  0  0  0  0  0  0  0  0  0  0
    4.6242    2.5896  -19.1095 C   0  0  0  0  0  0  0  0  0  0  0  0
    5.5190    2.3958  -20.3678 C   0  0  2  0  0  0  0  0  0  0  0  0
    8.0517    4.8771  -21.4866 C   0  0  0  0  0  0  0  0  0  0  0  0
    3.0435   -3.3464  -17.9792 N   0  0  0  0  0  0  0  0  0  0  0  0
    6.8496    4.1046  -21.1590 N   0  0  0  0  0  0  0  0  0  0  0  0
    4.9598    3.0515  -21.5659 N   0  3  0  0  0  0  0  0  0  0  0  0
    6.1267    3.8643  -23.5062 N   0  0  0  0  0  0  0  0  0  0  0  0
    7.6288    2.9573  -19.2567 O   0  0  0  0  0  0  0  0  0  0  0  0
    5.9243   -5.5529  -17.6938 F   0  0  0  0  0  0  0  0  0  0  0  0
    7.1500   -1.0540  -23.1519 H   0  0  0  0  0  0  0  0  0  0  0  0
    6.1786   -2.8451  -21.7298 H   0  0  0  0  0  0  0  0  0  0  0  0
    6.9245    1.3240  -22.4853 H   0  0  0  0  0  0  0  0  0  0  0  0
    4.6290    0.1334  -19.0326 H   0  0  0  0  0  0  0  0  0  0  0  0
    6.6230   -3.7096  -19.4495 H   0  0  0  0  0  0  0  0  0  0  0  0
    2.8893   -1.5813  -19.1168 H   0  0  0  0  0  0  0  0  0  0  0  0
    3.4451   -5.1174  -16.9122 H   0  0  0  0  0  0  0  0  0  0  0  0
    3.5129    4.4489  -19.8572 H   0  0  0  0  0  0  0  0  0  0  0  0
    3.4267    4.2466  -18.0744 H   0  0  0  0  0  0  0  0  0  0  0  0
    2.6141    1.7588  -18.3961 H   0  0  0  0  0  0  0  0  0  0  0  0
    2.7003    1.9611  -20.1789 H   0  0  0  0  0  0  0  0  0  0  0  0
    5.0967    2.3121  -18.1557 H   0  0  0  0  0  0  0  0  0  0  0  0
    7.8311    5.5658  -22.3155 H   0  0  0  0  0  0  0  0  0  0  0  0
    8.3681    5.4541  -20.6051 H   0  0  0  0  0  0  0  0  0  0  0  0
    8.8583    4.1912  -21.7847 H   0  0  0  0  0  0  0  0  0  0  0  0
    4.0128    2.9984  -21.8826 H   0  0  0  0  0  0  0  0  0  0  0  0
    5.4879    3.4410  -24.1486 H   0  0  0  0  0  0  0  0  0  0  0  0
    6.9033    4.3931  -23.8485 H   0  0  0  0  0  0  0  0  0  0  0  0
  1  2  1  0  0  0  0
  1  3  2  0  0  0  0
  2  8  2  0  0  0  0
  3 10  1  0  0  0  0
  4  8  1  0  0  0  0
  4 10  2  0  0  0  0
  5  9  1  0  0  0  0
  5 11  2  0  0  0  0
  6  9  2  0  0  0  0
  6 19  1  0  0  0  0
  7 11  1  0  0  0  0
  7 19  2  0  0  0  0
  8  9  1  0  0  0  0
 10 17  1  0  0  0  0
 11 24  1  0  0  0  0
 12 17  1  0  0  0  0
 12 20  1  0  0  0  0
 12 23  2  0  0  0  0
 13 20  1  0  0  0  0
 13 21  2  0  0  0  0
 13 22  1  0  0  0  0
 14 15  1  0  0  0  0
 14 16  1  0  0  0  0
 15 16  1  0  0  0  0
 16 17  1  0  0  0  0
 17 21  1  0  0  0  0
 18 20  1  0  0  0  0
  1 25  1  0  0  0  0
  2 26  1  0  0  0  0
  3 27  1  0  0  0  0
  4 28  1  0  0  0  0
  5 29  1  0  0  0  0
  6 30  1  0  0  0  0
  7 31  1  0  0  0  0
 14 32  1  0  0  0  0
 14 33  1  0  0  0  0
 15 34  1  0  0  0  0
 15 35  1  0  0  0  0
 16 36  1  0  0  0  0
 18 37  1  0  0  0  0
 18 38  1  0  0  0  0
 18 39  1  0  0  0  0
 21 40  1  0  0  0  0
 22 41  1  0  0  0  0
 22 42  1  0  0  0  0
M  CHG  1  21   1
M  END
> <OMEGA_C>
SqXTQMHQS78RAbLBKNvBQE6D57+nm6vBQCXPQL2ADT90B6/BuualQJgq9b2CY5/Bxka0QHJmZsBg
PpjBEg5hQBazGsASwZbBvx51QARajMDu24zB+POqQJIxvL+fRaLBIhSaQLIrIcAmMJvBzNW3QBtP
aT+zt6XBsH6kQHEQkcAT35DB0gTaQA+MSUDgNaHBku+9QPfvbUAdHbHBT3xmQFezbkCnPJjBjTVI
QA/sEUB9vJnBcPmTQMy8JUBJ4JjB4JuwQGFUGUAs8aLBo9MAQWARnEB65KvBN8lCQF8rVsBv1Y/B
+C/bQBVZg0C6RanBpraeQGNMQ0DlhqzBEg7EQFFQd0CcDLzBNB/0QKFEPUCiDZrBlpO9QEixscDy
jI3BzczkQHvphr8oN7nBKLfFQC4WNsCR1q3BPJXdQKp4qT/e4bPBcSCUQHqUCD7RQpjBQu/TQEdq
bcCtmJvBjOk4QCpoyr9L75jBuXxcQHvBo8AaTIfB/dNgQGBdjkCY257BtE5bQNXjh0B4mJDBJU0n
QJAf4T9AK5PBbtIsQL4F+z9fbqHBSRijQB/6E0DrPpHBG5j6QKQaskAfhrLBneMFQbOHrkAv16TB
dLsNQQwehkADR67BmmiAQAblP0CJD6/BxpyvQDs5XEBTMMHB9+fcQGGUjEDRyb7BW3DIQAg+Ar+5
yLHB4tq7QCgF1b+jOKzB/9HGQMhqPj9ws6zBdMuqQCAbn75FmJzBRo1xQMPlLsCo5pXB2Ge6QFRD
d8DgOZvBdYGKQG0In8CJ14/B3HusQH42x7+ZqKHBXmufQGwML8D/qZvB0M+4QCCrVz+O66HB3Rxc
QHnvd8ADAJDBdjq/QC6yV0Cwr6LBbIt/QPrKZUB48ZnBYv3LQMC6UUAK24jBsAq7QHSC7z9KYobB
zXvQQC4CCkCxU5HBFlu1QG7qCUBE75vBnOSgQPsatUDJQKLBjOKvQLxansAMV5XB7qecQAG+hkB+
FKHBrw2IQNZSFEDQj5nBfLxDQG/8hED1JJPBTOrgQPoGaUBLP6fBSKERQInvesAbhorBYlnTQOg3
Fb/19bnBCPS9QBxtKMCYBrDBFz/QQIEI0T8kALHBkJ2eQD1dcr7lh5TBpcxHQNOk7791BpbBywfY
QMcXd8DtrJ/BUUyCQJgUu8DNOovBum61QKJag0DgMIrBc4joQD7jaUAkr4TBQ3TLQJj1nj8rcoDB
ilqYQKKZ2D/n84XBN//wQGHu3z+7NJLB++CBQJ1zxEC6o6DBMd+4QNsPwUDTi5zBuiCrQNOvvEDu
dKrB7mVmQNIWyz/q8JfB0aokQM5ZZUA+243BY5Y3QFBepED4hJPBBXnCQKj1Dr+sebLB+Ta1QNx8
1L9WXazBDUvGQFgWNT8ruK3B0ravQOBXaL79npzBsyCEQE1uIcAM2pHB0OOsQL/SfsCam53Bzo2H
QNufncB3M4/BzROsQLbgwL/IWqHBheqeQFBeK8CH3JrBw6y7QDggZj8AzKLB3btwQEtFasBM+4vB
Tfa1QC73W0ApHaXBygaEQAqmXEDGq5fBBiMKQRJjMUBnqZ3BHxMAQYItcECjlpXBm2DrQDqAGECp
l5fBlGu/QPq4EUDEZ53BQN15QI0Kp0AOHqbBWkShQBEyosCi2JfBUp+TQBXag0BhtaDBKFydQPQ2
HEA1SJXBTb0/QHo7c0Bd1ZHBUbzJQDbqcUA7Iq3Boxs9QGXHYsAjWIPB1cHJQDtRL79F3LrBj/mx
QJtHKMB0FrDBw23RQBSXxT+sbLLB5UepQCG/272oL5TB4r9xQMmbxb9EhI/Bv2DBQISRg8DjfKTB
FPR8QDmeucC/q4rBDW8JQeExP0CdSKbBOWEZQSaZEUAkxpvBACIIQSQ3fUDE743BqF/wQO9nlUA9
cpjBERPwQM/70j/cJZHBHyJGQB7bskBD7qDBMIKTQMU2wUAxyKfBMI5eQD9Xm0C6rq3B0AqaQOc8
7j/i0I7B9F4vQEeSUUAiWIvBxxocQCmRkkDpH5TB

> <OMEGA_E>
HxuAP9SDkz8BfZI/

> <OMEGA_NBR>
     10061

$$$$
50093272
  -OEChem-04172616093D

 53 58  0     1  0  0  0  0  0999 V2000
    5.3491   -4.2103  -17.9382 C   0  0  0  0  0  0  0  0  0  0  0  0
    5.8133   -3.2480  -18.8414 C   0  0  0  0  0  0  0  0  0  0  0  0
    6.0906   -1.7047  -21.4350 C   0  0  0  0  0  0  0  0  0  0  0  0
    6.5908   -0.7360  -22.3078 C   0  0  0  0  0  0  0  0  0  0  0  0
    6.2886    7.5911  -20.8979 C   0  0  0  0  0  0  0  0  0  0  0  0
    5.1329    0.0450  -20.0345 C   0  0  0  0  0  0  0  0  0  0  0  0
    5.8576    4.7324  -21.4854 C   0  0  0  0  0  0  0  0  0  0  0  0
    7.2441    5.0841  -23.4546 C   0  0  0  0  0  0  0  0  0  0  0  0
    6.3892    7.8934  -23.3008 C   0  0  0  0  0  0  0  0  0  0  0  0
    3.9826   -4.2232  -17.5919 C   0  0  0  0  0  0  0  0  0  0  0  0
    6.1820    8.9859  -20.7656 C   0  0  0  0  0  0  0  0  0  0  0  0
    5.3630   -1.3113  -20.2993 C   0  0  0  0  0  0  0  0  0  0  0  0
    4.8970   -2.3173  -19.3594 C   0  0  0  0  0  0  0  0  0  0  0  0
    6.3915    7.0363  -22.1891 C   0  0  0  0  0  0  0  0  0  0  0  0
    6.4939    5.5986  -22.3822 C   0  0  0  0  0  0  0  0  0  0  0  0
    5.6526    1.0240  -20.8957 C   0  0  0  0  0  0  0  0  0  0  0  0
    6.0044    3.3480  -21.6253 C   0  0  0  0  0  0  0  0  0  0  0  0
    6.3968    0.6272  -22.0393 C   0  0  0  0  0  0  0  0  0  0  0  0
    6.7672    2.8273  -22.7038 C   0  0  0  0  0  0  0  0  0  0  0  0
    7.3643    3.7062  -23.6215 C   0  0  0  0  0  0  0  0  0  0  0  0
    6.2745    9.2751  -23.0978 C   0  0  0  0  0  0  0  0  0  0  0  0
    3.5381   -2.3771  -18.9713 C   0  0  0  0  0  0  0  0  0  0  0  0
    6.3207    2.7562  -19.2534 C   0  0  0  0  0  0  0  0  0  0  0  0
    4.1119    3.1932  -18.8578 C   0  0  0  0  0  0  0  0  0  0  0  0
    5.5221    2.4698  -20.5074 C   0  0  2  0  0  0  0  0  0  0  0  0
    5.7361    3.6090  -16.9625 C   0  0  0  0  0  0  0  0  0  0  0  0
    3.1078   -3.3238  -18.1060 N   0  0  0  0  0  0  0  0  0  0  0  0
    6.1741    9.7989  -21.8507 N   0  0  0  0  0  0  0  0  0  0  0  0
    5.3851    3.0618  -18.2796 N   0  0  0  0  0  0  0  0  0  0  0  0
    4.1390    2.7948  -20.1117 N   0  3  0  0  0  0  0  0  0  0  0  0
    2.9891    3.6880  -18.2124 N   0  0  0  0  0  0  0  0  0  0  0  0
    7.5424    2.7841  -19.1510 O   0  0  0  0  0  0  0  0  0  0  0  0
    7.0056    1.4890  -22.9214 O   0  0  0  0  0  0  0  0  0  0  0  0
    8.0892    3.2274  -24.6578 F   0  0  0  0  0  0  0  0  0  0  0  0
    6.2485   10.0908  -24.1746 F   0  0  0  0  0  0  0  0  0  0  0  0
    2.6348   -1.5171  -19.5039 F   0  0  0  0  0  0  0  0  0  0  0  0
    6.0285   -4.9335  -17.5119 H   0  0  0  0  0  0  0  0  0  0  0  0
    6.8526   -3.2212  -19.1339 H   0  0  0  0  0  0  0  0  0  0  0  0
    6.2624   -2.7525  -21.6324 H   0  0  0  0  0  0  0  0  0  0  0  0
    7.1295   -1.0378  -23.1938 H   0  0  0  0  0  0  0  0  0  0  0  0
    6.2916    6.9552  -20.0250 H   0  0  0  0  0  0  0  0  0  0  0  0
    4.5565    0.3369  -19.1691 H   0  0  0  0  0  0  0  0  0  0  0  0
    5.2531    5.1329  -20.6851 H   0  0  0  0  0  0  0  0  0  0  0  0
    7.7267    5.7566  -24.1483 H   0  0  0  0  0  0  0  0  0  0  0  0
    6.4748    7.4929  -24.3002 H   0  0  0  0  0  0  0  0  0  0  0  0
    3.6230   -4.9692  -16.8987 H   0  0  0  0  0  0  0  0  0  0  0  0
    6.1048    9.4193  -19.7794 H   0  0  0  0  0  0  0  0  0  0  0  0
    4.8202    3.7648  -16.3736 H   0  0  0  0  0  0  0  0  0  0  0  0
    6.3948    2.9027  -16.4359 H   0  0  0  0  0  0  0  0  0  0  0  0
    6.2567    4.5694  -17.0915 H   0  0  0  0  0  0  0  0  0  0  0  0
    3.3397    2.7231  -20.7084 H   0  0  0  0  0  0  0  0  0  0  0  0
    2.1215    3.7613  -18.7041 H   0  0  0  0  0  0  0  0  0  0  0  0
    3.0470    3.9715  -17.2552 H   0  0  0  0  0  0  0  0  0  0  0  0
  1  2  2  0  0  0  0
  1 10  1  0  0  0  0
  2 13  1  0  0  0  0
  3  4  2  0  0  0  0
  3 12  1  0  0  0  0
  4 18  1  0  0  0  0
  5 11  2  0  0  0  0
  5 14  1  0  0  0  0
  6 12  2  0  0  0  0
  6 16  1  0  0  0  0
  7 15  1  0  0  0  0
  7 17  2  0  0  0  0
  8 15  2  0  0  0  0
  8 20  1  0  0  0  0
  9 14  2  0  0  0  0
  9 21  1  0  0  0  0
 10 27  2  0  0  0  0
 11 28  1  0  0  0  0
 12 13  1  0  0  0  0
 13 22  2  0  0  0  0
 14 15  1  0  0  0  0
 16 18  2  0  0  0  0
 16 25  1  0  0  0  0
 17 19  1  0  0  0  0
 17 25  1  0  0  0  0
 18 33  1  0  0  0  0
 19 20  2  0  0  0  0
 19 33  1  0  0  0  0
 20 34  1  0  0  0  0
 21 28  2  0  0  0  0
 21 35  1  0  0  0  0
 22 27  1  0  0  0  0
 22 36  1  0  0  0  0
 23 25  1  0  0  0  0
 23 29  1  0  0  0  0
 23 32  2  0  0  0  0
 24 29  1  0  0  0  0
 24 30  2  0  0  0  0
 24 31  1  0  0  0  0
 25 30  1  0  0  0  0
 26 29  1  0  0  0  0
  1 37  1  0  0  0  0
  2 38  1  0  0  0  0
  3 39  1  0  0  0  0
  4 40  1  0  0  0  0
  5 41  1  0  0  0  0
  6 42  1  0  0  0  0
  7 43  1  0  0  0  0
  8 44  1  0  0  0  0
  9 45  1  0  0  0  0
 10 46  1  0  0  0  0
 11 47  1  0  0  0  0
 26 48  1  0  0  0  0
 26 49  1  0  0  0  0
 26 50  1  0  0  0  0
 30 51  1  0  0  0  0
 31 52  1  0  0  0  0
 31 53  1  0  0  0  0
M  CHG  1  30   1
M  END
> <OMEGA_C>
6CurQGK6hsBsgY/Bgwa6QKzfT8Avu5bB9uXCQOsz2r/oeqvBqefSQD5qPL9mdrLBWDzJQBvq8kD3
LqfBkECkQKB1OD20RqDB3HG7QK9vl0Ar4qvBp8/nQJCwokAIo7vBbHTMQOuW/EAhaLrBVuN+QGYk
h8AyvIzBE9PFQG3GD0EAIKbBBJ6rQDbZp7/0ZKLBmLScQPxOFMAH4JrBPIfMQPoo4UBVg7HBx83P
QHkns0DDDrPB4eG0QGsSgz9rKqfBqiPAQEpFVkCIAK3B97LMQHCSID9oULDBgYzYQMLyNEBYobXB
KajrQM4xbUDu+LzB5cjIQNpmFEFMyLjBiHBiQOAiGMAmxZfBlUPKQFhmMEAJB5rBdpSDQKJdTEC8
3JbBRLWwQAISHkAqD6TBao63QOz5ZkAzs4fByOZGQMi4VMAm2ZDBdJLFQHvIHEFAzq7Bn1KsQLz0
Q0CUPJLB8XKEQNDeMkDd5KDBHE4/QPoHbED8spHB/FrxQHIuMkAoNZnB9S3gQGOXvj8cX7fBkW0B
QZyNTkAcQ8XBpfPHQP1zIUGHZcHBBKEoQOIuwr/8B5zBvenAQDPfncBuGIzBU0jbQFUoTsBGEpnB
imXIQGUpMMAgD63BJSXkQLfWhL//jLnBFFXJQL6Q3kAzM6DBj86RQNp/rD5TWpnByhmoQM9ApEAO
e6XBfEH3QOQ1uEClL8HBXTHPQAvG70DHZsLBed9nQBYEn8CXMIfBY1rDQJW1FkE+PJ7BFT+aQAby
cEAj/YLBR6LMQGjGOUCtfIPBCjfIQH04kkBku4jBAL5VQA9HLkC+qqXB38UHQIa5cEDqoZXBaQFD
QN4tfkCfCorBwFepQHcChsBIZY/BBpu4QIjrTsDEoZbBGpvCQDTp2L/3UavBexTTQOU0PL/ST7LB
5YLOQETP/EArDLvBVTakQPBpkz2bPKDBFzK8QLfjl0CFSazBjKDoQPkfokDZE7zBX6fKQDw980C1
06fBLj97QB7PhcDLnozB9mjLQFmSFEFuZrnBCierQAj/pL8QTKLBTribQA57EsA1xprBHunNQMxa
4UAIIrLB77TQQIAvs0Crj7PBtEe1QISKhT9GJafBdbrAQPr8VkBsPa3BuiPNQN+dIT+CP7DBtCXZ
QPyTNEBbzLXBHE7sQPjba0CVP73BJ8XHQNnuD0GKwabBgm5gQNEOFcBGp5fB4gLLQHtZM0B0MZrB
uM+DQPP7R0DGuJbBYFKxQOjfH0A+LKTBCxC4QPD6Z0DQxIfBlhJEQF5EUcDgupDB7BHIQMryHEFg
b6/B1RqtQB2VREAITpLBGCaFQPZeNUDl/KDB+Ko9QOYyXECpIZHB5hLyQPsuOEDsfJnBRtzgQMJ9
vT/zW7fBXsIBQSkPTECyd8XBzfbEQGKGGEEw25zB3WQnQCj/ub9g3pvBJsW+QEZvncAy+4vB+tvZ
QHo3TsC0+5jBnN/HQEasL8DI16zBt33kQIr4hb/WWLnB4FDRQGb770AmCsPBOcGRQFtAvz6OV5nB
H92oQKYjpUD676XBQyT4QJxAt0BftcHBsWDKQM7n3kBN16DBAJRjQAyFncD+EofBNLHLQCAtH0Gv
OMDBl8CaQPOwb0D3/YLBnxDOQOojPECLoIPBC5fHQNpPk0DOy4jBFtVXQDa/NUBh6KXBG0cFQP1R
XUCT6ZTBartAQECnaUDUUYnBtPlKQBuzUcAu5o/BA81jQC7/EMC7/JbBQ2S+QKx12L9QMazBBmnP
QO98Or8JALPB2rfwQOc5+0DBFrXBXPmiQBAudT1Rb6DBM/m9QLHblkAs3avBzlTpQPiJoUDNy7vB
Kd6uQEn88UAGHKvBwB2DQOURicCBJY3BNoHuQOCOE0E/z7LBhTmpQODxpb+oyKLBgJWbQCN9E8BI
LJvBKkjQQF4l4EBtN7HBFP/RQEdRskDHIbPBfGe0QABthD8YNqfBYWbBQAeGVUB4CK3Byo7LQCvR
ID+LeLDBw9vZQBeCM0CkmLXBLIftQFPWakDJ77zBUx6vQEbzDkFi9KjBsz64QCqhVMDP5ZfBr07K
QA8YMkAX+pnBjkGDQBXDTUA79JbB/AWxQL3sHkArEaTB4tK2QMV+a0CRu4fBpIurQAY+icCMDpHB
pFXOQKPWG0GL1azBfd6sQAekU0Cc05LBCKmEQKLzNUB7DqHB6aE8QIdHYkATW5HBGmDxQAnQM0AC
HZnBGKXgQLwYvD8mU7fBcK0CQTlAS0CSD8XB1XGPQKZEF0FT4qLB4pPhQHMTVMDPOpvBei4LQMBL
UsD6kozBSAM4QNf0vL9hLpnBPW3BQIRRL8DmIK7BQpzfQEmxg79xPrrB13EFQflw7kA8vbnBWN2Q
QP4YtD7RdJnB0LqrQEX7o0DWTKXBc/D3QCTQtkD8isHBmleVQHr63UDkH6jBnppyQGNLosAuxofB
8H0DQXcXHkGV4rXBAdSZQOYtgkBg1IPBX1LCQCTbMkAnXoPBgcnPQFiQjkCCsYfBfuVWQB+/M0C7
+aXBLrsDQNyMX0B2AJXBGUlAQNvLc0DArInB2ZWcQAxRVMDxcojBRymsQGV/FcDwdo/BNCa+QDEt
2r92WKvBB6/NQLviP7/SkbLBHL3qQAm5/kAogrjBIuWpQOIppj0yDp/B17XBQNq9mUCy/qvBOhni
QIPsoUD5mb3BheKrQNyS9kCIYa3BDPp5QE7yhsAbE4zBL37mQOmwFUGicLfB0j2sQGhHpb/RjqHB
/gKcQB/AEsC0+JnB/v7MQMmS40AcZbPBBFLQQHCDtEBTVrTB/bO4QHfAhj8/Z6bBhZnEQLV4WUDR
1qzBqA7LQN5dID+4PLDB3JnWQEXPNECYOLbBTDPlQDasakD8gr7BbYOpQJG8EUGzqKzBa2h4QKRi
TsADGp3BhUDMQAbJNkDkS5nBCKOEQGG7U0BZHZfBwKG0QH7zIUA7pKPBE0e1QFoxbEA6EIfBQKda
QGgMhcBbLZbBtW/GQO17HkEen7HBuYCtQHM6WEBVa5LBlMOHQI5vN0CKBKHBIas8QPrCakA2OpLB
nIfyQIE5LUCsfZfB8E7bQCC6uz+ZBrjB9EH2QBRoSECbgsfBg4+JQOW5GkF866bB8UtWQMvjSsD4
D6fB2qWoQCuHWMCWXoDB3BDEQNRQ0L+j2ozBrum/QLpaMMCeSK3BAtjbQCA7ib9FBLrBzkECQcJe
8UBxMr3BgbGcQJpsyT62eJfB2SW0QFncp0D836TB0l7tQJsetkCCBcTBFoWUQJDV4kDlW6nB6PVh
QPAWn8CYq4bBilL9QOIKIEGRWbvBStOXQAnhgkC/dIPBVeS+QHWWMUAs0oLBoO7OQPIQjkAjb4bB
dEdeQEtUMUDHEabBV6AFQClPZkBrRZbBWaU8QJ7Ef0Csq4rBEAleQCmvh8AuKJfBtYp7QJNtUcCF
Zp7B7da+QKAv2r8lL6zBypTOQDjnOb+EL7PBzTTqQDsXAEF6eLfBu+mpQCypND3IoJ/BF2zBQHPR
mUCJnqvB23ziQMDJo0B7Fr3BQvqqQP6a9kCMjKzB5Q6AQFKfiMAatozB0pTlQBdaFkE1LLbBPsms
QCcxqb+YV6LBPdmcQKZYFsAi8JrBNnjMQNxf5ECSlLLBpy/QQBdutUB3xbPBd+u4QLvwhD/tvabB
XazEQJfVWUCbtKzB8cnLQGSZJD82mLDBQzfXQCkXN0DSIrbBjfblQP+gbkBAPL7BvjyoQCy1EUGT
l6vBA7asQHraG8BtV5DB06PLQHGrM0DjPpnBjNuDQCZsT0DOKpfBYn+0QBt5IEAMtqPB/cCzQMeV
ZUA57YbBqEueQBWYWMCNfonBwinFQADGHkGrV7DBCoSsQIyMU0BAW5LB43eHQL37NEDWI6HBLpY6
QFohZUBrUJLBi+DxQHRSKkD6XpfB/lPcQDwRwT/1KrjBJob3QOU3TkDGR8fBneqHQF5UGkE/16XB
ms7LQIVZy78F/IzBTdItQIKFnsARjZnBfg1jQJkdT8CPeabBqpHAQJ3vL8A0V67BewjdQKY6g78R
qbrBPiICQblt80AxKrzBWiGcQP6Rqj6/DJjBwnWzQP8zp0CHdaTB49/tQGOguEB/XcPB/ZqTQP5Z
4kBhsajBTnxpQP58oMCkI4fBo2j8QBP0IEGC6bnB7ROWQBYufkAaVIPBUVu9QJRZKkBU0oLB+z3N
QILXikDEGIbB+iFeQFeJL0A1RabB8OYDQGYeYUCqcJbBkNQ5QOK+eEAhs4rB

> <OMEGA_E>
+BQKPwgBCz+sQyo/ut06PwTdPz8=

> <OMEGA_NBR>
     14792

$$$$
284494
  -OEChem-04172616093D

 53 58  0     1  0  0  0  0  0999 V2000
    5.8426    9.0059  -21.1325 C   0  0  0  0  0  0  0  0  0  0  0  0
    5.6725    7.6647  -21.4841 C   0  0  0  0  0  0  0  0  0  0  0  0
    7.2588    5.0391  -23.5433 C   0  0  0  0  0  0  0  0  0  0  0  0
    7.3662    3.6587  -23.6786 C   0  0  0  0  0  0  0  0  0  0  0  0
    5.5915   -3.3178  -19.0307 C   0  0  0  0  0  0  0  0  0  0  0  0
    5.9558    4.7466  -21.5073 C   0  0  0  0  0  0  0  0  0  0  0  0
    5.0180    0.0916  -20.0911 C   0  0  0  0  0  0  0  0  0  0  0  0
    5.9724   -1.6747  -21.4789 C   0  0  0  0  0  0  0  0  0  0  0  0
    3.4356   -2.2167  -18.9180 C   0  0  0  0  0  0  0  0  0  0  0  0
    7.0763    9.6326  -21.4002 C   0  0  0  0  0  0  0  0  0  0  0  0
    5.1128   -4.2778  -18.1259 C   0  0  0  0  0  0  0  0  0  0  0  0
    6.6186    5.5784  -22.4124 C   0  0  0  0  0  0  0  0  0  0  0  0
    6.7487    6.9864  -22.0877 C   0  0  0  0  0  0  0  0  0  0  0  0
    4.7397   -2.2746  -19.4325 C   0  0  0  0  0  0  0  0  0  0  0  0
    5.2226   -1.2701  -20.3616 C   0  0  0  0  0  0  0  0  0  0  0  0
    6.0394    3.3622  -21.6486 C   0  0  0  0  0  0  0  0  0  0  0  0
    5.6176    1.0600  -20.9127 C   0  0  0  0  0  0  0  0  0  0  0  0
    6.7986    2.8162  -22.7158 C   0  0  0  0  0  0  0  0  0  0  0  0
    6.3938    0.6442  -22.0305 C   0  0  0  0  0  0  0  0  0  0  0  0
    6.5431   -0.7183  -22.3155 C   0  0  0  0  0  0  0  0  0  0  0  0
    3.0133   -3.2255  -18.0338 C   0  0  0  0  0  0  0  0  0  0  0  0
    7.9831    7.6575  -22.2798 C   0  0  0  0  0  0  0  0  0  0  0  0
    6.3245    2.8041  -19.2680 C   0  0  0  0  0  0  0  0  0  0  0  0
    4.1116    3.2545  -18.8848 C   0  0  0  0  0  0  0  0  0  0  0  0
    5.5268    2.5133  -20.5248 C   0  0  1  0  0  0  0  0  0  0  0  0
    5.7283    3.6875  -16.9816 C   0  0  0  0  0  0  0  0  0  0  0  0
    8.1144    8.9610  -21.9552 N   0  0  0  0  0  0  0  0  0  0  0  0
    3.8460   -4.2254  -17.6505 N   0  0  0  0  0  0  0  0  0  0  0  0
    5.4147    3.3458  -18.3751 N   0  0  0  0  0  0  0  0  0  0  0  0
    4.1483    2.8880  -20.1484 N   0  3  0  0  0  0  0  0  0  0  0  0
    2.9585    3.5631  -18.1790 N   0  0  0  0  0  0  0  0  0  0  0  0
    7.5452    2.7869  -19.1547 O   0  0  0  0  0  0  0  0  0  0  0  0
    7.0667    1.4866  -22.8806 O   0  0  0  0  0  0  0  0  0  0  0  0
    7.2718   -1.1113  -23.3861 F   0  0  0  0  0  0  0  0  0  0  0  0
    1.7472   -3.2022  -17.5658 F   0  0  0  0  0  0  0  0  0  0  0  0
    9.0874    6.9874  -22.7015 F   0  0  0  0  0  0  0  0  0  0  0  0
    5.0402    9.5549  -20.6622 H   0  0  0  0  0  0  0  0  0  0  0  0
    4.7365    7.1594  -21.2971 H   0  0  0  0  0  0  0  0  0  0  0  0
    7.6642    5.6926  -24.3015 H   0  0  0  0  0  0  0  0  0  0  0  0
    7.8871    3.2376  -24.5258 H   0  0  0  0  0  0  0  0  0  0  0  0
    6.5998   -3.3797  -19.4127 H   0  0  0  0  0  0  0  0  0  0  0  0
    5.3801    5.1747  -20.7001 H   0  0  0  0  0  0  0  0  0  0  0  0
    4.4032    0.3931  -19.2559 H   0  0  0  0  0  0  0  0  0  0  0  0
    6.1062   -2.7256  -21.6886 H   0  0  0  0  0  0  0  0  0  0  0  0
    2.7693   -1.4133  -19.1955 H   0  0  0  0  0  0  0  0  0  0  0  0
    7.1978   10.6776  -21.1562 H   0  0  0  0  0  0  0  0  0  0  0  0
    5.7673   -5.0737  -17.8025 H   0  0  0  0  0  0  0  0  0  0  0  0
    4.8325    4.0993  -16.4939 H   0  0  0  0  0  0  0  0  0  0  0  0
    6.0538    2.7830  -16.4468 H   0  0  0  0  0  0  0  0  0  0  0  0
    6.5341    4.4360  -16.9602 H   0  0  0  0  0  0  0  0  0  0  0  0
    3.3596    2.8665  -20.7628 H   0  0  0  0  0  0  0  0  0  0  0  0
    2.0677    3.5150  -18.6309 H   0  0  0  0  0  0  0  0  0  0  0  0
    3.0177    3.8337  -17.2182 H   0  0  0  0  0  0  0  0  0  0  0  0
  1  2  2  0  0  0  0
  1 10  1  0  0  0  0
  2 13  1  0  0  0  0
  3  4  2  0  0  0  0
  3 12  1  0  0  0  0
  4 18  1  0  0  0  0
  5 11  2  0  0  0  0
  5 14  1  0  0  0  0
  6 12  2  0  0  0  0
  6 16  1  0  0  0  0
  7 15  1  0  0  0  0
  7 17  2  0  0  0  0
  8 15  2  0  0  0  0
  8 20  1  0  0  0  0
  9 14  2  0  0  0  0
  9 21  1  0  0  0  0
 10 27  2  0  0  0  0
 11 28  1  0  0  0  0
 12 13  1  0  0  0  0
 13 22  2  0  0  0  0
 14 15  1  0  0  0  0
 16 18  2  0  0  0  0
 16 25  1  0  0  0  0
 17 19  1  0  0  0  0
 17 25  1  0  0  0  0
 18 33  1  0  0  0  0
 19 20  2  0  0  0  0
 19 33  1  0  0  0  0
 20 34  1  0  0  0  0
 21 28  2  0  0  0  0
 21 35  1  0  0  0  0
 22 27  1  0  0  0  0
 22 36  1  0  0  0  0
 23 25  1  0  0  0  0
 23 29  1  0  0  0  0
 23 32  2  0  0  0  0
 24 29  1  0  0  0  0
 24 30  2  0  0  0  0
 24 31  1  0  0  0  0
 25 30  1  0  0  0  0
 26 29  1  0  0  0  0
  1 37  1  0  0  0  0
  2 38  1  0  0  0  0
  3 39  1  0  0  0  0
  4 40  1  0  0  0  0
  5 41  1  0  0  0  0
  6 42  1  0  0  0  0
  7 43  1  0  0  0  0
  8 44  1  0  0  0  0
  9 45  1  0  0  0  0
 10 46  1  0  0  0  0
 11 47  1  0  0  0  0
 26 48  1  0  0  0  0
 26 49  1  0  0  0  0
 26 50  1  0  0  0  0
 30 51  1  0  0  0  0
 31 52  1  0  0  0  0
 31 53  1  0  0  0  0
M  CHG  1  30   1
M  END
> <OMEGA_C>
9fa6QFgYEEFbD6nB24S1QDlF9UBq36vBz0foQEdAoUCsWLzB7rfrQFkoakDbbb3Bse2yQAlWVMDk
PpjBQJa+QH/kl0D9DqzBnJOgQGisuz2CuqDBTx6/QJhb1r+31KvBJuFbQN7eDcALWJfBwHDiQPse
GkGmM6vB45ujQOrjiMDNAZHBjMvTQEeCskCNTLPBF/XXQO+Q30CQs7DBy6uXQPCSEcDWdZvBbh+n
QFKRor+b5KLBgkLBQHEuV0BlMK3BCcOzQIauhz88TafBPI7ZQFc9NEDlubXB1JnMQH3nJD+APrDB
S2HRQNXgN78ihrLBLtlAQN1uTsBDRZDBfXX/QAkK9UAVPbLBmWLKQC12M0DFJJrB2ZGDQAFJUED8
E5fBpduwQDjZIEDDMqTBiE63QP//a0BI2ofBnNQBQWNgD0EppK/BgiR2QKw2h8A4NI3B30StQI0h
VkAsAJPBkr6EQGvVOEDcL6HBPlg9QDMJZEClbpHBj3LxQKRcMkDAPJnBwyLiQHJHvj9+C7fBS7Lo
QHg/jr+jFrvBMaTfPwPxTMC6hozB5mURQYqY30CrnLXBiUmhQMngGEEoTKXBIJGXQKEZ5UCLYKrB
CkH1QB8qtkCGacLBvmL8QDI0T0DrNMTBtzHTQFZMWMAkTZvB5imsQHSXpUC3maXBuOaMQEdIyT4l
DJrBsWXDQLFwLsBZgq3BojwxQL7ntL9TkJnBI1TmQHLXKkHuP6nB7Y24QLpbosCXa47BgKOaQFct
g0CB84PBwLjBQHkdMkD0koPBPxfRQAP0jUB9rofBpQNXQHd0N0A+GqbB7FUEQG71YEAoDJXBxiJB
QE1bdUDPvonBTYsFQeSXDUF2t6/BD7gBQVzu8EBpvLLBVfToQMDRoEAuWbzBVe/rQLdGaUAJb73B
5jyyQJVpVsDwQZjBIwW/QPPIl0AfFqzBP1+hQKjqwz3zhaDBafq/QPpW1r/SlKvByadcQPr/C8D9
NZfBgkfqQFUqGUH+m6rBm6qhQI9iisDpUJHBUCLUQK1WskBCYbPBQOjaQAcE30BKrrDB6RuYQD1C
EcBOQ5vBPDWoQGAZor8inaLBcBzBQB/+VkABPq3BD/2zQJLZhz8QNqfBA1fZQKu6M0Ctw7XBAKnM
QBFGJD/hKrDBUK7RQIN1OL8OYrLBzSo/QNFJTcAKapDBnjq7QIjb90DhbKvBgI7KQFEgNECnLprB
up+DQN3JT0B6A5fBCeKwQP0FIUDMMKTB1L+3QK+TbEC13IfB/IbDQLlXEEFdh6jB1SRyQM/jh8B/
ko3BU1ytQLkQVUAV8JLB9cKEQILeOEC7JKHBfYg9QAcsZEBDYpHB3ajxQH3jNEDtY5nBu/HhQDZf
vT+4CLfBR7foQDqfjr9h/rrB5BvcP07hScBAuIzBZoOTQG7950CDfqnBgNsUQZD4FEGORbHBQBEO
QaNG3kCGlLbBqo32QFyWtUAMXMLB85f8QGYBTkBbMcTBvJHSQP5+W8A8PpvB6RetQLubpUDTjqXB
2eeNQIxKzD4wz5nB0oHEQK13LsDPMa3BzMIzQK+Prb+kRpnB+CXwQJ2LKUH3R6jBlay1QEngpMAG
6o7BV96aQJp+gkDP3IPBKZbDQMLiM0CikIPBMJbQQDc7j0C03IfBVwFXQDXBN0CaDabBJZkEQLsF
YkAaB5XBg1BBQP8EdUA0ronBgl7dQMVJFUHmu7jBEXvdQARJ/kCJSrrBEVLvQMFcokBnTbvBsQDx
QIgrbED/r7zBjaNdQJ8tCMCLU5bBy668QMEQmUBauazB2+2gQK8gAz5ImaDBN4y+QHPi07/BoKvB
uJ+xQE4OVcAUVpjBQ83TQMh+HUHViK7BZoRCQPKkSMAmOI/BL2DVQFdJtEDANbPBisDUQAoU40CJ
i7HB4oyXQDcWD8C2CJvBjy+nQCeSnr9emqLBMQLBQH0vWUAQgq3Bi2WzQOMmiz/ga6fBSvPaQE/k
NUC1rrXBKdbLQH4oKT+AY7DBxmjQQMWCNb94g7LBh06iQBFIicCuHZHBR3HMQHf39UBzWKfBxyfK
QLspNUAsbZrBU2KDQPFiT0AcMpfBAXiwQBzZIkBod6TBSCa3QKNzaEDP64fBJ5TLQPd7EEG4IabB
f4l1QKEBhsBjvIzBtietQH72VkBTMZPBZ3yEQKS1OkDbZaHBl4M8QP8uXUCIX5HBD/TwQBK2LUBF
S5nBM3nhQOLkvz9LRrfBlB3nQJGIj78bH7vBPrC7QFy1qsB+iY7B+t3HQLYN3kBuW57BPovkQCT4
H0HcSL/BkyrkQPcI8UALGMLBJvcAQU0At0BFcMDBZbIBQZtgUUDcMMPB8KM0QOHbpL/MIJjBdjWm
QByRpkA/GKfB//eNQJYM4z6C1JnBkKrCQK1cLcDvOq3B0SXRQG5uW8BfyZvBov/SQJ6dLkFlYa3B
eqkDQPJXRMBdqovBuLuaQG6CgUCc7YPBqaTAQAqcLECL8IPB45HRQOVoi0Dcc4fBepNWQH4dO0As
VKbBPm0DQEKTV0DI65TBlQtAQD6+bEAyoInBPxrgQKmdD0GIUabBMxzgQEa38kDpi6fBVOvtQLRA
okCzxrvBXWDvQK/1a0BCGL3BCF5eQOfrB8DMVpbBjt3AQIhtmUD7AqzBR9mhQBhZBz7xdqDB07S+
QAWO07/3mKvBbSqyQAuFVMDBI5jBDkrVQMyYHEGNJq/BtbpCQIpFSMC6P4/BX4jWQELQs0B4PLPB
lMrVQOKx4UDMo7HB9yKYQIa2DsD67JrBVN6nQIAPnr8Af6LB7N3CQKvKWUAtLa3BM/WzQPyoiz/A
WKfBBm3aQFcaNkBJzbXB5kvLQKAWKj8dfrDBu8nPQC/bNL88nbLBIpiiQDryiMAc7ZDBV/bKQKZI
/UDnK7rBMT3KQLc5NECyI5rBX0qDQLvzTkBeQZfBwWOxQOIHI0DSUaTBRfq1QCsOaECtwIfBy9nK
QA4YFEGnyrjBabB1QNq2hcDIqYzBqcCsQMA+VkDfDJPBKUKFQAWhO0AJfaHBCmg7QOETXEABmJHB
jfXwQL/ULEAX25jBcKvfQLY3wD/RnbfBBXvlQIBRj7/4YbvBSe67QKJBqsDnOY7BRDa/QMLr7ECP
y8PBvUHoQFjBFkEVuJ7BbtfnQDH23UDx6aDBYKv+QIHwtkBwScHBkFgAQYm8UEC9wMPBoGc1QAqk
pL93OJjBYaGuQJBXp0CFjKXBf1OPQIJ85T5dn5nBiQjDQGY0LcD0KK3B2NLRQOHlWsAqg5vBm1LV
QDjGLUHsNa7BJ4YDQOANRMC5yovBS0yZQGlggUCn5IPBDDG/QApULEAhtIPBXl7QQIE2i0CTMYfB
yyVZQBdcPUAek6bBkOYCQJUEV0DtS5XBNLI9QIWaakDMzonBzjm0QOA8EEHfnqrBUUqyQCxt9EDQ
cazBTGHpQCUKoUCFFLzBt1TsQJHCaUA7Pb3BYnBdQLTKEMBYFpfBAa2/QIKvl0CvyavB4nCgQPh5
oT2xqKDBqAO/QKxi178DzKvBtxe0QOMrVcDJbpjBqczZQCdtG0EmXq3B8UxEQOP9UsB7HpDBHbrU
QPhZskDKDrPBWTnWQLr830BU7rDBHTuYQNTWEsDiY5vBjRWnQDYRpL9R1aLB4ajBQLXBVkA3Ca3B
52mzQPZOhj/eRafB/ZHZQG3JM0AQo7XBrBPMQKOmIj+PQLDBOhrRQC/qOb+KgLLBuMulQDIcisDM
UZHBgcb7QHzy90C4ELPBGDLKQM6mMUBeDZrBS1KDQLNyTkDK+JbBl8WwQF8YIEA6IaTBqpu3QA8p
b0A/CIjBAZX8QGhREUF+a7HBCNR6QD91icBKXI3BSlmsQI+gSUDebpLB57qEQOVnOEAQIaHB/2w9
QDlmaEDSmpHBakTxQIGzNUCVSpnBHjPhQNYUvT/xIrfBAoToQKw8j7/NDLvByDbBQDpNqcA3VI7B
20IQQZFU5ECILLbBXlCZQNmSGEGZJ6fBx96VQPxv4kB4darBQ9/2QB/0tUAjE8LBWBj9QPLWTkD+
AMTB09gxQKAlu79VFJnBwOatQPhcpUDaNqXBTuOMQILswT5u85nBzl3DQMTsLsBMe63BMzbUQP2R
V8Cpm5vBB+raQLyKLEE2NqzBiysEQIDmUsBf5YzB3TyaQCxwfEB/eYPB6LrLQIn7QUB0iIPB/EzJ
QNWVlUC6TInBU0BXQOYpOEAHF6bBI4IFQKNba0COepXBYoxAQEQneEBb3InBGvjJQOS1FEETNbjB
RmDLQNA9/UDn/LnBPHHtQJ4Lo0D0t7vB0wfvQIFqbUB+Gr3Bz7CyQFsZVsD7JZjBLanAQK58mUBh
8qvBgH2iQBpU/j0EcqDBNzW/QGn5079NoKvBgFFgQGkYCMDOPpbBKXHTQE+uHEFG663BOdqiQPCU
icDk5pDBR5vWQPZJtEB5DLPBOsDVQIRK4kAWYLHB2vuYQJF9D8BS4ZrBIKWoQBAjn7/1d6LBOMnC
QDbyWUCQLK3BeTG0QH4Ziz8mYKfBZVXaQNDNNkB/07XB7mHLQI2FKj+EjrDBJfLPQCKkNL8WrrLB
ah5EQB5ASMD7KY/B5i3fQB4q9EDRN6fBDznKQFukM0DfKZrBK0WDQMfDTkBbSpfBuGaxQDCkIkA5
WKTBUQu2QFBjZ0BNx4fBE+jdQAmCD0FEs6XB0oN2QGbshcDbmIzB1LysQGhmVUDvEJPBHTSFQKK0
OkDlgKHBmYU7QDo9XUDupZHBbObwQA+wK0Dq2ZjBBnvfQMxjwT8UtrfBUVzlQJzojr/IfrvB27vp
P0OkQsCX54rBQDvrQC632kAI8J7Bs7zBQNOEH0FzoL7Bu6PEQCUo8EAtzsHBcqv9QKvvt0BYR8HB
ISIAQR2zUkByzsPBVDXSQGFMXcCtk5vBWhGuQG8kp0Bsg6XBKyiQQMBp4D7dkJnBJpzDQGdcLcAf
Nq3BP9k3QHUSpL+XFpjBclXSQKC7LUFEjKzBhay2QFSEpMDxuI7Bg1eZQBbqgEDs5oPB93O/QATJ
K0CYuoPBPVPQQFIDi0BjPofBzeVYQEajO0BakqbBGvgCQLGqWECFWZXBdPg9QCpAbECb4InB5R3W
QP7mFUFAoLvBl2PcQG15/0Cs9LvBUUrpQCxdokDywrzB3+HvQKoUbEB0Mb3B7eGRQJhtZcAED57B
X9K/QK36mEBojqzBI86oQMBXrD30o5/Bg+DIQAOK2L/kS6rBI8qVQAi7AMBXYI/B5ay9QFrNHkHo
VrPBLySAQEW+kMAc7pbBj/TQQPENtUA8YbTBdwfKQHfv5EBy87PBf/6cQAJUE8AaRJrBj8SvQKc8
pb+EfaHBvenFQPUFWUDE+6zBf4W6QFtKhz9ug6bBs2feQG6gNUC2ZbXBZdPTQI5BJD8EXa/BT7va
QByXO79AJLHBz/SDQJXXP8AwsYjBy2+xQF0B+kAIyavBe2PCQPRXO0A6N5nBBiJzQHxFUEAQ6ZnB
SQyyQCWmIUBGRqTBTw6fQOi7ckB2V4jBBQesQA51EkG+rqvBHv5yQN4ph8BifozB/+OeQPusWkDC
vpPBdXqDQGkKMkAacqPBblwgQPgVZECMopbB11rnQIuiN0Ce9JXBhw7nQFM8vz/mp7bBq9nyQDDV
kb8cirnBvqh6QJuvLcDpf3zBE++dQLAd5UBgtaPB9/njQAsOIEHRssHB+jHvQFdw8UB3TMLBqub2
QCaWtkDe4sLBHVgBQTQ9UUBmnsPBQPCWQNUIdsCMWabBrXCtQHdLpkB3CqbBDLKVQF57yj7P4pjB
N17OQAF8L8BZxavBveOdQJwehb+LMIzB1+S4QJroL0GfFrPBEUVvQEcjsMCc2ZnB0ht+QP64hED8
BYbBVKmnQCaxOkAweIPBL5a2QOcBk0BWBYfBU81cQNmYJ0BqUqnBiGneP3GXW0CZpZvBrwcWQPbR
ekDgRI/B

> <OMEGA_E>
CHQlP+CCJT+wHSY/1CUmPyyLJj84Jyc/1F1SPw==

> <OMEGA_NBR>
     21283

$$$$
284484
  -OEChem-04172616093D

 56 61  0     1  0  0  0  0  0999 V2000
    6.9193    8.9936  -20.8732 C   0  0  0  0  0  0  0  0  0  0  0  0
    6.9290    7.6009  -21.0139 C   0  0  0  0  0  0  0  0  0  0  0  0
    7.3788    5.0626  -23.5082 C   0  0  0  0  0  0  0  0  0  0  0  0
    6.0028   -1.6615  -21.4022 C   0  0  0  0  0  0  0  0  0  0  0  0
    7.4548    3.6766  -23.6488 C   0  0  0  0  0  0  0  0  0  0  0  0
    6.5246   -0.7165  -22.2884 C   0  0  0  0  0  0  0  0  0  0  0  0
    5.9769    4.7900  -21.5333 C   0  0  0  0  0  0  0  0  0  0  0  0
    5.0816    0.1280  -20.0282 C   0  0  0  0  0  0  0  0  0  0  0  0
    6.5645    9.7921  -21.9811 C   0  0  0  0  0  0  0  0  0  0  0  0
    6.6365    5.6151  -22.4505 C   0  0  0  0  0  0  0  0  0  0  0  0
    6.5978    7.0533  -22.2666 C   0  0  0  0  0  0  0  0  0  0  0  0
    5.2886   -1.2396  -20.2661 C   0  0  0  0  0  0  0  0  0  0  0  0
    6.0640    3.3962  -21.6585 C   0  0  0  0  0  0  0  0  0  0  0  0
    5.6277    1.0855  -20.9034 C   0  0  0  0  0  0  0  0  0  0  0  0
    6.8130    2.8350  -22.7271 C   0  0  0  0  0  0  0  0  0  0  0  0
    6.3648    0.6548  -22.0401 C   0  0  0  0  0  0  0  0  0  0  0  0
    6.2426    7.9038  -23.3379 C   0  0  0  0  0  0  0  0  0  0  0  0
    5.6646   -3.2252  -18.8859 C   0  0  0  0  0  0  0  0  0  0  0  0
    4.8057   -2.2294  -19.3090 C   0  0  0  0  0  0  0  0  0  0  0  0
    6.3303    2.8256  -19.2774 C   0  0  0  0  0  0  0  0  0  0  0  0
    4.1116    3.2407  -18.8896 C   0  0  0  0  0  0  0  0  0  0  0  0
    5.1930   -4.3301  -17.9672 C   0  0  0  0  0  0  0  0  0  0  0  0
    3.3562   -2.1783  -18.8416 C   0  0  0  0  0  0  0  0  0  0  0  0
    3.1084   -3.1502  -17.6770 C   0  0  0  0  0  0  0  0  0  0  0  0
    5.5380    2.5448  -20.5365 C   0  0  1  0  0  0  0  0  0  0  0  0
    5.7188    3.6138  -16.9621 C   0  0  0  0  0  0  0  0  0  0  0  0
    6.2307    9.2467  -23.1779 N   0  0  0  0  0  0  0  0  0  0  0  0
    5.4114    3.3178  -18.3667 N   0  0  0  0  0  0  0  0  0  0  0  0
    4.1602    2.9210  -20.1653 N   0  3  0  0  0  0  0  0  0  0  0  0
    2.9465    3.5001  -18.1834 N   0  0  0  0  0  0  0  0  0  0  0  0
    7.5453    2.7363  -19.1397 O   0  0  0  0  0  0  0  0  0  0  0  0
    7.0001    1.4881  -22.9344 O   0  0  0  0  0  0  0  0  0  0  0  0
    3.7507   -4.4110  -17.9470 O   0  0  0  0  0  0  0  0  0  0  0  0
    5.8670    7.3793  -24.5324 F   0  0  0  0  0  0  0  0  0  0  0  0
    7.1798    9.4505  -19.9299 H   0  0  0  0  0  0  0  0  0  0  0  0
    7.1845    6.9626  -20.1810 H   0  0  0  0  0  0  0  0  0  0  0  0
    7.8880    5.7078  -24.2089 H   0  0  0  0  0  0  0  0  0  0  0  0
    6.1474   -2.7153  -21.5890 H   0  0  0  0  0  0  0  0  0  0  0  0
    8.0100    3.2494  -24.4707 H   0  0  0  0  0  0  0  0  0  0  0  0
    7.0546   -1.0438  -23.1707 H   0  0  0  0  0  0  0  0  0  0  0  0
    5.4015    5.2259  -20.7300 H   0  0  0  0  0  0  0  0  0  0  0  0
    4.5032    0.4458  -19.1733 H   0  0  0  0  0  0  0  0  0  0  0  0
    6.5584   10.8667  -21.8736 H   0  0  0  0  0  0  0  0  0  0  0  0
    6.6923   -3.2145  -19.2175 H   0  0  0  0  0  0  0  0  0  0  0  0
    5.6014   -5.2888  -18.3195 H   0  0  0  0  0  0  0  0  0  0  0  0
    5.5557   -4.1293  -16.9483 H   0  0  0  0  0  0  0  0  0  0  0  0
    3.1228   -1.1557  -18.5103 H   0  0  0  0  0  0  0  0  0  0  0  0
    2.6996   -2.4506  -19.6811 H   0  0  0  0  0  0  0  0  0  0  0  0
    3.5193   -2.7222  -16.7508 H   0  0  0  0  0  0  0  0  0  0  0  0
    2.0264   -3.3097  -17.5588 H   0  0  0  0  0  0  0  0  0  0  0  0
    4.8157    3.9916  -16.4603 H   0  0  0  0  0  0  0  0  0  0  0  0
    6.0603    2.6964  -16.4604 H   0  0  0  0  0  0  0  0  0  0  0  0
    6.5111    4.3753  -16.9130 H   0  0  0  0  0  0  0  0  0  0  0  0
    3.3795    2.9315  -20.7901 H   0  0  0  0  0  0  0  0  0  0  0  0
    2.0606    3.4501  -18.6445 H   0  0  0  0  0  0  0  0  0  0  0  0
    2.9924    3.7373  -17.2130 H   0  0  0  0  0  0  0  0  0  0  0  0
  1  2  2  0  0  0  0
  1  9  1  0  0  0  0
  2 11  1  0  0  0  0
  3  5  2  0  0  0  0
  3 10  1  0  0  0  0
  4  6  1  0  0  0  0
  4 12  2  0  0  0  0
  5 15  1  0  0  0  0
  6 16  2  0  0  0  0
  7 10  2  0  0  0  0
  7 13  1  0  0  0  0
  8 12  1  0  0  0  0
  8 14  2  0  0  0  0
  9 27  2  0  0  0  0
 10 11  1  0  0  0  0
 11 17  2  0  0  0  0
 12 19  1  0  0  0  0
 13 15  2  0  0  0  0
 13 25  1  0  0  0  0
 14 16  1  0  0  0  0
 14 25  1  0  0  0  0
 15 32  1  0  0  0  0
 16 32  1  0  0  0  0
 17 27  1  0  0  0  0
 17 34  1  0  0  0  0
 18 19  2  0  0  0  0
 18 22  1  0  0  0  0
 19 23  1  0  0  0  0
 20 25  1  0  0  0  0
 20 28  1  0  0  0  0
 20 31  2  0  0  0  0
 21 28  1  0  0  0  0
 21 29  2  0  0  0  0
 21 30  1  0  0  0  0
 22 33  1  0  0  0  0
 23 24  1  0  0  0  0
 24 33  1  0  0  0  0
 25 29  1  0  0  0  0
 26 28  1  0  0  0  0
  1 35  1  0  0  0  0
  2 36  1  0  0  0  0
  3 37  1  0  0  0  0
  4 38  1  0  0  0  0
  5 39  1  0  0  0  0
  6 40  1  0  0  0  0
  7 41  1  0  0  0  0
  8 42  1  0  0  0  0
  9 43  1  0  0  0  0
 18 44  1  0  0  0  0
 22 45  1  0  0  0  0
 22 46  1  0  0  0  0
 23 47  1  0  0  0  0
 23 48  1  0  0  0  0
 24 49  1  0  0  0  0
 24 50  1  0  0  0  0
 26 51  1  0  0  0  0
 26 52  1  0  0  0  0
 26 53  1  0  0  0  0
 29 54  1  0  0  0  0
 30 55  1  0  0  0  0
 30 56  1  0  0  0  0
M  CHG  1  29   1
M  END
> <OMEGA_C>
+GrdQNHlD0FW/KbBPrrdQPg680BjHKjBRh/sQO4AokDcELzBrBbAQOir1L+sN6vBq43uQLpNa0C8
ML3BicnQQB1vN7+yTrLB1UK/QJlHmUAmRKzBnZyiQLMbAz7GOaDBWRDSQImsHEFU2a/BHl7UQAyv
s0C1mrPByiDTQD604UDxIbLBYjypQKKpnr/6IKLBVQzCQKxbWUCkRK3B+xW0QBfwij8tOqfBXgTa
QAdxNUAE0bXBh6zLQMOhJz8SUrDBbMPHQOHr/EAEtLrBAUS1QOVpTsBTFpfBE8iZQNiuDsDkeJrB
uJHKQA7WNEArOJrB4JGDQCRnT0DrHZfB5iymQIyQisDdvI/BV8xWQEhpC8Cou5bBc+9GQHGcScCV
ao3BXzexQCHeIkC8SqTBZAC3QAxJZ0BysofBQWLHQE/yE0FBbLnB9CmtQH9WVEAS75LB/x+FQCvy
OkB5UqHB7ZM8QPwBYECLd5HBUnPxQAUfL0AJHpnBwADgQCh5vj+OebfBqwpwQLomjcBtk4/Bb767
QIcj7EBRQsTBoMDlQFY1F0F8cJ/BTuflQEbN3kDJcqHBlWr8QDemtkC7q8HBzbfEQA3ILcA9tqzB
GSkAQZD1T0AJxMPBWL/hQDmahb+aXbnBb9msQMY6p0D21qXB0hmQQOBA5D4BY5nBcN7RQDDeLUE5
/a7BryfWQPm5TcBXvZnB8j6zQBM+qcBQjpLBKsixQBYjhMA2lofB1ttHQFPtk78pFZTBKsYsQFnX
HMDYcp3BJDxhQE84LsCYAYbBIbEBQPnRU8BleIzBjxqaQPN1f0DDroPBAu7BQAGSLEDzroPBAFvQ
QG0CjEC9TYfB00lYQAeeO0A6UqbBQOEDQK7NXED9J5XBQYM/QGAvb0AvtInBnm+tQIU0EUExtq3B
lLGtQBHS9UD6u67BDNrpQNW1oUAUSLzBi7u/QC3J1b+XcKvBq0LsQGTeakBwcL3BGXHQQEN9OL9M
erLBjSPAQJ/nmEBf9qvBy+iiQLYv5D0TQqDBiGPTQKG2HEEFv6/BEZ7UQANws0BSZrPB1/fTQFiZ
4UCu2LHBn0CpQDZooL+ZR6LBxXvCQGeuWEDDFK3B1120QCZOiT/CM6fBy2HZQHL9NEAS07XBm5nL
QD3pJT85XrDBoV35QC1m+kASfrPBwYm1QEj/T8BCcpfBKxOaQHueD8CzoZrBuJDKQIv7MkDGBJrB
cHODQGOLTUAkCJfBsa6mQElvi8AJHJDBhB5YQClnC8DpoZbBag5JQClNSsB4YI3BaI+xQKvLIUCO
KqTBKdO2QEZCakDYw4fBnk/4QGm7EkGzfrLBmUCsQHbTR0A4X5LBbmuFQCerOUBDQKHB/qc8QIi8
ZECdsJHBMZTxQPQgMkDh+pjBlJ/fQM8Nvj+zhLfBUg5xQDyUjcCAwI/BSbQPQaxG50Bnq7XBSo6Q
QBx9GUErZavBJyuRQIVW40DCK63BskL4QMdktkA2McLBhQ7EQJpJLsBQBq3B2bz8QBOqT0DsOsTB
8C/hQMZdhb/albnBaJKuQBHCpkCCYKXBaJ2QQOgC2T4CXpnBWgnTQJbxLUHpGK/BLjrWQICuT8AN
QJrBPEOzQM8iqsBwDJPB0OyyQJljhcCg/4fBKZhKQLMOlL/E1pPBkassQHuMG8CBQZ3BR7hkQMze
L8Bp/YXBBN8DQAHzU8CYSIzBuS2ZQMtldUDGOoPBFATLQPglPECtb4PBdzbIQJeDk0DProjB7jZZ
QL2dOkAxTabBnAUFQGA0Z0DgoZXBBcA+QB7+ckAy5YnBZMfbQKboFEFVfrnBlwrdQJBl/UARvbrB
EnTvQJe+oUAeQrvBJoW/QM831b++RKvBjh7xQKzpakCUnbzBgILQQNUoOb++U7LBwTO8QL25mECm
z6zBkHyiQNQNAj5vOqDBXznQQHiNHUETha/B+fXUQGrms0DlTbPBGYHTQDbj4kAx57HBrOioQIqq
nr+yJ6LB+ZXAQKxyWECii63B7eWzQONUij+3PqfBNp7aQGnPNEDcr7XBArTLQFzIJT9rTLDBLDTJ
QK649kCD7afBN7m0QHCQTsD7L5fBf2mZQJ5WDsAKgJrB+3bKQGJhNkATd5rBA5eDQHuWT0BMGZfB
02elQH/IisAP7Y/B5FJWQC8qCsAyr5bBeIJGQMx5SMByZI3BRICwQHiYIkDFaaTBYuq3QHUuakCP
8IfBfjnHQMfoEEFVB6fBrnKtQImLVkCLIZPBAnOEQNGnOUBwRKHBpGM9QFfdX0BXSJHB+3fxQIVS
MkDqhZnBe7zgQK5VvT/EU7fBqnBuQDvDjMB0ro/BrqnDQGDH30AB0p7Bl5XjQLROH0HAHMDBnDnl
QOV670C8YMLBfkMBQWpDtkBSUcDBurrDQMAbLsBbzazB3O4BQWL2T0B6C8PBFXHhQAGchr/gYrnB
9aGlQLRJpkAIN6fBFy6QQPuH5D4UXJnBNH3OQC23LkFCna7BKZ/VQPcKTsBk1ZnBGfqxQER8qcDo
3ZLBeVmxQELthMBSx4fBJDVIQLlOkb8B/ZPBXborQF30GsB7Xp3Bw9RhQDDELcBNAIbBojwBQKff
UcBnWozBRkWbQIVngUAG24PBVfbCQGypL0Dc5oPBYF3RQApjjUAnrofB5BpWQNnAOEAPIqbBSB0E
QKw7W0AezpTBTXJBQCM8cEC7kInB

> <OMEGA_E>
soEiP7zaIj/YAiM/

> <OMEGA_NBR>
     24358

$$$$
50215516
  -OEChem-04172616093D

 42 45  0     1  0  0  0  0  0999 V2000
    6.7173   -0.7351  -22.2459 C   0  0  0  0  0  0  0  0  0  0  0  0
    5.1691   -4.3369  -18.0510 C   0  0  0  0  0  0  0  0  0  0  0  0
    6.1967   -1.6919  -21.3626 C   0  0  0  0  0  0  0  0  0  0  0  0
    5.6980   -3.3794  -18.9285 C   0  0  0  0  0  0  0  0  0  0  0  0
    6.4671    0.6294  -22.0345 C   0  0  0  0  0  0  0  0  0  0  0  0
    5.1387    0.0793  -20.0630 C   0  0  0  0  0  0  0  0  0  0  0  0
    3.8348   -4.2079  -17.6146 C   0  0  0  0  0  0  0  0  0  0  0  0
    3.5583   -2.2256  -18.8418 C   0  0  0  0  0  0  0  0  0  0  0  0
    5.4038   -1.2905  -20.2677 C   0  0  0  0  0  0  0  0  0  0  0  0
    4.8829   -2.3032  -19.3323 C   0  0  0  0  0  0  0  0  0  0  0  0
    5.6719    1.0560  -20.9418 C   0  0  0  0  0  0  0  0  0  0  0  0
    6.3327    2.8489  -19.3710 C   0  0  0  0  0  0  0  0  0  0  0  0
    4.1102    3.0788  -18.8743 C   0  0  0  0  0  0  0  0  0  0  0  0
    6.3593    4.8883  -21.6395 C   0  0  0  0  0  0  0  0  0  0  0  0
    7.2099    3.8021  -22.3150 C   0  0  0  0  0  0  0  0  0  0  0  0
    5.7813    3.4780  -21.8390 C   0  0  0  0  0  0  0  0  0  0  0  0
    5.5039    2.5450  -20.6127 C   0  0  1  0  0  0  0  0  0  0  0  0
    5.7472    3.3406  -16.9607 C   0  0  0  0  0  0  0  0  0  0  0  0
    3.0565   -3.1708  -18.0105 N   0  0  0  0  0  0  0  0  0  0  0  0
    5.4077    3.0116  -18.3515 N   0  0  0  0  0  0  0  0  0  0  0  0
    4.1294    2.8224  -20.1630 N   0  3  0  0  0  0  0  0  0  0  0  0
    2.9622    3.3323  -18.1402 N   0  0  0  0  0  0  0  0  0  0  0  0
    7.5511    2.7858  -19.2512 O   0  0  0  0  0  0  0  0  0  0  0  0
    7.3120   -1.0491  -23.0909 H   0  0  0  0  0  0  0  0  0  0  0  0
    5.7768   -5.1634  -17.7136 H   0  0  0  0  0  0  0  0  0  0  0  0
    6.4038   -2.7399  -21.5215 H   0  0  0  0  0  0  0  0  0  0  0  0
    6.7126   -3.4654  -19.2886 H   0  0  0  0  0  0  0  0  0  0  0  0
    6.8844    1.3610  -22.7105 H   0  0  0  0  0  0  0  0  0  0  0  0
    4.5242    0.3871  -19.2299 H   0  0  0  0  0  0  0  0  0  0  0  0
    3.4232   -4.9525  -16.9494 H   0  0  0  0  0  0  0  0  0  0  0  0
    2.9336   -1.3952  -19.1361 H   0  0  0  0  0  0  0  0  0  0  0  0
    6.6169    5.2388  -20.6292 H   0  0  0  0  0  0  0  0  0  0  0  0
    5.9713    5.7300  -22.2319 H   0  0  0  0  0  0  0  0  0  0  0  0
    7.4302    3.8656  -23.3909 H   0  0  0  0  0  0  0  0  0  0  0  0
    8.0757    3.3744  -21.7882 H   0  0  0  0  0  0  0  0  0  0  0  0
    5.0372    3.3965  -22.6450 H   0  0  0  0  0  0  0  0  0  0  0  0
    4.8255    3.4103  -16.3644 H   0  0  0  0  0  0  0  0  0  0  0  0
    6.3939    2.5537  -16.5453 H   0  0  0  0  0  0  0  0  0  0  0  0
    6.2769    4.3042  -16.9308 H   0  0  0  0  0  0  0  0  0  0  0  0
    3.3236    2.8166  -20.7552 H   0  0  0  0  0  0  0  0  0  0  0  0
    2.0694    3.3276  -18.5906 H   0  0  0  0  0  0  0  0  0  0  0  0
    3.0268    3.5198  -17.1600 H   0  0  0  0  0  0  0  0  0  0  0  0
  1  3  1  0  0  0  0
  1  5  2  0  0  0  0
  2  4  2  0  0  0  0
  2  7  1  0  0  0  0
  3  9  2  0  0  0  0
  4 10  1  0  0  0  0
  5 11  1  0  0  0  0
  6  9  1  0  0  0  0
  6 11  2  0  0  0  0
  7 19  2  0  0  0  0
  8 10  2  0  0  0  0
  8 19  1  0  0  0  0
  9 10  1  0  0  0  0
 11 17  1  0  0  0  0
 12 17  1  0  0  0  0
 12 20  1  0  0  0  0
 12 23  2  0  0  0  0
 13 20  1  0  0  0  0
 13 21  2  0  0  0  0
 13 22  1  0  0  0  0
 14 15  1  0  0  0  0
 14 16  1  0  0  0  0
 15 16  1  0  0  0  0
 16 17  1  0  0  0  0
 17 21  1  0  0  0  0
 18 20  1  0  0  0  0
  1 24  1  0  0  0  0
  2 25  1  0  0  0  0
  3 26  1  0  0  0  0
  4 27  1  0  0  0  0
  5 28  1  0  0  0  0
  6 29  1  0  0  0  0
  7 30  1  0  0  0  0
  8 31  1  0  0  0  0
 14 32  1  0  0  0  0
 14 33  1  0  0  0  0
 15 34  1  0  0  0  0
 15 35  1  0  0  0  0
 16 36  1  0  0  0  0
 18 37  1  0  0  0  0
 18 38  1  0  0  0  0
 18 39  1  0  0  0  0
 21 40  1  0  0  0  0
 22 41  1  0  0  0  0
 22 42  1  0  0  0  0
M  CHG  1  21   1
M  END
> <OMEGA_C>
3vPWQE8uPL+w97HB7GilQKHHisCHaJDBk0vGQJqR2L+q5qrB9lW2QI9IWMCQbZfB1/LOQDYiIT+V
RrDB3G+kQPx0oj0bgaDBHG51QPemhsCs6ozBFLtjQPpvDsDtu5bBLeysQJ0upb9CJKLBWkCcQH1n
E8CFqJrBlYC1QGcshz/biKfBmqXKQDhUNkDb95rBY4aDQHELRUCY/pbBoH/LQK1snEDDHa3B0rfm
QGtVc0A4hbLBywC5QDSXXkA/tq7B3x+wQFfhIkC85qTBGum3QGnMVUCCr4fBup1DQBPvSsCFFZDB
8wutQBy+QEDpz5LB+yOEQPGiNEDOTaHBCJU9QO1DVUAWH5HBZ6LxQLxKMkCMAprBUPzpQHxJhr89
urjBNtu4QNY6pcBftY3BBezMQAxbL8ABLKzBQM3WQNLIXcAPT5rBLk3cQKA2rj8Zr7XBGsaQQNox
xj7d1pnBEhVbQJp6nsBQmIfB9b87QACWsr+nFpnBb73TQFSkp0CVCKXBRRW/QHVct0Dr2rHB28Pt
QHxmd0CSILvBAjYBQTn2V0A8Tq7BnjChQIFfWUDcKLXBdGqaQONCWkBD6oLBnprMQI1vI0C3XITB
P9zIQBm8iUBHcofBnrZUQMJCNECyCqbBlnEEQLb3VECduZTBe7ZBQDVEYUDDR4nB8XDVQIwOPL9V
FLLBpABLQHDcVMAyio/B0GLEQIvl2b8DL6vBEkpkQMy2E8CfnZbB2bzNQCNiID/8MbDB2M+iQFbM
WD10iKDBHPCCQJzWisDWw4zBiqa3QJFGWcAvvJfB0i2rQGdqqL/LWqLBxO+bQAoMFsB+05rBFCO0
QBgRhT/lcKfBt6vJQFqaM0Acr5rBpyKDQLMXTUB7CZfBo8zKQC4OnEAHpqzBoE/mQKnRckBHAbLB
rV+4QHj4XUAQXq7BrRWvQLN8IUDOpaTBsFC3QPqPXEBirofBixyrQI13i8AW0pDBaSCsQLDYQ0DW
qpLBICSDQB93M0CQC6HBir8+QAstakB4kpHBTWnwQGLcKkCDl5nBrY3oQAzShL+B27jBURQLQPxU
VcDnQIzBB5TKQEDyL8B4o6zBR584QF0Awr/fxpjBi3LbQKoArz98d7XBXh2PQJhXsz4U2JnBf2Ry
QGy0o8D8R4fBKKjXQNNkW8Dc+5rBmpjSQDAYp0DkhaTBYKi+QHUZt0C/ZLHBx9XtQBFAd0BwlbrB
AeMAQYc9V0CVtq3BVeqgQMgHWUA45rTB6eSZQKqCZUA0+4LBYuHKQEDwKUDEAoTBW5DJQExgjECG
0ofB0fJRQOUQLUCFlKXBEgYGQJmxbEBqQ5XBFuJDQNqifEBp8InB

> <OMEGA_E>
yHcYPzIfMz8=

> <OMEGA_NBR>
     26123

$$$$
50168821
  -OEChem-04172616093D

 52 55  0     1  0  0  0  0  0999 V2000
    6.2602   -0.7120  -22.5451 C   0  0  0  0  0  0  0  0  0  0  0  0
    3.2294   -3.7396  -18.4356 C   0  0  0  0  0  0  0  0  0  0  0  0
    5.8442   -1.6966  -21.6318 C   0  0  0  0  0  0  0  0  0  0  0  0
    3.6053   -2.7689  -19.3774 C   0  0  0  0  0  0  0  0  0  0  0  0
    6.2016    0.6491  -22.1904 C   0  0  0  0  0  0  0  0  0  0  0  0
    5.1860    3.8895  -22.5851 C   0  0  0  0  0  0  0  0  0  0  0  0
    7.4654    3.8118  -21.7187 C   0  0  0  0  0  0  0  0  0  0  0  0
    5.6174    4.7062  -23.6399 C   0  0  0  0  0  0  0  0  0  0  0  0
    7.8934    4.6412  -22.7683 C   0  0  0  0  0  0  0  0  0  0  0  0
    5.3068    0.0411  -20.0026 C   0  0  0  0  0  0  0  0  0  0  0  0
    4.1994   -4.2460  -17.5445 C   0  0  0  0  0  0  0  0  0  0  0  0
    5.3672   -1.3170  -20.3616 C   0  0  0  0  0  0  0  0  0  0  0  0
    4.9429   -2.3355  -19.3989 C   0  0  0  0  0  0  0  0  0  0  0  0
    6.0966    3.4641  -21.5895 C   0  0  0  0  0  0  0  0  0  0  0  0
    5.7242    1.0406  -20.9084 C   0  0  0  0  0  0  0  0  0  0  0  0
    6.9714    5.1181  -23.7187 C   0  0  0  0  0  0  0  0  0  0  0  0
    5.8662   -2.8772  -18.4743 C   0  0  0  0  0  0  0  0  0  0  0  0
    6.3517    2.7655  -19.1618 C   0  0  0  0  0  0  0  0  0  0  0  0
    4.1334    3.2879  -18.8985 C   0  0  0  0  0  0  0  0  0  0  0  0
    5.6213    2.5134  -20.4822 C   0  0  1  0  0  0  0  0  0  0  0  0
    5.6538    3.6166  -16.8894 C   0  0  0  0  0  0  0  0  0  0  0  0
    6.5006    6.9783  -25.1906 C   0  0  0  0  0  0  0  0  0  0  0  0
    6.0263    7.9153  -24.0534 C   0  0  0  0  0  0  0  0  0  0  0  0
    5.4851   -3.8150  -17.5732 N   0  0  0  0  0  0  0  0  0  0  0  0
    5.4101    3.3333  -18.3139 N   0  0  0  0  0  0  0  0  0  0  0  0
    4.2176    2.8198  -20.1252 N   0  3  0  0  0  0  0  0  0  0  0  0
    2.9439    3.6754  -18.2914 N   0  0  0  0  0  0  0  0  0  0  0  0
    7.5122    2.4868  -18.8786 O   0  0  0  0  0  0  0  0  0  0  0  0
    7.4351    5.9758  -24.7033 O   0  0  0  0  0  0  0  0  0  0  0  0
    7.1543   -2.4565  -18.4803 F   0  0  0  0  0  0  0  0  0  0  0  0
    5.1406    8.8161  -24.5474 F   0  0  0  0  0  0  0  0  0  0  0  0
    6.6252   -1.0001  -23.5199 H   0  0  0  0  0  0  0  0  0  0  0  0
    2.2103   -4.0946  -18.3936 H   0  0  0  0  0  0  0  0  0  0  0  0
    5.8902   -2.7410  -21.9031 H   0  0  0  0  0  0  0  0  0  0  0  0
    2.8828   -2.3637  -20.0705 H   0  0  0  0  0  0  0  0  0  0  0  0
    6.5211    1.4014  -22.8963 H   0  0  0  0  0  0  0  0  0  0  0  0
    4.1517    3.5831  -22.5324 H   0  0  0  0  0  0  0  0  0  0  0  0
    8.1838    3.4362  -21.0051 H   0  0  0  0  0  0  0  0  0  0  0  0
    4.9146    5.0231  -24.3962 H   0  0  0  0  0  0  0  0  0  0  0  0
    8.9353    4.9144  -22.8464 H   0  0  0  0  0  0  0  0  0  0  0  0
    4.9384    0.3218  -19.0270 H   0  0  0  0  0  0  0  0  0  0  0  0
    3.9110   -4.9951  -16.8219 H   0  0  0  0  0  0  0  0  0  0  0  0
    4.7528    4.0641  -16.4446 H   0  0  0  0  0  0  0  0  0  0  0  0
    5.8948    2.6799  -16.3655 H   0  0  0  0  0  0  0  0  0  0  0  0
    6.4964    4.3174  -16.7940 H   0  0  0  0  0  0  0  0  0  0  0  0
    5.6259    6.4707  -25.6231 H   0  0  0  0  0  0  0  0  0  0  0  0
    6.9958    7.5807  -25.9664 H   0  0  0  0  0  0  0  0  0  0  0  0
    5.5421    7.3194  -23.2658 H   0  0  0  0  0  0  0  0  0  0  0  0
    6.8922    8.4465  -23.6314 H   0  0  0  0  0  0  0  0  0  0  0  0
    3.4366    2.6883  -20.7357 H   0  0  0  0  0  0  0  0  0  0  0  0
    2.0812    3.6062  -18.7922 H   0  0  0  0  0  0  0  0  0  0  0  0
    2.9513    4.0235  -17.3539 H   0  0  0  0  0  0  0  0  0  0  0  0
  1  3  1  0  0  0  0
  1  5  2  0  0  0  0
  2  4  2  0  0  0  0
  2 11  1  0  0  0  0
  3 12  2  0  0  0  0
  4 13  1  0  0  0  0
  5 15  1  0  0  0  0
  6  8  2  0  0  0  0
  6 14  1  0  0  0  0
  7  9  1  0  0  0  0
  7 14  2  0  0  0  0
  8 16  1  0  0  0  0
  9 16  2  0  0  0  0
 10 12  1  0  0  0  0
 10 15  2  0  0  0  0
 11 24  2  0  0  0  0
 12 13  1  0  0  0  0
 13 17  2  0  0  0  0
 14 20  1  0  0  0  0
 15 20  1  0  0  0  0
 16 29  1  0  0  0  0
 17 24  1  0  0  0  0
 17 30  1  0  0  0  0
 18 20  1  0  0  0  0
 18 25  1  0  0  0  0
 18 28  2  0  0  0  0
 19 25  1  0  0  0  0
 19 26  2  0  0  0  0
 19 27  1  0  0  0  0
 20 26  1  0  0  0  0
 21 25  1  0  0  0  0
 22 23  1  0  0  0  0
 22 29  1  0  0  0  0
 23 31  1  0  0  0  0
  1 32  1  0  0  0  0
  2 33  1  0  0  0  0
  3 34  1  0  0  0  0
  4 35  1  0  0  0  0
  5 36  1  0  0  0  0
  6 37  1  0  0  0  0
  7 38  1  0  0  0  0
  8 39  1  0  0  0  0
  9 40  1  0  0  0  0
 10 41  1  0  0  0  0
 11 42  1  0  0  0  0
 21 43  1  0  0  0  0
 21 44  1  0  0  0  0
 21 45  1  0  0  0  0
 22 46  1  0  0  0  0
 22 47  1  0  0  0  0
 23 48  1  0  0  0  0
 23 49  1  0  0  0  0
 26 50  1  0  0  0  0
 27 51  1  0  0  0  0
 27 52  1  0  0  0  0
M  CHG  1  26   1
M  END
> <OMEGA_C>
pFPIQJtENr9iXLTBAa9OQAFWb8AtfJPBmQO7QG8q2b/cDa3BwrxmQFA1McAEBZvBOHPGQGUrJj/4
hbHBV/OlQLjteEBdrrTB5uTuQH30c0Dsv63BvcGzQEOZlkCJHr3Bf5b8QHeElEBiJbbB/tCpQHM3
KD1eBaDBvWGGQHbfh8AWW4zB/b+rQBqUqL+c5KLBRSyeQOd4FcALMZvBPxfDQPGzXUBGt6zBeSy3
QAgyhT9SRKfBVhXfQBrHo0DMv73BBri7QPMjOMBky5PBxEDLQDf+MEBdS5nB50SEQItsUkAwMJfB
tuGzQEncIECh26PBVOy0QOR2Z0CMHYfBLwXQQFBO30BAhsnBs9fAQClK/UBzbcDBHoavQGEpdMD+
lYzBRh+tQHtVVUD3gpLB4PaGQFB3NEBPAKHBGWk8QI06a0C2VJLBOWTwQPYnH0BWB5fB8OvtQHA5
v0BhoMXBb/DkQOQ2HcCZ15PBdH+kQKIODUEbYcTBYQHUQNAEgL+0KLzBonUNQAAHg8AFJpPBHny8
QPRrL8B+Oa/BE4A4QHRGF8BQkKDBK63QQPhhsz+gK7fBedqEQAlSZUBBQrTBzvACQWfqW0BhCqjB
EESdQEK9oEBxK8PBCfcOQbVCnUB4xbbBQQeeQH+9pD43N5jBLk16QLfXn8BFk4bB1xaYQPsMgkCI
joPBi6K8QEuEK0By7ILBYeLPQOInikApWobBFwe0QAwQz0Ar/MzBkt3fQEmV8kAmu8/B1VixQMw4
6kBDILrBi4zcQPQkB0EHDb3B4vFbQK4MLECt4qXBoTEFQD7LZkBvVpbB9OE8QB/AgEDJ1IrB9j7G
QNIXQL8ntLPB2eWsQLejb8A1MIvB/lC5QHN02r9aHqzBkg67QOKFM8CRvpLBjt3EQDjNHj+7KLHB
5iilQHQGd0Bt37TBzoTuQCICckCMOK7BP6yyQK2blEADib3Bv+z7QFyCkkD517bBynKpQNJToT2a
ZZ/BV2uBQCMEhMBhIYvBcfGqQOQCpb+Z+KHBHTydQC68EcB2CJrBSK7CQETgXEBQ8KzBZ3a2QERr
hj8J7KbBKhXeQPlCoUBRbb7BsQ5kQHh0LMD9hpnBzODLQKgwNEBqaZnBezCFQJhWV0DRIpfBesKz
QCA6IkCP0qPBHvy2QMXnbkDuVYfBUdzOQC2120CwhcrBlKvAQD/R+kBSkMHBQOlJQPOfZsCCLZLB
eFquQBeFWkBuopLBNh6HQHo+N0DF2qDBCxs/QInZcUAfNpLBPxHxQHQXIkA/O5fBRK3sQEi1u0AJ
i8bBHfYpQMibC8Aic6DBmVSkQGvAC0F5lMXBsT/RQEipiL+pfbvBKQLDQF1yhcAJfYXBPWa6QBeJ
MMCtEK7BZyXcQBSlH8Cp9JLBxs7OQL3lrD+QBLfBn/+DQMszZEC2QLTBquACQT+2WkDVhqjB7eOb
QLtYnkAEj8PBHacOQSTYmkDFqLfBv0OeQBQPxz5om5fB1xVtQMA3m8A4VYXB+4SaQCVqhkDPwYPB
TrO+QMK4M0Bb+oLBpjHSQGaxjUDA1IbBXXKyQKVty0Dwv83BG3neQKci7kCH7NDBL3SxQPqZ6EC2
ELvBPsvcQHjwBUFgbr7BVI5bQJI8LkDHm6XBmVYHQPEMbUAjF5bBeb5AQFDbhECKyorB

> <OMEGA_E>
XodNP1DmNT8=

> <OMEGA_NBR>
     28166

$$$$
50097315
  -OEChem-04172616093D

 45 49  0     1  0  0  0  0  0999 V2000
    6.0971   -1.3474  -21.6943 C   0  0  0  0  0  0  0  0  0  0  0  0
    6.4369   -0.2892  -22.5525 C   0  0  0  0  0  0  0  0  0  0  0  0
    5.4640    0.2546  -19.9712 C   0  0  0  0  0  0  0  0  0  0  0  0
    4.0028   -2.0351  -18.7332 C   0  0  0  0  0  0  0  0  0  0  0  0
    5.9030   -3.3668  -19.4647 C   0  0  0  0  0  0  0  0  0  0  0  0
    4.4129   -4.2760  -17.8992 C   0  0  0  0  0  0  0  0  0  0  0  0
    5.5793   -1.0749  -20.4109 C   0  0  0  0  0  0  0  0  0  0  0  0
    5.1587   -2.1676  -19.5268 C   0  0  0  0  0  0  0  0  0  0  0  0
    5.8681    1.3186  -20.7990 C   0  0  0  0  0  0  0  0  0  0  0  0
    6.2919    1.0443  -22.1275 C   0  0  0  0  0  0  0  0  0  0  0  0
    3.6211   -3.1091  -17.9195 C   0  0  0  0  0  0  0  0  0  0  0  0
    4.1737    3.3686  -18.7600 C   0  0  0  0  0  0  0  0  0  0  0  0
    6.0956    5.2124  -20.9813 C   0  0  0  0  0  0  0  0  0  0  0  0
    6.7441    6.1097  -22.0416 C   0  0  0  0  0  0  0  0  0  0  0  0
    6.6867    4.3560  -23.7028 C   0  0  0  0  0  0  0  0  0  0  0  0
    6.4101    2.8757  -18.8785 C   0  0  0  0  0  0  0  0  0  0  0  0
    6.4640    3.7283  -21.2658 C   0  0  2  0  0  0  0  0  0  0  0  0
    6.0693    3.3558  -22.7116 C   0  0  2  0  0  0  0  0  0  0  0  0
    5.7858    2.7468  -20.2696 C   0  0  1  0  0  0  0  0  0  0  0  0
    5.5302   -4.3870  -18.6582 N   0  0  0  0  0  0  0  0  0  0  0  0
    4.3773    3.0926  -20.0302 N   0  3  0  0  0  0  0  0  0  0  0  0
    2.9658    3.8031  -18.2405 N   0  0  0  0  0  0  0  0  0  0  0  0
    6.5751    2.0436  -23.0370 O   0  0  0  0  0  0  0  0  0  0  0  0
    5.3088    3.1471  -18.0090 O   0  0  0  0  0  0  0  0  0  0  0  0
    6.3034    5.7015  -23.3538 O   0  0  0  0  0  0  0  0  0  0  0  0
    2.1705   -3.0040  -16.9558 Cl  0  0  0  0  0  0  0  0  0  0  0  0
    6.2321   -2.3693  -22.0167 H   0  0  0  0  0  0  0  0  0  0  0  0
    6.8114   -0.4999  -23.5433 H   0  0  0  0  0  0  0  0  0  0  0  0
    5.0622    0.4616  -18.9904 H   0  0  0  0  0  0  0  0  0  0  0  0
    3.4227   -1.1243  -18.7517 H   0  0  0  0  0  0  0  0  0  0  0  0
    6.7885   -3.4714  -20.0741 H   0  0  0  0  0  0  0  0  0  0  0  0
    4.1223   -5.0999  -17.2643 H   0  0  0  0  0  0  0  0  0  0  0  0
    6.4634    5.4973  -19.9845 H   0  0  0  0  0  0  0  0  0  0  0  0
    5.0028    5.3327  -21.0171 H   0  0  0  0  0  0  0  0  0  0  0  0
    6.4513    7.1553  -21.8656 H   0  0  0  0  0  0  0  0  0  0  0  0
    7.8385    6.0198  -21.9782 H   0  0  0  0  0  0  0  0  0  0  0  0
    7.7828    4.2702  -23.6707 H   0  0  0  0  0  0  0  0  0  0  0  0
    6.3306    4.1283  -24.7184 H   0  0  0  0  0  0  0  0  0  0  0  0
    6.9103    1.9395  -18.5899 H   0  0  0  0  0  0  0  0  0  0  0  0
    7.1359    3.7018  -18.8543 H   0  0  0  0  0  0  0  0  0  0  0  0
    7.5541    3.6200  -21.1663 H   0  0  0  0  0  0  0  0  0  0  0  0
    4.9736    3.3818  -22.8050 H   0  0  0  0  0  0  0  0  0  0  0  0
    3.6700    3.1150  -20.7367 H   0  0  0  0  0  0  0  0  0  0  0  0
    2.8770    3.9771  -17.2598 H   0  0  0  0  0  0  0  0  0  0  0  0
    2.1824    3.9428  -18.8461 H   0  0  0  0  0  0  0  0  0  0  0  0
  1  2  1  0  0  0  0
  1  7  2  0  0  0  0
  2 10  2  0  0  0  0
  3  7  1  0  0  0  0
  3  9  2  0  0  0  0
  4  8  1  0  0  0  0
  4 11  2  0  0  0  0
  5  8  2  0  0  0  0
  5 20  1  0  0  0  0
  6 11  1  0  0  0  0
  6 20  2  0  0  0  0
  7  8  1  0  0  0  0
  9 10  1  0  0  0  0
  9 19  1  0  0  0  0
 10 23  1  0  0  0  0
 11 26  1  0  0  0  0
 12 21  2  0  0  0  0
 12 22  1  0  0  0  0
 12 24  1  0  0  0  0
 13 14  1  0  0  0  0
 13 17  1  0  0  0  0
 14 25  1  0  0  0  0
 15 18  1  0  0  0  0
 15 25  1  0  0  0  0
 16 19  1  0  0  0  0
 16 24  1  0  0  0  0
 17 18  1  0  0  0  0
 17 19  1  0  0  0  0
 18 23  1  0  0  0  0
 19 21  1  0  0  0  0
  1 27  1  0  0  0  0
  2 28  1  0  0  0  0
  3 29  1  0  0  0  0
  4 30  1  0  0  0  0
  5 31  1  0  0  0  0
  6 32  1  0  0  0  0
 13 33  1  0  0  0  0
 13 34  1  0  0  0  0
 14 35  1  0  0  0  0
 14 36  1  0  0  0  0
 15 37  1  0  0  0  0
 15 38  1  0  0  0  0
 16 39  1  0  0  0  0
 16 40  1  0  0  0  0
 17 41  1  0  0  0  0
 18 42  1  0  0  0  0
 21 43  1  0  0  0  0
 22 44  1  0  0  0  0
 22 45  1  0  0  0  0
M  CHG  1  21   1
M  END
> <OMEGA_C>
dhvDQF93rL/4ja3BfvvNQF0UlL56a7TBSdmuQB9egj4bxZ/BqBaAQOI/AsCC3ZXBMOW8QMN5V8C/
t5vB3zaNQL7UiMCnMY/BuomyQPqVib+aSaPBXxSlQEW5CsDNNpzBQse7QDrJqD9hZKbBTlfJQLGs
hT83BbHBLsBnQNX7RsAkW4/B9Y6FQCyXV0CEFJbBFQ/DQKnLpkCm2afBas/XQAiDw0A6VbDBEfnV
QD5ki0BIn73BRx/NQCYLOEA3B5fBItnOQKybbkBgIKrBpTfCQDjGVkBVsbXBbyW5QBzML0AgKKLB
GvewQGdijMAYRJXBuBKMQDftRUDQPaDBcM89QKplc0CK7JHBWWfSQK3KAkCxS7jBDOKpQJdqSUBk
EpDBmbXJQJVytkCa1LrBoOkKQMZAQMB5pYfBUG3HQACiF8BNIrDBNvfZQMbt/77AWLzBj/2hQFda
7D5N7JfBQg5bQFHpj7+FA5bBDzvZQNUqXsDVl6DBSeqDQEoyo8BcHYrB99POQKrpr0BB4J/BvRag
QCulqkD6IqjBs3DOQJD45EC27K7BZdX6QFuiwEBG06/B9gz5QF6liECGXb3BjJTKQOgahEAwv8XB
eSHdQNxB+D8SuJTBeFnkQBLrbECz1ZbBc7vxQHauZ0B9VKnBhSefQG1vWECpcLbBn+BqQClcR0DL
5KXBNiA4QDGJfkAEFIrBq6sLQIFWfEDAxJbBSlnCQFfPq7+9w63BkHnOQCWLkr6qh7TBXrGuQAyt
hT7G8Z/B0ly6QLStVcDbypvBzUV7QKaZ/r+FKZbB2KiGQIrWg8BmtY7BjlixQNdNiL/3iqPBOtai
QAxWCcCngZzBGKG8QDgBqT8fd6bBsonKQOoVhj8eEbHBUE+sQPyLisBttZTBehKGQEixVUBZEZbB
fEDCQBDWpkBs3qfBPBnWQCMSxEDRXrDBmvrVQNXUi0BIor3BLODNQHfxN0APFZfBKBbPQCQzb0AM
JqrBYPPCQJywVkBxubXBiNG5QJKrL0DIMqLB9RRgQPr8PcDwg4/BaqWMQAG9REBXPqDB9jY+QLkB
b0C52ZHBvhvUQF5JA0D7QrjBmNGqQCahSkD8HpDBwlfIQC9/tkCh27rBWMnJQGN/ucAvPJPBvwjG
QGdcF8AHYrDBQNzaQNM8/75MarzBt9ahQAGc8D6qGZjBtavWQFRAX8AkmqDBwnJXQMefiL/Lo5bB
50F3QJOenMDZWonBg/nNQF48sEAw6Z/B0TGfQNjaqUCVG6jB7b7LQOo/5UBU+q7BszH5QA49wkAS
36/Bdh35QH4fikAMUr3BvwPLQL8whEBnxsXBynzdQNVt9z8yu5TBZ3blQAswbEBB8JbBlAPyQFqx
aUCzTKnBS+OfQNSoVkAigLbBZfNrQI4CRkAk46XBrbg4QM+GekDbAorBZGwLQCDFdUDVpJbB

> <OMEGA_E>
AAAAAABIVz4=

> <OMEGA_NBR>
      1857

$$$$
50097320
  -OEChem-04172616093D

 45 49  0     1  0  0  0  0  0999 V2000
    6.0864   -1.3393  -21.7396 C   0  0  0  0  0  0  0  0  0  0  0  0
    6.3781   -0.2860  -22.6221 C   0  0  0  0  0  0  0  0  0  0  0  0
    5.3427    0.2692  -20.0717 C   0  0  0  0  0  0  0  0  0  0  0  0
    4.0627   -2.0387  -18.7207 C   0  0  0  0  0  0  0  0  0  0  0  0
    5.9848   -3.3241  -19.4760 C   0  0  0  0  0  0  0  0  0  0  0  0
    4.5568   -4.2519  -17.8632 C   0  0  0  0  0  0  0  0  0  0  0  0
    5.5572   -1.0621  -20.4619 C   0  0  0  0  0  0  0  0  0  0  0  0
    5.2026   -2.1492  -19.5411 C   0  0  0  0  0  0  0  0  0  0  0  0
    5.6600    1.3324  -20.9372 C   0  0  0  0  0  0  0  0  0  0  0  0
    6.1806    1.0496  -22.2251 C   0  0  0  0  0  0  0  0  0  0  0  0
    3.7326   -3.1081  -17.8810 C   0  0  0  0  0  0  0  0  0  0  0  0
    4.1282    3.4604  -18.7288 C   0  0  0  0  0  0  0  0  0  0  0  0
    5.9831    5.2435  -21.1161 C   0  0  0  0  0  0  0  0  0  0  0  0
    6.2098    6.1645  -22.3252 C   0  0  0  0  0  0  0  0  0  0  0  0
    6.9629    4.3284  -23.6988 C   0  0  0  0  0  0  0  0  0  0  0  0
    6.3249    3.0018  -19.1923 C   0  0  0  0  0  0  0  0  0  0  0  0
    5.6846    3.7907  -21.6019 C   0  0  1  0  0  0  0  0  0  0  0  0
    6.8124    3.3259  -22.5438 C   0  0  1  0  0  0  0  0  0  0  0  0
    5.4676    2.7596  -20.4428 C   0  0  1  0  0  0  0  0  0  0  0  0
    5.6597   -4.3421  -18.6459 N   0  0  0  0  0  0  0  0  0  0  0  0
    4.1083    2.9167  -19.9237 N   0  3  0  0  0  0  0  0  0  0  0  0
    2.9812    3.8324  -18.0486 N   0  0  0  0  0  0  0  0  0  0  0  0
    6.5002    2.0436  -23.1214 O   0  0  0  0  0  0  0  0  0  0  0  0
    5.4240    3.6396  -18.2788 O   0  0  0  0  0  0  0  0  0  0  0  0
    7.2572    5.6333  -23.1657 O   0  0  0  0  0  0  0  0  0  0  0  0
    2.3044   -3.0238  -16.8827 Cl  0  0  0  0  0  0  0  0  0  0  0  0
    6.2672   -2.3610  -22.0394 H   0  0  0  0  0  0  0  0  0  0  0  0
    6.7560   -0.5023  -23.6104 H   0  0  0  0  0  0  0  0  0  0  0  0
    4.9295    0.4798  -19.0963 H   0  0  0  0  0  0  0  0  0  0  0  0
    3.4554   -1.1458  -18.7395 H   0  0  0  0  0  0  0  0  0  0  0  0
    6.8606   -3.4115  -20.1019 H   0  0  0  0  0  0  0  0  0  0  0  0
    4.3037   -5.0748  -17.2112 H   0  0  0  0  0  0  0  0  0  0  0  0
    6.8853    5.2393  -20.4869 H   0  0  0  0  0  0  0  0  0  0  0  0
    5.1292    5.6146  -20.5303 H   0  0  0  0  0  0  0  0  0  0  0  0
    5.2788    6.2371  -22.9066 H   0  0  0  0  0  0  0  0  0  0  0  0
    6.4999    7.1647  -21.9711 H   0  0  0  0  0  0  0  0  0  0  0  0
    7.7831    4.0080  -24.3581 H   0  0  0  0  0  0  0  0  0  0  0  0
    6.0256    4.3697  -24.2731 H   0  0  0  0  0  0  0  0  0  0  0  0
    6.6935    2.0511  -18.7797 H   0  0  0  0  0  0  0  0  0  0  0  0
    7.1781    3.6567  -19.4229 H   0  0  0  0  0  0  0  0  0  0  0  0
    4.7544    3.8249  -22.1881 H   0  0  0  0  0  0  0  0  0  0  0  0
    7.7562    3.2771  -21.9810 H   0  0  0  0  0  0  0  0  0  0  0  0
    3.2783    2.6470  -20.4120 H   0  0  0  0  0  0  0  0  0  0  0  0
    3.0513    4.2711  -17.1526 H   0  0  0  0  0  0  0  0  0  0  0  0
    2.0827    3.6626  -18.4532 H   0  0  0  0  0  0  0  0  0  0  0  0
  1  2  1  0  0  0  0
  1  7  2  0  0  0  0
  2 10  2  0  0  0  0
  3  7  1  0  0  0  0
  3  9  2  0  0  0  0
  4  8  1  0  0  0  0
  4 11  2  0  0  0  0
  5  8  2  0  0  0  0
  5 20  1  0  0  0  0
  6 11  1  0  0  0  0
  6 20  2  0  0  0  0
  7  8  1  0  0  0  0
  9 10  1  0  0  0  0
  9 19  1  0  0  0  0
 10 23  1  0  0  0  0
 11 26  1  0  0  0  0
 12 21  2  0  0  0  0
 12 22  1  0  0  0  0
 12 24  1  0  0  0  0
 13 14  1  0  0  0  0
 13 17  1  0  0  0  0
 14 25  1  0  0  0  0
 15 18  1  0  0  0  0
 15 25  1  0  0  0  0
 16 19  1  0  0  0  0
 16 24  1  0  0  0  0
 17 18  1  0  0  0  0
 17 19  1  0  0  0  0
 18 23  1  0  0  0  0
 19 21  1  0  0  0  0
  1 27  1  0  0  0  0
  2 28  1  0  0  0  0
  3 29  1  0  0  0  0
  4 30  1  0  0  0  0
  5 31  1  0  0  0  0
  6 32  1  0  0  0  0
 13 33  1  0  0  0  0
 13 34  1  0  0  0  0
 14 35  1  0  0  0  0
 14 36  1  0  0  0  0
 15 37  1  0  0  0  0
 15 38  1  0  0  0  0
 16 39  1  0  0  0  0
 16 40  1  0  0  0  0
 17 41  1  0  0  0  0
 18 42  1  0  0  0  0
 21 43  1  0  0  0  0
 22 44  1  0  0  0  0
 22 45  1  0  0  0  0
M  CHG  1  21   1
M  END
> <OMEGA_C>
rMPCQA9uq7/E6q3BeBnMQBFokr4D+rTBXveqQILSiT7EkqDBxAGCQER6AsD2w5XBoYO/QGC+VMDV
zpvBl9GRQMQPiMDe547B79SxQMLxh7/8saPBY3umQPyMCcAkVJzB7x61QJqKqj9vf6fBRMfFQLVa
hj/7zLHByeJuQGjrRsBXDI/BEhqEQMd2XUCF1JXBLHW/QAHLp0DH7ajBirbGQJpDxUARmrLB9s/e
QJ+CikAtl73BimXKQFUdQEDliZnBEei1QOyackC/0KzBLf/ZQBTcVEDGWbTBMPauQG+dMEDTiqPB
aBy1QKryisDVKpXBzHaDQEOrOkCnY5/Blsw+QJRGdUB6Y5DB9QHQQBPKAkCZ+LjBnZGtQHDvaEAU
O5LB1jroQGBEtEBaU7nBpnsTQPeFQcC+D4fB3IzIQD4aF8C/ULDBETHYQNeTAL8i4rzBf76dQKSk
9T47xZjB8SVdQBuqkr956pXBFIrbQIpVWsCz0KDBpbeJQMdkosB0sInBSFTcQIuop0AT5aPBOSKk
QA+rs0AGPqTB3uuoQHiWx0CzQLfBA//PQFhF5UDHxK/BCQ/5QPFBgEBV3cLB9NHAQK3Ui0BkL8LB
/jDWQJZEA0DXPJbBvbLlQIwHakAnYpvBFySYQGHKdEBAgbHBCTP4QG+7UUAQ2a/Bsc9RQHVoKUC0
S6PBG0lDQHKsiECaOInBVUoFQHRnakAdoJPBmdDEQL9Aqb8H5K3BwMHNQDYKir7P/rTBrHqsQEAR
kj7km6DBsI/BQDCLUcAVf5vB1RmDQMOGAMCFzZXB89mPQA9Zg8BpHY7ByJmzQB+Ehb9RsqPBIhqo
QKu7B8CiSJzBvji2QCVirD9IkKfBYMzGQIlgiD/737HBAVu1QMSziMDJQJTBZjiEQAPSWkAFy5XB
Gee+QIcyqEA4D6nBW+vEQBnBxUABxLLBqcDcQOw5i0DX4b3BRs7KQP6zQUCJo5nBvZC1QCZMc0Ad
6qzBoWXZQGOCVkCwlbTBhmGvQCFDMUC8oKPB6/9uQHRaP8AD9o7B+NSDQBjIOUCOcp/B8KY+QJI7
b0DkN5DBSh3QQLrPA0B7HbnBTJitQLB/aED3QJLBpPflQKEotUAps7nB4pbUQOGDtsDv1JLBdxvL
QEH3FcCpOrDBBAbaQLm9+L6r4rzBqVqfQNbp/T7Cy5jB8eHdQKffWMDPXKDBBGdfQKj4jr9HV5bB
o1qGQCtDnMAxnojB8zjcQDFjqECvMKTB0t6jQJm5s0AxN6TBCKqmQKjEx0AsPLfB5h/OQOzZ5UAU
+6/BO5n2QE9NgUAQUcPBTUe+QPwGjEAwSMLBeoDXQHlWBUDUaJbBT3vlQNQ1bUDIepvBDoyXQAL7
dEBogbHBmfT3QMENVUCLOLDB671SQIa9KEDxaKPBya5CQNMihUAj/IjBZlIFQBDwYkDKbJPB

> <OMEGA_E>
eOY8Pui2tD4=

> <OMEGA_NBR>
      3716

$$$$
288404
  -OEChem-04172616093D

 40 44  0     1  0  0  0  0  0999 V2000
    7.2791    3.7837  -23.7060 C   0  0  0  0  0  0  0  0  0  0  0  0
    7.1245    5.1677  -23.7153 C   0  0  0  0  0  0  0  0  0  0  0  0
    5.9304    5.0390  -21.6212 C   0  0  0  0  0  0  0  0  0  0  0  0
    6.0658    3.6393  -21.5990 C   0  0  0  0  0  0  0  0  0  0  0  0
    6.7665    3.0246  -22.6484 C   0  0  0  0  0  0  0  0  0  0  0  0
    6.4542    5.7960  -22.6707 C   0  0  0  0  0  0  0  0  0  0  0  0
    4.1950    3.6023  -18.7545 C   0  0  0  0  0  0  0  0  0  0  0  0
    6.8836   -1.5535  -20.7529 C   0  0  0  0  0  0  0  0  0  0  0  0
    5.7553   -1.4616  -21.7421 C   0  0  0  0  0  0  0  0  0  0  0  0
    6.2849    2.9954  -19.1590 C   0  0  0  0  0  0  0  0  0  0  0  0
    4.1545    0.9985  -21.7711 C   0  0  0  0  0  0  0  0  0  0  0  0
    4.7281    0.3746  -19.8904 C   0  0  0  0  0  0  0  0  0  0  0  0
    6.9266   -0.5251  -21.8493 C   0  0  0  0  0  0  0  0  0  0  0  0
    6.7610    0.9360  -21.5261 C   0  0  2  0  0  0  0  0  0  0  0  0
    5.4883    2.8176  -20.4637 C   0  0  2  0  0  0  0  0  0  0  0  0
    5.4073    1.3356  -20.9089 C   0  0  0  0  0  0  0  0  0  0  0  0
    4.1937    3.3489  -20.0530 N   0  3  0  0  0  0  0  0  0  0  0  0
    3.1839    4.0791  -18.0513 N   0  0  0  0  0  0  0  0  0  0  0  0
    6.9687    1.6718  -22.7439 O   0  0  0  0  0  0  0  0  0  0  0  0
    5.3426    3.3291  -18.1196 O   0  0  0  0  0  0  0  0  0  0  0  0
    3.4812    0.4181  -20.6281 O   0  0  0  0  0  0  0  0  0  0  0  0
    6.2502    7.6749  -22.6749 Br  0  0  0  0  0  0  0  0  0  0  0  0
    7.8061    3.3005  -24.5248 H   0  0  0  0  0  0  0  0  0  0  0  0
    7.5351    5.7404  -24.5428 H   0  0  0  0  0  0  0  0  0  0  0  0
    5.4118    5.5457  -20.8111 H   0  0  0  0  0  0  0  0  0  0  0  0
    6.6925   -1.2236  -19.7393 H   0  0  0  0  0  0  0  0  0  0  0  0
    7.5540   -2.4007  -20.8302 H   0  0  0  0  0  0  0  0  0  0  0  0
    5.6691   -2.2475  -22.4825 H   0  0  0  0  0  0  0  0  0  0  0  0
    4.8086   -1.0704  -21.3908 H   0  0  0  0  0  0  0  0  0  0  0  0
    6.7922    2.0773  -18.8421 H   0  0  0  0  0  0  0  0  0  0  0  0
    7.0376    3.7897  -19.2132 H   0  0  0  0  0  0  0  0  0  0  0  0
    3.5788    1.8390  -22.1721 H   0  0  0  0  0  0  0  0  0  0  0  0
    4.2936    0.2684  -22.5749 H   0  0  0  0  0  0  0  0  0  0  0  0
    5.1347   -0.6373  -19.8242 H   0  0  0  0  0  0  0  0  0  0  0  0
    4.5832    0.7558  -18.8744 H   0  0  0  0  0  0  0  0  0  0  0  0
    7.6258   -0.6852  -22.6612 H   0  0  0  0  0  0  0  0  0  0  0  0
    7.5804    1.1936  -20.8392 H   0  0  0  0  0  0  0  0  0  0  0  0
    3.3676    3.5397  -20.6109 H   0  0  0  0  0  0  0  0  0  0  0  0
    2.2930    4.2908  -18.4970 H   0  0  0  0  0  0  0  0  0  0  0  0
    3.2765    4.2435  -17.0509 H   0  0  0  0  0  0  0  0  0  0  0  0
  1  2  1  0  0  0  0
  1  5  2  0  0  0  0
  2  6  2  0  0  0  0
  3  4  2  0  0  0  0
  3  6  1  0  0  0  0
  4  5  1  0  0  0  0
  4 15  1  0  0  0  0
  5 19  1  0  0  0  0
  6 22  1  0  0  0  0
  7 17  2  0  0  0  0
  7 18  1  0  0  0  0
  7 20  1  0  0  0  0
  8  9  1  0  0  0  0
  8 13  1  0  0  0  0
  9 13  1  0  0  0  0
 10 15  1  0  0  0  0
 10 20  1  0  0  0  0
 11 16  1  0  0  0  0
 11 21  1  0  0  0  0
 12 16  1  0  0  0  0
 12 21  1  0  0  0  0
 13 14  1  0  0  0  0
 14 16  1  0  0  0  0
 14 19  1  0  0  0  0
 15 16  1  0  0  0  0
 15 17  1  0  0  0  0
  1 23  1  0  0  0  0
  2 24  1  0  0  0  0
  3 25  1  0  0  0  0
  8 26  1  0  0  0  0
  8 27  1  0  0  0  0
  9 28  1  0  0  0  0
  9 29  1  0  0  0  0
 10 30  1  0  0  0  0
 10 31  1  0  0  0  0
 11 32  1  0  0  0  0
 11 33  1  0  0  0  0
 12 34  1  0  0  0  0
 12 35  1  0  0  0  0
 13 36  1  0  0  0  0
 14 37  1  0  0  0  0
 17 38  1  0  0  0  0
 18 39  1  0  0  0  0
 18 40  1  0  0  0  0
M  CHG  1  17   1
M  END
> <OMEGA_C>
Gu7oQH4ockDSpb3BpvvjQHhdpUAEub3BFsa9QD8/oUBM+KzBVRvCQAfraECryqzBUofYQF+TQUAB
MLXBLonOQHR4uUCsXbXBKj2GQMCMZkAuCZbBFkbcQJPaxr8EBqbB0iu4QFwWu7/f763B7x3JQES0
P0CiRZnBlvGEQMigfz8fK67BMEyXQGXFvz6aH5/BAKfdQGpsBr9qy67BclrYQGmfbz9oNazBAaCv
QERTNECrtaPBAgmtQID1qj99RafBHDOGQEZUVkCjbKDBJMVLQKuHgkARaZDBNP/eQFD81T9p87XB
wvaqQGAPVUAC9ZDBn8xeQOUR1j5sBqXBfAHIQJCY9UA/ZrXBLsv5QMg7U0C/MsTBQB/xQCyxt0CO
V8TBSi2tQK52sUAofabBzijWQC6gnL//6Z3BDrrxQASlGcBUpKbBQGm1QHHWD8AZ3LPB9N+ZQOwB
ib9WIKvBVFnZQAzzBEC4vJbBojPhQO2KckCKtJnBqQtlQFZl6z99YLHB3mSJQBBtiT5NmbTBtE+k
QBooI78ImJ7B8amSQJ9+QT/K/pbBlgb0QNJoL78mSrXBYJLyQOXHmD/HtqbBb4ZXQNGKYkAx46TB
KsESQBdOiUDw+ZPBYrJRQKjKh0BMaIjBQpjoQIBkdkBxk77BzqXjQHh7p0Cjpr7BPnC9QEBdo0Dr
5a3BfMXBQAknbUBKuK3BejHYQGHPRUCgHbbBVjPOQHaWu0BLS7bBUueFQMLIakDN9pbBPvDbQI9i
vr+j86bB+tW3QFiesr9+3a7BFsjIQEbwQ0BBM5rBvZuEQGhIiD++GK/BWPaWQHOl4T45DaDBKFHd
QMT46r4Iua/BmgTYQLhHgD8HI63BKUqvQEaPOEBKo6TBKrOsQIRtsz8cM6jBRN2FQEiQWkBCWqHB
dBlLQKylhECwVpHBW6neQFR03j8J4bbB6qCqQGJLWUCh4pHB7iBeQPXx9z4L9KXBpavHQJC290De
U7bBVHX5QMp3V0BeIMXBaMnwQC3PuUAtRcXBctesQK+Us0DHaqfB9tLVQCoolL+e157BNmTxQAJp
FcD0kafBaBO1QG+aC8C4ybTBHIqZQOiJgL/2DazBfAPZQA4vCUBXqpfByt3gQO/GdkApoprB+V9k
QFrd8z8cTrLBBg+JQCBNqz7shrXB3PmjQBI4Er+nhZ/BGVSSQKduUj9p7JfBvbDzQMt4Hr/FN7bB
iDzyQOk/oT9mpKfBv9pWQNPGZkDQ0KXBehUSQBhsi0CP55TBsQZRQKnoiUDqVYnBbpbmQJqGi0CL
x7nB1y/hQEg3t0D5DLjBEH+4QMfGp0BWGKjB5UW9QCMKd0DJv6nBgCrVQJivW0A1n7LB60TKQNhZ
xUBLMK/BEv17QMS5VUBj+JPBpSXYQLztsr9YxanBlj+1QLG0kr+LzLHB5ITBQOtONEDoT5fBPUOB
QHSIoz9zPa/B7YSRQLARsz6kEqHBf4PaQEjyTL6uBbHBSlTUQJS+lz98kqzB/rKpQMHeNkBUFaLB
ISioQPY7vD+imafBHEB/QKmnU0A0i57B6ko5QPMAbEDsG47BPjTcQAZnB0C5HrXBMgKiQLH5PUCe
+I7BXBNVQGndAj+YOKfB2xzDQKhPAEG7xazBx5n4QEq9gECLtsDBjSHvQKzFzUAWrb3BncCmQKZa
s0AfMqHBXrDQQGchn7+bZqHB8fbtQK3pDcBhTavB+KizQAkL5r9OtrjBIGqWQGK3Ur8Lzq7Bt6nR
QPg87j8n4pXBxmHZQDw0Z0B3cJbBEB9eQGryCkArdbHBBvCGQMpnMT/9gbbB8MieQARDKL/WxqHB
NIWLQJoLDj/cmZjBC+rxQDhpYL4qarfBG5rtQITyqT+EjqbBTaZLQCZ2ZUAD8qLBEUQBQNHofUCI
npHBjKk8QJata0DW+YXBlKbjQKStnUAqpLjBkrXYQJqByEDlOrfBHqywQK+etUBDZ6fBuQ67QMEo
ikBXvajBsVXVQMh4fUAtY7HBB1i/QCCB1EA2l67BFF94QO2YZ0AvNZPBn4/qQO4pS79WgqfB273H
QI/+M79yxq/BPZLBQLehVkAmEpbBc0+KQEbSwD+WAq7BFbWcQLTQMD9PkZ/BkOHoQDTVwz7M/q7B
tc/cQNN63z+B36rBg9qqQFs6UUBC+aDBaV6vQM2L7z8zNKbB4vZ9QG/4Y0Bqwp3BIUkyQPh9dkC8
mo3B9MjhQLomK0CakbPBx+KgQEDwWUAS8I3BqARsQNBlLj9F9aXBiqmwQCdRB0G5mqzBX4v3QGOS
lEDrZr/BbU7kQAUX4EC97LzBdfOcQJuKv0A/rqDB0rfhQNYLJb+NN5/BYM0BQZJYw7+mv6jBB2/J
QLkKsL9TjrbBsJOnQADZ/L6vBK3B2TvVQJg4HkCnWpTB8gDWQEmch0B2PJXBnN1pQFQvFEBsg7DB
r/qSQI5lbT+qHrXBt+2tQNJyhL61/J/BDxqVQLpFZT8vLZfB/GYAQds03z7CQLXBYrj0QEYvAEDs
wKTBI3JJQENjbkByW6LB1F/yP9VPgEDdUpHBfg00QE0ceEA/d4XB

> <OMEGA_E>
iK9QwcoZTcG8fTzBVnI8wQ==

> <OMEGA_NBR>
      6867

$$$$
288408
  -OEChem-04172616093D

 42 45  0     1  0  0  0  0  0999 V2000
    6.9407    4.1829  -23.7554 C   0  0  0  0  0  0  0  0  0  0  0  0
    6.8928    5.5725  -23.5321 C   0  0  0  0  0  0  0  0  0  0  0  0
    6.1415    5.1906  -21.2527 C   0  0  0  0  0  0  0  0  0  0  0  0
    6.1496    3.7983  -21.4769 C   0  0  0  0  0  0  0  0  0  0  0  0
    6.5943    3.2842  -22.7280 C   0  0  0  0  0  0  0  0  0  0  0  0
    6.5039    6.0727  -22.2762 C   0  0  0  0  0  0  0  0  0  0  0  0
    4.1564    3.3620  -18.6853 C   0  0  0  0  0  0  0  0  0  0  0  0
    6.3765    2.9296  -19.1182 C   0  0  0  0  0  0  0  0  0  0  0  0
    4.0514    1.2175  -21.7532 C   0  0  0  0  0  0  0  0  0  0  0  0
    4.7607    0.4154  -19.9544 C   0  0  0  0  0  0  0  0  0  0  0  0
    6.6694    1.0582  -21.8215 C   0  0  1  0  0  0  0  0  0  0  0  0
    5.5672    2.8895  -20.4101 C   0  0  2  0  0  0  0  0  0  0  0  0
    5.4161    1.4484  -20.9745 C   0  0  0  0  0  0  0  0  0  0  0  0
    6.7245   -0.4146  -22.2969 C   0  0  0  0  0  0  0  0  0  0  0  0
    7.3001   -1.3294  -21.1846 C   0  0  0  0  0  0  0  0  0  0  0  0
    6.6062   -2.7093  -21.1341 C   0  0  0  0  0  0  0  0  0  0  0  0
    4.2674    3.4199  -19.9874 N   0  3  0  0  0  0  0  0  0  0  0  0
    2.9394    3.4848  -18.0380 N   0  0  0  0  0  0  0  0  0  0  0  0
    6.6818    1.9225  -22.9881 O   0  0  0  0  0  0  0  0  0  0  0  0
    5.3832    3.1188  -18.0935 O   0  0  0  0  0  0  0  0  0  0  0  0
    3.5907    0.4058  -20.7133 O   0  0  0  0  0  0  0  0  0  0  0  0
    5.2486   -2.6062  -21.1149 F   0  0  0  0  0  0  0  0  0  0  0  0
    6.9759   -3.4223  -22.2276 F   0  0  0  0  0  0  0  0  0  0  0  0
    6.9956   -3.3599  -20.0065 F   0  0  0  0  0  0  0  0  0  0  0  0
    6.3987    7.9460  -21.9710 Br  0  0  0  0  0  0  0  0  0  0  0  0
    7.2447    3.8042  -24.7200 H   0  0  0  0  0  0  0  0  0  0  0  0
    7.1551    6.2554  -24.3265 H   0  0  0  0  0  0  0  0  0  0  0  0
    5.8543    5.5778  -20.2862 H   0  0  0  0  0  0  0  0  0  0  0  0
    6.9196    1.9851  -18.9671 H   0  0  0  0  0  0  0  0  0  0  0  0
    7.0911    3.7658  -19.1298 H   0  0  0  0  0  0  0  0  0  0  0  0
    3.4602    2.1329  -21.9032 H   0  0  0  0  0  0  0  0  0  0  0  0
    4.1662    0.6937  -22.7137 H   0  0  0  0  0  0  0  0  0  0  0  0
    5.2737   -0.5566  -19.9083 H   0  0  0  0  0  0  0  0  0  0  0  0
    4.6319    0.8107  -18.9360 H   0  0  0  0  0  0  0  0  0  0  0  0
    7.5643    1.2546  -21.2127 H   0  0  0  0  0  0  0  0  0  0  0  0
    5.7081   -0.7503  -22.5504 H   0  0  0  0  0  0  0  0  0  0  0  0
    7.3659   -0.4825  -23.1880 H   0  0  0  0  0  0  0  0  0  0  0  0
    8.3732   -1.4810  -21.3730 H   0  0  0  0  0  0  0  0  0  0  0  0
    7.1651   -0.8311  -20.2133 H   0  0  0  0  0  0  0  0  0  0  0  0
    3.5663    3.7749  -20.6058 H   0  0  0  0  0  0  0  0  0  0  0  0
    2.8911    3.3966  -17.0431 H   0  0  0  0  0  0  0  0  0  0  0  0
    2.1083    3.6616  -18.5652 H   0  0  0  0  0  0  0  0  0  0  0  0
  1  2  1  0  0  0  0
  1  5  2  0  0  0  0
  2  6  2  0  0  0  0
  3  4  2  0  0  0  0
  3  6  1  0  0  0  0
  4  5  1  0  0  0  0
  4 12  1  0  0  0  0
  5 19  1  0  0  0  0
  6 25  1  0  0  0  0
  7 17  2  0  0  0  0
  7 18  1  0  0  0  0
  7 20  1  0  0  0  0
  8 12  1  0  0  0  0
  8 20  1  0  0  0  0
  9 13  1  0  0  0  0
  9 21  1  0  0  0  0
 10 13  1  0  0  0  0
 10 21  1  0  0  0  0
 11 13  1  0  0  0  0
 11 14  1  0  0  0  0
 11 19  1  0  0  0  0
 12 13  1  0  0  0  0
 12 17  1  0  0  0  0
 14 15  1  0  0  0  0
 15 16  1  0  0  0  0
 16 22  1  0  0  0  0
 16 23  1  0  0  0  0
 16 24  1  0  0  0  0
  1 26  1  0  0  0  0
  2 27  1  0  0  0  0
  3 28  1  0  0  0  0
  8 29  1  0  0  0  0
  8 30  1  0  0  0  0
  9 31  1  0  0  0  0
  9 32  1  0  0  0  0
 10 33  1  0  0  0  0
 10 34  1  0  0  0  0
 11 35  1  0  0  0  0
 14 36  1  0  0  0  0
 14 37  1  0  0  0  0
 15 38  1  0  0  0  0
 15 39  1  0  0  0  0
 17 40  1  0  0  0  0
 18 41  1  0  0  0  0
 18 42  1  0  0  0  0
M  CHG  1  17   1
M  END
> <OMEGA_C>
8hneQOvZhUAAC77BwpHcQLVRskCvQbzBgofEQMAZpkBwBarBUMnEQPkXc0CY0KvB1ATTQKwwUkDj
0rXBSiDQQC9TwkChNbLBZQGFQL8qV0B2e5XB5AvMQLR+O0AT8pjBxaSBQBTWmz+XBq7BwleYQJGq
1D6rop/B42vVQE90hz9lkq7BPSayQCfuOED8R6PBs1CtQL1luT/Ey6fB/C7XQEpD1L4cYLLBMJrp
QAgqqr8keqnBWWbTQNhkLcCMEqnBl46IQE3fWkA95p/B5h48QHsGX0DaTZDBOtHVQE8V9j+Q57fB
KEOsQO6aR0CBv5DBYs1lQLvBzz7GtKXBtvSnQKPLJsBk66jBgDrfQHwGW8AH0rHBp9vfQIUIV8BK
DaDBP8LMQMtF/kCYxK/BttTnQOx3c0ChwsXBufbkQE4syEDDnMLBC1a7QAN9skArSqLBrm3dQDAX
/j+0vJfBPOriQEECcUDGCZnBX3NdQF+BCECsOa/Bf1GFQHWXMT+gtbXBT8KoQNd8Dr9BRJ/BtDiU
QHWHTz/4fJfB8g7yQAyXoD+qs6nBoKi2QMsSQL8iZ7TBiLXrQHIG9775gLnBe/gFQT+Svb/t+6rB
tkjlQCLCVL/gtKHB8D1kQJuYcUCe2KTBjgc5QJ5iWUA4WIjB3+0GQABYakCdhZTBXU/eQEjZh0Da
2b3BZ2XbQNEYtEAm7bvB9p7BQGQEpkBe6qnBzxvEQGf9ckDuyKvBWR7TQCCoVEAA0bXBbfHMQK4Z
w0D29bHBrG6FQMjQVUBkqJXBgh/NQA+5P0CO1ZjBJ/iGQIWNWj+GL6zBNDOpQPBeiT5EkZ7B90TZ
QEs9iz8gEq/BJL6zQPz0NUB8OaPB5i+zQCADrz8mcKfBHgfbQOytvb42grPBsboDQShrgL8c9rHB
2EgIQbZ8tb84NqbBkLqIQB65UEAoEqDBzl89QPAtY0DqkJDBpmzWQL4V/T8oKrjBJcmsQGddS0C8
xpDBgDKDQCAifb0exaPB19kHQehluL5SXp/B8a7zQAqQFsAI7qLBliccQUKT+r9AzaXB9BzGQEvD
/kD6iK/BGzPpQFTleEAhisXBYETkQLONykClG8LBney2QC+zsUCHPKLB/i3gQNX3BUDgNpfBUWfi
QLq2d0BuOZnBcVFbQEgYzz8XWKzBG6qJQOlWxj6NILTBcKfAQOEUDb8pRZ7B26ekQG7oLT/8e5bB
iCf3QKf1oz9rr6rBhCTDQEone79xRq/BB3fTQB4xtL4TGrzBJ88EQUgK878gC7fBve4PQRJ+jL4L
dLTB1vdhQGFyXUBTMaXBR+E6QBwKZkCElIjB/90HQDH6aUBO35TB

> <OMEGA_E>
0HBnPxhJbz8=

> <OMEGA_NBR>
      8623

$$$$
288415
  -OEChem-04172616093D

 51 55  0     1  0  0  0  0  0999 V2000
    5.7999   -5.3757  -18.2366 C   0  0  0  0  0  0  0  0  0  0  0  0
    6.3770   -6.4203  -18.0266 C   0  0  0  0  0  0  0  0  0  0  0  0
    5.9869   -1.3301  -21.6969 C   0  0  0  0  0  0  0  0  0  0  0  0
    6.4516   -0.3358  -22.5744 C   0  0  0  0  0  0  0  0  0  0  0  0
    5.6109   -3.2195  -19.3812 C   0  0  0  0  0  0  0  0  0  0  0  0
    5.3156    0.3898  -20.1084 C   0  0  0  0  0  0  0  0  0  0  0  0
    3.9716   -3.8381  -17.6943 C   0  0  0  0  0  0  0  0  0  0  0  0
    3.7949   -1.7439  -18.7197 C   0  0  0  0  0  0  0  0  0  0  0  0
    5.1215   -4.1453  -18.4493 C   0  0  0  0  0  0  0  0  0  0  0  0
    5.4237   -0.9685  -20.4547 C   0  0  0  0  0  0  0  0  0  0  0  0
    4.9387   -1.9920  -19.5167 C   0  0  0  0  0  0  0  0  0  0  0  0
    5.7848    1.3949  -20.9761 C   0  0  0  0  0  0  0  0  0  0  0  0
    6.3913    1.0228  -22.2097 C   0  0  0  0  0  0  0  0  0  0  0  0
    4.2733    3.3240  -18.8030 C   0  0  0  0  0  0  0  0  0  0  0  0
    6.5162    3.0609  -19.2473 C   0  0  0  0  0  0  0  0  0  0  0  0
    7.3842    3.1906  -22.4483 C   0  0  0  0  0  0  0  0  0  0  0  0
    5.0746    4.2438  -22.7181 C   0  0  0  0  0  0  0  0  0  0  0  0
    6.2788    5.3220  -21.3908 C   0  0  0  0  0  0  0  0  0  0  0  0
    5.7111    2.8571  -20.5312 C   0  0  1  0  0  0  0  0  0  0  0  0
    6.1893    3.7761  -21.6983 C   0  0  0  0  0  0  0  0  0  0  0  0
    8.8279   -8.5963  -16.3758 C   0  0  0  0  0  0  0  0  0  0  0  0
    7.0724   -7.6669  -17.7479 C   0  0  0  0  0  0  0  0  0  0  0  0
    3.3300   -2.6576  -17.8391 N   0  0  0  0  0  0  0  0  0  0  0  0
    4.3454    3.2088  -20.1101 N   0  3  0  0  0  0  0  0  0  0  0  0
    3.0858    3.5081  -18.1119 N   0  0  0  0  0  0  0  0  0  0  0  0
    6.9688    1.9482  -23.0647 O   0  0  0  0  0  0  0  0  0  0  0  0
    5.5212    3.2108  -18.2216 O   0  0  0  0  0  0  0  0  0  0  0  0
    5.2555    5.5662  -22.3086 O   0  0  0  0  0  0  0  0  0  0  0  0
    8.0840   -7.4207  -16.7516 O   0  0  0  0  0  0  0  0  0  0  0  0
    6.0608   -2.3714  -21.9734 H   0  0  0  0  0  0  0  0  0  0  0  0
    6.8578   -0.6157  -23.5352 H   0  0  0  0  0  0  0  0  0  0  0  0
    6.4817   -3.4432  -19.9795 H   0  0  0  0  0  0  0  0  0  0  0  0
    4.8673    0.6658  -19.1654 H   0  0  0  0  0  0  0  0  0  0  0  0
    3.5956   -4.5610  -16.9855 H   0  0  0  0  0  0  0  0  0  0  0  0
    3.2803   -0.7995  -18.8181 H   0  0  0  0  0  0  0  0  0  0  0  0
    7.1548    2.1883  -19.0456 H   0  0  0  0  0  0  0  0  0  0  0  0
    7.1407    3.9637  -19.3187 H   0  0  0  0  0  0  0  0  0  0  0  0
    7.7196    3.8962  -23.2226 H   0  0  0  0  0  0  0  0  0  0  0  0
    8.2079    2.9996  -21.7447 H   0  0  0  0  0  0  0  0  0  0  0  0
    5.3263    4.0618  -23.7733 H   0  0  0  0  0  0  0  0  0  0  0  0
    4.0735    3.8407  -22.5052 H   0  0  0  0  0  0  0  0  0  0  0  0
    6.0249    5.5887  -20.3543 H   0  0  0  0  0  0  0  0  0  0  0  0
    7.2424    5.7782  -21.6613 H   0  0  0  0  0  0  0  0  0  0  0  0
    9.5769   -8.3294  -15.6157 H   0  0  0  0  0  0  0  0  0  0  0  0
    8.1399   -9.3493  -15.9638 H   0  0  0  0  0  0  0  0  0  0  0  0
    9.3346   -9.0080  -17.2611 H   0  0  0  0  0  0  0  0  0  0  0  0
    6.3572   -8.4134  -17.3723 H   0  0  0  0  0  0  0  0  0  0  0  0
    7.5436   -8.0413  -18.6687 H   0  0  0  0  0  0  0  0  0  0  0  0
    3.5759    3.3421  -20.7346 H   0  0  0  0  0  0  0  0  0  0  0  0
    3.0924    3.5687  -17.1138 H   0  0  0  0  0  0  0  0  0  0  0  0
    2.2226    3.5804  -18.6116 H   0  0  0  0  0  0  0  0  0  0  0  0
  1  2  3  0  0  0  0
  1  9  1  0  0  0  0
  2 22  1  0  0  0  0
  3  4  2  0  0  0  0
  3 10  1  0  0  0  0
  4 13  1  0  0  0  0
  5  9  1  0  0  0  0
  5 11  2  0  0  0  0
  6 10  2  0  0  0  0
  6 12  1  0  0  0  0
  7  9  2  0  0  0  0
  7 23  1  0  0  0  0
  8 11  1  0  0  0  0
  8 23  2  0  0  0  0
 10 11  1  0  0  0  0
 12 13  2  0  0  0  0
 12 19  1  0  0  0  0
 13 26  1  0  0  0  0
 14 24  2  0  0  0  0
 14 25  1  0  0  0  0
 14 27  1  0  0  0  0
 15 19  1  0  0  0  0
 15 27  1  0  0  0  0
 16 20  1  0  0  0  0
 16 26  1  0  0  0  0
 17 20  1  0  0  0  0
 17 28  1  0  0  0  0
 18 20  1  0  0  0  0
 18 28  1  0  0  0  0
 19 20  1  0  0  0  0
 19 24  1  0  0  0  0
 21 29  1  0  0  0  0
 22 29  1  0  0  0  0
  3 30  1  0  0  0  0
  4 31  1  0  0  0  0
  5 32  1  0  0  0  0
  6 33  1  0  0  0  0
  7 34  1  0  0  0  0
  8 35  1  0  0  0  0
 15 36  1  0  0  0  0
 15 37  1  0  0  0  0
 16 38  1  0  0  0  0
 16 39  1  0  0  0  0
 17 40  1  0  0  0  0
 17 41  1  0  0  0  0
 18 42  1  0  0  0  0
 18 43  1  0  0  0  0
 21 44  1  0  0  0  0
 21 45  1  0  0  0  0
 21 46  1  0  0  0  0
 22 47  1  0  0  0  0
 22 48  1  0  0  0  0
 24 49  1  0  0  0  0
 25 50  1  0  0  0  0
 25 51  1  0  0  0  0
M  CHG  1  24   1
M  END
> <OMEGA_C>
mpi5QKkFrMCL5JHBSRDMQHRzzcBoNpDBjJS/QBY/qr9Kk63BkHPOQEHzq75nmLTBzIyzQLwLTsCp
DJvBoxmqQLmSxz4M3qDBYC9+QI+jdcDwjY3BRN9yQAQ537/ewZXBoOOjQO+lhMAsmJPB6Y6tQGru
d79Eo6PB5QmeQDj4/r85IpzBbR25QICNsj8ez6fBt4XMQJHrgj9krbHBCL+IQAC8VEB1bJbB34TQ
QIfmQ0CQ+pnBQUvsQAQyTEAYlrPBxGKiQAvNh0CTvrXBq+vIQJZNqkBfIKvBrsG2QHraNkD3P6TB
3w7GQGiscUAJlq3B9T4NQW6KCcGNAYPBDVHiQOpW9cDK+43BIB9VQIUVKsBvto7B1w2LQElcTUBx
4aDBRn5FQFKFYEBB5ZDBWADfQKZf+T9zhLjB2q2wQM59TUDcxZHBZC2oQBweskAFeLLB+1cBQVV2
7cAwA4bBCvLBQMHFF8B+ya/BI3PbQJ6eHb8QSLzBdWrPQAZeXMAT1p/B78CbQNxwKj/OUpnB/B1m
QBf0kcBn4ofBoPBRQImsTL+Bi5bBUfTkQCwNDEB9XZjBzYDkQLGsfUC1jJrBpQb3QPNaeUD3x7nB
fFMDQXD5P0Ab9a3BOHGqQKb6gUCxL77BzVmCQJfNdUCcCrTBz8vAQMXWskCR1aLBIcLnQCTnuEBU
Sq3BIDsZQWVFBcHl2XnB6DwCQZaWFcHLa3/BbloVQaQgEMGqForB7G3LQE6dBsFv+orB12TxQDup
AMF9WZXBVttkQOXkVUBv4KXBuulFQJplZEAP6YjBdj8OQLolZUCH5JTB

> <OMEGA_E>
8p0sPw==

> <OMEGA_NBR>
      9771

$$$$
288427
  -OEChem-04172616093D

 42 46  0     1  0  0  0  0  0999 V2000
    5.9279   -1.3249  -21.7895 C   0  0  0  0  0  0  0  0  0  0  0  0
    6.3776   -0.3061  -22.6431 C   0  0  0  0  0  0  0  0  0  0  0  0
    5.3440    0.3362  -20.1067 C   0  0  0  0  0  0  0  0  0  0  0  0
    3.9144   -1.9430  -18.7524 C   0  0  0  0  0  0  0  0  0  0  0  0
    4.3369   -4.1470  -17.8286 C   0  0  0  0  0  0  0  0  0  0  0  0
    5.4524   -1.0172  -20.4964 C   0  0  0  0  0  0  0  0  0  0  0  0
    5.0578   -2.0997  -19.5617 C   0  0  0  0  0  0  0  0  0  0  0  0
    5.7838    1.3715  -20.9660 C   0  0  0  0  0  0  0  0  0  0  0  0
    6.3640    1.0343  -22.2220 C   0  0  0  0  0  0  0  0  0  0  0  0
    3.5484   -2.9818  -17.8845 C   0  0  0  0  0  0  0  0  0  0  0  0
    5.8116   -3.3030  -19.4488 C   0  0  0  0  0  0  0  0  0  0  0  0
    4.2590    3.3573  -18.7973 C   0  0  0  0  0  0  0  0  0  0  0  0
    6.4978    3.0375  -19.2225 C   0  0  0  0  0  0  0  0  0  0  0  0
    7.3764    3.2011  -22.4083 C   0  0  0  0  0  0  0  0  0  0  0  0
    5.0611    4.2292  -22.6921 C   0  0  0  0  0  0  0  0  0  0  0  0
    6.2380    5.3164  -21.3480 C   0  0  0  0  0  0  0  0  0  0  0  0
    5.6976    2.8317  -20.5078 C   0  0  1  0  0  0  0  0  0  0  0  0
    6.1729    3.7705  -21.6640 C   0  0  0  0  0  0  0  0  0  0  0  0
    5.4418   -4.2885  -18.5962 N   0  0  0  0  0  0  0  0  0  0  0  0
    4.3275    3.1678  -20.0951 N   0  3  0  0  0  0  0  0  0  0  0  0
    3.0800    3.6207  -18.1186 N   0  0  0  0  0  0  0  0  0  0  0  0
    6.9561    1.9748  -23.0524 O   0  0  0  0  0  0  0  0  0  0  0  0
    5.5024    3.2443  -18.2089 O   0  0  0  0  0  0  0  0  0  0  0  0
    5.2115    5.5496  -22.2660 O   0  0  0  0  0  0  0  0  0  0  0  0
    6.9546   -3.4778  -20.1543 F   0  0  0  0  0  0  0  0  0  0  0  0
    2.1191   -2.8381  -16.8944 Cl  0  0  0  0  0  0  0  0  0  0  0  0
    5.9458   -2.3516  -22.1241 H   0  0  0  0  0  0  0  0  0  0  0  0
    6.7367   -0.5540  -23.6310 H   0  0  0  0  0  0  0  0  0  0  0  0
    4.9215    0.5835  -19.1440 H   0  0  0  0  0  0  0  0  0  0  0  0
    3.3291   -1.0366  -18.8000 H   0  0  0  0  0  0  0  0  0  0  0  0
    4.0534   -4.9451  -17.1584 H   0  0  0  0  0  0  0  0  0  0  0  0
    7.1048    2.1486  -18.9959 H   0  0  0  0  0  0  0  0  0  0  0  0
    7.1531    3.9167  -19.3091 H   0  0  0  0  0  0  0  0  0  0  0  0
    7.7244    3.9208  -23.1638 H   0  0  0  0  0  0  0  0  0  0  0  0
    8.1906    2.9916  -21.6990 H   0  0  0  0  0  0  0  0  0  0  0  0
    5.3287    4.0643  -23.7462 H   0  0  0  0  0  0  0  0  0  0  0  0
    4.0654    3.8047  -22.4959 H   0  0  0  0  0  0  0  0  0  0  0  0
    5.9789    5.5735  -20.3103 H   0  0  0  0  0  0  0  0  0  0  0  0
    7.1947    5.7890  -21.6149 H   0  0  0  0  0  0  0  0  0  0  0  0
    3.5503    3.2424  -20.7199 H   0  0  0  0  0  0  0  0  0  0  0  0
    3.0912    3.7445  -17.1263 H   0  0  0  0  0  0  0  0  0  0  0  0
    2.2179    3.6871  -18.6210 H   0  0  0  0  0  0  0  0  0  0  0  0
  1  2  1  0  0  0  0
  1  6  2  0  0  0  0
  2  9  2  0  0  0  0
  3  6  1  0  0  0  0
  3  8  2  0  0  0  0
  4  7  1  0  0  0  0
  4 10  2  0  0  0  0
  5 10  1  0  0  0  0
  5 19  2  0  0  0  0
  6  7  1  0  0  0  0
  7 11  2  0  0  0  0
  8  9  1  0  0  0  0
  8 17  1  0  0  0  0
  9 22  1  0  0  0  0
 10 26  1  0  0  0  0
 11 19  1  0  0  0  0
 11 25  1  0  0  0  0
 12 20  2  0  0  0  0
 12 21  1  0  0  0  0
 12 23  1  0  0  0  0
 13 17  1  0  0  0  0
 13 23  1  0  0  0  0
 14 18  1  0  0  0  0
 14 22  1  0  0  0  0
 15 18  1  0  0  0  0
 15 24  1  0  0  0  0
 16 18  1  0  0  0  0
 16 24  1  0  0  0  0
 17 18  1  0  0  0  0
 17 20  1  0  0  0  0
  1 27  1  0  0  0  0
  2 28  1  0  0  0  0
  3 29  1  0  0  0  0
  4 30  1  0  0  0  0
  5 31  1  0  0  0  0
 13 32  1  0  0  0  0
 13 33  1  0  0  0  0
 14 34  1  0  0  0  0
 14 35  1  0  0  0  0
 15 36  1  0  0  0  0
 15 37  1  0  0  0  0
 16 38  1  0  0  0  0
 16 39  1  0  0  0  0
 20 40  1  0  0  0  0
 21 41  1  0  0  0  0
 21 42  1  0  0  0  0
M  CHG  1  20   1
M  END
> <OMEGA_C>
w7G9QKaVqb/4UK7BFRXMQCq1nL4YJbXBzwGrQBonrD6C2qDB9oR6QDiz+L/iBJbBmseKQKG0hMD+
oI7BrXmuQAAygr+b+KPBotmhQNxhBsBFfpzBJxW5QKqMrz9iuqfBmaXLQMBihD+qxrHBmRljQEvW
PsCOE4/B3Pi5QLtjU8AVl5vBVUmIQFDdVkD2YJbBqO3PQCtmQkDHx5nBmQvsQD3eTEAmRLPBLvSh
QNVVh0BuibXBoZ3HQMMfqkCgyKrBeFK2QE46NUD6D6TBLYjFQJZPcUDtT63B2yKuQL47icD+xJTB
FHuKQHu9SkDLwqDBhB5FQD26Z0Dc8pDBdZjeQNrF/D9Ta7jBqROwQN+iT0DLq5HBs8SmQJqWsUDC
ILLBeYzeQOCUXsAXPKHBFKAHQAijNcDCJ4fBJES+QJuAFsAj/rDBTZPXQETRDb9RDL3B8XydQINe
FT/lJpnBOg9VQKWuhL9wZpbBZ7WBQEI+nsBwRInBJVrjQC+CCUCD95fBlObkQNaqekAMeZrBqi73
QGnuekCDT7nB5wwDQbB1P0B4l63BuYSqQMUOgkBE+L3B4xeCQOmAc0CG97PBbFO/QDZaskB3e6LB
HDvmQM4/uUBf66zBczhjQIODT0BpwqXB/9ZFQF6mb0C+AonBJ/INQIH5a0DI95TB

> <OMEGA_E>
jHvFPg==

> <OMEGA_NBR>
     20708

$$$$
288429
  -OEChem-04172616093D

 41 45  0     1  0  0  0  0  0999 V2000
    5.9610   -1.3365  -21.7350 C   0  0  0  0  0  0  0  0  0  0  0  0
    6.4097   -0.3278  -22.6011 C   0  0  0  0  0  0  0  0  0  0  0  0
    5.3119    0.3490  -20.0990 C   0  0  0  0  0  0  0  0  0  0  0  0
    5.7849   -3.2957  -19.4908 C   0  0  0  0  0  0  0  0  0  0  0  0
    3.9701   -1.9415  -18.6428 C   0  0  0  0  0  0  0  0  0  0  0  0
    4.3537   -4.1012  -17.8313 C   0  0  0  0  0  0  0  0  0  0  0  0
    5.4397   -1.0082  -20.4653 C   0  0  0  0  0  0  0  0  0  0  0  0
    5.0616   -2.0842  -19.5244 C   0  0  0  0  0  0  0  0  0  0  0  0
    5.7706    1.3731  -20.9627 C   0  0  0  0  0  0  0  0  0  0  0  0
    6.3731    1.0201  -22.2046 C   0  0  0  0  0  0  0  0  0  0  0  0
    4.2620    3.3587  -18.8010 C   0  0  0  0  0  0  0  0  0  0  0  0
    6.5001    3.0465  -19.2337 C   0  0  0  0  0  0  0  0  0  0  0  0
    7.3827    3.1880  -22.4109 C   0  0  0  0  0  0  0  0  0  0  0  0
    5.0676    4.2129  -22.7149 C   0  0  0  0  0  0  0  0  0  0  0  0
    6.2381    5.3125  -21.3748 C   0  0  0  0  0  0  0  0  0  0  0  0
    5.6950    2.8373  -20.5155 C   0  0  1  0  0  0  0  0  0  0  0  0
    6.1750    3.7639  -21.6784 C   0  0  0  0  0  0  0  0  0  0  0  0
    5.4248   -4.2809  -18.6426 N   0  0  0  0  0  0  0  0  0  0  0  0
    3.6279   -2.9550  -17.8178 N   0  0  0  0  0  0  0  0  0  0  0  0
    4.3293    3.1875  -20.1016 N   0  3  0  0  0  0  0  0  0  0  0  0
    3.0805    3.5926  -18.1158 N   0  0  0  0  0  0  0  0  0  0  0  0
    6.9707    1.9516  -23.0417 O   0  0  0  0  0  0  0  0  0  0  0  0
    5.5084    3.2537  -18.2168 O   0  0  0  0  0  0  0  0  0  0  0  0
    5.2170    5.5375  -22.3009 O   0  0  0  0  0  0  0  0  0  0  0  0
    6.0149   -2.3706  -22.0419 H   0  0  0  0  0  0  0  0  0  0  0  0
    6.7858   -0.5890  -23.5792 H   0  0  0  0  0  0  0  0  0  0  0  0
    4.8607    0.6083  -19.1527 H   0  0  0  0  0  0  0  0  0  0  0  0
    6.6310   -3.4347  -20.1475 H   0  0  0  0  0  0  0  0  0  0  0  0
    3.4068   -1.0201  -18.6273 H   0  0  0  0  0  0  0  0  0  0  0  0
    4.0663   -4.9037  -17.1682 H   0  0  0  0  0  0  0  0  0  0  0  0
    7.1092    2.1588  -19.0078 H   0  0  0  0  0  0  0  0  0  0  0  0
    7.1540    3.9264  -19.3244 H   0  0  0  0  0  0  0  0  0  0  0  0
    7.7314    3.8992  -23.1742 H   0  0  0  0  0  0  0  0  0  0  0  0
    8.1947    2.9904  -21.6956 H   0  0  0  0  0  0  0  0  0  0  0  0
    5.3393    4.0376  -23.7663 H   0  0  0  0  0  0  0  0  0  0  0  0
    4.0711    3.7906  -22.5184 H   0  0  0  0  0  0  0  0  0  0  0  0
    5.9729    5.5783  -20.3409 H   0  0  0  0  0  0  0  0  0  0  0  0
    7.1963    5.7831  -21.6400 H   0  0  0  0  0  0  0  0  0  0  0  0
    3.5545    3.2827  -20.7265 H   0  0  0  0  0  0  0  0  0  0  0  0
    3.0917    3.6989  -17.1216 H   0  0  0  0  0  0  0  0  0  0  0  0
    2.2166    3.6550  -18.6157 H   0  0  0  0  0  0  0  0  0  0  0  0
  1  2  1  0  0  0  0
  1  7  2  0  0  0  0
  2 10  2  0  0  0  0
  3  7  1  0  0  0  0
  3  9  2  0  0  0  0
  4  8  1  0  0  0  0
  4 18  2  0  0  0  0
  5  8  2  0  0  0  0
  5 19  1  0  0  0  0
  6 18  1  0  0  0  0
  6 19  2  0  0  0  0
  7  8  1  0  0  0  0
  9 10  1  0  0  0  0
  9 16  1  0  0  0  0
 10 22  1  0  0  0  0
 11 20  2  0  0  0  0
 11 21  1  0  0  0  0
 11 23  1  0  0  0  0
 12 16  1  0  0  0  0
 12 23  1  0  0  0  0
 13 17  1  0  0  0  0
 13 22  1  0  0  0  0
 14 17  1  0  0  0  0
 14 24  1  0  0  0  0
 15 17  1  0  0  0  0
 15 24  1  0  0  0  0
 16 17  1  0  0  0  0
 16 20  1  0  0  0  0
  1 25  1  0  0  0  0
  2 26  1  0  0  0  0
  3 27  1  0  0  0  0
  4 28  1  0  0  0  0
  5 29  1  0  0  0  0
  6 30  1  0  0  0  0
 12 31  1  0  0  0  0
 12 32  1  0  0  0  0
 13 33  1  0  0  0  0
 13 34  1  0  0  0  0
 14 35  1  0  0  0  0
 14 36  1  0  0  0  0
 15 37  1  0  0  0  0
 15 38  1  0  0  0  0
 20 39  1  0  0  0  0
 21 40  1  0  0  0  0
 21 41  1  0  0  0  0
M  CHG  1  20   1
M  END
> <OMEGA_C>
ZcC+QMATq78x4a3BVxzNQBjXp74Az7TB//qpQD6usj7HyqDB1B25QJ7sUsAi7ZvB5hZ+QA6C+L9+
JJXBf1GLQCg9g8B5po7B8BGuQFMOgb/XuKPB7fihQA9kBcD5MZzBHKm4QAnDrz+Es6fBIfDLQAGS
gj/vorHBhGKIQHr0VkByaJbB6wDQQIP5QkCi3pnBXj/sQNQHTECHSbPB0ymiQNLPhkAnuLXB3p7H
QOL/qUCL/6rBTj22QFCWNUDGH6TBe5nFQCLkcEBgba3Bt5etQD79iMAfJJXBwS5oQA4ePcDNio7B
gomKQEP/S0D6z6DBdyZFQMXsZUA97ZDB2Q/fQPrN+T9mVbjBF0WwQNA8UED9u5HBgfGmQIIzsUBK
aLLB/3nAQMm3F8DdVbDBriXZQAXJFr8rorzBsYqbQHW8Gz+xOJnBBDHUQJ7RW8D9LaHByglaQOKT
gr+cBJXBuR6CQGzrnMBmWInBjX7jQLcpCkD7D5jBLu3kQD9Ke0BQmJrBimf3QKaMeUC3ZLnBsh0D
QU1jP0CokK3BMtuqQGM0gUB6Ib7BFkaCQNyZckC6JbTB9SG/QESBskARuqLBa0jmQEgPuUDOHq3B
sHxjQJoXUkD2z6XBId5FQCW7bED7+IjBxdwNQPTraUDg7JTB

> <OMEGA_E>
YHLkPg==

> <OMEGA_NBR>
     21696

$$$$
288449
  -OEChem-04172616093D

 47 51  0     1  0  0  0  0  0999 V2000
    6.0703   -1.2984  -21.6472 C   0  0  0  0  0  0  0  0  0  0  0  0
    6.4147   -0.2560  -22.5167 C   0  0  0  0  0  0  0  0  0  0  0  0
    5.2509    0.3258  -20.0255 C   0  0  0  0  0  0  0  0  0  0  0  0
    3.9264   -2.0767  -18.7733 C   0  0  0  0  0  0  0  0  0  0  0  0
    5.9386   -3.2800  -19.4135 C   0  0  0  0  0  0  0  0  0  0  0  0
    4.4157   -4.3174  -17.9696 C   0  0  0  0  0  0  0  0  0  0  0  0
    5.4968   -1.0138  -20.3938 C   0  0  0  0  0  0  0  0  0  0  0  0
    5.1290   -2.1216  -19.4979 C   0  0  0  0  0  0  0  0  0  0  0  0
    5.6169    1.3926  -20.8859 C   0  0  0  0  0  0  0  0  0  0  0  0
    3.5470   -3.2064  -18.0340 C   0  0  0  0  0  0  0  0  0  0  0  0
    6.2258    1.0840  -22.1372 C   0  0  0  0  0  0  0  0  0  0  0  0
    5.5960    2.9107  -18.1621 C   0  0  0  0  0  0  0  0  0  0  0  0
    5.0211    4.7477  -22.2737 C   0  0  0  0  0  0  0  0  0  0  0  0
    6.0221    5.3228  -21.2284 C   0  0  0  0  0  0  0  0  0  0  0  0
    4.0843    3.1652  -19.8471 C   0  0  0  0  0  0  0  0  0  0  0  0
    7.1172    3.2794  -22.3979 C   0  0  0  0  0  0  0  0  0  0  0  0
    5.4741    2.8570  -20.4199 C   0  0  2  0  0  0  0  0  0  0  0  0
    5.9892    3.8232  -21.5299 C   0  0  0  0  0  0  0  0  0  0  0  0
    2.4800   -2.8269  -15.8197 C   0  0  0  0  0  0  0  0  0  0  0  0
    2.2389   -3.2169  -17.2823 C   0  0  0  0  0  0  0  0  0  0  0  0
    5.5843   -4.3394  -18.6504 N   0  0  0  0  0  0  0  0  0  0  0  0
    6.3183    3.0688  -19.2486 N   0  3  0  0  0  0  0  0  0  0  0  0
    6.1420    2.6198  -16.9278 N   0  0  0  0  0  0  0  0  0  0  0  0
    6.6746    2.0564  -23.0123 O   0  0  0  0  0  0  0  0  0  0  0  0
    4.2440    2.9579  -18.4431 O   0  0  0  0  0  0  0  0  0  0  0  0
    6.2452   -2.3233  -21.9392 H   0  0  0  0  0  0  0  0  0  0  0  0
    6.8293   -0.4839  -23.4875 H   0  0  0  0  0  0  0  0  0  0  0  0
    4.7790    0.5413  -19.0783 H   0  0  0  0  0  0  0  0  0  0  0  0
    3.3076   -1.1916  -18.7853 H   0  0  0  0  0  0  0  0  0  0  0  0
    6.8620   -3.3189  -19.9723 H   0  0  0  0  0  0  0  0  0  0  0  0
    4.1412   -5.1681  -17.3636 H   0  0  0  0  0  0  0  0  0  0  0  0
    3.9450    4.7164  -22.0480 H   0  0  0  0  0  0  0  0  0  0  0  0
    5.1652    4.9505  -23.3452 H   0  0  0  0  0  0  0  0  0  0  0  0
    6.8751    5.9333  -21.5596 H   0  0  0  0  0  0  0  0  0  0  0  0
    5.6548    5.6992  -20.2623 H   0  0  0  0  0  0  0  0  0  0  0  0
    3.7939    4.2046  -20.0598 H   0  0  0  0  0  0  0  0  0  0  0  0
    3.3287    2.4813  -20.2612 H   0  0  0  0  0  0  0  0  0  0  0  0
    7.3730    4.0136  -23.1760 H   0  0  0  0  0  0  0  0  0  0  0  0
    8.0021    3.0820  -21.7749 H   0  0  0  0  0  0  0  0  0  0  0  0
    1.5244   -2.8357  -15.2749 H   0  0  0  0  0  0  0  0  0  0  0  0
    3.1719   -3.5466  -15.3577 H   0  0  0  0  0  0  0  0  0  0  0  0
    2.9173   -1.8185  -15.7765 H   0  0  0  0  0  0  0  0  0  0  0  0
    1.5465   -2.4971  -17.7432 H   0  0  0  0  0  0  0  0  0  0  0  0
    1.8011   -4.2252  -17.3244 H   0  0  0  0  0  0  0  0  0  0  0  0
    7.2915    3.2978  -19.2693 H   0  0  0  0  0  0  0  0  0  0  0  0
    5.5444    2.4220  -16.1507 H   0  0  0  0  0  0  0  0  0  0  0  0
    7.1351    2.6068  -16.8108 H   0  0  0  0  0  0  0  0  0  0  0  0
  1  2  2  0  0  0  0
  1  7  1  0  0  0  0
  2 11  1  0  0  0  0
  3  7  2  0  0  0  0
  3  9  1  0  0  0  0
  4  8  2  0  0  0  0
  4 10  1  0  0  0  0
  5  8  1  0  0  0  0
  5 21  2  0  0  0  0
  6 10  2  0  0  0  0
  6 21  1  0  0  0  0
  7  8  1  0  0  0  0
  9 11  2  0  0  0  0
  9 17  1  0  0  0  0
 10 20  1  0  0  0  0
 11 24  1  0  0  0  0
 12 22  2  0  0  0  0
 12 23  1  0  0  0  0
 12 25  1  0  0  0  0
 13 14  1  0  0  0  0
 13 18  1  0  0  0  0
 14 18  1  0  0  0  0
 15 17  1  0  0  0  0
 15 25  1  0  0  0  0
 16 18  1  0  0  0  0
 16 24  1  0  0  0  0
 17 18  1  0  0  0  0
 17 22  1  0  0  0  0
 19 20  1  0  0  0  0
  1 26  1  0  0  0  0
  2 27  1  0  0  0  0
  3 28  1  0  0  0  0
  4 29  1  0  0  0  0
  5 30  1  0  0  0  0
  6 31  1  0  0  0  0
 13 32  1  0  0  0  0
 13 33  1  0  0  0  0
 14 34  1  0  0  0  0
 14 35  1  0  0  0  0
 15 36  1  0  0  0  0
 15 37  1  0  0  0  0
 16 38  1  0  0  0  0
 16 39  1  0  0  0  0
 19 40  1  0  0  0  0
 19 41  1  0  0  0  0
 19 42  1  0  0  0  0
 20 43  1  0  0  0  0
 20 44  1  0  0  0  0
 22 45  1  0  0  0  0
 23 46  1  0  0  0  0
 23 47  1  0  0  0  0
M  CHG  1  22   1
M  END
> <OMEGA_C>
4j/CQK0wpr9qLa3BcEXNQEUSg74aIrTBpAeoQF3Ppj5KNKDBJkp7QF3oBMC1L5bBSAm+QFrrUcDt
TpvBKU2NQNInisDFwY/BouWvQHTDgb+aJqPBFSGkQKzHB8Cz+5vBQb2zQIRAsj87FqfBaAJjQPk1
TcCpRZDBkjnHQKfAij/oGLHBhRKzQABJOkD7S5HB2KygQGPtl0CUMLLBwrTAQBBUqkDa06nBjrKC
QBaSSkDfxp7BJsDjQJDhUUDYLrPB+iuvQKXYNkDnW6PB26e/QJ6udEAsPazBrrgeQPTrNMBOHX3B
WEkPQHDiTcAbQorBU7KyQF/cisACNJXBRi/KQMhmREAT/ZnBbovEQFaqJ0ASbIfBSpbVQOybA0BA
GbjBPM+HQPhNPUBni5PBANnHQC+xFMBvg6/BaInaQEe+97575rvBxO2YQJGUCj9boJjBVq9TQGmH
mL88SJbB3ZXbQPFoVMA9x5/BmoSEQG5hpcCy6IrBZXp8QMrslkA6YrDBaEmlQBhqnkAIw7rBtADc
QErdvUD/eazBfvS0QP1ftkAxGaLBe89yQDaMhkBleqDBFgpVQD/OHkAJF6LBY+/rQMhvgEBqaLnB
ZwgAQUJARUD8Mq7BtB/DP4B7NcAiZnTB5P9KQBr7YsASuXXBdLQ6QC/D6L+9bHzB4PPFP3HQH8Ah
8o3Bv4rmP/o0h8BMmIrBzVPpQHUOU0CTJ5rB72uxQGICG0C3NIHBhFLkQPLVJkCLfIbB5AfFQBTS
pr9emq3Bh5HPQJDIdb5ZdLTBNSOtQEy0lD5GMKDBzKe6QLS/VsCIU5zB6W2BQDqY+b90hpXBCZ+I
QDu0g8Acu47BeUqzQOC3hL8lc6PBDy6lQDsBCMDIXpzBkO+2QJlqrz+JAafB5QesQJuhi8BldJXB
DwnJQF0djD+SO7HBU2azQAhmM0AgMJHBMrWYQPJ6k0AcEbLBY6C3QIHAqUA6CKrBaryBQFxfP0Bu
bp7BiejfQIS3VkBSfbPBALOuQAwWNECSNKPBUU+7QIaZc0CBP6zBtlvtQHRjrcCJD47BE4XEQCr3
tMCYo5TBMslnQM6GO8AX547BBDXJQKTARkD825nB4pvGQCKiGkAfu4fB26HUQDAIBkD7ULjBkvSH
QEzHL0BrQ5PBNIDKQP6oFMCmGrDBJMzcQEQB5b4pQ7zB4aKgQIKf+j7pSpjBsuHVQCJ2YcAOeqHB
HyFhQFHwgL/dm5XBK797QB95nMB6VonB+phtQN8Dj0Bn/K/BrpabQHTCmUAYsrrB1mXQQGjTv0CE
+KzBppurQNMUtUDTQqLBJ35rQLhRgEAtz5/B0mtWQI7YEECw4aHBmkblQDJng0BdxrnB1EL9QDcZ
T0ALuq7BHnT/QHx5y8BHbY3BkpsAQRgQlcCDCZLBW6XkQOowosDUAYbByZiwQLNBzcCEq5DBkSrN
QOAgwMA0s5zBPPTmQL9NXkAdB5rBHsi0QCD3A0DRuIHBMFjmQMReH0CC5IbB

> <OMEGA_E>
qG8+P6BFYz8=

> <OMEGA_NBR>
     23592

$$$$
288461
  -OEChem-04172616093D

 44 48  0     1  0  0  0  0  0999 V2000
    6.0322   -1.3280  -21.7497 C   0  0  0  0  0  0  0  0  0  0  0  0
    6.3817   -0.2823  -22.6241 C   0  0  0  0  0  0  0  0  0  0  0  0
    5.5186    0.3031  -20.0190 C   0  0  0  0  0  0  0  0  0  0  0  0
    5.8577   -3.3432  -19.4990 C   0  0  0  0  0  0  0  0  0  0  0  0
    4.0919   -1.9370  -18.6308 C   0  0  0  0  0  0  0  0  0  0  0  0
    4.4442   -4.0884  -17.7927 C   0  0  0  0  0  0  0  0  0  0  0  0
    5.5768   -1.0360  -20.4464 C   0  0  0  0  0  0  0  0  0  0  0  0
    5.1694   -2.1144  -19.5253 C   0  0  0  0  0  0  0  0  0  0  0  0
    5.9017    1.3588  -20.8764 C   0  0  0  0  0  0  0  0  0  0  0  0
    6.2923    1.0616  -22.2066 C   0  0  0  0  0  0  0  0  0  0  0  0
    4.1923    3.3350  -18.7855 C   0  0  0  0  0  0  0  0  0  0  0  0
    6.4399    3.0036  -19.0103 C   0  0  0  0  0  0  0  0  0  0  0  0
    5.5869    5.3102  -21.1877 C   0  0  0  0  0  0  0  0  0  0  0  0
    7.5482    4.6189  -21.3051 C   0  0  0  0  0  0  0  0  0  0  0  0
    5.9060    3.3131  -22.9352 C   0  0  1  0  0  0  0  0  0  0  0  0
    5.7579    2.7987  -20.3819 C   0  0  1  0  0  0  0  0  0  0  0  0
    6.1636    3.8530  -21.4921 C   0  0  0  0  0  0  0  0  0  0  0  0
    6.3750    4.2405  -24.0835 C   0  0  0  0  0  0  0  0  0  0  0  0
    5.4902   -4.3074  -18.6287 N   0  0  0  0  0  0  0  0  0  0  0  0
    3.7416   -2.9284  -17.7847 N   0  0  0  0  0  0  0  0  0  0  0  0
    4.3399    2.9970  -20.0481 N   0  3  0  0  0  0  0  0  0  0  0  0
    2.9923    3.7221  -18.2176 N   0  0  0  0  0  0  0  0  0  0  0  0
    6.5846    2.0483  -23.1255 O   0  0  0  0  0  0  0  0  0  0  0  0
    5.3803    3.2647  -18.1001 O   0  0  0  0  0  0  0  0  0  0  0  0
    6.8633    5.7556  -20.8646 O   0  0  0  0  0  0  0  0  0  0  0  0
    6.1126   -2.3544  -22.0761 H   0  0  0  0  0  0  0  0  0  0  0  0
    6.7213   -0.5110  -23.6234 H   0  0  0  0  0  0  0  0  0  0  0  0
    5.1757    0.5277  -19.0198 H   0  0  0  0  0  0  0  0  0  0  0  0
    6.6810   -3.5143  -20.1766 H   0  0  0  0  0  0  0  0  0  0  0  0
    3.5461   -1.0051  -18.6235 H   0  0  0  0  0  0  0  0  0  0  0  0
    4.1591   -4.8707  -17.1048 H   0  0  0  0  0  0  0  0  0  0  0  0
    6.9884    2.0974  -18.7135 H   0  0  0  0  0  0  0  0  0  0  0  0
    7.1339    3.8562  -19.0486 H   0  0  0  0  0  0  0  0  0  0  0  0
    5.1465    5.8096  -22.0633 H   0  0  0  0  0  0  0  0  0  0  0  0
    4.8751    5.3442  -20.3497 H   0  0  0  0  0  0  0  0  0  0  0  0
    8.2094    4.1720  -20.5480 H   0  0  0  0  0  0  0  0  0  0  0  0
    8.1087    4.7670  -22.2399 H   0  0  0  0  0  0  0  0  0  0  0  0
    4.8222    3.1609  -23.0464 H   0  0  0  0  0  0  0  0  0  0  0  0
    6.1483    3.7698  -25.0515 H   0  0  0  0  0  0  0  0  0  0  0  0
    5.8506    5.2049  -24.0132 H   0  0  0  0  0  0  0  0  0  0  0  0
    7.4594    4.4059  -24.0014 H   0  0  0  0  0  0  0  0  0  0  0  0
    3.5862    2.8891  -20.6963 H   0  0  0  0  0  0  0  0  0  0  0  0
    2.9547    3.9723  -17.2502 H   0  0  0  0  0  0  0  0  0  0  0  0
    2.1622    3.7518  -18.7744 H   0  0  0  0  0  0  0  0  0  0  0  0
  1  2  2  0  0  0  0
  1  7  1  0  0  0  0
  2 10  1  0  0  0  0
  3  7  2  0  0  0  0
  3  9  1  0  0  0  0
  4  8  1  0  0  0  0
  4 19  2  0  0  0  0
  5  8  2  0  0  0  0
  5 20  1  0  0  0  0
  6 19  1  0  0  0  0
  6 20  2  0  0  0  0
  7  8  1  0  0  0  0
  9 10  2  0  0  0  0
  9 16  1  0  0  0  0
 10 23  1  0  0  0  0
 11 21  2  0  0  0  0
 11 22  1  0  0  0  0
 11 24  1  0  0  0  0
 12 16  1  0  0  0  0
 12 24  1  0  0  0  0
 13 17  1  0  0  0  0
 13 25  1  0  0  0  0
 14 17  1  0  0  0  0
 14 25  1  0  0  0  0
 15 17  1  0  0  0  0
 15 18  1  0  0  0  0
 15 23  1  0  0  0  0
 16 17  1  0  0  0  0
 16 21  1  0  0  0  0
  1 26  1  0  0  0  0
  2 27  1  0  0  0  0
  3 28  1  0  0  0  0
  4 29  1  0  0  0  0
  5 30  1  0  0  0  0
  6 31  1  0  0  0  0
 12 32  1  0  0  0  0
 12 33  1  0  0  0  0
 13 34  1  0  0  0  0
 13 35  1  0  0  0  0
 14 36  1  0  0  0  0
 14 37  1  0  0  0  0
 15 38  1  0  0  0  0
 18 39  1  0  0  0  0
 18 40  1  0  0  0  0
 18 41  1  0  0  0  0
 21 42  1  0  0  0  0
 22 43  1  0  0  0  0
 22 44  1  0  0  0  0
M  CHG  1  21   1
M  END
> <OMEGA_C>
LgjBQJf8qb9W/63BFjfMQByNkL4W/rTBGpiwQHgvmz7cJqDB5nG7QHb3VcD+/ZvBffCCQF/w97/s
C5XBwzaOQFzUgsByV47BD3WyQOmbhL80kqPBh2ulQIRRB8DMM5zBY9q8QAztrT/0AqfBplrJQLjh
hz8ip7HBOyeGQBZxVUC6SJbBuxPOQJ46QEAqFZjBmseyQGntqUBogKnBBYvxQLXNk0DkcKrByP28
QMAJVEBCe7fBVEC4QIIdM0AmDqPBGTzFQPCXdkDQ76vB3//LQEeyh0Aaq8DBbK+vQA7WicB6B5XB
FnZvQBBrO8AmR47B2uCKQITPP0CaYqDBHYI/QJw2bkCsvZHBL7XSQEoXA0AaAbnBDiusQC7wUEDo
zJDBAaDbQA0uuECy6qbBtZrDQLOtFsDzm7DBJRXXQDjTAr/R/LzBJZ+lQIYWBz+DKJjBFMvVQFXq
YMDCaaHBsfJiQI6ngL/0/JTBnheFQIfcm8CV1ojB3qDfQHo8BkBTtZXBnkjkQOzLdkCVY5jB/a+k
QCvouUCrgbDBzgCcQOkDq0AyzKLBn1kDQe6AhUBjYqTBab0BQUyLmEBh67HB20+aQOZLSkDtXrjB
nL7EQABEcUCMacjBMTi7QLWOpkAKG8DBMLPuQEX9jEDyAsDBmYNlQGPnOEAakqXBnhk9QGY6fkBT
AIrBRGEKQK4ccED1MZbB

> <OMEGA_E>
CM3aPg==

> <OMEGA_NBR>
     24636

$$$$
288463
  -OEChem-04172616093D

 44 48  0     1  0  0  0  0  0999 V2000
    6.1765   -1.3508  -21.7331 C   0  0  0  0  0  0  0  0  0  0  0  0
    6.5689   -0.3050  -22.5885 C   0  0  0  0  0  0  0  0  0  0  0  0
    5.4140    0.2797  -20.0981 C   0  0  0  0  0  0  0  0  0  0  0  0
    5.8714   -3.3338  -19.4678 C   0  0  0  0  0  0  0  0  0  0  0  0
    3.9742   -1.9884  -18.8033 C   0  0  0  0  0  0  0  0  0  0  0  0
    4.3237   -4.1115  -17.8979 C   0  0  0  0  0  0  0  0  0  0  0  0
    5.5853   -1.0591  -20.4856 C   0  0  0  0  0  0  0  0  0  0  0  0
    5.1408   -2.1355  -19.5839 C   0  0  0  0  0  0  0  0  0  0  0  0
    5.8249    1.3346  -20.9384 C   0  0  0  0  0  0  0  0  0  0  0  0
    6.4092    1.0391  -22.1972 C   0  0  0  0  0  0  0  0  0  0  0  0
    4.2355    3.4189  -18.7614 C   0  0  0  0  0  0  0  0  0  0  0  0
    6.4618    3.0135  -19.1898 C   0  0  0  0  0  0  0  0  0  0  0  0
    6.0397    5.3027  -21.1475 C   0  0  0  0  0  0  0  0  0  0  0  0
    4.6880    4.3286  -22.4143 C   0  0  0  0  0  0  0  0  0  0  0  0
    7.1159    3.3158  -22.5177 C   0  0  2  0  0  0  0  0  0  0  0  0
    5.6339    2.7636  -20.4545 C   0  0  1  0  0  0  0  0  0  0  0  0
    5.9458    3.7860  -21.6058 C   0  0  0  0  0  0  0  0  0  0  0  0
    7.4340    4.2575  -23.7116 C   0  0  0  0  0  0  0  0  0  0  0  0
    5.4560   -4.2998  -18.6217 N   0  0  0  0  0  0  0  0  0  0  0  0
    3.5796   -2.9808  -17.9797 N   0  0  0  0  0  0  0  0  0  0  0  0
    4.2592    2.9248  -19.9730 N   0  3  0  0  0  0  0  0  0  0  0  0
    3.0622    3.8232  -18.1475 N   0  0  0  0  0  0  0  0  0  0  0  0
    6.8104    2.0206  -23.0833 O   0  0  0  0  0  0  0  0  0  0  0  0
    5.5056    3.4787  -18.2205 O   0  0  0  0  0  0  0  0  0  0  0  0
    4.9672    5.6274  -21.9776 O   0  0  0  0  0  0  0  0  0  0  0  0
    6.3279   -2.3777  -22.0316 H   0  0  0  0  0  0  0  0  0  0  0  0
    6.9963   -0.5344  -23.5534 H   0  0  0  0  0  0  0  0  0  0  0  0
    4.9615    0.5043  -19.1435 H   0  0  0  0  0  0  0  0  0  0  0  0
    6.7651   -3.4799  -20.0564 H   0  0  0  0  0  0  0  0  0  0  0  0
    3.3957   -1.0785  -18.8658 H   0  0  0  0  0  0  0  0  0  0  0  0
    4.0016   -4.8953  -17.2283 H   0  0  0  0  0  0  0  0  0  0  0  0
    6.9409    2.0840  -18.8486 H   0  0  0  0  0  0  0  0  0  0  0  0
    7.2321    3.7770  -19.3737 H   0  0  0  0  0  0  0  0  0  0  0  0
    5.8413    5.4603  -20.0770 H   0  0  0  0  0  0  0  0  0  0  0  0
    6.9838    5.7960  -21.4219 H   0  0  0  0  0  0  0  0  0  0  0  0
    4.7629    4.1953  -23.5036 H   0  0  0  0  0  0  0  0  0  0  0  0
    3.7235    3.9340  -22.0621 H   0  0  0  0  0  0  0  0  0  0  0  0
    8.0201    3.2383  -21.8960 H   0  0  0  0  0  0  0  0  0  0  0  0
    8.2702    3.8429  -24.2937 H   0  0  0  0  0  0  0  0  0  0  0  0
    6.5468    4.3450  -24.3559 H   0  0  0  0  0  0  0  0  0  0  0  0
    7.7101    5.2519  -23.3307 H   0  0  0  0  0  0  0  0  0  0  0  0
    3.4443    2.6878  -20.5021 H   0  0  0  0  0  0  0  0  0  0  0  0
    3.0868    4.2019  -17.2223 H   0  0  0  0  0  0  0  0  0  0  0  0
    2.1903    3.7366  -18.6293 H   0  0  0  0  0  0  0  0  0  0  0  0
  1  2  2  0  0  0  0
  1  7  1  0  0  0  0
  2 10  1  0  0  0  0
  3  7  2  0  0  0  0
  3  9  1  0  0  0  0
  4  8  1  0  0  0  0
  4 19  2  0  0  0  0
  5  8  2  0  0  0  0
  5 20  1  0  0  0  0
  6 19  1  0  0  0  0
  6 20  2  0  0  0  0
  7  8  1  0  0  0  0
  9 10  2  0  0  0  0
  9 16  1  0  0  0  0
 10 23  1  0  0  0  0
 11 21  2  0  0  0  0
 11 22  1  0  0  0  0
 11 24  1  0  0  0  0
 12 16  1  0  0  0  0
 12 24  1  0  0  0  0
 13 17  1  0  0  0  0
 13 25  1  0  0  0  0
 14 17  1  0  0  0  0
 14 25  1  0  0  0  0
 15 17  1  0  0  0  0
 15 18  1  0  0  0  0
 15 23  1  0  0  0  0
 16 17  1  0  0  0  0
 16 21  1  0  0  0  0
  1 26  1  0  0  0  0
  2 27  1  0  0  0  0
  3 28  1  0  0  0  0
  4 29  1  0  0  0  0
  5 30  1  0  0  0  0
  6 31  1  0  0  0  0
 12 32  1  0  0  0  0
 12 33  1  0  0  0  0
 13 34  1  0  0  0  0
 13 35  1  0  0  0  0
 14 36  1  0  0  0  0
 14 37  1  0  0  0  0
 15 38  1  0  0  0  0
 18 39  1  0  0  0  0
 18 40  1  0  0  0  0
 18 41  1  0  0  0  0
 21 42  1  0  0  0  0
 22 43  1  0  0  0  0
 22 44  1  0  0  0  0
M  CHG  1  21   1
M  END
> <OMEGA_C>
EabFQAzorL9w3a3BuDTSQEolnL4xtbTBlj+tQM4xjz7SyKDBzuK7QOxcVcAOvpvBvFh+QOyD/r85
bZbB9luKQFiRg8DbLo/Bf7qyQMKRh7974qPBRYGkQFqsCMC8q5zBpWW6QLDTqj/kgafBPhjNQBQB
hT/Jk7HBJYmHQAnQWkBGF5bBysbOQPHdQEDNhJnBHUXBQPevqUAILqnBTwSWQPWDikB5ULPB2rXj
QPg1VEAsJLTB80i0QKHfMEC4oqPB7kO+QAZOckCt2KzBeuPtQJg9iEBNsb3BQpeuQOWXicAm+ZTB
BBhlQDDGPsB01o/BLUuIQEwwO0DMyJ/BgPtDQJWvdEAaLpHB1+7ZQChRAUCcqrjBni2wQCSjXkCq
w5HBDPOeQNATtEAZ0q/Bhn7KQJ4rGMC5QLDB1uHfQA/OCL9kbbzBj8SeQKIZAT/lJZnBcXvYQEu3
XsCIc6DB1FNZQCIMir8R7ZbBIA2AQCCmnMCX04nBjRveQMlgBUDdyZbBDG3nQAW6cUBq/ZrBEOy6
QMK6rkDKnaDBj3vfQIB4uUARYKvBxWmYQC9AhkBpB7zBhU5uQObGe0Aaf7DBbFIAQc5AT0AAK6/B
2lIEQYPxdUBmWcLBC3/RQHAKi0DQ2MLB3bj2QDQPqEAzpbrBJXBcQIgFLEBHBKTBYI1FQJ91hkBB
x4nBNS0MQAskb0DoCJXB

> <OMEGA_E>
jIjwPg==

> <OMEGA_NBR>
     25679

$$$$
288470
  -OEChem-04172616093D

 47 51  0     1  0  0  0  0  0999 V2000
    6.1184   -1.3685  -21.8113 C   0  0  0  0  0  0  0  0  0  0  0  0
    6.5029   -0.2917  -22.6365 C   0  0  0  0  0  0  0  0  0  0  0  0
    5.3865    0.2069  -20.1124 C   0  0  0  0  0  0  0  0  0  0  0  0
    5.8959   -3.3943  -19.5442 C   0  0  0  0  0  0  0  0  0  0  0  0
    4.0172   -2.0607  -18.8064 C   0  0  0  0  0  0  0  0  0  0  0  0
    4.4367   -4.1612  -17.8844 C   0  0  0  0  0  0  0  0  0  0  0  0
    5.5572   -1.1162  -20.5403 C   0  0  0  0  0  0  0  0  0  0  0  0
    5.1485   -2.2055  -19.6389 C   0  0  0  0  0  0  0  0  0  0  0  0
    5.7732    1.2864  -20.9245 C   0  0  0  0  0  0  0  0  0  0  0  0
    6.3611    1.0403  -22.1905 C   0  0  0  0  0  0  0  0  0  0  0  0
    4.2060    3.4553  -18.7370 C   0  0  0  0  0  0  0  0  0  0  0  0
    6.4087    2.9404  -19.1528 C   0  0  0  0  0  0  0  0  0  0  0  0
    5.7712    5.2518  -21.0255 C   0  0  0  0  0  0  0  0  0  0  0  0
    4.5262    4.1933  -22.3394 C   0  0  0  0  0  0  0  0  0  0  0  0
    7.0279    3.3645  -22.4060 C   0  0  2  0  0  0  0  0  0  0  0  0
    5.5557    2.6892  -20.3966 C   0  0  1  0  0  0  0  0  0  0  0  0
    5.8080    3.7421  -21.5206 C   0  0  0  0  0  0  0  0  0  0  0  0
    6.9682    4.0030  -24.9460 C   0  0  0  0  0  0  0  0  0  0  0  0
    7.3805    4.4184  -23.5178 C   0  0  0  0  0  0  0  0  0  0  0  0
    5.5311   -4.3516  -18.6646 N   0  0  0  0  0  0  0  0  0  0  0  0
    3.6758   -3.0414  -17.9478 N   0  0  0  0  0  0  0  0  0  0  0  0
    4.1927    2.8062  -19.8728 N   0  3  0  0  0  0  0  0  0  0  0  0
    3.0755    4.0559  -18.2119 N   0  0  0  0  0  0  0  0  0  0  0  0
    6.7999    2.0602  -23.0194 O   0  0  0  0  0  0  0  0  0  0  0  0
    5.4810    3.4905  -18.2012 O   0  0  0  0  0  0  0  0  0  0  0  0
    4.6619    5.4920  -21.8398 O   0  0  0  0  0  0  0  0  0  0  0  0
    6.2529   -2.3849  -22.1508 H   0  0  0  0  0  0  0  0  0  0  0  0
    6.9093   -0.4875  -23.6178 H   0  0  0  0  0  0  0  0  0  0  0  0
    4.9508    0.4002  -19.1432 H   0  0  0  0  0  0  0  0  0  0  0  0
    6.7605   -3.5407  -20.1746 H   0  0  0  0  0  0  0  0  0  0  0  0
    3.4231   -1.1603  -18.8582 H   0  0  0  0  0  0  0  0  0  0  0  0
    4.1606   -4.9349  -17.1834 H   0  0  0  0  0  0  0  0  0  0  0  0
    6.8415    2.0008  -18.7790 H   0  0  0  0  0  0  0  0  0  0  0  0
    7.2161    3.6552  -19.3700 H   0  0  0  0  0  0  0  0  0  0  0  0
    5.5720    5.3669  -19.9499 H   0  0  0  0  0  0  0  0  0  0  0  0
    6.6629    5.8355  -21.2978 H   0  0  0  0  0  0  0  0  0  0  0  0
    4.6414    4.1179  -23.4307 H   0  0  0  0  0  0  0  0  0  0  0  0
    3.5977    3.6893  -22.0330 H   0  0  0  0  0  0  0  0  0  0  0  0
    7.9024    3.2893  -21.7429 H   0  0  0  0  0  0  0  0  0  0  0  0
    7.2516    4.7949  -25.6550 H   0  0  0  0  0  0  0  0  0  0  0  0
    7.4795    3.0677  -25.2177 H   0  0  0  0  0  0  0  0  0  0  0  0
    5.8795    3.8500  -24.9834 H   0  0  0  0  0  0  0  0  0  0  0  0
    6.8688    5.3608  -23.2727 H   0  0  0  0  0  0  0  0  0  0  0  0
    8.4687    4.5785  -23.5070 H   0  0  0  0  0  0  0  0  0  0  0  0
    3.3736    2.4437  -20.3174 H   0  0  0  0  0  0  0  0  0  0  0  0
    3.1363    4.5786  -17.3615 H   0  0  0  0  0  0  0  0  0  0  0  0
    2.1978    3.9673  -18.6827 H   0  0  0  0  0  0  0  0  0  0  0  0
  1  2  2  0  0  0  0
  1  7  1  0  0  0  0
  2 10  1  0  0  0  0
  3  7  2  0  0  0  0
  3  9  1  0  0  0  0
  4  8  1  0  0  0  0
  4 20  2  0  0  0  0
  5  8  2  0  0  0  0
  5 21  1  0  0  0  0
  6 20  1  0  0  0  0
  6 21  2  0  0  0  0
  7  8  1  0  0  0  0
  9 10  2  0  0  0  0
  9 16  1  0  0  0  0
 10 24  1  0  0  0  0
 11 22  2  0  0  0  0
 11 23  1  0  0  0  0
 11 25  1  0  0  0  0
 12 16  1  0  0  0  0
 12 25  1  0  0  0  0
 13 17  1  0  0  0  0
 13 26  1  0  0  0  0
 14 17  1  0  0  0  0
 14 26  1  0  0  0  0
 15 17  1  0  0  0  0
 15 19  1  0  0  0  0
 15 24  1  0  0  0  0
 16 17  1  0  0  0  0
 16 22  1  0  0  0  0
 18 19  1  0  0  0  0
  1 27  1  0  0  0  0
  2 28  1  0  0  0  0
  3 29  1  0  0  0  0
  4 30  1  0  0  0  0
  5 31  1  0  0  0  0
  6 32  1  0  0  0  0
 12 33  1  0  0  0  0
 12 34  1  0  0  0  0
 13 35  1  0  0  0  0
 13 36  1  0  0  0  0
 14 37  1  0  0  0  0
 14 38  1  0  0  0  0
 15 39  1  0  0  0  0
 18 40  1  0  0  0  0
 18 41  1  0  0  0  0
 18 42  1  0  0  0  0
 19 43  1  0  0  0  0
 19 44  1  0  0  0  0
 22 45  1  0  0  0  0
 23 46  1  0  0  0  0
 23 47  1  0  0  0  0
M  CHG  1  22   1
M  END
> <OMEGA_C>
qMnDQI8rr79xfa7BGRjQQPhTlb6SF7XB912sQDjoUz4x5qDBV6u8QPw7WcCWWpzBBY2AQFLjA8CK
c5bBlfmNQIEohcBWE4/BT9SxQJfejr94UqTBrMCkQMomDcBhHJ3BQ764QHKopD9JZafBK47LQPUm
hT8rhrHBUZeGQFokXUBs5ZXBqhPNQBgwPEDqOJnBi624QJ0OqEBSNKjBqNaQQDYvhkD/trLB1+Tg
QIZTV0B0P7PBncixQIocLEAxLKPB/dq5QEJ/b0AsKqzBcPveQIIYgEBukcfB0SzsQLNjjUBqJLzB
p/6wQJ5Ai8ApUZXBBEBrQKKlQsADlY/BnSqGQBmZM0B1+57BWNVEQB7KgUDwsZHBq5jZQLzZA0DA
J7jBBWSvQKRjX0AlnJHBmS6VQBC+r0Det67BgBfIQOOhGMDmNLHBIBndQGuU+b4+8bzBAG2eQEvm
zD5gJZnBTVbYQOCaYsCiZaHBnRRbQBiFlL+L3ZbBeCOFQATrncCXd4nBK+3aQPAMAEBPO5bBR+rm
QGbuaUC79ZrBnU2yQI29q0BZmZ/BYDbVQHC8ukD0YarB+oWUQAPGg0AZcrvBP0BmQOIdbECDQ7DB
f+D8QBGEUkCA8a3B6wzoQJNvmUBgPc3Br1fvQMFUREDDvcnBFiW8QCNmdkDv3cfBDM3bQMyLq0B9
LrrB0n8HQRuDkkBRDrzBhOlXQFZlHEAKiqLBY7hIQK2DkkBc5IrBHagMQNrofUA3dpXB

> <OMEGA_E>
tKoOPw==

> <OMEGA_NBR>
     26766

$$$$
288483
  -OEChem-04172616093D

 40 44  0     1  0  0  0  0  0999 V2000
    6.1248   -1.2962  -21.6475 C   0  0  0  0  0  0  0  0  0  0  0  0
    6.5075   -0.2418  -22.4929 C   0  0  0  0  0  0  0  0  0  0  0  0
    5.3335    0.3166  -20.0098 C   0  0  0  0  0  0  0  0  0  0  0  0
    5.8741   -3.3644  -19.5021 C   0  0  0  0  0  0  0  0  0  0  0  0
    4.0513   -2.0507  -18.6138 C   0  0  0  0  0  0  0  0  0  0  0  0
    4.4546   -4.2287  -17.8598 C   0  0  0  0  0  0  0  0  0  0  0  0
    5.5356   -1.0285  -20.3951 C   0  0  0  0  0  0  0  0  0  0  0  0
    5.1498   -2.1513  -19.4963 C   0  0  0  0  0  0  0  0  0  0  0  0
    5.7385    1.3994  -20.8460 C   0  0  0  0  0  0  0  0  0  0  0  0
    6.3181    1.0999  -22.1100 C   0  0  0  0  0  0  0  0  0  0  0  0
    5.5410    2.7995  -18.1522 C   0  0  0  0  0  0  0  0  0  0  0  0
    5.8137    5.3768  -21.3183 C   0  0  0  0  0  0  0  0  0  0  0  0
    7.2419    4.7949  -21.2386 C   0  0  0  0  0  0  0  0  0  0  0  0
    4.1325    3.1385  -19.9158 C   0  0  0  0  0  0  0  0  0  0  0  0
    5.9846    3.3245  -22.9340 C   0  0  0  0  0  0  0  0  0  0  0  0
    5.5637    2.8745  -20.3877 C   0  0  2  0  0  0  0  0  0  0  0  0
    6.0339    3.8654  -21.5082 C   0  0  0  0  0  0  0  0  0  0  0  0
    5.5205   -4.3786  -18.6836 N   0  0  0  0  0  0  0  0  0  0  0  0
    3.7178   -3.0907  -17.8165 N   0  0  0  0  0  0  0  0  0  0  0  0
    6.3113    3.1142  -19.1599 N   0  3  0  0  0  0  0  0  0  0  0  0
    6.0484    2.1378  -17.0548 N   0  0  0  0  0  0  0  0  0  0  0  0
    6.7156    2.0816  -23.0036 O   0  0  0  0  0  0  0  0  0  0  0  0
    4.2058    2.9294  -18.4943 O   0  0  0  0  0  0  0  0  0  0  0  0
    6.2828   -2.3182  -21.9589 H   0  0  0  0  0  0  0  0  0  0  0  0
    6.9537   -0.4636  -23.4510 H   0  0  0  0  0  0  0  0  0  0  0  0
    4.8623    0.5293  -19.0616 H   0  0  0  0  0  0  0  0  0  0  0  0
    6.7175   -3.4815  -20.1665 H   0  0  0  0  0  0  0  0  0  0  0  0
    3.4747   -1.1383  -18.5757 H   0  0  0  0  0  0  0  0  0  0  0  0
    4.1810   -5.0483  -17.2119 H   0  0  0  0  0  0  0  0  0  0  0  0
    5.3211    5.7500  -20.4084 H   0  0  0  0  0  0  0  0  0  0  0  0
    5.5220    6.0013  -22.1756 H   0  0  0  0  0  0  0  0  0  0  0  0
    7.9668    5.0024  -22.0396 H   0  0  0  0  0  0  0  0  0  0  0  0
    7.7658    4.7512  -20.2724 H   0  0  0  0  0  0  0  0  0  0  0  0
    3.8258    4.1693  -20.1467 H   0  0  0  0  0  0  0  0  0  0  0  0
    3.4282    2.4334  -20.3815 H   0  0  0  0  0  0  0  0  0  0  0  0
    4.9379    3.1508  -23.2242 H   0  0  0  0  0  0  0  0  0  0  0  0
    6.4386    4.0555  -23.6193 H   0  0  0  0  0  0  0  0  0  0  0  0
    7.2482    3.4586  -19.0992 H   0  0  0  0  0  0  0  0  0  0  0  0
    5.4286    1.6898  -16.4104 H   0  0  0  0  0  0  0  0  0  0  0  0
    7.0362    2.1057  -16.9028 H   0  0  0  0  0  0  0  0  0  0  0  0
  1  2  1  0  0  0  0
  1  7  2  0  0  0  0
  2 10  2  0  0  0  0
  3  7  1  0  0  0  0
  3  9  2  0  0  0  0
  4  8  1  0  0  0  0
  4 18  2  0  0  0  0
  5  8  2  0  0  0  0
  5 19  1  0  0  0  0
  6 18  1  0  0  0  0
  6 19  2  0  0  0  0
  7  8  1  0  0  0  0
  9 10  1  0  0  0  0
  9 16  1  0  0  0  0
 10 22  1  0  0  0  0
 11 20  2  0  0  0  0
 11 21  1  0  0  0  0
 11 23  1  0  0  0  0
 12 13  1  0  0  0  0
 12 17  1  0  0  0  0
 13 17  1  0  0  0  0
 14 16  1  0  0  0  0
 14 23  1  0  0  0  0
 15 17  1  0  0  0  0
 15 22  1  0  0  0  0
 16 17  1  0  0  0  0
 16 20  1  0  0  0  0
  1 24  1  0  0  0  0
  2 25  1  0  0  0  0
  3 26  1  0  0  0  0
  4 27  1  0  0  0  0
  5 28  1  0  0  0  0
  6 29  1  0  0  0  0
 12 30  1  0  0  0  0
 12 31  1  0  0  0  0
 13 32  1  0  0  0  0
 13 33  1  0  0  0  0
 14 34  1  0  0  0  0
 14 35  1  0  0  0  0
 15 36  1  0  0  0  0
 15 37  1  0  0  0  0
 20 38  1  0  0  0  0
 21 39  1  0  0  0  0
 21 40  1  0  0  0  0
M  CHG  1  20   1
M  END
> <OMEGA_C>
B/7DQKLopb8bLq3BEz3QQFCed75c8bPBYKyqQDodoj4bFKDB7Pi7QOlSV8BeBJzBF6SBQFQ/A8AM
6ZTBAoyOQEJRh8D54I7BjyOxQCqlg78vKaPBR8ukQLavCcCC+JvBnqG3QEggsz+exKbB8C3KQNrJ
jD9D4bDBNFCxQFQrM0DCN5HBjwm6QHcOrED5i6rB+b3nQMhvmUC+6KnBNz2EQJzcSECiU5/B5oG/
QHjEVEDreLfBeQmyQGn4N0AWGqPBkhXBQDJjd0C+EKzBv6ewQMIdjMATeJXBpPBtQBfORcAjiI7B
a/bJQDJPR0B+R5nBGIzBQJ7RCEAhcIjBCObWQG44BUBdB7jBEJaGQJ17O0BM9JPB1AzJQLZcFMDC
q6/ByoTeQLhW7b6xm7vBx5ebQDR+Bz8ufpjBn/XWQLPRXsAYVaHBzGFeQC60kb8Qm5TBZsqFQGSL
ocAOsonBM0aqQDkAuEBhRKPBnbSwQIMKwECxZ7HBv+/+QNAToEAkUbDBVYH4QIYJmEDULaLBGNl0
QOJqhUB6LKHBzWdbQAK8G0BIDaPBCQOeQAunSUAhy7nB1AjOQLjGgUA/9LzBOfHnQJ9ZXUBAy5jB
uLatQOpK2D+TSIPBtijhQL/DBkD0OIfB/8jEQI0+qL83SK3B7pjQQG2Egr6KB7TBKoupQILjkj4N
P6DBAOS7QI/bWMACNJzBXoqCQPD9AsC06ZTBm/COQBcYh8BR1o7BNlKxQHSkhr9+TqPBbS2lQHG/
CsCBG5zBrZW0QDzSrj8GC6fBCnXJQK5/ij8T+LDBFHO1QIh3TUDgd5HBnqGOQH0VikAmlLPBPbap
QBoRqEASQKzBL2qAQEgGP0A25p3B1O7bQJxLWUBcwLPBNhSsQIFsNEB4bqPBCni0QBvNcECfH63B
T4WwQAKTjMD8kZXB3t1vQPCvRMBWa47BRpzJQBoRTEDnvJrBHf3IQGTKW0A4rYfBsvHWQFkmBEBj
D7jBr2eKQDu+PEAauZLB15rKQMhhFcCuuq/Bm1XfQPNP775OqLvBDeyaQJUl+z7JlpjBwYLWQHg5
YcDtnKHBIeBgQDZUkL/lmpTBciaGQGYYocA1lonBik1bQGyugUD9VLHBqeeQQJncjEA0VbzBZx6/
QLwTwEDT0q/Bg92bQJDltECc0qTBeztjQPt3fEDeFKDBGHZVQHdVCkCWD6DB9I7fQOOfg0ArW7rB
P4r4QHJrW0B2oa7BiqzoQAo/WUDyuZvB2qm3QBlWWkD784DBXGnoQFWUZ0DmVYfB

> <OMEGA_E>
UJA9P6DvST8=

> <OMEGA_NBR>
     28466

$$$$
288490
  -OEChem-04172616093D

 47 51  0     1  0  0  0  0  0999 V2000
    6.0071   -5.4593  -18.3605 C   0  0  0  0  0  0  0  0  0  0  0  0
    6.5646   -6.5339  -18.2962 C   0  0  0  0  0  0  0  0  0  0  0  0
    6.1129   -1.3086  -21.6575 C   0  0  0  0  0  0  0  0  0  0  0  0
    6.4405   -0.2916  -22.5712 C   0  0  0  0  0  0  0  0  0  0  0  0
    5.8304   -3.2409  -19.3614 C   0  0  0  0  0  0  0  0  0  0  0  0
    5.5265    0.3731  -19.9988 C   0  0  0  0  0  0  0  0  0  0  0  0
    4.2057   -3.9258  -17.6867 C   0  0  0  0  0  0  0  0  0  0  0  0
    4.0125   -1.7971  -18.6411 C   0  0  0  0  0  0  0  0  0  0  0  0
    5.3501   -4.2023  -18.4638 C   0  0  0  0  0  0  0  0  0  0  0  0
    5.6173   -0.9743  -20.3792 C   0  0  0  0  0  0  0  0  0  0  0  0
    5.1551   -2.0143  -19.4505 C   0  0  0  0  0  0  0  0  0  0  0  0
    5.8776    1.4010  -20.8947 C   0  0  0  0  0  0  0  0  0  0  0  0
    6.2878    1.0634  -22.2159 C   0  0  0  0  0  0  0  0  0  0  0  0
    4.1848    3.2706  -18.7988 C   0  0  0  0  0  0  0  0  0  0  0  0
    6.4306    3.1078  -19.1003 C   0  0  0  0  0  0  0  0  0  0  0  0
    5.8510    3.2871  -22.9884 C   0  0  0  0  0  0  0  0  0  0  0  0
    5.8675    5.3460  -21.3572 C   0  0  0  0  0  0  0  0  0  0  0  0
    7.6842    4.3290  -21.5187 C   0  0  0  0  0  0  0  0  0  0  0  0
    5.7346    2.8551  -20.4450 C   0  0  1  0  0  0  0  0  0  0  0  0
    6.1914    3.8171  -21.5897 C   0  0  0  0  0  0  0  0  0  0  0  0
    7.2277   -7.8298  -18.2335 C   0  0  0  0  0  0  0  0  0  0  0  0
    3.5577   -2.7422  -17.7870 N   0  0  0  0  0  0  0  0  0  0  0  0
    4.3277    3.1257  -20.1023 N   0  3  0  0  0  0  0  0  0  0  0  0
    2.9896    3.5591  -18.1618 N   0  0  0  0  0  0  0  0  0  0  0  0
    6.5232    2.0212  -23.1892 O   0  0  0  0  0  0  0  0  0  0  0  0
    5.3772    3.0608  -18.1422 O   0  0  0  0  0  0  0  0  0  0  0  0
    7.2279    5.6114  -21.2013 O   0  0  0  0  0  0  0  0  0  0  0  0
    6.2406   -2.3449  -21.9337 H   0  0  0  0  0  0  0  0  0  0  0  0
    6.8115   -0.5505  -23.5519 H   0  0  0  0  0  0  0  0  0  0  0  0
    6.7000   -3.4388  -19.9706 H   0  0  0  0  0  0  0  0  0  0  0  0
    5.1830    0.6250  -19.0064 H   0  0  0  0  0  0  0  0  0  0  0  0
    3.8397   -4.6732  -16.9984 H   0  0  0  0  0  0  0  0  0  0  0  0
    3.4917   -0.8533  -18.7078 H   0  0  0  0  0  0  0  0  0  0  0  0
    7.1780    2.3270  -18.8959 H   0  0  0  0  0  0  0  0  0  0  0  0
    6.9190    4.0935  -19.0939 H   0  0  0  0  0  0  0  0  0  0  0  0
    4.7637    3.1450  -23.0744 H   0  0  0  0  0  0  0  0  0  0  0  0
    6.1878    4.0081  -23.7479 H   0  0  0  0  0  0  0  0  0  0  0  0
    5.4092    5.8446  -22.2241 H   0  0  0  0  0  0  0  0  0  0  0  0
    5.2652    5.5457  -20.4587 H   0  0  0  0  0  0  0  0  0  0  0  0
    8.2840    3.8568  -20.7268 H   0  0  0  0  0  0  0  0  0  0  0  0
    8.2257    4.2686  -22.4743 H   0  0  0  0  0  0  0  0  0  0  0  0
    7.8284   -7.8907  -17.3140 H   0  0  0  0  0  0  0  0  0  0  0  0
    6.4716   -8.6287  -18.2309 H   0  0  0  0  0  0  0  0  0  0  0  0
    7.8838   -7.9486  -19.1084 H   0  0  0  0  0  0  0  0  0  0  0  0
    3.5831    3.1907  -20.7666 H   0  0  0  0  0  0  0  0  0  0  0  0
    2.9579    3.6260  -17.1645 H   0  0  0  0  0  0  0  0  0  0  0  0
    2.1581    3.7005  -18.6991 H   0  0  0  0  0  0  0  0  0  0  0  0
  1  2  3  0  0  0  0
  1  9  1  0  0  0  0
  2 21  1  0  0  0  0
  3  4  2  0  0  0  0
  3 10  1  0  0  0  0
  4 13  1  0  0  0  0
  5  9  1  0  0  0  0
  5 11  2  0  0  0  0
  6 10  2  0  0  0  0
  6 12  1  0  0  0  0
  7  9  2  0  0  0  0
  7 22  1  0  0  0  0
  8 11  1  0  0  0  0
  8 22  2  0  0  0  0
 10 11  1  0  0  0  0
 12 13  2  0  0  0  0
 12 19  1  0  0  0  0
 13 25  1  0  0  0  0
 14 23  2  0  0  0  0
 14 24  1  0  0  0  0
 14 26  1  0  0  0  0
 15 19  1  0  0  0  0
 15 26  1  0  0  0  0
 16 20  1  0  0  0  0
 16 25  1  0  0  0  0
 17 20  1  0  0  0  0
 17 27  1  0  0  0  0
 18 20  1  0  0  0  0
 18 27  1  0  0  0  0
 19 20  1  0  0  0  0
 19 23  1  0  0  0  0
  3 28  1  0  0  0  0
  4 29  1  0  0  0  0
  5 30  1  0  0  0  0
  6 31  1  0  0  0  0
  7 32  1  0  0  0  0
  8 33  1  0  0  0  0
 15 34  1  0  0  0  0
 15 35  1  0  0  0  0
 16 36  1  0  0  0  0
 16 37  1  0  0  0  0
 17 38  1  0  0  0  0
 17 39  1  0  0  0  0
 18 40  1  0  0  0  0
 18 41  1  0  0  0  0
 21 42  1  0  0  0  0
 21 43  1  0  0  0  0
 21 44  1  0  0  0  0
 23 45  1  0  0  0  0
 24 46  1  0  0  0  0
 24 47  1  0  0  0  0
M  CHG  1  23   1
M  END
> <OMEGA_C>
ZTrAQKOyrsBo4pLBYBHSQJoV0cCuXpLBPp3DQM+Ap7+dQq3BPRjOQAZJlb7akbTBzJK6QGNqT8Ak
5JrBI9mwQAoHvz6d/Z/BN5WGQI8/e8Blfo3BO2aAQDsG5r/9IJXBpjOrQG15hsDGtZPBhcCzQKNu
eb+sCKPBPPakQH7qAMCMmpvBixW8QLdTsz9OKKfBrTXJQIYciD8+urHB/emFQAlRUUDwY5bBx8fN
QPXmRkB6zZjBxzu7QGdgUkAp6LfBQcK7QAkSq0Ci26rBm+T1QHuHikBmJqzBn4G3QJu5NkBXj6PB
nB/GQLhKdECst6zBqknnQL+N+sAl3pHB57BjQK6AL8CwS47B23yKQDoLSEB20aDB01Q/QADIY0Bf
S5HBb77QQLBbAUBzg7nBARKsQMbkQ0BAI5HB4UrnQHSQs0BWnKnB+7LHQI8SFsAteK/B0ffZQALu
DL87arzBOmbWQNkUXMC+w5/BMtulQJMAID8VDZjBJL51QO+KlcC+/IfBRXhfQNZvWr+sqZXB0rHl
QHXtFEDbKpfBqGjdQKL9gkBowJjB8m+YQJxHSUBPmLjBhQLGQAZCgECk+73BbxitQPYGu0DhyrHB
z3yoQFx2sUBeq6PBE4sEQQLVdkB70KXBp5wDQT+YiEBQy7PBkYL6QP6A/MALg4rBbBfPQDUPCsH2
2JHBwEf8QAZb/sAI3pjBplFlQMszTED1IabBBE49QPYPaED9UInBDh4KQIbVbECwl5XB3b28QAew
rMCt5JLBSNbQQIOQzcDVvpHB7bK9QLPhqL/iuq3BMlPNQMtbqL4ep7TBlfezQGz7TcCEepvBdPao
QIiYyj485aDB7iqBQFOOesCK3o3BCT1zQO5C5b8FkZXBCailQH67hcDcKJTBkRKsQApTdr+evKPB
O6KdQIgbAMAMOpzBs6q4QLExsz9dyafBBmfMQLEogz+8nbHBy9OIQFkEVUAvcpbBtInQQJdGREAI
AJrBr0btQA+bS0DUW7PBLEijQBl+hkCaBbbB6oXIQItJqkCXX6vBiMu2QBpPN0ANQqTBEIDGQIFM
cUDjnq3BLCDpQOT49MCXTpDBnM5XQJRTL8C5pI7ByTyLQEYGT0AL66DB26tFQGbUYEB86pDBoCng
QJ1L+D+VVLjBQqWwQF/iS0DDx5HB0USoQEwcsUBc7LLBRiq/QH7xFsB0DrDBnCPaQC6QG79TXLzB
z5XPQAkfWsAqcqDB4m2aQLkALD/YX5nBwetrQGdKlcCwUojBnV5RQGzyWb8wBZbBK37lQBwIDUD6
epjBa/zjQLTSfkDWfZrBj7X4QKiIeEBRgLnBgYYDQZ5GP0Aoka3BJBOsQJcigEC0ZL7BbkqDQKqX
ckCCabTBP5q/QINQs0BPKqPB0VbnQG0kuUA4cq3BllrgQDH7BcF+mZbBBscFQZTu7cBC0JDBUc7h
QHdhAcF6a4jBrJ9lQC4xWUCE7aXBF+1FQBRHY0AA7IjB0pkOQFHnZkCp65TB

> <OMEGA_E>
4tIfP1xvID8=

> <OMEGA_NBR>
     30362

$$$$
361714
  -OEChem-04172616093D

 46 50  0     1  0  0  0  0  0999 V2000
    2.4895   -2.8205  -17.0631 C   0  0  0  0  0  0  0  0  0  0  0  0
    1.5094   -2.7408  -16.3544 C   0  0  0  0  0  0  0  0  0  0  0  0
    5.8955   -1.3522  -21.7519 C   0  0  0  0  0  0  0  0  0  0  0  0
    6.3534   -0.3492  -22.6144 C   0  0  0  0  0  0  0  0  0  0  0  0
    5.2527    0.3379  -20.1140 C   0  0  0  0  0  0  0  0  0  0  0  0
    4.4039   -4.1250  -17.8513 C   0  0  0  0  0  0  0  0  0  0  0  0
    5.7987   -3.2719  -19.4969 C   0  0  0  0  0  0  0  0  0  0  0  0
    3.6388   -2.9392  -17.8895 C   0  0  0  0  0  0  0  0  0  0  0  0
    5.3845   -1.0166  -20.4823 C   0  0  0  0  0  0  0  0  0  0  0  0
    5.7312    1.3568  -20.9700 C   0  0  0  0  0  0  0  0  0  0  0  0
    6.3400    0.9948  -22.2078 C   0  0  0  0  0  0  0  0  0  0  0  0
    5.0289   -2.0827  -19.5391 C   0  0  0  0  0  0  0  0  0  0  0  0
    4.2530    3.3592  -18.8066 C   0  0  0  0  0  0  0  0  0  0  0  0
    6.4844    2.9905  -19.2151 C   0  0  0  0  0  0  0  0  0  0  0  0
    7.4266    3.1215  -22.3736 C   0  0  0  0  0  0  0  0  0  0  0  0
    5.1509    4.2095  -22.7229 C   0  0  0  0  0  0  0  0  0  0  0  0
    6.3287    5.2770  -21.3630 C   0  0  0  0  0  0  0  0  0  0  0  0
    5.6936    2.8190  -20.5111 C   0  0  1  0  0  0  0  0  0  0  0  0
    6.2238    3.7319  -21.6629 C   0  0  0  0  0  0  0  0  0  0  0  0
    0.3342   -2.6594  -15.4981 C   0  0  0  0  0  0  0  0  0  0  0  0
    5.4788   -4.2709  -18.6514 N   0  0  0  0  0  0  0  0  0  0  0  0
    3.9671   -1.9305  -18.7202 N   0  0  0  0  0  0  0  0  0  0  0  0
    4.3347    3.2140  -20.1105 N   0  3  0  0  0  0  0  0  0  0  0  0
    3.0767    3.6531  -18.1346 N   0  0  0  0  0  0  0  0  0  0  0  0
    6.9798    1.9113  -23.0262 O   0  0  0  0  0  0  0  0  0  0  0  0
    5.4780    3.1516  -18.2039 O   0  0  0  0  0  0  0  0  0  0  0  0
    5.3419    5.5313  -22.3187 O   0  0  0  0  0  0  0  0  0  0  0  0
    5.9340   -2.3865  -22.0605 H   0  0  0  0  0  0  0  0  0  0  0  0
    6.7185   -0.6102  -23.5967 H   0  0  0  0  0  0  0  0  0  0  0  0
    4.7850    0.5980  -19.1759 H   0  0  0  0  0  0  0  0  0  0  0  0
    4.1261   -4.9209  -17.1763 H   0  0  0  0  0  0  0  0  0  0  0  0
    6.6520   -3.3786  -20.1503 H   0  0  0  0  0  0  0  0  0  0  0  0
    7.1002    2.1015  -19.0139 H   0  0  0  0  0  0  0  0  0  0  0  0
    7.1300    3.8796  -19.2674 H   0  0  0  0  0  0  0  0  0  0  0  0
    7.8193    3.8274  -23.1203 H   0  0  0  0  0  0  0  0  0  0  0  0
    8.2141    2.8850  -21.6429 H   0  0  0  0  0  0  0  0  0  0  0  0
    5.4336    4.0139  -23.7678 H   0  0  0  0  0  0  0  0  0  0  0  0
    4.1364    3.8258  -22.5396 H   0  0  0  0  0  0  0  0  0  0  0  0
    6.0430    5.5556  -20.3379 H   0  0  0  0  0  0  0  0  0  0  0  0
    7.3089    5.7152  -21.6024 H   0  0  0  0  0  0  0  0  0  0  0  0
   -0.1275   -1.6663  -15.6017 H   0  0  0  0  0  0  0  0  0  0  0  0
   -0.3895   -3.4329  -15.7945 H   0  0  0  0  0  0  0  0  0  0  0  0
    0.6319   -2.8177  -14.4510 H   0  0  0  0  0  0  0  0  0  0  0  0
    3.5747    3.3535  -20.7452 H   0  0  0  0  0  0  0  0  0  0  0  0
    3.0759    3.7286  -17.1375 H   0  0  0  0  0  0  0  0  0  0  0  0
    2.2289    3.7896  -18.6470 H   0  0  0  0  0  0  0  0  0  0  0  0
  1  2  3  0  0  0  0
  1  8  1  0  0  0  0
  2 20  1  0  0  0  0
  3  4  2  0  0  0  0
  3  9  1  0  0  0  0
  4 11  1  0  0  0  0
  5  9  2  0  0  0  0
  5 10  1  0  0  0  0
  6  8  1  0  0  0  0
  6 21  2  0  0  0  0
  7 12  2  0  0  0  0
  7 21  1  0  0  0  0
  8 22  2  0  0  0  0
  9 12  1  0  0  0  0
 10 11  2  0  0  0  0
 10 18  1  0  0  0  0
 11 25  1  0  0  0  0
 12 22  1  0  0  0  0
 13 23  2  0  0  0  0
 13 24  1  0  0  0  0
 13 26  1  0  0  0  0
 14 18  1  0  0  0  0
 14 26  1  0  0  0  0
 15 19  1  0  0  0  0
 15 25  1  0  0  0  0
 16 19  1  0  0  0  0
 16 27  1  0  0  0  0
 17 19  1  0  0  0  0
 17 27  1  0  0  0  0
 18 19  1  0  0  0  0
 18 23  1  0  0  0  0
  3 28  1  0  0  0  0
  4 29  1  0  0  0  0
  5 30  1  0  0  0  0
  6 31  1  0  0  0  0
  7 32  1  0  0  0  0
 14 33  1  0  0  0  0
 14 34  1  0  0  0  0
 15 35  1  0  0  0  0
 15 36  1  0  0  0  0
 16 37  1  0  0  0  0
 16 38  1  0  0  0  0
 17 39  1  0  0  0  0
 17 40  1  0  0  0  0
 20 41  1  0  0  0  0
 20 42  1  0  0  0  0
 20 43  1  0  0  0  0
 23 44  1  0  0  0  0
 24 45  1  0  0  0  0
 24 46  1  0  0  0  0
M  CHG  1  23   1
M  END
> <OMEGA_C>
C1QfQNODNMAngYjB8jTBPy1pL8DB1YLB4ae8QGgVrb/PA67B3k7LQO7Osr406rTBxhWoQKkDrT6I
6aDBFu2MQEQAhMCLz47Bzo65QB9mUcC3+ZvBc+FoQAkbPMC9HY/B5E2sQNwggr+226PBEma3QNeq
rT96wqfBPeHKQG+rfj95qbHB/uygQO1KBcAqUJzB8hiIQH79VkD2c5bBWIDPQL1kP0CfuJnB5qbt
QKnGR0A5/bLBJdSkQFa0hkCNyLXBj4TKQH3dqEBc56rBWDK2QENqNEC0FqTBSynHQDrXbkC3Ta3B
QCCrPuAyKsAv+HfBAFKvQAmriMAXNpXBmuV9QBQZ97/wwpXBQbaKQM2yTUBK4qDBlOhEQGPMaUC+
E5HB3VrfQN6l9D+aNbjBAUyvQCq0SUCroZHB6vCqQJ0AsUCvjLLBPeO9QPm7GMDPe7DB4/3WQLY2
HL8HxrzB2R6ZQLMYGT9IaJnBwQiEQFx4ncACaYnBytzUQGo6WMDmM6HB0DTjQIJ/BkBrHJjBSynk
QCtLeEC4I5rB3jf6QBH0dEBh9rjByWwDQXukOECZJK3BaOCtQPNxgEB8JL7BvV2EQCfZdEAVUbTB
jWDBQIXHsUD6s6LBHOLpQKTitkCk0azBZI8CvuBK1b+voHnBfHLHvvezW8AmtnzBzMYhP9NUNMB9
N2fBEcdkQD2gVkAT9qXBXNxEQIehbkCXGYnBt6UOQIqIckAkLZXB

> <OMEGA_E>
PL38Pg==

> <OMEGA_NBR>
     45161

$$$$
50097316
  -OEChem-04172616093D

 45 49  0     1  0  0  0  0  0999 V2000
    3.5967   -3.0699  -17.9232 C   0  0  0  0  0  0  0  0  0  0  0  0
    3.9866   -2.0248  -18.7712 C   0  0  0  0  0  0  0  0  0  0  0  0
    6.0437   -1.3375  -21.7501 C   0  0  0  0  0  0  0  0  0  0  0  0
    6.4047   -0.2731  -22.5911 C   0  0  0  0  0  0  0  0  0  0  0  0
    5.5008    0.2452  -19.9805 C   0  0  0  0  0  0  0  0  0  0  0  0
    4.3796   -4.2393  -17.8706 C   0  0  0  0  0  0  0  0  0  0  0  0
    5.5784   -1.0809  -20.4420 C   0  0  0  0  0  0  0  0  0  0  0  0
    5.1498   -2.1783  -19.5544 C   0  0  0  0  0  0  0  0  0  0  0  0
    5.8972    1.3175  -20.8034 C   0  0  0  0  0  0  0  0  0  0  0  0
    6.3039    1.0549  -22.1395 C   0  0  0  0  0  0  0  0  0  0  0  0
    5.8950   -3.3816  -19.4474 C   0  0  0  0  0  0  0  0  0  0  0  0
    4.1778    3.3399  -18.7619 C   0  0  0  0  0  0  0  0  0  0  0  0
    6.0780    5.2199  -20.9759 C   0  0  0  0  0  0  0  0  0  0  0  0
    6.7030    6.1323  -22.0392 C   0  0  0  0  0  0  0  0  0  0  0  0
    6.6890    4.3763  -23.6966 C   0  0  0  0  0  0  0  0  0  0  0  0
    6.4166    2.8727  -18.8738 C   0  0  0  0  0  0  0  0  0  0  0  0
    6.4720    3.7404  -21.2598 C   0  0  2  0  0  0  0  0  0  0  0  0
    6.0842    3.3672  -22.7075 C   0  0  2  0  0  0  0  0  0  0  0  0
    5.8023    2.7445  -20.2687 C   0  0  1  0  0  0  0  0  0  0  0  0
    5.5008   -4.3769  -18.6180 N   0  0  0  0  0  0  0  0  0  0  0  0
    4.3885    3.0754  -20.0335 N   0  3  0  0  0  0  0  0  0  0  0  0
    2.9766    3.7968  -18.2461 N   0  0  0  0  0  0  0  0  0  0  0  0
    6.6002    2.0612  -23.0359 O   0  0  0  0  0  0  0  0  0  0  0  0
    5.3011    3.0828  -18.0054 O   0  0  0  0  0  0  0  0  0  0  0  0
    6.2731    5.7125  -23.3515 O   0  0  0  0  0  0  0  0  0  0  0  0
    7.0501   -3.5438  -20.1363 F   0  0  0  0  0  0  0  0  0  0  0  0
    2.7070   -2.9797  -17.3176 H   0  0  0  0  0  0  0  0  0  0  0  0
    3.4057   -1.1160  -18.8243 H   0  0  0  0  0  0  0  0  0  0  0  0
    6.1220   -2.3548  -22.1044 H   0  0  0  0  0  0  0  0  0  0  0  0
    6.7616   -0.4751  -23.5902 H   0  0  0  0  0  0  0  0  0  0  0  0
    5.1333    0.4435  -18.9845 H   0  0  0  0  0  0  0  0  0  0  0  0
    4.0788   -5.0460  -17.2184 H   0  0  0  0  0  0  0  0  0  0  0  0
    6.4455    5.5121  -19.9811 H   0  0  0  0  0  0  0  0  0  0  0  0
    4.9829    5.3194  -21.0060 H   0  0  0  0  0  0  0  0  0  0  0  0
    6.3838    7.1703  -21.8642 H   0  0  0  0  0  0  0  0  0  0  0  0
    7.7994    6.0703  -21.9761 H   0  0  0  0  0  0  0  0  0  0  0  0
    7.7865    4.3140  -23.6555 H   0  0  0  0  0  0  0  0  0  0  0  0
    6.3461    4.1392  -24.7145 H   0  0  0  0  0  0  0  0  0  0  0  0
    6.9536    1.9526  -18.6002 H   0  0  0  0  0  0  0  0  0  0  0  0
    7.1079    3.7272  -18.8313 H   0  0  0  0  0  0  0  0  0  0  0  0
    7.5633    3.6481  -21.1572 H   0  0  0  0  0  0  0  0  0  0  0  0
    4.9883    3.3825  -22.8011 H   0  0  0  0  0  0  0  0  0  0  0  0
    3.6839    3.0965  -20.7428 H   0  0  0  0  0  0  0  0  0  0  0  0
    2.8844    3.9613  -17.2640 H   0  0  0  0  0  0  0  0  0  0  0  0
    2.2013    3.9622  -18.8557 H   0  0  0  0  0  0  0  0  0  0  0  0
  1  2  1  0  0  0  0
  1  6  2  0  0  0  0
  2  8  2  0  0  0  0
  3  4  2  0  0  0  0
  3  7  1  0  0  0  0
  4 10  1  0  0  0  0
  5  7  2  0  0  0  0
  5  9  1  0  0  0  0
  6 20  1  0  0  0  0
  7  8  1  0  0  0  0
  8 11  1  0  0  0  0
  9 10  2  0  0  0  0
  9 19  1  0  0  0  0
 10 23  1  0  0  0  0
 11 20  2  0  0  0  0
 11 26  1  0  0  0  0
 12 21  2  0  0  0  0
 12 22  1  0  0  0  0
 12 24  1  0  0  0  0
 13 14  1  0  0  0  0
 13 17  1  0  0  0  0
 14 25  1  0  0  0  0
 15 18  1  0  0  0  0
 15 25  1  0  0  0  0
 16 19  1  0  0  0  0
 16 24  1  0  0  0  0
 17 18  1  0  0  0  0
 17 19  1  0  0  0  0
 18 23  1  0  0  0  0
 19 21  1  0  0  0  0
  1 27  1  0  0  0  0
  2 28  1  0  0  0  0
  3 29  1  0  0  0  0
  4 30  1  0  0  0  0
  5 31  1  0  0  0  0
  6 32  1  0  0  0  0
 13 33  1  0  0  0  0
 13 34  1  0  0  0  0
 14 35  1  0  0  0  0
 14 36  1  0  0  0  0
 15 37  1  0  0  0  0
 15 38  1  0  0  0  0
 16 39  1  0  0  0  0
 16 40  1  0  0  0  0
 17 41  1  0  0  0  0
 18 42  1  0  0  0  0
 21 43  1  0  0  0  0
 22 44  1  0  0  0  0
 22 45  1  0  0  0  0
M  CHG  1  21   1
M  END
> <OMEGA_C>
yy9mQL94RMC1Yo/B9SR/QAmXAcBYK5bBCWbBQCk0q79OAK7B8/LMQCLRi76jurTBJwawQNUNez4G
2J/BEyaMQLqoh8Dk9o7BkIKyQCRbir9DiaPBkcukQAhpC8Bkb5zBsLW8QD2lqD9zbabBkLnJQBYI
hz+mHbHBh6O8QDVsWMA1lJvBr7CFQEPAVUBhGJbBNX/CQGYJp0CLzqfBw37WQKk7xEBNULDBMgzW
QEEKjECPkr3BiFTNQI7aN0Ci/ZbBPhrPQCxib0AiFKrBtbHCQL9/V0DkqLXBQ6y5QESmL0A4JqLB
7gawQM0PjMCo8ZTBam6MQP3TRECNRKDBeoA+QF3+ckAB+JHBJDXTQLjqA0B/SbjBPKKpQHVMRUD+
CpDB5LzIQH/MtkDIz7rBwJrhQDfOYsAeF6HB0z4tQKWzPsCKiorBv/ZZQKnXjr87mJbB1efDQES0
FsDi1bDBCl/YQLs6877KuLzBnUOkQN0Y4z4+4JfBrIWCQJt4ocBbv4nBtEHOQM5isEA72Z/BUnSf
QEc4qkA6DKjBuEfMQA5z5UDf6a7BvZT5QI0/wkD5zq/Bqir5QGoMikBtPr3BkRPLQFZ0hEBct8XB
EYTeQF3t+T80zZTBPHTjQOqKbkBsppbBRgbyQJt6aUAEQqnBFKCfQF16WECfaLbBwcVrQN4tRkBQ
8aXBtZo4QOGFfUC/HIrBjOIMQJyUfUBy2JbB

> <OMEGA_E>
AJgKPQ==

> <OMEGA_NBR>
     46227

$$$$
50097317
  -OEChem-04172616093D

 45 49  0     1  0  0  0  0  0999 V2000
    6.0935   -1.3491  -21.6953 C   0  0  0  0  0  0  0  0  0  0  0  0
    6.4305   -0.2904  -22.5533 C   0  0  0  0  0  0  0  0  0  0  0  0
    5.4615    0.2513  -19.9700 C   0  0  0  0  0  0  0  0  0  0  0  0
    4.0050   -2.0434  -18.7313 C   0  0  0  0  0  0  0  0  0  0  0  0
    5.9048   -3.3717  -19.4712 C   0  0  0  0  0  0  0  0  0  0  0  0
    4.4215   -4.2849  -17.9018 C   0  0  0  0  0  0  0  0  0  0  0  0
    5.5775   -1.0780  -20.4110 C   0  0  0  0  0  0  0  0  0  0  0  0
    5.1596   -2.1727  -19.5279 C   0  0  0  0  0  0  0  0  0  0  0  0
    5.8630    1.3164  -20.7980 C   0  0  0  0  0  0  0  0  0  0  0  0
    6.2848    1.0426  -22.1275 C   0  0  0  0  0  0  0  0  0  0  0  0
    3.6267   -3.1196  -17.9184 C   0  0  0  0  0  0  0  0  0  0  0  0
    4.1685    3.3661  -18.7616 C   0  0  0  0  0  0  0  0  0  0  0  0
    6.1087    5.2107  -20.9776 C   0  0  0  0  0  0  0  0  0  0  0  0
    6.7556    6.1049  -22.0416 C   0  0  0  0  0  0  0  0  0  0  0  0
    6.6844    4.3522  -23.7019 C   0  0  0  0  0  0  0  0  0  0  0  0
    6.4025    2.8697  -18.8741 C   0  0  0  0  0  0  0  0  0  0  0  0
    6.4683    3.7241  -21.2626 C   0  0  2  0  0  0  0  0  0  0  0  0
    6.0680    3.3546  -22.7082 C   0  0  2  0  0  0  0  0  0  0  0  0
    5.7836    2.7450  -20.2678 C   0  0  1  0  0  0  0  0  0  0  0  0
    5.5363   -4.3933  -18.6649 N   0  0  0  0  0  0  0  0  0  0  0  0
    4.3757    3.0968  -20.0327 N   0  3  0  0  0  0  0  0  0  0  0  0
    2.9660    3.8210  -18.2468 N   0  0  0  0  0  0  0  0  0  0  0  0
    6.5678    2.0415  -23.0367 O   0  0  0  0  0  0  0  0  0  0  0  0
    5.2933    3.1113  -18.0055 O   0  0  0  0  0  0  0  0  0  0  0  0
    6.3061    5.6981  -23.3510 O   0  0  0  0  0  0  0  0  0  0  0  0
    2.5057   -3.0417  -17.1666 F   0  0  0  0  0  0  0  0  0  0  0  0
    6.2294   -2.3706  -22.0184 H   0  0  0  0  0  0  0  0  0  0  0  0
    6.8033   -0.5001  -23.5450 H   0  0  0  0  0  0  0  0  0  0  0  0
    5.0613    0.4572  -18.9883 H   0  0  0  0  0  0  0  0  0  0  0  0
    3.4235   -1.1334  -18.7469 H   0  0  0  0  0  0  0  0  0  0  0  0
    6.7875   -3.4747  -20.0849 H   0  0  0  0  0  0  0  0  0  0  0  0
    4.1349   -5.1098  -17.2664 H   0  0  0  0  0  0  0  0  0  0  0  0
    6.4831    5.4944  -19.9829 H   0  0  0  0  0  0  0  0  0  0  0  0
    5.0163    5.3362  -21.0077 H   0  0  0  0  0  0  0  0  0  0  0  0
    6.4685    7.1519  -21.8644 H   0  0  0  0  0  0  0  0  0  0  0  0
    7.8500    6.0101  -21.9840 H   0  0  0  0  0  0  0  0  0  0  0  0
    7.7805    4.2634  -23.6740 H   0  0  0  0  0  0  0  0  0  0  0  0
    6.3238    4.1255  -24.7160 H   0  0  0  0  0  0  0  0  0  0  0  0
    6.9190    1.9397  -18.5942 H   0  0  0  0  0  0  0  0  0  0  0  0
    7.1130    3.7087  -18.8387 H   0  0  0  0  0  0  0  0  0  0  0  0
    7.5578    3.6087  -21.1645 H   0  0  0  0  0  0  0  0  0  0  0  0
    4.9721    3.3841  -22.7977 H   0  0  0  0  0  0  0  0  0  0  0  0
    3.6715    3.1273  -20.7421 H   0  0  0  0  0  0  0  0  0  0  0  0
    2.8729    3.9861  -17.2650 H   0  0  0  0  0  0  0  0  0  0  0  0
    2.1907    3.9843  -18.8570 H   0  0  0  0  0  0  0  0  0  0  0  0
  1  2  1  0  0  0  0
  1  7  2  0  0  0  0
  2 10  2  0  0  0  0
  3  7  1  0  0  0  0
  3  9  2  0  0  0  0
  4  8  1  0  0  0  0
  4 11  2  0  0  0  0
  5  8  2  0  0  0  0
  5 20  1  0  0  0  0
  6 11  1  0  0  0  0
  6 20  2  0  0  0  0
  7  8  1  0  0  0  0
  9 10  1  0  0  0  0
  9 19  1  0  0  0  0
 10 23  1  0  0  0  0
 11 26  1  0  0  0  0
 12 21  2  0  0  0  0
 12 22  1  0  0  0  0
 12 24  1  0  0  0  0
 13 14  1  0  0  0  0
 13 17  1  0  0  0  0
 14 25  1  0  0  0  0
 15 18  1  0  0  0  0
 15 25  1  0  0  0  0
 16 19  1  0  0  0  0
 16 24  1  0  0  0  0
 17 18  1  0  0  0  0
 17 19  1  0  0  0  0
 18 23  1  0  0  0  0
 19 21  1  0  0  0  0
  1 27  1  0  0  0  0
  2 28  1  0  0  0  0
  3 29  1  0  0  0  0
  4 30  1  0  0  0  0
  5 31  1  0  0  0  0
  6 32  1  0  0  0  0
 13 33  1  0  0  0  0
 13 34  1  0  0  0  0
 14 35  1  0  0  0  0
 14 36  1  0  0  0  0
 15 37  1  0  0  0  0
 15 38  1  0  0  0  0
 16 39  1  0  0  0  0
 16 40  1  0  0  0  0
 17 41  1  0  0  0  0
 18 42  1  0  0  0  0
 21 43  1  0  0  0  0
 22 44  1  0  0  0  0
 22 45  1  0  0  0  0
M  CHG  1  21   1
M  END
> <OMEGA_C>
Wv7CQI6urL/wj63BpsbNQPGplL48bbTB0MSuQK6rgD6Rwp/B2yiAQGLGAsCi2ZXByPO8QIXJV8AP
xZvBtXyNQCkeicDwNo/BpHqyQK36ib+tSaPBahulQAENC8AOOZzBnp27QEJ+qD9jYqbBSh3JQL5y
hT8PBbHBgRxoQDeoR8DiWI/Bc2SFQFJuV0DJF5bBo3rDQOi9pkAI0qfBNS7YQKRbw0BMVbDBw+bV
QFlFi0Bknb3BQuHMQOuoN0AX/pbBYPzOQOZXbkDfGarBKS3CQAWxVkB3qrXBWRO5QLOtL0CEJKLB
JymxQE+WjMCdUZXBZQWMQGkyRkABQ6DBitI9QOyKdECE+ZHBvyvSQEaoAkA9S7jBu2KpQBsgR0Ba
C5DBWcvJQBhXtkDxzrrBNV0gQPSqQsA7VYnBaVfHQBy4F8CvJbDBnLTZQGEEAL82XLzBUPahQO8b
6j7z55fBGxtbQJUSkb+3+ZXBFzPZQPxhXsDSraDBW1GEQNCDo8CAIYrBmnXPQHbSr0AA3Z/Bp4Wg
QMnBqkC3D6jBvP3OQFvc5EBc6q7BdjP7QOtSwEBV36/Bn/n4QIttiEBQZL3B7lzKQDEEhEB2usXB
rGjdQL1H+D//wJTB7J3jQNNabUCUtZbBtdnxQBj1ZkDfUKnBGBufQOKUWEDAYbbBvvlqQB4mSEDR
76XB9d03QFocf0CkHorBwTQMQL/+fkAk25bBkJXCQIb9q7+Yz63B4efOQNoqk74Cj7TB8RCvQPQy
hT7V+5/BCLq5QCdlVcCcvpvBJoV6QA0K+782SZbBEq2FQA6RgsAum47BL4axQAUyiL9vmaPBtYqi
QC6+CMDbkZzB9A29QN66qD+je6bBkQ/LQM/whT/JE7HB6TurQKP6icBHmJTB9DmGQDSFVUBAEpbB
FOLBQCa3pkDN1qfB0E7VQCsgxEBNW7DBpqPVQGzxi0B5oL3BPgfOQIqtN0CbE5fBPRjPQG0yb0AB
IqrBHRrDQOZvVkCItrXB5QC6QJlgL0BCMqLB9b1eQK4wO8BTio/B1b6MQEjmQ0CGO6DBVag+QEtc
b0BS3JHBk7rUQGlhA0DfPLjBwe+qQH46SkBOHpDBO3jHQFNntkD00rrBplLBQLrRrsAVb5PBdSnG
QOl2F8DxbrDBT1zbQAu1/74HcLzB7UyiQH3d7z4wIZjBGhLWQC7bX8ARg6DBhg5XQFPIhL8w5ZbB
+O50QNbsmsC8J4nB6qjNQDY3sEDB5J/B38ueQJtrqUApCqjB8K3KQLI15UD9867Bdm34QAGdwkAF
5q/BLcz4QDKvikAhVr3Bo7DKQI8yhEBWw8XBBa/dQOP79j//uZTBgJLlQJ3/a0A57ZbBRQnyQLcy
akBkRanB3AmgQMmEVUCLerbBhAJsQClkREBR3KXBoD45QI4be0CUBorBPuQLQApGdkClp5bB

> <OMEGA_E>
gPIoPEDBVz4=

> <OMEGA_NBR>
     48083

$$$$
50097318
  -OEChem-04172616093D

 47 51  0     1  0  0  0  0  0999 V2000
    2.3812   -2.8291  -17.0831 C   0  0  0  0  0  0  0  0  0  0  0  0
    5.4423   -4.3558  -18.6089 C   0  0  0  0  0  0  0  0  0  0  0  0
    4.2947   -4.1880  -17.8109 C   0  0  0  0  0  0  0  0  0  0  0  0
    5.8407   -3.3379  -19.4920 C   0  0  0  0  0  0  0  0  0  0  0  0
    6.0438   -1.3337  -21.7343 C   0  0  0  0  0  0  0  0  0  0  0  0
    6.4122   -0.2769  -22.5807 C   0  0  0  0  0  0  0  0  0  0  0  0
    3.9452   -1.9736  -18.7676 C   0  0  0  0  0  0  0  0  0  0  0  0
    5.4613    0.2670  -19.9912 C   0  0  0  0  0  0  0  0  0  0  0  0
    3.5438   -2.9983  -17.8937 C   0  0  0  0  0  0  0  0  0  0  0  0
    5.0977   -2.1411  -19.5674 C   0  0  0  0  0  0  0  0  0  0  0  0
    5.5378   -1.0583  -20.4475 C   0  0  0  0  0  0  0  0  0  0  0  0
    5.8839    1.3277  -20.8094 C   0  0  0  0  0  0  0  0  0  0  0  0
    6.3027    1.0545  -22.1399 C   0  0  0  0  0  0  0  0  0  0  0  0
    4.1847    3.3367  -18.7550 C   0  0  0  0  0  0  0  0  0  0  0  0
    6.0991    5.2186  -20.9873 C   0  0  0  0  0  0  0  0  0  0  0  0
    6.7281    6.1210  -22.0554 C   0  0  0  0  0  0  0  0  0  0  0  0
    6.6949    4.3632  -23.7095 C   0  0  0  0  0  0  0  0  0  0  0  0
    6.4311    2.8787  -18.8832 C   0  0  0  0  0  0  0  0  0  0  0  0
    6.4798    3.7376  -21.2699 C   0  0  2  0  0  0  0  0  0  0  0  0
    6.0898    3.3606  -22.7161 C   0  0  2  0  0  0  0  0  0  0  0  0
    5.8052    2.7532  -20.2740 C   0  0  1  0  0  0  0  0  0  0  0  0
    1.4343   -2.6958  -16.4166 N   0  0  0  0  0  0  0  0  0  0  0  0
    4.3958    3.0956  -20.0311 N   0  3  0  0  0  0  0  0  0  0  0  0
    2.9598    3.7041  -18.2232 N   0  0  0  0  0  0  0  0  0  0  0  0
    6.6074    2.0546  -23.0379 O   0  0  0  0  0  0  0  0  0  0  0  0
    5.3342    3.1667  -18.0122 O   0  0  0  0  0  0  0  0  0  0  0  0
    6.2874    5.7011  -23.3640 O   0  0  0  0  0  0  0  0  0  0  0  0
    6.0171   -5.2677  -18.5423 H   0  0  0  0  0  0  0  0  0  0  0  0
    3.9892   -4.9724  -17.1341 H   0  0  0  0  0  0  0  0  0  0  0  0
    6.7147   -3.4716  -20.1122 H   0  0  0  0  0  0  0  0  0  0  0  0
    6.1477   -2.3556  -22.0678 H   0  0  0  0  0  0  0  0  0  0  0  0
    6.7811   -0.4864  -23.5739 H   0  0  0  0  0  0  0  0  0  0  0  0
    3.3735   -1.0593  -18.8277 H   0  0  0  0  0  0  0  0  0  0  0  0
    5.0748    0.4726  -19.0039 H   0  0  0  0  0  0  0  0  0  0  0  0
    6.4728    5.5101  -19.9946 H   0  0  0  0  0  0  0  0  0  0  0  0
    5.0048    5.3273  -21.0135 H   0  0  0  0  0  0  0  0  0  0  0  0
    6.4202    7.1627  -21.8822 H   0  0  0  0  0  0  0  0  0  0  0  0
    7.8241    6.0481  -21.9973 H   0  0  0  0  0  0  0  0  0  0  0  0
    7.7923    4.2953  -23.6737 H   0  0  0  0  0  0  0  0  0  0  0  0
    6.3458    4.1263  -24.7254 H   0  0  0  0  0  0  0  0  0  0  0  0
    6.9199    1.9372  -18.5921 H   0  0  0  0  0  0  0  0  0  0  0  0
    7.1672    3.6958  -18.8621 H   0  0  0  0  0  0  0  0  0  0  0  0
    7.5704    3.6371  -21.1678 H   0  0  0  0  0  0  0  0  0  0  0  0
    4.9939    3.3751  -22.8091 H   0  0  0  0  0  0  0  0  0  0  0  0
    3.6924    3.1393  -20.7405 H   0  0  0  0  0  0  0  0  0  0  0  0
    2.8691    3.8641  -17.2403 H   0  0  0  0  0  0  0  0  0  0  0  0
    2.1660    3.8093  -18.8223 H   0  0  0  0  0  0  0  0  0  0  0  0
  1  9  1  0  0  0  0
  1 22  3  0  0  0  0
  2  3  1  0  0  0  0
  2  4  2  0  0  0  0
  3  9  2  0  0  0  0
  4 10  1  0  0  0  0
  5  6  2  0  0  0  0
  5 11  1  0  0  0  0
  6 13  1  0  0  0  0
  7  9  1  0  0  0  0
  7 10  2  0  0  0  0
  8 11  2  0  0  0  0
  8 12  1  0  0  0  0
 10 11  1  0  0  0  0
 12 13  2  0  0  0  0
 12 21  1  0  0  0  0
 13 25  1  0  0  0  0
 14 23  2  0  0  0  0
 14 24  1  0  0  0  0
 14 26  1  0  0  0  0
 15 16  1  0  0  0  0
 15 19  1  0  0  0  0
 16 27  1  0  0  0  0
 17 20  1  0  0  0  0
 17 27  1  0  0  0  0
 18 21  1  0  0  0  0
 18 26  1  0  0  0  0
 19 20  1  0  0  0  0
 19 21  1  0  0  0  0
 20 25  1  0  0  0  0
 21 23  1  0  0  0  0
  2 28  1  0  0  0  0
  3 29  1  0  0  0  0
  4 30  1  0  0  0  0
  5 31  1  0  0  0  0
  6 32  1  0  0  0  0
  7 33  1  0  0  0  0
  8 34  1  0  0  0  0
 15 35  1  0  0  0  0
 15 36  1  0  0  0  0
 16 37  1  0  0  0  0
 16 38  1  0  0  0  0
 17 39  1  0  0  0  0
 17 40  1  0  0  0  0
 18 41  1  0  0  0  0
 18 42  1  0  0  0  0
 19 43  1  0  0  0  0
 20 44  1  0  0  0  0
 23 45  1  0  0  0  0
 24 46  1  0  0  0  0
 24 47  1  0  0  0  0
M  CHG  1  23   1
M  END
> <OMEGA_C>
92QYQPEPNcA1qojBRieuQGxii8AR35TB122JQHwEhsCrfI7B+ua6QPWfVcCg75vBEmfBQCC1qr/a
363BzDDNQNTEjb47pbTBTH58QO6f/L8SJJbBGsOuQNCtiD4G7p/B3s1iQLDkP8BGJo/BFiCjQHII
CcAVipzBbDWxQCR3h79zlKPBh0i8QPvwqT+zeabBlK/JQBb6hj+ZHrHBM+mFQOCLVUAmCpbBAizD
QJL+pkDm5afBSkzXQGTfw0B9cbDB9TzWQJKfi0AXrb3BfcvNQDA8OEC2EJfBqFrPQCE0b0DNKKrB
49/CQN8TV0ClurXBEMS5QAA0MEAOMaLB4JW3P4mILMAsVYPBkqqMQNIdRkCYP6DB/Ww9QGsPbUAv
yZHBKnDTQFV/A0CvTbjBGLKqQImqSkAIGZDBoDLJQI5vtkB26brB4IvAQNuQqMC2VpTBTU9/QJUd
n8C8EonBq97WQGsvXsDQ5aDB/rnEQELCFsDbirDBof7YQPIG+b5Ol7zBFudXQL+Yh780n5bB5GSi
QDLz8T4NCJjBeSHPQAtTsED69J/BeSegQNd4qkCsG6jBFHLNQDo15UC3Dq/BCl/6QB2KwUBg+q/B
MFr5QCJziUDXY73BABHLQN0KhECYzcXBpG/dQH729z+QvJTB1VnlQMSHbECF5ZbBGUHyQM/FaECm
V6nBr82fQI8BWEDzeLbB/k9sQCXqSEB37KXBmp83QAFNd0Ae7InBsZ8KQB3Mc0D9k5bB

> <OMEGA_E>
yDNJPg==

> <OMEGA_NBR>
     49181

$$$$
50097326
  -OEChem-04172616093D

 46 50  0     1  0  0  0  0  0999 V2000
    6.0518   -1.3382  -21.7202 C   0  0  0  0  0  0  0  0  0  0  0  0
    6.4152   -0.2834  -22.5700 C   0  0  0  0  0  0  0  0  0  0  0  0
    5.4417    0.2632  -19.9875 C   0  0  0  0  0  0  0  0  0  0  0  0
    5.8706   -3.3375  -19.5021 C   0  0  0  0  0  0  0  0  0  0  0  0
    3.9689   -2.0057  -18.7391 C   0  0  0  0  0  0  0  0  0  0  0  0
    4.3365   -4.2389  -17.8372 C   0  0  0  0  0  0  0  0  0  0  0  0
    5.5355   -1.0621  -20.4366 C   0  0  0  0  0  0  0  0  0  0  0  0
    5.1173   -2.1484  -19.5510 C   0  0  0  0  0  0  0  0  0  0  0  0
    5.8624    1.3226  -20.8084 C   0  0  0  0  0  0  0  0  0  0  0  0
    6.2890    1.0481  -22.1365 C   0  0  0  0  0  0  0  0  0  0  0  0
    5.4842   -4.3768  -18.6433 C   0  0  0  0  0  0  0  0  0  0  0  0
    3.5745   -3.0552  -17.8919 C   0  0  0  0  0  0  0  0  0  0  0  0
    4.1751    3.3420  -18.7569 C   0  0  0  0  0  0  0  0  0  0  0  0
    6.1239    5.2103  -20.9749 C   0  0  0  0  0  0  0  0  0  0  0  0
    6.7596    6.1056  -22.0439 C   0  0  0  0  0  0  0  0  0  0  0  0
    6.6847    4.3559  -23.7052 C   0  0  0  0  0  0  0  0  0  0  0  0
    6.4125    2.8605  -18.8772 C   0  0  0  0  0  0  0  0  0  0  0  0
    6.4815    3.7247  -21.2637 C   0  0  2  0  0  0  0  0  0  0  0  0
    6.0796    3.3557  -22.7099 C   0  0  2  0  0  0  0  0  0  0  0  0
    5.7931    2.7469  -20.2716 C   0  0  1  0  0  0  0  0  0  0  0  0
    4.3870    3.1046  -20.0335 N   0  3  0  0  0  0  0  0  0  0  0  0
    2.9666    3.7727  -18.2355 N   0  0  0  0  0  0  0  0  0  0  0  0
    6.5865    2.0470  -23.0385 O   0  0  0  0  0  0  0  0  0  0  0  0
    5.3011    3.0795  -18.0047 O   0  0  0  0  0  0  0  0  0  0  0  0
    6.2995    5.6976  -23.3493 O   0  0  0  0  0  0  0  0  0  0  0  0
    6.2180   -5.5094  -18.5986 F   0  0  0  0  0  0  0  0  0  0  0  0
    2.1324   -2.8945  -16.9227 Cl  0  0  0  0  0  0  0  0  0  0  0  0
    6.1670   -2.3607  -22.0481 H   0  0  0  0  0  0  0  0  0  0  0  0
    6.7928   -0.4943  -23.5595 H   0  0  0  0  0  0  0  0  0  0  0  0
    5.0437    0.4704  -19.0051 H   0  0  0  0  0  0  0  0  0  0  0  0
    6.7454   -3.4489  -20.1255 H   0  0  0  0  0  0  0  0  0  0  0  0
    3.3954   -1.0911  -18.7699 H   0  0  0  0  0  0  0  0  0  0  0  0
    4.0409   -5.0411  -17.1773 H   0  0  0  0  0  0  0  0  0  0  0  0
    6.5075    5.4939  -19.9837 H   0  0  0  0  0  0  0  0  0  0  0  0
    5.0312    5.3350  -20.9946 H   0  0  0  0  0  0  0  0  0  0  0  0
    6.4718    7.1520  -21.8643 H   0  0  0  0  0  0  0  0  0  0  0  0
    7.8546    6.0131  -21.9958 H   0  0  0  0  0  0  0  0  0  0  0  0
    7.7814    4.2736  -23.6834 H   0  0  0  0  0  0  0  0  0  0  0  0
    6.3201    4.1284  -24.7178 H   0  0  0  0  0  0  0  0  0  0  0  0
    6.9391    1.9325  -18.6096 H   0  0  0  0  0  0  0  0  0  0  0  0
    7.1142    3.7064  -18.8319 H   0  0  0  0  0  0  0  0  0  0  0  0
    7.5707    3.6065  -21.1652 H   0  0  0  0  0  0  0  0  0  0  0  0
    4.9831    3.3776  -22.7955 H   0  0  0  0  0  0  0  0  0  0  0  0
    3.6867    3.1599  -20.7452 H   0  0  0  0  0  0  0  0  0  0  0  0
    2.8689    3.9133  -17.2502 H   0  0  0  0  0  0  0  0  0  0  0  0
    2.1918    3.9431  -18.8442 H   0  0  0  0  0  0  0  0  0  0  0  0
  1  2  1  0  0  0  0
  1  7  2  0  0  0  0
  2 10  2  0  0  0  0
  3  7  1  0  0  0  0
  3  9  2  0  0  0  0
  4  8  1  0  0  0  0
  4 11  2  0  0  0  0
  5  8  2  0  0  0  0
  5 12  1  0  0  0  0
  6 11  1  0  0  0  0
  6 12  2  0  0  0  0
  7  8  1  0  0  0  0
  9 10  1  0  0  0  0
  9 20  1  0  0  0  0
 10 23  1  0  0  0  0
 11 26  1  0  0  0  0
 12 27  1  0  0  0  0
 13 21  2  0  0  0  0
 13 22  1  0  0  0  0
 13 24  1  0  0  0  0
 14 15  1  0  0  0  0
 14 18  1  0  0  0  0
 15 25  1  0  0  0  0
 16 19  1  0  0  0  0
 16 25  1  0  0  0  0
 17 20  1  0  0  0  0
 17 24  1  0  0  0  0
 18 19  1  0  0  0  0
 18 20  1  0  0  0  0
 19 23  1  0  0  0  0
 20 21  1  0  0  0  0
  1 28  1  0  0  0  0
  2 29  1  0  0  0  0
  3 30  1  0  0  0  0
  4 31  1  0  0  0  0
  5 32  1  0  0  0  0
  6 33  1  0  0  0  0
 14 34  1  0  0  0  0
 14 35  1  0  0  0  0
 15 36  1  0  0  0  0
 15 37  1  0  0  0  0
 16 38  1  0  0  0  0
 16 39  1  0  0  0  0
 17 40  1  0  0  0  0
 17 41  1  0  0  0  0
 18 42  1  0  0  0  0
 19 43  1  0  0  0  0
 21 44  1  0  0  0  0
 22 45  1  0  0  0  0
 22 46  1  0  0  0  0
M  CHG  1  21   1
M  END
> <OMEGA_C>
I6jBQHtJq78Nw63BOEnNQMIXkb5Lj7TBNSKuQAPDhj5u5p/BOty7QG6ZVcA7BJzB3wJ+QA1dAMCt
6ZXBYsSKQDOlh8Cqso7BjiKxQNfzh78SfqPBxMCjQFB/CcB+aJzB9Zi7QLZKqT+Gd6bBWT/JQPYn
hj+JF7HBlX6vQN8OjMBoJZXBkcRkQHaIQ8CSIo/BtpqFQNviVUAcDpbBAvfDQP+6pkCpzKfBb07Y
QPFgw0ACWrDBU+nVQDhji0BWpL3BETPNQCMSN0CCBJfBcmjPQMhgbkD4G6rBw4vCQMDDVkD5rbXB
6mC5QPvNL0AxLKLB6GGMQJGxRkCTRKDBTN09QO5zcUA04pHBocTSQPkBA0DRTrjBhKKpQK0WRUCK
CZDBd5XJQAJTtkBqy7rB0vnGQBZNsMDdyZTBVnkIQNM+OcC9YYfBF1jFQDIWF8CUYrDBAl/ZQNQa
/b70ebzBQmahQB/d8D59CpjBktrXQGC6XMAcAaHBfk1ZQOWoi7+uKJbBxk6BQJ9QocAXa4nBMz3Q
QMTNr0Cu3p/BUf+gQDS4qkAJ9afBlBjPQMfc5EAW6q7BB1n7QAdrwEBX96/BfQH5QB3BiECOd73B
Hj7KQNcbhEATvsXB2gzeQL1c9z+K4JTBa6fjQHc1bUCnp5bBHkPyQN3QZkBOUqnBr3WfQAkrWEBG
XbbBrvJrQKA7SkA39qXBlJs3QJdzekB1AIrBtkUMQA1cfEDVwJbB

> <OMEGA_E>
MKLzPQ==

> <OMEGA_NBR>
     50264

$$$$
361715
  -OEChem-04172616093D

 44 48  0     1  0  0  0  0  0999 V2000
    1.3398   -2.8992  -16.5074 C   0  0  0  0  0  0  0  0  0  0  0  0
    2.3589   -2.9656  -17.1622 C   0  0  0  0  0  0  0  0  0  0  0  0
    6.0159   -1.3631  -21.7361 C   0  0  0  0  0  0  0  0  0  0  0  0
    6.4300   -0.3447  -22.6064 C   0  0  0  0  0  0  0  0  0  0  0  0
    3.9206   -1.9814  -18.7716 C   0  0  0  0  0  0  0  0  0  0  0  0
    5.3585    0.3081  -20.0879 C   0  0  0  0  0  0  0  0  0  0  0  0
    4.3652   -4.1974  -17.8782 C   0  0  0  0  0  0  0  0  0  0  0  0
    5.8462   -3.2998  -19.4549 C   0  0  0  0  0  0  0  0  0  0  0  0
    3.5538   -3.0447  -17.9354 C   0  0  0  0  0  0  0  0  0  0  0  0
    5.4890   -1.0413  -20.4696 C   0  0  0  0  0  0  0  0  0  0  0  0
    5.0825   -2.1131  -19.5518 C   0  0  0  0  0  0  0  0  0  0  0  0
    5.8011    1.3395  -20.9447 C   0  0  0  0  0  0  0  0  0  0  0  0
    6.3619    1.0021  -22.2094 C   0  0  0  0  0  0  0  0  0  0  0  0
    4.2544    3.4268  -18.8054 C   0  0  0  0  0  0  0  0  0  0  0  0
    6.4876    3.0022  -19.1833 C   0  0  0  0  0  0  0  0  0  0  0  0
    7.3165    3.1749  -22.4554 C   0  0  0  0  0  0  0  0  0  0  0  0
    5.0363    4.3168  -22.5889 C   0  0  0  0  0  0  0  0  0  0  0  0
    6.3432    5.2784  -21.2696 C   0  0  0  0  0  0  0  0  0  0  0  0
    5.6985    2.7936  -20.4800 C   0  0  1  0  0  0  0  0  0  0  0  0
    6.1641    3.7518  -21.6322 C   0  0  0  0  0  0  0  0  0  0  0  0
    5.4875   -4.3072  -18.6267 N   0  0  0  0  0  0  0  0  0  0  0  0
    4.3198    3.0903  -20.0717 N   0  3  0  0  0  0  0  0  0  0  0  0
    3.0684    3.7506  -18.1656 N   0  0  0  0  0  0  0  0  0  0  0  0
    6.8716    1.9511  -23.0766 O   0  0  0  0  0  0  0  0  0  0  0  0
    5.5039    3.4135  -18.2186 O   0  0  0  0  0  0  0  0  0  0  0  0
    5.3427    5.6170  -22.1814 O   0  0  0  0  0  0  0  0  0  0  0  0
    0.4494   -2.8412  -15.9352 H   0  0  0  0  0  0  0  0  0  0  0  0
    6.1010   -2.3968  -22.0373 H   0  0  0  0  0  0  0  0  0  0  0  0
    6.8037   -0.5966  -23.5879 H   0  0  0  0  0  0  0  0  0  0  0  0
    3.3244   -1.0819  -18.8155 H   0  0  0  0  0  0  0  0  0  0  0  0
    4.9169    0.5556  -19.1339 H   0  0  0  0  0  0  0  0  0  0  0  0
    4.0848   -5.0092  -17.2234 H   0  0  0  0  0  0  0  0  0  0  0  0
    6.7370   -3.4039  -20.0566 H   0  0  0  0  0  0  0  0  0  0  0  0
    6.9713    2.0657  -18.8687 H   0  0  0  0  0  0  0  0  0  0  0  0
    7.2512    3.7829  -19.3153 H   0  0  0  0  0  0  0  0  0  0  0  0
    7.6157    3.8961  -23.2302 H   0  0  0  0  0  0  0  0  0  0  0  0
    8.1734    2.9665  -21.7980 H   0  0  0  0  0  0  0  0  0  0  0  0
    5.2167    4.1266  -23.6572 H   0  0  0  0  0  0  0  0  0  0  0  0
    4.0191    3.9914  -22.3251 H   0  0  0  0  0  0  0  0  0  0  0  0
    6.0993    5.5227  -20.2252 H   0  0  0  0  0  0  0  0  0  0  0  0
    7.3341    5.6854  -21.5196 H   0  0  0  0  0  0  0  0  0  0  0  0
    3.5294    3.0419  -20.6824 H   0  0  0  0  0  0  0  0  0  0  0  0
    3.0748    4.0013  -17.1976 H   0  0  0  0  0  0  0  0  0  0  0  0
    2.2062    3.7334  -18.6719 H   0  0  0  0  0  0  0  0  0  0  0  0
  1  2  3  0  0  0  0
  2  9  1  0  0  0  0
  3  4  2  0  0  0  0
  3 10  1  0  0  0  0
  4 13  1  0  0  0  0
  5  9  1  0  0  0  0
  5 11  2  0  0  0  0
  6 10  2  0  0  0  0
  6 12  1  0  0  0  0
  7  9  2  0  0  0  0
  7 21  1  0  0  0  0
  8 11  1  0  0  0  0
  8 21  2  0  0  0  0
 10 11  1  0  0  0  0
 12 13  2  0  0  0  0
 12 19  1  0  0  0  0
 13 24  1  0  0  0  0
 14 22  2  0  0  0  0
 14 23  1  0  0  0  0
 14 25  1  0  0  0  0
 15 19  1  0  0  0  0
 15 25  1  0  0  0  0
 16 20  1  0  0  0  0
 16 24  1  0  0  0  0
 17 20  1  0  0  0  0
 17 26  1  0  0  0  0
 18 20  1  0  0  0  0
 18 26  1  0  0  0  0
 19 20  1  0  0  0  0
 19 22  1  0  0  0  0
  1 27  1  0  0  0  0
  3 28  1  0  0  0  0
  4 29  1  0  0  0  0
  5 30  1  0  0  0  0
  6 31  1  0  0  0  0
  7 32  1  0  0  0  0
  8 33  1  0  0  0  0
 15 34  1  0  0  0  0
 15 35  1  0  0  0  0
 16 36  1  0  0  0  0
 16 37  1  0  0  0  0
 17 38  1  0  0  0  0
 17 39  1  0  0  0  0
 18 40  1  0  0  0  0
 18 41  1  0  0  0  0
 22 42  1  0  0  0  0
 23 43  1  0  0  0  0
 23 44  1  0  0  0  0
M  CHG  1  22   1
M  END
> <OMEGA_C>
v36rPwmNOcAVD4TBlvgWQIbMPcBHTInBV4LAQDJ6rr+J463B18LNQBCAsL702bTBaup6QJKe/b8r
LJbBc3irQCTAnT4ctKDBaa+LQBJRhsB2Bo/BDhS7QMUvU8Ceo5vBMHJjQMTcQsCbe4/BvaWvQBVK
hb+mwaPBIaSiQOA8B8ADapzBw6K5QKt0qz+7jqfBhZTLQHBFgD/RrLHBXSSIQHZQW0CIcZbBk5rP
QN0kQEBSd5nB9yDqQOkxS0C7pLPBVSmhQCQjikD6tbTBQ/vKQKjoqEAkKKrBKVq2QDLKMkAd16PB
hUDFQDsecEDTDq3B8pmvQNDUicBpA5XBpDuKQE3HRUDVkqDBVmBEQB8JcEAaU5HBZeTbQFq9+T/Y
nLjB0R+wQC52WkC1v5HBpPeqQFy+s0CBc7HB7BXmPuHWNcCE9n7BsjvDQGtkGcBkTLDB4bfZQEy7
GL8OtLzB6sJUQHZ8ir8phpbBmledQKc6Dj8zEpnB+raCQK9LoMB8yYnBK5XXQE3aWcD9c6DBMRXf
QMM0BEAq85bB3QnoQNYbckDWhZrBLLTzQFxaeUCE17nBYsYCQaXaPUBAYq7BF++mQC0NhEDhQb3B
4JyAQFdzf0DjmbLBUy3DQBa6sEAnzaHBp7DqQKzutUAgKKzBCOJhQLmuQkCcdaXBP8lEQOsKgECX
lInB5DINQLzvbkAjYJXBiKTVQCu7zMBi9I/BwurBQDDXq8DcdZHB78fDQIO6pr+QNa3BPF7OQCRw
k77nibTBklC6QGDSTcB1kZrBo8+wQFqVxT7NA6DBe8OFQE7qd8ClNo3Bl3t+QJAm478nVpXBEg6r
QNv5hMDjKpPBmJ2zQDykdr8UB6PBZlGkQNLP/7/am5vBXiS8QGmrtD+RM6fBPVPJQGvLiD+JwLHB
5yOGQKR5UEDQa5bBfAvOQGpCSEC385jBDuq6QOBRUkBsBbjBPji7QMdjq0DtEavBjov1QDw4i0Bw
Y6zBepO3QJ6aN0BpqaPBEeHFQOP1dEBz36zB0gxhQAAKLcB4Y47BM56KQPrxSEA536DBYWs/QK7d
X0CSQJHBYbbQQOyBAUCWkrnB/4ysQJwTREALPJHBmbjmQIg7tEAv6anBpuDmQOt36cCVo47BfgXI
QPO9FcB+X6/BbHLaQPLdDL9rW7zBKFDWQFsdW8BeWp/BEdKlQEojJD/+FJjBiNxzQHxsk8BAmofB
b5tcQEqfVr+gH5bBmGHmQAz9FkCUX5fBnDHdQBfng0D66JjBKySYQPOtSEBmqrjBbWzFQPkigED3
Jb7BdkCsQKMRu0DkALLB0RmoQGfSsUC726PB4XkEQZrceECuC6bBpmADQaYriUA+DLTBcZBlQE5G
TkD8KqbBs3A9QNyGYkBSQ4nB4eQJQMRRaEBAgpXB3UjNQFCqzcDWWpDB+pe6QKkrrMDp2pHB1+y/
QOstqr+Cmq3BVWfOQIxpqb6IpbTBnyu0QFceTsCrApvBjFCqQM6TxD7f3qDBEl9/QBoNdsBPio3B
DnRzQKNj4L+5y5XB8KukQFK9hMDTiJPB+uCtQFP0eL8QqKPBYnGeQDui/7+hJJzBlha5QAtBsj/q
zqfBEh/MQN6Qgz/Su7HBa4aIQHDWU0BgX5bBTFLQQJJvQkAU15nB0KDrQJqxTECYrrPBWc6hQBGy
iEDgYrXBLw7JQMxXqkCbxqrBs8e2QE9lNkAhK6TBCvXFQIMMckBWcK3Bvd9VQK61KsBGvo7BvAuL
QDOqTEBD0qDBJ+JEQM5nYUCm8pDBe87dQCkc+z+ZobjBNTWwQPPxSUATqJHBqvmmQN6FskD2sbHB
aZ3dQPjt6sBFC4/B4p3CQLC0F8C7zq/BhF3bQJmNG78HWLzBfBzQQLY1XMDQx5/Baw6cQJYYKD/9
TpnBnFtnQL4qksBU3ofBpTdSQF3FT7+5nJbB5BDlQLjXCkDJVpjBE/bjQB7FfEBPPprBwOn1QEc1
ekA54rnBPTcDQUHtP0CdNK7BV7qpQLRhhEBz5L3B0wmCQH76dUAmxLPBVWzCQGA1skAvXKLBzGXn
QLZEuUBvOK3B1PlkQKU1VUCB1qXB/55EQC23ZEBo9YjBXjEOQGfiZ0DzBZXB

> <OMEGA_E>
gAPXPmCkGj+i9Ro/

> <OMEGA_NBR>
     52852

$$$$
50248132
  -OEChem-04172616093D

 58 62  0     1  0  0  0  0  0999 V2000
    6.1487   -1.3250  -21.7047 C   0  0  0  0  0  0  0  0  0  0  0  0
    6.6740    5.6325  -23.3620 C   0  0  0  0  0  0  0  0  0  0  0  0
    6.5008   -0.2680  -22.5469 C   0  0  0  0  0  0  0  0  0  0  0  0
    6.8355    4.2743  -23.6353 C   0  0  0  0  0  0  0  0  0  0  0  0
    5.4485    0.2683  -19.9989 C   0  0  0  0  0  0  0  0  0  0  0  0
    5.9707    5.0949  -21.0925 C   0  0  0  0  0  0  0  0  0  0  0  0
    5.9155   -3.3418  -19.5164 C   0  0  0  0  0  0  0  0  0  0  0  0
    4.0176   -2.0319  -18.7774 C   0  0  0  0  0  0  0  0  0  0  0  0
    4.4030   -4.1784  -17.9489 C   0  0  0  0  0  0  0  0  0  0  0  0
    5.5969   -1.0553  -20.4385 C   0  0  0  0  0  0  0  0  0  0  0  0
    5.1727   -2.1496  -19.5750 C   0  0  0  0  0  0  0  0  0  0  0  0
    5.8432    1.3341  -20.8217 C   0  0  0  0  0  0  0  0  0  0  0  0
    6.1041    3.7282  -21.3654 C   0  0  0  0  0  0  0  0  0  0  0  0
    6.1947    6.0277  -22.1056 C   0  0  0  0  0  0  0  0  0  0  0  0
    6.3377    1.0603  -22.1260 C   0  0  0  0  0  0  0  0  0  0  0  0
    6.5281    3.3144  -22.6580 C   0  0  0  0  0  0  0  0  0  0  0  0
    4.1662    3.4518  -18.7273 C   0  0  0  0  0  0  0  0  0  0  0  0
    6.4027    2.9762  -18.9846 C   0  0  0  0  0  0  0  0  0  0  0  0
    5.6723    2.7435  -20.3117 C   0  0  2  0  0  0  0  0  0  0  0  0
    6.5691   10.3914  -22.1832 C   0  0  0  0  0  0  0  0  0  0  0  0
    8.0544   10.1789  -20.1532 C   0  0  0  0  0  0  0  0  0  0  0  0
    5.5717    9.7817  -19.9298 C   0  0  0  0  0  0  0  0  0  0  0  0
    5.8758    7.4496  -21.8503 C   0  0  0  0  0  0  0  0  0  0  0  0
    7.0692    8.1058  -21.1513 C   0  0  0  0  0  0  0  0  0  0  0  0
    6.8049    9.6056  -20.8616 C   0  0  0  0  0  0  0  0  0  0  0  0
    5.5223   -4.3366  -18.6991 N   0  0  0  0  0  0  0  0  0  0  0  0
    3.6473   -3.0521  -17.9801 N   0  0  0  0  0  0  0  0  0  0  0  0
    4.2651    2.9816  -19.9530 N   0  3  0  0  0  0  0  0  0  0  0  0
    2.9728    3.8418  -18.1400 N   0  0  0  0  0  0  0  0  0  0  0  0
    6.6662    2.0098  -23.0636 O   0  0  0  0  0  0  0  0  0  0  0  0
    5.4038    3.5373  -18.1200 O   0  0  0  0  0  0  0  0  0  0  0  0
    6.2992   -2.3457  -22.0240 H   0  0  0  0  0  0  0  0  0  0  0  0
    6.9159    6.3721  -24.1109 H   0  0  0  0  0  0  0  0  0  0  0  0
    6.9012   -0.4745  -23.5285 H   0  0  0  0  0  0  0  0  0  0  0  0
    7.1984    3.9598  -24.6026 H   0  0  0  0  0  0  0  0  0  0  0  0
    5.0289    0.4678  -19.0240 H   0  0  0  0  0  0  0  0  0  0  0  0
    5.6956    5.4258  -20.1019 H   0  0  0  0  0  0  0  0  0  0  0  0
    6.7995   -3.4593  -20.1257 H   0  0  0  0  0  0  0  0  0  0  0  0
    3.4304   -1.1259  -18.8053 H   0  0  0  0  0  0  0  0  0  0  0  0
    4.1000   -4.9850  -17.2977 H   0  0  0  0  0  0  0  0  0  0  0  0
    6.7812    2.0271  -18.5773 H   0  0  0  0  0  0  0  0  0  0  0  0
    7.2396    3.6773  -19.1188 H   0  0  0  0  0  0  0  0  0  0  0  0
    5.6817    9.9910  -22.6952 H   0  0  0  0  0  0  0  0  0  0  0  0
    6.4109   11.4555  -21.9537 H   0  0  0  0  0  0  0  0  0  0  0  0
    7.4484   10.2839  -22.8354 H   0  0  0  0  0  0  0  0  0  0  0  0
    8.2300    9.6295  -19.2166 H   0  0  0  0  0  0  0  0  0  0  0  0
    8.9298   10.0719  -20.8106 H   0  0  0  0  0  0  0  0  0  0  0  0
    7.8923   11.2435  -19.9288 H   0  0  0  0  0  0  0  0  0  0  0  0
    5.7361    9.2267  -18.9943 H   0  0  0  0  0  0  0  0  0  0  0  0
    5.4330   10.8491  -19.7032 H   0  0  0  0  0  0  0  0  0  0  0  0
    4.6737    9.3939  -20.4330 H   0  0  0  0  0  0  0  0  0  0  0  0
    5.6791    7.9612  -22.8040 H   0  0  0  0  0  0  0  0  0  0  0  0
    4.9865    7.5191  -21.2067 H   0  0  0  0  0  0  0  0  0  0  0  0
    7.2563    7.5857  -20.2003 H   0  0  0  0  0  0  0  0  0  0  0  0
    7.9547    8.0175  -21.7979 H   0  0  0  0  0  0  0  0  0  0  0  0
    3.4884    2.8094  -20.5588 H   0  0  0  0  0  0  0  0  0  0  0  0
    2.9707    4.2157  -17.2126 H   0  0  0  0  0  0  0  0  0  0  0  0
    2.1139    3.7492  -18.6438 H   0  0  0  0  0  0  0  0  0  0  0  0
  1  3  2  0  0  0  0
  1 10  1  0  0  0  0
  2  4  2  0  0  0  0
  2 14  1  0  0  0  0
  3 15  1  0  0  0  0
  4 16  1  0  0  0  0
  5 10  2  0  0  0  0
  5 12  1  0  0  0  0
  6 13  1  0  0  0  0
  6 14  2  0  0  0  0
  7 11  1  0  0  0  0
  7 26  2  0  0  0  0
  8 11  2  0  0  0  0
  8 27  1  0  0  0  0
  9 26  1  0  0  0  0
  9 27  2  0  0  0  0
 10 11  1  0  0  0  0
 12 15  2  0  0  0  0
 12 19  1  0  0  0  0
 13 16  2  0  0  0  0
 13 19  1  0  0  0  0
 14 23  1  0  0  0  0
 15 30  1  0  0  0  0
 16 30  1  0  0  0  0
 17 28  2  0  0  0  0
 17 29  1  0  0  0  0
 17 31  1  0  0  0  0
 18 19  1  0  0  0  0
 18 31  1  0  0  0  0
 19 28  1  0  0  0  0
 20 25  1  0  0  0  0
 21 25  1  0  0  0  0
 22 25  1  0  0  0  0
 23 24  1  0  0  0  0
 24 25  1  0  0  0  0
  1 32  1  0  0  0  0
  2 33  1  0  0  0  0
  3 34  1  0  0  0  0
  4 35  1  0  0  0  0
  5 36  1  0  0  0  0
  6 37  1  0  0  0  0
  7 38  1  0  0  0  0
  8 39  1  0  0  0  0
  9 40  1  0  0  0  0
 18 41  1  0  0  0  0
 18 42  1  0  0  0  0
 20 43  1  0  0  0  0
 20 44  1  0  0  0  0
 20 45  1  0  0  0  0
 21 46  1  0  0  0  0
 21 47  1  0  0  0  0
 21 48  1  0  0  0  0
 22 49  1  0  0  0  0
 22 50  1  0  0  0  0
 22 51  1  0  0  0  0
 23 52  1  0  0  0  0
 23 53  1  0  0  0  0
 24 54  1  0  0  0  0
 24 55  1  0  0  0  0
 28 56  1  0  0  0  0
 29 57  1  0  0  0  0
 29 58  1  0  0  0  0
M  CHG  1  28   1
M  END
> <OMEGA_C>
6MHEQAyZqb9Eo63Bj5HVQF49tEBf5brBewbQQJY5ib4kYLTBK7zaQBzHiEADFb3B+VmuQNpgiT7Z
/Z/BJBC/QKMJo0B0vajB/Uu9QNjfVcCnIZzBDJCAQPoKAsAgOJbBJuWMQCS1hcBKl4/BMBqzQN8U
h78BgqPBBoelQJeSCcCKmZzBsvu6QOTDqj/hkqbBLFXDQBSabkBp7KrBIzvGQBvjwEBQ2LDBes7K
QNa4hz8RArHBbObQQGgfVECCQ7XBVVGFQILpXECG0ZXBkOLMQG15PkCH4JfBYYO1QAyWL0BnfqLB
YzbSQEpDJkEwd7HBx94AQc3cIkHQOaHBdEuyQLiBHEEkcJ/BrAa8QDBj7kCDza7BCTfiQECxAUHs
NanBvcHZQGqwGUF/5KbBV7awQDXFisDRl5XBum1pQL9VQ8A814/B23uIQNfSPkC0n5/BqEI+QFjf
dUDIHpHBTFHVQO+gAEAzgrjBDuysQOJjYkC99ZDBbpPJQCMfFsA7MbDB4E7dQD3oy0Ap48DBYtbc
QGH28r5dOrzBQFnmQBhtfUAk0sTBBe2gQGeG7z4ZMZjBGUK2QNufrUDC0KDBhJXZQMpkXcBlAaHB
zItbQO8dkL8ucZbBjTODQCOFn8DIYYrBXv/YQIC7AUA8npTBZarnQAFZa0BR85jB0dC1QP/aH0HI
j7XBySXNQMJJN0Edoa/B8VjuQKmKJEH0rrbB+q0DQWMSGkGPu5nBnuAOQVYmIUEZfKbBFY78QG/l
M0FCbp/BEY63QL+gE0Ff9JfB7dqtQOuVLUEWoJ3BBY+VQIRNFkHFdqPB5bq1QFfC/kCvbrbBgpGf
QJuc8EBHp6nB2zPoQFi+8kAdmqHBPo3+QJ5HAEEZYq7B4kFfQKvNM0B7eKTBKSA+QO7mhkBbs4nB
xEoHQPjyb0BzJpXB

> <OMEGA_E>
QCjYPg==

> <OMEGA_NBR>
     54119

$$$$
50248146
  -OEChem-04172616093D

 57 61  0     1  0  0  0  0  0999 V2000
    3.5761   -3.0542  -17.9768 C   0  0  0  0  0  0  0  0  0  0  0  0
    3.9670   -1.9801  -18.7857 C   0  0  0  0  0  0  0  0  0  0  0  0
    6.1660   -1.3137  -21.6828 C   0  0  0  0  0  0  0  0  0  0  0  0
    6.5914   -0.2677  -22.5068 C   0  0  0  0  0  0  0  0  0  0  0  0
    6.8262    4.2577  -23.6985 C   0  0  0  0  0  0  0  0  0  0  0  0
    6.4676    5.6008  -23.5291 C   0  0  0  0  0  0  0  0  0  0  0  0
    5.4180    0.2982  -20.0176 C   0  0  0  0  0  0  0  0  0  0  0  0
    5.5440    5.0707  -21.3440 C   0  0  0  0  0  0  0  0  0  0  0  0
    4.3579   -4.2279  -17.9672 C   0  0  0  0  0  0  0  0  0  0  0  0
    5.8665   -3.3208  -19.5105 C   0  0  0  0  0  0  0  0  0  0  0  0
    5.5770   -1.0308  -20.4350 C   0  0  0  0  0  0  0  0  0  0  0  0
    5.1303   -2.1178  -19.5688 C   0  0  0  0  0  0  0  0  0  0  0  0
    5.8331    1.3523  -20.8453 C   0  0  0  0  0  0  0  0  0  0  0  0
    5.9154    3.7287  -21.4965 C   0  0  0  0  0  0  0  0  0  0  0  0
    6.4357    1.0661  -22.0996 C   0  0  0  0  0  0  0  0  0  0  0  0
    6.5478    3.3128  -22.6962 C   0  0  0  0  0  0  0  0  0  0  0  0
    5.8311    6.0145  -22.3480 C   0  0  0  0  0  0  0  0  0  0  0  0
    4.1858    3.4297  -18.7027 C   0  0  0  0  0  0  0  0  0  0  0  0
    6.4238    3.0753  -19.1133 C   0  0  0  0  0  0  0  0  0  0  0  0
    5.6146    2.7644  -20.3739 C   0  0  2  0  0  0  0  0  0  0  0  0
    8.0985    6.8493  -20.4958 C   0  0  0  0  0  0  0  0  0  0  0  0
    7.8335    9.1694  -21.4650 C   0  0  0  0  0  0  0  0  0  0  0  0
    7.2618    8.7114  -19.0426 C   0  0  0  0  0  0  0  0  0  0  0  0
    5.7328    7.9128  -20.8605 C   0  0  0  0  0  0  0  0  0  0  0  0
    7.2286    8.1397  -20.4807 C   0  0  0  0  0  0  0  0  0  0  0  0
    5.4779   -4.3440  -18.7205 N   0  0  0  0  0  0  0  0  0  0  0  0
    4.2229    2.9357  -19.9217 N   0  3  0  0  0  0  0  0  0  0  0  0
    3.0275    3.8709  -18.0826 N   0  0  0  0  0  0  0  0  0  0  0  0
    6.9055    2.0143  -22.9828 O   0  0  0  0  0  0  0  0  0  0  0  0
    5.4453    3.4683  -18.1384 O   0  0  0  0  0  0  0  0  0  0  0  0
    5.5501    7.3534  -22.1929 O   0  0  0  0  0  0  0  0  0  0  0  0
    2.6869   -2.9846  -17.3678 H   0  0  0  0  0  0  0  0  0  0  0  0
    3.3901   -1.0674  -18.8090 H   0  0  0  0  0  0  0  0  0  0  0  0
    6.2889   -2.3379  -22.0026 H   0  0  0  0  0  0  0  0  0  0  0  0
    7.0429   -0.4875  -23.4629 H   0  0  0  0  0  0  0  0  0  0  0  0
    7.3206    3.9456  -24.6065 H   0  0  0  0  0  0  0  0  0  0  0  0
    6.6807    6.3186  -24.3074 H   0  0  0  0  0  0  0  0  0  0  0  0
    4.9746    0.5112  -19.0561 H   0  0  0  0  0  0  0  0  0  0  0  0
    5.0318    5.3845  -20.4465 H   0  0  0  0  0  0  0  0  0  0  0  0
    4.0559   -5.0559  -17.3430 H   0  0  0  0  0  0  0  0  0  0  0  0
    6.7587   -3.4246  -20.1101 H   0  0  0  0  0  0  0  0  0  0  0  0
    6.9720    2.1837  -18.7748 H   0  0  0  0  0  0  0  0  0  0  0  0
    7.1346    3.8936  -19.3009 H   0  0  0  0  0  0  0  0  0  0  0  0
    7.6742    6.1123  -19.7980 H   0  0  0  0  0  0  0  0  0  0  0  0
    8.1109    6.4274  -21.5116 H   0  0  0  0  0  0  0  0  0  0  0  0
    9.1255    7.0960  -20.1886 H   0  0  0  0  0  0  0  0  0  0  0  0
    7.2234   10.0847  -21.4597 H   0  0  0  0  0  0  0  0  0  0  0  0
    8.8610    9.4120  -21.1561 H   0  0  0  0  0  0  0  0  0  0  0  0
    7.8464    8.7434  -22.4791 H   0  0  0  0  0  0  0  0  0  0  0  0
    6.6543    9.6274  -18.9975 H   0  0  0  0  0  0  0  0  0  0  0  0
    6.8547    7.9669  -18.3427 H   0  0  0  0  0  0  0  0  0  0  0  0
    8.3000    8.9461  -18.7653 H   0  0  0  0  0  0  0  0  0  0  0  0
    5.2888    7.2217  -20.1288 H   0  0  0  0  0  0  0  0  0  0  0  0
    5.2113    8.8802  -20.8144 H   0  0  0  0  0  0  0  0  0  0  0  0
    3.4163    2.7075  -20.4669 H   0  0  0  0  0  0  0  0  0  0  0  0
    3.0688    4.2512  -17.1587 H   0  0  0  0  0  0  0  0  0  0  0  0
    2.1506    3.8090  -18.5592 H   0  0  0  0  0  0  0  0  0  0  0  0
  1  2  2  0  0  0  0
  1  9  1  0  0  0  0
  2 12  1  0  0  0  0
  3  4  2  0  0  0  0
  3 11  1  0  0  0  0
  4 15  1  0  0  0  0
  5  6  2  0  0  0  0
  5 16  1  0  0  0  0
  6 17  1  0  0  0  0
  7 11  2  0  0  0  0
  7 13  1  0  0  0  0
  8 14  1  0  0  0  0
  8 17  2  0  0  0  0
  9 26  2  0  0  0  0
 10 12  2  0  0  0  0
 10 26  1  0  0  0  0
 11 12  1  0  0  0  0
 13 15  2  0  0  0  0
 13 20  1  0  0  0  0
 14 16  2  0  0  0  0
 14 20  1  0  0  0  0
 15 29  1  0  0  0  0
 16 29  1  0  0  0  0
 17 31  1  0  0  0  0
 18 27  2  0  0  0  0
 18 28  1  0  0  0  0
 18 30  1  0  0  0  0
 19 20  1  0  0  0  0
 19 30  1  0  0  0  0
 20 27  1  0  0  0  0
 21 25  1  0  0  0  0
 22 25  1  0  0  0  0
 23 25  1  0  0  0  0
 24 25  1  0  0  0  0
 24 31  1  0  0  0  0
  1 32  1  0  0  0  0
  2 33  1  0  0  0  0
  3 34  1  0  0  0  0
  4 35  1  0  0  0  0
  5 36  1  0  0  0  0
  6 37  1  0  0  0  0
  7 38  1  0  0  0  0
  8 39  1  0  0  0  0
  9 40  1  0  0  0  0
 10 41  1  0  0  0  0
 19 42  1  0  0  0  0
 19 43  1  0  0  0  0
 21 44  1  0  0  0  0
 21 45  1  0  0  0  0
 21 46  1  0  0  0  0
 22 47  1  0  0  0  0
 22 48  1  0  0  0  0
 22 49  1  0  0  0  0
 23 50  1  0  0  0  0
 23 51  1  0  0  0  0
 23 52  1  0  0  0  0
 24 53  1  0  0  0  0
 24 54  1  0  0  0  0
 27 55  1  0  0  0  0
 28 56  1  0  0  0  0
 28 57  1  0  0  0  0
M  CHG  1  27   1
M  END
> <OMEGA_C>
6N5kQCF4Q8CD0I/BzuJ9QOZ0/b82SZbB/k/FQBcoqL9Kdq3BFO3SQAwPib7dDbTB7W/aQOY+iEBv
lr3BM/bOQGw5s0CeO7zB+F+tQAK0mD74I6DBH2ixQNZCokCPwKrBEnSLQApLh8DYvI/BUbq7QGKH
VMCQFZzBsnayQD3xg7/NeqPBwSukQFqKB8DmjJzBCKm6QDMZrT8Vw6bBqEq9QA2jbkDt+KvBCfHN
QDJ3iD8FzLDBc4fRQJMEVEDSkbXBZpi6QNp2wEC2yLLBH/KFQHd/W0Atn5XBXo/NQJvRREAZ6JjB
Z6qzQHLsMECx/aLBW5MBQWYt20BO96PBC6z6QO+1EkFquKvBWGDoQApiC0E9V5jBdHO3QGw1/UA0
4qbBtVDnQAg8AkGP2KPBoEqvQLIBi8Cqw5XB9yGHQD3iO0COX5/B+MJBQD+9d0A4qZDBdPncQNTp
AEC83LfBjT+uQJ/4XUBkG5HBfZqxQCRP60AMi7HBg/YrQHwEP8A68YrBLPhYQG2fiL+8eJbBbD7J
QJ2gFcBeBbDBmV/hQG2e+b4StLvBNULqQKCEfEAe2sTB7sfVQOwxykCDdcLBwS+fQKvfAj/acpjB
dgShQOtNrEBkkqPB8smBQKTJocBmvorBhEfYQOssW8CP4aDBXhrfQEDCC0DgMpbBak7kQA0weUA1
aJrBVZP1QDOYw0A9Yp7BQ8YBQXOtzUCwF6zBDwISQXQS40A9gqHBRybnQAFbIUGGravBo8YNQXuX
FkHKP6nBrRX7QPrkC0E91bPBVvDUQN0JGkHx+pfBnVnbQKHw/kDBvZLB+cwEQWsjD0FgH5bBQT6p
QCQY50DSB6HBLsOmQEMVDkHxg6bBM6RaQGVILUBAvKPBsWZEQN8JiED3RInBn6IJQDzHc0AqeZTB
Q+FrQIZCR8C1Vo/BSHCBQDZ+AsAR6pXBZRfEQCCQq79KrK3BUKHOQNTejr7WeLTBxoXbQEodiUDY
lbzBKwPaQOB1tEAf8LnBqAKuQJklfj6D+5/Bc/PAQHKrokC2IKjB7UCPQI75iMAhbI/BStG9QHhs
V8B+KJzB9v+yQECRib8yd6PBefalQBTFCsBocpzBwP25QItqqD+tmqbBokjDQDjSbUBIp6rBhUzJ
QJVchj8WFbHBhEDQQOIRVEDeC7XBe+rLQCeTwUADr6/BBuyEQEFoXUDM6ZXBxSbMQOjQOkBKu5fB
F+W0QJEOLkCzaqLBYReqQBVEBEEq7sLBF06dQDZNHkHM4bPBiJPcQFYyI0FUPMDBM87dQIHtBUF1
kLLBZFrAQPSLEkEEZbrBFGCyQBR8jMBruJXBOPqHQO9BPkCvqJ/B6Oo+QLAAfkBVnZHBKC7TQP+7
AEBajbjBPsOrQBOZWkBxpJDBXNfGQEmd60AMmKzBNBM0QKAoQ8A3RIrB/3ddQCG/kL8B+5XBRAvJ
QPYGF8ADPrDBCPLaQKIp977wYLzBoXTlQLQDf0AsgcTBwqfjQMwozEAHv7/B2dugQIqF5D6+JpjB
RZC2QKhwrEDyQaDBXWyGQI95o8CoVYrBtsHZQE7MXcBNLqHBFCXZQFOQ+z/1yJTBx0bmQGCBaUDK
lJjBMIDCQKGO90AmpMfBh0mVQCEd8UCH6r7BJrqWQJxcDkFhRcjBpXasQCOAKEEMy63BSACKQJdG
KEEES7nBqY+IQIt4EkEq8K/B7JjsQHJ0LUHeT7rBDsr0QMjcGkGUE8XBvmjIQEscLUGPecXB7Df3
QCkk/EBqN7fBjjjsQCBJEUG/46zBVE1eQJgpM0Aig6TB5ag+QM7dikBVL4rBfRUJQNzNfUDg8JXB
w5aoQFtkjMC1XpbB3iq3QJ5PWMCUPJ3BG7HCQMRRp791C67BOk3QQDilgb5Hj7TBvw7XQK6eiEDN
jr3BWj/MQBtts0BW6bvBvDauQPgdkz5tPaDBk1W4QFFqo0CdianBpE2GQDO9g8DnXY/Bx4CAQIso
9r9OtpXBYWuxQIy/hL8G2qPB7deiQFQFCMDy65zBU7e7QG2hrD+FvKbBjUnBQLLPb0CpSKvBDNLM
QDyPiT+3BrHBVSnRQGIAVUC2ZLXBti29QIv8wEDN1bHB7j2GQAhDW0AVupXBSQ7OQAT6QEDTSJjB
+7i1QDBxMEBssKLB2a/QQIzsF0FXgqHBKPIBQS468kBeAqXBXtkGQaVQHEEGoa7B59nOQOiBBUFi
bLPBiy7sQJB9DEHRGarBvORlQNT8OcCEII/B+8+IQDAgPUAUh5/BgG9AQEiXc0Cl5pDBjJXaQM7j
AUCmJbjBzymuQGziYECWCJHBwtawQHB56kDjArDBu3W3QHuWq8Cgb5bBJHHRQGvzY8BSqKLB9WfF
QMfmFMD50LDBkJPdQDqc7L4fXLzBWQrkQNJOfUDiKsXBkWzPQGUzykCDXMLBsT+hQEkf+z7GZZjB
XK2tQEMIrkBMwqHB9WV2QIGlnMAvD4rBB5xhQGsfdr+BeZXBRjrcQOtgBUBrOJXB723nQLvAcEAc
hpnBBQPAQO6ZJUHAJ6XBcga5QNKiDEEkQZ7BZ4LlQLClHUFCBJvBl6sLQTAj4kCHJKvBNWUMQfaU
/UChhZ7BdE7sQDmP20CEwqHBypoQQeIyFEH4ubTBRTb9QMUOKkFxRLLBWT8RQSbxIUFAHKjB6fO8
QNp/E0GcVbbBMrjiQJ4g/kAX77nBJUFfQA2FMEBfNKTBVOBAQLOihUALeInB5R0JQJl3bUC72ZTB
hmuqQCQKi8CF8JXBxt64QINrVcAcyZzBRCvDQDqYpr/N363BGIDQQBxIg775gLTB2hjfQLIoiUAU
Mr3B+gfZQBDMtEBqM7vBZOmsQBCLnj76YaDB0AO2QPwgo0CKbqrBhh+HQC4Lg8DXNI/BbEWAQMLZ
9L/hu5XBGmOxQHxfgr+Bw6PBEmijQHZXBsCtuJzB2rW5QF5Wrj/ADKfBUpO+QEFsb0A3/qvBfhPM
QP69iT/hMLHBHoDSQCndVEBFn7XBiK3EQKoqwkDoxrHBeKCFQH0QWkBHo5XBpizNQClYQkBI8JjB
YnCzQOA5MUBLJaPBZq/nQDQ410Dx9JnBLHftQGopEkFuXp/BIlSzQNcrBkGDl5LB9lqtQDoN/EBo
MqbBKHvNQEUUAEGop5zBQ6FlQIKKOcCpK4/B2OaGQJHuPUBBkZ/BrYpAQBVTcECIVZDBlMLaQGUz
AUBvVLjB5DWuQKPNYEA9V5HBnBnBQDKy7UD/FLDB5CS6QK3PqcBF0JXBpOfTQBICYMCyAKLBWn3G
QFrSFMAOf7DBOUzeQFDi875AOrzBL5XtQNgIfkB3nsTBJArkQA84zEBQ7cDB14ifQIzvBT/9mZjB
NOujQHAbrUCpgaPBXv53QG0WnMAw8YnBscRfQNBKdr+gppXB+VrcQO0oB0CKDpbB7OTlQC4ac0B4
Y5rBUqrRQJ3ovEBm/ZfBI037QMMuzkDY56DB4aD8QNSf3UBIEZPBycDbQI/dIEFLUKHBIC8BQfAZ
FUFTcZjBQYUAQWhhDUHiR6bBpWKgQAKiFEFNPpTBebydQG7Z8UCLfJDBvUbJQFxICUHd44vBVFeU
QID25EAe9aPBUr6eQNfIDUF/nafBZS9aQCatMkAvFaTBAT5DQE+Jg0A43YjB2fcHQKygaUDO+pPB
wkyvQADMisDJK5XBcIy9QFJWVcCjHpzB8RPFQCmOqb897K3Bi+jPQLMqhb7WrbTB9VTaQBVPikA0
u7zBIjrYQIWTtUAeALrBGRWvQBd5hD6RM6DB+xvAQHXuokByLKjBDpiJQHo4hMDzLo/B9UGAQMEK
AMDwiJbB8LCzQNS2h7+CvqPBYb2lQKNICcB4x5zBmTO7QPXcqT8uxqbBDhbDQFSkbkBrx6rBgXfK
QDe8iD/CQ7HByfrPQJ2sVUAFNbXBomzKQPEswkDIra/BOZiFQNWJWkDS4ZXBSiXNQEyUO0AQ6pfB
nZ61QNJPLkCdjKLBMEuoQBxABUH4jcLBufGbQOrFHkGFQ7PBMQbbQNcDJEFwp7/BZ0/cQP9EBkE8
QrLB2sy+QKQ1E0GB7bnBrpdlQL76PsD08Y/B7K+IQAjEPECSsJ/B0Gs/QHRId0A8ZpHB4uDTQI9r
AkBAubjBadWsQBwSW0C+yJDBWT/FQMr+60AwcKzBgf/AQFZSqMD+ZpTBciHaQNwKXsBx2qDBkQjK
QIf9FcA3gbDB4YTcQO8F7L6nj7zBIwLkQMEVgUDdssTBhy7hQLqXzUDJy7/BzxiiQDyB6D47WZjB
lri1QGdQrEApRqDBmEJ9QMUencD92onBYBdcQO7iir8SDZfBdmzaQHmP/T+Y+JTBGBfnQPyYakDx
0pjBY5DAQBHP+UBPX8fB5oeTQP3Y8kAlnb7BZNqUQJmMD0Gex8fBRkirQE++KEHTG63BuI+IQBH0
KEFYj7jBOj2HQPfTEkHeZK/BHTXrQCALLkH1qLnBuBrzQB3QG0F7l8TBZNTGQF8jLkEWycTBoJf1
QLMU/UAQArfBLubqQBBhEUFdfazBhqtfQB6IMUCgh6TB4gk/QJpFh0BU8onBeBUJQB3IdEBanZXB
/8yvQJFIisDYCpXBUMO9QFBrVMCgCpzBkl/EQAGUqL+d5q3BeZ/OQAvEgr4Pu7TBeGbbQOHMiUAm
yLzBha/aQJf9tEB8B7rB+/SuQDIhiz5YJqDBiUPEQKcCo0DE/qfB/VeKQLCog8BI9o7BjriAQCcC
/r9mT5bBH36zQLs1hr96raPBP+ylQPheCMAAp5zBS9a6QBs6qz+AxKbBkMnEQFbWbkBKtqrBXknJ
QGdWiT8oU7HBuVnQQKJsVUDAO7XBCGrOQAvJwUBVn6/BrjuFQI2KWkDx65XB5tHMQEiqO0D2zJfB
XN+1QFxDL0BViqLB1HvZQDj4JUG+ga/B++gBQZIxDEE+7LrBFgrEQJxqH0GqwcLB1Vq2QFR7A0Hh
w7TBQiXWQET7FEHverjBuQ5nQLDYPcD8rI/B5eWIQIitP0Be2p/Bn6U9QKJjckDKQ5HBMATSQG9W
AkDh27jBFIKsQNyuXUAJ3JDBkm/JQKfJ60CkuKzBS4fBQKvNp8AeTpTBpyTaQAwxXcA42aDBwmHJ
QHGNFcDKdLDB5bLaQASy6r5bqbzBrITkQPlPgEBixcTB+Y3jQOfVzECH4L/BWjeiQMZG8D5+RpjB
lPW7QBerrECh9p/BDix/QHeHnMBumYnBNARdQAnFiL9jyZbBNN/YQLhx/D8vvZTBWJXnQB/paEDu
oJjBNXG5QK9NLEGetK3BzAbnQP6SHkFQRqjB213uQM4aM0GHKbLBVfIAQYcXAEFTS8HBq0gMQV9p
GUGfir3BI50IQY/hBEFpp7PB6rXBQMpNE0FHHcnBIBKkQLH+JUFnGcHB/3bZQKxfLEEVXMXBsrqZ
QEsyC0GJZbHB/SOtQHVI80AisLvBGLxgQF6LN0B446TBa5g8QEzWg0CquInBdDwHQHJSbkAzcpXB

> <OMEGA_E>
ZFvsPqg22j76ZBE/JCURPyh1Cz+g+go/

> <OMEGA_NBR>
     60040

$$$$
50218616
  -OEChem-04172616093D

 56 61  0     1  0  0  0  0  0999 V2000
    6.2387   -1.2675  -21.6249 C   0  0  0  0  0  0  0  0  0  0  0  0
    6.6835   -0.2358  -22.4658 C   0  0  0  0  0  0  0  0  0  0  0  0
    5.3319    0.3838  -20.0742 C   0  0  0  0  0  0  0  0  0  0  0  0
    3.9683   -1.8801  -18.7091 C   0  0  0  0  0  0  0  0  0  0  0  0
    5.8021   -3.2835  -19.4705 C   0  0  0  0  0  0  0  0  0  0  0  0
    4.3125   -4.1314  -17.8705 C   0  0  0  0  0  0  0  0  0  0  0  0
    5.5652   -0.9652  -20.4200 C   0  0  0  0  0  0  0  0  0  0  0  0
    5.1065   -2.0507  -19.5256 C   0  0  0  0  0  0  0  0  0  0  0  0
    5.7526    1.4293  -20.9220 C   0  0  0  0  0  0  0  0  0  0  0  0
    6.4675    1.1096  -22.1189 C   0  0  0  0  0  0  0  0  0  0  0  0
    3.5698   -2.9331  -17.8744 C   0  0  0  0  0  0  0  0  0  0  0  0
    4.1925    3.2998  -18.6724 C   0  0  0  0  0  0  0  0  0  0  0  0
    5.1302    9.8460  -24.5372 C   0  0  0  0  0  0  0  0  0  0  0  0
    4.8193    8.4369  -25.0326 C   0  0  0  0  0  0  0  0  0  0  0  0
    5.5283    5.2749  -21.6457 C   0  0  0  0  0  0  0  0  0  0  0  0
    6.3543    5.0575  -24.0869 C   0  0  0  0  0  0  0  0  0  0  0  0
    6.3855    3.3086  -19.3520 C   0  0  0  0  0  0  0  0  0  0  0  0
    5.6589    3.7485  -21.8059 C   0  0  1  0  0  0  0  0  0  0  0  0
    4.5671    8.8086  -23.5515 C   0  0  0  0  0  0  0  0  0  0  0  0
    5.6130    5.9437  -23.0463 C   0  0  2  0  0  0  0  0  0  0  0  0
    7.0339    3.4069  -22.4303 C   0  0  1  0  0  0  0  0  0  0  0  0
    5.4905    2.8937  -20.5230 C   0  0  1  0  0  0  0  0  0  0  0  0
    5.5187    8.2950  -22.4459 C   0  0  0  0  0  0  0  0  0  0  0  0
    5.4038   -4.2896  -18.6573 N   0  0  0  0  0  0  0  0  0  0  0  0
    4.1374    3.0725  -19.9695 N   0  3  0  0  0  0  0  0  0  0  0  0
    3.0832    3.4441  -17.8540 N   0  0  0  0  0  0  0  0  0  0  0  0
    6.9542    2.0795  -22.9844 O   0  0  0  0  0  0  0  0  0  0  0  0
    5.4981    3.3302  -18.2238 O   0  0  0  0  0  0  0  0  0  0  0  0
    7.4429    4.3577  -23.4502 O   0  0  0  0  0  0  0  0  0  0  0  0
    6.3259    7.1947  -22.9168 O   0  0  0  0  0  0  0  0  0  0  0  0
    2.1622   -2.7590  -16.8562 Cl  0  0  0  0  0  0  0  0  0  0  0  0
    6.4120   -2.2974  -21.9000 H   0  0  0  0  0  0  0  0  0  0  0  0
    7.1952   -0.4768  -23.3858 H   0  0  0  0  0  0  0  0  0  0  0  0
    4.8251    0.6176  -19.1496 H   0  0  0  0  0  0  0  0  0  0  0  0
    3.4135   -0.9537  -18.7272 H   0  0  0  0  0  0  0  0  0  0  0  0
    6.6728   -3.4243  -20.0937 H   0  0  0  0  0  0  0  0  0  0  0  0
    4.0045   -4.9413  -17.2258 H   0  0  0  0  0  0  0  0  0  0  0  0
    6.1753   10.1770  -24.4468 H   0  0  0  0  0  0  0  0  0  0  0  0
    4.5045   10.6910  -24.8603 H   0  0  0  0  0  0  0  0  0  0  0  0
    3.9689    8.2671  -25.7093 H   0  0  0  0  0  0  0  0  0  0  0  0
    5.6397    7.7531  -25.2959 H   0  0  0  0  0  0  0  0  0  0  0  0
    4.5604    5.5148  -21.1811 H   0  0  0  0  0  0  0  0  0  0  0  0
    6.3434    5.6494  -21.0090 H   0  0  0  0  0  0  0  0  0  0  0  0
    5.6498    4.3270  -24.5113 H   0  0  0  0  0  0  0  0  0  0  0  0
    6.7510    5.6944  -24.8913 H   0  0  0  0  0  0  0  0  0  0  0  0
    7.1932    2.5775  -19.1997 H   0  0  0  0  0  0  0  0  0  0  0  0
    6.8200    4.3040  -19.5262 H   0  0  0  0  0  0  0  0  0  0  0  0
    4.8859    3.4248  -22.5184 H   0  0  0  0  0  0  0  0  0  0  0  0
    3.5144    8.9383  -23.2597 H   0  0  0  0  0  0  0  0  0  0  0  0
    4.5909    6.1285  -23.4085 H   0  0  0  0  0  0  0  0  0  0  0  0
    7.7783    3.4127  -21.6205 H   0  0  0  0  0  0  0  0  0  0  0  0
    6.1802    9.1162  -22.1327 H   0  0  0  0  0  0  0  0  0  0  0  0
    4.9204    7.9581  -21.5865 H   0  0  0  0  0  0  0  0  0  0  0  0
    3.2934    3.0277  -20.5040 H   0  0  0  0  0  0  0  0  0  0  0  0
    3.2018    3.5806  -16.8705 H   0  0  0  0  0  0  0  0  0  0  0  0
    2.1643    3.4117  -18.2470 H   0  0  0  0  0  0  0  0  0  0  0  0
  1  2  1  0  0  0  0
  1  7  2  0  0  0  0
  2 10  2  0  0  0  0
  3  7  1  0  0  0  0
  3  9  2  0  0  0  0
  4  8  1  0  0  0  0
  4 11  2  0  0  0  0
  5  8  2  0  0  0  0
  5 24  1  0  0  0  0
  6 11  1  0  0  0  0
  6 24  2  0  0  0  0
  7  8  1  0  0  0  0
  9 10  1  0  0  0  0
  9 22  1  0  0  0  0
 10 27  1  0  0  0  0
 11 31  1  0  0  0  0
 12 25  2  0  0  0  0
 12 26  1  0  0  0  0
 12 28  1  0  0  0  0
 13 14  1  0  0  0  0
 13 19  1  0  0  0  0
 14 19  1  0  0  0  0
 15 18  1  0  0  0  0
 15 20  1  0  0  0  0
 16 20  1  0  0  0  0
 16 29  1  0  0  0  0
 17 22  1  0  0  0  0
 17 28  1  0  0  0  0
 18 21  1  0  0  0  0
 18 22  1  0  0  0  0
 19 23  1  0  0  0  0
 20 30  1  0  0  0  0
 21 27  1  0  0  0  0
 21 29  1  0  0  0  0
 22 25  1  0  0  0  0
 23 30  1  0  0  0  0
  1 32  1  0  0  0  0
  2 33  1  0  0  0  0
  3 34  1  0  0  0  0
  4 35  1  0  0  0  0
  5 36  1  0  0  0  0
  6 37  1  0  0  0  0
 13 38  1  0  0  0  0
 13 39  1  0  0  0  0
 14 40  1  0  0  0  0
 14 41  1  0  0  0  0
 15 42  1  0  0  0  0
 15 43  1  0  0  0  0
 16 44  1  0  0  0  0
 16 45  1  0  0  0  0
 17 46  1  0  0  0  0
 17 47  1  0  0  0  0
 18 48  1  0  0  0  0
 19 49  1  0  0  0  0
 20 50  1  0  0  0  0
 21 51  1  0  0  0  0
 23 52  1  0  0  0  0
 23 53  1  0  0  0  0
 25 54  1  0  0  0  0
 26 55  1  0  0  0  0
 26 56  1  0  0  0  0
M  CHG  1  25   1
M  END
> <OMEGA_C>
xaPHQCc9or/Y/6zBG9/VQOttcb4CurPBp56qQEp8xD4EmKDB+Pd9QAeo8L9LrJXBfaq5QL0kUsCm
w5vBCwCKQCI0hMDJ9o7BexayQNYXd78aXKPBw2ijQEQ/A8BiNJzBXhW4QCL0tj86YKfBefXOQOUG
jj+N87DBiXdkQO+3O8C2/o7BTimGQDsvU0AXYZXBQyqkQBqJHUEeTMTBYzeaQJD9BkGuQsjBb+ew
QCPMqEBUKq3BGVbLQEHXoUDwscDB+FXMQCfAU0D80JrByBW1QAHnb0B1cq7BqCWSQAnwDEFvabzB
kJ2zQJ0yvkC+XrjBtxXhQOEJWkBIcbPBjrKvQPcxOUADL6TB9JiwQCu4BEEdkbPBmOusQIFEicAR
QpXBvmWEQNWjREB1wZ/BLVNFQKprXED31I7BoIjeQMkWBUAQ4LfBYfCvQDgiVUBuypHBfyzuQDxy
i0AVmrvB0m3KQNE65kCnVbfBwmAKQHiTMMBt2YbBTy/NQJ8IE8ArM6/BZD/mQGkh9L4sFrvBoGea
QHUdHj9gMpnBE3ZaQMEldL9W0ZXB6ofVQFUoW8DYv6DBJSWAQO0ensCBzonBvJvFQBvVIkEQk8PB
riSQQHkOK0HU4cbBPQJ+QA1GBEG5rM3BLXi0QGAZ+ED1XcrBJe+RQFF5sEDycqnBJf3KQIvHtEB3
EqjBkcu0QLJ2ikAfF8TBfAjYQB44tkBOIcfBXC7mQF72JEDomJnBZT3aQI+6iUDCNZzBn1mcQEIv
W0DDJbTBuOxgQD4DD0H0E7rB1uiSQFscxECxRLvB8ef4QEtqWkDD9qzBBMTFQMfbEUHTD7HBt3Od
QH+o/kAXsazB2sdSQGnFQUAjCKTBdepMQHYoZUC89obBQoMKQK9YWkD1+ZHBU0fIQCKko7847azB
LabVQLT6eb5jlbPBSHWsQFrCsT6fGKDBHMuCQN4Y979tZJXBAwW8QAjVVMB8bpzBC+uMQG9eh8CD
0o/BWii0QO8Zfb+VGaPBzlimQBlqBcBpL5zBlwu4QCABsj+r/6bBLHXOQMiWij91nbDBZE1sQC4P
QcDlHo/BEhuFQMhQXUAyhJXB2fOlQJwcB0GeAKTBm9W8QDc7EEH3KZrBBWSoQIjBpUDRUq3BuzDh
QEVfsUApG7zBJ1fLQO7pUkBK75rBCySwQHxGakB5dK7BbZPWQNsEBEHllKLBD6POQDNVwUA2YrHB
57baQO4LWEDWJrTBo+ytQCUdNUBX86PBe63nQMkP20Cw5J/BiyCvQI27i8BcX5bBrwSDQPLIPECS
NJ/BAgNDQLSLdEBckI/BA+DcQIrbAUDSo7fB5wevQHbZZEACJZLBEQrcQJh6hEBxu73B+fbwQB/N
wkDih6nBWOwUQIUWN8BGkIbBFFPNQGiHE8DOSq/BQ5PlQCmC774uCrvB2aedQBktET9WfZjB41Rj
QLZTfr8mCZXBXoHXQMhPXMDJlaHBHNSCQI9FosBkBYvBYCuQQMjI8kBlJqPBtLmZQJnxEUF5OqrB
M+nAQI2hIUG4UZnB31q3QFgUCUGkPZLBUb+LQHhMrkCh+LHBWfCiQMwZrUBo06TBNevQQEdcwkAG
p8LB0MkBQV/cuEBMSrzBZjniQDZHIEBTx5jBhe3cQDlvhkCITp3BXqiWQG+nUUALsLPBAgfrQFvK
DUGd0afBzZ/CQHwF4kC8qbLB4ZD1QJwUaECF067BU5gCQZI/3kDpKZvBvXfPQIvNyUC+LpvBUMVP
QNKPK0AJ3KLBE1lKQJhxhkDhOIjB+1QIQKv0bED5nJLB7XTGQHRFp78Fl63BtmTTQLSGhL4HOLTB
8birQPi0mD6ffaDB4IB9QKgd/79y8ZbBSpG9QEp4UsBl+5vBJiSMQLfqhsBsBZDBZ9OyQM1Mg7+G
s6PBwP6kQD4EB8DuyZzBAMa3QHwurT8kLqfB4vfMQJyNiD8wALHBhE9kQIIfRMCfhJDBwE+FQExJ
XUCghJXBhHXzQNlzH0GcKKLBsP7+QA2XHkHdIa7B/ACzQIV7pUCNp6rBJCXjQPSGskDKnLrBxx3M
QJRpR0Aj6JnBqf2zQJAlbECeba3BGqvUQPZKFUGlJ6rBczO5QHRuv0A4CrXBUULdQNDnVkC8r7PB
nn6vQL9nMUDig6PBekfQQGp4+kD30KnBbgqxQMf1icADq5XBcCWEQMJbOkA1FZ/B7zpCQBp2d0B9
AJDBrlbbQGBBAkCV2rfBk9muQLgOZUC515HBQC/hQCj8hUDS/7zB8a24QGKh7EDVFbPB7L0EQJJH
PsAJX4nBL33LQIInFcDACbDB71fiQHzo8L6E0rvBJfOcQObpAD++2pjBeSpXQH9VjL+QaZfBW+na
QKL3V8CIfqDBL2WCQCBbocDPBIvBt2UCQR1bFUEtZpzBbWvrQCrWLkHMYp7BBTD/QEVaLUFg7LLB
A0gMQTjfE0HB77DBTwOUQHqfrUD2AqfBUuzMQFvsrECW/6TBv/LmQADsxEAGDsLBP2n+QE/wuEBh
SLXB7ILdQIxmDkDbH5fBpCXjQDTleUBJBZzB6bWYQHzZXkAzvLLBQKC3QJh4HkGlEazBA6+eQBhH
t0DNdLrBkBP5QAzbXkDyYq7BCTjwQPas60Av2KnBww6/QDn88EBUhKLBh75SQJVOKECq1qLBrvVH
QJYriUDvxojBDEkIQC52b0CAP5PBqgfGQJx0p78po63B/mvTQIaThL65MLTBKg6rQIQJlz61jKDB
3H98QMabAMDn/pbB+Fy9QEyDUsDjDZzBtFGMQDpSh8BxD5DBJh6yQMrFg7+Px6PBcnSkQFx8B8B+
3pzBv6q3QK0XrT83KqfB9i/NQJh1iD8t7rDBLPZjQKtvRcB/kJDB/HSFQLLLXUCNi5XBlOywQCPT
IkGKjq7BBu6kQB40F0EiFqTB4D2zQMIZpkCtmarB5qvhQBeasUBEE7vBcjvMQNttR0B16JnBXB20
QBSfbEBoVa3Bq6LRQH9WFEEV+ajB5pO4QOMFv0CJHrXBnh3dQJIVV0BHsbPBe5evQG5+MUBtfKPB
ymfdQLTr/UDmGK7B8jWxQEMLisBUt5XBZEeEQOWFOkB/FJ/B4nRCQIhBeEABE5DByPnbQNIIAkA2
urfBeveuQGyvZEA105HBB5LfQNMNhUCkLr3BYry3QFHv60ByJbPBukUEQNutQMAvbonBDezKQIs1
FcBdHrDBa5XiQDYP8L5KxbvBYOObQDtj/z6T9ZjBfrpVQO3/jr89cpfBKK/aQL6QV8B8laDBytmC
QALSocBjC4vBQm+iQI/QHUHnLLbBl3q1QNhGNEFDlK7Bz/CgQCtcIEE7o5zBeuWNQOLlCUHeO6TB
XYqUQIVqrkC51KbBBZrNQEfgrUAQGqXBGyLkQCpQw0C8p8LBNMv9QAeWuEA6FLbBeb/dQPF5DkB9
J5fBpyjjQCgdekBlBJzBGraYQKqqX0A3nbLBt8TrQK6nHEFKy6TBQVSdQESqtkCQSLrBT0j5QAJA
YUDska7BTn32QI14AUFZJLTB2TTpQIbV50Cv6afBYghTQJVMKEDy06LBVv9HQLVkiUC304jBBaEI
QMvRcEChX5PBbd3HQPBPpb9gW63B073UQCzpfL5OEbTBtNKqQG6LpD5xp6DBFhB9QFJS/r/o7JbB
Xuq9QDw7UcDhsZvBD7uLQCjLhsBK/4/BbyOzQCHpgL+BmqPB/jWlQJzyBcDln5zBIni2QEaZrz+S
fKfBEAvNQMSyij9BHbHBkjxjQGgfRMDulJDBGFiFQOSGW0AzkJXBgzfgQEFVC0FbQJLBxPQEQVYW
DUFavZjBBgqpQJ/FpkCPzqzBD53kQB32tEBLbLrBcFrLQGPdSkBQ2prBYHOwQA70a0D3Ra7Bjxvk
QCw6AEFxFp3Bdy7RQLQiwkC2fK/BCPbaQKCQWUBnALTBso6tQAgwM0CsDaTBveDnQCGHz0De/JzB
fxaxQNKCicCedZXBaduCQG+CO0ADRZ/BUPZDQHb9ckASjo/BwXPbQNzIA0DxAbjB512vQNqpY0Ap
S5LB3yLeQMSGiEAuDr3BSU/yQAwlvkCaa6fBzKUCQP4cP8AWoYnBIc7NQDo7FMA5pq/B2KPkQJGj
7r5CibvB3m2bQEj6CD8aHJnBEINWQNjgi78xcZfBqqXbQK9SVsCnDaDBnLeBQCZjocBtFIvBgGzf
QELKAUEk3IrB00nLQLJeGUF2WpHB5WgJQdpfHEEpfZzBO3oTQWnLBEHY/pXB772OQGC3sEAZGrLB
3wigQC3FrEDRbqTB/8DVQK2eyEDytMDBY54DQTg+u0BFNLrBbf7eQAOTE0ByfpjBzljgQN0pgEAG
JJ3Bf/iWQHpxVUBIp7PB5j3SQBBZB0E0yKPBwBvHQM7J40DCDLDB9af1QEJKZECsbK7BAJYAQWxY
xkCRUJfBYCrJQCfuwUDmWprBKSBPQAEMK0BC56LB7NBLQCX6hUAfQYjB5A8JQNf1akDihJLBJBvI
QGPFpL+RT63BgC3VQATMd77a/LPBYDSrQJLOpz4kmKDBdAV9QGHH/L8z75bBgaq9QNI6UcAZr5vB
xzWLQE1/hsB4ApDBXGCzQMxCgL+Ej6PBHjelQDKZBcAKnJzBp+e2QHtpsD9qbKfBEonNQDtgiz9g
BLHBwrJiQNwpQ8DFmJDBWH+FQFYiWUC7gZXBVNQAQZhS6EDxEYzB5vnwQDexukDhw43BeFuqQE5e
p0DhLKzBIsXgQGeGtEAvYLvB+GfLQA4hTUBT9JrBja2wQJQebUC3La7BFMYEQW5z0UBruJbBdz/Q
QF3swkCLRrDBgObaQJxRWkB5CLTBA8KtQGa0M0B/E6TBCoHwQJWR4EBfgaDB+ZGwQBt1icDndpXB
HPeCQBTYO0ApVp/BwLZEQNCbckDbi4/BvBLcQG7/A0Dp4LfBOVSvQLpeWUBD+5HBdKbcQKFgh0Am
YL3BcODyQIiYwEDjvqjBPh0CQJ5dPcCip4nBHuTNQCr4E8DAn6/B/i7lQF2j676McbvBXuKbQJO3
Cj+bCpnBf8pWQDHsib8Vd5fBbGjbQKusVsALCKDBjf+AQMIHocDkGIvBRhDrQB2iAUFJrIvBbDoO
QXkq7kDmjYbBl87/QOHJn0AfeInBBWrOQKLjtECClo7BfwiNQGq2sUCoTLDBKtWmQFWprEAmhaPB
lo/OQKLNxUB6i8HBC2oBQTEWvUDO+bvBjLLiQBYHGkAtTZnBdobcQJNahEAn3pzBnaqWQIbnWEDI
irPBvTUVQfJMxkBALpjBlizFQPo55ECW87DB5wf2QJx1Z0AdrK7BHtnOQELJ5UAvSJ7BWlD+QMGy
/kAVeKPB7k1PQEkeLUCQE6PBvJRMQLCjg0AHCojBXh4KQGNTcEBSwJLBoLXAQA2Iq7+IPa7BTCPM
QKATkr7oAbXBNnyqQIDggT51f6DBH/x/QBLiA8DyZZbBWT++QEmuVMCLUJzBf3OQQP+RiMB3i4/B
uEWwQCLNiL8M9qPBFMCkQF4/CsCz05zB+Qq2QLZtqD+sKKfB3CXIQJKkhD/BbbHB70VrQE+GSMC2
uo/BLaKEQB3rXkBtsJXBhxngQJYqHkHoAK/BTYwDQQ0bFkGcaLXBN1+7QO9jpUCjcKrBEDHSQG4c
oEDCXL7ByHjLQNMBQkCdQJnB6sO4QA4ra0Aeo6zB4lvaQMIWFkFaerrB4i67QJETu0BWiLXB1Gji
QEYuTkBLOrLBZBqwQJPgL0AEIqPBYvXCQIf2AEE7RbzB8vqzQN4Ri8BkvJXB1E6EQI0zPUDGTp/B
XdxAQIOOfkDtqZDBhvjXQK3jAUC97LfBXTqtQAZlXUAqUJHBWfnyQFO8hkDDfLnBzwzQQNAR40Bq
Z7TB1kUPQAMBRMDH3YfBD3jEQGwjF8Bv4rDBRf3XQN8++r5r9bzBDBudQGOM5j4/sJjBWG5YQAZz
lr9dnJbBtXbaQFFmWcDDRKHBMXyIQBsBo8D6WIrBXLvTQBu3FEEqQajByq/cQIpQL0E7N63BdL8P
QSZ/IUE7M7jBPUULQbflBkEqPbPBT6SfQE3ur0AMtKXByQfZQNYZrUAyHKbBYdi6QJoPi0B2UsLB
x5PgQOCvtUAjUMTBX0bcQPLPB0BEoZbBS/XiQI69dED36JrBfJieQOVmYUD9ZLLBF7PUQMmFIkEY
i8DBTb+ZQIzkv0CJAbjBdWH6QGASQECXB6zBLEOgQN+eA0FMnLvBWYzKQAK59UC6TcTBqcZTQJmq
LkCPcKPBkxFFQIBhi0DWRonBOWIIQOQwfUBPbJTBFUjBQIo4qb8cAK7Bp9TNQOwskL7rvrTBY6Cp
QFhTlT4BjaDBZZp9QCdgAcD+cJbBEoG9QHbYUcAwJZzBGyKPQO5Sh8AFj4/B/r+vQExxhL+O3qPB
XuSjQLGfB8DyvZzBQuy1QDKuqz9fQafBLIzJQDJ9hT/rVLHB2mVoQEgzRsDy04/BSLGEQFTxXEBq
j5XB8ZnPQKgj8UBpNpzBHbe9QCpXD0HfPpzBfoy4QE17pEAlW6vBN77RQPi8oEDr877BoqPLQE61
RUDCs5nBGo23QHBrakA7Xa3BEJOxQAbj/0AEQaXBgXW9QO3bvEBMILbBxDfiQM6lT0Azm7LBEpuv
QMXFMUDXeKPBGvDEQNNjA0FxerDBhwOzQO6vicAznpXBpv6DQJB8P0Cgap/BKM5AQNZhdUBb9Y/B
sefZQPwTAUCH77fBOemtQDpKYEBWlpHBc2/yQE3ChkAOK7rBn5zZQBWu4EB8c7TB/kgLQPJSQsDw
LIjB+gDFQHA/FsAgi7DBvsnaQNc7/764kLzBd3ibQEsbAD8L2ZjBLftVQL+Okb+2tJbBpALaQK5L
VsCV/6DBW/SGQP/OocD5ZYrB+brxQPuX60B/3J3B1VPEQL7Z2UAAP5bBAqKlQCMUFEHdR5bBJgnT
QELzHEFd5Z3BrZKaQM9NrkBpc6fBrMTTQDYxrECsHqbBqRq5QN0ijEDijcLBBuXfQAw/tUAtK8XB
GUjdQOddDECKIZfBjm7iQAhUeUBYh5vBSNidQPI1XUACJbPB6tGQQH0G80ABCaXB+8KdQLvLx0C+
zbjBUuz5QC6URUBQOazBUzGrQGfuB0GGCLbBq6ncQBVdEEFVDbDBL6dSQMHzM0CvmKPBWA5GQBau
hUBAeYjBejQHQCMIcUAdZ5PB5wrBQPLUqb+N+K3BpWvMQLAZkL6yz7TB9XSqQLUBkT7vXqDBElSA
QKA2AsCyG5bBi+69QP8FVMDUOZzBHvCPQK5diMAVh4/BMISwQFvHhb+duKPBKfKkQKjECMCIlJzB
g9K1QJlhqz8rJqfBcC3IQOyGhT//XLHB2DlrQChkR8BHj4/Bw0+EQDOJXECulpXBMPG5QKBlHEFS
0L3B2FSnQEZ6JkFynLPBOFK7QLUKpkANGqvBKcTTQCCPn0D75L7BEFLLQMTnREDZcpnBobu4QJY6
bECwBK3BpQHNQOjVFkGT2rLBmDu+QDMBvEAvR7bBv4/iQDw9TkCba7LB+uCvQOQUMkDUUKPBLCrE
QG2uAEEiSq7B5VSzQB38isBnwpXBmRmEQGgZQEBHep/BpjBAQOIReUArSJDBwRHYQAJ2AUAN9rfB
v9esQHGeWEA4N5HBHODzQNLhhUA41LnBuBPXQNgc4kB6QrXBy3MPQIijQsB3qYfBeOfEQBx5FsCA
iLDB63HYQBIz/b7murzBfw2dQH5E+j4vlJjBZ9lZQFoKkr8UMpbBywjaQLzxWMCRN6HBe7GHQIP7
osCiaorBQmqnQLVaEEFyQcLBRTzMQANKJkHbecPBf0usQN+WN0H797HBe3mHQJGnIUGRv7DB/Y+e
QCAasUDV2KbBrefXQFitrUCAVabB7qS7QGHBikCmo8LBNJ3iQPnms0DVCsXBSoveQE6hDEBzPpfB
+6DgQCSye0C/6prBULueQNxHYUBCyrLBzGvsQKndHUFGArHBXKCdQNnTw0CD9LjB0zH6QC+tQEB0
H6zBfUrSQES3/kCrQabB6GyhQBAL/EBfy63B3mNTQH13NUAMzKPBYmZEQDtvhkBMsYjBqLMHQG/d
eUCJCpTBZJ7FQNr8or+jFK3BW4zUQG44fL5hwbPB0S+pQFWSxT6OqKDBPV62QIv7UcDz35vB1Gx4
QHa27b8xxpXBl0WCQIC1gMDrvo7BsQ+wQMr1dr8jc6PBnMagQJbWAsCrUZzBFV63QGu2tj8ZZKfB
eEvOQAHljD/b8bDBh+KmQB3liMAGA5XBzRSGQOIDVECHZpXBUfWnQO7KHUFUH8TBnnOdQIpYB0FL
IsjBBSqyQH7gqEAvGK3BJ9vMQOO/oUCAmcDBEFfMQKClUkB4w5rBkKe1QL/9b0BsaK7BEVeVQFtF
DUHLSLzBv2a1QJFavkDMR7jBhZbhQBj1WECpW7PBiqmvQCc5OUDvK6TB9mWzQPDHBEF/a7PBRFxb
QPY6NcAxMo/BJmKEQB/nRUBtyZ/B1BdFQEkWXkCf4o7Bx4DeQEcyBECW0rfBn86vQNSVVEBixJHB
tETvQNvJikDWe7vBJcjMQIgH5kDTL7fBoPPAQOQyusA/PZTBKp/KQOSDE8DZT6/B5vPkQIML/L7d
GbvB/+GYQHDjHz+SSJnBfV3SQFk/XcCfvaDBUQhXQECBab9EC5bBasRsQI1cmcBceInBdIjJQMrZ
IkGtWsPBjVyUQBR4K0HYtMbBJUOCQNraBEEVlc3BDG+3QCB5+EDqOsrBYD2TQN/2sEC4aKnBFlPM
QB5rtEBJ9qfBlwm2QJm+ikCiCcTBjvfZQLEDtkBMAcfBudHlQF4RI0CGipnBibvaQJD9iEC1HJzB
D+KcQBciXEBlJbTBz1lnQN2QD0Hr+7nBWNeUQOnIxEBQNrvBj0n5QAWDWEAG2qzBn+bIQDTAEUFl
37DBX/ufQEf6/kDEkqzBRN5SQEcPREAsGKTBZYxMQF5vZkAvAofB9VwKQHMBXUC2D5LB

> <OMEGA_E>
uLQAP9ip5D5AuN4+oLXePgh53T4ghts+cAfWPpAD1T4QqNM+PHohPw==

> <OMEGA_NBR>
     69590

$$$$
50248149
  -OEChem-04172616093D

 57 61  0     1  0  0  0  0  0999 V2000
    6.2000   -1.3274  -21.6480 C   0  0  0  0  0  0  0  0  0  0  0  0
    6.6128   -0.2769  -22.4813 C   0  0  0  0  0  0  0  0  0  0  0  0
    6.8611    4.2807  -23.7143 C   0  0  0  0  0  0  0  0  0  0  0  0
    6.5776    5.6448  -23.5293 C   0  0  0  0  0  0  0  0  0  0  0  0
    5.4051    0.2945  -20.0153 C   0  0  0  0  0  0  0  0  0  0  0  0
    4.0634   -1.9911  -18.6415 C   0  0  0  0  0  0  0  0  0  0  0  0
    5.6575    5.1432  -21.3350 C   0  0  0  0  0  0  0  0  0  0  0  0
    5.8252   -3.4043  -19.5422 C   0  0  0  0  0  0  0  0  0  0  0  0
    4.4016   -4.2771  -17.8963 C   0  0  0  0  0  0  0  0  0  0  0  0
    5.5903   -1.0502  -20.4059 C   0  0  0  0  0  0  0  0  0  0  0  0
    5.1545   -2.1560  -19.5215 C   0  0  0  0  0  0  0  0  0  0  0  0
    5.8162    1.3580  -20.8520 C   0  0  0  0  0  0  0  0  0  0  0  0
    5.9394    3.7705  -21.5111 C   0  0  0  0  0  0  0  0  0  0  0  0
    6.4270    1.0666  -22.1001 C   0  0  0  0  0  0  0  0  0  0  0  0
    6.5506    3.3345  -22.7157 C   0  0  0  0  0  0  0  0  0  0  0  0
    5.9880    6.0910  -22.3316 C   0  0  0  0  0  0  0  0  0  0  0  0
    3.6849   -3.0650  -17.8225 C   0  0  0  0  0  0  0  0  0  0  0  0
    4.1751    3.4805  -18.7229 C   0  0  0  0  0  0  0  0  0  0  0  0
    6.4064    3.1033  -19.1225 C   0  0  0  0  0  0  0  0  0  0  0  0
    5.6065    2.7923  -20.3912 C   0  0  2  0  0  0  0  0  0  0  0  0
    8.2888    7.3293  -20.5485 C   0  0  0  0  0  0  0  0  0  0  0  0
    7.7096    9.6055  -21.4987 C   0  0  0  0  0  0  0  0  0  0  0  0
    7.2517    9.0836  -19.0704 C   0  0  0  0  0  0  0  0  0  0  0  0
    5.8228    8.0424  -20.8659 C   0  0  0  0  0  0  0  0  0  0  0  0
    7.2684    8.5001  -20.5064 C   0  0  0  0  0  0  0  0  0  0  0  0
    5.4480   -4.4296  -18.7427 N   0  0  0  0  0  0  0  0  0  0  0  0
    4.2137    2.9802  -19.9420 N   0  3  0  0  0  0  0  0  0  0  0  0
    3.0110    3.8160  -18.0495 N   0  0  0  0  0  0  0  0  0  0  0  0
    6.8759    2.0176  -23.0049 O   0  0  0  0  0  0  0  0  0  0  0  0
    5.4449    3.6621  -18.2139 O   0  0  0  0  0  0  0  0  0  0  0  0
    5.7237    7.4475  -22.1992 O   0  0  0  0  0  0  0  0  0  0  0  0
    2.6388   -2.9379  -16.9743 F   0  0  0  0  0  0  0  0  0  0  0  0
    6.3491   -2.3511  -21.9581 H   0  0  0  0  0  0  0  0  0  0  0  0
    7.0799   -0.5014  -23.4288 H   0  0  0  0  0  0  0  0  0  0  0  0
    7.3231    3.9526  -24.6338 H   0  0  0  0  0  0  0  0  0  0  0  0
    6.8130    6.3536  -24.3094 H   0  0  0  0  0  0  0  0  0  0  0  0
    4.9430    0.5136  -19.0641 H   0  0  0  0  0  0  0  0  0  0  0  0
    3.5289   -1.0536  -18.5994 H   0  0  0  0  0  0  0  0  0  0  0  0
    5.1816    5.4748  -20.4240 H   0  0  0  0  0  0  0  0  0  0  0  0
    6.6598   -3.5412  -20.2138 H   0  0  0  0  0  0  0  0  0  0  0  0
    4.1097   -5.1023  -17.2637 H   0  0  0  0  0  0  0  0  0  0  0  0
    6.8458    2.1849  -18.7060 H   0  0  0  0  0  0  0  0  0  0  0  0
    7.2058    3.8282  -19.3358 H   0  0  0  0  0  0  0  0  0  0  0  0
    7.9761    6.5443  -19.8442 H   0  0  0  0  0  0  0  0  0  0  0  0
    8.3284    6.9140  -21.5663 H   0  0  0  0  0  0  0  0  0  0  0  0
    9.2846    7.7006  -20.2649 H   0  0  0  0  0  0  0  0  0  0  0  0
    6.9875   10.4348  -21.4694 H   0  0  0  0  0  0  0  0  0  0  0  0
    8.7055    9.9765  -21.2151 H   0  0  0  0  0  0  0  0  0  0  0  0
    7.7493    9.1899  -22.5164 H   0  0  0  0  0  0  0  0  0  0  0  0
    6.5337    9.9155  -19.0204 H   0  0  0  0  0  0  0  0  0  0  0  0
    6.9536    8.2989  -18.3594 H   0  0  0  0  0  0  0  0  0  0  0  0
    8.2561    9.4502  -18.8120 H   0  0  0  0  0  0  0  0  0  0  0  0
    5.4972    7.2973  -20.1251 H   0  0  0  0  0  0  0  0  0  0  0  0
    5.1577    8.9174  -20.8227 H   0  0  0  0  0  0  0  0  0  0  0  0
    3.4068    2.7579  -20.4893 H   0  0  0  0  0  0  0  0  0  0  0  0
    3.0604    4.2171  -17.1348 H   0  0  0  0  0  0  0  0  0  0  0  0
    2.1217    3.6569  -18.4784 H   0  0  0  0  0  0  0  0  0  0  0  0
  1  2  2  0  0  0  0
  1 10  1  0  0  0  0
  2 14  1  0  0  0  0
  3  4  2  0  0  0  0
  3 15  1  0  0  0  0
  4 16  1  0  0  0  0
  5 10  2  0  0  0  0
  5 12  1  0  0  0  0
  6 11  1  0  0  0  0
  6 17  2  0  0  0  0
  7 13  1  0  0  0  0
  7 16  2  0  0  0  0
  8 11  2  0  0  0  0
  8 26  1  0  0  0  0
  9 17  1  0  0  0  0
  9 26  2  0  0  0  0
 10 11  1  0  0  0  0
 12 14  2  0  0  0  0
 12 20  1  0  0  0  0
 13 15  2  0  0  0  0
 13 20  1  0  0  0  0
 14 29  1  0  0  0  0
 15 29  1  0  0  0  0
 16 31  1  0  0  0  0
 17 32  1  0  0  0  0
 18 27  2  0  0  0  0
 18 28  1  0  0  0  0
 18 30  1  0  0  0  0
 19 20  1  0  0  0  0
 19 30  1  0  0  0  0
 20 27  1  0  0  0  0
 21 25  1  0  0  0  0
 22 25  1  0  0  0  0
 23 25  1  0  0  0  0
 24 25  1  0  0  0  0
 24 31  1  0  0  0  0
  1 33  1  0  0  0  0
  2 34  1  0  0  0  0
  3 35  1  0  0  0  0
  4 36  1  0  0  0  0
  5 37  1  0  0  0  0
  6 38  1  0  0  0  0
  7 39  1  0  0  0  0
  8 40  1  0  0  0  0
  9 41  1  0  0  0  0
 19 42  1  0  0  0  0
 19 43  1  0  0  0  0
 21 44  1  0  0  0  0
 21 45  1  0  0  0  0
 21 46  1  0  0  0  0
 22 47  1  0  0  0  0
 22 48  1  0  0  0  0
 22 49  1  0  0  0  0
 23 50  1  0  0  0  0
 23 51  1  0  0  0  0
 23 52  1  0  0  0  0
 24 53  1  0  0  0  0
 24 54  1  0  0  0  0
 27 55  1  0  0  0  0
 28 56  1  0  0  0  0
 28 57  1  0  0  0  0
M  CHG  1  27   1
M  END
> <OMEGA_C>
DmbGQF3nqb8sL63BY5zTQH/Cjb632bPBc47bQG37iED4tr3BVXvSQB+itEAMPLzB3vasQHfDlj5k
H6DBqweCQMrc/r+7IZXBeAq1QDKVpEATrqrBSWi6QFPfWcBiVpzBHNqMQMHdiMCdK4/BpeOyQGFs
hr87P6PBBvKkQLb8CcARLJzBgR66QIHTrT/20KbB1w++QLNPcUCoFqzBTqrNQCuFiD8YzbDBnp7R
QChoVUCnubXBVZ2/QIvpwkAip7LB8tRrQJUpRMBklI7BF5qFQFTAXkCUyJXBQAHNQCGcRkDz+pjB
DGizQDy1MkAkIaPBxZ4EQWOJ6kBJY6TBA7X2QB+wGUFk/avBvg3oQEtWEUFCkJjBpVS6QH2tAEF3
7abB35boQHoACEEnDaTB2VWuQAG/jcAa8ZXBdNaGQGC8PkBOiZ/BhLRAQLU4dEBwZZDBAQfcQMwf
AUDzCbjBizyuQJ5gakAUtpHBYii3QDtS7kDjl7HBMOIoQNIFPMBgy4fBHSzLQE14FsAzqq/B747i
QK1cAL88brvB9lbqQJ33fEDzEcXBUATaQKRQy0CvecLBHi2eQPR8Az9Pg5jB7NlhQGLchr+Vy5TB
ws+lQMAxr0BUZKPBQB3VQNCjYsDjtaHB64KDQFtGo8AiHIrBxhDbQFXVC0DhpZXB1JXmQCMBdUC0
r5rBBDz/QH9q0UD7wJ7BC0EFQWg/3UDMh6zB0o0UQRlr9kCZHqLBnpnfQOP0JkFJwavB5EkLQaif
H0FuuKnBO/r3QNAJE0GgIbTBLhTRQK+lHkHgKZjBFITeQGrIBEEn4JLB2xgEQRY0F0EQf5bBA+mv
QDCD6UBKAKHBhAulQJitDkHolKbBowhaQAeBMEAI6qPBJt5DQE/yhkAmFInBu8oHQGsKakCv05PB
mjrEQMOJq7+uza3BWpvOQPKKjb5rmLTB/rHbQB9PiUAfjbzBd7DaQKaTtECg0bnB1uytQN7Lej7k
GqDBelmAQDjgAsDDfJbBiGrBQCuNokA4C6jBEXu+QAYSVsBd9pvBinmOQB5+iMDVlY/BiROzQIOm
ib8mnKPBS+SlQGiMCsCgn5zBgOC5QPYuqD8zsqbBEF3DQLCzbUDFparBryHJQCWWhj8yL7HBaTDQ
QHZEVECDELXBm8jMQGiNwUAFia/BYeBoQAZFR8BD7o/BTP+EQCavXECS6JXBqi3MQDjsOUDewpfB
jOC0QFLALUA/dKLB56yqQCcwBEH7n8LBh46eQDwpHkHJhLPBFT3dQBAgI0HHDsDB0yzfQLPeBUGy
Y7LBRVPBQIBzEkGJJLrBULKyQICji8C/gJXBQf2HQLoTPkDTrp/B0zU/QOwafUDljZHBZs3SQKoR
AUCOo7jBVs6rQIYlWUB7opDB0YjIQAeL60AJVKzBymMgQGiBQsBaEIrBKVrJQOz4FsBbXrDB5uba
QD9W9L4/grzBhmvlQCSuf0A8f8TB0pTkQAlXzECWlb/BIqugQCYg4T6TR5jBlFlaQDjgkr8p1pbB
1AO3QI0yrEBLKqDB0TrbQLPfW8DHs6DBQFSFQDHXosCke4rBFTzZQMJ/+T+x4JTB+kLmQKe/aECg
kpjBAd/CQNZ090CYasfBIRaWQE3p8EANj77BuQmXQERLDkHn5cfBGfmtQBlZKEEjd63BY/qKQGgk
KEFI3bjBywaKQMpNEkFvhq/BQ4jtQJ9fLUEmLbrB2Tn1QOfPGkEn+sTBGM7IQL0LLUGROsXB9Fv4
QD3++0CsHLfBWd3tQLJBEUEBxqzBPUleQK1sM0Cdi6TBrhE/QHoMikCgForBJlsJQHWFfUBa4JXB
9mbDQLZCpr9K9K3BXNDRQNywgL7LdbTBl7XZQLnHiUBldL3BTE7OQAattEAH0LvBUJ6uQCqkmz7T
SKDBFfS1QNxRVsCfGZ3BcQ2yQOQ5okCkT6rB7oh/QIC47r85uZXBLi2EQEHfgcAzVY/BGq2xQCNZ
gr9L0aPBzUmiQJmnBcAp25zBkdm7QL6UrT/M3abBH/u9QAT7bkAUzKvBgxHOQOxiij9tCLHBloLR
QIC0VUB1i7XBXra6QA8bwUALMLLB8HWmQIcMi8B0TZbBzXGGQNgLWUAImpXBST/OQAtGQ0BGy5jB
H6W0QOhCMEAU9KLBBLgCQZie2EBvx6PB+xz9QPLsEUHt4arBHCXtQEOMCUGJepfB1tm5QMtM/EAK
zqXBJT/qQBMjAUE/G6PBVAFjQLqZNcDyIY/Bev2HQEzvOUArX5/BUhlCQLTUc0DPrJDBbrvcQKGy
AkDBD7jBwMKuQFzoXUBCHJHBdjayQLvS60DXjLDBgC64QGdmssBKh5bBhtrFQJiAFMBmsbDBKePf
QKBT8L73J7zB6+joQHprgEBS2sTB8pbUQO8rzEBu88HBt/WhQHe2Az9cbJjB/HTQQJLOYsC/a6LB
7gCiQHmWq0ChBqPBGhNhQFpQZb9ijpXB+x5xQIaUmsAaCYrB9ArfQAuNCUCuApbBm53lQKCkdkBS
PJrBY0D4QHKJwECzRZ7BDUgCQXYlzEBPAazBiVwTQZm930CBiaHBVRfqQOK1IEFUdqrBajUPQVNm
FUHNn6jB3EH8QEKaC0GcF7PBtTbaQAxPGEFVuZbBs4bgQLnC+kBN9ZHBfWEHQVztDEFrfZXBNvmr
QEnA5UCQAaDBctmpQJTBDUFmEKXBC69cQGzkKkBGxaPB8CREQA9xhkBfUYnBHxQKQMkbbkAKepTB
dp3EQPoVqr/sA67B41PPQCaGhr7Bv7TB4szaQDQJikAyo7zBm/zYQIRGtUAn4bnB4cGuQGDLfj5z
OaDBhB6+QBgiVcD7RpzB2YHAQHSbokBjFKjB/YaAQJB7AcAiipbBaOmKQJHlhMB6QI/BC1+zQHib
iL9L0aPBqNelQOTXCcA93ZzBvtC6QJXbqD9IxabBDCfDQIYMbkB+tarBgfHJQCoTiD+qSLHBZwTQ
QH4vVUCSJbXBPA/LQLvTwUCfkK/BR36wQHPZisA+VpXBgE6FQCSpW0D+6ZXBU63MQMikOkC21pfB
6lC1QHK/LUBsgaLB2FGpQAk5BUF6bcLBxYWcQHSNHkGnErPBoNXbQA8EJEFzW7/B8/XcQMIXBkEY
ErLBF5C/QFIbE0FKurnBL05nQLTZQMD974/BIVqIQLKkPEAQq5/B3fs+QD4UeUBAdJHBK1vTQEgZ
AkAiubjBaYmsQAhKXECjz5DBwr7FQJ6Y60DjUazBkmfHQHdMr8C/fZTBeorJQE8zFsBZn7DBqczb
QDF8676iprzBspTkQMnPgEDRmMTBaUHiQL5LzUCipL/BatOhQBZQ4T4GXJjBVp3aQNwFXcDJEKHB
GDC2QDT/q0DLLKDBBvVbQLeOjr9hAJfB23SAQKcDnsCG7InBqRjZQOja+j9BzJTB/DrnQGdHaEA+
wJjBU73BQJ3u+UCRPMfB+IeUQBOl8kArjb7BI/GVQDuPD0ESpsfBf7GrQPV2KEFc3qzB1TOJQKLG
KEHWXLjBq8qHQPCJEkHvQ6/BFtPrQNf8LUGwTrnBoBL0QPfnG0HgSMTBd7bHQOotLkGTfMTBP0r2
QCfJ/EDv0LbBJH/rQAEjEUELQ6zBVfdeQIzZMEBke6TBosM+QHJyiEBVB4rBBpoIQMqAdkDfqJXB

> <OMEGA_E>
aJ7pPkDj0T6ExRY/lLgNPw==

> <OMEGA_NBR>
     73643

$$$$
50218617
  -OEChem-04172616093D

 56 61  0     1  0  0  0  0  0999 V2000
    6.3143   -1.2868  -21.6213 C   0  0  0  0  0  0  0  0  0  0  0  0
    6.6066   -0.2361  -22.4942 C   0  0  0  0  0  0  0  0  0  0  0  0
    5.3455    0.2856  -20.0248 C   0  0  0  0  0  0  0  0  0  0  0  0
    5.6385   -1.8393  -18.0528 C   0  0  0  0  0  0  0  0  0  0  0  0
    5.0973   -3.3665  -19.8714 C   0  0  0  0  0  0  0  0  0  0  0  0
    5.0576   -4.1565  -17.6659 C   0  0  0  0  0  0  0  0  0  0  0  0
    5.6972   -1.0185  -20.3831 C   0  0  0  0  0  0  0  0  0  0  0  0
    5.4695   -2.0825  -19.4284 C   0  0  0  0  0  0  0  0  0  0  0  0
    5.6406    1.3443  -20.8780 C   0  0  0  0  0  0  0  0  0  0  0  0
    6.2985    1.0778  -22.1224 C   0  0  0  0  0  0  0  0  0  0  0  0
    5.4296   -2.8921  -17.1617 C   0  0  0  0  0  0  0  0  0  0  0  0
    5.5925    3.2185  -18.1580 C   0  0  0  0  0  0  0  0  0  0  0  0
    6.0581    9.3921  -20.7026 C   0  0  0  0  0  0  0  0  0  0  0  0
    7.1837    9.6607  -21.7214 C   0  0  0  0  0  0  0  0  0  0  0  0
    5.5855    5.1723  -21.3205 C   0  0  0  0  0  0  0  0  0  0  0  0
    6.4384    5.1114  -23.7708 C   0  0  0  0  0  0  0  0  0  0  0  0
    3.9854    2.9345  -19.7781 C   0  0  0  0  0  0  0  0  0  0  0  0
    5.5831    3.6833  -21.6025 C   0  0  1  0  0  0  0  0  0  0  0  0
    5.7343    9.4919  -22.1997 C   0  0  0  0  0  0  0  0  0  0  0  0
    5.5989    5.8595  -22.6977 C   0  0  2  0  0  0  0  0  0  0  0  0
    6.9371    3.3076  -22.2592 C   0  0  1  0  0  0  0  0  0  0  0  0
    5.3750    2.7686  -20.3951 C   0  0  2  0  0  0  0  0  0  0  0  0
    5.3311    8.2231  -22.9474 C   0  0  0  0  0  0  0  0  0  0  0  0
    4.8973   -4.3737  -18.9954 N   0  0  0  0  0  0  0  0  0  0  0  0
    6.2726    3.1083  -19.2802 N   0  3  0  0  0  0  0  0  0  0  0  0
    6.1650    3.4310  -16.9137 N   0  0  0  0  0  0  0  0  0  0  0  0
    6.7189    2.0864  -22.9562 O   0  0  0  0  0  0  0  0  0  0  0  0
    4.2351    3.0862  -18.3756 O   0  0  0  0  0  0  0  0  0  0  0  0
    7.4566    4.3265  -23.1374 O   0  0  0  0  0  0  0  0  0  0  0  0
    6.1513    7.1431  -22.4853 O   0  0  0  0  0  0  0  0  0  0  0  0
    5.6432   -2.6338  -15.4489 Cl  0  0  0  0  0  0  0  0  0  0  0  0
    6.5606   -2.3021  -21.8946 H   0  0  0  0  0  0  0  0  0  0  0  0
    7.0674   -0.4363  -23.4502 H   0  0  0  0  0  0  0  0  0  0  0  0
    4.8449    0.4715  -19.0861 H   0  0  0  0  0  0  0  0  0  0  0  0
    5.9232   -0.8607  -17.6953 H   0  0  0  0  0  0  0  0  0  0  0  0
    4.9700   -3.5481  -20.9284 H   0  0  0  0  0  0  0  0  0  0  0  0
    4.8965   -4.9717  -16.9761 H   0  0  0  0  0  0  0  0  0  0  0  0
    5.9998    8.4203  -20.1905 H   0  0  0  0  0  0  0  0  0  0  0  0
    5.7361   10.1885  -20.0155 H   0  0  0  0  0  0  0  0  0  0  0  0
    7.6651   10.6490  -21.7620 H   0  0  0  0  0  0  0  0  0  0  0  0
    7.9288    8.8808  -21.9369 H   0  0  0  0  0  0  0  0  0  0  0  0
    4.6836    5.4572  -20.7589 H   0  0  0  0  0  0  0  0  0  0  0  0
    6.4798    5.4516  -20.7441 H   0  0  0  0  0  0  0  0  0  0  0  0
    5.7794    4.4511  -24.3537 H   0  0  0  0  0  0  0  0  0  0  0  0
    6.9088    5.8451  -24.4419 H   0  0  0  0  0  0  0  0  0  0  0  0
    3.4835    3.8256  -20.1829 H   0  0  0  0  0  0  0  0  0  0  0  0
    3.3658    2.0460  -19.9695 H   0  0  0  0  0  0  0  0  0  0  0  0
    4.7864    3.4725  -22.3311 H   0  0  0  0  0  0  0  0  0  0  0  0
    5.2273   10.4153  -22.5163 H   0  0  0  0  0  0  0  0  0  0  0  0
    4.5637    5.9425  -23.0602 H   0  0  0  0  0  0  0  0  0  0  0  0
    7.6605    3.1349  -21.4486 H   0  0  0  0  0  0  0  0  0  0  0  0
    4.2730    7.9964  -22.7499 H   0  0  0  0  0  0  0  0  0  0  0  0
    5.4800    8.3661  -24.0279 H   0  0  0  0  0  0  0  0  0  0  0  0
    7.2608    3.2375  -19.3629 H   0  0  0  0  0  0  0  0  0  0  0  0
    5.5854    3.4976  -16.1015 H   0  0  0  0  0  0  0  0  0  0  0  0
    7.1575    3.5178  -16.8282 H   0  0  0  0  0  0  0  0  0  0  0  0
  1  2  1  0  0  0  0
  1  7  2  0  0  0  0
  2 10  2  0  0  0  0
  3  7  1  0  0  0  0
  3  9  2  0  0  0  0
  4  8  1  0  0  0  0
  4 11  2  0  0  0  0
  5  8  2  0  0  0  0
  5 24  1  0  0  0  0
  6 11  1  0  0  0  0
  6 24  2  0  0  0  0
  7  8  1  0  0  0  0
  9 10  1  0  0  0  0
  9 22  1  0  0  0  0
 10 27  1  0  0  0  0
 11 31  1  0  0  0  0
 12 25  2  0  0  0  0
 12 26  1  0  0  0  0
 12 28  1  0  0  0  0
 13 14  1  0  0  0  0
 13 19  1  0  0  0  0
 14 19  1  0  0  0  0
 15 18  1  0  0  0  0
 15 20  1  0  0  0  0
 16 20  1  0  0  0  0
 16 29  1  0  0  0  0
 17 22  1  0  0  0  0
 17 28  1  0  0  0  0
 18 21  1  0  0  0  0
 18 22  1  0  0  0  0
 19 23  1  0  0  0  0
 20 30  1  0  0  0  0
 21 27  1  0  0  0  0
 21 29  1  0  0  0  0
 22 25  1  0  0  0  0
 23 30  1  0  0  0  0
  1 32  1  0  0  0  0
  2 33  1  0  0  0  0
  3 34  1  0  0  0  0
  4 35  1  0  0  0  0
  5 36  1  0  0  0  0
  6 37  1  0  0  0  0
 13 38  1  0  0  0  0
 13 39  1  0  0  0  0
 14 40  1  0  0  0  0
 14 41  1  0  0  0  0
 15 42  1  0  0  0  0
 15 43  1  0  0  0  0
 16 44  1  0  0  0  0
 16 45  1  0  0  0  0
 17 46  1  0  0  0  0
 17 47  1  0  0  0  0
 18 48  1  0  0  0  0
 19 49  1  0  0  0  0
 20 50  1  0  0  0  0
 21 51  1  0  0  0  0
 23 52  1  0  0  0  0
 23 53  1  0  0  0  0
 25 54  1  0  0  0  0
 26 55  1  0  0  0  0
 26 56  1  0  0  0  0
M  CHG  1  25   1
M  END
> <OMEGA_C>
sQ7KQGi0pL9x+KzBIWnTQADOcb4s9LPBHw6rQKA0kj7EMqDBuW60QCht678kbJDBUx2jQEx1V8Ci
+J7BBdihQPIBhcDWU43BW0+2QLhcgr+gEKPBRwavQHRIBcBwbZvBc3+0QIgTrD82BqfBoY3JQBj0
iT+g+rDBW7+tQOQXOcA6S4nB+fWyQAT8TUCDQ5HBQdzBQBxGFkHWnqXB0eDlQG6SGkF+xa3BMbyy
QC6DpUBSkKrBkQfOQLSQo0CqKr7BRBF/QGzOO0CfOZ7BFamyQGC6a0Ds0azBTX+3QAbfF0HsmLHB
jSqzQFSBu0D8lLXB2fzdQGCvU0DAErLB2f+rQMwwMUA+KaPBjZiqQPiRA0FSlLfBx7acQPr0i8CA
9pfBi7nIQBTvRkDGPZrBV0fFQISVW0A4T4fBTQHXQECIBUBUprfBu4WHQPyDRUAiAZPByZzuQApz
ikByGbnBUdfEQO6T5EDe4bPBt5S0QNSPKMC7LnfBqPDRQEpWE8A6KK/BeCjiQBBn374OmrvBHAmb
QJxs8T5DsJjB14q9QHJXXL8QkI3BMAqfQH0UY8BVbafBN7CcQF0Yn8Adz4fBCf6/QLG5BkEVhqHB
NI63QEMEI0HNH6DB3Uj1QCViKkGEGK7Bsrj9QJMXDkHLfq/Bw9+VQK6hrkA+EqbBa1rPQLZzrkD+
86XBlvC4QMFvjkBL1MLBCBXdQFoLu0AWicPBUPFeQFXXdECndqHBc2lXQAnxAkCIwZ/BfyqZQO49
XkAaprLBz0WnQEWlJkFpIbTBugmSQF0pvkA7e7jBcyL1QK+iSEDFlqvBobyIQHzi/0DC/7XB3luv
QGbbBUEgOcDBmVjoQFkzT0A155rBqruyQAfYX0DOz4DBVQrlQNwiYUAToIbBMSvDQGykpr8FWq3B
RPPOQHcaeb52GrTBADOqQBysmD5UAKDBNoGCQKwUAcBky5TBxlq7QDNpWMDpW5zBzQiQQKJDicCB
4I7BQuewQAr7hL9rOqPBbcikQNHTCcCbD5zB8Ay1QI2Trz+fzqbBEcTIQKRuiz8E37DBRjFwQJBF
RsAnJo7BhYm0QDOnUEBmMJHBPt3bQHMrJEFRLrbBeybJQB0nLEHCh6vBDGi2QMiBqEDFLKrBrVDM
QCNLqEAQGL7B+vCAQC6AQECHDp7BXJWzQNUfcUBW6qzBGmTiQEEjF0HA7avB1UC7QPhiw0A2mLTB
kZTdQHnLVkDPpbLBoimtQNXENECOJqPBE3nJQNZAAkHDvarBX+awQI5FjcDe3pXBEwjKQF7cSkDx
PZrByuLGQOKZX0C1RIfBIJjWQHmRBUBQubfBeEmJQA4rRED7yZLBK4/sQO6/ikDIY7rBOGbYQMlY
5kCuqLLBJmsbQJfhPcAYHIXBNhXIQByfFMBa56/BidvcQIUn6L4J1bvBwpicQIBrAD8qOpjBMy9h
QJUkjL9bXJTB8ZbVQH7AX8Bu6KHB3fyHQGzfo8BavonBBnXGQHovHkFGfrzBZxL3QCyVLEE02rnB
rvbWQBZHOkF1k6fBTVmmQGThK0GIN6rBIhqZQC1WskDY9qXB1UrSQKkTrkAH/aTB47GxQBZClkCw
rMHB8VjaQNuuvUCEI8TBQu9jQA01fEAO1qDB6vRXQIUTCkB++p/BOMOYQIVyZ0ASfLLB5lkBQW52
F0H2cKjBaJObQDgA0EDWx7bBSET2QLUST0AHc6zBEKHOQOxL90Dcr6LBnCWnQORRBUGt8avBSI/p
QM8rVEBh9prBkoG0QI/WYUDAuYDB9oDmQA4maEBZp4bBpuXCQJoQpr9cV63BILDOQNTFdL77ELTB
IgSqQO6mmj6G8Z/BjnaCQNtXAcD00JTB+W67QGwtWMCqapzB3C2QQJdyicDk947BRb2wQK50hL9n
NaPB/r+kQHS7CcDqE5zB/e+0QB1IsD9BuKbBRp3IQMWhiz/4yLDBEEtwQNvFRsDRNI7BPGW0QEr/
UEBGIZHB3gumQNZ5FkEjr7/BzVXGQJy0G0Eom8jBQ6G1QJZkqUCRi6rBxoPLQFhmpEBKbr7BaeSA
QHZ+QUDqAp7BopuzQOBScUCt3azB97/EQOlLBUExxsPBjOq7QH+rwkADOrXBf9XdQNz8VUC8fbLB
hxqtQBqHNUCEEqPBka3pQOqP/EDRVLzBHQ+xQApHjcCm9pXBKunJQGkGTED9L5rBpbXGQL6HX0Ct
MofBH6TWQAtMBUBbmLfBAy2JQMgeREAfvpLBJ5/sQBRoiUCQWLrB+UfaQJn45EAOGbPBKocbQCPN
PsAsKoXB2rTHQMZQFMCj6a/BwYLcQB+t5L4dz7vBClycQGSwAD+uK5jBx/JgQJrgjL+yW5TB0q7V
QJ0xX8DG96HBKTGIQFwmpMAM3InBlFSqQFlFHUEso7fB7bCDQLJsFUHmhsHBtBS7QOpnHkGJ1dDB
XLjhQJFAJkHP8cbBIZ2XQOmbs0AuuabBvaPQQM4LsEAbJ6XBKaWwQEeukEABQ8HBIAHYQCant0B2
GsXBwFZkQP+jfUDEuaDB9n9XQN2JC0DlA6DBQRaZQAIDZkAGerLB7a+2QOJc8UC4zcjBquGcQHdd
0ECCk7fB7XX2QK1rTkBlRqzBh8L/QJIM6ECS4MDBb8r6QCSdDEHCirnBEGDpQOEeVkCt6prBx1S0
QMwmYUDupoDBsU3mQGNlaECsk4bBginDQJfUpr/wWq3BHATPQJJjer6PGbTBbE6qQHYRmD4J/5/B
kn2CQMQJAcCNyZTBGjK7QNieWMCGX5zBGuCPQLdIicAW4Y7BrOywQLAqhb9mOqPBfLukQCDqCcAh
EJzBMDC1QAZ1rz+wzKbB2unIQItUiz8n3LDBNw9wQOozRsA1JI7BLue0QOaZUEBqMpHBZn4LQUte
AUGtnaHBvvgOQYx5DkHJ5qvBEJa1QFyZqEC1OKrBkJLLQK1RqEBLHr7BkBmBQIQ6QEC1Ap7BsGyz
QAYIcUBd76zBxi7yQGWxDkF4R6bBtja7QBi4w0Btl7TB1nfdQJEXV0BgrLLBdkGtQMi3NEBvJqPB
3qTLQLMzA0HnY6vBSLGwQIZcjcBc4pXBTEDKQK8CS0AXRprBtmbHQE5sX0BiSofBKr3WQL6JBUDS
trfBzKGJQJMNREDjwJLBjArsQJ/PikBSe7rBHAjaQLr85ECrkbLBu2QbQPylPcCLFoXB8P/HQHK3
FMCB6q/Bn+rcQA/Z6L5K1LvBOb6cQHsrAD/dN5jBF0phQALni7/NWJTBOmPVQGYVYMCm7qHBscuH
QLvgo8CLvonBu+UKQe2W30Cw/qHBzjkTQYVVBkFTHJrBQi0ZQYvPHEEEv6vBL9kQQXxFBkFhobPB
H8yXQFsrskCXMKbBPunQQGdorkAV3qTBj6+wQHc5lkCFjcHB3zvZQBOAvUDgQsTBevljQCfRe0Bf
yKDBFGBYQH2oCUDn5p/BlaKYQHioZkCAfrLBG4bqQHt3HUGB5aHBnxicQAa40UC/wLbB6EX2QGMF
UEARfqzBEt23QA0k+EBXC6XB5Xy4QLrgDkHU6K/BUr/pQEGSVECOB5vBzx+1QN6CYUCguoDBJQbn
QEgHaEB6tIbB1B3DQPmipr+wVa3ByvPOQLJIeb74FLTBZ0uqQEzZmD4B+J/Bj46CQJQbAcAzwpTB
yEe7QLiEWMDPXZzBEgGQQMJZicCM4Y7BpOqwQNf3hL8qNKPB08ekQKnbCcCXCpzBdSq1QMWfrz+W
xqbB1tzIQPtsiz/I17DBHUVwQFRgRsAUII7BGtS0QGO/UEBkLZHB597qQN1590AwuprB1ePUQEJ/
EUHRPpnBvte1QHNtqEAlTarBVfjLQMYxqECPI77Bqg+BQGJoQEC2AJ7Bq3OzQIHjcECw9azBSm/C
QMw5AUH+J6HBu+66QHmTw0BIsLTBi4jdQJLrVkCeprLBMDqtQFDVNEB5I6PB4h3HQPOQBUFKQ63B
j9CwQK1bjcDW45XBHTHKQEtIS0BKQZrBpUzHQDWCX0DNQ4fBurfWQFiIBUDIs7fBGpGJQOgfRECy
vZLBVl/sQM3VikB8Z7rBlaLYQKp95kDL4bLBC6IbQH8CPsDfEIXBSPDHQHKfFMBn5a/BjdTcQJhj
6L5D0LvBSr6cQAuPAD9+MJjBkWRhQHUXjL+TTZTBDXnVQH3dX8CD7aHBmvKHQBb8o8DEwYnBbAgF
QYeO9UCPxp7Bu3PpQCdj30AJUpTBI8DDQE4OFUGQxJHBQF3kQP4jIEEWOZzBUkyYQNgQskAwK6bB
fnnRQKc4rkCxC6XBzFqxQMr2lUDVqMHB19zZQC5rvUBuPcTB7fpjQKgNfEASxaDBYT5YQLPmCUB0
55/BnbGYQJRxZkC2hrLB6dukQKEo8kClq57BUlybQKti0EAm5rbBMzL2QPqMT0CecKzBLGqnQIhM
CUHambDBIZLcQLZTE0HXaq7B86zpQDQEVUA1ApvBygG1QKN9YUCatIDBlOrmQL8saEBvrIbBfbnD
QPGHpb9VVK3B3G7PQPvUbb7pD7TBS22pQPUWmj79IaDBty+CQE1HAcDK7ZTB4dO7QJqEV8BTUJzB
DEmQQI0hicAL7I7B7NGwQK1NhL+0R6PBhc6kQKZ3CcAhG5zBXRG0QJrwrz+d9qbBhH7IQJKwjD/w
57DByMxvQIyIRsApSI7Bf3S0QGflTUB7R5HBV2KnQGPmAkHKJpHBItycQBjA10DUM5TBxMO0QIap
p0DDmanBWyXnQIE5tkC61rjB7wGAQJvsPkDG/Z3Bc6WxQELGcUBtH63BLPq7QNZl8kCmJJvBD3C/
QCrYxkBUxrLBJ0naQNL8WUDvZLPBSP+rQI8UNECsUqPBaC6tQN0MAUFRXKbBfnqxQB7bjMDl05XB
KGTJQDT9SEAwbZrBOWjHQNndW0AhZofB0rvVQJu5BUBg37fBDAuJQGTlQkDOvpLBRKbgQAt+ikCu
J7zBtzfJQLWE8UAKuK7BljcaQPHsPsD2WYXBIzDJQCf+E8Aw16/Bo+TdQChc4b4zu7vB+3KbQLAC
AT9PZpjBjt1fQD1Rjb97kJTBclXWQPtlXsB4yqHBU1KIQEHFo8BjyonBMuCOQIJsD0Hs+pHByhC7
QIkqBkFvCorBzA6pQNsevUBuUo/Barx5QM2iz0DrQpfBlt+VQDQgsUCUG6bBJPnNQCA8qkATfqPB
eKXsQBtIykBC8L/B0pwBQRjlt0BljLPBsAVhQMhGekCptaDBHGtWQGMHCEAb0J/B3sOVQN1gakAP
arLBkQfeQIvm6UADeJrBHSqkQJo9yEC8U7jBNNz1QEoJXEA27q3BS1SMQDHq9kAj1afBfeetQIqk
EkEfi6bBEuXoQFIsUkD2O5vBY1y1QCNyXkDhzIDBGh7nQCNcY0C+34bBCSnDQKx9pr+gU63Bj/XO
QKrWd75rEbTBpDSqQMGNmT4v95/B2neCQDVbAcA3zJTBNlu7QLKCWMDuX5zBh/6PQFB3icAn7I7B
QeewQCjfhL/uM6PBR8ekQN/rCcA2DpzB0yS1QA7/rz8FwqbBJ9LIQOmNiz+q0rDB5RRwQMazRsCH
LY7BZoy0QIKIUEDuJ5HBJvX9QEApHEEghazBdvQPQVZiEEH8P7PBmkK2QFY+qUBHY6rB/oPLQDOY
pkChWb7BywyBQGgPQUBqC57BprazQMWJcUBb5KzBLnf0QF9DFkGSL7jB4Za6QBAKw0BHArXBXrHd
QL+xVkCxnLLBj0atQERINUB5HaPBhIvTQN+eBEGlobrBCOSwQG5kjcDV6JXBQRHKQE2jS0D2NprB
eNvGQKPwXkA2OIfBUKPWQC1+BUACrbfBClOJQGu/Q0D4xZLBD2LsQC1kikBsa7rBvpzXQF4j5kCw
JLPBjzQbQPWIPsCGJoXB9AzIQK2JFMCD4q/BwNjcQPMy577YzLvBm4ucQL6lAD9JMpjBVhVhQMe9
jL+TWZTBE5vVQFq7X8D866HBD++HQLkgpMDGzonB2WztQEC/E0Ea/aXBbHABQXr/LEFvRarBN4ge
QR7PGEFA0LXBOM4TQcgd/0Drh7HBvQKZQNJBs0AuLqbBaELSQH6Dr0BLSqXBXQKxQEKFk0CIosHB
G9TYQLYou0BVq8TBDYNkQKkifUBlwqDB+O5XQHEBC0CrC6DB/veYQGYnZ0DadrLBqQL1QAutI0HH
4b3BfNKaQBRXz0CYObfB6Hb2QMo7T0AUbqzBQx+zQEleC0E6CbrBp+HYQEo4/UBGy8LBZonpQH6z
VUAQ8JrBnHi0QNOHYEDJrIDBTHTmQKG+Z0A2mIbB92PcQFpztEAq+LnBekfcQPIViUBGvLzBlTfD
QKeLokDbDajBSq3HQA7ZBkGUjbPBfATaQPSv90Bdb6HBi6DQQCswIEEuBaXBpB3QQLLfwEBEj6/B
jebQQO4r7UAnOKzBXPfEQFOlbkA1farBFpTQQCnaVECfFbXBI6nHQLfsG0E146/BGiqFQBKcXEAE
DZbB7k2DQF8DDMDGo43Bo9RaQP97TMBAJpXBEti1QCBDBD6lu5/BltvSQDFbe79cALHB1F7NQIdI
QkBNCZfBVfPEQHyIqz9KE6bBtaicQGksWMD+F5LBSMbLQCzPjr8MwqTBaPazQBrFmz8qsbHBy1K4
QCePLkCw0qHBrvi/QDkdScArb5rBHJTZQIFGEEFhBZ7Bg2eKQFklNkCXW5/BOpo8QL3ReUCxI5LB
z2bPQPqhAEDyO7jBroyrQGWQZUDjr5DBPXKyQChYEL4thbXBGFuxQAL7EMAs4KLBz1C8QIuXMEEq
x7jBZ9DlQLhIzEAFxL/BGiflQEaKfkCTt8TBrs+3QA3DrED3TqDBx8PAQAswA0F70bvB7HfhQLpt
3kAH15vB4VXQQPyJMEHnOaLBZUqKQIyVlb9odJDBgUd1QIEUCsArHYXBBDMqQN20eMCG/5HBTIBJ
QCJrOcDDVp3BbDi/QFi3az4fSpfBctiSQPexDD3aSaDBF4PyQNMLCr+ogrLB7jrRQIcf/b9UuLTB
7PnZQCyDB0BVW5PBDHjnQJzfcEA0A5jBGBnoQKW8pj9kc6bBrBWjQFzqhcC7VYzBYR7rQGZEoL+q
56DBJnyTQJj/0T823LHBls7bQBrlK8CpeZbB2lLJQPx3g8BH753BAFxlQFg6IUDpC6TBWP85QL6o
i0AgDIvBlyUHQE1jcUAMaZbB

> <OMEGA_E>
BJtrP8jEQD9Oe0A/Jq1AP1TgQD+y40A/kFJBP/TxQT8=

> <OMEGA_NBR>
     81347

$$$$
50248150
  -OEChem-04172616093D

 61 65  0     1  0  0  0  0  0999 V2000
    6.1612   -1.3371  -21.7398 C   0  0  0  0  0  0  0  0  0  0  0  0
    6.4658   -0.2710  -22.5870 C   0  0  0  0  0  0  0  0  0  0  0  0
    6.8773    4.2710  -23.5753 C   0  0  0  0  0  0  0  0  0  0  0  0
    6.8709    5.6210  -23.2359 C   0  0  0  0  0  0  0  0  0  0  0  0
    5.5084    0.2441  -20.0015 C   0  0  0  0  0  0  0  0  0  0  0  0
    4.0411   -1.9892  -18.8662 C   0  0  0  0  0  0  0  0  0  0  0  0
    6.0543    5.0793  -21.0166 C   0  0  0  0  0  0  0  0  0  0  0  0
    5.9568   -3.3442  -19.5054 C   0  0  0  0  0  0  0  0  0  0  0  0
    4.4277   -4.1901  -17.9459 C   0  0  0  0  0  0  0  0  0  0  0  0
    5.6550   -1.0715  -20.4579 C   0  0  0  0  0  0  0  0  0  0  0  0
    5.2185   -2.1497  -19.6048 C   0  0  0  0  0  0  0  0  0  0  0  0
    5.8493    1.3154  -20.8276 C   0  0  0  0  0  0  0  0  0  0  0  0
    6.1036    3.7121  -21.3350 C   0  0  0  0  0  0  0  0  0  0  0  0
    6.2940    1.0529  -22.1505 C   0  0  0  0  0  0  0  0  0  0  0  0
    6.4978    3.3087  -22.6387 C   0  0  0  0  0  0  0  0  0  0  0  0
    6.4281    6.0379  -21.9574 C   0  0  0  0  0  0  0  0  0  0  0  0
    3.6313   -3.0139  -18.0233 C   0  0  0  0  0  0  0  0  0  0  0  0
    4.1567    3.4519  -18.7380 C   0  0  0  0  0  0  0  0  0  0  0  0
    6.3867    2.9323  -18.9637 C   0  0  0  0  0  0  0  0  0  0  0  0
    5.6640    2.7159  -20.3003 C   0  0  2  0  0  0  0  0  0  0  0  0
    5.4305    8.2293  -24.3886 C   0  0  0  0  0  0  0  0  0  0  0  0
    5.0594    9.8983  -22.5420 C   0  0  0  0  0  0  0  0  0  0  0  0
    7.0528   10.1292  -24.0794 C   0  0  0  0  0  0  0  0  0  0  0  0
    2.1008   -3.8089  -16.3542 C   0  0  0  0  0  0  0  0  0  0  0  0
    7.0415    8.3413  -22.3285 C   0  0  0  0  0  0  0  0  0  0  0  0
    6.1431    9.1243  -23.3336 C   0  0  0  0  0  0  0  0  0  0  0  0
    5.5582   -4.3353  -18.6808 N   0  0  0  0  0  0  0  0  0  0  0  0
    4.2560    2.9466  -19.9499 N   0  3  0  0  0  0  0  0  0  0  0  0
    2.9723    3.9121  -18.1855 N   0  0  0  0  0  0  0  0  0  0  0  0
    6.5586    2.0136  -23.0901 O   0  0  0  0  0  0  0  0  0  0  0  0
    5.3840    3.4915  -18.1042 O   0  0  0  0  0  0  0  0  0  0  0  0
    2.4610   -2.8050  -17.3192 O   0  0  0  0  0  0  0  0  0  0  0  0
    6.3062    7.3546  -21.5713 O   0  0  0  0  0  0  0  0  0  0  0  0
    6.3133   -2.3551  -22.0667 H   0  0  0  0  0  0  0  0  0  0  0  0
    6.8353   -0.4648  -23.5832 H   0  0  0  0  0  0  0  0  0  0  0  0
    7.1772    3.9671  -24.5673 H   0  0  0  0  0  0  0  0  0  0  0  0
    7.2062    6.3557  -23.9531 H   0  0  0  0  0  0  0  0  0  0  0  0
    5.1302    0.4300  -19.0071 H   0  0  0  0  0  0  0  0  0  0  0  0
    3.4601   -1.0827  -18.9502 H   0  0  0  0  0  0  0  0  0  0  0  0
    5.7246    5.3901  -20.0363 H   0  0  0  0  0  0  0  0  0  0  0  0
    6.8525   -3.4689  -20.0958 H   0  0  0  0  0  0  0  0  0  0  0  0
    4.1240   -4.9883  -17.2848 H   0  0  0  0  0  0  0  0  0  0  0  0
    6.7560    1.9774  -18.5615 H   0  0  0  0  0  0  0  0  0  0  0  0
    7.2290    3.6295  -19.0847 H   0  0  0  0  0  0  0  0  0  0  0  0
    6.1828    7.6694  -24.9635 H   0  0  0  0  0  0  0  0  0  0  0  0
    4.7598    7.5232  -23.8772 H   0  0  0  0  0  0  0  0  0  0  0  0
    4.8447    8.8628  -25.0709 H   0  0  0  0  0  0  0  0  0  0  0  0
    5.5419   10.5388  -21.7890 H   0  0  0  0  0  0  0  0  0  0  0  0
    4.4756   10.5227  -23.2344 H   0  0  0  0  0  0  0  0  0  0  0  0
    4.3907    9.1831  -22.0407 H   0  0  0  0  0  0  0  0  0  0  0  0
    7.5662   10.7718  -23.3490 H   0  0  0  0  0  0  0  0  0  0  0  0
    7.7988    9.5787  -24.6714 H   0  0  0  0  0  0  0  0  0  0  0  0
    6.4403   10.7514  -24.7484 H   0  0  0  0  0  0  0  0  0  0  0  0
    1.1565   -3.5267  -15.8657 H   0  0  0  0  0  0  0  0  0  0  0  0
    1.9761   -4.7770  -16.8614 H   0  0  0  0  0  0  0  0  0  0  0  0
    2.8947   -3.8912  -15.5972 H   0  0  0  0  0  0  0  0  0  0  0  0
    7.8367    7.8310  -22.8918 H   0  0  0  0  0  0  0  0  0  0  0  0
    7.4918    9.0589  -21.6269 H   0  0  0  0  0  0  0  0  0  0  0  0
    3.4804    2.7475  -20.5488 H   0  0  0  0  0  0  0  0  0  0  0  0
    2.9693    4.3062  -17.2664 H   0  0  0  0  0  0  0  0  0  0  0  0
    2.1206    3.8501  -18.7058 H   0  0  0  0  0  0  0  0  0  0  0  0
  1  2  2  0  0  0  0
  1 10  1  0  0  0  0
  2 14  1  0  0  0  0
  3  4  2  0  0  0  0
  3 15  1  0  0  0  0
  4 16  1  0  0  0  0
  5 10  2  0  0  0  0
  5 12  1  0  0  0  0
  6 11  1  0  0  0  0
  6 17  2  0  0  0  0
  7 13  1  0  0  0  0
  7 16  2  0  0  0  0
  8 11  2  0  0  0  0
  8 27  1  0  0  0  0
  9 17  1  0  0  0  0
  9 27  2  0  0  0  0
 10 11  1  0  0  0  0
 12 14  2  0  0  0  0
 12 20  1  0  0  0  0
 13 15  2  0  0  0  0
 13 20  1  0  0  0  0
 14 30  1  0  0  0  0
 15 30  1  0  0  0  0
 16 33  1  0  0  0  0
 17 32  1  0  0  0  0
 18 28  2  0  0  0  0
 18 29  1  0  0  0  0
 18 31  1  0  0  0  0
 19 20  1  0  0  0  0
 19 31  1  0  0  0  0
 20 28  1  0  0  0  0
 21 26  1  0  0  0  0
 22 26  1  0  0  0  0
 23 26  1  0  0  0  0
 24 32  1  0  0  0  0
 25 26  1  0  0  0  0
 25 33  1  0  0  0  0
  1 34  1  0  0  0  0
  2 35  1  0  0  0  0
  3 36  1  0  0  0  0
  4 37  1  0  0  0  0
  5 38  1  0  0  0  0
  6 39  1  0  0  0  0
  7 40  1  0  0  0  0
  8 41  1  0  0  0  0
  9 42  1  0  0  0  0
 19 43  1  0  0  0  0
 19 44  1  0  0  0  0
 21 45  1  0  0  0  0
 21 46  1  0  0  0  0
 21 47  1  0  0  0  0
 22 48  1  0  0  0  0
 22 49  1  0  0  0  0
 22 50  1  0  0  0  0
 23 51  1  0  0  0  0
 23 52  1  0  0  0  0
 23 53  1  0  0  0  0
 24 54  1  0  0  0  0
 24 55  1  0  0  0  0
 24 56  1  0  0  0  0
 25 57  1  0  0  0  0
 25 58  1  0  0  0  0
 28 59  1  0  0  0  0
 29 60  1  0  0  0  0
 29 61  1  0  0  0  0
M  CHG  1  28   1
M  END
> <OMEGA_C>
hyjFQE0mq78G663BlufOQNi+ir5FsrTB7RLcQN6riEAtmrzBkd7bQHzfs0A247nBcESwQMPxeT4U
A6DBbVCBQJGe/r/s7ZbBEr3BQL2JokAYIqjBRJ6+QKQHVsACC5zBXq+NQIkVhsBLkY/B+PW0QLwl
ib/TqaPBTv6mQBWUCcC51pzBVy27QEdgqD/4nqbB5VDDQHqTbUAPrqrBamjJQJfEhj8/NLHBK+7P
QFfBU0AHHLXBw7LNQHc2wUC7qK/Bw2doQPHiQMDCL5DBEwSFQC/rXECE55XBKmDMQMmqO0CitZfB
3D+1QC7RLUAHZ6LBkMatQFyrA0HaG8PBXOahQItfHkEOVrTBvbDhQAMRIkGVosDBN3QGQEXFc8BS
1YLBRlThQOB1BUHXoLLBq5TEQPr8EUE0q7rBwtyxQM+6isBWcpXBZDGIQN+VPEBNmZ/B4jo+QD9f
ekDue5HBWeDRQFTeAECMuLjBc0msQEF1X0Bl1ZDBSYAdQH2FM8CxjYrBk8zJQP5Y60D8kazBLAbK
QLS6FsCNiLDB+LraQEz17b5aqrzBQavlQMLlfUDpicTB15jmQOFhy0Dmn7/BxCqkQHkq3D6IDpjB
fnFdQDCWir8bmpfB9y+3QJd7rEBSSqDB7kfbQO8BXsAixKDB4feDQBCgn8A7R4rBjzHYQD8b/T/t
fZTBpVPnQAJJaEBjrZjBr9nFQLNr9UAptcfBC1CYQBq+8ECHBL/BrgebQA/ODUE7kcjBAFexQLue
KEHcT67BQDiPQO9cKEES4LnBnYCMQO3tEkFeU7DB8x3yQGxZLEHDyrrBI5D5QIlCGUERX8XB/xbO
QLYFLEHQ/MXBnwiUP361YcDl2X3BGPH8P9vcmMA65IbBaEM5QLUJecA5jnnBpcb6QHqX+kBeIrfB
zrzvQCDxEEHWA63B475eQNvXL0D8Y6TBwwg+QAfMiUCvIYrBFLgHQClodkCBpZXB

> <OMEGA_E>
vOfwPg==

> <OMEGA_NBR>
     82662

$$$$
50248153
  -OEChem-04172616093D

 56 61  0     1  0  0  0  0  0999 V2000
    3.6866   -3.0731  -17.8232 C   0  0  0  0  0  0  0  0  0  0  0  0
    4.0587   -1.9996  -18.6463 C   0  0  0  0  0  0  0  0  0  0  0  0
    6.2095   -1.3314  -21.6512 C   0  0  0  0  0  0  0  0  0  0  0  0
    6.6293   -0.2791  -22.4794 C   0  0  0  0  0  0  0  0  0  0  0  0
    6.8949    4.2778  -23.7001 C   0  0  0  0  0  0  0  0  0  0  0  0
    6.6088    5.6410  -23.5210 C   0  0  0  0  0  0  0  0  0  0  0  0
    5.3760    0.2851  -20.0354 C   0  0  0  0  0  0  0  0  0  0  0  0
    5.5802    5.1271  -21.3767 C   0  0  0  0  0  0  0  0  0  0  0  0
    4.4090   -4.2812  -17.8973 C   0  0  0  0  0  0  0  0  0  0  0  0
    5.8269   -3.4057  -19.5465 C   0  0  0  0  0  0  0  0  0  0  0  0
    5.5810   -1.0570  -20.4173 C   0  0  0  0  0  0  0  0  0  0  0  0
    5.1496   -2.1615  -19.5290 C   0  0  0  0  0  0  0  0  0  0  0  0
    5.7908    1.3492  -20.8675 C   0  0  0  0  0  0  0  0  0  0  0  0
    5.9100    3.7607  -21.5215 C   0  0  0  0  0  0  0  0  0  0  0  0
    6.4318    1.0630  -22.1008 C   0  0  0  0  0  0  0  0  0  0  0  0
    6.5625    3.3312  -22.7081 C   0  0  0  0  0  0  0  0  0  0  0  0
    5.9717    6.0778  -22.3466 C   0  0  0  0  0  0  0  0  0  0  0  0
    4.1767    3.4983  -18.7253 C   0  0  0  0  0  0  0  0  0  0  0  0
    6.3867    3.0546  -19.1248 C   0  0  0  0  0  0  0  0  0  0  0  0
    8.5183    7.9496  -21.2226 C   0  0  0  0  0  0  0  0  0  0  0  0
    7.9515    9.0005  -19.5320 C   0  0  0  0  0  0  0  0  0  0  0  0
    5.5832    2.7766  -20.3980 C   0  0  2  0  0  0  0  0  0  0  0  0
    7.3102    7.7289  -20.2200 C   0  0  0  0  0  0  0  0  0  0  0  0
    7.4540    6.4520  -19.3645 C   0  0  0  0  0  0  0  0  0  0  0  0
    5.8908    7.9706  -20.8331 C   0  0  0  0  0  0  0  0  0  0  0  0
    5.4549   -4.4307  -18.7448 N   0  0  0  0  0  0  0  0  0  0  0  0
    4.1968    2.9677  -19.9328 N   0  3  0  0  0  0  0  0  0  0  0  0
    3.0226    3.8471  -18.0420 N   0  0  0  0  0  0  0  0  0  0  0  0
    6.9057    2.0176  -22.9883 O   0  0  0  0  0  0  0  0  0  0  0  0
    5.4555    3.7029  -18.2470 O   0  0  0  0  0  0  0  0  0  0  0  0
    9.0140    8.9764  -20.4303 O   0  0  0  0  0  0  0  0  0  0  0  0
    5.7533    7.4349  -22.1831 O   0  0  0  0  0  0  0  0  0  0  0  0
    2.8558   -2.9749  -17.1402 H   0  0  0  0  0  0  0  0  0  0  0  0
    3.5198   -1.0645  -18.6056 H   0  0  0  0  0  0  0  0  0  0  0  0
    6.3677   -2.3544  -21.9589 H   0  0  0  0  0  0  0  0  0  0  0  0
    7.1107   -0.5016  -23.4202 H   0  0  0  0  0  0  0  0  0  0  0  0
    7.3760    3.9496  -24.6096 H   0  0  0  0  0  0  0  0  0  0  0  0
    6.8785    6.3541  -24.2860 H   0  0  0  0  0  0  0  0  0  0  0  0
    4.8950    0.5028  -19.0932 H   0  0  0  0  0  0  0  0  0  0  0  0
    5.0202    5.4500  -20.5115 H   0  0  0  0  0  0  0  0  0  0  0  0
    4.1218   -5.1071  -17.2633 H   0  0  0  0  0  0  0  0  0  0  0  0
    6.6624   -3.5399  -20.2176 H   0  0  0  0  0  0  0  0  0  0  0  0
    6.7499    2.1157  -18.6815 H   0  0  0  0  0  0  0  0  0  0  0  0
    7.2411    3.7131  -19.3402 H   0  0  0  0  0  0  0  0  0  0  0  0
    9.1929    7.0847  -21.3051 H   0  0  0  0  0  0  0  0  0  0  0  0
    8.2100    8.2714  -22.2282 H   0  0  0  0  0  0  0  0  0  0  0  0
    7.3301    9.9055  -19.6008 H   0  0  0  0  0  0  0  0  0  0  0  0
    8.2490    8.8387  -18.4854 H   0  0  0  0  0  0  0  0  0  0  0  0
    6.5868    6.3595  -18.6942 H   0  0  0  0  0  0  0  0  0  0  0  0
    7.5031    5.5728  -20.0237 H   0  0  0  0  0  0  0  0  0  0  0  0
    8.3750    6.5135  -18.7661 H   0  0  0  0  0  0  0  0  0  0  0  0
    5.1430    7.4878  -20.1867 H   0  0  0  0  0  0  0  0  0  0  0  0
    5.7029    9.0540  -20.8652 H   0  0  0  0  0  0  0  0  0  0  0  0
    3.3825    2.7276  -20.4611 H   0  0  0  0  0  0  0  0  0  0  0  0
    3.0854    4.2767  -17.1412 H   0  0  0  0  0  0  0  0  0  0  0  0
    2.1270    3.6690  -18.4497 H   0  0  0  0  0  0  0  0  0  0  0  0
  1  2  2  0  0  0  0
  1  9  1  0  0  0  0
  2 12  1  0  0  0  0
  3  4  2  0  0  0  0
  3 11  1  0  0  0  0
  4 15  1  0  0  0  0
  5  6  2  0  0  0  0
  5 16  1  0  0  0  0
  6 17  1  0  0  0  0
  7 11  2  0  0  0  0
  7 13  1  0  0  0  0
  8 14  1  0  0  0  0
  8 17  2  0  0  0  0
  9 26  2  0  0  0  0
 10 12  2  0  0  0  0
 10 26  1  0  0  0  0
 11 12  1  0  0  0  0
 13 15  2  0  0  0  0
 13 22  1  0  0  0  0
 14 16  2  0  0  0  0
 14 22  1  0  0  0  0
 15 29  1  0  0  0  0
 16 29  1  0  0  0  0
 17 32  1  0  0  0  0
 18 27  2  0  0  0  0
 18 28  1  0  0  0  0
 18 30  1  0  0  0  0
 19 22  1  0  0  0  0
 19 30  1  0  0  0  0
 20 23  1  0  0  0  0
 20 31  1  0  0  0  0
 21 23  1  0  0  0  0
 21 31  1  0  0  0  0
 22 27  1  0  0  0  0
 23 24  1  0  0  0  0
 23 25  1  0  0  0  0
 25 32  1  0  0  0  0
  1 33  1  0  0  0  0
  2 34  1  0  0  0  0
  3 35  1  0  0  0  0
  4 36  1  0  0  0  0
  5 37  1  0  0  0  0
  6 38  1  0  0  0  0
  7 39  1  0  0  0  0
  8 40  1  0  0  0  0
  9 41  1  0  0  0  0
 10 42  1  0  0  0  0
 19 43  1  0  0  0  0
 19 44  1  0  0  0  0
 20 45  1  0  0  0  0
 20 46  1  0  0  0  0
 21 47  1  0  0  0  0
 21 48  1  0  0  0  0
 24 49  1  0  0  0  0
 24 50  1  0  0  0  0
 24 51  1  0  0  0  0
 25 52  1  0  0  0  0
 25 53  1  0  0  0  0
 27 54  1  0  0  0  0
 28 55  1  0  0  0  0
 28 56  1  0  0  0  0
M  CHG  1  27   1
M  END
> <OMEGA_C>
6vFrQJ+tRMDhlY7BFOGBQHvy/7+QK5XB5LPGQP9pqr+dNa3BlSPUQETijr631bPBUaPcQNvjiEDO
mb3BcnvTQAODtED7KrzBHgisQC79kT5rSKDByZCyQOQQpECQA6vBmRaNQKX/iMCXLY/B3nW6QIn3
WcBTX5zBZJeyQFNLh7+SVqPBr8mkQJZVCsB5O5zBIE65QGqzrD++8KbBch69QP6ucEACLKzBedHN
QLgQiD+EzrDBCQDSQDMyVUAxqrXB3xe/QLh9wkDXxbLB0qeFQNDkX0BdzZXBjF/MQM9+Q0CN/5jB
7UoIQQBj/kDJx6nBynL+QAwCEEGGQZzBpKmyQGe0MUARL6PByOzpQBZT90B2wqHBUYfuQKt2zkCK
6prBLoG8QHgP/0AXqqbBMI6uQDzIjcBL9ZXBk0yGQE3vPUBmdp/BonJBQEs2dkD2VZDBj/vcQP4f
AUD+57fBxJOuQIP7bEDb+ZHBWjkQQVifD0FYcaPB3xq4QIPq7UAUd7HB5MQ2QJFkPsA5H4nB20Rh
QG1CiL9V2JTB9sPLQDSvFsC/q6/B/IrjQL5mAL+NXLvBUgjsQCbGfECC4MTBXhzcQMJUy0CiScLB
56OcQCO2AD/avpjBtKWgQCFmrkCcF6TBreWDQAdto8BLG4rBNzLVQHOOYsCvvaHBjf/XQAJoB0Cw
c5XB17bnQGKjbUCquJrBMhYTQae14kDIcKrBRVwDQblXBEFs07HBGpDqQBl9HkFwzpzBxPsDQR5r
DUEh4pPBK8fSQNeAy0CfjZXBvBnwQC5UskChMKDB1v8FQbFu0EAFIZbBzZOkQE6c70BQfqHB7H22
QCrdEEHr66bBYXpYQG2RLkBusKPBGndFQArbiEAgIYnBgSEIQFXRakD/mJPB97ZkQObDQ8CT5I/B
pdR7QA2Q/78/lpbBuP3EQIi/qL/Zwq3BSBrUQJT5iL4lHrTBQf/eQPtmiED6JL3BcUzQQG+fskD1
TrzBCnqqQKIqkD7hrqDBI7qnQCInn0CUdqzBJhuMQODrhsA0rY/BfmC7QOgSVMA0SZzBRcWwQBKA
hb8m7aPBLQGjQLozCMAT65zB9oG4QIEcqz8rKKfBYIi5QG7/a0CbnqzBeP3OQD31hz/rx7DBLL7T
QMLEU0C7X7XB8eK0QKM/vkC04bPB2UaGQATrXEDimZXBlAbNQHJnQkDvi5nBX8/bQH22zkA3GpvB
Vuv6QA5M70BwLKfB+mOxQJJGL0DkWKPB7LTPQKbq+UDJ8qDBfwDSQNttEEFUdJnBS4+lQG43+UCJ
1afB5MqvQCp1isANxJXBgJOFQCSrOUCrKp/BXiZEQFxJekBoWJDB6vvhQJaGAUBnIbfB4omvQKq6
YkDssZHBlDv8QE/DxkD7gaLBr+qpQAfE6EB+wLLBBSYsQL+IP8Cz9IrBtLNVQP1cjL/05JbBwtLI
QAbEFcAxZLDBiMXjQHp09r5XoLvBaBTzQIh/fkARy8PBGAbaQLg3ykBxIsLB0sOaQIYn+z7fK5nB
N6mPQBAJp0BylabBuySDQD0qocBIhYrBi9zXQGhgWsBmHaHBdq/cQDvHB0CEpZbBNHzlQD+rckAG
dZvB9WXnQIIf00DO3ZLB8BTCQAixtkCQK5vBrXz3QGrO7kBI7q/BUf0KQar/AUEX9qTBj1DJQC34
HkFp6Z3BnZi7QD4xDkGawpLBq73yQIgOEkFsU5bBewiOQC8h5UCwoqPBD3mZQCQbDUFiWajBkv5V
QBNWKEA3D6PBoYtJQK8Pi0BdLInBfIcKQF6ic0DzuZPBQrauQAa9icD255TBbvu8QAnXU8DA8JvB
v57EQEzEqL+q5q3BF6rPQJgihL5arrTB0iXZQL9vikAE7LzBNzfWQCi7tUDnPbrBI5quQMKfiz7c
PqDBj0DBQLXAokDcI6jBK+yIQD/0gsBA947BcSt/QKJn/L/OgZbBUiGzQH4Lhr+GvqPBih2lQJDz
B8DZuJzB1fu6QJL0qj9c06bB3t7DQGubbkAPyqrB0mfKQOw9iT+hTLHB3SnQQKrJVUDiRrXBGWDK
QP7UwUBhva/BVH6FQJpCWUCB25XBNzXNQJY7O0Bm5pfB1zPnQN0CLkEaF7TBPVCtQDZXJUG3MK3B
Zty1QCnFLkBMlaLBGM7aQDdLGkE03KzBKTfwQJb6GUGztqHBUsvcQFMNBUFEu7LBbzBkQNSRPMD9
1o/BI+eIQN94PkAsy5/BEdY+QBkPdEAzR5HBVz/UQBJ+AkBrwbjBTYesQGG1V0DaqpDBQ0m9QK6F
NUE4trPBDS/GQFxM60DTfKzBkXXAQEAwp8AqCZTBS53ZQKfkXMARpaDBkn3JQIG1FcDBcrDBaEvc
QEZ97b6bjbzBuGHiQLg6gUBf7MTBAPncQN3uzUB5LMDBjHehQKcq8j6JapjBXhe4QKgirEBsJaDB
59V7QPykm8AilYnB9blaQIdWh79FHJfBzEPbQNks/T+LI5XBfIrmQCO5a0AVq5jBDK/+QE/bOEHz
Z7DBuAvyQD6YKUF0KrzBLFaUQJaKG0Gg/bDBz/OhQGPzKkEJWaXBp6nlQMe1C0HoSZ3BnpkJQeqQ
GUHWqaLBZwfnQPhwKEFqQZ3BRsHNQC6bBkFcprrBFlP+QFQOAEFssrPB+HJgQLXzNUAYxqTBWeI9
QG8UhEASr4nBMtAIQBNOc0AEkZXBYlSvQHFUisA6CpXBAHa9QJ/AVMA4DpzBwbnEQDVaqb/p+K3B
/oDPQFmMhL7bv7TBAZPaQBasikDwtLzBRG7YQB7utUAk6LnBxsKuQDv2hT7QRKDB/pDAQAi4okCg
E6jBE7OJQJ6hg8CdB4/BBzKAQDSb/r/KfJbBlmSzQGhQh7/KyaPBiJSlQDHTCMD5w5zB4tm6QHIH
qj9z2abBtGPDQHR/bkDiwqrBCBzKQAYFiT/xV7HBnTHQQPL0VUBrN7XBOL3KQGoZwkBbh6/BbmCF
QF92WUCr4JXB0/nMQMqmOkAz6ZfBewSbQLh+A0HqksDBia2VQKaZHEHQ17XBXIi1QHY0LkBHlaLB
YtO+QA1cEUHkpbrBphrZQMyrH0H7OMLBjzLbQLYrBkGoI7LBsrplQDbhPcBs1I/BfJaIQOFTPUBG
wp/BJxY/QORtdkDtYpHBp7HTQNO1AkCDybjBp2CsQGhRV0CZrJDByql1QPecD0Es57vB3+TEQEvA
60BDP6zBZhDBQITRp8C/PJTBTgDaQOahXcDCzKDB5K7JQMLpFcBfi7DBLQjcQCMQ7L49o7zBWkjk
QIujgUB4r8TBcDrhQA8mzkAsqr/B7cOhQMW26j5Ra5jBe2S2QOPkq0D/JKDBY6h9QHFnnMAxp4nB
e+hbQISEib/TCJfBI/zaQEjw+z+0JZXBOlvmQJQGa0AhspjBHhWcQBCtBEGaWcnBcaeaQDUX5UCg
NL7BlA2SQPttGkFIKK3B1TeTQPC1LUFlz7fBIfjwQEyrKEEkk73BLH/pQHSiFUF3LcjBEZ7DQBjv
KkGFVMbBu6n2QM2L/UAJN7bBMrrmQKlTEkE7d6zBFp9fQB6UM0A4rKTB5W4+QBzphUDU2InB7xkJ
QET0dUDNrpXBROGpQE6yjsAxTpbBLFu4QKDMW8D7D53BGH/FQKTcqr/0t63BBkLTQARqjL64NrTB
8z7dQD5/iUAbbr3BqoDUQC8dtUAx17vBjlGrQOyehz6OmKDBhWazQOf8o0Dkv6rB6tGGQKDyhsDN
eo/BOleAQDgNAcBUu5XBSoKxQPpjib9Iz6PBe1KjQBHdC8CU05zB7++4QJg1qz83H6fBqoS9QJJ3
cEBAEazBi2DNQGQmiD8wBbHBqEnSQBOzVUCOm7XB1D3AQHW9wkBUZbLBtOuFQPU2XkCJvZXBhn/M
QOy3QED/+ZjBySgJQQhJ/UBKLanBST8AQaglD0H7h5vBVLqyQDijMEBrMqPB/pPrQPMi9kCXL6HB
AsPvQEXVzEA6fprBXT6+QNWb/kCsEKbB7o1lQDMRQcA+Ro/BYmqGQKtMPUAndZ/BzCxCQJ+0dEAw
PpDBhNrcQHyyAUAPAbjBYOWuQDQAakBP4pHBeD4RQYLPDkFyuKLBpq+5QE4m7kCf7bDBpG+5QKqO
rcBfVZbBrSfTQDlKZsCrW6LBWjbKQGqxFsAeT7DBuZPiQP1a+b7qxLvBbZHsQCaLfkCRvcTBX1nd
QJMzzECi4MHBu/KbQPgP8j7MCZnB1ZOhQIQXrkCdyqPBSVx3QGE9oMC5SorBGSlgQL4wiL8neZXB
sM3XQEr9A0CeiZXBKg/oQNh9akCKnprBzdETQfZw4UBP76nB1EgEQQISBEFvL7HBTeTsQBa9HUEs
+ZvBt/oEQQdDDEHMLZPBO/nTQLrVyUDEJJXB6Q/xQFP/sECh3p/B7p4GQcs5zkBvspXBOiimQM4X
70D386DBIJO4QDWsEEHTMabBYpRYQFDjLkAjtqPBvG1GQDGth0Aj/YjB+MMIQHFJakC8h5PBjFmr
QIhnicDrgZXBanu5QIg0U8ABjZzBBRXDQIz7pr92Lq7BqsXRQLaAgb5GmbTBNT3fQNXAiUB+Br3B
/+XSQNeGtEAnq7vBOJWrQDIdlj7wvKDB0pasQGHdoEDZhavBAjeGQEk0gsDdWY/BKkx6QDY0+L90
vpbBN0+wQKaYg7+SLKTBsAqiQFynBsCRLJ3BtVW5QKqkrD9vOKfBxey7QCHZbUBBQqzBfrXNQLTM
iT9UI7HBVr7TQP9YVUD8abXBJmm5QKFBwECt47LB7zuGQKX6WUCTkpXBB2/NQAw6QUAvP5nBrWHd
QIzL0UCKjpnBfH/8QCtN9ED2T6XBaqeyQFW1L0DoQKPBQ+fPQH2Z/EACep/BeBbPQKy3EUGY65fB
zSWnQKNs+kDM0abBNbVfQNheOsBwCpDBwXSGQN5jOkC6VZ/BghVDQME5dUBoWZDBsVffQAZSAkBr
vbfBixevQBkSXkAFYpHB2IP/QEH3y0AVlqDB1HiuQD3A6kDKr7HBa7K8QH4op8DVypTBbrfVQFe7
XMCRY6HB2yHGQPrTFMBK5bDBDk7gQHti7r44QLzB3bLxQL+ZgEBE9sPB4frcQO90zEC7XsHBH0Od
QD/7/z75DJnB75KWQD04qUDdMqXBHad2QELdmsDA8YnBBY9WQLgcgr+5NZfBU4fdQIh8BkDFiZbB
TX3lQO4Ec0Cp1prB1yvnQFKH1kDuL5HBoxfFQPheuEB295nBoEz6QCZ880DBF67B2QILQRBFBUG0
5qLB95PFQHQSIEFHbJzByfi3QD/TDkF5cZHBJCLvQGgkFEGqfJTB18iPQCoX5UBP9qLBq6+ZQBNv
DUGEZKfBy25YQKCiK0CqhqPB1B1HQEAEh0Dv/YjBZx8KQNkRcEBw8JPBgT1qQEqyRcDzZY/BJF2A
QAiAAcCgGJbB01rDQIurqr9s0a3BQXzOQAroi77lk7TB+yHaQHWHiUAZyLzB6DnYQDretEDiH7rB
CaStQD5/gz7pHKDB6h7CQFuAokDQD6jBZtyOQNzmh8BjTo/B1Ee9QNDqVcDpHpzBmCmyQO5WiL8F
oKPBigelQD7aCcBFlJzBeS66QBozqT+Ur6bBGtDDQHDdbUDzr6rBDY7JQEEwhz/uKbHBOjLQQOaG
VECzJbXBpE7MQL9bwUB3p6/BexyFQHa9XEBY65XBrmrMQNLbOkCHxJfB95joQEqnLUHH+LTBv8eu
QH1EJUFr8q3BhUW1QNhDLkBNeKLBGWDcQLpYGkFYcq3BkcTxQHC+GkHpTKLB8ZveQP7GBEFyALPB
Ch+yQKJri8BUjpXBlVOIQCawPkDQt5/BJmQ+QPx0eUA1cJHBw6DTQE4yAUDBn7jBQlqsQFDnXUDe
0pDB356+QGgYNUFPtLTBJRjJQKD/6kCmbazByjEyQJSYQcAfXorBFrxaQBqPj7+bSpbByO7HQMei
FsCkaLDBUfHaQM4J9b68d7zBllHjQHYNgEBNxMTBsdXfQDrYzECZDMDBOWmgQLPU6T74SpjB5Nm4
QK8mrEB7GKDBrUCGQLAqosCSHorB9UzZQL5aXMArHaHB8DnYQKW++j8yqZTBu2DnQDiNZ0BBqZjB
tPz/QPHDOEEQdLHBjnnzQB3HKEFp+rzBOueVQKswG0GQmrHB+lijQE9QK0FGMabBN1bnQKW4DEFp
qp3B8mAKQZFaGkHFPaPBoHHoQMtxKUFqD57BdtvOQGa8BUFa27rBdR0AQeQGAEECE7TBQSBfQBxv
NEC9nqTBYQw+QAWOiEA7AYrBMP4HQNmIdkAWo5XBLnFpQGHCRsCPiY/BH5SAQHgEAsDZFZbBXErE
QMqvqr9spK3B+hrPQGK9i767cLTBlwTYQOvwiUAq3rzBy87UQOZgtUDMRbrBQz2uQDaygz4H+5/B
/U7CQKO4okCK/6fBaCqOQJqjiMCEe4/BCJy9QE+JVsAaAZzByvyyQFd7iL8wdaPBWJmlQE4gCsBr
cpzBRaO6QI9ZqT/GlabBX0TEQHw0bkB0nKrBleHJQNBnhz9OErHBDdzPQHL6VEA5ILXBKNvKQMfX
wUDhq6/B6yaFQH0uXEAZ7JXBApfMQDHNOkB+pZfBfSa0QIFyKEFSHa7BtLLaQF87KkGamLvBf7W1
QKhoLkDYZKLB0N/BQErHFkHge7bBjqicQBwQDkHbbb3B863fQNCrBUHrx7HB3MyxQA4KjMBHmpXB
gLKIQN68PkB1vJ/BVNo+QITDe0BypZHBSn/TQOByAUBjlLjBdKmrQJ3cV0COhZDB5djMQHOkN0HV
abPB1mTGQACE60A4YKzBreYwQKe/QsDMl4rBGYlbQFAZkL/lQZbByjPJQOCgFsBkM7DBRo3bQIpd
9b5vVLzBTNbgQAyRgEDl4sTBa+vZQIJjzUCwWsDBDfSgQF+P6j4MK5jByBW6QMM+rECD85/BtwWF
QKkmo8DsborBQPrZQLC9XMC74KDB2FDaQEsS/D/H0pTBrB3mQI7xakAMW5jBJauRQAH8K0FcHq7B
6MG+QAYlJUE/46XBCJ39QNYQKEFq3rvBtgPPQJXVLkFmksPBZQGpQNbpAUFr/8LBGkSEQG7QBkHC
OLjBB0iOQFhHG0EA/8HBUgzyQIUu/EC7QrjBntf1QL4oDUF+D6zB5ThgQJTVNEBvtKTBOqc9QP7I
iEBgIIrBRpYJQFbBfEBTFJbBe9tpQD6cRsDnfY/BrnqAQPXnAcCME5bBckvDQDucqr/QvK3BiLLN
QP5GjL5HlrTBRI3cQIuciUCgl7zBU8LbQFLrtECZy7nB+s+tQN8BhT4eCaDBid3DQLlsokC95qfB
YbuOQOlRiMDUY4/BFNu9QGuaVcAr9pvBzHqyQGUSiL+JgqPBdXilQNC4CcAWc5zBXhG6QJByqT/2
qabB9pnEQDTZbUBYoarBQrfIQPRIhz9FNLHBcarQQO6dVECxHrXBfCTOQP5NwUBndK/BAA6FQNVe
XUB//ZXB4kDMQLTiOkAPuZfBXH7hQFbRJEHvpLDBIagDQd8SDUFmVrfBg2C1QExyLkCpd6LBpw/W
QJXZEkGMErnB+WjLQMorG0FxXsTBT+S0QGjMAkE6xbTBl2ayQMiDi8BVgZXB+2+IQFZ0P0D5yp/B
m749QDr2d0C6c5HBAxLSQLBQAUBWvLjBF2WsQCKlYEBA9JDB+oUFQYkQHUGfqq/BO0rHQEAB60Ar
jazBC0AxQOL0QsAQjorB++1aQI5qkL9eRJbBUCbIQO6fFsD+SbDBeaHZQNaA9r4ghrzB11rmQLE4
gECzicTBIoflQGzjzEA/hb/BC7OgQOVi7D7kNJjByUG7QOf0q0BR4Z/B5taFQA/QosB8TorBSjja
QJB+W8C416DB8vvWQKkx+j/9d5TBrOrnQO/TZUDOnZjB0q7fQFAqNUF537PB0r/OQMnaI0EZNqnB
BGAGQdKu+UA6OLTBhKsNQayjD0G6db7BgezDQDeUDUEIo8nBcp6vQJjwJUHP8sPByxXnQMTwI0HT
lcfB+ZeZQAanC0HqabHBJsipQPMz8UAjYrvBUY5fQFqmNUDpvaTBORk9QIrGh0AHBIrBpUAHQIyS
c0CWnJXBaBlsQB6gRsB0R4/BmnyBQCbJAcA32ZXB2XLDQPGUqr8QsK3BvI7NQL4kjL4kjLTB6S3c
QBfxiEAUm7zB0hrcQPwetEDi1bnBn/qtQG18hD7r9Z/BMOzEQMRgokBW16fBUHCPQAuciMAgXo/B
nP69QCNlVsB4FZzBHc+yQKcyiL+ccKPBOAOmQPzqCcBmYZzBXuO5QBZsqT8AnKbBP+3EQPOlbUDh
jqrBzWbIQJ0Mhz9fKLHBvXPQQLACVEABE7XBQp/PQHj2wEBRc6/BcMKEQLkoXUAR95XBRAzMQNNs
OkAKn5fBd53AQH8FJEF5nMDBNLDUQKWMKEHY9LDBxFK1QAGNLkBcZ6LBUCXVQK8IFEF1ULjBQ1YB
QSdRDEFic7vB+Qu2QMuZAkFYirTBG5uyQEsDjMCBp5XBG2GIQFxPQECzz5/B8oA9QPUQekDIjZHB
+m7RQFzxAED6s7jBH5mrQDv1W0DUrpDBCRjCQA11NEFmILnBq4nKQJfj6kCWmKzBREc0QLaoQsA8
NYrBQ3hdQEV0j7/y6JXB6mLIQMmUFsCzPbDBU2XZQL5w9b4Kf7zB40/lQHivfkDrlcTBbp7lQJDf
y0C0pL/BoQKhQCj86j4gHZjBU5a8QHQmrEDt0Z/BZ6GGQFwoo8AOS4rBN/zZQFCRXMCyF6HBVhbY
QI2v+T+4mZTBO8vmQK/KZ0DAYJjBPXvUQA7iJkHDu8fBRQWgQNOjH0H8G8PBLHvAQG31JkGBy6nB
g7T0QAQmLkGNmq7BVWQHQe9FAUHPTbXB5KYAQSIGBEF7NMPBSBkMQUEwGkF8EbzBgHGZQPcgCkF3
DrHBK5+sQNY+8UBaZbvB0b1fQDaqN0Ac16TB4XA8QN0EiECOCorBlLAHQIn2eEDC4ZXB

> <OMEGA_E>
MBgOP4ZcEz8AMB4/SMweP7R1KD887Sk/JCoCP6RSAj8wtwI/MOkCPw==

> <OMEGA_NBR>
     92199

$$$$
50249215
  -OEChem-04172616093D

 48 52  0     1  0  0  0  0  0999 V2000
    5.2251   -4.2033  -18.0463 C   0  0  0  0  0  0  0  0  0  0  0  0
    5.6821   -3.2470  -18.9629 C   0  0  0  0  0  0  0  0  0  0  0  0
    5.9882   -1.5813  -21.4802 C   0  0  0  0  0  0  0  0  0  0  0  0
    6.4909   -0.5960  -22.3440 C   0  0  0  0  0  0  0  0  0  0  0  0
    5.0785    0.1509  -20.0292 C   0  0  0  0  0  0  0  0  0  0  0  0
    3.8967   -4.1306  -17.5817 C   0  0  0  0  0  0  0  0  0  0  0  0
    5.2738   -1.2094  -20.3240 C   0  0  0  0  0  0  0  0  0  0  0  0
    4.7982   -2.2366  -19.3865 C   0  0  0  0  0  0  0  0  0  0  0  0
    5.6058    1.1486  -20.8737 C   0  0  0  0  0  0  0  0  0  0  0  0
    6.3246    0.7673  -22.0415 C   0  0  0  0  0  0  0  0  0  0  0  0
    3.4701   -2.2248  -18.8871 C   0  0  0  0  0  0  0  0  0  0  0  0
    4.0385    3.2404  -18.7945 C   0  0  0  0  0  0  0  0  0  0  0  0
    7.5864    5.4027  -23.0997 C   0  0  0  0  0  0  0  0  0  0  0  0
    7.4623    3.9334  -23.5568 C   0  0  0  0  0  0  0  0  0  0  0  0
    6.3465    5.8185  -22.2817 C   0  0  0  0  0  0  0  0  0  0  0  0
    6.2695    2.8610  -19.1544 C   0  0  0  0  0  0  0  0  0  0  0  0
    5.9144    3.5317  -21.6239 C   0  0  2  0  0  0  0  0  0  0  0  0
    5.4905    2.6090  -20.4522 C   0  0  1  0  0  0  0  0  0  0  0  0
    7.1770    2.9941  -22.3586 C   0  0  2  0  0  0  0  0  0  0  0  0
    8.4450    2.9119  -21.4551 C   0  0  0  0  0  0  0  0  0  0  0  0
    3.0489   -3.1609  -18.0031 N   0  0  0  0  0  0  0  0  0  0  0  0
    4.1111    2.9201  -20.0665 N   0  3  0  0  0  0  0  0  0  0  0  0
    2.8732    3.6377  -18.1643 N   0  0  0  0  0  0  0  0  0  0  0  0
    6.8997    1.6842  -22.9032 O   0  0  0  0  0  0  0  0  0  0  0  0
    5.2644    3.1308  -18.1753 O   0  0  0  0  0  0  0  0  0  0  0  0
    6.1213    4.8986  -21.1919 O   0  0  0  0  0  0  0  0  0  0  0  0
    2.5758   -1.3099  -19.3352 F   0  0  0  0  0  0  0  0  0  0  0  0
    5.8831   -4.9865  -17.6999 H   0  0  0  0  0  0  0  0  0  0  0  0
    6.6942   -3.2846  -19.3378 H   0  0  0  0  0  0  0  0  0  0  0  0
    6.1491   -2.6260  -21.7020 H   0  0  0  0  0  0  0  0  0  0  0  0
    7.0084   -0.8865  -23.2463 H   0  0  0  0  0  0  0  0  0  0  0  0
    4.5202    0.4337  -19.1491 H   0  0  0  0  0  0  0  0  0  0  0  0
    3.5455   -4.8657  -16.8727 H   0  0  0  0  0  0  0  0  0  0  0  0
    8.4857    5.5135  -22.4761 H   0  0  0  0  0  0  0  0  0  0  0  0
    7.6712    6.0514  -23.9840 H   0  0  0  0  0  0  0  0  0  0  0  0
    6.6379    3.8516  -24.2806 H   0  0  0  0  0  0  0  0  0  0  0  0
    8.4033    3.6266  -24.0367 H   0  0  0  0  0  0  0  0  0  0  0  0
    6.5044    6.8282  -21.8749 H   0  0  0  0  0  0  0  0  0  0  0  0
    5.4647    5.8218  -22.9393 H   0  0  0  0  0  0  0  0  0  0  0  0
    6.8552    1.9730  -18.8747 H   0  0  0  0  0  0  0  0  0  0  0  0
    6.9427    3.7236  -19.2673 H   0  0  0  0  0  0  0  0  0  0  0  0
    5.0915    3.5226  -22.3537 H   0  0  0  0  0  0  0  0  0  0  0  0
    8.2461    2.2455  -20.6029 H   0  0  0  0  0  0  0  0  0  0  0  0
    9.2876    2.5161  -22.0411 H   0  0  0  0  0  0  0  0  0  0  0  0
    8.6964    3.9165  -21.0841 H   0  0  0  0  0  0  0  0  0  0  0  0
    3.3290    2.8923  -20.6891 H   0  0  0  0  0  0  0  0  0  0  0  0
    2.8847    3.8692  -17.1916 H   0  0  0  0  0  0  0  0  0  0  0  0
    2.0191    3.6935  -18.6815 H   0  0  0  0  0  0  0  0  0  0  0  0
  1  2  2  0  0  0  0
  1  6  1  0  0  0  0
  2  8  1  0  0  0  0
  3  4  2  0  0  0  0
  3  7  1  0  0  0  0
  4 10  1  0  0  0  0
  5  7  2  0  0  0  0
  5  9  1  0  0  0  0
  6 21  2  0  0  0  0
  7  8  1  0  0  0  0
  8 11  2  0  0  0  0
  9 10  2  0  0  0  0
  9 18  1  0  0  0  0
 10 24  1  0  0  0  0
 11 21  1  0  0  0  0
 11 27  1  0  0  0  0
 12 22  2  0  0  0  0
 12 23  1  0  0  0  0
 12 25  1  0  0  0  0
 13 14  1  0  0  0  0
 13 15  1  0  0  0  0
 14 19  1  0  0  0  0
 15 26  1  0  0  0  0
 16 18  1  0  0  0  0
 16 25  1  0  0  0  0
 17 18  1  0  0  0  0
 17 19  1  0  0  0  0
 17 26  1  0  0  0  0
 18 22  1  0  0  0  0
 19 20  1  0  0  0  0
 19 24  1  0  0  0  0
  1 28  1  0  0  0  0
  2 29  1  0  0  0  0
  3 30  1  0  0  0  0
  4 31  1  0  0  0  0
  5 32  1  0  0  0  0
  6 33  1  0  0  0  0
 13 34  1  0  0  0  0
 13 35  1  0  0  0  0
 14 36  1  0  0  0  0
 14 37  1  0  0  0  0
 15 38  1  0  0  0  0
 15 39  1  0  0  0  0
 16 40  1  0  0  0  0
 16 41  1  0  0  0  0
 17 42  1  0  0  0  0
 20 43  1  0  0  0  0
 20 44  1  0  0  0  0
 20 45  1  0  0  0  0
 22 46  1  0  0  0  0
 23 47  1  0  0  0  0
 23 48  1  0  0  0  0
M  CHG  1  22   1
M  END
> <OMEGA_C>
LTSnQB2BhsC/XpDBbtO1QIjPT8AWtJfBH5+/QLdoyr+I16vBSrXPQGCUGL+OwLLB8IKiQMB6Gj7i
O6DBx2J5QOkthMBkp4zBrsKoQCXPmr+Rl6LBDouZQO4jD8B3F5vBdWKzQJMGkz9s/abBTGPKQOJs
RD8LVbDB6RZeQLBiDsC0GJfBZTuBQIJjT0APW5bBi8PyQEzjrEAyzLjB2MruQMK8e0BfdLzBWhbL
QNIwukDbQLLBBqDIQGAbN0A+PJnBlkK9QC4HYkCr/azB27GvQF75JkAznqPBEKrlQOCeP0Be3rLB
1h4HQTxdOkAfpKvB1iFDQIZLSsBGBpDBCo6DQAjjOkBLiKDB9uE3QDTQaECVUJHBCcrcQLmS1z/K
ObfBNHaoQCJfSEAPZ5HB3OHDQEPBnEAYianBSNkkQLapp79rrprBfEK8QIaRn8BumY3B/TbWQAc3
UsDXs5rBbsXEQBEQKMC/na3BNkXgQLTuYr99+LnBp6WQQBgT3j5FMZnBP+piQKGzm8Az+4bBjsUH
QY9usEANz7PBg3r1QDClwUBL37/BEWrUQDeAdkCcPsLBB3QGQQQaaEAfS8DBpiPQQMWA2kDK/67B
tN6uQCRMukCcg7fBMF7bQLGJ/D9u/5bB0yreQCxQbkBdI5rBN+2iQMtyYUB01LLBJvADQb22D0C1
0qTB7pkUQVYHIUA/VLDBaiQLQcinekAprKjB9g1VQLYaOUA0g6XBLZ44QOygd0BaiInBATkBQH1h
bEDCc5XBUdVHQIwTUMAfqI/BLXdfQLE9EMDL+JbBc/S7QNTnyr+hKqzB0OPLQENlGb/CELPBRnOh
QCrWET5wGqDBqJmCQG1lhsAzXozBHGKnQCLCm7+klKLBNOGZQEreD8AX7prBOCSyQJA8kj8U5KbB
4SrIQJSeQj97YrDBLzO3QB7ITsDCSpfBaMeAQOFqU0Cqa5bBZNz0QKqJq0CDeLjBy83vQNyIeUAG
NLzBzkTNQJqtuUArA7LB4NzHQB4DNkAPB5nBP4W9QBWtYUDRzqzB2i2vQM6+JkB/eaPB/X/lQNqB
PUDPsLLBnucGQdYDNUDBaavBWzirQJKjhcChJJDBZB2DQMH+O0CdfqDB5Fk3QNlVcECflpHBxDfb
QJrw1T/uMbfBe6inQB3USkC9VZHBgijFQAVcnEBPUanBQHPgQGWiTcAbpJrB4E8HQBGzUsBFk4zB
l+sxQIXFwL8tg5nBP3O/QG1DKMCaM67BLhrbQC66Yr8terrBmQ6QQLkX2D7z+pjBPftyQAHYnsCb
s4bBZsEIQTU3rkD2ZrPB9Gj4QGJiwEB6gb/BhZrVQIj1dUAfEMLB2+YGQRx9ZEAY+7/Bf+bSQE7d
2UBeva7BDz2xQL5nukAOVbfBvUnZQLHg9z9IoJbBBZTeQHFIa0Ag85nBiTijQNOIYkDnp7LBpEgD
Qa1jCkDIpaTBwTYUQecmGkBDF7DBh3ALQcaGdEA6XqjByjdUQNQOOUAVeaXBwcw3QNJhgEBN24nB
j0EBQOXPdECl05XB

> <OMEGA_E>
MNZ9PoAEyj4=

> <OMEGA_NBR>
     11528

$$$$
288399
  -OEChem-04172616093D

 35 38  0     1  0  0  0  0  0999 V2000
    8.0712    3.7512  -23.5965 C   0  0  0  0  0  0  0  0  0  0  0  0
    7.6908    5.0789  -23.7748 C   0  0  0  0  0  0  0  0  0  0  0  0
    6.2295    4.9062  -21.8616 C   0  0  0  0  0  0  0  0  0  0  0  0
    6.5924    3.5607  -21.6709 C   0  0  0  0  0  0  0  0  0  0  0  0
    7.5370    2.9992  -22.5442 C   0  0  0  0  0  0  0  0  0  0  0  0
    6.7729    5.6579  -22.9048 C   0  0  0  0  0  0  0  0  0  0  0  0
    4.3600    3.3543  -19.0767 C   0  0  0  0  0  0  0  0  0  0  0  0
    5.2331   -0.6783  -20.8994 C   0  0  0  0  0  0  0  0  0  0  0  0
    5.1986    0.5636  -21.8086 C   0  0  0  0  0  0  0  0  0  0  0  0
    5.7080    0.2345  -19.7546 C   0  0  0  0  0  0  0  0  0  0  0  0
    6.5569    3.1653  -19.1694 C   0  0  0  0  0  0  0  0  0  0  0  0
    7.6767    1.0272  -21.2430 C   0  0  0  0  0  0  0  0  0  0  0  0
    5.9987    2.7480  -20.5401 C   0  0  2  0  0  0  0  0  0  0  0  0
    6.2158    1.2532  -20.8303 C   0  0  0  0  0  0  0  0  0  0  0  0
    4.5910    3.0749  -20.3500 N   0  3  0  0  0  0  0  0  0  0  0  0
    3.1945    3.6753  -18.5452 N   0  0  0  0  0  0  0  0  0  0  0  0
    7.9750    1.7025  -22.4700 O   0  0  0  0  0  0  0  0  0  0  0  0
    5.4316    3.2797  -18.2742 O   0  0  0  0  0  0  0  0  0  0  0  0
    6.2595    7.4621  -23.1357 Br  0  0  0  0  0  0  0  0  0  0  0  0
    8.7908    3.3064  -24.2793 H   0  0  0  0  0  0  0  0  0  0  0  0
    8.1209    5.6481  -24.5945 H   0  0  0  0  0  0  0  0  0  0  0  0
    5.5145    5.3705  -21.1852 H   0  0  0  0  0  0  0  0  0  0  0  0
    4.2715   -1.1733  -20.7402 H   0  0  0  0  0  0  0  0  0  0  0  0
    5.9689   -1.4313  -21.2026 H   0  0  0  0  0  0  0  0  0  0  0  0
    5.5408    0.3960  -22.8342 H   0  0  0  0  0  0  0  0  0  0  0  0
    4.2052    1.0231  -21.8551 H   0  0  0  0  0  0  0  0  0  0  0  0
    4.8798    0.5885  -19.1310 H   0  0  0  0  0  0  0  0  0  0  0  0
    6.4707   -0.1957  -19.0989 H   0  0  0  0  0  0  0  0  0  0  0  0
    7.2605    2.4448  -18.7422 H   0  0  0  0  0  0  0  0  0  0  0  0
    7.0491    4.1444  -19.1879 H   0  0  0  0  0  0  0  0  0  0  0  0
    8.3800    1.3650  -20.4723 H   0  0  0  0  0  0  0  0  0  0  0  0
    7.8879   -0.0346  -21.4106 H   0  0  0  0  0  0  0  0  0  0  0  0
    3.8405    3.1099  -21.0314 H   0  0  0  0  0  0  0  0  0  0  0  0
    2.3562    3.7292  -19.1210 H   0  0  0  0  0  0  0  0  0  0  0  0
    3.1127    3.8747  -17.5502 H   0  0  0  0  0  0  0  0  0  0  0  0
  1  2  1  0  0  0  0
  1  5  2  0  0  0  0
  2  6  2  0  0  0  0
  3  4  2  0  0  0  0
  3  6  1  0  0  0  0
  4  5  1  0  0  0  0
  4 13  1  0  0  0  0
  5 17  1  0  0  0  0
  6 19  1  0  0  0  0
  7 15  2  0  0  0  0
  7 16  1  0  0  0  0
  7 18  1  0  0  0  0
  8  9  1  0  0  0  0
  8 10  1  0  0  0  0
  9 14  1  0  0  0  0
 10 14  1  0  0  0  0
 11 13  1  0  0  0  0
 11 18  1  0  0  0  0
 12 14  1  0  0  0  0
 12 17  1  0  0  0  0
 13 14  1  0  0  0  0
 13 15  1  0  0  0  0
  1 20  1  0  0  0  0
  2 21  1  0  0  0  0
  3 22  1  0  0  0  0
  8 23  1  0  0  0  0
  8 24  1  0  0  0  0
  9 25  1  0  0  0  0
  9 26  1  0  0  0  0
 10 27  1  0  0  0  0
 10 28  1  0  0  0  0
 11 29  1  0  0  0  0
 11 30  1  0  0  0  0
 12 31  1  0  0  0  0
 12 32  1  0  0  0  0
 15 33  1  0  0  0  0
 16 34  1  0  0  0  0
 16 35  1  0  0  0  0
M  CHG  1  15   1
M  END
> <OMEGA_C>
gSMBQRoUcECXxbzB8hr2QHiGokC3Mr7BWljHQHL/nECE5K7BlPTSQHniY0AaXq3BFi/xQLvyP0Bt
WrTB8rvYQMYNtUAAPbfBZYWLQPusVkAEnZjBuXWnQNKjLb/xMafBClumQNJFED/6d67B6ae2QBoi
cD53CZ7BCtLRQNiTSkD0WpnBuKf1QDJ8gz+u8anBSvW/QLTfL0AnUqTBEOjGQBJpoD9tpKbBU+mS
QKDLREDSzKLBgXNMQNI4a0COXJTBgDP/QIfr2T+LwrPBiM+tQPbmUUCYMZLBhU3IQL/J7kDuFbnB
8aYMQdacU0APPMLBVu8BQe+8tECawcTB5nawQDrbq0Bhe6nBYrCIQPAulr/r66XBFQG/QOQzt7/+
nqnB7E2xQFa/yj5irLbBSZGGQHX1gj9J167B9CacQFipFj8wDJnBJRDPQOBcSL6cypjBCFboQEB3
HEAR8JXBfpLhQKWehEC5gJnBnBQGQU63rj9Ax6PBZmn8QJCLDb3SSKvBMMt1QDQJR0A+QKjByMwW
QFSrbkDV95jBrTVHQK37d0DdZozBw3PtQEUtiUABOLnBFNv3QL8ysUAVF7XBM2zVQKEonkBEeKTB
fwXLQH2VakBRaqjB2b3WQDhSV0AL/rLBCqnrQEvFu0CauqrBESF9QNWQYkDgCZfBW4XAQPPCVr8y
f6PBH4maQOZL8T1JxKHBryreQHQ0xj7nQ6TBjfq+QL5jKkCVpJXBonitQDiTsj8M4LLBkAizQH3h
KUCSlaHBA+61QGbtoT/l0abBEoWGQDXxRUAY0KDBxtgzQEYRgUCdjpPBsDrOQCfPCkAR6bfBW9ef
QK5VX0DnRJDBhxj5QLhG8kBsGKXBvEL3QLj3gEC6TsHBj8AEQQatx0BNCbrBuv7LQMzupkASXpzB
szvHQKg7w7/Y4JzBsYS+QKQztr896arBljl6QOVNJL5F/aXBQIeSQHBkeD7bRpnBPA7uQKmIHD8T
qZzBPZ72QHz5qz4VhKrBJHO+QAIB1j+b75HBvGveQDjeRkD9GZTBinmrQBxB1j4f0bbBvyWPQG7m
8z8Bd7TBpLNeQJLgRUA2e6bBbToAQIJBg0B3gJjBtJotQFdVi0D83YvBIcv5QG61fUAS/L3BqEzq
QPq7p0CdJMDBT1e+QPQYpED8SrDB9FTNQEZKdUDCBK7B8MXrQNQjUUDH7bTB0KrMQBtrukBtR7nB
eKiJQN8ObEBudZjB7vWsQGzF0r78o6TBKtmnQCBHPj/RrqzBF0W7QDhEID95R5zBwg7QQDWDaUAi
0pnB9G72QCDDtj+sUqnBZqa9QOoERUAMR6TBBsrHQAy0yj+qr6XBzDOQQDZyVECHf6LBu7FIQEUP
fkDZCZTBMun8QOgMAUDGo7PBcPGsQCWGcEDFYZLBD7y3QDQC8kBuH7zBTIAIQbb9YEDUYMPBSLX1
QEuYuEAAMcfBTjmnQCESs0Aq96rBVKiPQNZddb/buKLBR9zFQDwVkb970KbBQ/axQCKpAz8P3LTB
ywWHQHsSkD8iBK3BJ76gQNjJeD++QpfBYmHVQGi8nT6/CJfB6bToQNcwQUCxL5bBHmjdQMb2lEBb
xprBoHoGQcp18D+mpKPBxH7/QMwovz4jCarB6chuQKWTT0CRsafBxqARQMaPekArYJjB39dEQJbg
h0AIN4zBJ9fxQPaPWUA3gLfBfjYBQUHXkkAaerPB2YjeQM2EhUDEs6LBx9XNQLBAPUCniqbBdFDX
QORLJkDSJLHBD5v4QDlRn0AjF6nB4rmCQG8PTUAa4pTB7PitQNS1uL+kWKHBXCmNQGA8or6Lh5/B
JCjRQKBJvr6GSaLBlzu+QNQYAkCzrJPBXwGlQBzNWD+1xbDBpqexQPTJBEAZkp/B93mtQARYLz8K
vqTBctOHQJQELkBOqZ7BKzhCQHB4d0CnS5HBENHIQJ4iuj+C97XBq8mjQOEJQECOO47BFDwHQR5D
00DLmKPBQsz5QEYVRkBJnL/BUHsLQdxNpkAahrjBLQrXQGnCj0DRlJrBd7GxQPmSCcBkt5rB8bWo
QCb9AMChuKjBJfNcQFoP6b5KoaPBI1+GQP2wGr6nBJfBvGniQCYgYr7AwJrBaLHoQMqQCr+Bn6jB
oiW5QCV1hz/f6Y/Bho7fQKTKFEBmRZLB/RCeQHDX472Cp7TBiGeJQLA0vz9rR7LBeiVhQEnDNEC1
PqTBMkEPQA63gUBQJpbBuBhAQFh9hkC+nInBd+r9QDfxlkCM5LjBeL3wQMOCwUBw97jBflPBQAXl
skBHK6rBFvPNQFGyh0CwBKrB9v7sQLSJdEDpZ7HBtInSQAKHz0AolbHB9puFQCQkaUD29JXBQJul
QLRQwL28hKjBDOCjQFiwoD+/bq7BNJCzQFLxKz/7a57ByBLMQEE+YUCGmZbBuoXyQKZ62T9fIqnB
iyS7QJRzUUDw+qHBzG7DQCPO6j9l0aXBSMSNQFh3YkALUaDBcq4/QAZId0Bpj5HB+gj8QCNUIkAk
HrLBn5qnQO5IX0Ceh4/B4bzAQBSqBEGtl7HBKcsKQVA/jECprb7BCGL+QCBU10CC0L7Bq8mpQIU9
vkD7aaTBWC+HQMbIIL/T5qfBoOK9QFV0SL9NnavBkmSvQN6xnT8jsrbBor6DQIjF2D+qc67BEISY
QKrOaz8BN5nBXAjMQFx6NT5akpnBg/ziQAMEMUCd35PB0wbbQA4fkEDTp5XBHTUEQdt++T9hk6LB
/jb6QDB5LD8CjKvBCgxsQG5HaUBLyKXBYnQKQGNFfkBULpbB80Q5QEFye0DbeInBRAX9QGIvlUAw
h7bBRNjvQO7Av0AVmrbBSm7AQC8jsUDrzafB4g3NQHzwhUBUp6fBwhnsQAgGcUCOCq/BgKTRQCzF
zUDMN6/BwraEQHqgZUCal5PBDLakQApjGL5hJ6bB2PqiQAKpmT9jEazBAKuyQKbiHT+gDpzBlS3L
QJa6XUArPJTBh6DxQFBz0j8ExabBWD+6QOjvTUCVnZ/BmInCQM3G4z8KdKPBFN+MQK3zXkCw853B
DOQ9QFvEc0AOMo/BxiP7QHjQHkDIwK/BbLWmQEPFW0BDKo3Brte/QCrJA0FROq/Bj1gKQXp9ikBO
ULzB1Xz9QEuS1UAnc7zBeOSoQK97vECgDKLBJUqGQHDXLr94iaXBbP28QAGDVr/yP6nBXn+uQImq
lj/HVLTBb9mCQDO+0T9PFqzB3Z6XQP+/XT+m2ZbBKCPLQGh/+j3/NJfBUBfiQFiALUBBgpHBoCHa
QDhdjkB4SpPBg8IDQYV38j8GNqDBylH5QIRqHj+mLqnBokFqQMTDZUDwaqPB+qkIQLjBekD50JPB
jHo3QJbud0B/G4fBLo8CQRYOgkDyNrnBTvL4QICKrEATpLrBti/KQHoDp0DfVavB7svVQIrqd0B2
z6nBcgb0QMr6U0DIy7DBTpPbQM4Rv0BbrrPBwlyOQAy1akBfDpXBFk2qQCAHu75No6PBZDKpQBRm
YD9V6arBRH+5QMgoDD/TeprBZqnUQOmbXkBPzJXBFX/4QFOMqz8KY6bBpszCQMbnQ0CCw6DBar/J
QDN5yD/IFaPBrsCVQLDTWEAuPp/BNyJSQORAf0DpzZDBbgUBQdT9AEDmM7DB46awQAbvZUDzoo7B
4CTLQMjN+EBJh7XBnxIOQeakZ0Brrb7BA1sDQfjAvkD1MsHBQk6zQELftUC97KXBvYeLQJ49XL9G
XaLBctjBQMIjj79ZEKbBSCW0QO5/NT++HbPBpWiJQJYFqz+kSKvBUP6eQJrJZj+LfZXBgOfRQFBI
8D33O5XBYy3rQFB/MEBtYZLB2mnkQK6ijkAV8pXBSoAHQW7H1j+bOKDBwUD/QBKPjj4tuqfB6Hl7
QEQRW0CasaTBf3scQLJZgUAxaZXBZORMQN8BhkA42IjBGLLyQNzqj0DfkLbBgHr5QOYVuUCQrbLB
AVDYQI3KpEBQ/aHBdpnRQFuZdUBisKXB8W3eQKVYYkB/L7DBrBnsQDCWw0BgZ6jBOD+FQPjTY0Cb
ZZTBOW/TQENkKb+g35/BVeWqQCh7Rj7BY57BuZrtQH8bIz+M2aDBLM3HQDBNN0BrvJLBk8C6QLRp
uz+3ua/Be0m8QJBcMkAisJ7BvyvDQJ6Jsj/qoqPBtrSOQJfCRkABEZ7BnIw+QIaefUAEEZHBA2fZ
QH6yE0AI37TB4FSmQIy1Z0D+ko3BbJv0QHKX+0BfGaPBMmz9QOTJh0Aplr7BoqIEQTuC0ECnvbfB
c+rNQFOErUBV9ZnB89DbQOw+p7/jG5nBzkfTQD/Yor9nK6fBJHuOQFYoNL4zmKLBs1CiQLw6pT5R
8JXB8pT8QJpUbT95RZnB3iUDQXcDIj8BDqfB7+XJQNSg8T+O1I7BRtnlQPpoWUAVPpHB/ZS7QESf
8j55eLPBTS6bQHFZ8T+bdbHBeZlvQDSQQUCow6PBZwwLQGyIfED+DpbBshY2QJuGiUDJconBFMjK
QBoQxUBL87zBSpXLQCwv7UBlILjBKc7BQNuty0Cf5abBpXLBQLO4okBskqvBUzPFQCIroEA9wLbB
A+TGQL6C8EDHGa3BlQqNQObjgEAZ9JbBuiTqQFJhNT+TI6vBTja/QGh3mD9PfKbBpjT4QJp9C0Ch
EqzBi2nSQNYVeEBz15nBFmGzQLr0LUCIqLbBxCq8QCctdUAi0aTBJO7HQBQnJkAui6vBR5WPQE/z
cEDrUaHBgGpTQGpzgkASLJHBS9PEQD8RdUCJYLzB7ouyQA4OiUBLJZLBwFHHQFhzE0G0e6bB7bHO
QPuawkA4ksXBrfbPQIC5BEFhEL3BVBO+QADLzkBtQ57BIo/9QJiEsD3DzqXBoy3nQJgzRj5k27LB
BQCjQJ04Jj90YKnBhqu+QOOFlD/dtZ3BgOAFQT0jIEDtRKXBoJ0EQTr5G0AVcLPB/33fQK90OkC+
SpfB/DzsQC22k0AEeZnBf7K3QP+V5z8mb7vBp9mQQLzMOEAPGbbBNNtpQKncY0D0oaXBDjoZQA3Z
eUC5kpTB4c5VQOYziUDQNYnBhID0QMLlqUCFl73Bj1DdQGq7z0DEnL7B2RC3QF7nvkC4X67B3uTN
QLNgmEClPq3BlDLtQEWQjkAS6rTBra6+QONO2kAw/LbBKhOSQMxXgECTDJfBxD/JQPqLpT6bmKbB
LGS7QHKjwD97sK3BZX/TQAJoqz/YtJ3BYATXQJGmjEBFU5nB+rUCQbZaJkCF2KrBN3rFQHZndUAd
6KPBhLjXQM5nHEArhqbBDPaXQBtvckCtYqHBWAZaQPDJgECp+ZHBrs4CQUxDVEChwrTB9Oi1QHso
h0DkZpHBTU+fQHLgBkGnSLjBSDgGQZbjoUCwk8PBGpPjQB2g5EA1YsXByhafQGONx0AecajBJi6w
QEzKzb7qtqTBp0nlQMDrXb5dmanB1nbEQJ7ztT/RHbbBluCYQASE2D+VU63BHs24QBCMvD+XIJjB
vlvwQHhLkD9lDZnBKtPzQOWseEBEe5bB1AXeQGD7rkD5tZnB5DUNQSJcR0CFJ6XBoh4KQUo10D/b
b6zBwVl9QGy/Z0AjS6bBalEiQHGrdkDF+pXBJzVXQIyWhkD594nB

> <OMEGA_E>
Kaw0wdzALMGUUDzBWlovwV3YR8FFyULBA3A/wdeIMMEHrzzBXIU0wQ==

> <OMEGA_NBR>
     18400

$$$$
288389
  -OEChem-04172616093D

 36 39  0     1  0  0  0  0  0999 V2000
    7.5007    4.0891  -23.4165 C   0  0  0  0  0  0  0  0  0  0  0  0
    7.3514    5.4581  -23.1215 C   0  0  0  0  0  0  0  0  0  0  0  0
    6.0174    4.8881  -21.1678 C   0  0  0  0  0  0  0  0  0  0  0  0
    6.1747    3.5078  -21.4436 C   0  0  0  0  0  0  0  0  0  0  0  0
    6.8911    3.1140  -22.5991 C   0  0  0  0  0  0  0  0  0  0  0  0
    6.5935    5.8555  -22.0057 C   0  0  0  0  0  0  0  0  0  0  0  0
    4.1271    3.2781  -18.9056 C   0  0  0  0  0  0  0  0  0  0  0  0
    4.8060   -1.2829  -20.8382 C   0  0  0  0  0  0  0  0  0  0  0  0
    4.3980    0.1588  -20.6213 C   0  0  0  0  0  0  0  0  0  0  0  0
    6.3336   -1.2513  -20.6776 C   0  0  0  0  0  0  0  0  0  0  0  0
    6.2743    2.5642  -19.1082 C   0  0  0  0  0  0  0  0  0  0  0  0
    5.7773    1.0240  -22.6035 C   0  0  0  0  0  0  0  0  0  0  0  0
    5.5992    2.4589  -20.4761 C   0  0  2  0  0  0  0  0  0  0  0  0
    5.6430    0.9711  -21.0576 C   0  0  1  0  0  0  0  0  0  0  0  0
    4.2095    2.8407  -20.1446 N   0  3  0  0  0  0  0  0  0  0  0  0
    2.9541    3.6894  -18.2974 N   0  0  0  0  0  0  0  0  0  0  0  0
    6.9484    1.7911  -22.9774 O   0  0  0  0  0  0  0  0  0  0  0  0
    5.3740    3.3466  -18.3268 O   0  0  0  0  0  0  0  0  0  0  0  0
    6.7236    0.1522  -20.5300 O   0  0  0  0  0  0  0  0  0  0  0  0
    6.3733    7.7027  -21.6000 Br  0  0  0  0  0  0  0  0  0  0  0  0
    8.0847    3.7842  -24.2723 H   0  0  0  0  0  0  0  0  0  0  0  0
    7.8180    6.2012  -23.7511 H   0  0  0  0  0  0  0  0  0  0  0  0
    5.4484    5.1993  -20.3041 H   0  0  0  0  0  0  0  0  0  0  0  0
    4.3450   -1.9394  -20.0855 H   0  0  0  0  0  0  0  0  0  0  0  0
    4.5234   -1.6242  -21.8449 H   0  0  0  0  0  0  0  0  0  0  0  0
    3.5266    0.4160  -21.2412 H   0  0  0  0  0  0  0  0  0  0  0  0
    4.1623    0.3433  -19.5628 H   0  0  0  0  0  0  0  0  0  0  0  0
    6.6307   -1.8211  -19.7849 H   0  0  0  0  0  0  0  0  0  0  0  0
    6.8152   -1.6849  -21.5665 H   0  0  0  0  0  0  0  0  0  0  0  0
    6.4100    1.5672  -18.6635 H   0  0  0  0  0  0  0  0  0  0  0  0
    7.2507    3.0636  -19.1935 H   0  0  0  0  0  0  0  0  0  0  0  0
    5.8728    0.0006  -22.9954 H   0  0  0  0  0  0  0  0  0  0  0  0
    4.8809    1.4978  -23.0302 H   0  0  0  0  0  0  0  0  0  0  0  0
    3.4369    2.7755  -20.7761 H   0  0  0  0  0  0  0  0  0  0  0  0
    2.9768    4.0681  -17.3722 H   0  0  0  0  0  0  0  0  0  0  0  0
    2.0838    3.6078  -18.7831 H   0  0  0  0  0  0  0  0  0  0  0  0
  1  2  1  0  0  0  0
  1  5  2  0  0  0  0
  2  6  2  0  0  0  0
  3  4  2  0  0  0  0
  3  6  1  0  0  0  0
  4  5  1  0  0  0  0
  4 13  1  0  0  0  0
  5 17  1  0  0  0  0
  6 20  1  0  0  0  0
  7 15  2  0  0  0  0
  7 16  1  0  0  0  0
  7 18  1  0  0  0  0
  8  9  1  0  0  0  0
  8 10  1  0  0  0  0
  9 14  1  0  0  0  0
 10 19  1  0  0  0  0
 11 13  1  0  0  0  0
 11 18  1  0  0  0  0
 12 14  1  0  0  0  0
 12 17  1  0  0  0  0
 13 14  1  0  0  0  0
 13 15  1  0  0  0  0
 14 19  1  0  0  0  0
  1 21  1  0  0  0  0
  2 22  1  0  0  0  0
  3 23  1  0  0  0  0
  8 24  1  0  0  0  0
  8 25  1  0  0  0  0
  9 26  1  0  0  0  0
  9 27  1  0  0  0  0
 10 28  1  0  0  0  0
 10 29  1  0  0  0  0
 11 30  1  0  0  0  0
 11 31  1  0  0  0  0
 12 32  1  0  0  0  0
 12 33  1  0  0  0  0
 15 34  1  0  0  0  0
 16 35  1  0  0  0  0
 16 36  1  0  0  0  0
M  CHG  1  15   1
M  END
> <OMEGA_C>
HgbwQIjZgkDmVLvBYD7rQGSorkDZ+LjBR47AQElrnECQV6nBWJfFQACAYEBpjKvBNoTcQLRLR0Dv
yrTBCP7SQApgu0C+C7DBSRGEQCjNUUCqPpfBm8qZQI80pL+KtKbByryMQDioIj5U+KTBx6zKQN8p
oL/Ga6XBC8fIQAwbJECI3ZjBjt+4QBUTgz8K1LTBySyzQFBfHUD7zqPBW5O0QO6XeD8IdqjBYbSG
QIjONUAXKKHBwhA9QKIebEARYZLBAFneQFND5T+60bfBHfirQE4vVkA4nZLBbifXQEjPGz5qPaTB
Z/LLQGh89kC1zKzB2FoBQcswckC2LcLB+yz6QEpwxkBAAr7BmFmuQLFgpkDWbqLBaAqLQH8++L8n
r6DBpr+QQP7mz79swq7BF7NhQEL81D4Q7qnBbDGFQHLLrz6RgJzBFi/UQIgZ6b9qR57BvxXaQEWr
178kiKzB6x7NQIGayD/tTpXBXwXoQO4RREBHjJnBHe67QIjgITp89rfBvDCcQO64vz/uPbjBRvZb
QGGhMUBvNabB7YM+QJ0tgkAr+orBtF0FQOzmZkDTQ5bB

> <OMEGA_E>
KNNhPw==

> <OMEGA_NBR>
     19305

$$$$
288400
  -OEChem-04172616093D

 43 47  0     1  0  0  0  0  0999 V2000
    7.3640    4.0936  -23.2496 C   0  0  0  0  0  0  0  0  0  0  0  0
    7.0436    5.4436  -23.1396 C   0  0  0  0  0  0  0  0  0  0  0  0
    5.7823    4.9637  -21.1397 C   0  0  0  0  0  0  0  0  0  0  0  0
    6.0825    3.5924  -21.2402 C   0  0  0  0  0  0  0  0  0  0  0  0
    6.8990    3.1750  -22.3005 C   0  0  0  0  0  0  0  0  0  0  0  0
    6.2560    5.8798  -22.0810 C   0  0  0  0  0  0  0  0  0  0  0  0
    4.1320    3.3732  -18.6065 C   0  0  0  0  0  0  0  0  0  0  0  0
    9.4218    0.3027  -21.1850 C   0  0  0  0  0  0  0  0  0  0  0  0
    8.7885   -0.5817  -22.2517 C   0  0  0  0  0  0  0  0  0  0  0  0
    8.2667    0.9988  -20.4646 C   0  0  0  0  0  0  0  0  0  0  0  0
    7.2804   -0.4561  -22.0515 C   0  0  0  0  0  0  0  0  0  0  0  0
    6.2398    2.7630  -18.8439 C   0  0  0  0  0  0  0  0  0  0  0  0
    5.1283    0.0419  -19.8771 C   0  0  0  0  0  0  0  0  0  0  0  0
    4.5278    0.7225  -21.7270 C   0  0  0  0  0  0  0  0  0  0  0  0
    5.5637    2.6005  -20.2186 C   0  0  2  0  0  0  0  0  0  0  0  0
    5.6961    1.1687  -20.7886 C   0  0  0  0  0  0  0  0  0  0  0  0
    7.0821    0.9449  -21.4404 C   0  0  0  0  0  0  0  0  0  0  0  0
    4.1865    2.9313  -19.8527 N   0  3  0  0  0  0  0  0  0  0  0  0
    3.0477    3.7676  -17.9640 N   0  0  0  0  0  0  0  0  0  0  0  0
    7.2878    1.8810  -22.5150 O   0  0  0  0  0  0  0  0  0  0  0  0
    5.3093    3.4355  -17.9724 O   0  0  0  0  0  0  0  0  0  0  0  0
    4.3352   -0.4935  -20.9635 O   0  0  0  0  0  0  0  0  0  0  0  0
    5.8240    7.7124  -21.9159 Br  0  0  0  0  0  0  0  0  0  0  0  0
    7.9864    3.7599  -24.0764 H   0  0  0  0  0  0  0  0  0  0  0  0
    7.4192    6.1407  -23.8837 H   0  0  0  0  0  0  0  0  0  0  0  0
    5.1696    5.3231  -20.3159 H   0  0  0  0  0  0  0  0  0  0  0  0
   10.0270   -0.2796  -20.4825 H   0  0  0  0  0  0  0  0  0  0  0  0
   10.0845    1.0389  -21.6542 H   0  0  0  0  0  0  0  0  0  0  0  0
    9.0720   -0.2239  -23.2485 H   0  0  0  0  0  0  0  0  0  0  0  0
    9.1193   -1.6221  -22.1717 H   0  0  0  0  0  0  0  0  0  0  0  0
    8.0413    0.4535  -19.5410 H   0  0  0  0  0  0  0  0  0  0  0  0
    8.5664    2.0161  -20.1972 H   0  0  0  0  0  0  0  0  0  0  0  0
    6.7662   -0.5845  -23.0094 H   0  0  0  0  0  0  0  0  0  0  0  0
    6.9487   -1.2527  -21.3779 H   0  0  0  0  0  0  0  0  0  0  0  0
    6.4723    1.8066  -18.3660 H   0  0  0  0  0  0  0  0  0  0  0  0
    7.1587    3.3572  -18.8785 H   0  0  0  0  0  0  0  0  0  0  0  0
    5.8467   -0.6874  -19.4936 H   0  0  0  0  0  0  0  0  0  0  0  0
    4.4804    0.3546  -19.0514 H   0  0  0  0  0  0  0  0  0  0  0  0
    3.6119    1.3192  -21.7294 H   0  0  0  0  0  0  0  0  0  0  0  0
    4.7829    0.5103  -22.7693 H   0  0  0  0  0  0  0  0  0  0  0  0
    3.3409    2.8866  -20.4099 H   0  0  0  0  0  0  0  0  0  0  0  0
    2.1373    3.7525  -18.4201 H   0  0  0  0  0  0  0  0  0  0  0  0
    3.1022    4.0937  -17.0012 H   0  0  0  0  0  0  0  0  0  0  0  0
  1  2  1  0  0  0  0
  1  5  2  0  0  0  0
  2  6  2  0  0  0  0
  3  4  2  0  0  0  0
  3  6  1  0  0  0  0
  4  5  1  0  0  0  0
  4 15  1  0  0  0  0
  5 20  1  0  0  0  0
  6 23  1  0  0  0  0
  7 18  2  0  0  0  0
  7 19  1  0  0  0  0
  7 21  1  0  0  0  0
  8  9  1  0  0  0  0
  8 10  1  0  0  0  0
  9 11  1  0  0  0  0
 10 17  1  0  0  0  0
 11 17  1  0  0  0  0
 12 15  1  0  0  0  0
 12 21  1  0  0  0  0
 13 16  1  0  0  0  0
 13 22  1  0  0  0  0
 14 16  1  0  0  0  0
 14 22  1  0  0  0  0
 15 16  1  0  0  0  0
 15 18  1  0  0  0  0
 16 17  1  0  0  0  0
 17 20  1  0  0  0  0
  1 24  1  0  0  0  0
  2 25  1  0  0  0  0
  3 26  1  0  0  0  0
  8 27  1  0  0  0  0
  8 28  1  0  0  0  0
  9 29  1  0  0  0  0
  9 30  1  0  0  0  0
 10 31  1  0  0  0  0
 10 32  1  0  0  0  0
 11 33  1  0  0  0  0
 11 34  1  0  0  0  0
 12 35  1  0  0  0  0
 12 36  1  0  0  0  0
 13 37  1  0  0  0  0
 13 38  1  0  0  0  0
 14 39  1  0  0  0  0
 14 40  1  0  0  0  0
 18 41  1  0  0  0  0
 19 42  1  0  0  0  0
 19 43  1  0  0  0  0
M  CHG  1  18   1
M  END
> <OMEGA_C>
taXrQIL+gkAr/7nB1GThQJMxrkDUHbnBwAi5QOLWnkAsHqnBhqPCQEfpZUAB7KnBOMTcQLMyS0Be
Z7LB8zDIQLYnvEDLpbDBDjmEQFjiV0AE2pTBxr8WQWj7mj7TeqnBs50MQQDsFL+LA7LBT0QEQbKw
fz96t6PB+PjoQGiF6b6AabDBZazHQDjUMEA/wJbB8BqkQACaKz1lBJ/BuOOQQH31OD/i0K3Bywmy
QMhtJkCnv6HBGka2QHyYlT8AT6bBhaDiQMDlcT/nhavBJviFQJuZO0BO0p7BKA1DQOMfcUAwto/B
VjXpQOrF8D/RHrTBZuWpQNDeW0COx4/BOLqKQDyw/L4ytafB9l26QN7L9kC4U6/BO5D/QFeicEB1
nMDBB2rtQMaAxEDUEb/BZ22lQP5WqkAOh6LBkm4gQRgtj74c3KPBB1ohQZX7hD/fO63ByyYRQXA8
Zb7x/LnBkOgRQQSgz7+pX7HBXqkAQXA16D4DVJzBzA8JQUIHAUD2k6HBVoTYQPCiFb9OE7jB5Fve
QNhXoL/eBavBUR3PQOg+5z+h7ZLB6BPlQNPbVkAmB5fB9xe7QAT8L7/88pvBq1+PQLSPtT5HaZjB
zChnQG3aqD+31a3BcQ2ZQC6lAj+EJ7bBDNJVQEa+OEByR6PBZMkIQGoocEBOXJPBG4pGQHj/gkBo
AojBVInqQPXSWkA4/LzBygfkQOFUmUA73r3Bef+9QKKMmEDVEq3BktHDQCIiWECJFKzBNvHaQIvn
LUAjHLTBvN/NQOTyrkDN4rXB3JWJQFKpcUAccJbBk9oSQei6EL60KqjBBbcGQajZkL/wKa/BX/kB
QQT4Qz9kF6PBVBDeQMwmV7/SS63BXrrKQLTAPECLHpjBen+eQCytUD4qMZzBLAOKQHDIHT9IgqvB
43GyQGiwJ0BKhKLBVvixQHW6jT9HFqXBpm3cQGSwJz/yVqrBYBCIQMA+SEBNqp/B1lRSQEPAi0C0
lZHBYpjjQKQosD/uJbTB9lCwQAildUAP5JHB9AGCQBui3b6axaPBsynFQKWk6kAl9rbBPhf8QCd2
OUA/O8PBZIzwQG4vqkBqzMTBMdCsQM7+qUCq46bB8VMcQeBNJr/ABaLBkPcdQehc4z7hEq3B2NkK
QYTeeL9el7fBU7IKQfrUCsALNq3BlOr8QMglzz56AJvB0ksIQQck5D9XeKLB5rrLQPJYir/ZgbTB
XpHSQMx+vb9kzKbBU3TQQORwBEA+HpPBMnvpQLZ7XEC4fJnBGiG0QK4iA7/KZJjBZROMQBDkND/v
6pXBXcdcQFpHpD8rEKzBA9KPQOAdWD6JgbPBbyVYQBhNREC2u6PB+7cWQLZui0CN4JTBhcJaQBj+
mkAEd4rBiYn3QAREkkDZubjBFiDpQAtcvEDVN7jBJFq9QN7cqUDzAanBgSjLQGMPfkAcc6nBFAfp
QDq9Z0BPVrHBeR/MQBU1yEDjU7DBURuHQNTtZUC2ppXBvVsfQedugD93fqbBzPUXQZBqYz1bSq/B
fBILQV47zD+WkKHBZyP/QLBoLz1Aqa7BpnPMQLVjS0CBI5bBScKzQMwEtz4Evp7BNm2jQDjqdj/Z
9K3BgPi6QORQPEDcgaHBaNPEQLEhwz+fyqXBcSzzQBxUtj8yFqrBzlKNQFpwSUDof5/BSbxDQBf7
eEDSQpHBFbf5QDB5F0B4pLLBJLKqQNcxcUBA3I/BvOqeQHYDhL691qfB6Jy4QCmuAEHZgq/BBDMH
QYhCiUCG4r7BY+v0QFJ900BYAL7B67qmQFO3s0Ct3qLBUuwoQQJx+D4qcKDBp2cpQWWd5T+36KnB
qjYdQTod3D63GrfBVaIeQUr4cr+QUK7BORwHQeYJhT9YRprBCAAOQXzaKEC2Xp/BzKHxQAjFD760
m7bBQjb1QEmGRr9iZqnBSGrVQKsSEEAkEJLBofznQHGsdkCX6JXBKbvLQOAumb72I5vB/CacQL6c
HT/zmpjByZeEQCqpvD+PoK7BT9GuQOixRD+hFLbBAgtoQOVMQUCJeKTBUlMMQMtkckB/eJXBPFxA
QDBLh0D2lonBYN36QAaZV0AXz7zBfiP0QJOtl0DGtr3BCpzMQNiJlkBeI63B+KTSQIQuVEBvIKzB
MKHqQPRcKkDvB7TBAh/dQNYYrUAC2rXB+mOWQIGpbEBQ0JbBlHYaQawyO74Ys6fBYcAOQQuolr+B
167Bk0IJQfZDNz9gzqLB/OrtQOJwZb8FPa3BGtnXQAyqOEDrIpjBmJmsQOZqBj5XfJzBsGiZQODO
Cj/l6KvBlJTAQOJjI0Deq6LBXKvAQJUuhT9mQqXBLrDrQNopGT+3RqrButeVQFBVQ0DRDaDBatNq
QFIAiUBiI5LBBJTzQElRqT/QCLTB/q+8QBwfcUCODJLBovCQQPyUAr8NO6TBhBnUQJS86EDj9LbB
rYsGQWiMNkDK9cLBtJQAQTioqEAPkcTBwMC6QKjUp0DsC6fBvLYjQQArML+VdKHB5LolQdoB0T5b
eazBlT8TQb/Rgb8KOLfBD8ISQbSlDcAF26zBomsFQY85tD4Vw5rB1nAPQfEd3j9uGqLBnkrcQCXT
kb+ljbTBAPvhQGQaxb9J0KbB0FDdQL9fAEAJHZPBbJv2QH7UWEBcU5nBXArCQKSwFL/vkpjB4oGZ
QE4GIT+9T5bB4GR7QBsMmj/LnKzBSAagQMD7Dj5U4LPBn3p0QOANP0B5R6TBttMvQIt/iEAEmZXB
o8JxQNc6mEDR/YrB8iADQel7nkASabTBNQz8QN+XyEA51bHBsknKQI/wrkAUi6TBgs3TQIAghECe
GqfBg6HyQHLoeEBkBa/B8CXeQCbV0EB13anBN0GJQGJUX0CbTJXBYAQeQQ1GQj9B36fBv3AWQQCi
9T2xRLLBpB4KQQjWrD9TjqLB3ED8QCCuhz46SrLBut3MQCCNNkC3nZXBZs2tQBZk2T7BK6PBCgWk
QOT9uz+OK7HBgBm+QOzXPkA2VKHB8pDEQMwq1z/D0qfBxn3zQAbqwz8EmqvBKuGQQPamUkCal5/B
/vNHQGYCc0A/+ZDBsof/QENPKUAGPrLBEm+rQLOBWECj5o7Bcs+ZQIhdDT4ZXa3BVE7QQHjyBEGl
PabBuusOQS9DmEArnbrBb+MFQV6J4kDKFLbBYAizQJL5tUDRT57BmsglQaBG8zzmnaLBncIpQTKl
xT8Dl6nBKmcdQa1RJj/kHLnB6kwbQbvMbb+i4LLB8TgEQaz7JT+ygJzB/2EOQbNAEkAhjJ7BRZjw
QPYnrz6ehrrBEjnuQIetIb8Osa7BnJPRQK4w6D+IH5PBaEzqQHrvWUCw4ZPBE2rCQJbxyL6KfKDB
BmmVQFWFGT/CCZ3BxkOHQBXQBUDoVbHBGROxQPB8uT+zSbnBDqZxQB3NWEBG+qTBecgSQKrxeUDW
mpXBs0ZCQKSYe0Cd7ojBdK8BQWJcjEA/WbPBuN/2QB0Qt0Cf2rPB6gTBQMpFqUBNdqbBNtfMQLq9
e0DF6KXB0dTuQDkHYEDlWqzB78TVQPSRxUBzYK3B7M94QNm6cECVDJXB+B8cQa9ZVz98Vp3Bdu8W
QVC5DL7ZT6bBQP8GQey8wT+EUprBDFz9QMDiqr2SrafB/m7AQMlUUECAkZLBdUapQNDL1z4+KZvB
AO6jQGh9dT+1BKvBoCu2QMtzPkDzaZ7B2nPAQEnowj/YyKHBIcHwQGA9qz+EGKTBgzKIQFATUEDO
XJ7B3qcqQHs8hEDfVZLBNi7+QNoMDkD6j6zBRwacQKE2e0C+8Y3BQqWZQPB4YL6KyKTB1sbEQBuS
/0Bz763BprgOQQFFgUDSZbjBtqwDQXiSzECvTbnB6TynQCoytUC2bqHB5jIjQRSGqz49bJbBz70n
QbfEyj+4IqDBeuweQTD1ND55tK3B7GscQYpmk790fKTBU08AQR97gT9USJPBkvsJQWrRI0BFQJjB
c+P0QCBal75MAbDBAuruQLw8W7/6oqLBdDTFQLLsFUDx443BdHncQLxXeUDNbpHBrJC9QKB7eb53
bJbBZnKOQO7oPj8YKJbB8sGGQLdowD+AGa3BORi0QMxfMz/9f7LBTohkQPYrSEBRQaTBGkzyPxZN
gUBFlZfBUHoeQB6IkEAD84rBV/MCQT4pf0CMK7LBIlr7QO27qkD4XrHBA+fGQO9bmUA+5KPBW8DQ
QEoJW0Dep6TBiBfxQIthQkAfyqvBXe7bQPint0CBMqrBxKmCQD/nR0CtOpPBbkscQaC7uD25+J/B
0LkVQZYbPr+coqnBk+0HQZSYRT/Y8pvBSuj6QDQFG78KcarBoSzGQOK9H0BK6pHBUY6pQJQBK740
spzBnLWiQIM+GD+s6qvB5Me5QGBtGUBX0Z3BD2DBQHrmfD8hjKLBLvrwQCi6RT92gaXBFk+MQDvJ
LkBlDJ3BTTY5QKBgYECuzY/B5Hb+QOq83z9wR63BQoKjQMhJSUB+W4zBrpaXQMT0Jb8Ap6bBVJrN
QLI28kAX/KjBy1UPQZRsa0BKwrfBQgEGQc7RwUASXbbBnXWuQM8MpEBhTZ7BVnsjQbIMB78DspnB
NT4oQYYAVj+3VqLBSGUdQWyjsr763bDBaJMaQfMO5b9706jB+2MBQTi7RT5pQpXB5tcLQbgH4z8D
CZnB0+rwQKRcML8/z7LBwBDsQFFHtr+69qXBwkDKQHxZwj/BHo7BsErjQHkQRUAChJDBWIG9QECa
a78fyZjB2/2PQGh79z3UKZfBsxmGQK71mT8NNK3BxF2xQPCW1z6svbPB7L1qQOAOLkAJyKLBG/wF
QEhVYUC31pTBTF0wQBG5ckBbEYjBYN36QK58bUCUU7zBfiP0QGefokBDO73BCpzMQKx7oUDcp6zB
+KTSQCwSakDspKvBMKHqQJxAQEBsjLPBAh/dQKoKuEB/XrXB+mOWQJRGgUDOVJbBlHYaQdQHIz6V
N6fBYcAOQXbBVb/+W67Bk0IJQUtphz/cUqLB/OrtQELiDb+DwazBGtnXQLSNTkBop5fBl5msQLNS
8j7VAJzBsGiZQIBdYj9ibavBlJTAQIpHOUBcMKLBXKvAQOX1sD/jxqTBLrDrQHq4cD81y6nButeV
QPg4WUBPkp/BatNqQCbyk0Dfp5HBBJTzQJkY1T9OjbPB/q+8QGKBg0AKkZHBovCQQHAZLL6Kv6PB
hBnUQGiu80BgebbBrYsGQRBwTEBIesLBs5QAQQyas0CMFcTBwMC6QHzGskBqkKbBvLYjQcA4sb4R
+aDB5LolQY0PQD/Y/avBlT8TQd4ULL+HvLbBD8ISQRiE77+CX6zBomsFQWirMT+SR5rB1nAPQaDy
BEDqnqHBnkrcQKoXTL8jErTBAPvhQBRTmb/HVKbB0FDdQGdDFkCGoZLBbJv2QCa4bkDa15jBXArC
QBKIdL5sF5jB4oGZQO6UeD871JXB4GR7QGvTxT9HIazBSAagQCCb9j7RZLPBnXp0QIjxVED3y6PB
ttMvQF9xk0CBHZXBo8JxQKsso0BPgorB

> <OMEGA_E>
HGc0wcOHGsHYWUDBVbIdweRiQ8GWgjHBr0InwRlxHcE=

> <OMEGA_NBR>
     30196

$$$$
288426
  -OEChem-04172616093D

 47 51  0     1  0  0  0  0  0999 V2000
    6.0800   -1.5524  -21.4551 C   0  0  0  0  0  0  0  0  0  0  0  0
    6.4194   -0.5855  -22.4104 C   0  0  0  0  0  0  0  0  0  0  0  0
    4.0728   -4.1061  -17.4861 C   0  0  0  0  0  0  0  0  0  0  0  0
    5.4052   -4.1966  -17.9365 C   0  0  0  0  0  0  0  0  0  0  0  0
    5.3682    0.2126  -19.9316 C   0  0  0  0  0  0  0  0  0  0  0  0
    3.7749   -2.0699  -18.7857 C   0  0  0  0  0  0  0  0  0  0  0  0
    5.5488   -1.1557  -20.2164 C   0  0  0  0  0  0  0  0  0  0  0  0
    5.0930   -2.1658  -19.2548 C   0  0  0  0  0  0  0  0  0  0  0  0
    5.7641    1.2026  -20.8609 C   0  0  0  0  0  0  0  0  0  0  0  0
    6.2536    0.7843  -22.1358 C   0  0  0  0  0  0  0  0  0  0  0  0
    3.2401   -3.0566  -17.9287 C   0  0  0  0  0  0  0  0  0  0  0  0
    5.9143   -3.2403  -18.8382 C   0  0  0  0  0  0  0  0  0  0  0  0
    4.0279    3.0879  -18.9590 C   0  0  0  0  0  0  0  0  0  0  0  0
    6.2921    2.9545  -19.0978 C   0  0  0  0  0  0  0  0  0  0  0  0
    6.0862    3.0052  -23.0135 C   0  0  0  0  0  0  0  0  0  0  0  0
    6.4025    5.0988  -21.5162 C   0  0  0  0  0  0  0  0  0  0  0  0
    7.9735    3.7163  -21.4421 C   0  0  0  0  0  0  0  0  0  0  0  0
    5.6987    2.6975  -20.4816 C   0  0  1  0  0  0  0  0  0  0  0  0
    6.4089    3.5257  -21.6150 C   0  0  0  0  0  0  0  0  0  0  0  0
    1.0140   -2.1739  -18.2575 C   0  0  0  0  0  0  0  0  0  0  0  0
    4.2965    3.1184  -20.2559 N   0  3  0  0  0  0  0  0  0  0  0  0
    2.7711    3.2146  -18.3868 N   0  0  0  0  0  0  0  0  0  0  0  0
    6.6059    1.6687  -23.1409 O   0  0  0  0  0  0  0  0  0  0  0  0
    5.1718    2.8740  -18.2206 O   0  0  0  0  0  0  0  0  0  0  0  0
    7.7954    5.0995  -21.3723 O   0  0  0  0  0  0  0  0  0  0  0  0
    1.9141   -3.0477  -17.5249 O   0  0  0  0  0  0  0  0  0  0  0  0
    7.1926   -3.3493  -19.2724 F   0  0  0  0  0  0  0  0  0  0  0  0
    6.2265   -2.6006  -21.6704 H   0  0  0  0  0  0  0  0  0  0  0  0
    6.8123   -0.8949  -23.3677 H   0  0  0  0  0  0  0  0  0  0  0  0
    3.6870   -4.8441  -16.7984 H   0  0  0  0  0  0  0  0  0  0  0  0
    6.0376   -5.0005  -17.5900 H   0  0  0  0  0  0  0  0  0  0  0  0
    4.9227    0.5086  -18.9934 H   0  0  0  0  0  0  0  0  0  0  0  0
    3.1619   -1.2320  -19.0833 H   0  0  0  0  0  0  0  0  0  0  0  0
    7.0415    2.1898  -18.8458 H   0  0  0  0  0  0  0  0  0  0  0  0
    6.7549    3.9513  -19.0501 H   0  0  0  0  0  0  0  0  0  0  0  0
    4.9963    2.9940  -23.1618 H   0  0  0  0  0  0  0  0  0  0  0  0
    6.5521    3.6567  -23.7674 H   0  0  0  0  0  0  0  0  0  0  0  0
    6.0455    5.6038  -22.4258 H   0  0  0  0  0  0  0  0  0  0  0  0
    5.8613    5.4911  -20.6426 H   0  0  0  0  0  0  0  0  0  0  0  0
    8.3819    3.2690  -20.5239 H   0  0  0  0  0  0  0  0  0  0  0  0
    8.5652    3.3825  -22.3072 H   0  0  0  0  0  0  0  0  0  0  0  0
   -0.0006   -2.2595  -17.8413 H   0  0  0  0  0  0  0  0  0  0  0  0
    1.3600   -1.1335  -18.1687 H   0  0  0  0  0  0  0  0  0  0  0  0
    1.0011   -2.4668  -19.3178 H   0  0  0  0  0  0  0  0  0  0  0  0
    3.6517    3.3847  -20.9724 H   0  0  0  0  0  0  0  0  0  0  0  0
    2.6648    3.1515  -17.3945 H   0  0  0  0  0  0  0  0  0  0  0  0
    1.9711    3.3691  -18.9665 H   0  0  0  0  0  0  0  0  0  0  0  0
  1  2  2  0  0  0  0
  1  7  1  0  0  0  0
  2 10  1  0  0  0  0
  3  4  2  0  0  0  0
  3 11  1  0  0  0  0
  4 12  1  0  0  0  0
  5  7  2  0  0  0  0
  5  9  1  0  0  0  0
  6  8  1  0  0  0  0
  6 11  2  0  0  0  0
  7  8  1  0  0  0  0
  8 12  2  0  0  0  0
  9 10  2  0  0  0  0
  9 18  1  0  0  0  0
 10 23  1  0  0  0  0
 11 26  1  0  0  0  0
 12 27  1  0  0  0  0
 13 21  2  0  0  0  0
 13 22  1  0  0  0  0
 13 24  1  0  0  0  0
 14 18  1  0  0  0  0
 14 24  1  0  0  0  0
 15 19  1  0  0  0  0
 15 23  1  0  0  0  0
 16 19  1  0  0  0  0
 16 25  1  0  0  0  0
 17 19  1  0  0  0  0
 17 25  1  0  0  0  0
 18 19  1  0  0  0  0
 18 21  1  0  0  0  0
 20 26  1  0  0  0  0
  1 28  1  0  0  0  0
  2 29  1  0  0  0  0
  3 30  1  0  0  0  0
  4 31  1  0  0  0  0
  5 32  1  0  0  0  0
  6 33  1  0  0  0  0
 14 34  1  0  0  0  0
 14 35  1  0  0  0  0
 15 36  1  0  0  0  0
 15 37  1  0  0  0  0
 16 38  1  0  0  0  0
 16 39  1  0  0  0  0
 17 40  1  0  0  0  0
 17 41  1  0  0  0  0
 20 42  1  0  0  0  0
 20 43  1  0  0  0  0
 20 44  1  0  0  0  0
 21 45  1  0  0  0  0
 22 46  1  0  0  0  0
 22 47  1  0  0  0  0
M  CHG  1  21   1
M  END
> <OMEGA_C>
k4/CQEO1xr8RpKvBl2vNQD7lFb+ZSLPBCFSCQPRkg8CA44vBGPesQDBKhsAKfo/BkcirQOHAWT7r
c5/BUJhxQJ15BMArSZbBj4+xQMruk78/u6HBDfqiQLebCsDjCZrBoXO4QGPumT8G46bB1h3IQA3L
SD8fFrHBmV1PQHGfQ8ACbo/BDEK9QG9hT8CltJbBqeSAQCigRUAKrJfBnVjJQAMXPUBZyJjBNsLC
QHtUQEC3G7jBleHMQIcpo0AmIazBuCb/QFbYbUBfiavBdFu2QO2jLEA62qPB2BXNQKCkYUBv66zB
fsmBP1ghC8BxD5LB63yJQGOUR0ASDKLB/1kxQFa8TUA0GJPBtWPTQJCZ1T+SILnBon+lQD/wN0Dg
w5HBp3P5QLUuo0B/+qrBJQD1PyANQ8DtMozBpinmQHZaVsDHLZrBaD/HQHFvJsDvXK3BW/7ZQPcZ
Zb8B8brBjPhrQK8Cm8AGY4bBpTPBQGUEoMBPuIzBYoadQNUyAj9r8pfB/FxKQICynb+PqpjB5VPh
QEslDEA0xJbBhCjYQGfhfECgZpjBseGfQCSdP0BSS7nB/qrRQOgHakC2I77BYHTBQFhSs0AjaLPB
zI+7QAO3r0AAJKXBbhwGQdo2UUD4MKTB5AoJQR97WEAxdbLB6cYjuiWcEMDquo7BlxSuP+oXkb+H
WZHBQiOAP9nfHcDDiprBErZpQD+fWEB3x6fB0IwqQMmxSUDpJ4vBb0z8PxOgV0B0u5fBE0i2QHxy
wr/+iKzB94THQOtcEr/keLPBG7aOQEkgiMABXozB3p+3QIxxgcC9oZDBwlyiQOYGdz6m9p/B9uhm
QGzfFMAcR5bB3ZqkQDInj79ttqLBZ2ucQORdCcCZvZrB0MS0QCscmz/GzqbBHr3GQAuCST+pxLDB
BnlYQOz6WMCgGI/BH52+QFCSP8Dex5fBLDaBQD5FS0ALl5fBbBLJQJqfNED07pfB6TrKQIYkQUAW
QrfBX/jVQF5KoUD6rqrBa0ECQWyBYkBkpanB1GS3QF3OK0AnSKPBKofSQEiFXkA1z6vBGAb1Pyce
k8DvNYPBqOWLQCVGT0B71KHBtb8wQI14VkB1fpPBHx/YQKv30z+aKLjBlPSjQLVONkCRUpHBpgoB
QXzBnUD17qjBE40GQPogY8DdDYvBsJfmQAPXMsDRrZvBS4G2QIIcJMBitq7B/YfVQMPLYr+q9brB
t0uJQC6EosCO9IbB2rfRQMhElsDsZY7BqaqSQJ6cCz8YqZjB2m0zQGWc079aV5jBgJHdQO1++z+Y
5pXB9HvbQOw9cEB7FpfB1tmnQNiWRUBXELnBEkbcQG+IaUAy4bzBJHPNQBjzskDs/bHByx7EQGGA
rkAT26PBbk0HQcrlQkDkMqLBwBwMQQUwS0AaVLDBrYxcP8jFk8DzqYDBbp8LQKwnssDBxIbBLKYj
QIntjMBlenjBdtpyQIGlZkBTrKfBgy0mQMNZT0B7p4vBwmUAQOerZUD0YJjBaK25QP5Iy7/3cqzB
93HGQExaFb9dlLPB70yAQOVLiMA5vovBhjdyQNlRjsCmwJbB+2yqQCaq1D3j8p7BBhijQCp3CMCf
gY/Bl4mqQIN0oL+jJKLBJ96bQP2cE8A0l5rBvGu5QHRVjz+e26XB8dLFQCqtRD/Ve7DBJh6VQIFe
RsCp/4fBAoGGQCiOXsB4MJ7B+KCBQGzfTkC6eZfBPv3IQBvTL0B4dZbBG4PIQGQWRUAn37XBYCfY
QFsvn0DSCajBJksDQWmzXUDCaKjBxf25QLaUJUDIGaLB9HrUQDsrW0BfR6rBBlyvQNIr4L85cnLB
8/GNQJ3cRkC8haHBb+cxQCREZ0A9RpTB0qvSQKY82T/vErjB4jeiQKUrOkDMfpDBsSQCQR7emkDB
X6bBTgCbQMjaPcBZCnrBBVx6QPsQa8B6qKjBy2u7QDv1J8CR2K7BR9/QQJSSWb9JibvBv5BrQGVP
oMD/HIbBy2lSQLnyqsBgg5nBVbCeQHxmvD4QGpfBzIWzQKzAn785uYzBbHzaQN8y7T97yZPBRJzd
QM53aECompXBewSmQAt/T0DaC7fBbpraQPeGbkDhXLvBGrbPQJxns0Dv7K7BoVrGQCX+qUCH8aDB
YcAIQdZtN0C6i6HBOckMQavxTEByhK/BIOexQJsw5L895mDBz4nPQGid1b/zdHnBLhKcQF2SYb8i
O3fB0b13QJ1hVUCl3qfBBaQjQHGqakC2fIzBVHkFQCp3dUCJwJnB

> <OMEGA_E>
4vU6P5AePz+ixmE/

> <OMEGA_NBR>
     34739

$$$$
288438
  -OEChem-04172616093D

 58 62  0     1  0  0  0  0  0999 V2000
    5.7420   -1.4593  -21.8487 C   0  0  0  0  0  0  0  0  0  0  0  0
    6.3062   -0.3875  -22.5620 C   0  0  0  0  0  0  0  0  0  0  0  0
    5.1375    0.0684  -20.0563 C   0  0  0  0  0  0  0  0  0  0  0  0
    5.7492    1.1476  -20.7271 C   0  0  0  0  0  0  0  0  0  0  0  0
    5.1708   -1.2409  -20.5802 C   0  0  0  0  0  0  0  0  0  0  0  0
    6.3192    0.9170  -22.0241 C   0  0  0  0  0  0  0  0  0  0  0  0
    4.7855    2.7102  -17.9690 C   0  0  0  0  0  0  0  0  0  0  0  0
    6.6108    4.4730  -24.0209 C   0  0  0  0  0  0  0  0  0  0  0  0
    5.6625    4.0946  -22.8540 C   0  0  0  0  0  0  0  0  0  0  0  0
    7.7968    4.2927  -23.0328 C   0  0  0  0  0  0  0  0  0  0  0  0
    4.3044    3.1511  -20.1577 C   0  0  0  0  0  0  0  0  0  0  0  0
    8.2850    3.1811  -20.3540 C   0  0  0  0  0  0  0  0  0  0  0  0
    7.0639    4.9056  -20.2345 C   0  0  0  0  0  0  0  0  0  0  0  0
    5.7009    2.5448  -20.0720 C   0  0  2  0  0  0  0  0  0  0  0  0
    6.7604    3.4312  -20.7445 C   0  0  0  0  0  0  0  0  0  0  0  0
    6.8624    3.2584  -22.3362 C   0  0  0  0  0  0  0  0  0  0  0  0
    6.2181   -2.5247  -16.3301 C   0  0  0  0  0  0  0  0  0  0  0  0
    2.0408   -2.8779  -18.0161 C   0  0  0  0  0  0  0  0  0  0  0  0
    4.4550   -2.3834  -19.8729 C   0  0  0  0  0  0  0  0  0  0  0  0
    6.0021   -2.6905  -17.8520 C   0  0  0  0  0  0  0  0  0  0  0  0
    3.4936   -3.2906  -17.6717 C   0  0  0  0  0  0  0  0  0  0  0  0
    4.5491   -2.3386  -18.3055 C   0  0  0  0  0  0  0  0  0  0  0  0
    5.9162    2.4845  -18.6110 N   0  3  0  0  0  0  0  0  0  0  0  0
    4.6276    2.6437  -16.5940 N   0  0  0  0  0  0  0  0  0  0  0  0
    6.9128    1.8964  -22.8173 O   0  0  0  0  0  0  0  0  0  0  0  0
    3.7562    2.9664  -18.8499 O   0  0  0  0  0  0  0  0  0  0  0  0
    8.4064    4.5411  -20.0000 O   0  0  0  0  0  0  0  0  0  0  0  0
    5.7466   -2.4520  -22.2742 H   0  0  0  0  0  0  0  0  0  0  0  0
    6.7364   -0.5652  -23.5365 H   0  0  0  0  0  0  0  0  0  0  0  0
    4.6315    0.2486  -19.1193 H   0  0  0  0  0  0  0  0  0  0  0  0
    6.6050    3.7658  -24.8634 H   0  0  0  0  0  0  0  0  0  0  0  0
    6.4830    5.4973  -24.4010 H   0  0  0  0  0  0  0  0  0  0  0  0
    5.3593    4.9304  -22.2063 H   0  0  0  0  0  0  0  0  0  0  0  0
    4.7745    3.5124  -23.1413 H   0  0  0  0  0  0  0  0  0  0  0  0
    8.7152    3.8758  -23.4717 H   0  0  0  0  0  0  0  0  0  0  0  0
    8.0472    5.1795  -22.4321 H   0  0  0  0  0  0  0  0  0  0  0  0
    4.3590    4.2205  -20.4095 H   0  0  0  0  0  0  0  0  0  0  0  0
    3.6981    2.6275  -20.9115 H   0  0  0  0  0  0  0  0  0  0  0  0
    8.4269    2.4828  -19.5160 H   0  0  0  0  0  0  0  0  0  0  0  0
    8.9221    2.8762  -21.1973 H   0  0  0  0  0  0  0  0  0  0  0  0
    6.9361    5.6828  -21.0025 H   0  0  0  0  0  0  0  0  0  0  0  0
    6.5101    5.1913  -19.3280 H   0  0  0  0  0  0  0  0  0  0  0  0
    7.2558   -2.7865  -16.0759 H   0  0  0  0  0  0  0  0  0  0  0  0
    6.0227   -1.4808  -16.0437 H   0  0  0  0  0  0  0  0  0  0  0  0
    5.5291   -3.1889  -15.7876 H   0  0  0  0  0  0  0  0  0  0  0  0
    1.3380   -3.5809  -17.5452 H   0  0  0  0  0  0  0  0  0  0  0  0
    1.8496   -1.8618  -17.6406 H   0  0  0  0  0  0  0  0  0  0  0  0
    1.9031   -2.8975  -19.1072 H   0  0  0  0  0  0  0  0  0  0  0  0
    3.3922   -2.3501  -20.1546 H   0  0  0  0  0  0  0  0  0  0  0  0
    4.8960   -3.3307  -20.2168 H   0  0  0  0  0  0  0  0  0  0  0  0
    6.7039   -2.0279  -18.3797 H   0  0  0  0  0  0  0  0  0  0  0  0
    6.2103   -3.7359  -18.1236 H   0  0  0  0  0  0  0  0  0  0  0  0
    3.6152   -3.2745  -16.5785 H   0  0  0  0  0  0  0  0  0  0  0  0
    3.6687   -4.3103  -18.0452 H   0  0  0  0  0  0  0  0  0  0  0  0
    4.3269   -1.3118  -17.9794 H   0  0  0  0  0  0  0  0  0  0  0  0
    6.7948    2.2989  -18.1710 H   0  0  0  0  0  0  0  0  0  0  0  0
    3.7253    2.7855  -16.1869 H   0  0  0  0  0  0  0  0  0  0  0  0
    5.4159    2.4538  -16.0088 H   0  0  0  0  0  0  0  0  0  0  0  0
  1  2  2  0  0  0  0
  1  5  1  0  0  0  0
  2  6  1  0  0  0  0
  3  4  1  0  0  0  0
  3  5  2  0  0  0  0
  4  6  2  0  0  0  0
  4 14  1  0  0  0  0
  5 19  1  0  0  0  0
  6 25  1  0  0  0  0
  7 23  2  0  0  0  0
  7 24  1  0  0  0  0
  7 26  1  0  0  0  0
  8  9  1  0  0  0  0
  8 10  1  0  0  0  0
  9 16  1  0  0  0  0
 10 16  1  0  0  0  0
 11 14  1  0  0  0  0
 11 26  1  0  0  0  0
 12 15  1  0  0  0  0
 12 27  1  0  0  0  0
 13 15  1  0  0  0  0
 13 27  1  0  0  0  0
 14 15  1  0  0  0  0
 14 23  1  0  0  0  0
 15 16  1  0  0  0  0
 16 25  1  0  0  0  0
 17 20  1  0  0  0  0
 18 21  1  0  0  0  0
 19 22  1  0  0  0  0
 20 22  1  0  0  0  0
 21 22  1  0  0  0  0
  1 28  1  0  0  0  0
  2 29  1  0  0  0  0
  3 30  1  0  0  0  0
  8 31  1  0  0  0  0
  8 32  1  0  0  0  0
  9 33  1  0  0  0  0
  9 34  1  0  0  0  0
 10 35  1  0  0  0  0
 10 36  1  0  0  0  0
 11 37  1  0  0  0  0
 11 38  1  0  0  0  0
 12 39  1  0  0  0  0
 12 40  1  0  0  0  0
 13 41  1  0  0  0  0
 13 42  1  0  0  0  0
 17 43  1  0  0  0  0
 17 44  1  0  0  0  0
 17 45  1  0  0  0  0
 18 46  1  0  0  0  0
 18 47  1  0  0  0  0
 18 48  1  0  0  0  0
 19 49  1  0  0  0  0
 19 50  1  0  0  0  0
 20 51  1  0  0  0  0
 20 52  1  0  0  0  0
 21 53  1  0  0  0  0
 21 54  1  0  0  0  0
 22 55  1  0  0  0  0
 23 56  1  0  0  0  0
 24 57  1  0  0  0  0
 24 58  1  0  0  0  0
M  CHG  1  23   1
M  END
> <OMEGA_C>
er63QP3Kur8cyq7Bx8zJQIxpxr7hfrTBJWakQAAMjD1Rc6DBY/m3QHfjkj8S0aXBFnelQLzUnr9M
pKTBHzfKQLTAaj9YMbDBGiOZQLZ0LUCcwI/BbIvTQNEij0DEKsDBezO1QMgGg0Dl1LbBD3/5QN1d
iUA+Q7jBXb2JQCysSUAJQ6HBMY8EQbqWS0D11KLBRwviQAX7nEBF4KHB7G22QGbdIkCGk6DB4lTY
QM6YW0Cm9KXBoJjbQBKJUEB0sLLBgPrGQG6VIcARpILBkJwCQFwvOMDkIJDBio+OQB6KGMCw+57B
/RDAQBAxLMD00I7B2pZfQLiYUsCUX43BcJKRQKarFcCfcZLBuFG9QMICH0BP45TBbRWUQAIyKUCa
wITB0jXdQDe88j/GibbBT2ZwQDzZPUCFzJbBgIAGQVpQkUD3/5/B7eO3QNTsHMCLMbLBtZDXQE2v
EL/PSrzBcDWUQKqPfj5f9JjBYVzTQB0DcUBE6MbBEHXPQMjpr0BUNcPBBX+rQNDFnUCLprHB68iY
QOfLYEBdIbnBenELQQoNeEAixrvBfMEAQTu+pUDjdLPB13yLQKEOh0CxRqPBpa1sQGQoKEDQSqfB
o9QGQbPlHkDDIJzBxcAOQaATOEAHlKnBRfTdQDvZtUAGBajBvFLQQGofpkDLn5rBai/oQCRWMsBg
m4DBA7rAQAyLvb+JWYDBd+6wQE4WTMAvmnzBLUKrPx4uZcCJXIzBMsDsPw9P7r/rH43B9ZfzPzhx
OcCZ25jBJRpZQDxoFsCSPKHB2KucQNUpVcAIvKHBHobWQH7IAcCMCZPBkrrGQEYZb8Aa/ZDBFGBn
QBuSUcDXoITB9stqQObticCFXJDBWHaKQIfpp7/C1Y/BOm/ZQMUhE0ArXpHBomtuQEZGMkDYfoHB
aE+tQJkKHUAVEoDB

> <OMEGA_E>
EmOLPw==

> <OMEGA_NBR>
     36002

$$$$
288465
  -OEChem-04172616093D

 48 52  0     1  0  0  0  0  0999 V2000
    2.9263   -3.0643  -18.0020 C   0  0  0  0  0  0  0  0  0  0  0  0
    3.4202   -2.1015  -18.8942 C   0  0  0  0  0  0  0  0  0  0  0  0
    5.7359   -1.6144  -21.5697 C   0  0  0  0  0  0  0  0  0  0  0  0
    6.2554   -0.6488  -22.4463 C   0  0  0  0  0  0  0  0  0  0  0  0
    5.3086    0.1246  -19.9197 C   0  0  0  0  0  0  0  0  0  0  0  0
    3.7686   -4.1165  -17.5877 C   0  0  0  0  0  0  0  0  0  0  0  0
    5.2798   -1.2298  -20.2958 C   0  0  0  0  0  0  0  0  0  0  0  0
    4.7394   -2.2308  -19.3656 C   0  0  0  0  0  0  0  0  0  0  0  0
    5.8136    1.1130  -20.8005 C   0  0  0  0  0  0  0  0  0  0  0  0
    6.3336    0.7031  -22.0590 C   0  0  0  0  0  0  0  0  0  0  0  0
    5.5313   -3.3169  -18.9177 C   0  0  0  0  0  0  0  0  0  0  0  0
    5.3569    2.9973  -18.1873 C   0  0  0  0  0  0  0  0  0  0  0  0
    4.2980    3.0033  -20.1288 C   0  0  0  0  0  0  0  0  0  0  0  0
    5.4299    4.2904  -22.5153 C   0  0  0  0  0  0  0  0  0  0  0  0
    6.7926    4.9879  -21.0910 C   0  0  0  0  0  0  0  0  0  0  0  0
    5.7427    2.6053  -20.4176 C   0  0  2  0  0  0  0  0  0  0  0  0
    6.4245    3.5092  -21.5392 C   0  0  0  0  0  0  0  0  0  0  0  0
    7.5460    2.7648  -22.3449 C   0  0  0  0  0  0  0  0  0  0  0  0
    8.7395    2.3834  -21.4241 C   0  0  0  0  0  0  0  0  0  0  0  0
    8.1442    3.5856  -23.5324 C   0  0  0  0  0  0  0  0  0  0  0  0
    5.0407   -4.2268  -18.0414 N   0  0  0  0  0  0  0  0  0  0  0  0
    6.3307    2.8257  -19.0700 N   0  3  0  0  0  0  0  0  0  0  0  0
    5.4507    3.5013  -16.9078 N   0  0  0  0  0  0  0  0  0  0  0  0
    6.9548    1.5773  -22.9310 O   0  0  0  0  0  0  0  0  0  0  0  0
    4.1460    2.7205  -18.7562 O   0  0  0  0  0  0  0  0  0  0  0  0
    5.9505    5.5103  -22.0760 O   0  0  0  0  0  0  0  0  0  0  0  0
    6.8146   -3.4398  -19.3324 F   0  0  0  0  0  0  0  0  0  0  0  0
    1.9121   -3.0005  -17.6363 H   0  0  0  0  0  0  0  0  0  0  0  0
    2.7999   -1.2769  -19.2131 H   0  0  0  0  0  0  0  0  0  0  0  0
    5.6865   -2.6499  -21.8726 H   0  0  0  0  0  0  0  0  0  0  0  0
    6.5982   -0.9452  -23.4266 H   0  0  0  0  0  0  0  0  0  0  0  0
    4.9409    0.4154  -18.9467 H   0  0  0  0  0  0  0  0  0  0  0  0
    3.3910   -4.8518  -16.8925 H   0  0  0  0  0  0  0  0  0  0  0  0
    4.1373    4.0727  -20.3300 H   0  0  0  0  0  0  0  0  0  0  0  0
    3.5979    2.4073  -20.7328 H   0  0  0  0  0  0  0  0  0  0  0  0
    5.5996    4.0890  -23.5833 H   0  0  0  0  0  0  0  0  0  0  0  0
    4.3652    4.1463  -22.2797 H   0  0  0  0  0  0  0  0  0  0  0  0
    6.4849    5.2332  -20.0638 H   0  0  0  0  0  0  0  0  0  0  0  0
    7.8533    5.2452  -21.2273 H   0  0  0  0  0  0  0  0  0  0  0  0
    9.5081    1.8642  -22.0154 H   0  0  0  0  0  0  0  0  0  0  0  0
    9.1693    3.2955  -20.9844 H   0  0  0  0  0  0  0  0  0  0  0  0
    8.3854    1.7207  -20.6206 H   0  0  0  0  0  0  0  0  0  0  0  0
    8.9185    2.9895  -24.0376 H   0  0  0  0  0  0  0  0  0  0  0  0
    7.3454    3.8306  -24.2479 H   0  0  0  0  0  0  0  0  0  0  0  0
    8.5898    4.5150  -23.1480 H   0  0  0  0  0  0  0  0  0  0  0  0
    7.3087    2.8420  -18.8619 H   0  0  0  0  0  0  0  0  0  0  0  0
    4.6215    3.6719  -16.3756 H   0  0  0  0  0  0  0  0  0  0  0  0
    6.3480    3.6964  -16.5117 H   0  0  0  0  0  0  0  0  0  0  0  0
  1  2  2  0  0  0  0
  1  6  1  0  0  0  0
  2  8  1  0  0  0  0
  3  4  2  0  0  0  0
  3  7  1  0  0  0  0
  4 10  1  0  0  0  0
  5  7  2  0  0  0  0
  5  9  1  0  0  0  0
  6 21  2  0  0  0  0
  7  8  1  0  0  0  0
  8 11  2  0  0  0  0
  9 10  2  0  0  0  0
  9 16  1  0  0  0  0
 10 24  1  0  0  0  0
 11 21  1  0  0  0  0
 11 27  1  0  0  0  0
 12 22  2  0  0  0  0
 12 23  1  0  0  0  0
 12 25  1  0  0  0  0
 13 16  1  0  0  0  0
 13 25  1  0  0  0  0
 14 17  1  0  0  0  0
 14 26  1  0  0  0  0
 15 17  1  0  0  0  0
 15 26  1  0  0  0  0
 16 17  1  0  0  0  0
 16 22  1  0  0  0  0
 17 18  1  0  0  0  0
 18 19  1  0  0  0  0
 18 20  1  0  0  0  0
 18 24  1  0  0  0  0
  1 28  1  0  0  0  0
  2 29  1  0  0  0  0
  3 30  1  0  0  0  0
  4 31  1  0  0  0  0
  5 32  1  0  0  0  0
  6 33  1  0  0  0  0
 13 34  1  0  0  0  0
 13 35  1  0  0  0  0
 14 36  1  0  0  0  0
 14 37  1  0  0  0  0
 15 38  1  0  0  0  0
 15 39  1  0  0  0  0
 19 40  1  0  0  0  0
 19 41  1  0  0  0  0
 19 42  1  0  0  0  0
 20 43  1  0  0  0  0
 20 44  1  0  0  0  0
 20 45  1  0  0  0  0
 22 46  1  0  0  0  0
 23 47  1  0  0  0  0
 23 48  1  0  0  0  0
M  CHG  1  22   1
M  END
> <OMEGA_C>
Rkg7QFkdRMAEBJDBxORaQOt+BsA7J5fBRIy3QCqkzr+tjqzBTizIQPEUJr8BkrPBqN+pQKgp/z1/
W5/BTDBxQIC6g8CTs4zBYvSoQCxrnb/cXaLB3aiXQAzFDsC37JrBTgm6QAx3jj9gZ6bBPq3KQG0B
ND/ceLDBLQCxQEZIVMBtV5fBG2yrQB7TP0Cif5HBP4mJQOQ1QEDZB6HB8sGtQNZKiUBdH7TB2FzZ
QJecn0BOuqjB0MO3QA69JkAzV6PBeJXNQCqWYEBSUKzByHjxQJjyMEBIwrLBCNULQRKJGECGZKvB
xE4CQcJ6ZUBzQrzBhU2hQKVBh8C7VJDBAZXKQGLYNEBSj5jBUWyuQJIVYEAdQ4fBHI7eQOzlyT+2
crfBw6uEQAQdLkDLDJbBbWq+QIRUsECOm7DBEBHaQOgkXMDTqJrBEr/0P/cHQMAeF43BWjIzQG9x
o79itJnBjve1QFeXKcAC+67BpSTTQLz6cb+mabvBhxueQIGz1D7qkpfBJwZZQMFBm8DpI4fBe2SE
QNdTgkC/o6LBmkRmQPIRGkC+3KXBJDCzQD7ZgkCoqrzBdK+LQEeuhEDIPLLB9YPPQCl2p0CcgqDB
bE77QADZp0CK0anBVyEYQR6d7j+FH7DBibUSQe7oUkAG4KfBrioGQTBA3D8X96TBUrIOQXdUP0Do
TMDBWA3rQMwndUCn+8HBqG8JQaF6kEAUL7nBmuDpQDfjNUAx5ZbBKuOTQG0Aa0AhAYPBxiLLQNiR
bEAIGITBAeCUQAOeQsAjd4fBvFCmQBv9BsDepI7B8jq5QPwtyL8cpKrBGtnKQBy4Jr+C7rHBBv2n
QNYEjT7DkJ7Bfw9nQGO8eMBX8IrBKSKoQIRBjb+95KDBkDOWQP7jA8A/KJnBDR24QDZ9mz+BB6bB
yB7LQAOxOj/Xrq/B4CNpQLDzO8BeH5zBowW9QBN/T0DBmpHBWbOKQDUVSUB3v57BayGcQC5sekAD
fLXBAZHFQLBeo0DeYqzBhSS2QH9iLkAygqPBVxnDQNYAYkCx2K3Bd/rpQNq4OECADLTBD6QJQXW4
NEBVE63BPUv2QNTjaEATjb7Bst5HQL6bdMCiC5XBJvfSQLBCQ0DlfprBqffOQLLJXUCXn4fB6yXe
QBHdxT8dSbfBVqmRQDwnSkC1cZPBkUWlQAm6qEBlDrTBFAhHQK7XN8DxE6bBkdigQCIBR8D1wX7B
KJu/QHqduL/wJozBRse4QBeVJ8BfgKzBWlnYQPVUgb8VWbnBqG+bQLq7Hj+ZAJfBfzFMQJ9Jk8Ci
aYXBz1mBQPV1hEDuoKHB+nBjQL91GkAW3aDBss6fQIb6Y0BBxr3BZkJ5QObTZkA6arLBnL28QFuE
rkAFVqTBtofkQP5dsUC2rq7BpawWQR+TF0DTu7HBqkMOQfnddUC/q6rB5Y4GQcPnDUDF5aXBEr8I
QQFeSEDTYcLB6MnaQNYOaUDjCsTBHEX/QOyZlUDvoLzBStDyQJiIR0DPD5vBfB28QPDmZEB3OIHB
dsTuQC78YEAl04bB

> <OMEGA_E>
dG5SPzTdcj8=

> <OMEGA_NBR>
     37924

$$$$
288486
  -OEChem-04172616093D

 41 45  0     1  0  0  0  0  0999 V2000
    5.2506   -4.1427  -17.8494 C   0  0  0  0  0  0  0  0  0  0  0  0
    5.7553   -3.1793  -18.7368 C   0  0  0  0  0  0  0  0  0  0  0  0
    6.0746   -1.5918  -21.3843 C   0  0  0  0  0  0  0  0  0  0  0  0
    6.5539   -0.6069  -22.2628 C   0  0  0  0  0  0  0  0  0  0  0  0
    5.1469    0.1483  -19.9476 C   0  0  0  0  0  0  0  0  0  0  0  0
    3.8693   -4.1603  -17.5649 C   0  0  0  0  0  0  0  0  0  0  0  0
    5.3677   -1.2162  -20.2263 C   0  0  0  0  0  0  0  0  0  0  0  0
    4.8643   -2.2475  -19.3033 C   0  0  0  0  0  0  0  0  0  0  0  0
    5.6168    1.1546  -20.8260 C   0  0  0  0  0  0  0  0  0  0  0  0
    6.3550    0.7618  -21.9878 C   0  0  0  0  0  0  0  0  0  0  0  0
    3.4867   -2.3217  -18.9760 C   0  0  0  0  0  0  0  0  0  0  0  0
    5.5369    3.1612  -18.2499 C   0  0  0  0  0  0  0  0  0  0  0  0
    4.7057    4.0518  -22.6537 C   0  0  0  0  0  0  0  0  0  0  0  0
    5.5279    5.0036  -21.7312 C   0  0  0  0  0  0  0  0  0  0  0  0
    3.9909    2.9170  -19.9123 C   0  0  0  0  0  0  0  0  0  0  0  0
    7.0666    3.0208  -22.4305 C   0  0  0  0  0  0  0  0  0  0  0  0
    5.3925    2.6443  -20.4845 C   0  0  2  0  0  0  0  0  0  0  0  0
    5.7936    3.4958  -21.7255 C   0  0  0  0  0  0  0  0  0  0  0  0
    3.0176   -3.2673  -18.1259 N   0  0  0  0  0  0  0  0  0  0  0  0
    6.2495    3.0380  -19.3531 N   0  3  0  0  0  0  0  0  0  0  0  0
    6.0656    3.4310  -16.9974 N   0  0  0  0  0  0  0  0  0  0  0  0
    6.8886    1.6661  -22.8970 O   0  0  0  0  0  0  0  0  0  0  0  0
    4.1955    2.9535  -18.4953 O   0  0  0  0  0  0  0  0  0  0  0  0
    2.6042   -1.4660  -19.5465 F   0  0  0  0  0  0  0  0  0  0  0  0
    5.9123   -4.8621  -17.3899 H   0  0  0  0  0  0  0  0  0  0  0  0
    6.8071   -3.1532  -18.9805 H   0  0  0  0  0  0  0  0  0  0  0  0
    6.2482   -2.6364  -21.5966 H   0  0  0  0  0  0  0  0  0  0  0  0
    7.0805   -0.9008  -23.1588 H   0  0  0  0  0  0  0  0  0  0  0  0
    4.6123    0.4296  -19.0524 H   0  0  0  0  0  0  0  0  0  0  0  0
    3.4809   -4.9029  -16.8837 H   0  0  0  0  0  0  0  0  0  0  0  0
    3.6446    3.8563  -22.4395 H   0  0  0  0  0  0  0  0  0  0  0  0
    4.8633    4.0662  -23.7423 H   0  0  0  0  0  0  0  0  0  0  0  0
    6.2666    5.6919  -22.1675 H   0  0  0  0  0  0  0  0  0  0  0  0
    5.0479    5.4820  -20.8648 H   0  0  0  0  0  0  0  0  0  0  0  0
    3.6007    3.8791  -20.2758 H   0  0  0  0  0  0  0  0  0  0  0  0
    3.2935    2.1116  -20.1859 H   0  0  0  0  0  0  0  0  0  0  0  0
    7.2768    3.6778  -23.2873 H   0  0  0  0  0  0  0  0  0  0  0  0
    7.9100    3.0567  -21.7253 H   0  0  0  0  0  0  0  0  0  0  0  0
    7.2359    3.1908  -19.4130 H   0  0  0  0  0  0  0  0  0  0  0  0
    5.4628    3.4851  -16.2013 H   0  0  0  0  0  0  0  0  0  0  0  0
    7.0498    3.5716  -16.8898 H   0  0  0  0  0  0  0  0  0  0  0  0
  1  2  1  0  0  0  0
  1  6  2  0  0  0  0
  2  8  2  0  0  0  0
  3  4  2  0  0  0  0
  3  7  1  0  0  0  0
  4 10  1  0  0  0  0
  5  7  2  0  0  0  0
  5  9  1  0  0  0  0
  6 19  1  0  0  0  0
  7  8  1  0  0  0  0
  8 11  1  0  0  0  0
  9 10  2  0  0  0  0
  9 17  1  0  0  0  0
 10 22  1  0  0  0  0
 11 19  2  0  0  0  0
 11 24  1  0  0  0  0
 12 20  2  0  0  0  0
 12 21  1  0  0  0  0
 12 23  1  0  0  0  0
 13 14  1  0  0  0  0
 13 18  1  0  0  0  0
 14 18  1  0  0  0  0
 15 17  1  0  0  0  0
 15 23  1  0  0  0  0
 16 18  1  0  0  0  0
 16 22  1  0  0  0  0
 17 18  1  0  0  0  0
 17 20  1  0  0  0  0
  1 25  1  0  0  0  0
  2 26  1  0  0  0  0
  3 27  1  0  0  0  0
  4 28  1  0  0  0  0
  5 29  1  0  0  0  0
  6 30  1  0  0  0  0
 13 31  1  0  0  0  0
 13 32  1  0  0  0  0
 14 33  1  0  0  0  0
 14 34  1  0  0  0  0
 15 35  1  0  0  0  0
 15 36  1  0  0  0  0
 16 37  1  0  0  0  0
 16 38  1  0  0  0  0
 20 39  1  0  0  0  0
 21 40  1  0  0  0  0
 21 41  1  0  0  0  0
M  CHG  1  20   1
M  END
> <OMEGA_C>
UwWoQCORhMCgy47BRiu4QNV5S8D95JXBRGPCQCC/y7/yEqvBmLnRQDpeG787GrLBZbOkQNviFz66
lJ/Bu6J3QN0ghcDshIzB0cOrQNerm798z6HBhKibQIfWD8A7bZrB3ryzQJDKkz+lm6bBWFzLQNsC
Qz8N56/BviZfQEaWFMDszpfBfi6xQJ5QSkDP/5HBv5SWQD2ogUDWOrXBpeSwQBsdoEBp2a3Bc2p/
QFCwOkB1TJ/BayHiQJdUQUCicbPBhY+sQNo7KUBH4KPBLGW5QMG6X0Dsza3B9R9BQK4bUcDcAZHB
lfvHQBNuQkAM05rBaRnCQD2VW0Cc+ofBK2/cQCVD1T8ZLbfB8UGGQEoGPUB19pPBzKomQPCku78q
X5zBkjG9QCOWm8CTHovBxtPZQOXNScAc2JfB9fDHQCq6KMDqxazBjZPiQF6ZZr8jRbnBOJiTQMH4
2z44a5jBtsZeQMjknMDrEYfB1UBpQGbNdkAThLPBcKCbQE0egkAt8L3BOYjIQEcktkAjV7HBM4ih
QKxsr0AJ66bBiHFmQDFDeEDoNKLB6MdSQNQjB0DJfKHBkNvoQF1ha0BgTLrB8B79QIGgQ0Bhza3B
ZYznQLA2TEDKTZvBb8+uQFcLX0BBnIHBBZjhQH6UZEA/HofB6wCWQCiSRMB5lYfBo02mQP81B8Dp
s47Bg6W8QMnwyL9Ll6rBniHNQJi4IL/50rHB0RKlQC0bdT585Z7B1ChvQAolgMDFSovBDuSoQLy7
kb9cEaHBlxGYQBn6B8CDZJnBGwy0QDEVmj9STqbB0avJQMbTQD+zvK/BKqtyQMKfRcDSlpzBFpK0
QLwaUkBkMZLB8duYQBeBgkAjhLXBy7e0QCvYoED2d67BCTKCQCqrQkBsRp/B4DjjQKb7PUD90LPB
Q4WuQOhnLUCc66PBFY67QD20YEBeGq7BxnZTQOTmf8CvkZXB4cbKQNgHR0AOD5vBZEjGQGNBZEAg
SYjBY1jbQIdtzj9fRLfBBluJQDstR0Ac+pPBeOhTQOxyRcC/uabBAqKgQCgJRsC7un7BpFO9QN2X
sL9ZCIzB5xu/QHgAKMCiU6zBy5/cQJTsdr/xD7nB+4+WQH1TED8zf5fBQwhWQBK6l8D4z4XBkKlt
QJtKe0CznrPBLlGdQFrKgUBUPr7Bd9zMQIuetUD/NrLBEGCmQH95sUBdl6fBowVtQFUmgEDcXaLB
CfpVQPwMEEDeNaHBz1vqQOkuZkAZ0brBHKH+QB30PkCwS67BXm/qQM7yTkD4rJvBXmazQI8zakCv
3oHBYPLlQD5oa0BljYfBH0KaQLJqUMAhHojBeGmqQLJGEsDwJo/B6MO5QPpqzb/QJKvB+VDJQHPR
Jb+fZLLBfWWpQB2KKj75XZ7B8eFxQE1Pg8A7lovB8KepQAKLmb/YH6HB5xeZQKfKDMA8iJnBqc+4
QHkjkj8nnKXBmXzIQBaTOT/i06/BeRxvQNoWRcAif5zBQlCoQOFbY0BaC5LBEandQAySnEBqP6jB
SY0AQWWec0BEPqfBhYmJQAMvSkCPXKLBWsrNQM06QEAhM7bB51C3QNv1J0DbdaLB9VXTQOkDW0Bg
fqrBsFZQQNUZgMBLjpXBp4PEQKxRNECPOZfBsZKsQBx9fUBjgYfB8G3YQFlazT9webfBJW2GQINC
eUAhjpjBoZtKQPa/PsBpTKbBvDCnQEelVsCvJIDBdKTDQNL3zr/ZpozBiSe6QBG9KcAWQK3BAArW
QMN4d7+gArrB51CdQNPn8T6lppbBM/1YQHowm8DfK4bBq/PQQEU2rEBnCKHBaKLeQPXEs0CU3K7B
wpQNQYW0cEDpJa3BY70GQSWXYUC8UZ/B7+KDQIJOdEAARanBarNkQHQ5FUA2fKLBpVysQDGkSkAw
objBlQ7jQE8IZ0CaQ7vBJDPfQG5IHEBh/ZPB0C+WQBFSkUAMLITBjQjGQM0xa0CRO4PB

> <OMEGA_E>
uCBJP8Tfcz+8A3U/

> <OMEGA_NBR>
     40389

$$$$
288460
  -OEChem-04172616093D

 45 49  0     1  0  0  0  0  0999 V2000
    5.1172   -4.1956  -18.0512 C   0  0  0  0  0  0  0  0  0  0  0  0
    5.5985   -3.2058  -18.9193 C   0  0  0  0  0  0  0  0  0  0  0  0
    5.9172   -1.5733  -21.4247 C   0  0  0  0  0  0  0  0  0  0  0  0
    6.4830   -0.6360  -22.2967 C   0  0  0  0  0  0  0  0  0  0  0  0
    5.0945    0.2326  -20.0092 C   0  0  0  0  0  0  0  0  0  0  0  0
    3.7761   -4.1405  -17.6251 C   0  0  0  0  0  0  0  0  0  0  0  0
    5.2297   -1.1494  -20.2728 C   0  0  0  0  0  0  0  0  0  0  0  0
    4.7315   -2.1715  -19.3284 C   0  0  0  0  0  0  0  0  0  0  0  0
    5.6888    1.1941  -20.8719 C   0  0  0  0  0  0  0  0  0  0  0  0
    6.4112    0.7385  -22.0166 C   0  0  0  0  0  0  0  0  0  0  0  0
    3.3931   -2.1740  -18.8585 C   0  0  0  0  0  0  0  0  0  0  0  0
    4.1587    3.1861  -18.8416 C   0  0  0  0  0  0  0  0  0  0  0  0
    6.4046    2.9226  -19.1890 C   0  0  0  0  0  0  0  0  0  0  0  0
    5.1849    3.9484  -22.8041 C   0  0  0  0  0  0  0  0  0  0  0  0
    6.3763    5.0948  -21.5272 C   0  0  0  0  0  0  0  0  0  0  0  0
    7.4683    2.8785  -22.3779 C   0  0  1  0  0  0  0  0  0  0  0  0
    5.6611    2.6896  -20.5030 C   0  0  1  0  0  0  0  0  0  0  0  0
    6.2449    3.5267  -21.7055 C   0  0  0  0  0  0  0  0  0  0  0  0
    8.6883    2.7550  -21.4401 C   0  0  0  0  0  0  0  0  0  0  0  0
    2.9437   -3.1502  -18.0301 N   0  0  0  0  0  0  0  0  0  0  0  0
    4.2958    3.1232  -20.1497 N   0  3  0  0  0  0  0  0  0  0  0  0
    2.9472    3.3503  -18.1905 N   0  0  0  0  0  0  0  0  0  0  0  0
    7.0879    1.5813  -22.8872 O   0  0  0  0  0  0  0  0  0  0  0  0
    5.3681    3.0036  -18.2054 O   0  0  0  0  0  0  0  0  0  0  0  0
    5.4204    5.2960  -22.5249 O   0  0  0  0  0  0  0  0  0  0  0  0
    2.5206   -1.2236  -19.2702 F   0  0  0  0  0  0  0  0  0  0  0  0
    5.7664   -4.9900  -17.7137 H   0  0  0  0  0  0  0  0  0  0  0  0
    6.6195   -3.2349  -19.2701 H   0  0  0  0  0  0  0  0  0  0  0  0
    6.0090   -2.6282  -21.6373 H   0  0  0  0  0  0  0  0  0  0  0  0
    6.9800   -0.9732  -23.1944 H   0  0  0  0  0  0  0  0  0  0  0  0
    4.5352    0.5609  -19.1456 H   0  0  0  0  0  0  0  0  0  0  0  0
    3.4020   -4.9049  -16.9601 H   0  0  0  0  0  0  0  0  0  0  0  0
    7.0834    2.0847  -18.9715 H   0  0  0  0  0  0  0  0  0  0  0  0
    6.9794    3.8597  -19.2273 H   0  0  0  0  0  0  0  0  0  0  0  0
    5.4567    3.6488  -23.8270 H   0  0  0  0  0  0  0  0  0  0  0  0
    4.1584    3.6186  -22.5860 H   0  0  0  0  0  0  0  0  0  0  0  0
    6.0718    5.4599  -20.5352 H   0  0  0  0  0  0  0  0  0  0  0  0
    7.3719    5.4918  -21.7743 H   0  0  0  0  0  0  0  0  0  0  0  0
    7.7622    3.5190  -23.2225 H   0  0  0  0  0  0  0  0  0  0  0  0
    9.5224    2.2858  -21.9826 H   0  0  0  0  0  0  0  0  0  0  0  0
    8.9905    3.7559  -21.0980 H   0  0  0  0  0  0  0  0  0  0  0  0
    8.4215    2.1356  -20.5712 H   0  0  0  0  0  0  0  0  0  0  0  0
    3.5764    3.3387  -20.8101 H   0  0  0  0  0  0  0  0  0  0  0  0
    2.9113    3.3410  -17.1912 H   0  0  0  0  0  0  0  0  0  0  0  0
    2.1084    3.4782  -18.7198 H   0  0  0  0  0  0  0  0  0  0  0  0
  1  2  2  0  0  0  0
  1  6  1  0  0  0  0
  2  8  1  0  0  0  0
  3  4  2  0  0  0  0
  3  7  1  0  0  0  0
  4 10  1  0  0  0  0
  5  7  2  0  0  0  0
  5  9  1  0  0  0  0
  6 20  2  0  0  0  0
  7  8  1  0  0  0  0
  8 11  2  0  0  0  0
  9 10  2  0  0  0  0
  9 17  1  0  0  0  0
 10 23  1  0  0  0  0
 11 20  1  0  0  0  0
 11 26  1  0  0  0  0
 12 21  2  0  0  0  0
 12 22  1  0  0  0  0
 12 24  1  0  0  0  0
 13 17  1  0  0  0  0
 13 24  1  0  0  0  0
 14 18  1  0  0  0  0
 14 25  1  0  0  0  0
 15 18  1  0  0  0  0
 15 25  1  0  0  0  0
 16 18  1  0  0  0  0
 16 19  1  0  0  0  0
 16 23  1  0  0  0  0
 17 18  1  0  0  0  0
 17 21  1  0  0  0  0
  1 27  1  0  0  0  0
  2 28  1  0  0  0  0
  3 29  1  0  0  0  0
  4 30  1  0  0  0  0
  5 31  1  0  0  0  0
  6 32  1  0  0  0  0
 13 33  1  0  0  0  0
 13 34  1  0  0  0  0
 14 35  1  0  0  0  0
 14 36  1  0  0  0  0
 15 37  1  0  0  0  0
 15 38  1  0  0  0  0
 16 39  1  0  0  0  0
 19 40  1  0  0  0  0
 19 41  1  0  0  0  0
 19 42  1  0  0  0  0
 21 43  1  0  0  0  0
 22 44  1  0  0  0  0
 22 45  1  0  0  0  0
M  CHG  1  21   1
M  END
> <OMEGA_C>
SsCjQJRChsDvaJDBlyazQEQsTcCyWpfBulm9QPdiyb+2ZavB63TPQBfRIr+6X7LBwAWjQNkhbj7M
EqDBCKtxQPh+hMAgAI3BilmnQPsgk7+0LqLBLGiXQED5CsCpoJrBuAq2QJ/ZmD+X+abBpSjNQFwN
PT8LIrDBOClZQBwjC8Ay3pbBZBSFQJPpS0Cdu5bBs/LMQEsLO0D7gpnBheqlQHiyfEDUbrbBSwrM
QN0Io0DAN6zB6PvuQMw5OEAABrPBCSi1QLciLEAmBqTB2tXHQO+1YUDhpK3BdwMLQXRSMEBphavB
hmU8QMmcScC0PZDB/naJQDTiR0CeMqHBYp48QPBrVkAlhpHBFNDiQBlpyj8DGbfBS8erQB87QEC4
pJHBOnStQK94qUAMM7TBulAhQImenL9MKZrBAYa4QGeun8CntY3B39LTQMEIT8AbKZrBiknAQIQ0
KMA5Ga3BI1zfQFkheb8SjrnBYSCRQP2WDz8eKpnBJbtZQCL1nMBLrofBJKviQOZrBUCrxZfBeFff
QIMEd0CZ0ZnBN52uQHCFaUC/nb7BqBGFQAiXZ0ATsLTBVkzCQCu3rkAgSKTB3ObrQMa8r0DKMa7B
TmT4QAk3YUDIx7nBqVsYQcpKEkBM3K/BAtkPQS1gcEDFyKjBor4GQe2sCEDQkaTBMuRkQOmsVUAT
e6bBclI6QCvTVUCNh4nBGPAGQOmaXkAXwpXBCoaoQPMsh8DgY5DB/FO2QByrUMBxw5fBJdK8QAht
yr+KBKzBhrzLQFT/GL+yHLPBMeakQIxqHD5du5/BWaZ8QOQ1hcB1c4zB43KoQE+vmr93a6LBl8OZ
QM6cD8Au4prB21e2QHQDkz9NfKbBhefHQC6BRD9Zj7DBa2pfQBIpD8A3l5bBscKAQJRGSkC4Z5fB
cwjIQOo1LkDjN5fBLMHUQJoJoEBtg6jByykCQRoeYUBTbajB/UTJQAyaQ0DGnLbBYp63QLDXJkAJ
u6LBhoDSQGTYXEBE26rBg+LgQOTBekAYIL/B/q1FQJotTMAylY/BKNeLQELWSECrm6HBS3UxQLzL
X0CGgpPBPZvWQOpe1z+RDbjBMzmiQAD8MUDj6pDBE58AQYX/nECcUafBU0cmQG8zpb/ToJnBdPm9
QH0loMB4wo3BQ1rWQEgBU8Ck/5rB0PrAQLYcKMDh7K3BtUXaQFIpZL8rl7rB1LiUQChl4T6Vc5jB
DEFnQC8SncA/zYbBGGfbQAIL7D9LD5XBhT7bQGegaEATMZbBPYbKQMw/tEC2P6/BM8rDQMDyqUA3
NqHBgAIHQZOMP0DMFKHB4FgMQWA6TEDFHK/B96GmQJgYSUCYBbjBBV/YQIsoZEDrLsfBPFXXQBoT
n0DYPr7BWNQBQW/9dEBz973BH41yQJX5W0BMq6fB+RwmQJQcXkCuo4vB8fICQNwHcUDJkJjBCvI3
QOGXScCU+Y/BcuJTQIvDB8CTzJbBDKC3QGy4yL/606vBCxTLQEpaJL8KqbLBWjShQM5Kdj4mA6DB
tEJxQFmvhcAjE43BjNajQFAekr/GTqLBhDmUQEJPCsBOrJrBjjO1QFuKmD8f2qbBWJfLQOppOT/T
FrDBFXCvQFhVTsAnYZfB8jOFQG9yT0Cn0pbBQPvMQP2zOEB+J5nBpJOpQHCifkCZOLbBeHnQQCkw
okBGy6vB9vDwQHAvNECwjbLBc+i1QNPcK0C30KPBMFTKQOyCYECDTq3Bu44LQeELKEAc3KrBpGih
QNdQhsBPt5DBEYWKQM6iSkCEP6HBwlg8QDIQXkB/5pHBVh/jQKTOxT+Y1rbBujerQKrZQUB8fZHB
J6GyQHoKqkCA37PBaLjYQLg7UcB9rprBuz3uP87NScAS+ozB1lYpQCuQqL9cBpnBscq3QDmEJ8BY
363BktjZQGdBe78K/LnB8uuPQHSQEz+LB5nBW5NbQILsnsDr1IfBTgrhQAjnAEABP5fBNv7gQG2X
ckAXYZnBq3myQGE/a0ASYr7BTjmIQLcEbEDlo7TBT8PGQAsWrkA44KPBGu/wQOqgrUDoo63BldP7
QGj/XED4L7nBgL4YQTYiCEDmG6/B1fgQQcPjZkAA9qfBBo4GQdp5AEBaBqTBonpoQLa+WUDFq6bB
FHU4QLlHX0Cn6onBueAHQDNmZ0CDVJbB4xhKQJdbSsDImo7BjUdjQDKgCsA63JXBPOm6QGbTyr8y
/KvBQEHJQIoaGr9vJbPBuqilQBF3Gj5UY5/BLdWBQOJihsC6DYzBCN+oQNAOm79TGaLBVLmaQLt2
D8AucprBaFm2QNzCkj+9RabBnK3GQG8DQz/cd7DBrkm2QCyFU8Aeb5fBnAmBQFRFTEDgWpfB5ivI
QOoJL0CoFJfBKHvWQMOon0BdhKjBRYACQdNaXkC1aqjBND3JQAgpQ0ApgrbBuOe3QHwIJ0BumKLB
4BjTQI8OXECrxarB1mjhQP64eEA6FL/B3H2pQBEmiMCWZpDB9DqMQF+3SUDci6HBWYIyQPctZEB1
g5PBRmLVQIKP1T8RArjBBDuiQN1AM0DE0pDB43wBQWW/m0AKfqfBzt3eQKQHV8AyOpvBjUMLQEWN
SMDwAovBtnQ4QLK0rb9245fBbLS9QARJKMBSDq7BVmXWQFQuZb/8yLrBz1WWQGi/4D6m/pfB1Q5w
QP79nsDxgIbBtHrbQArh7T8h2pTBbWXbQLp5aUDGFpbBgDvMQH/os0BpPq/BeS7GQAoWqkB0KqHB
7TsHQVFWPUCEA6HBsHwMQZShR0BSFa/BnqimQK+KSkBw3rfBsF3YQCRuYkA5HcfBC9rYQPdTnkDi
Nb7B1w4CQd78cEBD+b3Bd5VzQByJXECgpafBYhcnQKnMY0BZpIvB83AEQGPVdUANnJjB

> <OMEGA_E>
GJ8IPwjhFj/wNSE/COk1Pw==

> <OMEGA_NBR>
     44975

$$$$
288462
  -OEChem-04172616093D

 45 49  0     1  0  0  0  0  0999 V2000
    5.1700   -4.1286  -18.0658 C   0  0  0  0  0  0  0  0  0  0  0  0
    5.5953   -3.1710  -18.9958 C   0  0  0  0  0  0  0  0  0  0  0  0
    5.8531   -1.5579  -21.5257 C   0  0  0  0  0  0  0  0  0  0  0  0
    6.4589   -0.6057  -22.3578 C   0  0  0  0  0  0  0  0  0  0  0  0
    5.0126    0.2221  -20.0903 C   0  0  0  0  0  0  0  0  0  0  0  0
    3.8497   -4.0723  -17.5788 C   0  0  0  0  0  0  0  0  0  0  0  0
    5.1541   -1.1517  -20.3723 C   0  0  0  0  0  0  0  0  0  0  0  0
    4.6929   -2.1706  -19.4100 C   0  0  0  0  0  0  0  0  0  0  0  0
    5.6320    1.1918  -20.9170 C   0  0  0  0  0  0  0  0  0  0  0  0
    6.4090    0.7609  -22.0324 C   0  0  0  0  0  0  0  0  0  0  0  0
    3.3774   -2.1696  -18.8784 C   0  0  0  0  0  0  0  0  0  0  0  0
    4.1400    3.1681  -18.8256 C   0  0  0  0  0  0  0  0  0  0  0  0
    6.3768    2.9350  -19.2720 C   0  0  0  0  0  0  0  0  0  0  0  0
    5.9622    5.0902  -21.6216 C   0  0  0  0  0  0  0  0  0  0  0  0
    4.9849    3.7275  -22.8768 C   0  0  0  0  0  0  0  0  0  0  0  0
    7.4087    2.9500  -22.3004 C   0  0  2  0  0  0  0  0  0  0  0  0
    5.5738    2.6734  -20.5376 C   0  0  1  0  0  0  0  0  0  0  0  0
    6.0749    3.5146  -21.7478 C   0  0  0  0  0  0  0  0  0  0  0  0
    8.0412    3.7884  -23.4400 C   0  0  0  0  0  0  0  0  0  0  0  0
    2.9835   -3.1124  -17.9862 N   0  0  0  0  0  0  0  0  0  0  0  0
    4.2166    3.0704  -20.1339 N   0  3  0  0  0  0  0  0  0  0  0  0
    2.9491    3.3500  -18.1435 N   0  0  0  0  0  0  0  0  0  0  0  0
    7.1522    1.6246  -22.8271 O   0  0  0  0  0  0  0  0  0  0  0  0
    5.3820    3.0080  -18.2409 O   0  0  0  0  0  0  0  0  0  0  0  0
    5.0694    5.1107  -22.6998 O   0  0  0  0  0  0  0  0  0  0  0  0
    2.4718   -1.2488  -19.2873 F   0  0  0  0  0  0  0  0  0  0  0  0
    5.8457   -4.8999  -17.7268 H   0  0  0  0  0  0  0  0  0  0  0  0
    6.6005   -3.1989  -19.3897 H   0  0  0  0  0  0  0  0  0  0  0  0
    5.9228   -2.6076  -21.7702 H   0  0  0  0  0  0  0  0  0  0  0  0
    6.9676   -0.9247  -23.2555 H   0  0  0  0  0  0  0  0  0  0  0  0
    4.4284    0.5375  -19.2385 H   0  0  0  0  0  0  0  0  0  0  0  0
    3.5195   -4.8114  -16.8638 H   0  0  0  0  0  0  0  0  0  0  0  0
    7.0813    2.1127  -19.0785 H   0  0  0  0  0  0  0  0  0  0  0  0
    6.9309    3.8821  -19.3489 H   0  0  0  0  0  0  0  0  0  0  0  0
    5.5277    5.4350  -20.6717 H   0  0  0  0  0  0  0  0  0  0  0  0
    6.9052    5.6246  -21.8088 H   0  0  0  0  0  0  0  0  0  0  0  0
    5.2976    3.3826  -23.8734 H   0  0  0  0  0  0  0  0  0  0  0  0
    3.9992    3.3034  -22.6347 H   0  0  0  0  0  0  0  0  0  0  0  0
    8.1300    2.8882  -21.4723 H   0  0  0  0  0  0  0  0  0  0  0  0
    8.9785    3.3148  -23.7674 H   0  0  0  0  0  0  0  0  0  0  0  0
    7.3419    3.8416  -24.2874 H   0  0  0  0  0  0  0  0  0  0  0  0
    8.2520    4.8041  -23.0742 H   0  0  0  0  0  0  0  0  0  0  0  0
    3.4599    3.2416  -20.7648 H   0  0  0  0  0  0  0  0  0  0  0  0
    2.9440    3.3736  -17.1438 H   0  0  0  0  0  0  0  0  0  0  0  0
    2.0939    3.4578  -18.6505 H   0  0  0  0  0  0  0  0  0  0  0  0
  1  2  2  0  0  0  0
  1  6  1  0  0  0  0
  2  8  1  0  0  0  0
  3  4  2  0  0  0  0
  3  7  1  0  0  0  0
  4 10  1  0  0  0  0
  5  7  2  0  0  0  0
  5  9  1  0  0  0  0
  6 20  2  0  0  0  0
  7  8  1  0  0  0  0
  8 11  2  0  0  0  0
  9 10  2  0  0  0  0
  9 17  1  0  0  0  0
 10 23  1  0  0  0  0
 11 20  1  0  0  0  0
 11 26  1  0  0  0  0
 12 21  2  0  0  0  0
 12 22  1  0  0  0  0
 12 24  1  0  0  0  0
 13 17  1  0  0  0  0
 13 24  1  0  0  0  0
 14 18  1  0  0  0  0
 14 25  1  0  0  0  0
 15 18  1  0  0  0  0
 15 25  1  0  0  0  0
 16 18  1  0  0  0  0
 16 19  1  0  0  0  0
 16 23  1  0  0  0  0
 17 18  1  0  0  0  0
 17 21  1  0  0  0  0
  1 27  1  0  0  0  0
  2 28  1  0  0  0  0
  3 29  1  0  0  0  0
  4 30  1  0  0  0  0
  5 31  1  0  0  0  0
  6 32  1  0  0  0  0
 13 33  1  0  0  0  0
 13 34  1  0  0  0  0
 14 35  1  0  0  0  0
 14 36  1  0  0  0  0
 15 37  1  0  0  0  0
 15 38  1  0  0  0  0
 16 39  1  0  0  0  0
 19 40  1  0  0  0  0
 19 41  1  0  0  0  0
 19 42  1  0  0  0  0
 21 43  1  0  0  0  0
 22 44  1  0  0  0  0
 22 45  1  0  0  0  0
M  CHG  1  21   1
M  END
> <OMEGA_C>
P3ClQI8dhMC0hpDBygyzQCDxSsBb95fBmUy7QKNpx7+QNKzB8K7OQBASG7/H3LLBbGegQCxnYz7Z
uKDBOmF2QHFQgsBXoYzBKu6kQBBqk7+E+qLBiSyWQFDrCsCkR5vB+Di0QHeMmD8HVqfBexbNQBjK
Qj9wQrDBKidYQNraCsADB5fBrHqEQG7BSkDgmpbB6g7MQO/WO0AFLZrBD8q+QL/iokAO+azB8YOf
QD2PbkClA7fByRPtQPPMPEBNZ7LB8FyyQI4YK0AETaTBjWXCQJfuYECM+63B3qgAQYl0ckAghbvB
2PE+QKAxR8DK44/BBu6GQFKBREAnEqHBfr08QGdmVkDWJZHB997kQNLyzz/9nbbBjDmsQNmCQEBR
7ZHBIjiiQByLo0AbmbXBcjIeQKTXn79OTJrByg+7QNvLnMBp0I3BTzfTQMO6TMA1HpvB1Ie9QDLi
JsBRKa7BavbeQG66bL9BC7rBZrWNQMKaCT9b6JnBSj9hQMb2mcAZ6YbBTZriQM01B0DUoJjBUsrd
QH90eECDyprBleKwQDnrrUCkX6XBdPfcQNj8s0B7eK7BHoapQP18WEC4/L7Bu/J/QCtrU0DJE7XB
aBQCQZbYOEAvx6vBF6gPQQImVECxI77BMfHqQAvddUCyTMLBUQgEQT+7mUDsl7jBt25dQHd2T0Bl
HqbBN2s8QArpV0BvJonBKgIGQPNMXUAlNJXBaj9AQPwAUMCM34/BVcRXQH5JDsAt9pbB1463QCsh
yr+3cazBsk/LQKwBIL+A+7LBtXOfQAKlOz4QYqDBJKx8QNauh8CdHo3BQlijQCsmmL+E3qLB55KV
QKaLDsAiOJvBKkezQJwUlD9Q/KbBZ2zLQPvOOj8SCrDBYoKyQL7vT8CUBpjBlx+EQKgcU0C7lpbB
kRrLQIwWN0CsgZnBbQnDQFgBokDY8qvB1XSiQNacckAmd7bBHjXuQDIpOECTq7HBzj6yQLCnKECV
1KPBgBnEQLwuX0ARTK3BXyYCQeZUbUAuj7rBdY+mQBUmh8BSIZHBvb6GQNSgQ0Dz5KDBQB8+QIhX
bkBfkZHBCC3kQFPUyj+gNbbBX4yqQJiJQkBZjZHBohioQKsypUDr27TBt4TbQPyFT8ALj5vBqnAA
QNf8UcCPj4zBk9AqQGJGub/MGJnBHtG3QIWrJ8CtwK7BWo7aQDLVbr+xVbrBqlyNQFrU+z6ScpnB
61BqQMLwoMDdr4fBVCzfQN2B/j/0npfBa1rfQHB2cED3HprB32u0QN3wrECgbKTBl1PiQKiTsUC+
/qzBEk2sQPEjXEABb77BoemBQK2qW0BLurTBfl8CQYWPMEBR+qrBAt4QQRSvTECiIr3BdX/uQAju
c0Aza8HBBCwGQf6SlkBWb7fBIN9cQFdoSUDkC6bBxJA9QJGDd0CXponBASIJQBXXeECk25XB

> <OMEGA_E>
QGURP0ysJD8=

> <OMEGA_NBR>
     46822

$$$$
288485
  -OEChem-04172616093D

 40 44  0     1  0  0  0  0  0999 V2000
    5.1201    0.1930  -19.9516 C   0  0  0  0  0  0  0  0  0  0  0  0
    6.3889   -0.5916  -22.3287 C   0  0  0  0  0  0  0  0  0  0  0  0
    5.6570   -3.2430  -18.8530 C   0  0  0  0  0  0  0  0  0  0  0  0
    3.4759   -2.2000  -18.8234 C   0  0  0  0  0  0  0  0  0  0  0  0
    3.8930   -4.1772  -17.6419 C   0  0  0  0  0  0  0  0  0  0  0  0
    5.2883   -1.1794  -20.2362 C   0  0  0  0  0  0  0  0  0  0  0  0
    4.8060   -2.2049  -19.2869 C   0  0  0  0  0  0  0  0  0  0  0  0
    5.6631    1.1888  -20.8124 C   0  0  0  0  0  0  0  0  0  0  0  0
    6.2546    0.7747  -22.0355 C   0  0  0  0  0  0  0  0  0  0  0  0
    5.9494   -1.5656  -21.4221 C   0  0  0  0  0  0  0  0  0  0  0  0
    4.0308    3.1599  -18.8695 C   0  0  0  0  0  0  0  0  0  0  0  0
    7.1924    4.8727  -20.9704 C   0  0  0  0  0  0  0  0  0  0  0  0
    5.9735    4.9101  -21.8975 C   0  0  0  0  0  0  0  0  0  0  0  0
    6.2683    2.7477  -18.9508 C   0  0  0  0  0  0  0  0  0  0  0  0
    7.3959    2.8018  -22.4382 C   0  0  0  0  0  0  0  0  0  0  0  0
    5.6998    2.6724  -20.3706 C   0  0  1  0  0  0  0  0  0  0  0  0
    6.5309    3.5479  -21.4180 C   0  0  0  0  0  0  0  0  0  0  0  0
    5.1906   -4.2092  -18.0345 N   0  0  0  0  0  0  0  0  0  0  0  0
    3.0371   -3.1920  -18.0163 N   0  0  0  0  0  0  0  0  0  0  0  0
    4.3253    3.1733  -20.1572 N   0  3  0  0  0  0  0  0  0  0  0  0
    2.8011    3.4892  -18.3233 N   0  0  0  0  0  0  0  0  0  0  0  0
    6.7141    1.6677  -22.9740 O   0  0  0  0  0  0  0  0  0  0  0  0
    5.1110    2.7532  -18.1172 O   0  0  0  0  0  0  0  0  0  0  0  0
    6.1327   -2.8712  -21.7270 F   0  0  0  0  0  0  0  0  0  0  0  0
    4.5726    0.4914  -19.0698 H   0  0  0  0  0  0  0  0  0  0  0  0
    6.8361   -0.8956  -23.2636 H   0  0  0  0  0  0  0  0  0  0  0  0
    6.6869   -3.2646  -19.1773 H   0  0  0  0  0  0  0  0  0  0  0  0
    2.8063   -1.4036  -19.1129 H   0  0  0  0  0  0  0  0  0  0  0  0
    3.5252   -4.9681  -17.0050 H   0  0  0  0  0  0  0  0  0  0  0  0
    8.1846    5.1488  -21.3568 H   0  0  0  0  0  0  0  0  0  0  0  0
    7.0990    5.2079  -19.9269 H   0  0  0  0  0  0  0  0  0  0  0  0
    5.0062    5.2718  -21.5186 H   0  0  0  0  0  0  0  0  0  0  0  0
    6.0919    5.2127  -22.9484 H   0  0  0  0  0  0  0  0  0  0  0  0
    6.9012    1.8741  -18.7358 H   0  0  0  0  0  0  0  0  0  0  0  0
    6.8546    3.6681  -18.8124 H   0  0  0  0  0  0  0  0  0  0  0  0
    7.6499    3.4871  -23.2603 H   0  0  0  0  0  0  0  0  0  0  0  0
    8.3188    2.4634  -21.9445 H   0  0  0  0  0  0  0  0  0  0  0  0
    3.7080    3.4780  -20.8825 H   0  0  0  0  0  0  0  0  0  0  0  0
    2.6634    3.4377  -17.3341 H   0  0  0  0  0  0  0  0  0  0  0  0
    2.0511    3.7785  -18.9181 H   0  0  0  0  0  0  0  0  0  0  0  0
  1  6  1  0  0  0  0
  1  8  2  0  0  0  0
  2  9  2  0  0  0  0
  2 10  1  0  0  0  0
  3  7  1  0  0  0  0
  3 18  2  0  0  0  0
  4  7  2  0  0  0  0
  4 19  1  0  0  0  0
  5 18  1  0  0  0  0
  5 19  2  0  0  0  0
  6  7  1  0  0  0  0
  6 10  2  0  0  0  0
  8  9  1  0  0  0  0
  8 16  1  0  0  0  0
  9 22  1  0  0  0  0
 10 24  1  0  0  0  0
 11 20  2  0  0  0  0
 11 21  1  0  0  0  0
 11 23  1  0  0  0  0
 12 13  1  0  0  0  0
 12 17  1  0  0  0  0
 13 17  1  0  0  0  0
 14 16  1  0  0  0  0
 14 23  1  0  0  0  0
 15 17  1  0  0  0  0
 15 22  1  0  0  0  0
 16 17  1  0  0  0  0
 16 20  1  0  0  0  0
  1 25  1  0  0  0  0
  2 26  1  0  0  0  0
  3 27  1  0  0  0  0
  4 28  1  0  0  0  0
  5 29  1  0  0  0  0
 12 30  1  0  0  0  0
 12 31  1  0  0  0  0
 13 32  1  0  0  0  0
 13 33  1  0  0  0  0
 14 34  1  0  0  0  0
 14 35  1  0  0  0  0
 15 36  1  0  0  0  0
 15 37  1  0  0  0  0
 20 38  1  0  0  0  0
 21 39  1  0  0  0  0
 21 40  1  0  0  0  0
M  CHG  1  20   1
M  END
> <OMEGA_C>
HNijQKiZRT72nJ/BA3LMQPlzF78vobLBfAa1QOSNT8Da0pbBt3ReQLbMDMBnlpbB7yZ5QMCrhcCa
Io3BuDmpQIb2lr+q46HBBsuZQOIdDcCkS5rBcTi1QDYsmD+4f6bBcSXIQJRVRj/MSLDBqmG+QBxk
yL9qYKvBU/yAQPI7SkCn9JbBPCjmQC3tm0B6w6fB6ia/QOofnUATLq/BMpbIQPbaL0Aum5fBBKvs
QP5PM0B9gbPBm2S2QHgIK0AO96LB/fzQQKwQY0ARWKvBCRmmQKqxhsC2RpDBjmBCQKxJTMB0IZDB
wWiKQMIWS0ABQqHB00UzQEpPX0ASlpLBvNnWQNZ21T+syrfBGI2jQA41MED875DBFD/EQIHCN8Dn
0K3B1VKSQGKZ+z4Nj5jBLcHaQHlEZb/gG7rBevvVQBHvUMA0a5nBYZozQAaos78m55jBuJxhQNH6
nsBQCojBTPQCQdbCpECx2qrBxirjQMqmpkBYap/BHDOgQLmyqED+JazB7/DCQMTOpkBXlrfBsNbc
QP7h7z/84pXB5VjbQM7CakC+f5bB98v0QAksX0AgFbrBtxkFQaWnHUBljq/BVk9tQHSXXkBpD6fB
lHUqQMwCXEBVrIrB7kUDQLjScUBMWJfB1ZKeQHrZfT60SaDBLOzHQLUoFb+zLLPBVp1YQNlcDsAq
d5bB1rOzQBpiScCGh5fB2OZ+QMHChMA+4ozBLJeiQETWkL8vnaLBZPKVQMliCsByu5rBr2uxQBT/
mz9NJ6fB0zfIQE6pRj+yabDBqt21QHxRxL/lTqzBNUOCQCdAT0BWwJbBoca/QDn5oEC8nq7BCzGn
QCYPgkAyL7bBDPDJQIUSPkBO7ZnB5EHtQOL7N0CQOrLB1u6wQFyiLUCwKaTBCUXFQFnvYEB2k63B
TDtDQHxVTsAOq4/BKiCoQGHUg8Dzo5DBGYmFQNlGSkC0PaHBZPs3QKaTVEBPM5HBsYXgQHrVzj9T
4LbBxu6pQNgLTEAg8pHBSEG4QOTlNcCSA6/BTiKNQMuxED8bRpnBRMTVQOoZZr8XrbrBH9kpQOzl
vL+OnJjBlPfTQH+wR8BOnprBQsVsQGoRnsAtdIfBqxnaQFOztEBvwLHBRmSuQO/1skDLbajBb16E
QJ89fEDYW7XB1BOwQGe4f0B8rr7Bcs3dQJBUBkD33pfBO2/eQODidkCyyprBuRr7QEO3YUC5abjB
b38CQccqLUCL36vBYEpcQIPcV0ACbqbBQSg4QFxSVkAUNInBb4wAQEetVkCrMJXB0bmkQLBjVD4N
YZ/BJLbNQC26F7+xW7LBbn9dQMAaDMAVZ5bBPBK0QJaTUMAfEJfBXB54QCb4hcBrMY3B98KoQJB+
lb97zaHB4ROZQNTgDMCGR5rBNLe2QLP8mD/BPqbBERDKQMA2Rj8kCbDBVpu9QDqFx7/eUqvBHsyB
QLBESUCLDJfB1dn9QLjGfEBW16nBjPzYQKjan0AMk6rBjtDJQJJVN0BRtJfBw1zJQGRDP0AzObfB
jXe3QHgFLECr8aLB3YDPQNREYEAD5KvB66NBQAr8S8D2+Y/BZUSlQGtmh8B7j5DB7pqLQCKYTEA3
VaHBWLsyQOQqVkC+y5LB9zvaQH+C0z9kmrfBzxWlQNgrNEDp+JDBWm3BQEhUN8AJ/63Bf9OTQO8T
Az9WP5jBEyjdQLKRZ79urLnBMdYyQLoPsb9Cj5jB+czUQO2TUsCI05nBMtNgQKBMn8BJFojBdugK
QUdneEBwQ7DBcJgGQbdUb0DjGaLBCUnOQLfesECyWaPBFOnWQP9ntUA/g7HB7TbgQFhOA0BOwpXB
7kfaQIJCdUAd8pbBBh+nQAivPkAZQ7nB3qnaQCVmaEDy57zBwY1wQH7mYUA0IKfBCjcpQJdFUEBR
64rBt+IBQJJfZUBSmpfB

> <OMEGA_E>
srwRP6KHFj+sOxk/

> <OMEGA_NBR>
     49250

$$$$
288517
  -OEChem-04172616093D

 54 59  0     1  0  0  0  0  0999 V2000
    6.2288   -0.9879  -21.5768 C   0  0  0  0  0  0  0  0  0  0  0  0
    6.7971    0.0827  -22.2597 C   0  0  0  0  0  0  0  0  0  0  0  0
    5.6552    0.4960  -19.7607 C   0  0  0  0  0  0  0  0  0  0  0  0
    5.6554   -0.7808  -20.3279 C   0  0  0  0  0  0  0  0  0  0  0  0
    6.2342    1.5937  -20.4254 C   0  0  0  0  0  0  0  0  0  0  0  0
    6.7930    1.3632  -21.6935 C   0  0  0  0  0  0  0  0  0  0  0  0
    5.7667   -2.9966  -19.2550 C   0  0  0  0  0  0  0  0  0  0  0  0
    5.0408   -1.9156  -19.5980 C   0  0  0  0  0  0  0  0  0  0  0  0
    5.1871    3.1864  -17.7758 C   0  0  0  0  0  0  0  0  0  0  0  0
    5.2122   -4.1734  -18.5052 C   0  0  0  0  0  0  0  0  0  0  0  0
    3.5739   -1.8101  -19.2447 C   0  0  0  0  0  0  0  0  0  0  0  0
    3.8296   -3.9223  -17.9058 C   0  0  0  0  0  0  0  0  0  0  0  0
    2.9419   -3.1559  -18.8781 C   0  0  0  0  0  0  0  0  0  0  0  0
    7.1050    4.8974  -23.7952 C   0  0  0  0  0  0  0  0  0  0  0  0
    6.1170    4.5133  -22.6780 C   0  0  0  0  0  0  0  0  0  0  0  0
    8.2431    4.6719  -22.7817 C   0  0  0  0  0  0  0  0  0  0  0  0
    4.8084    3.6207  -19.9009 C   0  0  0  0  0  0  0  0  0  0  0  0
    8.7471    3.6447  -19.9501 C   0  0  0  0  0  0  0  0  0  0  0  0
    7.4899    5.2845  -19.8976 C   0  0  0  0  0  0  0  0  0  0  0  0
    6.2056    2.9839  -19.8107 C   0  0  2  0  0  0  0  0  0  0  0  0
    7.2905    3.8581  -20.4516 C   0  0  0  0  0  0  0  0  0  0  0  0
    7.2776    3.7104  -22.0126 C   0  0  0  0  0  0  0  0  0  0  0  0
    6.3454    2.9130  -18.3580 N   0  3  0  0  0  0  0  0  0  0  0  0
    4.9481    3.2022  -16.4773 N   0  0  0  0  0  0  0  0  0  0  0  0
    7.3915    2.3347  -22.4598 O   0  0  0  0  0  0  0  0  0  0  0  0
    4.1754    3.4412  -18.6176 O   0  0  0  0  0  0  0  0  0  0  0  0
    8.9022    5.0583  -19.6815 O   0  0  0  0  0  0  0  0  0  0  0  0
    6.2387   -1.9748  -22.0326 H   0  0  0  0  0  0  0  0  0  0  0  0
    7.2424   -0.0840  -23.2374 H   0  0  0  0  0  0  0  0  0  0  0  0
    5.1916    0.6329  -18.7859 H   0  0  0  0  0  0  0  0  0  0  0  0
    6.8171   -3.0563  -19.5333 H   0  0  0  0  0  0  0  0  0  0  0  0
    5.1654   -5.0254  -19.1939 H   0  0  0  0  0  0  0  0  0  0  0  0
    5.9047   -4.4504  -17.7021 H   0  0  0  0  0  0  0  0  0  0  0  0
    3.4674   -1.1150  -18.4017 H   0  0  0  0  0  0  0  0  0  0  0  0
    3.0133   -1.3825  -20.0854 H   0  0  0  0  0  0  0  0  0  0  0  0
    3.3628   -4.8772  -17.6391 H   0  0  0  0  0  0  0  0  0  0  0  0
    3.9307   -3.3475  -16.9763 H   0  0  0  0  0  0  0  0  0  0  0  0
    1.9541   -2.9898  -18.4337 H   0  0  0  0  0  0  0  0  0  0  0  0
    2.7885   -3.7530  -19.7861 H   0  0  0  0  0  0  0  0  0  0  0  0
    7.1162    4.1938  -24.6355 H   0  0  0  0  0  0  0  0  0  0  0  0
    7.0094    5.9140  -24.1845 H   0  0  0  0  0  0  0  0  0  0  0  0
    5.7451    5.3800  -22.1220 H   0  0  0  0  0  0  0  0  0  0  0  0
    5.2593    3.9230  -23.0138 H   0  0  0  0  0  0  0  0  0  0  0  0
    9.1363    4.2002  -23.2039 H   0  0  0  0  0  0  0  0  0  0  0  0
    8.5558    5.5919  -22.2813 H   0  0  0  0  0  0  0  0  0  0  0  0
    4.8431    4.7007  -20.0744 H   0  0  0  0  0  0  0  0  0  0  0  0
    4.1717    3.1727  -20.6713 H   0  0  0  0  0  0  0  0  0  0  0  0
    8.8804    3.0601  -19.0353 H   0  0  0  0  0  0  0  0  0  0  0  0
    9.4794    3.2945  -20.6841 H   0  0  0  0  0  0  0  0  0  0  0  0
    7.3061    6.1271  -20.5682 H   0  0  0  0  0  0  0  0  0  0  0  0
    6.9919    5.5025  -18.9462 H   0  0  0  0  0  0  0  0  0  0  0  0
    7.1586    2.6869  -17.7966 H   0  0  0  0  0  0  0  0  0  0  0  0
    5.6870    2.9920  -15.8087 H   0  0  0  0  0  0  0  0  0  0  0  0
    4.0209    3.4250  -16.1207 H   0  0  0  0  0  0  0  0  0  0  0  0
  1  2  1  0  0  0  0
  1  4  2  0  0  0  0
  2  6  2  0  0  0  0
  3  4  1  0  0  0  0
  3  5  2  0  0  0  0
  4  8  1  0  0  0  0
  5  6  1  0  0  0  0
  5 20  1  0  0  0  0
  6 25  1  0  0  0  0
  7  8  2  0  0  0  0
  7 10  1  0  0  0  0
  8 11  1  0  0  0  0
  9 23  2  0  0  0  0
  9 24  1  0  0  0  0
  9 26  1  0  0  0  0
 10 12  1  0  0  0  0
 11 13  1  0  0  0  0
 12 13  1  0  0  0  0
 14 15  1  0  0  0  0
 14 16  1  0  0  0  0
 15 22  1  0  0  0  0
 16 22  1  0  0  0  0
 17 20  1  0  0  0  0
 17 26  1  0  0  0  0
 18 21  1  0  0  0  0
 18 27  1  0  0  0  0
 19 21  1  0  0  0  0
 19 27  1  0  0  0  0
 20 21  1  0  0  0  0
 20 23  1  0  0  0  0
 21 22  1  0  0  0  0
 22 25  1  0  0  0  0
  1 28  1  0  0  0  0
  2 29  1  0  0  0  0
  3 30  1  0  0  0  0
  7 31  1  0  0  0  0
 10 32  1  0  0  0  0
 10 33  1  0  0  0  0
 11 34  1  0  0  0  0
 11 35  1  0  0  0  0
 12 36  1  0  0  0  0
 12 37  1  0  0  0  0
 13 38  1  0  0  0  0
 13 39  1  0  0  0  0
 14 40  1  0  0  0  0
 14 41  1  0  0  0  0
 15 42  1  0  0  0  0
 15 43  1  0  0  0  0
 16 44  1  0  0  0  0
 16 45  1  0  0  0  0
 17 46  1  0  0  0  0
 17 47  1  0  0  0  0
 18 48  1  0  0  0  0
 18 49  1  0  0  0  0
 19 50  1  0  0  0  0
 19 51  1  0  0  0  0
 23 52  1  0  0  0  0
 24 53  1  0  0  0  0
 24 54  1  0  0  0  0
M  CHG  1  23   1
M  END
> <OMEGA_C>
gFLHQALnfL9ZnazBFYLZQNBnqT3TE7LBuve0QFb0/T7vFZ7BJvm0QDziR7+Fn6LBXX7HQLb/yz81
Z6PBc2DZQHZ9rj9AjK3BuIi4QMTIP8AoCprB702hQDUz9b+0yJzB+fylQGzuS0DoNI7Bu8qmQB6M
hcCcCpTBHbpkQLSw578g9ZnB2Bd1QHQHe8AOP4/BWkg8QCL6ScBlBpfBDVzjQDK3nECOXL7BJr7D
QN5skECjbLXB8OMDQd1/lUDmQLbBb96ZQHK5Z0D1NJ/BDPQLQQhDaUDImZ/BKa3vQFcaqUA4Lp/B
8ZPGQN74PkBJfJ7B4EvpQKTrdkDInKPBHOLoQMV3bUC/GbDBUQ3LQH5uOkAn3ZLBeFaeQITxTEBv
0YPBP4fsQBVsFUC6rbPB25yFQCc9XEDZ8JTBSG8OQfndoUC2c53BqaPHQNzE/L+zQrDBbMHnQJj3
q7035rnB2CGmQIcFIj97SZbBaiXaQHKaQ8BERJzB+0qlQHTQoMAijZnB+fK8QFJpjsDlnY3BYOpd
QDW3jr+0NpPBL9lAQMz0sL/erqDB4TdXQCISnMDJHI3BlpB7QMA9VsB2z4fBKCD6Px5YP8AzeJPB
n3YyQNowcMDVSZ7BC7jjQMgzhkCMFcXB3EzgQFk/vUDbecHBjde3QKYorEDZ+bDBPEyoQD4Te0Av
HLjBOC4SQWdohkCGobnBm+QIQRDxskAwQLLBdPqaQL9rlkBNmKDB1X6FQMINS0DjXqXBPRYOQcLY
Q0BBSJjBxKsXQXLZUkAieaXBiMvpQNwQxECli6TBjL3fQHkUsEDqkZfBOhPlQHn1K0BcX47BqPu1
QBZ9P0BS8HzB9qqAQJcyW0Aw94DBslLCQB0SyL9msqnBuizWQHIoK7+toLDBOt6zQIKLgT40fp3B
eBexQN4Fjb9mIqDBIB/IQHudlj/sUaTBCdXYQPKaMD/C/63BR7ybQMR367/HGI7BRambQIkSA8BK
vZjB2zWrQJ7AUUBFsJHBWleGQFbnL8AnLIbBy3qFQIjgT8Aqlp3BXwBRQDKTccD/TYvB/UB4QLJa
i8AAc5XB937oQEcfcUCKmsPBZM7IQHymaUD3NrrB6noGQZHraUC0W7vBgMyeQCVjVkB6BKPBr00O
QQiPR0B+oKPBNqn3QL4gmkC5fqXBMzzKQFLLKUAOd6HBqjruQCoaVUA8z6fBO67sQD4cOkCp4rPB
rlrPQJFNNUCG75XBHVCkQH16YkBpeofBAmntQPkxvD9ucrXBHu+KQFY+XEBNoZjB3TgSQRNskUDl
iaPB0nrAQIZJJ8Af4KvB4YnjQAVZhL9fG7jBp9ulQFf7Fj88/pXBWFKsQIINer9UyYrBYFefQBYQ
UcDAnoHBPC9oQMpiCcBTcIDBcL9OQAJ6OsClPKHBwx6ZQCT7asCQBqTBrAxDQCVoksAOlIXBJrMT
QPoUU8ApRI3BfL9MQI7tosDp/ZjBndaZQBJNnMCtdZPBxAjnQPZLO0DWNsnBIzPnQJ18lkB6HcjB
GOm+QEL4k0C/DrfB6BasQAUrREA++bvBnCsUQYnlQ0DuDL7BCYAMQT8YlECYv7jBRuehQJQTjEBP
7aXBqy2JQM8DNECGaajBoh0QQSiwLEADmZvBenUZQTFDJkCa8KjB2Q7zQC4psUDU96vBbLLoQKVj
p0BdS57BjDHpQC44KkB3O5HBTt67QFrpWUBQ84HBy1OHQJE/eEAE8oTBMHTPQEyk8b4a4qrBuDvk
QDBkGz8mna/By5SxQBlGgj/1pJ3BlA22QJBLiL4G6KHBrZDGQJD2B0CfOKLBzqPfQBt/8j+mXavB
G4O1QFaPHcBD9JjBVJufQOaAtL+R3JzBiOmUQDIFbkD4HY/B5OKgQGhPacAEqZPBFKReQFiFrL+g
MZzBQGdjQKKdW8Bd9ZDBJjo1QEpVLcDx/5nBgCTyQJsGrUB1BLzBOwPNQMY1oEC0k7TBaS4IQfV2
p0AlYbLBbsOUQByLg0A+c6DBgXsIQc5riECeNpvB2IrnQIaQu0Dl2pzBZdHAQHhfYUDKpJ3BI83l
QAV+jUBVRqHBBXzuQGQNiEADjq3BD/W8QPJvXkATAJLB+u2FQDGzb0DgPYXBHvH1QHrzN0DgsbDB
BlFzQMJve0A7OpfB7XoJQYPptUDXGZnBM1HTQGdtu7/ITK7B6AH4QJzr4T5ZpbbBFEadQI2Ykz8h
qJbByjfYQHRsH8BzopnB1yukQJhDkMBPA5nBtVWyQNbZeMCbTozBb/RMQLcPJb9N0pXBIi9EQJhg
c7+sraPBt8hEQNa2jMAwYI/BPAReQEDNNcD6lonBIUvjPw1hJMCe8JfBAR43QJKpVMAgRaHBlPv3
QPoolkDsgMLBDGbwQOVCzUDNYL/BJEy9QEjJu0B73rDBmIK0QJJIjED2WbjBGKsXQSAhmUDxWbTB
lToLQQZxxUDjI67BUtKVQM0JpkC876HBZpKFQJFnaEBMWqfBiTwIQQWObEA0u5PBo0YWQblRe0B2
45/BLc3kQPcD1kA3h6LBzzXSQHpxwkBIHZbBWovTQIgvUkBjYozBhoyZQAFoZEA6yH3Bdv5MQDRS
fECvy4PB

> <OMEGA_E>
K5ocwR2e+cC0LPvA

> <OMEGA_NBR>
     52227

$$$$
288529
  -OEChem-04172616093D

 49 53  0     1  0  0  0  0  0999 V2000
    5.7172   -1.5844  -21.6116 C   0  0  0  0  0  0  0  0  0  0  0  0
    6.2753   -0.6182  -22.4639 C   0  0  0  0  0  0  0  0  0  0  0  0
    5.3026    0.1378  -19.9454 C   0  0  0  0  0  0  0  0  0  0  0  0
    5.3392   -3.4827  -19.2971 C   0  0  0  0  0  0  0  0  0  0  0  0
    3.6137   -1.9138  -18.5728 C   0  0  0  0  0  0  0  0  0  0  0  0
    3.7579   -4.1238  -17.5536 C   0  0  0  0  0  0  0  0  0  0  0  0
    5.2489   -1.2111  -20.3364 C   0  0  0  0  0  0  0  0  0  0  0  0
    4.7189   -2.2187  -19.4012 C   0  0  0  0  0  0  0  0  0  0  0  0
    5.8256    1.1279  -20.8077 C   0  0  0  0  0  0  0  0  0  0  0  0
    6.3709    0.7269  -22.0591 C   0  0  0  0  0  0  0  0  0  0  0  0
    4.8614   -4.4295  -18.3727 C   0  0  0  0  0  0  0  0  0  0  0  0
    3.1360   -2.8650  -17.6529 C   0  0  0  0  0  0  0  0  0  0  0  0
    5.4278    2.9804  -18.1620 C   0  0  0  0  0  0  0  0  0  0  0  0
    4.2975    2.9829  -20.0696 C   0  0  0  0  0  0  0  0  0  0  0  0
    5.3239    4.1758  -22.5499 C   0  0  0  0  0  0  0  0  0  0  0  0
    6.6370    5.0332  -21.1661 C   0  0  0  0  0  0  0  0  0  0  0  0
    5.7421    2.6104  -20.4076 C   0  0  2  0  0  0  0  0  0  0  0  0
    6.3743    3.5166  -21.5487 C   0  0  0  0  0  0  0  0  0  0  0  0
    7.5434    2.8201  -22.3316 C   0  0  0  0  0  0  0  0  0  0  0  0
    8.7428    2.5043  -21.3957 C   0  0  0  0  0  0  0  0  0  0  0  0
    8.1144    3.6593  -23.5212 C   0  0  0  0  0  0  0  0  0  0  0  0
    6.3706    2.8339  -19.0815 N   0  3  0  0  0  0  0  0  0  0  0  0
    5.5737    3.4733  -16.8838 N   0  0  0  0  0  0  0  0  0  0  0  0
    7.0217    1.5993  -22.9141 O   0  0  0  0  0  0  0  0  0  0  0  0
    4.1952    2.7080  -18.6880 O   0  0  0  0  0  0  0  0  0  0  0  0
    5.7734    5.4471  -22.1855 O   0  0  0  0  0  0  0  0  0  0  0  0
    5.4687   -5.6314  -18.2657 F   0  0  0  0  0  0  0  0  0  0  0  0
    2.0880   -2.5640  -16.8545 F   0  0  0  0  0  0  0  0  0  0  0  0
    5.6469   -2.6129  -21.9334 H   0  0  0  0  0  0  0  0  0  0  0  0
    6.6349   -0.9097  -23.4397 H   0  0  0  0  0  0  0  0  0  0  0  0
    4.9381    0.4225  -18.9695 H   0  0  0  0  0  0  0  0  0  0  0  0
    6.1820   -3.7233  -19.9282 H   0  0  0  0  0  0  0  0  0  0  0  0
    3.1353   -0.9484  -18.6466 H   0  0  0  0  0  0  0  0  0  0  0  0
    3.3887   -4.8548  -16.8495 H   0  0  0  0  0  0  0  0  0  0  0  0
    4.1092    4.0474  -20.2727 H   0  0  0  0  0  0  0  0  0  0  0  0
    3.5892    2.3688  -20.6451 H   0  0  0  0  0  0  0  0  0  0  0  0
    5.4938    3.9256  -23.6075 H   0  0  0  0  0  0  0  0  0  0  0  0
    4.2729    3.9798  -22.2910 H   0  0  0  0  0  0  0  0  0  0  0  0
    6.2996    5.3051  -20.1551 H   0  0  0  0  0  0  0  0  0  0  0  0
    7.6796    5.3558  -21.3038 H   0  0  0  0  0  0  0  0  0  0  0  0
    9.5420    2.0182  -21.9744 H   0  0  0  0  0  0  0  0  0  0  0  0
    9.1232    3.4396  -20.9592 H   0  0  0  0  0  0  0  0  0  0  0  0
    8.4122    1.8317  -20.5906 H   0  0  0  0  0  0  0  0  0  0  0  0
    8.9246    3.0987  -24.0104 H   0  0  0  0  0  0  0  0  0  0  0  0
    7.3132    3.8558  -24.2489 H   0  0  0  0  0  0  0  0  0  0  0  0
    8.5068    4.6140  -23.1412 H   0  0  0  0  0  0  0  0  0  0  0  0
    7.3550    2.8686  -18.9085 H   0  0  0  0  0  0  0  0  0  0  0  0
    4.7669    3.6403  -16.3172 H   0  0  0  0  0  0  0  0  0  0  0  0
    6.4865    3.6642  -16.5227 H   0  0  0  0  0  0  0  0  0  0  0  0
  1  2  2  0  0  0  0
  1  7  1  0  0  0  0
  2 10  1  0  0  0  0
  3  7  2  0  0  0  0
  3  9  1  0  0  0  0
  4  8  1  0  0  0  0
  4 11  2  0  0  0  0
  5  8  2  0  0  0  0
  5 12  1  0  0  0  0
  6 11  1  0  0  0  0
  6 12  2  0  0  0  0
  7  8  1  0  0  0  0
  9 10  2  0  0  0  0
  9 17  1  0  0  0  0
 10 24  1  0  0  0  0
 11 27  1  0  0  0  0
 12 28  1  0  0  0  0
 13 22  2  0  0  0  0
 13 23  1  0  0  0  0
 13 25  1  0  0  0  0
 14 17  1  0  0  0  0
 14 25  1  0  0  0  0
 15 18  1  0  0  0  0
 15 26  1  0  0  0  0
 16 18  1  0  0  0  0
 16 26  1  0  0  0  0
 17 18  1  0  0  0  0
 17 22  1  0  0  0  0
 18 19  1  0  0  0  0
 19 20  1  0  0  0  0
 19 21  1  0  0  0  0
 19 24  1  0  0  0  0
  1 29  1  0  0  0  0
  2 30  1  0  0  0  0
  3 31  1  0  0  0  0
  4 32  1  0  0  0  0
  5 33  1  0  0  0  0
  6 34  1  0  0  0  0
 14 35  1  0  0  0  0
 14 36  1  0  0  0  0
 15 37  1  0  0  0  0
 15 38  1  0  0  0  0
 16 39  1  0  0  0  0
 16 40  1  0  0  0  0
 20 41  1  0  0  0  0
 20 42  1  0  0  0  0
 20 43  1  0  0  0  0
 21 44  1  0  0  0  0
 21 45  1  0  0  0  0
 21 46  1  0  0  0  0
 22 47  1  0  0  0  0
 23 48  1  0  0  0  0
 23 49  1  0  0  0  0
M  CHG  1  22   1
M  END
> <OMEGA_C>
PvO2QMPMyr+n5KzBoc/IQMJAHr8QtrPBOK+pQEYVDT5HkJ/B5tqqQCflXsB4YJrBxEZnQKj49L8M
lZTBX4FwQDD2g8DSbYzBHPenQCgEm7/wsKLBRgGXQJL/DcC9NZvBcGu6QD5fkD8zdqbBod7LQA4Z
Oj8IebDBTJCbQFW+jcBP+5LB6LRIQClcN8A2OY3BtbCtQFm+PkCxS5HBbYWJQG3nPkCIjqDBWl2q
QOafhUA/ZrTBrGLUQNcPoUA2VKnBo7+3QGUQJ0DRQqPBOvrLQPQPYUC8Y6zBnGPxQBV9NEAkp7LB
bOILQT9HIEB7KqvBb9QBQZUxakBwK7zBOtzLQEVeNUDoppjBIVyyQAJLXkAdEofBsrHgQIa2zD8J
ULfBPj+GQKZQLUD6gJXBcr+4QItOrkDre7HBRP+uQCo0tMAPIJLBm6EFQF0YJMAe1obBUrO0QC46
J8Cld6/BYlHUQOXgaL9vhLvB1gSeQNtU2D6XwZfBGdPFQLxJbsDlbJ/BRalIQLTIcr87LJXBMuFY
QDRam8C5y4bBfX6DQHmEgUCSLqLByrVlQC6bF0BBKaXB2syvQNg8e0BA3LzBpruIQL61fkAAVLLB
9ZXJQFvDqUCkPaHBiL/1QHpiq0ApbqrBKqwYQQIrAUCsy6/BsvgRQWciXEBvrKfBf5gGQdB16j97
uaTBBMsOQV5RRkBiFcDBAgbqQL/EdkDS/cHBxhsIQUumk0AnIbnBwVvrQOSWN0CwRJfBWIqYQDv6
aECWiYLBppHPQHyCakCXLoTB

> <OMEGA_E>
UABcPw==

> <OMEGA_NBR>
     55475

$$$$
288533
  -OEChem-04172616093D

 48 52  0     1  0  0  0  0  0999 V2000
    5.9764   -1.6187  -21.5314 C   0  0  0  0  0  0  0  0  0  0  0  0
    6.5307   -0.6212  -22.3535 C   0  0  0  0  0  0  0  0  0  0  0  0
    5.0110    0.0926  -20.1058 C   0  0  0  0  0  0  0  0  0  0  0  0
    5.6539   -3.2508  -18.9823 C   0  0  0  0  0  0  0  0  0  0  0  0
    3.8879   -4.1290  -17.5711 C   0  0  0  0  0  0  0  0  0  0  0  0
    5.2183   -1.2614  -20.3986 C   0  0  0  0  0  0  0  0  0  0  0  0
    4.7454   -2.2851  -19.4523 C   0  0  0  0  0  0  0  0  0  0  0  0
    5.5444    1.1036  -20.9305 C   0  0  0  0  0  0  0  0  0  0  0  0
    6.3620    0.7417  -22.0426 C   0  0  0  0  0  0  0  0  0  0  0  0
    5.2212   -4.1755  -18.0235 C   0  0  0  0  0  0  0  0  0  0  0  0
    3.4132   -2.2910  -18.9546 C   0  0  0  0  0  0  0  0  0  0  0  0
    5.7753    3.3497  -18.3793 C   0  0  0  0  0  0  0  0  0  0  0  0
    4.1103    2.9277  -19.8294 C   0  0  0  0  0  0  0  0  0  0  0  0
    4.9004    3.8550  -22.6227 C   0  0  0  0  0  0  0  0  0  0  0  0
    5.9719    5.0480  -21.2758 C   0  0  0  0  0  0  0  0  0  0  0  0
    5.4883    2.5288  -20.4326 C   0  0  2  0  0  0  0  0  0  0  0  0
    6.0215    3.4872  -21.5644 C   0  0  0  0  0  0  0  0  0  0  0  0
    7.3377    2.9682  -22.2532 C   0  0  0  0  0  0  0  0  0  0  0  0
    8.5292    2.8516  -21.2593 C   0  0  0  0  0  0  0  0  0  0  0  0
    7.8434    3.8884  -23.4128 C   0  0  0  0  0  0  0  0  0  0  0  0
    3.0145   -3.2059  -18.0384 N   0  0  0  0  0  0  0  0  0  0  0  0
    6.3416    2.5776  -19.2569 N   0  3  0  0  0  0  0  0  0  0  0  0
    6.5132    4.2938  -17.7118 N   0  0  0  0  0  0  0  0  0  0  0  0
    7.0586    1.6607  -22.8280 O   0  0  0  0  0  0  0  0  0  0  0  0
    4.4074    3.2492  -18.4648 O   0  0  0  0  0  0  0  0  0  0  0  0
    5.0459    5.2103  -22.3123 O   0  0  0  0  0  0  0  0  0  0  0  0
    6.0815   -5.0921  -17.5276 F   0  0  0  0  0  0  0  0  0  0  0  0
    2.2138   -1.1626  -19.5598 Cl  0  0  0  0  0  0  0  0  0  0  0  0
    6.1321   -2.6607  -21.7688 H   0  0  0  0  0  0  0  0  0  0  0  0
    7.0915   -0.9034  -23.2323 H   0  0  0  0  0  0  0  0  0  0  0  0
    4.4337    0.3660  -19.2350 H   0  0  0  0  0  0  0  0  0  0  0  0
    6.6675   -3.2786  -19.3542 H   0  0  0  0  0  0  0  0  0  0  0  0
    3.5549   -4.8458  -16.8350 H   0  0  0  0  0  0  0  0  0  0  0  0
    3.6917    3.7993  -20.3539 H   0  0  0  0  0  0  0  0  0  0  0  0
    3.4008    2.0891  -19.8877 H   0  0  0  0  0  0  0  0  0  0  0  0
    5.1632    3.6020  -23.6605 H   0  0  0  0  0  0  0  0  0  0  0  0
    3.9078    3.4447  -22.3854 H   0  0  0  0  0  0  0  0  0  0  0  0
    5.5823    5.3085  -20.2806 H   0  0  0  0  0  0  0  0  0  0  0  0
    6.9279    5.5661  -21.4424 H   0  0  0  0  0  0  0  0  0  0  0  0
    9.4185    2.4859  -21.7935 H   0  0  0  0  0  0  0  0  0  0  0  0
    8.7428    3.8397  -20.8256 H   0  0  0  0  0  0  0  0  0  0  0  0
    8.2688    2.1470  -20.4558 H   0  0  0  0  0  0  0  0  0  0  0  0
    8.7621    3.4642  -23.8441 H   0  0  0  0  0  0  0  0  0  0  0  0
    7.0696    3.9551  -24.1918 H   0  0  0  0  0  0  0  0  0  0  0  0
    8.0539    4.8933  -23.0180 H   0  0  0  0  0  0  0  0  0  0  0  0
    7.2129    2.1000  -19.1435 H   0  0  0  0  0  0  0  0  0  0  0  0
    6.0522    5.0238  -17.2073 H   0  0  0  0  0  0  0  0  0  0  0  0
    7.5122    4.2521  -17.7298 H   0  0  0  0  0  0  0  0  0  0  0  0
  1  2  2  0  0  0  0
  1  6  1  0  0  0  0
  2  9  1  0  0  0  0
  3  6  2  0  0  0  0
  3  8  1  0  0  0  0
  4  7  1  0  0  0  0
  4 10  2  0  0  0  0
  5 10  1  0  0  0  0
  5 21  2  0  0  0  0
  6  7  1  0  0  0  0
  7 11  2  0  0  0  0
  8  9  2  0  0  0  0
  8 16  1  0  0  0  0
  9 24  1  0  0  0  0
 10 27  1  0  0  0  0
 11 21  1  0  0  0  0
 11 28  1  0  0  0  0
 12 22  2  0  0  0  0
 12 23  1  0  0  0  0
 12 25  1  0  0  0  0
 13 16  1  0  0  0  0
 13 25  1  0  0  0  0
 14 17  1  0  0  0  0
 14 26  1  0  0  0  0
 15 17  1  0  0  0  0
 15 26  1  0  0  0  0
 16 17  1  0  0  0  0
 16 22  1  0  0  0  0
 17 18  1  0  0  0  0
 18 19  1  0  0  0  0
 18 20  1  0  0  0  0
 18 24  1  0  0  0  0
  1 29  1  0  0  0  0
  2 30  1  0  0  0  0
  3 31  1  0  0  0  0
  4 32  1  0  0  0  0
  5 33  1  0  0  0  0
 13 34  1  0  0  0  0
 13 35  1  0  0  0  0
 14 36  1  0  0  0  0
 14 37  1  0  0  0  0
 15 38  1  0  0  0  0
 15 39  1  0  0  0  0
 19 40  1  0  0  0  0
 19 41  1  0  0  0  0
 19 42  1  0  0  0  0
 20 43  1  0  0  0  0
 20 44  1  0  0  0  0
 20 45  1  0  0  0  0
 22 46  1  0  0  0  0
 23 47  1  0  0  0  0
 23 48  1  0  0  0  0
M  CHG  1  22   1
M  END
> <OMEGA_C>
ej6/QFUwz79BQKzBaPvQQC8EH78A1LLBC1qgQG2OvT2w2KDBJO20QPkMUMCt25fB/9J4QBohhMCM
kYzBUvymQJN1ob9qMKPBQdqXQHw/EsBYnpvBhGuxQFJCjT+ZcafBaZXLQGfgPT85V7DBQxSnQMed
hcAwMJDBLHFaQJSfEsAVo5fBos+4QOlhVkDKCJPB1YeDQDdfO0CSop7BOdCcQDO4dkBh+7TB+Rm/
QCaJoUDINKrBIKCvQJDYIUD9daPB66/AQKwuX0Dkg6zBEM7qQDb3PUCRBrLBwncIQTKBNkAVE6rB
HP36QF/beEBiTbvB5uxAQEguTcCdTpDBx+7KQIb3JEApDprBAGzQQLFmiUDVsY3BYODhQAuS1D/Y
n7bBgwmNQFzyT0Dxt5PBFHihQL+6pkCgf7LB8ZvCQFnyosB2OIzBWa8NQJ3QlL+DepzBSDrEQGZI
KsB+Jq7BQ+3iQFJIZ7+727nB/+CNQORjuz4v4ZnBH1zVQJrUUcBv1ZrB0oNjQHwQm8ABrobBbUVs
QDEnc0DM1KLBaadZQM6zBUD0GZ/BzTilQLaGZkCzSL3BUhl6QJJ1XEBCFbPBCKKyQDjfqUC5PqLB
G7HdQDAdskAIiqvBWrIWQWMZH0AqWa7BUOILQY29dUC8mqbB00wEQRFoCUCGpaPBmjEMQRu1XUCs
wL7BdjriQIcgfUDHiMHBqtwAQfeVnEDmJLjBss/mQNRlBkDuJZnBY6vBQL/CoEB7qInBkWPwQE8R
iECI1o3B

> <OMEGA_E>
FtdLPw==

> <OMEGA_NBR>
     56575

$$$$
288534
  -OEChem-04172616093D

 48 52  0     1  0  0  0  0  0999 V2000
    2.8929   -3.6180  -18.7062 C   0  0  0  0  0  0  0  0  0  0  0  0
    3.4166   -2.6415  -19.5675 C   0  0  0  0  0  0  0  0  0  0  0  0
    5.9570   -1.5965  -21.4652 C   0  0  0  0  0  0  0  0  0  0  0  0
    6.4986   -0.6212  -22.3167 C   0  0  0  0  0  0  0  0  0  0  0  0
    5.1927    0.1580  -19.9516 C   0  0  0  0  0  0  0  0  0  0  0  0
    3.7128   -4.1498  -17.6891 C   0  0  0  0  0  0  0  0  0  0  0  0
    5.3148   -1.2070  -20.2768 C   0  0  0  0  0  0  0  0  0  0  0  0
    4.7477   -2.2251  -19.3861 C   0  0  0  0  0  0  0  0  0  0  0  0
    5.7079    1.1571  -20.8146 C   0  0  0  0  0  0  0  0  0  0  0  0
    6.4029    0.7483  -21.9960 C   0  0  0  0  0  0  0  0  0  0  0  0
    5.5191   -2.7988  -18.3452 C   0  0  0  0  0  0  0  0  0  0  0  0
    5.6324    3.0870  -18.1829 C   0  0  0  0  0  0  0  0  0  0  0  0
    4.1511    2.9776  -19.9083 C   0  0  0  0  0  0  0  0  0  0  0  0
    4.8013    3.8836  -22.6886 C   0  0  0  0  0  0  0  0  0  0  0  0
    5.9718    5.0929  -21.4394 C   0  0  0  0  0  0  0  0  0  0  0  0
    5.5555    2.6491  -20.4471 C   0  0  2  0  0  0  0  0  0  0  0  0
    5.9858    3.5254  -21.6845 C   0  0  0  0  0  0  0  0  0  0  0  0
    7.2728    2.9738  -22.4153 C   0  0  0  0  0  0  0  0  0  0  0  0
    8.5183    2.9469  -21.4787 C   0  0  0  0  0  0  0  0  0  0  0  0
    7.6839    3.7951  -23.6785 C   0  0  0  0  0  0  0  0  0  0  0  0
    4.9945   -3.7406  -17.5237 N   0  0  0  0  0  0  0  0  0  0  0  0
    6.3814    2.9726  -19.2635 N   0  3  0  0  0  0  0  0  0  0  0  0
    6.1183    3.2889  -16.9006 N   0  0  0  0  0  0  0  0  0  0  0  0
    7.0001    1.6308  -22.8843 O   0  0  0  0  0  0  0  0  0  0  0  0
    4.2965    2.9473  -18.4861 O   0  0  0  0  0  0  0  0  0  0  0  0
    5.0056    5.2479  -22.4434 O   0  0  0  0  0  0  0  0  0  0  0  0
    7.1788   -2.3007  -18.0925 Cl  0  0  0  0  0  0  0  0  0  0  0  0
    1.8744   -3.9583  -18.8209 H   0  0  0  0  0  0  0  0  0  0  0  0
    2.8096   -2.2181  -20.3540 H   0  0  0  0  0  0  0  0  0  0  0  0
    6.0332   -2.6427  -21.7221 H   0  0  0  0  0  0  0  0  0  0  0  0
    6.9942   -0.9232  -23.2275 H   0  0  0  0  0  0  0  0  0  0  0  0
    4.7009    0.4464  -19.0344 H   0  0  0  0  0  0  0  0  0  0  0  0
    3.3098   -4.9011  -17.0262 H   0  0  0  0  0  0  0  0  0  0  0  0
    3.8289    3.9741  -20.2449 H   0  0  0  0  0  0  0  0  0  0  0  0
    3.4213    2.2247  -20.2406 H   0  0  0  0  0  0  0  0  0  0  0  0
    4.9883    3.5816  -23.7296 H   0  0  0  0  0  0  0  0  0  0  0  0
    3.8156    3.5130  -22.3707 H   0  0  0  0  0  0  0  0  0  0  0  0
    5.6272    5.3865  -20.4368 H   0  0  0  0  0  0  0  0  0  0  0  0
    6.9288    5.5892  -21.6581 H   0  0  0  0  0  0  0  0  0  0  0  0
    9.3853    2.5566  -22.0319 H   0  0  0  0  0  0  0  0  0  0  0  0
    8.7358    3.9667  -21.1285 H   0  0  0  0  0  0  0  0  0  0  0  0
    8.3129    2.2984  -20.6142 H   0  0  0  0  0  0  0  0  0  0  0  0
    8.5837    3.3505  -24.1286 H   0  0  0  0  0  0  0  0  0  0  0  0
    6.8621    3.7789  -24.4095 H   0  0  0  0  0  0  0  0  0  0  0  0
    7.8951    4.8345  -23.3871 H   0  0  0  0  0  0  0  0  0  0  0  0
    7.3744    3.0890  -19.2799 H   0  0  0  0  0  0  0  0  0  0  0  0
    5.4850    3.3407  -16.1283 H   0  0  0  0  0  0  0  0  0  0  0  0
    7.1021    3.3827  -16.7476 H   0  0  0  0  0  0  0  0  0  0  0  0
  1  2  2  0  0  0  0
  1  6  1  0  0  0  0
  2  8  1  0  0  0  0
  3  4  2  0  0  0  0
  3  7  1  0  0  0  0
  4 10  1  0  0  0  0
  5  7  2  0  0  0  0
  5  9  1  0  0  0  0
  6 21  2  0  0  0  0
  7  8  1  0  0  0  0
  8 11  2  0  0  0  0
  9 10  2  0  0  0  0
  9 16  1  0  0  0  0
 10 24  1  0  0  0  0
 11 21  1  0  0  0  0
 11 27  1  0  0  0  0
 12 22  2  0  0  0  0
 12 23  1  0  0  0  0
 12 25  1  0  0  0  0
 13 16  1  0  0  0  0
 13 25  1  0  0  0  0
 14 17  1  0  0  0  0
 14 26  1  0  0  0  0
 15 17  1  0  0  0  0
 15 26  1  0  0  0  0
 16 17  1  0  0  0  0
 16 22  1  0  0  0  0
 17 18  1  0  0  0  0
 18 19  1  0  0  0  0
 18 20  1  0  0  0  0
 18 24  1  0  0  0  0
  1 28  1  0  0  0  0
  2 29  1  0  0  0  0
  3 30  1  0  0  0  0
  4 31  1  0  0  0  0
  5 32  1  0  0  0  0
  6 33  1  0  0  0  0
 13 34  1  0  0  0  0
 13 35  1  0  0  0  0
 14 36  1  0  0  0  0
 14 37  1  0  0  0  0
 15 38  1  0  0  0  0
 15 39  1  0  0  0  0
 19 40  1  0  0  0  0
 19 41  1  0  0  0  0
 19 42  1  0  0  0  0
 20 43  1  0  0  0  0
 20 44  1  0  0  0  0
 20 45  1  0  0  0  0
 22 46  1  0  0  0  0
 23 47  1  0  0  0  0
 23 48  1  0  0  0  0
M  CHG  1  22   1
M  END
> <OMEGA_C>
7yU5QP6NZ8BjppXBXqpaQMoNKcBNipzBkJ++QKdYzL++uKvB3fTPQCoKH7+GiLLBiCqmQA/AIT7v
nJ/BD59tQGzLhMBXg43BMhOqQE5+mr/XNqLB+eyXQMpoDsC1FpvB5Ka2QOwblD9YhKbBgOTMQLKN
Pz/F96/BhJywQEIgM8ARw5LBxjy0QEqRRUCQdpHBvtWEQLuRPkA5RJ/BIqSZQKWNeEA6grXBzxi/
QCj5okDLg6vBYMaxQJKKKUC7k6PBCYy/QF+fYUDUea3Bq7roQINTPkBwUrPBCUsIQYCZPEBY1KvB
RuL1QHjickB7bb3BV9OfQDpmb8CTMIzBTTTMQL0+PkCiG5rB8MjDQI58UkBVNIfBAAHgQKG90D8l
E7fBK32JQGygPEB+45PBEC6gQL3up0AQjLPBU7jlQPM+E8CGvZDBG+vvP1JUfcAskZbBrc8zQCj1
DcAO1aLBwA/BQOshKcDKxq3BzdDfQCJUbL/u0bnB7m2WQPmQ5D5nRpjBJNNTQPPVnMCeNYjB4Qx1
QGVXfkCb9aHBafZaQMtgDkC07KHBGKCfQPc4ZUBP1r3B7zJ0QP3UYEAp97LB1hG0QH1erECkfqPB
rrjdQKHaskC2Q63BMyoWQcSeI0A/QbDB0sULQdvefUBFB6nBrgEFQRYZE0Dq6aTB+lYJQfpuVkBb
B8HBk5bbQOjZcUC9RsPBb6T8QKK0mkDPGLvBefvrQIGyRUApPZrBaoWvQJDNVUDVBoHB/0PjQJ19
WEAb+4XB

> <OMEGA_E>
2g1qPw==

> <OMEGA_NBR>
     57675

$$$$
288535
  -OEChem-04172616093D

 51 55  0     1  0  0  0  0  0999 V2000
    5.9697   -1.5856  -21.4674 C   0  0  0  0  0  0  0  0  0  0  0  0
    6.5132   -0.6115  -22.3163 C   0  0  0  0  0  0  0  0  0  0  0  0
    5.1911    0.1700  -19.9656 C   0  0  0  0  0  0  0  0  0  0  0  0
    3.6198   -1.9473  -18.5775 C   0  0  0  0  0  0  0  0  0  0  0  0
    5.3365   -3.5139  -19.2873 C   0  0  0  0  0  0  0  0  0  0  0  0
    5.3110   -1.2024  -20.2801 C   0  0  0  0  0  0  0  0  0  0  0  0
    4.7498   -2.2285  -19.3730 C   0  0  0  0  0  0  0  0  0  0  0  0
    5.7070    1.1658  -20.8272 C   0  0  0  0  0  0  0  0  0  0  0  0
    3.1243   -2.9424  -17.7197 C   0  0  0  0  0  0  0  0  0  0  0  0
    6.4106    0.7564  -22.0010 C   0  0  0  0  0  0  0  0  0  0  0  0
    3.7590   -4.2068  -17.6961 C   0  0  0  0  0  0  0  0  0  0  0  0
    5.6056    3.1022  -18.1961 C   0  0  0  0  0  0  0  0  0  0  0  0
    4.1381    2.9832  -19.9333 C   0  0  0  0  0  0  0  0  0  0  0  0
    4.8076    3.8790  -22.7109 C   0  0  0  0  0  0  0  0  0  0  0  0
    5.9641    5.0976  -21.4575 C   0  0  0  0  0  0  0  0  0  0  0  0
    5.5483    2.6569  -20.4606 C   0  0  2  0  0  0  0  0  0  0  0  0
    5.9858    3.5298  -21.6965 C   0  0  0  0  0  0  0  0  0  0  0  0
    7.2799    2.9796  -22.4157 C   0  0  0  0  0  0  0  0  0  0  0  0
    1.8936   -2.6729  -16.8730 C   0  0  0  0  0  0  0  0  0  0  0  0
    8.5174    2.9552  -21.4685 C   0  0  0  0  0  0  0  0  0  0  0  0
    7.6997    3.7981  -23.6771 C   0  0  0  0  0  0  0  0  0  0  0  0
    4.8417   -4.4679  -18.4667 N   0  0  0  0  0  0  0  0  0  0  0  0
    6.3639    2.9836  -19.2701 N   0  3  0  0  0  0  0  0  0  0  0  0
    6.0800    3.3103  -16.9103 N   0  0  0  0  0  0  0  0  0  0  0  0
    7.0129    1.6369  -22.8857 O   0  0  0  0  0  0  0  0  0  0  0  0
    4.2723    2.9601  -18.5096 O   0  0  0  0  0  0  0  0  0  0  0  0
    5.0041    5.2448  -22.4688 O   0  0  0  0  0  0  0  0  0  0  0  0
    3.2830   -5.1850  -16.8924 F   0  0  0  0  0  0  0  0  0  0  0  0
    6.0555   -2.6315  -21.7228 H   0  0  0  0  0  0  0  0  0  0  0  0
    7.0164   -0.9141  -23.2227 H   0  0  0  0  0  0  0  0  0  0  0  0
    4.6970    0.4636  -19.0512 H   0  0  0  0  0  0  0  0  0  0  0  0
    3.1422   -0.9799  -18.6274 H   0  0  0  0  0  0  0  0  0  0  0  0
    6.2019   -3.7384  -19.8932 H   0  0  0  0  0  0  0  0  0  0  0  0
    3.8151    3.9770  -20.2770 H   0  0  0  0  0  0  0  0  0  0  0  0
    3.4135    2.2262  -20.2676 H   0  0  0  0  0  0  0  0  0  0  0  0
    5.0040    3.5742  -23.7494 H   0  0  0  0  0  0  0  0  0  0  0  0
    3.8212    3.5051  -22.3993 H   0  0  0  0  0  0  0  0  0  0  0  0
    5.6115    5.3936  -20.4585 H   0  0  0  0  0  0  0  0  0  0  0  0
    6.9206    5.5968  -21.6715 H   0  0  0  0  0  0  0  0  0  0  0  0
    0.9911   -2.9462  -17.4395 H   0  0  0  0  0  0  0  0  0  0  0  0
    1.9438   -3.2723  -15.9520 H   0  0  0  0  0  0  0  0  0  0  0  0
    1.8540   -1.6047  -16.6135 H   0  0  0  0  0  0  0  0  0  0  0  0
    9.3896    2.5657  -22.0139 H   0  0  0  0  0  0  0  0  0  0  0  0
    8.7304    3.9757  -21.1173 H   0  0  0  0  0  0  0  0  0  0  0  0
    8.3056    2.3072  -20.6052 H   0  0  0  0  0  0  0  0  0  0  0  0
    8.6042    3.3542  -24.1186 H   0  0  0  0  0  0  0  0  0  0  0  0
    6.8841    3.7784  -24.4150 H   0  0  0  0  0  0  0  0  0  0  0  0
    7.9064    4.8388  -23.3867 H   0  0  0  0  0  0  0  0  0  0  0  0
    7.3571    3.0992  -19.2780 H   0  0  0  0  0  0  0  0  0  0  0  0
    5.4399    3.3651  -16.1440 H   0  0  0  0  0  0  0  0  0  0  0  0
    7.0623    3.4056  -16.7491 H   0  0  0  0  0  0  0  0  0  0  0  0
  1  2  2  0  0  0  0
  1  6  1  0  0  0  0
  2 10  1  0  0  0  0
  3  6  2  0  0  0  0
  3  8  1  0  0  0  0
  4  7  2  0  0  0  0
  4  9  1  0  0  0  0
  5  7  1  0  0  0  0
  5 22  2  0  0  0  0
  6  7  1  0  0  0  0
  8 10  2  0  0  0  0
  8 16  1  0  0  0  0
  9 11  2  0  0  0  0
  9 19  1  0  0  0  0
 10 25  1  0  0  0  0
 11 22  1  0  0  0  0
 11 28  1  0  0  0  0
 12 23  2  0  0  0  0
 12 24  1  0  0  0  0
 12 26  1  0  0  0  0
 13 16  1  0  0  0  0
 13 26  1  0  0  0  0
 14 17  1  0  0  0  0
 14 27  1  0  0  0  0
 15 17  1  0  0  0  0
 15 27  1  0  0  0  0
 16 17  1  0  0  0  0
 16 23  1  0  0  0  0
 17 18  1  0  0  0  0
 18 20  1  0  0  0  0
 18 21  1  0  0  0  0
 18 25  1  0  0  0  0
  1 29  1  0  0  0  0
  2 30  1  0  0  0  0
  3 31  1  0  0  0  0
  4 32  1  0  0  0  0
  5 33  1  0  0  0  0
 13 34  1  0  0  0  0
 13 35  1  0  0  0  0
 14 36  1  0  0  0  0
 14 37  1  0  0  0  0
 15 38  1  0  0  0  0
 15 39  1  0  0  0  0
 19 40  1  0  0  0  0
 19 41  1  0  0  0  0
 19 42  1  0  0  0  0
 20 43  1  0  0  0  0
 20 44  1  0  0  0  0
 20 45  1  0  0  0  0
 21 46  1  0  0  0  0
 21 47  1  0  0  0  0
 21 48  1  0  0  0  0
 23 49  1  0  0  0  0
 24 50  1  0  0  0  0
 24 51  1  0  0  0  0
M  CHG  1  23   1
M  END
> <OMEGA_C>
Jwi/QGD1yr9PvavB7WvQQGyLHL+3h7LBrx2mQCITLj56uZ/BlKtnQBxB+b+3npTBSMSqQFPjYMBx
TJrBdvOpQPzomb+0PaLBp/6XQFmgDsD9+5rBoJ+2QC46lT8PnqbBu/RHQPZQPMDhwY3ByCPNQM2g
QT8AArDBvpNwQNudhsChkY3B7GCzQNSJRkCnkZHBtGuEQEPtPkBld5/BDtiZQKNBeEDkr7XBqNm+
QDIfo0DpqKvB8ouxQMUKKkBHr6PB+4u/QM7oYUCCkq3BqPToQEuyPkBDU7PBBWHyP5QQK8Dh+4bB
SkcIQW4iPUBqv6vB52P2QLEUc0C9ar3BDe+aQGH5jsDSu5PB7aTLQF3zPkAcKZrBVY/CQMfbU0BU
SIfB4GngQFuE0T/tFbfB9LaIQPVxPUCrE5TB1yGgQHTVp0ASwLPBMB1SQKLrpcCtI4fBhMbBQEtq
KMA8yK3BWYbgQGz/ab8ZyLnBi02WQLBY7T7naJjBYxpJQMTcer/SBJXBk3XGQKdCb8A+JZ/BPCt0
QMSGfkBRN6LB4nZaQM55DkAZJKLB2yCgQIC/ZEDG/r3BQ450QMFSYEC+MbPBHZGzQHWYrEDwqqPB
o3XdQLkYs0BMX63BBLt9P9mNPMAKhIvBys34P+ZtUcCOO3/BrU/tP85lzb9p6ITB+DsWQe00JEB2
HLDBxK8LQZ5xfkBM8KjBluMEQbWoE0CK16TBraoJQeKrVkDW8sDBrkrcQNjRcUDiUcPBEgH9QGTX
mkAMGLvBxG3rQApZRkBOOZrBzxOuQOddV0DXJoHBaP7hQID1WUA1/oXB

> <OMEGA_E>
gvRqPw==

> <OMEGA_NBR>
     58822

$$$$
288536
  -OEChem-04172616093D

 48 52  0     1  0  0  0  0  0999 V2000
    5.6417   -1.5267  -21.5860 C   0  0  0  0  0  0  0  0  0  0  0  0
    6.2540   -0.5976  -22.4424 C   0  0  0  0  0  0  0  0  0  0  0  0
    5.2160    0.2468  -19.9759 C   0  0  0  0  0  0  0  0  0  0  0  0
    3.2061   -1.8904  -18.9764 C   0  0  0  0  0  0  0  0  0  0  0  0
    4.5829   -4.1199  -18.0862 C   0  0  0  0  0  0  0  0  0  0  0  0
    5.1482   -1.1114  -20.3352 C   0  0  0  0  0  0  0  0  0  0  0  0
    4.5285   -2.0833  -19.4167 C   0  0  0  0  0  0  0  0  0  0  0  0
    5.8061    1.2027  -20.8426 C   0  0  0  0  0  0  0  0  0  0  0  0
    6.3803    0.7533  -22.0655 C   0  0  0  0  0  0  0  0  0  0  0  0
    5.2305   -3.2181  -18.9555 C   0  0  0  0  0  0  0  0  0  0  0  0
    2.6141   -2.8431  -18.1223 C   0  0  0  0  0  0  0  0  0  0  0  0
    5.4017    3.1002  -18.2506 C   0  0  0  0  0  0  0  0  0  0  0  0
    4.3400    3.1485  -20.2028 C   0  0  0  0  0  0  0  0  0  0  0  0
    5.4872    4.2386  -22.6749 C   0  0  0  0  0  0  0  0  0  0  0  0
    6.7913    5.0713  -21.2678 C   0  0  0  0  0  0  0  0  0  0  0  0
    5.7736    2.7014  -20.4827 C   0  0  2  0  0  0  0  0  0  0  0  0
    6.4770    3.5574  -21.6258 C   0  0  0  0  0  0  0  0  0  0  0  0
    7.6381    2.7980  -22.3574 C   0  0  0  0  0  0  0  0  0  0  0  0
    8.7987    2.4664  -21.3797 C   0  0  0  0  0  0  0  0  0  0  0  0
    8.2727    3.5826  -23.5528 C   0  0  0  0  0  0  0  0  0  0  0  0
    3.3016   -3.9286  -17.6913 N   0  0  0  0  0  0  0  0  0  0  0  0
    6.3683    2.9301  -19.1417 N   0  3  0  0  0  0  0  0  0  0  0  0
    5.5294    3.5227  -16.9444 N   0  0  0  0  0  0  0  0  0  0  0  0
    7.0852    1.5822  -22.9226 O   0  0  0  0  0  0  0  0  0  0  0  0
    4.1744    2.9035  -18.8225 O   0  0  0  0  0  0  0  0  0  0  0  0
    5.9782    5.4983  -22.3229 O   0  0  0  0  0  0  0  0  0  0  0  0
    1.3293   -2.6771  -17.7364 F   0  0  0  0  0  0  0  0  0  0  0  0
    6.9032   -3.4970  -19.3904 Cl  0  0  0  0  0  0  0  0  0  0  0  0
    5.5494   -2.5597  -21.8872 H   0  0  0  0  0  0  0  0  0  0  0  0
    6.6322   -0.9225  -23.4004 H   0  0  0  0  0  0  0  0  0  0  0  0
    4.8130    0.5668  -19.0263 H   0  0  0  0  0  0  0  0  0  0  0  0
    2.6493   -1.0199  -19.2902 H   0  0  0  0  0  0  0  0  0  0  0  0
    5.1216   -4.9841  -17.7265 H   0  0  0  0  0  0  0  0  0  0  0  0
    4.2115    4.2173  -20.4293 H   0  0  0  0  0  0  0  0  0  0  0  0
    3.6233    2.5597  -20.7941 H   0  0  0  0  0  0  0  0  0  0  0  0
    5.6797    3.9581  -23.7209 H   0  0  0  0  0  0  0  0  0  0  0  0
    4.4212    4.0925  -22.4463 H   0  0  0  0  0  0  0  0  0  0  0  0
    6.4342    5.3799  -20.2741 H   0  0  0  0  0  0  0  0  0  0  0  0
    7.8504    5.3471  -21.3787 H   0  0  0  0  0  0  0  0  0  0  0  0
    9.5951    1.9354  -21.9217 H   0  0  0  0  0  0  0  0  0  0  0  0
    9.2011    3.3995  -20.9586 H   0  0  0  0  0  0  0  0  0  0  0  0
    8.4217    1.8295  -20.5659 H   0  0  0  0  0  0  0  0  0  0  0  0
    9.0736    2.9788  -24.0045 H   0  0  0  0  0  0  0  0  0  0  0  0
    7.4995    3.7891  -24.3075 H   0  0  0  0  0  0  0  0  0  0  0  0
    8.6911    4.5319  -23.1873 H   0  0  0  0  0  0  0  0  0  0  0  0
    7.3478    2.9525  -18.9415 H   0  0  0  0  0  0  0  0  0  0  0  0
    4.7135    3.6928  -16.3919 H   0  0  0  0  0  0  0  0  0  0  0  0
    6.4380    3.6591  -16.5496 H   0  0  0  0  0  0  0  0  0  0  0  0
  1  2  2  0  0  0  0
  1  6  1  0  0  0  0
  2  9  1  0  0  0  0
  3  6  2  0  0  0  0
  3  8  1  0  0  0  0
  4  7  1  0  0  0  0
  4 11  2  0  0  0  0
  5 10  1  0  0  0  0
  5 21  2  0  0  0  0
  6  7  1  0  0  0  0
  7 10  2  0  0  0  0
  8  9  2  0  0  0  0
  8 16  1  0  0  0  0
  9 24  1  0  0  0  0
 10 28  1  0  0  0  0
 11 21  1  0  0  0  0
 11 27  1  0  0  0  0
 12 22  2  0  0  0  0
 12 23  1  0  0  0  0
 12 25  1  0  0  0  0
 13 16  1  0  0  0  0
 13 25  1  0  0  0  0
 14 17  1  0  0  0  0
 14 26  1  0  0  0  0
 15 17  1  0  0  0  0
 15 26  1  0  0  0  0
 16 17  1  0  0  0  0
 16 22  1  0  0  0  0
 17 18  1  0  0  0  0
 18 19  1  0  0  0  0
 18 20  1  0  0  0  0
 18 24  1  0  0  0  0
  1 29  1  0  0  0  0
  2 30  1  0  0  0  0
  3 31  1  0  0  0  0
  4 32  1  0  0  0  0
  5 33  1  0  0  0  0
 13 34  1  0  0  0  0
 13 35  1  0  0  0  0
 14 36  1  0  0  0  0
 14 37  1  0  0  0  0
 15 38  1  0  0  0  0
 15 39  1  0  0  0  0
 19 40  1  0  0  0  0
 19 41  1  0  0  0  0
 19 42  1  0  0  0  0
 20 43  1  0  0  0  0
 20 44  1  0  0  0  0
 20 45  1  0  0  0  0
 22 46  1  0  0  0  0
 23 47  1  0  0  0  0
 23 48  1  0  0  0  0
M  CHG  1  22   1
M  END
> <OMEGA_C>
cYi0QJppw78rsKzBxCDIQOH6GL/8ibPBkummQEzAfD6Tzp/BIDFNQKb48b+/z5fBuqaSQHrWg8B8
sJDBz72kQE5Bjr+BrqLB0umQQBRVBcBOVZvB9su5QN7xmT+XvabBlCvMQC/bQD8ThrDBEmCnQCT1
TcDqpJfBAk4nQFP1NcBp+pDB9tqsQLNpRkAuAZLB/uCKQM6BSUBYn6HBDJevQFKih0AeZrXBQlLZ
QFhIokBeJKrBesG4QHDkLECo3KPBTkPPQDCtY0ChAa3BUGv0QDwSM0Dr27LBTscMQUbZHUCKCavB
EF0EQcBIZUA4bLzBqkxTQJpte8DNh43BJMnLQGSHO0BMIpnB+PCwQEV0YUAnjofBOLriQPSFyj9y
YbfB0JSFQHTTOUCElJbBtk2/QNbxr0A7lbLBGSeqP0ZVK8A65I3BJOfcQEzOX8B/H5vBnJSxQGjS
I8DjGK/BwjrUQKkpbL8DNLvBHwSaQK8YET/uNZjBg40pQL+Kgr9jUprBPeSjQNd9n8D4z43BSsSG
QPjzhkAvb6PB6ONnQMfRI0BFWqbB4r+1QENRfUB9xL3BJHqNQLj1gkD+kbPB/uTNQAMorEBuMaLB
Qzb7QEUbq0CSB6vBWoUZQbe79z+qX6/BxjcTQZaRWUAsq6fBLb8GQWIt6j/ghqTBoi0RQR2kPkAf
CcDBu/vvQPp/ckCwdcLB5w4LQaoFkUCdf7nBFSHrQD31PEAiiJfBo9SWQMRWbECUIoPB+gPOQMAu
akCEZYTB

> <OMEGA_E>
QjBTPw==

> <OMEGA_NBR>
     59922

$$$$
288539
  -OEChem-04172616093D

 52 56  0     1  0  0  0  0  0999 V2000
    5.7113   -1.5435  -21.5776 C   0  0  0  0  0  0  0  0  0  0  0  0
    6.2751   -0.6001  -22.4507 C   0  0  0  0  0  0  0  0  0  0  0  0
    5.2703    0.2271  -19.9665 C   0  0  0  0  0  0  0  0  0  0  0  0
    3.3198   -1.8687  -18.9533 C   0  0  0  0  0  0  0  0  0  0  0  0
    4.6178   -4.1527  -18.1007 C   0  0  0  0  0  0  0  0  0  0  0  0
    5.2397   -1.1343  -20.3180 C   0  0  0  0  0  0  0  0  0  0  0  0
    4.6251   -2.1019  -19.4004 C   0  0  0  0  0  0  0  0  0  0  0  0
    5.8188    1.1936  -20.8433 C   0  0  0  0  0  0  0  0  0  0  0  0
    6.3794    0.7536  -22.0753 C   0  0  0  0  0  0  0  0  0  0  0  0
    5.2831   -3.2752  -18.9819 C   0  0  0  0  0  0  0  0  0  0  0  0
    2.6711   -2.8318  -18.1454 C   0  0  0  0  0  0  0  0  0  0  0  0
    5.3938    3.0552  -18.2391 C   0  0  0  0  0  0  0  0  0  0  0  0
    4.3346    3.1262  -20.1955 C   0  0  0  0  0  0  0  0  0  0  0  0
    5.4795    4.2458  -22.6559 C   0  0  0  0  0  0  0  0  0  0  0  0
    6.7889    5.0651  -21.2459 C   0  0  0  0  0  0  0  0  0  0  0  0
    5.7713    2.6908  -20.4768 C   0  0  2  0  0  0  0  0  0  0  0  0
    6.4713    3.5551  -21.6151 C   0  0  0  0  0  0  0  0  0  0  0  0
    7.6277    2.7992  -22.3580 C   0  0  0  0  0  0  0  0  0  0  0  0
    8.7903    2.4506  -21.3872 C   0  0  0  0  0  0  0  0  0  0  0  0
    8.2632    3.5931  -23.5461 C   0  0  0  0  0  0  0  0  0  0  0  0
    0.5063   -1.9750  -18.7770 C   0  0  0  0  0  0  0  0  0  0  0  0
    3.3417   -3.9256  -17.7031 N   0  0  0  0  0  0  0  0  0  0  0  0
    6.3629    2.9178  -19.1337 N   0  3  0  0  0  0  0  0  0  0  0  0
    5.5199    3.4208  -16.9152 N   0  0  0  0  0  0  0  0  0  0  0  0
    7.0642    1.5942  -22.9346 O   0  0  0  0  0  0  0  0  0  0  0  0
    4.1673    2.8695  -18.8175 O   0  0  0  0  0  0  0  0  0  0  0  0
    5.9742    5.5016  -22.2957 O   0  0  0  0  0  0  0  0  0  0  0  0
    1.3224   -2.7355  -17.8443 O   0  0  0  0  0  0  0  0  0  0  0  0
    6.5452   -3.5529  -19.3855 F   0  0  0  0  0  0  0  0  0  0  0  0
    5.6402   -2.5801  -21.8724 H   0  0  0  0  0  0  0  0  0  0  0  0
    6.6324   -0.9151  -23.4200 H   0  0  0  0  0  0  0  0  0  0  0  0
    4.8694    0.5398  -19.0137 H   0  0  0  0  0  0  0  0  0  0  0  0
    2.8092   -0.9563  -19.2243 H   0  0  0  0  0  0  0  0  0  0  0  0
    5.1369   -5.0259  -17.7341 H   0  0  0  0  0  0  0  0  0  0  0  0
    4.1997    4.1958  -20.4139 H   0  0  0  0  0  0  0  0  0  0  0  0
    3.6229    2.5374  -20.7928 H   0  0  0  0  0  0  0  0  0  0  0  0
    5.6681    3.9730  -23.7047 H   0  0  0  0  0  0  0  0  0  0  0  0
    4.4139    4.1001  -22.4250 H   0  0  0  0  0  0  0  0  0  0  0  0
    6.4346    5.3664  -20.2490 H   0  0  0  0  0  0  0  0  0  0  0  0
    7.8482    5.3400  -21.3570 H   0  0  0  0  0  0  0  0  0  0  0  0
    9.5827    1.9227  -21.9379 H   0  0  0  0  0  0  0  0  0  0  0  0
    9.1981    3.3769  -20.9561 H   0  0  0  0  0  0  0  0  0  0  0  0
    8.4128    1.8057  -20.5799 H   0  0  0  0  0  0  0  0  0  0  0  0
    9.0605    2.9904  -24.0056 H   0  0  0  0  0  0  0  0  0  0  0  0
    7.4894    3.8109  -24.2969 H   0  0  0  0  0  0  0  0  0  0  0  0
    8.6866    4.5367  -23.1716 H   0  0  0  0  0  0  0  0  0  0  0  0
   -0.5382   -1.9709  -18.4321 H   0  0  0  0  0  0  0  0  0  0  0  0
    0.8785   -0.9413  -18.8312 H   0  0  0  0  0  0  0  0  0  0  0  0
    0.5615   -2.4373  -19.7736 H   0  0  0  0  0  0  0  0  0  0  0  0
    7.3419    2.9606  -18.9346 H   0  0  0  0  0  0  0  0  0  0  0  0
    4.7035    3.5565  -16.3540 H   0  0  0  0  0  0  0  0  0  0  0  0
    6.4279    3.5502  -16.5165 H   0  0  0  0  0  0  0  0  0  0  0  0
  1  2  2  0  0  0  0
  1  6  1  0  0  0  0
  2  9  1  0  0  0  0
  3  6  2  0  0  0  0
  3  8  1  0  0  0  0
  4  7  1  0  0  0  0
  4 11  2  0  0  0  0
  5 10  1  0  0  0  0
  5 22  2  0  0  0  0
  6  7  1  0  0  0  0
  7 10  2  0  0  0  0
  8  9  2  0  0  0  0
  8 16  1  0  0  0  0
  9 25  1  0  0  0  0
 10 29  1  0  0  0  0
 11 22  1  0  0  0  0
 11 28  1  0  0  0  0
 12 23  2  0  0  0  0
 12 24  1  0  0  0  0
 12 26  1  0  0  0  0
 13 16  1  0  0  0  0
 13 26  1  0  0  0  0
 14 17  1  0  0  0  0
 14 27  1  0  0  0  0
 15 17  1  0  0  0  0
 15 27  1  0  0  0  0
 16 17  1  0  0  0  0
 16 23  1  0  0  0  0
 17 18  1  0  0  0  0
 18 19  1  0  0  0  0
 18 20  1  0  0  0  0
 18 25  1  0  0  0  0
 21 28  1  0  0  0  0
  1 30  1  0  0  0  0
  2 31  1  0  0  0  0
  3 32  1  0  0  0  0
  4 33  1  0  0  0  0
  5 34  1  0  0  0  0
 13 35  1  0  0  0  0
 13 36  1  0  0  0  0
 14 37  1  0  0  0  0
 14 38  1  0  0  0  0
 15 39  1  0  0  0  0
 15 40  1  0  0  0  0
 19 41  1  0  0  0  0
 19 42  1  0  0  0  0
 19 43  1  0  0  0  0
 20 44  1  0  0  0  0
 20 45  1  0  0  0  0
 20 46  1  0  0  0  0
 21 47  1  0  0  0  0
 21 48  1  0  0  0  0
 21 49  1  0  0  0  0
 23 50  1  0  0  0  0
 24 51  1  0  0  0  0
 24 52  1  0  0  0  0
M  CHG  1  23   1
M  END
> <OMEGA_C>
QMO2QLGRxb/7nqzBVs3IQOqdGb8Hm7PBO6aoQAKPaD5+u5/BGHdUQGMw779uoJfBzsSTQJ3ihMBD
zpDBcKunQBkxkb9Mi6LBawCUQDqFBsD/M5vB0zO6QPrHmD8iv6bBPSTMQJTrQD9AmrDBTA+pQOKc
UcDw2pfBlfMqQG47NcC+KZHBapqsQC6IQ0CY6ZHBLLWKQHITSEB0kKHBxFevQOLdh0A1P7XB1z7Z
QE0VokCR96nBrK64QIU1LEB00KPB7RTPQMyGY0DG66zBhRb0QIQmM0Ai3bLBAqUMQRLXHEDoGKvB
HDYEQaT0ZUBjXrzB9p4BPwfO/L9BN5bB3N5VQAg9e8Dpn43Bj5zLQNi9OkDeEZnBZqOwQITuWkBk
UofB6w3iQIcNzD8cerfBwFqFQG+lN0BNipbBDC2/QFcNsECLXbLBTEOpPxITL8A2wY7B93HRQFhj
Y8CKFZvBKXy0QKMfJcC4+q7BbTzUQDBHar8PXLvBHdKbQHEuCj8NHJjBIsozQMPSdL9Hy5nBzmGk
QOvToMCD343B0GOGQDJEhkCYT6PBT91nQOhkIkC9V6bB4mC1QENFfkAko73Bfj6NQBE0g0BuZrPB
K+jNQEq5q0AK/qHBiyT7QPrgqkA226rB8FIZQWsa9j/AgK/BaysTQWseWEAppqfB65oGQbUh5z+2
o6TBufcQQeBiP0CHC8DB4KjvQCLlc0APYMLBf/wKQZMskUBkX7nBtMcJv7NG/L/7dJPBPOdgP4/7
cL86ppbB5bsPP/b8G8BXMJ7By/DqQJJ6PUD7eZfBwYKWQCeeY0AU1YLBCbHNQFI2Y0DhIYTBktWz
QKiow79/Nq3Bz8jHQFDZFr9n3bPBgBSmQNpOXD5wE6DBddpYQJwv67891JXBVRmTQFeSicCV35LB
DvujQDC5kb/wIqPB2nyRQMbKCMBoxpvBfAe5QA1rlz+Y26bBF8nLQHJbQD+fo7DBBV+lQMPeWMA0
HprBisE4QO37McA4eo7BYeCpQGkYRUC/EpLBE3GJQAc4R0Bv2aHBMcGwQGsPiEDBOLXBON3ZQFty
oUCBp6nBFaO3QP9BK0DS1aPBbk3PQJG1YkDvuqzBCrb0QJrxMUByeLLBZ34MQfJMGkC6fqrBvSEF
Qfq+ZEANzbvBRj/GP2G0UMDuBX7BkOteQD2mf8AbSY3BbIPJQIkVOUBZ+JjBd8isQK12ZEDAy4fB
9NbiQGRWyz9DSLfB+C+DQBeCNkBj2pbBLVzBQFfgr0DaS7LBAAfoP2RKGsAFK4jBYp7KQJeYbcC0
/57BmJqwQJFsI8CB0K/BmzPUQAPhZb9WirvBlA+ZQAz/BD+sc5jBL804QDvPY7+X5ZbBSuuhQB54
qMCrwJHBl02FQM3bhUABmaPBCihmQByrIUB+w6bBIzW3QDYbfkAJk73BHmuOQJtChEB3iLPBc3fN
QG9Bq0CuyqHBBAb8QGqlqUDZNarBYU4ZQUKT8D+Vxq7BWv4SQe4NVUDT5abB6gQGQfWp4T/PKaTB
lfwRQWvaPUDlVb/BcjTyQB1nc0A29cHBCuMLQY5gkEADrbjBD80tP/L8N8AOM3XBDnmrP3obicD3
w4HB32IbQLw2UcDgcXPBL6noQBxNOUDTIpfBaC+SQCAmcUDio4PBgn3JQMWKbkBQfoTB

> <OMEGA_E>
3PFaPzhqYD8=

> <OMEGA_NBR>
     61956

$$$$
288524
  -OEChem-04172616093D

 53 57  0     1  0  0  0  0  0999 V2000
    5.2566   -4.4199  -18.4713 C   0  0  0  0  0  0  0  0  0  0  0  0
    5.8675   -3.4243  -19.2336 C   0  0  0  0  0  0  0  0  0  0  0  0
    6.7122   -1.5106  -21.2528 C   0  0  0  0  0  0  0  0  0  0  0  0
    7.3112   -0.5123  -22.0160 C   0  0  0  0  0  0  0  0  0  0  0  0
    4.0103   -4.1865  -17.8901 C   0  0  0  0  0  0  0  0  0  0  0  0
    5.6300    0.1818  -19.9176 C   0  0  0  0  0  0  0  0  0  0  0  0
    3.9859   -1.9623  -18.8338 C   0  0  0  0  0  0  0  0  0  0  0  0
    5.8662   -1.1634  -20.2063 C   0  0  0  0  0  0  0  0  0  0  0  0
    5.2322   -2.1956  -19.4150 C   0  0  0  0  0  0  0  0  0  0  0  0
    6.2377    1.2073  -20.6668 C   0  0  0  0  0  0  0  0  0  0  0  0
    7.0656    0.8378  -21.7365 C   0  0  0  0  0  0  0  0  0  0  0  0
    3.3750   -2.9579  -18.0715 C   0  0  0  0  0  0  0  0  0  0  0  0
    4.8297    3.2314  -18.4335 C   0  0  0  0  0  0  0  0  0  0  0  0
    4.5366    3.1064  -20.6235 C   0  0  0  0  0  0  0  0  0  0  0  0
    6.9294    5.0725  -20.7992 C   0  0  0  0  0  0  0  0  0  0  0  0
    8.3787    3.7159  -20.2605 C   0  0  0  0  0  0  0  0  0  0  0  0
    5.9854    2.6643  -20.3331 C   0  0  2  0  0  0  0  0  0  0  0  0
    7.0393    3.5406  -21.0545 C   0  0  0  0  0  0  0  0  0  0  0  0
    7.2554    3.0910  -22.5325 C   0  0  0  0  0  0  0  0  0  0  0  0
    8.3647    3.8881  -23.2505 C   0  0  0  0  0  0  0  0  0  0  0  0
    5.9940    3.2278  -23.4024 C   0  0  0  0  0  0  0  0  0  0  0  0
    1.5903   -3.7920  -16.7388 C   0  0  0  0  0  0  0  0  0  0  0  0
    6.0111    2.8416  -18.8809 N   0  3  0  0  0  0  0  0  0  0  0  0
    4.5136    3.4741  -17.1744 N   0  0  0  0  0  0  0  0  0  0  0  0
    7.6999    1.7212  -22.5679 O   0  0  0  0  0  0  0  0  0  0  0  0
    3.8827    3.3702  -19.3671 O   0  0  0  0  0  0  0  0  0  0  0  0
    8.3351    5.1526  -20.4548 O   0  0  0  0  0  0  0  0  0  0  0  0
    2.1584   -2.7307  -17.5051 O   0  0  0  0  0  0  0  0  0  0  0  0
    5.7513   -5.3762  -18.3300 H   0  0  0  0  0  0  0  0  0  0  0  0
    6.8394   -3.6207  -19.6805 H   0  0  0  0  0  0  0  0  0  0  0  0
    6.9110   -2.5527  -21.4909 H   0  0  0  0  0  0  0  0  0  0  0  0
    7.9647   -0.7914  -22.8390 H   0  0  0  0  0  0  0  0  0  0  0  0
    3.5391   -4.9658  -17.2973 H   0  0  0  0  0  0  0  0  0  0  0  0
    4.9631    0.4366  -19.0957 H   0  0  0  0  0  0  0  0  0  0  0  0
    3.4824   -1.0072  -18.9695 H   0  0  0  0  0  0  0  0  0  0  0  0
    4.4775    4.0317  -21.2033 H   0  0  0  0  0  0  0  0  0  0  0  0
    3.9496    2.3438  -21.1465 H   0  0  0  0  0  0  0  0  0  0  0  0
    6.6825    5.6961  -21.6625 H   0  0  0  0  0  0  0  0  0  0  0  0
    6.3106    5.3886  -19.9527 H   0  0  0  0  0  0  0  0  0  0  0  0
    8.3862    3.4858  -19.1919 H   0  0  0  0  0  0  0  0  0  0  0  0
    9.2766    3.2654  -20.6920 H   0  0  0  0  0  0  0  0  0  0  0  0
    8.4595    3.5247  -24.2665 H   0  0  0  0  0  0  0  0  0  0  0  0
    9.2989    3.7494  -22.7200 H   0  0  0  0  0  0  0  0  0  0  0  0
    8.0970    4.9386  -23.2577 H   0  0  0  0  0  0  0  0  0  0  0  0
    6.2176    2.8988  -24.4117 H   0  0  0  0  0  0  0  0  0  0  0  0
    5.6804    4.2663  -23.4176 H   0  0  0  0  0  0  0  0  0  0  0  0
    5.2021    2.6135  -22.9849 H   0  0  0  0  0  0  0  0  0  0  0  0
    0.6203   -3.4791  -16.3438 H   0  0  0  0  0  0  0  0  0  0  0  0
    1.4547   -4.6634  -17.3839 H   0  0  0  0  0  0  0  0  0  0  0  0
    2.2634   -4.0506  -15.9181 H   0  0  0  0  0  0  0  0  0  0  0  0
    6.7678    2.6761  -18.2267 H   0  0  0  0  0  0  0  0  0  0  0  0
    5.2045    3.3679  -16.4340 H   0  0  0  0  0  0  0  0  0  0  0  0
    3.5736    3.7718  -16.9213 H   0  0  0  0  0  0  0  0  0  0  0  0
  1  2  2  0  0  0  0
  1  5  1  0  0  0  0
  2  9  1  0  0  0  0
  3  4  2  0  0  0  0
  3  8  1  0  0  0  0
  4 11  1  0  0  0  0
  5 12  2  0  0  0  0
  6  8  2  0  0  0  0
  6 10  1  0  0  0  0
  7  9  2  0  0  0  0
  7 12  1  0  0  0  0
  8  9  1  0  0  0  0
 10 11  2  0  0  0  0
 10 17  1  0  0  0  0
 11 25  1  0  0  0  0
 12 28  1  0  0  0  0
 13 23  2  0  0  0  0
 13 24  1  0  0  0  0
 13 26  1  0  0  0  0
 14 17  1  0  0  0  0
 14 26  1  0  0  0  0
 15 18  1  0  0  0  0
 15 27  1  0  0  0  0
 16 18  1  0  0  0  0
 16 27  1  0  0  0  0
 17 18  1  0  0  0  0
 17 23  1  0  0  0  0
 18 19  1  0  0  0  0
 19 20  1  0  0  0  0
 19 21  1  0  0  0  0
 19 25  1  0  0  0  0
 22 28  1  0  0  0  0
  1 29  1  0  0  0  0
  2 30  1  0  0  0  0
  3 31  1  0  0  0  0
  4 32  1  0  0  0  0
  5 33  1  0  0  0  0
  6 34  1  0  0  0  0
  7 35  1  0  0  0  0
 14 36  1  0  0  0  0
 14 37  1  0  0  0  0
 15 38  1  0  0  0  0
 15 39  1  0  0  0  0
 16 40  1  0  0  0  0
 16 41  1  0  0  0  0
 20 42  1  0  0  0  0
 20 43  1  0  0  0  0
 20 44  1  0  0  0  0
 21 45  1  0  0  0  0
 21 46  1  0  0  0  0
 21 47  1  0  0  0  0
 22 48  1  0  0  0  0
 22 49  1  0  0  0  0
 22 50  1  0  0  0  0
 23 51  1  0  0  0  0
 24 52  1  0  0  0  0
 24 53  1  0  0  0  0
M  CHG  1  23   1
M  END
> <OMEGA_C>
7DWoQApwjcA3xZPBN8K7QAYnW8CC3pnBusrWQAxcwb+0BarBUPXpQOMlA7+9ILDBcFSAQB34hcD1
Ho/BDCm0QJgsOj5LV5/BUBh/QDQr+7+uq5bBure7QPzplL9xpqHBCm6nQDqFDMABUpvBLZvHQAqK
mj+bVaXBbBniQIZ6Vj9M5K3BggBYQGxOPcB0kpDBII2aQMrOTkDod5PBnSuRQPjORkDb/KTBT73d
QCxSokCqZKbBMA8GQTHRbUBpFaLBT4i/QOeDKkAkqqLB+0HhQBeZYkCgb6jB8SvoQG7SRUCGQrTB
w9UFQVbXeEDvALrB5s6/QHCUTkAXOLvBao/LPwawcsAH6YXBlFrAQPLcNUAXDJfBKm+QQJBXXkBA
ZYnBqmX2QPRO3D8bi7TBzn54QCaxV0C475rBxlwFQcPhpEBXo6PBqiIKQCDDLsBtCozBnAq4QCEK
rMDXo5LB/dvaQGq5Z8CtcZ3BhSbdQKdfI8BM7avBBd/+QBScSr9CtrbBEYBiQHznnsDtYIrBsdGe
QMiF3z4NxJjBDt9eQGjrgL94wZfBZUePQAQEgUBvoKnB+MV8QL0AFkD4K6nBNdfVQBpGtkDaTK3B
W/DJQHFvrEANn5/BvC0GQQwXX0AdiZnB3mwUQbj8UEAyiaXBIFoHQQuVYUDTIcLBfsgUQS72b0CD
wrXBdI0BQS4JnkCsD7rBnvbGQGSFOUAxS8PBHsa1QLKFiEBXV7vBv3emQBZDJ0Ap4bfBJsseP02q
XsASwILB4zO6P8Q6lcAmEovBgtsQQN2egcCqsH7BhJHYQOREK0BN0JHBpYumQAmMV0C7eIPBn7Vk
QBJlcUDsXofBouKVQGiZlsAXL5HBfpCrQBAdc8C5spfBQkTKQBTZAsBqlajBnJLfQIENkb9uGq/B
P7NeQJ/cisAGYYzBa86tQORPWr4FPJ7BIFloQK4bCsCRmpTBCjWxQHa9yr9sK6DB+rWaQB6VIcC2
aJnBInvDQMKQOT/npqTBvODbQHa4eD6nPa3BNv48QE0xRMACF47B2V2eQKSzPEDDKpPBkMuSQD1a
MUBFk6TBkorkQGgekEB3CKfBHqIHQdakQkA0lKLBNu2/QCBvDUBZY6LBSmnjQFRuPUD1nqjBWLzn
QKAYHECFVbTBW2EGQT29RkBxhrrBlTO/QBIiKkDjF7vBpX6RP6bSa8Aw2YLBHH/CQPH0G0CU15bB
5hGWQKHuUEDYHonBt+vxQKpbhD/iRrTBH5l/QMDiSEBpfprBJu0IQY35jkBNkaTBTX/jP7xQLcAQ
aInB3QKjQHlUtsD82Y/BYZTJQIQpg8DQY5vBBmTNQJjuRsCRM6rBo+LyQJ4NwL9Yt7XBWTI9QHad
ocAYUIfB/f6ZQIgKBj7PnpfBFopNQIlSlb+Y45XBOxWTQAxJa0AFfKnBaeZ6QKj7AkDzaKjBd7zd
QJuwo0BlFK7BanbSQI74nEAYQKDBj+AHQTduNkBI+JnBLBoVQU64H0BRDqbBy+4GQQStLED/jMLB
CUoVQTyyOUDBarbBkqADQRaYhUB+27rBnoPEQGaGEUCGGcPB7DC4QIgRbkBKervBRI+kQFyWCEBt
a7fBtLFWPjFUUcD+Nn/Bie1nP8cEksCOtYfBzhfnP4lOfsC/q3jBrK/aQI2HDkAttJHBEGmsQHje
R0B1TIPBKmVyQLv0aUC6A4fBXCjhQGMMA0Egrb3BovviQI6d2UDm3bzBWVX5QOxZgEDPcLnBakj7
QDX8J0Adi7jBr1jcQMx5D0GMfLTB8C7MQC7pgkB3zanBDjLbQGXZ3kA5rqnBaurhQBval0AxCbLB
ywHgQCX+xUDc3rLBc1HNQBYWLEAg0qjBkdjlQHTJ+z/eOrDB2V7ZQBiqBUGDfarBxi2HQGj4SkBM
LZXBQunHQPWlEUCGvJTB8dmZQGTnxr6IHZrBwoGLQLB5pj3iuqnBAyq1QJKd/j/16p/BeF+yQHSr
8z5td6LB/ObdQNh9tr3ykqbBk13bQKWKyb9I3KnByBIBQQCzRDwgSZ7BKRnTQLhwKEF27KLBiPiK
QFSvJkD4rp7B+pVKQDhEdECQipHB56zqQFZGGz+2JbDB1J6pQKb4REBZ4I7B0Wx/QFffe79tbaLB
9bTUQJPLEUGrhaHB6nfjQByvCkFadcXBxrzmQLinxkAzGsTBvzEFQbATkEBE7L/B/vMGQSatA0CD
Ur7BRPLaQD7LIEETKrXBBAq6QErNlUB+D6TB7tfYQJ7Xz0Ds2KHBnhrNQA5xrz8cAJDBDCLmQGkV
NUANAZXBjZmsQIKBkb/5ypXBgb6FQHBjFz4sXZTBDwNiQOCdST8WiKrBUMiSQLL3lL4PwLHBno76
QJf48r99nazByBfEQCRe17+WObDBzLDRQBpyCsDN/aLBUKUPQUCTy75UraHBWVr5QLSUDL+vMJfB
i44DQbT1hj+HMpzB3FDPQGIyMEGqJJvB8vDwQNTLLUG4m6bBOEe4QFqQLEHaIqjB3UFlQLjYKkBN
BaTBTzIVQBzSekA0JJbBP3xKQGUkh0A9E4rBhqCRQJYUZ8BJsKLBCPeeQC1EHMBoyKfBAgfNQACz
Q7519bDBFvbZQMLmej8/CbbBxrKQQBoRa8A5i5fBHaayQNrbjj+LJKLB9m6qQLrgsr/jlpbBmC65
QLBr+70MBqfBy1yrQM7mqr8QvKHBeO2/QMHwE0B2FKfBqxHTQJhlDkC2M7HBhhidQE9AJMDifpHB
GgahQHYub0BBT5DBC32JQEZegUDF06DB6LLRQPYdxUBykqLBt9YBQZFSmkDAC6PBnBm5QJ6NaUA1
o6HBXKXUQAoml0CkUafBjADSQG45k0DqvbPB6V3vQHw4s0B/nrnBkKukQBl4mkA/L7jBTUGpQGjR
ur9D7oDBElrDQLfCYUD5QZbBHkCfQDyHbEAwwoXBpL/gQEo2U0DPDbfByDh6QBj7f0DgupXBC+r/
QGZlyEA0AqLBXyicQIMhKMClnobBo/uHQG4aj8DOZafBboafQIccGsBwerDBaHzSQDzKkr8g4LTB
xDPpQARraz9a173BJ0eGQObAksA7npPBJgCjQCB3kz/pXZrBTQu0QLQsCr9AzZHBOxeDQCjzoUBm
l6PBhYJoQI5hV0BONqXBwcnDQPq23UA8uqfBGqzDQLogyEAnlJrBWpIFQagpjEBtRZvBY6QOQTAA
kUD4h6jB+OjrQKi1rkD8KsLBRBwIQSxurUCRQ7fB1R/mQPiE00AddbfBI0OlQBJEl0BS08DBSvKZ
QAFZukBrCLbBqR2PQMzVgkBZy7TBCPumQHJE0r8pqHDBPGfKQIBYnb+1A4PByM+UQJBmHr+mK4PB
S3zfQIIfUkDbuJLBotm5QHgwX0CIW4HBKESDQG7Gd0Cd1YHB

> <OMEGA_E>
uHT2wPXnBsF4JifBhrkFwQ==

> <OMEGA_NBR>
     67904

$$$$
288530
  -OEChem-04172616093D

 52 56  0     1  0  0  0  0  0999 V2000
    5.5822   -1.5436  -21.6340 C   0  0  0  0  0  0  0  0  0  0  0  0
    6.1827   -0.5986  -22.4709 C   0  0  0  0  0  0  0  0  0  0  0  0
    5.1959    0.1799  -19.9570 C   0  0  0  0  0  0  0  0  0  0  0  0
    3.6421   -1.9594  -18.4762 C   0  0  0  0  0  0  0  0  0  0  0  0
    5.3193   -3.4640  -19.4157 C   0  0  0  0  0  0  0  0  0  0  0  0
    3.9402   -4.2036  -17.5568 C   0  0  0  0  0  0  0  0  0  0  0  0
    5.1263   -1.1706  -20.3542 C   0  0  0  0  0  0  0  0  0  0  0  0
    4.6680   -2.2104  -19.4161 C   0  0  0  0  0  0  0  0  0  0  0  0
    5.7696    1.1538  -20.8116 C   0  0  0  0  0  0  0  0  0  0  0  0
    3.2754   -2.9623  -17.5526 C   0  0  0  0  0  0  0  0  0  0  0  0
    6.3288    0.7321  -22.0520 C   0  0  0  0  0  0  0  0  0  0  0  0
    4.9580   -4.4529  -18.4899 C   0  0  0  0  0  0  0  0  0  0  0  0
    5.3894    3.0677  -18.1936 C   0  0  0  0  0  0  0  0  0  0  0  0
    4.3035    3.0770  -20.1258 C   0  0  0  0  0  0  0  0  0  0  0  0
    5.4309    4.1510  -22.6176 C   0  0  0  0  0  0  0  0  0  0  0  0
    6.7203    5.0266  -21.2226 C   0  0  0  0  0  0  0  0  0  0  0  0
    5.7388    2.6428  -20.4236 C   0  0  2  0  0  0  0  0  0  0  0  0
    6.4354    3.5054  -21.5623 C   0  0  0  0  0  0  0  0  0  0  0  0
    7.6073    2.7575  -22.2900 C   0  0  0  0  0  0  0  0  0  0  0  0
    2.2677   -2.6686  -16.4697 C   0  0  0  0  0  0  0  0  0  0  0  0
    8.7550    2.3902  -21.3085 C   0  0  0  0  0  0  0  0  0  0  0  0
    8.2627    3.5581  -23.4610 C   0  0  0  0  0  0  0  0  0  0  0  0
    6.3457    2.8583  -19.0863 N   0  3  0  0  0  0  0  0  0  0  0  0
    5.5254    3.5926  -16.9267 N   0  0  0  0  0  0  0  0  0  0  0  0
    7.0484    1.5660  -22.8861 O   0  0  0  0  0  0  0  0  0  0  0  0
    4.1603    2.8287  -18.7426 O   0  0  0  0  0  0  0  0  0  0  0  0
    5.8976    5.4236  -22.2830 O   0  0  0  0  0  0  0  0  0  0  0  0
    5.6065   -5.6371  -18.4834 F   0  0  0  0  0  0  0  0  0  0  0  0
    5.4672   -2.5636  -21.9698 H   0  0  0  0  0  0  0  0  0  0  0  0
    6.5368   -0.8953  -23.4472 H   0  0  0  0  0  0  0  0  0  0  0  0
    4.8086    0.4750  -18.9930 H   0  0  0  0  0  0  0  0  0  0  0  0
    3.1404   -1.0031  -18.4647 H   0  0  0  0  0  0  0  0  0  0  0  0
    6.1012   -3.6621  -20.1338 H   0  0  0  0  0  0  0  0  0  0  0  0
    3.6664   -4.9646  -16.8410 H   0  0  0  0  0  0  0  0  0  0  0  0
    4.1619    4.1446  -20.3498 H   0  0  0  0  0  0  0  0  0  0  0  0
    3.5845    2.4818  -20.7079 H   0  0  0  0  0  0  0  0  0  0  0  0
    5.6270    3.8604  -23.6602 H   0  0  0  0  0  0  0  0  0  0  0  0
    4.3684    3.9868  -22.3848 H   0  0  0  0  0  0  0  0  0  0  0  0
    6.3578    5.3401  -20.2325 H   0  0  0  0  0  0  0  0  0  0  0  0
    7.7737    5.3218  -21.3378 H   0  0  0  0  0  0  0  0  0  0  0  0
    1.2627   -2.9495  -16.8175 H   0  0  0  0  0  0  0  0  0  0  0  0
    2.5188   -3.2474  -15.5686 H   0  0  0  0  0  0  0  0  0  0  0  0
    2.2868   -1.5946  -16.2328 H   0  0  0  0  0  0  0  0  0  0  0  0
    9.5540    1.8691  -21.8564 H   0  0  0  0  0  0  0  0  0  0  0  0
    9.1589    3.3082  -20.8568 H   0  0  0  0  0  0  0  0  0  0  0  0
    8.3646    1.7333  -20.5173 H   0  0  0  0  0  0  0  0  0  0  0  0
    9.0692    2.9592  -23.9091 H   0  0  0  0  0  0  0  0  0  0  0  0
    7.5024    3.7788  -24.2248 H   0  0  0  0  0  0  0  0  0  0  0  0
    8.6776    4.5004  -23.0738 H   0  0  0  0  0  0  0  0  0  0  0  0
    7.3261    2.8472  -18.8894 H   0  0  0  0  0  0  0  0  0  0  0  0
    4.7129    3.8084  -16.3851 H   0  0  0  0  0  0  0  0  0  0  0  0
    6.4364    3.7577  -16.5490 H   0  0  0  0  0  0  0  0  0  0  0  0
  1  2  2  0  0  0  0
  1  7  1  0  0  0  0
  2 11  1  0  0  0  0
  3  7  2  0  0  0  0
  3  9  1  0  0  0  0
  4  8  2  0  0  0  0
  4 10  1  0  0  0  0
  5  8  1  0  0  0  0
  5 12  2  0  0  0  0
  6 10  2  0  0  0  0
  6 12  1  0  0  0  0
  7  8  1  0  0  0  0
  9 11  2  0  0  0  0
  9 17  1  0  0  0  0
 10 20  1  0  0  0  0
 11 25  1  0  0  0  0
 12 28  1  0  0  0  0
 13 23  2  0  0  0  0
 13 24  1  0  0  0  0
 13 26  1  0  0  0  0
 14 17  1  0  0  0  0
 14 26  1  0  0  0  0
 15 18  1  0  0  0  0
 15 27  1  0  0  0  0
 16 18  1  0  0  0  0
 16 27  1  0  0  0  0
 17 18  1  0  0  0  0
 17 23  1  0  0  0  0
 18 19  1  0  0  0  0
 19 21  1  0  0  0  0
 19 22  1  0  0  0  0
 19 25  1  0  0  0  0
  1 29  1  0  0  0  0
  2 30  1  0  0  0  0
  3 31  1  0  0  0  0
  4 32  1  0  0  0  0
  5 33  1  0  0  0  0
  6 34  1  0  0  0  0
 14 35  1  0  0  0  0
 14 36  1  0  0  0  0
 15 37  1  0  0  0  0
 15 38  1  0  0  0  0
 16 39  1  0  0  0  0
 16 40  1  0  0  0  0
 20 41  1  0  0  0  0
 20 42  1  0  0  0  0
 20 43  1  0  0  0  0
 21 44  1  0  0  0  0
 21 45  1  0  0  0  0
 21 46  1  0  0  0  0
 22 47  1  0  0  0  0
 22 48  1  0  0  0  0
 22 49  1  0  0  0  0
 23 50  1  0  0  0  0
 24 51  1  0  0  0  0
 24 52  1  0  0  0  0
M  CHG  1  23   1
M  END
> <OMEGA_C>
PqGyQA2Txb9kEq3B/NjFQLo/Gb90xLPB0USmQEYtOD4DqJ/BkhhpQIvN+r8sz5PBTzeqQP6xXcBB
U5vB8Ct8QPqDhsBEdIzB9wqkQBHWlb9P1aLBb2CVQHh2DcAyVJvByKC4QDWwkz8pfqbBlp9RQGiW
PcCia4zBuYXKQDxpOz99arDBAKieQA5+jsBD65PB+nWsQOhVRECNjJHB/7WJQFbtREC5AaHBlMmt
QNPUhEDL8LTBrQzXQL/ZoED1x6nBY6S3QCgjKUCUY6PBz+7NQPpYYECvf6zB3W7zQAR7MEDSUbLB
ciIRQB7LKsAHwoPBrBQMQZL4GEDMd6rB6zMEQbS4Y0A5sLvBAxDLQIzuNkDLsJjBrc+wQNrtZUDe
aYfBxYzhQL5zyD/HFrfBUSGFQBgKNUDc8JXBRrm8QH+OrUCiQ7LBJmizQDBjtMAD3pPBHfOuQE8R
JMAbwq/Bky3RQJ4wZb/Ik7vB4d+ZQHUy8z7C8ZfBwPtIQJBlgL+tt5PB/jzDQCNfasAEEqHBm6Vq
QBTensBouobBDS6FQJqghEBQzKLB6mhlQCjVHkDaqaXBHRC0QD8Rd0AkSL3BysmLQOomf0AZFLPB
QXPLQEjiqkA73KHB1MH4QCJMqkDqs6rBnJ6hPxXFPMA5iobBwjQhQGfVT8AkGXnBW1oSQNYczL/Y
3IHBI90YQYg+7z/b2a7B+IoSQfy5U0Cq2qbBRNUFQcXc3T9bI6TBpBsRQRJkPUDPRb/BoRPwQOHX
cUBZzMHBb9cKQU4DkEAMl7jBBW/qQMk3NkBqHZfBLNCWQJy9c0CYFIPBVPfNQJZ+cEBTZITBY46/
QOG6yr/Qy6vBd7fQQDHOGr9OkrLBH4amQNAiJj4btp/B7kmsQIYLYcA+VJrBeehoQG0M+7/Vp5TB
bqNuQLyphsAeG43BRpiqQImsmr+zQaLBneiYQGNbD8DT/5rB5Ky2QMHhlD9Nm6bBb0CbQD8lkMDb
hJPBcTPNQFvfQj8SBLDBW7xHQDMjPMAvuI3BAO+yQBACRkCXipHBa/aDQBS4PUApbp/Be/+YQISS
d0BqprXBBbK9QCAZo0CkoKvBICuxQJi5KUBhqaPBzNm+QAflYUCujK3BQGToQDJ6P0CTUbPBx/aw
QMlbu8B/r5LB/QMIQbaWPkCQwKvBcIj1QAwgdEAWab3BMjPLQDALP0AtJJrBaxjCQNxnU0BUQYfB
AzngQNvd0j9zFrfBPE2IQC8vPECvCpTByeGeQKiKp0CEtLPBjUACQFIvKsCKqofBd2DCQIA1KMAB
4a3BpdLgQD3eZr9C1rnBLM2WQOyv5j7+XpjBr1PIQIv9bsDzEZ/BuZxKQNUVfr9HJZXBPGxVQPmP
nsAiuIfBpaRyQNMnfUCMKqLBp/tZQKveDEDpG6LBy1SfQCM+ZEBg9r3B+x5zQGkFX0BNJrPB2l+y
QFVxrEAWoaPBUyTcQIJds0BqWa3B4J3JQG03usAjaYzBGxKZQMfk08DZppDBqPe/QARbw8AYZJrB
pQQWQagzJkA9ILDBzEcLQSMAgEAm8KjBerwEQdDxFEBY2aTBUUsJQWhCWEDB88DBm2nbQD1mckA1
TsPB9Nn7QH9rm0AsFrvBrPHqQDkaR0BDNprBgJ+tQPxrVkBAHoHBZYHhQP8NWkDF+IXB

> <OMEGA_E>
BOJcP3wvaD8=

> <OMEGA_NBR>
     69938

$$$$
288551
  -OEChem-04172616093D

 50 55  0     1  0  0  0  0  0999 V2000
    5.8415   -3.1969  -19.5092 C   0  0  0  0  0  0  0  0  0  0  0  0
    6.5047   -1.2258  -21.5127 C   0  0  0  0  0  0  0  0  0  0  0  0
    5.3664   -4.2842  -18.7522 C   0  0  0  0  0  0  0  0  0  0  0  0
    7.0537   -0.2131  -22.2943 C   0  0  0  0  0  0  0  0  0  0  0  0
    5.5668    0.4401  -20.0418 C   0  0  0  0  0  0  0  0  0  0  0  0
    3.9741   -1.6726  -18.8951 C   0  0  0  0  0  0  0  0  0  0  0  0
    5.7555   -0.8988  -20.3886 C   0  0  0  0  0  0  0  0  0  0  0  0
    5.1734   -1.9458  -19.5771 C   0  0  0  0  0  0  0  0  0  0  0  0
    6.1261    1.4794  -20.8094 C   0  0  0  0  0  0  0  0  0  0  0  0
    4.1668   -4.0321  -18.0622 C   0  0  0  0  0  0  0  0  0  0  0  0
    3.4818   -2.7473  -18.1325 C   0  0  0  0  0  0  0  0  0  0  0  0
    6.8549    1.1312  -21.9556 C   0  0  0  0  0  0  0  0  0  0  0  0
    4.9447    3.4538  -18.4068 C   0  0  0  0  0  0  0  0  0  0  0  0
    4.4663    3.3999  -20.5668 C   0  0  0  0  0  0  0  0  0  0  0  0
    6.8680    5.3368  -20.8866 C   0  0  0  0  0  0  0  0  0  0  0  0
    8.3349    3.9441  -20.5124 C   0  0  0  0  0  0  0  0  0  0  0  0
    5.9269    2.9289  -20.4130 C   0  0  2  0  0  0  0  0  0  0  0  0
    6.9307    3.8120  -21.1951 C   0  0  0  0  0  0  0  0  0  0  0  0
    7.0142    3.4047  -22.6985 C   0  0  0  0  0  0  0  0  0  0  0  0
    8.0722    4.2078  -23.4842 C   0  0  0  0  0  0  0  0  0  0  0  0
    5.6866    3.5857  -23.4543 C   0  0  0  0  0  0  0  0  0  0  0  0
    3.4578   -4.8403  -17.2646 N   0  0  0  0  0  0  0  0  0  0  0  0
    2.3797   -2.8190  -17.3751 N   0  0  0  0  0  0  0  0  0  0  0  0
    6.0776    3.0614  -18.9637 N   0  3  0  0  0  0  0  0  0  0  0  0
    4.7397    3.6624  -17.1189 N   0  0  0  0  0  0  0  0  0  0  0  0
    2.3666   -4.0981  -16.8457 O   0  0  0  0  0  0  0  0  0  0  0  0
    7.4315    2.0305  -22.8115 O   0  0  0  0  0  0  0  0  0  0  0  0
    3.9250    3.6343  -19.2524 O   0  0  0  0  0  0  0  0  0  0  0  0
    8.2989    5.3865  -20.6602 O   0  0  0  0  0  0  0  0  0  0  0  0
    6.7689   -3.3367  -20.0654 H   0  0  0  0  0  0  0  0  0  0  0  0
    6.6654   -2.2628  -21.7971 H   0  0  0  0  0  0  0  0  0  0  0  0
    5.8891   -5.2314  -18.7118 H   0  0  0  0  0  0  0  0  0  0  0  0
    7.6310   -0.4761  -23.1774 H   0  0  0  0  0  0  0  0  0  0  0  0
    4.9757    0.6789  -19.1593 H   0  0  0  0  0  0  0  0  0  0  0  0
    3.4671   -0.7165  -18.9492 H   0  0  0  0  0  0  0  0  0  0  0  0
    4.3739    4.3433  -21.1122 H   0  0  0  0  0  0  0  0  0  0  0  0
    3.8249    2.6619  -21.0603 H   0  0  0  0  0  0  0  0  0  0  0  0
    6.5598    5.9898  -21.7074 H   0  0  0  0  0  0  0  0  0  0  0  0
    6.3280    5.6355  -19.9820 H   0  0  0  0  0  0  0  0  0  0  0  0
    8.4284    3.6814  -19.4555 H   0  0  0  0  0  0  0  0  0  0  0  0
    9.1857    3.4945  -21.0313 H   0  0  0  0  0  0  0  0  0  0  0  0
    8.0752    3.8743  -24.5148 H   0  0  0  0  0  0  0  0  0  0  0  0
    9.0454    4.0399  -23.0389 H   0  0  0  0  0  0  0  0  0  0  0  0
    7.8223    5.2617  -23.4380 H   0  0  0  0  0  0  0  0  0  0  0  0
    5.8190    3.2845  -24.4881 H   0  0  0  0  0  0  0  0  0  0  0  0
    5.3901    4.6285  -23.4126 H   0  0  0  0  0  0  0  0  0  0  0  0
    4.9226    2.9701  -22.9895 H   0  0  0  0  0  0  0  0  0  0  0  0
    6.8838    2.8654  -18.3809 H   0  0  0  0  0  0  0  0  0  0  0  0
    5.4886    3.5240  -16.4429 H   0  0  0  0  0  0  0  0  0  0  0  0
    3.8294    3.9653  -16.7786 H   0  0  0  0  0  0  0  0  0  0  0  0
  1  3  2  0  0  0  0
  1  8  1  0  0  0  0
  2  4  2  0  0  0  0
  2  7  1  0  0  0  0
  3 10  1  0  0  0  0
  4 12  1  0  0  0  0
  5  7  2  0  0  0  0
  5  9  1  0  0  0  0
  6  8  2  0  0  0  0
  6 11  1  0  0  0  0
  7  8  1  0  0  0  0
  9 12  2  0  0  0  0
  9 17  1  0  0  0  0
 10 11  1  0  0  0  0
 10 22  2  0  0  0  0
 11 23  2  0  0  0  0
 12 27  1  0  0  0  0
 13 24  2  0  0  0  0
 13 25  1  0  0  0  0
 13 28  1  0  0  0  0
 14 17  1  0  0  0  0
 14 28  1  0  0  0  0
 15 18  1  0  0  0  0
 15 29  1  0  0  0  0
 16 18  1  0  0  0  0
 16 29  1  0  0  0  0
 17 18  1  0  0  0  0
 17 24  1  0  0  0  0
 18 19  1  0  0  0  0
 19 20  1  0  0  0  0
 19 21  1  0  0  0  0
 19 27  1  0  0  0  0
 22 26  1  0  0  0  0
 23 26  1  0  0  0  0
  1 30  1  0  0  0  0
  2 31  1  0  0  0  0
  3 32  1  0  0  0  0
  4 33  1  0  0  0  0
  5 34  1  0  0  0  0
  6 35  1  0  0  0  0
 14 36  1  0  0  0  0
 14 37  1  0  0  0  0
 15 38  1  0  0  0  0
 15 39  1  0  0  0  0
 16 40  1  0  0  0  0
 16 41  1  0  0  0  0
 20 42  1  0  0  0  0
 20 43  1  0  0  0  0
 20 44  1  0  0  0  0
 21 45  1  0  0  0  0
 21 46  1  0  0  0  0
 21 47  1  0  0  0  0
 24 48  1  0  0  0  0
 25 49  1  0  0  0  0
 25 50  1  0  0  0  0
M  CHG  1  24   1
M  END
> <OMEGA_C>
eu26QFSZTMDaEpzBaybQQALmnL/rGazB3rmrQPcXicB0BJbBKbjhQJAzWr6hWrLB3CKyQPxS4T6a
VaDBRlh+QEoW1r9BKZfBQi24QOAaZr/iG6PBNIylQLQP+b/znZzBPAnEQB9dvT+XeabBC1aFQJQG
gcBzf5DBNtVeQGbTL8BXD5HBM1vbQMLJkD8Ppa/BBDueQCYLXUATQZPBFuyOQKuXWUC5iKTB1sbb
QM7GqkDUF6fB2FsFQctsfEBcGaTBVKm9QN1yO0DhTaPBrsjdQBf3c0CDj6nBk3TgQKDmWUChlrXB
6icBQW2mhkCP37vBkfi1QCx8ZUBVorvB5ExdQNvjmsDhHYrBwkwYQDFqNMBKAIvBtnvCQKjtQ0CW
tZfBRquXQCRkakBz84jBpHUXQIgjg8D7w4bB6s7tQA/0AUD/fbbBjzJ7QLWYaEDWBJrBb8gEQYle
rEAUSKXBN5vYQHeMVcDvhaDB+UrVQHTREMBpYK7BT3O8QM9np8DJsZXBGjH0QIjC875Va7nBmTif
QNbOLT9RRpnBRORdQFhqN78EmJfBVveLQPb7ikDc5ajB0Mp0QPBcKkCIe6jBmenRQDasv0DNqK3B
yX7KQNFVtEAK25/B6toGQWCca0DtpJvBwvgSQWSmX0AkQKjBGDQBQaT0d0BLHsTB+LkQQY9GgUCq
T7jBoFD6QJhfqEDwgLvBUjW6QPY1UkCW58PBZ3usQJAclEDqTLvBz4WdQFoVPkBx6rfBR0jcQBpi
N0AvDJPB4qKvQHWIYUAWi4PBFhR1QPjHfUCGOobBEVXdQDo58UCnJb3BjQv1QMkrmEALcrvBOBzb
QEYMD0Ec8b3Bdab3QDRnV0C+gLvBdrXJQHrJlEDhf6vBKI7XQA+X70DMTanBujXeQOG+rEDfaLPB
caHbQGD42kCjQLPBD4TLQCaKT0BQeqvBNAzXQAiuGUEyE7TBOEzVQNo9DkH666nBgXTjQGw7J0Bp
hLPBbIKHQNAAX0BIGJfBBp7IQJiEJ0D3tpfBvAObQIAN8bo/jZ7BiauKQHqwHz+yr63BvLC0QM42
HEAP6qLBxjSyQF9odT/tdKbBuXXdQJUM6z4QPKvB/yHbQBLPfL+tfq/BVk4BQbac+j4XKqPBaCjU
QEyoLkEwCbLBOGnRQCGqHEEiD6LByWqKQMhcQUA8+aDBZZ1LQNVYgkDUzJLB7bfQQPR0MEFmB6fB
Y9XoQJwgoT+IY7TBoLSqQPTOVUCoH5HBNiiAQGsPBb/xDKfB14LgQIEW30C2jsTB+5ECQTxGqkBh
sMHB83TcQBxFF0G2jsXBg+gEQaurN0DXxcHBCQK4QCNopUALQaXBaEPWQEaA3kCbxKHBVLjOQImJ
1T9fpZPBf5LmQOzmS0CC0ZfBNY6uQHq9SL824prB1l+HQEXm7D7fUZjBlJ1fQPlrqT9W0q3BwyeR
QK1orj4x+rXB1B36QKoeor/+rLLBSCzDQLP+hL+FvrXBdX/SQC5N07/F+6jBRsEPQfSyBT73BafB
it/6QLvkF75CapzBzbMDQWoSwT8MaqDB2OBiQNJgSEBFE6bBKhkVQIfDhkBAIJfBZO5MQHDLjECg
FovB

> <OMEGA_E>
isrmwKB4MME=

> <OMEGA_NBR>
     74131

$$$$
288550
  -OEChem-04172616093D

 53 58  0     1  0  0  0  0  0999 V2000
    2.7179   -3.2277  -18.5152 C   0  0  0  0  0  0  0  0  0  0  0  0
    3.4415   -4.1629  -17.7668 C   0  0  0  0  0  0  0  0  0  0  0  0
    3.3722   -2.2410  -19.2496 C   0  0  0  0  0  0  0  0  0  0  0  0
    6.3481   -1.4990  -21.0218 C   0  0  0  0  0  0  0  0  0  0  0  0
    7.0180   -0.5106  -21.7354 C   0  0  0  0  0  0  0  0  0  0  0  0
    5.8747   -4.8591  -17.1345 C   0  0  0  0  0  0  0  0  0  0  0  0
    5.2267    0.2137  -19.7451 C   0  0  0  0  0  0  0  0  0  0  0  0
    7.0838   -4.3172  -17.5048 C   0  0  0  0  0  0  0  0  0  0  0  0
    4.8492   -4.0973  -17.7618 C   0  0  0  0  0  0  0  0  0  0  0  0
    5.4566   -1.1364  -20.0206 C   0  0  0  0  0  0  0  0  0  0  0  0
    4.7670   -2.1567  -19.2604 C   0  0  0  0  0  0  0  0  0  0  0  0
    5.8790    1.2338  -20.4646 C   0  0  0  0  0  0  0  0  0  0  0  0
    5.4783   -3.0981  -18.5073 C   0  0  0  0  0  0  0  0  0  0  0  0
    6.7994    0.8435  -21.4488 C   0  0  0  0  0  0  0  0  0  0  0  0
    5.1297    3.1614  -17.9837 C   0  0  0  0  0  0  0  0  0  0  0  0
    4.1063    3.0074  -19.9179 C   0  0  0  0  0  0  0  0  0  0  0  0
    5.2893    3.8674  -22.4984 C   0  0  0  0  0  0  0  0  0  0  0  0
    6.1325    5.1138  -21.0788 C   0  0  0  0  0  0  0  0  0  0  0  0
    5.6004    2.7021  -20.1771 C   0  0  2  0  0  0  0  0  0  0  0  0
    6.2348    3.5766  -21.2896 C   0  0  0  0  0  0  0  0  0  0  0  0
    7.6455    3.0596  -21.7132 C   0  0  0  0  0  0  0  0  0  0  0  0
    8.6770    3.1004  -20.5708 C   0  0  0  0  0  0  0  0  0  0  0  0
    8.2608    3.8582  -22.8828 C   0  0  0  0  0  0  0  0  0  0  0  0
    6.8348   -3.2555  -18.3330 N   0  0  0  0  0  0  0  0  0  0  0  0
    6.1235    3.0381  -18.8514 N   0  3  0  0  0  0  0  0  0  0  0  0
    5.2433    3.4381  -16.6975 N   0  0  0  0  0  0  0  0  0  0  0  0
    7.5383    1.7122  -22.2054 O   0  0  0  0  0  0  0  0  0  0  0  0
    3.9050    2.9612  -18.4905 O   0  0  0  0  0  0  0  0  0  0  0  0
    5.5168    5.2926  -22.3775 O   0  0  0  0  0  0  0  0  0  0  0  0
    1.6321   -3.2728  -18.5214 H   0  0  0  0  0  0  0  0  0  0  0  0
    2.9184   -4.9265  -17.1988 H   0  0  0  0  0  0  0  0  0  0  0  0
    2.7767   -1.5301  -19.8191 H   0  0  0  0  0  0  0  0  0  0  0  0
    6.5274   -2.5433  -21.2626 H   0  0  0  0  0  0  0  0  0  0  0  0
    7.7071   -0.7985  -22.5259 H   0  0  0  0  0  0  0  0  0  0  0  0
    5.7436   -5.7123  -16.4831 H   0  0  0  0  0  0  0  0  0  0  0  0
    4.5258    0.4775  -18.9525 H   0  0  0  0  0  0  0  0  0  0  0  0
    8.0984   -4.5924  -17.2534 H   0  0  0  0  0  0  0  0  0  0  0  0
    3.8107    4.0031  -20.2416 H   0  0  0  0  0  0  0  0  0  0  0  0
    3.4347    2.2787  -20.3707 H   0  0  0  0  0  0  0  0  0  0  0  0
    5.6076    3.4805  -23.4691 H   0  0  0  0  0  0  0  0  0  0  0  0
    4.2290    3.6356  -22.3591 H   0  0  0  0  0  0  0  0  0  0  0  0
    5.4641    5.4964  -20.2967 H   0  0  0  0  0  0  0  0  0  0  0  0
    7.0719    5.6743  -20.9852 H   0  0  0  0  0  0  0  0  0  0  0  0
    9.6258    2.7288  -20.9384 H   0  0  0  0  0  0  0  0  0  0  0  0
    8.3268    2.4776  -19.7566 H   0  0  0  0  0  0  0  0  0  0  0  0
    8.7879    4.1239  -20.2311 H   0  0  0  0  0  0  0  0  0  0  0  0
    9.2355    3.4471  -23.1237 H   0  0  0  0  0  0  0  0  0  0  0  0
    8.3648    4.8980  -22.5910 H   0  0  0  0  0  0  0  0  0  0  0  0
    7.6096    3.7854  -23.7485 H   0  0  0  0  0  0  0  0  0  0  0  0
    7.5460   -2.6733  -18.7535 H   0  0  0  0  0  0  0  0  0  0  0  0
    7.0789    3.1417  -18.5430 H   0  0  0  0  0  0  0  0  0  0  0  0
    6.1584    3.5812  -16.2742 H   0  0  0  0  0  0  0  0  0  0  0  0
    4.4184    3.5135  -16.1059 H   0  0  0  0  0  0  0  0  0  0  0  0
  1  2  1  0  0  0  0
  1  3  2  0  0  0  0
  2  9  2  0  0  0  0
  3 11  1  0  0  0  0
  4  5  2  0  0  0  0
  4 10  1  0  0  0  0
  5 14  1  0  0  0  0
  6  8  2  0  0  0  0
  6  9  1  0  0  0  0
  7 10  2  0  0  0  0
  7 12  1  0  0  0  0
  8 24  1  0  0  0  0
  9 13  1  0  0  0  0
 10 11  1  0  0  0  0
 11 13  2  0  0  0  0
 12 14  2  0  0  0  0
 12 19  1  0  0  0  0
 13 24  1  0  0  0  0
 14 27  1  0  0  0  0
 15 25  2  0  0  0  0
 15 26  1  0  0  0  0
 15 28  1  0  0  0  0
 16 19  1  0  0  0  0
 16 28  1  0  0  0  0
 17 20  1  0  0  0  0
 17 29  1  0  0  0  0
 18 20  1  0  0  0  0
 18 29  1  0  0  0  0
 19 20  1  0  0  0  0
 19 25  1  0  0  0  0
 20 21  1  0  0  0  0
 21 22  1  0  0  0  0
 21 23  1  0  0  0  0
 21 27  1  0  0  0  0
  1 30  1  0  0  0  0
  2 31  1  0  0  0  0
  3 32  1  0  0  0  0
  4 33  1  0  0  0  0
  5 34  1  0  0  0  0
  6 35  1  0  0  0  0
  7 36  1  0  0  0  0
  8 37  1  0  0  0  0
 16 38  1  0  0  0  0
 16 39  1  0  0  0  0
 17 40  1  0  0  0  0
 17 41  1  0  0  0  0
 18 42  1  0  0  0  0
 18 43  1  0  0  0  0
 22 44  1  0  0  0  0
 22 45  1  0  0  0  0
 22 46  1  0  0  0  0
 23 47  1  0  0  0  0
 23 48  1  0  0  0  0
 23 49  1  0  0  0  0
 24 50  1  0  0  0  0
 25 51  1  0  0  0  0
 26 52  1  0  0  0  0
 26 53  1  0  0  0  0
M  CHG  1  25   1
M  END
> <OMEGA_C>
bvItQDaSTsAVH5TBhkFcQEs2hcBRIo7Bw9JXQCltD8Ae/5nBXCPLQN7ev7+5LKjB05PgQHu5Ar8C
4q3Buf27QKh9m8BpE4nBLkGnQKfYWj729Z3BFa7iQCUmisDKCYzB5yybQAMdg8AvGI7BiJyuQMh2
kb8jKqDBd4uYQHMHCsA/FZrBtSC8QM7snT97t6PBSk6vQIZGRsD4DpTBcJTZQKnsVz84l6vBLCak
QPxTSkCL3o/BsmaDQFh5QEDZV5/B3UGpQCCDd0Cw/LPBJT3EQJSko0BYoajBsDazQDPvLEC9aqHB
doPHQMnmZEALUarBuaf0QLLPQ0CQtK3B5tQKQWRtRkD4kKTBNCwEQY/sdkD0D7fBWrbaQFFZUMAT
qpLBV/PDQKBvQkC9z5bBaMmnQEcKXEBjlIXBCzrxQFgq2z+2pLHBDOx5QL+DPUB47JPBXomwQPNc
qUARBbPBPujQP750UcDcK5TBtMY6QAimncAPl4nBUbUxQDLaw798jZ7Bu+DQQPLFIsDbGarBNqD2
QAltTL8ENbTB1cu3QAHLtsB63YPBktOQQPN69D64npfBBJMBQS31ksD8BorBU+NzQDEZgECz7qHB
CtJbQNvWEUBA96LBjHGzQCbAXkC4wLvB9FOHQGmuaECJ37LBwdmuQNvir0COX6LB7EziQH6TtUCY
4afBHgMaQTKlLkC+gafBwToFQZaRHkBtDZ7BT5sMQdX2g0Be2aHBgsQTQc6cXEA9/bjBLNYFQRy8
nEBRurTBMILzQFREckD//L3BzHjxQLgXK8A/B5bBDIbiQIARSUAOWJTB2BHFQBgzZUCRMYLBXGON
QJTdYEDN2IDBBFs4QDCiLcD5hJjBlstoQKSJccA+cZTBVtFfQBlB0b8/kZ3BOevJQEhKLr9jA63B
VpjdQPiqyz7QDLLBePLCQHTPk8DxZJLBOnSsQMohUz+/25/BWOzoQMClgcBPnZXBdEmhQIx9b8DE
fZXB9SqxQFja7r6j76PBHlycQBltyr+JtJ7BTXrAQIK29j8ywaTBCjK0QDKJKcDdlprB5pPYQD4M
2T+GCK7BZZCaQKqAaEDw9I/BqKCNQOTid0C2QaHBTj/dQOo9t0AnOqHBXvIEQRp1h0DhWZ/BtIW7
QL6hVEAcLKDBkZ3dQNMQiEAVO6XBp2/hQGAngUByjbHBHZYCQRBNnECOtLbBzBm4QBDgi0CDrLfB
rbXfQGBCN8AyjZrB2N++QEXZUECFgZTBEtaSQF3ja0ASlIXBvhntQELjKkDZw7PBvFd2QHDCfUBb
uJbBfmMFQWXXtUByCZ/BizXmP+LWLsDouJfB/C9JQKB1k8BPhpDBiBg4QP68U78joqDBMAzOQDr4
1r8+S7DBHKvwQJD7ZD7kMLnBu8S/QBAMssBgQ47B9eqYQH6yeT+jv5jBOtQEQXlijMBx1pTBgH6M
QJwtnEBKpqTB6nVxQIbVTkC5EabBuCzVQHu8z0ASI6fB21rLQMrMvUDl35nBZ64FQXBOdUCoOJfB
LosSQeY3dEB0uqPBhP4CQTzrlUB0OL/BJsYRQXTDk0DhHbPBdIH+QHTivUATULXB2hm9QPdXhkCS
JsDBtO+vQCsyrUBRV7bBgVyeQBcfb0CCzbTBCL31QF4mD8Ays53BJLjXQOVaPUC25I/BSdOpQFt3
W0CHLoDBQYdrQMz6fkAiyYLBBVs4QPqlFsD96JrBlstoQHCNWsBC1ZbBVtFfQKxIo79D9Z/BOOvJ
QOSypL5nZ6/BV5jdQFLGQT/VcLTBd/LCQFlRiMD1yJTBO3SsQFCJlz/DP6LBV+zoQExPbMBTAZjB
dEmhQFiBWMDI4ZfB9SqxQLDi272nU6bBHVycQK50nL+NGKHBTXrAQHhXEkA2JafBCjK0QPyMEsDh
+pzB5pPYQFSCA0CLbLDBZZCaQOB8f0D0WJLBqKCNQI1vh0C7paPBTj/dQAW8wkAsnqPBXvIEQTTz
kkDlvaHBtIW7QPOda0AgkKLBkJ3dQO6Ok0AZn6fBp2/hQHmljEB28bPBHZYCQSvLp0CTGLnByxm4
QCpel0CHELrBrrXfQCtGIMA28ZzB2N++QHrVZ0CJ5ZbBEtaSQMpvgUAX+IfBvhntQHbfQUDdJ7bB
vFd2QFJfikBgHJnBfmMFQYBVwUB2baHBizXmP6zaF8DtHJrB/C9JQIX3h8BU6pLBiBg4QFCY774n
BqPBMQzOQM//qL9Cr7LBHKvwQLkvFT/olLvBvMS/QPWNpsBlp5DB9eqYQKnRqj+nI5vBOtQEQV7k
gMB1OpfBgH6MQLarp0BPCqfB63VxQLzRZUC9dajBuCzVQJY620AXh6nB21rLQOVKyUDqQ5zBZ64F
QVMlhkCtnJnBLosSQQ2ahUB4HqbBhP4CQVZpoUB5nMHBJsYRQY5Bn0DlgbXBdIH+QI5gyUAYtLfB
2hm9QBLWkUCWisLBs++vQEawuEBVu7jBglyeQKYNg0CGMbfBCb31QE5U8L83F6DBI7jXQBpXVEC7
SJLBSdOpQJBzckCLkoLBQodrQIH7ikAnLYXBrIbUQI5whMBWQ5PB+zGpQIRsi8CeCpHBxo7hQH4F
QsAtMZnBx9PmQGBdkL9C1qzB/CfzQAAGZryIw7LBsXo6QD1QVsD5LpTBBuTHQIptqT50jp/BMZ8h
QGTCDcC/lpnBxpmKQPUpXMBP45TBbQHRQLGadL9XP6PBLc/DQPH0BsCWFZ3B24DUQMROvD+mXKXB
kJSYQPK1FcBszprB+q/pQMt4oz+9IK/BhUyvQEiISUBmV5DBNqyaQBCMTEAkRqHBYljgQFMfrECU
CqTBhwUKQViug0AHzKLBTNzKQGQ4N0DBM6HBYxLmQJwmeUCyeafB7QfmQGR/ZkAJvLPBSJoBQQPa
kUBCHbrBUmC5QMT7bEBb2bjBKKRpQL9kzr9Djp3Bnf/SQGUuOkAnrpXBMoCrQEbPT0Ar2YXBUhH3
QDhUEkByurXBkDGMQPxTUkDmWpbBixwHQXq2sUAsDaPBbUDsQIn9msB4U5DBYn2fQHUup8A9aYzB
YsMBQctCOcAWxZrBcU3uQOnHB8CW1K/BjvoBQYCrIL6US7rBQOsPQGcsgcBSJ5DBdLu2QNaA5T7x
CJjB7k/GP15C5L9A9prB+n6TQG0ghUDh/aTBnzyHQPK0G0AaQ6XBv33SQPK5wUA+/KnB/6TQQMvi
sUCnV5zBIUYNQZx7ckBKnJrBrIcXQUaDckDktKfB884AQeSPiUDvhMLBaOERQeSXjkBxQLfBHkH4
QEhvskDJ8rjB+su7QGZJX0AXVsHBevesQL6WlkAqs7fBkSWkQAz7PkBkFLXBbQVqQKsYQr934KHB
PbDuQHg3MED2o5HB7HHFQPy9SECk/4DBCpOOQDbVW0Aha4LB3AXnQOKsV8D0e5fB1x+8QFQ/bsBF
85XBuuzxQMTjCsBXc5zB+ib1QCCDML2Kma7BAVb/QO+qlD9YkbPB2oNcQHdTOMC+SZnBCi/QQCpH
lj/ovKDBzU8/QG7O3L/ABZ7BhMebQBszNsA/gZnBBGTdQKCFGL2GM6XBx2nSQKaVpL9LCaDBt47a
QAreGUAskKXB+qOnQDxW078edJ7BycXxQBMkGED7KK/BFHytQF//bkAj7I/BLpabQBz8ekCB/KDB
p2fbQLSFyUB2XqHBPBEJQZwopUAyZKDBonXMQJWlbUDmkKDBj77lQGYOnEDjwaXBQ4HoQCJGl0Dh
KLLBZvsBQZBcukAufLfB4Ju8QIS1mECbt7fBHX+CQDBhfb+7HKHBgo3SQAuAaUCe+JTBtrinQBnx
bECKdYXBU2b9QKJBX0DZ27TBgiSLQO9gdkDhO5bBkTcEQdp10kAVtZ/BSQwAQdxZgcDSxJTBcha0
QB4olcBlEZLBls8JQaz59r+Zg53BU8//QDDfeb8YL7LBaNcIQUgEkz9e9brBsps0QIFzasB4BJbB
jI29QFiVlD8WYZnB8Wn+P1Isrr+ydp/BK2eSQEbinEDKGKTB+PuKQFg/SkBRuaXBGLvMQF4A4EBL
+qbBJAbKQIwly0CwxZnBohUMQfhWmEBYZZjByVwXQZjQnkCYLaXBnjsCQQgTtUBuDMDBohcSQZC+
uECWULTB2xP2QLJg2UB/vrXBzf3AQME1lUBWSMDBmlCtQDUht0BrBbbBONWoQHeJfUAKurTB4guB
QKC0vL2ez6TBp+LtQCwwYUDfuZDBUg/BQMCgZkDJZYDBtNmJQHWjcUC0Q4LB

> <OMEGA_E>
Nhn/wDi2CsH+8wnBncP9wFraCcE=

> <OMEGA_NBR>
     78832

$$$$
288557
  -OEChem-04172616093D

 49 53  0     1  0  0  0  0  0999 V2000
    5.7297   -1.5937  -21.5856 C   0  0  0  0  0  0  0  0  0  0  0  0
    6.2728   -0.6293  -22.4497 C   0  0  0  0  0  0  0  0  0  0  0  0
    5.0681   -4.2511  -18.0503 C   0  0  0  0  0  0  0  0  0  0  0  0
    3.7419   -4.1624  -17.5884 C   0  0  0  0  0  0  0  0  0  0  0  0
    5.3161    0.1353  -19.9251 C   0  0  0  0  0  0  0  0  0  0  0  0
    5.2713   -1.2141  -20.3106 C   0  0  0  0  0  0  0  0  0  0  0  0
    4.7446   -2.2224  -19.3760 C   0  0  0  0  0  0  0  0  0  0  0  0
    5.8307    1.1240  -20.7978 C   0  0  0  0  0  0  0  0  0  0  0  0
    6.3651    0.7189  -22.0531 C   0  0  0  0  0  0  0  0  0  0  0  0
    5.5702   -3.2879  -18.9461 C   0  0  0  0  0  0  0  0  0  0  0  0
    2.9161   -3.1036  -18.0133 C   0  0  0  0  0  0  0  0  0  0  0  0
    3.4168   -2.1244  -18.8951 C   0  0  0  0  0  0  0  0  0  0  0  0
    5.4294    3.0104  -18.1696 C   0  0  0  0  0  0  0  0  0  0  0  0
    4.3012    2.9805  -20.0733 C   0  0  0  0  0  0  0  0  0  0  0  0
    5.3355    4.2070  -22.5382 C   0  0  0  0  0  0  0  0  0  0  0  0
    6.6696    5.0225  -21.1487 C   0  0  0  0  0  0  0  0  0  0  0  0
    5.7460    2.6093  -20.4087 C   0  0  2  0  0  0  0  0  0  0  0  0
    6.3795    3.5155  -21.5510 C   0  0  0  0  0  0  0  0  0  0  0  0
    7.5354    2.8115  -22.3463 C   0  0  0  0  0  0  0  0  0  0  0  0
    8.7429    2.4933  -21.4217 C   0  0  0  0  0  0  0  0  0  0  0  0
    8.0981    3.6461  -23.5434 C   0  0  0  0  0  0  0  0  0  0  0  0
    6.3738    2.8406  -19.0830 N   0  3  0  0  0  0  0  0  0  0  0  0
    5.5649    3.5540  -16.9111 N   0  0  0  0  0  0  0  0  0  0  0  0
    7.0016    1.5909  -22.9198 O   0  0  0  0  0  0  0  0  0  0  0  0
    4.2018    2.7117  -18.6906 O   0  0  0  0  0  0  0  0  0  0  0  0
    5.8028    5.4659  -22.1519 O   0  0  0  0  0  0  0  0  0  0  0  0
    6.8562   -3.3758  -19.3623 F   0  0  0  0  0  0  0  0  0  0  0  0
    1.6355   -3.0378  -17.5831 F   0  0  0  0  0  0  0  0  0  0  0  0
    2.6072   -1.1162  -19.3045 F   0  0  0  0  0  0  0  0  0  0  0  0
    5.6639   -2.6251  -21.8990 H   0  0  0  0  0  0  0  0  0  0  0  0
    6.6232   -0.9242  -23.4278 H   0  0  0  0  0  0  0  0  0  0  0  0
    5.7020   -5.0595  -17.7171 H   0  0  0  0  0  0  0  0  0  0  0  0
    3.3569   -4.9071  -16.9075 H   0  0  0  0  0  0  0  0  0  0  0  0
    4.9531    0.4228  -18.9494 H   0  0  0  0  0  0  0  0  0  0  0  0
    4.1104    4.0436  -20.2815 H   0  0  0  0  0  0  0  0  0  0  0  0
    3.5939    2.3621  -20.6454 H   0  0  0  0  0  0  0  0  0  0  0  0
    5.4999    3.9737  -23.6005 H   0  0  0  0  0  0  0  0  0  0  0  0
    4.2826    4.0204  -22.2805 H   0  0  0  0  0  0  0  0  0  0  0  0
    6.3468    5.2841  -20.1302 H   0  0  0  0  0  0  0  0  0  0  0  0
    7.7157    5.3308  -21.2924 H   0  0  0  0  0  0  0  0  0  0  0  0
    9.5340    2.0018  -22.0070 H   0  0  0  0  0  0  0  0  0  0  0  0
    9.1320    3.4283  -20.9921 H   0  0  0  0  0  0  0  0  0  0  0  0
    8.4177    1.8248  -20.6110 H   0  0  0  0  0  0  0  0  0  0  0  0
    8.8994    3.0801  -24.0410 H   0  0  0  0  0  0  0  0  0  0  0  0
    7.2900    3.8465  -24.2623 H   0  0  0  0  0  0  0  0  0  0  0  0
    8.5004    4.5989  -23.1689 H   0  0  0  0  0  0  0  0  0  0  0  0
    7.3578    2.8645  -18.9069 H   0  0  0  0  0  0  0  0  0  0  0  0
    4.7537    3.7390  -16.3564 H   0  0  0  0  0  0  0  0  0  0  0  0
    6.4744    3.7637  -16.5523 H   0  0  0  0  0  0  0  0  0  0  0  0
  1  2  2  0  0  0  0
  1  6  1  0  0  0  0
  2  9  1  0  0  0  0
  3  4  1  0  0  0  0
  3 10  2  0  0  0  0
  4 11  2  0  0  0  0
  5  6  2  0  0  0  0
  5  8  1  0  0  0  0
  6  7  1  0  0  0  0
  7 10  1  0  0  0  0
  7 12  2  0  0  0  0
  8  9  2  0  0  0  0
  8 17  1  0  0  0  0
  9 24  1  0  0  0  0
 10 27  1  0  0  0  0
 11 12  1  0  0  0  0
 11 28  1  0  0  0  0
 12 29  1  0  0  0  0
 13 22  2  0  0  0  0
 13 23  1  0  0  0  0
 13 25  1  0  0  0  0
 14 17  1  0  0  0  0
 14 25  1  0  0  0  0
 15 18  1  0  0  0  0
 15 26  1  0  0  0  0
 16 18  1  0  0  0  0
 16 26  1  0  0  0  0
 17 18  1  0  0  0  0
 17 22  1  0  0  0  0
 18 19  1  0  0  0  0
 19 20  1  0  0  0  0
 19 21  1  0  0  0  0
 19 24  1  0  0  0  0
  1 30  1  0  0  0  0
  2 31  1  0  0  0  0
  3 32  1  0  0  0  0
  4 33  1  0  0  0  0
  5 34  1  0  0  0  0
 14 35  1  0  0  0  0
 14 36  1  0  0  0  0
 15 37  1  0  0  0  0
 15 38  1  0  0  0  0
 16 39  1  0  0  0  0
 16 40  1  0  0  0  0
 20 41  1  0  0  0  0
 20 42  1  0  0  0  0
 20 43  1  0  0  0  0
 21 44  1  0  0  0  0
 21 45  1  0  0  0  0
 21 46  1  0  0  0  0
 22 47  1  0  0  0  0
 23 48  1  0  0  0  0
 23 49  1  0  0  0  0
M  CHG  1  22   1
M  END
> <OMEGA_C>
mlm3QHH/y79Ar6zBBrvIQOYZIb/rmLPBBi6iQK0IiMAKZ5DBPHtvQJ8yhcATtYzBqh2qQO6RCj6E
Zp/BVK6oQMBmm78zfKLB0NOXQCE7DsAMApvBDpW6QK7gjz/4YabBtq7LQAoNOD+rbLDBeD+yQKVs
UsCWkZfByaA6QGGhRsAqG5DBJ61aQLX1B8BAKZfBoL2tQP+pQEBIW5HBWqOJQJXAPkAflqDBzLyq
QIKfhkA+TrTBNG3VQAm4oECeMKnBBN+3QGP/JkDsRKPBeyTMQPv9YECCaKzB8iHxQMHvM0AoxbLB
FOMLQQeTH0CfX6vBwJEBQfFYaUDWWLzB6vXLQATMNUAQqpjBchOyQAp1Y0DySYfBQg3gQECjyz/F
W7fBIXWGQEKNLUBghpXBprC5QGvorkAlN7HB/mXbQEANWMD75ZrBY1nRPxNrQsA2qozBL9wmQKPe
jr+yb5rB2z61QFsCKMA/Ma/BKvHTQBqbbL8MbLvBBHe2QAfnocCIvI3BfddWQKkGncB6QofB5H+e
QI1/2D5SmJfBDYiDQHRlgUB3QKLBZAJmQBstF0DeKaXBHf+vQGFQfkDnzbzBuQqJQIKngEBoPrLB
nRjLQEsXqUC9CqHBzub2QL2VqkDIVqrBYosYQX8dAEBIDrDBtBwSQQhpW0Dk76fB1q4GQYKT6T9D
46TB2WMOQXwgRUD7U8DB80fpQLYtdkA0GcLB0wEIQfUpk0DiWbnBgXPrQE9TN0BkQZfBDR6YQIRL
b0DY2YLBfi7PQHDgcEAWa4TB

> <OMEGA_E>
fudRPw==

> <OMEGA_NBR>
     79947

$$$$
288556
  -OEChem-04172616093D

 53 57  0     1  0  0  0  0  0999 V2000
    3.2809   -4.1269  -18.9829 C   0  0  0  0  0  0  0  0  0  0  0  0
    3.7304   -4.1996  -17.6506 C   0  0  0  0  0  0  0  0  0  0  0  0
    3.8015   -3.1472  -19.8479 C   0  0  0  0  0  0  0  0  0  0  0  0
    5.9058   -1.5873  -21.5021 C   0  0  0  0  0  0  0  0  0  0  0  0
    6.4763   -0.6148  -22.3348 C   0  0  0  0  0  0  0  0  0  0  0  0
    4.7087   -3.2989  -17.1841 C   0  0  0  0  0  0  0  0  0  0  0  0
    5.1628    0.1639  -19.9740 C   0  0  0  0  0  0  0  0  0  0  0  0
    5.2713   -1.2005  -20.3069 C   0  0  0  0  0  0  0  0  0  0  0  0
    4.7683   -2.2289  -19.3833 C   0  0  0  0  0  0  0  0  0  0  0  0
    5.6957    1.1608  -20.8254 C   0  0  0  0  0  0  0  0  0  0  0  0
    6.3994    0.7518  -22.0014 C   0  0  0  0  0  0  0  0  0  0  0  0
    5.2489   -2.3196  -18.0449 C   0  0  0  0  0  0  0  0  0  0  0  0
    5.6253    3.0857  -18.1852 C   0  0  0  0  0  0  0  0  0  0  0  0
    4.1459    2.9801  -19.9124 C   0  0  0  0  0  0  0  0  0  0  0  0
    4.7994    3.8672  -22.6966 C   0  0  0  0  0  0  0  0  0  0  0  0
    5.9578    5.0908  -21.4495 C   0  0  0  0  0  0  0  0  0  0  0  0
    5.5505    2.6494  -20.4504 C   0  0  2  0  0  0  0  0  0  0  0  0
    5.9831    3.5229  -21.6870 C   0  0  0  0  0  0  0  0  0  0  0  0
    7.2768    2.9757  -22.4100 C   0  0  0  0  0  0  0  0  0  0  0  0
    8.5175    2.9560  -21.4673 C   0  0  0  0  0  0  0  0  0  0  0  0
    7.6889    3.7949  -23.6738 C   0  0  0  0  0  0  0  0  0  0  0  0
    7.5438   -1.4831  -18.1619 C   0  0  0  0  0  0  0  0  0  0  0  0
    6.3759    2.9665  -19.2643 N   0  3  0  0  0  0  0  0  0  0  0  0
    6.1085    3.2929  -16.9026 N   0  0  0  0  0  0  0  0  0  0  0  0
    7.0156    1.6312  -22.8785 O   0  0  0  0  0  0  0  0  0  0  0  0
    4.2899    2.9462  -18.4900 O   0  0  0  0  0  0  0  0  0  0  0  0
    4.9921    5.2338  -22.4562 O   0  0  0  0  0  0  0  0  0  0  0  0
    6.2185   -1.4624  -17.5338 O   0  0  0  0  0  0  0  0  0  0  0  0
    7.6857   -2.4231  -19.1400 F   0  0  0  0  0  0  0  0  0  0  0  0
    8.4695   -1.7454  -17.2060 F   0  0  0  0  0  0  0  0  0  0  0  0
    7.8121   -0.2536  -18.6771 F   0  0  0  0  0  0  0  0  0  0  0  0
    2.5368   -4.8231  -19.3408 H   0  0  0  0  0  0  0  0  0  0  0  0
    3.3246   -4.9470  -16.9848 H   0  0  0  0  0  0  0  0  0  0  0  0
    3.4603   -3.0972  -20.8713 H   0  0  0  0  0  0  0  0  0  0  0  0
    5.9530   -2.6307  -21.7769 H   0  0  0  0  0  0  0  0  0  0  0  0
    6.9800   -0.9162  -23.2414 H   0  0  0  0  0  0  0  0  0  0  0  0
    5.0476   -3.3585  -16.1604 H   0  0  0  0  0  0  0  0  0  0  0  0
    4.6674    0.4525  -19.0587 H   0  0  0  0  0  0  0  0  0  0  0  0
    3.8264    3.9780  -20.2471 H   0  0  0  0  0  0  0  0  0  0  0  0
    3.4148    2.2296  -20.2471 H   0  0  0  0  0  0  0  0  0  0  0  0
    4.9926    3.5624  -23.7357 H   0  0  0  0  0  0  0  0  0  0  0  0
    3.8157    3.4899  -22.3806 H   0  0  0  0  0  0  0  0  0  0  0  0
    5.6094    5.3869  -20.4490 H   0  0  0  0  0  0  0  0  0  0  0  0
    6.9116    5.5927  -21.6691 H   0  0  0  0  0  0  0  0  0  0  0  0
    9.3890    2.5685  -22.0154 H   0  0  0  0  0  0  0  0  0  0  0  0
    8.7288    3.9774  -21.1180 H   0  0  0  0  0  0  0  0  0  0  0  0
    8.3107    2.3082  -20.6027 H   0  0  0  0  0  0  0  0  0  0  0  0
    8.5932    3.3539  -24.1184 H   0  0  0  0  0  0  0  0  0  0  0  0
    6.8706    3.7718  -24.4085 H   0  0  0  0  0  0  0  0  0  0  0  0
    7.8930    4.8365  -23.3850 H   0  0  0  0  0  0  0  0  0  0  0  0
    7.3698    3.0759  -19.2783 H   0  0  0  0  0  0  0  0  0  0  0  0
    5.4736    3.3488  -16.1320 H   0  0  0  0  0  0  0  0  0  0  0  0
    7.0921    3.3863  -16.7478 H   0  0  0  0  0  0  0  0  0  0  0  0
  1  2  1  0  0  0  0
  1  3  2  0  0  0  0
  2  6  2  0  0  0  0
  3  9  1  0  0  0  0
  4  5  2  0  0  0  0
  4  8  1  0  0  0  0
  5 11  1  0  0  0  0
  6 12  1  0  0  0  0
  7  8  2  0  0  0  0
  7 10  1  0  0  0  0
  8  9  1  0  0  0  0
  9 12  2  0  0  0  0
 10 11  2  0  0  0  0
 10 17  1  0  0  0  0
 11 25  1  0  0  0  0
 12 28  1  0  0  0  0
 13 23  2  0  0  0  0
 13 24  1  0  0  0  0
 13 26  1  0  0  0  0
 14 17  1  0  0  0  0
 14 26  1  0  0  0  0
 15 18  1  0  0  0  0
 15 27  1  0  0  0  0
 16 18  1  0  0  0  0
 16 27  1  0  0  0  0
 17 18  1  0  0  0  0
 17 23  1  0  0  0  0
 18 19  1  0  0  0  0
 19 20  1  0  0  0  0
 19 21  1  0  0  0  0
 19 25  1  0  0  0  0
 22 28  1  0  0  0  0
 22 29  1  0  0  0  0
 22 30  1  0  0  0  0
 22 31  1  0  0  0  0
  1 32  1  0  0  0  0
  2 33  1  0  0  0  0
  3 34  1  0  0  0  0
  4 35  1  0  0  0  0
  5 36  1  0  0  0  0
  6 37  1  0  0  0  0
  7 38  1  0  0  0  0
 14 39  1  0  0  0  0
 14 40  1  0  0  0  0
 15 41  1  0  0  0  0
 15 42  1  0  0  0  0
 16 43  1  0  0  0  0
 16 44  1  0  0  0  0
 20 45  1  0  0  0  0
 20 46  1  0  0  0  0
 20 47  1  0  0  0  0
 21 48  1  0  0  0  0
 21 49  1  0  0  0  0
 21 50  1  0  0  0  0
 23 51  1  0  0  0  0
 24 52  1  0  0  0  0
 24 53  1  0  0  0  0
M  CHG  1  23   1
M  END
> <OMEGA_C>
1vpRQNEPhMAP3ZfBQb5uQCVjhsBgNI3ByktzQGJrScBuyJ7BXvy8QDwsy79KBKzBKD7PQFljHb/D
rbLBsq2WQEIhU8AieYnBrTWlQLTeJz6wyp/Baa6oQNyomb+XdKLBD5aYQC2mDsAGEZvBZUO2QO6T
lD9amqbBMsjMQNRyQD/dArDBpPanQPNzFMD7W5DBzwK0QNp8RUAze5HBdKuEQDe6PkCLTJ/BDZWZ
QBeAd0CTkrXBIaa+QKrnokCkmKvBx52xQG2QKUBXmqPBq3W/QO13YUAEf63Bc9voQNFxPkCvR7PB
10cIQX0uPUAYvavBewv2QM/fckD7Y73BnGbxQLTWvb+iS5HBuQfMQG/bPUA4HZrBKXnDQC2+UkB8
OIfBG4DgQFjK0D8xB7fBuEaJQNKOPECB65PB5r6fQB17p0A4prPBPv7GQKIwu78wRYzB4PD1QIYU
G8C1HpnB+YIHQZZo37/WpYnBu/z5QHTWgb6fapXBZFsiQOFWmsDouZrBEsZUQIZNnsD04IfBaHVd
QAc4RsB7+KbBD3++QPpcKMAUN67BflzfQOeNar9d7rnBGoahQNPxVsCTSIHBL1uVQCCr5z48eJjB
6ON0QECYfkAW+qHBhYtaQACxDkAb+qHBAMOfQJr+Y0C94r3BCzR0QGlaX0BxC7PBZoCzQERhrECk
l6PBHyzdQJf3skBRWq3BSjkWQbFhJECfH7DBCqkLQQ2OfkC98ajBhfgEQay5E0BK0qTB8n0JQbCm
VkCR8sDBrtvbQMRkcUCpRMPBYpP8QJ3EmkBoFLvBwtXrQJ7bREDcOZrBzCevQFJTVkBtDoHBMvLi
QBS5WECO+4XB

> <OMEGA_E>
fEyGPw==

> <OMEGA_NBR>
     81126

$$$$
288559
  -OEChem-04172616093D

 35 38  0     1  0  0  0  0  0999 V2000
    7.6650    3.8225  -23.4685 C   0  0  0  0  0  0  0  0  0  0  0  0
    7.2600    5.1405  -23.6631 C   0  0  0  0  0  0  0  0  0  0  0  0
    5.9285    5.0171  -21.6539 C   0  0  0  0  0  0  0  0  0  0  0  0
    6.3168    3.6814  -21.4454 C   0  0  0  0  0  0  0  0  0  0  0  0
    7.2082    3.1000  -22.3605 C   0  0  0  0  0  0  0  0  0  0  0  0
    6.3948    5.7394  -22.7536 C   0  0  0  0  0  0  0  0  0  0  0  0
    4.2649    3.5430  -18.7023 C   0  0  0  0  0  0  0  0  0  0  0  0
    4.9493    0.6782  -21.4032 C   0  0  0  0  0  0  0  0  0  0  0  0
    5.5964    0.4141  -19.3750 C   0  0  0  0  0  0  0  0  0  0  0  0
    6.4523    3.3645  -18.9366 C   0  0  0  0  0  0  0  0  0  0  0  0
    7.4489    1.1686  -21.0128 C   0  0  0  0  0  0  0  0  0  0  0  0
    5.8069    2.9005  -20.2529 C   0  0  2  0  0  0  0  0  0  0  0  0
    6.0166    1.3988  -20.5118 C   0  0  0  0  0  0  0  0  0  0  0  0
    5.0041   -0.5292  -20.4432 C   0  0  0  0  0  0  0  0  0  0  0  0
    4.4122    3.2235  -19.9786 N   0  3  0  0  0  0  0  0  0  0  0  0
    3.1349    3.8733  -18.1043 N   0  0  0  0  0  0  0  0  0  0  0  0
    7.6632    1.8098  -22.2751 O   0  0  0  0  0  0  0  0  0  0  0  0
    5.3886    3.5024  -17.9720 O   0  0  0  0  0  0  0  0  0  0  0  0
    3.8095   -1.0813  -20.1338 F   0  0  0  0  0  0  0  0  0  0  0  0
    5.8099   -1.5438  -20.8326 F   0  0  0  0  0  0  0  0  0  0  0  0
    5.8486    7.5309  -23.0071 Br  0  0  0  0  0  0  0  0  0  0  0  0
    8.3434    3.3622  -24.1825 H   0  0  0  0  0  0  0  0  0  0  0  0
    7.6299    5.6866  -24.5269 H   0  0  0  0  0  0  0  0  0  0  0  0
    5.2549    5.4971  -20.9467 H   0  0  0  0  0  0  0  0  0  0  0  0
    3.9590    1.1449  -21.4338 H   0  0  0  0  0  0  0  0  0  0  0  0
    5.2480    0.4580  -22.4327 H   0  0  0  0  0  0  0  0  0  0  0  0
    6.4154   -0.0098  -18.7860 H   0  0  0  0  0  0  0  0  0  0  0  0
    4.8354    0.7874  -18.6815 H   0  0  0  0  0  0  0  0  0  0  0  0
    7.1878    2.6615  -18.5348 H   0  0  0  0  0  0  0  0  0  0  0  0
    6.9355    4.3448  -19.0190 H   0  0  0  0  0  0  0  0  0  0  0  0
    8.1988    1.5313  -20.2995 H   0  0  0  0  0  0  0  0  0  0  0  0
    7.6547    0.1033  -21.1636 H   0  0  0  0  0  0  0  0  0  0  0  0
    3.6172    3.2309  -20.6083 H   0  0  0  0  0  0  0  0  0  0  0  0
    2.2594    3.9025  -18.6238 H   0  0  0  0  0  0  0  0  0  0  0  0
    3.1181    4.1047  -17.1130 H   0  0  0  0  0  0  0  0  0  0  0  0
  1  2  1  0  0  0  0
  1  5  2  0  0  0  0
  2  6  2  0  0  0  0
  3  4  2  0  0  0  0
  3  6  1  0  0  0  0
  4  5  1  0  0  0  0
  4 12  1  0  0  0  0
  5 17  1  0  0  0  0
  6 21  1  0  0  0  0
  7 15  2  0  0  0  0
  7 16  1  0  0  0  0
  7 18  1  0  0  0  0
  8 13  1  0  0  0  0
  8 14  1  0  0  0  0
  9 13  1  0  0  0  0
  9 14  1  0  0  0  0
 10 12  1  0  0  0  0
 10 18  1  0  0  0  0
 11 13  1  0  0  0  0
 11 17  1  0  0  0  0
 12 13  1  0  0  0  0
 12 15  1  0  0  0  0
 14 19  1  0  0  0  0
 14 20  1  0  0  0  0
  1 22  1  0  0  0  0
  2 23  1  0  0  0  0
  3 24  1  0  0  0  0
  8 25  1  0  0  0  0
  8 26  1  0  0  0  0
  9 27  1  0  0  0  0
  9 28  1  0  0  0  0
 10 29  1  0  0  0  0
 10 30  1  0  0  0  0
 11 31  1  0  0  0  0
 11 32  1  0  0  0  0
 15 33  1  0  0  0  0
 16 34  1  0  0  0  0
 16 35  1  0  0  0  0
M  CHG  1  15   1
M  END
> <OMEGA_C>
9kf1QH2jdEB4v7vBHFLoQDV/pEAUTr3BP7a9QOKLoEAzO63BGyPKQNWca0AwkKvBaqnmQAxmRkBn
4rLBUKLMQFept0BqB7bBHnqIQCXAYkBAnpXBb2CeQHydLT+4OavBCRazQCgA1D70/5rBFXnOQE1T
V0AOfpfBUV3uQBqTlT8eGqjBWNK5QOmhOUAHBqLBYIjAQB8Nsz8bGKTBqCGgQCh8B7+ji6PBzjCN
QB1OTkAp1J/BaKFIQLHkd0CJ1ZDBqzj1QMCn5z9wM7LBZ2+sQMknYECaxo/BPs9zQKZoir/8EaHB
0Oq5QFKbxb8hqabBcie7QFD98ECQDrjBtn4FQRUuV0DJdcHBVij0QID4tUADN8TB1yeoQADor0DS
kqfBuV99QPKKkj9aeKvBje+nQKh86j4TdrPBTkvNQBBIILy/SZbBbLuaQDSRST/Gc5XBxgLmQFtV
KkAsR5TBh+/dQGIIi0DSJpjBTC4DQTQBxD9rZaLBFPP0QH6B0z0XT6nB0IBnQFvHTkDg3aTBupoQ
QIXCeUCj/ZTBlY5HQBdag0CA54jBILLqQJqPg0CFnbjBYab3QF0Iq0Bhm7TBnOzWQBqsmUDXqKPB
0fTJQHu5YkBkfKfBlY7TQM1ZTkDUKbLB4JbtQCQttkDZI6rB3vl/QDH4YUA0aJXBiw2VQKigoj3o
V6DBO7TYQPoOfT6zfqPB8Sm/QNS6I0AxmJTBCW+nQBB9qD8enrHBtHqxQI5zJEBca6DBIHuxQJ6p
lj8cpqXB56i5QCQycL9l8KHBddaFQCzIRECKP5/B7FU5QKZ4gkCdmJHBOHXIQOfCAkBa+7bB2Rii
QBpwW0DE8I7B7QDCQNTk3b8BcpnBTlu1QO6U4L83garBV4T+QAr160CaqaTBT9nyQJrIdUDeycDB
o8oEQQKiwED+urnBJzPPQH/gokCKeZvBBkONQOQ0bj6W35fBJIBuQBJtMb5lgaTBPUHvQIAfDD4m
IqrBSgrrQAbb7z6sPZzBNLa9QJ/UyD9E4pDBo2/fQCo/PUDIV5PBV3mjQP57rz7tg7XBhqOJQKUS
7z/w7bLBRsxbQCQTR0BqtKTBIJkEQPzthUAVTpbBfU02QD3PjEDe4YnBN/L+QCrenEDye7rBDyfx
QHQzx0DCBrrBXOjFQLQXtkBrnKrBYSzTQJoci0A3/arBpGzwQB0efkDG9bLBsbrUQALa00DSEbLB
WKCQQPAcaUDb7JXB13qpQMT9rj+Ddq/B1J+9QHJvOj9l35/BYM/WQMxzY0BZxZfBpPb4QFr16D+Y
VavBH/fCQKjTVUD95aLBus3KQLoC9j8EOafBKLerQABC77otyanBWgaWQPEFZUDxaqDB/Q5YQGcW
dUBG3JDBYtb/QOmcLEDIObTBxVW0QPfkXkAyHpDBe8SFQHA0IL9PW6jBt1XGQIYUaL9ET67B2BzC
QKGpBkExXLHB/JwKQfM+k0Ayt8DB0ez8QITo3UC96r/BzsSvQMZgwEDnZqTBN32JQILy5z+kGq/B
UZCzQNKIrT+f2LfBzebXQKBJWz7JzZvBY8SkQFAvcj938pnBuK3uQM48M0DInJXBbp/lQB5NkUA6
2JbBtzgIQXpWA0CRFaXB9CoAQfzbTj9TI67B6KJ5QJ5QbEBVcqXBcGMgQBdJfEA/AJXBRPFVQJpV
d0C1uYjBUIABQerceUCvPbzBxQr2QOwbp0BLzL3B6G7LQJgoo0Bqua3BxNvXQEHWcEBnDqzBE2L0
QHifS0CeYLPB+VraQA5GukChhbbBxzKWQJH5Z0B3HJbBGBmsQCyDQj/vt6vBss7AQIjL/T4rfpvB
vjHcQLmMXEBF/JfB+RX8QPIFoD9VmKjBAYvHQFXbPkA+hKLBCUHOQPd/vT9SlqTBUdqtQPAs5b7a
CaTBd+maQImHU0BgUqDBuxJkQB0efUDAU5HBq3gBQZga8j+nsbLBECi6QDVhZUDRRJDBSKCHQJzr
f78zkKHBeaPHQHoou79YJ6fBG+DIQAaa80DHjLjBC1sMQYFnXEAA9MHBgPAAQTaVuEA6tcTBgOC1
QLaEskAJEajBhmiMQMr9nD+R9qvBNqi1QAQkCj9K9LPB9wPbQIAkkz32x5bBFXSoQOR2Xj/98ZXB
b7vzQMeOL0BjxZTBMKjrQBiljUAJpZjBoQoKQQx0zj+i46LB31UBQYBXPT5OzanBEXmBQMcAVEAX
XKXBDQwsQPH7fkDae5XB6P9iQM72hUC3ZYnBbYz6QJZop0BJbLbBPcDkQND0zUADqrfBR8i1QPJ/
ukD/IKnBGibLQIY+k0DDzafBcSfuQGlhikBUe67BanHCQCKR10Dl/rDBApCDQLrXb0CXLJTBLle3
QJEnsD8/aqrBx4zGQHXmiT/a2ZnBclPJQKrngkA095PBQaH/QCJYGEAvmKTBx0W9QOCIZ0DFRp/B
xe7PQI3sDkDk6qHBPeq+QABuAz7zZaPBzMuOQHrDZUDyTp7B6EI4QABtcECVYJDBitMCQSTFSkCf
Cq7BASukQDo6eUBETY3BgxmdQPCzNL+Da6LBcsbgQPgOI7/1OabB6uikQMD6BUFCl7LB5bAKQfwp
oEBbp7vBy/fuQO0m5EC92b3BgfiaQBZpwkDX76PBxk6VQOvIzT8FY6vBna7FQH7AqT9EZLLBDhjh
QADvSz8+mpTBceKpQKrvmT856ZTBzwTkQNhtYkAzbpDBBynRQGcQpUDanpPBV9kIQRJzNUAOA57B
m0IHQT06tD8EJ6bBJolwQFV6XkDQE6TBRioFQG2raEBuV5XB7hktQF6heEBWa4jBTo3sQHy3vUAt
SLrBuxXTQOBI4kB2VLrBAparQOCxxkA1PavBhbzEQPxeoUC1G6vBvMHlQPKdnUDgqbLBDa2yQFvW
5kDqybLBq1uHQC4XdUB7lpbB0m25QGWs6T8EXK/BsIPPQBzEsj+9bJ/BL7fLQCjvi0ChrZfBqRsA
QY6mPUDiYarBnOW8QOUHfUC96qLB53DSQI7mKUCOyabBAYOrQOZXVj+TkKbBqEWPQGr1cUDw+6DB
fD9DQDfxa0D5+JHBIjoAQXzldUD1bLPBLLWpQAQBgUBIXpDBmFWDQKorgT+ZyKLB1B2vQBhf8b69
IanBxi6QQCRCDEGnxLLBZO4CQfhtukA4McDBYPvYQMru+kCVSMDBYzaSQK6lykD0W6XBnSWeQAtX
FUCQHrPBTq/MQKDosD88ybXBkG3sQEkGRz9dBZ/B9r3EQA28yj9lNJfB2uDoQGuBd0D7A5XBL/HQ
QIB+rkBz8JbBKq0JQcmBWkDF96PBCpkIQT2DA0Dj1qzBgEluQC8daUDVTKbBAL0NQJZPYUAzbpbB
EC49QHVXb0D734nBqcnwQCYbn0BzVbzBkE7hQHbkyEAlRbzBusq6QJDguUDM9avBu9DJQOxyj0B8
7KvBqn/lQI6igkC/KrTBiGfGQLZS1kD3ELTB3buNQFZld0DFi5XBnZyjQJftuD9Hfq7BbjK8QOyS
aT8v/p7BUmrTQI1SdkCOfJjB7efyQPxVAEB1t6vBOhS9QO9HYUAgIKPBEuTFQOUgBUB17KbB2BOS
QNswIT+Z/qTBWpWQQJ8DbkD9C6DB5GlUQHpPgUBKAJDBKEv2QB6RNEA1F7XBjgmzQBn8c0ANRJDB
pq9cQIMbkD9LW6DByBWKQBh7LL8yEafBnoKxQKOJB0Gh5bPBgu0CQc7flEDgw8LB8pXqQDiS3kAN
qcLBwNClQMzDxEAIkaXBEMiLQCnOCEBpzbHBjO2vQIxdVz+rJbXB40zTQGBzsj20Ap/BPMa2QMSR
mj+opZbBjJzsQGTrSEBOUJbB2lPhQFpbm0CIV5jB8s4FQZAOFEA4/aXBBAT7QCHsez+JK67BlgRs
QKhqcEDmsqTBrHwaQDpogkDPuZPB0j1WQKqjhEAg54fB22TeQLO9wEDp9brBVl7iQGYV50A0Y7XB
K1DQQKxMwkDxA6XB1aPMQKsKm0BXc6rBgRPTQB8im0AykrXB1SHbQFbn50AIa6rB7j2PQOq9c0BD
XJfBsgu7QM41dT+IyKfBtq/4QFvd4z+46KvBWEjUQEOwW0CSR5nBE1e5QE4oKUAHIbfBmBXBQOUa
ZEAKkaTBGDjKQAPAFkAZ1KvBkNjlQFTdtD7rnavBaq+TQNpfaECJzaHBQ5VVQIHEe0BeHJLBsgTQ
QCDdbkA75LvB/AC0QOZveEAR2ZHBYuL4QMgP/76xsaTBFknkQFDEj77nK7XBdN3fQCD3DUGIy6LB
6lHkQDg3wEDHh8PB3y7rQIn3AUFDtLnBM6nKQOBxw0CyapzBJJ22QJ41XD+RHJ/BL5SeQAJQCj/J
q6vB3eUFQVa/AEDCAbPBLwQGQYk1AEAN06TBNirdQK0tGkB6JZfBEWTwQIs6gkC7D5jBUNG7QCZK
4j/BXbzBLYWXQF5UO0BC/bbByHBzQAkeZEADoKbBi4scQKCFeUAjC5bBJhFVQC0rgkCmCYrB

> <OMEGA_E>
XRFFwYjVN8GKx0DBoH43wYjCQ8HamUPBoNJAwRDdPcE=

> <OMEGA_NBR>
     86667

$$$$
288595
  -OEChem-04172616093D

 46 50  0     1  0  0  0  0  0999 V2000
    1.4561   -3.2434  -17.5253 C   0  0  0  0  0  0  0  0  0  0  0  0
    0.3104   -3.3512  -17.1425 C   0  0  0  0  0  0  0  0  0  0  0  0
    5.5470   -1.5230  -21.5400 C   0  0  0  0  0  0  0  0  0  0  0  0
    6.2350   -0.6204  -22.3565 C   0  0  0  0  0  0  0  0  0  0  0  0
    3.1615   -2.0759  -18.8509 C   0  0  0  0  0  0  0  0  0  0  0  0
    4.8426    0.3076  -20.0873 C   0  0  0  0  0  0  0  0  0  0  0  0
    4.9152   -4.0790  -18.2406 C   0  0  0  0  0  0  0  0  0  0  0  0
    2.7930   -3.1397  -18.0027 C   0  0  0  0  0  0  0  0  0  0  0  0
    4.9036   -1.0779  -20.3712 C   0  0  0  0  0  0  0  0  0  0  0  0
    5.5568    1.2323  -20.9018 C   0  0  0  0  0  0  0  0  0  0  0  0
    6.3265    0.7325  -21.9974 C   0  0  0  0  0  0  0  0  0  0  0  0
    4.4546   -2.0946  -19.4038 C   0  0  0  0  0  0  0  0  0  0  0  0
    4.1742    3.3349  -18.8864 C   0  0  0  0  0  0  0  0  0  0  0  0
    6.3998    2.8846  -19.1991 C   0  0  0  0  0  0  0  0  0  0  0  0
    7.6394    2.7503  -22.1056 C   0  0  0  0  0  0  0  0  0  0  0  0
    5.4753    3.8463  -22.9207 C   0  0  0  0  0  0  0  0  0  0  0  0
    6.5195    5.0574  -21.5745 C   0  0  0  0  0  0  0  0  0  0  0  0
    5.6516    2.7214  -20.5147 C   0  0  1  0  0  0  0  0  0  0  0  0
    6.3742    3.4874  -21.6724 C   0  0  0  0  0  0  0  0  0  0  0  0
   -1.0713   -3.4878  -16.6978 C   0  0  0  0  0  0  0  0  0  0  0  0
    3.6750   -4.1175  -17.7028 N   0  0  0  0  0  0  0  0  0  0  0  0
    5.3053   -3.1042  -19.0947 N   0  0  0  0  0  0  0  0  0  0  0  0
    4.3279    3.2846  -20.1946 N   0  3  0  0  0  0  0  0  0  0  0  0
    2.9613    3.5153  -18.2414 N   0  0  0  0  0  0  0  0  0  0  0  0
    7.2331    1.5046  -22.7143 O   0  0  0  0  0  0  0  0  0  0  0  0
    5.3720    3.1262  -18.2340 O   0  0  0  0  0  0  0  0  0  0  0  0
    5.7066    5.2047  -22.7036 O   0  0  0  0  0  0  0  0  0  0  0  0
    5.5094   -2.5685  -21.8084 H   0  0  0  0  0  0  0  0  0  0  0  0
    6.6985   -0.9666  -23.2684 H   0  0  0  0  0  0  0  0  0  0  0  0
    2.4733   -1.2727  -19.0691 H   0  0  0  0  0  0  0  0  0  0  0  0
    4.2552    0.6632  -19.2537 H   0  0  0  0  0  0  0  0  0  0  0  0
    5.6200   -4.8544  -17.9791 H   0  0  0  0  0  0  0  0  0  0  0  0
    6.9581    1.9695  -18.9525 H   0  0  0  0  0  0  0  0  0  0  0  0
    7.0947    3.7358  -19.2493 H   0  0  0  0  0  0  0  0  0  0  0  0
    8.1974    3.3585  -22.8327 H   0  0  0  0  0  0  0  0  0  0  0  0
    8.2750    2.5502  -21.2304 H   0  0  0  0  0  0  0  0  0  0  0  0
    5.8676    3.4723  -23.8779 H   0  0  0  0  0  0  0  0  0  0  0  0
    4.4217    3.5485  -22.8148 H   0  0  0  0  0  0  0  0  0  0  0  0
    6.0956    5.4910  -20.6567 H   0  0  0  0  0  0  0  0  0  0  0  0
    7.5481    5.4223  -21.7113 H   0  0  0  0  0  0  0  0  0  0  0  0
   -1.1632   -3.1177  -15.6660 H   0  0  0  0  0  0  0  0  0  0  0  0
   -1.7282   -2.9017  -17.3573 H   0  0  0  0  0  0  0  0  0  0  0  0
   -1.3653   -4.5471  -16.7349 H   0  0  0  0  0  0  0  0  0  0  0  0
    3.6502    3.5828  -20.8668 H   0  0  0  0  0  0  0  0  0  0  0  0
    2.9189    3.4984  -17.2425 H   0  0  0  0  0  0  0  0  0  0  0  0
    2.1283    3.6623  -18.7748 H   0  0  0  0  0  0  0  0  0  0  0  0
  1  2  3  0  0  0  0
  1  8  1  0  0  0  0
  2 20  1  0  0  0  0
  3  4  2  0  0  0  0
  3  9  1  0  0  0  0
  4 11  1  0  0  0  0
  5  8  1  0  0  0  0
  5 12  2  0  0  0  0
  6  9  2  0  0  0  0
  6 10  1  0  0  0  0
  7 21  1  0  0  0  0
  7 22  2  0  0  0  0
  8 21  2  0  0  0  0
  9 12  1  0  0  0  0
 10 11  2  0  0  0  0
 10 18  1  0  0  0  0
 11 25  1  0  0  0  0
 12 22  1  0  0  0  0
 13 23  2  0  0  0  0
 13 24  1  0  0  0  0
 13 26  1  0  0  0  0
 14 18  1  0  0  0  0
 14 26  1  0  0  0  0
 15 19  1  0  0  0  0
 15 25  1  0  0  0  0
 16 19  1  0  0  0  0
 16 27  1  0  0  0  0
 17 19  1  0  0  0  0
 17 27  1  0  0  0  0
 18 19  1  0  0  0  0
 18 23  1  0  0  0  0
  3 28  1  0  0  0  0
  4 29  1  0  0  0  0
  5 30  1  0  0  0  0
  6 31  1  0  0  0  0
  7 32  1  0  0  0  0
 14 33  1  0  0  0  0
 14 34  1  0  0  0  0
 15 35  1  0  0  0  0
 15 36  1  0  0  0  0
 16 37  1  0  0  0  0
 16 38  1  0  0  0  0
 17 39  1  0  0  0  0
 17 40  1  0  0  0  0
 20 41  1  0  0  0  0
 20 42  1  0  0  0  0
 20 43  1  0  0  0  0
 23 44  1  0  0  0  0
 24 45  1  0  0  0  0
 24 46  1  0  0  0  0
M  CHG  1  23   1
M  END
> <OMEGA_C>
FmC6PyuTT8DjM4zBku6ePrF6VsDgI4nBXIGxQBXzwr/6UazBL4XHQLrUHr8I2rLBXlVKQNzbBMCb
zpbB+faaQCh+nT60sqDBJUmdQAqHgsDE7JHBasAyQC/wSMCJBZDBAeqcQFT4ib8z+KLBUdGxQBK8
nT/zNqfBZ3LKQKKCOz+u+q/BGIyOQFcOBsDuOpvBLZOFQDlvVUBnF5fB5MrMQCudOEC0l5nBqHX0
QIYEMEAz2LDBxTWvQG8qdkCvXbfBhJ/QQDLWoUCImKzBntm0QGArLkAsHqTBSPnLQHgxX0AYYa3B
Zh+Jv9A3X8ArlYXBvjNrQEPCg8Bgn43BK8WpQNCrRsDkwZjBNX6KQIQ2UkCSjqHBFoY9QGT6YEBp
7pHBtHXnQOWVwD/NtrXBmeerQEoTSEAr35HBdpy2QCuNpkDpoLXBU02wQAFiJMCvd67BJFrWQPh1
d7/FJbrBM0oeQHDnor+MjZjBQSqIQJnEKT+OB5rBINezQONWm8Aa1Y/BDaneQLYX/D/LnpfBlgfj
QJsXb0CI/pnBXSgDQa/xVkBYqbbBemYEQRs3I0DZ16nBr8O7QFk6XkD7Bb/Bj36NQFUbY0DQhLbB
eA/DQPO1r0DYQKXBJYrxQLmDrUDBsK3B0eOUvxmJR8ARqHrBeDXdvwG1OcDO24rBucCuvwSCkcAI
4YXBJp1pQOVMZUAk76bB0846QP7lX0CM8InBuzYIQKdjakDcMpbB

> <OMEGA_E>
fDlCPw==

> <OMEGA_NBR>
     93362

$$$$
288605
  -OEChem-04172616093D

 48 52  0     1  0  0  0  0  0999 V2000
    5.7364   -1.6067  -21.5802 C   0  0  0  0  0  0  0  0  0  0  0  0
    6.2721   -0.6401  -22.4453 C   0  0  0  0  0  0  0  0  0  0  0  0
    3.8086   -4.1146  -17.5882 C   0  0  0  0  0  0  0  0  0  0  0  0
    5.2695    0.1302  -19.9400 C   0  0  0  0  0  0  0  0  0  0  0  0
    3.4389   -2.0954  -18.8639 C   0  0  0  0  0  0  0  0  0  0  0  0
    5.1088   -4.1796  -18.1308 C   0  0  0  0  0  0  0  0  0  0  0  0
    5.2537   -1.2225  -20.3175 C   0  0  0  0  0  0  0  0  0  0  0  0
    5.8008    1.1178  -20.8039 C   0  0  0  0  0  0  0  0  0  0  0  0
    6.3513    0.7097  -22.0515 C   0  0  0  0  0  0  0  0  0  0  0  0
    2.9580   -3.0647  -17.9723 C   0  0  0  0  0  0  0  0  0  0  0  0
    4.7447   -2.2283  -19.3845 C   0  0  0  0  0  0  0  0  0  0  0  0
    5.4311    2.9941  -18.1645 C   0  0  0  0  0  0  0  0  0  0  0  0
    4.2996    2.9974  -20.0686 C   0  0  0  0  0  0  0  0  0  0  0  0
    5.3623    4.2159  -22.5295 C   0  0  0  0  0  0  0  0  0  0  0  0
    6.7016    5.0052  -21.1301 C   0  0  0  0  0  0  0  0  0  0  0  0
    5.7376    2.6030  -20.4066 C   0  0  2  0  0  0  0  0  0  0  0  0
    6.3907    3.5048  -21.5409 C   0  0  0  0  0  0  0  0  0  0  0  0
    7.5431    2.7888  -22.3306 C   0  0  0  0  0  0  0  0  0  0  0  0
    8.7410    2.4515  -21.3996 C   0  0  0  0  0  0  0  0  0  0  0  0
    8.1233    3.6179  -23.5225 C   0  0  0  0  0  0  0  0  0  0  0  0
    5.5487   -3.2589  -19.0212 N   0  0  0  0  0  0  0  0  0  0  0  0
    6.3704    2.8173  -19.0812 N   0  3  0  0  0  0  0  0  0  0  0  0
    5.5825    3.5165  -16.8987 N   0  0  0  0  0  0  0  0  0  0  0  0
    6.9980    1.5786  -22.9118 O   0  0  0  0  0  0  0  0  0  0  0  0
    4.1968    2.7249  -18.6863 O   0  0  0  0  0  0  0  0  0  0  0  0
    5.8470    5.4660  -22.1357 O   0  0  0  0  0  0  0  0  0  0  0  0
    1.6929   -2.9945  -17.5025 F   0  0  0  0  0  0  0  0  0  0  0  0
    5.6953   -2.6423  -21.8838 H   0  0  0  0  0  0  0  0  0  0  0  0
    6.6269   -0.9341  -23.4221 H   0  0  0  0  0  0  0  0  0  0  0  0
    3.4711   -4.8627  -16.8862 H   0  0  0  0  0  0  0  0  0  0  0  0
    4.8714    0.4204  -18.9789 H   0  0  0  0  0  0  0  0  0  0  0  0
    2.8188   -1.2583  -19.1488 H   0  0  0  0  0  0  0  0  0  0  0  0
    5.7677   -4.9807  -17.8298 H   0  0  0  0  0  0  0  0  0  0  0  0
    4.1267    4.0644  -20.2726 H   0  0  0  0  0  0  0  0  0  0  0  0
    3.5814    2.3933  -20.6425 H   0  0  0  0  0  0  0  0  0  0  0  0
    5.5280    3.9846  -23.5921 H   0  0  0  0  0  0  0  0  0  0  0  0
    4.3054    4.0444  -22.2773 H   0  0  0  0  0  0  0  0  0  0  0  0
    6.3774    5.2671  -20.1121 H   0  0  0  0  0  0  0  0  0  0  0  0
    7.7530    5.2982  -21.2668 H   0  0  0  0  0  0  0  0  0  0  0  0
    9.5293    1.9519  -21.9818 H   0  0  0  0  0  0  0  0  0  0  0  0
    9.1394    3.3797  -20.9641 H   0  0  0  0  0  0  0  0  0  0  0  0
    8.4021    1.7842  -20.5934 H   0  0  0  0  0  0  0  0  0  0  0  0
    8.9208    3.0429  -24.0159 H   0  0  0  0  0  0  0  0  0  0  0  0
    7.3223    3.8293  -24.2462 H   0  0  0  0  0  0  0  0  0  0  0  0
    8.5349    4.5652  -23.1440 H   0  0  0  0  0  0  0  0  0  0  0  0
    7.3551    2.8266  -18.9071 H   0  0  0  0  0  0  0  0  0  0  0  0
    4.7774    3.7082  -16.3374 H   0  0  0  0  0  0  0  0  0  0  0  0
    6.4974    3.7041  -16.5414 H   0  0  0  0  0  0  0  0  0  0  0  0
  1  2  2  0  0  0  0
  1  7  1  0  0  0  0
  2  9  1  0  0  0  0
  3  6  2  0  0  0  0
  3 10  1  0  0  0  0
  4  7  2  0  0  0  0
  4  8  1  0  0  0  0
  5 10  2  0  0  0  0
  5 11  1  0  0  0  0
  6 21  1  0  0  0  0
  7 11  1  0  0  0  0
  8  9  2  0  0  0  0
  8 16  1  0  0  0  0
  9 24  1  0  0  0  0
 10 27  1  0  0  0  0
 11 21  2  0  0  0  0
 12 22  2  0  0  0  0
 12 23  1  0  0  0  0
 12 25  1  0  0  0  0
 13 16  1  0  0  0  0
 13 25  1  0  0  0  0
 14 17  1  0  0  0  0
 14 26  1  0  0  0  0
 15 17  1  0  0  0  0
 15 26  1  0  0  0  0
 16 17  1  0  0  0  0
 16 22  1  0  0  0  0
 17 18  1  0  0  0  0
 18 19  1  0  0  0  0
 18 20  1  0  0  0  0
 18 24  1  0  0  0  0
  1 28  1  0  0  0  0
  2 29  1  0  0  0  0
  3 30  1  0  0  0  0
  4 31  1  0  0  0  0
  5 32  1  0  0  0  0
  6 33  1  0  0  0  0
 13 34  1  0  0  0  0
 13 35  1  0  0  0  0
 14 36  1  0  0  0  0
 14 37  1  0  0  0  0
 15 38  1  0  0  0  0
 15 39  1  0  0  0  0
 19 40  1  0  0  0  0
 19 41  1  0  0  0  0
 19 42  1  0  0  0  0
 20 43  1  0  0  0  0
 20 44  1  0  0  0  0
 20 45  1  0  0  0  0
 22 46  1  0  0  0  0
 23 47  1  0  0  0  0
 23 48  1  0  0  0  0
M  CHG  1  22   1
M  END
> <OMEGA_C>
spC3QCmozb8xpKzBMrXIQDPbI7/+j7PBi8BzQN+qg8CptIzBYp+oQEBNBT4HhZ/BXhdcQMYbBsBe
6ZbBqXujQJG/hcDWC5HBQR6oQEB6nL82iqLBDKC5QHEUjz96bqbB0j3LQMCsNT+MabDBm1A9QMAj
RMBLx4/B6tSXQLacDsB3E5vBlMutQHOfP0DjUJHBTJaJQDXVP0CWjKDBAJirQNTohkByPLTBXnPW
QEAqoEBeCqnBYpq3QHSXJkDJQKPByYDMQKlOYEC5U6zB+mDxQF17MkALpbLBJtsLQZzlHEBQMqvB
DfkBQWuLZ0AMLrzBTI+xQFmRUMBxK5jBadrLQApONEA8ppjBdqOyQL0OYUCgMIfBou/fQEcPyj9m
S7fBHUyGQJRkLkCgfZXBfhq7QBnprkDjFbHBl7DYPzqlP8A3BYzBzz+2QMsbKcACEq/BoQ/UQCIh
b79oYLvB2yZeQDybm8DmFofBk+KbQM9D1z601JfB4Gc0QJQRob/TMJnB7pC4QPlhn8Bko47B7A2E
QJsPgkA1LqLBCzZlQHwsGUDrI6XB/eSwQH0Df0CUvLzBEcaJQKRrgUABOLLBXhPMQLuLqECJ5aDB
URj4QA2LqUBuIqrB9ncYQTrZ+T/L2q/BLDsSQblNWEB5tqfBIG8GQTti5D9Dv6TBcLsOQTe/QkCa
IMDBdVDqQMoSdUAw+MHB5o4IQeEVkkDrJrnB61zrQMTnNECnQZfBX+CYQHNSbUDrsoLBiurPQO4P
bUCyVITBJsa7QGwizr+QBqzBunnNQIZ2JL/cz7LBk7JwQPgohMCGw4zBdJejQKyCFT5K8Z/BDOuu
QONXWsC0LJnBgGJDQGZfPMBJBI/B7FmnQA9JnL+4eqLB8Iu1QNBJkT8vsKbBztjLQH6WOD9fF7DB
DqSfQKGYi8Bv4ZHBws2WQOk9D8ANEZvBxBS0QGmsNUB9RpHB7M6GQAqmQUD7cJ/BnBCiQKZAfkDf
ELXBLKnIQDjBoUBOcarB1nuzQKCEJ0CEb6PB8HjFQLIKYEA5zKzBuMDtQBPoN0CDarLB+OkJQcoB
K0DujKrBAmP/QIZ3bkC85bvBhyxiQPFpAcAJ9pXBIvvMQKqENUBgwZnBPkvDQIH0L0AN7YbBhjXh
QLU3zD8y2LbB6nmJQNQCOkDkE5TBalarQCDYqUCUqLLBTIq2QDtTr8AmyY/BB8u9QEQCKsAcHq7B
L4PcQMo7cr+vM7rBz0JXQGg7m8D7K4fBFNOSQH7j4j5txZjBgNDMQGiuZMDfT53BQ8UGQML6MMDC
HYvB6uB+QOv1gUD6xKHB0VFcQJmCFkA2qqLBA8ioQHhAbEDyZ73BClqBQEGEakCo87LBTVO9QBkU
q0CwcaLBl57oQP1qr0Cn1avB34oXQZbeDkAL3q7BoKQOQRg2aUD1LKfBZwIFQaCp/z/2C6TBJrQN
QaZXTkB6Zb/BMmbmQIV3dUCOCMLBqWMEQd0Jl0B08rjBurXsQBnCPUAhnpnBFs2uQGWzLkCdyIDB
I83iQLIRLUA0k4XBt8K9QKOQzL86qavBVB/PQG6hIL+6fbLB05FtQCa8hcAinI3BgXynQPLiID7T
Sp/B7UamQLTNEsDlEJDBDZZUQBCUgcBLZ5jBboSqQM+kmr9i+qHBIQO3QGeYkz+9WabBc4/MQC6z
PT8e5K/BmHCVQAfcUsAwaInBcKSYQM19DsDY1ZrBl/izQJ8KR0Dgd5HBx3eEQLZ/PUDxOJ/BMX6Y
QCIedkDAjbXBJra9QIylokDGuavBbYSxQJtbKUBkiaPBXbS+QOvVYEDXia3BsufnQO/fPUARZ7PB
NvMHQcwoPUBy9KvBean0QAX1cUCDk73Blch2QBg7RsC9zp7BJubLQCWnP0DOHprBKYnDQD40VUDD
PIfBIF3fQBpSzz/sEbfBikGJQAjEPEA12ZPBtJWeQK3fpkAbvLPBQaiiQFIpWsB/SX7BLii/QF8i
KcAN1K3BLZ7eQK6Nbr/u0bnBCOxRQHtfnsAgoojBaS6ZQAnO5D7MxpfBpFC9QPnzyr8HAY3BISkl
QBIpl8CooJvBplZzQH21fEBTAKLB4d5aQIFkDEDhyqHBameeQFYaYkAz3L3BC0lyQM3xXUAp7rLB
nbqyQE5LrEBtuKPBDB7cQDbLskAuj63BZtQVQXRgJEAvZLDBB1QLQaKufkAfN6nBf84EQUHsE0By
/6TBWMAIQQS5VUByLsHBakPaQHkecECJZMPBCTP7QOBemkCKUrvBNp7rQC0DSEAGSZrBwlCvQC16
WEDlDIHBZfziQCkmXED2CobB

> <OMEGA_E>
9NdVPxZbXT8QjXc/

> <OMEGA_NBR>
     96107

$$$$
288607
  -OEChem-04172616093D

 48 52  0     1  0  0  0  0  0999 V2000
    5.7681   -1.6215  -21.5466 C   0  0  0  0  0  0  0  0  0  0  0  0
    6.2743   -0.6559  -22.4324 C   0  0  0  0  0  0  0  0  0  0  0  0
    5.3336    0.1232  -19.9057 C   0  0  0  0  0  0  0  0  0  0  0  0
    3.4122   -2.1192  -18.9438 C   0  0  0  0  0  0  0  0  0  0  0  0
    3.7244   -4.1241  -17.6118 C   0  0  0  0  0  0  0  0  0  0  0  0
    5.3118   -1.2333  -20.2739 C   0  0  0  0  0  0  0  0  0  0  0  0
    4.7542   -2.2285  -19.3468 C   0  0  0  0  0  0  0  0  0  0  0  0
    5.8256    1.1111  -20.7953 C   0  0  0  0  0  0  0  0  0  0  0  0
    6.3396    0.7001  -22.0555 C   0  0  0  0  0  0  0  0  0  0  0  0
    2.8831   -3.1007  -18.0950 C   0  0  0  0  0  0  0  0  0  0  0  0
    5.5345   -3.3096  -18.8673 C   0  0  0  0  0  0  0  0  0  0  0  0
    5.3798    2.9996  -18.1869 C   0  0  0  0  0  0  0  0  0  0  0  0
    4.3011    2.9932  -20.1193 C   0  0  0  0  0  0  0  0  0  0  0  0
    5.4169    4.3031  -22.5060 C   0  0  0  0  0  0  0  0  0  0  0  0
    6.7926    4.9873  -21.0878 C   0  0  0  0  0  0  0  0  0  0  0  0
    5.7464    2.6041  -20.4187 C   0  0  2  0  0  0  0  0  0  0  0  0
    6.4174    3.5120  -21.5437 C   0  0  0  0  0  0  0  0  0  0  0  0
    7.5330    2.7713  -22.3609 C   0  0  0  0  0  0  0  0  0  0  0  0
    8.7380    2.3961  -21.4526 C   0  0  0  0  0  0  0  0  0  0  0  0
    8.1155    3.5954  -23.5545 C   0  0  0  0  0  0  0  0  0  0  0  0
    5.0201   -4.2139  -17.9981 N   0  0  0  0  0  0  0  0  0  0  0  0
    6.3449    2.8304  -19.0784 N   0  3  0  0  0  0  0  0  0  0  0  0
    5.4919    3.5019  -16.9082 N   0  0  0  0  0  0  0  0  0  0  0  0
    6.9414    1.5785  -22.9381 O   0  0  0  0  0  0  0  0  0  0  0  0
    4.1633    2.7175  -18.7433 O   0  0  0  0  0  0  0  0  0  0  0  0
    5.9400    5.5190  -22.0579 O   0  0  0  0  0  0  0  0  0  0  0  0
    6.8206   -3.4494  -19.2659 F   0  0  0  0  0  0  0  0  0  0  0  0
    1.1822   -3.0947  -17.7073 Cl  0  0  0  0  0  0  0  0  0  0  0  0
    5.7293   -2.6595  -21.8421 H   0  0  0  0  0  0  0  0  0  0  0  0
    6.6167   -0.9558  -23.4118 H   0  0  0  0  0  0  0  0  0  0  0  0
    4.9706    0.4166  -18.9318 H   0  0  0  0  0  0  0  0  0  0  0  0
    2.8010   -1.2953  -19.2816 H   0  0  0  0  0  0  0  0  0  0  0  0
    3.3277   -4.8517  -16.9192 H   0  0  0  0  0  0  0  0  0  0  0  0
    4.1306    4.0602  -20.3254 H   0  0  0  0  0  0  0  0  0  0  0  0
    3.6001    2.3885  -20.7134 H   0  0  0  0  0  0  0  0  0  0  0  0
    5.5800    4.1123  -23.5769 H   0  0  0  0  0  0  0  0  0  0  0  0
    4.3536    4.1565  -22.2652 H   0  0  0  0  0  0  0  0  0  0  0  0
    6.4974    5.2244  -20.0550 H   0  0  0  0  0  0  0  0  0  0  0  0
    7.8519    5.2445  -21.2346 H   0  0  0  0  0  0  0  0  0  0  0  0
    9.5023    1.8793  -22.0514 H   0  0  0  0  0  0  0  0  0  0  0  0
    9.1687    3.3105  -21.0187 H   0  0  0  0  0  0  0  0  0  0  0  0
    8.3953    1.7330  -20.6445 H   0  0  0  0  0  0  0  0  0  0  0  0
    8.8866    3.0027  -24.0683 H   0  0  0  0  0  0  0  0  0  0  0  0
    7.3081    3.8378  -24.2612 H   0  0  0  0  0  0  0  0  0  0  0  0
    8.5615    4.5262  -23.1741 H   0  0  0  0  0  0  0  0  0  0  0  0
    7.3247    2.8517  -18.8796 H   0  0  0  0  0  0  0  0  0  0  0  0
    4.6706    3.6689  -16.3628 H   0  0  0  0  0  0  0  0  0  0  0  0
    6.3947    3.6993  -16.5260 H   0  0  0  0  0  0  0  0  0  0  0  0
  1  2  2  0  0  0  0
  1  6  1  0  0  0  0
  2  9  1  0  0  0  0
  3  6  2  0  0  0  0
  3  8  1  0  0  0  0
  4  7  1  0  0  0  0
  4 10  2  0  0  0  0
  5 10  1  0  0  0  0
  5 21  2  0  0  0  0
  6  7  1  0  0  0  0
  7 11  2  0  0  0  0
  8  9  2  0  0  0  0
  8 16  1  0  0  0  0
  9 24  1  0  0  0  0
 10 28  1  0  0  0  0
 11 21  1  0  0  0  0
 11 27  1  0  0  0  0
 12 22  2  0  0  0  0
 12 23  1  0  0  0  0
 12 25  1  0  0  0  0
 13 16  1  0  0  0  0
 13 25  1  0  0  0  0
 14 17  1  0  0  0  0
 14 26  1  0  0  0  0
 15 17  1  0  0  0  0
 15 26  1  0  0  0  0
 16 17  1  0  0  0  0
 16 22  1  0  0  0  0
 17 18  1  0  0  0  0
 18 19  1  0  0  0  0
 18 20  1  0  0  0  0
 18 24  1  0  0  0  0
  1 29  1  0  0  0  0
  2 30  1  0  0  0  0
  3 31  1  0  0  0  0
  4 32  1  0  0  0  0
  5 33  1  0  0  0  0
 13 34  1  0  0  0  0
 13 35  1  0  0  0  0
 14 36  1  0  0  0  0
 14 37  1  0  0  0  0
 15 38  1  0  0  0  0
 15 39  1  0  0  0  0
 19 40  1  0  0  0  0
 19 41  1  0  0  0  0
 19 42  1  0  0  0  0
 20 43  1  0  0  0  0
 20 44  1  0  0  0  0
 20 45  1  0  0  0  0
 22 46  1  0  0  0  0
 23 47  1  0  0  0  0
 23 48  1  0  0  0  0
M  CHG  1  22   1
M  END
> <OMEGA_C>
8JO4QGaMz7+HX6zB4sbIQJ/oJ7+gdbPBBK2qQAhF/D3tPp/Be2FaQLmgB8DzjJfBCF1uQNf4g8Di
5IzBSPqpQFbdnb8LMaLBriKYQIqfDsBLxprBgWu6QCY5jj/fXKbB5t3KQHM5Mz+wcbDBMYU4QJlx
RsCAwpDBVhqxQPfQU8Az8JbB/CasQPr4P0DYfpHBoKKJQOKQP0Bf9KDB4FatQNOyiUAyDLTBwFzZ
QJSXn0Das6jBUeK3QAqpJkB9WaPBoVvNQGzFYECRWazBLg7xQGhdMUA547LBvs4LQe5YGUDWnqvB
6NgBQVobZkCXb7zBqKSgQCjYhsAE/I/BXwnLQOIkNUB5oJjB6L2vQJoeYEAQRIfBCyDeQOAMyj86
gbfBlDmFQCTsLUA68pXBPBS+QH2bsECEdrDBJELaQATDXMCAIJrBSlKXPxYQRsCMqI3BEla3QOw1
KsCrvK7BE7zTQGaxdL9jS7vBNg+fQAdT1T5ddJfBV0MzQCDNpb+jQJrBd/hUQCBBm8COWofBPi6E
QErtgUBhmqLBt2hmQBvdGEAbtaXBZo+yQMeXg0CLnbzBdlCLQE8ChUArH7LBb+rPQF0up0C+cKDB
KUP7QObSp0B+4KnBoAkYQQGM8D9cabDB87ISQXTfU0BDJqjBP1MGQcTS3T/zJ6XBfi8OQZgrQEDW
i8DBtdvpQFGedUDbFsLB7/sIQa3WkECcZLnBFWTqQIWCNkB9CZfBa3WVQJ3OakAD54LBD6HMQAvB
bEA7NYTB

> <OMEGA_E>
lpVVPw==

> <OMEGA_NBR>
     97207

$$$$
288598
  -OEChem-04172616093D

 45 49  0     1  0  0  0  0  0999 V2000
    5.6869   -1.5483  -21.5352 C   0  0  0  0  0  0  0  0  0  0  0  0
    6.3568   -0.6213  -22.3404 C   0  0  0  0  0  0  0  0  0  0  0  0
    5.3196   -3.2435  -19.0934 C   0  0  0  0  0  0  0  0  0  0  0  0
    4.9210    0.2547  -20.0785 C   0  0  0  0  0  0  0  0  0  0  0  0
    3.2153   -2.0677  -18.8953 C   0  0  0  0  0  0  0  0  0  0  0  0
    4.8282   -4.2166  -18.2036 C   0  0  0  0  0  0  0  0  0  0  0  0
    5.0123   -1.1254  -20.3752 C   0  0  0  0  0  0  0  0  0  0  0  0
    4.5045   -2.1476  -19.4455 C   0  0  0  0  0  0  0  0  0  0  0  0
    5.6059    1.2017  -20.8853 C   0  0  0  0  0  0  0  0  0  0  0  0
    6.3879    0.7366  -21.9868 C   0  0  0  0  0  0  0  0  0  0  0  0
    2.7727   -3.0960  -18.0336 C   0  0  0  0  0  0  0  0  0  0  0  0
    4.1656    3.3943  -18.8736 C   0  0  0  0  0  0  0  0  0  0  0  0
    6.3860    2.9195  -19.2136 C   0  0  0  0  0  0  0  0  0  0  0  0
    7.5374    2.8469  -22.1707 C   0  0  0  0  0  0  0  0  0  0  0  0
    5.2643    3.7916  -22.8990 C   0  0  0  0  0  0  0  0  0  0  0  0
    6.2901    5.0668  -21.5959 C   0  0  0  0  0  0  0  0  0  0  0  0
    5.6105    2.6908  -20.5065 C   0  0  1  0  0  0  0  0  0  0  0  0
    6.2365    3.4923  -21.6915 C   0  0  0  0  0  0  0  0  0  0  0  0
    1.4033   -2.9990  -17.4115 C   0  0  0  0  0  0  0  0  0  0  0  0
    3.5794   -4.1326  -17.6924 N   0  0  0  0  0  0  0  0  0  0  0  0
    4.2562    3.1592  -20.1651 N   0  3  0  0  0  0  0  0  0  0  0  0
    2.9780    3.6424  -18.2043 N   0  0  0  0  0  0  0  0  0  0  0  0
    7.2225    1.5564  -22.7365 O   0  0  0  0  0  0  0  0  0  0  0  0
    5.4073    3.3801  -18.2761 O   0  0  0  0  0  0  0  0  0  0  0  0
    5.4385    5.1626  -22.7021 O   0  0  0  0  0  0  0  0  0  0  0  0
    5.6875   -2.5940  -21.8053 H   0  0  0  0  0  0  0  0  0  0  0  0
    6.8535   -0.9526  -23.2403 H   0  0  0  0  0  0  0  0  0  0  0  0
    6.3144   -3.3351  -19.5039 H   0  0  0  0  0  0  0  0  0  0  0  0
    4.3302    0.5882  -19.2382 H   0  0  0  0  0  0  0  0  0  0  0  0
    2.5713   -1.2324  -19.1275 H   0  0  0  0  0  0  0  0  0  0  0  0
    5.4606   -5.0462  -17.9238 H   0  0  0  0  0  0  0  0  0  0  0  0
    6.8445    1.9820  -18.8659 H   0  0  0  0  0  0  0  0  0  0  0  0
    7.1689    3.6781  -19.3605 H   0  0  0  0  0  0  0  0  0  0  0  0
    8.0086    3.4828  -22.9346 H   0  0  0  0  0  0  0  0  0  0  0  0
    8.2256    2.7226  -21.3216 H   0  0  0  0  0  0  0  0  0  0  0  0
    5.6301    3.4277  -23.8705 H   0  0  0  0  0  0  0  0  0  0  0  0
    4.2329    3.4432  -22.7417 H   0  0  0  0  0  0  0  0  0  0  0  0
    5.8666    5.4750  -20.6664 H   0  0  0  0  0  0  0  0  0  0  0  0
    7.2906    5.4930  -21.7611 H   0  0  0  0  0  0  0  0  0  0  0  0
    1.2515   -3.8443  -16.7240 H   0  0  0  0  0  0  0  0  0  0  0  0
    1.3198   -2.0541  -16.8545 H   0  0  0  0  0  0  0  0  0  0  0  0
    0.6388   -3.0275  -18.2018 H   0  0  0  0  0  0  0  0  0  0  0  0
    3.5116    3.2811  -20.8214 H   0  0  0  0  0  0  0  0  0  0  0  0
    2.9871    3.8271  -17.2215 H   0  0  0  0  0  0  0  0  0  0  0  0
    2.1119    3.6367  -18.7040 H   0  0  0  0  0  0  0  0  0  0  0  0
  1  2  2  0  0  0  0
  1  7  1  0  0  0  0
  2 10  1  0  0  0  0
  3  6  2  0  0  0  0
  3  8  1  0  0  0  0
  4  7  2  0  0  0  0
  4  9  1  0  0  0  0
  5  8  2  0  0  0  0
  5 11  1  0  0  0  0
  6 20  1  0  0  0  0
  7  8  1  0  0  0  0
  9 10  2  0  0  0  0
  9 17  1  0  0  0  0
 10 23  1  0  0  0  0
 11 19  1  0  0  0  0
 11 20  2  0  0  0  0
 12 21  2  0  0  0  0
 12 22  1  0  0  0  0
 12 24  1  0  0  0  0
 13 17  1  0  0  0  0
 13 24  1  0  0  0  0
 14 18  1  0  0  0  0
 14 23  1  0  0  0  0
 15 18  1  0  0  0  0
 15 25  1  0  0  0  0
 16 18  1  0  0  0  0
 16 25  1  0  0  0  0
 17 18  1  0  0  0  0
 17 21  1  0  0  0  0
  1 26  1  0  0  0  0
  2 27  1  0  0  0  0
  3 28  1  0  0  0  0
  4 29  1  0  0  0  0
  5 30  1  0  0  0  0
  6 31  1  0  0  0  0
 13 32  1  0  0  0  0
 13 33  1  0  0  0  0
 14 34  1  0  0  0  0
 14 35  1  0  0  0  0
 15 36  1  0  0  0  0
 15 37  1  0  0  0  0
 16 38  1  0  0  0  0
 16 39  1  0  0  0  0
 19 40  1  0  0  0  0
 19 41  1  0  0  0  0
 19 42  1  0  0  0  0
 21 43  1  0  0  0  0
 22 44  1  0  0  0  0
 22 45  1  0  0  0  0
M  CHG  1  21   1
M  END
> <OMEGA_C>
Svu1QHwvxr8XSKzBLGvLQOwLH78eubLBXjqqQAmVT8A2v5jBonidQNhigj6/oKDBZMdNQIVVBMCq
KZfB2oCaQGPuhsAAoZHB0GSgQF4MkL9fAKPBqCSQQGNyCcBxkJvBRmOzQKfSmT8XFafB/GnMQASU
PD/55K/B9HMxQKolRsDERJDB0kyFQIo8WUAj/ZbBOlrMQNDYOkBxtZnBgjLxQBEzNkCZXbHBTnWo
QJypckAfMbfBaEjJQBwjokBuxKzBOomzQFQ1LEBpDaTBTJHHQM+BX0A4iK3BRJ6zP8zvP8CqSovB
PxRlQEU+hMAJio3BrDKIQEEwSkALUqHBUJg+QI0caUBdopHB4B7nQJY4xz9c5LXBrAitQNpSWEBv
NZLBTgiuQBc0pUAAnrXBIQC2QD0EJsA3ca7BMVDbQLLgc78t7LnBLA/KQDlyVcDyB5zBP5GKQN+V
Fj/A55nBkZAkQEq+nb8ZBZnB/ryuQIp6ocDyY4/BMgbbQFey/T9I7ZbBlWflQENma0BB4prBUCMA
QWXmXkAPerfBHJwDQc8/LkCpkqrBCCq0QE5fW0Cw9r7B3nOHQLRcXEDw7rXB0bq7QAozr0DJVKXB
3EzpQGHGr0C2Fq7BxDGgPz8IdsDXyoXBSu+oPzJ2A8AZ1obBooUjP1HDQcBgnZHBV75gQCH+UUAt
kqbBTi0/QBXvdECyxYnBuigHQBG/aEC6oZXB1uWyQK6Uxb/mCazB0afEQJjaGr86/7LBhxu2QAI5
SMCXDZjBdiWfQM7wbj7am5/B2INbQFgrFMDIsZXBvRStQGqKhcCB6pDBxXqgQKRpkb/cT6LBrEOW
QEeWC8Cxe5rBEgGzQATHmD/wZKbBI9XEQFp4QT9pVLDBhtVMQIMdW8Bg3o7BM2eBQDqUT0DzfpfB
3IXIQClGMUCsXpfBMrTMQFOWP0BIpbbBoZnbQNU2n0C+4anBoIkDQevaWEAhv6jBAdu3QMqSKkC/
0aLB5TXVQK3hWkASIqvBIg3sP/sQaMAe3onBjfOFQCfQicAgeozBll+NQHkOU0AfpaHBGj8xQH1f
YEDArJPBy8LXQCyizT+Fp7fB8bqiQFDkNUAiBpHBnq4DQUgEmUDoCajBqk2zQJPUJcDNI67BnlzS
QAHkbb/xfbrBjWTVQCdKQ8AHrJvBbxOPQDJ6DT8bZpjBiqopQM+Vy7/tLpfBuOLFQGREnMAB8I7B
UJLbQHwc8T/TP5XBUB/cQEUta0D6WJbBaaiqQGCySECMkbjBsF7gQHQNZkDxIrzBA23UQKqZsUAf
K7HBmk3KQBQ6rUCkEKPBrtMHQbsdOEDPQaHBTUENQXshP0BtV6/BBtnuPxGPkMD6toTBeq3KPxGf
L8A1CoXBF96LPzjlcMDnMpDBDKt4QKkEbUCZlqfBR4UkQBwDWkD+34vBkyADQMbZckC9t5jB

> <OMEGA_E>
7MsoP6TtPD8=

> <OMEGA_NBR>
     99046

$$$$
288609
  -OEChem-04172616093D

 48 52  0     1  0  0  0  0  0999 V2000
    5.6686   -1.5437  -21.6188 C   0  0  0  0  0  0  0  0  0  0  0  0
    6.2849   -0.6033  -22.4629 C   0  0  0  0  0  0  0  0  0  0  0  0
    5.0860   -3.3457  -19.1959 C   0  0  0  0  0  0  0  0  0  0  0  0
    5.2113    0.2214  -20.0097 C   0  0  0  0  0  0  0  0  0  0  0  0
    3.2861   -1.7723  -18.8239 C   0  0  0  0  0  0  0  0  0  0  0  0
    4.4697   -4.2093  -18.2662 C   0  0  0  0  0  0  0  0  0  0  0  0
    5.1373   -1.1331  -20.3815 C   0  0  0  0  0  0  0  0  0  0  0  0
    4.4926   -2.0993  -19.4730 C   0  0  0  0  0  0  0  0  0  0  0  0
    5.8066    1.1854  -20.8594 C   0  0  0  0  0  0  0  0  0  0  0  0
    6.3900    0.7494  -22.0810 C   0  0  0  0  0  0  0  0  0  0  0  0
    2.7151   -2.6877  -17.9188 C   0  0  0  0  0  0  0  0  0  0  0  0
    5.3492    3.0498  -18.2529 C   0  0  0  0  0  0  0  0  0  0  0  0
    4.3176    3.1109  -20.2173 C   0  0  0  0  0  0  0  0  0  0  0  0
    5.4974    4.2813  -22.6378 C   0  0  0  0  0  0  0  0  0  0  0  0
    6.8039    5.0565  -21.2010 C   0  0  0  0  0  0  0  0  0  0  0  0
    5.7588    2.6798  -20.4834 C   0  0  2  0  0  0  0  0  0  0  0  0
    6.4729    3.5567  -21.6036 C   0  0  0  0  0  0  0  0  0  0  0  0
    7.6330    2.8054  -22.3469 C   0  0  0  0  0  0  0  0  0  0  0  0
    8.7933    2.4606  -21.3729 C   0  0  0  0  0  0  0  0  0  0  0  0
    8.2667    3.6076  -23.5306 C   0  0  0  0  0  0  0  0  0  0  0  0
    3.3094   -3.8758  -17.6491 N   0  0  0  0  0  0  0  0  0  0  0  0
    6.3313    2.8973  -19.1303 N   0  3  0  0  0  0  0  0  0  0  0  0
    5.4467    3.4788  -16.9471 N   0  0  0  0  0  0  0  0  0  0  0  0
    7.0844    1.5951  -22.9292 O   0  0  0  0  0  0  0  0  0  0  0  0
    4.1345    2.8387  -18.8447 O   0  0  0  0  0  0  0  0  0  0  0  0
    6.0023    5.5241  -22.2469 O   0  0  0  0  0  0  0  0  0  0  0  0
    1.2215   -2.2703  -17.1178 Cl  0  0  0  0  0  0  0  0  0  0  0  0
    5.6029   -2.5790  -21.9190 H   0  0  0  0  0  0  0  0  0  0  0  0
    6.6825   -0.9212  -23.4154 H   0  0  0  0  0  0  0  0  0  0  0  0
    6.0016   -3.6370  -19.6890 H   0  0  0  0  0  0  0  0  0  0  0  0
    4.8064    0.5322  -19.0579 H   0  0  0  0  0  0  0  0  0  0  0  0
    2.8025   -0.8265  -19.0189 H   0  0  0  0  0  0  0  0  0  0  0  0
    4.9330   -5.1585  -18.0406 H   0  0  0  0  0  0  0  0  0  0  0  0
    4.1840    4.1826  -20.4258 H   0  0  0  0  0  0  0  0  0  0  0  0
    3.6144    2.5277  -20.8300 H   0  0  0  0  0  0  0  0  0  0  0  0
    5.6921    4.0289  -23.6906 H   0  0  0  0  0  0  0  0  0  0  0  0
    4.4284    4.1424  -22.4191 H   0  0  0  0  0  0  0  0  0  0  0  0
    6.4453    5.3409  -20.2007 H   0  0  0  0  0  0  0  0  0  0  0  0
    7.8669    5.3219  -21.2987 H   0  0  0  0  0  0  0  0  0  0  0  0
    9.5895    1.9359  -21.9215 H   0  0  0  0  0  0  0  0  0  0  0  0
    9.1964    3.3880  -20.9400 H   0  0  0  0  0  0  0  0  0  0  0  0
    8.4156    1.8138  -20.5673 H   0  0  0  0  0  0  0  0  0  0  0  0
    9.0667    3.0103  -23.9923 H   0  0  0  0  0  0  0  0  0  0  0  0
    7.4927    3.8262  -24.2810 H   0  0  0  0  0  0  0  0  0  0  0  0
    8.6861    4.5510  -23.1510 H   0  0  0  0  0  0  0  0  0  0  0  0
    7.3073    2.9244  -18.9143 H   0  0  0  0  0  0  0  0  0  0  0  0
    4.6183    3.6424  -16.4114 H   0  0  0  0  0  0  0  0  0  0  0  0
    6.3459    3.6266  -16.5352 H   0  0  0  0  0  0  0  0  0  0  0  0
  1  2  2  0  0  0  0
  1  7  1  0  0  0  0
  2 10  1  0  0  0  0
  3  6  2  0  0  0  0
  3  8  1  0  0  0  0
  4  7  2  0  0  0  0
  4  9  1  0  0  0  0
  5  8  2  0  0  0  0
  5 11  1  0  0  0  0
  6 21  1  0  0  0  0
  7  8  1  0  0  0  0
  9 10  2  0  0  0  0
  9 16  1  0  0  0  0
 10 24  1  0  0  0  0
 11 21  2  0  0  0  0
 11 27  1  0  0  0  0
 12 22  2  0  0  0  0
 12 23  1  0  0  0  0
 12 25  1  0  0  0  0
 13 16  1  0  0  0  0
 13 25  1  0  0  0  0
 14 17  1  0  0  0  0
 14 26  1  0  0  0  0
 15 17  1  0  0  0  0
 15 26  1  0  0  0  0
 16 17  1  0  0  0  0
 16 22  1  0  0  0  0
 17 18  1  0  0  0  0
 18 19  1  0  0  0  0
 18 20  1  0  0  0  0
 18 24  1  0  0  0  0
  1 28  1  0  0  0  0
  2 29  1  0  0  0  0
  3 30  1  0  0  0  0
  4 31  1  0  0  0  0
  5 32  1  0  0  0  0
  6 33  1  0  0  0  0
 13 34  1  0  0  0  0
 13 35  1  0  0  0  0
 14 36  1  0  0  0  0
 14 37  1  0  0  0  0
 15 38  1  0  0  0  0
 15 39  1  0  0  0  0
 19 40  1  0  0  0  0
 19 41  1  0  0  0  0
 19 42  1  0  0  0  0
 20 43  1  0  0  0  0
 20 44  1  0  0  0  0
 20 45  1  0  0  0  0
 22 46  1  0  0  0  0
 23 47  1  0  0  0  0
 23 48  1  0  0  0  0
M  CHG  1  22   1
M  END
> <OMEGA_C>
IGW1QKaWxb8386zB4B3JQERyGr8NtLPBLcCiQGwgVsAjkZnB6sKmQKivYj7LE6DBN09SQMnZ4r9c
l5bB+QePQPCyhsAVIZLBomSkQEsIkb9DDaPBeMOPQFRbBsCbyJvBYs+5QCO7lz/336bBAHvMQCLb
Pz/KpbDBGcQtQDwDLMC6WY/BCC2rQKowQ0AABpLBzCmKQIgYR0ADvaHB9OqvQMgAiUApGrXBYbnZ
QNrOoUCsm6nBNki4QFSCK0AR3qPBGiLPQHihY0Ai1KzB6EH0QEKMM0BfxrLBb7EMQRR6HUDG+6rB
UUQEQXzjZkCUPrzBec1TQGYMeMBsMY3B+pnKQKZsOUDlCpnBmkuuQPqkXkCwk4fBWLPiQK8qzD8O
b7fBmk2EQOSsNUDZwZbBGxPAQHDFsECi+bHBhFucP8hLEcAt8YjBD0uzQKYOJcAEWq/BPdfVQEPV
a7+8UrvB4gzAQOfEaMAfg53B+s2ZQAg/CD+adpjBd1szQJ2VU7+3JpjBYdudQEISpcAVU5DBIeOF
QCXYhUABaKPB3FFnQJDFIUC/o6bB2SW2QPjsgEBKhr3BUbWNQLyOhEA5WrPBPEDOQPLoqkAdm6HB
mL37QFlNqkC2Y6rBbm4ZQY7L9z8kX6/BTyQTQRPVWEAhhafBgKYGQQop6D/qiaTBJxERQfioQEAz
8L/Ba8TvQDPgdECVP8LBb/oKQfShkUA2NbnBitXpQPooO0CRUJfBVMmTQHccaUCFSoPBaxHLQCIa
aEAISITB

> <OMEGA_E>
RmlUPw==

> <OMEGA_NBR>
    100146

$$$$
288619
  -OEChem-04172616093D

 52 57  0     1  0  0  0  0  0999 V2000
    2.3890   -3.1391  -18.2173 C   0  0  0  0  0  0  0  0  0  0  0  0
    3.0531   -2.2318  -19.0457 C   0  0  0  0  0  0  0  0  0  0  0  0
    5.8542   -1.8484  -21.1910 C   0  0  0  0  0  0  0  0  0  0  0  0
    3.0836   -4.1554  -17.5530 C   0  0  0  0  0  0  0  0  0  0  0  0
    6.5235   -0.9466  -22.0135 C   0  0  0  0  0  0  0  0  0  0  0  0
    5.1173   -0.0149  -19.8077 C   0  0  0  0  0  0  0  0  0  0  0  0
    6.4957   -3.7465  -18.4962 C   0  0  0  0  0  0  0  0  0  0  0  0
    5.1498   -3.3278  -18.5759 C   0  0  0  0  0  0  0  0  0  0  0  0
    5.1455   -1.3816  -20.0903 C   0  0  0  0  0  0  0  0  0  0  0  0
    4.4390   -2.3120  -19.2366 C   0  0  0  0  0  0  0  0  0  0  0  0
    5.8001    0.9128  -20.6174 C   0  0  0  0  0  0  0  0  0  0  0  0
    4.4636   -4.2179  -17.7569 C   0  0  0  0  0  0  0  0  0  0  0  0
    6.4860    0.4263  -21.7394 C   0  0  0  0  0  0  0  0  0  0  0  0
    4.8550    3.1253  -18.3200 C   0  0  0  0  0  0  0  0  0  0  0  0
    4.3816    3.0272  -20.4795 C   0  0  0  0  0  0  0  0  0  0  0  0
    6.9993    4.6458  -20.8664 C   0  0  0  0  0  0  0  0  0  0  0  0
    8.2873    3.1069  -20.4144 C   0  0  0  0  0  0  0  0  0  0  0  0
    5.7746    2.3927  -20.2905 C   0  0  2  0  0  0  0  0  0  0  0  0
    6.8799    3.1116  -21.1033 C   0  0  0  0  0  0  0  0  0  0  0  0
    6.9195    2.6269  -22.5854 C   0  0  0  0  0  0  0  0  0  0  0  0
    8.0691    3.2598  -23.3975 C   0  0  0  0  0  0  0  0  0  0  0  0
    5.6260    2.9295  -23.3610 C   0  0  0  0  0  0  0  0  0  0  0  0
    6.6636   -4.8059  -17.7018 N   0  0  0  0  0  0  0  0  0  0  0  0
    5.4184   -5.0683  -17.2696 N   0  0  0  0  0  0  0  0  0  0  0  0
    5.9348    2.5744  -18.8475 N   0  3  0  0  0  0  0  0  0  0  0  0
    4.6717    3.4174  -17.0451 N   0  0  0  0  0  0  0  0  0  0  0  0
    7.1695    1.2089  -22.6307 O   0  0  0  0  0  0  0  0  0  0  0  0
    3.8674    3.3864  -19.1825 O   0  0  0  0  0  0  0  0  0  0  0  0
    8.4251    4.5347  -20.6292 O   0  0  0  0  0  0  0  0  0  0  0  0
    1.3131   -3.0551  -18.0858 H   0  0  0  0  0  0  0  0  0  0  0  0
    2.4754   -1.4560  -19.5442 H   0  0  0  0  0  0  0  0  0  0  0  0
    5.8905   -2.9094  -21.4255 H   0  0  0  0  0  0  0  0  0  0  0  0
    2.5694   -4.8607  -16.9096 H   0  0  0  0  0  0  0  0  0  0  0  0
    7.0684   -1.3181  -22.8781 H   0  0  0  0  0  0  0  0  0  0  0  0
    4.5559    0.3343  -18.9428 H   0  0  0  0  0  0  0  0  0  0  0  0
    7.3628   -3.3239  -18.9841 H   0  0  0  0  0  0  0  0  0  0  0  0
    4.4050    3.9481  -21.0689 H   0  0  0  0  0  0  0  0  0  0  0  0
    3.6581    2.3489  -20.9443 H   0  0  0  0  0  0  0  0  0  0  0  0
    6.7746    5.2916  -21.7194 H   0  0  0  0  0  0  0  0  0  0  0  0
    6.4957    5.0492  -19.9816 H   0  0  0  0  0  0  0  0  0  0  0  0
    8.3448    2.8850  -19.3457 H   0  0  0  0  0  0  0  0  0  0  0  0
    9.0800    2.5349  -20.9040 H   0  0  0  0  0  0  0  0  0  0  0  0
    8.0359    2.8801  -24.4115 H   0  0  0  0  0  0  0  0  0  0  0  0
    9.0134    2.9978  -22.9359 H   0  0  0  0  0  0  0  0  0  0  0  0
    7.9472    4.3370  -23.4025 H   0  0  0  0  0  0  0  0  0  0  0  0
    5.7251    2.5663  -24.3785 H   0  0  0  0  0  0  0  0  0  0  0  0
    5.4564    4.0011  -23.3705 H   0  0  0  0  0  0  0  0  0  0  0  0
    4.7920    2.4322  -22.8753 H   0  0  0  0  0  0  0  0  0  0  0  0
    5.2869   -5.8484  -16.6380 H   0  0  0  0  0  0  0  0  0  0  0  0
    6.7095    2.3111  -18.2489 H   0  0  0  0  0  0  0  0  0  0  0  0
    5.3962    3.2224  -16.3565 H   0  0  0  0  0  0  0  0  0  0  0  0
    3.8031    3.8427  -16.7277 H   0  0  0  0  0  0  0  0  0  0  0  0
  1  2  2  0  0  0  0
  1  4  1  0  0  0  0
  2 10  1  0  0  0  0
  3  5  2  0  0  0  0
  3  9  1  0  0  0  0
  4 12  2  0  0  0  0
  5 13  1  0  0  0  0
  6  9  2  0  0  0  0
  6 11  1  0  0  0  0
  7  8  1  0  0  0  0
  7 23  2  0  0  0  0
  8 10  2  0  0  0  0
  8 12  1  0  0  0  0
  9 10  1  0  0  0  0
 11 13  2  0  0  0  0
 11 18  1  0  0  0  0
 12 24  1  0  0  0  0
 13 27  1  0  0  0  0
 14 25  2  0  0  0  0
 14 26  1  0  0  0  0
 14 28  1  0  0  0  0
 15 18  1  0  0  0  0
 15 28  1  0  0  0  0
 16 19  1  0  0  0  0
 16 29  1  0  0  0  0
 17 19  1  0  0  0  0
 17 29  1  0  0  0  0
 18 19  1  0  0  0  0
 18 25  1  0  0  0  0
 19 20  1  0  0  0  0
 20 21  1  0  0  0  0
 20 22  1  0  0  0  0
 20 27  1  0  0  0  0
 23 24  1  0  0  0  0
  1 30  1  0  0  0  0
  2 31  1  0  0  0  0
  3 32  1  0  0  0  0
  4 33  1  0  0  0  0
  5 34  1  0  0  0  0
  6 35  1  0  0  0  0
  7 36  1  0  0  0  0
 15 37  1  0  0  0  0
 15 38  1  0  0  0  0
 16 39  1  0  0  0  0
 16 40  1  0  0  0  0
 17 41  1  0  0  0  0
 17 42  1  0  0  0  0
 21 43  1  0  0  0  0
 21 44  1  0  0  0  0
 21 45  1  0  0  0  0
 22 46  1  0  0  0  0
 22 47  1  0  0  0  0
 22 48  1  0  0  0  0
 24 49  1  0  0  0  0
 25 50  1  0  0  0  0
 26 51  1  0  0  0  0
 26 52  1  0  0  0  0
M  CHG  1  25   1
M  END
> <OMEGA_C>
JuUYQMjnSMACvZHB5WVDQFTVDsCcXZjBblW7QE6X7L8kh6nBN1pFQNz4hMCKbIzB28DQQMZScr+5
G7DBA8GjQABXc7wvdp7BetzPQH/Gb8BI+JPBSMukQEr7VMBam5TBuqekQDDYsL/7uKDBZgyOQMj3
E8Ch5JnBL5q5QPyraT9o8KTBpNWOQCX5hsA1Do7BoY3PQFw+2j5P6q3BblybQA8FSEBNj5LBAjaM
QGC+QUAC1qPBnvrfQE6qlEB37qbB2pgEQQrYRkC5UKPBqsm4QKIiGUD6UqLBhyjcQEQkR0CE06jB
32zdQLQeKEDzrrTBAhsBQUugUEAlLrvB9Qe0QEp9O0Bk47rBKDzVQN/JmcAynY3BLGOtQE4vosAw
KIrBh+m9QE7DJEC1x5bBxn6VQOS1WkBWXIjBWWzlQDq8mj+qC7XBm4N3QBm7WECydZnBCc0GQVYc
kUCyCKXBiRKoP0WHQ8DQr5DBrWweQGpeur9uWpzBmH68QKUzOsB9Z6vBT3EkQJSKm8D2RofBADDi
QOq1qL9wBrfBpsmRQBgoqz7aipfB6pvrQOG6VMCI35fBsPWMQDeufEAxjajBzB5qQJJTFkDdjafB
s8nYQG5UqUBpwa3BkdzPQFOToUBj2p/BMoQFQR6kOED9w5rBqEcRQR47IkBtO6fB4ZIAQchTOEDP
SsPBFjcQQYjcP0DKfLfBNE/+QFjIikBrOLvBTTS3QFI+JEArB8PBNJuuQNoIgECx9rrBt1eZQOKp
G0CwALfB/i2pQBgmu8CUGoXBULTWQMDoE0Cs/ZHBwq2sQIY7TkAd2oLBT2VzQMvudUBJ0oXBvcZd
QNTbcsCURJrBvCKBQDZWMsDygqDBkBjKQAn+lb9bmqvBe0t0QAQwfcDLg4/BcEfcQMC5Hr6Hs7HB
QqqtQKbR9j7KfJ/BFPTGQGgrtL9hMIrBfveqQNp0A8DAY5HBbpuyQGJOWr9dg6LBJVifQIOs878d
LpzBrjPAQBMxwz8peKXBZk2YQCg/RMBCW4vBWATXQELAlz9Fva7B9mecQIYyXkBD1ZHBRKCMQPyd
XkB7F6PBvuDaQEyoq0CLbqXB5WcEQXp0e0ApxaLBTAW7QDgKPkDtBqLBKqfbQOwhdkBgLajBXLXd
QPwjXkCfR7TBkAEAQUuFiEDPebrBQzmzQDjXbEDxN7rB127GQC2a+b/PboDBBvWpQPzOPMD9YYHB
DDzAQLAtREBya5bBFkSWQGj6aUDfe4fBDPvpQNXEBUA+dLXBPYF3QBKHbEDvgZjBUF4EQYH+q0Co
sKPBEgovQPbtjsAb0p3BCP5uQKR+LMAl2KjBdmLOQCIpDcDXEq7BUQZYQLOgl8BgqIrBwF3uQMS3
0r7017jB4B2bQMD+Nj+0WpjB173bQCQREL9Ro4vB1EiKQHPyjUBtR6fBu+FuQMgbMUAfI6fBJlrR
QKtfwUCS3KvBVQPKQAf3tEDrHJ7BTugFQZj4aEDHXprBOsoRQTAnXkBTDKfB26T/QLYzfUBox8LB
YY0PQXQVgkCN/7bB09X4QPNhqkAI57nBPgW3QLjgWkBhjMLBuouqQI73l0A5rrnBhmeaQAbzRUAR
krbBZfSjQCJcYcCOu3XBJv7ZQGqQNUC41pHBfkGuQCQAX0DEJILBV+RyQCJAfkBmqITB

> <OMEGA_E>
7x4jwR6uGsE=

> <OMEGA_NBR>
    104485

$$$$
361738
  -OEChem-04172616093D

 47 51  0     1  0  0  0  0  0999 V2000
    1.6688   -3.2228  -17.3514 C   0  0  0  0  0  0  0  0  0  0  0  0
    0.5527   -3.3227  -16.8878 C   0  0  0  0  0  0  0  0  0  0  0  0
    5.6566   -1.5478  -21.5362 C   0  0  0  0  0  0  0  0  0  0  0  0
    6.3040   -0.6279  -22.3658 C   0  0  0  0  0  0  0  0  0  0  0  0
    3.9343   -4.1208  -17.5779 C   0  0  0  0  0  0  0  0  0  0  0  0
    3.3255   -2.1121  -18.7954 C   0  0  0  0  0  0  0  0  0  0  0  0
    4.9140    0.2661  -20.0815 C   0  0  0  0  0  0  0  0  0  0  0  0
    5.2001   -4.0696  -18.1870 C   0  0  0  0  0  0  0  0  0  0  0  0
    2.9805   -3.1405  -17.8997 C   0  0  0  0  0  0  0  0  0  0  0  0
    5.0129   -1.1147  -20.3632 C   0  0  0  0  0  0  0  0  0  0  0  0
    5.5864    1.2077  -20.9063 C   0  0  0  0  0  0  0  0  0  0  0  0
    6.3535    0.7293  -22.0141 C   0  0  0  0  0  0  0  0  0  0  0  0
    4.6092   -2.1294  -19.3816 C   0  0  0  0  0  0  0  0  0  0  0  0
    4.1634    3.2431  -18.8587 C   0  0  0  0  0  0  0  0  0  0  0  0
    6.4002    2.8923  -19.2213 C   0  0  0  0  0  0  0  0  0  0  0  0
    7.5781    2.7965  -22.1635 C   0  0  0  0  0  0  0  0  0  0  0  0
    5.3377    3.7807  -22.9229 C   0  0  0  0  0  0  0  0  0  0  0  0
    6.3659    5.0580  -21.6274 C   0  0  0  0  0  0  0  0  0  0  0  0
    5.6320    2.6978  -20.5211 C   0  0  1  0  0  0  0  0  0  0  0  0
    6.2933    3.4822  -21.7012 C   0  0  0  0  0  0  0  0  0  0  0  0
   -0.7882   -3.4556  -16.3313 C   0  0  0  0  0  0  0  0  0  0  0  0
    5.5100   -3.1009  -19.0765 N   0  0  0  0  0  0  0  0  0  0  0  0
    4.2933    3.2081  -20.1703 N   0  3  0  0  0  0  0  0  0  0  0  0
    2.9566    3.3648  -18.1883 N   0  0  0  0  0  0  0  0  0  0  0  0
    7.2125    1.5309  -22.7552 O   0  0  0  0  0  0  0  0  0  0  0  0
    5.3820    3.0782  -18.2323 O   0  0  0  0  0  0  0  0  0  0  0  0
    5.4892    5.1507  -22.7134 O   0  0  0  0  0  0  0  0  0  0  0  0
    5.6506   -2.5958  -21.7971 H   0  0  0  0  0  0  0  0  0  0  0  0
    6.7681   -0.9634  -23.2814 H   0  0  0  0  0  0  0  0  0  0  0  0
    3.6980   -4.9033  -16.8721 H   0  0  0  0  0  0  0  0  0  0  0  0
    2.6229   -1.3260  -19.0295 H   0  0  0  0  0  0  0  0  0  0  0  0
    4.3281    0.6056  -19.2401 H   0  0  0  0  0  0  0  0  0  0  0  0
    5.9383   -4.8180  -17.9394 H   0  0  0  0  0  0  0  0  0  0  0  0
    7.0087    2.0052  -18.9920 H   0  0  0  0  0  0  0  0  0  0  0  0
    7.0505    3.7774  -19.2820 H   0  0  0  0  0  0  0  0  0  0  0  0
    8.0905    3.4238  -22.9078 H   0  0  0  0  0  0  0  0  0  0  0  0
    8.2439    2.6297  -21.3039 H   0  0  0  0  0  0  0  0  0  0  0  0
    5.7248    3.4298  -23.8908 H   0  0  0  0  0  0  0  0  0  0  0  0
    4.3085    3.4174  -22.7861 H   0  0  0  0  0  0  0  0  0  0  0  0
    5.9695    5.4823  -20.6931 H   0  0  0  0  0  0  0  0  0  0  0  0
    7.3667    5.4708  -21.8220 H   0  0  0  0  0  0  0  0  0  0  0  0
   -1.1996   -2.4571  -16.1220 H   0  0  0  0  0  0  0  0  0  0  0  0
   -1.4352   -3.9745  -17.0539 H   0  0  0  0  0  0  0  0  0  0  0  0
   -0.7419   -4.0359  -15.3980 H   0  0  0  0  0  0  0  0  0  0  0  0
    3.5917    3.4852  -20.8267 H   0  0  0  0  0  0  0  0  0  0  0  0
    2.9346    3.3352  -17.1890 H   0  0  0  0  0  0  0  0  0  0  0  0
    2.1078    3.4822  -18.7038 H   0  0  0  0  0  0  0  0  0  0  0  0
  1  2  3  0  0  0  0
  1  9  1  0  0  0  0
  2 21  1  0  0  0  0
  3  4  2  0  0  0  0
  3 10  1  0  0  0  0
  4 12  1  0  0  0  0
  5  8  2  0  0  0  0
  5  9  1  0  0  0  0
  6  9  2  0  0  0  0
  6 13  1  0  0  0  0
  7 10  2  0  0  0  0
  7 11  1  0  0  0  0
  8 22  1  0  0  0  0
 10 13  1  0  0  0  0
 11 12  2  0  0  0  0
 11 19  1  0  0  0  0
 12 25  1  0  0  0  0
 13 22  2  0  0  0  0
 14 23  2  0  0  0  0
 14 24  1  0  0  0  0
 14 26  1  0  0  0  0
 15 19  1  0  0  0  0
 15 26  1  0  0  0  0
 16 20  1  0  0  0  0
 16 25  1  0  0  0  0
 17 20  1  0  0  0  0
 17 27  1  0  0  0  0
 18 20  1  0  0  0  0
 18 27  1  0  0  0  0
 19 20  1  0  0  0  0
 19 23  1  0  0  0  0
  3 28  1  0  0  0  0
  4 29  1  0  0  0  0
  5 30  1  0  0  0  0
  6 31  1  0  0  0  0
  7 32  1  0  0  0  0
  8 33  1  0  0  0  0
 15 34  1  0  0  0  0
 15 35  1  0  0  0  0
 16 36  1  0  0  0  0
 16 37  1  0  0  0  0
 17 38  1  0  0  0  0
 17 39  1  0  0  0  0
 18 40  1  0  0  0  0
 18 41  1  0  0  0  0
 21 42  1  0  0  0  0
 21 43  1  0  0  0  0
 21 44  1  0  0  0  0
 23 45  1  0  0  0  0
 24 46  1  0  0  0  0
 24 47  1  0  0  0  0
M  CHG  1  23   1
M  END
> <OMEGA_C>
/JnVP+pCTsClz4rBjXoNPxinVMAxGofBtAK1QGAdxr8nSqzBTbrJQEvBIL8c7bLBMMt7QPjdg8CW
n4zBMdVUQOIsB8D0XJbBvD+dQNY7iD7VpqDBC2emQBg6gsDmfpHBRME+QFT+SMCIMo/BEmqgQLSt
jr/V56LBvsOyQDeXmj8iQKfB3U/LQEq0Oj/uHLDBVX6TQMJICMCVDZvB5DqFQMaOT0Cy3pbBQc7M
QN4bOUBSxZnBEIDyQKz6MkDlTrHB1s6qQPr2cUAAYrfBELXLQNvaoUDnBK3BpTm0QAaoLEA4K6TB
umLJQPrcXkAKnK3Bi8pJv9ooXcCApoLBx1GwQK50RsCrnJjBAWOJQAZSTUDFXKHB2zg9QOBYV0CX
gZHBdczmQAT1wz+rCrbBdTmsQOYARUDA25HBJ6evQHnSpEAGtbXBXtG0QOwgJsCKYK7BmpTYQNij
dr9cQLrBQ6tsQDDonMD4+YbBIt4nQA+6qb9XPJjBon+KQCcHGz/T65nBdwa+QGEtmsD1g4/BkUfg
QK9UAECV75fB8p3hQP/AcUCAQZrB0HIBQVkgW0ArQ7fB4eYDQVBNKEBfbqrB7DG3QKeBW0B1IL/B
bd+JQLO2WkDcSbbBQAa/QKhur0B8i6XBA7zrQMcQr0B1k67B64uZv3NBHcDf+YDBiLW3v7pdfsB3
bojBqew9v3smgcAoXnbBTd5lQLENX0AtnabBP9A7QOtzVUD8gonBkuYGQKbcXkBzoZXBePnEQMGL
ocBB9orBFALeQCUQvMCQqYfBT3W/QFzoyb8M0arBQbDNQJZpJb9LX7LBCKZ7QD1Vf8BiS4vBQum2
QNWsR8AATpbBtfmlQCqncD6dbZ/BJntGQEc8PcCFJ4/B1lyoQFLigcAT4o7B7oGqQPhwkb82gaHB
qyK2QGYPmD9RuqbBCQ3IQObBOj9JlbDBY9qaQMEXB8Aay5nBxW+AQLzKRUDYkpfBF+PIQKGaPUCB
/pjBldjBQL/QOUCRRrjBnNDKQOnaoUDy6KzBH479QLV6bEAa/avBNfe0QGr8K0DU76PBInfLQO/0
XkDaPa3B00H8QDLL28DJtoPBuP9jQIImAsDvK5bBGlqIQHTMR0A4/KHBqpIwQMldSEAL3ZLBySPU
QHSoyj/bvbjBUJulQJQiO0DtyJHBR4D3QCp5okBfCazBpozEQISBKMCYIazBJRTdQA+AfL8fnbnB
blNjQDPnlsDzqoXBnEHXQOG+SsDdUpnBRRKWQHk/ED+zOJjB2+cEQPiqOcCvdYzBMIrgQDUVDECY
9JbBiVfYQKfYfEAD3JjBxQifQK4wNkBqf7nBRSbQQDF/YkAQgb7By4K+QEbTsECpQbTB3g26QFRC
r0BM76XBY2oFQRlVU0AZeKTB3z0IQT9iVEDsxLLBT6XqQNwW98AMU4DBeEEIQajs5sD+WYrBUz0I
QQxWzcCZ93rBRvFmQN1XWUAFo6fBScsqQKxcQkB77orBQOD4Pzc6UED3ZZfB8tvvP9koVcANbYrB
j71GP0m/WcBkV4bBNLO8QErKyb9kMKvBvADLQLGdIL/4k7LBsZKEQBgvh8AHHIzBWaFiQHgEDsCw
4JXB5B2jQPVKVD7IgZ/BlPCtQEU9hMBWepDBn6dLQEOrUMD25I7BYC2oQP1Llb9PvaHB8D60QJYL
lz9Ol6bBuXXGQIVwPj+berDB91qbQPY9DMDgAZrBmA6BQEf2TEBVaZfBcKrIQJG5NUAGH5jBnprG
QPI1PkAzabfBfVLTQGLooEAyL6vBGiwBQdebYkCaTKrBzxm2QJDKKkBQVaPB0x/QQJhlXUCtGKzB
PwIIv9h9X8DZPIHBRoi4QGzoSMCkT5fBJ4iKQJSDTUCmvKHBumgyQOrvXUCDCZPBmy/VQH5azj9U
R7jB8BSkQPBfNkBKV5HBdL7/QL7dnUA75anBuW/BQP43KMBDv6zBoKnZQLmsc7+J9bnBfBR5QMvX
oMBbrobBq+Y0QNRRur9XCpjBSTGSQMoMBT+JZpjBzLDFQGHUm8CSVI7BZPvdQJwTAECMGpbB3Wva
QOFKckC7eZfBTfijQGY4QUDa77jBSIbXQKKGZkA4Qb3BLWbJQIoQskDxdLLBNInCQCNdrkAjOKTB
4a8GQRLmREAb0KLB+bAKQaX0SUBwB7HBddKovx01WMAUUIfB/C0iv14Wj8DqoXrBc9Mgv3FuLMBZ
dXbBo2RuQJk6YkDSj6fBEsIpQB8HWkArIIvB94oBQKMYbkDDypfB7vu5QBlca8Avwn7BWmnMQJEM
eMD29m3BBD22QPIizL+wMazBhjfDQEzOGr+9dLPBhlSBQCEViMCmR4zB+/yxQKnsG8DWQpDB5RGt
QJQi2z2wYp7Br89aQEHhgMAmPZbBwVakQMjqXMA6SYnBtC6rQLK3nr+6p6HBNBK6QAoKjz/knqXB
LnnEQJoGQD8FXrDBc8+cQPN7EcDgKZrBLLSBQBoDT0D8cZfBCmzJQPARM0DxkZbBd5vGQA50Q0Ap
CrbB0lvWQJp5n0DmiajBo8UCQfbEX0Cc6qjBzf65QEsWJkBUIKLBnF7TQMJQW0ASjarBX4biQCDB
g8AMw1nBltd2QCMhRMBA/pzB96ONQIbORUDkgKHBOvYxQKiaZkDSLpTBg53QQMxp1T+WIbjBCcqi
QJtuPECjhJDBE1MBQWv6m0DYB6fBI7y0QD4tKMBAsK7B3lPMQM0oYr+PfLvB2rNrQKn3oMAKBIfB
TkbMQJ0c5b9zFo7BE4WkQFP/vT76SJbBVcAkQI1flMD2hpjBAMjbQKx29j+XzZPBFFfdQDzjbECk
7ZXBDgekQDqnTUAnFLfBUUbYQNMvbEB1srvBEinNQIASs0BEeq/BVdPEQOZ8qkAKbKHBsKMIQTaw
OkAPCaLBiRMMQZ3PTkBBFLDByAP3QExYUMCG8FXBDNnKQMY+iMD77kzBdGD2QOGuoMC0LlvBNUp2
QHmWUkBW1afBXV0kQM/8akB/YozBWM4EQEk9c0CuoJnB

> <OMEGA_E>
woNBP24iRT+2lEc/pCFiPw==

> <OMEGA_NBR>
    122997

$$$$
50246230
  -OEChem-04172616093D

 54 59  0     1  0  0  0  0  0999 V2000
    5.2253   -4.1901  -18.1667 C   0  0  0  0  0  0  0  0  0  0  0  0
    5.6615   -3.2458  -19.0986 C   0  0  0  0  0  0  0  0  0  0  0  0
    5.9433   -1.5769  -21.5700 C   0  0  0  0  0  0  0  0  0  0  0  0
    6.5319   -0.5829  -22.3507 C   0  0  0  0  0  0  0  0  0  0  0  0
    5.0665    0.1192  -20.0526 C   0  0  0  0  0  0  0  0  0  0  0  0
    5.6368    4.7780  -21.4329 C   0  0  0  0  0  0  0  0  0  0  0  0
    3.9073   -4.1076  -17.6738 C   0  0  0  0  0  0  0  0  0  0  0  0
    7.0352    5.1071  -23.3755 C   0  0  0  0  0  0  0  0  0  0  0  0
    5.2324   -1.2205  -20.4104 C   0  0  0  0  0  0  0  0  0  0  0  0
    4.7651   -2.2438  -19.5033 C   0  0  0  0  0  0  0  0  0  0  0  0
    5.6386    1.1183  -20.8375 C   0  0  0  0  0  0  0  0  0  0  0  0
    6.2470    5.6374  -22.3276 C   0  0  0  0  0  0  0  0  0  0  0  0
    5.9153    3.4237  -21.5245 C   0  0  0  0  0  0  0  0  0  0  0  0
    6.4160    0.7600  -21.9732 C   0  0  0  0  0  0  0  0  0  0  0  0
    6.7699    2.9563  -22.5615 C   0  0  0  0  0  0  0  0  0  0  0  0
    3.4550   -2.2061  -18.9693 C   0  0  0  0  0  0  0  0  0  0  0  0
    4.0842    3.3789  -18.7835 C   0  0  0  0  0  0  0  0  0  0  0  0
    7.4735    7.7894  -21.9525 C   0  0  0  0  0  0  0  0  0  0  0  0
    5.1668    7.7377  -23.1166 C   0  0  0  0  0  0  0  0  0  0  0  0
    8.0838    8.1726  -23.3164 C   0  0  0  0  0  0  0  0  0  0  0  0
    5.9079    8.0027  -24.4334 C   0  0  0  0  0  0  0  0  0  0  0  0
    6.2913    2.8430  -19.1384 C   0  0  0  0  0  0  0  0  0  0  0  0
    6.0917    7.1049  -22.0674 C   0  0  0  0  0  0  0  0  0  0  0  0
    5.4886    2.5425  -20.3993 C   0  0  2  0  0  0  0  0  0  0  0  0
    7.2879    3.7981  -23.4662 N   0  0  0  0  0  0  0  0  0  0  0  0
    3.0522   -3.1349  -18.0751 N   0  0  0  0  0  0  0  0  0  0  0  0
    4.1013    2.8316  -19.9818 N   0  3  0  0  0  0  0  0  0  0  0  0
    2.9374    3.8201  -18.1438 N   0  0  0  0  0  0  0  0  0  0  0  0
    7.1278    1.6479  -22.7350 O   0  0  0  0  0  0  0  0  0  0  0  0
    5.3609    3.5059  -18.2722 O   0  0  0  0  0  0  0  0  0  0  0  0
    7.0968    8.7886  -24.1801 O   0  0  0  0  0  0  0  0  0  0  0  0
    2.5715   -1.2557  -19.3681 F   0  0  0  0  0  0  0  0  0  0  0  0
    5.8885   -4.9725  -17.8284 H   0  0  0  0  0  0  0  0  0  0  0  0
    6.6640   -3.2854  -19.4983 H   0  0  0  0  0  0  0  0  0  0  0  0
    6.0329   -2.6150  -21.8544 H   0  0  0  0  0  0  0  0  0  0  0  0
    7.0761   -0.8485  -23.2449 H   0  0  0  0  0  0  0  0  0  0  0  0
    4.4978    0.3795  -19.1721 H   0  0  0  0  0  0  0  0  0  0  0  0
    4.9592    5.1534  -20.6803 H   0  0  0  0  0  0  0  0  0  0  0  0
    3.5689   -4.8401  -16.9559 H   0  0  0  0  0  0  0  0  0  0  0  0
    7.4421    5.7756  -24.1197 H   0  0  0  0  0  0  0  0  0  0  0  0
    8.1629    7.0996  -21.4437 H   0  0  0  0  0  0  0  0  0  0  0  0
    7.3604    8.7041  -21.3520 H   0  0  0  0  0  0  0  0  0  0  0  0
    4.7818    8.6909  -22.7251 H   0  0  0  0  0  0  0  0  0  0  0  0
    4.3265    7.0549  -23.3106 H   0  0  0  0  0  0  0  0  0  0  0  0
    8.9094    8.8810  -23.1533 H   0  0  0  0  0  0  0  0  0  0  0  0
    8.4701    7.2652  -23.8037 H   0  0  0  0  0  0  0  0  0  0  0  0
    6.1950    7.0439  -24.8897 H   0  0  0  0  0  0  0  0  0  0  0  0
    5.2469    8.5522  -25.1198 H   0  0  0  0  0  0  0  0  0  0  0  0
    6.6562    1.9128  -18.6785 H   0  0  0  0  0  0  0  0  0  0  0  0
    7.1447    3.4982  -19.3672 H   0  0  0  0  0  0  0  0  0  0  0  0
    5.5967    7.2169  -21.0915 H   0  0  0  0  0  0  0  0  0  0  0  0
    3.2887    2.6388  -20.5319 H   0  0  0  0  0  0  0  0  0  0  0  0
    3.0027    4.2647  -17.2504 H   0  0  0  0  0  0  0  0  0  0  0  0
    2.0441    3.6939  -18.5753 H   0  0  0  0  0  0  0  0  0  0  0  0
  1  2  1  0  0  0  0
  1  7  2  0  0  0  0
  2 10  2  0  0  0  0
  3  4  2  0  0  0  0
  3  9  1  0  0  0  0
  4 14  1  0  0  0  0
  5  9  2  0  0  0  0
  5 11  1  0  0  0  0
  6 12  2  0  0  0  0
  6 13  1  0  0  0  0
  7 26  1  0  0  0  0
  8 12  1  0  0  0  0
  8 25  2  0  0  0  0
  9 10  1  0  0  0  0
 10 16  1  0  0  0  0
 11 14  2  0  0  0  0
 11 24  1  0  0  0  0
 12 23  1  0  0  0  0
 13 15  2  0  0  0  0
 13 24  1  0  0  0  0
 14 29  1  0  0  0  0
 15 25  1  0  0  0  0
 15 29  1  0  0  0  0
 16 26  2  0  0  0  0
 16 32  1  0  0  0  0
 17 27  2  0  0  0  0
 17 28  1  0  0  0  0
 17 30  1  0  0  0  0
 18 20  1  0  0  0  0
 18 23  1  0  0  0  0
 19 21  1  0  0  0  0
 19 23  1  0  0  0  0
 20 31  1  0  0  0  0
 21 31  1  0  0  0  0
 22 24  1  0  0  0  0
 22 30  1  0  0  0  0
 24 27  1  0  0  0  0
  1 33  1  0  0  0  0
  2 34  1  0  0  0  0
  3 35  1  0  0  0  0
  4 36  1  0  0  0  0
  5 37  1  0  0  0  0
  6 38  1  0  0  0  0
  7 39  1  0  0  0  0
  8 40  1  0  0  0  0
 18 41  1  0  0  0  0
 18 42  1  0  0  0  0
 19 43  1  0  0  0  0
 19 44  1  0  0  0  0
 20 45  1  0  0  0  0
 20 46  1  0  0  0  0
 21 47  1  0  0  0  0
 21 48  1  0  0  0  0
 22 49  1  0  0  0  0
 22 50  1  0  0  0  0
 23 51  1  0  0  0  0
 27 52  1  0  0  0  0
 28 53  1  0  0  0  0
 28 54  1  0  0  0  0
M  CHG  1  27   1
M  END
> <OMEGA_C>
BjanQEwVhsBdVZHB2iq1QKy7T8DzyZjBRS++QH3Zyb9Oj6zBJAXRQGI3Fb85zrLBHCGiQHAT9D2n
a6DB4mC0QJHlmECLdqvBPRF6QEFxg8DzY43BBCDhQDVto0AXAbvB3m+nQBI5nL9oSKPBwHuYQD2a
D8C7BpzByW+0QIkjjz8cs6bBqufHQKhltEAFn7LBwkm9QGgdW0A5MqzB20/NQO6RQj8sya/B1aLY
QEg0PUD2fbTBhx9dQD4wDcArwZfBhbGCQKhAWECaRJbB0CbvQA9D+UDInq/BcValQF2b90DP7rjB
L1cBQeDCAkHuh7rB2A29QB8LAEGKd8PBOFLJQLjzNUBhG5nB9O7CQCdb40AjirDBAaOvQIC4IkC8
MaPB1zbpQGQTc0DIurvBflZDQJyiSMDcmZDBhj2DQMo4NUC72p/BqP07QCZ8dEB2JpHBGBfkQEft
0j9J4bXBXYyrQJxgYECNLZLBIRnjQDyeDEHncMHBGJQkQCO8oL/T8ZrB4W68QLUen8CToI7BfD/V
QC5EUsCd/JvBOw3BQLlbJ8C+1a7Btm/iQPA4Wb+R9bnBGe6PQHxKwj59YJnB0rGeQIPopEBQcaXB
F2lkQPLhmsDEpYfB4SXuQBHSuEAs9cDBKJsCQUow40CpjKvBaIjrQAVEC0H60KrBgASZQN8NC0Eb
zbXB9HKKQGXB4UA1fLrBtYwOQXwYDkHcObnBfoUHQdh86EAEbr7BCD3GQFpn4UAYHsfBjeanQJzV
CEFG9cjB3P/UQNbV9D+IbZXBNKHkQDTjX0AZ8JrB0RezQKnw5kB0u6jBPHpSQHLhKEBHQaTBrCxA
QAp4iEDgAIrBF9MCQIxpbEBLmpTBJZ6lQC0IiMA6l4/B3L22QB9qUcBeZ5bBNYbCQJBdzb/WE6vB
KpnSQIirG7/T5bHBUi2nQNjY9T1RIJ/BXuS6QBC1nECy8qrB3/pyQK5Hh8CWO43BryTdQEpIpUBa
JLzBYW+sQKADn79wtKHB00WbQBdBEsCDlJrBKdK3QBirkD/O4qXBOErJQL4huEBdKLPBXE3BQKFm
YEBlyavBdX7NQFZnQj92ba/BYCzWQNq1P0B8A7XB2GleQCB8FMA25pfB102DQA1uW0A7V5bBR0Oo
QHdP+UDyCKnBdEzsQNZWAUFY5LPBHlzEQLFE+0DJ0J7BdXcCQZTrAUFzLqnBd3LKQMAkOkDeT5jB
Q6bBQBjy6EAW/LLB8sSyQCLXJUA7u6LB6lvjQF4hdUA45rzB0nU+QOr2UcC9X5HBSd2FQAm+N0A4
4J/BwBM7QAaYdkBin5HBPd/eQN1n0z9Cv7bBSjmrQH+AZEASwpHBrOvpQMppCkFl0aDB2tEnQDF+
tL+MI5zBXv25QLJroMDBMYzBN1zYQHWjUcAPaJjBXRvHQCFnKcCkBa3BaBvjQLiDZL+OI7nBjkeW
QCTcyj6k65fBBfSqQHjTqUDLBKTBeZpYQKNrn8CfAIjBG7LnQMCcuUCfnMLBLDuNQHeM40Cij6fB
TwycQKTMDEEewarBrd3kQPXWEUFBU7bBC1QAQcWM80Br/rnB/tGxQFjUBEHLQZjB6h7OQFyt2kC4
jpzBFnYHQUcx40BFCqfBcLAQQccjDEGdDarBoaPVQJT3/T/dcpTBGOnlQAduZEAy2ZnBam2uQH7a
8EA0FrrBrnVZQM2TKkC2i6TBJ1g8QCNmiUBscYrBrU8DQFr9bUDVZZXBA6SlQD8qiMC9m4/BIL+2
QBB1UcCpZJbBk3jCQPpBzb/yBqvB14fSQAm5G78P2bHBYgmnQDzo/D3xGJ/Bex67QIUbnUA9GqvB
VQJzQCl/h8DKQo3Bs4jdQIivpEATVLzB5VysQHW/nr/FqaHBhD+bQIw7EsAjjJrBcK23QJcfkT+X
3aXBwM3JQKINuEChX7PBPkXBQCbMYEDX06vB7GXNQHtQQj8xY6/BFyHWQBNjP0DjBbXBsFleQIaw
FMBd4pfBD0aDQN6OW0A4U5bBeLDWQOIA/EBjW6jB7WvRQJ2JAUE6jbzBxMgDQdx7AEHVj6nBDlEB
QSnPBEFutrzBMHHKQACwOkBFVZjBBPrBQEnB6ECpobLBXbSyQNtbJkCMvaLB8W7jQJzzc0B79rzB
DHA+QAdgUsDnYpHBGdmFQE90OEA65J/BMPU6QO4udkBZkpHBpdreQPPM0j/+s7bBSS6rQK9rZEDP
u5HBQHsIQaXQDUEZs7LBGrInQCABtb9mH5zBGAi6QOyRoMD3OYzBmF7YQEGOUcA5ZJjBshLHQJFc
KcBH9qzB1w7jQGWuZL/SFbnB8RiWQOzbzD4f5pfBvS+rQPefqkBnOKTBGKhYQPK2n8AUDYjBYzPo
QPSpuEDQ2sLBFwPQQPGu5kCCjqHBqI7IQCrTDUGz0abB6N3BQIRSEUEjYrzBLPPHQBnz8UDB3cPB
7V4KQSTuB0HXTKLBShQLQUpD4UD0tKrBDjQJQXiP6kB9+r3BuYsFQfW+D0FqRsPBPOPVQN0j/z+V
gZTBeL3lQABkZUCl35nBRTefQAOa7UBu9bHB5HNZQKjLK0BnlqTBCyw8QGnniEBcW4rB8DQDQLnE
bUBiW5XBqnyVQKbOVcBPFonB4mumQD87FcAkpo/BVbm+QFNCzL8XF6vBor7PQJPKHL/J3bHB3Tyn
QKR0Ej7Gv57BlyO8QKtJnUA4HavBzOdtQJBth8CVWo3B+a3eQEoYpECPWLzBDXCqQKRJnL9DfqHB
5bGYQB04EMA2XJrBy6O3QJFokj8Op6XBSyfLQOPht0CLa7PBjMbBQCL9YEBuxqvBJU7MQAqSQT9x
Sq/BTVHWQDKzPkDW9rTB5LFzQA+CS8AmI57ByD2DQNDuXUAEX5bB6ZnYQGDu+0D6eqjBYczTQBpP
AUHir7zBhscEQf8hAEGGoanB3IsCQWNDBEEmzbzBd2TKQC4iPEBLOJjBctvDQKqu6ECBwLLB4eKy
QIlIJ0AKpKLBzf7jQICackB/7rzByDhTQLN1hMBIpZfBvPyFQPoHOkBD45/BGdM6QNKKeUDnuJHB
FzHeQDvU0D83orbBEwerQCxrZkB3tJHBKLwJQV9KDUEfzLLBbB5WQHn6RcBuTqjBUrifQP67W8Av
3oDB24i9QISE0L+HiozB8C3BQM/oKMCwO63BZLTfQMxZaL8zKLnB4yWYQIkQ2z5VUZfBilisQAwk
q0DuQKTBlcdTQGw6oMC8TIjBNqrpQCnQt0B848LB5obRQBLd5kDwp6HBIdTKQJXkDUFQAqfBN6XE
QG0xEUF1krzBezvKQCZ68UDf/cPBP2ILQZKWB0EoYKLByeMLQQ5b4EBMtarBnD4KQaQ96UBiAb7B
d/kGQe0RD0GAYsPBO63VQGoyAUD3UZTBAMflQPGcZkC1wpnBLiShQM3v7UCpILLBjutZQDs5LUDi
m6TBzNE7QPrRikAciYrBGj8DQN9ccUAYjpXBnFtRQEAohsDAzZjBueZyQI8RTcAhlp/BiTi+QCmK
zL/9/6vBXOfPQCeWGL/EgrLBv32mQGfN2T0AZp/B1ae8QGDRnEA9iarBwgduQExfiMCrHo7Bjibg
QFIcpkCBjLvBc8OpQFP2n78VXqLB+MiXQB45E8AbcpvBOYy3QHbjjz+8BKbBhgDMQE2buEA9j7LB
Zm3CQAiSYEAejqvB+7zMQB71Qz9AqK/B7YDXQCuSQECEyrTBM9+kQNNPG8AgopDBYJyCQO1cWkAb
dZbBsTSrQJqL+UDCSqjB3zvwQCNNAUG/xrLBXobGQCZZ+kDd7p3BfwMEQURRAUHW8afBv7fJQLqH
N0DmHJjBvR3FQGCD6UAVMbLBMtayQKgnJUAFsqLBvqvlQA+4dkBqfbzBYYyUQMhLWcAIPYrBm8mF
QKXHN0BdC6DBjEI5QNgPdkAV5ZHBoEHfQMgJ1T9hvrbBtSmqQNekYUAVopHBr57sQP25CUHro5/B
9TPDQMfQzL/Ql4zBVSgiQFuGnMAsu5vB15BeQKLXSMC/06fBkVHAQG6UKMCjYa7BECrgQJQfX78i
z7nBr8+WQIRRvj5R/5fBtXqsQLCtqUBlnKPBtk9UQAy+oMCm54jBI4LrQM2/ukDj3sHBIr+PQJ8X
5EANDKfBz5qfQO4QDUE37KnBVobpQNbwEUEgGrXBNWoCQeGP80B/17jB7rKzQEpIBEHdZpfB8JvP
QJ902UAixpvBeawIQe6w4UBt5qXB9msSQehXC0EqlqjBDkfUQF089z/0UZTB5oTlQH1wYUCfaZnB
2ZSyQNBA8kDHWLnBF/lZQOvHK0BF36TBwKY5QFyoiEAXqIrBERECQKbKbkBq15XBznWVQC1VVcAm
D4nBdXymQCIKFcAEpo/B0bK+QE9+zL8uH6vBuLrPQEosHb9657HBhF6nQPQoDz6Hw57BVPa7QLDb
nEB396rBG6VtQBIkh8C7TI3BP0reQFCdpEA1LbzBa3+qQNOOnL/TgqHB1LyYQLcxEMAZXJrBScS3
QJnhkT/HqqXB0avKQAXpt0AnOLPB7tnBQNCFYEBEvKvBxF3MQOBFQT//Uq/Bn2DWQEDlPkAj9bTB
1YdzQGRTS8CXG57BJ2CDQEzmXUC3YJbBZ1KqQDu3+UDeNqnBuqLuQIn8AEEkBrTBkkzGQGyZ+0CX
+Z7BMpADQUGNAUFCS6nBfnnKQOWHO0A/M5jBlqXDQPLQ6EAPHrPBvvyyQLK+JkD4oKLBcOnjQLec
c0Aw4bzBu+lSQAQ/hMBLl5fBLQ6GQP5mOUDZ3J/Btzc7QIQsekBswpHBazPeQL4k0T+8rLbBXTKr
QKmHZkDMupHBgTPsQL9RCkHz+6DB1dxVQPThRcDuRajBc7OfQDIfW8DI1oDBiq+9QEpN0L/cj4zB
SBbBQNIEKcDzRa3BRKLfQJ3QaL+eM7nB31SYQOmO2T6SU5fB3y6sQKZVqkC0DqTBEGVTQMDXn8DD
OYjBEyXpQE+ruEA1q8LBPwWPQPVN5ED6uqfBRIGeQN0MDUE//qrB9annQEKAEUGWhLbBtXEBQcts
8kDpFLrB0dizQNQxBUHndJjBJqDPQFfz2kCup5zBxFYIQd9j4kBSF6fBA+sRQS2VC0HwK6rBd3nV
QPWIAECMQ5TBdgzmQBCEZUDjvZnB66CwQNvP8EBeP7rBoPxZQP0kLECFjaTBOVs8QP9yi0CmnIrB
GJYDQPPYcUA/k5XB/5U5QAj3VMB4H5LBbppZQFdXE8DqqpjBSIXAQByezL+3i6vB/n7RQLA0Gb+T
K7LBJVClQInI6z0Odp/Bg128QD47nUB3zarBJ0ByQEvXicB7KY7BY97fQNdZpUAJ4LvBWFuqQAJX
n7+yKKLBs7uYQOjfEsD/K5vB4962QIu9kD8eCqbBFd/LQOZzuEDh67LBJ/bBQAr+YEB/q6vBngDN
QCXdQz8Th6/B2STXQNAdQEA/2bTBmnmzQOrDU8C655bB+byCQFXmWkCPY5bBvPvYQIKY+0BCnqfB
SfDUQEfwAUHUzLvB7v0EQcT9/0C2oqjBYR4DQfPmBEFsxLvBP8PJQGozOEC+OJjBw5vEQMcx6UDr
B7LB23OyQELkJUBMv6LB/0HlQBg5dUCJpLzB53GjQLUXicBqiJDBBZeFQO39OEA0BKDBgLw5QJPt
dUDntZHBIGPfQF9E1D9zp7bBInOqQCEIYkCBpZHBUB0KQcCGDUEepLHBbhveQEzWUsCo5JjBxrHs
P5ZlV8DiJJDB/qQvQKJOxL8yuZvBO3PEQHPlKMACpa3B4DziQAJpYL/RZLnBLemTQNhNxT76UJjB
9jmsQNqPqkB+7aPBZZxZQOUNo8B7HonBByrrQOSPuUAgSsLByabRQGD85UD96qDB+yvLQLaqDUGK
BKbBtcXFQInQEUFqkrvBSqrLQMFK80AxNcPBJ3gLQSMlB0GCRqHBSh0MQSgr4ECL2KnBa9gKQfKf
6kCAF73B2qoHQfT4D0EnOMLBYo/UQBaN+D9keZTBRnTlQJRFYkCzlZnBZuChQFJx7kAXdrHBR0lZ
QH67LUA106TBHoU6QM5IiEDwb4rB400CQPTJbkC6m5XBbH45QD2GVMB4IJLBW5NZQJ4bE8DyspjB
nJnAQPDJzL/0l6vBKZjRQJNfGb9XOLLBF2qlQOqD5T0SgZ/BLC+8QBrTnEDPq6rBfhpyQAiWicDp
Io7BSILfQObkpUDytrvBIWiqQGeTn78LNaLBfriYQP7WEsCHNZvBVQK3QHRGkD+xEqbBymjLQHSB
uECQu7LBbgjCQOqTYECQpavBHx/NQKDDQz8ak6/B+zrXQDNgQEB72rTBtm6zQE+XU8Cd55bBWsqC
QEnTWkDibJbBgqeqQNyL+UBfgKjBs3PvQPRLAUHFErPBAirGQN2M+kC5LJ7Bk7oDQdpsAUEZRajB
q8fJQEaoN0DHN5jBymjEQHlm6UDkabLBgomyQJViJUB5waLBizflQEVLdkAHmbzBUGCjQMHkiMCs
gJDB1p+FQL5VOEANBqDBsuo5QJxydkBnyJHBGHPfQLe51D+0tLbBgISqQDAqYkAVsZHB4SrsQHfc
CUHe8p/BihHeQFq1UsAK4pjBSX/sP+/ZVsBDJpDBbK0vQNfdw79gxZvBHovEQEz6KMBbsa3B+lPi
QLWSYL/lcbnB0QOUQOu+wz7mW5jBHwusQHvFqUA2wKPBxGlZQKi5osD9EonB8avqQMpvukDbE8LB
MUCPQE8S5EBVNKfBXPmeQIoLDUGHJqrBcJzoQO7oEUH/a7XBHvwBQQOE80BIJrnBgW2zQL5nBEEh
opfBw13PQEe12UCv/5vBmnMIQUb24UCpNKbBshoSQch7C0Ey96jBaUzUQK5f9z+tbpTB5aXlQPNE
YUCBk5nBbLixQHn38UCGjrnBtlNZQOyYLEBNz6TBgcY6QLbaiECwi4rBjXYCQBQeb0CTq5XB

> <OMEGA_E>
bFEfP3h9Iz++pCM/hqVMP+igTT8Yakw/tNE8P3qpPD8=

> <OMEGA_NBR>
    130484

$$$$
50248151
  -OEChem-04172616093D

 57 61  0     1  0  0  0  0  0999 V2000
    5.2810   -4.1570  -18.0335 C   0  0  0  0  0  0  0  0  0  0  0  0
    5.7064   -3.1796  -18.9407 C   0  0  0  0  0  0  0  0  0  0  0  0
    5.9207   -1.5719  -21.4879 C   0  0  0  0  0  0  0  0  0  0  0  0
    6.4570   -0.5909  -22.3269 C   0  0  0  0  0  0  0  0  0  0  0  0
    7.4791    3.8553  -23.4453 C   0  0  0  0  0  0  0  0  0  0  0  0
    7.3715    5.2359  -23.2720 C   0  0  0  0  0  0  0  0  0  0  0  0
    5.0145    0.1616  -20.0352 C   0  0  0  0  0  0  0  0  0  0  0  0
    5.8988    4.8899  -21.3623 C   0  0  0  0  0  0  0  0  0  0  0  0
    3.9373   -4.1588  -17.6085 C   0  0  0  0  0  0  0  0  0  0  0  0
    5.2138   -1.1963  -20.3322 C   0  0  0  0  0  0  0  0  0  0  0  0
    4.7766   -2.2239  -19.3901 C   0  0  0  0  0  0  0  0  0  0  0  0
    5.5781    1.1539  -20.8604 C   0  0  0  0  0  0  0  0  0  0  0  0
    6.0297    3.4972  -21.5108 C   0  0  0  0  0  0  0  0  0  0  0  0
    6.3255    0.7693  -22.0057 C   0  0  0  0  0  0  0  0  0  0  0  0
    6.8162    2.9774  -22.5738 C   0  0  0  0  0  0  0  0  0  0  0  0
    6.5719    5.7479  -22.2377 C   0  0  0  0  0  0  0  0  0  0  0  0
    3.4427   -2.2735  -18.9194 C   0  0  0  0  0  0  0  0  0  0  0  0
    4.0663    3.3505  -18.7994 C   0  0  0  0  0  0  0  0  0  0  0  0
    6.2727    2.8248  -19.1317 C   0  0  0  0  0  0  0  0  0  0  0  0
    5.4977    2.5972  -20.4268 C   0  0  2  0  0  0  0  0  0  0  0  0
    3.5917    8.9621  -23.9849 C   0  0  0  0  0  0  0  0  0  0  0  0
    4.3610    8.9911  -21.5753 C   0  0  0  0  0  0  0  0  0  0  0  0
    5.8426    9.9588  -23.3995 C   0  0  0  0  0  0  0  0  0  0  0  0
    5.4579    7.4684  -23.2844 C   0  0  0  0  0  0  0  0  0  0  0  0
    4.8219    8.8472  -23.0512 C   0  0  0  0  0  0  0  0  0  0  0  0
    3.0491   -3.2345  -18.0506 N   0  0  0  0  0  0  0  0  0  0  0  0
    4.1189    2.9572  -20.0551 N   0  3  0  0  0  0  0  0  0  0  0  0
    2.9002    3.6856  -18.1319 N   0  0  0  0  0  0  0  0  0  0  0  0
    7.0074    1.6377  -22.8311 O   0  0  0  0  0  0  0  0  0  0  0  0
    5.3283    3.4373  -18.2500 O   0  0  0  0  0  0  0  0  0  0  0  0
    6.3097    7.0779  -22.1908 O   0  0  0  0  0  0  0  0  0  0  0  0
    2.5236   -1.3845  -19.3697 F   0  0  0  0  0  0  0  0  0  0  0  0
    5.9729   -4.8995  -17.6644 H   0  0  0  0  0  0  0  0  0  0  0  0
    6.7285   -3.1595  -19.2891 H   0  0  0  0  0  0  0  0  0  0  0  0
    6.0492   -2.6172  -21.7272 H   0  0  0  0  0  0  0  0  0  0  0  0
    6.9760   -0.8814  -23.2283 H   0  0  0  0  0  0  0  0  0  0  0  0
    8.0757    3.4603  -24.2543 H   0  0  0  0  0  0  0  0  0  0  0  0
    7.9013    5.9079  -23.9309 H   0  0  0  0  0  0  0  0  0  0  0  0
    4.4285    0.4452  -19.1735 H   0  0  0  0  0  0  0  0  0  0  0  0
    5.2805    5.2951  -20.5749 H   0  0  0  0  0  0  0  0  0  0  0  0
    3.6066   -4.9158  -16.9128 H   0  0  0  0  0  0  0  0  0  0  0  0
    6.6272    1.8692  -18.7180 H   0  0  0  0  0  0  0  0  0  0  0  0
    7.1312    3.4904  -19.3046 H   0  0  0  0  0  0  0  0  0  0  0  0
    3.9144    8.8606  -25.0316 H   0  0  0  0  0  0  0  0  0  0  0  0
    2.8730    8.1650  -23.7440 H   0  0  0  0  0  0  0  0  0  0  0  0
    3.1135    9.9424  -23.8422 H   0  0  0  0  0  0  0  0  0  0  0  0
    5.2325    8.9100  -20.9089 H   0  0  0  0  0  0  0  0  0  0  0  0
    3.8821    9.9714  -21.4348 H   0  0  0  0  0  0  0  0  0  0  0  0
    3.6416    8.1939  -21.3366 H   0  0  0  0  0  0  0  0  0  0  0  0
    6.7160    9.8765  -22.7359 H   0  0  0  0  0  0  0  0  0  0  0  0
    6.1649    9.8460  -24.4452 H   0  0  0  0  0  0  0  0  0  0  0  0
    5.3718   10.9439  -23.2652 H   0  0  0  0  0  0  0  0  0  0  0  0
    4.6576    6.7220  -23.3959 H   0  0  0  0  0  0  0  0  0  0  0  0
    6.0568    7.5044  -24.2063 H   0  0  0  0  0  0  0  0  0  0  0  0
    3.3322    2.9096  -20.6705 H   0  0  0  0  0  0  0  0  0  0  0  0
    2.9411    4.0153  -17.1887 H   0  0  0  0  0  0  0  0  0  0  0  0
    2.0173    3.5977  -18.5931 H   0  0  0  0  0  0  0  0  0  0  0  0
  1  2  2  0  0  0  0
  1  9  1  0  0  0  0
  2 11  1  0  0  0  0
  3  4  2  0  0  0  0
  3 10  1  0  0  0  0
  4 14  1  0  0  0  0
  5  6  2  0  0  0  0
  5 15  1  0  0  0  0
  6 16  1  0  0  0  0
  7 10  2  0  0  0  0
  7 12  1  0  0  0  0
  8 13  1  0  0  0  0
  8 16  2  0  0  0  0
  9 26  2  0  0  0  0
 10 11  1  0  0  0  0
 11 17  2  0  0  0  0
 12 14  2  0  0  0  0
 12 20  1  0  0  0  0
 13 15  2  0  0  0  0
 13 20  1  0  0  0  0
 14 29  1  0  0  0  0
 15 29  1  0  0  0  0
 16 31  1  0  0  0  0
 17 26  1  0  0  0  0
 17 32  1  0  0  0  0
 18 27  2  0  0  0  0
 18 28  1  0  0  0  0
 18 30  1  0  0  0  0
 19 20  1  0  0  0  0
 19 30  1  0  0  0  0
 20 27  1  0  0  0  0
 21 25  1  0  0  0  0
 22 25  1  0  0  0  0
 23 25  1  0  0  0  0
 24 25  1  0  0  0  0
 24 31  1  0  0  0  0
  1 33  1  0  0  0  0
  2 34  1  0  0  0  0
  3 35  1  0  0  0  0
  4 36  1  0  0  0  0
  5 37  1  0  0  0  0
  6 38  1  0  0  0  0
  7 39  1  0  0  0  0
  8 40  1  0  0  0  0
  9 41  1  0  0  0  0
 19 42  1  0  0  0  0
 19 43  1  0  0  0  0
 21 44  1  0  0  0  0
 21 45  1  0  0  0  0
 21 46  1  0  0  0  0
 22 47  1  0  0  0  0
 22 48  1  0  0  0  0
 22 49  1  0  0  0  0
 23 50  1  0  0  0  0
 23 51  1  0  0  0  0
 23 52  1  0  0  0  0
 24 53  1  0  0  0  0
 24 54  1  0  0  0  0
 27 55  1  0  0  0  0
 28 56  1  0  0  0  0
 28 57  1  0  0  0  0
M  CHG  1  27   1
M  END
> <OMEGA_C>
tf2oQCkGhcCvRJDBC5u2QBx/S8ChhpfBIna9QJE0yb8x56vBZZ/OQCZIF79mnbLB5VTvQLS8dkDo
j7vBpuPrQL+Mp0D8LLrBeXagQOaGJT4uSKDBkMK8QC56nEDx5arBE/17QBAVhcAf3ozBMNemQOsf
mb9iqKLBydmYQAJUDsDoHpvBe3+yQJKykz8H4qbBVPPAQL7SX0AoFqzBHWrKQDbyRD+ZC7DBaR7a
QA2NPkAdl7TBY03SQCnvt0C85rHB+1RcQO+AEcD4WpfBDh+CQElvVkAyZZbBO7rIQDLJNECsDZnB
+eyvQNM3JkAFaqPBod5lQLtkD0Ei4b/BrY2LQI3bD0E4mqzBifa6QHFXH0ExMrvBy6auQGz97kBy
RrrBWE2aQDKODUHNaLjBJiVDQEACT8CVZ5DBR86DQI9CPUDCcKDBSJ05QDzga0AsDpHBwjzgQJKe
0T8LprbBtIGqQE/9W0AHAJLBx+jJQDt+4kC+hrHByoIhQCE3sb889ZrBECK/QPjInMCrUI3BBVDX
QOw0SsD6T5rBKJPBQC+AJ8BF0a3BeTvfQKmlYb+O07nB6TUBQU12XUDZCMLBhdf8QG4NvUCEcr/B
n7aNQBT14z48Y5nBivmoQKFxqUBxmaTB8tFmQBlOncBQTYfBMxLUQFVA7z+BvpXB6zLkQGtjX0DP
b5rBEIZ6QA/FDUG/QMjBS983QKqjAkHH873BhENHQPATH0HavL7BUHCnQGCPDkF6RafBvXR4QKeK
H0FseqvBhRBpQGAaA0FZsarBQ+nWQCEGHkEL47XBjkbFQCCJHUG0j8PBr+WrQCsaL0EpH7rBGwuV
QLEa10DcKrvBOdHBQDok8ECYpsHBgEJVQKI2OkAtXaXBJDs8QLF9gECPgonBsRoBQPxAZkCUvpTB
4otGQDEfUMAUapDB4fRdQOfkD8CypZfBi2a7QHvIyr+1zKzB54jNQLJiFr8sJ7PBfO3rQCqWdkA1
Y7vBIqnkQCPzpkCDTbrBq1ygQKjx2j2Xe6DBh8O5QGSFmkACbarBl6OBQK1bh8D3gI3Bnh6mQPcc
nr/nSKPBnauYQDEeEcBg2JvBouyyQAhJjj/EwqbBg/+/QPrMXEDFnKvB+8jKQLA4QT9IA7DB9obZ
QGpzPUC7KLTB07jLQDXLtkBaubHBUwK2QESYUMADcpjBtHuCQJjzWkBhdJbBazrIQMAFMUDUpJjB
U8WvQNldIkCZBqPBvQflQOjTHEHPIrHB3tMIQW77AUE7M7vBrnXeQCu7GUFfRcXBkS+/QEkK+0Ax
ibnBzDrlQDwxDUEiwLrBFQmqQAr0hsBvcJHByGqDQG6ZN0B9BKDBq7o7QOSFekAJoZHB7KfhQM17
0T98K7bBqhOrQLLsYEAAJpLBo8DDQGVW4UDrELDBI03fQPOeTsCVypvB2rsGQN+9UcCwGY3B2RAx
QP9Lvb9c8ZnBlLC9QL2vJ8A2La/B8LLdQDatWb+YfrrBoMn/QOUIX0AF0cHBsCXyQC7zvEDRDMDB
fbONQJ77uz7Tg5nBQfmmQL2QpkBC1KPB6eFwQEBSoMAk/YfBh1nQQP975z9E0ZTBFLDlQD2zVUCw
HprBQ9TFQLbsJEGmrrDBn6zqQLXZE0EUs6nB5nT+QAvQKEE7MrLBIjcJQTuV7UBK/cHB4W4VQdMY
DkEqNrzBvooLQfhE8kADt7PBUKLeQOiKDkFVEMzBuIi/QMEdIkGD+cTB8mP4QHZ3JUFZQ8bB7kah
QDC9BkGiALnBPvu9QLXx5UDvksDBOmxTQGa4LEB6laTBqZg/QOT/i0Bli4rBQvYCQO7Zc0BgOpXB
9FWjQJHIbcCDnYrB0Zi0QHl2L8BpdZHBMhfAQBIazb/mcKrBRVzQQDavIb8pdbHBB1PiQBH3c0Dh
e73BzuTbQOFbpkBXzLzBAI+nQGqUJj5ReZ7BAAO7QBTinEC3S6vBQ0pxQM5PhMBIIIzBnbGrQAsp
mr9B8KDB5Y+aQBrZDcAbnpnBOsK3QGMHkz8AhqXBAynBQMJMYEBN8KvBkGDMQKM/Pj9BIa/B7kbV
QFAlPUBDIrXBmLDIQAshuEA8p7PBZv1fQFhvK8DAtprBMxyEQKaGX0CRSJbBFzXLQHL2PUCQXZjB
tQmzQEe3J0B+p6LBXBz7QPmpFkFHvKHBcBDfQF3cGkHfiLTBvG+uQLDKIUEjx6TBDlnFQLoS90Dk
majBkVbTQH2LE0Gz/6jBqcQ/QM6nZ8ACB5TBZ0mGQIKIOkCyvp/BlRY9QLuRe0BWi5HBBZfdQP+4
zT8VqrbB3C6sQDy6aEBjypHBCvbDQOIA5ECeMbPB2VgtQBmIC8DYjqLBfH+2QLNthMBtRYTB7C3V
QMfKGcB6epDB0DvDQDqxKcBNVqzBHiPgQHnycL8gvLjBEXfxQDBOWUDWf8TB8bblQGTdukAgTsPB
x+mXQKOH7D7HJpfBB6yrQJlsqkAzVaTBBrxWQBdKnMD93IbBAOPWQCiSA0ApaZTBSGPmQJp/aECy
GJrBU2rzQHaREUH4iJnBauYKQe78DEHo0aTBCCoCQVGmJ0Hqs6HBJzPDQBzDGEHzzrnBFWnoQNDT
K0GAarTB2OH5QG0qEUF+iLfB1RCSQMywH0E+4anBC5umQNMjHUELhZzBUnG4QKqpMkFP76TBJVDc
QPct5UChp6PBNlGlQNMG9UDm/KTB1+9ZQAMILUBLVqTB9+c+QA1IjEB6aorBPhAFQPrOckDdQJXB
JlCmQE7ShcAo4ZDBTm20QEMbTcCOEpjBWuW9QLNBx7/oAazBnlfRQDS+E79tXLLBNsXtQNE6eEB/
9LvBaJziQD6Fp0CV5LvBxGWgQGbvMT6edKDBdB2xQDxAmkDKMq3BNWV3QJN/hMB2N43BxlOmQKN0
l7/K4qLBinyXQJWEDcC/bJvBNIuzQD3ElD9C4abBNji9QDU8XkAG+6zBor7NQP7IRz+Jpq/BSOna
QAk2P0AOorTBVizEQDh6tkAKjLTBwS5aQHQMDsD+ZpfBMyqDQKGgVEDhOJbBnCfKQCmQOkAbxJnB
0I+vQLXeJkCnsaPBprH7QPswEUHbnq3B1BKvQAlCHkHtxa/BssrNQEcTGEF1SZ3BUrC9QIfg8UAk
G6nB/pfNQD4kEEEyBanBRSxAQK5MS8DMdZDBsJuDQOifOkD6O6DBWaE8QOO+aEC2m5DBbnbmQK2T
1D/mjbXBtA+sQDQrW0CLJZLBArC8QPNq4UCc7LPBgHMgQMNUpr+GxprBjcu7QDOinsATLI7BWPHU
QLifTcDL/5rB+fnAQHxlJsDuGq7BHTTjQKsJXr9FYrnBs30CQervYEDjp8HBM2HxQNhevUAHesHB
USSNQHVc6z7Ap5nBwRWZQJzcpUCAtafBo3xhQP2snMD5rofBxovZQEYfAECxuJbBXMfiQDjAakBt
kpvB/IMIQXAdB0Eow6jB05r7QAVfC0Hn7LXBbY4DQeDVIUGjb63BlYyOQDlhHUHGb6zB70G6QDLx
LkFomK/B6L+uQFZ6GEGsFbjBnyGtQC9VF0GuBprBAwnjQAXYDUEEfJjBdlzZQDuwKEEZA53BnVbT
QEMQ3kA8P6TBFUGdQJuk8EBts6XBpU1TQJ4KNUBa3KTBfaNAQDqkfUAzEInBnWUDQANhYkBQGZTB
AvynQPU3hcAH2pDBoqq1QKYLTsCEW5jBwnS9QOQRy79bk6zBqN/PQM9MF78R7rLB8rDpQOAhd0D4
1LvBGbffQBLVpkBZHrvB99ShQFg+6T0gcaDBeCy3QJdBmkCS36rBrtZ6QLSlg8DgI43BZfGmQPE/
nb8gQ6PBalqYQIoCEMDG4ZvBona0QAGYjj/gtabBkn+/QALDXEAoy6vB4JDMQOqgQT966a/BiUTZ
QJLmPUDtUrTBOJ7GQEZ9tkAeibLB10VcQNpmD8DYxpfB+taCQObjV0ADWJbBCjzJQMAgM0CEyJjB
qH6wQLSDIkCwEaPBqaTdQMFXHEEuPbLBxrEFQS+bAUGcBrzB97vYQCAhGUGaZsbBWJa4QPHv+UCu
x7rBfMHeQB2pDEE/1LvBZ/RCQLjoSsAJl5DBrfyDQKa8NUC695/Bo707QHAddECYXJHB6hfjQErT
0j9VFrbB74CrQLBsYEBeJ5LB3+K7QAyu4EDXMrHBms4iQKhLqL8GJ5vBWrm9QLhrncCR743BiwrW
QNYOT8DiYJvBpn7AQFgJKMApzq7B+KrgQFrxW7+OK7rBDB/+QPtLYEBvMMLB6TTrQM6wvEC2KcHB
s4KPQIS4wT6XbZnBObqkQF0mpkAJM6TBQIllQNgjm8DTY4fBNubSQOkY7T/GAZXBQcnlQCdQWkAq
XZrBGlK+QPpZJEHe8bHBXtLiQIJrE0Hbw6rBAQL3QEtlKEGeMbPBv3IGQX++7EAZysLBVkASQV3O
DUE97bzBhCgIQSip8UB6f7TBTI7ZQJHnDUH2LM3BPri5QABzIUHwRcbB0aPyQFfqJEEKR8fBDp+a
QLwwBkFTirrB40O4QHB45EDwwMHBiqBUQPFtKkB1h6TBFSQ/QCJ4iEBLO4rBRPACQD2ta0C75JTB
h1SlQFHfh8A4lo/B/o62QHVhUcBQbJbBaZPCQKObzb/UF6vBbsHSQM6WHL+Q6bHB6IHjQIpAeEBE
Ir3BEFHcQF9gqEAANbzBHlWnQENz9j2EJp/B/BC6QM+hnEAy/arB73JyQNTghsCKNY3BmH6sQCn1
nr/YuaHB9DWbQDgGEsCNmZrBQv63QHFzkD+D6qXBgibBQMk7YEBZ2KvBO7bNQI+JQT/1cq/BLzzW
QMJYP0BNBrXBcAPIQDgauUDeELPBSlBeQNzBE8A85pfBSWWDQAKZWkCnU5bBRqXKQOxAOkAVX5jB
QduyQF6zJUCIxaLB1hkIQTSO30BtJaTBRIABQSjzE0GFrqzBkzvvQPmEDUHyWpnBFTfDQNKZ+UCD
CajBTGrxQGREA0FYoqTBhik+QMf3UMAQWpHBZvOFQFJUN0DJ4p/BQjg7QBludUDMlpHBxCnfQKHo
0j+PwbbBgVCrQLyGY0D9vJHBAYfBQCkD5UBli7LBzPAnQGOVsr8AI5zBtpq5QANWoMABMIzB7yjY
QCn4UcBRcZjBOxLHQOmNKcC8CK3BjkvjQPHPZb82JbnB7mnzQPR6X0DMJsTBn2nmQD6hvUAMicLB
g32WQDi3yz6j8JfBjbipQE0kqUBuDKTBWelXQKjpnsAI9ofBIVTWQGF//j/wj5TB6sjlQO9UZUCO
7JnBHN0BQcfcx0Abb57B7lAJQTPr0EBSIKzBhQcYQThI6kDjiKHBhTXtQOjAIUGJB63BGm4RQVBP
GUHHEarBhLcCQc2gDEE2qbTBNovZQHRgG0FriZnBhDbjQI2rAUF5lZPBLbMHQcHIEkFF8JbB/1K2
QM5A40DtDKLBKEevQD9MC0F1RKjBYZtZQA9GKkBojqTBKHE8QDGjiEA1Y4rBQHgDQCHybEBEX5XB
+Z04QPBEU8DPHJLBVw1ZQJYsEsCatJjBin7AQI73zL+0mKvBAaPRQGpUGr+ZOLLBnoXlQNxgeUAb
zrzBOureQGL7qEBcwLvBIXelQGxh6T0bhJ/BB3W7QHLLnECttKrBuONwQD8UicB4G47BJVGqQLhU
n780N6LBPXSYQHB1EsCvN5vB5h+3QEUskD/sFqbBcOzBQKh1YECYsavBU0fNQDrkQj/DlK/BNFXX
QFD9P0BD2bTBMU/KQHV/uUATobLBBf+yQM5kU8B05ZbBjuKCQJpAWkAyaJbBJfbJQJ/HN0AvQ5jB
fpyyQDlSJUDTyKLBKRMJQRIF3kAWT6PBeEMDQUCDE0GfoqvBB2fxQNCxDEEIb5jBr8vFQPlt+UCt
ZKfB7ffzQFW9AkERxqPB2cWiQEumiMAZepDB7bKFQIQdOEB6BqDBKxs6QMuqdUDevpHB/rffQKAe
1D/msrbB+JyqQIZpYUCFq5HBfXDEQIN25UAl+rHB1qPdQNntUsA83pjBIrzqP2EsVcBlIZDBuW0v
QAymwb+3ypvBa0/EQHQaKcA+sa3BImTiQF4QYr8PcLnBa6/1QHfqYECUzcPBprHpQERuvkCU98HB
iR6UQBi9xT4aXpjB0OOqQKcpqUBEyKPBGO5XQE0aosCtB4nBdeHUQM7W9z9ShZTBQ5PlQNEIYkCk
opnB+30CQcAyxkCFup3BqGwKQa3Lz0CBVKvBzP8YQd0f6EB3iqDBCyrxQDF8IUFf96vBPDATQduP
GEHS3ajBF50EQcJlDEHcp7PBkSLcQBC3GkFmmZjBOrDkQBjHAEGjypLB9MgIQR6nEUE/3JXB5je4
QEDx4kATiaHBkE2yQEJdC0EUmKfB3HBZQJSDLECVz6TBhvc6QIFQiECtfYrBXKYCQJV8bkACo5XB

> <OMEGA_E>
tHgRPzwUMT84+y4/uAocP6Y/FT/cVBo/Dh81Pw==

> <OMEGA_NBR>
    137338

$$$$
50248152
  -OEChem-04172616093D

 57 61  0     1  0  0  0  0  0999 V2000
    6.0090   -1.6010  -21.4507 C   0  0  0  0  0  0  0  0  0  0  0  0
    6.5440   -0.6029  -22.2794 C   0  0  0  0  0  0  0  0  0  0  0  0
    7.1597    3.8898  -23.6079 C   0  0  0  0  0  0  0  0  0  0  0  0
    6.9486    5.2722  -23.4823 C   0  0  0  0  0  0  0  0  0  0  0  0
    2.8937   -3.3242  -18.2616 C   0  0  0  0  0  0  0  0  0  0  0  0
    5.1868    0.1152  -19.9291 C   0  0  0  0  0  0  0  0  0  0  0  0
    5.8765    4.9061  -21.3295 C   0  0  0  0  0  0  0  0  0  0  0  0
    3.7847   -4.2907  -17.7514 C   0  0  0  0  0  0  0  0  0  0  0  0
    5.3255   -1.2440  -20.2731 C   0  0  0  0  0  0  0  0  0  0  0  0
    4.7656   -2.2897  -19.3985 C   0  0  0  0  0  0  0  0  0  0  0  0
    5.7314    1.1275  -20.7547 C   0  0  0  0  0  0  0  0  0  0  0  0
    6.0699    3.5103  -21.4549 C   0  0  0  0  0  0  0  0  0  0  0  0
    6.4128    0.7612  -21.9466 C   0  0  0  0  0  0  0  0  0  0  0  0
    6.7253    2.9983  -22.6062 C   0  0  0  0  0  0  0  0  0  0  0  0
    6.3180    5.7937  -22.3373 C   0  0  0  0  0  0  0  0  0  0  0  0
    3.3877   -2.3067  -19.0935 C   0  0  0  0  0  0  0  0  0  0  0  0
    5.6042   -3.2940  -18.8522 C   0  0  0  0  0  0  0  0  0  0  0  0
    4.0907    3.4109  -18.8014 C   0  0  0  0  0  0  0  0  0  0  0  0
    6.3135    2.8754  -19.0252 C   0  0  0  0  0  0  0  0  0  0  0  0
    5.5889    2.5857  -20.3427 C   0  0  2  0  0  0  0  0  0  0  0  0
    7.9527    7.3081  -19.2442 C   0  0  0  0  0  0  0  0  0  0  0  0
    8.6827    7.9073  -21.5878 C   0  0  0  0  0  0  0  0  0  0  0  0
    7.6560    9.6592  -20.1039 C   0  0  0  0  0  0  0  0  0  0  0  0
    6.1511    7.8268  -20.9900 C   0  0  0  0  0  0  0  0  0  0  0  0
    7.6050    8.1584  -20.4942 C   0  0  0  0  0  0  0  0  0  0  0  0
    5.1071   -4.2633  -18.0464 N   0  0  0  0  0  0  0  0  0  0  0  0
    4.1839    2.8786  -20.0035 N   0  3  0  0  0  0  0  0  0  0  0  0
    2.9057    3.8354  -18.2215 N   0  0  0  0  0  0  0  0  0  0  0  0
    6.9831    1.6557  -22.8398 O   0  0  0  0  0  0  0  0  0  0  0  0
    5.3301    3.5251  -18.2052 O   0  0  0  0  0  0  0  0  0  0  0  0
    6.1002    7.1619  -22.2885 O   0  0  0  0  0  0  0  0  0  0  0  0
    2.5404   -1.3838  -19.6113 F   0  0  0  0  0  0  0  0  0  0  0  0
    6.9362   -3.2783  -19.1018 F   0  0  0  0  0  0  0  0  0  0  0  0
    6.1216   -2.6418  -21.7161 H   0  0  0  0  0  0  0  0  0  0  0  0
    7.0631   -0.8831  -23.1840 H   0  0  0  0  0  0  0  0  0  0  0  0
    7.6614    3.5045  -24.4833 H   0  0  0  0  0  0  0  0  0  0  0  0
    7.2718    5.9387  -24.2683 H   0  0  0  0  0  0  0  0  0  0  0  0
    1.8431   -3.3661  -18.0151 H   0  0  0  0  0  0  0  0  0  0  0  0
    4.6598    0.3873  -19.0265 H   0  0  0  0  0  0  0  0  0  0  0  0
    5.3848    5.2989  -20.4519 H   0  0  0  0  0  0  0  0  0  0  0  0
    3.4040   -5.0718  -17.1100 H   0  0  0  0  0  0  0  0  0  0  0  0
    6.6542    1.9407  -18.5559 H   0  0  0  0  0  0  0  0  0  0  0  0
    7.1762    3.5366  -19.1940 H   0  0  0  0  0  0  0  0  0  0  0  0
    7.1969    7.4774  -18.4631 H   0  0  0  0  0  0  0  0  0  0  0  0
    7.9650    6.2427  -19.5175 H   0  0  0  0  0  0  0  0  0  0  0  0
    8.9431    7.6010  -18.8656 H   0  0  0  0  0  0  0  0  0  0  0  0
    8.4466    8.5056  -22.4802 H   0  0  0  0  0  0  0  0  0  0  0  0
    9.6709    8.1985  -21.2022 H   0  0  0  0  0  0  0  0  0  0  0  0
    8.6929    6.8401  -21.8542 H   0  0  0  0  0  0  0  0  0  0  0  0
    7.4112   10.2753  -20.9816 H   0  0  0  0  0  0  0  0  0  0  0  0
    6.9269    9.8548  -19.3039 H   0  0  0  0  0  0  0  0  0  0  0  0
    8.6662    9.9115  -19.7491 H   0  0  0  0  0  0  0  0  0  0  0  0
    5.6743    7.1705  -20.2471 H   0  0  0  0  0  0  0  0  0  0  0  0
    5.5877    8.7688  -21.0621 H   0  0  0  0  0  0  0  0  0  0  0  0
    3.4059    2.6976  -20.6052 H   0  0  0  0  0  0  0  0  0  0  0  0
    2.9155    4.2553  -17.3139 H   0  0  0  0  0  0  0  0  0  0  0  0
    2.0409    3.7219  -18.7105 H   0  0  0  0  0  0  0  0  0  0  0  0
  1  2  2  0  0  0  0
  1  9  1  0  0  0  0
  2 13  1  0  0  0  0
  3  4  2  0  0  0  0
  3 14  1  0  0  0  0
  4 15  1  0  0  0  0
  5  8  1  0  0  0  0
  5 16  2  0  0  0  0
  6  9  2  0  0  0  0
  6 11  1  0  0  0  0
  7 12  1  0  0  0  0
  7 15  2  0  0  0  0
  8 26  2  0  0  0  0
  9 10  1  0  0  0  0
 10 16  1  0  0  0  0
 10 17  2  0  0  0  0
 11 13  2  0  0  0  0
 11 20  1  0  0  0  0
 12 14  2  0  0  0  0
 12 20  1  0  0  0  0
 13 29  1  0  0  0  0
 14 29  1  0  0  0  0
 15 31  1  0  0  0  0
 16 32  1  0  0  0  0
 17 26  1  0  0  0  0
 17 33  1  0  0  0  0
 18 27  2  0  0  0  0
 18 28  1  0  0  0  0
 18 30  1  0  0  0  0
 19 20  1  0  0  0  0
 19 30  1  0  0  0  0
 20 27  1  0  0  0  0
 21 25  1  0  0  0  0
 22 25  1  0  0  0  0
 23 25  1  0  0  0  0
 24 25  1  0  0  0  0
 24 31  1  0  0  0  0
  1 34  1  0  0  0  0
  2 35  1  0  0  0  0
  3 36  1  0  0  0  0
  4 37  1  0  0  0  0
  5 38  1  0  0  0  0
  6 39  1  0  0  0  0
  7 40  1  0  0  0  0
  8 41  1  0  0  0  0
 19 42  1  0  0  0  0
 19 43  1  0  0  0  0
 21 44  1  0  0  0  0
 21 45  1  0  0  0  0
 21 46  1  0  0  0  0
 22 47  1  0  0  0  0
 22 48  1  0  0  0  0
 22 49  1  0  0  0  0
 23 50  1  0  0  0  0
 23 51  1  0  0  0  0
 23 52  1  0  0  0  0
 24 53  1  0  0  0  0
 24 54  1  0  0  0  0
 27 55  1  0  0  0  0
 28 56  1  0  0  0  0
 28 57  1  0  0  0  0
M  CHG  1  27   1
M  END
> <OMEGA_C>
E0rAQLbuzL8am6vBPGjRQGRYGr8cPLLBShzlQPbxeEAP3bzB9FreQO+1qEDE27vByjI5QN+/VMCs
F5LBTvqlQGrx6z2ybp/BEgy8QKT+nEDXoqrBvzhyQIhNicDuAo7BVWqqQCE6n79RL6LBaH+YQC6K
EsAtMJvBPme3QPNSkD+kCabBVTzCQD2oYECKo6vB+TXNQK/eQj+rkq/BjjXXQAHkP0B32bTBVC3K
QEZmuUDPsrLBic9YQKehE8Bqv5jBmVWzQHbRUsBY0ZbB4OaCQHpMWkAvaZbBOQjKQEEHOECvM5jB
O9iyQAl8JUDPvaLBb3z+QAXc6UAt9JnBPOwKQeEI/UDOs6zBDf70QOOLGkHY1KDBwdXEQGR1+kBu
66fBIVzzQNSIAkEs9KPBAm2jQCdtiMD+XpDBceKFQCA7OEA4B6DB9vY5QNl3dUCIxZHBhnXfQIjt
0z/it7bBBpCqQNSaYUAupJHBCDXDQFwu5UDWTrLBIJUiQCIgsb/245zBTvXdQEfQUcB+0JjBUeTD
QAYUKcCjuq3BkwTiQO4UYr/geLnB2Sn1QNtJYEDe3cPBNLLoQLIJvkB7JcLBMOnrP4FuV8D1HpDB
QB2VQOxFxj4uNpjB4E+sQN6QqUBnnaPBddtZQDdMosBh4YjB8+7UQEVq+D93cpTB1qPlQERYYkBf
jZnB2EzmQPZG70CFtJPBkOH+QPzDx0DqI5zBxxYPQYM780C37JbBRiUHQQEXCEFi17PB+rsaQegs
A0EmnqnB/BULQUri2kBZ1a7B7ijtQNJnJEFq2qfB86jdQEitHUFYbprBs6gKQWaVHkE3/p3BF5S1
QGd05UAD+qHBh86yQC9NDEFDf6jBovpZQAulLEBp16TBJZc6QKcriEDtgorB7J0CQBUzbkAur5XB
w/u5QJwTxr9EeazBqYPNQEwJEr/DzrLBw03vQEMSd0Cdp7vBXeHlQIpOp0AOYrvB5TpAQDpVTsCr
a5DB5nigQOjOMz65QaDB/H2zQC7DmkBO06zBxK18QBJShsDGVo3BLwulQPz9lr8A86LBRJCWQP+0
DcBIf5vBmiWzQOwGlT+AwabBLSu+QMSDXkBov6zBIe7LQDNtRz+Fxa/BF1HbQMGIPkBueLTBGN/H
QGXRtkAhALTBWK9YQCx3DcDiipfB9mazQG0sTsDUDJjBgcSCQF6pVkAZPJbBC8jJQL/OOUDEe5nB
WKmvQMQTJ0CBhqPB5i0CQd1RD0F0LazBrHK5QMGZHkGIfq7BAx3WQNWzFkEd9pvB6WfDQP9P8UCg
N6jB5N/VQBlaD0GoyafBGvOmQJ3ZhcCjHJHByKGDQMPXO0CaNqDBRLQ7QCG8bkCw5JDBmjjlQFhM
0j/torXBHkurQCkRWUAi3ZHBlDnCQO714UAWI7PBSRIfQGg4o7/7rZrBY6vcQGPKTcAyaJvB+fW6
QNFgJcAZ467ByOLdQCkOW78IEbrBfwUDQbnSXkB2acHBQqP1QG8EvUCJ1MDBSnj/P+eNUMBfU43B
kaaOQHLE6j5pNZnBk5CbQKDOpkDRXafB27RpQB8xn8Af1IfBOTvZQHNR/j9ahZbBnFPiQKqFakDl
IJvBWhcMQUlxBEG/WafB0h0CQXrkCUF0jLTBBMwIQfyaH0H5vqvBn6SYQGN5HkHmTavB/nDGQIbv
LkH6Ea7BmRS5QAQ5GUF137bBwDC1QGK6FkED2ZjBHdPpQPuoC0EkM5fBnYHjQLbxJkFsbpvB5ZLX
QCjb20BgZaPBoLmiQBaY8UDm8qTBesJTQHdPNkBa6aTB2Q0/QKXMgUCKV4nBfQsDQMRAa0CBlpTB
tuzBQFhgzb+JL6vBwCvSQGhBHL8a/bHBLzTjQLPQd0CFLL3BnOTbQMIZqEC+SrzBKjelQFukh8Da
aI/BQ4qnQMjb9z1JG5/Ba8O6QMjZnEAc6KrBRvlxQObchsBpMI3BBnCsQFPSnr++uaHBN1abQAYG
EsAnjprBcxm4QLuRkD/R4qXB3oPBQGJyYEB2yKvBToDNQAKgQT8/dq/BJyzWQOBCP0DZA7XBWgbI
QNMBuUB4HbPBYrW2QOfVUMBiMpbBjV1eQKERFMD+85fBSXCDQDuiWkCJUpbB+7LKQJkuOkD6TpjB
tg2zQEHTJUB6u6LBMQT9QKWJ60B4t5rBGIkJQfn2/UACna3BJRryQK4fG0EW06HBCGLCQFyR+kDR
iajB9ffwQKEDA0GyxaTB0OE9QIszUcDOa5HBfR2GQBWXN0D845/BpjM7QMVLdUDVmJHBkefeQJu+
0j+7xbbBzE6rQDaVY0BatZHBVXnAQMa05EC62LLB70vhQASMUMAaQ5jBWiUoQN9ts7+OPpzBr+bF
QNdrKcCINK3BW3jiQGlOZb/kQbnB4gPzQO7XXkCnMcTB55DlQEw5vUA9sMLBumi5QJz8n8CP7YvB
G/yWQFbRyz6A2pfBH0SrQKOVqUDm3qPBuRNXQHb3nsBc/YfBwTzWQIYw/j/ifZTBO+zlQOkeZUAs
1JnBWRvlQE788EBNZ5TB5MD9QNZUyUDhyJzBCF8OQU6B9UD61JfB9W0FQQBNCEF1yrTB0l0ZQWvw
A0FnrKrBO98JQV6020BOoK/BT53pQCi6JEEg46jBAwnbQJVGHkHuXZvBVzsJQX92H0FpIJ/B5b+z
QB2v5UDheKLBl+ivQOE2DEFnJ6nBCxJaQM3DKkDsl6TBNEY8QPiBiEA2Y4rBCoYDQMLQbECPZZXB
B0u9QFudx79HIazBrMPQQEQxFL8Ed7LBygXtQLkIeEA19bvBjJvhQCpWp0CV4rvB8o2mQCQEhcBI
YJDBpHihQF6hJz7OQaDB3q6wQEHimUCcE63BYo92QDCThMCjNo3BFNymQC1LmL+a0KLBYBeYQLTj
DcDwVZvBxCS0QP6jkz/Ou6bBgPy8QDujXUAD4qzB4L3NQOCRRj/fn6/BOoXaQE3lPkA0mbTBglHD
QJEetkBLe7TBbU61QFJsS8B1fpfBqG1aQIFhD8BTppfB6zWDQJ73VUDBOZbBkjHKQIqyOkDeqJnB
1rSvQBMsJkCekqPByxX8QIt4EEHRG67BpLyvQPYaHkGqAbDBOKHPQFMzGEGpnp3BvqW9QNi/8UC4
H6nB3EzOQE7wD0GiSanBXlc/QOOlTMDtx5DB1Z+DQIrcOEChGqDBiN88QOPXbECzvpDBairmQPE2
1D+2kbXBLRysQBArXUBzKpLBQ267QBTx4EBB47PB2UHfQIkqScB0RJrBhEghQMqoqL9wIpvBN3i/
QO9jJsB0Yq7Bii7iQJOZXb/rkLnBVBMCQSv3YEChscHBVQ/wQLpBvUDZgMHB6BO8QHIxncBWWY3B
5vyOQDOI5D7IUJnBd9aYQBRspUASh6fB9qBfQOX4nMCLzofBkSjZQDFcAECPdJbBUybjQOgBakCt
ipvB/LkIQaFdBkEeRqnBSC/7QMlnCkHTXbbB7wYEQa0FIUGEGq7BiXGPQH2YHUGjg6zBFHm7QMKy
LkHbAbDBf5quQN0UGEEpRbjBeDKvQM7SF0FrNJrBKePkQFnuDUFs15jB9sLbQI24KEHUhJ3ByWrT
QPfM3UBgVaTBj4SdQOAw8UA4iKXB2ipTQEaQMEDnoqTB5QZBQPoygkAZU4nB/5sDQLfOZUAjNZTB
hfi6QAygxb8hC63BA6jPQAbCDb8VBLPBvObpQF6odUA5TrzBtErZQMkxpEBaJ73BJYGlQF/qhsAM
pJHBuLqhQBKNET7idqDB49OtQJpSmED6P63BlVN3QB3cg8Big43BT76lQPGNmb+7e6PBtyyXQMkt
D8BGH5zBgd20QDEnkj+zqabBjXO9QFzRXECeiazBs2LOQHwdSD9Ymq/B0QHbQIKWPkAySrTBwx27
QJLoskCYlbXBBqCzQBK2UMA0BpnB0mVbQIPtC8DAjJfBSRyDQK0yVEDtFpbBiFrKQP+3OEAKS5nB
7lmwQADuJEBgSKPBvV73QPj/GUEAfK/BNu3XQN+T+kBXxqPBfGgJQZd46EAgBbHBrKHHQBGh/UBv
DbjBpyfqQJ0hAkFsGa/BOJRBQB/TR8AqcJDB/wiEQGHbNkBu8Z/Bu8M8QNiqcEAmBJHB+lLoQDTW
1T+x+LTB9UyrQFsKU0Drg5HBEAWqQLEz20Bh67XBq2fcQFLOU8DuupzB0m0jQNlJm78WaprBo0K7
QEd0JMC0v6/Bl5bgQCMrUb9VP7rBVxsBQXMvYEAX1MHBn4DjQPDjuEDNlcPB3G26QHGIoMAYI4/B
rOePQNN6zz4iXpnBcn2XQLASpEAMWafB929hQF+em8Dh3YfB+5bbQIHX/j94ipbBpWPhQHF0bED5
25rBbzACQe7IHUF9cLfBYDbbQCQWJEEp663B0/MHQTgWHUGtXanByFDOQIrD2EApUqPBDKLwQF+I
AEFZuJ3Bx/C7QEuIB0HURaLBQw0FQVVhxkD1xrDBAEIQQesu8EDC5LjBNEcVQcg670AGv6rBzj+1
QJa7DUHz4LjBsUHYQA2u9kCvnL/BoHFUQLPvLUCuiaTBrcs/QFIwg0AGgInBVq8EQGeEb0BT3pTB

> <OMEGA_E>
UmsyP4CxMT9MhRw/rDsdPyzwIz8=

> <OMEGA_NBR>
    142325

$$$$
50249211
  -OEChem-04172616093D

 48 52  0     1  0  0  0  0  0999 V2000
    6.0093   -1.6093  -21.5232 C   0  0  0  0  0  0  0  0  0  0  0  0
    6.5069   -0.6091  -22.3724 C   0  0  0  0  0  0  0  0  0  0  0  0
    5.0665    0.0974  -20.0610 C   0  0  0  0  0  0  0  0  0  0  0  0
    5.6970   -3.2773  -18.9965 C   0  0  0  0  0  0  0  0  0  0  0  0
    3.4979   -2.2378  -18.9272 C   0  0  0  0  0  0  0  0  0  0  0  0
    3.9156   -4.1027  -17.5695 C   0  0  0  0  0  0  0  0  0  0  0  0
    5.2831   -1.2541  -20.3695 C   0  0  0  0  0  0  0  0  0  0  0  0
    4.8136   -2.2804  -19.4416 C   0  0  0  0  0  0  0  0  0  0  0  0
    5.5995    1.1084  -20.8825 C   0  0  0  0  0  0  0  0  0  0  0  0
    6.3277    0.7485  -22.0512 C   0  0  0  0  0  0  0  0  0  0  0  0
    5.2451   -4.1878  -18.0341 C   0  0  0  0  0  0  0  0  0  0  0  0
    4.0417    3.2810  -18.8062 C   0  0  0  0  0  0  0  0  0  0  0  0
    7.5364    5.4077  -23.0478 C   0  0  0  0  0  0  0  0  0  0  0  0
    7.4267    3.9431  -23.5229 C   0  0  0  0  0  0  0  0  0  0  0  0
    6.2987    5.8006  -22.2150 C   0  0  0  0  0  0  0  0  0  0  0  0
    6.2519    2.7921  -19.1312 C   0  0  0  0  0  0  0  0  0  0  0  0
    5.8932    3.5021  -21.5900 C   0  0  2  0  0  0  0  0  0  0  0  0
    5.4757    2.5580  -20.4350 C   0  0  1  0  0  0  0  0  0  0  0  0
    7.1580    2.9859  -22.3359 C   0  0  2  0  0  0  0  0  0  0  0  0
    8.4292    2.9033  -21.4379 C   0  0  0  0  0  0  0  0  0  0  0  0
    3.0680   -3.1460  -18.0207 N   0  0  0  0  0  0  0  0  0  0  0  0
    4.0937    2.8538  -20.0470 N   0  3  0  0  0  0  0  0  0  0  0  0
    2.9088    3.8164  -18.2209 N   0  0  0  0  0  0  0  0  0  0  0  0
    6.8953    1.6815  -22.8984 O   0  0  0  0  0  0  0  0  0  0  0  0
    5.2471    3.1031  -18.1644 O   0  0  0  0  0  0  0  0  0  0  0  0
    6.0908    4.8631  -21.1371 O   0  0  0  0  0  0  0  0  0  0  0  0
    6.3327   -5.3910  -17.3971 Cl  0  0  0  0  0  0  0  0  0  0  0  0
    6.1829   -2.6500  -21.7538 H   0  0  0  0  0  0  0  0  0  0  0  0
    7.0298   -0.8830  -23.2768 H   0  0  0  0  0  0  0  0  0  0  0  0
    4.4879    0.3633  -19.1887 H   0  0  0  0  0  0  0  0  0  0  0  0
    6.7018   -3.3399  -19.3877 H   0  0  0  0  0  0  0  0  0  0  0  0
    2.8225   -1.4654  -19.2642 H   0  0  0  0  0  0  0  0  0  0  0  0
    3.5654   -4.8158  -16.8379 H   0  0  0  0  0  0  0  0  0  0  0  0
    8.4392    5.5210  -22.4297 H   0  0  0  0  0  0  0  0  0  0  0  0
    7.6071    6.0682  -23.9246 H   0  0  0  0  0  0  0  0  0  0  0  0
    6.5999    3.8611  -24.2437 H   0  0  0  0  0  0  0  0  0  0  0  0
    8.3689    3.6531  -24.0109 H   0  0  0  0  0  0  0  0  0  0  0  0
    6.4502    6.8059  -21.7951 H   0  0  0  0  0  0  0  0  0  0  0  0
    5.4120    5.8049  -22.8659 H   0  0  0  0  0  0  0  0  0  0  0  0
    6.8039    1.8863  -18.8400 H   0  0  0  0  0  0  0  0  0  0  0  0
    6.9556    3.6301  -19.2433 H   0  0  0  0  0  0  0  0  0  0  0  0
    5.0697    3.4998  -22.3194 H   0  0  0  0  0  0  0  0  0  0  0  0
    8.2394    2.2235  -20.5943 H   0  0  0  0  0  0  0  0  0  0  0  0
    9.2735    2.5234  -22.0320 H   0  0  0  0  0  0  0  0  0  0  0  0
    8.6724    3.9050  -21.0539 H   0  0  0  0  0  0  0  0  0  0  0  0
    3.2995    2.7452  -20.6449 H   0  0  0  0  0  0  0  0  0  0  0  0
    2.9298    4.1061  -17.2640 H   0  0  0  0  0  0  0  0  0  0  0  0
    2.0687    3.9136  -18.7545 H   0  0  0  0  0  0  0  0  0  0  0  0
  1  2  2  0  0  0  0
  1  7  1  0  0  0  0
  2 10  1  0  0  0  0
  3  7  2  0  0  0  0
  3  9  1  0  0  0  0
  4  8  1  0  0  0  0
  4 11  2  0  0  0  0
  5  8  2  0  0  0  0
  5 21  1  0  0  0  0
  6 11  1  0  0  0  0
  6 21  2  0  0  0  0
  7  8  1  0  0  0  0
  9 10  2  0  0  0  0
  9 18  1  0  0  0  0
 10 24  1  0  0  0  0
 11 27  1  0  0  0  0
 12 22  2  0  0  0  0
 12 23  1  0  0  0  0
 12 25  1  0  0  0  0
 13 14  1  0  0  0  0
 13 15  1  0  0  0  0
 14 19  1  0  0  0  0
 15 26  1  0  0  0  0
 16 18  1  0  0  0  0
 16 25  1  0  0  0  0
 17 18  1  0  0  0  0
 17 19  1  0  0  0  0
 17 26  1  0  0  0  0
 18 22  1  0  0  0  0
 19 20  1  0  0  0  0
 19 24  1  0  0  0  0
  1 28  1  0  0  0  0
  2 29  1  0  0  0  0
  3 30  1  0  0  0  0
  4 31  1  0  0  0  0
  5 32  1  0  0  0  0
  6 33  1  0  0  0  0
 13 34  1  0  0  0  0
 13 35  1  0  0  0  0
 14 36  1  0  0  0  0
 14 37  1  0  0  0  0
 15 38  1  0  0  0  0
 15 39  1  0  0  0  0
 16 40  1  0  0  0  0
 16 41  1  0  0  0  0
 17 42  1  0  0  0  0
 20 43  1  0  0  0  0
 20 44  1  0  0  0  0
 20 45  1  0  0  0  0
 22 46  1  0  0  0  0
 23 47  1  0  0  0  0
 23 48  1  0  0  0  0
M  CHG  1  22   1
M  END
> <OMEGA_C>
LkzAQP/9zb96L6zBPDjQQATwG7+m+rLBBSGiQAWQxz3cfKDBGU62QHm+UcDe+JfBUd5fQAA4D8Dz
apfBpZl6QEpJg8BSjozBZA+pQNWHoL/T9KLB+QiaQJ3yEcBjiJvBKi+zQCPgjT9fD6fB43zKQFac
Pz/TaLDBItinQJYChsDqRZDB4lWBQGT8UUAnc5bBBCrxQBwMrUDaYbjBt6ftQFVcfEDOLrzBEY/J
QCueuUBduLHB7w/IQEuxMkC6DJnBE5W8QOsiYEBouKzBpjivQA23I0DkeqPBGQ7lQFIZP0DZr7LB
IN4GQWPQOUDqgKvBYVpEQFpXScBhKpDBrP+CQFSkNkBVYKDBTio6QB4/dEBixJHBSKbcQDw81z/x
L7fB/uenQPiYRkDHUJHBEejCQHOem0DFGKnBqKXKQCODrMBOLYvBBNrFQDqaKcC2B67B3PPgQNQO
Yr/eNrrBGZ2PQCEIuj5hgpnB33TWQF3AVcDsGZvBi6M0QL2Ru78HHZrBFTBkQEobmsANtIbBBQcH
QQSssED3b7PBAG3zQMYuwkCHZb/BpjLTQGwcd0Az88HB++YFQSrNaUBmFsDBLGjOQP3J2UBmXK7B
Ay+tQHnBuUB07bbBtLnZQN5w8T9AuJbBYpTeQIZTaEBF8pnBSDuiQPH7X0ANjrLBZdQDQchNDkAb
waTBSWAUQRaAIUB9QbDBSMIKQQ3seUBwbqjB9ipTQByxL0C+KKXBVoE7QG9lg0C6HIrBAGYEQDx5
ekA+CZbBQI28QCSUyr8bAKzBTp/MQFXoGb957bLB4FigQBysHD5mQ6DBqq1gQCQlDcAsUpbB7jG2
QAqlUMDYAJjBlbuDQJWjhsByaozBScemQCaQmr/wmaLBa2aZQMDnDsA57JrB2ImxQHj5kj+RBKfB
X2XIQLvNQj8OYLDBjn1KQItATsDcGo/B8r+AQPqJUUD/Y5bBB//0QPy5q0BXZ7jBAT3wQODXeUDB
JbzBOxHNQEPJuUCxELLBAqjHQN1zNUCDJpnBmHC9QHu/YUCZ5qzBKOCuQMkGJ0Dpl6PBgcXlQGvO
PUDGpbLBaOcGQTM2NkCNQqvBB1GrQLjJhsD40ZDBMPSCQKw4PUBRk6DBnVA4QAOEb0DNbJHBKQLc
QG6m1T8GIbfB5zmnQMmmQ0DGTZHB7Z7EQOh1nEBsZqnBe5DHPztXUsDSronBkd/AQJE1KMCt363B
VlPcQH6zZL/AQrrB1S+OQI4D4D4IRpnBGdczQCDrtb+cSpjBcp7VQNI9UsATmJvBdpx2QJMzn8Dv
tobBqrIIQQt8rkAcQLPBJtT4QMSRwEAZbr/BXzjWQKsKdkA5DsLBBzIHQdUFZUA+3r/BhnjSQDf8
2UC/xq7BaUqxQEhzukDUd7fBQd7aQAiB+T/FHZfBfbncQO+WbUDB05nBNWijQHQuYkDb0rLB9TwD
QUiWC0AZgKTByV8UQSbBG0Cf26/BsDkLQTzzdUAiNqjBeApUQMDxPEAAl6XBoAI5QKGzfEDdmInB
SbICQNUBeEB7qZXB

> <OMEGA_E>
5NCJPmAvyj4=

> <OMEGA_NBR>
    144266

$$$$
50220438
  -OEChem-04172616093D

 45 49  0     1  0  0  0  0  0999 V2000
    5.3077   -4.1314  -18.0721 C   0  0  0  0  0  0  0  0  0  0  0  0
    5.7061   -3.1893  -19.0258 C   0  0  0  0  0  0  0  0  0  0  0  0
    5.8674   -1.5715  -21.5718 C   0  0  0  0  0  0  0  0  0  0  0  0
    6.3874   -0.5824  -22.4126 C   0  0  0  0  0  0  0  0  0  0  0  0
    7.5807    3.8738  -23.3506 C   0  0  0  0  0  0  0  0  0  0  0  0
    7.5522    5.2481  -23.0888 C   0  0  0  0  0  0  0  0  0  0  0  0
    5.0308    0.1473  -20.0634 C   0  0  0  0  0  0  0  0  0  0  0  0
    6.0334    4.8683  -21.2264 C   0  0  0  0  0  0  0  0  0  0  0  0
    3.9909   -4.0851  -17.5712 C   0  0  0  0  0  0  0  0  0  0  0  0
    5.1991   -1.2027  -20.3912 C   0  0  0  0  0  0  0  0  0  0  0  0
    4.7767   -2.2207  -19.4421 C   0  0  0  0  0  0  0  0  0  0  0  0
    5.5771    1.1436  -20.8850 C   0  0  0  0  0  0  0  0  0  0  0  0
    6.1033    3.4845  -21.4471 C   0  0  0  0  0  0  0  0  0  0  0  0
    6.2765    0.7745  -22.0661 C   0  0  0  0  0  0  0  0  0  0  0  0
    6.8517    2.9829  -22.5452 C   0  0  0  0  0  0  0  0  0  0  0  0
    6.7529    5.7403  -22.0436 C   0  0  0  0  0  0  0  0  0  0  0  0
    3.4711   -2.2176  -18.8942 C   0  0  0  0  0  0  0  0  0  0  0  0
    4.0174    3.2394  -18.8044 C   0  0  0  0  0  0  0  0  0  0  0  0
    6.2424    2.7414  -19.0795 C   0  0  0  0  0  0  0  0  0  0  0  0
    5.5130    2.5711  -20.4135 C   0  0  2  0  0  0  0  0  0  0  0  0
    5.5721    7.5544  -22.8602 C   0  0  0  0  0  0  0  0  0  0  0  0
    3.1031   -3.1463  -17.9823 N   0  0  0  0  0  0  0  0  0  0  0  0
    4.1292    2.9552  -20.0859 N   0  3  0  0  0  0  0  0  0  0  0  0
    2.8556    3.6823  -18.1957 N   0  0  0  0  0  0  0  0  0  0  0  0
    6.9226    1.6548  -22.9080 O   0  0  0  0  0  0  0  0  0  0  0  0
    5.2122    3.0570  -18.1401 O   0  0  0  0  0  0  0  0  0  0  0  0
    6.5458    7.0764  -21.9140 O   0  0  0  0  0  0  0  0  0  0  0  0
    2.5555   -1.3030  -19.3013 F   0  0  0  0  0  0  0  0  0  0  0  0
    5.9995   -4.8842  -17.7242 H   0  0  0  0  0  0  0  0  0  0  0  0
    6.7060   -3.2058  -19.4335 H   0  0  0  0  0  0  0  0  0  0  0  0
    5.9787   -2.6147  -21.8285 H   0  0  0  0  0  0  0  0  0  0  0  0
    6.8770   -0.8632  -23.3334 H   0  0  0  0  0  0  0  0  0  0  0  0
    8.1660    3.4961  -24.1760 H   0  0  0  0  0  0  0  0  0  0  0  0
    8.1417    5.9269  -23.6872 H   0  0  0  0  0  0  0  0  0  0  0  0
    4.4793    0.4221  -19.1765 H   0  0  0  0  0  0  0  0  0  0  0  0
    5.4233    5.2579  -20.4249 H   0  0  0  0  0  0  0  0  0  0  0  0
    3.6808   -4.8171  -16.8402 H   0  0  0  0  0  0  0  0  0  0  0  0
    6.7541    1.8100  -18.7956 H   0  0  0  0  0  0  0  0  0  0  0  0
    6.9758    3.5590  -19.1401 H   0  0  0  0  0  0  0  0  0  0  0  0
    5.4305    8.6369  -22.7262 H   0  0  0  0  0  0  0  0  0  0  0  0
    5.9257    7.3547  -23.8825 H   0  0  0  0  0  0  0  0  0  0  0  0
    4.6158    7.0364  -22.6953 H   0  0  0  0  0  0  0  0  0  0  0  0
    3.3784    2.9948  -20.7452 H   0  0  0  0  0  0  0  0  0  0  0  0
    2.8517    3.8903  -17.2176 H   0  0  0  0  0  0  0  0  0  0  0  0
    2.0204    3.7941  -18.7340 H   0  0  0  0  0  0  0  0  0  0  0  0
  1  2  2  0  0  0  0
  1  9  1  0  0  0  0
  2 11  1  0  0  0  0
  3  4  2  0  0  0  0
  3 10  1  0  0  0  0
  4 14  1  0  0  0  0
  5  6  2  0  0  0  0
  5 15  1  0  0  0  0
  6 16  1  0  0  0  0
  7 10  2  0  0  0  0
  7 12  1  0  0  0  0
  8 13  1  0  0  0  0
  8 16  2  0  0  0  0
  9 22  2  0  0  0  0
 10 11  1  0  0  0  0
 11 17  2  0  0  0  0
 12 14  2  0  0  0  0
 12 20  1  0  0  0  0
 13 15  2  0  0  0  0
 13 20  1  0  0  0  0
 14 25  1  0  0  0  0
 15 25  1  0  0  0  0
 16 27  1  0  0  0  0
 17 22  1  0  0  0  0
 17 28  1  0  0  0  0
 18 23  2  0  0  0  0
 18 24  1  0  0  0  0
 18 26  1  0  0  0  0
 19 20  1  0  0  0  0
 19 26  1  0  0  0  0
 20 23  1  0  0  0  0
 21 27  1  0  0  0  0
  1 29  1  0  0  0  0
  2 30  1  0  0  0  0
  3 31  1  0  0  0  0
  4 32  1  0  0  0  0
  5 33  1  0  0  0  0
  6 34  1  0  0  0  0
  7 35  1  0  0  0  0
  8 36  1  0  0  0  0
  9 37  1  0  0  0  0
 19 38  1  0  0  0  0
 19 39  1  0  0  0  0
 21 40  1  0  0  0  0
 21 41  1  0  0  0  0
 21 42  1  0  0  0  0
 23 43  1  0  0  0  0
 24 44  1  0  0  0  0
 24 45  1  0  0  0  0
M  CHG  1  23   1
M  END
> <OMEGA_C>
X9ipQHc0hMC9k5DBK5i2QEYeTMDeNJjBm8G7QNInyb8jk6zBvWXMQGIVFb8WTbPBD5XyQNDsd0AR
zrrB4avxQFrwp0DttbjBFPygQE7NFj7wgaDBuxHBQBXJm0C8z6nBcGp/QPe4gsDVkYzBAl+mQK7y
mb9HIaPB3tqYQDYgDsBviZvBZ3eyQJphkj9xFKfB+E3DQFYCX0CTk6vB89jIQJRGRj9yh7DBQ0Hb
QD7oPkB6XLTBrRfYQNiwt0A7WbDBKideQC7tDcBOJ5fBuo6AQNZST0B1b5bBd8HHQJ9zL0DRopjB
02qwQP6MJEDTTqPBtE6yQD298UCm4bbBKJlGQLNdScDR24/BfSKEQD0iPUD8r6DBvMI2QHaqa0C8
kJHBnYXdQCbQ0z+ZQ7fBXMqmQHimQ0DvHpHB8HbRQH9x4kDHT6/BtI0jQPnJpr8FaZrBp/u/QG1L
nMASy43B3JfWQNIrTcDNd5vB01G/QKlWJ8C+oK7BeBDcQPL4XL/aqrrBwacCQey/X0BcaMHBfkQC
QVypvUB0f73BjFaPQA8f2D5gaZnB9outQHNAqEA4ZqPBiJFrQJ8lmsC2uIbBzCHYQIOv5z9SXZbB
sTnfQKnGY0DcHpnB6MatQOgwCkE3z7XBjp+9QLlZ60BRD7/BWbSTQI4q4UD8j7XBIDdYQFCqP0A3
9qXBjYE2QOz6eECPvYnBDE4BQCjTckBV35XBXS5JQJCgTMD6mI/BiGBfQGQ5DcAWApfBNTu6QCKW
yr9K0azBBQPMQFdhF78wU7PBV7zwQCCbeECKo7rBZPnrQMdiqECIBrnB/BGgQGh99z3Oh6DBnDG6
QMDBmkByfKrBudSCQJUShsC074zBqKWlQHXMnL9LOKPBqryYQLTcD8AumJvBSTGyQGs+jz8Z+abB
ieW/QLw9XUB91KvBkZ7JQL7SQT9xR7DBpY3aQPA4PkApKrTBj+LPQGGkt0Co/rDBExS2QIT0T8A8
YJjB7PWBQBh6V0AddJbBvTHIQNarMECX5JjB7V+vQMLNIkC6RaPBYhnQQMLJ/kCrxrfBLaGqQFhZ
hsDYO5HBGCeDQFCtOEDlQKDBdfk6QBQ2d0AvlpHBIJvgQDHC0T+BhbbBLSGqQFC7WEBP3ZHBBBLJ
QFJG4kDj8K7BIQLfQBzWTsB8/ZvB8HoKQJbkTMAq9ovBqoUyQAkBt78iJpnB4Ee8QN65J8DGJa/B
PqLbQFojXb+Xt7rBrckCQZZ0YUD05MDBYbX9QBG8vkDP5r3B2tuNQJEJyD4Mg5nBs9GkQFxxpkCG
W6TBww90QI/UnsDmUofBPRPTQIZp5j8ok5XBUfnjQOuBWkDDQZrBXrzJQCTxD0F1PLXB4nvxQIIN
/ED7errBY3e6QEBE9kASYr7BZjtTQB8wMUCW+6TBo5A+QDWMiECvSIrB+6sCQDdCdEBdX5XB

> <OMEGA_E>
JDTcPnQSDz8=

> <OMEGA_NBR>
    146112

$$$$
50220451
  -OEChem-04172616093D

 45 49  0     1  0  0  0  0  0999 V2000
    5.9035   -1.5918  -21.6000 C   0  0  0  0  0  0  0  0  0  0  0  0
    6.4672   -0.5936  -22.4019 C   0  0  0  0  0  0  0  0  0  0  0  0
    7.4840    3.9173  -23.3402 C   0  0  0  0  0  0  0  0  0  0  0  0
    7.2720    5.2901  -23.1560 C   0  0  0  0  0  0  0  0  0  0  0  0
    5.2571   -4.1464  -18.0614 C   0  0  0  0  0  0  0  0  0  0  0  0
    5.0178    0.1044  -20.0947 C   0  0  0  0  0  0  0  0  0  0  0  0
    5.7125    4.8170  -21.3552 C   0  0  0  0  0  0  0  0  0  0  0  0
    3.9242   -4.0805  -17.6032 C   0  0  0  0  0  0  0  0  0  0  0  0
    3.4736   -2.2254  -18.9600 C   0  0  0  0  0  0  0  0  0  0  0  0
    5.2142   -1.2380  -20.4248 C   0  0  0  0  0  0  0  0  0  0  0  0
    4.7853   -2.2547  -19.4800 C   0  0  0  0  0  0  0  0  0  0  0  0
    5.5848    1.1077  -20.8903 C   0  0  0  0  0  0  0  0  0  0  0  0
    5.9556    3.4462  -21.5034 C   0  0  0  0  0  0  0  0  0  0  0  0
    6.3533    0.7562  -22.0331 C   0  0  0  0  0  0  0  0  0  0  0  0
    6.8208    2.9845  -22.5288 C   0  0  0  0  0  0  0  0  0  0  0  0
    6.3609    5.7392  -22.1685 C   0  0  0  0  0  0  0  0  0  0  0  0
    5.6996   -3.2175  -19.0116 C   0  0  0  0  0  0  0  0  0  0  0  0
    4.0634    3.2929  -18.7905 C   0  0  0  0  0  0  0  0  0  0  0  0
    6.2692    2.7545  -19.1417 C   0  0  0  0  0  0  0  0  0  0  0  0
    5.4746    2.5276  -20.4256 C   0  0  2  0  0  0  0  0  0  0  0  0
    6.3180    7.9629  -23.0158 C   0  0  0  0  0  0  0  0  0  0  0  0
    3.0633   -3.1322  -18.0468 N   0  0  0  0  0  0  0  0  0  0  0  0
    4.0920    2.8454  -20.0281 N   0  3  0  0  0  0  0  0  0  0  0  0
    2.9436    3.8312  -18.1807 N   0  0  0  0  0  0  0  0  0  0  0  0
    7.0685    1.6541  -22.8005 O   0  0  0  0  0  0  0  0  0  0  0  0
    5.2956    3.1738  -18.1820 O   0  0  0  0  0  0  0  0  0  0  0  0
    6.0880    7.0625  -21.9221 O   0  0  0  0  0  0  0  0  0  0  0  0
    6.9952   -3.2192  -19.4141 F   0  0  0  0  0  0  0  0  0  0  0  0
    5.9970   -2.6302  -21.8815 H   0  0  0  0  0  0  0  0  0  0  0  0
    6.9913   -0.8622  -23.3072 H   0  0  0  0  0  0  0  0  0  0  0  0
    8.1605    3.5760  -24.1098 H   0  0  0  0  0  0  0  0  0  0  0  0
    7.8030    6.0054  -23.7665 H   0  0  0  0  0  0  0  0  0  0  0  0
    5.9279   -4.9039  -17.6840 H   0  0  0  0  0  0  0  0  0  0  0  0
    4.4301    0.3683  -19.2279 H   0  0  0  0  0  0  0  0  0  0  0  0
    5.0166    5.1602  -20.6039 H   0  0  0  0  0  0  0  0  0  0  0  0
    3.5808   -4.8050  -16.8796 H   0  0  0  0  0  0  0  0  0  0  0  0
    2.7858   -1.4645  -19.2982 H   0  0  0  0  0  0  0  0  0  0  0  0
    6.7573    1.8235  -18.8179 H   0  0  0  0  0  0  0  0  0  0  0  0
    7.0299    3.5353  -19.2892 H   0  0  0  0  0  0  0  0  0  0  0  0
    6.0675    8.9882  -22.7062 H   0  0  0  0  0  0  0  0  0  0  0  0
    7.3766    7.9176  -23.3114 H   0  0  0  0  0  0  0  0  0  0  0  0
    5.6865    7.6728  -23.8684 H   0  0  0  0  0  0  0  0  0  0  0  0
    3.2897    2.7366  -20.6149 H   0  0  0  0  0  0  0  0  0  0  0  0
    2.9983    4.1641  -17.2393 H   0  0  0  0  0  0  0  0  0  0  0  0
    2.0799    3.8873  -18.6815 H   0  0  0  0  0  0  0  0  0  0  0  0
  1  2  2  0  0  0  0
  1 10  1  0  0  0  0
  2 14  1  0  0  0  0
  3  4  2  0  0  0  0
  3 15  1  0  0  0  0
  4 16  1  0  0  0  0
  5  8  2  0  0  0  0
  5 17  1  0  0  0  0
  6 10  2  0  0  0  0
  6 12  1  0  0  0  0
  7 13  1  0  0  0  0
  7 16  2  0  0  0  0
  8 22  1  0  0  0  0
  9 11  1  0  0  0  0
  9 22  2  0  0  0  0
 10 11  1  0  0  0  0
 11 17  2  0  0  0  0
 12 14  2  0  0  0  0
 12 20  1  0  0  0  0
 13 15  2  0  0  0  0
 13 20  1  0  0  0  0
 14 25  1  0  0  0  0
 15 25  1  0  0  0  0
 16 27  1  0  0  0  0
 17 28  1  0  0  0  0
 18 23  2  0  0  0  0
 18 24  1  0  0  0  0
 18 26  1  0  0  0  0
 19 20  1  0  0  0  0
 19 26  1  0  0  0  0
 20 23  1  0  0  0  0
 21 27  1  0  0  0  0
  1 29  1  0  0  0  0
  2 30  1  0  0  0  0
  3 31  1  0  0  0  0
  4 32  1  0  0  0  0
  5 33  1  0  0  0  0
  6 34  1  0  0  0  0
  7 35  1  0  0  0  0
  8 36  1  0  0  0  0
  9 37  1  0  0  0  0
 19 38  1  0  0  0  0
 19 39  1  0  0  0  0
 21 40  1  0  0  0  0
 21 41  1  0  0  0  0
 21 42  1  0  0  0  0
 23 43  1  0  0  0  0
 24 44  1  0  0  0  0
 24 45  1  0  0  0  0
M  CHG  1  23   1
M  END
> <OMEGA_C>
zum8QFK/y7+/zKzBOfPOQE74F78qN7PBEX3vQDq1ekDGuLrBZbToQDRIqUCIP7nByjmoQAevhMC8
fZDB25GgQLzW1T0GwqDBm8y2QAIlmkBh16rB4yZ7QCeTgsBT04zB/U9eQFpsDsAdrpfBbdqmQIx3
nr8OZqPBVyGZQM1NEMD01pvBeLayQKTIjT9fH6fBf5S+QEqPXEAPB6zBfE7LQOyWQT+4Q7DBJkTa
QDsBP0DqOrTBLIzLQC2nt0AqWbHBGmO2QATrTcC4F5jBUgeCQEu/UkABU5bBV53IQAlKMEBHIpnB
hC+vQGTEIUCIZ6PBZy3KQNrP/kBJILjBhgxEQIN1SMDdX5DBBfKCQDobNkCKOaDBnmQ8QOoydUAk
cpHBJjHiQCC70z98Z7bBdnWpQEEfS0CwdJHBsdDCQCUA4kB/YK/B7tjfQCAHTsAYUJvBnOe/QJtV
KMBqDa/B7LjfQO62XL86dbrBhZECQf3cZEDY4MDB8LH5QIgswEDgIb7BXrG9QCDtnMDOeI3BRsON
QLyXvD7V0pnBAoigQLAgpUDY1KTBfCxlQFXCmcBzCYfBREsyQIVzu7++YprBJjzYQGRn6T8Si5bB
H/XgQOBBYkA8UJrB6SjCQNTPD0E9prXBNQ3sQLpc/UCrfbrB6/e1QHuH9UCG8r7BsYlSQD8lL0BS
66TBoOQ/QFNAhUAv6onB3hwFQLbJeEC/c5XB6fq5QA6gy793wazBKRfMQL7bGb9yNrPB7A/xQIW4
d0DugLrBRx/sQH32p0A4+bjBX4BOQFrQUsCaUY/B3ZWeQOR67z39qqDBQ525QESQmkCzk6rBPUCH
QDTqh8BNAI3B1fK2QCxbT8Bm75jBzUKkQMaMnb+pVKPBT1SYQP+mEMCjrZvB/iaxQAKNjj/RC6fB
ZXK/QKPGXECM2KvBGlHJQJ6XPz8aObDBc5baQOyMPUB8EbTBW5LPQL5dt0C+D7HB6KpfQGupEcCZ
upbBQOyBQNjQWECSd5bBdMTHQPlsL0Dr8JjBB7muQEBoIkAvTKPBwD/RQEKX/kCy1rfBLDGuQFaY
hsCsvJHBqaiCQB0COUBSOKDBXpw7QJdrekBfoJHBpubgQDhO0D8sWLbBCRmqQFk3WEA84JHBi4jI
QFAO4kCeGK/BzIIiQCF0rr/xLZnBtaa8QF1aKMAq/67B9ETcQEgVYL94hrrBhSMDQa9eYEABq8DB
shL+QGY6vkDq0r3BlegQQP1HVsADbIvBAvaLQCLYxj6quJnBie+jQKFXpkDVhqTB7HyAQHb6oMA1
TIfByRLWQKbCTcBnr5zBdUPSQIU54z+NpZXBatHjQK9/WEAYUprBSIbKQCDZD0GbXbXBbBXzQI7E
+0AxKbrBS9G8QKYn9kDpr77Bid1RQBFKMUD54KTBNrw/QEQ0ikB6VYrBDkwDQBa2eED0a5XB

> <OMEGA_E>
AAvpPnCZCT8=

> <OMEGA_NBR>
    147958

$$$$
50249225
  -OEChem-04172616093D

 47 51  0     1  0  0  0  0  0999 V2000
    5.9446   -1.6029  -21.4924 C   0  0  0  0  0  0  0  0  0  0  0  0
    6.4481   -0.6145  -22.3526 C   0  0  0  0  0  0  0  0  0  0  0  0
    5.0333    0.1229  -20.0340 C   0  0  0  0  0  0  0  0  0  0  0  0
    5.6397   -3.3178  -19.0107 C   0  0  0  0  0  0  0  0  0  0  0  0
    3.4814   -2.2376  -18.8435 C   0  0  0  0  0  0  0  0  0  0  0  0
    3.9606   -4.1841  -17.6386 C   0  0  0  0  0  0  0  0  0  0  0  0
    5.2377   -1.2372  -20.3296 C   0  0  0  0  0  0  0  0  0  0  0  0
    4.7776   -2.2718  -19.3935 C   0  0  0  0  0  0  0  0  0  0  0  0
    5.5757    1.1247  -20.8699 C   0  0  0  0  0  0  0  0  0  0  0  0
    6.2953    0.7476  -22.0388 C   0  0  0  0  0  0  0  0  0  0  0  0
    4.0341    3.2848  -18.8076 C   0  0  0  0  0  0  0  0  0  0  0  0
    7.5881    5.3902  -23.0586 C   0  0  0  0  0  0  0  0  0  0  0  0
    7.4635    3.9233  -23.5271 C   0  0  0  0  0  0  0  0  0  0  0  0
    6.3477    5.8017  -22.2399 C   0  0  0  0  0  0  0  0  0  0  0  0
    6.2519    2.8207  -19.1371 C   0  0  0  0  0  0  0  0  0  0  0  0
    5.9117    3.5122  -21.6019 C   0  0  2  0  0  0  0  0  0  0  0  0
    5.4762    2.5840  -20.4402 C   0  0  1  0  0  0  0  0  0  0  0  0
    7.1707    2.9727  -22.3381 C   0  0  2  0  0  0  0  0  0  0  0  0
    8.4362    2.8753  -21.4340 C   0  0  0  0  0  0  0  0  0  0  0  0
    5.2222   -4.2526  -18.1323 N   0  0  0  0  0  0  0  0  0  0  0  0
    3.0887   -3.2024  -17.9834 N   0  0  0  0  0  0  0  0  0  0  0  0
    4.1001    2.9078  -20.0633 N   0  3  0  0  0  0  0  0  0  0  0  0
    2.8807    3.7541  -18.2068 N   0  0  0  0  0  0  0  0  0  0  0  0
    6.8833    1.6671  -22.8919 O   0  0  0  0  0  0  0  0  0  0  0  0
    5.2472    3.1352  -18.1716 O   0  0  0  0  0  0  0  0  0  0  0  0
    6.1246    4.8740  -21.1576 O   0  0  0  0  0  0  0  0  0  0  0  0
    6.0994   -2.6466  -21.7225 H   0  0  0  0  0  0  0  0  0  0  0  0
    6.9561   -0.9021  -23.2612 H   0  0  0  0  0  0  0  0  0  0  0  0
    4.4586    0.4029  -19.1635 H   0  0  0  0  0  0  0  0  0  0  0  0
    6.6371   -3.3716  -19.4214 H   0  0  0  0  0  0  0  0  0  0  0  0
    2.8023   -1.4409  -19.1090 H   0  0  0  0  0  0  0  0  0  0  0  0
    3.6362   -4.9427  -16.9416 H   0  0  0  0  0  0  0  0  0  0  0  0
    8.4864    5.4955  -22.4326 H   0  0  0  0  0  0  0  0  0  0  0  0
    7.6752    6.0452  -23.9380 H   0  0  0  0  0  0  0  0  0  0  0  0
    6.6426    3.8488  -24.2555 H   0  0  0  0  0  0  0  0  0  0  0  0
    8.4065    3.6189  -24.0049 H   0  0  0  0  0  0  0  0  0  0  0  0
    6.5049    6.8089  -21.8266 H   0  0  0  0  0  0  0  0  0  0  0  0
    5.4661    5.8088  -22.8978 H   0  0  0  0  0  0  0  0  0  0  0  0
    6.8029    1.9151  -18.8432 H   0  0  0  0  0  0  0  0  0  0  0  0
    6.9564    3.6578  -19.2512 H   0  0  0  0  0  0  0  0  0  0  0  0
    5.0909    3.5152  -22.3341 H   0  0  0  0  0  0  0  0  0  0  0  0
    8.2326    2.2014  -20.5887 H   0  0  0  0  0  0  0  0  0  0  0  0
    9.2778    2.4811  -22.0226 H   0  0  0  0  0  0  0  0  0  0  0  0
    8.6920    3.8748  -21.0525 H   0  0  0  0  0  0  0  0  0  0  0  0
    3.3148    2.8497  -20.6797 H   0  0  0  0  0  0  0  0  0  0  0  0
    2.8900    4.0136  -17.2411 H   0  0  0  0  0  0  0  0  0  0  0  0
    2.0373    3.8340  -18.7380 H   0  0  0  0  0  0  0  0  0  0  0  0
  1  2  2  0  0  0  0
  1  7  1  0  0  0  0
  2 10  1  0  0  0  0
  3  7  2  0  0  0  0
  3  9  1  0  0  0  0
  4  8  1  0  0  0  0
  4 20  2  0  0  0  0
  5  8  2  0  0  0  0
  5 21  1  0  0  0  0
  6 20  1  0  0  0  0
  6 21  2  0  0  0  0
  7  8  1  0  0  0  0
  9 10  2  0  0  0  0
  9 17  1  0  0  0  0
 10 24  1  0  0  0  0
 11 22  2  0  0  0  0
 11 23  1  0  0  0  0
 11 25  1  0  0  0  0
 12 13  1  0  0  0  0
 12 14  1  0  0  0  0
 13 18  1  0  0  0  0
 14 26  1  0  0  0  0
 15 17  1  0  0  0  0
 15 25  1  0  0  0  0
 16 17  1  0  0  0  0
 16 18  1  0  0  0  0
 16 26  1  0  0  0  0
 17 22  1  0  0  0  0
 18 19  1  0  0  0  0
 18 24  1  0  0  0  0
  1 27  1  0  0  0  0
  2 28  1  0  0  0  0
  3 29  1  0  0  0  0
  4 30  1  0  0  0  0
  5 31  1  0  0  0  0
  6 32  1  0  0  0  0
 12 33  1  0  0  0  0
 12 34  1  0  0  0  0
 13 35  1  0  0  0  0
 13 36  1  0  0  0  0
 14 37  1  0  0  0  0
 14 38  1  0  0  0  0
 15 39  1  0  0  0  0
 15 40  1  0  0  0  0
 16 41  1  0  0  0  0
 19 42  1  0  0  0  0
 19 43  1  0  0  0  0
 19 44  1  0  0  0  0
 22 45  1  0  0  0  0
 23 46  1  0  0  0  0
 23 47  1  0  0  0  0
M  CHG  1  22   1
M  END
> <OMEGA_C>
xDm+QGcqzb+B8KvBqFbOQKJRHb8H0rLBahChQJ7D+z22RaDBKni0QJFXVMDvFZjBBc9eQOg0D8Bp
v5bBM3t9QHLkhcDEG43B2pqnQEJbnr/+oqLBOOKYQFdlEcDfJZvBFmyyQOD0jz+D9abBDnPJQP5j
Pz9vT7DBqBeBQO86UkDldZbBgtHyQN98rEDzd7jBQNXuQMwXe0CRN7zBaCDLQD2nuUBq67HBgA/I
QF+GNEDLGJnBDC29QIvHYECk0KzBPj2vQFVgJUCDhaPBUHblQIFAPkB1tLLBy/oGQfgEOEDEeKvB
UBynQBEViMAHD5HBGK1FQG70TMAY3o/BsDODQK8ZOkCdgaDBJl44QGdDcECdp5HBzkPcQC5j1T+r
IrfByuinQF+nSEB4X5HBdPzDQCf4m0CuQqnB7i3DQJdiKcDAx63BepjeQBrxZr/iFrrB0KyOQFxL
zj7sTpnBGGPUQA3JV8D4XpvBLVgzQLhwuL8735jBL7doQHEqnsBsiIfBaMgHQffar0DidbPBS5v1
QHhywUAJgb/BjJDUQAxSdkBbC8LB1oAGQb6cZ0ABCsDB1ifQQCni2UDcnK7Bp+quQF/huUC+LrfB
RbHZQEcj9T/zvpbB3JreQKMYakBcAprBlOiiQPf4YEBHrLLB67gDQVfkDECutaTBsXEUQWPKHkAy
LrDBTBILQXr9d0CJa6jB1yVUQJhhNkAYcKXBL/U4QKlvgEDf7YnBlmICQKNgdUB755XB

> <OMEGA_E>
QJWePg==

> <OMEGA_NBR>
    149056

$$$$
50249255
  -OEChem-04172616093D

 49 53  0     1  0  0  0  0  0999 V2000
    6.0012   -1.6031  -21.5227 C   0  0  0  0  0  0  0  0  0  0  0  0
    6.4931   -0.6044  -22.3762 C   0  0  0  0  0  0  0  0  0  0  0  0
    5.0977    0.1077  -20.0393 C   0  0  0  0  0  0  0  0  0  0  0  0
    3.4936   -2.2225  -18.9669 C   0  0  0  0  0  0  0  0  0  0  0  0
    5.7122   -3.2483  -18.9547 C   0  0  0  0  0  0  0  0  0  0  0  0
    3.9441   -4.1410  -17.5328 C   0  0  0  0  0  0  0  0  0  0  0  0
    5.3018   -1.2435  -20.3555 C   0  0  0  0  0  0  0  0  0  0  0  0
    4.8237   -2.2646  -19.4321 C   0  0  0  0  0  0  0  0  0  0  0  0
    5.6169    1.1163  -20.8696 C   0  0  0  0  0  0  0  0  0  0  0  0
    6.3291    0.7537  -22.0477 C   0  0  0  0  0  0  0  0  0  0  0  0
    3.0504   -3.1710  -18.0305 C   0  0  0  0  0  0  0  0  0  0  0  0
    5.2769   -4.1729  -17.9906 C   0  0  0  0  0  0  0  0  0  0  0  0
    4.0576    3.3119  -18.8048 C   0  0  0  0  0  0  0  0  0  0  0  0
    7.5177    5.4100  -23.0644 C   0  0  0  0  0  0  0  0  0  0  0  0
    7.4179    3.9425  -23.5307 C   0  0  0  0  0  0  0  0  0  0  0  0
    6.2764    5.7989  -22.2355 C   0  0  0  0  0  0  0  0  0  0  0  0
    6.2667    2.8142  -19.1287 C   0  0  0  0  0  0  0  0  0  0  0  0
    5.8904    3.5041  -21.5916 C   0  0  2  0  0  0  0  0  0  0  0  0
    5.4862    2.5666  -20.4279 C   0  0  1  0  0  0  0  0  0  0  0  0
    7.1558    2.9910  -22.3385 C   0  0  2  0  0  0  0  0  0  0  0  0
    8.4292    2.9182  -21.4426 C   0  0  0  0  0  0  0  0  0  0  0  0
    4.1042    2.8560  -20.0353 N   0  3  0  0  0  0  0  0  0  0  0  0
    2.9230    3.8536  -18.2277 N   0  0  0  0  0  0  0  0  0  0  0  0
    6.8963    1.6843  -22.8969 O   0  0  0  0  0  0  0  0  0  0  0  0
    5.2656    3.1458  -18.1640 O   0  0  0  0  0  0  0  0  0  0  0  0
    6.0777    4.8691  -21.1498 O   0  0  0  0  0  0  0  0  0  0  0  0
    1.7692   -3.1417  -17.6024 F   0  0  0  0  0  0  0  0  0  0  0  0
    6.3989   -5.3403  -17.3460 Cl  0  0  0  0  0  0  0  0  0  0  0  0
    6.1588   -2.6448  -21.7605 H   0  0  0  0  0  0  0  0  0  0  0  0
    6.9999   -0.8792  -23.2895 H   0  0  0  0  0  0  0  0  0  0  0  0
    4.5394    0.3744  -19.1542 H   0  0  0  0  0  0  0  0  0  0  0  0
    2.8171   -1.4629  -19.3296 H   0  0  0  0  0  0  0  0  0  0  0  0
    6.7245   -3.2914  -19.3286 H   0  0  0  0  0  0  0  0  0  0  0  0
    3.6075   -4.8599  -16.8005 H   0  0  0  0  0  0  0  0  0  0  0  0
    8.4190    5.5329  -22.4460 H   0  0  0  0  0  0  0  0  0  0  0  0
    7.5850    6.0658  -23.9450 H   0  0  0  0  0  0  0  0  0  0  0  0
    6.5916    3.8507  -24.2510 H   0  0  0  0  0  0  0  0  0  0  0  0
    8.3620    3.6560  -24.0172 H   0  0  0  0  0  0  0  0  0  0  0  0
    6.4184    6.8093  -21.8245 H   0  0  0  0  0  0  0  0  0  0  0  0
    5.3897    5.7891  -22.8864 H   0  0  0  0  0  0  0  0  0  0  0  0
    6.8133    1.9091  -18.8256 H   0  0  0  0  0  0  0  0  0  0  0  0
    6.9755    3.6460  -19.2541 H   0  0  0  0  0  0  0  0  0  0  0  0
    5.0638    3.4889  -22.3173 H   0  0  0  0  0  0  0  0  0  0  0  0
    8.2437    2.2420  -20.5950 H   0  0  0  0  0  0  0  0  0  0  0  0
    9.2739    2.5385  -22.0363 H   0  0  0  0  0  0  0  0  0  0  0  0
    8.6692    3.9228  -21.0643 H   0  0  0  0  0  0  0  0  0  0  0  0
    3.3064    2.7243  -20.6236 H   0  0  0  0  0  0  0  0  0  0  0  0
    2.9433    4.1587  -17.2756 H   0  0  0  0  0  0  0  0  0  0  0  0
    2.0826    3.9400  -18.7627 H   0  0  0  0  0  0  0  0  0  0  0  0
  1  2  2  0  0  0  0
  1  7  1  0  0  0  0
  2 10  1  0  0  0  0
  3  7  2  0  0  0  0
  3  9  1  0  0  0  0
  4  8  1  0  0  0  0
  4 11  2  0  0  0  0
  5  8  2  0  0  0  0
  5 12  1  0  0  0  0
  6 11  1  0  0  0  0
  6 12  2  0  0  0  0
  7  8  1  0  0  0  0
  9 10  2  0  0  0  0
  9 19  1  0  0  0  0
 10 24  1  0  0  0  0
 11 27  1  0  0  0  0
 12 28  1  0  0  0  0
 13 22  2  0  0  0  0
 13 23  1  0  0  0  0
 13 25  1  0  0  0  0
 14 15  1  0  0  0  0
 14 16  1  0  0  0  0
 15 20  1  0  0  0  0
 16 26  1  0  0  0  0
 17 19  1  0  0  0  0
 17 25  1  0  0  0  0
 18 19  1  0  0  0  0
 18 20  1  0  0  0  0
 18 26  1  0  0  0  0
 19 22  1  0  0  0  0
 20 21  1  0  0  0  0
 20 24  1  0  0  0  0
  1 29  1  0  0  0  0
  2 30  1  0  0  0  0
  3 31  1  0  0  0  0
  4 32  1  0  0  0  0
  5 33  1  0  0  0  0
  6 34  1  0  0  0  0
 14 35  1  0  0  0  0
 14 36  1  0  0  0  0
 15 37  1  0  0  0  0
 15 38  1  0  0  0  0
 16 39  1  0  0  0  0
 16 40  1  0  0  0  0
 17 41  1  0  0  0  0
 17 42  1  0  0  0  0
 18 43  1  0  0  0  0
 21 44  1  0  0  0  0
 21 45  1  0  0  0  0
 21 46  1  0  0  0  0
 22 47  1  0  0  0  0
 23 48  1  0  0  0  0
 23 49  1  0  0  0  0
M  CHG  1  22   1
M  END
> <OMEGA_C>
7QnAQK0zzb93LqzBcMfPQFi3Gr+IArPBsCCjQFSR3D2RUKDB7JdfQD0+DsAzvJfBPMq2QOXjT8BF
o5fBt2t8QLKChMBAQ4zBF6ipQEoqn7/+16LBBFyaQLbvEMDudJvBl72zQKvijj/t9KbBBYjKQGTy
QD+pYbDBezlDQDfySsB4PpDBRtyoQHSIhcC77I/BC9iBQJb2U0AmcJbBupDwQKUerUD6g7jBhF/t
QEVSfEDsPrzBDtjIQEiQuUBZ4rHBgojIQKscNECSB5nB0H28QEtDYECwu6zBjo6vQEpDJEBGbKPB
tvzkQHtsP0A9tbLBKd4GQVDDOkBriqvBo1WDQJ3INkA7SKDBeBI7QBWhdkBT0pHBF67cQLGY1z/r
LLfBb3+oQAJUSUDRT5HB6XzCQHzPm0DCMqnB4nPiP+4RScCx0YzB+sPMQBvkqsCyxIrBexTFQDNE
KcB9Fa7BzP7fQDUTYb/oULrBXEKRQLuwvz7MO5nBjUs0QNg+u78Mo5rB5C7XQA+nUsAMoZrBweBm
QAKEm8CAZ4bBPLQGQRwNsUBckbPBFbjyQGYbwkBLj7/Bk+7SQCJxdkARAsLBn8oFQT/8aUBAI8DB
ZWPNQI7l2UComK7BJnisQPE/uUBdF7fB3AbaQHJd9D/fmpbBkTffQKpXaUB7CJrB0wqiQO9KX0Dg
ibLBJ+YDQX19D0CNwqTBv2EUQYV2IkBCSrDBGLUKQYQPe0C4g6jBm5tTQJ1bLkAi/aTBWV48QMET
hUBmNIrB0UgFQLcpfEDzGZbBri3AQCOGzb/JJ6zBCj/PQOr4Gr9KEbPBBGujQKpo0j3MPaDBbry3
QFisUMD3lJfB4IxhQMzhDsAWlJfBVeV9QByzhcDbY4zB6j6qQOa3n79QvqLBuU+bQENEEcD7TpvB
5YKzQP1zjj+h8abBZNPJQPqOQD81cbDBc7GpQFNvhsCF/Y/BiOZEQH66TMDSQpDBKoeBQPi3VEB1
f5bBirDxQDnGrEAeTLjB473tQMgXfEAUJrzBhB3KQK6UuUCPqLHBQS3IQBqdM0Cq85jBcpu8QIhb
YEBKp6zBOGSvQNIRJEArY6PBksvkQNy/PkCjsLLBUcEGQRH0N0D/hqvBlCKDQECtNkCzTKDB93k6
QE9eeEBt/pHBWZrbQBfL1z/+QrfBTxioQNtxSkDoUJHBR0PDQJenm0AICanBN1TFQHHZo8COG4zB
PCm1P4yjS8A5DIzBqmPFQAlkKcCiDK7B6xDfQDPtYL97brrB1rWRQG88vD58IZnBXC3YQHgCU8DZ
i5rB3Xc2QOMhu78LWJrBxBFoQE4pncCmqYbBtkUHQRUFsEC0UrPBukL0QPADwkD4SL/BFkrTQBaP
d0BC7cHBrugFQRURaUC7DcDBihvPQCe92UD4Ta7BmcatQKTYuUCs4LbB+g7ZQJpk8j/GcJbBK2Df
QLTyZ0C09JnBlROiQF97YEDVb7LB+ZQDQYNaDEB/zaTBAScUQfQHH0AVT7DBweUKQQayd0Afa6jB
H1BTQLO6LUBCAqXBO6Q7QIZ8hkDTa4rBJNcEQGiJfUB0T5bB

> <OMEGA_E>
oCi0PuDRtT4=

> <OMEGA_NBR>
    151025

$$$$
50225109
  -OEChem-04172616093D

 45 48  0     1  0  0  0  0  0999 V2000
    5.2294   -4.2988  -18.0252 C   0  0  0  0  0  0  0  0  0  0  0  0
    5.6769   -3.3859  -18.9920 C   0  0  0  0  0  0  0  0  0  0  0  0
    6.1898   -1.6333  -21.4252 C   0  0  0  0  0  0  0  0  0  0  0  0
    6.8300   -0.5752  -22.1034 C   0  0  0  0  0  0  0  0  0  0  0  0
    4.9363   -0.0199  -20.1108 C   0  0  0  0  0  0  0  0  0  0  0  0
    3.9010   -4.2189  -17.5627 C   0  0  0  0  0  0  0  0  0  0  0  0
    5.2760   -1.3521  -20.3843 C   0  0  0  0  0  0  0  0  0  0  0  0
    4.7835   -2.4066  -19.4698 C   0  0  0  0  0  0  0  0  0  0  0  0
    6.5217    0.7621  -21.7758 C   0  0  0  0  0  0  0  0  0  0  0  0
    5.4817    1.0379  -20.8593 C   0  0  0  0  0  0  0  0  0  0  0  0
    3.4519   -2.3903  -18.9641 C   0  0  0  0  0  0  0  0  0  0  0  0
    5.7349    3.7240  -18.6816 C   0  0  0  0  0  0  0  0  0  0  0  0
    7.4581    1.8944  -22.1944 C   0  0  0  0  0  0  0  0  0  0  0  0
    5.3805    3.3957  -21.7254 C   0  0  0  0  0  0  0  0  0  0  0  0
    3.9381    2.7913  -19.7365 C   0  0  0  0  0  0  0  0  0  0  0  0
    5.2565    2.4807  -20.4669 C   0  0  1  0  0  0  0  0  0  0  0  0
    6.6783    3.1854  -22.5848 C   0  0  0  0  0  0  0  0  0  0  0  0
    7.5974    4.4280  -22.4484 C   0  0  0  0  0  0  0  0  0  0  0  0
    6.2815    3.0576  -24.0731 C   0  0  0  0  0  0  0  0  0  0  0  0
    3.0426   -3.2845  -18.0335 N   0  0  0  0  0  0  0  0  0  0  0  0
    6.2430    2.8124  -19.4636 N   0  3  0  0  0  0  0  0  0  0  0  0
    6.5410    4.6531  -18.0635 N   0  0  0  0  0  0  0  0  0  0  0  0
    4.3508    3.7057  -18.7145 O   0  0  0  0  0  0  0  0  0  0  0  0
    2.5441   -1.4936  -19.4229 F   0  0  0  0  0  0  0  0  0  0  0  0
    5.8966   -5.0554  -17.6394 H   0  0  0  0  0  0  0  0  0  0  0  0
    6.6897   -3.4331  -19.3640 H   0  0  0  0  0  0  0  0  0  0  0  0
    6.3976   -2.6567  -21.7008 H   0  0  0  0  0  0  0  0  0  0  0  0
    7.5563   -0.7886  -22.8737 H   0  0  0  0  0  0  0  0  0  0  0  0
    4.2437    0.1977  -19.3112 H   0  0  0  0  0  0  0  0  0  0  0  0
    3.5598   -4.9196  -16.8150 H   0  0  0  0  0  0  0  0  0  0  0  0
    8.1311    2.1264  -21.3558 H   0  0  0  0  0  0  0  0  0  0  0  0
    8.0511    1.5628  -23.0595 H   0  0  0  0  0  0  0  0  0  0  0  0
    4.5109    3.2043  -22.3713 H   0  0  0  0  0  0  0  0  0  0  0  0
    5.3630    4.4423  -21.3874 H   0  0  0  0  0  0  0  0  0  0  0  0
    3.2092    3.2582  -20.4153 H   0  0  0  0  0  0  0  0  0  0  0  0
    3.5020    1.8803  -19.3008 H   0  0  0  0  0  0  0  0  0  0  0  0
    7.0360    5.3322  -22.7265 H   0  0  0  0  0  0  0  0  0  0  0  0
    7.9422    4.5163  -21.4076 H   0  0  0  0  0  0  0  0  0  0  0  0
    8.4658    4.3164  -23.1142 H   0  0  0  0  0  0  0  0  0  0  0  0
    5.7271    3.9555  -24.3836 H   0  0  0  0  0  0  0  0  0  0  0  0
    7.1886    2.9564  -24.6869 H   0  0  0  0  0  0  0  0  0  0  0  0
    5.6464    2.1697  -24.2081 H   0  0  0  0  0  0  0  0  0  0  0  0
    7.1560    2.4124  -19.3832 H   0  0  0  0  0  0  0  0  0  0  0  0
    6.1318    5.4202  -17.5694 H   0  0  0  0  0  0  0  0  0  0  0  0
    7.5357    4.5610  -18.1086 H   0  0  0  0  0  0  0  0  0  0  0  0
  1  2  2  0  0  0  0
  1  6  1  0  0  0  0
  2  8  1  0  0  0  0
  3  4  2  0  0  0  0
  3  7  1  0  0  0  0
  4  9  1  0  0  0  0
  5  7  2  0  0  0  0
  5 10  1  0  0  0  0
  6 20  2  0  0  0  0
  7  8  1  0  0  0  0
  8 11  2  0  0  0  0
  9 10  2  0  0  0  0
  9 13  1  0  0  0  0
 10 16  1  0  0  0  0
 11 20  1  0  0  0  0
 11 24  1  0  0  0  0
 12 21  2  0  0  0  0
 12 22  1  0  0  0  0
 12 23  1  0  0  0  0
 13 17  1  0  0  0  0
 14 16  1  0  0  0  0
 14 17  1  0  0  0  0
 15 16  1  0  0  0  0
 15 23  1  0  0  0  0
 16 21  1  0  0  0  0
 17 18  1  0  0  0  0
 17 19  1  0  0  0  0
  1 25  1  0  0  0  0
  2 26  1  0  0  0  0
  3 27  1  0  0  0  0
  4 28  1  0  0  0  0
  5 29  1  0  0  0  0
  6 30  1  0  0  0  0
 13 31  1  0  0  0  0
 13 32  1  0  0  0  0
 14 33  1  0  0  0  0
 14 34  1  0  0  0  0
 15 35  1  0  0  0  0
 15 36  1  0  0  0  0
 18 37  1  0  0  0  0
 18 38  1  0  0  0  0
 18 39  1  0  0  0  0
 19 40  1  0  0  0  0
 19 41  1  0  0  0  0
 19 42  1  0  0  0  0
 21 43  1  0  0  0  0
 22 44  1  0  0  0  0
 22 45  1  0  0  0  0
M  CHG  1  21   1
M  END
> <OMEGA_C>
61anQAWQicCmM5DB/qi1QF2zWMCQ75fBPhPGQNQQ0b/iZqvBLY/aQCc/E7/V07DBLPadQCAno7za
4qDB0ql5QEUBh8BZgIzBudSoQPIQrb8LE6PBGBKZQHcFGsAWwpvBxbHQQFoWQz/cNK7BJ2qvQEzZ
hD/x36bBputcQC/7GMBxtpfBkIS3QLlWbkDzc5XBq6juQKZ68j8RjrHB6CysQGZSWUCuza3BGgl8
QHmlMkBH5J3BpDWoQBDDHkA1vKPB1bTVQEfdS0C1rbTBpR3zQCuyjUBQlrPB1QHJQImwQ0CelcDB
orlCQO00UsCXRJDBT8bHQCT+M0CAtZvBsE/RQIbmlEAGgpDBljmLQP8pbUBDt5XBPNIiQNIvv78E
YpvBqLC8QLHFocB2HY3BBhLWQBy3W8Bl6ZrBWrnMQD4HKsBMm63BD83xQMbjSb9a/bbBO8yHQMRw
Sj5SfZrBO9NjQENtncAehYbB+BgCQRkXCECn2KrBMNEAQTgKyD/YebjB81iQQOQTTUBu+LLBT52r
QBgnjkBWGavBT2RNQKeGUECdUqPB6SBgQD6t8D/7Z5rBKSfhQDqhqkDqz7XBzSb+QNCFkEDBQqvB
EnQHQUsgikDq6bjBCkS3QFknfUCdEcPBQQnmQEE2PUDNfsXBKa+0QMjcCkBGqsHBoP3kQFZlGkDU
EJvBoDfEQHdyrUATjozBdSTxQJDzkUBd3pDBENxCQB79UsCpQ5DB/kRcQLqkF8CxDZjBDajEQLu+
0L8st6vBd83ZQLhIE78t+bDBLhmcQICQpLzxP6HBRql+QJ6Kh8CdcYzBZ8enQLfrrL/uTqPBlZ+Y
QDa+GcAF35vBM7vQQHZnQj8cKK7BOryuQIo+hT/PCafBPyu1QHrAV8C4lpfBlM+1QLqrakD3DJXB
OyvwQByj7z97C7HBp2uuQGCfWkBFua3BNHp6QB4ONEAjYZ7B0CGoQFQQH0Ddz6PBwPfYQDZXTED+
LLTBUz33QHHzjEAjgLLBBGTOQJ5RR0DvPMDB/BuoQN9aiMBOGJDBYa3GQJjwMUDQcJvBaw7PQKHj
kUCKh4/Bo56JQJrJakB1upXBDf3eQL5IWMAab5rBAyYCQI6eUsByOo3Bd3EvQFvy0b8FF5vBJ3/K
QKvDKcCTGq7BMPPwQGLZSb+LKLfBlI6EQMFhRj7xKJvBXgNrQHR3nsCHdobBknQCQVZRBEDVG6rB
meoBQWwlxT/q17fBgGaTQKoTUEAeNbPB1QiuQDKmjkCu5qrBxSNPQAtjVUBe7KPBRUBbQGdL8z9r
ZZvBOoLmQKuZqkCzvLTBc2kAQTGkjkAnC6rBMO4JQZkaiUA2iLfBxem9QPkfgUC+usLBIDTsQMI1
QEDb1MTB2oe5QIDmD0B3vcHBLMLjQOzuF0C2rprBLY/BQGfYqUDyb4vBluTuQAitjkBanI/B

> <OMEGA_E>
eshfP6i/dj8=

> <OMEGA_NBR>
    152866

$$$$
50249257
  -OEChem-04172616093D

 50 54  0     1  0  0  0  0  0999 V2000
    6.1004   -5.2276  -17.5564 C   0  0  0  0  0  0  0  0  0  0  0  0
    3.0368   -3.1213  -17.9991 C   0  0  0  0  0  0  0  0  0  0  0  0
    3.8990   -4.1372  -17.5452 C   0  0  0  0  0  0  0  0  0  0  0  0
    3.4982   -2.1748  -18.9299 C   0  0  0  0  0  0  0  0  0  0  0  0
    6.0162   -1.6015  -21.5113 C   0  0  0  0  0  0  0  0  0  0  0  0
    6.5060   -0.6037  -22.3681 C   0  0  0  0  0  0  0  0  0  0  0  0
    5.6746   -3.2866  -18.9882 C   0  0  0  0  0  0  0  0  0  0  0  0
    5.1164    0.1115  -20.0294 C   0  0  0  0  0  0  0  0  0  0  0  0
    5.2187   -4.2150  -18.0359 C   0  0  0  0  0  0  0  0  0  0  0  0
    4.8173   -2.2589  -19.4262 C   0  0  0  0  0  0  0  0  0  0  0  0
    5.3158   -1.2402  -20.3440 C   0  0  0  0  0  0  0  0  0  0  0  0
    5.6283    1.1183  -20.8652 C   0  0  0  0  0  0  0  0  0  0  0  0
    6.3378    0.7550  -22.0444 C   0  0  0  0  0  0  0  0  0  0  0  0
    4.0584    3.3022  -18.8028 C   0  0  0  0  0  0  0  0  0  0  0  0
    7.5153    5.4143  -23.0630 C   0  0  0  0  0  0  0  0  0  0  0  0
    7.4193    3.9471  -23.5316 C   0  0  0  0  0  0  0  0  0  0  0  0
    6.2691    5.7997  -22.2403 C   0  0  0  0  0  0  0  0  0  0  0  0
    6.2699    2.8229  -19.1308 C   0  0  0  0  0  0  0  0  0  0  0  0
    5.8890    3.5044  -21.5948 C   0  0  2  0  0  0  0  0  0  0  0  0
    5.4897    2.5686  -20.4286 C   0  0  1  0  0  0  0  0  0  0  0  0
    7.1567    2.9942  -22.3406 C   0  0  2  0  0  0  0  0  0  0  0  0
    8.4292    2.9233  -21.4432 C   0  0  0  0  0  0  0  0  0  0  0  0
    6.8206   -6.0549  -17.1628 N   0  0  0  0  0  0  0  0  0  0  0  0
    4.1060    2.8527  -20.0359 N   0  3  0  0  0  0  0  0  0  0  0  0
    2.9277    3.8480  -18.2221 N   0  0  0  0  0  0  0  0  0  0  0  0
    6.8991    1.6862  -22.8976 O   0  0  0  0  0  0  0  0  0  0  0  0
    5.2662    3.1344  -18.1629 O   0  0  0  0  0  0  0  0  0  0  0  0
    6.0696    4.8706  -21.1546 O   0  0  0  0  0  0  0  0  0  0  0  0
    2.0222   -3.0693  -17.6327 H   0  0  0  0  0  0  0  0  0  0  0  0
    3.5494   -4.8576  -16.8205 H   0  0  0  0  0  0  0  0  0  0  0  0
    2.8441   -1.3835  -19.2653 H   0  0  0  0  0  0  0  0  0  0  0  0
    6.1759   -2.6435  -21.7463 H   0  0  0  0  0  0  0  0  0  0  0  0
    7.0143   -0.8802  -23.2800 H   0  0  0  0  0  0  0  0  0  0  0  0
    6.6775   -3.3612  -19.3819 H   0  0  0  0  0  0  0  0  0  0  0  0
    4.5662    0.3803  -19.1398 H   0  0  0  0  0  0  0  0  0  0  0  0
    8.4133    5.5374  -22.4397 H   0  0  0  0  0  0  0  0  0  0  0  0
    7.5864    6.0715  -23.9423 H   0  0  0  0  0  0  0  0  0  0  0  0
    6.5946    3.8545  -24.2536 H   0  0  0  0  0  0  0  0  0  0  0  0
    8.3648    3.6629  -24.0166 H   0  0  0  0  0  0  0  0  0  0  0  0
    6.4055    6.8111  -21.8300 H   0  0  0  0  0  0  0  0  0  0  0  0
    5.3853    5.7857  -22.8950 H   0  0  0  0  0  0  0  0  0  0  0  0
    6.8314    1.9251  -18.8329 H   0  0  0  0  0  0  0  0  0  0  0  0
    6.9653    3.6661  -19.2544 H   0  0  0  0  0  0  0  0  0  0  0  0
    5.0623    3.4839  -22.3202 H   0  0  0  0  0  0  0  0  0  0  0  0
    8.2440    2.2464  -20.5962 H   0  0  0  0  0  0  0  0  0  0  0  0
    9.2753    2.5456  -22.0361 H   0  0  0  0  0  0  0  0  0  0  0  0
    8.6668    3.9282  -21.0641 H   0  0  0  0  0  0  0  0  0  0  0  0
    3.3088    2.7222  -20.6254 H   0  0  0  0  0  0  0  0  0  0  0  0
    2.9524    4.1538  -17.2703 H   0  0  0  0  0  0  0  0  0  0  0  0
    2.0856    3.9367  -18.7541 H   0  0  0  0  0  0  0  0  0  0  0  0
  1  9  1  0  0  0  0
  1 23  3  0  0  0  0
  2  3  1  0  0  0  0
  2  4  2  0  0  0  0
  3  9  2  0  0  0  0
  4 10  1  0  0  0  0
  5  6  2  0  0  0  0
  5 11  1  0  0  0  0
  6 13  1  0  0  0  0
  7  9  1  0  0  0  0
  7 10  2  0  0  0  0
  8 11  2  0  0  0  0
  8 12  1  0  0  0  0
 10 11  1  0  0  0  0
 12 13  2  0  0  0  0
 12 20  1  0  0  0  0
 13 26  1  0  0  0  0
 14 24  2  0  0  0  0
 14 25  1  0  0  0  0
 14 27  1  0  0  0  0
 15 16  1  0  0  0  0
 15 17  1  0  0  0  0
 16 21  1  0  0  0  0
 17 28  1  0  0  0  0
 18 20  1  0  0  0  0
 18 27  1  0  0  0  0
 19 20  1  0  0  0  0
 19 21  1  0  0  0  0
 19 28  1  0  0  0  0
 20 24  1  0  0  0  0
 21 22  1  0  0  0  0
 21 26  1  0  0  0  0
  2 29  1  0  0  0  0
  3 30  1  0  0  0  0
  4 31  1  0  0  0  0
  5 32  1  0  0  0  0
  6 33  1  0  0  0  0
  7 34  1  0  0  0  0
  8 35  1  0  0  0  0
 15 36  1  0  0  0  0
 15 37  1  0  0  0  0
 16 38  1  0  0  0  0
 16 39  1  0  0  0  0
 17 40  1  0  0  0  0
 17 41  1  0  0  0  0
 18 42  1  0  0  0  0
 18 43  1  0  0  0  0
 19 44  1  0  0  0  0
 22 45  1  0  0  0  0
 22 46  1  0  0  0  0
 22 47  1  0  0  0  0
 24 48  1  0  0  0  0
 25 49  1  0  0  0  0
 25 50  1  0  0  0  0
M  CHG  1  24   1
M  END
> <OMEGA_C>
UjbDQIZIp8CBc4zBvVpCQOHCR8A1/o/Bcoh5QPBjhMB4XIzB8+FfQOcvC8BgcJfBeITAQGT+zL8X
F6zB+zDQQA2PGr/K8bLBsJa1QGxXUsDW55fBPLmjQIRT5D1MPKDBu/+mQPjghsB9SZDBMieaQG+S
EMDPaJvBpBqqQDq/nr+awKLBNBu0QDQkjz/a66bBfM/KQBRKQT/vWrDBPt6BQLNXU0AJbJbBsX3w
QNRBrUARgbjBz2rtQNidfEC2QLzBtJzIQOeWuUAc7LHBxqLIQOepNEDHC5nBBHO8QJtHYEBAwqzB
7auvQAhkJEDUbaPBbQPlQDuhP0B0ubLBMd4GQeoXO0Cgi6vBjELaQBDCwcB1TYnBiGSDQNyRNkCO
SaDBB2A7QNREdkDQxpHBeMXcQATX1z9YLrfBF4WoQPGZSECmTZHBfzrCQFjcm0CvPKnBmWsBQMBu
RMC1D43BkiljQNxxm8BOkIbBuwU2QCIYsb9cH5rB26DFQFcuKcB9+K3BCHXgQGBWYb9jPbrBdq7V
QFweV8AtDpvBVx6SQGq1wj5NHpnBuZwGQaoysUBuhLPB6cPyQHNJwkDAib/BxQbTQE+wdkBZB8LB
T9YFQRZtakDmIcDB8fnMQNT02UDWo67BUVSsQBYkuUDxKLfB/JraQOhq9j+yqZbBx+PeQMqhakAI
CZrBkP6hQMb3XkDAj7LBj+cDQVvED0D7xKTBjWcUQV3rIkDtSbDBaKsKQSdoe0Azg6jB/sNTQNE3
LkDHAKXB5/Q8QKfrhECWKYrBEnsFQEPye0BNCJbBA13jP7mVScCP/IvBYeupQIaHiMCNh5DBTMB/
QCbdhsDEe4zB3sO3QEGEU8AH+pfBfB3AQJUvzb8YFazBeB/PQM6dGr/R/7LB9KJjQA3ZDcDOHJfB
2nOjQAyO2T09J6DBeYhHQIdpTMC+2Y/BhMCbQLCPEcA/NpvBbVyqQHt7n78upaLBoGezQIPijj+0
5KbB4K/JQKa8QD/AYrDBclGBQDmnVEC1f5bBKhjyQP54rECIaLjBOLbtQGBte0D2M7zBXsvKQKqx
uUDGtrHBBAPIQDoeNEDD8pjB1a68QBWyYECrqqzB3k2vQPd5JEBGY6PBGLzkQBaOPkCws7LByLsG
QSWuN0ApjKvBXmAtP4f2RsB15ojBOAaDQMU9N0CmVKDBySc6QFxYeECA+ZHBxWLbQNVv1z/uO7fB
A82nQF/TSUC0TJHB8brDQH7Xm0DnEqnBnIC/QNNpocBG6o3B3FFqQFmYnsBozYbB68TXQCy6VsB2
NpvB4jvFQGA5KcCc/a3BPezeQMS1YL9dXbrBmgk5QF4Jtr/9i5nBqtGRQExRvj5VCJnB6Y0HQe6X
r0C9fLPBbqD0QPCSwUBebL/BIB/TQMgYd0Cc8cHB7dAFQazPZ0AKI8DBjDfQQJHK2UCOXa7BGlyu
QP1IukAo5rbBAD7ZQDD88z/JepbBl+XeQLELaUB76pnB9yGiQD4mYUC1cbLBc4cDQeNkDECEy6TB
mRcUQbNXHkBrUrDBzPMKQdZ3d0CyeqjBEjhTQFzQLkCHE6XBaFM7QF5BhkAuYorBMJYEQHb7fUCG
S5bB

> <OMEGA_E>
BCfWPlxa1j4=

> <OMEGA_NBR>
    154862

$$$$
50249210
  -OEChem-04172616093D

 48 52  0     1  0  0  0  0  0999 V2000
    6.0015   -1.5817  -21.4709 C   0  0  0  0  0  0  0  0  0  0  0  0
    6.5006   -0.5998  -22.3375 C   0  0  0  0  0  0  0  0  0  0  0  0
    5.0478    0.1546  -20.0493 C   0  0  0  0  0  0  0  0  0  0  0  0
    5.6710   -3.2097  -18.9293 C   0  0  0  0  0  0  0  0  0  0  0  0
    3.4559   -2.2034  -18.9210 C   0  0  0  0  0  0  0  0  0  0  0  0
    3.8673   -4.0587  -17.5457 C   0  0  0  0  0  0  0  0  0  0  0  0
    5.2617   -1.2055  -20.3339 C   0  0  0  0  0  0  0  0  0  0  0  0
    4.7852   -2.2253  -19.3992 C   0  0  0  0  0  0  0  0  0  0  0  0
    5.6045    1.1527  -20.8770 C   0  0  0  0  0  0  0  0  0  0  0  0
    6.3216    0.7640  -22.0463 C   0  0  0  0  0  0  0  0  0  0  0  0
    5.2087   -4.1259  -17.9769 C   0  0  0  0  0  0  0  0  0  0  0  0
    3.9841    3.2687  -18.7621 C   0  0  0  0  0  0  0  0  0  0  0  0
    7.5178    5.3902  -23.1792 C   0  0  0  0  0  0  0  0  0  0  0  0
    7.3720    3.9192  -23.6280 C   0  0  0  0  0  0  0  0  0  0  0  0
    6.3318    5.8032  -22.2827 C   0  0  0  0  0  0  0  0  0  0  0  0
    6.4289    2.8138  -19.1711 C   0  0  0  0  0  0  0  0  0  0  0  0
    5.9401    3.5206  -21.6103 C   0  0  2  0  0  0  0  0  0  0  0  0
    5.5370    2.6106  -20.4214 C   0  0  1  0  0  0  0  0  0  0  0  0
    7.1660    2.9808  -22.4127 C   0  0  2  0  0  0  0  0  0  0  0  0
    8.4962    2.9005  -21.6071 C   0  0  0  0  0  0  0  0  0  0  0  0
    3.0171   -3.1162  -18.0222 N   0  0  0  0  0  0  0  0  0  0  0  0
    4.1432    2.9495  -20.0282 N   0  3  0  0  0  0  0  0  0  0  0  0
    2.7445    3.3768  -18.1603 N   0  0  0  0  0  0  0  0  0  0  0  0
    6.8730    1.6698  -22.9322 O   0  0  0  0  0  0  0  0  0  0  0  0
    6.1788    4.8797  -21.1830 O   0  0  0  0  0  0  0  0  0  0  0  0
    5.4787    3.7840  -18.0014 S   0  0  0  0  0  0  0  0  0  0  0  0
    6.2955   -5.3171  -17.3149 Cl  0  0  0  0  0  0  0  0  0  0  0  0
    6.1844   -2.6263  -21.6753 H   0  0  0  0  0  0  0  0  0  0  0  0
    7.0260   -0.8925  -23.2346 H   0  0  0  0  0  0  0  0  0  0  0  0
    4.4541    0.4371  -19.1925 H   0  0  0  0  0  0  0  0  0  0  0  0
    6.6862   -3.2584  -19.2946 H   0  0  0  0  0  0  0  0  0  0  0  0
    2.7766   -1.4440  -19.2791 H   0  0  0  0  0  0  0  0  0  0  0  0
    3.5096   -4.7739  -16.8197 H   0  0  0  0  0  0  0  0  0  0  0  0
    8.4550    5.5051  -22.6148 H   0  0  0  0  0  0  0  0  0  0  0  0
    7.5429    6.0387  -24.0674 H   0  0  0  0  0  0  0  0  0  0  0  0
    6.5046    3.8331  -24.2990 H   0  0  0  0  0  0  0  0  0  0  0  0
    8.2827    3.6160  -24.1652 H   0  0  0  0  0  0  0  0  0  0  0  0
    6.5141    6.8123  -21.8844 H   0  0  0  0  0  0  0  0  0  0  0  0
    5.4096    5.8068  -22.8824 H   0  0  0  0  0  0  0  0  0  0  0  0
    6.6894    1.8401  -18.7306 H   0  0  0  0  0  0  0  0  0  0  0  0
    7.3492    3.3496  -19.4466 H   0  0  0  0  0  0  0  0  0  0  0  0
    5.0881    3.5281  -22.3060 H   0  0  0  0  0  0  0  0  0  0  0  0
    8.3613    2.2361  -20.7409 H   0  0  0  0  0  0  0  0  0  0  0  0
    9.2927    2.5032  -22.2534 H   0  0  0  0  0  0  0  0  0  0  0  0
    8.7745    3.9059  -21.2581 H   0  0  0  0  0  0  0  0  0  0  0  0
    3.3834    2.9358  -20.6782 H   0  0  0  0  0  0  0  0  0  0  0  0
    2.6664    3.7659  -17.2425 H   0  0  0  0  0  0  0  0  0  0  0  0
    1.9256    3.0659  -18.6429 H   0  0  0  0  0  0  0  0  0  0  0  0
  1  2  2  0  0  0  0
  1  7  1  0  0  0  0
  2 10  1  0  0  0  0
  3  7  2  0  0  0  0
  3  9  1  0  0  0  0
  4  8  1  0  0  0  0
  4 11  2  0  0  0  0
  5  8  2  0  0  0  0
  5 21  1  0  0  0  0
  6 11  1  0  0  0  0
  6 21  2  0  0  0  0
  7  8  1  0  0  0  0
  9 10  2  0  0  0  0
  9 18  1  0  0  0  0
 10 24  1  0  0  0  0
 11 27  1  0  0  0  0
 12 22  2  0  0  0  0
 12 23  1  0  0  0  0
 12 26  1  0  0  0  0
 13 14  1  0  0  0  0
 13 15  1  0  0  0  0
 14 19  1  0  0  0  0
 15 25  1  0  0  0  0
 16 18  1  0  0  0  0
 16 26  1  0  0  0  0
 17 18  1  0  0  0  0
 17 19  1  0  0  0  0
 17 25  1  0  0  0  0
 18 22  1  0  0  0  0
 19 20  1  0  0  0  0
 19 24  1  0  0  0  0
  1 28  1  0  0  0  0
  2 29  1  0  0  0  0
  3 30  1  0  0  0  0
  4 31  1  0  0  0  0
  5 32  1  0  0  0  0
  6 33  1  0  0  0  0
 13 34  1  0  0  0  0
 13 35  1  0  0  0  0
 14 36  1  0  0  0  0
 14 37  1  0  0  0  0
 15 38  1  0  0  0  0
 15 39  1  0  0  0  0
 16 40  1  0  0  0  0
 16 41  1  0  0  0  0
 17 42  1  0  0  0  0
 20 43  1  0  0  0  0
 20 44  1  0  0  0  0
 20 45  1  0  0  0  0
 22 46  1  0  0  0  0
 23 47  1  0  0  0  0
 23 48  1  0  0  0  0
M  CHG  1  22   1
M  END
> <OMEGA_C>
kwzAQHB1yr9hxKvBDgXQQO6KGb88s7LBdIehQMJUHj7+ZKDBKXm1QDlrTcAcb5fB1yxdQJUEDcAc
XpfB0YF3QOPggcB/XYzB7F+oQNdMmr/Kq6LBTSCZQMtqDsCVMZvBslezQECKkz8nBKfBkUrKQFuW
Qz/IXrDB5a2mQKsHhMC50I/Bkft+QDgyUUC6GJbB9ZHwQOJ8rEDtbrnBdefrQMbUekAhBr3B4p3K
QAG0uUDkQrLBpLnNQAIVNEBcXpnBmBW+QHlRYUD54azBTy+xQNYTJ0ALX6PB8E/lQE/FPkBKTbPB
XfAHQWKiOUBs26zB4xdBQGFwR8BqLZDBZpWEQA/FPEDTOaDBF6UvQAgdWEBiSJHBRu/bQAe91T8k
dbfBzrjFQHomnEDBdqnBQ1GvQKwsckDWApDBq3TJQMklqsDZhIrBxubFQHEVKMDqZq3BodTgQAN8
ZL9r4LnBIoiOQH3K3z4xipnBNfXVQFOJUMBwW5rB67MxQJTUuL+tO5rBTJ1gQLnDmMDRjobBtkcH
QXkpsEAk67TBIV/xQNk8wUD4icDB+yXQQEZRdUBaZMLBGoYEQcdsZ0BhUsHBdXPQQPr92UA9E6/B
1hutQJPRuUAiD7fBiQ/WQAWH6z9K2JXBCC3rQEJfVkCokpvBXtGiQL3MYUChcrLBDsgFQb0bD0By
7aXB664UQWU0IEAAB7LBd2QMQa75eUCPEKrBHIpYQDLkO0AIbaXBq6YqQNMDcUCL8InBlnr2P2M3
RECmJJXBtEu9QFkQyr/8o6vBMN3MQGDCGr8Ar7LBS+ugQNgpLj5CCKDB0jxfQExyC8CuW5bByQS1
QBAlUcAAxpfB9+aAQDLThsAfo4zB+0mnQFvimL/TTqLBNw6ZQLoBDsBNuJrBw2WyQMCelD+9y6bB
50XIQFSfQj9CR7DB7oxGQAQVTcAWW4/B/lR+QCh2WUDlW5bBFTnzQPgKq0AXRbnBbxXtQIBmeEBX
4rzBnnHNQLNwuUAWMbLB2WPMQHJ7NUBoJJnBGHK+QDayYUCCyqzBRp6wQKgUKEC2RaPBFCvlQK7C
PED3L7PB2rwHQURWNEDUrqzB/OeoQNNch8B4zJDBvPGDQCzePkCgR6DBFrovQEC4YEBFXZHBWC7a
QOfZ0z/1ZbfBAmzHQP8enEAxZKnBPFOvQF5AfkCyzJDBK9C9P/anT8D3N4rBOy3CQKULKMDFXq3B
933cQIl1Z7/tAbrB9ZaOQAWp6z7OFZnBQakzQP1ssL92WZjB18bUQJRLU8C1K5vB3u1uQJqqn8D8
HIfBbZEIQTeurUC1rbTBNwL1QAvLv0A+XcDBc2zRQDzRdEDvTsLBYgIFQccQY0B9IMHBURvUQBOU
2UALA6/BlhywQO5cukAVDbfBJUTRQJt88D/d+ZTB/pzrQGnoUEC/UpvBlzqjQALGY0CXXbLB0xoF
QYARCkAUxaXByUoUQSsVGUDw0rHBwMIMQZvsc0DK3KnBevRWQFdUOkCXZ6XBMYsrQA8+fEArKYrB
wRn2P4NySkB39JTB

> <OMEGA_E>
wNiePsgB2T4=

> <OMEGA_NBR>
    156803

$$$$
50294880
  -OEChem-04172616093D

 54 59  0     1  0  0  0  0  0999 V2000
    5.1763   -4.2579  -17.9556 C   0  0  0  0  0  0  0  0  0  0  0  0
    5.7106   -3.2803  -18.8093 C   0  0  0  0  0  0  0  0  0  0  0  0
    6.0716   -1.6090  -21.3927 C   0  0  0  0  0  0  0  0  0  0  0  0
    6.5705   -0.6120  -22.2465 C   0  0  0  0  0  0  0  0  0  0  0  0
    5.2275    0.1138  -19.8908 C   0  0  0  0  0  0  0  0  0  0  0  0
    5.8611    4.8909  -21.3644 C   0  0  0  0  0  0  0  0  0  0  0  0
    3.7990   -4.2295  -17.6536 C   0  0  0  0  0  0  0  0  0  0  0  0
    7.1147    3.9024  -23.6050 C   0  0  0  0  0  0  0  0  0  0  0  0
    5.3880   -1.2477  -20.2170 C   0  0  0  0  0  0  0  0  0  0  0  0
    4.8529   -2.2903  -19.3261 C   0  0  0  0  0  0  0  0  0  0  0  0
    5.7446    1.1245  -20.7358 C   0  0  0  0  0  0  0  0  0  0  0  0
    6.0473    3.4992  -21.4644 C   0  0  0  0  0  0  0  0  0  0  0  0
    6.4146    0.7550  -21.9343 C   0  0  0  0  0  0  0  0  0  0  0  0
    6.6916    2.9923  -22.6140 C   0  0  0  0  0  0  0  0  0  0  0  0
    6.3259    5.7537  -22.3882 C   0  0  0  0  0  0  0  0  0  0  0  0
    3.4775   -2.3201  -18.9837 C   0  0  0  0  0  0  0  0  0  0  0  0
    4.1012    3.4246  -18.7928 C   0  0  0  0  0  0  0  0  0  0  0  0
    5.3121    7.7797  -21.0866 C   0  0  0  0  0  0  0  0  0  0  0  0
    7.4336    8.0658  -22.4530 C   0  0  0  0  0  0  0  0  0  0  0  0
    6.1971    7.8116  -19.8132 C   0  0  0  0  0  0  0  0  0  0  0  0
    8.2112    8.0738  -21.1178 C   0  0  0  0  0  0  0  0  0  0  0  0
    6.3235    2.8985  -19.0315 C   0  0  0  0  0  0  0  0  0  0  0  0
    6.0929    7.2768  -22.3414 C   0  0  0  0  0  0  0  0  0  0  0  0
    5.5873    2.5850  -20.3370 C   0  0  2  0  0  0  0  0  0  0  0  0
    6.9311    5.2370  -23.4872 N   0  0  0  0  0  0  0  0  0  0  0  0
    2.9791   -3.2792  -18.1660 N   0  0  0  0  0  0  0  0  0  0  0  0
    4.1837    2.8674  -19.9848 N   0  3  0  0  0  0  0  0  0  0  0  0
    2.9199    3.8500  -18.2058 N   0  0  0  0  0  0  0  0  0  0  0  0
    6.9503    1.6500  -22.8518 O   0  0  0  0  0  0  0  0  0  0  0  0
    5.3471    3.5636  -18.2160 O   0  0  0  0  0  0  0  0  0  0  0  0
    7.3792    8.5992  -20.0596 O   0  0  0  0  0  0  0  0  0  0  0  0
    2.6249   -1.4063  -19.5080 F   0  0  0  0  0  0  0  0  0  0  0  0
    5.8123   -5.0227  -17.5350 H   0  0  0  0  0  0  0  0  0  0  0  0
    6.7599   -3.2873  -19.0651 H   0  0  0  0  0  0  0  0  0  0  0  0
    6.2124   -2.6513  -21.6379 H   0  0  0  0  0  0  0  0  0  0  0  0
    7.0808   -0.8957  -23.1551 H   0  0  0  0  0  0  0  0  0  0  0  0
    4.7046    0.3888  -18.9867 H   0  0  0  0  0  0  0  0  0  0  0  0
    5.3604    5.3041  -20.5013 H   0  0  0  0  0  0  0  0  0  0  0  0
    3.3875   -4.9830  -16.9984 H   0  0  0  0  0  0  0  0  0  0  0  0
    7.6027    3.5199  -24.4892 H   0  0  0  0  0  0  0  0  0  0  0  0
    4.4600    7.1073  -20.9078 H   0  0  0  0  0  0  0  0  0  0  0  0
    4.9417    8.7962  -21.2850 H   0  0  0  0  0  0  0  0  0  0  0  0
    7.2122    9.1039  -22.7417 H   0  0  0  0  0  0  0  0  0  0  0  0
    8.0594    7.5958  -23.2260 H   0  0  0  0  0  0  0  0  0  0  0  0
    5.6279    8.2570  -18.9839 H   0  0  0  0  0  0  0  0  0  0  0  0
    6.4909    6.7856  -19.5468 H   0  0  0  0  0  0  0  0  0  0  0  0
    8.5129    7.0462  -20.8667 H   0  0  0  0  0  0  0  0  0  0  0  0
    9.1070    8.7036  -21.2226 H   0  0  0  0  0  0  0  0  0  0  0  0
    6.6678    1.9725  -18.5478 H   0  0  0  0  0  0  0  0  0  0  0  0
    7.1850    3.5560  -19.2198 H   0  0  0  0  0  0  0  0  0  0  0  0
    5.4897    7.5411  -23.2225 H   0  0  0  0  0  0  0  0  0  0  0  0
    3.3997    2.6636  -20.5712 H   0  0  0  0  0  0  0  0  0  0  0  0
    2.9378    4.2892  -17.3076 H   0  0  0  0  0  0  0  0  0  0  0  0
    2.0498    3.7176  -18.6805 H   0  0  0  0  0  0  0  0  0  0  0  0
  1  2  1  0  0  0  0
  1  7  2  0  0  0  0
  2 10  2  0  0  0  0
  3  4  2  0  0  0  0
  3  9  1  0  0  0  0
  4 13  1  0  0  0  0
  5  9  2  0  0  0  0
  5 11  1  0  0  0  0
  6 12  1  0  0  0  0
  6 15  2  0  0  0  0
  7 26  1  0  0  0  0
  8 14  1  0  0  0  0
  8 25  2  0  0  0  0
  9 10  1  0  0  0  0
 10 16  1  0  0  0  0
 11 13  2  0  0  0  0
 11 24  1  0  0  0  0
 12 14  2  0  0  0  0
 12 24  1  0  0  0  0
 13 29  1  0  0  0  0
 14 29  1  0  0  0  0
 15 23  1  0  0  0  0
 15 25  1  0  0  0  0
 16 26  2  0  0  0  0
 16 32  1  0  0  0  0
 17 27  2  0  0  0  0
 17 28  1  0  0  0  0
 17 30  1  0  0  0  0
 18 20  1  0  0  0  0
 18 23  1  0  0  0  0
 19 21  1  0  0  0  0
 19 23  1  0  0  0  0
 20 31  1  0  0  0  0
 21 31  1  0  0  0  0
 22 24  1  0  0  0  0
 22 30  1  0  0  0  0
 24 27  1  0  0  0  0
  1 33  1  0  0  0  0
  2 34  1  0  0  0  0
  3 35  1  0  0  0  0
  4 36  1  0  0  0  0
  5 37  1  0  0  0  0
  6 38  1  0  0  0  0
  7 39  1  0  0  0  0
  8 40  1  0  0  0  0
 18 41  1  0  0  0  0
 18 42  1  0  0  0  0
 19 43  1  0  0  0  0
 19 44  1  0  0  0  0
 20 45  1  0  0  0  0
 20 46  1  0  0  0  0
 21 47  1  0  0  0  0
 21 48  1  0  0  0  0
 22 49  1  0  0  0  0
 22 50  1  0  0  0  0
 23 51  1  0  0  0  0
 27 52  1  0  0  0  0
 28 53  1  0  0  0  0
 28 54  1  0  0  0  0
M  CHG  1  27   1
M  END
> <OMEGA_C>
i6SlQJVAiMAgpY/BO722QObwUcCJeZbB6UrCQKHyzb84JKvBnEHSQGqqHL/O+LHBwEenQAEW6T1b
IJ/BBI67QPaBnEBL6qrByyJzQPJXh8CcOo3BxavjQCTBeUD81rzBOWqsQL+0n79fvKHBj0qbQMWT
EsDtm5rB6tO3QAHwjz/14qXBGIPBQF/zX0Aet6vB0ETNQMFJQT+Bea/B1SHWQAOCP0CT6bTBkG3K
QIceuEAFG7PBI49eQCV8FMCI3pfBtTyDQOwsW0C5V5bBm/ypQAjz+EBRsajBGuDtQIUNAUHOn7PB
m07GQPz4+UBegZ7BKGEDQSwuAUEy8ajBRVrKQJyBOUCVQJjBF/nCQH/b6EAhu7LB5cqyQNBwJUAp
sqLBncvdQNGVp0DQ5bvB8qk+QNveUcDvU5HBqOCFQA6DN0Dc4J/BPeA6QOFldkCGpZHBRGneQEAz
0z900LbBPhurQPIRZEBfupHBFSLsQG6WCUEAeqDBi/4nQOQCtL9vEJzBwP65QAq6oMCtR4zBtFDY
QPliUsBehZjBSczGQKeuKcCBGq3Bw5XiQD1LZb+YPbnB7IuWQKEQxz7W5JfBxIirQCu7qUCZAqTB
YM1YQG50n8Ch/IfBKEnzQFtFYUD76cPBjLiOQDNv40A8Q6fBIiKeQGu9DEGgR6rBOsrmQJipEUHw
7rXBKPMAQeUQ80DszrnBZRe0QMIcBEEg35fBYrXPQMQj2UDZX5zBsDQIQTp64UD37qbBE7YRQfRB
C0HMx6nBjl7VQBZ8/D/jYZTB5+vlQD6WY0AxwpnBA6yvQGNQ8UCmx7nBopRZQI14KkDMkaTBHgU8
QClBiUAGdorBTS8DQM7tbUCYcZXBYYRRQBMbhsDoupjBS/lyQKAWTcBviZ/BMh6+QEDzzL/hCKzB
MKfPQO5LGb9HkbLBcqOmQPjE0D0zZJ/BXDy9QDGmnEBfiarBDZNuQGFWiMDyD47BNuvlQEZMe0AT
c7zBBt2pQF5xoL+JX6LBavuXQH9rE8Bub5vBupK3QDtbjz8xBabBO5PCQI8uYEDFgavBd43MQGgm
Qz9ss6/BKGTXQLtiQEAUtrTBEAnNQEaXuEBZjLLBmUKlQD+GG8B0o5DBtoyCQEFKWkBReZbBAMGs
QFgq+UCgAqjBPp3xQOkFAUEqk7LBUkvIQKQZ+UD8r53BqdMEQS6YAEFPxqfBmKHJQFEmN0B9EpjB
4kfGQM9m6UD2/rHBFtmyQLvgJEAjrKLBRrTgQDVfqECXVbvBbPeUQMpeWcAAOIrB58uFQFSjN0A7
DqDBEBM5QJQQdkDf75HBsc/eQOT41D+r0LbBWw6qQGmAYUCSn5HBuKHuQMvtCEHvXp/BFrjDQOhz
zb9mo4zBnhYiQJNqnMB7oJvBXlReQIrTSMDow6fBbyzAQDrHKMDga67BGb7fQOuuX78Q5LnBsBWX
QMuiuz7G+JfBuPusQOWjqUBLo6PB+upUQH2poMBP1IjBrcX1QCpQY0BqhMPBhBaRQADy40BrzabB
43mhQEX7DEGCg6nBqDXrQOHCEUEPxrTB7PECQcUf80CzubjBUMe1QOqXA0FlFZfB8AvRQLj+10Al
ppvBrVAJQakG4EAL3KXBPFgTQdV3CkE3Y6jB5wrUQN1f9j8nRJTBs4TlQHfeYEA3WpnBPaizQG6i
8kABGbnBhhNaQCauK0AL5qTBH1c5QK2piED4sorBCPUBQNzXbkDM5pXBKhM6QMVMVMD3AZLBEwVa
QBwKE8DOnJjB9XvAQMZEzb/HnKvBFVTRQAJVGr9qQ7LB/5OlQITR3D2Rep/BKbu8QHWjnEBLrKrB
gbhyQMODicCpC47BAXrlQPvQekCIjbzBGX6qQBgLoL83MqLBF+OYQGn/EsBULpvBcwy3QGS3jz9R
D6bBVi3CQMcoYEDBl6vBEe7MQHfCQj9Um6/B3SDXQHMjQEAFxLTBIWrMQBx4uEDpuLLBd6CzQPnK
U8Ca5pbBJbqCQPrHWkAWb5bBrzKsQBAr+UCQN6jBsczwQN0CAUG04rLBmfjHQDxO+UDN7p3BH4sE
Qc+1AEHBHqjBGLLJQOBRN0BlK5jBpYrFQCZG6UA7OLLBnYyyQLIaJUApuaLBgxLgQF4iqEBaf7vB
eKOjQJjsiMCBd5DB/6CFQCowOECKBqDBqLo5QH55dkCD0JHBavveQEJ+1D96xbbBZGiqQIAJYkCA
rJHBJDTuQKYRCUGLsZ/BfzneQFsUU8D/7pjBJNPtP2BzVsDa+4/B/BkwQDudw79rqpvBW2PEQA04
KcAyt63BIuLhQNh/Yb+gg7nBrlOUQP1WwT5fT5jB43usQK+3qUCtyKPBpyJaQOWaosDW9YjBqFf1
QFulYkDlm8PBkJaQQBvu40A/86bBl9egQHb2DEEbvanBs0HqQLK4EUGeHLXB3HwCQcQL80BhDLnB
bJK1QIO3A0FrUJfBpdrQQPs/2EAq4ZvByxsJQYxR4EA7L6bBcwUTQVmgCkGBy6jBQxbUQKOj9j+Q
XpTB3aLlQLTFYEDOgpnBR72yQMdS8kCGTrnBRWtZQPl3LEBr06TBzXg6QJ7ciECRk4rBdFgCQFM1
b0AnuJXBWcWVQEJWVcChConBCsymQDAvFcDQpo/BjI++QJDUzL/GJ6vBi3fPQHjdHb999bHBRoqn
QL65Cz7hwJ7B5568QEa1nEC99arBke5tQPcKh8CKP43BkUXkQDc5eEBJ17zBfZKqQD7knL/7g6HB
pd+YQHRGEMAhWZrB8NO3QBdxkT8NqqXB2hHCQBMuYEDoravBAzPMQMGCQD8wXa/B9FfWQA+/PkBX
3rTBv9DLQLrpt0AaM7PBdHNzQPgpS8BSD57BdFaDQBrlXUDPZJbB0QSsQIZj+UBU66jByjDwQMW0
AEH4zbPBCDbIQGVk+kDOtZ7Bi3QEQcbTAEFQGanBqGrKQDMuO0BwJpjBQPbEQK296ECe6LLBkgqz
QKOEJkCTmaLBf/veQKzppkCM9rvBsNtSQKUbhMBghpfB6BiGQJ1UOUCi35/BUhQ7QGZDekB0zZHB
+cfdQCgO0T+kvbbBAhurQCNlZkBdtpHB6l7uQJaICUFTsaDBQ2FVQJuKRcBvNKjBDyOgQAIsW8Do
1IDBuiC+QHbm0L+Nl4zBs+HAQGcvKcD9T63BTTHfQLl0ab/0R7nBoKeYQLeN1z6tS5fBUr+sQAdQ
qkB2FKTBbbJTQC2zn8DGKIjBjrXzQG34XkCv5cPBOoCQQIo25EB/eafB2IqgQBcADUHbkqrBlJDp
QINTEUHlLbbB3g4CQXzx8UAy8bnBZxO2QCCJBEH6HpjBVi7RQMyD2UDNgZzBiAwJQS614EAjBafB
vewSQfOzCkHv8anBqkPVQH8gAEByM5TBdBTmQF/8ZEABq5nBBt+xQLJB8UAm/bnBnypaQKsgLEAC
laTBuRY8QFx6i0AXp4rBM4cDQMIJckDPo5XB

> <OMEGA_E>
ssMiP9wyTT82MDw/sMFLPw==

> <OMEGA_NBR>
    160700

$$$$
50294881
  -OEChem-04172616093D

 54 59  0     1  0  0  0  0  0999 V2000
    5.1801   -4.2581  -17.9543 C   0  0  0  0  0  0  0  0  0  0  0  0
    5.7147   -3.2784  -18.8053 C   0  0  0  0  0  0  0  0  0  0  0  0
    6.0756   -1.6066  -21.3869 C   0  0  0  0  0  0  0  0  0  0  0  0
    6.5739   -0.6101  -22.2407 C   0  0  0  0  0  0  0  0  0  0  0  0
    5.2310    0.1172  -19.8853 C   0  0  0  0  0  0  0  0  0  0  0  0
    5.8766    4.9006  -21.3657 C   0  0  0  0  0  0  0  0  0  0  0  0
    3.8020   -4.2324  -17.6555 C   0  0  0  0  0  0  0  0  0  0  0  0
    7.1061    3.8921  -23.6149 C   0  0  0  0  0  0  0  0  0  0  0  0
    5.3918   -1.2449  -20.2116 C   0  0  0  0  0  0  0  0  0  0  0  0
    4.8566   -2.2886  -19.3222 C   0  0  0  0  0  0  0  0  0  0  0  0
    5.7487    1.1282  -20.7302 C   0  0  0  0  0  0  0  0  0  0  0  0
    6.0526    3.5048  -21.4624 C   0  0  0  0  0  0  0  0  0  0  0  0
    6.4176    0.7567  -21.9286 C   0  0  0  0  0  0  0  0  0  0  0  0
    6.6878    2.9906  -22.6154 C   0  0  0  0  0  0  0  0  0  0  0  0
    6.2989    5.7453  -22.4217 C   0  0  0  0  0  0  0  0  0  0  0  0
    3.4804   -2.3215  -18.9837 C   0  0  0  0  0  0  0  0  0  0  0  0
    4.1017    3.4293  -18.7928 C   0  0  0  0  0  0  0  0  0  0  0  0
    7.5104    7.8259  -20.2543 C   0  0  0  0  0  0  0  0  0  0  0  0
    7.4397    7.9251  -21.7931 C   0  0  0  0  0  0  0  0  0  0  0  0
    6.2155    8.3812  -19.6296 C   0  0  0  0  0  0  0  0  0  0  0  0
    4.8966    7.7527  -21.5690 C   0  0  0  0  0  0  0  0  0  0  0  0
    6.3256    2.9063  -19.0270 C   0  0  0  0  0  0  0  0  0  0  0  0
    6.1502    7.2697  -22.3582 C   0  0  2  0  0  0  0  0  0  0  0  0
    5.5921    2.5914  -20.3333 C   0  0  2  0  0  0  0  0  0  0  0  0
    6.9119    5.2245  -23.5120 N   0  0  0  0  0  0  0  0  0  0  0  0
    2.9818   -3.2828  -18.1685 N   0  0  0  0  0  0  0  0  0  0  0  0
    4.1881    2.8748  -19.9855 N   0  3  0  0  0  0  0  0  0  0  0  0
    2.9184    3.8524  -18.2083 N   0  0  0  0  0  0  0  0  0  0  0  0
    6.9511    1.6491  -22.8475 O   0  0  0  0  0  0  0  0  0  0  0  0
    5.3458    3.5669  -18.2118 O   0  0  0  0  0  0  0  0  0  0  0  0
    5.0732    7.6556  -20.1333 O   0  0  0  0  0  0  0  0  0  0  0  0
    2.6277   -1.4091  -19.5100 F   0  0  0  0  0  0  0  0  0  0  0  0
    5.8164   -5.0226  -17.5334 H   0  0  0  0  0  0  0  0  0  0  0  0
    6.7645   -3.2834  -19.0589 H   0  0  0  0  0  0  0  0  0  0  0  0
    6.2168   -2.6490  -21.6316 H   0  0  0  0  0  0  0  0  0  0  0  0
    7.0842   -0.8938  -23.1493 H   0  0  0  0  0  0  0  0  0  0  0  0
    4.7076    0.3922  -18.9815 H   0  0  0  0  0  0  0  0  0  0  0  0
    5.4191    5.3265  -20.4849 H   0  0  0  0  0  0  0  0  0  0  0  0
    3.3903   -4.9874  -17.0022 H   0  0  0  0  0  0  0  0  0  0  0  0
    7.5991    3.5036  -24.4938 H   0  0  0  0  0  0  0  0  0  0  0  0
    7.6328    6.7724  -19.9625 H   0  0  0  0  0  0  0  0  0  0  0  0
    8.3693    8.4092  -19.8908 H   0  0  0  0  0  0  0  0  0  0  0  0
    7.4549    8.9864  -22.0819 H   0  0  0  0  0  0  0  0  0  0  0  0
    8.3149    7.4157  -22.2226 H   0  0  0  0  0  0  0  0  0  0  0  0
    6.2628    8.2724  -18.5361 H   0  0  0  0  0  0  0  0  0  0  0  0
    6.1137    9.4456  -19.8882 H   0  0  0  0  0  0  0  0  0  0  0  0
    4.6984    8.8028  -21.8298 H   0  0  0  0  0  0  0  0  0  0  0  0
    4.0356    7.1335  -21.8612 H   0  0  0  0  0  0  0  0  0  0  0  0
    6.6727    1.9810  -18.5438 H   0  0  0  0  0  0  0  0  0  0  0  0
    7.1849    3.5671  -19.2136 H   0  0  0  0  0  0  0  0  0  0  0  0
    6.0348    7.6282  -23.3917 H   0  0  0  0  0  0  0  0  0  0  0  0
    3.4060    2.6734  -20.5752 H   0  0  0  0  0  0  0  0  0  0  0  0
    2.9332    4.2890  -17.3088 H   0  0  0  0  0  0  0  0  0  0  0  0
    2.0498    3.7211  -18.6862 H   0  0  0  0  0  0  0  0  0  0  0  0
  1  2  1  0  0  0  0
  1  7  2  0  0  0  0
  2 10  2  0  0  0  0
  3  4  2  0  0  0  0
  3  9  1  0  0  0  0
  4 13  1  0  0  0  0
  5  9  2  0  0  0  0
  5 11  1  0  0  0  0
  6 12  1  0  0  0  0
  6 15  2  0  0  0  0
  7 26  1  0  0  0  0
  8 14  1  0  0  0  0
  8 25  2  0  0  0  0
  9 10  1  0  0  0  0
 10 16  1  0  0  0  0
 11 13  2  0  0  0  0
 11 24  1  0  0  0  0
 12 14  2  0  0  0  0
 12 24  1  0  0  0  0
 13 29  1  0  0  0  0
 14 29  1  0  0  0  0
 15 23  1  0  0  0  0
 15 25  1  0  0  0  0
 16 26  2  0  0  0  0
 16 32  1  0  0  0  0
 17 27  2  0  0  0  0
 17 28  1  0  0  0  0
 17 30  1  0  0  0  0
 18 19  1  0  0  0  0
 18 20  1  0  0  0  0
 19 23  1  0  0  0  0
 20 31  1  0  0  0  0
 21 23  1  0  0  0  0
 21 31  1  0  0  0  0
 22 24  1  0  0  0  0
 22 30  1  0  0  0  0
 24 27  1  0  0  0  0
  1 33  1  0  0  0  0
  2 34  1  0  0  0  0
  3 35  1  0  0  0  0
  4 36  1  0  0  0  0
  5 37  1  0  0  0  0
  6 38  1  0  0  0  0
  7 39  1  0  0  0  0
  8 40  1  0  0  0  0
 18 41  1  0  0  0  0
 18 42  1  0  0  0  0
 19 43  1  0  0  0  0
 19 44  1  0  0  0  0
 20 45  1  0  0  0  0
 20 46  1  0  0  0  0
 21 47  1  0  0  0  0
 21 48  1  0  0  0  0
 22 49  1  0  0  0  0
 22 50  1  0  0  0  0
 23 51  1  0  0  0  0
 27 52  1  0  0  0  0
 28 53  1  0  0  0  0
 28 54  1  0  0  0  0
M  CHG  1  27   1
M  END
> <OMEGA_C>
e8OlQIpCiMB7oo/BwN62QIXQUcA2cZbBOmvCQGelzb9OGKvBbF3SQPAwHL/97LHBumSnQEYb8D0I
FZ/BZQ28QN7RnEDw7KrBHlRzQMhvh8BtPo3BJ2XjQIIXeUBj67zBgYmsQHlXn79QsaHBFWmbQMF3
EsDUk5rBofW3QFxqkD9/16XBxa7BQL9OYED+sqvBoVzNQI21QT/gba/BvwLWQCRmP0BZ7LTB1JDJ
QHLZt0C7X7PBhr9eQKSTFMCI3pfBDEGDQK55W0C0V5bBKVXwQCRu+kC/CKLBUxLuQKKa/UAuWK7B
LOXGQH4ZBkGDCZ3B5rCcQNUV+EA4jazBDGvKQEcAOkBBN5jBcM7EQH6h6ECH3bLB0fKyQAPaJUCo
qqLBbC7dQMIup0CUGLzBJtU+QPEYUsAjWZHBwQSGQBr9N0BI4p/B18Y6QL2NdkCuqpHBum/eQLoW
0z+yx7bBeRCrQOVIZEDPsZHBwleiQFf69EDuEKHBhiwoQLFdtL94FJzB8h+6QO24oMB9RIzBj3bY
QBIjUsCreJjB7O/GQESJKcB1Da3BabHiQHXRZL/OMbnB7aSWQAzMyD4P2pfBXWmtQIFyqkAr4aPB
BvpYQN+Yn8BzBIjB2yvzQGE7YEBf88PB6z/0QMq32EAws5/Bg+gFQUaMBkFiIJ/Bq47uQGbID0Gr
p7DB8AkFQUBN7UDjx7HBNmnIQNJbBEHcSZTBaaPDQAQhF0HzGp/Bo1mWQBjYDEFxo67B1SOBQMpF
5ECs467Bk4bVQL2S/T+vWZTBrOrlQJpLZEB9tZnBNh3BQA8a9EAzIrvB6PtZQIkZK0ARmqTBR7k7
QB0/iUBjeIrB7i8DQO8mbkBJfZXB3cilQOtDiMA+po/BCdy2QDHTUcBBdpbBg1HCQBakzb+4HKvB
HDzSQC8pHL/l8bHBdkmnQEaz8D08GZ/BziW8QDn7nEDn8KrBPGVzQLtwh8D3Po3B93zjQF/neECp
57zBE3asQJNTn7/rtKHB5mCbQPV4EsB7lprBLtG3QAt7kD+83KXBy7XBQNZ5YECRs6vBmjjNQLq6
QT9Mcq/BwxnWQJtnP0AP6LTB7HLLQCIxuEBVK7PBt7VeQFWWFMAC3pfBQC6DQBVyW0C1WZbBNHYI
QbJbAUG1YLTB40jkQIIFAUFmwrnBiKEGQTnpCUG21ajBmcbDQHdY/EAcZ6fBjFDKQEriOUCsOpjB
PwTDQA7Q6EDG4bLBjtayQLPtJUBFr6LBcfDdQNodp0CSBLzBR9s+QAIcUsCzV5HBxe6FQLgoOEBc
55/BD6U6QKxddkA/qJHB3EzeQIcH0z8Uy7bB2v6qQIErZEDXs5HBc2PuQMHN+kAP5qLBMhkoQCpX
tL+hEJzBMCm6QG26oMDDSYzBLHHYQHomUsB3gJjBx9bGQF2IKcDsEa3BJ4ziQOS6ZL9pN7nB0YqW
QHzdyD7/3ZfB9i2sQG2EqkD5EKTB+hdZQKOZn8DsA4jBCbvyQGTVX0Bt/8PBYgAPQUUL4kAsNLTB
7zcTQcrJC0Go/rjBEQjZQISTEUHCw7rBaQnnQDis8kBqpcHBu1MWQZPPCEFc5KTBdW8BQcS4GkHI
CanB8Ci5QEbvDkFWzKfB5+OtQKYR6kAfPqLBcGDVQFwu/T/cX5TBRNjlQMMdZECXtpnBpRyjQIOp
7kDDTLbBms9ZQBB3K0A0oaTB+J07QPoNiUDvcorBEgoDQAEMbkClepXBx/1GQHL1S8CE3o/BJxBf
QChFC8CuAJfBNe65QLCFyL9n7azB3JnLQCuXEr8sYLPB9XKgQJiI/j0Sa6DBQvS+QK+MmkC+7anB
cTSAQGHDh8Buxo3BhbXuQEpqeEDp5rrBo6ylQNwVnL/uQ6PBPgaYQKZwEMDu2pvBvWayQFZakD/U
0qbBIV/BQBAxXUDCf6vByzTJQPsBRT+VQbDB7r/ZQLgRPkBRNbTBWr/VQL6rtUCnsrDBYdOzQIbp
VMBXOpnBf1SCQBB9WUC7SJbBtKegQJKG8EAzqr7BLYSkQAoo80CgYrLBFF/FQKQVBUET4cPBS5X0
QK5F/kCEvrTBszvIQBriL0DAhpjBZ5nRQPHm5EBnu67BMuyvQFI7I0A9A6PBk63sQJVjpkBaE7nB
zm6nQBxyicDyXJLBwK+DQKaMOkCRFqDBoVQ7QD7Pd0CIV5HBhBvfQKjB0j8qtLbB1n6qQI4dW0Cy
sZHBMaHuQNIe+0ADN8DB/i/cQC62V8CMNJ3BsSkJQJQmSsBoA4zB+XI0QEFMrb/QvJjBd8i7QBSF
JsDyV6/BYirbQN2lVr93yrrBzaeOQD/cxT6FUJnBT6WrQAWIp0A7iqPB71FtQBD5oMBAXojBPWkA
QdL+YEAip8HBaqGiQFzfzkB5MsHBhb2BQKAD/kCXLsHBj/SeQEYtCkGJz6/BPGWMQF0g3kBIuK7B
gYzDQBs/A0GEnszBFuHBQIQVFkEjxsHBjOvyQCMOEEEsW7LBIRUKQSI78UAnobLBBIjRQNWu4z/l
E5XBk/vkQO0wV0CEzpnBesjUQIE860DEHKbBUI1UQBbRM0CW4KTBzrE+QEpoiEBk/YnBxgcDQGOx
dEBUIJXBZkc6QJK2VMC6BZLBfyhaQGJCE8ATmpjBWnfAQP8bzb+TlqvBr0LRQD0IGr89PbLBa5Gl
QMDy4D2dcp/BX0m9QDUPnUDerarBLQFzQPC3icBXE47ByzzlQDzweUDtm7zBPoKqQNLdn78pK6LB
0PWYQHgDE8A9KZvBngK3QHoUkD8DCKbBClTCQJaXYEBjkavBp9jMQDL1Qj+ik6/BVwvXQKb6P0Ch
wLTB8WLNQGJ+uEC5w7LBsLyzQGTcU8C555bBRKOCQNLfWkDlbZbBFOsJQW0UAUGvfbPB2IDnQIct
AUFgB7nBzt4HQVtbCUHB56fBDuLFQFEf/EA8z6bBm6DJQPaYN0DAI5jBLonFQLUx6UDKWbLBlI+y
QPR8JUA7tKLBsCngQMalp0BfmrvBZ8ijQMkMicBufpDBZKaFQOCyOEA4CqDBGGw5QOgzdkBrz5HB
4dPeQIQ+1D9hv7bBFUOqQIAAYkCto5HBYTbwQJ7N+UDIKKLB11TeQA4JU8DK8JjB1TbuP50EV8CJ
AZDBWS0wQGEQxL+QpJvBZWDEQEgjKcD+sK3BL8rhQAUOYb+9frnB5VKUQJAewj7YRpjBBhytQNdw
qkDq0KPBL3paQLDeosA4AYnB5bn0QCE3YUAHsMPBTj0QQbJP4UD7YLPBfPAUQXB8C0GV9rfBhLvc
QFvUEUEi9rnBvH/qQPBe80DQ9MDBA3AXQbXyB0FS3KPBbeYCQQ49GkH0CKjBSre7QAfmDkE3IqfB
PnmvQH3d6UCXyaHBmxTUQEYk9z9QW5TB6YTlQMo5YUCOdZnBWuelQGKd70CV3LXBHZZZQNxVLUCw
36TBgPs5QMOIiECvjIrBLCACQLoOb0DevJXBS9k5QG6lVMANGJLBAOdZQFk+E8Adq5jBEoDAQE8u
zb8xnKvBqGPRQNQfGr/rPrLBU6SlQLjG3T2AdZ/BlE29QKDhnEB7p6rBBnByQOi5icD4Io7BtFjl
QKQyekCRm7zBjIKqQKYEoL+vMaLBwtqYQGcZE8BoNJvBVie3QAjijz+bB6bBE2fCQENkYEAukKvB
DgLNQHzVQj+tk6/BCxjXQIL9P0DHw7TBl7LLQEoyuED787LBg4+zQBIDVMDh75bBXriCQEfcWkAo
cJbBPVHyQJlH+UCVP6HBNcvwQCAv/UBoja3BsdLIQBmmBUEGVpzBjEKfQLif+ECiEazBYLnJQP90
N0DHH5jB7YfHQDYA6UDcSrLBYrSyQGFSJUCvsaLBPqLfQPHCp0BIqLvBJYSjQBUdicBDiZDBgsWF
QH+FOEDNCaDBsI05QDtedkCg15HBFg3fQIZM1D9RvbbBNlKqQMLlYUADopHBvDSkQNXL9ECpk6DB
eSzeQKVDU8Aa85jBOU3tP3vZVsDmFpDB2AUwQOn2w7/+uJvBe13EQOYpKcA0ua3Bt/fhQLkcYb+2
frnBjGaUQJU0wT55SZjBnWWuQNVOqkBxnqPBmcVZQIvdosCSEonBs2T1QIu0YUDnnsPBQKz1QPpj
10CiBZ/B7+4GQRy2BUFjLZ7BT9bxQPChD0HuvK/BdGQGQTG57EDv8rDBRsrJQNulA0GwmJPBGCDG
QGzBFkG1Sp7B7HmZQPE1DUHkDq7BypeDQA5P5UA+k67BXCjUQA3h9j/lVZTBop/lQLwTYUAHcJnB
cnbEQLv49EBEiLrBettZQAEJLUBB36TBCws6QD6oiEARlorBtE4CQB1Fb0BCyJXB0OuVQFe6VcAU
D4nBp92mQOFkFcBgp4/BR42+QEfIzL8dJKvBLGnPQOfHHb+O8bHB9oGnQMwJDT6GvJ7BfTC9QJAc
nUBJ+6rBFVhuQLdFh8D+Ro3BlPfjQOxFd0Dm6bzBnY+qQDTTnL/SgKHBB+qYQOJdEMC+WJrBLMe3
QDi1kT8FpqXBNjrCQEySYECmqqvBNhvMQCGBQD9yWK/BkjvWQO6IPkCC3rTBs8PMQPrpt0A9Q7PB
pLFzQARhS8DNEp7BD0mDQEvvXUDZZJbBq5wJQcK4AEGigrTB3azmQOyfAEGT8LnBJswHQXpxCUHI
/6jB0sHFQHJ4/EDunafBsWDKQBRcO0DtIZjBuvLEQH2k6EC8D7PB0RCzQJ3aJkCNl6LB6gDfQNdi
pkB1FrzBYD9TQFdMhMBTjZfBViSGQOzQOUCD5Z/BBtg6QFTieUAHzJHBZ5vdQAKz0D+iurbBrQGr
QJNJZkCqr5HBJ0TwQLZy+kCWD6PBrqhVQMa+RcBoOKjBWE6gQOGmW8D+2YDB7Se+QOQ50b/mlYzB
wefAQNspKcB6S63BVyHfQFA6ab+bRLnB+Z+YQAn51z7zRpfBu2qtQNcFq0AfIKTB2zZUQIH9n8DK
MojBBADzQHF0XUAU/sPBr+wPQXKZ4EBeRbTBNY0UQdrxCkG4IrnBpeTbQAA+EUHFAbvBZlrpQBan
8UDgzMHBz3AXQVMsCEFMBKXB5dYCQXBSGkEuRKnBHJ+7QHMQD0HAFKjBJIWvQIuk6kDcc6LBxUXV
QORBAEDwM5TB1QDmQElQZUAMoZnB6i+lQMrQ7kDyhrbBJ11aQH4ALUC9o6TBwqw7QNkSi0C+norB
BGADQGTJcUA6qJXBNbuVQLPTVcBxFonBG8GmQO2CFcAvrI/BUZu+QDuxzL9bJavBpIXPQAKFHb8c
8LHBHJOnQNxJDD5iu57BzSy9QK/5nEDY8KrBbvVtQMBIh8ARUo3BqgLkQCKgd0DL5rzBIZWqQKfZ
nL/MgqHB49uYQLFlEMByXprBWOi3QBqmkT+noaXBWj3CQLByYECvpqvBQz/MQEG0QD/5VK/B7zXW
QFSgPkAt37TBH//KQPikt0A9brPBAZFzQAtVS8CGHJ7BklmDQDT6XUBCYpbBzk3yQFgU+kA7I6LB
4ErwQDYH/UBadK7BawLJQAk8BkHTNZ3Bo9CeQHaQ+EAXvqzB4XbKQIFeO0DZG5jBbdfGQPx86EDb
/bLBti2zQOHDJkBrkaLBk2XeQGyLpkA3IbzBcv1SQHBGhMCVmZfBxzqGQJOtOUDR35/BO/Q6QEYg
ekASz5HBmMjdQHfu0D/XtbbBPQ+rQC1MZkDkqpHBLzykQE2g9UBrP6HBnaRVQNmdRcA3Q6jBMQ+g
QHXLW8BW4IDBpQ++QAef0b8PmIzB1vHAQBAbKcCRTq3BKUPfQI3iaL+nQrnB4q2YQNtW1z7mRZfB
YbuuQDjyqkBP6aPBurhTQOn/n8DjP4jBXJ7zQJINXkCM6sPBr8H1QJRe2ECKwZ/BG/wGQbs6BkFH
OZ/B0D/xQF53D0HTzrDBuRIGQelM7EAM17HBy1TKQMuTBEGhdJTBjjfGQMJCF0GiU5/BZ+yYQGwZ
DUEk4a7B9g+DQP4K5UCZFa/BUWDVQKZOAEAxLJTBbBPmQG5bZUBNm5nBKG/DQEbU80BZR7vBxoxa
QGe0LEDDnKTBBL47QPRDi0ABpIrBsYQDQIcHckAsrZXBr8tRQEg+hsD1vpjBYBFzQGwsTcC/iZ/B
HhW+QLPpzL9qBKzBRZHPQOdCGb/kjLLB8ZimQH390j2dXp/B78q9QLAKnUAajKrB6PtuQE2OiMDA
FY7BHaPlQAhcekBHhLzB8tWpQAhfoL9UW6LBYv+XQGx4E8CWbZvBPIK3QIeXjz/t/6XBZLrCQEGN
YEBofKvBtm/MQBwTQz/tra/BHUjXQO0oQEDItLTBmfzNQFGWuEAWmbLBMVelQPi7G8Cjo5DBNHiC
QENEWkDsd5bBc1QKQfoEAUGwIrPBFXboQHs9AUHcvLjBii4IQbsxCUGPiafBVmjGQPUJ/EB/k6bB
pZPJQDBRN0BADJjBe0LGQBZO6UAwI7LBQ9yyQKMxJUBeqKLBjcHgQDPbp0BDc7vBrCOVQJbFWcDk
O4rB3NKFQNUYOECWEqDBdcc4QGCgdUBg7ZHB5p/eQHKT1D+6zLbBq+ypQJdRYUAml5HBNp7wQEZ8
+UDp3aHBJcrDQAfdzb+ooozBwWgiQJeQnMDzpZvB2VVeQAbKSMATw6fBLyrAQMLDKMB5Zq7BWqTf
QCmBX7+M4LnBSQ6XQPHuuz598pfBEaCtQDlWqkAarKPBXXtVQJf1oMD43IjBoxj1QD3TYUAJnMPB
k5gQQb0l4UAtC7PBkG8VQUduC0FSjbfBkNHdQNvqEUHZpbnBHJjrQIih80CGrcDBm7IXQbewB0G/
c6PBO0YDQVAYGkEQpKfBVV+8QM3gDkE64abBatCvQAbI6UAjm6HBIg/UQASi9j92Q5TB2GjlQLw5
YUAkTpnBi7qmQCri70DPr7XB/EBaQECMLEBd86TBltw4QCc5iEDhqYrBkb8BQM+LbkAc6pXB5lpR
QGo0hsCW0ZjBC9RyQBAbTcACmZ/BpRe+QODOzL+FCazBCazPQIX6GL/BjbLBK6imQPPD0T3LX5/B
zse9QObonEALg6rBRV1uQFeRiMCbJo7B6LXlQHy7ekAtgbzB8NGpQCVioL+tYKLBReGXQPt+E8BW
d5vB8Ka3QI6Kjz8I/aXBv8HCQDpxYEBGeavBJZjMQJNNQz/iq6/BPUvXQLdGQEDCtbTBeknMQPpZ
uEDtxbLBGR6lQNnXG8CFq5DByo2CQEZZWkCzdpbBd7TyQFcG+UAv8KDBkHbxQG4k/UBlPa3BLSXJ
QIyEBUEBD5zBNeGfQIbD+EDe3qvBgavJQLlKN0CTBpjBCT/IQAso6UCfDrLBqPyyQB0bJUAuo6LB
ZjTgQGYIqEATfrvBSdSUQATjWcB8R4rBnOyFQAj0N0AMDqDBCvE4QKfvdUC18ZHB6tTeQDPZ1D+E
yLbBAv6pQIxUYUBBk5HB+5GkQI2y9ECFYKDB+Y/DQKpCzr8kpYzBavMhQPR7nMCUvJvBRj9eQF6o
SMC406fBgR/AQGOwKMDfbq7Bi8ffQEYlX79w4LnB5BuXQItfuz6X85fB4eGuQG49qkDOdqPB6bhU
QDH5oMC88IjBtLj1QJBsYkBjiMPBbfL1QCYX10Cfvp7BnBwHQaKHBUGEz53Bm6byQOKgD0FKY6/B
m70GQcqo7ECZnbDBiurJQJJtA0GvUpPBNZDGQJalFkGT+Z3BBzqaQKxODUGM063BxDeEQOuR5UAb
cK7BQCXUQKSg9j8OPJTB9YDlQDQzYUAnSJnBjmLFQDJL9UBSSbrB9HVaQO82LEA/7aTBDv04QKBx
iEApsIrB5fEBQC3jbkCM8JXB

> <OMEGA_E>
4BwjP4imIj86xjY/eBU8P8pgPD/SvUs/AhVMPxwNTT8EU00/

> <OMEGA_NBR>
    169086

$$$$
50249252
  -OEChem-04172616093D

 48 52  0     1  0  0  0  0  0999 V2000
    5.2155   -4.1909  -18.0385 C   0  0  0  0  0  0  0  0  0  0  0  0
    5.6730   -3.2136  -18.9321 C   0  0  0  0  0  0  0  0  0  0  0  0
    5.9551   -1.5636  -21.4504 C   0  0  0  0  0  0  0  0  0  0  0  0
    6.4581   -0.5897  -22.3221 C   0  0  0  0  0  0  0  0  0  0  0  0
    5.0710    0.1860  -19.9989 C   0  0  0  0  0  0  0  0  0  0  0  0
    3.8763   -4.1494  -17.6023 C   0  0  0  0  0  0  0  0  0  0  0  0
    5.2522   -1.1798  -20.2925 C   0  0  0  0  0  0  0  0  0  0  0  0
    4.7808   -2.2106  -19.3572 C   0  0  0  0  0  0  0  0  0  0  0  0
    5.6108    1.1770  -20.8476 C   0  0  0  0  0  0  0  0  0  0  0  0
    6.3101    0.7754  -22.0248 C   0  0  0  0  0  0  0  0  0  0  0  0
    3.4453   -2.2255  -18.8810 C   0  0  0  0  0  0  0  0  0  0  0  0
    3.9928    3.2318  -18.7278 C   0  0  0  0  0  0  0  0  0  0  0  0
    7.5257    5.3820  -23.2018 C   0  0  0  0  0  0  0  0  0  0  0  0
    7.4042    3.9033  -23.6271 C   0  0  0  0  0  0  0  0  0  0  0  0
    6.3044    5.7988  -22.3590 C   0  0  0  0  0  0  0  0  0  0  0  0
    6.4865    2.8743  -19.1997 C   0  0  0  0  0  0  0  0  0  0  0  0
    5.9373    3.5279  -21.6271 C   0  0  2  0  0  0  0  0  0  0  0  0
    5.5566    2.6445  -20.4125 C   0  0  1  0  0  0  0  0  0  0  0  0
    7.1760    2.9844  -22.4017 C   0  0  2  0  0  0  0  0  0  0  0  0
    8.4906    2.9170  -21.5675 C   0  0  0  0  0  0  0  0  0  0  0  0
    3.0213   -3.1858  -18.0240 N   0  0  0  0  0  0  0  0  0  0  0  0
    4.1782    3.0055  -20.0093 N   0  3  0  0  0  0  0  0  0  0  0  0
    2.7460    3.5044  -18.1982 N   0  0  0  0  0  0  0  0  0  0  0  0
    6.8829    1.6689  -22.9108 O   0  0  0  0  0  0  0  0  0  0  0  0
    6.1382    4.9066  -21.2383 O   0  0  0  0  0  0  0  0  0  0  0  0
    2.5504   -1.3067  -19.3192 F   0  0  0  0  0  0  0  0  0  0  0  0
    5.4663    3.2308  -17.7639 S   0  0  0  0  0  0  0  0  0  0  0  0
    5.8808   -4.9663  -17.6886 H   0  0  0  0  0  0  0  0  0  0  0  0
    6.6923   -3.2292  -19.2886 H   0  0  0  0  0  0  0  0  0  0  0  0
    6.1066   -2.6108  -21.6669 H   0  0  0  0  0  0  0  0  0  0  0  0
    6.9628   -0.8899  -23.2285 H   0  0  0  0  0  0  0  0  0  0  0  0
    4.5158    0.4769  -19.1194 H   0  0  0  0  0  0  0  0  0  0  0  0
    3.5224   -4.9037  -16.9151 H   0  0  0  0  0  0  0  0  0  0  0  0
    8.4404    5.5139  -22.6051 H   0  0  0  0  0  0  0  0  0  0  0  0
    7.5796    6.0147  -24.1001 H   0  0  0  0  0  0  0  0  0  0  0  0
    6.5547    3.7975  -24.3179 H   0  0  0  0  0  0  0  0  0  0  0  0
    8.3307    3.5992  -24.1360 H   0  0  0  0  0  0  0  0  0  0  0  0
    6.4531    6.8234  -21.9875 H   0  0  0  0  0  0  0  0  0  0  0  0
    5.4019    5.7638  -22.9869 H   0  0  0  0  0  0  0  0  0  0  0  0
    7.0861    1.9708  -19.0147 H   0  0  0  0  0  0  0  0  0  0  0  0
    7.1558    3.7239  -19.4003 H   0  0  0  0  0  0  0  0  0  0  0  0
    5.0878    3.4915  -22.3249 H   0  0  0  0  0  0  0  0  0  0  0  0
    8.3383    2.2660  -20.6941 H   0  0  0  0  0  0  0  0  0  0  0  0
    9.3001    2.5101  -22.1913 H   0  0  0  0  0  0  0  0  0  0  0  0
    8.7618    3.9277  -21.2284 H   0  0  0  0  0  0  0  0  0  0  0  0
    3.4328    3.0732  -20.6725 H   0  0  0  0  0  0  0  0  0  0  0  0
    2.6511    3.7136  -17.2249 H   0  0  0  0  0  0  0  0  0  0  0  0
    1.9387    3.4924  -18.7881 H   0  0  0  0  0  0  0  0  0  0  0  0
  1  2  2  0  0  0  0
  1  6  1  0  0  0  0
  2  8  1  0  0  0  0
  3  4  2  0  0  0  0
  3  7  1  0  0  0  0
  4 10  1  0  0  0  0
  5  7  2  0  0  0  0
  5  9  1  0  0  0  0
  6 21  2  0  0  0  0
  7  8  1  0  0  0  0
  8 11  2  0  0  0  0
  9 10  2  0  0  0  0
  9 18  1  0  0  0  0
 10 24  1  0  0  0  0
 11 21  1  0  0  0  0
 11 26  1  0  0  0  0
 12 22  2  0  0  0  0
 12 23  1  0  0  0  0
 12 27  1  0  0  0  0
 13 14  1  0  0  0  0
 13 15  1  0  0  0  0
 14 19  1  0  0  0  0
 15 25  1  0  0  0  0
 16 18  1  0  0  0  0
 16 27  1  0  0  0  0
 17 18  1  0  0  0  0
 17 19  1  0  0  0  0
 17 25  1  0  0  0  0
 18 22  1  0  0  0  0
 19 20  1  0  0  0  0
 19 24  1  0  0  0  0
  1 28  1  0  0  0  0
  2 29  1  0  0  0  0
  3 30  1  0  0  0  0
  4 31  1  0  0  0  0
  5 32  1  0  0  0  0
  6 33  1  0  0  0  0
 13 34  1  0  0  0  0
 13 35  1  0  0  0  0
 14 36  1  0  0  0  0
 14 37  1  0  0  0  0
 15 38  1  0  0  0  0
 15 39  1  0  0  0  0
 16 40  1  0  0  0  0
 16 41  1  0  0  0  0
 17 42  1  0  0  0  0
 20 43  1  0  0  0  0
 20 44  1  0  0  0  0
 20 45  1  0  0  0  0
 22 46  1  0  0  0  0
 23 47  1  0  0  0  0
 23 48  1  0  0  0  0
M  CHG  1  22   1
M  END
> <OMEGA_C>
P+WmQKkbhsDsTpDBTIm1QPCqTcDddJfBM5C+QMAkyL+DmqvBWqjOQFv2Fr+tk7LB50WiQMh4Pj7Z
/Z/BbBV4QKjHhMBx0YzBQxKoQMwDl7/2VqLBF/yYQMx5DcCG25rB/ouzQBaplj/ax6bBnezJQFiC
Rj/kMrDBUIBcQHJuDsBWDJfBIop/QELVTkB+0pXB59LwQKE5rEBFnbnBCe/sQFrQeUBZBL3BUb3J
QMaPuUA137LBTJHPQKX0N0AUmZnBw/69QMzIYUBTBK3BvM+xQBdAKUC6TKPB6aHlQHYAP0C2NrPB
ltkHQbiwOkA4iqzBel1BQFXjS8AiMZDBH7SFQMdaQEAHE6DBB78vQNNHYEDTlZHB+0DcQF6e1T9I
SbfB1WvEQAgDnUAA6KnBZTojQJBDp7/HjZrBReyuQKvETkCOHI7Bty+8QLLrnsAqgo3BpyfWQO6q
TsAPT5rBqWnDQHkXJ8C6Va3BDc/eQDXRY7/x07nBtIGQQEor9D6c9JjBzm9hQCzrnMAtUofBtAsH
Qb9xsEAl17TBT4zyQCt4wEDozMDBVcDRQCcKc0Aki8LBt0oFQX1YZkCFFsHBn3/OQIpZ2kBd5q/B
HdysQD5xuEAy5bfBGcHiQLJE/D8FHpjBl/zkQN9TbkDLM5vBO8+iQGl1X0BxmbLBmWkFQV8FEUBu
jaXBTM0UQTulIEC4h7HBJzAMQf9fe0DI06nBwrNbQEqvREA7YaXBT6spQASsbUCfzInBsib4PyiE
X0AJTpbBbiZHQIHDTMCedY/B5oleQAN0DsCM/JbB+2e7QGLLyr9hVKzBYD3LQD0NGb+5PLPB5Xuh
QBycEj6tMqDBwy+CQOyxhMAFG4zBwt+mQOqQm79fvqLBXTmZQAVtD8BtEpvBmaSyQIdrkj+f5abB
78bHQDv2Qj9vh7DBBW22QJ1dTsA4ZJfBeFl+QLOjV0A7NpbBpY7zQHFRq0AB57jB237tQNhveUBh
rLzBfF3NQB9SuUCu6rHBhS7NQKs1MkDmGpnBO2C+QPkaYUB9oKzBY+ywQFtPJkAZKqPBUSzlQMXe
PEBzF7PBTbMHQQcWM0ALk6zBNJSqQMOthMBSCZDBcEiEQN+kO0A/D6DBhvguQBz5aEBz1pHBkPXZ
QHad1T+ogLfBXRbHQLfKm0CfJ6nBhHXfQKuwTsA555rBc3evQLaWckDn2o/BMfEGQBRMTsArRIzB
2RkxQLdxvb/Cl5nBE/O+QAw2KMCWW67BxC/aQFZNYr/3rrrBDRuQQM1i2D58EpnBdGpyQNGBnMCD
QobB2poIQZitrUCEMrTBTcX1QLltwEAg7L/BHgrSQBZ7dkD1KsLBkEkFQYFwZEBx4cDBu6vTQK1x
2UCxrq7BO0KwQIIkukB93LbBTnDUQKI25z8Ag5XB/zfrQOKVUkBNRJvBORWjQE4cY0C0LbLB0vME
QbonCECWvKXBMDoUQRYBGEASv7HB5NQMQX80ckD6o6nBEHFXQDMnNUBqH6XBdLgqQKUSg0CqvIrB
npbzPzFXWEAfxpXB

> <OMEGA_E>
1O+KPsAY1D4=

> <OMEGA_NBR>
    171026

$$$$
50249256
  -OEChem-04172616093D

 49 53  0     1  0  0  0  0  0999 V2000
    5.9447   -1.5756  -21.5017 C   0  0  0  0  0  0  0  0  0  0  0  0
    6.4298   -0.5940  -22.3778 C   0  0  0  0  0  0  0  0  0  0  0  0
    5.0978    0.1655  -20.0200 C   0  0  0  0  0  0  0  0  0  0  0  0
    5.6584   -3.1924  -18.9100 C   0  0  0  0  0  0  0  0  0  0  0  0
    3.4549   -2.1346  -18.9261 C   0  0  0  0  0  0  0  0  0  0  0  0
    3.8726   -4.0635  -17.4962 C   0  0  0  0  0  0  0  0  0  0  0  0
    5.2703   -1.1922  -20.3277 C   0  0  0  0  0  0  0  0  0  0  0  0
    4.7842   -2.1965  -19.3900 C   0  0  0  0  0  0  0  0  0  0  0  0
    5.6260    1.1590  -20.8636 C   0  0  0  0  0  0  0  0  0  0  0  0
    6.2932    0.7702  -22.0619 C   0  0  0  0  0  0  0  0  0  0  0  0
    5.2078   -4.1115  -17.9465 C   0  0  0  0  0  0  0  0  0  0  0  0
    2.9945   -3.0805  -17.9958 C   0  0  0  0  0  0  0  0  0  0  0  0
    3.9896    3.2944  -18.7535 C   0  0  0  0  0  0  0  0  0  0  0  0
    7.5519    5.3823  -23.1576 C   0  0  0  0  0  0  0  0  0  0  0  0
    7.3966    3.9171  -23.6151 C   0  0  0  0  0  0  0  0  0  0  0  0
    6.3503    5.8018  -22.2868 C   0  0  0  0  0  0  0  0  0  0  0  0
    6.4630    2.8250  -19.1712 C   0  0  0  0  0  0  0  0  0  0  0  0
    5.9412    3.5238  -21.6031 C   0  0  2  0  0  0  0  0  0  0  0  0
    5.5547    2.6146  -20.4067 C   0  0  1  0  0  0  0  0  0  0  0  0
    7.1629    2.9754  -22.4090 C   0  0  2  0  0  0  0  0  0  0  0  0
    8.4869    2.8587  -21.5952 C   0  0  0  0  0  0  0  0  0  0  0  0
    4.1609    2.9332  -20.0067 N   0  3  0  0  0  0  0  0  0  0  0  0
    2.7428    3.5456  -18.2118 N   0  0  0  0  0  0  0  0  0  0  0  0
    6.8413    1.6780  -22.9458 O   0  0  0  0  0  0  0  0  0  0  0  0
    6.1781    4.8862  -21.1833 O   0  0  0  0  0  0  0  0  0  0  0  0
    6.0610   -5.0330  -17.4473 F   0  0  0  0  0  0  0  0  0  0  0  0
    5.4859    3.6144  -17.8886 S   0  0  0  0  0  0  0  0  0  0  0  0
    1.3342   -3.0311  -17.4662 Cl  0  0  0  0  0  0  0  0  0  0  0  0
    6.0882   -2.6221  -21.7271 H   0  0  0  0  0  0  0  0  0  0  0  0
    6.9107   -0.8866  -23.2995 H   0  0  0  0  0  0  0  0  0  0  0  0
    4.5562    0.4494  -19.1298 H   0  0  0  0  0  0  0  0  0  0  0  0
    6.6710   -3.2492  -19.2812 H   0  0  0  0  0  0  0  0  0  0  0  0
    2.7918   -1.3614  -19.2852 H   0  0  0  0  0  0  0  0  0  0  0  0
    3.5224   -4.7802  -16.7681 H   0  0  0  0  0  0  0  0  0  0  0  0
    8.4773    5.4833  -22.5717 H   0  0  0  0  0  0  0  0  0  0  0  0
    7.6045    6.0348  -24.0416 H   0  0  0  0  0  0  0  0  0  0  0  0
    6.5382    3.8438  -24.2990 H   0  0  0  0  0  0  0  0  0  0  0  0
    8.3117    3.6065  -24.1407 H   0  0  0  0  0  0  0  0  0  0  0  0
    6.5251    6.8139  -21.8929 H   0  0  0  0  0  0  0  0  0  0  0  0
    5.4392    5.8005  -22.9031 H   0  0  0  0  0  0  0  0  0  0  0  0
    6.8348    1.8540  -18.8122 H   0  0  0  0  0  0  0  0  0  0  0  0
    7.3146    3.4673  -19.4396 H   0  0  0  0  0  0  0  0  0  0  0  0
    5.0836    3.5236  -22.2919 H   0  0  0  0  0  0  0  0  0  0  0  0
    8.3315    2.1910  -20.7349 H   0  0  0  0  0  0  0  0  0  0  0  0
    9.2782    2.4481  -22.2395 H   0  0  0  0  0  0  0  0  0  0  0  0
    8.7859    3.8548  -21.2368 H   0  0  0  0  0  0  0  0  0  0  0  0
    3.3983    2.8766  -20.6511 H   0  0  0  0  0  0  0  0  0  0  0  0
    2.6654    3.9255  -17.2901 H   0  0  0  0  0  0  0  0  0  0  0  0
    1.9183    3.3473  -18.7418 H   0  0  0  0  0  0  0  0  0  0  0  0
  1  2  2  0  0  0  0
  1  7  1  0  0  0  0
  2 10  1  0  0  0  0
  3  7  2  0  0  0  0
  3  9  1  0  0  0  0
  4  8  1  0  0  0  0
  4 11  2  0  0  0  0
  5  8  2  0  0  0  0
  5 12  1  0  0  0  0
  6 11  1  0  0  0  0
  6 12  2  0  0  0  0
  7  8  1  0  0  0  0
  9 10  2  0  0  0  0
  9 19  1  0  0  0  0
 10 24  1  0  0  0  0
 11 26  1  0  0  0  0
 12 28  1  0  0  0  0
 13 22  2  0  0  0  0
 13 23  1  0  0  0  0
 13 27  1  0  0  0  0
 14 15  1  0  0  0  0
 14 16  1  0  0  0  0
 15 20  1  0  0  0  0
 16 25  1  0  0  0  0
 17 19  1  0  0  0  0
 17 27  1  0  0  0  0
 18 19  1  0  0  0  0
 18 20  1  0  0  0  0
 18 25  1  0  0  0  0
 19 22  1  0  0  0  0
 20 21  1  0  0  0  0
 20 24  1  0  0  0  0
  1 29  1  0  0  0  0
  2 30  1  0  0  0  0
  3 31  1  0  0  0  0
  4 32  1  0  0  0  0
  5 33  1  0  0  0  0
  6 34  1  0  0  0  0
 14 35  1  0  0  0  0
 14 36  1  0  0  0  0
 15 37  1  0  0  0  0
 15 38  1  0  0  0  0
 16 39  1  0  0  0  0
 16 40  1  0  0  0  0
 17 41  1  0  0  0  0
 17 42  1  0  0  0  0
 18 43  1  0  0  0  0
 21 44  1  0  0  0  0
 21 45  1  0  0  0  0
 21 46  1  0  0  0  0
 22 47  1  0  0  0  0
 23 48  1  0  0  0  0
 23 49  1  0  0  0  0
M  CHG  1  22   1
M  END
> <OMEGA_C>
7Tq+QGOuyb9yA6zBNsHNQOoQGL/BBbPBSSGjQHBsKT7iKKDBQBG1QDxQTMC2R5fBOx1dQPqcCMCt
aJfBSNh3QDEIgsA2+IvBAqaoQFmZmL8tn6LB4xeZQBSUDMCrHpvB2Ae0QLpblD+W6KbBNGLJQOQo
RT/IfrDBlKamQLSRg8Biko/BWKU/QHQmRcB+94/BEFZ/QGrXUkAZB5bB0qjxQDI8rEC6QrnB97Ds
QACxekC667zBgTXLQESouUBNS7LBgdDOQNrMNECXXpnBOx6+QD6FYUAd06zByr+xQI5VJ0ACQaPB
TzblQIJtPkCRRbPBcsoHQdD0NkDkwqzBeCaFQFK5O0CwDaDB7okvQGjqYkDcsZHBo+vaQBLK1j//
kLfBmrLFQIRbnEBcd6nBvvPBQDoOocANlIvBsYyvQB5SZ0DEG4/B0MaqPyj+QcDHuovBOtLCQLXP
J8Ao0a3BIiTdQOP5Yr90ZbrBQ8yRQH0b5j7TCZnBjXjVQNvyT8DyP5rBS60yQFVDrr8hSJrBzm5h
QH/3mMAdJYbBK6MHQZN3r0DJkrTBP1jzQBUdwUA/VcDBtzjRQBYBdkBhZMLBjfwEQT7QZkAOIMHB
j83QQBYL2kCQJK/B1w2uQAKeuUCgObfBELfaQM9Q7T9Mf5bBbhHqQAjpXUBJhJvBy6yiQAWDYUDm
VbLB4k0FQd45DEAL4aXBp3MUQYytHECZ6rHBH5MMQXa0dkDp5KnBg35ZQDgaOEBnNaXBgJUqQNA6
e0AOUorBIIr1P7M6VkBD75XBasi9QBS/yb+zAqzBaHrNQNc5GL8S/bLB6UaiQGhXJj59MqDBDwhe
QDtWCsDwFpfBHqW1QGRrTcBOiZfBo397QE/Mg8DyC4zBZwaoQDgYmb/qoaLBeDGZQKFjDcC+FJvB
b3+zQKoalD+A6abBjRXJQMW7RD/KdrDBQUpCQOBOSMArtY/B0xyoQBHGhMBS5I/BwTl/QLDTVEAA
HZbBSwzyQMDzq0CIOrnBRb/sQJA3ekA85LzBQ8vLQHCWuUBoN7LBAQvOQOoxNEDJRpnB6C++QH1/
YUBPyazB2GaxQN4vJ0BRQKPB+DflQKYSPkDjO7PBOtIHQW9XNkAtwazBgMeEQKjyO0CrFaDBW6Mv
QN1LY0DbpJHB+NDaQMxO1j9FhbfB7CHGQI86nEBvZqnBzrLhPyyoRsAlFYzBr7mvQNPQcEB0v4/B
Dh/MQIe1qsBOC4vBj2DCQCXSJ8Cy063BmgbdQFITY7+BV7rBu42QQCOS5D7oIpnBMdwyQIkWsb/0
sZnBlcnVQBJAUMD1sJrBlV9mQBRPm8B2SobBteEHQWH/rkC/krTBY7vzQBTXwECbTMDBSjDRQGDf
dUDcVsLBdvQEQev8ZUAXH8HBbrHRQJLj2UCsC6/B3ZOuQGjYuUDKH7fButjWQNGT6z9+2ZXBcznr
QOVWV0COfpvBiNCiQOsiYkCMUbLB5FUFQaCzC0AR3aXBg20UQUHWG0DG7LHBLK4MQaQKdkD85qnB
WYxYQEBRN0BdMqXBPfMqQDTtfkCmc4rBcHf1PwUjUkAdmpXB

> <OMEGA_E>
iKLCPlBUwz4=

> <OMEGA_NBR>
    172995

$$$$
50249216
  -OEChem-04172616093D

 45 49  0     1  0  0  0  0  0999 V2000
    5.1966   -4.2332  -18.1200 C   0  0  0  0  0  0  0  0  0  0  0  0
    5.6241   -3.2682  -19.0406 C   0  0  0  0  0  0  0  0  0  0  0  0
    5.8674   -1.5778  -21.5307 C   0  0  0  0  0  0  0  0  0  0  0  0
    6.4107   -0.5930  -22.3686 C   0  0  0  0  0  0  0  0  0  0  0  0
    5.0764    0.1507  -20.0068 C   0  0  0  0  0  0  0  0  0  0  0  0
    3.8902   -4.1532  -17.5988 C   0  0  0  0  0  0  0  0  0  0  0  0
    5.1940   -1.2078  -20.3499 C   0  0  0  0  0  0  0  0  0  0  0  0
    4.7342   -2.2433  -19.4141 C   0  0  0  0  0  0  0  0  0  0  0  0
    5.6788    1.1446  -20.8086 C   0  0  0  0  0  0  0  0  0  0  0  0
    6.3232    0.7652  -22.0162 C   0  0  0  0  0  0  0  0  0  0  0  0
    3.4287   -2.2243  -18.8598 C   0  0  0  0  0  0  0  0  0  0  0  0
    4.0601    3.1714  -18.8299 C   0  0  0  0  0  0  0  0  0  0  0  0
    6.8816    5.4016  -23.4457 C   0  0  0  0  0  0  0  0  0  0  0  0
    7.3454    3.9402  -23.5822 C   0  0  0  0  0  0  0  0  0  0  0  0
    6.8108    5.8143  -21.9622 C   0  0  0  0  0  0  0  0  0  0  0  0
    6.2823    2.6897  -18.9146 C   0  0  0  0  0  0  0  0  0  0  0  0
    6.4440    3.0320  -22.7288 C   0  0  2  0  0  0  0  0  0  0  0  0
    6.5141    3.5130  -21.2716 C   0  0  2  0  0  0  0  0  0  0  0  0
    5.7035    2.5947  -20.3197 C   0  0  1  0  0  0  0  0  0  0  0  0
    3.0351   -3.1697  -17.9722 N   0  0  0  0  0  0  0  0  0  0  0  0
    4.3293    3.0872  -20.1179 N   0  3  0  0  0  0  0  0  0  0  0  0
    2.8446    3.5680  -18.3008 N   0  0  0  0  0  0  0  0  0  0  0  0
    6.9179    1.6815  -22.8538 O   0  0  0  0  0  0  0  0  0  0  0  0
    5.1400    2.7797  -18.0687 O   0  0  0  0  0  0  0  0  0  0  0  0
    6.0186    4.8732  -21.2085 O   0  0  0  0  0  0  0  0  0  0  0  0
    2.5289   -1.2902  -19.2535 F   0  0  0  0  0  0  0  0  0  0  0  0
    5.8599   -5.0285  -17.8136 H   0  0  0  0  0  0  0  0  0  0  0  0
    6.6197   -3.3096  -19.4569 H   0  0  0  0  0  0  0  0  0  0  0  0
    5.9654   -2.6213  -21.7912 H   0  0  0  0  0  0  0  0  0  0  0  0
    6.8986   -0.8793  -23.2886 H   0  0  0  0  0  0  0  0  0  0  0  0
    4.5220    0.4355  -19.1248 H   0  0  0  0  0  0  0  0  0  0  0  0
    3.5619   -4.8935  -16.8843 H   0  0  0  0  0  0  0  0  0  0  0  0
    7.5935    6.0567  -23.9692 H   0  0  0  0  0  0  0  0  0  0  0  0
    5.8846    5.5078  -23.8980 H   0  0  0  0  0  0  0  0  0  0  0  0
    7.2819    3.6328  -24.6365 H   0  0  0  0  0  0  0  0  0  0  0  0
    8.3860    3.8523  -23.2367 H   0  0  0  0  0  0  0  0  0  0  0  0
    7.8289    5.8438  -21.5466 H   0  0  0  0  0  0  0  0  0  0  0  0
    6.3548    6.8124  -21.8864 H   0  0  0  0  0  0  0  0  0  0  0  0
    6.8745    1.7940  -18.6757 H   0  0  0  0  0  0  0  0  0  0  0  0
    6.9138    3.5846  -18.8130 H   0  0  0  0  0  0  0  0  0  0  0  0
    5.4070    3.1127  -23.0870 H   0  0  0  0  0  0  0  0  0  0  0  0
    7.5664    3.4922  -20.9520 H   0  0  0  0  0  0  0  0  0  0  0  0
    3.6928    3.3235  -20.8520 H   0  0  0  0  0  0  0  0  0  0  0  0
    2.7112    3.5817  -17.3098 H   0  0  0  0  0  0  0  0  0  0  0  0
    2.0995    3.8410  -18.9093 H   0  0  0  0  0  0  0  0  0  0  0  0
  1  2  1  0  0  0  0
  1  6  2  0  0  0  0
  2  8  2  0  0  0  0
  3  4  2  0  0  0  0
  3  7  1  0  0  0  0
  4 10  1  0  0  0  0
  5  7  2  0  0  0  0
  5  9  1  0  0  0  0
  6 20  1  0  0  0  0
  7  8  1  0  0  0  0
  8 11  1  0  0  0  0
  9 10  2  0  0  0  0
  9 19  1  0  0  0  0
 10 23  1  0  0  0  0
 11 20  2  0  0  0  0
 11 26  1  0  0  0  0
 12 21  2  0  0  0  0
 12 22  1  0  0  0  0
 12 24  1  0  0  0  0
 13 14  1  0  0  0  0
 13 15  1  0  0  0  0
 14 17  1  0  0  0  0
 15 25  1  0  0  0  0
 16 19  1  0  0  0  0
 16 24  1  0  0  0  0
 17 18  1  0  0  0  0
 17 23  1  0  0  0  0
 18 19  1  0  0  0  0
 18 25  1  0  0  0  0
 19 21  1  0  0  0  0
  1 27  1  0  0  0  0
  2 28  1  0  0  0  0
  3 29  1  0  0  0  0
  4 30  1  0  0  0  0
  5 31  1  0  0  0  0
  6 32  1  0  0  0  0
 13 33  1  0  0  0  0
 13 34  1  0  0  0  0
 14 35  1  0  0  0  0
 14 36  1  0  0  0  0
 15 37  1  0  0  0  0
 15 38  1  0  0  0  0
 16 39  1  0  0  0  0
 16 40  1  0  0  0  0
 17 41  1  0  0  0  0
 18 42  1  0  0  0  0
 21 43  1  0  0  0  0
 22 44  1  0  0  0  0
 22 45  1  0  0  0  0
M  CHG  1  21   1
M  END
> <OMEGA_C>
f0qmQCB2h8DZ9ZDBdvizQHwqUcAMU5jB5cG7QI30yb/wPqzBzSTNQJrPF7/V8rLBBXKiQJdHGj73
DaDBzvh4QO3mhMBiyozBbzWmQEaYmr+lzKLBf36XQHaRD8AnUJvBDLm1QMqBkj8AeKbBDljKQDLk
Qz81IbDBmnBbQNFaDsD24JbBE+yBQPj4SkCWo5bBSjbcQKfZrEC/kLvBXQ3rQBssfEBtqLzBR/LZ
QKkOukCTsq/BZwjJQB4kLEADUZfBFDXOQNkLQkCl1LXBqnPQQCnVYEBULKrBxYK2QAwPJkDGjqLB
kj9CQCXdSsD+xo/B5YmKQNyURUBw8aDBhA02QN1aZEDwZ5LBy1/dQNU51z981LbB1XqkQO/lMUCc
jJDBm5jAQCDxm0ANq6nBUNohQOclpb8/B5rBiYS7QD/poMBYgo7B+dTTQDvRU8Cwp5vBnuS+QKbD
J8BJVK7B98DcQGIcYb8OT7rBlbSQQNX+3j6k/5jBpvVjQKeXnMAPE4fBm/3yQLnQwUDlwL/BfU68
QMI/sEAnL7/BiAXpQLB/aECRF8XBCi0GQeeMdkC95LnB/4X6QCsAu0BhX6zBeFrLQHf/2UBiF6/B
j/vbQE+i5T/LZ5XBwD3dQG5qZUD/gJbBhQatQHA2R0AVsrjBQCDyQG9/X0CinafBRFZsQJa0VEDt
0KbBhoQtQHY6ZUBseorBb14GQDjTdUBQRpfBYxtJQEcvTsAWIo/B2zhdQJoJD8Ces5bBHEW2QGWE
yb+QDa3BPmPIQEiYFb9OjrPBpPmgQD4oAj4fJKDBcnqDQLw3hsAyfYzBZrujQLiNnL8vLaPBFjqX
QM34EMBri5vB+ja0QOZfkD9sfKbBcG/IQPbpQT8ROLDBOvO0QEgWUcBhfZjBSIqBQJSyTkAzg5bB
gv3hQEDAq0BdD7vBlrfwQCCTeUAMn7vBVGvZQFOeuUDNZK/BsorHQAMkKUDpIZfBiorQQBUoQUA6
jbXBSHvPQPwzYEDD5qnBjDq1QFmKJECdbaLBqq6qQKd8hsBPG5HBHEGJQMQ+RED8zKDBbpc5QPNS
ckCmPpLBzE/eQIw91D+ycLbBQvCiQKRfMECbbZDBEky+QK4nm0CF8anBXjbdQILhUMANiJzBGOYK
QEEhT8B0XovB81wvQBYNvL+4w5jB4oO2QAfIJsAQnK/B713WQP1jWr/QKLvBRROQQJfQzD6D7ZjB
r2h3QFtunsBxo4bBvxX7QAJQwEBteb7B7WDEQNJlr0DMur/B31HyQNMWZUDrB8TBzUQIQXhqc0A4
8LfBSRn4QGL3u0CeHqvB35nJQFwQ2UCaaq/BHrjZQDaW3T+GPJXBd2/cQKpYYUCXPZbBUJywQDpQ
SUC9HLnB9JLwQGTXYUC/6KbBcZVoQFIdUEAKqabB9t0yQF0kd0DUT4rBxi4LQNahg0CKF5fB

> <OMEGA_E>
pOyZPggD4D4=

> <OMEGA_NBR>
    174851

$$$$
50294896
  -OEChem-04172616093D

 53 58  0     1  0  0  0  0  0999 V2000
    5.1029   -3.7173  -17.3227 C   0  0  0  0  0  0  0  0  0  0  0  0
    5.6412   -2.7416  -18.1769 C   0  0  0  0  0  0  0  0  0  0  0  0
    5.9986   -1.6024  -21.3019 C   0  0  0  0  0  0  0  0  0  0  0  0
    6.8566    5.1976  -23.6157 C   0  0  0  0  0  0  0  0  0  0  0  0
    6.5050   -0.6318  -22.1807 C   0  0  0  0  0  0  0  0  0  0  0  0
    7.0560    3.8097  -23.6964 C   0  0  0  0  0  0  0  0  0  0  0  0
    5.2370    0.1644  -19.8051 C   0  0  0  0  0  0  0  0  0  0  0  0
    5.8917    4.9174  -21.3964 C   0  0  0  0  0  0  0  0  0  0  0  0
    3.7701   -4.1399  -17.5137 C   0  0  0  0  0  0  0  0  0  0  0  0
    5.3632   -1.2039  -20.1132 C   0  0  0  0  0  0  0  0  0  0  0  0
    4.8279   -2.2171  -19.1977 C   0  0  0  0  0  0  0  0  0  0  0  0
    6.2833    5.7582  -22.4585 C   0  0  0  0  0  0  0  0  0  0  0  0
    5.7444    1.1508  -20.6870 C   0  0  0  0  0  0  0  0  0  0  0  0
    6.0569    3.5128  -21.4836 C   0  0  0  0  0  0  0  0  0  0  0  0
    6.3822    0.7437  -21.8905 C   0  0  0  0  0  0  0  0  0  0  0  0
    6.6615    2.9572  -22.6436 C   0  0  0  0  0  0  0  0  0  0  0  0
    3.4991   -2.6835  -19.3370 C   0  0  0  0  0  0  0  0  0  0  0  0
    5.3934    7.8937  -23.3321 C   0  0  0  0  0  0  0  0  0  0  0  0
    6.0981    7.2176  -22.3534 C   0  0  0  0  0  0  0  0  0  0  0  0
    4.1264    3.4914  -18.7878 C   0  0  0  0  0  0  0  0  0  0  0  0
    5.1974    9.4018  -23.2725 C   0  0  0  0  0  0  0  0  0  0  0  0
    6.7088    7.9674  -21.1727 C   0  0  0  0  0  0  0  0  0  0  0  0
    6.1130    9.3809  -21.0326 C   0  0  0  0  0  0  0  0  0  0  0  0
    6.3493    2.9664  -19.0354 C   0  0  0  0  0  0  0  0  0  0  0  0
    5.6029    2.6255  -20.3278 C   0  0  2  0  0  0  0  0  0  0  0  0
    2.9967   -3.6262  -18.5023 N   0  0  0  0  0  0  0  0  0  0  0  0
    4.2029    2.9246  -19.9751 N   0  3  0  0  0  0  0  0  0  0  0  0
    2.9481    3.9221  -18.1984 N   0  0  0  0  0  0  0  0  0  0  0  0
    6.9131    1.6068  -22.8375 O   0  0  0  0  0  0  0  0  0  0  0  0
    5.3748    3.6315  -18.2171 O   0  0  0  0  0  0  0  0  0  0  0  0
    6.0914   10.0284  -22.3202 O   0  0  0  0  0  0  0  0  0  0  0  0
    2.7083   -2.1877  -20.3191 F   0  0  0  0  0  0  0  0  0  0  0  0
    5.7016   -4.1393  -16.5291 H   0  0  0  0  0  0  0  0  0  0  0  0
    6.6585   -2.4010  -18.0528 H   0  0  0  0  0  0  0  0  0  0  0  0
    6.0969   -2.6516  -21.5384 H   0  0  0  0  0  0  0  0  0  0  0  0
    7.1426    5.8338  -24.4402 H   0  0  0  0  0  0  0  0  0  0  0  0
    6.9954   -0.9421  -23.0915 H   0  0  0  0  0  0  0  0  0  0  0  0
    7.5181    3.3888  -24.5771 H   0  0  0  0  0  0  0  0  0  0  0  0
    4.7495    0.4644  -18.8893 H   0  0  0  0  0  0  0  0  0  0  0  0
    5.4605    5.3493  -20.5054 H   0  0  0  0  0  0  0  0  0  0  0  0
    3.3559   -4.8904  -16.8567 H   0  0  0  0  0  0  0  0  0  0  0  0
    4.9723    7.3391  -24.1576 H   0  0  0  0  0  0  0  0  0  0  0  0
    5.3885    9.8243  -24.2700 H   0  0  0  0  0  0  0  0  0  0  0  0
    4.1592    9.6135  -22.9773 H   0  0  0  0  0  0  0  0  0  0  0  0
    6.5106    7.4028  -20.2496 H   0  0  0  0  0  0  0  0  0  0  0  0
    7.7950    8.0508  -21.3253 H   0  0  0  0  0  0  0  0  0  0  0  0
    5.0870    9.3083  -20.6425 H   0  0  0  0  0  0  0  0  0  0  0  0
    6.7288    9.9701  -20.3372 H   0  0  0  0  0  0  0  0  0  0  0  0
    6.7102    2.0515  -18.5428 H   0  0  0  0  0  0  0  0  0  0  0  0
    7.2007    3.6314  -19.2428 H   0  0  0  0  0  0  0  0  0  0  0  0
    3.4163    2.7241  -20.5591 H   0  0  0  0  0  0  0  0  0  0  0  0
    2.9703    4.3665  -17.3028 H   0  0  0  0  0  0  0  0  0  0  0  0
    2.0758    3.7884  -18.6687 H   0  0  0  0  0  0  0  0  0  0  0  0
  1  2  1  0  0  0  0
  1  9  2  0  0  0  0
  2 11  2  0  0  0  0
  3  5  2  0  0  0  0
  3 10  1  0  0  0  0
  4  6  2  0  0  0  0
  4 12  1  0  0  0  0
  5 15  1  0  0  0  0
  6 16  1  0  0  0  0
  7 10  2  0  0  0  0
  7 13  1  0  0  0  0
  8 12  2  0  0  0  0
  8 14  1  0  0  0  0
  9 26  1  0  0  0  0
 10 11  1  0  0  0  0
 11 17  1  0  0  0  0
 12 19  1  0  0  0  0
 13 15  2  0  0  0  0
 13 25  1  0  0  0  0
 14 16  2  0  0  0  0
 14 25  1  0  0  0  0
 15 29  1  0  0  0  0
 16 29  1  0  0  0  0
 17 26  2  0  0  0  0
 17 32  1  0  0  0  0
 18 19  2  0  0  0  0
 18 21  1  0  0  0  0
 19 22  1  0  0  0  0
 20 27  2  0  0  0  0
 20 28  1  0  0  0  0
 20 30  1  0  0  0  0
 21 31  1  0  0  0  0
 22 23  1  0  0  0  0
 23 31  1  0  0  0  0
 24 25  1  0  0  0  0
 24 30  1  0  0  0  0
 25 27  1  0  0  0  0
  1 33  1  0  0  0  0
  2 34  1  0  0  0  0
  3 35  1  0  0  0  0
  4 36  1  0  0  0  0
  5 37  1  0  0  0  0
  6 38  1  0  0  0  0
  7 39  1  0  0  0  0
  8 40  1  0  0  0  0
  9 41  1  0  0  0  0
 18 42  1  0  0  0  0
 21 43  1  0  0  0  0
 21 44  1  0  0  0  0
 22 45  1  0  0  0  0
 22 46  1  0  0  0  0
 23 47  1  0  0  0  0
 23 48  1  0  0  0  0
 24 49  1  0  0  0  0
 24 50  1  0  0  0  0
 27 51  1  0  0  0  0
 28 52  1  0  0  0  0
 28 53  1  0  0  0  0
M  CHG  1  27   1
M  END
> <OMEGA_C>
00qjQK3obcDylIrBrIS0QC13L8BbapHBh/S/QKwbzb9jaqrBYGnbQMZSpkAO7bzB2SjQQHC9Ib8M
crHB6srhQPvRc0Alkr3BNpWnQCxVKD7ucJ7B/4i8QENbnUDLK6vBPElxQNp5hMD1G4zBDp+rQFEZ
mr/t56DBNn6aQH/lDcDRlJnBzBDJQIBDuEATq7PBLNK3QAdOkz8If6XBbNLBQGTSYEBY3qvBwDrM
QFNmPj+zH6/BOSvVQAtCPUAQJrXB0PFfQDi+K8ATsprBWJasQEWZ/EAeqLrB0yPDQIn25kDR07LB
GAuEQE9yX0BVTZbBeFGmQKdtFkESLrrBfK7WQJT0/kCdYanBUJ3DQCAYFkHCQqjBfy3LQMjZPUCB
SJjBVkuzQIIHKEBkn6LB1sk/QOATaMDDBJTBf36GQC8sO0AQzZ/BZq08QH8De0A6lpHBGjjdQEms
zT8ns7bBQv6rQEFraECtvJHB5OzCQDJ0IEHTj7LBp1QtQOcCDMB2jaLBxHO2QHB1hMCkO4TBnRLV
QO2pGcAwbJDB/hnDQNKzKcC2TqzBgpDkQOGuukCchcPBNNrfQAovcb9ru7jBU5TwQFziWEDxncTB
1vuXQK7L7T5SHZfBsryuQNktq0AEC6TBz8dWQPB9nMBz2obBAB2fQJXZ6kDEQsHBQW6sQGAwHUHr
KMLBARiFQArRGUFv0bfBs1bQQMLj7EA+/6HBPHD5QA3QAEFRmqrBs8iiQNTuFEHoI6XBMlLXQJWF
H0GZsqLBw7nWQGZLA0CpV5TB4WvmQCRoaEBa8ZnBgaRaQIZXLkD6eKTBCRo+QKW6i0AvbIrBStkE
QCB1ckBnWZXB9LRDQAUzUsB+z5DBkIlbQGfxEMBH45fBV1i7QI5EyL9ibKzBKMfoQJP9pkCdhbrB
s6PNQPyXFL/W3LLBM6ruQEvrdUAEh7vB9bqfQOy8GD7KYaDBqHm4QF4Nm0CufKvB48qAQB4ph8BU
e43BVMWlQBKsmb8r/6LBrTuYQNflDsC5i5vBaqrNQE7ItkAUerLBDE2yQEKEkj+T0KbBdDW/QI32
XUAAPqzBVsfKQEGFRD/v66/BNT7aQI+ZPUCfbrTBcPu1QKt7TMAL0pfBZUXrQLLg/kCTcLHBTh3I
QAE+5EADDrHBST+CQJ+zWUCLW5bBhL7mQHE5F0GbfK/BM3qbQF489UA9367BadiZQKOrEkHJArHB
S5XIQCtiNUCYGJnB5EavQBRCJUBTV6PB69qpQP5ChcBd7ZDBkx+DQGggO0B5LaDBSdU6QDu5c0Cx
HZHBcofiQEje0D9wFLbBM+uqQL9jX0BpHZLBQsC8QEy8HEFLY6vBVKnfQHxVSMA+0ZrBvawCQAl1
VsCc7o3BKcYtQJLYwr8Wd5rBhr69QEeyJsBfrK7Bl+v4QLXEvECU4b/BIQ3eQJy8W79OIrrBx34B
QUf9XEAoyMHByu2MQIEx2D4ueJnBbe+iQC6up0Bsg6XBAP9uQKRaoMD8CojBnjcFQS2c8UBJKLPB
ihD/QF8+HEEQpKnBVevrQOG+H0G8E7fBLnmEQPrh5EBsIbTBeA2TQAMZ70B7d6bB1POcQLytFUGC
pbnB23l2QPcyGUE2JK7BVILTQLVH8T/NlZXBZl/kQLymXkCGsprBD8xSQAzBM0B92KTBQpk+QBNI
hkAWwonByuUBQMiqbUC6sJTBTP07QE1Qb8BeIZbBzBFcQGLhLsD12pzBqIi/QN8/zb8Qs6vBBp3e
QGC1qEBF6bvBdtvQQHbBGr+RS7LBQdTkQF3CeEDr7LzBQj2mQFPM4z2hXZ/BC8S9QB1LnUBhd6rB
gzJxQK+xiMCCEI7B5ySqQP1en79yO6LBikmYQJBzEsA+TJvB8VzLQBdfuUBVnrLBMZS3QN0hkD8a
/KXBd9vCQHHkYEDtjKvB9wPNQCCHQj/tk6/BQyHXQFzgP0DR2rTBuVWxQAxCN8DJEJPBHQiwQCDj
/kATJbnBEp/FQJHy50DaYLHBONGCQPL+WUDJa5bBfv2pQDKKF0EWQrjBQ07YQABi/kAjl6fBGl/F
QADFFUG7K6bB8f3JQIW1N0D0F5jBISGzQHOMJUBSr6LBE0qhQC9qdcC9pozBoh+GQMaaOEBcEaDB
bHk5QL21dEC70ZHBoxzfQKW60z97wLbB9U+qQMzsYED7j5HBi+TFQIDkIEGQRbDByhvaQCCCHMDx
g5HB3rn2P0NCg8CBHpfBwbE0QGW4E8CYF6PBXaHCQBMyKcA+5K3BZpXoQAL6vUC2P8LB21rhQLFT
Yr/fjLnBAVP0QEbBX0DW/MPBfOWVQOeswj41EJjBg0qvQDAiqkCxTqPBuINYQLN4ocA25IjBYCmj
QAU67kAq/7/BswaxQNbeHkEPEMDB3pCIQHjcGkHXDbbB9xjRQHFE60CUbKDBKDH7QFuBAEGrj6jB
ZjWkQDx7FEGxSqPB+pTYQPq1HkGDTqDBGdPUQNmE9z/KW5TBH5zlQCknYkDMXZnBes5aQGanLUC/
9aTBr545QIB3h0CNhYrB22ECQGPCbUD+y5XB

> <OMEGA_E>
sjMyP7KmMz8Onz8/

> <OMEGA_NBR>
    177811

$$$$
50249259
  -OEChem-04172616093D

 50 54  0     1  0  0  0  0  0999 V2000
    6.0805   -5.0436  -17.4068 C   0  0  0  0  0  0  0  0  0  0  0  0
    2.9550   -3.0664  -18.0033 C   0  0  0  0  0  0  0  0  0  0  0  0
    3.8391   -4.0356  -17.4906 C   0  0  0  0  0  0  0  0  0  0  0  0
    3.4124   -2.1280  -18.9453 C   0  0  0  0  0  0  0  0  0  0  0  0
    5.9541   -1.5713  -21.4824 C   0  0  0  0  0  0  0  0  0  0  0  0
    6.4593   -0.5954  -22.3528 C   0  0  0  0  0  0  0  0  0  0  0  0
    5.6305   -3.1543  -18.8927 C   0  0  0  0  0  0  0  0  0  0  0  0
    5.0715    0.1775  -20.0309 C   0  0  0  0  0  0  0  0  0  0  0  0
    5.1782   -4.0729  -17.9314 C   0  0  0  0  0  0  0  0  0  0  0  0
    4.7496   -2.1783  -19.3935 C   0  0  0  0  0  0  0  0  0  0  0  0
    5.2469   -1.1805  -20.3300 C   0  0  0  0  0  0  0  0  0  0  0  0
    5.6220    1.1656  -20.8660 C   0  0  0  0  0  0  0  0  0  0  0  0
    6.3107    0.7703  -22.0504 C   0  0  0  0  0  0  0  0  0  0  0  0
    3.9942    3.2845  -18.7520 C   0  0  0  0  0  0  0  0  0  0  0  0
    7.5354    5.3841  -23.1743 C   0  0  0  0  0  0  0  0  0  0  0  0
    7.3941    3.9140  -23.6231 C   0  0  0  0  0  0  0  0  0  0  0  0
    6.3320    5.7983  -22.3033 C   0  0  0  0  0  0  0  0  0  0  0  0
    6.4535    2.8340  -19.1716 C   0  0  0  0  0  0  0  0  0  0  0  0
    5.9428    3.5231  -21.6105 C   0  0  2  0  0  0  0  0  0  0  0  0
    5.5520    2.6211  -20.4127 C   0  0  1  0  0  0  0  0  0  0  0  0
    7.1702    2.9775  -22.4110 C   0  0  2  0  0  0  0  0  0  0  0  0
    8.4965    2.8771  -21.6002 C   0  0  0  0  0  0  0  0  0  0  0  0
    6.8192   -5.8390  -16.9830 N   0  0  0  0  0  0  0  0  0  0  0  0
    4.1578    2.9473  -20.0131 N   0  3  0  0  0  0  0  0  0  0  0  0
    2.7498    3.4647  -18.1781 N   0  0  0  0  0  0  0  0  0  0  0  0
    6.8640    1.6727  -22.9368 O   0  0  0  0  0  0  0  0  0  0  0  0
    6.1714    4.8868  -21.1956 O   0  0  0  0  0  0  0  0  0  0  0  0
    5.4917    3.7340  -17.9541 S   0  0  0  0  0  0  0  0  0  0  0  0
    1.9269   -3.0439  -17.6732 H   0  0  0  0  0  0  0  0  0  0  0  0
    3.4914   -4.7505  -16.7596 H   0  0  0  0  0  0  0  0  0  0  0  0
    2.7422   -1.3708  -19.3248 H   0  0  0  0  0  0  0  0  0  0  0  0
    6.1070   -2.6190  -21.6953 H   0  0  0  0  0  0  0  0  0  0  0  0
    6.9648   -0.8934  -23.2595 H   0  0  0  0  0  0  0  0  0  0  0  0
    6.6502   -3.1970  -19.2459 H   0  0  0  0  0  0  0  0  0  0  0  0
    4.5107    0.4664  -19.1544 H   0  0  0  0  0  0  0  0  0  0  0  0
    8.4611    5.4975  -22.5910 H   0  0  0  0  0  0  0  0  0  0  0  0
    7.5799    6.0315  -24.0624 H   0  0  0  0  0  0  0  0  0  0  0  0
    6.5360    3.8282  -24.3060 H   0  0  0  0  0  0  0  0  0  0  0  0
    8.3118    3.6091  -24.1474 H   0  0  0  0  0  0  0  0  0  0  0  0
    6.4989    6.8139  -21.9150 H   0  0  0  0  0  0  0  0  0  0  0  0
    5.4195    5.7859  -22.9174 H   0  0  0  0  0  0  0  0  0  0  0  0
    6.7634    1.8616  -18.7613 H   0  0  0  0  0  0  0  0  0  0  0  0
    7.3449    3.4152  -19.4503 H   0  0  0  0  0  0  0  0  0  0  0  0
    5.0884    3.5172  -22.3034 H   0  0  0  0  0  0  0  0  0  0  0  0
    8.3489    2.2134  -20.7355 H   0  0  0  0  0  0  0  0  0  0  0  0
    9.2897    2.4694  -22.2441 H   0  0  0  0  0  0  0  0  0  0  0  0
    8.7878    3.8779  -21.2486 H   0  0  0  0  0  0  0  0  0  0  0  0
    3.3955    2.9128  -20.6594 H   0  0  0  0  0  0  0  0  0  0  0  0
    2.6734    3.8681  -17.2663 H   0  0  0  0  0  0  0  0  0  0  0  0
    1.9258    3.1916  -18.6746 H   0  0  0  0  0  0  0  0  0  0  0  0
  1  9  1  0  0  0  0
  1 23  3  0  0  0  0
  2  3  1  0  0  0  0
  2  4  2  0  0  0  0
  3  9  2  0  0  0  0
  4 10  1  0  0  0  0
  5  6  2  0  0  0  0
  5 11  1  0  0  0  0
  6 13  1  0  0  0  0
  7  9  1  0  0  0  0
  7 10  2  0  0  0  0
  8 11  2  0  0  0  0
  8 12  1  0  0  0  0
 10 11  1  0  0  0  0
 12 13  2  0  0  0  0
 12 20  1  0  0  0  0
 13 26  1  0  0  0  0
 14 24  2  0  0  0  0
 14 25  1  0  0  0  0
 14 28  1  0  0  0  0
 15 16  1  0  0  0  0
 15 17  1  0  0  0  0
 16 21  1  0  0  0  0
 17 27  1  0  0  0  0
 18 20  1  0  0  0  0
 18 28  1  0  0  0  0
 19 20  1  0  0  0  0
 19 21  1  0  0  0  0
 19 27  1  0  0  0  0
 20 24  1  0  0  0  0
 21 22  1  0  0  0  0
 21 26  1  0  0  0  0
  2 29  1  0  0  0  0
  3 30  1  0  0  0  0
  4 31  1  0  0  0  0
  5 32  1  0  0  0  0
  6 33  1  0  0  0  0
  7 34  1  0  0  0  0
  8 35  1  0  0  0  0
 15 36  1  0  0  0  0
 15 37  1  0  0  0  0
 16 38  1  0  0  0  0
 16 39  1  0  0  0  0
 17 40  1  0  0  0  0
 17 41  1  0  0  0  0
 18 42  1  0  0  0  0
 18 43  1  0  0  0  0
 19 44  1  0  0  0  0
 22 45  1  0  0  0  0
 22 46  1  0  0  0  0
 22 47  1  0  0  0  0
 24 48  1  0  0  0  0
 25 49  1  0  0  0  0
 25 50  1  0  0  0  0
M  CHG  1  24   1
M  END
> <OMEGA_C>
cJPCQIdlocA5QYvBLx89QCU/RMC8BpDBP7R1QFYjgcDG7IvBHWVaQHMwCMALkJfBN4i+QGwfyb/7
26vBuLLOQPlpGL+R0rLBAi20QJPgScAnJJfBF0qiQCy5NT5SP6DBCLSlQCxVgsB1c4/B7fyXQFVp
C8DVJZvBSuanQAAal7/Do6LBCeezQF0xlT+p7abBmfHJQLgzRT9SZ7DBb6B/QHU0UkAfBJbBxiHx
QCtKrEDtZLnBIpzsQD5+ekAy/LzBAaDKQNaLuUAbbbLBOoPOQJ1gNUCIX5nBOCu+QBp6YUBH4qzB
PqqxQFK/J0BDTaPBXXLlQJyPPkDASbPBgvEHQRojOEBDzazBLjfaQD3ZusAu3YfBiQyFQNOgPEDa
GqDBI/wvQPO8XUCqbJHByaXbQGAc1j+AfrfBYnzFQItgnECDkKnB2ruvQFn6bkDvoY/BMqb2PxPQ
QsDAYo3BpXJfQPQDmMCxE4bBBoEvQEN3r79FmZrB3GzDQFCdJ8AHkK3Bot/eQGC1ZL9yE7rBTc7U
QMybTMCw95nBnleQQATN7j4fPJnBn2AHQdXrr0BzurTBY47yQBQCwUDgf8DBvybRQKUBdUDFcsLB
EP0EQUb7ZkDdLcHBNvfPQFAL2kDbUa/BbWytQF8muUDDVrfBdW3YQPRI7j8dF5bBaAnrQASTWkA3
mpvBedSiQHYaYUBHbbLB/ZQFQcuoDUBd4qXBo6IUQQoLHkDY87HBp5oMQZ0veEAy/anB/09ZQO1r
OkCNRqXBnxgrQJ6Pd0BQIYrBw4H2P2NCTECVZZXBtCzZP+KdTMAaIIzBFN+oQJKbhcB2C5DBqAZ9
QJVahcAnOIzBEzS2QCbjTMAzb5fBubK9QMydyL/5uKvBeFHNQDvxF79gwLLBGmteQIZNC8Cx35bB
aXqhQAwDOj7tFKDBtThDQKFCS8Bot4/BGXGZQLqrDMCZ0JrBn7mnQDgcl78GZqLBv8OyQAT+lT8Z
26bBEanIQJdFRT9EVrDBbHV+QEeJU0BYE5bBTeHyQK9Bq0BRarnB1QztQMiweEDi+LzBw+nMQKCT
uUDPYrLBd9zNQDeyNUDoUZnBGGu+QKkKYkAE3azBQCSxQDCkKEDmSaPBCUjlQIB0PUBSPrPBcMoH
Qd2ONUA6t6zBPtYWPyYcTsD+OYnBvquEQPxjP0AMM6DBh5ouQJArXkDygpHB3I3aQLIV1T8icrfB
lObGQEd6nECUiKnBvw+vQPFab0DilY/BBhe/QPe0ncB/To3BPkJoQE14ncDzmYbBNXfWQM4dTsBC
h5rBj4HCQBNXJ8AudK3BKAfdQP1qZL8XEbrBMMkyQC7fsr9DVZnBkGKPQMLr8D61F5nBjVsIQXUn
rkBVzbTBVaX0QP/fv0CxiMDBB23RQJ+KdEDJZsLBxwgFQcuHY0BkMcHB0VXTQDTX2UBSQa/BaKWv
QEQwukDaRbfBfI7XQJGI7j/HDZbBOIXqQM2nWkCNgJvBgh6jQAkgY0DFarLBBSwFQT2GC0Bqx6XB
8GEUQc9EGkC61LHB6MAMQdFRdUAm7qnB0xVZQMxiP0BPdKXBklcpQOjLdkAlKIrBgCr0Pwg9TUBP
kJXB

> <OMEGA_E>
pF3lPhid5z4=

> <OMEGA_NBR>
    179807

$$$$
50249261
  -OEChem-04172616093D

 47 51  0     1  0  0  0  0  0999 V2000
    5.9646   -1.6120  -21.5134 C   0  0  0  0  0  0  0  0  0  0  0  0
    6.4664   -0.6115  -22.3587 C   0  0  0  0  0  0  0  0  0  0  0  0
    5.0184    0.0919  -20.0517 C   0  0  0  0  0  0  0  0  0  0  0  0
    5.6760   -3.3360  -19.0398 C   0  0  0  0  0  0  0  0  0  0  0  0
    3.4934   -2.3037  -18.8849 C   0  0  0  0  0  0  0  0  0  0  0  0
    4.0134   -4.2318  -17.6671 C   0  0  0  0  0  0  0  0  0  0  0  0
    5.2389   -1.2635  -20.3577 C   0  0  0  0  0  0  0  0  0  0  0  0
    4.7927   -2.3101  -19.4286 C   0  0  0  0  0  0  0  0  0  0  0  0
    5.5699    1.1084  -20.8644 C   0  0  0  0  0  0  0  0  0  0  0  0
    6.3014    0.7461  -22.0329 C   0  0  0  0  0  0  0  0  0  0  0  0
    3.9820    3.3562  -18.7748 C   0  0  0  0  0  0  0  0  0  0  0  0
    7.4943    5.4032  -23.0689 C   0  0  0  0  0  0  0  0  0  0  0  0
    7.3806    3.9361  -23.5358 C   0  0  0  0  0  0  0  0  0  0  0  0
    6.2667    5.7916  -22.2201 C   0  0  0  0  0  0  0  0  0  0  0  0
    6.3843    2.7557  -19.1436 C   0  0  0  0  0  0  0  0  0  0  0  0
    5.8875    3.4917  -21.5701 C   0  0  2  0  0  0  0  0  0  0  0  0
    5.4901    2.5589  -20.3934 C   0  0  1  0  0  0  0  0  0  0  0  0
    7.1455    2.9832  -22.3361 C   0  0  2  0  0  0  0  0  0  0  0  0
    8.4428    2.9281  -21.4741 C   0  0  0  0  0  0  0  0  0  0  0  0
    5.2767   -4.2763  -18.1592 N   0  0  0  0  0  0  0  0  0  0  0  0
    3.1199   -3.2731  -18.0214 N   0  0  0  0  0  0  0  0  0  0  0  0
    4.0928    2.8750  -19.9931 N   0  3  0  0  0  0  0  0  0  0  0  0
    2.8948    4.0890  -18.3357 N   0  0  0  0  0  0  0  0  0  0  0  0
    6.8873    1.6708  -22.8810 O   0  0  0  0  0  0  0  0  0  0  0  0
    6.0800    4.8593  -21.1332 O   0  0  0  0  0  0  0  0  0  0  0  0
    5.2742    2.7847  -17.7333 S   0  0  0  0  0  0  0  0  0  0  0  0
    6.1351   -2.6521  -21.7493 H   0  0  0  0  0  0  0  0  0  0  0  0
    6.9832   -0.8860  -23.2664 H   0  0  0  0  0  0  0  0  0  0  0  0
    4.4237    0.3575  -19.1901 H   0  0  0  0  0  0  0  0  0  0  0  0
    6.6755   -3.3697  -19.4477 H   0  0  0  0  0  0  0  0  0  0  0  0
    2.7968   -1.5249  -19.1579 H   0  0  0  0  0  0  0  0  0  0  0  0
    3.7055   -4.9912  -16.9636 H   0  0  0  0  0  0  0  0  0  0  0  0
    8.4057    5.5220  -22.4645 H   0  0  0  0  0  0  0  0  0  0  0  0
    7.5496    6.0608  -23.9490 H   0  0  0  0  0  0  0  0  0  0  0  0
    6.5368    3.8466  -24.2358 H   0  0  0  0  0  0  0  0  0  0  0  0
    8.3119    3.6484  -24.0454 H   0  0  0  0  0  0  0  0  0  0  0  0
    6.4175    6.8003  -21.8082 H   0  0  0  0  0  0  0  0  0  0  0  0
    5.3706    5.7861  -22.8580 H   0  0  0  0  0  0  0  0  0  0  0  0
    7.0977    1.9236  -19.0503 H   0  0  0  0  0  0  0  0  0  0  0  0
    6.9355    3.7050  -19.2147 H   0  0  0  0  0  0  0  0  0  0  0  0
    5.0520    3.4759  -22.2855 H   0  0  0  0  0  0  0  0  0  0  0  0
    8.2871    2.2540  -20.6190 H   0  0  0  0  0  0  0  0  0  0  0  0
    9.2754    2.5547  -22.0884 H   0  0  0  0  0  0  0  0  0  0  0  0
    8.6819    3.9370  -21.1068 H   0  0  0  0  0  0  0  0  0  0  0  0
    3.3081    2.7341  -20.5967 H   0  0  0  0  0  0  0  0  0  0  0  0
    2.8092    4.3255  -17.3679 H   0  0  0  0  0  0  0  0  0  0  0  0
    2.1941    4.3825  -18.9860 H   0  0  0  0  0  0  0  0  0  0  0  0
  1  2  2  0  0  0  0
  1  7  1  0  0  0  0
  2 10  1  0  0  0  0
  3  7  2  0  0  0  0
  3  9  1  0  0  0  0
  4  8  1  0  0  0  0
  4 20  2  0  0  0  0
  5  8  2  0  0  0  0
  5 21  1  0  0  0  0
  6 20  1  0  0  0  0
  6 21  2  0  0  0  0
  7  8  1  0  0  0  0
  9 10  2  0  0  0  0
  9 17  1  0  0  0  0
 10 24  1  0  0  0  0
 11 22  2  0  0  0  0
 11 23  1  0  0  0  0
 11 26  1  0  0  0  0
 12 13  1  0  0  0  0
 12 14  1  0  0  0  0
 13 18  1  0  0  0  0
 14 25  1  0  0  0  0
 15 17  1  0  0  0  0
 15 26  1  0  0  0  0
 16 17  1  0  0  0  0
 16 18  1  0  0  0  0
 16 25  1  0  0  0  0
 17 22  1  0  0  0  0
 18 19  1  0  0  0  0
 18 24  1  0  0  0  0
  1 27  1  0  0  0  0
  2 28  1  0  0  0  0
  3 29  1  0  0  0  0
  4 30  1  0  0  0  0
  5 31  1  0  0  0  0
  6 32  1  0  0  0  0
 12 33  1  0  0  0  0
 12 34  1  0  0  0  0
 13 35  1  0  0  0  0
 13 36  1  0  0  0  0
 14 37  1  0  0  0  0
 14 38  1  0  0  0  0
 15 39  1  0  0  0  0
 15 40  1  0  0  0  0
 16 41  1  0  0  0  0
 19 42  1  0  0  0  0
 19 43  1  0  0  0  0
 19 44  1  0  0  0  0
 22 45  1  0  0  0  0
 23 46  1  0  0  0  0
 23 47  1  0  0  0  0
M  CHG  1  22   1
M  END
> <OMEGA_C>
Ad6+QDRXzr9uG6zBduzOQGCMHL+t3rLBlJagQJJCvD3WaaDBKaK1QNWAVcB0UZjBcJRfQNpvE8A4
FJfBLm6AQMlqh8AhVo3BZ6WnQPC5ob963KLBlV2ZQB/ZE8DHbZvB4jyyQBvfjT9b6qbB2qTJQFwD
Pz9UQ7DB3dh+QPfLVkDLMpbBR9HvQObmrEAWjbjBeS3sQJPoe0A4SbzBEYnIQHpUuUCuwrHBcUzM
QCBdMEAkJpnBQ2a8QLN4X0CZj6zBOq+vQBvFI0CeJaPBI6jkQBbtPkBCsLLBmRUHQS5mO0AHy6vB
ZNqoQBnXiMAWRpHB16tHQEB6UcDAK5DBXfiCQGcAOEDg8Z/BSUQ5QA/ZgkCNr5LB02TcQKHc1T81
DLfBOY/CQAZ/m0DJEKnB98WoQDY5MkDL3Y3Bh1LEQM27KcB7/q3BGnbfQPjSYr+wIbrBPo+NQEoK
tz5jhZnBiZ3VQG2pV8DblJvB9v4yQCQvw79jQ5nB3CZtQKa3n8BgtYfBln0GQV20sEBIt7PBo5bx
QM/xwUB4l7/BTi3RQMIudkDj4sHBqf0EQXp/aUAQXcDB8VvNQFuc2UAjd67BWdyrQO8nuUA93bbB
kiDjQJs49j8FZ5jBjO/dQHEebUC7t5nBJKqhQA11XkCrSLLB05cEQTBBEECo86TB92cUQeZ/I0AH
tbDB+ugKQdz3e0Cj2qjBhLdTQAv8LkALxqTBzckzQGhqikBi8YrBB2wMQF49jEBa45fB

> <OMEGA_E>
WBKpPg==

> <OMEGA_NBR>
    180905

$$$$
50249220
  -OEChem-04172616093D

 48 52  0     1  0  0  0  0  0999 V2000
    5.3655   -4.3036  -18.1350 C   0  0  0  0  0  0  0  0  0  0  0  0
    5.8161   -3.3538  -19.0616 C   0  0  0  0  0  0  0  0  0  0  0  0
    6.1320   -1.6747  -21.5705 C   0  0  0  0  0  0  0  0  0  0  0  0
    6.6168   -0.6826  -22.4393 C   0  0  0  0  0  0  0  0  0  0  0  0
    5.1861    0.0465  -20.1306 C   0  0  0  0  0  0  0  0  0  0  0  0
    4.0409   -4.2272  -17.6603 C   0  0  0  0  0  0  0  0  0  0  0  0
    5.4059   -1.3114  -20.4174 C   0  0  0  0  0  0  0  0  0  0  0  0
    4.9327   -2.3406  -19.4790 C   0  0  0  0  0  0  0  0  0  0  0  0
    5.6736    1.0474  -20.9924 C   0  0  0  0  0  0  0  0  0  0  0  0
    6.4079    0.6792  -22.1520 C   0  0  0  0  0  0  0  0  0  0  0  0
    3.6091   -2.3220  -18.9639 C   0  0  0  0  0  0  0  0  0  0  0  0
    6.3391    2.8381  -19.3874 C   0  0  0  0  0  0  0  0  0  0  0  0
    4.1341    3.2636  -18.9284 C   0  0  0  0  0  0  0  0  0  0  0  0
    7.4120    5.3537  -23.2411 C   0  0  0  0  0  0  0  0  0  0  0  0
    7.3567    3.8899  -23.7175 C   0  0  0  0  0  0  0  0  0  0  0  0
    6.1311    5.7170  -22.4660 C   0  0  0  0  0  0  0  0  0  0  0  0
    7.0739    2.9550  -22.5285 C   0  0  1  0  0  0  0  0  0  0  0  0
    5.7905    3.4214  -21.8073 C   0  0  1  0  0  0  0  0  0  0  0  0
    5.4899    2.5040  -20.6048 C   0  0  1  0  0  0  0  0  0  0  0  0
    5.8064    3.6870  -17.0722 C   0  0  0  0  0  0  0  0  0  0  0  0
    3.1921   -3.2569  -18.0771 N   0  0  0  0  0  0  0  0  0  0  0  0
    5.4540    3.3670  -18.4617 N   0  0  0  0  0  0  0  0  0  0  0  0
    4.1203    2.7549  -20.1384 N   0  3  0  0  0  0  0  0  0  0  0  0
    2.9962    3.6401  -18.2313 N   0  0  0  0  0  0  0  0  0  0  0  0
    7.5467    2.6749  -19.2506 O   0  0  0  0  0  0  0  0  0  0  0  0
    6.9278    1.6097  -23.0324 O   0  0  0  0  0  0  0  0  0  0  0  0
    5.9373    4.7943  -21.3770 O   0  0  0  0  0  0  0  0  0  0  0  0
    2.7167   -1.3929  -19.3868 F   0  0  0  0  0  0  0  0  0  0  0  0
    6.0257   -5.0850  -17.7888 H   0  0  0  0  0  0  0  0  0  0  0  0
    6.8234   -3.3984  -19.4486 H   0  0  0  0  0  0  0  0  0  0  0  0
    6.3156   -2.7170  -21.7860 H   0  0  0  0  0  0  0  0  0  0  0  0
    7.1529   -0.9667  -23.3327 H   0  0  0  0  0  0  0  0  0  0  0  0
    4.6388    0.3246  -19.2421 H   0  0  0  0  0  0  0  0  0  0  0  0
    3.6939   -4.9599  -16.9468 H   0  0  0  0  0  0  0  0  0  0  0  0
    8.2835    5.4879  -22.5835 H   0  0  0  0  0  0  0  0  0  0  0  0
    7.5065    6.0155  -24.1147 H   0  0  0  0  0  0  0  0  0  0  0  0
    6.5564    3.7806  -24.4642 H   0  0  0  0  0  0  0  0  0  0  0  0
    8.3213    3.6188  -24.1716 H   0  0  0  0  0  0  0  0  0  0  0  0
    6.2238    6.7378  -22.0667 H   0  0  0  0  0  0  0  0  0  0  0  0
    5.2672    5.6659  -23.1450 H   0  0  0  0  0  0  0  0  0  0  0  0
    7.9171    3.0080  -21.8242 H   0  0  0  0  0  0  0  0  0  0  0  0
    4.9519    3.3466  -22.5153 H   0  0  0  0  0  0  0  0  0  0  0  0
    4.9248    4.0920  -16.5537 H   0  0  0  0  0  0  0  0  0  0  0  0
    6.1453    2.7741  -16.5605 H   0  0  0  0  0  0  0  0  0  0  0  0
    6.6134    4.4344  -17.0615 H   0  0  0  0  0  0  0  0  0  0  0  0
    3.2935    2.5649  -20.6679 H   0  0  0  0  0  0  0  0  0  0  0  0
    2.0944    3.5296  -18.6493 H   0  0  0  0  0  0  0  0  0  0  0  0
    3.0772    4.0220  -17.3107 H   0  0  0  0  0  0  0  0  0  0  0  0
  1  2  2  0  0  0  0
  1  6  1  0  0  0  0
  2  8  1  0  0  0  0
  3  4  2  0  0  0  0
  3  7  1  0  0  0  0
  4 10  1  0  0  0  0
  5  7  2  0  0  0  0
  5  9  1  0  0  0  0
  6 21  2  0  0  0  0
  7  8  1  0  0  0  0
  8 11  2  0  0  0  0
  9 10  2  0  0  0  0
  9 19  1  0  0  0  0
 10 26  1  0  0  0  0
 11 21  1  0  0  0  0
 11 28  1  0  0  0  0
 12 19  1  0  0  0  0
 12 22  1  0  0  0  0
 12 25  2  0  0  0  0
 13 22  1  0  0  0  0
 13 23  2  0  0  0  0
 13 24  1  0  0  0  0
 14 15  1  0  0  0  0
 14 16  1  0  0  0  0
 15 17  1  0  0  0  0
 16 27  1  0  0  0  0
 17 18  1  0  0  0  0
 17 26  1  0  0  0  0
 18 19  1  0  0  0  0
 18 27  1  0  0  0  0
 19 23  1  0  0  0  0
 20 22  1  0  0  0  0
  1 29  1  0  0  0  0
  2 30  1  0  0  0  0
  3 31  1  0  0  0  0
  4 32  1  0  0  0  0
  5 33  1  0  0  0  0
  6 34  1  0  0  0  0
 14 35  1  0  0  0  0
 14 36  1  0  0  0  0
 15 37  1  0  0  0  0
 15 38  1  0  0  0  0
 16 39  1  0  0  0  0
 16 40  1  0  0  0  0
 17 41  1  0  0  0  0
 18 42  1  0  0  0  0
 20 43  1  0  0  0  0
 20 44  1  0  0  0  0
 20 45  1  0  0  0  0
 23 46  1  0  0  0  0
 24 47  1  0  0  0  0
 24 48  1  0  0  0  0
M  CHG  1  23   1
M  END
> <OMEGA_C>
B7KrQOe2icCQFJHB4B26QJOkVsAyfpjBFjnEQINd1r9gkKzBqrzTQBjALr+dg7PBKPSlQEaKPj2N
C6HBRk+BQNlEh8BUSI3B9PysQLXap7/vVqPBWNidQM3LFcDt1JvB8Y21QEAShj9n8KfBkA3NQIHg
LT9FN7HBBfxmQDWbFMArtpfBn9nKQCmkNUBQGZvByUqEQODeUEBMbZfBOC/tQONRq0Dd7bnBdmrr
QKLzeEB6vb3B6THEQHTxtkBEurPBJ13iQMEePUB2OrTBkEu5QAD5WkBdda7Bi62vQKtBIECl1qTB
xs25QJT3a0DQk4jBXUtMQKJxUMD8nZDB34auQFN9V0CfsZPBXtmDQABQMEBgG6HBIsE/QLX2aEDF
2ZHBN37xQJcxK0AkAZrBvrDdQMAJzj9pQrjBmP69QDBrmUABBKvBLN8tQI5Ksr89GJvBJNLAQLS4
osB4T47BkVnaQLF/WcDPlpvBcBnKQIziLcDBSa7BReTkQJh6d791qbrBt3CUQKgwpj7G75nBLGls
QDy3nsAIk4fBa4kEQcicr0Acq7TBYjXwQPx+wED36sDBCM7RQKv1cUCntsPBAiQFQcOZZ0BaX8HB
MynHQMOb10CciLDBP42oQPxOtUAHKbnBylj9QHmDQEDcl67BOHaeQBwuVkBPH7TB6ZedQKXxgkAH
boTB+qXEQDmLMUDce4TBxqDTQJjmjUDxfYjBUMlSQPUnJEDfV6XB7AoGQHblYUCtMZXByPBEQCG0
gEBRfIrB8NNSQBS8VMC6MJDB4Q1rQJ5NFcDPhZfB94rCQLiS17/f46zB+FnRQPq+L7/23bPBnyWl
QKAKwjyvGKHBV1CHQCL5icAVN43BbO6sQFo/qr9bZqPBrEqfQOE0F8Bsv5vBDje0QKkZhD8UBKjB
nkfLQLADLD9AYrHBPvy7QAL3V8DrTZjBNLnJQAMXMkBF5prBgZWDQFA9UUBWf5fB9/vuQHLUqkAh
arnBQljsQLuWeEBSar3BAxHGQMXptkCHPLPBKTfiQOTeO0A+D7TBnm25QFDcWkCLQa7ByNyuQJMh
H0C2xqTBH5W4QKkpa0BLjIjBhpevQPlMisAzN5HBVI6sQAq3SEDGDJPB3vKCQNkPMED3JKHB879A
QG9EdUBud5LBEZ7wQE9TK0DX65nBikXcQCLCzT8RUrjB3Au/QAsDmUBGo6rBSS/lQOkgWMBAsJvB
Gw4TQPUoVcDO24zB+YQ+QH3fx7+Q4pnBsLXHQGJpLsApy67BPX3hQOGldr/NLbvB3oSTQGgClj7n
+5nBL8F7QLyFosArnIfBLmcFQQQzrkAFF7TBRqbyQJphwEDQT8DBqe3SQCuGc0BveMPBwpUFQXpZ
ZkAtAMHBUZjJQM5T10Cx66/BiYqqQMkjtkDdt7jB6B79QMyxPEDiYq7BRaieQNkXWECY9bPBkIqb
QCrPd0BR1YPBWLXMQDxjPEALUITBV4bKQHqOk0BWoInBlgBRQOEVJEBXZKXBCz0IQKEid0DjNpbB
DXtGQKSwhkA7F4vB

> <OMEGA_E>
AAAAAMh6Yj4=

> <OMEGA_NBR>
      1942

$$$$
50249213
  -OEChem-04172616093D

 45 49  0     1  0  0  0  0  0999 V2000
    5.3485   -4.3375  -18.1756 C   0  0  0  0  0  0  0  0  0  0  0  0
    5.7917   -3.3810  -19.0983 C   0  0  0  0  0  0  0  0  0  0  0  0
    6.0828   -1.6874  -21.5928 C   0  0  0  0  0  0  0  0  0  0  0  0
    6.5862   -0.6900  -22.4387 C   0  0  0  0  0  0  0  0  0  0  0  0
    5.2047    0.0275  -20.0957 C   0  0  0  0  0  0  0  0  0  0  0  0
    4.0209   -4.2762  -17.7069 C   0  0  0  0  0  0  0  0  0  0  0  0
    5.3710   -1.3304  -20.4307 C   0  0  0  0  0  0  0  0  0  0  0  0
    4.8994   -2.3736  -19.5119 C   0  0  0  0  0  0  0  0  0  0  0  0
    5.7726    1.0367  -20.9018 C   0  0  0  0  0  0  0  0  0  0  0  0
    6.4188    0.6662  -22.1107 C   0  0  0  0  0  0  0  0  0  0  0  0
    3.5754   -2.3694  -19.0044 C   0  0  0  0  0  0  0  0  0  0  0  0
    4.1642    3.3376  -18.8705 C   0  0  0  0  0  0  0  0  0  0  0  0
    6.5132    5.2506  -23.7497 C   0  0  0  0  0  0  0  0  0  0  0  0
    7.0532    3.8169  -23.8691 C   0  0  0  0  0  0  0  0  0  0  0  0
    6.5327    5.7170  -22.2811 C   0  0  0  0  0  0  0  0  0  0  0  0
    6.5664    2.5660  -19.0710 C   0  0  0  0  0  0  0  0  0  0  0  0
    6.3034    2.8904  -22.8969 C   0  0  2  0  0  0  0  0  0  0  0  0
    6.4303    3.4423  -21.4630 C   0  0  2  0  0  0  0  0  0  0  0  0
    5.7768    2.4890  -20.3989 C   0  0  1  0  0  0  0  0  0  0  0  0
    3.1631   -3.3140  -18.1255 N   0  0  0  0  0  0  0  0  0  0  0  0
    4.3749    2.9076  -20.1011 N   0  3  0  0  0  0  0  0  0  0  0  0
    2.9095    3.6351  -18.3664 N   0  0  0  0  0  0  0  0  0  0  0  0
    6.9104    1.5966  -22.9887 O   0  0  0  0  0  0  0  0  0  0  0  0
    5.8437    4.7664  -21.4360 O   0  0  0  0  0  0  0  0  0  0  0  0
    2.6840   -1.4360  -19.4188 F   0  0  0  0  0  0  0  0  0  0  0  0
    5.6486    3.6463  -17.9727 S   0  0  0  0  0  0  0  0  0  0  0  0
    6.0159   -5.1122  -17.8279 H   0  0  0  0  0  0  0  0  0  0  0  0
    6.7994   -3.4158  -19.4852 H   0  0  0  0  0  0  0  0  0  0  0  0
    6.2403   -2.7289  -21.8316 H   0  0  0  0  0  0  0  0  0  0  0  0
    7.1046   -0.9645  -23.3455 H   0  0  0  0  0  0  0  0  0  0  0  0
    4.6389    0.2980  -19.2164 H   0  0  0  0  0  0  0  0  0  0  0  0
    3.6786   -5.0143  -16.9966 H   0  0  0  0  0  0  0  0  0  0  0  0
    7.1407    5.9245  -24.3514 H   0  0  0  0  0  0  0  0  0  0  0  0
    5.4795    5.2799  -24.1247 H   0  0  0  0  0  0  0  0  0  0  0  0
    6.9092    3.4579  -24.8988 H   0  0  0  0  0  0  0  0  0  0  0  0
    8.1257    3.8101  -23.6249 H   0  0  0  0  0  0  0  0  0  0  0  0
    7.5760    5.8097  -21.9450 H   0  0  0  0  0  0  0  0  0  0  0  0
    6.0349    6.6950  -22.2057 H   0  0  0  0  0  0  0  0  0  0  0  0
    6.6555    1.5638  -18.6265 H   0  0  0  0  0  0  0  0  0  0  0  0
    7.5703    2.9773  -19.2524 H   0  0  0  0  0  0  0  0  0  0  0  0
    5.2410    2.8470  -23.1787 H   0  0  0  0  0  0  0  0  0  0  0  0
    7.5014    3.5193  -21.2248 H   0  0  0  0  0  0  0  0  0  0  0  0
    3.6469    2.8653  -20.7854 H   0  0  0  0  0  0  0  0  0  0  0  0
    2.8194    4.0423  -17.4575 H   0  0  0  0  0  0  0  0  0  0  0  0
    2.0932    3.4427  -18.9112 H   0  0  0  0  0  0  0  0  0  0  0  0
  1  2  1  0  0  0  0
  1  6  2  0  0  0  0
  2  8  2  0  0  0  0
  3  4  2  0  0  0  0
  3  7  1  0  0  0  0
  4 10  1  0  0  0  0
  5  7  2  0  0  0  0
  5  9  1  0  0  0  0
  6 20  1  0  0  0  0
  7  8  1  0  0  0  0
  8 11  1  0  0  0  0
  9 10  2  0  0  0  0
  9 19  1  0  0  0  0
 10 23  1  0  0  0  0
 11 20  2  0  0  0  0
 11 25  1  0  0  0  0
 12 21  2  0  0  0  0
 12 22  1  0  0  0  0
 12 26  1  0  0  0  0
 13 14  1  0  0  0  0
 13 15  1  0  0  0  0
 14 17  1  0  0  0  0
 15 24  1  0  0  0  0
 16 19  1  0  0  0  0
 16 26  1  0  0  0  0
 17 18  1  0  0  0  0
 17 23  1  0  0  0  0
 18 19  1  0  0  0  0
 18 24  1  0  0  0  0
 19 21  1  0  0  0  0
  1 27  1  0  0  0  0
  2 28  1  0  0  0  0
  3 29  1  0  0  0  0
  4 30  1  0  0  0  0
  5 31  1  0  0  0  0
  6 32  1  0  0  0  0
 13 33  1  0  0  0  0
 13 34  1  0  0  0  0
 14 35  1  0  0  0  0
 14 36  1  0  0  0  0
 15 37  1  0  0  0  0
 15 38  1  0  0  0  0
 16 39  1  0  0  0  0
 16 40  1  0  0  0  0
 17 41  1  0  0  0  0
 18 42  1  0  0  0  0
 21 43  1  0  0  0  0
 22 44  1  0  0  0  0
 22 45  1  0  0  0  0
M  CHG  1  21   1
M  END
> <OMEGA_C>
pyarQBnNisC6Z5HBh1W5QIdiWMBRyZjBI6bCQPT9178ZvqzBWsLSQGemML9kgrPBiYymQLiE4TwN
xKDBiquAQAHXiMDOp43BPd+rQI9Jqr8PcqPB8MecQIPpF8BSGJzBZLm4QEqxhD/mNqfB42bNQIyO
Kj/Q4rDBGdRkQI2jF8DrCJjB5ECFQKiaVUDR9pbBC2zQQPYEqEB1/73Bt7PhQOdIdEDU877B8AvR
QHfxtkCgP7LBsB/SQNU5JEBkkZjBT7XJQI38OEDXLLfB1cTNQJdOXEAgtKvB3Nu4QHRLH0AHMaPB
dXBKQCYYVMAdAZHBl/+LQJoVOkAez6DBiDQ6QCKlaEBp7pLBmyHdQFFdzD/X6LfB0v+6QJmGmED+
fKvBGMYrQEHQt7+mWZvBIsG0QGtdaUAAyI/B4oHAQCCXo8Cjn47BtJTZQC2cWsC74ZvBc7DHQLql
LsAjp67Bq1jjQKzqdr+ew7rBiHGUQICQmD5Ju5nBKG5rQMF0oMAU+YfBwIDkQMyVvUC2z8LB0lev
QEP1qEBL/8DBgRjdQAVOXUC5MMfB+gICQQ7Yc0DL/7zBpW7yQPDouUBjj6/BBx7BQGE91kAwpbHB
I/rUQEcqyD8XA5XBFUDyQHeMPkDwBJrBFLanQK41NkD3bbnBpwvwQAY8YUBgzKnBQmdpQLNgN0B1
SKbBwXE0QLpagUAKqYvBlPcFQHhVXEAdSpfBf3lMQLR2WMBkrZDB83FiQMb6F8DA/ZfBWMK9QEsF
1r8vQ63BUmPPQOxKLr9hzLPBkAWiQADRNz05OqHBwCeFQLnuisC4vY3BSt+nQEJvqL8o1qPBItya
QMZiF8D5Q5zBUmG1QNjLhj+XiKfB9sbLQFLbKz/r8LDBeIa4QMz2VsBl7pjBsv+EQNToVkB+ypbB
0DHZQJVZp0AjAL7BAE3qQC5xckCoKr7BsvXRQBERt0ArbLLBzCnQQPAHIkB1tJjBzLjNQBD+OEAJ
LbfBMAzNQBBpXUCmuavB3O22QGsiIEB1XKPBZketQJMeisCX0ZHBXpaKQG4PPkDdzKDBKr86QAqE
ZEApIJLBVsTfQCByyj88ZLfB/gu5QCVumEClVKzBMJDhQEJdVcCucpzBZKy1QBSjbkBLXJDBi88M
QD8MW8ANVI3BTGU0QKqmz78/SprBYe3AQBCXLcCkca/BktbfQO7edL/WEbvB5riOQDe4oj6cZprB
Ozx5QL2wo8B0GojBl4PwQOd4vEA58sHBKqK6QOGDqEB3W8LBaDDqQDNcWkCKb8bB55cFQfuEcUDe
B7vBjy7xQA+Eu0CXg67BoMbAQJrG1UDoobLBcLnPQH79xD+Z6pTBwnrxQHefNUCzJJrBlAGtQInI
OEBTbLrBJHjuQJCfZUBSKanB5ypmQMwoP0A9OqbBOvI2QLr1fEBWv4rBOVUFQAXlVUDAIpbB

> <OMEGA_E>
CDiBPuDy0z4=

> <OMEGA_NBR>
      3798

$$$$
50249245
  -OEChem-04172616093D

 48 52  0     1  0  0  0  0  0999 V2000
    5.3990   -4.2774  -18.1344 C   0  0  0  0  0  0  0  0  0  0  0  0
    5.8260   -3.3137  -19.0574 C   0  0  0  0  0  0  0  0  0  0  0  0
    6.0641   -1.6534  -21.5835 C   0  0  0  0  0  0  0  0  0  0  0  0
    6.5504   -0.6670  -22.4557 C   0  0  0  0  0  0  0  0  0  0  0  0
    5.2037    0.0786  -20.0995 C   0  0  0  0  0  0  0  0  0  0  0  0
    4.0732   -4.2340  -17.6596 C   0  0  0  0  0  0  0  0  0  0  0  0
    5.3712   -1.2838  -20.4128 C   0  0  0  0  0  0  0  0  0  0  0  0
    4.9191   -2.3193  -19.4709 C   0  0  0  0  0  0  0  0  0  0  0  0
    5.7390    1.0748  -20.9447 C   0  0  0  0  0  0  0  0  0  0  0  0
    6.3782    0.6954  -22.1530 C   0  0  0  0  0  0  0  0  0  0  0  0
    3.5975   -2.3317  -18.9548 C   0  0  0  0  0  0  0  0  0  0  0  0
    6.3822    2.6880  -19.1591 C   0  0  0  0  0  0  0  0  0  0  0  0
    4.1859    3.2675  -18.9532 C   0  0  0  0  0  0  0  0  0  0  0  0
    6.6059    5.3290  -23.7278 C   0  0  0  0  0  0  0  0  0  0  0  0
    7.1106    3.8789  -23.8692 C   0  0  0  0  0  0  0  0  0  0  0  0
    6.5813    5.7633  -22.2493 C   0  0  0  0  0  0  0  0  0  0  0  0
    6.3032    2.9418  -22.9513 C   0  0  2  0  0  0  0  0  0  0  0  0
    6.3987    3.4746  -21.5159 C   0  0  2  0  0  0  0  0  0  0  0  0
    5.7010    2.5333  -20.4995 C   0  0  1  0  0  0  0  0  0  0  0  0
    5.6607    3.5255  -16.9063 C   0  0  0  0  0  0  0  0  0  0  0  0
    3.2021   -3.2809  -18.0718 N   0  0  0  0  0  0  0  0  0  0  0  0
    5.4465    3.2823  -18.3371 N   0  0  0  0  0  0  0  0  0  0  0  0
    4.3138    2.9499  -20.2235 N   0  3  0  0  0  0  0  0  0  0  0  0
    2.9841    3.5684  -18.3295 N   0  0  0  0  0  0  0  0  0  0  0  0
    7.5576    2.4497  -18.9027 O   0  0  0  0  0  0  0  0  0  0  0  0
    6.8733    1.6218  -23.0448 O   0  0  0  0  0  0  0  0  0  0  0  0
    5.8418    4.8082  -21.4632 O   0  0  0  0  0  0  0  0  0  0  0  0
    2.6870   -1.4204  -19.3761 F   0  0  0  0  0  0  0  0  0  0  0  0
    6.0779   -5.0440  -17.7911 H   0  0  0  0  0  0  0  0  0  0  0  0
    6.8338   -3.3332  -19.4451 H   0  0  0  0  0  0  0  0  0  0  0  0
    6.2212   -2.6977  -21.8098 H   0  0  0  0  0  0  0  0  0  0  0  0
    7.0591   -0.9557  -23.3636 H   0  0  0  0  0  0  0  0  0  0  0  0
    4.6634    0.3629  -19.2087 H   0  0  0  0  0  0  0  0  0  0  0  0
    3.7431   -4.9783  -16.9500 H   0  0  0  0  0  0  0  0  0  0  0  0
    7.2745    5.9989  -24.2885 H   0  0  0  0  0  0  0  0  0  0  0  0
    5.5883    5.3976  -24.1399 H   0  0  0  0  0  0  0  0  0  0  0  0
    6.9935    3.5538  -24.9135 H   0  0  0  0  0  0  0  0  0  0  0  0
    8.1733    3.8353  -23.5885 H   0  0  0  0  0  0  0  0  0  0  0  0
    7.6125    5.8246  -21.8712 H   0  0  0  0  0  0  0  0  0  0  0  0
    6.1018    6.7500  -22.1681 H   0  0  0  0  0  0  0  0  0  0  0  0
    5.2506    2.9359  -23.2707 H   0  0  0  0  0  0  0  0  0  0  0  0
    7.4640    3.5229  -21.2462 H   0  0  0  0  0  0  0  0  0  0  0  0
    4.7697    4.0083  -16.4784 H   0  0  0  0  0  0  0  0  0  0  0  0
    5.8403    2.5684  -16.3947 H   0  0  0  0  0  0  0  0  0  0  0  0
    6.5331    4.1820  -16.7727 H   0  0  0  0  0  0  0  0  0  0  0  0
    3.5793    2.9857  -20.9012 H   0  0  0  0  0  0  0  0  0  0  0  0
    2.1318    3.5529  -18.8524 H   0  0  0  0  0  0  0  0  0  0  0  0
    2.9700    3.8009  -17.3570 H   0  0  0  0  0  0  0  0  0  0  0  0
  1  2  2  0  0  0  0
  1  6  1  0  0  0  0
  2  8  1  0  0  0  0
  3  4  2  0  0  0  0
  3  7  1  0  0  0  0
  4 10  1  0  0  0  0
  5  7  2  0  0  0  0
  5  9  1  0  0  0  0
  6 21  2  0  0  0  0
  7  8  1  0  0  0  0
  8 11  2  0  0  0  0
  9 10  2  0  0  0  0
  9 19  1  0  0  0  0
 10 26  1  0  0  0  0
 11 21  1  0  0  0  0
 11 28  1  0  0  0  0
 12 19  1  0  0  0  0
 12 22  1  0  0  0  0
 12 25  2  0  0  0  0
 13 22  1  0  0  0  0
 13 23  2  0  0  0  0
 13 24  1  0  0  0  0
 14 15  1  0  0  0  0
 14 16  1  0  0  0  0
 15 17  1  0  0  0  0
 16 27  1  0  0  0  0
 17 18  1  0  0  0  0
 17 26  1  0  0  0  0
 18 19  1  0  0  0  0
 18 27  1  0  0  0  0
 19 23  1  0  0  0  0
 20 22  1  0  0  0  0
  1 29  1  0  0  0  0
  2 30  1  0  0  0  0
  3 31  1  0  0  0  0
  4 32  1  0  0  0  0
  5 33  1  0  0  0  0
  6 34  1  0  0  0  0
 14 35  1  0  0  0  0
 14 36  1  0  0  0  0
 15 37  1  0  0  0  0
 15 38  1  0  0  0  0
 16 39  1  0  0  0  0
 16 40  1  0  0  0  0
 17 41  1  0  0  0  0
 18 42  1  0  0  0  0
 20 43  1  0  0  0  0
 20 44  1  0  0  0  0
 20 45  1  0  0  0  0
 23 46  1  0  0  0  0
 24 47  1  0  0  0  0
 24 48  1  0  0  0  0
M  CHG  1  23   1
M  END
> <OMEGA_C>
AcWsQDXgiMA9E5HBl266QO8SVMB7dZjBMA3CQOOi078Gq6zBgJzRQPzAKr9SpbPB/YSmQGv3oD3I
y6DBBliCQDR9h8DORo3BzuCrQMtUpL95TaPBLGmdQL9vFMBaxJvBPKa3QFKUiT+ujqfBMBrMQLkF
Mj9KObHBOz1mQJM6FcBeo5fB/jrMQIYHLEDkRZnB6fKFQKEeUUA9oJfB2GPTQDmHqkCO0r3BEorj
QJlAeEAZ9L7BUprSQBBtuEB3/rHB+LPJQAhHPEAynLfBXsLMQERfXkCHIKzBdm62QAMhIkD0/qPB
fCS1QOWhYUAQQIfBr+9MQO/6UcALk5DBVUmuQFkRUkBvspLBwwqKQOTKPEDByaHBIfw+QP5gZEDi
opLBQtjxQP7HHECsOJfBsfHbQGSXzz/BW7jBz++6QIXcmUCdtKvB/fcrQFLPtb8/ApvBx33CQL9o
ocAxVI7Bkq7aQBBTVcCPj5vB1BPHQBenLMBkeq7BAuThQFWrdL+j6LrBXTqVQGvIuT5Uq5nBro5v
QNNNn8CKmYfBfcjoQNH2v0DFTsLBv9OyQOa4rEB+HsHB88rfQCFyY0DdTsfB0cUCQcZ0dUBFtbzB
kZnzQB5jukAg+K7B6UHDQJn/10BEWLHBOwWoQP3kO0BmKrrBetnuQCp3YUAe+KnBhaGYQABEgEDW
04PBmuO6QAZhJEBLKIPBYA/RQDrThUB0LobB5RNlQMoVP0CqNafBAHAIQIRiY0Cd0ZbBgRQ+QCJC
c0A224rBjc9QQKJCUcDY7Y/BGwxoQH1rEcDkQ5fBGu2+QLh20r/bK63BnYHPQBvEJ78E87PBkuKk
QMS4oj16AKHBIhWGQNr8iMB4Vo3BgmeqQJ8bpL+PjaPBXA6dQLKAFMD15JvB51K2QPRMij/WrqfB
C97LQNu0Mz8nM7HByJO5QLfxVsC31ZjB5NbLQKenKkAUVpnB+UyGQH3KU0C8bpfBILnXQD70qUCw
2r3BEETpQJ20d0AyR77Bk0TQQF2/uECuNrLBcdDMQJkePECQhLfBb6rLQB63X0BpFqzBdXe1QFJT
IkBJAaTBAvm2QBzuY0BFVIfBra6tQMHpicAEupHB7AivQEqPU0Bct5LB1EmJQHBkPUBMjqHBDApB
QAILaUC0PpLBtSHxQCX+F0DBXJfBHQPfQC6pzz/ez7fBLXi3QBRzmUBxZqzB1DfiQHaoWMDxnZzB
oxMSQMbWUMBiTYzBA9c7QFXKvb86UpnBTeDBQPvqK8ApUq/BcyTfQLcbcL+4ULvB5EKTQH3Ltz4A
6pnBkgd6QI6focDht4fBYuPuQAqWv0CxrsHBBy25QL85q0AYN8LBfHjpQNxUYUAon8bB8gkFQW/B
dkAcGLvBQWHvQJ79vECLPK7BH+++QANi10CfRbLBcjesQHncO0Cg1rrBR/vsQKS+Z0AkbqnBbEab
QKCegkCw14PBK+q7QBDHJkDnJYPB5rDTQO0EhkBldYbBh1piQC2LPkBH0KbBYZgJQKX/Z0AjPZbB
jQRCQOxneUAFg4rB

> <OMEGA_E>
4EaWPUCWhj4=

> <OMEGA_NBR>
      5738

$$$$
50249217
  -OEChem-04172616093D

 51 55  0     1  0  0  0  0  0999 V2000
    5.3491   -4.3206  -18.6337 C   0  0  0  0  0  0  0  0  0  0  0  0
    5.8023   -3.3168  -19.5009 C   0  0  0  0  0  0  0  0  0  0  0  0
    5.9926   -1.4030  -21.8906 C   0  0  0  0  0  0  0  0  0  0  0  0
    6.4353   -0.3461  -22.7058 C   0  0  0  0  0  0  0  0  0  0  0  0
    5.3741    0.1928  -20.1591 C   0  0  0  0  0  0  0  0  0  0  0  0
    4.0639   -4.2108  -18.0651 C   0  0  0  0  0  0  0  0  0  0  0  0
    5.4378   -1.1298  -20.6238 C   0  0  0  0  0  0  0  0  0  0  0  0
    4.9624   -2.2186  -19.7609 C   0  0  0  0  0  0  0  0  0  0  0  0
    5.8593    1.2516  -20.9476 C   0  0  0  0  0  0  0  0  0  0  0  0
    6.3519    0.9861  -22.2550 C   0  0  0  0  0  0  0  0  0  0  0  0
    3.6796   -2.1677  -19.1554 C   0  0  0  0  0  0  0  0  0  0  0  0
    6.3998    2.6833  -18.9732 C   0  0  0  0  0  0  0  0  0  0  0  0
    4.2334    3.4210  -18.9257 C   0  0  0  0  0  0  0  0  0  0  0  0
    7.1421    5.7684  -23.1446 C   0  0  0  0  0  0  0  0  0  0  0  0
    7.3256    4.2945  -23.5766 C   0  0  0  0  0  0  0  0  0  0  0  0
    7.2623    5.9136  -21.6130 C   0  0  0  0  0  0  0  0  0  0  0  0
    6.6389    3.6146  -21.2757 C   0  0  1  0  0  0  0  0  0  0  0  0
    5.8314    2.6586  -20.3767 C   0  0  1  0  0  0  0  0  0  0  0  0
    6.3888    3.3460  -22.7843 C   0  0  1  0  0  0  0  0  0  0  0  0
    4.9095    3.5861  -23.2137 C   0  0  0  0  0  0  0  0  0  0  0  0
    5.4732    3.3025  -16.7182 C   0  0  0  0  0  0  0  0  0  0  0  0
    3.2562   -3.1568  -18.3335 N   0  0  0  0  0  0  0  0  0  0  0  0
    5.4100    3.2388  -18.1832 N   0  0  0  0  0  0  0  0  0  0  0  0
    4.4435    3.1118  -20.1850 N   0  3  0  0  0  0  0  0  0  0  0  0
    3.0256    3.8786  -18.4198 N   0  0  0  0  0  0  0  0  0  0  0  0
    7.5234    2.3343  -18.6282 O   0  0  0  0  0  0  0  0  0  0  0  0
    6.7736    1.9868  -23.1174 O   0  0  0  0  0  0  0  0  0  0  0  0
    6.3680    4.9966  -20.9523 O   0  0  0  0  0  0  0  0  0  0  0  0
    2.8350   -1.1395  -19.4165 F   0  0  0  0  0  0  0  0  0  0  0  0
    5.9774   -5.1684  -18.4039 H   0  0  0  0  0  0  0  0  0  0  0  0
    6.7773   -3.3851  -19.9604 H   0  0  0  0  0  0  0  0  0  0  0  0
    6.0777   -2.4232  -22.2348 H   0  0  0  0  0  0  0  0  0  0  0  0
    6.8418   -0.5570  -23.6839 H   0  0  0  0  0  0  0  0  0  0  0  0
    4.9492    0.3993  -19.1879 H   0  0  0  0  0  0  0  0  0  0  0  0
    3.7146   -4.9860  -17.3991 H   0  0  0  0  0  0  0  0  0  0  0  0
    7.9163    6.3837  -23.6263 H   0  0  0  0  0  0  0  0  0  0  0  0
    6.1478    6.1155  -23.4621 H   0  0  0  0  0  0  0  0  0  0  0  0
    7.0986    4.2061  -24.6493 H   0  0  0  0  0  0  0  0  0  0  0  0
    8.3693    3.9972  -23.3969 H   0  0  0  0  0  0  0  0  0  0  0  0
    8.2964    5.6955  -21.3078 H   0  0  0  0  0  0  0  0  0  0  0  0
    7.0044    6.9433  -21.3247 H   0  0  0  0  0  0  0  0  0  0  0  0
    7.7042    3.4169  -21.0855 H   0  0  0  0  0  0  0  0  0  0  0  0
    4.2492    2.9113  -22.6492 H   0  0  0  0  0  0  0  0  0  0  0  0
    4.6320    4.6298  -23.0049 H   0  0  0  0  0  0  0  0  0  0  0  0
    4.8035    3.3868  -24.2903 H   0  0  0  0  0  0  0  0  0  0  0  0
    4.5656    3.7897  -16.3323 H   0  0  0  0  0  0  0  0  0  0  0  0
    5.5441    2.2836  -16.3097 H   0  0  0  0  0  0  0  0  0  0  0  0
    6.3576    3.8817  -16.4143 H   0  0  0  0  0  0  0  0  0  0  0  0
    3.7582    3.1752  -20.9105 H   0  0  0  0  0  0  0  0  0  0  0  0
    2.2399    3.9927  -19.0278 H   0  0  0  0  0  0  0  0  0  0  0  0
    2.9407    4.0945  -17.4471 H   0  0  0  0  0  0  0  0  0  0  0  0
  1  2  2  0  0  0  0
  1  6  1  0  0  0  0
  2  8  1  0  0  0  0
  3  4  2  0  0  0  0
  3  7  1  0  0  0  0
  4 10  1  0  0  0  0
  5  7  2  0  0  0  0
  5  9  1  0  0  0  0
  6 22  2  0  0  0  0
  7  8  1  0  0  0  0
  8 11  2  0  0  0  0
  9 10  2  0  0  0  0
  9 18  1  0  0  0  0
 10 27  1  0  0  0  0
 11 22  1  0  0  0  0
 11 29  1  0  0  0  0
 12 18  1  0  0  0  0
 12 23  1  0  0  0  0
 12 26  2  0  0  0  0
 13 23  1  0  0  0  0
 13 24  2  0  0  0  0
 13 25  1  0  0  0  0
 14 15  1  0  0  0  0
 14 16  1  0  0  0  0
 15 19  1  0  0  0  0
 16 28  1  0  0  0  0
 17 18  1  0  0  0  0
 17 19  1  0  0  0  0
 17 28  1  0  0  0  0
 18 24  1  0  0  0  0
 19 20  1  0  0  0  0
 19 27  1  0  0  0  0
 21 23  1  0  0  0  0
  1 30  1  0  0  0  0
  2 31  1  0  0  0  0
  3 32  1  0  0  0  0
  4 33  1  0  0  0  0
  5 34  1  0  0  0  0
  6 35  1  0  0  0  0
 14 36  1  0  0  0  0
 14 37  1  0  0  0  0
 15 38  1  0  0  0  0
 15 39  1  0  0  0  0
 16 40  1  0  0  0  0
 16 41  1  0  0  0  0
 17 42  1  0  0  0  0
 20 43  1  0  0  0  0
 20 44  1  0  0  0  0
 20 45  1  0  0  0  0
 21 46  1  0  0  0  0
 21 47  1  0  0  0  0
 21 48  1  0  0  0  0
 24 49  1  0  0  0  0
 25 50  1  0  0  0  0
 25 51  1  0  0  0  0
M  CHG  1  24   1
M  END
> <OMEGA_C>
+CurQHlCisDVEZXBwKy5QBxGVMDbAZzBpcO/QI+Ws78HIK/Bvu3NQNUysb6JpbXB8PirQP5hRT6/
RaHBrQuCQBm/hsBDhZDBGgKuQBidkL+f/aTBR8yeQAP+DcBrFp7BC3+7QAo1oD+wlKfBA0PLQP5w
fD9QCrLBLX5rQB27CsBVPpnBAMvMQLS7K0AnyZfBoneHQGHxWkDTZ5fBZozkQPGWuEAMKLnBA2vq
QDpsiUDPnLzB+WToQDw8vUB756zBQ3LUQE1VZ0CvNKrBw5q6QLclKkB5A6PBKHHMQK0kVkA4RrbB
AxudQOuBZUCotbnBXCSvQMpbU0DUvoXBLWVQQLsISsAUq5LBzh6tQI1IT0A9d5HB6jCOQL0nR0Dv
eqHBPaRBQFs7eEC0W5PBDMDwQH5kFUCVBpXBC8HYQCBP/j918LjBEMfLQC7kn0BZnqfBi3A1QPrZ
kb8RVZvBGEe/QNdjpcAlO5PBvN/YQCamWMDxrp/BmXzCQJQVG8DW4LHB8O/aQOyWDr+reL3BvV+e
QNZtzD7MgJnBPbxtQPaMn8BLMYvBnlL9QEFHzECfAr3Bq7rEQA2yw0BQsrvBeSfjQEeYhkCuMcXB
legFQaTRf0DtLLvB/70EQYlBtkBrdqrBzSPgQL8v3kAEmarBwoj2QHGuWkAur6jBlvmHQElSOkCc
MbXBtjmUQEgnlEAHCrjB5bWZQCzBWECBUsLBPRmSQEyKckChqILBVWmxQEQmEkBUeoLBKHHLQBRu
eEBsUIPBKYZwQOk2S0DHSKfBDVsPQE2If0DXOJjB/TM8QAkGg0CTk4vBDjNZQDGHUcBWL5LBZWJw
QGlVDcDW4JjB6+u9QNtnsr9pSa/BnFrLQMWWqb7A0LXBlXyqQDN7Pj4LRaHBYZKJQJbHisCEopDB
622tQHCLkb94/aTBPF6gQBykD8CW953BA8q5QD1hoD/6k6fBYDDJQBqrfj9PGLLBGCO8QJe4VcDA
AJzBGEjLQKlIK0CNsJfBLumGQJDHX0C3k5fB6EPnQMw6uEBfxrjBBBvrQMMeiUD2crzBY6vrQBvO
u0ADhKzBC4PUQK43ZkA4FKrB+pO5QJM/KkB296LBUjDMQAvuVkA8LLbBwimdQG19aUDVmLnBbp+t
QI3jVkCIy4XBJmewQFJPi8DUcpXBrhOsQFH+UUAkhJHBm3SNQGA5SUAckaHBxqJBQDqjgEABuJPB
+vPuQFvrE0Ac1ZTBbhfXQEIt/z/A9rjBSrzNQHB9n0A+V6fBKeLjQLRSV8DlVKDBSZ8bQOHrUcCw
Qo7B+G5FQNomsL8JG5rB4DnAQKI7GsBPKLLBWW7XQNCACL9wv73BlG+cQFr3xT55ipnBJZiAQOsK
pcCYfIvBCloAQXssy0Brl7zBRNnHQBTNxEDfMrvBIWnjQB41h0DdBcXB3hMGQWlkfEDQI7vB1DYG
QSoFs0AvKarBXBrlQAPx3EDCCqrBwVP2QFStVkCQmKjBw1iHQLpWP0DtIbXBoVSVQPNYlkDU2rfB
Y5qZQKOPXUBWOcLBOB2RQO+7eEB71oLBhV2uQNLTFUBPcILBzo7KQEXDeUDCUoPBzChvQJOdTEDg
Y6fBowQQQHPUhEBvqZjBfVI8QFOFiEBr/ovB

> <OMEGA_E>
gGUsPDAPZz4=

> <OMEGA_NBR>
      2026

$$$$
50225094
  -OEChem-04172616093D

 48 51  0     1  0  0  0  0  0999 V2000
    5.3628   -4.2976  -18.6621 C   0  0  0  0  0  0  0  0  0  0  0  0
    5.7651   -3.3096  -19.5741 C   0  0  0  0  0  0  0  0  0  0  0  0
    5.9105   -1.3665  -21.9612 C   0  0  0  0  0  0  0  0  0  0  0  0
    6.3746   -0.3021  -22.7626 C   0  0  0  0  0  0  0  0  0  0  0  0
    5.3451    0.2115  -20.2034 C   0  0  0  0  0  0  0  0  0  0  0  0
    4.1144   -4.1762  -18.0197 C   0  0  0  0  0  0  0  0  0  0  0  0
    5.3735   -1.1086  -20.6820 C   0  0  0  0  0  0  0  0  0  0  0  0
    4.9170   -2.2093  -19.8050 C   0  0  0  0  0  0  0  0  0  0  0  0
    6.3328    1.0276  -22.2875 C   0  0  0  0  0  0  0  0  0  0  0  0
    5.8524    1.2786  -20.9783 C   0  0  0  0  0  0  0  0  0  0  0  0
    3.6695   -2.1509  -19.1249 C   0  0  0  0  0  0  0  0  0  0  0  0
    6.3812    2.6833  -18.9941 C   0  0  0  0  0  0  0  0  0  0  0  0
    4.1954    3.3555  -18.9170 C   0  0  0  0  0  0  0  0  0  0  0  0
    6.8901    2.1509  -23.1590 C   0  0  0  0  0  0  0  0  0  0  0  0
    6.5317    3.7458  -21.2559 C   0  0  0  0  0  0  0  0  0  0  0  0
    5.8033    2.6840  -20.3928 C   0  0  1  0  0  0  0  0  0  0  0  0
    6.3249    3.5436  -22.7751 C   0  0  0  0  0  0  0  0  0  0  0  0
    7.1194    4.6516  -23.5091 C   0  0  0  0  0  0  0  0  0  0  0  0
    4.8319    3.6489  -23.1989 C   0  0  0  0  0  0  0  0  0  0  0  0
    5.4797    3.3179  -16.7319 C   0  0  0  0  0  0  0  0  0  0  0  0
    3.2938   -3.1260  -18.2609 N   0  0  0  0  0  0  0  0  0  0  0  0
    5.3341    3.0373  -18.1636 N   0  0  0  0  0  0  0  0  0  0  0  0
    4.4042    3.0752  -20.1803 N   0  3  0  0  0  0  0  0  0  0  0  0
    3.0075    3.8678  -18.4198 N   0  0  0  0  0  0  0  0  0  0  0  0
    7.5169    2.3540  -18.6689 O   0  0  0  0  0  0  0  0  0  0  0  0
    2.8127   -1.1241  -19.3446 F   0  0  0  0  0  0  0  0  0  0  0  0
    6.0034   -5.1420  -18.4547 H   0  0  0  0  0  0  0  0  0  0  0  0
    6.7100   -3.3919  -20.0907 H   0  0  0  0  0  0  0  0  0  0  0  0
    5.9664   -2.3809  -22.3277 H   0  0  0  0  0  0  0  0  0  0  0  0
    6.7654   -0.5059  -23.7485 H   0  0  0  0  0  0  0  0  0  0  0  0
    4.9289    0.4142  -19.2276 H   0  0  0  0  0  0  0  0  0  0  0  0
    3.8050   -4.9378  -17.3193 H   0  0  0  0  0  0  0  0  0  0  0  0
    7.9843    2.1725  -23.0480 H   0  0  0  0  0  0  0  0  0  0  0  0
    6.6321    1.9435  -24.2080 H   0  0  0  0  0  0  0  0  0  0  0  0
    6.1511    4.7405  -20.9808 H   0  0  0  0  0  0  0  0  0  0  0  0
    7.6089    3.6926  -21.0397 H   0  0  0  0  0  0  0  0  0  0  0  0
    6.7152    5.6369  -23.2339 H   0  0  0  0  0  0  0  0  0  0  0  0
    8.1791    4.5961  -23.2192 H   0  0  0  0  0  0  0  0  0  0  0  0
    7.0287    4.5087  -24.5961 H   0  0  0  0  0  0  0  0  0  0  0  0
    4.4407    4.6392  -22.9225 H   0  0  0  0  0  0  0  0  0  0  0  0
    4.7493    3.5129  -24.2873 H   0  0  0  0  0  0  0  0  0  0  0  0
    4.2496    2.8688  -22.6866 H   0  0  0  0  0  0  0  0  0  0  0  0
    4.4983    3.5744  -16.3064 H   0  0  0  0  0  0  0  0  0  0  0  0
    5.8787    2.4282  -16.2227 H   0  0  0  0  0  0  0  0  0  0  0  0
    6.1716    4.1615  -16.5922 H   0  0  0  0  0  0  0  0  0  0  0  0
    3.7090    3.1212  -20.8977 H   0  0  0  0  0  0  0  0  0  0  0  0
    2.2421    4.0458  -19.0382 H   0  0  0  0  0  0  0  0  0  0  0  0
    2.9157    4.0593  -17.4426 H   0  0  0  0  0  0  0  0  0  0  0  0
  1  2  2  0  0  0  0
  1  6  1  0  0  0  0
  2  8  1  0  0  0  0
  3  4  2  0  0  0  0
  3  7  1  0  0  0  0
  4  9  1  0  0  0  0
  5  7  2  0  0  0  0
  5 10  1  0  0  0  0
  6 21  2  0  0  0  0
  7  8  1  0  0  0  0
  8 11  2  0  0  0  0
  9 10  2  0  0  0  0
  9 14  1  0  0  0  0
 10 16  1  0  0  0  0
 11 21  1  0  0  0  0
 11 26  1  0  0  0  0
 12 16  1  0  0  0  0
 12 22  1  0  0  0  0
 12 25  2  0  0  0  0
 13 22  1  0  0  0  0
 13 23  2  0  0  0  0
 13 24  1  0  0  0  0
 14 17  1  0  0  0  0
 15 16  1  0  0  0  0
 15 17  1  0  0  0  0
 16 23  1  0  0  0  0
 17 18  1  0  0  0  0
 17 19  1  0  0  0  0
 20 22  1  0  0  0  0
  1 27  1  0  0  0  0
  2 28  1  0  0  0  0
  3 29  1  0  0  0  0
  4 30  1  0  0  0  0
  5 31  1  0  0  0  0
  6 32  1  0  0  0  0
 14 33  1  0  0  0  0
 14 34  1  0  0  0  0
 15 35  1  0  0  0  0
 15 36  1  0  0  0  0
 18 37  1  0  0  0  0
 18 38  1  0  0  0  0
 18 39  1  0  0  0  0
 19 40  1  0  0  0  0
 19 41  1  0  0  0  0
 19 42  1  0  0  0  0
 20 43  1  0  0  0  0
 20 44  1  0  0  0  0
 20 45  1  0  0  0  0
 23 46  1  0  0  0  0
 24 47  1  0  0  0  0
 24 48  1  0  0  0  0
M  CHG  1  23   1
M  END
> <OMEGA_C>
dpyrQK2FicDwS5XBzXu4QMrQU8Dal5zBOCO9QGfprr+esK/Be/zLQCuzmr61GbbB7wqrQDyOWD6F
oKHBi6mDQJOjhcBlKJDBD/SrQAXnjb+5dKXBUlidQONkDcCdcJ7BLKbKQNuIgz/VTLLB1Ua7QMCo
oz+c06fBPdlqQBSpCcCz/5jBdTLMQGq7K0D885fBFUGGQATBVkAHVpfBEHzcQCSpCUCnRbnBdAPR
QKO6b0AMDKrBlLS5QG/GK0BxJKPBzmXKQODJYkBpM7bBT9LjQITZlEC3ErzBop6aQE6HaUBCl7nB
sFmvQDFYVEDo2oXBgM1SQJcQSMBqFpLBO7GqQPBiQkD/TpHBDu+MQJnPREBMcaHBKnpAQFmJd0C+
W5PBL4rwQCKoFkDeWZXBBQQ0QJTjj7/RwZrBwRvAQGmLpMAvo5PBIrjWQMwUWcDSuaDBBe2+QLVg
GMAJn7LBkH7YQISBAb/x/L3Ba7mdQCcQ1D4v0pnB6IVzQJICnsDajYrBe3//QH8KC0A3YrjB/znU
QPvD+D/3qcHBM9bEQFayl0Cw2KfBNXzzQLFTbEBYUajBDOPWQFRhtEAS37nBdN0CQe8Sk0DhwLnB
ZevgQKlHkEC3xMTBURqOQO5zlEBLYbfBN/qXQK7SYEBdTMLBgPyHQCKaN0A2frXBN/KPQGPDZEBr
c4LBph68QMFnG0AmyIHBBn7FQCQrhUDcvITBy2BtQJ/BR0CELqfB9n0PQEJ3gUBQTpjBxJo6QLLl
gUB2iovBqDZZQEyUSsDtaZHBcmNuQPJACcDEp5jBVOe7QFdMr79bs6/BoWvKQKAhnL4AI7bB/ryp
QIAPVD5Ln6HBIZ2JQPsvh8CHxI/BvpurQMPVjr8AXqXBfnieQJbjDcCbLZ7BimbJQLLjgj9FTbLB
0+65QA4ooz/Z1afBeyi6QDACVMBlIJzBLXfLQLRYKkDu6ZfBuW2GQLS5WkDAW5fBKADcQKLbCED6
NrnBrCfRQCq3bkD/76nBuwy5QB5rK0DXGqPBjtnKQJqIYkDAG7bBPFvlQBk9lECn3LvBdEybQER8
a0AlmrnBoe2vQNwuWUDe8IXBfGivQN8PicC5DJXBPYyqQPaoREAnTpHBO4aMQO4xRkAFaqHB02pC
QNxRf0ChbZPBZGHvQF6qEkBZSpXBRDHhQErVV8Ahz6DBNR4dQI/mSMCAJo3BizhDQFqgqL+S+ZnB
mUC9QBN2GMAjr7LBgW/WQLyuAb9XE77BOb6bQPe80j7F5JnB04WBQKE7oMAVK4rBgwP/QFDCCEAp
T7jBUKzTQBp7+D9EnsHB6XnFQPxcl0CxuafB7IjzQLsGakBqJKjB9BrZQPQEtEAIpLnBRY8DQaaU
kUCldrnBeK/iQPj0j0AuksTBD2GPQOGilUCLXrfBDuSYQJxUY0B4UsLBwPuHQC8qOkB+lrXBI+yQ
QIlZbEBniILBxv67QIiKIEBzrIHBs+rGQDwHh0BIFoXBEitsQPJySEBGHKfBg6YRQObWhUCSX5jB
TXo9QGWuhkDMpYvB

> <OMEGA_E>
cOnSPjrQET8=

> <OMEGA_NBR>
      3957

$$$$
50161546
  -OEChem-04172616093D

 44 47  0     1  0  0  0  0  0999 V2000
    6.7048   -0.5397  -22.6476 C   0  0  0  0  0  0  0  0  0  0  0  0
    5.2185   -4.0776  -18.3105 C   0  0  0  0  0  0  0  0  0  0  0  0
    6.1960   -1.5101  -21.7657 C   0  0  0  0  0  0  0  0  0  0  0  0
    5.7417   -3.1794  -19.2532 C   0  0  0  0  0  0  0  0  0  0  0  0
    6.5077    0.8290  -22.3854 C   0  0  0  0  0  0  0  0  0  0  0  0
    7.2598    4.2154  -22.1530 C   0  0  0  0  0  0  0  0  0  0  0  0
    5.0322    3.9241  -23.0492 C   0  0  0  0  0  0  0  0  0  0  0  0
    5.2507    0.2538  -20.3769 C   0  0  0  0  0  0  0  0  0  0  0  0
    3.9026   -3.8928  -17.8368 C   0  0  0  0  0  0  0  0  0  0  0  0
    7.5594    5.0217  -23.2685 C   0  0  0  0  0  0  0  0  0  0  0  0
    5.3994    4.7422  -24.1338 C   0  0  0  0  0  0  0  0  0  0  0  0
    3.6269   -1.9797  -19.1637 C   0  0  0  0  0  0  0  0  0  0  0  0
    5.4610   -1.1129  -20.6292 C   0  0  0  0  0  0  0  0  0  0  0  0
    4.9361   -2.1087  -19.6838 C   0  0  0  0  0  0  0  0  0  0  0  0
    5.7746    1.2385  -21.2427 C   0  0  0  0  0  0  0  0  0  0  0  0
    5.9633    3.6682  -22.0176 C   0  0  0  0  0  0  0  0  0  0  0  0
    6.3193    3.0082  -19.5628 C   0  0  0  0  0  0  0  0  0  0  0  0
    4.0756    3.3573  -19.2768 C   0  0  0  0  0  0  0  0  0  0  0  0
    5.5916    2.7137  -20.8724 C   0  0  2  0  0  0  0  0  0  0  0  0
    5.5703    3.7384  -17.2698 C   0  0  0  0  0  0  0  0  0  0  0  0
    3.1321   -2.8643  -18.2669 N   0  0  0  0  0  0  0  0  0  0  0  0
    6.6390    5.2762  -24.2279 N   0  0  0  0  0  0  0  0  0  0  0  0
    5.3205    3.2722  -18.6394 N   0  0  0  0  0  0  0  0  0  0  0  0
    4.1805    2.9469  -20.5174 N   0  3  0  0  0  0  0  0  0  0  0  0
    2.8867    3.7689  -18.6948 N   0  0  0  0  0  0  0  0  0  0  0  0
    7.5129    2.8713  -19.3165 O   0  0  0  0  0  0  0  0  0  0  0  0
    7.2485   -0.8459  -23.5291 H   0  0  0  0  0  0  0  0  0  0  0  0
    5.8170   -4.9019  -17.9515 H   0  0  0  0  0  0  0  0  0  0  0  0
    6.3679   -2.5588  -21.9586 H   0  0  0  0  0  0  0  0  0  0  0  0
    6.7419   -3.3071  -19.6402 H   0  0  0  0  0  0  0  0  0  0  0  0
    6.9163    1.5699  -23.0567 H   0  0  0  0  0  0  0  0  0  0  0  0
    8.0149    4.0167  -21.4068 H   0  0  0  0  0  0  0  0  0  0  0  0
    4.0427    3.4936  -23.0056 H   0  0  0  0  0  0  0  0  0  0  0  0
    4.6812    0.5545  -19.5099 H   0  0  0  0  0  0  0  0  0  0  0  0
    3.4998   -4.5873  -17.1144 H   0  0  0  0  0  0  0  0  0  0  0  0
    8.5478    5.4473  -23.3606 H   0  0  0  0  0  0  0  0  0  0  0  0
    4.6756    4.9483  -24.9083 H   0  0  0  0  0  0  0  0  0  0  0  0
    3.0081   -1.1567  -19.4897 H   0  0  0  0  0  0  0  0  0  0  0  0
    4.6119    3.8711  -16.7466 H   0  0  0  0  0  0  0  0  0  0  0  0
    6.1800    2.9952  -16.7352 H   0  0  0  0  0  0  0  0  0  0  0  0
    6.1066    4.6983  -17.3015 H   0  0  0  0  0  0  0  0  0  0  0  0
    3.4084    2.8106  -21.1381 H   0  0  0  0  0  0  0  0  0  0  0  0
    2.0408    3.7636  -19.2281 H   0  0  0  0  0  0  0  0  0  0  0  0
    2.8749    4.0710  -17.7416 H   0  0  0  0  0  0  0  0  0  0  0  0
  1  3  1  0  0  0  0
  1  5  2  0  0  0  0
  2  4  2  0  0  0  0
  2  9  1  0  0  0  0
  3 13  2  0  0  0  0
  4 14  1  0  0  0  0
  5 15  1  0  0  0  0
  6 10  2  0  0  0  0
  6 16  1  0  0  0  0
  7 11  1  0  0  0  0
  7 16  2  0  0  0  0
  8 13  1  0  0  0  0
  8 15  2  0  0  0  0
  9 21  2  0  0  0  0
 10 22  1  0  0  0  0
 11 22  2  0  0  0  0
 12 14  2  0  0  0  0
 12 21  1  0  0  0  0
 13 14  1  0  0  0  0
 15 19  1  0  0  0  0
 16 19  1  0  0  0  0
 17 19  1  0  0  0  0
 17 23  1  0  0  0  0
 17 26  2  0  0  0  0
 18 23  1  0  0  0  0
 18 24  2  0  0  0  0
 18 25  1  0  0  0  0
 19 24  1  0  0  0  0
 20 23  1  0  0  0  0
  1 27  1  0  0  0  0
  2 28  1  0  0  0  0
  3 29  1  0  0  0  0
  4 30  1  0  0  0  0
  5 31  1  0  0  0  0
  6 32  1  0  0  0  0
  7 33  1  0  0  0  0
  8 34  1  0  0  0  0
  9 35  1  0  0  0  0
 10 36  1  0  0  0  0
 11 37  1  0  0  0  0
 12 38  1  0  0  0  0
 20 39  1  0  0  0  0
 20 40  1  0  0  0  0
 20 41  1  0  0  0  0
 24 42  1  0  0  0  0
 25 43  1  0  0  0  0
 25 44  1  0  0  0  0
M  CHG  1  24   1
M  END
> <OMEGA_C>
YI3WQOAoCr9bLrXBLv6mQAl8gsABfJLBTEXGQP1Lwb8jIK7BY7y3QId7S8CHBprBTz/QQOI5VD83
FbPBhFDoQKrkhkBRObHBoAehQJEke0DaZLjBiwWoQNX3gT7VA6PBg8R5QGYjecDHsY7BwubxQMix
oEDnJbrB5sesQN6/l0DzEcHBcB5oQBNm/b9ET5nBsMCuQINzjr+YCKXBaPSdQG70BsBdeJ3BsMm4
QJOInj/78KnBVtO+QIfEakAJJLDBtjfKQCqHQECmgJzBNmuCQErdVkD9NprBqe6yQHusLUCo+qbB
0z+yQNpBb0CnKIrBHnVIQB9RN8CFIpLBr3LUQOHWqEC20sHBkEGqQGpsUUCIHZXBp8aFQFuZPECJ
I6TBWr84QNo0cUD5jpXB92nwQEvDN0AliJrBp/PnQCeLWL+fO7zBtCS6QP7bnMCknI/B8MXLQLvC
I8Axq6/Bk73XQBinU8A5H53B+VHdQHPxyD8FdLjB7zwAQQCJgEAVQavBn12BQFyWX0BnC7jBHsyV
QKL2DT9HFJzBAP1fQNbKksBQ6ojBm8MIQQlQrkCG4rrBK56VQMxYnkBARMfBY4VAQDEOlL/l6pvB
UpSTQLq/d0AG+YXBccLFQNOwP0Cf4YXBNmnDQFBYlkBjaYrB2iJaQEThM0C6GqnBTJwCQKPfcEA9
05nBwP43QFhFgkDS7o3BrFbXQBZJC7/BDrXBZOOnQBwag8Byc5LB90HHQJZ5wr+RBK7Bxq+4QDE2
TMCa7JnBDmzQQGOFUj+//LLBO6CgQAAIekA3VLjBCMrnQBCAhkBNGbHBPOWnQBLscD4b/6LB9/56
QJ14e8COzo7BLImsQDn/lkAmCMHBGYjxQLIaoEDzC7rBlwRpQKEUAcC+apnBUE6vQDCGkL9W+qTB
+aaeQONLCMBicZ3B1oC4QGrInD+C5anBm02+QGntaUAPCrDB7rzJQCArP0AGZ5zBWleCQDEpWUAo
PJrBhGqyQOunLEAz5KbBvvKxQBxQb0DZHIrB50NJQBQ0OsDDUJLB6znUQNMMqEDcxMHBGtCpQF3K
UEBvCJXBZ0OFQMV6O0DfBKTBHws6QL0yeUAwxZXBIO/vQJFnNkDCbprBsQ3pQO4/WL9YE7zB8DS7
QBNAncAbhY/BPz7NQN05JMBJiK/B/ufYQFqIU8Ck6ZzB9l/dQHyayD8fV7jBDfCAQIqUXkDj/LfB
9tb/QBxPgEAfF6vBrkSVQNSkBz9rHJzBnR5hQB4rlMDbFYnBJnqVQGV3nUDQQsfBtZQIQUi7rUB8
w7rBGxpBQFeYmb8mEpzBuFOTQKZXeEAD7IXBzmTFQHniP0AEy4XBeTvDQPpKlkCLcIrBk7xYQPly
MEBH2qjB1CEEQOikekDnE5rBax46QBxuh0ARPo7BbO/RQCipB79Uj7XBqeZRQLycQMBsMZHBuDvC
QNDnv785b67BrXxqQFwqAcDohpjBsLrMQJBaVj8gSbPB0QChQIKvfUBJPrjBNrroQDRQhUB6J7HB
04GmQLfGhj5P5KLB7dOFQEWJgcAHsI7BHdKtQDcPmEBiAcHBnVbzQPtHnkC5JrrBZRu5QIvjS8DF
f5rBxI6sQBlUjb9TDqXBS+6dQOE0B8CnUp3BDMC2QGi5nz9F6qnBjoq+QBA4a0AQALDBok3JQKnu
P0B/ZpzBzeOBQJ1YWkC4KJrB49GxQOlRLkAi4abBZQyyQD1uckCJLYrBpgetQNPVg8A3R5PBgTTW
QIZQp0Bx1sHBXZOpQH3GUkBoB5XBM9KEQL+cPkBcB6TB0sQ4QAxqeECqlZXB9WfvQNahNUD8bprB
LQviQHr0Vb9EzbzB8WsTQJ2SPsCzgY3BOMTGQDQaI8ABJLDB3/c/QAPGmb8xc5rBPYXZQO4Gyj9j
srjBYbqAQLYzZUBK0rfBBVMAQedqfEA6LavBh0mVQD9IED/sy5vBBep4QAu2mcCU+YjBLeaWQElm
n0CuNMfB5sAJQVyEqkCc77rBm0DYQJTBUMCqMZ7B04yTQKFUfEBA9oXBZHDFQIZAQ0DqzIXBz4TD
QOm3l0BVo4rBX+lXQDa/NUDf8KjBvsECQCnVeUBb35nBcao4QAxYhkAj/43BK7LSQB63Cr+PebXB
SVBSQC9iQcC4QZHB5H/DQGKswb/1Sq7BTPRrQCDRAcCHgpjBRNPMQNI0Uz8PRrPBmuLnQIi6hUBj
BLHBQ4egQDkTfEAgRLjBpPGmQDYYfD6f2KLB66GFQE1DgsCgwY7BlkTyQAIrn0C88rnBwB2tQJe4
l0B49sDBvKO5QPxrTcDyYZrBkZ6tQEJjj78M8KTBOsyeQB09CMB/OZ3B6ra2QEq6nT9A6qnBSPu9
QBhrakDy+a/BHurIQEGzPkBoZZzBZeeBQNnrXEBJU5rB+HCxQD42LUBR4abBM6ixQCE9cUBPLIrB
zgStQHi4hMDfPpPB6zLVQF7Yp0CErcHBPTKpQGDYUkDVFJXBImuEQG5bPUDwBaTBrCg6QB4FgEDO
+JXBKd7uQNPiMkBCYZrBUO3iQA+RWL9OtLzBZ6MTQLPuPsBpoI3BY5TIQEbtI8Aq8K/BUP9BQNQw
mr/Qb5rBvDPZQM6nyD8ku7jBqsL/QFfJfUAyAqvBSX+AQAJDYkDh7bfB0ZaVQLpeCz8FxJvBrpt3
QL2UmsBgIYnBkBoJQccRrECTpbrBgkWWQJu3nkCiNMfBfPDYQB59UsCg/Z3BpyKTQFeVfEBtBobB
Iy7EQNWpQECyzIXBSgLEQACglkDHhIrB6cJWQPHjMUBgy6jBt18EQG0zgUA1TJrBItA6QKyBi0Bo
gY7BsCDRQGcxfr/9D7jBhmWOQMy5D8D2k4rBZarAQOq64b/tmK/BF2yfQIz+ub/NzpLBMInQQKyT
0j6Ud7fB/W7FQOIYVkA5TJrBTVV+QOHwVkD/aqLBXuOuQPhljj6J5KXBehN5QI4OYMCYGo3BSHCy
QFPdckBCuZDBBsxcQHrmc0Bcm5jBy8+LQJZyTcA2VJ/BfYuvQOX2kL+1aqbBujKeQDj797+vbZ3B
Jkq/QAYsiD8nZK7BNsGrQHCpSUAoe6PBX6upQNh9TEAry7fBCZPvQIcReUB4SrfB2Vy/QEx5JkAL
663BFMvBQAPOlkB2wsbBiPJ2QBKCfcD5SpfBKdiHQPvggEC6BJDB6svHQGItgUDrZrzBYdbrQBJn
RUAVCa/Bl9EKQdYWkEBqVbrBK8mFQHjHPEDTQbvBaUHeQD+Lvb99Cb/B6viOQOTp8r9iZoLBxBjB
QODbNcCiG7DBnj+tQADJ+b7LDZHBR1fdQLwOfz9t/L3B9mbnQCWgSUApnprBbi9UQKrsSkBYGanB
hbShQO3KQz9a657BIMxeQPaDg8D5xIbB/lbGQGJIfUDyx4nBXdkYQJpSf0CK65fB1suKQOPiZcAq
aKfBvDneQNg1qkASmcjBTS+9QLFtfUBREs3BI3mlQBulq0BTWcbB4vEBQckzNUCyKarBoTIYQe7T
ikDgJbbB4SALQXRqo0A5tcDB

> <OMEGA_E>
gOEYPICJJTxQ42E+kLhoPhbUiD8=

> <OMEGA_NBR>
      4152

$$$$
408871
  -OEChem-04172616093D

 45 48  0     1  0  0  0  0  0999 V2000
    6.6645    5.2533  -24.2431 C   0  0  0  0  0  0  0  0  0  0  0  0
    5.3727    4.7027  -24.1635 C   0  0  0  0  0  0  0  0  0  0  0  0
    7.6055    4.9931  -23.2300 C   0  0  0  0  0  0  0  0  0  0  0  0
    6.7266   -0.5534  -22.6315 C   0  0  0  0  0  0  0  0  0  0  0  0
    5.2487   -4.0578  -18.2625 C   0  0  0  0  0  0  0  0  0  0  0  0
    6.2292   -1.5211  -21.7401 C   0  0  0  0  0  0  0  0  0  0  0  0
    5.7742   -3.1622  -19.2061 C   0  0  0  0  0  0  0  0  0  0  0  0
    5.0186    3.8968  -23.0685 C   0  0  0  0  0  0  0  0  0  0  0  0
    7.2553    4.1891  -22.1311 C   0  0  0  0  0  0  0  0  0  0  0  0
    6.5039    0.8147  -22.3868 C   0  0  0  0  0  0  0  0  0  0  0  0
    5.2434    0.2433  -20.3797 C   0  0  0  0  0  0  0  0  0  0  0  0
    3.9213   -3.8892  -17.8147 C   0  0  0  0  0  0  0  0  0  0  0  0
    3.6400   -1.9935  -19.1638 C   0  0  0  0  0  0  0  0  0  0  0  0
    5.4789   -1.1213  -20.6144 C   0  0  0  0  0  0  0  0  0  0  0  0
    4.9587   -2.1102  -19.6621 C   0  0  0  0  0  0  0  0  0  0  0  0
    5.9471    3.6508  -22.0256 C   0  0  0  0  0  0  0  0  0  0  0  0
    5.7582    1.2243  -21.2515 C   0  0  0  0  0  0  0  0  0  0  0  0
    6.2859    2.9918  -19.5694 C   0  0  0  0  0  0  0  0  0  0  0  0
    4.0484    3.3877  -19.2463 C   0  0  0  0  0  0  0  0  0  0  0  0
    5.5591    2.6967  -20.8896 C   0  0  1  0  0  0  0  0  0  0  0  0
    5.5868    3.7870  -17.2801 C   0  0  0  0  0  0  0  0  0  0  0  0
    3.1430   -2.8768  -18.2677 N   0  0  0  0  0  0  0  0  0  0  0  0
    4.1461    2.9314  -20.5508 N   0  0  0  0  0  0  0  0  0  0  0  0
    5.3040    3.2995  -18.6361 N   0  0  0  0  0  0  0  0  0  0  0  0
    2.9381    3.7908  -18.6850 N   0  3  0  0  0  0  0  0  0  0  0  0
    7.4729    2.8114  -19.3180 O   0  0  0  0  0  0  0  0  0  0  0  0
    6.9345    5.8766  -25.0828 H   0  0  0  0  0  0  0  0  0  0  0  0
    4.6529    4.8995  -24.9442 H   0  0  0  0  0  0  0  0  0  0  0  0
    8.5988    5.4117  -23.2967 H   0  0  0  0  0  0  0  0  0  0  0  0
    7.2808   -0.8609  -23.5060 H   0  0  0  0  0  0  0  0  0  0  0  0
    5.8538   -4.8678  -17.8828 H   0  0  0  0  0  0  0  0  0  0  0  0
    6.4216   -2.5690  -21.9172 H   0  0  0  0  0  0  0  0  0  0  0  0
    6.7829   -3.2779  -19.5744 H   0  0  0  0  0  0  0  0  0  0  0  0
    4.0315    3.4612  -23.0208 H   0  0  0  0  0  0  0  0  0  0  0  0
    7.9858    3.9804  -21.3635 H   0  0  0  0  0  0  0  0  0  0  0  0
    6.9018    1.5548  -23.0652 H   0  0  0  0  0  0  0  0  0  0  0  0
    4.6612    0.5445  -19.5214 H   0  0  0  0  0  0  0  0  0  0  0  0
    3.5160   -4.5837  -17.0937 H   0  0  0  0  0  0  0  0  0  0  0  0
    3.0161   -1.1811  -19.5062 H   0  0  0  0  0  0  0  0  0  0  0  0
    4.6403    3.9543  -16.7452 H   0  0  0  0  0  0  0  0  0  0  0  0
    6.1862    3.0396  -16.7396 H   0  0  0  0  0  0  0  0  0  0  0  0
    6.1462    4.7322  -17.3397 H   0  0  0  0  0  0  0  0  0  0  0  0
    3.3737    2.7840  -21.1686 H   0  0  0  0  0  0  0  0  0  0  0  0
    2.9369    4.0744  -17.7260 H   0  0  0  0  0  0  0  0  0  0  0  0
    2.0903    3.8155  -19.2147 H   0  0  0  0  0  0  0  0  0  0  0  0
  1  2  1  0  0  0  0
  1  3  2  0  0  0  0
  2  8  2  0  0  0  0
  3  9  1  0  0  0  0
  4  6  1  0  0  0  0
  4 10  2  0  0  0  0
  5  7  2  0  0  0  0
  5 12  1  0  0  0  0
  6 14  2  0  0  0  0
  7 15  1  0  0  0  0
  8 16  1  0  0  0  0
  9 16  2  0  0  0  0
 10 17  1  0  0  0  0
 11 14  1  0  0  0  0
 11 17  2  0  0  0  0
 12 22  2  0  0  0  0
 13 15  2  0  0  0  0
 13 22  1  0  0  0  0
 14 15  1  0  0  0  0
 16 20  1  0  0  0  0
 17 20  1  0  0  0  0
 18 20  1  0  0  0  0
 18 24  1  0  0  0  0
 18 26  2  0  0  0  0
 19 23  1  0  0  0  0
 19 24  1  0  0  0  0
 19 25  2  0  0  0  0
 20 23  1  0  0  0  0
 21 24  1  0  0  0  0
  1 27  1  0  0  0  0
  2 28  1  0  0  0  0
  3 29  1  0  0  0  0
  4 30  1  0  0  0  0
  5 31  1  0  0  0  0
  6 32  1  0  0  0  0
  7 33  1  0  0  0  0
  8 34  1  0  0  0  0
  9 35  1  0  0  0  0
 10 36  1  0  0  0  0
 11 37  1  0  0  0  0
 12 38  1  0  0  0  0
 13 39  1  0  0  0  0
 21 40  1  0  0  0  0
 21 41  1  0  0  0  0
 21 42  1  0  0  0  0
 23 43  1  0  0  0  0
 25 44  1  0  0  0  0
 25 45  1  0  0  0  0
M  CHG  1  25   1
M  END
> <OMEGA_C>
4EPVQDEbqEDK8cHBE+2rQK98lkDQTsHBKGDzQBrHn0AY17nBh0DXQP6pDb9kDbXBDvWnQLjZgcCH
GZLB61XHQNiywr+z663BlMa4QCZiSsAIppnBXJigQJFkeUBXjLjBMCvoQGsNhkCCDLHBzx/QQMqP
UD8SGLPBBsqnQFgdeT6wCaPBEPd6QP7oeMCMhI7BOPZoQEAq/79vT5nB/lKvQC+Fj7886qTBua2e
QOQMB8AKTJ3B+06+QCKnaUBtNLDBAEO4QK22nD8WA6rByCXJQF56P0AIjpzBPIyBQEvPWEBi+JnB
SuSxQD6WLEDfHafB+MayQO5dckC1PYrBZCZJQIgdOMBRJJLBqqyEQHacO0AUaKTBEbqpQIcrU0DA
FpXBogk8QLmcckDYepXByCHvQFPtM0BJi5rBCufdQPQMvEB8qcjBL+SUQOTInEC0jcfBzJQJQVgs
rUCeX7rBi/zoQAFhXL9UDLzBh1K7QArFm8AKEI/BbH3NQL5pJMB7Vq/Bdw3ZQOPIUcBPmJzB8gGB
QNqDXUCzKrjBe4v/QBy/fkB76KrB7tvcQG4Dxz+DhbjBhCiVQGNmCz/mK5zBkwZhQICtksDrv4jB
RwhBQOcvl7/IDJzBLn2UQOYSfUAz9oXBJfXFQH6JQkCe6oXBja3EQJZul0Crt4rBc+pXQIwsMkBR
WanBQfY7QF5hgkDqzo3Bb8cFQIoxdEDIt5nBECvVQOUaqUCVp8HB7GXzQN/ln0C1ornBfbCrQBnO
l0CRC8HBNdXWQEDrCr8yQbXBMZWoQLcvgsCMVZLBAS7HQEAMwr8kIq7B7Si5QI8OS8CJ6pnBSBvo
QMTGhUC47LDBqU+gQCsPe0BkYrjB4qbPQJzXUj/IOrPBU9inQKBndT6iH6PBnLh8QOUaecA8l47B
XC1qQBwQ/785UZnBqXCvQNizj78zEKXBQw6fQBdUB8BQcZ3Bhha+QOTraUCbGbDB4QO4QJjNnD9M
FqrBwcnIQG20PkDdhZzBqGeBQDyrW0AfHJrBKZKxQOJQLEAkGafBBYuyQLsFdEBjSorBmd1KQBf5
N8CoG5LBgVeEQCAlO0A4ZKTB1nqpQGSiVUCkLJXB6hU8QGMteEDxy5XB4HPuQBFRMEC3a5rBT9Td
QLd8vUCiScjBJ6sJQWbsrEBvLLrBCpiUQE25nkBKPMfBz2boQGQvWL/USrzB1vC7QNVJnMDGZI/B
alPNQC8DJMBvm6/BUT/ZQHLBUsBL+pzBM4b/QPD5fEBd1qrBsaWAQDiBX0BwCLjBwSrcQHC8yD80
prjBJmSVQE8XCT9jNpzBRDZjQDy7ksBEyIjBtDJCQEGtlr/n+5vBSkSUQAnjgEDaJIbBwzXEQLVl
QkBF4YXBUvTFQK5Ul0CgsYrB7RJXQPqFL0B/O6nBTQM8QBw+hkDINY7BFxQGQCWreUDIFZrBRi3W
QECtqEBUw8HBqlCsQDFdmEDNEMHBtlj0QGcQn0DqwbnBsIjTQD7QCr8mdrXBscBRQAKCPMADHZHB
yCrEQIP3wL/wPa7B7/prQNNP/b9cjpjB7omgQP4KfUCoWrjBZq7oQIRUhUCvALHB2rvNQDayUz8Y
UrPBPsynQK2chj5V4KLBwj+FQJoKf8CNT47BHqe5QETUSsCNCprBTDquQP9Xjb/K66TB0vaeQPY7
BsCbKJ3BVl2+QPy0akAPH7DBZp63QAXGnj9r+qnBEPjIQLwrQUDlk5zBTvOBQO49YUCYQZrBVqax
QBilLUCXFKfByuSyQADddkDnaIrBmsasQEaKgsCLtJLBIJaEQNwEPUDcWKTB9AerQIx3ZkCCz5XB
FkI8QLBCeUCcwZXBkrrtQKotLUC/MprBhS3fQCCcvEDpc8jBvTqVQCm1n0BEOsfBNUIKQYl5q0DR
VrrBItPjQDw+Wr9xqrzBb84SQKI5OcBXkY3BfSjJQJ+vI8Dp1K/BmzxCQHqrlL9etprBAI2AQE8a
Y0Dz7LfBaAUAQe9pe0Bq7arB2ifaQHViyD97zrjBYpGWQLNgET+Oy5vB6XZ2QGsml8A/hojB5wPZ
QAvoUMAql53Bb2mWQGtWikAk04bBPrm5QIEPOkDiUIbBaXLOQHUQkUA6jInBMT5XQLJoL0DEDanB
p9w8QIsmiUD5ZI7Bit8EQOiVckBjrZnB17TYQAnMp0AlysHB/Q32QA8pnkBWmbnBYaSuQBHhl0BE
TMHBBx7SQCEWCb/zkbXBtkJWQAq5P8A6spDBO8XCQDQYwL+KXa7BnLFsQOZ2AcDVSpjBp1jpQADY
hEA83LDB0MuhQHsSfUD9lbjBAC7MQD7sVD+ubrPB0dOlQDhjiD6xCKPBCdiIQIwsgMBaDo7BHOO6
QDK4ScCuO5rBqK2sQPYJjb/8DaXB79+eQB62BsCTLp3B1sG+QKfKakD/KbDBO+a1QNR8nz/THKrB
mFLIQEw0QEB8oJzBH42BQNfcYUAjPZrBoeewQMVDLkBDKafBYM2yQNlOdUC4Z4rBadCvQFA0gsBk
xpLBUwWEQDwgQECUeaTBvLWqQJwCZkDr0ZXBOa07QFLIeED0l5XBJt7sQB+uKkAXQJrBE33iQIZx
u0C+dsjBXTILQfA6qkCXBrrBojiYQLYjn0ARnsfBpIHiQCwtWL+bw7zB1iQYQAMrPsBg6YzBKeTH
QJo1I8DA9K/BcMdAQHFWnb+NV5rB1Q0AQdpAekDXpqrBhaKBQNjeY0APTrjBt6LYQIENyT/i6LjB
aCWUQJ2/ET9fBJzBTFGAQOrYl8AeIojBt9zZQPgoTsBQBp7BvJqWQLbniUBZxYbBKSe5QP78N0Bf
YobB9LjOQMjJj0BWgonBKhdWQAiNNUBnTKnBS6U8QNX9h0CCI47BERoEQLoac0BBf5nBy2iHQPVL
gUDP24/B5LKzQD1Cc0AzkpDBoPpZQC3xc0BhyZjBvMjQQHGPe793KrjBB76OQLXPD8Aqo4rBwXbA
QOnE4L8Xs6/BUKufQHr7ub/U3pLBirnFQJaRVkBaQJrByq19QGX2VkChd6LB/yrQQCi51z4gi7fB
w9KuQGqAkD6x76XB87R5QGMcYMBUKo3BiOiLQA1KTcDdZZ/BlHuvQDxikL9LfabBK06eQEuz978D
f53BuayrQCErSkAqbaPBNwi/QOcFiT/Tb67BtSKqQHuETUB31bfBbLfwQCOld0DR1LfB7n2/QBXM
JkAu2a3BBsnCQNMtlECfaMfBx1l3QCtzfcDMW5fB8SnsQPNQRECp0a7B2MjIQEw6gECN1rzBqnoK
QYrpjECM77rBD+KFQG1sP0ArK7vBhm5zQDzLjED+dojB2eXHQNuEfUDBrYnB9+UVQIb0fkCtNZjB
+NHdQFDuu79dKb/BZmqPQFVH87+ndILBseXAQC1eNcBXO7DBxYatQKr5+b6LHZHBmKbnQL7jSUBh
s5rB4YZUQKtWSkA2OqnBEd3cQGwegT/nD77BGsihQHk/RD+c757Bj5BfQLiTg8Am1IbBWsyKQAqi
ZcDEeqfB1JPfQCeNpkCVicnB30u9QJNDdkAEcM3Bcv2mQFzAqUCaJcfBo94BQVWNNUDtu6nBGu4K
QZw1n0C9fsHB9dkXQdOmh0CZvrbB

> <OMEGA_E>
AEnwPVBV+j1g/6U+SJ2qPn9oiD8=

> <OMEGA_NBR>
      8357

$$$$
50215521
  -OEChem-04172616093D

 45 48  0     1  0  0  0  0  0999 V2000
    6.6154    5.2508  -24.2412 C   0  0  0  0  0  0  0  0  0  0  0  0
    7.5761    4.9922  -23.2467 C   0  0  0  0  0  0  0  0  0  0  0  0
    5.3269    4.6963  -24.1375 C   0  0  0  0  0  0  0  0  0  0  0  0
    6.7009   -0.5590  -22.6550 C   0  0  0  0  0  0  0  0  0  0  0  0
    5.2454   -4.0458  -18.2446 C   0  0  0  0  0  0  0  0  0  0  0  0
    6.2090   -1.5296  -21.7623 C   0  0  0  0  0  0  0  0  0  0  0  0
    5.7756   -3.1586  -19.1941 C   0  0  0  0  0  0  0  0  0  0  0  0
    7.2489    4.1864  -22.1420 C   0  0  0  0  0  0  0  0  0  0  0  0
    4.9950    3.8898  -23.0357 C   0  0  0  0  0  0  0  0  0  0  0  0
    6.4961    0.8102  -22.3964 C   0  0  0  0  0  0  0  0  0  0  0  0
    5.2701    0.2341  -20.3701 C   0  0  0  0  0  0  0  0  0  0  0  0
    3.9127   -3.8791  -17.8115 C   0  0  0  0  0  0  0  0  0  0  0  0
    3.6344   -2.0019  -19.1863 C   0  0  0  0  0  0  0  0  0  0  0  0
    5.4830   -1.1302  -20.6210 C   0  0  0  0  0  0  0  0  0  0  0  0
    4.9588   -2.1167  -19.6695 C   0  0  0  0  0  0  0  0  0  0  0  0
    5.9445    3.6443  -22.0118 C   0  0  0  0  0  0  0  0  0  0  0  0
    5.7772    1.2177  -21.2431 C   0  0  0  0  0  0  0  0  0  0  0  0
    6.3153    2.9892  -19.5619 C   0  0  0  0  0  0  0  0  0  0  0  0
    4.0776    3.3690  -19.2827 C   0  0  0  0  0  0  0  0  0  0  0  0
    5.5836    2.6881  -20.8680 C   0  0  1  0  0  0  0  0  0  0  0  0
    5.5807    3.7992  -17.2946 C   0  0  0  0  0  0  0  0  0  0  0  0
    3.1331   -2.8771  -18.2849 N   0  0  0  0  0  0  0  0  0  0  0  0
    5.3213    3.2838  -18.6438 N   0  0  0  0  0  0  0  0  0  0  0  0
    4.1715    2.9052  -20.5048 N   0  3  0  0  0  0  0  0  0  0  0  0
    2.9004    3.8341  -18.7181 N   0  0  0  0  0  0  0  0  0  0  0  0
    7.5084    2.8498  -19.3143 O   0  0  0  0  0  0  0  0  0  0  0  0
    6.8674    5.8758  -25.0851 H   0  0  0  0  0  0  0  0  0  0  0  0
    8.5670    5.4135  -23.3319 H   0  0  0  0  0  0  0  0  0  0  0  0
    4.5924    4.8904  -24.9051 H   0  0  0  0  0  0  0  0  0  0  0  0
    7.2371   -0.8651  -23.5411 H   0  0  0  0  0  0  0  0  0  0  0  0
    5.8511   -4.8479  -17.8494 H   0  0  0  0  0  0  0  0  0  0  0  0
    6.3871   -2.5780  -21.9508 H   0  0  0  0  0  0  0  0  0  0  0  0
    6.7882   -3.2734  -19.5518 H   0  0  0  0  0  0  0  0  0  0  0  0
    7.9945    3.9791  -21.3887 H   0  0  0  0  0  0  0  0  0  0  0  0
    4.0093    3.4537  -22.9683 H   0  0  0  0  0  0  0  0  0  0  0  0
    6.8871    1.5515  -23.0774 H   0  0  0  0  0  0  0  0  0  0  0  0
    4.7104    0.5343  -19.4966 H   0  0  0  0  0  0  0  0  0  0  0  0
    3.5045   -4.5665  -17.0854 H   0  0  0  0  0  0  0  0  0  0  0  0
    3.0094   -1.1975  -19.5451 H   0  0  0  0  0  0  0  0  0  0  0  0
    4.6261    3.9493  -16.7690 H   0  0  0  0  0  0  0  0  0  0  0  0
    6.1957    3.0766  -16.7381 H   0  0  0  0  0  0  0  0  0  0  0  0
    6.1151    4.7580  -17.3649 H   0  0  0  0  0  0  0  0  0  0  0  0
    3.3939    2.7240  -21.1069 H   0  0  0  0  0  0  0  0  0  0  0  0
    2.0540    3.8284  -19.2507 H   0  0  0  0  0  0  0  0  0  0  0  0
    2.8974    4.1755  -17.7782 H   0  0  0  0  0  0  0  0  0  0  0  0
  1  2  1  0  0  0  0
  1  3  2  0  0  0  0
  2  8  2  0  0  0  0
  3  9  1  0  0  0  0
  4  6  1  0  0  0  0
  4 10  2  0  0  0  0
  5  7  2  0  0  0  0
  5 12  1  0  0  0  0
  6 14  2  0  0  0  0
  7 15  1  0  0  0  0
  8 16  1  0  0  0  0
  9 16  2  0  0  0  0
 10 17  1  0  0  0  0
 11 14  1  0  0  0  0
 11 17  2  0  0  0  0
 12 22  2  0  0  0  0
 13 15  2  0  0  0  0
 13 22  1  0  0  0  0
 14 15  1  0  0  0  0
 16 20  1  0  0  0  0
 17 20  1  0  0  0  0
 18 20  1  0  0  0  0
 18 23  1  0  0  0  0
 18 26  2  0  0  0  0
 19 23  1  0  0  0  0
 19 24  2  0  0  0  0
 19 25  1  0  0  0  0
 20 24  1  0  0  0  0
 21 23  1  0  0  0  0
  1 27  1  0  0  0  0
  2 28  1  0  0  0  0
  3 29  1  0  0  0  0
  4 30  1  0  0  0  0
  5 31  1  0  0  0  0
  6 32  1  0  0  0  0
  7 33  1  0  0  0  0
  8 34  1  0  0  0  0
  9 35  1  0  0  0  0
 10 36  1  0  0  0  0
 11 37  1  0  0  0  0
 12 38  1  0  0  0  0
 13 39  1  0  0  0  0
 21 40  1  0  0  0  0
 21 41  1  0  0  0  0
 21 42  1  0  0  0  0
 24 43  1  0  0  0  0
 25 44  1  0  0  0  0
 25 45  1  0  0  0  0
M  CHG  1  24   1
M  END
> <OMEGA_C>
QLHTQKIGqEDj7cHBxm/yQEfAn0Al+bnB9nWqQMFHlkCTGcHB/23WQDoZD79oPbXB6tmnQC13gcDm
9JHBRLDGQO3Iw78nGa7BwdG4QDYnSsCQjZnB5vbnQFD3hUDWIrHB8tafQHLyeEAOSbjB99/PQARm
Tz+7K7PB3qSoQHitbz7p9aLB1Gl6QORCeMD2fY7BCJpoQJofAMCcfZnBInWvQNOokL+196TBFa6e
QCZ4B8AlW53BFjm+QLo8aUAfGLDBNt+4QKbdmz/38anBphbKQKJOP0DEfpzB4HuCQPacV0AKQ5rB
wqyyQA4JLEC78abBNpWyQK4lc0BFW4rB6INIQMQiOMBtR5LBTUiqQDgpUkCOJpXBwnyFQE7vOUDq
CaTBJKA5QExidUDDvpXBuETwQHxjNkCag5rBkMHbQGcGvEBersjBPBIJQQc7rUCrp7rBmPSSQAB+
nECPPcfBppbnQFR3Xb8hVLzB/Tu7QMkhm8CNy47B+2LMQGj9JMBUm6/BqDjZQKp+UcAqapzBtdL/
QIapfkABHKvB0kuAQEYJXUALv7fBOGPcQA+Yxj+ZnrjBUbuWQOHECD8K+ZvBq0lgQPIgksD0rojB
VppAQJ9Imb9wXJzBBQmUQJvBfEABJ4bBikPGQOvmRECz54XBPq/DQOpBmEBn64rB6TRZQGVWLkDp
2qjBZnUDQIMEdUB+AZrB2245QHGdhUDHOY7BcHnUQGCbqEDd2sHBdCCrQJgSl0B/GsHB2P/yQAUH
oEBI3bnBD4zWQAI7DL8oP7XBGCKoQMAvgcDdBZLBs8HGQO9hwr8pHq7BXNa4QBmmScAZqZnB9zag
QHcgekB0WbjBVDDoQLonhkBbEbHBYMLPQPwUUj8iNbPBUf2nQARieT58FaPBMkV7QEGUd8AudI7B
uspoQI69/r93bJnBfiuvQOppj781CqXBuJmeQOThBsDqZp3BZ1u+QPLjaUC5HrDBh1y4QPcgnT8E
C6rBTtnJQNESP0AijJzBxjmCQOfOV0DjRprBC2ayQCGsLECWAqfBuH2yQHagckCwXorBATRJQBlS
N8CqK5LBoR2qQHOHUkBFNJXB/kSFQGyMO0DuHqTB18A4QMVsc0DZopXBhNPvQMaSM0Amh5rBaszc
QMmtvEDPksjB98KTQGeanUC/QcfBuGUJQfZWrUAbfbrBCe3nQMNrWr/GTbzBpZq7QCDhmsCs6I7B
c6/MQCVBJMAfmK/B5x7ZQO8VUcDimZzBsaGAQMxOXkD74rfB19j/QIG0fkDnAKvB/WXcQJL8xz9v
orjBOq+VQMT1Cj9SKJzB8YJhQNXKkcDrnojBGahAQKubl794PZzBjPOTQIHwfEAxMIbBUbzFQBqE
Q0Do8IXBlRPEQDy+l0Dg24rByNFYQGJ4MUCA/6jB5l4CQK2BckAz2pnBjIc4QO4hhEB7Eo7BClHW
QP58p0DTx8HBTb30QCBqnUCr4LnB2TysQJbgl0CR7cDBMrfRQIpQDr+XpbXBXr5RQMS0PsC6DZHB
EobCQOsJw7/Cba7BUh9rQM5qAMDyfJjBCBnpQIj/g0DMELHBoXigQMq4fECgJrjBtl3MQJwTUD8b
arPBxAmnQCbmeD6i5aLBal6FQNW+gMCPbI7BkCO5QDZ6TMA6RZrBjhutQATWj7+dBqXBe0SeQIa+
B8D4PZ3Bf4m+QMaSaUCa/6/Bb9y2QGzDnD9s+anBVCvJQGCIPkBBa5zBuwKCQHAOXEBDW5rBRcOx
QPaqLEAc6abBFgayQL6BdECyWYrB0KWsQLGgg8Ch9ZLBFn2pQBDdU0B+JpXBprOEQOjEPEAKEKTB
1rY5QL52fUDK95XBaSLvQBJSM0BBXZrB/0bfQHY6u0BlgsjBVowKQeE5qUCtlLrBYPWUQHeBn0DA
BcfBEIjhQB0kXb9h7LzB4j8TQBeQO8AdYo3B+z/HQPOyJMA5FbDB7yRBQCbyl7/ihZrBzFcAQWcE
eEBBE6vBA0qAQGHmY0BDnLfBq6vYQIq/xj+757jBpBSWQH2YCz90xJvBJkx3QJ+UmMCrqIjBUFfY
QEc6UsBM6p3BL4iTQFs3gEDSNobBWbTEQOb6REBB14XB0T7EQC9KmEBX5orBJnFXQG1tMUBx26jB
yMgDQOWtfkDcRZrBogk6QLAsikA6f47BJFDWQL6yqEAfvcHBfmisQJB4mEDNCcHBJH70QNLtnkDM
v7nBp9PSQF2TC7/mlLXBuudSQCjMPcA7G5HBwdvDQJxvwb/5UK7Buj5sQBQlAMBhn5jBQJegQKcW
fUDwVrjBBczoQEIbhUAJBLHBad3MQGzlUj89dLPB/16nQFYwhD7Z86LBRFeGQJYpf8DEM47B2Ya6
QHzWScAe65nBugauQAbujb/X+qTBUj+fQGaJBsASKZ3BIXK+QP5jakCVIbDB7fy2QE1knj8AE6rB
tHHJQKQ0QEAXrZzBaYuCQN1XYECXkZrB4LmxQMiGLUCgD6fBk/OyQMuxdkBxm4rBIACuQKQOgsBy
i5LB3HirQETAZUCHAZbBxtyEQKMsPkAnIqTBRDk5QB32eUDLypXB2hXuQExnK0D3S5rBClTfQESu
vEAIa8jBC1CVQFbxn0A1MMfBwlcKQfdIq0CzU7rBgvDiQIbRWr8a0LzB4tkTQE5AO8DQlI3B+BLJ
QOviI8Al4q/BwZRBQPS1mb/S4ZrB55CAQJdVY0BS6LfBsRUAQbO0ekAe9KrBJvzYQIgAyD8W+7jB
8x+WQGTMDz+y3pvBVD55QDoxl8AsYYjBUw7aQE3iTsBkZp3BQF2WQP9eikA4G4fBHJy5QJ4VOkCY
c4bBPn/OQDz5kEBquInBdFJXQIo6MUBVyqjBWroBQFDEckCUrJnBwv45QE3RiUD3do7BOiKIQHhA
gUCK94/BrF+0QGuhckDzuZDBlwVbQOEedEBC3ZjBL7LQQAA9gL89KLjBwnGOQPCCD8CVm4rBMUbA
QOGR4r9hrK/BGnCfQJHyub8m3JLBmifGQKygVUCLbJrBJjl+QDXfVkBGj6LBPDjQQBYVzj7AkrfB
psWuQMJojD4m+aXBc+F4QMvEX8D3Go3Bw4GLQPZyTcCTWJ/BhVGvQNl5kb8lfKbBcQeeQF4l+L9r
eZ3BaOKrQFRySUCgj6PB1yC/QKZghz+Efa7B7JapQJ4aTECa57fBKo3vQHBQeEB4dbfBBVO/QF8X
JkAVB67Bma3BQJx6lkDQ5sbBWml2QBtUfcDOSZfBuLrHQAvlgEAsirzBt9jrQOq1REBaMq/BjNAK
QV+Yj0BjibrBQbiFQBZVPEB4X7vBrEd1QCLajEBsj4jB9LjIQDG3fECH24nBawcXQMWLf0B3QJjB
KrTdQBbuvr8mI7/BoSePQIFO8r8mb4LBJZzAQOlINsDwLLDBDGGtQHwc+r6yIJHB9QjoQIuOSEBu
6ZrBcMdUQIeFSkC7TKnBr/7cQKlWfD88G77BR7WhQLRIQz+O/p7BxaZeQGJMg8DxwIbBzlqKQPH4
ZcA1a6fBcCLeQILQqUA3w8jBRfa8QEq6fEDkM83B4GelQI1hq0Bse8bBo/kBQcJaNEAiWarB1TYY
QXZEikBnX7bB9BsLQXnnokAZ6sDB

> <OMEGA_E>
QCn2PUDS9j1g7qQ+xF6oPrjAhz8=

> <OMEGA_NBR>
     12574

$$$$
408873
  -OEChem-04172616093D

 50 53  0     1  0  0  0  0  0999 V2000
    4.3578    3.8712  -17.7959 C   0  0  0  0  0  0  0  0  0  0  0  0
    5.7282    3.6246  -17.9961 C   0  0  0  0  0  0  0  0  0  0  0  0
    3.4437    3.6592  -18.8438 C   0  0  0  0  0  0  0  0  0  0  0  0
    6.8533   -0.9538  -22.9353 C   0  0  0  0  0  0  0  0  0  0  0  0
    3.1105   -2.4815  -18.3699 C   0  0  0  0  0  0  0  0  0  0  0  0
    6.3668   -1.7771  -21.9042 C   0  0  0  0  0  0  0  0  0  0  0  0
    3.7317   -1.7121  -19.3634 C   0  0  0  0  0  0  0  0  0  0  0  0
    6.1899    3.1888  -19.2508 C   0  0  0  0  0  0  0  0  0  0  0  0
    3.9018    3.2356  -20.1030 C   0  0  0  0  0  0  0  0  0  0  0  0
    6.6854    0.4414  -22.8610 C   0  0  0  0  0  0  0  0  0  0  0  0
    3.7978   -3.5599  -17.7890 C   0  0  0  0  0  0  0  0  0  0  0  0
    5.5334    0.1919  -20.7332 C   0  0  0  0  0  0  0  0  0  0  0  0
    5.7239   -3.1174  -19.2238 C   0  0  0  0  0  0  0  0  0  0  0  0
    5.6794   -1.2002  -20.8161 C   0  0  0  0  0  0  0  0  0  0  0  0
    5.0387   -2.0296  -19.7945 C   0  0  0  0  0  0  0  0  0  0  0  0
    5.2885    3.0353  -20.3348 C   0  0  0  0  0  0  0  0  0  0  0  0
    6.0497    1.0289  -21.7394 C   0  0  0  0  0  0  0  0  0  0  0  0
    5.1087   -3.8782  -18.1959 C   0  0  0  0  0  0  0  0  0  0  0  0
    7.0134    3.3179  -22.1674 C   0  0  0  0  0  0  0  0  0  0  0  0
    5.3206    3.6873  -23.6681 C   0  0  0  0  0  0  0  0  0  0  0  0
    5.7845    2.5299  -21.7029 C   0  0  2  0  0  0  0  0  0  0  0  0
    7.5037    4.8910  -24.0643 C   0  0  0  0  0  0  0  0  0  0  0  0
    7.1560   -5.0694  -17.7526 C   0  0  0  0  0  0  0  0  0  0  0  0
    4.7877    2.8109  -22.7402 N   0  0  0  0  0  0  0  0  0  0  0  0
    6.6754    3.8902  -23.3844 N   0  0  0  0  0  0  0  0  0  0  0  0
    4.6468    4.2136  -24.6570 N   0  3  0  0  0  0  0  0  0  0  0  0
    8.1144    3.3818  -21.6308 O   0  0  0  0  0  0  0  0  0  0  0  0
    5.7335   -4.9281  -17.5461 O   0  0  0  0  0  0  0  0  0  0  0  0
    4.0074    4.2236  -16.8371 H   0  0  0  0  0  0  0  0  0  0  0  0
    6.4266    3.7701  -17.1853 H   0  0  0  0  0  0  0  0  0  0  0  0
    2.3887    3.8222  -18.6804 H   0  0  0  0  0  0  0  0  0  0  0  0
    7.3559   -1.3926  -23.7846 H   0  0  0  0  0  0  0  0  0  0  0  0
    2.1057   -2.2457  -18.0518 H   0  0  0  0  0  0  0  0  0  0  0  0
    6.5187   -2.8456  -21.9453 H   0  0  0  0  0  0  0  0  0  0  0  0
    3.2094   -0.8739  -19.8006 H   0  0  0  0  0  0  0  0  0  0  0  0
    7.2382    2.9694  -19.3899 H   0  0  0  0  0  0  0  0  0  0  0  0
    3.1943    3.0611  -20.9001 H   0  0  0  0  0  0  0  0  0  0  0  0
    7.0434    1.0683  -23.6642 H   0  0  0  0  0  0  0  0  0  0  0  0
    3.3170   -4.1506  -17.0233 H   0  0  0  0  0  0  0  0  0  0  0  0
    5.0195    0.6261  -19.8883 H   0  0  0  0  0  0  0  0  0  0  0  0
    6.7155   -3.3729  -19.5669 H   0  0  0  0  0  0  0  0  0  0  0  0
    7.0215    5.1871  -25.0076 H   0  0  0  0  0  0  0  0  0  0  0  0
    7.6168    5.7737  -23.4177 H   0  0  0  0  0  0  0  0  0  0  0  0
    8.4944    4.4633  -24.2776 H   0  0  0  0  0  0  0  0  0  0  0  0
    7.5253   -5.9358  -17.1843 H   0  0  0  0  0  0  0  0  0  0  0  0
    7.3577   -5.2205  -18.8234 H   0  0  0  0  0  0  0  0  0  0  0  0
    7.6686   -4.1593  -17.4078 H   0  0  0  0  0  0  0  0  0  0  0  0
    3.8645    2.4279  -22.7721 H   0  0  0  0  0  0  0  0  0  0  0  0
    5.1021    4.8286  -25.3007 H   0  0  0  0  0  0  0  0  0  0  0  0
    3.6762    4.0011  -24.7696 H   0  0  0  0  0  0  0  0  0  0  0  0
  1  2  1  0  0  0  0
  1  3  2  0  0  0  0
  2  8  2  0  0  0  0
  3  9  1  0  0  0  0
  4  6  1  0  0  0  0
  4 10  2  0  0  0  0
  5  7  2  0  0  0  0
  5 11  1  0  0  0  0
  6 14  2  0  0  0  0
  7 15  1  0  0  0  0
  8 16  1  0  0  0  0
  9 16  2  0  0  0  0
 10 17  1  0  0  0  0
 11 18  2  0  0  0  0
 12 14  1  0  0  0  0
 12 17  2  0  0  0  0
 13 15  2  0  0  0  0
 13 18  1  0  0  0  0
 14 15  1  0  0  0  0
 16 21  1  0  0  0  0
 17 21  1  0  0  0  0
 18 28  1  0  0  0  0
 19 21  1  0  0  0  0
 19 25  1  0  0  0  0
 19 27  2  0  0  0  0
 20 24  1  0  0  0  0
 20 25  1  0  0  0  0
 20 26  2  0  0  0  0
 21 24  1  0  0  0  0
 22 25  1  0  0  0  0
 23 28  1  0  0  0  0
  1 29  1  0  0  0  0
  2 30  1  0  0  0  0
  3 31  1  0  0  0  0
  4 32  1  0  0  0  0
  5 33  1  0  0  0  0
  6 34  1  0  0  0  0
  7 35  1  0  0  0  0
  8 36  1  0  0  0  0
  9 37  1  0  0  0  0
 10 38  1  0  0  0  0
 11 39  1  0  0  0  0
 12 40  1  0  0  0  0
 13 41  1  0  0  0  0
 22 42  1  0  0  0  0
 22 43  1  0  0  0  0
 22 44  1  0  0  0  0
 23 45  1  0  0  0  0
 23 46  1  0  0  0  0
 23 47  1  0  0  0  0
 24 48  1  0  0  0  0
 26 49  1  0  0  0  0
 26 50  1  0  0  0  0
M  CHG  1  26   1
M  END
> <OMEGA_C>
cHOLQDrCd0AaXo7Bkk23QG75Z0Ab+I/BVmZcQLgwakAJwJbB3E3bQEIvdL+Me7fBpBJHQKLRHsCC
9ZLBlLzLQNt447/ZO6/B2dRuQL0k279W6JrBUBPGQDgVTECaAZrBz7d5QL4TT0D10qDBnu7VQDT5
4T5u47bB3w5zQHrVY8DTT47B/hGxQESARD6Z3aXB5Cm3QHqDR8A+ypnBir21QMGfmb9oh6bBwjyh
QF7kAcAXW57BKjupQBhCQkCtraLB6JbBQIaxgz9i6q3BFnqjQHA0eMBNkZHBrm3gQKRYVEDeVrHB
BEKqQAr8a0BXWL3BiBq5QKjpIUCAn63BAh7wQFmDnEDJg8DBHP7kQHY4osBnBY7BGDWZQLDlM0D7
67XBCp3VQFD4eEApE7vB2LKUQITVhkB0QcXBddQBQSZvWEDKC63BAHm3QAWzncByXozBbTyAQKgn
h0BasobBVqbNQBdKcUBne4nBK+AYQK2edEB+cZXB02PrQDY/sr/WRr7BB8QGQFy5D8AnapDBRZnQ
QDceNsAHkK/BZWZNQMm6X7+cZ57BB5/nQHILPkBxHpvBY29MQCvpQ0BhM6fB52PhQBa/iD9UUL3B
M0pUQNrRhMCfL4jBJqCgQMhGID9RG5/Bh+XWQOrdV8DziJzB4a/gQPb8pUCqD8jBM73zQP7BuEB/
V7vBBukHQTTTjkCVOMLBWc/wQK3xvcBheYnBeHLrQDUOp8BIlpbBhmX1QMsYhcAyQ4vBclR3QMti
G0BMLbbBQUSjQP2DmkDuZ8rBYEZrQGYJgEA3KMbBo1eSQAlGfUDtW4/BAP28QINrfUB7+JLBS2Jj
QDrCXEDP9pXB/U/lQHt2dL+NjrbB3bSrQNXchMBMDJPBBXjUQIlx5r/Toa7BI/+8QKlQU8Ar4ZrB
fQjHQJaCXUB/Mp3Bgf52QL8OPkBCRKDBwR3aQGqUzz4oxbbBa8uCQOOyecAA0o7BoP6sQEQfoj01
E6fBjGd4QA1B+L+qTJrBRNm3QCdmpb/33abB5G2lQFT7C8D2lp7BsUWmQGuRP0AbHaTBUbC+QIC4
cj/V2a7BzC9VQJ9lMsCybZLBPu7SQD5eU0Cn5rTBWb6UQFXuW0DJsr7BjhyxQGo/G0A1S6/BGtzU
QMCFl0Bsj8XB7tC/P8gqV8CzlobBTumLQC6CIkCjfLbBbYC+QO9Oe0DZcr3BC01zQBmycEAoRsbB
KyL5QDTyWEAQubLBMOMDQK7QHsDVn47B8quKQC0Li0DAhofBkxDWQHUIi0C84o3BBh4iQMdaW0AB
IJPBie76QIAIrb/AgLzBz+m9QDsLoMBhQ5DBWmrdQP74NcDDd67BmnTcQKwGYMCfFZ7BbvjnQF7L
W0ALzp/BN5FEQNAkJUDZSaXBGYLmQKR8hT/YBL3B8GtrQNbnkcDizIjB9uGWQETY8D4IOKHByAtU
QE+Fi78jGJ3BG5K9QJCro0Aea8vBrvbkQDyfskACpcHBb8HsQHCYg0DjrMnBDtj+PmJDQMBqUoTB
TPy1P1wwjMDk2InBapQJQP6nV8AP/n7BE7NgQPTIAkD/l7XBoyWCQNhtjUDH58vBK/o4QB9fVkDM
a8bB

> <OMEGA_E>
nkWBP/IRhz8=

> <OMEGA_NBR>
     14554

$$$$
298714
  -OEChem-04172616093D

 64 69  0     1  0  0  0  0  0999 V2000
    5.1947   -4.2718  -18.4428 C   0  0  0  0  0  0  0  0  0  0  0  0
    5.7194   -3.3441  -19.3516 C   0  0  0  0  0  0  0  0  0  0  0  0
    6.2588   -1.5100  -21.6994 C   0  0  0  0  0  0  0  0  0  0  0  0
    6.7735   -0.4807  -22.5133 C   0  0  0  0  0  0  0  0  0  0  0  0
    6.7946    7.8097  -17.4174 C   0  0  0  0  0  0  0  0  0  0  0  0
    5.1908    0.1422  -20.2405 C   0  0  0  0  0  0  0  0  0  0  0  0
    3.9040   -4.0658  -17.9109 C   0  0  0  0  0  0  0  0  0  0  0  0
    7.6759    6.7923  -17.0087 C   0  0  0  0  0  0  0  0  0  0  0  0
    5.4837    7.4534  -17.7799 C   0  0  0  0  0  0  0  0  0  0  0  0
    3.6503   -2.0808  -19.1195 C   0  0  0  0  0  0  0  0  0  0  0  0
    5.4628   -1.1932  -20.5675 C   0  0  0  0  0  0  0  0  0  0  0  0
    4.9356   -2.2297  -19.6913 C   0  0  0  0  0  0  0  0  0  0  0  0
    6.4930    0.8536  -22.1806 C   0  0  0  0  0  0  0  0  0  0  0  0
    5.7097    1.1378  -21.0548 C   0  0  0  0  0  0  0  0  0  0  0  0
    5.9746    5.2159  -17.2967 C   0  0  0  0  0  0  0  0  0  0  0  0
    6.3124    2.9369  -19.4996 C   0  0  0  0  0  0  0  0  0  0  0  0
    4.0913    3.4635  -19.3049 C   0  0  0  0  0  0  0  0  0  0  0  0
    6.9553    2.1424  -22.7708 C   0  0  0  0  0  0  0  0  0  0  0  0
    5.3357    4.3808  -24.3102 C   0  0  0  0  0  0  0  0  0  0  0  0
    4.9053    3.6900  -23.0120 C   0  0  0  0  0  0  0  0  0  0  0  0
    7.0083    4.5001  -21.8394 C   0  0  0  0  0  0  0  0  0  0  0  0
    7.5010    5.0868  -23.1730 C   0  0  1  0  0  0  0  0  0  0  0  0
    6.2907    5.5489  -24.0164 C   0  0  1  0  0  0  0  0  0  0  0  0
    5.5873    2.6001  -20.7944 C   0  0  1  0  0  0  0  0  0  0  0  0
    6.1146    3.2658  -22.1011 C   0  0  2  0  0  0  0  0  0  0  0  0
    8.4609    6.2482  -22.8787 C   0  0  0  0  0  0  0  0  0  0  0  0
    5.5340    3.7770  -17.2576 C   0  0  0  0  0  0  0  0  0  0  0  0
    3.1572   -2.9895  -18.2529 N   0  0  0  0  0  0  0  0  0  0  0  0
    7.2561    5.5100  -16.9639 N   0  0  0  0  0  0  0  0  0  0  0  0
    5.0938    6.1628  -17.7160 N   0  0  0  0  0  0  0  0  0  0  0  0
    5.3039    3.3022  -18.6214 N   0  0  0  0  0  0  0  0  0  0  0  0
    4.1832    2.9199  -20.4899 N   0  3  0  0  0  0  0  0  0  0  0  0
    2.9389    4.0565  -18.8118 N   0  0  0  0  0  0  0  0  0  0  0  0
    7.4973    2.7687  -19.2297 O   0  0  0  0  0  0  0  0  0  0  0  0
    6.7429    6.0682  -25.2585 O   0  0  0  0  0  0  0  0  0  0  0  0
    5.7725   -5.1366  -18.1518 H   0  0  0  0  0  0  0  0  0  0  0  0
    6.7012   -3.4823  -19.7799 H   0  0  0  0  0  0  0  0  0  0  0  0
    6.4705   -2.5420  -21.9375 H   0  0  0  0  0  0  0  0  0  0  0  0
    7.3745   -0.7152  -23.3795 H   0  0  0  0  0  0  0  0  0  0  0  0
    7.1173    8.8398  -17.4520 H   0  0  0  0  0  0  0  0  0  0  0  0
    4.5924    0.3898  -19.3762 H   0  0  0  0  0  0  0  0  0  0  0  0
    3.5015   -4.7852  -17.2132 H   0  0  0  0  0  0  0  0  0  0  0  0
    8.6902    7.0374  -16.7302 H   0  0  0  0  0  0  0  0  0  0  0  0
    4.7891    8.2120  -18.1093 H   0  0  0  0  0  0  0  0  0  0  0  0
    3.0512   -1.2215  -19.3823 H   0  0  0  0  0  0  0  0  0  0  0  0
    8.0248    2.2932  -22.5620 H   0  0  0  0  0  0  0  0  0  0  0  0
    6.7905    2.1424  -23.8584 H   0  0  0  0  0  0  0  0  0  0  0  0
    5.8467    3.6507  -24.9550 H   0  0  0  0  0  0  0  0  0  0  0  0
    4.4439    4.7654  -24.8268 H   0  0  0  0  0  0  0  0  0  0  0  0
    4.2664    4.3820  -22.4438 H   0  0  0  0  0  0  0  0  0  0  0  0
    4.3303    2.7886  -23.2706 H   0  0  0  0  0  0  0  0  0  0  0  0
    7.8746    4.2000  -21.2316 H   0  0  0  0  0  0  0  0  0  0  0  0
    6.4275    5.2620  -21.2990 H   0  0  0  0  0  0  0  0  0  0  0  0
    8.0431    4.3067  -23.7275 H   0  0  0  0  0  0  0  0  0  0  0  0
    5.7440    6.3205  -23.4546 H   0  0  0  0  0  0  0  0  0  0  0  0
    8.8204    6.6765  -23.8260 H   0  0  0  0  0  0  0  0  0  0  0  0
    7.9332    7.0230  -22.3031 H   0  0  0  0  0  0  0  0  0  0  0  0
    9.3169    5.8775  -22.2957 H   0  0  0  0  0  0  0  0  0  0  0  0
    6.3166    3.1663  -16.7836 H   0  0  0  0  0  0  0  0  0  0  0  0
    4.6027    3.6939  -16.6781 H   0  0  0  0  0  0  0  0  0  0  0  0
    3.4112    2.7463  -21.1014 H   0  0  0  0  0  0  0  0  0  0  0  0
    2.1119    4.0856  -19.3733 H   0  0  0  0  0  0  0  0  0  0  0  0
    2.9348    4.4551  -17.8947 H   0  0  0  0  0  0  0  0  0  0  0  0
    7.3363    6.7933  -25.1018 H   0  0  0  0  0  0  0  0  0  0  0  0
  1  2  2  0  0  0  0
  1  7  1  0  0  0  0
  2 12  1  0  0  0  0
  3  4  2  0  0  0  0
  3 11  1  0  0  0  0
  4 13  1  0  0  0  0
  5  8  1  0  0  0  0
  5  9  2  0  0  0  0
  6 11  2  0  0  0  0
  6 14  1  0  0  0  0
  7 28  2  0  0  0  0
  8 29  2  0  0  0  0
  9 30  1  0  0  0  0
 10 12  2  0  0  0  0
 10 28  1  0  0  0  0
 11 12  1  0  0  0  0
 13 14  2  0  0  0  0
 13 18  1  0  0  0  0
 14 24  1  0  0  0  0
 15 27  1  0  0  0  0
 15 29  1  0  0  0  0
 15 30  2  0  0  0  0
 16 24  1  0  0  0  0
 16 31  1  0  0  0  0
 16 34  2  0  0  0  0
 17 31  1  0  0  0  0
 17 32  2  0  0  0  0
 17 33  1  0  0  0  0
 18 25  1  0  0  0  0
 19 20  1  0  0  0  0
 19 23  1  0  0  0  0
 20 25  1  0  0  0  0
 21 22  1  0  0  0  0
 21 25  1  0  0  0  0
 22 23  1  0  0  0  0
 22 26  1  0  0  0  0
 23 35  1  0  0  0  0
 24 25  1  0  0  0  0
 24 32  1  0  0  0  0
 27 31  1  0  0  0  0
  1 36  1  0  0  0  0
  2 37  1  0  0  0  0
  3 38  1  0  0  0  0
  4 39  1  0  0  0  0
  5 40  1  0  0  0  0
  6 41  1  0  0  0  0
  7 42  1  0  0  0  0
  8 43  1  0  0  0  0
  9 44  1  0  0  0  0
 10 45  1  0  0  0  0
 18 46  1  0  0  0  0
 18 47  1  0  0  0  0
 19 48  1  0  0  0  0
 19 49  1  0  0  0  0
 20 50  1  0  0  0  0
 20 51  1  0  0  0  0
 21 52  1  0  0  0  0
 21 53  1  0  0  0  0
 22 54  1  0  0  0  0
 23 55  1  0  0  0  0
 26 56  1  0  0  0  0
 26 57  1  0  0  0  0
 26 58  1  0  0  0  0
 27 59  1  0  0  0  0
 27 60  1  0  0  0  0
 32 61  1  0  0  0  0
 33 62  1  0  0  0  0
 33 63  1  0  0  0  0
 35 64  1  0  0  0  0
M  CHG  1  32   1
M  END
> <OMEGA_C>
GDumQNiyiMDMipPBdgW3QAYFVsAm0JrBKkjIQPVHwb9vmK3BsMDYQHQh9r4wG7TBmG3ZQD7p+UDm
VovBRhumQPKkET547KHBbdt5QPcagsCWSY/BQKH1QDFa2UDHEYjBFXqvQCaC7kA+PY7BJZ9pQOQr
BcDB9JjBZM+uQCC7mL9QiqTBavCdQBezDsDIh53BVsbPQIiHWj/XcbHBorW2QL2jkT9ScKjBri+/
QGDopkCfX4rBOv/JQC72O0Aj/5vBiuuCQKSpXUB9cJrBHZLeQOkcCUCQKrbBA76qQNYvjEBJe8LB
OvicQJoobECXGLjBGETgQKIAkEAut67BZQjwQAjHokBGYrnBQE3JQEeQsUCeIcDB5MqyQIxoJkD+
WqbBj6rDQD4CUUD5zrDBu18HQXPxx0CJB7fBohaxQLi5cUCZD4rB1g9KQLpTP8DeBZLB0jHoQNFR
sEAetofBUACjQAo2xUBHuo3B07mpQJxWU0CL+JTBJ92FQInfOkBi66PBQRY8QODOgUCDfpbB7env
QIAyMUBc1pnBGMbXQMAuwkBjEcrBf7i4QF5fpMD3NpHBG3DWQDDdXsBKPZ7BJQ7PQGqvIsADgK/B
0PvrQBsXN78eCbvBkcDjQO5vDUGtnYvB1PSSQM6Oxz5oApvB/BhgQCsgmcCNtInBFwsLQU8y4UBs
14XB6D+ZQCpkA0Hb35DBj0ZDQC1bnL/4DpvBZGUAQUTEEkD2frTB/UvZQFwcCUDv3b7BJxi7QLKk
aUDKo8fBvDSOQMx9mEBdncbBc4aIQIA5jEDUjLPBjpGKQGp4MkAfKrrBz/z7QP5lhkBb2qnBNK7N
QKliqEBYZKrBurAAQUrQiUD60b3B9c63QM1BykDworvBUSANQeOl1UCNm77Brtz9QAa84ECnbLLB
CBIVQeEUvECwXbLBSSHKQPCkSkC7RIbBpUmTQAppbEDCbIXBrlFaQK7DL0Ciz6jBCykHQO+8gkBt
/JrBpdM7QC+QjkBBKI/BO8PqQB5j2UCI0MjBhCelQMTQiMAjRpPBPKC2QEO0VcByW5rBSDHLQGDi
xL93yqzBcNzeQJoRBr911LLBPL7OQCv//ECRxorB+rikQDj1CD5cGaLBVy52QDXegsBNdo/B+Ong
QP/I4EBgQpLBWHCzQN0Q7EAQ5ILBcyxnQG3CBsAlMJnB9N+uQAZsmr+xT6TBomGdQBxJD8DfX53B
0vTVQBWQTz80TbDBNCu4QNLYjj89PKjBlO67QLrdp0BvRorBGALLQIevOUBOxJvBZDKEQENcX0A5
z5rB/ijqQFB1BUBI1bPB5jKaQLFCmUDNI7vBlLOnQGv8VEAhzrnB9rjhQBs5kEAFSa7BzOfrQKVY
pUBa/7jBlJvBQAyUtEAZaL7BTDm1QOuiJUC3UqbBHPXJQHQtS0AEj7DBIYYFQZ+YykBCUrfBxM6w
QNudcUAlD4rB01tGQOVtQcCMapLBKq3XQISstkCM0JHBPJuqQE/DwUDOuYLBrAeqQM4NUkDt+5TB
DN+IQAElQkCNkKTB1Yk9QPfzgUC79pbBYOHwQLjiMEDcbpnBTirHQN+OsUCmsMnB9a23QNExpMAN
wZDBm7PWQIRhXcBnbZ3BaKbRQK7EJMD5m67Bwmn0QOL9RL+hSrnBi5LVQGttD0HaEYvBl3iOQCIo
yD4F0ZvByTFbQGIqmsB7C4rB+j32QN3P7EBRW5jB64ClQO55AEFv6HnBANBAQO1koL+HdJvBYoQE
QbQsD0DnyK/B/g7vQL6LBUApjLzBKomBQEGOm0BzZMHB0zKNQIRApUAEiLPBNF6LQKpULkBg07fB
7ai1QPsLPkCUW8HBTJH/QADAiUC56KnBgzrNQO1ypUBzfKnBOiT7QJ6OjUBRP77B6667QK381UBp
ELzBYxwJQcaj2UCIEr/BSHT8QJVd4kD/87HBUWsUQfiJvkBFu7PByS/LQNXCTUAIVobBvWOTQIlI
aECsXoXBSC9jQCWSP0BbC6rBmHQKQDGXhEDovJvB5qs6QCl8jEACa4/BhzXfQFgowkAPysvBdoU3
QMSnUsC41pTByHVfQHxyDsB+LZrBcTHRQH0kzL+iBKvB5+HmQMIAEr+7jLDBI8noQBlx3D9CmGfB
OzSmQJKPiD30VqHBBoplQDp+j8CVFJPBRejYQN9yP0AUDGLBc2vlQFXOpz8z+nzBkWuvQDwbZ8Db
oJvBtMawQD/wpL90aKPBl2aaQEhpGMDCrJ3B8uTbQEmrRD8ymK7BbMu7QOPjiD8fD6fBw+nEQKLq
VkCp1oLBh//MQPjHRECyBJzB31eFQCZsZkDT6ZrBTXPtQDpKBECn67LBx5iTQFu2jkDa2LvBAUWo
QLYNRUCFELrBTXjdQBakkUA+WK/BCZbiQB6Rp0C/S7rBaKq1QHs8sEDyUr/BJUO2QD2YJEAz+qXB
uwDKQFRAR0CTp7DBucf7QF/G0UDSELnBr3K1QHrRikBSXIvBEbebQMQSlMAncZbBDHjHQOm/ckCw
InHBMEfTQDcFCEDmw4XBeYOtQARTbEBx3JXBnEeJQPjkPUCtGqTBr7c9QLtag0AnB5fBhUnzQAy0
PkAR95nBUMi5QLaZr0DNtMrBi2/sP5W4TMA7G5LBBHg9QOenpr86lpvBo0rZQD8ZKMDVk6zBbrb/
QOcqUL+bPLbBcDH3QDtgij9Us1vBYRaOQAqZpD4Tf5vB18ZGQIKuqcAh9Y7B0qXaQLn6VEBlplHB
klzxQM9rrz524YDB5gzQQI9nb8CGR57B36EFQe64FUDrx67BwYvzQJRd/j9kkLvBCDh2QA0OjEA7
IsLBS4aEQOZamUBYWrTB1RCPQGyIFkB7FbjBm4K4QEozMUCNd8HBSAX9QAMjj0BOfqvBLhLIQOr+
pEDbTarBb330QCUfkkBLpr/BI9aqQEYA0EBSq7zBzTr/QHYj4UCn78DB82jqQGRW50DXobPBLtQN
QbbtykDIv7XBPXeXQCONmUBmlojB4evNQK7Do0A4aozB/j9iQC7fMUC3IanBTv8HQJ+6f0CzSZvB
aCE8QLxxkkDe+Y/Bm5LOQOYLxEDu2szBKuFtQC8Jk8B4FKDByDCMQBH7Y8AMg6XBieDIQLR2vr89
oK3BJLTeQJAU3r7rwbLBTogHQW3H6UBnrovBiq6gQIsi7j3prqLBUBVTQPhrjMB8cJXB/nECQUFT
1UBP/YHB/T35QDwL3UAe+pTBTwGFQKIxDcAvdpXBxtypQJeonL8ekKXByoKTQA/SFcBtJqDBDRjV
QABxZD+o+K/BpBy2QDgWkz/pDqjBKKHTQInUqUBH/orB8PfIQBXxPkCOlZvBvXOCQAfiaEBMb5rB
TmjnQPB6DUDppLPBf0mzQFofgUD7z8PBYE2iQKcuWkCUVrnBp6HaQL9FlUANla7BpP/sQO5BqEBS
GLnBtkDJQHGIrEBPrcHBlAiyQCOxKEAN/aXBSpDFQLpbUUDXabDBEa8AQWNJ1ECzqLbBuvmyQGfO
hUDohIrBej9hQHe0TcBgVZDBVkXnQKLQtUCexYHBU4fbQIrJvUB6eZTBtFGqQLS6ZkAuN5XB3WeF
QLXRQkC5zaPB/rQ5QBD0hUCLY5bBl2juQEeXMEDsO5nBdczaQODXu0A2hMvBSdJhQCg4scBPAqTB
7caWQOzBbMC+qa3BrMnPQCuXIMD+16/BWJT2QN0AJb+zxbjBU4UTQStSAUGp+IvBiq2JQMzOrD6k
e5zB9X4yQBzopcCnQpHBs2UKQcrS3kAVZHXByCAAQe5I7EDXh5zBPVqKQBopo79VTJHBcQsDQfpM
GkDHo6/BpyrsQNhbDUAFXbzBM5bKQO5LVkCydsfBbViYQCYMhkAiV8nBU1qIQJtmgUB3PrbBKq2V
QJ8WGkDYJrvBtsv0QPLMkUCBwqjBWmHCQI1Xq0DQYavBk/cCQVelkkCpKLzB5QuxQHIbw0Cmrr7B
ZT0HQRL94UCTEr7BQt3oQOLo6UCgY7PB+p8NQRRK0EBwx7DB40q/QNbRWEDZQoXBFOWUQCJukkCt
NofBrJtZQI3sOECJxKjBArkDQLGBhECqq5rB26Q5QJb8k0D8Mo/BHHboQOeW1kAiV8rBDZefQJDB
kMBMmZTBe2C0QDiaYcANh5rB7IfSQHI2xr87yKrBka3mQH8AB78WtrDBlxAZQWE6x0B6cozB58an
QJz85z3ADaHBvfhqQCaZicAy+JDBjpkTQdmiqEA2qoTBRkkJQU3z00CgzpPBSnVoQP2kCsA8vpjB
jRuzQGSTnr+366LBPnieQOR8FMB4rpzBCw/bQOMqTz+D567BCbC7QBcJjj8YLafB3NLhQAcupUAW
sIvBn0nNQAnsRkBMSZzBJCKGQPzRa0BzE5vBqGXrQLbzBkBtg7PBP86OQMlWjUCiF7zB9J2kQFKN
Q0AHNbrBcUfaQIvekkC+NLDBrnXdQPW5p0ANYbvB7bKvQOoQr0ByF8DBXrW1QO3ZJkCWKqbBBafH
QJrSSED7FrHB9gD2QNJ+0kBmsbrBXqi2QCELj0Ci74vBCjxBQAQRScCjDZPBq1D/QGn8l0DfaITB
v+TqQPfqwkB9TpPBYOuuQJnRdEByb5bBD+qIQBunP0BxBaTBgRxAQKIYhkDX9pbBkhXzQCrOOkBH
GJrBzyayQM9ErUCUgMvBuayvQAuFrsCg1ZLB153UQFk+a8CuZZ3BIQ/bQPcVJcDIOazBG83+QB94
Rb8OlbbBifsoQTOe1ECDw4zBYlSQQOOuvT6VDJvBXPtKQNw+osCza4zBBF8fQZpsnkBqwX3BRAkN
QaVj60CN35nBh3lGQOyXn7+NUprBmMUEQRXiGUCnoq/BWnvwQPoLAUCTMLzBFwBrQNuJiUCRIsLB
65iAQOKBmEBrirTBKiqMQMZ+FEA73rfBRQm0QNHULkCQrsHB3Fz6QANqkUCymqzBZCTFQHhMpkBT
HavBXf/uQM74kUAFu8DBEaakQOjnzkBqjb3B5wP4QOv24EAJs8LBTgflQEJj6ECKQ7XBrzsLQVOf
zECnn7fBFMW1QNv1bEAEo4XBFmmdQHzYpkCYdIrBpyxgQGrqMEBwuKjBLRIJQNcxgUC225rBBGtA
QIChlkBzHZDB7DnGQMDWwUBG+s3B9B5SQHmeTMC5lJHB6mBqQI+rC8BLrZjBHNDFQIe4wb9Pxq3B
Av7WQPZa9r6yFrTBV5vWQCs5/kCp04zBRRekQH+YAj7136HBR6SFQMdGiMCOjY/BHzjzQPcI30De
/YjBEx6tQIlO8UAkvI/Bqpm4QJYRV8DhP5vBLJ6sQMydmr9Gp6TBi5qdQIEwEcCMmp3BC+/OQLg5
WT/uMbHBqaq1QF3PkD8lNajB3yK+QBrlqkDZ6orB7ZrJQG9hPEDaupvBzteCQFIjYUDhZJrBTV3f
QOdeCECzm7XB24OrQJvCiUDihsLBX3idQMWGaUBaBrjBkSTgQLknkEDDnq7By0vwQNKvoUBPa7nB
ebbJQBqTr0B0WsDBd3yyQP1rJkAyFabByeXDQK1oUEA6irDBo4QHQVQSx0ALWbfBwQixQJkoeUCR
GorBYn+sQEVpisAMVJTBkajmQCXTtUC8J4jBQIGhQDzox0DNuo7B9XKpQOC4VkBX05TBm6uFQO4v
PEAsvqPBNIU8QKzqhEBRtZbBb5nvQBKeMkAslpnBjUDYQAZYv0BhX8rBcV4UQAi3SsDptI3BNxlA
QL06rb+5VJrB3dLLQKzQIsCq4K/BAhbqQLanNb/6DbvBLkjgQIekD0EThY3BPHmQQEIyvD6ZBpvB
ep94QN87ocDgDIrBDacJQakS6EARtobBn42WQH0/BEFwxZLB7ozXQHo9W8D2Dp/BkJ4AQWDZEECk
drPBJv/bQK4lCUAHXr7BDz28QOrfY0DCecfBdBOPQEBmlUC50cbB8LqIQBxOi0BxsLPBXUyLQNgz
L0Bz77nBqK37QPlTh0AamqnBbi/NQIXrqEBCiqrBnNkAQXchiEACoL3BsuO3QAmOyEDVCrzBllcN
Qa+700BtBr/BWSH+QD1/4EAV+LLBtSoVQeTJu0Csj7LBiq3KQPdvVEAuMobByYaTQBMedEDpWIXB
YONZQE1pMEBimqjBHiEIQAEDhkCAS5vBMCg8QCx+kkDNdo/BcAjrQFrQ1kDpPMnBDmlUQEIITcAn
gpHBZiVsQBVDDMBXp5jBWzrHQEIKwb/gqK3BpkbYQMR68b749bPBuqYAQc6r6UDLVIvBeI+jQCAO
/D3uC6LBtiKHQFQWiMDTY4/Bi9j5QDaZ00AXtIHBQbXrQIAC3EATlZTBBPm5QAYvVsAsFZvByT6t
QMm8mr8oqaTBU5SeQGMrEcBLjJ3Brz7PQJYVWz8WL7HBEtC0QEaWkD82ZKjBmxfMQE6ipEDsrorB
l7bIQPoROUAkypvB+ZuCQIQnY0AnhJrB953fQPJMCUAhgrXB8CWsQKkiikB2jsLBiYKdQP9qaUA6
JrjBzy7fQJuIkECoaq7B9wfwQEF+okAYGrnB7M7JQBY1sECwLsDBT5GxQNXoJUBJLKbB5YLDQEeu
UECMhLDBrRoHQWcnyEAS0bbB/0exQLy5eECVO4rBih2uQEPiicBHHJTBtUXfQG+QsUAohYHBRfXQ
QAkxukCpFpTBwQGpQLXMVkAH9ZTBJ9uEQCzIPEDmy6PBRHs9QH8Wh0B+zpbBG5ruQLN4LUD3qJnB
HefYQHKBwED/GMrBKIYWQOeXS8Akqo3B9VRBQDCJr78jX5rBEPLNQPFdIsAarq/BFwDsQEoOMr9d
07rBY4wLQSw8AkF+m4vBnk2PQGeRtz78TZvBlfZ7QOsDocBM3InBULcEQcvq3UBk33TBLYXwQNiN
7EBuEpzBdgfZQNTRWcCN2J7BTKgAQeVREkB+OrPBtsrcQFY+CkB1R77B9Hq9QBg3ZUBedsfBNOyP
QD2alUDe9sbBSjyIQGruikB137PB4sSLQJjYLkCrMLrB5mb6QLjhh0DlRanBkaXLQIIDqUB0ZqrB
gQABQcE6iUC8RL3Bbmu3QLnZyEAJ5rvB7ywNQcof1UDWab7BGK78QFlL4UACfbLBqJwUQZ8JvUBG
6LHBy2XCQAMVSECKhoXBtY+SQJC9g0A/WobB4cxXQDbAMEClkqjBicIIQHyciEBwU5vBvnk+QEMT
lUDGnI/BMlnrQGog2EDc0sjBBROeQIyrkcDQl5TB32WzQNhEY8BFYJrBOarSQB1Lyb+Od6rBJTDn
QI5CDr/tWrDBYRLvQNno9j/ROGjBMAmoQBx2yj0EzKDBgohnQEBrisAVIZHBK+7eQDzETED/8mLB
gaHqQCzDvT+YX33ByLtmQFDEC8CLx5jBEQ2zQKbzoL+2q6LBaNadQNTDFcC2jJzB6MnbQD2OSD9s
lK7BrnG8QHD0iz/N3qbBp6XIQMYGYEDOMoPB2PHNQFYASUAwXZzBIzWGQMDRaEBZ1prB/S/sQJrg
BEA4SrPBOyuQQHrAjEC6BbzBw7elQP4kQkB3HbrBKWrbQDYHkkDNFrDBGO3eQFPlpkA3NbvBHU+x
QAlprkDe87/BH022QLolJkDXC6bBM4PIQDY6R0Dm97DB9Z/3QNmR0UBobrrBw7+3QOpGjkBLzIvB
XXE+QBRfSsChO5PB3zjMQAoFfkCmFXLBYT3XQAL5EEDT+4XBQuauQGDicEA/GpbBe1+JQCiBPkCm
66PB5eo/QD1nhEDExZbBT3/0QL5tREB5k5rBSxy0QD2yrEAoWsvBpeetQJCOr8C10JLB+8vTQOAS
bcBSH53BqQzbQKS5JsBt5KvBTHP/QO4FTr8wLbbBPHv+QNwbqD/4S1zBgnqQQBWouD4H1ZrB5bFG
QAYfo8DpsYzBl3zhQHUCZEDMuVLBmr/2QAonAz83+YDBUz5FQDVRob8YX5rBTisFQdcBGEDiba/B
RU3xQIVt/D/k9LvB9whuQMIYiUBYHMLB0cuBQPTtl0C3fbTBLR2NQJ9QE0DlzbfBSD21QN1CLUDM
kcHBZm77QDxhkECSdKzBvU/GQK+TpUB3BKvB1YLwQMUpkUAijsDBHlCmQDBFzkAfar3B3+z5QLsq
4EATa8LBA5TmQKxv50B3ArXBsvwLQUGEy0BBT7fBPOSZQKHgnEBZ5ojBMbrPQI5wp0AzMI3BDHdh
QGm6MEC3uajB41QJQOkWgECyzprBrYg/QLI1lEAY0Y/BSVTIQDo4wUArx83B

> <OMEGA_E>
sMEuPzygMj/AdWc/rItgP/CjVD/wsko/Cu1LP8xVUT8=

> <OMEGA_NBR>
     23056

$$$$
408985
  -OEChem-04172616093D

 53 57  0     1  0  0  0  0  0999 V2000
    6.9169   -0.5535  -22.4202 C   0  0  0  0  0  0  0  0  0  0  0  0
    5.0508   -4.2069  -18.3899 C   0  0  0  0  0  0  0  0  0  0  0  0
    6.3391   -1.5094  -21.5682 C   0  0  0  0  0  0  0  0  0  0  0  0
    5.6571   -3.2607  -19.2288 C   0  0  0  0  0  0  0  0  0  0  0  0
    6.6791    0.8138  -22.2103 C   0  0  0  0  0  0  0  0  0  0  0  0
    5.2713    0.2680  -20.2920 C   0  0  0  0  0  0  0  0  0  0  0  0
    3.7361   -3.9816  -17.9336 C   0  0  0  0  0  0  0  0  0  0  0  0
    3.6217   -1.9371  -19.0777 C   0  0  0  0  0  0  0  0  0  0  0  0
    5.5243   -1.1025  -20.4895 C   0  0  0  0  0  0  0  0  0  0  0  0
    4.9328   -2.1054  -19.5844 C   0  0  0  0  0  0  0  0  0  0  0  0
    5.8188    1.2333  -21.1703 C   0  0  0  0  0  0  0  0  0  0  0  0
    6.3084    3.0850  -19.6628 C   0  0  0  0  0  0  0  0  0  0  0  0
    4.0579    3.3095  -19.2327 C   0  0  0  0  0  0  0  0  0  0  0  0
    5.7536    5.1408  -22.0219 C   0  0  0  0  0  0  0  0  0  0  0  0
    7.1163    4.4856  -22.2910 C   0  0  0  0  0  0  0  0  0  0  0  0
    6.4555    2.6767  -16.5542 C   0  0  0  0  0  0  0  0  0  0  0  0
    6.2884    5.1131  -17.3433 C   0  0  0  0  0  0  0  0  0  0  0  0
    6.7949    3.2304  -15.1681 C   0  0  0  0  0  0  0  0  0  0  0  0
    6.6578    5.5323  -15.9187 C   0  0  0  0  0  0  0  0  0  0  0  0
    5.8462    3.6180  -22.1609 C   0  0  0  0  0  0  0  0  0  0  0  0
    5.6166    3.7246  -17.3133 C   0  0  0  0  0  0  0  0  0  0  0  0
    5.5520    2.7120  -20.9216 C   0  0  1  0  0  0  0  0  0  0  0  0
    3.0474   -2.8665  -18.2780 N   0  0  0  0  0  0  0  0  0  0  0  0
    4.1426    2.9276  -20.5626 N   0  0  0  0  0  0  0  0  0  0  0  0
    5.3403    3.2929  -18.6803 N   0  0  0  0  0  0  0  0  0  0  0  0
    2.9512    3.6244  -18.6080 N   0  3  0  0  0  0  0  0  0  0  0  0
    7.5242    3.0146  -19.5124 O   0  0  0  0  0  0  0  0  0  0  0  0
    7.4687    4.5038  -15.3059 O   0  0  0  0  0  0  0  0  0  0  0  0
    7.5455   -0.8715  -23.2388 H   0  0  0  0  0  0  0  0  0  0  0  0
    5.5853   -5.0984  -18.0967 H   0  0  0  0  0  0  0  0  0  0  0  0
    6.5191   -2.5605  -21.7391 H   0  0  0  0  0  0  0  0  0  0  0  0
    6.6612   -3.4146  -19.5956 H   0  0  0  0  0  0  0  0  0  0  0  0
    7.1546    1.5470  -22.8449 H   0  0  0  0  0  0  0  0  0  0  0  0
    4.6547    0.5853  -19.4641 H   0  0  0  0  0  0  0  0  0  0  0  0
    3.2667   -4.7150  -17.2946 H   0  0  0  0  0  0  0  0  0  0  0  0
    3.0668   -1.0469  -19.3349 H   0  0  0  0  0  0  0  0  0  0  0  0
    5.5452    5.5906  -21.0400 H   0  0  0  0  0  0  0  0  0  0  0  0
    5.2654    5.7350  -22.8085 H   0  0  0  0  0  0  0  0  0  0  0  0
    7.6025    4.6073  -23.2702 H   0  0  0  0  0  0  0  0  0  0  0  0
    7.8822    4.4629  -21.5017 H   0  0  0  0  0  0  0  0  0  0  0  0
    7.3833    2.4730  -17.1088 H   0  0  0  0  0  0  0  0  0  0  0  0
    5.8788    1.7459  -16.4498 H   0  0  0  0  0  0  0  0  0  0  0  0
    5.5918    5.8482  -17.7727 H   0  0  0  0  0  0  0  0  0  0  0  0
    7.1984    5.0669  -17.9595 H   0  0  0  0  0  0  0  0  0  0  0  0
    5.8682    3.3670  -14.5914 H   0  0  0  0  0  0  0  0  0  0  0  0
    7.4531    2.5230  -14.6423 H   0  0  0  0  0  0  0  0  0  0  0  0
    7.2238    6.4750  -15.9496 H   0  0  0  0  0  0  0  0  0  0  0  0
    5.7400    5.6747  -15.3293 H   0  0  0  0  0  0  0  0  0  0  0  0
    5.4662    3.2184  -23.1126 H   0  0  0  0  0  0  0  0  0  0  0  0
    4.6601    3.8315  -16.7807 H   0  0  0  0  0  0  0  0  0  0  0  0
    3.3654    2.8159  -21.1818 H   0  0  0  0  0  0  0  0  0  0  0  0
    2.9785    3.8842  -17.6427 H   0  0  0  0  0  0  0  0  0  0  0  0
    2.0786    3.6051  -19.0961 H   0  0  0  0  0  0  0  0  0  0  0  0
  1  3  1  0  0  0  0
  1  5  2  0  0  0  0
  2  4  2  0  0  0  0
  2  7  1  0  0  0  0
  3  9  2  0  0  0  0
  4 10  1  0  0  0  0
  5 11  1  0  0  0  0
  6  9  1  0  0  0  0
  6 11  2  0  0  0  0
  7 23  2  0  0  0  0
  8 10  2  0  0  0  0
  8 23  1  0  0  0  0
  9 10  1  0  0  0  0
 11 22  1  0  0  0  0
 12 22  1  0  0  0  0
 12 25  1  0  0  0  0
 12 27  2  0  0  0  0
 13 24  1  0  0  0  0
 13 25  1  0  0  0  0
 13 26  2  0  0  0  0
 14 15  1  0  0  0  0
 14 20  1  0  0  0  0
 15 20  1  0  0  0  0
 16 18  1  0  0  0  0
 16 21  1  0  0  0  0
 17 19  1  0  0  0  0
 17 21  1  0  0  0  0
 18 28  1  0  0  0  0
 19 28  1  0  0  0  0
 20 22  1  0  0  0  0
 21 25  1  0  0  0  0
 22 24  1  0  0  0  0
  1 29  1  0  0  0  0
  2 30  1  0  0  0  0
  3 31  1  0  0  0  0
  4 32  1  0  0  0  0
  5 33  1  0  0  0  0
  6 34  1  0  0  0  0
  7 35  1  0  0  0  0
  8 36  1  0  0  0  0
 14 37  1  0  0  0  0
 14 38  1  0  0  0  0
 15 39  1  0  0  0  0
 15 40  1  0  0  0  0
 16 41  1  0  0  0  0
 16 42  1  0  0  0  0
 17 43  1  0  0  0  0
 17 44  1  0  0  0  0
 18 45  1  0  0  0  0
 18 46  1  0  0  0  0
 19 47  1  0  0  0  0
 19 48  1  0  0  0  0
 20 49  1  0  0  0  0
 21 50  1  0  0  0  0
 24 51  1  0  0  0  0
 26 52  1  0  0  0  0
 26 53  1  0  0  0  0
M  CHG  1  26   1
M  END
> <OMEGA_C>
11bdQA6xDb+ZXLPBeaChQMOehsCaHpPBxdnKQHMzwb+Ui6zBBQe1QCCvUMCA1JnBSbvVQLRTUD+u
rrHBVa6oQJg4iT4UVqLBlBtvQNrSfsAKeI/BoMlnQPvy978Xn5jB1sawQIwejb+E6qPByNmdQJy/
BsDgrJzBvjO6QMTbnT/bXKnBpd7JQDpxRUBsTZ3BidqBQBbPU0Cs3JnBKx24QDKBpEDiLLDBIrnj
QMeJj0DyU7LBW5POQChPK0DpboTBUjrJQJqeo0Aiv4rBFnDZQJK/TkBXsHLB1AzVQEIIsUAns37B
RRS7QCCOZ0B/SbHBPbuzQLpfbkCrgYrBz6mxQCaSLUB4X6fBQghDQIR1N8BROZLBx4+EQFBdO0Ak
gKTBxOOqQF6/UkBNcZXBzN88QDz2Z0AZ3ZTBUMbwQIzuQEBLGZzBP//uQIEfkEDN5HTBxnTxQD0Y
X78Q6bnBYLqyQBwmo8AJxpDBhpzQQJveI8Cw6a3BKijVQDqJWsDbw5zB3/LkQAIDxj9QwrbBafOU
QMTYFT9htpvBUBJRQP7glsBTW4rBQEdEQMkBhr/XrZrBEXKxQCXmskDXUajBQH6oQOGEt0C1d7bB
SEfzQCxvk0BmKbrBGjv8QHDQjkCIA6zBS0TsQBBFHkC+3ojBuh68QBR43z8+mYPBtO+yQFYku0CV
Lo7BVVnmQLAjokAZrY/BmMi7QKd9V0A0dmnBmn/uQF95IUDZRmrBiynnQN8yz0B0MX/Bd663QFiX
tUDvRHXB2equQHj6TUCz5rjB1R+VQKE3dUDGPobB82FXQMU3NEBodKnBM58+QCqXeEA5JI3BjwcF
QHq5ZkC6xJjBKgbqQBO1Er+QdLDBnhtnQAcijcB3xp7BdszQQMPyxr/0cqvBGXGNQN+UXsBNHKTB
yxTgQNjjST/YLa/BcvijQFSfRD4vt6PBN7M/QKt+gcAMDpXBMz98QAfG87/MxpXBwqutQIyUlr+p
+6TBe/uSQMmiDMA8lJ/Bxk68QEeZlz9U+ajBuxzKQLCjS0BGlZ3B4COCQFrtV0Cb8JnBPJbBQMow
oEDGFrHBE7DlQPj2gUB4q7TBac67QOrgP0BEiYPBa5vbQHgipUBTIYvB+57HQCs0YkDdsHDBCK3l
QMhgskA3I3/BemS5QB+gX0CZurHBEvK0QJifhUCvY4vBDp+xQD60KkCMVKfBdJlKQE5ENMCku5DB
0XyEQD5DN0C0R6TBD7KrQJ5Qa0DdWpbB1JI8QIqjYkAwpZTBagDxQHF4R0DFaZzBqarsQKq2jEDX
JXLBjosCQVelXb9gSrXBSIpdQJazrMDxFKLBTULYQC5lJsDfiqzBCt6cQKUZb8C0j6vBstjzQBLr
xD9U9LLB85KJQPJX+D7Fp57B1eIXQN2CmMCj9ZDBgCmCQERTbb8vPpLBqF3DQDIXsEAgQKnBLH+y
QOnWtUCm6bbBU2PwQLX0gUCpDb3B56AAQfxpeEAjZK/B/97VQIb1FkBmgYbBgCqeQOUpGkC9+4LB
OrTTQCDQwUC01Y/Bic/3QF5alUD6nY7BK3usQFRXg0DzLGrBKeTOQMUYLECoCGbBEFMBQVZdxkD2
8n7Bd5vKQOi0xEBgnHjBwfClQNs6S0AUm7jBk8GYQHx9l0Cll4jBoKJWQI1AKkDg8ajBrLI9QKTy
ekADP43Bf8sEQIJ+UkBGApjBrinUQKlUEr+Xp7TBFECIQJJ7LcBNVIrBGZLDQNVgwb8+Yq3BVXKZ
QPtJ4L8RUJHB7FHPQOn/TT8FuLLBs4KpQDeDmz61HqLBNBB1QLDNfMDgdo7BqiuOQP/oVMDT3p/B
FjmuQIEIir9BBqTBBZScQEPSA8B2UZzBYIm5QGCioD/xcanBqnDKQPzRRECokZzBh06CQKGgXEA1
FJrB0kWoQEgFfEC+0bnBnH6xQOAhokB6v7HBsTnhQLNjfUClEobB6bugQFC9rUAJIYjBLIz8QMJJ
o0AZFYvB0ZO9QPXuzkCrso3BdJ7EQNn2akBGBLDBaNSxQOUEf0DE/4nBD6+zQBWdL0AR96bBsjB7
QCOjh8BLBpnBmW+GQNrGQEBGlaTBhlOrQAZoZEBkbpXBdlE6QN6oa0AFkpXBaJnwQLdYNkARMJvB
v1joQHcizEDXZInB363kQGKjaL+sv7vBg46FQI0QIMBm4YHBNyTHQOxIJMCz867B7xykQHaZS78F
U47B5zzcQJvFwj+8ULjBHGyZQLitIz/L9ZrBC4laQCX6lcBDFonB5neQQACbZMDcQ6jB4xiIQAO5
X0DhSrrBNYq2QCQefkAb3MHBZ1bGQKH+vECkBrTBFOWXQBDMrUBrdazBpYfvQCaLP0CTSIjBJ5bh
QPUzgkBconrBXxygQC5atEBp+X7B/R6AQIs4sEC3YYvBvTEOQaeAo0DLVIfBo+j/QLmdnUAHupPB
hGW+QB5yyEBBWJbBhMSwQPA970C0TYzBGxHnQEBFZUAmrrHB0VmfQLKRU0By14TBXIZcQOiAOUDd
vqnBKKs3QD4Tf0Bh9I3BElMEQGy0Y0Czv5nBvc7SQAzmHL8l4LTBOOeHQBDOMMAceIrB2y3CQIiy
xr+sna3BCBSZQNnM5r/rcZHBNarOQGpxQz9H1bLBuIepQIaShj6MJKLBRphzQGjFf8DdoI7BSv+M
QLxhV8AGDKDBMXytQPJmj7+UKaTBnMqbQHmcBsBoeJzBTaK5QJ+Omz+5cqnBlafKQHPzQ0AJj5zB
/VSCQMsTW0BCEZrBSrqnQIeCeECJ4LnBLRuxQJOfoEDP47HBSl7GQFwFLkDmgoPB8L7PQIPMpEA0
oonBYt7RQJW0TEBWT3DBBKDaQFjQr0Dq3nvBN2rEQLYnaEB+HLDBzvmyQKfJeED6GIrBW+SzQKo5
LUBJ96bBAOp4QFLqiMDENJnBFnKGQCszPkDxjKTBNRurQDuZXkAOVZXBvnA7QJMAb0ALlpXBqVjx
QFPbPkDnBJvBt9PtQI8yi0Dwc3HBY9DiQFgTc786C7zBjoSFQIO1I8C0AYLBCzfFQAPuJsAwQ6/B
GgykQOe9Wb+Eb47B943bQB13vT9/b7jBufeZQLD4GD9u6JrBIB5ZQJd9l8BUQYnBTveOQI++ZsDb
dKjBYJOHQBgFXEAJQ7rBTL21QJQ4ekBw8sHBos3FQHF5u0DtQbTBtaOXQLNfrECHkqzBmnLjQHKv
FkB8hYfBGt+uQMaO8z8v+YLBS7W+QB/jv0CWTI3BMojtQBCwnkAmEY7BMWe0QMNEXkC0vWfBojLi
QGTJGEDRq2fBlDrxQPrJykDRiHvBqyW9QIzHuEA+XHPBl9DmQKiSYkBr17HBHBSUQLC7hEDebobB
THJcQD0nNkBArqnBR/w5QHqcgUCA/43B6g4FQNT5aUDFwZnBIELqQEg2Dr/LYrDB8H+dQNBbh8AP
YZLBa4XVQM3cwr9EFKrBVqezQCS3U8DXx5jBLsndQOURSz9sya/BHSyoQGREWz7TaKLBDflkQE55
fsCCpY/Bd8ZlQJoB+7+KN5nBsEi0QN84kr+NBqPBkCueQLh0CcCaS5zB/PK7QBEomD8P8KjB5gzK
QHjGVUBcdp/BbOqDQFZQV0A1rpnB8he1QEPynEAYs7PB2P/YQI4nf0Am0LfBRu3qQMztl0CRGYzB
bICiQMXyu0CL34zBQvv0QAr+skADMYLBGRywQKGK1UCK5oLBJcmvQBJLWEBUF7PBk9y5QBcBkECm
SY3B9bKuQBBgKkCrA6jBwvo7QEQjN8DYDJPBKOKCQHYTM0Cd1aPB5RKuQFxTcUDBVZfB8g5EQNwg
X0AakJPBsjHxQG4tWkBG05/BP/jdQPnj2kCdyYLBmukBQTJ0Wb/fs7XB0j6tQNAApMDHko/B7v/e
QE/CI8Agn6rBMpnUQA35XsC6+prBARzuQI83xD+PlLTB922PQDwvAz+W3pzByvpCQCf+lcBguYrB
QE9EQGO5ib/r3ZvBkcS5QM+dr0DdVKzBBtKhQG6dr0A2ZbnBu1/fQBdmekB3csDBRlL3QNpmekAf
YrPBVZ/2QO7CqEAKQZPBck37QFHOcUCHYYvBOXx/QJSAtkC3mYzB9ZWqQDJozkCnFpTBvS/rQHOC
oUDd6XXBbscLQaFzuUCq24HB2bCgQLMt9UDeDoPB8RymQPcwxECKU3fBzr+ZQFskPUAmDrnBqTiv
QH33eUCeYIbBhqVQQPqHIUBnuKfBZEJJQIQjekDnVozBZTILQB4TSkCGH5bBVrXVQNu9Bb/XE7XB
Qk5zQOEFiMCRaJrBkcfDQHUPvr9SNq7Ba8eLQGU2VcDSk6HB3g/RQFzIWD/q0bLBq8WoQKlulT7U
s6LB0qlsQBpLesBtfo/BfqmVQMxg6L8ekZLBPDitQGauir8b8aTBXCeaQE6bBcD/pJ3BPCe6QLon
oj8ioKnBhefJQLzAQUAZI5zB+puBQGK8WkBoLZrBjS6sQNOpgEAkbbnBdqO0QFqeo0Ct/bDB2Nnd
QPrcc0AHPYXBeTyeQOgLqkAod4fBQEf6QB/OnkCYtInBIDi8QICPy0BxgozB/wXHQMwVbUCZdK/B
uAuvQPq5d0BqkInBo3+0QJbSL0AQzqbBvSuEQDrGLcDuwYvB0wuHQCV7QUAZv6TBb/6pQG9DYEDv
JZXBROM3QDSPaUDX7pXBSsLvQJH0MUA7fJrBAVLmQFKqx0AK3IfBKBvnQEwSVr+xG7zBl7hcQDGv
psAeOZ3BIT/HQJxBIsA0BrDB7K2OQG6dZMAK+KnBS/7eQGZwyj/IG7jBXteXQAGNGj9vmJvBE9xQ
QEnZk8Dj+4nBvXugQBd2Xb8Be4/BafGLQE7vZUDtS7rBxpe7QHmSgkDeUsHBiRTKQDuCvkCF3bLB
K26aQGrnrkCT1qvBixjsQI1DNkC0k4fB1gbdQLuXeEDf63jBZn2cQA+Nr0DDkX3Bh0B8QK5crUBn
+YrBXMkMQQkinkAqroXBV8n+QFI2mkBsW5LBFy6+QPAqxkAbMZXB0pivQOTV60Cw94rBNafpQEkB
Z0CC1rDBKpqbQAtxS0AwwITBGCNfQN8fPEAdJKrBjVczQMkKe0AcQo7B8gADQKtgY0A1X5rBbDDU
QOhYEL9OVLXBb6hvQNocicCXrZrB5RDCQBE4w79ofa7BjwOKQEdXV8DF1KHBDV7QQCAPTj+J87LB
b46oQLIwgT5HwqLBf8NpQO/xfMA9vo/ByLeUQAiA7r8Bw5LBhiGsQMDHj79lIKXBk9mYQGIqCMAs
3J3BUiy6QJQVnT+BpanBIBvKQC6xQECEHZzBKKOBQDJtWUAAM5rBePWrQDUffkD+frnB7ai0QGMy
okAGILHBJOvBQP1UJEAwO4PByVnNQHWOoEBhnIjBF/TLQHCmP0D8T2/BrqbWQHvZqUDeeHnBpA3H
QKxJakBDjK/BxBKwQKNncUD6rInBUcG0QB50LUCj0KbBgiWDQH/cMMCD+IvBhxuHQKouP0BYwKTB
YLKpQAdvWkApFJXBkw85QJ5WbUCB+pXBPIDwQMn9OUBpPprB9YboQJ5DhECyVG/BIBrlQCq3YL/h
brzBjWtYQFScp8A/hZ3BJebEQP7LJMAdZLDBeZ2MQFFdZsBNParBf2XeQKTtxD/rO7jBGh6YQGpT
ED80lJvBfthNQPIvlcDaPorBvuOfQHkha7/mpI/BtK+LQFvAYkDGS7rBXSy7QMLFgECIa8HBhxPK
QBMGvUCgErPB3paaQH6grUDe8qvBTGXfQEkgDUBZEYfBz/ipQBJ74T9SIIPBmUW9QAdivEBlM4zB
+q3rQAyOmkBe0YzB9wGuQCMKUUCoJWfB7jzbQC4bCkAt0WbBB5ztQHpsxECSRXjB5rK4QP23skAd
XHHByqTpQI0ZZEC++7DB+caQQK8MgUD7OobBPzpfQDQ6OUC5IarB2KI1QCmbf0DEUo7BCuUDQA1B
akBTaprBK9rTQC8pC7+m/bTB6lVUQPh8L8A8Eo/Bl93DQOvfvr+pta3BfkFyQGyu4r97QpbBXH3O
QHZuVD8LBrPBVhmpQCORnj7rZ6LBECZ/QOCwfsB9YI7BJxexQMYYVcDZepvBWEauQP0Qib83WaTB
R06dQHQOBMCMoJzBG8u4QHaIoj9htanB3uvJQHnFQ0DvlpzBmPKBQD2VXEC/H5rBHunRQHSGo0CH
R67BxLjwQN3cgEDHarLByRXhQBKffUBULIbBL/2fQNvarEDR84fB+qL7QNtro0CTZovBnAq8QMbH
zkDIhI3BsD/BQHNObEAgeLDB4pCxQAjQfUBgAYrBmRmzQB18MEC6HqfBM0OiQDoiiMACfpTByBGG
QNazQkBIt6TBIviqQNxKZECHe5XBupk5QCAJakBIiJXBA5rvQKw/MkBF+JrBKl/nQNIkzEC3i4nB
807kQOJAX7+ZHrzByhsdQKzFIsD4H4rBIxbIQDHlIsABRa/BeH5SQJSzUL9/6pbBqfPaQLfLxj/7
objBP+mYQBkPIz89PJvBABpoQOA9l8D31ojBv7/MQFkVZMBOT6DB1azUQOgor0C4AKbB72rIQJIc
vkAvibPB+jf9QGOigkDEobrB8LwEQXBdZ0BNGa3BKq/vQP3bP0BlTIjBKLzhQFjegkDe3XrBjr+f
QJsPs0C4lH7B/FZ+QBcIr0BEFovB1PYNQevMo0BB5ofBVPL9QHW/nUAAEZTBPPa7QAMMyUB+M5bB
ihevQFLV7kBx3IvBROytQF7gZUC/x7fBr5SfQIxLUUCT4YTB8tdbQCRPPUD866nBFAg3QLr1e0D2
243BNooDQIxdYkChtJnBiubnQCQ+FL/NHbHBDmqdQIgYiMC0wZLBcHLTQNWuxb+QvKrBbB+zQCpa
VcCDRpnBilvcQBidRj9YRbDBZjeoQE41Uj5cgqLBHMFlQL0Ff8BZq4/Bk85lQErl+r+mHZnBmGuz
QBAblL+gXaPBqLGdQHBQCsBxi5zBaLi7QML5lj8pGanByGjKQJVBVUBIY5/BpBmEQEFUV0CKtpnB
Lqq0QMHdnEBasLPBOIbYQBoRf0Aj2rfB/DumQBodukAgW4zB2oSzQETyYkDdUYPBNmOxQD7/zkDN
jYHBOt69QGCSikCiD3LBXn6vQGIsWEDHFbPBOh68QMmnjUCqVI3B1ACvQEH5KUD9B6jBANg8QNfz
NsB615LB/iuDQG6KMkBb1KPBUnquQHQvb0BaSJfB8NRDQE8jYUCUv5PBCG3xQLbZXUBAc5/BsFam
QHBvskBswHHB7UQAQUf/YL8qrrbBniKtQIkGpcB/IZDBcjfcQLNxJcBCd6vBM7HTQHFRYcCHv5vB
jXvsQAXGwT9jH7XBGGaQQE0pAj/NvJzBeG9EQBk0lsBJqIrB9m1EQKhuiL8FlJvBsXW5QAeHr0AB
U6zBcD2hQI+Dr0BPW7nBl7jeQHtXekCYfsDB2fD2QGxeekBKdrPBdlaDQIUbtkBZ7YzB8GWxQFPf
zkBQ5JLBU8fHQHpzKUDpr4PBGKORQGfhT0CJNoPBDebTQOPX1UAQSYHB3VqfQDcI7UBRsoDBvNC0
QKKHbkDfDmTBx2HgQMVlkUD4gHHB+FSZQNLnPEAEA7nBbtjeQMIfk0Aoxo3BbUZRQACFIEA8safB
17ZIQEtufEC+iYzBz9MKQKxSTUBPaZbBfX3PQOiWIb8c3rTBL59IQKUtQsBA+ZDBda7AQJPzx78w
WK3Brb9mQJjH/7/+kZfBMuDKQOpTPj+X+bLBinGnQLhxgz7Y/6HBzC19QK8AhcCYDY/BV8u0QMgO
UsBG85nBoU2sQHIykL+i6KPBKCycQJJHCMCNP5zBtYe3QF24mj+fcKnBaQLKQAQbPUA8R5zB5COC
QPAnVEAWNJrB996xQB+8jkCeV7fByB3JQB/npEDkCK7B6oHNQDByEkADTITBC0u7QCTIl0AxgofB
rvHRQCA/KED+zHDBvFvAQELPnkBB6XbBVu3LQBxzaECHSK/BJuWtQFhEUkDzdonBIfu0QASOLUCN
9KbBwg6mQCBYiMB8cpPBbiGIQNxgRkCeEqXBaL2oQFTMQ0BC6pTBCrE8QHDNbEDas5XBqLLwQMD7
QkAPyprBUs3eQJdggEDFZ27B3YLeQAdbeb9DJrzB8MwJQC4yPsCYZ43BE+nEQGiZJ8Beya7Bxi5A
QBdwj7/kBZnBVy7WQJP8uT/w17jBiGaXQB4zGD/61prB4+tlQDNlnsDK9onBuSvUQBKHWMAde53B
c7qOQBK7jEBiYLfBI4W9QAjNkkB9lb/ByWPlQJ7kuEDhna/BGZm2QKnSskDHaKfBN+bsQIKPF0D2
OYjBHj/BQMusoT8XL4XBFpiiQNl3rUBwqIrBH+TZQNovnkCwjYvBoQezQPQ+HkCiw2jBxUDqQD33
/D8BhWnBKfDLQPSEv0DE83PBPjyhQJBWmkDE/27B7bLqQKfyT0BPQ7LBuKiOQLjcSEDqlIXBs0Rj
QGxXTECOtqrBTRQ6QCGEdUClyI3BsacIQDrndkB6L5rB

> <OMEGA_E>
SHUeP6J/Uz/Ixks/xsRKP7jaSD/UzUg/PIdHP3KhQT/CfUA/yNY8Pw==

> <OMEGA_NBR>
     32188

$$$$
408986
  -OEChem-04172616093D

 54 58  0     1  0  0  0  0  0999 V2000
    2.1066   -2.4554  -17.1313 C   0  0  0  0  0  0  0  0  0  0  0  0
    6.6575   -0.5503  -22.6034 C   0  0  0  0  0  0  0  0  0  0  0  0
    6.1398   -1.4994  -21.7045 C   0  0  0  0  0  0  0  0  0  0  0  0
    6.4934    0.8234  -22.3541 C   0  0  0  0  0  0  0  0  0  0  0  0
    3.7564   -1.7660  -18.8163 C   0  0  0  0  0  0  0  0  0  0  0  0
    5.3000    0.3003  -20.2926 C   0  0  0  0  0  0  0  0  0  0  0  0
    3.9205   -3.9769  -17.8260 C   0  0  0  0  0  0  0  0  0  0  0  0
    5.5010   -3.3413  -19.4379 C   0  0  0  0  0  0  0  0  0  0  0  0
    3.2645   -2.7318  -17.9249 C   0  0  0  0  0  0  0  0  0  0  0  0
    5.4533   -1.0794  -20.5415 C   0  0  0  0  0  0  0  0  0  0  0  0
    4.8978   -2.0695  -19.5903 C   0  0  0  0  0  0  0  0  0  0  0  0
    5.8028    1.2611  -21.1959 C   0  0  0  0  0  0  0  0  0  0  0  0
    6.3220    3.0668  -19.5644 C   0  0  0  0  0  0  0  0  0  0  0  0
    4.0659    3.4305  -19.2580 C   0  0  0  0  0  0  0  0  0  0  0  0
    5.2651    3.9606  -23.2167 C   0  0  0  0  0  0  0  0  0  0  0  0
    5.5454    5.0810  -22.1963 C   0  0  0  0  0  0  0  0  0  0  0  0
    7.0215    3.9287  -16.7420 C   0  0  0  0  0  0  0  0  0  0  0  0
    5.0035    5.3961  -16.9941 C   0  0  0  0  0  0  0  0  0  0  0  0
    7.8749    5.0796  -17.3553 C   0  0  0  0  0  0  0  0  0  0  0  0
    5.9052    6.4416  -17.6774 C   0  0  0  0  0  0  0  0  0  0  0  0
    6.1469    3.6857  -21.9904 C   0  0  0  0  0  0  0  0  0  0  0  0
    5.5423    3.9547  -17.2381 C   0  0  0  0  0  0  0  0  0  0  0  0
    5.6164    2.7462  -20.8701 C   0  0  1  0  0  0  0  0  0  0  0  0
    1.1623   -2.2275  -16.4863 N   0  0  0  0  0  0  0  0  0  0  0  0
    5.0140   -4.2616  -18.5729 N   0  0  0  0  0  0  0  0  0  0  0  0
    4.2006    3.0076  -20.5744 N   0  0  0  0  0  0  0  0  0  0  0  0
    5.3453    3.5504  -18.6714 N   0  0  0  0  0  0  0  0  0  0  0  0
    2.9024    3.6570  -18.6967 N   0  3  0  0  0  0  0  0  0  0  0  0
    7.5141    2.8413  -19.3888 O   0  0  0  0  0  0  0  0  0  0  0  0
    7.2398    6.3525  -17.1349 O   0  0  0  0  0  0  0  0  0  0  0  0
    7.1829   -0.8777  -23.4884 H   0  0  0  0  0  0  0  0  0  0  0  0
    6.2668   -2.5534  -21.9030 H   0  0  0  0  0  0  0  0  0  0  0  0
    6.8948    1.5479  -23.0472 H   0  0  0  0  0  0  0  0  0  0  0  0
    3.2698   -0.8062  -18.9088 H   0  0  0  0  0  0  0  0  0  0  0  0
    4.7906    0.6263  -19.3978 H   0  0  0  0  0  0  0  0  0  0  0  0
    3.5422   -4.7198  -17.1394 H   0  0  0  0  0  0  0  0  0  0  0  0
    6.3728   -3.5837  -20.0275 H   0  0  0  0  0  0  0  0  0  0  0  0
    4.2613    3.5157  -23.2839 H   0  0  0  0  0  0  0  0  0  0  0  0
    5.7148    4.0041  -24.2196 H   0  0  0  0  0  0  0  0  0  0  0  0
    6.1950    5.9252  -22.4707 H   0  0  0  0  0  0  0  0  0  0  0  0
    4.7415    5.4367  -21.5351 H   0  0  0  0  0  0  0  0  0  0  0  0
    7.4718    2.9658  -17.0248 H   0  0  0  0  0  0  0  0  0  0  0  0
    7.0284    4.0290  -15.6466 H   0  0  0  0  0  0  0  0  0  0  0  0
    4.9789    5.5933  -15.9122 H   0  0  0  0  0  0  0  0  0  0  0  0
    3.9858    5.4747  -17.4043 H   0  0  0  0  0  0  0  0  0  0  0  0
    8.8684    5.0844  -16.8830 H   0  0  0  0  0  0  0  0  0  0  0  0
    7.9839    4.9122  -18.4370 H   0  0  0  0  0  0  0  0  0  0  0  0
    5.9356    6.2484  -18.7599 H   0  0  0  0  0  0  0  0  0  0  0  0
    5.5019    7.4487  -17.4958 H   0  0  0  0  0  0  0  0  0  0  0  0
    7.2245    3.6024  -22.1949 H   0  0  0  0  0  0  0  0  0  0  0  0
    4.9641    3.2690  -16.6014 H   0  0  0  0  0  0  0  0  0  0  0  0
    3.4476    2.8975  -21.2232 H   0  0  0  0  0  0  0  0  0  0  0  0
    2.8566    3.9517  -17.7422 H   0  0  0  0  0  0  0  0  0  0  0  0
    2.0610    3.5350  -19.2232 H   0  0  0  0  0  0  0  0  0  0  0  0
  1  9  1  0  0  0  0
  1 24  3  0  0  0  0
  2  3  1  0  0  0  0
  2  4  2  0  0  0  0
  3 10  2  0  0  0  0
  4 12  1  0  0  0  0
  5  9  2  0  0  0  0
  5 11  1  0  0  0  0
  6 10  1  0  0  0  0
  6 12  2  0  0  0  0
  7  9  1  0  0  0  0
  7 25  2  0  0  0  0
  8 11  2  0  0  0  0
  8 25  1  0  0  0  0
 10 11  1  0  0  0  0
 12 23  1  0  0  0  0
 13 23  1  0  0  0  0
 13 27  1  0  0  0  0
 13 29  2  0  0  0  0
 14 26  1  0  0  0  0
 14 27  1  0  0  0  0
 14 28  2  0  0  0  0
 15 16  1  0  0  0  0
 15 21  1  0  0  0  0
 16 21  1  0  0  0  0
 17 19  1  0  0  0  0
 17 22  1  0  0  0  0
 18 20  1  0  0  0  0
 18 22  1  0  0  0  0
 19 30  1  0  0  0  0
 20 30  1  0  0  0  0
 21 23  1  0  0  0  0
 22 27  1  0  0  0  0
 23 26  1  0  0  0  0
  2 31  1  0  0  0  0
  3 32  1  0  0  0  0
  4 33  1  0  0  0  0
  5 34  1  0  0  0  0
  6 35  1  0  0  0  0
  7 36  1  0  0  0  0
  8 37  1  0  0  0  0
 15 38  1  0  0  0  0
 15 39  1  0  0  0  0
 16 40  1  0  0  0  0
 16 41  1  0  0  0  0
 17 42  1  0  0  0  0
 17 43  1  0  0  0  0
 18 44  1  0  0  0  0
 18 45  1  0  0  0  0
 19 46  1  0  0  0  0
 19 47  1  0  0  0  0
 20 48  1  0  0  0  0
 20 49  1  0  0  0  0
 21 50  1  0  0  0  0
 22 51  1  0  0  0  0
 26 52  1  0  0  0  0
 28 53  1  0  0  0  0
 28 54  1  0  0  0  0
M  CHG  1  28   1
M  END
> <OMEGA_C>
M9IGQIslHcDcDInB4gnVQMngDL/T07TB3njEQETrv7/hoq3BvsnPQB3KUj8Z1bLBI2hwQB8M4r/J
h5bB3pmpQFG8mT4rV6LB/+h6QJqFfsCvm47B2gewQGnYVcDHgJvBQu5QQAPWLsAjZo/BKoGuQAwq
ir8KVaTBirqcQPVxBMAJuZzBgrC5QL5qoT83kanB2E3KQBtHRED2g5zB+huCQCGNW0BwEJrBUnuo
QH16fUDIu7nBxnOxQIqXokAVkrHBuq/gQAFve0Cj74XBRBygQKqsrEDe84fBSP/7QAKMokCi14rB
jve8QGchzkBQa43BALPEQEDja0BF7K/BZFqxQF0afUCj54nBwrmzQPzBL0Dj9abBKMWUPyuPDsDr
44PBCHOgQANfiMA5lZTBLGuGQMB7QEBgmKTBkgyrQLM5Y0AbX5XBVcA5QPsLakDgkpXB4nPwQMbX
NUBVHJvBkqznQNtHy0BGFInBOdrlQIuxYL8x6LvByInIQBxqI8BAOa/BTKLcQBsgxj+aYLjBpkRR
QD9mTr9MRZfB4EyZQG5TID+oLpvB27JiQHUIl8CIHYnBwu3LQBVbZcA9OKDBoFyIQKIAYUCFRbrB
lN+2QLUhgEDBwcHBmT3GQD6bvUANxLPBprqXQNr5rUDQR6zBVhnvQAnPPUDfMojBSOjgQKPtgECO
WHrBVlOfQFr8skBJmH7Bwxd/QHQwr0D0O4vB0eQNQXWzokBxEIfBgHz/QLkwnUD4fpPBXPC9QCnz
x0A+FJbBMQ+wQN9b7kBv94vBuC7nQDCNZkAXj7HB1dmeQPY2UUCaz4TBXKVcQFVwOUAJyanBMtI2
QCTofEAR8I3BhecDQCM9YkA1yZnB9XEGQNuPH8BWBonBl7jTQLBdGL8yBrXBViTDQKycxb8c1q3B
cSvPQB5dRz9Z7bLBHYVvQMVJ57/Lk5bB1qGpQJTGgz4VV6LBGHh5QAvGgMDQwI7BuxCvQE4VWcDA
t5vBuwFQQGaJMcBqdY/B6datQAnFj79LcKTBCgecQH1WB8C82JzBj865QAMHnD+mjanBH4rKQMRX
Q0B9gJzBrCaCQFz6WUA6DprBoAOoQN2zeUAfzbnB3CSxQNz9oEATu7HBzODFQJfbK0CneoPBWTXP
QE3so0A+cYnB/ynRQO7jSUBJKnDB+N/ZQD2YrkDKbHvBHY/EQPvlaECSBbDBp4WyQG/1dkBfA4rB
+vazQNk/LUAm9abBivKUP3y7EMCXyoPBoHufQE4EisDUzZTBMnaGQN3TPUBukKTBHtqqQLJxXUD9
R5XBeuE6QDhhbUBxlpXB/zXxQIxLPkDA7ZrBGxHtQGjaiUDOHHHBswHkQNU1bL8hLrzBKq/GQGxE
JsASf6/B9v/bQHNUwD/QerjBlcpQQN7aV7+0P5fBJNCZQLczFT/zHJvBpEBhQP2PmMDpQ4nB08DK
QE3QaMD/f6DB3OmHQFsKXUDDP7rBICm2QPYEfECn2sHBTszFQED7u0CkBbTBCY2XQPN9rEDAaqzB
UwvjQE3gFEBUe4fBAWyuQLP+7j/dA4PB7C2+QJQXv0CrEo3B9xPtQCMBnkBg243B/pyzQOoXW0DB
n2fBo3fhQJjEFUBVl2fBw2vwQNubyUDz73rBb0+8QC1et0CI8HLBLP/mQAajY0BouLHBOI2TQCqm
g0ALXYbBM6ZcQMb/NUCAuanBrSM5QOSMgEDk+o3BJaMEQPZzaEDWyZnB+QDsPx40MsAfGIzBAiDV
QNiCFb+NYbTBfmDEQPE0w799K63BRMnPQBxdSj8JhLLBhBVoQDsP9b9RrJfBHrinQHQDkD73P6LB
3s15QJSBgsDiD4/BFnmzQEk7UsAUPJrBpCBIQKgrO8D99pDB2citQFq3jL8CBKTBkV2cQJdhBsBy
e5zBnIi4QFCinj8Dg6nBp9jJQJ0/QUAItZzBcBOCQMWCVEB9CprBKQXMQIaipEAecK7BH+ruQKCL
hUB6U7LB0MTPQOuiFEC4i4TBG0i9QAzgmEA74IfBD8DVQOfwK0BpdHHBfJHDQHhkoEDIyHfBPLLA
QNlQa0CfobDBo8WvQDFVVECEo4nB/TezQIUIL0ChN6fB/AhMP+nVKsCaGIjB0NijQCCfh8DTnZPB
8juGQBFXQkB916TBsHWpQB3gRUAVEZXByM09QBlZbkASWpXBTJrwQGkXQEAaM5vBd63iQFhQgkBe
m2/BLDPmQBVVa7/YZbvB09HIQKEhJcA4pK7BoIPdQAL/wD/Z/LfBVphDQC/vgb/pHJnBcRyWQB71
HD81TpvBySZhQGMzm8Cx3InBz2jSQFCnW8DO5p3B0azMQIKusEDGK6bBpCPAQNPivUAozbPB/uz7
QDKGiEAHeLrBFjsEQcKjdkCl1qzB/bLuQKKmGEBvt4jBFCPDQK9Dpj9YMoXBVzukQFxnrkD/6orB
uHHbQMEqn0B/IYzBqWO3QBNaIkCt4GjBCZDuQCayAkDdamrBoRHPQHk7wUCaH3XB7uykQLPWm0CG
bW/BWquuQBSfYEASErjB5d2QQJRKS0CwlIXBIcBcQHpfQkBJLKrBbGA9QIR6eUBUeY3BWoIIQMTy
dkAbppnBnoqvQDQstMDPeJTBPs/WQFGMCb+uIrXB2VzFQMELwb/1Rq7BqLTRQNo8VD/+1LLBZD2v
QI60WcBWqZzB9eKpQENzgj6csKLB1EZvQD7qfsDY5o/BoOJtQGxg7L9loJfBqr2cQKy+isBQr5XB
YLWuQFkUj7/j/KTBLSicQGVtCMDetJ3BYt66QBWOnj9Il6nBmC3KQDk8QkDXLpzB5GyBQMO2VUBk
/pnBSVyqQPkefkACcbnBAY2yQNRbokA+FLHBYT3eQJsgbED5a4XBsDegQAYyqUC62ofBGYTiQMpy
hkCM0XPBi5enQO5vt0AOY3jBBOrFQPtpa0DsjK/Bp0mvQJR0dEC/g4nB2n60QDnzLUC1x6bBDwi/
QFDn1cDWhpPBa/FKQMGlMMBE7pDBpt2GQMGePUDLnKTB4sapQGmzWkDv+JTBzMo3QDCUZEAGrpXB
JNvwQCU7O0C0wprBkRPUQLg8skBbvnLBrC/oQBqIV7/0MbzBSUPJQJCgI8DOGrDBIz3fQOoJyT/T
H7jB26TLQJO0acCeKKHBgPmYQLOyDj/6jZvBKtdSQD6GlsD2iYrBcklQQHYAYL96W5jBB12KQJhk
YUDxL7rBKFC5QDwcgUA6ZMHBDFjHQLaivUDXDrPB6mSYQMY4rUCO2qvB+2TzQNrmiEBSpYrB787n
QIdpKECDsIXBbs17QFR9q0BhuonBMV6yQD1PvkAHPY3BTuPOQLkcZUABHmnBfxwCQSS0hEBx0m7B
a5aeQIpL2UD3rnbBqcGTQBbOo0BBqW3BzoXoQBesZkAkC7HBtwybQAr2SkBShYTBSpteQL7NN0D2
+anBDq4zQN6VdUAL/I3B86wCQPvnXkD5FZrB

> <OMEGA_E>
HAdSP2ggUT/kkE8/xPc3Pw==

> <OMEGA_NBR>
     36072

$$$$
408878
  -OEChem-04172616093D

 58 62  0     1  0  0  0  0  0999 V2000
    6.6765   -0.4801  -22.6880 C   0  0  0  0  0  0  0  0  0  0  0  0
    5.1622   -4.3006  -18.6568 C   0  0  0  0  0  0  0  0  0  0  0  0
    6.1877   -1.4517  -21.7987 C   0  0  0  0  0  0  0  0  0  0  0  0
    5.6491   -3.3323  -19.5500 C   0  0  0  0  0  0  0  0  0  0  0  0
    6.4916    0.8854  -22.4142 C   0  0  0  0  0  0  0  0  0  0  0  0
    4.0243   -4.0348  -17.8750 C   0  0  0  0  0  0  0  0  0  0  0  0
    5.3318    0.3092  -20.3470 C   0  0  0  0  0  0  0  0  0  0  0  0
    3.8522   -1.8202  -18.8814 C   0  0  0  0  0  0  0  0  0  0  0  0
    5.5112   -1.0640  -20.6182 C   0  0  0  0  0  0  0  0  0  0  0  0
    4.9982   -2.0831  -19.6722 C   0  0  0  0  0  0  0  0  0  0  0  0
    5.8077    1.2932  -21.2416 C   0  0  0  0  0  0  0  0  0  0  0  0
    3.3573   -2.7857  -17.9812 C   0  0  0  0  0  0  0  0  0  0  0  0
    6.3091    3.0601  -19.5671 C   0  0  0  0  0  0  0  0  0  0  0  0
    4.0534    3.4120  -19.2635 C   0  0  0  0  0  0  0  0  0  0  0  0
    6.5426    5.1519  -21.7412 C   0  0  0  0  0  0  0  0  0  0  0  0
    7.5200    4.0898  -22.2744 C   0  0  0  0  0  0  0  0  0  0  0  0
    7.0074    3.9286  -16.7479 C   0  0  0  0  0  0  0  0  0  0  0  0
    4.9553    5.3443  -16.9576 C   0  0  0  0  0  0  0  0  0  0  0  0
    7.8251    5.0934  -17.3795 C   0  0  0  0  0  0  0  0  0  0  0  0
    5.8215    6.4268  -17.6317 C   0  0  0  0  0  0  0  0  0  0  0  0
    6.0398    3.7331  -22.0417 C   0  0  0  0  0  0  0  0  0  0  0  0
    5.5247    3.9199  -17.2338 C   0  0  0  0  0  0  0  0  0  0  0  0
    5.6063    2.7716  -20.8917 C   0  0  1  0  0  0  0  0  0  0  0  0
    1.7178   -3.4558  -16.3266 C   0  0  0  0  0  0  0  0  0  0  0  0
    4.1937    3.0297  -20.5929 N   0  0  0  0  0  0  0  0  0  0  0  0
    5.3308    3.5407  -18.6754 N   0  0  0  0  0  0  0  0  0  0  0  0
    2.8874    3.5980  -18.6918 N   0  3  0  0  0  0  0  0  0  0  0  0
    7.4892    2.7985  -19.3634 O   0  0  0  0  0  0  0  0  0  0  0  0
    7.1743    6.3538  -17.1303 O   0  0  0  0  0  0  0  0  0  0  0  0
    2.2263   -2.4556  -17.2432 O   0  0  0  0  0  0  0  0  0  0  0  0
    7.1959   -0.7838  -23.5849 H   0  0  0  0  0  0  0  0  0  0  0  0
    5.6639   -5.2531  -18.5702 H   0  0  0  0  0  0  0  0  0  0  0  0
    6.3291   -2.4998  -22.0173 H   0  0  0  0  0  0  0  0  0  0  0  0
    6.5247   -3.5429  -20.1463 H   0  0  0  0  0  0  0  0  0  0  0  0
    6.8723    1.6276  -23.1002 H   0  0  0  0  0  0  0  0  0  0  0  0
    3.6557   -4.7843  -17.1902 H   0  0  0  0  0  0  0  0  0  0  0  0
    4.8239    0.6119  -19.4433 H   0  0  0  0  0  0  0  0  0  0  0  0
    3.3512   -0.8675  -18.9694 H   0  0  0  0  0  0  0  0  0  0  0  0
    6.6214    5.4981  -20.7000 H   0  0  0  0  0  0  0  0  0  0  0  0
    6.2379    5.9907  -22.3843 H   0  0  0  0  0  0  0  0  0  0  0  0
    7.9130    4.1680  -23.2988 H   0  0  0  0  0  0  0  0  0  0  0  0
    8.2964    3.6754  -21.6145 H   0  0  0  0  0  0  0  0  0  0  0  0
    7.4773    2.9738  -17.0265 H   0  0  0  0  0  0  0  0  0  0  0  0
    7.0212    4.0385  -15.6535 H   0  0  0  0  0  0  0  0  0  0  0  0
    4.9395    5.5210  -15.8720 H   0  0  0  0  0  0  0  0  0  0  0  0
    3.9310    5.4051  -17.3539 H   0  0  0  0  0  0  0  0  0  0  0  0
    8.8321    5.1113  -16.9373 H   0  0  0  0  0  0  0  0  0  0  0  0
    7.9041    4.9343  -18.4651 H   0  0  0  0  0  0  0  0  0  0  0  0
    5.8261    6.2655  -18.7198 H   0  0  0  0  0  0  0  0  0  0  0  0
    5.4030    7.4197  -17.4100 H   0  0  0  0  0  0  0  0  0  0  0  0
    5.4399    3.6416  -22.9592 H   0  0  0  0  0  0  0  0  0  0  0  0
    4.9689    3.2071  -16.6069 H   0  0  0  0  0  0  0  0  0  0  0  0
    0.8275   -3.0641  -15.8128 H   0  0  0  0  0  0  0  0  0  0  0  0
    1.4481   -4.3631  -16.8869 H   0  0  0  0  0  0  0  0  0  0  0  0
    2.4918   -3.6998  -15.5841 H   0  0  0  0  0  0  0  0  0  0  0  0
    3.4431    2.9435  -21.2479 H   0  0  0  0  0  0  0  0  0  0  0  0
    2.8393    3.8629  -17.7287 H   0  0  0  0  0  0  0  0  0  0  0  0
    2.0467    3.4750  -19.2191 H   0  0  0  0  0  0  0  0  0  0  0  0
  1  3  2  0  0  0  0
  1  5  1  0  0  0  0
  2  4  1  0  0  0  0
  2  6  2  0  0  0  0
  3  9  1  0  0  0  0
  4 10  2  0  0  0  0
  5 11  2  0  0  0  0
  6 12  1  0  0  0  0
  7  9  2  0  0  0  0
  7 11  1  0  0  0  0
  8 10  1  0  0  0  0
  8 12  2  0  0  0  0
  9 10  1  0  0  0  0
 11 23  1  0  0  0  0
 12 30  1  0  0  0  0
 13 23  1  0  0  0  0
 13 26  1  0  0  0  0
 13 28  2  0  0  0  0
 14 25  1  0  0  0  0
 14 26  1  0  0  0  0
 14 27  2  0  0  0  0
 15 16  1  0  0  0  0
 15 21  1  0  0  0  0
 16 21  1  0  0  0  0
 17 19  1  0  0  0  0
 17 22  1  0  0  0  0
 18 20  1  0  0  0  0
 18 22  1  0  0  0  0
 19 29  1  0  0  0  0
 20 29  1  0  0  0  0
 21 23  1  0  0  0  0
 22 26  1  0  0  0  0
 23 25  1  0  0  0  0
 24 30  1  0  0  0  0
  1 31  1  0  0  0  0
  2 32  1  0  0  0  0
  3 33  1  0  0  0  0
  4 34  1  0  0  0  0
  5 35  1  0  0  0  0
  6 36  1  0  0  0  0
  7 37  1  0  0  0  0
  8 38  1  0  0  0  0
 15 39  1  0  0  0  0
 15 40  1  0  0  0  0
 16 41  1  0  0  0  0
 16 42  1  0  0  0  0
 17 43  1  0  0  0  0
 17 44  1  0  0  0  0
 18 45  1  0  0  0  0
 18 46  1  0  0  0  0
 19 47  1  0  0  0  0
 19 48  1  0  0  0  0
 20 49  1  0  0  0  0
 20 50  1  0  0  0  0
 21 51  1  0  0  0  0
 22 52  1  0  0  0  0
 24 53  1  0  0  0  0
 24 54  1  0  0  0  0
 24 55  1  0  0  0  0
 25 56  1  0  0  0  0
 27 57  1  0  0  0  0
 27 58  1  0  0  0  0
M  CHG  1  27   1
M  END
> <OMEGA_C>
iqXVQOHO9b4TgbXBEjGlQLieicApQZXBbgHGQB/Qub+jY67BwsW0QCJFVcB7ZpzBELvPQLKmYj87
ULPBSseAQBYdgcDy/47BcZ6qQIBVnj69xqLB1Ip2QOP86L8SDZfBjVuwQPsviL8C8qTBGfGfQOtR
BcCdYJ3BlNi5QAOIpT/U7qnBg95WQPRIMsCZ2Y/BTuTJQDfZQ0BqiZzBGLWBQLNeWkCtG5rBs1zR
QMTcpEDp7a3BxaPwQFLfgkDmMbLBrTzgQPBte0DK+4XBx5GeQM0Eq0AcqYfB42b6QBL9okBACYvB
c0m6QGeozUCzDY3BPUbBQCbrbkBZVbDBrMqwQLLfekDE3onBI2ezQGJiMUA8IqfBV9/bP1MrXcDm
nILBJTOGQDjnQUAtvqTB35WqQJqaYkAkZ5XB88o4QBhGZkDQiJXBZqfvQFUaM0BT6JrBMJTlQO1R
y0DSConB6XsOQPEoHcAo8onBd0TmQHepSL/arbzBYj61QKMZqMC4j5TB4ofKQPH8H8BUI7DBMMrQ
QIG+YsCVK6HBmenbQNFU0D8gzbjBsPdpQLAYmcCghYnBJV2aQDilHD/ai5vBynpWQGYUXr9VwZfB
pOLTQF/wr0CpmaXBJJ3HQN2zv0AmE7PB6Tb9QJVghUDuY7rBNb4EQS46a0Bw6qzBOEbvQClTPkBZ
NojBnK3gQCk7gUDfdHrBkRCeQNursECQ833B9pR7QNn2rEC81IrBNVANQZaPo0CFf4fBb+78QK3l
nUB5uJPBl2+6QKF+yEAdwpXBluWsQOxt7UC9R4vB7BOuQJQQaUBXrLfBngGfQGdBTUDV2oTB99RT
Py8aRMBKAX3Bn1q5P92ei8BrGIfBUXkfQMfJbMB3WHnBIlxcQA1jPEDM+6nBU7c1QCA5d0Bl1I3B
cPwCQAxmXkCzwJnBceLWQLQi8b6CubTBJf2pQN9zhcBW/ZPBElLFQMditr+6ya3BvWe4QEM5S8CP
AJvBqJXRQPxjZT9roLLBgP+BQKBSgcB7/o7BT0yoQHyYtD7BnaLBQPRtQBOl8r+z6JfB/5euQB99
gr/VmKTBBgOfQEpHAsCmCJ3Bn2S5QF5cqT9ItKnBRg1QQOqYOcDv7ZDB4ZzKQIWkREAZuJzBMOuB
QJPbUkBdEprB+ZbMQN4cp0AxWK7BxwDwQEgriEBv/7HBrLfcQC+YPkCMU4XBBmaiQFRDl0DRa4XB
2l7fQO8PSUBhaXLB4OqnQPA+mkDFgnLBOLfBQMdFcEBdkbDBafmuQKECVEDVUYnB5e6zQEfOM0Az
PafBMaLFP2EycMAjEYXBNAuHQHWxRkBR9aTBdiGqQCPmTkDWE5XBXoI5QDPBXUB+b5XBnQjxQHu6
OEDlYpvBBmDTQCapj0D+0mzBKDQAQEsLLsDbTIzBTYroQEIcSr+Hs7vBuqa9QNItocB/bZLBkzXJ
QOeCHsBZfa/BpRzXQLbzUcBo4J7BwxDgQNVA0D9G27fBT79tQPEQmsA3pInB3GCWQLHoKj/Rq5vB
CoBHQH4Vgr99V5nB5GLMQLBAs0CnFabBrhvBQBc/wEDKy7PB8sf9QBkdi0DnD7rBlIcEQWQ9fEDE
WazBl8LzQM4eakCBJ4nBuITkQPI0+D8QdofBdsqAQOiSnUBHgofB+Qq3QMgjr0D4UInBRXLJQIGV
G0AIpWrBoiYAQWGTPEA1CW3BxLCgQCcFu0AsNG3BNuSRQFC1g0Beq2rBM2mwQCoiZUB6GrjB4dCY
QPIHJkCVnYXBAGwMPzo6X8Bm+4HBLym+PwPAlsBJXonBfPQPQO4jdsCptXzB+mVfQBhDSkBoaarB
nh82QJNNZEAgfY3Bfx0EQNeHX0A015nB

> <OMEGA_E>
Si9GP1KyQz8=

> <OMEGA_NBR>
     38278

$$$$
408877
  -OEChem-04172616093D

 60 64  0     1  0  0  0  0  0999 V2000
    6.6727   -0.4778  -22.6892 C   0  0  0  0  0  0  0  0  0  0  0  0
    5.1662   -4.2976  -18.6548 C   0  0  0  0  0  0  0  0  0  0  0  0
    6.1855   -1.4491  -21.7986 C   0  0  0  0  0  0  0  0  0  0  0  0
    5.6510   -3.3293  -19.5491 C   0  0  0  0  0  0  0  0  0  0  0  0
    6.4883    0.8877  -22.4153 C   0  0  0  0  0  0  0  0  0  0  0  0
    4.0296   -4.0321  -17.8710 C   0  0  0  0  0  0  0  0  0  0  0  0
    5.3311    0.3122  -20.3466 C   0  0  0  0  0  0  0  0  0  0  0  0
    3.8551   -1.8176  -18.8771 C   0  0  0  0  0  0  0  0  0  0  0  0
    5.5106   -1.0612  -20.6174 C   0  0  0  0  0  0  0  0  0  0  0  0
    4.9995   -2.0803  -19.6703 C   0  0  0  0  0  0  0  0  0  0  0  0
    5.8058    1.2959  -21.2422 C   0  0  0  0  0  0  0  0  0  0  0  0
    3.3619   -2.7832  -17.9762 C   0  0  0  0  0  0  0  0  0  0  0  0
    6.3094    3.0616  -19.5672 C   0  0  0  0  0  0  0  0  0  0  0  0
    4.0554    3.4179  -19.2638 C   0  0  0  0  0  0  0  0  0  0  0  0
    7.2168    6.4234  -17.1098 C   0  0  0  0  0  0  0  0  0  0  0  0
    5.7578    6.4436  -17.6051 C   0  0  0  0  0  0  0  0  0  0  0  0
    7.8682    5.0509  -17.3393 C   0  0  0  0  0  0  0  0  0  0  0  0
    6.5421    5.1547  -21.7390 C   0  0  0  0  0  0  0  0  0  0  0  0
    7.5204    4.0929  -22.2717 C   0  0  0  0  0  0  0  0  0  0  0  0
    4.9402    5.3246  -16.9288 C   0  0  0  0  0  0  0  0  0  0  0  0
    7.0060    3.9033  -16.7325 C   0  0  0  0  0  0  0  0  0  0  0  0
    6.0401    3.7361  -22.0416 C   0  0  0  0  0  0  0  0  0  0  0  0
    5.5261    3.9119  -17.2302 C   0  0  0  0  0  0  0  0  0  0  0  0
    5.6059    2.7745  -20.8921 C   0  0  1  0  0  0  0  0  0  0  0  0
    1.7252   -3.4539  -16.3189 C   0  0  0  0  0  0  0  0  0  0  0  0
    4.1943    3.0344  -20.5929 N   0  0  0  0  0  0  0  0  0  0  0  0
    5.3337    3.5495  -18.6769 N   0  0  0  0  0  0  0  0  0  0  0  0
    2.8888    3.6001  -18.6922 N   0  3  0  0  0  0  0  0  0  0  0  0
    7.4856    2.7859  -19.3607 O   0  0  0  0  0  0  0  0  0  0  0  0
    2.2321   -2.4534  -17.2362 O   0  0  0  0  0  0  0  0  0  0  0  0
    7.1905   -0.7817  -23.5869 H   0  0  0  0  0  0  0  0  0  0  0  0
    5.6684   -5.2499  -18.5689 H   0  0  0  0  0  0  0  0  0  0  0  0
    6.3269   -2.4973  -22.0170 H   0  0  0  0  0  0  0  0  0  0  0  0
    6.5255   -3.5397  -20.1469 H   0  0  0  0  0  0  0  0  0  0  0  0
    6.8684    1.6298  -23.1018 H   0  0  0  0  0  0  0  0  0  0  0  0
    3.6624   -4.7816  -17.1855 H   0  0  0  0  0  0  0  0  0  0  0  0
    4.8239    0.6151  -19.4425 H   0  0  0  0  0  0  0  0  0  0  0  0
    3.3539   -0.8648  -18.9640 H   0  0  0  0  0  0  0  0  0  0  0  0
    7.7905    7.1873  -17.6551 H   0  0  0  0  0  0  0  0  0  0  0  0
    7.2326    6.6515  -16.0338 H   0  0  0  0  0  0  0  0  0  0  0  0
    5.3072    7.4175  -17.3632 H   0  0  0  0  0  0  0  0  0  0  0  0
    5.7437    6.2937  -18.6948 H   0  0  0  0  0  0  0  0  0  0  0  0
    7.9772    4.8830  -18.4209 H   0  0  0  0  0  0  0  0  0  0  0  0
    8.8606    5.0421  -16.8649 H   0  0  0  0  0  0  0  0  0  0  0  0
    6.6193    5.4999  -20.6974 H   0  0  0  0  0  0  0  0  0  0  0  0
    6.2383    5.9940  -22.3819 H   0  0  0  0  0  0  0  0  0  0  0  0
    7.9149    4.1721  -23.2954 H   0  0  0  0  0  0  0  0  0  0  0  0
    8.2958    3.6780  -21.6110 H   0  0  0  0  0  0  0  0  0  0  0  0
    4.9468    5.4875  -15.8409 H   0  0  0  0  0  0  0  0  0  0  0  0
    3.9054    5.3668  -17.2996 H   0  0  0  0  0  0  0  0  0  0  0  0
    7.4616    2.9410  -17.0090 H   0  0  0  0  0  0  0  0  0  0  0  0
    7.0065    4.0080  -15.6375 H   0  0  0  0  0  0  0  0  0  0  0  0
    5.4412    3.6449  -22.9597 H   0  0  0  0  0  0  0  0  0  0  0  0
    4.9690    3.1865  -16.6190 H   0  0  0  0  0  0  0  0  0  0  0  0
    0.8357   -3.0626  -15.8036 H   0  0  0  0  0  0  0  0  0  0  0  0
    1.4548   -4.3612  -16.8790 H   0  0  0  0  0  0  0  0  0  0  0  0
    2.5006   -3.6979  -15.5778 H   0  0  0  0  0  0  0  0  0  0  0  0
    3.4431    2.9485  -21.2474 H   0  0  0  0  0  0  0  0  0  0  0  0
    2.8397    3.8641  -17.7290 H   0  0  0  0  0  0  0  0  0  0  0  0
    2.0485    3.4749  -19.2198 H   0  0  0  0  0  0  0  0  0  0  0  0
  1  3  2  0  0  0  0
  1  5  1  0  0  0  0
  2  4  1  0  0  0  0
  2  6  2  0  0  0  0
  3  9  1  0  0  0  0
  4 10  2  0  0  0  0
  5 11  2  0  0  0  0
  6 12  1  0  0  0  0
  7  9  2  0  0  0  0
  7 11  1  0  0  0  0
  8 10  1  0  0  0  0
  8 12  2  0  0  0  0
  9 10  1  0  0  0  0
 11 24  1  0  0  0  0
 12 30  1  0  0  0  0
 13 24  1  0  0  0  0
 13 27  1  0  0  0  0
 13 29  2  0  0  0  0
 14 26  1  0  0  0  0
 14 27  1  0  0  0  0
 14 28  2  0  0  0  0
 15 16  1  0  0  0  0
 15 17  1  0  0  0  0
 16 20  1  0  0  0  0
 17 21  1  0  0  0  0
 18 19  1  0  0  0  0
 18 22  1  0  0  0  0
 19 22  1  0  0  0  0
 20 23  1  0  0  0  0
 21 23  1  0  0  0  0
 22 24  1  0  0  0  0
 23 27  1  0  0  0  0
 24 26  1  0  0  0  0
 25 30  1  0  0  0  0
  1 31  1  0  0  0  0
  2 32  1  0  0  0  0
  3 33  1  0  0  0  0
  4 34  1  0  0  0  0
  5 35  1  0  0  0  0
  6 36  1  0  0  0  0
  7 37  1  0  0  0  0
  8 38  1  0  0  0  0
 15 39  1  0  0  0  0
 15 40  1  0  0  0  0
 16 41  1  0  0  0  0
 16 42  1  0  0  0  0
 17 43  1  0  0  0  0
 17 44  1  0  0  0  0
 18 45  1  0  0  0  0
 18 46  1  0  0  0  0
 19 47  1  0  0  0  0
 19 48  1  0  0  0  0
 20 49  1  0  0  0  0
 20 50  1  0  0  0  0
 21 51  1  0  0  0  0
 21 52  1  0  0  0  0
 22 53  1  0  0  0  0
 23 54  1  0  0  0  0
 25 55  1  0  0  0  0
 25 56  1  0  0  0  0
 25 57  1  0  0  0  0
 26 58  1  0  0  0  0
 28 59  1  0  0  0  0
 28 60  1  0  0  0  0
M  CHG  1  28   1
M  END
> <OMEGA_C>
wYbVQOGc9L5ig7XBmFGlQFiGicAJPZXBh+/FQK58ub+gY67BRdW0QAgUVcCGZJzBeaDPQDpBYz+X
UrPBLPKAQOEGgcDB947BZZiqQLTTnz7wxaLBlLl2QIOl6L9hBJfBjlawQPbUh79h8KTB0PufQPYj
BcC1XJ3BQ8m5QNjepT/w76nB+SlXQKUfMsA5z4/Bn+bJQO7wQ0CtiZzB7MWBQIC/WkBQHJrBX/Dm
QFmMzUDZ4IjBB0C4QA0yzkBT14zB7cf7QDuhoUDQtorBoFjRQCvzpEBr6a3B6qbwQEP5gkBjLLLB
HBaeQGxjqkAmbofBKjHgQOLOeUAX3IXBQUjBQKEbb0AhVbDBFtawQBxcekBk14nB3GOzQPiRMUDw
IqfB6dTcP7cMXcAwjYLBZTeGQK4zQkA2vqTBu62qQLkrY0A0apXBieE4QM5nZkC3iZXBb4rvQD1M
MkC14prB69kOQHYEHcDV44nBgRjmQK4fSL/nsbzBj2O1QFP/p8ACjZTBOHbKQPHTH8DYIrDB99DQ
QJmKYsDzLKHB2cnbQGic0D+V0LjBMWVqQOkCmcD1e4nBr12aQJ91HT9PipvB3qZWQFFkXb9GtpfB
jUv5QLL+5UCOPY3BqnHnQGPZ1EBGRYDBztSpQANc7UDM54rBqsy3QKdlyUDojpXBUUX/QHhBnED5
XZPB+MQNQXpYoUBd64bBOtHTQBn/r0BIlKXBbKDHQMrOv0ANDrPBsEb9QBSChUAOXbrBv7sEQcVk
a0BJ46zBTEyeQKOZr0BwdH3BivJ5QJO8q0B/ZYrBLcXuQNU4PEBsEojBXDXgQEVBgEALM3rBLh6u
QBVGaUCHrbfB8QGfQDjwS0DN84TBsPJVP9UARMBm23zBZDi6PxmPi8AtCIfBeQkgQMSqbMCXPnnB
OFxcQOC0PEC3+qnBlb01QORNd0D01I3B9RoDQJtkXkAmwpnBJAnUQMI9Br9tvbXBrhekQL4ni8Dd
e5XBBHDEQCJVv7/pnK7Be6azQAFbWMBcopzBE+7OQBmDVz9McbPB8gSAQJRwgsDhH4/Bz7+qQIXZ
iT6AxaLBfKp1QNNs7b91E5fB6J6vQAh0jb8uD6XBsSmfQBv5B8DZgJ3B2v+5QBlkoD977anBKQZW
QOeANMC03o/BQDnKQB8PQ0CkhZzB/caBQOS0WECoGprBs6LqQNMHi0DkzG7BfkDWQHlcsEBLZHvB
MyvOQP1ORUAPum/BIkfRQGt5o0A0Iq7BaEDwQBVTgUBdfLLBAtzNQF2No0CgaonBvZLFQH5QKkA3
h4PBYgPBQFQWbEDnbLDB8uGxQOZVdUA6AorBtbOzQH73LkBOIqfBwvnbP9XhXsBLf4LBRk2GQNc1
P0CXt6TB9miqQG5MXEDETZXB/9w5QLrXaUCejpXBKqXwQNQTPECgtprBRV4OQMPxHsBh2onBEP/j
QBpCVL9WAb3BAuazQD7KqcAa3pTB+1rIQHjGIsB0b7DBAmPPQPwrZsCcfaHBPAPbQCKfyj8c9LjB
F3VoQFZsmsB2pYnBhiebQGF/Ej++c5vBPRpWQA+0Zb9LtJfBfQoFQbGSg0A/xnXBxbLuQIqylEDa
/13Bkru3QIcruUD8znPBqxTsQLD3y0DXD3vBm2/eQIepEEByVmfBwHuvQHv0UkCXzmfBRlXUQG6y
rkDx06XBzT3HQOs7vkBIRbPBAVD8QK6ng0CIu7rBvbMEQWI8aEAxSq3BejK9QI7lvUAigY3BsZ/s
QMNrnUCfaI3BHuvjQMfvFkDKRYfB0C+vQMj55z+SlIPBxletQFYBZkD3rrfBasaSQAhWgkAmXYbB
nGZWP6x2RcC6lnzBbrC3P3lZjMAJ+obBoPIfQLcMb8CORXnBOX9cQDrcOED27qnBduA3QLmfe0BG
4I3BVasDQCYgZUCGxZnB

> <OMEGA_E>
oBI6P8wjOD8=

> <OMEGA_NBR>
     40542

$$$$
50157440
  -OEChem-04172616093D

 40 42  0     1  0  0  0  0  0999 V2000
    6.5638    5.4588  -24.1397 C   0  0  0  0  0  0  0  0  0  0  0  0
    5.2936    4.8579  -24.0748 C   0  0  0  0  0  0  0  0  0  0  0  0
    7.5479    5.1276  -23.1905 C   0  0  0  0  0  0  0  0  0  0  0  0
    6.7036   -0.6582  -22.5016 C   0  0  0  0  0  0  0  0  0  0  0  0
    5.0001    3.9405  -23.0501 C   0  0  0  0  0  0  0  0  0  0  0  0
    7.2574    4.2144  -22.1603 C   0  0  0  0  0  0  0  0  0  0  0  0
    6.5366    0.7274  -22.3005 C   0  0  0  0  0  0  0  0  0  0  0  0
    6.1127   -1.5869  -21.6176 C   0  0  0  0  0  0  0  0  0  0  0  0
    5.1763    0.2514  -20.3319 C   0  0  0  0  0  0  0  0  0  0  0  0
    5.9659    3.6360  -22.0564 C   0  0  0  0  0  0  0  0  0  0  0  0
    5.7599    1.1941  -21.2132 C   0  0  0  0  0  0  0  0  0  0  0  0
    5.3385   -1.1297  -20.5224 C   0  0  0  0  0  0  0  0  0  0  0  0
    6.3345    3.0101  -19.6057 C   0  0  0  0  0  0  0  0  0  0  0  0
    4.0982    3.4188  -19.3265 C   0  0  0  0  0  0  0  0  0  0  0  0
    5.5969    2.6870  -20.9008 C   0  0  1  0  0  0  0  0  0  0  0  0
    5.6068    3.8112  -17.3283 C   0  0  0  0  0  0  0  0  0  0  0  0
    5.3640   -3.2059  -19.2976 C   0  0  0  0  0  0  0  0  0  0  0  0
    5.3475    3.3514  -18.6972 N   0  0  0  0  0  0  0  0  0  0  0  0
    4.1896    2.9469  -20.5449 N   0  3  0  0  0  0  0  0  0  0  0  0
    2.9136    3.8504  -18.7512 N   0  0  0  0  0  0  0  0  0  0  0  0
    7.5193    2.8213  -19.3501 O   0  0  0  0  0  0  0  0  0  0  0  0
    4.6862   -1.9749  -19.6355 O   0  0  0  0  0  0  0  0  0  0  0  0
    6.7835    6.1743  -24.9183 H   0  0  0  0  0  0  0  0  0  0  0  0
    4.5432    5.1013  -24.8124 H   0  0  0  0  0  0  0  0  0  0  0  0
    8.5288    5.5754  -23.2527 H   0  0  0  0  0  0  0  0  0  0  0  0
    7.2880   -1.0117  -23.3382 H   0  0  0  0  0  0  0  0  0  0  0  0
    4.0314    3.4638  -23.0194 H   0  0  0  0  0  0  0  0  0  0  0  0
    8.0222    3.9521  -21.4442 H   0  0  0  0  0  0  0  0  0  0  0  0
    7.0006    1.4316  -22.9752 H   0  0  0  0  0  0  0  0  0  0  0  0
    6.2508   -2.6462  -21.7761 H   0  0  0  0  0  0  0  0  0  0  0  0
    4.5929    0.6034  -19.4939 H   0  0  0  0  0  0  0  0  0  0  0  0
    4.6515    4.0140  -16.8220 H   0  0  0  0  0  0  0  0  0  0  0  0
    6.1553    3.0326  -16.7779 H   0  0  0  0  0  0  0  0  0  0  0  0
    6.2083    4.7316  -17.3586 H   0  0  0  0  0  0  0  0  0  0  0  0
    4.7477   -3.7827  -18.5921 H   0  0  0  0  0  0  0  0  0  0  0  0
    5.5265   -3.7974  -20.2107 H   0  0  0  0  0  0  0  0  0  0  0  0
    6.3338   -2.9748  -18.8329 H   0  0  0  0  0  0  0  0  0  0  0  0
    3.4110    2.7849  -21.1512 H   0  0  0  0  0  0  0  0  0  0  0  0
    2.0613    3.8115  -19.2728 H   0  0  0  0  0  0  0  0  0  0  0  0
    2.9111    4.2008  -17.8146 H   0  0  0  0  0  0  0  0  0  0  0  0
  1  2  1  0  0  0  0
  1  3  2  0  0  0  0
  2  5  2  0  0  0  0
  3  6  1  0  0  0  0
  4  7  2  0  0  0  0
  4  8  1  0  0  0  0
  5 10  1  0  0  0  0
  6 10  2  0  0  0  0
  7 11  1  0  0  0  0
  8 12  2  0  0  0  0
  9 11  2  0  0  0  0
  9 12  1  0  0  0  0
 10 15  1  0  0  0  0
 11 15  1  0  0  0  0
 12 22  1  0  0  0  0
 13 15  1  0  0  0  0
 13 18  1  0  0  0  0
 13 21  2  0  0  0  0
 14 18  1  0  0  0  0
 14 19  2  0  0  0  0
 14 20  1  0  0  0  0
 15 19  1  0  0  0  0
 16 18  1  0  0  0  0
 17 22  1  0  0  0  0
  1 23  1  0  0  0  0
  2 24  1  0  0  0  0
  3 25  1  0  0  0  0
  4 26  1  0  0  0  0
  5 27  1  0  0  0  0
  6 28  1  0  0  0  0
  7 29  1  0  0  0  0
  8 30  1  0  0  0  0
  9 31  1  0  0  0  0
 16 32  1  0  0  0  0
 16 33  1  0  0  0  0
 16 34  1  0  0  0  0
 17 35  1  0  0  0  0
 17 36  1  0  0  0  0
 17 37  1  0  0  0  0
 19 38  1  0  0  0  0
 20 39  1  0  0  0  0
 20 40  1  0  0  0  0
M  CHG  1  19   1
M  END
> <OMEGA_C>
cgrSQD+urkAyHsHB6GSpQN1zm0AjmcDBtojxQCsVpEAqhrnBRoTWQH5/KL9cA7TBbACgQO4wfECv
ZrjB2TzoQGvchkBZSLHBfCvRQOI0Oj9zZ7LBf5vDQP4dy7/Q8KzBFaSlQNC3gD6rp6LBwOi+QGiz
aECAc7DBJFG4QN3WmD+mtKnBS9WqQLyakL/eLaTBfbTKQNikQEBk2JzBZiSDQMbNWkCXnJrBgBmz
QPD3K0C9NKfBqWqzQPjpc0BioIrBjqWrQDouTcBsYZrBuB6rQBR9VkDek5XBARGGQBSaPEDkW6TB
bng6QPhsdkCNApbBz53wQGSPNEDwzJrBkvWVQK/J/L93FZ3BbBLZQP2TxUCjWMfBjWGRQMs9o0C6
f8bBz3UIQW1pskCgBbrBqzfpQEt/gb+8tLrBewGBQOquXUC8J7jBwFoAQUbvfEDKjavBrgTgQCs9
tz86zbfB4gbIQCxbKcB6Na7BYfmSQN94Gj9885vBW9mUQANzgEBxk4bB4/fEQP8VQkAOOYbBiqrG
QE1pl0BT3orBee2XQBAXcsCjvJTBG9mwQCoJc8Brr6HB2q7KQPFiPsDXqZbBik5aQAA8MkCsNanB
musDQEjvc0CkLprB8U86QKlshkBfhI7BuV7WQCxHp0CqGcLB5C+1QOwQiUApFsPBDIPsQBBYq0Br
W7jBNpaZQFjYZb9fybDBByyqQL21XUD0VbrBzJPhQOFNkUAgmK/BQN+UQBhF7j6uOq7BMtnAQHJf
xr/Q9K7BVZrfQPAbDD/wvKjB+0vAQPcEZUDKeLDB+q63QKxBmT+D5anBoSXkQGwYVr+I2qrBAWLK
QG0qQkCec5zBG76CQKV8W0ArQprBQvSyQPYuLEB99abBW4CzQLw9ekDNbYrB7HwWQZm8T78ABKTB
8YirQIqhY0ATspXBqf6FQEb8P0CSLKTBooc4QA9Kb0ALQpXBMaTwQACwPEBBVZrB1QkFQQoGxL//
GKnBdtDeQCRPu0Ap0cjBbiSkQI74hUAPkMrBk/wCQU2EwkD8mbfBxgp+QNHyuL80KbTBE6eQQMmN
L0DwJbvBPaLyQPi+lEAUIajBWCRtQP7wdD/1kq/BEPPDQBqXJsCftLDB8yP7QIn5jj8TMabBm+2V
QCuyiUCC1obByta9QGjsQEBvBYbBubLMQNyklUBaA4rBBVskQaRtvb/RI6PB9/UaQfYsVz1T+6jB
e1sRQatS7L6vE5zB8IpaQMZROUAzL6nBbFwBQCHqaEDoO5nBZFY4QHL0gUBEr43B

> <OMEGA_E>
LE4IP+iERT8=

> <OMEGA_NBR>
     42246

$$$$
50093271
  -OEChem-04172616093D

 53 58  0     0  0  0  0  0  0999 V2000
    5.2551   -4.1459  -18.3834 C   0  0  0  0  0  0  0  0  0  0  0  0
    5.7512    9.1785  -21.5777 C   0  0  0  0  0  0  0  0  0  0  0  0
    5.7319   -3.2305  -19.3297 C   0  0  0  0  0  0  0  0  0  0  0  0
    5.8460    7.7810  -21.6189 C   0  0  0  0  0  0  0  0  0  0  0  0
    6.1454   -1.5415  -21.7733 C   0  0  0  0  0  0  0  0  0  0  0  0
    7.1501    5.2739  -23.8122 C   0  0  0  0  0  0  0  0  0  0  0  0
    6.7016   -0.5627  -22.6055 C   0  0  0  0  0  0  0  0  0  0  0  0
    7.5095    3.9229  -23.8187 C   0  0  0  0  0  0  0  0  0  0  0  0
    5.1300    0.1978  -20.4015 C   0  0  0  0  0  0  0  0  0  0  0  0
    5.4801    4.8296  -22.0982 C   0  0  0  0  0  0  0  0  0  0  0  0
    3.9592   -3.9763  -17.8534 C   0  0  0  0  0  0  0  0  0  0  0  0
    5.6349    9.8955  -22.7879 C   0  0  0  0  0  0  0  0  0  0  0  0
    3.6195   -2.0372  -19.1225 C   0  0  0  0  0  0  0  0  0  0  0  0
    5.7158    7.9206  -24.0484 C   0  0  0  0  0  0  0  0  0  0  0  0
    5.3812   -1.1587  -20.6534 C   0  0  0  0  0  0  0  0  0  0  0  0
    6.1182    5.7211  -22.9688 C   0  0  0  0  0  0  0  0  0  0  0  0
    4.9006   -2.1601  -19.7061 C   0  0  0  0  0  0  0  0  0  0  0  0
    5.8449    7.1469  -22.8761 C   0  0  0  0  0  0  0  0  0  0  0  0
    5.6771    1.1826  -21.2381 C   0  0  0  0  0  0  0  0  0  0  0  0
    5.8782    3.4835  -22.0605 C   0  0  0  0  0  0  0  0  0  0  0  0
    6.5107    0.8002  -22.3231 C   0  0  0  0  0  0  0  0  0  0  0  0
    6.8588    3.0132  -22.9714 C   0  0  0  0  0  0  0  0  0  0  0  0
    6.2693    3.0193  -19.6656 C   0  0  0  0  0  0  0  0  0  0  0  0
    4.0442    3.4326  -19.2900 C   0  0  0  0  0  0  0  0  0  0  0  0
    5.4671    2.6326  -20.8927 C   0  0  2  0  0  0  0  0  0  0  0  0
    5.6413    3.8065  -17.3520 C   0  0  0  0  0  0  0  0  0  0  0  0
    3.1684   -2.9403  -18.2243 N   0  0  0  0  0  0  0  0  0  0  0  0
    5.6081    9.2667  -23.9894 N   0  0  0  0  0  0  0  0  0  0  0  0
    5.3432    3.5120  -18.7610 N   0  0  0  0  0  0  0  0  0  0  0  0
    4.0736    2.8940  -20.4898 N   0  3  0  0  0  0  0  0  0  0  0  0
    2.8907    3.8779  -18.6621 N   0  0  0  0  0  0  0  0  0  0  0  0
    7.4888    2.9867  -19.5389 O   0  0  0  0  0  0  0  0  0  0  0  0
    7.2270    1.6885  -23.1026 O   0  0  0  0  0  0  0  0  0  0  0  0
    5.8725   -4.9721  -18.0632 H   0  0  0  0  0  0  0  0  0  0  0  0
    5.7669    9.7001  -20.6321 H   0  0  0  0  0  0  0  0  0  0  0  0
    6.7157   -3.3437  -19.7607 H   0  0  0  0  0  0  0  0  0  0  0  0
    5.9181    7.2044  -20.7086 H   0  0  0  0  0  0  0  0  0  0  0  0
    6.3019   -2.5880  -21.9894 H   0  0  0  0  0  0  0  0  0  0  0  0
    7.6646    5.9732  -24.4545 H   0  0  0  0  0  0  0  0  0  0  0  0
    7.2801   -0.8568  -23.4687 H   0  0  0  0  0  0  0  0  0  0  0  0
    8.2916    3.5779  -24.4787 H   0  0  0  0  0  0  0  0  0  0  0  0
    4.5143    0.4850  -19.5620 H   0  0  0  0  0  0  0  0  0  0  0  0
    4.6834    5.1764  -21.4568 H   0  0  0  0  0  0  0  0  0  0  0  0
    3.5876   -4.6905  -17.1335 H   0  0  0  0  0  0  0  0  0  0  0  0
    5.5654   10.9728  -22.7564 H   0  0  0  0  0  0  0  0  0  0  0  0
    2.9888   -1.2054  -19.3997 H   0  0  0  0  0  0  0  0  0  0  0  0
    5.7029    7.4289  -25.0099 H   0  0  0  0  0  0  0  0  0  0  0  0
    4.7351    4.1849  -16.8563 H   0  0  0  0  0  0  0  0  0  0  0  0
    5.9780    2.8881  -16.8488 H   0  0  0  0  0  0  0  0  0  0  0  0
    6.4342    4.5669  -17.2962 H   0  0  0  0  0  0  0  0  0  0  0  0
    3.2683    2.6915  -21.0470 H   0  0  0  0  0  0  0  0  0  0  0  0
    2.0075    3.7988  -19.1243 H   0  0  0  0  0  0  0  0  0  0  0  0
    2.9422    4.2781  -17.7471 H   0  0  0  0  0  0  0  0  0  0  0  0
  1  3  2  0  0  0  0
  1 11  1  0  0  0  0
  2  4  2  0  0  0  0
  2 12  1  0  0  0  0
  3 17  1  0  0  0  0
  4 18  1  0  0  0  0
  5  7  1  0  0  0  0
  5 15  2  0  0  0  0
  6  8  2  0  0  0  0
  6 16  1  0  0  0  0
  7 21  2  0  0  0  0
  8 22  1  0  0  0  0
  9 15  1  0  0  0  0
  9 19  2  0  0  0  0
 10 16  2  0  0  0  0
 10 20  1  0  0  0  0
 11 27  2  0  0  0  0
 12 28  2  0  0  0  0
 13 17  2  0  0  0  0
 13 27  1  0  0  0  0
 14 18  2  0  0  0  0
 14 28  1  0  0  0  0
 15 17  1  0  0  0  0
 16 18  1  0  0  0  0
 19 21  1  0  0  0  0
 19 25  1  0  0  0  0
 20 22  2  0  0  0  0
 20 25  1  0  0  0  0
 21 33  1  0  0  0  0
 22 33  1  0  0  0  0
 23 25  1  0  0  0  0
 23 29  1  0  0  0  0
 23 32  2  0  0  0  0
 24 29  1  0  0  0  0
 24 30  2  0  0  0  0
 24 31  1  0  0  0  0
 25 30  1  0  0  0  0
 26 29  1  0  0  0  0
  1 34  1  0  0  0  0
  2 35  1  0  0  0  0
  3 36  1  0  0  0  0
  4 37  1  0  0  0  0
  5 38  1  0  0  0  0
  6 39  1  0  0  0  0
  7 40  1  0  0  0  0
  8 41  1  0  0  0  0
  9 42  1  0  0  0  0
 10 43  1  0  0  0  0
 11 44  1  0  0  0  0
 12 45  1  0  0  0  0
 13 46  1  0  0  0  0
 14 47  1  0  0  0  0
 26 48  1  0  0  0  0
 26 49  1  0  0  0  0
 26 50  1  0  0  0  0
 30 51  1  0  0  0  0
 31 52  1  0  0  0  0
 31 53  1  0  0  0  0
M  CHG  1  30   1
M  END
> <OMEGA_C>
wimoQOuqhMA9EZPBrAm4QBDbEkERn6zBv2u3QCrATsAoo5rBRxK7QC7++EB686zBHafEQD5Qxb+z
L67Bgc3kQKDDqEBqf77BUXPWQAgOEL8T2LTB4k3wQCoRe0CajL7B0yikQLyDSj5ANqPBX12vQBOM
mkADybDB2GN9QC58fsC/047B71C0QPBTHkGMTbbBfKVnQDdhAsDh+pjBPei2QHZ1/UApY8DBqjKs
QJJQlL83OqXBScjDQFQTt0AdwLfBttGcQGo/CsAbpp3Bggm7QLmz5EBYArfB3qq1QFJflz+l56nB
cRq8QFbxXkDwe7DBoVfQQAvYTD+5lbLBWXvbQIDYQEB8xbfBWp7IQGc8QUANU53B5GmBQC2wW0Dw
UZrBjvKuQBR8KEBQJKfBeYW0QA6ec0DQ0IrBU8dKQGouPMBKy5HBZ3WzQEREFEFd6r/B3/uqQATF
YECYFpbBSFuCQCg3OUAR66PB0gE5QFAveEDyS5XBKKTvQGgmP0CiT5zBSUPnQFAg2D8Y0rjBneu7
QGkbn8BugZDBdYq4QNAzG0GiDqXBuObWQJj/VcDpFZ7BImG9QEuK5kAmq6XBNKnJQFmiJcBC6q/B
sUT1QKUkv0DcosPB/PboQJBVW7/9v7vBTaoEQQ38ZEB21MPB5HSQQGpV+D7vfpzBr96VQDmlpUB6
p6vBXptlQIIYlsBcEYnB7xeyQJKQL0ECDbbBREg/QAJMmr+XMpvBO362QGe57UBJFMjBFIaXQH7q
hUCr2YbBk0u/QJzWOEBlyobBCeXNQA0kkkCdXorBjyxRQFpBLEA+YKjBlHoAQKQfc0B8/pjBLE08
QN3liEAK+o3B91eoQDQmhcB7IZPBeRK3QGw7FkEGA77BErO3QPo8T8AToprBsTu7QAELAEEJQ7/B
9lXEQAzFxb+YNa7BUmfjQFjiqECK377BmfHUQGCXEb9PFLXBbADsQOQIekBmgL/BV2qkQHT7ST6K
LaPB+eyzQLA/nEB0xq/BntN9QEJxf8DT3Y7Buvu3QO4VH0HloLPBa3toQOiFAsBh4JjBUfi/QG9X
+kAf3avBwG+sQDR5lL9AK6XBswzHQFuIuEBuDbfBBzedQK5RCsCbj53BLfK/QGWg5kDVDbbB4Ru1
QNo8lz/fBarBki+9QIKCYEBcObDBmGPOQFLBSz9H8rLBdeHYQDCrQEDGS7jBFUPIQChQPkDSIJ3B
UjyBQDo9WUADQprByRmvQORgKEA6HqfBiyC0QN5odEAo0orB+3NLQOK5PMAnwJHBsUe8QOCiEkF8
z6rBR9KpQBq8UkByfJXBpG2CQNoFOkDJBqTB+tw5QBAde0AtepXBuVDvQBo+QEAKMJzBbi/jQPm9
1j/erbnBAAC8QFbFn8Cxo5DBYDazQDdwIEGp6sTBwCnXQAxyVsCdF57Bk9S6QB+/8UBWH8fBrNfJ
QAfdJcAE16/BOonyQIK+vkCvZMTB9enmQAi/Xb+0ELzBdsEAQRtAYkBZk8XBT1WRQH0w+T5MW5zB
cwWeQKxJqEDwzqnBAeplQC+9lsAgKInBODC1QG80MEG3rrLB+UZAQEQGmr+KCJvBJf7CQM285kDe
yaTBcl2WQARFf0CQUobBCDDIQAH3RUCTgobBKo/FQKybmECBpIvBqrdRQIfJL0DRqajBwpcCQFvj
fEArgZnB0so8QArhiEDzAI7BzzJUQP6QQsB0vJDBnI25QFIsFUFDSL/BCTBrQKDoA8AGOJjB6o67
QDS//UCzYsDBAz/DQAaAxr+BJa7B0vXmQFTup0BXQr7BPabUQNUlE78S3rTBKKrxQHsVeUCfPb7B
puaiQCRzQz7XJqPBVAawQNWumkA41rDB97uGQLsRg8C1jo7BeRm6QLc7HkGZ77TBQaK4QESOUMD4
z5rB4FK9QOC/+ECO76zBsGCrQAxzlb/IGKXBuHPFQMbRtkC6v7fBh3GdQCw6C8DQYJ3BD7y9QKiq
5EA1D7fBYwi0QGx1lj9776nBEf+7QHu4XkAtdbDBcrTOQO97ST/DmbLBYJHbQKWlP0C2n7fB0MbH
QBhcP0DrRp3BrRmBQKpyW0DyNprBJwOuQI9ZKEDTJKfBEMy0QPFwdkC684rB+iOtQBIMhsD6hZPB
8NC7QIznEUGQBazBBs+pQGMcVEAdi5XBJYuBQCi2OkBi6qPBt+I6QDeQf0C2YpXBed3uQO88QEBZ
Z5zBKlLmQP4Q1T9Pv7jBMEUXQP0rP8CorYzB/Zy3QLpNH0HTQ8bBdrxAQBpznr9p/JnBSm+7QJIE
70CXM8jBAxrIQEI+JsCT5K/BvWn4QBsFvkBURcPBLsHmQEzFXr9T1rvBXIkFQaQcYkBYWMPBLTOP
QB8J9T7Cb5zBomSWQAhJpkC/0avBN517QBktm8BiyIjB/R+5QPBsL0HsGbTB1z7XQA4JVsCFw57B
QDu+QI5T5UAAy6XBSlSXQFa/gEBiV4bBjSvJQIhMSECmrobB/CHGQJuemUDA5ovBBUxPQJrqL0Dw
aqjB1TUDQI76gEDWUZnBTSc/QP2Zi0By+I3BTrVVQAfORMA8x5DBynK6QABkE0F6ua3BHNBrQHza
BcBGRJjBYji9QHsF+kColq3BmxrDQNLsxr9ZMq7BIjLmQD+mp0CxVb7B1mnUQPhdE7/K5bTB6v/w
QGOjeEC5Tb7Bz/uiQPrhOz4sGKPB7MevQIuPmkANxbDBRPyHQFDAg8DclI7BxOe1QGEKHkH8nrfB
p4C5QLOXUMBT1prBOTW3QHE9+0BLB8HBG2arQKVhlr+nHKXBvd7EQJeBtkBsxbfBLdGdQAcRDMBp
aZ3BhyO8QGAd5ED5arfBhx60QAr0lT9r2anBGsa7QA16XkDmZbDBQI7OQNTfSD9EkrLBkifbQFVc
P0DvnrfBc+bHQN0wQEBdP53BFC2BQHiuX0B6W5rBUwOuQKU6KEDMDqfBSW60QPvAdUDE2IrBNHGu
QEQxhsBtipPBhgC0QFotE0GZAMHBAr+qQESqYkAdG5bBp5GBQDGQOkC1z6PBq8s5QBNRgEBAd5XB
muDuQBVVPECyN5zBevzlQIK81D/fvrjBzLIYQMhLQsDFuozBVsW7QIBgHEEnWqbBdJtAQPmfo7+6
C5rBYhzAQNjL6EASIqbBaebHQNpnJsCa+6/B9m33QLS5vUCpZcPBrWHmQB0aXr8Z5rvBcSMFQVig
YUAdcsPBT1uPQINX7z4HW5zBdmuWQLtBpkA0rqvBQc5+QDTzm8BTzIjBmOSzQD1KL0FIubfB/iXY
QNQ6VcDyyZ7BPvm1QNcw6kCiicjBUNuXQMZKiEDw84bB4PW9QAiJOkAwuobB/LvOQMw1kkAbb4rB
mydPQMHTLECPJqjBjhoBQJkGfUCVJpnBgS4+QHn/jUAxQY7BWsJ+QP4/i8CXWpnB+qreQHnOGEEX
0brBSouNQNpbWsDh5aDBeffjQD6gAkFK67vBmI6+QNPEw78Nva7BvkXdQAlLqEDk/MDBlTTNQATO
D79g+LXBzEbhQP2Md0Ah4MHBhBioQIOKdT71j6LB+g29QGZtn0DgX6/BfHOAQIKwgMDLZI7BAXi8
QDyxIEFUnLTByIGcQHjn8r+oI5LBFUilQB/R+0DvobDBA9yrQMGIkb9h9KTBLxzLQASMukAGt7fB
x3acQMIaCsAbSJ3BQdPGQHqX6UD0v7bBt4i2QPNnnD+/26nBKe/AQAruZEDxOLDBGmbJQGKkTz8/
qrPBXlPTQAEgQUDJmrnBUm/JQKnmQUA/tpzBn6aBQMdZXEBeZZrB+rGxQAWSLEDiB6fBJIGyQGcr
dkBca4rBnMmOQPtJNMD194rBs5mgQMRaE0FXq6/BKpqqQMkrYkBRxZXBi7uEQPJoQEDgUKTBEZg2
QFbvcUDObpXBgdbvQMakOUD++JrBeBXZQIAf1T9zcbvBQZBnQLAmqsBn6pvBsY30QIK4I0Ffrr7B
pwuNQFczacDkVanBw+r9QF52+EA3pcDBcpXBQJoBJcA3qLDB2hzoQL6uvECDasfBKp7bQGSUX7+2
ar3BuELvQC1LXEAWAcnBNAGaQJ+rCz/gD5vBJCmvQKs7rUCOQajBPCxrQPffl8A8l4jBpWO4QCPF
MUGVxrPBAcinQMDXcL/pSo/BgdyOQInw5kA0oqzBt++UQO5Vh0CfwYbB2Le8QH7PO0AwNobBBMXL
QJt5k0Db0InBOghYQDaQOUATU6nBpdH+PxaibEAVbpnBDKM2QFRgg0At3o3BTZaPQOWtNsB0b4rB
rFmhQF8kFEF6tLDBEeqdQMm/7r/li5HBKEykQP2F+0DFNbHBCMS+QCmdxL/gPa7BMsDbQKAkp0AO
XMHBWffMQJKLFL9+obXBgO3fQOYvdUBDGsLBupqoQEqIgT40OKLBeVS8QL4fn0Dxoa/BGzKBQPbY
gsDHhY7By3y/QFG2IEFORLbBMK2OQAjDWcBLIqDBJYLiQNQiAkG0sbzBEn6sQMlRkL8Qc6TB4tnJ
QDnUuUDJG7jBEY+dQBTMCMDpoJzBUXTFQN3o6EBpT7fByZi2QNWGnD+kq6nBzmHAQDpJZEB3VbDB
gxfJQGbeSz9zerPB3XHSQNSRP0B1s7nBntDJQLOeQ0C2yZzB7BOCQNK8XUAEU5rBZ6yxQHLjLEBj
AKfBZZCzQK7NeUCqh4rB1+WAQJsEi8C1KZnBFTzfQC6yF0HKGrzBKjerQFVxZECP0pXBlcmEQOWp
QEA5M6TBW8s3QM2Uc0DGS5XBuE7wQFvfO0B0I5vB7VDYQNyu0T8XZrvBqJWPQGf+KsB064HB+kGI
QLGoG0GPGqzBDQepQEVgab9tl47BGpWNQMGk50C4AK3BYtDBQNGgJcCsC7DBqUHmQM44u0AI4sfB
/hPbQPRyZ79/FL3BRK7tQJpCWUAKOMnBb8KaQI06Ej8/uZrBBreuQF9ErUCZhajBnExsQPUqm8BL
ConBiDS9QH7vMUHm3LXBXFKOQCi8Z8BZmKjBqfH7QExX9kC/ZMHBABuWQPk+iUDf1IbBfhO+QHQD
QEACP4bBI8HMQC1slUD1FIrBBb1XQJUFOUCpIKnBfEkAQBaVbUD/NJnBoWg4QC6khEA1xY3BbpmP
QEilNsA1bYrB0dTcQORkGEHrtLvBM+6dQM2u7r+giZHBS0biQOYxAkE/qbzBSby+QMuKxL9HPK7B
Rb/bQJ0dp0DXX8HBh+7MQIN0FL9PoLXBLObfQKwhdUAyHMLBC5uoQIb9gT5KNqLBoVm8QDQon0Bj
pK/BNC+BQErSgsCxg47B1tO6QMJjIEHxd7XBKKaOQJ2xWcA3IKDBoxykQDRb+0DaLLHBUnusQNk3
kL8VcaTBI+vJQKHWuUCbHrjBYY2dQNC+CMC+npzBxXjFQE7q6ECZULfBupa2QP+fnD94qqnBbmLA
QIZVZED8VbDBkBHJQJX3Sz92ebPBwG7SQPqRP0C3s7nBtNDJQMyyQ0CFyZzBFhSCQL/NXUB3UprB
4KuxQJH0LEAQAKfBLZCzQNDjeUBph4rBtN6AQAr8isCrJ5nBUEmfQNUjE0EoW7DBWDerQOmDZEAs
0pXBgcmEQGC+QEDcMqTBCMw3QLyfc0CnSpXB907wQN/yO0BXI5vBDErYQM2t0T+pZbvBoJyPQCn5
KsAi6YHBa3XyQEs9I0FBtb/BPhCpQIFOab8LlY7BYBT8QM5u90CXaMHBksXBQEmYJcAECrDBqzfm
QEwru0D558fBNAjbQERnZ7+KE73BNJ/tQEknWUAaOsnBMMeaQIJ/Ej/utprBsrauQMBSrUBwiajB
TERsQOYjm8BCCInBWaK2QDx7MUGFv7TBOUeOQFinZ8BYlqjBNvSNQDWf5kBrCq3BLRqWQN1IiUCt
1IbB8xS+QMYbQECNPobBlL/MQK54lUDrFIrB3LxXQHQeOUBnIKnBEkkAQDaebUCXM5nB02o4QF+o
hED5w43B

> <OMEGA_E>
dLorP7ClLD9oL0o/5FZKP8yJVD82OFU/qD5VPw==

> <OMEGA_NBR>
     52719

$$$$
50157449
  -OEChem-04172616093D

 36 38  0     1  0  0  0  0  0999 V2000
    6.6171    5.3994  -24.1605 C   0  0  0  0  0  0  0  0  0  0  0  0
    5.3183    4.8685  -24.0598 C   0  0  0  0  0  0  0  0  0  0  0  0
    7.6022    5.0290  -23.2276 C   0  0  0  0  0  0  0  0  0  0  0  0
    4.9969    3.9842  -23.0143 C   0  0  0  0  0  0  0  0  0  0  0  0
    7.2859    4.1445  -22.1808 C   0  0  0  0  0  0  0  0  0  0  0  0
    6.4748    0.7674  -22.3675 C   0  0  0  0  0  0  0  0  0  0  0  0
    5.2275    0.2241  -20.3373 C   0  0  0  0  0  0  0  0  0  0  0  0
    6.6522   -0.6066  -22.6151 C   0  0  0  0  0  0  0  0  0  0  0  0
    5.4082   -1.1470  -20.5879 C   0  0  0  0  0  0  0  0  0  0  0  0
    5.9666    3.6401  -22.0373 C   0  0  0  0  0  0  0  0  0  0  0  0
    5.7567    1.1980  -21.2241 C   0  0  0  0  0  0  0  0  0  0  0  0
    6.1269   -1.5616  -21.7234 C   0  0  0  0  0  0  0  0  0  0  0  0
    6.3279    3.0083  -19.5893 C   0  0  0  0  0  0  0  0  0  0  0  0
    4.0925    3.4034  -19.3077 C   0  0  0  0  0  0  0  0  0  0  0  0
    5.5899    2.6853  -20.8860 C   0  0  1  0  0  0  0  0  0  0  0  0
    5.6060    3.8379  -17.3241 C   0  0  0  0  0  0  0  0  0  0  0  0
    5.3405    3.3330  -18.6761 N   0  0  0  0  0  0  0  0  0  0  0  0
    4.1821    2.9274  -20.5249 N   0  3  0  0  0  0  0  0  0  0  0  0
    2.9133    3.8598  -18.7405 N   0  0  0  0  0  0  0  0  0  0  0  0
    7.5229    2.8809  -19.3448 O   0  0  0  0  0  0  0  0  0  0  0  0
    6.3886   -3.2600  -22.0139 Cl  0  0  0  0  0  0  0  0  0  0  0  0
    6.8577    6.0912  -24.9541 H   0  0  0  0  0  0  0  0  0  0  0  0
    4.5669    5.1403  -24.7864 H   0  0  0  0  0  0  0  0  0  0  0  0
    8.6033    5.4246  -23.3151 H   0  0  0  0  0  0  0  0  0  0  0  0
    4.0039    3.5638  -22.9546 H   0  0  0  0  0  0  0  0  0  0  0  0
    8.0525    3.8467  -21.4808 H   0  0  0  0  0  0  0  0  0  0  0  0
    6.8870    1.4954  -23.0505 H   0  0  0  0  0  0  0  0  0  0  0  0
    4.6805    0.5399  -19.4613 H   0  0  0  0  0  0  0  0  0  0  0  0
    7.1932   -0.9299  -23.4922 H   0  0  0  0  0  0  0  0  0  0  0  0
    4.9962   -1.8802  -19.9103 H   0  0  0  0  0  0  0  0  0  0  0  0
    4.6527    4.0168  -16.8053 H   0  0  0  0  0  0  0  0  0  0  0  0
    6.1942    3.0956  -16.7646 H   0  0  0  0  0  0  0  0  0  0  0  0
    6.1704    4.7798  -17.3889 H   0  0  0  0  0  0  0  0  0  0  0  0
    3.4024    2.7523  -21.1261 H   0  0  0  0  0  0  0  0  0  0  0  0
    2.0636    3.8370  -19.2673 H   0  0  0  0  0  0  0  0  0  0  0  0
    2.9121    4.2119  -17.8046 H   0  0  0  0  0  0  0  0  0  0  0  0
  1  2  1  0  0  0  0
  1  3  2  0  0  0  0
  2  4  2  0  0  0  0
  3  5  1  0  0  0  0
  4 10  1  0  0  0  0
  5 10  2  0  0  0  0
  6  8  2  0  0  0  0
  6 11  1  0  0  0  0
  7  9  1  0  0  0  0
  7 11  2  0  0  0  0
  8 12  1  0  0  0  0
  9 12  2  0  0  0  0
 10 15  1  0  0  0  0
 11 15  1  0  0  0  0
 12 21  1  0  0  0  0
 13 15  1  0  0  0  0
 13 17  1  0  0  0  0
 13 20  2  0  0  0  0
 14 17  1  0  0  0  0
 14 18  2  0  0  0  0
 14 19  1  0  0  0  0
 15 18  1  0  0  0  0
 16 17  1  0  0  0  0
  1 22  1  0  0  0  0
  2 23  1  0  0  0  0
  3 24  1  0  0  0  0
  4 25  1  0  0  0  0
  5 26  1  0  0  0  0
  6 27  1  0  0  0  0
  7 28  1  0  0  0  0
  8 29  1  0  0  0  0
  9 30  1  0  0  0  0
 16 31  1  0  0  0  0
 16 32  1  0  0  0  0
 16 33  1  0  0  0  0
 18 34  1  0  0  0  0
 19 35  1  0  0  0  0
 19 36  1  0  0  0  0
M  CHG  1  18   1
M  END
> <OMEGA_C>
+L7TQLXHrEDGSMHBxy+qQLnKm0COesDB8ETzQObtoEAP0rnBVeafQEv9fkA6HbjBBCbpQKufhEA0
crHB2DHPQE9xRD+m8LLBrUenQASAZT7isqLB9t7UQB1NG7/L67TB4A+tQNHQkr/1s6TBG+6+QJj2
aEBTTLDBHze4QABXmT/nyqnBqg/EQPzgx791ya3Byn3KQMuIQEDZtpzBlfWCQBPSWUASdprBo+Cy
QB7cK0CbFqfBDGSzQMGfdUDQl4rBm+WqQIhPVUCQaJXBqNOFQMxZO0ANM6TBcnM6QD8Hd0Ci7JXB
2bvwQI1gOEAvwprBeW/MQOCjUMBgHLDBMHLbQIDrwkAWosfBFCSSQAh9pECQSsbBJqcJQS+WrUBP
hbrBkh+AQNYUZEAVo7fBI9cAQcIwdkCX2KvB/WHcQEppvz9zZ7jBXsaVQGo4Cj/IsJvBWi7mQAkL
br8c8LvBM+GfQKyp8L86SJ/BveKUQKGJgEAncYbBjTbGQLweRkDdHYbBSnTFQODzmEB0HIvB/MBZ
QHQmMEBaAqnBchEEQBaSdUBdI5rB7l86QAvIhkDJb47B

> <OMEGA_E>
VH4RPw==

> <OMEGA_NBR>
     53630

$$$$
50156410
  -OEChem-04172616093D

 36 38  0     0  0  0  0  0  0999 V2000
    6.5533    5.3845  -24.1923 C   0  0  0  0  0  0  0  0  0  0  0  0
    6.2327   -1.5468  -21.7022 C   0  0  0  0  0  0  0  0  0  0  0  0
    5.3123    4.7225  -24.1552 C   0  0  0  0  0  0  0  0  0  0  0  0
    7.4989    5.1649  -23.1740 C   0  0  0  0  0  0  0  0  0  0  0  0
    6.7670   -0.5806  -22.5768 C   0  0  0  0  0  0  0  0  0  0  0  0
    5.4717   -1.1447  -20.5889 C   0  0  0  0  0  0  0  0  0  0  0  0
    5.0099    3.8507  -23.0937 C   0  0  0  0  0  0  0  0  0  0  0  0
    7.2015    4.2936  -22.1103 C   0  0  0  0  0  0  0  0  0  0  0  0
    6.5464    0.7902  -22.3402 C   0  0  0  0  0  0  0  0  0  0  0  0
    5.2460    0.2238  -20.3505 C   0  0  0  0  0  0  0  0  0  0  0  0
    5.9398    3.6462  -22.0438 C   0  0  0  0  0  0  0  0  0  0  0  0
    5.7738    1.2072  -21.2268 C   0  0  0  0  0  0  0  0  0  0  0  0
    6.3245    3.0236  -19.6048 C   0  0  0  0  0  0  0  0  0  0  0  0
    4.0992    3.4778  -19.3300 C   0  0  0  0  0  0  0  0  0  0  0  0
    5.5809    2.6929  -20.8901 C   0  0  0  0  0  0  0  0  0  0  0  0
    5.6091    3.8218  -17.3318 C   0  0  0  0  0  0  0  0  0  0  0  0
    5.3769    3.5746  -18.7600 N   0  0  0  0  0  0  0  0  0  0  0  0
    4.1766    2.9393  -20.5231 N   0  3  0  0  0  0  0  0  0  0  0  0
    2.9108    3.8635  -18.7293 N   0  0  0  0  0  0  0  0  0  0  0  0
    7.4898    2.7594  -19.3270 O   0  0  0  0  0  0  0  0  0  0  0  0
    6.7801    6.0614  -25.0027 H   0  0  0  0  0  0  0  0  0  0  0  0
    6.4072   -2.5967  -21.8862 H   0  0  0  0  0  0  0  0  0  0  0  0
    4.5911    4.8840  -24.9428 H   0  0  0  0  0  0  0  0  0  0  0  0
    8.4549    5.6662  -23.2090 H   0  0  0  0  0  0  0  0  0  0  0  0
    7.3481   -0.8920  -23.4322 H   0  0  0  0  0  0  0  0  0  0  0  0
    5.0615   -1.8853  -19.9183 H   0  0  0  0  0  0  0  0  0  0  0  0
    4.0621    3.3332  -23.0785 H   0  0  0  0  0  0  0  0  0  0  0  0
    7.9372    4.1163  -21.3398 H   0  0  0  0  0  0  0  0  0  0  0  0
    6.9672    1.5263  -23.0091 H   0  0  0  0  0  0  0  0  0  0  0  0
    4.6654    0.5284  -19.4923 H   0  0  0  0  0  0  0  0  0  0  0  0
    4.7065    4.2631  -16.8841 H   0  0  0  0  0  0  0  0  0  0  0  0
    5.8410    2.8717  -16.8283 H   0  0  0  0  0  0  0  0  0  0  0  0
    6.4543    4.5157  -17.2126 H   0  0  0  0  0  0  0  0  0  0  0  0
    3.3906    2.7255  -21.1033 H   0  0  0  0  0  0  0  0  0  0  0  0
    2.0432    3.7362  -19.2100 H   0  0  0  0  0  0  0  0  0  0  0  0
    2.9212    4.2691  -17.8153 H   0  0  0  0  0  0  0  0  0  0  0  0
  1  3  1  0  0  0  0
  1  4  2  0  0  0  0
  2  5  1  0  0  0  0
  2  6  2  0  0  0  0
  3  7  2  0  0  0  0
  4  8  1  0  0  0  0
  5  9  2  0  0  0  0
  6 10  1  0  0  0  0
  7 11  1  0  0  0  0
  8 11  2  0  0  0  0
  9 12  1  0  0  0  0
 10 12  2  0  0  0  0
 11 15  1  0  0  0  0
 12 15  1  0  0  0  0
 13 15  1  0  0  0  0
 13 17  1  0  0  0  0
 13 20  2  0  0  0  0
 14 17  1  0  0  0  0
 14 18  2  0  0  0  0
 14 19  1  0  0  0  0
 15 18  1  0  0  0  0
 16 17  1  0  0  0  0
  1 21  1  0  0  0  0
  2 22  1  0  0  0  0
  3 23  1  0  0  0  0
  4 24  1  0  0  0  0
  5 25  1  0  0  0  0
  6 26  1  0  0  0  0
  7 27  1  0  0  0  0
  8 28  1  0  0  0  0
  9 29  1  0  0  0  0
 10 30  1  0  0  0  0
 16 31  1  0  0  0  0
 16 32  1  0  0  0  0
 16 33  1  0  0  0  0
 18 34  1  0  0  0  0
 19 35  1  0  0  0  0
 19 36  1  0  0  0  0
M  CHG  1  18   1
M  END
> <OMEGA_C>
+rTRQNdNrEDbicHBiXLHQMb+xb8onq3BP/6pQM4el0DwPcHBP/fvQBNHpUBjZLnBJYvYQDGfFL8x
nbTBVRivQD+Gkr8NtqTBIFGgQM5xdkDQv7jBYHLmQItliUDc4bDBLXzRQO5JSj+iuLLBCt+nQLAg
ZT7CzaLBsxK+QPZbaUCuWbDBWMO4QJOEmj9w0KnBaWLKQCyDQUCj1pzBayyDQACUXkDNo5rBmJay
QI5YLED0HqfB/H2zQDKYdECUp4rBtA+sQMDFZEB1FJbBV6aFQLYcPEBGL6TBT0o6QPhDd0CR1ZXB
cazvQI6ZMECynZrBmvbYQPz2wUCbBcjBngfNQMAvJsDaFq/BKeqSQH5JnEDLisfBbEcHQSJRtUAD
rLnBlCPrQCFbZL8MdbvBnPehQKFR8b/DWJ/BavyBQLZTVUCuoLjBZf39QHK4g0Dmt6rBTPPeQMtc
wz+wErjB2UqVQIJHBz8w8JvBvZuWQKJriECPEofBlem6QH3JN0BroIbBSonOQNOAkEB4s4nBv/9Y
QMBuLkB506jBo8MCQFsdb0ADrpnBSfQ6QLCciEC3hY7B

> <OMEGA_E>
WJgQPw==

> <OMEGA_NBR>
     54536

$$$$
50157466
  -OEChem-04172616093D

 36 38  0     1  0  0  0  0  0999 V2000
    6.6248    5.3952  -24.1619 C   0  0  0  0  0  0  0  0  0  0  0  0
    5.3217    4.8769  -24.0531 C   0  0  0  0  0  0  0  0  0  0  0  0
    7.6117    5.0160  -23.2344 C   0  0  0  0  0  0  0  0  0  0  0  0
    6.6056   -0.6118  -22.6443 C   0  0  0  0  0  0  0  0  0  0  0  0
    4.9985    3.9948  -23.0060 C   0  0  0  0  0  0  0  0  0  0  0  0
    7.2936    4.1339  -22.1859 C   0  0  0  0  0  0  0  0  0  0  0  0
    6.4546    0.7639  -22.3817 C   0  0  0  0  0  0  0  0  0  0  0  0
    6.0823   -1.5674  -21.7515 C   0  0  0  0  0  0  0  0  0  0  0  0
    5.2539    0.2230  -20.3243 C   0  0  0  0  0  0  0  0  0  0  0  0
    5.9712    3.6404  -22.0351 C   0  0  0  0  0  0  0  0  0  0  0  0
    5.7670    1.1965  -21.2201 C   0  0  0  0  0  0  0  0  0  0  0  0
    5.4056   -1.1497  -20.5903 C   0  0  0  0  0  0  0  0  0  0  0  0
    6.3282    3.0121  -19.5849 C   0  0  0  0  0  0  0  0  0  0  0  0
    4.0909    3.3916  -19.3046 C   0  0  0  0  0  0  0  0  0  0  0  0
    5.5953    2.6850  -20.8834 C   0  0  1  0  0  0  0  0  0  0  0  0
    5.5976    3.8234  -17.3171 C   0  0  0  0  0  0  0  0  0  0  0  0
    5.3366    3.3170  -18.6693 N   0  0  0  0  0  0  0  0  0  0  0  0
    4.1851    2.9216  -20.5242 N   0  3  0  0  0  0  0  0  0  0  0  0
    2.9107    3.8464  -18.7377 N   0  0  0  0  0  0  0  0  0  0  0  0
    7.5245    2.8983  -19.3401 O   0  0  0  0  0  0  0  0  0  0  0  0
    4.7522   -2.3313  -19.4782 Cl  0  0  0  0  0  0  0  0  0  0  0  0
    6.8674    6.0842  -24.9574 H   0  0  0  0  0  0  0  0  0  0  0  0
    4.5682    5.1566  -24.7744 H   0  0  0  0  0  0  0  0  0  0  0  0
    8.6158    5.4028  -23.3273 H   0  0  0  0  0  0  0  0  0  0  0  0
    7.1249   -0.9353  -23.5343 H   0  0  0  0  0  0  0  0  0  0  0  0
    4.0019    3.5838  -22.9404 H   0  0  0  0  0  0  0  0  0  0  0  0
    8.0615    3.8297  -21.4901 H   0  0  0  0  0  0  0  0  0  0  0  0
    6.8639    1.4910  -23.0674 H   0  0  0  0  0  0  0  0  0  0  0  0
    6.2003   -2.6209  -21.9581 H   0  0  0  0  0  0  0  0  0  0  0  0
    4.7410    0.5397  -19.4282 H   0  0  0  0  0  0  0  0  0  0  0  0
    4.6431    3.9847  -16.7948 H   0  0  0  0  0  0  0  0  0  0  0  0
    6.2004    3.0903  -16.7612 H   0  0  0  0  0  0  0  0  0  0  0  0
    6.1455    4.7751  -17.3816 H   0  0  0  0  0  0  0  0  0  0  0  0
    3.4074    2.7475  -21.1283 H   0  0  0  0  0  0  0  0  0  0  0  0
    2.0622    3.8276  -19.2666 H   0  0  0  0  0  0  0  0  0  0  0  0
    2.9077    4.1933  -17.7999 H   0  0  0  0  0  0  0  0  0  0  0  0
  1  2  1  0  0  0  0
  1  3  2  0  0  0  0
  2  5  2  0  0  0  0
  3  6  1  0  0  0  0
  4  7  2  0  0  0  0
  4  8  1  0  0  0  0
  5 10  1  0  0  0  0
  6 10  2  0  0  0  0
  7 11  1  0  0  0  0
  8 12  2  0  0  0  0
  9 11  2  0  0  0  0
  9 12  1  0  0  0  0
 10 15  1  0  0  0  0
 11 15  1  0  0  0  0
 12 21  1  0  0  0  0
 13 15  1  0  0  0  0
 13 17  1  0  0  0  0
 13 20  2  0  0  0  0
 14 17  1  0  0  0  0
 14 18  2  0  0  0  0
 14 19  1  0  0  0  0
 15 18  1  0  0  0  0
 16 17  1  0  0  0  0
  1 22  1  0  0  0  0
  2 23  1  0  0  0  0
  3 24  1  0  0  0  0
  4 25  1  0  0  0  0
  5 26  1  0  0  0  0
  6 27  1  0  0  0  0
  7 28  1  0  0  0  0
  8 29  1  0  0  0  0
  9 30  1  0  0  0  0
 16 31  1  0  0  0  0
 16 32  1  0  0  0  0
 16 33  1  0  0  0  0
 18 34  1  0  0  0  0
 19 35  1  0  0  0  0
 19 36  1  0  0  0  0
M  CHG  1  18   1
M  END
> <OMEGA_C>
mP7TQKOlrECNS8HBb0uqQIcPnECrbMDBEZPzQBKDoEAC4LnBrGDTQL2cHL+OJ7XB/vOfQFCqf0BU
DLjB7WTpQAxJhEC6fLHBRIzOQPKLQz/ODbPBz6HCQNOhyL8LA67Bvx+oQARPZD41mKLByxO/QJL7
aEDqR7DBVIu4QDwnmT+6wqnByvqsQCAok7/VuKTBpYDKQMjGQEDVrZzBquiCQHkPWUDlb5rBWQyz
QLXWK0AjEafB0h+zQB6zdEB/iYrBSMWqQFZJVEChWpXBFuyFQCj8OkCiMaTBuEg6QP4qdkDm5pXB
UcjwQAZ9OUBzuJrBFxKYQGIzFcBZ05vBFMLbQHyxwkDUqMfBjS6SQMgCpUAHMsbBKdoJQdfjrEBh
nrrBBf/jQHlvb78xRrzB7g+AQL9cZUAFhrfB6PsAQZ0adUCw66vBT6XbQHXZvj8CirjBwGjGQN68
J8Amqq/BObaXQMwmCj/tbJvBO5SUQKYEf0C0W4bBEGrGQDzHRUDaFobBxKfEQMbNmECSDYvBjBJa
QPPWL0C6BqnBGfsDQMj2dEAMIprBZxc6QKgvhkAeZo7BRkrWQNTvp0D2D8LBjTasQCBMmEBbIcHB
NkX1QICOnEBGaLrBTjubQPrUhr9vF6zBEPGgQHhfe0CEe7jBvRnqQFcdgkAPu7HBQUCVQO+EnT52
o6nBhyfEQGYixL/vyq7BKlzhQJxGNz+3oKzBgnm/QOE8ZkDygLDBUFa4QCYRmz8A2anBhDLnQC7i
Jb+0Ea/ByjnKQMaoQ0Cdo5zBfJeCQFLQXEAyPJrBwnayQATVLEBN/qbBWNWzQOrmfEAel4rBz52r
QFocZkD71ZXB3X+FQMHyP0AWE6TBTUA4QLEvcEAoM5XBsi/wQFAhOUDygZrBLwINQWNbn78YZrLB
/sfeQGulvEBDpcjBrYWUQAa4oEDcDsfBc9cKQdQhqEC6MLvBv1eAQGuf3b8+5qvByMmAQIdvYkA7
67fBuhUBQT9IckBd86vBPHZrQAEMKz95lKfBgLDIQDv0JMAkp7DBoF38QBnPsT+P4KzBOXCWQPdl
i0CP/YbB1eq9QC2CQ0BOKYbBcEvNQPm1lkCxN4rBzxJZQJfiN0A4+qjBPe0AQG5UaECUGZnB7jw4
QB/9gkCHrY3BY6naQKlwqEB5KsHBa87tQFb3f0DS6L/By/K6QAQJtkAu7rnBQSqZQOY9Yr9GuLHB
KgbhQKTUSUCwe7fBmRiuQJEbm0CJfbHByCCVQDCE9D5JAa/BKUK/QFboyb81Zq/B0WzdQJz55T5N
oafBpVbAQJiZY0BwRbDBrOK2QOzSkz+EsKnBznzhQKnpZ78ubqrBSDbKQEADQkBboZzBQFWCQODr
V0DPG5rBNmuyQDzAKUDf5KbBDLazQMzrekAAkorB6MOqQC61VkCoN5XB5UmFQBIVO0Bx9qPB5pg4
QIpjckD4YJXB5f3wQOSKRUDfLJvBtKYIQXmX37+PwqfB0kvkQJ4GvUCvrMfBDC0DQc1Va0D/asXB
/HCsQFMv1UCJ2rrBIfd9QLDBsr/7lrXBnzLwQDo7DEBtf7bBOCGWQNP8pUAc5KvB2DtwQDtAgT8Z
/LDBNjXCQEXhJ8DRbbHBner3QEOOdT+y3qPBRmqVQJK2gkBfSYbB8svHQFgjTkD0/4XBkJ3EQNwf
nEDSeIvBG65YQCYGMkDD16jBMeQBQCEgcEBkhZnBIZg4QATYg0C11Y3B

> <OMEGA_E>
zDsAP4wBJD/IOT0/

> <OMEGA_NBR>
     56811

$$$$
50157486
  -OEChem-04172616093D

 50 54  0     1  0  0  0  0  0999 V2000
    6.6349   -0.5256  -22.7299 C   0  0  0  0  0  0  0  0  0  0  0  0
    5.3060   -4.0460  -18.3150 C   0  0  0  0  0  0  0  0  0  0  0  0
    6.1388   -1.5224  -21.8703 C   0  0  0  0  0  0  0  0  0  0  0  0
    5.7853   -3.1814  -19.3093 C   0  0  0  0  0  0  0  0  0  0  0  0
    6.4630    0.8323  -22.4037 C   0  0  0  0  0  0  0  0  0  0  0  0
    7.2682    4.1357  -21.9858 C   0  0  0  0  0  0  0  0  0  0  0  0
    7.6218    4.9083  -23.1042 C   0  0  0  0  0  0  0  0  0  0  0  0
    5.2561    0.1976  -20.3866 C   0  0  0  0  0  0  0  0  0  0  0  0
    5.0318    3.7837  -22.9212 C   0  0  0  0  0  0  0  0  0  0  0  0
    4.0001   -3.8639  -17.8115 C   0  0  0  0  0  0  0  0  0  0  0  0
    3.6531   -2.0106  -19.1984 C   0  0  0  0  0  0  0  0  0  0  0  0
    5.4402   -1.1527  -20.7013 C   0  0  0  0  0  0  0  0  0  0  0  0
    4.9462   -2.1467  -19.7545 C   0  0  0  0  0  0  0  0  0  0  0  0
    5.7710    1.2005  -21.2163 C   0  0  0  0  0  0  0  0  0  0  0  0
    5.9574    3.5972  -21.8791 C   0  0  0  0  0  0  0  0  0  0  0  0
    5.3856    4.5570  -24.0138 C   0  0  0  0  0  0  0  0  0  0  0  0
    6.6695    5.1351  -24.1115 C   0  0  0  0  0  0  0  0  0  0  0  0
    6.2850    2.9568  -19.4755 C   0  0  0  0  0  0  0  0  0  0  0  0
    4.0695    3.4875  -19.2803 C   0  0  0  0  0  0  0  0  0  0  0  0
    4.6433    4.8771  -25.2524 C   0  0  0  0  0  0  0  0  0  0  0  0
    5.4086    6.0683  -25.7607 C   0  0  0  0  0  0  0  0  0  0  0  0
    5.5758    2.6456  -20.7766 C   0  0  2  0  0  0  0  0  0  0  0  0
    5.5664    4.0085  -17.3133 C   0  0  0  0  0  0  0  0  0  0  0  0
    3.1995   -2.8653  -18.2556 N   0  0  0  0  0  0  0  0  0  0  0  0
    5.3449    3.6249  -18.7095 N   0  0  0  0  0  0  0  0  0  0  0  0
    4.1601    2.8678  -20.4302 N   0  3  0  0  0  0  0  0  0  0  0  0
    2.8700    3.9107  -18.7289 N   0  0  0  0  0  0  0  0  0  0  0  0
    7.4346    2.6704  -19.1589 O   0  0  0  0  0  0  0  0  0  0  0  0
    6.7482    5.8729  -25.2740 O   0  0  0  0  0  0  0  0  0  0  0  0
    7.1473   -0.8023  -23.6395 H   0  0  0  0  0  0  0  0  0  0  0  0
    5.9297   -4.8431  -17.9383 H   0  0  0  0  0  0  0  0  0  0  0  0
    6.2918   -2.5656  -22.1039 H   0  0  0  0  0  0  0  0  0  0  0  0
    6.7751   -3.3079  -19.7225 H   0  0  0  0  0  0  0  0  0  0  0  0
    6.8574    1.5971  -23.0563 H   0  0  0  0  0  0  0  0  0  0  0  0
    7.9928    3.9507  -21.2066 H   0  0  0  0  0  0  0  0  0  0  0  0
    8.6152    5.3236  -23.1888 H   0  0  0  0  0  0  0  0  0  0  0  0
    4.7113    0.4692  -19.4945 H   0  0  0  0  0  0  0  0  0  0  0  0
    4.0540    3.3279  -22.8698 H   0  0  0  0  0  0  0  0  0  0  0  0
    3.6297   -4.5377  -17.0530 H   0  0  0  0  0  0  0  0  0  0  0  0
    3.0149   -1.2066  -19.5343 H   0  0  0  0  0  0  0  0  0  0  0  0
    4.6770    4.0425  -25.9682 H   0  0  0  0  0  0  0  0  0  0  0  0
    3.5955    5.1342  -25.0380 H   0  0  0  0  0  0  0  0  0  0  0  0
    5.3952    6.0983  -26.8602 H   0  0  0  0  0  0  0  0  0  0  0  0
    4.9832    7.0017  -25.3632 H   0  0  0  0  0  0  0  0  0  0  0  0
    4.6746    4.5250  -16.9285 H   0  0  0  0  0  0  0  0  0  0  0  0
    5.7564    3.1076  -16.7114 H   0  0  0  0  0  0  0  0  0  0  0  0
    6.4347    4.6809  -17.2512 H   0  0  0  0  0  0  0  0  0  0  0  0
    3.3821    2.5861  -20.9918 H   0  0  0  0  0  0  0  0  0  0  0  0
    2.0112    3.7469  -19.2143 H   0  0  0  0  0  0  0  0  0  0  0  0
    2.8636    4.3798  -17.8457 H   0  0  0  0  0  0  0  0  0  0  0  0
  1  3  1  0  0  0  0
  1  5  2  0  0  0  0
  2  4  2  0  0  0  0
  2 10  1  0  0  0  0
  3 12  2  0  0  0  0
  4 13  1  0  0  0  0
  5 14  1  0  0  0  0
  6  7  2  0  0  0  0
  6 15  1  0  0  0  0
  7 17  1  0  0  0  0
  8 12  1  0  0  0  0
  8 14  2  0  0  0  0
  9 15  2  0  0  0  0
  9 16  1  0  0  0  0
 10 24  2  0  0  0  0
 11 13  2  0  0  0  0
 11 24  1  0  0  0  0
 12 13  1  0  0  0  0
 14 22  1  0  0  0  0
 15 22  1  0  0  0  0
 16 17  2  0  0  0  0
 16 20  1  0  0  0  0
 17 29  1  0  0  0  0
 18 22  1  0  0  0  0
 18 25  1  0  0  0  0
 18 28  2  0  0  0  0
 19 25  1  0  0  0  0
 19 26  2  0  0  0  0
 19 27  1  0  0  0  0
 20 21  1  0  0  0  0
 21 29  1  0  0  0  0
 22 26  1  0  0  0  0
 23 25  1  0  0  0  0
  1 30  1  0  0  0  0
  2 31  1  0  0  0  0
  3 32  1  0  0  0  0
  4 33  1  0  0  0  0
  5 34  1  0  0  0  0
  6 35  1  0  0  0  0
  7 36  1  0  0  0  0
  8 37  1  0  0  0  0
  9 38  1  0  0  0  0
 10 39  1  0  0  0  0
 11 40  1  0  0  0  0
 20 41  1  0  0  0  0
 20 42  1  0  0  0  0
 21 43  1  0  0  0  0
 21 44  1  0  0  0  0
 23 45  1  0  0  0  0
 23 46  1  0  0  0  0
 23 47  1  0  0  0  0
 26 48  1  0  0  0  0
 27 49  1  0  0  0  0
 27 50  1  0  0  0  0
M  CHG  1  26   1
M  END
> <OMEGA_C>
8FDUQGyQBr/a1rXBf8qpQHB4gcAthZLB0HDEQAzdwr9k9q7BfyG5QLScS8BZeZrB3tDOQL4QVT/C
OrPBQJXoQHZXhEDq4q/Bn+XzQOwQnUBr1bjBQTKoQJRgSj7BF6PBOQShQC0ockCnXrfBzACAQI9K
d8DkfY7BMsxpQAqtAMBQlpnBghauQD6Nk79VnKXBK0eeQCtkCcA5CZ7ByKu4QLapmT/juqnBH6O+
QEg4ZkBNCK/B1lasQErTkUAyHMDBp2zVQGRSpEBE5MDBiR7JQAM8PUDCzZvBEzmCQMEyX0ASPprB
MJaUQHYRnEDnBMrB9RKtQMgvwkDYFc7B1myyQBNSKUBjNqbBnx+yQKBFgECigYrB3cRMQHBhN8B8
C5LBSAmrQM3+Z0AErZXBVh+FQM6JN0D0cKPBYK43QMJIekDA1JXBcOjtQD3nKkB6RZnBC/HXQNLu
u0A1McrBVLbkQIRmTb+jHb3Bvb+9QOT6msCggY/BMFbJQIYzJMDP1LDBxM3YQIi0U8Cdx53Bt2/b
QPxszD9jc7jBVsX/QNPYfEAnp6nBr9cJQdhaqkCWgrnB6cKWQNk58D7H9JvBUbqBQPn8VEBZ9bbB
YE1oQJg0kcCGbIjByfRAQJRymr9MRpzBD6qVQItcgUDPvs/B6RxmQHtLpEC7TcjBmqWsQCslw0Ck
4dbBhHafQMIN4EDt58rBkZaVQLHMkECZbYfBpDS4QA7jRkD3sIXBROnNQLzJlUCFAorBKHRYQACD
JUAg76fBWLcAQG3Nb0DOtpnB1UU3QO0mjEATxI7BI0zQQFMkBL+uQLbBkV9YQCwDPsAf65DBIYjB
QGpRwr/wR6/BbqJuQKUyAsAEypjB1dbLQCfFVj+NcrPBeQnpQLzggkAA66/B+Lb0QFQSm0A67bjB
jo+oQOxART7T3KLBpF2gQFU8dkAs/rbBCFSJQKS1f8DVUI7BBJe6QMaoTsD7EJvB3GutQEI0lL/U
mKXBVSefQOLECsA4853BD+63QHHRmT8eoanBKnq+QN/fZkCP2K7BIB+sQH44k0Co0b/BnQnWQLSB
o0Db3MDB0N7IQF50PUB+p5vBh1qCQHwuY0DqTJrBph6UQPUZnkBfp8nBJJCuQJEcwkAPJs7BUxSy
QM6HKUCdDqbBjSWyQKYSgkB1hIrBzpqvQJiLg8DOVZPBmAyrQCLJaUAqn5XBm9iEQITbN0DTPqPB
ruA4QIHLgUCNNpbBTb3tQBmkK0B9I5nBDjfZQCAsukBjTMrBxw7fQCJoSb9Zwr3BHlkbQELeOcD6
5IzBjpHFQG7RI8C9VLHBcqdDQBVMnb+u2prBk5LXQECzzT8fxLjB2jcAQWP/d0Dsy6nBAHsKQXMR
p0AsvrnBSdKYQEa26j5oeJvBB1uAQKeoXEDcXrbBZfCAQDOllsAnK4jBrO7YQHuzVcCZG5/BRtWS
QC7QgkAGNM/B18pmQD21qECuycfBSs2tQLqwwUAs8tbBX8KiQLsr4UBaPsvBjrqVQKUbk0DKi4fB
VfC3QHw8S0Api4XBVx3OQEhjl0AdH4rBXJpXQEGII0A9h6fBeusBQNRWekBwJZrB8SA5QFUckkDF
VI/BTdztQFqxEr8knq/B1kuaQDgWi8DWxJPBvFfWQDVwx7/iKqrBAoyxQAqjWsBi1ZnB6UfkQHkx
ST8iEK7BuR20QNlsOEAue7rB7Ym7QMzDZkAR8MPBKPmqQLN0Nj47xqHBeaHIQN5XmkAcv6/Bgopf
QCSkgcD81ZDBmXRlQG+I/b/2lJnB1DC1QEDUl7+ODaPBBZydQAFDDcD105zB1VvBQD0Llj81fafB
WpG8QI6IXUCrTLDBzkvPQG13sUBQNLnB0XPJQLQFnkBEUMPB32nNQHKuTUAlZ5zBfQSFQKUiWEDV
ZJnBieTZQAFk30BEELvBUaXmQGvc30ARvsbBYVy1QH/JKUAmBabBZKG2QB+XikDPKYvBM4o5QDvu
OMB9vJPB6BKuQDgbZUDIEpXBPhGIQKWcNEDH6qLBivQ8QO7Xa0BTZ5TBUUv0QFi+VEADYJvBzvjR
QBkeu0DzX8vBvaQDQVNAXL/E/7TB2dOoQLXwqMD0XpHB5JfdQBOQJsChaavB2CjSQFvRZ8CfK5zB
1573QFlexT9k5bHBPNunQJHQ7z8l8rrBNZK2QDL2SEA/osvB+6+RQMIg7j6tWZzBca7MQEe1qUDr
EqjBUdo7QOqYmMBfKozBbl9GQCtyh78f1pvBVuy9QNn580CsoLnBbIX0QGPG6UBV7bXB54XbQKZs
/UBLoMrB2MwEQYVR3UDxj8fBVXWYQLmtj0Am0IbBkOXMQEOfcEBMG4bBNPDEQOm7qUBjK43BRjpe
QGJQI0A+b6fBkIgFQCMGX0DMEZjBIPU8QJ1qg0BXJo3BBKDpQBslG7+7DLDBGsYpQJFjOsCBGJXB
H3vQQIPByb+b46rBIo9WQKGV979y3prBhpnhQDZQQj+GTK7B9P60QON4PEAGjrrB0AO+QC7Za0DA
18PBgqWmQN7mQD6mY6LBWwfLQKyUmkBlYa/By/1SQIn8g8AvipLBqn+oQOLjW8CbG5vBVjuvQMR8
l78f4KPBefuVQJ5lDMDP9J3BVK2+QMOzlT/S0afBtF29QI8dX0D7O7DBOUnTQLtAskBsrLjB4XvN
QFfvn0Aw6sLBFl7MQA9+SkBRUJzBIQGEQHnwWUDBmpnBSMHfQKHj30CAObrBa2jtQKTk4EB01sXB
9GO0QHEvKkB0I6bBlaa1QHBSiEC++4rBcWuSQBzJi8BxiJXB//CsQFH+YkAXEJXB3BqHQED0N0DT
NqPB+Ps6QE6jb0Bcu5TB7UTzQHheTkDeFpvBVrfXQHdhvUAExcrBPI0BQSHVaL/NW7XBbefQP0dE
L8AMo5LBq43WQIcBKMDPR6zBUkQ4QFx+f7/065zBZCT2QMQnwD9V6LHBuY6nQIUU+j/WQbvBwBO5
QGXMT0BrpMvBHlmNQMF3+z47Bp3B1RLPQKUaqUAam6fBOn8wQHERnMCyFo7B0BfJQIc/acDpcZ3B
BHvEQGBm9UAIzbjBJ1z6QGnL6ED66LTB5LXjQFgx/0CSmsnBFSYIQXgW3UAMg8bBxF6XQEEsjkDS
vYbBq9TKQPeLaUCJ7oXBcUTFQCQRp0Div4zBMGJcQINwKUBL5afBCa8DQAiZZUDrjpjBX+c6QMSj
hEDrZo3B

> <OMEGA_E>
uAauPjASAD8yGxY/5MQxPw==

> <OMEGA_NBR>
     60500

$$$$
50157487
  -OEChem-04172616093D

 48 52  0     1  0  0  0  0  0999 V2000
    6.7850   -0.5233  -22.6132 C   0  0  0  0  0  0  0  0  0  0  0  0
    5.2573   -4.0575  -18.2963 C   0  0  0  0  0  0  0  0  0  0  0  0
    6.2443   -1.5151  -21.7760 C   0  0  0  0  0  0  0  0  0  0  0  0
    5.7744   -3.1726  -19.2528 C   0  0  0  0  0  0  0  0  0  0  0  0
    6.5836    0.8357  -22.3121 C   0  0  0  0  0  0  0  0  0  0  0  0
    7.2260    4.2197  -21.9950 C   0  0  0  0  0  0  0  0  0  0  0  0
    7.5417    4.9849  -23.1310 C   0  0  0  0  0  0  0  0  0  0  0  0
    5.2515    0.2105  -20.3703 C   0  0  0  0  0  0  0  0  0  0  0  0
    5.0353    3.6908  -22.9570 C   0  0  0  0  0  0  0  0  0  0  0  0
    3.9278   -3.8949  -17.8524 C   0  0  0  0  0  0  0  0  0  0  0  0
    3.6277   -2.0240  -19.2291 C   0  0  0  0  0  0  0  0  0  0  0  0
    5.4724   -1.1424  -20.6550 C   0  0  0  0  0  0  0  0  0  0  0  0
    4.9469   -2.1398  -19.7255 C   0  0  0  0  0  0  0  0  0  0  0  0
    5.8093    1.2103  -21.1797 C   0  0  0  0  0  0  0  0  0  0  0  0
    5.9532    3.5963  -21.8936 C   0  0  0  0  0  0  0  0  0  0  0  0
    6.5890    5.1149  -24.1563 C   0  0  0  0  0  0  0  0  0  0  0  0
    5.3508    4.4511  -24.0714 C   0  0  0  0  0  0  0  0  0  0  0  0
    6.3143    2.9860  -19.4679 C   0  0  0  0  0  0  0  0  0  0  0  0
    4.0847    3.4747  -19.2588 C   0  0  0  0  0  0  0  0  0  0  0  0
    5.2743    5.7878  -25.8268 C   0  0  0  0  0  0  0  0  0  0  0  0
    5.6005    2.6611  -20.7640 C   0  0  2  0  0  0  0  0  0  0  0  0
    5.5704    3.9559  -17.2701 C   0  0  0  0  0  0  0  0  0  0  0  0
    3.1393   -2.8969  -18.3198 N   0  0  0  0  0  0  0  0  0  0  0  0
    5.3539    3.5867  -18.6709 N   0  0  0  0  0  0  0  0  0  0  0  0
    4.1836    2.8801  -20.4202 N   0  3  0  0  0  0  0  0  0  0  0  0
    2.8834    3.9042  -18.7164 N   0  0  0  0  0  0  0  0  0  0  0  0
    7.4782    2.7391  -19.1706 O   0  0  0  0  0  0  0  0  0  0  0  0
    6.6187    5.7984  -25.3378 O   0  0  0  0  0  0  0  0  0  0  0  0
    4.6389    4.6775  -25.2091 O   0  0  0  0  0  0  0  0  0  0  0  0
    7.3544   -0.8048  -23.4867 H   0  0  0  0  0  0  0  0  0  0  0  0
    5.8701   -4.8553  -17.9034 H   0  0  0  0  0  0  0  0  0  0  0  0
    6.4191   -2.5591  -21.9902 H   0  0  0  0  0  0  0  0  0  0  0  0
    6.7849   -3.2821  -19.6178 H   0  0  0  0  0  0  0  0  0  0  0  0
    7.0185    1.5970  -22.9427 H   0  0  0  0  0  0  0  0  0  0  0  0
    7.9492    4.1058  -21.2011 H   0  0  0  0  0  0  0  0  0  0  0  0
    8.5044    5.4670  -23.2150 H   0  0  0  0  0  0  0  0  0  0  0  0
    4.6460    0.4865  -19.5197 H   0  0  0  0  0  0  0  0  0  0  0  0
    4.0891    3.1727  -22.9042 H   0  0  0  0  0  0  0  0  0  0  0  0
    3.5286   -4.5830  -17.1220 H   0  0  0  0  0  0  0  0  0  0  0  0
    2.9976   -1.2217  -19.5837 H   0  0  0  0  0  0  0  0  0  0  0  0
    4.7614    6.7217  -25.5536 H   0  0  0  0  0  0  0  0  0  0  0  0
    5.2669    5.6719  -26.9207 H   0  0  0  0  0  0  0  0  0  0  0  0
    4.6561    4.4147  -16.8657 H   0  0  0  0  0  0  0  0  0  0  0  0
    5.8173    3.0559  -16.6878 H   0  0  0  0  0  0  0  0  0  0  0  0
    6.4009    4.6743  -17.2045 H   0  0  0  0  0  0  0  0  0  0  0  0
    3.4088    2.6125  -20.9929 H   0  0  0  0  0  0  0  0  0  0  0  0
    2.0299    3.7649  -19.2186 H   0  0  0  0  0  0  0  0  0  0  0  0
    2.8703    4.3533  -17.8230 H   0  0  0  0  0  0  0  0  0  0  0  0
  1  3  1  0  0  0  0
  1  5  2  0  0  0  0
  2  4  2  0  0  0  0
  2 10  1  0  0  0  0
  3 12  2  0  0  0  0
  4 13  1  0  0  0  0
  5 14  1  0  0  0  0
  6  7  2  0  0  0  0
  6 15  1  0  0  0  0
  7 16  1  0  0  0  0
  8 12  1  0  0  0  0
  8 14  2  0  0  0  0
  9 15  2  0  0  0  0
  9 17  1  0  0  0  0
 10 23  2  0  0  0  0
 11 13  2  0  0  0  0
 11 23  1  0  0  0  0
 12 13  1  0  0  0  0
 14 21  1  0  0  0  0
 15 21  1  0  0  0  0
 16 17  2  0  0  0  0
 16 28  1  0  0  0  0
 17 29  1  0  0  0  0
 18 21  1  0  0  0  0
 18 24  1  0  0  0  0
 18 27  2  0  0  0  0
 19 24  1  0  0  0  0
 19 25  2  0  0  0  0
 19 26  1  0  0  0  0
 20 28  1  0  0  0  0
 20 29  1  0  0  0  0
 21 25  1  0  0  0  0
 22 24  1  0  0  0  0
  1 30  1  0  0  0  0
  2 31  1  0  0  0  0
  3 32  1  0  0  0  0
  4 33  1  0  0  0  0
  5 34  1  0  0  0  0
  6 35  1  0  0  0  0
  7 36  1  0  0  0  0
  8 37  1  0  0  0  0
  9 38  1  0  0  0  0
 10 39  1  0  0  0  0
 11 40  1  0  0  0  0
 20 41  1  0  0  0  0
 20 42  1  0  0  0  0
 22 43  1  0  0  0  0
 22 44  1  0  0  0  0
 22 45  1  0  0  0  0
 25 46  1  0  0  0  0
 26 47  1  0  0  0  0
 26 48  1  0  0  0  0
M  CHG  1  25   1
M  END
> <OMEGA_C>
eh7ZQMD3Bb/T57TBtDuoQDbXgcDqXpLB99DHQLTvwb82Na7Bose4QF0MS8DGBZrBO63SQC/tVT8h
f7LBYDvnQLYHh0DT9a/BUlXxQBaEn0BJDLnBPwyoQKSIVz5w9qLBKCGhQEQ2bEDzp7fBlWB7QKxF
ecDP0Y7B0yxoQByJAcAm1ZnB6x2vQOo4kr9mPaXBr0yeQG3yCMDkzZ3B8uW5QODqmj8ecKnBYIC+
QPcpZkAYJq/BU9nSQGeto0AaQMHBgDmrQHpvjkAiksDBlw7KQOMZP0BIvpvBCLaCQMJhXkD5EZrB
TceoQE01uUBJnc7BDzezQNJPKkC6HKbBD0GyQOEtfUAmKYrBEetIQBhmOcDpjpLB61KrQDiNZUD9
XZXBPeCFQNFTOECmXKPB9Yk4QAPeeUA5u5XBeU3vQBtOL0BTXZnBp8zTQIGMuUDOs8rBQXKUQLKt
lUBUrMnB5FbrQOIGTr+25LvBhNe7QMdem8AZOo/Bk2nNQKbII8D066/B/R3ZQG4NUsBO8ZzBJZfg
QK1pzD+4irfBLGD+QNhig0DSm6nBFBIIQb3xrkBfuLnB/6uUQF0Q+T5NKJzBSdqCQO0NS0DnO7fB
OtVhQBWoksDZ+YjBVdk/QMthnL9sq5zBFV2YQPgX10CwbczBtYqoQNV/tUB+XdfB/f6UQHNFjUD4
7IbBnye6QGqUQ0CggIXBEdTMQOGTlUDpoonBOClaQIoyJ0B98afBa+oBQOPzcECiv5nBe7M3QO1N
i0COlY7BX6LUQH0WCL/xl7XB5pxNQIAsPcBo6JHBWwvEQH6kw7+v067BZpdoQAyEAcAPkZnBvt3P
QKaXUz/g47LBQLvoQDX9g0DaKrDBrA7zQIZ0nEAQPrnBfO+oQNRGRD5Ly6LBa/CfQL2tdEDG/LbB
PPSCQL4zf8C3zI7BY9W3QPC1TsADpprByPOtQPiOlL8tcKXB0XWdQN2RCsBfBJ7BT8S5QHw0mT8X
ZqnBwLu+QFSjZkDb7a7B/aXTQEHFo0AgFcHBa0iqQLi0kkAU57/B49TJQBy+PUDffpvBLY+CQF+b
XUCjEJrB9KesQA/QtEBDoM/BhkmzQIRwKUCn+aXBz8CxQI9UgUCUUIrB34mqQHR+g8CyIJPBdsmp
QG2bWUD6qZTBQ8qFQFICNkCKPqPB4h86QM5IgUD4W5bBwL/vQDUDNECXSJnBMkbVQGMGukDAeMrB
uLmRQBmqnUCnesjBswrlQGTyTr9C3rzBvIEOQE2nOMC0bY7BbTTIQFWTJMDhz7DBIS0/QIR0m78i
AZzB0QjdQMV8yz+FCrjBy1sAQZa7e0BpI6rBi2oJQeeDqUAEL7rBhO2XQJBE7T4BmJvBGE+AQKWC
WUCYOLbB/21xQGZalsAy0ojB4TrXQN0UVsDkI57Bl5CeQGlP1EByXdHBEJ2wQPLXokDIINfBYw2T
QFdBiUA2fobBLNbDQFuxVkBmI4XBMF3EQEPNnkDPiovBTC5aQOYOI0DLvqfB9eUEQKnKf0C3yZrB
xT45QJ8BkEDLQY/B

> <OMEGA_E>
eNLMPgS+CD8=

> <OMEGA_NBR>
     62433

$$$$
50158048
  -OEChem-04172616093D

 56 58  0     1  0  0  0  0  0999 V2000
    6.6509   -0.5595  -22.6322 C   0  0  0  0  0  0  0  0  0  0  0  0
    6.4055    0.8095  -22.4070 C   0  0  0  0  0  0  0  0  0  0  0  0
    6.3321   -1.5075  -21.6455 C   0  0  0  0  0  0  0  0  0  0  0  0
    5.4506    0.2764  -20.2414 C   0  0  0  0  0  0  0  0  0  0  0  0
    5.8050    1.2484  -21.1962 C   0  0  0  0  0  0  0  0  0  0  0  0
    5.7434   -1.0758  -20.4408 C   0  0  0  0  0  0  0  0  0  0  0  0
    6.3278    3.0502  -19.5389 C   0  0  0  0  0  0  0  0  0  0  0  0
    4.1090    3.5059  -19.2399 C   0  0  0  0  0  0  0  0  0  0  0  0
    6.0024   -3.0817  -18.9897 C   0  0  0  0  0  0  0  0  0  0  0  0
    6.5671    4.7857  -24.5852 C   0  0  0  0  0  0  0  0  0  0  0  0
    7.4603    5.0942  -23.3727 C   0  0  0  0  0  0  0  0  0  0  0  0
    5.0873    4.7367  -24.1733 C   0  0  0  0  0  0  0  0  0  0  0  0
    7.2997    4.0324  -22.2773 C   0  0  0  0  0  0  0  0  0  0  0  0
    4.8524    3.6524  -23.1189 C   0  0  0  0  0  0  0  0  0  0  0  0
    5.7974    3.8395  -21.8903 C   0  0  0  0  0  0  0  0  0  0  0  0
    5.5592    2.7245  -20.8141 C   0  0  1  0  0  0  0  0  0  0  0  0
    5.6876    4.1550  -17.3691 C   0  0  0  0  0  0  0  0  0  0  0  0
    2.3961   -1.8224  -18.5131 C   0  0  0  0  0  0  0  0  0  0  0  0
    5.3040   -3.9508  -17.9190 C   0  0  0  0  0  0  0  0  0  0  0  0
    3.9712   -3.3327  -17.4053 C   0  0  0  0  0  0  0  0  0  0  0  0
    5.3732    3.4857  -18.6359 N   0  0  0  0  0  0  0  0  0  0  0  0
    4.1558    2.8599  -20.3803 N   0  3  0  0  0  0  0  0  0  0  0  0
    2.9628    4.0887  -18.7216 N   0  0  0  0  0  0  0  0  0  0  0  0
    5.3620   -1.9384  -19.4326 N   0  0  0  0  0  0  0  0  0  0  0  0
    7.5291    2.9149  -19.3325 O   0  0  0  0  0  0  0  0  0  0  0  0
    7.1393   -3.3598  -19.3538 O   0  0  0  0  0  0  0  0  0  0  0  0
    3.0237   -3.1304  -18.4909 O   0  0  0  0  0  0  0  0  0  0  0  0
    7.0858   -0.8814  -23.5669 H   0  0  0  0  0  0  0  0  0  0  0  0
    6.6764    1.5325  -23.1621 H   0  0  0  0  0  0  0  0  0  0  0  0
    6.5360   -2.5554  -21.8089 H   0  0  0  0  0  0  0  0  0  0  0  0
    4.9430    0.5812  -19.3381 H   0  0  0  0  0  0  0  0  0  0  0  0
    6.7047    5.5704  -25.3437 H   0  0  0  0  0  0  0  0  0  0  0  0
    6.8563    3.8122  -25.0080 H   0  0  0  0  0  0  0  0  0  0  0  0
    8.5108    5.1171  -23.6982 H   0  0  0  0  0  0  0  0  0  0  0  0
    7.1818    6.0764  -22.9632 H   0  0  0  0  0  0  0  0  0  0  0  0
    4.7961    5.7128  -23.7580 H   0  0  0  0  0  0  0  0  0  0  0  0
    4.4734    4.5173  -25.0593 H   0  0  0  0  0  0  0  0  0  0  0  0
    7.7012    3.0761  -22.6435 H   0  0  0  0  0  0  0  0  0  0  0  0
    7.8616    4.3489  -21.3862 H   0  0  0  0  0  0  0  0  0  0  0  0
    3.8078    3.7044  -22.7783 H   0  0  0  0  0  0  0  0  0  0  0  0
    5.0424    2.6672  -23.5699 H   0  0  0  0  0  0  0  0  0  0  0  0
    5.4878    4.7823  -21.4158 H   0  0  0  0  0  0  0  0  0  0  0  0
    4.7541    4.3969  -16.8401 H   0  0  0  0  0  0  0  0  0  0  0  0
    6.3006    3.4884  -16.7447 H   0  0  0  0  0  0  0  0  0  0  0  0
    6.2444    5.0816  -17.5725 H   0  0  0  0  0  0  0  0  0  0  0  0
    1.7005   -1.7633  -19.3632 H   0  0  0  0  0  0  0  0  0  0  0  0
    1.8431   -1.6652  -17.5753 H   0  0  0  0  0  0  0  0  0  0  0  0
    3.1691   -1.0467  -18.6174 H   0  0  0  0  0  0  0  0  0  0  0  0
    5.0873   -4.9370  -18.3553 H   0  0  0  0  0  0  0  0  0  0  0  0
    5.9868   -4.0698  -17.0648 H   0  0  0  0  0  0  0  0  0  0  0  0
    3.5251   -4.0113  -16.6634 H   0  0  0  0  0  0  0  0  0  0  0  0
    4.1857   -2.3628  -16.9328 H   0  0  0  0  0  0  0  0  0  0  0  0
    3.3619    2.5124  -20.8792 H   0  0  0  0  0  0  0  0  0  0  0  0
    2.1007    4.0304  -19.2250 H   0  0  0  0  0  0  0  0  0  0  0  0
    2.9981    4.5673  -17.8443 H   0  0  0  0  0  0  0  0  0  0  0  0
    4.5114   -1.7063  -18.9608 H   0  0  0  0  0  0  0  0  0  0  0  0
  1  2  2  0  0  0  0
  1  3  1  0  0  0  0
  2  5  1  0  0  0  0
  3  6  2  0  0  0  0
  4  5  2  0  0  0  0
  4  6  1  0  0  0  0
  5 16  1  0  0  0  0
  6 24  1  0  0  0  0
  7 16  1  0  0  0  0
  7 21  1  0  0  0  0
  7 25  2  0  0  0  0
  8 21  1  0  0  0  0
  8 22  2  0  0  0  0
  8 23  1  0  0  0  0
  9 19  1  0  0  0  0
  9 24  1  0  0  0  0
  9 26  2  0  0  0  0
 10 11  1  0  0  0  0
 10 12  1  0  0  0  0
 11 13  1  0  0  0  0
 12 14  1  0  0  0  0
 13 15  1  0  0  0  0
 14 15  1  0  0  0  0
 15 16  1  0  0  0  0
 16 22  1  0  0  0  0
 17 21  1  0  0  0  0
 18 27  1  0  0  0  0
 19 20  1  0  0  0  0
 20 27  1  0  0  0  0
  1 28  1  0  0  0  0
  2 29  1  0  0  0  0
  3 30  1  0  0  0  0
  4 31  1  0  0  0  0
 10 32  1  0  0  0  0
 10 33  1  0  0  0  0
 11 34  1  0  0  0  0
 11 35  1  0  0  0  0
 12 36  1  0  0  0  0
 12 37  1  0  0  0  0
 13 38  1  0  0  0  0
 13 39  1  0  0  0  0
 14 40  1  0  0  0  0
 14 41  1  0  0  0  0
 15 42  1  0  0  0  0
 17 43  1  0  0  0  0
 17 44  1  0  0  0  0
 17 45  1  0  0  0  0
 18 46  1  0  0  0  0
 18 47  1  0  0  0  0
 18 48  1  0  0  0  0
 19 49  1  0  0  0  0
 19 50  1  0  0  0  0
 20 51  1  0  0  0  0
 20 52  1  0  0  0  0
 22 53  1  0  0  0  0
 23 54  1  0  0  0  0
 23 55  1  0  0  0  0
 24 56  1  0  0  0  0
M  CHG  1  22   1
M  END
> <OMEGA_C>
NdTUQKw5D7+zDrXBdfnMQMg8Tz97QbPBcaDKQKL0wL8DKq3BEGuuQDyHjT5l7qHBV8K5QKrKnz/F
kanBP8q3QESzib/QhqPBKH3KQDY2Q0CpT5zBBH2DQOJgYEBP65nBXBPAQMA6RcD16pfBWSXSQDok
mUByrsTB5bruQJgDo0A/+7rBWcuiQFyTl0DxYsHBB5fpQMYJgUD+N7LBIkebQIDAaUBx87jB/YO5
QAy6dUBPH6/B9OSxQNpdLkAxg6bBIwG2QHX1hEAA9IrB9FkZQJBE6b/jGpTBO7qpQMTZfMAHWo/B
wyd+QMhKVcAmPovBXfGrQBwVX0BlFpXBY/yEQLsIN0DDCqPByJ49QKDWgkC/xZXBQJWrQOQd+L/4
dZvBre7wQCWNOkDnqJrBV3XkQPYGV8B81JrBr4NBQDpYSMBe7ZPB8r7iQG6gYb/ziLzB76TVQJMq
xD/+S7nBMSfRQFCLI8CQeK7BGC2eQO3GFD97tJrB2ozWQGJAskDbv8rBjGbbQJ/7c0BgEMjBRiwI
QVS/o0DTlb3Bd9HlQOVxwkCUtLfBZ3mZQDbPtkBhEL7BIiaPQMGNkEBsecjBLHD2QAHeRED6JbXB
iZL7QPopi0D+FqvBprJzQIYVbUD1ObbBOVuhQBu0KkAqj7zBu5uvQOIImUB8U6vBTSGYQHuzjEB9
uIbB1p7JQO9BX0An9YXBS9LHQGacokB6lIzBMKnZP62z4b/M55rBy+rrP4Il1b9GmozBE9JKQH/7
hb9+8JTB/8qiQPn7ncC015LBu5O/QMk7gsCrhIjBnZphQIJcgMCmToXBkfGFQOU3F8B6dofBJSlX
QITLIECXCKfBjHIGQCb5gEC/zJnBl+E/QLUnkkALwY7BQ12QQEpo2r+kr5fB24vRQI4RU7/5/7PB
F6fNQEj9Dz/lkLLBL8TAQJC72r8HXqzBbt+oQDmOPz45pKHBpHm5QKfkiz86SanBSG6rQLhKmr8w
PKPBNMXLQO0SPUCwn5zB322EQKZ9XkBwL5vBDEuLQMQ8VsAfiZzBPjvDQHbhuUA437/BI8u0QNze
jEBYaMPB0/vkQD8+t0A267bBMUakQIqCZUAB1bnBmZDTQIsinkAkQa3BA2nGQBZ6YECFsLDBvX+1
QKYmJ0CWIqfBJQK0QIgXgUADT4vB1TDqQI17lsAGrYjBt7h1QPwCgsBYfJLB9/WeQEcuhcBsIIrB
N/SsQPOoZUC+ZJbBjDaIQIGmO0A/t6TBIHo7QM91eEATvpbBqKCZQCgHAsDgYJvBj8PxQENNM0Dw
fJrBAkyIQJv0ecBJP6XBVy/DQKdim8AjsI7BhYXhQOsjm7+PAbvBuBvaQL76nT9zkrjBLyPEQIKY
McCVdq3BP/+ZQEvJET/Ld5rBahTRQGK5ykC1x8bBz0qnQP66y0Bt6rzBOwSbQDP/j0BbWcnBqh3Q
QCUWeEBmBsfBjNQAQab8pkBUAbrBN3ntQFLS10CBWbTBGyiHQLwIgkAosbbBTqycQC1EJECCibzB
dYTsQDMknEBOEafBzHS3QMrdrkAgAarB8/PiQHDOQEDD+7PBi6eWQPYbkEBPOojBxVC8QAPDSkCc
S4bBs1bOQN9wmEA9HovB9gwCQag8qMDxpYzBg7HyQN28aMA5PojBZJLlQPQWo8CMioDBfdw/QFO6
X8AaF4/BChZgQHtiosDoopTBMMWoQESdScBnsYfBpVeTQPnflsB5GIPBun5fQE11MEDOranB4hEF
QMQIcUAM2prBV0E6QBdHiUB1cI/B8NOWQLYj0b9xEpTB

> <OMEGA_E>
nOf3PhIJMT8=

> <OMEGA_NBR>
     64584

$$$$
50161548
  -OEChem-04172616093D

 45 48  0     1  0  0  0  0  0999 V2000
    3.9693   -3.9502  -17.8008 C   0  0  0  0  0  0  0  0  0  0  0  0
    5.2753   -4.0887  -18.3122 C   0  0  0  0  0  0  0  0  0  0  0  0
    3.1500   -2.8891  -18.2332 C   0  0  0  0  0  0  0  0  0  0  0  0
    6.6597   -0.5225  -22.6753 C   0  0  0  0  0  0  0  0  0  0  0  0
    5.7631   -3.1675  -19.2586 C   0  0  0  0  0  0  0  0  0  0  0  0
    3.6409   -1.9567  -19.1646 C   0  0  0  0  0  0  0  0  0  0  0  0
    6.1700   -1.4945  -21.7847 C   0  0  0  0  0  0  0  0  0  0  0  0
    6.4743    0.8459  -22.4025 C   0  0  0  0  0  0  0  0  0  0  0  0
    5.0220    3.9467  -23.0368 C   0  0  0  0  0  0  0  0  0  0  0  0
    7.2608    4.2042  -22.1576 C   0  0  0  0  0  0  0  0  0  0  0  0
    5.2697    0.2681  -20.3640 C   0  0  0  0  0  0  0  0  0  0  0  0
    5.3967    4.7505  -24.1296 C   0  0  0  0  0  0  0  0  0  0  0  0
    7.5673    4.9969  -23.2806 C   0  0  0  0  0  0  0  0  0  0  0  0
    4.9494   -2.0935  -19.6813 C   0  0  0  0  0  0  0  0  0  0  0  0
    5.4689   -1.0978  -20.6274 C   0  0  0  0  0  0  0  0  0  0  0  0
    5.7706    1.2536  -21.2402 C   0  0  0  0  0  0  0  0  0  0  0  0
    5.9562    3.6809  -22.0101 C   0  0  0  0  0  0  0  0  0  0  0  0
    6.3148    3.0185  -19.5568 C   0  0  0  0  0  0  0  0  0  0  0  0
    4.0774    3.3966  -19.2752 C   0  0  0  0  0  0  0  0  0  0  0  0
    5.5845    2.7266  -20.8657 C   0  0  2  0  0  0  0  0  0  0  0  0
    5.5725    3.7666  -17.2682 C   0  0  0  0  0  0  0  0  0  0  0  0
    6.6452    5.2611  -24.2357 N   0  0  0  0  0  0  0  0  0  0  0  0
    5.3181    3.2902  -18.6334 N   0  0  0  0  0  0  0  0  0  0  0  0
    4.1736    2.9569  -20.5064 N   0  3  0  0  0  0  0  0  0  0  0  0
    2.9002    3.8534  -18.7033 N   0  0  0  0  0  0  0  0  0  0  0  0
    7.5064    2.8660  -19.3098 O   0  0  0  0  0  0  0  0  0  0  0  0
    3.5961   -4.6589  -17.0763 H   0  0  0  0  0  0  0  0  0  0  0  0
    5.9023   -4.9019  -17.9778 H   0  0  0  0  0  0  0  0  0  0  0  0
    2.1451   -2.7916  -17.8495 H   0  0  0  0  0  0  0  0  0  0  0  0
    7.1799   -0.8270  -23.5715 H   0  0  0  0  0  0  0  0  0  0  0  0
    6.7588   -3.2821  -19.6609 H   0  0  0  0  0  0  0  0  0  0  0  0
    3.0174   -1.1352  -19.4853 H   0  0  0  0  0  0  0  0  0  0  0  0
    6.3306   -2.5432  -21.9869 H   0  0  0  0  0  0  0  0  0  0  0  0
    6.8691    1.5881  -23.0805 H   0  0  0  0  0  0  0  0  0  0  0  0
    4.0251    3.5348  -22.9831 H   0  0  0  0  0  0  0  0  0  0  0  0
    8.0170    3.9976  -21.4147 H   0  0  0  0  0  0  0  0  0  0  0  0
    4.7264    0.5670  -19.4798 H   0  0  0  0  0  0  0  0  0  0  0  0
    4.6714    4.9646  -24.9006 H   0  0  0  0  0  0  0  0  0  0  0  0
    8.5625    5.4040  -23.3822 H   0  0  0  0  0  0  0  0  0  0  0  0
    4.6158    3.9043  -16.7430 H   0  0  0  0  0  0  0  0  0  0  0  0
    6.1831    3.0270  -16.7297 H   0  0  0  0  0  0  0  0  0  0  0  0
    6.1097    4.7257  -17.3089 H   0  0  0  0  0  0  0  0  0  0  0  0
    3.3975    2.7995  -21.1171 H   0  0  0  0  0  0  0  0  0  0  0  0
    2.0548    3.8604  -19.2373 H   0  0  0  0  0  0  0  0  0  0  0  0
    2.8964    4.1759  -17.7567 H   0  0  0  0  0  0  0  0  0  0  0  0
  1  2  1  0  0  0  0
  1  3  2  0  0  0  0
  2  5  2  0  0  0  0
  3  6  1  0  0  0  0
  4  7  1  0  0  0  0
  4  8  2  0  0  0  0
  5 14  1  0  0  0  0
  6 14  2  0  0  0  0
  7 15  2  0  0  0  0
  8 16  1  0  0  0  0
  9 12  2  0  0  0  0
  9 17  1  0  0  0  0
 10 13  1  0  0  0  0
 10 17  2  0  0  0  0
 11 15  1  0  0  0  0
 11 16  2  0  0  0  0
 12 22  1  0  0  0  0
 13 22  2  0  0  0  0
 14 15  1  0  0  0  0
 16 20  1  0  0  0  0
 17 20  1  0  0  0  0
 18 20  1  0  0  0  0
 18 23  1  0  0  0  0
 18 26  2  0  0  0  0
 19 23  1  0  0  0  0
 19 24  2  0  0  0  0
 19 25  1  0  0  0  0
 20 24  1  0  0  0  0
 21 23  1  0  0  0  0
  1 27  1  0  0  0  0
  2 28  1  0  0  0  0
  3 29  1  0  0  0  0
  4 30  1  0  0  0  0
  5 31  1  0  0  0  0
  6 32  1  0  0  0  0
  7 33  1  0  0  0  0
  8 34  1  0  0  0  0
  9 35  1  0  0  0  0
 10 36  1  0  0  0  0
 11 37  1  0  0  0  0
 12 38  1  0  0  0  0
 13 39  1  0  0  0  0
 21 40  1  0  0  0  0
 21 41  1  0  0  0  0
 21 42  1  0  0  0  0
 24 43  1  0  0  0  0
 25 44  1  0  0  0  0
 25 45  1  0  0  0  0
M  CHG  1  24   1
M  END
> <OMEGA_C>
Sgl+QInQfMAfaI7B9c6oQEHWgsBQf5LBy5hJQBrnOMCA3ZHBnhzVQNLCBb8LZ7XBNWu4QO23SsCJ
EZrBugRpQJJ0+r8CUZnBk3DFQAdMv78dR67BHy3PQMiLWD9POLPBnbSgQEiXfEBzS7jBwljoQISI
hkC7QrHBeqGoQLZAiT6S6aLBwbGsQF8EmEBZCcHBoCfyQL3mn0CqPrrBN2GeQEf7BcBRc53BIQGv
QD2FjL8BBaXBmqi4QGZ0oD/666nB4pi+QBGUa0CmFLDB8RLKQK8uQUBXdJzBTnqCQLRiWUCMM5rB
grSyQI+ALkDa7KbBGlKyQL4QcUBOJYrBwqXUQDJbqEDI4sHBfS2qQMKSUkAhEZXBEI6FQGc9PUAh
DaTBM505QCCedkBYoJXBejTwQJpsN0CCeprBnCZmQJ8VlcBUnIjBnt+8QKzcnMCK0o/BZEkJQJep
MsDQy47BgsHlQG60U79zkrzBzkfYQAwOUsCLSZ3ByR1BQNhOkb/o4ZvBnpTKQIbDIsAl5a/Bnc/b
QMpFyz/UpLjB282AQKY6YkBl3bfB0kUAQR3Zf0BKUavBxT6XQEInET+q1pvBd3yVQDvenkCHNMfB
/v8IQbPtrEDEDrvB77STQHHgeUDE8YXBOtzFQI25QUBr1oXBZYLDQBo5l0CUeIrB93BZQL0qM0DS
76jBcYEDQHURd0AD5pnB3V45QLOghUDDDY7BHm1+QIlnf8A6mI7BwKVJQGBVO8Dq7ZHBKB+pQCGE
g8CRpJLBDaPUQOZpB794X7XB4N5oQAbM/L9wPZnBq5y4QG/jSsCWE5rB/+nEQBKyv7/iO67B3vfO
QCQDVz/BLrPB2LugQOVefEDhSrjBmHboQAtXhkDDTbHBzaKoQL7giT4m0aLBCJusQFYDmEB0BcHB
iSTyQJXbn0AXRbrBVVueQDIzBsBiXp3B8MOuQJuKjL+a8KTBobC4QDFAoD/H26nBGbi+QJg/a0DY
GrDBHlDKQLgFQkDNepzBX5+CQMDjWkAAQJrBNtuyQDWSLkAD6qbB5p2yQJxxc0D4MYrBrYfUQLdq
qEA84cHBn4mqQBVTVkCwLZXBwbmFQCmmPUBJDKTBSk85QMZDdkDVpJXB6UvwQFrFNkCscprB1Jlm
QPfnlsAp7YjBgDgJQJLtNcCu347B6Fy9QNWFncBpCpDBHB3lQPsRVr8cj7zBP8JAQL1Nk794spvB
spPYQBlEUcBYQ53BUcvJQI0EI8C73a/B9qDbQM05yj80n7jBDdqAQELtYUD82bfBxV8AQZwzf0BO
ZKvBDHSXQF8uEj9DuJvB4VWVQAPmnkBHLMfBFPwIQf/qrEBIGLvB/fOTQFwWf0BaIIbBjKLEQNoC
QkAH14XBE1TFQMiGl0CTY4rBJ8NZQJ0GM0B66ajBI+cCQEpddECd2ZnBV/I4QHj0hUCNHY7BhjB/
QMVtfcAGfI7BnK5KQO41OcD91JHBSTqpQOslg8Dvq5LBACnVQPr4A78NcLXB6LVpQPOP+r/YRpnB
F6W4QFsPS8DbOprBsXjFQLmpvr9OVq7BrS7PQHgFWj9wOrPBBiroQA2khkBHOLHBXragQOHfe0Bt
V7jBm6KoQDLUiT5x7qLBIgXyQDj4n0BsNLrBgMSsQFWQl0DWF8HB9ZKeQM8NBsCqgZ3BQg2vQH5H
jL8BEaXBJ5i4QNnOoD/+7anB13a+QIWAa0A1FLDBfP7JQEVjQUCyd5zBLmWCQO9GWkBaNprByo2y
QHmdLkDT66bBrlKyQGnjcEAwHorB66HUQN4pqEBv5MHBwS2qQCj7U0CkG5XBzmaFQFSGPUALCqTB
tGM5QHIRd0BImpXBogrwQLibNkADeZrBzpZnQP2BlcDbsojBx58KQPnuMsDFro7Br1G9QIxJncB0
FJDBt9jlQDtEUb+lm7zBaMBBQNoEkb+kw5vBwWPYQNlhUsBGhZ3BV5XKQDZqIsAJ+6/Bl9bbQIhC
zD/HobjBbyQAQSksgEBJP6vBvN+AQAouYUAR8bfBqkaXQNvUED/b2JvBz+YIQZourUBN+7rBHLCV
QGshnkCgT8fBt66TQOkVe0Bo+oXBCvvEQGb8P0CN1oXBjmvEQG+glkCJTYrBShBZQB4mM0BN56jB
hQ0DQBa0dkBV1JnBGlg5QFgZhkAeDY7B16qAQAxTfcBDOY7BTjSqQG3WgsCTfJLBOi5MQGx4OcCN
h5HBZX7TQH9oB7/vmLXBGyq5QKxoSsDJGJrBpFdqQI7h+r/sBJnBlVvEQEC/v7+9YK7BzMbNQNUP
Vz++aLPBMHXoQBxrhkBhMrHBCg6hQLF6fEDhYrjBB4eoQIR7iT6T5aLBUIvyQFj7n0DnHrrBcl2t
QOgImEAKFsHB5b2eQJHfBcAiWZ3Bp66uQNaGjL8EBKXBOBa4QMQjoD/N/qnBAKq+QPBWa0ASHrDB
XO3JQHTaQEBJiJzBU1OCQGqCWUCDO5rBKXCyQLxiLkD+/KbBm5CyQAoOckCrPorBaFDVQCt8qEBn
0sHBdzSqQCatU0BzKZXBOVaFQNPBPUDwGqTBFys5QAV6dUAskZXBtQPwQPRzNkA9jprBMWBqQFaD
lcBpaYjBHpK+QJfKnMCk6Y/Bd0wMQAaMM8B3UI7BmI3jQOcFVr+/17zBwdTYQD1ZUcBvcp3B6PJB
QGi+kb+/dpvBmFPJQBgII8BCALDBj/HZQGBKyj9o6rjBET0AQb1Of0AdOKvBLSOBQHgfYkA2CLjB
A6+XQHnoET+Jv5vBXjAJQS4grUC21rrBZmmWQDvbnkDrUMfB/wKUQNQrfEDSD4bBwJfFQAkHQkCQ
6YXByF3EQF1dl0BzlIrBp/NYQKNSNECPAKnB1ckCQNpDdUAKyZnBSxo5QDPuhEDV+43BJ+9+QIS9
aMBviI3BGWeRQJhJGMB9LYvBmRt9QHM5g8CJKpjBPjbTQPLheL8OvrjBS4OiQC8gy7/scJPBx4CP
QGjLU8DQdqDBHLHDQICC5L/OarDBKZnRQCyb2z5H1bfBWdZ9QHZ1M0BXE6HBTePBQGxMc0ARg5vB
YaOyQKCpUT4/CqbBbvtZQHqJTUCiQpfBu5itQNV7hkA9+ZHB4rWhQJjGAsDQMZ7Bgw6zQOyvmb8o
/abBf9nAQLeehD9Nga7BUmyqQBhXRUByS6PB4y+pQMrZS0AyYbfB7LnuQOwSe0B61rbBe4y/QMa5
JEA0sq3B6DPAQJQ9mEBWIcbBRSOEQAqqeUDj84/BC9XGQJSbgUAS7rvBD7vrQJo3RUD6yK7BARsK
QaaXkkBusrnBf7CEQAS4PUB6iLrB/s9kQKjXh8B+L4fBUQmSQAV2AcAjBoPBlqRhQIodosAY9pnB
amngQDF0tr9S27/BrVmwQG3uH7++lpHBwp2OQNHYasA+m6jBVHvEQDkNN8BkOrHBVTrdQGrbhT9J
Tb7BTBpXQLT5EUA24abBfyXjQCJPgUAw35zBGEWnQKjmJz/uuJ7BihQYQFn5PUDghpXBWJG/QBV7
mECrH4zB62bcQIYNrEDM68fBwn+7QDbEgEDWlMzBZb6jQGrOrEBTgsXBxAsCQbuBNEByCarBeYkX
QZegjUDeh7XBsicKQcuzpkB667/B

> <OMEGA_E>
gIzwPXC48D3w8PE9IFABPlDmiT8=

> <OMEGA_NBR>
     68800

$$$$
50161552
  -OEChem-04172616093D

 49 52  0     1  0  0  0  0  0999 V2000
    6.6715   -0.2530  -22.9122 C   0  0  0  0  0  0  0  0  0  0  0  0
    6.0367   -4.0127  -18.7947 C   0  0  0  0  0  0  0  0  0  0  0  0
    6.1601   -1.2933  -22.1323 C   0  0  0  0  0  0  0  0  0  0  0  0
    6.2121   -3.0215  -19.7613 C   0  0  0  0  0  0  0  0  0  0  0  0
    6.4863    1.0741  -22.5057 C   0  0  0  0  0  0  0  0  0  0  0  0
    4.8313   -4.0860  -18.0834 C   0  0  0  0  0  0  0  0  0  0  0  0
    7.2428    4.2782  -22.0740 C   0  0  0  0  0  0  0  0  0  0  0  0
    5.0320    4.0032  -23.0216 C   0  0  0  0  0  0  0  0  0  0  0  0
    5.2333    0.3208  -20.5527 C   0  0  0  0  0  0  0  0  0  0  0  0
    3.9818   -2.1372  -19.2837 C   0  0  0  0  0  0  0  0  0  0  0  0
    7.6176    4.9536  -23.2509 C   0  0  0  0  0  0  0  0  0  0  0  0
    5.4738    4.6923  -24.1645 C   0  0  0  0  0  0  0  0  0  0  0  0
    5.4707   -1.0059  -20.9374 C   0  0  0  0  0  0  0  0  0  0  0  0
    5.1935   -2.0797  -20.0015 C   0  0  0  0  0  0  0  0  0  0  0  0
    5.7402    1.3757  -21.3321 C   0  0  0  0  0  0  0  0  0  0  0  0
    5.9223    3.7927  -21.9447 C   0  0  0  0  0  0  0  0  0  0  0  0
    3.7822   -3.1599  -18.3373 C   0  0  0  0  0  0  0  0  0  0  0  0
    6.2591    3.0127  -19.5160 C   0  0  0  0  0  0  0  0  0  0  0  0
    4.0316    3.4535  -19.2557 C   0  0  0  0  0  0  0  0  0  0  0  0
    5.5371    2.8055  -20.8441 C   0  0  2  0  0  0  0  0  0  0  0  0
    5.5039    3.6956  -17.2107 C   0  0  0  0  0  0  0  0  0  0  0  0
    2.3223   -4.3551  -16.8391 C   0  0  0  0  0  0  0  0  0  0  0  0
    6.7435    5.1489  -24.2663 N   0  0  0  0  0  0  0  0  0  0  0  0
    5.2570    3.2824  -18.5977 N   0  0  0  0  0  0  0  0  0  0  0  0
    4.1231    3.0083  -20.4853 N   0  3  0  0  0  0  0  0  0  0  0  0
    2.8732    3.9756  -18.7012 N   0  0  0  0  0  0  0  0  0  0  0  0
    7.4373    2.7889  -19.2582 O   0  0  0  0  0  0  0  0  0  0  0  0
    2.5566   -3.2131  -17.6956 O   0  0  0  0  0  0  0  0  0  0  0  0
    7.2072   -0.4714  -23.8242 H   0  0  0  0  0  0  0  0  0  0  0  0
    6.8273   -4.7210  -18.5954 H   0  0  0  0  0  0  0  0  0  0  0  0
    6.2931   -2.3183  -22.4454 H   0  0  0  0  0  0  0  0  0  0  0  0
    7.1314   -2.9768  -20.3264 H   0  0  0  0  0  0  0  0  0  0  0  0
    6.9138    1.8766  -23.0886 H   0  0  0  0  0  0  0  0  0  0  0  0
    4.6978   -4.8532  -17.3350 H   0  0  0  0  0  0  0  0  0  0  0  0
    7.9576    4.1326  -21.2777 H   0  0  0  0  0  0  0  0  0  0  0  0
    4.0176    3.6366  -22.9669 H   0  0  0  0  0  0  0  0  0  0  0  0
    4.6628    0.5322  -19.6604 H   0  0  0  0  0  0  0  0  0  0  0  0
    3.2112   -1.4010  -19.4587 H   0  0  0  0  0  0  0  0  0  0  0  0
    8.6273    5.3250  -23.3462 H   0  0  0  0  0  0  0  0  0  0  0  0
    4.7849    4.8610  -24.9790 H   0  0  0  0  0  0  0  0  0  0  0  0
    4.5436    3.8456  -16.6957 H   0  0  0  0  0  0  0  0  0  0  0  0
    6.0797    2.9146  -16.6925 H   0  0  0  0  0  0  0  0  0  0  0  0
    6.0740    4.6364  -17.2045 H   0  0  0  0  0  0  0  0  0  0  0  0
    1.3203   -4.2792  -16.3917 H   0  0  0  0  0  0  0  0  0  0  0  0
    2.3896   -5.2786  -17.4329 H   0  0  0  0  0  0  0  0  0  0  0  0
    3.0793   -4.3763  -16.0412 H   0  0  0  0  0  0  0  0  0  0  0  0
    3.3470    2.8323  -21.0908 H   0  0  0  0  0  0  0  0  0  0  0  0
    2.0376    4.0297  -19.2477 H   0  0  0  0  0  0  0  0  0  0  0  0
    2.8733    4.2980  -17.7546 H   0  0  0  0  0  0  0  0  0  0  0  0
  1  3  1  0  0  0  0
  1  5  2  0  0  0  0
  2  4  2  0  0  0  0
  2  6  1  0  0  0  0
  3 13  2  0  0  0  0
  4 14  1  0  0  0  0
  5 15  1  0  0  0  0
  6 17  2  0  0  0  0
  7 11  2  0  0  0  0
  7 16  1  0  0  0  0
  8 12  1  0  0  0  0
  8 16  2  0  0  0  0
  9 13  1  0  0  0  0
  9 15  2  0  0  0  0
 10 14  2  0  0  0  0
 10 17  1  0  0  0  0
 11 23  1  0  0  0  0
 12 23  2  0  0  0  0
 13 14  1  0  0  0  0
 15 20  1  0  0  0  0
 16 20  1  0  0  0  0
 17 28  1  0  0  0  0
 18 20  1  0  0  0  0
 18 24  1  0  0  0  0
 18 27  2  0  0  0  0
 19 24  1  0  0  0  0
 19 25  2  0  0  0  0
 19 26  1  0  0  0  0
 20 25  1  0  0  0  0
 21 24  1  0  0  0  0
 22 28  1  0  0  0  0
  1 29  1  0  0  0  0
  2 30  1  0  0  0  0
  3 31  1  0  0  0  0
  4 32  1  0  0  0  0
  5 33  1  0  0  0  0
  6 34  1  0  0  0  0
  7 35  1  0  0  0  0
  8 36  1  0  0  0  0
  9 37  1  0  0  0  0
 10 38  1  0  0  0  0
 11 39  1  0  0  0  0
 12 40  1  0  0  0  0
 21 41  1  0  0  0  0
 21 42  1  0  0  0  0
 21 43  1  0  0  0  0
 22 44  1  0  0  0  0
 22 45  1  0  0  0  0
 22 46  1  0  0  0  0
 25 47  1  0  0  0  0
 26 48  1  0  0  0  0
 26 49  1  0  0  0  0
M  CHG  1  25   1
M  END
> <OMEGA_C>
RX3VQL2Lgb4mTLfBCC3BQDBogMCGW5bBKh/FQHiKpb/hDrHBmcnGQEtgQcAdF57Bu4/PQHl9iT+9
C7TBxZmaQDnAgsC2qpDBnsTnQDLniECel7DBEQahQNgZgEAoLLjBD3enQB9ApD7/a6TBl9V+QNLH
CMD9RJrBwsPzQIuDnkDJAbrBZCmvQI0nlkD5UMHBHRCvQA/AgL/Yf6fB8jCmQAoZBcADA6DBUK+3
QBwWsD8sqKrBG4O9QEG7ckC3jq/B4Q5yQJw8SsDXspLB60rIQMzPQEDNIJzBnAKBQPEGXUCfC5rB
+i+xQA2OM0CnwKbBWSCwQPuEbECIr4nB66AUQCBdi8BotobB1srXQLTDpEBmIcLBljmoQBcTUkAY
yJTBufCDQKyIQED64aPB7+I3QPpvfkD2m5XBCv7tQJ59MkDlEJrBg58jQLeiTcCFkI3Bp6HmQG1f
8b7pl77BP3naQL0Sl8Brw5TBImHJQBZfFMAjkLPBETTkQEmDPsCGnKLB+D3dQEc08D9itbjBMVSW
QAtNm8AhrorB36T+QKQ+hEC1OKrB+o+AQLm9aEBEvLfBYjWVQD4+CD+KSJ3B9oNNQExVs795q5vB
UgkKQWRmqkDzxLrBkx2ZQESNm0Dx1MfB9GSRQLQddkDfkIXBvozCQFSIOkBRioXBOV7CQBJdlEDA
oonBdf6oPwPviMA/IoPB3+4YQC3qqMCndovBqhJFQNwKjMBhVIDBojRWQHZENUDvuajBqGcCQJDz
gEBf+5nBIuQ3QE2JiUBWCY7BBmvVQBj9hr6IfLfBiMHAQCMFgcDxj5bBxLTEQHNwp78eV7HBUA7G
QJbjQ8BGep7BnuvPQNLahz9zHbTB4s2aQABBgsBolpDBqD+hQJAzfkBNNrjByG7nQNdeiUBzbLDB
FI+nQOwRmT7nkqTB6Wl/QJwjCMDtQprBGiyvQJ7llUB+QsHBED3zQLiwn0Dhv7nBaM+uQONbg7/w
vqfBktylQBJ4BsDcRKDB6vy3QLWvrT9suarBGoW9QH6ucUC+h6/ByxRzQEpySMBBipLBpEPIQGp4
P0CCGpzBjg6BQKzEXECWKZrBcF2xQDQmMkDFwqbB4MyvQIQUbUAewYnBZsASQOlli8AzKofBCGzX
QPahpUDk68HBUBSoQLKZUUC50ZTBCA+EQPjdPkCU7qPBKBs4QHCAf0B+2pXB0vntQNawMUB3/5nB
Hp8lQDoKSsD4Lo3BEX7mQK1L9L43zb7BNNDZQGIJmMDnC5XBsJLIQAksFcCS8bPBQebiQADqQsBO
PKPBwPndQBHS7j97r7jBas6WQBQ8msBicorBuh2BQNDgZEDv5bfBNTH+QGTuhEBiBKrBxmCVQPOh
AT9zap3BLqlOQKaUsL9qlJvBbEaZQLD1mkDA0sfBI6MJQZtjrEAlZ7rBXgCRQO03d0C4r4XBiRXC
QGBpO0AAg4XB8RzCQO6ZlED+xYnBUrOnP8AhiMBQTIPBft4RQOsSp8D0mYzB9zJEQEIxkMBIBIHB
TYhWQDOGMkC2v6jBU9wCQNVvgUCpRZrBdfc3QJ2XikCdU47BfzTXQPr6674zA7bBnbixQCGhg8At
EpPBxBnKQPtRur8Uxq7BHL3AQAaSSsDDgJrBm3bPQEWiZT/ewLPBA5CHQFLegMDwHo/BsCygQFTI
fkB7O7jBngDoQDESh0D+RrHBpOarQLWuhj42MKPBiiF4QHXBAMA2ppnBcUWsQFbpmEDEAMHBOOPx
QKRNoECORrrB63i0QNici79oVKXBbNylQJPJBsDnuJ3Bhpq5QEu1oj/NQqrBwCe+QHQ8bUBVD7DB
jU1YQKB6P8A3jpLBYhLKQKLSQEBNjJzBRo2CQNzlWEBoOZrBiZayQG7bLkBfCKfBYqqyQGxWcECv
NIrBXTaPP7jODcBVO5XBwlzUQNDgqED35sHB90yqQDfgUUAvH5XBMF6FQPfOO0D0C6TBq1k6QFFi
d0CVnZXBTTvwQLQlN0AbmprBXEUEQPGhP8CKBI/BFUTnQIw9Pb/nVL3BYIjGQG4OncCfZJDBgZfQ
QGy3H8CMcrDBRbLgQLjmT8BXuZ3BLzXaQJUo1D/YRLnBl1x4QCNBmMBmbonBtyKAQKsnZUBGwLfB
ThwAQTtWgEAaWavBCJeaQAhuCD9fB5zBK+FPQExnl7+U9pvBfwiVQNPon0B/J8fBB+cIQa0grUDe
HLvBYySUQLDjeECK9IXB+WXGQIoZQUBr74XBG7zDQC3slkCajIrBuXvzPSoeE8AloJHBkiG3P72Y
lL+pTJXBYmCLP8s9JsA0e53Bkc1YQOcTMEDO1KjB9P8DQAEieEC51pnBg8s6QERPhkCoEY7BDvXH
QJDSCL8n97bBeYKEQKSKisDHc5jB8RW8QDjYwL+BaK/BDiqQQCeJWMDgQKDBqdTEQEJHVT9xcrTB
wTuJQJzmgMCWgY3B1yWhQFtOgkB0HrjBPgzqQE12gUA8mLHBgHOpQKU4hT51yaLBcLylQAka679L
I5LB5wSvQLQvnECZq8DBbJv1QBJzm0CdU7rBqNqsQGi3jr+6O6XBgL+gQA0eCMCdIp3BrI61QABb
nz8ARKrBs8u+QGirakCwOLDBT9CZQP/1McAxPIrB2eXIQBTKQUAJtZzBP5SBQIcIX0AYWprBgwWx
QKFwLkCvIafBOwWzQCbAeUAFjorB4xuuQGMfn7/AHHjBMGTYQKN/qEDqn8HB5K+qQAA0ZUDr3ZXB
XAyEQGMFQECIH6TBhwM3QBohdkDOXZXBB3XuQO+qMkAikZrBAsidQGWUIsCMon7BGYbTQFalVr9I
vL7BFdJvQKc/qcAP3JrBZZu+QIaHI8A9YbHBzXCMQBV+Z8Afo6jBKxnOQE1+yT8lSrrB7hWAQB1E
mMCgkIfBpRaAQPDkcEAjmrfBaggBQSeybUAy+qvBJmCdQC3XDz9FD5vB2s2yQL8aYr9gu4/BhhuY
QFJ0pkCKm8bBdUgLQf00pUBrObvBtvuVQGaBikBZ7obBjA+8QKMRP0AgQIbBjEDNQEVBlEDbCIrB
loOvQC3imL8si2bBjmXOQAG/jL8hvH7BcsmYQHO+575cH37B0bpVQOixNUAh46jBFcj+P7OIb0CP
PJnBmuI3QHmqhkBW6Y3BKO/JQEqZ4r5nZ7fBn4PCQP/Mc8C6jZDBLTfCQDkyuL+fya/BB82tQK0z
OsCwjpfBO53FQJWJaD/ZlbTBAoHvQMO9b8DGEI/BCSKhQKj/fEDIQ7jBP0XoQDFxh0Bi97DBFFqv
QE7dhD59nKLBPxvzQF6N8L+cWJvBGN2tQIgJl0APJsHBGqryQOYPoEBcCbrBILu2QKLrir/tRqXB
ur/GQO4n+r/H+JzBuZy3QHpHoz+ELqrBunm+QIVebUAZ4q/BXQEEQYO+MMANgJTBoefJQE+2QUAR
W5zBnTiCQJUDWkACI5rBPmWyQMddL0Ay16bB1EmyQBzkdECfKIrBtekjQSTsOsAGw4nB89DVQEZy
p0AZ5sHBFR6qQGCSVUBqC5XBxVOFQDXxPEAU8aPBdZA4QN39dUA7lJXBbwHwQJe5N0BlWprBaxca
QZoKKcAu9JPBUDTTQJqRNr/ecL/BZQCwQJOekcCSTYzBnRLFQDa4HsDZ+bHBtpaLQHYJPcBFupjB
nf/MQB+G1j86YLrBoCH/QD1VjsDAyYnB6xOBQHlgY0DP2bfB7QYAQf5ngUDN4arBvVyjQKw6BD/p
xZrBpLACQRuxj78xfJ/BcTyXQBfonEAog8fBbjcJQcZgrUCHvLrB56iTQKKvf0CBCYbBoBjFQHwX
RUBWuoXBOT7EQDmumEATjorBDlc1QU2KMsAdaIrBp44dQU2sDsAps4PBJFUgQeY0fcADZofBvPVY
QK+TMUBPx6jBmFcCQJGtdEBm05nBews4QKq+hUBNC47BXQTJQCoQtr4dX7jBrpgJQc1aJsBllZXB
kGrGQAdKr79hurDBSrP9QA7C278eZpzBp+fCQB66ej9tRrXBzgr8QG2WZ8DPaZDBSsufQJSbgEB+
0rfBoBroQKS5hUCPAbHB1aSzQHt9ij7eCaPB2N+5QKaaNsBQ2JjBGP+sQDz1l0CM2sDBEOvyQNpi
nUC0MbrB2R++QPdwhL96B6bBM2XRQPz+7r+PFp7BCry3QNs3pz+qi6rBIpO9QJXWbkCLoK/BNk7P
QIWBb8Dw25HBUjHJQM10QECWN5zBV9mBQCGXWkDsBprBj4+xQKbBL0AfxKbBg6exQIiVcEBS5onB
akOMQCjDmcDWbY3BMrvVQNAHpkCg5cHBy2KpQC2AUkDR1pTBbHaEQO1PO0AkvqPBuoo5QKJLfECO
oZXBpEbvQOwYNkCtN5rBc1W6QIC+l8ARSYzBsrLPQLzkGL8MoMDBOJwaQYf3H8AaTZTBtL7KQCq1
GcDyBrPBfIAHQSJYbL8OWqDBn7fGQDRY4j8kGbvBV1AGQeAWisC7RovB2S5+QOeDa0CpJrfBSQ8A
QYsefUCJDqvBQoKoQK4B9j6eCJvB+MiXQFX+O8CeGJrBuxyWQDbQnkDlGMfBMaQJQeDsqEBEH7vB
RBKTQLwVekAxtYXBmd3EQDSrQEA6mYXBLTvDQBnElkD1MorBaGd/QIBttMBtnojB6xJ8QAwZd8C9
pYrBcgyEQJvVnsA/5JXBxd1WQHpcLUCJaajBaJoDQF/EfUDc7pnBLv05QHyRiUB7KI7BXtnJQG/j
777a37bBg/O9QJprh8A4EpXBBevBQM2at7+9+67B5w2vQLpMU8DcnpzB4RHFQIR0ZT9XebTBoHzZ
QG5ZdMCexozBCSzpQBWehEBbbrHBzqagQNUqgUBRK7jBeXKtQATwpD41e6LBLg7VQL0vw7/WHJPB
ORj0QKctnUAEd7rB5tutQBmzmUBXAcHBYjy1QNH4g799p6TBgjC7QMO++b+Vu5vBAou2QLmopj8e
NqrBXnW+QJS2bUDAE7DBCPzkQEx/HcDSpYvBJ6XJQIRVQ0ADmZzBAxSCQAfBXEAoM5rBAbSxQG0T
MUDdBKfBUkiyQOP4bUClEIrBegQBQd56OL/8QoDBBMLWQFpcp0DeA8LBQeWqQGCGYUCTkJXBRtSE
QDEnQECRCaTBLag3QAJOckD2RJXB/P3uQAN1MkBjbJrB13gAQbhqB8Aic4PBiKDTQHIKRr88y77B
9Um0QFWHqMB+n5XBS4TFQDn3HsDK0LDBvmuaQIu4Z8CFEKPBZHrMQNPk0T/3dbrB++zlQEeJkcBJ
OIfB0Z4AQbK5eECYlavBx95/QJySbEBzk7fB6GOgQEH+HD8A1JrBjrDcQD9v9L4LOpLBUlMKQUkp
qEA9ZbvBN9iWQPPRoUBuH8fBJOmUQKszg0AlTIbBLB27QOaDMEBKYobBDF7MQDgojkBY5ojBo6sM
QfG/Fr/QgHPBSbwFQQHRzr2qI4fBnxziQN0c1L529XrBwJlXQJj6NUBq26jBOXQAQEFbbECTP5nB
8603QCHmg0Dnu43BXmu/QCgmlL4bCLnBwVz3QEKrUMD8RJLB+OS6QPgIrL9437HBkbXWQC2eHsBh
9ZbBEe3AQK6Kgj9lOLXBL7YOQSbEY8Do/JfBHsPoQNVehkBnFLHBYfOfQBe6gEAOhLfBjFm6QEg8
YD5L3aLBrV4BQRZGE8A2DKfB8d3yQNc9nUBUdbrBXoesQJkKl0DhxsDBKh+/QCBojL9L2KbBOJzc
QCwoAMBtbqHBHRS7QOvfpj8RLqrBW3C+QIXJb0Apbq/BLH4RQfBMRcD/l6LB4nbKQEa+RUB+B5zB
S6iCQLofXkC3MJrBX6+zQAT0L0A7cabB9NaxQFDxgEDRXYrBk44zQZydhsDBGqXBdS7VQJHzpEBF
G8LBcTCrQHLQaUAQmJXBJ1uGQKJ3OEB2hKPBLbQ3QN6ldUAHr5XBIBvwQGyUOUCntJnBojAjQaSF
VMAmGanB7MHBQP6c9764gsHBQE/zQGizaMBsO4rB0za0QBHTFcCYvrTBR8+5QLwSEMA/lZLBSqDG
QDNa6j+6vrrBUhsbQaXJhMBXQpTBCpsAQWHjf0A0MKvBH2B+QP7EbEBnlLbBDDm2QJ0xyj4KZ5rB
DnkDQY2P9L++CK/BhYsJQSfpqEDUkrvBCzOVQGMznUBn9sbBaxiUQHN/jkD0GYfB0uG6QO/fSECL
uYXBuYnLQDjpmEBl24nB+WlAQdWAicAMEqvBfiY6QVA9c8DBnp3BXpYsQWpapsD9kqPBr6VbQOpn
JEAWAKjBxxIBQEsIakALl5nBAV42QBIdiUAQh47B

> <OMEGA_E>
qMSEPsAEhj7QClw+gIfHPsD7Iz/MUCI/nE4fPzLlQz8=

> <OMEGA_NBR>
     75786

$$$$
50161554
  -OEChem-04172616093D

 43 46  0     1  0  0  0  0  0999 V2000
    6.6571   -0.5465  -22.6647 C   0  0  0  0  0  0  0  0  0  0  0  0
    6.1683   -1.5173  -21.7723 C   0  0  0  0  0  0  0  0  0  0  0  0
    6.4691    0.8221  -22.3948 C   0  0  0  0  0  0  0  0  0  0  0  0
    7.2650    4.1783  -22.1509 C   0  0  0  0  0  0  0  0  0  0  0  0
    5.0239    3.9375  -23.0291 C   0  0  0  0  0  0  0  0  0  0  0  0
    5.2597    0.2469  -20.3577 C   0  0  0  0  0  0  0  0  0  0  0  0
    7.5730    4.9794  -23.2676 C   0  0  0  0  0  0  0  0  0  0  0  0
    5.4002    4.7487  -24.1154 C   0  0  0  0  0  0  0  0  0  0  0  0
    3.9527   -3.9004  -17.8744 C   0  0  0  0  0  0  0  0  0  0  0  0
    5.2536   -4.0432  -18.4052 C   0  0  0  0  0  0  0  0  0  0  0  0
    3.6420   -1.9765  -19.1420 C   0  0  0  0  0  0  0  0  0  0  0  0
    5.4611   -1.1197  -20.6196 C   0  0  0  0  0  0  0  0  0  0  0  0
    5.7645    1.2319  -21.2336 C   0  0  0  0  0  0  0  0  0  0  0  0
    5.9581    3.6601  -22.0055 C   0  0  0  0  0  0  0  0  0  0  0  0
    4.9444   -2.1193  -19.6782 C   0  0  0  0  0  0  0  0  0  0  0  0
    6.3088    3.0037  -19.5525 C   0  0  0  0  0  0  0  0  0  0  0  0
    4.0682    3.3812  -19.2766 C   0  0  0  0  0  0  0  0  0  0  0  0
    5.5811    2.7071  -20.8619 C   0  0  2  0  0  0  0  0  0  0  0  0
    5.5599    3.7524  -17.2635 C   0  0  0  0  0  0  0  0  0  0  0  0
    6.6504    5.2555  -24.2189 N   0  0  0  0  0  0  0  0  0  0  0  0
    3.1626   -2.8732  -18.2559 N   0  0  0  0  0  0  0  0  0  0  0  0
    5.7272   -3.1576  -19.3071 N   0  0  0  0  0  0  0  0  0  0  0  0
    5.3109    3.2928  -18.6357 N   0  0  0  0  0  0  0  0  0  0  0  0
    4.1696    2.9425  -20.5077 N   0  3  0  0  0  0  0  0  0  0  0  0
    2.8826    3.8137  -18.7029 N   0  0  0  0  0  0  0  0  0  0  0  0
    7.4984    2.8450  -19.2999 O   0  0  0  0  0  0  0  0  0  0  0  0
    7.1783   -0.8520  -23.5599 H   0  0  0  0  0  0  0  0  0  0  0  0
    6.3346   -2.5660  -21.9699 H   0  0  0  0  0  0  0  0  0  0  0  0
    6.8629    1.5634  -23.0744 H   0  0  0  0  0  0  0  0  0  0  0  0
    8.0217    3.9616  -21.4114 H   0  0  0  0  0  0  0  0  0  0  0  0
    4.0257    3.5285  -22.9777 H   0  0  0  0  0  0  0  0  0  0  0  0
    4.7124    0.5465  -19.4762 H   0  0  0  0  0  0  0  0  0  0  0  0
    8.5697    5.3832  -23.3674 H   0  0  0  0  0  0  0  0  0  0  0  0
    4.6748    4.9719  -24.8838 H   0  0  0  0  0  0  0  0  0  0  0  0
    3.5860   -4.6192  -17.1567 H   0  0  0  0  0  0  0  0  0  0  0  0
    5.8744   -4.8677  -18.0870 H   0  0  0  0  0  0  0  0  0  0  0  0
    3.0269   -1.1421  -19.4451 H   0  0  0  0  0  0  0  0  0  0  0  0
    4.6003    3.9085  -16.7488 H   0  0  0  0  0  0  0  0  0  0  0  0
    6.1462    2.9942  -16.7237 H   0  0  0  0  0  0  0  0  0  0  0  0
    6.1199    4.6988  -17.2898 H   0  0  0  0  0  0  0  0  0  0  0  0
    3.3958    2.7886  -21.1222 H   0  0  0  0  0  0  0  0  0  0  0  0
    2.0362    3.8022  -19.2354 H   0  0  0  0  0  0  0  0  0  0  0  0
    2.8737    4.1370  -17.7567 H   0  0  0  0  0  0  0  0  0  0  0  0
  1  2  1  0  0  0  0
  1  3  2  0  0  0  0
  2 12  2  0  0  0  0
  3 13  1  0  0  0  0
  4  7  2  0  0  0  0
  4 14  1  0  0  0  0
  5  8  1  0  0  0  0
  5 14  2  0  0  0  0
  6 12  1  0  0  0  0
  6 13  2  0  0  0  0
  7 20  1  0  0  0  0
  8 20  2  0  0  0  0
  9 10  2  0  0  0  0
  9 21  1  0  0  0  0
 10 22  1  0  0  0  0
 11 15  1  0  0  0  0
 11 21  2  0  0  0  0
 12 15  1  0  0  0  0
 13 18  1  0  0  0  0
 14 18  1  0  0  0  0
 15 22  2  0  0  0  0
 16 18  1  0  0  0  0
 16 23  1  0  0  0  0
 16 26  2  0  0  0  0
 17 23  1  0  0  0  0
 17 24  2  0  0  0  0
 17 25  1  0  0  0  0
 18 24  1  0  0  0  0
 19 23  1  0  0  0  0
  1 27  1  0  0  0  0
  2 28  1  0  0  0  0
  3 29  1  0  0  0  0
  4 30  1  0  0  0  0
  5 31  1  0  0  0  0
  6 32  1  0  0  0  0
  7 33  1  0  0  0  0
  8 34  1  0  0  0  0
  9 35  1  0  0  0  0
 10 36  1  0  0  0  0
 11 37  1  0  0  0  0
 19 38  1  0  0  0  0
 19 39  1  0  0  0  0
 19 40  1  0  0  0  0
 24 41  1  0  0  0  0
 25 42  1  0  0  0  0
 25 43  1  0  0  0  0
M  CHG  1  24   1
M  END
> <OMEGA_C>
sAbVQIXoC79KUbXB/GLFQMk3wr/CLa7B9ALPQMF3Uj+AKLPB+XroQKS0hUARNbHBCMSgQDj/e0CK
O7jBY0+oQHTXfD6l3KLBU1byQP5Wn0AJJLrBH86sQMD1l0Be7MDBSvh8QGmfecDa/o7BSh2oQDBi
gcDuPZPB3xZpQO79/L++IpnBT8GuQPJSj7/a9KTBjna4QGitnT9n3qnBnai+QF8/akBHC7DB2Die
QPWhB8D7bJ3BrOHJQGI8QEB2a5zBVy6CQLdlWEBmNprBIpiyQPtALUAg5abBZeqxQBQncECOG4rB
d9DUQFYtqEBSwMHBO2dKQPHhN8AUDJLBUUW3QDQWSsDtdJrB/fKpQNK8UkDoFZXBkW2FQJdRPEDB
D6TBuns4QNoSdECbn5XBMfPvQGIUNkA7ZprBSrTlQK8dWr+2erzB9rTKQFw5JMBtwq/BBZ3bQFMc
yD9kmLjBuVgAQTuLfUB5SqvBVtKAQMjSYUBS0rfB0cuWQEbmCz9Bz5vBix0JQT1DrEBc8LrBqpeV
QAQan0D8EcfBe4BlQInQk8DcQInBJvu7QAvEm8A9spDB+7hBQMUxkr+Uj5vB6zWTQEclekBx/YXB
7q3EQGKhP0AVyoXBZtbDQE1clkCHUYrBYVVZQLp4MkAy+qjBdFACQPVXc0AL4pnBg+o3QFxihEC3
DY7BDPXUQGIPCr9aV7XBlG3FQDhGwb81MK7BkN3OQAI9VD+/MLPBcMOgQNs8fED/SrjBnmToQJ/e
hUB2NbHBQ16oQM4vgj7v26LBk/OsQFX9l0Ax/cDBoWjyQF5hn0A1J7rBXvN9QCVcecDM9o7BVq+o
QB7/gMCzLZPB9VhpQMRg/b+9K5nBLtyuQA1rjr9f9KTBl2C4QImNnj/346nBnI2+QESUakBgFbDB
eHKeQNNEB8Bca53BF/DJQAAwQUAAhpzBOk+CQK0gW0D6S5rBgXSyQC6xLUA876bBcA+yQI/8bUBK
GorBAADVQFgkqEAfzMHB8PBKQJwbOMDHEJLBmLa3QLlCScBuZ5rBGPCqQN+IX0C9kpXB+lyFQKXv
PEA/DqTBPRU4QJyfckBcg5XBno3vQJfnMkAGXZrB/ZvlQEg8WL/VgbzBTcjKQPG+I8AdxK/Bi1zb
QKIByT9bpLjBB8yAQJsoYkCb5bfBBD8AQS4PfkC7QavBoPGWQNHGDT/7ypvBi9KVQEIdn0AqKMfB
mikJQfRDrEC07rrBcLdmQImuk8DqNInBV7e8QMMzm8CEmZDBrJpBQBxnk7/6o5vBjXSUQLsPg0Cj
a4bBu0q7QHpiMUDKQ4bBDsjLQPaijkBWB4nBDPRYQCzGMUAk46jBvxoBQPPxbEDji5nBjtw3QLSf
hECbB47BRevTQNxbDr/hJ7XBwPHDQHKvwr9BB67BUx3OQMYOUD9iBbPBz9ugQLNXekDbWbjBJTbo
QBt1hUDmI7HBoZCmQBKvfj7EzqLBIUmtQFCilkAiGsHBBnXyQJeXnkBhIrrBoruCQDENf8Av0Y7B
NupPQIuNOsAc55HBzzi4QEJETMBHFJrB3ECtQDo0j7+C0qTBdzK3QDNLnT9qzqnB5V++QMeaaUB/
DLDB3YadQPBtB8C8KZ3BOJbJQNiwP0ALbpzB0SOCQHFuWkDIKJrBJvOxQDg6LUCx3KbBnm6yQOxL
cUBsIYrBrU3VQFbjpkCL3sHBiZCqQABYg8D255LBKLFrQJKO/r/m8pjBp/2pQA3/U0DKFpXB7PKE
QEGqPUD8/KPBVBo5QDZld0Cyg5XBDozvQHzMM0DFbZrB2rHkQBLFXb9VSrzBCQvJQD6KJMCema/B
2inbQEN5xj/ja7jBoeeAQNssYEC2+7fBjhEAQTjofUAIH6vBloyUQFx3DT/I2JvBh12WQI1anUC5
WMfBFi0JQTaQq0C24LrBWYJuQKLjlsBFIonBNT4QQNKONcBemY7BD9PXQP8XUsDlf53BSueTQKb0
fEDb/4XBBp7EQHb1P0BOzYXB8RzFQDl3lkDhYIrB2gZYQI0wNEA03KjBm6ICQHMnd0AEt5nBFlc5
QOFDhkCb9o3Bk6vTQEd7Db/lFLXBwtTDQAGPwb9G4q3BNRXOQAB7UT8Q/LLBwjLoQNOOhUDIQbHB
UoGgQJBIe0CmS7jB/E+nQCA2iT7eoKLByCjyQF/HnkCsQbrBS6SsQMQ2l0BQDMHBN0SBQA5jfMAT
pI7B/qhOQGZxNsCfqZHBqyi3QOImTMAm95nBOYytQPMFjb/7oqTBqLG3QN3tnj+1tanB+Fq+QCAj
akA/FbDBcE2dQLLaBcDt+pzBq+zJQEw7QkDKfJzBH2qCQJi5XECPOprB2EGyQKIiLkBF2qbBfFey
QN4IcUAbIorBc7LUQNZOp0D158HBteKoQGIEg8Cly5LBzqdrQBOV9794tZjBLTKrQOTRYkDQm5XB
iU+FQLBEPkDd+KPBXh44QN5ockDtW5XB71jvQEhTMkBOSprB2SvkQJ1fXr9tPbzBgbjIQIgSJMDY
bq/BPOTaQCqgxj9ldbjB+ioAQdDAfUClTavB54iAQEtEYUB+27fBJ9OVQMcKFD8MmpvBiwkJQYqg
q0BUE7vBOXmVQIwnnkBKOMfByKJqQH1OlcBK9IjBhE0PQBnXL8ATT47Bg5jWQNqLU8D9bp3BVhaV
QOyahUBsfobBUXy6QM7uM0DyQ4bBIdHMQBhNj0AeC4nBDLhYQCN1M0Cdy6jBBPgAQC8Va0BEUJnB
ke83QGSwhEBe5I3BvHvSQKbQhL/F07fBCezAQFVa57+DfK/BEwHSQLyWvD6oPbfBdkS/QPjHNkA7
epnBDaCFQKzzeEBSaKPBidGsQOT3cj6sJqbBa7KrQA59U0BP+Y/BXLpoQHiGikCInZnBGuR4QNA5
WcDR04zBvRaOQPQqB8BNL4vBd3uLQFA1T8AaB5/BDmCuQBC7lb9Ih6bB+EO/QFEugz9qXa7BuMar
QK4nSEAidaPBBBmdQN5R+b91cJ3BAZ2qQIrpSECP6rfBClrwQJQhdkCLELfBPHO/QPw6JEAr3q3B
dbnDQH7plED8zcbBHBeHQFbpgEB+J5DBdqJ2QKYHfMBIuJbBAPmdQHYltL+qfJPBNf3IQJ7afkBg
Z7zBsdzrQISsQ0BdtK7B9VQLQVlpjkArALrB+8eGQOwMOUDZaLvBF2DgQP12w7+Ws77BdJ/BQJGw
OMDk7q/BhAvgQClrcz8Rnb3BSALdQOqtE0BGJJnBOaxrQKtGhEB216rBkEudQENTOT9BfJ/B7Tu6
QPQsREBpX4jBh+UuQOtznUCpp5nBInJfQGKOfMD0HYbBjeKOQOqK2L9tOoPBs/iKQJeUasDa9abB
JjzgQCViqEAGhcjB1K2/QBB3eUCSHs3Bm1CnQGmrqUAEjMbB6q4BQYKtNEAVnKnBbYgYQRp9iUCw
prXBI+gLQTY/oUAtdsDB1AjIQFozhr9lyrfBC0u4QMqR4r8G9q7Bf+jKQBc/tj7pVrfBsyOEQMfX
QUCrb6DBmQjKQDt3e0CuOJzBao2xQAbPnT6V56TBQmRqQJGgYkA3n5bBeLS4QATfjUDAoZLBMxN4
QPMmSsBJBIvB1gCfQEmeEcBy5InB3F5zQGJyLcDISJ3BkBStQNxzi7+dfaXBicS+QDgUhz++9q3B
Z4evQA1JTUDzV6PBDqycQDhE6b/tKZzB2SGqQDjUTEDzY7fBJC7xQO3McUC6DrjBBzjBQJIIJkAl
x63BQ1LBQModlEDFCcfBRTmPQIlnh0Cm84/BOXRTQOj8VsAfr5TBPZOuQA5Lzr/Yc5LBLZrIQM3r
fUCTqrzBbhvuQN2EP0Bwpq/B/qwLQRegikBaqbvBL5CEQGQaQ0CR97nBcO7RQF9Qyb9n7b7Bx8+0
QEXyNcCZcK/BFnfWQKx+Zz8RM77B8SldQKokIEDjtqXBH1frQD72gkDhHp7BPdmqQBJoUT9ueZ3B
THgoQK1HWEB5XpTBwAXNQPTbn0AOSI3BoZ1fQFhya8ADF4TBmmWtQB9KCMDZH4LBlERXQBitN8De
EqXB92neQG1wpUCTccnBKIS5QCHGd0C3Hc3Bl5WmQDTSqkBZTcbBoWwDQSAJLUAXIqvBEFgZQbZ8
hEDby7fBdrwLQXqDnUCDHsLB

> <OMEGA_E>
oLTfPVAj9j2wK4k+KEiKPggujT/TZIw/

> <OMEGA_NBR>
     80640

$$$$
50161555
  -OEChem-04172616093D

 42 45  0     1  0  0  0  0  0999 V2000
    6.6440   -0.6062  -22.5582 C   0  0  0  0  0  0  0  0  0  0  0  0
    6.0916   -1.5525  -21.6747 C   0  0  0  0  0  0  0  0  0  0  0  0
    6.4576    0.7706  -22.3297 C   0  0  0  0  0  0  0  0  0  0  0  0
    5.0409    3.9176  -23.0520 C   0  0  0  0  0  0  0  0  0  0  0  0
    7.2647    4.1651  -22.1344 C   0  0  0  0  0  0  0  0  0  0  0  0
    5.4028   -3.3031  -19.1408 C   0  0  0  0  0  0  0  0  0  0  0  0
    5.1055    0.2501  -20.3663 C   0  0  0  0  0  0  0  0  0  0  0  0
    5.4306    4.7409  -24.1251 C   0  0  0  0  0  0  0  0  0  0  0  0
    7.5869    4.9774  -23.2392 C   0  0  0  0  0  0  0  0  0  0  0  0
    4.5373   -3.8809  -18.2493 C   0  0  0  0  0  0  0  0  0  0  0  0
    3.5245   -2.0337  -19.0207 C   0  0  0  0  0  0  0  0  0  0  0  0
    5.3124   -1.1239  -20.5811 C   0  0  0  0  0  0  0  0  0  0  0  0
    4.7496   -2.0975  -19.6363 C   0  0  0  0  0  0  0  0  0  0  0  0
    5.6889    1.2123  -21.2233 C   0  0  0  0  0  0  0  0  0  0  0  0
    5.9582    3.6372  -22.0147 C   0  0  0  0  0  0  0  0  0  0  0  0
    6.2847    2.9786  -19.5560 C   0  0  0  0  0  0  0  0  0  0  0  0
    4.0627    3.4394  -19.2950 C   0  0  0  0  0  0  0  0  0  0  0  0
    5.5525    2.6970  -20.8670 C   0  0  2  0  0  0  0  0  0  0  0  0
    5.5558    3.7782  -17.2827 C   0  0  0  0  0  0  0  0  0  0  0  0
    6.6792    5.2561  -24.2037 N   0  0  0  0  0  0  0  0  0  0  0  0
    5.2923    3.2893  -18.6414 N   0  0  0  0  0  0  0  0  0  0  0  0
    4.1490    2.9786  -20.5189 N   0  3  0  0  0  0  0  0  0  0  0  0
    2.9033    3.9589  -18.7413 N   0  0  0  0  0  0  0  0  0  0  0  0
    7.4746    2.8200  -19.3042 O   0  0  0  0  0  0  0  0  0  0  0  0
    3.3992   -3.1228  -18.2039 O   0  0  0  0  0  0  0  0  0  0  0  0
    7.2128   -0.9373  -23.4145 H   0  0  0  0  0  0  0  0  0  0  0  0
    6.2648   -2.6065  -21.8347 H   0  0  0  0  0  0  0  0  0  0  0  0
    6.9016    1.4923  -22.9992 H   0  0  0  0  0  0  0  0  0  0  0  0
    4.0446    3.5019  -23.0217 H   0  0  0  0  0  0  0  0  0  0  0  0
    8.0102    3.9469  -21.3841 H   0  0  0  0  0  0  0  0  0  0  0  0
    6.3791   -3.6696  -19.4218 H   0  0  0  0  0  0  0  0  0  0  0  0
    4.4941    0.5746  -19.5373 H   0  0  0  0  0  0  0  0  0  0  0  0
    4.7167    4.9664  -24.9035 H   0  0  0  0  0  0  0  0  0  0  0  0
    8.5827    5.3879  -23.3186 H   0  0  0  0  0  0  0  0  0  0  0  0
    4.7218   -4.7801  -17.6802 H   0  0  0  0  0  0  0  0  0  0  0  0
    2.7867   -1.2570  -19.1578 H   0  0  0  0  0  0  0  0  0  0  0  0
    4.6017    3.9488  -16.7624 H   0  0  0  0  0  0  0  0  0  0  0  0
    6.1451    3.0304  -16.7319 H   0  0  0  0  0  0  0  0  0  0  0  0
    6.1183    4.7220  -17.3355 H   0  0  0  0  0  0  0  0  0  0  0  0
    3.3709    2.8378  -21.1310 H   0  0  0  0  0  0  0  0  0  0  0  0
    2.0641    3.9981  -19.2837 H   0  0  0  0  0  0  0  0  0  0  0  0
    2.9058    4.2944  -17.7992 H   0  0  0  0  0  0  0  0  0  0  0  0
  1  2  1  0  0  0  0
  1  3  2  0  0  0  0
  2 12  2  0  0  0  0
  3 14  1  0  0  0  0
  4  8  2  0  0  0  0
  4 15  1  0  0  0  0
  5  9  1  0  0  0  0
  5 15  2  0  0  0  0
  6 10  2  0  0  0  0
  6 13  1  0  0  0  0
  7 12  1  0  0  0  0
  7 14  2  0  0  0  0
  8 20  1  0  0  0  0
  9 20  2  0  0  0  0
 10 25  1  0  0  0  0
 11 13  2  0  0  0  0
 11 25  1  0  0  0  0
 12 13  1  0  0  0  0
 14 18  1  0  0  0  0
 15 18  1  0  0  0  0
 16 18  1  0  0  0  0
 16 21  1  0  0  0  0
 16 24  2  0  0  0  0
 17 21  1  0  0  0  0
 17 22  2  0  0  0  0
 17 23  1  0  0  0  0
 18 22  1  0  0  0  0
 19 21  1  0  0  0  0
  1 26  1  0  0  0  0
  2 27  1  0  0  0  0
  3 28  1  0  0  0  0
  4 29  1  0  0  0  0
  5 30  1  0  0  0  0
  6 31  1  0  0  0  0
  7 32  1  0  0  0  0
  8 33  1  0  0  0  0
  9 34  1  0  0  0  0
 10 35  1  0  0  0  0
 11 36  1  0  0  0  0
 19 37  1  0  0  0  0
 19 38  1  0  0  0  0
 19 39  1  0  0  0  0
 22 40  1  0  0  0  0
 23 41  1  0  0  0  0
 23 42  1  0  0  0  0
M  CHG  1  22   1
M  END
> <OMEGA_C>
e5vUQOktG784d7TBxe7CQKC4xr/bZa3BlqTOQMBDRT8ko7LB706hQBO6ekCOarjBj3joQCdIhUBW
E7HBg+OsQKBlU8BlIJnBbGCjQAUKgD4v7qLBgcetQFC1l0A5AMHBRcjyQOdGn0Dl6bnBVDGRQJRg
eMB6/pHBEJFhQJ8nAsBSKpjB7P6pQEbbj78bpqTBD/2XQAI+BsA8F53BOQu2QNgtmz9ayanBq6m+
QPrHaEAFHrDBqBzJQKOhPkCkcpzBlwGCQIkfXEAdXJrBAK6xQEybLECu76bBxsixQLLOcUD0QorB
RLzVQFoyqEAXocHBUVqpQBeDUkCmIZXB7sSEQEGhPkCxJqTBVM85QPldfUAa7pXB6S/vQL16NEDp
bprBMoxZQGHbR8CNoZHBPM/mQFHxb7/hULvBTXnIQHTQJsBira7B1NncQD8Fvz9g/rfBF22BQMIe
YECDLLjB7ykAQWeZfECrEqvBSSHMQOnZasDcX5vBqc+PQDgWEz9ZTJzBau+WQAbtnkBiOsfB7lIJ
QXRprEBzjLrBuRiXQKP2mMAicY3BdVkyQATkoL9FQ5nBS0GTQFG5fEBfGYbBfqTEQPnxQUDV2oXB
YsnDQNEal0AEr4rBPLxXQI2eNUAyDKnBshoEQFbhf0AaRZrBPPk5QLhriUDXZI7Bs5zTQJBNGb+p
qrTBGG7CQCgBxr+Bia3B3qTNQAgERz970LLBL4LoQLNjhUAA/rDBqZGhQA0ue0DlerjBGfysQFjw
U8DjR5nB/VejQKjPgT7i86LBQy/zQAxPn0DR0LnB6WauQMfYl0BjDMHB5YqRQPqseMDeEJLBe71i
QAmEAcB9BpjBMPWpQEtpj7/VsqTByD2YQP4iBsBHG53BS421QCbTmz9w3qnBLKG+QAAqaUAUH7DB
INbIQA5RPkB5f5zBBsCBQBG2XEBXYJrB8FGxQGbqLEAO+6bB8tWxQF7ecUBxSYrBRWrWQFZBqEAE
mMHBfEGpQA2rU0A8M5XBB3WEQCiBP0CtL6TB3QY5QIWhfEAV3JXBTr/uQJQeMkDAd5rBytlaQI1f
R8B/hJHBcXDlQNCkbb9TlbvByf3HQIdsJsBV1q7BAXbbQNkKwD99ObjBWxEAQbLLfEAL76rBr6OB
QGHFYED3S7jBNPTLQE/xa8BHq5vB6SGQQKWNEz9DQJzBMI0JQWZcrEB0Y7rBesyXQMsPn0CZVMfB
omqXQC1LmcBolY3Bhd4zQGCjnr9iAJnBulyTQO9QfkCRKobBeN/DQL2xQEAd5IXBrLbEQPqclkAP
oIrBBxNXQO4EN0BwF6nBLwIDQN1XfkAIJZrBDlI5QAD5iEAFUY7BE/LQQCgfFr/lM7XBKfzBQKEw
xr/96q3BySLLQDBPSD8EHLPBnbygQOCtfEBWPrjBc3foQJZAhECAJLHBF75tQHY4DMCTjpbBaFWl
QLY0ZT52lqLBWIKtQHRgmEDq3cDBVQjzQPoQnkC3/7nBl+pvQPywVcDHjZDBgNW0QMSyUsCOB5rB
cxysQFv8kr/HlqTBjFieQJaGCsDIypzBxnC1QChAmj/7vKnB9kG+QMbkaEAUC7DBVPnIQHbZPkCH
c5zBYe+BQLyIXUC3SZrBlSuxQDBcLEAR3abBrYiyQLZ9dkB9YIrBNtzVQGDLp0DsnsHBJqapQBYK
VkCjLJXB61mEQH5APkBMAKTBZI85QFYmfkC5zpXBWfPuQKr6MkCPd5rBZ8KdQG7LfsA5kJLBSPfg
QGBWZr+zb7zBMELHQLdEJsAueK/BpETXQEcmwj/yq7jBeH6AQBTzY0Dn5bfBiDkAQdMjeUC3OavB
EWg7QNK2ub+AppbBbcKTQL2vBz8kkJvBzI+WQAw5oEC6BcfBlpgJQQ9jqkDCuLrBAmw+QFJca8BR
KovBwo7TQBBuZcD7N53BmS2UQE0IgkDvQYbBUJLEQO8fRkDi14XBgYXFQLvMmEBz8IrB34NWQDT6
M0Dky6jBFEUDQMy8fkAOC5rBLT46QKiLikDyVo7BAZfRQA/cFb/hHLXB6i7CQPYJxr91463BqpnL
QHlwSD8LC7PBz1foQJ2HhEBiELHBEeSgQEElfED7TrjBxX5tQK2NDcApl5bB3FakQHk5ZD6Tu6LB
PQTzQKNbnkCk6LnBqMKtQMIlmECC6sDBTU1xQNGYVsDfg5DBaYm1QI9dUcBt9pnBdperQOr8kr/c
qaTB+DeeQEB/CsAF0pzBFgy1QGoumj/9y6nBCTa+QE/aaEDdC7DBccjIQP4fPkAtdJzBDtmBQMBa
XUDoSZrBsPqwQHdCLEDS4qbB0m6yQHEodUAAXIrBAQfWQJHXp0Dql8HBbHSpQIC8VEASJ5XBTDWE
QJSRPkBDB6TBObQ5QImcfkAAzZXBpcnuQCOGMkCHeprBBe2eQAAUfsC6eJLBwhbiQHX9Zb+gR7zB
QarHQOIsJsAMaK/B+z/YQL1Kwj8Vh7jBPxcAQVMfekD0F6vB+7iAQKP7YkDeBbjB2hs6QAauvr/2
u5bB4/SRQPMsBz/s1ZvBoI4JQVDkqkBckrrBz/WWQMjLn0ABH8fBv0FAQBkRbcAYHYvB5YXUQFPM
YsCVG53BKhyUQIohgUCIM4bBUrjEQN75RECQ24XBXTXFQPVDmEBk7orBaDhWQAPiNEBi16jBa4ID
QGgOgEBUDZrBtYQ6QDKNikDQT47B11SZQEB3Yr+ZeLHBzSfAQEc5xr+WVa/BiLKUQEmJ9j5w9a7B
5MPoQMu1YkBBk7TBb5OhQLCzj0CILLXBkAEKQRsFOsBQ26bBKjHeQHAtCD/hhKjBQjj0QNWmjECO
Fr3BI0KvQPEMqkBkp73BB5QfQVjyQsBsMKXBNcwZQVo+X7/EZKjBkfLiQGY7Vb9C+arBOCwGQU7A
vr8j6ajBCsS2QGv8mD9rGqrBqLG+QJROZUBWcLDBKe7JQJNvQ0CWzJzB/TGCQObOV0Bc+ZnB+H2x
QDJrK0AJCqfBlWi0QJ17e0Bfo4rBuMjXQBBNqEAWdMHBqumqQCdJV0CEQZXBNouEQHK0OkCd0KPB
n684QG1UcUDCFZXBUrzwQLRXR0DOYJvBSvMoQdyX6L93PKbBBRB+QCJOtr/YC7XB00nDQByZJsCR
B7HBOApuQL7yfD/zvbDByAIAQdUhN0CNO7HBJwqBQC6pkUBfTbLBJFD8QERPbMDxrqbBZiH5QNeG
ij/VXqXB8TcKQUx7i0CIM8DB4tyYQJYxwEApNsHBMsUnQXkFfsBQXKPBC7ocQeaWOz65ganBxFyW
QN+hgkBHOIbBfwvJQHUKT0CRK4bBVOzEQE+XnED6l4vB5G9WQAE3MECshqjBQWkBQGMWbkDXGJnB
6X05QKd3g0Anjo3B+l2ZQKJiZL+VnrHBqVjAQJAHx7++n6/BYkiUQBey6z7Vt67BcB7OQIF3QkCG
Q7rBlCC9QOLOnkCiUK/B/sIOQebELMBZpq3BCmDdQHVF/D6m96fBeqfZQL0ce0BejcLBsDjJQIsw
uUBy8bfBdAgiQUK/PMANzKjBdB4UQcMylL+HmaDBI2/iQHR3XL9LuKrB2rAFQc/Kw782W6jBRSS2
QOGwlD+JqanBTn6/QJDLY0BfYLDBXyLKQNQpQkApxJzB7WGCQDeeV0CzEJrBttCxQOcuKkAr/6bB
N3S0QNViekCNo4rB3x/XQEeHqEAXUsHB8wOrQIo2VkBQQ5XBtQ+FQAeoPUDgDqTByu44QD03cEAH
IZXBbPbwQKpRR0Cwc5vBTwElQf5oAcBw5KDBrJh+QJcQtr+cYrXBqiHEQJviJcDl17HBleJsQO4g
dz+RWrDBf2nQQGNK/D/qcLvBehiyQCnjrEAP7KfB2K0HQVClUMBdIbTB/e/3QOzpgz9zf6TBw8jk
QAVUYUD2EcrBtFvHQDWE20BYDrfBF/8sQZ6Lb8C13arB0WASQRk/pb6qMJvBwl+WQCA0gkBLPobB
gvTIQB/PTUAsJ4bBBxjFQMD6m0D4lYvB8DFYQHneN0C2AqnBTOsBQLbObkCPNpnBDmU5QNaogUBy
fo3B

> <OMEGA_E>
INKSPcA/nD3Iu3Y+KPR3PgBFUj9uH1o/

> <OMEGA_NBR>
     85418

$$$$
50161565
  -OEChem-04172616093D

 45 48  0     1  0  0  0  0  0999 V2000
    6.6858   -0.5233  -22.6668 C   0  0  0  0  0  0  0  0  0  0  0  0
    6.1974   -1.4939  -21.7739 C   0  0  0  0  0  0  0  0  0  0  0  0
    6.4921    0.8459  -22.4003 C   0  0  0  0  0  0  0  0  0  0  0  0
    7.2583    4.2105  -22.1605 C   0  0  0  0  0  0  0  0  0  0  0  0
    5.0219    3.9383  -23.0417 C   0  0  0  0  0  0  0  0  0  0  0  0
    5.2862    0.2717  -20.3632 C   0  0  0  0  0  0  0  0  0  0  0  0
    5.7576   -3.1502  -19.2316 C   0  0  0  0  0  0  0  0  0  0  0  0
    3.6315   -1.9458  -19.2089 C   0  0  0  0  0  0  0  0  0  0  0  0
    3.9215   -3.9293  -17.8245 C   0  0  0  0  0  0  0  0  0  0  0  0
    7.5608    5.0042  -23.2836 C   0  0  0  0  0  0  0  0  0  0  0  0
    5.3922    4.7440  -24.1341 C   0  0  0  0  0  0  0  0  0  0  0  0
    5.4903   -1.0935  -20.6222 C   0  0  0  0  0  0  0  0  0  0  0  0
    4.9535   -2.0829  -19.6841 C   0  0  0  0  0  0  0  0  0  0  0  0
    5.7839    1.2553  -21.2408 C   0  0  0  0  0  0  0  0  0  0  0  0
    5.9568    3.6796  -22.0143 C   0  0  0  0  0  0  0  0  0  0  0  0
    5.2450   -4.0630  -18.2904 C   0  0  0  0  0  0  0  0  0  0  0  0
    3.1125   -2.8759  -18.2934 C   0  0  0  0  0  0  0  0  0  0  0  0
    6.3204    3.0277  -19.5616 C   0  0  0  0  0  0  0  0  0  0  0  0
    4.0791    3.3958  -19.2763 C   0  0  0  0  0  0  0  0  0  0  0  0
    5.5894    2.7281  -20.8685 C   0  0  2  0  0  0  0  0  0  0  0  0
    5.5757    3.7611  -17.2659 C   0  0  0  0  0  0  0  0  0  0  0  0
    6.6378    5.2618  -24.2397 N   0  0  0  0  0  0  0  0  0  0  0  0
    5.3247    3.3117  -18.6411 N   0  0  0  0  0  0  0  0  0  0  0  0
    4.1770    2.9556  -20.5077 N   0  3  0  0  0  0  0  0  0  0  0  0
    2.8967    3.8277  -18.6950 N   0  0  0  0  0  0  0  0  0  0  0  0
    7.5112    2.8721  -19.3127 O   0  0  0  0  0  0  0  0  0  0  0  0
    6.0261   -5.0638  -17.8273 F   0  0  0  0  0  0  0  0  0  0  0  0
    1.8357   -2.7561  -17.8673 F   0  0  0  0  0  0  0  0  0  0  0  0
    7.2109   -0.8289  -23.5597 H   0  0  0  0  0  0  0  0  0  0  0  0
    6.3637   -2.5428  -21.9700 H   0  0  0  0  0  0  0  0  0  0  0  0
    6.8841    1.5871  -23.0810 H   0  0  0  0  0  0  0  0  0  0  0  0
    8.0150    4.0092  -21.4166 H   0  0  0  0  0  0  0  0  0  0  0  0
    4.0277    3.5196  -22.9886 H   0  0  0  0  0  0  0  0  0  0  0  0
    4.7411    0.5713  -19.4803 H   0  0  0  0  0  0  0  0  0  0  0  0
    6.7638   -3.2667  -19.6063 H   0  0  0  0  0  0  0  0  0  0  0  0
    3.0183   -1.1246  -19.5496 H   0  0  0  0  0  0  0  0  0  0  0  0
    3.5276   -4.6347  -17.1078 H   0  0  0  0  0  0  0  0  0  0  0  0
    8.5535    5.4174  -23.3847 H   0  0  0  0  0  0  0  0  0  0  0  0
    4.6661    4.9538  -24.9056 H   0  0  0  0  0  0  0  0  0  0  0  0
    4.6170    3.9148  -16.7490 H   0  0  0  0  0  0  0  0  0  0  0  0
    6.1617    2.9983  -16.7322 H   0  0  0  0  0  0  0  0  0  0  0  0
    6.1370    4.7069  -17.2861 H   0  0  0  0  0  0  0  0  0  0  0  0
    3.4011    2.7962  -21.1182 H   0  0  0  0  0  0  0  0  0  0  0  0
    2.0468    3.8152  -19.2218 H   0  0  0  0  0  0  0  0  0  0  0  0
    2.8938    4.1516  -17.7489 H   0  0  0  0  0  0  0  0  0  0  0  0
  1  2  1  0  0  0  0
  1  3  2  0  0  0  0
  2 12  2  0  0  0  0
  3 14  1  0  0  0  0
  4 10  2  0  0  0  0
  4 15  1  0  0  0  0
  5 11  1  0  0  0  0
  5 15  2  0  0  0  0
  6 12  1  0  0  0  0
  6 14  2  0  0  0  0
  7 13  1  0  0  0  0
  7 16  2  0  0  0  0
  8 13  2  0  0  0  0
  8 17  1  0  0  0  0
  9 16  1  0  0  0  0
  9 17  2  0  0  0  0
 10 22  1  0  0  0  0
 11 22  2  0  0  0  0
 12 13  1  0  0  0  0
 14 20  1  0  0  0  0
 15 20  1  0  0  0  0
 16 27  1  0  0  0  0
 17 28  1  0  0  0  0
 18 20  1  0  0  0  0
 18 23  1  0  0  0  0
 18 26  2  0  0  0  0
 19 23  1  0  0  0  0
 19 24  2  0  0  0  0
 19 25  1  0  0  0  0
 20 24  1  0  0  0  0
 21 23  1  0  0  0  0
  1 29  1  0  0  0  0
  2 30  1  0  0  0  0
  3 31  1  0  0  0  0
  4 32  1  0  0  0  0
  5 33  1  0  0  0  0
  6 34  1  0  0  0  0
  7 35  1  0  0  0  0
  8 36  1  0  0  0  0
  9 37  1  0  0  0  0
 10 38  1  0  0  0  0
 11 39  1  0  0  0  0
 21 40  1  0  0  0  0
 21 41  1  0  0  0  0
 21 42  1  0  0  0  0
 24 43  1  0  0  0  0
 25 44  1  0  0  0  0
 25 45  1  0  0  0  0
M  CHG  1  24   1
M  END
> <OMEGA_C>
vvHVQID1Bb+lVbXBUlHGQAM4v7/uMK7Bdr/PQNyMWD/nM7PBTkToQLa8hkCnSLHBD7OgQAYNfEBd
VbjBwCipQBwciz7D56LB3D24QA6dScA+2pnBlWpoQCsQ+b/Jq5nBdvp6QI55e8CdmI7BdfLxQCEi
oEDfRLrB3IysQJPOl0CyEsHBf7CvQDv2i79Q+qTBJoOeQEdOBcAPeZ3B3xW5QPKuoD847anBeZ6+
QEl/a0BeHbDB4danQPkDgsC4UpLBjjJHQAgPOMDtWJLB5kDKQLvFQUBAfpzBzoeCQMpUWUDSNZrB
n9yyQJaYLkCY8qbBU2yyQA62cECTIIrBD2nUQHVgqEDj6sHBzWOqQN/yU0D3IJXBramFQOsoPUDK
D6TBV2M5QGD4dEBZj5XB1VvwQFbQN0BdgJrBrdXAQGYKosBPno7BOfnqP6FkMMA78I7By7/mQP8y
VL87erzBoKPLQOe9IsCUwq/BiErcQN0myz/2pbjBXj0AQQlLgEA3VavBPOOAQPtAYUC46LfB17aX
QEdBEj+r15vBrXDYQDcRUcCb2ZzBaixBQHD0j7+tZZzB+cRhQGtPlMDP3IjBN9sIQX1brUD0E7vB
fFCVQCeFnkChPsfBIb6TQP2LekAH/oXBmSzFQMjkP0CZ24XBLWLEQDOflkDmSYrBNKxZQDb0MkAE
8qjBBP8CQGcsdEBRxpnBzzM5QLzZhEDG/Y3BhV/VQBOdAr9hZLXBjq3FQKXlvb/OSa7Byj7PQL99
Wz8RNrPB8YOgQLyofUD/PrjBWl7oQJdNhkB6SrHBFpGoQEZPjT7I7qLBNju5QPVOSMAE4pnBVIJo
QOtK/b+MrJnB2oh+QCEcfcARmI7BDrysQAIlmECICsHBqWHyQJ9Sn0BqUbrB9BqvQL1Ni7+bDaXB
F5meQOl0BcAJhJ3BB5O4QPSqoT8W7anB7HK+QJoZbEADELDBuLOpQLiygcC+U5LBn/5IQIL5OsAy
UpLBzAzKQHroQUApepzBIWCCQN/hWUCsJ5rBJIeyQFUSL0B16qbBXJuyQL9KckCOJorBw+XUQIrp
p0A29MHB9lGqQGWsVECYGpXBu2SFQAjDPUBkAqTBLRY5QJltdUAHf5XBLR7wQE82N0Dof5rBHanD
QC7joMAJl47BjLPuP3k1NcCV047BNy7mQIMKUL8Vi7zB++fKQPQJIsB856/BmdnbQMTtzD98oLjB
qGqAQM5YZEDYwLfBXUUAQXwpf0BoWavBTBWXQHqDEj/x3ZvBhH3ZQL8gTsBu5ZzBlew/QE0klr+Y
YpzB2oZmQFeBlcCf34jB8oiVQGQln0CEM8fBny4JQZz3q0CJK7vBqgWUQKd+fEBA/IXBK3DFQDfK
QUDh2IXB5pTEQIBkl0BxaYrBLwlZQOWrM0CT4ajBbqoCQCKTdEB0tJnBa+44QDYThUBb7Y3BbMrU
QAEuBb83abXBVwvFQF7dvr+kS67BnuzOQNP8WD8lN7PBg0ToQLvMhkDSLrHBt+mgQGkDfECwWrjB
YC2oQGqQij407aLBl6NoQPTi/787gpnBcbS5QKwDSMDa3JnBwF6AQImefsD7hI7BWDHyQJcmoEA9
KbrBMAStQDCzl0AJF8HB9pyuQMYAjL+HCqXBtJSeQGnLBcA6cJ3B5FS4QDquoD9T7anBNZe+QAiN
a0AWFLDB/TlKQF70PMA/KZLB1L+qQMXagcCQUZLBAu7JQP4JQUAddpzB5luCQMu5WUDSNJrB14iy
QNiTLkB37abBSWayQOUackDxMYrBceLUQChNqECZ3sHBaBqqQFMTU0CWFZXBPGeFQPKZPUAHD6TB
n285QC0Yd0DvoJXBHhHwQK1MN0ABfprBfYHxP1FIOMAFlI7BWSzFQBffoMDhso7BkG7lQCkrU7+c
lLzBgh/KQNOPIsBz6q/BV6vbQH6Dyz8sn7jBbygAQbppgEDGL6vBTBSBQGtGYUAX+rfBaq6WQPC3
ET9p3pvBnl8/QD1Pmb+uJJzBZfHZQEXhTMCL6pzBSo5pQDqIlsCI0IjBdvsIQZRprUAJ6rrBxfeV
QCNRnkDST8fB0taTQFhoe0Bo/IXBIODFQKPXQkAO24XBuLbDQB6pl0AslYrBQR9ZQEq3M0Cb8qjB
VlMDQF6rd0Bw5pnBVT05QE3ahUAODo7BAQPVQMkSBb/ed7XBpf/FQD7tvr8sQa7BU2LOQJgKWT//
YLPBu7SgQFZFfUCXZ7jBkgDoQJC7hkDLJLHBOXioQAysiT76/KLBGSVrQLou+r9RMZnBaYW5QLcq
SsCdCJrBKpKAQPMdfMB8OY7BliitQJOEmEBOFMHBekHyQMZSoEAZDbrBDH6vQGU4jL9pAqXB0Uyf
QEe0BcDsYp3BhuS3QDB/oD8fE6rBvzi+QIfRa0C1H7DB+D9MQAWpOMC+tpHBU0mqQE5bgsD7XpLB
LJzJQF32P0AklpzB+y+CQKggWkAdRZrBs/2xQDZiLkDMCqfBu6GyQLiGcUAETIrBoCXVQCXpqECd
xsHBBgSqQEwUU0BmMpXBM+6EQCyvPUBRHqTBCn85QKzcd0C7n5XBLIjvQAdgM0C0mprB2pX3P1nT
MMBT343BB8zDQGJ/osBU9Y7Btq7lQM7jUr+horzBMLPLQJODIsBmy6/BCnfaQH+Oyz/u4LjBbMKA
QAgIY0B8FLjBTuX/QCIBgEDUIavBYgqXQM4aET8W65vBIQFDQOFEkb/lvJvBaDrZQDegUcCdV53B
JsFpQMOglMDqXojBB0mWQHZzn0DrUcfBaA8JQW5rrUCzvLrBxiyUQCrte0DAFIbB2KXFQLxoQUAR
+oXBpYrEQNQHl0ASqorBaepXQE7EM0D19qjBFhkDQOl/eEB61pnBIuI5QA1WhkAQD47B

> <OMEGA_E>
sIwePoDRHj6g3B4+kMIgPg==

> <OMEGA_NBR>
     88844

$$$$
50161566
  -OEChem-04172616093D

 42 45  0     1  0  0  0  0  0999 V2000
    6.7164   -0.5881  -22.5536 C   0  0  0  0  0  0  0  0  0  0  0  0
    6.1801   -1.5395  -21.6657 C   0  0  0  0  0  0  0  0  0  0  0  0
    6.5125    0.7865  -22.3279 C   0  0  0  0  0  0  0  0  0  0  0  0
    7.2574    4.2001  -22.1583 C   0  0  0  0  0  0  0  0  0  0  0  0
    5.0330    3.9021  -23.0597 C   0  0  0  0  0  0  0  0  0  0  0  0
    5.6098   -3.2794  -19.1438 C   0  0  0  0  0  0  0  0  0  0  0  0
    5.1797    0.2530  -20.3548 C   0  0  0  0  0  0  0  0  0  0  0  0
    7.5558    5.0117  -23.2705 C   0  0  0  0  0  0  0  0  0  0  0  0
    5.3986    4.7268  -24.1401 C   0  0  0  0  0  0  0  0  0  0  0  0
    4.9011   -4.0274  -18.2362 C   0  0  0  0  0  0  0  0  0  0  0  0
    3.6100   -2.0144  -19.0402 C   0  0  0  0  0  0  0  0  0  0  0  0
    5.4022   -1.1195  -20.5667 C   0  0  0  0  0  0  0  0  0  0  0  0
    4.8584   -2.1010  -19.6147 C   0  0  0  0  0  0  0  0  0  0  0  0
    5.7427    1.2208  -21.2195 C   0  0  0  0  0  0  0  0  0  0  0  0
    5.9628    3.6463  -22.0268 C   0  0  0  0  0  0  0  0  0  0  0  0
    6.3192    3.0061  -19.5667 C   0  0  0  0  0  0  0  0  0  0  0  0
    4.0808    3.3878  -19.2779 C   0  0  0  0  0  0  0  0  0  0  0  0
    5.5829    2.7054  -20.8706 C   0  0  2  0  0  0  0  0  0  0  0  0
    5.5874    3.7713  -17.2791 C   0  0  0  0  0  0  0  0  0  0  0  0
    6.6360    5.2665  -24.2302 N   0  0  0  0  0  0  0  0  0  0  0  0
    5.3276    3.2991  -18.6448 N   0  0  0  0  0  0  0  0  0  0  0  0
    4.1772    2.9658  -20.5150 N   0  3  0  0  0  0  0  0  0  0  0  0
    2.8962    3.8097  -18.6948 N   0  0  0  0  0  0  0  0  0  0  0  0
    7.5131    2.8649  -19.3235 O   0  0  0  0  0  0  0  0  0  0  0  0
    3.3213   -3.3453  -17.9508 S   0  0  0  0  0  0  0  0  0  0  0  0
    7.2863   -0.9138  -23.4112 H   0  0  0  0  0  0  0  0  0  0  0  0
    6.3644   -2.5915  -21.8260 H   0  0  0  0  0  0  0  0  0  0  0  0
    6.9439    1.5124  -23.0012 H   0  0  0  0  0  0  0  0  0  0  0  0
    8.0119    4.0023  -21.4113 H   0  0  0  0  0  0  0  0  0  0  0  0
    4.0456    3.4664  -23.0202 H   0  0  0  0  0  0  0  0  0  0  0  0
    6.6072   -3.5267  -19.4761 H   0  0  0  0  0  0  0  0  0  0  0  0
    4.5713    0.5721  -19.5214 H   0  0  0  0  0  0  0  0  0  0  0  0
    8.5428    5.4411  -23.3595 H   0  0  0  0  0  0  0  0  0  0  0  0
    4.6750    4.9334  -24.9148 H   0  0  0  0  0  0  0  0  0  0  0  0
    5.2738   -4.9225  -17.7604 H   0  0  0  0  0  0  0  0  0  0  0  0
    2.9011   -1.2242  -19.2387 H   0  0  0  0  0  0  0  0  0  0  0  0
    4.6321    3.9285  -16.7570 H   0  0  0  0  0  0  0  0  0  0  0  0
    6.1814    3.0198  -16.7382 H   0  0  0  0  0  0  0  0  0  0  0  0
    6.1438    4.7193  -17.3187 H   0  0  0  0  0  0  0  0  0  0  0  0
    3.4019    2.8380  -21.1335 H   0  0  0  0  0  0  0  0  0  0  0  0
    2.0481    3.8032  -19.2246 H   0  0  0  0  0  0  0  0  0  0  0  0
    2.8897    4.1207  -17.7444 H   0  0  0  0  0  0  0  0  0  0  0  0
  1  2  1  0  0  0  0
  1  3  2  0  0  0  0
  2 12  2  0  0  0  0
  3 14  1  0  0  0  0
  4  8  2  0  0  0  0
  4 15  1  0  0  0  0
  5  9  1  0  0  0  0
  5 15  2  0  0  0  0
  6 10  2  0  0  0  0
  6 13  1  0  0  0  0
  7 12  1  0  0  0  0
  7 14  2  0  0  0  0
  8 20  1  0  0  0  0
  9 20  2  0  0  0  0
 10 25  1  0  0  0  0
 11 13  2  0  0  0  0
 11 25  1  0  0  0  0
 12 13  1  0  0  0  0
 14 18  1  0  0  0  0
 15 18  1  0  0  0  0
 16 18  1  0  0  0  0
 16 21  1  0  0  0  0
 16 24  2  0  0  0  0
 17 21  1  0  0  0  0
 17 22  2  0  0  0  0
 17 23  1  0  0  0  0
 18 22  1  0  0  0  0
 19 21  1  0  0  0  0
  1 26  1  0  0  0  0
  2 27  1  0  0  0  0
  3 28  1  0  0  0  0
  4 29  1  0  0  0  0
  5 30  1  0  0  0  0
  6 31  1  0  0  0  0
  7 32  1  0  0  0  0
  8 33  1  0  0  0  0
  9 34  1  0  0  0  0
 10 35  1  0  0  0  0
 11 36  1  0  0  0  0
 19 37  1  0  0  0  0
 19 38  1  0  0  0  0
 19 39  1  0  0  0  0
 22 40  1  0  0  0  0
 23 41  1  0  0  0  0
 23 42  1  0  0  0  0
M  CHG  1  22   1
M  END
> <OMEGA_C>
WezWQNGMFr+2bbTBjMPFQJQNxb9aU63BambQQJ1WST91n7LBijzoQD1nhkAoRLHBuQ6hQOu7eUA8
erjBp4OzQKXhUcB2JpnBwL+lQAOHgT6L1qLBNMnxQKpfoEDyKbrBIsGsQNZBl0DzHsHBLdacQGTg
gMCo45HBnQpnQJPsAMBsUpjB1d6sQMlLj7+PiKTB2HebQNl2BsDt6pzB5sO3QFhCnD+HwanBOM++
QBddaUDqNrDB4DbKQEpjQECZiJzB/JWCQGfRWEAUOZrBcqeyQL4lLUDt9qbB+8uyQFdccUCgO4rB
KlrUQDyHqEBv18HBDHyqQAgkU0BzKJXB6quFQLrPPUCqHqTBZVs5QOvSc0D0jpXB7GrwQC1bN0Cg
lprBpo9UQOwZVsAzm4/BZinpQOrrab8YSrvBEqnLQBnbJcCom67BvDTeQD2VwT9mArjB5DAAQY0S
gEBsSqvBrnWBQKXZXUBvKbjBgW7TQDa1YcD1zpvBMEiSQItzEj/QK5zBNa8IQTIdrkBQ4LrBPZmV
QMjenUBpUcfBOcOoQNiEncBNFY7BQKs5QDO0nL/r6JnBwTmUQIdse0BgDobBoM3FQMJEQUDi54XB
RprEQKsEl0C5jIrBDrlZQAGhNUBZEanBtBMDQARoc0Dky5nB9PA4QMHcg0CG9I3B/ZvXQMgcE78X
Y7TBW+bGQEP5w78EQ63B/HDQQP4CTD9/nLLBJQyhQKM4eEDFkrjBc2PnQDxlh0DRArHBNxS1QFgD
UsBaIZnB/OalQNRgfz511aLBefasQCxelkAvOsHBJSrxQDI6oUAn67nBs1CeQD2VgcCrBZLBek1p
QC5oAsAxVpjB9MetQExUj7+Ye6TBS7ucQGLlBsDd35zBT4O3QKxsnD8RxanBUEy+QI6LaUD6JrDB
wMzJQFKFP0BLhJzBkXKCQLX2WkCAR5rBRSKyQFX+LEBe8abB6q2yQGfpcUD4P4rBNUTUQMBoqEBr
yMHB/DOqQPrTU0CXLJXBZiyFQAuIPUDBE6TBEgA6QElgeUBHtpXBHr/vQLBGM0DChprBmOJWQJDE
WMApzo/B8f7pQJX0ZL/APbvBdVDNQPIoJcA+hK7B9/jdQKeGwz8aALjBwKyBQMNFW0BoX7jBaRz/
QIbbgUDh4arBCEDVQK65YMAWspvBBC2SQGbSDz/CMZzBADmWQIU+nEC+kMfBTT4IQbSnr0CJfLrB
HFqqQJFTnsBASY7BeLU7QO/Tn78c3ZnBnymUQPZmfUAdG4bBdhbFQAsXQUCT44XBsCbFQH3klkCs
kYrB3mpYQBivM0Ce7ajBJLUDQNu4eUCY8pnBT0I6QF58h0BpLo7Bf4fRQIW6Eb+bSbXBxFHCQOat
xL8AFq7BI7rLQNElTD/0ILPB43zoQIi9hEDTJbHBz9agQIsEfUBbR7jBXXhsQGrkCsDL95bBRGWl
QOKRZz5VtKLB/wzzQD10nkDcBbrBiZqtQMl2mECi68DB78ZkQHZ2UMAMTJDBeDa4QOg6UMBrXJrB
+E+sQCCikr+WvqTBXQSfQFbqCsBu7pzBpai1QCJJmz/7yqnB81K+QFCUaUBRDrDBJRTJQBMnP0BC
dpzBAfCBQMKJXEBuPZrB4kyxQFbVLEDp4abBYpuyQEigdUBYWIrBnerVQBT8p0BIq8HBYbSpQLs5
VUAfJZXBZXiEQPF+PkBWA6TBY1I5QPcGfECwspXBCiTvQAEkNEA1gZrBlbyfQOy2iMAA3pDByr3h
QAiEYL9/grzBeX/HQJJvJcBGta/BIifYQPWbxD84nbjBnjgAQYt7ekBzNavBiJ+AQEclZEDM77fB
QUM8QJaFs799wZfBHZqTQP/7Bj9Is5vBEpcJQZ3bqkCJvbrBJa6WQHoooEDxF8fBSaItQAc/XcC8
VovBs0vXQJScXMBpzp3BzECUQJ0egUBsLYbBzRTFQG6kRUCs24XBKyvFQO+imEBt6IrB5NpWQPHo
NEDa2KjBAwcDQD+5fEC+7pnB5dQ5QCAGiUDNL47BtZzRQCC1Er+WSrXBDX7CQIAnxb+PE67Bjq7L
QPQjSz8hJ7PBCNOgQCTGfEAGT7jBy13oQKbhhEBTH7HBA9psQKOLC8AJ+JbBIFilQP52Yz5vuqLB
VoqtQLmImEC26sDBVuTyQDzEnkBg+LnBBpRlQLz0UMCgQ5DB86K4QN4eUMC6UJrBXmesQL4kk78g
v6TBoz2fQPsrC8Do6pzBjpO1QKbBmj8m06nBB0a+QPZlaUDgE7DBxQjJQNzQPkCKgZzBBfyBQBx1
XUAiVprBjTuxQPONLEBV66bBdaOyQFRcdkCAbYrBEMnVQI9BqECUoMHB37ipQFQHVkB8OpXBdWmE
QJRNPkAmDqTBn5A5QObDfUCZ2JXBFfnuQIGDMkAthJrB81ugQMCoiMDvyZDB6NrhQO+FYb9KgrzB
Ac7HQA2pJcAHrq/B0wnYQBEZxD8HprjBgquAQBGPY0Cm/7fB5CQAQVndekDXK6vBO008QFSTtb9H
ypfBXHiTQMn0BT+pvJvB2qKWQFw3oEBmGMfBx3sJQWlWq0BDqLrBq3ouQEv1XcChTovBYsDXQKc/
XMCywZ3Bv0uUQPb+gUAoTobBfqTEQM3mRUC55oXBqavFQEK1mECv+4rBvKVWQBwINEA52qjBXUED
QLE0fkADFJrBujI6QOdQikDkX47B

> <OMEGA_E>
UNEMPqjsDz7w/Bc+OEkbPg==

> <OMEGA_NBR>
     92114

$$$$
50161569
  -OEChem-04172616093D

 46 49  0     1  0  0  0  0  0999 V2000
    6.0373   -5.0336  -17.7395 C   0  0  0  0  0  0  0  0  0  0  0  0
    3.0857   -2.8127  -18.3161 C   0  0  0  0  0  0  0  0  0  0  0  0
    6.6981   -0.4947  -22.6851 C   0  0  0  0  0  0  0  0  0  0  0  0
    3.8896   -3.8562  -17.8240 C   0  0  0  0  0  0  0  0  0  0  0  0
    3.6111   -1.9075  -19.2525 C   0  0  0  0  0  0  0  0  0  0  0  0
    6.1993   -1.4720  -21.8044 C   0  0  0  0  0  0  0  0  0  0  0  0
    6.5087    0.8728  -22.4059 C   0  0  0  0  0  0  0  0  0  0  0  0
    5.0159    3.9458  -23.0266 C   0  0  0  0  0  0  0  0  0  0  0  0
    7.2602    4.2089  -22.1618 C   0  0  0  0  0  0  0  0  0  0  0  0
    5.7367   -3.1152  -19.2420 C   0  0  0  0  0  0  0  0  0  0  0  0
    5.2935    0.2843  -20.3803 C   0  0  0  0  0  0  0  0  0  0  0  0
    5.3876    4.7299  -24.1335 C   0  0  0  0  0  0  0  0  0  0  0  0
    7.5635    4.9823  -23.2987 C   0  0  0  0  0  0  0  0  0  0  0  0
    5.2166   -4.0000  -18.2779 C   0  0  0  0  0  0  0  0  0  0  0  0
    4.9349   -2.0607  -19.7226 C   0  0  0  0  0  0  0  0  0  0  0  0
    5.4869   -1.0769  -20.6540 C   0  0  0  0  0  0  0  0  0  0  0  0
    5.7969    1.2728  -21.2448 C   0  0  0  0  0  0  0  0  0  0  0  0
    5.9551    3.6925  -22.0017 C   0  0  0  0  0  0  0  0  0  0  0  0
    6.3218    3.0308  -19.5474 C   0  0  0  0  0  0  0  0  0  0  0  0
    4.0775    3.3700  -19.2589 C   0  0  0  0  0  0  0  0  0  0  0  0
    5.5947    2.7387  -20.8584 C   0  0  2  0  0  0  0  0  0  0  0  0
    5.5684    3.7437  -17.2496 C   0  0  0  0  0  0  0  0  0  0  0  0
    6.7012   -5.8787  -17.2887 N   0  0  0  0  0  0  0  0  0  0  0  0
    6.6377    5.2332  -24.2540 N   0  0  0  0  0  0  0  0  0  0  0  0
    5.3212    3.2787  -18.6202 N   0  0  0  0  0  0  0  0  0  0  0  0
    4.1808    2.9528  -20.4974 N   0  3  0  0  0  0  0  0  0  0  0  0
    2.8919    3.7956  -18.6796 N   0  0  0  0  0  0  0  0  0  0  0  0
    7.5144    2.8863  -19.3009 O   0  0  0  0  0  0  0  0  0  0  0  0
    2.0664   -2.7076  -17.9747 H   0  0  0  0  0  0  0  0  0  0  0  0
    7.2276   -0.7939  -23.5776 H   0  0  0  0  0  0  0  0  0  0  0  0
    3.4901   -4.5483  -17.0975 H   0  0  0  0  0  0  0  0  0  0  0  0
    3.0019   -1.0923  -19.6142 H   0  0  0  0  0  0  0  0  0  0  0  0
    6.3615   -2.5200  -22.0088 H   0  0  0  0  0  0  0  0  0  0  0  0
    6.9064    1.6193  -23.0775 H   0  0  0  0  0  0  0  0  0  0  0  0
    4.0175    3.5394  -22.9603 H   0  0  0  0  0  0  0  0  0  0  0  0
    8.0188    4.0122  -21.4187 H   0  0  0  0  0  0  0  0  0  0  0  0
    6.7437   -3.2439  -19.6107 H   0  0  0  0  0  0  0  0  0  0  0  0
    4.7507    0.5778  -19.4939 H   0  0  0  0  0  0  0  0  0  0  0  0
    4.6593    4.9347  -24.9042 H   0  0  0  0  0  0  0  0  0  0  0  0
    8.5592    5.3852  -23.4113 H   0  0  0  0  0  0  0  0  0  0  0  0
    4.6096    3.8621  -16.7235 H   0  0  0  0  0  0  0  0  0  0  0  0
    6.1891    3.0068  -16.7189 H   0  0  0  0  0  0  0  0  0  0  0  0
    6.0919    4.7107  -17.2793 H   0  0  0  0  0  0  0  0  0  0  0  0
    3.4073    2.8006  -21.1127 H   0  0  0  0  0  0  0  0  0  0  0  0
    2.0464    3.7960  -19.2136 H   0  0  0  0  0  0  0  0  0  0  0  0
    2.8823    4.1021  -17.7278 H   0  0  0  0  0  0  0  0  0  0  0  0
  1 14  1  0  0  0  0
  1 23  3  0  0  0  0
  2  4  1  0  0  0  0
  2  5  2  0  0  0  0
  3  6  1  0  0  0  0
  3  7  2  0  0  0  0
  4 14  2  0  0  0  0
  5 15  1  0  0  0  0
  6 16  2  0  0  0  0
  7 17  1  0  0  0  0
  8 12  2  0  0  0  0
  8 18  1  0  0  0  0
  9 13  1  0  0  0  0
  9 18  2  0  0  0  0
 10 14  1  0  0  0  0
 10 15  2  0  0  0  0
 11 16  1  0  0  0  0
 11 17  2  0  0  0  0
 12 24  1  0  0  0  0
 13 24  2  0  0  0  0
 15 16  1  0  0  0  0
 17 21  1  0  0  0  0
 18 21  1  0  0  0  0
 19 21  1  0  0  0  0
 19 25  1  0  0  0  0
 19 28  2  0  0  0  0
 20 25  1  0  0  0  0
 20 26  2  0  0  0  0
 20 27  1  0  0  0  0
 21 26  1  0  0  0  0
 22 25  1  0  0  0  0
  2 29  1  0  0  0  0
  3 30  1  0  0  0  0
  4 31  1  0  0  0  0
  5 32  1  0  0  0  0
  6 33  1  0  0  0  0
  7 34  1  0  0  0  0
  8 35  1  0  0  0  0
  9 36  1  0  0  0  0
 10 37  1  0  0  0  0
 11 38  1  0  0  0  0
 12 39  1  0  0  0  0
 13 40  1  0  0  0  0
 22 41  1  0  0  0  0
 22 42  1  0  0  0  0
 22 43  1  0  0  0  0
 26 44  1  0  0  0  0
 27 45  1  0  0  0  0
 27 46  1  0  0  0  0
M  CHG  1  26   1
M  END
> <OMEGA_C>
yjHBQA8TocBz6o3BaHtFQCMDNMBdh5LBqFbWQJBJ/b4De7XBDu94QKTLdsCal47BnBtnQAAo9L8f
BZrB4mDGQGJrvL9Zb67BZkfQQH9uXz9fP7PBDIKgQISIfEBlNrjBtFPoQGWvhkBkS7HBWpO3QFBf
R8Cr75nBEmSpQJyRkT7oCqPBlWesQFZbl0BhEcHBmAjyQNdun0CtY7rB/O2mQIT/f8A2OZLBg+qd
QEjjA8D0x53Bv5SvQGvXib9VO6XB/X+5QHbroj9f9anBMpC+QFZSbEBmA7DB8kvKQI/4QUAnYZzB
8XqCQJauV0A5EprBwwezQD5GL0AT3qbBHDCyQBeZb0AY/4nB4m/WQCUevMBPT4rBUmjUQLR2p0BD
CMLBakeqQMzWUUA69pTBMcmFQF36PECm+qPBThU5QOzqckDQb5XBMHbwQF24OEBUaJrBnEAEQHlJ
LcAozI/BOkjnQPg7S7/TnrzB/VxfQF+LkcDAx4jBqx9AQGDPi7/S6ZzBs5HLQDZIIcDtEbDB3gDd
QKVGzz+fnrjBKI+AQECFYkCZrrfB80wAQeRjgEBqWavBJ8zXQNGbT8C44pzBpgWYQPToEz+Y85vB
qBiVQNPonUCzO8fBoPIIQVdTrEBaSrvB6YGTQHUsd0CvyYXBVQ3GQMxvQEA1wIXBNPHCQMa9lkAV
PIrB4BFaQC09M0DH5qjBv/gCQIrxckBrtZnBwXc4QJNEg0CB0o3BGtnzP6VONsAnhY3BWuarQPEt
g8AT2JLBcWbTQM8t/74lq7XBf1OCQBH2f8Dnk47BPzu6QNj6ScDbYprBiCPEQAbmvL8pjq7Bes7N
QGLYXT+3WLPBspLoQPT+hUAVP7HBsLagQJrtfUBaObjBmyVrQI9V/7+pQJnB2k2oQEgyjT6a6KLB
zNPyQFbPnkCnS7rBUi2tQJUImECrCsHBYDtOQFHYPMBJ1JHBoiqfQK47BsAdkJ3BIomuQPVOi7/p
J6XBMP23QAo7oj+N66nB8n++QONGbEAnArDBr8XJQJrZQUCvZ5zB4imCQHLKWkDoIprB00uyQK5e
L0Dq3KbB3zayQC4uckAcFIrBqIpUP2/dMMBy+onBP3PVQIWEp0Ap88HBvv+pQAHMVEDdC5XBfzCF
QBeFPkCw+6PBiM44QEEvd0AuhZXBFsvvQNm7NkBraJrBsMnAQGnOnMDFU5DB4nfjQEy/S78y8LzB
pY1uQAQ8l8BY0IjBc/PZQDR0T8BZv53BlvTIQBt6IcCjSbDB9i3aQAuLzj/6w7jBjVYAQVJEfkAF
TKvBX4eAQIcMZUDRvLfBvrpBQHeCl7/upZvB1VqXQMk5ET/Qv5vBtnQJQV4xq0AHJrvBPxSWQKgS
n0AROcfBrpmTQIKWfEBK74XBuOLEQPtyQUCjxYXBBVPEQH5Cl0C9T4rBKqhYQP6aNECB3ajBt4QC
QE7fdkC7wZnBvZ84QAP9hUBH9I3BcLTCQAnaosDbTI7BNuRHQKq4N8CKn5LB2ebWQD5eAL/6cLXB
C5R7QAvXesCX0o7BBk9pQBZS+b+2/ZnB2FfHQJbPvb9RYa7BGl3QQD0oXT+aN7PBssvnQDGLhkA+
LLHBpxegQIqXe0DrJLjBk9+4QCA8ScDXBZrBaMipQIJxhz6L/KLB6G7xQFWFn0CJO7rBD+2rQHIY
l0C498DB906oQDONgcB0cpLB8g+fQIKQBcAwwJ3BvXawQMIljL9kK6XB0oO5QHjqoD+E66nBGiG+
QHN4a0BL8K/BfP3JQHbsQECiVZzBC3qCQKNnWkB7M5rBybeyQBggLkCF0abBls2xQPW0bkCr9InB
MhzYQNoSvsBU14rBi9XTQHB8p0AH48HBSvipQDutUkB7/pTBWG+FQGJvO0DI66PB9S46QKKWekCV
yZXBrQPwQCw9NkDOTZrBMqEGQD2bMcCq4Y/BFufnQFazS7/1lbzBjhliQKYMlMAlH4nBSxhCQE6n
kL8BypzB9ObMQNjeIcAcArDB28XcQImdzj8mmrjBRAYAQbFKgEAtOKvByDaAQOcyYUC4pLfB7CnZ
QL+pUMB59ZzBVVeYQLyODT+05JvBoJsIQaylrEDeGLvBDKaUQPGUnUAIJcfBOQyTQOtVeEAY2YXB
uXLEQOGTPUCWtoXBkMvDQCyblUDGCIrB8xlZQFGoLkDAsKjBLTQEQJAfe0C2FZrBhDs6QDCiiEB6
To7BDTblP02oOMCdMI/BxWqqQAUYgsAhVZLBnNXUQMyWA7+7drXBZdJ/QCNFfsCspo7BzAu6QHdu
SMAdzJnBrqvFQBk7vr/IR67BbLnOQNKHWj/uSLPBmZigQDPufEBoTLjB/kjoQLhyhkCxRbHBIO5p
QOVR/r+spZnBdPioQLqcjD7D3aLBRLasQLj9l0AnEMHB9DTyQHOqn0AzRrrBZCNKQCBCPMA7apLB
ZGSfQAx3BcB+Z53B8J2vQF1yi787+aTB5Iu4QExVoT+r7anB73W+QBbVa0CAFbDB1/vJQKW7QUAm
e5zBvlmCQKh7WkBlN5rBQISyQDLnLkAN7qbBiFuyQEoockBJKYrBT0MrP9cJNsCNrYzBXr7UQEgh
qEAc7cHBTDGqQGq/VED1IJXB216FQHazPUCJCqTBQS45QIrqdkDemZXB8/XvQAonNkBbeJrBkAO/
QBxLm8AebY/BkjflQHk7Ub+PrLzBXcRnQLsjlsCC8ojBgGXaQBPRTcD6wpzBuejKQFM2IsDd46/B
tPfaQK9ezD/rwbjBZ5+AQCLwYkAQ2rfBjTkAQRaXf0DNUqvBu2ZBQMbalr8JU5zBhL+XQJ9IEj8C
w5vBmIqVQALbnkBaPcfB5QwJQTuRrEDJF7vBibmTQIebfEAdB4bB0/7EQGxsQUCe2IXBk3vEQEo9
l0BBZIrBk/9YQDs8M0Dk5qjB2tACQAk9dkBQ0pnBoBQ5QMUMhkBPDY7B

> <OMEGA_E>
IC+GPhhZhj6wy4c+mBSFPg==

> <OMEGA_NBR>
     95592

$$$$
50161571
  -OEChem-04172616093D

 35 37  0     1  0  0  0  0  0999 V2000
    6.5586    5.4847  -24.1109 C   0  0  0  0  0  0  0  0  0  0  0  0
    7.5470    5.1281  -23.1760 C   0  0  0  0  0  0  0  0  0  0  0  0
    5.2839    4.8930  -24.0451 C   0  0  0  0  0  0  0  0  0  0  0  0
    7.2558    4.1993  -22.1593 C   0  0  0  0  0  0  0  0  0  0  0  0
    4.9883    3.9623  -23.0311 C   0  0  0  0  0  0  0  0  0  0  0  0
    6.4777    0.7119  -22.3406 C   0  0  0  0  0  0  0  0  0  0  0  0
    5.2489    0.2045  -20.3193 C   0  0  0  0  0  0  0  0  0  0  0  0
    6.6399   -0.6771  -22.5362 C   0  0  0  0  0  0  0  0  0  0  0  0
    5.4512   -1.1662  -20.5749 C   0  0  0  0  0  0  0  0  0  0  0  0
    5.9589    3.6304  -22.0506 C   0  0  0  0  0  0  0  0  0  0  0  0
    5.7625    1.1732  -21.2142 C   0  0  0  0  0  0  0  0  0  0  0  0
    6.3353    3.0117  -19.6104 C   0  0  0  0  0  0  0  0  0  0  0  0
    4.1049    3.4472  -19.3351 C   0  0  0  0  0  0  0  0  0  0  0  0
    5.5926    2.6684  -20.8973 C   0  0  1  0  0  0  0  0  0  0  0  0
    5.6239    3.8768  -17.3541 C   0  0  0  0  0  0  0  0  0  0  0  0
    6.1354   -1.5849  -21.6648 N   0  0  0  0  0  0  0  0  0  0  0  0
    5.3801    3.5430  -18.7627 N   0  0  0  0  0  0  0  0  0  0  0  0
    4.1868    2.9130  -20.5294 N   0  3  0  0  0  0  0  0  0  0  0  0
    2.9163    3.8517  -18.7479 N   0  0  0  0  0  0  0  0  0  0  0  0
    7.5176    2.8193  -19.3466 O   0  0  0  0  0  0  0  0  0  0  0  0
    6.7779    6.2121  -24.8786 H   0  0  0  0  0  0  0  0  0  0  0  0
    8.5314    5.5678  -23.2384 H   0  0  0  0  0  0  0  0  0  0  0  0
    4.5307    5.1532  -24.7740 H   0  0  0  0  0  0  0  0  0  0  0  0
    8.0250    3.9169  -21.4559 H   0  0  0  0  0  0  0  0  0  0  0  0
    4.0143    3.4969  -22.9991 H   0  0  0  0  0  0  0  0  0  0  0  0
    6.8966    1.4144  -23.0458 H   0  0  0  0  0  0  0  0  0  0  0  0
    4.7024    0.5157  -19.4413 H   0  0  0  0  0  0  0  0  0  0  0  0
    7.1806   -1.0258  -23.4036 H   0  0  0  0  0  0  0  0  0  0  0  0
    5.0524   -1.8973  -19.8873 H   0  0  0  0  0  0  0  0  0  0  0  0
    4.7035    4.2817  -16.9080 H   0  0  0  0  0  0  0  0  0  0  0  0
    5.9270    2.9703  -16.8097 H   0  0  0  0  0  0  0  0  0  0  0  0
    6.4242    4.6286  -17.2887 H   0  0  0  0  0  0  0  0  0  0  0  0
    3.4020    2.7004  -21.1115 H   0  0  0  0  0  0  0  0  0  0  0  0
    2.0528    3.7424  -19.2403 H   0  0  0  0  0  0  0  0  0  0  0  0
    2.9223    4.2529  -17.8319 H   0  0  0  0  0  0  0  0  0  0  0  0
  1  2  1  0  0  0  0
  1  3  2  0  0  0  0
  2  4  2  0  0  0  0
  3  5  1  0  0  0  0
  4 10  1  0  0  0  0
  5 10  2  0  0  0  0
  6  8  2  0  0  0  0
  6 11  1  0  0  0  0
  7  9  1  0  0  0  0
  7 11  2  0  0  0  0
  8 16  1  0  0  0  0
  9 16  2  0  0  0  0
 10 14  1  0  0  0  0
 11 14  1  0  0  0  0
 12 14  1  0  0  0  0
 12 17  1  0  0  0  0
 12 20  2  0  0  0  0
 13 17  1  0  0  0  0
 13 18  2  0  0  0  0
 13 19  1  0  0  0  0
 14 18  1  0  0  0  0
 15 17  1  0  0  0  0
  1 21  1  0  0  0  0
  2 22  1  0  0  0  0
  3 23  1  0  0  0  0
  4 24  1  0  0  0  0
  5 25  1  0  0  0  0
  6 26  1  0  0  0  0
  7 27  1  0  0  0  0
  8 28  1  0  0  0  0
  9 29  1  0  0  0  0
 15 30  1  0  0  0  0
 15 31  1  0  0  0  0
 15 32  1  0  0  0  0
 18 33  1  0  0  0  0
 19 34  1  0  0  0  0
 19 35  1  0  0  0  0
M  CHG  1  18   1
M  END
> <OMEGA_C>
BODRQNyCr0A548DByoDxQGgZpECEaLnB4RWpQE+TnEBfXMDBXy/oQPhghkBXRrHBQaCfQMqWfUCo
P7jBDknPQPY7Nj+TubLBEPenQJpiUT74jaLBp3nUQIlVLb8ZSrTBgnCuQERGlb9fmaTBYK++QLZY
aECmZ7DBQma4QFEslj/EtqnBCbvKQDXAQEAL4pzBKluDQCyeXEAwrprBb/ayQCDHKkCoLafB4vaz
QCAeeEAb1YrB+VTEQHLeyr+bUa3BrSmsQMzAYkD1GZbBFvqFQBRuOkAcPKTBdKU6QMiCdkC9+5XB
DpDwQN1uNEDixZrBv+TYQDDJxkBcB8fBtoAIQbUrskA06LnBKPuQQFXnpEAdMcbBj2YAQdWtekCp
pavB9XSAQAzNX0Ao/rfBP7HcQAQLtT/OXbjBJnqWQGQCBD/Nh5vBNMflQGVMg7+bOrvBTq2hQMXa
8r8aGZ/BzYKWQE8DiUCdQ4fBQ6q9QLUZPkBDeobBUpPNQK8dlEBaT4rBh7pZQJvSLEBq5KjB0GED
QC+Eb0AX7JnBdgc7QPQXiEDSp47B

> <OMEGA_E>
TO4gPw==

> <OMEGA_NBR>
     96486

$$$$
50213404
  -OEChem-04172616093D

 47 50  0     1  0  0  0  0  0999 V2000
    6.5122   -0.5401  -22.7852 C   0  0  0  0  0  0  0  0  0  0  0  0
    5.3362   -4.0451  -18.3136 C   0  0  0  0  0  0  0  0  0  0  0  0
    6.0648   -1.5161  -21.8760 C   0  0  0  0  0  0  0  0  0  0  0  0
    5.8017   -3.1549  -19.2930 C   0  0  0  0  0  0  0  0  0  0  0  0
    6.3498    0.8270  -22.4914 C   0  0  0  0  0  0  0  0  0  0  0  0
    7.2682    4.1986  -22.0924 C   0  0  0  0  0  0  0  0  0  0  0  0
    5.2419    0.2394  -20.4012 C   0  0  0  0  0  0  0  0  0  0  0  0
    5.0590    3.9146  -23.0308 C   0  0  0  0  0  0  0  0  0  0  0  0
    4.0341   -3.8820  -17.7949 C   0  0  0  0  0  0  0  0  0  0  0  0
    7.5853    5.0219  -23.1890 C   0  0  0  0  0  0  0  0  0  0  0  0
    3.6636   -2.0015  -19.1433 C   0  0  0  0  0  0  0  0  0  0  0  0
    5.4185   -1.1228  -20.6856 C   0  0  0  0  0  0  0  0  0  0  0  0
    4.9534   -2.1144  -19.7119 C   0  0  0  0  0  0  0  0  0  0  0  0
    5.7185    1.2270  -21.2843 C   0  0  0  0  0  0  0  0  0  0  0  0
    5.9683    3.6541  -21.9898 C   0  0  0  0  0  0  0  0  0  0  0  0
    5.4454    4.7307  -24.1048 C   0  0  0  0  0  0  0  0  0  0  0  0
    6.2843    2.9575  -19.5614 C   0  0  0  0  0  0  0  0  0  0  0  0
    4.0548    3.4129  -19.3137 C   0  0  0  0  0  0  0  0  0  0  0  0
    5.5637    2.6918  -20.8767 C   0  0  2  0  0  0  0  0  0  0  0  0
    4.4343    5.0445  -25.1769 C   0  0  0  0  0  0  0  0  0  0  0  0
    5.5481    3.8064  -17.3099 C   0  0  0  0  0  0  0  0  0  0  0  0
    3.2235   -2.8800  -18.2135 N   0  0  0  0  0  0  0  0  0  0  0  0
    6.6815    5.2823  -24.1618 N   0  0  0  0  0  0  0  0  0  0  0  0
    5.2892    3.2984  -18.6610 N   0  0  0  0  0  0  0  0  0  0  0  0
    4.1520    2.9415  -20.5322 N   0  3  0  0  0  0  0  0  0  0  0  0
    2.8806    3.9001  -18.7603 N   0  0  0  0  0  0  0  0  0  0  0  0
    7.4651    2.7573  -19.2977 O   0  0  0  0  0  0  0  0  0  0  0  0
    6.9812   -0.8403  -23.7106 H   0  0  0  0  0  0  0  0  0  0  0  0
    5.9679   -4.8468  -17.9604 H   0  0  0  0  0  0  0  0  0  0  0  0
    6.2158   -2.5640  -22.0891 H   0  0  0  0  0  0  0  0  0  0  0  0
    6.7892   -3.2663  -19.7158 H   0  0  0  0  0  0  0  0  0  0  0  0
    6.7063    1.5734  -23.1859 H   0  0  0  0  0  0  0  0  0  0  0  0
    8.0104    3.9853  -21.3374 H   0  0  0  0  0  0  0  0  0  0  0  0
    4.7346    0.5339  -19.4945 H   0  0  0  0  0  0  0  0  0  0  0  0
    4.0671    3.4882  -23.0036 H   0  0  0  0  0  0  0  0  0  0  0  0
    3.6748   -4.5725  -17.0461 H   0  0  0  0  0  0  0  0  0  0  0  0
    8.5722    5.4556  -23.2556 H   0  0  0  0  0  0  0  0  0  0  0  0
    3.0159   -1.1967  -19.4583 H   0  0  0  0  0  0  0  0  0  0  0  0
    4.8795    5.7316  -25.9116 H   0  0  0  0  0  0  0  0  0  0  0  0
    4.1334    4.1141  -25.6806 H   0  0  0  0  0  0  0  0  0  0  0  0
    3.5516    5.5169  -24.7212 H   0  0  0  0  0  0  0  0  0  0  0  0
    4.5923    3.9999  -16.8009 H   0  0  0  0  0  0  0  0  0  0  0  0
    6.1217    3.0597  -16.7412 H   0  0  0  0  0  0  0  0  0  0  0  0
    6.1250    4.7408  -17.3740 H   0  0  0  0  0  0  0  0  0  0  0  0
    3.3777    2.7745  -21.1427 H   0  0  0  0  0  0  0  0  0  0  0  0
    2.0384    3.9055  -19.2994 H   0  0  0  0  0  0  0  0  0  0  0  0
    2.8760    4.2462  -17.8221 H   0  0  0  0  0  0  0  0  0  0  0  0
  1  3  1  0  0  0  0
  1  5  2  0  0  0  0
  2  4  2  0  0  0  0
  2  9  1  0  0  0  0
  3 12  2  0  0  0  0
  4 13  1  0  0  0  0
  5 14  1  0  0  0  0
  6 10  2  0  0  0  0
  6 15  1  0  0  0  0
  7 12  1  0  0  0  0
  7 14  2  0  0  0  0
  8 15  2  0  0  0  0
  8 16  1  0  0  0  0
  9 22  2  0  0  0  0
 10 23  1  0  0  0  0
 11 13  2  0  0  0  0
 11 22  1  0  0  0  0
 12 13  1  0  0  0  0
 14 19  1  0  0  0  0
 15 19  1  0  0  0  0
 16 20  1  0  0  0  0
 16 23  2  0  0  0  0
 17 19  1  0  0  0  0
 17 24  1  0  0  0  0
 17 27  2  0  0  0  0
 18 24  1  0  0  0  0
 18 25  2  0  0  0  0
 18 26  1  0  0  0  0
 19 25  1  0  0  0  0
 21 24  1  0  0  0  0
  1 28  1  0  0  0  0
  2 29  1  0  0  0  0
  3 30  1  0  0  0  0
  4 31  1  0  0  0  0
  5 32  1  0  0  0  0
  6 33  1  0  0  0  0
  7 34  1  0  0  0  0
  8 35  1  0  0  0  0
  9 36  1  0  0  0  0
 10 37  1  0  0  0  0
 11 38  1  0  0  0  0
 20 39  1  0  0  0  0
 20 40  1  0  0  0  0
 20 41  1  0  0  0  0
 21 42  1  0  0  0  0
 21 43  1  0  0  0  0
 21 44  1  0  0  0  0
 25 45  1  0  0  0  0
 26 46  1  0  0  0  0
 26 47  1  0  0  0  0
M  CHG  1  25   1
M  END
> <OMEGA_C>
tWPQQCBCCr8uSLbBRcKqQI5xgcA9gpLBsRLCQF8Pwr8XAq/BgKe5QJfqScAVWJrBajHLQAq5Uz9d
7rPB+pToQA5bhkAwvbDB1r2nQI0YdT6yNaPBE+OhQIOJekArP7jBeBeBQDdzeMDpW47BHLvyQMOz
oEAgg7nBYnhqQNUYAMCRJZnBtmStQBC5j78wfKXBnIKeQLxRB8DnsZ3BOf62QMQOnT9QRqrBQfy+
QCTdaUAL66/Bz0CuQL9hl0C01sDBHBnJQJRHPUDVfZzBnMCBQLxtWkB5gprBGAqyQCxHLEB5A6fB
BOaNQO1soUBQasnBKYqxQHqcc0C/eorBgk5OQDdROMBRtZHB+87VQEIIqUBIS8HB9UCpQJ4YU0C2
SZXBydyEQCZBPEAIQqTBkFw4QIGbeUApFZbBQ+LuQBB3MEDBYZrB02XfQHkfV79Or73BtPi+QLgY
m8DRro/BPejGQCAZJMB4trDBf0HZQDcLUcDxuZ3BwJnWQIxkyT+mfLnBpioAQTAPf0D8sqrBcYGX
QHKwCD+u9JvByCWCQDM+X0BlB7jBkTBrQM1RksCDXojBuScJQYCUrkBuC7rBrQRBQGctmb+CqpvB
iCScQGlpt0D9Ss/BeUSEQMKmg0Dccc3BH01jQGyKsEAUxcXBcPSSQAv+f0BYaIbBz+TDQEDSQ0AF
7oXBtf/DQP+0l0D//YrBcixYQJ2QMUA/JKnBI3UCQB/zeUAoZZrBsxA4QIvgh0C2k47BWWfdQMff
Br/vN7TBMninQGRngMArp5HB+3bMQCpCwL/WSq3B1d25QO6kR8C9/JjBD6rUQGEpVj/XcrLBlByf
QMhOdkB7Z7jBS9ioQDuPej6wCaPBc7zlQKXJhkAmELHBgut3QOVqd8Cn3Y7BO5CqQD8ylUDwH8HB
pq1pQM7r/79zCprB2QCyQIhPjr/SsaTBKCCgQD4rBsCLQJ3B1fe5QG17nT9L0anBKea8QLWfaEA+
FrDBe/buQDvGoEC17bnBV4HKQK9vQUBsn5zBgGuDQFY8X0B2aprBX2qyQLRLLEB35KbBUrcNQYba
skDRC7vBkvOzQC3tdkBWg4rBbgJHQDElOMBKDZPBT7/RQNBxp0AcxcHBAmisQMYEZkCu6ZXBsYmF
QNFnOkAB1KPBaBc7QMKFeUBrrpXBV4HvQAulLkAVUprB6yHxQMshU79u5rrBWGq6QMi9mcD+LI7B
NbPTQIP1IsDzja7BHAXbQD/ITcClTZvBskziQNnKyj8Xq7fB0aZ/QHcPWUASE7jBJ2SUQIU3CT+Y
eZzBedP9QL8HgUCaCavBWaFbQDngkcBfQonBDp2TQIO9mkAsb8fBjmNCQIhjmr9/Pp3BEQQPQRtB
xEAHq8LB4u4QQc/myECmYLTBO3AZQXSamEAM6LrBeDiXQOMQikB6+YbBchS7QN1pOkBTYobB+TfP
QIdykUByo4nB3nZYQCI4KkCCSajBbGsDQD+9cEDEeJnB7hc8QIujikBOeY7Bfo3ZQPJq/b5M7bTB
Rj9MQMS/PcBBgZLBZmHIQISfvb9JKa7BXAdpQD4mAMCK0pnBNU7SQDvOXT/Vv7LBWL2fQFaqeECM
RLjBlIanQF2QgT6+M6PB+I/mQKCAhkBQ7LDBCiaCQB6jf8BLSI/BjuCrQATDlUAhC8HBxcK4QIAY
S8AEV5rBPlKvQDN1jb/fRKXBjnmeQDwlB8Du2Z3BpdG4QOofoD+53KnBIji9QJg9akAK5a/BHtXw
QHD4nkBJ/rnBmrDJQMDdQEDrVZzBGn2CQOLyXUBHPprBafqxQAqdLUDqv6bBVIIOQRICskAL2brB
V8SyQNhfeECVTYrBS4+qQHajgsBOJ5PBQJzTQHyxpkAexMHBEy6qQM6SV0A4GJXBQOqEQO4aPEAC
0qPB0Ls6QGTff0Dz6JXBhJPvQD6RNEBJRprBJVXsQKpeSL8WzrvBkuYLQOXIOsAjX4/BIl3OQH2p
IcDPxK/BwL8/QEzcmL9+UZzBty3gQOeezz8y27fBVSCAQF7dXEBc77fBwg2UQGwACT8ibpzBVz3+
QDoQgUAqx6rB60VuQKNfl8BFl4nBj/+UQCHlm0DDVcfByt7YQLC6UMDydJ3BNrMPQUXwxEAxPsLB
loARQWbQxkDB6LPBBHQaQcQpmEA3A7vBcUuUQHi4gkBBNobB0/nEQJJvSEDIvYXBlHrFQJPqmUDr
3YrB4ZxXQFMnLkCTdqjBHnkEQCR0f0DjJprBLmo7QP5ijEByio7ByrvMQKbUA79ybrbBksJaQGbU
PsB6dJDBWTm/QIFxvr8TDq/BfcRvQAoqAMBVDZjBfEzIQKTxWT/4AbTBZxPpQGt3hUAw4bDBscim
QF3oiT4zAqPBD7qhQHi+fUCrJbjBi/SKQGdYgMAfO47BLAL0QIKLnkBN07nBQZS7QJALSsCgxJrB
QSusQJYnjL+PUqXBSoKfQNBGBsBVXZ3BTHC1QFq3oD94MarBKde+QJB7a0CM36/BLpKuQN+HmEBM
ycDBGdzIQALhPkDgdpzByamBQK6+XED4TJrBBmGxQAphLkDq76bBVyWPQCTgoEAUr8nBvWSyQECP
d0BVforB3zWxQD6ZgsBpTZPBuRjXQPufp0CajcHBKWypQAyOVUAbMpXBnWuEQKqtP0D+G6TB2m84
QLI6e0D8u5XB/rfuQAQAMkBgcprBQYvaQOYpUb9S+b3BlvYdQCytPMB3WozBEW/DQGpTIsDP1rDB
fCJEQPbFmL+zyZnBnkfTQGdEzD/zobnBTl0AQW6afEAb16rBU0eXQLjTED/2qJvBG5qBQMFdZEBx
2rfBIemCQCdVmMBZWIjB0xgKQVLPqkAHibrBNvzZQNS6TsA/1Z7BmdeeQIGCs0AFCdDBveyDQFE4
gkDA+czBvWtnQFv8skC0icbBOBKUQBs3gkDlUobBMxPFQNxvSEAa64XB08bEQEqpmUCNNYvBVf5W
QHCDNkCO/qjBjzcCQOzne0Dd+5nBHKM4QFpFiEDjMI7B

> <OMEGA_E>
oEhOPcBIbj2g1Hk+iLKDPg==

> <OMEGA_NBR>
    100016

$$$$
50213414
  -OEChem-04172616093D

 46 49  0     1  0  0  0  0  0999 V2000
    6.4983   -0.5464  -22.7591 C   0  0  0  0  0  0  0  0  0  0  0  0
    6.0403   -1.5154  -21.8483 C   0  0  0  0  0  0  0  0  0  0  0  0
    6.3337    0.8224  -22.4777 C   0  0  0  0  0  0  0  0  0  0  0  0
    7.2791    4.1819  -22.1065 C   0  0  0  0  0  0  0  0  0  0  0  0
    5.1934    0.2502  -20.3984 C   0  0  0  0  0  0  0  0  0  0  0  0
    5.0611    3.9533  -23.0384 C   0  0  0  0  0  0  0  0  0  0  0  0
    7.6130    5.0012  -23.2015 C   0  0  0  0  0  0  0  0  0  0  0  0
    5.7494   -3.1858  -19.3113 C   0  0  0  0  0  0  0  0  0  0  0  0
    3.6500   -2.0041  -19.0889 C   0  0  0  0  0  0  0  0  0  0  0  0
    4.0927   -3.9288  -17.8402 C   0  0  0  0  0  0  0  0  0  0  0  0
    5.3797   -1.1167  -20.6672 C   0  0  0  0  0  0  0  0  0  0  0  0
    4.9196   -2.1135  -19.6906 C   0  0  0  0  0  0  0  0  0  0  0  0
    5.6850    1.2326  -21.2843 C   0  0  0  0  0  0  0  0  0  0  0  0
    5.9683    3.6625  -22.0033 C   0  0  0  0  0  0  0  0  0  0  0  0
    5.4536    4.7929  -24.0932 C   0  0  0  0  0  0  0  0  0  0  0  0
    6.2774    2.9699  -19.5802 C   0  0  0  0  0  0  0  0  0  0  0  0
    4.0503    3.4474  -19.3217 C   0  0  0  0  0  0  0  0  0  0  0  0
    5.5475    2.7044  -20.8888 C   0  0  2  0  0  0  0  0  0  0  0  0
    4.4719    5.0713  -25.2018 C   0  0  0  0  0  0  0  0  0  0  0  0
    5.5702    3.8750  -17.3391 C   0  0  0  0  0  0  0  0  0  0  0  0
    5.3272   -4.0720  -18.3850 N   0  0  0  0  0  0  0  0  0  0  0  0
    3.2509   -2.9213  -18.1828 N   0  0  0  0  0  0  0  0  0  0  0  0
    6.7106    5.2932  -24.1661 N   0  0  0  0  0  0  0  0  0  0  0  0
    5.2970    3.3648  -18.6868 N   0  0  0  0  0  0  0  0  0  0  0  0
    4.1408    2.9767  -20.5414 N   0  3  0  0  0  0  0  0  0  0  0  0
    2.8710    3.9012  -18.7511 N   0  0  0  0  0  0  0  0  0  0  0  0
    7.4502    2.7300  -19.3135 O   0  0  0  0  0  0  0  0  0  0  0  0
    6.9775   -0.8537  -23.6769 H   0  0  0  0  0  0  0  0  0  0  0  0
    6.1943   -2.5646  -22.0531 H   0  0  0  0  0  0  0  0  0  0  0  0
    6.7022    1.5630  -23.1721 H   0  0  0  0  0  0  0  0  0  0  0  0
    8.0174    3.9524  -21.3524 H   0  0  0  0  0  0  0  0  0  0  0  0
    4.6684    0.5521  -19.5042 H   0  0  0  0  0  0  0  0  0  0  0  0
    4.0666    3.5325  -23.0218 H   0  0  0  0  0  0  0  0  0  0  0  0
    8.6118    5.4057  -23.2731 H   0  0  0  0  0  0  0  0  0  0  0  0
    6.7243   -3.2993  -19.7619 H   0  0  0  0  0  0  0  0  0  0  0  0
    2.9962   -1.1860  -19.3528 H   0  0  0  0  0  0  0  0  0  0  0  0
    3.7665   -4.6471  -17.1026 H   0  0  0  0  0  0  0  0  0  0  0  0
    4.9545    5.6899  -25.9728 H   0  0  0  0  0  0  0  0  0  0  0  0
    4.1430    4.1209  -25.6473 H   0  0  0  0  0  0  0  0  0  0  0  0
    3.6012    5.6062  -24.7946 H   0  0  0  0  0  0  0  0  0  0  0  0
    4.6209    4.1159  -16.8382 H   0  0  0  0  0  0  0  0  0  0  0  0
    6.1067    3.1096  -16.7592 H   0  0  0  0  0  0  0  0  0  0  0  0
    6.1883    4.7822  -17.4090 H   0  0  0  0  0  0  0  0  0  0  0  0
    3.3636    2.8235  -21.1518 H   0  0  0  0  0  0  0  0  0  0  0  0
    2.0208    3.8809  -19.2773 H   0  0  0  0  0  0  0  0  0  0  0  0
    2.8706    4.2488  -17.8135 H   0  0  0  0  0  0  0  0  0  0  0  0
  1  2  1  0  0  0  0
  1  3  2  0  0  0  0
  2 11  2  0  0  0  0
  3 13  1  0  0  0  0
  4  7  2  0  0  0  0
  4 14  1  0  0  0  0
  5 11  1  0  0  0  0
  5 13  2  0  0  0  0
  6 14  2  0  0  0  0
  6 15  1  0  0  0  0
  7 23  1  0  0  0  0
  8 12  1  0  0  0  0
  8 21  2  0  0  0  0
  9 12  2  0  0  0  0
  9 22  1  0  0  0  0
 10 21  1  0  0  0  0
 10 22  2  0  0  0  0
 11 12  1  0  0  0  0
 13 18  1  0  0  0  0
 14 18  1  0  0  0  0
 15 19  1  0  0  0  0
 15 23  2  0  0  0  0
 16 18  1  0  0  0  0
 16 24  1  0  0  0  0
 16 27  2  0  0  0  0
 17 24  1  0  0  0  0
 17 25  2  0  0  0  0
 17 26  1  0  0  0  0
 18 25  1  0  0  0  0
 20 24  1  0  0  0  0
  1 28  1  0  0  0  0
  2 29  1  0  0  0  0
  3 30  1  0  0  0  0
  4 31  1  0  0  0  0
  5 32  1  0  0  0  0
  6 33  1  0  0  0  0
  7 34  1  0  0  0  0
  8 35  1  0  0  0  0
  9 36  1  0  0  0  0
 10 37  1  0  0  0  0
 19 38  1  0  0  0  0
 19 39  1  0  0  0  0
 19 40  1  0  0  0  0
 20 41  1  0  0  0  0
 20 42  1  0  0  0  0
 20 43  1  0  0  0  0
 25 44  1  0  0  0  0
 26 45  1  0  0  0  0
 26 46  1  0  0  0  0
M  CHG  1  25   1
M  END
> <OMEGA_C>
FvLPQIngC7+6ErbB7EnBQCT5wb9Nya7Bsq3KQAOIUj9S0rPBmu7oQHzShUA22rDBaDCmQBIegD7i
L6PBevShQFQDfUCZTrjBnp3zQAwKoECsnLnB4Pq3QJDkS8CffZrBH5ppQJBDAMD6tZjBrveCQHlx
e8CxuI7BliasQH7wjr9nVqXBYm2dQE9DB8Bzhp3Bguu1QNDEnT9RRqrBFvy+QMtlakDaBrDByIOu
QHdfmUDOvsDBZuDIQG8TPkAmpJzBMZyBQKmhXEDfkprBgoWxQDgULUArHKfBJRqPQOhHokA/ncnB
Bj+yQKb/d0CKtorBQHiqQKlNgsCUFJPBVQ5QQHv2OsBgdpHBML3WQD9iqUAsVMHBqICpQJ5YV0CY
fpXBVYGEQAiCPkDGVKTBKr43QOCseUBZApbBzmfuQA24LkAbgprBFEjfQDuPWr9Far3BXTfGQCUi
JMCxbLDBo3jWQOUOyD9lYLnBLEcAQbbzfEDK0arBVmOVQFxUDT+ECJzBiyGCQHoUYkCULLjBF8oJ
QVD7rEA+L7rBoS3XQIsoU8BYGJ7BDMI/QEHQl7+O0prBEg5xQCy1lMAv0ojBV4ueQJMTtkBDyM/B
SZOEQBLeg0CrLc3BrXpmQMFls0BsW8bBsd6TQBK1g0C6tIbBEWrDQOUCR0DnEobBaQbGQO8HmUCf
RYvBd0VXQDK0NEDJNqnB5FQBQOxfeEDRN5rBQLc3QD/2h0AUgo7BW8DbQBhEBL+qU7TBI0nKQOHg
v7+3kK3BNJLTQLBFWD8QYLLBqXSfQFN+dkAZWLjBgAanQAp0dD6kHaPBDe7lQPyghkDM5rDB8FKr
QPrwlECyGMHBeOO3QI2aTMB27pnBvqZoQIYHAcC3oJnBKpt9QN6QfMB8co/BXd+vQA1jj79n7KTB
Y36eQCj4B8BYiJ3BtMS4QBvenT8XwKnBaee8QJ/vaEB88a/B5+HvQN2Bn0CU67nB6r7JQIhxQEC+
YpzB/bSCQBUKX0BvR5rBnM2xQOe0LEDhvqbBEMcNQSrCs0BCnrrBkTezQNMDeUBaXIrBI7unQLfK
gsAn5ZLBShNKQL27O8D4s5LB7bzSQHeopkB2v8HBC3KqQACGWECSKJXBU9OEQL/EO0AqyKPBGoE7
QG3ZgECl8ZXBh3vvQAhvMkAFUprBnHnvQOTUTr8rB7vBxxTRQG3AIsAb/K7BHr3hQER7zD+EdbfB
oxKAQKmjWUBKDbjBQWaSQPQYBj+0kZzBgJv9QM93gUDVvarB8n+UQO2jmkACbcfBB0zYQBamU8Df
zJzBUndAQDVImb8ZL5zBoGlkQOl9lcCc34nBad0OQXX+xkDN98HBe1cQQVB8yEBCn7PBUhIaQcKT
mkCHxbrBGNSUQIatg0ApTIbB3NzEQCZbSECnx4XB44vGQL7XmUBm6YrB/ylXQJQ4LUCQWajB0PME
QL9dgEAqIJrBdrk8QFDWjUBSoo7B2tPOQGVwDL8rOrbBg0fAQH5pwr+k8q7Bfo/JQEuGUT/U8LPB
L5HoQPELhkD1mrDB+u2kQH62eD7CU6PB9G2iQCZKe0BffLjBW5jzQLK0oEAPQLnBWXBqQFTwAcCN
j5jBm7K4QKTiS8BPsprBvOuEQAgUfcBZs47BrzKrQNzQj7/SeqXB3nCdQHb4B8CbmJ3BmcW0QCP5
nD/MYqrBksu+QM6laUC5CrDBBq6vQIkImEDD8sDB+T/IQDaLPUDGuJzBKbCBQJRmYUAEy5rBCtOw
QNaiLEAQKqfB7PuPQLziokCjnMnBUO6xQLjrdUAMwIrBwNpSQM4KPcAcQpHBQiSsQMGMgsD2PpPB
0WDXQHp4qUA4KcHBR4GqQE6cZEA9IpbBGQSEQBB4P0CoXqTBoMg3QDbAfEBkGJbBdP/sQDJWKUAG
YJrB1BLeQE9/Wr9elr3BqT3FQO9QJMBgmrDB/2DVQI/Lxz/qebnBLMf/QE6jfUDWdqrBJNeTQGHD
Cj99NZzBFZmCQD9fYEB/drjBo6IJQWl3rkCak7nBpqU/QAcOnL8ti5rBZK/XQLwuUsC6cJ7BSFZ2
QBbQlcANzIjBqMKeQPwwuUB8VM/BLHKGQJZ2hUAc0M3B2ytnQC/ssUAJBcbB0JKVQL6hikB9T4fB
Bu63QPdPOUAoiIbBvt7NQIoUkEC73onBp8dVQMj8M0CCHKnBBHEAQEcZd0D5DJrBiZs4QGkQi0B2
wI7B

> <OMEGA_E>
0F0aPhAvGz6gTS8+

> <OMEGA_NBR>
    102692

$$$$
50161570
  -OEChem-04172616093D

 49 52  0     1  0  0  0  0  0999 V2000
    6.2479   -0.5337  -22.8651 C   0  0  0  0  0  0  0  0  0  0  0  0
    4.1178   -4.3317  -19.0787 C   0  0  0  0  0  0  0  0  0  0  0  0
    5.8806   -1.5045  -21.9180 C   0  0  0  0  0  0  0  0  0  0  0  0
    4.4997   -3.3793  -20.0407 C   0  0  0  0  0  0  0  0  0  0  0  0
    6.1488    0.8336  -22.5517 C   0  0  0  0  0  0  0  0  0  0  0  0
    4.2571   -4.0454  -17.7079 C   0  0  0  0  0  0  0  0  0  0  0  0
    5.0337    4.0714  -23.0146 C   0  0  0  0  0  0  0  0  0  0  0  0
    7.3130    4.0463  -22.2023 C   0  0  0  0  0  0  0  0  0  0  0  0
    5.3050    0.2619  -20.3375 C   0  0  0  0  0  0  0  0  0  0  0  0
    5.1637   -1.8497  -18.2561 C   0  0  0  0  0  0  0  0  0  0  0  0
    5.4655    4.8793  -24.0849 C   0  0  0  0  0  0  0  0  0  0  0  0
    7.6724    4.8579  -23.2949 C   0  0  0  0  0  0  0  0  0  0  0  0
    5.4073   -1.1129  -20.6443 C   0  0  0  0  0  0  0  0  0  0  0  0
    5.0200   -2.1269  -19.6367 C   0  0  0  0  0  0  0  0  0  0  0  0
    5.6770    1.2460  -21.2771 C   0  0  0  0  0  0  0  0  0  0  0  0
    5.9617    3.6672  -22.0282 C   0  0  0  0  0  0  0  0  0  0  0  0
    4.7942   -2.8115  -17.2900 C   0  0  0  0  0  0  0  0  0  0  0  0
    6.2801    3.0329  -19.5884 C   0  0  0  0  0  0  0  0  0  0  0  0
    4.0507    3.4863  -19.2927 C   0  0  0  0  0  0  0  0  0  0  0  0
    5.5332    2.7273  -20.8898 C   0  0  2  0  0  0  0  0  0  0  0  0
    5.5968    3.9067  -17.3193 C   0  0  0  0  0  0  0  0  0  0  0  0
    6.2678   -2.1705  -15.4850 C   0  0  0  0  0  0  0  0  0  0  0  0
    6.7581    5.2647  -24.2062 N   0  0  0  0  0  0  0  0  0  0  0  0
    5.3357    3.5848  -18.7329 N   0  0  0  0  0  0  0  0  0  0  0  0
    4.1278    3.0002  -20.5134 N   0  3  0  0  0  0  0  0  0  0  0  0
    2.8608    3.8463  -18.6694 N   0  0  0  0  0  0  0  0  0  0  0  0
    7.4542    2.7975  -19.3215 O   0  0  0  0  0  0  0  0  0  0  0  0
    4.9428   -2.5791  -15.9329 O   0  0  0  0  0  0  0  0  0  0  0  0
    7.2538   -2.8225  -16.1660 F   0  0  0  0  0  0  0  0  0  0  0  0
    6.3783   -2.4884  -14.1692 F   0  0  0  0  0  0  0  0  0  0  0  0
    6.4335   -0.8265  -15.6131 F   0  0  0  0  0  0  0  0  0  0  0  0
    6.6074   -0.8385  -23.8368 H   0  0  0  0  0  0  0  0  0  0  0  0
    3.7170   -5.2842  -19.3925 H   0  0  0  0  0  0  0  0  0  0  0  0
    5.9600   -2.5532  -22.1636 H   0  0  0  0  0  0  0  0  0  0  0  0
    4.3955   -3.6047  -21.0918 H   0  0  0  0  0  0  0  0  0  0  0  0
    6.4330    1.5743  -23.2845 H   0  0  0  0  0  0  0  0  0  0  0  0
    3.9508   -4.7748  -16.9727 H   0  0  0  0  0  0  0  0  0  0  0  0
    4.0008    3.7631  -22.9483 H   0  0  0  0  0  0  0  0  0  0  0  0
    8.0647    3.7151  -21.5011 H   0  0  0  0  0  0  0  0  0  0  0  0
    4.9361    0.5643  -19.3685 H   0  0  0  0  0  0  0  0  0  0  0  0
    5.5589   -0.8959  -17.9391 H   0  0  0  0  0  0  0  0  0  0  0  0
    4.7485    5.1991  -24.8265 H   0  0  0  0  0  0  0  0  0  0  0  0
    8.7021    5.1632  -23.4086 H   0  0  0  0  0  0  0  0  0  0  0  0
    4.6891    4.3312  -16.8657 H   0  0  0  0  0  0  0  0  0  0  0  0
    5.8814    2.9904  -16.7813 H   0  0  0  0  0  0  0  0  0  0  0  0
    6.4154    4.6387  -17.2553 H   0  0  0  0  0  0  0  0  0  0  0  0
    3.3407    2.8368  -21.1082 H   0  0  0  0  0  0  0  0  0  0  0  0
    1.9916    3.7413  -19.1526 H   0  0  0  0  0  0  0  0  0  0  0  0
    2.8744    4.2101  -17.7380 H   0  0  0  0  0  0  0  0  0  0  0  0
  1  3  1  0  0  0  0
  1  5  2  0  0  0  0
  2  4  2  0  0  0  0
  2  6  1  0  0  0  0
  3 13  2  0  0  0  0
  4 14  1  0  0  0  0
  5 15  1  0  0  0  0
  6 17  2  0  0  0  0
  7 11  2  0  0  0  0
  7 16  1  0  0  0  0
  8 12  1  0  0  0  0
  8 16  2  0  0  0  0
  9 13  1  0  0  0  0
  9 15  2  0  0  0  0
 10 14  2  0  0  0  0
 10 17  1  0  0  0  0
 11 23  1  0  0  0  0
 12 23  2  0  0  0  0
 13 14  1  0  0  0  0
 15 20  1  0  0  0  0
 16 20  1  0  0  0  0
 17 28  1  0  0  0  0
 18 20  1  0  0  0  0
 18 24  1  0  0  0  0
 18 27  2  0  0  0  0
 19 24  1  0  0  0  0
 19 25  2  0  0  0  0
 19 26  1  0  0  0  0
 20 25  1  0  0  0  0
 21 24  1  0  0  0  0
 22 28  1  0  0  0  0
 22 29  1  0  0  0  0
 22 30  1  0  0  0  0
 22 31  1  0  0  0  0
  1 32  1  0  0  0  0
  2 33  1  0  0  0  0
  3 34  1  0  0  0  0
  4 35  1  0  0  0  0
  5 36  1  0  0  0  0
  6 37  1  0  0  0  0
  7 38  1  0  0  0  0
  8 39  1  0  0  0  0
  9 40  1  0  0  0  0
 10 41  1  0  0  0  0
 11 42  1  0  0  0  0
 12 43  1  0  0  0  0
 21 44  1  0  0  0  0
 21 45  1  0  0  0  0
 21 46  1  0  0  0  0
 25 47  1  0  0  0  0
 26 48  1  0  0  0  0
 26 49  1  0  0  0  0
M  CHG  1  25   1
M  END
> <OMEGA_C>
e+7HQK6dCL+z67bB18SDQHWdisAsoZjB2C28QISTwL8UWK/B6/2PQKNGWMBtU6DBrsLEQGFnVT/u
abTB1jmIQKpzgcDXqY3BRRShQBZJgkDoHbjBuwPqQF57gUBOnrHBN8KpQFcThj4vs6LBbz2lQILE
7L9wDJLBguWuQJ8jnEDercDBgIT1QPBzm0DjW7rBlQitQBpyjr94J6XBCaSgQDkfCMD3F53BLqq1
QL19nz9zN6rBH8a+QP2yakDYObDBWWqZQCLvM8DtUYrBZPbIQKcaQkD/tJzBvJ+BQDAfX0BwV5rB
ARCxQGGLLkA3HqfBWRmzQAUHekAGjorBdZHIQNXpCsBpwnfBLELYQEx4qEA7psHB3L2qQOFtZUAI
3ZXBmhaEQIQDQEB1G6TB3Bc3QJMpdkDyWpXBb4juQOcKM0BxkprBzCueQMMQJcAt7X7Bex/oQOqj
NMDoU4HBPxvMQGFBH8AotWLB9t7NQICTU78nz3nBzm/TQIqoVr+9sb7BDuNtQHcYqcDcI5vBlri+
QI9nI8AeT7HBUKiMQDK0ZsD+u6jBC9vNQDeEyT+aRrrBpNl8QBjLmMAgyIfBeAaAQOvWcEAjlrfB
5wgBQdHEbUBNAqzBxvSdQPJ4ED/E8prBJ+KxQA9aZb9Dg4/BY/OXQPhepkCznMbB2jsLQd04pUDg
RLvBbQ2WQF2ZikDe7IbBVzS8QKtiP0AqQIbBG0vNQBpwlEDRCorBY81VQOaONUCc3ajBie3+Pw5y
b0CAOJnBN/Y3QDq5hkCA543B9YjoQBKZ8r4aULLBOLlqQLFBjMA2IqDBGUrQQKKlvL+iPq3BPBGO
QKYWWsBxZqXBoRjgQD5OYj9cQbDBA4pIQCnYg8DA7JXBbFSgQDIZdkB2arjBLwzoQIwGh0BcxLHB
WzOnQLxpej6o9qPBlEeFQDDB9L8IIJbBWIWqQLDnlEAWSsHBJR7wQJEmoEBk5LrB2ZKvQN5gj79+
96XBYCiWQFpTCsB3b6DBlaK+QAU2oT+NMqnBNCa/QJoJaUAnTrDBiOpXQPHuN8AA7ZDBsPvLQC5A
S0DSdpzBMpaDQCOQWkBdD5rBgAy1QKgjL0AWrabBgsmzQHTVgkBHnIrB/AG1P6oKK8DW1YXB3qfR
QNn3pkB2ZcLBSkWsQIXeakDJv5XB22uHQOjjOkAZwqPBGjo5QNDfaUDvCpXB3DzyQJ54RUB3Y5rB
3Mc2QF6VI8D0+4bBAkdCP7xOEcCQ2o7BbX6DPzZj77/QQnvB5rqIP/LsfMAhbYPBxdwAQTmmP7/5
zbfByv5eQCC9qsCZ7qPBM6vWQPztIMAR6q7BfeSaQDkbZ8CnQa3B7zrzQAOy0j+WE7TBZpEiQG/Y
m8D66JHBdSmBQKufWEC50LfBx3gAQTfngUCw6avBdXeOQEpJBD/xVZ7B4u6LQC/keL9JNZLB/IqS
QPNzmkDkWsfBaK4HQVFTrkAO7rvBT5KVQKsLjkBiEofBWgPAQDsRT0DL+IXBSmfLQOvtnEB7d4rB
ZJRdQG2XLEDJiqjBcHUCQMKkXEBG1pjBxvE3QL0OgUD4o43B

> <OMEGA_E>
nGzyPrQZEz8=

> <OMEGA_NBR>
    104650

$$$$
50215494
  -OEChem-04172616093D

 44 47  0     1  0  0  0  0  0999 V2000
    6.6481   -0.5450  -22.6858 C   0  0  0  0  0  0  0  0  0  0  0  0
    3.1472   -2.8951  -18.2308 C   0  0  0  0  0  0  0  0  0  0  0  0
    6.1596   -1.5151  -21.7917 C   0  0  0  0  0  0  0  0  0  0  0  0
    3.6328   -1.9687  -19.1707 C   0  0  0  0  0  0  0  0  0  0  0  0
    6.4611    0.8238  -22.4153 C   0  0  0  0  0  0  0  0  0  0  0  0
    3.9764   -3.9412  -17.7827 C   0  0  0  0  0  0  0  0  0  0  0  0
    6.6686    5.1784  -24.1323 C   0  0  0  0  0  0  0  0  0  0  0  0
    5.2614    0.2497  -20.3734 C   0  0  0  0  0  0  0  0  0  0  0  0
    5.7672   -3.1577  -19.2436 C   0  0  0  0  0  0  0  0  0  0  0  0
    7.5992    4.8639  -23.1282 C   0  0  0  0  0  0  0  0  0  0  0  0
    5.3661    4.6639  -24.0237 C   0  0  0  0  0  0  0  0  0  0  0  0
    5.4595   -1.1141  -20.6349 C   0  0  0  0  0  0  0  0  0  0  0  0
    4.9439   -2.1005  -19.6819 C   0  0  0  0  0  0  0  0  0  0  0  0
    5.7592    1.2309  -21.2514 C   0  0  0  0  0  0  0  0  0  0  0  0
    5.2859   -4.0699  -18.2876 C   0  0  0  0  0  0  0  0  0  0  0  0
    5.9489    3.6506  -21.9949 C   0  0  0  0  0  0  0  0  0  0  0  0
    6.3121    3.0032  -19.5796 C   0  0  0  0  0  0  0  0  0  0  0  0
    4.0780    3.4004  -19.2910 C   0  0  0  0  0  0  0  0  0  0  0  0
    5.5692    2.6982  -20.8731 C   0  0  2  0  0  0  0  0  0  0  0  0
    5.5983    3.8380  -17.3153 C   0  0  0  0  0  0  0  0  0  0  0  0
    7.2304    4.0975  -22.0833 N   0  0  0  0  0  0  0  0  0  0  0  0
    5.0300    3.8983  -22.9673 N   0  0  0  0  0  0  0  0  0  0  0  0
    5.3258    3.3079  -18.6564 N   0  0  0  0  0  0  0  0  0  0  0  0
    4.1613    2.9346  -20.5141 N   0  3  0  0  0  0  0  0  0  0  0  0
    2.9085    3.8792  -18.7215 N   0  0  0  0  0  0  0  0  0  0  0  0
    7.5178    2.9188  -19.3696 O   0  0  0  0  0  0  0  0  0  0  0  0
    6.3160   -5.3583  -17.7251 Cl  0  0  0  0  0  0  0  0  0  0  0  0
    7.1678   -0.8512  -23.5816 H   0  0  0  0  0  0  0  0  0  0  0  0
    2.1395   -2.8043  -17.8530 H   0  0  0  0  0  0  0  0  0  0  0  0
    6.3203   -2.5643  -21.9907 H   0  0  0  0  0  0  0  0  0  0  0  0
    3.0035   -1.1560  -19.5021 H   0  0  0  0  0  0  0  0  0  0  0  0
    6.8529    1.5658  -23.0953 H   0  0  0  0  0  0  0  0  0  0  0  0
    3.6085   -4.6457  -17.0515 H   0  0  0  0  0  0  0  0  0  0  0  0
    6.9482    5.8018  -24.9687 H   0  0  0  0  0  0  0  0  0  0  0  0
    4.7208    0.5504  -19.4881 H   0  0  0  0  0  0  0  0  0  0  0  0
    6.7654   -3.2668  -19.6411 H   0  0  0  0  0  0  0  0  0  0  0  0
    8.6107    5.2365  -23.1938 H   0  0  0  0  0  0  0  0  0  0  0  0
    4.6340    4.8820  -24.7872 H   0  0  0  0  0  0  0  0  0  0  0  0
    4.6488    3.9944  -16.7824 H   0  0  0  0  0  0  0  0  0  0  0  0
    6.2183    3.1213  -16.7569 H   0  0  0  0  0  0  0  0  0  0  0  0
    6.1324    4.7958  -17.4013 H   0  0  0  0  0  0  0  0  0  0  0  0
    3.3810    2.7646  -21.1160 H   0  0  0  0  0  0  0  0  0  0  0  0
    2.0598    3.8828  -19.2504 H   0  0  0  0  0  0  0  0  0  0  0  0
    2.9135    4.2211  -17.7817 H   0  0  0  0  0  0  0  0  0  0  0  0
  1  3  1  0  0  0  0
  1  5  2  0  0  0  0
  2  4  2  0  0  0  0
  2  6  1  0  0  0  0
  3 12  2  0  0  0  0
  4 13  1  0  0  0  0
  5 14  1  0  0  0  0
  6 15  2  0  0  0  0
  7 10  1  0  0  0  0
  7 11  2  0  0  0  0
  8 12  1  0  0  0  0
  8 14  2  0  0  0  0
  9 13  2  0  0  0  0
  9 15  1  0  0  0  0
 10 21  2  0  0  0  0
 11 22  1  0  0  0  0
 12 13  1  0  0  0  0
 14 19  1  0  0  0  0
 15 27  1  0  0  0  0
 16 19  1  0  0  0  0
 16 21  1  0  0  0  0
 16 22  2  0  0  0  0
 17 19  1  0  0  0  0
 17 23  1  0  0  0  0
 17 26  2  0  0  0  0
 18 23  1  0  0  0  0
 18 24  2  0  0  0  0
 18 25  1  0  0  0  0
 19 24  1  0  0  0  0
 20 23  1  0  0  0  0
  1 28  1  0  0  0  0
  2 29  1  0  0  0  0
  3 30  1  0  0  0  0
  4 31  1  0  0  0  0
  5 32  1  0  0  0  0
  6 33  1  0  0  0  0
  7 34  1  0  0  0  0
  8 35  1  0  0  0  0
  9 36  1  0  0  0  0
 10 37  1  0  0  0  0
 11 38  1  0  0  0  0
 20 39  1  0  0  0  0
 20 40  1  0  0  0  0
 20 41  1  0  0  0  0
 24 42  1  0  0  0  0
 25 43  1  0  0  0  0
 25 44  1  0  0  0  0
M  CHG  1  24   1
M  END
> <OMEGA_C>
bL3UQEqIC79vfLXBU2xJQAFJOcCj2JHBaRvFQKrtwb9+Va7B6n9oQFP/+7+FXZnBr8HOQOjlUj+U
UrPBiH1+QN08fMASQ47B4mTVQL61pUDfDsHBrV2oQN6ufz6i/KLBoIy4QF4YSsDZ8pnBryzzQP6k
m0CIBrnBTrerQL4+lUCNMMDBAbSuQBubjr9eFKXBkTSeQFRvBsCUdJ3BGEu4QFCPnT/EAqrByyWp
QPc8gsD1TJLBhF2+QDOjaUCY9a/BavzJQPMzQEDuopzBr36CQNifWUDkU5rB2zayQFqvLEAp/KbB
WSWzQKKhdUDFhYrBXF/nQKMeg0CGqrDBI/agQI9+eUAPvbfB8myqQP6zU0BKQJXBcSmFQJLQO0De
HKTBNiU6QPZEeECYxZXBlZHwQJnNOkDb9JrBoxzKQD53q8AVzY3BwF7lQF3lWb83p7zBSu4IQFx5
M8D20o7BuD/KQDgeJMAE7a/BmzlAQJf3k79PBJzB7ErbQDtryD9Gw7jB+/FmQIOplMBqaYjBV1fe
QASouUD5v8fB9hCXQGDkDD+Q55vBDn7YQAMUUcAKIZ3BocUJQbmRp0D9jLnB9UmUQHk5nEAbTMbB
MMOUQO6jf0BPQobBtvzGQM7CR0AVDobBxTzEQOF2mUD2NYvB/WJYQNnuMECL7ajBPNQDQM5/eEC6
AJrBy3Y6QA0Th0AEQY7BPNfUQP+sCb9/cLXB8CZJQLV1OsDsE5LBKUfFQDq4wL8TRa7BCWNoQPqZ
/L+/eZnB36nOQD6TVD+iTrPBSp1+QHsFfcD2do7Bb8LVQG50pEB9RMHB8FWoQFZchT5r86LBEgq5
QGKJSMCN15nBKxesQK70k0AiaMDBt1bzQAD7mkAdJbnBCsquQBsejb/aCKXBF2ieQPCgBcB6a53B
MDO4QLmcnj/+/anBZpCpQObdgcD8T5LBlk6+QCV/aUD9AbDBzA/KQEVcQUBas5zB8nmCQJD0W0B+
XZrBrhiyQMYwLUBp/abByyazQKdZc0BFY4rBCSChQMwTeEAu37fBrlXnQPACg0CitLDB/0GrQIqC
X0D+sZXBbxaFQFe/PEB5FqTBQkM5QO45dkBUmpXB+mPwQFdGOEBm6prBbOTKQIyjqsBwuo3Bco7l
QI49WL+Kl7zBeT4IQPuhNcB5K4/BpYfKQPmGI8B61K/B+N4/QKEKlb88JJzBpQzbQL4vyT8PxrjB
w9BmQHZ9lcDlvIjBztneQLr8t0DxBcjBFQWXQDfFDz9O35vB9UPZQExQTsDm4JzB/NaUQMxymkDy
lsbBcNoJQabppkBvqrnBdVyVQDMMhUAuqYbBqkC+QKxgOUDKPIbB0sTLQKO4kkA1yonB5hlYQAMp
MUDQ2qjBXBYCQLzwcUD5npnB6dU5QGS7hkAvJo7BF+TVQPCaB7/kUbXBLACrQMqggsAGZ5LBLzTG
QIVEwL9sNq7Bof25QBq1ScDi95nBfS3PQNMAVj9lNrPBDPyAQFKbfsAhZ47BIKnVQJaHpEDlPMHB
Q9WnQGGSgj6QBqPBTyRqQHe+/7/BYZnB8gfzQMqEm0C+CLnBJyesQH+Ok0Bld8DBLgOvQHzUjb/Q
D6XBYBafQLKsBsCLcZ3BRPW3QHGZnj/Z/6nBe/VLQMgsPMAs8ZHBLxq+QJGEaUAdAbDBQtrJQEe+
QUDNuZzBZJmCQHQoX0BGgZrBDd6xQKVCLUDB/abBySWzQE0LdkAkjorBKfnmQJuJg0AAmrDBQiah
QPIrd0AN8rfBQ4urQOvUZEDy8JXBKPeEQGZfPUBBGKTBtFk5QCpxeEDbspXBYsjvQDrNNECtx5rB
Pi3HP5hUNMAfGY3BxB/nQJzaVL/NaLzBoLS/QJMInMApqY/BsebLQBMuI8Cpwa/Bkg7aQMFHT8BX
HZ3BlLzbQA5Wyj/Zn7jB/+tqQGA9lsAVnojBWMreQLUSuEAC/cfBQMiVQPgCDT9VDJzBYxFBQJ+x
mL+v/ZvBlKMJQRnRp0DMfLnBuQ+VQNK6mUDrtMbBoyeWQGfqiEDY+IbB4Rq7QGzgOUAtcYbBxeTN
QMmokUCHt4nBqaNXQOhqMEAfxajBlNIBQBRQcUBJk5nBYyk6QNPniEDOWo7BGsPUQIT9CL/IbrXB
HYqqQPLfgcBzNZLBKDzFQKeewL+zRq7Beri5QL8zSMAiwJnB14LOQKIPVT/ESrPBaRWAQANdfsB9
eY7B9UnWQKVmpECEOsHBEM6nQJqwgz6A/6LB1nRoQLteAMAWl5nBFY+sQCoLlEB8ZMDB1bnzQCbp
mkBCE7nBfZquQAKIjb9kDqXBfJ+eQDUwBsDSap3Ba923QLeenj+jAKrBK7BJQH4fPcDkPpLBuHi+
QPu5aUA896/B++rJQDHCQEAIpJzBwmOCQH0bWkBaR5rBXwuyQKdJLUDI+KbBSESzQAPQdUAXfIrB
WWqhQBNueEA727fBLYrnQJQKg0CDorDBZHSqQC/NVEApQZXB2g+FQI0fPUCOGqTB4ag5QJU7d0D5
opXBgH7wQFfzOkAJ+ZrB70C/P7knOMDK8Y3BwoPlQMsVV7+7lbzBzW2/QD3LmsAsSI/BtaHKQPFt
I8Bt1q/BgBLaQAsDTcC6upzBg/zaQAiUyT9WvLjBGc5oQMYklsAit4jBoIjfQInWt0AJ/cfBQRaW
QNxNDj+o+ZvBQ0Q/QNeQmr+hTZzBFmeVQLuSmkBXmMbBAxEKQXvApkC+krnBtOWUQHY9gEBvPYbB
5LDGQLoTR0D3CobBUdTEQB9QmUA1GYvBkDJYQOgzM0Dz86jBdSkDQLvtdkC31JnBJfc5QCpGhkDs
F47B

> <OMEGA_E>
kMnKPlAGyz4oo8s+kFHKPg==

> <OMEGA_NBR>
    108025

$$$$
50215500
  -OEChem-04172616093D

 45 48  0     1  0  0  0  0  0999 V2000
    6.5410   -0.5361  -22.7497 C   0  0  0  0  0  0  0  0  0  0  0  0
    5.3826   -4.0389  -18.2609 C   0  0  0  0  0  0  0  0  0  0  0  0
    5.2806    4.7284  -24.1690 C   0  0  0  0  0  0  0  0  0  0  0  0
    6.1066   -1.5017  -21.8238 C   0  0  0  0  0  0  0  0  0  0  0  0
    5.8299   -3.1303  -19.2390 C   0  0  0  0  0  0  0  0  0  0  0  0
    6.3554    0.8343  -22.4840 C   0  0  0  0  0  0  0  0  0  0  0  0
    4.9168    3.9378  -23.0711 C   0  0  0  0  0  0  0  0  0  0  0  0
    4.0869   -3.9129  -17.7210 C   0  0  0  0  0  0  0  0  0  0  0  0
    5.2616    0.2705  -20.3812 C   0  0  0  0  0  0  0  0  0  0  0  0
    3.6913   -1.9538  -19.1154 C   0  0  0  0  0  0  0  0  0  0  0  0
    6.5949    5.2280  -24.2530 C   0  0  0  0  0  0  0  0  0  0  0  0
    7.1875    4.1884  -22.2390 C   0  0  0  0  0  0  0  0  0  0  0  0
    5.4590   -1.0956  -20.6395 C   0  0  0  0  0  0  0  0  0  0  0  0
    4.9871   -2.0796  -19.6609 C   0  0  0  0  0  0  0  0  0  0  0  0
    5.7111    1.2494  -21.2897 C   0  0  0  0  0  0  0  0  0  0  0  0
    5.8765    3.6725  -22.0692 C   0  0  0  0  0  0  0  0  0  0  0  0
    3.2380   -2.8769  -18.1587 C   0  0  0  0  0  0  0  0  0  0  0  0
    6.2971    3.0286  -19.6334 C   0  0  0  0  0  0  0  0  0  0  0  0
    4.0646    3.3954  -19.2871 C   0  0  0  0  0  0  0  0  0  0  0  0
    5.5301    2.7232  -20.9168 C   0  0  2  0  0  0  0  0  0  0  0  0
    5.6275    3.8315  -17.3423 C   0  0  0  0  0  0  0  0  0  0  0  0
    7.5188    4.9537  -23.3032 N   0  0  0  0  0  0  0  0  0  0  0  0
    5.3298    3.3259  -18.6881 N   0  0  0  0  0  0  0  0  0  0  0  0
    4.1287    2.9506  -20.5190 N   0  3  0  0  0  0  0  0  0  0  0  0
    2.8965    3.8258  -18.6770 N   0  0  0  0  0  0  0  0  0  0  0  0
    7.4966    2.8870  -19.4208 O   0  0  0  0  0  0  0  0  0  0  0  0
    1.6181   -2.7403  -17.5274 Cl  0  0  0  0  0  0  0  0  0  0  0  0
    7.0185   -0.8467  -23.6673 H   0  0  0  0  0  0  0  0  0  0  0  0
    6.0327   -4.8328  -17.9242 H   0  0  0  0  0  0  0  0  0  0  0  0
    4.5610    4.9524  -24.9426 H   0  0  0  0  0  0  0  0  0  0  0  0
    6.2687   -2.5513  -22.0197 H   0  0  0  0  0  0  0  0  0  0  0  0
    6.8163   -3.2371  -19.6657 H   0  0  0  0  0  0  0  0  0  0  0  0
    6.7045    1.5718  -23.1915 H   0  0  0  0  0  0  0  0  0  0  0  0
    3.9171    3.5370  -22.9920 H   0  0  0  0  0  0  0  0  0  0  0  0
    3.7444   -4.6108  -16.9713 H   0  0  0  0  0  0  0  0  0  0  0  0
    4.7589    0.5747  -19.4750 H   0  0  0  0  0  0  0  0  0  0  0  0
    3.0479   -1.1471  -19.4340 H   0  0  0  0  0  0  0  0  0  0  0  0
    6.8717    5.8445  -25.0954 H   0  0  0  0  0  0  0  0  0  0  0  0
    7.9407    3.9637  -21.4983 H   0  0  0  0  0  0  0  0  0  0  0  0
    4.6877    3.9862  -16.7919 H   0  0  0  0  0  0  0  0  0  0  0  0
    6.2505    3.1008  -16.8057 H   0  0  0  0  0  0  0  0  0  0  0  0
    6.1677    4.7865  -17.4207 H   0  0  0  0  0  0  0  0  0  0  0  0
    3.3366    2.7881  -21.1074 H   0  0  0  0  0  0  0  0  0  0  0  0
    2.0331    3.8081  -19.1813 H   0  0  0  0  0  0  0  0  0  0  0  0
    2.9172    4.1539  -17.7326 H   0  0  0  0  0  0  0  0  0  0  0  0
  1  4  1  0  0  0  0
  1  6  2  0  0  0  0
  2  5  2  0  0  0  0
  2  8  1  0  0  0  0
  3  7  2  0  0  0  0
  3 11  1  0  0  0  0
  4 13  2  0  0  0  0
  5 14  1  0  0  0  0
  6 15  1  0  0  0  0
  7 16  1  0  0  0  0
  8 17  2  0  0  0  0
  9 13  1  0  0  0  0
  9 15  2  0  0  0  0
 10 14  2  0  0  0  0
 10 17  1  0  0  0  0
 11 22  2  0  0  0  0
 12 16  2  0  0  0  0
 12 22  1  0  0  0  0
 13 14  1  0  0  0  0
 15 20  1  0  0  0  0
 16 20  1  0  0  0  0
 17 27  1  0  0  0  0
 18 20  1  0  0  0  0
 18 23  1  0  0  0  0
 18 26  2  0  0  0  0
 19 23  1  0  0  0  0
 19 24  2  0  0  0  0
 19 25  1  0  0  0  0
 20 24  1  0  0  0  0
 21 23  1  0  0  0  0
  1 28  1  0  0  0  0
  2 29  1  0  0  0  0
  3 30  1  0  0  0  0
  4 31  1  0  0  0  0
  5 32  1  0  0  0  0
  6 33  1  0  0  0  0
  7 34  1  0  0  0  0
  8 35  1  0  0  0  0
  9 36  1  0  0  0  0
 10 37  1  0  0  0  0
 11 38  1  0  0  0  0
 12 39  1  0  0  0  0
 21 40  1  0  0  0  0
 21 41  1  0  0  0  0
 21 42  1  0  0  0  0
 24 43  1  0  0  0  0
 25 44  1  0  0  0  0
 25 45  1  0  0  0  0
M  CHG  1  24   1
M  END
> <OMEGA_C>
2k/RQHg+Cb9d/7XBDz6sQEs+gcBYFpLBR/qoQBpPl0AqWsHB/GjDQKc3wL8ql67B8I66QG5XSMB3
6ZnBFF/LQDyWVT8337PBjFadQD8FfECukbjBnseCQLNsesCQxI3B1l6oQAWCij7BDKPByj5sQLYX
+r9v7JjBCAnTQGhLp0AsBsLBq//lQGIHhkB56bHBMbCuQBM8jL+qHaXB75WfQKYYBcCWSZ3BRMG2
QPTtnz9fUarBegy8QIcKa0CsjbDBqjpPQMIfOMAORZHBdYHJQEHUQUAmEZ3BSRGCQNVOWUDxS5rB
m/awQC1JLkCQVafBexS0QAk4dUD8vIrBA5rwQF+EnkD+bLrBv42qQOrbVEAwgZXBch6EQD/XPEDw
JqTBcV85QNHZdEB5apXB3ePvQJLEOEC3XZvB/B3PP1VgL8AnOIzBLJfgQJ6/WL+aVr3B+AvBQDem
msC2ZI/Bq/ORQDB6nkCAisfBFJnIQPpII8ByKLDBNx/aQEgtT8BfU53BJIvWQAoyyT81iLnBd7F6
QP1dYkCQ77fBc6RvQISLk8AoxYfBUEmYQNggEz/SzJvBYRBDQDPTkr/QeJvBCuXbQB8Gu0Blw8jB
Ixr+QPytfUCc/KvBxQGWQCgdf0DWVYbBbwTIQEt0RkAacobB1F3FQGQrmUCeXYvB2IpVQApxMkDd
26jB6R4CQIW4c0Bmc5nBwLI6QIbshEBL3I3Bb03RQPjBCL9NE7bB6I5QQCx+NsCVBZHB+7aoQHiR
l0AhN8HBjILDQLdgwL9Irq7BqE1tQGuq978SwJjB9FDLQMzEVT+m6bPBDSKdQMsXfECreLjBIQqD
QH8ZesCuwo3BPZqoQLBthz7LEqPBRDu6QADDScDpL5rBgdLSQG1pp0Dl5cHBrPPlQJ+LhUCm4LHB
k9yuQPHTjL9rLqXBAaifQLxjBcAQXp3BkM62QGppnz8QVKrBeOy7QFKgakAUfrDB8gSsQKDBgcD1
UJLBGWHJQOZMQUA9Bp3B/QeCQNePWkB7V5rBPNuwQNXRLUAcTKfBD9GzQCdqdEBprYrBS4TwQOYz
nkChXLrB92aqQKNXVUDqgZXBwviDQH86PEDJHKTB4q05QEkdeEAyjJXB2azvQNU8N0DGSJvBEUzN
QP1Qq8BpK47BtobgQFZoV7+pbr3BZn0RQLO1L8Dtlo3BY52RQE8En0C3XcfBvrfIQCpSI8AMRrDB
3qhEQJy8jr82KpvBxV3WQPCiyT+gkLnBJUV6QGd4YkDV1rfBME5wQI1nk8B/wofBwK+YQLjbED/9
ypvBdmbZQO3DUcB2yJ3BHp/bQHJju0CwmMjBnCP+QGUEfEA4AKzBgKuVQGV0f0BeWYbBbPnGQKxd
REBzYobBmt/FQAtbmECKLovBGChVQFCBMEA3wajBmG8CQBoWd0C2lZnB6Ug7QPU5h0CvDY7BuYXY
QO+mBr/aC7XBVDZEQIwYOMCL0ZLB1xLzQNMZoEBU9LnBsofHQBRIv7/dFK7B+IJmQL7T+L/oEJrB
kbDSQGjnVz+X4bLBf8HpQGKXhkCcB7HBjHx3QNqae8Du/Y7BWgyqQJwwjD554KLB2HO3QBAEScCe
3JnBEhHTQPhlp0Czr8HBGQeiQGimekDIOrjB0Q2wQLaei7/fAKXBvfedQPXzBMCXn53BCRm7QC5u
oD+VwKnBFi/AQD64akB4/q/Bk2WmQNvygcD1gJLBeEbLQA5eQ0BoZ5zBup+DQJqoXkDTmZrB1ni0
QAo+LkDZ16bBMEKyQLYpdkAkV4rB8JKrQEQLlkBSw8DBmgisQBN8ZUCmypXBiyuHQIwxPEDJHaTB
4fc5QAxXd0BSHJbB1X3wQOKNM0D0/JnBeDPGQDWcq8Brvo3BuRTqQGleVb/eEbzBf6ICQAArMsDC
MJDBBD0JQbMHrkCl5brBX3LMQLnZIsBVrq/BXJE/QD8ZkL/g6ZzBhzXgQJ/Dyj/pLrjBovQAQQc8
gED1DqvBymddQD2JlMAgXInBDyiYQC17Ez8+5JvBewPYQJzsT8A2oJzBYT3aQJRTu0CCg8jBTY2C
QDJ4XkDCqbfBELyUQIuViECE8IbBugu6QKDoOUALOobBF6zMQNnzkUCSRYnBfwddQNFoLUCS3qjB
9XoDQCEmb0AmLprB7bU4QOOqiEBMzY7BvrDZQCOwBb/X8bTBXnWkQGI7gsB+gZLBaujyQNs6n0Dm
OLrB5LXIQPpVv7+VAa7BbIK2QPKrSsA34ZnB+nHTQM7SWD9r0LLB2KvpQMtahkCDLbHBZ6dzQICr
ecDOEo/B2HmqQJIAij4I5qLBXbVmQJAa9b9oPJrBmrvSQCZTpkCL68HBmKmhQASJekCPMrjB5Nmw
QIQqjL8m/KTBwgieQJUlBcDdsJ3BNGy7QJR1oD//vqnBOAjAQHrdakAJ/q/B3V9CQNMaNcDhB5PB
vj3LQGd9QkCWTJzBwmSDQPY4WkCmXprBsIW0QLRELkC+z6bBbB2yQIaCc0B8IYrBzh2rQLFqlUBz
18DBOtmqQN4PVUD2FpXB3BqHQJ3HO0DbF6TBWYo6QC1Rd0BIBZbBRjnxQBG7OEA0JprBqNivP0rU
KMBxH4/BupHrQMSYU78m7bvBWEu3QM2NnMAreo/BqjIJQcDUrEDER7vBEPDNQETQIsAIlq/BDf/W
QCmHU8CEnJzBevrgQMl2yz/eGLjB4/oAQTY+gEBuOavBZRdYQGD9ksBXaInBLVOYQE+PET8+8pvB
ykhBQNWVir9WJJ3BV9/ZQIy4uUBB2MjBGxKCQBoNX0Alg7fBMCiTQEhRfUBKIIbBMtvEQCasQ0BW
sIXBRcrDQGoumED0XIrBBB5dQFduL0Dx/KjBTNkEQI/MdUDSXprBRTo5QHjphkCPiI7Bx1GZQI35
W7/lB7LBgAAWQTzycMD5B6LBNTr+QHjIh0CNMrzBgUa+QMQfy78cUK/BD0ADQcQxRMDZzqTBXEyW
QG4yAj8Pfq/B1+7vQJ6hWkDk2LPBi9QpQfYlRsDZxqHBv3vdQAxp2j5XmqfBoDwYQWIrg7+xHKfB
uI7hQNohpUDJ4cDB7iuqQKwQj0DnfrXBFt/gQCJocb8XKKrB3TAEQY0D2L/MXKfBiv23QDV6lD/g
+anBwhjFQDipYUAwVLDBe+4qQWri3L+2UKTB1PfKQChjQEBehJzBnTSDQKgcW0BYwJrBuXC0QMLO
KUCFEqfBdoCyQBo7e0B2u4rBy3y4QIpRqEBgiL3Bj7WqQMdDV0BocpXBrzqHQOeePUDbiaTBmbY5
QDgDeEBqbpbBvnDxQHo/QUCLjZrBHHxDQXo3ZL+tCaTBTll+QJUNrb9TFLbBri0VQZEcmsCtF6DB
5mwPQa+qhUDk/77BIDrAQGz0KMBZK7HBaCvoQFpLZcBc/aTBpDt0QPdjiD9xw7HBQrICQWwpLUAZ
KrDB+y84QTqWaMCgop/B+Ab4QMmpbD8xw6PB6ygZQQebzjzkFKnBe5rsQEiIuUBBScfBYEuJQKb9
kUBU77LB67iTQPzkg0ADw4bBhxzFQGpYTUB78oXBSoHEQKi2m0DGe4vBfb5dQE6TNUDsoKnBzFcE
QBUXd0BR2JrBReY3QFDdhkDL6I7BuE6ZQLZHXb/p8bHBOoMjQddq/7/rrpvB+Of9QGvAh0AOUrzB
CFa+QCVJy7+5Oq/BILIQQYCopb9kS57BKjWWQArrAD8Cba/BPcXvQMu3WkCl8LPBqwcqQcPLRcAN
96HBkazdQKCL3T55r6fB5usKQUQtMsB+gq3BSBzhQED3pED+AcHB4OWpQBjijkBDkrXBhu/gQMe9
cL8bGKrBkDkEQWhP179rQqfB6QG4QPGClD92/anBIvXEQA+UYUAFZrDB9bYdQZT7XsCV3arB/RTL
QNpwQEAzlJzB2lKDQHYRW0B0w5rBsnG0QEfUKUB1HqfB08qyQEFTe0Bhx4rBXhG4QGUVqEBZor3B
NOWqQLFeV0B1fZXB5kCHQDSXPUCrjaTBuv85QAvTd0BLapbBOpDxQAj0QEAEoJrB/bolQTLkmsBF
sLLB21l+QCkVrr/J+bXBEPMsQZS/2L9j3JTBcUAPQWquhUDHJL/BjVvAQAkOKcD0EbHBc7gLQQB/
6b5ecpnBqsZzQAlDhz8gprHB0KoCQQF7LUAsQLDBFHc4QVs/aMBi9p/BKHL4QAMwcD/uAqTBaY8B
Qbm8RcAcWbTB7wjsQHFRuUA4b8fBHAmJQBG+kUB2/rLBFQ2UQMX2g0DCyobB8GzFQGRpTUDzAIbB
q8/EQF2/m0AZiovBDbBdQIiFNUCOoKnBmIYEQHbMdkAdz5rBoFI4QC/FhkCL5I7B1WmZQPMRXL+I
/LHBPeEdQTHKXsBr0qrBlBj+QIQSiECBNbzBN3S+QEDIyr88Sq/B0A0LQZk6MsDRhK3BUkeWQAXm
AT/dbq/BI+XvQE8wW0Af2rPBGBMqQXhZRcBe5aHBy7rdQKqS3j6FsafB+5sQQYhupb/gS57BYFTh
QMpPpUC25cDBFQWqQCMYj0CPgbXBnwbhQMkxcL/0IqrB0kAEQXhG179nSafBMw64QC7blD8V+6nB
4AvFQMHuYUCGVbDBCm4jQbKN/r8so5vBiwLLQEVuQECAhZzBVT6DQGErW0A+vprBOHa0QMf6KUB0
FKfB/pSyQB9Ce0B7uorBukC4QBVgqEDui73BM8WqQExpV0Arc5XB/z6HQBy1PUBJiKTBgMc5QJ7x
d0B8aZbB33jxQCHcQEBoi5rBWHQyQYQ6v78OiZDB3JR+QCxUrb+1B7bBwPoiQTxMisDRm6/BbVwP
QRYMhkBtA7/BjH7AQJK/KMAXKbHBL8MBQRf+RcAuX7TBseNzQO/Dhz+lpLHB9LcCQbToLUCsKbDB
CIU4QaSTZ8D72Z/BzH34QLhvcD96AaTBUIkLQSdR6b5QdZnB3U3sQEe6uUBWTsfBwSGJQPDpkUBO
8rLB+c6TQL32g0C1wobBqSDFQFw/TUBW8oXBL6jEQC6wm0A2eIvBi75dQMmgNUDananBel8EQAny
dkCU0ZrB5P43QIzShkCo447B

> <OMEGA_E>
WDGePggvoD5AnaM+4N+kPtinZj/4qmY/JLBmPw==

> <OMEGA_NBR>
    113822

$$$$
50215503
  -OEChem-04172616093D

 45 48  0     1  0  0  0  0  0999 V2000
    6.7061    5.2675  -24.2423 C   0  0  0  0  0  0  0  0  0  0  0  0
    7.6543    4.9757  -23.2447 C   0  0  0  0  0  0  0  0  0  0  0  0
    5.3998    4.7556  -24.1437 C   0  0  0  0  0  0  0  0  0  0  0  0
    6.6177   -0.5411  -22.6624 C   0  0  0  0  0  0  0  0  0  0  0  0
    6.1028   -1.5008  -21.7721 C   0  0  0  0  0  0  0  0  0  0  0  0
    7.2972    4.1779  -22.1432 C   0  0  0  0  0  0  0  0  0  0  0  0
    5.0380    3.9575  -23.0450 C   0  0  0  0  0  0  0  0  0  0  0  0
    6.4461    0.8310  -22.4010 C   0  0  0  0  0  0  0  0  0  0  0  0
    5.6435   -3.1735  -19.2645 C   0  0  0  0  0  0  0  0  0  0  0  0
    3.5628   -1.9421  -19.1386 C   0  0  0  0  0  0  0  0  0  0  0  0
    5.2068    0.2804  -20.3734 C   0  0  0  0  0  0  0  0  0  0  0  0
    5.1122   -4.0928  -18.3382 C   0  0  0  0  0  0  0  0  0  0  0  0
    3.0870   -2.9109  -18.2324 C   0  0  0  0  0  0  0  0  0  0  0  0
    5.3899   -1.0899  -20.6258 C   0  0  0  0  0  0  0  0  0  0  0  0
    4.8593   -2.0788  -19.6739 C   0  0  0  0  0  0  0  0  0  0  0  0
    5.9754    3.6778  -22.0185 C   0  0  0  0  0  0  0  0  0  0  0  0
    5.7371    1.2540  -21.2475 C   0  0  0  0  0  0  0  0  0  0  0  0
    6.3079    3.0167  -19.5654 C   0  0  0  0  0  0  0  0  0  0  0  0
    4.0773    3.4506  -19.3045 C   0  0  0  0  0  0  0  0  0  0  0  0
    5.5794    2.7309  -20.8765 C   0  0  1  0  0  0  0  0  0  0  0  0
    5.5749    3.8437  -17.3030 C   0  0  0  0  0  0  0  0  0  0  0  0
    3.8566   -3.9574  -17.8465 N   0  0  0  0  0  0  0  0  0  0  0  0
    5.3145    3.3405  -18.6567 N   0  0  0  0  0  0  0  0  0  0  0  0
    4.1708    2.9849  -20.5257 N   0  3  0  0  0  0  0  0  0  0  0  0
    2.9044    3.9370  -18.7487 N   0  0  0  0  0  0  0  0  0  0  0  0
    7.4943    2.8435  -19.3071 O   0  0  0  0  0  0  0  0  0  0  0  0
    6.9816    5.8849  -25.0844 H   0  0  0  0  0  0  0  0  0  0  0  0
    8.6583    5.3653  -23.3251 H   0  0  0  0  0  0  0  0  0  0  0  0
    4.6743    4.9761  -24.9127 H   0  0  0  0  0  0  0  0  0  0  0  0
    7.1463   -0.8582  -23.5493 H   0  0  0  0  0  0  0  0  0  0  0  0
    6.2532   -2.5526  -21.9660 H   0  0  0  0  0  0  0  0  0  0  0  0
    8.0331    3.9446  -21.3880 H   0  0  0  0  0  0  0  0  0  0  0  0
    4.0382    3.5541  -22.9820 H   0  0  0  0  0  0  0  0  0  0  0  0
    6.8553    1.5640  -23.0805 H   0  0  0  0  0  0  0  0  0  0  0  0
    6.6411   -3.3074  -19.6559 H   0  0  0  0  0  0  0  0  0  0  0  0
    2.9412   -1.1048  -19.4195 H   0  0  0  0  0  0  0  0  0  0  0  0
    4.6536    0.5925  -19.5000 H   0  0  0  0  0  0  0  0  0  0  0  0
    5.7195   -4.9243  -18.0125 H   0  0  0  0  0  0  0  0  0  0  0  0
    2.0865   -2.8171  -17.8365 H   0  0  0  0  0  0  0  0  0  0  0  0
    4.6197    4.0226  -16.7877 H   0  0  0  0  0  0  0  0  0  0  0  0
    6.1604    3.1004  -16.7420 H   0  0  0  0  0  0  0  0  0  0  0  0
    6.1403    4.7853  -17.3644 H   0  0  0  0  0  0  0  0  0  0  0  0
    3.3943    2.8242  -21.1350 H   0  0  0  0  0  0  0  0  0  0  0  0
    2.0620    3.9460  -19.2875 H   0  0  0  0  0  0  0  0  0  0  0  0
    2.9005    4.2788  -17.8090 H   0  0  0  0  0  0  0  0  0  0  0  0
  1  2  1  0  0  0  0
  1  3  2  0  0  0  0
  2  6  2  0  0  0  0
  3  7  1  0  0  0  0
  4  5  1  0  0  0  0
  4  8  2  0  0  0  0
  5 14  2  0  0  0  0
  6 16  1  0  0  0  0
  7 16  2  0  0  0  0
  8 17  1  0  0  0  0
  9 12  2  0  0  0  0
  9 15  1  0  0  0  0
 10 13  1  0  0  0  0
 10 15  2  0  0  0  0
 11 14  1  0  0  0  0
 11 17  2  0  0  0  0
 12 22  1  0  0  0  0
 13 22  2  0  0  0  0
 14 15  1  0  0  0  0
 16 20  1  0  0  0  0
 17 20  1  0  0  0  0
 18 20  1  0  0  0  0
 18 23  1  0  0  0  0
 18 26  2  0  0  0  0
 19 23  1  0  0  0  0
 19 24  2  0  0  0  0
 19 25  1  0  0  0  0
 20 24  1  0  0  0  0
 21 23  1  0  0  0  0
  1 27  1  0  0  0  0
  2 28  1  0  0  0  0
  3 29  1  0  0  0  0
  4 30  1  0  0  0  0
  5 31  1  0  0  0  0
  6 32  1  0  0  0  0
  7 33  1  0  0  0  0
  8 34  1  0  0  0  0
  9 35  1  0  0  0  0
 10 36  1  0  0  0  0
 11 37  1  0  0  0  0
 12 38  1  0  0  0  0
 13 39  1  0  0  0  0
 21 40  1  0  0  0  0
 21 41  1  0  0  0  0
 21 42  1  0  0  0  0
 24 43  1  0  0  0  0
 25 44  1  0  0  0  0
 25 45  1  0  0  0  0
M  CHG  1  24   1
M  END
> <OMEGA_C>
l5jWQAqPqEAk8MHBt+/0QFA5n0As9bnBwsqsQC0umEA+JsHBIMTTQP6FCr+sTLXBLErDQLcbwL86
La7Bd4LpQKqxhUA5JbHBSjehQGNIfUAsXLjBZUbOQJG9VD9HNbPBlJe0QFQaS8C2HZrBigVkQBCY
+L/DG5nBWZ6mQMuLjz7M/KLB2ZajQN33gsCItJLBUJFFQMpLOsDf25HB0HmsQA2Di7+WAaXBon+b
QDILBcAiZJ3BJza/QJtha0DPJbDBHpa3QKaDoD/k+qnBU9rJQPwRQUAKhpzB/XiCQLPWXECMb5rB
UYqyQP3GLkAkA6fBnWWyQP3+dUB8bIrB8NJ2QIVGfcCNxY7BJBCqQEfLVUD1QJXBE3eFQNkIP0C0
NKTB7uA5QA/3e0Bq/ZXBY9HvQC/8NUD1dJrBIWnfQDhRvEDvrMjBmIgKQYywq0DEmbrBjpOVQDU8
n0BKTcfBGK7kQFS1W7/iZLzBexrIQMFdI8BMuq/BwocAQbN0fECXGqvByDiBQLl1Y0Ay27fB917b
QHYwyD/WpLjBL4TUQDSsU8BQP53BQT08QPVqjb8ZW5vBluqUQDOvFz/y/5vBIwa3QAiUncCbGZDB
lYkFQLNLNMBAsY7BeNSTQGG5gEAkTYbB0yHFQIBsRkCY74XBEX3EQAQhmUA26orBkTtZQFHANEB1
FKnBbvcDQNaLfEDnTJrBsqE5QKbriEDJeI7BgVvXQIQtqUCLwMHBxaL1QKT/nkBY0rnBkWCtQNE2
mUCcA8HBV8fSQJ5LC7/0bbXBRbXCQOp2wL8gQK7BlvDpQPQhhUDWF7HBHI+hQA2GfkAcUrjB4lnN
QNDiUz+xU7PBTrdlQPgP+r/H1pjBYJm1QAoFS8DiI5rBymimQKD4jT69/qLBXMBIQPElO8AxgpHB
1FWlQHsBg8DXpZLBkU6sQGPri7/hA6XB3gqcQJxSBcAZUJ3BYHG/QPo9a0ClIbDBSRy3QLMboD8V
CKrBx6HJQBdSQEDphZzB90+CQOz6XEBHeJrB8FyyQGWTLkBgCafBgCyyQNKYdUBgb4rBy916QJHP
fcC4h47B19ipQAp7VUA4RZXBaFKFQMt3P0AtQaTBk5E5QAQRfEDEA5bBcoPvQJ90NEBjbZrB4Frg
QH1EvUCvacjBQvYKQaQSq0BDcLrB1TaWQKPnoECcIcfBWFXjQMN5XL+vk7zBA4THQK+JI8Chzq/B
X7cAQWsPekC6FqvBjXeBQIEfZUCo37fB1SfaQDfCxz9gzrjBKEU9QBBvj79hAJvBm1LVQC8wU8CY
aZ3BN+WUQP3dFj87+pvBJC8JQO9+NcCjMI7BWh+5QBR9ncD+IJDBJJqTQN65gEAqVYbBWrXEQK/K
RUAR74XBCnfEQLLPmECI6orBxv1YQL/BNUByJ6nBNq4DQC/afEBSVJrBOU85QILaiEBqfI7BRC7V
QAg9qUBcwcHB9perQGpRmECq+MDBPc7zQM7Pn0BO2bnBlXDVQDWADL9eGbXBprnEQJqnwb8/DK7B
aoSgQLZPfEDBQbjBH9joQEvAhUCHGLHBg2PPQNJcUj/4CbPBYiG1QGwGTMC2C5rBaWRkQCh7/L8L
SJnB6aimQI9rhT5PAqPB1v6jQC5xg8AvqJLBVbNFQD5FPMB8DZLBTRitQOTVjb8V/aTBHO+bQBtw
BsCmbZ3BBb6+QHWEakBfF7DBSti3QJaDnj+j7anBObPJQEgoQEC8dJzBH5KCQIysXUCoeprBH2yy
QD2jLUC986bB9w6yQBOldUCHZYrB1S93QAa8fsA22o7BZNOpQOnCVECWMpXBTE6FQDpePUCdIKTB
rSY7QPtmgEDKOJbBo73vQLL5NUAmZ5rBD53dQD18vUC0bsjBGSqUQBRvn0CSEcfBT+YJQbidrEDH
gLrBHffmQI2FXL8FHbzB6vrJQEwNJMCBka/BO7yAQKFvYUApxrfBEE0AQU+CfECEG6vBL7XcQFV1
xz/VaLjBHjvVQDc3VMAkFJ3Bv2k8QI8Ukr/SnZvB2VaUQMRvET+8G5zBhYK3QG/ancDJ9o/BVEsF
QCK3NsCZ/o7BInWTQM1qgEBTR4bBA/3EQOaYRkCf34XBEurDQGIUmUBn8IrBIrJYQPYgMUAS5ajB
54oFQBVGgUAWlprBX2A7QDE0jEAryY7BSBPXQLlnqUB6s8HBUiGtQO5NmUCWAcHBDFX1QNsdn0Al
xrnBUJrTQBQHC7+DYLXB1qrDQE+UwL/OMa7Bek2hQNBVfkAsWbjBqp/pQOQThUCzFLHBnqnNQO7n
Uz8lUrPB3iRmQDJE/L/sApnByUe2QMDESsDdCZrBRGamQJ9hiz5fDKPBbudIQAZtPMA/uZHBwt2l
QCH4gsAylpLBjNesQAZrjL/PA6XBn42cQMuqBcBLVJ3BryS/QGgDa0A6J7DBowK3QBq2nz+PE6rB
7HTJQCQHQECklJzBV0aCQFY+XkC3iZrBxxCyQNNOLkCdEqfBrVuyQIaWdkCfg4rB9lR7QOyBfsDv
oI7BGdypQFLaVkBHXJXBsgqFQMZMP0DjQqTB0M05QKcefkBtFpbB1iXvQOA4MkBPdJrBcQ/gQG6v
vUCiU8jBRgGWQH8IoUAcIcfB580KQac9q0ADXrrBYnHkQDagW78zfbzBI+fIQKiII8CrtK/BOUCB
QE6yZEA177fB3IsAQWvGeUABFKvBqmLaQPL/xz/py7jB/HE9QDp8kr+4QpvBijzWQJBZUsBzMJ3B
P4iUQObiFD82FJzB990IQNZjN8B5iI7BQMe5QJI0ncBF+I/BvNuTQKQAgkAjdIbBKi/EQPjgRUBR
/IXB22nFQELVmEA5+YrBGDRYQNmzNEB0GKnBpa0DQC1ofkBHW5rBDQI6QABqikCxm47B

> <OMEGA_E>
/B6UPiBElj4AbJY+4IeXPg==

> <OMEGA_NBR>
    117249

$$$$
50215507
  -OEChem-04172616093D

 48 51  0     1  0  0  0  0  0999 V2000
    6.5111    5.1691  -24.2866 C   0  0  0  0  0  0  0  0  0  0  0  0
    7.4818    4.9765  -23.2861 C   0  0  0  0  0  0  0  0  0  0  0  0
    5.2398    4.5805  -24.1606 C   0  0  0  0  0  0  0  0  0  0  0  0
    6.8346   -0.5294  -22.6142 C   0  0  0  0  0  0  0  0  0  0  0  0
    6.3161   -1.5080  -21.7468 C   0  0  0  0  0  0  0  0  0  0  0  0
    7.1814    4.2044  -22.1513 C   0  0  0  0  0  0  0  0  0  0  0  0
    4.9374    3.8017  -23.0326 C   0  0  0  0  0  0  0  0  0  0  0  0
    6.5961    0.8353  -22.3602 C   0  0  0  0  0  0  0  0  0  0  0  0
    5.3078    0.2385  -20.3843 C   0  0  0  0  0  0  0  0  0  0  0  0
    5.7624   -3.1233  -19.2158 C   0  0  0  0  0  0  0  0  0  0  0  0
    3.6409   -1.9330  -19.2521 C   0  0  0  0  0  0  0  0  0  0  0  0
    3.8722   -3.7793  -17.8371 C   0  0  0  0  0  0  0  0  0  0  0  0
    5.5364   -1.1144  -20.6398 C   0  0  0  0  0  0  0  0  0  0  0  0
    4.9682   -2.0860  -19.7177 C   0  0  0  0  0  0  0  0  0  0  0  0
    5.8967    3.6262  -22.0039 C   0  0  0  0  0  0  0  0  0  0  0  0
    5.8211    1.2253  -21.2361 C   0  0  0  0  0  0  0  0  0  0  0  0
    5.2052   -3.9807  -18.2595 C   0  0  0  0  0  0  0  0  0  0  0  0
    6.3180    2.9853  -19.5518 C   0  0  0  0  0  0  0  0  0  0  0  0
    4.0798    3.3406  -19.2569 C   0  0  0  0  0  0  0  0  0  0  0  0
    5.5803    2.6783  -20.8517 C   0  0  1  0  0  0  0  0  0  0  0  0
    6.0628   -5.0322  -17.6064 C   0  0  0  0  0  0  0  0  0  0  0  0
    5.5834    3.7307  -17.2624 C   0  0  0  0  0  0  0  0  0  0  0  0
    3.1146   -2.7761  -18.3378 N   0  0  0  0  0  0  0  0  0  0  0  0
    5.3242    3.2424  -18.6212 N   0  0  0  0  0  0  0  0  0  0  0  0
    4.1658    2.8612  -20.4733 N   0  3  0  0  0  0  0  0  0  0  0  0
    2.9087    3.8215  -18.6926 N   0  0  0  0  0  0  0  0  0  0  0  0
    7.5117    2.8362  -19.3123 O   0  0  0  0  0  0  0  0  0  0  0  0
    6.7428    5.7702  -25.1534 H   0  0  0  0  0  0  0  0  0  0  0  0
    8.4596    5.4231  -23.3907 H   0  0  0  0  0  0  0  0  0  0  0  0
    4.4972    4.7278  -24.9308 H   0  0  0  0  0  0  0  0  0  0  0  0
    7.4159   -0.8247  -23.4752 H   0  0  0  0  0  0  0  0  0  0  0  0
    6.5138   -2.5542  -21.9276 H   0  0  0  0  0  0  0  0  0  0  0  0
    7.9317    4.0513  -21.3897 H   0  0  0  0  0  0  0  0  0  0  0  0
    3.9680    3.3332  -22.9481 H   0  0  0  0  0  0  0  0  0  0  0  0
    7.0031    1.5861  -23.0213 H   0  0  0  0  0  0  0  0  0  0  0  0
    4.7286    0.5281  -19.5199 H   0  0  0  0  0  0  0  0  0  0  0  0
    6.7780   -3.2587  -19.5572 H   0  0  0  0  0  0  0  0  0  0  0  0
    3.0359   -1.1248  -19.6359 H   0  0  0  0  0  0  0  0  0  0  0  0
    3.4478   -4.4417  -17.0972 H   0  0  0  0  0  0  0  0  0  0  0  0
    6.5608   -4.6039  -16.7241 H   0  0  0  0  0  0  0  0  0  0  0  0
    5.4324   -5.8787  -17.2967 H   0  0  0  0  0  0  0  0  0  0  0  0
    6.8216   -5.3824  -18.3217 H   0  0  0  0  0  0  0  0  0  0  0  0
    4.6297    3.8530  -16.7280 H   0  0  0  0  0  0  0  0  0  0  0  0
    6.2135    3.0058  -16.7263 H   0  0  0  0  0  0  0  0  0  0  0  0
    6.1017    4.6996  -17.3137 H   0  0  0  0  0  0  0  0  0  0  0  0
    3.3848    2.6496  -21.0609 H   0  0  0  0  0  0  0  0  0  0  0  0
    2.0598    3.8157  -19.2212 H   0  0  0  0  0  0  0  0  0  0  0  0
    2.9127    4.1743  -17.7569 H   0  0  0  0  0  0  0  0  0  0  0  0
  1  2  1  0  0  0  0
  1  3  2  0  0  0  0
  2  6  2  0  0  0  0
  3  7  1  0  0  0  0
  4  5  2  0  0  0  0
  4  8  1  0  0  0  0
  5 13  1  0  0  0  0
  6 15  1  0  0  0  0
  7 15  2  0  0  0  0
  8 16  2  0  0  0  0
  9 13  2  0  0  0  0
  9 16  1  0  0  0  0
 10 14  2  0  0  0  0
 10 17  1  0  0  0  0
 11 14  1  0  0  0  0
 11 23  2  0  0  0  0
 12 17  2  0  0  0  0
 12 23  1  0  0  0  0
 13 14  1  0  0  0  0
 15 20  1  0  0  0  0
 16 20  1  0  0  0  0
 17 21  1  0  0  0  0
 18 20  1  0  0  0  0
 18 24  1  0  0  0  0
 18 27  2  0  0  0  0
 19 24  1  0  0  0  0
 19 25  2  0  0  0  0
 19 26  1  0  0  0  0
 20 25  1  0  0  0  0
 22 24  1  0  0  0  0
  1 28  1  0  0  0  0
  2 29  1  0  0  0  0
  3 30  1  0  0  0  0
  4 31  1  0  0  0  0
  5 32  1  0  0  0  0
  6 33  1  0  0  0  0
  7 34  1  0  0  0  0
  8 35  1  0  0  0  0
  9 36  1  0  0  0  0
 10 37  1  0  0  0  0
 11 38  1  0  0  0  0
 12 39  1  0  0  0  0
 21 40  1  0  0  0  0
 21 41  1  0  0  0  0
 21 42  1  0  0  0  0
 22 43  1  0  0  0  0
 22 44  1  0  0  0  0
 22 45  1  0  0  0  0
 25 46  1  0  0  0  0
 26 47  1  0  0  0  0
 26 48  1  0  0  0  0
M  CHG  1  25   1
M  END
> <OMEGA_C>
81rQQCBppUD6SsLBMWvvQKs/n0DXSbrB1aynQNmTkkDRSMHBbrXaQMGJB7/V6bTBJR3KQEkGwb99
+a3BWs7lQB+KhkDENbHBXf+dQGBOc0DJQrjBNBPTQJfYVT+34bLBzdmpQP0+dD75EqPBOmW4QGjj
R8ADupnBPwRpQBlr979BBJrBhNJ3QKnfccB6so7BOSqxQHyjjr9hHqXBfvueQJSBBcDOvZ3B0bG8
QEAUaEACCLDBVUa6QCbVnD9546nBYJGmQCbDfsBuE5LBZS3KQMsOP0AhapzB/42CQPvLVUA5DprB
qJGyQHtoK0BW0KbBPQLCQHAHocD92YzB/6qyQPzDbkBdGYrBX1ZHQDCrMcDks5LBvl+qQCeDT0A0
+JTBUU6FQE0dN0A6yaPBRyg6QFaTdECFipXBEGDwQLKENUCMf5rBTMXXQNaluEAkOsnBeVoHQUCK
rUAUILvBKemPQMtJl0A0csfBak/tQGIgU78mzbvBS3HQQH94I8DTa6/BxND9QDSkgUAEHqvBcfN9
QGdTVUCelbfBrBngQHMGyz+ZK7jBGVGXQEcvBz/HKJzBYeXYQNSOUMAXdZzBH0xCQLz6j79eFp3B
2KhcQAQijsAPx4jBA/LRQMJSk8DzyoXBbNatQJ8evMCQX4rBV0raQN48rMC/kpLBgCaUQFGYdkD+
0oXBHNXGQDteQECGz4XB1EDDQBpjlkCGgorBAaFYQECSKUCnfKjBcNQDQNIzdEAKxZnBHmk6QLaT
hUA3Do7BS2fRQKr4pUB2PcLBMZuoQC9Dk0BGXMHBMB7wQKSXn0CnKLrB43naQEzwA7/LBrXBbf/J
QHEPv78/D67Bi26eQCiQdECUYbjBMgjmQKfEhkAjIrHBC7/SQLhfWT9SBLPB45GpQLNhgj4ZMaPB
nCu5QCymRcAMqpnBVKNpQAJN9r+CAJrBrS56QO8pcMAZiI7BGwyxQGuHjL99NKXBU0qfQI5JBMAz
wJ3Bwcy8QOjdaEASGLDB0e65QAadnj8vBqrBHsanQIZZfMB675HBFBfKQFL1P0C5lpzBsn6CQFpz
WUCzQJrBd1WyQEowLEAh7qbB4J/DQA2En8BfuIzBz7SyQF/+bUATNYrBONBIQEbhMMDomZLBMVur
QCDZX0CRq5XB4i+FQNWBOEDU36PBQa44QLRtcUApdJXBuTfvQIO/LUClWZrB6i3ZQP5IuUDfIsnB
giSRQI4dmEA/lsfB0b0HQS/NrUC/5brB5g3tQEK6T7+R6rvB9WnQQNV8IsCMe6/BH51+QDLmVkCE
ybfBq8D9QKOpgUAW+6rBLLPfQCDAzD+3UbjBOPeWQE+GCz98SpzBTbTZQPGtTcCWZpzB5jpCQBtN
kL+eH53BOLRfQH4sjcBviojBi57TQEuRkcAQs4XBi72vQMi7usBJL4rBm9vbQNqcqsDhd5LBWGuV
QDDIg0ByhIbBmDm7QOv6MEBIXobBsf7MQBEEjkACJYnBej5YQHPKKUC1fqjB1F0BQK3saUDvXZnB
QPM4QEcdhUAxFI7B9xrcQAYxoUDN+MHBNd/4QBqcl0Cqp7nBsgKxQCqQlEArM8HBTGXNQOgx/r6H
YbbBeaG9QOp1vb8oda/Bw6bqQERfgUBLjbDBOKCiQL2gfEBYHrjBs0zJQDbnWz9nrbPBIHijQIBn
fj49UKPBZCFyQJhUCMDEKpjBKV+/QMvjRcBhepvBnyqUQFCLgcCKTI7BwFCpQIjXjb+62KXBnc6f
QL0rCMC33Z3BlSu/QDukaUC9oK/BYPyzQBWhnz9LHqrBEmRmQMVWR8DeSZDBX4fHQDT/O0DLEZzB
XxWBQNP8YEB/TprBrWSwQOOALUABrqbBsiISQH/KTsBDfYrBPPqwQCNld0CVN4rBVWi5QMKegMA6
y5PBFxyoQK7lVUDJ9pTB3YmDQNmxQEAu+KPBeAo5QPkMg0CEEpbBzfPsQHZWLEBY2pnBFR/nQL5E
skDY9cjBK/gMQWlboUD3Q7rBzfeaQEv5m0Bel8fBm67cQNTMR78Pyr3BrArBQCeTIcD1e7HBBngA
QVWXc0DQOarBUJeBQNK+aEAimrfBpnPWQOSozj8e57jBgVCSQGK5Bj9dJpzBphBBQI/Wsr9cy5nB
qQbdQJOPRcA/6p/BWYGPQIu5mcCrPIjB6hfOP1YaecAfA4/B7/ocQBiracA6eILB0sbpP9sGD8BC
wInBz6WSQJagg0AON4bBKyHCQFS0RkCUhoXBBdDEQP+pmEBh24rB1hlVQPqNNkCzzajBXaMDQD+3
hEAxdprBQLI5QGDFjkDxoI7ByELcQGCcoEBUCMLB/BexQM5BlEDJO8HBY/r4QEIpl0CzsbnBiWzN
QKyD+b7RZrbBqWq9QFNuvL++h6/BpZmiQM60fECBHLjBkaTqQNxJgUDUi7DB1VvJQIvdXT/kqrPB
9yujQFg+gT4iXKPBDKRyQIZ5CMCcHpjBiYy/QOaSRcAMrJvBnV+VQH5JgcDqSI7BlfyoQBU2jb/f
7KXBTMGfQNYRCMBS9J3BgRy/QODbaUDnm6/B1NyzQJVLoD+PIKrB3H5nQLR8SMABWZDB8HrHQJIM
PEAfEJzBhQ6BQNR3YUDfTZrBK0+wQCq9LUBuqqbBGTMWQKjWTMCM4YnBZDaxQJxoeUBpSorBwEG6
QE9GgMBq65PBUS6oQAf1VkA7+5TBa3qDQOrqQECx86PByNU4QDcwg0DFFZbBSb7sQLIUK0BP05nB
lF/nQFxgsUD4DsnB/hSbQA+dm0CwosfBygsNQXe6oECkUrrBod/cQIf2RL8ky73BTLnAQM8DIcAt
l7HB94GBQE5AaUBtkrfB2m8AQUOzc0CfMqrBwKzWQDnPzz/O2rjB8uuRQHdKBz/MNJzByKtBQFIp
sr8hkJnBftncQFlcRcDvQKDB0YKRQIfkmMBwDIjBRADQP0f9dsAM7I3BenkkQP1nZsDh4IHBM5L1
Py1IDMCwHonB4POSQKz6hECYTIbBb0fCQAcCSUCJiIXBoS/FQNWJmUAVB4vBb/FUQIeZNkArxqjB
8mUDQLGmhEDweJrBPWk5QLYJj0Byp47BTi+IQEJ2gUCXB5DBjGm0QLPcckDexZDBCitbQFJ1dEDR
7ZjB/LDQQMVlgb+XHrjBVCjAQNJf479Uoq/BLjTGQD+XVUD6dJrBRWR+QKfyVkBknKLB60jQQIyN
yT5gjrfBVaSuQOPyij7Z+qXBJ26fQM5yub9O2pLBPEGLQDpfTcAmSJ/BV1N4QEkYX8AoCY3BSiav
QK/dkb/8d6bB6N2dQPYc+L82cp3BqPWrQL1TSUDgmKPBbSO/QIakhj9wfq7BQdiOQBdND8DpiYrB
G7+pQNmiS0BR8bfBLsDvQO6Vd0DDfrfBPGm/QEy6JUAJDa7BQjCPQItM3b9EQX7B+/zBQOUFlkDJ
98bBmJ11QLzVfMAjNZfBIfXHQHmMgEDZlrzBLPbrQGMwREAxN6/Bs/AKQUQej0C4k7rBzOCFQK3o
O0BEarvBT151QHoqjUBKoojBVb7IQBACfUD55onBEDEXQLICgEAYVJjBlbvdQCZgwL/qFb/B13LA
QDSyNsBDHrDBtRLoQC1gSECM7prBH/pUQG+LSkAvWqnBVyjdQGCCeT8EF77BeH+hQOkcQz8tBZ/B
4C6tQOkR9r5xK5HBlCaKQCkyZsA2V6fBdEFdQFqrgsAQr4bBU2ljQHl4lL8MKXvBMwSRQLIrJcB6
KHPBhRqrQFmtib/A3nvBIn3eQExIqUAA1sjBIkC9QPuve0CqQM3BGMGlQOL7qkAPksbBWQMCQW7g
M0BGWqrBZVMYQbPIiUD8ZrbBfEQLQUhaokDt98DB

> <OMEGA_E>
2JsmPkB+Kj7gdss+wJ/OPgvZij8=

> <OMEGA_NBR>
    121658

$$$$
50215509
  -OEChem-04172616093D

 44 47  0     1  0  0  0  0  0999 V2000
    6.6169    5.2236  -24.2396 C   0  0  0  0  0  0  0  0  0  0  0  0
    5.3198    4.6923  -24.1221 C   0  0  0  0  0  0  0  0  0  0  0  0
    7.5833    4.9492  -23.2546 C   0  0  0  0  0  0  0  0  0  0  0  0
    6.7146   -0.5638  -22.6431 C   0  0  0  0  0  0  0  0  0  0  0  0
    6.2166   -1.5375  -21.7579 C   0  0  0  0  0  0  0  0  0  0  0  0
    4.9861    3.8904  -23.0177 C   0  0  0  0  0  0  0  0  0  0  0  0
    7.2532    4.1507  -22.1456 C   0  0  0  0  0  0  0  0  0  0  0  0
    6.5117    0.8042  -22.3784 C   0  0  0  0  0  0  0  0  0  0  0  0
    5.2770    0.2226  -20.3598 C   0  0  0  0  0  0  0  0  0  0  0  0
    3.9402   -3.8639  -17.8416 C   0  0  0  0  0  0  0  0  0  0  0  0
    5.2532   -4.0113  -18.3413 C   0  0  0  0  0  0  0  0  0  0  0  0
    3.6372   -1.9879  -19.1791 C   0  0  0  0  0  0  0  0  0  0  0  0
    5.4870   -1.1414  -20.6184 C   0  0  0  0  0  0  0  0  0  0  0  0
    5.9415    3.6308  -22.0027 C   0  0  0  0  0  0  0  0  0  0  0  0
    5.7855    1.2087  -21.2284 C   0  0  0  0  0  0  0  0  0  0  0  0
    4.9527   -2.1339  -19.6820 C   0  0  0  0  0  0  0  0  0  0  0  0
    6.3095    2.9900  -19.5516 C   0  0  0  0  0  0  0  0  0  0  0  0
    4.0713    3.3864  -19.2854 C   0  0  0  0  0  0  0  0  0  0  0  0
    5.5809    2.6787  -20.8563 C   0  0  1  0  0  0  0  0  0  0  0  0
    5.5700    3.8242  -17.2918 C   0  0  0  0  0  0  0  0  0  0  0  0
    3.1479   -2.8588  -18.2736 N   0  0  0  0  0  0  0  0  0  0  0  0
    5.7376   -3.1510  -19.2619 N   0  0  0  0  0  0  0  0  0  0  0  0
    5.3149    3.3153  -18.6445 N   0  0  0  0  0  0  0  0  0  0  0  0
    4.1669    2.8931  -20.4959 N   0  3  0  0  0  0  0  0  0  0  0  0
    2.8907    3.8530  -18.7283 N   0  0  0  0  0  0  0  0  0  0  0  0
    7.4980    2.8290  -19.2950 O   0  0  0  0  0  0  0  0  0  0  0  0
    6.8713    5.8429  -25.0869 H   0  0  0  0  0  0  0  0  0  0  0  0
    4.5803    4.9009  -24.8810 H   0  0  0  0  0  0  0  0  0  0  0  0
    8.5804    5.3526  -23.3505 H   0  0  0  0  0  0  0  0  0  0  0  0
    7.2541   -0.8667  -23.5284 H   0  0  0  0  0  0  0  0  0  0  0  0
    6.3928   -2.5854  -21.9507 H   0  0  0  0  0  0  0  0  0  0  0  0
    3.9947    3.4688  -22.9414 H   0  0  0  0  0  0  0  0  0  0  0  0
    8.0022    3.9321  -21.3988 H   0  0  0  0  0  0  0  0  0  0  0  0
    6.9100    1.5478  -23.0527 H   0  0  0  0  0  0  0  0  0  0  0  0
    4.7189    0.5197  -19.4842 H   0  0  0  0  0  0  0  0  0  0  0  0
    3.5662   -4.5616  -17.1069 H   0  0  0  0  0  0  0  0  0  0  0  0
    5.8746   -4.8191  -17.9838 H   0  0  0  0  0  0  0  0  0  0  0  0
    3.0201   -1.1714  -19.5239 H   0  0  0  0  0  0  0  0  0  0  0  0
    4.6129    4.0024  -16.7799 H   0  0  0  0  0  0  0  0  0  0  0  0
    6.1560    3.0847  -16.7264 H   0  0  0  0  0  0  0  0  0  0  0  0
    6.1329    4.7672  -17.3551 H   0  0  0  0  0  0  0  0  0  0  0  0
    3.3898    2.6904  -21.0918 H   0  0  0  0  0  0  0  0  0  0  0  0
    2.0427    3.8248  -19.2575 H   0  0  0  0  0  0  0  0  0  0  0  0
    2.8872    4.2177  -17.7971 H   0  0  0  0  0  0  0  0  0  0  0  0
  1  2  1  0  0  0  0
  1  3  2  0  0  0  0
  2  6  2  0  0  0  0
  3  7  1  0  0  0  0
  4  5  1  0  0  0  0
  4  8  2  0  0  0  0
  5 13  2  0  0  0  0
  6 14  1  0  0  0  0
  7 14  2  0  0  0  0
  8 15  1  0  0  0  0
  9 13  1  0  0  0  0
  9 15  2  0  0  0  0
 10 11  2  0  0  0  0
 10 21  1  0  0  0  0
 11 22  1  0  0  0  0
 12 16  1  0  0  0  0
 12 21  2  0  0  0  0
 13 16  1  0  0  0  0
 14 19  1  0  0  0  0
 15 19  1  0  0  0  0
 16 22  2  0  0  0  0
 17 19  1  0  0  0  0
 17 23  1  0  0  0  0
 17 26  2  0  0  0  0
 18 23  1  0  0  0  0
 18 24  2  0  0  0  0
 18 25  1  0  0  0  0
 19 24  1  0  0  0  0
 20 23  1  0  0  0  0
  1 27  1  0  0  0  0
  2 28  1  0  0  0  0
  3 29  1  0  0  0  0
  4 30  1  0  0  0  0
  5 31  1  0  0  0  0
  6 32  1  0  0  0  0
  7 33  1  0  0  0  0
  8 34  1  0  0  0  0
  9 35  1  0  0  0  0
 10 36  1  0  0  0  0
 11 37  1  0  0  0  0
 12 38  1  0  0  0  0
 20 39  1  0  0  0  0
 20 40  1  0  0  0  0
 20 41  1  0  0  0  0
 24 42  1  0  0  0  0
 25 43  1  0  0  0  0
 25 44  1  0  0  0  0
M  CHG  1  24   1
M  END
> <OMEGA_C>
tb3TQJsnp0Ca6sHBHTyqQJQnlkAP+sDB/qnyQHxfnkBSCbrBKt7WQHhXEL8nJbXBRe7GQPjLxL8X
EK7B6o2fQPP8eEBZJLjBERroQErShEAYKrHB51/QQDfeTT/1BrPBSt2oQFz5Yz7g4KLBUCx8QNJJ
d8CTu47B/BmoQPdcgMDvupLBhMhoQOpy/r+2bpnBRZWvQPoZkr+T8qTBxSC+QHBeaEBvBbDBfSK5
QAy3mj/A06nB5HyeQGiSCMCqdJ3BLOfJQGpcP0CraZzBUEiCQJC6WECJSJrBupayQIFvK0C+2abB
yz2yQF7AdECVVYrB4ndJQPD2NsBlMJLBapq3QGiqScBUGJrBWROqQBEuVEDkJ5XBHFeFQEIoOUCY
96PB9AE5QAiXdkB505XBUu/vQN4NNUAtXJrBEeLbQGD5ukALssjBl5GSQPvTnEBRDMfBfEkJQdBI
q0DszbrB7CHoQFLdXb8VOrzBpJHMQFl3JcAJm6/BZql/QLkAXkAUiLfB3AgAQd6ne0C2MKvBIR/d
QNQfxj/pa7jB9QCXQJAIBT+u35vB9TtkQEb4kcD52ojB6fy7QPM1msDp3o/BFkpBQI3vlb/vMJzB
lJyTQJMTgEAnPYbBCf7EQCFrRUCpz4XB7kDEQNiMmEAu14rBPvJYQL0vLEDou6jB/bsCQLHJdEBO
D5rBdMc4QEj3hkCOYI7BLDjVQBEHp0Ct6cHB3MbzQBIRnkAw9bnBR3irQLmTlkANB8HBRe/UQBo5
Db9dfLXBlnTFQGVYw7+PWa7BFaPoQOjMhEB3FLHB4TOgQOlxekCFLrjBRN/OQF/vUD+gSbPBrpao
QGB3bj5H9aLBOnB9QKyHd8DH0Y7B9ESoQOrCgMDrFpPB5GlpQCc0/L+sQZnBxPSuQMTJkL9zGaXB
FHK+QIQ/aUAhAbDBMIO4QCwinD/D8qnBE1OeQH0ICMDwjp3Bo7XJQEz0PkAPbZzBYxiCQGNbWEBP
QprBm2ayQCYcLEAZ5abBMSiyQKdEc0BdTIrBoN5KQM05NsBFApLBrF+3QGENSsARdZrBJOmpQEde
U0CdJZXBfC+FQJ12OkDZBqTByp04QBN4dUD5upXBILPvQN4aNECOXprBRtPdQKmPukA4tcjBq+wJ
Qc+eqkArrLrBABGUQO1vnUA3JsfBMYTlQFuKWr/Gq7zBqMvKQMW+JMBV9K/BtikAQThWe0D/C6vB
ukaAQLBhYECGm7fBvUbbQNG+xz/GubjB7kWXQItyBz/A3ZvBahtmQKVFksB58ojBRR68QDz9msAL
cJDBFAhCQNQpkr/yzZvBsY6TQDt7fkBELobBY+nEQHOgQ0C404XBJTLEQDLOl0AawYrBra9YQJf8
LkBu3KjBVV8CQI1sdEBT+ZnBJ1g4QNPBhUBTOI7Bo87VQNT0pUDWHMLBCDT0QFj/nEBWHrrBTu6r
QG7XlUBdOcHBtLzTQOlzEr+kGbXBtIXDQAz7w7/b9K3Bj8DoQCAjhEB6MLHBVlugQIjGeUBwVLjB
DuvNQNlOTD90CLPB9eWlQJjIez6C3KLByn6DQFAdfsDygo7BOnpQQEiMOsCmqJHBkYq4QKzASsDR
2pnB3KOsQFiNj7+dzKTBLmi+QJCsaEDQGrDBeNK2QJgknD9n3KnBkFSdQKoHB8D4Bp3Bzn3JQPPm
PkAeeZzBmCeCQPa3WkAHQ5rB69qxQCuOLEBH6abBO72yQJVjdkA6cYrBs1irQON6gsB9m5LBmE9r
QFLz/r8pypjBQvepQLJgVEAWKpXB9uWEQA0JPUCfCqTBvkg5QAk7eUCivZXB/XLvQMoXM0B0dZrB
MaLeQC85uUAD8MjBcDIKQZg8qUA+17rBlaiUQC2mnEBwYcfBOrPkQCJGY78EMbzB0JTIQDVGJcBA
eq/BkCgAQRsQekDCH6vBg1KAQKk/YEBbwbfBfhTbQIcixD+pcrjBZp2TQJsSDj+B9ZvBTbtwQAlh
lsBCxojBLdUQQPUbNsCnVY7BKS/YQI7kT8DcRJ3BTliUQF8RgUDmQIbBCdfFQMbBR0Ce5YXBG5/E
QLhimUB/I4vBMNxXQB34MkBm4qjBNxoDQOpoeUCo/5nBY1U5QIOIh0CGOI7BhYHVQKbBpkDF68HB
X3SrQG4ll0Ap+8DB2jn0QIWenEDnF7rBKyjTQM5+E78PXbXBm7/DQPcIxb8GIq7BsvufQMhee0D/
K7jB6eToQCA0g0BWQbHBwkrNQGg9Sz/3QbPBSdemQPy4bz404qLBGHaDQJh4e8CZSY7BruxQQI4t
OMC1pZHBm7G4QMRVS8Do0JnBSHOtQAfwkL/I4aTBK1W+QFBKaEAbFbDBVg23QDMQmz+/76nB8NCd
QGSKB8DHIp3BTWbJQHpYPkBDepzBoR6CQGzuWkAeUJrBv8+xQKzlK0Az7qbBGnCyQFKcdECEYorB
2DyrQG/4gcA9ZJLBe0RsQA+B/b8m8pjBkdSpQGALVEAiMJXBAMqEQEIUPECkCqTBhG85QBg5ekAp
z5XBl0fvQA79MUCfbJrBpzjeQJ2MukAEqcjBJvuTQMS7nkAzCMfBM0kKQchhqEAA4LrBA4jjQLxz
Y7/bjLzBpfvIQJG8JcBhqa/BEqJ/QDWUYkCZjrfB81oAQc42dkChVKvBFsLZQAPpwz/7wLjBdSmV
QHYoCj+p35vBXWtwQCxOlMBAYYjBakYRQAGkMsCzWY7B/TzYQN3ZUcAfQJ3B1fiTQMppgED5P4bB
aADFQI7nREDs34XBo83EQBtBmEDi7orBC4xXQJwNMUAX1qjBOiADQDweekCnCprBN8o5QABziEAM
VI7BTdGOQLjBh0B814/BH5hnQN9ZYUDywpbB2uy5QGeYjkCloJLB6PnHQCUuhr/FxbfBJkC4QHJ7
4r808K7BqMuDQGJjQUAhgaDB8EbKQLADfEDwQ5zBVNTKQPxgtj4JVLfBFYqxQO54nj5l46TB+8h3
QDPZScCj/YrBbt2eQCJVEcBW3YnBeTxzQMlJLcAuQ53BMQ2tQLFJi78ieKXB0WavQOh6TUBwVaPB
o7O+QLAyhz819K3BMp2cQBf+6L8CJJzBRAyqQL7KTEAGZ7fBuhfxQInAcUAAFLjB+SDBQIIdJkCy
xq3B2z3BQCwBlEA7EcfBqzxTQC7AVsAzqZTBEnuuQIjizb8sbZLBBITIQHjVfUC0r7zBZAjuQFJ3
P0DAq6/BB6ELQX+bikCAr7vBJIGEQOHsQkCO/rnBjHqCQIo3lECGZYjBm5IlQGByVkDamJTBeYTO
QMegoEBNWo3BPeDRQD1Zyb8z6L7BPcW0QLbnNcCQaa/Bq3NdQJ1gH0Cw36XBan7rQC4Eg0CxS57B
flzWQG93Zz9aMb7BT+OqQA3QUT/RdJ3BqkFfQIETa8AQEITBeDqtQIDzB8AZGILBsy9XQGWQN8DI
DaXBHFXeQONRpUA9esnBVXO5QOl3d0DZIs3BYX+mQO20qkCoV8bBb2UDQRXkLECCKqvB7EwZQcl4
hECq0rfB/K4LQTt/nUCZJMLBmsmGQDTygECg9Y/Bwc+sQC6dUUBqx4/BcatmQHAYi0B7yZnBlYrS
QJydhL+1z7fBZv3AQM9f57/Req/BRIS/QBIDNkCEbpnBGGWFQPM4eUAKcKPBIQLSQH1bvT6FNrfB
6b6sQGLWcD7WIqbBIvZ4QKOwWcBD2YzB4B2OQOWkB8DVMIvBfn+LQEhuT8BHDJ/B2F+uQC37lb/q
habBqqWrQOQYSECpZKPB/Da/QCcngz+5Va7B2xqdQF7L+b+VcZ3BXZCqQEfcSEDD4bfBhkXwQDcy
dkCXA7fBclq/QHQ8JEAy0q3BNKHDQJYFlUDRvsbBqrB2QNxdfMCKv5bBQ/ydQPrdtL8pfJPBpOnI
QK/xfkCXWrzBgMXrQJS4Q0DEp67Br0oLQS1yjkAN87nBNcuGQPPOOEDZZrvBhhtxQJuri0CNjojB
3Ka7QGG6QUCkO4jBj+YsQD8QnkAT7JnBpnfgQFcVw78VsL7BOsDBQP2xOMDJ7q/BaT3dQDrGEkA/
QZnBahxsQM85hEA68arBmwzgQKMkdD/vk73B6SWdQBZmOD9beZ/BRopfQPIcfcD/JIbBWeuOQJKz
2b+UOoPB1fuKQFuzasBv/KbBjh3gQDiLqEA1c8jBrZ+/QP7CeUAqEs3BDzGnQCO9qUADe8bBwKIB
QSO7NEAVj6nBN34YQQeFiUCumbXByd0LQU1JoUDVaMDB

> <OMEGA_E>
UClYPpDTYT7QGbg++Kq5PrgGiz985Is/

> <OMEGA_NBR>
    126589

$$$$
50158052
  -OEChem-04172616093D

 57 59  0     1  0  0  0  0  0999 V2000
    6.7446    5.4335  -24.1712 C   0  0  0  0  0  0  0  0  0  0  0  0
    7.6766    5.0329  -23.1989 C   0  0  0  0  0  0  0  0  0  0  0  0
    5.4254    4.9442  -24.1233 C   0  0  0  0  0  0  0  0  0  0  0  0
    7.2885    4.1575  -22.1713 C   0  0  0  0  0  0  0  0  0  0  0  0
    5.0310    4.0680  -23.0928 C   0  0  0  0  0  0  0  0  0  0  0  0
    5.9493    3.6859  -22.0826 C   0  0  0  0  0  0  0  0  0  0  0  0
    6.2784    2.9468  -19.6636 C   0  0  0  0  0  0  0  0  0  0  0  0
    4.0612    3.4013  -19.2878 C   0  0  0  0  0  0  0  0  0  0  0  0
    6.5339   -1.6064  -21.2243 C   0  0  0  0  0  0  0  0  0  0  0  0
    7.0487   -0.6818  -22.3436 C   0  0  0  0  0  0  0  0  0  0  0  0
    5.0896   -1.2334  -20.8433 C   0  0  0  0  0  0  0  0  0  0  0  0
    6.9903    0.7951  -21.9130 C   0  0  0  0  0  0  0  0  0  0  0  0
    5.0095    0.2327  -20.3896 C   0  0  0  0  0  0  0  0  0  0  0  0
    5.5515    1.2201  -21.4689 C   0  0  0  0  0  0  0  0  0  0  0  0
    5.5015    2.7186  -20.9649 C   0  0  2  0  0  0  0  0  0  0  0  0
    6.3300   -1.6010  -15.7573 C   0  0  0  0  0  0  0  0  0  0  0  0
    7.4909   -1.0278  -16.5973 C   0  0  0  0  0  0  0  0  0  0  0  0
    7.7199    0.4841  -16.3408 C   0  0  0  0  0  0  0  0  0  0  0  0
    6.4645    1.3227  -16.6703 C   0  0  0  0  0  0  0  0  0  0  0  0
    6.7562    2.8411  -16.6133 C   0  0  0  0  0  0  0  0  0  0  0  0
    5.6375    3.6819  -17.2973 C   0  0  0  0  0  0  0  0  0  0  0  0
    5.3308    3.2722  -18.6965 N   0  0  0  0  0  0  0  0  0  0  0  0
    4.1174    3.0624  -20.5589 N   0  3  0  0  0  0  0  0  0  0  0  0
    2.8969    3.8060  -18.6428 N   0  0  0  0  0  0  0  0  0  0  0  0
    7.4757    2.7670  -19.4745 O   0  0  0  0  0  0  0  0  0  0  0  0
    7.0400    6.1159  -24.9544 H   0  0  0  0  0  0  0  0  0  0  0  0
    8.6920    5.3984  -23.2417 H   0  0  0  0  0  0  0  0  0  0  0  0
    4.7134    5.2415  -24.8790 H   0  0  0  0  0  0  0  0  0  0  0  0
    8.0159    3.8385  -21.4395 H   0  0  0  0  0  0  0  0  0  0  0  0
    4.0215    3.6846  -23.0724 H   0  0  0  0  0  0  0  0  0  0  0  0
    6.5589   -2.6488  -21.5747 H   0  0  0  0  0  0  0  0  0  0  0  0
    7.1807   -1.5010  -20.3408 H   0  0  0  0  0  0  0  0  0  0  0  0
    8.0902   -0.9469  -22.5780 H   0  0  0  0  0  0  0  0  0  0  0  0
    6.4248   -0.8200  -23.2390 H   0  0  0  0  0  0  0  0  0  0  0  0
    4.4370   -1.3773  -21.7171 H   0  0  0  0  0  0  0  0  0  0  0  0
    4.7528   -1.8843  -20.0230 H   0  0  0  0  0  0  0  0  0  0  0  0
    7.6813    0.9469  -21.0707 H   0  0  0  0  0  0  0  0  0  0  0  0
    7.3009    1.4245  -22.7601 H   0  0  0  0  0  0  0  0  0  0  0  0
    3.9585    0.4806  -20.1801 H   0  0  0  0  0  0  0  0  0  0  0  0
    5.6043    0.3513  -19.4719 H   0  0  0  0  0  0  0  0  0  0  0  0
    4.8957    1.1463  -22.3490 H   0  0  0  0  0  0  0  0  0  0  0  0
    6.2116   -2.6722  -15.9773 H   0  0  0  0  0  0  0  0  0  0  0  0
    6.5511   -1.4687  -14.6880 H   0  0  0  0  0  0  0  0  0  0  0  0
    5.3996   -1.0703  -16.0078 H   0  0  0  0  0  0  0  0  0  0  0  0
    8.4124   -1.5722  -16.3432 H   0  0  0  0  0  0  0  0  0  0  0  0
    7.2609   -1.1739  -17.6630 H   0  0  0  0  0  0  0  0  0  0  0  0
    7.9765    0.6299  -15.2811 H   0  0  0  0  0  0  0  0  0  0  0  0
    8.5531    0.8292  -16.9706 H   0  0  0  0  0  0  0  0  0  0  0  0
    6.1193    1.0643  -17.6823 H   0  0  0  0  0  0  0  0  0  0  0  0
    5.6756    1.0842  -15.9418 H   0  0  0  0  0  0  0  0  0  0  0  0
    6.8352    3.1473  -15.5597 H   0  0  0  0  0  0  0  0  0  0  0  0
    7.7100    3.0380  -17.1248 H   0  0  0  0  0  0  0  0  0  0  0  0
    4.7188    3.5833  -16.7003 H   0  0  0  0  0  0  0  0  0  0  0  0
    5.9561    4.7347  -17.3087 H   0  0  0  0  0  0  0  0  0  0  0  0
    3.3277    3.0398  -21.1720 H   0  0  0  0  0  0  0  0  0  0  0  0
    2.0354    3.8523  -19.1486 H   0  0  0  0  0  0  0  0  0  0  0  0
    2.9214    4.0505  -17.6735 H   0  0  0  0  0  0  0  0  0  0  0  0
  1  2  1  0  0  0  0
  1  3  2  0  0  0  0
  2  4  2  0  0  0  0
  3  5  1  0  0  0  0
  4  6  1  0  0  0  0
  5  6  2  0  0  0  0
  6 15  1  0  0  0  0
  7 15  1  0  0  0  0
  7 22  1  0  0  0  0
  7 25  2  0  0  0  0
  8 22  1  0  0  0  0
  8 23  2  0  0  0  0
  8 24  1  0  0  0  0
  9 10  1  0  0  0  0
  9 11  1  0  0  0  0
 10 12  1  0  0  0  0
 11 13  1  0  0  0  0
 12 14  1  0  0  0  0
 13 14  1  0  0  0  0
 14 15  1  0  0  0  0
 15 23  1  0  0  0  0
 16 17  1  0  0  0  0
 17 18  1  0  0  0  0
 18 19  1  0  0  0  0
 19 20  1  0  0  0  0
 20 21  1  0  0  0  0
 21 22  1  0  0  0  0
  1 26  1  0  0  0  0
  2 27  1  0  0  0  0
  3 28  1  0  0  0  0
  4 29  1  0  0  0  0
  5 30  1  0  0  0  0
  9 31  1  0  0  0  0
  9 32  1  0  0  0  0
 10 33  1  0  0  0  0
 10 34  1  0  0  0  0
 11 35  1  0  0  0  0
 11 36  1  0  0  0  0
 12 37  1  0  0  0  0
 12 38  1  0  0  0  0
 13 39  1  0  0  0  0
 13 40  1  0  0  0  0
 14 41  1  0  0  0  0
 16 42  1  0  0  0  0
 16 43  1  0  0  0  0
 16 44  1  0  0  0  0
 17 45  1  0  0  0  0
 17 46  1  0  0  0  0
 18 47  1  0  0  0  0
 18 48  1  0  0  0  0
 19 49  1  0  0  0  0
 19 50  1  0  0  0  0
 20 51  1  0  0  0  0
 20 52  1  0  0  0  0
 21 53  1  0  0  0  0
 21 54  1  0  0  0  0
 23 55  1  0  0  0  0
 24 56  1  0  0  0  0
 24 57  1  0  0  0  0
M  CHG  1  23   1
M  END
> <OMEGA_C>
FNTXQADfrUCYXsHBoKb1QGcNoUBMl7nBzZytQCY3nkCV/MDBxTvpQCcKhUDRXrHBl/2gQBYtgkAi
vrjBb2C+QDjla0AgqbDBCenIQKaXPEAHT53BuPWBQBauWUByTZrBxRXRQBefzb9Jy6nBi47hQAiN
Lr/Lv7LBtd2iQB7hnb8tv6bBobDfQKCMSz/sTa/BJ06gQOg/bj4AHqPBLqaxQB4tnD9kwKvB9guw
QDD+LUAOuKfBRY/KQBPtzL8ZHnzByLXvQK6Pg79Fx4TBbAn3QLTf9z7guYLB2NzOQK9PqT/UXIXB
8zLYQGXVNUD754TBOma0QPqka0DLYIrBj5WqQKxrUUBykpXBw8GDQOj+Q0CXeKTBwmY5QPaUc0CM
JJXBGDnvQLEWMUC4y5vB90fhQLa1w0CSosfBURILQU2/rEAA77nBy9OWQKq6p0ApCMfBEEEAQUWp
dUAAhKvBLLCAQJvQa0BJlLjBM+LRQOuFKcAEmazBLsjlQPohwL/huaLBcnEBQZ5mcr/Pn7TBu5fN
QEvoUb+H6bnBg/uNQE9LsL+SvK3B5RaYQOIw8b8gL6DBD831QExrcj/ZkKjBzaDpQHdUtj+qFLbB
zVh9QHMW9j7PcKHBWFazQB7hsz6IxpvBhqmcQFO5kj+nyrLBQMXGQPEFK8Avo3/BsqLRQCr9u7/g
AWvBMsmsQN4Aib/wD4DBNpkGQUQ9yb/XvoLB7FjoQPhAlr/XTY3BIT//QLw/IT9Gf3TBltkIQZNH
VD+4w4fBD9HDQL87iD9TdY3BrJ61QBPGij9vEX/B/LnaQJNsSUBv9HjBBrj2QDFuQkCI/4jBvwCX
QH5VZUAvmoXBkpi+QNKCl0AmeIrBV/lUQOKMQkA3YKnBs0QCQASMdkBCMJnBm/g6QBKegUBiY43B
CNjTQP5zsUBwfsDBfPXxQDmSpkBEnLjBPE2rQAXcnUAYicDBHGLnQA6KiECZsLDBYoqgQKaBf0C5
nrjBsAW+QAjIakBMcLDBejnJQAjsPEDxY53BSEmCQEwNXEB2nprBGFfSQFYt0L/xgarB3PzaQOTT
ML+mFrTB/J6oQPCVn7/qsaTB9incQICEST8onrDBxFupQCgJaj4aQaHBcLCxQIP3lj8+AqvBDH6w
QBIXLECSjqfBLPriQJiWEj6jq2bB+54DQdy7ez+9m3DB+VEBQejeH0DcWWvBQgbZQHr6SUBH0HPB
bO7VQGqPPEDS64XBWryzQGQUdUAxCIvBlMGqQPbNVkBZ7JXBgBKEQBoTQEBZeaTBUYI6QCygeEAn
p5XB+DDvQHhrLECc/ZvBX87bQGjfyEAbh8bBxpwIQcxLtUBopLjBm1yUQOH5pUC7q8bB/9X+QMy4
f0DkuarB5o+BQBrlYEBGyrjBhLfPQDNJKsALbq3Bwy3tQFnGxr8U2KTBDP35QISddL+orbfBMXPB
QCwYU7+jDLrBBGONQAmstL+7HKrBNgClQPyy8L8kj53BQPH2QCZxcD+JCavBnrfgQFj6tT8nt7fB
AVOKQCvp9z7io53Bye/CQFNyvj6LUZvBKpGXQMrngj++xbDBTpfnQOqNar9Dz2rBOHfjQGp2hD5o
K1XBGPzDQGmh+T6x72zBCgcTQVMUID8PUWrBe0kDQdKpWj+sCoHB4a4BQa1ZJ0C52lnBnAUPQWfA
QUAYcXLBli69QBuOLED08mvB05vZQJF5h0BHTHDBdRT1QHTBS0CnjYnB0vvNQOw/8j93e4fByEiW
QCQcckAMOobBNz6/QOXHm0CZWovBBmdVQCEsOUC/RanBSgwDQA+xeEAvpZnBwpI8QIKUhkCPFI7B
9TnSQIyDsEBy5cDB4ZXwQCojpkAJAbnB3KKpQOcPnUBNwcDBjT3mQAnMiEAT3rDBaDafQCAjf0Ap
qrjB3gG9QChza0BGebDBjqzIQMKNOECyMp3BIkmCQJpQWUDRh5rB1dvVQIhxyb8IpqrByTPdQI+f
JL/UT7TB7xarQEEjob+3GaXBKTbcQNRmVj/D+rDB5X6pQE+SWD5HqKHBv3WxQPnflz/OT6vBzy2w
QG/NK0Dzm6fBl+oPQcya0kDUbn/B2Gj1QIfE6UC5O4LBlW3kQE9930BdlY3BdQzcQIaer0ASp4/B
UKO4QG3xnEAqU4jBIlqyQIl5WUChRorBK1+pQCRmR0DVkJXBS9mDQAI7QECegaTBTP08QFD+fECl
uZXBX8TuQCycK0A3cpvB9xPaQBhpx0ArEMfBIfQHQXe5tECzMLnB5XOSQEPIpEB43cbBd8/9QD+4
gEBF4arBQDiAQOqNYEBPsbjBHXfVQHODJ8CPba3BthjwQFnot7+z4qTB+5P8QJl9Xr8R3rfBc+zD
QMNeUr85RLrB06iQQBPUur+1r6rB362nQFUi879m/53Br+32QMOGhD8TeavBy6LfQG+luz+fJrjB
6cqJQCpt2D4dOp7BJkPCQMYRxT5Uj5vBr16XQPzVhD8WGbHBoTEVQSwF20C5LW/BDH4NQfLNr0Du
PoDBcjAcQWJ33ECrhYXBTkHdQBbT30BAq3jBG6b6QEM+BkFdnIHBijPGQATr8EAEv47BEiz8QOm3
6kAqcZPBfS3SQOWQq0DdCZjBd+P5QEHVnUB/O47BScTBQD7/oUA913/BTVuaQIOkrUDb94nBnqfP
QOZhN0AT6IfBP1mXQMTPQkCqZIXBy/xUQPWQO0AZWqnB8C0HQJp6gkCx8JnBiiw/QF5hh0BjC47B
6OHUQB9ArkDLZsHBof/yQBZapEBGa7nBUvmrQCyAm0CgJcHBhiroQNoIiEDaHLHBGgmhQLkXfkAE
4bjBoaa+QGQ8a0C+n7DBBcvJQMfkPUByL53Bcm+CQN5mV0BlbZrBkP7OQMZFzr9dB6vBTbrUQLon
Lr/5wrTBU8+nQM2amr+1TKTB+WzYQPIaSz9QTbHBwZOqQM/FiD4q9KDBkU2wQJcwmz+l36rB2zix
QNWALkBNiqfB4QCzQEZJCkFPwVvBl9S7QL2x5EAmTF/BrgazQJuz2EBKuXbBRnG6QBe0qEBSNXrB
esGyQNBfnkC92YjBKMKyQO/7W0AOYorBmUyqQAITSkDelJXBgiaFQOGoRUA4mqTB7PU5QBqtcUBY
dJXBservQO/ZMUAYYZvBKSrdQFlDxEB0u8fBK0AJQSaHskCYq7nBP/GUQBj6okDHT8fBQJD/QKE5
gECeD6vBHs6BQOx+YEAn0bjBYq3KQBYvKcCZ4K3Bzc/rQGcax7/F/qXBYP/xQB7Ed78kE7nB3fC4
QPhtSr9MF7rBU52KQDkvrr+XD6nB5YCmQKEO67/IFZ3BLwb1QAI3az8/RazB/EDbQCXhtj9hc7jB
n/uMQIf1Cj/3upzBLhXGQBYjyz6pj5vBK0yUQKrEiD80FLDBKGS5QNtsDkEU80rBCPPHQAnLE0GO
OmbBhVmRQNvFDUHFjl/B93vdQHbK3UCYdlvBc+KmQBrA0UDPylTBpKSRQJ2Q4ECJr3rB06nIQBz0
6kCol4DBhYrbQM9yoEAI3nXBkx2kQPw9lkAzNnDBUaWTQKV6q0AMWIvBQFHMQMuwrEB0uo3BZB/S
QPOqQUDXHYjBE7WZQEDkPkA7YoXBDyFZQDaNR0C0t6nBUCIEQKfrd0AWtpnBf8s5QJJefkAJnY3B
rDvVQKrDrUD0dMHBWjLzQOwIpEBebbnBWUmsQMAWm0AONsHB1C3oQAzyh0DzFrHBcyWhQDvHfUBd
57jBbZ6+QIs1a0AJnLDB3LnJQObFPUCDL53BvmmCQIuAV0DWZZrBa1DPQNimzb+cHqvB58rUQGcK
LL9t1rTBZy+oQJDemr+GV6TB11TYQLHeTD/oWLHB/8WqQD6Chz6M+KDBbTuwQJxGmz9G4arBJxmx
QDKCLkCQh6fB28y4QPmrE0GCOH7B5djFQMmx+UAKVoLBToSwQJu52EDakHXB7Fe9QI44qkCXvHrB
Nm+yQGzynkC89IjB+AuzQLgIXUA+ZIrBEVKqQNw1SkBmkJXB4wyFQKawRUA1k6TB5fE5QMXBcUDb
apXBw9zvQJWuMUCsZpvBEajdQFaWw0Af0cfBYlwJQSQqskCWqrnBCWCVQFBtokD/acfBaHj/QOI+
gEDyAKvBMd+BQCZeYEDn17jBThPLQM3YKMAv/K3B6DPsQCxCxr/lHKbBnAvyQNlIdL8yLrnBv/O4
QDfQSL+ZJbrBGO+KQCvUrr9SE6nBkRenQHmX678MI53Blvj0QEVnbT9GVazBsADbQGYduD/pe7jB
ETGNQFrvCD82uJzBw1PGQN01yz4ImZvBayuUQJuriD9AELDBQBzIQA9AH0FghYTBxtGVQD1NFUGx
T3/BoyDDQI3LFkEMsG3Bz4e7QDOM80Ctm4rBrNboQNKI9kDby4HBPxu6QGvx30BFBWXB6JGNQFOv
20DFEHfB9P7fQL53pkBvR3jBhwKsQMFulEDP92/BUGOSQO8+q0DH54rBZyrKQCaTrUA1VI7ByqnS
QGG2Q0DjKojBAV6aQDKUP0CFT4XBwNpYQKWNR0DeranBmRIEQPDrd0DAqpnB/9c5QC2EfkD5k43B
FFzUQKgqrkDISsHB+FLyQA8upEChR7nBhV2rQE6Sm0CjEMHBfznnQAL6h0Cx97DBLSugQCFpfkCw
yrjB5J+9QKJba0C+g7DBsf/IQIz6O0C9QJ3BzimCQL0AW0CWd5rBum3UQBAKyb9uKqvBt8/YQAph
Ir/e5rTBBT+sQOwonr9Yj6TBSebZQJZtVz92c7HBmGasQBQHdD4qJqHBZxKxQFWjmT9lA6vBj06w
QNBVLUBeiqfB8RghQePd6kAsJYPBTjUSQVkfxEDHgYTBqJL5QBKvy0BRA33B3PrbQJEzpEDIxX3B
AKDLQE33m0BcP4rBJM+zQL+rYkBKlIrBORGqQBOqTkCGrpXBWQiEQAHRQkDjeKTBerI6QGgAeEBJ
cpXBzcjuQAvvK0C6dpvBqNDcQNwdxEBBn8fBjfMIQQYxskDugrnBMXWUQGUYo0A+QcfBbXr+QH0o
gEDN4arBrdyAQLUiYUCrv7jBxSvSQDkHJ8DH/q3BMt7wQJvour9RDqbBeaP2QMWWX79SKrnBUWO9
QHusSr/wRbrBfJyPQM5Ht79YbqnB4pKrQItw779RYJ3BYz32QIPigT8/a6zB76rbQOJVvT+fm7jB
tCyOQBjq7D4RA53B3F/HQJ/l0D4eqZvBu1GVQLH/gz81QbDBGC4wQdQB5UD3b4fBlE4ZQT/JA0Et
bYbBhnYkQSDF70CmMHXBRuoOQQZIv0D/EI3BOBIaQah6p0AlPIHBcVEAQSQ900CYMGzBOOroQNHi
5kBfOoLBZOvtQP39h0AuQ3jBFnnAQCWpqUClInPBCcm1QN7ktUDdnYzBjOHmQCfdmkAsz4/BbAPI
QCH+L0D+JIfBS/CVQPOlZ0Am94XBcKZVQEhbP0CdYanBirYDQP5ve0CXhJnB4ZQ8QEu9hEANwY3B
C23VQMnZr0AnAcHB3GjzQB27pEDtGrnBf3qsQLwZnUAd9sDBuk/oQGlPh0B6FbHB/CuhQCpWf0Ad
77jBJpK+QBxIakAhvrDBm6TJQET3P0Cvkp3BMNyCQIjjXUDXwJrBzS/PQDfg0L8LP6rBcaLYQFol
N7+n5LPBGa6lQNhmm798gaTBaO7aQDLaQz/8hrDBhXmnQIRGiD7LLqHB/cCwQGP5mD/G/6rBXLyw
QExgLUB+uKfBu+IPQeh4lz1zXWfB410GQeRQnj8rW3TBdUfjQI9Z4T+ViWnB4ljRQCizQEBU33TB
RxG9QLwQKkDDPIXBbG22QAIufEAAuYvBammsQBzhZUBYvpbBin+EQBpZQ0Drq6TBT5o6QFybb0CT
RpXBpxzvQDKGLkDSlJvB483dQN/NxkBYHcfBZ3wJQezNskAGNLnBEqmVQBRYpUBQHcfBDqn/QCHE
fEAiHqvBy96BQOYLYkAvBrnB/NXLQE29KsB9Fa3BTP/pQM4Ayb+8kKTBm3L3QEwFgb8jcrfBAwy/
QJ07Vr+U27nBrWiKQATUrr+I76nB4HqhQLD16r9TUp3B+bv1QLcYZz8k7qrBEBjgQIimsT85qrfB
XJCIQAfSDD9ko53BrATBQLQCzD6iOJvBGZ6WQKRshj9Ox7DBZ4seQVhZkr7qOG/BsLwTQXPC1z7D
HVfBPC4EQaHcPr+JdWbB9SASQWZnA0ALQnXBgZICQb3fYj/pTILBvvDKQMJjdz+W/GnBynbqQKYM
AUAlzVjBeem4QMdLXkDUlmrBZ5jrQDphbkCYiXfBSlzSQAwP/T/eponBoQWeQOujCkAZ6IPBhdOb
QAmOkEDARYjBAdPTQLRukUA0govB6VpWQNyaPkD4hqnB6BQCQCtHaEA96pjBoPQ8QDPbgUC3r43B

> <OMEGA_E>
xL5NP1jgTD8Ee0w/DqZHPwipRz9MhUo/+ItKPw==

> <OMEGA_NBR>
    133431

$$$$
50215510
  -OEChem-04172616093D

 45 48  0     1  0  0  0  0  0999 V2000
    6.6220    5.2535  -24.2300 C   0  0  0  0  0  0  0  0  0  0  0  0
    7.5821    4.9844  -23.2374 C   0  0  0  0  0  0  0  0  0  0  0  0
    5.3299    4.7072  -24.1277 C   0  0  0  0  0  0  0  0  0  0  0  0
    6.6864   -0.5511  -22.6720 C   0  0  0  0  0  0  0  0  0  0  0  0
    6.1914   -1.5252  -21.7864 C   0  0  0  0  0  0  0  0  0  0  0  0
    7.2504    4.1772  -22.1352 C   0  0  0  0  0  0  0  0  0  0  0  0
    4.9947    3.8965  -23.0304 C   0  0  0  0  0  0  0  0  0  0  0  0
    6.4857    0.8163  -22.4036 C   0  0  0  0  0  0  0  0  0  0  0  0
    5.2547    0.2322  -20.3831 C   0  0  0  0  0  0  0  0  0  0  0  0
    5.7690   -3.1697  -19.2452 C   0  0  0  0  0  0  0  0  0  0  0  0
    3.6355   -2.0013  -19.1842 C   0  0  0  0  0  0  0  0  0  0  0  0
    3.9342   -3.8842  -17.8223 C   0  0  0  0  0  0  0  0  0  0  0  0
    5.4659   -1.1306  -20.6434 C   0  0  0  0  0  0  0  0  0  0  0  0
    4.9483   -2.1222  -19.6967 C   0  0  0  0  0  0  0  0  0  0  0  0
    5.9426    3.6437  -22.0069 C   0  0  0  0  0  0  0  0  0  0  0  0
    5.7651    1.2191  -21.2494 C   0  0  0  0  0  0  0  0  0  0  0  0
    5.2567   -4.0530  -18.2849 C   0  0  0  0  0  0  0  0  0  0  0  0
    6.3076    2.9815  -19.5582 C   0  0  0  0  0  0  0  0  0  0  0  0
    4.0742    3.3927  -19.2871 C   0  0  0  0  0  0  0  0  0  0  0  0
    5.5758    2.6879  -20.8663 C   0  0  1  0  0  0  0  0  0  0  0  0
    5.5728    3.7747  -17.2828 C   0  0  0  0  0  0  0  0  0  0  0  0
    3.1492   -2.8772  -18.2752 N   0  0  0  0  0  0  0  0  0  0  0  0
    5.3144    3.2904  -18.6440 N   0  0  0  0  0  0  0  0  0  0  0  0
    4.1644    2.9147  -20.5041 N   0  3  0  0  0  0  0  0  0  0  0  0
    2.9013    3.8755  -18.7277 N   0  0  0  0  0  0  0  0  0  0  0  0
    7.4976    2.8239  -19.3063 O   0  0  0  0  0  0  0  0  0  0  0  0
    6.0303   -5.0487  -17.7992 F   0  0  0  0  0  0  0  0  0  0  0  0
    6.8774    5.8803  -25.0715 H   0  0  0  0  0  0  0  0  0  0  0  0
    8.5758    5.3987  -23.3223 H   0  0  0  0  0  0  0  0  0  0  0  0
    4.5954    4.9109  -24.8929 H   0  0  0  0  0  0  0  0  0  0  0  0
    7.2218   -0.8528  -23.5601 H   0  0  0  0  0  0  0  0  0  0  0  0
    6.3666   -2.5730  -21.9814 H   0  0  0  0  0  0  0  0  0  0  0  0
    7.9948    3.9623  -21.3829 H   0  0  0  0  0  0  0  0  0  0  0  0
    4.0077    3.4628  -22.9660 H   0  0  0  0  0  0  0  0  0  0  0  0
    6.8815    1.5610  -23.0783 H   0  0  0  0  0  0  0  0  0  0  0  0
    4.6943    0.5279  -19.5086 H   0  0  0  0  0  0  0  0  0  0  0  0
    6.7711   -3.2913  -19.6291 H   0  0  0  0  0  0  0  0  0  0  0  0
    3.0076   -1.1919  -19.5262 H   0  0  0  0  0  0  0  0  0  0  0  0
    3.5390   -4.5734  -17.0906 H   0  0  0  0  0  0  0  0  0  0  0  0
    4.6168    3.9439  -16.7656 H   0  0  0  0  0  0  0  0  0  0  0  0
    6.1597    3.0249  -16.7321 H   0  0  0  0  0  0  0  0  0  0  0  0
    6.1359    4.7185  -17.3303 H   0  0  0  0  0  0  0  0  0  0  0  0
    3.3853    2.7297  -21.1032 H   0  0  0  0  0  0  0  0  0  0  0  0
    2.0549    3.8722  -19.2603 H   0  0  0  0  0  0  0  0  0  0  0  0
    2.9015    4.2270  -17.7915 H   0  0  0  0  0  0  0  0  0  0  0  0
  1  2  1  0  0  0  0
  1  3  2  0  0  0  0
  2  6  2  0  0  0  0
  3  7  1  0  0  0  0
  4  5  1  0  0  0  0
  4  8  2  0  0  0  0
  5 13  2  0  0  0  0
  6 15  1  0  0  0  0
  7 15  2  0  0  0  0
  8 16  1  0  0  0  0
  9 13  1  0  0  0  0
  9 16  2  0  0  0  0
 10 14  1  0  0  0  0
 10 17  2  0  0  0  0
 11 14  2  0  0  0  0
 11 22  1  0  0  0  0
 12 17  1  0  0  0  0
 12 22  2  0  0  0  0
 13 14  1  0  0  0  0
 15 20  1  0  0  0  0
 16 20  1  0  0  0  0
 17 27  1  0  0  0  0
 18 20  1  0  0  0  0
 18 23  1  0  0  0  0
 18 26  2  0  0  0  0
 19 23  1  0  0  0  0
 19 24  2  0  0  0  0
 19 25  1  0  0  0  0
 20 24  1  0  0  0  0
 21 23  1  0  0  0  0
  1 28  1  0  0  0  0
  2 29  1  0  0  0  0
  3 30  1  0  0  0  0
  4 31  1  0  0  0  0
  5 32  1  0  0  0  0
  6 33  1  0  0  0  0
  7 34  1  0  0  0  0
  8 35  1  0  0  0  0
  9 36  1  0  0  0  0
 10 37  1  0  0  0  0
 11 38  1  0  0  0  0
 12 39  1  0  0  0  0
 21 40  1  0  0  0  0
 21 41  1  0  0  0  0
 21 42  1  0  0  0  0
 24 43  1  0  0  0  0
 25 44  1  0  0  0  0
 25 45  1  0  0  0  0
M  CHG  1  24   1
M  END
> <OMEGA_C>
JOfTQHIcqED81sHBbqDyQBKAn0Ap5rnBi46qQBGhlkChBcHBMffVQBoUDb9QYLXBOyDGQGQ7w7+a
Sq7BIAPoQE2rhUD6FLHBN9SfQO5geUBFPrjBIovPQDT5UD+kOrPBQCaoQILHbT6uEKPBrpu4QDXc
SsAn9pnBv6xoQOUVAMBYeZnBLsp7QIiXeMD9k47B0uiuQOC4kL+fJaXBcFieQI/SB8DRkp3B8Cm+
QMMyaUAWDrDBjXu4QAANnD/P/qnBOTeoQIKygcB6R5LBC9jJQPrQPkAzd5zB0V+CQJQiWUD5S5rB
Qm2yQFoHLEAn7qbBFVSyQGyVcUAhQ4rBk4xJQPQjOMCaM5LBNg+qQHCVUkDzJpXBmEKFQGSKOkB+
CKTBaa45QDYIeEBF0pXBO+zvQGG7NEBGc5rB/ffAQPmOocDHZI7BoxPcQMErvEB1ksjBhDYJQYjC
rEAVlLrB5g2TQNIlnUCxJMfB8xjnQAFQWr8ve7zB87rLQKGrJMDT2a/BodX/QBKWfUArEKvB3T6A
QLGeXUBmurfBHDXcQODPxz9WoLjBUDeWQM0jBz+GEZzB66zYQOKkUsBsCJ3BV3xAQLiRmL/BNZzB
Y35iQD1ZksCmuYjBwryTQHFpfEDpH4bBVRzFQJSXQUBw24XB9VjEQO79lkBjpIrB8KhYQOiyLkBG
06jB94MDQFvSd0AZFZrBbbI5QNtDh0D7VI7BRl3UQGjJp0B7CMLB1/OqQCt7lkAGL8HBGwrzQAxR
n0CJErrBddPWQOLfC7+JMLXBfqbGQBoVwr9ZHa7BXhqgQAHCeUC1WbjBQVXoQOe/hUD3NrHBmSnQ
QCJyUj/0IrPBzs2nQKzbfD5KGaPBJ264QEcJScCnupnBpalnQK7O/r+CiJnBxaB6QFMwd8A1gY7B
XtCuQJP0jr8tFaXBpBWeQBipBsBrfZ3BJGq+QNO2aUAYJ7DBioe4QFt8nT9ZAqrB/t6nQCm6gMCU
DpLB3hLKQATBP0DJiJzB42SCQBkdV0DHM5rB2peyQNzlLEBA/abBl6+yQHr0cUDGTorBTDxIQINb
N8AXRJLBtlGqQGLyUUDRJZXBvneFQIuwO0AxFaTBGBQ5QGtUckBJh5XBZD/wQFabNkBskJrB66nA
QJlUoMDkDo7BOZ/cQJOZu0D6zcjBPH2TQMzfnECbUsfBvG8JQRZ7rEB0xLrBGGfoQLwsWr/9NrzB
injMQNoiJMBtmK/BDXCAQM9qXkAgzbfBEhIAQXvefUAnMKvB9hPdQJ4hyD92hrjBUl+VQLvmCz+0
MZzB17LYQHZpUMCxrpzBtFc/QGwlmL8jYJzBRRZhQF6ZkcA8qIjB0CmUQK4te0ApFIbBw2TGQNRO
Q0AG7oXBr8jDQH2vl0AlyorB8zpZQAAdMkBi+qjBOLUCQOvEcUCBv5nBIdU4QA5Dg0Ds743BYYXV
QKMsqEDlzMHBq8qrQEqYl0C6AsHBk/nzQJXSnkAn2bnBGWLTQJXaDL//gbXBMk7EQJpbwr8iRq7B
GWSgQBu8e0CTPbjBMrnoQBAfhUBIDrHB+ovNQGSbUT8PV7PB0/mnQLAbfj533aLB3M5qQCiAAcBY
EZnByjG6QOA1SsB3xpnB+XGEQMt+gMA+no7BYIWuQDQIj7+57qTBvCufQE8eB8BXNZ3BSn6+QETx
aUCuDLDBTKi3QPBznT8e9KnBqHFPQN0xQMAB0ZHBWpjJQOd+P0DqeZzBgUuCQGAfXEDNXZrBhByy
QOEBLUBD76bBE4+yQGR4dkCybYrB8tCsQPd2gsA7jJLBNgCqQF+5VUChOZXBTAWFQPmOPEA1D6TB
0s85QOEDfEDa7JXB+XLvQBAHM0BEZ5rBX8j8PzMIP8BxDI7BjTDeQHEavECuhMjB34CUQL+jnkCP
JcfBJgcKQdtoq0C4f7rB6HvjQBWbW7/2vrzBn2fJQGBWJMAO36/BOXiAQAWOYUB0vLfBvy0AQS9F
e0A+CavBc8XZQGiKxz8T17jB1sCWQB+iDD/DxZvBtLVAQGEMnL+vbJvBhTPaQEa/TsAa/JzBHg50
QP1BmMAe6YjB/hKUQCqRgUDKUobB+u3EQF2sRkBX4oXBZhnFQNASmUBd/IrBmBBYQISyMEDy1KjB
nJkDQK/Re0BYLZrBtxQ6QNqbiUAzeI7Bl9jWQAyyp0Db3cHB7R71QB7mnUDm57nB5smsQKz9l0Ch
C8HBhCjSQOceC79To7XB6djCQBJiwb96b67B2V/pQMqVhECyFLHBjuigQJY6fUDfP7jBKbnMQMQ9
Uz+/a7PBsxCnQNcQgz7m8aLBDjFrQHcoAcCZr5jBCAq6QCx1SsDaJ5rBcTyGQPuBgMDTcI7B+kSt
QBwrjr8xD6XB76OeQNP4BsDkRJ3Bjti+QOdsakBMDrDBhQC3QHhtnj+KA6rBWkVSQOPaP8BlSJHB
C3PJQNxQP0CGe5zBAiaCQGTmW0ClV5rBLPuxQAaQLUAq9qbBooyyQEcKdkBibYrBANCtQEimgsCu
05LBQN+pQMopVUD4NZXBrvGEQD3YPUDSG6TBzmY5QLz/ekA92JXBD0/vQL/dMkBYaprBGOQCQLBU
PsBP/4zBtObfQCtKu0A5ncjBk7gKQTzXqUDEkrrBUJyVQARwn0CMLcfBXiLiQC8BWr9a5LzBoJvH
QK/fI8DxFLDB020AQdyYeUBXDKvB5LqAQK5cZEBKurfBWiHZQO9LyD9E5rjBF++VQHjfDj9L15vB
amZAQN5Cm7/V0ZrB13TZQJktT8D4tJ3Bx315QEhImMDZoojBThyUQDUwgUAUSYbBgSTFQDB3RkAv
54XBOunEQPj1mECnAovBBgFYQBtrM0C18qjBGEIDQB9ge0ApHJrBboQ5QDyHiEC4VY7BVC+IQFc6
gUBNBZDB0Wu0QKOAckBvxJDBLC1bQFwAdEDc65jBoLrQQFmJgb+uJrjBEzjAQOWm478Vq6/BiTnG
QPxWVUCAdJrBGWx+QLuYVkBam6LB/VDQQGf8yD7ok7fBIb2uQKI+iT6z/qXBQmyfQA3iub9n4ZLB
ZVeLQJemTcDPUJ/B+Zt4QHB3X8ByEI3Bkj2vQDRHkr+ZfqbBJe6dQEST+L8Nep3BfvurQJMUSUCC
mKPBgDG/QARbhj/tga7BRGiOQOwvD8D5m4rBQ8WpQDyOS0Cf8LfBxcPvQNiNd0DifLfBLnK/QBOV
JUC0Da7Bj/zBQBENlkD388bBQgp2QJtHfcBgPJfBePfHQP2KgEAmlLzBZP3rQGEVRED9Nq/BZ/EK
Qewgj0D0kLrBwOeFQFrVO0AFarvBqoiPQHzF5b/6YYDBIVl1QMXijEAin4jBDsDIQAOmfEBw5YnB
XDAXQAF+f0ChUZjBnsHdQARowL9nH7/BnYHAQMPUNsA2KbDB7RnoQJ00SEC67prB3gNVQN4xSkBX
WanBgCrdQIdueT8aHL7BYqGhQKULQj/8Bp/BFXKtQGEP+r7aLJHBACeKQINeZsD5YKfBplVeQLIH
g8B3sYbBnHneQARWqUDq0MjBYES9QD/Ie0BBPs3BFb2lQOX9qkAyjcbBlAcCQVa/M0DGWqrBtFQY
QSXJiUDhZLbBx0MLQfNjokDc88DB

> <OMEGA_E>
0MUTPhAOET7416k+BG2qPlTbij8=

> <OMEGA_NBR>
    137648

$$$$
50215511
  -OEChem-04172616093D

 46 49  0     1  0  0  0  0  0999 V2000
    6.1041   -5.0424  -17.7219 C   0  0  0  0  0  0  0  0  0  0  0  0
    6.5829    5.2476  -24.2310 C   0  0  0  0  0  0  0  0  0  0  0  0
    5.3038    4.6696  -24.1390 C   0  0  0  0  0  0  0  0  0  0  0  0
    7.5377    5.0133  -23.2241 C   0  0  0  0  0  0  0  0  0  0  0  0
    6.7635   -0.5412  -22.6327 C   0  0  0  0  0  0  0  0  0  0  0  0
    6.2575   -1.5174  -21.7558 C   0  0  0  0  0  0  0  0  0  0  0  0
    4.9772    3.8598  -23.0388 C   0  0  0  0  0  0  0  0  0  0  0  0
    7.2138    4.2083  -22.1181 C   0  0  0  0  0  0  0  0  0  0  0  0
    6.5323    0.8241  -22.3788 C   0  0  0  0  0  0  0  0  0  0  0  0
    5.7882   -3.1449  -19.2264 C   0  0  0  0  0  0  0  0  0  0  0  0
    5.2554    0.2324  -20.3898 C   0  0  0  0  0  0  0  0  0  0  0  0
    3.9404   -3.8672  -17.8223 C   0  0  0  0  0  0  0  0  0  0  0  0
    3.6436   -1.9983  -19.2022 C   0  0  0  0  0  0  0  0  0  0  0  0
    5.2725   -4.0208  -18.2635 C   0  0  0  0  0  0  0  0  0  0  0  0
    5.4915   -1.1260  -20.6379 C   0  0  0  0  0  0  0  0  0  0  0  0
    4.9638   -2.1134  -19.6975 C   0  0  0  0  0  0  0  0  0  0  0  0
    5.9200    3.6404  -22.0033 C   0  0  0  0  0  0  0  0  0  0  0  0
    5.7719    1.2202  -21.2479 C   0  0  0  0  0  0  0  0  0  0  0  0
    6.3014    2.9715  -19.5579 C   0  0  0  0  0  0  0  0  0  0  0  0
    4.0721    3.4040  -19.2882 C   0  0  0  0  0  0  0  0  0  0  0  0
    5.5657    2.6830  -20.8634 C   0  0  1  0  0  0  0  0  0  0  0  0
    5.5730    3.7780  -17.2846 C   0  0  0  0  0  0  0  0  0  0  0  0
    6.7944   -5.8714  -17.2812 N   0  0  0  0  0  0  0  0  0  0  0  0
    3.1523   -2.8721  -18.2940 N   0  0  0  0  0  0  0  0  0  0  0  0
    5.3112    3.2928  -18.6446 N   0  0  0  0  0  0  0  0  0  0  0  0
    4.1541    2.9016  -20.4960 N   0  3  0  0  0  0  0  0  0  0  0  0
    2.9088    3.9161  -18.7349 N   0  0  0  0  0  0  0  0  0  0  0  0
    7.4850    2.7737  -19.3035 O   0  0  0  0  0  0  0  0  0  0  0  0
    6.8327    5.8723  -25.0759 H   0  0  0  0  0  0  0  0  0  0  0  0
    4.5731    4.8485  -24.9140 H   0  0  0  0  0  0  0  0  0  0  0  0
    8.5212    5.4527  -23.3012 H   0  0  0  0  0  0  0  0  0  0  0  0
    7.3303   -0.8395  -23.5023 H   0  0  0  0  0  0  0  0  0  0  0  0
    6.4548   -2.5635  -21.9378 H   0  0  0  0  0  0  0  0  0  0  0  0
    4.0011    3.4011  -22.9815 H   0  0  0  0  0  0  0  0  0  0  0  0
    7.9531    4.0218  -21.3533 H   0  0  0  0  0  0  0  0  0  0  0  0
    6.9347    1.5718  -23.0462 H   0  0  0  0  0  0  0  0  0  0  0  0
    6.7959   -3.2609  -19.5969 H   0  0  0  0  0  0  0  0  0  0  0  0
    4.6705    0.5245  -19.5301 H   0  0  0  0  0  0  0  0  0  0  0  0
    3.5417   -4.5574  -17.0936 H   0  0  0  0  0  0  0  0  0  0  0  0
    3.0144   -1.1954  -19.5568 H   0  0  0  0  0  0  0  0  0  0  0  0
    4.6183    3.9580  -16.7687 H   0  0  0  0  0  0  0  0  0  0  0  0
    6.1520    3.0237  -16.7315 H   0  0  0  0  0  0  0  0  0  0  0  0
    6.1455    4.7160  -17.3339 H   0  0  0  0  0  0  0  0  0  0  0  0
    3.3719    2.6959  -21.0840 H   0  0  0  0  0  0  0  0  0  0  0  0
    2.0610    3.9167  -19.2653 H   0  0  0  0  0  0  0  0  0  0  0  0
    2.9173    4.2848  -17.8054 H   0  0  0  0  0  0  0  0  0  0  0  0
  1 14  1  0  0  0  0
  1 23  3  0  0  0  0
  2  3  1  0  0  0  0
  2  4  2  0  0  0  0
  3  7  2  0  0  0  0
  4  8  1  0  0  0  0
  5  6  1  0  0  0  0
  5  9  2  0  0  0  0
  6 15  2  0  0  0  0
  7 17  1  0  0  0  0
  8 17  2  0  0  0  0
  9 18  1  0  0  0  0
 10 14  2  0  0  0  0
 10 16  1  0  0  0  0
 11 15  1  0  0  0  0
 11 18  2  0  0  0  0
 12 14  1  0  0  0  0
 12 24  2  0  0  0  0
 13 16  2  0  0  0  0
 13 24  1  0  0  0  0
 15 16  1  0  0  0  0
 17 21  1  0  0  0  0
 18 21  1  0  0  0  0
 19 21  1  0  0  0  0
 19 25  1  0  0  0  0
 19 28  2  0  0  0  0
 20 25  1  0  0  0  0
 20 26  2  0  0  0  0
 20 27  1  0  0  0  0
 21 26  1  0  0  0  0
 22 25  1  0  0  0  0
  2 29  1  0  0  0  0
  3 30  1  0  0  0  0
  4 31  1  0  0  0  0
  5 32  1  0  0  0  0
  6 33  1  0  0  0  0
  7 34  1  0  0  0  0
  8 35  1  0  0  0  0
  9 36  1  0  0  0  0
 10 37  1  0  0  0  0
 11 38  1  0  0  0  0
 12 39  1  0  0  0  0
 13 40  1  0  0  0  0
 22 41  1  0  0  0  0
 22 42  1  0  0  0  0
 22 43  1  0  0  0  0
 26 44  1  0  0  0  0
 27 45  1  0  0  0  0
 27 46  1  0  0  0  0
M  CHG  1  26   1
M  END
> <OMEGA_C>
LVXDQGpbocBlxo3BWafSQFHsp0Ai2cHBgripQHRtlUCuHMHB1DTxQJdsoED/yrnBdW7YQG2OCr/F
D7XBSz3IQGg6wr/sC67B9USfQEYGd0B/T7jBUtfmQCeqhkDh8bDBswjRQB32Uj+4B7PBjzi5QJdF
ScCUz5nBdyyoQJMCbj4/HqPBOjB8QIqAd8D7k47B9zBpQG/J/78BnpnB9reoQCaqgMCkG5LB+7mv
QOUhkL+DGqXBedeeQGVBB8B8lJ3Bn3C9QDD8aEC5BrDBLrO4QC8vnD/I+6nBQaXJQMMsPkCUdpzB
qk6CQH/bWUBKTprBeBqyQOe1K0Aq6KbBUlayQMHKcUDSRorBcWvZQHniu8DMP4rBl75JQG7QN8Aa
WpLBGPWpQP69UkAZKJXBie6EQH6zOUC/96PBDyk6QB6hekAa4ZXBJ4XvQOuDMUCgbZrBgKXaQLTp
u0Bnm8jB/laSQK8mm0DJT8fB81YIQaJ8rkDraLrB55HqQILmVr+sBLzB7I3OQKEQJMCcgK/B6AiA
QG2rWUAK2rfBJoD+QOGygEB506rBtOjdQJEwyT+OXrjBN3jZQFmzUMCExpzBDnWVQJJHBj+zPZzB
gqtiQJnWkcCZv4jBMuxAQLoCmb9ldJzBJcmTQM9PfUBkJobBA93EQPuEQUAS2oXBKqjEQF/plkDb
q4rBb8xXQFeKLEAGrKjBHucDQL2rekBFH5rBqbU6QDkdiUB/cY7BliHCQCb8nsB0GI3BbrDSQKko
pkADRMLB24nxQCEPn0BVQ7rBlZupQC8vlED4TMHByZvYQPZqCr/eCrXB7urHQD3+wb98Fq7BJVrn
QEEnhkDSQLHB70mfQDtrdkBhUrjBE7XRQKp/Uz+h9bLBvFC4QPyrR8DKpJnBvpOoQN7ldT7IFaPB
AFR5QLtNdMA2e47BSvtmQHII/r+d6pnBx4anQLFOfsB80ZHBtXGvQFpYj7+3J6XBTQKeQJOXBsBX
r53BNc+9QNP2aEAiGrDBgYC5QMAKnT+K5qnBVFbKQA4wQEDyd5zBRJaCQAc8VkAeGJrBUtCyQB9a
LEBM4abBAe6yQKvickBBRorBiCPYQP3IuMDjN4nBWO5GQHbFNcDajZLBtpOqQJPXUUDFD5XBPZyF
QNSzOUCj7KPBUX45QPDNcUB0cZXBMKDwQKdhOEBkjJrBf5DaQLNwuUARKcnBtY0IQbbFrEBWC7vB
Kv+RQP+VmUC3dsfBHMDqQKpOV78g/rvBttLNQGgKJMBgla/B/0P/QAtzgEBDLqvBeMF/QEQPWkDm
rLfBL9/eQCM5yT9dRbjBK7XYQLd5T8A9fpzBuxOWQPTSCD9yLZzBiWRfQDO1j8CSjojBJ8k+QPDY
mL/p+5zBV2+UQOdoe0CbAobB6B7HQCc1RUDh34XBLILDQJRomECl2YrBS25ZQISHLkC9wKjBuggD
QPiicECWpJnBrlw5QABug0B1443Bwab4P1HZP8AzKY7B0zjWQG92qEDYwMHBbSOsQG7FmEBi98DB
A5P0QNg4nkA417nBRJXSQMlsCr8upbXB03HEQCrIwL9AR67BjEygQDnvfUCnP7jBC9voQPyEhEBM
FrHB0HTMQDr7Uz+lhrPBTjtuQIxyAMAt5JjBoTuoQOh7hj5D3KLBmUuGQPUygMBTio7BU++7QHjI
SMBMrJnB/P5SQBqWP8AmuZHBYVOvQNj/jL/z26TBB76gQOjJBcBJDJ3Bg1K+QK5wakB4G7DB3Bi3
QPDanj/sEKrBWFrJQKQzQEDfp5zBNX6CQBX7YED7kprB6J+xQPyaLUAMC6fBpeqyQN9sd0DWnIrB
a59TP7u5P8AGeYvBirKuQPnqgcCvd5LBLWqrQO0BZkDO/5XBFL2EQC4EPkDFGKTB1kA5QEpie0Bq
05XBeOztQI0FK0A1QprB1T7fQABmvEDPcMjBee2UQK2PoEB5EMfBHXUKQbcfqkBYfrrBZS7iQDOW
Wb+R8rzB68DJQIeMI8Av1a/B1yGAQHn6ZEDYv7fBhywAQYXKeECeFavBag3YQLuWyD+fHrnBkSFE
QEiFmb+cLJvBRzuXQA9yED9NvJvB2dp3QBwZmMDl3IjBEuvbQCf8TMB355zBhlWWQL/NikCjIIfB
0Za5QI/9OkAwa4bBzHXOQKVckUDowYnBSQBXQH1nMEAftqjBmbUBQDksdEBRspnBRS46QHXRikDh
h47BZiz/Py7rRcDgKo3BMU/XQJxlp0BRv8HB5Hv1QBxpnUAgx7nBWzGtQNTUl0B99cDBBezQQMSJ
DL8exbXBkMzBQBpKwr+7ka7BX5XpQA4IhECc+rDBEyShQInifECPLrjBw/HLQHJ9UT9WdLPB4gVs
QC+vA8AGspjBcdamQHhUez5l6KLBqROIQOihgcAihY7B1xu7QNdbSsBsP5rBaWVUQCaFQ8AEYJHB
2t+sQPxcj7/TGaXBlgefQI7SB8ARSp3BAPi+QITDaUA7+a/BzK62QIpOnT8y+anB8C3JQA2dPkDk
YJzBygWCQJyIXEBxXZrBPd+xQIb9LEBk5KbB+e2xQMcwdUD+V4rBZvRnPy+gSMBg1InBVaWvQMra
gsBS6pLB7HWpQFVcVECHI5XBiNOEQCSfPUCJFqTBz5g5QM6qfUAn+5XBHRvvQGU6M0CTS5rBG33g
QDMIu0AWesjBjuwKQThCqUBGa7rBABqWQHFln0BUGsfBi2bgQCS/Wr8hGb3BUjPGQOxPJMA2SbDB
lYEAQZoLeECB86rBF+qAQH08ZEA8r7fBbVzYQEOixz/R6rjBn1ZAQKVlob+Gv5rBbfGVQKNpCz+y
wpvBsVt+QKiTmcBNs4jBS3PaQEboTcCM3J3BW2mTQMG4gEAQPIbBRnfEQH2gRUCbzYXBlkXEQEaO
mECx5orBfNBXQELXMkA17KjBKMEDQK72fkCATZrBSrs5QAgjikAtf47B

> <OMEGA_E>
MHeJPlwfiD6wYt4+uDXcPg==

> <OMEGA_NBR>
    141127

$$$$
50215517
  -OEChem-04172616093D

 45 48  0     1  0  0  0  0  0999 V2000
    6.6141    5.2401  -24.2381 C   0  0  0  0  0  0  0  0  0  0  0  0
    7.5613    5.0079  -23.2237 C   0  0  0  0  0  0  0  0  0  0  0  0
    5.3322    4.6676  -24.1503 C   0  0  0  0  0  0  0  0  0  0  0  0
    6.7315   -0.5387  -22.6491 C   0  0  0  0  0  0  0  0  0  0  0  0
    6.2290   -1.5154  -21.7706 C   0  0  0  0  0  0  0  0  0  0  0  0
    7.2277    4.2091  -22.1159 C   0  0  0  0  0  0  0  0  0  0  0  0
    4.9941    3.8680  -23.0456 C   0  0  0  0  0  0  0  0  0  0  0  0
    6.5130    0.8272  -22.3876 C   0  0  0  0  0  0  0  0  0  0  0  0
    5.2502    0.2359  -20.3890 C   0  0  0  0  0  0  0  0  0  0  0  0
    5.7790   -3.1648  -19.2432 C   0  0  0  0  0  0  0  0  0  0  0  0
    3.6455   -1.9970  -19.1868 C   0  0  0  0  0  0  0  0  0  0  0  0
    3.9397   -3.8823  -17.8278 C   0  0  0  0  0  0  0  0  0  0  0  0
    5.4797   -1.1250  -20.6410 C   0  0  0  0  0  0  0  0  0  0  0  0
    4.9597   -2.1173  -19.6963 C   0  0  0  0  0  0  0  0  0  0  0  0
    5.9304    3.6475  -22.0043 C   0  0  0  0  0  0  0  0  0  0  0  0
    5.7651    1.2249  -21.2491 C   0  0  0  0  0  0  0  0  0  0  0  0
    5.2627   -4.0506  -18.2881 C   0  0  0  0  0  0  0  0  0  0  0  0
    6.3017    2.9781  -19.5580 C   0  0  0  0  0  0  0  0  0  0  0  0
    4.0704    3.4064  -19.2872 C   0  0  0  0  0  0  0  0  0  0  0  0
    5.5672    2.6909  -20.8643 C   0  0  1  0  0  0  0  0  0  0  0  0
    5.5761    3.8025  -17.2902 C   0  0  0  0  0  0  0  0  0  0  0  0
    3.1567   -2.8737  -18.2801 N   0  0  0  0  0  0  0  0  0  0  0  0
    5.3126    3.3088  -18.6469 N   0  0  0  0  0  0  0  0  0  0  0  0
    4.1562    2.9164  -20.4999 N   0  3  0  0  0  0  0  0  0  0  0  0
    2.8995    3.8931  -18.7270 N   0  0  0  0  0  0  0  0  0  0  0  0
    7.4851    2.7808  -19.3026 O   0  0  0  0  0  0  0  0  0  0  0  0
    6.2567   -5.3394  -17.6664 Cl  0  0  0  0  0  0  0  0  0  0  0  0
    6.8716    5.8586  -25.0851 H   0  0  0  0  0  0  0  0  0  0  0  0
    8.5465    5.4443  -23.2963 H   0  0  0  0  0  0  0  0  0  0  0  0
    4.6079    4.8427  -24.9321 H   0  0  0  0  0  0  0  0  0  0  0  0
    7.2863   -0.8372  -23.5264 H   0  0  0  0  0  0  0  0  0  0  0  0
    6.4163   -2.5620  -21.9605 H   0  0  0  0  0  0  0  0  0  0  0  0
    7.9625    4.0223  -21.3467 H   0  0  0  0  0  0  0  0  0  0  0  0
    4.0139    3.4182  -22.9893 H   0  0  0  0  0  0  0  0  0  0  0  0
    6.9158    1.5744  -23.0553 H   0  0  0  0  0  0  0  0  0  0  0  0
    4.6718    0.5285  -19.5251 H   0  0  0  0  0  0  0  0  0  0  0  0
    6.7832   -3.2845  -19.6222 H   0  0  0  0  0  0  0  0  0  0  0  0
    3.0185   -1.1871  -19.5294 H   0  0  0  0  0  0  0  0  0  0  0  0
    3.5424   -4.5729  -17.0988 H   0  0  0  0  0  0  0  0  0  0  0  0
    4.6219    3.9890  -16.7756 H   0  0  0  0  0  0  0  0  0  0  0  0
    6.1528    3.0504  -16.7320 H   0  0  0  0  0  0  0  0  0  0  0  0
    6.1514    4.7384  -17.3461 H   0  0  0  0  0  0  0  0  0  0  0  0
    3.3754    2.7229  -21.0939 H   0  0  0  0  0  0  0  0  0  0  0  0
    2.0507    3.8835  -19.2556 H   0  0  0  0  0  0  0  0  0  0  0  0
    2.9037    4.2538  -17.7943 H   0  0  0  0  0  0  0  0  0  0  0  0
  1  2  1  0  0  0  0
  1  3  2  0  0  0  0
  2  6  2  0  0  0  0
  3  7  1  0  0  0  0
  4  5  1  0  0  0  0
  4  8  2  0  0  0  0
  5 13  2  0  0  0  0
  6 15  1  0  0  0  0
  7 15  2  0  0  0  0
  8 16  1  0  0  0  0
  9 13  1  0  0  0  0
  9 16  2  0  0  0  0
 10 14  1  0  0  0  0
 10 17  2  0  0  0  0
 11 14  2  0  0  0  0
 11 22  1  0  0  0  0
 12 17  1  0  0  0  0
 12 22  2  0  0  0  0
 13 14  1  0  0  0  0
 15 20  1  0  0  0  0
 16 20  1  0  0  0  0
 17 27  1  0  0  0  0
 18 20  1  0  0  0  0
 18 23  1  0  0  0  0
 18 26  2  0  0  0  0
 19 23  1  0  0  0  0
 19 24  2  0  0  0  0
 19 25  1  0  0  0  0
 20 24  1  0  0  0  0
 21 23  1  0  0  0  0
  1 28  1  0  0  0  0
  2 29  1  0  0  0  0
  3 30  1  0  0  0  0
  4 31  1  0  0  0  0
  5 32  1  0  0  0  0
  6 33  1  0  0  0  0
  7 34  1  0  0  0  0
  8 35  1  0  0  0  0
  9 36  1  0  0  0  0
 10 37  1  0  0  0  0
 11 38  1  0  0  0  0
 12 39  1  0  0  0  0
 21 40  1  0  0  0  0
 21 41  1  0  0  0  0
 21 42  1  0  0  0  0
 24 43  1  0  0  0  0
 25 44  1  0  0  0  0
 25 45  1  0  0  0  0
M  CHG  1  24   1
M  END
> <OMEGA_C>
habTQLqup0CT58HB7vXxQPNAoEA2yrnBHaGqQANdlUDWM8HBp2jXQDjmCb9vMbXBnVPHQEj5wb8p
Kq7BAEnnQKuwhkBS7bDBj8+fQNiNd0BjXbjB22rQQK7BUz/GGbPBxAGoQJeJcT6mHKPBoe24QIiL
SsAp8pnBJFBpQJec/7+CfpnBGCR8QE53eMBtn47BEFqvQAwBkL/XIKXB+bWeQCCBB8D7kZ3BycW9
QHFxaUDhCLDBsHu4QHnJnD8q/qnBuWeoQJCegcAETpLBsafJQIyZPkDQdpzBhkCCQA4CWkAhTJrB
TyayQJ43LEAp6qbBAm+yQN9cc0BfUorBmgdKQK3qN8CTPZLBdQCqQK/CU0DuLJXBy/+EQGamOkDR
/6PBmJE5QIEoeUDu0JXBB4bvQPX4MUCja5rBFTfIQJHcqsDJVI3BZOTbQMF5u0BSrsjBl74IQXI3
rkDlXrrBr3OTQEr3mkDfdMfBLynpQOVVVr/3NbzBX1LNQDH3I8ACr6/Bdsz+QBS3gEAUxqrBfXGA
QE/DWkAh6rfBJU7dQIWHyT8ncbjBkX+VQIxIBz90M5zBHBDZQP80UsBU+pzBJy9BQLHyl78cPJzB
4bZiQGlVksBAyojBweaTQKBLf0BcNIbBZ+PEQE05Q0AS24XBEtjEQDWhl0DExIrBMAZYQFJELkBW
wKjBij4DQA6MeEB/C5rB8dU5QNAeiEDKWo7ByWvUQJS1p0AKCMLBlQarQEhZlkAKM8HBYwvzQAlP
n0DUDbrBFJfWQGRyC78jOrXB4oXGQGb3wb9MJa7BRyOgQNaDeUDUXbjB+UnoQGvJhUA5MbHBSffP
QK3HUj91J7PB6u+nQHjSfD7XEaPBJ124QPrXScAi2pnB/iNoQHBS/r9tdpnBgrt6QNTVd8CBlI7B
HuKuQOj4jr8bFKXBoS+eQB7LBsBGf53B82G+QCuyaUCWJbDBvIG4QKmRnT/u/qnBrcGnQIJHgcAY
OZLBFgLKQE3eP0BBhpzBiVSCQMt6V0ALNJrBgYiyQJX1LEBZ+qbBZpeyQNZGckDoTYrB7qpIQMZX
N8AeOpLBgz6qQCxAUkDAJJXBn2eFQDjZO0BCE6TB2OI4QIelckBZiZXB1iTwQE42NkBNi5rBHYDH
QDWJqsDsOY3BfLTcQBeDu0CBzcjBh5qTQOewnED7WcfB2m8JQbB9rEBBvbrBmA3oQM6BWb/KRbzB
U0bMQFMSJMDTpa/B93+AQJYGXkDE1bfBhgYAQQcVfkBBJqvBN8jcQHFfyD9yjbjBua2VQJ6vCz9Z
IpzBGYnYQLZ+UcAc3JzBmxBAQI+ulr8EOJzB2CxhQMoCksArwYjB3g6UQNume0DfFYbBXzrGQISR
Q0Cp6oXB0MHDQAXPl0AzyYrBPhpZQH8wMkC696jBroICQNXfcUAswZnB1Js4QLOBg0DW843Be2nU
QOZoqEA058HBCFTzQCf/nkB2EbrBStCqQLSbl0B6AMHBxHfUQKPRDr98Q7XBfcnEQFLEwr9KEq7B
hKPoQHcUhUD8RLHBtfmfQLdbe0AJOrjBjIvOQCn8Tz+fK7PBf+2nQBYDgT7d0qLB4dJoQFLM/7/f
F5nB+ZK4QBHsSsCPwZnB/RaCQGU3gMDFuo7Bs1yuQGC9jr/f1qTB+TqeQAy9BsC+LZ3BrH2+QD2r
aUDjILDB3x64QCJhnT/r4anBPBlMQKFkPsDf5ZHBbP3JQCx3QEBCgZzBa4mCQK3OWkDtT5rBxHyy
QHQULUCj8KbB8MSyQNzodUDaaIrBb3+qQIvLgsCkm5LBCUyqQCDTVEA9MZXBc2CFQMcvPEAGDKTB
/xA6QLHeeUCT15XB1BvwQL/QNkBugZrBsMnGP9g4O8CFF43BjqDcQE2OvEC+ncjBW6oJQQGzq0AR
0LrBQDCTQNijnkDPDsfBAxrlQFPAXr/LabzBDurJQF2cJMD8na/B4FEAQTsAe0BAWavBvyiAQFPF
YEBepbfBrhzbQPxGxj8Op7jBTGSWQFDiDj//ypvBe68/QDROl79Bc5vBIqLYQJdaUMAj6ZzB9Ddu
QAf5l8A3FonBgEOUQDprgECgPIbBD/PFQA8ZR0AM6oXBL3XEQCtMmUCj/orBR9lYQB+sMEAl2KjB
oukDQKjCeUAIG5rBdRs6QM0xiECKWo7BuqLWQLzOqECCusHBwpGsQK4amUBT7sDBuw71QHxYnkAP
27nBxULSQO61DL8/kbXBDFjDQOLUwb8cSa7BfsqgQBBkfkAiObjBTGzpQJJ2hED6H7HBrm/MQG7f
UT9BcbPBsy+nQFtkgz5M5aLBKBRrQHHgAMBUrpjBZN+5QI61SsD+95nB+0qFQNSigMCJdY7Bz6mt
QOU5jr+F7qTBwcmeQNbaBsBMI53Bbtm+QL59akBBGLDBc9+2QPsxnj8MB6rBywtRQAy0P8B6XJHB
lHXJQNs4P0CEh5zBajCCQLn1W0BPYprBqvKxQD6LLUB2AqfBD3CyQNXjdECAa4rBIRutQJ7cgsAi
tpLBDN+pQE7ZVECYP5XBTvaEQD8fPkDMKKTBmHA5QDOhekAL25XBjkPvQEYoMkDGdJrBMbrTP2p9
PcDmDYzBwZXfQJHpvED2Y8jBj0+VQH/1oEApA8fBH7QKQd02qkC6hLrBpzziQClcXL8u0LzB93zI
QEcaJMDl2q/B3ZqAQHuKZUD7t7fBDoQAQT0+eEBuK6vBCm3YQEtNxz/a/7jBnQiWQKrCDz+AzZvB
FsNAQAEbmr+l2ZrBZHjZQIaWT8A+ap3BT7p2QCV9mMCHuIjB0PSTQL2VgECNS4bBd93EQK3ZREAj
7oXBv+zEQEhVmED86orBmQdYQGwENED6AanBAjcDQCDYekDcGprBGZk5QH1FiEDWVo7B

> <OMEGA_E>
iBoXPnCPET5EKKg+fJ+qPg==

> <OMEGA_NBR>
    144555

$$$$
50215519
  -OEChem-04172616093D

 46 49  0     1  0  0  0  0  0999 V2000
    6.9657   -0.5943  -22.4216 C   0  0  0  0  0  0  0  0  0  0  0  0
    6.3899   -1.5399  -21.5571 C   0  0  0  0  0  0  0  0  0  0  0  0
    6.7243    0.7771  -22.2248 C   0  0  0  0  0  0  0  0  0  0  0  0
    5.3381    0.2578  -20.2937 C   0  0  0  0  0  0  0  0  0  0  0  0
    5.6249   -3.2050  -19.1588 C   0  0  0  0  0  0  0  0  0  0  0  0
    3.6057   -1.8535  -19.1511 C   0  0  0  0  0  0  0  0  0  0  0  0
    3.6424   -3.8289  -17.9026 C   0  0  0  0  0  0  0  0  0  0  0  0
    5.5748   -1.1088  -20.4890 C   0  0  0  0  0  0  0  0  0  0  0  0
    4.9310   -2.0691  -19.5941 C   0  0  0  0  0  0  0  0  0  0  0  0
    5.8664    1.2109  -21.1816 C   0  0  0  0  0  0  0  0  0  0  0  0
    4.9752   -4.0939  -18.2780 C   0  0  0  0  0  0  0  0  0  0  0  0
    6.3415    3.1569  -19.7319 C   0  0  0  0  0  0  0  0  0  0  0  0
    4.1023    3.1789  -19.2391 C   0  0  0  0  0  0  0  0  0  0  0  0
    5.4348    4.9886  -22.3429 C   0  0  0  0  0  0  0  0  0  0  0  0
    6.8783    4.4889  -22.4931 C   0  0  0  0  0  0  0  0  0  0  0  0
    5.7265    3.4900  -22.2885 C   0  0  0  0  0  0  0  0  0  0  0  0
    5.5529    2.6895  -20.9546 C   0  0  1  0  0  0  0  0  0  0  0  0
    5.7014    3.5206  -17.3012 C   0  0  0  0  0  0  0  0  0  0  0  0
    7.0311   -5.1685  -17.6675 C   0  0  0  0  0  0  0  0  0  0  0  0
    2.9851   -2.7287  -18.3323 N   0  0  0  0  0  0  0  0  0  0  0  0
    5.3993    3.2337  -18.7127 N   0  0  0  0  0  0  0  0  0  0  0  0
    4.1517    2.8754  -20.5189 N   0  3  0  0  0  0  0  0  0  0  0  0
    2.9337    3.3606  -18.5118 N   0  0  0  0  0  0  0  0  0  0  0  0
    7.5588    3.1383  -19.5848 O   0  0  0  0  0  0  0  0  0  0  0  0
    5.5887   -5.2123  -17.7500 O   0  0  0  0  0  0  0  0  0  0  0  0
    7.5939   -0.9204  -23.2373 H   0  0  0  0  0  0  0  0  0  0  0  0
    6.5705   -2.5938  -21.7095 H   0  0  0  0  0  0  0  0  0  0  0  0
    7.1943    1.5036  -22.8712 H   0  0  0  0  0  0  0  0  0  0  0  0
    4.7437    0.5825  -19.4525 H   0  0  0  0  0  0  0  0  0  0  0  0
    6.6348   -3.3958  -19.4903 H   0  0  0  0  0  0  0  0  0  0  0  0
    3.0782   -0.9687  -19.4753 H   0  0  0  0  0  0  0  0  0  0  0  0
    3.1320   -4.5247  -17.2531 H   0  0  0  0  0  0  0  0  0  0  0  0
    5.1306    5.5223  -21.4305 H   0  0  0  0  0  0  0  0  0  0  0  0
    4.9081    5.4144  -23.2097 H   0  0  0  0  0  0  0  0  0  0  0  0
    7.3852    4.5535  -23.4672 H   0  0  0  0  0  0  0  0  0  0  0  0
    7.6077    4.6614  -21.6881 H   0  0  0  0  0  0  0  0  0  0  0  0
    5.4389    2.9304  -23.1908 H   0  0  0  0  0  0  0  0  0  0  0  0
    4.7683    3.5202  -16.7186 H   0  0  0  0  0  0  0  0  0  0  0  0
    6.3797    2.7493  -16.9074 H   0  0  0  0  0  0  0  0  0  0  0  0
    6.1823    4.5068  -17.2224 H   0  0  0  0  0  0  0  0  0  0  0  0
    7.4028   -6.1086  -17.2338 H   0  0  0  0  0  0  0  0  0  0  0  0
    7.4520   -5.0381  -18.6754 H   0  0  0  0  0  0  0  0  0  0  0  0
    7.3363   -4.3251  -17.0307 H   0  0  0  0  0  0  0  0  0  0  0  0
    3.3532    2.7833  -21.1138 H   0  0  0  0  0  0  0  0  0  0  0  0
    2.0453    3.2615  -18.9601 H   0  0  0  0  0  0  0  0  0  0  0  0
    2.9803    3.5904  -17.5397 H   0  0  0  0  0  0  0  0  0  0  0  0
  1  2  1  0  0  0  0
  1  3  2  0  0  0  0
  2  8  2  0  0  0  0
  3 10  1  0  0  0  0
  4  8  1  0  0  0  0
  4 10  2  0  0  0  0
  5  9  1  0  0  0  0
  5 11  2  0  0  0  0
  6  9  2  0  0  0  0
  6 20  1  0  0  0  0
  7 11  1  0  0  0  0
  7 20  2  0  0  0  0
  8  9  1  0  0  0  0
 10 17  1  0  0  0  0
 11 25  1  0  0  0  0
 12 17  1  0  0  0  0
 12 21  1  0  0  0  0
 12 24  2  0  0  0  0
 13 21  1  0  0  0  0
 13 22  2  0  0  0  0
 13 23  1  0  0  0  0
 14 15  1  0  0  0  0
 14 16  1  0  0  0  0
 15 16  1  0  0  0  0
 16 17  1  0  0  0  0
 17 22  1  0  0  0  0
 18 21  1  0  0  0  0
 19 25  1  0  0  0  0
  1 26  1  0  0  0  0
  2 27  1  0  0  0  0
  3 28  1  0  0  0  0
  4 29  1  0  0  0  0
  5 30  1  0  0  0  0
  6 31  1  0  0  0  0
  7 32  1  0  0  0  0
 14 33  1  0  0  0  0
 14 34  1  0  0  0  0
 15 35  1  0  0  0  0
 15 36  1  0  0  0  0
 16 37  1  0  0  0  0
 18 38  1  0  0  0  0
 18 39  1  0  0  0  0
 18 40  1  0  0  0  0
 19 41  1  0  0  0  0
 19 42  1  0  0  0  0
 19 43  1  0  0  0  0
 22 44  1  0  0  0  0
 23 45  1  0  0  0  0
 23 46  1  0  0  0  0
M  CHG  1  22   1
M  END
> <OMEGA_C>
V+feQHkkGL9qX7PBJnrMQEkcxb/4dKzBZS3XQCjuRj97zLHBU9GqQPD6gz53WaLByv6zQBceTcBC
RZnBVMRmQJhA7b+ENZnB+BxpQJIMdcBvOI/BcWSyQIjsjb+S6aPBAcudQIBrBMCzwJzBebm7QJz/
mj/hc6nBzTSfQEQBg8BiOZLBcO3KQJQKSkDs2p3B70WDQHBzS0Cf6ZnBEeqtQKKin0BXvrLBzxrc
QGKlj0D38bPB3T+3QKhcX0DfTrLBE7GxQKIgLEABo6fByHG2QEhRYUDLaIrBbP7gQEhkpcALV43B
SAw/QF+iLsCQqJLBPcesQKr0TkCqs5XB8NqEQFYGOECxJqTBUME7QGQTV0BAGJTBl+HxQGzZSEC6
rZzB39ayQDzLpsD4/43BNwHzQG2ha78W5rnBukHSQDEAJsD4rK3BnTfmQJt0wD8h+LbBDMyXQJUc
FT+gnpvBoFDUQKVUWcA17JvBbgBFQJ/7d79zzZvBD3NIQFvKkMBiBorB1y2kQBO3sEClcavBDw+d
QN9CrUBsrbnBjlPsQCa2kUDpvLvBVnLzQFoqlUAiga3BwwuuQNuLO0C9hrnBQ5aYQFFKYUCgv4XB
vybMQFT1L0BfQofBNNXFQF43kEBgx4nBf+PsQFN5w8DQ3onBGHfuQEI4ocAjZ5XBKMPqQD5nisDj
PojBz5pWQIUhMkD+6KjBCeYCQJ68UEBZrpfBt70+QK/JZUBjUYzBcbTYQOjNBb85xbTB8WHEQBf5
vb/mea7B8yrUQFVRVT+9QLLBjoWlQNq9iT7XQKPBGt9tQGYFBsCH9JjBZNW8QC0kSMA/UJvBk6yM
QNyAg8C9gY/BIjasQG7Qi7+Lf6XBkz2fQNotB8CL5J3BcA+5QBiwnz+bwqnBLBdaQIf4R8DZwZHB
tXLKQFCeQ0AEypzBAqWCQJlGWEC6cprBG9/BQH8ko0BS+7DBZSzqQF3Wh0Cqv7LB/B6+QJclZUCW
XLHBLAazQBqLLkBvOafBf3SxQARXZkBCAorBNbznP1pbicAy2YbBW3KzQLf3gsAMO5TBqzOqQEGp
T0B8SpXB3RSGQHucQEBWgaTBnhI6QObXc0BZqZXB0aDwQD27OkCW0JrBuCsJQKzuSMA3So3Bztbr
QHDSUr8EjbvBRTHHQIz2IcADfrDBPXvlQNhfyT9I0rbBO5aRQOJbED/2mZzBOltAQDmXp7/MpZrB
7dTbQG4rSMA5Ip/Bk2SFQIKVnMAb2YnB6U69QLYrtEBpXanBrfu0QHiXtkAikrfBOQ/6QIObh0Dw
mbrBOjEBQcAvhUA4ZazBHFSwQDzeS0Dg0LjBk4GSQETna0Dn34XBZ8nEQOk+NED6JobBt4HCQLjp
kUCxkInB+BpJP7z/hcCaw4PBCIvwPwRzpsCPxYvBINsgQCu3i8D9GoDBOxtbQAWUO0C7mqnBLP4D
QJC6dkCo7JnB5O85QAxqgkDL8o3BoTbZQDr4Db9lw7TBcSbJQLgCw78Ysq3BwZTSQBAeUD/dt7LB
0cypQDhSej5hxKLBmNFtQNtU/79wapnB0Yi5QAtgT8BW4JnBsKSAQNrAgcCtfo/BhdexQEb0j79m
mqTB1eOgQFZACMC1KZ3BXv+5QN5dnT8oyanB1+tLQMjIPsDvk5LB5tvKQFVUQ0Bt2JzBwhGDQJ/m
VUDRKJrBJ4yrQCKNYUDrYrvB/bSiQMqnmEDwqbTB1QbBQBo1a0DZXLDBTySzQJi6LUCgGKfB3fez
QIlbcUBvXIrB8NCEP+Z57r8PmZLB+mupQCZlhcBCF5PBE2arQH+IUkBTQpXBH/iFQDugO0DnH6TB
VZY6QBUyb0AYQZXB/rbxQMKCRECIf5vB13jwP17sPMCp3o7BE7vqQLNHXL8xzLvB3anOQOmfJMBK
O6/BAFXgQOCqxj9H/7fBZQqXQK0LCz9c6pvBJHRHQDKGkr+fvZvBNtHZQCt+VsBg1JzBcWpoQGvL
mcBkH4rBsTmSQDuMMUBejbzB4d6+QMaVZkAHt8LBibSvQN/Qt0AWJ7fBWA+DQBpMnUBt/bDB6Urj
QDJEe0D9hbDB5JaVQE8OeEDP/oXBzaPIQLY/Q0AWLYbBbBrEQHzsl0CrwIrB7Z8MPVbW+r/VEo/B
OXO9P2sUZ7+TLJDBJzJ2P5F4878RX5vBvBlaQJJaMkAKAqnBiJwDQKknbkAaWZnBkh47QGk7gUAx
oI3BfHvHQDeJCL9cm7bBwW66QJbav7+9Oa/Bk6jEQJFNUz/B/7PBPkGlQB76gz5+rqLBLLB1QE/K
DsArqZfB6szAQANYSsAhvJvBuUyVQO0GicAtfo/BaqCpQL5gjr94PqXBpIahQFBOCsCjUZ3Beae0
QEwInz+o56nBTEpoQE+oVcAdypDBdWzJQEwhOUCUn5vBxKmCQJqnXkB+9JrBkmG5QGhLiUAgIbjB
ptrNQJ9No0DfA6/BQUTQQJf3ZEA52K7B4dy1QNJ+LkB4pqbBQiKtQE/7aUDsvInBe/OkPxBaNcBJ
Bo/BSJu6QEjnhcAC4pTBydOnQOSCT0AE8pTB4daJQFk9TkDiH6XB+Nk3QHAie0Dk15bBbDLvQO3F
MEA/MZnBnnAcQMWoZMBhaIvBJb3TQECWVb9vUb7B0j69QJ0DI8DcLrHBOczOQP6OyD89v7nBHkaW
QKveDT/zQ5vB2KJFQOUou79XhJjBfX3eQCbCRsBrIqDBFrSQQAtoo8DQB4rBN1iWQJ6Eh0DJ2bjB
5czHQMCNiUAsKMDB1uLqQKRBtkD1iLDBKG65QII4tECSOqnBrMPvQEH/SUCO3LDB3ZyNQOwweEA+
P4bBp2y8QAgENkAWMoXB+FjBQP3FkUAtYonBdOTUPlDbRsAHI4rBO6m9P1Kq4L85PI7BqlCLPw3S
RMBqdZfB5uZoQLosVkDm/arB7QYGQAZFgkCQuZvBn98xQBMfg0ARAI/B

> <OMEGA_E>
ZJoJP/DXEj94kxg/NBsjPw==

> <OMEGA_NBR>
    148034

$$$$
50215525
  -OEChem-04172616093D

 47 50  0     1  0  0  0  0  0999 V2000
    6.7453   -0.4561  -22.7605 C   0  0  0  0  0  0  0  0  0  0  0  0
    5.5892   -4.1401  -18.4612 C   0  0  0  0  0  0  0  0  0  0  0  0
    6.2939   -1.4534  -21.8838 C   0  0  0  0  0  0  0  0  0  0  0  0
    6.0113   -3.1848  -19.4045 C   0  0  0  0  0  0  0  0  0  0  0  0
    6.5121    0.9027  -22.4778 C   0  0  0  0  0  0  0  0  0  0  0  0
    4.3035   -4.0518  -17.8946 C   0  0  0  0  0  0  0  0  0  0  0  0
    5.3177    0.2657  -20.4625 C   0  0  0  0  0  0  0  0  0  0  0  0
    3.8731   -2.0324  -19.1894 C   0  0  0  0  0  0  0  0  0  0  0  0
    5.5876   -1.0933  -20.7225 C   0  0  0  0  0  0  0  0  0  0  0  0
    5.1540   -2.1217  -19.7641 C   0  0  0  0  0  0  0  0  0  0  0  0
    5.7852    1.2911  -21.3230 C   0  0  0  0  0  0  0  0  0  0  0  0
    3.4303   -3.0081  -18.2637 C   0  0  0  0  0  0  0  0  0  0  0  0
    6.2825    2.9377  -19.5349 C   0  0  0  0  0  0  0  0  0  0  0  0
    4.0588    3.3813  -19.2733 C   0  0  0  0  0  0  0  0  0  0  0  0
    7.1519    4.1451  -22.6163 C   0  0  0  0  0  0  0  0  0  0  0  0
    5.7600    3.9891  -23.2858 C   0  0  0  0  0  0  0  0  0  0  0  0
    5.8908    4.0019  -21.7620 C   0  0  0  0  0  0  0  0  0  0  0  0
    5.5659    2.7577  -20.8587 C   0  0  1  0  0  0  0  0  0  0  0  0
    5.5483    3.7099  -17.2536 C   0  0  0  0  0  0  0  0  0  0  0  0
    1.2158   -2.0402  -18.2425 C   0  0  0  0  0  0  0  0  0  0  0  0
    5.2871    3.2239  -18.6139 N   0  0  0  0  0  0  0  0  0  0  0  0
    4.1486    2.9130  -20.4973 N   0  3  0  0  0  0  0  0  0  0  0  0
    2.9099    3.9346  -18.7285 N   0  0  0  0  0  0  0  0  0  0  0  0
    7.4888    2.8532  -19.3325 O   0  0  0  0  0  0  0  0  0  0  0  0
    2.1635   -2.9933  -17.7009 O   0  0  0  0  0  0  0  0  0  0  0  0
    7.2760   -0.7330  -23.6594 H   0  0  0  0  0  0  0  0  0  0  0  0
    6.2523   -4.9418  -18.1716 H   0  0  0  0  0  0  0  0  0  0  0  0
    6.4879   -2.4937  -22.0998 H   0  0  0  0  0  0  0  0  0  0  0  0
    6.9904   -3.2647  -19.8533 H   0  0  0  0  0  0  0  0  0  0  0  0
    6.8914    1.6594  -23.1486 H   0  0  0  0  0  0  0  0  0  0  0  0
    3.9838   -4.7884  -17.1724 H   0  0  0  0  0  0  0  0  0  0  0  0
    4.7420    0.5318  -19.5883 H   0  0  0  0  0  0  0  0  0  0  0  0
    3.2223   -1.2129  -19.4564 H   0  0  0  0  0  0  0  0  0  0  0  0
    7.8818    3.3236  -22.6639 H   0  0  0  0  0  0  0  0  0  0  0  0
    7.6807    5.1086  -22.6616 H   0  0  0  0  0  0  0  0  0  0  0  0
    5.3002    4.8418  -23.8069 H   0  0  0  0  0  0  0  0  0  0  0  0
    5.5014    3.0568  -23.8092 H   0  0  0  0  0  0  0  0  0  0  0  0
    5.5659    4.9493  -21.3073 H   0  0  0  0  0  0  0  0  0  0  0  0
    4.5939    3.8593  -16.7275 H   0  0  0  0  0  0  0  0  0  0  0  0
    6.1544    2.9700  -16.7101 H   0  0  0  0  0  0  0  0  0  0  0  0
    6.0927    4.6644  -17.3035 H   0  0  0  0  0  0  0  0  0  0  0  0
    0.2574   -2.1327  -17.7107 H   0  0  0  0  0  0  0  0  0  0  0  0
    1.6084   -1.0205  -18.1158 H   0  0  0  0  0  0  0  0  0  0  0  0
    1.0623   -2.2436  -19.3126 H   0  0  0  0  0  0  0  0  0  0  0  0
    3.3738    2.6959  -21.0911 H   0  0  0  0  0  0  0  0  0  0  0  0
    2.0761    3.9966  -19.2771 H   0  0  0  0  0  0  0  0  0  0  0  0
    2.9152    4.2716  -17.7870 H   0  0  0  0  0  0  0  0  0  0  0  0
  1  3  1  0  0  0  0
  1  5  2  0  0  0  0
  2  4  2  0  0  0  0
  2  6  1  0  0  0  0
  3  9  2  0  0  0  0
  4 10  1  0  0  0  0
  5 11  1  0  0  0  0
  6 12  2  0  0  0  0
  7  9  1  0  0  0  0
  7 11  2  0  0  0  0
  8 10  2  0  0  0  0
  8 12  1  0  0  0  0
  9 10  1  0  0  0  0
 11 18  1  0  0  0  0
 12 25  1  0  0  0  0
 13 18  1  0  0  0  0
 13 21  1  0  0  0  0
 13 24  2  0  0  0  0
 14 21  1  0  0  0  0
 14 22  2  0  0  0  0
 14 23  1  0  0  0  0
 15 16  1  0  0  0  0
 15 17  1  0  0  0  0
 16 17  1  0  0  0  0
 17 18  1  0  0  0  0
 18 22  1  0  0  0  0
 19 21  1  0  0  0  0
 20 25  1  0  0  0  0
  1 26  1  0  0  0  0
  2 27  1  0  0  0  0
  3 28  1  0  0  0  0
  4 29  1  0  0  0  0
  5 30  1  0  0  0  0
  6 31  1  0  0  0  0
  7 32  1  0  0  0  0
  8 33  1  0  0  0  0
 15 34  1  0  0  0  0
 15 35  1  0  0  0  0
 16 36  1  0  0  0  0
 16 37  1  0  0  0  0
 17 38  1  0  0  0  0
 19 39  1  0  0  0  0
 19 40  1  0  0  0  0
 19 41  1  0  0  0  0
 20 42  1  0  0  0  0
 20 43  1  0  0  0  0
 20 44  1  0  0  0  0
 22 45  1  0  0  0  0
 23 46  1  0  0  0  0
 23 47  1  0  0  0  0
M  CHG  1  22   1
M  END
> <OMEGA_C>
jdnXQB6B6b58FbbBZdqyQLt7hMBysJPBPWfJQFYKur8DEq/Bi1zAQJ/TS8B5PJvBg2PQQGsUZz+c
0rPB5rWJQFeogcArKI/BgSqqQDQNiD4ws6PBnuF3QE0SAsDog5nB0s2yQEDwi7/Ex6XBhu2kQLbJ
B8DNHJ7BLyC5QPJCpT+VlarBoolbQBCFQMANHJLB9gnJQJ0CPEByR5zBv+GBQBZnWECmL5rBC9zk
QH+khEAe7rTBO1K4QLhNf0BcSbrBsIG8QDAPgEB9GK7B0huyQOF+MEC43qbBuIuxQFJubUBOB4rB
5J6bP3iSAsCs8JHBUzCpQCRVTkBY6ZTBksGEQEhvOkBx+qPBxDs6QKjQe0Dq05XBe6TvQJyaNkAB
qZrBSncKQGqRP8B5m43B1dToQMaiO7+LRr3B/hLIQGUjnsBWX5HBjJzPQJaYH8BVzLDBUbHfQG7w
UMCI057Bv4bcQEVn1D8/MLnBifZ+QPU6mcAbYYnBR76XQCsiCD/itJzBazlOQMpBm7+5ppvB6zf8
QF21VEC5T7XBHsj1QFh5o0DrSrXBcJupQDDwmkBudL7BPAuwQAujQ0A8eb7BChyyQMZgnkBBdarB
HQGTQHr/dkDw0YXB4/DEQCUVPkBeroXBoffCQJlClUCSbYrBJMaDPnZ+CMBrr43Bv97NP+Cegr8Y
7ZDB+PiHP4qXD8AtgJrBKO1XQMCJLEB+uqjBIt8EQB/If0B3N5rB+pE6QFexiEDFS47BY0zYQCar
Ar+147TBUQC0QELHgsAznJPB9dfEQBxSvL+5aK7Boay+QHN/RcBU7ZrBYYLTQKD/WD/dc7LB4wGL
QIWIg8BvEI/B2mCmQEd+kj5yJ6PB/hZvQGEbBsDk/ZjBUkOtQHvFib8qVqXBfYugQG4LBsAsqp3B
Qw65QFeioT8a1anB+o1YQLNwR8DcwpHBGcjKQA7WRUDzBp3B2eyCQNYeXEA8lprBCq2/QJjZo0Dc
BLHBw7DoQASWiUC0xbLBijK9QLdfZkDleLHBQMqyQFuJL0A6VafBcCCyQL2aZ0CaOYrBvFXfP5Gy
hcDKdYbB6pGrQH/mYEAj3pXBFfuFQOFaQUCWhqTBiks5QN8CcEAeipXB5yDwQPQlNUBz1prBBDwG
QHOVRsCBqo3BzfLqQP83UL90v7vBLD3LQKDfmsBOdpHB5N/HQKk7IcCdWrDBKyLeQBeRRMCMgJ7B
Xx3kQEg/yz8XLrfB2auCQO59nMCJdonBqPCSQN89FT+japzBaL1BQAiqqL8n8ZrBc4e6QG2VtEB3
YqnBsW2yQEkdt0D1mLfBwLv4QO7uiUDMmrrBwWoAQRFnh0BPZKzBgM2vQIR9TEB88LjB84aUQIN2
fkAzaobBVYq6QOtaKEC++4bBSzjMQDl/ikBElYjBazk0PzaogcAezIPBkaXsP26GpMApoIrB93ka
QOUWhcCM837BIGJaQIkYOkCxgKnB5PoBQH9MakDgf5nBmnA5QG8HgkAv8Y3B

> <OMEGA_E>
mCf/PkhLBD8=

> <OMEGA_NBR>
    149937

$$$$
50215526
  -OEChem-04172616093D

 50 53  0     1  0  0  0  0  0999 V2000
    4.3828    3.8633  -17.8873 C   0  0  0  0  0  0  0  0  0  0  0  0
    3.4661    3.6186  -18.9265 C   0  0  0  0  0  0  0  0  0  0  0  0
    5.7567    3.6403  -18.0912 C   0  0  0  0  0  0  0  0  0  0  0  0
    6.8996   -0.9975  -22.9483 C   0  0  0  0  0  0  0  0  0  0  0  0
    3.1163   -2.4634  -18.3757 C   0  0  0  0  0  0  0  0  0  0  0  0
    6.3868   -1.8079  -21.9188 C   0  0  0  0  0  0  0  0  0  0  0  0
    3.7320   -1.7075  -19.3837 C   0  0  0  0  0  0  0  0  0  0  0  0
    3.9245    3.1842  -20.1820 C   0  0  0  0  0  0  0  0  0  0  0  0
    6.2189    3.1965  -19.3417 C   0  0  0  0  0  0  0  0  0  0  0  0
    6.7316    0.3993  -22.8957 C   0  0  0  0  0  0  0  0  0  0  0  0
    3.8075   -3.5330  -17.7825 C   0  0  0  0  0  0  0  0  0  0  0  0
    5.5315    0.1753  -20.7912 C   0  0  0  0  0  0  0  0  0  0  0  0
    5.7288   -3.1034  -19.2270 C   0  0  0  0  0  0  0  0  0  0  0  0
    5.6788   -1.2166  -20.8513 C   0  0  0  0  0  0  0  0  0  0  0  0
    5.0382   -2.0292  -19.8153 C   0  0  0  0  0  0  0  0  0  0  0  0
    5.3130    3.0087  -20.4156 C   0  0  0  0  0  0  0  0  0  0  0  0
    6.0689    0.9995  -21.7973 C   0  0  0  0  0  0  0  0  0  0  0  0
    5.1182   -3.8525  -18.1890 C   0  0  0  0  0  0  0  0  0  0  0  0
    7.0463    3.2861  -22.2062 C   0  0  0  0  0  0  0  0  0  0  0  0
    5.3363    3.6980  -23.6598 C   0  0  0  0  0  0  0  0  0  0  0  0
    5.8180    2.5040  -21.7757 C   0  0  2  0  0  0  0  0  0  0  0  0
    7.5413    4.8287  -24.1125 C   0  0  0  0  0  0  0  0  0  0  0  0
    7.1816   -4.9903  -17.6933 C   0  0  0  0  0  0  0  0  0  0  0  0
    6.6196    4.0859  -23.2491 N   0  0  0  0  0  0  0  0  0  0  0  0
    4.8451    2.8109  -22.8304 N   0  3  0  0  0  0  0  0  0  0  0  0
    4.6791    4.1518  -24.7920 N   0  0  0  0  0  0  0  0  0  0  0  0
    8.1916    3.1912  -21.7770 O   0  0  0  0  0  0  0  0  0  0  0  0
    5.7494   -4.8935  -17.5319 O   0  0  0  0  0  0  0  0  0  0  0  0
    4.0310    4.2229  -16.9316 H   0  0  0  0  0  0  0  0  0  0  0  0
    2.4092    3.7647  -18.7590 H   0  0  0  0  0  0  0  0  0  0  0  0
    6.4565    3.8103  -17.2863 H   0  0  0  0  0  0  0  0  0  0  0  0
    7.4224   -1.4473  -23.7795 H   0  0  0  0  0  0  0  0  0  0  0  0
    2.1128   -2.2238  -18.0561 H   0  0  0  0  0  0  0  0  0  0  0  0
    6.5344   -2.8774  -21.9456 H   0  0  0  0  0  0  0  0  0  0  0  0
    3.2062   -0.8770  -19.8313 H   0  0  0  0  0  0  0  0  0  0  0  0
    3.2167    2.9831  -20.9726 H   0  0  0  0  0  0  0  0  0  0  0  0
    7.2705    2.9973  -19.4855 H   0  0  0  0  0  0  0  0  0  0  0  0
    7.1101    1.0164  -23.6972 H   0  0  0  0  0  0  0  0  0  0  0  0
    3.3301   -4.1153  -17.0082 H   0  0  0  0  0  0  0  0  0  0  0  0
    4.9996    0.6207  -19.9635 H   0  0  0  0  0  0  0  0  0  0  0  0
    6.7226   -3.3576  -19.5649 H   0  0  0  0  0  0  0  0  0  0  0  0
    6.9678    5.3894  -24.8654 H   0  0  0  0  0  0  0  0  0  0  0  0
    8.1298    5.5301  -23.5029 H   0  0  0  0  0  0  0  0  0  0  0  0
    8.2186    4.1243  -24.6174 H   0  0  0  0  0  0  0  0  0  0  0  0
    7.5578   -5.8534  -17.1246 H   0  0  0  0  0  0  0  0  0  0  0  0
    7.4224   -5.1202  -18.7587 H   0  0  0  0  0  0  0  0  0  0  0  0
    7.6555   -4.0705  -17.3198 H   0  0  0  0  0  0  0  0  0  0  0  0
    3.9361    2.4009  -22.9054 H   0  0  0  0  0  0  0  0  0  0  0  0
    3.7710    3.7993  -25.0180 H   0  0  0  0  0  0  0  0  0  0  0  0
    5.1129    4.8318  -25.3831 H   0  0  0  0  0  0  0  0  0  0  0  0
  1  2  1  0  0  0  0
  1  3  2  0  0  0  0
  2  8  2  0  0  0  0
  3  9  1  0  0  0  0
  4  6  1  0  0  0  0
  4 10  2  0  0  0  0
  5  7  2  0  0  0  0
  5 11  1  0  0  0  0
  6 14  2  0  0  0  0
  7 15  1  0  0  0  0
  8 16  1  0  0  0  0
  9 16  2  0  0  0  0
 10 17  1  0  0  0  0
 11 18  2  0  0  0  0
 12 14  1  0  0  0  0
 12 17  2  0  0  0  0
 13 15  2  0  0  0  0
 13 18  1  0  0  0  0
 14 15  1  0  0  0  0
 16 21  1  0  0  0  0
 17 21  1  0  0  0  0
 18 28  1  0  0  0  0
 19 21  1  0  0  0  0
 19 24  1  0  0  0  0
 19 27  2  0  0  0  0
 20 24  1  0  0  0  0
 20 25  2  0  0  0  0
 20 26  1  0  0  0  0
 21 25  1  0  0  0  0
 22 24  1  0  0  0  0
 23 28  1  0  0  0  0
  1 29  1  0  0  0  0
  2 30  1  0  0  0  0
  3 31  1  0  0  0  0
  4 32  1  0  0  0  0
  5 33  1  0  0  0  0
  6 34  1  0  0  0  0
  7 35  1  0  0  0  0
  8 36  1  0  0  0  0
  9 37  1  0  0  0  0
 10 38  1  0  0  0  0
 11 39  1  0  0  0  0
 12 40  1  0  0  0  0
 13 41  1  0  0  0  0
 22 42  1  0  0  0  0
 22 43  1  0  0  0  0
 22 44  1  0  0  0  0
 23 45  1  0  0  0  0
 23 46  1  0  0  0  0
 23 47  1  0  0  0  0
 25 48  1  0  0  0  0
 26 49  1  0  0  0  0
 26 50  1  0  0  0  0
M  CHG  1  25   1
M  END
> <OMEGA_C>
wz+MQHNAd0A5GY/BTtRdQL+WZ0BhaZfB/za4QAX7aEDFupDBfMncQDRef78ulrfB5HBHQESoHcBZ
AZPBXmDMQLJn57+4Wa/BLNluQC6O2r/TEZvBTip7QADKS0DRdKHB0gDHQNqTTEDVu5rBcmnXQHh0
zD5iKrfBlq1zQAwcYsCFQo7BEgKxQBiAMz5dVKbBilK3QGyeRsDZ0JnBWbi1QAK6m795z6bBGDmh
QPLeAcC/hZ7BLASqQB+PQEA4U6PBzzTCQPLhfz/WYK7BV8ijQB6QdsD+gpHBjHvhQPxPUkBPprHB
xMKqQMCrbEBJR73BEC26QCxBIECfNK7BF1LxQMKEmkBs5sDBzc/lQCSwn8Dji43B3tPTQA/AgkAg
/rnBZAubQP/kM0CSpLbB7rqVQGbbhEAIVsbBqRADQbU8TEA4N67Byvq3QGeXnMA/QYzBz/2AQEsi
h0ADdIfBQDAaQHfwcEBtEpbBj5vOQMPbc0BiSorBV4TtQDVBub9VPL7B3zgHQOJSDsDLcpDBxxnR
QPgmOMCUkK/BrTJNQBeGYL+Hpp7BDt5NQK3qPkDmx6fBOajoQNrTP0BJ4pvB7IXjQD8agj/Ik73B
JyBVQDewg8DlEIjBtPyfQNjnHj9CtZ/Bax/XQJDjVsD7hJzBg/jeQI91rEBa7MbBiBMCQf32sEDn
BbzBdn8DQfv5g0CJ8MTBF9nxQDdPu8Ac/4jBiITtQMjYo8DeEZbBPfr0QMdBgsD2jorBIel7QP6o
GUArPrfBVFdxQMgnc0DwJMjBepyjQPydmkCoEMvB/KOLQAAweUB6D4/BGIK3QODSaEBqjJDBAzxd
QMxsa0AbfpfBKMnbQDInfb+JkrfBhuBGQJ5yH8ABBJPBPojLQPtb5r8rVK/ByOBtQH++3L9fC5vB
IIXGQJQgTEBHhprBhAB7QGo0T0Cif6HBkJ3WQFS50D6wGbfBI+hzQLRTY8B2QY7BzFmwQOA+Oz7U
PKbBjl63QIgwRsDBwpnBBhe1QP/gmr9sv6bBfuSgQGLZAcCxdZ7BHt6pQCGrQUBIOKPB+KTBQKn7
gD+zRq7BSQakQEDldsCyfZHBDPnhQEDJUUCnd7HBILerQN5EbUAaOr3BFi+6QC7xIEAkE67BQCbz
QAAdmUDq5cDB5N3kQIn0o8DHzI7BZiHVQE0BgkCn/LnB822bQJY8NUAelLbBnseWQI/zhUDIN8bB
uy4DQf9eS0B54K3B4FW4QFXTnMBPRIzBJjqAQOMriECmb4fBDqnNQAFQckASBorBxLcZQOePdkAh
RpbBQj3sQLASuL9TRL7BD1cGQPAWEcDofpDBrTXQQDGjN8DHkK/Bt6pLQLxKZr9kn57BHxboQB/2
PUAwkpvBvhtOQFHDQ0AW6afBl7biQDZRgz+sgb3B4b1VQNZuhMDODojBskefQEaAID9Pnp/B5E7X
QAeRVcCncZzBiT3hQNS1qkDaEMfBhOoCQUnPr0DHDrzB93UEQQwqgkD+wcTBKPTwQGg3v8DXH4rB
uBvoQOjvqsANY5fBQHX3QEIih8Dg0YzBOlJ8QIfcG0B6NbfByKRyQH0ud0BG98fBKiGlQIxdm0BL
9crBvCiSQD/UfECtTo/BRti8QPkLfUCU4pLB6ytjQMOCXEDp85XBKxTlQFCzcr9Bl7bBUAGsQOXN
hMDvE5PBJEnUQDyb5b9aqq7Baye9QNAKU8By6ZrBjgDHQJhdXUAUHZ3B8wF3QMAiPkBURKDBWOzZ
QIUv0z7FyLbBNSODQJy/ecCZ0I7BNd2sQMpbrz2ZE6fBraB4QGwJ+L/CQprBdL+3QNmgpL8p4abB
GX2lQAi2C8Dilp7B7lOmQDuxP0BUE6TBa4m+QE2kdD8e267BbrBVQBl0MsA+Y5LB9kDTQLiTU0A1
zbTBAlWVQBVrV0BMpr7B6FexQOwSHEDLSK/B9JvVQBH6k0BP/8XBsq7BP71yV8DUfYbBixC/QCWy
d0BQl73BalyMQF19JEDbkrbBWgFyQLxMakBU5cbBLUr5QFp/WkC7hLLB/XIEQEkNH8BzjI7BrGSK
QIG3ikBceIfBs9zVQAzJikDTxY3B0NchQMIAW0AJI5PBD6H6QKIgrL+qjbzBIEm+QGn6n8CfUZDB
GjXdQMyRNcDmg67BhZTcQKKfX8ALJZ7BDvrnQOGcW0DvsJ/Boa9EQBh0JUCwUqXBPFLmQBt0hj9q
B73BxE9sQNP9kcBey4jBr8OWQHPD8z7ZNqHBKiFUQLtNi7/rBp3BCXW+QMPfnkBNCszBaKDlQBzd
r0Boa8LBsJjtQBJvfkCOz8nBZjADP+awQMCyMoTBff23P1BYjMDyvYnBxLcKQLrKV8Dr1X7BK2hg
QB1NB0AdgrXBWWk3QGaOUEAH7MbBxuyBQLrPiEDkzMzB

> <OMEGA_E>
8FuBP75hgT/gzoc/

> <OMEGA_NBR>
    152773

$$$$
50215542
  -OEChem-04172616093D

 45 48  0     1  0  0  0  0  0999 V2000
    4.6588    4.1024  -17.9338 C   0  0  0  0  0  0  0  0  0  0  0  0
    5.9096    3.5072  -18.1879 C   0  0  0  0  0  0  0  0  0  0  0  0
    3.6914    4.1699  -18.9545 C   0  0  0  0  0  0  0  0  0  0  0  0
    7.0562   -1.0137  -22.6833 C   0  0  0  0  0  0  0  0  0  0  0  0
    4.0117   -2.3785  -17.4815 C   0  0  0  0  0  0  0  0  0  0  0  0
    6.4720   -1.8122  -21.6852 C   0  0  0  0  0  0  0  0  0  0  0  0
    4.6006   -1.5419  -18.4428 C   0  0  0  0  0  0  0  0  0  0  0  0
    6.1952    2.9824  -19.4638 C   0  0  0  0  0  0  0  0  0  0  0  0
    3.9717    3.6460  -20.2308 C   0  0  0  0  0  0  0  0  0  0  0  0
    6.7682    0.3602  -22.7474 C   0  0  0  0  0  0  0  0  0  0  0  0
    5.2871    0.1375  -20.8219 C   0  0  0  0  0  0  0  0  0  0  0  0
    3.7845   -3.7345  -17.7936 C   0  0  0  0  0  0  0  0  0  0  0  0
    4.6950   -3.4581  -19.9370 C   0  0  0  0  0  0  0  0  0  0  0  0
    5.5800   -1.2430  -20.7464 C   0  0  0  0  0  0  0  0  0  0  0  0
    4.9524   -2.0854  -19.6986 C   0  0  0  0  0  0  0  0  0  0  0  0
    5.2305    3.0477  -20.5013 C   0  0  0  0  0  0  0  0  0  0  0  0
    5.9057    0.9587  -21.7956 C   0  0  0  0  0  0  0  0  0  0  0  0
    6.6636    3.2684  -22.5473 C   0  0  0  0  0  0  0  0  0  0  0  0
    4.7691    3.3779  -23.8419 C   0  0  0  0  0  0  0  0  0  0  0  0
    5.5545    2.4532  -21.8876 C   0  0  2  0  0  0  0  0  0  0  0  0
    6.8544    4.5362  -24.7244 C   0  0  0  0  0  0  0  0  0  0  0  0
    4.1232   -4.2500  -18.9995 N   0  0  0  0  0  0  0  0  0  0  0  0
    6.0923    3.8254  -23.6839 N   0  0  0  0  0  0  0  0  0  0  0  0
    4.4329    2.6020  -22.8343 N   0  3  0  0  0  0  0  0  0  0  0  0
    3.9175    3.7034  -24.8917 N   0  0  0  0  0  0  0  0  0  0  0  0
    7.8295    3.3754  -22.1803 O   0  0  0  0  0  0  0  0  0  0  0  0
    4.4418    4.5070  -16.9563 H   0  0  0  0  0  0  0  0  0  0  0  0
    6.6505    3.4530  -17.4041 H   0  0  0  0  0  0  0  0  0  0  0  0
    2.7318    4.6248  -18.7578 H   0  0  0  0  0  0  0  0  0  0  0  0
    7.7283   -1.4572  -23.4030 H   0  0  0  0  0  0  0  0  0  0  0  0
    3.7356   -1.9876  -16.5134 H   0  0  0  0  0  0  0  0  0  0  0  0
    6.7051   -2.8655  -21.6347 H   0  0  0  0  0  0  0  0  0  0  0  0
    4.7818   -0.4995  -18.2258 H   0  0  0  0  0  0  0  0  0  0  0  0
    7.1559    2.5269  -19.6532 H   0  0  0  0  0  0  0  0  0  0  0  0
    3.2246    3.6995  -21.0089 H   0  0  0  0  0  0  0  0  0  0  0  0
    7.2074    0.9642  -23.5276 H   0  0  0  0  0  0  0  0  0  0  0  0
    4.5825    0.5718  -20.1280 H   0  0  0  0  0  0  0  0  0  0  0  0
    3.3299   -4.3770  -17.0540 H   0  0  0  0  0  0  0  0  0  0  0  0
    4.9623   -3.8844  -20.8926 H   0  0  0  0  0  0  0  0  0  0  0  0
    6.1682    4.8776  -25.5135 H   0  0  0  0  0  0  0  0  0  0  0  0
    7.3614    5.4046  -24.2786 H   0  0  0  0  0  0  0  0  0  0  0  0
    7.6033    3.8573  -25.1584 H   0  0  0  0  0  0  0  0  0  0  0  0
    3.5372    2.1710  -22.7247 H   0  0  0  0  0  0  0  0  0  0  0  0
    2.9857    3.3409  -24.9104 H   0  0  0  0  0  0  0  0  0  0  0  0
    4.2368    4.2999  -25.6280 H   0  0  0  0  0  0  0  0  0  0  0  0
  1  2  1  0  0  0  0
  1  3  2  0  0  0  0
  2  8  2  0  0  0  0
  3  9  1  0  0  0  0
  4  6  1  0  0  0  0
  4 10  2  0  0  0  0
  5  7  2  0  0  0  0
  5 12  1  0  0  0  0
  6 14  2  0  0  0  0
  7 15  1  0  0  0  0
  8 16  1  0  0  0  0
  9 16  2  0  0  0  0
 10 17  1  0  0  0  0
 11 14  1  0  0  0  0
 11 17  2  0  0  0  0
 12 22  2  0  0  0  0
 13 15  2  0  0  0  0
 13 22  1  0  0  0  0
 14 15  1  0  0  0  0
 16 20  1  0  0  0  0
 17 20  1  0  0  0  0
 18 20  1  0  0  0  0
 18 23  1  0  0  0  0
 18 26  2  0  0  0  0
 19 23  1  0  0  0  0
 19 24  2  0  0  0  0
 19 25  1  0  0  0  0
 20 24  1  0  0  0  0
 21 23  1  0  0  0  0
  1 27  1  0  0  0  0
  2 28  1  0  0  0  0
  3 29  1  0  0  0  0
  4 30  1  0  0  0  0
  5 31  1  0  0  0  0
  6 32  1  0  0  0  0
  7 33  1  0  0  0  0
  8 34  1  0  0  0  0
  9 35  1  0  0  0  0
 10 36  1  0  0  0  0
 11 37  1  0  0  0  0
 12 38  1  0  0  0  0
 13 39  1  0  0  0  0
 21 40  1  0  0  0  0
 21 41  1  0  0  0  0
 21 42  1  0  0  0  0
 24 43  1  0  0  0  0
 25 44  1  0  0  0  0
 25 45  1  0  0  0  0
M  CHG  1  24   1
M  END
> <OMEGA_C>
GxWVQDBHg0B3eI/BWhu9QBl2YEDkgJHBBUBsQCRwhUDCopfBPMzhQBnAgb9wd7XBgV+AQIk5GMA2
2ovBVhrPQC/2578+e63B3DeTQNNbxb/RipPBwj7GQDHfPkDXtZvB3jB+QKpXaUCx2KHBTZXYQAhr
uD6s+rXBJzCpQO3XDD4ok6bBQDVyQHABb8BHWY7B0z2WQNdQXcD/fp/BsI+yQHEan7+M+KXBFnqe
QJJ2BcDOlp3B7F+nQOcNQ0CqAqTBuvu8QOJtdT95Xa7B6jvVQCUuUUDzYLTBFpyYQK8vWEBOvL7B
0b6xQDgBHUC4Ga/BUlfbQJYokUCoy8XBO/GDQPb/h8AB/5fBV/TCQCfUdECueL3B+9mNQJOHJkCV
rLbBCLh6QNMDbUAjIsfBiov6QJMGWEAvcbHBNiOOQJE5kEBwpofBH9HUQEP+XEB/O4vBCdYuQHn+
k0AHEJbB7033QBqFur9uObvBkRNvQN9p/r9iG4TBiJDWQKpkN8DfE63BZASZQMvA/756zpHBNv3k
QBW4IUC5OZ3BfWBOQE3EbEAsEqjB26LmQH7Ydj93OLzBFqSSQNpeEj8zBqHBpx1VQEoQjMCvbojB
Y8ueQEKZeMAiJKfBBWLFQHgVnECYG8zB95DrQL7yrECiOsLB7U3zQKTedkCARMnB5mFiQNrwCkAX
zLXBPBU/QEPRVUBrSMfB1pOHQMiYiUAiBs3B

> <OMEGA_E>
MHCMPw==

> <OMEGA_NBR>
    153829

$$$$
50215543
  -OEChem-04172616093D

 43 46  0     1  0  0  0  0  0999 V2000
    6.6469   -0.5807  -22.7134 C   0  0  0  0  0  0  0  0  0  0  0  0
    6.1733   -1.5317  -21.7947 C   0  0  0  0  0  0  0  0  0  0  0  0
    6.4274    0.7886  -22.4833 C   0  0  0  0  0  0  0  0  0  0  0  0
    5.3107    0.2651  -20.3870 C   0  0  0  0  0  0  0  0  0  0  0  0
    5.6788   -3.2615  -19.3738 C   0  0  0  0  0  0  0  0  0  0  0  0
    3.7411   -1.8240  -18.9984 C   0  0  0  0  0  0  0  0  0  0  0  0
    3.9799   -3.8947  -17.7412 C   0  0  0  0  0  0  0  0  0  0  0  0
    5.4888   -1.1090  -20.6344 C   0  0  0  0  0  0  0  0  0  0  0  0
    4.9596   -2.0839  -19.6681 C   0  0  0  0  0  0  0  0  0  0  0  0
    5.7439    1.2272  -21.3197 C   0  0  0  0  0  0  0  0  0  0  0  0
    5.1863   -4.1638  -18.4142 C   0  0  0  0  0  0  0  0  0  0  0  0
    3.2623   -2.7200  -18.0287 C   0  0  0  0  0  0  0  0  0  0  0  0
    5.0284    3.3908  -22.3360 C   0  0  0  0  0  0  0  0  0  0  0  0
    7.1845    4.0324  -21.9520 C   0  0  0  0  0  0  0  0  0  0  0  0
    3.5531    4.0909  -19.8207 C   0  0  0  0  0  0  0  0  0  0  0  0
    3.2705    2.5986  -19.6480 C   0  0  0  0  0  0  0  0  0  0  0  0
    4.7224    3.0830  -19.7822 C   0  0  0  0  0  0  0  0  0  0  0  0
    5.5496    2.7293  -21.0667 C   0  0  1  0  0  0  0  0  0  0  0  0
    6.1325    4.7688  -24.1209 C   0  0  0  0  0  0  0  0  0  0  0  0
    6.0536    4.2206  -22.7608 N   0  0  0  0  0  0  0  0  0  0  0  0
    6.8720    3.3269  -20.8920 N   0  3  0  0  0  0  0  0  0  0  0  0
    8.4582    4.5055  -22.2229 N   0  0  0  0  0  0  0  0  0  0  0  0
    4.0083    3.1093  -22.9566 O   0  0  0  0  0  0  0  0  0  0  0  0
    6.0804   -5.6114  -18.0461 Cl  0  0  0  0  0  0  0  0  0  0  0  0
    1.8117   -2.3418  -17.1395 Cl  0  0  0  0  0  0  0  0  0  0  0  0
    7.1797   -0.9014  -23.5965 H   0  0  0  0  0  0  0  0  0  0  0  0
    6.3324   -2.5845  -21.9755 H   0  0  0  0  0  0  0  0  0  0  0  0
    6.7827    1.5144  -23.1998 H   0  0  0  0  0  0  0  0  0  0  0  0
    4.8362    0.5853  -19.4712 H   0  0  0  0  0  0  0  0  0  0  0  0
    6.6069   -3.4699  -19.8852 H   0  0  0  0  0  0  0  0  0  0  0  0
    3.1771   -0.9335  -19.2335 H   0  0  0  0  0  0  0  0  0  0  0  0
    3.6055   -4.5899  -17.0043 H   0  0  0  0  0  0  0  0  0  0  0  0
    3.2920    4.5946  -20.7631 H   0  0  0  0  0  0  0  0  0  0  0  0
    3.3945    4.7817  -18.9795 H   0  0  0  0  0  0  0  0  0  0  0  0
    2.9065    2.2174  -18.6825 H   0  0  0  0  0  0  0  0  0  0  0  0
    2.8040    2.0303  -20.4661 H   0  0  0  0  0  0  0  0  0  0  0  0
    5.3038    3.0809  -18.8484 H   0  0  0  0  0  0  0  0  0  0  0  0
    7.0324    5.3946  -24.2130 H   0  0  0  0  0  0  0  0  0  0  0  0
    6.1842    3.9435  -24.8464 H   0  0  0  0  0  0  0  0  0  0  0  0
    5.2396    5.3788  -24.3226 H   0  0  0  0  0  0  0  0  0  0  0  0
    7.4515    3.2146  -20.0848 H   0  0  0  0  0  0  0  0  0  0  0  0
    9.2080    4.3138  -21.5896 H   0  0  0  0  0  0  0  0  0  0  0  0
    8.6277    5.0387  -23.0517 H   0  0  0  0  0  0  0  0  0  0  0  0
  1  2  1  0  0  0  0
  1  3  2  0  0  0  0
  2  8  2  0  0  0  0
  3 10  1  0  0  0  0
  4  8  1  0  0  0  0
  4 10  2  0  0  0  0
  5  9  1  0  0  0  0
  5 11  2  0  0  0  0
  6  9  2  0  0  0  0
  6 12  1  0  0  0  0
  7 11  1  0  0  0  0
  7 12  2  0  0  0  0
  8  9  1  0  0  0  0
 10 18  1  0  0  0  0
 11 24  1  0  0  0  0
 12 25  1  0  0  0  0
 13 18  1  0  0  0  0
 13 20  1  0  0  0  0
 13 23  2  0  0  0  0
 14 20  1  0  0  0  0
 14 21  2  0  0  0  0
 14 22  1  0  0  0  0
 15 16  1  0  0  0  0
 15 17  1  0  0  0  0
 16 17  1  0  0  0  0
 17 18  1  0  0  0  0
 18 21  1  0  0  0  0
 19 20  1  0  0  0  0
  1 26  1  0  0  0  0
  2 27  1  0  0  0  0
  3 28  1  0  0  0  0
  4 29  1  0  0  0  0
  5 30  1  0  0  0  0
  6 31  1  0  0  0  0
  7 32  1  0  0  0  0
 15 33  1  0  0  0  0
 15 34  1  0  0  0  0
 16 35  1  0  0  0  0
 16 36  1  0  0  0  0
 17 37  1  0  0  0  0
 19 38  1  0  0  0  0
 19 39  1  0  0  0  0
 19 40  1  0  0  0  0
 21 41  1  0  0  0  0
 22 42  1  0  0  0  0
 22 43  1  0  0  0  0
M  CHG  1  21   1
M  END
> <OMEGA_C>
vrPUQPyqFL8gtbXBkIvFQCYOxL+JW67BbK3NQH7eST/f3bPB5fCpQBi3hz6bGKPBmLi1QNS8UMCJ
/ZrBgW5vQGZ36b+u/JfB3bZ+QElCecDm7Y3B8KOvQPryjb8zE6XBcrWeQC9eBcA0WJ3BKc63QEkU
nT+njqrBz/WlQMA9hcAvUJPBQ8pQQMkTLsDgOpDBluigQIoDWUAvsLLBPeflQHgJgUC+na/BjWZj
QJbogkDdkJ7BoVBRQJhPJkAXL53BJx6XQBBPRUABQp7BrJaxQBWtLkCniKjBej3EQPKZmECy98DB
NrfBQM4Oh0ASFrbBEufbQJnsVEC3IqfBr1QHQU4tkECJyLHBNUSAQFr+RkAxp7fBrZLCQGqQs8B9
XpDB8uXnP/jfFcCxHYnB67/lQOHEZr+RxbzBF6PKQD1oJcDFza/BDAzZQDPYwT8lmbnBy8GaQAzZ
FT8QxZvB3GvTQC0TXsDnFJ/BFVVLQG74br9D3pnBaMBmQCbgksDeCIjBobBSQE8Hk0DWGqbBDkBZ
QJ8DmUAO1pfBYAM6QGrpDUDYdZXB9HMzQMrwAUCguqPB+ripQDYuRUCYyZbBoQnhQNOgrEAltMHB
VeXFQEtifEBUxcbBE6unQB4frEC7lMLBpXLuQCG8TUCkraDB0VMTQawKikCOt6zBGQsKQWs9oUD0
abjB

> <OMEGA_E>
HPaGPw==

> <OMEGA_NBR>
    154856

$$$$
50215530
  -OEChem-04172616093D

 44 47  0     1  0  0  0  0  0999 V2000
    2.0066   -2.5113  -17.3549 C   0  0  0  0  0  0  0  0  0  0  0  0
    5.1878   -4.1962  -18.4075 C   0  0  0  0  0  0  0  0  0  0  0  0
    6.7696   -0.6110  -22.6477 C   0  0  0  0  0  0  0  0  0  0  0  0
    3.9716   -3.9447  -17.7434 C   0  0  0  0  0  0  0  0  0  0  0  0
    5.6809   -3.2767  -19.3524 C   0  0  0  0  0  0  0  0  0  0  0  0
    6.2706   -1.5470  -21.7247 C   0  0  0  0  0  0  0  0  0  0  0  0
    6.4774    0.7559  -22.4969 C   0  0  0  0  0  0  0  0  0  0  0  0
    3.7349   -1.8494  -18.9717 C   0  0  0  0  0  0  0  0  0  0  0  0
    5.1961    0.2553  -20.4859 C   0  0  0  0  0  0  0  0  0  0  0  0
    3.2445   -2.7700  -18.0251 C   0  0  0  0  0  0  0  0  0  0  0  0
    4.9595   -2.0937  -19.6426 C   0  0  0  0  0  0  0  0  0  0  0  0
    5.4811   -1.1190  -20.6325 C   0  0  0  0  0  0  0  0  0  0  0  0
    5.6614    1.2019  -21.4285 C   0  0  0  0  0  0  0  0  0  0  0  0
    5.2533    3.4147  -22.5848 C   0  0  0  0  0  0  0  0  0  0  0  0
    7.0592    4.2482  -21.4369 C   0  0  0  0  0  0  0  0  0  0  0  0
    4.1348    2.9902  -18.8750 C   0  0  0  0  0  0  0  0  0  0  0  0
    3.8580    4.2734  -19.6759 C   0  0  0  0  0  0  0  0  0  0  0  0
    4.0725    2.9437  -20.4133 C   0  0  0  0  0  0  0  0  0  0  0  0
    5.3715    2.6993  -21.2464 C   0  0  1  0  0  0  0  0  0  0  0  0
    6.6622    5.1392  -23.7832 C   0  0  0  0  0  0  0  0  0  0  0  0
    0.9980   -2.2980  -16.8102 N   0  0  0  0  0  0  0  0  0  0  0  0
    6.2695    4.3628  -22.5945 N   0  0  0  0  0  0  0  0  0  0  0  0
    6.5485    3.3414  -20.6310 N   0  3  0  0  0  0  0  0  0  0  0  0
    8.2010    4.9897  -21.1549 N   0  0  0  0  0  0  0  0  0  0  0  0
    4.4416    3.1829  -23.4749 O   0  0  0  0  0  0  0  0  0  0  0  0
    5.7434   -5.0968  -18.1913 H   0  0  0  0  0  0  0  0  0  0  0  0
    7.3792   -0.9432  -23.4750 H   0  0  0  0  0  0  0  0  0  0  0  0
    3.5960   -4.6515  -17.0184 H   0  0  0  0  0  0  0  0  0  0  0  0
    6.6142   -3.4747  -19.8584 H   0  0  0  0  0  0  0  0  0  0  0  0
    6.4911   -2.5968  -21.8505 H   0  0  0  0  0  0  0  0  0  0  0  0
    6.8778    1.4708  -23.2005 H   0  0  0  0  0  0  0  0  0  0  0  0
    3.1744   -0.9518  -19.1876 H   0  0  0  0  0  0  0  0  0  0  0  0
    4.6134    0.5897  -19.6404 H   0  0  0  0  0  0  0  0  0  0  0  0
    5.0975    2.8603  -18.3590 H   0  0  0  0  0  0  0  0  0  0  0  0
    3.3336    2.5307  -18.2776 H   0  0  0  0  0  0  0  0  0  0  0  0
    2.8588    4.7326  -19.6500 H   0  0  0  0  0  0  0  0  0  0  0  0
    4.6227    5.0622  -19.7314 H   0  0  0  0  0  0  0  0  0  0  0  0
    3.1634    2.4868  -20.8314 H   0  0  0  0  0  0  0  0  0  0  0  0
    7.4884    5.8171  -23.5225 H   0  0  0  0  0  0  0  0  0  0  0  0
    6.9885    4.4524  -24.5781 H   0  0  0  0  0  0  0  0  0  0  0  0
    5.8029    5.7277  -24.1370 H   0  0  0  0  0  0  0  0  0  0  0  0
    6.9091    3.1182  -19.7254 H   0  0  0  0  0  0  0  0  0  0  0  0
    8.6885    4.8489  -20.2933 H   0  0  0  0  0  0  0  0  0  0  0  0
    8.5347    5.6639  -21.8138 H   0  0  0  0  0  0  0  0  0  0  0  0
  1 10  1  0  0  0  0
  1 21  3  0  0  0  0
  2  4  1  0  0  0  0
  2  5  2  0  0  0  0
  3  6  1  0  0  0  0
  3  7  2  0  0  0  0
  4 10  2  0  0  0  0
  5 11  1  0  0  0  0
  6 12  2  0  0  0  0
  7 13  1  0  0  0  0
  8 10  1  0  0  0  0
  8 11  2  0  0  0  0
  9 12  1  0  0  0  0
  9 13  2  0  0  0  0
 11 12  1  0  0  0  0
 13 19  1  0  0  0  0
 14 19  1  0  0  0  0
 14 22  1  0  0  0  0
 14 25  2  0  0  0  0
 15 22  1  0  0  0  0
 15 23  2  0  0  0  0
 15 24  1  0  0  0  0
 16 17  1  0  0  0  0
 16 18  1  0  0  0  0
 17 18  1  0  0  0  0
 18 19  1  0  0  0  0
 19 23  1  0  0  0  0
 20 22  1  0  0  0  0
  2 26  1  0  0  0  0
  3 27  1  0  0  0  0
  4 28  1  0  0  0  0
  5 29  1  0  0  0  0
  6 30  1  0  0  0  0
  7 31  1  0  0  0  0
  8 32  1  0  0  0  0
  9 33  1  0  0  0  0
 16 34  1  0  0  0  0
 16 35  1  0  0  0  0
 17 36  1  0  0  0  0
 17 37  1  0  0  0  0
 18 38  1  0  0  0  0
 20 39  1  0  0  0  0
 20 40  1  0  0  0  0
 20 41  1  0  0  0  0
 23 42  1  0  0  0  0
 24 43  1  0  0  0  0
 24 44  1  0  0  0  0
M  CHG  1  23   1
M  END
> <OMEGA_C>
zmwAQPS4IMDv1orBIwKmQJhHhsB7QpPBNqDYQMxsHL9rLrXBYC9+QM51fMCD8o3Bvsm1QFu1UcCv
0ZrBlqjIQE4Fxr9JzK3BtkbPQJ2FQT+n+bPBrwhvQIK57L/7xZfBq0amQLmxgj4l46PBcqZPQChI
McBmM5DBQ7SeQBb/BcAbJJ3B5WSvQMo8j79sD6XBHyq1QDrWmT+HbavBYxuoQCeLWkCjrbTBw+Th
QHPxh0DCfqvBcFCEQKZfP0AYAJfBJup2QAPAiEAtaJ3BBFKCQC9mPECETqPBLuOrQMnBLECP+KnB
6zDVQBB0pED+Q77B/3x/P1MSE8Aze4bBnZ/IQFGci0CawbTBW43RQPDZVUBSDKXBPjcDQfurn0BV
PanB8yGOQAq1S0CSzLvB38m3QKAYo8Czh5HBPiLsQI1ycb/EzLvBbCRmQHHZlMC0JYjBiKfTQH9h
XsAa3p7BTLfPQIYxJsDVza7BIhfcQDhDvD+WmrnB3SlLQLarc788gJnB8aCTQI35Fj94H53BEh+j
QMoPN0A/35LBSFpVQML2IUCHOJLBXfY2QGlxl0BGM53BHO2TQO39oUD+2Z3BpnVKQEsnH0CopqbB
qqDvQGQlukAlLrzB4qHfQFF6jkAHoMTBL7G5QFdJt0CGGMHBaxfdQF2RR0CazZ3BMgQLQSIqm0Ck
WKLBFY4IQeM+tUC3gq7B

> <OMEGA_E>
8N+KPw==

> <OMEGA_NBR>
    155897

$$$$
50215544
  -OEChem-04172616093D

 45 48  0     1  0  0  0  0  0999 V2000
    6.8970   -0.5732  -22.5638 C   0  0  0  0  0  0  0  0  0  0  0  0
    6.3543   -1.5343  -21.6926 C   0  0  0  0  0  0  0  0  0  0  0  0
    6.6572    0.8010  -22.3522 C   0  0  0  0  0  0  0  0  0  0  0  0
    5.3220    0.2501  -20.4061 C   0  0  0  0  0  0  0  0  0  0  0  0
    5.6974   -3.1416  -19.1678 C   0  0  0  0  0  0  0  0  0  0  0  0
    3.6223   -1.8746  -19.2383 C   0  0  0  0  0  0  0  0  0  0  0  0
    3.7594   -3.7271  -17.8195 C   0  0  0  0  0  0  0  0  0  0  0  0
    5.5577   -1.1142  -20.6112 C   0  0  0  0  0  0  0  0  0  0  0  0
    4.9528   -2.0689  -19.6805 C   0  0  0  0  0  0  0  0  0  0  0  0
    5.8355    1.2345  -21.2781 C   0  0  0  0  0  0  0  0  0  0  0  0
    5.0882   -3.9831  -18.2243 C   0  0  0  0  0  0  0  0  0  0  0  0
    6.3138    2.9999  -19.6104 C   0  0  0  0  0  0  0  0  0  0  0  0
    4.0710    3.2066  -19.2246 C   0  0  0  0  0  0  0  0  0  0  0  0
    7.0022    4.1062  -22.7391 C   0  0  0  0  0  0  0  0  0  0  0  0
    5.6601    3.7234  -23.4138 C   0  0  0  0  0  0  0  0  0  0  0  0
    5.7448    3.8975  -21.8953 C   0  0  0  0  0  0  0  0  0  0  0  0
    5.5562    2.7105  -20.8908 C   0  0  1  0  0  0  0  0  0  0  0  0
    5.8779   -5.0942  -17.5812 C   0  0  0  0  0  0  0  0  0  0  0  0
    5.6165    3.5326  -17.2454 C   0  0  0  0  0  0  0  0  0  0  0  0
    3.0499   -2.6963  -18.3324 N   0  0  0  0  0  0  0  0  0  0  0  0
    5.3406    3.1417  -18.6329 N   0  0  0  0  0  0  0  0  0  0  0  0
    4.1446    2.8089  -20.4742 N   0  3  0  0  0  0  0  0  0  0  0  0
    2.9006    3.6000  -18.5934 N   0  0  0  0  0  0  0  0  0  0  0  0
    7.5307    3.0195  -19.4624 O   0  0  0  0  0  0  0  0  0  0  0  0
    7.5017   -0.8892  -23.4010 H   0  0  0  0  0  0  0  0  0  0  0  0
    6.5469   -2.5849  -21.8519 H   0  0  0  0  0  0  0  0  0  0  0  0
    7.1027    1.5299  -23.0130 H   0  0  0  0  0  0  0  0  0  0  0  0
    4.7306    0.5585  -19.5568 H   0  0  0  0  0  0  0  0  0  0  0  0
    6.7132   -3.3153  -19.4908 H   0  0  0  0  0  0  0  0  0  0  0  0
    3.0508   -1.0486  -19.6352 H   0  0  0  0  0  0  0  0  0  0  0  0
    3.2992   -4.3694  -17.0832 H   0  0  0  0  0  0  0  0  0  0  0  0
    7.8239    3.3762  -22.6935 H   0  0  0  0  0  0  0  0  0  0  0  0
    7.4164    5.1167  -22.8702 H   0  0  0  0  0  0  0  0  0  0  0  0
    5.1194    4.4618  -24.0242 H   0  0  0  0  0  0  0  0  0  0  0  0
    5.5269    2.7213  -23.8474 H   0  0  0  0  0  0  0  0  0  0  0  0
    5.2969    4.8361  -21.5369 H   0  0  0  0  0  0  0  0  0  0  0  0
    6.3873   -4.7113  -16.6846 H   0  0  0  0  0  0  0  0  0  0  0  0
    5.1973   -5.9099  -17.2959 H   0  0  0  0  0  0  0  0  0  0  0  0
    6.6253   -5.4727  -18.2940 H   0  0  0  0  0  0  0  0  0  0  0  0
    4.6735    3.5710  -16.6803 H   0  0  0  0  0  0  0  0  0  0  0  0
    6.2904    2.7957  -16.7841 H   0  0  0  0  0  0  0  0  0  0  0  0
    6.0927    4.5240  -17.2317 H   0  0  0  0  0  0  0  0  0  0  0  0
    3.3589    2.6030  -21.0576 H   0  0  0  0  0  0  0  0  0  0  0  0
    2.0354    3.5925  -19.0947 H   0  0  0  0  0  0  0  0  0  0  0  0
    2.9219    3.8912  -17.6370 H   0  0  0  0  0  0  0  0  0  0  0  0
  1  2  2  0  0  0  0
  1  3  1  0  0  0  0
  2  8  1  0  0  0  0
  3 10  2  0  0  0  0
  4  8  2  0  0  0  0
  4 10  1  0  0  0  0
  5  9  2  0  0  0  0
  5 11  1  0  0  0  0
  6  9  1  0  0  0  0
  6 20  2  0  0  0  0
  7 11  2  0  0  0  0
  7 20  1  0  0  0  0
  8  9  1  0  0  0  0
 10 17  1  0  0  0  0
 11 18  1  0  0  0  0
 12 17  1  0  0  0  0
 12 21  1  0  0  0  0
 12 24  2  0  0  0  0
 13 21  1  0  0  0  0
 13 22  2  0  0  0  0
 13 23  1  0  0  0  0
 14 15  1  0  0  0  0
 14 16  1  0  0  0  0
 15 16  1  0  0  0  0
 16 17  1  0  0  0  0
 17 22  1  0  0  0  0
 19 21  1  0  0  0  0
  1 25  1  0  0  0  0
  2 26  1  0  0  0  0
  3 27  1  0  0  0  0
  4 28  1  0  0  0  0
  5 29  1  0  0  0  0
  6 30  1  0  0  0  0
  7 31  1  0  0  0  0
 14 32  1  0  0  0  0
 14 33  1  0  0  0  0
 15 34  1  0  0  0  0
 15 35  1  0  0  0  0
 16 36  1  0  0  0  0
 18 37  1  0  0  0  0
 18 38  1  0  0  0  0
 18 39  1  0  0  0  0
 19 40  1  0  0  0  0
 19 41  1  0  0  0  0
 19 42  1  0  0  0  0
 22 43  1  0  0  0  0
 23 44  1  0  0  0  0
 23 45  1  0  0  0  0
M  CHG  1  22   1
M  END
> <OMEGA_C>
HbTcQA6+Er+rgrTBDFbLQBdjxL91iq3BBgjVQMMPTT840bLBGU6qQAgKgD7JP6PBtlC2QFUPScCi
V5nBgtRnQCLz778C6JnBPplwQEWIbsBEjo7BbdixQDuejr+u46TBCn2eQOpoBMC7cZ3Bu7y6QNMD
nj+MOarBWdKiQHTqfsBRy5HBuQrKQJn9P0Aj4pzBZEWCQAY5TUDmy5nBQhLgQKZlg0C86bXBKx+1
QHJMbkCCT7vBDtW3QOBveUCNKa/BO8yxQFl5LUBZIKfBjRe8QIYDo8BSpozBTbqzQMMVYkCK9onB
ODFDQPqQLMDPqJLBY+aqQHgRSUArEJXBU6CEQLLEM0Aqy6PBMqQ5QOhmZkBWv5TBPPvwQClAQUAT
s5vBCw7wQLGjY78vNbvBRYDRQMRvJcCs0K7BGUnjQI7Twz+lGrjB3mCXQOj6Dj9DdJzBQ9LWQKwt
VMAs7ZvBvEBDQF45hr/VFJ3BtyZTQB7Si8BfqojBQl36QBkUWEBFjLXBI1PtQFO8o0BB9rbBWdKj
QAfHjkB9McDBd9ywQIEpLkCCx77Bh4CpQC3BmkCWS6zB3GTMQPDClsAbeoXBgFCmQBAevcDtXYrB
zwLUQAwgr8ATWpLBTo2VQBSMZEBQcYXBH0vJQI7sMkDDRYbBlvfCQATFkEB02onBavhWQPGWJkDw
dajBx0MCQC3sZUDvwZjBhwA7QDMKeUCWGI3B1PnYQB32I788GLXBR4LIQG/9x7+rqa3B//3PQA8X
Oz/3BLTB1jGmQJr6hT73/qPBtdRtQKDv6L9ssJfBy0K0QIAqUcDEpJrBQxaAQKe9esB5Mo7B/f2u
QPXdjr/tB6XB6NWdQLPYBMC6D53BOba1QLnymD8WkavBaU1QQBWcL8CLEpDBVK2pQBnTWUC0/LTB
0XLiQDx8iEDqk6vB4dqEQJlHQUDoXJfByjZ5QNqXiUCr3J3BTTyDQH+ZPUB5q6PB1+2sQAKbLEDS
O6rBDKD3P+EmIcBnaIrBm6TVQFjNpUBsRb7BslelQMkShcBjY5PBxXLJQIIFjEDE47TByqfSQLZH
VUDwR6XBMCIDQQYHoUDZJanB+2eQQKXtSUDjOrzBIpXsQPSbfL/ypbvBumDPQJBcJ8BFja7B4Tfd
QCqotz8OrbnBbE+TQHwMHD8HUZ3BfolJQO4ibb/maZnB/xHSQNBGXsBSsp7BL9NoQLKGlMBefIjB
A32jQImcOEBxKpPBnNhVQKupJEB9m5LBTIs5QO6amED5vp3BXFaVQF2UokDuTZ7BHjRMQLS8IEDj
CqfBPmGPP0qWPcDYIo/Bjab7P4hUP8AbdoLBiyXhP9gNuL+LgonB8X/vQLX5u0BBDbzBL8PgQFCF
kEC5tMTBncS5QKIpuEC7EMHBC5jeQI6kRUDgHp7BKt8KQUCAnEDcPKLBiUYIQVE0t0BzT67Bx+7T
QJZLHr8pTLTBtTG/QBkwxr8Px63BCSHRQMXXPj+s57HB2euiQPzKgT6In6LB+JxkQFBsCsDUX5jB
NZS5QBLIR8BTEprBUUOIQPvohcDx+I7BhDioQMR4j78GtKTBaXCbQEJJCMBc5ZzB1Q63QAv5mT9n
W6nBGjxRQKQmTsAWW5HBRQ7KQAYBQkD2ppzBlYOCQOKJW0CNiJrBCSjCQBKWoUAD9LDB0dDqQJuR
hkAreLLBC9i+QAThYUBjQrHBPaiyQKCtLEBFEqfBvE7vP4y/WcBiI43BicywQCosZ0Bw9YnBzuav
QLm2g8AsOpPBib6pQI5JUUAPRZXBSfiFQPQkQkDzhKTBnDE6QHy9eUD655XBBwHwQJzaNkB8lJrB
LQ/mQJBGc79bKLvBDMXAQNxoJsDosq/BFADjQIimuj9BnbbBOKePQA+uFD8P8pvB3881QIV/s79f
OJrBeEbZQPwvRcD5f53B6oyAQJ/kn8CZnInBqtm8QDXNskCXZKnBAaG1QGG6tEArpLfBFlL7QNc+
hkDcPbrBYEUBQaxRhEBI/qvB/LexQAvSR0Axv7jBbMqkP+RngMBsyZLBWT/0P9oZesAfVIXBtw6y
P9bJGsCDN4zBlcGRQGvUb0Ak9IXBDpbCQCAwM0B7B4bBjFfDQMFukUBXb4nBvypbQFH8PUBQrKnB
TIQEQBNOfUByPZrBNO05QBz5hUCcPI7B

> <OMEGA_E>
wBbFPrEviD+ANAk/

> <OMEGA_NBR>
    158534

$$$$
50215555
  -OEChem-04172616093D

 45 47  0     1  0  0  0  0  0999 V2000
    6.7605   -0.5993  -22.5155 C   0  0  0  0  0  0  0  0  0  0  0  0
    3.0713   -2.9951  -18.2467 C   0  0  0  0  0  0  0  0  0  0  0  0
    6.1660   -1.5340  -21.6598 C   0  0  0  0  0  0  0  0  0  0  0  0
    3.5647   -2.0044  -19.1184 C   0  0  0  0  0  0  0  0  0  0  0  0
    6.6091    0.7741  -22.2714 C   0  0  0  0  0  0  0  0  0  0  0  0
    3.9009   -4.0620  -17.8456 C   0  0  0  0  0  0  0  0  0  0  0  0
    5.1982    0.2800  -20.3457 C   0  0  0  0  0  0  0  0  0  0  0  0
    5.7123   -3.1666  -19.2047 C   0  0  0  0  0  0  0  0  0  0  0  0
    5.4100   -1.0992  -20.5537 C   0  0  0  0  0  0  0  0  0  0  0  0
    4.8862   -2.0943  -19.6079 C   0  0  0  0  0  0  0  0  0  0  0  0
    5.7781    1.2385  -21.2178 C   0  0  0  0  0  0  0  0  0  0  0  0
    5.2241   -4.1426  -18.3211 C   0  0  0  0  0  0  0  0  0  0  0  0
    6.3267    3.0744  -19.6349 C   0  0  0  0  0  0  0  0  0  0  0  0
    4.0856    3.3864  -19.2991 C   0  0  0  0  0  0  0  0  0  0  0  0
    5.5789    2.7459  -20.9358 C   0  0  1  0  0  0  0  0  0  0  0  0
    4.8977    4.7832  -22.4886 C   0  0  0  0  0  0  0  0  0  0  0  0
    7.3341    4.3443  -22.0928 C   0  0  0  0  0  0  0  0  0  0  0  0
    5.5926    3.6265  -17.2746 C   0  0  0  0  0  0  0  0  0  0  0  0
    5.9378    3.6787  -22.1971 C   0  0  0  0  0  0  0  0  0  0  0  0
    5.3394    3.2945  -18.6857 N   0  0  0  0  0  0  0  0  0  0  0  0
    4.1668    2.9655  -20.5423 N   0  3  0  0  0  0  0  0  0  0  0  0
    2.9154    3.7998  -18.6781 N   0  0  0  0  0  0  0  0  0  0  0  0
    7.5209    2.9214  -19.4001 O   0  0  0  0  0  0  0  0  0  0  0  0
    6.2650   -5.4479  -17.8163 Cl  0  0  0  0  0  0  0  0  0  0  0  0
    7.3366   -0.9357  -23.3648 H   0  0  0  0  0  0  0  0  0  0  0  0
    2.0554   -2.9371  -17.8850 H   0  0  0  0  0  0  0  0  0  0  0  0
    6.2872   -2.5906  -21.8480 H   0  0  0  0  0  0  0  0  0  0  0  0
    2.9338   -1.1783  -19.4115 H   0  0  0  0  0  0  0  0  0  0  0  0
    7.1311    1.4869  -22.8927 H   0  0  0  0  0  0  0  0  0  0  0  0
    3.5217   -4.8177  -17.1736 H   0  0  0  0  0  0  0  0  0  0  0  0
    4.5901    0.6093  -19.5162 H   0  0  0  0  0  0  0  0  0  0  0  0
    6.7235   -3.2362  -19.5775 H   0  0  0  0  0  0  0  0  0  0  0  0
    5.2201    5.3700  -23.3614 H   0  0  0  0  0  0  0  0  0  0  0  0
    3.9215    4.3214  -22.6977 H   0  0  0  0  0  0  0  0  0  0  0  0
    4.8107    5.4447  -21.6140 H   0  0  0  0  0  0  0  0  0  0  0  0
    7.5129    4.9642  -22.9837 H   0  0  0  0  0  0  0  0  0  0  0  0
    7.3728    4.9758  -21.1930 H   0  0  0  0  0  0  0  0  0  0  0  0
    8.1076    3.5649  -22.0273 H   0  0  0  0  0  0  0  0  0  0  0  0
    4.6343    3.7474  -16.7482 H   0  0  0  0  0  0  0  0  0  0  0  0
    6.1689    2.8158  -16.8050 H   0  0  0  0  0  0  0  0  0  0  0  0
    6.1641    4.5645  -17.2156 H   0  0  0  0  0  0  0  0  0  0  0  0
    5.9613    3.0170  -23.0756 H   0  0  0  0  0  0  0  0  0  0  0  0
    3.3810    2.8138  -21.1420 H   0  0  0  0  0  0  0  0  0  0  0  0
    2.0517    3.7905  -19.1820 H   0  0  0  0  0  0  0  0  0  0  0  0
    2.9359    4.1071  -17.7266 H   0  0  0  0  0  0  0  0  0  0  0  0
  1  3  1  0  0  0  0
  1  5  2  0  0  0  0
  2  4  2  0  0  0  0
  2  6  1  0  0  0  0
  3  9  2  0  0  0  0
  4 10  1  0  0  0  0
  5 11  1  0  0  0  0
  6 12  2  0  0  0  0
  7  9  1  0  0  0  0
  7 11  2  0  0  0  0
  8 10  2  0  0  0  0
  8 12  1  0  0  0  0
  9 10  1  0  0  0  0
 11 15  1  0  0  0  0
 12 24  1  0  0  0  0
 13 15  1  0  0  0  0
 13 20  1  0  0  0  0
 13 23  2  0  0  0  0
 14 20  1  0  0  0  0
 14 21  2  0  0  0  0
 14 22  1  0  0  0  0
 15 19  1  0  0  0  0
 15 21  1  0  0  0  0
 16 19  1  0  0  0  0
 17 19  1  0  0  0  0
 18 20  1  0  0  0  0
  1 25  1  0  0  0  0
  2 26  1  0  0  0  0
  3 27  1  0  0  0  0
  4 28  1  0  0  0  0
  5 29  1  0  0  0  0
  6 30  1  0  0  0  0
  7 31  1  0  0  0  0
  8 32  1  0  0  0  0
 16 33  1  0  0  0  0
 16 34  1  0  0  0  0
 16 35  1  0  0  0  0
 17 36  1  0  0  0  0
 17 37  1  0  0  0  0
 17 38  1  0  0  0  0
 18 39  1  0  0  0  0
 18 40  1  0  0  0  0
 18 41  1  0  0  0  0
 19 42  1  0  0  0  0
 21 43  1  0  0  0  0
 22 44  1  0  0  0  0
 22 45  1  0  0  0  0
M  CHG  1  21   1
M  END
> <OMEGA_C>
B1bYQDdsGb+6H7TBkZBEQMmvP8BF+ZHBCFDFQMRaxL9VR63BlCNkQExIAMBm8pjB6H3TQA8sRj/r
K7LBvKh5QDH8gcDIw47BAFimQAJZjz7ww6LBRsu2QEmqSsAzo5nBuB6tQMqyjL8PbqTB9lucQEgJ
BsDs3JzBhOa4QOCFnj8RvqnBDSynQOWPhMCgkZLBGXTKQMbCREAyFJ3BpL2CQPm5WECPZJrBiYay
QDO9L0CHfKfBC7qcQPUPmUCo6LPB3bDqQB8Ei0D+vbDBLfayQF0YaEBYMorBJAK+QAVwa0DDk7HB
ltyqQM3YUkBVfJXBhFaFQAHKPUCsVqTBcZY6QGUwc0CnbJXBiqvwQIP3OkBoM5vBvHrIQFlVrsDa
h47BMsXqQAeNb78l67rB9IoDQLb5O8BzFI/B7zDJQMjLJcDOyK7BZMM7QPLRlr+tSpvB0zHkQDlS
vj8qJLfB9WNhQJ0qmsCJY4nBtOGSQHP9Gz8tIZzBKifXQEUeT8C/npzBtAqnQCjXq0Aa5LrBZPl6
QAdJikDZlLXB7/CZQNQ6rkCN6azBjWnwQMLankCL3rfBxu3rQL45n0Awi6nBz7gBQZ8nZEDfN7DB
4EuUQG7Vb0BY/IXB6GfFQI81NECdcIbBE0DFQG8QkkBzuYnBtsK+QC4XQUDJmrjBC2NYQE0VNEC+
IqnBiE8DQNqXckCsdJnBYeY7QB9tg0Aq0I3BZDHSQJkfHb+4CLXB1m2oQMw/hMC3UJLB78bDQJRn
xL+jaq3B2Fm4QDjfScCwWZnB5R/MQN0jQz8XbbPBY0V8QIZVgcDjgI7BeRSoQJoEmT4RjKLBDdhn
QHjB/L+Yk5jBgUGuQBe/ir/CNaTBWTGeQGxpBMAHeZzBO7u3QHz/nz8PB6rBp59HQDwOPsBqtZHB
/JnKQB2nP0DHpZzB5LyCQJjWVkB9d5rBnia0QPvpMECVXafB/hOhQECkg0C6objBaufZQNptoUC4
m6zBOFaxQBBbZEDM+YnBeSjFQE5lb0Cnn7DB4zCqQJQbTkBFRJXB2feGQF5iREBSraTBgQk5QLzB
bUBZk5XBZePwQJFrOEBdt5rBkWW7Pzn2OMAFXY3B7g7iQAWgdr+gLrzBxZ68QEx+nsBK14/B7SrJ
QEDQJcBVmq7BZqHYQJ3cTsCKX5zBiRnXQDwOuz+zabnB4bNjQEVomcBTHonBaEGXQLhHIz8IgZvB
Mu8/QGf4kb9u3JrBlv2tQOUEmUBG1b7BD5yUQBnATEAZZrzBoxGHQP77k0CbVbTBsoDkQIGitECU
fbPBvGfCQD/Bs0Cn7KfBr571QIazmUAAiqfBJ1OSQLw+bEBj7oXBG47DQObqMECvDobBCX3DQEZG
kEDcfYnBeKndQM++S0APGrXBEr1dQP6VQ0B+8KnBBzUDQAEjcUDM4ZnBB9M3QFjhekA+v43B

> <OMEGA_E>
XDcHPwTfBz8=

> <OMEGA_NBR>
    160379

$$$$
50215700
  -OEChem-04172616093D

 39 41  0     1  0  0  0  0  0999 V2000
    6.6808   -0.5604  -22.5888 C   0  0  0  0  0  0  0  0  0  0  0  0
    5.1791   -4.1052  -18.2691 C   0  0  0  0  0  0  0  0  0  0  0  0
    6.1758   -1.5054  -21.6787 C   0  0  0  0  0  0  0  0  0  0  0  0
    5.7013   -3.1663  -19.1795 C   0  0  0  0  0  0  0  0  0  0  0  0
    6.4908    0.8156  -22.3623 C   0  0  0  0  0  0  0  0  0  0  0  0
    3.8632   -3.9630  -17.7874 C   0  0  0  0  0  0  0  0  0  0  0  0
    5.2533    0.2986  -20.3249 C   0  0  0  0  0  0  0  0  0  0  0  0
    3.6018   -1.9197  -19.0949 C   0  0  0  0  0  0  0  0  0  0  0  0
    5.4571   -1.0787  -20.5429 C   0  0  0  0  0  0  0  0  0  0  0  0
    4.9164   -2.0646  -19.5908 C   0  0  0  0  0  0  0  0  0  0  0  0
    5.7695    1.2596  -21.2272 C   0  0  0  0  0  0  0  0  0  0  0  0
    3.0724   -2.8757  -18.2091 C   0  0  0  0  0  0  0  0  0  0  0  0
    6.3377    3.0557  -19.6114 C   0  0  0  0  0  0  0  0  0  0  0  0
    4.0907    3.3830  -19.3063 C   0  0  0  0  0  0  0  0  0  0  0  0
    5.6030    2.7498  -20.9001 C   0  0  1  0  0  0  0  0  0  0  0  0
    6.0471    3.7188  -22.0276 C   0  0  0  0  0  0  0  0  0  0  0  0
    5.5803    3.5974  -17.2700 C   0  0  0  0  0  0  0  0  0  0  0  0
    5.3627    3.4724  -18.7184 N   0  0  0  0  0  0  0  0  0  0  0  0
    4.1996    3.0372  -20.5699 N   0  3  0  0  0  0  0  0  0  0  0  0
    2.8870    3.6238  -18.6597 N   0  0  0  0  0  0  0  0  0  0  0  0
    7.5303    2.8820  -19.3849 O   0  0  0  0  0  0  0  0  0  0  0  0
    1.4292   -2.7180  -17.6461 Cl  0  0  0  0  0  0  0  0  0  0  0  0
    7.2170   -0.8918  -23.4657 H   0  0  0  0  0  0  0  0  0  0  0  0
    5.7878   -4.9345  -17.9401 H   0  0  0  0  0  0  0  0  0  0  0  0
    6.3383   -2.5594  -21.8496 H   0  0  0  0  0  0  0  0  0  0  0  0
    6.7030   -3.2880  -19.5642 H   0  0  0  0  0  0  0  0  0  0  0  0
    6.8967    1.5360  -23.0571 H   0  0  0  0  0  0  0  0  0  0  0  0
    3.4603   -4.6873  -17.0950 H   0  0  0  0  0  0  0  0  0  0  0  0
    4.6965    0.6249  -19.4589 H   0  0  0  0  0  0  0  0  0  0  0  0
    3.0022   -1.0735  -19.3963 H   0  0  0  0  0  0  0  0  0  0  0  0
    5.8906    4.7577  -21.7016 H   0  0  0  0  0  0  0  0  0  0  0  0
    7.1130    3.5604  -22.2482 H   0  0  0  0  0  0  0  0  0  0  0  0
    5.4526    3.5251  -22.9326 H   0  0  0  0  0  0  0  0  0  0  0  0
    4.6544    3.9447  -16.7882 H   0  0  0  0  0  0  0  0  0  0  0  0
    5.8641    2.6186  -16.8561 H   0  0  0  0  0  0  0  0  0  0  0  0
    6.3857    4.3226  -17.0817 H   0  0  0  0  0  0  0  0  0  0  0  0
    3.4370    2.9781  -21.2142 H   0  0  0  0  0  0  0  0  0  0  0  0
    2.0250    3.5374  -19.1593 H   0  0  0  0  0  0  0  0  0  0  0  0
    2.8813    3.8837  -17.6941 H   0  0  0  0  0  0  0  0  0  0  0  0
  1  3  1  0  0  0  0
  1  5  2  0  0  0  0
  2  4  2  0  0  0  0
  2  6  1  0  0  0  0
  3  9  2  0  0  0  0
  4 10  1  0  0  0  0
  5 11  1  0  0  0  0
  6 12  2  0  0  0  0
  7  9  1  0  0  0  0
  7 11  2  0  0  0  0
  8 10  2  0  0  0  0
  8 12  1  0  0  0  0
  9 10  1  0  0  0  0
 11 15  1  0  0  0  0
 12 22  1  0  0  0  0
 13 15  1  0  0  0  0
 13 18  1  0  0  0  0
 13 21  2  0  0  0  0
 14 18  1  0  0  0  0
 14 19  2  0  0  0  0
 14 20  1  0  0  0  0
 15 16  1  0  0  0  0
 15 19  1  0  0  0  0
 17 18  1  0  0  0  0
  1 23  1  0  0  0  0
  2 24  1  0  0  0  0
  3 25  1  0  0  0  0
  4 26  1  0  0  0  0
  5 27  1  0  0  0  0
  6 28  1  0  0  0  0
  7 29  1  0  0  0  0
  8 30  1  0  0  0  0
 16 31  1  0  0  0  0
 16 32  1  0  0  0  0
 16 33  1  0  0  0  0
 17 34  1  0  0  0  0
 17 35  1  0  0  0  0
 17 36  1  0  0  0  0
 19 37  1  0  0  0  0
 20 38  1  0  0  0  0
 20 39  1  0  0  0  0
M  CHG  1  19   1
M  END
> <OMEGA_C>
/sjVQFd1D7/JtbTBgLulQAteg8AJJ5LBzZ/FQJOywL/0ba3BrXC2QLmkSsCab5nBU7TPQEDLUD8A
5rLB1z53QPyhfcCqTI7BHRuoQOPhmD5dmaLBjoRmQBy39b9swpjB7qCuQNoRir/uV6TBV1OdQB4j
BMAAupzB6p+4QDY6oT9H0anBnqJEQL8LOMA1rJHB087KQDSQQ0AP5JzB0OaCQNuCWEBXc5rBpkuz
QC78L0BOM6fBooHBQHUAbkB3OLDB7pGyQJw8ZkD9KIrB/ZqrQIM7XkA7v5XBymKGQPBgQkAdj6TB
9MM4QNXrZ0AdR5XBWPjwQClzOEBSFJvBsPC2P/jyLcAnK43B7vHmQMFMZL+9ubvB3DW5QFXnncBH
hY/Bi9PKQN7MI8Dyy67BUn/WQJhuUsCEg5zBZ7HcQB6bxD/hdLjBQnZdQHz+lcCJwojB90mWQB77
Hz/bq5vBvyNAQC1oib+hK5vBGYC8QNU+mED2nK3B1J3jQOzdY0Bh/LHBdnuuQBKbYUDvdbfB9/CU
QJ51fEA9TobBU6a7QMyWJ0BY2YbB4lfMQKpSikA9p4jBnfhbQJWYPkCVtqnBtpkBQP5jYkA7RpnB
xWc4QAWPeECPjY3B

> <OMEGA_E>
WBIIPw==

> <OMEGA_NBR>
    161338

$$$$
50215762
  -OEChem-04172616093D

 46 49  0     1  0  0  0  0  0999 V2000
    3.9951   -3.9166  -17.7642 C   0  0  0  0  0  0  0  0  0  0  0  0
    6.6594    5.2349  -24.2572 C   0  0  0  0  0  0  0  0  0  0  0  0
    3.1668   -2.8717  -18.2181 C   0  0  0  0  0  0  0  0  0  0  0  0
    5.3028   -4.0539  -18.2717 C   0  0  0  0  0  0  0  0  0  0  0  0
    7.6145    4.9606  -23.2615 C   0  0  0  0  0  0  0  0  0  0  0  0
    5.3566    4.7159  -24.1470 C   0  0  0  0  0  0  0  0  0  0  0  0
    6.6527   -0.5312  -22.6905 C   0  0  0  0  0  0  0  0  0  0  0  0
    3.6505   -1.9548  -19.1678 C   0  0  0  0  0  0  0  0  0  0  0  0
    5.7840   -3.1478  -19.2357 C   0  0  0  0  0  0  0  0  0  0  0  0
    6.1710   -1.5024  -21.7941 C   0  0  0  0  0  0  0  0  0  0  0  0
    7.2680    4.1734  -22.1500 C   0  0  0  0  0  0  0  0  0  0  0  0
    5.0061    3.9254  -23.0396 C   0  0  0  0  0  0  0  0  0  0  0  0
    6.4634    0.8374  -22.4201 C   0  0  0  0  0  0  0  0  0  0  0  0
    5.2745    0.2616  -20.3729 C   0  0  0  0  0  0  0  0  0  0  0  0
    4.9609   -2.0906  -19.6799 C   0  0  0  0  0  0  0  0  0  0  0  0
    5.4747   -1.1029  -20.6347 C   0  0  0  0  0  0  0  0  0  0  0  0
    5.9511    3.6646  -22.0155 C   0  0  0  0  0  0  0  0  0  0  0  0
    5.7660    1.2449  -21.2529 C   0  0  0  0  0  0  0  0  0  0  0  0
    6.3134    3.0105  -19.5695 C   0  0  0  0  0  0  0  0  0  0  0  0
    4.0763    3.4117  -19.2864 C   0  0  0  0  0  0  0  0  0  0  0  0
    5.5771    2.7147  -20.8734 C   0  0  1  0  0  0  0  0  0  0  0  0
    5.5909    3.8390  -17.3015 C   0  0  0  0  0  0  0  0  0  0  0  0
    5.3263    3.3445  -18.6579 N   0  0  0  0  0  0  0  0  0  0  0  0
    4.1664    2.9453  -20.5085 N   0  3  0  0  0  0  0  0  0  0  0  0
    2.8970    3.8531  -18.7063 N   0  0  0  0  0  0  0  0  0  0  0  0
    7.4988    2.8249  -19.3148 O   0  0  0  0  0  0  0  0  0  0  0  0
    3.6275   -4.6139  -17.0260 H   0  0  0  0  0  0  0  0  0  0  0  0
    6.9267    5.8449  -25.1074 H   0  0  0  0  0  0  0  0  0  0  0  0
    2.1609   -2.7750  -17.8369 H   0  0  0  0  0  0  0  0  0  0  0  0
    5.9364   -4.8549  -17.9206 H   0  0  0  0  0  0  0  0  0  0  0  0
    8.6157    5.3556  -23.3513 H   0  0  0  0  0  0  0  0  0  0  0  0
    4.6255    4.9251  -24.9140 H   0  0  0  0  0  0  0  0  0  0  0  0
    7.1692   -0.8363  -23.5886 H   0  0  0  0  0  0  0  0  0  0  0  0
    3.0202   -1.1458  -19.5064 H   0  0  0  0  0  0  0  0  0  0  0  0
    6.7811   -3.2614  -19.6347 H   0  0  0  0  0  0  0  0  0  0  0  0
    6.3340   -2.5512  -21.9933 H   0  0  0  0  0  0  0  0  0  0  0  0
    8.0082    3.9549  -21.3946 H   0  0  0  0  0  0  0  0  0  0  0  0
    4.0103    3.5136  -22.9681 H   0  0  0  0  0  0  0  0  0  0  0  0
    6.8501    1.5796  -23.1028 H   0  0  0  0  0  0  0  0  0  0  0  0
    4.7367    0.5610  -19.4854 H   0  0  0  0  0  0  0  0  0  0  0  0
    4.6372    4.0279  -16.7871 H   0  0  0  0  0  0  0  0  0  0  0  0
    6.1660    3.0861  -16.7426 H   0  0  0  0  0  0  0  0  0  0  0  0
    6.1683    4.7736  -17.3583 H   0  0  0  0  0  0  0  0  0  0  0  0
    3.3868    2.7702  -21.1099 H   0  0  0  0  0  0  0  0  0  0  0  0
    2.0435    3.8272  -19.2267 H   0  0  0  0  0  0  0  0  0  0  0  0
    2.8999    4.1975  -17.7674 H   0  0  0  0  0  0  0  0  0  0  0  0
  1  3  1  0  0  0  0
  1  4  2  0  0  0  0
  2  5  1  0  0  0  0
  2  6  2  0  0  0  0
  3  8  2  0  0  0  0
  4  9  1  0  0  0  0
  5 11  2  0  0  0  0
  6 12  1  0  0  0  0
  7 10  1  0  0  0  0
  7 13  2  0  0  0  0
  8 15  1  0  0  0  0
  9 15  2  0  0  0  0
 10 16  2  0  0  0  0
 11 17  1  0  0  0  0
 12 17  2  0  0  0  0
 13 18  1  0  0  0  0
 14 16  1  0  0  0  0
 14 18  2  0  0  0  0
 15 16  1  0  0  0  0
 17 21  1  0  0  0  0
 18 21  1  0  0  0  0
 19 21  1  0  0  0  0
 19 23  1  0  0  0  0
 19 26  2  0  0  0  0
 20 23  1  0  0  0  0
 20 24  2  0  0  0  0
 20 25  1  0  0  0  0
 21 24  1  0  0  0  0
 22 23  1  0  0  0  0
  1 27  1  0  0  0  0
  2 28  1  0  0  0  0
  3 29  1  0  0  0  0
  4 30  1  0  0  0  0
  5 31  1  0  0  0  0
  6 32  1  0  0  0  0
  7 33  1  0  0  0  0
  8 34  1  0  0  0  0
  9 35  1  0  0  0  0
 10 36  1  0  0  0  0
 11 37  1  0  0  0  0
 12 38  1  0  0  0  0
 13 39  1  0  0  0  0
 14 40  1  0  0  0  0
 22 41  1  0  0  0  0
 22 42  1  0  0  0  0
 22 43  1  0  0  0  0
 24 44  1  0  0  0  0
 25 45  1  0  0  0  0
 25 46  1  0  0  0  0
M  CHG  1  24   1
M  END
> <OMEGA_C>
5a9/QACqesAZHY7BvBnVQG2Ep0C6DsLBMqxKQK7KN8ChvpHBu7CpQFi5gcBmLJLBKqrzQH+9nkB3
F7rBE2mrQIDolkAnLcHBUOPUQOz7B781hrXBDqJpQLY1+r+vV5nBMxa5QAp2ScC/4pnBs3jFQIRN
wL9CWq7BX5PoQMiMhUArM7HBITKgQBA5e0AeUbjBS9TOQHBhVj9MXLPBasioQPPqhT6q+6LBcb+e
QMLMBcBxcJ3BwDCvQDAtjb/FE6XBW2++QJmJakC1H7DB6IK4QIlYnz8IBqrBSQfKQJasQEBjjpzB
RnGCQMRZWkCSSprB23eyQCi+LUCq/KbB2eiyQIqxdUCTaYrBanGqQIMLVkBgQ5XBxlKFQIaAPEB4
EaTB2mg5QNCZdkBvppXBxvXvQLzKNEDLhJrBDSloQGClk8AmNYjB06fdQA8Ju0AC3MjBOkwKQOeZ
McD7sY7BBve9QLxbm8BjXY/B0tkJQT5hq0Bwz7rBHASUQG2anUDLT8fBRGrlQDsWVr+CtbzBCUtB
QHyokr8UDZzBsv7YQBq7UMD3E53B2q/KQJ5HI8BA8q/BuCEAQeMcfUALKKvBAlSAQO3eYECmvrfB
rzPbQN8vyj+A0rjBL5OXQIabDz8m4pvB6mOUQN/kgEDqS4bB/k/FQCiCRUDZ8IXBZGLFQPXAmEDA
3YrB6MFYQItLMUAl4ajBncgCQK3wdEA10JnBtpg5QKVRhkCuI47B

> <OMEGA_E>
0PhpPg==

> <OMEGA_NBR>
    162411

$$$$
50215905
  -OEChem-04172616093D

 50 53  0     1  0  0  0  0  0999 V2000
    6.6519    5.0966  -24.2613 C   0  0  0  0  0  0  0  0  0  0  0  0
    7.6153    4.8317  -23.2711 C   0  0  0  0  0  0  0  0  0  0  0  0
    5.3306    4.6437  -24.0974 C   0  0  0  0  0  0  0  0  0  0  0  0
    6.3056   -0.3685  -23.0465 C   0  0  0  0  0  0  0  0  0  0  0  0
    6.0285   -1.4213  -22.1797 C   0  0  0  0  0  0  0  0  0  0  0  0
    7.2781   -2.9169  -20.1149 C   0  0  0  0  0  0  0  0  0  0  0  0
    5.3069   -2.5352  -18.7258 C   0  0  0  0  0  0  0  0  0  0  0  0
    7.2616    4.1112  -22.1160 C   0  0  0  0  0  0  0  0  0  0  0  0
    4.9686    3.9338  -22.9399 C   0  0  0  0  0  0  0  0  0  0  0  0
    6.2144    0.9458  -22.5889 C   0  0  0  0  0  0  0  0  0  0  0  0
    7.7819   -3.8246  -19.1944 C   0  0  0  0  0  0  0  0  0  0  0  0
    5.8119   -3.4757  -17.7958 C   0  0  0  0  0  0  0  0  0  0  0  0
    5.5500    0.1536  -20.3718 C   0  0  0  0  0  0  0  0  0  0  0  0
    6.0632   -2.2425  -19.8809 C   0  0  0  0  0  0  0  0  0  0  0  0
    5.7415   -1.1716  -20.8224 C   0  0  0  0  0  0  0  0  0  0  0  0
    5.9269    3.6680  -21.9260 C   0  0  0  0  0  0  0  0  0  0  0  0
    5.7886    1.2313  -21.2626 C   0  0  0  0  0  0  0  0  0  0  0  0
    7.0798   -4.0830  -17.9979 C   0  0  0  0  0  0  0  0  0  0  0  0
    6.2964    2.9787  -19.4924 C   0  0  0  0  0  0  0  0  0  0  0  0
    4.0725    3.4471  -19.2807 C   0  0  0  0  0  0  0  0  0  0  0  0
    5.5746    2.6779  -20.8028 C   0  0  1  0  0  0  0  0  0  0  0  0
    5.5504    3.9334  -17.2859 C   0  0  0  0  0  0  0  0  0  0  0  0
    9.0269   -5.2422  -17.1232 C   0  0  0  0  0  0  0  0  0  0  0  0
    5.2978    3.3517  -18.6085 N   0  0  0  0  0  0  0  0  0  0  0  0
    4.1600    2.8416  -20.4388 N   0  3  0  0  0  0  0  0  0  0  0  0
    2.9147    4.0390  -18.8001 N   0  0  0  0  0  0  0  0  0  0  0  0
    7.4898    2.8593  -19.2365 O   0  0  0  0  0  0  0  0  0  0  0  0
    7.6195   -4.8787  -16.9944 O   0  0  0  0  0  0  0  0  0  0  0  0
    6.9271    5.6482  -25.1481 H   0  0  0  0  0  0  0  0  0  0  0  0
    8.6289    5.1823  -23.3980 H   0  0  0  0  0  0  0  0  0  0  0  0
    4.5936    4.8417  -24.8616 H   0  0  0  0  0  0  0  0  0  0  0  0
    6.5900   -0.5683  -24.0691 H   0  0  0  0  0  0  0  0  0  0  0  0
    6.0335   -2.4361  -22.5492 H   0  0  0  0  0  0  0  0  0  0  0  0
    7.8260   -2.7241  -21.0255 H   0  0  0  0  0  0  0  0  0  0  0  0
    4.3578   -2.0493  -18.5541 H   0  0  0  0  0  0  0  0  0  0  0  0
    8.0106    3.8939  -21.3689 H   0  0  0  0  0  0  0  0  0  0  0  0
    3.9527    3.5872  -22.8204 H   0  0  0  0  0  0  0  0  0  0  0  0
    6.4710    1.7589  -23.2518 H   0  0  0  0  0  0  0  0  0  0  0  0
    8.7129   -4.3343  -19.3940 H   0  0  0  0  0  0  0  0  0  0  0  0
    5.2277   -3.7337  -16.9248 H   0  0  0  0  0  0  0  0  0  0  0  0
    5.2253    0.3441  -19.3595 H   0  0  0  0  0  0  0  0  0  0  0  0
    4.5923    4.1390  -16.7861 H   0  0  0  0  0  0  0  0  0  0  0  0
    6.1354    3.2259  -16.6799 H   0  0  0  0  0  0  0  0  0  0  0  0
    6.1133    4.8716  -17.3994 H   0  0  0  0  0  0  0  0  0  0  0  0
    9.3241   -5.8684  -16.2691 H   0  0  0  0  0  0  0  0  0  0  0  0
    9.1768   -5.8022  -18.0580 H   0  0  0  0  0  0  0  0  0  0  0  0
    9.6410   -4.3297  -17.1399 H   0  0  0  0  0  0  0  0  0  0  0  0
    3.3836    2.5375  -20.9907 H   0  0  0  0  0  0  0  0  0  0  0  0
    2.0784    4.0191  -19.3480 H   0  0  0  0  0  0  0  0  0  0  0  0
    2.9158    4.4858  -17.9055 H   0  0  0  0  0  0  0  0  0  0  0  0
  1  2  1  0  0  0  0
  1  3  2  0  0  0  0
  2  8  2  0  0  0  0
  3  9  1  0  0  0  0
  4  5  1  0  0  0  0
  4 10  2  0  0  0  0
  5 15  2  0  0  0  0
  6 11  2  0  0  0  0
  6 14  1  0  0  0  0
  7 12  1  0  0  0  0
  7 14  2  0  0  0  0
  8 16  1  0  0  0  0
  9 16  2  0  0  0  0
 10 17  1  0  0  0  0
 11 18  1  0  0  0  0
 12 18  2  0  0  0  0
 13 15  1  0  0  0  0
 13 17  2  0  0  0  0
 14 15  1  0  0  0  0
 16 21  1  0  0  0  0
 17 21  1  0  0  0  0
 18 28  1  0  0  0  0
 19 21  1  0  0  0  0
 19 24  1  0  0  0  0
 19 27  2  0  0  0  0
 20 24  1  0  0  0  0
 20 25  2  0  0  0  0
 20 26  1  0  0  0  0
 21 25  1  0  0  0  0
 22 24  1  0  0  0  0
 23 28  1  0  0  0  0
  1 29  1  0  0  0  0
  2 30  1  0  0  0  0
  3 31  1  0  0  0  0
  4 32  1  0  0  0  0
  5 33  1  0  0  0  0
  6 34  1  0  0  0  0
  7 35  1  0  0  0  0
  8 36  1  0  0  0  0
  9 37  1  0  0  0  0
 10 38  1  0  0  0  0
 11 39  1  0  0  0  0
 12 40  1  0  0  0  0
 13 41  1  0  0  0  0
 22 42  1  0  0  0  0
 22 43  1  0  0  0  0
 22 44  1  0  0  0  0
 23 45  1  0  0  0  0
 23 46  1  0  0  0  0
 23 47  1  0  0  0  0
 25 48  1  0  0  0  0
 26 49  1  0  0  0  0
 26 50  1  0  0  0  0
M  CHG  1  25   1
M  END
> <OMEGA_C>
KdzUQG8Xo0A3F8LBz7DzQC6dmkAoK7rBf5SqQFuZlEB1x8DBV8fJQPisvL5OX7jBv+nAQMjttb/5
b7HBcOboQBGuOsBp66DBT9KpQDtAIsCKzpXBQ1/oQPGOg0Cr7bDBAP+eQMbCe0D4hLfBFtzGQIoh
cj8LtrTBqgX5QK7GdMAtjpnB2vq5QMZxXsC+XY7BYZmxQOBCHT5c+aLB+gXCQGyFD8AQDJ/BILq3
QBL3lb9clKbBMqm9QP2/akCLaK/BEDy5QDianT+4GarBDY7iQIqngsCZ+4/Bd3zJQFCjPkB18JvB
CVKCQKqcXEDZPprBImOyQBZiK0AUbKbBzpyxQMK8e0BtSYrBJW4QQba/p8BP/IjBuYepQAmDVkA5
3pTB2h6FQC7dNUC4gqPB1Ik6QDw/gUCTZpbBz6zvQDD/NkBv5JnBq9LzQHUenMCE9IfB26rdQBu+
tEBaL8nB/g8KQbfVpUAnL7vB1/6SQBLvmkCO5MbB7ODSQNN8Eb99jcDBchLBQJHpG8C3ZLTBRG76
QCZXLsA5NKjBLnOLQHcnA8DKbpTBdisAQR41eUCP86rB1Pl8QAqVZUAVkLbBFBLPQE4k4T+pA7rB
PGgLQdayisDlJpvB9UinQMj0bsARZofBezWnQLQpsD484JrB9vOSQNRyhED0SYbBPFXEQFR0TkCB
cIXBOaDDQB/km0AQMovBZC8VQbjJu8APJ4LBAtQSQbOrucDOdpDBnkEaQeyMisCZHonBOoxYQP9l
IkAJ7afBWwQFQIScgEDKyJrBq5s6QJKLj0BiPo/B8PTUQM4ZpEBpAcLBN0CrQBiLk0ArHMHBmcPy
QPJ/nUCeu7nBs5HNQHghwr6n/rfBPRTFQCHHtr8R97DBhObmQPR5O8DVQZ/BVcmkQHTYG8Aqk5XB
2kCfQPb+eED+7bfBgw7nQOMehkA1k7DB5U3IQBb+cD/zmLTBJVT0QLyIccB4DZfBdP6xQGpFVMAi
Y43Be1OwQPhSJz7TDaPBBgHAQCLvDcCLa57Bc6W4QBv7lL+1VqbBUPe8QMRDa0CKg6/BS4y4QMoK
nj/+MKrBcNDaQOJfe8CV243Bux3JQDhBPkANH5zBajWCQNwkX0BoVJrBk5exQOzMK0BKjqbBbJKy
QH4Xf0CdjIrB9iEKQY/IhMCRb4HBcsipQDLZWUAsGZXBbniEQNStN0DCkaPBy6w6QDthgkCRVZbB
PcTuQAAnMECZ+pnB8G7qQEdBk8DsD4XBwhreQKDltUDQDMnBCHCUQBWKmECWesfBF1oJQeNpqkCg
arrBqDDYQOE9Fr8EDMDBPwzIQIG9HMDvrbPB3276QKlTNMAhVKbB5T6GQAJ8978uE5XBEVh+QM/U
X0BGRrfB2j3+QJ+vgEA+UKrBqVHQQDAg4D8O9LnBYBwJQfziicBRv5fBMuWcQP2dYcAqwIbBY8mj
QHZiuD54KJvBZTKUQMjFh0BKm4bBCxPEQGVsUECan4XB/QvGQLCdnED/gYvBGRQPQYWll8D923TB
HOEVQZwCicA554fB8j8JQYN+RcCqeH7B7rlWQNSWJEDq6qfBsXEEQN9hgUA6k5rBsrg7QB7xkEA3
No/BXDjVQJeEpUA0AsLBHGOrQFtPlUDQF8HBiW3zQOGYnUBj5rnBeA/NQNB24b6NZrfBYDjGQODw
uL9b0K/BsoqlQKziNMA4mZfBE8XvQEMuC8C/8ZrBOZ+fQFvRekChCrjByOTnQBh7hUBz2rDBx57G
QIC7Zj/qlrTBfUK0QES4dMCxg5DBgVf+QOAQSsD58ZPB/zCwQNg5ZT5lraLBrdbDQHs9AsBsAJ3B
A924QBbbjb+AZ6XBq5m9QAM3a0DYv6/Bo+K3QJTJnz9DMarBFrfgQE+ygMBh4Y7Bj2rJQH4iP0BC
TpzB5TqCQGDlXECZS5rB88GxQDPqLEBLwabBsYOyQHuMeUAiaorBPE0NQakSrsCMvojBK+qpQD8u
V0AYIJXBl6+EQKaBOUAAyKPBYBo6QPZdf0BpDZbBkSLvQKpKMUBMNJrBjprtQGRUosD/Y4jBnSre
QDASuEBL8sjB5E6UQEw+m0DLWcfBycMJQW8QqkBmoLrBKkTXQCp5Mr9BZb/BajDLQCS4HsA18bHB
WrKDQPwZK8AL2ZjBXTEDQdwbwr+0z57Bfwh/QDzEYUBiZLfBGlj/QAQGfkBbt6rBtujMQI7n1j8S
YLrBdHmdQJQijsDUTIzBARYQQaujUMCzYZLB9KyjQC0J7j6s25rBnwyUQIi6g0AbXYbBAZ7EQNIu
SkAJvIXBLlbFQCBjmkBgHYvBtzUQQZz7yMDSQoPB9JsRQXyVt8BO8JDB5xwXQZWHksCLTYbBlTRX
QExxKUAvU6jBUdsDQC0ffkBtS5rBOrQ6QKa9jEDCv47BfbjWQP29pEDcL8LBX7r1QE+cmEBGnbrB
YrKrQEbPmEALwcDBOdXLQPol5r6XVbfBqu/EQCAAub/Urq/BLh2kQN82MsCVSZfBmKLuQGcNDMCR
4ZrBcbvpQELTgEAZjrHBEomfQHsGgUBytrfBqdTFQOVXZT96lbTBOmuyQBd8ccCTEpDBOsz8QOlL
SsAVvpPB6PivQDjKdz7qkqLBZrvCQOB9AcC/2ZzB5Ae4QHJFjL/yQ6XBQU6+QLfmakAm5q/BobS3
QDTloD+RKarBeMreQPlwf8C7dY7BFaXJQFbmQUB2f5zBRXqCQHO0X0CfZJrBCdOxQGLMLUCI2KbB
jvWyQCvXekAji4rBJ+kLQfQBrsCmQ4jBsGWrQBTsZkDt3JXB4OKEQAQZO0Bk0KPBkeQ4QJPyeUBE
uJXBatPuQEewMEAdMprBlz/rQHfRoMBwwIfBEvXfQMo9t0ApHMnBjmQLQQ+VoUBCw7vBNvyTQOrw
oUBMnMbB8r7VQCQ4N78oVb/BPoPJQHX0HsD3w7HBb1WCQC9oJ8Cxg5jBecYCQYNZx7/j7J7BDdwA
QRFRbkDg0qvBCRx9QLoDb0DXtbbBqv7LQFZN1T86cLrBSmGbQFLOi8C4vYvB100PQdQIUsCRPJLB
lOijQA23/D5Hu5rBdgKWQKjji0A7FYfBLLy6QFqhP0C6MobB28/NQFQElEB93YnBvawOQV1PyMDp
lILBPqsPQR7quMDcapDB+0AWQUjFksD+LobBtWpXQGiTKkCJTKjBsXMBQMlLcUBAkZnBg3c5QLbD
ikBNgI7B

> <OMEGA_E>
MCo8PzwFOT9OvjU/TPY0Pw==

> <OMEGA_NBR>
    166098

$$$$
50215906
  -OEChem-04172616093D

 47 50  0     1  0  0  0  0  0999 V2000
    6.8047   -2.5248  -15.8365 C   0  0  0  0  0  0  0  0  0  0  0  0
    7.2649   -2.2782  -14.7409 C   0  0  0  0  0  0  0  0  0  0  0  0
    5.8720   -0.6059  -22.8757 C   0  0  0  0  0  0  0  0  0  0  0  0
    5.8618   -1.5635  -21.8478 C   0  0  0  0  0  0  0  0  0  0  0  0
    5.8045    0.7635  -22.5654 C   0  0  0  0  0  0  0  0  0  0  0  0
    6.2963   -1.8381  -18.1377 C   0  0  0  0  0  0  0  0  0  0  0  0
    5.6882    0.2203  -20.1932 C   0  0  0  0  0  0  0  0  0  0  0  0
    5.7048   -4.0766  -17.4064 C   0  0  0  0  0  0  0  0  0  0  0  0
    5.2214   -3.4449  -19.6124 C   0  0  0  0  0  0  0  0  0  0  0  0
    6.2655   -2.8122  -17.1288 C   0  0  0  0  0  0  0  0  0  0  0  0
    5.7722   -1.1550  -20.4973 C   0  0  0  0  0  0  0  0  0  0  0  0
    5.7636   -2.1536  -19.4060 C   0  0  0  0  0  0  0  0  0  0  0  0
    5.7366    1.1936  -21.2149 C   0  0  0  0  0  0  0  0  0  0  0  0
    6.2980    2.9985  -19.5169 C   0  0  0  0  0  0  0  0  0  0  0  0
    4.0548    3.4625  -19.3544 C   0  0  0  0  0  0  0  0  0  0  0  0
    5.3634    4.0134  -23.1613 C   0  0  0  0  0  0  0  0  0  0  0  0
    5.7836    5.0489  -22.1045 C   0  0  0  0  0  0  0  0  0  0  0  0
    6.2276    3.5868  -21.9620 C   0  0  0  0  0  0  0  0  0  0  0  0
    5.6223    2.6807  -20.8483 C   0  0  1  0  0  0  0  0  0  0  0  0
    7.8193   -1.9829  -13.4234 C   0  0  0  0  0  0  0  0  0  0  0  0
    5.4674    3.8194  -17.2717 C   0  0  0  0  0  0  0  0  0  0  0  0
    5.1977   -4.3726  -18.6270 N   0  0  0  0  0  0  0  0  0  0  0  0
    5.3011    3.5311  -18.7073 N   0  0  0  0  0  0  0  0  0  0  0  0
    4.2059    3.0007  -20.5786 N   0  3  0  0  0  0  0  0  0  0  0  0
    2.8340    3.8420  -18.8068 N   0  0  0  0  0  0  0  0  0  0  0  0
    7.4730    2.8079  -19.2201 O   0  0  0  0  0  0  0  0  0  0  0  0
    5.9317   -0.9225  -23.9065 H   0  0  0  0  0  0  0  0  0  0  0  0
    5.9226   -2.6142  -22.0898 H   0  0  0  0  0  0  0  0  0  0  0  0
    5.8044    1.4938  -23.3610 H   0  0  0  0  0  0  0  0  0  0  0  0
    6.7204   -0.8633  -17.9472 H   0  0  0  0  0  0  0  0  0  0  0  0
    5.5855    0.5328  -19.1645 H   0  0  0  0  0  0  0  0  0  0  0  0
    5.6795   -4.8253  -16.6284 H   0  0  0  0  0  0  0  0  0  0  0  0
    4.8162   -3.6964  -20.5814 H   0  0  0  0  0  0  0  0  0  0  0  0
    4.3145    3.6886  -23.2272 H   0  0  0  0  0  0  0  0  0  0  0  0
    5.8006    4.0480  -24.1701 H   0  0  0  0  0  0  0  0  0  0  0  0
    6.5207    5.8251  -22.3580 H   0  0  0  0  0  0  0  0  0  0  0  0
    5.0346    5.4657  -21.4150 H   0  0  0  0  0  0  0  0  0  0  0  0
    7.2855    3.3926  -22.1923 H   0  0  0  0  0  0  0  0  0  0  0  0
    7.2963   -1.1174  -12.9905 H   0  0  0  0  0  0  0  0  0  0  0  0
    7.6892   -2.8558  -12.7668 H   0  0  0  0  0  0  0  0  0  0  0  0
    8.8907   -1.7530  -13.5197 H   0  0  0  0  0  0  0  0  0  0  0  0
    4.5311    4.2337  -16.8695 H   0  0  0  0  0  0  0  0  0  0  0  0
    5.7164    2.8905  -16.7377 H   0  0  0  0  0  0  0  0  0  0  0  0
    6.2792    4.5492  -17.1360 H   0  0  0  0  0  0  0  0  0  0  0  0
    3.4622    2.8826  -21.2365 H   0  0  0  0  0  0  0  0  0  0  0  0
    1.9983    3.7720  -19.3516 H   0  0  0  0  0  0  0  0  0  0  0  0
    2.7919    4.1849  -17.8684 H   0  0  0  0  0  0  0  0  0  0  0  0
  1  2  3  0  0  0  0
  1 10  1  0  0  0  0
  2 20  1  0  0  0  0
  3  4  2  0  0  0  0
  3  5  1  0  0  0  0
  4 11  1  0  0  0  0
  5 13  2  0  0  0  0
  6 10  1  0  0  0  0
  6 12  2  0  0  0  0
  7 11  2  0  0  0  0
  7 13  1  0  0  0  0
  8 10  2  0  0  0  0
  8 22  1  0  0  0  0
  9 12  1  0  0  0  0
  9 22  2  0  0  0  0
 11 12  1  0  0  0  0
 13 19  1  0  0  0  0
 14 19  1  0  0  0  0
 14 23  1  0  0  0  0
 14 26  2  0  0  0  0
 15 23  1  0  0  0  0
 15 24  2  0  0  0  0
 15 25  1  0  0  0  0
 16 17  1  0  0  0  0
 16 18  1  0  0  0  0
 17 18  1  0  0  0  0
 18 19  1  0  0  0  0
 19 24  1  0  0  0  0
 21 23  1  0  0  0  0
  3 27  1  0  0  0  0
  4 28  1  0  0  0  0
  5 29  1  0  0  0  0
  6 30  1  0  0  0  0
  7 31  1  0  0  0  0
  8 32  1  0  0  0  0
  9 33  1  0  0  0  0
 16 34  1  0  0  0  0
 16 35  1  0  0  0  0
 17 36  1  0  0  0  0
 17 37  1  0  0  0  0
 18 38  1  0  0  0  0
 20 39  1  0  0  0  0
 20 40  1  0  0  0  0
 20 41  1  0  0  0  0
 21 42  1  0  0  0  0
 21 43  1  0  0  0  0
 21 44  1  0  0  0  0
 24 45  1  0  0  0  0
 25 46  1  0  0  0  0
 25 47  1  0  0  0  0
M  CHG  1  24   1
M  END
> <OMEGA_C>
EsDZQGCWIcBjYn3B43noQJPOEcDS2mvBD+e7QDUcG79oAbfB5ZO7QJIfyL82yK7Bt765QFJyQz/f
hbTBDHvJQI5F678MGpHB7gW2QAiKYT6ei6HBFY62QJRzgsBkQIvB9xWnQOR4XMBG5pzB337IQD/7
M8DYB4nBIra4QJ3Yk79z+qPBd2+4QCPUCcBqP5vBSpK3QPDGmD8NuKnB2IjJQMrmP0CfIpzBmsCB
QPGYXUDD1ZrBEaGrQOBtgEBnSrnBCRO5QM6QoUAF1rDBWUjHQEuOZUA1sq/BGuqzQHmQK0BeyabB
BTj6QG7O/b8sxlbBC/WuQC5xdEB0LIrBSlOmQBbsi8ApBJXB4qKpQGz9YUB8qJXBH5eGQM8KQED4
oKTBcGA1QGLjdUBrdJbBtSLvQOGzM0C7wpnBZNC9QB8qbL+FQL/Bw4W9QItPJ8D3t7DB2b25QDc1
vz9G47rBJw3XQDT+XL/Uk4/BOLyyQGxkCD/lUJnBJL61QIlomsAPB4XBah6aQIuRbMDEpqTBfhCK
QMASbEBK0bnBQZ65QHWJgUBxXMHBZqnQQB5nukAj3bLBoxuhQAnnrkD7UavB/yLpQIIgWUDnibHB
DXvpQGQHj78J2U/B0w32QGLFNsD8REzBckAOQbJi4L+/UFjB6v6QQCB6h0DK9IbB6+y2QP/9OEDf
5oXBK+/IQBiTkUCfFonBiZRdQCh9OEBz5KnB2sj/P2pocUD/z5rBwa4yQOLqhUCI8o7B

> <OMEGA_E>
wAFqPw==

> <OMEGA_NBR>
    167187

$$$$
50215907
  -OEChem-04172616093D

 45 48  0     1  0  0  0  0  0999 V2000
    5.4248    4.6917  -24.1386 C   0  0  0  0  0  0  0  0  0  0  0  0
    6.6303   -0.5484  -22.6896 C   0  0  0  0  0  0  0  0  0  0  0  0
    5.2909   -4.0657  -18.2656 C   0  0  0  0  0  0  0  0  0  0  0  0
    6.7310    5.2035  -24.1667 C   0  0  0  0  0  0  0  0  0  0  0  0
    6.1532   -1.5172  -21.7889 C   0  0  0  0  0  0  0  0  0  0  0  0
    5.7756   -3.1566  -19.2250 C   0  0  0  0  0  0  0  0  0  0  0  0
    6.4448    0.8208  -22.4197 C   0  0  0  0  0  0  0  0  0  0  0  0
    3.9782   -3.9347  -17.7693 C   0  0  0  0  0  0  0  0  0  0  0  0
    5.0389    3.8956  -23.0533 C   0  0  0  0  0  0  0  0  0  0  0  0
    5.2667    0.2508  -20.3646 C   0  0  0  0  0  0  0  0  0  0  0  0
    3.6384   -1.9715  -19.1723 C   0  0  0  0  0  0  0  0  0  0  0  0
    7.6152    4.9014  -23.1118 C   0  0  0  0  0  0  0  0  0  0  0  0
    5.4637   -1.1148  -20.6270 C   0  0  0  0  0  0  0  0  0  0  0  0
    4.9517   -2.1019  -19.6731 C   0  0  0  0  0  0  0  0  0  0  0  0
    5.7569    1.2318  -21.2483 C   0  0  0  0  0  0  0  0  0  0  0  0
    3.1492   -2.8936  -18.2322 C   0  0  0  0  0  0  0  0  0  0  0  0
    5.9614    3.6488  -22.0056 C   0  0  0  0  0  0  0  0  0  0  0  0
    6.3158    3.0154  -19.5832 C   0  0  0  0  0  0  0  0  0  0  0  0
    4.0768    3.4031  -19.2875 C   0  0  0  0  0  0  0  0  0  0  0  0
    5.5713    2.7040  -20.8751 C   0  0  2  0  0  0  0  0  0  0  0  0
    5.6011    3.8456  -17.3123 C   0  0  0  0  0  0  0  0  0  0  0  0
    7.2283    4.1382  -22.0653 N   0  0  0  0  0  0  0  0  0  0  0  0
    5.3318    3.3437  -18.6647 N   0  0  0  0  0  0  0  0  0  0  0  0
    4.1647    2.9461  -20.5130 N   0  3  0  0  0  0  0  0  0  0  0  0
    2.8923    3.8236  -18.7025 N   0  0  0  0  0  0  0  0  0  0  0  0
    7.5197    2.9145  -19.3704 O   0  0  0  0  0  0  0  0  0  0  0  0
    1.5124   -2.7453  -17.6476 Cl  0  0  0  0  0  0  0  0  0  0  0  0
    4.7312    4.9075  -24.9378 H   0  0  0  0  0  0  0  0  0  0  0  0
    7.1403   -0.8554  -23.5907 H   0  0  0  0  0  0  0  0  0  0  0  0
    5.9253   -4.8640  -17.9097 H   0  0  0  0  0  0  0  0  0  0  0  0
    7.0558    5.8233  -24.9894 H   0  0  0  0  0  0  0  0  0  0  0  0
    6.3146   -2.5666  -21.9868 H   0  0  0  0  0  0  0  0  0  0  0  0
    6.7759   -3.2659  -19.6172 H   0  0  0  0  0  0  0  0  0  0  0  0
    6.8275    1.5612  -23.1065 H   0  0  0  0  0  0  0  0  0  0  0  0
    3.6075   -4.6330  -17.0335 H   0  0  0  0  0  0  0  0  0  0  0  0
    4.0460    3.4726  -23.0147 H   0  0  0  0  0  0  0  0  0  0  0  0
    4.7332    0.5520  -19.4752 H   0  0  0  0  0  0  0  0  0  0  0  0
    3.0092   -1.1622  -19.5121 H   0  0  0  0  0  0  0  0  0  0  0  0
    8.6233    5.2879  -23.1400 H   0  0  0  0  0  0  0  0  0  0  0  0
    4.6492    4.0273  -16.7919 H   0  0  0  0  0  0  0  0  0  0  0  0
    6.1872    3.1003  -16.7547 H   0  0  0  0  0  0  0  0  0  0  0  0
    6.1690    4.7854  -17.3765 H   0  0  0  0  0  0  0  0  0  0  0  0
    3.3850    2.7844  -21.1178 H   0  0  0  0  0  0  0  0  0  0  0  0
    2.0381    3.7880  -19.2213 H   0  0  0  0  0  0  0  0  0  0  0  0
    2.8921    4.1626  -17.7616 H   0  0  0  0  0  0  0  0  0  0  0  0
  1  4  1  0  0  0  0
  1  9  2  0  0  0  0
  2  5  1  0  0  0  0
  2  7  2  0  0  0  0
  3  6  2  0  0  0  0
  3  8  1  0  0  0  0
  4 12  2  0  0  0  0
  5 13  2  0  0  0  0
  6 14  1  0  0  0  0
  7 15  1  0  0  0  0
  8 16  2  0  0  0  0
  9 17  1  0  0  0  0
 10 13  1  0  0  0  0
 10 15  2  0  0  0  0
 11 14  2  0  0  0  0
 11 16  1  0  0  0  0
 12 22  1  0  0  0  0
 13 14  1  0  0  0  0
 15 20  1  0  0  0  0
 16 27  1  0  0  0  0
 17 20  1  0  0  0  0
 17 22  2  0  0  0  0
 18 20  1  0  0  0  0
 18 23  1  0  0  0  0
 18 26  2  0  0  0  0
 19 23  1  0  0  0  0
 19 24  2  0  0  0  0
 19 25  1  0  0  0  0
 20 24  1  0  0  0  0
 21 23  1  0  0  0  0
  1 28  1  0  0  0  0
  2 29  1  0  0  0  0
  3 30  1  0  0  0  0
  4 31  1  0  0  0  0
  5 32  1  0  0  0  0
  6 33  1  0  0  0  0
  7 34  1  0  0  0  0
  8 35  1  0  0  0  0
  9 36  1  0  0  0  0
 10 37  1  0  0  0  0
 11 38  1  0  0  0  0
 12 39  1  0  0  0  0
 21 40  1  0  0  0  0
 21 41  1  0  0  0  0
 21 42  1  0  0  0  0
 24 43  1  0  0  0  0
 25 44  1  0  0  0  0
 25 45  1  0  0  0  0
M  CHG  1  24   1
M  END
> <OMEGA_C>
FZitQKcilkDSG8HBgSvUQL1hDL9NhLXBG0+pQE4agsDzH5LBJGTXQOqCpkBpVcHBNOfEQMg0wr+y
T67BxdG4QGAFSsC1zJnBNTzOQOQgUj9+W7PBdJt+QD/Se8CIJ47BAz+hQLZQeUAbbbjBqIioQLFo
gD7I6qLB2NpoQGBb/L/FYJnBrK/zQJ3YnEDt5LjB59auQNCwjr8VBKXB63OeQI6FBsB0Yp3BIzi4
QNmsnT9y/KnBE4xJQPEvOcCN25HBtcO+QJ+GaUBvC7DBohrKQJT8QEB8qpzBHXWCQLvMWUDdTJrB
tkeyQMENLUBIAKfB1DuzQPQddkCrf4rB103nQHpshECjhbDBc56qQO3+VUBTUZXBkkWFQAmNPECN
GqTBPxs5QJO2dECfnpXBEaHwQFqGOkCA9prBoJfBP2ayL8BLLo3By2WXQG4KnUCOgMfBW33kQAj+
Wr/LubzB0pu9QB2mm8ALR4/B1cjhQBpYukA/6sfB7RDKQKtDJMDe5K/BDdTYQPYEUcAa8JzBFHva
QKXVxz8v2rjB0uBmQElBlMCrRIjBfHiBQPo+XkAVHrjBi3aXQB5RDT87zZvB7JVAQNPDlL/TGJzB
BvkJQU02qUC7HrnB98WUQMffgEDDVYbBsv3FQAdrRkCnCYbBYmjFQEkimUAJA4vBe6NYQHUzMkA8
8ajB3XACQMduckAjxZnB7Bc5QOkzhUDZF47BJFXxQByJn0CsLbrBMR7XQLjvCL8sHbXBMaapQJIu
gsDHL5LB0EjRQOzmpkAo0sHBWzLHQPVswL8i/63Bu6K5QALCSMClnpnB62nQQD9GVT9VErPBWgp+
QJIgfsCgmI7BF7nnQPEOhkBMRbHBq6CoQNhKhT6676LBvBZpQH3X/r+UqpnBIpuoQGNhlEBSY8DB
2cqvQOstjb8Y56TBhyGfQB7zBcCUVp3BZ++4QKPcnj8y7KnBHNBIQL4CPMATaJLByOW9QGwGakCb
H7DBxVLKQLwHQUB0kJzBosWCQD6mW0CHZJrBlr2yQNJuLUD49KbBmQqzQNphdkArcIrBLKifQAj3
d0DYwLfBK7GqQDIMV0CPT5XBS5mFQFQwPEDzFqTByB86QIA/eUCc4JXBhSjwQHobNEA+gprBXuy8
PwKYNcA5QI7BLmkIQb4+rUCHJLvBSIfoQJhtV7+0KbzBVg6+QN5ym8DAO4/BRcDXQFGWukBkvMjB
CuPMQE1UI8Bifq/BryTaQDshTsCTeZzBjy3dQFaGyT/1e7jBunZlQGAIlsAX64jBHfH/QADrfkD+
VKvBzGyWQLGIDz8B/5vBVrxAQGW6l7+4b5zB2A2QQLbLmUDoUMbBBnuUQASOgUAnX4bBcg3FQIm8
RUDi8YXBWNzFQHnkmEBi2YrBX1JZQCjxL0AB3ajBHakDQNhTd0BqEprBrSw6QPZCiEDYbI7BCqms
QGZGlkBC8cDBUn7UQP5RCr/GnrXB0MtKQFTkN8DGuZHBTJnWQIxDpkCQQ8HBH/7EQD/Ywb/mfK7B
2GBpQG0l+7+SYpnBpZbOQB6zUz9YYrPBHP5/QE6WesAkGo7Byn6gQJBmeUCqRLjBg62oQBIDez46
AaPBX+e4QPL/ScCAA5rBwTXzQFAonEA87LjBmtyuQOIDj7+ALqXB+XmeQPyaBsCojp3Bml+4QK5R
nT9UA6rBpb2pQK62gcAGOZLBbUi+QN4OaUAm+K/BBvHJQKbPQEDAqpzBgYSCQEL3XECSaprBoA2y
QKhqLED89KbBsAqzQOrUdEDieYrBmfLmQGPMg0BGiLDBvWWrQKhzYkC205XBfAuFQJZGO0A6AKTB
sv44QGyydkDGsJXBmRzwQAgxNkBCzZrBDNfKQKGeqsCCm43BtjqWQKyNnUAoQsfBDfTkQE2DV7//
0rzB3ZcKQHGNMcD2n47B7t3gQNUlukAS2cfBPAXKQK0HJMDTIbDBAfpAQCKhk7+dFZzBaP7aQEFB
yT840LjBYsloQEyFk8DpJ4jBi6uAQHScXkA257fBBayXQO+aCj/P3ZvBUrHYQPWCUcBbRZ3BgM0J
Qa4gqEAvPrnB5buVQB+Gh0BC3obB0Ai8QDxxOUDfUYbBthnNQOLjkUCDuonB79pXQMqVLUAnp6jB
DbQBQDP2b0BmoZnB83A5QN/+h0CQV47BDhzxQMpHn0DjKLrBkEDWQIcWCb/1dLXByytIQORsN8AA
JJLBIvrQQOCPpkBAyMHBEjLGQKKZwb8dbK7BJSJoQDwg+79/xJnBMj3QQA7sVD8tOLPBOcV8QNi9
ecAtSI7B1qDnQJXWhUBSPbHBRkSpQNC8eT5jA6PBakG4QCo1SsC8+ZnBjlyoQC3uk0AIU8DBFmmv
QFIuj7+ONaXBGjWeQB/YBsB7tJ3BOHG5QOShnT+l76nByHaoQHx0gcBzLJLB4tW9QKCGaUAJDLDB
JFbKQF+uQEDid5zBKsqCQJfiWkCMXZrBPvGyQMSiLEAf46bB/NWyQKBGd0DdborBXIefQEwkd0A7
rLfB9o2qQHzrVUCGN5XBZrCFQMRlOkDqAqTBb3Q6QMheekCv95XBpmnwQNSqNkDjcZrBFFTJQLTZ
qcCZLo3B4kgIQXcHrUAKJrvBdDvnQAO9Vb86l7zBB10HQLEEMcDPPo/BVVPXQJ1DukB3s8jBtE3L
QJHfI8CyErDBxjxAQMHkk79fn5zBgAPdQIwFyj+DlbjBMJpkQNfSksD5VIjBbe//QIqPfkANUqvB
6OiXQAvGCT8s7JvBZDrYQBtCUsD0GJ3BfcKPQL05mUAKP8bBzj+UQC5zgUDJU4bBbqrFQI1MSEBg
34XBac/EQOTPmUDBBIvBL49ZQPTiLECovajBwzoEQAUheUDHNprBOX46QCkpiUCCjI7B

> <OMEGA_E>
IJupPqAHqj5IDas+MA6rPg==

> <OMEGA_NBR>
    170614

$$$$
50215908
  -OEChem-04172616093D

 50 53  0     1  0  0  0  0  0999 V2000
    6.6057    5.2587  -24.2322 C   0  0  0  0  0  0  0  0  0  0  0  0
    7.5604    5.0013  -23.2310 C   0  0  0  0  0  0  0  0  0  0  0  0
    5.3060    4.7322  -24.1202 C   0  0  0  0  0  0  0  0  0  0  0  0
    6.7411   -0.4373  -22.7913 C   0  0  0  0  0  0  0  0  0  0  0  0
    5.6895   -4.1311  -18.4212 C   0  0  0  0  0  0  0  0  0  0  0  0
    6.3676   -1.4487  -21.8900 C   0  0  0  0  0  0  0  0  0  0  0  0
    6.1340   -3.1715  -19.3501 C   0  0  0  0  0  0  0  0  0  0  0  0
    7.2181    4.2184  -22.1149 C   0  0  0  0  0  0  0  0  0  0  0  0
    4.9598    3.9469  -23.0081 C   0  0  0  0  0  0  0  0  0  0  0  0
    6.4708    0.9114  -22.4931 C   0  0  0  0  0  0  0  0  0  0  0  0
    4.3740   -4.0721  -17.9181 C   0  0  0  0  0  0  0  0  0  0  0  0
    5.3963    0.2345  -20.4170 C   0  0  0  0  0  0  0  0  0  0  0  0
    3.9546   -2.0799  -19.2495 C   0  0  0  0  0  0  0  0  0  0  0  0
    5.6927   -1.1098  -20.7016 C   0  0  0  0  0  0  0  0  0  0  0  0
    5.2621   -2.1422  -19.7598 C   0  0  0  0  0  0  0  0  0  0  0  0
    5.9069    3.6952  -21.9838 C   0  0  0  0  0  0  0  0  0  0  0  0
    5.7940    1.2589  -21.2939 C   0  0  0  0  0  0  0  0  0  0  0  0
    3.4950   -3.0476  -18.3286 C   0  0  0  0  0  0  0  0  0  0  0  0
    6.2919    2.9821  -19.5587 C   0  0  0  0  0  0  0  0  0  0  0  0
    4.0723    3.4530  -19.3008 C   0  0  0  0  0  0  0  0  0  0  0  0
    5.5554    2.7089  -20.8676 C   0  0  1  0  0  0  0  0  0  0  0  0
    5.5756    3.8292  -17.2980 C   0  0  0  0  0  0  0  0  0  0  0  0
    1.3462   -1.9376  -18.1975 C   0  0  0  0  0  0  0  0  0  0  0  0
    5.3058    3.3259  -18.6499 N   0  0  0  0  0  0  0  0  0  0  0  0
    4.1425    2.8994  -20.4880 N   0  3  0  0  0  0  0  0  0  0  0  0
    2.9258    4.0243  -18.7696 N   0  0  0  0  0  0  0  0  0  0  0  0
    7.4717    2.7662  -19.3018 O   0  0  0  0  0  0  0  0  0  0  0  0
    2.2095   -3.0369  -17.8069 O   0  0  0  0  0  0  0  0  0  0  0  0
    6.8712    5.8615  -25.0881 H   0  0  0  0  0  0  0  0  0  0  0  0
    8.5577    5.4059  -23.3203 H   0  0  0  0  0  0  0  0  0  0  0  0
    4.5744    4.9318  -24.8892 H   0  0  0  0  0  0  0  0  0  0  0  0
    7.2368   -0.6956  -23.7154 H   0  0  0  0  0  0  0  0  0  0  0  0
    6.3575   -4.9140  -18.0935 H   0  0  0  0  0  0  0  0  0  0  0  0
    6.5973   -2.4813  -22.1077 H   0  0  0  0  0  0  0  0  0  0  0  0
    7.1372   -3.2233  -19.7466 H   0  0  0  0  0  0  0  0  0  0  0  0
    7.9571    4.0145  -21.3541 H   0  0  0  0  0  0  0  0  0  0  0  0
    3.9655    3.5320  -22.9330 H   0  0  0  0  0  0  0  0  0  0  0  0
    6.7796    1.6858  -23.1795 H   0  0  0  0  0  0  0  0  0  0  0  0
    4.0362   -4.8169  -17.2127 H   0  0  0  0  0  0  0  0  0  0  0  0
    4.8573    0.4832  -19.5148 H   0  0  0  0  0  0  0  0  0  0  0  0
    3.2948   -1.2849  -19.5641 H   0  0  0  0  0  0  0  0  0  0  0  0
    4.6238    4.0260  -16.7828 H   0  0  0  0  0  0  0  0  0  0  0  0
    6.1488    3.0780  -16.7348 H   0  0  0  0  0  0  0  0  0  0  0  0
    6.1567    4.7609  -17.3629 H   0  0  0  0  0  0  0  0  0  0  0  0
    0.3642   -2.0527  -17.7154 H   0  0  0  0  0  0  0  0  0  0  0  0
    1.7995   -0.9860  -17.8832 H   0  0  0  0  0  0  0  0  0  0  0  0
    1.2205   -1.9407  -19.2903 H   0  0  0  0  0  0  0  0  0  0  0  0
    3.3563    2.6448  -21.0511 H   0  0  0  0  0  0  0  0  0  0  0  0
    2.0786    4.0315  -19.3008 H   0  0  0  0  0  0  0  0  0  0  0  0
    2.9463    4.4290  -17.8554 H   0  0  0  0  0  0  0  0  0  0  0  0
  1  2  1  0  0  0  0
  1  3  2  0  0  0  0
  2  8  2  0  0  0  0
  3  9  1  0  0  0  0
  4  6  1  0  0  0  0
  4 10  2  0  0  0  0
  5  7  2  0  0  0  0
  5 11  1  0  0  0  0
  6 14  2  0  0  0  0
  7 15  1  0  0  0  0
  8 16  1  0  0  0  0
  9 16  2  0  0  0  0
 10 17  1  0  0  0  0
 11 18  2  0  0  0  0
 12 14  1  0  0  0  0
 12 17  2  0  0  0  0
 13 15  2  0  0  0  0
 13 18  1  0  0  0  0
 14 15  1  0  0  0  0
 16 21  1  0  0  0  0
 17 21  1  0  0  0  0
 18 28  1  0  0  0  0
 19 21  1  0  0  0  0
 19 24  1  0  0  0  0
 19 27  2  0  0  0  0
 20 24  1  0  0  0  0
 20 25  2  0  0  0  0
 20 26  1  0  0  0  0
 21 25  1  0  0  0  0
 22 24  1  0  0  0  0
 23 28  1  0  0  0  0
  1 29  1  0  0  0  0
  2 30  1  0  0  0  0
  3 31  1  0  0  0  0
  4 32  1  0  0  0  0
  5 33  1  0  0  0  0
  6 34  1  0  0  0  0
  7 35  1  0  0  0  0
  8 36  1  0  0  0  0
  9 37  1  0  0  0  0
 10 38  1  0  0  0  0
 11 39  1  0  0  0  0
 12 40  1  0  0  0  0
 13 41  1  0  0  0  0
 22 42  1  0  0  0  0
 22 43  1  0  0  0  0
 22 44  1  0  0  0  0
 23 45  1  0  0  0  0
 23 46  1  0  0  0  0
 23 47  1  0  0  0  0
 25 48  1  0  0  0  0
 26 49  1  0  0  0  0
 26 50  1  0  0  0  0
M  CHG  1  25   1
M  END
> <OMEGA_C>
+GHTQHBHqECa28HBee7xQKIKoEAw2bnB7MqpQFZul0At9sDBxLbXQJzh376oVLbBnhC2QE8yhMCk
XpPBvsPLQEpuub+kHq/BbknEQBv5SsDxzJrBBfvmQBL9hkBh67DBkLaeQE+ZfECHELjBlxDPQGVO
aT/F8bPBpPeLQFtOgsA5WI/Bva6sQKgqcD73VaPBkhh9QC4dBcDx/pnBjiq2QF4Mjr/jnKXBwmKo
QDIZCcAjFJ7BNQW9QO9+bEC83q/BXmi5QEokoT/yWarBbq5fQM8LQ8ASoZLBBFfJQAHbPkA2eJzB
XFCCQDz+XED/Z5rB+sWxQMpeLUDb8KbBAGuyQJYRdUBLYorBpk6sPzQE+L+NlJHBe8mpQMbbVEAL
M5XBEY+EQDGQOUBb56PBR0A7QM/GgEAeKJbBCxjvQKQIMUAAaprBMmgNQEFdQsCEdI7BOeHbQJiR
u0BvtMjBWuwIQXr9rEAJkLrBi2GSQCHRnUAIHcfBqZPnQCMQMr80ub3BPnDLQG4/ncBnv5DBSR3T
QOvMHsCn3LDB6WPkQNZKTsAI+Z3BVqD+QMR2gEBF1arBIsp9QMoMYkC5drfBi/LYQDTI1z+vb7nB
6SiBQEUkmsCss4nBpW6bQBRg9z47HpzBJ95SQJl2pL8zg5zBRPaTQKfUgEAcQ4bBtsLEQEX+REDq
4IXBggPFQGZZmEA054rBk3S6PolfA8AZuY3BJ1fmP0hofL/fEI/BWjqcP6Zo+L+bUprB+M1WQARE
KUCtaKjBJQcFQDICgUDyZ5rBao88QBW6jUDK147BRYHZQIhzpUCw8MHBzSGvQAaIlkD4O8HBmbH2
QJonnUDjnrnBK+/TQPDgur5iH7fBBZG/QMgjgMDn2pTB3/jEQIQRsb+Va7DBap3GQLoQQsBesJzB
peShQFCifkBtNbjBT5fpQNb9hUAvj7DBoPvNQB4Mej9CNLTBTAqYQFzmgcBgjI/Bnj6oQDGEjz6Z
EaTBcsx9QKwqCMAorJnBZMivQKo0h78H06bBb2mmQPkZBsBSFp/Bi9a+QNt1bkDctq/Bpp23QKbX
pz8qqKrBojRuQIklSMAJApLBsqDIQF8sPkBgSZzB8oWBQNdQXkCAdZrB2baxQGkLMECJ7KbBHNCw
QFDWc0D4NorB9oQMQEyBiMBNM4bBaM6oQLDFVUCjKJXBdICEQLHJPkD+JaTB6FM4QHBwf0BrJJbB
w8jtQJJzLEAeBprB6A0eQCwLSsDnSo3B46rjQG1St0Cj4sjBXM2YQKHunECrocfBzJsLQRqcqECk
M7rB2gDkQIBmHL+1g77BB3rYQOHElsDQ45LB06jJQFHCGsB8mbLB38TkQDb/P8AE56DBrnSBQNEW
Z0Cpu7fBYRMAQXvXfkBBOarBuXraQGGP4T+hPrnB25OSQNAgmsBTionBH6CWQO+fBD8k4pzB1WNN
QOCcsb+dZpvBECqSQM8jgUAASIbBB63BQETBQUCLsIXBkZzEQDcBl0B6eIrBtmiWP1mHhcCFAIPB
hVsSQIm9psCdpYrBm6w6QIFAiMCTHH/BW1tXQPWFMkBi9ajBxpoCQNAcgEAsfZrB5Cc4QNJFi0CP
ro7BAjTQQAvKp0BgIsLBr6WnQLyplEDXKcHBsIzvQJsAoUD9OrrBG5/ZQOhlB7/pKLXBUQdCQPU0
LcD4w5LBM0vJQOo2wL/4Gq7BJe5mQAjt67+iTJrBFVieQOvKdUD8Q7jB5VPmQNhnh0BOSLHBqrXS
QEhYVz9DHbPBlmxyQOvncMCigo7Bw3mrQAp8hj47+KLBdBm2QNltR8CCmpnBQ46xQMIgjL8WFKXB
S/6dQN03A8B9vp3B+0u9QLN5aUCQHrDB8jO7QEz3nj838KnBYNujQHE4fsBPypHB3LzKQN4GQUDs
g5zBu/yCQPpdV0DVN5rBqEyzQLObLED26qbBXuayQDNecEA3MIrB9MvmQL+RpMDLnY/BPdaqQIxL
UkA3IJXBhu+FQCrsN0D16KPBlrE6QISndUBwu5XBdOLwQOhkN0DNi5rB4/25QCBIoMDr+IzB507X
QEm8u0B69sjBPbGPQCPMmUDqQcfBYmAHQYF/r0CBC7vBeXfrQKQxVb/pJbzBIZsAQGTDI8BiPZDB
sOjOQI5BI8DzmK/BnEJCQLFWgr/IeZ3BbNl+QK9YV0ASn7fB6JP+QIT0gUB6R6vB3EvfQAnvyj/5
hrjBxwFWQF2VjcAnq4jBi2CaQOHcDz9r2pvBZWrWQKYjUsCeW5zBHUGUQFkheUD1/4XBxFzGQOXQ
QEAR5YXBziPEQDXalkBreIrBGmf0QP37v8D7RIvBaDnqQMXHqcDyRpjBm+H3QOwyh8BaUY3BGQta
QHqfKUABmqjBKVcEQDFOdEDW85nB4746QM1shkCuRo7BFs7PQJk6p0AiOcLBFEzvQIKFoEDbWbrB
fzWnQDNBlEAbLMHBufnZQBpkBr/bF7XBQZRAQJoqLsC9JJPBndHJQEnvv7/MB67BzpVmQFZi7b9I
j5rBLy3mQM8sh0AMWrHB4QSeQBFpdUBbOrjB8N/SQMYWWD+lDbPBvZ5wQIJoccA+uI7B7cKrQGEa
hj4A5qLBOB62QE9HR8AYdZnBjgeyQCYtjL/oAaXBPCqeQD9pA8DWv53BNB29QMdRaUAoHLDBtVu7
QDQanz9f36nB+U6jQMgxfsBEvJHBss3KQLqLQUADf5zBYwyDQBSnV0AvK5rBuEmzQDCuLECO36bB
8gyzQGEucUCBLIrBwsXlQHxTpcCeeI/Bs/GqQKjkUkAjGZXB3++FQC7MN0Aj16PBNNU6QJ75dUDm
rZXBrPPwQMfXN0CeiJrBvB65QN0ooMD+xozBStTWQF//ukDPFsnBWkQHQZjirkCyOrvBTiOPQKhW
mUCEPcfBL9brQCCtU7+eFbzB0iL9PytBJcAY1pDB35rPQO8RI8Cfg6/BYjhCQBw1hL+h153BEof+
QEHNgUCpXqvBwCh+QLEgV0CthrfB0lPfQBFzyz/JebjBz2FTQNbejcAn84jBtqCaQFgnDz8myJvB
CrbWQIKfUcDyBZzBcmyUQEb1eUAz+oXBq4/GQMm/QUCL34XB3kHEQCVGl0DHeorBVRrzQIaNwMCq
/4rBFOLoQCNWq8BjG5jBm1f3QN4DiMCMXI3B//xZQIcbKUDggKjB32UEQNVSdECm4ZnB7Ps6QIu/
hkA8PY7B5WrTQLHVp0CKEMLBYL6pQHtOl0B9DMHBi0PyQKxXn0B6JbrBq6TWQOKn6r4QQLbB+TGz
QOUgg8DN4pLBUqDKQIrAur9J8q7BtV/CQMIPSsBEXJrBY9eeQNWnfEAJHLjBSYDnQMBvhkC/LbHB
wrnOQGR7ZT+f6LPBlMKIQCmUgMDkGI/BUCutQErsfT7DIKPBCSR6QPdOAsDq+pnBk8m1QC4Ijb98
YaXBwC6nQDGwB8Bd1p3BzG29QBw9bEDj/K/Bc9W5QLJnoT98QKrBqGpaQNuiP8DXsZLBzunJQBNV
QEDShpzBiYiCQD9+WkAPSZrBDEyyQBvOLUCY96bBlPGyQM+4dUBIaorBNJibP3Rb/b/Oe5PB+VCq
QGVnVEAdLpXBdBKFQDC1OUCv7KPBTas6QKRDe0C31pXBxeTvQFmbNEBJiJrBqs8GQHOBPsBV9I7B
0L7bQKoSu0AC78jBkx+SQOzRnUBeJMfB5CEJQT77q0DE9brBCf/lQN7AOr89rr3B6hXIQF82nMCD
DJDBsFjRQKjEH8A7qrDB4qDiQMO3TsB5aJ3Bged9QLuWYkCQa7fBO2P/QH9jf0CXKqvBapbYQNa3
1D+le7nBNIZ6QCTgl8A9ZonBc5+cQCWiAj+x1pvB9jZRQMV7nb/SnJzBDoGUQCAugEBkM4bBmVvG
QMAuR0A+8IXBoXLEQHNMmUCQCYvBBFpgPnTfBMCU1o/B07POP690eb+M3pHBAq2RP0NuCMA8LZzB
BQBYQAvuKkAqiqjB/zkEQC/WekBHC5rBTHQ7QOCpiUAmbY7B

> <OMEGA_E>
0JapPghLsT4UHLk+yBi6PsCooz4=

> <OMEGA_NBR>
    175151

$$$$
50215910
  -OEChem-04172616093D

 46 49  0     1  0  0  0  0  0999 V2000
    6.7357   -0.5472  -22.6048 C   0  0  0  0  0  0  0  0  0  0  0  0
    3.1051   -2.8621  -18.2087 C   0  0  0  0  0  0  0  0  0  0  0  0
    6.1959   -1.5061  -21.7298 C   0  0  0  0  0  0  0  0  0  0  0  0
    3.6096   -1.9290  -19.1334 C   0  0  0  0  0  0  0  0  0  0  0  0
    6.5514    0.8254  -22.3549 C   0  0  0  0  0  0  0  0  0  0  0  0
    3.9088   -3.9374  -17.7835 C   0  0  0  0  0  0  0  0  0  0  0  0
    5.2456    0.2781  -20.3725 C   0  0  0  0  0  0  0  0  0  0  0  0
    5.7131   -3.1681  -19.2348 C   0  0  0  0  0  0  0  0  0  0  0  0
    5.4534   -1.0937  -20.6044 C   0  0  0  0  0  0  0  0  0  0  0  0
    4.9151   -2.0814  -19.6548 C   0  0  0  0  0  0  0  0  0  0  0  0
    5.7808    1.2541  -21.2462 C   0  0  0  0  0  0  0  0  0  0  0  0
    5.2146   -4.0850  -18.2908 C   0  0  0  0  0  0  0  0  0  0  0  0
    6.3164    3.0271  -19.5952 C   0  0  0  0  0  0  0  0  0  0  0  0
    4.0786    3.3621  -19.2874 C   0  0  0  0  0  0  0  0  0  0  0  0
    5.2731    3.5261  -23.4447 C   0  0  0  0  0  0  0  0  0  0  0  0
    4.9248    4.7606  -22.6086 C   0  0  0  0  0  0  0  0  0  0  0  0
    5.5837    2.7405  -20.9041 C   0  0  1  0  0  0  0  0  0  0  0  0
    5.9633    3.7390  -22.0796 C   0  0  0  0  0  0  0  0  0  0  0  0
    7.4336    4.2239  -22.1116 C   0  0  0  0  0  0  0  0  0  0  0  0
    5.5697    3.6179  -17.2570 C   0  0  0  0  0  0  0  0  0  0  0  0
    5.3211    3.2403  -18.6548 N   0  0  0  0  0  0  0  0  0  0  0  0
    4.1695    2.9375  -20.5268 N   0  3  0  0  0  0  0  0  0  0  0  0
    2.9095    3.8132  -18.6929 N   0  0  0  0  0  0  0  0  0  0  0  0
    7.5127    2.8851  -19.3654 O   0  0  0  0  0  0  0  0  0  0  0  0
    6.2208   -5.3988  -17.7408 Cl  0  0  0  0  0  0  0  0  0  0  0  0
    7.2944   -0.8653  -23.4726 H   0  0  0  0  0  0  0  0  0  0  0  0
    2.1013   -2.7536  -17.8251 H   0  0  0  0  0  0  0  0  0  0  0  0
    6.3499   -2.5581  -21.9196 H   0  0  0  0  0  0  0  0  0  0  0  0
    2.9986   -1.0949  -19.4455 H   0  0  0  0  0  0  0  0  0  0  0  0
    6.9997    1.5559  -23.0119 H   0  0  0  0  0  0  0  0  0  0  0  0
    3.5239   -4.6491  -17.0682 H   0  0  0  0  0  0  0  0  0  0  0  0
    4.6688    0.5911  -19.5147 H   0  0  0  0  0  0  0  0  0  0  0  0
    6.7067   -3.2957  -19.6384 H   0  0  0  0  0  0  0  0  0  0  0  0
    4.5347    2.7198  -23.5663 H   0  0  0  0  0  0  0  0  0  0  0  0
    5.8500    3.6382  -24.3746 H   0  0  0  0  0  0  0  0  0  0  0  0
    5.2531    5.7576  -22.9376 H   0  0  0  0  0  0  0  0  0  0  0  0
    3.9378    4.8392  -22.1293 H   0  0  0  0  0  0  0  0  0  0  0  0
    7.8058    4.3356  -21.0826 H   0  0  0  0  0  0  0  0  0  0  0  0
    8.0509    3.4873  -22.6468 H   0  0  0  0  0  0  0  0  0  0  0  0
    7.4887    5.1932  -22.6286 H   0  0  0  0  0  0  0  0  0  0  0  0
    4.6105    3.7235  -16.7290 H   0  0  0  0  0  0  0  0  0  0  0  0
    6.1732    2.8386  -16.7685 H   0  0  0  0  0  0  0  0  0  0  0  0
    6.1120    4.5745  -17.2267 H   0  0  0  0  0  0  0  0  0  0  0  0
    3.3901    2.7710  -21.1308 H   0  0  0  0  0  0  0  0  0  0  0  0
    2.0571    3.8301  -19.2156 H   0  0  0  0  0  0  0  0  0  0  0  0
    2.9189    4.1216  -17.7417 H   0  0  0  0  0  0  0  0  0  0  0  0
  1  3  1  0  0  0  0
  1  5  2  0  0  0  0
  2  4  2  0  0  0  0
  2  6  1  0  0  0  0
  3  9  2  0  0  0  0
  4 10  1  0  0  0  0
  5 11  1  0  0  0  0
  6 12  2  0  0  0  0
  7  9  1  0  0  0  0
  7 11  2  0  0  0  0
  8 10  2  0  0  0  0
  8 12  1  0  0  0  0
  9 10  1  0  0  0  0
 11 17  1  0  0  0  0
 12 25  1  0  0  0  0
 13 17  1  0  0  0  0
 13 21  1  0  0  0  0
 13 24  2  0  0  0  0
 14 21  1  0  0  0  0
 14 22  2  0  0  0  0
 14 23  1  0  0  0  0
 15 16  1  0  0  0  0
 15 18  1  0  0  0  0
 16 18  1  0  0  0  0
 17 18  1  0  0  0  0
 17 22  1  0  0  0  0
 18 19  1  0  0  0  0
 20 21  1  0  0  0  0
  1 26  1  0  0  0  0
  2 27  1  0  0  0  0
  3 28  1  0  0  0  0
  4 29  1  0  0  0  0
  5 30  1  0  0  0  0
  6 31  1  0  0  0  0
  7 32  1  0  0  0  0
  8 33  1  0  0  0  0
 15 34  1  0  0  0  0
 15 35  1  0  0  0  0
 16 36  1  0  0  0  0
 16 37  1  0  0  0  0
 19 38  1  0  0  0  0
 19 39  1  0  0  0  0
 19 40  1  0  0  0  0
 20 41  1  0  0  0  0
 20 42  1  0  0  0  0
 20 43  1  0  0  0  0
 22 44  1  0  0  0  0
 23 45  1  0  0  0  0
 23 46  1  0  0  0  0
M  CHG  1  22   1
M  END
> <OMEGA_C>
NIvXQBsVDL+s1rTBMblGQEItN8Bpq5HB60TGQHHIwL+71q3BxgNnQJvp9r9FEZnBsqTRQAlOUz/E
1rLBECl6QKX9e8CYRI7ByNunQG5kjj7h+qLBFNK2QN7CSsD44JnBI4KuQEv9i7/b1aTBsEidQG02
BcANPZ3BtPy4QFmGoD81+KnBTd6mQAa4gsCeU5LBmh/KQDe8QUD7wpzBKYSCQFssV0CFTJrB2ryo
QCurYUDRjrvBAZidQA9XmEBu3rTBza2yQNBjL0CoO6fBGtO+QN5Lb0Ado7DBqt/tQPMph0Ck5LDB
OjuyQAuMZ0BeDorBy0aqQGJgT0AaPZXBz2yFQKoAPED5NqTBzDQ6QMILdEAXi5XBOWjwQCKmOEBg
7JrBqxDHQJ/CrMAj7Y3BzWvpQCiGXb/vx7vBGHwGQK46MMDQmY7BPzLLQPa3I8BpW6/Boeg/QKsm
jL9NkJvB6/3fQHkoxz9gGLjBVodhQH7FlMCei4jBFmeVQFZUFz8mHpzBop3WQMLsUsCKG53BqRyR
QKIQLkDCh7zBHDO7QB/YaEAZ/8LBJxmoQHc+uEA2gLfBZwV8QLjamkDfCLHBSsn5QD+9ikAoqajB
SdAAQa4vX0CgLLXBH6PvQAUvpkB0B7XBWYmTQMZNbkAQ1YXBiIrFQF+sNUD9JYbB55XDQABikkA3
0InBMfdYQPZXMUDRC6nBQKcDQCcgdUBzuZnBy886QCvkg0AB743BKHnXQFqRDL9HxLTBtRymQP0h
g8DPTpLB0KPGQKRkwL8lqK3BMde2QGPXSsCnrJnBA4nRQPw5Uz981rLBZQ54QBuxfMDico7Bmnqo
QGvNkz5S1aLBoF1nQObT9b/1FpnBdDavQFjeir/YnqTBAL+dQMeSBMBPC53BsT65QDBKoT+d7anB
cHdFQMxhN8CA6pHBlIbKQF16Q0AR5JzB7b2CQNTWV0B3U5rBV1CoQM9WYUCeprvBuM6cQHUbmEAJ
+rTBi8+yQEPwL0CuSafB1Xe+QDSib0CVwbDBbFbtQAnSh0AtE7HBUgSzQL6dbEDyPIrB9+eqQDPK
U0CiZJXBopyFQJcTPEDDNqTB+uQ5QKlkcUC7d5XBQrfwQKDsOEAVDJvBmHW4P6TPLMAWc43B7Avp
QC1QX78WvrvB2o25QFeZncCunY/BWKjLQLeTI8BXHq/BeeDWQBb4UsCMwJzBdJPfQLmdxj8hLrjB
Zk5eQMM8lcA31YjBJkCWQB9BGz928pvBWgBBQH32ib+WlJvBwPeQQFkwLUDalrzBcqK6QE/MaEBd
G8PBfOqmQKAauECRorfBk396QKVMmkAOHrHBglv5QHGci0C826jBj6EAQd7SYEC2XLXBh7PuQMfP
pkDTO7XBTFyUQGiSdUCYD4bBEofFQMUKOkAJO4bBWT/FQG5plED8EYrBnztZQOm3MEDKAKnBxdwC
QHRYb0Avi5nBeWs6QA7vgkBv443Bc3PTQORsEL96J7XBzPWoQKpig8D1OJLBvMbEQPjxwL/4r63B
4qO4QGDqScACi5nB2yfNQDpJTz/iWbPBaeJ9QL+Qf8B8P47BzDyoQPJylz6mrKLBnEVpQJYa+r86
qJjBn8quQHZVir+hdKTBT5ueQJqABMA1vZzB5Na3QNE9oT9DA6rB4mJJQNwgO8DPipHBdUzKQFU9
QEAdt5zBYYqCQMLkWEBKcZrByiTbQLqJoECV+a3B6gjxQIy4dUC+p7PB4CmzQPdSMEA1SafB11LB
QPtrb0D3jLDBlS6gQBA2eUDerbnBmAyyQHiSaUAzH4rBgmqqQHsZU0AZYJXBECWGQChiQkAkhqTB
msU4QNAFcEBljpXB32PwQHF5NUAtyJrBFlHAPxkBNMDE94zBh6TjQMEuZb8hULzBnyW9QPZ8ncB9
p4/BwFbKQKfaI8DxBK/B7Z3YQJtGUMAEuZzB2afYQN+Qwz/eILnB4KtlQCxAl8CWrIjB7h2XQEK2
Hj+hoZvB+IdBQMNfj79D/5rB62njQBQqqEDuoqXBa7DUQHNVvkCsX7LBnD76QKJhe0CCHrzBDnwE
QeYKT0DEYa/BpIOPQHH9O0DT6LrBHcmIQFNxlUB2hLfBs7OwQDrehUDHGMHBWESTQGhjdUAFHobB
cbjCQBmFNEBCHIbBNePFQB/RkUAutonBOVBbQIYOPkA2panB6FkCQIBCcEAmxJnBgjI4QC86gEAi
043BwAvUQKoDD79TN7XBXFlIQH34NcAMQJHBrLTEQDalwL9y163BUk9oQEzp87+8oZjB8PfNQB0O
UT+tYLPBpbJ7QL4/e8BX+43BtvKnQC4zmD754KLBpDq3QGXiScBGs5nBe1KuQKgRir8aqqTBJLed
QOzUA8A07JzBvRG4QBamoT8NHqrBGmqnQC96gsBnK5LBGVrKQL4lP0Daq5zBPJSCQBaYVkBuaZrB
wMzaQEo/oUBXr63BS8XxQIAteECdVrPBBXazQKxQMEAdTafBIOjBQF4lcEADd7DBCXShQABoeUCL
wbnBgRWyQCUoakDmL4rB2UqqQI2DT0CQSZXB2miGQCVJQkCckKTBDtg4QDSIbUB6g5XBQ53wQLDK
NkAtxJrBElfHQJsfrcCBAo7Bl5TkQK11Y79TVLzBS2gIQJLjLsA1F47BSBDKQPe6I8B2NK/BtEBB
QHp4iL8iBpvBWxPaQLiuxD/tD7nBpVZjQMF7lMD8QojB6ICWQN7zHj9S4pvBjODWQGEgUsDfA53B
KU3iQMW9qEAvS6XBdyvUQDUSv0AvDrLB1pD7QO+tfkBpwLvBRNkEQQ4FUkBp/a7B2GeRQFi4O0Bc
IbvBVXiJQMgUlUDIq7fBFW6yQBR4hkBtEcHBlVCTQBzackCvDYbB5+TEQK+wOECEDYbBBOTDQBJx
k0AxJIrBQiFcQE5kP0CUvqnBg68CQFxmb0ARxZnBYwA4QC4yfEAkuo3B

> <OMEGA_E>
JFLgPoho4T7wgOE+YDXjPg==

> <OMEGA_NBR>
    178631

$$$$
50215937
  -OEChem-04172616093D

 42 45  0     1  0  0  0  0  0999 V2000
    6.7795   -0.6404  -22.6345 C   0  0  0  0  0  0  0  0  0  0  0  0
    6.2649   -1.5617  -21.7049 C   0  0  0  0  0  0  0  0  0  0  0  0
    6.4986    0.7309  -22.5011 C   0  0  0  0  0  0  0  0  0  0  0  0
    5.1917    0.2630  -20.4982 C   0  0  0  0  0  0  0  0  0  0  0  0
    3.7135   -1.8186  -18.9597 C   0  0  0  0  0  0  0  0  0  0  0  0
    5.6312   -3.2669  -19.3271 C   0  0  0  0  0  0  0  0  0  0  0  0
    4.0011   -3.9144  -17.7696 C   0  0  0  0  0  0  0  0  0  0  0  0
    5.4673   -1.1147  -20.6263 C   0  0  0  0  0  0  0  0  0  0  0  0
    4.9304   -2.0741  -19.6303 C   0  0  0  0  0  0  0  0  0  0  0  0
    5.6771    1.1957  -21.4450 C   0  0  0  0  0  0  0  0  0  0  0  0
    3.2470   -2.7503  -18.0208 C   0  0  0  0  0  0  0  0  0  0  0  0
    5.3010    3.4035  -22.6241 C   0  0  0  0  0  0  0  0  0  0  0  0
    7.0754    4.2659  -21.4490 C   0  0  0  0  0  0  0  0  0  0  0  0
    4.1515    3.0226  -18.9205 C   0  0  0  0  0  0  0  0  0  0  0  0
    3.8936    4.3020  -19.7336 C   0  0  0  0  0  0  0  0  0  0  0  0
    4.1003    2.9642  -20.4587 C   0  0  0  0  0  0  0  0  0  0  0  0
    5.4029    2.6979  -21.2794 C   0  0  1  0  0  0  0  0  0  0  0  0
    6.6742    5.1812  -23.7858 C   0  0  0  0  0  0  0  0  0  0  0  0
    5.1668   -4.1548  -18.4162 N   0  0  0  0  0  0  0  0  0  0  0  0
    6.2937    4.3759  -22.6127 N   0  0  0  0  0  0  0  0  0  0  0  0
    6.5821    3.3338  -20.6612 N   0  3  0  0  0  0  0  0  0  0  0  0
    8.1950    5.0328  -21.1462 N   0  0  0  0  0  0  0  0  0  0  0  0
    4.5110    3.1547  -23.5291 O   0  0  0  0  0  0  0  0  0  0  0  0
    1.7424   -2.4712  -17.1782 Cl  0  0  0  0  0  0  0  0  0  0  0  0
    7.3923   -0.9873  -23.4534 H   0  0  0  0  0  0  0  0  0  0  0  0
    6.4798   -2.6143  -21.8151 H   0  0  0  0  0  0  0  0  0  0  0  0
    6.9120    1.4345  -23.2086 H   0  0  0  0  0  0  0  0  0  0  0  0
    4.6008    0.6114  -19.6640 H   0  0  0  0  0  0  0  0  0  0  0  0
    3.1513   -0.9200  -19.1666 H   0  0  0  0  0  0  0  0  0  0  0  0
    6.5610   -3.4740  -19.8360 H   0  0  0  0  0  0  0  0  0  0  0  0
    3.6415   -4.6304  -17.0455 H   0  0  0  0  0  0  0  0  0  0  0  0
    5.1089    2.8873  -18.3961 H   0  0  0  0  0  0  0  0  0  0  0  0
    3.3413    2.5759  -18.3255 H   0  0  0  0  0  0  0  0  0  0  0  0
    2.8988    4.7712  -19.7190 H   0  0  0  0  0  0  0  0  0  0  0  0
    4.6665    5.0826  -19.7897 H   0  0  0  0  0  0  0  0  0  0  0  0
    3.1897    2.5130  -20.8798 H   0  0  0  0  0  0  0  0  0  0  0  0
    7.4822    5.8744  -23.5089 H   0  0  0  0  0  0  0  0  0  0  0  0
    7.0215    4.5160  -24.5901 H   0  0  0  0  0  0  0  0  0  0  0  0
    5.8029    5.7548  -24.1349 H   0  0  0  0  0  0  0  0  0  0  0  0
    6.9555    3.0899  -19.7661 H   0  0  0  0  0  0  0  0  0  0  0  0
    8.6790    4.8918  -20.2826 H   0  0  0  0  0  0  0  0  0  0  0  0
    8.5162    5.7254  -21.7921 H   0  0  0  0  0  0  0  0  0  0  0  0
  1  2  1  0  0  0  0
  1  3  2  0  0  0  0
  2  8  2  0  0  0  0
  3 10  1  0  0  0  0
  4  8  1  0  0  0  0
  4 10  2  0  0  0  0
  5  9  1  0  0  0  0
  5 11  2  0  0  0  0
  6  9  2  0  0  0  0
  6 19  1  0  0  0  0
  7 11  1  0  0  0  0
  7 19  2  0  0  0  0
  8  9  1  0  0  0  0
 10 17  1  0  0  0  0
 11 24  1  0  0  0  0
 12 17  1  0  0  0  0
 12 20  1  0  0  0  0
 12 23  2  0  0  0  0
 13 20  1  0  0  0  0
 13 21  2  0  0  0  0
 13 22  1  0  0  0  0
 14 15  1  0  0  0  0
 14 16  1  0  0  0  0
 15 16  1  0  0  0  0
 16 17  1  0  0  0  0
 17 21  1  0  0  0  0
 18 20  1  0  0  0  0
  1 25  1  0  0  0  0
  2 26  1  0  0  0  0
  3 27  1  0  0  0  0
  4 28  1  0  0  0  0
  5 29  1  0  0  0  0
  6 30  1  0  0  0  0
  7 31  1  0  0  0  0
 14 32  1  0  0  0  0
 14 33  1  0  0  0  0
 15 34  1  0  0  0  0
 15 35  1  0  0  0  0
 16 36  1  0  0  0  0
 18 37  1  0  0  0  0
 18 38  1  0  0  0  0
 18 39  1  0  0  0  0
 21 40  1  0  0  0  0
 22 41  1  0  0  0  0
 22 42  1  0  0  0  0
M  CHG  1  21   1
M  END
> <OMEGA_C>
jfHYQHryI79vE7XBQXrIQEPlx7+Ko63BrPTPQDseOz9BArTBoyKmQPSshj5N/KPB2qltQFvH6L9d
rZfBfDK0QGMVUcDQnZrB/QiAQLeEesAaKI7BBvSuQPevjr+4AqXBKcadQGy+BMDuCp3BE6u1QEUM
mT9Yj6vBhc5PQAgFMMCCKpDBlKGpQDHTWUAl/rTBB2riQDSCiECNl6vB+diEQONxQUA4XZfBwDB5
QJapiUBl3p3B7DWDQKW0PUCBq6PBwOSsQPCqLEBCPKrB+ZLVQKXMpUBUSb7BblalQET0hMBQVJPB
tGXJQAgHjEDF5rTBnqDSQDNcVUAXSqXB0x4DQcUMoUBzK6nBx1mQQAXmSUCNO7zB6wbfP0MoHsD8
bInBcI3sQOS8fL+NoLvBZVrPQENRJ8Bjha7BHS/dQIuctz81q7nBsDmTQP2CHD/mT53B9K5JQJWD
a79MVZnBVPPRQLdVXsAfsJ7B/g1pQIoslMAvXYjBfXyjQAnKOEBIK5PBVNdVQHTbJECqmpLBSYY5
QL6tmECZwJ3B91OVQAmlokA3UZ7BLyRMQHrVIEC+CafBRm7vQMH6u0A7ErzB6a/gQAWDkEB6uMTB
J7G5QOsmuEBTFMHBTZPeQILBRUD+IJ7BX90KQUqJnEDFQqLBZUIIQa02t0AnVq7BIXXXQG4yFb+/
nrTBNgbGQHv5w7/Zk63BgrDRQH9ASz8rxbLB/F+nQAK2ij4u/KLBbPNlQH8Y/L86AZnBSCS2QPxp
TMDauJnBfE59QFGUgMBF9Y7BvCCuQCefjb9QqKTB6ducQEQhBsA7Cp3BZ8O4QCzGnz9aBKrB0GBH
QKLYPMDN8ZHBlt/JQJSzPkAihpzBAHCCQL51V0C5K5rBpC7nQEwhgkBOyrTBWpW8QJT5dUCX47rB
9P28QEoXfECEqq7BvHWyQJhwL0DR8abBtduyQMKNb0D7N4rBAwunQDzng8Bmy5LBCEKqQOIIUEAA
EZXBD0CFQEY1O0DxCaTByG86QArPdkBllZXB/qrwQI5oPED5FJvBj+m+P8B/NsCn64zB72/pQOCJ
ab8Tg7vBXfHKQIlyJcCdAK/B8WfgQN6CwT8FE7jB74+UQDKKFz8nNZzBRRM+QMlKkb+XS5vBR0nW
QLLZUsCxypzBUa1lQDqamMB4fonB5Bj/QE61UEDsYLTBx4/3QG07oUCTQLXBV6quQJwClUCRr7/B
dDO2QK1DOEDqz77BjuqwQF3TnEC8pavBwnCUQJAheED964XBXNzGQM/vQECI64XBu7vDQNiclkBt
rorB48JYQBh2L0Cu2qjBB1oEQMbreEBC2pnBVdI6QOOnhUBfAY7Bnt65QL06Eb/WY7bBZ5uzQG6a
xb87dq7BuCa7QH47Sz8fmrPBOgSvQKY1VD527aDBb8+1QEfc+b9sqZDBvP+SQHj1WcAAmp3B4e6Z
QJJZhMCH24vBVzWuQKuwlL/Sp6PBs6SnQOyPC8DbOpvBtoG2QBEFmT/YxqjBadmuQMZNPMCT6ojB
wBfJQHghOUAtYprBOPCCQDThZEBGh5rB4iO5QKDBgkCNyrfBC7fGQByCoUB9za7BJcLPQOzYYkCe
wK3BaYC2QMBXK0Awi6XBd9qqQPQyb0Dq24jBg3eMQMMyi8D2A5bB19CoQBItYECPfJTBW8+JQL5v
SEAxTKTB+603QO8HgkB86pbBjubsQADvJEAeQJfB7CTAQHSfLMCpjXfBA7W9QMr2XL/apL7BN+qy
QF6zJcCnoLDBrLS/QIkVxT8Jv7nBVtWpQC7fAD9xuJjBeb7FQMfMg79klI7BuC6IQA3aZcD1q6XB
6IWUQMOznMDA4IXBTgmXQBLDd0BoIbnBrQHKQHA8g0Cpg7/BpEbhQNMDuEAUGrDBRE6uQOyosEDT
t6nBzlrxQLX5T0Dp567BJ0yNQAR7h0C9MobBdUyuQBagMUBBroTB+n7GQM8bjEBNBIfBIn9nQAHE
RkC1FqrBkV4FQH7ugkAM25vBS8MxQE9XjED2YI/B

> <OMEGA_E>
dQSIP7rnAj8A80c/

> <OMEGA_NBR>
    181149

$$$$
50215938
  -OEChem-04172616093D

 46 49  0     1  0  0  0  0  0999 V2000
    6.4781   -0.5705  -22.7387 C   0  0  0  0  0  0  0  0  0  0  0  0
    5.3540   -4.0855  -18.2672 C   0  0  0  0  0  0  0  0  0  0  0  0
    6.0435   -1.5296  -21.8068 C   0  0  0  0  0  0  0  0  0  0  0  0
    5.7972   -3.1562  -19.2272 C   0  0  0  0  0  0  0  0  0  0  0  0
    6.3282    0.8033  -22.4666 C   0  0  0  0  0  0  0  0  0  0  0  0
    4.0566   -3.9772  -17.7285 C   0  0  0  0  0  0  0  0  0  0  0  0
    5.2471    0.2556  -20.3540 C   0  0  0  0  0  0  0  0  0  0  0  0
    3.6525   -1.9929  -19.0877 C   0  0  0  0  0  0  0  0  0  0  0  0
    5.4152   -1.1155  -20.6156 C   0  0  0  0  0  0  0  0  0  0  0  0
    4.9496   -2.1024  -19.6336 C   0  0  0  0  0  0  0  0  0  0  0  0
    5.7331    1.2314  -21.2551 C   0  0  0  0  0  0  0  0  0  0  0  0
    3.2024   -2.9383  -18.1492 C   0  0  0  0  0  0  0  0  0  0  0  0
    6.3124    2.8868  -19.4974 C   0  0  0  0  0  0  0  0  0  0  0  0
    4.0838    3.3789  -19.3040 C   0  0  0  0  0  0  0  0  0  0  0  0
    6.0392    5.3267  -23.8339 C   0  0  0  0  0  0  0  0  0  0  0  0
    5.6806    3.9464  -24.3921 C   0  0  0  0  0  0  0  0  0  0  0  0
    5.3842    4.2810  -22.9267 C   0  0  0  0  0  0  0  0  0  0  0  0
    5.6413    2.7090  -20.8451 C   0  0  1  0  0  0  0  0  0  0  0  0
    5.5401    3.7567  -17.2672 C   0  0  0  0  0  0  0  0  0  0  0  0
    6.2981    3.7517  -21.8066 C   0  0  0  0  0  0  0  0  0  0  0  0
    5.3014    3.2413  -18.6203 N   0  0  0  0  0  0  0  0  0  0  0  0
    4.2338    3.0370  -20.5623 N   0  3  0  0  0  0  0  0  0  0  0  0
    2.8846    3.7963  -18.7456 N   0  0  0  0  0  0  0  0  0  0  0  0
    7.5172    2.8547  -19.2707 O   0  0  0  0  0  0  0  0  0  0  0  0
    1.5800   -2.8275  -17.5189 Cl  0  0  0  0  0  0  0  0  0  0  0  0
    6.9289   -0.8887  -23.6671 H   0  0  0  0  0  0  0  0  0  0  0  0
    6.0084   -4.8814  -17.9435 H   0  0  0  0  0  0  0  0  0  0  0  0
    6.1909   -2.5813  -22.0037 H   0  0  0  0  0  0  0  0  0  0  0  0
    6.7854   -3.2492  -19.6529 H   0  0  0  0  0  0  0  0  0  0  0  0
    6.6689    1.5338  -23.1854 H   0  0  0  0  0  0  0  0  0  0  0  0
    3.7165   -4.6909  -16.9927 H   0  0  0  0  0  0  0  0  0  0  0  0
    4.7401    0.5679  -19.4529 H   0  0  0  0  0  0  0  0  0  0  0  0
    3.0057   -1.1828  -19.3908 H   0  0  0  0  0  0  0  0  0  0  0  0
    7.0935    5.6022  -23.6835 H   0  0  0  0  0  0  0  0  0  0  0  0
    5.4703    6.2131  -24.1513 H   0  0  0  0  0  0  0  0  0  0  0  0
    4.8541    3.8413  -25.1103 H   0  0  0  0  0  0  0  0  0  0  0  0
    6.4773    3.2304  -24.6425 H   0  0  0  0  0  0  0  0  0  0  0  0
    4.3296    4.4481  -22.6622 H   0  0  0  0  0  0  0  0  0  0  0  0
    4.5769    3.9617  -16.7772 H   0  0  0  0  0  0  0  0  0  0  0  0
    6.0967    3.0090  -16.6831 H   0  0  0  0  0  0  0  0  0  0  0  0
    6.1261    4.6857  -17.3269 H   0  0  0  0  0  0  0  0  0  0  0  0
    7.1719    3.2769  -22.2769 H   0  0  0  0  0  0  0  0  0  0  0  0
    6.6278    4.6100  -21.2029 H   0  0  0  0  0  0  0  0  0  0  0  0
    3.4950    3.0039  -21.2355 H   0  0  0  0  0  0  0  0  0  0  0  0
    2.0619    3.8514  -19.3115 H   0  0  0  0  0  0  0  0  0  0  0  0
    2.8427    4.0422  -17.7772 H   0  0  0  0  0  0  0  0  0  0  0  0
  1  3  1  0  0  0  0
  1  5  2  0  0  0  0
  2  4  2  0  0  0  0
  2  6  1  0  0  0  0
  3  9  2  0  0  0  0
  4 10  1  0  0  0  0
  5 11  1  0  0  0  0
  6 12  2  0  0  0  0
  7  9  1  0  0  0  0
  7 11  2  0  0  0  0
  8 10  2  0  0  0  0
  8 12  1  0  0  0  0
  9 10  1  0  0  0  0
 11 18  1  0  0  0  0
 12 25  1  0  0  0  0
 13 18  1  0  0  0  0
 13 21  1  0  0  0  0
 13 24  2  0  0  0  0
 14 21  1  0  0  0  0
 14 22  2  0  0  0  0
 14 23  1  0  0  0  0
 15 16  1  0  0  0  0
 15 17  1  0  0  0  0
 16 17  1  0  0  0  0
 17 20  1  0  0  0  0
 18 20  1  0  0  0  0
 18 22  1  0  0  0  0
 19 21  1  0  0  0  0
  1 26  1  0  0  0  0
  2 27  1  0  0  0  0
  3 28  1  0  0  0  0
  4 29  1  0  0  0  0
  5 30  1  0  0  0  0
  6 31  1  0  0  0  0
  7 32  1  0  0  0  0
  8 33  1  0  0  0  0
 15 34  1  0  0  0  0
 15 35  1  0  0  0  0
 16 36  1  0  0  0  0
 16 37  1  0  0  0  0
 17 38  1  0  0  0  0
 19 39  1  0  0  0  0
 19 40  1  0  0  0  0
 19 41  1  0  0  0  0
 20 42  1  0  0  0  0
 20 43  1  0  0  0  0
 22 44  1  0  0  0  0
 23 45  1  0  0  0  0
 23 46  1  0  0  0  0
M  CHG  1  22   1
M  END
> <OMEGA_C>
7EzPQAsOEr/F6LXBtFOrQHK8gsAgI5LBTmTBQI7Lw79adK7B6IK5QFD/ScBi0ZnB/oDKQHmmTT+M
u7PBis+BQAGLfsDl043B5OenQCLbgj7s1KLB38JpQCoW/7+Ls5jBMkmtQMrJjr/L7KTBvmKeQC+N
BsCsEZ3BJnW3QN6dnT+KCqrBfvRMQLYMPMCLMZHBhv/JQJTBOECq+pvBLq6CQJRAWECPbprB5kDB
QIB0qkDKq77BWse1QKKRfED/IsPBVEusQEv+iEDnabfBdIW0QJdfLUC0wqbBbEixQGBtcEBBI4rB
ForJQCIbcED2c67B9KSpQAZyT0Bi9pTBenuHQMleQkCxf6TB/pw4QEj3ckD+9pXBNo3wQAyzNkBd
KprB2jzKP2b1NMDCJozBjrndQHB/Y784Vr3Bl0TAQFI0nMBfjI/B/RvGQIYzJcCPB7DBOSLZQCLz
T8A0OZ3B52fVQGVTxD+/e7nButptQNQblsD38IfB6q6XQMxeET+Vn5vB5V1AQIhml79bIJvBk/3i
QDRFs0Dkd73BkQyvQFHRxkD2NcHBqVSbQHbXdUDs4cjBq0XPQDy/TkDaI8XBG4yKQH9WjkBJTLXB
r3WSQDyNfUCkN4bByBfDQPqSQEADd4XB8gjEQA3xlUB9nYrB+H/lQCy5UUAaN7LBAxfUQIaFk0CU
n6nB5q5fQJNAQEBJ4qnBavYDQHx9dkDafZrBOu81QKVZgUC0N47BofvPQJbuFr8Eq7XBeqxOQLEg
O8BMgZDBxeG/QOQmxb/2dq7B2NpoQA/j/b/YNpjB0azMQN30Rz/3VbPBgd+CQLCEfsD4jo3Brful
QLiLgj7r8qLBx0e4QNgHS8A7O5rBIDerQIpEj78EB6XBKO+cQGnnBsC+Hp3BNky3QDZ/nD9v96nB
k12rQK8pg8D3aZLBRSTKQEIOOUAl+JvBKMCCQEwFWEB7hZrBKbaVQB/goEA9CrvBJB7CQE+OoEBr
WcDBvsWzQDDJdUAYbLnBwfq0QAEwLUAZw6bBD8GwQOFMbUD9B4rBLNzKQId2bEBAn67BT4WpQPBq
TkBA+pTBfz2IQH8xRkC8t6TBqEM4QDomcEAW8ZXB5JrwQCO+NkBwDprBHaTNQNSvrMB2vo7B3/He
QDlhab+TBL3BUk4QQPumNcAM2IzBRFLDQLMEJsBnJrDBdgU/QOdrlb9tYJrBvYnaQDOwwD8TurjB
ZNxxQOsclsCnkofBhpWUQOaZEj/97ZvBKSXXQNiWUcD1B57BqRqPQMXbtkBaXrTB5n5xQDNEnUB1
9b/Be/LEQAq1nEBhEcnBsE3bQJ1MtkBFer3B14erQPwjOkBOnr3B38iRQPG6eUDQJYbBKlzCQNyE
PEANdoXBoozDQChllEB6SIrBhZfrQG6qVUBqKLDB7yTMQMHmlUBiy6rBQ6NiQEAvSUCfSarBEMUD
QCIDdUA9eprB1Rs1QN2rfEA1G47BScXZQBbeE7+td7TBg1OjQEB/g8D5EJLB1Q7KQGDJxL9CQK3B
NVe2QAeYTMA3NZnBu1fRQJ83Sj/IzrLBcphwQJ9UfMCe8o7BI42qQNStdz7ahKLBfp9mQLxn+L/y
9pnBj8OxQEj8j7/UWKTBKWmeQNGcBsCwF53BLqi5QP97mz88vqnBvnBAQDZGN8DK+5LBf1PKQJgp
R0CKU53BKb+CQKwCW0ANQprBg4PnQOhQl0B/v77Bz73xQB5frkDbQLTBMWPjQOT3fkBPFLTB+/Cw
QFwlLEDBJqfBQdK0QPRzdEB3uYrBDTO1QBK4akBjtbDBwyWsQI5mZUBVH5bBFVKEQPBsNUBHoqPB
qkI6QIKKc0B/P5XBlZ3wQEccPEDKqZvB15KqP0W7KsD4Zo/BIl7sQE7hY7+mTrvBZ7m1QGMCnsBR
+Y7BepPQQLiAJcCChq7BAyPXQB9XVcA0tJvBwfvcQPCMwj+ZeLjBYJBTQJKRlMDbdYnB3SyZQNNI
DT9oeZvBZv9BQNpXjb9U85zBoaXKQJXpn0BgTcPB/bkAQcYSj0ASVMTB+YMJQf+ytkD8SrLBmDnc
QM+Jx0BJRLHBieL7QJyUTkDiP7LBLKmXQI4ohkD7zIbBFc++QK0mOEBr7obBNIDOQPUTkkAE6InB
3oSlQNqbk0Cgf67BPp2kQGxcTkAknbfBLJZVQCHhIUAmy6fBHukBQNvMaECby5jBI1Q8QJL9h0AC
Fo7B

> <OMEGA_E>
XBLYPnAl3D5Q5eI+

> <OMEGA_NBR>
    183827

$$$$
50215941
  -OEChem-04172616093D

 37 39  0     1  0  0  0  0  0999 V2000
    4.6751   -2.1033  -19.5878 C   0  0  0  0  0  0  0  0  0  0  0  0
    6.6476    5.3115  -24.1536 C   0  0  0  0  0  0  0  0  0  0  0  0
    5.3529    4.7656  -24.0864 C   0  0  0  0  0  0  0  0  0  0  0  0
    7.6014    4.9822  -23.1733 C   0  0  0  0  0  0  0  0  0  0  0  0
    6.5802   -0.6904  -22.4960 C   0  0  0  0  0  0  0  0  0  0  0  0
    6.0019   -1.6187  -21.6078 C   0  0  0  0  0  0  0  0  0  0  0  0
    5.0068    3.8995  -23.0334 C   0  0  0  0  0  0  0  0  0  0  0  0
    7.2589    4.1197  -22.1157 C   0  0  0  0  0  0  0  0  0  0  0  0
    6.4205    0.6929  -22.2827 C   0  0  0  0  0  0  0  0  0  0  0  0
    5.0928    0.2165  -20.2882 C   0  0  0  0  0  0  0  0  0  0  0  0
    5.2566   -1.1653  -20.5012 C   0  0  0  0  0  0  0  0  0  0  0  0
    5.9458    3.5900  -22.0162 C   0  0  0  0  0  0  0  0  0  0  0  0
    5.6654    1.1608  -21.1787 C   0  0  0  0  0  0  0  0  0  0  0  0
    6.2799    2.9570  -19.5632 C   0  0  0  0  0  0  0  0  0  0  0  0
    4.0735    3.5076  -19.3204 C   0  0  0  0  0  0  0  0  0  0  0  0
    5.5364    2.6567  -20.8599 C   0  0  1  0  0  0  0  0  0  0  0  0
    5.5798    3.8479  -17.3118 C   0  0  0  0  0  0  0  0  0  0  0  0
    4.2012   -2.8656  -18.8431 N   0  0  0  0  0  0  0  0  0  0  0  0
    5.3052    3.3656  -18.6699 N   0  0  0  0  0  0  0  0  0  0  0  0
    4.1367    2.9588  -20.5088 N   0  3  0  0  0  0  0  0  0  0  0  0
    2.9280    4.0775  -18.7868 N   0  0  0  0  0  0  0  0  0  0  0  0
    7.4514    2.7100  -19.2966 O   0  0  0  0  0  0  0  0  0  0  0  0
    6.9094    5.9833  -24.9577 H   0  0  0  0  0  0  0  0  0  0  0  0
    4.6237    5.0117  -24.8441 H   0  0  0  0  0  0  0  0  0  0  0  0
    8.5988    5.3923  -23.2327 H   0  0  0  0  0  0  0  0  0  0  0  0
    7.1488   -1.0411  -23.3446 H   0  0  0  0  0  0  0  0  0  0  0  0
    6.1299   -2.6780  -21.7751 H   0  0  0  0  0  0  0  0  0  0  0  0
    4.0180    3.4666  -22.9991 H   0  0  0  0  0  0  0  0  0  0  0  0
    8.0000    3.8590  -21.3746 H   0  0  0  0  0  0  0  0  0  0  0  0
    6.8748    1.3986  -22.9624 H   0  0  0  0  0  0  0  0  0  0  0  0
    4.5247    0.5618  -19.4370 H   0  0  0  0  0  0  0  0  0  0  0  0
    4.6328    4.1069  -16.8156 H   0  0  0  0  0  0  0  0  0  0  0  0
    6.0899    3.0594  -16.7390 H   0  0  0  0  0  0  0  0  0  0  0  0
    6.2229    4.7389  -17.3622 H   0  0  0  0  0  0  0  0  0  0  0  0
    3.3479    2.7715  -21.0941 H   0  0  0  0  0  0  0  0  0  0  0  0
    2.0802    4.0862  -19.3171 H   0  0  0  0  0  0  0  0  0  0  0  0
    2.9495    4.4799  -17.8716 H   0  0  0  0  0  0  0  0  0  0  0  0
  1 11  1  0  0  0  0
  1 18  3  0  0  0  0
  2  3  1  0  0  0  0
  2  4  2  0  0  0  0
  3  7  2  0  0  0  0
  4  8  1  0  0  0  0
  5  6  1  0  0  0  0
  5  9  2  0  0  0  0
  6 11  2  0  0  0  0
  7 12  1  0  0  0  0
  8 12  2  0  0  0  0
  9 13  1  0  0  0  0
 10 11  1  0  0  0  0
 10 13  2  0  0  0  0
 12 16  1  0  0  0  0
 13 16  1  0  0  0  0
 14 16  1  0  0  0  0
 14 19  1  0  0  0  0
 14 22  2  0  0  0  0
 15 19  1  0  0  0  0
 15 20  2  0  0  0  0
 15 21  1  0  0  0  0
 16 20  1  0  0  0  0
 17 19  1  0  0  0  0
  2 23  1  0  0  0  0
  3 24  1  0  0  0  0
  4 25  1  0  0  0  0
  5 26  1  0  0  0  0
  6 27  1  0  0  0  0
  7 28  1  0  0  0  0
  8 29  1  0  0  0  0
  9 30  1  0  0  0  0
 10 31  1  0  0  0  0
 17 32  1  0  0  0  0
 17 33  1  0  0  0  0
 17 34  1  0  0  0  0
 20 35  1  0  0  0  0
 21 36  1  0  0  0  0
 21 37  1  0  0  0  0
M  CHG  1  20   1
M  END
> <OMEGA_C>
N5qVQOmbBsDCs5zBarnUQLL3qUCfOsHBpEqrQNN/mEDgsMDB6T7zQCNun0D5YrnB15DSQKi9ML/E
97PBdg/AQIoyz7/K3KzBFTigQDWSeUBYRLjB20joQILUg0Da7LDBrnTNQJxgMT8EQ7LBDfiiQDa3
XT47TqLB6DWoQMwplb+EAqTB/UO+QJPCZUAWIbDB30q1QLqUlD8RbqnBAPXIQHE/PUCBgZzBx1mC
QLl8YEAokJrBGCqxQM8GKkAG4abBlo2yQJpDdkB5forBYXCGQEdlN8CnvpbBi8SpQLlmV0DlW5XB
OWCEQDNcPUD0EaTBemQ7QM56gkBRS5bBR3LuQJpwLUBiX5rB5hndQAd3v0BnqcfBNfWTQDtgoECm
wMbBipQJQdONrECS3LnBtcLkQMxBhb+3wbrBzSfEQBtkK8B/M67BeJOAQG7dXUAV/rfBJwAAQZn5
dkA0/6rBHv7bQGIFsz8Ks7fBKsqQQOjPDz8Rf5vB6T+UQOVrg0BzhobBxODCQI7NQ0Bp6YXBtyHH
QPmkl0C95YrB6kNWQBRgMUDFwKjBdiIFQFLCgkBTiZrBCcQ8QBNbj0Dx+I7BaYoEQb5Ryb9tWajB
pxrbQBjSp0ATSMHBOgn4QNKlikCNqLzBBsiwQBQwqkAZe73BA2yZQBVgX78/zrHBr5C/QIstyL8g
fq/BzbjqQBjOX0CzNrTBkVOjQKGGj0BpDLXBnF6VQAwE+z7WI6/BD+7dQNJr8z6r8afBtfLhQOa3
Yr8An6rBIzjAQCAcZEAbRrDB/za3QHNIlj9t6anBaQbKQFokQkAzk5zBqjeCQDBwWECpEprBKTey
QCxhKkBz5qbBZ4yzQBxee0BriYrBSocUQXUGCMCtdabB0JiqQOYqV0CxLpXByRSFQBhsOkBK3KPB
oF84QNJGc0AeYZXB/L/wQJzYRECO/prBwmHlQAFcvEDdvMfB9D4MQbLDiEDulr/BIpKaQIuCwECI
CsHBzmd+QGC4sb8oorXBt3bCQCcqJ8DRcrHB2okAQcQmM0BXtrDBdceCQEZ8kUBDL7LBiIZwQMVt
gj93F7HBSJ/4QEV0fj/IWaTBDz+VQDcXg0CPRIbBgH/HQLRuTkDT84XBn5nEQDlEnEABcIvB2QVY
QCjBL0BypqjBZJ0BQABVcEAHgZnB32o4QIXDhEDh4I3B

> <OMEGA_E>
JG0BPwB6Sz8=

> <OMEGA_NBR>
    185447

$$$$
50215968
  -OEChem-04172616093D

 49 52  0     1  0  0  0  0  0999 V2000
    6.7988   -0.9095  -22.8770 C   0  0  0  0  0  0  0  0  0  0  0  0
    5.2695   -3.9239  -18.2279 C   0  0  0  0  0  0  0  0  0  0  0  0
    6.2773   -1.7293  -21.8698 C   0  0  0  0  0  0  0  0  0  0  0  0
    5.8061   -3.0706  -19.2089 C   0  0  0  0  0  0  0  0  0  0  0  0
    6.6552    0.4820  -22.7864 C   0  0  0  0  0  0  0  0  0  0  0  0
    3.9374   -3.7556  -17.8032 C   0  0  0  0  0  0  0  0  0  0  0  0
    5.4030    0.2425  -20.7120 C   0  0  0  0  0  0  0  0  0  0  0  0
    3.6855   -1.8604  -19.3198 C   0  0  0  0  0  0  0  0  0  0  0  0
    5.5721   -1.1581  -20.7914 C   0  0  0  0  0  0  0  0  0  0  0  0
    5.0167   -2.0325  -19.7531 C   0  0  0  0  0  0  0  0  0  0  0  0
    5.9895    1.0852  -21.6853 C   0  0  0  0  0  0  0  0  0  0  0  0
    3.1438   -2.7312  -18.3575 C   0  0  0  0  0  0  0  0  0  0  0  0
    7.2021    3.2350  -22.0684 C   0  0  0  0  0  0  0  0  0  0  0  0
    5.6188    3.7839  -23.6217 C   0  0  0  0  0  0  0  0  0  0  0  0
    3.7497    3.8184  -18.6595 C   0  0  0  0  0  0  0  0  0  0  0  0
    5.1823    3.8336  -18.0681 C   0  0  0  0  0  0  0  0  0  0  0  0
    3.8704    3.2902  -20.1006 C   0  0  0  0  0  0  0  0  0  0  0  0
    6.0672    3.1064  -19.0837 C   0  0  0  0  0  0  0  0  0  0  0  0
    5.3670    3.4038  -20.4159 C   0  0  0  0  0  0  0  0  0  0  0  0
    5.8674    2.6234  -21.6774 C   0  0  2  0  0  0  0  0  0  0  0  0
    7.9268    4.7746  -23.9130 C   0  0  0  0  0  0  0  0  0  0  0  0
    6.9784    3.8503  -23.2853 N   0  0  0  0  0  0  0  0  0  0  0  0
    4.9887    2.9847  -22.7948 N   0  3  0  0  0  0  0  0  0  0  0  0
    5.0159    4.4438  -24.6801 N   0  0  0  0  0  0  0  0  0  0  0  0
    8.2415    3.2374  -21.4174 O   0  0  0  0  0  0  0  0  0  0  0  0
    1.4796   -2.5535  -17.8696 Cl  0  0  0  0  0  0  0  0  0  0  0  0
    7.3103   -1.3474  -23.7213 H   0  0  0  0  0  0  0  0  0  0  0  0
    5.8783   -4.7072  -17.8009 H   0  0  0  0  0  0  0  0  0  0  0  0
    6.4151   -2.7993  -21.9188 H   0  0  0  0  0  0  0  0  0  0  0  0
    6.8226   -3.2089  -19.5465 H   0  0  0  0  0  0  0  0  0  0  0  0
    7.0584    1.1079  -23.5687 H   0  0  0  0  0  0  0  0  0  0  0  0
    3.5236   -4.4121  -17.0521 H   0  0  0  0  0  0  0  0  0  0  0  0
    4.8248    0.6706  -19.9066 H   0  0  0  0  0  0  0  0  0  0  0  0
    3.0834   -1.0613  -19.7264 H   0  0  0  0  0  0  0  0  0  0  0  0
    3.1019    3.1562  -18.0663 H   0  0  0  0  0  0  0  0  0  0  0  0
    3.3301    4.8352  -18.6625 H   0  0  0  0  0  0  0  0  0  0  0  0
    5.5284    4.8689  -17.9321 H   0  0  0  0  0  0  0  0  0  0  0  0
    5.2018    3.3104  -17.1007 H   0  0  0  0  0  0  0  0  0  0  0  0
    3.5366    2.2439  -20.1624 H   0  0  0  0  0  0  0  0  0  0  0  0
    3.2776    3.9058  -20.7932 H   0  0  0  0  0  0  0  0  0  0  0  0
    7.0915    3.5073  -19.0759 H   0  0  0  0  0  0  0  0  0  0  0  0
    6.0950    2.0253  -18.8830 H   0  0  0  0  0  0  0  0  0  0  0  0
    5.5543    4.4667  -20.6282 H   0  0  0  0  0  0  0  0  0  0  0  0
    7.5173    5.1261  -24.8715 H   0  0  0  0  0  0  0  0  0  0  0  0
    8.0944    5.6351  -23.2485 H   0  0  0  0  0  0  0  0  0  0  0  0
    8.8810    4.2567  -24.0900 H   0  0  0  0  0  0  0  0  0  0  0  0
    4.0471    2.6680  -22.9092 H   0  0  0  0  0  0  0  0  0  0  0  0
    4.0381    4.3243  -24.8521 H   0  0  0  0  0  0  0  0  0  0  0  0
    5.5586    5.0396  -25.2722 H   0  0  0  0  0  0  0  0  0  0  0  0
  1  3  1  0  0  0  0
  1  5  2  0  0  0  0
  2  4  2  0  0  0  0
  2  6  1  0  0  0  0
  3  9  2  0  0  0  0
  4 10  1  0  0  0  0
  5 11  1  0  0  0  0
  6 12  2  0  0  0  0
  7  9  1  0  0  0  0
  7 11  2  0  0  0  0
  8 10  2  0  0  0  0
  8 12  1  0  0  0  0
  9 10  1  0  0  0  0
 11 20  1  0  0  0  0
 12 26  1  0  0  0  0
 13 20  1  0  0  0  0
 13 22  1  0  0  0  0
 13 25  2  0  0  0  0
 14 22  1  0  0  0  0
 14 23  2  0  0  0  0
 14 24  1  0  0  0  0
 15 16  1  0  0  0  0
 15 17  1  0  0  0  0
 16 18  1  0  0  0  0
 17 19  1  0  0  0  0
 18 19  1  0  0  0  0
 19 20  1  0  0  0  0
 20 23  1  0  0  0  0
 21 22  1  0  0  0  0
  1 27  1  0  0  0  0
  2 28  1  0  0  0  0
  3 29  1  0  0  0  0
  4 30  1  0  0  0  0
  5 31  1  0  0  0  0
  6 32  1  0  0  0  0
  7 33  1  0  0  0  0
  8 34  1  0  0  0  0
 15 35  1  0  0  0  0
 15 36  1  0  0  0  0
 16 37  1  0  0  0  0
 16 38  1  0  0  0  0
 17 39  1  0  0  0  0
 17 40  1  0  0  0  0
 18 41  1  0  0  0  0
 18 42  1  0  0  0  0
 19 43  1  0  0  0  0
 21 44  1  0  0  0  0
 21 45  1  0  0  0  0
 21 46  1  0  0  0  0
 23 47  1  0  0  0  0
 24 48  1  0  0  0  0
 24 49  1  0  0  0  0
M  CHG  1  23   1
M  END
> <OMEGA_C>
IpDZQBLTaL8TBLfBn5+oQGIhe8Cy0pHBmN/IQJtY3b9W9a7Bt8u5QK6ERMC8q5nBWvfUQBjI9j51
SrbBLv97QEBccMACbY7Bm+WsQJhZeD45sqXBst9rQA8h7r8Nj5rB0E6yQLs7lL/UVKbB8IigQIwU
AsBOBp7BQKq/QHbpij9xe63BQTNJQPzLLsBA3JLBxnfmQGsKT0AMjLDB3MyzQGArckAz+bzBavpv
QJJgdECtRpXBV9WlQApadUB9i5DBWLV3QOKSUkARzqDBZybCQNbPRkBhq5jB2L6rQDHXWUCqU6PB
jMG7QEHmJ0BYa63BjKj9QObJmEDdTb/BWk/fQExrdkBcSLrBt6OfQNoFP0CwW7bBRIKgQE0zjkDw
cMXBOt0DQdYwT0DXVqvBGmO9P/RsI8Dl9I7BYe7pQOx4rL9Txb3BtRq8QBKhlsA9aI7Bt0jNQOwn
M8DLWa/BxFLaQAFfTcBKX5zBCt7hQA3PjT/JjLzBCYNhQBcwjcC7aojBjGSaQHSvKz+tQJ/Bv1VF
QMrYh7+dz53BuYRGQOb/SUDHh5DB8yBVQFq6mkDeTJXBkuiwQKfNm0DedI/B63SmQCLdU0BJzojB
E1diQJWcD0CYTKHBiMRRQD34eUBwWKbBq+3iQLt3YEB6m5jBggrDQNedAUBWEJfBrryxQDXvjkCX
BqXBp43wQCgJpEDn+MbB2oIBQWlStEDs/LnBbxgOQaA2iEBGuMDBM4KBQNDAKkAURrfB4zeBQIhg
ikAj0cbByd+xQAtEoUB+LcrBk9nYQIQUaL+pMbfBqe5JQP+nKsAPgJLBFknIQM4d3b9NH6/Bbsls
QP6z57/XS5rBDZvUQGjv+D7sabbBPi97QCmTbsBfX47BwaGtQLC+fD59qqXBWeK4QDErRsAi/5nB
w2OyQFbNk794ZKbBsGWgQMmlAcAoFp7Bmtm/QHJ+iz93h63BO5GnQIsufMBpHZLBw0nnQPr6TkCA
UbDB7by1QGezckBwAr3BnKVuQMMRdEAVf5XB/G6kQHSRcEDkWpDBTo53QBwOUEDq36DBVzLCQKze
R0CnrZjBAZCrQOfUWUBtWaPBv0G8QOtPKEDEZ63BgeT/QB23mEBP877BAv3gQA6vdkCKErrBr8+g
QFJfQEAMcrbBUmWjQNBEjkBzo8XB+BwEQQwRTkBU/KrBfyPGQNgZqMAMCI3BXdroQKcbrL/JAL7B
s18JQGamIMCkrY/Bc0fMQLMdM8BXla/BuFBHQBASfb8kYZ3BvV3hQD1cjj+wsLzBxZBgQM0ejMC/
VYjBvgGcQPdDLT/5E5/Bve/YQBIXUcDY7JzBO35BQDLyTEB415DBfadXQHlIm0BLy5XBtHOvQBfE
mECuYI7BSrWjQB9kSUC5C4nBsklkQO1gDED8JaHBQJtQQDMHdUCQkKbBDgjiQPTeZUBtfZjB92fF
QAOhAkAlTpfBVb6wQGoMj0DtEKXBvmPzQPsfpECNqsbB4Y4CQfkptEAqmbnBPTEPQV3ph0BNP8DB
P42CQO4sLUDlc7fBdTaEQBufikCZL8fBzVa1QPMDoUDPUcrB

> <OMEGA_E>
vsp4P4xYeD8=

> <OMEGA_NBR>
    187404

$$$$
50215928
  -OEChem-04172616093D

 53 56  0     1  0  0  0  0  0999 V2000
    6.7879    5.1611  -24.2569 C   0  0  0  0  0  0  0  0  0  0  0  0
    5.4614    4.7058  -24.1503 C   0  0  0  0  0  0  0  0  0  0  0  0
    7.7125    4.8909  -23.2314 C   0  0  0  0  0  0  0  0  0  0  0  0
    6.6300   -0.3906  -22.8817 C   0  0  0  0  0  0  0  0  0  0  0  0
    5.8833   -3.9685  -18.5320 C   0  0  0  0  0  0  0  0  0  0  0  0
    6.1503   -1.4044  -22.0431 C   0  0  0  0  0  0  0  0  0  0  0  0
    6.1323   -3.0383  -19.5447 C   0  0  0  0  0  0  0  0  0  0  0  0
    5.0579    3.9790  -23.0191 C   0  0  0  0  0  0  0  0  0  0  0  0
    7.3133    4.1664  -22.0957 C   0  0  0  0  0  0  0  0  0  0  0  0
    6.4519    0.9554  -22.5224 C   0  0  0  0  0  0  0  0  0  0  0  0
    4.6442   -3.9692  -17.8760 C   0  0  0  0  0  0  0  0  0  0  0  0
    5.2610    0.2735  -20.5101 C   0  0  0  0  0  0  0  0  0  0  0  0
    3.9024   -2.0817  -19.2291 C   0  0  0  0  0  0  0  0  0  0  0  0
    5.4790   -1.0661  -20.8524 C   0  0  0  0  0  0  0  0  0  0  0  0
    5.1483   -2.0917  -19.8854 C   0  0  0  0  0  0  0  0  0  0  0  0
    5.9750    3.7148  -21.9710 C   0  0  0  0  0  0  0  0  0  0  0  0
    5.7552    1.2990  -21.3302 C   0  0  0  0  0  0  0  0  0  0  0  0
    3.6312   -3.0390  -18.2388 C   0  0  0  0  0  0  0  0  0  0  0  0
    6.2857    2.9745  -19.5363 C   0  0  0  0  0  0  0  0  0  0  0  0
    4.0523    3.4087  -19.2901 C   0  0  0  0  0  0  0  0  0  0  0  0
    5.5713    2.7412  -20.8669 C   0  0  1  0  0  0  0  0  0  0  0  0
    0.5585   -4.1633  -16.5037 C   0  0  0  0  0  0  0  0  0  0  0  0
    5.5353    3.7868  -17.2735 C   0  0  0  0  0  0  0  0  0  0  0  0
    2.0372   -4.1994  -16.8747 C   0  0  0  0  0  0  0  0  0  0  0  0
    5.2845    3.2910  -18.6327 N   0  0  0  0  0  0  0  0  0  0  0  0
    4.1565    2.9617  -20.5181 N   0  3  0  0  0  0  0  0  0  0  0  0
    2.8742    3.8869  -18.7374 N   0  0  0  0  0  0  0  0  0  0  0  0
    7.4670    2.7839  -19.2671 O   0  0  0  0  0  0  0  0  0  0  0  0
    2.3712   -3.0381  -17.6698 O   0  0  0  0  0  0  0  0  0  0  0  0
    7.0974    5.7196  -25.1279 H   0  0  0  0  0  0  0  0  0  0  0  0
    4.7535    4.9152  -24.9386 H   0  0  0  0  0  0  0  0  0  0  0  0
    8.7306    5.2408  -23.3173 H   0  0  0  0  0  0  0  0  0  0  0  0
    7.1356   -0.6431  -23.8020 H   0  0  0  0  0  0  0  0  0  0  0  0
    6.6430   -4.6846  -18.2555 H   0  0  0  0  0  0  0  0  0  0  0  0
    6.2947   -2.4412  -22.3084 H   0  0  0  0  0  0  0  0  0  0  0  0
    7.0785   -3.0459  -20.0652 H   0  0  0  0  0  0  0  0  0  0  0  0
    4.0422    3.6189  -22.9469 H   0  0  0  0  0  0  0  0  0  0  0  0
    8.0283    3.9527  -21.3149 H   0  0  0  0  0  0  0  0  0  0  0  0
    6.8467    1.7358  -23.1560 H   0  0  0  0  0  0  0  0  0  0  0  0
    4.4570   -4.6830  -17.0875 H   0  0  0  0  0  0  0  0  0  0  0  0
    4.7116    0.5181  -19.6131 H   0  0  0  0  0  0  0  0  0  0  0  0
    3.1593   -1.3414  -19.4864 H   0  0  0  0  0  0  0  0  0  0  0  0
    0.3099   -5.0482  -15.8994 H   0  0  0  0  0  0  0  0  0  0  0  0
    0.3482   -3.2526  -15.9238 H   0  0  0  0  0  0  0  0  0  0  0  0
   -0.0495   -4.1628  -17.4204 H   0  0  0  0  0  0  0  0  0  0  0  0
    4.5764    3.9611  -16.7635 H   0  0  0  0  0  0  0  0  0  0  0  0
    6.1184    3.0412  -16.7131 H   0  0  0  0  0  0  0  0  0  0  0  0
    6.0994    4.7297  -17.3256 H   0  0  0  0  0  0  0  0  0  0  0  0
    2.6440   -4.2006  -15.9572 H   0  0  0  0  0  0  0  0  0  0  0  0
    2.2462   -5.1109  -17.4539 H   0  0  0  0  0  0  0  0  0  0  0  0
    3.3848    2.7941  -21.1316 H   0  0  0  0  0  0  0  0  0  0  0  0
    2.0368    3.9046  -19.2836 H   0  0  0  0  0  0  0  0  0  0  0  0
    2.8620    4.2142  -17.7926 H   0  0  0  0  0  0  0  0  0  0  0  0
  1  2  1  0  0  0  0
  1  3  2  0  0  0  0
  2  8  2  0  0  0  0
  3  9  1  0  0  0  0
  4  6  2  0  0  0  0
  4 10  1  0  0  0  0
  5  7  1  0  0  0  0
  5 11  2  0  0  0  0
  6 14  1  0  0  0  0
  7 15  2  0  0  0  0
  8 16  1  0  0  0  0
  9 16  2  0  0  0  0
 10 17  2  0  0  0  0
 11 18  1  0  0  0  0
 12 14  2  0  0  0  0
 12 17  1  0  0  0  0
 13 15  1  0  0  0  0
 13 18  2  0  0  0  0
 14 15  1  0  0  0  0
 16 21  1  0  0  0  0
 17 21  1  0  0  0  0
 18 29  1  0  0  0  0
 19 21  1  0  0  0  0
 19 25  1  0  0  0  0
 19 28  2  0  0  0  0
 20 25  1  0  0  0  0
 20 26  2  0  0  0  0
 20 27  1  0  0  0  0
 21 26  1  0  0  0  0
 22 24  1  0  0  0  0
 23 25  1  0  0  0  0
 24 29  1  0  0  0  0
  1 30  1  0  0  0  0
  2 31  1  0  0  0  0
  3 32  1  0  0  0  0
  4 33  1  0  0  0  0
  5 34  1  0  0  0  0
  6 35  1  0  0  0  0
  7 36  1  0  0  0  0
  8 37  1  0  0  0  0
  9 38  1  0  0  0  0
 10 39  1  0  0  0  0
 11 40  1  0  0  0  0
 12 41  1  0  0  0  0
 13 42  1  0  0  0  0
 22 43  1  0  0  0  0
 22 44  1  0  0  0  0
 22 45  1  0  0  0  0
 23 46  1  0  0  0  0
 23 47  1  0  0  0  0
 23 48  1  0  0  0  0
 24 49  1  0  0  0  0
 24 50  1  0  0  0  0
 26 51  1  0  0  0  0
 27 52  1  0  0  0  0
 27 53  1  0  0  0  0
M  CHG  1  26   1
M  END
> <OMEGA_C>
XTbZQBYopUAQDsLB4cOuQOmVlkDgM8HByMz2QOSBnEDb2bnBUCnUQCQByL6lDbfBp0O8QDr7fcB4
QZTBg8/EQL/Bs78+WLDBczvEQDJzQsCXW5zBFtqhQGaofkAnJ7jBwgbqQBhThUD2w7DBj3XOQEWU
dD/PLbTBIZ2UQPYGfsAFAo/BcVqoQPQIjD6nFKTBv8B5QNY6BcA41ZnBqFOvQGt1iL/C0abBG7+k
QMjdBcA7FZ/B0zK/QCS/bUCyxK/Bfyq4QIJFpj87pKrBwWVoQJp/QsD56JHBsCTJQGxdPkBLSpzB
qayBQKgnWkAtUprBakiyQB9wL0Br76bBO/gOP+o5hcCMB4TBKCGxQLhbckAnMIrBEWECQEdhhsB0
/4bB4RqpQO6fUkCsD5XB2AGFQDaNPUAJJaTBePM3QNjCeEA55pXB4vHuQBYrMkAMI5rBhMIXQARx
QsC/W43BRR7jQNgGt0D1BcnBkxyYQJpJnUBFgsfBk7ALQaK0p0DmibrBrlbkQGijJL+Rar7BIpPU
QODnlcAtC5LB8m3JQGg9HMCsd7LBKoPiQC3wQsCfhaDB/1mBQJacZ0BEk7fB5HMAQX35fED9hKrB
WBjbQHMu3j9qP7nBIaCOQG7blcAbs4jBC8WWQLCkBD+W55zBDjJKQLKzq78d5JvBIqWePu+KocD0
Y37BBUeyPiIqUMCxx37BSuxKvQk2hcDsXIvB0HGSQM2CfUCaG4bBisnDQESjQkBmtIXBay7DQBVa
l0DSmorB7zYpQKBrhsDeUH/BXsIPQJmMo8CDoYvBUKBYQGnSMkB+DanBN1oCQGfkeUDPRJrBXyo3
QGTahkAqV47BsN7OQA9NpkCIdMLBBoSmQAfpkkD/TMHBlIfuQBSBoEAYlLrBZPHaQJSgA7+sFrXB
yxFBQOTuI8DsUZLB/s/JQNWnvr/jK67BveFmQEzm3b9QB5rBkL6dQDmuc0AWQLjBbNTlQA2hh0Bn
ebHBwkLUQFIYWz8H/bLBHBVuQIkna8Bya47BmuusQNshjD6u46LBolWyQKk2S8CIfprBFs6xQACt
ir+RLaXBxKWcQA8GAsBsCZ7BIgm9QHZZaUA7JLDBxqy8QEJvoD8I0anBuCegQIm/fsD2VpLBcEbL
QK1HQ0CPgpzBuDSDQPd5VkBqJJrBiuOzQFIULUDD2abBArT7QBbHgMAf6InBMCqzQMfIckDoMIrB
vNDiQBhypcBAao/BBFOrQKX5VECiJZXBBmyGQKCzNkBKz6PBJ0c6QKD5cUDbmJXBAGrxQBDLOUBr
hZrBXvu0QMHrocAfxY3BS5XVQFuyuUARaMnBulGOQI5Pl0D5XsfB9cgGQWw1r0A2ibvBPzntQK/x
UL/qArzB9IsBQCYKFsDeY4/BCAPPQA+AIsA8va/BofJEQNViXb8D65zB5vp9QBLLVEAgdbfBa0v+
QNr1gkD7e6vBIhPhQIgHzT9EWrjBT25RQL2hicDgXIjBSbGcQF5dEj+vpJvBX87QQPBRXMD99p3B
3hYPQU3MhMALX4vBkxrxQLjAQ8D/Lo3Bp4X1QIKRgcDnPoHBUG2UQBLqe0CzDobBzlXGQGfoQkAs
34XBrJ/EQErxl0CabYrBpGvpQIJ4pMAnDpjBt9btQKgpxMAPHozB9DpbQCcmJ0B0eajBZLkDQKsp
bkDBwJnBR+w5QFbPhEDIKY7BKwXPQJgOoUCZbsPBErnuQHvPnEDPgLvB13ymQOFbjkBQ+8HBr+bb
QEpv/77LebTBV+89QGNzIsBfpJLBRkLLQDjMub+5Va3BEABqQDTmz7/0G5nB7c/lQPZkhkACB7LB
TIKdQKhob0DQjrjB3M3UQK9GXz9YorLBHsdiQJRocsBSbZDBWqmuQOJ/rD4cQKLByS+wQK66TMAr
D5vBUMezQHy8gr9eUaTBdZ6dQPDM+r9fYZ3Bgs28QFyvaEATZbDBgGu9QMJnpT8XeqnBQRuaQNBy
g8AviZTBeqDLQHmwSEDXo5zBul2DQPpkWEBrAZrBMPazQGOfL0A80qbBPJrFQF7sgMA3moDBD7Sz
QBFRcUC5EorB3E7SQE2mnsAMAorBri6sQH7GYkCqhpXB15OGQLtBOUCztqPBw7k5QOp2a0CGB5XB
GILxQJStPECmjZrBvFWuQFaLp8Bj/5DBvNfVQE+9skApqMrBK/kGQdnQqkDntbzBKVSOQIFwkUCe
HMjBoBnuQCJjUb/1XLvBNgkAQFodEsBjYo/BEWTQQKFUIMDDu67BjfhNQC9AKb9N2JrBZUP+QLrt
gkCu+6vBjT99QN2GUUC5hLfBpiHhQEx1zT9bLrjBy69AQIwkkMCRkYvBbRWfQE5dJz9k95rBFzzP
QJ0GXcDPQp7B5bnhQIkNdsAjCnfBfrS5QIirRMBryIPBy1isQP5OkMC2qHfBsbKVQCvHgkDjOobB
RAu/QCW0NUAjWYbBuwPMQDLKkUBxD4nBm7PrQOQPj8B+sY7B6FfeQB0JvcBtvYbB5mxbQDMYKkAQ
YajBQ3wCQDiRYUAL4JjB5nA5QFeOgUB6mI3B1OrKQLohokDvzsPBCrbtQCjFkEDUJ77BzwWhQN+E
nECI77/BmhPpQGQ3FL9jNLHBPBWZQIoNi8Aq8pTBJfPSQKA1xb8bPqvBe7+vQIDQV8BiuZrBWqDm
QH+8dEB4kLTB2K2ZQJVchEB6nbbBEJPfQGc/SD8M7a/B9dFcQPCWg8Bm7ZHB/4WqQH0ybD5tZKLB
z5thQApG9r/PgZrBqWezQHM0kr9x0KPBL7ybQCj7CcD+lp3Bbnm8QA8TZUDN0LDBb5m/QHZymz87
lqjBKEY0QOu/OMCUkJTBj8fMQI75UEA8FZ3BwI+EQB2NW0BE7JnBS720QFt9LUClwKbBU1ruP8ci
K8CE7nvBI2+2QMdUiUAcb4vBPMmDP1QSSsBRpIfBRZetQK32cECYN5bBr3GHQLq4NUD/SaPBQEU8
QC20a0CorpTBPpTzQCwBUkAfnpvBII7BP8fFJcD9opHBAFfQQBLCs0COHcvBne0GQfKilEB6LcHB
z2aGQI/NqkCqIcTBqsEAQXK3Yr/bzLbBpHeoQO/NqMAA0ZLBZQTaQNu0JcB+U6zB7pfQQFBlY8AN
/ZzBD9AAQXzsXUB7/K/BL6hyQAupfkAU2bPBvc3wQD/swT9dlrTBUfA5QIvUm8AVlI3B50STQFnb
CD82e5zB+pZCQMj5f78GvJzBQqO7P0X2R8DcLW3BpVc6QJtrPsBZEX7Bj5zmP+n8yb8wx3rBEVaY
QJDjk0AztofBlgjFQLUkYECwgobBbIzMQD+dpEDrBozBALiLP94giMAIHojBnq6WvJXUNsDzeIbB
J7pcQMEfIUDRiafBu98EQPw5WkBcCpjBhWo8QJRlhEBxjo3B0EPbQMExqECBmsHBAiawQNGWm0Au
wcDBzTP5QEWHmkCg67nBSTPJQEAgDb8vxLbBgeWCQP+BisBkjpjBxKy8QBJkwr/7PK/B20+PQAd6
WMBZSaDBA8eiQLzSgUDOJLjBcwTsQGKpgEBmUrHB9zDGQF88UT9kSLTB01iHQKQsgcC8l43BxrOp
QDhKgj7CtKLBnmmkQIBA7L+AD5LBleKsQHCOj7/2IKXByPyfQHtSCMBQFZ3BqWHAQLfUaUD3KrDB
0mu2QOwQnj/KKarBE5mYQEJVM8AMQ4rBiE7JQCk0QUCLk5zBXvGBQA0jX0B5eJrBZvexQG7uLUCM
FafB4z7LQGz58b8tP2HB6JWyQOefeUC8g4rBbpK+QGDd0L86j3jBPNGqQPQMZUDq2ZXB992EQMTq
P0AbOaTBV043QNGXdkAJnpXBWKbuQHFwMUALR5rBx56dQJUPJcCsxX7BJ13lQFpavEDPJsjBBEqZ
QK20pUB8uMbBBiwNQXnpo0BhoLrB1i3VQMIVXL9qfL7BpNlrQH/3qMA1CZvBRh6/QBheJMBgLrHB
FBqMQFw+Z8BVsKjBl8SBQPehb0APm7fByKIBQQ9Oa0CkjavB4+3PQPQKxz/MGrrBTfd6QIdtmMAi
sofBSVSdQLh+Dz/xBJvB2PCwQNZ8Y79akY/BrjbkQByAlr/yblzBmQ+vQIf24b8e5VbBp47XQDWj
OsD4ql/BzW6VQL2iikAD/4bBCza7QFbiPkB7K4bB7OzMQLQJlEBQ6YnBYTiyQMVJG7/tKXrBb7fa
QMX04L/jd4HBCNNXQJSvNUCaEKnBJhIAQN0ccECGk5nB+Xk3QED4hkArK47B

> <OMEGA_E>
zJS4Prygzj7A+Ns+CAURP+JyAj8=

> <OMEGA_NBR>
    192133

$$$$
50215972
  -OEChem-04172616093D

 39 41  0     1  0  0  0  0  0999 V2000
    6.5914    5.3684  -24.1814 C   0  0  0  0  0  0  0  0  0  0  0  0
    5.3241    4.7604  -24.1231 C   0  0  0  0  0  0  0  0  0  0  0  0
    7.5437    5.1067  -23.1799 C   0  0  0  0  0  0  0  0  0  0  0  0
    6.7339   -0.5710  -22.6144 C   0  0  0  0  0  0  0  0  0  0  0  0
    5.0035    3.8987  -23.0584 C   0  0  0  0  0  0  0  0  0  0  0  0
    7.2279    4.2463  -22.1129 C   0  0  0  0  0  0  0  0  0  0  0  0
    6.5117    0.7966  -22.3668 C   0  0  0  0  0  0  0  0  0  0  0  0
    6.2204   -1.5448  -21.7362 C   0  0  0  0  0  0  0  0  0  0  0  0
    5.2439    0.2133  -20.3617 C   0  0  0  0  0  0  0  0  0  0  0  0
    5.9420    3.6503  -22.0250 C   0  0  0  0  0  0  0  0  0  0  0  0
    5.7573    1.2035  -21.2383 C   0  0  0  0  0  0  0  0  0  0  0  0
    5.4629   -1.1559  -20.6123 C   0  0  0  0  0  0  0  0  0  0  0  0
    6.3162    2.9890  -19.5872 C   0  0  0  0  0  0  0  0  0  0  0  0
    4.0893    3.4344  -19.3092 C   0  0  0  0  0  0  0  0  0  0  0  0
    5.5730    2.6851  -20.8822 C   0  0  1  0  0  0  0  0  0  0  0  0
    4.9671   -2.1971  -19.6267 C   0  0  0  0  0  0  0  0  0  0  0  0
    5.6208    3.8963  -17.3448 C   0  0  0  0  0  0  0  0  0  0  0  0
    5.3392    3.3591  -18.6808 N   0  0  0  0  0  0  0  0  0  0  0  0
    4.1665    2.9265  -20.5152 N   0  3  0  0  0  0  0  0  0  0  0  0
    2.9208    3.9211  -18.7443 N   0  0  0  0  0  0  0  0  0  0  0  0
    7.5008    2.7919  -19.3371 O   0  0  0  0  0  0  0  0  0  0  0  0
    6.8331    6.0361  -24.9951 H   0  0  0  0  0  0  0  0  0  0  0  0
    4.5963    4.9554  -24.8968 H   0  0  0  0  0  0  0  0  0  0  0  0
    8.5193    5.5674  -23.2302 H   0  0  0  0  0  0  0  0  0  0  0  0
    7.3009   -0.8750  -23.4819 H   0  0  0  0  0  0  0  0  0  0  0  0
    4.0347    3.4224  -23.0279 H   0  0  0  0  0  0  0  0  0  0  0  0
    7.9686    4.0374  -21.3552 H   0  0  0  0  0  0  0  0  0  0  0  0
    6.9175    1.5382  -23.0389 H   0  0  0  0  0  0  0  0  0  0  0  0
    6.4072   -2.5918  -21.9239 H   0  0  0  0  0  0  0  0  0  0  0  0
    4.6783    0.5126  -19.4917 H   0  0  0  0  0  0  0  0  0  0  0  0
    5.7349   -2.3704  -18.8583 H   0  0  0  0  0  0  0  0  0  0  0  0
    4.0439   -1.8384  -19.1480 H   0  0  0  0  0  0  0  0  0  0  0  0
    4.7624   -3.1377  -20.1591 H   0  0  0  0  0  0  0  0  0  0  0  0
    4.6737    4.1095  -16.8276 H   0  0  0  0  0  0  0  0  0  0  0  0
    6.1961    3.1582  -16.7667 H   0  0  0  0  0  0  0  0  0  0  0  0
    6.2042    4.8242  -17.4384 H   0  0  0  0  0  0  0  0  0  0  0  0
    3.3816    2.7305  -21.1032 H   0  0  0  0  0  0  0  0  0  0  0  0
    2.0666    3.8973  -19.2638 H   0  0  0  0  0  0  0  0  0  0  0  0
    2.9319    4.2960  -17.8173 H   0  0  0  0  0  0  0  0  0  0  0  0
  1  2  1  0  0  0  0
  1  3  2  0  0  0  0
  2  5  2  0  0  0  0
  3  6  1  0  0  0  0
  4  7  1  0  0  0  0
  4  8  2  0  0  0  0
  5 10  1  0  0  0  0
  6 10  2  0  0  0  0
  7 11  2  0  0  0  0
  8 12  1  0  0  0  0
  9 11  1  0  0  0  0
  9 12  2  0  0  0  0
 10 15  1  0  0  0  0
 11 15  1  0  0  0  0
 12 16  1  0  0  0  0
 13 15  1  0  0  0  0
 13 18  1  0  0  0  0
 13 21  2  0  0  0  0
 14 18  1  0  0  0  0
 14 19  2  0  0  0  0
 14 20  1  0  0  0  0
 15 19  1  0  0  0  0
 17 18  1  0  0  0  0
  1 22  1  0  0  0  0
  2 23  1  0  0  0  0
  3 24  1  0  0  0  0
  4 25  1  0  0  0  0
  5 26  1  0  0  0  0
  6 27  1  0  0  0  0
  7 28  1  0  0  0  0
  8 29  1  0  0  0  0
  9 30  1  0  0  0  0
 16 31  1  0  0  0  0
 16 32  1  0  0  0  0
 16 33  1  0  0  0  0
 17 34  1  0  0  0  0
 17 35  1  0  0  0  0
 17 36  1  0  0  0  0
 19 37  1  0  0  0  0
 20 38  1  0  0  0  0
 20 39  1  0  0  0  0
M  CHG  1  19   1
M  END
> <OMEGA_C>
xezSQBfKq0Bwc8HBxF6qQM1UmEAU/MDBCGbxQHtqo0BdcLnBenzXQL0uEr9U6rTB3xygQBSEeUCX
d7jBukrnQGLhh0Aq57DBJWDQQBnrSz8t77LBoA3HQJ+7xb+7463B482nQJF2Wj7B5KLBsSS+QMue
aUA6M7DBkzu4QBIMmj8M6KnB+M+uQOz1k78U5qTBmx7KQCVLP0CfspzBnduCQGfMW0AoeZrBXFay
QJjYK0CwDqfBK/KeQFadDMB5A53BhN2zQJhdeUA3worBVtqqQAz8VkA5cpXBk1OFQDpLO0AxH6TB
5u06QPryekBg9JXBRgbwQO6uMkBfsprBgajaQPonwUD29cfBvRSTQHqSnkC4LMfB4U4IQdYnskBr
17nB0qDpQOQBYL/72rvBGhyBQEYJW0AUObjBnP7+QEYygUBh16rBG1zdQPLixD+0T7jBKAjNQCXg
JcA7ZK/BvbSVQLc5Az/n7pvBUIS3QCq0F8DX3ZbBuGeBQINQ678qL5nB9mWYQBTQSMDARaHBpo6V
QKyAg0DsnobBXUbGQOUfSkBNIobBrYjGQLpfmkDLgYvBuGxYQOvALkBJ06jB20MEQMhteUBaHJrB
HaQ7QJh4iUDgiY7B

> <OMEGA_E>
gPUCPw==

> <OMEGA_NBR>
    193091

$$$$
50215980
  -OEChem-04172616093D

 45 48  0     1  0  0  0  0  0999 V2000
    6.6154    5.2508  -24.2412 C   0  0  0  0  0  0  0  0  0  0  0  0
    7.5761    4.9922  -23.2467 C   0  0  0  0  0  0  0  0  0  0  0  0
    5.3269    4.6963  -24.1375 C   0  0  0  0  0  0  0  0  0  0  0  0
    6.7009   -0.5590  -22.6550 C   0  0  0  0  0  0  0  0  0  0  0  0
    5.2454   -4.0458  -18.2446 C   0  0  0  0  0  0  0  0  0  0  0  0
    6.2090   -1.5296  -21.7623 C   0  0  0  0  0  0  0  0  0  0  0  0
    5.7756   -3.1586  -19.1941 C   0  0  0  0  0  0  0  0  0  0  0  0
    7.2489    4.1864  -22.1420 C   0  0  0  0  0  0  0  0  0  0  0  0
    4.9950    3.8898  -23.0357 C   0  0  0  0  0  0  0  0  0  0  0  0
    6.4961    0.8102  -22.3964 C   0  0  0  0  0  0  0  0  0  0  0  0
    5.2701    0.2341  -20.3701 C   0  0  0  0  0  0  0  0  0  0  0  0
    3.9127   -3.8791  -17.8115 C   0  0  0  0  0  0  0  0  0  0  0  0
    3.6344   -2.0019  -19.1863 C   0  0  0  0  0  0  0  0  0  0  0  0
    5.4830   -1.1302  -20.6210 C   0  0  0  0  0  0  0  0  0  0  0  0
    4.9588   -2.1167  -19.6695 C   0  0  0  0  0  0  0  0  0  0  0  0
    5.9445    3.6443  -22.0118 C   0  0  0  0  0  0  0  0  0  0  0  0
    5.7772    1.2177  -21.2431 C   0  0  0  0  0  0  0  0  0  0  0  0
    6.3153    2.9892  -19.5619 C   0  0  0  0  0  0  0  0  0  0  0  0
    4.0776    3.3690  -19.2827 C   0  0  0  0  0  0  0  0  0  0  0  0
    5.5836    2.6881  -20.8680 C   0  0  1  0  0  0  0  0  0  0  0  0
    5.5807    3.7992  -17.2946 C   0  0  0  0  0  0  0  0  0  0  0  0
    3.1331   -2.8771  -18.2849 N   0  0  0  0  0  0  0  0  0  0  0  0
    5.3213    3.2838  -18.6438 N   0  0  0  0  0  0  0  0  0  0  0  0
    4.1715    2.9052  -20.5048 N   0  3  0  0  0  0  0  0  0  0  0  0
    2.9004    3.8341  -18.7181 N   0  0  0  0  0  0  0  0  0  0  0  0
    7.5084    2.8498  -19.3143 O   0  0  0  0  0  0  0  0  0  0  0  0
    6.8674    5.8758  -25.0851 H   0  0  0  0  0  0  0  0  0  0  0  0
    8.5670    5.4135  -23.3319 H   0  0  0  0  0  0  0  0  0  0  0  0
    4.5924    4.8904  -24.9051 H   0  0  0  0  0  0  0  0  0  0  0  0
    7.2371   -0.8651  -23.5411 H   0  0  0  0  0  0  0  0  0  0  0  0
    5.8511   -4.8479  -17.8494 H   0  0  0  0  0  0  0  0  0  0  0  0
    6.3871   -2.5780  -21.9508 H   0  0  0  0  0  0  0  0  0  0  0  0
    6.7882   -3.2734  -19.5518 H   0  0  0  0  0  0  0  0  0  0  0  0
    7.9945    3.9791  -21.3887 H   0  0  0  0  0  0  0  0  0  0  0  0
    4.0093    3.4537  -22.9683 H   0  0  0  0  0  0  0  0  0  0  0  0
    6.8871    1.5515  -23.0774 H   0  0  0  0  0  0  0  0  0  0  0  0
    4.7104    0.5343  -19.4966 H   0  0  0  0  0  0  0  0  0  0  0  0
    3.5045   -4.5665  -17.0854 H   0  0  0  0  0  0  0  0  0  0  0  0
    3.0094   -1.1975  -19.5451 H   0  0  0  0  0  0  0  0  0  0  0  0
    4.6261    3.9493  -16.7690 H   0  0  0  0  0  0  0  0  0  0  0  0
    6.1957    3.0766  -16.7381 H   0  0  0  0  0  0  0  0  0  0  0  0
    6.1151    4.7580  -17.3649 H   0  0  0  0  0  0  0  0  0  0  0  0
    3.3939    2.7240  -21.1069 H   0  0  0  0  0  0  0  0  0  0  0  0
    2.0540    3.8284  -19.2507 H   0  0  0  0  0  0  0  0  0  0  0  0
    2.8974    4.1755  -17.7782 H   0  0  0  0  0  0  0  0  0  0  0  0
  1  2  1  0  0  0  0
  1  3  2  0  0  0  0
  2  8  2  0  0  0  0
  3  9  1  0  0  0  0
  4  6  1  0  0  0  0
  4 10  2  0  0  0  0
  5  7  2  0  0  0  0
  5 12  1  0  0  0  0
  6 14  2  0  0  0  0
  7 15  1  0  0  0  0
  8 16  1  0  0  0  0
  9 16  2  0  0  0  0
 10 17  1  0  0  0  0
 11 14  1  0  0  0  0
 11 17  2  0  0  0  0
 12 22  2  0  0  0  0
 13 15  2  0  0  0  0
 13 22  1  0  0  0  0
 14 15  1  0  0  0  0
 16 20  1  0  0  0  0
 17 20  1  0  0  0  0
 18 20  1  0  0  0  0
 18 23  1  0  0  0  0
 18 26  2  0  0  0  0
 19 23  1  0  0  0  0
 19 24  2  0  0  0  0
 19 25  1  0  0  0  0
 20 24  1  0  0  0  0
 21 23  1  0  0  0  0
  1 27  1  0  0  0  0
  2 28  1  0  0  0  0
  3 29  1  0  0  0  0
  4 30  1  0  0  0  0
  5 31  1  0  0  0  0
  6 32  1  0  0  0  0
  7 33  1  0  0  0  0
  8 34  1  0  0  0  0
  9 35  1  0  0  0  0
 10 36  1  0  0  0  0
 11 37  1  0  0  0  0
 12 38  1  0  0  0  0
 13 39  1  0  0  0  0
 21 40  1  0  0  0  0
 21 41  1  0  0  0  0
 21 42  1  0  0  0  0
 24 43  1  0  0  0  0
 25 44  1  0  0  0  0
 25 45  1  0  0  0  0
M  CHG  1  24   1
M  END
> <OMEGA_C>
QLHTQKIGqEDj7cHBxm/yQEfAn0Al+bnB9nWqQMFHlkCTGcHB/23WQDoZD79oPbXB6tmnQC13gcDm
9JHBRLDGQO3Iw78nGa7BwdG4QDYnSsCQjZnB5vbnQFD3hUDWIrHB8tafQHLyeEAOSbjB99/PQARm
Tz+7K7PB3qSoQHitbz7p9aLB1Gl6QORCeMD2fY7BCJpoQJofAMCcfZnBInWvQNOokL+196TBFa6e
QCZ4B8AlW53BFjm+QLo8aUAfGLDBNt+4QKbdmz/38anBphbKQKJOP0DEfpzB4HuCQPacV0AKQ5rB
wqyyQA4JLEC78abBNpWyQK4lc0BFW4rB6INIQMQiOMBtR5LBTUiqQDgpUkCOJpXBwnyFQE7vOUDq
CaTBJKA5QExidUDDvpXBuETwQHxjNkCag5rBkMHbQGcGvEBersjBPBIJQQc7rUCrp7rBmPSSQAB+
nECPPcfBppbnQFR3Xb8hVLzB/Tu7QMkhm8CNy47B+2LMQGj9JMBUm6/BqDjZQKp+UcAqapzBtdL/
QIapfkABHKvB0kuAQEYJXUALv7fBOGPcQA+Yxj+ZnrjBUbuWQOHECD8K+ZvBq0lgQPIgksD0rojB
VppAQJ9Imb9wXJzBBQmUQJvBfEABJ4bBikPGQOvmRECz54XBPq/DQOpBmEBn64rB6TRZQGVWLkDp
2qjBZnUDQIMEdUB+AZrB2245QHGdhUDHOY7BcHnUQGCbqEDd2sHBdCCrQJgSl0B/GsHB2P/yQAUH
oEBI3bnBD4zWQAI7DL8oP7XBGCKoQMAvgcDdBZLBs8HGQO9hwr8pHq7BXNa4QBmmScAZqZnB9zag
QHcgekB0WbjBVDDoQLonhkBbEbHBYMLPQPwUUj8iNbPBUf2nQARieT58FaPBMkV7QEGUd8AudI7B
uspoQI69/r93bJnBfiuvQOppj781CqXBuJmeQOThBsDqZp3BZ1u+QPLjaUC5HrDBh1y4QPcgnT8E
C6rBTtnJQNESP0AijJzBxjmCQOfOV0DjRprBC2ayQCGsLECWAqfBuH2yQHagckCwXorBATRJQBlS
N8CqK5LBoR2qQHOHUkBFNJXB/kSFQGyMO0DuHqTB18A4QMVsc0DZopXBhNPvQMaSM0Amh5rBaszc
QMmtvEDPksjB98KTQGeanUC/QcfBuGUJQfZWrUAbfbrBCe3nQMNrWr/GTbzBpZq7QCDhmsCs6I7B
c6/MQCVBJMAfmK/B5x7ZQO8VUcDimZzBsaGAQMxOXkD74rfB19j/QIG0fkDnAKvB/WXcQJL8xz9v
orjBOq+VQMT1Cj9SKJzB8YJhQNXKkcDrnojBGahAQKubl794PZzBjPOTQIHwfEAxMIbBUbzFQBqE
Q0Do8IXBlRPEQDy+l0Dg24rByNFYQGJ4MUCA/6jB5l4CQK2BckAz2pnBjIc4QO4hhEB7Eo7BClHW
QP58p0DTx8HBTb30QCBqnUCr4LnB2TysQJbgl0CR7cDBMrfRQIpQDr+XpbXBXr5RQMS0PsC6DZHB
EobCQOsJw7/Cba7BUh9rQM5qAMDyfJjBCBnpQIj/g0DMELHBoXigQMq4fECgJrjBtl3MQJwTUD8b
arPBxAmnQCbmeD6i5aLBal6FQNW+gMCPbI7BkCO5QDZ6TMA6RZrBjhutQATWj7+dBqXBe0SeQIa+
B8D4PZ3Bf4m+QMaSaUCa/6/Bb9y2QGzDnD9s+anBVCvJQGCIPkBBa5zBuwKCQHAOXEBDW5rBRcOx
QPaqLEAc6abBFgayQL6BdECyWYrB0KWsQLGgg8Ch9ZLBFn2pQBDdU0B+JpXBprOEQOjEPEAKEKTB
1rY5QL52fUDK95XBaSLvQBJSM0BBXZrB/0bfQHY6u0BlgsjBVowKQeE5qUCtlLrBYPWUQHeBn0DA
BcfBEIjhQB0kXb9h7LzB4j8TQBeQO8AdYo3B+z/HQPOyJMA5FbDB7yRBQCbyl7/ihZrBzFcAQWcE
eEBBE6vBA0qAQGHmY0BDnLfBq6vYQIq/xj+757jBpBSWQH2YCz90xJvBJkx3QJ+UmMCrqIjBUFfY
QEc6UsBM6p3BL4iTQFs3gEDSNobBWbTEQOb6REBB14XB0T7EQC9KmEBX5orBJnFXQG1tMUBx26jB
yMgDQOWtfkDcRZrBogk6QLAsikA6f47BJFDWQL6yqEAfvcHBfmisQJB4mEDNCcHBJH70QNLtnkDM
v7nBp9PSQF2TC7/mlLXBuudSQCjMPcA7G5HBwdvDQJxvwb/5UK7Buj5sQBQlAMBhn5jBQJegQKcW
fUDwVrjBBczoQEIbhUAJBLHBad3MQGzlUj89dLPB/16nQFYwhD7Z86LBRFeGQJYpf8DEM47B2Ya6
QHzWScAe65nBugauQAbujb/X+qTBUj+fQGaJBsASKZ3BIXK+QP5jakCVIbDB7fy2QE1knj8AE6rB
tHHJQKQ0QEAXrZzBaYuCQN1XYECXkZrB4LmxQMiGLUCgD6fBk/OyQMuxdkBxm4rBIACuQKQOgsBy
i5LB3HirQETAZUCHAZbBxtyEQKMsPkAnIqTBRDk5QB32eUDLypXB2hXuQExnK0D3S5rBClTfQESu
vEAIa8jBC1CVQFbxn0A1MMfBwlcKQfdIq0CzU7rBgvDiQIbRWr8a0LzB4tkTQE5AO8DQlI3B+BLJ
QOviI8Al4q/BwZRBQPS1mb/S4ZrB55CAQJdVY0BS6LfBsRUAQbO0ekAe9KrBJvzYQIgAyD8W+7jB
8x+WQGTMDz+y3pvBVD55QDoxl8AsYYjBUw7aQE3iTsBkZp3BQF2WQP9eikA4G4fBHJy5QJ4VOkCY
c4bBPn/OQDz5kEBquInBdFJXQIo6MUBVyqjBWroBQFDEckCUrJnBwv45QE3RiUD3do7BOiKIQHhA
gUCK94/BrF+0QGuhckDzuZDBlwVbQOEedEBC3ZjBL7LQQAA9gL89KLjBwnGOQPCCD8CVm4rBMUbA
QOGR4r9hrK/BGnCfQJHyub8m3JLBmifGQKygVUCLbJrBJjl+QDXfVkBGj6LBPDjQQBYVzj7AkrfB
psWuQMJojD4m+aXBc+F4QMvEX8D3Go3Bw4GLQPZyTcCTWJ/BhVGvQNl5kb8lfKbBcQeeQF4l+L9r
eZ3BaOKrQFRySUCgj6PB1yC/QKZghz+Efa7B7JapQJ4aTECa57fBKo3vQHBQeEB4dbfBBVO/QF8X
JkAVB67Bma3BQJx6lkDQ5sbBWml2QBtUfcDOSZfBuLrHQAvlgEAsirzBt9jrQOq1REBaMq/BjNAK
QV+Yj0BjibrBQbiFQBZVPEB4X7vBrEd1QCLajEBsj4jB9LjIQDG3fECH24nBawcXQMWLf0B3QJjB
KrTdQBbuvr8mI7/BoSePQIFO8r8mb4LBJZzAQOlINsDwLLDBDGGtQHwc+r6yIJHB9QjoQIuOSEBu
6ZrBcMdUQIeFSkC7TKnBr/7cQKlWfD88G77BR7WhQLRIQz+O/p7BxaZeQGJMg8DxwIbBzlqKQPH4
ZcA1a6fBcCLeQILQqUA3w8jBRfa8QEq6fEDkM83B4GelQI1hq0Bse8bBo/kBQcJaNEAiWarB1TYY
QXZEikBnX7bB9BsLQXnnokAZ6sDB

> <OMEGA_E>
QCn2PUDS9j1g7qQ+xF6oPrjAhz8=

> <OMEGA_NBR>
    197308

$$$$
50215985
  -OEChem-04172616093D

 43 46  0     1  0  0  0  0  0999 V2000
    6.6828   -0.5541  -22.6601 C   0  0  0  0  0  0  0  0  0  0  0  0
    3.1046   -2.8136  -18.2060 C   0  0  0  0  0  0  0  0  0  0  0  0
    6.1742   -1.5054  -21.7595 C   0  0  0  0  0  0  0  0  0  0  0  0
    3.6092   -1.8970  -19.1471 C   0  0  0  0  0  0  0  0  0  0  0  0
    6.4988    0.8236  -22.4274 C   0  0  0  0  0  0  0  0  0  0  0  0
    3.9111   -3.8764  -17.7561 C   0  0  0  0  0  0  0  0  0  0  0  0
    5.2565    0.2946  -20.4074 C   0  0  0  0  0  0  0  0  0  0  0  0
    5.7168   -3.1311  -19.2199 C   0  0  0  0  0  0  0  0  0  0  0  0
    5.4519   -1.0801  -20.6288 C   0  0  0  0  0  0  0  0  0  0  0  0
    4.9167   -2.0546  -19.6622 C   0  0  0  0  0  0  0  0  0  0  0  0
    5.7778    1.2742  -21.2918 C   0  0  0  0  0  0  0  0  0  0  0  0
    5.2186   -4.0302  -18.2576 C   0  0  0  0  0  0  0  0  0  0  0  0
    6.3143    2.9601  -19.5556 C   0  0  0  0  0  0  0  0  0  0  0  0
    4.0747    3.3356  -19.2763 C   0  0  0  0  0  0  0  0  0  0  0  0
    7.2002    4.0722  -22.6726 C   0  0  0  0  0  0  0  0  0  0  0  0
    5.8033    3.9220  -23.3304 C   0  0  0  0  0  0  0  0  0  0  0  0
    5.9422    3.9744  -21.8087 C   0  0  0  0  0  0  0  0  0  0  0  0
    5.5979    2.7602  -20.8750 C   0  0  1  0  0  0  0  0  0  0  0  0
    5.5690    3.6911  -17.2630 C   0  0  0  0  0  0  0  0  0  0  0  0
    5.3160    3.2229  -18.6308 N   0  0  0  0  0  0  0  0  0  0  0  0
    4.1829    2.9485  -20.5261 N   0  3  0  0  0  0  0  0  0  0  0  0
    2.8916    3.7639  -18.6949 N   0  0  0  0  0  0  0  0  0  0  0  0
    7.5214    2.8826  -19.3544 O   0  0  0  0  0  0  0  0  0  0  0  0
    6.2264   -5.3300  -17.6775 Cl  0  0  0  0  0  0  0  0  0  0  0  0
    7.2195   -0.8817  -23.5382 H   0  0  0  0  0  0  0  0  0  0  0  0
    2.0988   -2.7017  -17.8289 H   0  0  0  0  0  0  0  0  0  0  0  0
    6.3369   -2.5586  -21.9343 H   0  0  0  0  0  0  0  0  0  0  0  0
    2.9964   -1.0710  -19.4767 H   0  0  0  0  0  0  0  0  0  0  0  0
    6.9104    1.5429  -23.1199 H   0  0  0  0  0  0  0  0  0  0  0  0
    3.5272   -4.5740  -17.0265 H   0  0  0  0  0  0  0  0  0  0  0  0
    4.6950    0.6132  -19.5417 H   0  0  0  0  0  0  0  0  0  0  0  0
    6.7111   -3.2647  -19.6198 H   0  0  0  0  0  0  0  0  0  0  0  0
    7.9158    3.2372  -22.7012 H   0  0  0  0  0  0  0  0  0  0  0  0
    7.7452    5.0248  -22.7472 H   0  0  0  0  0  0  0  0  0  0  0  0
    5.3554    4.7678  -23.8726 H   0  0  0  0  0  0  0  0  0  0  0  0
    5.5259    2.9802  -23.8265 H   0  0  0  0  0  0  0  0  0  0  0  0
    5.6356    4.9390  -21.3780 H   0  0  0  0  0  0  0  0  0  0  0  0
    4.6119    3.8227  -16.7370 H   0  0  0  0  0  0  0  0  0  0  0  0
    6.1817    2.9497  -16.7292 H   0  0  0  0  0  0  0  0  0  0  0  0
    6.1034    4.6520  -17.2975 H   0  0  0  0  0  0  0  0  0  0  0  0
    3.4147    2.8031  -21.1496 H   0  0  0  0  0  0  0  0  0  0  0  0
    2.0503    3.7914  -19.2348 H   0  0  0  0  0  0  0  0  0  0  0  0
    2.8793    4.0455  -17.7354 H   0  0  0  0  0  0  0  0  0  0  0  0
  1  3  1  0  0  0  0
  1  5  2  0  0  0  0
  2  4  2  0  0  0  0
  2  6  1  0  0  0  0
  3  9  2  0  0  0  0
  4 10  1  0  0  0  0
  5 11  1  0  0  0  0
  6 12  2  0  0  0  0
  7  9  1  0  0  0  0
  7 11  2  0  0  0  0
  8 10  2  0  0  0  0
  8 12  1  0  0  0  0
  9 10  1  0  0  0  0
 11 18  1  0  0  0  0
 12 24  1  0  0  0  0
 13 18  1  0  0  0  0
 13 20  1  0  0  0  0
 13 23  2  0  0  0  0
 14 20  1  0  0  0  0
 14 21  2  0  0  0  0
 14 22  1  0  0  0  0
 15 16  1  0  0  0  0
 15 17  1  0  0  0  0
 16 17  1  0  0  0  0
 17 18  1  0  0  0  0
 18 21  1  0  0  0  0
 19 20  1  0  0  0  0
  1 25  1  0  0  0  0
  2 26  1  0  0  0  0
  3 27  1  0  0  0  0
  4 28  1  0  0  0  0
  5 29  1  0  0  0  0
  6 30  1  0  0  0  0
  7 31  1  0  0  0  0
  8 32  1  0  0  0  0
 15 33  1  0  0  0  0
 15 34  1  0  0  0  0
 16 35  1  0  0  0  0
 16 36  1  0  0  0  0
 17 37  1  0  0  0  0
 19 38  1  0  0  0  0
 19 39  1  0  0  0  0
 19 40  1  0  0  0  0
 21 41  1  0  0  0  0
 22 42  1  0  0  0  0
 22 43  1  0  0  0  0
M  CHG  1  21   1
M  END
> <OMEGA_C>
z9nVQLDZDb/jR7XBWrJGQGYRNMDopZHB+5LFQIivwL90E67Bzv1mQNvP8r8+LZnB+/XPQFjVUj9P
a7PB6k56QAgXeMCQDI7BNDWoQFbRlj51QqPB6e+2QPdjSMBKwpnBCnauQAhAir/IB6XB6lWdQA1/
A8A6TJ3BcuO4QAIYoz+iVarB0P6mQBb3gMCOD5LB4Q7KQL9xPUDIcZzBn2OCQL95VUDzNZrBQmjm
QFNPgkCFYbXBSbS5QK8Be0CgpLrBGya+QHdcfkBJeK7BJCKzQEunMEDo/6bB9DSyQCM7bECuGorB
kxyqQINDTkDOC5XBPNqFQMG0PECONaTBUA85QDHkcEAXj5XBM6/wQPV7OEDd1ZrBYD7HQCuPqsCe
a43BBAbnQCW0Yb9OTrzBFVMGQBrpLMCJoY7BhMfKQLTAI8Beea/B4MQ/QPoXib9a0JvB5iHdQPB8
xT+T9bjBnL1hQAheksAsNojBIz2WQIj7HD9gVZzB+cDWQDzxUMBr9ZzB1U39QCYuT0D2m7XBwdj3
QPvKoEAw+rXBHF+rQOyRmED/+r7BMNSwQAe8PkDEnL7B6Fa0QFQMnkAVBqvBc5STQLGmdEB05YXB
QtDFQEDIPEB51YXBwE7DQNbclEBKYYrBYopaQKBmM0B2MqnBYjgDQPOlckDt4JnB/UU4QOV0gUAg
4o3B51HVQK+oDr9DYrXBCE2nQM24gsBlWpLBAPTFQHCfwb/HFq7BVKy3QBvVSsDh35nBES7PQL2r
UT/ufrPBQiR7QN/uesAwSo7BAAOpQAuBjz4/IKPBrqtpQEb387+ADZnBRH+vQPbdi79Z7aTBsYee
QOuPBMCWNp3BhMm4QGm8oT/mSKrB5IxIQP50NcC4s5HBNbzJQNzXPECfZJzB8UeCQMN+VkAvK5rB
/FjlQO4YgkANXLXBIXm4QKPjekAUi7rBeVC9QEHAfUAkYa7BPaayQMzOL0AH7abBoDayQPF9bEDj
EYrBM+SpQPUCTkDM+pTBTGCFQPMxO0CGEqTBJtE5QP6odUBLo5XBzGrwQPOhOECI1ZrB7rjAPw46
KcDq7IzBufrlQOJgYb+rf7zBQcC6QAw+ncDRso/BfVrLQNkhJMD8ga/B9XLXQCOaU8AeF53BCaLb
QGRWxT96HLnBX/RhQC8QlMCAj4jBEI6XQMwhGD/hGpzB2EBDQIMUiL/yhpvB1DT8QPy2TkArqrXB
l832QKKSoEBz87XBEwmqQPqcmECT0b7BUHCvQK3LPkBLiL7BdqSzQDGunUDj36rBTayTQEUldUCD
1IXBleTFQNM5PUDxyYXBA1PDQAj6lECraYrBQUZZQDzZL0DI8ajBNx4EQApZeEA0+pnBbJk5QPy5
hEC1B47BsEnZQNvWIL+1JLXBR2ClQFrKhcD4HJPB+QXJQJhEx78Gva3Buna1QEtBUcDwsprBXxDQ
QIOePT8yBbTBwrx8QDXUesDJ343BjpWmQN6Kgz7y+aPBK6ZuQMZ66r+0zpfBGpavQNs+j7/hD6XB
6peeQHRzBcA4HZ3Bb8S1QM4RmT9viqvBl7lOQEeiL8BAOZDBBSipQJbZWUBQ6rTBp73hQInPiEA4
fqvBIWqEQEIyQEAuTZfBsK53QKAHiUBPyJ3BtdKCQOqpPEDom6PBKpesQN15LED7LKrBRLrUQN8v
pkA4LL7BBrfIQCZAjECuzbTBXiXSQLqkVUCaNaXBnrICQRGRoUD3DKnBIvGPQBC0SUCFKbzB0Hzb
PwfFGsDSxonBBu3sQEW9d7/CtrvB9/u2QJ6josAET5HB7fvPQJfqJsBKrq7BhGTTQDtmXsDdsZ7B
AR7dQJWUuT8rqbnBtjFkQBDSk8AgDojBjsuTQMdKGT+lQp3BsRpLQFbbbr/QmJnB5xOjQDD3N0Cu
GpPBfzBVQGcXI0DajZLBSsU3QDjIl0BxqZ3BTV6UQB04okBFNp7Blp9LQI5gH0CT/abB627uQPmE
vECA8bvBI/3fQEcIkUBCnsTB37m4QMRguEAD9cDBBR7eQL0bRkCHDJ7BxXIKQVgXnUBWJKLB3sQH
QerYt0DlM67B

> <OMEGA_E>
XF/gPhDo4D74bYY/

> <OMEGA_NBR>
    199866

$$$$
50215993
  -OEChem-04172616093D

 45 48  0     1  0  0  0  0  0999 V2000
    6.6468    5.1552  -24.2835 C   0  0  0  0  0  0  0  0  0  0  0  0
    7.6034    4.9062  -23.2824 C   0  0  0  0  0  0  0  0  0  0  0  0
    5.3469    4.6315  -24.1632 C   0  0  0  0  0  0  0  0  0  0  0  0
    5.2482   -4.0221  -18.2201 C   0  0  0  0  0  0  0  0  0  0  0  0
    6.6672   -0.5629  -22.6577 C   0  0  0  0  0  0  0  0  0  0  0  0
    3.9306   -3.8409  -17.7670 C   0  0  0  0  0  0  0  0  0  0  0  0
    6.1755   -1.5297  -21.7621 C   0  0  0  0  0  0  0  0  0  0  0  0
    7.2611    4.1403  -22.1548 C   0  0  0  0  0  0  0  0  0  0  0  0
    5.0008    3.8623  -23.0401 C   0  0  0  0  0  0  0  0  0  0  0  0
    6.4779    0.8067  -22.3930 C   0  0  0  0  0  0  0  0  0  0  0  0
    5.7542   -3.1445  -19.1905 C   0  0  0  0  0  0  0  0  0  0  0  0
    5.2696    0.2408  -20.3550 C   0  0  0  0  0  0  0  0  0  0  0  0
    3.1609   -2.7790  -18.2844 C   0  0  0  0  0  0  0  0  0  0  0  0
    5.4692   -1.1224  -20.6118 C   0  0  0  0  0  0  0  0  0  0  0  0
    5.9467    3.6277  -22.0106 C   0  0  0  0  0  0  0  0  0  0  0  0
    5.7715    1.2191  -21.2327 C   0  0  0  0  0  0  0  0  0  0  0  0
    4.9337   -2.0964  -19.6627 C   0  0  0  0  0  0  0  0  0  0  0  0
    6.3138    2.9897  -19.5565 C   0  0  0  0  0  0  0  0  0  0  0  0
    4.0746    3.3642  -19.2684 C   0  0  0  0  0  0  0  0  0  0  0  0
    5.5790    2.6881  -20.8596 C   0  0  1  0  0  0  0  0  0  0  0  0
    5.5865    3.8037  -17.2883 C   0  0  0  0  0  0  0  0  0  0  0  0
    3.6682   -1.9263  -19.2022 N   0  0  0  0  0  0  0  0  0  0  0  0
    5.3226    3.2874  -18.6363 N   0  0  0  0  0  0  0  0  0  0  0  0
    4.1679    2.9148  -20.4962 N   0  3  0  0  0  0  0  0  0  0  0  0
    2.8948    3.8070  -18.6909 N   0  0  0  0  0  0  0  0  0  0  0  0
    7.5042    2.8302  -19.3081 O   0  0  0  0  0  0  0  0  0  0  0  0
    6.9109    5.7495  -25.1457 H   0  0  0  0  0  0  0  0  0  0  0  0
    8.6026    5.3043  -23.3806 H   0  0  0  0  0  0  0  0  0  0  0  0
    4.6149    4.8209  -24.9344 H   0  0  0  0  0  0  0  0  0  0  0  0
    5.8597   -4.8217  -17.8288 H   0  0  0  0  0  0  0  0  0  0  0  0
    7.1910   -0.8720  -23.5501 H   0  0  0  0  0  0  0  0  0  0  0  0
    3.5113   -4.5090  -17.0292 H   0  0  0  0  0  0  0  0  0  0  0  0
    6.3383   -2.5798  -21.9548 H   0  0  0  0  0  0  0  0  0  0  0  0
    8.0022    3.9413  -21.3949 H   0  0  0  0  0  0  0  0  0  0  0  0
    4.0072    3.4466  -22.9602 H   0  0  0  0  0  0  0  0  0  0  0  0
    6.8714    1.5461  -23.0749 H   0  0  0  0  0  0  0  0  0  0  0  0
    6.7572   -3.2686  -19.5713 H   0  0  0  0  0  0  0  0  0  0  0  0
    4.7243    0.5438  -19.4734 H   0  0  0  0  0  0  0  0  0  0  0  0
    2.1460   -2.6443  -17.9406 H   0  0  0  0  0  0  0  0  0  0  0  0
    4.6335    3.9565  -16.7606 H   0  0  0  0  0  0  0  0  0  0  0  0
    6.2013    3.0804  -16.7327 H   0  0  0  0  0  0  0  0  0  0  0  0
    6.1228    4.7613  -17.3611 H   0  0  0  0  0  0  0  0  0  0  0  0
    3.3900    2.7487  -21.1023 H   0  0  0  0  0  0  0  0  0  0  0  0
    2.0450    3.7953  -19.2179 H   0  0  0  0  0  0  0  0  0  0  0  0
    2.8934    4.1381  -17.7473 H   0  0  0  0  0  0  0  0  0  0  0  0
  1  2  1  0  0  0  0
  1  3  2  0  0  0  0
  2  8  2  0  0  0  0
  3  9  1  0  0  0  0
  4  6  1  0  0  0  0
  4 11  2  0  0  0  0
  5  7  1  0  0  0  0
  5 10  2  0  0  0  0
  6 13  2  0  0  0  0
  7 14  2  0  0  0  0
  8 15  1  0  0  0  0
  9 15  2  0  0  0  0
 10 16  1  0  0  0  0
 11 17  1  0  0  0  0
 12 14  1  0  0  0  0
 12 16  2  0  0  0  0
 13 22  1  0  0  0  0
 14 17  1  0  0  0  0
 15 20  1  0  0  0  0
 16 20  1  0  0  0  0
 17 22  2  0  0  0  0
 18 20  1  0  0  0  0
 18 23  1  0  0  0  0
 18 26  2  0  0  0  0
 19 23  1  0  0  0  0
 19 24  2  0  0  0  0
 19 25  1  0  0  0  0
 20 24  1  0  0  0  0
 21 23  1  0  0  0  0
  1 27  1  0  0  0  0
  2 28  1  0  0  0  0
  3 29  1  0  0  0  0
  4 30  1  0  0  0  0
  5 31  1  0  0  0  0
  6 32  1  0  0  0  0
  7 33  1  0  0  0  0
  8 34  1  0  0  0  0
  9 35  1  0  0  0  0
 10 36  1  0  0  0  0
 11 37  1  0  0  0  0
 12 38  1  0  0  0  0
 13 39  1  0  0  0  0
 21 40  1  0  0  0  0
 21 41  1  0  0  0  0
 21 42  1  0  0  0  0
 24 43  1  0  0  0  0
 25 44  1  0  0  0  0
 25 45  1  0  0  0  0
M  CHG  1  24   1
M  END
> <OMEGA_C>
gbLUQIT3pECFRMLBcE/zQNL/nEBcQrrBohmrQFA1lEA2TsHBI/GnQOq0gMDGwpHBdVnVQH4cEL/l
QrXBbY57QPjRdcDJIo7BdJ3FQLzLw7/JGK7BzFroQJx9hEAUPbHBbQagQFgvd0ARUrjBOUvPQAeH
Tj/yJLPBIiK4QNk+ScA4hpnBsKCoQJiddj4f16LBXUxKQOzbMcB3RpLBAASvQF6qj78A5aTBtku+
QMYsaEC3FbDBQbC4QD4KnD+R3KnBM+GdQBkrBsAeTZ3BgwrKQKdWP0Cvc5zBPmOCQIBPV0C2JZrB
hYeyQHwJLEB64KbBRcSyQLVvc0CDTorBicNqQHCR9r8fnpnBmFKqQIJkUkAnF5XBK1+FQCyMOkAl
+KPBsUM5QBGmc0AGh5XBPyLwQBYiNUDrdprBZibdQJP7t0BvKsnBOaQJQeK8qUBuC7vBXa2TQI1E
mkCnecfBvYK7QPpKmsBaoY7BURzmQPU9X7+sZrzBmrhgQFNJkMDFO4jBE9PKQAwbJcB+o6/B/AgA
QUE+fECtKKvBxTqAQEuVXECWrrfBXeLbQOvnxT9XmbjBuTrYQIswUcAFkpzBiy2XQF82Cz+QyZvB
51cJQKI8KcBmho/Bl0WUQO02fUCvFYbBPXHGQD0lRUB43IXByu3DQM1cmECR44rBgvZYQOjqL0CF
0ajB7eACQOnmckBYvpnBgS05QEhrhECI+o3Bdy7UQCSjpEAHVMLBarWqQPWOk0BlYMHB3bnyQOEr
nUC1RbrBmJGnQNYNgcCsw5HBUPXVQKqAEL+HObXBj+x6QAhwdcCeJo7BL4/GQB8mxL9JBa7BcLCf
QDA9dkAtW7jBLNrnQNXEhEAAOrHBNnPPQGoNTj/UKLPBVja4QAQxSsA7gJnBnRKpQKTgcT6e06LB
7ahKQOK7MMCQRpLBJtOvQE8wkL+81aTBxu+9QET7Z0ChGLDBBs24QIOQmz984KnBuGueQPZXBsDo
Q53BiwnKQNYyP0DgfZzBQ2uCQEoYWEALKprBvWCyQAy/K0AT46bBNhuzQIoPdUBcYorBb+9rQP0R
9b8umZnBun2qQIYbVEAqKpXByjiFQD4BOkBs7qPBznM5QJJ1dEA7gpXBaPvvQCg2M0CWeprBQpfc
QOyCt0ABQcnBlFaTQEw8mUDRlMfBlUoJQcA2qkBfCrvB3sG6QFbzmsBtpY7B+s7mQHZPX7/YWrzB
PG9fQPX4j8CRRIjBwyDMQHs6JcAfha/Bg+p/QNBXW0DMtbfBE4X/QI+LfUCSHKvBOrnbQBPDxT8e
p7jBgEfYQM3oUsByiJzBHZOXQFivCT8Ix5vBadEJQBc8J8Bih4/BZKaUQCg9gECbNYbBwRrGQL/y
RUDD44XBCQnFQB+7mECo+IrBX3hYQLFXLkA/tqjBdb0CQBOzckBLp5nBpcs5QIFWhUCdAY7BcqLV
QJNLpkANDsLBBcmrQBkflkCQJcHBuQ70QCyVnUDfDLrBLIlMQOz1OsCR4pHB8AzUQEdlCb+ikbXB
yS+CQC4CfMDQg47BROPEQEw7wb/1Yq7Bi0agQMOfekC7ObjB7bDoQEHThEA+GrHB6yfOQDqsVD+o
WLPBSg9qQMQ+/r83YJnBBYCoQLMpgD4z66LBvuSrQObWf8DBzpLBQOuuQKZvjr/GEKXBsme+QCrf
aUAuArDB3Sy4QPUpnj8U86nBzBmfQCbMBsC6b53B46/JQLniP0CObZzBUj6CQHBtW0DDUJrB10Gy
QH4WLUDd4abB2oWyQKt1d0DUaorB1Ii5QB51RsAGK5rBLAyqQDg+VkDPMZXBRxuFQHjNO0BqAKTB
uD45QOYvekD13pXBMpTvQDHqM0BaWprBHGzeQHptuUAS6MjBXH6UQMbGnEAkT8fBtBkKQQ7wqUAT
yLrBXC4MQGwgN8DpxI7BCEHkQJLeVr9izrzB7advQPxVlcDWsIjBxA/KQOW2I8ARArDBUkGAQE4R
YUCLn7fBDSMAQZS8e0DjB6vBeGbaQHqSyT9Sz7jBPgFBQM1kl78gBZzBLFyXQEfrCz/jzJvBQ2fB
QDjRmMDyKZDBvQGUQOYPgkCqU4bBxfDEQOnwR0De1oXBb/zEQBmbmUDqAYvB4VRYQBNmL0CbxKjB
9P8CQJUIeUAiHZrB9DY5QLjDiEAHbI7By/jVQLyEpUAcDsLBxW70QHRwnEDEFbrBpvKrQKvclUCf
GMHBBj1NQCeyO8CYhZHBad7SQE0DDb8ji7XBXnWCQHbMfcDMcI7BcrzDQNiqwr9zVq7Bx+roQIfg
g0BPHbHBU0ygQA5yekAzKLjB9FDNQBIzUT/xTbPBNglqQHCS/r8n/ZjBLfenQJRHeT6I0KLBRMer
QN/wgMCx9JLBwyGuQDB8j7+a+KTBynG+QFQYaUAk9q/BDKi3QCH4nD8t36nBva6eQExaB8ByS53B
qnnJQLIvP0DEWJzBwheCQHKUWkDwNprBVw+yQD+fLEDs0KbBfD+yQGU6dUA2SYrBYRS5QKbaR8Da
RZrBCcKpQMjqU0C2DpXB+PCEQJrtO0Aa86PBKU45QDUtekBgxJXBLXrvQORaNECMTZrBvd3eQKuI
uEAk68jBf1wKQZ9cqEAj3LrBnaCUQGDInEDCO8fBIowNQO19N8DtNI7B8cniQB8tW78U0LzBfahw
QNSIlsACq4jBAafIQFF8JMCI+a/BjEMAQY9IeUDoEavBzyWAQMGZYUD6hbfB25TZQPCOxz+tyLjB
Lw5BQDhQlr+FbZvBAwaXQCbdCj+JrJvBdULBQJIzmsBehZDBCb+TQIA7gEDQH4bB/FXFQHtoRkB8
xIXBtgnEQA3kmEBV5IrBswRYQHeGMED5wajBhz0DQKx3ekBMDJrBr1o5QNlWiEAiR47BSAuDQFuH
e0Bk24/B2ZhWQCmPTECAaZfBWBiuQNUYiEC57pHBw0F6QFjtE8BskYzBY3bSQAS1e78pbLjB/FyA
QP/BbMCD6I3BUMjCQIJK5L/DCrDBBfx8QF7bMkBfFaHBDbDBQHMqdUArfpvB6BvRQNob1j43nLfB
OFSNQO5VvL8tlpTB8lyzQG9UXz6kraXBRKmTQGymhsABPZfB0YeyQDcfmL/IlqbBQyCqQLP+RUBg
NKPBLuTAQNajhD+mRq7Bi/GgQEt6AsBN0p3BEmipQCEuS0BZTbfBtvnuQJ8nekAHvrbBXZm/QOK5
JEDhjK3B2cbAQDU1l0B9KMbBOGGjQDnoWMC4557B6S3HQHEFgUCv47vBMc7rQDvvREA1oa7BBkYK
Qf7ykUBRm7nBFPuEQObJPEDefbrBanloQNzah0AOeIjBvbIUQOo6PEBlypXBPyfAQIt0mkCSK4zB
StpcQMq88r8TfYXBNJXfQEYvub/igL/Bd2hoQEPai8D+24fBJCHDQO77NsDp0LDBbMNXQMlIEEA/
8abBgd/iQD82gkBi+JzB0YXcQBdngz9cJ77BsPKKQHc0zL78w5PBPXmpQMX3LT+uRJ7BXviVQN/e
qMCuTJjBnwndQM3mqkBP+MfBuim8QJPpfkC0jMzBy1WkQJnWq0C8oMXBSQkCQXN+NEBA1qnBTqkX
QS4XjUDMZbXBhGYKQcLSpUBf4L/BZ7WDQNtYeECE2Y/BD8pXQAjgSUDBcJfBMtquQAA+hkCr4pHB
qLxfQMzRb8Bfs5fBtC3RQESdgr+K0bjBz86AQIEBY8CnaI3B/wPBQODr6b/vhrDB+T9+QNsVMECY
GqHB9nPCQBV6cUACcpvBWODQQJ21wz6mzLfBLHuAQAHFP8AqPqDBom2zQLKDKj6c1KXBl3+hQN/j
JcAD7ovBdiGyQDumnb/SAafBadOqQEG/QkDQL6PBPhbBQEzIfj8yYK7BSz2hQDxnA8AvOZ7BsSGq
QHyySUA7SLfBedbvQJ/Id0AvqLbBwS/AQM4YIkD/kK3BadXBQI/6lkDpAcbBcs6wQL8t7r+4M5TB
yxPIQMZNgECcy7vBgYLsQHDYQUBmnq7B/cIKQYCxkEA0d7nBsaiFQJcoPEAIf7rBWMNpQFFGhkAO
d4jBnroVQAf/OUAh2pXBLfnAQCtjmEDkF4zBviMtQPPbjsAuBJnBDtfdQHchvb9M+r/Bg9hpQKDH
g8ButIbBfwTAQN+mOcCBdLHBCPhYQAnQDUD7+6bBALHjQIY0gEBa5pzBl8jcQObkfj/hQb7BfsZo
QE3OSMDkQajBHuqpQHQgHT+iVZ7Bs5muQN44HMDMBoTB4jfeQMSTqkAOw8fBZxe9QC4Rf0CkdszB
SYSlQATCq0DlbMXBVV8CQdWjMECc26nBcyMYQVKAi0DSRbXBSPAKQR/ZpEDIrb/B

> <OMEGA_E>
vFKUPlhWlT5wHaM+SFCjPvMzhz9kPIo/

> <OMEGA_NBR>
    204873

$$$$
50215995
  -OEChem-04172616093D

 46 49  0     1  0  0  0  0  0999 V2000
    6.6540   -0.5169  -22.7217 C   0  0  0  0  0  0  0  0  0  0  0  0
    3.1193   -2.7981  -18.2676 C   0  0  0  0  0  0  0  0  0  0  0  0
    6.1746   -1.4701  -21.8064 C   0  0  0  0  0  0  0  0  0  0  0  0
    3.6272   -1.8784  -19.2034 C   0  0  0  0  0  0  0  0  0  0  0  0
    6.4648    0.8599  -22.4859 C   0  0  0  0  0  0  0  0  0  0  0  0
    3.9331   -3.8480  -17.8007 C   0  0  0  0  0  0  0  0  0  0  0  0
    5.2936    0.3264  -20.4241 C   0  0  0  0  0  0  0  0  0  0  0  0
    5.7532   -3.0831  -19.2365 C   0  0  0  0  0  0  0  0  0  0  0  0
    5.4787   -1.0464  -20.6583 C   0  0  0  0  0  0  0  0  0  0  0  0
    4.9454   -2.0206  -19.6946 C   0  0  0  0  0  0  0  0  0  0  0  0
    5.7839    1.3047  -21.3239 C   0  0  0  0  0  0  0  0  0  0  0  0
    5.2504   -3.9867  -18.2814 C   0  0  0  0  0  0  0  0  0  0  0  0
    6.3281    3.0301  -19.6142 C   0  0  0  0  0  0  0  0  0  0  0  0
    4.0866    3.4067  -19.3134 C   0  0  0  0  0  0  0  0  0  0  0  0
    6.5473    4.7676  -23.7081 C   0  0  0  0  0  0  0  0  0  0  0  0
    5.3268    3.9123  -23.3120 C   0  0  0  0  0  0  0  0  0  0  0  0
    7.2867    4.1407  -22.5045 C   0  0  0  0  0  0  0  0  0  0  0  0
    5.8853    3.9846  -21.8811 C   0  0  0  0  0  0  0  0  0  0  0  0
    5.5923    2.7873  -20.9155 C   0  0  1  0  0  0  0  0  0  0  0  0
    5.6009    3.7437  -17.3045 C   0  0  0  0  0  0  0  0  0  0  0  0
    5.3582    3.4550  -18.7224 N   0  0  0  0  0  0  0  0  0  0  0  0
    4.1804    2.9575  -20.5424 N   0  3  0  0  0  0  0  0  0  0  0  0
    2.8966    3.7951  -18.7191 N   0  0  0  0  0  0  0  0  0  0  0  0
    7.5346    2.9316  -19.4188 O   0  0  0  0  0  0  0  0  0  0  0  0
    6.2613   -5.2792  -17.6921 Cl  0  0  0  0  0  0  0  0  0  0  0  0
    7.1712   -0.8419  -23.6123 H   0  0  0  0  0  0  0  0  0  0  0  0
    2.1059   -2.6989  -17.9077 H   0  0  0  0  0  0  0  0  0  0  0  0
    6.3394   -2.5227  -21.9832 H   0  0  0  0  0  0  0  0  0  0  0  0
    3.0091   -1.0622  -19.5471 H   0  0  0  0  0  0  0  0  0  0  0  0
    6.8412    1.5817  -23.1956 H   0  0  0  0  0  0  0  0  0  0  0  0
    3.5475   -4.5474  -17.0737 H   0  0  0  0  0  0  0  0  0  0  0  0
    4.7650    0.6434  -19.5373 H   0  0  0  0  0  0  0  0  0  0  0  0
    6.7563   -3.2029  -19.6183 H   0  0  0  0  0  0  0  0  0  0  0  0
    6.9793    4.5244  -24.6900 H   0  0  0  0  0  0  0  0  0  0  0  0
    6.3899    5.8538  -23.6355 H   0  0  0  0  0  0  0  0  0  0  0  0
    4.3508    4.3989  -23.4559 H   0  0  0  0  0  0  0  0  0  0  0  0
    5.3023    2.9043  -23.7517 H   0  0  0  0  0  0  0  0  0  0  0  0
    7.8099    3.1970  -22.7184 H   0  0  0  0  0  0  0  0  0  0  0  0
    7.9633    4.8213  -21.9668 H   0  0  0  0  0  0  0  0  0  0  0  0
    5.5790    4.9275  -21.4045 H   0  0  0  0  0  0  0  0  0  0  0  0
    4.6616    4.0618  -16.8285 H   0  0  0  0  0  0  0  0  0  0  0  0
    5.9765    2.8384  -16.8051 H   0  0  0  0  0  0  0  0  0  0  0  0
    6.3469    4.5472  -17.2165 H   0  0  0  0  0  0  0  0  0  0  0  0
    3.4032    2.7594  -21.1397 H   0  0  0  0  0  0  0  0  0  0  0  0
    2.0403    3.7413  -19.2327 H   0  0  0  0  0  0  0  0  0  0  0  0
    2.8942    4.1291  -17.7765 H   0  0  0  0  0  0  0  0  0  0  0  0
  1  3  1  0  0  0  0
  1  5  2  0  0  0  0
  2  4  2  0  0  0  0
  2  6  1  0  0  0  0
  3  9  2  0  0  0  0
  4 10  1  0  0  0  0
  5 11  1  0  0  0  0
  6 12  2  0  0  0  0
  7  9  1  0  0  0  0
  7 11  2  0  0  0  0
  8 10  2  0  0  0  0
  8 12  1  0  0  0  0
  9 10  1  0  0  0  0
 11 19  1  0  0  0  0
 12 25  1  0  0  0  0
 13 19  1  0  0  0  0
 13 21  1  0  0  0  0
 13 24  2  0  0  0  0
 14 21  1  0  0  0  0
 14 22  2  0  0  0  0
 14 23  1  0  0  0  0
 15 16  1  0  0  0  0
 15 17  1  0  0  0  0
 16 18  1  0  0  0  0
 17 18  1  0  0  0  0
 18 19  1  0  0  0  0
 19 22  1  0  0  0  0
 20 21  1  0  0  0  0
  1 26  1  0  0  0  0
  2 27  1  0  0  0  0
  3 28  1  0  0  0  0
  4 29  1  0  0  0  0
  5 30  1  0  0  0  0
  6 31  1  0  0  0  0
  7 32  1  0  0  0  0
  8 33  1  0  0  0  0
 15 34  1  0  0  0  0
 15 35  1  0  0  0  0
 16 36  1  0  0  0  0
 16 37  1  0  0  0  0
 17 38  1  0  0  0  0
 17 39  1  0  0  0  0
 18 40  1  0  0  0  0
 20 41  1  0  0  0  0
 20 42  1  0  0  0  0
 20 43  1  0  0  0  0
 22 44  1  0  0  0  0
 23 45  1  0  0  0  0
 23 46  1  0  0  0  0
M  CHG  1  22   1
M  END
> <OMEGA_C>
VO3UQK5SBL8BxrXBQKJHQNwUM8AFJJLBB5bFQOUsvL9xc67BwiRoQMdt8L+CoJnBeN/OQC4hXD8m
47PB8Ld7QD5GdsDJZ47B6mSpQLQYpz6oZKPB9hm4QAlSRcBN5JnBhlGvQATyhb87RKXBzkCeQBJR
AcCJjp3BABa5QA4Bpz9vl6rBGQOoQK4mf8BfQJLBD4DKQNjsQUDd6ZzBlMWCQPAGWkDLgZrBE4PR
QNqPmEAuqr3B93SqQE9iekDifrrB0izpQNWAhEAxCbTBAlS8QAcDf0BpDK/B5fOyQIliMkDxUqfB
uDqzQGiYb0CSb4rBt3arQDUeXUCDx5XB8MWFQAxIPUDrVqTBtGI5QK7ickCswJXBtxvxQIifO0Cb
WZvBzVzIQALvqMBYiY3BWHrlQJmIV78I5rzBUcYGQGa7LMDxQo/BKNzKQGF0IcCA3a/BDZVAQP70
h79sYJzBN+vaQHZ0yj+pkLnB+QljQH2EkcDZlojBsHqYQNm0JD9oTJzBizPYQBD9TMBH8pzBy1bf
QP3HkEAphcXBa3rMQJxSu0CaFb3BHzqLQN3DjECqpbvBPqypQJXfOUB9A77Bher5QF+cTEBXv7XB
AdP+QO9HmkDwu6/BJoeyQOCtnUBmPKvBDyyVQI76gUDdoIbBsD+/QMSnNUDycIbBGBrLQAGDkUBf
u4nBq85ZQGqaMEAtHqnB95QCQBJyb0Cn3JnBYjo5QOohhEBUNo7B4DzVQHZvAL+jyLXBB2+qQBQ+
f8BBWZLBJaTFQOmbur81h67Btl65QF4+RcBJHprBuQ3PQPyNXz9+37PBb9WAQDp8dsCkJY7BGnKo
QAJwqj5CjqPBh6JqQPX/8L9sTZnBwASvQDcUhb/1YKXB3/aeQK47AcBvkJ3BvlG4QAE5qD93tKrB
KVRMQJiTM8D8s5HBpOfJQISbQkDFDJ3B6YCCQE5hXED9kZrBmwHUQLSAmECKjb3BBnusQGDpeUCy
1LrBx83pQOnvhEBsmrPBoxq8QHhbf0BQK6/BiCiyQJYKM0DmbqfBMluzQLwRckCqoorBB4CrQH53
YkDLC5bBYBuFQNi8PkBxYKTBY+o4QMhgckD8k5XBThvwQAb3NkCRVpvBvXnIP4pSKsDfyYzBIhbm
QLS0Ur814LzBa+G+QLc8mcC/m4/BQfzKQNSeIMC59q/BegrZQEHBTMBTcp3BNrzbQO6OzD8ycLnB
98JqQFiJkcDBMojBC+aWQCxjJT/li5zBAC5CQOPKiL8F4pvBKnfjQP+QkECuNMXBV6TOQAs/u0Dq
G73BAW6NQPtQjEAQZLzBS5KsQJo4OUBjTb7BSx77QI6sTUBaC7XBsmD+QIcGm0CVE6/BGk+xQGXZ
nUDrhqvB5hqWQLmohUC65IbBbHW8QOS0NUBZuIbByGfNQJxvkEArvYnBxhlYQFb0MUDUFqnBf2UB
QCwCbEAwepnBQYk5QDJPhEC6E47B

> <OMEGA_E>
fHSkPoDQpT4=

> <OMEGA_NBR>
    206749

$$$$
50215999
  -OEChem-04172616093D

 45 48  0     1  0  0  0  0  0999 V2000
    6.6475   -0.5214  -22.6844 C   0  0  0  0  0  0  0  0  0  0  0  0
    5.2905   -4.0722  -18.2932 C   0  0  0  0  0  0  0  0  0  0  0  0
    6.1704   -1.4924  -21.7857 C   0  0  0  0  0  0  0  0  0  0  0  0
    5.7819   -3.1509  -19.2375 C   0  0  0  0  0  0  0  0  0  0  0  0
    6.4604    0.8475  -22.4135 C   0  0  0  0  0  0  0  0  0  0  0  0
    3.9766   -3.9439  -17.8000 C   0  0  0  0  0  0  0  0  0  0  0  0
    7.2570    4.2101  -22.1532 C   0  0  0  0  0  0  0  0  0  0  0  0
    5.0207    3.9480  -23.0384 C   0  0  0  0  0  0  0  0  0  0  0  0
    5.2816    0.2718  -20.3598 C   0  0  0  0  0  0  0  0  0  0  0  0
    3.6494   -1.9586  -19.1759 C   0  0  0  0  0  0  0  0  0  0  0  0
    7.5654    5.0012  -23.2764 C   0  0  0  0  0  0  0  0  0  0  0  0
    5.3973    4.7504  -24.1311 C   0  0  0  0  0  0  0  0  0  0  0  0
    5.4804   -1.0936  -20.6228 C   0  0  0  0  0  0  0  0  0  0  0  0
    4.9641   -2.0862  -19.6742 C   0  0  0  0  0  0  0  0  0  0  0  0
    5.7695    1.2560  -21.2437 C   0  0  0  0  0  0  0  0  0  0  0  0
    5.9534    3.6834  -22.0105 C   0  0  0  0  0  0  0  0  0  0  0  0
    3.1534   -2.8929  -18.2510 C   0  0  0  0  0  0  0  0  0  0  0  0
    6.3154    3.0203  -19.5624 C   0  0  0  0  0  0  0  0  0  0  0  0
    4.0765    3.4015  -19.2774 C   0  0  0  0  0  0  0  0  0  0  0  0
    5.5822    2.7285  -20.8687 C   0  0  2  0  0  0  0  0  0  0  0  0
    5.5789    3.7778  -17.2736 C   0  0  0  0  0  0  0  0  0  0  0  0
    6.6457    5.2619  -24.2348 N   0  0  0  0  0  0  0  0  0  0  0  0
    5.3220    3.3115  -18.6417 N   0  0  0  0  0  0  0  0  0  0  0  0
    4.1717    2.9593  -20.5079 N   0  3  0  0  0  0  0  0  0  0  0  0
    2.8949    3.8396  -18.6995 N   0  0  0  0  0  0  0  0  0  0  0  0
    7.5039    2.8473  -19.3137 O   0  0  0  0  0  0  0  0  0  0  0  0
    1.5143   -2.7490  -17.6722 Cl  0  0  0  0  0  0  0  0  0  0  0  0
    7.1590   -0.8268  -23.5852 H   0  0  0  0  0  0  0  0  0  0  0  0
    5.9208   -4.8778  -17.9465 H   0  0  0  0  0  0  0  0  0  0  0  0
    6.3323   -2.5413  -21.9860 H   0  0  0  0  0  0  0  0  0  0  0  0
    6.7833   -3.2584  -19.6274 H   0  0  0  0  0  0  0  0  0  0  0  0
    6.8441    1.5890  -23.0986 H   0  0  0  0  0  0  0  0  0  0  0  0
    3.6004   -4.6515  -17.0760 H   0  0  0  0  0  0  0  0  0  0  0  0
    8.0106    4.0073  -21.4067 H   0  0  0  0  0  0  0  0  0  0  0  0
    4.0237    3.5363  -22.9856 H   0  0  0  0  0  0  0  0  0  0  0  0
    4.7484    0.5714  -19.4697 H   0  0  0  0  0  0  0  0  0  0  0  0
    3.0243   -1.1421  -19.5058 H   0  0  0  0  0  0  0  0  0  0  0  0
    8.5601    5.4100  -23.3757 H   0  0  0  0  0  0  0  0  0  0  0  0
    4.6738    4.9628  -24.9043 H   0  0  0  0  0  0  0  0  0  0  0  0
    4.6224    3.9348  -16.7535 H   0  0  0  0  0  0  0  0  0  0  0  0
    6.1700    3.0232  -16.7341 H   0  0  0  0  0  0  0  0  0  0  0  0
    6.1371    4.7250  -17.3080 H   0  0  0  0  0  0  0  0  0  0  0  0
    3.3950    2.8006  -21.1174 H   0  0  0  0  0  0  0  0  0  0  0  0
    2.0461    3.8299  -19.2281 H   0  0  0  0  0  0  0  0  0  0  0  0
    2.8914    4.1652  -17.7540 H   0  0  0  0  0  0  0  0  0  0  0  0
  1  3  1  0  0  0  0
  1  5  2  0  0  0  0
  2  4  2  0  0  0  0
  2  6  1  0  0  0  0
  3 13  2  0  0  0  0
  4 14  1  0  0  0  0
  5 15  1  0  0  0  0
  6 17  2  0  0  0  0
  7 11  2  0  0  0  0
  7 16  1  0  0  0  0
  8 12  1  0  0  0  0
  8 16  2  0  0  0  0
  9 13  1  0  0  0  0
  9 15  2  0  0  0  0
 10 14  2  0  0  0  0
 10 17  1  0  0  0  0
 11 22  1  0  0  0  0
 12 22  2  0  0  0  0
 13 14  1  0  0  0  0
 15 20  1  0  0  0  0
 16 20  1  0  0  0  0
 17 27  1  0  0  0  0
 18 20  1  0  0  0  0
 18 23  1  0  0  0  0
 18 26  2  0  0  0  0
 19 23  1  0  0  0  0
 19 24  2  0  0  0  0
 19 25  1  0  0  0  0
 20 24  1  0  0  0  0
 21 23  1  0  0  0  0
  1 28  1  0  0  0  0
  2 29  1  0  0  0  0
  3 30  1  0  0  0  0
  4 31  1  0  0  0  0
  5 32  1  0  0  0  0
  6 33  1  0  0  0  0
  7 34  1  0  0  0  0
  8 35  1  0  0  0  0
  9 36  1  0  0  0  0
 10 37  1  0  0  0  0
 11 38  1  0  0  0  0
 12 39  1  0  0  0  0
 21 40  1  0  0  0  0
 21 41  1  0  0  0  0
 21 42  1  0  0  0  0
 24 43  1  0  0  0  0
 25 44  1  0  0  0  0
 25 45  1  0  0  0  0
M  CHG  1  24   1
M  END
> <OMEGA_C>
RbjUQPN6Bb+tebXB8UupQMdPgsBwWJLB7XPFQGUIv78hSa7BlgW5QI2nScB85pnBjbvOQFTzWD/q
TrPBpIB+QMtofMBxZo7BETnoQNa4hkDMObHBxqmgQC6sfEC2TrjBpgKpQCsqiz734KLBk49pQJu0
+r8qaJnBIhjyQLUJoEAbNrrBobasQB8DmECGDMHBjF+vQLb8i7+K+6TBE9qeQJSEBcC+ZJ3B5p+4
QPXEoD8Y86nBcoK+QJi9a0BsFbDBh9BJQJMlOcAaApLB5hfKQPtLQUDAf5zBYXKCQL2yWUAaOJrB
JKGyQAqfLkD/8qbBOIayQCnIcUBYMIrBqqnUQBthqEDW4MHBoE2qQOjvU0BDIpXBi36FQMFlPUAX
EKTBhkU5QK67dUCRmJXBUiDwQNI6NkBtgprBwNXBP5XvL8CWYI3BvBblQOuqU7+IrrzBZ3e9QAQX
nMB8ko/BH6LKQFCkIsBu46/BHRHZQOaJUMD6BJ3BzQLbQGtkyz/mybjBDG1mQMfYlMCem4jBmysA
QRU8gED1QKvB3cGAQCBTYkCV4rfBzvKXQBpJEj/3wZvBso1BQBEwkr/2C5zBVvYIQaMerUB6AbvB
2o+VQBDPnkARPMfBzuqTQPfSe0AbB4bB03DFQER8QUBm34XBT2PEQIwzl0C6dorBC0dZQEo9M0BY
8KjB5fICQMwcdUA205nBJww5QK5JhUA6CI7BTeTUQCq/BL8JcLXBOPpIQIR6NsAC0pHBTVLFQB9p
vr/vRa7B0wRpQO0h9r+IQZnBYBDPQCbVWT8+RbPBCZ58QNASe8A9aI7BONKgQKbQfEBMUrjBu4Xo
QDqFhkBnT7HBw/eoQL97jz5L46LB6Oy3QBkeSsDWFJrBhdWsQBkEmEDaE8HBJlfyQJPRn0CQTbrB
pB+vQI35ir8x/qTBwkWeQAnLBMDoa53BDtW4QOONoT+C76nBJ7y+QMrTa0B5HbDBJAOoQKlegsD9
hJLBH0bKQBEEQkCBgJzBn3+CQHhIWUBUMJrB1NayQLYKL0B786bBW4CyQJ2KcECbHIrBIdDUQPNI
qEBP8MHB53CqQAlWVEAjIpXBuqyFQIjaPUDiEaTBTgg5QCi5c0DBgJXBRVLwQJI5N0D8gZrBjADI
QGe5rMCPO47BcV7lQD9rU7+fn7zBL88IQCGBL8DEuo7Bu1rKQFpgIsAc4K/BZMBBQGnUi7/xyZvB
9o7bQBKoyz92u7jB+UZkQKkrlMBOoYjBKOSAQDGcYkDW37fB/F0AQY25f0CwX6vBxdyXQHP/FD93
x5vBc7XXQJcsUsBVUp3BZaGVQFLXnkDDP8fBVBoJQaLIrEDoILvBNNSTQICfekB7+4XBnw/FQN5M
P0C53YXBg6rEQA5rlkBbOorBUL1ZQBpJNEAA+6jBlZ8CQKeNckB8tpnB5Kc4QB/7g0Dj6Y3BIorU
QP7eBb9kY7XBj0tJQKYIO8AY+ZHBWr3EQL3Gvr/tP67BdPdnQBbR/L9mXJnBgsPOQLikWD9vObPB
qBZ/QOipfcBOc47BOHvoQMSIhkBbSrHB49+gQCbefEAGWrjBViWoQC34jT4/5qLBjdC4QO+GSMB0
7ZnBfW3yQHbOn0AnSLrBSQCtQO0NmECrGcHBaF+uQERZi78K/6TBiBeeQGxLBcBjZJ3BqU24QJwi
oT/37anBzK6+QF7Ea0CqH7DBHqepQEYRgsD6ZpLBfxDKQLuEQUDSfpzBOmWCQP8IWUBVLJrBP56y
QIXtLkCc9KbBj4SyQGdYcUAcLIrBdALVQHxCqEB18cHBLkCqQKj/UkD5F5XBS4KFQLIcPkC5E6TB
PzI5QPq1dECcgpXBDzXwQAzUN0CJh5rBUy7LQBj3qsBn943BZCflQGjIVL9CjbzBw4oIQO97NsAy
AY/BR7rJQM6SIsD32a/BdSY/QKM7lb9Y85vBQHrbQHP6yj/9qLjB7MVnQNzolcCct4jBek4AQTHZ
f0CUVKvBGu2AQFi6YkCT7bfB9syWQMZiFD8i1JvBhejYQHk6TsB/DZ3BcycJQR7CrEBVFbvB4dmV
QJbvnkDMR8fBsvKTQFZHekB39IXBMgfGQKvcQUBl4YXB4sjDQLRRl0A7f4rB/2JZQIgdNUBMAKnB
/PMCQPLqdEB+wZnBH+k4QNI7hECn5o3BHS3VQHAGCL9vULXBdWGpQM9ngsAaQJLBycHFQETMv7+8
Ha7B5Bq5QH9aScBXvpnBGvPOQBiCVj/lObPBIy5+QEC7fcA2cY7BfKKgQCZ8fUB2TbjBgYboQDkQ
hkDLXLHB+n+oQPBEij6R4KLBg9doQGIy/b/qbpnB/J+sQBO9mEDP/cDBQk7yQF7Ln0AXSLrBZjKv
QCJajL8N5aTBHreeQATABcDxTJ3BoG+4QJcooD998anBeqa+QMdXa0AjKLDBWQlJQD4RO8BvHpLB
Jy/KQBxkQUArjpzB+oqCQMvcWUCQP5rBEaSyQMl8LkBb/qbBPcKyQLs2ckA6PYrBFKzUQDTYqEBC
2cHB6neqQDCJVEDkMJXBN46FQP7BPUD+GaTBzVQ5QFEedUCPlpXB+TzwQH6INkDGkprBkJe+P4/l
M8B1vY3BfNnlQCEXV7+ud7zBQ729QDbvm8B5a4/BbjDLQFIMI8BXpq/BOlXZQC5yT8DrxJzB1Vvb
QNbRyT8+trjBZRFmQA+2lcDRs4jBDKWAQH6RY0B73LfBNmsAQZzRfUD0fKvBpPSWQN6cEj+K1pvB
PIxAQM9Flb+uGJzBzleVQL7/n0AAHcfBNh0JQdierEDKGrvBUSyUQIi7fEAtFobBrHXFQDuZQUCS
64XB7N3EQO5Fl0BTgYrB61xZQGEENEAk/KjBTecCQJcJdEBsy5nB6hw5QCruhEAdBY7B

> <OMEGA_E>
2IEQPhCEED7QhRA+UG4PPg==

> <OMEGA_NBR>
    210176

$$$$
50216006
  -OEChem-04172616093D

 50 53  0     1  0  0  0  0  0999 V2000
    6.6057    5.2587  -24.2322 C   0  0  0  0  0  0  0  0  0  0  0  0
    7.5604    5.0013  -23.2310 C   0  0  0  0  0  0  0  0  0  0  0  0
    5.3060    4.7322  -24.1202 C   0  0  0  0  0  0  0  0  0  0  0  0
    6.7411   -0.4373  -22.7913 C   0  0  0  0  0  0  0  0  0  0  0  0
    5.6895   -4.1311  -18.4212 C   0  0  0  0  0  0  0  0  0  0  0  0
    6.3676   -1.4487  -21.8900 C   0  0  0  0  0  0  0  0  0  0  0  0
    6.1340   -3.1715  -19.3501 C   0  0  0  0  0  0  0  0  0  0  0  0
    7.2181    4.2184  -22.1149 C   0  0  0  0  0  0  0  0  0  0  0  0
    4.9598    3.9469  -23.0081 C   0  0  0  0  0  0  0  0  0  0  0  0
    6.4708    0.9114  -22.4931 C   0  0  0  0  0  0  0  0  0  0  0  0
    4.3740   -4.0721  -17.9181 C   0  0  0  0  0  0  0  0  0  0  0  0
    5.3963    0.2345  -20.4170 C   0  0  0  0  0  0  0  0  0  0  0  0
    3.9546   -2.0799  -19.2495 C   0  0  0  0  0  0  0  0  0  0  0  0
    5.6927   -1.1098  -20.7016 C   0  0  0  0  0  0  0  0  0  0  0  0
    5.2621   -2.1422  -19.7598 C   0  0  0  0  0  0  0  0  0  0  0  0
    5.9069    3.6952  -21.9838 C   0  0  0  0  0  0  0  0  0  0  0  0
    5.7940    1.2589  -21.2939 C   0  0  0  0  0  0  0  0  0  0  0  0
    3.4950   -3.0476  -18.3286 C   0  0  0  0  0  0  0  0  0  0  0  0
    6.2919    2.9821  -19.5587 C   0  0  0  0  0  0  0  0  0  0  0  0
    4.0723    3.4530  -19.3008 C   0  0  0  0  0  0  0  0  0  0  0  0
    5.5554    2.7089  -20.8676 C   0  0  1  0  0  0  0  0  0  0  0  0
    5.5756    3.8292  -17.2980 C   0  0  0  0  0  0  0  0  0  0  0  0
    1.3462   -1.9376  -18.1975 C   0  0  0  0  0  0  0  0  0  0  0  0
    5.3058    3.3259  -18.6499 N   0  0  0  0  0  0  0  0  0  0  0  0
    4.1425    2.8994  -20.4880 N   0  3  0  0  0  0  0  0  0  0  0  0
    2.9258    4.0243  -18.7696 N   0  0  0  0  0  0  0  0  0  0  0  0
    7.4717    2.7662  -19.3018 O   0  0  0  0  0  0  0  0  0  0  0  0
    2.2095   -3.0369  -17.8069 O   0  0  0  0  0  0  0  0  0  0  0  0
    6.8712    5.8615  -25.0881 H   0  0  0  0  0  0  0  0  0  0  0  0
    8.5577    5.4059  -23.3203 H   0  0  0  0  0  0  0  0  0  0  0  0
    4.5744    4.9318  -24.8892 H   0  0  0  0  0  0  0  0  0  0  0  0
    7.2368   -0.6956  -23.7154 H   0  0  0  0  0  0  0  0  0  0  0  0
    6.3575   -4.9140  -18.0935 H   0  0  0  0  0  0  0  0  0  0  0  0
    6.5973   -2.4813  -22.1077 H   0  0  0  0  0  0  0  0  0  0  0  0
    7.1372   -3.2233  -19.7466 H   0  0  0  0  0  0  0  0  0  0  0  0
    7.9571    4.0145  -21.3541 H   0  0  0  0  0  0  0  0  0  0  0  0
    3.9655    3.5320  -22.9330 H   0  0  0  0  0  0  0  0  0  0  0  0
    6.7796    1.6858  -23.1795 H   0  0  0  0  0  0  0  0  0  0  0  0
    4.0362   -4.8169  -17.2127 H   0  0  0  0  0  0  0  0  0  0  0  0
    4.8573    0.4832  -19.5148 H   0  0  0  0  0  0  0  0  0  0  0  0
    3.2948   -1.2849  -19.5641 H   0  0  0  0  0  0  0  0  0  0  0  0
    4.6238    4.0260  -16.7828 H   0  0  0  0  0  0  0  0  0  0  0  0
    6.1488    3.0780  -16.7348 H   0  0  0  0  0  0  0  0  0  0  0  0
    6.1567    4.7609  -17.3629 H   0  0  0  0  0  0  0  0  0  0  0  0
    0.3642   -2.0527  -17.7154 H   0  0  0  0  0  0  0  0  0  0  0  0
    1.7995   -0.9860  -17.8832 H   0  0  0  0  0  0  0  0  0  0  0  0
    1.2205   -1.9407  -19.2903 H   0  0  0  0  0  0  0  0  0  0  0  0
    3.3563    2.6448  -21.0511 H   0  0  0  0  0  0  0  0  0  0  0  0
    2.0786    4.0315  -19.3008 H   0  0  0  0  0  0  0  0  0  0  0  0
    2.9463    4.4290  -17.8554 H   0  0  0  0  0  0  0  0  0  0  0  0
  1  2  1  0  0  0  0
  1  3  2  0  0  0  0
  2  8  2  0  0  0  0
  3  9  1  0  0  0  0
  4  6  1  0  0  0  0
  4 10  2  0  0  0  0
  5  7  2  0  0  0  0
  5 11  1  0  0  0  0
  6 14  2  0  0  0  0
  7 15  1  0  0  0  0
  8 16  1  0  0  0  0
  9 16  2  0  0  0  0
 10 17  1  0  0  0  0
 11 18  2  0  0  0  0
 12 14  1  0  0  0  0
 12 17  2  0  0  0  0
 13 15  2  0  0  0  0
 13 18  1  0  0  0  0
 14 15  1  0  0  0  0
 16 21  1  0  0  0  0
 17 21  1  0  0  0  0
 18 28  1  0  0  0  0
 19 21  1  0  0  0  0
 19 24  1  0  0  0  0
 19 27  2  0  0  0  0
 20 24  1  0  0  0  0
 20 25  2  0  0  0  0
 20 26  1  0  0  0  0
 21 25  1  0  0  0  0
 22 24  1  0  0  0  0
 23 28  1  0  0  0  0
  1 29  1  0  0  0  0
  2 30  1  0  0  0  0
  3 31  1  0  0  0  0
  4 32  1  0  0  0  0
  5 33  1  0  0  0  0
  6 34  1  0  0  0  0
  7 35  1  0  0  0  0
  8 36  1  0  0  0  0
  9 37  1  0  0  0  0
 10 38  1  0  0  0  0
 11 39  1  0  0  0  0
 12 40  1  0  0  0  0
 13 41  1  0  0  0  0
 22 42  1  0  0  0  0
 22 43  1  0  0  0  0
 22 44  1  0  0  0  0
 23 45  1  0  0  0  0
 23 46  1  0  0  0  0
 23 47  1  0  0  0  0
 25 48  1  0  0  0  0
 26 49  1  0  0  0  0
 26 50  1  0  0  0  0
M  CHG  1  25   1
M  END
> <OMEGA_C>
+GHTQHBHqECa28HBee7xQKIKoEAw2bnB7MqpQFZul0At9sDBxLbXQJzh376oVLbBnhC2QE8yhMCk
XpPBvsPLQEpuub+kHq/BbknEQBv5SsDxzJrBBfvmQBL9hkBh67DBkLaeQE+ZfECHELjBlxDPQGVO
aT/F8bPBpPeLQFtOgsA5WI/Bva6sQKgqcD73VaPBkhh9QC4dBcDx/pnBjiq2QF4Mjr/jnKXBwmKo
QDIZCcAjFJ7BNQW9QO9+bEC83q/BXmi5QEokoT/yWarBbq5fQM8LQ8ASoZLBBFfJQAHbPkA2eJzB
XFCCQDz+XED/Z5rB+sWxQMpeLUDb8KbBAGuyQJYRdUBLYorBpk6sPzQE+L+NlJHBe8mpQMbbVEAL
M5XBEY+EQDGQOUBb56PBR0A7QM/GgEAeKJbBCxjvQKQIMUAAaprBMmgNQEFdQsCEdI7BOeHbQJiR
u0BvtMjBWuwIQXr9rEAJkLrBi2GSQCHRnUAIHcfBqZPnQCMQMr80ub3BPnDLQG4/ncBnv5DBSR3T
QOvMHsCn3LDB6WPkQNZKTsAI+Z3BVqD+QMR2gEBF1arBIsp9QMoMYkC5drfBi/LYQDTI1z+vb7nB
6SiBQEUkmsCss4nBpW6bQBRg9z47HpzBJ95SQJl2pL8zg5zBRPaTQKfUgEAcQ4bBtsLEQEX+REDq
4IXBggPFQGZZmEA054rBk3S6PolfA8AZuY3BJ1fmP0hofL/fEI/BWjqcP6Zo+L+bUprB+M1WQARE
KUCtaKjBJQcFQDICgUDyZ5rBao88QBW6jUDK147BRYHZQIhzpUCw8MHBzSGvQAaIlkD4O8HBmbH2
QJonnUDjnrnBK+/TQPDgur5iH7fBBZG/QMgjgMDn2pTB3/jEQIQRsb+Va7DBap3GQLoQQsBesJzB
peShQFCifkBtNbjBT5fpQNb9hUAvj7DBoPvNQB4Mej9CNLTBTAqYQFzmgcBgjI/Bnj6oQDGEjz6Z
EaTBcsx9QKwqCMAorJnBZMivQKo0h78H06bBb2mmQPkZBsBSFp/Bi9a+QNt1bkDctq/Bpp23QKbX
pz8qqKrBojRuQIklSMAJApLBsqDIQF8sPkBgSZzB8oWBQNdQXkCAdZrB2baxQGkLMECJ7KbBHNCw
QFDWc0D4NorB9oQMQEyBiMBNM4bBaM6oQLDFVUCjKJXBdICEQLHJPkD+JaTB6FM4QHBwf0BrJJbB
w8jtQJJzLEAeBprB6A0eQCwLSsDnSo3B46rjQG1St0Cj4sjBXM2YQKHunECrocfBzJsLQRqcqECk
M7rB2gDkQIBmHL+1g77BB3rYQOHElsDQ45LB06jJQFHCGsB8mbLB38TkQDb/P8AE56DBrnSBQNEW
Z0Cpu7fBYRMAQXvXfkBBOarBuXraQGGP4T+hPrnB25OSQNAgmsBTionBH6CWQO+fBD8k4pzB1WNN
QOCcsb+dZpvBECqSQM8jgUAASIbBB63BQETBQUCLsIXBkZzEQDcBl0B6eIrBtmiWP1mHhcCFAIPB
hVsSQIm9psCdpYrBm6w6QIFAiMCTHH/BW1tXQPWFMkBi9ajBxpoCQNAcgEAsfZrB5Cc4QNJFi0CP
ro7BAjTQQAvKp0BgIsLBr6WnQLyplEDXKcHBsIzvQJsAoUD9OrrBG5/ZQOhlB7/pKLXBUQdCQPU0
LcD4w5LBM0vJQOo2wL/4Gq7BJe5mQAjt67+iTJrBFVieQOvKdUD8Q7jB5VPmQNhnh0BOSLHBqrXS
QEhYVz9DHbPBlmxyQOvncMCigo7Bw3mrQAp8hj47+KLBdBm2QNltR8CCmpnBQ46xQMIgjL8WFKXB
S/6dQN03A8B9vp3B+0u9QLN5aUCQHrDB8jO7QEz3nj838KnBYNujQHE4fsBPypHB3LzKQN4GQUDs
g5zBu/yCQPpdV0DVN5rBqEyzQLObLED26qbBXuayQDNecEA3MIrB9MvmQL+RpMDLnY/BPdaqQIxL
UkA3IJXBhu+FQCrsN0D16KPBlrE6QISndUBwu5XBdOLwQOhkN0DNi5rB4/25QCBIoMDr+IzB507X
QEm8u0B69sjBPbGPQCPMmUDqQcfBYmAHQYF/r0CBC7vBeXfrQKQxVb/pJbzBIZsAQGTDI8BiPZDB
sOjOQI5BI8DzmK/BnEJCQLFWgr/IeZ3BbNl+QK9YV0ASn7fB6JP+QIT0gUB6R6vB3EvfQAnvyj/5
hrjBxwFWQF2VjcAnq4jBi2CaQOHcDz9r2pvBZWrWQKYjUsCeW5zBHUGUQFkheUD1/4XBxFzGQOXQ
QEAR5YXBziPEQDXalkBreIrBGmf0QP37v8D7RIvBaDnqQMXHqcDyRpjBm+H3QOwyh8BaUY3BGQta
QHqfKUABmqjBKVcEQDFOdEDW85nB4746QM1shkCuRo7BFs7PQJk6p0AiOcLBFEzvQIKFoEDbWbrB
fzWnQDNBlEAbLMHBufnZQBpkBr/bF7XBQZRAQJoqLsC9JJPBndHJQEnvv7/MB67BzpVmQFZi7b9I
j5rBLy3mQM8sh0AMWrHB4QSeQBFpdUBbOrjB8N/SQMYWWD+lDbPBvZ5wQIJoccA+uI7B7cKrQGEa
hj4A5qLBOB62QE9HR8AYdZnBjgeyQCYtjL/oAaXBPCqeQD9pA8DWv53BNB29QMdRaUAoHLDBtVu7
QDQanz9f36nB+U6jQMgxfsBEvJHBss3KQLqLQUADf5zBYwyDQBSnV0AvK5rBuEmzQDCuLECO36bB
8gyzQGEucUCBLIrBwsXlQHxTpcCeeI/Bs/GqQKjkUkAjGZXB3++FQC7MN0Aj16PBNNU6QJ75dUDm
rZXBrPPwQMfXN0CeiJrBvB65QN0ooMD+xozBStTWQF//ukDPFsnBWkQHQZjirkCyOrvBTiOPQKhW
mUCEPcfBL9brQCCtU7+eFbzB0iL9PytBJcAY1pDB35rPQO8RI8Cfg6/BYjhCQBw1hL+h153BEof+
QEHNgUCpXqvBwCh+QLEgV0CthrfB0lPfQBFzyz/JebjBz2FTQNbejcAn84jBtqCaQFgnDz8myJvB
CrbWQIKfUcDyBZzBcmyUQEb1eUAz+oXBq4/GQMm/QUCL34XB3kHEQCVGl0DHeorBVRrzQIaNwMCq
/4rBFOLoQCNWq8BjG5jBm1f3QN4DiMCMXI3B//xZQIcbKUDggKjB32UEQNVSdECm4ZnB7Ps6QIu/
hkA8PY7B5WrTQLHVp0CKEMLBYL6pQHtOl0B9DMHBi0PyQKxXn0B6JbrBq6TWQOKn6r4QQLbB+TGz
QOUgg8DN4pLBUqDKQIrAur9J8q7BtV/CQMIPSsBEXJrBY9eeQNWnfEAJHLjBSYDnQMBvhkC/LbHB
wrnOQGR7ZT+f6LPBlMKIQCmUgMDkGI/BUCutQErsfT7DIKPBCSR6QPdOAsDq+pnBk8m1QC4Ijb98
YaXBwC6nQDGwB8Bd1p3BzG29QBw9bEDj/K/Bc9W5QLJnoT98QKrBqGpaQNuiP8DXsZLBzunJQBNV
QEDShpzBiYiCQD9+WkAPSZrBDEyyQBvOLUCY96bBlPGyQM+4dUBIaorBNJibP3Rb/b/Oe5PB+VCq
QGVnVEAdLpXBdBKFQDC1OUCv7KPBTas6QKRDe0C31pXBxeTvQFmbNEBJiJrBqs8GQHOBPsBV9I7B
0L7bQKoSu0AC78jBkx+SQOzRnUBeJMfB5CEJQT77q0DE9brBCf/lQN7AOr89rr3B6hXIQF82nMCD
DJDBsFjRQKjEH8A7qrDB4qDiQMO3TsB5aJ3Bged9QLuWYkCQa7fBO2P/QH9jf0CXKqvBapbYQNa3
1D+le7nBNIZ6QCTgl8A9ZonBc5+cQCWiAj+x1pvB9jZRQMV7nb/SnJzBDoGUQCAugEBkM4bBmVvG
QMAuR0A+8IXBoXLEQHNMmUCQCYvBBFpgPnTfBMCU1o/B07POP690eb+M3pHBAq2RP0NuCMA8LZzB
BQBYQAvuKkAqiqjB/zkEQC/WekBHC5rBTHQ7QOCpiUAmbY7B

> <OMEGA_E>
0JapPghLsT4UHLk+yBi6PsCooz4=

> <OMEGA_NBR>
    214713

$$$$
50216010
  -OEChem-04172616093D

 42 45  0     1  0  0  0  0  0999 V2000
    6.7795   -0.6404  -22.6345 C   0  0  0  0  0  0  0  0  0  0  0  0
    6.2649   -1.5617  -21.7049 C   0  0  0  0  0  0  0  0  0  0  0  0
    6.4986    0.7309  -22.5011 C   0  0  0  0  0  0  0  0  0  0  0  0
    5.1917    0.2630  -20.4982 C   0  0  0  0  0  0  0  0  0  0  0  0
    3.7135   -1.8186  -18.9597 C   0  0  0  0  0  0  0  0  0  0  0  0
    5.6312   -3.2669  -19.3271 C   0  0  0  0  0  0  0  0  0  0  0  0
    4.0011   -3.9144  -17.7696 C   0  0  0  0  0  0  0  0  0  0  0  0
    5.4673   -1.1147  -20.6263 C   0  0  0  0  0  0  0  0  0  0  0  0
    4.9304   -2.0741  -19.6303 C   0  0  0  0  0  0  0  0  0  0  0  0
    5.6771    1.1957  -21.4450 C   0  0  0  0  0  0  0  0  0  0  0  0
    3.2470   -2.7503  -18.0208 C   0  0  0  0  0  0  0  0  0  0  0  0
    5.3010    3.4035  -22.6241 C   0  0  0  0  0  0  0  0  0  0  0  0
    7.0754    4.2659  -21.4490 C   0  0  0  0  0  0  0  0  0  0  0  0
    4.1515    3.0226  -18.9205 C   0  0  0  0  0  0  0  0  0  0  0  0
    3.8936    4.3020  -19.7336 C   0  0  0  0  0  0  0  0  0  0  0  0
    4.1003    2.9642  -20.4587 C   0  0  0  0  0  0  0  0  0  0  0  0
    5.4029    2.6979  -21.2794 C   0  0  1  0  0  0  0  0  0  0  0  0
    6.6742    5.1812  -23.7858 C   0  0  0  0  0  0  0  0  0  0  0  0
    5.1668   -4.1548  -18.4162 N   0  0  0  0  0  0  0  0  0  0  0  0
    6.2937    4.3759  -22.6127 N   0  0  0  0  0  0  0  0  0  0  0  0
    6.5821    3.3338  -20.6612 N   0  3  0  0  0  0  0  0  0  0  0  0
    8.1950    5.0328  -21.1462 N   0  0  0  0  0  0  0  0  0  0  0  0
    4.5110    3.1547  -23.5291 O   0  0  0  0  0  0  0  0  0  0  0  0
    1.7424   -2.4712  -17.1782 Cl  0  0  0  0  0  0  0  0  0  0  0  0
    7.3923   -0.9873  -23.4534 H   0  0  0  0  0  0  0  0  0  0  0  0
    6.4798   -2.6143  -21.8151 H   0  0  0  0  0  0  0  0  0  0  0  0
    6.9120    1.4345  -23.2086 H   0  0  0  0  0  0  0  0  0  0  0  0
    4.6008    0.6114  -19.6640 H   0  0  0  0  0  0  0  0  0  0  0  0
    3.1513   -0.9200  -19.1666 H   0  0  0  0  0  0  0  0  0  0  0  0
    6.5610   -3.4740  -19.8360 H   0  0  0  0  0  0  0  0  0  0  0  0
    3.6415   -4.6304  -17.0455 H   0  0  0  0  0  0  0  0  0  0  0  0
    5.1089    2.8873  -18.3961 H   0  0  0  0  0  0  0  0  0  0  0  0
    3.3413    2.5759  -18.3255 H   0  0  0  0  0  0  0  0  0  0  0  0
    2.8988    4.7712  -19.7190 H   0  0  0  0  0  0  0  0  0  0  0  0
    4.6665    5.0826  -19.7897 H   0  0  0  0  0  0  0  0  0  0  0  0
    3.1897    2.5130  -20.8798 H   0  0  0  0  0  0  0  0  0  0  0  0
    7.4822    5.8744  -23.5089 H   0  0  0  0  0  0  0  0  0  0  0  0
    7.0215    4.5160  -24.5901 H   0  0  0  0  0  0  0  0  0  0  0  0
    5.8029    5.7548  -24.1349 H   0  0  0  0  0  0  0  0  0  0  0  0
    6.9555    3.0899  -19.7661 H   0  0  0  0  0  0  0  0  0  0  0  0
    8.6790    4.8918  -20.2826 H   0  0  0  0  0  0  0  0  0  0  0  0
    8.5162    5.7254  -21.7921 H   0  0  0  0  0  0  0  0  0  0  0  0
  1  2  1  0  0  0  0
  1  3  2  0  0  0  0
  2  8  2  0  0  0  0
  3 10  1  0  0  0  0
  4  8  1  0  0  0  0
  4 10  2  0  0  0  0
  5  9  1  0  0  0  0
  5 11  2  0  0  0  0
  6  9  2  0  0  0  0
  6 19  1  0  0  0  0
  7 11  1  0  0  0  0
  7 19  2  0  0  0  0
  8  9  1  0  0  0  0
 10 17  1  0  0  0  0
 11 24  1  0  0  0  0
 12 17  1  0  0  0  0
 12 20  1  0  0  0  0
 12 23  2  0  0  0  0
 13 20  1  0  0  0  0
 13 21  2  0  0  0  0
 13 22  1  0  0  0  0
 14 15  1  0  0  0  0
 14 16  1  0  0  0  0
 15 16  1  0  0  0  0
 16 17  1  0  0  0  0
 17 21  1  0  0  0  0
 18 20  1  0  0  0  0
  1 25  1  0  0  0  0
  2 26  1  0  0  0  0
  3 27  1  0  0  0  0
  4 28  1  0  0  0  0
  5 29  1  0  0  0  0
  6 30  1  0  0  0  0
  7 31  1  0  0  0  0
 14 32  1  0  0  0  0
 14 33  1  0  0  0  0
 15 34  1  0  0  0  0
 15 35  1  0  0  0  0
 16 36  1  0  0  0  0
 18 37  1  0  0  0  0
 18 38  1  0  0  0  0
 18 39  1  0  0  0  0
 21 40  1  0  0  0  0
 22 41  1  0  0  0  0
 22 42  1  0  0  0  0
M  CHG  1  21   1
M  END
> <OMEGA_C>
jfHYQHryI79vE7XBQXrIQEPlx7+Ko63BrPTPQDseOz9BArTBoyKmQPSshj5N/KPB2qltQFvH6L9d
rZfBfDK0QGMVUcDQnZrB/QiAQLeEesAaKI7BBvSuQPevjr+4AqXBKcadQGy+BMDuCp3BE6u1QEUM
mT9Yj6vBhc5PQAgFMMCCKpDBlKGpQDHTWUAl/rTBB2riQDSCiECNl6vB+diEQONxQUA4XZfBwDB5
QJapiUBl3p3B7DWDQKW0PUCBq6PBwOSsQPCqLEBCPKrB+ZLVQKXMpUBUSb7BblalQET0hMBQVJPB
tGXJQAgHjEDF5rTBnqDSQDNcVUAXSqXB0x4DQcUMoUBzK6nBx1mQQAXmSUCNO7zB6wbfP0MoHsD8
bInBcI3sQOS8fL+NoLvBZVrPQENRJ8Bjha7BHS/dQIuctz81q7nBsDmTQP2CHD/mT53B9K5JQJWD
a79MVZnBVPPRQLdVXsAfsJ7B/g1pQIoslMAvXYjBfXyjQAnKOEBIK5PBVNdVQHTbJECqmpLBSYY5
QL6tmECZwJ3B91OVQAmlokA3UZ7BLyRMQHrVIEC+CafBRm7vQMH6u0A7ErzB6a/gQAWDkEB6uMTB
J7G5QOsmuEBTFMHBTZPeQILBRUD+IJ7BX90KQUqJnEDFQqLBZUIIQa02t0AnVq7BIXXXQG4yFb+/
nrTBNgbGQHv5w7/Zk63BgrDRQH9ASz8rxbLB/F+nQAK2ij4u/KLBbPNlQH8Y/L86AZnBSCS2QPxp
TMDauJnBfE59QFGUgMBF9Y7BvCCuQCefjb9QqKTB6ducQEQhBsA7Cp3BZ8O4QCzGnz9aBKrB0GBH
QKLYPMDN8ZHBlt/JQJSzPkAihpzBAHCCQL51V0C5K5rBpC7nQEwhgkBOyrTBWpW8QJT5dUCX47rB
9P28QEoXfECEqq7BvHWyQJhwL0DR8abBtduyQMKNb0D7N4rBAwunQDzng8Bmy5LBCEKqQOIIUEAA
EZXBD0CFQEY1O0DxCaTByG86QArPdkBllZXB/qrwQI5oPED5FJvBj+m+P8B/NsCn64zB72/pQOCJ
ab8Tg7vBXfHKQIlyJcCdAK/B8WfgQN6CwT8FE7jB74+UQDKKFz8nNZzBRRM+QMlKkb+XS5vBR0nW
QLLZUsCxypzBUa1lQDqamMB4fonB5Bj/QE61UEDsYLTBx4/3QG07oUCTQLXBV6quQJwClUCRr7/B
dDO2QK1DOEDqz77BjuqwQF3TnEC8pavBwnCUQJAheED964XBXNzGQM/vQECI64XBu7vDQNiclkBt
rorB48JYQBh2L0Cu2qjBB1oEQMbreEBC2pnBVdI6QOOnhUBfAY7Bnt65QL06Eb/WY7bBZ5uzQG6a
xb87dq7BuCa7QH47Sz8fmrPBOgSvQKY1VD527aDBb8+1QEfc+b9sqZDBvP+SQHj1WcAAmp3B4e6Z
QJJZhMCH24vBVzWuQKuwlL/Sp6PBs6SnQOyPC8DbOpvBtoG2QBEFmT/YxqjBadmuQMZNPMCT6ojB
wBfJQHghOUAtYprBOPCCQDThZEBGh5rB4iO5QKDBgkCNyrfBC7fGQByCoUB9za7BJcLPQOzYYkCe
wK3BaYC2QMBXK0Awi6XBd9qqQPQyb0Dq24jBg3eMQMMyi8D2A5bB19CoQBItYECPfJTBW8+JQL5v
SEAxTKTB+603QO8HgkB86pbBjubsQADvJEAeQJfB7CTAQHSfLMCpjXfBA7W9QMr2XL/apL7BN+qy
QF6zJcCnoLDBrLS/QIkVxT8Jv7nBVtWpQC7fAD9xuJjBeb7FQMfMg79klI7BuC6IQA3aZcD1q6XB
6IWUQMOznMDA4IXBTgmXQBLDd0BoIbnBrQHKQHA8g0Cpg7/BpEbhQNMDuEAUGrDBRE6uQOyosEDT
t6nBzlrxQLX5T0Dp567BJ0yNQAR7h0C9MobBdUyuQBagMUBBroTB+n7GQM8bjEBNBIfBIn9nQAHE
RkC1FqrBkV4FQH7ugkAM25vBS8MxQE9XjED2YI/B

> <OMEGA_E>
dQSIP7rnAj8A80c/

> <OMEGA_NBR>
    217231

$$$$
50216011
  -OEChem-04172616093D

 42 45  0     1  0  0  0  0  0999 V2000
    6.7898   -0.5630  -22.5732 C   0  0  0  0  0  0  0  0  0  0  0  0
    6.2708   -1.5167  -21.6827 C   0  0  0  0  0  0  0  0  0  0  0  0
    6.5632    0.8102  -22.3607 C   0  0  0  0  0  0  0  0  0  0  0  0
    5.2527    0.2721  -20.3849 C   0  0  0  0  0  0  0  0  0  0  0  0
    5.7666   -3.1408  -19.1611 C   0  0  0  0  0  0  0  0  0  0  0  0
    3.6269   -1.9845  -19.1676 C   0  0  0  0  0  0  0  0  0  0  0  0
    3.8740   -3.9051  -17.8439 C   0  0  0  0  0  0  0  0  0  0  0  0
    5.4992   -1.0997  -20.5814 C   0  0  0  0  0  0  0  0  0  0  0  0
    4.9602   -2.0865  -19.6298 C   0  0  0  0  0  0  0  0  0  0  0  0
    5.7726    1.2538  -21.2698 C   0  0  0  0  0  0  0  0  0  0  0  0
    5.2192   -4.0497  -18.2432 C   0  0  0  0  0  0  0  0  0  0  0  0
    6.3050    3.0000  -19.5988 C   0  0  0  0  0  0  0  0  0  0  0  0
    4.0708    3.3866  -19.2732 C   0  0  0  0  0  0  0  0  0  0  0  0
    7.1215    4.0913  -22.6725 C   0  0  0  0  0  0  0  0  0  0  0  0
    5.7725    3.8218  -23.3882 C   0  0  0  0  0  0  0  0  0  0  0  0
    5.8323    3.9388  -21.8641 C   0  0  0  0  0  0  0  0  0  0  0  0
    5.5519    2.7422  -20.8848 C   0  0  1  0  0  0  0  0  0  0  0  0
    5.5949    3.6226  -17.2617 C   0  0  0  0  0  0  0  0  0  0  0  0
    3.1050   -2.8892  -18.3055 N   0  0  0  0  0  0  0  0  0  0  0  0
    5.3501    3.4401  -18.6978 N   0  0  0  0  0  0  0  0  0  0  0  0
    4.1444    2.9043  -20.4924 N   0  3  0  0  0  0  0  0  0  0  0  0
    2.8928    3.7900  -18.6644 N   0  0  0  0  0  0  0  0  0  0  0  0
    7.5061    2.8474  -19.4042 O   0  0  0  0  0  0  0  0  0  0  0  0
    5.9774   -5.0513  -17.7437 F   0  0  0  0  0  0  0  0  0  0  0  0
    7.3669   -0.8852  -23.4273 H   0  0  0  0  0  0  0  0  0  0  0  0
    6.4632   -2.5674  -21.8422 H   0  0  0  0  0  0  0  0  0  0  0  0
    6.9961    1.5336  -23.0357 H   0  0  0  0  0  0  0  0  0  0  0  0
    4.6545    0.5853  -19.5419 H   0  0  0  0  0  0  0  0  0  0  0  0
    6.7861   -3.2478  -19.5012 H   0  0  0  0  0  0  0  0  0  0  0  0
    3.0110   -1.1661  -19.5102 H   0  0  0  0  0  0  0  0  0  0  0  0
    3.4477   -4.6196  -17.1554 H   0  0  0  0  0  0  0  0  0  0  0  0
    7.8918    3.3070  -22.6349 H   0  0  0  0  0  0  0  0  0  0  0  0
    7.6045    5.0758  -22.7593 H   0  0  0  0  0  0  0  0  0  0  0  0
    5.2963    4.6147  -23.9837 H   0  0  0  0  0  0  0  0  0  0  0  0
    5.5836    2.8459  -23.8593 H   0  0  0  0  0  0  0  0  0  0  0  0
    5.4409    4.8948  -21.4863 H   0  0  0  0  0  0  0  0  0  0  0  0
    4.6752    3.9790  -16.7748 H   0  0  0  0  0  0  0  0  0  0  0  0
    5.8973    2.6633  -16.8165 H   0  0  0  0  0  0  0  0  0  0  0  0
    6.3962    4.3624  -17.1176 H   0  0  0  0  0  0  0  0  0  0  0  0
    3.3587    2.6802  -21.0691 H   0  0  0  0  0  0  0  0  0  0  0  0
    2.0260    3.7222  -19.1585 H   0  0  0  0  0  0  0  0  0  0  0  0
    2.9096    4.1488  -17.7312 H   0  0  0  0  0  0  0  0  0  0  0  0
  1  2  1  0  0  0  0
  1  3  2  0  0  0  0
  2  8  2  0  0  0  0
  3 10  1  0  0  0  0
  4  8  1  0  0  0  0
  4 10  2  0  0  0  0
  5  9  1  0  0  0  0
  5 11  2  0  0  0  0
  6  9  2  0  0  0  0
  6 19  1  0  0  0  0
  7 11  1  0  0  0  0
  7 19  2  0  0  0  0
  8  9  1  0  0  0  0
 10 17  1  0  0  0  0
 11 24  1  0  0  0  0
 12 17  1  0  0  0  0
 12 20  1  0  0  0  0
 12 23  2  0  0  0  0
 13 20  1  0  0  0  0
 13 21  2  0  0  0  0
 13 22  1  0  0  0  0
 14 15  1  0  0  0  0
 14 16  1  0  0  0  0
 15 16  1  0  0  0  0
 16 17  1  0  0  0  0
 17 21  1  0  0  0  0
 18 20  1  0  0  0  0
  1 25  1  0  0  0  0
  2 26  1  0  0  0  0
  3 27  1  0  0  0  0
  4 28  1  0  0  0  0
  5 29  1  0  0  0  0
  6 30  1  0  0  0  0
  7 31  1  0  0  0  0
 14 32  1  0  0  0  0
 14 33  1  0  0  0  0
 15 34  1  0  0  0  0
 15 35  1  0  0  0  0
 16 36  1  0  0  0  0
 18 37  1  0  0  0  0
 18 38  1  0  0  0  0
 18 39  1  0  0  0  0
 21 40  1  0  0  0  0
 22 41  1  0  0  0  0
 22 42  1  0  0  0  0
M  CHG  1  21   1
M  END
> <OMEGA_C>
r0XZQOIeEL/QlbTBsarIQEgiwr8Zdq3BAQbSQJNnTz/D4rLBvxWoQElNiz45FKPBJ4i4QIYCScD0
SZnB5h5oQLsC/r9BV5nBoO93QJfsecBgwI7BFvmvQJXDjL+5pqTBBrqeQO6JBcDQCZ3BGLm4QDt9
oD+RKKrBDgSnQAiXgcAZ8pHBgMLJQAEAQEA+ypzB2kOCQDi+WEBrL5rBOePjQDzsgkBaYbXBPLi4
QMqYdEAcG7vBjqK6QA0VfEC96a7BEqmxQNOAL0AoFKfBwQmzQH3ZZ0DfF4rBi7hGQCfpOMCmcZLB
9TOrQPEpXEAalZXB8p6EQKbfOUCA8KPBQCM5QAuPckDFUJXBpjHwQBA7NkDmO5vBPke/QPSjocAu
843BZb3rQLSdYr8Ga7vBkdLOQLJPJMC/vK7BYeDfQDNOxD8dSbjBu/GUQLjTFT/mVZzBcyfZQOjb
T8CCApzBo7RAQFVClb/tFJzBfqZcQGjTk8ArPonB5on8QEmmU0AtFLXB51fzQAttokAOE7bBKnup
QG6rk0Cw3r/BKa2yQA4jNkDQ377B0huuQICinEAA5KvBMpuVQDCofkC0MobBRra8QM5yKkAqiIbB
tq3MQLSYi0DN8IjBO/VWQHeIK0BrjajBBqoBQEw5bkClRJnB/DY6QJDChEBs2Y3BMAPZQAj8Ib9f
JrXB4qXIQKz3xr/es63Bve/PQLrvPD+MFrTBRj+mQLG/iT6UC6TB0DBuQC5X6L/xt5fBDYa0QM6v
UMBhrZrBlW2AQA9TesBfNY7BmyKvQLHijb+JEaXB4QieQPJmBMBAGJ3By6+1QLrgmT//oKvB1XJQ
QA/gL8CcNJDBkXypQG0XWkC6ErXBzVrjQHiSh0Au5avBVCWFQBXvQUDuZJfBfZd5QKHiiUBp5p3B
kkyDQBwdPkC6sqPBx9+sQHsXLUAoTqrBgizXQAF+o0Btvr7BR7qlQNbKhMAPZJPBV0LKQKgbi0B5
MLXBR63SQNTWVUBNZqXB+gUEQQYXn0D0p6nBxY+PQDItS0DjM7zBYuQFQKMuIsCS+IrBvpzsQBiX
er+NtLvBlpfPQA3UJsDFlK7BchHdQPKLuD+vwrnBMVuTQK7iHT/GXZ3BSSBKQPHLar8LXpnBYkbS
QB3VXcBKwZ7Bn/NpQC8clMDJaojBo9qjQA5KOUAQO5PBOpdWQIVlJUCJmpLBiPA5QGvpmEDiwJ3B
SoeVQLDbokBpYZ7BJjVMQNk5IUC2CKfBsMLxQC4KuUAVr7zBEobhQB4yjUDoCsXBFuC7QNdytkCf
pMHBhBLeQDPVR0DJIZ7BHsALQVC1mkCvvKLBsX0JQdJitEDz9q7BtsPkQJD3GL84jLHBhA3QQDYV
yL9oRqvBesTaQFahQj9+RrDBvMOmQHQyQj7JdKLB4Z60QK6pU8DuPpnBKjFkQNL2AsBFRZnBpGlr
QE+agcAnjo/BWkmxQCpHlr/3mqPB9hWdQNTeC8Bwq5zBYL66QJlSlT848KjBWLKgQHPeh8BBmZLB
kObKQHKzS0AJMZ7BFSiEQJwrVkAQ9JnBD+SbQGjZRkAda7vBijWZQJvBj0BALbbB5OC4QHiJXECT
4LHBcaqwQDq+KUA4X6fBojS5QDhue0CmdovB8ng+QHoEPsAr5ZLBTvitQFT3VkCp5ZXBeEmEQArp
NUDfpaPBPrI/QBgtckDKnJTBjKTxQOz+V0AyG57Bwqi2QPh/qsBFK4/Bz238QMRPZr+1XLfBEqjX
QHn0JsD/T6zBjp7rQKRTwD9S7bTBYUuPQNj4+j5plpzB+3jVQHU6XMCbtJvBcdw/QBKhl78S0pvB
ibRMQG3hmMCMc4rBRHyBQJr2GEDcb7rBT7qpQP38P0DkdsPBJCOlQKMWrEC3drrBMcp5QHGTmECv
b7HBbr3aQMTzZ0DAz7PBJJmcQLlbfUB3V4bBzeLRQEmPU0DHpofBtZPFQGdfnkAlkYzBdDpUQKOn
J0BT5KfBwHIGQMJ4bkCtKJjBp5lEQLAIhUBWN43BOxXVQGNLGL+Q3bTB6kjEQKryxL+gtK3BiMvP
QOQhSD8H+bLBzRmnQDhgiT6J5KLBoCJmQJu7AMCq45jB5Sy3QOvMS8DEsZnBZHaAQLfvgcD19Y7B
MGGtQEgjjr9/o6TB6gCdQFSiBsDV8ZzBCEe4QNoJnz9q/6nBlgdJQH8UQcDD75HBbOPJQN/EPUCu
Z5zB4ICCQNAHWEDcOZrB7IHnQD2QgEBfKLXBC5G7QBh7dkCtx7rBTE6+QNqie0BXk67BKdOyQHND
L0BO5abBXVqyQAyybkCiJIrBvvCoQEQRhMCWyZLBjQmqQDBbT0B6A5XBLZ+FQBCAPEBfHqTBOGg6
QBypd0CutZXBdqvwQNOsPED/65rBi47vP6uwP8CtO47B0TPmQIh6bb8O4rvBZe3IQDL8JcCBJq/B
UtDdQPuMvz+Oa7jB+OGUQAuVFz/XBZzB3Bw9QLfYl79TE5vBvFTXQEuTUMDQzZzBsKdqQMBVmsDw
gonBGnz+QKfMS0AqEbXBb/L4QLQMn0BovrXBFMitQKTxlUC0XL/Bv1GzQIaWOUB3r77BEPyzQBTx
nEAqYKvBWtCTQKKMd0DG6IXB/hbGQCDWP0AZz4XBwGbDQCMZlkDJj4rBHtJZQBEXMkAwCKnBk74E
QMuNekDbDZrBQkE6QNXKhUB1G47B

> <OMEGA_E>
hM+pPsZKhz9IQAE/tK4BPw==

> <OMEGA_NBR>
    220502

$$$$
50216014
  -OEChem-04172616093D

 43 46  0     1  0  0  0  0  0999 V2000
    2.0310   -2.5343  -17.3203 C   0  0  0  0  0  0  0  0  0  0  0  0
    6.7758   -0.6309  -22.6361 C   0  0  0  0  0  0  0  0  0  0  0  0
    6.2649   -1.5564  -21.7087 C   0  0  0  0  0  0  0  0  0  0  0  0
    6.4950    0.7398  -22.4957 C   0  0  0  0  0  0  0  0  0  0  0  0
    3.7234   -1.8252  -18.9564 C   0  0  0  0  0  0  0  0  0  0  0  0
    5.1967    0.2629  -20.4895 C   0  0  0  0  0  0  0  0  0  0  0  0
    4.0170   -3.9259  -17.7740 C   0  0  0  0  0  0  0  0  0  0  0  0
    5.6407   -3.2713  -19.3352 C   0  0  0  0  0  0  0  0  0  0  0  0
    3.2601   -2.7605  -18.0175 C   0  0  0  0  0  0  0  0  0  0  0  0
    5.4715   -1.1143  -20.6251 C   0  0  0  0  0  0  0  0  0  0  0  0
    4.9384   -2.0780  -19.6315 C   0  0  0  0  0  0  0  0  0  0  0  0
    5.6775    1.1997  -21.4343 C   0  0  0  0  0  0  0  0  0  0  0  0
    5.2952    3.4119  -22.6027 C   0  0  0  0  0  0  0  0  0  0  0  0
    7.0737    4.2706  -21.4310 C   0  0  0  0  0  0  0  0  0  0  0  0
    4.1599    3.0149  -18.8964 C   0  0  0  0  0  0  0  0  0  0  0  0
    3.8979    4.2974  -19.7032 C   0  0  0  0  0  0  0  0  0  0  0  0
    4.1030    2.9628  -20.4347 C   0  0  0  0  0  0  0  0  0  0  0  0
    5.4028    2.7010  -21.2614 C   0  0  1  0  0  0  0  0  0  0  0  0
    6.6635    5.1942  -23.7630 C   0  0  0  0  0  0  0  0  0  0  0  0
    1.0293   -2.3480  -16.7532 N   0  0  0  0  0  0  0  0  0  0  0  0
    5.1802   -4.1629  -18.4263 N   0  0  0  0  0  0  0  0  0  0  0  0
    6.2877    4.3845  -22.5914 N   0  0  0  0  0  0  0  0  0  0  0  0
    6.5838    3.3352  -20.6449 N   0  3  0  0  0  0  0  0  0  0  0  0
    8.1939    5.0370  -21.1294 N   0  0  0  0  0  0  0  0  0  0  0  0
    4.5019    3.1663  -23.5057 O   0  0  0  0  0  0  0  0  0  0  0  0
    7.3857   -0.9739  -23.4588 H   0  0  0  0  0  0  0  0  0  0  0  0
    6.4792   -2.6086  -21.8246 H   0  0  0  0  0  0  0  0  0  0  0  0
    6.9054    1.4465  -23.2017 H   0  0  0  0  0  0  0  0  0  0  0  0
    3.1599   -0.9264  -19.1592 H   0  0  0  0  0  0  0  0  0  0  0  0
    4.6097    0.6075  -19.6510 H   0  0  0  0  0  0  0  0  0  0  0  0
    3.6609   -4.6451  -17.0513 H   0  0  0  0  0  0  0  0  0  0  0  0
    6.5688   -3.4759  -19.8481 H   0  0  0  0  0  0  0  0  0  0  0  0
    5.1194    2.8783  -18.3761 H   0  0  0  0  0  0  0  0  0  0  0  0
    3.3523    2.5651  -18.3002 H   0  0  0  0  0  0  0  0  0  0  0  0
    2.9028    4.7657  -19.6830 H   0  0  0  0  0  0  0  0  0  0  0  0
    4.6699    5.0790  -19.7589 H   0  0  0  0  0  0  0  0  0  0  0  0
    3.1912    2.5126  -20.8541 H   0  0  0  0  0  0  0  0  0  0  0  0
    7.4723    5.8866  -23.4867 H   0  0  0  0  0  0  0  0  0  0  0  0
    7.0080    4.5319  -24.5709 H   0  0  0  0  0  0  0  0  0  0  0  0
    5.7907    5.7686  -24.1068 H   0  0  0  0  0  0  0  0  0  0  0  0
    6.9605    3.0882  -19.7521 H   0  0  0  0  0  0  0  0  0  0  0  0
    8.6812    4.8930  -20.2681 H   0  0  0  0  0  0  0  0  0  0  0  0
    8.5123    5.7323  -21.7738 H   0  0  0  0  0  0  0  0  0  0  0  0
  1  9  1  0  0  0  0
  1 20  3  0  0  0  0
  2  3  1  0  0  0  0
  2  4  2  0  0  0  0
  3 10  2  0  0  0  0
  4 12  1  0  0  0  0
  5  9  2  0  0  0  0
  5 11  1  0  0  0  0
  6 10  1  0  0  0  0
  6 12  2  0  0  0  0
  7  9  1  0  0  0  0
  7 21  2  0  0  0  0
  8 11  2  0  0  0  0
  8 21  1  0  0  0  0
 10 11  1  0  0  0  0
 12 18  1  0  0  0  0
 13 18  1  0  0  0  0
 13 22  1  0  0  0  0
 13 25  2  0  0  0  0
 14 22  1  0  0  0  0
 14 23  2  0  0  0  0
 14 24  1  0  0  0  0
 15 16  1  0  0  0  0
 15 17  1  0  0  0  0
 16 17  1  0  0  0  0
 17 18  1  0  0  0  0
 18 23  1  0  0  0  0
 19 22  1  0  0  0  0
  2 26  1  0  0  0  0
  3 27  1  0  0  0  0
  4 28  1  0  0  0  0
  5 29  1  0  0  0  0
  6 30  1  0  0  0  0
  7 31  1  0  0  0  0
  8 32  1  0  0  0  0
 15 33  1  0  0  0  0
 15 34  1  0  0  0  0
 16 35  1  0  0  0  0
 16 36  1  0  0  0  0
 17 37  1  0  0  0  0
 19 38  1  0  0  0  0
 19 39  1  0  0  0  0
 19 40  1  0  0  0  0
 23 41  1  0  0  0  0
 24 42  1  0  0  0  0
 24 43  1  0  0  0  0
M  CHG  1  23   1
M  END
> <OMEGA_C>
r/wBQOgxIsD9j4rBJNPYQMCCIb/JFrXBrXnIQA85x790q63BKtfPQJljPT8k97PBuExuQL6e6b+d
ppfBFEumQN+Vhj6Q6qPB6YqAQG5Be8AfMY7BaYC0QMpdUcB0rprBK6ZQQKqsMMDpI5DByRavQPyi
jr85AKXB+AaeQCn+BMBJDZ3BYK61QDuPmT+DeavBinKpQA9dWkBe0rTBq1viQLmoiEClcqvBlR2F
QGD0QEDJK5fBqHZ5QEOEiUAqoJ3Br0uDQPSdPUA8eqPBgOOsQG7cLEBGF6rBnjvVQL02pkCnGr7B
d7+DP8NFFsCkBobBFMSlQNQ2hcD8aJPBbzTJQP1NjEAlu7TBRq7SQFdzVUDIKKXBUBoDQUwvoUAE
CanBcg+QQBKkSkCUC7zBblfsQCZUeb+Rq7vB0lXPQNryJsDcmK7BGfncQD4ouT8enbnBMTxKQCMr
bb8iRpnBzoKTQA+DGz8/NZ3BZ0xqQLqklMD8aIjB2TPSQFR0XsD1yJ7BENKjQIY2OEBZApPBR4tW
QLEqJEDMZpLB0cY5QP6AmEDDdp3B1W+VQOmGokBPEp7BBTxMQKHOIEBD1abBdB3vQAJfvECr5LvB
xkHgQJkFkUBJkcTBok25QLiYuEDN2sDBdLzeQAalRUBXBJ7BMeYKQVmTnEAZJaLBfDIIQdJut0C7
MK7BjtHoP5clQMCpvI3BugvWQFciGL+QvrTB+IHEQJoIxb+Lt63Byq/QQD70Rz/B1bLBZ/ZlQFhk
AMCQzpjBKG2mQCJIhz4CBaPBIOiAQCrigcDB8I7BuMG2QCVlTMBi9ZnB58RJQKTBQMBmyJHB0N2s
QKqHjr91wqTBJpGcQBDeBsAFEp3Bjj24QFisnj/HAarBNt7JQOWGPUCgZJzBsH6CQArFV0AmM5rB
1gvoQAyNgECQ5rTBvra8QIlWdUDmxrrB/j++QD0ye0AtkK7BXMKyQCv2LkBe4KbB+nKyQFMTb0DR
JorB/Ho6P8S7QMDpcYrBYvuoQD4/hMBE+pLBhA6qQGkyT0Cz/pTBxI+FQMYbPEBgFqTBgYA6QHrB
d0DlsZXBCKzwQK5KPUD48JrBdsrnQMbEbL+0q7vB9SLJQA0DJsAbLa/Bvl7fQD2svz9YKLjBeOI8
QGerlr9W4ZrBUZiTQKUFFj9pP5zBFj5sQDAumsBZa4nB75vWQHOdUcAwP53BR0D/QPw1TEAxoLTB
7UH5QJQun0Akb7XBzSGvQLoelUCdfL/BJyC1QEkWOECqrb7BUVGzQFavnEAweKvBK/KTQF7md0CT
5oXBSFLGQDKMQEDrzIXBFmLDQKlWlkAboIrBg6dZQK6PMUAq/ajBO98EQIHRekA5C5rBSmU6QFfi
hUCZGI7BmbK5QK7MNcAJfX/BIaO1QPXPCb9VpbfBi/muQFqRw7/l16/BJwK4QLmrUD/pqrTBQy+y
QI1EAMAjIJLBRiqsQITtRz47DaLBAuuUQMe7hcD8i43BiLONQNfSWcA0KZ/Bk9uqQNVuQMBwfYrB
KEeqQFpNlb/o+KTBL1mjQFbCDMBdrZzBXxC0QF8EmT+5xqnB+2zIQHwvNkC+MJvBycOCQGQAZUCf
DpvBRSG4QKW+g0B3YbjB9sLGQF6IoUAoS6/B6sbOQDhjYkBre67Bqj61QGDVKkAEVabBCnqrQH/7
akATeInB+NfFQHrwLMDn/G3B3dWGQFGFi8CesZfBjNCoQEC+XUCgH5XBJfCIQO+zSUAL6KTBQlQ4
QEOugkBmRpfBxB/sQI38H0DSMZjBsfG4QNpvUb8n87/B6m+tQKVPJMDkJ7LBpN68QCQgyT8vt7rB
n+XCQDCSjL9X94/BlICnQDLr8z6dypnB1TiPQGNlnsAAqofB0V6CQNwJZMAPOafB0dOVQHBxe0Bo
qLnBy63IQDhphEBQJcDBysLhQM6Jt0BrkLDB0OiuQE7ZsECEE6rBuhrwQNszTkCsxK/B8WCOQH/O
hUA/qYbBvWuuQGitLEBRcIXB7KDHQNlDiUBBm4fBzkZlQGPbSUDcpKrB368FQHR/hEA8JZzBOHYz
QFd/jEBhr4/B

> <OMEGA_E>
QAWMPyyLFz9Y01U/

> <OMEGA_NBR>
    223059

$$$$
50222406
  -OEChem-04172616093D

 42 44  0     1  0  0  0  0  0999 V2000
    6.6209    5.4222  -24.1847 C   0  0  0  0  0  0  0  0  0  0  0  0
    7.5689    5.1169  -23.1916 C   0  0  0  0  0  0  0  0  0  0  0  0
    5.3437    4.8334  -24.1434 C   0  0  0  0  0  0  0  0  0  0  0  0
    7.2371    4.2357  -22.1470 C   0  0  0  0  0  0  0  0  0  0  0  0
    5.0074    3.9511  -23.1012 C   0  0  0  0  0  0  0  0  0  0  0  0
    5.9389    3.6650  -22.0722 C   0  0  0  0  0  0  0  0  0  0  0  0
    6.3092    2.9906  -19.6389 C   0  0  0  0  0  0  0  0  0  0  0  0
    4.0919    3.4642  -19.3176 C   0  0  0  0  0  0  0  0  0  0  0  0
    6.4778   -1.6279  -21.4474 C   0  0  0  0  0  0  0  0  0  0  0  0
    6.7192   -0.6619  -22.6268 C   0  0  0  0  0  0  0  0  0  0  0  0
    5.2339   -1.2259  -20.6305 C   0  0  0  0  0  0  0  0  0  0  0  0
    6.8251    0.7996  -22.1468 C   0  0  0  0  0  0  0  0  0  0  0  0
    5.3277    0.2394  -20.1658 C   0  0  0  0  0  0  0  0  0  0  0  0
    5.5423    1.2045  -21.3756 C   0  0  0  0  0  0  0  0  0  0  0  0
    5.5390    2.7122  -20.9322 C   0  0  2  0  0  0  0  0  0  0  0  0
    5.6271    3.7264  -17.3293 C   0  0  0  0  0  0  0  0  0  0  0  0
    5.3757    3.5164  -18.7597 N   0  0  0  0  0  0  0  0  0  0  0  0
    4.1560    3.0414  -20.5541 N   0  3  0  0  0  0  0  0  0  0  0  0
    2.9062    3.7946  -18.6804 N   0  0  0  0  0  0  0  0  0  0  0  0
    7.4809    2.7332  -19.3830 O   0  0  0  0  0  0  0  0  0  0  0  0
    6.8733    6.1089  -24.9791 H   0  0  0  0  0  0  0  0  0  0  0  0
    8.5531    5.5598  -23.2313 H   0  0  0  0  0  0  0  0  0  0  0  0
    4.6207    5.0594  -24.9131 H   0  0  0  0  0  0  0  0  0  0  0  0
    7.9745    3.9913  -21.3967 H   0  0  0  0  0  0  0  0  0  0  0  0
    4.0319    3.4880  -23.0850 H   0  0  0  0  0  0  0  0  0  0  0  0
    6.3325   -2.6442  -21.8424 H   0  0  0  0  0  0  0  0  0  0  0  0
    7.3581   -1.6132  -20.7880 H   0  0  0  0  0  0  0  0  0  0  0  0
    7.6557   -0.9412  -23.1317 H   0  0  0  0  0  0  0  0  0  0  0  0
    5.8817   -0.7459  -23.3349 H   0  0  0  0  0  0  0  0  0  0  0  0
    4.3377   -1.3479  -21.2565 H   0  0  0  0  0  0  0  0  0  0  0  0
    5.1566   -1.8786  -19.7484 H   0  0  0  0  0  0  0  0  0  0  0  0
    7.6959    0.9017  -21.4825 H   0  0  0  0  0  0  0  0  0  0  0  0
    6.9490    1.4600  -23.0178 H   0  0  0  0  0  0  0  0  0  0  0  0
    4.3951    0.5125  -19.6503 H   0  0  0  0  0  0  0  0  0  0  0  0
    6.1742    0.3417  -19.4709 H   0  0  0  0  0  0  0  0  0  0  0  0
    4.6911    1.0657  -22.0583 H   0  0  0  0  0  0  0  0  0  0  0  0
    4.7297    4.1531  -16.8575 H   0  0  0  0  0  0  0  0  0  0  0  0
    5.8686    2.7640  -16.8544 H   0  0  0  0  0  0  0  0  0  0  0  0
    6.4720    4.4195  -17.2036 H   0  0  0  0  0  0  0  0  0  0  0  0
    3.3676    2.9534  -21.1628 H   0  0  0  0  0  0  0  0  0  0  0  0
    2.0371    3.7149  -19.1686 H   0  0  0  0  0  0  0  0  0  0  0  0
    2.9198    4.1127  -17.7324 H   0  0  0  0  0  0  0  0  0  0  0  0
  1  2  1  0  0  0  0
  1  3  2  0  0  0  0
  2  4  2  0  0  0  0
  3  5  1  0  0  0  0
  4  6  1  0  0  0  0
  5  6  2  0  0  0  0
  6 15  1  0  0  0  0
  7 15  1  0  0  0  0
  7 17  1  0  0  0  0
  7 20  2  0  0  0  0
  8 17  1  0  0  0  0
  8 18  2  0  0  0  0
  8 19  1  0  0  0  0
  9 10  1  0  0  0  0
  9 11  1  0  0  0  0
 10 12  1  0  0  0  0
 11 13  1  0  0  0  0
 12 14  1  0  0  0  0
 13 14  1  0  0  0  0
 14 15  1  0  0  0  0
 15 18  1  0  0  0  0
 16 17  1  0  0  0  0
  1 21  1  0  0  0  0
  2 22  1  0  0  0  0
  3 23  1  0  0  0  0
  4 24  1  0  0  0  0
  5 25  1  0  0  0  0
  9 26  1  0  0  0  0
  9 27  1  0  0  0  0
 10 28  1  0  0  0  0
 10 29  1  0  0  0  0
 11 30  1  0  0  0  0
 11 31  1  0  0  0  0
 12 32  1  0  0  0  0
 12 33  1  0  0  0  0
 13 34  1  0  0  0  0
 13 35  1  0  0  0  0
 14 36  1  0  0  0  0
 16 37  1  0  0  0  0
 16 38  1  0  0  0  0
 16 39  1  0  0  0  0
 18 40  1  0  0  0  0
 19 41  1  0  0  0  0
 19 42  1  0  0  0  0
M  CHG  1  18   1
M  END
> <OMEGA_C>
IN7TQNqCrUAyesHBDjTyQH29o0BeiLnB8f+qQFOrmkCuJcHB95XnQJuKh0AVLbHBnDygQAbefEBW
z7jBGgu+QL6OakDtk7DBvuTJQLRmP0B0HJ3BO/GCQC62XUBhiprBUUrPQHpf0L9blKvB5gPXQJl0
Kb+nA7XBs3unQK7qnL8yC6XBXWfaQJa0TD++LLHBVnyqQPgodT6EU6HBy1qxQGEumj9JAavBID+x
QFaVLUAXdafBnBG0QHR9bkBroorBkAWsQFIMYUDwE5bBLv6EQN6lQkDCbqTBIv85QO7ackBjcZXB
NGPvQGztLkBfEJvBb/LbQNR7w0BD1cfBUNkIQdvpsUCf2bnBbtyTQD/moUAbTsfBwC7/QEByf0B5
LKvB+gSBQLU6X0ANrrjBdqPKQPU6KcA1va7Bl3XrQIN+zr/ITabBy/v0QFnxcL/IDbnByTa8QO70
Pr/xrbrBCs6KQL+IrL9aDarBzQKlQGx28L/C/J3Bq0T2QMTUZj8q3KvBmF7eQLTfuj+GJLjBvqSM
QO00Az/MM53BYZPFQCL1rj5kxJvBVx2WQEhoiD94d7DBA1qXQPXlhEAk3IbBK8u7QKLlMEDU1YbB
/xrPQFZsjUDroInBBYZXQEoEPUB3TanBhGACQLXAbUBRWZnBkd06QCObg0Dz243B

> <OMEGA_E>
jLoRPw==

> <OMEGA_NBR>
    224064

$$$$
50222474
  -OEChem-04172616093D

 50 54  0     1  0  0  0  0  0999 V2000
    6.6976    5.4289  -24.1645 C   0  0  0  0  0  0  0  0  0  0  0  0
    7.6766    5.0565  -23.2259 C   0  0  0  0  0  0  0  0  0  0  0  0
    5.4026    4.8892  -24.0796 C   0  0  0  0  0  0  0  0  0  0  0  0
    7.3594    4.1592  -22.1893 C   0  0  0  0  0  0  0  0  0  0  0  0
    5.0776    4.0014  -23.0395 C   0  0  0  0  0  0  0  0  0  0  0  0
    6.0403    3.6529  -22.0521 C   0  0  0  0  0  0  0  0  0  0  0  0
    6.3448    3.1269  -19.5673 C   0  0  0  0  0  0  0  0  0  0  0  0
    4.0969    3.3728  -19.2786 C   0  0  0  0  0  0  0  0  0  0  0  0
    4.8928   -1.2666  -22.7972 C   0  0  0  0  0  0  0  0  0  0  0  0
    7.2775   -1.3152  -22.0035 C   0  0  0  0  0  0  0  0  0  0  0  0
    5.3983   -1.7614  -20.3748 C   0  0  0  0  0  0  0  0  0  0  0  0
    6.2160    0.8774  -22.6620 C   0  0  0  0  0  0  0  0  0  0  0  0
    4.3333    0.4304  -21.0216 C   0  0  0  0  0  0  0  0  0  0  0  0
    6.7217    0.3891  -20.2355 C   0  0  0  0  0  0  0  0  0  0  0  0
    6.2925   -0.6342  -22.9777 C   0  0  0  0  0  0  0  0  0  0  0  0
    4.4038   -1.0818  -21.3400 C   0  0  0  0  0  0  0  0  0  0  0  0
    6.7978   -1.1272  -20.5448 C   0  0  0  0  0  0  0  0  0  0  0  0
    5.6338    2.7290  -20.8742 C   0  0  2  0  0  0  0  0  0  0  0  0
    5.7285    1.1409  -21.1947 C   0  0  0  0  0  0  0  0  0  0  0  0
    5.5621    3.6841  -17.2437 C   0  0  0  0  0  0  0  0  0  0  0  0
    5.3362    3.3007  -18.6406 N   0  0  0  0  0  0  0  0  0  0  0  0
    4.2382    3.1076  -20.5516 N   0  3  0  0  0  0  0  0  0  0  0  0
    2.8801    3.6578  -18.6798 N   0  0  0  0  0  0  0  0  0  0  0  0
    7.5441    3.1524  -19.3101 O   0  0  0  0  0  0  0  0  0  0  0  0
    6.9408    6.1291  -24.9500 H   0  0  0  0  0  0  0  0  0  0  0  0
    8.6753    5.4606  -23.3010 H   0  0  0  0  0  0  0  0  0  0  0  0
    4.6570    5.1566  -24.8138 H   0  0  0  0  0  0  0  0  0  0  0  0
    8.1258    3.8532  -21.4926 H   0  0  0  0  0  0  0  0  0  0  0  0
    4.0850    3.5788  -22.9894 H   0  0  0  0  0  0  0  0  0  0  0  0
    4.1835   -0.7797  -23.4826 H   0  0  0  0  0  0  0  0  0  0  0  0
    4.9473   -2.3407  -23.0283 H   0  0  0  0  0  0  0  0  0  0  0  0
    7.3319   -2.3897  -22.2330 H   0  0  0  0  0  0  0  0  0  0  0  0
    8.2742   -0.8646  -22.1197 H   0  0  0  0  0  0  0  0  0  0  0  0
    5.0564   -1.6225  -19.3386 H   0  0  0  0  0  0  0  0  0  0  0  0
    5.4529   -2.8363  -20.6019 H   0  0  0  0  0  0  0  0  0  0  0  0
    7.2152    1.3191  -22.7902 H   0  0  0  0  0  0  0  0  0  0  0  0
    5.5126    1.3524  -23.3618 H   0  0  0  0  0  0  0  0  0  0  0  0
    3.6088    0.9022  -21.7016 H   0  0  0  0  0  0  0  0  0  0  0  0
    3.9974    0.5582  -19.9819 H   0  0  0  0  0  0  0  0  0  0  0  0
    6.3816    0.5225  -19.1980 H   0  0  0  0  0  0  0  0  0  0  0  0
    7.7248    0.8252  -20.3515 H   0  0  0  0  0  0  0  0  0  0  0  0
    6.6341   -0.7798  -24.0131 H   0  0  0  0  0  0  0  0  0  0  0  0
    3.4069   -1.5319  -21.2239 H   0  0  0  0  0  0  0  0  0  0  0  0
    7.5083   -1.6090  -19.8570 H   0  0  0  0  0  0  0  0  0  0  0  0
    4.5966    3.7545  -16.7215 H   0  0  0  0  0  0  0  0  0  0  0  0
    6.1902    2.9263  -16.7526 H   0  0  0  0  0  0  0  0  0  0  0  0
    6.0696    4.6595  -17.2089 H   0  0  0  0  0  0  0  0  0  0  0  0
    3.4980    3.1544  -21.2223 H   0  0  0  0  0  0  0  0  0  0  0  0
    2.0435    3.6685  -19.2276 H   0  0  0  0  0  0  0  0  0  0  0  0
    2.8386    3.8526  -17.6998 H   0  0  0  0  0  0  0  0  0  0  0  0
  1  2  1  0  0  0  0
  1  3  2  0  0  0  0
  2  4  2  0  0  0  0
  3  5  1  0  0  0  0
  4  6  1  0  0  0  0
  5  6  2  0  0  0  0
  6 18  1  0  0  0  0
  7 18  1  0  0  0  0
  7 21  1  0  0  0  0
  7 24  2  0  0  0  0
  8 21  1  0  0  0  0
  8 22  2  0  0  0  0
  8 23  1  0  0  0  0
  9 15  1  0  0  0  0
  9 16  1  0  0  0  0
 10 15  1  0  0  0  0
 10 17  1  0  0  0  0
 11 16  1  0  0  0  0
 11 17  1  0  0  0  0
 12 15  1  0  0  0  0
 12 19  1  0  0  0  0
 13 16  1  0  0  0  0
 13 19  1  0  0  0  0
 14 17  1  0  0  0  0
 14 19  1  0  0  0  0
 18 19  1  0  0  0  0
 18 22  1  0  0  0  0
 20 21  1  0  0  0  0
  1 25  1  0  0  0  0
  2 26  1  0  0  0  0
  3 27  1  0  0  0  0
  4 28  1  0  0  0  0
  5 29  1  0  0  0  0
  9 30  1  0  0  0  0
  9 31  1  0  0  0  0
 10 32  1  0  0  0  0
 10 33  1  0  0  0  0
 11 34  1  0  0  0  0
 11 35  1  0  0  0  0
 12 36  1  0  0  0  0
 12 37  1  0  0  0  0
 13 38  1  0  0  0  0
 13 39  1  0  0  0  0
 14 40  1  0  0  0  0
 14 41  1  0  0  0  0
 15 42  1  0  0  0  0
 16 43  1  0  0  0  0
 17 44  1  0  0  0  0
 20 45  1  0  0  0  0
 20 46  1  0  0  0  0
 20 47  1  0  0  0  0
 22 48  1  0  0  0  0
 23 49  1  0  0  0  0
 23 50  1  0  0  0  0
M  CHG  1  22   1
M  END
> <OMEGA_C>
+FLWQG65rUDvUMHBfKb1QLPOoUCvzrnBAeKsQAF0nEAQo8DBiIDrQCAYhUDAg7HBn3uiQJQLgEDa
ULjB/UnBQMLJaUC6arDB8AjLQJIeSEDmiZzBdBmDQITcV0CoOprB4ZGcQKAgor+5YLbBMuHoQMtZ
qL8tB7DBub6sQGl24b+g/6LBdOnGQM6eYD/TS7XBzKqKQIRh3D4oLKjB3RfXQFQzxz5g4qHB2VvJ
QPtdIr9A0rfBDOyMQLh3ir9EuKrBgofZQB1JkL/QW6TBFEi0QJCnLkBb/qbBBVC3QIkHkj+zjqnB
Gv2xQMbIa0Az84nB3MGqQBo+U0ANIJXBrp+HQEbiRkCxaaTBIVM4QMgYakAlcJXBhmnxQKDASUAm
e5rB9BreQJshxECVmcfBAs4KQU+9rkBtaLrBggaVQDwDpUCogsbBOQMCQUebdkDB8KvBEriCQD4L
ZUA66rfB8t6FQPiYR79Y3LvBZlCeQAzOFcDlObjBxZ7qQB3wGMA13bHBCmMEQStUXb8k9bDB0M2h
QAivz79ktZrBg36uQIuGNcC/0KTBHePmQLTZqD9XUrbBcGewQIoarT/55LrBOPdmQCL3Zj/3nK3B
NdV/QPzmDj8G25/B3jXMQEjABT9wlZnBtjH3QARBUz/wz6LBvkrUQIehR7/GGsDBCgpaQGIVxL+F
yqnB8UPwQBn0zb8x257BUBeTQCBJcECXxYXB6RXGQNxHO0BZBYbBWzrCQDgalUDOq4nB5t5fQBjh
SUBCx6nBN8kCQDbJakAI0pnBKKs1QAaRdkAxmY3B

> <OMEGA_E>
ypw+Pw==

> <OMEGA_NBR>
    225203

$$$$
50218456
  -OEChem-04172616093D

 48 51  0     1  0  0  0  0  0999 V2000
    6.2998    5.3000  -24.4174 C   0  0  0  0  0  0  0  0  0  0  0  0
    7.3821    5.0044  -23.5722 C   0  0  0  0  0  0  0  0  0  0  0  0
    5.0382    4.7233  -24.1777 C   0  0  0  0  0  0  0  0  0  0  0  0
    6.6897   -0.6027  -22.6843 C   0  0  0  0  0  0  0  0  0  0  0  0
    5.2119   -4.0595  -18.2974 C   0  0  0  0  0  0  0  0  0  0  0  0
    6.1826   -1.5470  -21.7763 C   0  0  0  0  0  0  0  0  0  0  0  0
    5.7423   -3.1592  -19.2338 C   0  0  0  0  0  0  0  0  0  0  0  0
    7.2019    4.1416  -22.4823 C   0  0  0  0  0  0  0  0  0  0  0  0
    4.8460    3.8753  -23.0723 C   0  0  0  0  0  0  0  0  0  0  0  0
    6.5004    0.7713  -22.4540 C   0  0  0  0  0  0  0  0  0  0  0  0
    5.2450    0.2565  -20.4285 C   0  0  0  0  0  0  0  0  0  0  0  0
    3.8865   -3.8851  -17.8473 C   0  0  0  0  0  0  0  0  0  0  0  0
    3.6169   -1.9755  -19.1814 C   0  0  0  0  0  0  0  0  0  0  0  0
    5.4538   -1.1186  -20.6476 C   0  0  0  0  0  0  0  0  0  0  0  0
    4.9337   -2.0970  -19.6819 C   0  0  0  0  0  0  0  0  0  0  0  0
    5.9176    3.6063  -22.1856 C   0  0  0  0  0  0  0  0  0  0  0  0
    5.7724    1.2176  -21.3213 C   0  0  0  0  0  0  0  0  0  0  0  0
    6.3267    2.7756  -18.4847 C   0  0  0  0  0  0  0  0  0  0  0  0
    4.0713    3.3333  -19.1753 C   0  0  0  0  0  0  0  0  0  0  0  0
    6.7992    3.0143  -19.8948 C   0  0  0  0  0  0  0  0  0  0  0  0
    5.6969    2.7072  -20.9561 C   0  0  1  0  0  0  0  0  0  0  0  0
    4.7707    3.7340  -16.8039 C   0  0  0  0  0  0  0  0  0  0  0  0
    3.1150   -2.8632  -18.2916 N   0  0  0  0  0  0  0  0  0  0  0  0
    5.0379    3.1962  -18.1558 N   0  0  0  0  0  0  0  0  0  0  0  0
    4.3273    3.0130  -20.4240 N   0  3  0  0  0  0  0  0  0  0  0  0
    2.7854    3.7708  -18.8834 N   0  0  0  0  0  0  0  0  0  0  0  0
    7.1784    2.5916  -17.6229 O   0  0  0  0  0  0  0  0  0  0  0  0
    6.4358    5.9710  -25.2526 H   0  0  0  0  0  0  0  0  0  0  0  0
    8.3515    5.4411  -23.7619 H   0  0  0  0  0  0  0  0  0  0  0  0
    4.2152    4.9328  -24.8449 H   0  0  0  0  0  0  0  0  0  0  0  0
    7.2263   -0.9329  -23.5615 H   0  0  0  0  0  0  0  0  0  0  0  0
    5.8117   -4.8770  -17.9255 H   0  0  0  0  0  0  0  0  0  0  0  0
    6.3508   -2.6008  -21.9426 H   0  0  0  0  0  0  0  0  0  0  0  0
    6.7501   -3.2784  -19.6033 H   0  0  0  0  0  0  0  0  0  0  0  0
    8.0464    3.8806  -21.8617 H   0  0  0  0  0  0  0  0  0  0  0  0
    3.8785    3.4278  -22.8989 H   0  0  0  0  0  0  0  0  0  0  0  0
    6.9123    1.4923  -23.1446 H   0  0  0  0  0  0  0  0  0  0  0  0
    4.6760    0.5805  -19.5695 H   0  0  0  0  0  0  0  0  0  0  0  0
    3.4767   -4.5825  -17.1316 H   0  0  0  0  0  0  0  0  0  0  0  0
    2.9981   -1.1563  -19.5166 H   0  0  0  0  0  0  0  0  0  0  0  0
    7.0987    4.0683  -19.9925 H   0  0  0  0  0  0  0  0  0  0  0  0
    7.6668    2.3670  -20.0903 H   0  0  0  0  0  0  0  0  0  0  0  0
    3.7100    4.0136  -16.7230 H   0  0  0  0  0  0  0  0  0  0  0  0
    5.0061    2.9671  -16.0513 H   0  0  0  0  0  0  0  0  0  0  0  0
    5.3978    4.6212  -16.6319 H   0  0  0  0  0  0  0  0  0  0  0  0
    3.5584    2.9702  -21.0619 H   0  0  0  0  0  0  0  0  0  0  0  0
    2.1007    3.8310  -19.6098 H   0  0  0  0  0  0  0  0  0  0  0  0
    2.5444    4.0255  -17.9469 H   0  0  0  0  0  0  0  0  0  0  0  0
  1  2  1  0  0  0  0
  1  3  2  0  0  0  0
  2  8  2  0  0  0  0
  3  9  1  0  0  0  0
  4  6  1  0  0  0  0
  4 10  2  0  0  0  0
  5  7  2  0  0  0  0
  5 12  1  0  0  0  0
  6 14  2  0  0  0  0
  7 15  1  0  0  0  0
  8 16  1  0  0  0  0
  9 16  2  0  0  0  0
 10 17  1  0  0  0  0
 11 14  1  0  0  0  0
 11 17  2  0  0  0  0
 12 23  2  0  0  0  0
 13 15  2  0  0  0  0
 13 23  1  0  0  0  0
 14 15  1  0  0  0  0
 16 21  1  0  0  0  0
 17 21  1  0  0  0  0
 18 20  1  0  0  0  0
 18 24  1  0  0  0  0
 18 27  2  0  0  0  0
 19 24  1  0  0  0  0
 19 25  2  0  0  0  0
 19 26  1  0  0  0  0
 20 21  1  0  0  0  0
 21 25  1  0  0  0  0
 22 24  1  0  0  0  0
  1 28  1  0  0  0  0
  2 29  1  0  0  0  0
  3 30  1  0  0  0  0
  4 31  1  0  0  0  0
  5 32  1  0  0  0  0
  6 33  1  0  0  0  0
  7 34  1  0  0  0  0
  8 35  1  0  0  0  0
  9 36  1  0  0  0  0
 10 37  1  0  0  0  0
 11 38  1  0  0  0  0
 12 39  1  0  0  0  0
 13 40  1  0  0  0  0
 20 41  1  0  0  0  0
 20 42  1  0  0  0  0
 22 43  1  0  0  0  0
 22 44  1  0  0  0  0
 22 45  1  0  0  0  0
 25 46  1  0  0  0  0
 26 47  1  0  0  0  0
 26 48  1  0  0  0  0
M  CHG  1  25   1
M  END
> <OMEGA_C>
GZjJQFKZqUC8VsPBVDrsQN8joEDqk7zBUzmhQFUll0Dra8HBNxLWQMNIGr92ebXB1MemQGXngcAs
YZLBqtfFQJcDxr/ZNa7BGcG3QK0vSsDN3pnBI3bmQCGIhEDS27PBdBKbQGAEeEATlLjBdAPQQAJ1
RT++obPB3NanQN1Ugz5+baPB9Lt4QMWleMA+x47BFnxnQEPc/L+Xc5nBooWuQHUvj79ALqXBBuGd
QEc1BsBwdJ3BGF29QK3NZkAsfLHB27e4QO/bmz8DkqrBc3TKQLaiMUCw4JPBr0eCQFRVVUAOZ5nB
zpLZQNPqQECVKJ/B6Ey2QD1DLUAcpqfB9qmYQGv5bkB7bobBxFtHQPY+N8ApVZLBjzahQMGOTEAR
P5HBFnmKQAjVQEBBZKPBN0MyQLVUcUA/EZfBp7XlQG7dJUCj+4zBPfLNQAYSv0BgBcrBtp8FQcId
rkBNGL7BF+OGQHDZnUBTwsbBJT7nQBrUbr/afbzB0Pm5QAEQnMBvZ4/BijnLQOVyJsB3iq/BBgHY
QLrQUcCE05zB5b0AQY1ceEC35K7BUjl4QERgW0D3MLfB1DHdQHoDvz8VKLnB96GVQGmYFD9rjpzB
24JeQKKjksCDDYnBoOA/QCABlL8FIpzBTijjQCgvgkCp8J/BKVb1QG18F0DWuKDB+G9tQEdvgEDG
yIXB8TGgQJTkPUAOaYDB77qsQOXgk0AbDoXBkrxjQPIWPkC/fqjBQnIGQFIudUDt4JzBbNciQBHR
gEBFk4/B4t7NQBjKqEB3NMLBZPOlQAJilEAHMsHBtrztQIVIokCzb7rBYr3WQBZZK7/EubXBFHmn
QHeGgsBjXZLBVt3FQGMW0L9anq7BLhi3QEc8TcAKP5rBOBOeQCvqcUALf7jB6NrlQNJbh0Cwp7HB
ZNfOQIRIMz94ErTBArKhQL+eEj4RzaTB0wd7QErPecADc47Be2tlQOACA8CQkZnBHHmrQEfCm79M
D6bBQDicQCZIC8CV+Z3BYu29QEYCZEApnbDBJlu0QC8djz8XhKvBrEXPQIV/aEDQhJbBfhWDQMAe
XkBx3ZnBflrXQHhVIkDmfZ7BXNm0QK/LI0ANjqfBWtucQEsbikC7IYjB2RNIQAbROcDBCZLBCEul
QEsxckA+8JLBMHGJQDGeOUAiNKPBpWIyQPMuckBAGpfBErXtQGO5gkCngpHBVQrUQD54vUAO9MjB
a1SNQIDImUA9G8fBaSwGQb0EskBsOLvBqs3pQBHpfL9td7zBzF67QGEKnMA4VI/BJR7NQCINK8Bh
t6/B8RHXQHixVMChY53BvwN/QKwgUkDu0LfBQ0/+QODbgkCGp6vBCQDdQG5/tz8QVrnBgp6LQGW9
5T6Cnp7BBNViQBygksC4cojBWII8QGxqn7+sSJzBMzb3QNFNK0D0D6LBIybWQLRSyD/cX5rBgDt0
QCeVi0B7w4bB7J+rQP4DakADIoLBzoyqQGJqqkCBcIfBXrJfQBOPK0AvrKfBk48CQBzLZEACJpzB
6eslQFkBh0CdEZDBfqC3QMt4oUA1bMTB9hTeQN9am0B9yr7BrGuRQM+Zj0DiicDB/NDjQKX6IL8t
MLPBVKChQDvrgcARnJHBXKHQQJqlyr9Ab6zB5F22QIM8TMDevpjBdoHeQKdvg0BQQ7XB3raRQLuJ
bkD8F7fBVjDaQKD6PD/i/7HBS1upQKq6QT7mdaPBtuBrQDfpdsAZQo/BVDdmQBT8/b8keZrBdhuz
QJrplb+Fj6TB5sSeQJ6JCMA0QZ3B+Cq4QJdYYkByN7HBGHe8QEZRlD8bJqrB0IrQQOtkf0DsPZfB
SoKFQJW6XkDRQ5nB8FPcQE0VOUBv+Z7Bip23QP9mKEAWNqfBUTCeQNWKlEDEt4jBGAg/QFCzNcCX
rJPBqT2nQBwBf0C+B5PBGHaMQPEwNEC7IKLB5Fw2QOPRbUBpcpbBwjHtQBwYlUBMOZPBiXW3QMDm
s0BIu8vBSW77QGcWqUCxy8HBEp9nQBeTlEA30cTBNQH6QONtcr/GTbnBhvGyQCYCnMAq9I3B14LY
QI5HKMBcSK3BS7PXQDg3VcBIu5rBQTT8QJfXfUCo/bDBJ7FoQJwDUkCEQrTBpITpQP3buz/vFrfB
VNuSQPR+AD/+ZZ3B/AJMQNsFkcCxzonBnAZCQF12lb+j3Z3BtXP5QFjIS0A6VKPBFXPiQA3W+z8c
dZrBGRp4QLHvkEBZxYbB6p+xQNKjhUCwZYLBoyWmQCTBtkAzSonBSnpmQIKtGUDHxKXBGgAHQC93
WEBeHpvBQscoQPoEh0AUv4/B79vMQDRpqUAPGcPB5M/uQOH6nkBQNrzBFuGjQMcZmEBIVMHBMb7S
QNB3Gr+Tn7XBvghNQLMbQMCoo5HBMJrCQCPIxb9sV67BEIlnQLndAMA15pjBfsTnQPCDg0CVhbPB
HXCcQLlbekBQgbjBTJfNQBg4RT9+qbPBAyymQAWrhT6CT6PBqhCDQNkzgcBl147Beg64QCn9SsCa
J5rB6lOsQNXpjr8yJqXBhh6dQGfHBsAfUJ3BIw++QEcfZ0ASS7HBLhi3QN1BnD9HfKrBM7HIQADM
MECxrZPB/ouBQLVMWUC/eZnBD7bYQNMwP0B05Z7BXqq1QHuFLUAdhKfBEEWXQGDxcUBvbobBD/2q
QBlbg8BsB5PBydGfQCCpTkCFM5HBU9qJQH0FQ0BhZqPBCOcxQKY4eUCPVJfBw0rjQDDuIkCpr4zB
BjTSQEDAvkDrwsnBhCUHQcoYrEBNnL3BPBCKQAqEn0AfxMbBgyfjQLh9b79qv7zBUo8NQFkIPsCm
Oo7BD0DHQG5oJsDsx6/Bumo9QP2qmb8ADZvBjyEBQZS+dECHd67Bbvp5QOCXX0BDObfByt3aQNew
vj+fL7nBz2eUQHlIFj+mX5zBAbJxQA9rmcArO4nBSdLXQAGET8Dhgp3BVEzjQIAIgUAFpJ/Bm/bz
QLkwFEAyW6DBjUBrQHYcg0BP6YXBQJidQMWGQEDOXYDBXj2sQC6plEAIAYXBA8RiQAc3QEAOi6jB
yvEGQBZxfkBwOZ3BMGsiQDR9hUBf5I/BUtzKQGekqECNaMPBfeyiQA7ZlEA7yMHBeMbsQEjloEDq
SrzBIvPUQBOFGL9oSbXBjIxJQO/lP8CUJpLBJjnEQI6txL9MFK7BJjRmQNM8AMBwOJnBaV+cQNF8
dEC+27jBVJzmQMjlhUB4eLPBvoHPQGovRz9IYrPBRZCmQHe3ij68Q6PBJtOAQPhIgcCAL4/BEGy3
QHmsSsDU+ZnBUxmtQM6ojb/aBaXB+f+cQLsiBsDDS53BasS9QEELZ0C3ZLHBjP63QFlhnT8gYKrB
RCLJQMylMEApyJPBcsKBQCC8WEAPdpnBNtvYQE6XQUDj857B6va1QFdELkDLhqfBrY2XQDZYb0Cc
Y4bBxE6pQKRkg8CvBpPBxhygQCpPTUCENpHB4xKKQEVZQ0DqaqPBrIsyQBcTeUAKRpfBqunjQEwK
IkBn24zB3G7PQKLSvUCmI8rB6jmJQKscmkBUaMfB1cUFQZi2r0Cxnb3BRgnmQPjGbb/3TrzBPi8J
QILcPcD6Ao/BaxLJQL7cJcDVeK/B6t48QIXCl7/We5vBT4Z7QPPGVUAwsrfBLI0AQfXxfUD/Mq7B
9VfdQESWvz+q07jByB6UQKcFGT8HcZzBRYdrQLGvmcBBuonBg6DXQCIjT8CLD53BADHiQB6kgkBz
lZ/Bd9z0QGvOGEAlg6DB8plrQM5hgUBXzYXBj0ieQOyDPUCbZ4DBbTesQNiKk0Aq54TBLkhjQNn5
QEBJk6jBoK8HQKVCf0ANKp3B2yEjQMMUhUACz4/B9BfTQDhup0BI7MHBCt+pQPyulUBHCMHB0Djy
QGNynkAsH7rB6l3PQNFfL7/lSrbBjEZPQIv3ScBFnpHB80u/QEyr0b8WEa/BbxFjQAkfDcCogZnB
7NOfQG5PdUCqYrjBN0noQNeyg0A/brHBgl7JQECbLz9mVLTB4tmeQKhaDz7eiKTB8MKHQNxQgcCK
C47B3dC5QAjYRsB61ZnBKmanQA68nL+LF6bB2iebQK1jDMDzzZ3BotK+QEjUYkA7b7DBf0KxQEdV
jj+uXKvBwSnPQHkGbEBVyZbB0pqCQC3UZUCJJprBKcjUQD5eIECHHp7B8mWzQAV1I0CzZ6fBG4ud
QIJTk0C9FYnB+PSvQJwDgMCcFpLBlGmlQPaogED9xpPBylWIQEJcPEASMaPBE1oxQKood0AQJZfB
8E7uQJF/gkDftpHBQ9LaQLT0u0CtmcjBt+WRQM/QnECe/sbBgOsIQa4grEDbzrrBGFngQAbmgL/1
XL3BF30PQPBcTcBIUY7B30TFQBEVLMC2ZLDBHXwzQKnQv7/BNpzB0TyAQGurWUBJzbfBdywAQQ32
eUDZdavBhS7XQDxTtT+BrLnBIRmKQJFy5j4qFp7B6h+AQO2SmMA88ofBSN/ZQLPURcBfD53BpkD1
QH2NIUB7g6HBeErQQFkEyj/whZnBQ0V2QOmhmUD2GojBYzqoQMJ9eUCZ4oLBhWyvQLt8sUAKT4jB
ngVdQBibLEBsfKfBe9UAQAs9ZECLy5vBOYclQFRGi0DkVJDBNYXXQLDvoUBf7cHBvVf2QHaolkBI
PbrB5bKsQHkhlUCGmsDBSbDIQNg5I79E77bB6CliQHeOTcC38I/B06e4QLwmzr/D7q/B8r5sQAS/
DcC+wZfB04PqQOjlfEA3PbHB77GgQMKDeUBAorfBxirFQA2iOD8IVbTBAKSdQDCFCD5pIaTBkzyR
QJAIhsDykY7BRFy6QFVcUMBoTZzBzx2kQIp1nb9VXKbBtYObQO3ED8AGI57Bq2O/QMtJYkACzK/B
2YOvQAe5jz/K5qrBLhPNQKo7bkCMT5bBxOKAQIAfa0A2KJrBm3nSQFJhIECLSJ3Bd0iyQEvFI0BI
0KbBR7OaQEedlEC814jBtwq1QCI4hsBqqJTBRUyjQLu2gkDokpPBrQCHQLTUPUBw46LB5gsuQM/v
gEATuZfBLxzsQEYbhEBzRpHBQrjgQJ5wtEBG2sjBAZgLQYaeoEBcQLvBJP+UQGYHnkAffMbBo8LX
QLNSb79QVr7B21MpQOK/TsCUBovBfAy8QN0TKsDV4LHB0x49QOzSuL/X15jBozABQZTBa0BiXqvB
LJ9/QGqXZUCTtLbBkwbTQGmsuz9cirnBjQGLQLt92j47Pp3BjimNQIlensBAhYjB8PTWQCWmUcDJ
JqHBe1rzQNWdHkAoa6DBI2vMQDP5zD/BgpjBjshwQCvfm0CoFIjBRfSjQGlQekDws4LBuF2tQJoj
skBawYfBxMNaQCvhK0C9H6fBnmf8PxHOb0BWiJzBFqEhQIsokkBPKZHBu1GSQJEDhUA8to3BuyFl
QMElgkDcppXBtAK8QHrcbEDo14/B8o3eQMbybL/e1bXBE8umQPksgMC+k5HBprzMQHeA47+SH67B
3X+5QHAyS8DuTZnBd8x4QHb6YUAow5/BReHFQOh0SUBk4pnBJt/XQKQS6j64GrXBEXqrQGj+DT6i
P6XBiYx3QPqtcsCmn47B0aVrQF8w/b8QaprBzzqzQImvn78q0qXBFq+gQMQYCcBox53Bnl6mQAYQ
REAeCaLBibi+QLDLgD9Ot6zBBnqUQHapeEAMXbzBMjngQL8+gEBKCLjBdKiQQAxtJkB0BrbBxWez
QKNcH0DoDK3BsmzFQKxPpED+hMjBVjxIQD4dM8BECZPBbF69QMuVjECaeL7BIK7bQPBRTUBK1a/B
CKIEQV1Dj0BQC7rBpRRrQJtRh0CKucHBgq2KQMZpkkDt+oXB9/4kQAIqjUAT+5PBPHbUQNWmcUBP
xInBQVnxQD2jqr/WT7zBFhu5QDCXmcBq7Y3BQYjSQCrQNcCMiK7BZEXaQNnCVMAJxpvBPsdHQHtY
XkAq1qXBg9LlQIAUMkAeapvBIgLmQEN/jj/K/LrB9M+WQKwkCT84GJ/BA6daQNbvjcA9s4jBl6ZF
QN84l79QzZ3Bj5thQIQXJEDBSrLBJk+UQKTo3z9WhrvBpBXnQCOOrkBhyMjB+Ke+QJprj0ChZc/B
mYKwQPCXwEBg2cjBZg71QKliREDPFqvBHcQQQYVphkBkUrXB7UYHQbPtokAZN8DB

> <OMEGA_E>
ACbOPihJyj4Srws/8P0LPxwVDD+IzA8/uF0gPxx0Yj8=

> <OMEGA_NBR>
    232090

$$$$
50158046
  -OEChem-04172616093D

 55 57  0     1  0  0  0  0  0999 V2000
    6.3974   -0.8520  -22.5278 C   0  0  0  0  0  0  0  0  0  0  0  0
    6.2866    0.5416  -22.3686 C   0  0  0  0  0  0  0  0  0  0  0  0
    5.9839   -1.7161  -21.4986 C   0  0  0  0  0  0  0  0  0  0  0  0
    5.3945    0.2121  -20.1250 C   0  0  0  0  0  0  0  0  0  0  0  0
    5.7585    1.0941  -21.1685 C   0  0  0  0  0  0  0  0  0  0  0  0
    5.4838   -1.1806  -20.2927 C   0  0  0  0  0  0  0  0  0  0  0  0
    6.3313    3.0891  -19.7371 C   0  0  0  0  0  0  0  0  0  0  0  0
    4.0977    3.4418  -19.3665 C   0  0  0  0  0  0  0  0  0  0  0  0
    4.2478   -3.0765  -19.2830 C   0  0  0  0  0  0  0  0  0  0  0  0
    6.9047    5.8408  -23.7436 C   0  0  0  0  0  0  0  0  0  0  0  0
    5.3917    5.5824  -23.6009 C   0  0  0  0  0  0  0  0  0  0  0  0
    7.6962    4.5197  -23.6999 C   0  0  0  0  0  0  0  0  0  0  0  0
    5.0770    4.8145  -22.3014 C   0  0  0  0  0  0  0  0  0  0  0  0
    7.3877    3.7547  -22.4071 C   0  0  0  0  0  0  0  0  0  0  0  0
    5.8547    3.4705  -22.2576 C   0  0  0  0  0  0  0  0  0  0  0  0
    5.5459    2.6104  -20.9608 C   0  0  1  0  0  0  0  0  0  0  0  0
    2.2409   -2.1952  -17.1157 C   0  0  0  0  0  0  0  0  0  0  0  0
    5.7159    4.1826  -17.5496 C   0  0  0  0  0  0  0  0  0  0  0  0
    3.9815   -3.8575  -17.9862 C   0  0  0  0  0  0  0  0  0  0  0  0
    3.5711   -2.9181  -16.8234 C   0  0  0  0  0  0  0  0  0  0  0  0
    5.4012    3.6889  -18.9014 N   0  0  0  0  0  0  0  0  0  0  0  0
    4.1430    2.8175  -20.5270 N   0  3  0  0  0  0  0  0  0  0  0  0
    2.9233    3.8017  -18.7145 N   0  0  0  0  0  0  0  0  0  0  0  0
    5.1269   -1.9970  -19.2228 N   0  0  0  0  0  0  0  0  0  0  0  0
    7.5273    2.9379  -19.5083 O   0  0  0  0  0  0  0  0  0  0  0  0
    3.6497   -3.3782  -20.3120 O   0  0  0  0  0  0  0  0  0  0  0  0
    6.8013   -1.2590  -23.4430 H   0  0  0  0  0  0  0  0  0  0  0  0
    6.6053    1.1980  -23.1649 H   0  0  0  0  0  0  0  0  0  0  0  0
    6.0489   -2.7860  -21.6307 H   0  0  0  0  0  0  0  0  0  0  0  0
    5.0430    0.6140  -19.1862 H   0  0  0  0  0  0  0  0  0  0  0  0
    7.0951    6.3428  -24.7037 H   0  0  0  0  0  0  0  0  0  0  0  0
    7.2386    6.4878  -22.9190 H   0  0  0  0  0  0  0  0  0  0  0  0
    4.8630    6.5469  -23.5847 H   0  0  0  0  0  0  0  0  0  0  0  0
    5.0464    4.9894  -24.4607 H   0  0  0  0  0  0  0  0  0  0  0  0
    7.4148    3.8997  -24.5639 H   0  0  0  0  0  0  0  0  0  0  0  0
    8.7730    4.7406  -23.7422 H   0  0  0  0  0  0  0  0  0  0  0  0
    5.3700    5.4299  -21.4381 H   0  0  0  0  0  0  0  0  0  0  0  0
    3.9973    4.6089  -22.2556 H   0  0  0  0  0  0  0  0  0  0  0  0
    7.9287    2.7970  -22.4211 H   0  0  0  0  0  0  0  0  0  0  0  0
    7.7251    4.3539  -21.5485 H   0  0  0  0  0  0  0  0  0  0  0  0
    5.5416    2.8747  -23.1277 H   0  0  0  0  0  0  0  0  0  0  0  0
    1.9852   -1.5404  -16.2696 H   0  0  0  0  0  0  0  0  0  0  0  0
    2.3452   -1.5906  -18.0287 H   0  0  0  0  0  0  0  0  0  0  0  0
    1.4430   -2.9390  -17.2577 H   0  0  0  0  0  0  0  0  0  0  0  0
    4.8110    4.6129  -17.0959 H   0  0  0  0  0  0  0  0  0  0  0  0
    6.0758    3.3485  -16.9293 H   0  0  0  0  0  0  0  0  0  0  0  0
    6.4965    4.9550  -17.6139 H   0  0  0  0  0  0  0  0  0  0  0  0
    3.1702   -4.5785  -18.1648 H   0  0  0  0  0  0  0  0  0  0  0  0
    4.8963   -4.3979  -17.7016 H   0  0  0  0  0  0  0  0  0  0  0  0
    4.3606   -2.1663  -16.6770 H   0  0  0  0  0  0  0  0  0  0  0  0
    3.4584   -3.5148  -15.9061 H   0  0  0  0  0  0  0  0  0  0  0  0
    3.3396    2.5233  -21.0448 H   0  0  0  0  0  0  0  0  0  0  0  0
    2.0373    3.5875  -19.1257 H   0  0  0  0  0  0  0  0  0  0  0  0
    2.9648    4.2746  -17.8343 H   0  0  0  0  0  0  0  0  0  0  0  0
    5.5369   -1.7908  -18.3343 H   0  0  0  0  0  0  0  0  0  0  0  0
  1  2  1  0  0  0  0
  1  3  2  0  0  0  0
  2  5  2  0  0  0  0
  3  6  1  0  0  0  0
  4  5  1  0  0  0  0
  4  6  2  0  0  0  0
  5 16  1  0  0  0  0
  6 24  1  0  0  0  0
  7 16  1  0  0  0  0
  7 21  1  0  0  0  0
  7 25  2  0  0  0  0
  8 21  1  0  0  0  0
  8 22  2  0  0  0  0
  8 23  1  0  0  0  0
  9 19  1  0  0  0  0
  9 24  1  0  0  0  0
  9 26  2  0  0  0  0
 10 11  1  0  0  0  0
 10 12  1  0  0  0  0
 11 13  1  0  0  0  0
 12 14  1  0  0  0  0
 13 15  1  0  0  0  0
 14 15  1  0  0  0  0
 15 16  1  0  0  0  0
 16 22  1  0  0  0  0
 17 20  1  0  0  0  0
 18 21  1  0  0  0  0
 19 20  1  0  0  0  0
  1 27  1  0  0  0  0
  2 28  1  0  0  0  0
  3 29  1  0  0  0  0
  4 30  1  0  0  0  0
 10 31  1  0  0  0  0
 10 32  1  0  0  0  0
 11 33  1  0  0  0  0
 11 34  1  0  0  0  0
 12 35  1  0  0  0  0
 12 36  1  0  0  0  0
 13 37  1  0  0  0  0
 13 38  1  0  0  0  0
 14 39  1  0  0  0  0
 14 40  1  0  0  0  0
 15 41  1  0  0  0  0
 17 42  1  0  0  0  0
 17 43  1  0  0  0  0
 17 44  1  0  0  0  0
 18 45  1  0  0  0  0
 18 46  1  0  0  0  0
 18 47  1  0  0  0  0
 19 48  1  0  0  0  0
 19 49  1  0  0  0  0
 20 50  1  0  0  0  0
 20 51  1  0  0  0  0
 22 52  1  0  0  0  0
 23 53  1  0  0  0  0
 23 54  1  0  0  0  0
 24 55  1  0  0  0  0
M  CHG  1  22   1
M  END
> <OMEGA_C>
nbfMQIUbWr/VOLTBeyvJQAylCj/58rLBWHy/QOSn2785/avBzJ+sQBovWT4KAKHBZUW4QNELjD8E
WanBYXuvQLAel791V6LBI5rKQJW0RUCb5Z3BtyCDQPNGXECX7prBB+6HQAzlRMCdQ5rBLfPcQNzn
ukDb8r3B64isQDWjskC2zrzBY0f2QEehkEBjmb3BmHaiQHYQmkBcabLB8GfsQFdNcECvQbPBUVm7
QLwcXkCXD7LBMnixQKAQJ0C6r6fBtmoPQN5+DMDw7IjBAOm2QMDXhUCBZYzBVNB+QNzgdsCn44/B
SI1kQPLCOsBBlobBjdasQMAWbEAaNpfBKZOEQDhRNEBYN6TB9BY7QAhPc0Ayt5XBmA+kQLac/79A
yJnB7t/wQOIGPEDrEJzBdpRpQD40WMARf6LB5qPZQIAoob8ui7vBP17TQIhXmT+iUbnBRJDBQLRN
MsCcC63BlGChQA0wHT9lfZnB0QrjQBv4ykAdocXBZ6LnQOObz0AbWrfB4p2bQDuA0UB5rbzBPnyh
QFypn0Bsr8PBbkbtQG+VeUDfgsTBE14MQSCzl0Af8L3BK9erQKHBrUAkgavBLtR/QIF8k0CPC7LB
lLf9QLMCM0BvXrPBCDT3QA5Ti0BTY6zB6lSxQO/6N0B8BbnBUhr+P0wtxb8qKILBexgWQDKYy7+u
OpDB77S4Pz4ZPMDUD4rBgPOZQC6dk0BbxIjBvmzCQCJNVkAqb4fBVuPPQCiPnkBZ6YzBUeRKQDuD
ksCMUZHBcq6cQNy7jMDPnI3BSoqLQMWkCsCUaoXBj1ZdQOrxYMB2f37BULxVQBh9IUC8W6jBsWIC
QF2aZUB3AZnBrL49QK3JiECxrI7BCy6xQEM45b+grJLBXujOQGy4VL+GILTBNHXKQALLDj/72bLB
oI7AQCxQ2r9PHazB1vepQKR0UT5VYaHBdKK3QG12jD8wcKnBokitQF7rl7/SwaLBdFrKQGDpREAb
2J3BBfmCQAQBXUCq7prBdJKUQEngVcApeprBPIzdQPySukBL873BdhWtQNZiskDb4LzBbuD2QABS
kEC3db3B1KWiQEwOmkA9eLLBfqHsQIaOcEDuFLPBnIe7QN8sXkBsBbLB1DGxQAIyJ0A3rafBDMbD
QGhKLcD+/4TB9NK2QNjOhUAfX4zBHomJQMX4fsDSr4/BQmKxQOK5gsDMUojB0resQNL5a0ACL5fB
alKEQM9MNUDkO6TBtOU6QNqNdEDnuZXB8BieQHyw/b8LbZrBapTwQFuvOkCe/5vB1rWQQJeYf8C+
vKLBpWzdQHkKnb+yTLvB9nHVQDN1nD9xFbnBOjnEQLlwMcCEF63B7MCcQDHWGD9CCprBBd7jQC9b
ykDwp8XBPgzoQH2Dz0DAYbfBbzWcQMhG0UAp0rzBOTSiQM5Gn0D6v8PBLBnuQJFyeEDhV8TBDawM
QYRfl0Bzvr3BXsurQDTkrUCkkavBshaAQAd7k0CKKrLBSgz+QBZhM0BIDrPB7Ab3QAnLi0AQPKzB
G+GxQHHzN0CSAbnBqtDfQI/ENsDpoH/BiFrNQLWLCcBpMYzBCzSrQHrwCMBPooDBKvSZQGDgk0Dv
xIjBSwzCQBkhVkCOYofBSQfQQBtLnkDz4ozBCxliQArbV8D6rYvBgrh5QDfVn8AkGpHBvXTKQESQ
lMDmmIzBQE6oQKZClMDMCYHBriJVQHYlI0CfZ6jBxCECQDx1Z0DcCZnBb7I9QNdKiUCVq47BYGeZ
QF5/wb/AdpPBqU7UQHQiNr8X9LTBklDTQGwVJz8NW7LBhX6/QBL+0b9AX67BBCqoQH1tKj6YkqLB
HTi7QBqsjz+VdKnBnOmqQNBEm795+KTB1evLQOrvO0AMS5zBnFWEQMkgXEAHBpvBva+dQMOhE8Cw
e5PBtofBQMIutkBq7sDBIuTAQJRfhkBO58PBoGbZQBbDvUDrR7bBAPesQNGEWEDFwrrBzN/GQDAx
okA5Iq3BK37HQP/dY0BjNbDB5FC2QFZOKECz86bBCvLxP9MpEMDVP5LBzDqyQE5GdkAHiIrBEOyD
QHBpWcBNv43BmIEyQMWtNcBJWYnB1lusQI9nYEAM55XBHuaIQFChPEBUu6TBaNY6QH7adUBprpbB
+RWYQBmSC8DTfp7BqK/xQOMAMUDXAJrBv5+1QHBpyb+hW47B+BflQMDKhb+dBLzB1BTlQLOarT8W
LbfB50G/QJTwK8C4hbDBdnuXQH41/D5NeJvBL7rRQP0kyEAyU8fBeWegQLqkwUBmIMDBlNitQGHi
gUD4N8vBt9ThQCCgdkB/T8XBr1v7QEWUtUDGXrfBpYzWQKu730DEFrTBxP6LQHmcbkAZZLnBZpms
QNlvFECh/7zBiDnaQIL5pkBs4aXB+q6lQAMZrEAGkavB98voQGN4UUAK5LHB5G51P5R67799s47B
2twaQL8gt79DSJbBuobTP3Z9QsANGpjB73yUQDIQiUAdXYfB6jS6QEwSPEAMAIbBvmPMQJR5kkAZ
vYnBrvl5QBqshsAXbpPBpfyWQBClcsBNDofBNctAQKDhAsAOhoPBuLEPQLbOacDYV4XBONNhQNym
M0Am6KnBpjAFQFnycEAWAJvB84g4QG6ghkCiPY/B79iEQCAENsDDD6LBCIbOQOJDUr+dd7TB4CHK
QC+fED+mBbPBtZzAQNPL2r9ig6zB6EmpQNAPOj7wn6HB2xW3QMSSiz+2lKnBeUmuQFKemr8NA6PB
8xbKQBalQ0BV1Z3BB9SCQPQ2XUAk9prB30WvQCzrUMBqp5fBh2TeQDXVukCHw73BhtitQJMLs0DY
uLzBSVf3QAVZkEBFVL3BVBqjQNN9mkD6W7LBy8XsQFw8cEAm/7LB9ZG7QDiLXkB2+7HBT+GwQGzY
JkDhs6fBpj6JQAty3r/Ju4PB6se2QBdFhUA6W4zB9KyZQJ7Ae8AYBI7BbdefQOSER8Dyj4PBnJus
QAI9a0BZLpfB7g6EQOR0NUAyQ6TBw8U6QHSldUDox5XBnYWeQObTAsAxCpvBpUTwQDbROEDO+pvB
VCnPQFaZccAWrpvBIqrcQMYumr/7urvBFlvVQAq5nj+XJ7nBcuvDQIeWMcCVqK3BpbqaQEHXDj/h
Y5rB+eXkQHq/ykBNccXBkQnpQCyEz0DCKLfBUUCdQMcV0kAVnbzBSdaiQHc9oEAXosPBxnTuQMYH
eUB4QMTBp+8MQSsal0BolL3BrGSsQHkHrkDjaqvB93qAQD49lED9FLLBkPP9QPvJMkDhAbPBiT33
QCZgi0BoHKzB4taxQEYCOUC8BLnBxPmOQOsDnL9JN3jBgBKWQJgdkb/5WYrBuUhNQEHc8L+P3YTB
jwaaQHKdk0DJw4jBtK7BQGjDVECvX4fB/z3QQPJ+nUAP2YzBbW5uQH7ggMCRpY/Bj5qnQMDkncBV
5ozB7k7CQBMaPcC+VoLByuCSQGf5bMCntHnBXIFUQOiTI0CWbqjBB+4BQBQ0aUCfHJnBJsU9QA7U
iUCRuY7BhgyEQLDV3b8rTJfBWMvhQPOxV78A36/BqbncQBWpDD8/pa7BN7rDQJsq3b8SXKvByHOa
QOujLz6Z0aTB/WO4QCCxiT+rSqnBFDWgQFOSm78MtaXBc0PLQABxQEB4bZ3BvBqEQNJHXkBrF5vB
V7eIQLL6RsBTUprBTTrOQGMivkABdr7B8ranQC7PoEA9wMDBj1H0QCz6o0CdN7rBV2iaQMVriEC5
mbbBl+jnQNDfikAEH7DBiTLAQJr6WkB0BbLBAQWzQGAHJkCWkqfBK21NQEyPSsDG1oLBkpy2QHTn
g0ByD4zBJPFCQPrSecDlX5bBXf5JQLGZi8DEmYrBroGtQCKbaUDX+5bBaBmGQDh5OUDvh6TBJkM8
QIZfdkBkJJbBZBWBQKjPAsBAPKHBgDfxQML6NEDBWpvBqNusQPajWMCXJZfB98n8QLqfnb9XR7TB
oav0QPE/nD/ezbHBd9THQBTeMsCiOKzBV4d9QFQ3Dj/eqKDBcLXXQINlzkCb5cXB5wfFQEQe1kC0
cbjBgaiMQBtltEArh8PBj4CwQOmqiUDhAcfB3bj+QKxXjUA9b8DBaWIHQcTfuUARSLjBDf+PQHmW
n0D7gbDBpXF/QBuxZUBbj7jBvJQBQYurbUAksK3BvF/gQOu3oUBPsqnBHCrJQOflK0D4KrjBhGpS
QPUdYsC1I3XBf76CQCS1IsDQtoTBm9ISQOAoJMCasoPBF9GZQEoMk0B2s4jBi/u/QDEwUUDaBofB
pNnQQLFZm0B/SozB7PMJQLn7UMBZK5fBQ5U7QKJumcAfc5vBHFOCQP6vnsA5pYnB1PsRQNxpn8AD
oYjBhkVZQA4+LEDNFanBd0EEQMzma0AhyZnBe6M9QGsWiUA/8I7BOjlFQLWi7b/2KaPB1+XQQHcl
Ub/1VLTBQXjNQBCEET+vvLLBWDHAQEzS2r/7wKzBZl+oQIyJMz604aHBCSe5QH14iz8ecanBUBys
QA6um79+a6PBqZnLQO3OO0C5oJzBuVqEQEkLXkBRNZvB/qKmQCp+VsAxAZnBqA3EQLaCukAnsL/B
JWa1QNWzjUDHU8PBdqblQARjt0A2tbbBbJWkQGLBZkCy0bnBE/DTQKIPnkBsHK3BTZPGQGe0YEBa
p7DBWWC1QLvYJkC1LafBFjK7QOo1QcDgSYHBZd6zQPoggEB0RIvB35yNQAYWgsCTHZDBe4mNQKE9
T8Cdo4XBG9isQFhoZECHYZbBvyCIQAqqO0AXxKTBgmc7QABOeECNxZbB0euZQD6OA8Dht5vBWYzx
QHKGMUBxeprB/y/GQHZwecDQ5JzB4nXgQNEzmb8ebLvBCmfaQCKPnz8ZorjBx6vCQMaRMcCcDK7B
A3SYQH7IDD+b0prBOhzSQBB9y0CXjMbBGy2oQENvzEAvubzBYrqbQI0skUAQScnBWqzQQEmoeUAt
9MbBGyQBQX4Rp0DCzLnB9kjuQMDU10BaELTBmoSHQCW8gkBDrLbBedGcQDDJJUDfmLzBVcjsQMO4
m0CX56bB6d+3QHzYrkCC2qnBYxPjQDn1QECG9bPBYrC5QPJ4G8AWvXPBGCDKQCCOf8CJPn/Bw1fO
QAacHsAGRofByJGWQLQ6j0DvLYjBEPi7QIN5SECwS4bBHVTOQJNSl0B/BYvBWcZYQF/VhsCgxJLB
1IWcQKhbocDzjo7BzT11QNt+ccDAJ3/BI619QMGMEMCiOofByllfQLf5MEAawKnBWAsFQGt5cUAi
6JrBmDA6QMoBiUB2co/Bzu+AQPPN178YsJfBIp3VQIylXb/OkrPB/VDRQNLFBD/8IrLByV7EQMgg
4L+6CqzBGwCoQD34CT5E3KHBoC+5QOwIhj/IcanBJb6tQAAsob9zKaPBiU3LQOSXP0BWgJ3BsgSE
QI7OW0BhJpvBXc9wQJAjDsCChpbBPlzOQJaIv0AdFb7Bvv+lQC46pEBd9L/B4wH0QM+do0AkTLrB
B2+ZQJYMjEBMrrXBtRroQE0dikDbObDBbrK+QJDnXUBH57HBGhizQK98JEBgpKfB7wWpQDFsBMAl
iYHB2Ha2QHSog0APKozBgmZkQI5YUMDcl43B0nB2QF4JKcAQdoLBBmatQEBWaECVEJfB9QOGQON0
M0B8YqTB5TM8QFxrdUBnSZbBViqgQC22C8CdiJvByknxQOaMNEC6bZvBkVo2QAZ9ur+355jBTz7m
QKjwn79af7rBuofgQF3UmD8ztLfBLHrIQB01NMDUD63BvmqWQEwkAj+dDJvB8TnXQIp3z0AZnMXB
RHHHQETQ10BE87fBN3OLQNM+uUCrW8LBkGSsQGzwjEBXW8bB0bL8QHYmjUDNtsDBzsAHQZlcuEB9
fLjB7OuRQLZVo0C5Wq/BAjR6QMtccEARS7fByFkBQfcHaUBjNa7B8MjiQAmboECrlqnB+2rFQEnq
MEDPdbjBtrWtQM3E0r+5/XLBXWrAQGflN8CF5ILBYYytQHHdo78hkIfBuoeZQJqIkkAIzojB8TrA
QAQtUUDHGIfBr2nQQDNqm0C3c4zByQYiQPm/Z8CEzo3BfUSIQHwSg8CN7Y7BLxhuQEsIW8BWtXjB
N1xIQDkj6r9HBoHBFQRZQHRFIUCqpajB6REEQLphaUCe0pnBHc09QBXwiUDkQI/BASa1QG4MOcC4
cZnBgtPPQNR/Sr8S7bTBx+DMQEQgFz9REbPBTpS/QPVW2b/eZa3BY6SqQMqfIz6H2aHB3vi5QKS3
iz8Sg6nBlHetQJuMnb+QzKPBnK3LQAaTO0A8nZzBwkuEQIS6XECmO5vBi92jQDJADsBGuZHBORHE
QNfuu0C0Z7/BzGe1QCdOj0C7LcPBzbrlQLZXuEDDc7bB8qekQMz8aEDfvbnBUyTUQDx1nkBk7qzB
QsHGQPLIYUD1mrDB3rC1QODZJkC9MKfBqjgQQG5qfMCD7oHBQWyzQB4rfkB9MovBAQiNQIByVMCh
WIvBm4VBQGByNMDJoofBDK+sQBpEY0DZWpbBFlGIQCqZOkA+zKTBJwY7QHaFdkA+05bBUaqcQKAW
C8CDt5zBEJzxQOprMUAOcJrBRN67QIIluL+oIY3BWKLeQF3wk7+5KrzB4hrZQGoKpD/o9bjBMfrA
QBmSMMCq+a7ByrWcQFj1Az/7eJrBeBHSQBlEzUC5N8bBRzWoQBGyzUCyXrzBnrGbQHgQk0BoHcnB
WKnQQGU/fUBq3sbBli0BQTw8qECcnbnBeFjuQL2l2EAps7PBs6iHQO68g0C6hbbBk8qcQBRbKECZ
n7zB+Q/tQF/Qm0BkwKbBkRq4QJ4Lr0AZmanB9jbjQANoQkCP/LPBDrSiP8xlZMAAs37Bwk8HQNA5
mcAXdofBu8E0QLXxiMAxz3XBbvyVQKbjjUADGojBspO7QKoFRkCeS4bBJsHNQFpnlkCX2orB1+2I
QL6jhsABcJDB4GmgQHNRZcBFT4TB0agcQEkRH8AApI7ByxpKQCUC/b+BFYLBpOxfQDdyL0Ddy6nB
rdMEQEaGb0A9/ZrBOXU5QL8HiEAKfo/BtLCJQKE+OMAv0p/BwS65QNiPZr9ixLTB8ES4QOjI/T75
X7PBy9W5QKQ14L//0KvBCZW4QCCzRT46DKDBmwK4QLqGiD8k9KjBz8m5QECBmb9pb6HBnZHLQBek
PkCoqZzBv16EQN6cYECRLpvBqV2iQIrKQ8CFw5XBpSfHQDjUuEC46r/BqsiyQK7fjUDnLsPB8JLq
QMQgskDHhLfBTzehQGtbbUCeRrnBbrjZQPDPmUCIq63BKqTFQIX5W0BC8LDBP6y0QGbmJUCjD6fB
Gi2EQKwrBsA6KX/BGUC0QCTagUDmVovBJhKrQIvvc8B6Q4vBw5GuQAX5NcB5nYHBhf2sQLvAZ0D7
cJbBW52HQBXyOkCKj6TBEAQ8QJcVfUCfzZbBhSm9QByA/78NWpjB3jrxQNwGMkDoXprBPYeDQOeG
V8CdU5vB+2G5QMThqL8mu7zBW8K3QAASkj/5TLrBol66QJWvNMCG4qzBNRW4QGSpGj8hD5jB4hHV
QA8ayECcCsfBJkSuQAm4zUB0iLzBgXWYQOzgk0A01MjBEiDLQIddc0AEDMfBamECQQSgn0BBJrvB
KLH2QHKK0UCj87TBtWqIQD+qikCEh7XBLCKTQKv3L0D1wbvBpGf0QPoLlEBvHajB3DDBQOhhrUDX
rqnB3ZbeQL/2NUAe77TB1fWHQDL6tb/gY3HBf0F3QAtHwb9ctobBFl9VQFTJNMDtxHvBURqXQDA0
kUA+PYjBGDK8QDbkS0B5W4bBhOPOQIfYmEBHIIvBrLaQQJiMkMAIzInBaEnJQCbBi8CTCozB9N/H
QKPTBsAXQYPBwO62QHH5WsBi2nTBqLRdQH40LkAOX6nBlEoFQF9gdUB91prBVpQ7QIWhjEDano/B
/N7UQI+75L/3PpPBuoS5QDXnZr8IrbTB+7G4QHrz/T6qWrPBFIe5QOyA37/ZrKvBGvG3QGy1VD48
BaDBdv+3QGRkiT+19KjBl9m4QFZ5l78IUqHBvJrLQEPsPkAnrZzBxF2EQGeTYEA3L5vBD7qiQCy7
RcB48pXBcCrHQK3XuEAQ77/BwvayQKvQjUD2NcPBAovqQJFDskD/hLfBe2KhQE8fbUAhUbnBHKnZ
QI/1mUBdra3BMb7FQKMpXEB987DBFLi0QPxAJkANFafBRfXlQIvDpMAgvoHB5jC0QKG4gUBzU4vB
E3esQHEFdsB9k4vBiCXaQDPijcCqNIzBMvqsQEO+Z0BdcJbBbaiHQClTO0B0lqTBze87QP+yfEBn
ypbBmiq7QBAU+7+zH5jBfT/xQOstMkB+YJrBQtCDQE36WcDOc5vB6SS6QPnbqb/3nbzBlpe4QIuB
kT8jT7rB2gy6QNRkNMBYrqzBpi+3QIEoID9CDpjB6xTVQBEqyEA9DcfBHi6uQGulzUC9j7zBx6uY
QLi7k0Ab38jBUGjLQCFpc0CKD8fBT2YCQe/Nn0AAIrvBJpL2QPe20UCC9LTBcm+IQChuikACmLXB
vX2TQMGTL0AdzrvBLU30QI5JlEBkGqjBNAnBQGt6rUAMtqnBvcveQBY4NkBg6rTBYkIDQW3jscCD
YoLBWJ/kQF3XjcA9JXbBhi/PQPrzvsDDRYDBVQGXQPX3kEBPN4jBETG8QNyJS0CKXYbBIsfOQG/F
mECQF4vBlVuqQOS9ScBMwYTBkCyVQNwQlcBNhorBIRfxQAGjZ8CXpY3BT6fbQB7upMC82JLB5dhd
QG/gLkBJa6nBlz0FQHYMdUA/1ZrBbGs7QOJIjEDdlo/Bn2HQQIaE17/yj5LB

> <OMEGA_E>
WBYtP+Q4Lz949TA/ImYxP8SOKD86yCk/ZMIsP7hSOD/IYDU/8Mk0Pw==

> <OMEGA_NBR>
    241492

$$$$
50176683
  -OEChem-04172616093D

 47 50  0     1  0  0  0  0  0999 V2000
    5.3449    4.5896  -24.1130 C   0  0  0  0  0  0  0  0  0  0  0  0
    6.5582    5.3031  -24.0713 C   0  0  0  0  0  0  0  0  0  0  0  0
    4.9944    3.7335  -23.0480 C   0  0  0  0  0  0  0  0  0  0  0  0
    7.0957    4.2392  -21.9436 C   0  0  0  0  0  0  0  0  0  0  0  0
    5.2707    0.1129  -20.2709 C   0  0  0  0  0  0  0  0  0  0  0  0
    8.5301    7.3523  -23.0245 C   0  0  0  0  0  0  0  0  0  0  0  0
    9.7355    5.4829  -22.0745 C   0  0  0  0  0  0  0  0  0  0  0  0
    6.2951    0.7174  -22.3175 C   0  0  0  0  0  0  0  0  0  0  0  0
   10.5301    7.6626  -21.8583 C   0  0  0  0  0  0  0  0  0  0  0  0
    7.4350    5.1227  -22.9780 C   0  0  0  0  0  0  0  0  0  0  0  0
    8.6089    5.9726  -22.7696 C   0  0  0  0  0  0  0  0  0  0  0  0
    5.8626    3.5752  -21.9376 C   0  0  0  0  0  0  0  0  0  0  0  0
    5.7014    1.1919  -21.1671 C   0  0  0  0  0  0  0  0  0  0  0  0
    5.5300   -1.1272  -20.7822 C   0  0  0  0  0  0  0  0  0  0  0  0
    6.2293    2.9048  -19.4594 C   0  0  0  0  0  0  0  0  0  0  0  0
    4.0001    3.3209  -19.1950 C   0  0  0  0  0  0  0  0  0  0  0  0
    5.4967    2.6389  -20.7826 C   0  0  1  0  0  0  0  0  0  0  0  0
    6.4469   -3.2737  -19.9342 C   0  0  0  0  0  0  0  0  0  0  0  0
    5.4759    3.5981  -17.1529 C   0  0  0  0  0  0  0  0  0  0  0  0
    5.1909   -2.4045  -20.0610 C   0  0  0  0  0  0  0  0  0  0  0  0
    9.4895    8.1772  -22.5602 N   0  0  0  0  0  0  0  0  0  0  0  0
   10.6762    6.3353  -21.6276 N   0  0  0  0  0  0  0  0  0  0  0  0
    5.2324    3.1899  -18.5436 N   0  0  0  0  0  0  0  0  0  0  0  0
    4.0890    2.8570  -20.4199 N   0  3  0  0  0  0  0  0  0  0  0  0
    2.8379    3.8235  -18.6311 N   0  0  0  0  0  0  0  0  0  0  0  0
    7.4080    2.6921  -19.1907 O   0  0  0  0  0  0  0  0  0  0  0  0
    6.2994   -1.0213  -22.3481 S   0  0  0  0  0  0  0  0  0  0  0  0
    4.6833    4.6978  -24.9597 H   0  0  0  0  0  0  0  0  0  0  0  0
    6.8168    5.9834  -24.8693 H   0  0  0  0  0  0  0  0  0  0  0  0
    4.0587    3.1949  -23.0783 H   0  0  0  0  0  0  0  0  0  0  0  0
    7.7958    4.0681  -21.1393 H   0  0  0  0  0  0  0  0  0  0  0  0
    4.8006    0.2805  -19.3131 H   0  0  0  0  0  0  0  0  0  0  0  0
    7.7020    7.7511  -23.5916 H   0  0  0  0  0  0  0  0  0  0  0  0
    9.8428    4.4224  -21.9009 H   0  0  0  0  0  0  0  0  0  0  0  0
    6.7037    1.3432  -23.0971 H   0  0  0  0  0  0  0  0  0  0  0  0
   11.2744    8.3401  -21.4666 H   0  0  0  0  0  0  0  0  0  0  0  0
    6.1965   -4.2061  -19.4070 H   0  0  0  0  0  0  0  0  0  0  0  0
    6.8309   -3.5115  -20.9372 H   0  0  0  0  0  0  0  0  0  0  0  0
    7.2152   -2.7272  -19.3675 H   0  0  0  0  0  0  0  0  0  0  0  0
    4.5143    3.7622  -16.6446 H   0  0  0  0  0  0  0  0  0  0  0  0
    6.0359    2.8078  -16.6316 H   0  0  0  0  0  0  0  0  0  0  0  0
    6.0603    4.5300  -17.1414 H   0  0  0  0  0  0  0  0  0  0  0  0
    4.8072   -2.1675  -19.0577 H   0  0  0  0  0  0  0  0  0  0  0  0
    4.4229   -2.9518  -20.6274 H   0  0  0  0  0  0  0  0  0  0  0  0
    3.3100    2.6775  -21.0207 H   0  0  0  0  0  0  0  0  0  0  0  0
    1.9931    3.8488  -19.1656 H   0  0  0  0  0  0  0  0  0  0  0  0
    2.8442    4.1608  -17.6897 H   0  0  0  0  0  0  0  0  0  0  0  0
  1  2  1  0  0  0  0
  1  3  2  0  0  0  0
  2 10  2  0  0  0  0
  3 12  1  0  0  0  0
  4 10  1  0  0  0  0
  4 12  2  0  0  0  0
  5 13  1  0  0  0  0
  5 14  2  0  0  0  0
  6 11  1  0  0  0  0
  6 21  2  0  0  0  0
  7 11  2  0  0  0  0
  7 22  1  0  0  0  0
  8 13  2  0  0  0  0
  8 27  1  0  0  0  0
  9 21  1  0  0  0  0
  9 22  2  0  0  0  0
 10 11  1  0  0  0  0
 12 17  1  0  0  0  0
 13 17  1  0  0  0  0
 14 20  1  0  0  0  0
 14 27  1  0  0  0  0
 15 17  1  0  0  0  0
 15 23  1  0  0  0  0
 15 26  2  0  0  0  0
 16 23  1  0  0  0  0
 16 24  2  0  0  0  0
 16 25  1  0  0  0  0
 17 24  1  0  0  0  0
 18 20  1  0  0  0  0
 19 23  1  0  0  0  0
  1 28  1  0  0  0  0
  2 29  1  0  0  0  0
  3 30  1  0  0  0  0
  4 31  1  0  0  0  0
  5 32  1  0  0  0  0
  6 33  1  0  0  0  0
  7 34  1  0  0  0  0
  8 35  1  0  0  0  0
  9 36  1  0  0  0  0
 18 37  1  0  0  0  0
 18 38  1  0  0  0  0
 18 39  1  0  0  0  0
 19 40  1  0  0  0  0
 19 41  1  0  0  0  0
 19 42  1  0  0  0  0
 20 43  1  0  0  0  0
 20 44  1  0  0  0  0
 24 45  1  0  0  0  0
 25 46  1  0  0  0  0
 25 47  1  0  0  0  0
M  CHG  1  24   1
M  END
> <OMEGA_C>
zAmrQEvekkB058DB9tzRQEKzqUAYksDB8tGfQO7wbkA3YrjB1g/jQHynh0CHjK/BQKmoQJxN5z3f
KqLBb3sIQTpG60AYMrjBj8QbQTR0r0CFmLDBdHHJQFKnNz9HirLBZnsoQRs09UDm3a7BYuvtQMrs
o0AG07fBBr4JQWgfv0ASKLbBlpq7QNnQZEAsgK/BEHK2QMKQmD8fVqnBcvWwQNlIkL/qQabBaFbH
QMznOUDGrJvBhACAQFGKVEBEj5nB3OSvQHfkKEC3QqbBFk3OQPyDUcA4eZ/BtjqvQPJHZkAVOYnB
zBumQBLkGcDefKDBMdUXQajVAkEze7TB0tEqQem6ykBDBa3Bmm+nQP0nTEBeWZTB5tiCQM3YNkAH
XKPBWaA1QDq0dEBkDJXBNA7tQCJLLECRhpnB3JTJQCm5gr/WyLLBPt2VQBJUlkB3rcfBFyPaQEt4
v0BP9MbB/+CBQKV5TEBXoLjBLXf5QLktgkA+HanBmp6ZQPqgjz5PgZrBCnf2QBcJ+ECIu7zBI3wd
QTCEjUAYNa/BjYTWQAzvqz/rxrjB2GM0QRBxBUGFu6vBGkrGQGKYhsCTQZvBppbaQJm7YMBhf6fB
jOLmQN2JLsCr8JrBC3WQQA3IcEAfKIXB3iXBQDeyM0B/DYXBv+3BQOv1kECCIYnBnNSZQMu3CsAl
dpjBtoiNQIfpPMDbBKXBcNZTQAxcK0BmKqjBRx//P1VSdkAdU5nBuwc2QFQlhUB1hI3B3c6mQH/O
l0D5FcDB3afNQJ2FrkDa6L/BmZCdQIh/c0DV+rfBMePiQBgMh0D85a/Ba/emQFBrQz1mLaLBHLcF
QS8X70AaLbfBymcaQUSps0DkWLDBR4rMQPKYIj8R9LHBOBEkQash+kBDpqzBrbLrQFU/pkDIuLfB
tCMIQZqmwkBJ07XBzVS7QAqQY0BtpK/Bh/C2QDFWkD9sManBXeawQInCmr//4KXBk/THQPhNOUC1
4ZvBlOKAQKzCV0B93pnB/1WwQIoqJkBSYKbBiONyQPv6HcAIxZrB6TGvQLIHYUB/T4nB9iSlQPp/
IcBLf6DBBq4TQYMTBUG9hbLBWAwoQdqjz0Bt06vBnQ6pQNDAV0DG65TBc2aDQNx9NEC2YaPBut82
QGoSd0DzZZXBy0rtQGwSKUCanJnBsTvNQMc5jr/O6LHBgwWQQG1enUBmbsbBAXjUQKwdxkAe/cXB
BhR/QM5KUUD+H7jB8PH6QO21fkBDAKrBGk6VQMPnaD4q5JrBcWDxQO96+0Dv7rvB428dQU22kUB+
yK/BvCTbQDfbnz/CDbjB3WIuQTgXCEH/cqjBrm9lQA1XXMBHDJfBK290QAs72L+Mj5TBn3dAQBz0
DsDgnaDBz8SRQCx+ekC7rYXBw5G2QOYwIkAjzIXBMNnJQBKrhkCmxYfBFvqjQH33U8A1oKbB3PW9
QOcgMcDikZrBBH5UQBJ1JUCx9KfBI9n/Px2Oc0DVeZnB4Mk3QOiWiEBSGI7Bom2oQEJ8lkBXQ8DB
RmzPQBD4rEDJ4r/BH/OdQM6kckB9CbjBOAjiQPOzh0CMYK/BYpWnQCBMCD3Cd6LB4KUYQZ/ix0CR
GbzB93wGQWEC3EC3vqvBZL7MQKbRLD+aKbLBv4MlQY3t/kCwJ7HBppnrQBHdpUDmQrfBoVIHQb/4
wkDeFrXBjMC6QMruY0Bgca/Bhoq2QF1GkT9PYanBu4+zQOp2mr93KabBTkrHQIa8N0Dr3JvBFnGA
QCqaVkBhwJnBTm6vQJ7wJUCNWabBeNiBQG99IMAdspnBXF2wQNbnaUDgjonBgRaqQE6tIsC81aDB
CacnQbe95UBR9LnBqoEVQaHp+UDr86nBivanQGRiTkCQmJTBlYKCQJ45NEAJU6PBOJc3QEjneUBX
VJXBbAbtQJ69KUCtxpnBvbvPQF6FiL8XL7LBII2SQPiFm0D81MbBR6jXQDRlw0AOIcbBipN/QBT1
UEDoSLjBhhr5QCoJgUD8KanBfSeVQN+uPT60QpvBafoZQYEDtEAvI8PBZo/zQOEw10AEBKbBAYLa
QF27pz9GPrjBWxYxQbEGDEFd2K/Bb5R5QA7uX8CYGJbBKzGGQLVq4b81U5PBhrFLQLI/D8AAk57B
NuCRQP8QeEA5iIXBoBXBQB2INkD6OoXBT3DEQJ7dkUDrpInBA1ylQMQhU8DBG6fBa7TFQGyXNMD2
25vBWXhSQIXbJUDr46fBVvUAQFZLekAHf5nBjVg5QIh9iUDx+I3B

> <OMEGA_E>
qAlmP9x1YD/c9V8/

> <OMEGA_NBR>
      2717

$$$$
50176684
  -OEChem-04172616093D

 44 47  0     1  0  0  0  0  0999 V2000
    5.2579    4.7744  -24.0351 C   0  0  0  0  0  0  0  0  0  0  0  0
    6.4551    5.5132  -23.9678 C   0  0  0  0  0  0  0  0  0  0  0  0
    4.9651    3.8063  -23.0478 C   0  0  0  0  0  0  0  0  0  0  0  0
    7.0922    4.2544  -21.9751 C   0  0  0  0  0  0  0  0  0  0  0  0
    5.1109    0.0908  -20.2735 C   0  0  0  0  0  0  0  0  0  0  0  0
    9.6716    5.5963  -22.0144 C   0  0  0  0  0  0  0  0  0  0  0  0
    8.4188    7.5083  -22.8038 C   0  0  0  0  0  0  0  0  0  0  0  0
    6.4503    0.5916  -22.1628 C   0  0  0  0  0  0  0  0  0  0  0  0
   10.3742    7.7673  -21.5504 C   0  0  0  0  0  0  0  0  0  0  0  0
    7.3757    5.2480  -22.9295 C   0  0  0  0  0  0  0  0  0  0  0  0
    8.5323    6.1127  -22.6682 C   0  0  0  0  0  0  0  0  0  0  0  0
    5.8732    3.5611  -21.9849 C   0  0  0  0  0  0  0  0  0  0  0  0
    5.6945    1.1318  -21.1451 C   0  0  0  0  0  0  0  0  0  0  0  0
    5.4295   -1.1824  -20.6680 C   0  0  0  0  0  0  0  0  0  0  0  0
    6.2518    2.8951  -19.5116 C   0  0  0  0  0  0  0  0  0  0  0  0
    4.0300    3.3569  -19.2400 C   0  0  0  0  0  0  0  0  0  0  0  0
    5.5095    2.6102  -20.8248 C   0  0  1  0  0  0  0  0  0  0  0  0
    4.9505   -2.4299  -19.9587 C   0  0  0  0  0  0  0  0  0  0  0  0
    5.4884    3.4647  -17.1747 C   0  0  0  0  0  0  0  0  0  0  0  0
   10.5704    6.4301  -21.4613 N   0  0  0  0  0  0  0  0  0  0  0  0
    9.3409    8.3143  -22.2386 N   0  0  0  0  0  0  0  0  0  0  0  0
    5.2891    3.3508  -18.6283 N   0  0  0  0  0  0  0  0  0  0  0  0
    4.1101    2.8697  -20.4566 N   0  3  0  0  0  0  0  0  0  0  0  0
    2.8549    3.7991  -18.6535 N   0  0  0  0  0  0  0  0  0  0  0  0
    7.4158    2.6235  -19.2323 O   0  0  0  0  0  0  0  0  0  0  0  0
    6.4496   -1.1581  -22.0866 S   0  0  0  0  0  0  0  0  0  0  0  0
    4.5623    4.9478  -24.8428 H   0  0  0  0  0  0  0  0  0  0  0  0
    6.6673    6.2754  -24.7030 H   0  0  0  0  0  0  0  0  0  0  0  0
    4.0421    3.2483  -23.1025 H   0  0  0  0  0  0  0  0  0  0  0  0
    7.8279    4.0207  -21.2198 H   0  0  0  0  0  0  0  0  0  0  0  0
    4.4960    0.3109  -19.4133 H   0  0  0  0  0  0  0  0  0  0  0  0
    9.8221    4.5283  -21.9581 H   0  0  0  0  0  0  0  0  0  0  0  0
    7.5956    7.9333  -23.3590 H   0  0  0  0  0  0  0  0  0  0  0  0
    6.9740    1.1708  -22.9089 H   0  0  0  0  0  0  0  0  0  0  0  0
   11.0700    8.4262  -21.0524 H   0  0  0  0  0  0  0  0  0  0  0  0
    5.3434   -3.3189  -20.4737 H   0  0  0  0  0  0  0  0  0  0  0  0
    5.3086   -2.4205  -18.9187 H   0  0  0  0  0  0  0  0  0  0  0  0
    3.8509   -2.4572  -19.9676 H   0  0  0  0  0  0  0  0  0  0  0  0
    4.5708    3.8514  -16.7074 H   0  0  0  0  0  0  0  0  0  0  0  0
    5.7224    2.4738  -16.7581 H   0  0  0  0  0  0  0  0  0  0  0  0
    6.3215    4.1538  -16.9719 H   0  0  0  0  0  0  0  0  0  0  0  0
    3.3254    2.6982  -21.0522 H   0  0  0  0  0  0  0  0  0  0  0  0
    1.9955    3.7580  -19.1630 H   0  0  0  0  0  0  0  0  0  0  0  0
    2.8664    4.1593  -17.7207 H   0  0  0  0  0  0  0  0  0  0  0  0
  1  2  1  0  0  0  0
  1  3  2  0  0  0  0
  2 10  2  0  0  0  0
  3 12  1  0  0  0  0
  4 10  1  0  0  0  0
  4 12  2  0  0  0  0
  5 13  1  0  0  0  0
  5 14  2  0  0  0  0
  6 11  1  0  0  0  0
  6 20  2  0  0  0  0
  7 11  2  0  0  0  0
  7 21  1  0  0  0  0
  8 13  2  0  0  0  0
  8 26  1  0  0  0  0
  9 20  1  0  0  0  0
  9 21  2  0  0  0  0
 10 11  1  0  0  0  0
 12 17  1  0  0  0  0
 13 17  1  0  0  0  0
 14 18  1  0  0  0  0
 14 26  1  0  0  0  0
 15 17  1  0  0  0  0
 15 22  1  0  0  0  0
 15 25  2  0  0  0  0
 16 22  1  0  0  0  0
 16 23  2  0  0  0  0
 16 24  1  0  0  0  0
 17 23  1  0  0  0  0
 19 22  1  0  0  0  0
  1 27  1  0  0  0  0
  2 28  1  0  0  0  0
  3 29  1  0  0  0  0
  4 30  1  0  0  0  0
  5 31  1  0  0  0  0
  6 32  1  0  0  0  0
  7 33  1  0  0  0  0
  8 34  1  0  0  0  0
  9 35  1  0  0  0  0
 18 36  1  0  0  0  0
 18 37  1  0  0  0  0
 18 38  1  0  0  0  0
 19 39  1  0  0  0  0
 19 40  1  0  0  0  0
 19 41  1  0  0  0  0
 23 42  1  0  0  0  0
 24 43  1  0  0  0  0
 24 44  1  0  0  0  0
M  CHG  1  23   1
M  END
> <OMEGA_C>
xkCoQJ3HmED2R8DByo/OQE9ssEAOvr/B8uGeQPCac0DNYbjBYvPiQA0kiEAZza/BcIyjQIDnuT0b
MKLB274aQf4Us0CFHbDBi7MGQTdE8EBDbrbBnmjOQChzFz9iTbHBs/wlQZGN+EBBZ6zBkAXsQJ7v
p0CGb7fBR4QIQfOaw0CMWLXBQvG7QEDpY0An4a/BBjm2QFXfkD82KanBoL6tQHNal78pWKXBkg7I
QNxJOUCzF5zBivWAQLrWVkB+65nB6E2wQAAOJ0A6mabBUmqeQCaDG8B0q5/BNqGvQAS9XUDaZYnB
QSApQSfDzUCnsKvBeHQVQYgHBUG56LHBRECpQPhzVkCrBpXBQoaDQGioN0Arp6PBa7c2QBwkc0Ba
OpXBgE7tQN7nJ0DC25nBfGPOQNE8lL9nsbDBEv6RQIdUnkAnvsbBilrVQMHPyEC2n8XBkliBQJ3j
T0D40bjBcX76QM2pgEA1wqnBmN+PQPornz50TpvBdycdQSbokEA8qq/BgQ/zQDfd/UA337rBnyrf
QGzblT99RbfB4h4xQZ/RBkE+a6jBEP2qQEBpVMAqyqPBK+CpQDbqGsB7WZfBY3R2QJhCHcCyvZ/B
y0OSQN18dkDTqIXB5x23QIdTHkCuEIbBsknKQIfrhEBhxofB9tJUQPmvLEAAa6jBK2z/P9CCcEDr
TZnB43M3QAAZhUD9w43BcT+nQDz4mEC/07/BAtzNQCYHsECnPr/BEY2dQK0JdED287fB7gjiQEZD
h0ANY6/BaBimQIBAtDw7jaLBMb4WQbL5z0A6H7vBBlMEQfTE20AnVqrBX/TNQDTzHz967rHBnRQh
QdM5A0HQW6/BHKvqQOJjp0BA17bBfQUGQXKvxUDpG7TBVNW6QPPLYkDGh6/B2ou2QEq+jT+ZaqnB
yLKxQDLhnL+4DKbBxDLHQM0SNkCV75vB1JGAQFfrVUCI45nBwHqvQH9mJEBGd6bBEZylQPiRIMBT
aKDBSvivQOf2ZUAqkYnBDDokQYIe8EACjrjBmLsRQUQs/EBVJqjBz7OnQPcoS0D5o5TBxH+CQKsR
M0DwcKPBehE5QG14fEAbkpXBbBDtQHeYKUCg2ZnBDjrQQNzLj7+mu7HBXxCRQHTsnkBpSMbBfVTV
QNsOyEC1KsXBv0d/QAKNUUD2VrjBjMn5QKFPfkB6cqnBGOWSQKLERT7bf5vBwtAYQZVnvkBOfcLB
hXrwQBKo0kC3mKTB3uzcQMNMnz/N77fBN0QrQQ7MEEHBua3Bf/6yQG1sV8DsyqTBKX2yQLbKH8Di
N5jBeYuCQMY8JsDDGqDB0WeRQFvlckAng4XBBBXBQFy0MkCRUIXBKaDDQN0ukEC9lInBRVxSQMyg
JEAA/afBg9kCQCUkf0DozpnBJU47QGzNikADOI7B61vSQBq1bL9pMbjBTKLDQAiu3r/IxK/BodzP
QG7Q9D7tZbfB18evQCSxfT44uKXBujm+QCHKSUCrpZjBwkWSQCUkUsBeK5/Bfo+jQAiBwb+/v5LB
Q7x1QFZKSUBDWaHBmUiFQKvoYMB114zBjWayQKHHk7+Na6bB4ceiQGSq/r/DZp3B5X2+QLSHij8r
JK7BsXGmQO0OQkBV2KLBT8mjQJdQWEArEJDBzfrlQG/tUkAUKK/BHVO3QHIWf0AJPLzBp8q6QKxp
J0Ard63BsKOyQELWY0BiqYTByoABQXqBnUCW1bzBPMGDQGHAgMA/5JbBSuKUQLLeEcATqYrByCrg
QBgrhUCgubfBlxyhQB0CSEBggrbBeO6nQNf9k0BEVsXBI50DQaYVR0CNJ6rByY5cQHc9W0DA9pPB
BaLfQAFgsL9nTL/B24TFQEkjNMCodLDBGkXbQIYtjD8B5L3BfkyiQNnNMj/OoJ7BCZngQKyTREAE
B5jB+juRQGHSa8DOL6fBC/2vQF6fBr8WFJHBkvlGQI5uRECyrqfBtyhzQCHHg8CfTYbBisOWQKUH
bkD+4X7BIPzDQBs6KkDmDoLBhgHIQBLTjUAzLYTBIuv1QJj2sEC0ZcPBbxAJQYySskA84rbB3X4N
Qdklh0DmCMDBCvWCQASfNkC3ErjBWjaKQFYajkB56cfBNpW6QBqVqECGTsnB

> <OMEGA_E>
ZHhlP7hAZj+mxIs/

> <OMEGA_NBR>
      5313

$$$$
50176685
  -OEChem-04172616093D

 44 47  0     1  0  0  0  0  0999 V2000
    6.0450    4.7227  -24.0126 C   0  0  0  0  0  0  0  0  0  0  0  0
    7.1221    5.5558  -23.7102 C   0  0  0  0  0  0  0  0  0  0  0  0
    5.5615    3.8330  -23.0533 C   0  0  0  0  0  0  0  0  0  0  0  0
    4.9098    0.4138  -21.0295 C   0  0  0  0  0  0  0  0  0  0  0  0
    7.2318    4.6099  -21.4897 C   0  0  0  0  0  0  0  0  0  0  0  0
    9.7233    6.7908  -23.0996 C   0  0  0  0  0  0  0  0  0  0  0  0
    9.0753    6.8166  -20.8555 C   0  0  0  0  0  0  0  0  0  0  0  0
    5.2571   -0.7400  -21.6971 C   0  0  0  0  0  0  0  0  0  0  0  0
   10.9052    7.9698  -21.5562 C   0  0  0  0  0  0  0  0  0  0  0  0
    7.7154    5.4996  -22.4489 C   0  0  0  0  0  0  0  0  0  0  0  0
    8.8322    6.3645  -22.1362 C   0  0  0  0  0  0  0  0  0  0  0  0
    6.1548    3.7768  -21.7920 C   0  0  0  0  0  0  0  0  0  0  0  0
    5.7805    1.4971  -21.3439 C   0  0  0  0  0  0  0  0  0  0  0  0
    6.7604    1.1294  -22.2403 C   0  0  0  0  0  0  0  0  0  0  0  0
    6.3048    2.9870  -19.3714 C   0  0  0  0  0  0  0  0  0  0  0  0
    4.0631    3.4465  -19.0770 C   0  0  0  0  0  0  0  0  0  0  0  0
    5.6408    2.8349  -20.7767 C   0  0  1  0  0  0  0  0  0  0  0  0
    7.8488    1.9512  -22.8156 C   0  0  0  0  0  0  0  0  0  0  0  0
    5.5473    3.6022  -17.0270 C   0  0  0  0  0  0  0  0  0  0  0  0
   10.7748    7.5967  -22.8437 N   0  0  0  0  0  0  0  0  0  0  0  0
   10.1065    7.6231  -20.5283 N   0  0  0  0  0  0  0  0  0  0  0  0
    5.2749    3.3705  -18.4411 N   0  0  0  0  0  0  0  0  0  0  0  0
    4.2133    3.1332  -20.4261 N   0  3  0  0  0  0  0  0  0  0  0  0
    2.8603    3.7756  -18.5054 N   0  0  0  0  0  0  0  0  0  0  0  0
    7.4847    2.8223  -19.1036 O   0  0  0  0  0  0  0  0  0  0  0  0
    6.6282   -0.5153  -22.6984 S   0  0  0  0  0  0  0  0  0  0  0  0
    5.5834    4.7664  -24.9950 H   0  0  0  0  0  0  0  0  0  0  0  0
    7.4880    6.2440  -24.4688 H   0  0  0  0  0  0  0  0  0  0  0  0
    4.7219    3.1871  -23.2969 H   0  0  0  0  0  0  0  0  0  0  0  0
    4.0700    0.4726  -20.3487 H   0  0  0  0  0  0  0  0  0  0  0  0
    7.6898    4.5613  -20.5038 H   0  0  0  0  0  0  0  0  0  0  0  0
    9.6238    6.4937  -24.1395 H   0  0  0  0  0  0  0  0  0  0  0  0
    8.4353    6.5406  -20.0226 H   0  0  0  0  0  0  0  0  0  0  0  0
    4.7715   -1.7043  -21.6447 H   0  0  0  0  0  0  0  0  0  0  0  0
   11.7428    8.6151  -21.3220 H   0  0  0  0  0  0  0  0  0  0  0  0
    8.7612    1.9136  -22.1986 H   0  0  0  0  0  0  0  0  0  0  0  0
    7.5666    3.0144  -22.8844 H   0  0  0  0  0  0  0  0  0  0  0  0
    8.1104    1.6047  -23.8273 H   0  0  0  0  0  0  0  0  0  0  0  0
    5.8078    4.6501  -16.8521 H   0  0  0  0  0  0  0  0  0  0  0  0
    4.6671    3.3546  -16.4271 H   0  0  0  0  0  0  0  0  0  0  0  0
    6.3783    2.9738  -16.6946 H   0  0  0  0  0  0  0  0  0  0  0  0
    3.4319    3.1257  -21.0777 H   0  0  0  0  0  0  0  0  0  0  0  0
    2.8427    3.9834  -17.5345 H   0  0  0  0  0  0  0  0  0  0  0  0
    2.0541    3.7932  -19.0845 H   0  0  0  0  0  0  0  0  0  0  0  0
  1  2  1  0  0  0  0
  1  3  2  0  0  0  0
  2 10  2  0  0  0  0
  3 12  1  0  0  0  0
  4  8  2  0  0  0  0
  4 13  1  0  0  0  0
  5 10  1  0  0  0  0
  5 12  2  0  0  0  0
  6 11  1  0  0  0  0
  6 20  2  0  0  0  0
  7 11  2  0  0  0  0
  7 21  1  0  0  0  0
  8 26  1  0  0  0  0
  9 20  1  0  0  0  0
  9 21  2  0  0  0  0
 10 11  1  0  0  0  0
 12 17  1  0  0  0  0
 13 14  2  0  0  0  0
 13 17  1  0  0  0  0
 14 18  1  0  0  0  0
 14 26  1  0  0  0  0
 15 17  1  0  0  0  0
 15 22  1  0  0  0  0
 15 25  2  0  0  0  0
 16 22  1  0  0  0  0
 16 23  2  0  0  0  0
 16 24  1  0  0  0  0
 17 23  1  0  0  0  0
 19 22  1  0  0  0  0
  1 27  1  0  0  0  0
  2 28  1  0  0  0  0
  3 29  1  0  0  0  0
  4 30  1  0  0  0  0
  5 31  1  0  0  0  0
  6 32  1  0  0  0  0
  7 33  1  0  0  0  0
  8 34  1  0  0  0  0
  9 35  1  0  0  0  0
 18 36  1  0  0  0  0
 18 37  1  0  0  0  0
 18 38  1  0  0  0  0
 19 39  1  0  0  0  0
 19 40  1  0  0  0  0
 19 41  1  0  0  0  0
 23 42  1  0  0  0  0
 24 43  1  0  0  0  0
 24 44  1  0  0  0  0
M  CHG  1  23   1
M  END
> <OMEGA_C>
6nDBQPsfl0DFGcDBQujjQHvJsUCHrr3BBvixQH5PdUBAbbjBTB2dQNfa0z5UPKjBEGvnQGGEk0DS
6qvBv5IbQX5O2UDyy7jBTTQRQeEh2kD916bBGDqoQI5xPb+Yk63BvHsuQUQI/0AUc6zBQOT2QPn8
r0Bil7PB0VANQRSqy0DgFrHBBPTEQHy2cUAaVq7B1Pm4QO6gvz9jwKrBFFXYQP2QkD8w7LHB6sDJ
QBMrP0Cm+JrBCQWCQDGTXEDKnZjBDIG0QFBuNUCgNqbBtSn7QHPC+T9PhrbBsoOxQOCKZkA+N4jB
j2UsQYMY80Dlv7bBLLQhQcfw80ALOqTBH8yoQOe2V0BYh5PBsNOGQPqFSECyaKPBYQ43QKSicUAp
C5TBdoLvQOSfNEAX1JjBABrUQHrpA79flrXBQKuyQJyGmECt9cfBWp3vQK3Ox0AIwMPBvxmXQCz6
S0AbYLrBbT2CQA758T4ayqLB7xL2QMn1kUC1B6TBAPsZQYfMz0CYHcHBGPcGQWpM0UAwLqDBW7CY
QIEl2r9aKK3Bk+I7QXPXCUF7k6rBri0MQbPx9D+slrHBqCHyQLLsQEA2E7fBMcQBQYhlzT89nr7B
Ntm5QJbNlEAv0YbBoFiVQBWyVkCpaoPBqBrMQG5TPkCRjoXBs6NbQCYLSEAgn6jBHu41QMrwfkCT
RozBxnUDQI/EckARrZjBREGtQLZPjEAhnMDBsGHQQEuip0Byvr/B9RKhQCBEZkAP6rfBV1qTQJKh
zT7eoKTBhSLbQDibkEAqfa3BpHoSQal90EBQ+r3BdcALQZOZ2EAZtavBTHWcQOOcUL8qRanBW6sn
QeXG+kDbpLPBG1HnQDXJqUBLL7bBkd4FQfYkxkAzS7XBYAK4QPaRakDoWq7BsuStQOjJuD+8rqjB
M0jKQP21ez9/RbDBKKnEQFG6R0A/rJrByk98QKyXZ0Ba6pbBZQurQMZBNUAUJqXBxPbqQDZ03j8Z
W7bB4/KzQAUofkD7/YfBCZAjQdvM6kAHcL3BgqAcQdMo80BclqrBUcmmQA1wZkCyyZLBmld9QPT0
SkAReKHB1kQzQO9LgEB+sJHBYBzrQHmSPkApXZnB8N7EQPPGMr86erLB02ebQJGiikA0DsjBzH3Z
QIEOu0A9mMbBRqqFQPvZO0CWp7jB9pB1QAFQCD+rnJ7BZ+HsQKMjkkA1AqbBBEEPQfK3w0BJ5cXB
X+sCQVmU0kDOYKTBL1KNQKog4r/+safBmlM1QSr4B0Hf+bLB/v4EQbj54D9bK7LBK5bhQH2UMkCS
hrfB8RvwQEoxpT/HTL7Bx6G8QIn1oECLp4fB2OGZQEeDckC0VoLB2pHPQJQAWEClhYXBEWlHQEmP
RkB0/6XBNEw4QNIGikDkJorBZnD4P8BFfkDypJXBTvukQEAdi0DnR8HBMKvEQB1uqkDilsDBaA+e
QIafXkCbubjBmAaXQIo/mD78earB/H/WQFolkkDEya7BZQj7QO0O9UC57bvBo24RQUvayEAfnrDB
0RamQKHVYb+uvq7B2p0dQa1jBUE3UbXBG2zdQDnzrUAeWLfB0UX+QCxzzkBBorbBU9C2QL2pZUDX
eq/B9su2QP7lqD+YfKrBDPLcQEG1YT/Aw67BoS/KQIA/QECyN5zBokuDQH41TUDfUpfB+mqvQJrG
KkCla6bBzLsCQegz0D+tNbDBKcy6QCNfbEAnDInBC4MMQZYHCkEfcrvBJhAhQTxz5kBMx6/BUpys
QPDhVEALxZPBVgSDQMgpNEACBaLBIrA9QFtYW0AleJHB0ibxQLxOQECLfZvB5FnaQGNHQb/evbLB
QreRQM9fiEBqe8jBkrDJQBLdv0D8U8fBV06FQJX+LUDpU7nBBm5tQJAM1T6If6fBT7DpQLq5lEBx
jafBvIjfQFy9/EDj4cDBn04UQYWjq0AAI6zBsOmUQNID6L/qtK/BZO0pQWOKEUG/zbTBmEQNQXSN
xD93LanBJNT/QOogLUCsWrHBzpQLQRSnoD/AOLfBaVy/QELOmEBVcojB/gijQNeiWED3HYPBYxPZ
QDajTEB9LYfBlvZOQBd/KkBEMabBBOtDQPD2bEAU4InBZogFQGpsU0DgDJXBhO25QBKNn0CAwcDB
zQDaQFiLvUCTwb7BKkiuQN5dgkDQ1LjBsHO7QPqvvz/MBrbBZMbiQMMsoUDU6KzB2wYIQWOXAkEo
mrfB14gYQSlr1UA31avBD2XEQKpoMT6IE7jBlLImQX+jC0Gz7q7B/2vuQFpcvkCQ1bTB5dYHQZJ9
3UBcxLLBXrPCQOAug0DN6K7BADi+QNHr5j9G6qrBzizJQGWaMz9K5aTBs37MQKgTWEDqfpvBdwuE
QC8laECJkZjBfE22QMmOSEA6habBlETPQHBaGT9WLpnBRgi1QIawfUBXn4jBD0QXQUJ7EUGc3LXB
Kk0oQcSu8UCuuKnBk4qrQPF2a0B50ZPB7lOIQGBdU0B0WqPBC7o6QBiOdkDGs5PBTdnyQMgSVUDK
qpnB2hDQQObvMb8NoqzB1QmqQJXqnkDXe8jBAbziQAgV1EAWBMXB+kGVQPoxVkAfdLrBJ1OzQPBb
DUC/O7zBNpHyQDyloUDZJqXBiEP3QLVmB0FMMr3BtusZQYQst0AanKfBBqHEQCb5pr61vr/BBioz
QURHF0EOZ63B3EWxQE4Srj63CJXBrCraQIurxj+dsJXBJinnQOC6L77vNZfBNVG6QNAeoUB6cIfB
AmmaQBBbaUBHi4PBocLRQCgfW0DvHYbBrIldQBNRTUDcVqjB1W46QCJ4gkCV9ovBtgkGQB4OckDW
GpjBWkW/QC5qmkD1NsDB3EvfQF4fuECc673BAHyyQBwqekB/b7jBYgXSQMNasz9E5LTBwrzlQOQr
m0DqEazBIWgXQUQM50C1QrnBEi8NQZby5kAXSafBoHnWQFjpdD0PI7fBlq4oQbtICEGgE63BYIby
QGeBuEBr2bPBld0JQeZW10AAerHBgrbFQC/uekBOXa7BZEHAQFW5zz8hi6rBps63QEsY4j4zRqXB
LAbNQAtfS0Ay7prBFFCEQGVJXECnh5jBghu4QCzPPEBIIabBQnmlQNZHdD4beprBwHGzQJQ1cECs
NIjBAQwnQdPlAUGYVbfBRoEcQcjXAUHoyaTB8jurQN3FXkD0e5PB+s+JQMETSEAVTKPB1Ts6QJD0
akDh8JPBlCHzQMq4R0DH0ZjBoEXFQHIubb9sy6zB+k6wQBkemkACD8jB4uzoQNzHzkDcEcTB5oGZ
QFATTECUSbrBzB/bQPqvC0AzcLrBFJn0QOpNm0B+MqTBKCwWQXfh3EDBi8HBAG0DQcGu3ED4kaDB
VgDjQBXfxr4CW77BZiM1QTbLE0HDTKvBgEqCQBbKLD4isprB/iCtQHOeiT+cEJXBPNWxQAKkL79R
1JbBmtG4QIdOmkBj64bBjCiYQED0W0DyWIPB1r3PQMMXTUAFhYXBja5hQB+uQkAkeqjBCTA4QFDj
eEBzMYzBe5cGQFcVZ0DMipjBU/IHQUoEWUBhHrPBi0b4QMUWeUB7srvBE/T6QMIgM0AweqrBhhix
QPgwHT7KaK7BvMq2QLBeTUCB/rLB807DQO46i0AK0s7BW2GKQCstmkDVTMPBWf+tQC01nL+Vm67B
zN2FQEQgqUCzENXBUrvLQKpCc0DPorvB3EOzQCRDikD6icTB3GjOQKVMLUCEaqrBOJC0QFimKD8c
yaPB4vqzQMymsr6VRJzBcsnNQCLUFkC4NJbB5CaKQLiOUUADRpXBV0e4QAEUBUA/Q6HBz8+2QGgq
fL7WeZDBc0+5QOMrYUCO4YTBUWetQBd/mkCsTdfBmVhlQLLtqUAFa8vBTJ2vQFCzRUBOxI/B2jaN
QFS5LEDVZJ/Bd5FMQGT5ekDKopHBWcbxQKaXAUDXepPBBUSvQIGv8r+aBaLBNEoZQWCUXUDUKrPB
5YcEQQk8i0AcYMLBsMsGQZJLGkD70qPBTt6wQDw9Qz/bkbXB6w2UQIyZSECy5bLBOinjQKb3fkC5
rdDBPnh1QMHrmkBXi7vBNgurQBEP7r88irXBRi9nQACmtUBiutvBgv6WQPh2Fr4pwozBAUrJQAhe
Iz/S9I3BqFnGQKuIkb8PDo3BDOTHQPpnkEB254TBowacQFZqY0BTGYDBonrPQFE7NEDpGoHBUINp
QIcTLkC/w6TBN6FNQK6niUAaTIrBgWEaQLUFf0DZepbB+BQFQRzPiEDTKLbBXNLuQDz+kUAGrb7B
Ef36QDoRZEBQWK3BhpXHQNTz2z7flrDBwyS1QPM+W0CDkLXBPKm2QNH0kUCylNHBCBp5QC2Uk0Az
1cXB8TXPQAZZbb/bm7DBFNZmQKGen0AJoNfBmFHEQC5mhEAjYb7B5/ynQFnujUDZN8fBT3zQQB/h
SEBtDK3BDLbHQOa6eD/jC6bB227PQCBp/DuOaJ7BV+TTQLnlNUDEzJjBWTqLQChOTkDSopfBQXjA
QJmRGEA7tqPBJyPSQGnpID6IpZLBCiK4QDHKdkDrg4fBTCydQKrQmkDpAdrBmXBCQE6AnEAj483B
lluxQDPFVUA8TJLBEgOSQMV9KkBFs6HB50xHQAazZUBQ5ZPBm4z5QPweM0BtN5bBqXrWQCN1xb/4
86PBDqEVQQZok0AtZLbBeh/7QMvJo0C7fcXBEEAIQVMEVkDgvabBxy/CQDEzgD+Z0bfBJweUQEDV
RUCkSLXBjEnYQK0ejkAljtPBKmBbQLodkUDcAL7BgtvQQJsTy7+xcrfBPHc8QL/VpkCEPd7BC72y
QMhatDwjyI7B5l7dQEuWlD9zU5DBzFToQOLQFL/5Mo/BTpK+QPXJnUDiuofB48GbQK+Ka0Bfl4LB
HFLTQCR/VkDPxIPBqY5zQFclH0Da8qbB6V9DQIWyfkB4m4zBtAMVQCy+XECLnpjB

> <OMEGA_E>
llkuwdfNJMFQhxvBhBEkwe5yHsGqZhjBobwPwQ==

> <OMEGA_NBR>
     11002

$$$$
50176746
  -OEChem-04172616093D

 44 47  0     1  0  0  0  0  0999 V2000
    5.6340    4.1502  -24.2812 C   0  0  0  0  0  0  0  0  0  0  0  0
    6.7128    5.0474  -24.1687 C   0  0  0  0  0  0  0  0  0  0  0  0
    5.2046    3.4204  -23.1579 C   0  0  0  0  0  0  0  0  0  0  0  0
    6.9251    4.4953  -21.8040 C   0  0  0  0  0  0  0  0  0  0  0  0
    4.8944    0.0846  -20.6555 C   0  0  0  0  0  0  0  0  0  0  0  0
    9.3310    6.4850  -23.8694 C   0  0  0  0  0  0  0  0  0  0  0  0
    8.7729    6.7920  -21.5376 C   0  0  0  0  0  0  0  0  0  0  0  0
   10.5805    7.9094  -22.5005 C   0  0  0  0  0  0  0  0  0  0  0  0
    7.3599    5.2311  -22.9235 C   0  0  0  0  0  0  0  0  0  0  0  0
    8.4926    6.1748  -22.7785 C   0  0  0  0  0  0  0  0  0  0  0  0
    5.8601    3.5750  -21.9114 C   0  0  0  0  0  0  0  0  0  0  0  0
    5.7249    1.1910  -21.1732 C   0  0  0  0  0  0  0  0  0  0  0  0
    5.2402   -1.1326  -21.1901 C   0  0  0  0  0  0  0  0  0  0  0  0
    6.7012    0.7273  -22.0469 C   0  0  0  0  0  0  0  0  0  0  0  0
    6.2221    2.9442  -19.4402 C   0  0  0  0  0  0  0  0  0  0  0  0
    3.9884    3.3811  -19.1654 C   0  0  0  0  0  0  0  0  0  0  0  0
    5.4912    2.6481  -20.7510 C   0  0  1  0  0  0  0  0  0  0  0  0
    4.5720   -2.4466  -20.8720 C   0  0  0  0  0  0  0  0  0  0  0  0
    5.5186    3.8463  -17.1860 C   0  0  0  0  0  0  0  0  0  0  0  0
   10.3599    7.3452  -23.7141 N   0  0  0  0  0  0  0  0  0  0  0  0
    9.8088    7.6468  -21.4180 N   0  0  0  0  0  0  0  0  0  0  0  0
    5.2685    3.4973  -18.5961 N   0  0  0  0  0  0  0  0  0  0  0  0
    4.0802    2.8945  -20.3869 N   0  3  0  0  0  0  0  0  0  0  0  0
    2.7913    3.7284  -18.5478 N   0  0  0  0  0  0  0  0  0  0  0  0
    7.4082    2.7561  -19.1872 O   0  0  0  0  0  0  0  0  0  0  0  0
    6.5787   -0.9881  -22.2849 S   0  0  0  0  0  0  0  0  0  0  0  0
    7.9593    1.6344  -22.8684 Cl  0  0  0  0  0  0  0  0  0  0  0  0
    5.1355    4.0222  -25.2306 H   0  0  0  0  0  0  0  0  0  0  0  0
    7.0479    5.5974  -25.0356 H   0  0  0  0  0  0  0  0  0  0  0  0
    4.3714    2.7390  -23.2460 H   0  0  0  0  0  0  0  0  0  0  0  0
    7.4129    4.6370  -20.8509 H   0  0  0  0  0  0  0  0  0  0  0  0
    4.1012    0.2182  -19.9348 H   0  0  0  0  0  0  0  0  0  0  0  0
    9.1492    6.0324  -24.8330 H   0  0  0  0  0  0  0  0  0  0  0  0
    8.1529    6.5773  -20.6798 H   0  0  0  0  0  0  0  0  0  0  0  0
   11.4061    8.5972  -22.3924 H   0  0  0  0  0  0  0  0  0  0  0  0
    5.0645   -3.2543  -21.4333 H   0  0  0  0  0  0  0  0  0  0  0  0
    4.6530   -2.6474  -19.7936 H   0  0  0  0  0  0  0  0  0  0  0  0
    3.5107   -2.3966  -21.1570 H   0  0  0  0  0  0  0  0  0  0  0  0
    4.6031    4.2658  -16.7436 H   0  0  0  0  0  0  0  0  0  0  0  0
    5.8130    2.9430  -16.6315 H   0  0  0  0  0  0  0  0  0  0  0  0
    6.3268    4.5904  -17.1304 H   0  0  0  0  0  0  0  0  0  0  0  0
    3.3001    2.7162  -20.9866 H   0  0  0  0  0  0  0  0  0  0  0  0
    1.9256    3.6137  -19.0351 H   0  0  0  0  0  0  0  0  0  0  0  0
    2.7964    4.0927  -17.6166 H   0  0  0  0  0  0  0  0  0  0  0  0
  1  2  1  0  0  0  0
  1  3  2  0  0  0  0
  2  9  2  0  0  0  0
  3 11  1  0  0  0  0
  4  9  1  0  0  0  0
  4 11  2  0  0  0  0
  5 12  1  0  0  0  0
  5 13  2  0  0  0  0
  6 10  1  0  0  0  0
  6 20  2  0  0  0  0
  7 10  2  0  0  0  0
  7 21  1  0  0  0  0
  8 20  1  0  0  0  0
  8 21  2  0  0  0  0
  9 10  1  0  0  0  0
 11 17  1  0  0  0  0
 12 14  2  0  0  0  0
 12 17  1  0  0  0  0
 13 18  1  0  0  0  0
 13 26  1  0  0  0  0
 14 26  1  0  0  0  0
 14 27  1  0  0  0  0
 15 17  1  0  0  0  0
 15 22  1  0  0  0  0
 15 25  2  0  0  0  0
 16 22  1  0  0  0  0
 16 23  2  0  0  0  0
 16 24  1  0  0  0  0
 17 23  1  0  0  0  0
 19 22  1  0  0  0  0
  1 28  1  0  0  0  0
  2 29  1  0  0  0  0
  3 30  1  0  0  0  0
  4 31  1  0  0  0  0
  5 32  1  0  0  0  0
  6 33  1  0  0  0  0
  7 34  1  0  0  0  0
  8 35  1  0  0  0  0
 18 36  1  0  0  0  0
 18 37  1  0  0  0  0
 18 38  1  0  0  0  0
 19 39  1  0  0  0  0
 19 40  1  0  0  0  0
 19 41  1  0  0  0  0
 23 42  1  0  0  0  0
 24 43  1  0  0  0  0
 24 44  1  0  0  0  0
M  CHG  1  23   1
M  END
> <OMEGA_C>
hEm0QNHOhEDcP8LBN8/WQBmEoUCBWcHBP4ymQJfnWkBVQ7nBeJrdQBvZj0CPbq7Bsp6cQNZFrT2L
PqXByksVQfWEz0B09L7BuV0MQVFY2UANTazBokkpQTEa/UAIAbTBYITrQDdlp0BIY7fB3eEHQTKY
xUBtOrbBJoa7QBjMZECmSq/BBDK3QE50mD/GYqnB4q+nQFD5kL9ahanBc3DWQDYwOj/8X7DBkhvH
QBZtPECEhZvBS0J/QM1jWEC6UpnBvrevQBF6KUAUAqbB6E2SQBWVHMDz+abBgJiwQF0pdkD1fInB
OsIlQTMM60B0tr3B7/AcQaWy9ED5V6vBNZeoQCbTX0DDxJTB7pCCQCpAOUBhGKPBLqQyQM2dbkDx
YZTB1A/tQGRjMEB5f5nB+ITSQFnzfL9qR7LBTrL+QN0z0T9w8rbBy1WkQIW1gEBf2MnBW4jhQA4e
s0D4SMjBJeKLQKZLL0Do97nBSjbtQPphlECczqbB9DyDQGNjXz6Fep/BE2MSQcIJwUDvqcbBVHIC
QYJ50kAhcKXBg382QSKOCUGZI7PBwBCiQBdHUMBTd6vBTOWUQOFuKcA4WZ7BDLBgQEthGcCWQanB
TEyTQLyBiEDk8oXBNgS6QHtaPEBaDYXBiHXKQEfkkkAaC4nBnzRTQLXVLUCI5KfBSHr2P+VGZ0D2
R5jBjvcyQH33gkC77ozB

> <OMEGA_E>
VGR0Pw==

> <OMEGA_NBR>
     12043

$$$$
50213407
  -OEChem-04172616093D

 55 58  0     1  0  0  0  0  0999 V2000
    6.5449   -0.5674  -22.6529 C   0  0  0  0  0  0  0  0  0  0  0  0
    6.1053   -1.5554  -21.7525 C   0  0  0  0  0  0  0  0  0  0  0  0
    6.3461    0.7956  -22.3620 C   0  0  0  0  0  0  0  0  0  0  0  0
    5.2264    0.1788  -20.2857 C   0  0  0  0  0  0  0  0  0  0  0  0
    5.0097    3.8687  -22.9475 C   0  0  0  0  0  0  0  0  0  0  0  0
    7.1673    4.2258  -21.9206 C   0  0  0  0  0  0  0  0  0  0  0  0
    5.7436   -3.3071  -19.2811 C   0  0  0  0  0  0  0  0  0  0  0  0
    3.6842   -2.0661  -19.0147 C   0  0  0  0  0  0  0  0  0  0  0  0
    4.0609   -4.0465  -17.8364 C   0  0  0  0  0  0  0  0  0  0  0  0
    5.4340   -1.1816  -20.5693 C   0  0  0  0  0  0  0  0  0  0  0  0
    4.9498   -2.1958  -19.6222 C   0  0  0  0  0  0  0  0  0  0  0  0
    5.6870    1.1800  -21.1664 C   0  0  0  0  0  0  0  0  0  0  0  0
    5.8897    3.6293  -21.8716 C   0  0  0  0  0  0  0  0  0  0  0  0
    5.4044    4.7162  -24.0013 C   0  0  0  0  0  0  0  0  0  0  0  0
    7.5102    5.0503  -23.0090 C   0  0  0  0  0  0  0  0  0  0  0  0
    6.2093    2.9089  -19.4404 C   0  0  0  0  0  0  0  0  0  0  0  0
    3.9711    3.3180  -19.1942 C   0  0  0  0  0  0  0  0  0  0  0  0
    5.4954    2.6440  -20.7636 C   0  0  2  0  0  0  0  0  0  0  0  0
    4.9408    6.0046  -26.1512 C   0  0  0  0  0  0  0  0  0  0  0  0
    8.7498    7.1985  -22.6714 C   0  0  0  0  0  0  0  0  0  0  0  0
    5.4513    3.7156  -17.1765 C   0  0  0  0  0  0  0  0  0  0  0  0
    4.4457    4.9324  -25.1609 C   0  0  0  0  0  0  0  0  0  0  0  0
    8.8699    5.7146  -23.0490 C   0  0  0  0  0  0  0  0  0  0  0  0
    5.2909   -4.2105  -18.3861 N   0  0  0  0  0  0  0  0  0  0  0  0
    3.2549   -2.9985  -18.1395 N   0  0  0  0  0  0  0  0  0  0  0  0
    6.6347    5.2866  -24.0121 N   0  0  0  0  0  0  0  0  0  0  0  0
    5.2076    3.2309  -18.5409 N   0  0  0  0  0  0  0  0  0  0  0  0
    4.0795    2.8622  -20.4196 N   0  3  0  0  0  0  0  0  0  0  0  0
    2.7889    3.7794  -18.6363 N   0  0  0  0  0  0  0  0  0  0  0  0
    7.3863    2.6970  -19.1673 O   0  0  0  0  0  0  0  0  0  0  0  0
    7.0364   -0.8557  -23.5703 H   0  0  0  0  0  0  0  0  0  0  0  0
    6.2817   -2.5991  -21.9670 H   0  0  0  0  0  0  0  0  0  0  0  0
    6.6963    1.5502  -23.0507 H   0  0  0  0  0  0  0  0  0  0  0  0
    4.7076    0.4617  -19.3818 H   0  0  0  0  0  0  0  0  0  0  0  0
    4.0352    3.4033  -22.9634 H   0  0  0  0  0  0  0  0  0  0  0  0
    7.8788    4.0508  -21.1271 H   0  0  0  0  0  0  0  0  0  0  0  0
    6.7147   -3.4370  -19.7355 H   0  0  0  0  0  0  0  0  0  0  0  0
    3.0573   -1.2188  -19.2504 H   0  0  0  0  0  0  0  0  0  0  0  0
    3.7090   -4.7815  -17.1276 H   0  0  0  0  0  0  0  0  0  0  0  0
    4.2101    6.1176  -26.9656 H   0  0  0  0  0  0  0  0  0  0  0  0
    5.0553    6.9641  -25.6256 H   0  0  0  0  0  0  0  0  0  0  0  0
    5.9109    5.6974  -26.5691 H   0  0  0  0  0  0  0  0  0  0  0  0
    9.7442    7.6675  -22.7047 H   0  0  0  0  0  0  0  0  0  0  0  0
    8.0816    7.7050  -23.3834 H   0  0  0  0  0  0  0  0  0  0  0  0
    8.3371    7.2859  -21.6555 H   0  0  0  0  0  0  0  0  0  0  0  0
    4.4896    3.8964  -16.6739 H   0  0  0  0  0  0  0  0  0  0  0  0
    6.0217    2.9606  -16.6157 H   0  0  0  0  0  0  0  0  0  0  0  0
    6.0253    4.6531  -17.2177 H   0  0  0  0  0  0  0  0  0  0  0  0
    4.3277    3.9818  -25.7016 H   0  0  0  0  0  0  0  0  0  0  0  0
    3.4721    5.2484  -24.7581 H   0  0  0  0  0  0  0  0  0  0  0  0
    9.5404    5.2120  -22.3364 H   0  0  0  0  0  0  0  0  0  0  0  0
    9.2848    5.6310  -24.0643 H   0  0  0  0  0  0  0  0  0  0  0  0
    3.3097    2.6876  -21.0335 H   0  0  0  0  0  0  0  0  0  0  0  0
    1.9471    3.7779  -19.1762 H   0  0  0  0  0  0  0  0  0  0  0  0
    2.7778    4.1137  -17.6939 H   0  0  0  0  0  0  0  0  0  0  0  0
  1  2  1  0  0  0  0
  1  3  2  0  0  0  0
  2 10  2  0  0  0  0
  3 12  1  0  0  0  0
  4 10  1  0  0  0  0
  4 12  2  0  0  0  0
  5 13  2  0  0  0  0
  5 14  1  0  0  0  0
  6 13  1  0  0  0  0
  6 15  2  0  0  0  0
  7 11  1  0  0  0  0
  7 24  2  0  0  0  0
  8 11  2  0  0  0  0
  8 25  1  0  0  0  0
  9 24  1  0  0  0  0
  9 25  2  0  0  0  0
 10 11  1  0  0  0  0
 12 18  1  0  0  0  0
 13 18  1  0  0  0  0
 14 22  1  0  0  0  0
 14 26  2  0  0  0  0
 15 23  1  0  0  0  0
 15 26  1  0  0  0  0
 16 18  1  0  0  0  0
 16 27  1  0  0  0  0
 16 30  2  0  0  0  0
 17 27  1  0  0  0  0
 17 28  2  0  0  0  0
 17 29  1  0  0  0  0
 18 28  1  0  0  0  0
 19 22  1  0  0  0  0
 20 23  1  0  0  0  0
 21 27  1  0  0  0  0
  1 31  1  0  0  0  0
  2 32  1  0  0  0  0
  3 33  1  0  0  0  0
  4 34  1  0  0  0  0
  5 35  1  0  0  0  0
  6 36  1  0  0  0  0
  7 37  1  0  0  0  0
  8 38  1  0  0  0  0
  9 39  1  0  0  0  0
 19 40  1  0  0  0  0
 19 41  1  0  0  0  0
 19 42  1  0  0  0  0
 20 43  1  0  0  0  0
 20 44  1  0  0  0  0
 20 45  1  0  0  0  0
 21 46  1  0  0  0  0
 21 47  1  0  0  0  0
 21 48  1  0  0  0  0
 22 49  1  0  0  0  0
 22 50  1  0  0  0  0
 23 51  1  0  0  0  0
 23 52  1  0  0  0  0
 28 53  1  0  0  0  0
 29 54  1  0  0  0  0
 29 55  1  0  0  0  0
M  CHG  1  28   1
M  END
> <OMEGA_C>
hW/RQCBAEb8MObXBvV7DQPQWx78MBa7BURPLQI+sSz9R5bLBCD+nQKciNz4mSaLBEU+gQM2Yd0Bs
lLfByVrlQJ45h0BfXa/Bi8u3QFWoU8DCP5rBvslrQJc7BMARHpjBAPOBQAB9gcD0sI7BfuOtQDA9
l7/ojaTBkmSeQEaIDMA1+pzBz/u1QGgLlz/WVKnBnni8QB1GaEAP+a7BxvCsQGvrlkCQAsDBSVPw
QOqboUB1ErjBSrLGQNUqOkDlhZvBeiZ+QItZVEDKjZnBaNqvQIs3KUDIG6bBXBueQEclwECgNdHB
Cv8LQfJZ5kDzXrXBpXCuQPbMbUCNaYnBN0OOQDfWnUBzScnBEOsNQdrdtkBYZLjB5E6pQJS8hsCk
FpPB8U9QQOnnP8DJHZHBJU/UQJUrqUC9GMDB6qSmQH/GTkDaU5TBX4uCQAYvN0BHW6PBlnwyQIDh
cUAUF5XBYVzsQLabLEC5VpnBSSrhQHEQW7/oj7zB2APJQAlXJsBqvK/BL0jWQAhsxj/iZ7jBYqSW
QO1l7D7VDZvBfyCBQDjPWUACtbfB3h78QPufgUBMBKnB3t7WQCD4W8Bg4p3BhqtDQAQDnL/LAJrB
bWBtQB4CmcBqBYnBV7mGQD7Dw0COudfBs8ShQKvZ3kBAAc3BHya9QGpRtkCHjdTBPOgbQUZc9UAv
o7XBHU4BQSKP9kAuEbvB0GQFQUIm6UBePq3BJauPQOJeeUAwZIXBGrLAQD57PUD37ITBI8/AQP3l
lEDBvYnByXyKQHDVfkDjnM3BuzZeQPnyp0CbEMbBUKUYQVvIpkDisLLBnY4UQTwxtECyg8DB2tJT
QMcBLECwRKjBHzz5P7PJcUDcaJnBJccxQD2jg0AIjY3BaeDRQCLZEb86JrXB2n3DQNmcx78RAK7B
VE3LQMLlSj+S1bLB5LSmQNabLz7uVaLBBFjlQLYph0DRNq/BF3agQMAYeEDPiLfBhei3QAgsVMCV
UJrBQgJsQI4OBcDFBpjB7oeCQHXwgcAnpo7B15WtQMolmL/jlaTBdVKeQDUoDcAd/ZzBia61QCdV
lj+nVqnBenS8QJsmaEAp6a7Be3jwQJnsoUB91bfBm1GtQFNYl0Bo6b/BqnHGQLdSOUCzfZvBjst9
QPl7VEACjJnB5Z6vQPDTKEDfFqbBhu8LQa1R50DzAbbBkzKfQEF0wEA1MNHBTX2uQDPcb0Cjf4nB
AQoOQRIJt0BAD7jBWKiOQNPUnkBGK8nBeMGpQL0Nh8C/IJPBlzBRQM3bQMDf/5DBiq7UQMCeqUCx
57/Bbn6mQAYrT0AuVJTBxlSCQDUlN0AuWKPB9RwyQOy7cUCJDpXBTwjsQFYqK0BqSJnBNgTiQGUx
W7/2b7zBgjfJQPGRJsASuK/Bcr/WQAo1xj8vTbjBsbyVQEfL5z4uJ5vBvgL8QN9EgUBT3KjBpDuB
QNWFWkB4t7fBU9/WQAFMXMDyA57B4aRDQHDFnb+a2pnBb/9uQOWLmcA3+YjBQOIbQUEw9kAcMrbB
W88BQYu79UALPbzByZkEQTCe7EBjHq7BGcGHQNh3xEDurNfBZcSjQJ0w30DYDc3BGeO9QJ+0tUDP
jtTBvsqPQDwzfEBheoXBIMLAQOYqQEBg6YTBwevAQJvalUDH/YnB1zMYQZTAqEBJ07HBaGkVQe/d
sUDx8b/Bk/mJQORjgEAAbs3BvrVfQOPfqUAJ7cXBZ19TQLIQLEB8QajBgTz4P1xLcUDwWZnBh4Ux
QKCig0ARho3Bf7/SQAmEEL/AJLXBNRbEQMw2x7+TDK7BZPHLQEwHTD861rLB0YemQERJLz6ceKLB
QTzlQLR4h0DDNq/B2pmgQMQwd0DJlrfBwD5rQM8QBcArTZjBKNm3QESSU8AmVJrBDS+CQIBtgcDf
t47B1aOtQPgImL/EtaTBPyueQCUODcAOJZ3BWNC1QG6Hlj/eZ6nBuoG8QEEpaEBE7a7B5EfwQC0S
okDu37fBxUStQErjlkAy+r/Bo3PGQKr+OEDXe5vBywZ+QAtTVUAnpZnBg8CvQF3TKEBEHabBW6cL
QaUi50DvI7XBeC6eQNPuv0CwNNHBYd6tQFZ1a0ARVonBfNQNQbybt0AsEbjB5/qOQF8OnUBjXsnB
3kFQQK5jQMCzOZHBEZapQM2HhsCdGZPBk3nUQLCEqUBx9r/Bn02mQKDvTUDEU5TB/3GCQIE8N0Be
Z6PBu8UyQCHjdEArS5XBwAjsQLXrKkCtQpnB+EbjQPhCWb/7YbzB5ALKQAdUJsBawK/Bm5nXQE/8
xj/hQrjBSiKVQIlY5j6pWJvBfdX7QK7ygUAU06jBDo2BQAriWECUyrfBlalCQLq0nr+hQprBufXW
QKSrW8C9853B8jRuQE/RmMAa/ojBzoQbQf1b9kDjT7XBjBQBQSYL90B58brBDcwEQcoN6kCNEa3B
oBCHQCzowkDnzNfBdqWgQBSu3kBc98zBJLO9QHsft0BJctTBPgWPQJujd0B1YYXBnYC/QLkDOkC5
4oTBc8PAQJNrk0DbgYnBRnAYQWfSp0BpQrLBxbgUQcPPtEBVIsDBGWWMQFw1fUArvM3B165eQEYp
pkA+QcbBi6JTQM64K0AJTqjBA176P/6ldUCPqpnBPRMyQH5yhUAvyI3B79fRQMqbFL8/N7XBaW7D
QF35yL+eEa7BNXLLQO05SD/44LLBjummQEfdJT5VX6LBRImgQM3gdkDviLfBbHblQOwOh0D9R6/B
mJNrQHNcBcAKJ5jBQri3QDGaVMCsU5rBXzSCQCvSgcAxqI7B0p2tQH9hmb8WpaTBajCeQOKrDcBX
EJ3Bm/W1QLkLlT9wXanBA7C8QLx3Z0C07q7Bcf2sQH/LlkBE7b/B6zzwQLzVoUCq8LfBQKTGQIKC
OEDReZvBxxB/QJyiV0CaxpnBffivQJ4mKEAUGqbBeJidQF7Hv0DrJdHBOiELQeBN50D6GLXBAimu
QMtCbUAAb4nB63yOQJP/nEDmRcnBRKkNQTnyt0BlI7jBl5VQQObDQMD3FZHBX3epQJIVh8AkG5PB
lTPUQHlhqUB0+L/BY4CmQFV1TkCrXJTBHqaCQL6ONkAdY6PBwws1QHS1e0DjpJXBuzDsQPJEKkBt
PJnBGd7hQAgIXr/ehLzBthDJQHBEJ8Ddy6/BC+3WQLbaxD++V7jBXQWWQCoZ4z7bLZvB/XCBQHa8
WEDlr7fBJ0f8QJtcgUAh86jBUjhDQJaunr8iDZrBO7bWQNn1XMAxAZ7B7T5uQFE/mcDZ8IjBZlKG
QK/HwkAStdfBekKgQKSL3kDO7MzBOAG9QG7atkBQb9TBld4aQVoK90CGRLXBW2EAQdQU90B317rB
GVIEQaO16UBQAa3BOlmPQBIWekD9fYXBFsC/QI5EPEAv5YTBKyLBQLdBlEAXuYnBcbOLQNMNfUCE
n83BZ+ldQCA4pkACHcbBCXAYQQZEqEDnY7LBS38UQTejtUAOOsDB5s1TQLUWKUDrK6jBZ5n/P+6l
fUB0E5rB3uY0QAvliUBkO47B0jfRQIWRHb/F1bTBC4bCQCDjyb+Hf63B4ZfKQNZcQT+V6LLBnKik
QBA6Sj4wcKLBRG6lQBA3ckAHXrnBrMfhQEJskEDVyq7BzSi2QMTsVcAiQprBLvVsQKB3AsBq2JbB
tYeCQPAlgsBeCo7BYy6sQBi4lr9LOaTBxIOdQPYoDMACYpzB6iC0QHUglz+kr6nBe6q9QFKGakAu
1q/BB/+xQMgEl0BHWMHBNUzsQCCArUDLGbfBq2/GQCJtOUA+LpzBavd8QCzBTUB+z5nBsoKvQHg3
K0Ah1qbB2qdTQJK/nUDGaMrBHu8aQTJ8wkD1P7DB++WtQJDjXECMdYnBUVqaQPXDm0Cm3svBGiEG
QbVt0UC1dbXBoGmoQFlHiMCuGpPBr/lSQCbUPsDy0Y/Bwv3UQMJyr0CfG8DBc0ymQNawRkCRupTB
uHqCQFx0PUBRFqTBSVswQMA+YUAxwJTBHlzsQIrlLEBIMJrBULPhQD5Xbr9U/7vBnFvIQEINKMBS
967BTbfWQAFLvj9Kf7jBHN+SQAe4AT+odJvBwXmJQIy7SkA2krrBc0j1QBT4jkA2q6fBoynUQGeG
X8ADYJ7BF89FQK8rlb8WOpjB+LdvQJ7kmcCRW4jBZK40QGAuoUDXQ9LB2kw9QHEkgEBLjsbBSCJD
QP5YuUBVWsXBQcslQTPq3UDnSK/BjWsXQbyOtEB8XKjBl5IiQSM1qkCyWbXBow6PQBjKY0BiToXB
KbPAQC3mKUBKn4XBOqO/QLnLjEDYA4nB2QylQMRquUA0yc/BIiKiQDY2gEAp/dDB6O0JQduH30Cv
S73Bu439QHTh6UB5TrDBXZdUQP9rPUB9U6nBrxH0P+SjY0BX+JjBpngvQD/lbECc4ozB

> <OMEGA_E>
AD9APABdpzwAtaw8QFG5PGzCuz4=

> <OMEGA_NBR>
     16899

$$$$
50213410
  -OEChem-04172616093D

 55 58  0     1  0  0  0  0  0999 V2000
    6.5449   -0.5674  -22.6529 C   0  0  0  0  0  0  0  0  0  0  0  0
    6.1053   -1.5554  -21.7525 C   0  0  0  0  0  0  0  0  0  0  0  0
    6.3461    0.7956  -22.3620 C   0  0  0  0  0  0  0  0  0  0  0  0
    5.2264    0.1788  -20.2857 C   0  0  0  0  0  0  0  0  0  0  0  0
    5.0097    3.8687  -22.9475 C   0  0  0  0  0  0  0  0  0  0  0  0
    7.1673    4.2258  -21.9206 C   0  0  0  0  0  0  0  0  0  0  0  0
    5.7436   -3.3071  -19.2811 C   0  0  0  0  0  0  0  0  0  0  0  0
    3.6842   -2.0661  -19.0147 C   0  0  0  0  0  0  0  0  0  0  0  0
    4.0609   -4.0465  -17.8364 C   0  0  0  0  0  0  0  0  0  0  0  0
    5.4340   -1.1816  -20.5693 C   0  0  0  0  0  0  0  0  0  0  0  0
    4.9498   -2.1958  -19.6222 C   0  0  0  0  0  0  0  0  0  0  0  0
    5.6870    1.1800  -21.1664 C   0  0  0  0  0  0  0  0  0  0  0  0
    5.8897    3.6293  -21.8716 C   0  0  0  0  0  0  0  0  0  0  0  0
    5.4044    4.7162  -24.0013 C   0  0  0  0  0  0  0  0  0  0  0  0
    7.5102    5.0503  -23.0090 C   0  0  0  0  0  0  0  0  0  0  0  0
    6.2093    2.9089  -19.4404 C   0  0  0  0  0  0  0  0  0  0  0  0
    3.9711    3.3180  -19.1942 C   0  0  0  0  0  0  0  0  0  0  0  0
    5.4954    2.6440  -20.7636 C   0  0  2  0  0  0  0  0  0  0  0  0
    4.9408    6.0046  -26.1512 C   0  0  0  0  0  0  0  0  0  0  0  0
    8.7498    7.1985  -22.6714 C   0  0  0  0  0  0  0  0  0  0  0  0
    5.4513    3.7156  -17.1765 C   0  0  0  0  0  0  0  0  0  0  0  0
    4.4457    4.9324  -25.1609 C   0  0  0  0  0  0  0  0  0  0  0  0
    8.8699    5.7146  -23.0490 C   0  0  0  0  0  0  0  0  0  0  0  0
    5.2909   -4.2105  -18.3861 N   0  0  0  0  0  0  0  0  0  0  0  0
    3.2549   -2.9985  -18.1395 N   0  0  0  0  0  0  0  0  0  0  0  0
    6.6347    5.2866  -24.0121 N   0  0  0  0  0  0  0  0  0  0  0  0
    5.2076    3.2309  -18.5409 N   0  0  0  0  0  0  0  0  0  0  0  0
    4.0795    2.8622  -20.4196 N   0  3  0  0  0  0  0  0  0  0  0  0
    2.7889    3.7794  -18.6363 N   0  0  0  0  0  0  0  0  0  0  0  0
    7.3863    2.6970  -19.1673 O   0  0  0  0  0  0  0  0  0  0  0  0
    7.0364   -0.8557  -23.5703 H   0  0  0  0  0  0  0  0  0  0  0  0
    6.2817   -2.5991  -21.9670 H   0  0  0  0  0  0  0  0  0  0  0  0
    6.6963    1.5502  -23.0507 H   0  0  0  0  0  0  0  0  0  0  0  0
    4.7076    0.4617  -19.3818 H   0  0  0  0  0  0  0  0  0  0  0  0
    4.0352    3.4033  -22.9634 H   0  0  0  0  0  0  0  0  0  0  0  0
    7.8788    4.0508  -21.1271 H   0  0  0  0  0  0  0  0  0  0  0  0
    6.7147   -3.4370  -19.7355 H   0  0  0  0  0  0  0  0  0  0  0  0
    3.0573   -1.2188  -19.2504 H   0  0  0  0  0  0  0  0  0  0  0  0
    3.7090   -4.7815  -17.1276 H   0  0  0  0  0  0  0  0  0  0  0  0
    4.2101    6.1176  -26.9656 H   0  0  0  0  0  0  0  0  0  0  0  0
    5.0553    6.9641  -25.6256 H   0  0  0  0  0  0  0  0  0  0  0  0
    5.9109    5.6974  -26.5691 H   0  0  0  0  0  0  0  0  0  0  0  0
    9.7442    7.6675  -22.7047 H   0  0  0  0  0  0  0  0  0  0  0  0
    8.0816    7.7050  -23.3834 H   0  0  0  0  0  0  0  0  0  0  0  0
    8.3371    7.2859  -21.6555 H   0  0  0  0  0  0  0  0  0  0  0  0
    4.4896    3.8964  -16.6739 H   0  0  0  0  0  0  0  0  0  0  0  0
    6.0217    2.9606  -16.6157 H   0  0  0  0  0  0  0  0  0  0  0  0
    6.0253    4.6531  -17.2177 H   0  0  0  0  0  0  0  0  0  0  0  0
    4.3277    3.9818  -25.7016 H   0  0  0  0  0  0  0  0  0  0  0  0
    3.4721    5.2484  -24.7581 H   0  0  0  0  0  0  0  0  0  0  0  0
    9.5404    5.2120  -22.3364 H   0  0  0  0  0  0  0  0  0  0  0  0
    9.2848    5.6310  -24.0643 H   0  0  0  0  0  0  0  0  0  0  0  0
    3.3097    2.6876  -21.0335 H   0  0  0  0  0  0  0  0  0  0  0  0
    1.9471    3.7779  -19.1762 H   0  0  0  0  0  0  0  0  0  0  0  0
    2.7778    4.1137  -17.6939 H   0  0  0  0  0  0  0  0  0  0  0  0
  1  2  1  0  0  0  0
  1  3  2  0  0  0  0
  2 10  2  0  0  0  0
  3 12  1  0  0  0  0
  4 10  1  0  0  0  0
  4 12  2  0  0  0  0
  5 13  2  0  0  0  0
  5 14  1  0  0  0  0
  6 13  1  0  0  0  0
  6 15  2  0  0  0  0
  7 11  1  0  0  0  0
  7 24  2  0  0  0  0
  8 11  2  0  0  0  0
  8 25  1  0  0  0  0
  9 24  1  0  0  0  0
  9 25  2  0  0  0  0
 10 11  1  0  0  0  0
 12 18  1  0  0  0  0
 13 18  1  0  0  0  0
 14 22  1  0  0  0  0
 14 26  2  0  0  0  0
 15 23  1  0  0  0  0
 15 26  1  0  0  0  0
 16 18  1  0  0  0  0
 16 27  1  0  0  0  0
 16 30  2  0  0  0  0
 17 27  1  0  0  0  0
 17 28  2  0  0  0  0
 17 29  1  0  0  0  0
 18 28  1  0  0  0  0
 19 22  1  0  0  0  0
 20 23  1  0  0  0  0
 21 27  1  0  0  0  0
  1 31  1  0  0  0  0
  2 32  1  0  0  0  0
  3 33  1  0  0  0  0
  4 34  1  0  0  0  0
  5 35  1  0  0  0  0
  6 36  1  0  0  0  0
  7 37  1  0  0  0  0
  8 38  1  0  0  0  0
  9 39  1  0  0  0  0
 19 40  1  0  0  0  0
 19 41  1  0  0  0  0
 19 42  1  0  0  0  0
 20 43  1  0  0  0  0
 20 44  1  0  0  0  0
 20 45  1  0  0  0  0
 21 46  1  0  0  0  0
 21 47  1  0  0  0  0
 21 48  1  0  0  0  0
 22 49  1  0  0  0  0
 22 50  1  0  0  0  0
 23 51  1  0  0  0  0
 23 52  1  0  0  0  0
 28 53  1  0  0  0  0
 29 54  1  0  0  0  0
 29 55  1  0  0  0  0
M  CHG  1  28   1
M  END
> <OMEGA_C>
hW/RQCBAEb8MObXBvV7DQPQWx78MBa7BURPLQI+sSz9R5bLBCD+nQKciNz4mSaLBEU+gQM2Yd0Bs
lLfByVrlQJ45h0BfXa/Bi8u3QFWoU8DCP5rBvslrQJc7BMARHpjBAPOBQAB9gcD0sI7BfuOtQDA9
l7/ojaTBkmSeQEaIDMA1+pzBz/u1QGgLlz/WVKnBnni8QB1GaEAP+a7BxvCsQGvrlkCQAsDBSVPw
QOqboUB1ErjBSrLGQNUqOkDlhZvBeiZ+QItZVEDKjZnBaNqvQIs3KUDIG6bBXBueQEclwECgNdHB
Cv8LQfJZ5kDzXrXBpXCuQPbMbUCNaYnBN0OOQDfWnUBzScnBEOsNQdrdtkBYZLjB5E6pQJS8hsCk
FpPB8U9QQOnnP8DJHZHBJU/UQJUrqUC9GMDB6qSmQH/GTkDaU5TBX4uCQAYvN0BHW6PBlnwyQIDh
cUAUF5XBYVzsQLabLEC5VpnBSSrhQHEQW7/oj7zB2APJQAlXJsBqvK/BL0jWQAhsxj/iZ7jBYqSW
QO1l7D7VDZvBfyCBQDjPWUACtbfB3h78QPufgUBMBKnB3t7WQCD4W8Bg4p3BhqtDQAQDnL/LAJrB
bWBtQB4CmcBqBYnBV7mGQD7Dw0COudfBs8ShQKvZ3kBAAc3BHya9QGpRtkCHjdTBPOgbQUZc9UAv
o7XBHU4BQSKP9kAuEbvB0GQFQUIm6UBePq3BJauPQOJeeUAwZIXBGrLAQD57PUD37ITBI8/AQP3l
lEDBvYnByXyKQHDVfkDjnM3BuzZeQPnyp0CbEMbBUKUYQVvIpkDisLLBnY4UQTwxtECyg8DB2tJT
QMcBLECwRKjBHzz5P7PJcUDcaJnBJccxQD2jg0AIjY3BaeDRQCLZEb86JrXB2n3DQNmcx78RAK7B
VE3LQMLlSj+S1bLB5LSmQNabLz7uVaLBBFjlQLYph0DRNq/BF3agQMAYeEDPiLfBhei3QAgsVMCV
UJrBQgJsQI4OBcDFBpjB7oeCQHXwgcAnpo7B15WtQMolmL/jlaTBdVKeQDUoDcAd/ZzBia61QCdV
lj+nVqnBenS8QJsmaEAp6a7Be3jwQJnsoUB91bfBm1GtQFNYl0Bo6b/BqnHGQLdSOUCzfZvBjst9
QPl7VEACjJnB5Z6vQPDTKEDfFqbBhu8LQa1R50DzAbbBkzKfQEF0wEA1MNHBTX2uQDPcb0Cjf4nB
AQoOQRIJt0BAD7jBWKiOQNPUnkBGK8nBeMGpQL0Nh8C/IJPBlzBRQM3bQMDf/5DBiq7UQMCeqUCx
57/Bbn6mQAYrT0AuVJTBxlSCQDUlN0AuWKPB9RwyQOy7cUCJDpXBTwjsQFYqK0BqSJnBNgTiQGUx
W7/2b7zBgjfJQPGRJsASuK/Bcr/WQAo1xj8vTbjBsbyVQEfL5z4uJ5vBvgL8QN9EgUBT3KjBpDuB
QNWFWkB4t7fBU9/WQAFMXMDyA57B4aRDQHDFnb+a2pnBb/9uQOWLmcA3+YjBQOIbQUEw9kAcMrbB
W88BQYu79UALPbzByZkEQTCe7EBjHq7BGcGHQNh3xEDurNfBZcSjQJ0w30DYDc3BGeO9QJ+0tUDP
jtTBvsqPQDwzfEBheoXBIMLAQOYqQEBg6YTBwevAQJvalUDH/YnB1zMYQZTAqEBJ07HBaGkVQe/d
sUDx8b/Bk/mJQORjgEAAbs3BvrVfQOPfqUAJ7cXBZ19TQLIQLEB8QajBgTz4P1xLcUDwWZnBh4Ux
QKCig0ARho3Bf7/SQAmEEL/AJLXBNRbEQMw2x7+TDK7BZPHLQEwHTD861rLB0YemQERJLz6ceKLB
QTzlQLR4h0DDNq/B2pmgQMQwd0DJlrfBwD5rQM8QBcArTZjBKNm3QESSU8AmVJrBDS+CQIBtgcDf
t47B1aOtQPgImL/EtaTBPyueQCUODcAOJZ3BWNC1QG6Hlj/eZ6nBuoG8QEEpaEBE7a7B5EfwQC0S
okDu37fBxUStQErjlkAy+r/Bo3PGQKr+OEDXe5vBywZ+QAtTVUAnpZnBg8CvQF3TKEBEHabBW6cL
QaUi50DvI7XBeC6eQNPuv0CwNNHBYd6tQFZ1a0ARVonBfNQNQbybt0AsEbjB5/qOQF8OnUBjXsnB
3kFQQK5jQMCzOZHBEZapQM2HhsCdGZPBk3nUQLCEqUBx9r/Bn02mQKDvTUDEU5TB/3GCQIE8N0Be
Z6PBu8UyQCHjdEArS5XBwAjsQLXrKkCtQpnB+EbjQPhCWb/7YbzB5ALKQAdUJsBawK/Bm5nXQE/8
xj/hQrjBSiKVQIlY5j6pWJvBfdX7QK7ygUAU06jBDo2BQAriWECUyrfBlalCQLq0nr+hQprBufXW
QKSrW8C9853B8jRuQE/RmMAa/ojBzoQbQf1b9kDjT7XBjBQBQSYL90B58brBDcwEQcoN6kCNEa3B
oBCHQCzowkDnzNfBdqWgQBSu3kBc98zBJLO9QHsft0BJctTBPgWPQJujd0B1YYXBnYC/QLkDOkC5
4oTBc8PAQJNrk0DbgYnBRnAYQWfSp0BpQrLBxbgUQcPPtEBVIsDBGWWMQFw1fUArvM3B165eQEYp
pkA+QcbBi6JTQM64K0AJTqjBA176P/6ldUCPqpnBPRMyQH5yhUAvyI3B79fRQMqbFL8/N7XBaW7D
QF35yL+eEa7BNXLLQO05SD/44LLBjummQEfdJT5VX6LBRImgQM3gdkDviLfBbHblQOwOh0D9R6/B
mJNrQHNcBcAKJ5jBQri3QDGaVMCsU5rBXzSCQCvSgcAxqI7B0p2tQH9hmb8WpaTBajCeQOKrDcBX
EJ3Bm/W1QLkLlT9wXanBA7C8QLx3Z0C07q7Bcf2sQH/LlkBE7b/B6zzwQLzVoUCq8LfBQKTGQIKC
OEDReZvBxxB/QJyiV0CaxpnBffivQJ4mKEAUGqbBeJidQF7Hv0DrJdHBOiELQeBN50D6GLXBAimu
QMtCbUAAb4nB63yOQJP/nEDmRcnBRKkNQTnyt0BlI7jBl5VQQObDQMD3FZHBX3epQJIVh8AkG5PB
lTPUQHlhqUB0+L/BY4CmQFV1TkCrXJTBHqaCQL6ONkAdY6PBwws1QHS1e0DjpJXBuzDsQPJEKkBt
PJnBGd7hQAgIXr/ehLzBthDJQHBEJ8Ddy6/BC+3WQLbaxD++V7jBXQWWQCoZ4z7bLZvB/XCBQHa8
WEDlr7fBJ0f8QJtcgUAh86jBUjhDQJaunr8iDZrBO7bWQNn1XMAxAZ7B7T5uQFE/mcDZ8IjBZlKG
QK/HwkAStdfBekKgQKSL3kDO7MzBOAG9QG7atkBQb9TBld4aQVoK90CGRLXBW2EAQdQU90B317rB
GVIEQaO16UBQAa3BOlmPQBIWekD9fYXBFsC/QI5EPEAv5YTBKyLBQLdBlEAXuYnBcbOLQNMNfUCE
n83BZ+ldQCA4pkACHcbBCXAYQQZEqEDnY7LBS38UQTejtUAOOsDB5s1TQLUWKUDrK6jBZ5n/P+6l
fUB0E5rB3uY0QAvliUBkO47B0jfRQIWRHb/F1bTBC4bCQCDjyb+Hf63B4ZfKQNZcQT+V6LLBnKik
QBA6Sj4wcKLBRG6lQBA3ckAHXrnBrMfhQEJskEDVyq7BzSi2QMTsVcAiQprBLvVsQKB3AsBq2JbB
tYeCQPAlgsBeCo7BYy6sQBi4lr9LOaTBxIOdQPYoDMACYpzB6iC0QHUglz+kr6nBe6q9QFKGakAu
1q/BB/+xQMgEl0BHWMHBNUzsQCCArUDLGbfBq2/GQCJtOUA+LpzBavd8QCzBTUB+z5nBsoKvQHg3
K0Ah1qbB2qdTQJK/nUDGaMrBHu8aQTJ8wkD1P7DB++WtQJDjXECMdYnBUVqaQPXDm0Cm3svBGiEG
QbVt0UC1dbXBoGmoQFlHiMCuGpPBr/lSQCbUPsDy0Y/Bwv3UQMJyr0CfG8DBc0ymQNawRkCRupTB
uHqCQFx0PUBRFqTBSVswQMA+YUAxwJTBHlzsQIrlLEBIMJrBULPhQD5Xbr9U/7vBnFvIQEINKMBS
967BTbfWQAFLvj9Kf7jBHN+SQAe4AT+odJvBwXmJQIy7SkA2krrBc0j1QBT4jkA2q6fBoynUQGeG
X8ADYJ7BF89FQK8rlb8WOpjB+LdvQJ7kmcCRW4jBZK40QGAuoUDXQ9LB2kw9QHEkgEBLjsbBSCJD
QP5YuUBVWsXBQcslQTPq3UDnSK/BjWsXQbyOtEB8XKjBl5IiQSM1qkCyWbXBow6PQBjKY0BiToXB
KbPAQC3mKUBKn4XBOqO/QLnLjEDYA4nB2QylQMRquUA0yc/BIiKiQDY2gEAp/dDB6O0JQduH30Cv
S73Bu439QHTh6UB5TrDBXZdUQP9rPUB9U6nBrxH0P+SjY0BX+JjBpngvQD/lbECc4ozB

> <OMEGA_E>
AD9APABdpzwAtaw8QFG5PGzCuz4=

> <OMEGA_NBR>
     21755

$$$$
50156586
  -OEChem-04172616093D

 54 58  0     1  0  0  0  0  0999 V2000
    6.8354   -0.2433  -22.3174 C   0  0  0  0  0  0  0  0  0  0  0  0
    6.1837   -1.2344  -21.5835 C   0  0  0  0  0  0  0  0  0  0  0  0
    6.5691    1.1017  -22.0618 C   0  0  0  0  0  0  0  0  0  0  0  0
    5.2665    3.3501  -23.2905 C   0  0  0  0  0  0  0  0  0  0  0  0
    5.8996    5.1761  -21.8405 C   0  0  0  0  0  0  0  0  0  0  0  0
    5.4056    4.1838  -24.4001 C   0  0  0  0  0  0  0  0  0  0  0  0
    6.0387    6.0098  -22.9500 C   0  0  0  0  0  0  0  0  0  0  0  0
    4.9998    0.4645  -20.3386 C   0  0  0  0  0  0  0  0  0  0  0  0
    5.1739   -3.1327  -19.5731 C   0  0  0  0  0  0  0  0  0  0  0  0
    3.3225   -1.7309  -19.3204 C   0  0  0  0  0  0  0  0  0  0  0  0
    3.3381   -3.8190  -18.4209 C   0  0  0  0  0  0  0  0  0  0  0  0
    5.2661   -0.8806  -20.5941 C   0  0  0  0  0  0  0  0  0  0  0  0
    4.5909   -1.9094  -19.8332 C   0  0  0  0  0  0  0  0  0  0  0  0
    5.5137    3.8464  -22.0106 C   0  0  0  0  0  0  0  0  0  0  0  0
    5.6515    1.4555  -21.0725 C   0  0  0  0  0  0  0  0  0  0  0  0
    5.7915    5.5136  -24.2299 C   0  0  0  0  0  0  0  0  0  0  0  0
    6.0519    3.5250  -19.5870 C   0  0  0  0  0  0  0  0  0  0  0  0
    3.9595    3.4704  -18.9883 C   0  0  0  0  0  0  0  0  0  0  0  0
    7.0927    4.0039  -17.1131 C   0  0  0  0  0  0  0  0  0  0  0  0
    5.6190    4.3522  -17.3261 C   0  0  0  0  0  0  0  0  0  0  0  0
    7.9349    4.3731  -18.3338 C   0  0  0  0  0  0  0  0  0  0  0  0
    5.3614    2.9318  -20.7924 C   0  0  1  0  0  0  0  0  0  0  0  0
    6.3244    7.6750  -25.0672 C   0  0  0  0  0  0  0  0  0  0  0  0
    4.5739   -4.1140  -18.8677 N   0  0  0  0  0  0  0  0  0  0  0  0
    2.6635   -2.6680  -18.6072 N   0  0  0  0  0  0  0  0  0  0  0  0
    5.1863    3.7827  -18.6025 N   0  0  0  0  0  0  0  0  0  0  0  0
    7.3571    3.7601  -19.5419 N   0  3  0  0  0  0  0  0  0  0  0  0
    3.9589    2.9636  -20.2955 N   0  3  0  0  0  0  0  0  0  0  0  0
    2.8073    3.6153  -18.2483 N   0  0  0  0  0  0  0  0  0  0  0  0
    5.9269    6.3267  -25.3130 O   0  0  0  0  0  0  0  0  0  0  0  0
    7.5497   -0.5191  -23.0880 H   0  0  0  0  0  0  0  0  0  0  0  0
    6.4017   -2.2788  -21.7946 H   0  0  0  0  0  0  0  0  0  0  0  0
    7.0812    1.8679  -22.6382 H   0  0  0  0  0  0  0  0  0  0  0  0
    4.9654    2.3156  -23.4327 H   0  0  0  0  0  0  0  0  0  0  0  0
    6.0942    5.5711  -20.8469 H   0  0  0  0  0  0  0  0  0  0  0  0
    5.2118    3.7917  -25.3948 H   0  0  0  0  0  0  0  0  0  0  0  0
    6.3396    7.0446  -22.8110 H   0  0  0  0  0  0  0  0  0  0  0  0
    4.2854    0.7473  -19.5680 H   0  0  0  0  0  0  0  0  0  0  0  0
    6.1700   -3.3768  -19.9305 H   0  0  0  0  0  0  0  0  0  0  0  0
    2.7733   -0.8055  -19.4673 H   0  0  0  0  0  0  0  0  0  0  0  0
    2.8320   -4.5902  -17.8535 H   0  0  0  0  0  0  0  0  0  0  0  0
    7.4751    4.5121  -16.2218 H   0  0  0  0  0  0  0  0  0  0  0  0
    7.1792    2.9242  -16.9377 H   0  0  0  0  0  0  0  0  0  0  0  0
    5.0131    3.9411  -16.5125 H   0  0  0  0  0  0  0  0  0  0  0  0
    5.4745    5.4370  -17.3633 H   0  0  0  0  0  0  0  0  0  0  0  0
    7.9643    5.4573  -18.4821 H   0  0  0  0  0  0  0  0  0  0  0  0
    8.9593    4.0069  -18.2181 H   0  0  0  0  0  0  0  0  0  0  0  0
    6.3947    8.2141  -26.0156 H   0  0  0  0  0  0  0  0  0  0  0  0
    5.5769    8.1560  -24.4318 H   0  0  0  0  0  0  0  0  0  0  0  0
    7.2912    7.6838  -24.5586 H   0  0  0  0  0  0  0  0  0  0  0  0
    7.9189    3.5284  -20.3549 H   0  0  0  0  0  0  0  0  0  0  0  0
    3.1191    2.6685  -20.7882 H   0  0  0  0  0  0  0  0  0  0  0  0
    2.8863    3.9890  -17.3344 H   0  0  0  0  0  0  0  0  0  0  0  0
    1.9514    3.3396  -18.6629 H   0  0  0  0  0  0  0  0  0  0  0  0
  1  2  1  0  0  0  0
  1  3  2  0  0  0  0
  2 12  2  0  0  0  0
  3 15  1  0  0  0  0
  4  6  2  0  0  0  0
  4 14  1  0  0  0  0
  5  7  1  0  0  0  0
  5 14  2  0  0  0  0
  6 16  1  0  0  0  0
  7 16  2  0  0  0  0
  8 12  1  0  0  0  0
  8 15  2  0  0  0  0
  9 13  1  0  0  0  0
  9 24  2  0  0  0  0
 10 13  2  0  0  0  0
 10 25  1  0  0  0  0
 11 24  1  0  0  0  0
 11 25  2  0  0  0  0
 12 13  1  0  0  0  0
 14 22  1  0  0  0  0
 15 22  1  0  0  0  0
 16 30  1  0  0  0  0
 17 22  1  0  0  0  0
 17 26  1  0  0  0  0
 17 27  2  0  0  0  0
 18 26  1  0  0  0  0
 18 28  2  0  0  0  0
 18 29  1  0  0  0  0
 19 20  1  0  0  0  0
 19 21  1  0  0  0  0
 20 26  1  0  0  0  0
 21 27  1  0  0  0  0
 22 28  1  0  0  0  0
 23 30  1  0  0  0  0
  1 31  1  0  0  0  0
  2 32  1  0  0  0  0
  3 33  1  0  0  0  0
  4 34  1  0  0  0  0
  5 35  1  0  0  0  0
  6 36  1  0  0  0  0
  7 37  1  0  0  0  0
  8 38  1  0  0  0  0
  9 39  1  0  0  0  0
 10 40  1  0  0  0  0
 11 41  1  0  0  0  0
 19 42  1  0  0  0  0
 19 43  1  0  0  0  0
 20 44  1  0  0  0  0
 20 45  1  0  0  0  0
 21 46  1  0  0  0  0
 21 47  1  0  0  0  0
 23 48  1  0  0  0  0
 23 49  1  0  0  0  0
 23 50  1  0  0  0  0
 27 51  1  0  0  0  0
 28 52  1  0  0  0  0
 29 53  1  0  0  0  0
 29 54  1  0  0  0  0
M  CHG  2  27   1  28   1
M  END
> <OMEGA_C>
tLvaQMAqeb7/ibLBj+DFQPgBnr/wqqzBLDbSQAIGjT+kfrDBVYeoQOxnVkDgUrrBfcm8QJCipUBJ
ua7Bf/qsQPrhhUBdM8PBsTzBQIxQwECnmbfBNP6fQPPQ7T5btaLBwJClQIx9SMCzlZzBGqNUQC6O
3b8fkJrBoqNVQD9qdMD/XZPBsYOoQDZyYb+xwKTBaeiSQP9m9L9Rqp7Ba3CwQPwqdkC6FbDBTdm0
QOlOuj9llKjBkVO5QAxvsEDs1sHBWKnBQDyaYUAvspzBQ2l9QEgaXkAe6JfBy/fiQA4ggECy54jB
d86zQEJFi0Dqm4rBZOr9QJXwi0Cpq5LBupCrQNmhO0C8VqbBZGHKQOqZ9UCwicjBcF2SQJulg8AM
8ZbBhHcqQCjAKsCS25TBIvalQFEYckDm0ZTBO23rQF+lcEDIVZzBZ199QCqrPUAnXaLB+qozQMhg
Z0CT/JHBPqm9QFF0ykAPgcrBOZfxQPzjBL8qtLjBbtrMQK/XEcBPW67BKJniQMYX7z//GrXBsuSe
QBAzFEA1drvBaQPDQLZGskBoxqbB58amQEarckCFKMvBGN7KQGxt4UDjfLbB+yGJQIZOPz81i5zB
ynDFQAodWMCRcZ/BoH0xQOQ3Tr8fvZvBUj81QCTjksAC1I7BMzTvQCFjkEAmxoHBGrzlQFglO0B5
gIfBZWugQI47fECtGYTBXi+vQNr7rUD754rBhtv+QIqirkBb25PBcVkPQUQ4gEC9vpHBRaHMQO5s
A0HdH9DByHWyQAt/AkFJdMPBJFHpQGrh9UAJeMTBsmf9QALSYUDn1qLBEqBHQA3IKkBTTqbBArk4
QIZLf0DErIrBccf5Pxy8VUCXTZXBfmTUQD+co76zybXB0pTBQKJ2pr8CZq/BFcLOQKy1gz9/T7PB
khmTQDKcaUC6nLnBjL7PQGwxmkCMGrLBy+CTQLUBkEAodcLB/oXQQOxktUDg8rrB/IOjQJG71D45
DqTBS62nQGnZTMAEn57BfbtfQOw03r8zeJrBXwJjQKHZdcCenZPBWCapQK7fbr9qiKbBYamVQArF
+b+06J/BcQqxQLLMc0CBb7HBmlO2QIK8sj/mcarB5ZSyQMlMsEAzIMPBLEHMQNfTUUBGbZ7B/L+L
QAJAZUClT5jBNCL2QMAxlEAVpo7BeALJQGM4hEBFG4zBqKEHQYiHZkCcJZXB7DSwQA8hOEDXuqfB
ycmTQIjVw0DH09PBnGWWQGmLhcADg5jBUJ45QF1iKsD0OpTB/wC1QMmva0AzD5bBzaj2QHIFTkC1
t57B7JWFQNMLRkBVtqLB1XpUQKUIeUAImZHBNVOzQO7VykAowsvBvGjnQCodG79OsbzBI0LGQKJA
FsBFb7HB/IXdQPHB5D94VLjBhR92QKN6N0AlKbnBaTHnQK9knkDvxKvBY/N4QH/ii0DUzcjBMYXo
QC98zkBJbLvBVoGQQFV5NT9kJp3B12rFQMxgXsDci6LB3Qs+QFytSb8c75rBeMRFQLhZk8CirI7B
XIv0QKGfskAS+ZLBSY0DQeEgmkDKG4fBq3bKQLNaU0D2Z4bB8Wu1QBDenUACsojBAgkXQew3gEDq
xZfBtowKQfjsLEB4Y5DBVPqXQNct20AyQdrBq6uXQEmRo0BCDdfBFMhnQO71xkB4VtDBFH8CQWSD
O0CeoKXBe55QQPwDO0BH/6XBZT5iQGMkh0AnVYrBQIgZQCkkcUA5VZTBLlLKQAD0b7vK0rbBhlK8
QPxmgL/T3q/B1JLJQDJcqj8RlrPByRj0QPFHgEDgKLLBzXuvQHbqo0DMHLLBfnYBQSoKnUDB2LnB
nE++QJCswECazLnBXtesQDqbKj/4caLBZNyMQMwfOMAqH6LB7paiQGRKy782g5PBXyuEQCtqaMBS
GpHBppatQA4RK7+srqXBNhafQPJT2r+6eZ7BT1/KQOS5g0DJSq7B9Na6QKw61T/qZanBegnoQLw6
vUDFqr3BGrXNQC8mW0B0EJvB0reJQIbWcEAgaJjBOo7lQL4jWUAMFobBqx27QMJqgkCuyIjB3tsD
QUDEbEDDe47BSxS6QFZZSECw2qXBF1nZQNJn+UA3ucjB5f59QL5Vd8CpopvBWWeVQIo8IsD2j4zB
rvavQNxmcEBl3JPB9nf3QEwvV0CHNZnBVIGMQOl4WkD0PqPBw/9GQNVlgkD8hZPBn4X2QBFI2UAd
K8XB6MjVQCSIh77qwb7BCBe9QMqAAsDegrLBVYnUQKKjBkBcDbnB6qIEQfKcTkAfO6/BMu2OQHXV
pkDQJK/BP7sRQTQ0mkB11LzBtDapQPqt2UAlvrzBmmWhQLI5bz8LgprBwpmIQJaMRMCFmqrBV3Gw
QEzqNL+UzY/B7XhyQLAHjcC6tYvBOovwQDglbUA9TnzBQXLgQMKxE0BizoXBT+ahQHwibkD+aIPB
ftG9QHQ4pUCbBojBNykIQSZXmEBSb47BpEgSQbzpRkCy/4zBhfPoQBPQBkHSss7BX3i9QKXr6UDo
TszBmBnPQDZiBkGz6cHBYpUFQWqaRkABU5/BErllQLRQV0DVPqjBrjhIQMZEikA42YvBnjwSQGtD
gUDX5pfBF7LhQGD0cr0QwrTB/w/MQE6rjb+twK/ByjLYQPRxoT+IELLBISaeQK88dkDwA7rB00XS
QLsYoUDJWq/B3RqkQNdOmEBPU8LBszrYQBhJvkAKqrfBLnOjQNhC+T5eXKXBHhePQOIHSMA+66fB
PjqHQHoP6b/4ipjBreJZQNgZfMCrPJnBcvKsQMp1Vb/kDajBAomWQIzj9b923aLBnj21QI0Hf0Cq
h7DBOxW5QGdixD/BXarBEiPBQMzjuUBtJsHB2r3CQOGYVkBn0JzBo9p8QC8TYkC6tpnB0AreQJyF
lECb2IrBv6mwQJY4gkCLqIrB9iP9QJdNbECNcpDBbLmuQIn/PkAfaafBaBzlQFLt90A/hsfBg6V0
QKschcBVU6PBAmZkQNYSNMBrdpPBaBilQGi6akDtiJXBGazsQEZJVkBjI5vBTdaAQGo3R0C2ZaTB
ByswQC0XcEAck5TBPO/GQGxd1kDYQsnBGuv5QHxWi74bwbrBE9HTQF9kCMDA8LHBTjPpQKyXBECQ
ALbBHnaHQLIeQkDOALvB7mXkQODDpEDG/afBkgeSQNy4lECEssnBTOTuQHdf2EBPs7bBuDiLQNXo
ND9TXJ/BpsuZQOXTU8BhDbDBclqLQJ+Lar/P2JPBQjE4QAQSmMDFXJXBOSzeQLjNs0Csyo7B6tTo
QF9jmUDylILBqzCvQPH9TEBMUoXBaKWZQGtAmkBR6ofB6lYOQXzkhECibJHBemMAQa4fMUB624vB
cKLmQBcsBkFVnc7BlNPaQCd9BUEGqcDB60gCQUQt6kD14MXBPCcAQeQdSEAXXKHBE5tNQGlmO0C3
DqnBr+IxQGNBgUC4/ozBlHz1PzQjZ0B7r5jBSNriQFCbyz2fFrPBTfHMQLzfcL8YEK7BruHZQMok
tj8sYLDBAJygQH32gECsPbjBb1zVQE1SpkD0oq3BH7umQB0cnkB/jcDBtXvbQMx3w0Cr8rXB/Rql
QDByKj/WnKPBnKypQCSRPsDQhp/BbxNcQLwPzL+EaZ3BXIVaQJ57b8AbcpfBixOuQARoKL9GU6bB
gWCXQCJq3r+GHaHBqO63QAsShUBkyK7B6wO7QLBg2j9ao6jB5ijEQGBcv0APaL/BZpbFQABJYUBS
FpvB/maBQMJFbkAw55fBGbLhQFKAmUAgJYnBXB60QIS1h0DX54jB6CsAQbqadUAhyo7B/zuxQNAz
SkBZqaXB1TixQO+21UDQ99DBDXaVQMMygMDvs5rBQtsvQOoQJcAKhpjBdjKoQHYIdkAyxZPBuIvv
QFYGYEBVdpnBeXSDQMRtU0CFl6LB+Xo2QBAdfUBbt5LBYh7KQHLL20DshMfBl+H6QJBk+L15HbnB
aknUQA7d+78aRLDBuhjrQCCVDkBBVLTBzZyJQHpTTkC2NLnBNavnQIXDqUBrS6bBW3mUQO6/mkA/
58fBb3TyQAVM3UDBAbXB5hKNQLm9ZD/2lJ3B4BLKQCqeTMAuIqLBaFQ5QBrcKL9JQp7B/H84QGqj
kcB7kJPBoxniQLjKuEDDFY3B6LLsQHI4nkCd5IDBRXCyQJD4V0B0koPB9GydQLz8n0BaIYbBPwMQ
QTQxiUBNzY/BVN4BQYxROkCUNYrBfxi5QKuR7kA/zNbBvJi4QKFXtkDbW9TBbDuPQD0m10Ae9c7B
SH0BQaB0UUBxtZ/BVIhSQLA5SEC0OKfBjbI4QKS7h0DVIovB1swAQPrIdECjy5bBwInGQOBGs70l
m7bBIxi7QMqxjL/Gea/BrHPDQDranz9igbPB5MXoQA4ngEBblrLBeyGiQDmNn0DpSbLBgC71QJlQ
nUAFcrrBuomuQJ+2vECAJbrBln2pQDfUDz9yJaLBioaQQKw5QsDtR6HBWOWkQMgt17947ZLBsLqK
QBSGccBTJJDBopOsQA1NRr8vP6XB3LmgQDyO6b8l253BZT6/QB1HgUAugq7BK++0QH5lyT/LRqnB
mBHYQLWWu0DAOb7BbILFQK7zWEB1O5vB6zeBQDSkZkAXP5jBURnfQMFAXECiYobB9jCzQJMygUAS
7YjBDub/QGQHc0DG/o7BPJuxQHOQQkAE4qXBN9PEQMMe9kB6ZcnB0CeFQFYggcB6nprB8CiaQOPd
KMBXz4vByMWnQCpga0AL6JPBMnXvQHVIWkBYmJnB8smDQN9pT0CED6PB2L41QPh5dkA7MZPBTTHk
QBkJ2EDV5MXBetXRQNpbrr5hkr7Bm6q9QNS6CMDtArLBfW7MQFb+AUD3G7nByqv/QPhcUUADsa/B
QLWBQPunoEDrJ6/BB8oKQVBKnEDGl73BH7eXQCE41EDDDr3BYjOeQINlUj+gLZrBQPSLQB0eUMCM
t6nB0E2xQMexRL/AYo/BXceBQAzkkcBmnIrBlBvqQEV3ckCZF33BpCTcQLxaFkDu9oXBzimbQPJK
aUC4YYPBatOzQBIkpEDhS4jBQDUDQVDum0CMGo/BsvsOQe3sUECYmo3BN6vSQPFzBUHuhM/Bqqep
QATE5ECox8zBT/q5QDGbBEGjmMLBBI8BQe1sS0BsyZ/B5cNTQIeSSEB36qfBDEU3QEuSg0CDjIvB
aYIAQOOAcECTbJfBuLnhQLRjrD0AirbBlN7MQMcsaL/xqrDBMTTZQJbxtj+kfrTBWoWvQLVda0Dg
Ur7BgsfDQHQdsEBJubLBhPizQN5ckEBeM8fBtjrIQHHLykCnmbvBOPymQKC/Sj9btabBxI6sQMKH
M8CzlaDBI59iQJmis78fkJ7BrJ9jQHd0X8AAXpfBtoGvQA6bDb+ywKjBbuaZQGx7yr9SqqLBb263
QGOQhUC6FbTBUde7QHw65D9llKzBllHAQPDpukDs1sXBXKfIQAaQdkAvsqDBprKFQBEQc0Af6JvB
zvXpQPOaikCz54zBfMy6QCbAlUDrm47BNHQCQXprlkCpq5bBv46yQKKXUEC8VqrBaF/RQGgKAEGw
iczBc1uZQG5VcsAN8ZrBjnM4QGDKFcCS25jBJvSsQA6Hg0Dm0ZjBP2vyQJTNgkDIVaDBuK2FQPSg
UkAoXabBAqdBQJJWfECU/JXBQqfEQDbv1EAPgc7BPpX4QFQzRL4rtLzBctjTQMnD+b9PW7LBLJfp
QK2BDED/GrnBtuKlQNkoKUA2dr/BbgHKQJrBvEBoxqrB68StQIjQg0CGKM/BHNzRQFHo60DjfLrB
ACCQQNaSiT81i6DBz27MQEAnQ8CScaPBqHk/QHjB9L4gvZ/BWztDQD5oiMAC1JLBNzL2QAbemkAm
xoXBH7rsQCIbUEB6gIvBaWmnQKuYiECuGYjBYy22QMB2uED8547BxuwCQXAduUBb25fBdNgSQSqz
ikC+vpXBSp/TQGGqCEHeH9TBzXO5QH68B0FKdMfBKE/wQCcuAEEJeMjB2zICQczHdkDn1qbBG5xV
QNa9P0BTTqrBDLVGQKcgikDFrI7Bwd8KQOaxakCYTZnB+nfwQPoe5j59DbHB5DLaQIB0GL/DMKzB
nv3kQG6+4j/w8q7BDdnoQBRQlED8xrLBJJOdQGi6pUCRf7PB7KTwQHqEsEAxNLvBqV6lQKDuwUCz
7LvBDP2sQPxtgD//HqPBP5S0QE4YJ8BL1Z3BwJVtQLkIpr+caZ3B5y1tQGCnWsCA05bBX3e4QMQq
o76JOaXBOmWhQCyes7/uLqDB2U6/QJ3sjkCa7K7BGELDQAIXA0C2+6fBN+nOQEZSx0Aox7/BjLXG
QENTgkDAO5vB3/mBQJgqekAst5jBSKjcQE/jj0ANZobBSFSuQG9ZmUA4jYnBuuf7QIpRnkB3FY/B
H7u2QNvzX0DKrKXBJpayQFof+UDRTczBvA2gQNojacDCI5nBTJtAQAVpEsA5tZjB1simQEAwiEDn
RpTBLorvQHx9i0DcbpnBNCmIQI4PXUAaNqPBQU80QHKMfkCyB5TBKYnWQDjW4kAvAMjBcl0FQbQy
bz5+erbBFoXjQL98z7+k6a3BX4H2QMUdJUAwxbLB1KkBQfGugkCrQ6/BiDd6QIi5oUDwi7DBN4kI
QdSWtEANLL7B3vWKQNSa00AIdL/B0baSQEb1nD+MsZ3Bl//VQAkvM8B1rZ/BHktJQIywx74H6Z7B
HJ5KQJhXh8AtEpPBhk7kQPeBn0B5ln3BJD/gQMiRWkDCNIXB41SYQM5mikCq2oPBcVGoQCrdu0BW
tYnBhN77QK8uwUAS8I/BkTYOQefQk0CULo3Bfh+9QIT/BkHLztLBbqGbQJLX4UAJZ8/BKm2jQPIG
BkGVAsbBdYoCQXfYhUBBWJ/B6RJgQJY8SUBbFajBVZUwQNMrikBjmozBg1QCQGS6a0BTS5jBrZHy
QEjc+j4/dLDBDLnZQPNnGr9+YK3BSpHnQDzz4j8aDa3BWxO0QDK8j0D+/rTBZGjgQCO1r0BgU6fB
Oq+/QL8wsEAIFrzBVATsQIIp0EBOaq7BluOqQIyrXj94fqPBhg+YQCn9KsCcB6rBRxmGQKzCyb+Y
JZrBTb9YQOHVacBSyp3B7OO1QJ6h076e5abBqCWcQHQfxr8PtaPB6HHEQNN+j0COnarBKLzDQNY+
+z87kqbBtqXbQBFn0EDcy7jBP1jEQOs1ZUAoSpfBTeJ9QKgNcUA89JbBhEnTQIQ4k0D4aIPBKlum
QDr7gUDtoIXBHZj1QPV6bUBObojBlrm3QGfKV0Bu1aLBQNYBQcr+B0GY1LvBLFmAQNjKb8DyTqfB
e5xbQBJ1J8BL7JbBwz+iQDVMdEBOH5HBHIrsQHqNYUCc5ZPBoHqIQAZzX0B0sKHBVGorQOtMfEDZ
VJPBY/bmQNgQ8EC1t7/BqDsHQT4Prz6HgLXBc7TiQF51zL/EGLDBdhj7QAamJ0AGfK/BbkWeQCON
bUA2obfBH1DtQG7Fr0CGQJ/BstWyQCY2sEDtKcTBDOgAQUEp6UAqzqvBFvyOQMQrgz+vb57BExWo
QDUyMMBXtrHBcR2HQDlHPr/mk5TBDhUyQLgQkMAhapvB2jbWQDECtEAPaYbBtFvYQOxAlECndHXB
TC6hQOZRSEA+OYHBJuuNQDc1mUB9PoPBbbMKQXsYhUCjqYfBqvP1QLSKLkBJmITBvAYFQbimE0Hp
JsLB5vr0QA8aEEEmA7XBRsEQQT1zAEF/R7nBVAgCQVvvV0B9XZnBs+JjQLnmWEDVgafBi/EiQGYF
hEDGnYvBSY34P/oneECgmZjB

> <OMEGA_E>
QjI4wXI4N8EdO03BUmZMwbPFSMEAo0jBUZ5CwVgMMsEdNzfB

> <OMEGA_NBR>
     30132

$$$$
50176749
  -OEChem-04172616093D

 41 44  0     1  0  0  0  0  0999 V2000
    6.6645   -0.9479  -22.8759 C   0  0  0  0  0  0  0  0  0  0  0  0
    6.1955   -1.7810  -21.8477 C   0  0  0  0  0  0  0  0  0  0  0  0
    6.5343    0.4476  -22.7776 C   0  0  0  0  0  0  0  0  0  0  0  0
    5.4025    0.1740  -20.6275 C   0  0  0  0  0  0  0  0  0  0  0  0
    5.8170    3.0510  -19.0138 C   0  0  0  0  0  0  0  0  0  0  0  0
    5.7705   -3.3183  -19.3181 C   0  0  0  0  0  0  0  0  0  0  0  0
    3.7988   -1.9503  -19.0388 C   0  0  0  0  0  0  0  0  0  0  0  0
    3.7469    3.1838  -20.1523 C   0  0  0  0  0  0  0  0  0  0  0  0
    4.0540   -3.9670  -17.8735 C   0  0  0  0  0  0  0  0  0  0  0  0
    5.5587   -1.2330  -20.7153 C   0  0  0  0  0  0  0  0  0  0  0  0
    5.0486   -2.1532  -19.6620 C   0  0  0  0  0  0  0  0  0  0  0  0
    5.9166    1.0357  -21.6533 C   0  0  0  0  0  0  0  0  0  0  0  0
    5.1026    2.9927  -20.3054 C   0  0  0  0  0  0  0  0  0  0  0  0
    4.9980    3.3784  -17.9706 C   0  0  0  0  0  0  0  0  0  0  0  0
    7.1261    3.3083  -21.7547 C   0  0  0  0  0  0  0  0  0  0  0  0
    5.7659    3.9099  -23.4981 C   0  0  0  0  0  0  0  0  0  0  0  0
    5.7825    2.5805  -21.6052 C   0  0  1  0  0  0  0  0  0  0  0  0
    8.0441    5.0631  -23.3269 C   0  0  0  0  0  0  0  0  0  0  0  0
    5.2683   -4.2008  -18.4280 N   0  0  0  0  0  0  0  0  0  0  0  0
    3.3170   -2.8650  -18.1644 N   0  0  0  0  0  0  0  0  0  0  0  0
    6.9671    4.1885  -22.8170 N   0  0  0  0  0  0  0  0  0  0  0  0
    5.0341    3.0732  -22.7867 N   0  3  0  0  0  0  0  0  0  0  0  0
    5.3677    4.4405  -24.7234 N   0  0  0  0  0  0  0  0  0  0  0  0
    8.1196    3.2170  -21.0423 O   0  0  0  0  0  0  0  0  0  0  0  0
    3.3419    3.5400  -18.4917 S   0  0  0  0  0  0  0  0  0  0  0  0
    5.5801    3.5626  -16.3404 Cl  0  0  0  0  0  0  0  0  0  0  0  0
    7.1287   -1.3829  -23.7486 H   0  0  0  0  0  0  0  0  0  0  0  0
    6.3236   -2.8506  -21.9247 H   0  0  0  0  0  0  0  0  0  0  0  0
    6.9107    1.0767  -23.5707 H   0  0  0  0  0  0  0  0  0  0  0  0
    4.8905    0.6020  -19.7783 H   0  0  0  0  0  0  0  0  0  0  0  0
    6.8736    2.8557  -18.9058 H   0  0  0  0  0  0  0  0  0  0  0  0
    6.7329   -3.5045  -19.7715 H   0  0  0  0  0  0  0  0  0  0  0  0
    3.2249   -1.0626  -19.2600 H   0  0  0  0  0  0  0  0  0  0  0  0
    3.0276    3.1214  -20.9555 H   0  0  0  0  0  0  0  0  0  0  0  0
    3.6571   -4.6860  -17.1722 H   0  0  0  0  0  0  0  0  0  0  0  0
    7.6642    5.6609  -24.1684 H   0  0  0  0  0  0  0  0  0  0  0  0
    8.3824    5.7343  -22.5237 H   0  0  0  0  0  0  0  0  0  0  0  0
    8.8877    4.4449  -23.6677 H   0  0  0  0  0  0  0  0  0  0  0  0
    4.0977    2.8065  -23.0146 H   0  0  0  0  0  0  0  0  0  0  0  0
    4.4805    4.1910  -25.1117 H   0  0  0  0  0  0  0  0  0  0  0  0
    5.9690    5.0708  -25.2145 H   0  0  0  0  0  0  0  0  0  0  0  0
  1  2  1  0  0  0  0
  1  3  2  0  0  0  0
  2 10  2  0  0  0  0
  3 12  1  0  0  0  0
  4 10  1  0  0  0  0
  4 12  2  0  0  0  0
  5 13  1  0  0  0  0
  5 14  2  0  0  0  0
  6 11  1  0  0  0  0
  6 19  2  0  0  0  0
  7 11  2  0  0  0  0
  7 20  1  0  0  0  0
  8 13  2  0  0  0  0
  8 25  1  0  0  0  0
  9 19  1  0  0  0  0
  9 20  2  0  0  0  0
 10 11  1  0  0  0  0
 12 17  1  0  0  0  0
 13 17  1  0  0  0  0
 14 25  1  0  0  0  0
 14 26  1  0  0  0  0
 15 17  1  0  0  0  0
 15 21  1  0  0  0  0
 15 24  2  0  0  0  0
 16 21  1  0  0  0  0
 16 22  2  0  0  0  0
 16 23  1  0  0  0  0
 17 22  1  0  0  0  0
 18 21  1  0  0  0  0
  1 27  1  0  0  0  0
  2 28  1  0  0  0  0
  3 29  1  0  0  0  0
  4 30  1  0  0  0  0
  5 31  1  0  0  0  0
  6 32  1  0  0  0  0
  7 33  1  0  0  0  0
  8 34  1  0  0  0  0
  9 35  1  0  0  0  0
 18 36  1  0  0  0  0
 18 37  1  0  0  0  0
 18 38  1  0  0  0  0
 22 39  1  0  0  0  0
 23 40  1  0  0  0  0
 23 41  1  0  0  0  0
M  CHG  1  22   1
M  END
> <OMEGA_C>
gUPVQAurcr/RAbfBhUHGQOL347//x67BmhjRQBou5T6ROLbBH+GsQJwsMj4NBaXBeyS6QAxEQ0BA
HJjBLqi4QEVeVMCMi5rBNyBzQGyk+b9dT5jB6MxvQBzES0DpN6HBxrqBQN/ifcDc/I7BgeCxQH7R
nb/euKXB+I2hQJvOCcC2S53BslS9QJ6QhD/1Oa3BoUijQBSJP0CCcaLB7O+fQDQ3WEDZw4/BLgnk
QK27U0CxCa7BcIK4QFE7ekAV/LvBoQq5QFwnJUBx16zBrrQAQbUEokBpnbrB7ZWoQEJthsCVbJPB
oklUQGFbN8CZUJHBXvLeQJQIhkAuibbBVxehQK6vREBDS7bB38OrQMsYjkCXycXBEeoBQRDkTUCT
VqjBMOFVQBCQYkAR75PBZpCyQA8CZEAOuYLBRx7kQGcDsb82/b3B5FrKQFxwNsDFZa/BiSTdQH7R
iT+8kLzBpn6cQFQbGj/6OZ7B2/TbQFLENkD6PpfBHXTXQGRKYMDwK57BVWROQAMEiL9qFJrB3MRB
QAXFR0DypKfBnQ1qQAj0lcCwYInBBEH1QDImtUD0WMHBPx4GQQd/t0CDMLTBDTQOQZ48jkCMV73B
AyCDQGOdM0DyHbjBoGCPQPkchkDX5MjBvwG/QFNEokBIt8nB5nKyQGWYiUD/+MHBKFfXQNweo0CN
OMHBUuCjQNfIZUAZ+rjBRpHgQMfTjEBvrK7BjIy8QKdZij3P3aHBMXEWQa8TzkCh3r7B9JsNQazI
1kADKqzBQj60QP2KLj9487PBmHYqQQQR+0C/x7PBLLntQK77pUDba7fBOCQJQQ6Sw0CCJ7bB0ui7
QIUQZUCeXK/BKj61QL47lT8Kj6nBap3BQFYek78X0KbBqvLGQIAaPECsn5vBaTx/QErkWEB3YpnB
qDuvQE62KEBIIqbBlsWwQACrdUBRjonB2OYmQR2K6UB/jL3BMCUeQS0z8kCFIqvB6p6oQLbXX0A4
2pTBsjuCQB6NOEADHKPBvwkzQLqFcEDVcJTB0LbsQLW1LkD1f5nB9iW8QLBbg7+bjrTBpFTMQDG5
KcDMVKDB/U6hQI9sh0CbdMnB/JfiQFyNtEBtIcjBQwqGQCgQQ0A+ZbnBCMXyQJmmjUD5VKfB0MW9
QKjLUj6UTZnBGHUTQbYcwEB2ocbBrrkDQc13z0AtUaXB3RevQOjfpj+B5brBoK03QeuCCEE92rLB
MJ2TQI56iEAr/4XBqu65QOGJO0DPJoXBd9zKQChkkkCYF4nBtyZSQLVdLEAg0KfBYdT2P7VYaUBu
S5jB8+QzQGFXhECRCI3BG5XSQOFNbb+BMLjBZNDDQDbq3r9QxK/BZBDQQJql8z4SZ7fB4uGvQMVX
fD4NvKXBbCy+QPbySUCuq5jBe1uSQI4zUsAMLp/BK4yjQMF7wb/FwpLBGL51QKcJSUANZqHBJTuF
QGPfYMBk24zBwISyQH/yk79wbabBzNiiQFzC/r84aZ3BHaG+QA1Nij/HJ67BZnimQOj3QUDV4KLB
9qajQNOHWEBWHpDB+hXmQILaUkDTKa/BJYS3QBjhfkBjRLzBhua6QJRMJ0D4fK3BPpoBQWBknUBi
2LzBy8iDQArDgMCa55bBos6UQK/QEcDlrIrBdFLgQBEahUB6vbfBwEWhQGDVR0BVi7bBtS2oQNzX
k0CpYcXBXqYDQR8QR0BlJarBKl1cQM0jW0ARBZTBiBq1QPB8ZkCh+4LB8effQLS5sL+USb/Bk7bF
QOtBNMC1crDBTYHbQM/Wiz/L5L3BE1yiQMmRMj9Npp7BPIvgQG3aRECBB5jBzWCRQGHsa8ATMqfB
PfevQECOBr/tFpHBuxBHQLL7Q0BUvafBWPVyQDy+g8AkUobBxCn2QPPVsECdasPBoygJQfd3skAx
5bbB1JcNQagAh0CdCMDBpSCDQL5uNkD/HbjBn3qKQPbujUC398fBmtm6QG5sqEBHWcnB

> <OMEGA_E>
xGVlP+zecT8C0Is/

> <OMEGA_NBR>
     32608

$$$$
50176748
  -OEChem-04172616093D

 50 53  0     1  0  0  0  0  0999 V2000
    5.2093    4.7714  -24.0095 C   0  0  0  0  0  0  0  0  0  0  0  0
    6.3318    5.6119  -23.9076 C   0  0  0  0  0  0  0  0  0  0  0  0
    4.9914    3.7603  -23.0484 C   0  0  0  0  0  0  0  0  0  0  0  0
    7.0501    4.3803  -21.9229 C   0  0  0  0  0  0  0  0  0  0  0  0
    5.0350    0.1125  -20.2139 C   0  0  0  0  0  0  0  0  0  0  0  0
    8.0512    7.7814  -22.7723 C   0  0  0  0  0  0  0  0  0  0  0  0
    9.4517    6.0486  -21.8322 C   0  0  0  0  0  0  0  0  0  0  0  0
    9.8980    8.3024  -21.4424 C   0  0  0  0  0  0  0  0  0  0  0  0
    7.2529    5.4200  -22.8537 C   0  0  0  0  0  0  0  0  0  0  0  0
    8.2980    6.4114  -22.5599 C   0  0  0  0  0  0  0  0  0  0  0  0
    5.9042    3.5648  -21.9783 C   0  0  0  0  0  0  0  0  0  0  0  0
    5.7365    1.0810  -21.0910 C   0  0  0  0  0  0  0  0  0  0  0  0
    5.1788   -1.1899  -20.6143 C   0  0  0  0  0  0  0  0  0  0  0  0
    6.4838    0.4298  -22.0565 C   0  0  0  0  0  0  0  0  0  0  0  0
    6.2853    2.9006  -19.5060 C   0  0  0  0  0  0  0  0  0  0  0  0
    4.0542    3.3462  -19.2764 C   0  0  0  0  0  0  0  0  0  0  0  0
    5.5706    2.5883  -20.8222 C   0  0  1  0  0  0  0  0  0  0  0  0
    7.3830    1.0504  -23.0960 C   0  0  0  0  0  0  0  0  0  0  0  0
    5.2679   -3.4858  -19.5752 C   0  0  0  0  0  0  0  0  0  0  0  0
    5.4538    3.3699  -17.1729 C   0  0  0  0  0  0  0  0  0  0  0  0
    4.3669   -2.3359  -20.0441 C   0  0  0  0  0  0  0  0  0  0  0  0
    8.8528    8.7052  -22.2062 N   0  0  0  0  0  0  0  0  0  0  0  0
   10.2307    6.9989  -21.2827 N   0  0  0  0  0  0  0  0  0  0  0  0
    5.2967    3.3230  -18.6332 N   0  0  0  0  0  0  0  0  0  0  0  0
    4.1625    2.8492  -20.4841 N   0  3  0  0  0  0  0  0  0  0  0  0
    2.8654    3.8028  -18.7300 N   0  0  0  0  0  0  0  0  0  0  0  0
    7.4539    2.6616  -19.2180 O   0  0  0  0  0  0  0  0  0  0  0  0
    6.2727   -1.3058  -21.9605 S   0  0  0  0  0  0  0  0  0  0  0  0
    4.5124    4.8995  -24.8245 H   0  0  0  0  0  0  0  0  0  0  0  0
    6.4888    6.3990  -24.6302 H   0  0  0  0  0  0  0  0  0  0  0  0
    4.1197    3.1278  -23.1280 H   0  0  0  0  0  0  0  0  0  0  0  0
    7.7876    4.2065  -21.1533 H   0  0  0  0  0  0  0  0  0  0  0  0
    4.4661    0.4054  -19.3439 H   0  0  0  0  0  0  0  0  0  0  0  0
    7.2202    8.0916  -23.3884 H   0  0  0  0  0  0  0  0  0  0  0  0
    9.7099    5.0064  -21.7160 H   0  0  0  0  0  0  0  0  0  0  0  0
   10.4906    9.0526  -20.9398 H   0  0  0  0  0  0  0  0  0  0  0  0
    7.8299    0.2584  -23.7150 H   0  0  0  0  0  0  0  0  0  0  0  0
    6.7941    1.7258  -23.7339 H   0  0  0  0  0  0  0  0  0  0  0  0
    8.1811    1.6200  -22.5973 H   0  0  0  0  0  0  0  0  0  0  0  0
    4.6461   -4.2971  -19.1687 H   0  0  0  0  0  0  0  0  0  0  0  0
    5.8528   -3.8638  -20.4267 H   0  0  0  0  0  0  0  0  0  0  0  0
    5.9511   -3.1211  -18.7941 H   0  0  0  0  0  0  0  0  0  0  0  0
    4.5249    3.7410  -16.7154 H   0  0  0  0  0  0  0  0  0  0  0  0
    5.6706    2.3599  -16.7949 H   0  0  0  0  0  0  0  0  0  0  0  0
    6.2840    4.0439  -16.9150 H   0  0  0  0  0  0  0  0  0  0  0  0
    3.7822   -1.9682  -19.1880 H   0  0  0  0  0  0  0  0  0  0  0  0
    3.6839   -2.7109  -20.8206 H   0  0  0  0  0  0  0  0  0  0  0  0
    3.3909    2.6709  -21.0947 H   0  0  0  0  0  0  0  0  0  0  0  0
    2.0216    3.7638  -19.2652 H   0  0  0  0  0  0  0  0  0  0  0  0
    2.8514    4.1713  -17.8004 H   0  0  0  0  0  0  0  0  0  0  0  0
  1  2  1  0  0  0  0
  1  3  2  0  0  0  0
  2  9  2  0  0  0  0
  3 11  1  0  0  0  0
  4  9  1  0  0  0  0
  4 11  2  0  0  0  0
  5 12  1  0  0  0  0
  5 13  2  0  0  0  0
  6 10  1  0  0  0  0
  6 22  2  0  0  0  0
  7 10  2  0  0  0  0
  7 23  1  0  0  0  0
  8 22  1  0  0  0  0
  8 23  2  0  0  0  0
  9 10  1  0  0  0  0
 11 17  1  0  0  0  0
 12 14  2  0  0  0  0
 12 17  1  0  0  0  0
 13 21  1  0  0  0  0
 13 28  1  0  0  0  0
 14 18  1  0  0  0  0
 14 28  1  0  0  0  0
 15 17  1  0  0  0  0
 15 24  1  0  0  0  0
 15 27  2  0  0  0  0
 16 24  1  0  0  0  0
 16 25  2  0  0  0  0
 16 26  1  0  0  0  0
 17 25  1  0  0  0  0
 19 21  1  0  0  0  0
 20 24  1  0  0  0  0
  1 29  1  0  0  0  0
  2 30  1  0  0  0  0
  3 31  1  0  0  0  0
  4 32  1  0  0  0  0
  5 33  1  0  0  0  0
  6 34  1  0  0  0  0
  7 35  1  0  0  0  0
  8 36  1  0  0  0  0
 18 37  1  0  0  0  0
 18 38  1  0  0  0  0
 18 39  1  0  0  0  0
 19 40  1  0  0  0  0
 19 41  1  0  0  0  0
 19 42  1  0  0  0  0
 20 43  1  0  0  0  0
 20 44  1  0  0  0  0
 20 45  1  0  0  0  0
 21 46  1  0  0  0  0
 21 47  1  0  0  0  0
 25 48  1  0  0  0  0
 26 49  1  0  0  0  0
 26 50  1  0  0  0  0
M  CHG  1  25   1
M  END
> <OMEGA_C>
zbKmQH2vmEBmE8DB153KQIWUs0DAQr/BmrmfQHCpcEAOY7jBPZrhQC8rjEAOYq/B4h6hQKBj5j0L
tqHB2NEAQScB+UCkLbbBHDoXQfWNwUBTqK7BXl4eQbDWBEHziavBwxfoQKFwrUBr1LbBrsQEQQcq
zUCqerTBbe+8QHgmZECG06/BfZG3QORdij9zuqjBsbilQLtOmL8i6qTBq3vPQKgK3D7Bc7DBLSHJ
QGijOUBADJzBC7yBQIYoVkAbNprBtEKyQFymJUDZk6bBzUHsQKZyhj+KxLjBc5KoQNkXX8AEmpzB
24WuQNysV0AIYonBhr2LQAh/FcBUWqDBDqUNQbBIC0FGprHB+rAjQaH230ACQ6rB9X6pQJKrVEDQ
EJXBaTOFQMZYNkB936PBVmM3QGhhc0D+1pXBu4buQApYKkCLvpnBLbrIQHIjp78Wr6/BlWWQQEzI
nECemMbBU6TPQKXEzECrCsXBWNSDQJQtSEAyBrnB+jP5QJabhkDvOanB6emOQNmQzz5OwJrB/gvn
QDZ3AUFpG7vB5FsbQSc0oEBbuq3BkNknQUvXEEHIhKfBXY76QCRRhD4+uL3BeWnZQMPn3D8G373B
ouUCQRtczz9Bx7TBJq2UQP+BicB8WZnBNUq7QAxId8DYaaPBZG++QGS/R8BIWpbBl8uQQCRsb0AU
uYXBdHW1QLYIF0DkW4bB3xbJQM9ngUDuUYfBqA9yQCDu+7/3gJnBSsVrQLd/LcCHkKbBcQRZQADw
KkD1wajBEWIBQODicEAUH5rBX302QDp7hUBPZ47BnPilQCDMmUCyw7/ByEzLQKTgskA4Er/BPn2d
QDf/c0BPALjB7h/gQLJMi0CdDq/BnL+lQIDQg7xBL6LBeswYQTwfuUADNq/BY0YEQTKx9ECxErbB
N2wjQUx4/0BUFqzBEo7oQB5+q0ARqbbBbnIGQbxAyEC1mbTB3HK6QGc+ZUDYca/B2sK2QOqRhz8G
RanBpHexQB9JpL8MaKXB6mPOQGBQBD9bk7HBrIrHQCUsNUAv8pvB/guBQDsaVkDDCJrBbg6wQJ9g
I0CtfabB6iTpQMIanj8/zbnB3ct2QH0EKsAk15rBdvGvQF9IZkDRpInBajaoQP7GJsC73p/B9/Em
QTzq1ECfBKvBrMASQSvPB0ErvrHBCumnQI+wSkCOsZTB6AuDQL+1MUC1fKPBn1Y6QOuhfkDS65XB
AnjtQNsrKUB445nBPrbOQG+enL8UJLHBA7mPQJLenkDVQMbBPIHRQK6Ly0CR68TB4qWAQA40TkA5
lrjBLB73QL5mhUAOx6jBSDaSQL4zNj6FOpvBbX4bQeoel0BUc67BdBTuQGybAEF0qbrBp1kuQdK8
CkFqRqjBE1n6QEpy/z7Xub7B0kDUQDv+6z848r7BdC0AQbOc8T99vLXBSC1tQFWDaMC5+JbBlsZw
QKbF7b+m1pTBHTpGQObzIMDwG6HBo0qRQLlhc0CUo4XBoAXBQBtiM0DrUIXByovDQIFgkEC+sonB
stWqQDeRWsBuy6XB7xvAQCSAMMAkhpnBcYVTQNAKIkBi+6fBGpMEQPjLgEDOPprBhlk8QJlzjEBr
oY7B

> <OMEGA_E>
HvppP6LjZT8=

> <OMEGA_NBR>
     34595

$$$$
50213412
  -OEChem-04172616093D

 49 52  0     1  0  0  0  0  0999 V2000
    6.5027   -0.5889  -22.6549 C   0  0  0  0  0  0  0  0  0  0  0  0
    6.0487   -1.5657  -21.7505 C   0  0  0  0  0  0  0  0  0  0  0  0
    6.3327    0.7786  -22.3669 C   0  0  0  0  0  0  0  0  0  0  0  0
    7.2283    4.2914  -21.8937 C   0  0  0  0  0  0  0  0  0  0  0  0
    5.1995    0.1882  -20.2886 C   0  0  0  0  0  0  0  0  0  0  0  0
    5.1061    3.8639  -22.9632 C   0  0  0  0  0  0  0  0  0  0  0  0
    7.5455    5.1587  -22.9610 C   0  0  0  0  0  0  0  0  0  0  0  0
    5.7246   -3.2949  -19.2707 C   0  0  0  0  0  0  0  0  0  0  0  0
    3.6528   -2.0776  -18.9949 C   0  0  0  0  0  0  0  0  0  0  0  0
    4.0619   -4.0519  -17.8134 C   0  0  0  0  0  0  0  0  0  0  0  0
    5.3875   -1.1787  -20.5666 C   0  0  0  0  0  0  0  0  0  0  0  0
    4.9163   -2.1921  -19.6089 C   0  0  0  0  0  0  0  0  0  0  0  0
    5.6867    1.1811  -21.1708 C   0  0  0  0  0  0  0  0  0  0  0  0
    5.9701    3.6427  -21.8754 C   0  0  0  0  0  0  0  0  0  0  0  0
    5.4761    4.7389  -23.9988 C   0  0  0  0  0  0  0  0  0  0  0  0
    6.2318    2.8981  -19.4378 C   0  0  0  0  0  0  0  0  0  0  0  0
    3.9855    3.2891  -19.2053 C   0  0  0  0  0  0  0  0  0  0  0  0
    5.5394    2.6566  -20.7730 C   0  0  2  0  0  0  0  0  0  0  0  0
    4.9264    5.9805  -26.1635 C   0  0  0  0  0  0  0  0  0  0  0  0
    5.4299    3.5921  -17.1479 C   0  0  0  0  0  0  0  0  0  0  0  0
    4.5018    4.9022  -25.1556 C   0  0  0  0  0  0  0  0  0  0  0  0
    5.2894   -4.2025  -18.3714 N   0  0  0  0  0  0  0  0  0  0  0  0
    3.2408   -3.0146  -18.1147 N   0  0  0  0  0  0  0  0  0  0  0  0
    6.6808    5.3703  -23.9832 N   0  0  0  0  0  0  0  0  0  0  0  0
    5.2134    3.1792  -18.5401 N   0  0  0  0  0  0  0  0  0  0  0  0
    4.1211    2.9124  -20.4542 N   0  3  0  0  0  0  0  0  0  0  0  0
    2.7866    3.6918  -18.6357 N   0  0  0  0  0  0  0  0  0  0  0  0
    7.4062    2.6818  -19.1590 O   0  0  0  0  0  0  0  0  0  0  0  0
    6.9836   -0.8891  -23.5741 H   0  0  0  0  0  0  0  0  0  0  0  0
    6.2067   -2.6128  -21.9628 H   0  0  0  0  0  0  0  0  0  0  0  0
    6.6957    1.5236  -23.0595 H   0  0  0  0  0  0  0  0  0  0  0  0
    7.9390    4.1241  -21.0979 H   0  0  0  0  0  0  0  0  0  0  0  0
    4.6769    0.4828  -19.3906 H   0  0  0  0  0  0  0  0  0  0  0  0
    4.1527    3.3581  -23.0028 H   0  0  0  0  0  0  0  0  0  0  0  0
    8.4992    5.6655  -22.9634 H   0  0  0  0  0  0  0  0  0  0  0  0
    6.6940   -3.4145  -19.7316 H   0  0  0  0  0  0  0  0  0  0  0  0
    3.0135   -1.2391  -19.2288 H   0  0  0  0  0  0  0  0  0  0  0  0
    3.7242   -4.7885  -17.0994 H   0  0  0  0  0  0  0  0  0  0  0  0
    4.1801    6.0444  -26.9691 H   0  0  0  0  0  0  0  0  0  0  0  0
    4.9983    6.9519  -25.6526 H   0  0  0  0  0  0  0  0  0  0  0  0
    5.9054    5.7176  -26.5908 H   0  0  0  0  0  0  0  0  0  0  0  0
    4.4586    3.7512  -16.6568 H   0  0  0  0  0  0  0  0  0  0  0  0
    5.9859    2.8066  -16.6149 H   0  0  0  0  0  0  0  0  0  0  0  0
    6.0080    4.5277  -17.1287 H   0  0  0  0  0  0  0  0  0  0  0  0
    4.4248    3.9411  -25.6849 H   0  0  0  0  0  0  0  0  0  0  0  0
    3.5178    5.1754  -24.7467 H   0  0  0  0  0  0  0  0  0  0  0  0
    3.3662    2.8122  -21.1024 H   0  0  0  0  0  0  0  0  0  0  0  0
    1.9518    3.7075  -19.1862 H   0  0  0  0  0  0  0  0  0  0  0  0
    2.7569    3.9665  -17.6746 H   0  0  0  0  0  0  0  0  0  0  0  0
  1  2  1  0  0  0  0
  1  3  2  0  0  0  0
  2 11  2  0  0  0  0
  3 13  1  0  0  0  0
  4  7  2  0  0  0  0
  4 14  1  0  0  0  0
  5 11  1  0  0  0  0
  5 13  2  0  0  0  0
  6 14  2  0  0  0  0
  6 15  1  0  0  0  0
  7 24  1  0  0  0  0
  8 12  1  0  0  0  0
  8 22  2  0  0  0  0
  9 12  2  0  0  0  0
  9 23  1  0  0  0  0
 10 22  1  0  0  0  0
 10 23  2  0  0  0  0
 11 12  1  0  0  0  0
 13 18  1  0  0  0  0
 14 18  1  0  0  0  0
 15 21  1  0  0  0  0
 15 24  2  0  0  0  0
 16 18  1  0  0  0  0
 16 25  1  0  0  0  0
 16 28  2  0  0  0  0
 17 25  1  0  0  0  0
 17 26  2  0  0  0  0
 17 27  1  0  0  0  0
 18 26  1  0  0  0  0
 19 21  1  0  0  0  0
 20 25  1  0  0  0  0
  1 29  1  0  0  0  0
  2 30  1  0  0  0  0
  3 31  1  0  0  0  0
  4 32  1  0  0  0  0
  5 33  1  0  0  0  0
  6 34  1  0  0  0  0
  7 35  1  0  0  0  0
  8 36  1  0  0  0  0
  9 37  1  0  0  0  0
 10 38  1  0  0  0  0
 19 39  1  0  0  0  0
 19 40  1  0  0  0  0
 19 41  1  0  0  0  0
 20 42  1  0  0  0  0
 20 43  1  0  0  0  0
 20 44  1  0  0  0  0
 21 45  1  0  0  0  0
 21 46  1  0  0  0  0
 26 47  1  0  0  0  0
 27 48  1  0  0  0  0
 27 49  1  0  0  0  0
M  CHG  1  26   1
M  END
> <OMEGA_C>
uRXQQM+/Fr8mPbXBUI/BQCxoyL/7AK7BjqXKQL1RRz9e77LB2U3nQP1SiUA+Jq/Bs2KmQAGyQD4O
T6LBemWjQHxJd0CxtLfBCHXxQGMUpUArsLfB4i+3QC/gUsBiKprBAsdpQJ72BMB/9ZfBNvuBQA2p
gcDQgY7BQmasQHbelr9TiKTBClKdQNdLDMD/3pzBzfm1QMUulz/mXanBRgu/QMkhaUDnAK/BZTyv
QE2ll0CM/b/BhWrHQCh7OUCsgJvBWBJ/QH6AUkB+pJnBtUKxQDEFKkAoL6bBTqWdQPlfv0DuTtHB
CcKtQETkZUD1LonBew6QQDffnECfPsnBtkKpQOt6hsCZ+JLBPWlPQG3vQMDx6pDB7sjVQCDZq0CW
3b/BbNSmQFZ4S0AyUpTBMeCDQJFlOkA1oqPBAVcyQPtGbED4FZXBSP/sQGGjK0CcRZnBeXnfQAWd
Y7+0l7zBUZ3GQEw3J8Des6/B9kLWQFQEwz/EebjBfgz+QHj4g0CNyKjBBKmVQDUs9z7oH5vByuKE
QKvrVkDKBbjB4PwHQRtMtUDxtLfB7TTWQBmHWsBS2p3BX9xAQMCbnr+K1JnBEVpuQI07mcCby4jB
csOFQI5rwUC1wNfBY/KfQDR23kB4OM3Btfi8QFP2tkAHutTBzKyOQNsScEAtQYXBIYy/QAegM0Bm
64TBUkHAQELjkECrB4nBN5iNQJc6fEDEes3ByiNhQC2dpUA1+cXBnnBXQLf7M0Cs0ajB7NX5P+BH
bUBMfZnBt3EwQBbbfUCrZY3BPQfUQCCFF7+MrbTBFAnFQHxuyL8Te63Bdp3MQJf8RT/hrrLBQFOe
QI0cd0A9MrjBneSlQIZ5PT5JZaLBnpXjQN6jh0CnKbDBNTaqQA+Ll0AWisDBe0VrQNVIBsARA5jB
1My4QND4UcDJupnB/3iCQARmgsCHkY7BmOStQGr2lr9QTKTB6aueQHNEDMB2opzBHzq1QEpalj9d
hKnBNwm7QD7bZ0CDqK/BBL/tQLLAokDWzLjBy0DHQPV7OkBtH5zBGTeAQIK7VkB4tJnBwjCvQK6J
KUBlj6bBQK4LQb8q5EAzorPB/biwQCa5Z0AHnInBgp0MQQEquECuFLnBhRdQQOT9QsBoHpHBZG+q
QMFmhsD1r5LBBgfRQLnNqkCdr8DBreanQEznTEDRppTBjUiCQPH0OEBkg6PBtDQ3QO02eEAyC5XB
JhXtQJBOLEBDL5rBikzlQNeWZL97w7vByD/LQGsiJ8By/K7BX8nYQD1Ewj9+J7jBHuh+QG0PWED0
U7jB6dWTQJfK9T7KapvBQdX6QIvzgUAY7qnBld+TQKO9nUCD8sbBABZCQJIkor+6/JnBv2LYQDpX
WMAKJZ3BlnFuQKNomsDrBonB45UbQY0y80BX6rPBIREAQZOY+EBI1bfB1rYGQS884ECnP6vBWVaS
QChGckAFXoXBASDDQMeANUClgIXBgFPDQAW+kUC7r4nBOUcYQQXjo0CQ3rTBhKERQWk/vEAxdMHB
zwlSQPxFLkDyPKjBFqUAQIbWekBkNpnBvvM4QNLehkBTg43BzgrUQBufFb+FmrTBNUvFQPobx78g
Wq3BPY7MQDD2Rz8Wp7LB+uOeQENZd0D0SLjB/VimQNWsTD4bRqLBpgnkQE/rh0DcNrDBz+OqQBOA
l0Bsp8DBkBi4QKENU8Ak2ZnBKBxsQAElBMBxvpfBM8SBQMEugsCuk47B90euQDdUlb8nJ6TBNsae
QG2HC8Bqg5zB2nm1QKT2lz/9c6nBCXm7QFZ4aEB9ta/BVEzuQN3nokDr3bjB5HfHQD8UPEDiIJzB
Yvx/QNVIVEDUlpnB93yvQI+aKkAEkabBq7ULQW7d5ECw7bPBM7uwQA/iZ0BvkYnBqd8MQVZkuED9
HLnBSlepQKICh8AD35LBbBlQQIL7QMDj65DBgK7RQI/QqkDxyMDB2gyoQIxvTUBXopTBLZWCQPBn
OkDSj6PBSh41QLl4b0A2s5TBkWLtQILfLkC0MJrBbTDlQMxhY79fs7vBHpjLQP57JsCu067BcHHY
QOvjwj/sL7jBbweAQFJCWEAubbjBzICUQCP5/j4CRZvBDjz7QFVMgkA+96nB+qeUQJuGnUBGGMfB
DGDXQCO0WsBVZZ3B5Q1EQFlom79qjZnB4YFsQOYpmsCrD4nBNJkbQen480BvLbTBTzEAQYrT+ECO
VLjBdH8GQQqr4UCtj6vBuEqSQIyKcUAgUYXBoWnDQIrcNUCPgIXBzQDDQAkHkkDZmInBym8YQUiT
pEBgs7TBpSESQci7u0BBeMHBihRTQPuCMkCGcajBuoD8PwM3cEBO0ZjB4/w1QBYrgUBnDo3ByUTP
QKkhFr8iXLXBpBXBQPJRyL+aGK7BIOXJQLXORz/XBrPBilDnQMUOiUCcJa/BmjimQDXPPj6GVKLB
qzujQOyqd0BoqrfB95rxQHutpED0srfBti1pQDb9BcBBHJjBqoW3QHMeUsA/E5rBLDeCQDakgcCn
fI7BHC6sQOALl7+UlaTBAUSdQJN0DMB26ZzBj6a1QPoqlz9bZanBLuu+QJQsaUD++a7BvDqvQEau
l0BQ+L/BjGLHQDA0OUBYfpvBtiJ/QNzEUkCGn5nBBCOxQKH4KUBaLKbBNqidQImBv0A/RtHBE+Ot
QM6tZUC/KonBWFOQQMmXnEBOS8nBxRJPQJnoQcDpC5HB+7ypQDwLhsBz2JLBVPDVQLOTq0Cd3r/B
j9ymQHFtS0BzTpTB08+DQNF/OkC5m6PB+4UyQMIGbUAsFZXBb/zsQKF0K0DGRZnBfFjeQBOSYr8g
wrzBiDTGQDgjJ8DZza/B3jvVQONpwz++l7jBxQ/+QEOWg0ClyajBG6qVQF9a9T7+HZvBopWEQKjP
V0C89LfBxR0IQT2wtEAhvLfBOqo/QLoOor+cFZrBu7fWQL0rWcAJsJ3ByRhvQLcjmcBsvYjBfACG
QMJNwUCLxtfBfUafQOOH3kAWI83B80C9QDqyt0AuoNTBR9eOQJ4ecEAEO4XBApK/QG40M0Dw6YTB
0IbAQEixkEAyAonBJ4yOQBbLe0D3k83BYSNhQDS7pEDfFsbB0DlXQOcRNEDjx6jBIUn6P1FCbkBH
fpnBrakwQAO6fkD0ZY3BEMObQEbmX78tyrDBt3/DQIqvvr/U2K7B5XGVQKTS9D5yHa7BTTWcQOxx
fkCaTrfBmFffQNQAHz+dCajBRkblQJFpg0CDELHBmGynQMgBm0AAu7/BpIEJQan0L8AI9aXBBwkb
QSdtHr9Ng6jBQpAuQcQjIsCJJqTBN7nlQK7NPb+sfqrB3OoHQR7jr7/jXajBCuC2QEiPnT/PXanB
3zi7QGzrZ0A/k6/BA2ruQBoOn0C7sLnBqg3HQD35RUDJu5vBt799QBQdVkC2PJnBR7qvQJfaLEBC
KabBRFgPQRtq20D+MbTB+W2vQHQIeUB/h4nBeXYNQWjqsUBexLrBV74cQeabU8DP4aPBywAuQSiq
mr89a6bB5ZPPQHe/qkAtvMDBgpSnQPS4YkCRz5TByF2CQOjpOUCbGaPBaTYwQOYtZkBzLJTBU23t
QLD2REC1p5nB7QaCQAubuL8wWLTBVODHQPNPIsAnr7DB3N9tQFElcj+MsK/BHzZ4QDY4ZUA6w7bB
QNb5QMyxmj/vFqXBL2X+QOspdEDIm6vBbGePQMr1o0B0hsXBRoL2QFsDV8CbxaXBOXUaQRar3z7q
T6rBBdg9QaOLP8C5fKLBKpAfQfuh6EBWEbXB65MDQcTa8kCuG7fBljsMQUdp1EB2tqvByFGRQL39
hkBpzIXBnsu7QOimQEDzQoXBNAzHQJqPlkBDGonBfEgZQVibmkCq17fB0KAQQdUMuUDiPMPBXQhT
QMioLkCm8KfBKF7yP/ZJXEAZEZjB+3IvQEGhe0AQo4zB

> <OMEGA_E>
WAIZPlC1Hj4APx8+IGQXPqbCcz8=

> <OMEGA_NBR>
     39067

$$$$
50213413
  -OEChem-04172616093D

 52 55  0     1  0  0  0  0  0999 V2000
    6.7401   -0.5222  -22.5578 C   0  0  0  0  0  0  0  0  0  0  0  0
    6.2708   -1.5195  -21.6833 C   0  0  0  0  0  0  0  0  0  0  0  0
    6.4453    0.8314  -22.3109 C   0  0  0  0  0  0  0  0  0  0  0  0
    4.9930    3.8713  -23.0272 C   0  0  0  0  0  0  0  0  0  0  0  0
    5.1701    0.1835  -20.3358 C   0  0  0  0  0  0  0  0  0  0  0  0
    7.0238    4.3375  -21.8147 C   0  0  0  0  0  0  0  0  0  0  0  0
    5.4075    4.8094  -24.0003 C   0  0  0  0  0  0  0  0  0  0  0  0
    5.8270   -3.2735  -19.2545 C   0  0  0  0  0  0  0  0  0  0  0  0
    3.7254   -2.0951  -19.0408 C   0  0  0  0  0  0  0  0  0  0  0  0
    4.1340   -4.0606  -17.8486 C   0  0  0  0  0  0  0  0  0  0  0  0
    5.4834   -1.1664  -20.5663 C   0  0  0  0  0  0  0  0  0  0  0  0
    5.0072   -2.1889  -19.6215 C   0  0  0  0  0  0  0  0  0  0  0  0
    5.6472    1.1932  -21.1967 C   0  0  0  0  0  0  0  0  0  0  0  0
    5.8065    3.6480  -21.8920 C   0  0  0  0  0  0  0  0  0  0  0  0
    7.3739    5.2727  -22.7925 C   0  0  0  0  0  0  0  0  0  0  0  0
    6.1398    2.8851  -19.4676 C   0  0  0  0  0  0  0  0  0  0  0  0
    3.9243    3.3657  -19.2224 C   0  0  0  0  0  0  0  0  0  0  0  0
    5.4145    2.6474  -20.7973 C   0  0  2  0  0  0  0  0  0  0  0  0
    8.4158    7.5139  -22.3124 C   0  0  0  0  0  0  0  0  0  0  0  0
    9.5879    5.8435  -23.8107 C   0  0  0  0  0  0  0  0  0  0  0  0
    5.4092    3.6552  -17.1869 C   0  0  0  0  0  0  0  0  0  0  0  0
    8.6801    6.0251  -22.5905 C   0  0  0  0  0  0  0  0  0  0  0  0
    5.3811   -4.1878  -18.3677 N   0  0  0  0  0  0  0  0  0  0  0  0
    3.3054   -3.0365  -18.1710 N   0  0  0  0  0  0  0  0  0  0  0  0
    6.5686    5.5012  -23.8658 N   0  0  0  0  0  0  0  0  0  0  0  0
    5.1494    3.2093  -18.5623 N   0  0  0  0  0  0  0  0  0  0  0  0
    4.0047    2.8763  -20.4398 N   0  3  0  0  0  0  0  0  0  0  0  0
    2.7766    3.9086  -18.6662 N   0  0  0  0  0  0  0  0  0  0  0  0
    7.3106    2.6390  -19.1931 O   0  0  0  0  0  0  0  0  0  0  0  0
    7.3283   -0.7964  -23.4211 H   0  0  0  0  0  0  0  0  0  0  0  0
    6.5133   -2.5559  -21.8667 H   0  0  0  0  0  0  0  0  0  0  0  0
    6.8277    1.5957  -22.9712 H   0  0  0  0  0  0  0  0  0  0  0  0
    4.0657    3.3313  -23.1493 H   0  0  0  0  0  0  0  0  0  0  0  0
    4.5563    0.4514  -19.4886 H   0  0  0  0  0  0  0  0  0  0  0  0
    7.6971    4.1448  -20.9926 H   0  0  0  0  0  0  0  0  0  0  0  0
    4.7881    4.9795  -24.8685 H   0  0  0  0  0  0  0  0  0  0  0  0
    6.8133   -3.3736  -19.6830 H   0  0  0  0  0  0  0  0  0  0  0  0
    3.0788   -1.2677  -19.2931 H   0  0  0  0  0  0  0  0  0  0  0  0
    3.7865   -4.8065  -17.1491 H   0  0  0  0  0  0  0  0  0  0  0  0
    9.3732    8.0365  -22.1699 H   0  0  0  0  0  0  0  0  0  0  0  0
    7.8799    7.9566  -23.1650 H   0  0  0  0  0  0  0  0  0  0  0  0
    7.8047    7.6142  -21.4032 H   0  0  0  0  0  0  0  0  0  0  0  0
   10.5286    6.3915  -23.6533 H   0  0  0  0  0  0  0  0  0  0  0  0
    9.8055    4.7742  -23.9497 H   0  0  0  0  0  0  0  0  0  0  0  0
    9.0815    6.2340  -24.7057 H   0  0  0  0  0  0  0  0  0  0  0  0
    4.4539    3.8484  -16.6769 H   0  0  0  0  0  0  0  0  0  0  0  0
    5.9618    2.8728  -16.6461 H   0  0  0  0  0  0  0  0  0  0  0  0
    6.0069    4.5785  -17.2076 H   0  0  0  0  0  0  0  0  0  0  0  0
    9.1924    5.5994  -21.7151 H   0  0  0  0  0  0  0  0  0  0  0  0
    3.2237    2.6874  -21.0351 H   0  0  0  0  0  0  0  0  0  0  0  0
    1.9320    3.9468  -19.2002 H   0  0  0  0  0  0  0  0  0  0  0  0
    2.7932    4.2621  -17.7309 H   0  0  0  0  0  0  0  0  0  0  0  0
  1  2  1  0  0  0  0
  1  3  2  0  0  0  0
  2 11  2  0  0  0  0
  3 13  1  0  0  0  0
  4  7  2  0  0  0  0
  4 14  1  0  0  0  0
  5 11  1  0  0  0  0
  5 13  2  0  0  0  0
  6 14  2  0  0  0  0
  6 15  1  0  0  0  0
  7 25  1  0  0  0  0
  8 12  1  0  0  0  0
  8 23  2  0  0  0  0
  9 12  2  0  0  0  0
  9 24  1  0  0  0  0
 10 23  1  0  0  0  0
 10 24  2  0  0  0  0
 11 12  1  0  0  0  0
 13 18  1  0  0  0  0
 14 18  1  0  0  0  0
 15 22  1  0  0  0  0
 15 25  2  0  0  0  0
 16 18  1  0  0  0  0
 16 26  1  0  0  0  0
 16 29  2  0  0  0  0
 17 26  1  0  0  0  0
 17 27  2  0  0  0  0
 17 28  1  0  0  0  0
 18 27  1  0  0  0  0
 19 22  1  0  0  0  0
 20 22  1  0  0  0  0
 21 26  1  0  0  0  0
  1 30  1  0  0  0  0
  2 31  1  0  0  0  0
  3 32  1  0  0  0  0
  4 33  1  0  0  0  0
  5 34  1  0  0  0  0
  6 35  1  0  0  0  0
  7 36  1  0  0  0  0
  8 37  1  0  0  0  0
  9 38  1  0  0  0  0
 10 39  1  0  0  0  0
 19 40  1  0  0  0  0
 19 41  1  0  0  0  0
 19 42  1  0  0  0  0
 20 43  1  0  0  0  0
 20 44  1  0  0  0  0
 20 45  1  0  0  0  0
 21 46  1  0  0  0  0
 21 47  1  0  0  0  0
 21 48  1  0  0  0  0
 22 49  1  0  0  0  0
 27 50  1  0  0  0  0
 28 51  1  0  0  0  0
 28 52  1  0  0  0  0
M  CHG  1  27   1
M  END
> <OMEGA_C>
/q7XQKGxBb9ydrTBkKrIQGmAwr9dd63BNEDOQObWVD+zfLLBfsafQOnCd0C0N7jB1nGlQKXzOz60
r6LBoMLgQCPNikCRhK7B8AmtQMHmmUCPAMDB+Ha6QNqAUcAmCZrBa21uQNgVBsCDU5jB8kmEQHLw
gcD5yY7BqHevQDdOlb+8h6TB/jqgQKkXDMDM+JzBOLa0QGi6mD/wkqnBws65QAt4aUDSIq/BAvfr
QKm5qEAhV7bBQHnEQMqlOEC5vZvB9SZ7QGZoV0B+x5nBnkOtQKluKUDsYKbBC6cGQURy8EDIf7LB
72cZQdf9ukBUfL7BKhitQDPvaUDLfonBfeEKQbfNwEBdubTBHjKsQIAChsAX8ZLBVoxTQERWQsAf
XpHBKjLSQCAKsEAP7b7BlsekQMxlTUCDf5TBXCaAQIgVOEC+hKPBk7MxQA8nekBdVJXBFvDpQDLl
KECMi5nBIYHqQM/hS7+CXrvBlWzQQFaTI8AY767B0XzaQF9AzD8AxbfBCBqCQJszVUDQMbnB08yR
QF0c5z6U6JvBpk72QEWihEDj8KfBxDeZQDRYn0Cr8sbBsAbaQCHpV8Cxdp3BEgtFQOxCor85WJrB
zFVyQIPOmcBhMYnBs/gVQV6VAEELXLHBcSj8QJCc/kDmUbnBL8D5QDqn80DZOavB83QoQXqHzEAK
Or3BQuMcQXnGmEAWmb/Bpk0RQQx9x0BLpcXBjIaOQMFLdkA6aoXB9Ma+QJPbN0BQK4XBQTjAQL+C
kkBCqYnB/hMTQW0us0CSuK3BYlFOQFz+K0D1R6jB0Er3P8CYfEAEmpnB9cMyQDtjiEDh2I3BdM7M
QFw+Eb+rzLXB5AC/QCD6xL++b67BySLIQKIZTT/udbPB/p/oQBhniUApPK/BGgSmQIstZT7Rg6LB
td+kQHKje0BiE7jBTd7zQN+dpUAplbfBFHa2QMVzUsBgwprBGzJrQH/nAcCgmZfBygWDQHIRgcBE
ko7B8j+rQJbEkr80yaTB6/CcQOBUCsBXBJ3BSRm1QFEDmz/otKnBy+W/QBkVa0B0T6/BBhuyQKXu
mUD4O8DBN+vGQIS/O0CL3pvBuGR+QG+RVkBAKprBaAWxQGcjLEDgkabBjierQLyamEDgP9TB7NCD
QIQ/0ECGfcnBouSsQBtaZ0A5mYnBbiKUQKrWoUDonsnBlkepQF5whsBChZPBlTBSQElEPsAnh5DB
cN/YQNGUrUCw0L/Bm0SnQFvaWkBHJ5XBJLeDQCjAPUBUIKTBHHIwQG8GakDvcZXByMTrQJB+KUDv
YJnB1w3bQNt1X78xSL3BUojDQDSXJcAbLLDBDBnTQHpfxT92HrnB/+v+QFv+gkDB1KjBWFGWQFdT
Bj8rNJvBP+qFQBQmXUDIi7jBtlkJQWc2tUD9ZrfBWqTUQDUAW8C01J7BPdpCQBEvlr/CG5nBR41x
QODKmMCs1YjB/RuVQKV0nkDC89rBTCbHQLK6rUB6ANXBSa61QGQKbkBXZdTB13FcQBJr1UCUUdDB
8dJkQJ851kAV/cHBWiSfQO5Q5kBlEcrBsBmPQM1LgEAIIobB2L60QAXCKUDk0IXBdA/HQGOIikDZ
L4jBgQpxQCkvjEB77sjBAmBXQDycN0CUWqnB78/0P3p9ZUCJsZnBzEkuQH2WfEAwy43BABHYQEAO
CL8EcbTBkiLJQKiFw7+Maq3BZpLOQG2uUj/ef7LBbsKfQE+qd0DKRrjBeuylQHi/Nj4rq6LBYITg
QLIIi0AFh67Bjg2tQDbkmUDMDsDBxYhuQN3eBcCUX5jB+GO6QJTwUcBr7pnBJN2DQCiYgcAntI7B
TO+vQBgQlr+hfKTB/megQHVWDMDP8JzBrAu1QAnilz/Gl6nBFsq5QERMaUDqMa/BekDrQKSyqUAJ
NLbBWL3EQJ5/OEDa0ZvB34x7QHbNVkAVz5nBIm6tQPAOKUDob6bBO1QHQc5U8kCbIrXB0A4bQVBL
skC2tLzBxGetQP//aEBch4nBVocKQRSnwUB2g7TBPRdTQLiXQcB4YZHBjM6rQBADhsDt0JLBuPTR
QABusEAa6L7BaBulQCBpTUCikZTBXFCAQLZvN0A+jKPBxusxQOXDeEC/TpXB4CvqQCpLKED3opnB
m9/qQH+rTr+YWLvBgfbQQKkWJMDI267BOMHaQC78yj+ezbfBUBSCQPEiVUAiQrnBlWKSQJGN5T55
4JvB9En2QLmHhEB1BKjBcXeZQCYJn0AlD8fB22RFQPzlob82e5rBXv/ZQOHYWMBJUZ3BKx1xQA4y
mcB9D4nBi8EWQVpBAUGw4LPBePoAQUfj+kAED73BI+n3QAd1/EA56q7BDDEqQfyYw0BgfrvBCscd
QUPDj0CTrLvBzxIVQZd7uEDu1cTBdteOQL6xdUBGdoXBWMW+QMFDNkAQPoXBvdTAQD/akUDPnInB
CY8QQQ/iuUBBeqzBw5dOQA8nK0A8S6jBdEX3P0GQekD4iZnB2hczQKy7h0BH1I3ByXLZQJG2/748
A7TBuMvJQOzevr8RDa3BL2LQQPPGWz+3GLLBFMOeQEsOd0CvQLjB48WmQNzXZz6jYKLBkengQIIh
jUCYV6/Bwa6qQI6Ll0ADl8DBW8G5QN56UMAbw5nBUkZtQKo9BMDrZJjBXjeCQNybgcCR9Y7Bq16w
QJ6zkL/ULaTBqSygQKkgCsAWvpzBqYq2QCLgnT+gSKnBxiG6QMl0bEDAWa/BX6nrQLAWqECXB7jB
s1PGQCbOPUCMwpvBGkN9QBoSVEBhcJnB1O+uQPTfLEAfT6bB0xocQQdDrkDVlLDBctAGQaAb8ECq
47TBvEmuQFWKZkBnL4nBeOAKQR09wUA1GbjBqX+qQPbMhcBt3pLB9mNQQBsjQcAKpJHBW0rQQDQX
rUDmYMDBBmqmQONvTUBYV5TB28WBQNvnOUDiY6PBjsUxQFn8bkDnr5TBcSjsQGp5MECit5nBp4Hs
QGkLSL+q27rB6EDRQG3sIcAWgK7B3SndQGfizj/XW7fBe+OAQMt2VEA5rLjBBxiTQLyxAD+yoJvB
Dpz2QHcbikDjqKjB7FOVQIPpm0B4S8fBeqDZQAEeV8Cd/5zBiKZEQBy0nb9deZrBnsBsQAyUmcDh
e4nBlLYqQdHPwUCeB7HBehQWQWgvrkAkUKjBssQfQQ5JjUAZDrPB9wUWQdHoAEG897TBWkH3QEDR
/kAMmrrBCsT/QI4t8UAPzqzB44uPQCTubkBkB4XBHgLBQOxgNEBYKIXBijfAQO6NkUASBInBZ0UR
QUftwED5S8DBhu9RQC4yMEDiS6jBLKr2P9tIb0Ct5JjBlr4xQJYNgUBwDY3BFIDZQJp+/r6yybPB
KLjJQK8Fvr8e0qzBHKDQQG6KXD+84LHBL96eQA/ZdUBHRrjBhBWnQAaBdT4fG6LBtP7gQDlAjUCX
bq/BBI6qQM2wlkAzr8DBdH5sQG6IBcBEcJjB5A66QHiWT8BHiZnBbO+BQLOugsCpLI/BYHCwQKhX
j79q76PBmC2gQIzOCcDpkJzBge22QK4Xnz8YDanBlE+6QAZbbEDdXa/BenvrQI7tp0CDMbjBNb/G
QB+9QEDwvJvBZCx+QPtfWECgdpnBokevQJzLLUAWNabBHIccQfifrECqkrHBr40GQU8/70D7BrTB
dk+uQB4MZkAdH4nB4ZEKQfutwUBCQ7jByFlPQCCvQ8A74JHBIamqQAP5hcCt1pLBJQLQQI6BrEDk
iMDBzqynQIuzXUDEuJTBWjeCQFBAO0AlSaPBz3QxQHp6bUAWj5TBKvvrQA5cL0CrfZnBdILsQEBQ
SL/4obrBRvfQQEyWIcAlRq7BxXLdQMbnzj/SKLfBMR6BQNTLUkC8pLjBi5uTQOcNBT9IVJvB/cj2
QJSTikBYwqjBIiWVQK6jmkACZcfB9n1DQKTroL9yh5rBtkvaQK/HVMDnlJzB3dNrQEI6m8Ds4onB
QQMrQemQwEAz8LHBW0UXQZylqUAqNanBVRIgQZOsjEAW0LTBZKEVQaazAEEvHrTB7nT1QHxg/0Di
JbnBDm0AQceE7UAFyqvBGeGQQCdHfkDWXIXBOlK2QMcaJ0D8uYXBzbTIQHx/iUC/mIfBkiwQQZEr
xEDXlMDBobZSQEzML0CKHajB3qz0P7vRZkDeiZjB7ToxQFSugUCLCo3BNkbNQHokGL8bs7XBgWW/
QOvlx780Ta7B+nTIQJPNRj/5b7PBl8bpQIqCh0Ahlq/Bf/WlQGk1VT69hKLB2gSkQGh5f0AznbfB
gjv0QKijpEAU0bfB2fxoQM/RA8AK6ZfBQOK2QF4nUcDRPJrBBEeCQJTegMDHao7BwUqrQB/blL9n
t6TBM76cQBXnCsD+65zBaVC1QOyAmD8Xt6nB5mrAQKslakBuUK/BijGwQOXcnEACp7/BzJvHQApW
OkCT4ZvBY31/QK4DVEDcF5rBiJ+xQE/rKkCXk6bBTQd/QIXygECNJs7BYvifQPLdyUAhP9DBZWet
QMHjYkAQfonBQ9KOQBQeqUBPEMjBDXJPQBHAP8Ajz5DBR2ipQDGOhcBg+JLBwdPXQCfcrkCjmb/B
2cenQHxgV0C5D5XB8FGEQGR4PEBZF6TBbWMxQPz1ZkDaYZXB36PsQDcEKUDSdZnBvbDbQDCdZ78k
Jr3BuCTEQCMcJ8DF9q/BUmLTQMjHwT/7ILnBtpAAQYS8fkBHjanBZviVQPB/Az9NQpvBCI+EQELq
YkBJ1LfBQ84JQQIes0A96bfBQK0/QM/KnL9XwJnBCsTVQMSoWMBAAJ7BPqhvQFZhmMD5pYjB4htP
QGU2ikC2KtTBdvKaQLWIY0CfJtLBf0diQMl0VEBneMjB17uGQIZ70UAUFNbBza2pQHQ+50DRDMzB
ory7QCY6vEDlcdTB42OPQJZ9ekBO94XBd/O1QM8/JUA90YXBwRjHQJvGiECvBYjBsTtmQOlVt0D7
9cPBSptYQCseN0DfVanBFgP3P3gDY0C+q5nBg/UuQJyReEBsso3B

> <OMEGA_E>
ACx9Psizgj5wXIM+4CmEPliohz4gp44+

> <OMEGA_NBR>
     44605

$$$$
50213415
  -OEChem-04172616093D

 55 58  0     1  0  0  0  0  0999 V2000
    6.5426   -0.5726  -22.6647 C   0  0  0  0  0  0  0  0  0  0  0  0
    6.0775   -1.5460  -21.7619 C   0  0  0  0  0  0  0  0  0  0  0  0
    6.3643    0.7960  -22.3875 C   0  0  0  0  0  0  0  0  0  0  0  0
    5.2004    0.2135  -20.3234 C   0  0  0  0  0  0  0  0  0  0  0  0
    7.1982    4.3746  -21.8792 C   0  0  0  0  0  0  0  0  0  0  0  0
    5.1355    3.8785  -23.0383 C   0  0  0  0  0  0  0  0  0  0  0  0
    5.7290   -3.2588  -19.2689 C   0  0  0  0  0  0  0  0  0  0  0  0
    3.6407   -2.0591  -19.0467 C   0  0  0  0  0  0  0  0  0  0  0  0
    4.0427   -4.0202  -17.8409 C   0  0  0  0  0  0  0  0  0  0  0  0
    5.3989   -1.1549  -20.5891 C   0  0  0  0  0  0  0  0  0  0  0  0
    4.9183   -2.1656  -19.6322 C   0  0  0  0  0  0  0  0  0  0  0  0
    5.6933    1.2025  -21.2079 C   0  0  0  0  0  0  0  0  0  0  0  0
    5.9709    3.6712  -21.9208 C   0  0  0  0  0  0  0  0  0  0  0  0
    7.5233    5.2763  -22.9159 C   0  0  0  0  0  0  0  0  0  0  0  0
    5.5213    4.7907  -24.0438 C   0  0  0  0  0  0  0  0  0  0  0  0
    6.2471    2.9193  -19.4905 C   0  0  0  0  0  0  0  0  0  0  0  0
    4.0082    3.3407  -19.2477 C   0  0  0  0  0  0  0  0  0  0  0  0
    5.5427    2.6789  -20.8198 C   0  0  2  0  0  0  0  0  0  0  0  0
    8.7785    6.1154  -22.8205 C   0  0  0  0  0  0  0  0  0  0  0  0
    5.4233    4.5992  -26.5381 C   0  0  0  0  0  0  0  0  0  0  0  0
    4.1806    6.4495  -25.3722 C   0  0  0  0  0  0  0  0  0  0  0  0
    5.4601    3.5696  -17.1861 C   0  0  0  0  0  0  0  0  0  0  0  0
    4.6414    4.9839  -25.2678 C   0  0  0  0  0  0  0  0  0  0  0  0
    5.2838   -4.1626  -18.3703 N   0  0  0  0  0  0  0  0  0  0  0  0
    3.2177   -2.9947  -18.1701 N   0  0  0  0  0  0  0  0  0  0  0  0
    6.6868    5.4754  -23.9573 N   0  0  0  0  0  0  0  0  0  0  0  0
    5.2655    3.3796  -18.6290 N   0  0  0  0  0  0  0  0  0  0  0  0
    4.1307    2.9416  -20.4917 N   0  3  0  0  0  0  0  0  0  0  0  0
    2.8018    3.6759  -18.6514 N   0  0  0  0  0  0  0  0  0  0  0  0
    7.4046    2.6357  -19.1994 O   0  0  0  0  0  0  0  0  0  0  0  0
    7.0387   -0.8766  -23.5746 H   0  0  0  0  0  0  0  0  0  0  0  0
    6.2402   -2.5938  -21.9671 H   0  0  0  0  0  0  0  0  0  0  0  0
    6.7401    1.5382  -23.0761 H   0  0  0  0  0  0  0  0  0  0  0  0
    4.6655    0.5121  -19.4339 H   0  0  0  0  0  0  0  0  0  0  0  0
    7.8831    4.2223  -21.0582 H   0  0  0  0  0  0  0  0  0  0  0  0
    4.2030    3.3405  -23.1243 H   0  0  0  0  0  0  0  0  0  0  0  0
    6.7081   -3.3742  -19.7100 H   0  0  0  0  0  0  0  0  0  0  0  0
    2.9993   -1.2279  -19.2996 H   0  0  0  0  0  0  0  0  0  0  0  0
    3.6971   -4.7539  -17.1277 H   0  0  0  0  0  0  0  0  0  0  0  0
    8.8223    6.8087  -23.6734 H   0  0  0  0  0  0  0  0  0  0  0  0
    8.7654    6.6892  -21.8821 H   0  0  0  0  0  0  0  0  0  0  0  0
    9.6606    5.4585  -22.8364 H   0  0  0  0  0  0  0  0  0  0  0  0
    4.7823    4.7408  -27.4208 H   0  0  0  0  0  0  0  0  0  0  0  0
    6.3152    5.2369  -26.6267 H   0  0  0  0  0  0  0  0  0  0  0  0
    5.7311    3.5451  -26.4739 H   0  0  0  0  0  0  0  0  0  0  0  0
    3.5457    6.5722  -26.2620 H   0  0  0  0  0  0  0  0  0  0  0  0
    3.6072    6.7184  -24.4728 H   0  0  0  0  0  0  0  0  0  0  0  0
    5.0599    7.1051  -25.4561 H   0  0  0  0  0  0  0  0  0  0  0  0
    4.5283    3.9424  -16.7359 H   0  0  0  0  0  0  0  0  0  0  0  0
    5.7322    2.6095  -16.7234 H   0  0  0  0  0  0  0  0  0  0  0  0
    6.2660    4.2992  -17.0179 H   0  0  0  0  0  0  0  0  0  0  0  0
    3.7563    4.3362  -25.1833 H   0  0  0  0  0  0  0  0  0  0  0  0
    3.3692    2.8309  -21.1303 H   0  0  0  0  0  0  0  0  0  0  0  0
    1.9523    3.6207  -19.1761 H   0  0  0  0  0  0  0  0  0  0  0  0
    2.7814    3.9729  -17.6967 H   0  0  0  0  0  0  0  0  0  0  0  0
  1  2  1  0  0  0  0
  1  3  2  0  0  0  0
  2 10  2  0  0  0  0
  3 12  1  0  0  0  0
  4 10  1  0  0  0  0
  4 12  2  0  0  0  0
  5 13  2  0  0  0  0
  5 14  1  0  0  0  0
  6 13  1  0  0  0  0
  6 15  2  0  0  0  0
  7 11  1  0  0  0  0
  7 24  2  0  0  0  0
  8 11  2  0  0  0  0
  8 25  1  0  0  0  0
  9 24  1  0  0  0  0
  9 25  2  0  0  0  0
 10 11  1  0  0  0  0
 12 18  1  0  0  0  0
 13 18  1  0  0  0  0
 14 19  1  0  0  0  0
 14 26  2  0  0  0  0
 15 23  1  0  0  0  0
 15 26  1  0  0  0  0
 16 18  1  0  0  0  0
 16 27  1  0  0  0  0
 16 30  2  0  0  0  0
 17 27  1  0  0  0  0
 17 28  2  0  0  0  0
 17 29  1  0  0  0  0
 18 28  1  0  0  0  0
 20 23  1  0  0  0  0
 21 23  1  0  0  0  0
 22 27  1  0  0  0  0
  1 31  1  0  0  0  0
  2 32  1  0  0  0  0
  3 33  1  0  0  0  0
  4 34  1  0  0  0  0
  5 35  1  0  0  0  0
  6 36  1  0  0  0  0
  7 37  1  0  0  0  0
  8 38  1  0  0  0  0
  9 39  1  0  0  0  0
 19 40  1  0  0  0  0
 19 41  1  0  0  0  0
 19 42  1  0  0  0  0
 20 43  1  0  0  0  0
 20 44  1  0  0  0  0
 20 45  1  0  0  0  0
 21 46  1  0  0  0  0
 21 47  1  0  0  0  0
 21 48  1  0  0  0  0
 22 49  1  0  0  0  0
 22 50  1  0  0  0  0
 22 51  1  0  0  0  0
 23 52  1  0  0  0  0
 28 53  1  0  0  0  0
 29 54  1  0  0  0  0
 29 55  1  0  0  0  0
M  CHG  1  28   1
M  END
> <OMEGA_C>
5FzRQNSWEr9LUbXB13rCQPTjxb9sGK7BAqjLQIfGSz+MGbPBWmmmQAKjWj5SlqLBWFfmQGj8i0Ce
CK/BUFakQCA5eEByTrjBuFO3QPWQUMDEJprBBQJpQIfIA8CrX5jBsl2BQL6lgMA0uo7BtcOsQJfS
k7+CtqTBbWKdQBOZCsDJDp3BdC+2QCftmT++qanBsBG/QDb0akC+Xa/Bj77wQGnXqECrU7fBY66w
QFxNmUDHWcDBaOjHQI/VOkCJ7JvBFkOAQKvNVUBE+5nBDF6xQF1zK0DkjqbBm3QMQYqxw0BzkLbB
WIutQAgtk0AJTtTBqseFQOphzkBJ+srBKrmuQBl0ZEAtfYnBeIaUQFJ8n0BmJMrBBhWpQDI0hcBd
9pLBIu5NQCWpP8B2XJHBP/rVQMA2r0B+qL/BzX6oQKRKWEAcCJXBFi+EQG5DPEAQ76PBlVAzQLBC
a0AKNpXBVvLsQMivKEBlmJnBDz3hQEVqYL+xmLzB6q/HQJUAJsCpvK/Bv67XQDPlxD/jm7jBoUuV
QGcYAz+weJvBBEL8QP0ch0AZd6jBIn+GQO/KVUCN/rjBXajWQDjyV8D7rZ3BI/Q/QA8rnb+aZZrB
sJxsQMQfmMB+BYnBOygNQfvg2UAsY73BMT8MQZIN1kCJDq/B5pEaQfyrrkAHsbbBSwiZQOW0l0C1
XdvB4RXKQOyUp0CRA9XB6mS3QJ7jYkCdytPBPOxiQHJP0kCfGNLBr9xmQOH81kBZyMPBy+qhQJxc
40AXpsvBwueQQKNQfEAU44XBa263QJQBJ0B9yYXB74LIQKeSiUC0JIjBymdwQH/CikBZd8nBCaFX
QAQtNUDhCqnB5uT5P4a5Z0CeaJnBowIyQJ9EfkDkko3BDYDUQEN4CL+Kz7TBrD3GQJQsw79bq63B
AbDLQDbHUj8uyrLBgMKkQEyGQT7UpqLBhtmgQOHHeEAoXLjBHhnhQO52i0DEW67B1zC6QN7kUcDl
K5rBF2xuQElRBsAK/5fBQTGFQBg3gsA1l47BZEKuQCsslb+ni6TBf8OfQGIlDMC245zBVIyzQFcA
mT8Dq6nB6EW6QLRAakBmK6/BI/iuQGDwmUBeNMDBF1bsQOrUqUAiFbbBdhbEQAc4OEAq0pvB6lB6
QDJLV0Ap1JnBi+2sQBL8KUDqeKbBYYuTQNIjo0Cb7MnBMAQHQevh8kDMZrXBTXEbQQMks0BgobzB
RsSsQMOaaECfh4nBcdIKQSFnwkC2dLTBnpysQD9ThsBIBZPBa+JUQATPQsAS/JDBJ7DTQF1isECT
3L7BeHKkQHRSTUCUlJTByLp/QD3JOUCLp6PBAncwQN88eEDFRJXBl3XpQGKRJ0CBoZnBQkfmQBBg
UL/z3rvBdajNQK0EJMDoK6/BEFjXQOiLyj+FM7jBqOyRQB0G7T5Av5vBwPGCQEwgV0BLY7nB2WX2
QPYshUAUvafBNlzZQMZaWMCv0J3BDKZEQBSior9f3ZnBOVd1QEwSmsBw64jBIKSiQPFlvEDmwM7B
wWeQQI3jhUCVwc7Bsk5nQDnPrUDxUsfB9jYWQQ/7AUE+MbTBVa8AQWNO+kBgZr3Bxdf2QKwO/UAT
Sq/BJnYqQdvmxEDvebvBRWYeQQ67kEAFg7vB6WMVQU3UuEA4xcTB6jeOQC6OdUDrd4XBxPi9QKCY
NUDvQIXBhFrAQGSMkUD+lonBUOwQQd6Ru0BYYazB2ORNQHSPL0AigqjBW6L0Pwq1ekCshZnBv1Ux
QHbEhkCwuY3BtyTVQABmBr+SpbTB1qrGQLQvwb8Vd63BZa7MQGD0VT+vsLLBW+ClQORkYz4VfKLB
aDWfQAZse0CBVbjBkZviQLb+ikCDiK/BOmK5QFE0UcDZAZrB9vltQMB/A8CA6pfBj4GDQLRYgcBX
mo7Blt2uQHnFkb+PV6TBiKyfQPdRCsCGuJzB7Mi0QM+QnD+4kqnBdK26QC0gbECDi6/BDSisQIAs
mkDuh8DB3Y7tQFuEp0Aa5LfBG5TFQAdwPEAc+pvB8sF7QLfmUkA0lZnB2i6uQDiaLEDokKbBo1aO
QN1WpEAKuMnBqh0cQcBLsEB0e6/BDnQHQUo38EAx1bXBEM+tQL8zZEDPWYnBzN0LQSxfwEAF37fB
YAqrQFD1hcDd75LBXNVSQOgGQMAAAJHBZDnSQL2YrkBzF8DBgMSlQJhBTEC6ipTBeBWBQCObO0Bj
p6PB1yEwQDlva0BRp5TB2z/rQJrQLUCo5JnBmdbmQGWeUL9XsrvBm8jNQOAyI8D1767BLXLYQMMd
yz9kKLjBfViTQNR1AT++jZvBLYWAQADYW0AdyrjBjf34QPw9hUDvG6nBl53YQLKRWMAXl53Bjz9F
QBVYm7+yxpnBZrBwQCA2mcDcAonBsEadQM5bvED19M7BnQGIQCIFh0D4Us7ByRJgQIkGsUC9jsbB
dcsqQUCgw0Bd86/BhCQVQfM8s0Ccb6fBtfwfQfSOjkChFLHBB6kWQfH3AEGG07XBbwf6QFzJ/EDG
LrzBNw//QOcR9EDKCK7BISCPQDwKbUCgLoXBODPAQK42MUAsZIXB6SHAQKMjkED+GYnBBzgTQQc7
vUDt07/B6ahQQNv3NEDAp6jBf/HyP3UxbEBS0JjBc0EwQChefEBO8IzBKzTUQAu8DL962rTBm9fF
QCuVxL91ra3BIGbLQEzXTj/q5LLB7PKjQDvUPT7IzKLBA4GhQHd/d0AtqLjBVmfgQIZAjECBQq7B
Q6VtQCdVB8C7DpjBNKG6QKxlUMBI9ZnB0qSFQF0YgsD9do7ByLatQHK6lb8imKTB7ZWfQEQPDMBO
2pzB1PKyQI7Vlz8U16nB5k+6QFy2aUD1WK/B8Y2vQNPsmUDrXMDB4UXrQFJ7q0DPzLXBvynEQCbZ
N0B2FpzBdop7QAMkW0BnD5rBBLqsQEyIKUAtq6bB3KWUQPf0okC9LsrBR0QHQSIh9EByvbbBKQkc
QQdNsEDjlbrBSbKtQHhPaUBh04nBgRAKQf+ExEC477PBM7FUQD7XQ8BTA5HB0WCtQNyBhcClwJLB
S3TTQOJmsUCQv77BkoCmQOr2XEA/V5XBvt5/QCS+OkA6wqPBhoowQARAdkCJMZXB4YzoQKENIUC/
uZnBKwzmQNn4Vb/P47vBwkrNQHjKJMAIH6/BD03XQLUkyD98TbjBK8aQQD1Q7T779pvBeySEQG1h
VECp4bnBkGj1QCkdhkCPkqfBPRVDQDFkpr9nBprBUgPaQJjhVcDQgp3BjJ92QH//mcDHyIjB4Fmj
QHD8vEAR1M7B28qSQIT1hUBEJs/Bw3xoQKl6rEAYtMfB1GEWQaiZAkHTSbXBYdICQVg590AzOL/B
9S31QE4BAUHJt7HBc/oqQeAuwkCfTrnBdEseQRDUjkCdG7jBhbkXQWNgsUD5HMPBaXaRQOMEhEAq
PYbBxBuzQJjaKkA6/4XBT+rJQOsiiUC7nojB8WEOQeYWwkBSbavBcXRNQL9tL0DAeqjBCbTxP7HF
cUCMGJnBrCQyQJ8jh0AMyI3B/2PPQIyWGr9IgrXBGjrBQKrTyb+mMK7B3AXKQAnjQz/FP7PBSaim
QAqOPD49eaLBc+TnQE3qiEDTQq/BelqjQKXFe0BGu7fBNBFqQM5bBcBHD5jBpHO3QBTnUsChOprB
9ESCQGi/gcD3kY7B2HOsQDaql7+1rKTBZH2dQHCIDMAg95zB7vW1QEQKlj8Dn6nBGX+/QM78aED1
Qa/BCwvyQKJKpkASe7fBKD+vQM17m0BNtb/BX5PHQC86OUDgzZvBFz6AQNeoWEB8NZrBKnKxQOx2
KUAOfKbB5EsNQYmVwEAnybbBs8iCQP8GfkA1287BJLifQAe/yUCVGtDBqKStQHPbZUDqiInBfcGO
QCgep0DCWcjB6stPQFNUQcBdApHBR5mpQL11hsDEA5PBVQzWQAParkCRcb/BmyaoQOBpWUDpGJXB
9iaEQAwkOkCs7qPB4aozQNBTc0DEwpXBzFLsQLolJkB6UJnBwnLeQGOYaL/P5LzB2kPGQK/6J8DZ
26/BOTrVQGHkwD+P3rjB01aWQBC39z6bPpvBetT+QOocgkCvBqnBOYWEQCC1XEDNH7jBOwdBQMKj
n79i8ZnB5X3WQDB0WsCo6J3BjQJvQHtQmcAn2ojBHIsNQa822ECdTr3BwdINQYRH0UADC6/BVkUb
QWpgq0DSf7fBpsBWQFOrh0DnD9XBraufQBGuY0ALqNLB7IRpQNG/TUAPf8nBziiHQN7q0EDGJdbB
WkenQJ395kDflcvBssy8QB34vUDwF9TBlv2PQJQNgECIHIbB8+m0QHUOKEB6u4XBzSbIQMlciUDg
GIjB61ljQJBqs0DidcTBwHlXQI6dL0AP76jB2VT7P0/ib0BgCJrB0kcyQO3/hEAXSI7BLyTVQOSF
B78Wj7TBRWrGQDZDwb+iYa3BTsPMQBsGVT/TobLBdoOlQAUkaD47dqLBODmfQClMe0CcWbjB4q7i
QPbvikCWj6/BXG9sQNDvBMAJFpjBEre5QEByT8DwwZnB7Y6DQA5/gcDylo7BA3KuQHpRkb8XTKTB
IlyfQFwNCsB1q5zByLK0QGGinD/NjanBBr66QNMEbEC1kq/BsbSrQCjhmkBga8DBJ8HtQFoPp0A0
/rfBgt/FQB02PUAvEJzB+sp8QD34VUBQrJnB5kquQO6wLEArlqbBJR+PQGHGokDb+snBJRYdQZYx
rEBckrDBfv8HQZaW7kBGyLTBuEKuQDYKZEBncInBpvwLQQCyv0DNBrjBdatRQA/NQcDYL5HB1omr
QOA9hcCbtpLBvzbSQPZ8rkBfIMDBmCOnQDzmWkCVApXBMlmBQPgxPECApqPBn04wQEP4aEDvkpTB
f9TqQKGiKUDMz5nBdfXmQJKcUr+alLvB+nfNQFBNI8B6067BVbjYQCdeyj/TF7jBPduSQGWCAz+b
j5vBS92AQFGOWkCc5LjBO+/4QNF+hUBqF6nBI7lCQCpyoL/7GJrBflPZQMhnVcBjK53BUBdxQFx2
mcCqAYnBujOfQA+xuEAcks/BQIWIQI08hECCCM7B2axhQEMisUBWSsfBccsrQb9zv0D9/bDByxMX
QYAArED5TKjB95IgQTk3i0BiG7PBnz4XQf4VAEHa0bTBacP5QA54/UBWgLrBegMBQYKb70B9tazB
+waRQKTBfEAqooXBVEy2QAlKJUAq/oXB6cvIQPVziEBfCIjBsV0SQV56v0BgOsDB9+hQQNwzNEC4
k6jBn93xP4ZYY0DihZjBP4UwQOVLfECP8ozBB6TOQNLQF78Ph7XBFLPAQBe2x78XJa7BNETJQJbL
Rj8qU7PBsuilQCugVT6NhqLB7OnlQAk+jUAwla7BsuymQOoDdEAwrLjBBd1qQPi1AsD7tJfBuuu2
QEx0UsAXV5rBNlWCQFoMgcB5dI7B9wSsQJDMlL+woaTBVFqdQEzuCsCZ2pzB/yO1QMSimD83uanB
js6/QKMVakDAX6/B9BDxQD23qUC347bBfIqzQF1Ml0BitsDB+xHHQFc5OkCX8pvB8yJ/QIThVUBe
JprBgPewQG0cK0CVoKbBXH4LQT9Mx0CTkLXBXe6hQNssxkA1xNDBdoFTQM5+lUAWXsnBMqqtQGuF
ZUAsqInBV1maQM2TmkC+MsvBCMRQQNPBPsC4qJDBTy2pQC1HhsBYH5PBazDYQGUbrkAkp7/BxNWn
QBnqWkAvPJXB8MqDQI+IPUB8JaTBH2IxQPyFZ0CDQ5XBuMjrQIaZJkAufZnBXIndQPISZ7+B67zB
jdTFQGP6JsBxwq/BZ4bUQCvMwT9z+bjBWGiVQBs1Az98VZvBX1r6QAj0iUAYqqfBnhWKQEjKTkDg
rbnBMn1CQLONmL+MZ5nBPJHVQHHNWsDwMZ7B5D1vQNasmMAPv4jBWEwMQdZb3UAEabzBmbEJQa3E
2UC5IK7BdUkaQXNJtECOMLXBq26PQId1x0ARP9jBWJKXQHsy4ECsb8vBYS/EQGTbyUBiktLBlswx
QAQLmEAoEdHBZZBGQN8DbEA1yMXBfeU8QAHQrkAu8sPBIV2QQEJIgEBnJIbBe1W0QCvoJkAA/4XB
Sq3IQC+EiEDGJ4jBDiClQNz8gEBmm9DBo1dXQO83OEByXKnBbNT1P4r0YUD1Z5nBns8vQK3OeUCD
mY3BHm7kQHh3Ab/l0LHBP3LLQANjwb+3A63Bcc7cQCItWT/Naa/BuFCjQIGsRT6uT6PBuB7cQF0M
lED8P67BBvGnQBWzW0Ay37jBlvCIQIX1XMBqXqXBigp+QItLAMCaFZbBSP5AQFdOhMBFnpbBwO6q
QEtmlb+qoaXBMeqQQFO+DcDsVKDBWUy7QDIgmz+5VajBnya9QMenZkCjAq/BtVflQJ5trUD6P7fB
Wj2yQE+2iEAvlcHBombJQOfEQ0D3O5vBtSOBQLw0VkC585jBNW+yQMnDK0AmkaXByesCQbEP0UCy
QrbBXaa7QLy0cED0J9XBmrqBQIXCq0BxBs/BWmyxQJuCfEBLSonBjiybQBjjgkAVNszB17hhQG9+
jMD0dKDBi2VOQJ3GPcDXZJHBmlfQQEnKp0A1ncDB8uOpQI21Y0ABf5TB+/KEQACeOUBuz6LB0G00
QIBoZUBi6JPBiMfvQCd/PUAYUJnBw4P9QKgpRr+mW7fB3xrRQIMPI8B6+K7B9ZDwQPKhzj/++bLB
NsiKQPjr6j4DnJ3Bw6nsQC2TmUB+yqbBafGPQDt4KkAcwrnBTSmWQJykacBIMa3BnXKEQM/fiL+L
+5HBSqIaQI+fnMC+yJLBHe0DQYyR4kDa4L3BSPz7QFYj50Bd3a/BHasSQY9mw0DeULTB65aqQG90
aEC0yNzB58nSQFa2kkAS5tXBWLPMQKY9NUDOJtPBMGZiQKY3p0ANttbByA1UQBYkskC+t8jBTdiX
QPIHx0DZpc/Bl16TQFLYiUDXvYXBoPS8QBm4REBow4TB3ZXJQB/Tl0Di/YjBhZSEQO8ZUEACfcvB
9tNYQBa+LkBQw6fBhCr7P6mQWkAzzZfBQEozQA4ve0DrYozB

> <OMEGA_E>
UHBjPvBGaT7Apm8+4AB1PtBseD4oyXo+dLaEPqCeKz8=

> <OMEGA_NBR>
     52191

$$$$
50213417
  -OEChem-04172616093D

 52 55  0     1  0  0  0  0  0999 V2000
    6.5154   -0.5890  -22.6495 C   0  0  0  0  0  0  0  0  0  0  0  0
    6.0576   -1.5672  -21.7482 C   0  0  0  0  0  0  0  0  0  0  0  0
    6.3498    0.7782  -22.3576 C   0  0  0  0  0  0  0  0  0  0  0  0
    5.2160    0.1852  -20.2805 C   0  0  0  0  0  0  0  0  0  0  0  0
    7.1852    4.3341  -21.8794 C   0  0  0  0  0  0  0  0  0  0  0  0
    5.0890    3.8370  -22.9727 C   0  0  0  0  0  0  0  0  0  0  0  0
    3.6490   -2.0783  -19.0098 C   0  0  0  0  0  0  0  0  0  0  0  0
    5.7207   -3.3004  -19.2644 C   0  0  0  0  0  0  0  0  0  0  0  0
    4.0387   -4.0560  -17.8281 C   0  0  0  0  0  0  0  0  0  0  0  0
    5.4003   -1.1812  -20.5617 C   0  0  0  0  0  0  0  0  0  0  0  0
    4.9194   -2.1946  -19.6090 C   0  0  0  0  0  0  0  0  0  0  0  0
    5.7003    1.1789  -21.1630 C   0  0  0  0  0  0  0  0  0  0  0  0
    5.9535    3.6387  -21.8783 C   0  0  0  0  0  0  0  0  0  0  0  0
    7.4848    5.2205  -22.9370 C   0  0  0  0  0  0  0  0  0  0  0  0
    5.4422    4.7328  -23.9986 C   0  0  0  0  0  0  0  0  0  0  0  0
    6.2505    2.9025  -19.4378 C   0  0  0  0  0  0  0  0  0  0  0  0
    4.0056    3.2795  -19.1853 C   0  0  0  0  0  0  0  0  0  0  0  0
    5.5458    2.6532  -20.7674 C   0  0  2  0  0  0  0  0  0  0  0  0
    8.7488    6.0521  -22.8841 C   0  0  0  0  0  0  0  0  0  0  0  0
    4.9814    5.9113  -26.2145 C   0  0  0  0  0  0  0  0  0  0  0  0
    5.4655    3.5778  -17.1374 C   0  0  0  0  0  0  0  0  0  0  0  0
    4.4567    4.9449  -25.1370 C   0  0  0  0  0  0  0  0  0  0  0  0
    3.2235   -3.0167  -18.1378 N   0  0  0  0  0  0  0  0  0  0  0  0
    5.2726   -4.2084  -18.3715 N   0  0  0  0  0  0  0  0  0  0  0  0
    6.6171    5.4110  -23.9583 N   0  0  0  0  0  0  0  0  0  0  0  0
    5.2386    3.1695  -18.5294 N   0  0  0  0  0  0  0  0  0  0  0  0
    4.1305    2.9020  -20.4352 N   0  3  0  0  0  0  0  0  0  0  0  0
    2.8119    3.6860  -18.6083 N   0  0  0  0  0  0  0  0  0  0  0  0
    7.4344    2.7225  -19.1728 O   0  0  0  0  0  0  0  0  0  0  0  0
    6.9959   -0.8881  -23.5693 H   0  0  0  0  0  0  0  0  0  0  0  0
    6.2096   -2.6143  -21.9649 H   0  0  0  0  0  0  0  0  0  0  0  0
    6.7187    1.5241  -23.0460 H   0  0  0  0  0  0  0  0  0  0  0  0
    4.6982    0.4789  -19.3795 H   0  0  0  0  0  0  0  0  0  0  0  0
    7.8922    4.1880  -21.0762 H   0  0  0  0  0  0  0  0  0  0  0  0
    4.1532    3.3004  -23.0244 H   0  0  0  0  0  0  0  0  0  0  0  0
    3.0151   -1.2372  -19.2487 H   0  0  0  0  0  0  0  0  0  0  0  0
    6.6947   -3.4221  -19.7150 H   0  0  0  0  0  0  0  0  0  0  0  0
    3.6908   -4.7930  -17.1194 H   0  0  0  0  0  0  0  0  0  0  0  0
    8.7748    6.7359  -23.7454 H   0  0  0  0  0  0  0  0  0  0  0  0
    8.7647    6.6360  -21.9519 H   0  0  0  0  0  0  0  0  0  0  0  0
    9.6257    5.3887  -22.9162 H   0  0  0  0  0  0  0  0  0  0  0  0
    4.2266    6.0227  -27.0068 H   0  0  0  0  0  0  0  0  0  0  0  0
    5.1832    6.8924  -25.7599 H   0  0  0  0  0  0  0  0  0  0  0  0
    5.9098    5.5095  -26.6465 H   0  0  0  0  0  0  0  0  0  0  0  0
    4.4978    3.7255  -16.6357 H   0  0  0  0  0  0  0  0  0  0  0  0
    6.0342    2.7952  -16.6139 H   0  0  0  0  0  0  0  0  0  0  0  0
    6.0349    4.5188  -17.1196 H   0  0  0  0  0  0  0  0  0  0  0  0
    4.2511    3.9725  -25.6084 H   0  0  0  0  0  0  0  0  0  0  0  0
    3.5245    5.3555  -24.7218 H   0  0  0  0  0  0  0  0  0  0  0  0
    3.3698    2.7971  -21.0757 H   0  0  0  0  0  0  0  0  0  0  0  0
    1.9736    3.7039  -19.1533 H   0  0  0  0  0  0  0  0  0  0  0  0
    2.7893    3.9613  -17.6472 H   0  0  0  0  0  0  0  0  0  0  0  0
  1  2  1  0  0  0  0
  1  3  2  0  0  0  0
  2 10  2  0  0  0  0
  3 12  1  0  0  0  0
  4 10  1  0  0  0  0
  4 12  2  0  0  0  0
  5 13  1  0  0  0  0
  5 14  2  0  0  0  0
  6 13  2  0  0  0  0
  6 15  1  0  0  0  0
  7 11  1  0  0  0  0
  7 23  2  0  0  0  0
  8 11  2  0  0  0  0
  8 24  1  0  0  0  0
  9 23  1  0  0  0  0
  9 24  2  0  0  0  0
 10 11  1  0  0  0  0
 12 18  1  0  0  0  0
 13 18  1  0  0  0  0
 14 19  1  0  0  0  0
 14 25  1  0  0  0  0
 15 22  1  0  0  0  0
 15 25  2  0  0  0  0
 16 18  1  0  0  0  0
 16 26  1  0  0  0  0
 16 29  2  0  0  0  0
 17 26  1  0  0  0  0
 17 27  2  0  0  0  0
 17 28  1  0  0  0  0
 18 27  1  0  0  0  0
 20 22  1  0  0  0  0
 21 26  1  0  0  0  0
  1 30  1  0  0  0  0
  2 31  1  0  0  0  0
  3 32  1  0  0  0  0
  4 33  1  0  0  0  0
  5 34  1  0  0  0  0
  6 35  1  0  0  0  0
  7 36  1  0  0  0  0
  8 37  1  0  0  0  0
  9 38  1  0  0  0  0
 19 39  1  0  0  0  0
 19 40  1  0  0  0  0
 19 41  1  0  0  0  0
 20 42  1  0  0  0  0
 20 43  1  0  0  0  0
 20 44  1  0  0  0  0
 21 45  1  0  0  0  0
 21 46  1  0  0  0  0
 21 47  1  0  0  0  0
 22 48  1  0  0  0  0
 22 49  1  0  0  0  0
 27 50  1  0  0  0  0
 28 51  1  0  0  0  0
 28 52  1  0  0  0  0
M  CHG  1  27   1
M  END
> <OMEGA_C>
CH7QQHrJFr8jMrXB79fBQDuayL9E/K3BXDHLQIw3Rz9d3LLBn+mmQEahPT6QPqLB/+zlQPewikAC
Ca/BL9miQOyRdUAvyLfBx4lpQBMDBcAnFJjBWBC3QB06U8COHZrBoDyBQAfLgcALoI7BOs+sQMYw
l79xfqTBnWudQC90DMBE35zBJWm2QJjllj/ITanB7oK+QDngaEDOBq/BqIPvQAUOp0DyfrfBjSau
QCxzl0A8/b/BTwTIQNrCOUCGgJvBES6AQKDjUUCVe5nB0naxQMjNKUCYI6bBNPsLQdqqwUCVErfB
xWefQFkpvUBCt9HBfuWuQGD7ZEBoGYnBdJ2OQGE8nkCoGMnB101OQDMRQcBEGpHBZ7moQFSrhsDp
+JLBhr/TQO0mrUCJqr/B2qKnQFjYSkBEPJTBdi2EQNm5OUBbe6PB8PUzQAnoa0DU3ZTBUubtQMg9
LkDLYZnBn97fQONbY7/ejbzBDrXGQCBQJ8AbuK/Bb//WQHwWwz81XrjBeVeWQAE19T4iCZvB8Yz8
QGkEhkD9m6jBAeeEQJ85U0AMMrjBrfdAQIBcnr9t/ZnBCjvWQKQDW8BHuJ3BWTZsQFdgmcCY9IjB
pGUMQS6M10B89r3BKjwMQdVZ1ECXna/BxwIaQT5wrEBJVLfBJECHQN65wED8DdjBpNylQOqO3EBK
FM7B9xy9QKJNsEAbLNXB+u2PQMxtbkDZFYXBWhjBQBHlMkA06YTB3h3BQGWakEAL9YjBMwmIQF89
fkAV3szBwJFhQPdfq0BDxsXBlqpXQIkDM0Aam6jBgKD8P2oMbUAEOpnBkYQyQFuGfUCALY3BfSbQ
QHQJGr9xLrXBxezBQOneyb/15a3BTB3JQE90Qz9uG7PBa+qjQKwjMD4jmqLB6BWgQB3eeEC7WLjB
pQvkQFyih0AZk6/BroVrQMvxBsCdk5fBVDe4QFBwU8A2L5rBTFCEQN+tgsAYQ47BDbarQMvFmL/G
j6TBw7ydQBNbDcDCvpzB3NqyQMIFlT/VxKnB+1m7QDocaEDOja/BXtutQElRmEAilcDBr9HvQPn+
okDJBbjBZ+fFQNUHN0CtJZzBEm9+QKvvVkCYyJnBGuytQCDtKEAzqKbB8yyQQDMfo0D3wsnBNIgL
QWNV50DQgrTBtPavQI54ZkDCsonBhqcNQTtJuEDj37fBug1TQO5hQ8BJfJDBQ0CrQLz9hsCL75LB
jLjUQKRSq0DKMsDBfMWmQF9uS0DdtpTBRCmBQBFeOkAiqKPBnac1QAzReECfDpXBt13rQLu4JUDb
KJrB74vgQAPmZr/eZbzBXwTIQMjSJ8B/dK/B57fUQFsPwT+eprjBmlOSQHSG7j7Oi5vBNeiAQGk+
W0C/xbjBNCn6QNOfgUCDG6nBQMVBQFkxo7/JSpnBeffWQBRSWsBjCJ7BsW50QA1/msBriIjBH9Cf
QF9hukD2Fc/BvbiIQOPXhUDzRs7Bk9BkQCH9sEDml8bBxHAbQVxj9kBDcLTBBSYBQRo9+EAFObrB
3XoEQeAY6UDadazBBryRQJLRckBPdoXBR7zBQOiVM0DBi4XBn1HDQKGhkEC91YnBsRIYQTaAp0Ad
KLLB2b0UQXCktkBI67/BqsxPQE20MUBbcqjB5VD+P5XBfEAJOZnBS6k3QP2nhkCLe43B02HRQE78
Fr/wFLXB4V/DQPdDyL+awq3BncTJQIKCRj8yGrPBlrakQLTrPT4Il6LBHiKgQNZNe0AEW7jBoHPk
QChyh0ASqa/BHry3QFmyU8AiJprBo4hsQAjYA8BAjJfBriCDQLxwgcDoO47BB9ysQJf6lr8ueaTB
+DWeQB0nDMAosZzBnUmzQB6nlj+0zKnB5He7QMUSaUA8nK/BNl+uQCNPmUCOm8DBR3PwQCgBo0Am
CbjBkRDGQFvSN0A+NJzBINx9QPBEU0DAnZnBKv6tQGTMKUDstqbBwhaRQD9jpEBY2snB0YgLQUvy
50BC8rTBsQawQJznYkC0lInBK/ENQUhZuECIvrfBTeypQOjRhsCm6pLBTXRSQJmLP8DQdZDBl4LV
QAy7q0A2N8DBFO2mQI4hSkBOsJTByjmBQOEGO0Ceq6PBYb0zQJH1bkAsl5TB74rrQI9qJkCePprB
Zg/iQCDyY7+9QbzBC93JQBT4JsABQK/BKRnVQDFswj86sbjBXBaTQJWr9T6CipvBh5iAQMgyX0AT
vLjBMan6QEHAgEB4QanBIGXWQBAvXMAG/p3B7xhEQO0Sm78VSZnBSNhwQOzymMB/fojBEj6hQP9A
u0DeL8/BjUKJQNggh0AiVs7Bz/RmQNzSskCGwMbBt2kbQXAc90AawrTBnYwBQVy/90CKBbvB8ugD
QYwW60DODa3B8sCRQH3YbUDGTYXBdgDCQHppL0CkmoXBOibDQO8Aj0BShInBv/QXQQ+mqEAZqrHB
apgVQd9OtUDVob/BIThQQFYYNUBikqjB2Gb5PwZ7cUAyqZjBh1Q1QOIzgEBk5YzBlXnRQFbXF7/Y
DLXBj6PCQAEEyb/3263B1rHLQOIQRj+/ybLB34umQDdqOj42SaLB5tflQBb0ikDG867BnXijQKAc
dEB16rfBJ/e2QAMHVMC4LZrBNhdqQAXyBMAg7pfBpoKBQB3zgcBrjY7Bqd+sQEGwl79ad6TBBHWd
QGDQDMBs2JzBCE22QPdvlj/NUanBPKy+QDWPaEALDa/BGqfvQGQYp0D8crfBNf+uQAF1lkDAJ8DB
krPHQAZ3OUAfg5vBstF/QLD1UkCio5nB+l6xQImlKUDMLKbBX68LQSK5wkCi2bbBt1SeQBqrvkCK
atHB7ESuQKSQZkAdNInBMguRQAPAmkA1rcnBBMOoQOEJh8AuA5PBDxlPQHj2QMB87pDBHnDUQGJm
rEB1xb/BwzSnQD+4S0AEUpTBFhOEQNkJOkBDmqPBEVYzQA3QbUA0H5XBDmXtQKRwLEC/UJnBeV7h
QIaLZL+TVrzBo+rHQMt+J8Dnh6/B7pnXQDtzwj8qSbjB3HOVQPPW8z69J5vBqxn8QIPHhkDlbKjB
Hq+FQFREUUCSY7jB6O/VQKkwXMC7353Bz7JBQKagnb85xJnBofBsQDCHmcDT3ojBLxsMQbWC2EA2
wr3BS2YLQWGH1UCiaa/BH/wZQaM0rkD08LbBv4KHQNknwEAkG9jBS2aeQD1y3UBcJc3Ba5e+QPoV
uEA/h9TB5TuPQNblcEDiQYXBIhzAQNp1NEBd7ITBu8TAQP45kUCEGYnB59aQQPOJeEDrE87BjUth
QDyhoUAIssbBuKlXQC8aM0B8wKjBDeb7PyT+bkAPiJnB2JExQDT/f0BsdI3B

> <OMEGA_E>
YI/8PRjVAD54wwM+AEr3PQ==

> <OMEGA_NBR>
     55981

$$$$
50215493
  -OEChem-04172616093D

 44 47  0     1  0  0  0  0  0999 V2000
    6.5205   -0.5445  -22.6637 C   0  0  0  0  0  0  0  0  0  0  0  0
    5.2837   -4.1724  -18.3427 C   0  0  0  0  0  0  0  0  0  0  0  0
    6.0778   -1.5095  -21.7419 C   0  0  0  0  0  0  0  0  0  0  0  0
    5.7447   -3.2202  -19.2701 C   0  0  0  0  0  0  0  0  0  0  0  0
    6.3275    0.8252  -22.4031 C   0  0  0  0  0  0  0  0  0  0  0  0
    4.0188   -4.0174  -17.7421 C   0  0  0  0  0  0  0  0  0  0  0  0
    5.2069    0.2594  -20.3135 C   0  0  0  0  0  0  0  0  0  0  0  0
    3.6845   -1.9400  -18.9719 C   0  0  0  0  0  0  0  0  0  0  0  0
    5.0695    3.9267  -23.0419 C   0  0  0  0  0  0  0  0  0  0  0  0
    7.1972    4.3098  -21.9604 C   0  0  0  0  0  0  0  0  0  0  0  0
    6.6647    5.3516  -23.9819 C   0  0  0  0  0  0  0  0  0  0  0  0
    5.4158   -1.1070  -20.5633 C   0  0  0  0  0  0  0  0  0  0  0  0
    4.9452   -2.1006  -19.5890 C   0  0  0  0  0  0  0  0  0  0  0  0
    5.6674    1.2381  -21.2189 C   0  0  0  0  0  0  0  0  0  0  0  0
    5.9279    3.6863  -21.9456 C   0  0  0  0  0  0  0  0  0  0  0  0
    3.2184   -2.9026  -18.0605 C   0  0  0  0  0  0  0  0  0  0  0  0
    6.2419    2.9532  -19.5190 C   0  0  0  0  0  0  0  0  0  0  0  0
    4.0045    3.3440  -19.2226 C   0  0  0  0  0  0  0  0  0  0  0  0
    5.5095    2.7100  -20.8341 C   0  0  2  0  0  0  0  0  0  0  0  0
    5.4954    3.5479  -17.1875 C   0  0  0  0  0  0  0  0  0  0  0  0
    5.4473    4.7572  -24.0369 N   0  0  0  0  0  0  0  0  0  0  0  0
    7.5417    5.1339  -22.9717 N   0  0  0  0  0  0  0  0  0  0  0  0
    5.2758    3.4002  -18.6328 N   0  0  0  0  0  0  0  0  0  0  0  0
    4.1038    2.9718  -20.4780 N   0  3  0  0  0  0  0  0  0  0  0  0
    2.8075    3.6394  -18.5874 N   0  0  0  0  0  0  0  0  0  0  0  0
    7.4025    2.6607  -19.2489 O   0  0  0  0  0  0  0  0  0  0  0  0
    1.6402   -2.7185  -17.3396 Cl  0  0  0  0  0  0  0  0  0  0  0  0
    7.0103   -0.8553  -23.5747 H   0  0  0  0  0  0  0  0  0  0  0  0
    5.9000   -5.0229  -18.0910 H   0  0  0  0  0  0  0  0  0  0  0  0
    6.2446   -2.5587  -21.9363 H   0  0  0  0  0  0  0  0  0  0  0  0
    6.7099   -3.3455  -19.7382 H   0  0  0  0  0  0  0  0  0  0  0  0
    6.6832    1.5630  -23.1071 H   0  0  0  0  0  0  0  0  0  0  0  0
    3.6624   -4.7539  -17.0371 H   0  0  0  0  0  0  0  0  0  0  0  0
    4.6872    0.5644  -19.4172 H   0  0  0  0  0  0  0  0  0  0  0  0
    3.0781   -1.0762  -19.2010 H   0  0  0  0  0  0  0  0  0  0  0  0
    4.1049    3.4429  -23.0842 H   0  0  0  0  0  0  0  0  0  0  0  0
    7.8952    4.1252  -21.1572 H   0  0  0  0  0  0  0  0  0  0  0  0
    6.9474    6.0266  -24.7761 H   0  0  0  0  0  0  0  0  0  0  0  0
    4.5750    3.9179  -16.7122 H   0  0  0  0  0  0  0  0  0  0  0  0
    5.7641    2.5724  -16.7561 H   0  0  0  0  0  0  0  0  0  0  0  0
    6.3119    4.2638  -17.0121 H   0  0  0  0  0  0  0  0  0  0  0  0
    3.3314    2.8788  -21.1063 H   0  0  0  0  0  0  0  0  0  0  0  0
    1.9455    3.5746  -19.0900 H   0  0  0  0  0  0  0  0  0  0  0  0
    2.8065    3.9172  -17.6267 H   0  0  0  0  0  0  0  0  0  0  0  0
  1  3  1  0  0  0  0
  1  5  2  0  0  0  0
  2  4  2  0  0  0  0
  2  6  1  0  0  0  0
  3 12  2  0  0  0  0
  4 13  1  0  0  0  0
  5 14  1  0  0  0  0
  6 16  2  0  0  0  0
  7 12  1  0  0  0  0
  7 14  2  0  0  0  0
  8 13  2  0  0  0  0
  8 16  1  0  0  0  0
  9 15  1  0  0  0  0
  9 21  2  0  0  0  0
 10 15  2  0  0  0  0
 10 22  1  0  0  0  0
 11 21  1  0  0  0  0
 11 22  2  0  0  0  0
 12 13  1  0  0  0  0
 14 19  1  0  0  0  0
 15 19  1  0  0  0  0
 16 27  1  0  0  0  0
 17 19  1  0  0  0  0
 17 23  1  0  0  0  0
 17 26  2  0  0  0  0
 18 23  1  0  0  0  0
 18 24  2  0  0  0  0
 18 25  1  0  0  0  0
 19 24  1  0  0  0  0
 20 23  1  0  0  0  0
  1 28  1  0  0  0  0
  2 29  1  0  0  0  0
  3 30  1  0  0  0  0
  4 31  1  0  0  0  0
  5 32  1  0  0  0  0
  6 33  1  0  0  0  0
  7 34  1  0  0  0  0
  8 35  1  0  0  0  0
  9 36  1  0  0  0  0
 10 37  1  0  0  0  0
 11 38  1  0  0  0  0
 20 39  1  0  0  0  0
 20 40  1  0  0  0  0
 20 41  1  0  0  0  0
 24 42  1  0  0  0  0
 25 43  1  0  0  0  0
 25 44  1  0  0  0  0
M  CHG  1  24   1
M  END
> <OMEGA_C>
4qfQQBRlC78oT7XBBRSpQHmEhcDXvZLBWX3CQBY4wb9p763By9S3QOsXTsA3KZrB8XrKQEY/Uz+m
ObPBy5mAQOWOgMDk743BjJ6mQObOhD4SgqLBaM5rQBxS+L90xpfBXjmiQGxPe0DlVbjBvk/mQBDq
iUDrrq/BT0XVQP4/q0Df2r/BZ06tQJyzjb+UgaTBSj+eQGBwBsAxtpzBalu1QJV7nj9mwKnB/LC9
QAHsa0CNkK/BmflNQPzDOcDQe5DBDb7HQKkAPUD1JpzB0ySAQHsEVkDax5nBCk6wQGhwLUBGrKbB
GdqvQOcQY0ALgInBaVCuQMM6mEB9S8DBaVXxQAtJpEAhxrfB+dKoQKmdWUDnD5XBl1KDQCEyPkD9
0qPBga4zQHHsaEDwspTBZOHsQJBJKkDW/ZnBq/DRP7P7LcB6t4rBPVTgQAHzWr/mmLzBjcy8QDW7
oMBJupDBwtPHQNXBI8CSfa/B2bfWQPcbVsDH553BnNzVQE0PyD9h27jB+GNqQL4fmMAKTIjBYf2V
QAh7ED98VpvBff9EQEHAib+/m5nB8FqDQORYXEB1rLjBlqX8QIABhED2QanBwlDeQNTZwECDNcbB
SWaSQKu/ekCIsoXBQXO4QP2hJEBmDIbB3PrJQGBxiEDOGIjBfjVVQE8+OECf2ajBtQT5P6fGZEBS
uJjBZZ4zQP+zekCOA43BdF/XQP7WBL9IN7TB3R6iQIt4h8DNbZPBjafGQAzovr9eQa3BkvizQF0B
UcDRRprBUVzQQC0TWT85NbLBIulwQF7qgcBvXI/B9ZKnQBqaiD7WP6LBlnFlQMBj97+Lx5jBM3/d
QNz2ikCoebLB1MuWQHSsbUCpcbjB+anBQHPHo0AuxcLBTKWuQKbEjL9POqTBPWCcQD7vBsBx9pzB
g7q3QH58oD+EQ6nBCt+2QOWKaUBUeLDB/l1BQExvOsDWGJLB4Z/IQBoKRkDygpzByteAQOHrT0AD
LZnBuu+vQALgLkCOq6bBUy6yQPkVXkAaP4nBRyjiQAomokBYkbvBFXWcQERUjkB4YMHBXpOpQGwT
S0DDjpTBNwqDQDToOUBLR6PBPoU2QEssZkDk+ZPBaW7vQH7LQkDQG5vBuZCyPydzLcCNT43BFKzp
QD12Ur/hIbvBBGS0QBGIo8BASpHBDzLMQDqFIsAD0q7Bnb3TQDYbWsBZe53BFc7dQGOZyz8ggbfB
BndVQKnMmcCjJIrBfo6VQLryED+9RpvBw25BQC2Phb/FuJrBlVX3QK5viUDzv6zBx6VyQOqjSkAp
W7fBA6zFQBzytkC+48nB+OmTQHoSXkD5wITBh7HHQPYQLUAz74XBxGPBQDytjkBSlYjBP19TQI+v
MUDQDKjBeRb+PyINZkAO95fB/sk3QJ1XdkC/PIzBfwzIQIZHFr+QR7bBOLmwQGD+g8DfM5LB5qu8
QD0Exb8Ef67BzHa7QM7CS8BeIprBVFvDQEz+ST/pLLTBpcCJQMpQgMA1n4zBWPukQN16gD6tuKLB
gHdxQGZT/r85rZbB3TzxQL3kgUDWh67BELetQJach0CBxbfBmO/oQH0AsUB31bzB7uCqQNWWj78A
r6TBv4yfQEjtBsCcZJzB8puyQIxunD86P6rBLJzFQDXda0CwOa/BcDpbQKykPMAs7o7B7MfGQG5O
NUDMFpzBWIh/QPqqVkDMdZrBBkWxQAoQLUCvCafBF22tQL8vXkARrYnB4gABQZBKn0ATNrXBxru/
QMzRpEDzZ77BE2imQIOdSUBzA5XB05eEQJCnRUBgtKTBmmozQLoUcEDhtZXBMurqQJ45HkBTj5nB
itrxP5uSNcDIXojBOnPUQAW9ab8n6b3BRmLGQIbvncBRZZDBa5LBQIfOJcAZCrDB6xrZQE0qUsAU
gZ7BS47MQPnYwT8mJrrBWG+BQKyMl8C7kobBnd2VQGvBET+SYZvB5yRHQDj7k7/VQJjBq7ICQSxt
ZkB3jKjBFfWMQASPe0BAA7nB5jP2QNHHyUB+3MHBf4iOQHHwa0AC04XBaK68QO9qJ0A9rIXBslTC
QNtMi0AlC4nBxXVaQOPtSEDwJ6rBESP9P96pdkCpJZrB/WUxQA3Re0Ck2Y3B1RnFQM0+DL/7mLbB
0hBgQFcHN8AfHY7BTLG5QIpwwL9/2q7Bdn9zQDwU9b9bGpbBzpPBQDGeUz9LVLTBeUuLQAKKfcBD
bIzB37akQHYGkj4JuaLBgoy5QHNdTMCx4prBG4zyQCdygUDPca7BfoevQCTSh0DG5bfB8/zrQPMR
r0BQGr3B9EOpQN5xi78x4KTBMH+eQII0BcBqkpzBizeyQBLhoD+KP6rBa7LGQO7HbED1Mq/BISaw
QKfzg8BEyJLBWO3GQPK8N0BIC5zBrfR/QO3ZV0BccZrB0JCxQEk/L0DfAKfBXE6tQJVuX0CYponB
OiQCQZq4nUBjRbXBXYjCQGbMo0Cyr77BAsenQBBRV0CxR5XBcAeFQBhPSUAKvqTB/iAyQC5RZ0Aj
dZXBADTqQE0RHUCcUJnB8H/SQIITr8AWlpDB3J/QQKC4Xr8bU77BmE0nQPFaL8AhR4nBu4K9QLOR
I8DGi7DBZzhKQKPXh7/mSpfBPJ7KQEACxz/3S7rB1vGDQMbRlcDIQIbBkMCWQGdcGj9APZvBJorV
QEATVcC81Z/BKQoDQXP5ZUAhTajBJYqOQNyQfUDdIbnBLR76QLLNxkC2S8LBWv6PQPciekAKGobB
NqizQDL8H0AFL4bBHmvIQP0ehUCL9YfBGP9bQHAVT0DZP6rBrkb4P0j6Z0ChwJnBdggwQFrNcUDs
kY3BTVDPQJDqCr+3XbXBb7lQQHLoPcDdRpDBpUbBQMAQwb/j/63B4k1sQHDW/b9TjZfBjXnJQHFE
Uz/JNbPBhqmCQGx2gsD4CY7BNzKmQDG2gz6iZqLB4He4QOKATsBiaZrB3tqiQFSQe0DdSrjBGRjn
QH80iUB/pa/BplzWQATkqkCfzL/BSYmsQNYTjr9tfqTBTDOeQBVmB8C2tJzBBPK0QKRwnj9Kp6nB
FjC+QHGka0AFgq/Bx8KqQEF8hsD2F5PBBKDHQCM/PUClDpzBaSaAQMA5WEBY0JnB5VSwQAKYLUA2
mKbBCLevQJ2mZkDFhYnBKj2vQAE6mEBjQMDBjGXyQAl/o0AcvLfBnMioQJStW0D+EJXBZ2GDQL41
P0B2z6PBOKwzQNo9bEC0zJTB6pLsQEWyKUAf0JnBKWHLQEmBssBic5DBEaLeQL8DWr+xtLzBdTgT
QOLLN8CraIzBlV3GQO+qI8A8na/BDUlEQFg9kL9hMpnBGazUQFc1yD8X27jBECxwQE+ZmsDqcojB
/uSVQAiLDz/9LZvBvy7XQAfrVMBjSp7BtdaDQP0zXUAPpLjBXWv9QIntgkCVPanB4JHfQAGMwEB9
IMbBL12SQEahf0AdzYXB6d63QFeGKECd64XBrhzKQO8AikCFM4jB1mhVQOL4OEAL2KjBCyv5P3UC
aEBT1pjBTIUzQDfnfkC1JY3B+Q3YQPzpXb+JdbfBeI+pQOrTgMA3IZPB6w3IQKAk17/hPa/Bxsy5
QLIsR8DIqZrBL0zSQFpiBj/UE7fBKA6AQMy6dsAxAI/BDJOqQGZYkT6NWKbB0B5vQE5L6b+TrJnB
9aDFQNCVSUCAm5rBwsB4QD7TUUAauKDBd+yNQKw6ZUDgr47B+1CxQOjJjr/qmqbBy+GgQKB8AMAW
Dp7BGRy8QPYUkD9IfK7BDTeoQFWTR0CsMqPBcBpOQERtMMAKSJLBBiqcQMBRSkBIo7fBRuneQFPO
g0D+yLjBO423QDqVKkAMSK7BHOCrQPJ/j0DvdMjBnSe4QDiqWECAipDBlAdgQPffYEA9iJbB3y+2
QDyPgEB9ir3BDErhQOAKVEDxfLDBKEkAQQrbnUAPFbzBSCxwQEaQMkC5F7rBrXrMP+CwJMBOXI3B
D+HoQB8GqL82HL7BI/W8QMZ0m8DOhJDBmi7NQEbjL8B9h6/BGYrZQKZCUMBA453BL/feQHg8kj87
a73BSLZmQI0YksDMUYnBnQWYQJsxOD+D8Z/B30ZJQDRjd7+w/JvB0DrnQOvtPkCxIJzBil9JQBCd
TUDl/KbB3aGDQFpMc0DvoIbBiXnFQE+/pED1VMvBGhSpQI+TZ0B51s3BomKNQO8UoUAHVMjB7d/7
QCsUSkCSNqzB9CIOQd6JnUADFLjB+wr9QE3hsEBEdMLBKkqVQNrAWr9xybHBNb0TQZtcdcCAZaLB
uCG6QKBXzL+cOa/BGw8BQW6ZR8DOCKXB+4+SQG6qAT8hAa/BC6QnQUUrS8AxCKLBGt/ZQEjqxz4j
NqfBCkQWQZRfir/a+qbBNdfsQAVhWkAt6LLBu7mnQJ1bj0CNW7TB+sfgQOMDpEBDRL/Br+3cQGYv
eb8V/anBYSUCQWX83b9OV6fBX3a0QJ98kT8QaanBYxPCQBIJYUDHU6/BG+MoQZob5r/6UaTB29/H
QG4SPEDAn5vBKjKAQMZKV0AswZnB0jqxQM7OJ0AYPKbBZKevQD+Hc0CqpYnBB4H7QHjmhkDAybrB
FWy3QMSEqED8NLzBgLanQDrqUUCyeZTBxhyEQMD3O0DYpKPB7+EzQFKkc0B9U5XBFFzuQGAPPEBv
rJnB2YdBQeSVeb+p5qPBxwJ2QMxbqr8457XBqc0SQZ15nMA2pqDBENi7QOlAKcBQQ7HBDqzjQOI8
aMCTTKXBS+RsQBKLiT+NJbHBYvE1QQRibsCD/5/BoZr0QL+qXz9VVaPBXk0XQRVX1rw4wqjBBPwA
QerUK0DfUK/B9saGQIvKkkAu5bHBBPbsQFp2uEAMiMXBWu2QQBuuf0CwoYXBGx3CQCVnREA9BIXB
Qd3BQAjOl0B9NIrBentXQBiZNUBMxKjBSff8P0MEdEBMvJnBEjwyQAvVg0ACu43BBPLVQFAjkr8x
HLjB0NRuQJxmGcAH043BFO29QLRp+79rR7HB6Hx5QEQ03b8ToJfB/EvXQGBhej5cT7bBWNKMQKg2
Z8DY8ovB8O+nQADQj7tGA6fBGF+sQAReYMCCwJ3BEFZ9QLjOVUCORKLBVIG9QCn0NUABwJfB9BWB
QBCHc0Bj6Y/BlAWoQICSs78GbajBSLaYQGgdEMDriJ/BLL2/QLjSUz+Kyq3BGE2pQJdIN0C74qHB
KK2mQHimhcBy/5PBJJWzQPPuQUDJKrbB9J76QMeEXEBUALPBpFHBQFrQFUBE7KvBaL3cQDyAhUDw
2MTBcNVWQLS0c0CdUJnBalepQGhNVEBG/I7BPN3XQLSXa0Aw27nB0GHuQG5pLkAz0arBEhoSQaYD
eUASc7TBIv2RQBQAN0DUD7vBNrjBQKivtcBqvZHBAVfnQGlVyb8vu77BV8tFQBYm/b/ou4fBUyG8
QKWxQcA/xbLBqvhWQGXcT789JZnB+3DqQANrXz/SdLvB0muJQFaeg8DUVoTBykuVQAvQ3D5noKDB
y+K/QI3HfMB676PB48laQNg7VUA1wKnB7HfdQL1SHEBGBZfB1EBjQG+mhkBI44jBaEH8QKrClEBI
v8XBXyTaQHgHVUDHdcrB6nfDQOEAnUB2lMbBjZMAQWYzHkDBqaTB1V8dQbd9akD4Ea/B89UVQV4N
jkDD37rB

> <OMEGA_E>
+EkUPzqeGj9iXB0/NsMiP5xXEz8jNYc/iMmKPzBOmj8=

> <OMEGA_NBR>
     62465

$$$$
50176747
  -OEChem-04172616093D

 49 52  0     1  0  0  0  0  0999 V2000
    6.5241   -0.6245  -22.6586 C   0  0  0  0  0  0  0  0  0  0  0  0
    6.0853   -1.6094  -21.7565 C   0  0  0  0  0  0  0  0  0  0  0  0
    6.2771    0.7343  -22.3943 C   0  0  0  0  0  0  0  0  0  0  0  0
    5.1175    0.1218  -20.3398 C   0  0  0  0  0  0  0  0  0  0  0  0
    7.1037    4.0108  -22.1238 C   0  0  0  0  0  0  0  0  0  0  0  0
    5.7449   -3.3478  -19.3019 C   0  0  0  0  0  0  0  0  0  0  0  0
    3.6938   -2.1115  -18.9606 C   0  0  0  0  0  0  0  0  0  0  0  0
    4.9081    3.9318  -22.9844 C   0  0  0  0  0  0  0  0  0  0  0  0
    4.1280   -4.0784  -17.7810 C   0  0  0  0  0  0  0  0  0  0  0  0
    5.3770   -1.2358  -20.5939 C   0  0  0  0  0  0  0  0  0  0  0  0
    4.9316   -2.2445  -19.6229 C   0  0  0  0  0  0  0  0  0  0  0  0
    5.5649    1.1187  -21.2271 C   0  0  0  0  0  0  0  0  0  0  0  0
    5.7351    3.5273  -21.9566 C   0  0  0  0  0  0  0  0  0  0  0  0
    7.2807    4.7321  -23.2654 C   0  0  0  0  0  0  0  0  0  0  0  0
    6.1628    2.8589  -19.5581 C   0  0  0  0  0  0  0  0  0  0  0  0
    3.9701    3.3890  -19.2237 C   0  0  0  0  0  0  0  0  0  0  0  0
    8.5800    5.3261  -23.5782 C   0  0  0  0  0  0  0  0  0  0  0  0
    5.3641    2.5807  -20.8302 C   0  0  2  0  0  0  0  0  0  0  0  0
    8.8961    7.5772  -22.5417 C   0  0  0  0  0  0  0  0  0  0  0  0
    5.5618    3.7316  -17.2773 C   0  0  0  0  0  0  0  0  0  0  0  0
    8.6498    6.8218  -23.8571 C   0  0  0  0  0  0  0  0  0  0  0  0
    5.3345   -4.2431  -18.3797 N   0  0  0  0  0  0  0  0  0  0  0  0
    3.3077   -3.0343  -18.0565 N   0  0  0  0  0  0  0  0  0  0  0  0
    5.2247    3.2349  -18.6177 N   0  0  0  0  0  0  0  0  0  0  0  0
    3.9772    2.8359  -20.4164 N   0  3  0  0  0  0  0  0  0  0  0  0
    2.8659    3.9933  -18.6435 N   0  0  0  0  0  0  0  0  0  0  0  0
    7.3498    2.6321  -19.3452 O   0  0  0  0  0  0  0  0  0  0  0  0
    9.5986    4.7450  -23.2160 O   0  0  0  0  0  0  0  0  0  0  0  0
    5.7827    4.8951  -24.1529 S   0  0  0  0  0  0  0  0  0  0  0  0
    7.0517   -0.9120  -23.5560 H   0  0  0  0  0  0  0  0  0  0  0  0
    6.2899   -2.6514  -21.9529 H   0  0  0  0  0  0  0  0  0  0  0  0
    6.6305    1.4888  -23.0817 H   0  0  0  0  0  0  0  0  0  0  0  0
    4.5685    0.4035  -19.4534 H   0  0  0  0  0  0  0  0  0  0  0  0
    7.8944    3.8160  -21.4144 H   0  0  0  0  0  0  0  0  0  0  0  0
    6.6975   -3.4777  -19.7939 H   0  0  0  0  0  0  0  0  0  0  0  0
    3.0540   -1.2690  -19.1780 H   0  0  0  0  0  0  0  0  0  0  0  0
    3.8590    3.6860  -23.0575 H   0  0  0  0  0  0  0  0  0  0  0  0
    3.8074   -4.8100  -17.0541 H   0  0  0  0  0  0  0  0  0  0  0  0
    8.9466    8.6575  -22.7426 H   0  0  0  0  0  0  0  0  0  0  0  0
    8.0726    7.3726  -21.8418 H   0  0  0  0  0  0  0  0  0  0  0  0
    9.8456    7.2420  -22.0988 H   0  0  0  0  0  0  0  0  0  0  0  0
    4.6371    3.9604  -16.7272 H   0  0  0  0  0  0  0  0  0  0  0  0
    6.1310    2.9630  -16.7340 H   0  0  0  0  0  0  0  0  0  0  0  0
    6.1703    4.6437  -17.3668 H   0  0  0  0  0  0  0  0  0  0  0  0
    9.4733    7.0262  -24.5571 H   0  0  0  0  0  0  0  0  0  0  0  0
    7.7003    7.1568  -24.3001 H   0  0  0  0  0  0  0  0  0  0  0  0
    3.1645    2.6220  -20.9584 H   0  0  0  0  0  0  0  0  0  0  0  0
    1.9978    4.0290  -19.1386 H   0  0  0  0  0  0  0  0  0  0  0  0
    2.9373    4.3934  -17.7299 H   0  0  0  0  0  0  0  0  0  0  0  0
  1  2  1  0  0  0  0
  1  3  2  0  0  0  0
  2 10  2  0  0  0  0
  3 12  1  0  0  0  0
  4 10  1  0  0  0  0
  4 12  2  0  0  0  0
  5 13  1  0  0  0  0
  5 14  2  0  0  0  0
  6 11  1  0  0  0  0
  6 22  2  0  0  0  0
  7 11  2  0  0  0  0
  7 23  1  0  0  0  0
  8 13  2  0  0  0  0
  8 29  1  0  0  0  0
  9 22  1  0  0  0  0
  9 23  2  0  0  0  0
 10 11  1  0  0  0  0
 12 18  1  0  0  0  0
 13 18  1  0  0  0  0
 14 17  1  0  0  0  0
 14 29  1  0  0  0  0
 15 18  1  0  0  0  0
 15 24  1  0  0  0  0
 15 27  2  0  0  0  0
 16 24  1  0  0  0  0
 16 25  2  0  0  0  0
 16 26  1  0  0  0  0
 17 21  1  0  0  0  0
 17 28  2  0  0  0  0
 18 25  1  0  0  0  0
 19 21  1  0  0  0  0
 20 24  1  0  0  0  0
  1 30  1  0  0  0  0
  2 31  1  0  0  0  0
  3 32  1  0  0  0  0
  4 33  1  0  0  0  0
  5 34  1  0  0  0  0
  6 35  1  0  0  0  0
  7 36  1  0  0  0  0
  8 37  1  0  0  0  0
  9 38  1  0  0  0  0
 19 39  1  0  0  0  0
 19 40  1  0  0  0  0
 19 41  1  0  0  0  0
 20 42  1  0  0  0  0
 20 43  1  0  0  0  0
 20 44  1  0  0  0  0
 21 45  1  0  0  0  0
 21 46  1  0  0  0  0
 25 47  1  0  0  0  0
 26 48  1  0  0  0  0
 26 49  1  0  0  0  0
M  CHG  1  25   1
M  END
> <OMEGA_C>
TsXQQEjhH7/aRLXBmrrCQDT/zb9eDa7BZt7IQO79Oz+gJ7PB8cKjQEJ++T3ft6LBzFHjQDpYgEB4
/bDBZ9a3QChDVsBJaprBemdsQB0iB8Bir5fBNA+dQFuje0AN4LfB5BiEQIOCgsB0P47BuxCsQGot
nr9JwKTB8s+dQGOmD8Cl+5zBthOyQHYxjz8f0anB/YW3QGO/YUAvp6/BhvvoQJltl0CXH7rB3zXF
QPX3NkARd5zBrhZ+QOPkWEAXypnBrUcJQTVvqkAaoLzB+6arQM0qJUBBpKbBn1YOQTx48kB2VbTB
lvqxQDvTbkD9N4rBg2UKQeVL2kBk277BH7SqQI3Hh8CNCZPBqLBTQFExQsC0c5DBJjGnQBUIT0AT
8ZTBQot+QPx/NUDfVKPBPGs3QGmRf0D5JZXB4zHrQJZzKEDnwprBuJMZQf7Wl0BGurnBpgu5QHmk
nEApOcHBcKfhQPV7ab/GcrzBEEfJQE2xKcCCn6/BzizUQFCQvj87p7jBXzGSQBmYzj6boJvBNZ/8
QDY5dECbUKvBIFLWQKaSXsDzWZ7Bh3RDQLZtor+DbJnB5vl2QLLna0DbdbjBuaxzQNPrmcDNbojB
biUPQR2FCkHj8LXBXSkBQW7s60D7u67BkocdQRC+50BjyrDBf2OUQJd2fUBZ0YXBJDHEQMKhPUAu
34XBynLFQBeZlEAc74rBr5IXQXHW4EAEdcTB82j2QNAE5UCcZsLBfIdKQOTOJ0DFqqfBG7j/P+Lt
gEDiG5nBcP07QCSXjEDW1o3BWd/WQAQ5F7/KVbTBlKzHQKqAyr+WUa3B+6rNQMSKQz+qYLLB24Gl
QDNsCT4TcKLB1FjbQGvRhUBIILLBLq+4QOG9VcDK+pnBCBVtQDnZBsCfAJjBXe6UQFx4b0DMBbjB
yoGCQOC3gsDnjY7BwOiuQAP7m7+EVKTBoDafQAvtDsAHypzBK0O0QGQnkT/McqnBI4CyQNv8YECY
C7DB2HXbQOQjnEBPjbvB2SDGQArTPUCg1pzBIMl+QExIWUCAnpnBd0AAQcbDs0DDub/B8H2rQGvI
JUAQl6bBUb4PQcjW60B5fbPBbMmyQEhXakDdDorBEE4TQS+Gv0AleLjBKAqqQO7Rh8Dk25LBxnNR
QIdzQsDAApHBIfGoQCxrW0AKZpXBvJh+QD5MMUBC26LBWsw2QClbfEA43ZTBsorsQIQoMkDtbJvB
8JH9QNQAxUDufMjBqvypQNgimEBACcLBJKTpQLu+Xr+zPLvB9vHOQNXEJ8BCzq7BM/jZQAQgwz9d
r7fB/b6SQAkI0j6ehpvB5n/2QJYhhEAxzKzB1vLXQE26XcAihp3BCdxEQBCkob8Q8ZnBY6dpQInh
VUBZDbjBNCxuQJJXmsBu7ojBsmcdQXf480D6U67BckYOQWLtAUHC4bnBwf0AQZF360AWsa7BEvyV
QJThgECy7oXBdFy9QNMVLkCXWobBAmbMQPUrjUBCZYnBK8oUQYKRp0CEELLB3RIiQbT0v0AwQb3B
z0RKQGmtHUBZwabB+N/7P8wMeEALf5jBurA7QL/9jECgzI3BGJbSQHqdJL+nrLTBIC7DQAIvz78H
ka3B6nnNQLyQOD87SbLBRB2oQGzMCD6IzqHBEr6fQGRPZUCWwbfBIhq3QMN2V8BqDZrB4dxrQMxa
BsCbhpfB2tbhQM/YiEAOdbDBfueBQDgPg8C8So7BarKtQNSNnb9rIqTBeP2dQKp6D8DIlJzB+Ci4
QMqWjz+/xajBkpm9QKL3YEDY2a7BINmsQDkljUBHtb/BLkrIQKxwPEDZa5vBcFWAQGxhWEA39JnB
xPqRQNdQkkA5NMnBLhSyQNPgJUDav6XBFvahQAkf1UB6JNPBNJatQDyhbkCfc4nBHt+kQCpIpEDa
bNPBkNOoQCauiMDk45LBPLlQQLo0QsCehZDBpmKoQOwaXkCt65TBSo6EQMvEM0CcTKPBUtMyQPGS
c0Dm2JXBwP/tQBBvMECGLZnBceRVQKoFkEA3RcjBcErfQLUYo0Dy07zBBl/iQBT7cL8Q+7vB5cfH
QF+kKsBeUq/BM9DZQHjruz+DtbfBHWOXQICQ2j6XnprBdhWCQErjQUDuA7jBT9PVQGRYYMCa2Z3B
nTNEQF/vnr/4QZnBSRj8QClji0AA4KrB2o5tQOydmsBmnYjBLqCvQBRl4kDZitrBRzqAQCLN3kCg
dtLBf+6zQLpN4UA1N8zBHrKPQJyXhEDsMobBAzq1QFBnMkB7UIXB3MDHQFRZjkCFO4jBMpfGQImK
mkBjGNTB++KSQPEJmEDOV9rBhJJYQPaCI0DcGajBM2H6P+SKa0BLGJrBQ1UwQE2bh0Bzo47B4JbM
QDDXDr8H4LXB++e+QIhIxr9vqK7BSwfIQPn0TT+KRrPBiJalQIirOj5kf6LBZm+wQF+BgECUULfB
HXy3QDAOUsBMn5rBhhVqQHBBBcD5EpjBYQ/uQDx3h0BUkqzBCtWDQHEggcALhI7B4fuqQBzAlr+R
+qTBRuqcQPpuDMADQ53BVDO1QK7Hlz/zZ6nBBnnGQHxXaEDSe63BiJnIQDksm0DPkL3BwzPGQKKa
MkDRsZrB8DF+QKJwVkBB+ZnBgOW6QO4Eq0CV98fBPXyyQNIwKUAysqXBS46AQJC3v0AGLtXBJByr
QFr0akAuH4nBCHiMQGlco0CDpcvBiKuqQO3IhcAJO5PBk+ZRQLavQMDC2ZDB0hGlQPxeTEBpHJTB
IUaFQNR2P0AK9aPB6KIwQLyYckBX4pXBPg/rQLQcIkBlCJjBk/zUQGz9vEDZvs3B41j5QMNxp0BQ
jbfBk6LaQPjTV7/Fbr3BhabDQJ70JcDGhrDBh+PSQKvexz/PzrjB4UuVQIH97D5IN5vBG6uQQFOb
a0DXarnBZB/WQHZyWcAHg57BqUlAQJJGoL+/4ZnBSq0BQcErg0AF2qXBqM5zQLaBmMA2qIjBx4s+
QJ1IuUDcjNfBrdSDQFuR4UDs6NLBUwOWQNyuuEA17tvBMt6LQL9le0CVoIXBEEe6QAVlOEBFUITB
OLq/QJkBkkA5LonBKOaIQK2cgUCB+83BBG9tQCx/qkA59sTBYAZdQAlmPUALk6nB6a76P2ZtdkDw
pJrBHgIsQLKIgUDhLI7BMH/MQPDoDr+4x7XB55a+QIXxxL99hK7BqePHQNxZTj8hT7PBIx+lQKov
Vj4ZgqLBw3+sQIn4dEDh3rjBI2O2QDokVMA8D5vBTrxsQJRsAsCTV5fB9czmQKJYjUCT2K3B+kuE
QP+UgcCZfI7BNLqqQBk4lL/V2aTBs++cQCl3C8D4FJ3BUlu0QP1xmj/7kanB/+7BQLQ4akClhq7B
CWTEQCb3kUAw7r/BLB/GQOlAOEAlZpvBhAd9QHAtVkB5BJrBvDu6QEoHlECSUMvBV8uwQCKeK0A4
LabBuM5mQNp6uEBpyMzBNjWsQEPNbEAPgInBnTmjQPSNu0AMjc/BWNepQI5Ch8DcvpPBFvtUQJmy
PsCHMpDBdVylQN8iTkABd5TBA6WDQL93P0BPDKTBWuAvQEKwcEBppZXBVLXrQPoCK0AiHZnBT8i1
QLcmZECaGdDBRG7xQIrXp0CH1LnBAsbaQN18Wr8hSb3BShzDQNRuJcBuVrDBOUjTQPXgxj/w2rjB
4vyUQMqO/z5mOpvBy1+NQB7NWkAGt7rBzf7TQKYkXcAeX5/BPZJEQKtYlr/UqZjBl476QGqZj0CC
x6bBchV1QO9NmcA5sojBxlZFQCr01ECk08/BAoZLQKmem0C/fdDBoRhfQJyntkA3DMTBdRyNQMGq
eUAQtIXBhWu9QOG3O0Ae44TBrjy/QBABlEC5sInBvuewQBhl2ECB18vBbh6nQCVcvUAKSdjBxlJY
QN0nPECEd6nBJ9f2P15mc0B+N5rBqrMsQN+LgEBw7I3BFgHcQF7TEb+enLPBnFjLQIqzx79fyKzB
nm3TQJIZSj9norHBMzapQAa5KD4KA6LBjJPbQAs1kEBQcrDB1q63QI4jVsAkzZnBaM5sQHS1A8D1
ZZjBkDadQD0YZ0DfWrjBgmp9QGs6gsD9J4/B3MixQFidmL+Y8qPB2NifQAhTDcAatpzBCUK5QL7+
lD824KjBi9+3QEq6Y0Akla/BXHnZQBmbqEDHlLnB4irIQCTWP0Ds/pvBR4iAQO3TUkCuapnBGE71
QA9IzUCQAbzByhawQBjeJ0ClKqbBVtweQbHRvkBOsbPBQcCwQKTdakB8b4nBtWoLQbLn3EA437PB
3timQFMpiMC1BZPBtMhMQHCeP8BBvpHBBI6oQBmcTUBUaJTBAveCQKwbMkDtD6PBVss2QEZdc0Dv
6pTB8NruQGj/O0B2Z5rBki3wQCbx4EA1Y8TBoGGuQP9JmUCUmcHBVmzvQEB7Wr9/Y7rB1R7SQA+I
JsA+Ta7BS87gQL0exj8nzLbBDxWWQC135D5wLZvBrbT0QAULk0DCjqrB1HTXQBdyX8C3/pzBbulG
QI55mL9mbprBax2BQJKnP0DlWrnBVyRjQNnrmcCsyonBnp0qQbCPykCA1q3Bx6kZQbZtnkBWbrHB
CTkmQTDrvUC7rrvBNj6SQGKRcECmGoXBjXLFQPJePEBeU4XBYLfAQLHKlEClp4nBELYQQfpB/UB0
HLbBziYEQYDE3UAP3KvBT8FTQNxzIkBvoKfBsCwAQLvUckA4FpnBdNU3QGSvhUDBgI3B+rzGQLru
DL/uKLbBF0+8QHcIxb80qq7BSG7BQC1ZTT+yjbPBr02oQFW1QT7Gw6HBo42mQGKvj0DGI7XBIsSy
QCA3X8BDzJzBVyB7QHrQ/r/edJXBk+DqQPUVY0Bo+LHBm8OFQK8yhcCF5Y7BsSasQGKhlr/FgaTB
IeSeQGcqDsCz2ZzB8KCzQCvmmD9xJanBu8nAQJ4tZUAPnK7BZ029QPcjoUDIcr3BZy7FQIkhP0CI
RZvBh0h7QCDbXkBjzZnBQV6rQFaIvkAEYsXBWRKvQFAwK0Ct3qXB6rGoQKsJh0DfTtTBhYKsQCY9
fEBIj4nBSTmyQMUqtkCwZ9HBov+lQGj1jcBd0pXBNPViQP+xPcAono7BM/KlQDA5ZEBm2JTBIr2B
QAzcPkA0gaPBxNktQOkmeEBpTZXBzQDrQM15NEDfA5nB6jycQASs4EDDYMLBB2nyQMAnkEDKZb3B
LNrSQAuJVL+q773Bd5/AQL86JcC1prDBluLHQC1pxz/OgrnBbpScQPkw7j5d8ZnB4kGFQCyBlkC3
krPB90/MQBe5bMDaXaLBwFpbQGsUhL+jRZXB3vkBQerGP0B6/K3BhqN3QCvRncCxXYnBSeKtQEUm
gkD97NzBYym+QGfNY0Ctwc/BGUGHQI0Hf0A2TtLBJ+COQEQXjECSV4bB4wm1QIT+QkD95oTBjYbG
QJ26lUDmAonBTL+cQFkVy0BSBNbBlqfTQEV4vUDJd9PB3vdSQO0vNUDFlKjBpj/vPwOJckA6fpnB
t24sQDb5h0DE4I3B

> <OMEGA_E>
WLq8PjC9wD6Q/88+4I/qPpCO9T5gCvk++OsSPw==

> <OMEGA_NBR>
     73348

$$$$
50213403
  -OEChem-04172616093D

 56 59  0     1  0  0  0  0  0999 V2000
    6.4487   -0.5145  -22.7187 C   0  0  0  0  0  0  0  0  0  0  0  0
    3.2741   -2.9924  -18.0998 C   0  0  0  0  0  0  0  0  0  0  0  0
    6.0087   -1.5127  -21.8320 C   0  0  0  0  0  0  0  0  0  0  0  0
    3.6787   -2.0353  -19.0393 C   0  0  0  0  0  0  0  0  0  0  0  0
    6.2836    0.8437  -22.3925 C   0  0  0  0  0  0  0  0  0  0  0  0
    5.2145    0.2040  -20.2975 C   0  0  0  0  0  0  0  0  0  0  0  0
    5.0000    3.9158  -22.9197 C   0  0  0  0  0  0  0  0  0  0  0  0
    7.1726    4.2284  -21.9104 C   0  0  0  0  0  0  0  0  0  0  0  0
    4.1404   -4.0585  -17.7884 C   0  0  0  0  0  0  0  0  0  0  0  0
    5.3951   -1.1535  -20.6126 C   0  0  0  0  0  0  0  0  0  0  0  0
    4.9390   -2.1749  -19.6546 C   0  0  0  0  0  0  0  0  0  0  0  0
    5.6596    1.2142  -21.1733 C   0  0  0  0  0  0  0  0  0  0  0  0
    5.8832    3.6599  -21.8503 C   0  0  0  0  0  0  0  0  0  0  0  0
    5.4054    4.7474  -23.9817 C   0  0  0  0  0  0  0  0  0  0  0  0
    7.5228    5.0452  -23.0025 C   0  0  0  0  0  0  0  0  0  0  0  0
    5.7628   -3.2721  -19.2941 C   0  0  0  0  0  0  0  0  0  0  0  0
    6.2065    2.9166  -19.4250 C   0  0  0  0  0  0  0  0  0  0  0  0
    3.9759    3.3606  -19.1670 C   0  0  0  0  0  0  0  0  0  0  0  0
    5.4829    2.6726  -20.7472 C   0  0  2  0  0  0  0  0  0  0  0  0
    4.9923    5.9502  -26.1952 C   0  0  0  0  0  0  0  0  0  0  0  0
    8.7515    7.1951  -22.6730 C   0  0  0  0  0  0  0  0  0  0  0  0
    5.4730    3.7420  -17.1584 C   0  0  0  0  0  0  0  0  0  0  0  0
    4.4242    5.0116  -25.1128 C   0  0  0  0  0  0  0  0  0  0  0  0
    8.8823    5.7085  -23.0372 C   0  0  0  0  0  0  0  0  0  0  0  0
    5.3538   -4.1819  -18.3778 N   0  0  0  0  0  0  0  0  0  0  0  0
    6.6457    5.2950  -24.0017 N   0  0  0  0  0  0  0  0  0  0  0  0
    5.2151    3.2589  -18.5212 N   0  0  0  0  0  0  0  0  0  0  0  0
    4.0705    2.9001  -20.3920 N   0  3  0  0  0  0  0  0  0  0  0  0
    2.8044    3.8409  -18.6017 N   0  0  0  0  0  0  0  0  0  0  0  0
    7.3799    2.6800  -19.1569 O   0  0  0  0  0  0  0  0  0  0  0  0
    7.0083   -3.3979  -19.8120 F   0  0  0  0  0  0  0  0  0  0  0  0
    6.9147   -0.7912  -23.6528 H   0  0  0  0  0  0  0  0  0  0  0  0
    2.3098   -2.9138  -17.6200 H   0  0  0  0  0  0  0  0  0  0  0  0
    6.1402   -2.5546  -22.0839 H   0  0  0  0  0  0  0  0  0  0  0  0
    3.0354   -1.2042  -19.2881 H   0  0  0  0  0  0  0  0  0  0  0  0
    6.6329    1.6068  -23.0721 H   0  0  0  0  0  0  0  0  0  0  0  0
    4.7283    0.4765  -19.3724 H   0  0  0  0  0  0  0  0  0  0  0  0
    4.0142    3.4747  -22.9242 H   0  0  0  0  0  0  0  0  0  0  0  0
    7.8872    4.0381  -21.1233 H   0  0  0  0  0  0  0  0  0  0  0  0
    3.8297   -4.7952  -17.0624 H   0  0  0  0  0  0  0  0  0  0  0  0
    4.2389    6.1018  -26.9821 H   0  0  0  0  0  0  0  0  0  0  0  0
    5.2491    6.9191  -25.7421 H   0  0  0  0  0  0  0  0  0  0  0  0
    5.8950    5.4999  -26.6338 H   0  0  0  0  0  0  0  0  0  0  0  0
    9.7439    7.6687  -22.7008 H   0  0  0  0  0  0  0  0  0  0  0  0
    8.0876    7.6925  -23.3954 H   0  0  0  0  0  0  0  0  0  0  0  0
    8.3288    7.2889  -21.6618 H   0  0  0  0  0  0  0  0  0  0  0  0
    4.5168    3.9412  -16.6524 H   0  0  0  0  0  0  0  0  0  0  0  0
    6.0318    2.9779  -16.5982 H   0  0  0  0  0  0  0  0  0  0  0  0
    6.0638    4.6687  -17.2037 H   0  0  0  0  0  0  0  0  0  0  0  0
    4.1640    4.0516  -25.5827 H   0  0  0  0  0  0  0  0  0  0  0  0
    3.5181    5.4708  -24.6909 H   0  0  0  0  0  0  0  0  0  0  0  0
    9.5475    5.2136  -22.3144 H   0  0  0  0  0  0  0  0  0  0  0  0
    9.3063    5.6172  -24.0481 H   0  0  0  0  0  0  0  0  0  0  0  0
    3.2944    2.7280  -20.9987 H   0  0  0  0  0  0  0  0  0  0  0  0
    1.9590    3.8507  -19.1356 H   0  0  0  0  0  0  0  0  0  0  0  0
    2.8050    4.1774  -17.6600 H   0  0  0  0  0  0  0  0  0  0  0  0
  1  3  1  0  0  0  0
  1  5  2  0  0  0  0
  2  4  2  0  0  0  0
  2  9  1  0  0  0  0
  3 10  2  0  0  0  0
  4 11  1  0  0  0  0
  5 12  1  0  0  0  0
  6 10  1  0  0  0  0
  6 12  2  0  0  0  0
  7 13  2  0  0  0  0
  7 14  1  0  0  0  0
  8 13  1  0  0  0  0
  8 15  2  0  0  0  0
  9 25  2  0  0  0  0
 10 11  1  0  0  0  0
 11 16  2  0  0  0  0
 12 19  1  0  0  0  0
 13 19  1  0  0  0  0
 14 23  1  0  0  0  0
 14 26  2  0  0  0  0
 15 24  1  0  0  0  0
 15 26  1  0  0  0  0
 16 25  1  0  0  0  0
 16 31  1  0  0  0  0
 17 19  1  0  0  0  0
 17 27  1  0  0  0  0
 17 30  2  0  0  0  0
 18 27  1  0  0  0  0
 18 28  2  0  0  0  0
 18 29  1  0  0  0  0
 19 28  1  0  0  0  0
 20 23  1  0  0  0  0
 21 24  1  0  0  0  0
 22 27  1  0  0  0  0
  1 32  1  0  0  0  0
  2 33  1  0  0  0  0
  3 34  1  0  0  0  0
  4 35  1  0  0  0  0
  5 36  1  0  0  0  0
  6 37  1  0  0  0  0
  7 38  1  0  0  0  0
  8 39  1  0  0  0  0
  9 40  1  0  0  0  0
 20 41  1  0  0  0  0
 20 42  1  0  0  0  0
 20 43  1  0  0  0  0
 21 44  1  0  0  0  0
 21 45  1  0  0  0  0
 21 46  1  0  0  0  0
 22 47  1  0  0  0  0
 22 48  1  0  0  0  0
 22 49  1  0  0  0  0
 23 50  1  0  0  0  0
 23 51  1  0  0  0  0
 24 52  1  0  0  0  0
 24 53  1  0  0  0  0
 28 54  1  0  0  0  0
 29 55  1  0  0  0  0
 29 56  1  0  0  0  0
M  CHG  1  28   1
M  END
> <OMEGA_C>
blvOQIW3A7/Vv7XBV4tRQF2DP8BkzJDBT0fAQDafwb8FqK7BCm9rQMVCAsCNUJjBEhPJQKL6Vz/B
I7PB7NymQCLaUD46YaLBxP+fQDScekB7W7fBDYblQM9Oh0COSK/BCX6EQC7fgcC+To7BhaSsQHSk
k7+R5qTBLwyeQJIxC8CkPJ3Byxu1QC9smz//YqnBW0O8QJM8akBTza7BHvmsQHzql0B72r/BCLvw
QKByoUAbBbjB7Gi4QCJqUcBCWprBb5vGQPmoOkBYZpvB3XR+QO8TV0D/VZnB43OvQGgLK0BG+qXB
RsGfQDJovkC5j9HBAgYMQao+5kBFYrXBdCKvQK58b0BgRInBGJONQKJeoEAd58jBsx0OQQystkBI
TLjBqFKrQOLRhcDEBZPBq6nUQPhwqUBiA8DBf+KmQKyRUEBvK5TBskGCQKKbOUDrIqPBBXwzQO3Q
dUA80JTB/SfsQFiEK0BvQZnBBUTgQFF3WcD3fp7BB0XdQC2PSr/9OL3BANMTQCt7OsDJ9YzBa3zE
QBx/I8DOq7DB4UNCQAckmr8LTprBeUDUQACtzT+7k7jBkU6XQN/x8z6b+prBGXSAQAxhXkDLZLfB
WGT8QIQ4gUCY/KjBEBp1QJRymcDef4jBwaSHQJ1Bw0Bp29fBUPinQHlp3UC8783B8aO8QEP/r0AR
EtXBGucbQRFm9UBQm7XB22YBQRop9kDUKbvB50IFQRE/6UBGS63BYImQQO88fEAiOIXBrwTBQEOV
PkApyYTBZwrCQGFmlUAVoYnBqz+FQIKmgUBZqczBEyhhQLcQr0ADh8XBssIYQbjVpkD1g7LBpuYU
QcG/s0CDYsDBP9hSQCGXLkBu/afBPMD6P2JydkDIFZnBw4UzQFqthUCxR43Bl1LPQMgUBb+ck7XB
TudRQM47Q8Dx+JDBzfrAQPh8wr+mia7B5lVrQIEYBcCIZ5jBf37JQOE3Vj9gArPBfwmmQCW9RD4R
aqLBTRblQLRah0DNIK/BABugQLWqeEDFZ7fBSSKFQCFZg8CLeY7BspWsQGYPlb953qTBSkeeQNRa
DMBPOZ3BgY+0QH4wmj8TYKnBFv67QIuKaUBSv67Bp3PwQOJZoUDY4LfBozGtQL7JlkDD6L/BwyO5
QILJUcCcUJrBrxnGQNlOOUCKXJvBb45+QO9MWkCXeZnBXPyuQKZrKkCG86XBor4LQcZN5kDnJrXB
4OaeQJpmvkB1YNHBO3yuQE6oa0DVJInBVe8NQd7GtkB6FrjBuwSPQICenEAGVcnBNTisQL98hsAv
F5PB4rPUQMrCqEBD+7/BYFSmQJ9ET0C0JpTB49aBQCX4OUD0I6PBAm41QJ0hf0CSMpXBLpDrQItl
KUDsNZnB3UzhQJEZWMAmUp7B39veQBFVS7+8+bzBENITQAJyP8AxNI3BaJDFQCnhI8DdhrDBxmdB
QFwPob/PZ5rBr/3UQP0EzT+WY7jBO7KVQOt97D4KHZvBJLL7QKyugUDHv6jBX7uAQMiwW0B8g7fB
RK52QGVHm8AAvojBdJobQa2N9UAfVLXBdycBQbM19kCN8rrB2uYEQfQw6UCXE63B8deHQKwwwUA5
/dfBuPuhQGd/3UB7U83BOjy+QFimtEB8j9TBIeGPQCYMeUDXIYXBdJ2/QO8TOUA5xYTB+hXCQMgP
k0B8R4nBVY0YQaP2pkDmSbLB8c0UQWP7s0DcKMDB09KLQOube0CYgs3BoSRfQASnpkCXRsbBKLZR
QF+wLUDV5afBv7z/P8EmgUD6jpnBfUA2QNZCi0BwwI3BFH7RQCDCCr/7h7XBdwiqQGvWhcAAEpPB
43fCQPACxL+udq7BVGu4QJ43UMCCpprBeb7LQL0oUj8fGrPBPdenQPgXTj4/h6LBFKTlQABgiEAV
S6/BcQ6hQPRld0CVoLfBsDeBQEWUgMBid47BQRitQLA/lL/w+aTBvaydQJglC8B6YJ3B96m2QF7Q
mT8LhqnB4Rq9QApgaUCv+a7B0VjwQF/hokC7/bfBr2StQJTWlkBuD8DBAHhpQK+MBMDbeZjBwqDH
QIO4OUCHkpvBqQyAQIcqVEDlhJnBTrKwQKAvKkCTK6bBzkYLQWEX6ECX+rTBfv+dQCdyvkBYd9HB
bWSvQGa2aUBpTYnBqbYNQZrvuECLMrjBgy2PQDLnm0CugMnBgetOQPkBP8BhNJHB82PUQMzrqUBS
E8DBfpOnQE7mTECLTpTB9HGDQKTCOEARZqPBH440QM4pcUB4+JTBhzDtQGe0KkBQbZnBR6oyQMvh
ib/LN5vBVnrhQGc2VL/h1rzB/AS+QMyAoMDUx5DBWkrHQIrbJMBTTLDB93rXQHNHV8CUVZ7BSmXX
QOvpyT9pibjBqy+YQCTU9z5KKpvBJ1X8QKEpg0B/6KjBJiSCQASHWECdyLfBzGpsQCh8l8B4nIjB
6AYbQXHI90BjKLXBVnIAQaI7+ED5nrrBjZoEQdoN6kDG2azBL/WGQB+iwEC8GNjB7O+fQBaC3UDo
Ws3B+LK9QPvhtUDLotTBGaGQQHJ7dEApPoXB6abBQIuAOECD+ITBH8TBQPbfkkD7cYnBYJIYQSDl
qEAMjbLBKmoUQegSt0A/UsDBCB6NQOI+ekCbvc3B+LVeQI2/pEC4dcbBM5ZVQOwbL0DTWqjBGFv9
P/ULckB/SZnBd/AzQDOZgkB+X43BkAXRQPDoDb9plLXBTmOpQK34hcCkEpPB9urBQNZXxb+Yga7B
Buy3QFS1UMBXqZrBdJ3LQNc/Tz/ZILPBnReoQG1ORz7zfqLBihGhQPixd0BsjLfBZhLmQH31h0CL
YK/Bep+AQNhwgMBDdY7B6easQBUelb8u+6TBbFydQCpaC8DGYZ3B4/O2QNy5mD9agKnBjXW9QDXR
aECN/K7BqA+tQPhml0A37b/BWGfwQIjsokDzBLjBp/FoQKExBMACeZjBjuzHQG+bOUBDi5vBBUOA
QMfmUkB6gJnBtRixQHCwKUCsKKbB1WSeQEgYvkDrg9HBoUMLQb006EDoBbXBHjqvQKi6ZUB9J4nB
TZWNQMiZnkCUBcnBzLcNQeYUuUC8RrjBrRpOQLtuPsCiMZHBZAvUQGh+qkCW+7/Bu7KnQIEhS0CC
QpTBKsqDQCXpN0BaZaPBcOs0QA8EcEDE+pTBirntQCIHLUCCa5nBxocyQDiCiL8oOJvBb87gQEfj
V7/26LzBgDe9QIPBoMDHyJDB2GfGQKSSJcCPXbDBcPHWQDgnWMDHWp7BnTbXQBNCyD+HlbjBUMGY
QPxU9T5vGJvBhSaCQMzTWEAnrbfB1Bj9QNNKgkByF6nBaQBrQLNCl8BmmIjB+02GQDv4wUC429fB
xrekQP5J3UDawc3B2S28QAKHsUAy/9TBgv4aQc3490AzPbXBkFkAQU1Z+EDKn7rBM68EQW0Q6kDZ
36zBq1uQQCl/b0D5GoXBuXXBQI+/M0CW9ITBeITBQB/wkEBBFInBziOHQJxgf0Ag6czBdVtfQEtz
q0DIq8XBDqkYQf4JqUDAq7LBa1MUQd5St0Cya8DB22FWQGxRLkDIXqjBxW/+P6pRcUAaVJnBQBY0
QE7bgUBcXo3BFT7OQE1nKr+EU7XBOk5PQPKhP8D85Y/B3eW/QKT0zr/S2q3BRW5qQApLAsBPWpfB
hgLJQJ6JNT+6ULPB0rClQKyhMz4Lb6LBVT2jQOCdd0CLw7jBPSDkQNHBi0CQB6/BB+GCQGlJgsAv
X43BiwmsQCyRmb+bRqTBPZydQMf5C8APOpzBbFa0QJwqkj9i3KnB1RC+QHQVZ0Cn3q/BxP2uQMrO
m0B+QcDB/cvsQEYMrECZmLbBM5m3QJCoUsABOZnBM33HQETLNkBSa5zBKFiAQKa6VEAiLprBKBaw
QEDxJ0DW+qbB9JuJQPSAh0AYQdHBtUodQVthukA81rjBZjywQAQaY0Af7onBXCaQQDFOqkC32MjB
fSIIQYfDy0CglrTBIPCpQE5ohsDB8ZHB8YzTQF0qskAdLL/BFfmoQGpYVkDPbpXBUz6DQHWYOkBK
JaTBJNc0QNe1a0ApLpXBb1rsQKZvIkC6MZrBAXrfQH4NXMAlTp3BHlrdQOD3fb8SpbzBsFURQNgS
OsCjIozBbRfEQEfjKsCGc6/BOg5CQLDumL9bVJnBH8rUQDCntz8c/7jB7W2VQPyj/j4TQpvBkgSG
QLy4U0Da1bnBx3P6QN+KhUC7nqjB4rZwQOr4mcABqIfBCypmQNDvkkDjYdfBCHioQBSqf0AxB9XB
HCN5QD1KVUCVac3BcBYqQd/H0UBxU7fBHB8hQVglnEDuwbTBje0bQaSptEBAfsHBXQGTQDC8fEAc
OIbBwnS4QFaHJUD7MIbBSrLKQABLiEAnxIjB+U1iQNHnsUCDIsXBdw2dQLwXx0AfwMzBn10EQXcF
6kDNq7jBLY8JQSuB0UB776vBqdRUQHE5NEAmIanBVyv7P+b0aEDBM5nBWGo1QBsIf0DOjY3BkS7R
QJq0IL8d8bTBS2yrQMTWhcCZFZLB+y3CQA1kyr9Gka3BHOu4QMxmT8B/rJnBl1/KQKm9Pj9CJLPB
YJGkQKA9UD41oaLBNb6mQL4TckAsqbnB2AjgQHaekUDpPa7BtMKCQEpjgcAjXY3Br6arQInjlb9y
WaTBXHudQKIJC8DnWZzBybyzQKB0lj+B96nBdIC9QFBgakAs46/BwICzQBlkmEB1S8HBj2jpQBUZ
sUAg9LXBWo5pQF0eBsAxSZfBAhvGQLIiN0AhZZzBvXR8QEI3TUDrEJrBCx+vQLdVKkDvE6fBW8Na
QN4lnEA/cMvBjTUbQSm2w0ArEbfBnYatQMaPWUB6o4nBIzieQOnRnECSJczBkxkFQbYj00BnmbPB
x7lQQDpeQcBm/4/BFojUQGTcskAKVr/BmgWmQJyyRUAb+pTBJCyCQHcGPUCPWKTBNNYvQEloYEAf
AJXBHMHrQGqsJ0DXYZrB2AcxQK3Tj7+C8pnBEgfiQFKBc79BB7zBAf2/QEguoMDt4Y/BL+3HQLtt
KMBH967B4+vXQBI/VcDIa53Bs3TWQDJavD/TxrjBoEaTQF2/BT8XmZvBQ+KLQA2eSEATTrvBpzbz
QPo1j0BhFKfBe8ZwQG6WmMApgofBKGM/QKp0n0DrgNPB271FQKFXe0DC58fBtN5EQP/UtkDTZMbB
3iInQfam3EDOVbXBPlUfQSRgpkCUqbLB2hcbQc35vEBKtL/B4KaOQEklYkDljIXBAy+/QFybJEDx
4IXBC1/AQJtmikC9/4jBoUGoQL1Su0BCwM/BNLGoQI8pgkAyQ9HBpP4AQRV88EAgAbjBCDwFQWzi
2UBq9qrBrQJUQLRYPUDqlqnB4fjyP6GlYkAkN5nBePMuQNYAbEA4Io3B

> <OMEGA_E>
MHzxPaDB+T0Abfo9wLP6PSAw4D5YEOk+

> <OMEGA_NBR>
     79190

$$$$
50157441
  -OEChem-04172616093D

 52 55  0     1  0  0  0  0  0999 V2000
    6.4051   -0.5516  -22.7453 C   0  0  0  0  0  0  0  0  0  0  0  0
    4.9802   -4.2033  -18.4745 C   0  0  0  0  0  0  0  0  0  0  0  0
    5.9249   -1.5439  -21.8688 C   0  0  0  0  0  0  0  0  0  0  0  0
    5.4680   -3.3058  -19.4369 C   0  0  0  0  0  0  0  0  0  0  0  0
    6.1697    0.8103  -22.4733 C   0  0  0  0  0  0  0  0  0  0  0  0
    4.5827    3.9956  -22.9753 C   0  0  0  0  0  0  0  0  0  0  0  0
    4.8666    4.9241  -23.9908 C   0  0  0  0  0  0  0  0  0  0  0  0
    4.9416    0.1822  -20.4642 C   0  0  0  0  0  0  0  0  0  0  0  0
    6.8662    4.1945  -22.1543 C   0  0  0  0  0  0  0  0  0  0  0  0
    3.7171   -3.9724  -17.8905 C   0  0  0  0  0  0  0  0  0  0  0  0
    3.4262   -2.0155  -19.1458 C   0  0  0  0  0  0  0  0  0  0  0  0
    5.1829   -1.1763  -20.7252 C   0  0  0  0  0  0  0  0  0  0  0  0
    4.6841   -2.1860  -19.7745 C   0  0  0  0  0  0  0  0  0  0  0  0
    5.4309    1.1866  -21.3242 C   0  0  0  0  0  0  0  0  0  0  0  0
    5.5680    3.6510  -22.0204 C   0  0  0  0  0  0  0  0  0  0  0  0
    7.1540    5.1316  -23.1619 C   0  0  0  0  0  0  0  0  0  0  0  0
    6.1527    5.5171  -24.0826 C   0  0  0  0  0  0  0  0  0  0  0  0
    6.0243    2.9008  -19.6216 C   0  0  0  0  0  0  0  0  0  0  0  0
    3.7981    3.2724  -19.2380 C   0  0  0  0  0  0  0  0  0  0  0  0
    5.2404    2.6446  -20.9074 C   0  0  2  0  0  0  0  0  0  0  0  0
    8.5498    5.7219  -23.2502 C   0  0  0  0  0  0  0  0  0  0  0  0
    5.3913    3.6847  -17.3128 C   0  0  0  0  0  0  0  0  0  0  0  0
    5.3975    7.1075  -25.7425 C   0  0  0  0  0  0  0  0  0  0  0  0
    2.9637   -2.9002  -18.2328 N   0  0  0  0  0  0  0  0  0  0  0  0
    5.0735    3.2032  -18.6628 N   0  0  0  0  0  0  0  0  0  0  0  0
    3.8433    2.8510  -20.4794 N   0  3  0  0  0  0  0  0  0  0  0  0
    2.6397    3.6795  -18.5942 N   0  0  0  0  0  0  0  0  0  0  0  0
    7.2175    2.7045  -19.4150 O   0  0  0  0  0  0  0  0  0  0  0  0
    6.4874    6.4533  -25.0539 O   0  0  0  0  0  0  0  0  0  0  0  0
    6.9561   -0.8360  -23.6295 H   0  0  0  0  0  0  0  0  0  0  0  0
    5.5663   -5.0626  -18.1838 H   0  0  0  0  0  0  0  0  0  0  0  0
    6.1242   -2.5859  -22.0715 H   0  0  0  0  0  0  0  0  0  0  0  0
    6.4253   -3.4707  -19.9090 H   0  0  0  0  0  0  0  0  0  0  0  0
    6.5525    1.5681  -23.1409 H   0  0  0  0  0  0  0  0  0  0  0  0
    3.6044    3.5411  -22.9233 H   0  0  0  0  0  0  0  0  0  0  0  0
    4.1016    5.1882  -24.7059 H   0  0  0  0  0  0  0  0  0  0  0  0
    4.3718    0.4623  -19.5905 H   0  0  0  0  0  0  0  0  0  0  0  0
    7.6464    3.8860  -21.4742 H   0  0  0  0  0  0  0  0  0  0  0  0
    3.3420   -4.6668  -17.1532 H   0  0  0  0  0  0  0  0  0  0  0  0
    2.8215   -1.1580  -19.4016 H   0  0  0  0  0  0  0  0  0  0  0  0
    9.1729    5.0951  -23.9050 H   0  0  0  0  0  0  0  0  0  0  0  0
    8.4919    6.7396  -23.6638 H   0  0  0  0  0  0  0  0  0  0  0  0
    8.9962    5.7593  -22.2455 H   0  0  0  0  0  0  0  0  0  0  0  0
    4.4590    3.8487  -16.7525 H   0  0  0  0  0  0  0  0  0  0  0  0
    6.0052    2.9354  -16.7915 H   0  0  0  0  0  0  0  0  0  0  0  0
    5.9482    4.6307  -17.3827 H   0  0  0  0  0  0  0  0  0  0  0  0
    5.8019    7.8180  -26.4784 H   0  0  0  0  0  0  0  0  0  0  0  0
    4.7851    6.3536  -26.2589 H   0  0  0  0  0  0  0  0  0  0  0  0
    4.7757    7.6485  -25.0140 H   0  0  0  0  0  0  0  0  0  0  0  0
    3.0419    2.6916  -21.0559 H   0  0  0  0  0  0  0  0  0  0  0  0
    1.7656    3.6627  -19.0797 H   0  0  0  0  0  0  0  0  0  0  0  0
    2.6782    3.9898  -17.6443 H   0  0  0  0  0  0  0  0  0  0  0  0
  1  3  1  0  0  0  0
  1  5  2  0  0  0  0
  2  4  2  0  0  0  0
  2 10  1  0  0  0  0
  3 12  2  0  0  0  0
  4 13  1  0  0  0  0
  5 14  1  0  0  0  0
  6  7  2  0  0  0  0
  6 15  1  0  0  0  0
  7 17  1  0  0  0  0
  8 12  1  0  0  0  0
  8 14  2  0  0  0  0
  9 15  2  0  0  0  0
  9 16  1  0  0  0  0
 10 24  2  0  0  0  0
 11 13  2  0  0  0  0
 11 24  1  0  0  0  0
 12 13  1  0  0  0  0
 14 20  1  0  0  0  0
 15 20  1  0  0  0  0
 16 17  2  0  0  0  0
 16 21  1  0  0  0  0
 17 29  1  0  0  0  0
 18 20  1  0  0  0  0
 18 25  1  0  0  0  0
 18 28  2  0  0  0  0
 19 25  1  0  0  0  0
 19 26  2  0  0  0  0
 19 27  1  0  0  0  0
 20 26  1  0  0  0  0
 22 25  1  0  0  0  0
 23 29  1  0  0  0  0
  1 30  1  0  0  0  0
  2 31  1  0  0  0  0
  3 32  1  0  0  0  0
  4 33  1  0  0  0  0
  5 34  1  0  0  0  0
  6 35  1  0  0  0  0
  7 36  1  0  0  0  0
  8 37  1  0  0  0  0
  9 38  1  0  0  0  0
 10 39  1  0  0  0  0
 11 40  1  0  0  0  0
 21 41  1  0  0  0  0
 21 42  1  0  0  0  0
 21 43  1  0  0  0  0
 22 44  1  0  0  0  0
 22 45  1  0  0  0  0
 22 46  1  0  0  0  0
 23 47  1  0  0  0  0
 23 48  1  0  0  0  0
 23 49  1  0  0  0  0
 26 50  1  0  0  0  0
 27 51  1  0  0  0  0
 27 52  1  0  0  0  0
M  CHG  1  26   1
M  END
> <OMEGA_C>
sfbMQNE1Db9P9rXByV2fQJeBhsC/y5PB/Ji9QLifxb9l867BwvmuQJuRU8C+fpvBSG7FQKJyTz9Z
ybPB1aWSQGK3f0BuzbfBgLubQGOSnUA87b/BMCGeQJ2dOj69tqPByLfbQLU5hkAPPLHBv+RtQMA7
fsC7H4/BlUdbQBb+AMCEKpnBXtqlQOyRlr8kzaXBL+SVQCnnC8AcMp7BC8qtQCHjlz/6l6rBqiyy
QGeqaUCyKbDBOO3kQCE2pECCS7nBU+PEQMiLsEAnqcDB5sbAQM2mOUD3+JzBchRzQJBvUUBj55nB
/bCnQMZAKUBuQqfBD8wIQTYat0BgALrBOoWsQMjRa0CXgIrBSbisQGlw40Cf8M3BAq49QLKcOcDZ
3JHB11miQCUBTUB7TZXBuPh1QG52NkDT1aPBNvAoQFt8a0DkwJTBffXmQAIXLUD9UZvBt5jPQKKB
zkBSbsjBfZjeQPoDVr9GCb3BQB+yQNcAosBreJHBbPnDQO5+JcBkkrDBppvNQLcfXsCKRZ/BC67R
QPK2yD+eILnBMK5mQAWiYkD0YrfB7j+DQNwFpkCppcXBmuWLQLWv7D5ruZzBK6/0QK+0eEBCy6vB
ZONVQBRWlcDKOYnBkZM0QLg6lL9wNpvBCcQSQdQKo0CIPb/B3d4HQcmq10BdT73BjvAPQTBMuEDa
9rHByK+OQJlRdkAsBYbBSirAQCHeO0D2VIbBmFe+QKYulEC5D4vBEKm5QP8s+kDb09PB6B+ZQL5Q
y0BLEtLBwdKYQE7A9EClHMjBsq5CQHlDLECJcqjBiP7hP+ppakAto5jBIWcrQNpYf0CaJ43B5oXG
QMMgDb8u47bBZEKfQEwQh8CZSpTBNdy3QMoPxr860K/BlrytQEaRVMCgHZzBbPzBQNHxTz/JQbTB
6ELdQCv8h0DxCrHBDufkQHB9pUAYWrnBNvSeQJDQNz6mlqPBIVCUQKGQfkAXWrfB9FxvQCMSf8A2
M4/B8jNaQOVGAcDvEZnBF5ujQLQWl7+cKKbBhHOUQMiBDMDOgZ7BoVauQAEcmD8nfarBNTS0QEbc
akAQza/BtnubQH5hnECqtb/Bm0nEQIbZsECMqcDBKF3BQAgkOkDujpzBjjxzQPdnT0Bv2ZnBxHqp
QCeVKUAH+6bBgH9tQFWjokAWgsfB+N2qQOm0a0BjOIrBxoKwQNjv6kA918zBBqk+QOwTOsD2p5HB
8fmhQJhJS0CmAZXBqLZ4QOPlNUBvzKPBLXQnQFqGaECj/5TB1N3nQOJ6M0DX3prBdCnQQG9MzUAb
vcjBJlDVQFJgVb/dXL7BkDuyQP+yosCHMJLBwRy8QDrOJcCFxrHBoavLQANZX8DoN6DBDX7NQGEb
yT+qsLnB+8L2QFYBf0A+nKvBux8CQYews0DYJrrBB1iPQA5q6j5qNZzBIthqQJQEYEBisrbBFRJZ
QKHJlcCNNInBEjkzQDYjlL/f4ZrBtbFEQM0dvUARwMTB6piDQDg6qkBves/BrWJHQD8YhUCY8sfB
7JeMQJvZc0Dm2IXBplW/QDrZPUBP7oXBg1q7QI/elEDqyorBOQO/QO7o/kBlHdPBzXaVQJXq2EB5
ONDB7AKlQOl8/0DcTMbBUoRGQM0NLEA/m6jB2XbhP3THZ0BuJZnBv4knQGVhe0CKWo3BobLIQGwk
Cb9Qa7bBqvNGQLKOQcBkMJHBuYi6QJh6xL/2Uq/BS8heQOVPA8DHs5jBSRzCQEL1Uj+t/7PB2KCR
QHM1gUBJbrfB0xubQGOFnkC6n7/BYUieQDslOj4QdaPB4FbbQAk9hUBWNbHB+SZ+QBebg8CEPY/B
InKwQAHnVMDM5pvB/hKlQKOVlr/0z6XBEJqWQKbdDMBAKJ7BErOsQDK8mD9Fc6rBHFqxQLpMakBy
8K/BVAHlQNChokCAXrnBqdvEQNEAsED5lcDBtQPAQM9eOkAKzpzBjjFyQNmMVUAO1JnBsMamQHOq
KUAeDqfBCA8JQS5UtEAaPbrB+F+sQD1scUDLh4rBTrytQOGS4kAzFM7B9aKkQDL7h8DLi5TBw82h
QAIdUEAYMJXBrDx0QM6FNkCek6PB8wgpQGlwdEAf4ZTBUTfmQITxLUBiK5vBViHQQLxmzUAEcsjB
hq/YQF8hUL81wL3Btf0KQNYyPMCK8YzBPhbAQGTdJMCAKLHBqNc1QCslmr8BSJrBO2TNQCQbyz9K
bbnBh7xjQEyQZ0B12bbBs3mCQPvMp0DuOMXBn8iNQCXn6D7HL5zB4k/0QLKadUDx1avBnCRsQPNa
m8CTYYnBvkjOQHwBXcBCJKDBL54SQSyxn0Azh7/BVXkIQTbl1EDLkL3B2G0QQY07tUArQLLBUrOO
QP6RfUAbDIbBl+m/QNAvQkAvNIbBYHK+QBW9lkBBWovBLy67QGPJ+EBHBdTBKt6ZQCmKykBWKdLB
m/eZQLeB9EB1V8jBmqBAQEBzKUA0BKjBg0jiP4vwc0CfxpjBlSksQNGbhUDXaY3B/sbCQEwZCr8I
FLfBJFNKQDn1Q8Ax1pDB3Va1QNLoxL/q5q/BYFhfQDi4BMDCXJjB7My+QLwCUj92VbTBPFbdQKpE
hkDAMbHBM2HlQBxpo0BTj7nB4oueQGGNOD5IUqPBBK+TQEYbgEC6JLfBIDaBQNjLhMAeTI/B4S6w
QLCiVcByaJzBaPmiQAv8lr+h/6XBXdmVQKuSDcDSQ57BzNqsQFmnmD/9WarBl7azQCmVakCouK/B
cCWbQGEAnUBrh7/BGZ7EQDz7r0AztcDB4tPAQN2dOkADfZzBBMxyQHX7UkDftZnBwoyoQHD5KUCo
2KbBZGJrQEHkpEDKBMfBn1erQIyab0CJO4rB5eSxQNjP6UBpIs3BXtWlQFa8iMAdBJXBS9KhQKbf
TUD665TBFCR3QIZKN0DLlKPBRAMoQB3zbkCk2pTBr1rnQLCFM0CV3prBJgnRQBQxzEBbzMjBRjPQ
QKcYUb99ub7BQ9EPQNtaP8C+RYzB7hS5QIUjJcBf+bHBzNg1QPaxnL9jm5nBrXPJQLWDyj9e2bnB
LPX2QBe2eUAP5avBy5UCQXllsEA0iLrB6ASQQPhZ6D4ky5vBrs5oQKB8Y0DZXbbBeKFyQBLhnMBg
bInBvTvNQGEeXcBr/qDBSmtFQLMSwEDiD8TBa8uBQJUurEAnFM/BTuRCQEkgiECfV8fBJUqNQO5g
eUAW0YXBApa/QGO8QUAA4YXB4028QJh/lkAX/IrB4gPBQEp3/UBGYdPByAqXQMHK10A0nNDBlvWl
QNes/kCStMbB7HJEQKSXLEAvR6jBePDhP8S4bkCI75jBPCcpQPyqgUCpRY3B

> <OMEGA_E>
ACMsPADXaj2QxGc+fM6GPg==

> <OMEGA_NBR>
      3790

$$$$
50157415
  -OEChem-04172616093D

 50 53  0     1  0  0  0  0  0999 V2000
    3.7517    5.0502  -24.8763 C   0  0  0  0  0  0  0  0  0  0  0  0
    6.3049   -0.5730  -22.7999 C   0  0  0  0  0  0  0  0  0  0  0  0
    4.9451   -4.2227  -18.5026 C   0  0  0  0  0  0  0  0  0  0  0  0
    5.8256   -1.5631  -21.9201 C   0  0  0  0  0  0  0  0  0  0  0  0
    5.4229   -3.3279  -19.4726 C   0  0  0  0  0  0  0  0  0  0  0  0
    6.1312    0.7922  -22.4967 C   0  0  0  0  0  0  0  0  0  0  0  0
    6.9026    4.2279  -22.1544 C   0  0  0  0  0  0  0  0  0  0  0  0
    7.1371    5.1601  -23.1822 C   0  0  0  0  0  0  0  0  0  0  0  0
    4.6241    3.9467  -22.9437 C   0  0  0  0  0  0  0  0  0  0  0  0
    4.9670    0.1725  -20.4470 C   0  0  0  0  0  0  0  0  0  0  0  0
    3.6978   -3.9781  -17.8908 C   0  0  0  0  0  0  0  0  0  0  0  0
    3.4035   -2.0139  -19.1354 C   0  0  0  0  0  0  0  0  0  0  0  0
    4.8456    4.8696  -23.9745 C   0  0  0  0  0  0  0  0  0  0  0  0
    5.1431   -1.1892  -20.7424 C   0  0  0  0  0  0  0  0  0  0  0  0
    4.6459   -2.1978  -19.7902 C   0  0  0  0  0  0  0  0  0  0  0  0
    5.6215    3.6453  -21.9988 C   0  0  0  0  0  0  0  0  0  0  0  0
    5.4622    1.1751  -21.3077 C   0  0  0  0  0  0  0  0  0  0  0  0
    6.1162    5.5225  -24.0888 C   0  0  0  0  0  0  0  0  0  0  0  0
    6.0495    2.9087  -19.5925 C   0  0  0  0  0  0  0  0  0  0  0  0
    3.8101    3.2368  -19.2384 C   0  0  0  0  0  0  0  0  0  0  0  0
    5.2939    2.6372  -20.8865 C   0  0  1  0  0  0  0  0  0  0  0  0
    5.3641    3.6780  -17.2949 C   0  0  0  0  0  0  0  0  0  0  0  0
    5.4665    7.3038  -25.6462 C   0  0  0  0  0  0  0  0  0  0  0  0
    2.8420    5.1829  -25.5926 N   0  0  0  0  0  0  0  0  0  0  0  0
    2.9499   -2.8961  -18.2148 N   0  0  0  0  0  0  0  0  0  0  0  0
    5.0758    3.1745  -18.6420 N   0  0  0  0  0  0  0  0  0  0  0  0
    3.8860    2.8317  -20.4812 N   0  3  0  0  0  0  0  0  0  0  0  0
    2.6321    3.6317  -18.6219 N   0  0  0  0  0  0  0  0  0  0  0  0
    7.2542    2.8065  -19.3894 O   0  0  0  0  0  0  0  0  0  0  0  0
    6.4840    6.4573  -25.0596 O   0  0  0  0  0  0  0  0  0  0  0  0
    6.8079   -0.8615  -23.7111 H   0  0  0  0  0  0  0  0  0  0  0  0
    5.5267   -5.0900  -18.2274 H   0  0  0  0  0  0  0  0  0  0  0  0
    5.9802   -2.6078  -22.1465 H   0  0  0  0  0  0  0  0  0  0  0  0
    6.3678   -3.5028  -19.9655 H   0  0  0  0  0  0  0  0  0  0  0  0
    6.5083    1.5470  -23.1709 H   0  0  0  0  0  0  0  0  0  0  0  0
    7.7027    3.9558  -21.4819 H   0  0  0  0  0  0  0  0  0  0  0  0
    8.1155    5.6067  -23.2796 H   0  0  0  0  0  0  0  0  0  0  0  0
    3.6650    3.4553  -22.8731 H   0  0  0  0  0  0  0  0  0  0  0  0
    4.4438    0.4570  -19.5460 H   0  0  0  0  0  0  0  0  0  0  0  0
    3.3307   -4.6695  -17.1467 H   0  0  0  0  0  0  0  0  0  0  0  0
    2.8037   -1.1488  -19.3766 H   0  0  0  0  0  0  0  0  0  0  0  0
    4.4223    3.8045  -16.7408 H   0  0  0  0  0  0  0  0  0  0  0  0
    6.0075    2.9601  -16.7651 H   0  0  0  0  0  0  0  0  0  0  0  0
    5.8791    4.6472  -17.3683 H   0  0  0  0  0  0  0  0  0  0  0  0
    5.9283    7.9746  -26.3856 H   0  0  0  0  0  0  0  0  0  0  0  0
    4.7097    6.6778  -26.1415 H   0  0  0  0  0  0  0  0  0  0  0  0
    4.9879    7.9023  -24.8570 H   0  0  0  0  0  0  0  0  0  0  0  0
    3.0976    2.6750  -21.0761 H   0  0  0  0  0  0  0  0  0  0  0  0
    1.7718    3.6172  -19.1316 H   0  0  0  0  0  0  0  0  0  0  0  0
    2.6429    3.9309  -17.6678 H   0  0  0  0  0  0  0  0  0  0  0  0
  1 13  1  0  0  0  0
  1 24  3  0  0  0  0
  2  4  1  0  0  0  0
  2  6  2  0  0  0  0
  3  5  2  0  0  0  0
  3 11  1  0  0  0  0
  4 14  2  0  0  0  0
  5 15  1  0  0  0  0
  6 17  1  0  0  0  0
  7  8  2  0  0  0  0
  7 16  1  0  0  0  0
  8 18  1  0  0  0  0
  9 13  1  0  0  0  0
  9 16  2  0  0  0  0
 10 14  1  0  0  0  0
 10 17  2  0  0  0  0
 11 25  2  0  0  0  0
 12 15  2  0  0  0  0
 12 25  1  0  0  0  0
 13 18  2  0  0  0  0
 14 15  1  0  0  0  0
 16 21  1  0  0  0  0
 17 21  1  0  0  0  0
 18 30  1  0  0  0  0
 19 21  1  0  0  0  0
 19 26  1  0  0  0  0
 19 29  2  0  0  0  0
 20 26  1  0  0  0  0
 20 27  2  0  0  0  0
 20 28  1  0  0  0  0
 21 27  1  0  0  0  0
 22 26  1  0  0  0  0
 23 30  1  0  0  0  0
  2 31  1  0  0  0  0
  3 32  1  0  0  0  0
  4 33  1  0  0  0  0
  5 34  1  0  0  0  0
  6 35  1  0  0  0  0
  7 36  1  0  0  0  0
  8 37  1  0  0  0  0
  9 38  1  0  0  0  0
 10 39  1  0  0  0  0
 11 40  1  0  0  0  0
 12 41  1  0  0  0  0
 22 42  1  0  0  0  0
 22 43  1  0  0  0  0
 22 44  1  0  0  0  0
 23 45  1  0  0  0  0
 23 46  1  0  0  0  0
 23 47  1  0  0  0  0
 27 48  1  0  0  0  0
 28 49  1  0  0  0  0
 28 50  1  0  0  0  0
M  CHG  1  27   1
M  END
> <OMEGA_C>
kxtwQJ6boUCmAsfB0cHJQA2yEr8sZrbBRz6eQPQfh8BpBZTBYmu6QAEVyL9jXK/BooitQM37VMDz
x5vBKDPEQDzOSj9I+bPBYeLcQL1Kh0BAPLHBz2LkQJAfpUAtdbnBWfiTQOCWfEDMjLfBp/GeQE6j
MD5lk6PBialsQKmYfsBKII/BitNZQM3jAMBSFZnBHg+bQGPTm0DGy7/BqpSkQD84mL9W8KXBBauU
QI2pDMBRUp7BOeOzQMpLaUCX/a/BZ8quQE1qlj9BdqrBRrjDQPm3sEDgtcDBhJXBQIAoOkCBvZzB
hdhzQHAnT0As6JnBr2epQL7HKECIF6fBsKarQApla0DrW4rBeO2uQA256UBmK83Bq+I1QIzapUCa
vczBe8s8QO5YOcDot5HB2WyiQNAqS0DQIpXB5LR4QFY6NUCX2aPBoXMoQINtaEC4+ZTBuyLoQEOe
M0CDHZvBI33PQDqizkAOesjB89nZQLeLXL8+sL3BvtqwQJvhosCk0ZHBb12/QNLlJsAGLLHBXMXL
QMEtYMBkuZ/Bo0PQQIYExj8GXrnBvnz2QJUsfUD62qvBQdkBQXFqs0CyPLrBjI5qQEYjXUAU/LbB
uzOOQHIB6j4/XpzBHSpVQClslcCCLInBXnAzQO4Kk79RA5vBd4ONQPJ8c0Ah7YXBSD3AQI9yPUD6
HobB8SG8QCi2lEBK8orBCrW9QPUv/0DBFdPBz7WWQKGw1UDVIdHBtJyfQGvf/EAm28bBUD9GQJMz
K0DVm6jB3criPx6AZ0CMDZnBACYpQMqTe0CsV43BFkVtQOFmpUAJSsbBix/FQBhjDb9mx7bBc9ZH
QLCpQsDQ65DBohC3QL4Nxr9lo6/ByZNeQOybA8DJY5jBPZXAQOQtTz/aJbTBEs3cQA26hUDFV7HB
TePkQFn4okAIqrnBYPCSQLkkgECTLbfBgbieQEzDNT6fT6PBq7B+QBiXhMASUo/BkmqvQOdNVsBp
P5zBIYCaQAFUnUDJe7/BwKOjQCZ2l79Y36XB+bWVQIp0DcBhLJ7BGSWzQJXyaUAg06/BLVmtQGjE
lz/DVKrBfiLEQBv/r0AjvsDBxOXAQAStOkAInJzBGBtzQAgoU0A8xZnBTmOoQEN4KUC66qbBH8mr
QEffb0A4V4rBVUixQJfr50A/xs3BjYQxQNurq0BUpcvB9TWkQCQBicD46pTBRA6iQFovTkAuBZXB
YeZ2QH8mNkDilqPB3rkoQF0XcED06JTBi2XnQPGjMkC0ApvBYebQQPQJzUDsosjBMXXTQHaPVb9o
T77BrvUMQHtAPcAycozBACW7QFTIJcATorHBzAM2QCY3mb/4rpnBDsfLQOW+yD+8nrnBo3r2QNgM
eEDoF6zBSmICQRm1r0CaqLrBdzlnQC3CY0CqZ7bBk4yPQJg96T6i35vB8IZtQL+inMBRf4nBO63M
QI+CXsDDuqDB2M+NQG3jeUBf5oXBNADAQNrcQUCNAIbBpdq8QBiRlkArHIvBgA7BQP+L/EAwt9PB
TVqZQLa000DPydHBYGShQLPw+0BSucfBqPtDQPo4KkCBM6jBzu3iP4+Yb0Df8ZjBBV4qQA65gkAJ
X43B

> <OMEGA_E>
MDc0PojYtD4=

> <OMEGA_NBR>
      5777

$$$$
50157425
  -OEChem-04172616093D

 49 52  0     1  0  0  0  0  0999 V2000
    6.3620   -0.5456  -22.7644 C   0  0  0  0  0  0  0  0  0  0  0  0
    4.9759   -4.2122  -18.5036 C   0  0  0  0  0  0  0  0  0  0  0  0
    5.8768   -1.5384  -21.8920 C   0  0  0  0  0  0  0  0  0  0  0  0
    5.4513   -3.3069  -19.4647 C   0  0  0  0  0  0  0  0  0  0  0  0
    6.1511    0.8169  -22.4770 C   0  0  0  0  0  0  0  0  0  0  0  0
    4.6150    3.9707  -22.9844 C   0  0  0  0  0  0  0  0  0  0  0  0
    4.8914    4.8915  -24.0075 C   0  0  0  0  0  0  0  0  0  0  0  0
    4.9301    0.1890  -20.4628 C   0  0  0  0  0  0  0  0  0  0  0  0
    6.8842    4.2312  -22.1360 C   0  0  0  0  0  0  0  0  0  0  0  0
    3.7192   -3.9873  -17.9041 C   0  0  0  0  0  0  0  0  0  0  0  0
    3.4125   -2.0200  -19.1409 C   0  0  0  0  0  0  0  0  0  0  0  0
    5.1516   -1.1712  -20.7376 C   0  0  0  0  0  0  0  0  0  0  0  0
    4.6621   -2.1858  -19.7865 C   0  0  0  0  0  0  0  0  0  0  0  0
    5.4308    1.1949  -21.3168 C   0  0  0  0  0  0  0  0  0  0  0  0
    5.5932    3.6602  -22.0110 C   0  0  0  0  0  0  0  0  0  0  0  0
    6.1655    5.5072  -24.0922 C   0  0  0  0  0  0  0  0  0  0  0  0
    7.1632    5.1511  -23.1612 C   0  0  0  0  0  0  0  0  0  0  0  0
    6.0290    2.9096  -19.6053 C   0  0  0  0  0  0  0  0  0  0  0  0
    3.7973    3.2544  -19.2275 C   0  0  0  0  0  0  0  0  0  0  0  0
    5.2563    2.6561  -20.8966 C   0  0  2  0  0  0  0  0  0  0  0  0
    5.3751    3.6626  -17.2930 C   0  0  0  0  0  0  0  0  0  0  0  0
    5.3936    7.1521  -25.6817 C   0  0  0  0  0  0  0  0  0  0  0  0
    2.9617   -2.9123  -18.2288 N   0  0  0  0  0  0  0  0  0  0  0  0
    5.0686    3.1789  -18.6446 N   0  0  0  0  0  0  0  0  0  0  0  0
    3.8562    2.8702  -20.4800 N   0  3  0  0  0  0  0  0  0  0  0  0
    2.6323    3.6443  -18.5843 N   0  0  0  0  0  0  0  0  0  0  0  0
    7.2282    2.7521  -19.4024 O   0  0  0  0  0  0  0  0  0  0  0  0
    6.4915    6.4324  -25.0731 O   0  0  0  0  0  0  0  0  0  0  0  0
    8.7589    5.8636  -23.2606 Cl  0  0  0  0  0  0  0  0  0  0  0  0
    6.8981   -0.8301  -23.6577 H   0  0  0  0  0  0  0  0  0  0  0  0
    5.5665   -5.0726  -18.2257 H   0  0  0  0  0  0  0  0  0  0  0  0
    6.0594   -2.5812  -22.1058 H   0  0  0  0  0  0  0  0  0  0  0  0
    6.4037   -3.4668  -19.9482 H   0  0  0  0  0  0  0  0  0  0  0  0
    6.5390    1.5746  -23.1418 H   0  0  0  0  0  0  0  0  0  0  0  0
    3.6465    3.4949  -22.9401 H   0  0  0  0  0  0  0  0  0  0  0  0
    4.1292    5.1321  -24.7339 H   0  0  0  0  0  0  0  0  0  0  0  0
    4.3679    0.4691  -19.5842 H   0  0  0  0  0  0  0  0  0  0  0  0
    7.6606    3.9569  -21.4372 H   0  0  0  0  0  0  0  0  0  0  0  0
    3.3524   -4.6884  -17.1691 H   0  0  0  0  0  0  0  0  0  0  0  0
    2.8046   -1.1606  -19.3823 H   0  0  0  0  0  0  0  0  0  0  0  0
    4.4396    3.7969  -16.7301 H   0  0  0  0  0  0  0  0  0  0  0  0
    6.0115    2.9289  -16.7767 H   0  0  0  0  0  0  0  0  0  0  0  0
    5.9043    4.6247  -17.3593 H   0  0  0  0  0  0  0  0  0  0  0  0
    5.7853    7.8490  -26.4373 H   0  0  0  0  0  0  0  0  0  0  0  0
    4.7086    6.4378  -26.1620 H   0  0  0  0  0  0  0  0  0  0  0  0
    4.8517    7.7164  -24.9085 H   0  0  0  0  0  0  0  0  0  0  0  0
    3.0610    2.7399  -21.0723 H   0  0  0  0  0  0  0  0  0  0  0  0
    1.7636    3.6436  -19.0794 H   0  0  0  0  0  0  0  0  0  0  0  0
    2.6610    3.9260  -17.6252 H   0  0  0  0  0  0  0  0  0  0  0  0
  1  3  1  0  0  0  0
  1  5  2  0  0  0  0
  2  4  2  0  0  0  0
  2 10  1  0  0  0  0
  3 12  2  0  0  0  0
  4 13  1  0  0  0  0
  5 14  1  0  0  0  0
  6  7  2  0  0  0  0
  6 15  1  0  0  0  0
  7 16  1  0  0  0  0
  8 12  1  0  0  0  0
  8 14  2  0  0  0  0
  9 15  2  0  0  0  0
  9 17  1  0  0  0  0
 10 23  2  0  0  0  0
 11 13  2  0  0  0  0
 11 23  1  0  0  0  0
 12 13  1  0  0  0  0
 14 20  1  0  0  0  0
 15 20  1  0  0  0  0
 16 17  2  0  0  0  0
 16 28  1  0  0  0  0
 17 29  1  0  0  0  0
 18 20  1  0  0  0  0
 18 24  1  0  0  0  0
 18 27  2  0  0  0  0
 19 24  1  0  0  0  0
 19 25  2  0  0  0  0
 19 26  1  0  0  0  0
 20 25  1  0  0  0  0
 21 24  1  0  0  0  0
 22 28  1  0  0  0  0
  1 30  1  0  0  0  0
  2 31  1  0  0  0  0
  3 32  1  0  0  0  0
  4 33  1  0  0  0  0
  5 34  1  0  0  0  0
  6 35  1  0  0  0  0
  7 36  1  0  0  0  0
  8 37  1  0  0  0  0
  9 38  1  0  0  0  0
 10 39  1  0  0  0  0
 11 40  1  0  0  0  0
 21 41  1  0  0  0  0
 21 42  1  0  0  0  0
 21 43  1  0  0  0  0
 22 44  1  0  0  0  0
 22 45  1  0  0  0  0
 22 46  1  0  0  0  0
 25 47  1  0  0  0  0
 26 48  1  0  0  0  0
 26 49  1  0  0  0  0
M  CHG  1  25   1
M  END
> <OMEGA_C>
G5XLQLevC79tHbbBszqfQFbKhsBXB5TBew68QITrxL/FIq/B6nCuQLajU8DEt5vBIdbEQEkgUT/v
0LPBQK6TQD0ffkD437fBQoacQE6HnEBeD8DBQ8OdQMiQQT69s6PBiEvcQK1lh0CRFrHBwQduQLIv
f8CMO4/BLWZaQIZHAcCBIJnBjdmkQG/rlb+s5qXB8S+VQK3jC8CzSp7BzMitQALymD/DiKrBF/uy
QOo/akCaFrDBx0vFQNM6sEDEvMDBGDnlQKPVpEAYSrnBs+3AQDM2OkCy15zBTgdzQLJIUEDx0ZnB
SzOoQFn9KUAsLKfB9wCsQLtoakAbWIrBIZisQKPd5EA3dM3BsIs9QNFiOsCP1JHBvDGiQCtzS0Ae
KJXB3st2QJWwN0Ai16PBR3goQJ07aUCMrJTBpk3nQOEhMEAGOJvB/bnPQE7WzUC0lcjBTiQMQQSj
u0DOFbrB8LzcQIKCVL/+Qr3B/yCyQBhTosBCzpHBd+bBQBMyJcDC2LDBEuvMQL3fXcDolZ/BbD/R
QPiLyT9UIrnBgV9pQNmsX0BahbfBxCKEQDo6pEAH38XB2MWLQH8q8D5irJzB3SP1QOA9fUBaf6vB
0I1WQIsHlsA6WonBn34zQA6OlL8BD5vBlxGOQEEAc0BC14XBeV7AQEdzO0CgNobBE/C8QJn9k0DV
34rBRSG5QK4q+0CXf9PB06yWQKwCzkDeS9HBdEGbQNjs9kCXRMfBCehDQDVaL0AOlKjBH7zhP4Ix
aUCvopjBGU4qQJNDe0BjAI3BltrJQJlhD79YWrbBjYSeQCgnh8AnFJTBypy6QG6ixr/uUa/Bht2t
QGCRVMDAxpvBGiTEQKvpTT9w7bPBGe3cQCgdh0DTQbHBIazkQLybpEAWi7nBG+aeQHLUOD5ciaPB
rK2TQNJnfkAcd7fBg89sQMxSf8AgQY/B8/hZQPUqAcDEH5nBFLukQE4hl7865qXBjuSUQCdbDMBd
Tp7BJqauQPaxlz9HbKrBX7WzQJAKakA086/BYvDDQCWAsEAmwMDBDOuaQJShnEBet7/BXG/BQA51
OkAdr5zBK51zQOejT0AJ2JnBCDapQO5pKUBJDKfBpnmrQA1FakD9PIrB9/GuQDo96UDiFM3BecQ8
QNUqOsDn1ZHB60WiQEUMS0CREJXByF14QO7eNUD8y6PBRWUoQFg/aUDo5ZTBHvPnQJw2M0DNC5vB
TprPQIzNzUCqnsjBEoNfQK7vpEACaMjBf//ZQLC/WL/eo73BFTyxQLLUosDn3pHBVKq/QNciJsBq
IrHBGDnMQBdRX8BMrp/BFCfQQBe8xz8iUbnB6nz2QL6CfEBu4avB1xYCQdViskAzaLrBCReOQFoM
7T5hVZzBZY1pQFzbX0CI2LbBVCNVQBYDlsC3XYnBCH0zQGWlk7/CCJvBdVGNQEExckAVz4XBv/K/
QHzOO0C0DYbBfhK8QP8clECnu4rB7Um9QK9W/kD0JNPBy+yVQCeA1UCB0dDB0L6gQALE/ECIrcbB
4t1FQB33K0CHjajBv6DiP9i4aECb+JjBZz4pQGg8fEBQQo3BJzLGQBrIDr8liLbBM2dHQA35QcBz
z5DBFDa4QGI9xr/gWK/BLexeQIP6AsB9P5jB8u3AQGcgTj+/CrTBytaSQHnHgEALd7fBvN6bQNMu
nkDwpr/BE5GeQIZ0Oz5YP6PBgK7cQPlPhUD4V7HBqtJ9QMtehMAKKY/BPoqvQJ0sVsCP+pvBUTSk
QG8Il79XqqXBVBCWQBMODcCn853BQ/asQHEDmD86VqrBq7SyQCjwaUCV/a/BFmDFQEgesEDxp8DB
EcPlQBXlokBDhLnBS63AQB28OkAFvZzBvg1zQM3OU0DyxpnB8sanQG/MKUAZB6fBGEusQA/VbkA4
YIrBMhStQJmU4UDCRc7B+/GjQPLsiMBArpTBayCiQHkQTkDCFZXBggl2QC5ON0Bfo6PBHVEpQCYo
cUAlzpTBjhnnQCAxMUAhJJvBeQLQQEsKzkAocMjBNsgMQY/Ft0CsnrrBygnVQNMRWL+j/b3B/kAM
QBtTPMBrZYzBxsq8QOrtJcBSPrHBKKk2QB6hl79rlJnBRSLMQN3Nxz+lirnBZ3FmQMEPZkAp3rbB
sAuDQCo1p0BJOcXBpgSPQKlF7j6B3pvBbvD1QFPkdUDaC6zBXQ1sQEdmnMCEXInB1+/MQK6bXsDQ
ZaDBPXyOQPfveEB03oXB53fAQGE2QEDeIIbBxI69QOvzlUC9GovBKfW5QN5z+EDAItTBXsaaQIuh
yECad9LBqvOXQBqA8kCKpcjBwMlCQAlALED1OajBYofjP6xxcUALx5jBh7UrQKsDg0ChP43BUh/G
QHh4Er8RirbBJUdGQJtnQ8Bh+pDB0wS4QOK8x7+NWK/B9ZhdQBZ0BMCqb5jBhRHBQL67Sj/QDbTB
mb3cQBzWhUA2XLHBOvDkQAFRo0BbnbnBhXyeQI23Mz7fRKPBv0aTQNHdfkDRfbfBzN99QE55hMC1
H4/BN/WvQDVWVcCqx5vBc/yjQN4PmL/craXBTOOVQLZxDcAV9J3B0TKtQETBlj8CWKrBwimzQDNX
aUAG/a/BpFfEQCkhsECxwcDBzvmaQPvRnEDXvb/BK97AQKhuOkCDvZzBbSlzQAQfU0An3ZnBqj+o
QCA+KUBgCafBO++rQGG6bkCRaorBxiSwQGEH6EDEeM3BHHSkQCR4iMAdd5TBwhqiQKHETUBCIZXB
P8J2QL/BNkAVuKPBOvsoQLnXb0Dw75TB90/nQId0MUBrIpvBq5zQQEgFzkCUccjBAZBfQLfUpUBt
Y8jBA+TUQEJ2XL8sAL7BkGUKQOSlPsAwtIzB4oe8QFK6JsCmObHB0nY0QG1gnL+I65nBC1zMQO7a
xT9Oj7nBFEL2QM+DeEBQDKzBnl0CQUdjsEDEgbrBls+OQOik6z7e6ZvBCkFoQHFXYUCs3rbBJjts
QFd5nMC0T4nBF8DNQOrfXMBqDqDB9v2NQADBeEBv9oXBvgzAQABFQECsH4bB4iS9QPbvlUAvIYvB
STa/QFS5/UDKSdPBZBKZQOo+00CxndHBKmafQL/t+kAyV8fB6cZDQEDFK0AtW6jBcDLjP3m5b0BM
8pjBy+IqQFlVgkBXYI3B

> <OMEGA_E>
AG6lPACGRT2YzWY+CLmAPg==

> <OMEGA_NBR>
      9412

$$$$
50157426
  -OEChem-04172616093D

 52 55  0     1  0  0  0  0  0999 V2000
    6.4234   -0.5348  -22.7469 C   0  0  0  0  0  0  0  0  0  0  0  0
    4.9887   -4.2058  -18.4929 C   0  0  0  0  0  0  0  0  0  0  0  0
    5.9453   -1.5333  -21.8760 C   0  0  0  0  0  0  0  0  0  0  0  0
    5.4804   -3.3062  -19.4515 C   0  0  0  0  0  0  0  0  0  0  0  0
    6.1770    0.8250  -22.4719 C   0  0  0  0  0  0  0  0  0  0  0  0
    4.5722    3.9981  -22.9630 C   0  0  0  0  0  0  0  0  0  0  0  0
    4.8650    4.9176  -23.9826 C   0  0  0  0  0  0  0  0  0  0  0  0
    4.9465    0.1826  -20.4699 C   0  0  0  0  0  0  0  0  0  0  0  0
    6.8458    4.2005  -22.1294 C   0  0  0  0  0  0  0  0  0  0  0  0
    3.7260   -3.9728  -17.9086 C   0  0  0  0  0  0  0  0  0  0  0  0
    3.4401   -2.0134  -19.1596 C   0  0  0  0  0  0  0  0  0  0  0  0
    5.1972   -1.1729  -20.7341 C   0  0  0  0  0  0  0  0  0  0  0  0
    4.6982   -2.1849  -19.7874 C   0  0  0  0  0  0  0  0  0  0  0  0
    5.4300    1.1921  -21.3247 C   0  0  0  0  0  0  0  0  0  0  0  0
    5.5509    3.6578  -22.0033 C   0  0  0  0  0  0  0  0  0  0  0  0
    7.1460    5.1514  -23.1245 C   0  0  0  0  0  0  0  0  0  0  0  0
    6.1497    5.5141  -24.0708 C   0  0  0  0  0  0  0  0  0  0  0  0
    6.0149    2.8950  -19.6111 C   0  0  0  0  0  0  0  0  0  0  0  0
    3.7929    3.2842  -19.2304 C   0  0  0  0  0  0  0  0  0  0  0  0
    5.2291    2.6449  -20.8979 C   0  0  2  0  0  0  0  0  0  0  0  0
    5.3909    3.7018  -17.3099 C   0  0  0  0  0  0  0  0  0  0  0  0
    5.3928    7.0894  -25.7477 C   0  0  0  0  0  0  0  0  0  0  0  0
    8.5702    5.7031  -23.2169 C   0  0  0  0  0  0  0  0  0  0  0  0
    2.9757   -2.8978  -18.2482 N   0  0  0  0  0  0  0  0  0  0  0  0
    5.0670    3.2072  -18.6538 N   0  0  0  0  0  0  0  0  0  0  0  0
    3.8328    2.8455  -20.4663 N   0  3  0  0  0  0  0  0  0  0  0  0
    2.6407    3.7147  -18.5916 N   0  0  0  0  0  0  0  0  0  0  0  0
    7.2044    2.6807  -19.4010 O   0  0  0  0  0  0  0  0  0  0  0  0
    6.4817    6.4141  -25.0780 O   0  0  0  0  0  0  0  0  0  0  0  0
    9.2517    5.5202  -22.0537 F   0  0  0  0  0  0  0  0  0  0  0  0
    8.5650    7.0386  -23.4658 F   0  0  0  0  0  0  0  0  0  0  0  0
    9.2252    5.0537  -24.2131 F   0  0  0  0  0  0  0  0  0  0  0  0
    6.9812   -0.8126  -23.6290 H   0  0  0  0  0  0  0  0  0  0  0  0
    5.5716   -5.0684  -18.2054 H   0  0  0  0  0  0  0  0  0  0  0  0
    6.1508   -2.5734  -22.0815 H   0  0  0  0  0  0  0  0  0  0  0  0
    6.4387   -3.4708  -19.9216 H   0  0  0  0  0  0  0  0  0  0  0  0
    6.5574    1.5876  -23.1353 H   0  0  0  0  0  0  0  0  0  0  0  0
    3.5919    3.5478  -22.9121 H   0  0  0  0  0  0  0  0  0  0  0  0
    4.1055    5.1734  -24.7066 H   0  0  0  0  0  0  0  0  0  0  0  0
    4.3731    0.4561  -19.5965 H   0  0  0  0  0  0  0  0  0  0  0  0
    7.6225    3.8813  -21.4503 H   0  0  0  0  0  0  0  0  0  0  0  0
    3.3490   -4.6679  -17.1731 H   0  0  0  0  0  0  0  0  0  0  0  0
    2.8367   -1.1549  -19.4152 H   0  0  0  0  0  0  0  0  0  0  0  0
    4.4611    3.8726  -16.7475 H   0  0  0  0  0  0  0  0  0  0  0  0
    6.0060    2.9570  -16.7837 H   0  0  0  0  0  0  0  0  0  0  0  0
    5.9486    4.6464  -17.3915 H   0  0  0  0  0  0  0  0  0  0  0  0
    5.7969    7.7661  -26.5150 H   0  0  0  0  0  0  0  0  0  0  0  0
    4.7373    6.3453  -26.2237 H   0  0  0  0  0  0  0  0  0  0  0  0
    4.8153    7.6707  -25.0138 H   0  0  0  0  0  0  0  0  0  0  0  0
    3.0294    2.6716  -21.0358 H   0  0  0  0  0  0  0  0  0  0  0  0
    1.7661    3.7030  -19.0763 H   0  0  0  0  0  0  0  0  0  0  0  0
    2.6839    4.0371  -17.6459 H   0  0  0  0  0  0  0  0  0  0  0  0
  1  3  1  0  0  0  0
  1  5  2  0  0  0  0
  2  4  2  0  0  0  0
  2 10  1  0  0  0  0
  3 12  2  0  0  0  0
  4 13  1  0  0  0  0
  5 14  1  0  0  0  0
  6  7  2  0  0  0  0
  6 15  1  0  0  0  0
  7 17  1  0  0  0  0
  8 12  1  0  0  0  0
  8 14  2  0  0  0  0
  9 15  2  0  0  0  0
  9 16  1  0  0  0  0
 10 24  2  0  0  0  0
 11 13  2  0  0  0  0
 11 24  1  0  0  0  0
 12 13  1  0  0  0  0
 14 20  1  0  0  0  0
 15 20  1  0  0  0  0
 16 17  2  0  0  0  0
 16 23  1  0  0  0  0
 17 29  1  0  0  0  0
 18 20  1  0  0  0  0
 18 25  1  0  0  0  0
 18 28  2  0  0  0  0
 19 25  1  0  0  0  0
 19 26  2  0  0  0  0
 19 27  1  0  0  0  0
 20 26  1  0  0  0  0
 21 25  1  0  0  0  0
 22 29  1  0  0  0  0
 23 30  1  0  0  0  0
 23 31  1  0  0  0  0
 23 32  1  0  0  0  0
  1 33  1  0  0  0  0
  2 34  1  0  0  0  0
  3 35  1  0  0  0  0
  4 36  1  0  0  0  0
  5 37  1  0  0  0  0
  6 38  1  0  0  0  0
  7 39  1  0  0  0  0
  8 40  1  0  0  0  0
  9 41  1  0  0  0  0
 10 42  1  0  0  0  0
 11 43  1  0  0  0  0
 21 44  1  0  0  0  0
 21 45  1  0  0  0  0
 21 46  1  0  0  0  0
 22 47  1  0  0  0  0
 22 48  1  0  0  0  0
 22 49  1  0  0  0  0
 26 50  1  0  0  0  0
 27 51  1  0  0  0  0
 27 52  1  0  0  0  0
M  CHG  1  26   1
M  END
> <OMEGA_C>
44zNQCnpCL+W+bXBl6OfQDOWhsCF8ZPBMkC+QERCxL8QAq/BI1+vQDqZU8CqnJvBL6rFQEoxUz9h
xrPB0k+SQKDgf0AwtLfB362bQMVcnUBa3L/BW0meQNz9Oj5wwqPBBBHbQJxqhkAcCbHBcnduQO9B
fsDDRI/BTipcQJrbAMDlRpnBb0+mQK4hlr9W36XB3VeWQFTVC8CQTJ7BaMKtQOGWmD/7mKrBKaGx
QA8ZakDPBrDBtqvkQGXYpEAR/7jBtcrEQD9zsEDokMDBt3nAQKVHOUCM45zBZL9yQIwvUkDt15nB
2lSnQJFGKUDrLqfBGYKsQBTqbEC5eorBApKsQL7c4kBM+83BlB8JQYZ/tkArvLnBJ3E+QBR2OcBb
/JHB3SSiQIxDTUAFO5XBmUx1QA0dNkAEu6PBogApQAy+bUCEu5TB2IrmQCuRK0BWNZvB1WnPQPo/
zUDUn8jBCwcUQXGlsEDibbDBMwoJQRY84UAAurvBR5oTQc63oUBqtMHB+2XfQPkGUL8tCL3BXkqy
QDYwosCgpJHBJdPEQE6zJMD3prDBeQnOQAwhXsByX5/BetbRQG81yz8UFbnBheFlQOYPY0D2S7fB
RmCDQHOMpUAUp8XBL/CLQPCF6T62xZzBnevzQHFmeEA6mqvBWFVWQMVflcB4YonBzow1QCzUk79t
UpvBDMGOQA3Yd0D0+oXBQTHAQNg/PUD3RIbBTFu+QBevlEDRIYvBfYC5QC6E+EDHHtTBMJiXQMQM
y0AqytHBFReaQG529UBAHMjB0+FBQGH7KkBRSajBvw7iP4P+bEA7nJjB1cUrQIYvgUDZKo3BkmnN
QEQYH7/14LXBjhOfQNBWhsAEVJPB7py9QGGZzL+Qyq7BYceuQAxJVMC5IZvBOSnGQKqzPj8v2LPB
tzKTQDX6ekBQOrjBxbmbQPGEnEBaDsDByVeeQI/9Gz7ow6PBYDDcQL3Vg0DRo7HBe5BtQH3OfMD5
pI7BTWxbQAmnAMD/5pjBLtqlQDLXmr+jsqXBZdWVQI/ADMDt853BrkuuQGDSkT/du6rBmquyQOk9
ZUCflrDBiWLlQA56okBylbnB32/EQAOGsEBkj8DBeBnBQOLROECqW53Bazx0QAq7VEBMgprBCxyo
QOJVJkAvlafBjsSsQNg7bUDGAovBDLCtQM/B3UBUT8/BmBEJQTP7tUAJULrB6sQ9QGkdOMD8d5HB
YpWjQNf1WkA9TJbBneV2QMxkNECHMKTBPW4pQOFabEA7UpXB5XfmQN2fJkAwYpvBmHrNQMtl0kDO
bsfBfxEIQUvd30BHd7fBWX8QQaaZskCSf8TBBkkXQWEDokCJw7PBciXfQCXMa79/5bzBMqmxQH3a
ocBB7pDBOqrDQFZCKcAwT7DBrl/NQBCIX8Bl5Z7BW8jSQA4Avz+7ObnBw8toQNWoW0AjC7jBPSmD
QCM6pUD0usXBdgyMQIpa5T6405zBCj31QNPLckAsSqzB+WdVQCI7lMBDqojB6Pw0QE6dk78bCpvB
nw2QQJP6g0ClK4fBRQm2QOeyMUDw7IbBBRzHQAnejUDneYrB5lO5QLPf+EByG9TBo66nQOYzwkB8
k9TBs86PQMzY5kBFQMvB03dDQPcbJ0D5pqjBNerhP58VZUBV+ZjBgfUrQLlUgkBq7Y3BNE/JQIgj
B7/eZbbB9bhIQM85QsCIKJHBcvq6QAa9w79tWq/BtDRgQLlvA8DunZjBiobCQG5YVD+I97PB9O+R
QBe3gEBnkLfBwLybQIe1nUBMy7/B1jGeQCP+OT6fgaPBloDbQAhHhEBxVrHBdHp/QHVLhMCPbY/B
t5iwQCTZVcARLpzBE0KlQN50lr9g3aXBH/KWQMEhDcCXO57Bd7KsQIr6mD/kdqrBxGaxQP66aUBU
ArDBahvmQKOzoEC7rbnB+JnFQAzwrkDLysDB8QvAQM0kOkAlzZzB8k5yQELfVECYwpnBpLemQFa3
KUDJD6fBYI+sQBwFcEBDeIrBtHKtQAdr4kAXBc7BhcgJQU79skAFHbrBOfGkQNS6iMDy4ZTBGuGh
QAUCT0CdI5XBajd0QA3vNkAtkaPBA1QpQFJtc0DevJTBljnmQDx4LUBrKJvBFSXQQLE7zUCyhMjB
QAEYQVavmEBwJ7XBDdgJQdFm2UCvCrXBF74QQQQQuEBtVMTB4pPZQCpMTb/fsr3BdFkNQPm9PMC/
yYzB0ZjAQNdwJMCLNLHBzpE3QMtemb/DCJrBF/nNQIYZzD8gWrnBREFkQEvHZkAQArfBazKDQJH9
pkD4asXBVm6NQHY05z4ZRJzB5iP0QFkjdECs16vBGrJtQNxGnMAPnonBhSrOQMQDXsDGiKDBh/CO
QNN6e0Cz74XBLWPAQDrpQEBPNIbBKV6+QLQzlkBWRovBpY26QNhP+UCr2NPB9t2ZQN56ykD1ONLB
WH2ZQGiX80DuLcjB7IlAQMTNKkBGCajBNr/iP/SPc0D1npjBhKUsQCSqhEB2O43BUJW9QNZi9L6I
3LfBqCZ8QF/yjcDaTprBG1qxQMVgvr9NsLDBaMuHQJJOXcAv+6HBz2S7QDEGXz+HxLTBIDfVQDME
k0Cova7BiN/fQLTIrkBmJbfBDlafQLylUz4QYKPBkvGZQKmrbUAQU7nB6qSEQB3UhMBcYo/BHYid
QNCt/7+RZpPB3dGiQMSCk7/tUKbBrM+XQHSODcBAhZ7BJDGrQCDZnT+niarBSSayQA8fbUB3wK/B
hZilQABdkUCKAcLByFvIQMchrkCawsDBhl+/QEuHO0A4iJzB16twQM7BV0BvjJnBn3umQGjXLECh
5KbBXoerQDFCbUB59YnBIorEQEa/9EBxjsfB+euMQIInj0BkmczBUhSUQJgDPcDaG4zBJ+6hQENq
XEAHTZXBMLJzQJ5JPUDji6PB85AlQN0mbEBBJZTBTF3lQAOsLEBw45rBRLHTQE5pyUCg8MjBNH1c
QBmIYEC0dMzBKFuoQMQihkCnv9TBr+FyQDQ5tUBgjs7Bi7LIQFrPPL/vxb/BDWFjQES0rMCHvpzB
bAuzQMd6IcA5GbPBVBiDQPD2acC4ZKrBMR3GQGr40T9PNbrBPNXnQHNUk0BNdqfBokT6QDfMxEDH
PbbBL22TQNfV7T75h5vBvk98QFXvREDpALrBWWJ6QJP4nMBCfYnBHsGpQG7whb9ArZDBe+KOQFeK
g0DK/YXB/iG1QB5FMUBWB4bBE8DFQPv/jUBYYonBHN/OQIQxBEElY87B4mKhQE299EB3GsfBgtHR
QOENAUFhH8DBU35AQFlgNUA3PqjBw0PaP08TZ0B23ZfBewEoQO3jf0CoiozBife9QNVN977MprfB
wh+UQBonQcAo+IvBgfWxQJp8vr8/abDBsICeQLBF/r+2HpPBe6q7QOYvXj8yobTBYBPVQIcyk0CK
z67BtoXfQOXKrkCkRLfBduqfQGVRXD6dLaPB8NCZQLz3bEAfT7nBwEGEQN6Uh8BiA5DBOcuIQHgK
XcCtqKHBUpOjQLmtkr+mCqbBZsWYQIflDMBjMp7BW42rQPpMnj8CaKrByyCyQLkebUDNwK/BSUGl
QHfXkEBNCsLBfujHQAjKrUBw3cDBeK6/QGmfPEAngZzBdT1xQJ9lWEAifZnBPbKmQOQ1LUDL1abB
LvWrQBkcb0Cw9InBvcHDQHY39EAyxcfBenaMQP9DjkBanMzBILZ9QNv8jcBupZrBiUGiQOueXUDJ
RpXBMSN0QOV3PUDKd6PBLy4mQEu5bEBpEpTBrLjlQOElLkC64JrBkwnTQMnlyEDtGMnB/9FbQC6E
XkBJZczB09WnQMomhUBKxNTBdp1xQHM1tEDenM7BV/7IQEuyP78gj7/BiD6YQKtOOMBpdoPBB7az
QNmmIcBcxLLBNqyqQOaWhb9QNJDBDzvGQNQb0T/JHrrB/8PnQLfIk0Bsi6fBp9T5QJHxxEC5arbB
9gmUQE/v9D6rV5vBOzl8QN3zQ0DF77nBWm54QK71oMDxgIrBgmyEQHM+aMBHHarB206PQIhxhEB7
/IXBwry1QGxmM0CL/IXBMxbGQM8Mj0AScInB/e3NQJPbA0EmpM7BK5ygQDIa9ECOScfBQxfRQAvo
AEGNXsDBhdtAQBgjNUDRI6jBL1vbP5c6Z0APxJfBmLgoQIFqgEDSe4zB

> <OMEGA_E>
AFCWPYDOwT1A0I8+qDPsPoDS7T4=

> <OMEGA_NBR>
     14076

$$$$
50157443
  -OEChem-04172616093D

 53 56  0     1  0  0  0  0  0999 V2000
    6.4850   -0.5162  -22.6955 C   0  0  0  0  0  0  0  0  0  0  0  0
    4.9477   -4.2276  -18.5259 C   0  0  0  0  0  0  0  0  0  0  0  0
    5.9827   -1.5188  -21.8457 C   0  0  0  0  0  0  0  0  0  0  0  0
    5.4579   -3.3152  -19.4619 C   0  0  0  0  0  0  0  0  0  0  0  0
    6.2303    0.8404  -22.4192 C   0  0  0  0  0  0  0  0  0  0  0  0
    4.5158    4.1020  -22.8635 C   0  0  0  0  0  0  0  0  0  0  0  0
    4.7964    5.0051  -23.9042 C   0  0  0  0  0  0  0  0  0  0  0  0
    4.9519    0.1891  -20.4507 C   0  0  0  0  0  0  0  0  0  0  0  0
    6.8716    4.0707  -22.2506 C   0  0  0  0  0  0  0  0  0  0  0  0
    3.6724   -4.0040  -17.9662 C   0  0  0  0  0  0  0  0  0  0  0  0
    3.4119   -2.0262  -19.1952 C   0  0  0  0  0  0  0  0  0  0  0  0
    5.2046   -1.1660  -20.7217 C   0  0  0  0  0  0  0  0  0  0  0  0
    4.6832   -2.1888  -19.7985 C   0  0  0  0  0  0  0  0  0  0  0  0
    5.4563    1.2051  -21.2878 C   0  0  0  0  0  0  0  0  0  0  0  0
    5.5433    3.6658  -21.9902 C   0  0  0  0  0  0  0  0  0  0  0  0
    6.1243    5.4492  -24.1233 C   0  0  0  0  0  0  0  0  0  0  0  0
    7.1595    4.9312  -23.3247 C   0  0  0  0  0  0  0  0  0  0  0  0
    6.0300    2.9409  -19.5902 C   0  0  0  0  0  0  0  0  0  0  0  0
    3.8042    3.2681  -19.1854 C   0  0  0  0  0  0  0  0  0  0  0  0
    5.2388    2.6617  -20.8680 C   0  0  2  0  0  0  0  0  0  0  0  0
    5.3991    3.6642  -17.2620 C   0  0  0  0  0  0  0  0  0  0  0  0
    5.4170    7.1556  -25.6820 C   0  0  0  0  0  0  0  0  0  0  0  0
    9.1392    6.0204  -22.6370 C   0  0  0  0  0  0  0  0  0  0  0  0
    2.9288   -2.9243  -18.3064 N   0  0  0  0  0  0  0  0  0  0  0  0
    5.0800    3.1883  -18.6139 N   0  0  0  0  0  0  0  0  0  0  0  0
    3.8424    2.8392  -20.4242 N   0  3  0  0  0  0  0  0  0  0  0  0
    2.6524    3.6955  -18.5431 N   0  0  0  0  0  0  0  0  0  0  0  0
    7.2375    2.8283  -19.4069 O   0  0  0  0  0  0  0  0  0  0  0  0
    6.4788    6.3716  -25.0992 O   0  0  0  0  0  0  0  0  0  0  0  0
    8.4618    5.2426  -23.6377 O   0  0  0  0  0  0  0  0  0  0  0  0
    7.0679   -0.7884  -23.5629 H   0  0  0  0  0  0  0  0  0  0  0  0
    5.5258   -5.0928  -18.2368 H   0  0  0  0  0  0  0  0  0  0  0  0
    6.1923   -2.5578  -22.0530 H   0  0  0  0  0  0  0  0  0  0  0  0
    6.4254   -3.4737  -19.9149 H   0  0  0  0  0  0  0  0  0  0  0  0
    6.6255    1.6058  -23.0706 H   0  0  0  0  0  0  0  0  0  0  0  0
    3.5082    3.7376  -22.7283 H   0  0  0  0  0  0  0  0  0  0  0  0
    3.9979    5.3611  -24.5383 H   0  0  0  0  0  0  0  0  0  0  0  0
    4.3615    0.4569  -19.5869 H   0  0  0  0  0  0  0  0  0  0  0  0
    7.6729    3.7162  -21.6192 H   0  0  0  0  0  0  0  0  0  0  0  0
    3.2797   -4.7102  -17.2497 H   0  0  0  0  0  0  0  0  0  0  0  0
    2.8138   -1.1642  -19.4510 H   0  0  0  0  0  0  0  0  0  0  0  0
    4.4700    3.7805  -16.6848 H   0  0  0  0  0  0  0  0  0  0  0  0
    6.0527    2.9347  -16.7614 H   0  0  0  0  0  0  0  0  0  0  0  0
    5.9141    4.6340  -17.3269 H   0  0  0  0  0  0  0  0  0  0  0  0
    5.8363    7.8399  -26.4343 H   0  0  0  0  0  0  0  0  0  0  0  0
    4.6878    6.4861  -26.1615 H   0  0  0  0  0  0  0  0  0  0  0  0
    4.9171    7.7385  -24.8944 H   0  0  0  0  0  0  0  0  0  0  0  0
   10.1692    6.2240  -22.9651 H   0  0  0  0  0  0  0  0  0  0  0  0
    8.6067    6.9715  -22.4893 H   0  0  0  0  0  0  0  0  0  0  0  0
    9.1600    5.4610  -21.6900 H   0  0  0  0  0  0  0  0  0  0  0  0
    3.0376    2.6577  -20.9893 H   0  0  0  0  0  0  0  0  0  0  0  0
    1.7778    3.6889  -19.0279 H   0  0  0  0  0  0  0  0  0  0  0  0
    2.6961    4.0105  -17.5950 H   0  0  0  0  0  0  0  0  0  0  0  0
  1  3  1  0  0  0  0
  1  5  2  0  0  0  0
  2  4  2  0  0  0  0
  2 10  1  0  0  0  0
  3 12  2  0  0  0  0
  4 13  1  0  0  0  0
  5 14  1  0  0  0  0
  6  7  2  0  0  0  0
  6 15  1  0  0  0  0
  7 16  1  0  0  0  0
  8 12  1  0  0  0  0
  8 14  2  0  0  0  0
  9 15  2  0  0  0  0
  9 17  1  0  0  0  0
 10 24  2  0  0  0  0
 11 13  2  0  0  0  0
 11 24  1  0  0  0  0
 12 13  1  0  0  0  0
 14 20  1  0  0  0  0
 15 20  1  0  0  0  0
 16 17  2  0  0  0  0
 16 29  1  0  0  0  0
 17 30  1  0  0  0  0
 18 20  1  0  0  0  0
 18 25  1  0  0  0  0
 18 28  2  0  0  0  0
 19 25  1  0  0  0  0
 19 26  2  0  0  0  0
 19 27  1  0  0  0  0
 20 26  1  0  0  0  0
 21 25  1  0  0  0  0
 22 29  1  0  0  0  0
 23 30  1  0  0  0  0
  1 31  1  0  0  0  0
  2 32  1  0  0  0  0
  3 33  1  0  0  0  0
  4 34  1  0  0  0  0
  5 35  1  0  0  0  0
  6 36  1  0  0  0  0
  7 37  1  0  0  0  0
  8 38  1  0  0  0  0
  9 39  1  0  0  0  0
 10 40  1  0  0  0  0
 11 41  1  0  0  0  0
 21 42  1  0  0  0  0
 21 43  1  0  0  0  0
 21 44  1  0  0  0  0
 22 45  1  0  0  0  0
 22 46  1  0  0  0  0
 22 47  1  0  0  0  0
 23 48  1  0  0  0  0
 23 49  1  0  0  0  0
 23 50  1  0  0  0  0
 26 51  1  0  0  0  0
 27 52  1  0  0  0  0
 27 53  1  0  0  0  0
M  CHG  1  26   1
M  END
> <OMEGA_C>
v4TPQPQkBL9tkLXBW1OeQI1Ih8ABNZTBPXK/QIhnwr/uw67BgqeuQPwrVMDgsZvBn17HQJshVz+T
WrPBg4GQQO5Dg0Ba6LbBTHyZQJopoEDVO7/BrHWeQHCmQT4Mm6PBguTbQFBDgkA4AbLB3whrQGQg
gMDguo/BOl1aQMKtAcCzj5nB34umQMY+lb8TxqXBaNyVQJcVDMBKY57Bn5muQEpBmj96TarBAmOx
QH+cakDm66/BF/rDQINfrkB5/MDBXRrlQKzMnUDnmLrBt/XAQCE4PECmuJzBlXdzQDcoUUCZe5nB
V6SnQANaKkCk8abBg8WsQKmBakCYGIrBeVitQK365ECvdM3BMToSQdCmwEB+GLXBk3E7QHAnO8CT
c5LBL4+iQDsNTEAt6ZTBk+p1QLa1NUCxZKPBUcApQMODbEA+WJTBnZnnQKMDNUBtQZvB9VHPQB3k
y0A5y8jBamMHQYHDp0AWGr3BoiziQMLUSb/ngLzBh9OwQDv4osDo5JHBcifGQD6yI8CfbLDBO53N
QFNRXsCmUZ/BtgPUQGOLzT+mkLjB5IVgQPs0b0Cl07XB+91/QHmOq0BdTsTBe5GLQBbw6T74sZzB
VIj1QOXVbUAM9KzBF+dRQMu5lsBi/4nBRhU0QAEDlb+mm5vBAQqPQOnycUB1eoXB+6/BQFPRO0Bj
F4bBlEC9QJJJlEBvnYrBHMO6QHbg+kBjedPBKAKWQB2Oz0CsStHBPVmdQAqi90C3J8fB9LQiQQQr
x0CSuLfBKrUJQZcW30As6rPBjo8SQaLArkApha3BxGhCQHoYKkAS6qfBz43jP/8WbEAfOZjBSI0s
QDRWgECPwozB9DzMQPR8Ar87FLbBI+qeQPAbh8D9ZpTBbyW8QIacwb8kRq/BryWuQGrLU8AMCZzB
/OvFQA6aWT8imLPBtC7ZQFcqj0Amtq/BLTzhQF/2q0AdILjBLsGdQFolTT7KtKPBXGOXQFBScUCu
dLjBln5tQAX6f8A0k4/B39RZQECSAcCkX5nBM7SkQN9AlL9PC6bBUOqUQLLRC8Clip7BR26uQBe5
mz/pWKrB9E6zQMtBbEB2p6/BRqrEQMgzr0D/ycDBr+WgQCI0k0D8KcHBoUzBQCCyOkBofZzBBI1z
QCxWUUDhopnBEPCoQHZOK0BG1qbBkQqsQD4Rb0B1OIrBeiarQMZ74kC5vs3BcvSkQHRrW0B8RdHB
ov08QA4SO8BrH5LBXGGiQMokTUDl5JTB1Bl4QDP1OEB0p6PBkWEoQGC3aUCzlpTBtcfnQADdMUAg
6ZrBgLzOQF+py0BC78jBGG6MQNeFikBKlMrB1X/dQLi6SL8wPL3B2sOxQFzDosBJP5LBarzBQDNo
I8BgHbHBap/MQM/TXcCC6Z/BzQDTQFKvzj+qvrjBEfbvQIcZjEBZQqnBS5H9QO68v0AE77fBRF2L
QPvr8D68t5zBAql0QMDnS0DZf7jBnBxWQMmFlsBktonBIeAyQEcIlb/SQ5vBgxKOQFApeEAwv4XB
PazAQFClQUBj6IXBxqK8QCZrlkCpAIvBGy63QDvl90CODNTBhJiUQLtfy0BeP9HBZbGaQIt59UA/
lcfBxl+TQCs0T0ChvdjBwRjEQOmdeEDhJNPBPwiqQLapHkDUAs3BQ6ZFQNLCMED1d6jBokTiPxxd
aUB5oJjB32opQKime0AJ6YzBaGbBQI1QHr+f+LbB161MQMGVQsAh6Y/B9Jq0QDqPzL8dja/BmtZg
QLtkBMC3m5fBqjS9QBvAPz8ffrTBtHjdQP/dgEDfM7LBrlrmQNMsn0DzPLrBsiyeQKRnHD49PKPB
SvyRQBxLhEDlsrbBEk2CQBEvhMC4YY7BQmGwQBmEVsBV0JvBabGiQPJYm79TqKXB+BSWQN1uDsDH
sJ3Bds6rQBm8kj9rharBcs+yQPfDZ0C1J7DBdEbFQPxUsUAOcsDBem6aQJ1Ao0BSjr7BzI3AQBcx
OUBiBJ3B9d5yQK9sUkAC+5nBZn+nQO9mJ0DfPafBLKqsQO2VcUBS1IrBxruyQG+l6EDjw83BIEVV
QK0umEC2y8zBZnamQFKniMCfQZTBgDKiQP/nTUB+XZXBN4l1QAHJNEDgx6PBFxUpQEyab0DrAJXB
pjPnQFyIMkAGjZvBBlfSQGlFz0BNHMjBnaVvQNXnskD6BsTBfn/OQLKkar9Amr7BQvUSQDERPcA6
NYvB1H+4QP5KKcBXbrHBYng3QCLVm79M2ZjB5UTHQEx/vz/bM7rBoVv3QFPaZkB8ka3BQIkDQaSz
qECHrbvB+ReQQFvC5D4stJvBj1BjQKyjcUAdprXB4Gx1QJrkm8B4Y4jByw7NQG3eXsBjhaDB3QGP
QHxNfEBdSIbBez7BQKV1RED5c4bB0Zq9QGRgl0D42YvBEvbCQNYy/kDoatPByASdQGtO00CQLtLB
wzygQCOt+0Db+8fBmKwdQOSspkA/zNDBkxyFQBYWlUDwitLBfMBDQF+rcED+wMnBLxdCQG/aKEDB
TKjBpqXiP+/PbkDn7ZjBh6UrQMe2gkBvfY3B

> <OMEGA_E>
SDoGPuDsPz4Qy7k+

> <OMEGA_NBR>
     17032

$$$$
50157434
  -OEChem-04172616093D

 59 62  0     1  0  0  0  0  0999 V2000
    6.5952   -0.4154  -22.6640 C   0  0  0  0  0  0  0  0  0  0  0  0
    4.9721   -4.2125  -18.6196 C   0  0  0  0  0  0  0  0  0  0  0  0
    6.1010   -1.4393  -21.8416 C   0  0  0  0  0  0  0  0  0  0  0  0
    5.5157   -3.2800  -19.5140 C   0  0  0  0  0  0  0  0  0  0  0  0
    6.2858    0.9254  -22.3792 C   0  0  0  0  0  0  0  0  0  0  0  0
    4.4245    4.2713  -22.7056 C   0  0  0  0  0  0  0  0  0  0  0  0
    4.7435    5.1106  -23.7926 C   0  0  0  0  0  0  0  0  0  0  0  0
    5.0069    0.2250  -20.4348 C   0  0  0  0  0  0  0  0  0  0  0  0
    6.7915    3.9673  -22.2594 C   0  0  0  0  0  0  0  0  0  0  0  0
    3.6735   -4.0051  -18.1083 C   0  0  0  0  0  0  0  0  0  0  0  0
    3.4478   -2.0113  -19.3117 C   0  0  0  0  0  0  0  0  0  0  0  0
    5.2903   -1.1161  -20.7332 C   0  0  0  0  0  0  0  0  0  0  0  0
    4.7449   -2.1562  -19.8595 C   0  0  0  0  0  0  0  0  0  0  0  0
    5.4835    1.2616  -21.2508 C   0  0  0  0  0  0  0  0  0  0  0  0
    5.4604    3.7100  -21.9174 C   0  0  0  0  0  0  0  0  0  0  0  0
    6.0992    5.3455  -24.1357 C   0  0  0  0  0  0  0  0  0  0  0  0
    7.1151    4.7397  -23.3702 C   0  0  0  0  0  0  0  0  0  0  0  0
    6.0186    3.0241  -19.5593 C   0  0  0  0  0  0  0  0  0  0  0  0
    3.8060    3.3946  -19.1304 C   0  0  0  0  0  0  0  0  0  0  0  0
    5.1976    2.7037  -20.8069 C   0  0  2  0  0  0  0  0  0  0  0  0
    8.8523    7.2138  -23.5073 C   0  0  0  0  0  0  0  0  0  0  0  0
    9.1704    5.7212  -21.5034 C   0  0  0  0  0  0  0  0  0  0  0  0
    5.4380    3.7939  -17.2402 C   0  0  0  0  0  0  0  0  0  0  0  0
    5.6907    7.2972  -25.4681 C   0  0  0  0  0  0  0  0  0  0  0  0
    9.2447    5.8003  -23.0499 C   0  0  0  0  0  0  0  0  0  0  0  0
    2.9362   -2.9247  -18.4587 N   0  0  0  0  0  0  0  0  0  0  0  0
    5.1158    3.5438  -18.6510 N   0  0  0  0  0  0  0  0  0  0  0  0
    3.8154    2.8438  -20.3223 N   0  3  0  0  0  0  0  0  0  0  0  0
    2.6525    3.7521  -18.4505 N   0  0  0  0  0  0  0  0  0  0  0  0
    7.2053    2.7899  -19.3520 O   0  0  0  0  0  0  0  0  0  0  0  0
    6.4725    6.1071  -25.2290 O   0  0  0  0  0  0  0  0  0  0  0  0
    8.4362    4.8099  -23.7444 O   0  0  0  0  0  0  0  0  0  0  0  0
    7.2133   -0.6578  -23.5158 H   0  0  0  0  0  0  0  0  0  0  0  0
    5.5417   -5.0814  -18.3248 H   0  0  0  0  0  0  0  0  0  0  0  0
    6.3403   -2.4704  -22.0562 H   0  0  0  0  0  0  0  0  0  0  0  0
    6.5032   -3.4216  -19.9278 H   0  0  0  0  0  0  0  0  0  0  0  0
    6.6597    1.7087  -23.0219 H   0  0  0  0  0  0  0  0  0  0  0  0
    3.3919    4.0562  -22.4737 H   0  0  0  0  0  0  0  0  0  0  0  0
    3.9541    5.5753  -24.3648 H   0  0  0  0  0  0  0  0  0  0  0  0
    4.4134    0.4627  -19.5645 H   0  0  0  0  0  0  0  0  0  0  0  0
    7.5836    3.5586  -21.6496 H   0  0  0  0  0  0  0  0  0  0  0  0
    3.2572   -4.7260  -17.4203 H   0  0  0  0  0  0  0  0  0  0  0  0
    2.8538   -1.1507  -19.5820 H   0  0  0  0  0  0  0  0  0  0  0  0
    8.9042    7.2723  -24.6045 H   0  0  0  0  0  0  0  0  0  0  0  0
    7.8266    7.4345  -23.1767 H   0  0  0  0  0  0  0  0  0  0  0  0
    9.5449    7.9467  -23.0680 H   0  0  0  0  0  0  0  0  0  0  0  0
    9.4510    4.7101  -21.1736 H   0  0  0  0  0  0  0  0  0  0  0  0
    9.8629    6.4551  -21.0652 H   0  0  0  0  0  0  0  0  0  0  0  0
    8.1446    5.9428  -21.1739 H   0  0  0  0  0  0  0  0  0  0  0  0
    4.5556    4.2071  -16.7297 H   0  0  0  0  0  0  0  0  0  0  0  0
    5.7315    2.8496  -16.7583 H   0  0  0  0  0  0  0  0  0  0  0  0
    6.2686    4.5121  -17.1757 H   0  0  0  0  0  0  0  0  0  0  0  0
    6.0770    7.8179  -26.3567 H   0  0  0  0  0  0  0  0  0  0  0  0
    4.6398    7.0181  -25.6347 H   0  0  0  0  0  0  0  0  0  0  0  0
    5.7593    7.9624  -24.5947 H   0  0  0  0  0  0  0  0  0  0  0  0
   10.2967    5.6461  -23.3318 H   0  0  0  0  0  0  0  0  0  0  0  0
    3.0005    2.5603  -20.8279 H   0  0  0  0  0  0  0  0  0  0  0  0
    1.7573    3.5937  -18.8669 H   0  0  0  0  0  0  0  0  0  0  0  0
    2.7155    4.1686  -17.5436 H   0  0  0  0  0  0  0  0  0  0  0  0
  1  3  1  0  0  0  0
  1  5  2  0  0  0  0
  2  4  2  0  0  0  0
  2 10  1  0  0  0  0
  3 12  2  0  0  0  0
  4 13  1  0  0  0  0
  5 14  1  0  0  0  0
  6  7  2  0  0  0  0
  6 15  1  0  0  0  0
  7 16  1  0  0  0  0
  8 12  1  0  0  0  0
  8 14  2  0  0  0  0
  9 15  2  0  0  0  0
  9 17  1  0  0  0  0
 10 26  2  0  0  0  0
 11 13  2  0  0  0  0
 11 26  1  0  0  0  0
 12 13  1  0  0  0  0
 14 20  1  0  0  0  0
 15 20  1  0  0  0  0
 16 17  2  0  0  0  0
 16 31  1  0  0  0  0
 17 32  1  0  0  0  0
 18 20  1  0  0  0  0
 18 27  1  0  0  0  0
 18 30  2  0  0  0  0
 19 27  1  0  0  0  0
 19 28  2  0  0  0  0
 19 29  1  0  0  0  0
 20 28  1  0  0  0  0
 21 25  1  0  0  0  0
 22 25  1  0  0  0  0
 23 27  1  0  0  0  0
 24 31  1  0  0  0  0
 25 32  1  0  0  0  0
  1 33  1  0  0  0  0
  2 34  1  0  0  0  0
  3 35  1  0  0  0  0
  4 36  1  0  0  0  0
  5 37  1  0  0  0  0
  6 38  1  0  0  0  0
  7 39  1  0  0  0  0
  8 40  1  0  0  0  0
  9 41  1  0  0  0  0
 10 42  1  0  0  0  0
 11 43  1  0  0  0  0
 21 44  1  0  0  0  0
 21 45  1  0  0  0  0
 21 46  1  0  0  0  0
 22 47  1  0  0  0  0
 22 48  1  0  0  0  0
 22 49  1  0  0  0  0
 23 50  1  0  0  0  0
 23 51  1  0  0  0  0
 23 52  1  0  0  0  0
 24 53  1  0  0  0  0
 24 54  1  0  0  0  0
 24 55  1  0  0  0  0
 25 56  1  0  0  0  0
 28 57  1  0  0  0  0
 29 58  1  0  0  0  0
 29 59  1  0  0  0  0
M  CHG  1  28   1
M  END
> <OMEGA_C>
wAvTQOav1L7iT7XBDBufQBvNhsAF9ZTBsjvDQLg6uL+Hu67BroCwQA7sUcC2HJzBBiXJQNrobD+U
CLPBvpWNQFKuiEAWpbXBWsqXQCWKo0BNV77B1jigQFhgZj6KeqPBPlTZQLTofUBPE7LBPRprQLIp
gMDJ3ZDBI6hcQM64AMBFfprBEkqpQKDcjr+I3aXBltaXQBT/CcBD4J7BwHivQEV8oT+RAarBoruu
QGZwbUDCVq/BlCzDQLkOq0DmFcHByq7jQKyrl0A+9rrB/JfAQLqKQUBeeZzB1ZRzQNxAWUAeC5nB
1lKmQCIKLUCPdKbB4aINQR3X5kD6DrzBKLoSQXEUt0D+BqzB9AOuQH7OckDt64nBGhq2QKaC6UCc
vsvBQeoTQVacuUAeZrjBSOo7QLAuO8Bcq5PBerSjQHTNYkBGNZXBxy90QPAANkAdlKLBW8MpQBQj
cECqmpPBjJHmQESNMkD60JrBlh7PQKttw0AB1cnByfoGQfHqmUCI9L3BC9PmQABnKL9uILzBrlWx
QAebosA0mZLBA+TKQEoaHsAAc7DBIBrQQBr7WsA3bJ/BfRzVQIe22j/OLLjByhRZQBLMgUAbyrPB
ExB9QL1oskAr68LBSjqNQKPn7D4ChJzBNK3yQIrAY0BSMq3BWXVQQEA7l8CvXIvBbaQ2QGlLk7/X
p5zBu3cOQU626EAS1sTBr3P6QErn7UDKabnB47cYQZFL/kAxi7jBajcXQeS4lkB4Y6nBa84dQeKP
zkCKhajBX1ACQZsrvkAiZKnBa8eRQKyghkBv1oXBIWi3QIZfNkADEYbBnJjIQAdjkEDBZ4nBhXbC
QIos+kB52tLBdXmUQPST4EDuE83BFUy4QAjM/kDtwcTBQ78kQZastECHp7rB5QhAQKncI0CUn6bB
xe3gPxD/ZUBY75bBc8stQDBlhUAxWYzB0OPhQOTf377ApbHBw1yTQOAxjMD4MJbBbz3MQBaRur8x
GqzBHPSpQMCPWsCADpzB6c/XQGhMaT8/ra/ByW2aQLvuVEAGNrnBdZugQDzBg0AAZ8LBM32iQH8b
Yj7tjaLBNaXQQLoSlECF3q/B9lxSQIJcg8B92ZLBTHBWQD33/b+zzJrBp3GsQH74kL/qeKTBzrmV
QMQjDMDUbZ7BsSe3QJzvnz+kRqjBJW6yQGA9ZUCm1K/BJtO9QIkvpkDZNMLBL2rVQA8Or0Ba0LjB
RbLEQDfsS0BoBZzBao15QNsEWEAjwZjBFf6rQDVyLUB736XBDCwTQT1F3kDsmqrBkSzwQISFC0GO
rK/BTJSvQKFEhUCVKorBd1CnQHa040BMssvB9hL4QH7m5kDwVa7BNsYrQORdO8ANKpXBmA+mQI4F
bECjDpXBG+t9QOE5N0CNcaLB86EtQAMwZUBNMJPBn4XrQHuoSUBZkJrB1UXDQNz4vkCDN8vBj//w
QHrl0UDOprjB/0f6QO+VML/nbLfBEySiQPR1qsBjQZTBKOnTQCZ/H8BwrK3BH0XKQMHRZsBBtZ7B
TwLpQHGe2D+20LPBGVCDQKGOIUC/UbnB3/GOQO+UeUAwn8nBJLSKQNRL8j7RnpzBQIPkQLEemUC+
6ajBOrYvQKo0m8CKVo7BAOs2QK9Khr8/lZzBRaAVQRqau0DBs6nBQXUeQf7i6kBpk7DBA+4VQUUu
7kCg4KLBsgzPQK0zDkEaVbLBRmH1QLmjE0Gt+afB4TcDQRX+EUF2rLXBNOGRQLVNkEAUVYbBf3S9
QA75VUBpc4XBeobGQOjon0CDlIrBM56tQNy89UB+FtPBq8uFQKD12EBnocvBDzitQBdo+EDou8TB
17nhQC4o2kBUVKjBQC5LQOUbJ0BO4qbBiF3rPwZsVUAxiZbBAvwuQGNsfkC71ovB

> <OMEGA_E>
zIWdPvQyDj8=

> <OMEGA_NBR>
     19270

$$$$
50157456
  -OEChem-04172616093D

 52 55  0     1  0  0  0  0  0999 V2000
    6.3404   -0.5621  -22.7825 C   0  0  0  0  0  0  0  0  0  0  0  0
    4.9782   -4.2100  -18.4933 C   0  0  0  0  0  0  0  0  0  0  0  0
    5.8582   -1.5505  -21.9008 C   0  0  0  0  0  0  0  0  0  0  0  0
    5.4515   -3.2990  -19.4483 C   0  0  0  0  0  0  0  0  0  0  0  0
    6.1426    0.8038  -22.4966 C   0  0  0  0  0  0  0  0  0  0  0  0
    4.5802    4.0008  -22.9592 C   0  0  0  0  0  0  0  0  0  0  0  0
    4.8576    4.9294  -23.9766 C   0  0  0  0  0  0  0  0  0  0  0  0
    5.0089    0.1883  -20.4317 C   0  0  0  0  0  0  0  0  0  0  0  0
    6.8735    4.1861  -22.1638 C   0  0  0  0  0  0  0  0  0  0  0  0
    3.7218   -3.9917  -17.8944 C   0  0  0  0  0  0  0  0  0  0  0  0
    5.1708   -1.1736  -20.7257 C   0  0  0  0  0  0  0  0  0  0  0  0
    4.6594   -2.1813  -19.7734 C   0  0  0  0  0  0  0  0  0  0  0  0
    5.4637    1.1863  -21.3134 C   0  0  0  0  0  0  0  0  0  0  0  0
    5.5749    3.6492  -22.0163 C   0  0  0  0  0  0  0  0  0  0  0  0
    7.1551    5.1229  -23.1725 C   0  0  0  0  0  0  0  0  0  0  0  0
    6.1459    5.5168  -24.0810 C   0  0  0  0  0  0  0  0  0  0  0  0
    3.3940   -2.0281  -19.1372 C   0  0  0  0  0  0  0  0  0  0  0  0
    6.0339    2.9148  -19.6141 C   0  0  0  0  0  0  0  0  0  0  0  0
    3.8036    3.2620  -19.2416 C   0  0  0  0  0  0  0  0  0  0  0  0
    5.2590    2.6426  -20.9018 C   0  0  2  0  0  0  0  0  0  0  0  0
    8.5485    5.7182  -23.2631 C   0  0  0  0  0  0  0  0  0  0  0  0
    5.3820    3.6837  -17.3077 C   0  0  0  0  0  0  0  0  0  0  0  0
    5.3918    7.0463  -25.8021 C   0  0  0  0  0  0  0  0  0  0  0  0
    2.9567   -2.9243  -18.2218 N   0  0  0  0  0  0  0  0  0  0  0  0
    5.0743    3.1922  -18.6563 N   0  0  0  0  0  0  0  0  0  0  0  0
    3.8567    2.8259  -20.4775 N   0  3  0  0  0  0  0  0  0  0  0  0
    2.6439    3.6892  -18.6132 N   0  0  0  0  0  0  0  0  0  0  0  0
    7.2317    2.7515  -19.4065 O   0  0  0  0  0  0  0  0  0  0  0  0
    6.4771    6.4569  -25.0507 O   0  0  0  0  0  0  0  0  0  0  0  0
    2.5691   -1.0019  -19.4618 F   0  0  0  0  0  0  0  0  0  0  0  0
    6.8637   -0.8528  -23.6814 H   0  0  0  0  0  0  0  0  0  0  0  0
    5.5707   -5.0705  -18.2195 H   0  0  0  0  0  0  0  0  0  0  0  0
    6.0143   -2.5957  -22.1235 H   0  0  0  0  0  0  0  0  0  0  0  0
    6.4077   -3.4521  -19.9266 H   0  0  0  0  0  0  0  0  0  0  0  0
    6.5080    1.5576  -23.1783 H   0  0  0  0  0  0  0  0  0  0  0  0
    3.6000    3.5519  -22.8964 H   0  0  0  0  0  0  0  0  0  0  0  0
    4.0863    5.1979  -24.6832 H   0  0  0  0  0  0  0  0  0  0  0  0
    4.5253    0.4767  -19.5100 H   0  0  0  0  0  0  0  0  0  0  0  0
    7.6595    3.8725  -21.4928 H   0  0  0  0  0  0  0  0  0  0  0  0
    3.3605   -4.6927  -17.1565 H   0  0  0  0  0  0  0  0  0  0  0  0
    9.1708    5.0972  -23.9241 H   0  0  0  0  0  0  0  0  0  0  0  0
    8.4856    6.7380  -23.6705 H   0  0  0  0  0  0  0  0  0  0  0  0
    8.9989    5.7512  -22.2601 H   0  0  0  0  0  0  0  0  0  0  0  0
    4.4469    3.8239  -16.7457 H   0  0  0  0  0  0  0  0  0  0  0  0
    6.0165    2.9516  -16.7867 H   0  0  0  0  0  0  0  0  0  0  0  0
    5.9137    4.6440  -17.3801 H   0  0  0  0  0  0  0  0  0  0  0  0
    5.7966    7.7666  -26.5283 H   0  0  0  0  0  0  0  0  0  0  0  0
    4.8441    6.2559  -26.3361 H   0  0  0  0  0  0  0  0  0  0  0  0
    4.7085    7.5649  -25.1134 H   0  0  0  0  0  0  0  0  0  0  0  0
    3.0589    2.6433  -21.0522 H   0  0  0  0  0  0  0  0  0  0  0  0
    1.7743    3.6769  -19.1067 H   0  0  0  0  0  0  0  0  0  0  0  0
    2.6772    4.0098  -17.6666 H   0  0  0  0  0  0  0  0  0  0  0  0
  1  3  1  0  0  0  0
  1  5  2  0  0  0  0
  2  4  2  0  0  0  0
  2 10  1  0  0  0  0
  3 11  2  0  0  0  0
  4 12  1  0  0  0  0
  5 13  1  0  0  0  0
  6  7  2  0  0  0  0
  6 14  1  0  0  0  0
  7 16  1  0  0  0  0
  8 11  1  0  0  0  0
  8 13  2  0  0  0  0
  9 14  2  0  0  0  0
  9 15  1  0  0  0  0
 10 24  2  0  0  0  0
 11 12  1  0  0  0  0
 12 17  2  0  0  0  0
 13 20  1  0  0  0  0
 14 20  1  0  0  0  0
 15 16  2  0  0  0  0
 15 21  1  0  0  0  0
 16 29  1  0  0  0  0
 17 24  1  0  0  0  0
 17 30  1  0  0  0  0
 18 20  1  0  0  0  0
 18 25  1  0  0  0  0
 18 28  2  0  0  0  0
 19 25  1  0  0  0  0
 19 26  2  0  0  0  0
 19 27  1  0  0  0  0
 20 26  1  0  0  0  0
 22 25  1  0  0  0  0
 23 29  1  0  0  0  0
  1 31  1  0  0  0  0
  2 32  1  0  0  0  0
  3 33  1  0  0  0  0
  4 34  1  0  0  0  0
  5 35  1  0  0  0  0
  6 36  1  0  0  0  0
  7 37  1  0  0  0  0
  8 38  1  0  0  0  0
  9 39  1  0  0  0  0
 10 40  1  0  0  0  0
 21 41  1  0  0  0  0
 21 42  1  0  0  0  0
 21 43  1  0  0  0  0
 22 44  1  0  0  0  0
 22 45  1  0  0  0  0
 22 46  1  0  0  0  0
 23 47  1  0  0  0  0
 23 48  1  0  0  0  0
 23 49  1  0  0  0  0
 26 50  1  0  0  0  0
 27 51  1  0  0  0  0
 27 52  1  0  0  0  0
M  CHG  1  26   1
M  END
> <OMEGA_C>
LuTKQCLoD7+WQrbBHE2fQKW4hsA68pPBfHa7QMJ1xr++NK/BGHOuQAwjU8A1lpvBKJDEQNzITT/7
+LPBHpGSQNwGgEByrLfBa3GbQNK9nUAD0L/BmUigQJvIQD4QdKPB0PPbQFz0hUBlT7HBjjFuQK53
f8C3J4/BaXelQCc6lr9PzqXBlBmVQAGaC8D8L57B59auQObZlz/XgarB0WWyQDqNaUB4IbDBPPbk
QNDuo0A5YbnB1qrEQL6JsEDipcDBvDdZQAjMAcD/GJnB3hXBQJGLOkCU6ZzBLW5zQO3DUEC77pnB
10moQBggKUDtNqfBjsYIQZj7tkDHGrrBjTmsQEjCa0BCdorB8YmsQJ574UCfas7BSDs9QPgmO8As
xpHBaGCiQFdNTEAnQJXBF9R2QEfcNEAB0qPBcjYpQCEcbEDr55TBRmrnQAQZMECNQJvBn0TPQBaf
zkDrZ8jBkWskQFY/gL/bsZvBpaPbQK1TWr96c73BZkOyQDhBosCTwZHBcHXAQCQfJsDz/LDBEQzN
QDTvXMCcaZ/BTEHQQMdfxz8kbbnBymVmQAxSY0DKK7fB0MKCQChVpkBLd8XBoc+QQLAW9D6SFJzB
8xr1QIjWd0A88avByBJXQLoqlsCRQInBwLsSQeEbo0CNZL/B8cQHQf6d10A0Xb3BdvsPQfUJuECb
FLLB20yOQF27dEBF94XBeIfAQNXnPEA8S4bB4jy9QKOblEBhCovBJn65QNaH+EDmOdTBjAKbQK4w
yEBcsNLBWayWQLoT8kBX6MjBYcVDQBwrKUDRaqjBAhvjP6hRa0CB2pjBIlcrQOFPgEAsVY3Bc4vF
QHFXD7+O8LbBSQCgQK22hsBhNZTBHYK2QHBRxr/c2K/BCMStQPARU8BdAZzBfrTBQGhHTj8HT7TB
bozdQJnQh0DjH7HBZAjlQGyMpUAIY7nBwwGgQI0WPz7XcaPBnnOUQPzIfkAUWLfB/MJwQP8UgMBj
F4/B9AujQHNWlr/GGqbBbLyTQNIUDMDPaJ7BsueuQEEimD89darBkXq0QBe3akAm2a/BhXCbQJW4
nEB0qL/BQUfEQGcpsUBnosDBXOxXQEjZAsC4+5jB8ZjBQODFOkBLmpzBvJBzQIVtT0Bl7ZnBZ9ep
QJCXKUAMBKfBZOdsQMomo0DYYMfB/eOqQPaRbEDLTIrBnF2wQBbs6kAL68zB/mY+QHdnPMDViJHB
3B+iQKnSS0CZEpXBQEB5QK1dNUA/2qPBk7cnQEqIaEA0F5XBWBzoQB2gNEB155rBRCjQQL/RzUCu
qsjBAGgiQGNdgr9dVZvBRRXUQItoWb+wbb7BtJCzQO37ocDJJZLB2d65QIcIJsAI3bHBztbLQIls
XMBQGaDBtxbNQK2sxz+mzLnBQy33QDkqfkBBwavB9C8CQf69s0CcM7rByv2RQON18T4h4pvBtStr
QKomYEAUrrbBAbFbQFGNlsANFInBvj5EQAaNvUBsisTBAQ2DQGrxqkBxXM/BVMtGQPybhUCP08fB
GJSMQPaQdEB98IXB126/QHn9PkCa/IXB3T+7QOxclUAi5IrBCAG/QM0Y/0C5IdPB7tqVQAR32EAL
atDBcxKkQJhQ/0Dqb8bBbCdHQLXTKkBTp6jBE/LhP1NaZ0BmO5nBR8cnQKXPe0BVdo3BosLHQBSs
Cr81nLbBkIREQAKfQsAgnpHB3OC5QMFRxb80fa/B9mpeQHTFBMA2EZnBe8HBQMdSUT95GrTBeN6R
QNlDgUDUb7fBWGGbQGeTnkB7or/BA22fQGhlMT7CXKPBxZ3bQMUZhUCVPrHB6Ll7QLOng8BYP4/B
rualQNu1l79zw6XB83iXQEl1DcBRDJ7BpCatQG7Alz9icqrBHp6xQB8WakCz9q/BvUXlQNWnokD5
X7nBlSfFQH8FsEAam8DBUsWxQMkOVMD0PJvB1EXAQOzbOUBw1JzBYZpyQJMWVEBG1ZnB/RSnQO0w
KUAiFafBn0UJQSzrs0CbT7rBbYOsQFzIb0AhhYrBJSmuQOa84UCpU87BNKKkQP17h8A3/pPBBf6h
QOCFTkABL5XBQ8p0QO+XNUCMm6PB1XgpQEAHc0BA4pTBOH7mQD+TLUDDNJvBWHzQQNtWzUCRfMjB
ZKPZQCLoW8BoX5/BTBbXQD2KUb/YB77BcvIGQMypPcCXvY3BDYK+QEZPJcDIdrHB5lc1QEuUnr+z
9prBUt7MQB5fyj8mjLnB9R5kQETuZ0Cn1rbBrb6CQHPhp0DdOsXBvrWPQCWm5D4P/JvBmqD0QAQG
dUDY5qvBosFnQFh+m8DvgonBGKwSQT4Vn0Bxn7/Bkc4IQSt81ECGpL3BO7wQQUO0tEABWLLBWdWO
QGgAe0BkAIbBrW7AQNbvQEBsPIbB8Su+QCcrlkCpVIvBk6y7QM3090DsQdTB4f6aQBM7yUCBcdLB
IK6ZQLWL80AMucjBwEBBQBidKECVEKjBnlbjPygBc0ANzZjB1oYsQDGvhECRZY3B/gbCQH4lBr+h
JbfBPcdGQC2QQ8DcQpHBLbi0QIKjwr/F8a/B34pdQF37BMC/yJjBHWS+QEbKVT+TYbTB8ybdQD5I
h0B5G7HBP07lQO8+pEDXgbnB4/GeQDfZSz6oQaPBkv2TQDmCf0CVWrfBesB/QIS3g8CSK4/BEFaj
QF+zlL9k7KXBHFGWQCNgDMAgIJ7BDt6sQFDKmj8vW6rBeLuzQDtTa0B+zK/B7IqbQLeGnEDBwb/B
TMzEQLgUsECRz8DBEomxQNRIUsBxm5vBmenAQHOrPEDpnJzBbzVzQIMpVkAg1ZnB3o+oQMMhK0As
6KbBz+RsQCG1o0CbZcfBM3OrQLwLb0CcPorBlOuxQMWS6UA/T83BivqlQF/ghsAERZTBquuiQOA7
XkD3lpXBnGh3QBMVOUA0pKPB/i8nQI9aaUAHoJTBT6/mQO6zLUCjuprB/jXRQGI/zEDy6MjBfrjY
QF/5WMA7KqDBIhbPQK98Tb9Y1L7BrD8KQHHGP8DUHY3BE823QLABJMD2FLLBJy8zQHsMoL+0dJrB
vvvIQAJFzD+t6bnBvIT2QGEJfUDlqavBJnsCQbuosUC6YrrBE8OQQPPt8j4dsZvBYchpQF3cYUB1
q7bBijxuQOfEm8B4XYnBmdJFQAKxvkDxjcTBm+6CQKb4qkD/a8/B8D9FQGGnhkBWwMfBJo2OQAy/
hEABdobBlGC0QDb0MkBxPYbBtdTFQL2ljkC4hYnBRwLBQJpB/UDojdPB+0WXQMdM10AczdDBNrSl
QOxu/kC36cbBLJ1EQIvSLUDfTKjBEY7ePzslYUB3YZjBj0woQFtlf0CnHY3B

> <OMEGA_E>
ACTGPEDpkz2QwHY+KKqQPg==

> <OMEGA_NBR>
     23060

$$$$
50157458
  -OEChem-04172616093D

 51 54  0     1  0  0  0  0  0999 V2000
    6.3350   -0.5724  -22.7554 C   0  0  0  0  0  0  0  0  0  0  0  0
    5.8535   -1.5617  -21.8767 C   0  0  0  0  0  0  0  0  0  0  0  0
    6.1205    0.7915  -22.4766 C   0  0  0  0  0  0  0  0  0  0  0  0
    4.5820    4.0250  -22.9624 C   0  0  0  0  0  0  0  0  0  0  0  0
    4.8754    4.9606  -23.9701 C   0  0  0  0  0  0  0  0  0  0  0  0
    4.8964    0.1718  -20.4608 C   0  0  0  0  0  0  0  0  0  0  0  0
    6.8764    4.1684  -22.1623 C   0  0  0  0  0  0  0  0  0  0  0  0
    3.4140   -2.0560  -19.1051 C   0  0  0  0  0  0  0  0  0  0  0  0
    5.4412   -3.3299  -19.4459 C   0  0  0  0  0  0  0  0  0  0  0  0
    3.8107   -4.0326  -17.9252 C   0  0  0  0  0  0  0  0  0  0  0  0
    5.1280   -1.1908  -20.7238 C   0  0  0  0  0  0  0  0  0  0  0  0
    4.6527   -2.2058  -19.7637 C   0  0  0  0  0  0  0  0  0  0  0  0
    5.3962    1.1752  -21.3211 C   0  0  0  0  0  0  0  0  0  0  0  0
    5.5683    3.6481  -22.0203 C   0  0  0  0  0  0  0  0  0  0  0  0
    7.1759    5.1054  -23.1675 C   0  0  0  0  0  0  0  0  0  0  0  0
    6.1734    5.5264  -24.0700 C   0  0  0  0  0  0  0  0  0  0  0  0
    6.0140    2.8973  -19.6224 C   0  0  0  0  0  0  0  0  0  0  0  0
    3.7958    3.3078  -19.2458 C   0  0  0  0  0  0  0  0  0  0  0  0
    5.2275    2.6404  -20.9070 C   0  0  2  0  0  0  0  0  0  0  0  0
    8.5796    5.6772  -23.2591 C   0  0  0  0  0  0  0  0  0  0  0  0
    5.3950    3.7218  -17.3266 C   0  0  0  0  0  0  0  0  0  0  0  0
    5.4454    7.1275  -25.7356 C   0  0  0  0  0  0  0  0  0  0  0  0
    3.0092   -2.9744  -18.2029 N   0  0  0  0  0  0  0  0  0  0  0  0
    5.0121   -4.2211  -18.5266 N   0  0  0  0  0  0  0  0  0  0  0  0
    5.0672    3.2152  -18.6651 N   0  0  0  0  0  0  0  0  0  0  0  0
    3.8332    2.8602  -20.4782 N   0  3  0  0  0  0  0  0  0  0  0  0
    2.6474    3.7640  -18.6171 N   0  0  0  0  0  0  0  0  0  0  0  0
    7.2107    2.7200  -19.4201 O   0  0  0  0  0  0  0  0  0  0  0  0
    6.5222    6.4678  -25.0326 O   0  0  0  0  0  0  0  0  0  0  0  0
    6.8713   -0.8607  -23.6474 H   0  0  0  0  0  0  0  0  0  0  0  0
    6.0395   -2.6050  -22.0848 H   0  0  0  0  0  0  0  0  0  0  0  0
    6.5088    1.5460  -23.1448 H   0  0  0  0  0  0  0  0  0  0  0  0
    3.5950    3.5901  -22.9069 H   0  0  0  0  0  0  0  0  0  0  0  0
    4.1083    5.2506  -24.6728 H   0  0  0  0  0  0  0  0  0  0  0  0
    4.3277    0.4553  -19.5875 H   0  0  0  0  0  0  0  0  0  0  0  0
    7.6555    3.8417  -21.4895 H   0  0  0  0  0  0  0  0  0  0  0  0
    2.7878   -1.2037  -19.3237 H   0  0  0  0  0  0  0  0  0  0  0  0
    6.3906   -3.4788  -19.9386 H   0  0  0  0  0  0  0  0  0  0  0  0
    3.4786   -4.7556  -17.1948 H   0  0  0  0  0  0  0  0  0  0  0  0
    9.1890    5.0494  -23.9258 H   0  0  0  0  0  0  0  0  0  0  0  0
    8.5332    6.7004  -23.6603 H   0  0  0  0  0  0  0  0  0  0  0  0
    9.0337    5.6964  -22.2574 H   0  0  0  0  0  0  0  0  0  0  0  0
    4.4668    3.8953  -16.7622 H   0  0  0  0  0  0  0  0  0  0  0  0
    6.0137    2.9829  -16.7963 H   0  0  0  0  0  0  0  0  0  0  0  0
    5.9503    4.6669  -17.4182 H   0  0  0  0  0  0  0  0  0  0  0  0
    5.8633    7.8406  -26.4614 H   0  0  0  0  0  0  0  0  0  0  0  0
    4.8399    6.3775  -26.2656 H   0  0  0  0  0  0  0  0  0  0  0  0
    4.8130    7.6665  -25.0147 H   0  0  0  0  0  0  0  0  0  0  0  0
    3.0286    2.6914  -21.0476 H   0  0  0  0  0  0  0  0  0  0  0  0
    1.7758    3.7647  -19.1073 H   0  0  0  0  0  0  0  0  0  0  0  0
    2.6906    4.0922  -17.6736 H   0  0  0  0  0  0  0  0  0  0  0  0
  1  2  1  0  0  0  0
  1  3  2  0  0  0  0
  2 11  2  0  0  0  0
  3 13  1  0  0  0  0
  4  5  2  0  0  0  0
  4 14  1  0  0  0  0
  5 16  1  0  0  0  0
  6 11  1  0  0  0  0
  6 13  2  0  0  0  0
  7 14  2  0  0  0  0
  7 15  1  0  0  0  0
  8 12  1  0  0  0  0
  8 23  2  0  0  0  0
  9 12  2  0  0  0  0
  9 24  1  0  0  0  0
 10 23  1  0  0  0  0
 10 24  2  0  0  0  0
 11 12  1  0  0  0  0
 13 19  1  0  0  0  0
 14 19  1  0  0  0  0
 15 16  2  0  0  0  0
 15 20  1  0  0  0  0
 16 29  1  0  0  0  0
 17 19  1  0  0  0  0
 17 25  1  0  0  0  0
 17 28  2  0  0  0  0
 18 25  1  0  0  0  0
 18 26  2  0  0  0  0
 18 27  1  0  0  0  0
 19 26  1  0  0  0  0
 21 25  1  0  0  0  0
 22 29  1  0  0  0  0
  1 30  1  0  0  0  0
  2 31  1  0  0  0  0
  3 32  1  0  0  0  0
  4 33  1  0  0  0  0
  5 34  1  0  0  0  0
  6 35  1  0  0  0  0
  7 36  1  0  0  0  0
  8 37  1  0  0  0  0
  9 38  1  0  0  0  0
 10 39  1  0  0  0  0
 20 40  1  0  0  0  0
 20 41  1  0  0  0  0
 20 42  1  0  0  0  0
 21 43  1  0  0  0  0
 21 44  1  0  0  0  0
 21 45  1  0  0  0  0
 22 46  1  0  0  0  0
 22 47  1  0  0  0  0
 22 48  1  0  0  0  0
 26 49  1  0  0  0  0
 27 50  1  0  0  0  0
 27 51  1  0  0  0  0
M  CHG  1  26   1
M  END
> <OMEGA_C>
PLjKQDiIEr8eC7bBOlC7QDXlx794A6/BINvDQLWgSj8g0LPBJaCSQBHNgED9srfBmAOcQD29nkDe
wr/BVq+cQG3mLz6ur6PBlwvcQOxjhUBOTLHBV39aQNaVA8BN15jBSx6uQLkcVcAkkZvB0+FzQHgL
gcDNZo/BihikQGNsmL9myqXBwuKUQGgrDcD8G57Bw62sQIFtlj+dkarBLC+yQPp6aUCMKbDB0aDl
QEJfo0AGV7nBlIzFQEjYsEBhj8DBdnLAQOBsOUCt+pzBEu9yQEqzU0BU95nBhUenQBH8KECLQafB
JUYJQXertUChErrBdKOsQH0ybkDXnIrBm0CuQMYU5EBy4s3B1ZZAQO9bPsB+n5HBLGOgQFETh8Bz
NpTBnyaiQHHFTUAgUpXBZlJ1QNwMN0BI06PBkm4pQLbkcEDq75TBKr7mQNsULkBlXJvBq7XQQC74
zkC2QsjBaeHbQKhZXL/uLb3BQ0PBQGy4JsCurbDBA0jQQBXixT+FKLnBHxVmQOLEZUBNQbfBynaD
QAMFqEDkYcXBJHyKQJgd6T5Ms5zBL/r0QLDddUCL6qvBoGoyQNMTmr8Il5rBCoDMQJqkXsBLgp/B
/qBeQMwtmMDzjonBUAYTQbuUoUAQaL/B1IcIQWxp1kAzSL3B/IkQQYFItkAXD7LBT/COQPdMeUAK
GYbBDXDAQAXoPkDeXobB4Gi+QGNXlUCLWIvBOaC7QH3m+kDysNPBbuCaQMwUzEDcH9LBBwSaQL5T
9UAlHsjBH9VBQME/LEB/YajBAUzjP8rwcEDR25jBTDMsQILzgkBvY43BBX7LQGoyEL8OB7bB3UO8
QBktx785AK/B8i3EQBaUTD+Q0bPBwr6SQLRDgEDVxbfBB0GcQEYdnkDT17/BTyudQJR7Lz64saPB
kb/bQDvXhUAsH7HBS1KuQBowVcDekZvBYSlbQO0EA8Dz8pjB4gx0QBhngMBeWo/BkdGkQCc+mL9e
zaXBlU2VQEoWDcBlKp7BC9msQH+ylj/klKrBfAayQA+DaUDUHbDBx3blQPm+o0ALKrnB36TFQKKm
sEAuh8DBeTrAQCw/OUD295zBHoByQPA8VEDj/JnBPxinQEzuKECMPqfBGDkJQdTxtUCe2bnB7XWs
QJI8b0A1pIrB3YeuQIe04kAtJs7BP2mgQGTThsBYKpTBY/RAQLUmPcAnrJHBmv+hQIEwT0BBXpXB
Zd10QB3fNkCO0aPBqv4oQJ4BcUBy65TBV1DmQILQK0C7SZvBZOXQQIqWzkCVQ8jBS9vcQFcGWb+H
JL3BQ4bCQA5GJsAzprDBUV/QQMg1xz8oLLnBrphmQKUAZEBVarfBOeqDQJEBp0Bej8XBlwGLQJsM
5z5nsZzBHnr0QMmLd0DHoqvBMarMQDpPX8DegZ/BjjAzQPMpmb+uyZrBvr5eQHAvl8BTbYnB1goT
QbqeoUCDGL/BQI8IQXaQ1kD7I73B2VsQQY7XtkAWz7HBI7uOQInQe0AsM4bBZ4a/QKgQP0AaWIbB
W/q+QC1slUCUV4vBgPa7QL98+UDX9NPBSAacQDIZykAQatLByHCZQNHV80DwjcjByV9BQDWHK0Bt
WqjBLvThP5UwcECNyZjBx/8rQBdJg0CbZY3BDALEQOzeEL8E77bBNby1QOFAx78GxK/BS/W/QLSI
TD8kULTBpIfdQFDvhkDUKrHBZ4XlQF2apEBAbLnBLf6dQAULNz6kdqPBlTiUQF8MgEDiU7fBcySt
QEAUVcB0/ZvBIH5ZQL8lA8DmxZjBzLN0QELwgMDAc4/B71aiQNuSl7+ABKbBncWTQPXmDMBWTp7B
HyatQMtslz/WdqrB9Rm0QHmCakBq3K/BW6ObQD1/nUBmmb/BMOPEQDcSsUAQnsDBfOXAQDghOkDg
oJzBlLtyQLzSUUBO7JnBP9qoQCeNKUAqBafBf9hsQAlbpUCAKcfBswKrQI7rbkDmZorB4u6xQA2g
60DMyszBbzWgQB4Nh8BUi5TBm/xAQCUTPsCAfpHBErmhQG0ATUDOF5XB/Jp3QPHXNkC+0aPBO5Qn
QB/vbEB4FZXBAWXnQG8WM0DE9ZrBqzDRQJS9zUAOnsjBsSDSQAp+Wr8Der7BbaK5QOV7JsDOurHB
sjTLQNrWxj+X0bnB1Qz3QFVOe0C70qvBY5UCQXQSskBeRbrB8taOQIXd7D6qCZzBfDVqQAV5YkB+
rbbBNfvKQC/TXsDuLKDBqT0xQJfUmL/gXJrBesZgQDIHmMCLhonBvvlFQHgkwEAUKsTBrMiCQJI8
rUCjKc/BQBRFQEZfiEDco8fBauCMQNFTeEAiAobB/1q/QP9YQUCEB4bBUse7QOVDlkD/JYvB9eXA
QJep/0Ah/NLBKf+WQAzR2UCJS9DBCSimQH0LAEH7Q8bBxylFQJ2aLEDlkqjB9mThP1CZbED7MpnB
m0goQBRogEDmeo3BZTbCQAyDEL+oD7fBprW0QLjPxr/jya/Btoi+QF/xTD9NbLTBO8LdQG5Uh0Aa
HrHB38vlQJHxpEAAZLnBfiaeQBTtPT4VXqPBctiUQPfIfkA6gLfB4q5ZQLBVA8BStpjBG42tQCVm
VMAr4pvBOC51QIQjgcAjc4/BVj2iQKzOlr8/8KXBFvqTQEeEDMDZM57BsdOsQJQOmD/hc6rBa260
QLCUakCh5K/B2HecQBZ0nEBw17/BOVTFQDjUsEDVscDB9vfAQE1QOkBLm5zBmsZyQIymUUDh5pnB
P/eoQJQIKkAxBafBZu1vQHMto0CBrMfBg9WqQM6qbEAqRorB05axQHUz7EAYe8zB1DJBQG6oPsDf
e5HBDqKgQNHnhsBTe5TB5bahQLV8TEBnD5XBKvB3QC1IOECt3KPB4lcnQN6Ia0DQBpXByG/nQKrp
MkB165rByizRQMbdzUBJpcjBS3TPQGqNWr/zsr7BjX24QGZLJsASwLHB6TrJQAnZxj+dArrBeCf3
QNq/fECxs6vBU6cCQfDLskDVKbrBYZaPQHIb8T5G35vBwKZrQLWvYECo57bBnzsxQHN2mb/fSprB
d4XLQEqbXcB3B6DB0yphQI9wmMBllInBzHNHQBDEvUAH6MTBNAmFQBfUqkASns/BQFhJQKvNhUA6
LcjBIJ6MQFnJdUAM6IXB0Oy+QDYvPkCA+oXBos+7QF4VlUAI2YrBp/m/QHVNAEE3r9LBdzOWQD/B
2kCP4M/BBp6mQKogAEH9ycXBJqVFQDawL0AJsajBvSDhP0aDa0DTKZnBBr4nQHg3fkANYI3ByWKQ
QHm6Vb+tsbLBTuC3QJluvr9mTbHBA26LQBpIAT8Xeq/BIu7dQE+ngkAcuLHBxFLnQLTjn0Ar8LnB
DCHWQHm2Dz8v86nBIUeTQAsrgUCaZbfBJsYDQcVuNsBXianB1+UVQQMxO79bmqvBR/8oQcJrLMDV
Q6jBly3bQHz+Sb/Y9azB9ocCQRIHu79RaqvBj/+tQOxfmj8ouqrB8HGzQANEaEBvGLDBrb+cQKra
nUCDx7/BYsfGQPkgrkAR4MDBJ0HBQBR1PkA2j5zB5z1zQMLIUEBRZZnBzWWoQOBEKkAe7qbBvXVy
QPJxrECwPMfBCnisQIfYa0BO6InB2AfOQAUZ90C6n8XBru0WQb5sXMD++6fBg8UoQd6vrb9eCqrB
RvyiQM4CWkDmO5XB/iZ3QL0AOEC0bKPB4l4nQBGwYEDB8ZPBG9fnQIT/OkBjy5rBWI/QQO3SykBd
4cjBvJdrQAyErr/PPbbB4Ty7QMKaIcA7jrPBXjVaQJ1PgD8VorDBzkn3QJhSbkCcmazBKNEDQbp7
q0Ae8LrB32jxQJxhjj/P/6bBMj9mQIb3aUC3h7bBBabqQDVOXMDIVqnBLpYVQVklqz6OAa3BtDQ4
QaGwS8CDBafBII5TQI8lyUB46sPBiM2GQDP9s0BtIs/BX8lCQHHBkkAKEMjBSRSPQKxagECQ04XB
qLO4QP9yMUBWD4bBXrjEQPJYj0BrYInBckDWQOTrBUEAbszBv02tQJRN/kA37sLBSpvkQMLe/EA8
B7/BXAVEQBx0L0CpHajBuWbeP/ZiWUAhq5fBvPIoQKZuc0A2TIzB

> <OMEGA_E>
QGP7PaAw/T1goCI+4PImPvIxXT8=

> <OMEGA_NBR>
     27660

$$$$
50157467
  -OEChem-04172616093D

 40 42  0     1  0  0  0  0  0999 V2000
    5.8298   -1.6370  -21.7245 C   0  0  0  0  0  0  0  0  0  0  0  0
    6.3346   -0.6842  -22.6323 C   0  0  0  0  0  0  0  0  0  0  0  0
    5.1216   -1.2158  -20.5851 C   0  0  0  0  0  0  0  0  0  0  0  0
    6.1430    0.6938  -22.4013 C   0  0  0  0  0  0  0  0  0  0  0  0
    4.9254    0.1572  -20.3527 C   0  0  0  0  0  0  0  0  0  0  0  0
    4.6158    3.9690  -22.9938 C   0  0  0  0  0  0  0  0  0  0  0  0
    6.9094    4.1830  -22.2029 C   0  0  0  0  0  0  0  0  0  0  0  0
    4.8687    4.9289  -23.9897 C   0  0  0  0  0  0  0  0  0  0  0  0
    7.1630    5.1417  -23.2035 C   0  0  0  0  0  0  0  0  0  0  0  0
    5.4315    1.1300  -21.2577 C   0  0  0  0  0  0  0  0  0  0  0  0
    5.6164    3.6124  -22.0573 C   0  0  0  0  0  0  0  0  0  0  0  0
    6.1432    5.5418  -24.0895 C   0  0  0  0  0  0  0  0  0  0  0  0
    6.0530    2.9187  -19.6381 C   0  0  0  0  0  0  0  0  0  0  0  0
    3.8213    3.2609  -19.2577 C   0  0  0  0  0  0  0  0  0  0  0  0
    5.2764    2.6211  -20.9146 C   0  0  2  0  0  0  0  0  0  0  0  0
    5.4045    3.6974  -17.3329 C   0  0  0  0  0  0  0  0  0  0  0  0
    5.3388    7.2050  -25.6520 C   0  0  0  0  0  0  0  0  0  0  0  0
    5.0956    3.2042  -18.6797 N   0  0  0  0  0  0  0  0  0  0  0  0
    3.8788    2.8542  -20.5024 N   0  3  0  0  0  0  0  0  0  0  0  0
    2.6541    3.6487  -18.6173 N   0  0  0  0  0  0  0  0  0  0  0  0
    7.2547    2.7753  -19.4398 O   0  0  0  0  0  0  0  0  0  0  0  0
    6.4514    6.5084  -25.0382 O   0  0  0  0  0  0  0  0  0  0  0  0
    5.9869   -2.6904  -21.9040 H   0  0  0  0  0  0  0  0  0  0  0  0
    6.8716   -1.0115  -23.5104 H   0  0  0  0  0  0  0  0  0  0  0  0
    4.7296   -1.9442  -19.8908 H   0  0  0  0  0  0  0  0  0  0  0  0
    6.5397    1.4175  -23.0980 H   0  0  0  0  0  0  0  0  0  0  0  0
    4.3831    0.4769  -19.4752 H   0  0  0  0  0  0  0  0  0  0  0  0
    3.6455    3.4973  -22.9423 H   0  0  0  0  0  0  0  0  0  0  0  0
    7.7058    3.8787  -21.5399 H   0  0  0  0  0  0  0  0  0  0  0  0
    4.0868    5.2011  -24.6832 H   0  0  0  0  0  0  0  0  0  0  0  0
    8.1487    5.5742  -23.2922 H   0  0  0  0  0  0  0  0  0  0  0  0
    4.4697    3.8437  -16.7720 H   0  0  0  0  0  0  0  0  0  0  0  0
    6.0350    2.9635  -16.8095 H   0  0  0  0  0  0  0  0  0  0  0  0
    5.9410    4.6549  -17.4072 H   0  0  0  0  0  0  0  0  0  0  0  0
    5.7201    7.9375  -26.3787 H   0  0  0  0  0  0  0  0  0  0  0  0
    4.6919    6.4799  -26.1676 H   0  0  0  0  0  0  0  0  0  0  0  0
    4.7595    7.7262  -24.8757 H   0  0  0  0  0  0  0  0  0  0  0  0
    3.0830    2.7200  -21.0929 H   0  0  0  0  0  0  0  0  0  0  0  0
    1.7836    3.6281  -19.1089 H   0  0  0  0  0  0  0  0  0  0  0  0
    2.6830    3.9488  -17.6638 H   0  0  0  0  0  0  0  0  0  0  0  0
  1  2  1  0  0  0  0
  1  3  2  0  0  0  0
  2  4  2  0  0  0  0
  3  5  1  0  0  0  0
  4 10  1  0  0  0  0
  5 10  2  0  0  0  0
  6  8  2  0  0  0  0
  6 11  1  0  0  0  0
  7  9  1  0  0  0  0
  7 11  2  0  0  0  0
  8 12  1  0  0  0  0
  9 12  2  0  0  0  0
 10 15  1  0  0  0  0
 11 15  1  0  0  0  0
 12 22  1  0  0  0  0
 13 15  1  0  0  0  0
 13 18  1  0  0  0  0
 13 21  2  0  0  0  0
 14 18  1  0  0  0  0
 14 19  2  0  0  0  0
 14 20  1  0  0  0  0
 15 19  1  0  0  0  0
 16 18  1  0  0  0  0
 17 22  1  0  0  0  0
  1 23  1  0  0  0  0
  2 24  1  0  0  0  0
  3 25  1  0  0  0  0
  4 26  1  0  0  0  0
  5 27  1  0  0  0  0
  6 28  1  0  0  0  0
  7 29  1  0  0  0  0
  8 30  1  0  0  0  0
  9 31  1  0  0  0  0
 16 32  1  0  0  0  0
 16 33  1  0  0  0  0
 16 34  1  0  0  0  0
 17 35  1  0  0  0  0
 17 36  1  0  0  0  0
 17 37  1  0  0  0  0
 19 38  1  0  0  0  0
 20 39  1  0  0  0  0
 20 40  1  0  0  0  0
M  CHG  1  19   1
M  END
> <OMEGA_C>
6426QJKK0b/Xy63BVrXKQHUpL78AD7XBGuSjQK2em79drqTBa5PEQH+fMT/hNbPB9ZydQGPzID5k
0qLBULSTQHEDfkA187fBEBrdQOPahUCMn7HBI8ybQMG5nUDk6r/BezflQKeIpECuoLnBK8+tQDqk
kD/cD6rB6LmzQPUxZ0BQdbDB+ZTEQH1WsUBft8DBBrLBQJbMOkDDGp3Bi5B0QFuzUEC5D5rBGNio
QHO/J0ApUafB9fGsQGmibECuqYrB0teqQBmP5kBaN83B5w6jQPERTUAMcJXBij54QIWrNkDuBKTB
kt0pQIODaUAs8JTBYSboQE+fMUChhJvBlHHOQDJF0EBCTsjBEZW/QPEuLMB3O6/BFeTbQBV5gb89
FbzB81iXQCnd+L9mIJ/B3ETRQOxxtT+eyLjBcUKMQAot9D4uzZvBbVBpQJDUX0DuibfBKZb2QNY7
eEDEUazB4MaCQNJvpkAsd8XB7mACQXxfskBwVrrBbwePQM3+dUD1LIbB1h7BQLiqPUDIeYbBkxy+
QIv0lED7QYvBXQu3QAQA/kCFB9PBWiSWQEtbz0AsV9HBik2YQPw890B9AcfBdlBFQC8VLkBXvqjB
XUzkP08zaEAC35jB8bUrQLy4fEB6T43B

> <OMEGA_E>
8LvkPg==

> <OMEGA_NBR>
     28633

$$$$
50157489
  -OEChem-04172616093D

 55 58  0     1  0  0  0  0  0999 V2000
    5.0244   -4.1560  -18.4025 C   0  0  0  0  0  0  0  0  0  0  0  0
    5.5467   -3.2215  -19.3094 C   0  0  0  0  0  0  0  0  0  0  0  0
    6.2003    0.8908  -22.4179 C   0  0  0  0  0  0  0  0  0  0  0  0
    4.5691    3.9723  -22.9672 C   0  0  0  0  0  0  0  0  0  0  0  0
    6.4420   -0.4532  -22.7209 C   0  0  0  0  0  0  0  0  0  0  0  0
    4.8554    4.8612  -24.0169 C   0  0  0  0  0  0  0  0  0  0  0  0
    4.9643    0.2097  -20.4291 C   0  0  0  0  0  0  0  0  0  0  0  0
    6.8492    4.2086  -22.1453 C   0  0  0  0  0  0  0  0  0  0  0  0
    3.7031   -4.0014  -17.9376 C   0  0  0  0  0  0  0  0  0  0  0  0
    3.4123   -2.0640  -19.2282 C   0  0  0  0  0  0  0  0  0  0  0  0
    4.7234   -2.1659  -19.7542 C   0  0  0  0  0  0  0  0  0  0  0  0
    5.2228   -1.1448  -20.7098 C   0  0  0  0  0  0  0  0  0  0  0  0
    5.4393    1.2332  -21.2780 C   0  0  0  0  0  0  0  0  0  0  0  0
    5.5497    3.6733  -21.9928 C   0  0  0  0  0  0  0  0  0  0  0  0
    5.9446   -1.4775  -21.8920 C   0  0  0  0  0  0  0  0  0  0  0  0
    7.1448    5.0901  -23.1984 C   0  0  0  0  0  0  0  0  0  0  0  0
    6.1415    5.4518  -24.1262 C   0  0  0  0  0  0  0  0  0  0  0  0
    6.0297    2.9446  -19.5946 C   0  0  0  0  0  0  0  0  0  0  0  0
    3.8051    3.3207  -19.1948 C   0  0  0  0  0  0  0  0  0  0  0  0
    5.2321    2.6829  -20.8649 C   0  0  2  0  0  0  0  0  0  0  0  0
    6.2159   -2.9101  -22.3067 C   0  0  0  0  0  0  0  0  0  0  0  0
    8.5381    5.6835  -23.2994 C   0  0  0  0  0  0  0  0  0  0  0  0
    5.4120    3.6791  -17.2650 C   0  0  0  0  0  0  0  0  0  0  0  0
    5.3807    7.0104  -25.8131 C   0  0  0  0  0  0  0  0  0  0  0  0
    2.9266   -2.9690  -18.3451 N   0  0  0  0  0  0  0  0  0  0  0  0
    5.0880    3.2636  -18.6340 N   0  0  0  0  0  0  0  0  0  0  0  0
    3.8392    2.8817  -20.4298 N   0  3  0  0  0  0  0  0  0  0  0  0
    2.6491    3.7176  -18.5417 N   0  0  0  0  0  0  0  0  0  0  0  0
    7.2166    2.7066  -19.3945 O   0  0  0  0  0  0  0  0  0  0  0  0
    6.4728    6.3681  -25.1172 O   0  0  0  0  0  0  0  0  0  0  0  0
    5.6285   -4.9848  -18.0643 H   0  0  0  0  0  0  0  0  0  0  0  0
    6.5638   -3.3091  -19.6617 H   0  0  0  0  0  0  0  0  0  0  0  0
    6.5956    1.6673  -23.0560 H   0  0  0  0  0  0  0  0  0  0  0  0
    3.5932    3.5141  -22.9038 H   0  0  0  0  0  0  0  0  0  0  0  0
    7.0161   -0.7081  -23.5994 H   0  0  0  0  0  0  0  0  0  0  0  0
    4.0928    5.0963  -24.7446 H   0  0  0  0  0  0  0  0  0  0  0  0
    4.3934    0.4706  -19.5503 H   0  0  0  0  0  0  0  0  0  0  0  0
    7.6240    3.9366  -21.4437 H   0  0  0  0  0  0  0  0  0  0  0  0
    3.3007   -4.7221  -17.2411 H   0  0  0  0  0  0  0  0  0  0  0  0
    2.7833   -1.2431  -19.5394 H   0  0  0  0  0  0  0  0  0  0  0  0
    7.1664   -3.2461  -21.8666 H   0  0  0  0  0  0  0  0  0  0  0  0
    5.3990   -3.5555  -21.9513 H   0  0  0  0  0  0  0  0  0  0  0  0
    6.2787   -2.9686  -23.4033 H   0  0  0  0  0  0  0  0  0  0  0  0
    9.1688    5.0350  -23.9253 H   0  0  0  0  0  0  0  0  0  0  0  0
    8.4784    6.6842  -23.7522 H   0  0  0  0  0  0  0  0  0  0  0  0
    8.9770    5.7616  -22.2938 H   0  0  0  0  0  0  0  0  0  0  0  0
    4.4821    3.8725  -16.7102 H   0  0  0  0  0  0  0  0  0  0  0  0
    5.9785    2.8804  -16.7639 H   0  0  0  0  0  0  0  0  0  0  0  0
    6.0188    4.5962  -17.2942 H   0  0  0  0  0  0  0  0  0  0  0  0
    5.7825    7.7056  -26.5648 H   0  0  0  0  0  0  0  0  0  0  0  0
    4.7645    6.2475  -26.3116 H   0  0  0  0  0  0  0  0  0  0  0  0
    4.7634    7.5666  -25.0923 H   0  0  0  0  0  0  0  0  0  0  0  0
    3.0336    2.7068  -20.9959 H   0  0  0  0  0  0  0  0  0  0  0  0
    1.7690    3.6788  -19.0149 H   0  0  0  0  0  0  0  0  0  0  0  0
    2.6950    4.0429  -17.5972 H   0  0  0  0  0  0  0  0  0  0  0  0
  1  2  2  0  0  0  0
  1  9  1  0  0  0  0
  2 11  1  0  0  0  0
  3  5  2  0  0  0  0
  3 13  1  0  0  0  0
  4  6  2  0  0  0  0
  4 14  1  0  0  0  0
  5 15  1  0  0  0  0
  6 17  1  0  0  0  0
  7 12  1  0  0  0  0
  7 13  2  0  0  0  0
  8 14  2  0  0  0  0
  8 16  1  0  0  0  0
  9 25  2  0  0  0  0
 10 11  2  0  0  0  0
 10 25  1  0  0  0  0
 11 12  1  0  0  0  0
 12 15  2  0  0  0  0
 13 20  1  0  0  0  0
 14 20  1  0  0  0  0
 15 21  1  0  0  0  0
 16 17  2  0  0  0  0
 16 22  1  0  0  0  0
 17 30  1  0  0  0  0
 18 20  1  0  0  0  0
 18 26  1  0  0  0  0
 18 29  2  0  0  0  0
 19 26  1  0  0  0  0
 19 27  2  0  0  0  0
 19 28  1  0  0  0  0
 20 27  1  0  0  0  0
 23 26  1  0  0  0  0
 24 30  1  0  0  0  0
  1 31  1  0  0  0  0
  2 32  1  0  0  0  0
  3 33  1  0  0  0  0
  4 34  1  0  0  0  0
  5 35  1  0  0  0  0
  6 36  1  0  0  0  0
  7 37  1  0  0  0  0
  8 38  1  0  0  0  0
  9 39  1  0  0  0  0
 10 40  1  0  0  0  0
 21 41  1  0  0  0  0
 21 42  1  0  0  0  0
 21 43  1  0  0  0  0
 22 44  1  0  0  0  0
 22 45  1  0  0  0  0
 22 46  1  0  0  0  0
 23 47  1  0  0  0  0
 23 48  1  0  0  0  0
 23 49  1  0  0  0  0
 24 50  1  0  0  0  0
 24 51  1  0  0  0  0
 24 52  1  0  0  0  0
 27 53  1  0  0  0  0
 28 54  1  0  0  0  0
 28 55  1  0  0  0  0
M  CHG  1  27   1
M  END
> <OMEGA_C>
3segQJj9hMBVOJPBLX6xQEotTsCkeZrBlGjGQO0MZD/nV7PB9zWSQFY6fkC8vLfBOCXOQNMK6L5P
xLXBbl+bQKmOm0CjIsDBfdueQMi7Vj7ebqPBzCzbQNSshkCAKbHBsv9sQLQLgMA1gI/B0GNaQMEY
BMBN05nB9SWXQEqeCsCJCJ7BBCGnQCOJkr+oraXBpg6uQAPbnT9OOarBQpexQPAWa0BX8a/BYDq+
QFgevb/AIq/Ba6LkQGHiokBclrnBIYfEQMx0rkCGAsHB/PLAQEJ0PEC0wZzBjYdzQPKFVED0jpnB
F22nQO60K0Bf66bBUOjGQMY+OsAbdLLBB5wIQdPetUA1ZbrBKS+tQBp3a0C/HorBay6sQN9U4EA3
gc7BEE07QJYDPsCuwpLB7tCiQB7fUEB/EpXB3LR1QIZuOEAmcKPByIopQNDtbUBRVZTBO+7mQLA5
LUDeJ5vBVCHPQCjHy0AK8MjBAh20QMSDn8C5g5DBrwrSQNPHU8A2S53Bdw/TQGhr1T+ecrjBVfZl
QDHnYEDpOrfBvIPgQBFHNb+ky7zBOfiCQBYVo0D29MXBiZaMQIPx8D74ZpzBpvfzQKjxe0C5jKvB
lz5TQBwbl8C27YnB1SEyQJEen7+zUJzB11LlQFy/T8DW7q7B0sSsQIaMY8BTnK/Bb+vIQMH8PcAI
OrvBkrMSQc8eoUDwZr/Bf6cHQa3k1UB+BL7BwaEPQeJeuEC1WbLBM22PQO/Wd0BtroXB10+/QKFY
OEB4HIbBL5rAQMUTk0CMWorBjAq5QEuU9kDQhNTBJXeYQOPrx0AmftLBwG2YQMch8kAFvcjBFCdC
QAE8LUCa96fBxm7iP3Nxa0B2HpjBHXssQJVfgUD5xozBaNyDQN7Aa8C115HBLY2cQITpLMBo+5bB
mwbVQGosaT8fc7DBZbnRQLYRlkAI967BHIzdQJED375V9LLBsl7ZQCHDsEBMvrfBIM2dQBhrUT7H
4qPBPa2cQOAwXUBrTrnBgok6QH6Tg8D1nJbBhL9NQBhvKcAoFqXBZeKNQPqjC8DwxaDB12KmQOUH
kr+cVabBfEG0QBtanz+REanBJmWzQIs1aUAQoq/BQTTGQA0jvL+t9q3B2lSkQDlZiUDPM8LBlsPC
QLHnqkAXd8HBF0TDQFu1RUDfBpzBYpp2QMxUVUAVAZnBltmqQPJELUDzI6bB5PTPQJPbOsDns7DB
REyLQCRNgkCVe8zBZcOtQEXYfUAP3YnBmULoQNpS50BZTsnBz9EeQLsaZsAhCKDBEpykQD2RZEAL
+pTB5X57QGraOED+5KLBqjYqQBniYkBujpPBY/3pQIUDQUD8gJrBvzTJQIMLxUDDVcrBbEWOQMBm
g8BmVIrBYCS6QBahFsB7fpPBV5DnQDXm2D9SLLTBoibjQCgSm0D9m6fBjBL2QLeXLb9yubjBLr3w
QI8YykBYG7fBSMiFQLzo4z60+p3B8z+FQBGXKkAB5LnBkqUUQIHLm8A2q5LBiwU3QNVVD8DNkKzB
duroQJk5U8DpS6vB78OyQCd9YcD7xa/BwDzbQN3/PsDEBbnBn2JbQLVSlUCFRMzBSN2eQBhLjEC0
W9PB5DqDQH5cQEA0Q83BtxyQQDr6iUB3AobB1I+6QLOTRkBQc4XBxnfFQJfxmEBe04nBjQvqQC5B
+UCU3dDBPW7eQBQB/UDR0sLBGe0DQfyy2UA3csfByQlJQO20LEBlk6fB6rXkP9nWVkDJKJfBmSEr
QIaseEAFCYzB7sIKQMYiTMCWrJzBmhg5QP9dDMBBEaLBQdrVQPIxXD+p26/BYXDBQEKBnkDP+63B
WizdQBSZ9r4Yo7LBjKnJQGrQuUCHrbbBfbGaQJofOj5LZqTBp6iqQKNyTUDmZbrB2F43QBvuhMBC
mpbBbsGdQAAlTMD5BZvBDoOJQB7xDMB1VqHBBgajQPSrlb/GzKbBCzCzQAI1mz9OGKnBvgizQMBG
aEAiwq/BOJXDQEWbwL98Q67Bu9m0QA82gUBuI8PBMarDQOFNq0A2QMHBtePCQDK8Q0A7PpzBS711
QJQBU0BuBpnBzfypQMrhK0DgS6bBM57MQIujPMCRabHBXPKtQAWsYUAKdc7BXfCtQPL8fEDEDorB
NnOoQN/X4EBSwMzBWPSGQPt5hMD705XB4SykQO9rV0BulpTBFBp6QL7FOECaBaPBvrspQFm/ZUAx
u5PBheXpQCSCRUB+KJvBUUnMQI9pxkDAqMnB1I2LP/nuTcCIKp3ByXEYQKHGt7/hrabBLc7qQF+w
0D/g5bLBUSHGQBHkqUAm6aXBuoz2QJzyOr+jJ7jBR6LUQOsV2kBLQLXBJ0SBQIhS3T7i5p7B3Eic
QJmbD0BozrvBvLQTQACAncBXeZLBFzTAQAnoS8AeVJrBekLkQDc/WMCB4avBcsyuQBnqYcDNBLHB
6FHZQAeCPsC6nbnBUDCNQATrcECpDdHB3AHFQDQ7gEDg4NPBXKiyQGXrG0Aios7Bcg6QQAgZg0Az
jYXBnjDDQDKxUUALmIXByt+9QDGRnUDhKYvBLdKxQER/9UAme9PBJ5CNQDtUzEAYMc/BbKieQLLV
9EA678XByG9HQN/rLkCJwKfBz4zjPwyOX0AgiZfB0wkrQI9qeUDBHozB

> <OMEGA_E>
gIsePUJrCz/4xg8/

> <OMEGA_NBR>
     31669

$$$$
50157438
  -OEChem-04172616093D

 63 67  0     1  0  0  0  0  0999 V2000
    6.5249   -0.5061  -22.6947 C   0  0  0  0  0  0  0  0  0  0  0  0
    4.8697   -4.2687  -18.6431 C   0  0  0  0  0  0  0  0  0  0  0  0
    6.0160   -1.5054  -21.8490 C   0  0  0  0  0  0  0  0  0  0  0  0
    5.4052   -3.3499  -19.5561 C   0  0  0  0  0  0  0  0  0  0  0  0
    6.2558    0.8459  -22.4251 C   0  0  0  0  0  0  0  0  0  0  0  0
    4.4939    4.0297  -22.9331 C   0  0  0  0  0  0  0  0  0  0  0  0
    4.7971    4.9232  -23.9794 C   0  0  0  0  0  0  0  0  0  0  0  0
    4.9783    0.2023  -20.4567 C   0  0  0  0  0  0  0  0  0  0  0  0
    6.8337    3.9866  -22.2868 C   0  0  0  0  0  0  0  0  0  0  0  0
    3.6373   -3.9861  -18.0185 C   0  0  0  0  0  0  0  0  0  0  0  0
    3.4601   -1.9456  -19.1496 C   0  0  0  0  0  0  0  0  0  0  0  0
    5.2322   -1.1495  -20.7284 C   0  0  0  0  0  0  0  0  0  0  0  0
    4.6925   -2.1650  -19.8143 C   0  0  0  0  0  0  0  0  0  0  0  0
    5.4686    1.2098  -21.2983 C   0  0  0  0  0  0  0  0  0  0  0  0
    5.5091    3.6070  -22.0396 C   0  0  0  0  0  0  0  0  0  0  0  0
    6.1235    5.3981  -24.1428 C   0  0  0  0  0  0  0  0  0  0  0  0
    7.1279    4.9053  -23.2937 C   0  0  0  0  0  0  0  0  0  0  0  0
    6.0302    2.9777  -19.6255 C   0  0  0  0  0  0  0  0  0  0  0  0
    3.8048    3.3018  -19.1985 C   0  0  0  0  0  0  0  0  0  0  0  0
    7.3679    8.1264  -22.1266 C   0  0  0  0  0  0  0  0  0  0  0  0
    8.6804    8.3614  -22.9110 C   0  0  0  0  0  0  0  0  0  0  0  0
    7.6208    6.8625  -21.2949 C   0  0  0  0  0  0  0  0  0  0  0  0
    9.6609    7.2638  -22.4439 C   0  0  0  0  0  0  0  0  0  0  0  0
    8.7552    6.1099  -22.0579 C   0  0  0  0  0  0  0  0  0  0  0  0
    5.2208    2.6569  -20.8884 C   0  0  2  0  0  0  0  0  0  0  0  0
    5.4159    3.6429  -17.2743 C   0  0  0  0  0  0  0  0  0  0  0  0
    5.4431    7.1008  -25.7182 C   0  0  0  0  0  0  0  0  0  0  0  0
    2.9565   -2.8452  -18.2769 N   0  0  0  0  0  0  0  0  0  0  0  0
    5.1068    3.4155  -18.6933 N   0  0  0  0  0  0  0  0  0  0  0  0
    3.8320    2.8499  -20.4313 N   0  3  0  0  0  0  0  0  0  0  0  0
    2.6439    3.6152  -18.5084 N   0  0  0  0  0  0  0  0  0  0  0  0
    7.2217    2.7749  -19.4138 O   0  0  0  0  0  0  0  0  0  0  0  0
    8.3628    5.4801  -23.3149 O   0  0  0  0  0  0  0  0  0  0  0  0
    6.4976    6.3715  -25.0609 O   0  0  0  0  0  0  0  0  0  0  0  0
    7.1229   -0.7772  -23.5522 H   0  0  0  0  0  0  0  0  0  0  0  0
    5.3961   -5.1849  -18.4200 H   0  0  0  0  0  0  0  0  0  0  0  0
    6.2236   -2.5450  -22.0550 H   0  0  0  0  0  0  0  0  0  0  0  0
    6.3448   -3.5475  -20.0507 H   0  0  0  0  0  0  0  0  0  0  0  0
    6.6487    1.6125  -23.0766 H   0  0  0  0  0  0  0  0  0  0  0  0
    3.4844    3.6658  -22.8116 H   0  0  0  0  0  0  0  0  0  0  0  0
    4.0201    5.2462  -24.6565 H   0  0  0  0  0  0  0  0  0  0  0  0
    4.3969    0.4707  -19.5871 H   0  0  0  0  0  0  0  0  0  0  0  0
    7.6323    3.5656  -21.6941 H   0  0  0  0  0  0  0  0  0  0  0  0
    3.2268   -4.6974  -17.3171 H   0  0  0  0  0  0  0  0  0  0  0  0
    2.9102   -1.0370  -19.3457 H   0  0  0  0  0  0  0  0  0  0  0  0
    7.1509    8.9829  -21.4714 H   0  0  0  0  0  0  0  0  0  0  0  0
    6.5269    7.9716  -22.8185 H   0  0  0  0  0  0  0  0  0  0  0  0
    8.4992    8.2762  -23.9926 H   0  0  0  0  0  0  0  0  0  0  0  0
    9.0871    9.3581  -22.6848 H   0  0  0  0  0  0  0  0  0  0  0  0
    7.9455    7.1256  -20.2774 H   0  0  0  0  0  0  0  0  0  0  0  0
    6.7124    6.2445  -21.2416 H   0  0  0  0  0  0  0  0  0  0  0  0
   10.3406    6.9730  -23.2584 H   0  0  0  0  0  0  0  0  0  0  0  0
   10.2494    7.6060  -21.5798 H   0  0  0  0  0  0  0  0  0  0  0  0
    9.2711    5.4069  -21.3874 H   0  0  0  0  0  0  0  0  0  0  0  0
    4.5111    3.9873  -16.7520 H   0  0  0  0  0  0  0  0  0  0  0  0
    5.7661    2.7041  -16.8204 H   0  0  0  0  0  0  0  0  0  0  0  0
    6.2021    4.4073  -17.1884 H   0  0  0  0  0  0  0  0  0  0  0  0
    5.8808    7.8331  -26.4126 H   0  0  0  0  0  0  0  0  0  0  0  0
    4.8065    6.3999  -26.2781 H   0  0  0  0  0  0  0  0  0  0  0  0
    4.8366    7.6261  -24.9658 H   0  0  0  0  0  0  0  0  0  0  0  0
    3.0208    2.6621  -20.9851 H   0  0  0  0  0  0  0  0  0  0  0  0
    1.7537    3.5010  -18.9495 H   0  0  0  0  0  0  0  0  0  0  0  0
    2.6967    3.9555  -17.5695 H   0  0  0  0  0  0  0  0  0  0  0  0
  1  3  1  0  0  0  0
  1  5  2  0  0  0  0
  2  4  2  0  0  0  0
  2 10  1  0  0  0  0
  3 12  2  0  0  0  0
  4 13  1  0  0  0  0
  5 14  1  0  0  0  0
  6  7  2  0  0  0  0
  6 15  1  0  0  0  0
  7 16  1  0  0  0  0
  8 12  1  0  0  0  0
  8 14  2  0  0  0  0
  9 15  2  0  0  0  0
  9 17  1  0  0  0  0
 10 28  2  0  0  0  0
 11 13  2  0  0  0  0
 11 28  1  0  0  0  0
 12 13  1  0  0  0  0
 14 25  1  0  0  0  0
 15 25  1  0  0  0  0
 16 17  2  0  0  0  0
 16 34  1  0  0  0  0
 17 33  1  0  0  0  0
 18 25  1  0  0  0  0
 18 29  1  0  0  0  0
 18 32  2  0  0  0  0
 19 29  1  0  0  0  0
 19 30  2  0  0  0  0
 19 31  1  0  0  0  0
 20 21  1  0  0  0  0
 20 22  1  0  0  0  0
 21 23  1  0  0  0  0
 22 24  1  0  0  0  0
 23 24  1  0  0  0  0
 24 33  1  0  0  0  0
 25 30  1  0  0  0  0
 26 29  1  0  0  0  0
 27 34  1  0  0  0  0
  1 35  1  0  0  0  0
  2 36  1  0  0  0  0
  3 37  1  0  0  0  0
  4 38  1  0  0  0  0
  5 39  1  0  0  0  0
  6 40  1  0  0  0  0
  7 41  1  0  0  0  0
  8 42  1  0  0  0  0
  9 43  1  0  0  0  0
 10 44  1  0  0  0  0
 11 45  1  0  0  0  0
 20 46  1  0  0  0  0
 20 47  1  0  0  0  0
 21 48  1  0  0  0  0
 21 49  1  0  0  0  0
 22 50  1  0  0  0  0
 22 51  1  0  0  0  0
 23 52  1  0  0  0  0
 23 53  1  0  0  0  0
 24 54  1  0  0  0  0
 26 55  1  0  0  0  0
 26 56  1  0  0  0  0
 26 57  1  0  0  0  0
 27 58  1  0  0  0  0
 27 59  1  0  0  0  0
 27 60  1  0  0  0  0
 30 61  1  0  0  0  0
 31 62  1  0  0  0  0
 31 63  1  0  0  0  0
M  CHG  1  30   1
M  END
> <OMEGA_C>
z8vQQOaMAb/IjrXBU9SbQACZiMAnJZXByYLAQDexwL+pyq7Bq/esQAJlVsDtcpzB2C/IQGSPWD+a
ZrPBNc6PQILzgEDkdrfBlYGZQCSLnUDg1b/B6U2fQIAeTz5gp6PBfa3aQAAlf0BYS7LBV8loQOIc
f8D2JZDBWXJdQAsL+b9oMpnB522nQFYkk7/I06XBWSmWQD6PCsDJg57BBf+uQATcmj/3YqrBikqw
QMzYZkAmUbDB+fPDQEe9rEBzJMHBqxfkQOD3nECZWbrBcffAQNiRPkAQAZ3B5YFzQAxRU0B8lpnB
HMbrQKkFAkFVA7HB3uIKQUjIBUHKSbfBkt3zQGiZ20AIXKrBHZMaQSFx6EAFjbPBGRUMQfiDw0Cu
drDBjhCnQKQKKkB7G6fBvU6tQLQkaUC6MYrBHS6uQLI540D5vs3BTjc9QNgXNsAPN5LBmmqjQB6X
WkDIi5XBbT91QKJkNkBdc6PBsjUpQCpgZ0AuEZTBMxjnQASYMUBdT5vB/c0FQZ1cr0DchLrBnOzP
QPTiy0CwfMjBFu/jQC/0Rr/aarzBEa2sQJXqpcAbXJPBuyfHQP7hIsCZcLDBqgjLQKIJY8DBZ6DB
/cHUQCdnzj/UnLjBmv9eQCadakAffrbBwqSAQDrhp0B8QMXBObOMQNME8T5OspzBIDz0QJMyZECN
ja3Bi4NOQL5QlsBdiYrBEUE6QJO9hL/9w5rBKdTkQOi5D0F4xavBPdzQQIoX/0BJjLbBk/wHQUxr
BEHy8L/BumQRQcG6FUFxerXBsUH+QDMF5EAyOKLBvcvWQM/Sx0DG7qnBJnMlQfsi30AsEbrBef0j
QUhk80Bno6zBYFYUQZQFrUBMGavB+FqQQHUwf0AiBIbBfYO4QCkPLUA1kIbB8HfGQLgIjUDCgYnB
Zi+8QB+p+kD/TNPBG8+ZQL7LzECVOdLBQcWaQBAJ9EACusfB0lRBQHpfKkCJ4afBa3rgPwERYECI
mJfBNpcsQDQnfUBvjozB

> <OMEGA_E>
WFWhPg==

> <OMEGA_NBR>
     33016

$$$$
50157446
  -OEChem-04172616093D

 56 59  0     1  0  0  0  0  0999 V2000
    6.5655   -0.5777  -22.6762 C   0  0  0  0  0  0  0  0  0  0  0  0
    4.8537   -4.2486  -18.5382 C   0  0  0  0  0  0  0  0  0  0  0  0
    6.0439   -1.5694  -21.8263 C   0  0  0  0  0  0  0  0  0  0  0  0
    5.4016   -3.3662  -19.4802 C   0  0  0  0  0  0  0  0  0  0  0  0
    6.3046    0.7801  -22.4180 C   0  0  0  0  0  0  0  0  0  0  0  0
    4.4843    4.0091  -22.9003 C   0  0  0  0  0  0  0  0  0  0  0  0
    4.7544    4.9519  -23.9078 C   0  0  0  0  0  0  0  0  0  0  0  0
    5.0129    0.1559  -20.4541 C   0  0  0  0  0  0  0  0  0  0  0  0
    6.8512    3.9326  -22.3335 C   0  0  0  0  0  0  0  0  0  0  0  0
    3.6094   -3.9461  -17.9463 C   0  0  0  0  0  0  0  0  0  0  0  0
    3.4410   -1.9589  -19.1684 C   0  0  0  0  0  0  0  0  0  0  0  0
    5.2527   -1.1989  -20.7162 C   0  0  0  0  0  0  0  0  0  0  0  0
    4.6896   -2.1957  -19.7965 C   0  0  0  0  0  0  0  0  0  0  0  0
    5.5143    1.1555  -21.2984 C   0  0  0  0  0  0  0  0  0  0  0  0
    5.5249    3.5685  -22.0444 C   0  0  0  0  0  0  0  0  0  0  0  0
    6.0817    5.3990  -24.1112 C   0  0  0  0  0  0  0  0  0  0  0  0
    7.1284    4.7979  -23.3925 C   0  0  0  0  0  0  0  0  0  0  0  0
    6.0515    2.9589  -19.6489 C   0  0  0  0  0  0  0  0  0  0  0  0
    3.8261    3.3238  -19.2598 C   0  0  0  0  0  0  0  0  0  0  0  0
    5.2533    2.6048  -20.9021 C   0  0  2  0  0  0  0  0  0  0  0  0
    8.9097    7.2137  -22.9548 C   0  0  0  0  0  0  0  0  0  0  0  0
    5.4237    3.7603  -17.3476 C   0  0  0  0  0  0  0  0  0  0  0  0
    5.6072    6.6786  -26.0877 C   0  0  0  0  0  0  0  0  0  0  0  0
    9.2427    5.7213  -22.8548 C   0  0  0  0  0  0  0  0  0  0  0  0
    2.9257   -2.8232  -18.2677 N   0  0  0  0  0  0  0  0  0  0  0  0
    5.1265    3.4732  -18.7569 N   0  0  0  0  0  0  0  0  0  0  0  0
    3.8605    2.7700  -20.4484 N   0  3  0  0  0  0  0  0  0  0  0  0
    2.6572    3.6862  -18.6086 N   0  0  0  0  0  0  0  0  0  0  0  0
    7.2441    2.7691  -19.4323 O   0  0  0  0  0  0  0  0  0  0  0  0
    6.4116    6.4701  -24.9202 O   0  0  0  0  0  0  0  0  0  0  0  0
    8.4297    4.9917  -23.7868 O   0  0  0  0  0  0  0  0  0  0  0  0
    7.1669   -0.8590  -23.5280 H   0  0  0  0  0  0  0  0  0  0  0  0
    5.3799   -5.1523  -18.2681 H   0  0  0  0  0  0  0  0  0  0  0  0
    6.2478   -2.6118  -22.0219 H   0  0  0  0  0  0  0  0  0  0  0  0
    6.3491   -3.5807  -19.9521 H   0  0  0  0  0  0  0  0  0  0  0  0
    6.7062    1.5395  -23.0726 H   0  0  0  0  0  0  0  0  0  0  0  0
    3.4840    3.6206  -22.7785 H   0  0  0  0  0  0  0  0  0  0  0  0
    3.9530    5.3330  -24.5234 H   0  0  0  0  0  0  0  0  0  0  0  0
    4.4321    0.4347  -19.5872 H   0  0  0  0  0  0  0  0  0  0  0  0
    7.6593    3.5410  -21.7334 H   0  0  0  0  0  0  0  0  0  0  0  0
    3.1923   -4.6271  -17.2192 H   0  0  0  0  0  0  0  0  0  0  0  0
    2.8880   -1.0649  -19.4164 H   0  0  0  0  0  0  0  0  0  0  0  0
    9.5303    7.7770  -22.2424 H   0  0  0  0  0  0  0  0  0  0  0  0
    9.1126    7.5668  -23.9767 H   0  0  0  0  0  0  0  0  0  0  0  0
    7.8469    7.3689  -22.7176 H   0  0  0  0  0  0  0  0  0  0  0  0
    4.5242    4.1600  -16.8567 H   0  0  0  0  0  0  0  0  0  0  0  0
    5.7359    2.8341  -16.8428 H   0  0  0  0  0  0  0  0  0  0  0  0
    6.2341    4.5016  -17.2876 H   0  0  0  0  0  0  0  0  0  0  0  0
    5.9771    7.5574  -26.6362 H   0  0  0  0  0  0  0  0  0  0  0  0
    5.6644    5.7914  -26.7354 H   0  0  0  0  0  0  0  0  0  0  0  0
    4.5624    6.8468  -25.7876 H   0  0  0  0  0  0  0  0  0  0  0  0
   10.3053    5.5648  -23.0925 H   0  0  0  0  0  0  0  0  0  0  0  0
    9.0395    5.3668  -21.8335 H   0  0  0  0  0  0  0  0  0  0  0  0
    3.0542    2.4979  -20.9735 H   0  0  0  0  0  0  0  0  0  0  0  0
    1.7718    3.5285  -19.0458 H   0  0  0  0  0  0  0  0  0  0  0  0
    2.6994    4.1052  -17.7016 H   0  0  0  0  0  0  0  0  0  0  0  0
  1  3  1  0  0  0  0
  1  5  2  0  0  0  0
  2  4  2  0  0  0  0
  2 10  1  0  0  0  0
  3 12  2  0  0  0  0
  4 13  1  0  0  0  0
  5 14  1  0  0  0  0
  6  7  2  0  0  0  0
  6 15  1  0  0  0  0
  7 16  1  0  0  0  0
  8 12  1  0  0  0  0
  8 14  2  0  0  0  0
  9 15  2  0  0  0  0
  9 17  1  0  0  0  0
 10 25  2  0  0  0  0
 11 13  2  0  0  0  0
 11 25  1  0  0  0  0
 12 13  1  0  0  0  0
 14 20  1  0  0  0  0
 15 20  1  0  0  0  0
 16 17  2  0  0  0  0
 16 30  1  0  0  0  0
 17 31  1  0  0  0  0
 18 20  1  0  0  0  0
 18 26  1  0  0  0  0
 18 29  2  0  0  0  0
 19 26  1  0  0  0  0
 19 27  2  0  0  0  0
 19 28  1  0  0  0  0
 20 27  1  0  0  0  0
 21 24  1  0  0  0  0
 22 26  1  0  0  0  0
 23 30  1  0  0  0  0
 24 31  1  0  0  0  0
  1 32  1  0  0  0  0
  2 33  1  0  0  0  0
  3 34  1  0  0  0  0
  4 35  1  0  0  0  0
  5 36  1  0  0  0  0
  6 37  1  0  0  0  0
  7 38  1  0  0  0  0
  8 39  1  0  0  0  0
  9 40  1  0  0  0  0
 10 41  1  0  0  0  0
 11 42  1  0  0  0  0
 21 43  1  0  0  0  0
 21 44  1  0  0  0  0
 21 45  1  0  0  0  0
 22 46  1  0  0  0  0
 22 47  1  0  0  0  0
 22 48  1  0  0  0  0
 23 49  1  0  0  0  0
 23 50  1  0  0  0  0
 23 51  1  0  0  0  0
 24 52  1  0  0  0  0
 24 53  1  0  0  0  0
 27 54  1  0  0  0  0
 28 55  1  0  0  0  0
 28 56  1  0  0  0  0
M  CHG  1  27   1
M  END
> <OMEGA_C>
XBjSQGziE7/paLXBXlGbQJz0h8BETpTBtmfBQKrjyL9HnK7BCNqsQGNvV8CB15vBob/JQGiyRz8d
WLPBr3+PQI5KgEDTM7fBsCOYQNJ1nkAuQ7/BoGmgQG2wHz70oaPBDT3bQEyve0D9qrLBaABnQLeN
fMAKko/BPDlcQK68+r/hWJnBKhaoQHN1mb/GuqXBKhGWQAmHDMAwX57BdHWwQOHnkz8yY6rBtcuw
QEViZEAHW7DBZp3CQGbErEDA48DByxvkQCaImUDWI7vBe6XBQA1ePUDzMJ3BJN90QF+5VEAEFJrB
zBqoQJu0JkCaN6fBPI4OQQDX5kCHo7fBGo+tQECocEDlx4rBgm6zQAu31UCGs9DBOuITQdgUt0CL
1rbB4j47QGSvNMAqJJLBlQykQF1IXkAKDpbBBBJ3QBFIMUBFlqPB3A8qQEDqa0Bp3pTBf8/nQL05
MUBSdZvB/CvNQN4Kz0ClXMfB9N8GQdC7n0B1S77BNFflQEnkW79pObzB2CesQEDfpMARJZLB6O3H
QHIoJ8DILLDBmyvLQEQqZcD6nZ/BJ5nWQBoNxT+wlLjBffpeQFe3Z0BNOrbBQ/18QL+nqkDeL8TB
KtSNQKGS3j6mspzBuhj1QFGfYkAO3q3B505MQGIRlMDhwInBXNU4QDNQiL/HVJvBMHwYQVXd+EBu
8LHBXM0RQZgj8kA/0L/BnRn7QLPN60CfvbXB2MWQQLcehUCC2obBUIy3QIxiNUAHvobB7H3HQIEN
kEDzTIrBAUS/QGbW8UDyFtXBHUO1QDVTuUAx4tXBLv+RQLMY20AHTc7BXOIkQRYTskCJvbjBzqEQ
QTK9q0Dpqq7Bc3dDQNDcH0DKyafBS8riP/fSYUDdXZjBTsMsQCFeg0DunI3B

> <OMEGA_E>
KC0rPg==

> <OMEGA_NBR>
     34248

$$$$
50157509
  -OEChem-04172616093D

 49 52  0     1  0  0  0  0  0999 V2000
    6.3064   -0.5825  -22.7827 C   0  0  0  0  0  0  0  0  0  0  0  0
    4.9725   -4.2218  -18.4791 C   0  0  0  0  0  0  0  0  0  0  0  0
    5.8356   -1.5670  -21.8933 C   0  0  0  0  0  0  0  0  0  0  0  0
    5.4436   -3.3202  -19.4462 C   0  0  0  0  0  0  0  0  0  0  0  0
    6.1111    0.7834  -22.4993 C   0  0  0  0  0  0  0  0  0  0  0  0
    4.6191    3.9967  -22.9743 C   0  0  0  0  0  0  0  0  0  0  0  0
    4.8899    4.9357  -23.9805 C   0  0  0  0  0  0  0  0  0  0  0  0
    4.9378    0.1757  -20.4505 C   0  0  0  0  0  0  0  0  0  0  0  0
    6.9147    4.1803  -22.1810 C   0  0  0  0  0  0  0  0  0  0  0  0
    3.7206   -3.9918  -17.8715 C   0  0  0  0  0  0  0  0  0  0  0  0
    3.4101   -2.0275  -19.1127 C   0  0  0  0  0  0  0  0  0  0  0  0
    5.1398   -1.1884  -20.7249 C   0  0  0  0  0  0  0  0  0  0  0  0
    4.6556   -2.1974  -19.7649 C   0  0  0  0  0  0  0  0  0  0  0  0
    5.4267    1.1741  -21.3219 C   0  0  0  0  0  0  0  0  0  0  0  0
    5.6107    3.6427  -22.0307 C   0  0  0  0  0  0  0  0  0  0  0  0
    6.1744    5.5279  -24.0849 C   0  0  0  0  0  0  0  0  0  0  0  0
    7.1900    5.1205  -23.1920 C   0  0  0  0  0  0  0  0  0  0  0  0
    6.0322    2.9026  -19.6188 C   0  0  0  0  0  0  0  0  0  0  0  0
    3.7994    3.2449  -19.2472 C   0  0  0  0  0  0  0  0  0  0  0  0
    5.2643    2.6413  -20.9123 C   0  0  2  0  0  0  0  0  0  0  0  0
    5.3692    3.6537  -17.3078 C   0  0  0  0  0  0  0  0  0  0  0  0
    5.3864    7.0822  -25.7671 C   0  0  0  0  0  0  0  0  0  0  0  0
    2.9628   -2.9167  -18.1956 N   0  0  0  0  0  0  0  0  0  0  0  0
    5.0680    3.1676  -18.6599 N   0  0  0  0  0  0  0  0  0  0  0  0
    3.8629    2.8609  -20.4995 N   0  3  0  0  0  0  0  0  0  0  0  0
    2.6322    3.6351  -18.6077 N   0  0  0  0  0  0  0  0  0  0  0  0
    7.2340    2.7699  -19.4149 O   0  0  0  0  0  0  0  0  0  0  0  0
    6.4899    6.4851  -25.0422 O   0  0  0  0  0  0  0  0  0  0  0  0
    8.4374    5.6405  -23.2939 F   0  0  0  0  0  0  0  0  0  0  0  0
    6.8197   -0.8759  -23.6865 H   0  0  0  0  0  0  0  0  0  0  0  0
    5.5628   -5.0830  -18.2030 H   0  0  0  0  0  0  0  0  0  0  0  0
    6.0067   -2.6121  -22.1050 H   0  0  0  0  0  0  0  0  0  0  0  0
    6.3918   -3.4844  -19.9364 H   0  0  0  0  0  0  0  0  0  0  0  0
    6.4837    1.5340  -23.1806 H   0  0  0  0  0  0  0  0  0  0  0  0
    3.6423    3.5390  -22.9198 H   0  0  0  0  0  0  0  0  0  0  0  0
    4.1147    5.2098  -24.6808 H   0  0  0  0  0  0  0  0  0  0  0  0
    4.4002    0.4646  -19.5595 H   0  0  0  0  0  0  0  0  0  0  0  0
    7.7035    3.8656  -21.5138 H   0  0  0  0  0  0  0  0  0  0  0  0
    3.3579   -4.6889  -17.1306 H   0  0  0  0  0  0  0  0  0  0  0  0
    2.8024   -1.1676  -19.3530 H   0  0  0  0  0  0  0  0  0  0  0  0
    4.4319    3.7834  -16.7469 H   0  0  0  0  0  0  0  0  0  0  0  0
    6.0083    2.9235  -16.7897 H   0  0  0  0  0  0  0  0  0  0  0  0
    5.8936    4.6184  -17.3735 H   0  0  0  0  0  0  0  0  0  0  0  0
    5.7751    7.8170  -26.4875 H   0  0  0  0  0  0  0  0  0  0  0  0
    4.8341    6.2978  -26.3053 H   0  0  0  0  0  0  0  0  0  0  0  0
    4.7118    7.5851  -25.0585 H   0  0  0  0  0  0  0  0  0  0  0  0
    3.0696    2.7337  -21.0949 H   0  0  0  0  0  0  0  0  0  0  0  0
    1.7651    3.6350  -19.1058 H   0  0  0  0  0  0  0  0  0  0  0  0
    2.6578    3.9166  -17.6485 H   0  0  0  0  0  0  0  0  0  0  0  0
  1  3  1  0  0  0  0
  1  5  2  0  0  0  0
  2  4  2  0  0  0  0
  2 10  1  0  0  0  0
  3 12  2  0  0  0  0
  4 13  1  0  0  0  0
  5 14  1  0  0  0  0
  6  7  2  0  0  0  0
  6 15  1  0  0  0  0
  7 16  1  0  0  0  0
  8 12  1  0  0  0  0
  8 14  2  0  0  0  0
  9 15  2  0  0  0  0
  9 17  1  0  0  0  0
 10 23  2  0  0  0  0
 11 13  2  0  0  0  0
 11 23  1  0  0  0  0
 12 13  1  0  0  0  0
 14 20  1  0  0  0  0
 15 20  1  0  0  0  0
 16 17  2  0  0  0  0
 16 28  1  0  0  0  0
 17 29  1  0  0  0  0
 18 20  1  0  0  0  0
 18 24  1  0  0  0  0
 18 27  2  0  0  0  0
 19 24  1  0  0  0  0
 19 25  2  0  0  0  0
 19 26  1  0  0  0  0
 20 25  1  0  0  0  0
 21 24  1  0  0  0  0
 22 28  1  0  0  0  0
  1 30  1  0  0  0  0
  2 31  1  0  0  0  0
  3 32  1  0  0  0  0
  4 33  1  0  0  0  0
  5 34  1  0  0  0  0
  6 35  1  0  0  0  0
  7 36  1  0  0  0  0
  8 37  1  0  0  0  0
  9 38  1  0  0  0  0
 10 39  1  0  0  0  0
 11 40  1  0  0  0  0
 21 41  1  0  0  0  0
 21 42  1  0  0  0  0
 21 43  1  0  0  0  0
 22 44  1  0  0  0  0
 22 45  1  0  0  0  0
 22 46  1  0  0  0  0
 25 47  1  0  0  0  0
 26 48  1  0  0  0  0
 26 49  1  0  0  0  0
M  CHG  1  25   1
M  END
> <OMEGA_C>
BM7JQDIeFb/uQrbBDx+fQKQYh8BI1ZPBDL26QAKSyL9uJa/BmTGuQMV+VMDGkZvBX47DQF2NSD+O
/rPBYc+TQFHJf0Bey7fBVXqcQJLxnUAV2L/BOgKeQMjiMz6nmqPBJEXdQGLFhUCwcrHBBh9uQB16
f8C/+I7BSz5aQDHCAcDZ5pjBpnmkQPQdmL+RzKXBUPqUQHWhDMBxHp7BZKetQFRIlj8wk6rBmIqz
QHEhaUDcPrDBaJTFQN/ksEDmrcDBXxTmQAnbo0BRibnBogfBQIrEOUBX85zBEylzQOWsT0BR+pnB
J3WoQLkKKUBbTKfB2dCrQMLVaUBldorBBF2sQLih4kDzIs7BtZ09QPWrOsCPkJHBMy2iQFC6SkBw
R5XBFTp3QEkYN0AM/6PB1HUoQCSmaECI3JTBRn3nQFVGMUDRUZvBEq3PQKuFz0BkVsjBlf8GQTF/
tED4WbrB9TraQBY6YL/nfb3BmgKyQPSnosDTn5HBMzfAQFssJ8D71rDBlInMQH0AX8CxfZ/BknrP
QE1bxD/PcbnBBBxpQHV/YkC9W7fB+auDQHK2pkA/csXB1M6MQFbk7T7JeZzBv4L2QHdmd0AzHKzB
a+dWQN4LlsCJC4nBklozQPNylb/k0prBNNKNQBsjckC7+YXBS0TAQIYaO0BhUYbBd5i8QAzKk0Dg
/IrBO824QK4k+kB45tPBJrGaQMGHyUBQcdLBxsaWQHm58kDfd8jBHHREQJ31LkBdwqjBBO7hP9Gj
aECo2JjBnBgqQA6qekAKMI3BNkLKQMGnE78XNrbBJmueQHYvh8BP5ZPB7eu6QMjyx7/ZIq/B2d2t
QLGgVMDqlJvB71vEQOsOSj9G5LPBRAbdQH46h0BXULHBZOjkQKAOpUBHhLnB7tieQDDLOD5Lf6PB
ZzOUQJrIfECvz7fBMIhsQKVXf8CsGI/BSvlZQLAsAcCj+pjBE9ikQMyFl7/OwqXBm/GUQNJhDMAQ
I57B3ZiuQLjrlj+Hc6rBNuqzQBZMaUBCKbDBSGDEQMLEsEAhycDBZLubQOsunEDV+b/B/I/BQOrB
OkB23JzB3thzQJJFUEA3+5nBIDWpQGNTKUDUMafBecGrQE3saUA6WorBXT6tQDOP5kDys83B8pc8
QG8nOsAQspHB+4OiQLKTTED/QpXBLnZ4QF20NkD58qPBdpMoQCFkaEA/7pTBBuznQE4lMUCHLpvB
xlHPQB5jz0DeacjBxl92QMyGo0By3MbBsp/aQPOsXr97c73BnBexQHbhosCzrZHBKQ3AQHLiJsAR
4rDBiUbMQL5lX8DUdZ/BlHDQQGwqxT/1ULnBumj2QF7tfEAm4KvB2SYCQYExs0DdQrrB3e2NQJ1p
8D65U5zBUAlrQPYrXUA0XrfBabZUQFkClsDhNonBUoozQNymk78955rB8Y2NQHVLc0CU/IXB/0e/
QBKqOUDPM4bBHl+9QCBok0BisIrB5wy7QJNd/UD2ctPBHHOYQBXaz0C+99HBmVKaQDkR+EDvtcfB
2+hFQLB8LUDRt6jByVniP5DkZkCC7pjBcLUpQFhHe0DMSY3BtebFQE0EEL8MkLbBj8FHQKXlQsCz
1pDBGw64QMzAxr+JW6/BMjtfQPaLA8BnO5jBnbLAQAPoTD/EEbTBOReTQHCvgEDXb7fBVxucQEsJ
nkCon7/BfqWeQIDZNz70OqPBogvdQDPqhEA9YLHBR0d+QGTThMBwOo/BW8evQO1jVsBx/5vBFz2k
QBJ4l79mp6XB+zqWQFFRDcDH753BcPmsQOR+lz9EVarB/PWyQKemaUDp+a/BfqjFQOTJr0C/rsDB
sDPmQPhPokDcmbnBsJTAQLF3OkDqtpzBHrlyQIhGU0D6zJnBxdmnQHqNKUDPBafBfuerQChKbkA+
XIrB6/WsQLWF4UCHNM7BoDWkQCgzicDovZTBdemhQGWiTUBMFZXBJw52QDMdN0C9rKPB/cUoQO4a
cEBM1JTB7gLnQJlUMUDzGJvBvxvQQL6qzUAlf8jBdkIHQbbHsUDen7rBWpbUQAZwWb8nCr7BKZAM
QM6HPcCcbYzBqJi8QAQyJsAwQbHBYew2QL+5mL9Qh5nBQcPLQKcmxz/tlrnBYOdmQKX9ZUCF07bB
YzaDQGkvp0DAKcXBLzGPQFOf7D4j15vBDU32QMAHdUADFazB64VsQD//nMA0d4nBxTbNQE2DXsDx
aKDBpAaOQIhEeEDQ4IXB6AvAQHiqP0CTGobBYyS9QOe0lUDOD4vBCa25QJlR+EDoG9TB+DiaQLi7
yEDPVtLBHUuYQOiU8kDdf8jBTvZCQLVPLECmTKjBXo3iP69DcEBN0JjBy/UqQF1dgkDQQo3BcX/F
QHX5Fb9KjrbBMgdHQJVyQsDrrpDB9We3QFwRyb8kVa/B8CheQEW3A8CQLZjBNcXAQNGGRz95ErTB
7+jcQOWKhUAfZ7HByEPlQLRGo0AamLnB0ISeQLByLz5GOqPBqmyTQBOhfkB1mLfBd+19QNZfhMAv
9o7B1nGvQHxJVsCv0ZvBs76jQJbPmL/6oKXBw7qVQAKhDcDg3J3B6CitQMrKlT/fV6rByEOzQAzL
aEDBEbDBgr3EQFo5sED4ucDBPnubQAzpnEDqyb/BBejAQAM8OkCpxpzB6kRzQEwKU0C355nB40eo
QB7nKEDgFKfB6QGsQD/jbkB0d4rBRACvQJof5UAyD87B9QmkQEfYiMDzd5TB3yaiQE6uTUAnK5XB
O9t2QG+0NkDhw6PBpiIpQDTmb0CF+pTB3VznQCyIMUBMKZvBt2jQQOfCzkDGUcjB0p11QJhCpUAd
kcbBDQLUQDPbYL9FCr7Bss8LQOLyPMDCR4zBOqS7QMd0J8CEN7HBsok1QMbOmb+OkJnBIh7MQGTk
wz9mmLnBaGD2QKB2d0AZGqzB1ocCQXtksEClb7rB9huPQDdv6z6x2JvBbnloQGQvYUA/CbfBsHVs
QAJJnMAxHonB/+DMQESVXsAAOqDBkBOOQK73eECUAobBMSfAQH6MQECqKYbBjDG9QHIFlkA3NIvB
Rn29QBzr+0DWs9PBsGWbQLvkzUBDf9LBjLOaQBWP9kCdV8jBkdxDQH7oK0AuaKjB84XjP+vrb0Bk
/ZjBUBErQCJXgkB7ao3B

> <OMEGA_E>
gNe/POBBSz0gnWg+6DOBPg==

> <OMEGA_NBR>
     37882

$$$$
50157513
  -OEChem-04172616093D

 60 64  0     1  0  0  0  0  0999 V2000
    4.8627    3.6672  -23.2182 C   0  0  0  0  0  0  0  0  0  0  0  0
    5.2176    4.5255  -24.2719 C   0  0  0  0  0  0  0  0  0  0  0  0
    6.5593    4.6941  -21.8152 C   0  0  0  0  0  0  0  0  0  0  0  0
    5.5639    3.6996  -21.9853 C   0  0  0  0  0  0  0  0  0  0  0  0
    6.8800    5.5957  -22.8421 C   0  0  0  0  0  0  0  0  0  0  0  0
    6.2214    5.4953  -24.0899 C   0  0  0  0  0  0  0  0  0  0  0  0
    6.0261    3.0073  -19.5669 C   0  0  0  0  0  0  0  0  0  0  0  0
    3.7878    3.2792  -19.1584 C   0  0  0  0  0  0  0  0  0  0  0  0
    5.5150   -0.9758  -23.4186 C   0  0  0  0  0  0  0  0  0  0  0  0
    7.1654   -1.3077  -21.5336 C   0  0  0  0  0  0  0  0  0  0  0  0
    4.7104   -1.7724  -21.1567 C   0  0  0  0  0  0  0  0  0  0  0  0
    6.6261    1.0165  -22.3401 C   0  0  0  0  0  0  0  0  0  0  0  0
    4.1414    0.5429  -21.9483 C   0  0  0  0  0  0  0  0  0  0  0  0
    5.7976    0.2266  -20.0762 C   0  0  0  0  0  0  0  0  0  0  0  0
    6.8259   -0.4522  -22.7759 C   0  0  0  0  0  0  0  0  0  0  0  0
    4.3538   -0.9186  -22.3939 C   0  0  0  0  0  0  0  0  0  0  0  0
    6.0064   -1.2416  -20.5065 C   0  0  0  0  0  0  0  0  0  0  0  0
    5.2411    2.6842  -20.8550 C   0  0  2  0  0  0  0  0  0  0  0  0
    5.4479    1.1524  -21.3054 C   0  0  0  0  0  0  0  0  0  0  0  0
    7.4048    7.6468  -21.4672 C   0  0  0  0  0  0  0  0  0  0  0  0
    5.3834    3.7331  -17.2344 C   0  0  0  0  0  0  0  0  0  0  0  0
    5.6584    7.4905  -25.2225 C   0  0  0  0  0  0  0  0  0  0  0  0
    7.9154    6.6780  -22.5558 C   0  0  0  0  0  0  0  0  0  0  0  0
    5.0714    3.2597  -18.5937 N   0  0  0  0  0  0  0  0  0  0  0  0
    3.8465    2.9291  -20.4251 N   0  3  0  0  0  0  0  0  0  0  0  0
    2.6109    3.5941  -18.4884 N   0  0  0  0  0  0  0  0  0  0  0  0
    7.2411    2.9566  -19.3924 O   0  0  0  0  0  0  0  0  0  0  0  0
    6.5328    6.3464  -25.1250 O   0  0  0  0  0  0  0  0  0  0  0  0
    4.0453    2.9734  -23.3483 H   0  0  0  0  0  0  0  0  0  0  0  0
    4.7181    4.4410  -25.2258 H   0  0  0  0  0  0  0  0  0  0  0  0
    7.0835    4.7597  -20.8732 H   0  0  0  0  0  0  0  0  0  0  0  0
    5.2626   -0.3514  -24.2883 H   0  0  0  0  0  0  0  0  0  0  0  0
    5.6608   -2.0163  -23.7442 H   0  0  0  0  0  0  0  0  0  0  0  0
    7.3185   -2.3524  -21.8423 H   0  0  0  0  0  0  0  0  0  0  0  0
    8.0856   -0.9243  -21.0685 H   0  0  0  0  0  0  0  0  0  0  0  0
    3.8884   -1.7189  -20.4276 H   0  0  0  0  0  0  0  0  0  0  0  0
    4.8590   -2.8176  -21.4656 H   0  0  0  0  0  0  0  0  0  0  0  0
    7.5542    1.3816  -21.8759 H   0  0  0  0  0  0  0  0  0  0  0  0
    6.3957    1.6250  -23.2270 H   0  0  0  0  0  0  0  0  0  0  0  0
    3.8605    1.1456  -22.8245 H   0  0  0  0  0  0  0  0  0  0  0  0
    3.3303    0.5749  -21.2059 H   0  0  0  0  0  0  0  0  0  0  0  0
    4.9721    0.2712  -19.3505 H   0  0  0  0  0  0  0  0  0  0  0  0
    6.7207    0.5944  -19.6045 H   0  0  0  0  0  0  0  0  0  0  0  0
    7.6467   -0.5149  -23.5056 H   0  0  0  0  0  0  0  0  0  0  0  0
    3.4331   -1.3031  -22.8569 H   0  0  0  0  0  0  0  0  0  0  0  0
    6.2571   -1.8532  -19.6273 H   0  0  0  0  0  0  0  0  0  0  0  0
    8.1653    8.4182  -21.2762 H   0  0  0  0  0  0  0  0  0  0  0  0
    6.4752    8.1253  -21.8092 H   0  0  0  0  0  0  0  0  0  0  0  0
    7.2096    7.0870  -20.5406 H   0  0  0  0  0  0  0  0  0  0  0  0
    4.4504    3.8535  -16.6643 H   0  0  0  0  0  0  0  0  0  0  0  0
    6.0291    2.9992  -16.7299 H   0  0  0  0  0  0  0  0  0  0  0  0
    5.9042    4.7002  -17.2935 H   0  0  0  0  0  0  0  0  0  0  0  0
    5.9701    8.1198  -26.0692 H   0  0  0  0  0  0  0  0  0  0  0  0
    4.6246    7.1493  -25.3804 H   0  0  0  0  0  0  0  0  0  0  0  0
    5.7137    8.0745  -24.2920 H   0  0  0  0  0  0  0  0  0  0  0  0
    8.8463    6.2048  -22.2103 H   0  0  0  0  0  0  0  0  0  0  0  0
    8.1119    7.2430  -23.4788 H   0  0  0  0  0  0  0  0  0  0  0  0
    3.0493    2.8397  -21.0222 H   0  0  0  0  0  0  0  0  0  0  0  0
    1.7363    3.5621  -18.9721 H   0  0  0  0  0  0  0  0  0  0  0  0
    2.6391    3.8527  -17.5228 H   0  0  0  0  0  0  0  0  0  0  0  0
  1  2  2  0  0  0  0
  1  4  1  0  0  0  0
  2  6  1  0  0  0  0
  3  4  2  0  0  0  0
  3  5  1  0  0  0  0
  4 18  1  0  0  0  0
  5  6  2  0  0  0  0
  5 23  1  0  0  0  0
  6 28  1  0  0  0  0
  7 18  1  0  0  0  0
  7 24  1  0  0  0  0
  7 27  2  0  0  0  0
  8 24  1  0  0  0  0
  8 25  2  0  0  0  0
  8 26  1  0  0  0  0
  9 15  1  0  0  0  0
  9 16  1  0  0  0  0
 10 15  1  0  0  0  0
 10 17  1  0  0  0  0
 11 16  1  0  0  0  0
 11 17  1  0  0  0  0
 12 15  1  0  0  0  0
 12 19  1  0  0  0  0
 13 16  1  0  0  0  0
 13 19  1  0  0  0  0
 14 17  1  0  0  0  0
 14 19  1  0  0  0  0
 18 19  1  0  0  0  0
 18 25  1  0  0  0  0
 20 23  1  0  0  0  0
 21 24  1  0  0  0  0
 22 28  1  0  0  0  0
  1 29  1  0  0  0  0
  2 30  1  0  0  0  0
  3 31  1  0  0  0  0
  9 32  1  0  0  0  0
  9 33  1  0  0  0  0
 10 34  1  0  0  0  0
 10 35  1  0  0  0  0
 11 36  1  0  0  0  0
 11 37  1  0  0  0  0
 12 38  1  0  0  0  0
 12 39  1  0  0  0  0
 13 40  1  0  0  0  0
 13 41  1  0  0  0  0
 14 42  1  0  0  0  0
 14 43  1  0  0  0  0
 15 44  1  0  0  0  0
 16 45  1  0  0  0  0
 17 46  1  0  0  0  0
 20 47  1  0  0  0  0
 20 48  1  0  0  0  0
 20 49  1  0  0  0  0
 21 50  1  0  0  0  0
 21 51  1  0  0  0  0
 21 52  1  0  0  0  0
 22 53  1  0  0  0  0
 22 54  1  0  0  0  0
 22 55  1  0  0  0  0
 23 56  1  0  0  0  0
 23 57  1  0  0  0  0
 25 58  1  0  0  0  0
 26 59  1  0  0  0  0
 26 60  1  0  0  0  0
M  CHG  1  25   1
M  END
> <OMEGA_C>
DpubQAazakDmvrnBO/amQNHQkED0LMLB+uXRQA82lkB3ha7BlQuyQA7HbEDp4a/B1SjcQCEQs0CU
vLbBTxXHQIbZr0AfuMDB1tXAQOx3QEAGiZzB6GpyQMLdUUBSRJnBwnqwQDfMeb9JWbvBDUvlQJRj
p7+9RKzBPruWQJXd4r/cQKnBRAnUQKcdgj9yuLLBA4aEQD75Cj8Zlq/BloW5QKwTaD4KnKDB4G3a
QIWF574lNbbBrlKLQJ8ma7/NJrPBHjTAQMrtnr9WDaTBPrenQKvJK0D41qbBflWuQByCkz96carB
uvPsQJiy9EDYvKvBvkSsQIPqbkD234nBtRG1QEey70C6x8nBnUr9QN2x1UA0crTBl0iiQB6fUEDX
v5TBySx2QLx1O0ChZqPBPhknQIwGZkBG6JPBKbfnQHA5PUCoI5vBBg3RQMoVy0AEAMnB1XKBQCNM
PkA4ybrBFPuWQGYcjkB1zsnB7qviQJpPmEBF/KbBLWeoQKHrs76JTsLBIyW1QIYLAcAG9L3BwzDq
QBiNFsAFva7Bdl4BQdicbL9KjKjBFdt4QM4D3L/Ra6PBIX2bQKtTNMB4uavBo7vxQI7ZsD/MAa/B
16nMQI0B0D/a0LnB2xF3QLqjkj+fmLbBWSNVQKkvEz+1panBhRufQKHeij7LzZrBYRDXQFcnGD/+
1ZzBkrH0QD7TA79/C7zBBLhbQCzNpr/42rbBJTrIQMM27b+kBJ3BEKUCQQCxBkGcNarBsjTPQDcB
AkEyea7BS7XmQBHJ4kAnU6TBjWmOQB2fdkBrUIXBOO7AQI7yP0DJ1oXB+O68QMJnlkAoWYrB4Qq/
QIrqAUHIjdDBFP2TQG3H5EASC8vB1ta2QB0xAUH6VcLBnooNQZiNxkCdrrHBUcoBQfbG50Co1LvB
WidDQKO9NUBmLajBWz7eP5f5Y0DtxpfB/eYoQGWTdkDHLozB8lrcQBqDiEDczrDBN87lQEu2pEC6
M7nBAsuTQC0pgEBEnrfBJtiyQOoPbUAtvK/BTDidQJkonEA1J8DBem/GQJzurkDP2cDBMPTAQORJ
QkCIaZzBHTtyQCZnUUClMJnBQfywQHPObL+DvrvB36PkQG5Hpr/EeazBKI+VQDf43L8616nBdpbU
QNx1hT+2v7LBS0aFQC+aHj80H7DBmdC4QGiEbT6Nx6DBhrraQILm2L6zX7bBaU2LQHlmWb+ou7PB
vwy/QOGcnb9yZaTB1k6oQIKOLEBeu6bBxb+uQIuklj+uhqrBGpxfQAwAekB48M7Bn4urQAL+bUAe
s4nBD83KQDNQ90CeOMbBlhd1QJ5wpUDrbMjBhBGiQB7BUEAopJTB8M12QGoLO0CTS6PBHVQmQCjL
ZEBb6pPBZKXnQMacPkBCzZrB4bHQQLDPykAk+8jBs/D0QI9cgEB5FqvBFKsCQaqoskA2zLnB0s1o
QFG3Y0CXF7fB88ypQGBXl77nu8LBIFC1QLLV+79GVr7BoknpQKXcFcDrB6/BHf8AQRrHbr86mqjB
F851QBUO1b9wHaTBK8yZQCtSMcDeZKzB5kfyQLGHsj9A9K7By43NQAfr1D80zLnBuR58QMOGnj9k
K7fBMdJUQInOKz9Sc6rBfAieQIDqjT6RFJvBk0LWQBM4FD9C1pzBL1/1QE5h+L6OGrzBWq9bQKzn
mr9tlrfBGUPGQERq7r83a53BjY4tQCmFhEDK1dTBJ7CMQF6aY0A7HtPBT5FIQNOSR0AbhMnBo4ON
QOtidEDkLYXBYWXAQIUVP0C6toXBHtK7QAUulkBXB4rBAp3TQLO/BUH4Fc3B1xOpQPP0/EB6IcTB
PTjfQDxg/0CdV7/BWgo7QCKLsED7SsTBrOyFQOiOvkAa5c3BegJEQPOONEARGKjBeU3dP0shYkCt
2JfBvGknQGJndUDWMIzB/2OTQBp8gECdJbjBLJGbQMDtoECnsr/BFxneQNB2gUAwy7LBACO0QA/D
Y0DlLrHBSbbmQAYdoUCigLrBNjHFQJqWskADusDBns7CQLPBRUC+lZ3B+EV2QLOZUkDFP5rBaKiy
QEvmqb8uA7jBotzaQLMSyb/hvqbB30WKQFuv3L+st6bBTcnWQMx9Mj/B9q/BESWGQMQZBj9HAbDB
86quQDwFjD6Kn57BpSDaQAAUV7+XrrHBASuJQBkogb/jubHBc6+xQIFtoL+JV6DB6JapQCMaKUBC
hafBaoetQGxfiD/Di6nBpOgMQWRx2EC/3bPBOyutQPugZECgl4rBeAWsQP4u6kAOw8zBFgMKQe40
skB+abvBE1KkQA/sXEAKFJbBepd6QAcVPUDdU6TB3dMpQH/zXEDoyJTBJUjpQL93PkD42JvBWiLP
QCLG00C0vsfB0qRnQM4eZUD2prfB6fiBQGxxrEBcvcTBvgH4QAq2aUDkBa7BQKmxQLeHUb9qz7/B
AgO1QD97GsAiQrnB0OTcQB76KcD+GajBken2QL5rnr9fJaLBhQtaQGiZvb9ZOaLBwB2MQHDzM8A4
86fB4QPzQLJ9hT81fqvBbsXVQBoQmT/RzbfB4R+FQGTBgj892bfBrlVRQHlAQD9IjavBnUeRQH8L
/j57HprBZafKQL/JGj9a/ZnBJXz3QBRiib8qKrbBN3laQDFzrb9+T7bBg7myQKPl4b8yjpjB/lgd
QQi25EAHjrTB9IYBQTPV8UCJDLbBwewJQdM5zkAJlKvBEsqPQPjDd0B0YIbBKEW4QAWiJkAEe4fB
IRjGQIGhikBSTonB8ay4QPepAUGtC9LB3eaYQBB700AZftHBxb2XQLvM+EAJkcbB3mgVQezZmECn
ObnBEQMNQUx1vEAnssPBJzlIQLV8OkCiQKnB6FjkP2fbU0BekZjBuE0qQDKEbUDBDo3B

> <OMEGA_E>
nCw9P5AgPT8GmTU/

> <OMEGA_NBR>
     41121

$$$$
50157520
  -OEChem-04172616093D

 52 55  0     1  0  0  0  0  0999 V2000
    4.9918   -4.1783  -18.4367 C   0  0  0  0  0  0  0  0  0  0  0  0
    5.4873   -3.2684  -19.3815 C   0  0  0  0  0  0  0  0  0  0  0  0
    4.5747    4.0059  -22.9485 C   0  0  0  0  0  0  0  0  0  0  0  0
    6.1398    0.8231  -22.4999 C   0  0  0  0  0  0  0  0  0  0  0  0
    4.8524    4.9273  -23.9723 C   0  0  0  0  0  0  0  0  0  0  0  0
    6.3427   -0.5380  -22.7949 C   0  0  0  0  0  0  0  0  0  0  0  0
    5.0353    0.1895  -20.4251 C   0  0  0  0  0  0  0  0  0  0  0  0
    6.8728    4.1835  -22.1642 C   0  0  0  0  0  0  0  0  0  0  0  0
    3.7090   -3.9767  -17.8914 C   0  0  0  0  0  0  0  0  0  0  0  0
    4.6842   -2.1754  -19.7637 C   0  0  0  0  0  0  0  0  0  0  0  0
    5.2011   -1.1714  -20.7247 C   0  0  0  0  0  0  0  0  0  0  0  0
    5.4721    1.1943  -21.3084 C   0  0  0  0  0  0  0  0  0  0  0  0
    5.5717    3.6551  -22.0077 C   0  0  0  0  0  0  0  0  0  0  0  0
    7.1562    5.1082  -23.1837 C   0  0  0  0  0  0  0  0  0  0  0  0
    6.1435    5.5062  -24.0861 C   0  0  0  0  0  0  0  0  0  0  0  0
    5.8764   -1.5369  -21.9165 C   0  0  0  0  0  0  0  0  0  0  0  0
    3.3984   -2.0310  -19.1667 C   0  0  0  0  0  0  0  0  0  0  0  0
    6.0369    2.9195  -19.6088 C   0  0  0  0  0  0  0  0  0  0  0  0
    3.8064    3.2686  -19.2332 C   0  0  0  0  0  0  0  0  0  0  0  0
    5.2593    2.6472  -20.8934 C   0  0  2  0  0  0  0  0  0  0  0  0
    8.5519    5.6964  -23.2849 C   0  0  0  0  0  0  0  0  0  0  0  0
    5.3900    3.7017  -17.3056 C   0  0  0  0  0  0  0  0  0  0  0  0
    5.3848    7.0660  -25.7761 C   0  0  0  0  0  0  0  0  0  0  0  0
    2.9421   -2.9233  -18.2565 N   0  0  0  0  0  0  0  0  0  0  0  0
    5.0796    3.2079  -18.6522 N   0  0  0  0  0  0  0  0  0  0  0  0
    3.8573    2.8233  -20.4659 N   0  3  0  0  0  0  0  0  0  0  0  0
    2.6463    3.6930  -18.6032 N   0  0  0  0  0  0  0  0  0  0  0  0
    7.2331    2.7435  -19.4017 O   0  0  0  0  0  0  0  0  0  0  0  0
    6.4741    6.4420  -25.0597 O   0  0  0  0  0  0  0  0  0  0  0  0
    6.0629   -2.8360  -22.2466 F   0  0  0  0  0  0  0  0  0  0  0  0
    2.5774   -1.0103  -19.5170 F   0  0  0  0  0  0  0  0  0  0  0  0
    5.5879   -5.0252  -18.1303 H   0  0  0  0  0  0  0  0  0  0  0  0
    6.4695   -3.4032  -19.8097 H   0  0  0  0  0  0  0  0  0  0  0  0
    3.5926    3.5620  -22.8791 H   0  0  0  0  0  0  0  0  0  0  0  0
    6.4930    1.5828  -23.1814 H   0  0  0  0  0  0  0  0  0  0  0  0
    4.0792    5.1966  -24.6766 H   0  0  0  0  0  0  0  0  0  0  0  0
    6.8593   -0.8191  -23.7007 H   0  0  0  0  0  0  0  0  0  0  0  0
    4.5621    0.4720  -19.4963 H   0  0  0  0  0  0  0  0  0  0  0  0
    7.6591    3.8728  -21.4922 H   0  0  0  0  0  0  0  0  0  0  0  0
    3.3285   -4.6793  -17.1648 H   0  0  0  0  0  0  0  0  0  0  0  0
    9.1681    5.0683  -23.9450 H   0  0  0  0  0  0  0  0  0  0  0  0
    8.4917    6.7139  -23.6985 H   0  0  0  0  0  0  0  0  0  0  0  0
    9.0074    5.7337  -22.2843 H   0  0  0  0  0  0  0  0  0  0  0  0
    4.4555    3.8510  -16.7449 H   0  0  0  0  0  0  0  0  0  0  0  0
    6.0185    2.9666  -16.7815 H   0  0  0  0  0  0  0  0  0  0  0  0
    5.9290    4.6576  -17.3809 H   0  0  0  0  0  0  0  0  0  0  0  0
    5.7887    7.7790  -26.5100 H   0  0  0  0  0  0  0  0  0  0  0  0
    4.7999    6.2945  -26.2982 H   0  0  0  0  0  0  0  0  0  0  0  0
    4.7365    7.5994  -25.0653 H   0  0  0  0  0  0  0  0  0  0  0  0
    3.0587    2.6303  -21.0359 H   0  0  0  0  0  0  0  0  0  0  0  0
    1.7747    3.6710  -19.0929 H   0  0  0  0  0  0  0  0  0  0  0  0
    2.6814    4.0212  -17.6592 H   0  0  0  0  0  0  0  0  0  0  0  0
  1  2  2  0  0  0  0
  1  9  1  0  0  0  0
  2 10  1  0  0  0  0
  3  5  2  0  0  0  0
  3 13  1  0  0  0  0
  4  6  2  0  0  0  0
  4 12  1  0  0  0  0
  5 15  1  0  0  0  0
  6 16  1  0  0  0  0
  7 11  1  0  0  0  0
  7 12  2  0  0  0  0
  8 13  2  0  0  0  0
  8 14  1  0  0  0  0
  9 24  2  0  0  0  0
 10 11  1  0  0  0  0
 10 17  2  0  0  0  0
 11 16  2  0  0  0  0
 12 20  1  0  0  0  0
 13 20  1  0  0  0  0
 14 15  2  0  0  0  0
 14 21  1  0  0  0  0
 15 29  1  0  0  0  0
 16 30  1  0  0  0  0
 17 24  1  0  0  0  0
 17 31  1  0  0  0  0
 18 20  1  0  0  0  0
 18 25  1  0  0  0  0
 18 28  2  0  0  0  0
 19 25  1  0  0  0  0
 19 26  2  0  0  0  0
 19 27  1  0  0  0  0
 20 26  1  0  0  0  0
 22 25  1  0  0  0  0
 23 29  1  0  0  0  0
  1 32  1  0  0  0  0
  2 33  1  0  0  0  0
  3 34  1  0  0  0  0
  4 35  1  0  0  0  0
  5 36  1  0  0  0  0
  6 37  1  0  0  0  0
  7 38  1  0  0  0  0
  8 39  1  0  0  0  0
  9 40  1  0  0  0  0
 21 41  1  0  0  0  0
 21 42  1  0  0  0  0
 21 43  1  0  0  0  0
 22 44  1  0  0  0  0
 22 45  1  0  0  0  0
 22 46  1  0  0  0  0
 23 47  1  0  0  0  0
 23 48  1  0  0  0  0
 23 49  1  0  0  0  0
 26 50  1  0  0  0  0
 27 51  1  0  0  0  0
 27 52  1  0  0  0  0
M  CHG  1  26   1
M  END
> <OMEGA_C>
Hr2fQMW0hcBkfpPBzZevQBouUcA/DZvB3WOSQH4wgEB/lrfBannEQHGzUj/h/7PBvkabQJusnUBA
x7/BJffKQJW4Cb/1W7bBCCGhQL4QQj6VZqPBQe7bQAffhUBYULHBumBtQK6CfsCGIY/BleSVQNU5
C8AnHJ7Bom+mQAvxlb86zKXBDBuvQEvemD+cd6rBDkuyQELtaUCsD7DB1f/kQB52o0AzeLnBipfE
QK0ysEBYsMDBKwu8QKe6xL/8VK/BHYBZQDT8AcBtVZnBii7BQEjYOkDO3pzBgptzQIwwUUCO3ZnB
MEyoQIJrKUDDJafBe9QIQf5ItkB/R7rBl3qsQGbobEDrcYrBh1CsQLQc4kBzNc7BGkw8QLwWO8BK
DZLBFYyiQFFOTUC4N5XBeN12QHGxNEAUuqPBvV0pQMVabEBb05TBfnXnQKqVL0CmNpvBpSvPQCol
zkA9esjBWwPCQGSBNcAK+bHBh/MkQPBRgb/KIpzB5s+yQILOoMDMCpHBcgbPQJLOWcBRep7BI+1l
QHn3Y0BoCLfBkcbPQLOZyj+Sc7nBqoiCQNhKpkCjacXBQ3/bQBCuUb8Qm73Br/yRQFKo8T5c+JvB
gRf1QHbcd0D776vBAgZVQDG9lcB9UYnBh7ASQYQvokBoj7/B4N0HQWbY1kCIlr3BQR4QQT56t0BZ
RrLBZJOOQEt3dkB59YXBRpfAQGvdPUCJQIbBXLq9QAgLlUAvDIvB/jy5QDjt+EBzFNTBbZiZQEps
yUCeYtLBipGXQBku80DIhcjBFsFDQONWKECPSajBlSnjPw7yakAqvpjBBZwrQGGtgEAURo3BI/+f
QP03hsAn9JPBL2yuQGkHUsCpqpvBwG/dQPlYiEDsC7HBQNnBQLhnVD/qRbTBierkQL23pUCsZbnB
o8/FQOjjB7+S/LbBrLCgQGOiQj6iZKPBQWeUQJrnfkDURrfBUoxvQCywf8DjII/BVEKUQIXbC8AW
Yp7BiN2jQL3Qlb9MG6bB6zmvQGClmT+HYqrBBm20QHl7a0BSwK/BF12bQI+DnEAHpr/B4SfEQB/o
sEC5r8DB9ia3QJQVxL8L86/BzvdXQPHhAsA0LZnBxLDBQLhCO0CGg5zB4rdzQHWCT0Cy0ZnBUeyp
QFkxKkDI6qbBRKlsQLP+okC/V8fBwQWrQBnIbEBwNIrBwziwQOoE60BC1MzBz1U9QOBPPMDuxJHB
STmiQBz5S0Cj+JTBLmd5QLODNUAPv6PBA9UnQHiEaECd+5TBDTboQFoINUDA1JrBNNDPQJ4KzUBa
2cjBKCa7QLkdNcDF2rLBQ9MiQGBngr8DpZvBCIazQIZRocBnvJHBlSXNQH2wWsDHeJ/BfgX3QP0C
gED3n6vBLgPNQO+Vyz/Du7nBrx0CQQzws0DPPrrBITLUQNdAT7/6hL7BHdWSQFuU7z7wy5vBCCNr
QJ8tYEC3lrbBemdZQG5ZlsAyL4nBkVNEQHCJvUAehMTBGd6CQAyZqkDOV8/BDUJGQKOJhUAZv8fB
p7yMQD98dEAW04XBY7e/QJdjP0Dv54XBiDq7QL+LlUARzorBv3u+QM+z/kC0MdPBkrCUQF1K2UCh
DtDBL3+lQIjS/0CaQcbBZVBHQCPCKkCKiqjBZzLiP+5OZ0BXIJnBj9snQFzBe0BUWo3BwvZDQMQP
QsBf7JHBoYFeQG7EBMBoaJnBwMqRQJpFgUD+VLfBV5/BQD5ZVz+OMbTBqESbQO5mnkCOkr/BrQbH
QLYWA79H6rbBKZCgQAznLj4vXqPBMJvbQHcnhUCJLrHBSwx7QNQ2g8B1YI/B+MuXQNWIDcDZPZ7B
sWumQE3Al79U96XBsrStQPrDmD/0aqrBKpuxQLdcakBu3K/BXzDlQLyRokDBV7nByxPFQKKvr0B+
mMDBsCe5QKxew7827K/BsTGyQCNfU8AaK5vBvFXAQJF2OkCLu5zBH5ByQJopVEDRx5nBV0GnQONk
KUDc/KbB5jIJQQLts0DCTbrBs0usQBwDcUAjd4rBty6uQFRf4kAdFc7BvaOkQPoBh8BS8JPBxvah
QAhUT0BHHpXB/v50QCkJNUAJhqPBYEYpQOQHc0DX25TB5ZLmQKeaLkAcF5vBkXjQQLaezEBWjcjB
KcK8QEpENMCuDrPBO6TaQLlhWsAe9Z7BZfwFQLHrPMAeJ47BmnU1QC4wn7+ncZvByfNjQA4IaEDV
srbBHK3MQDiAzj/ekLnB8pWCQKiup0BGKMXBwOvVQCJ4Rr/7a77BocGRQBIo3j6i2ZvB26n0QMA3
dUDi2KvBBWpmQHL0msD3ponBBKASQZ4Gn0CXlr/BgLAIQdFq1EDmrb3B46kQQUDstECgVrLB7YmO
QIRKfEAg+4XBITHAQBJlQkDVIobBn+m9QKrMlkBcS4vBNLa7QMYg+EACHtTBFoqZQJ2pykCOCtLB
Si6bQB/i9EBYTMjBeZVBQK8xJ0B29qfBSu3iP6x1ckD8xZjBljosQLzuhED3ZI3B

> <OMEGA_E>
YHcWPUCKqz2kXYI+

> <OMEGA_NBR>
     44037

$$$$
50222500
  -OEChem-04172616093D

 54 58  0     1  0  0  0  0  0999 V2000
    6.9787    4.2116  -22.2623 C   0  0  0  0  0  0  0  0  0  0  0  0
    4.7210    3.8972  -23.1139 C   0  0  0  0  0  0  0  0  0  0  0  0
    7.1995    5.2169  -23.2266 C   0  0  0  0  0  0  0  0  0  0  0  0
    4.9437    4.8956  -24.0791 C   0  0  0  0  0  0  0  0  0  0  0  0
    5.7123    3.5751  -22.1524 C   0  0  0  0  0  0  0  0  0  0  0  0
    6.1771    5.5938  -24.1207 C   0  0  0  0  0  0  0  0  0  0  0  0
    6.1035    3.0928  -19.6774 C   0  0  0  0  0  0  0  0  0  0  0  0
    3.8547    3.2730  -19.3015 C   0  0  0  0  0  0  0  0  0  0  0  0
    6.5831   -1.6254  -20.5199 C   0  0  0  0  0  0  0  0  0  0  0  0
    4.1073   -1.6231  -20.9986 C   0  0  0  0  0  0  0  0  0  0  0  0
    5.7780   -1.3567  -22.8837 C   0  0  0  0  0  0  0  0  0  0  0  0
    5.1545    0.3175  -19.8106 C   0  0  0  0  0  0  0  0  0  0  0  0
    6.8168    0.6242  -21.7074 C   0  0  0  0  0  0  0  0  0  0  0  0
    4.3459    0.6034  -22.1945 C   0  0  0  0  0  0  0  0  0  0  0  0
    5.1925   -1.2139  -19.9847 C   0  0  0  0  0  0  0  0  0  0  0  0
    6.8648   -0.9247  -21.8764 C   0  0  0  0  0  0  0  0  0  0  0  0
    4.3796   -0.9388  -22.3648 C   0  0  0  0  0  0  0  0  0  0  0  0
    5.3451    2.6677  -20.9404 C   0  0  2  0  0  0  0  0  0  0  0  0
    5.4250    1.0845  -21.1675 C   0  0  0  0  0  0  0  0  0  0  0  0
    5.3779    3.5437  -17.3131 C   0  0  0  0  0  0  0  0  0  0  0  0
    5.3110    7.1728  -25.7428 C   0  0  0  0  0  0  0  0  0  0  0  0
    5.1302    3.4478  -18.7557 N   0  0  0  0  0  0  0  0  0  0  0  0
    3.9527    3.0092  -20.5784 N   0  3  0  0  0  0  0  0  0  0  0  0
    2.6503    3.3461  -18.6183 N   0  0  0  0  0  0  0  0  0  0  0  0
    7.2953    2.9438  -19.4291 O   0  0  0  0  0  0  0  0  0  0  0  0
    6.4375    6.6349  -25.0053 O   0  0  0  0  0  0  0  0  0  0  0  0
    7.7810    3.9221  -21.5998 H   0  0  0  0  0  0  0  0  0  0  0  0
    3.7800    3.3673  -23.1049 H   0  0  0  0  0  0  0  0  0  0  0  0
    8.1623    5.7032  -23.2805 H   0  0  0  0  0  0  0  0  0  0  0  0
    4.1694    5.1323  -24.7938 H   0  0  0  0  0  0  0  0  0  0  0  0
    7.3539   -1.3317  -19.7923 H   0  0  0  0  0  0  0  0  0  0  0  0
    6.6095   -2.7159  -20.6620 H   0  0  0  0  0  0  0  0  0  0  0  0
    4.1216   -2.7154  -21.1279 H   0  0  0  0  0  0  0  0  0  0  0  0
    3.1212   -1.3111  -20.6240 H   0  0  0  0  0  0  0  0  0  0  0  0
    5.9667   -0.8725  -23.8532 H   0  0  0  0  0  0  0  0  0  0  0  0
    5.8093   -2.4493  -23.0073 H   0  0  0  0  0  0  0  0  0  0  0  0
    4.1623    0.6058  -19.4333 H   0  0  0  0  0  0  0  0  0  0  0  0
    5.9236    0.6093  -19.0803 H   0  0  0  0  0  0  0  0  0  0  0  0
    7.5983    0.9332  -20.9977 H   0  0  0  0  0  0  0  0  0  0  0  0
    6.9991    1.0984  -22.6830 H   0  0  0  0  0  0  0  0  0  0  0  0
    4.5418    1.0761  -23.1683 H   0  0  0  0  0  0  0  0  0  0  0  0
    3.3503    0.9029  -21.8353 H   0  0  0  0  0  0  0  0  0  0  0  0
    5.0052   -1.7045  -19.0181 H   0  0  0  0  0  0  0  0  0  0  0  0
    7.8559   -1.2238  -22.2479 H   0  0  0  0  0  0  0  0  0  0  0  0
    3.6109   -1.2456  -23.0894 H   0  0  0  0  0  0  0  0  0  0  0  0
    4.4512    3.8412  -16.8004 H   0  0  0  0  0  0  0  0  0  0  0  0
    5.7099    2.5665  -16.9324 H   0  0  0  0  0  0  0  0  0  0  0  0
    6.1586    4.2952  -17.1244 H   0  0  0  0  0  0  0  0  0  0  0  0
    5.6564    7.9841  -26.4004 H   0  0  0  0  0  0  0  0  0  0  0  0
    4.8570    6.3763  -26.3506 H   0  0  0  0  0  0  0  0  0  0  0  0
    4.5647    7.5658  -25.0367 H   0  0  0  0  0  0  0  0  0  0  0  0
    3.1889    3.0350  -21.2233 H   0  0  0  0  0  0  0  0  0  0  0  0
    1.7897    3.1928  -19.1041 H   0  0  0  0  0  0  0  0  0  0  0  0
    2.6422    3.5522  -17.6398 H   0  0  0  0  0  0  0  0  0  0  0  0
  1  3  2  0  0  0  0
  1  5  1  0  0  0  0
  2  4  1  0  0  0  0
  2  5  2  0  0  0  0
  3  6  1  0  0  0  0
  4  6  2  0  0  0  0
  5 18  1  0  0  0  0
  6 26  1  0  0  0  0
  7 18  1  0  0  0  0
  7 22  1  0  0  0  0
  7 25  2  0  0  0  0
  8 22  1  0  0  0  0
  8 23  2  0  0  0  0
  8 24  1  0  0  0  0
  9 15  1  0  0  0  0
  9 16  1  0  0  0  0
 10 15  1  0  0  0  0
 10 17  1  0  0  0  0
 11 16  1  0  0  0  0
 11 17  1  0  0  0  0
 12 15  1  0  0  0  0
 12 19  1  0  0  0  0
 13 16  1  0  0  0  0
 13 19  1  0  0  0  0
 14 17  1  0  0  0  0
 14 19  1  0  0  0  0
 18 19  1  0  0  0  0
 18 23  1  0  0  0  0
 20 22  1  0  0  0  0
 21 26  1  0  0  0  0
  1 27  1  0  0  0  0
  2 28  1  0  0  0  0
  3 29  1  0  0  0  0
  4 30  1  0  0  0  0
  9 31  1  0  0  0  0
  9 32  1  0  0  0  0
 10 33  1  0  0  0  0
 10 34  1  0  0  0  0
 11 35  1  0  0  0  0
 11 36  1  0  0  0  0
 12 37  1  0  0  0  0
 12 38  1  0  0  0  0
 13 39  1  0  0  0  0
 13 40  1  0  0  0  0
 14 41  1  0  0  0  0
 14 42  1  0  0  0  0
 15 43  1  0  0  0  0
 16 44  1  0  0  0  0
 17 45  1  0  0  0  0
 20 46  1  0  0  0  0
 20 47  1  0  0  0  0
 20 48  1  0  0  0  0
 21 49  1  0  0  0  0
 21 50  1  0  0  0  0
 21 51  1  0  0  0  0
 23 52  1  0  0  0  0
 24 53  1  0  0  0  0
 24 54  1  0  0  0  0
M  CHG  1  23   1
M  END
> <OMEGA_C>
cFHfQL3FhkBGGbLBsxKXQHJreUBF6bjB8WHmQPrwpkAW0LnBhjKeQMmonEDnocDB1Mq2QMDNZEAd
OLHBtKrFQGIAs0Am98DBjE/DQFzwRUBfa53BArN2QEp4UUB1aZrBW6jSQFsO0L/RKKTB9m6DQJ7B
z78V/afBneW4QLWnrb/MEbfB+/GkQJyKoj4gfJ7BCyPaQHrJHz/OqK3BmRGLQE57Gj9ljrHB5yim
QI9hm7+R4J/BH6zbQFK4bL/HAq/BlSWMQN5ScL8d67LBAgurQCC7KkDkhafBQpmtQMvPij/xVqnB
ghesQHzLYkAtgYrBEfSpQC6H5UA08c3BvyqkQJqoXEC+C5bB/vh8QEqXQECFoKTBE54pQBYnVkBD
8pTBFXPpQMBnPEDQbpvB6f/NQFZR1EDWCsjBmP34QG4De0BwzKzBjutxQMaBV0DU1rjBtZgCQYSA
tkB7PrrBz2uFQKc7pEDFWcbBTVPrQJF0qr+YVp7B4oDTQGLRLcDHS6XBK+SDQJfILcAKBqnBLsJH
QObSp7/b/aTB1u6+QC1aX79d077B9+W5QNTAHMDhDrjBwDGFQGEWGz9kd5vB/Y29QMn9Gz9qpJjB
YSXzQO3lbj9L+6fB0PjfQAKajD/YdrXBnFaRQG+9iT+qWLnBsmpWQN0jZz+1rq7BTCqgQLAt2r8U
JZjB72P7QOOlnL/F+7HBsxlnQNFvn78Wt7jBYHCOQIHVdUBBZ4bBHre2QENBJECbdYfBmhPFQC1y
iUCu/ojBBQG1QHJ9/0AYNNPBdWybQLIKzEAgztLB/hGSQPka8kA/S8jBihZMQC8+QkBMyanBcBbl
P5BXTEAs1ZjB7RkpQChXY0BIHo3B

> <OMEGA_E>
SAEyPw==

> <OMEGA_NBR>
     45240

$$$$
50168766
  -OEChem-04172616093D

 43 45  0     1  0  0  0  0  0999 V2000
    5.9270   -1.5823  -21.8668 C   0  0  0  0  0  0  0  0  0  0  0  0
    6.4200   -0.5816  -22.7274 C   0  0  0  0  0  0  0  0  0  0  0  0
    5.2016   -1.2253  -20.7155 C   0  0  0  0  0  0  0  0  0  0  0  0
    6.1932    0.7793  -22.4402 C   0  0  0  0  0  0  0  0  0  0  0  0
    4.9687    0.1320  -20.4276 C   0  0  0  0  0  0  0  0  0  0  0  0
    4.5775    3.9942  -22.9575 C   0  0  0  0  0  0  0  0  0  0  0  0
    4.8452    4.9421  -23.9611 C   0  0  0  0  0  0  0  0  0  0  0  0
    6.8578    4.2217  -22.1388 C   0  0  0  0  0  0  0  0  0  0  0  0
    5.4542    1.1509  -21.2901 C   0  0  0  0  0  0  0  0  0  0  0  0
    5.5711    3.6423  -22.0136 C   0  0  0  0  0  0  0  0  0  0  0  0
    7.1285    5.1793  -23.1337 C   0  0  0  0  0  0  0  0  0  0  0  0
    6.1248    5.5475  -24.0567 C   0  0  0  0  0  0  0  0  0  0  0  0
    6.0371    2.9070  -19.6208 C   0  0  0  0  0  0  0  0  0  0  0  0
    3.8132    3.2761  -19.2396 C   0  0  0  0  0  0  0  0  0  0  0  0
    5.2533    2.6222  -20.8967 C   0  0  2  0  0  0  0  0  0  0  0  0
    8.5167    5.7897  -23.2248 C   0  0  0  0  0  0  0  0  0  0  0  0
    5.4115    3.7398  -17.3318 C   0  0  0  0  0  0  0  0  0  0  0  0
    5.3969    7.1781  -25.6877 C   0  0  0  0  0  0  0  0  0  0  0  0
    5.0885    3.2172  -18.6645 N   0  0  0  0  0  0  0  0  0  0  0  0
    3.8557    2.8172  -20.4676 N   0  3  0  0  0  0  0  0  0  0  0  0
    2.6592    3.7101  -18.6056 N   0  0  0  0  0  0  0  0  0  0  0  0
    7.2371    2.7491  -19.4224 O   0  0  0  0  0  0  0  0  0  0  0  0
    6.4674    6.4357  -25.0677 O   0  0  0  0  0  0  0  0  0  0  0  0
    4.9902    8.1759  -24.8588 F   0  0  0  0  0  0  0  0  0  0  0  0
    5.8657    7.7185  -26.8382 F   0  0  0  0  0  0  0  0  0  0  0  0
    6.1061   -2.6235  -22.0910 H   0  0  0  0  0  0  0  0  0  0  0  0
    6.9746   -0.8589  -23.6116 H   0  0  0  0  0  0  0  0  0  0  0  0
    4.8243   -1.9913  -20.0543 H   0  0  0  0  0  0  0  0  0  0  0  0
    6.5839    1.5410  -23.0987 H   0  0  0  0  0  0  0  0  0  0  0  0
    4.4146    0.4023  -19.5409 H   0  0  0  0  0  0  0  0  0  0  0  0
    3.6037    3.5302  -22.9066 H   0  0  0  0  0  0  0  0  0  0  0  0
    4.0710    5.2112  -24.6643 H   0  0  0  0  0  0  0  0  0  0  0  0
    7.6433    3.9239  -21.4600 H   0  0  0  0  0  0  0  0  0  0  0  0
    9.1454    5.1751  -23.8859 H   0  0  0  0  0  0  0  0  0  0  0  0
    8.4430    6.8088  -23.6323 H   0  0  0  0  0  0  0  0  0  0  0  0
    8.9669    5.8275  -22.2219 H   0  0  0  0  0  0  0  0  0  0  0  0
    4.4822    3.9031  -16.7663 H   0  0  0  0  0  0  0  0  0  0  0  0
    6.0434    3.0154  -16.7972 H   0  0  0  0  0  0  0  0  0  0  0  0
    5.9514    4.6929  -17.4328 H   0  0  0  0  0  0  0  0  0  0  0  0
    4.5616    6.4944  -25.8993 H   0  0  0  0  0  0  0  0  0  0  0  0
    3.0535    2.6264  -21.0333 H   0  0  0  0  0  0  0  0  0  0  0  0
    1.7839    3.6849  -19.0884 H   0  0  0  0  0  0  0  0  0  0  0  0
    2.7022    4.0482  -17.6655 H   0  0  0  0  0  0  0  0  0  0  0  0
  1  2  1  0  0  0  0
  1  3  2  0  0  0  0
  2  4  2  0  0  0  0
  3  5  1  0  0  0  0
  4  9  1  0  0  0  0
  5  9  2  0  0  0  0
  6  7  2  0  0  0  0
  6 10  1  0  0  0  0
  7 12  1  0  0  0  0
  8 10  2  0  0  0  0
  8 11  1  0  0  0  0
  9 15  1  0  0  0  0
 10 15  1  0  0  0  0
 11 12  2  0  0  0  0
 11 16  1  0  0  0  0
 12 23  1  0  0  0  0
 13 15  1  0  0  0  0
 13 19  1  0  0  0  0
 13 22  2  0  0  0  0
 14 19  1  0  0  0  0
 14 20  2  0  0  0  0
 14 21  1  0  0  0  0
 15 20  1  0  0  0  0
 17 19  1  0  0  0  0
 18 23  1  0  0  0  0
 18 24  1  0  0  0  0
 18 25  1  0  0  0  0
  1 26  1  0  0  0  0
  2 27  1  0  0  0  0
  3 28  1  0  0  0  0
  4 29  1  0  0  0  0
  5 30  1  0  0  0  0
  6 31  1  0  0  0  0
  7 32  1  0  0  0  0
  8 33  1  0  0  0  0
 16 34  1  0  0  0  0
 16 35  1  0  0  0  0
 16 36  1  0  0  0  0
 17 37  1  0  0  0  0
 17 38  1  0  0  0  0
 17 39  1  0  0  0  0
 18 40  1  0  0  0  0
 20 41  1  0  0  0  0
 21 42  1  0  0  0  0
 21 43  1  0  0  0  0
M  CHG  1  20   1
M  END
> <OMEGA_C>
Tqq9QDWJyr88767BxHDNQB7jFL+d0bXBZnOmQIzVnL9tuaXBAy/GQO5+Rz+GhbPB+f+eQK4mBz7I
a6PBPHuSQKChf0DoqLfB9wubQJAlnkBHsL/BV3PbQE8Yh0AvHLHBIImuQKtQkz8ZUqrBv0ayQNIa
aUDGG7DBdhzkQL+8pUDnEbnBtf7DQHGFsUAvdMDBMzDBQJcLOkBO95zBDwx0QCSsUUCd6pnBYxuo
QJrSJ0BsLKfBQEQIQSRFuUBszLnBCCutQIJZb0COp4rBSrOsQCCz5UB6gM3BKNWiQJTmTUDVUJXB
lcR2QElNNECwvaPB+DAqQJFxbUA/2JTBu5bnQPrwL0AIYZvBI/XOQAfxzUCaisjBg6+fQFjQAkHP
3sbBBrS7QBv+9kCetNbB1mTDQK/nJ8BPurDBuy/fQBffW7+m5LzBpmCaQAXj/r8zb6DBC6/SQDI/
xT8byrjBtUSNQBT0zT66U5zBTKJmQGXuYUC7QLfBpUWCQG3CpkCIUMXBvpX0QNgge0ADrqvBY1MS
QamapUBcFr/BXxYHQUvh2UAMD73Bm3gPQS17ukB6xrHBf26PQD7MeUBdIYbB22PBQJT7QEC6YIbB
fHG+QGEslkBpdovBPviRQA7Sz0CqMc/BxmxDQC8XKEA9RKjB9FXkP0HVa0AItZjBwPAsQA6LgUDp
Uo3Bn8O7QFTlxL90TK/Bi33KQAo4Cb9RULbBenOmQGNKl796zaXBrUPEQLpNUz8n1rPB/xagQPwm
ND7nTqPB/CncQGfxiUB73bDBcvrjQJWYp0BcI7nBy/iTQKbNfkAmmbfBfOauQGUqmT9FSarBjYCz
QKJPbEA646/BiribQMwsnEDIA8DBZ+rDQFmdsUBqtMDBRnzBQGwJPUBUypzB4jV0QH4HVEAw5ZnB
nxCpQPPLKkBxBqfBCiFxQMxtoUCuRMjB1iesQNiSbEBLVYrB4PuzQPM98UBnmcvBDnejQLZqXUD/
tJXBHGJ4QBVnN0Beu6PBzDgoQNw+ZUCkk5TBnC/nQIorLUAC7JrB9XHPQIyyzEBfFMnBQ82cQPUo
6UCildTBoXCZQKHQ/EA6csPBjdXAQKoWJcC7NbHB3KHaQOTuT794oL3Bc/6aQGB7+b8KcKDBFs/P
QHg+yz+BO7nBNcKPQCXC4z4DAZzB20L1QK9BgkCgPqvBRnMBQZjdtkAls7nBzDhqQNcGYEA+B7fB
pGRGQJytu0AT2sXBct+GQHTeqEAiF9DBWjpMQDGLg0Ct2sjBfEqPQEIrg0D4dYbBCDS1QMPuL0BD
eobBx4DGQAJojUB4h4nB3VvJQGsxBkFlSM3BeJtFQKywK0BiYKjBqWbgP+TfW0BlQ5jBGnYpQDMH
e0BSDo3B

> <OMEGA_E>
6NflPkic+D4=

> <OMEGA_NBR>
     47027

$$$$
50168796
  -OEChem-04172616093D

 52 55  0     1  0  0  0  0  0999 V2000
    4.4234   -2.0512  -20.0217 C   0  0  0  0  0  0  0  0  0  0  0  0
    3.9543   -2.9254  -19.3360 C   0  0  0  0  0  0  0  0  0  0  0  0
    6.4502   -0.5024  -22.7215 C   0  0  0  0  0  0  0  0  0  0  0  0
    5.8552   -1.4842  -21.9118 C   0  0  0  0  0  0  0  0  0  0  0  0
    6.2572    0.8615  -22.4259 C   0  0  0  0  0  0  0  0  0  0  0  0
    4.5937    3.9844  -22.9720 C   0  0  0  0  0  0  0  0  0  0  0  0
    4.8740    4.8877  -24.0059 C   0  0  0  0  0  0  0  0  0  0  0  0
    4.9079    0.2497  -20.4907 C   0  0  0  0  0  0  0  0  0  0  0  0
    6.8831    4.1955  -22.1670 C   0  0  0  0  0  0  0  0  0  0  0  0
    5.0693   -1.0909  -20.8148 C   0  0  0  0  0  0  0  0  0  0  0  0
    5.4705    1.2432  -21.3061 C   0  0  0  0  0  0  0  0  0  0  0  0
    5.5826    3.6699  -22.0124 C   0  0  0  0  0  0  0  0  0  0  0  0
    7.1725    5.0952  -23.2023 C   0  0  0  0  0  0  0  0  0  0  0  0
    6.1614    5.4764  -24.1128 C   0  0  0  0  0  0  0  0  0  0  0  0
    6.0413    2.9481  -19.6022 C   0  0  0  0  0  0  0  0  0  0  0  0
    3.8047    3.2381  -19.2055 C   0  0  0  0  0  0  0  0  0  0  0  0
    3.9612   -3.9633  -17.0273 C   0  0  0  0  0  0  0  0  0  0  0  0
    4.8350   -4.7916  -17.9773 C   0  0  0  0  0  0  0  0  0  0  0  0
    3.6081   -4.0473  -18.5110 C   0  0  0  0  0  0  0  0  0  0  0  0
    5.2652    2.6888  -20.8890 C   0  0  2  0  0  0  0  0  0  0  0  0
    8.5729    5.6693  -23.3122 C   0  0  0  0  0  0  0  0  0  0  0  0
    5.3851    3.6137  -17.2666 C   0  0  0  0  0  0  0  0  0  0  0  0
    5.3981    6.9892  -25.8291 C   0  0  0  0  0  0  0  0  0  0  0  0
    5.0802    3.1669  -18.6305 N   0  0  0  0  0  0  0  0  0  0  0  0
    3.8636    2.8892  -20.4681 N   0  3  0  0  0  0  0  0  0  0  0  0
    2.6369    3.5876  -18.5454 N   0  0  0  0  0  0  0  0  0  0  0  0
    7.2401    2.7850  -19.4002 O   0  0  0  0  0  0  0  0  0  0  0  0
    6.4892    6.3976  -25.0955 O   0  0  0  0  0  0  0  0  0  0  0  0
    4.6761    7.8102  -25.0180 F   0  0  0  0  0  0  0  0  0  0  0  0
    5.9164    7.7141  -26.8481 F   0  0  0  0  0  0  0  0  0  0  0  0
    7.0542   -0.7925  -23.5685 H   0  0  0  0  0  0  0  0  0  0  0  0
    6.0002   -2.5318  -22.1303 H   0  0  0  0  0  0  0  0  0  0  0  0
    6.7079    1.6179  -23.0513 H   0  0  0  0  0  0  0  0  0  0  0  0
    3.6177    3.5264  -22.9080 H   0  0  0  0  0  0  0  0  0  0  0  0
    4.1073    5.1371  -24.7245 H   0  0  0  0  0  0  0  0  0  0  0  0
    4.3484    0.5280  -19.6098 H   0  0  0  0  0  0  0  0  0  0  0  0
    7.6635    3.9016  -21.4807 H   0  0  0  0  0  0  0  0  0  0  0  0
    3.3284   -4.4674  -16.2820 H   0  0  0  0  0  0  0  0  0  0  0  0
    4.3456   -3.0228  -16.6059 H   0  0  0  0  0  0  0  0  0  0  0  0
    5.8458   -4.4452  -18.2385 H   0  0  0  0  0  0  0  0  0  0  0  0
    4.8285   -5.8898  -17.9146 H   0  0  0  0  0  0  0  0  0  0  0  0
    2.7342   -4.6575  -18.7828 H   0  0  0  0  0  0  0  0  0  0  0  0
    9.1854    5.0223  -23.9573 H   0  0  0  0  0  0  0  0  0  0  0  0
    8.5223    6.6783  -23.7473 H   0  0  0  0  0  0  0  0  0  0  0  0
    9.0263    5.7239  -22.3114 H   0  0  0  0  0  0  0  0  0  0  0  0
    4.4506    3.7113  -16.6946 H   0  0  0  0  0  0  0  0  0  0  0  0
    6.0392    2.8770  -16.7772 H   0  0  0  0  0  0  0  0  0  0  0  0
    5.8946    4.5878  -17.3053 H   0  0  0  0  0  0  0  0  0  0  0  0
    4.7562    6.1869  -26.2220 H   0  0  0  0  0  0  0  0  0  0  0  0
    3.0688    2.7745  -21.0641 H   0  0  0  0  0  0  0  0  0  0  0  0
    1.7652    3.5836  -19.0354 H   0  0  0  0  0  0  0  0  0  0  0  0
    2.6661    3.8437  -17.5792 H   0  0  0  0  0  0  0  0  0  0  0  0
  1  2  3  0  0  0  0
  1 10  1  0  0  0  0
  2 19  1  0  0  0  0
  3  4  1  0  0  0  0
  3  5  2  0  0  0  0
  4 10  2  0  0  0  0
  5 11  1  0  0  0  0
  6  7  2  0  0  0  0
  6 12  1  0  0  0  0
  7 14  1  0  0  0  0
  8 10  1  0  0  0  0
  8 11  2  0  0  0  0
  9 12  2  0  0  0  0
  9 13  1  0  0  0  0
 11 20  1  0  0  0  0
 12 20  1  0  0  0  0
 13 14  2  0  0  0  0
 13 21  1  0  0  0  0
 14 28  1  0  0  0  0
 15 20  1  0  0  0  0
 15 24  1  0  0  0  0
 15 27  2  0  0  0  0
 16 24  1  0  0  0  0
 16 25  2  0  0  0  0
 16 26  1  0  0  0  0
 17 18  1  0  0  0  0
 17 19  1  0  0  0  0
 18 19  1  0  0  0  0
 20 25  1  0  0  0  0
 22 24  1  0  0  0  0
 23 28  1  0  0  0  0
 23 29  1  0  0  0  0
 23 30  1  0  0  0  0
  3 31  1  0  0  0  0
  4 32  1  0  0  0  0
  5 33  1  0  0  0  0
  6 34  1  0  0  0  0
  7 35  1  0  0  0  0
  8 36  1  0  0  0  0
  9 37  1  0  0  0  0
 17 38  1  0  0  0  0
 17 39  1  0  0  0  0
 18 40  1  0  0  0  0
 18 41  1  0  0  0  0
 19 42  1  0  0  0  0
 21 43  1  0  0  0  0
 21 44  1  0  0  0  0
 21 45  1  0  0  0  0
 22 46  1  0  0  0  0
 22 47  1  0  0  0  0
 22 48  1  0  0  0  0
 23 49  1  0  0  0  0
 25 50  1  0  0  0  0
 26 51  1  0  0  0  0
 26 52  1  0  0  0  0
M  CHG  1  25   1
M  END
> <OMEGA_C>
0IyNQKdGA8BsLKDB4hJ9QNM5O8AOsJrBR2jOQD2eAL+SxbXBnF27QDL5vb9kS6/BSzvIQNWMXD8r
aLPB2f+SQBkAf0CVxrfB0febQLlnnEAJDMDBHA2dQEi7fz707KPBdELcQKNBhkACVrHB8DeiQHyi
i7+ghKbB7g2vQLEinz/PcqrBBKWyQIffakBLGbDBfIXlQD4Mo0BInrnBkirFQIk+r0D65sDBcFLB
QOatPEBT0ZzBZYBzQNo8T0DepJnBqIN9QGamfcDiN4jBKbiaQLpUmcCV0Y/BJutmQF6DgcCRFpTB
OXyoQHwVLECXHKfBpCoJQQ5rtUBXf7rB1lKsQIZGZ0AGIorB5rysQKin30AHos7B8JCiQPutSkBL
C5XBAEV3QKToOECYvqPBVsIoQAWbZUDzXJTBu67nQBc9MkChM5vBZqfPQHK5zECuw8jBm6KVQA3t
+UDXJMjB7VK9QATa9kDhyNbB/LvhQJThSr9NjLzB4AHAQJEJIsDwCrHBhqfWQIoXzz8FabjBs4hn
QCaxYUCsQ7fBaW+DQO5ipEDNy8XBICaLQBMqBz/b4JzBBTv1QFezeUBi2KvBwwNVQMb0jsCNQYLB
bQ+LQOF0QcDO2ITB8RC7QMg+jsBm6JHBZoOaQB15vMAkUY/BzfwuQJ0KlcAXQ5bBhvcSQW+2oEB+
qL/BXlsIQey01UB0+r3BkWsQQfgpt0DPfbLBPGuOQKaFbUCkjoXByUDBQN4gOECvN4bBjKC8QFLP
kkBOcYrBzDKYQE/7xUCjxtHB8GdEQBuSMUA9g6jBBfHhPwhaZUCLSJjBuqEqQJv+dUAloozB27WQ
QIM6B8AVVqLBCh1/QHmDQMCUd53BtrjMQBafo77HkrfBsnq7QLslr798fLHBenLHQLOrgT+mMLTB
ELfcQNJQi0BYgbDBcvbkQDVupkAZRrnBTjugQA6Adz72f6TBH+iTQPsDgUCI6rbBPdukQEO7ib/o
D6jBu+qwQO0Dpz8amKrBPaizQMiAcUDrNq/BNuWbQPaBm0BTtL/BS7DEQIgkr0Cz48DB7JTBQEp/
PkAaMZzB1mJzQH8nUkCfdJnB2wlGQLXpcsAGm4vBF+GJQO0TlcCZko7Bk0JaQGm3gsBEV5fBkeSp
QFzcLkCYl6bBexpwQO3koED9u8fB7oyqQCkMaED2lonBHeu2QBLM7kAhpMvBh7OiQEmMWkAKCJXB
kUd5QF3jN0CRXqPB+GwmQGObYkDbUZTBvIfnQGlMMUCLU5rBJJnPQKbZx0CttsnBf7CZQPeA6EAY
jNPBxOuiQBWm/UC+sMLB/wfeQFLfCL/S2b7BrJK/QN4fGcBNB7TBzpnUQOfB6D856rjBlq/1QNmt
hEBlxKrBER4CQZKvtEDcLrrBk9iPQMRh4z4oEZ3B5GdpQNEwZUDMBbbBPdENQC42iMAOzofBrXZP
QNUmMsCuXIjBrXOqQBKAiMBOdY3B9aCJQNait8Cu5ozBsNkvQHB2mcDKdpvBz2VIQKiCvECOd8XB
fLCFQCdCpkBFvM/B62xIQBPSg0D81sfB9vSMQLxGfkALuIXBSNa0QAmBK0CC6IXBKMLDQAs+jECd
jojBHLHNQA6uA0GnWM7BHUdHQJGXK0DVHqjBHELeP1N/WkDJN5jB9j0mQMWTdkAfuIzB

> <OMEGA_E>
EKKmPhgbyz4=

> <OMEGA_NBR>
     49069

$$$$
50157501
  -OEChem-04172616093D

 62 66  0     1  0  0  0  0  0999 V2000
    5.9443   -0.4864  -22.9639 C   0  0  0  0  0  0  0  0  0  0  0  0
    3.5370   -3.0138  -17.8608 C   0  0  0  0  0  0  0  0  0  0  0  0
    5.5756   -1.4925  -22.0572 C   0  0  0  0  0  0  0  0  0  0  0  0
    3.8112   -1.9862  -18.7755 C   0  0  0  0  0  0  0  0  0  0  0  0
    5.8561    0.8644  -22.5911 C   0  0  0  0  0  0  0  0  0  0  0  0
    4.7921    3.7182  -23.1760 C   0  0  0  0  0  0  0  0  0  0  0  0
    5.1587    4.5682  -24.2341 C   0  0  0  0  0  0  0  0  0  0  0  0
    4.9860    0.2087  -20.4110 C   0  0  0  0  0  0  0  0  0  0  0  0
    6.6569    4.5669  -21.8572 C   0  0  0  0  0  0  0  0  0  0  0  0
    4.2272   -4.2378  -17.9717 C   0  0  0  0  0  0  0  0  0  0  0  0
    5.4265   -3.4658  -19.8322 C   0  0  0  0  0  0  0  0  0  0  0  0
    5.1099   -1.1522  -20.7658 C   0  0  0  0  0  0  0  0  0  0  0  0
    4.7739   -2.2094  -19.7849 C   0  0  0  0  0  0  0  0  0  0  0  0
    5.3464    1.2300  -21.3152 C   0  0  0  0  0  0  0  0  0  0  0  0
    5.5544    3.6916  -21.9827 C   0  0  0  0  0  0  0  0  0  0  0  0
    7.0087    5.4498  -22.8949 C   0  0  0  0  0  0  0  0  0  0  0  0
    6.2585    5.4406  -24.0971 C   0  0  0  0  0  0  0  0  0  0  0  0
    5.9816    2.9329  -19.5742 C   0  0  0  0  0  0  0  0  0  0  0  0
    3.7654    3.3811  -19.1954 C   0  0  0  0  0  0  0  0  0  0  0  0
    9.8891    6.1551  -20.9244 C   0  0  0  0  0  0  0  0  0  0  0  0
    9.2608    7.5440  -20.8048 C   0  0  0  0  0  0  0  0  0  0  0  0
    9.5040    5.6831  -22.3356 C   0  0  0  0  0  0  0  0  0  0  0  0
    7.9093    7.3930  -21.5059 C   0  0  0  0  0  0  0  0  0  0  0  0
    8.1793    6.4183  -22.6845 C   0  0  0  0  0  0  0  0  0  0  0  0
    5.1958    2.6960  -20.8673 C   0  0  2  0  0  0  0  0  0  0  0  0
    5.3766    3.7399  -17.2594 C   0  0  0  0  0  0  0  0  0  0  0  0
    5.8833    7.5372  -25.1204 C   0  0  0  0  0  0  0  0  0  0  0  0
    5.1499   -4.4459  -18.9411 N   0  0  0  0  0  0  0  0  0  0  0  0
    5.0681    3.4609  -18.6725 N   0  0  0  0  0  0  0  0  0  0  0  0
    3.8045    2.9550  -20.4416 N   0  3  0  0  0  0  0  0  0  0  0  0
    2.5959    3.7047  -18.5155 N   0  0  0  0  0  0  0  0  0  0  0  0
    7.1691    2.7001  -19.3694 O   0  0  0  0  0  0  0  0  0  0  0  0
    6.5858    6.2759  -25.1407 O   0  0  0  0  0  0  0  0  0  0  0  0
    6.2962   -0.7518  -23.9498 H   0  0  0  0  0  0  0  0  0  0  0  0
    2.8049   -2.8688  -17.0802 H   0  0  0  0  0  0  0  0  0  0  0  0
    5.6479   -2.5304  -22.3467 H   0  0  0  0  0  0  0  0  0  0  0  0
    3.2948   -1.0400  -18.7090 H   0  0  0  0  0  0  0  0  0  0  0  0
    6.1781    1.6320  -23.2792 H   0  0  0  0  0  0  0  0  0  0  0  0
    3.9247    3.0822  -23.2736 H   0  0  0  0  0  0  0  0  0  0  0  0
    4.5958    4.5530  -25.1558 H   0  0  0  0  0  0  0  0  0  0  0  0
    4.6100    0.4717  -19.4334 H   0  0  0  0  0  0  0  0  0  0  0  0
    7.2401    4.5579  -20.9483 H   0  0  0  0  0  0  0  0  0  0  0  0
    4.0153   -5.0283  -17.2670 H   0  0  0  0  0  0  0  0  0  0  0  0
    6.1644   -3.6463  -20.5998 H   0  0  0  0  0  0  0  0  0  0  0  0
   10.9824    6.2116  -20.8175 H   0  0  0  0  0  0  0  0  0  0  0  0
    9.4807    5.4759  -20.1616 H   0  0  0  0  0  0  0  0  0  0  0  0
    9.1261    7.8239  -19.7496 H   0  0  0  0  0  0  0  0  0  0  0  0
    9.8815    8.2999  -21.3083 H   0  0  0  0  0  0  0  0  0  0  0  0
   10.2909    5.9500  -23.0563 H   0  0  0  0  0  0  0  0  0  0  0  0
    9.3511    4.5938  -22.3462 H   0  0  0  0  0  0  0  0  0  0  0  0
    7.1613    6.9716  -20.8183 H   0  0  0  0  0  0  0  0  0  0  0  0
    7.5565    8.3653  -21.8804 H   0  0  0  0  0  0  0  0  0  0  0  0
    8.3303    7.0048  -23.6029 H   0  0  0  0  0  0  0  0  0  0  0  0
    4.4857    4.1527  -16.7636 H   0  0  0  0  0  0  0  0  0  0  0  0
    5.6759    2.8074  -16.7585 H   0  0  0  0  0  0  0  0  0  0  0  0
    6.1992    4.4679  -17.2006 H   0  0  0  0  0  0  0  0  0  0  0  0
    6.1969    8.1461  -25.9812 H   0  0  0  0  0  0  0  0  0  0  0  0
    4.8000    7.3543  -25.1760 H   0  0  0  0  0  0  0  0  0  0  0  0
    6.1174    8.0722  -24.1882 H   0  0  0  0  0  0  0  0  0  0  0  0
    3.0005    2.8244  -21.0217 H   0  0  0  0  0  0  0  0  0  0  0  0
    1.7112    3.6194  -18.9737 H   0  0  0  0  0  0  0  0  0  0  0  0
    2.6398    4.0226  -17.5684 H   0  0  0  0  0  0  0  0  0  0  0  0
  1  3  1  0  0  0  0
  1  5  2  0  0  0  0
  2  4  2  0  0  0  0
  2 10  1  0  0  0  0
  3 12  2  0  0  0  0
  4 13  1  0  0  0  0
  5 14  1  0  0  0  0
  6  7  2  0  0  0  0
  6 15  1  0  0  0  0
  7 17  1  0  0  0  0
  8 12  1  0  0  0  0
  8 14  2  0  0  0  0
  9 15  2  0  0  0  0
  9 16  1  0  0  0  0
 10 28  2  0  0  0  0
 11 13  2  0  0  0  0
 11 28  1  0  0  0  0
 12 13  1  0  0  0  0
 14 25  1  0  0  0  0
 15 25  1  0  0  0  0
 16 17  2  0  0  0  0
 16 24  1  0  0  0  0
 17 33  1  0  0  0  0
 18 25  1  0  0  0  0
 18 29  1  0  0  0  0
 18 32  2  0  0  0  0
 19 29  1  0  0  0  0
 19 30  2  0  0  0  0
 19 31  1  0  0  0  0
 20 21  1  0  0  0  0
 20 22  1  0  0  0  0
 21 23  1  0  0  0  0
 22 24  1  0  0  0  0
 23 24  1  0  0  0  0
 25 30  1  0  0  0  0
 26 29  1  0  0  0  0
 27 33  1  0  0  0  0
  1 34  1  0  0  0  0
  2 35  1  0  0  0  0
  3 36  1  0  0  0  0
  4 37  1  0  0  0  0
  5 38  1  0  0  0  0
  6 39  1  0  0  0  0
  7 40  1  0  0  0  0
  8 41  1  0  0  0  0
  9 42  1  0  0  0  0
 10 43  1  0  0  0  0
 11 44  1  0  0  0  0
 20 45  1  0  0  0  0
 20 46  1  0  0  0  0
 21 47  1  0  0  0  0
 21 48  1  0  0  0  0
 22 49  1  0  0  0  0
 22 50  1  0  0  0  0
 23 51  1  0  0  0  0
 23 52  1  0  0  0  0
 24 53  1  0  0  0  0
 26 54  1  0  0  0  0
 26 55  1  0  0  0  0
 26 56  1  0  0  0  0
 27 57  1  0  0  0  0
 27 58  1  0  0  0  0
 27 59  1  0  0  0  0
 30 60  1  0  0  0  0
 31 61  1  0  0  0  0
 31 62  1  0  0  0  0
M  CHG  1  30   1
M  END
> <OMEGA_C>
Tje+QBYO+b4OtrfBul1iQLjiQMAC447BiWuyQM4Iv78OdbDBU+pzQOo8/r84NJbB+WS7QKNKXT+E
urTBoViZQDv2bUBeaLnB1ROlQF0ukkCB38HBcY2fQEO6VT7BSaPBQQXVQLgjkkCP267BDUWHQOab
h8ANxo/B0aWtQLrPXcBGqJ7Bg4SjQMh5k79ZIKbBu8OYQB1mDcCNR57BhxWrQPxwnT+IharBir2x
QKVDbECA3K/BUUfgQCtlrkDLKLfBcUXIQEsZrkDKxsDB92i/QMq0O0Dzl5zB8ftwQE5kWEAckJnB
sDkeQTD2xEBDZafBYywUQapo8UA9cKbBOBAYQbnbtUA5r7LBKRn9QNyT7EAeDKzBQN4CQR9jzUDy
ebXBFESmQDSLLEAy8KbBdQ2sQLRab0A1E4rB1kO8QJAw8UCZ9sjB18ukQPtEjsBah5fBIy6iQJd+
XUBNYZXBnn1zQD0fPUB8iKPBjiMmQI8ZbUCmH5TBm2nlQL/OLECA9JrB077SQHfUyEAwIMnB1HrJ
QEZ1QL9Fmb/BA4QzQK2ZN8AqpIjBg7u0QDDyIcALxrLBS91SQNQfhb8irJXB5rLFQG3m0D++O7rB
zi17QBBCRUBIMLrBKxGTQISykUAAP8nBtoSTQBKI8T6Id5vB7a7nQCLakUAJlqfBEH2AQMvnoMDb
IorBJEPFQH1cacBhzKTB+bcvQV/FxkBQiqbB/7AXQTo6r0D2SqHBhwQSQYtd+kAh/53BthoeQTrM
BEFQd6rBsqckQQlmvkBAc7jBOJ4VQVkAk0D5xLLB+yjlQDYX30D3i6bB9M7xQE/YBUEOC6/B80gF
Qfom4ECp0rzBoYqPQNbihEDgG4bBxqC1QKmsM0BaEYbBdl/GQFz5jkDimonB10zGQENWAkFy2c/B
vZmZQGVW60CBaMnB+cHDQLInAUGFgcHBhQhAQLbDNEB+LKjB0QjbP5ijZ0AqypfBLfMoQHS5gEAD
jIzB2NW7QHtf7L5AULjBX8WcQNyljsC3HJjBejWvQNMjvb91PLHBcW2oQJ7UXsBQoJ/B8qi5QJQl
Yj9HIrXBauKYQF2icEA8XbnBdlelQGZ7k0CwusHBBcqcQM+jTz6i3KPBvefUQE1ykUDbta7B0B57
QMvYhMAKWZDBr81qQMm2/b8CJZfBfCWgQFuHk78446bBAHeUQAPkDcAqMp/BFyWpQGLcnT8o6arB
th6xQMC6bEBF2a/BdLbgQKuBrkCYz7bBjWDJQMPXrkAylcDBqNm9QHLbOEDKqJzBaWhuQLWaWEDN
wpnBJh4cQUjI8kAKsqnBOgEOQWSDCkHND6/BO80OQdnvyUD1J6rBN7b5QJaI/EDUi7XBdnsDQQ74
zEBeIbXBpPekQAQyLECJGafB9G+qQN75a0BwIYrBU3W+QNUrykDCk9LBRxVVQLfgO8Cm9Y/B9ceg
QNOMW0DGepXBb/xwQJfYPUBGwKPBkakjQJWRbkD0YZTBj5PjQBjaJ0CB8JrB+8zWQD0oykBPtsjB
zTzHQD8AN7/WNsDB9o2rQDDhrcAURpjBkACxQPS3IMCos7PBtkjAQOJzbMAipKXBeJ3EQH881D+f
frrBlil5QLaLSUDMNLrBlmOTQPqdk0CrHMnBJJSQQM+Y6D6WCJzBYrHnQBjkj0AReKfBqzRpQA3w
nMBjkorBvwBMQHUhgr9evJbBDTcrQYW77kCPGq7BBpwfQfyQ+0DJWqHBs1gGQcieFEGU9ajBjLQX
QfWRFEGUabTB+xQZQXpprUAQwKnB3xIDQXgAyUBFmaPBAvDZQBV1AEHY67HBcxX5QOn1A0Ea373B
XFgPQSgCx0A2dbvBbx+OQPHEg0DHMobBYRWzQO5/L0CjLYbBcFTFQGyTjECyiYnBr67MQNgh4UBj
ONjBVQW/QOXwqUC2HNbB5C2dQGZx00Ct49DBPKQ9QF95NkDob6jB52DWP09/akC4HJjBcmImQLA3
gUASyYzB7mW8QJIS7r5hNrjB4OqbQFTbjsD5IpjBK3GvQA5svb8lKrHBiPanQJMoX8DBmZ/By2i6
QLQ1YT/lBLXBFaqZQA2HcECyPLnBF86lQLd6k0DEl8HBHxWdQApsTj5vyaPBzUjWQPb+kEAUya7B
Me54QHkGhcCpb5DBb65pQLfq/b8yMpfBWTmgQIq9k7/31KbBYyaUQK8ODsAsL5/BNs+pQJygnT/F
zqrBCyeyQHhtbEBcyq/BGdfhQJ1/rkAI07bBEr7JQEYWr0AYksDBa0G+QCxuOUAKkJzBGMZuQJpM
WEBZxZnB0VLmQHRoB0F9Da/BoOD4QOFcCkELabrBYPn9QLEU6EC0UarBl5oLQeFG7kCRLrzBoF0E
QYe9y0C2GbTBuLSlQPA9LEBLBqfB9gmqQDg6a0BVBYrBXm29QLjHyEAotdLB6y9TQOkUPMB2D5DB
rtGgQLFSW0CPZ5XBnylyQG/1PUC3xaPBcZMjQGbkbUB6dpTBVPPjQKWoKEC5x5rBP2TVQIViykAz
0sjBe+nHQAD/N78TGsDBRZaqQJ8krsC8SZjBcRmxQDvZIMANpLPB1wDAQI/UbMBfkaXBU5TFQJmf
0z/PXLrBWLF6QJdsSUBBCbrBuZaTQACEk0Bo78jBgcKQQBBS6D6M+JvBtqnpQDzYjkDZpqfB9mRm
QNQmncBDs4rBbSBLQEcVgr+Ty5bBzCrsQPLDFUFSLarBKrnDQOFEBEHAca/BJhDfQBBLCkGOZMDB
aVoFQQaAGUGf8rrBeLENQU1I8kBPNqbBDVHpQEy81kBUqqTB8SUKQUA/4kCCa8TBJUkcQUun90Aj
pLrBBCYSQfhZt0DTG7LBfX+NQEkVg0CcH4bB+sOyQHOlLkDSGobBTMDEQPBejEDOVInBwJ3KQHw8
4EBoYdjBJsK/QDN+qED8KdbBEaqbQLNh0EC9GdHB7zE/QInjNkCJh6jBZcXWPxDbaUBSQpjB17Ml
QPy5gECq2YzB

> <OMEGA_E>
mPX0PqiuxD6Mvr4+

> <OMEGA_NBR>
     52388

$$$$
50156600
  -OEChem-04172616093D

 54 58  0     1  0  0  0  0  0999 V2000
    6.4592   -0.6466  -22.6195 C   0  0  0  0  0  0  0  0  0  0  0  0
    6.0233   -1.6083  -21.6892 C   0  0  0  0  0  0  0  0  0  0  0  0
    6.3171    0.7254  -22.3381 C   0  0  0  0  0  0  0  0  0  0  0  0
    4.9026    3.9459  -22.8501 C   0  0  0  0  0  0  0  0  0  0  0  0
    7.2208    3.9857  -22.0708 C   0  0  0  0  0  0  0  0  0  0  0  0
    5.2501    4.7739  -23.9214 C   0  0  0  0  0  0  0  0  0  0  0  0
    7.5654    4.8208  -23.1476 C   0  0  0  0  0  0  0  0  0  0  0  0
    5.3058    0.1720  -20.1903 C   0  0  0  0  0  0  0  0  0  0  0  0
    5.6739   -3.3505  -19.2213 C   0  0  0  0  0  0  0  0  0  0  0  0
    3.7485   -1.9523  -18.7852 C   0  0  0  0  0  0  0  0  0  0  0  0
    4.0644   -3.9615  -17.6402 C   0  0  0  0  0  0  0  0  0  0  0  0
    5.4348   -1.1969  -20.4739 C   0  0  0  0  0  0  0  0  0  0  0  0
    4.9463   -2.1779  -19.4954 C   0  0  0  0  0  0  0  0  0  0  0  0
    5.8767    3.5644  -21.8987 C   0  0  0  0  0  0  0  0  0  0  0  0
    5.7336    1.1443  -21.1141 C   0  0  0  0  0  0  0  0  0  0  0  0
    6.5740    5.2232  -24.0644 C   0  0  0  0  0  0  0  0  0  0  0  0
    6.1738    2.9934  -19.4942 C   0  0  0  0  0  0  0  0  0  0  0  0
    3.9387    3.3120  -19.2318 C   0  0  0  0  0  0  0  0  0  0  0  0
    6.8639    4.1215  -17.0030 C   0  0  0  0  0  0  0  0  0  0  0  0
    5.3877    3.8086  -17.2546 C   0  0  0  0  0  0  0  0  0  0  0  0
    7.7199    2.9841  -17.5972 C   0  0  0  0  0  0  0  0  0  0  0  0
    5.4912    2.6131  -20.7702 C   0  0  1  0  0  0  0  0  0  0  0  0
    6.7254    7.4469  -24.8861 C   0  0  0  0  0  0  0  0  0  0  0  0
    5.2268   -4.2197  -18.2910 N   0  0  0  0  0  0  0  0  0  0  0  0
    3.3224   -2.8508  -17.8745 N   0  0  0  0  0  0  0  0  0  0  0  0
    5.1970    3.5982  -18.7069 N   0  0  0  0  0  0  0  0  0  0  0  0
    7.3736    2.7298  -19.0245 N   0  3  0  0  0  0  0  0  0  0  0  0
    4.0643    2.7888  -20.4278 N   0  3  0  0  0  0  0  0  0  0  0  0
    2.7416    3.5358  -18.5707 N   0  0  0  0  0  0  0  0  0  0  0  0
    6.8884    6.0289  -25.1290 O   0  0  0  0  0  0  0  0  0  0  0  0
    5.5832    7.7348  -24.1978 F   0  0  0  0  0  0  0  0  0  0  0  0
    6.6654    8.0679  -26.0894 F   0  0  0  0  0  0  0  0  0  0  0  0
    7.7966    7.9161  -24.1949 F   0  0  0  0  0  0  0  0  0  0  0  0
    6.9040   -0.9619  -23.5518 H   0  0  0  0  0  0  0  0  0  0  0  0
    6.1389   -2.6602  -21.9049 H   0  0  0  0  0  0  0  0  0  0  0  0
    6.6527    1.4603  -23.0547 H   0  0  0  0  0  0  0  0  0  0  0  0
    3.8858    3.5962  -22.7485 H   0  0  0  0  0  0  0  0  0  0  0  0
    7.9801    3.6642  -21.3733 H   0  0  0  0  0  0  0  0  0  0  0  0
    4.5000    5.0688  -24.6403 H   0  0  0  0  0  0  0  0  0  0  0  0
    8.5856    5.1525  -23.2718 H   0  0  0  0  0  0  0  0  0  0  0  0
    4.8726    0.4832  -19.2512 H   0  0  0  0  0  0  0  0  0  0  0  0
    6.5901   -3.5549  -19.7555 H   0  0  0  0  0  0  0  0  0  0  0  0
    3.1717   -1.0583  -18.9712 H   0  0  0  0  0  0  0  0  0  0  0  0
    3.7154   -4.6706  -16.9042 H   0  0  0  0  0  0  0  0  0  0  0  0
    7.1277    5.0740  -17.4859 H   0  0  0  0  0  0  0  0  0  0  0  0
    7.0471    4.1959  -15.9209 H   0  0  0  0  0  0  0  0  0  0  0  0
    5.1020    2.8986  -16.7065 H   0  0  0  0  0  0  0  0  0  0  0  0
    4.7663    4.6508  -16.9163 H   0  0  0  0  0  0  0  0  0  0  0  0
    8.7818    3.2636  -17.5312 H   0  0  0  0  0  0  0  0  0  0  0  0
    7.5459    2.0654  -17.0178 H   0  0  0  0  0  0  0  0  0  0  0  0
    8.0674    2.3512  -19.6371 H   0  0  0  0  0  0  0  0  0  0  0  0
    3.3008    2.5429  -21.0249 H   0  0  0  0  0  0  0  0  0  0  0  0
    1.8758    3.2917  -19.0076 H   0  0  0  0  0  0  0  0  0  0  0  0
    2.7434    3.9414  -17.6566 H   0  0  0  0  0  0  0  0  0  0  0  0
  1  2  1  0  0  0  0
  1  3  2  0  0  0  0
  2 12  2  0  0  0  0
  3 15  1  0  0  0  0
  4  6  2  0  0  0  0
  4 14  1  0  0  0  0
  5  7  1  0  0  0  0
  5 14  2  0  0  0  0
  6 16  1  0  0  0  0
  7 16  2  0  0  0  0
  8 12  1  0  0  0  0
  8 15  2  0  0  0  0
  9 13  1  0  0  0  0
  9 24  2  0  0  0  0
 10 13  2  0  0  0  0
 10 25  1  0  0  0  0
 11 24  1  0  0  0  0
 11 25  2  0  0  0  0
 12 13  1  0  0  0  0
 14 22  1  0  0  0  0
 15 22  1  0  0  0  0
 16 30  1  0  0  0  0
 17 22  1  0  0  0  0
 17 26  1  0  0  0  0
 17 27  2  0  0  0  0
 18 26  1  0  0  0  0
 18 28  2  0  0  0  0
 18 29  1  0  0  0  0
 19 20  1  0  0  0  0
 19 21  1  0  0  0  0
 20 26  1  0  0  0  0
 21 27  1  0  0  0  0
 22 28  1  0  0  0  0
 23 30  1  0  0  0  0
 23 31  1  0  0  0  0
 23 32  1  0  0  0  0
 23 33  1  0  0  0  0
  1 34  1  0  0  0  0
  2 35  1  0  0  0  0
  3 36  1  0  0  0  0
  4 37  1  0  0  0  0
  5 38  1  0  0  0  0
  6 39  1  0  0  0  0
  7 40  1  0  0  0  0
  8 41  1  0  0  0  0
  9 42  1  0  0  0  0
 10 43  1  0  0  0  0
 11 44  1  0  0  0  0
 19 45  1  0  0  0  0
 19 46  1  0  0  0  0
 20 47  1  0  0  0  0
 20 48  1  0  0  0  0
 21 49  1  0  0  0  0
 21 50  1  0  0  0  0
 27 51  1  0  0  0  0
 28 52  1  0  0  0  0
 29 53  1  0  0  0  0
 29 54  1  0  0  0  0
M  CHG  2  27   1  28   1
M  END
> <OMEGA_C>
+7HOQBKJJb/J9LTB6b7AQPvdzb+Pg63BtyXKQCizOT9atLLB5eGcQPeJfEDozLbBdBDnQLkVf0D6
kLDBogCoQKvDmEDvXr/BghfyQMxDmkBiLrnBtsipQBIcMD7HhaHBqJC1QN5uVsBSxZnB+uZvQLvk
+b8NSJbBsg+CQJ2IfcAKH43Br+mtQLQzmb9/yqPB9EeeQMNiC8CE9pvB0g28QOweZECQMK/BbHm3
QEl5kj+W6ajBmF7SQIIkp0Dig8DBDJDFQCSTP0Aj9JvBRxR8QJH4U0DJ2pnBNqXbQKfjg0AqBojB
OWisQHe/c0BvCYrB0gn3QAv7PkASx4zBzrevQFc8J0BqKabBrjbXQNFM7kDOFsfB7UGnQNgHh8AR
VJLBC6JUQDd0NsAA/47B3U2mQEZIZkC0p5XBkPTrQAW1LkAoMpjBHA+CQHl7MkAPbKPBqnUvQONK
YkDDkJTBxG3cQHvswEBCCMnBZqmyQJWD90AOlcHBCkvVQAcWAUEut9DBEn75QNtQ/UAmj8HBRO3c
QEFBdr8karzB93HEQH9BKsBGPa/Bs+LUQLDsuj8dcLjBh7F4QHwnZkD6/LXBx1z/QOKCakCC/KrB
+/+PQFMzokBBH8XBxl4JQUXhpECkLLrBVeybQDZi9z53AprB3OHSQK6DY8ArC57BQv1KQMJ3h7/4
xJfBSsltQL91lcC5O4fBABbkQIxeokAX44vBKILhQPlEhkAhvH7BnEOjQF2DOUDtpoXBS4WYQB/T
lEB/VIfBLYIMQTTfUEDNP4zBPnjxQCYvBEBwJIjBGRQBQZt6FkDXGJ3B2kBTQMe+IkAFM6jBfRvw
PxOrUkCoD5jBipMvQFdAfEDMQI3BcajNQID9KL/SFbXB0hDAQFPtz7+1nq3BcALJQGIkNj+D0rLB
pJOcQKuJfUD5rbbB2u7mQLHIfUApmbDBjbynQKpumUBIOb/BGALyQPS+mUArMLnBeiGpQDqsGz7P
l6HBejlvQK1H/7/SZ5bB9jK2QKPWVsCKtJnBMOCCQBn/fsCoDo3BTnGtQNq1m7983aPBkjqeQLnc
DMD/AZzBkNC7QNusY0CvJq/BxpG2QNJPkD+P/6jBKz/SQC87p0BwcsDBSHzFQAtgPECW7JvBb8J7
QCXaU0AhzpnBEiDbQJwjgUA40IfB+6ysQNOsZkDjlonBGSD5QG1wQEBBLY3Bx0ivQIsnJkD0KabB
Gd7ZQBCA7kCmusbB7cpUQPgpOcBNEo/BkkuoQMU/h8AON5LBbiymQFEdXkAvP5XBBsjsQGuXL0Av
hJjBiKaBQLcwMkC6X6PBeJ4vQANGakDZ3ZTBG1/cQGkfwUCd8sjBsB78QJjJ+kAXx8DBVxu1QOom
+UDDfMHBr6LaQKXLAUFnNNDBSbLbQHAneb+EkrzBT+LDQFc+K8DfWq/Bp37TQJlXuT+IkrjBCdd3
QPX5Z0D70rXBmEv/QEdXaEBeFqvBDaOPQM9to0DM48TBImAJQXABpEBUOLrBwFObQEsE7D5MEZrB
TC5JQFSwjr/u/ZfBerfTQNMTY8A57p3BE0ZwQMQXlsCeGIfBo1HgQOvloEAMYYvBjOHhQA+IgkAx
Xn7B07umQHP1KEDqn4XB6seWQDehi0CLVYbBtwUNQchTWUCh/4zBv5v3QOEFBEDirIjBz3EBQRYZ
GkBpo53BMyxSQJnKIkBEIKjB3+zvP80TYUAupZjBc1AwQL7TgUDphY3B8JvOQO7PJ79pIrXB8gbB
QKk10L/Ata3B16PJQAItNz8R2bLBsALnQHCEfkDphLDB6IacQCBXfkDec7bBbsTxQH5zmkDHEbnB
yGanQEIBmkDv+77B1mipQNqMDz4btqHBHC+2QI5PV8BMyZnBfDtwQHNW/b+beJbBqOeCQAWmfcDs
B43BdvmtQGC/nL/n/aPBJIOeQOgVDcD1IZzBsPG7QHwyZED2+a7BmN+2QMOnjz8EC6nBFtHRQDEB
qEAZQcDBIAHFQGoOOUBdnZvB7QB7QEnWTkDUrJnBp7TXQFg7WUBZzYXBpyisQCy6dUA5HorBQOX5
QMH8Z0BJgY7BrnevQOR4JUCSEabBTCLXQNDK7kADG8fBeCCoQC0fh8CqOpLBM6BVQOhPN8CHDI/B
mkukQIwtSEAJS5TB0WbtQDCVPkCsxZjBEp+BQHYnMEDhYaPBy7MwQMJCcEA1TJXBhOPbQBFHwUBX
38jBk1iyQGq7+EAPycHBThrWQH8NAUEz0NDByD35QNy1/UAofsHB5+LcQCeKdr+xm7zBai/FQF1L
K8Buc6/B+B7UQPRvuj+rj7jB4pv/QJuoaEChGavB0s53QE2raECZj7XB2zcJQdjopEBmH7rBUyOP
QG38o0Cnm8TBlFObQHYJ4z4VNJrBsJTTQFhXZMD9Bp7B4q1KQGU0jL/WFpjBfwhwQO0vlcBGCIfB
jcbfQMjLfkDERn3BoIHWQFTfFEBiuIPBYu6SQMq7ZUDZUITBalisQJGcnUDmhYvBwqb9QHOYlkDL
0Y/B6z0MQd/HTEAJyYvBwgYCQYeqJkBHkZ3BX5lSQBn/IUBORajBMB32P61ockD4ppnBjrkwQP8d
g0CzyI3BUGvNQE77KL/CDLXBfOW/QHHhzr8wg63B2unIQJ6nNj9W3LLBGNWcQDCnfEApBrfB1+fm
QGBWfkARvLDBpjGoQHAdmUC/h7/BlyjyQFMsmkC+RLnB922pQMQfMT58jKHBjly1QIDMVsC7w5nB
xNRwQJSK+L/l+pXBRluCQM6dfcC8+YzBNI2tQGRemb93v6PBrEqeQBE7C8Cq1JvBP9C7QNDNY0D/
Yq/BFbG2QOnqkT9LCqnBI5rSQOGop0AmkcDB5X3FQAoDP0CzKpzBnvp7QNz8UkDL3pnByM7bQB2+
gEA56IfBpMKsQOzca0D78YnB9g/4QBh5PEA1Mo3B4juvQOIrJ0CSVqbBEV3UQDz27kBgM8fBTTSn
QFREh8C8UJLBRtZVQFrhNcDisI7BYmKmQAKGY0DHoJXB+0fsQGrQLkA5n5jBsLCBQFxFM0AJi6PB
W7MvQBgnYUCPf5TBaC3dQFX6wUBP9MjB8bDXQEOdAUG8v9DBvqbxQK2b/0AhUsDBJECsQKnn9UAk
R8PB+ErbQOMne7/siLzB6ozDQL7WKsBsMq/BHFjTQCDTuD+CqrjBu494QDgxZkDRSbbB8SD/QMbx
aEC3LqvBdVuQQOCmokBsUMXBLHMJQRaNpEAnOrrBF+mbQDX2+j5TA5rB92XSQOAvZMAYJJ7BEmNM
QBQehb+WV5fBd3JuQJuclcAwHIfBLkPjQPk7oEBxXovBp/DhQApqgUCUfH7BbpWkQEU1L0Am+YXB
iUeYQJinj0DKzYbBZNsMQW/WUEC4xIzB0hH0QJ2+/z+F1IjBHDEBQSTSGEBNtp3BGThSQB88JUD/
WqjBRAPwP4XYUkCtApjB+lkwQGeueUAOHI3BTqTNQHqTKb/UNLXBcDbAQBJp0L91uK3BfgjJQJTZ
NT9u8bLB0CznQESFfUB5tLDBmZmcQKYKf0BsjbbBLhHyQFQLmkCJObnBzZynQD5zmkBpD7/B1nOp
QOKqFj5dtKHBvqK1QJG6V8DL3ZnBDHBxQNoE+r+yIZbBFACDQKQwfcB/6YzBaLetQA4bnL+E86PB
QXqeQBx4DMBkBJzBcAG8QO4kZEAkHa/BJL62QLjijz8sGqnBziDSQE8+qEDeU8DBzB7FQFuNOUBl
vpvBqwV7QGzrTUDdspnBvvzXQB3eWEBa6YXBVGysQDKUdUCzMorB1yr6QKyeZ0DRno7BNnavQDK4
JUBVLabBE6jVQCNl70CHHcfBpqinQLNch8CLTpLBz/VWQBS2NcCNtY7B5IKkQFRWSEATZJTBkort
QHa4PkAo6ZjB36WBQMeKMECQeKPBx1QwQDhHbUA7MZXBtlrcQHIGwkBl2MjBuoX3QHDu/0Bgs8HB
HPSwQNQb+EDpn8HBJgTTQKEuAUGH2NDBDIfbQDm6eb8ctrzB/A/EQFV7K8ALdK/BIG3TQPU9uT9f
s7jBhsX/QIjIZkCXV6vBG893QAfVaUA2p7XBo2wJQUwUpEDuULrBHWOPQIiqpEACq8TBfrybQPGD
6T5MK5rBRZXSQEWAZcDbQp7B58FMQHUph79DlJfBRDVwQMAKlcAc74bBQCLgQGFJfkB4e33B5LzW
QK16FECv2IPBozeTQPFxZUBcZYTBq6CsQOyOnUD5kYvBkhP+QBdrlkBD5Y/BSloMQckHTEAA7YvB
ZRACQR/eJkDgup3BhqFSQKpSI0CdZajBz8X0P2rSbkAhfpnBG10wQEMvgUCio43B6LfOQM+xJ79B
ELXBFgbBQCYV0L+gpq3B7MfJQJs/Nz/MxrLBiuXmQNdMfkCTfrDBgGycQMcWfkCQcLbBOrLxQJw4
mkBWELnBnFmnQBG8mUBy/77BooCpQOCXED7do6HBzQBxQCYA/b/sS5bBQgG2QI0NWMBB4ZnBSgOD
QAaSfsDREI3BgAOuQNqknL/x7KPBxp6eQGglDcBqEZzB6dO7QH0UZEBT867BQPi2QHq5jz8a+qjB
5sbRQMWxp0AZRcDBqdbEQL9yOUA+kpvBWb56QJ/RT0BtuZnBFRjXQBt0WEAytoXBQtGrQG0HdkDn
FYrB4J75QJPxZkChV47B52WvQDt8JUBjB6bBTgTYQHvD7kAs0sbBgmNWQAqWN8Ba7Y7Bc/WnQO6z
h8AyX5LBDgmkQKvqSEC9SpTB/zLtQMSBPkD8rZjBbYOBQHbeL0CzXaPBILkwQEvLckBRd5XB3Mrb
QOpQwUCv1MjB7L75QM5U/EBv28DBANWyQI7o+ED6tMHBMJTYQCSUAUFeZNDBCg/dQOJ+dr9nh7zB
xQ/FQN48K8DCZ6/BfFHUQLB0uj8JfLjBbHj/QM6NaECzD6vBIpF3QKaMaECzibXB1C8JQSinpEAA
HrrBAx6PQGWho0Cwo8TBLHebQNS+4z60IJrBhOVLQDvWir+zyZfB5y7TQDhDZcCnNJ7B8z5wQEzR
lcBkG4fBqCPfQEyCfUBxAn3B/33VQNIFFEAfr4PBlFeSQDRnZkDlVYTBy2isQEDHnUBrdYvBytL9
QHkRlkAulI/BifsLQU7WSkBXmIvBr/EBQTzhJkB4fJ3BB3JSQJG2IECYN6jBNqP2P8AsdUBi3ZnB
4bMwQB3UhEB0/o3BjGfMQG45Lr/lR7XBoiS/QNbG0r87yK3B8g7IQAoTMT+q+rLB0AnnQE6sfECG
lbDBnpCcQBL3fUBfhbbBUPzxQD/MmUBxE7nBYJqnQFMgmkDm+b7BVRKpQCiZAj7gqqHBSVVxQABr
/r+NCpbB/861QAb1WMDp6pnBMtyDQIA1f8Cv1ozBThutQDSmnr+/9KPBqkueQHoADsC3AJzBEuC7
QDINY0CsDq/B1jq2QKpsjT/0FanB1hHSQDElqEAJLcDBFazEQG8COEDTsJvBqqx6QCzCUEBt6JnB
zKzWQEiTVUAxxIXBVhmsQIo5dkClP4rB9NL5QBbrYEAlU47BIyivQJyBJEBqJqbBkAjUQGGX70D4
4MbB3NlXQFw0OMCEmI7BhlqoQPQXiMACVJLBzPajQCCJSUBVd5TB6P3sQHyqOUAVtZjBVlSBQLjQ
L0AygKPB+OowQACrdEC3s5XBWjbcQDxpwkCBnMjBmDKwQPdM90Az8sDBlMDOQLwYAUFNltDBllj2
QEq7AEHI7sHBcfXZQFc5fr9A07zBS8XCQIGoLMBxjK/BCU7SQGfptj/dv7jBkZL/QHrpZUB7NKvB
pM53QKJmaEB9rbXBNGMJQTTYo0BPJbrBKW+PQCJYpEBWmcTBQ6mbQOYx3z6mGJrBfg9MQMEwjL89
cpfBQJ7SQJpLZsCkY57BUeFyQMIUlsCK0IbBjyzfQFFZekCOI33Bg6/TQCBsEUD3sIPBviGSQDV9
aECfj4TBZvutQCzTnUBNoYvBv53/QJnVkkCai4/B4rILQRghQkCagIvBjq0BQe9AIEBxd53B1/FR
QKWMIEBdU6jBWgr3P4D9dkA8GprBxRMxQP0hhkAERI7BH0XPQE7jJ7/g4bTBZLnBQDKpz7/Cbq3B
+DLKQGLlNj9xorLBHYCcQLDYekA7rbbBWKDmQEqdfkBPaLDBGnunQLP0l0BvP7/BmIDxQJoYmkBw
BLnB9zGqQALiGT4zb6HBjR22QOdlWMBPyZnBjjtxQHpM/b8TSJbBNCaCQCsMgMDoR43BwsCuQJ/O
m78+taPBeAufQD77DMDH7JvBMLW7QAANY0BkC6/BGHm3QEw9kD+71KjBsrrRQHi2pkAAXcDBxIDF
QIO4PUA71ZvB2yt8QIvqVkBw9JnBcpvaQDS/fEDwS4fB8JWrQBoTaUBBqYnBWOj2QPseOEDzqIzB
DoevQCXxJUAjCabB0dXVQBb77UB94MbBBnOnQNdFiMBpcpLBjFVVQFKROMC/Fo/BpFCmQFoQY0Cp
ZJXBbiDsQDJSLUAOMpjBjOmBQOEbMUDZRaPBDZ4vQPyPbUDeIJXBY5/bQJ+xwEDq2cjBvuT3QAxc
/UABU8HBUSaxQKSx9kDLX8HBorjTQFj3AEFnfdDBx5fdQOFUd7/cV7zBSNbFQLIQK8AnJ6/BUZPU
QJn9uT8qYbjBCxt4QFXsY0AS4bXB/ff+QDtjakDa0arBkXePQP0hoUC0BcXBbQkJQbH2pECW/7nB
jFGcQD/k6T466ZnB7YvTQNhYZcAuBJ7BwahMQA1Mir/3uZfBqlxtQCX2lsCve4fBgtHiQDAenkBN
f4rBd/bfQPADfED6Mn3B84miQNwBLEB96YXBzzqXQCZQjkD+fobBF1IMQXVxS0Do9ovBMRnyQE5k
9T8siIjBKVwBQZ0yGUCXRZ3BYtBSQL94HkAh3KfBRTDwP+spYUD/ypjBX+QvQAMnhUAK+43B0ObK
QDMXMr9yMbXByBjAQDkC1L8zdK3BKJHGQGx6LD/357LBOTCjQFemYEAa8rjB4uXdQC/UjkCCiK7B
rEGuQF6kikDnpMHBuV3oQESfqUDMK7fBH56rQMAUAD79IqHBU+CYQFxbY8DRu53BNtWrQIq5+r9B
/I/BxUiVQD3Jg8D1novB8vuwQIU4oL8STKPBEhanQESLEMCy9prBwzq7QK83Y0DSVK/Bx/m1QJYe
jT+f5ajB5JrQQLCmp0BCusDBfOjGQN0yOkBx75vBJoZ/QBpGVkBxZ5nBGPLhQCeYhUAG7ojBAZGy
QOwpcECerInBHIT+QKeARUA4Go7BdHKvQELwJUBLHabBJPjEQLkj6kBGrsnBpBuQQNKzjsCwCpbB
z/eiQNAUOcAvgIjBOO+oQPq8XkA3GZXBwbzuQJCiLEDw8JjBFFSCQIkYNkCGIKPBga4zQL7DbED9
UpTBpozbQCqWwUA+NsnBnPHLQF3WAEFHrMDBPCiaQKnt40D1/MrBIALUQOkuAEFXONLBz5PWQGBQ
gb8G7bzBC1jDQG9FLcCMRK/Bye3PQLn/sz/azrjBKSaIQMzqNUBkmLnBFlbwQBx2kECtPKfBX26c
QLifiEBsB8nByVwBQSzNv0BderbBYGyfQIYq3z64cZnB+/6UQNVhdMAUDabBw5u2QENrer/okI3B
zjWOQIJXm8AXjYXBl4TmQFcXpEBJLI3B0ObqQBGHiUD0eYDBgyStQOQZNkDh4oTBZ+2dQLUAkkAv
tIbBm6gPQeVbXkCT1o7Bf5H+QHmRDEAp7YjBGH8BQQHkEECJEp7BqmJSQPoyKkBz2afBdXD3P3XX
ZEDHE5jBxRA1QLBvgkBc6ozBCEXyQPA/8L6uz63BrLfcQOGyub/I46fBmgLmQFu5YD9dBK3Bb3fn
QOgde0CJd7LBs36aQFoxhEAd3rTBUVfuQMbYlECR7bvBDVqhQMr2nED7/73B9EOvQOOfiz6bD6DB
TNC3QJ9VU8ChipfByq9vQO7j+L8bK5jBCWpwQD6KgMBQj4/BO9S6QGb1ir+WBKHBqWajQD9bB8Bg
3ZrBy2G9QE5HZ0CV/K7BodPDQOg4oz9UM6bBvGfLQMMUpUB3w8HBSnrJQOJBWUDMUJvBFOuAQMeh
U0CPn5jBsifcQPagiECvSobBwxeuQNsAj0D9Y4rBzCT8QEKBkUDkeo/BUWO1QH4vMEAa8KTBs7Cw
QK9x0UDmW9DBX/6hQHNqh8DN7pHBoeNFQDRmOcA/lZLBanSoQGStZ0BYB5TBbgTxQC0+cUC0R5nB
LSCHQD17MUBEGqLBixUyQKZwX0BB75PBXkLUQNOzvEBR7crB/FacQEh57UDxtsnBDKyUQEMOtECo
W9TB1K3AQCf150CvttjBaDIGQSAKQL+IALPBmgvmQM0rH8DblajBHMf2QMnYzz9dprHBLkYBQbEk
ZkB+yK3BAWV0QDI5e0AtRbLBiUgHQVJQmkADvL7BNU2GQC8eqkA4QcLB7z+WQNbIDT9HiprB/g7Z
QDbyXcCPfpnBimFOQHMchr+RlprB/EZOQBWjmMAsEovBdFbiQF3hnkAXTX/BIR/gQJkIT0C2eYPB
AxuXQJpmhUBxLITBuu2oQOfPsEDqeIzBm4P7QOTZs0BnZpHBxT0OQT1tiEAj2YzBfBsEQYq0YUDp
b57B3ohfQPo2G0Apz6bBvTz6P4luTUAE0pfB+KUtQHXyeUCVrIzB

> <OMEGA_E>
XAPXPhCr1z4UYtg+EMjZPkCj2z5w2ts+INbhPjjj1j6Uai8/yJwpPw==

> <OMEGA_NBR>
      9288

$$$$
50157418
  -OEChem-04172616093D

 48 51  0     1  0  0  0  0  0999 V2000
    4.9121    3.7560  -22.9452 C   0  0  0  0  0  0  0  0  0  0  0  0
    7.1354    4.1993  -22.0339 C   0  0  0  0  0  0  0  0  0  0  0  0
    6.5396    0.8048  -22.2056 C   0  0  0  0  0  0  0  0  0  0  0  0
    5.2154    4.5426  -24.0656 C   0  0  0  0  0  0  0  0  0  0  0  0
    7.4366    4.9831  -23.1584 C   0  0  0  0  0  0  0  0  0  0  0  0
    6.7854   -0.5556  -22.4567 C   0  0  0  0  0  0  0  0  0  0  0  0
    5.2604    0.2011  -20.2200 C   0  0  0  0  0  0  0  0  0  0  0  0
    3.6504   -2.0617  -19.0515 C   0  0  0  0  0  0  0  0  0  0  0  0
    5.7754   -3.2156  -19.0348 C   0  0  0  0  0  0  0  0  0  0  0  0
    3.9725   -3.9821  -17.7615 C   0  0  0  0  0  0  0  0  0  0  0  0
    5.5169   -1.1610  -20.4585 C   0  0  0  0  0  0  0  0  0  0  0  0
    4.9770   -2.1603  -19.5182 C   0  0  0  0  0  0  0  0  0  0  0  0
    5.8568    3.5995  -21.9014 C   0  0  0  0  0  0  0  0  0  0  0  0
    5.7671    1.1959  -21.0827 C   0  0  0  0  0  0  0  0  0  0  0  0
    6.4707    5.1689  -24.1659 C   0  0  0  0  0  0  0  0  0  0  0  0
    6.2859   -1.5400  -21.5852 C   0  0  0  0  0  0  0  0  0  0  0  0
    6.2542    3.0229  -19.4389 C   0  0  0  0  0  0  0  0  0  0  0  0
    4.0002    3.3083  -19.1425 C   0  0  0  0  0  0  0  0  0  0  0  0
    5.5260    2.6664  -20.7320 C   0  0  1  0  0  0  0  0  0  0  0  0
    5.5015    3.8300  -17.1699 C   0  0  0  0  0  0  0  0  0  0  0  0
    6.5492    7.3826  -25.0139 C   0  0  0  0  0  0  0  0  0  0  0  0
    3.1667   -2.9771  -18.1862 N   0  0  0  0  0  0  0  0  0  0  0  0
    5.2621   -4.1085  -18.1630 N   0  0  0  0  0  0  0  0  0  0  0  0
    5.2569    3.3183  -18.5245 N   0  0  0  0  0  0  0  0  0  0  0  0
    4.1090    2.8563  -20.3686 N   0  3  0  0  0  0  0  0  0  0  0  0
    2.8003    3.6645  -18.5461 N   0  0  0  0  0  0  0  0  0  0  0  0
    7.4495    2.9065  -19.1905 O   0  0  0  0  0  0  0  0  0  0  0  0
    6.7409    5.9664  -25.2511 O   0  0  0  0  0  0  0  0  0  0  0  0
    6.5257   -2.8428  -21.8628 F   0  0  0  0  0  0  0  0  0  0  0  0
    7.4961    7.8620  -24.1628 F   0  0  0  0  0  0  0  0  0  0  0  0
    5.3114    7.6326  -24.5013 F   0  0  0  0  0  0  0  0  0  0  0  0
    6.6647    8.0275  -26.2002 F   0  0  0  0  0  0  0  0  0  0  0  0
    3.9519    3.2663  -22.8776 H   0  0  0  0  0  0  0  0  0  0  0  0
    7.8804    4.0520  -21.2660 H   0  0  0  0  0  0  0  0  0  0  0  0
    6.9407    1.5554  -22.8705 H   0  0  0  0  0  0  0  0  0  0  0  0
    4.4852    4.6676  -24.8515 H   0  0  0  0  0  0  0  0  0  0  0  0
    8.4091    5.4435  -23.2510 H   0  0  0  0  0  0  0  0  0  0  0  0
    7.3608   -0.8468  -23.3230 H   0  0  0  0  0  0  0  0  0  0  0  0
    4.6675    0.4895  -19.3647 H   0  0  0  0  0  0  0  0  0  0  0  0
    3.0199   -1.2516  -19.3871 H   0  0  0  0  0  0  0  0  0  0  0  0
    6.8001   -3.3101  -19.3626 H   0  0  0  0  0  0  0  0  0  0  0  0
    3.5706   -4.7124  -17.0748 H   0  0  0  0  0  0  0  0  0  0  0  0
    4.5411    3.9792  -16.6548 H   0  0  0  0  0  0  0  0  0  0  0  0
    6.1097    3.1053  -16.6086 H   0  0  0  0  0  0  0  0  0  0  0  0
    6.0373    4.7887  -17.2314 H   0  0  0  0  0  0  0  0  0  0  0  0
    3.3366    2.6662  -20.9746 H   0  0  0  0  0  0  0  0  0  0  0  0
    1.9445    3.5832  -19.0571 H   0  0  0  0  0  0  0  0  0  0  0  0
    2.7906    4.0027  -17.6051 H   0  0  0  0  0  0  0  0  0  0  0  0
  1  4  2  0  0  0  0
  1 13  1  0  0  0  0
  2  5  1  0  0  0  0
  2 13  2  0  0  0  0
  3  6  2  0  0  0  0
  3 14  1  0  0  0  0
  4 15  1  0  0  0  0
  5 15  2  0  0  0  0
  6 16  1  0  0  0  0
  7 11  1  0  0  0  0
  7 14  2  0  0  0  0
  8 12  1  0  0  0  0
  8 22  2  0  0  0  0
  9 12  2  0  0  0  0
  9 23  1  0  0  0  0
 10 22  1  0  0  0  0
 10 23  2  0  0  0  0
 11 12  1  0  0  0  0
 11 16  2  0  0  0  0
 13 19  1  0  0  0  0
 14 19  1  0  0  0  0
 15 28  1  0  0  0  0
 16 29  1  0  0  0  0
 17 19  1  0  0  0  0
 17 24  1  0  0  0  0
 17 27  2  0  0  0  0
 18 24  1  0  0  0  0
 18 25  2  0  0  0  0
 18 26  1  0  0  0  0
 19 25  1  0  0  0  0
 20 24  1  0  0  0  0
 21 28  1  0  0  0  0
 21 30  1  0  0  0  0
 21 31  1  0  0  0  0
 21 32  1  0  0  0  0
  1 33  1  0  0  0  0
  2 34  1  0  0  0  0
  3 35  1  0  0  0  0
  4 36  1  0  0  0  0
  5 37  1  0  0  0  0
  6 38  1  0  0  0  0
  7 39  1  0  0  0  0
  8 40  1  0  0  0  0
  9 41  1  0  0  0  0
 10 42  1  0  0  0  0
 20 43  1  0  0  0  0
 20 44  1  0  0  0  0
 20 45  1  0  0  0  0
 25 46  1  0  0  0  0
 26 47  1  0  0  0  0
 26 48  1  0  0  0  0
M  CHG  1  25   1
M  END
> <OMEGA_C>
7y+dQPdicEC6j7fBDVXkQEJghkBtRbDBtkTRQDgETj8cpbHBmuSmQFtdkUBbhsDB8vjtQDF1n0Bo
RLnBPCLZQK8+Dr9Cp7PBj1WoQBfoTT6OwqHB6J9pQBfyA8BkaZjB/c+4QGXMTcBWR5jB5T1+QCbb
fsCSF47BOoqwQAiclL/vqqPBjkOfQJlBCsBbJZzB1mq7QMFeZkD+Na/B4Iu4QPoTmT9UqajBuA/P
QO5npUC1U8HB+SXJQA4fxb+WrqzBHyLIQDZ3QUDdgpvBggGAQH+7U0C/I5nBBNWwQN+mKkAN26XB
IAywQBQedUDmW4nBZJPRQFY+7ECIHMjBlqpKQB+JPsBqfZHBOWOoQAt5g8DrTZHBdzioQElfVEAe
MpTB43yDQDnNNkDS8qLBhzczQEeHakB2XpTBhWLuQE4DOkArhpnBSrXXQGTsvkA4AsrBVtLQQGnw
NcAO567B3t/vQNaV+0B5TcHB+vapQF8+9ECmAsTB6ETVQKtwAEEJmtHBFex8QMEKUUBQBbfBTyz8
QESqgUDHIKrB4xneQOAYxz++9rbBuoaPQKNclUDRz8bB34sGQYkxrkAJArrBa4vrQFvJWL+WlbrB
IFyVQLak+j7S6prB3EVBQCU0oL/bGJvBZ5rZQLbYU8Ci5prBs4RkQN/LlsAvmYjBblCRQLWrfkD6
PIXBfoLDQKa9RkB33oTBozHBQLU8mUDZ2YnBkItVQE2iKkAQzKfBEOX4P99TZUDYdJjB9ZgyQOUV
gEA414zB4vfkQHd5hUDwXbDBmkWdQGSzcUB9frfBrR3RQLPuTj+6qbHBjsbuQKiLnkAFXLnBOiqn
QI/tkUDVdMDB1qPYQHE8Db9tvrPBugSoQNaqTz7RzqHBHVppQI7RA8DcWJjBH6W4QMfJTcA+dpjB
Tkp/QKFufsCnAo7BDO6vQE1wlL/TyKPBouOeQG1FCsDHPpzBGaa7QOJrZkC7NK/BL224QDlzmT9v
q6jBn6TPQFxIpUA2U8HBb2HIQDTIxL+f1KzBRwvIQBrLQUBDgZvBCL9/QNnGU0BjIpnBts6wQMHY
KkC+2aXBsgOwQEQIeEA9eonBp3DRQA8n7EBPHsjBVEhLQMs0PsDBVZHBZq6oQDlYg8DDZJHBkyKo
QL5lVUDbN5TBiW2DQMAdN0CS9KLBi9IyQAapaUADU5TB31DuQMLuOkAtg5nBQk7YQLXnvkAe/MnB
cLrPQDjBNcA0IK/Bxn3wQOEf/ECen8HBQlWqQD6680Awq8PBb0fTQD1DAEG7rdHBbvz8QMAPgEC0
TarBI5F8QK12U0DY57bBhTDeQOiyxz9S77bB5BQHQVSlrEBYKrrBPLCPQINjlkC3ssbBDADrQPt1
V7/Br7rBaSKVQIsJ+z5w8prB3apAQNQboL88+prBoz3ZQCwDVMDMOZvB5ExmQHR5lsBpb4jBPVCR
QIvogECmWYXB9bfDQKqwSkCw44TBVu3AQGnFmkAqJYrBuXtVQAcxK0CW0qfBpAL4P3H2Y0ArZJjB
SysyQGYjf0DlyYzBeQmdQN5TcUB3h7fBzVrkQN5GhkD4RbDB+n/RQK0tTz+Io7HBZ9CmQMvZkUBd
e8DB7hHuQMJpn0AeRLnB4ILZQFMaDb+vnLPBYhWoQPAEUz5l1KHBO4ppQOp5A8AwapjBC+i4QFHY
TMDMQJjBlI1+QIs5fsC2E47Bt3ewQG/Fk78GsaPBeDyfQJugCcDGJZzBWVG7QDWvZkClNK/BOmO4
QKKDmT+JuKjBAxjPQMWkpUCmTcHBZV7JQN9rxL/epqzBQQvIQP+4QEDSjJvBGs5/QNZnU0A5IZnB
96WwQKetKkCu46XBsUywQHNjd0ABgonBKS7RQChE7EAWSsjBhspKQOwLPsCleZHBR5GoQPEEg8A7
R5HBvkKoQJgfVUAjQpTBbFGDQCvnNkCh9aLBsfcyQDIAaUAcR5TBkBzuQImJNkA5h5nBgNfXQKrp
vkA9B8rB7jvRQPWZNcDz0a7BOq2pQFkq9ECrG8TBlizUQK4qAEHE39HBgabvQJlM/EDQocHBtmd8
QP9sUkDM+bbBcDj8QCdYgUCoJarB54HeQDKxxz8Z7rbBamePQCgOlkASwMbBTKMGQST1rUC1BLrB
ZiXsQDTVV7/mgLrBV+OUQKZ+/T71BpvBiwdBQD2bn79AHZvBBbzZQGqbUsAt25rBmO5kQNmJlsBZ
l4jBvqORQPH3gEAQZIXB6KrDQAd1SUD/64TBn6DBQG85mkCkJ4rBlCNVQPwPK0Bkz6fB5RT4P0sy
Y0C8UZjBgnwyQKBgfkDKvIzBjGadQIlscECYdrfBGknkQDYOh0CdF7DB6sTRQCJKUj8gm7HBLzOn
QCYWkUDwdsDBawHuQIXnn0CxILnBXKrZQO21Cb81qrPByn+oQDKGUz7szqHBMOG4QFBBTcC+XpjB
VetpQE0WA8BEgJjBkW1+QESnfcBEH47BCLuwQN6Zk78EwqPBml+fQDLACcDbQZzBMHq7QAAiZ0Al
Eq/Bks64QIJLmj/XpKjBj0fPQE9KpUA3QcHBMITJQKN0w78+wazBuh7IQPo9QUD/ZZvBW/F/QJNN
UkAbAJnBf+6wQKz6KkCNw6XBZhCwQOtZeECCc4nBJGbQQA6K60DJcMjB9W+oQBgLg8DYW5HBLPhK
QGRJPcD4h5HBOC2oQF0nU0AADZTBG42DQMSUNkAw3KLB8R4zQE/taEBYOZTBjm3uQKaPOkBGcJnB
ggnYQONDvkCdBcrBWULRQMkFNcCJAa/BWbeoQLvq8kAWTcTB1wbTQCoO/0BHGdLBL4PuQJWL/EAc
1cHBbmh9QF32UECJ7LbB3Pf7QCLBgkBu5KnB6MDeQJa8yT+t3bbBC/ePQOq8lECKy8bB64IGQfnf
rkAK2LnByTfsQIcZU7+RlbrBa2eVQPEq+z6D+ZrBnKTZQBCJU8BQAZvBhaFBQHyLnr/DNZvBzK9k
QI8TlsAvmYjBLnyRQDYUgEAENIXBlhfFQP+fTUCU1oTBGoq/QByUm0DcXYrBe8ZVQHrmKkBmvqfB
wur4P3COZEBPWZjB0l8yQI2dfUByp4zB5ILkQIoPhkBSQbDBVC2dQEVwcUAbiLfBPozRQCSpTz/e
pbHBr2HuQGAXn0AhP7nBdRSnQLXrkUBbesDBqIfZQNxpDL9dp7PBdGaoQNTXUD7XzqHBExG5QIFm
TcBZTpjBWkNqQIVOA8AcYpjB9QR/QF8MfsB/Co7BXbqwQE4RlL/ttKPBY4CfQNLjCcCBK5zB/2a7
QJycZkAtMq/B8o64QNt+mT/1s6jBFnXPQFuOpUBfR8HBG3bJQFZexL90tKzBcgDIQLf0QEDUiJvB
V7d/QK65U0CuKJnBR6+wQPiqKkD/4KXBIBmwQGg8d0C3fInBvlbQQBIk7EDJQsjBobeoQKgqg8A4
S5HB8nZLQNmmPcCOa5HBBiioQMw+VUC+QZTBfFSDQKrINkDN96LButQyQA2caUABV5TBphLuQGcL
N0Aff5nBzobYQKkBv0Cq8snB0DfRQL+FNcA27a7BmKvqQM86/EAxlMDB/9mmQAgF80CxZMXBQg3Y
QMJ+AEEfktHB0FH8QCEQgUBHHqrBeZt8QNasUkBm/rbBFH3eQMIcyD/M77bBOdkGQbJkrUAdAbrB
f7aPQJlAlkBAwMbBPhfsQIKTVr9MkLrBiVyVQLV++z4k+ZrB/c7ZQCeaU8Ds9ZrBwelBQPzhnr8E
EJvB72BlQG9YlsBfh4jBS2aRQNPfgEAFY4XBp2TDQFEnSUDZ54TB4nbBQEMjmkB2GYrBnThVQMSW
KkBt0KfB0ur3P/WuY0DhY5jBXUIyQCtRf0B+0IzB4xedQNP9cUBfe7fBO5LkQH7ChUAIO7DBhlHR
QD5uUD+brbHBOSWnQLghkkArbsDBq5buQEC7nkAkObnBd0TZQEqHC7/otrPBiAqoQAAIUD7u3qHB
RE65QAJgTMD6RZjBsdJpQHf4A8Bog5jBvbx/QFKifcBRA47BK2qwQGoBlL9DyqPBD2GfQGDYCcBM
PpzBD1G7QPGwZkDZJ6/B50i4QKyXmT9au6jBBKvPQHV3pUAKPsHBPyfJQHsfxL+/yazBx+DHQHp/
QEA1gpvBo4p/QJXCU0BlHpnB43+wQBOhKkAZ3KXBJyOwQOdld0DHeYnBUZbQQHUD7EDGQcjBRy+p
QPeTgsD4NZHBYYNLQBcgPsBIfpHBixioQL0rVUDuOpTBlymDQIrfNkDk7qLBS9EyQFEgakBGS5TB
F+TtQNHTNUArdpnBsuXYQOXfvkD76MnB2+fQQA9kNcCpBK/B7q7qQHUu/ECqiMDBywGnQFnc8kCF
d8XBnYrYQHVnAEEQkNHBojZ8QEOyU0CH77bBY2H8QHWMgEDjGqrBQ1HeQBCxyD+z8bbBTMiPQL+k
lkBFssbB4QEHQZTHrEDI/bnB/dTrQAU9Vb/loLrBKueUQIXx+T4jDJvBbSHaQBLzUcCh4prBxPBA
QOCkob/FR5vBmHhmQEsXlsAcdojBEXmRQAIagUAIX4XBEGLDQMZRSUBy4YTBwJfBQHYomkAiHorB
gtBUQEPLKkDBxafBeMz3P7SgZEATWJjBeWgyQOjAf0DMw4zBvITkQH6QhUB9P7DB8CqdQKOWckAb
pLfBwrTPQGO0Rz/u+bHBwIHuQArFn0DrA7nBCE6nQKVqk0B5Z8DBXKTXQDUdFb9p5LPBahKoQELQ
RT4z2aHBcEpqQAN1A8CkK5jB0im5QIFGTcDEIJjBbMd/QOOMfcA2vI3BiEOwQHi5lb+0rKPBlG2f
QEIZCsDHApzBnlC7QObHZUC/Vq/B3qu3QIHrlj8D56jBbLzPQEQnp0ABBcHBcFHIQN6Mx7/CwKzB
is3HQPbMP0A3zJvB8gSAQMs5VUC3Y5nBmkGwQLV+KUAvGKbB6rCwQEwzdkD2v4nB2hnNQHoS7UBd
d8jBu+tLQK56PcBiI5HBkgapQD/xgsBgC5HBTuyoQEvVYEC1BJXBnhGDQLuYNkBpIaPB7TUzQGKb
ZkClR5TBDGXtQFa2MUBSlpnBAIfZQOurwEDNn8nBfAzQQHdNN8AG367B6OuiQJQI8UCN5MXBdujT
QN5lAEGa+NHBslHlQApFAEES2MDBq1H8QBItf0AGKqrBJnN8QCP8U0AtObfBSfPbQHo3wz9bbrfB
P+UGQeZBrkATnrnB0BeQQNFlmEDfrsbBzpbpQFKbYb/V4LrBKZKVQPN++j4f8prBa7pBQDOcn78u
3ZrB6tnZQMh6U8Di0prBB4NmQF/xlcDuJ4jB5RiTQAKch0CvJ4bBD9e6QNdgPEAZa4XBT/jJQMSB
k0DHOonBzE9UQLfgKUCc5KfBzI/3P4vNW0BFC5jB/DszQCTyfUCt1IzB+gCdQPgycUAbj7fBK47k
QC6fhUCoXLDB2ZHRQIYGTD/Ym7HBAMemQBX6kUA2ecDB7kHuQG/3nkBlULnB4X/ZQPFkEL9Pj7PB
OJOoQI4eTz56taHB9N24QANPTsAtQZjBxmxqQKoyA8CINpjBolF+QKoXf8DmDo7BrdSwQDGVlL/p
j6PBrYqfQDgMCsBPBJzBPGm7QInoZUDSSK/BybS4QBmTmD+ZqajBMiXPQJuapUCmS8HBE27JQJSy
xb99kazBpiXIQEJkQkCpsJvBOk+AQKB7VkBmVJnBOMmwQAxiKkCy8KXBo36wQDS9d0AQq4nBFbvQ
QLt47EAuG8jBP02oQPfgg8DKV5HB5T9LQK72PcDUVJHBMCOpQMR6ZEBdA5XBvY2DQC6zNkCkAKPB
I3UzQCBHZkB0N5TBvJPtQA2aM0C4YZnBAsbXQHk/v0DG88nBFfrQQAtMNsBlxq7BcovSQIZfAEHu
rdHBsLHvQFyZ/EDrm8HBdpKpQGn180B8rcPB+Dh8QLqJUkC8/7bBWIH8QMFSgECFRqrBJnXeQObG
xT8x8bbBnE2PQO92lkDttsbBKsQGQeVZrUAcFLrBegbsQNrXW79FdrrBnKKVQHdh/T4c35rBQ5rZ
QBWoVMCb6JrBpW9CQDSYnb8i0JrBJ2BkQH8Dl8Bzm4jBEhWTQMkSiUDZIobBVGy5QDmwPEC/bYXB
LYHKQNVnk0Cd74jBnnJVQIy7KEDHvKfBqIX4P+9MWUA77ZfByAIzQDKlfkDC0YzB6aDkQLSZgUBq
5bDB9H2cQMZAdUDKL7jBNbbLQOTtOT+AqrLBz7jvQIfWnEAsT7nBBbenQJ8slkDNo8DBbCzTQCzE
I79KgbTBaSqmQAadMT5GJ6LBMMq4QM4KTsBYRZjBeJpqQCyZAsBWeZfBRMeBQCKge8BM94zB+xKu
QMzZmL9W4aPBEJaeQICrCsAy6JvBAG+6QMYYY0BM+6/BSfm0QFyIkj+ycKnBGDvRQLxlqED7/8DB
4b/EQCwCzb8hIq3B5b3GQNr9PUCKg5zBmvx+QNbpU0ABwJnB82iuQNa3J0ADuabBkJGxQDZXdkDH
e4rBikjAQDZO6EB34crBVgSqQPyvgsDl2ZDBhuxOQNZeO8DVHZDBA8qoQEolYkB8vpXBWZKBQF5F
N0BdnaPBj3IzQMg/YUBYK5TBKBfsQEZuLUCvTprBTtDdQIPIxUDLmsjBqAPMQGBHOsAMM6/BB2yk
QJb220BtndLBEZ3XQHHiBEGUk87BEneqQEyk9UABB8LBP3D8QNttcUB/CqvBSAh6QKHFWED587fB
2lXXQCbouj+VTLjBCPwHQegMqUCT47nBcMCQQABqnUCG1sbBghHkQBPkc789nbvBkoOUQJya9z7s
JpvB27/YQHRoVcBmbZvBSWdBQC2pnb+E+ZnBh2xsQGN4lMAfHofBH9iUQIY7iUC6zobBVkm6QGRh
O0B6MobBJirMQHsmkkArAorBkYtQQH1kLUDwWqjBE1/2Py7eVECEp5fBAj01QCo/d0D5qIzB

> <OMEGA_E>
gAfxPADC9TxAxQA9ICMCPcC6Az0AbAQ9ANULPUB4GT0wgcc9

> <OMEGA_NBR>
     17001

$$$$
50156605
  -OEChem-04172616093D

 54 58  0     1  0  0  0  0  0999 V2000
    6.4592   -0.6466  -22.6195 C   0  0  0  0  0  0  0  0  0  0  0  0
    6.0233   -1.6083  -21.6892 C   0  0  0  0  0  0  0  0  0  0  0  0
    6.3171    0.7254  -22.3381 C   0  0  0  0  0  0  0  0  0  0  0  0
    4.9026    3.9459  -22.8501 C   0  0  0  0  0  0  0  0  0  0  0  0
    7.2208    3.9857  -22.0708 C   0  0  0  0  0  0  0  0  0  0  0  0
    5.2501    4.7739  -23.9214 C   0  0  0  0  0  0  0  0  0  0  0  0
    7.5654    4.8208  -23.1476 C   0  0  0  0  0  0  0  0  0  0  0  0
    5.3058    0.1720  -20.1903 C   0  0  0  0  0  0  0  0  0  0  0  0
    5.6739   -3.3505  -19.2213 C   0  0  0  0  0  0  0  0  0  0  0  0
    3.7485   -1.9523  -18.7852 C   0  0  0  0  0  0  0  0  0  0  0  0
    4.0644   -3.9615  -17.6402 C   0  0  0  0  0  0  0  0  0  0  0  0
    5.4348   -1.1969  -20.4739 C   0  0  0  0  0  0  0  0  0  0  0  0
    4.9463   -2.1779  -19.4954 C   0  0  0  0  0  0  0  0  0  0  0  0
    5.8767    3.5644  -21.8987 C   0  0  0  0  0  0  0  0  0  0  0  0
    5.7336    1.1443  -21.1141 C   0  0  0  0  0  0  0  0  0  0  0  0
    6.5740    5.2232  -24.0644 C   0  0  0  0  0  0  0  0  0  0  0  0
    6.1738    2.9934  -19.4942 C   0  0  0  0  0  0  0  0  0  0  0  0
    3.9387    3.3120  -19.2318 C   0  0  0  0  0  0  0  0  0  0  0  0
    6.8639    4.1215  -17.0030 C   0  0  0  0  0  0  0  0  0  0  0  0
    5.3877    3.8086  -17.2546 C   0  0  0  0  0  0  0  0  0  0  0  0
    7.7199    2.9841  -17.5972 C   0  0  0  0  0  0  0  0  0  0  0  0
    5.4912    2.6131  -20.7702 C   0  0  1  0  0  0  0  0  0  0  0  0
    6.7254    7.4469  -24.8861 C   0  0  0  0  0  0  0  0  0  0  0  0
    5.2268   -4.2197  -18.2910 N   0  0  0  0  0  0  0  0  0  0  0  0
    3.3224   -2.8508  -17.8745 N   0  0  0  0  0  0  0  0  0  0  0  0
    5.1970    3.5982  -18.7069 N   0  0  0  0  0  0  0  0  0  0  0  0
    7.3736    2.7298  -19.0245 N   0  3  0  0  0  0  0  0  0  0  0  0
    4.0643    2.7888  -20.4278 N   0  3  0  0  0  0  0  0  0  0  0  0
    2.7416    3.5358  -18.5707 N   0  0  0  0  0  0  0  0  0  0  0  0
    6.8884    6.0289  -25.1290 O   0  0  0  0  0  0  0  0  0  0  0  0
    5.5832    7.7348  -24.1978 F   0  0  0  0  0  0  0  0  0  0  0  0
    6.6654    8.0679  -26.0894 F   0  0  0  0  0  0  0  0  0  0  0  0
    7.7966    7.9161  -24.1949 F   0  0  0  0  0  0  0  0  0  0  0  0
    6.9040   -0.9619  -23.5518 H   0  0  0  0  0  0  0  0  0  0  0  0
    6.1389   -2.6602  -21.9049 H   0  0  0  0  0  0  0  0  0  0  0  0
    6.6527    1.4603  -23.0547 H   0  0  0  0  0  0  0  0  0  0  0  0
    3.8858    3.5962  -22.7485 H   0  0  0  0  0  0  0  0  0  0  0  0
    7.9801    3.6642  -21.3733 H   0  0  0  0  0  0  0  0  0  0  0  0
    4.5000    5.0688  -24.6403 H   0  0  0  0  0  0  0  0  0  0  0  0
    8.5856    5.1525  -23.2718 H   0  0  0  0  0  0  0  0  0  0  0  0
    4.8726    0.4832  -19.2512 H   0  0  0  0  0  0  0  0  0  0  0  0
    6.5901   -3.5549  -19.7555 H   0  0  0  0  0  0  0  0  0  0  0  0
    3.1717   -1.0583  -18.9712 H   0  0  0  0  0  0  0  0  0  0  0  0
    3.7154   -4.6706  -16.9042 H   0  0  0  0  0  0  0  0  0  0  0  0
    7.1277    5.0740  -17.4859 H   0  0  0  0  0  0  0  0  0  0  0  0
    7.0471    4.1959  -15.9209 H   0  0  0  0  0  0  0  0  0  0  0  0
    5.1020    2.8986  -16.7065 H   0  0  0  0  0  0  0  0  0  0  0  0
    4.7663    4.6508  -16.9163 H   0  0  0  0  0  0  0  0  0  0  0  0
    8.7818    3.2636  -17.5312 H   0  0  0  0  0  0  0  0  0  0  0  0
    7.5459    2.0654  -17.0178 H   0  0  0  0  0  0  0  0  0  0  0  0
    8.0674    2.3512  -19.6371 H   0  0  0  0  0  0  0  0  0  0  0  0
    3.3008    2.5429  -21.0249 H   0  0  0  0  0  0  0  0  0  0  0  0
    1.8758    3.2917  -19.0076 H   0  0  0  0  0  0  0  0  0  0  0  0
    2.7434    3.9414  -17.6566 H   0  0  0  0  0  0  0  0  0  0  0  0
  1  2  1  0  0  0  0
  1  3  2  0  0  0  0
  2 12  2  0  0  0  0
  3 15  1  0  0  0  0
  4  6  2  0  0  0  0
  4 14  1  0  0  0  0
  5  7  1  0  0  0  0
  5 14  2  0  0  0  0
  6 16  1  0  0  0  0
  7 16  2  0  0  0  0
  8 12  1  0  0  0  0
  8 15  2  0  0  0  0
  9 13  1  0  0  0  0
  9 24  2  0  0  0  0
 10 13  2  0  0  0  0
 10 25  1  0  0  0  0
 11 24  1  0  0  0  0
 11 25  2  0  0  0  0
 12 13  1  0  0  0  0
 14 22  1  0  0  0  0
 15 22  1  0  0  0  0
 16 30  1  0  0  0  0
 17 22  1  0  0  0  0
 17 26  1  0  0  0  0
 17 27  2  0  0  0  0
 18 26  1  0  0  0  0
 18 28  2  0  0  0  0
 18 29  1  0  0  0  0
 19 20  1  0  0  0  0
 19 21  1  0  0  0  0
 20 26  1  0  0  0  0
 21 27  1  0  0  0  0
 22 28  1  0  0  0  0
 23 30  1  0  0  0  0
 23 31  1  0  0  0  0
 23 32  1  0  0  0  0
 23 33  1  0  0  0  0
  1 34  1  0  0  0  0
  2 35  1  0  0  0  0
  3 36  1  0  0  0  0
  4 37  1  0  0  0  0
  5 38  1  0  0  0  0
  6 39  1  0  0  0  0
  7 40  1  0  0  0  0
  8 41  1  0  0  0  0
  9 42  1  0  0  0  0
 10 43  1  0  0  0  0
 11 44  1  0  0  0  0
 19 45  1  0  0  0  0
 19 46  1  0  0  0  0
 20 47  1  0  0  0  0
 20 48  1  0  0  0  0
 21 49  1  0  0  0  0
 21 50  1  0  0  0  0
 27 51  1  0  0  0  0
 28 52  1  0  0  0  0
 29 53  1  0  0  0  0
 29 54  1  0  0  0  0
M  CHG  2  27   1  28   1
M  END
> <OMEGA_C>
+7HOQBKJJb/J9LTB6b7AQPvdzb+Pg63BtyXKQCizOT9atLLB5eGcQPeJfEDozLbBdBDnQLkVf0D6
kLDBogCoQKvDmEDvXr/BghfyQMxDmkBiLrnBtsipQBIcMD7HhaHBqJC1QN5uVsBSxZnB+uZvQLvk
+b8NSJbBsg+CQJ2IfcAKH43Br+mtQLQzmb9/yqPB9EeeQMNiC8CE9pvB0g28QOweZECQMK/BbHm3
QEl5kj+W6ajBmF7SQIIkp0Dig8DBDJDFQCSTP0Aj9JvBRxR8QJH4U0DJ2pnBNqXbQKfjg0AqBojB
OWisQHe/c0BvCYrB0gn3QAv7PkASx4zBzrevQFc8J0BqKabBrjbXQNFM7kDOFsfB7UGnQNgHh8AR
VJLBC6JUQDd0NsAA/47B3U2mQEZIZkC0p5XBkPTrQAW1LkAoMpjBHA+CQHl7MkAPbKPBqnUvQONK
YkDDkJTBxG3cQHvswEBCCMnBZqmyQJWD90AOlcHBCkvVQAcWAUEut9DBEn75QNtQ/UAmj8HBRO3c
QEFBdr8karzB93HEQH9BKsBGPa/Bs+LUQLDsuj8dcLjBh7F4QHwnZkD6/LXBx1z/QOKCakCC/KrB
+/+PQFMzokBBH8XBxl4JQUXhpECkLLrBVeybQDZi9z53AprB3OHSQK6DY8ArC57BQv1KQMJ3h7/4
xJfBSsltQL91lcC5O4fBABbkQIxeokAX44vBKILhQPlEhkAhvH7BnEOjQF2DOUDtpoXBS4WYQB/T
lEB/VIfBLYIMQTTfUEDNP4zBPnjxQCYvBEBwJIjBGRQBQZt6FkDXGJ3B2kBTQMe+IkAFM6jBfRvw
PxOrUkCoD5jBipMvQFdAfEDMQI3BcajNQID9KL/SFbXB0hDAQFPtz7+1nq3BcALJQGIkNj+D0rLB
pJOcQKuJfUD5rbbB2u7mQLHIfUApmbDBjbynQKpumUBIOb/BGALyQPS+mUArMLnBeiGpQDqsGz7P
l6HBejlvQK1H/7/SZ5bB9jK2QKPWVsCKtJnBMOCCQBn/fsCoDo3BTnGtQNq1m7983aPBkjqeQLnc
DMD/AZzBkNC7QNusY0CvJq/BxpG2QNJPkD+P/6jBKz/SQC87p0BwcsDBSHzFQAtgPECW7JvBb8J7
QCXaU0AhzpnBEiDbQJwjgUA40IfB+6ysQNOsZkDjlonBGSD5QG1wQEBBLY3Bx0ivQIsnJkD0KabB
Gd7ZQBCA7kCmusbB7cpUQPgpOcBNEo/BkkuoQMU/h8AON5LBbiymQFEdXkAvP5XBBsjsQGuXL0Av
hJjBiKaBQLcwMkC6X6PBeJ4vQANGakDZ3ZTBG1/cQGkfwUCd8sjBsB78QJjJ+kAXx8DBVxu1QOom
+UDDfMHBr6LaQKXLAUFnNNDBSbLbQHAneb+EkrzBT+LDQFc+K8DfWq/Bp37TQJlXuT+IkrjBCdd3
QPX5Z0D70rXBmEv/QEdXaEBeFqvBDaOPQM9to0DM48TBImAJQXABpEBUOLrBwFObQEsE7D5MEZrB
TC5JQFSwjr/u/ZfBerfTQNMTY8A57p3BE0ZwQMQXlsCeGIfBo1HgQOvloEAMYYvBjOHhQA+IgkAx
Xn7B07umQHP1KEDqn4XB6seWQDehi0CLVYbBtwUNQchTWUCh/4zBv5v3QOEFBEDirIjBz3EBQRYZ
GkBpo53BMyxSQJnKIkBEIKjB3+zvP80TYUAupZjBc1AwQL7TgUDphY3B8JvOQO7PJ79pIrXB8gbB
QKk10L/Ata3B16PJQAItNz8R2bLBsALnQHCEfkDphLDB6IacQCBXfkDec7bBbsTxQH5zmkDHEbnB
yGanQEIBmkDv+77B1mipQNqMDz4btqHBHC+2QI5PV8BMyZnBfDtwQHNW/b+beJbBqOeCQAWmfcDs
B43BdvmtQGC/nL/n/aPBJIOeQOgVDcD1IZzBsPG7QHwyZED2+a7BmN+2QMOnjz8EC6nBFtHRQDEB
qEAZQcDBIAHFQGoOOUBdnZvB7QB7QEnWTkDUrJnBp7TXQFg7WUBZzYXBpyisQCy6dUA5HorBQOX5
QMH8Z0BJgY7BrnevQOR4JUCSEabBTCLXQNDK7kADG8fBeCCoQC0fh8CqOpLBM6BVQOhPN8CHDI/B
mkukQIwtSEAJS5TB0WbtQDCVPkCsxZjBEp+BQHYnMEDhYaPBy7MwQMJCcEA1TJXBhOPbQBFHwUBX
38jBk1iyQGq7+EAPycHBThrWQH8NAUEz0NDByD35QNy1/UAofsHB5+LcQCeKdr+xm7zBai/FQF1L
K8Buc6/B+B7UQPRvuj+rj7jB4pv/QJuoaEChGavB0s53QE2raECZj7XB2zcJQdjopEBmH7rBUyOP
QG38o0Cnm8TBlFObQHYJ4z4VNJrBsJTTQFhXZMD9Bp7B4q1KQGU0jL/WFpjBfwhwQO0vlcBGCIfB
jcbfQMjLfkDERn3BoIHWQFTfFEBiuIPBYu6SQMq7ZUDZUITBalisQJGcnUDmhYvBwqb9QHOYlkDL
0Y/B6z0MQd/HTEAJyYvBwgYCQYeqJkBHkZ3BX5lSQBn/IUBORajBMB32P61ockD4ppnBjrkwQP8d
g0CzyI3BUGvNQE77KL/CDLXBfOW/QHHhzr8wg63B2unIQJ6nNj9W3LLBGNWcQDCnfEApBrfB1+fm
QGBWfkARvLDBpjGoQHAdmUC/h7/BlyjyQFMsmkC+RLnB922pQMQfMT58jKHBjly1QIDMVsC7w5nB
xNRwQJSK+L/l+pXBRluCQM6dfcC8+YzBNI2tQGRemb93v6PBrEqeQBE7C8Cq1JvBP9C7QNDNY0D/
Yq/BFbG2QOnqkT9LCqnBI5rSQOGop0AmkcDB5X3FQAoDP0CzKpzBnvp7QNz8UkDL3pnByM7bQB2+
gEA56IfBpMKsQOzca0D78YnB9g/4QBh5PEA1Mo3B4juvQOIrJ0CSVqbBEV3UQDz27kBgM8fBTTSn
QFREh8C8UJLBRtZVQFrhNcDisI7BYmKmQAKGY0DHoJXB+0fsQGrQLkA5n5jBsLCBQFxFM0AJi6PB
W7MvQBgnYUCPf5TBaC3dQFX6wUBP9MjB8bDXQEOdAUG8v9DBvqbxQK2b/0AhUsDBJECsQKnn9UAk
R8PB+ErbQOMne7/siLzB6ozDQL7WKsBsMq/BHFjTQCDTuD+CqrjBu494QDgxZkDRSbbB8SD/QMbx
aEC3LqvBdVuQQOCmokBsUMXBLHMJQRaNpEAnOrrBF+mbQDX2+j5TA5rB92XSQOAvZMAYJJ7BEmNM
QBQehb+WV5fBd3JuQJuclcAwHIfBLkPjQPk7oEBxXovBp/DhQApqgUCUfH7BbpWkQEU1L0Am+YXB
iUeYQJinj0DKzYbBZNsMQW/WUEC4xIzB0hH0QJ2+/z+F1IjBHDEBQSTSGEBNtp3BGThSQB88JUD/
WqjBRAPwP4XYUkCtApjB+lkwQGeueUAOHI3BTqTNQHqTKb/UNLXBcDbAQBJp0L91uK3BfgjJQJTZ
NT9u8bLB0CznQESFfUB5tLDBmZmcQKYKf0BsjbbBLhHyQFQLmkCJObnBzZynQD5zmkBpD7/B1nOp
QOKqFj5dtKHBvqK1QJG6V8DL3ZnBDHBxQNoE+r+yIZbBFACDQKQwfcB/6YzBaLetQA4bnL+E86PB
QXqeQBx4DMBkBJzBcAG8QO4kZEAkHa/BJL62QLjijz8sGqnBziDSQE8+qEDeU8DBzB7FQFuNOUBl
vpvBqwV7QGzrTUDdspnBvvzXQB3eWEBa6YXBVGysQDKUdUCzMorB1yr6QKyeZ0DRno7BNnavQDK4
JUBVLabBE6jVQCNl70CHHcfBpqinQLNch8CLTpLBz/VWQBS2NcCNtY7B5IKkQFRWSEATZJTBkort
QHa4PkAo6ZjB36WBQMeKMECQeKPBx1QwQDhHbUA7MZXBtlrcQHIGwkBl2MjBuoX3QHDu/0Bgs8HB
HPSwQNQb+EDpn8HBJgTTQKEuAUGH2NDBDIfbQDm6eb8ctrzB/A/EQFV7K8ALdK/BIG3TQPU9uT9f
s7jBhsX/QIjIZkCXV6vBG893QAfVaUA2p7XBo2wJQUwUpEDuULrBHWOPQIiqpEACq8TBfrybQPGD
6T5MK5rBRZXSQEWAZcDbQp7B58FMQHUph79DlJfBRDVwQMAKlcAc74bBQCLgQGFJfkB4e33B5LzW
QK16FECv2IPBozeTQPFxZUBcZYTBq6CsQOyOnUD5kYvBkhP+QBdrlkBD5Y/BSloMQckHTEAA7YvB
ZRACQR/eJkDgup3BhqFSQKpSI0CdZajBz8X0P2rSbkAhfpnBG10wQEMvgUCio43B6LfOQM+xJ79B
ELXBFgbBQCYV0L+gpq3B7MfJQJs/Nz/MxrLBiuXmQNdMfkCTfrDBgGycQMcWfkCQcLbBOrLxQJw4
mkBWELnBnFmnQBG8mUBy/77BooCpQOCXED7do6HBzQBxQCYA/b/sS5bBQgG2QI0NWMBB4ZnBSgOD
QAaSfsDREI3BgAOuQNqknL/x7KPBxp6eQGglDcBqEZzB6dO7QH0UZEBT867BQPi2QHq5jz8a+qjB
5sbRQMWxp0AZRcDBqdbEQL9yOUA+kpvBWb56QJ/RT0BtuZnBFRjXQBt0WEAytoXBQtGrQG0HdkDn
FYrB4J75QJPxZkChV47B52WvQDt8JUBjB6bBTgTYQHvD7kAs0sbBgmNWQAqWN8Ba7Y7Bc/WnQO6z
h8AyX5LBDgmkQKvqSEC9SpTB/zLtQMSBPkD8rZjBbYOBQHbeL0CzXaPBILkwQEvLckBRd5XB3Mrb
QOpQwUCv1MjB7L75QM5U/EBv28DBANWyQI7o+ED6tMHBMJTYQCSUAUFeZNDBCg/dQOJ+dr9nh7zB
xQ/FQN48K8DCZ6/BfFHUQLB0uj8JfLjBbHj/QM6NaECzD6vBIpF3QKaMaECzibXB1C8JQSinpEAA
HrrBAx6PQGWho0Cwo8TBLHebQNS+4z60IJrBhOVLQDvWir+zyZfB5y7TQDhDZcCnNJ7B8z5wQEzR
lcBkG4fBqCPfQEyCfUBxAn3B/33VQNIFFEAfr4PBlFeSQDRnZkDlVYTBy2isQEDHnUBrdYvBytL9
QHkRlkAulI/BifsLQU7WSkBXmIvBr/EBQTzhJkB4fJ3BB3JSQJG2IECYN6jBNqP2P8AsdUBi3ZnB
4bMwQB3UhEB0/o3BjGfMQG45Lr/lR7XBoiS/QNbG0r87yK3B8g7IQAoTMT+q+rLB0AnnQE6sfECG
lbDBnpCcQBL3fUBfhbbBUPzxQD/MmUBxE7nBYJqnQFMgmkDm+b7BVRKpQCiZAj7gqqHBSVVxQABr
/r+NCpbB/861QAb1WMDp6pnBMtyDQIA1f8Cv1ozBThutQDSmnr+/9KPBqkueQHoADsC3AJzBEuC7
QDINY0CsDq/B1jq2QKpsjT/0FanB1hHSQDElqEAJLcDBFazEQG8COEDTsJvBqqx6QCzCUEBt6JnB
zKzWQEiTVUAxxIXBVhmsQIo5dkClP4rB9NL5QBbrYEAlU47BIyivQJyBJEBqJqbBkAjUQGGX70D4
4MbB3NlXQFw0OMCEmI7BhlqoQPQXiMACVJLBzPajQCCJSUBVd5TB6P3sQHyqOUAVtZjBVlSBQLjQ
L0AygKPB+OowQACrdEC3s5XBWjbcQDxpwkCBnMjBmDKwQPdM90Az8sDBlMDOQLwYAUFNltDBllj2
QEq7AEHI7sHBcfXZQFc5fr9A07zBS8XCQIGoLMBxjK/BCU7SQGfptj/dv7jBkZL/QHrpZUB7NKvB
pM53QKJmaEB9rbXBNGMJQTTYo0BPJbrBKW+PQCJYpEBWmcTBQ6mbQOYx3z6mGJrBfg9MQMEwjL89
cpfBQJ7SQJpLZsCkY57BUeFyQMIUlsCK0IbBjyzfQFFZekCOI33Bg6/TQCBsEUD3sIPBviGSQDV9
aECfj4TBZvutQCzTnUBNoYvBv53/QJnVkkCai4/B4rILQRghQkCagIvBjq0BQe9AIEBxd53B1/FR
QKWMIEBdU6jBWgr3P4D9dkA8GprBxRMxQP0hhkAERI7BH0XPQE7jJ7/g4bTBZLnBQDKpz7/Cbq3B
+DLKQGLlNj9xorLBHYCcQLDYekA7rbbBWKDmQEqdfkBPaLDBGnunQLP0l0BvP7/BmIDxQJoYmkBw
BLnB9zGqQALiGT4zb6HBjR22QOdlWMBPyZnBjjtxQHpM/b8TSJbBNCaCQCsMgMDoR43BwsCuQJ/O
m78+taPBeAufQD77DMDH7JvBMLW7QAANY0BkC6/BGHm3QEw9kD+71KjBsrrRQHi2pkAAXcDBxIDF
QIO4PUA71ZvB2yt8QIvqVkBw9JnBcpvaQDS/fEDwS4fB8JWrQBoTaUBBqYnBWOj2QPseOEDzqIzB
DoevQCXxJUAjCabB0dXVQBb77UB94MbBBnOnQNdFiMBpcpLBjFVVQFKROMC/Fo/BpFCmQFoQY0Cp
ZJXBbiDsQDJSLUAOMpjBjOmBQOEbMUDZRaPBDZ4vQPyPbUDeIJXBY5/bQJ+xwEDq2cjBvuT3QAxc
/UABU8HBUSaxQKSx9kDLX8HBorjTQFj3AEFnfdDBx5fdQOFUd7/cV7zBSNbFQLIQK8AnJ6/BUZPU
QJn9uT8qYbjBCxt4QFXsY0AS4bXB/ff+QDtjakDa0arBkXePQP0hoUC0BcXBbQkJQbH2pECW/7nB
jFGcQD/k6T466ZnB7YvTQNhYZcAuBJ7BwahMQA1Mir/3uZfBqlxtQCX2lsCve4fBgtHiQDAenkBN
f4rBd/bfQPADfED6Mn3B84miQNwBLEB96YXBzzqXQCZQjkD+fobBF1IMQXVxS0Do9ovBMRnyQE5k
9T8siIjBKVwBQZ0yGUCXRZ3BYtBSQL94HkAh3KfBRTDwP+spYUD/ypjBX+QvQAMnhUAK+43B0ObK
QDMXMr9yMbXByBjAQDkC1L8zdK3BKJHGQGx6LD/357LBOTCjQFemYEAa8rjB4uXdQC/UjkCCiK7B
rEGuQF6kikDnpMHBuV3oQESfqUDMK7fBH56rQMAUAD79IqHBU+CYQFxbY8DRu53BNtWrQIq5+r9B
/I/BxUiVQD3Jg8D1novB8vuwQIU4oL8STKPBEhanQESLEMCy9prBwzq7QK83Y0DSVK/Bx/m1QJYe
jT+f5ajB5JrQQLCmp0BCusDBfOjGQN0yOkBx75vBJoZ/QBpGVkBxZ5nBGPLhQCeYhUAG7ojBAZGy
QOwpcECerInBHIT+QKeARUA4Go7BdHKvQELwJUBLHabBJPjEQLkj6kBGrsnBpBuQQNKzjsCwCpbB
z/eiQNAUOcAvgIjBOO+oQPq8XkA3GZXBwbzuQJCiLEDw8JjBFFSCQIkYNkCGIKPBga4zQL7DbED9
UpTBpozbQCqWwUA+NsnBnPHLQF3WAEFHrMDBPCiaQKnt40D1/MrBIALUQOkuAEFXONLBz5PWQGBQ
gb8G7bzBC1jDQG9FLcCMRK/Bye3PQLn/sz/azrjBKSaIQMzqNUBkmLnBFlbwQBx2kECtPKfBX26c
QLifiEBsB8nByVwBQSzNv0BderbBYGyfQIYq3z64cZnB+/6UQNVhdMAUDabBw5u2QENrer/okI3B
zjWOQIJXm8AXjYXBl4TmQFcXpEBJLI3B0ObqQBGHiUD0eYDBgyStQOQZNkDh4oTBZ+2dQLUAkkAv
tIbBm6gPQeVbXkCT1o7Bf5H+QHmRDEAp7YjBGH8BQQHkEECJEp7BqmJSQPoyKkBz2afBdXD3P3XX
ZEDHE5jBxRA1QLBvgkBc6ozBCEXyQPA/8L6uz63BrLfcQOGyub/I46fBmgLmQFu5YD9dBK3Bb3fn
QOgde0CJd7LBs36aQFoxhEAd3rTBUVfuQMbYlECR7bvBDVqhQMr2nED7/73B9EOvQOOfiz6bD6DB
TNC3QJ9VU8ChipfByq9vQO7j+L8bK5jBCWpwQD6KgMBQj4/BO9S6QGb1ir+WBKHBqWajQD9bB8Bg
3ZrBy2G9QE5HZ0CV/K7BodPDQOg4oz9UM6bBvGfLQMMUpUB3w8HBSnrJQOJBWUDMUJvBFOuAQMeh
U0CPn5jBsifcQPagiECvSobBwxeuQNsAj0D9Y4rBzCT8QEKBkUDkeo/BUWO1QH4vMEAa8KTBs7Cw
QK9x0UDmW9DBX/6hQHNqh8DN7pHBoeNFQDRmOcA/lZLBanSoQGStZ0BYB5TBbgTxQC0+cUC0R5nB
LSCHQD17MUBEGqLBixUyQKZwX0BB75PBXkLUQNOzvEBR7crB/FacQEh57UDxtsnBDKyUQEMOtECo
W9TB1K3AQCf150CvttjBaDIGQSAKQL+IALPBmgvmQM0rH8DblajBHMf2QMnYzz9dprHBLkYBQbEk
ZkB+yK3BAWV0QDI5e0AtRbLBiUgHQVJQmkADvL7BNU2GQC8eqkA4QcLB7z+WQNbIDT9HiprB/g7Z
QDbyXcCPfpnBimFOQHMchr+RlprB/EZOQBWjmMAsEovBdFbiQF3hnkAXTX/BIR/gQJkIT0C2eYPB
AxuXQJpmhUBxLITBuu2oQOfPsEDqeIzBm4P7QOTZs0BnZpHBxT0OQT1tiEAj2YzBfBsEQYq0YUDp
b57B3ohfQPo2G0Apz6bBvTz6P4luTUAE0pfB+KUtQHXyeUCVrIzB

> <OMEGA_E>
XAPXPhCr1z4UYtg+EMjZPkCj2z5w2ts+INbhPjjj1j6Uai8/yJwpPw==

> <OMEGA_NBR>
     26289

$$$$
50157435
  -OEChem-04172616093D

 51 54  0     1  0  0  0  0  0999 V2000
    4.8853    3.7160  -22.9407 C   0  0  0  0  0  0  0  0  0  0  0  0
    6.6603    0.8122  -22.1492 C   0  0  0  0  0  0  0  0  0  0  0  0
    5.1803    4.5242  -24.0527 C   0  0  0  0  0  0  0  0  0  0  0  0
    6.9311   -0.5449  -22.3992 C   0  0  0  0  0  0  0  0  0  0  0  0
    5.3017    0.1810  -20.2284 C   0  0  0  0  0  0  0  0  0  0  0  0
    7.0823    4.2055  -22.0047 C   0  0  0  0  0  0  0  0  0  0  0  0
    3.6579   -2.0671  -19.1394 C   0  0  0  0  0  0  0  0  0  0  0  0
    5.7907   -3.1996  -19.0006 C   0  0  0  0  0  0  0  0  0  0  0  0
    3.9464   -3.9306  -17.7642 C   0  0  0  0  0  0  0  0  0  0  0  0
    5.5776   -1.1740  -20.4660 C   0  0  0  0  0  0  0  0  0  0  0  0
    5.0032   -2.1695  -19.5483 C   0  0  0  0  0  0  0  0  0  0  0  0
    5.8219    1.1832  -21.0671 C   0  0  0  0  0  0  0  0  0  0  0  0
    5.8235    3.5781  -21.8888 C   0  0  0  0  0  0  0  0  0  0  0  0
    7.3934    4.9852  -23.1282 C   0  0  0  0  0  0  0  0  0  0  0  0
    6.4244    5.1797  -24.1418 C   0  0  0  0  0  0  0  0  0  0  0  0
    6.3947   -1.5412  -21.5618 C   0  0  0  0  0  0  0  0  0  0  0  0
    6.2643    3.0185  -19.4379 C   0  0  0  0  0  0  0  0  0  0  0  0
    4.0182    3.3447  -19.1487 C   0  0  0  0  0  0  0  0  0  0  0  0
    5.5296    2.6401  -20.7191 C   0  0  2  0  0  0  0  0  0  0  0  0
    8.7645    5.6238  -23.2072 C   0  0  0  0  0  0  0  0  0  0  0  0
    5.5274    3.8660  -17.1858 C   0  0  0  0  0  0  0  0  0  0  0  0
    6.5448    7.3787  -25.0153 C   0  0  0  0  0  0  0  0  0  0  0  0
    3.1486   -2.9517  -18.2585 N   0  0  0  0  0  0  0  0  0  0  0  0
    5.2505   -4.0633  -18.1154 N   0  0  0  0  0  0  0  0  0  0  0  0
    5.2936    3.5335  -18.5968 N   0  0  0  0  0  0  0  0  0  0  0  0
    4.1156    2.8005  -20.3385 N   0  3  0  0  0  0  0  0  0  0  0  0
    2.8163    3.6696  -18.5392 N   0  0  0  0  0  0  0  0  0  0  0  0
    7.4406    2.8110  -19.1569 O   0  0  0  0  0  0  0  0  0  0  0  0
    6.6954    5.9595  -25.2445 O   0  0  0  0  0  0  0  0  0  0  0  0
    6.6475   -2.8415  -21.8394 F   0  0  0  0  0  0  0  0  0  0  0  0
    3.9390    3.1981  -22.8885 H   0  0  0  0  0  0  0  0  0  0  0  0
    7.0916    1.5734  -22.7824 H   0  0  0  0  0  0  0  0  0  0  0  0
    4.4514    4.6428  -24.8408 H   0  0  0  0  0  0  0  0  0  0  0  0
    7.5531   -0.8239  -23.2369 H   0  0  0  0  0  0  0  0  0  0  0  0
    4.6808    0.4585  -19.3893 H   0  0  0  0  0  0  0  0  0  0  0  0
    7.8140    4.0840  -21.2197 H   0  0  0  0  0  0  0  0  0  0  0  0
    3.0337   -1.2783  -19.5326 H   0  0  0  0  0  0  0  0  0  0  0  0
    6.8268   -3.2988  -19.2886 H   0  0  0  0  0  0  0  0  0  0  0  0
    3.5260   -4.6345  -17.0613 H   0  0  0  0  0  0  0  0  0  0  0  0
    9.4587    4.9410  -23.7189 H   0  0  0  0  0  0  0  0  0  0  0  0
    8.6976    6.5672  -23.7689 H   0  0  0  0  0  0  0  0  0  0  0  0
    9.1330    5.8275  -22.1910 H   0  0  0  0  0  0  0  0  0  0  0  0
    4.5997    4.2564  -16.7419 H   0  0  0  0  0  0  0  0  0  0  0  0
    5.8412    2.9620  -16.6432 H   0  0  0  0  0  0  0  0  0  0  0  0
    6.3168    4.6288  -17.1149 H   0  0  0  0  0  0  0  0  0  0  0  0
    6.7784    7.9268  -25.9400 H   0  0  0  0  0  0  0  0  0  0  0  0
    5.5090    7.5934  -24.7137 H   0  0  0  0  0  0  0  0  0  0  0  0
    7.2324    7.6961  -24.2174 H   0  0  0  0  0  0  0  0  0  0  0  0
    3.3384    2.5321  -20.9076 H   0  0  0  0  0  0  0  0  0  0  0  0
    1.9524    3.4905  -19.0101 H   0  0  0  0  0  0  0  0  0  0  0  0
    2.8131    4.0832  -17.6287 H   0  0  0  0  0  0  0  0  0  0  0  0
  1  3  2  0  0  0  0
  1 13  1  0  0  0  0
  2  4  2  0  0  0  0
  2 12  1  0  0  0  0
  3 15  1  0  0  0  0
  4 16  1  0  0  0  0
  5 10  1  0  0  0  0
  5 12  2  0  0  0  0
  6 13  2  0  0  0  0
  6 14  1  0  0  0  0
  7 11  1  0  0  0  0
  7 23  2  0  0  0  0
  8 11  2  0  0  0  0
  8 24  1  0  0  0  0
  9 23  1  0  0  0  0
  9 24  2  0  0  0  0
 10 11  1  0  0  0  0
 10 16  2  0  0  0  0
 12 19  1  0  0  0  0
 13 19  1  0  0  0  0
 14 15  2  0  0  0  0
 14 20  1  0  0  0  0
 15 29  1  0  0  0  0
 16 30  1  0  0  0  0
 17 19  1  0  0  0  0
 17 25  1  0  0  0  0
 17 28  2  0  0  0  0
 18 25  1  0  0  0  0
 18 26  2  0  0  0  0
 18 27  1  0  0  0  0
 19 26  1  0  0  0  0
 21 25  1  0  0  0  0
 22 29  1  0  0  0  0
  1 31  1  0  0  0  0
  2 32  1  0  0  0  0
  3 33  1  0  0  0  0
  4 34  1  0  0  0  0
  5 35  1  0  0  0  0
  6 36  1  0  0  0  0
  7 37  1  0  0  0  0
  8 38  1  0  0  0  0
  9 39  1  0  0  0  0
 20 40  1  0  0  0  0
 20 41  1  0  0  0  0
 20 42  1  0  0  0  0
 21 43  1  0  0  0  0
 21 44  1  0  0  0  0
 21 45  1  0  0  0  0
 22 46  1  0  0  0  0
 22 47  1  0  0  0  0
 22 48  1  0  0  0  0
 26 49  1  0  0  0  0
 27 50  1  0  0  0  0
 27 51  1  0  0  0  0
M  CHG  1  26   1
M  END
> <OMEGA_C>
NVScQKLSbUCchrfBDiHVQHrrTz+MMbHBNcWlQOrFkED5a8DBn8vdQFp/C7+SMbPBMqepQPZbOT60
06HBB6LiQJuThkCkCbDBOhpqQAZMBMBlHZnBIU25QPTGTMAlAZjBOpF8QLGOe8AkHY7BnXuyQFJE
lr9cuqPBJRqgQBvZCsD/YpzBAU26QL1zlz9siajBNlq6QEz/ZEBMHK/B35bsQKWGn0CMBrnBvpTN
QHvApUBxIsHBO6HMQBJHxb+jfqzBGXXIQHkuQUDKgJvBQpWAQFUPVkB3MJnBWfKwQEP3KECtwKXB
NzsMQUL2s0BOqLnBSuCwQBptd0BufInBW2/RQB8e7EBXH8jB74JJQP7nPMBWEZLBEgSoQMoGgsBM
7JDBamWpQDEkYkA+xpTBKrODQP47M0A9taLBrj00QATbakBNUJTBGRnuQBPoM0BuQZnBFEHWQGe0
vkDN9MnBNrjUQITbNcABt67ByRh8QOqsTECUG7fBFe7iQHpkyT9pQrbBEHKOQOORlEDoucbBu7Lx
QO7nUr8z5bnBbsmVQCLD6j5eHZvB+Qv6QNGvgkDpwanB0ShCQDego7/QQpzBUHXaQM4fU8D7TprB
Y6lhQN9NlMB5fYjBo1YXQZocnkBMwL3BNikLQa4m0kCoJr7B8CASQYR6ukAeh7HBWDCTQB00iECD
74XB5eq6QCKSPUBWJYXBRiPKQPQelEA964jB0ejYQF2o/UAMhc/B5kmwQL388kCVtcXBcW/nQEpG
9kBRvcHBfahVQLMOIkDRQqfBHen5PwJkX0CWFJjBDwk0QC2pgkCiB43Bs7XkQH1RhUByDbDBlHHN
QIwxTT8XUbLB4NzuQB0ln0BI5rjB/rvUQKIJD7/of7TB7vKmQJYqPT5hGKLBPtWcQG+adUA4KLfB
MTpqQDe1A8BVJJjBePy4QKLjTcBawpjBrbqBQBlcfMCqlI3BCJmuQDhmlr+ZKqTB7aueQIHmCsD4
cJzBj3O2QDKhlz9pB6nBHyO7QK4vZ0AG/K7BzBunQL4AlEDbFcDBsA7QQFACp0C64MDBIs/FQM4+
xr+4a63BBPXGQPFoPUA+hJvBPxh+QLaWUkBLJpnB4KOvQOx6KUCD6aXB4JSFQPCwmkA4qcjBdOKv
QLd2ekDI0onBx4POQCRy60BJ/sjBO3FOQJ2yPMBV0ZDBySKqQAnCgsDxYZHB1lGnQOWVUkDVOpTB
61GCQPb/NUCD+aLBurcxQAu8akC5X5TBWyrtQEfONECIj5nBCSTbQIgav0ClrMnBxTzNQBpsNsAn
vK/Bt638QKPdfUBMCarB82HZQNU6xz/4ubfBwzMHQXABrUBslLnBSN/lQBRmWL/IpLvB3emUQE+x
7z4cFZvBCLZ6QDuCWUBfiLbBRLRAQOzhoL8iuJrBXhbZQP6+VMDM15vBcF9sQMzWlMDZuofB3NZk
QI0yt0CTvMbBGGOVQHQ8n0AEcdDBuiJhQD78fEBzCsnBB4SRQOhbgkD9j4XBiZ7EQORAUEBEDoXB
RvS/QCUqnEAiDIvBUoTYQONT/ECUTNDBnYirQC1/7UCHKMjBJ93dQIRQ+kAnAMLBvAtTQGNIKkCC
0KfBSM31P4bcZkB2eZjBknQxQJsCgEBV1IzBDdSbQMembkBxUbfBZknVQGGTUj9wGbHBMGilQObH
kECGSMDBNrzdQFdtCL9TNbPBOtqpQH2VNz5iw6HBhr3iQCbAhUC9EbDBnsG4QB7zTsATa5jBvphq
QCssA8A+7JjBppp8QDMwfMBdN47BqWOyQPdclr/cx6PBZ+yfQJU6C8C7fZzBqoG6QLf1lz8paqjB
pB26QCoiZUC0967Bed7sQAsfnkDzH7nBUZvNQGjvpEBBJMHBoV7MQDx5xL+0mazB6z3IQO1DQUBt
S5vBnziAQKYeU0Bj9pjBEOCwQGIPKUBimKXBRLQMQanxsECE77nBFHSwQID2e0AZhonBEB7UQO0f
60BwI8jBYZKnQMkug8CyV5HB6zRKQHjkO8A+4JHBS2eoQDSfVEBx/5PBOYKDQMYzMkBelKLBqB40
QOfbbUCJaJTBb5XuQLxqO0ARUpnBdFbWQNKGvUD0BcrB6xfUQFVSNcCO+K7BYoR6QCeuTkAMzLbB
1DfjQBI/yz9ZGrbBWeKNQELllEBsh8bBY6HxQMRtTr8E7bnBnDGWQA1S5z74/5rBY1n6QJmWgUCM
2KnBHpLZQD+OVsAN9ZrB2ilDQFfenr/O15vBcuphQE+blMC7kojBfk4XQZoumkClDb7Bsg8MQckM
z0Dte77BBOwSQeBIt0Bs27HB+u+RQIxUgkBJRoXB9YnFQHEqUkCuy4TBuO2/QANGnUDwporBDXjb
QNJV/EByl8/B/LezQE2q80DjcMXB7njrQH8R9EAa8sHB+YFVQJ+oIUBHNafB2tf6P+aUaEBXgpjB
dr8zQAY3g0CFBY3BXPzkQHMuhUBiJrDBc5/NQOVFTj97PrLBcQTvQL+8nkDXDrnBT33UQGoGDr+z
eLTBRlKnQDcwSD6B+aHBMQqdQCLGdEAhMbfBFda4QPibTcB5w5jBBgVqQOFFA8AnGZjBw36BQKSn
fMBYp43B5IyuQOY/lb+MGaTBKpGeQMZjCsCAZZzBTu+2QJasmD+46qjBbGu7QG0PZ0CiBq/B+R+n
QHhek0B2KcDBngrQQOh4pkC7AsHBmm/FQKd4xb+PZq3BukTHQOXwP0DvipvB5MF+QJ01VUCzOpnB
pwuwQLkmKkCd4aXB4B2FQKUlmkAHnsjBTMKvQJImeEBMm4nBVz7MQPe16kBwM8nBCPOpQC/HgsCn
bpHBwBNOQA66PMCn1pDBOzGoQHAxYUDC05TBYLqCQKO3NkAj9qLBHI4xQPS0ZkDKNZTBUw/tQKjq
M0BEXpnBztbaQJ/rvkD8xMnBOnjMQD4WNsD0w6/BowX9QGvufUCyI6rBZKnZQKKWxz8Mp7fBnkoH
QZZ8rEBrzrnBlmblQMvaV7/+pLvBx46VQOVq9j697JrBQUF7QHlyWEAih7bBI/DYQHliVMCJ2ZvB
1qJAQPlyn79Qn5rBqLtrQEEzlcCi3YfBgz9kQMGvtkDDnsbB4HuUQCeunkDvc9DB2Q1gQJj7e0AT
7cjBtgGSQGx+iEAOE4bBqy+6QJgcP0DlJ4XBT8XIQF/IlEB9LInBkiTWQJvr+0C1d9DBUSSpQJRB
60DPjsjBTFLaQKtQ+kA9JMLBGeRTQH68KUBewafBAs30P8QUXEBwC5jBaQsxQOLyfUCuwYzB

> <OMEGA_E>
EOrYPcAG2T0g09s9AC3hPQ==

> <OMEGA_NBR>
     30027

$$$$
50156604
  -OEChem-04172616093D

 52 56  0     1  0  0  0  0  0999 V2000
    6.6652   -0.5866  -22.5394 C   0  0  0  0  0  0  0  0  0  0  0  0
    5.2252   -4.2128  -18.2772 C   0  0  0  0  0  0  0  0  0  0  0  0
    6.1805   -1.5629  -21.6537 C   0  0  0  0  0  0  0  0  0  0  0  0
    5.7643   -3.2749  -19.1677 C   0  0  0  0  0  0  0  0  0  0  0  0
    6.4968    0.7781  -22.2433 C   0  0  0  0  0  0  0  0  0  0  0  0
    4.8903    3.8303  -22.8752 C   0  0  0  0  0  0  0  0  0  0  0  0
    7.1946    4.0392  -22.0779 C   0  0  0  0  0  0  0  0  0  0  0  0
    5.2046    4.6261  -23.9831 C   0  0  0  0  0  0  0  0  0  0  0  0
    7.5067    4.8337  -23.1924 C   0  0  0  0  0  0  0  0  0  0  0  0
    5.3843    0.1922  -20.1574 C   0  0  0  0  0  0  0  0  0  0  0  0
    3.9078   -4.0393  -17.8070 C   0  0  0  0  0  0  0  0  0  0  0  0
    5.5240   -1.1717  -20.4681 C   0  0  0  0  0  0  0  0  0  0  0  0
    4.9721   -2.1799  -19.5556 C   0  0  0  0  0  0  0  0  0  0  0  0
    5.8726    3.5614  -21.8946 C   0  0  0  0  0  0  0  0  0  0  0  0
    5.8435    1.1808  -21.0456 C   0  0  0  0  0  0  0  0  0  0  0  0
    6.5034    5.1448  -24.1321 C   0  0  0  0  0  0  0  0  0  0  0  0
    3.6474   -2.0696  -19.0552 C   0  0  0  0  0  0  0  0  0  0  0  0
    6.2100    3.1715  -19.4857 C   0  0  0  0  0  0  0  0  0  0  0  0
    3.9817    3.3646  -19.1738 C   0  0  0  0  0  0  0  0  0  0  0  0
    5.6181    3.5449  -17.2925 C   0  0  0  0  0  0  0  0  0  0  0  0
    7.0807    3.1899  -17.4240 C   0  0  0  0  0  0  0  0  0  0  0  0
    5.5447    2.6507  -20.7224 C   0  0  1  0  0  0  0  0  0  0  0  0
    6.6787    7.3834  -24.8946 C   0  0  0  0  0  0  0  0  0  0  0  0
    3.1462   -2.9904  -18.1993 N   0  0  0  0  0  0  0  0  0  0  0  0
    5.2319    3.7531  -18.6922 N   0  0  0  0  0  0  0  0  0  0  0  0
    7.1564    2.5997  -18.7736 N   0  3  0  0  0  0  0  0  0  0  0  0
    4.1116    2.7980  -20.3562 N   0  3  0  0  0  0  0  0  0  0  0  0
    2.7936    3.5370  -18.4819 N   0  0  0  0  0  0  0  0  0  0  0  0
    6.7718    5.9690  -25.1962 O   0  0  0  0  0  0  0  0  0  0  0  0
    2.8336   -1.0675  -19.4703 F   0  0  0  0  0  0  0  0  0  0  0  0
    7.7607    7.7821  -24.1742 F   0  0  0  0  0  0  0  0  0  0  0  0
    5.5406    7.6806  -24.2041 F   0  0  0  0  0  0  0  0  0  0  0  0
    6.6560    8.0625  -26.0671 F   0  0  0  0  0  0  0  0  0  0  0  0
    7.1676   -0.8837  -23.4481 H   0  0  0  0  0  0  0  0  0  0  0  0
    5.8127   -5.0597  -17.9547 H   0  0  0  0  0  0  0  0  0  0  0  0
    6.3100   -2.6110  -21.8800 H   0  0  0  0  0  0  0  0  0  0  0  0
    6.7683   -3.3908  -19.5485 H   0  0  0  0  0  0  0  0  0  0  0  0
    6.8661    1.5254  -22.9300 H   0  0  0  0  0  0  0  0  0  0  0  0
    3.8964    3.4214  -22.7694 H   0  0  0  0  0  0  0  0  0  0  0  0
    7.9623    3.7919  -21.3596 H   0  0  0  0  0  0  0  0  0  0  0  0
    4.4491    4.8419  -24.7241 H   0  0  0  0  0  0  0  0  0  0  0  0
    8.5116    5.2050  -23.3291 H   0  0  0  0  0  0  0  0  0  0  0  0
    4.9195    0.4837  -19.2271 H   0  0  0  0  0  0  0  0  0  0  0  0
    3.4956   -4.7606  -17.1168 H   0  0  0  0  0  0  0  0  0  0  0  0
    5.0460    2.7230  -16.8372 H   0  0  0  0  0  0  0  0  0  0  0  0
    5.4802    4.4605  -16.6987 H   0  0  0  0  0  0  0  0  0  0  0  0
    7.7139    4.0862  -17.3480 H   0  0  0  0  0  0  0  0  0  0  0  0
    7.3819    2.4620  -16.6563 H   0  0  0  0  0  0  0  0  0  0  0  0
    7.8009    1.9018  -19.0859 H   0  0  0  0  0  0  0  0  0  0  0  0
    3.3473    2.5058  -20.9311 H   0  0  0  0  0  0  0  0  0  0  0  0
    1.9331    3.2175  -18.8786 H   0  0  0  0  0  0  0  0  0  0  0  0
    2.7968    3.9810  -17.5858 H   0  0  0  0  0  0  0  0  0  0  0  0
  1  3  1  0  0  0  0
  1  5  2  0  0  0  0
  2  4  2  0  0  0  0
  2 11  1  0  0  0  0
  3 12  2  0  0  0  0
  4 13  1  0  0  0  0
  5 15  1  0  0  0  0
  6  8  2  0  0  0  0
  6 14  1  0  0  0  0
  7  9  1  0  0  0  0
  7 14  2  0  0  0  0
  8 16  1  0  0  0  0
  9 16  2  0  0  0  0
 10 12  1  0  0  0  0
 10 15  2  0  0  0  0
 11 24  2  0  0  0  0
 12 13  1  0  0  0  0
 13 17  2  0  0  0  0
 14 22  1  0  0  0  0
 15 22  1  0  0  0  0
 16 29  1  0  0  0  0
 17 24  1  0  0  0  0
 17 30  1  0  0  0  0
 18 22  1  0  0  0  0
 18 25  1  0  0  0  0
 18 26  2  0  0  0  0
 19 25  1  0  0  0  0
 19 27  2  0  0  0  0
 19 28  1  0  0  0  0
 20 21  1  0  0  0  0
 20 25  1  0  0  0  0
 21 26  1  0  0  0  0
 22 27  1  0  0  0  0
 23 29  1  0  0  0  0
 23 31  1  0  0  0  0
 23 32  1  0  0  0  0
 23 33  1  0  0  0  0
  1 34  1  0  0  0  0
  2 35  1  0  0  0  0
  3 36  1  0  0  0  0
  4 37  1  0  0  0  0
  5 38  1  0  0  0  0
  6 39  1  0  0  0  0
  7 40  1  0  0  0  0
  8 41  1  0  0  0  0
  9 42  1  0  0  0  0
 10 43  1  0  0  0  0
 11 44  1  0  0  0  0
 20 45  1  0  0  0  0
 20 46  1  0  0  0  0
 21 47  1  0  0  0  0
 21 48  1  0  0  0  0
 26 49  1  0  0  0  0
 27 50  1  0  0  0  0
 28 51  1  0  0  0  0
 28 52  1  0  0  0  0
M  CHG  2  26   1  27   1
M  END
> <OMEGA_C>
uknVQGMoFr+iULTBfDSnQKnPhsDHN5LBR8bFQGYOyL/cOq3BYHW4QIKYUcBhV5nByuXPQJ40Rz84
8rHBnH2cQBYkdUBkALfBajrmQGFBgUCUn7DB9oumQKkIlEBR3b/BsDbwQIKtmkD1ibnB8EusQJjX
RD5cQqHByhl6QFBCgcCqdI7BuMSwQNL5lb+mvqPBohufQFKDC8DLcZzBQuy7QFTtY0AtKK/BtP26
QEgllz9iXajBLBzQQACipEB6DsHBkG9pQIR0BMAfcZjBULjGQKD5SkDB4pvBQtR+QORVV0DbY5nB
u8ezQMDfYkD5VorBUpXiQKYnTEBrZIvBVm6xQKCkKUB4x6XB6rfVQLxE7EAtKMfBAFtJQO5iP8BD
mJHBgmunQA4ycECYiZXBkAHlQB5iJkBjMJbB4JGDQBISM0CO2aLBKMsyQLxeYkDb2pPBgrLYQLYB
v0C5kcnBWlk1QJ6jiL8qw5vBllf4QLcG+UCyZMHBs0yxQNXH9UAZosHBIv7UQDQAAUGFidDBuVzl
QHY8Yr+tlbvBogG6QAzpocAxo4/BauvJQIEaJ8BLCq/BBZbYQB8CWcA7Y5zBvrbbQJ5Bwz+mcLfB
Il55QOL3WkCnJ7bB5cr+QB+uckCC4KrBCV+OQMDwmkDbysXBVS8IQbOPpkAUorrBmWydQKmh9z4Z
0ZnBt7hfQHtWmMAm74jBLnmhQBhGLkCssobB9V2vQMO8jkDiloXBOtj2QB/CgkCcyIrBgjjsQCKR
HUAdQIXBRqH5QMBu8z/6r5jB/jlWQF9eIEDwcqfB5m/3Pz3sTUBWB5fBWf4yQO3HfkC5r4zBpJfT
QLJ3Fr+Hs7TB7LqmQKiah8A1rJLB1k/EQFtpyL+cmK3BaoO3QGCWU8D06pnBRKnOQC7HRj+vQLLB
jaWcQKoydkC3/LbBanTmQB4EgUDbmLDBEd6mQKzSlEBVx7/B6pvwQDq6mkCbcrnB0j2sQAxNPz7L
bKHBtOt6QPQPgcAxbo7BDxCwQIaWlr+1/6PBxKSeQDbRC8AappzB+ga8QHT4Y0ATLK/Bj5q6QOab
lj8djajB9onQQB8opUC87sDBxi1qQGbYAsAFK5jBYI3GQHIJSkAC9JvBHnx+QCzsVUAjbZnBVrGz
QCYoXkB0WorBnMziQEhgSkBjgIvB8kixQHJGKUDK36XBTPHUQHqa7ECYN8fBQPVKQCZ7PcD6OJHB
Zz+nQMTVbUCdfZXBsojlQA5uJkAbZZbBemeDQIzlMkCX9aLB9WwyQPjSYEAM5pPBcmHZQPJZv0BV
c8nBYLo2QBHWgb/GEpvBj7evQNah9UCQ+sHBxMnUQLnQAEFIstDBEKH2QPiA+kBVR8HBCyLjQPUp
Yr8IDLzB2zi5QBNNo8ALXZDB2A3IQFBBJ8Cdea/BRu7WQNOQXMCUVp3B2C3aQAM2wz9MxrfBOoJ5
QERiXECNK7bBEvb+QDBdcUBQ36rBI7yOQOolnECgr8XB6moIQT11pkAUhLrBAB2eQAAC9D5r45nB
OUphQJH8l8B90IjBWh6iQPuUJ0CW8obBe3OuQDySi0DlWoXB4zn2QMVlgkBsxorBnjrtQDlvG0Di
e4XBXMT6QC/m9j9jCJnBBuVVQKcjIUDUnafBj4f2P/tETUDmIpfBoq0yQKw/fECfq4zBtoTUQA+x
E78iD7XBWjCpQDzGg8AQt5HBYnTFQEo2yb9/BK7Bovy4QPCfT8DUi5nB7jvOQKGBST+fqrLBvKvm
QJjSgUBibrDBA6mcQLVAekB+k7bBeoLwQN4qnECxNrnBBrKmQKTWlkByZb/BrnCqQCDOHz6uJqLB
BQx/QClGe8Dyq43BKKqvQLhJmb/ImaTBMrmeQBkxDMASC53BAiy8QH94ZkCCza7BQ+G4QIzYlD/s
GanBYF7QQG7wpkDSpMDBbsBpQDmpA8D/rZjBJjvFQDriNkCcBpvBOqZ8QJ7YR0BxApnBxEayQCke
a0BpVIrBXILgQHk2fkBq8YzBzuiwQDVcJ0AV0qXBXK3UQOty7UDrr8fBzHxMQJXGOsBJLpHBhmWk
QOfAN0BvipPBlnnjQF29bUBrg5jBusCCQBtXMEDdDqPB/IUzQHziakDKg5TBnJPZQGLjv0D5Y8nB
0k40QHriib/XGZzBqK7VQLJsAEGIYtHB9IH1QK6I/ECGocHBNsWuQG8h90BP28LBYvDkQGE3XL/e
ULzBzsG8QOvGncCDzo7BIJLKQKprJ8DG0q/BaK3YQDowWMCf0pzB7anZQJHjxT8SHLjBUZX/QJhM
cUA75qrBZDZ5QBlqYUBor7XBzVQIQYAgqEDhQrrB5WGOQJJNnkAJP8XBZfaaQNIs3j60wJrBkPZm
QJExk8BkoIfB/46vQMqLRkBQ14LB7XmfQCs0k0DRrYnBvFroQJyioEAdHovBEhP2QI6sU0C0dYjB
iq/4QN7Qg0DIjZ3BGBZVQE73JUBSIKjBt+v+P3I3dEDWBJnBKtMyQG3VekCHxIzBqHHSQLGCFr+f
YrXBGoGpQOFlhMBI6ZHBmhHEQFx7yr9pPq7BxPK4QFuwUMDhw5nBLoPMQN21Rj+z8rLBzPfmQAcv
gUCkZbDBpAedQGyUeUBenLbBDADxQCKQm0D6K7nBqjinQPeNlkCYZb/B9nOqQDTNFj4LM6LBHj6A
QOn0e8ChpI3BYEKvQLpWmr8KsaTBd72eQN2JDMCQD53BWl+8QNWuZUBfza7BaEu4QMx4kz/aOqnB
VOXQQLvIpkDTksDBcaVqQA5cA8BWdpjBbM3EQKp6NEDgCpvBviF8QBCVSEAcG5nBQZ6yQHXibkA7
t4rB2EriQMBdckCrq4zB1rewQDSAJkDN4KXBJM/PQKZn7UCHs8fB9Q5OQNarOsBe8pDBuv6jQHDo
OEAalpPB/KjlQAgfZEDmS5jBy4qCQCZVMEA0IqPBJUkzQM4+bECBoJTBOCHaQHuHwEAuLsnBGzQ1
QHL0h78gsZvBRICoQJJm80DSNMPBXunPQMw5AEH5cdHBPgLuQPkTAEHCcMHBrQ7iQFJJX78HwLzB
+Am9QKWwnsDGJ4/B8PXIQM8TKMBXE7DBFlPYQNqnWcCmNZ3BYlfXQMtzxD9YeLjBZMn/QG6nb0Cs
26rBoux5QHe0YECTxLXBV6IIQQMxp0ASO7rBRQqPQHD8nUCRSMXBxcWbQO0w2j7cs5rBLO1oQHaj
k8C6lofBTkarQDSBUUCq7oLBszWkQJ2Fl0AHGYvBtXPvQC+SmEDfbIrBrPzyQBvMP0D4MIjBXYX8
QPhlekASJ53B0KxUQEj0JUADNKjBrWj+P7CYdUCMIJnBwckyQJiifEDd5IzB11jTQKpVEL9mR7XB
GTepQBE3hMDm+pHBN+HEQGwByL+kMa7BtB+5QIgXUMC+v5nBpUXNQGxyTD9ozLLBEc/mQNG8gUBu
T7DBHLKcQDWQekAoZbbBnbLwQD6Vm0ABM7nBfr2mQNCGlkCwSb/BfDCrQBNtIj4UFaLB2Fl/QK/I
e8AB343BNPqvQB+amL9dpKTB1RafQGHkC8B5G53B7j+8QGPTZkA2oa7Bqu24QO19lT8mFKnBx3rQ
QDpIpkCpoMDBVc1qQJ7aAsCAqpjBz+fEQCGTNUAg35rBOiR8QOnrSEA+9pjBo4KyQA37cUABsIrB
mz/iQFkcdEAuiYzB1OiwQNVQJ0DntKXBa13TQKae7ED+2cfBpUhNQABxOsAGPpHB0hCkQNB1OkBo
bJPBH9jlQIMNZUBUJJjBMKyCQCgGMEDY9aLB4gQzQLZgbEC5hpTBhX7ZQFUWv0Boa8nBaNo1QJh7
hr8p9JvBYHL0QNrM/EAfEsLBrsGtQIis9UCFzMLBLr7SQMyb/0BsmtHBrCPjQInGV7/3obzB8Zm8
QHuFnsDuKo/BZcXJQKHDJsBqEbDBfbTYQGDsWMB3FJ3BPBbYQH/Oxz/nSbjBfLT/QICRcUBewKrB
dht5QMJaYkBCb7XBZ3cIQWczp0B5U7rBjV6OQHTonUAcIcXBhpucQIw63T6Pj5rBABBnQBKok8C5
4ofBrbOqQD5aVkAa1YLB+mukQIEmmUBvUIvBO7/vQFNWmUDzUorBTXfyQIJjQUCN+YfBXt38QE2+
ekAO/pzBrgtVQEONJEBmAqjBT8j9PxcKdUAgCpnBJV8yQGhOfUDGz4zBHQ7RQMKgEr8TprXB+tap
QFt8hMBKKZLBGL7CQEI2yb9+i67BSLy4QCAIUcBUGZrB6KvLQLwxSj/pE7PBoL+cQAqJe0CfbbbB
rOvmQHUUgUCdWLDB3hunQI1Dl0ANQr/B1CPxQJsam0D8K7nB+WSqQMpnGD5kQqLBQv6AQM6ze8BP
q43B1p+uQLLkmb9n4qTBrG6eQLyWDMA2P53BxDK8QDV+ZkAssK7BSRi4QFZLlD+4QqnBZg/RQH6a
pkA/jcDB+9hqQFsPA8AccJjBl7TEQOZDNEC4+prBPdN7QGreSEDFD5nBRMKyQC52c0D284rBGpfi
QPxbckAdqozBzpiwQDq0JkDI0aXBrtbSQHA27UBCo8fBH0dPQFQ8OsAT2ZDBIfejQLzMOkAdiJPB
3GfmQASKYUBmO5jBnG2CQNfuL0CfD6PBDaAyQGD6a0CFnJTBtoLaQF7lv0BaOsnB/kA1QGinhr/m
g5vBqtzSQAE7AEG+W9HBDKzyQEk5/kB3k8HBIWusQB0T9UA22sLB3TLgQKgSWr9XFr3Bu3m9QGDg
nsDigo/B6ifHQNxfJ8DrfLDBRcXXQKBYWsC6t53BYG7WQEW4xj9wkrjBsfF4QGb4Y0Drf7XBj7X/
QDczb0DXz6rBWNeOQCIpn0CPFcXBAcYIQYdApkCCSbrBREicQEok2D6ArprBkE9rQINqk8CWiofB
3i2qQFchWkAKB4PBSaWlQI0ymkC62ovBvPnwQB0qmEDkiorB/83xQGJBP0DX9IfBBA3+QFbWdEB1
DZ3B0HVUQCW9JED5GqjBI7r8PwtPdEA3HJnBEAoyQKv+fEBU5ozBBDjQQEPwFL8Jm7TBfzxRQNwE
P8DU1o/BSRzBQJb4x78Xha3BcNdrQNPbAsAodJfB0ObLQMuBRz+DB7LBfhKcQFeMdkB03bbBUqPl
QF8ygEC4P7DBsGSnQOkQlEBpv7/BHNTwQJgemUCCJ7nBTF+pQBxwPD7fNqHBC1qEQMtEgcCDDo3B
gfqtQIgEl7+cwqPBaKeeQAogDMDbIpzBtNq6QPP8Y0D86q7BNuu3QBjJlj9WT6jB4H7RQDN/o0Cf
0cDBBvq4QLOYUcAL/ZjB2P/EQLGESkClxJvBQ0B8QHkhXUAbZZnBZt6yQIouakCRZYrBZjvhQNuT
T0CSXovB7lWvQBfFKUB3nqXBeIHUQGPS6UBJ8sfBuIWrQAZqhcCwlZHBEo2mQMRbdECKpZXBvJ3i
QJlhJUDk65XBPaWBQMSINUBsq6LBI64wQH2nbEAK75PBnLTbQI9vvEAaesnB5jLhQJV/WcC26pzB
aub0QD7i+kDpE8LB1HuuQPUs8kBIAsPBYvHTQBKF/EDUudHBHCrfQCiKX7/1CbzBw/gSQK21OcCb
JYzBIR7EQKHvJsAciK/BsaNCQPypnL9msZnBHtzXQC7Qwz/jebfBjaZ3QIl7XkC4FbbBSaP9QB6e
b0B1ZarBe8uPQBJfm0A5ysXB86YIQbxIpED3H7rBkYyaQP+u8D6iwJnBAUV0QPBomMB2K4fBJquf
QA5dOEDJcYbBNqivQAFdk0CL+oXBBo/2QGPHg0BsJovBdy/qQHnQIkDz9ITBYir2QMwM7D98LJjB
J81RQCAMIkB7HqfB08/xP68tWUC8ApfBSecxQPqqhUAl6ozBv5vPQFuXEb9MqrTBsWJRQFmfOsDn
fo/BvJLAQD6fxb+nha3BPgZsQNR3/r8RNJfBC5/LQBtXSz/hHbLBQVGcQM5AeEDGALfBB/LlQDul
gEC7arDB87KnQOf4lECy4L/BtzrxQBd4mUDpVLnBTcipQCOdWD4yMKHBH+6DQKwzf8CZ0YzBcNyt
QOrPk7/5uaPBHFCeQOYqCsA8EZzBLBq7QNtEZUCaEq/BVDW4QIaymT9/WKjBf+fRQAIXpECQ+sDB
Vhq4QBDDUMDPB5nB/e3EQFl0TUCb6pvBxjZ8QMT0WkBfV5nBO4azQPh4ckBLpYrBu8HhQFyhVkBC
novB3oSvQH1nK0BkvaXBF8vWQPxA6kDYKcjBhp2qQEWlhMCOi5HBFCumQBgxd0B045XBCa/iQMCf
KUAh/pXBsL+BQDKxNkCn0qLBMVkxQH/AYkCOepPBwVXcQMqmvEApscnBMP3fQMtEWsCHHJ3BcHSw
QNLg80BOisPBHErYQLcQ/UCG7NHBrQD3QAwQ+kB7A8LBHT/eQJKeXb9jH7zBrdcTQBfqM8Aup4vB
pFDDQOzWJcBVhK/BsH5DQNcHlL/QYJnB2WbXQEkrxT84oLfBSwx4QAByYEAkOLbBS+z9QB1ecEC1
kKrBmg+QQJuNnECU48XBCeQIQbtgpEDmUrrB3XObQJ/QAD8erpnB9nFzQCZslsB02obBEX6gQC0V
Q0C5NIbBEuewQD+YmEDEs4bBP1r3QHcch0Cdq4vBkrTqQCFnK0DqCoXBhA72QNER8z+sF5jB3ylS
QK0rJUCmbKfBqc/0Py+yS0AXZpbB1UMyQANvf0D3U4zBpp/PQDVcEb++HrXBJchSQBH0OsC+vY/B
4m3BQCzNx794+a3BtIFsQO4wAcATrZfBaGPKQIVlSz9GlbLBHIbmQH10gEDkM7DBF0ecQGBWfECz
QrbBsjbxQMGpmUBHI7nBAh+nQC3NlkDwNb/BvFSoQEAPKz5GzqHBaFCFQKOJfcBDwIzBaNGtQDIO
mL/qQKTB78yeQCqcC8AOc5zBlIy7QD3yZkD1fK7BzGK2QFoclj9e16jB0F7RQLkZpUBFl8DB3WW5
QCS8T8CqCpnBTLXDQB9oNkDnt5rBYZZ6QC/TTkAr5JjBZECyQLh4dUC1nIrBovPhQAD4dUCQjIzB
d2qvQMo1KEBuhqXBVu3XQDza6kDI+8fBCkqsQKB7g8DqW5HBLPGiQDo4PkAWS5PBLizlQN7lZEDU
HJjBDluBQEcmM0ACyaLB/wkzQPWLdkDJn5TBtlbbQKUHvUASd8nBXJjhQP7eV8Af+JzB2DqyQKQq
9kDNRsPB7ObZQPqF/UD3wtHBKAr5QGw8+UAj68HBqpPeQL3yWb9nkrzB1PIUQICKNMDH9ovBoYjF
QOS7JsDS7K/B1utCQMQAm7/qGZrBUZvVQHHKxj+BDrjB1iL/QJbhbUCEn6rBPIB3QIhiZkCMQ7XB
xuUIQQs9pECXSLrBY/uOQLzRnkBVD8XBNwmZQN3m4z5ZYprBPdp2QFEXlcDCoobBV3mqQFdTWkCa
uoLBGrWkQDshm0BgPIvBre7vQERBmkCthYrBHPHxQEeTQ0DW4YfB9Fr8QLzXeEAKCJ3BAf5RQNQt
J0CkwKfBANX+P2AxgECqMJnBGgUzQGOwhEBy+ozBYLjNQKKFD78217TBN2pSQEpbOsDia4/BvPS/
QHxkxL+Qh63BsU5tQEQL/b88DpfB6HfJQMiXTT+cWbLBKDKcQNVUeUCiJLfB5MrlQHkxgEAygbDB
BCuoQBz+lEB+D8DByp3xQOikmEDGbrnBTMepQLkyZz6eJ6HBxlOEQHNGf8B+z4zB8BiuQAc+kr/G
pKPBYeqeQOBgCcBQ75vBcrC6QOfvZUD+Ka/B9i+3QP9Ymz8mc6jBtJjSQOGso0AUHMHB+oy4QCiG
UMAm/5jBTmPEQE41TkBqD5zBT2N7QMENWkDIN5nB7eCzQL2tbECol4rBttHiQP+MV0AI9ovBMK6u
QJFlLEDe16XB4OHTQHyK6UCgmcjBJ/yqQAWwhMCSjZHByNOlQPlkdUCyu5XB+O3jQP/vLEDQfZbB
+vqAQKaFOEBm36LBHz8xQK7/X0DMLpPBELPdQDprvECGvsnBUirgQKvXWsA2Np3BuuPYQC0w/EDc
TdLBKkrvQPUO/EB8h8HBFOSqQOpU8EA6ScXBc5bbQMr+W7+aYrzBc9gUQBK+M8AzlYvBuQXDQCBI
JcDKdq/BSf5EQEjykb9XKpnBzS7UQJYZxj+oAbjBYmN3QCyrYkARXrbBG5D9QJHMbkB9oarButSQ
QHyFnEAeJsbBJy8JQR/1okBjabrB/g2cQCDsBD+mlJnBwBt0QFqXlsBK4obBkbSiQCKwOEA5f4bB
k3uvQFZelEBvIobBWXb2QBf8iEA1+YvBNf/tQN9SLEAsmoXBw4L4QNPC/z+c5pjBuk9QQAlYKUD5
jKfBvwH0P8icSUCBGJbBufoyQAGtekAG6ovB

> <OMEGA_E>
IG3oPvhT6T6Q7uk+QI3qPqjE6j7Y7ew+UL/uPohB8D6I8/E+kJDzPg==

> <OMEGA_NBR>
     39069

$$$$
50157417
  -OEChem-04172616093D

 49 52  0     1  0  0  0  0  0999 V2000
    6.8339   -0.5663  -22.4556 C   0  0  0  0  0  0  0  0  0  0  0  0
    5.2746   -4.0959  -18.1377 C   0  0  0  0  0  0  0  0  0  0  0  0
    6.3241   -1.5447  -21.5824 C   0  0  0  0  0  0  0  0  0  0  0  0
    5.8141   -3.1830  -19.0542 C   0  0  0  0  0  0  0  0  0  0  0  0
    6.5799    0.7974  -22.2148 C   0  0  0  0  0  0  0  0  0  0  0  0
    4.9169    3.7387  -22.9429 C   0  0  0  0  0  0  0  0  0  0  0  0
    7.1293    4.2159  -22.0192 C   0  0  0  0  0  0  0  0  0  0  0  0
    5.2087    4.5408  -24.0537 C   0  0  0  0  0  0  0  0  0  0  0  0
    7.4185    5.0173  -23.1340 C   0  0  0  0  0  0  0  0  0  0  0  0
    5.3065    0.2015  -20.2263 C   0  0  0  0  0  0  0  0  0  0  0  0
    3.9264   -3.9667  -17.7471 C   0  0  0  0  0  0  0  0  0  0  0  0
    5.5434   -1.1581  -20.4727 C   0  0  0  0  0  0  0  0  0  0  0  0
    4.9896   -2.1566  -19.5486 C   0  0  0  0  0  0  0  0  0  0  0  0
    5.8620    3.5914  -21.8992 C   0  0  0  0  0  0  0  0  0  0  0  0
    5.8013    1.1896  -21.0952 C   0  0  0  0  0  0  0  0  0  0  0  0
    6.4520    5.1913  -24.1431 C   0  0  0  0  0  0  0  0  0  0  0  0
    3.6358   -2.0883  -19.1221 C   0  0  0  0  0  0  0  0  0  0  0  0
    6.2705    2.9988  -19.4471 C   0  0  0  0  0  0  0  0  0  0  0  0
    4.0165    3.2873  -19.1475 C   0  0  0  0  0  0  0  0  0  0  0  0
    5.5421    2.6507  -20.7391 C   0  0  1  0  0  0  0  0  0  0  0  0
    5.5246    3.8385  -17.1905 C   0  0  0  0  0  0  0  0  0  0  0  0
    6.4582    7.4048  -24.9900 C   0  0  0  0  0  0  0  0  0  0  0  0
    3.1358   -2.9838  -18.2395 N   0  0  0  0  0  0  0  0  0  0  0  0
    5.2749    3.3006  -18.5329 N   0  0  0  0  0  0  0  0  0  0  0  0
    4.1227    2.8250  -20.3701 N   0  3  0  0  0  0  0  0  0  0  0  0
    2.8201    3.6537  -18.5496 N   0  0  0  0  0  0  0  0  0  0  0  0
    7.4615    2.8487  -19.1957 O   0  0  0  0  0  0  0  0  0  0  0  0
    6.7093    5.9983  -25.2228 O   0  0  0  0  0  0  0  0  0  0  0  0
    2.7961   -1.1542  -19.6334 F   0  0  0  0  0  0  0  0  0  0  0  0
    5.2216    7.6093  -24.4534 F   0  0  0  0  0  0  0  0  0  0  0  0
    6.5202    8.0434  -26.1834 F   0  0  0  0  0  0  0  0  0  0  0  0
    7.4033    7.9257  -24.1623 F   0  0  0  0  0  0  0  0  0  0  0  0
    7.4213   -0.8620  -23.3123 H   0  0  0  0  0  0  0  0  0  0  0  0
    5.8856   -4.8902  -17.7348 H   0  0  0  0  0  0  0  0  0  0  0  0
    6.5300   -2.5897  -21.7612 H   0  0  0  0  0  0  0  0  0  0  0  0
    6.8422   -3.2662  -19.3744 H   0  0  0  0  0  0  0  0  0  0  0  0
    6.9783    1.5462  -22.8834 H   0  0  0  0  0  0  0  0  0  0  0  0
    3.9661    3.2302  -22.8824 H   0  0  0  0  0  0  0  0  0  0  0  0
    7.8742    4.0742  -21.2501 H   0  0  0  0  0  0  0  0  0  0  0  0
    4.4791    4.6594  -24.8411 H   0  0  0  0  0  0  0  0  0  0  0  0
    8.3810    5.4999  -23.2180 H   0  0  0  0  0  0  0  0  0  0  0  0
    4.7361    0.4937  -19.3570 H   0  0  0  0  0  0  0  0  0  0  0  0
    3.5138   -4.6689  -17.0378 H   0  0  0  0  0  0  0  0  0  0  0  0
    4.5667    3.9884  -16.6710 H   0  0  0  0  0  0  0  0  0  0  0  0
    6.1435    3.1297  -16.6209 H   0  0  0  0  0  0  0  0  0  0  0  0
    6.0511    4.8008  -17.2733 H   0  0  0  0  0  0  0  0  0  0  0  0
    3.3494    2.6190  -20.9698 H   0  0  0  0  0  0  0  0  0  0  0  0
    1.9622    3.5725  -19.0569 H   0  0  0  0  0  0  0  0  0  0  0  0
    2.8153    3.9990  -17.6111 H   0  0  0  0  0  0  0  0  0  0  0  0
  1  3  1  0  0  0  0
  1  5  2  0  0  0  0
  2  4  2  0  0  0  0
  2 11  1  0  0  0  0
  3 12  2  0  0  0  0
  4 13  1  0  0  0  0
  5 15  1  0  0  0  0
  6  8  2  0  0  0  0
  6 14  1  0  0  0  0
  7  9  1  0  0  0  0
  7 14  2  0  0  0  0
  8 16  1  0  0  0  0
  9 16  2  0  0  0  0
 10 12  1  0  0  0  0
 10 15  2  0  0  0  0
 11 23  2  0  0  0  0
 12 13  1  0  0  0  0
 13 17  2  0  0  0  0
 14 20  1  0  0  0  0
 15 20  1  0  0  0  0
 16 28  1  0  0  0  0
 17 23  1  0  0  0  0
 17 29  1  0  0  0  0
 18 20  1  0  0  0  0
 18 24  1  0  0  0  0
 18 27  2  0  0  0  0
 19 24  1  0  0  0  0
 19 25  2  0  0  0  0
 19 26  1  0  0  0  0
 20 25  1  0  0  0  0
 21 24  1  0  0  0  0
 22 28  1  0  0  0  0
 22 30  1  0  0  0  0
 22 31  1  0  0  0  0
 22 32  1  0  0  0  0
  1 33  1  0  0  0  0
  2 34  1  0  0  0  0
  3 35  1  0  0  0  0
  4 36  1  0  0  0  0
  5 37  1  0  0  0  0
  6 38  1  0  0  0  0
  7 39  1  0  0  0  0
  8 40  1  0  0  0  0
  9 41  1  0  0  0  0
 10 42  1  0  0  0  0
 11 43  1  0  0  0  0
 21 44  1  0  0  0  0
 21 45  1  0  0  0  0
 21 46  1  0  0  0  0
 25 47  1  0  0  0  0
 26 48  1  0  0  0  0
 26 49  1  0  0  0  0
M  CHG  1  25   1
M  END
> <OMEGA_C>
Lq/aQHj3EL8RpbPBo8moQOURg8DpGZHBpV7KQEW6xb+rqKzB3wy6QLy2S8AGb5jBbo7SQE8hTD/u
t7HBjFedQE1Hb0AFi7fBPyPkQFXohkBAJ7DB+q2mQOxNkUD/bcDBoWTtQHyNoEB0ErnB3M6pQIdR
Tj5gz6HBkEl7QGDefcAg+o3BfGOxQFY8lL8syKPBzKqfQPcECsB4Y5zBuZW7QOHZZUCTMa/BWKS5
QFdEmD/gwqjBLXfOQFYfpkAeJcHBIbFoQD6nBcAa+pjBmqfIQKTsP0CZk5vBaYeAQIBiUkAGLpnB
QVmxQMKlKUCn6aXBicmwQImqdUAehonBa6nOQL/z7ECW68fBw7BIQGf2PsCJ6pHBUcyoQLo9U0Bs
Q5TBHe2DQD/NNEAI9qLB3Hw0QGrVaUCSZZTBdsTuQMNQNkDgkJnBvLLWQK7xv0BZyMnBx/IyQG68
k78sEZ3BXxenQMp/80CpoMPBdaXQQOWxAEGYd9HBAujsQKSf/UBPTMHB53rtQCOpXL+if7rB0la8
QC98nMDV4I3BiPXQQDu+JcAAF67BDfPaQF4JUcCy/prB5k3fQF/qxT8bEbfBl9R9QNS6TkATD7fB
rvn7QBhggkBAAKrBlVSPQGwZlUCAusbBtxgGQUL/r0B2vrnBDo6XQEDK/D4e25rBEuJgQFJnlcBp
TYjBJiKSQJZBf0AfXoXB7pfEQP5MSECM94TB06LBQACgmUCiL4rBrlxWQBieJ0AhwqfBHin7P2Wj
ZECNdJjBCi40QC7wf0Cg44zBpN3ZQGx7Dr/ur7PBP22pQEuTgsACA5HBqPnJQOlMxL/JoqzBnKG6
QDvpScAiP5jBq73RQMp3Tj8GwbHB6z2dQA/lb0DgebfBD1/kQLOLhkDKM7DBubimQLY1kUCka8DB
ar3tQGzkn0A6LLnBasepQC7wWT7otaHBpuR7QLjUfsBAHY7Bx1mxQBiwkr9RtKPBZNyfQE1WCcDG
UJzBcJG7QL9FZkCNJq/B/Vu5QIqfmT9ltKjBxbDOQPidpUAMNsHB4aBoQImCBsCSFJnBkKTIQI2s
QECXhZvBBoiAQNOAU0AQG5nBYD6xQIlcKkC72KXBNAKxQHVjeEBPionBAnDOQIo77ECjJMjBBKhI
QOHHQMAXJJLB196oQEDgVEAwOJTB592DQPC9NUD74KLBc2U0QAatakAwU5TBULruQPefNkACg5nB
LuXWQNc1v0B25MnBYqoyQATklb8NLZ3B11DOQOT+/0BIy9HBUKDtQNa0/UBe8cHBhKSnQPOw8kDE
asPBk1TsQGhMWr+CmLrB30S9QFOPm8DdsI3B3J3QQF0FJcDdDq7BGMbbQMXHTcDApZrBdRXeQM3+
xj/lKrfBGER9QIwaUEBT7bbB4E78QPPPgUBmFarBaFWPQOwDlUC9tcbBNlkGQdr4rkB96LnBlsKX
QIo7AT+4t5rBQHlhQARNlsCui4jBjGiSQBxEgUA/YYXBitHEQOprS0BM7ITBJOnBQFzqmkBBUIrB
2SpWQJKQKEAFqqfBgP36P6EaZUCCYJjBtAM0QIV6gEBZ04zBRKvaQLDrEL9WjbPBIrunQOPCgsAP
DpHB3h/KQBJDxb+Hk6zBGWy5QMvYSsDjSZjBPPPSQPCNTD8smbHBJH6dQDvfbkDkg7fBqs3kQHhA
hkB0ZLDBBZymQPO3kEAufMDBjdjtQL97n0AFZbnBvkGqQFD8WD5KqKHBh7V4QAWUfcDDH47BCFax
QL4Wk7/2rqPBfDWfQJRVCcDxWZzBng68QMmqZUAvO6/Br1W6QOxOmT/bmajBEoLOQNw2pUACXMHB
LVVnQKkpBcD7H5nBpibJQLQSQkD1gZvBzNqAQNtdUEAsA5nBH/6xQNZnKkDd1aXBbdiwQIxFdECV
VInBJiHPQLZ57EA30cfBsnxGQAO5PsCrJ5LBQiapQKVdUkAyHZTBOYeEQERMNUCX5qLBm500QHnk
ZEDqJpTBz4XvQHehPEDtkZnBqSrWQMdzv0DM88nB+DIyQMcvkr9gRp3Bi7LuQMVA/EApc8HBy3Ko
QHpJ80C3EMPBsb/PQFjRAEHIRtHBzlPtQD+HXb9ea7rBYSC7QAYmnMCUwo3BUGPQQAucJcCuBq7B
h4XaQDnZT8CqsZrBjsnfQHPGxT889bbBePp9QLa8TkA26rbBQfb8QHuZgUARU6rBfACPQLh2lECv
ucbB1GYGQQx+rkD2NrrBxzmYQJXNAT/IrJrBwp9dQCddlcC3hojBNCqSQIdEe0AtG4XBHZPFQLPi
R0Bx4YTBZ5PAQDOJmUBs7InB+8ZXQAudKUC0yqfBVLH7P09mX0DHO5jBeMozQN0veUDKkIzBykjb
QAHHEL/KSrPBJAKoQH9qgsAT2JDBI5LKQPmIxL8oTazBZKK5QAK3ScB2CJjBYynTQKO1TD+GeLHB
beLkQDhkhkCsdbDB2rSdQOkTb0CXqLfBu/LtQDHen0Cxa7nBQuCmQGb7kED6mMDBZIKpQG5NZD7l
p6HBF+54QA/7fcBLCI7BGTKxQP3bkb8ghqPBZzefQF+4CMCtJ5zBVCO8QInhZUA6WK/Bidi5QNgk
mj+snajBba3OQNWxpUBfZ8HBthlnQH6LBcDaBZnBmiDJQEF2QkA7nZvB6NCAQJfaUEAzC5nBNcqx
QMoVK0Cr66XBrg6xQHZWdUAXbonB5XLQQE4l7UDgw8fBcFdGQDejP8BXHZLBMj2pQJm2U0CKOJTB
D2iEQEZWN0CL/6LB4nw0QMgrY0DxDpTBQF/vQE2EOkBIppnB01jWQI8FwECV+8nBl5gxQJQUlL9K
OJ3BecfwQMos/EB4hsHB30KqQIet9EDi1cLB5tvQQIo1AUEyNtHBTGPuQJhvXr8kErrB6pS7QPSM
m8CMfo3BnifRQMtBJcCwpq3Bv9jaQOP6TcCvXJrBgjvgQGFhxT/z07bBwgT9QGqVgUCrZKrBl4N+
QCmvTkATG7fBDm8GQSz+rkAsMrrBDWGPQDeulECX3cbB4NOWQBS1BT/yyprBeOFdQAfIlcCjfIjB
H2KSQG0yfUADOoXBJmrFQClWSEAw+ITBzz7BQCHXmUDOAYrBxHpXQASALUCm8afBoRz7PyYuXUAz
GJjBvcozQLxedkBkbYzBw3nXQHKfCr/+7rPBtgxLQPtPQMDcRpHBSTnHQDhuw79dBa3BrqFoQPRB
BMBEvJjBDibQQPTLUT+ex7HBTgWdQC47ckAac7fBAlzkQBUohkBUJLDBeUunQOnckUBZcsDBy4zu
QC/YnkDIKrnBrnmnQEH1VT6Z36HBO6GBQLYmgMBZlI3BOmKvQNRUk7/n6aPBeeGeQAwlCsCCYZzB
rB+7QP5FZ0DAF6/BpaK3QJF/mj+gvKjBwd3PQGwRpUAGRMHBSoW5QI4OTMBiUJjBR83HQKHKQECP
eJvBZKZ/QEToVEBeApnB8DiwQGkyK0C2zaXBzZWwQHuIeEAidInBZTbTQIJ660BlScjBT5eqQC2e
gsALE5HBcDOoQCh2VUDIJZTB7vSCQIvvN0Dx06LB3VEzQNcSbED4JJTBOfLtQEcvN0ANgJnBuCTZ
QFYHvkCsAcrBaUPjQBWKUMANMJvBMl/xQGTs+kCZdMHBBIKrQHwF9EACT8TBTWrXQBGQ/0Ci1tHB
paDpQN2MVL/a6brBhPAJQMGTPcCiZY7BFfrMQNqRJMB8ra7BQOQ+QMacpL8FpJvBsDvdQLRnyT/C
B7fBI+l7QO1GVECn47bBDwX8QHI7gUA396nB8QyQQJ4tlkC0v8bB6/QGQd8PrUBb5rnBtcyUQMUx
/D5895rBR39sQCZEl8Au0ofBCBCSQFiZgUApR4XBKjDEQM8JS0Cy3ITBkczBQF/SmkA0NYrBcSpU
QKQZLEB1o6fB4Wz4P+clZ0BtKpjBDmMzQBfagEB8nYzBh8zZQOoaD7+jsLPBC1OpQLCYgcDnypDB
1dfJQH7fw78tl6zBQnm6QLVjSMAqF5jBf6vRQOVWTj+H1bHBy3/kQIKLhkDRTLDBADKdQOFZcUB1
kbfBR/HtQIY5oEA6NLnB/cGmQNxCkkDGcsDBaI6pQGB7Zj45yKHBuK57QB/cfMDy5o3BVSaxQM1K
kb8ZsKPBAqqfQHcoCMChOZzBP5W7QAO5ZkCwR6/BqDS5QGBimj+J0ajBxNjOQNyApkDXMsHB1EZo
QO4ZBcAo9pjBk63IQNR1QUDdt5vBrKyAQP3vU0CtNZnBYS6xQCDIKkAcAKbBH0WxQG1OdUCekYnB
Mc3MQLls7EDImcjBPGJIQHIOP8BP+ZHBNYmpQCxMYECX2JTBfeKDQGyVNkCUAaPBlFk0QGXRY0Ci
D5TBFlvuQFP6M0CtipnBP5nXQMivv0CC6snBKEsyQBkWk7/wDZ3BHRrOQLbz/kCMZdLB+dLpQFzp
/0DwH8LB6MSkQMXV8UAUesTBtE/sQJ10XL/nkrrBjTe9QLxsmsDxao3BtXzQQGziJMA39K3Bi53b
QHpVTMB2fZrByxDeQLdhxj8jR7fB/3X8QNphgUCPNarB1wB9QB7dUUDGCrfBzH4GQZkhr0CH67nB
nFuPQIZzlkA+uMbBAHSXQM34BT/e0ZrBFk9hQCA1lcB0TYjBxWyTQGY0hkB654XBf1O8QCXHO0DT
UIXBht7JQCi9k0D8B4nBpRJWQO/tKUDbyqfBEgz6P8DYWEBn15fBWSc0QIc9ekBzkYzBeQvcQCnJ
EL9yV7PByTWnQIHXgsAtCpHBJCrLQKEixb8XaKzBnx+5QBdXS8CsSJjBHvPTQPKzTD/NeLHB7HTk
QFc6h0A3TbDBYdKdQM3JbUBoorfBfEjtQKzMoEAoQrnB+L6mQCB2kEAKkcDBqjSqQJTHWj5+tKHB
RL93QFcSfcBmG47BmauxQEzxkr+2oqPBfzefQMM6CcC7U5zBLSG8QEjBZUD6Ra/Buoq6QPxnmT8g
nqjB8y7OQFvhpUBxUcHB02VnQDpSBMDrEpnBVUDJQJAEQkByjJvB9eaAQDlZUEA/EJnBJByyQIWB
KkBf4aXBmM6wQDqgc0BGVonBmf7QQB7+7EB48sfBJRBGQH7DPcAbIJLB4japQILVUkDQLZTB9aSE
QBvbNUBS+aLBKI40QLqpY0DiKZTBNIfvQFzzOkBbkpnBYN7VQMmlv0AAAcrBq8UyQALXjr81Ip3B
YRKrQDKP9UCsAMPBC5nRQLrKAEG2fNHBLcLxQLDW+0Ao0sHBDkDvQESCXb/bHLrBxGq6QOxbnMAY
vY3Bo7XRQMKFJcBjy63BvyraQLcJUcCFtprBFhvhQKrGxT/AybbBW3T8QFgJg0BTLKrB9E9/QLdO
TEBzH7fB0PIFQSaUsEB1+bnBjVaPQCe2k0Dv3sbBW6aXQKSOAj/2z5rBUkpcQJkIlcCjhIjBhwqS
QBdGe0BqK4XBtQXFQGE5RkBL5oTBKA/BQC76mEA50YnB8xNYQDDTKkA55qfBm437PxetXUB1O5jB
GKEzQOCTd0DIj4zBrb/WQOZ9DL+NCLTBCP5KQEK7PsDEOJHBL7/GQJSmw78MCq3BfPloQMi6AsCA
p5jBKKnPQO1XUD8p5bHBJbzkQPL1hEDZXLDB2sWcQGXnckAQdbfBqOfuQCmrnUD8YbnB+wCnQINK
kkBQccDBHhOoQBDWXT5byqHB7GKBQNc5f8ANj43BmZGvQIpwkr812qPB6QGfQJU6CcDMTZzBqCu7
QAPHZkDPMK/BZtC3QPyfmj/ZwKjB+9fPQMvnpEBjVsHBb3m5QBZvS8C+QpjBtODHQO7AQUC/kpvB
DvV/QLdzVkA3IZnBtE2wQK04K0C33qXBH4GwQCYCdUCrYInBuEfRQGaO60BHO8jBRFuqQJRKgsB2
C5HBUNWoQHHpYEAZsZTBxRODQOQHOECb4aLBfCMzQNzuaECZEpTBd6HtQML4NEADa5nBIzPZQH9m
vkAk+snB3jLjQLNAUMDzJZvB8pmnQLWk8kANlsXBLAraQPFeAEFab9HBG/rqQDgj+0BuWcDBN4To
QFi8V7+rD7vB9usJQP2YO8CYVY7BjC7MQG/KJMBtsa7BdJ8/QK+9oL9JiZvBeWncQGU0yD/vOrfB
P6j8QJGcfkAcSqrBHxV7QCS6VUA71rbBHEcHQUkiq0BFObrBDo2PQIchl0AZrMbBngyWQI9nAT9P
yprBgqhrQDDElsD81IfBN72SQORMhkCauIXBgyK7QEfwOkABLIXB+WXJQMdEk0A3w4jB6VVUQNxB
K0CEpKfBDnr3P2koX0Ah45fBISczQDoEgECnnIzBWH7WQPYvDb8qDrTBJSNMQC1JP8BEA5HBjIXG
QGj/w7+xDa3BIyZpQEJaA8DrhJjBzWvPQJSjTz+C67HBpqTkQFyrhUCjLrDBsgudQAvIckCybrfB
0NjuQG2HnkB8MLnB0EqnQAxRkkBpY8DBe4ynQP2lWT4c26HB1keCQFVif8D9ZI3BVy6vQHrwkr8L
46PBcfaeQFqCCcD5R5zBG0S7QFgBZ0A+IK/BUXi3QHIamj/lzKjBYPbPQARDpUDHOcHBgMO5QBhO
S8AtRJjBO9DHQGuBQECyj5vBLg2AQC19V0A0OJnBT0awQGngKkB936XBVpiwQJy9dkAOf4nBhATT
QP4B7EDHD8jBGRmrQG83gsDw/ZDB0/CoQPqtYUAux5TBxheDQKTnN0BP6KLBzTUzQGIda0BfQJTB
hEntQH1bMUAjVpnBj+vYQPSevkDE6cnBfGzjQKufT8CPOJvBTw7UQAoSAEF3qdHBGxPzQEuK+0AW
0MHB5ZmsQORi9EA+VcPBbzroQM2CWL9mFrvBHVALQL1iPMBQCY7BmxvMQETyJMDhr67BZEU/QC2k
or8RX5vBSEPcQKjhxz9IPbfB81/8QDlfgEDeCqrB9c57QEYoVUCt3LbBnikHQa12rEAg9LnB7/GP
QCr7lkCqpsbBjkeVQBluAD9m5ZrBnTFuQDvPlsDNnIfB9wCTQDP3h0BE64XB2o+6QO69PEDgLIXB
+vfJQDmqk0AN8IjBJFdUQMl9KkALo6fBTdH3P0pLYUAoFpjBkxAzQDKLgUB61YzBhnnXQMGMC79U
5LPBio9LQHS0P8ClIZHBCR/HQPtdw78i9qzBCtFoQHacA8C1mpjBriHQQDESUT87yLHBHiSdQLdv
cUBfjrfBPzjkQGpEhkDYH7DB9XSnQEaKkUBBh8DB9nXuQKIPn0C4IbnBVEynQDBAXD6B4KHBJfaB
QOG/f8DIe43BHD2vQAqckr/736PBBOWeQAaGCcBmTZzBohW7QOX9ZkBfKa/BaoK3QEimmj9PxKjB
1+TPQCgNpUDqRsHBIKq5QFVGS8DMQJjBnLbHQIyVQUCcl5vBtwuAQJZPWEAqNZnBAyGwQBVGK0C5
36XBZJ+wQMKld0Dxh4nBb6DTQMjK60ADEsjBfOCqQPhGgsA8A5HB3v+oQGwbZEDj3JTBUvuCQDGg
OECc5aLB1E4zQFX4aUCcGJTBJQntQA9qMUAGUpnBeuDYQKRdvkDh98nBnWnjQJNnT8DlIZvBVY+t
QMZ29EDSMsPBIlvUQPD+/0CHqdHBcS70QA78+kA37sHBq7XpQI9iVr9M2brB7ZYKQJr2PMD+M47B
cdPMQF2aJMBelq7Bpfc+QMdGo7+nepvBN0jdQP+9yD88C7fBxF18QJn8UkAnC7fBdb37QPF4gUCT
6KnBhlmQQMWvlUB13sbBdd0GQc+FrUDL0LnBx5KUQK6VAD/x/JrBX1dtQNcRl8Dqu4fB/FSTQFEx
iUB/+YXBeYW5QM6mPECVRoXBwrzKQPREk0A/2ojBngZUQBhZK0D7nafB+6X3P16JXkCP0ZfBom4z
QFYRgUA3sIzB

> <OMEGA_E>
SB8cPvCwHT6I4x0+gFYePkB3Hz5QMiE+oJEhPli0IT7w9yU+kMsnPg==

> <OMEGA_NBR>
     47733

$$$$
50157457
  -OEChem-04172616093D

 57 61  0     1  0  0  0  0  0999 V2000
    7.2469    3.9635  -22.1873 C   0  0  0  0  0  0  0  0  0  0  0  0
    4.8928    3.9590  -22.8379 C   0  0  0  0  0  0  0  0  0  0  0  0
    7.5353    4.8182  -23.2637 C   0  0  0  0  0  0  0  0  0  0  0  0
    5.1892    4.7888  -23.9262 C   0  0  0  0  0  0  0  0  0  0  0  0
    5.9125    3.5600  -21.9292 C   0  0  0  0  0  0  0  0  0  0  0  0
    6.5050    5.2337  -24.1255 C   0  0  0  0  0  0  0  0  0  0  0  0
    6.2834    3.0838  -19.4588 C   0  0  0  0  0  0  0  0  0  0  0  0
    4.0336    3.2715  -19.1385 C   0  0  0  0  0  0  0  0  0  0  0  0
    4.6456   -1.5095  -22.1220 C   0  0  0  0  0  0  0  0  0  0  0  0
    7.1121   -1.1721  -22.5292 C   0  0  0  0  0  0  0  0  0  0  0  0
    6.2774   -1.7845  -20.2246 C   0  0  0  0  0  0  0  0  0  0  0  0
    5.5524    0.7967  -22.5910 C   0  0  0  0  0  0  0  0  0  0  0  0
    4.7156    0.1908  -20.2682 C   0  0  0  0  0  0  0  0  0  0  0  0
    7.1785    0.5429  -20.6780 C   0  0  0  0  0  0  0  0  0  0  0  0
    5.6952   -0.7023  -22.9234 C   0  0  0  0  0  0  0  0  0  0  0  0
    4.8593   -1.3111  -20.6020 C   0  0  0  0  0  0  0  0  0  0  0  0
    7.3329   -0.9655  -21.0134 C   0  0  0  0  0  0  0  0  0  0  0  0
    5.5656    2.6357  -20.7395 C   0  0  2  0  0  0  0  0  0  0  0  0
    5.7548    1.0727  -21.0618 C   0  0  0  0  0  0  0  0  0  0  0  0
    6.0628    8.2938  -25.8519 C   0  0  0  0  0  0  0  0  0  0  0  0
    5.5310    3.8321  -17.1845 C   0  0  0  0  0  0  0  0  0  0  0  0
    6.7283    7.4835  -24.7422 C   0  0  0  0  0  0  0  0  0  0  0  0
    5.2881    3.2851  -18.5234 N   0  0  0  0  0  0  0  0  0  0  0  0
    4.1542    2.9049  -20.3895 N   0  3  0  0  0  0  0  0  0  0  0  0
    2.8248    3.5754  -18.5322 N   0  0  0  0  0  0  0  0  0  0  0  0
    7.4843    3.2268  -19.2530 O   0  0  0  0  0  0  0  0  0  0  0  0
    6.7694    6.1009  -25.1462 O   0  0  0  0  0  0  0  0  0  0  0  0
    8.0464    3.6114  -21.5523 H   0  0  0  0  0  0  0  0  0  0  0  0
    3.8792    3.6181  -22.6865 H   0  0  0  0  0  0  0  0  0  0  0  0
    8.5477    5.1560  -23.4294 H   0  0  0  0  0  0  0  0  0  0  0  0
    4.4076    5.0854  -24.6099 H   0  0  0  0  0  0  0  0  0  0  0  0
    3.6373   -1.1644  -22.3946 H   0  0  0  0  0  0  0  0  0  0  0  0
    4.7460   -2.5774  -22.3659 H   0  0  0  0  0  0  0  0  0  0  0  0
    7.2230   -2.2393  -22.7717 H   0  0  0  0  0  0  0  0  0  0  0  0
    7.8583   -0.5893  -23.0891 H   0  0  0  0  0  0  0  0  0  0  0  0
    6.4352   -1.6404  -19.1456 H   0  0  0  0  0  0  0  0  0  0  0  0
    6.3839   -2.8511  -20.4715 H   0  0  0  0  0  0  0  0  0  0  0  0
    6.3073    1.3611  -23.1581 H   0  0  0  0  0  0  0  0  0  0  0  0
    4.5468    1.1327  -22.8839 H   0  0  0  0  0  0  0  0  0  0  0  0
    3.6985    0.5175  -20.5306 H   0  0  0  0  0  0  0  0  0  0  0  0
    4.8794    0.3325  -19.1898 H   0  0  0  0  0  0  0  0  0  0  0  0
    7.3348    0.6871  -19.5987 H   0  0  0  0  0  0  0  0  0  0  0  0
    7.9350    1.1128  -21.2374 H   0  0  0  0  0  0  0  0  0  0  0  0
    5.5389   -0.8599  -24.0008 H   0  0  0  0  0  0  0  0  0  0  0  0
    4.1105   -1.8907  -20.0421 H   0  0  0  0  0  0  0  0  0  0  0  0
    8.3428   -1.3027  -20.7372 H   0  0  0  0  0  0  0  0  0  0  0  0
    6.0230    9.3535  -25.5596 H   0  0  0  0  0  0  0  0  0  0  0  0
    6.6444    8.1912  -26.7799 H   0  0  0  0  0  0  0  0  0  0  0  0
    5.0412    7.9203  -26.0163 H   0  0  0  0  0  0  0  0  0  0  0  0
    4.5801    3.8935  -16.6350 H   0  0  0  0  0  0  0  0  0  0  0  0
    6.2267    3.1758  -16.6411 H   0  0  0  0  0  0  0  0  0  0  0  0
    5.9687    4.8374  -17.2731 H   0  0  0  0  0  0  0  0  0  0  0  0
    7.7513    7.8521  -24.5764 H   0  0  0  0  0  0  0  0  0  0  0  0
    6.1482    7.5812  -23.8127 H   0  0  0  0  0  0  0  0  0  0  0  0
    3.3890    2.8178  -21.0274 H   0  0  0  0  0  0  0  0  0  0  0  0
    1.9749    3.5206  -19.0563 H   0  0  0  0  0  0  0  0  0  0  0  0
    2.8026    3.8494  -17.5708 H   0  0  0  0  0  0  0  0  0  0  0  0
  1  3  2  0  0  0  0
  1  5  1  0  0  0  0
  2  4  1  0  0  0  0
  2  5  2  0  0  0  0
  3  6  1  0  0  0  0
  4  6  2  0  0  0  0
  5 18  1  0  0  0  0
  6 27  1  0  0  0  0
  7 18  1  0  0  0  0
  7 23  1  0  0  0  0
  7 26  2  0  0  0  0
  8 23  1  0  0  0  0
  8 24  2  0  0  0  0
  8 25  1  0  0  0  0
  9 15  1  0  0  0  0
  9 16  1  0  0  0  0
 10 15  1  0  0  0  0
 10 17  1  0  0  0  0
 11 16  1  0  0  0  0
 11 17  1  0  0  0  0
 12 15  1  0  0  0  0
 12 19  1  0  0  0  0
 13 16  1  0  0  0  0
 13 19  1  0  0  0  0
 14 17  1  0  0  0  0
 14 19  1  0  0  0  0
 18 19  1  0  0  0  0
 18 24  1  0  0  0  0
 20 22  1  0  0  0  0
 21 23  1  0  0  0  0
 22 27  1  0  0  0  0
  1 28  1  0  0  0  0
  2 29  1  0  0  0  0
  3 30  1  0  0  0  0
  4 31  1  0  0  0  0
  9 32  1  0  0  0  0
  9 33  1  0  0  0  0
 10 34  1  0  0  0  0
 10 35  1  0  0  0  0
 11 36  1  0  0  0  0
 11 37  1  0  0  0  0
 12 38  1  0  0  0  0
 12 39  1  0  0  0  0
 13 40  1  0  0  0  0
 13 41  1  0  0  0  0
 14 42  1  0  0  0  0
 14 43  1  0  0  0  0
 15 44  1  0  0  0  0
 16 45  1  0  0  0  0
 17 46  1  0  0  0  0
 20 47  1  0  0  0  0
 20 48  1  0  0  0  0
 20 49  1  0  0  0  0
 21 50  1  0  0  0  0
 21 51  1  0  0  0  0
 21 52  1  0  0  0  0
 22 53  1  0  0  0  0
 22 54  1  0  0  0  0
 24 55  1  0  0  0  0
 25 56  1  0  0  0  0
 25 57  1  0  0  0  0
M  CHG  1  24   1
M  END
> <OMEGA_C>
rubnQJ6pfUCmf7HB6JGcQDpgfUD+s7bBiCHxQIcumkAWHLrB+A2mQJo9mUDGaL/BijO9QBbXY0AN
b6/BxCjQQGx6p0AOAcHBWBHJQMBcRUC3q5vB4RKBQKBfUUCuG5nBr6iUQIw4wb/0+bDBGZbjQEAG
lr/RO7TBKeDIQAJr5L/yy6HBhq2xQDr0Sz9EurTB2eWWQEhqQz5gJaLBnLblQOr5Cj+FbKXBrj62
QNnHM78rY7fBF3+bQK/Qp7/z0KTB/abqQMcpd79bG6jBMxmyQPyvKECP6qXBPie4QPdNiT+pfqjB
KgLCQFizBEHL0M7Bl/2wQBBBdUDleYnB903XQBp570AN8MXBhjipQMA+UkACMJTB3u6EQCrpOUC9
HaPBSsk0QLjSZEABQpTBL3/vQN6DTkA+BprBq57YQLg6w0CDK8nBOr4AQZchZ0Aza6zBiUV4QLqP
Z0ANfrXBUMMIQfj9pEBbb7vBBQuNQFu7okAY4cTB18loQPkLlb8mKLPBbd+XQN/0JMB17bLBtyLn
QPFPD8B1LLbBlnf7QJzeFr+CtrjBi+3NQIf30b8aKpnBBknMQBt5NsCVxaPBL9XJQGg5rj+9Q7nB
VH+RQOv7kD8oErfBN7RsQMZ9BD/FPqTBHCScQNpDqj6yhJnBlLbqQOzjLz80ypzBpOv9QBBxjj8h
5qnBYD6xQCggXL+iAcDBi4mDQAMB8r9MVqDBPHwFQRXApr/E5aXBorzAQNOnFUEBeszB2p7UQPsO
A0FVPdbBwFGhQGVz/UBUIdDByY+SQA4veUBoFIXBx0DHQPJAS0DvIIXBYv++QKbLmkBUL4rBBQv4
QB1E+0B0nMTB673EQIyZ8kB0gL7BQuVYQJtXNEA2OKjBAsj8P4pRYUA8c5jB4V0zQEJcdkDrkIzB
qzXnQDjmg0D9A7HBkQefQEKtcEDQ6bfB2FjvQCVLoECUdbnBgFKnQHGMlEDlXcDByWu+QLoIYUCP
8q/BpgfPQAhUqUDqBcHB0zbKQBq1SEBjGpzB1/uBQJRRV0CG3JnBCpzhQC1oyb+0TaPB1ueSQAan
17+Xm6fB/lTJQBpKpL+YU7bBNFCwQAD8kD5FfJ3BvV7mQH5pNT/HRazBmcCXQPppET8sr7DBqB20
QO4en78lMZ/BvI7qQPKBU7+f863BUImbQO53db8qW7LBMEezQOYZKUCzNKbBs6q4QGEsij9qJKjB
8IrKQJJnCUGXMMrBrt+wQFIyeUD1B4rBd6LmQIsq70DeqcXBgUuqQAQTZ0DXapXBNSSGQLbnOkBX
oKPBzGw1QASnYkCd65TBPBzwQG4uQUBZuZnB4kPVQD1/xkB4E8nBThAAQV+HeUDuTKvBCm+AQCy/
UECmc7fBWC4HQUlEr0CWLbrBOiuPQPFNmkBlYMbB2UP5QFeXob/hR53BBDzkQC0TKsCopqTBYUSV
QHNlMcCc0ajBvS1lQMdDt79NxKTBAzrPQBVBQr9P673BulbMQJGRF8AclLfBceaPQE/KAz/WmJrB
nO/HQFCrGD8ydpfBu0L+QESqhD+jXabBXC3sQGYrnD9Y7bPB3fKdQHrHiT8xVbjBL1NuQKUPTj+i
863B6TquQPE/4r8GmZfB4YAFQSZliL8CxrDB5gqEQHfJpL/nW7jB6kPXQJAGGUEQrcfBAHDKQJl5
CEE8+tLBA62pQAuNB0HCLcfBAtCSQJ9BiEAZgIbBzO+6QKtVPkA66YXBatLJQIIrlUBwIonBT8MD
QfWu8kAYrMjBosPmQNnV8ECe37zB/plbQGNRMkAgtajBR+n+P4DYVEDV25jB9rEyQA6keEBEao3B
MpvnQIMLhECXKrHBck+gQHpxbEAqYrjBlZ3vQB+toEAckrnBDoCoQKa3kkBMzMDBMha/QNyKX0Bx
M7DBdMvPQCiXqED3PsHBzmHKQK4HSkBqQZzBNBuCQI6iVECiz5nBLdu2QNCNr7+sFbbBmeLnQC1g
xL8mO6bBvC2YQDxH4L9Rj6PB4lfdQJ5AMj+sla/B5FiNQLyF6j7Z8azBJrq+QAD5mz66CZ3B8Ofg
QN7tVr9ZKrHBFsKQQEYxib9qia7BKBjCQKAinb9EmJ7BK0qzQIZXKUBXTqbBmGC3QCdvhz+k9KfB
Uv3KQJsECEFF0s7BPhGxQMqWdkA6+onBA7jAQNjW7kBoRMbBe0+qQNpMZEDNWJXBa3GGQLZPP0Cx
1qPBxqk1QPbHW0Apv5TBjaDwQCw1RkCvFprBcVTWQCxsx0AczsjBgDQAQeO2ekANY6vBXFaCQPUX
SkDyILjBAhoHQW+asED0IrrBPq+QQPndl0De7MbBgFixQF6eYb9Y173BZnm5QO1WHcDmRLfBFSHq
QO7CJ8Dqc6fB/uMCQYo+lb+do6LBHYZ6QEe7wr+4Mp7BDG+aQLnVNcCFqqTBa1v7QDcdiT+aGazB
dgLYQJ8hlj8iZ7fB6JaHQAe6bj+dwLTBfbNkQFX8Kz8ZkKfBtLWjQIIyBT/iqpfBNZLcQLt5Kz9K
ZpnBV937QGx9iL9thrbB0vtlQH/Vub8NHrLBkZ/HQJ5f27+70pbBtI26QCocF0Ge68zB5r7tQDHD
CkGnD8/BVhfAQDEpAkHlqNbBiZqSQBYVhUBdT4bBnhi9QCvOPEAI84XBrJbIQJFDlUBPIonBIaDL
QPGA+kDIbL7BkPidQPBM6UAGBsbBphFdQA8FPkBLJ6nBXnf/P7hVUEBNz5jBCuYyQJ5ibEBEB43B

> <OMEGA_E>
ngk2P5B3Nz8QEjk/

> <OMEGA_NBR>
     50849

$$$$
50157492
  -OEChem-04172616093D

 48 51  0     1  0  0  0  0  0999 V2000
    4.8857    3.5868  -22.8898 C   0  0  0  0  0  0  0  0  0  0  0  0
    7.1253    4.1752  -22.1145 C   0  0  0  0  0  0  0  0  0  0  0  0
    5.1015    4.3272  -24.0658 C   0  0  0  0  0  0  0  0  0  0  0  0
    7.3452    4.8956  -23.2971 C   0  0  0  0  0  0  0  0  0  0  0  0
    5.4078    0.2274  -20.0638 C   0  0  0  0  0  0  0  0  0  0  0  0
    6.8148   -1.4733  -21.0999 C   0  0  0  0  0  0  0  0  0  0  0  0
    7.1151    0.8759  -21.6773 C   0  0  0  0  0  0  0  0  0  0  0  0
    3.7067   -1.9991  -19.0578 C   0  0  0  0  0  0  0  0  0  0  0  0
    5.7035   -3.3617  -19.0536 C   0  0  0  0  0  0  0  0  0  0  0  0
    3.7454   -4.0802  -17.9999 C   0  0  0  0  0  0  0  0  0  0  0  0
    5.7694   -1.1278  -20.2133 C   0  0  0  0  0  0  0  0  0  0  0  0
    5.0564   -2.1693  -19.4395 C   0  0  0  0  0  0  0  0  0  0  0  0
    5.8815    3.5348  -21.8817 C   0  0  0  0  0  0  0  0  0  0  0  0
    6.0526    1.2393  -20.8096 C   0  0  0  0  0  0  0  0  0  0  0  0
    6.3292    4.9985  -24.2627 C   0  0  0  0  0  0  0  0  0  0  0  0
    7.4850   -0.4733  -21.8267 C   0  0  0  0  0  0  0  0  0  0  0  0
    6.3314    3.3034  -19.3786 C   0  0  0  0  0  0  0  0  0  0  0  0
    4.0597    3.3916  -19.0710 C   0  0  0  0  0  0  0  0  0  0  0  0
    5.6429    2.7085  -20.6073 C   0  0  1  0  0  0  0  0  0  0  0  0
    5.5209    4.3370  -17.2211 C   0  0  0  0  0  0  0  0  0  0  0  0
    5.6461    6.8605  -25.6186 C   0  0  0  0  0  0  0  0  0  0  0  0
    3.0729   -2.9555  -18.3475 N   0  0  0  0  0  0  0  0  0  0  0  0
    5.0409   -4.2957  -18.3390 N   0  0  0  0  0  0  0  0  0  0  0  0
    5.3104    3.7892  -18.5717 N   0  0  0  0  0  0  0  0  0  0  0  0
    4.2100    2.8086  -20.2397 N   0  3  0  0  0  0  0  0  0  0  0  0
    2.8311    3.5842  -18.4490 N   0  0  0  0  0  0  0  0  0  0  0  0
    7.5312    3.3255  -19.1242 O   0  0  0  0  0  0  0  0  0  0  0  0
    6.5708    5.7639  -25.3847 O   0  0  0  0  0  0  0  0  0  0  0  0
    8.4861   -0.8097  -22.6726 F   0  0  0  0  0  0  0  0  0  0  0  0
    5.2110    7.4243  -24.4539 F   0  0  0  0  0  0  0  0  0  0  0  0
    4.5807    6.4372  -26.3498 F   0  0  0  0  0  0  0  0  0  0  0  0
    6.3076    7.8112  -26.3264 F   0  0  0  0  0  0  0  0  0  0  0  0
    3.9559    3.0546  -22.7537 H   0  0  0  0  0  0  0  0  0  0  0  0
    7.9094    4.1074  -21.3749 H   0  0  0  0  0  0  0  0  0  0  0  0
    4.3289    4.3828  -24.8184 H   0  0  0  0  0  0  0  0  0  0  0  0
    8.2989    5.3733  -23.4666 H   0  0  0  0  0  0  0  0  0  0  0  0
    4.6261    0.4955  -19.3685 H   0  0  0  0  0  0  0  0  0  0  0  0
    7.0995   -2.5083  -21.2195 H   0  0  0  0  0  0  0  0  0  0  0  0
    7.6436    1.6406  -22.2270 H   0  0  0  0  0  0  0  0  0  0  0  0
    3.1794   -1.0986  -19.3361 H   0  0  0  0  0  0  0  0  0  0  0  0
    6.7339   -3.5282  -19.3311 H   0  0  0  0  0  0  0  0  0  0  0  0
    3.2277   -4.8366  -17.4287 H   0  0  0  0  0  0  0  0  0  0  0  0
    4.5555    4.6513  -16.7978 H   0  0  0  0  0  0  0  0  0  0  0  0
    5.9691    3.5651  -16.5783 H   0  0  0  0  0  0  0  0  0  0  0  0
    6.1957    5.2038  -17.2782 H   0  0  0  0  0  0  0  0  0  0  0  0
    3.4563    2.4761  -20.8067 H   0  0  0  0  0  0  0  0  0  0  0  0
    1.9915    3.2709  -18.8928 H   0  0  0  0  0  0  0  0  0  0  0  0
    2.7871    4.0359  -17.5580 H   0  0  0  0  0  0  0  0  0  0  0  0
  1  3  2  0  0  0  0
  1 13  1  0  0  0  0
  2  4  1  0  0  0  0
  2 13  2  0  0  0  0
  3 15  1  0  0  0  0
  4 15  2  0  0  0  0
  5 11  2  0  0  0  0
  5 14  1  0  0  0  0
  6 11  1  0  0  0  0
  6 16  2  0  0  0  0
  7 14  2  0  0  0  0
  7 16  1  0  0  0  0
  8 12  1  0  0  0  0
  8 22  2  0  0  0  0
  9 12  2  0  0  0  0
  9 23  1  0  0  0  0
 10 22  1  0  0  0  0
 10 23  2  0  0  0  0
 11 12  1  0  0  0  0
 13 19  1  0  0  0  0
 14 19  1  0  0  0  0
 15 28  1  0  0  0  0
 16 29  1  0  0  0  0
 17 19  1  0  0  0  0
 17 24  1  0  0  0  0
 17 27  2  0  0  0  0
 18 24  1  0  0  0  0
 18 25  2  0  0  0  0
 18 26  1  0  0  0  0
 19 25  1  0  0  0  0
 20 24  1  0  0  0  0
 21 28  1  0  0  0  0
 21 30  1  0  0  0  0
 21 31  1  0  0  0  0
 21 32  1  0  0  0  0
  1 33  1  0  0  0  0
  2 34  1  0  0  0  0
  3 35  1  0  0  0  0
  4 36  1  0  0  0  0
  5 37  1  0  0  0  0
  6 38  1  0  0  0  0
  7 39  1  0  0  0  0
  8 40  1  0  0  0  0
  9 41  1  0  0  0  0
 10 42  1  0  0  0  0
 20 43  1  0  0  0  0
 20 44  1  0  0  0  0
 20 45  1  0  0  0  0
 25 46  1  0  0  0  0
 26 47  1  0  0  0  0
 26 48  1  0  0  0  0
M  CHG  1  25   1
M  END
> <OMEGA_C>
7VecQM+OZUBXHrfBZALkQPuahUB+6rDBZz+jQKF4ikDJhsDBBwzrQOKonEBwYLrB8gytQF3QaD6g
gqDBrBLaQEiWvL+tzKjBjq7jQM86YD8Ga63BozptQFfi/791dpjBdIO2QG0mV8DAbZjBMrVvQAeR
gsC1/4/BtJ64QFBakL/TtKHB382hQBnWCsAbhJvBFjW8QNc5YkC1Da/B1K7BQPahnj8GeqbBAonK
QKbzn0ACGsLB3YTvQJJZ8r77nK7BfJrKQBtrU0BeB5vBrOiBQAYQWUBxkZjB05K0QAZYLUCy26TB
4qqwQOLIikDdxInB66y0QF6J20Df8szBgapEQEEmPcCzx5LBBk+hQK12icAstpLBae6pQJiCckDp
kpTBIbiGQC3AM0DY6qHBiDA1QCdjZUCml5PBrP/wQNLUVEBx/pjBKETSQLhxuEDQE8vBHMcHQZ5I
T7+WYbXBNcCmQOWT7UCVocPB9JSSQJP9zUBnzNLBgdfJQAz1+UCEnNLBMC19QAF/Q0CWB7bBwBn9
QG9vg0DT/6rBMIaKQJE/jEAXjMbBTcgEQdLxq0Cau7vBGgmUQKGz/T6z8prB+C7jQDWHIMCDwanB
fpj0QDsA0j/i0LHBHHtLQAOfjL9ssJrBPXzXQOvNYcAkpprBVJJOQFjFmsD+bYvBVMaRQKPXlEDc
YYbB3QK/QBUrZEBMoITB30LGQOGFpkDUOYrBuTRdQCZ4HkAFdKbBSej+P75WUUBsJJfBRGAyQF4m
gUDDdozBZeKiQKvCYEDv87jBMU/dQFiMkEBivq7BiAiuQIuAiUBn28HBEMLnQDIzqkAFkrfBjQ6t
QGwYRz77A6HBRNvBQF6Pyr+GV63BlS/IQDBJPz9Pv7LB4vGsQMD1778l34/BmlSbQBAaX8Aamp3B
7xeXQHBBgcCZeYvB8LKyQPkFl7/NLqPB8NyoQHDTC8Ay2ZrBwNu6QJopZkABV6/BPV63QNL/lT9y
vqjBSTjQQA7IpkDxH8HBnXfMQMm7Hr+8FbXBo5vHQHgxQUCdq5vBBnp/QGjJV0CpRZnBHP2vQEMI
KkD1+6XB2gGxQOiLe0D0s4nBqxHEQIg96ECTa8rBBhWkQO+EM8AhX4jBpZaSQGN/jMC75JXBDcuo
QIlAY0B35pTBGb6CQK+6N0Bo/aLBWZAyQHpRa0AdO5TBPrrtQDLcNkBqspnBz//aQMb1v0DUvsnB
XTzbQM0Dgb/Axr7BM17KQMQ0AEHZe8HBWGSZQKJx4UB+0MvB+kLTQAsW/kDi/9LBJeSHQAzFNUBA
b7nBdJvvQDU+k0DvcafBlGycQONehkADQMnBp/kAQbGkwEACCLfBg6ygQKGWAD+cVZnBOEnFQKuD
KMBVJ6/Bt8LRQPDFvT/KmrjBxzW3QHJcY78ReI3Bd/OXQIuacMDn6qXBLwmQQIvCmMA9ZIXB63KT
QP5hikCdHIbB8a+7QNwBQ0DAMIXBggjKQDiBlkAWcYnBPYlTQHJxKkAztafB0Sv2P4wfYUCrApjB
L74yQDLHgUCs04zB8vTlQLVNa0Cl07LBGHKaQFRth0CnI7XBxlrwQAFdj0DvrLvBAuSkQKqNoEAW
BL7BlHmuQCZFPz4W46DBnH7CQJLdy7/HQ63B62vEQA1eOj8qFrPBIWytQL7/77/av4/BdvSbQNkh
X8C0fZ3BQsiWQCsDgcC5XYvBCdCzQHr3l78sEaPBG86pQEIVDMCZuprBauO6QJUQZEDeWq/BV9u2
QDQqlD8VyqjBBhjQQDhHpkCmEcHBtPzKQOukIr+ZNbXBKJLHQJ86Q0CG7pvBESF/QKARV0BYOJnB
xF6vQBrAKEDTBabBbWuxQPyJfUDa5InBV97FQFzq6UDOkMrBV/CjQGQrM8BfQYjBP6GSQCdXjMCV
yZXBI8ioQB/6Y0ATB5XB3y2CQEy3M0Amv6LBDXEyQHrsa0CYNpTBfxTuQAUXPUC0MZrB/BTcQB/m
wECDZcnBGknZQDAzg7+i8L7BJf6qQBrl9EC/asLB+q6vQKWd6UBr6dPBWx3kQJt4BEHnCMvBouX+
QEsYSUAPpa7BA+RyQL1ZhEDksLLBFZMIQaeOkUCRWL7BIcSLQHq3r0BflMLBTdKjQLiP/z6PDpnB
VzHHQCASKcA0867BKrjJQM1ouj/HU7nBwNS3QIreY79bV43BP82YQO65cMAmz6XBP0qPQK9kmMAS
SYXBXsGTQBeeikBnMobBnkK9QF37RUAxX4XBGrXJQKs+mEDVy4nBA/lRQAuHIkDdL6fBQJL1P8Qa
YEBS4JfB8PIyQMVeg0Ae84zB

> <OMEGA_E>
vH24PriY8D5wJPM+

> <OMEGA_NBR>
     53606

$$$$
50157444
  -OEChem-04172616093D

 48 51  0     1  0  0  0  0  0999 V2000
    5.4826   -0.7236  -22.7501 C   0  0  0  0  0  0  0  0  0  0  0  0
    5.7245   -1.6589  -21.7382 C   0  0  0  0  0  0  0  0  0  0  0  0
    5.4264    0.6449  -22.4430 C   0  0  0  0  0  0  0  0  0  0  0  0
    5.0214    3.6507  -23.0731 C   0  0  0  0  0  0  0  0  0  0  0  0
    7.0315    4.3412  -21.8812 C   0  0  0  0  0  0  0  0  0  0  0  0
    5.4219    4.4094  -24.1844 C   0  0  0  0  0  0  0  0  0  0  0  0
    7.3925    5.1540  -22.9627 C   0  0  0  0  0  0  0  0  0  0  0  0
    5.3126   -3.2561  -19.0901 C   0  0  0  0  0  0  0  0  0  0  0  0
    7.3646   -2.0794  -18.5785 C   0  0  0  0  0  0  0  0  0  0  0  0
    6.7261   -3.9729  -17.3710 C   0  0  0  0  0  0  0  0  0  0  0  0
    5.9026   -1.2221  -20.4135 C   0  0  0  0  0  0  0  0  0  0  0  0
    6.1971   -2.1972  -19.3588 C   0  0  0  0  0  0  0  0  0  0  0  0
    5.8423    3.5647  -21.9210 C   0  0  0  0  0  0  0  0  0  0  0  0
    5.5944    1.1197  -21.1067 C   0  0  0  0  0  0  0  0  0  0  0  0
    6.5951    5.1815  -24.1228 C   0  0  0  0  0  0  0  0  0  0  0  0
    5.7964    0.1455  -20.0863 C   0  0  0  0  0  0  0  0  0  0  0  0
    6.2094    3.0295  -19.4783 C   0  0  0  0  0  0  0  0  0  0  0  0
    3.9712    3.4098  -19.1567 C   0  0  0  0  0  0  0  0  0  0  0  0
    5.4448    2.6342  -20.7527 C   0  0  1  0  0  0  0  0  0  0  0  0
    5.5294    3.8705  -17.2008 C   0  0  0  0  0  0  0  0  0  0  0  0
    6.9344    7.4157  -24.9081 C   0  0  0  0  0  0  0  0  0  0  0  0
    5.5864   -4.1250  -18.0937 N   0  0  0  0  0  0  0  0  0  0  0  0
    7.6151   -2.9732  -17.5996 N   0  0  0  0  0  0  0  0  0  0  0  0
    5.2596    3.5530  -18.6139 N   0  0  0  0  0  0  0  0  0  0  0  0
    4.0430    2.9032  -20.3711 N   0  3  0  0  0  0  0  0  0  0  0  0
    2.7835    3.7566  -18.5215 N   0  0  0  0  0  0  0  0  0  0  0  0
    7.3900    2.8133  -19.2164 O   0  0  0  0  0  0  0  0  0  0  0  0
    6.9157    5.9900  -25.1908 O   0  0  0  0  0  0  0  0  0  0  0  0
    5.8458    0.4822  -18.7735 F   0  0  0  0  0  0  0  0  0  0  0  0
    5.9289    7.7748  -24.0574 F   0  0  0  0  0  0  0  0  0  0  0  0
    6.7582    8.0742  -26.0813 F   0  0  0  0  0  0  0  0  0  0  0  0
    8.1310    7.7868  -24.3787 F   0  0  0  0  0  0  0  0  0  0  0  0
    5.3391   -1.0546  -23.7680 H   0  0  0  0  0  0  0  0  0  0  0  0
    5.7743   -2.7118  -21.9735 H   0  0  0  0  0  0  0  0  0  0  0  0
    5.2518    1.3561  -23.2368 H   0  0  0  0  0  0  0  0  0  0  0  0
    4.0773    3.1268  -23.0964 H   0  0  0  0  0  0  0  0  0  0  0  0
    7.6643    4.3040  -21.0068 H   0  0  0  0  0  0  0  0  0  0  0  0
    4.8285    4.3999  -25.0867 H   0  0  0  0  0  0  0  0  0  0  0  0
    8.2841    5.7609  -22.9068 H   0  0  0  0  0  0  0  0  0  0  0  0
    4.4156   -3.3744  -19.6797 H   0  0  0  0  0  0  0  0  0  0  0  0
    8.0590   -1.2734  -18.7643 H   0  0  0  0  0  0  0  0  0  0  0  0
    6.9341   -4.6782  -16.5800 H   0  0  0  0  0  0  0  0  0  0  0  0
    4.6175    4.2711  -16.7338 H   0  0  0  0  0  0  0  0  0  0  0  0
    5.8407    2.9571  -16.6728 H   0  0  0  0  0  0  0  0  0  0  0  0
    6.3319    4.6205  -17.1404 H   0  0  0  0  0  0  0  0  0  0  0  0
    3.2528    2.7245  -20.9572 H   0  0  0  0  0  0  0  0  0  0  0  0
    1.9095    3.6257  -18.9894 H   0  0  0  0  0  0  0  0  0  0  0  0
    2.8035    4.1370  -17.5969 H   0  0  0  0  0  0  0  0  0  0  0  0
  1  2  1  0  0  0  0
  1  3  2  0  0  0  0
  2 11  2  0  0  0  0
  3 14  1  0  0  0  0
  4  6  2  0  0  0  0
  4 13  1  0  0  0  0
  5  7  1  0  0  0  0
  5 13  2  0  0  0  0
  6 15  1  0  0  0  0
  7 15  2  0  0  0  0
  8 12  1  0  0  0  0
  8 22  2  0  0  0  0
  9 12  2  0  0  0  0
  9 23  1  0  0  0  0
 10 22  1  0  0  0  0
 10 23  2  0  0  0  0
 11 12  1  0  0  0  0
 11 16  1  0  0  0  0
 13 19  1  0  0  0  0
 14 16  2  0  0  0  0
 14 19  1  0  0  0  0
 15 28  1  0  0  0  0
 16 29  1  0  0  0  0
 17 19  1  0  0  0  0
 17 24  1  0  0  0  0
 17 27  2  0  0  0  0
 18 24  1  0  0  0  0
 18 25  2  0  0  0  0
 18 26  1  0  0  0  0
 19 25  1  0  0  0  0
 20 24  1  0  0  0  0
 21 28  1  0  0  0  0
 21 30  1  0  0  0  0
 21 31  1  0  0  0  0
 21 32  1  0  0  0  0
  1 33  1  0  0  0  0
  2 34  1  0  0  0  0
  3 35  1  0  0  0  0
  4 36  1  0  0  0  0
  5 37  1  0  0  0  0
  6 38  1  0  0  0  0
  7 39  1  0  0  0  0
  8 40  1  0  0  0  0
  9 41  1  0  0  0  0
 10 42  1  0  0  0  0
 20 43  1  0  0  0  0
 20 44  1  0  0  0  0
 20 45  1  0  0  0  0
 25 46  1  0  0  0  0
 26 47  1  0  0  0  0
 26 48  1  0  0  0  0
M  CHG  1  25   1
M  END
> <OMEGA_C>
3XGvQJ46Ob8tALbBfy+3QGVX1L/V563B2qStQN8WJT9Oi7PBja+gQPakaUCnlbjBCQLhQAXrikDE
DK/B8X+tQOYZjUCXecHBhY/sQMrtpECKs7fBGwGqQDVkUMB6uJjBLKvrQMQUBcDYoJTBazzXQD1E
fsDm94rBJ+K8QMZunL/bTqPBBU/GQL6fDMDA3prB3PO6QFQjZEAuXq/B7QSzQJhSjz+I2qjB/wrT
QPDOpUCK+8DBJ3y5QL3zFD7RsKDBPLPGQALjQUCj05vBdid+QII5WkDzQJnBJDyuQGeXKEBxBabB
BPGwQNi2d0Aom4nB/ObdQAtN7UDMQ8fBxcOyQLj/g8Duv5DBPK/zQLhIPsD4y4zBZE6oQKhjY0A9
6ZTBqGCBQMTOOUD596LBciQyQG9scEATLJTBFHvsQAkNNEAhu5nBS03dQAOuv0CohsnBbBC7QGHk
9j4ZMJbBgLm9QHDL+ECXdcDBGUPYQM0vAUGDptDBbBgCQWot+UCZB8PBP9qqQKD9hr/rJL7BHce4
QD6OLcClya/Bdw6oQM+VrT/k5LnBa3mCQLEcSEBtxbjBqEH1QLq6iUDvDajBGoOaQDPMjECYscjB
xIsEQYRZuEA4QbfBNkyNQJv2V8ADcJ3B3vEAQVL9or9IHZbBPuTdQAW0lcDvo4TB1sKTQJOsiEDb
3oXBMOe6QF9BPUDeYYXBxZ7KQPLak0CGH4nBXS5QQH1dLkBwqKfBO2n0PwYLaEBj6pfBN20zQPBh
hEBuxozBKd6tQMV9LL8eKbbBHOm2QCsF0L8xM67B30erQOPSMD8afbPBGkjkQDcEXECak7PB+7mc
QFEzjUDT0rPBz0zwQHFziECzLrzBK6moQJpVp0BbXbzBURaqQC0MUMBDBJnBIbnrQAsvBcAEypTB
V5zWQPbMfcCTG4vBAla9QDr2mr+PiqPBAafGQJ6hDMD4JZvBxli6QPu9YEAnTa/BE3+yQPlOkD+l
z6jBKrfSQHCKpUCso8DBnD26QPS2Gz5uyqDBXa3GQBoZREBOGJzBj719QHwIWUBnE5nBcGatQGl8
J0AQ66XBPb6xQHfleED3uInB1FnCQKfA3UD/lM3BT2CyQB+3g8Dc+5DBeEPzQI0fPsBa5YzBxWio
QFt+Y0BF9JTBEJmAQF9DNUDhlqLBYhYyQCOqcEAxBZTBajftQGzYO0B6gZrBoI/gQOk5v0CoDMnB
fe28QFpx+z7lTZbB9iK1QNik+kAUGMbBkTmgQN8+yUBgDtLB0Z3WQNiy80Djb9XBm+eoQFJvfb8O
VL7BQe+4QNgKK8DsPrDB0bqjQNQUtT+fnbnBFh77QD6kL0BxN7DBij95QF8Pj0BXqLDB1CkIQdN3
hkAsZL/Bgp+RQHE0vUCmxL/B/YuNQAGIV8BjzJ3BIw8BQS2po7/JPJbBJ+XcQIBhlcB8vITB93OU
QFopiEBo0YXBkEe9QExvP0AZiYXBl3vKQIB1lUDta4nB3ApOQLKFJUDf+abBlb7zP4KtZkB+opfB
fOMzQAPThUAFxYzBBp63QLv/Nr+hRLbBi5zAQFcq0r9MM67B40WzQNjvJD9dw7PBkFuhQKI1aEAP
sbjBob7gQDcBjUA4Ma/Bpd2sQKgvjUCAjcHBPufqQLO5p0AXzrfB+N3pQMnmU8ByY53Bd56/QBE7
BsBodJDB1tTlQPAFgMDgjovBan3EQDYAnL+LeKPB3jDPQE6RDcClC5vByt67QJrcZEBnga/Bkaa3
QJoujz/bDqnBxTHRQKClp0C/DMHBaEC/QDM4HD4Q5qDBU5vIQBkzREB7AJzBVmyAQCGsU0DUUpnB
0LOwQN0NKEA3LqbBkJixQBT5dECdqInBW3LYQAfM70CBJ8fBrIL0QKYdhsCtppXBZqbLQGl2PsDA
34jBS2GpQEMpYUCo/5TByX6DQM60NEA8GaPBxtUzQG35ZEAGLpTBL7nuQBpWOkBf7JnB6wbaQJBM
wkBNicnBgLnCQDHxBz+GjJbBeNS3QKxu+UBNTMDBeKzRQOx3AkFEe9DBdyn+QOtb/UCe6cLBogO0
QE38hb/AcL7B/ZrEQGHgK8CkL7DBvnOsQGWprD+/FbrBMv6DQNrKQ0C+4LjBRSv1QMORjEAuOajB
ANCZQOwnjECpwcjBMkEDQdFwvEAJXLfBgNf1QM66XMDyaqXB/92pQKYCpr98b47BpW/vQB5HlsA/
ZoXBJ8eTQI1ShUC72IXBzFK9QOw7O0DFkIXBM9XJQPfpk0CpGInBXAFVQFl/J0Bd0KfBAbr4P2To
WUAc7JfBuO8zQBZ7fEArvYzB

> <OMEGA_E>
tDYeP8jOKz8C7EA/

> <OMEGA_NBR>
     56363

$$$$
50168746
  -OEChem-04172616093D

 40 42  0     1  0  0  0  0  0999 V2000
    6.2245   -1.6232  -21.4973 C   0  0  0  0  0  0  0  0  0  0  0  0
    6.7492   -0.6716  -22.3939 C   0  0  0  0  0  0  0  0  0  0  0  0
    5.4714   -1.2024  -20.3860 C   0  0  0  0  0  0  0  0  0  0  0  0
    6.5272    0.7036  -22.1820 C   0  0  0  0  0  0  0  0  0  0  0  0
    5.2446    0.1694  -20.1724 C   0  0  0  0  0  0  0  0  0  0  0  0
    7.1504    4.2062  -22.0589 C   0  0  0  0  0  0  0  0  0  0  0  0
    4.9332    3.7696  -22.9810 C   0  0  0  0  0  0  0  0  0  0  0  0
    7.4300    5.0602  -23.1403 C   0  0  0  0  0  0  0  0  0  0  0  0
    5.2151    4.6259  -24.0592 C   0  0  0  0  0  0  0  0  0  0  0  0
    5.7609    1.1392  -21.0724 C   0  0  0  0  0  0  0  0  0  0  0  0
    5.8852    3.5704  -21.9499 C   0  0  0  0  0  0  0  0  0  0  0  0
    6.4576    5.2836  -24.1334 C   0  0  0  0  0  0  0  0  0  0  0  0
    6.2809    2.9990  -19.4899 C   0  0  0  0  0  0  0  0  0  0  0  0
    4.0298    3.2923  -19.1823 C   0  0  0  0  0  0  0  0  0  0  0  0
    5.5458    2.6311  -20.7730 C   0  0  2  0  0  0  0  0  0  0  0  0
    5.5525    3.8974  -17.2519 C   0  0  0  0  0  0  0  0  0  0  0  0
    6.4007    7.4973  -25.0163 C   0  0  0  0  0  0  0  0  0  0  0  0
    5.2923    3.3226  -18.5770 N   0  0  0  0  0  0  0  0  0  0  0  0
    4.1332    2.8470  -20.4111 N   0  3  0  0  0  0  0  0  0  0  0  0
    2.8302    3.6252  -18.5724 N   0  0  0  0  0  0  0  0  0  0  0  0
    7.4758    2.8697  -19.2455 O   0  0  0  0  0  0  0  0  0  0  0  0
    6.7367    6.1001  -25.2062 O   0  0  0  0  0  0  0  0  0  0  0  0
    5.0862    7.6512  -24.6958 F   0  0  0  0  0  0  0  0  0  0  0  0
    6.6394    8.1479  -26.1823 F   0  0  0  0  0  0  0  0  0  0  0  0
    7.1726    8.0505  -24.0420 F   0  0  0  0  0  0  0  0  0  0  0  0
    6.4002   -2.6758  -21.6632 H   0  0  0  0  0  0  0  0  0  0  0  0
    7.3244   -0.9977  -23.2478 H   0  0  0  0  0  0  0  0  0  0  0  0
    5.0684   -1.9311  -19.6982 H   0  0  0  0  0  0  0  0  0  0  0  0
    6.9423    1.4279  -22.8673 H   0  0  0  0  0  0  0  0  0  0  0  0
    4.6715    0.4887  -19.3145 H   0  0  0  0  0  0  0  0  0  0  0  0
    7.9040    4.0323  -21.3050 H   0  0  0  0  0  0  0  0  0  0  0  0
    3.9826    3.2588  -22.9377 H   0  0  0  0  0  0  0  0  0  0  0  0
    8.3923    5.5456  -23.2091 H   0  0  0  0  0  0  0  0  0  0  0  0
    4.4770    4.7797  -24.8324 H   0  0  0  0  0  0  0  0  0  0  0  0
    4.5988    4.0592  -16.7281 H   0  0  0  0  0  0  0  0  0  0  0  0
    6.1782    3.2057  -16.6687 H   0  0  0  0  0  0  0  0  0  0  0  0
    6.0759    4.8582  -17.3654 H   0  0  0  0  0  0  0  0  0  0  0  0
    3.3587    2.6769  -21.0203 H   0  0  0  0  0  0  0  0  0  0  0  0
    1.9708    3.5310  -19.0749 H   0  0  0  0  0  0  0  0  0  0  0  0
    2.8243    3.9596  -17.6300 H   0  0  0  0  0  0  0  0  0  0  0  0
  1  2  1  0  0  0  0
  1  3  2  0  0  0  0
  2  4  2  0  0  0  0
  3  5  1  0  0  0  0
  4 10  1  0  0  0  0
  5 10  2  0  0  0  0
  6  8  2  0  0  0  0
  6 11  1  0  0  0  0
  7  9  1  0  0  0  0
  7 11  2  0  0  0  0
  8 12  1  0  0  0  0
  9 12  2  0  0  0  0
 10 15  1  0  0  0  0
 11 15  1  0  0  0  0
 12 22  1  0  0  0  0
 13 15  1  0  0  0  0
 13 18  1  0  0  0  0
 13 21  2  0  0  0  0
 14 18  1  0  0  0  0
 14 19  2  0  0  0  0
 14 20  1  0  0  0  0
 15 19  1  0  0  0  0
 16 18  1  0  0  0  0
 17 22  1  0  0  0  0
 17 23  1  0  0  0  0
 17 24  1  0  0  0  0
 17 25  1  0  0  0  0
  1 26  1  0  0  0  0
  2 27  1  0  0  0  0
  3 28  1  0  0  0  0
  4 29  1  0  0  0  0
  5 30  1  0  0  0  0
  6 31  1  0  0  0  0
  7 32  1  0  0  0  0
  8 33  1  0  0  0  0
  9 34  1  0  0  0  0
 16 35  1  0  0  0  0
 16 36  1  0  0  0  0
 16 37  1  0  0  0  0
 19 38  1  0  0  0  0
 20 39  1  0  0  0  0
 20 40  1  0  0  0  0
M  CHG  1  19   1
M  END
> <OMEGA_C>
tS7HQEHEz7+S+qvBevnXQFTrK7+2JrPBHhavQILpmb9uFqPBFN/QQDogND/HdLHB19OnQDCBLT4K
YaHBZ9DkQDWZhkCOeLDBb9ydQFJBcUAl2bfBssLtQBHtoUBFH7nBMuKmQGMHlEA5ecDB91i4QOXR
kT89lKjB51O8QIKBZEBgma/Be6TOQBQTqUBLEcHBvvzIQPbuP0A965vB9vOAQKy1UkBZdZnBOnex
QLRjKEAlL6bB+62xQPBueUDVA4rBf9LMQHzp70B2IcjB0VqpQNalVEC5nZTBLEOEQKo1NkDkSaPB
ZCI1QO4DaEBalJTBlTnvQK6oN0DR9pnBI5PXQGc0w0BepsnB38GiQHnW9EANkcXBo3XUQKFdAkFG
ddHBsIXlQKbOAEEHVsDB1s7MQPc/K8BWTq3BzWHqQHFqf795+7nBSDCiQLMt97/ilZ3BtCfeQAHE
tj8n8LbB73yVQDo3+j4IhJrBSe38QN8IgUCQcKrBw+J+QOmPUEB2gLfBAkcGQVp1sUBIrLnBbkOP
QFvzmEDUqMbBWSmTQLTkgUA204XBmLPFQAsqTUCLWYXBoG3CQHh2m0Be7IrBivRWQB9SK0CaKajB
y0L8P/37YUBwmZjB6ME0QGlqfUBHCo3BR5vHQNmL0L/sL6zBWBTYQMeeK78oWLPBXuSvQJnam7+Q
NKPBuP3QQIrmMz9mjbHB6rGoQMgcHD4ZZKHBFdLkQHBphkAGarDBNrmdQMzecED1tLfBmIztQGrP
oUD7EbnBVISmQCDok0DXU8DBN9+4QEeEkD8flKjBg128QBISZEBbgK/BXjfOQJ0CqUA298DBshjJ
QNY2P0D/1ZvBLhCBQGBOU0BAiJnBO76xQJqDJ0ByHqbBD1CxQHytd0Bh5YnBzsfNQKEw8ECH18fB
bUypQGaOVECVmZTBsHaEQKBXNEAKPaPBSFg1QHJea0Bt3JTBVk3vQPbdNkBr2JnBBsvWQOs1w0CR
jsnBP5joQNJ9AEFBXcDBo3akQKNR9kB/u8TBnR3UQDt7AkFvPNHBMC/NQLCMK8CQmK3BSzvqQDNU
fb8vPbrBSj2jQI/U+b/+tp3BcvndQBpbtz9bCLfBeauWQA0K7j69dJrBhBD9QA7UgEDBaqrBK6x+
QLcVUEAiVLfB0ykGQdBZsUDDqbnBXcGOQEjXmECZesbBcaOSQNRygUBH0IXBx4TEQC/2SUAEPIXB
9czCQFJAmkDBnYrBhmxXQPM1J0AvCajBbEL9P12DZUAt8pjBvKs0QKhKgUAGaI3B9TXIQDth0L8C
V6zB3YzZQPE8Kb9VTLPB47CvQIzrnL8cd6PBZGbSQOPSNT8NbrHB62CoQFxzET71laHBFIvkQFMA
h0A8QLDBMv2dQA18b0Cnt7fBITDtQIhpokBE6rjBOLymQEsYk0DVWsDByDa5QDgmkD8pm6jBsWK8
QCPxY0DEbq/B+hXOQEDPqEAT7MDBngTJQMVvPkBRx5vBkwyBQOgaVECvlpnBDc+xQIkfJ0CWFabB
wSSxQAftd0C86InBEfnQQEyc8EBSWsfByiipQJx6VEAXmJTBMnWEQKTIM0A2OqPBUJA1QLf3bUDi
/5TBHSnvQDuZNUBAv5nBFPbVQEBLw0BigMnBRdrPQLS0AkF139DBsaPyQKiR/0CjkcHBO9mrQKDm
+EBtBMLBDr7NQJ9iK8CX0a3BIWnsQO35eL+JGLrBGIKiQDKr+78rG57BdyXgQNYmuT89vLbBn8GV
QMXS5D5quprBnpv8QALrgUBoLqrBvaB/QLXkTUCgYrfBTdYFQUSPskAjbrnBXS2PQOp4l0C+lMbB
x3OSQN7dgUBa3IXB3SDEQM8kSkCIM4XBTNnCQG89mkBMp4rBEnNXQPaoJUCU/KfBob/9P/N0aEDt
GJnByA01QNEQg0CJl43B

> <OMEGA_E>
BPcBP8BUAj88ewM/

> <OMEGA_NBR>
     58796

$$$$
50222478
  -OEChem-04172616093D

 48 51  0     1  0  0  0  0  0999 V2000
    4.9014    3.7935  -22.9301 C   0  0  0  0  0  0  0  0  0  0  0  0
    7.1422    4.1889  -22.0420 C   0  0  0  0  0  0  0  0  0  0  0  0
    6.5471    0.8046  -22.2016 C   0  0  0  0  0  0  0  0  0  0  0  0
    5.2054    4.5886  -24.0469 C   0  0  0  0  0  0  0  0  0  0  0  0
    7.4431    4.9823  -23.1615 C   0  0  0  0  0  0  0  0  0  0  0  0
    6.7943   -0.5564  -22.4509 C   0  0  0  0  0  0  0  0  0  0  0  0
    5.2723    0.2010  -20.2137 C   0  0  0  0  0  0  0  0  0  0  0  0
    3.6537   -2.0544  -19.0525 C   0  0  0  0  0  0  0  0  0  0  0  0
    5.7744   -3.2164  -19.0266 C   0  0  0  0  0  0  0  0  0  0  0  0
    3.9655   -3.9702  -17.7538 C   0  0  0  0  0  0  0  0  0  0  0  0
    5.5264   -1.1610  -20.4525 C   0  0  0  0  0  0  0  0  0  0  0  0
    4.9817   -2.1584  -19.5138 C   0  0  0  0  0  0  0  0  0  0  0  0
    5.8559    3.6063  -21.8996 C   0  0  0  0  0  0  0  0  0  0  0  0
    5.7737    1.1957  -21.0797 C   0  0  0  0  0  0  0  0  0  0  0  0
    6.4722    5.1899  -24.1596 C   0  0  0  0  0  0  0  0  0  0  0  0
    6.2936   -1.5408  -21.5795 C   0  0  0  0  0  0  0  0  0  0  0  0
    6.2544    3.0197  -19.4397 C   0  0  0  0  0  0  0  0  0  0  0  0
    3.9997    3.2747  -19.1268 C   0  0  0  0  0  0  0  0  0  0  0  0
    5.5252    2.6655  -20.7317 C   0  0  1  0  0  0  0  0  0  0  0  0
    5.5106    3.8466  -17.1791 C   0  0  0  0  0  0  0  0  0  0  0  0
    6.5592    7.3761  -25.0234 C   0  0  0  0  0  0  0  0  0  0  0  0
    3.1637   -2.9657  -18.1869 N   0  0  0  0  0  0  0  0  0  0  0  0
    5.2554   -4.1038  -18.1524 N   0  0  0  0  0  0  0  0  0  0  0  0
    5.2597    3.2940  -18.5160 N   0  0  0  0  0  0  0  0  0  0  0  0
    4.1075    2.8461  -20.3620 N   0  3  0  0  0  0  0  0  0  0  0  0
    2.8010    3.6153  -18.5183 N   0  0  0  0  0  0  0  0  0  0  0  0
    7.4522    2.9156  -19.1982 O   0  0  0  0  0  0  0  0  0  0  0  0
    6.7610    5.9673  -25.2523 O   0  0  0  0  0  0  0  0  0  0  0  0
    6.5305   -2.8442  -21.8566 F   0  0  0  0  0  0  0  0  0  0  0  0
    3.9330    3.3212  -22.8560 H   0  0  0  0  0  0  0  0  0  0  0  0
    7.8942    4.0212  -21.2851 H   0  0  0  0  0  0  0  0  0  0  0  0
    6.9477    1.5550  -22.8670 H   0  0  0  0  0  0  0  0  0  0  0  0
    4.4661    4.7387  -24.8198 H   0  0  0  0  0  0  0  0  0  0  0  0
    8.4198    5.4333  -23.2565 H   0  0  0  0  0  0  0  0  0  0  0  0
    7.3716   -0.8479  -23.3158 H   0  0  0  0  0  0  0  0  0  0  0  0
    4.6847    0.4900  -19.3549 H   0  0  0  0  0  0  0  0  0  0  0  0
    3.0272   -1.2432  -19.3929 H   0  0  0  0  0  0  0  0  0  0  0  0
    6.7989   -3.3173  -19.3532 H   0  0  0  0  0  0  0  0  0  0  0  0
    3.5601   -4.6941  -17.0625 H   0  0  0  0  0  0  0  0  0  0  0  0
    4.5555    3.9692  -16.6473 H   0  0  0  0  0  0  0  0  0  0  0  0
    6.1590    3.1603  -16.6145 H   0  0  0  0  0  0  0  0  0  0  0  0
    6.0057    4.8243  -17.2736 H   0  0  0  0  0  0  0  0  0  0  0  0
    6.8088    7.9359  -25.9368 H   0  0  0  0  0  0  0  0  0  0  0  0
    5.5072    7.5574  -24.7582 H   0  0  0  0  0  0  0  0  0  0  0  0
    7.2077    7.7102  -24.2001 H   0  0  0  0  0  0  0  0  0  0  0  0
    3.3344    2.6662  -20.9703 H   0  0  0  0  0  0  0  0  0  0  0  0
    1.9432    3.5408  -19.0269 H   0  0  0  0  0  0  0  0  0  0  0  0
    2.7945    3.9354  -17.5710 H   0  0  0  0  0  0  0  0  0  0  0  0
  1  4  2  0  0  0  0
  1 13  1  0  0  0  0
  2  5  1  0  0  0  0
  2 13  2  0  0  0  0
  3  6  2  0  0  0  0
  3 14  1  0  0  0  0
  4 15  1  0  0  0  0
  5 15  2  0  0  0  0
  6 16  1  0  0  0  0
  7 11  1  0  0  0  0
  7 14  2  0  0  0  0
  8 12  1  0  0  0  0
  8 22  2  0  0  0  0
  9 12  2  0  0  0  0
  9 23  1  0  0  0  0
 10 22  1  0  0  0  0
 10 23  2  0  0  0  0
 11 12  1  0  0  0  0
 11 16  2  0  0  0  0
 13 19  1  0  0  0  0
 14 19  1  0  0  0  0
 15 28  1  0  0  0  0
 16 29  1  0  0  0  0
 17 19  1  0  0  0  0
 17 24  1  0  0  0  0
 17 27  2  0  0  0  0
 18 24  1  0  0  0  0
 18 25  2  0  0  0  0
 18 26  1  0  0  0  0
 19 25  1  0  0  0  0
 20 24  1  0  0  0  0
 21 28  1  0  0  0  0
  1 30  1  0  0  0  0
  2 31  1  0  0  0  0
  3 32  1  0  0  0  0
  4 33  1  0  0  0  0
  5 34  1  0  0  0  0
  6 35  1  0  0  0  0
  7 36  1  0  0  0  0
  8 37  1  0  0  0  0
  9 38  1  0  0  0  0
 10 39  1  0  0  0  0
 20 40  1  0  0  0  0
 20 41  1  0  0  0  0
 20 42  1  0  0  0  0
 21 43  1  0  0  0  0
 21 44  1  0  0  0  0
 21 45  1  0  0  0  0
 25 46  1  0  0  0  0
 26 47  1  0  0  0  0
 26 48  1  0  0  0  0
M  CHG  1  25   1
M  END
> <OMEGA_C>
mticQH/JckDacLfB34zkQIELhkAAVrDBnIHRQBP6TT/OnLHBUJKmQCvWkkATYMDBHS7uQDlvn0Cs
SrnBt2rZQAlyDr9gm7PBaLaoQJXHTT6ntaHB/tZpQFN7A8CJa5jBBci4QBfZTcB8NpjBRst9QAEX
fsDOB47BGNiwQPeblL+unqPBsWmfQPgjCsA7HJzBkmO7QGDNZkBdMq/Bw8G4QC0LmT8po6jBCxzP
QKITpkDURsHBPGXJQHY6xb/XoqzBsiPIQC1DQUBwhJvBkPp/QIqUUUDIA5nBuc6wQFmYKkCY2qXB
BVewQA0udkC5bonBWuXRQKcI7EDoL8jBY3lKQGbNPcDRfpHBEiyoQBdSg8AiOJHB1U+oQBfQUkDA
IJTBQnCDQAUnNkBU5aLBWEQzQElhZ0CIJZTBGnjuQPGYOkDilZnBBVrYQM7zvkC1BMrBCPrQQHUH
NsBK2q7BvLZ7QAOPVEAW2bbBA538QA+ugED1R6rBl1PeQMwKxz+O77bBaOqOQCSjl0AFj8bBp7cG
QeDdrUBVDbrB2+PrQMASWb/RhrrBAOmVQP3l+j7E1prBzr1BQAkin7+XJJvBeZDZQDhOVMBo05rB
NdljQEw2lsD/f4jBB8eRQI8HfkCmLYXBShbFQGdCSkCR6oTB0i7AQJJgmkBHMIrBU+HZQOjy/UCS
fs/B4zqwQNPV8UDhEMbBfqXmQLy59kC6mcHBLGdVQJKjKkAuw6fB9rv4PxWdYkAGN5jBKNkyQOPd
e0BXkYzBcT6dQDW3cECel7fB0QPkQOoSh0BgJ7DBkdrRQD6GTz9oirHBWwmnQGS2kUC3iMDB1bjt
QGFhoEAWH7nBKuLZQDaVDL+eirPBBEaoQEC4Tj4Qx6HBXN64QMTYTcDGSJjBcBBqQJlnA8AaWZjB
aIJ+QN9LfsDcBY7BobGwQMJolL9VqaPB5WOfQNwkCsCMI5zBY0S7QB7UZkBEMa/B/Yy4QIVgmT+U
p6jBBB3PQFb7pUAKRsHBL5XJQGmdxL/doqzBXvfHQMUnQUBxhpvB8KB/QMgVU0DpGJnBLaCwQHG5
KkA73KXBRxWwQIfldkCdc4nBHkLTQEgy7EADAcjBlXeoQG9Yg8BYRJHBWxRLQIXRPcAOaJHBSCSo
QOrYVED0N5TB9USDQGi9NkDJ76LBmtEyQExqaEAIOZTB4RbuQNKzN0D5g5nBPTPYQFoDv0AcAMrB
JkzRQNGkNcBA4K7BSzB9QDYCUUAjHbfBA7D7QNGPgkD79anBhgLfQHMXyD/xyrbBXciPQCWolUBj
2cbBulUGQfGLr0Czw7nBjarsQICFVr+JarrB4xKVQD4t+j48+JrBu5XZQKxCVMBe85rBBt9BQGa0
nr/rAZvBs8JkQJh0lsDOg4jBbGWRQFVtgEABU4XB46LDQBgdSUBC5ITB4C3BQCUemkBOEorB6gfb
QHs2/kBXT8/BVQCyQJHg8kBYp8XBF/joQO739UC2hcHB/xVVQK3jKkBCy6fBmLH3P2KLYkDQQJjB
o2UyQDerfUBOrYzByEzkQGtKhkAiRbDBAQmdQFCIckBtnrfBaDDRQCsOTD+uuLHBEB7uQIsToEDV
JbnBpOamQE0wk0D/dMDBpyfZQIBxEL/WrbPBFf+nQHz0Sj4z3qHBTe9pQMZqA8AvSZjBs++4QKpi
TcA+OJjBoCt/QB+QfcAh2Y3B1F2wQDcDlb8ptaPBHUafQD8dCsAQHZzBoEK7QIyOZkATTq/BWiq4
QKVJmD9CzajBJEvPQO7dpkC1MMHB+BPJQD70xb9HsqzBQenHQEKQQECBtJvBpAGAQFHlVEDiSpnB
JXWwQE8wKkBHA6bBsG2wQK8NdUBzlInBttPQQDYD7UDQC8jBeHNLQB5iPcBfQJHB27qoQIr9gsDg
JJHB0NWoQGBDYEDP35TByDWDQIDCNkDnDaPBJg8zQKcMZkCYMpTBF4XtQOShMkByf5nBZb7YQJgj
wED92cnBgdTQQC9oNsAe367BjBz8QHXsgEBLJ6rBLmJ8QEmSU0DiJ7fB5CzeQH/uxT+vB7fBS6kG
QU+yrkC5zbnBWHqPQBQGmECjscbBe7brQNiXW787lLrBp+uUQHSZ+j7vDJvBgWxBQP6Gn7+4/ZrB
JaPZQMiqU8AY55rBh8VlQOz0lcC+R4jBVKeSQKd9hkBr9oXBYPm6QCU4O0CBT4XBLFzJQHxEk0Bt
AInBbBTZQFc2/0BhSs/BB8yuQJfY8UDwJcbBEo/kQO04+EC2UcHBMbhUQIsLKkBf1qfB7m73PzV1
W0C+/ZfBTukyQKMCfUDwuozBYHTkQMQlhkBgXrDBOOecQLGAckB7irfBVrTRQJjNST+IlLHBwvLt
QLf8n0D+QbnBP3amQH4zk0CXZcDBR97ZQIIAE7/xdrPBrVKoQG7mRz5AvqHBGiC5QAKiTMCw15fB
pQxpQOo6BcDulJjBiHR9QHmlfsCA+43BtOCwQE5vlb8MhaPBwG+fQJlaCsDL/JvBRG27QNlWZkDJ
S6/BYY24QPC9lz/CsajBKNjOQKXTpkAUOsHB69LJQFjVxr9tcqzB4E3IQFCqQEDVopvB+zWAQPYM
U0BOKJnBic6wQNEiKkBA9KXBS8awQIv7dkDckInBk2/QQAUT7UAHA8jBVWmoQAfQgsBw45DBeohJ
QHerP8BQrpHBnpqoQEyoVEAlT5TBqoGDQIx3NkBc/aLBz8EzQB6xaEBkRJTBBnTuQN1QN0AippnB
ZPbXQI8uwEA25cnB0sTRQBTxNsBRhq7BTYX8QKmzgECuUarBnxx8QHegU0CZArfBQ6TeQE5zxD/V
67bBY5AGQfOcrkBc+rnBjcyOQFQYmEDwksbBmo3sQCDpXr/DVbrBjw+VQH4E+j6x9prB1DvaQHnV
UcDKO5rBDWxAQEnYpL9fgJvBuVNjQIeYlsBBfojBQCySQPeVgEBraIXBVF7EQGJBSUARAoXBhurB
QKUemkB+O4rBXmPYQEha/0DNQ8/BuIyuQIoW8kCL/MXBYJ/kQJAJ+EAUWMHBVGRVQA2jKkAm0qfB
k2L5P0TfYkBmR5jBNokzQCwefkCVuozB

> <OMEGA_E>
kJulPcD7rD2AcrA98FCdPQ==

> <OMEGA_NBR>
     62379

$$$$
50168820
  -OEChem-04172616093D

 49 52  0     1  0  0  0  0  0999 V2000
    6.8339   -0.5663  -22.4556 C   0  0  0  0  0  0  0  0  0  0  0  0
    5.2746   -4.0959  -18.1377 C   0  0  0  0  0  0  0  0  0  0  0  0
    6.3241   -1.5447  -21.5824 C   0  0  0  0  0  0  0  0  0  0  0  0
    5.8141   -3.1830  -19.0542 C   0  0  0  0  0  0  0  0  0  0  0  0
    6.5799    0.7974  -22.2148 C   0  0  0  0  0  0  0  0  0  0  0  0
    4.9169    3.7387  -22.9429 C   0  0  0  0  0  0  0  0  0  0  0  0
    7.1293    4.2159  -22.0192 C   0  0  0  0  0  0  0  0  0  0  0  0
    5.2087    4.5408  -24.0537 C   0  0  0  0  0  0  0  0  0  0  0  0
    7.4185    5.0173  -23.1340 C   0  0  0  0  0  0  0  0  0  0  0  0
    5.3065    0.2015  -20.2263 C   0  0  0  0  0  0  0  0  0  0  0  0
    3.9264   -3.9667  -17.7471 C   0  0  0  0  0  0  0  0  0  0  0  0
    5.5434   -1.1581  -20.4727 C   0  0  0  0  0  0  0  0  0  0  0  0
    4.9896   -2.1566  -19.5486 C   0  0  0  0  0  0  0  0  0  0  0  0
    5.8620    3.5914  -21.8992 C   0  0  0  0  0  0  0  0  0  0  0  0
    5.8013    1.1896  -21.0952 C   0  0  0  0  0  0  0  0  0  0  0  0
    6.4520    5.1913  -24.1431 C   0  0  0  0  0  0  0  0  0  0  0  0
    3.6358   -2.0883  -19.1221 C   0  0  0  0  0  0  0  0  0  0  0  0
    6.2705    2.9988  -19.4471 C   0  0  0  0  0  0  0  0  0  0  0  0
    4.0165    3.2873  -19.1475 C   0  0  0  0  0  0  0  0  0  0  0  0
    5.5421    2.6507  -20.7391 C   0  0  1  0  0  0  0  0  0  0  0  0
    5.5246    3.8385  -17.1905 C   0  0  0  0  0  0  0  0  0  0  0  0
    6.4582    7.4048  -24.9900 C   0  0  0  0  0  0  0  0  0  0  0  0
    3.1358   -2.9838  -18.2395 N   0  0  0  0  0  0  0  0  0  0  0  0
    5.2749    3.3006  -18.5329 N   0  0  0  0  0  0  0  0  0  0  0  0
    4.1227    2.8250  -20.3701 N   0  3  0  0  0  0  0  0  0  0  0  0
    2.8201    3.6537  -18.5496 N   0  0  0  0  0  0  0  0  0  0  0  0
    7.4615    2.8487  -19.1957 O   0  0  0  0  0  0  0  0  0  0  0  0
    6.7093    5.9983  -25.2228 O   0  0  0  0  0  0  0  0  0  0  0  0
    2.7961   -1.1542  -19.6334 F   0  0  0  0  0  0  0  0  0  0  0  0
    5.2216    7.6093  -24.4534 F   0  0  0  0  0  0  0  0  0  0  0  0
    6.5202    8.0434  -26.1834 F   0  0  0  0  0  0  0  0  0  0  0  0
    7.4033    7.9257  -24.1623 F   0  0  0  0  0  0  0  0  0  0  0  0
    7.4213   -0.8620  -23.3123 H   0  0  0  0  0  0  0  0  0  0  0  0
    5.8856   -4.8902  -17.7348 H   0  0  0  0  0  0  0  0  0  0  0  0
    6.5300   -2.5897  -21.7612 H   0  0  0  0  0  0  0  0  0  0  0  0
    6.8422   -3.2662  -19.3744 H   0  0  0  0  0  0  0  0  0  0  0  0
    6.9783    1.5462  -22.8834 H   0  0  0  0  0  0  0  0  0  0  0  0
    3.9661    3.2302  -22.8824 H   0  0  0  0  0  0  0  0  0  0  0  0
    7.8742    4.0742  -21.2501 H   0  0  0  0  0  0  0  0  0  0  0  0
    4.4791    4.6594  -24.8411 H   0  0  0  0  0  0  0  0  0  0  0  0
    8.3810    5.4999  -23.2180 H   0  0  0  0  0  0  0  0  0  0  0  0
    4.7361    0.4937  -19.3570 H   0  0  0  0  0  0  0  0  0  0  0  0
    3.5138   -4.6689  -17.0378 H   0  0  0  0  0  0  0  0  0  0  0  0
    4.5667    3.9884  -16.6710 H   0  0  0  0  0  0  0  0  0  0  0  0
    6.1435    3.1297  -16.6209 H   0  0  0  0  0  0  0  0  0  0  0  0
    6.0511    4.8008  -17.2733 H   0  0  0  0  0  0  0  0  0  0  0  0
    3.3494    2.6190  -20.9698 H   0  0  0  0  0  0  0  0  0  0  0  0
    1.9622    3.5725  -19.0569 H   0  0  0  0  0  0  0  0  0  0  0  0
    2.8153    3.9990  -17.6111 H   0  0  0  0  0  0  0  0  0  0  0  0
  1  3  1  0  0  0  0
  1  5  2  0  0  0  0
  2  4  2  0  0  0  0
  2 11  1  0  0  0  0
  3 12  2  0  0  0  0
  4 13  1  0  0  0  0
  5 15  1  0  0  0  0
  6  8  2  0  0  0  0
  6 14  1  0  0  0  0
  7  9  1  0  0  0  0
  7 14  2  0  0  0  0
  8 16  1  0  0  0  0
  9 16  2  0  0  0  0
 10 12  1  0  0  0  0
 10 15  2  0  0  0  0
 11 23  2  0  0  0  0
 12 13  1  0  0  0  0
 13 17  2  0  0  0  0
 14 20  1  0  0  0  0
 15 20  1  0  0  0  0
 16 28  1  0  0  0  0
 17 23  1  0  0  0  0
 17 29  1  0  0  0  0
 18 20  1  0  0  0  0
 18 24  1  0  0  0  0
 18 27  2  0  0  0  0
 19 24  1  0  0  0  0
 19 25  2  0  0  0  0
 19 26  1  0  0  0  0
 20 25  1  0  0  0  0
 21 24  1  0  0  0  0
 22 28  1  0  0  0  0
 22 30  1  0  0  0  0
 22 31  1  0  0  0  0
 22 32  1  0  0  0  0
  1 33  1  0  0  0  0
  2 34  1  0  0  0  0
  3 35  1  0  0  0  0
  4 36  1  0  0  0  0
  5 37  1  0  0  0  0
  6 38  1  0  0  0  0
  7 39  1  0  0  0  0
  8 40  1  0  0  0  0
  9 41  1  0  0  0  0
 10 42  1  0  0  0  0
 11 43  1  0  0  0  0
 21 44  1  0  0  0  0
 21 45  1  0  0  0  0
 21 46  1  0  0  0  0
 25 47  1  0  0  0  0
 26 48  1  0  0  0  0
 26 49  1  0  0  0  0
M  CHG  1  25   1
M  END
> <OMEGA_C>
Lq/aQHj3EL8RpbPBo8moQOURg8DpGZHBpV7KQEW6xb+rqKzB3wy6QLy2S8AGb5jBbo7SQE8hTD/u
t7HBjFedQE1Hb0AFi7fBPyPkQFXohkBAJ7DB+q2mQOxNkUD/bcDBoWTtQHyNoEB0ErnB3M6pQIdR
Tj5gz6HBkEl7QGDefcAg+o3BfGOxQFY8lL8syKPBzKqfQPcECsB4Y5zBuZW7QOHZZUCTMa/BWKS5
QFdEmD/gwqjBLXfOQFYfpkAeJcHBIbFoQD6nBcAa+pjBmqfIQKTsP0CZk5vBaYeAQIBiUkAGLpnB
QVmxQMKlKUCn6aXBicmwQImqdUAehonBa6nOQL/z7ECW68fBw7BIQGf2PsCJ6pHBUcyoQLo9U0Bs
Q5TBHe2DQD/NNEAI9qLB3Hw0QGrVaUCSZZTBdsTuQMNQNkDgkJnBvLLWQK7xv0BZyMnBx/IyQG68
k78sEZ3BXxenQMp/80CpoMPBdaXQQOWxAEGYd9HBAujsQKSf/UBPTMHB53rtQCOpXL+if7rB0la8
QC98nMDV4I3BiPXQQDu+JcAAF67BDfPaQF4JUcCy/prB5k3fQF/qxT8bEbfBl9R9QNS6TkATD7fB
rvn7QBhggkBAAKrBlVSPQGwZlUCAusbBtxgGQUL/r0B2vrnBDo6XQEDK/D4e25rBEuJgQFJnlcBp
TYjBJiKSQJZBf0AfXoXB7pfEQP5MSECM94TB06LBQACgmUCiL4rBrlxWQBieJ0AhwqfBHin7P2Wj
ZECNdJjBCi40QC7wf0Cg44zBpN3ZQGx7Dr/ur7PBP22pQEuTgsACA5HBqPnJQOlMxL/JoqzBnKG6
QDvpScAiP5jBq73RQMp3Tj8GwbHB6z2dQA/lb0DgebfBD1/kQLOLhkDKM7DBubimQLY1kUCka8DB
ar3tQGzkn0A6LLnBasepQC7wWT7otaHBpuR7QLjUfsBAHY7Bx1mxQBiwkr9RtKPBZNyfQE1WCcDG
UJzBcJG7QL9FZkCNJq/B/Vu5QIqfmT9ltKjBxbDOQPidpUAMNsHB4aBoQImCBsCSFJnBkKTIQI2s
QECXhZvBBoiAQNOAU0AQG5nBYD6xQIlcKkC72KXBNAKxQHVjeEBPionBAnDOQIo77ECjJMjBBKhI
QOHHQMAXJJLB196oQEDgVEAwOJTB592DQPC9NUD74KLBc2U0QAatakAwU5TBULruQPefNkACg5nB
LuXWQNc1v0B25MnBYqoyQATklb8NLZ3B11DOQOT+/0BIy9HBUKDtQNa0/UBe8cHBhKSnQPOw8kDE
asPBk1TsQGhMWr+CmLrB30S9QFOPm8DdsI3B3J3QQF0FJcDdDq7BGMbbQMXHTcDApZrBdRXeQM3+
xj/lKrfBGER9QIwaUEBT7bbB4E78QPPPgUBmFarBaFWPQOwDlUC9tcbBNlkGQdr4rkB96LnBlsKX
QIo7AT+4t5rBQHlhQARNlsCui4jBjGiSQBxEgUA/YYXBitHEQOprS0BM7ITBJOnBQFzqmkBBUIrB
2SpWQJKQKEAFqqfBgP36P6EaZUCCYJjBtAM0QIV6gEBZ04zBRKvaQLDrEL9WjbPBIrunQOPCgsAP
DpHB3h/KQBJDxb+Hk6zBGWy5QMvYSsDjSZjBPPPSQPCNTD8smbHBJH6dQDvfbkDkg7fBqs3kQHhA
hkB0ZLDBBZymQPO3kEAufMDBjdjtQL97n0AFZbnBvkGqQFD8WD5KqKHBh7V4QAWUfcDDH47BCFax
QL4Wk7/2rqPBfDWfQJRVCcDxWZzBng68QMmqZUAvO6/Br1W6QOxOmT/bmajBEoLOQNw2pUACXMHB
LVVnQKkpBcD7H5nBpibJQLQSQkD1gZvBzNqAQNtdUEAsA5nBH/6xQNZnKkDd1aXBbdiwQIxFdECV
VInBJiHPQLZ57EA30cfBsnxGQAO5PsCrJ5LBQiapQKVdUkAyHZTBOYeEQERMNUCX5qLBm500QHnk
ZEDqJpTBz4XvQHehPEDtkZnBqSrWQMdzv0DM88nB+DIyQMcvkr9gRp3Bi7LuQMVA/EApc8HBy3Ko
QHpJ80C3EMPBsb/PQFjRAEHIRtHBzlPtQD+HXb9ea7rBYSC7QAYmnMCUwo3BUGPQQAucJcCuBq7B
h4XaQDnZT8CqsZrBjsnfQHPGxT889bbBePp9QLa8TkA26rbBQfb8QHuZgUARU6rBfACPQLh2lECv
ucbB1GYGQQx+rkD2NrrBxzmYQJXNAT/IrJrBwp9dQCddlcC3hojBNCqSQIdEe0AtG4XBHZPFQLPi
R0Bx4YTBZ5PAQDOJmUBs7InB+8ZXQAudKUC0yqfBVLH7P09mX0DHO5jBeMozQN0veUDKkIzBykjb
QAHHEL/KSrPBJAKoQH9qgsAT2JDBI5LKQPmIxL8oTazBZKK5QAK3ScB2CJjBYynTQKO1TD+GeLHB
beLkQDhkhkCsdbDB2rSdQOkTb0CXqLfBu/LtQDHen0Cxa7nBQuCmQGb7kED6mMDBZIKpQG5NZD7l
p6HBF+54QA/7fcBLCI7BGTKxQP3bkb8ghqPBZzefQF+4CMCtJ5zBVCO8QInhZUA6WK/Bidi5QNgk
mj+snajBba3OQNWxpUBfZ8HBthlnQH6LBcDaBZnBmiDJQEF2QkA7nZvB6NCAQJfaUEAzC5nBNcqx
QMoVK0Cr66XBrg6xQHZWdUAXbonB5XLQQE4l7UDgw8fBcFdGQDejP8BXHZLBMj2pQJm2U0CKOJTB
D2iEQEZWN0CL/6LB4nw0QMgrY0DxDpTBQF/vQE2EOkBIppnB01jWQI8FwECV+8nBl5gxQJQUlL9K
OJ3BecfwQMos/EB4hsHB30KqQIet9EDi1cLB5tvQQIo1AUEyNtHBTGPuQJhvXr8kErrB6pS7QPSM
m8CMfo3BnifRQMtBJcCwpq3Bv9jaQOP6TcCvXJrBgjvgQGFhxT/z07bBwgT9QGqVgUCrZKrBl4N+
QCmvTkATG7fBDm8GQSz+rkAsMrrBDWGPQDeulECX3cbB4NOWQBS1BT/yyprBeOFdQAfIlcCjfIjB
H2KSQG0yfUADOoXBJmrFQClWSEAw+ITBzz7BQCHXmUDOAYrBxHpXQASALUCm8afBoRz7PyYuXUAz
GJjBvcozQLxedkBkbYzBw3nXQHKfCr/+7rPBtgxLQPtPQMDcRpHBSTnHQDhuw79dBa3BrqFoQPRB
BMBEvJjBDibQQPTLUT+ex7HBTgWdQC47ckAac7fBAlzkQBUohkBUJLDBeUunQOnckUBZcsDBy4zu
QC/YnkDIKrnBrnmnQEH1VT6Z36HBO6GBQLYmgMBZlI3BOmKvQNRUk7/n6aPBeeGeQAwlCsCCYZzB
rB+7QP5FZ0DAF6/BpaK3QJF/mj+gvKjBwd3PQGwRpUAGRMHBSoW5QI4OTMBiUJjBR83HQKHKQECP
eJvBZKZ/QEToVEBeApnB8DiwQGkyK0C2zaXBzZWwQHuIeEAidInBZTbTQIJ660BlScjBT5eqQC2e
gsALE5HBcDOoQCh2VUDIJZTB7vSCQIvvN0Dx06LB3VEzQNcSbED4JJTBOfLtQEcvN0ANgJnBuCTZ
QFYHvkCsAcrBaUPjQBWKUMANMJvBMl/xQGTs+kCZdMHBBIKrQHwF9EACT8TBTWrXQBGQ/0Ci1tHB
paDpQN2MVL/a6brBhPAJQMGTPcCiZY7BFfrMQNqRJMB8ra7BQOQ+QMacpL8FpJvBsDvdQLRnyT/C
B7fBI+l7QO1GVECn47bBDwX8QHI7gUA396nB8QyQQJ4tlkC0v8bB6/QGQd8PrUBb5rnBtcyUQMUx
/D5895rBR39sQCZEl8Au0ofBCBCSQFiZgUApR4XBKjDEQM8JS0Cy3ITBkczBQF/SmkA0NYrBcSpU
QKQZLEB1o6fB4Wz4P+clZ0BtKpjBDmMzQBfagEB8nYzBh8zZQOoaD7+jsLPBC1OpQLCYgcDnypDB
1dfJQH7fw78tl6zBQnm6QLVjSMAqF5jBf6vRQOVWTj+H1bHBy3/kQIKLhkDRTLDBADKdQOFZcUB1
kbfBR/HtQIY5oEA6NLnB/cGmQNxCkkDGcsDBaI6pQGB7Zj45yKHBuK57QB/cfMDy5o3BVSaxQM1K
kb8ZsKPBAqqfQHcoCMChOZzBP5W7QAO5ZkCwR6/BqDS5QGBimj+J0ajBxNjOQNyApkDXMsHB1EZo
QO4ZBcAo9pjBk63IQNR1QUDdt5vBrKyAQP3vU0CtNZnBYS6xQCDIKkAcAKbBH0WxQG1OdUCekYnB
Mc3MQLls7EDImcjBPGJIQHIOP8BP+ZHBNYmpQCxMYECX2JTBfeKDQGyVNkCUAaPBlFk0QGXRY0Ci
D5TBFlvuQFP6M0CtipnBP5nXQMivv0CC6snBKEsyQBkWk7/wDZ3BHRrOQLbz/kCMZdLB+dLpQFzp
/0DwH8LB6MSkQMXV8UAUesTBtE/sQJ10XL/nkrrBjTe9QLxsmsDxao3BtXzQQGziJMA39K3Bi53b
QHpVTMB2fZrByxDeQLdhxj8jR7fB/3X8QNphgUCPNarB1wB9QB7dUUDGCrfBzH4GQZkhr0CH67nB
nFuPQIZzlkA+uMbBAHSXQM34BT/e0ZrBFk9hQCA1lcB0TYjBxWyTQGY0hkB654XBf1O8QCXHO0DT
UIXBht7JQCi9k0D8B4nBpRJWQO/tKUDbyqfBEgz6P8DYWEBn15fBWSc0QIc9ekBzkYzBeQvcQCnJ
EL9yV7PByTWnQIHXgsAtCpHBJCrLQKEixb8XaKzBnx+5QBdXS8CsSJjBHvPTQPKzTD/NeLHB7HTk
QFc6h0A3TbDBYdKdQM3JbUBoorfBfEjtQKzMoEAoQrnB+L6mQCB2kEAKkcDBqjSqQJTHWj5+tKHB
RL93QFcSfcBmG47BmauxQEzxkr+2oqPBfzefQMM6CcC7U5zBLSG8QEjBZUD6Ra/Buoq6QPxnmT8g
nqjB8y7OQFvhpUBxUcHB02VnQDpSBMDrEpnBVUDJQJAEQkByjJvB9eaAQDlZUEA/EJnBJByyQIWB
KkBf4aXBmM6wQDqgc0BGVonBmf7QQB7+7EB48sfBJRBGQH7DPcAbIJLB4japQILVUkDQLZTB9aSE
QBvbNUBS+aLBKI40QLqpY0DiKZTBNIfvQFzzOkBbkpnBYN7VQMmlv0AAAcrBq8UyQALXjr81Ip3B
YRKrQDKP9UCsAMPBC5nRQLrKAEG2fNHBLcLxQLDW+0Ao0sHBDkDvQESCXb/bHLrBxGq6QOxbnMAY
vY3Bo7XRQMKFJcBjy63BvyraQLcJUcCFtprBFhvhQKrGxT/AybbBW3T8QFgJg0BTLKrB9E9/QLdO
TEBzH7fB0PIFQSaUsEB1+bnBjVaPQCe2k0Dv3sbBW6aXQKSOAj/2z5rBUkpcQJkIlcCjhIjBhwqS
QBdGe0BqK4XBtQXFQGE5RkBL5oTBKA/BQC76mEA50YnB8xNYQDDTKkA55qfBm437PxetXUB1O5jB
GKEzQOCTd0DIj4zBrb/WQOZ9DL+NCLTBCP5KQEK7PsDEOJHBL7/GQJSmw78MCq3BfPloQMi6AsCA
p5jBKKnPQO1XUD8p5bHBJbzkQPL1hEDZXLDB2sWcQGXnckAQdbfBqOfuQCmrnUD8YbnB+wCnQINK
kkBQccDBHhOoQBDWXT5byqHB7GKBQNc5f8ANj43BmZGvQIpwkr812qPB6QGfQJU6CcDMTZzBqCu7
QAPHZkDPMK/BZtC3QPyfmj/ZwKjB+9fPQMvnpEBjVsHBb3m5QBZvS8C+QpjBtODHQO7AQUC/kpvB
DvV/QLdzVkA3IZnBtE2wQK04K0C33qXBH4GwQCYCdUCrYInBuEfRQGaO60BHO8jBRFuqQJRKgsB2
C5HBUNWoQHHpYEAZsZTBxRODQOQHOECb4aLBfCMzQNzuaECZEpTBd6HtQML4NEADa5nBIzPZQH9m
vkAk+snB3jLjQLNAUMDzJZvB8pmnQLWk8kANlsXBLAraQPFeAEFab9HBG/rqQDgj+0BuWcDBN4To
QFi8V7+rD7vB9usJQP2YO8CYVY7BjC7MQG/KJMBtsa7BdJ8/QK+9oL9JiZvBeWncQGU0yD/vOrfB
P6j8QJGcfkAcSqrBHxV7QCS6VUA71rbBHEcHQUkiq0BFObrBDo2PQIchl0AZrMbBngyWQI9nAT9P
yprBgqhrQDDElsD81IfBN72SQORMhkCauIXBgyK7QEfwOkABLIXB+WXJQMdEk0A3w4jB6VVUQNxB
K0CEpKfBDnr3P2koX0Ah45fBISczQDoEgECnnIzBWH7WQPYvDb8qDrTBJSNMQC1JP8BEA5HBjIXG
QGj/w7+xDa3BIyZpQEJaA8DrhJjBzWvPQJSjTz+C67HBpqTkQFyrhUCjLrDBsgudQAvIckCybrfB
0NjuQG2HnkB8MLnB0EqnQAxRkkBpY8DBe4ynQP2lWT4c26HB1keCQFVif8D9ZI3BVy6vQHrwkr8L
46PBcfaeQFqCCcD5R5zBG0S7QFgBZ0A+IK/BUXi3QHIamj/lzKjBYPbPQARDpUDHOcHBgMO5QBhO
S8AtRJjBO9DHQGuBQECyj5vBLg2AQC19V0A0OJnBT0awQGngKkB936XBVpiwQJy9dkAOf4nBhATT
QP4B7EDHD8jBGRmrQG83gsDw/ZDB0/CoQPqtYUAux5TBxheDQKTnN0BP6KLBzTUzQGIda0BfQJTB
hEntQH1bMUAjVpnBj+vYQPSevkDE6cnBfGzjQKufT8CPOJvBTw7UQAoSAEF3qdHBGxPzQEuK+0AW
0MHB5ZmsQORi9EA+VcPBbzroQM2CWL9mFrvBHVALQL1iPMBQCY7BmxvMQETyJMDhr67BZEU/QC2k
or8RX5vBSEPcQKjhxz9IPbfB81/8QDlfgEDeCqrB9c57QEYoVUCt3LbBnikHQa12rEAg9LnB7/GP
QCr7lkCqpsbBjkeVQBluAD9m5ZrBnTFuQDvPlsDNnIfB9wCTQDP3h0BE64XB2o+6QO69PEDgLIXB
+vfJQDmqk0AN8IjBJFdUQMl9KkALo6fBTdH3P0pLYUAoFpjBkxAzQDKLgUB61YzBhnnXQMGMC79U
5LPBio9LQHS0P8ClIZHBCR/HQPtdw78i9qzBCtFoQHacA8C1mpjBriHQQDESUT87yLHBHiSdQLdv
cUBfjrfBPzjkQGpEhkDYH7DB9XSnQEaKkUBBh8DB9nXuQKIPn0C4IbnBVEynQDBAXD6B4KHBJfaB
QOG/f8DIe43BHD2vQAqckr/736PBBOWeQAaGCcBmTZzBohW7QOX9ZkBfKa/BaoK3QEimmj9PxKjB
1+TPQCgNpUDqRsHBIKq5QFVGS8DMQJjBnLbHQIyVQUCcl5vBtwuAQJZPWEAqNZnBAyGwQBVGK0C5
36XBZJ+wQMKld0Dxh4nBb6DTQMjK60ADEsjBfOCqQPhGgsA8A5HB3v+oQGwbZEDj3JTBUvuCQDGg
OECc5aLB1E4zQFX4aUCcGJTBJQntQA9qMUAGUpnBeuDYQKRdvkDh98nBnWnjQJNnT8DlIZvBVY+t
QMZ29EDSMsPBIlvUQPD+/0CHqdHBcS70QA78+kA37sHBq7XpQI9iVr9M2brB7ZYKQJr2PMD+M47B
cdPMQF2aJMBelq7Bpfc+QMdGo7+nepvBN0jdQP+9yD88C7fBxF18QJn8UkAnC7fBdb37QPF4gUCT
6KnBhlmQQMWvlUB13sbBdd0GQc+FrUDL0LnBx5KUQK6VAD/x/JrBX1dtQNcRl8Dqu4fB/FSTQFEx
iUB/+YXBeYW5QM6mPECVRoXBwrzKQPREk0A/2ojBngZUQBhZK0D7nafB+6X3P16JXkCP0ZfBom4z
QFYRgUA3sIzB

> <OMEGA_E>
SB8cPvCwHT6I4x0+gFYePkB3Hz5QMiE+oJEhPli0IT7w9yU+kMsnPg==

> <OMEGA_NBR>
     71043

$$$$
50157419
  -OEChem-04172616093D

 53 56  0     1  0  0  0  0  0999 V2000
    6.8043   -0.5445  -22.4605 C   0  0  0  0  0  0  0  0  0  0  0  0
    3.1044   -2.9688  -18.2238 C   0  0  0  0  0  0  0  0  0  0  0  0
    6.2547   -1.5248  -21.6178 C   0  0  0  0  0  0  0  0  0  0  0  0
    3.6016   -2.0368  -19.1437 C   0  0  0  0  0  0  0  0  0  0  0  0
    6.5901    0.8177  -22.1877 C   0  0  0  0  0  0  0  0  0  0  0  0
    4.9311    3.7309  -22.9399 C   0  0  0  0  0  0  0  0  0  0  0  0
    7.1544    4.1956  -22.0379 C   0  0  0  0  0  0  0  0  0  0  0  0
    5.2285    4.5043  -24.0696 C   0  0  0  0  0  0  0  0  0  0  0  0
    7.4489    4.9688  -23.1707 C   0  0  0  0  0  0  0  0  0  0  0  0
    5.2781    0.2166  -20.2227 C   0  0  0  0  0  0  0  0  0  0  0  0
    3.9615   -3.9705  -17.7307 C   0  0  0  0  0  0  0  0  0  0  0  0
    5.4964   -1.1424  -20.4889 C   0  0  0  0  0  0  0  0  0  0  0  0
    4.9426   -2.1418  -19.5616 C   0  0  0  0  0  0  0  0  0  0  0  0
    5.8773    3.5959  -21.8950 C   0  0  0  0  0  0  0  0  0  0  0  0
    5.8056    1.2088  -21.0707 C   0  0  0  0  0  0  0  0  0  0  0  0
    6.4783    5.1392  -24.1767 C   0  0  0  0  0  0  0  0  0  0  0  0
    5.7616   -3.1624  -19.0191 C   0  0  0  0  0  0  0  0  0  0  0  0
    6.2759    3.0403  -19.4276 C   0  0  0  0  0  0  0  0  0  0  0  0
    4.0164    3.2788  -19.1236 C   0  0  0  0  0  0  0  0  0  0  0  0
    5.5537    2.6737  -20.7195 C   0  0  1  0  0  0  0  0  0  0  0  0
    5.5146    3.8589  -17.1678 C   0  0  0  0  0  0  0  0  0  0  0  0
    7.9695   -3.9992  -18.5531 C   0  0  0  0  0  0  0  0  0  0  0  0
    6.5321    7.3627  -24.9903 C   0  0  0  0  0  0  0  0  0  0  0  0
    5.2546   -4.0511  -18.1217 N   0  0  0  0  0  0  0  0  0  0  0  0
    5.2749    3.3151  -18.5103 N   0  0  0  0  0  0  0  0  0  0  0  0
    4.1330    2.8519  -20.3580 N   0  3  0  0  0  0  0  0  0  0  0  0
    2.8108    3.5972  -18.5169 N   0  0  0  0  0  0  0  0  0  0  0  0
    7.4737    2.9483  -19.1815 O   0  0  0  0  0  0  0  0  0  0  0  0
    6.7260    5.9512  -25.2552 O   0  0  0  0  0  0  0  0  0  0  0  0
    7.1013   -3.1970  -19.3801 O   0  0  0  0  0  0  0  0  0  0  0  0
    7.5308    7.8415  -24.2009 F   0  0  0  0  0  0  0  0  0  0  0  0
    5.3307    7.5948  -24.3887 F   0  0  0  0  0  0  0  0  0  0  0  0
    6.5551    8.0230  -26.1733 F   0  0  0  0  0  0  0  0  0  0  0  0
    7.3916   -0.8375  -23.3182 H   0  0  0  0  0  0  0  0  0  0  0  0
    2.0762   -2.9195  -17.8970 H   0  0  0  0  0  0  0  0  0  0  0  0
    6.4120   -2.5714  -21.8330 H   0  0  0  0  0  0  0  0  0  0  0  0
    2.9673   -1.2508  -19.5262 H   0  0  0  0  0  0  0  0  0  0  0  0
    7.0238    1.5697  -22.8301 H   0  0  0  0  0  0  0  0  0  0  0  0
    3.9747    3.2349  -22.8654 H   0  0  0  0  0  0  0  0  0  0  0  0
    7.9029    4.0566  -21.2719 H   0  0  0  0  0  0  0  0  0  0  0  0
    4.4981    4.6126  -24.8577 H   0  0  0  0  0  0  0  0  0  0  0  0
    8.4189    5.4329  -23.2713 H   0  0  0  0  0  0  0  0  0  0  0  0
    4.6991    0.5054  -19.3580 H   0  0  0  0  0  0  0  0  0  0  0  0
    3.5783   -4.6916  -17.0239 H   0  0  0  0  0  0  0  0  0  0  0  0
    4.5547    3.9831  -16.6452 H   0  0  0  0  0  0  0  0  0  0  0  0
    6.1539    3.1664  -16.6006 H   0  0  0  0  0  0  0  0  0  0  0  0
    6.0152    4.8348  -17.2517 H   0  0  0  0  0  0  0  0  0  0  0  0
    8.9978   -3.9452  -18.9398 H   0  0  0  0  0  0  0  0  0  0  0  0
    7.9456   -3.6199  -17.5209 H   0  0  0  0  0  0  0  0  0  0  0  0
    7.6267   -5.0443  -18.5677 H   0  0  0  0  0  0  0  0  0  0  0  0
    3.3641    2.6715  -20.9714 H   0  0  0  0  0  0  0  0  0  0  0  0
    1.9552    3.5064  -19.0265 H   0  0  0  0  0  0  0  0  0  0  0  0
    2.7969    3.9176  -17.5697 H   0  0  0  0  0  0  0  0  0  0  0  0
  1  3  1  0  0  0  0
  1  5  2  0  0  0  0
  2  4  2  0  0  0  0
  2 11  1  0  0  0  0
  3 12  2  0  0  0  0
  4 13  1  0  0  0  0
  5 15  1  0  0  0  0
  6  8  2  0  0  0  0
  6 14  1  0  0  0  0
  7  9  1  0  0  0  0
  7 14  2  0  0  0  0
  8 16  1  0  0  0  0
  9 16  2  0  0  0  0
 10 12  1  0  0  0  0
 10 15  2  0  0  0  0
 11 24  2  0  0  0  0
 12 13  1  0  0  0  0
 13 17  2  0  0  0  0
 14 20  1  0  0  0  0
 15 20  1  0  0  0  0
 16 29  1  0  0  0  0
 17 24  1  0  0  0  0
 17 30  1  0  0  0  0
 18 20  1  0  0  0  0
 18 25  1  0  0  0  0
 18 28  2  0  0  0  0
 19 25  1  0  0  0  0
 19 26  2  0  0  0  0
 19 27  1  0  0  0  0
 20 26  1  0  0  0  0
 21 25  1  0  0  0  0
 22 30  1  0  0  0  0
 23 29  1  0  0  0  0
 23 31  1  0  0  0  0
 23 32  1  0  0  0  0
 23 33  1  0  0  0  0
  1 34  1  0  0  0  0
  2 35  1  0  0  0  0
  3 36  1  0  0  0  0
  4 37  1  0  0  0  0
  5 38  1  0  0  0  0
  6 39  1  0  0  0  0
  7 40  1  0  0  0  0
  8 41  1  0  0  0  0
  9 42  1  0  0  0  0
 10 43  1  0  0  0  0
 11 44  1  0  0  0  0
 21 45  1  0  0  0  0
 21 46  1  0  0  0  0
 21 47  1  0  0  0  0
 22 48  1  0  0  0  0
 22 49  1  0  0  0  0
 22 50  1  0  0  0  0
 26 51  1  0  0  0  0
 27 52  1  0  0  0  0
 27 53  1  0  0  0  0
M  CHG  1  26   1
M  END
> <OMEGA_C>
Ib3ZQBNkC78Xr7PBzK5GQAUBPsBpypHBpSbIQFYsw78s8azBAoBmQHJaAsBQJpnByeHSQMBRUT9b
gLHBy8udQN3HbkDYhLfB1/DkQJhChkCeTbDBElCnQOUikECCjsDBc13uQHEAn0CvXbnBP+aoQATR
XT4wyKHBZIl9QPEcfsCT2I3Bp+KvQMo6kr8u6aPBxCmeQJ8TCcAdfpzBdxK8QMQjZkAGKa/BPse5
QL24mj/DkKjBlU7PQAZ0pEDWacHBLF+4QPNjSsA4J5jBetTIQASVQkDGa5vBP4aAQEXXUUAu/ZjB
4rexQDUeK0CawaXBpXewQKD4dkC2V4nBvgX/QFHyf8DTbJTBKQfRQDmb60Aq7MfBWSWoQNyigcBE
+ZDBP8yoQIEqVEAhFZTBqkGEQLmFNkBB3aLBWuMzQGg4ZkCMIpTBrCjvQI2xPEChc5nBhzvXQHpw
vkC9CsrBHz7jQAScTMB2CpvBuPzwQJPt+kB0m8HBDZWqQO4I80D/G8PBC8PRQGJeAEHeYtHBXYjs
QLhjVr+mi7rBO+EEQEzYOsAJLY/B0C7NQGqRJMACqq7B0uc9QNsYoL+PNZzB+8LgQGPqyD8ipLbB
HmF+QJQIT0Bu7LbBjuT8QJXPgUDFLKrBu/CPQI6ak0Cn3MbB6bMGQRnarUCVK7rBFV+WQP9jAT88
3ZrBpwJlQHchlsAAMYjBB8CRQKjqfkBZKYXB0+zEQO2mSkAFzoTBdXzAQOO2mkBwA4rBGPcPQVx+
fMDIhJfBvkL+QAysZ8C+KozBIA70QPlqocC+ipTB6k1XQCH6KkCFxafBIEP6P35pYEBTNpjBDgEz
QGy5ekC0jozBjLzaQAoeAb/BorPBeXxJQE2NO8DEb5HB4wXJQHhgv7+hAq3B45BoQJ5yAMBC6pjB
K3TTQKyLWj/CZLHBAe/jQOQ7h0DxEbDBjhadQGaJb0AGabfBIrLtQGROn0DzN7nBed2mQCERkEAS
g8DB1wSpQMAYaj6Oz6HBgtJ/QCgqfcAbx43BVGGwQO5mkL8b/qPBaKqeQJzPCMAJoJzBpjS7QBKU
Z0CsAK/BE8m5QJZinT/WhKjB6vnOQNsrpEBlYMHBI524QPSZS8CZiZjBvHPIQFbHQ0ADXZvBoGWA
QJiUVkDsCJnBPzqxQJASLED5paXBR1OwQHwbeEANSonBlz8AQYbFccBZ3ZPBbOHSQHdN6kC+i8jB
OrqoQOwZgsB2SJHB0h2pQKK6Y0C1nJTB/+ODQL/9NkDUtaLBwk8zQNoUZ0B4CZTBmg7uQGlVNkCl
GpnBBcHXQJyzvEB/OMrB6hfjQDalT8BlqZvBIFvxQBtj+UBqv8HBJFyrQLOl80A7ksTBqHfXQF8Q
/kBBINLB6/PtQARbSb/2c7rB4ZwIQMzTNsCPg47B8D3OQHd7IsBBz67B+zNAQCmNmr/WypvB/W3h
QEeWzj82cLbBCYX7QLqCg0Du0qnBxNx8QEb/T0AWzrbBj2EGQRwdrkB5ArrBmZ+PQMBYk0CH2sbB
s0WWQPADAj+b55rBPNBnQDJ4lcCjCojB0HySQEAriECDvIXBBYG6QNYDPkDhBIXB7WXJQAielEB5
oIjBKYgQQdjmccA/NJfB/r7/QIvXScCVnozBexz3QBnPmcBs0ZHB7lhWQCBQKEDQcqfBbLX4P77P
WkDL1pfB+WIyQJhAf0BgoYzBfJjEQLuvHr/O5bXB6HdTQGJGScA9ApDB21W5QECIy79DQ67BPDhp
QG3XC8B9t5fBiiXBQIV+Pz/KZbPBgsKbQDQwfEC657bBZbrlQBYZfkC5trDBdhunQHTjl0Aalr/B
ww7xQPoqmUCeabnBWEGmQE89Mz6SpqHBSs6IQKmJgsCMu4zBJB+qQDaRmL/CHqTBbTieQIl+DMAJ
CpzBBJi6QPaoZECyMq/B/R2yQOpulD9QLKnBu+vRQIQ/pkCV4MDBtVK8QGjXScA7XJjBdhXGQLYQ
PUDYwJvBzcV9QM+bWkCkNZnBsK+tQEHSKEBkC6bBcTWxQDlPd0Aip4nBVMcBQQv1gsCYJZjBnIO/
QM+2zkCU7dDB3euwQAREgsCm05DBJj+oQO5lYUAR45TB39OAQFriOUCT46LBdxkyQNFzckAkLJTB
2c/rQKiBLkDgvpnBjkzfQBWNwEChNMnBZOXlQJLxRsB2U5zB2eqfQATa5UDJG8zBWdeuQAjTrEAj
ZNbBoUzTQLWb6EBwFNjBm+fPQOSsbL+TsL3Bk+ETQEu6SsBjoIzBCVO8QFLwKMA5KLDBRfI6QB+l
ub+hS5rB3/bJQDeyvj8PR7nBt1N2QG8rZkCrFrbB/QL+QOMxaUAkJqvBLxiPQIb9oEBWXsXBve8I
QVJKo0AyYrrB+BeaQACX8j6w7JnBZG6AQMRDmsBJz4bBmGOUQKaLiUCY+4XBKnS6QA0lPUBURIXB
9X3LQJwHk0BSUInBz40RQUf1fMB74pvBRzcDQU4IfsCIbo/Bl6T3QAFJo8AR85nBGb9OQK8VLkDg
gafBDTf0PxkNa0Bn75fBzKozQEaAhUB4yYzByr7EQML7F78C/LbByBVuQLn5hcDRFpjB+7G5QPLC
y7/nj6/BrJWBQHT1TcBFxJ/BM/TBQGq2Qz/SHLTBBImcQPZme0CDFbfB/z3mQExogECAobDBKM+n
QJURmECssr/B7j/xQDSGm0AXLbnBsnSpQOlzAT6jTaLBwtOMQHwihsAyNo7BlmGsQO+onb/cLKXB
v2ShQIBNEcCZTp3BDFq7QEPdZEBoSK/BqAi0QIjNkT/Ss6nBHNDRQOBHqEAplsDBFzu2QCI7FcCc
NpPBWFbHQLRfOUCa7pvBLex/QDU/VEDnPJnBpvuuQLXRJkDlSKbBQjKyQLwlbkBGlonB+i8AQTop
6r8L+5PBTzrKQJpk7UAN3sjBQ6arQJ0GUsC774vBI0+pQNENW0A26JTBDguCQH4nNkCEDaPByA00
QEO+aUALFJTBmxrtQG3EKkCt+ZnBEMncQIuTwkCBA8nBUQbWQMrttr+7nZDBAd6gQCl37kDta8XB
MjjLQKnq/EAyAdPB9A3iQC+hA0GfeMLBmmTPQB+TXr8P577Baw49QNxwncCWuZnBrWa7QDGHKMD2
z7HBnixjQBjMTMCHbKfB5m/KQMp4wz/e2bnBFFR4QPHUY0DVZLbBzpL+QG5KbECdDqvBdTqQQAIJ
oEArscXByecIQdyPpkDhDbrB3QGfQPKryj7KWprBhMCEQLsOnsDmT4jBmTiVQNoVhEBNy4XBjNe7
QO0SM0Cxc4XBZy3MQGi6jkCfDonBD9ULQeOah79pnZHBC2UEQeQ7MsCAKZDBRHQAQUh0+b9BupzB
+URRQGIYK0Ajt6fBTiT4P6ecYkDs2ZfBkXs1QHIqgEBjmIzBwVHIQCEzGb/CVbbBp+iJQKDWjsD0
EJjB8BO+QGY2yr+dsa7BJsuTQLVjX8DPu5/Bo4XDQG3xQz8N3LPB/GebQLYdfkCeMLfBoJzlQHZ9
fkCyDbHBc8+mQHmrmUAsyr/BjOrwQHa/mUAep7nBwpmnQPPuKD5oVKLBVNGPQEBnhcCZK43B7xSu
QBckmr/xiKTBEayjQOE2D8CCXJzB+HK6QEdbZUBKh6/B9mKzQK5xlD8WuKnBLI7RQCa7p0Aj68DB
1nCpQCR/AMDxJ5HBiOfGQCHqO0DAHpzBECp/QODqVUAXR5nBgiSuQG5dKEAbbqbBLlqyQMvzcUDd
yInBEF+8QBMkFb82NoLBoaHGQIBp60Ben8nBSyKfQFY3PsB66onB7BCpQCm3XUAzD5XBHVmBQF4K
OEC8HKPBCpUzQBaJakDGAJTBCMrsQHopLkCLM5rBKNDdQHopw0DzAMnB39S7QHlSUb9cpI3BOJG7
QGt6+kAMwL/Bzf6iQJ0I50AFxc/BKd7gQDJEBEGbS87B/+bTQPqVZL9/IL7BP8V7QEC/rcAKf5rB
I3DCQI/7J8DxlbDBulCPQE2NbMAtJKjB7SPMQCD3wT8KsbnBzqF1QAT3Z0BBarbBEPH9QMGraECF
jqvBSOiOQI1ho0DNicXBPukIQRdzo0CXsrrBOUyZQJvp6D5r0JrBl+2HQEBVncC8QYfBpG6VQKnr
hUCH84XBAWm8QNpmN0BXmIXBJSnMQC7ckEA3Y4nBWa/LQCqdxT78jYDBbFybQPAgEr/YUH7BCXnO
QKA6sb+meXzBwZNPQMZVLUBovKfB4Kf2P1TnYkBgspfB73k1QIV/gED/g4zB

> <OMEGA_E>
3CCCPuBaiT5wg90+IMX0PqTsBz8=

> <OMEGA_NBR>
     75772

$$$$
50161549
  -OEChem-04172616093D

 45 48  0     1  0  0  0  0  0999 V2000
    6.6292   -0.5774  -22.6694 C   0  0  0  0  0  0  0  0  0  0  0  0
    6.1513   -1.5544  -21.7757 C   0  0  0  0  0  0  0  0  0  0  0  0
    6.4529    0.7904  -22.3828 C   0  0  0  0  0  0  0  0  0  0  0  0
    3.9046   -3.8906  -17.7052 C   0  0  0  0  0  0  0  0  0  0  0  0
    5.2433   -4.0221  -18.1276 C   0  0  0  0  0  0  0  0  0  0  0  0
    5.0435    4.0119  -22.8774 C   0  0  0  0  0  0  0  0  0  0  0  0
    7.3243    4.0617  -22.0704 C   0  0  0  0  0  0  0  0  0  0  0  0
    5.3017    0.2016  -20.3194 C   0  0  0  0  0  0  0  0  0  0  0  0
    3.6103   -2.0008  -19.2112 C   0  0  0  0  0  0  0  0  0  0  0  0
    5.4363    4.8596  -23.9292 C   0  0  0  0  0  0  0  0  0  0  0  0
    7.6474    4.9032  -23.1509 C   0  0  0  0  0  0  0  0  0  0  0  0
    5.4802   -1.1586  -20.5998 C   0  0  0  0  0  0  0  0  0  0  0  0
    4.9472   -2.1352  -19.6460 C   0  0  0  0  0  0  0  0  0  0  0  0
    5.7841    1.1882  -21.1962 C   0  0  0  0  0  0  0  0  0  0  0  0
    5.9915    3.6239  -21.9050 C   0  0  0  0  0  0  0  0  0  0  0  0
    3.0872   -2.8815  -18.2514 C   0  0  0  0  0  0  0  0  0  0  0  0
    5.7686   -3.1487  -19.1005 C   0  0  0  0  0  0  0  0  0  0  0  0
    6.3387    2.9183  -19.4840 C   0  0  0  0  0  0  0  0  0  0  0  0
    4.1033    3.3322  -19.1949 C   0  0  0  0  0  0  0  0  0  0  0  0
    5.6021    2.6480  -20.7918 C   0  0  2  0  0  0  0  0  0  0  0  0
    5.6014    3.6043  -17.1727 C   0  0  0  0  0  0  0  0  0  0  0  0
    6.7126    5.2939  -24.0484 N   0  0  0  0  0  0  0  0  0  0  0  0
    5.3742    3.3849  -18.6068 N   0  0  0  0  0  0  0  0  0  0  0  0
    4.1919    2.8709  -20.4197 N   0  3  0  0  0  0  0  0  0  0  0  0
    2.9153    3.7113  -18.5888 N   0  0  0  0  0  0  0  0  0  0  0  0
    7.5132    2.6836  -19.2197 O   0  0  0  0  0  0  0  0  0  0  0  0
    1.8009   -2.7536  -17.8551 F   0  0  0  0  0  0  0  0  0  0  0  0
    7.0707   -3.2565  -19.4601 F   0  0  0  0  0  0  0  0  0  0  0  0
    7.1321   -0.8772  -23.5769 H   0  0  0  0  0  0  0  0  0  0  0  0
    6.2979   -2.6029  -21.9896 H   0  0  0  0  0  0  0  0  0  0  0  0
    6.8274    1.5374  -23.0671 H   0  0  0  0  0  0  0  0  0  0  0  0
    3.5051   -4.5646  -16.9618 H   0  0  0  0  0  0  0  0  0  0  0  0
    5.8680   -4.7946  -17.7041 H   0  0  0  0  0  0  0  0  0  0  0  0
    4.0243    3.6603  -22.8140 H   0  0  0  0  0  0  0  0  0  0  0  0
    8.0892    3.7530  -21.3733 H   0  0  0  0  0  0  0  0  0  0  0  0
    4.7864    0.4965  -19.4172 H   0  0  0  0  0  0  0  0  0  0  0  0
    2.9881   -1.2177  -19.6187 H   0  0  0  0  0  0  0  0  0  0  0  0
    4.7027    5.1709  -24.6582 H   0  0  0  0  0  0  0  0  0  0  0  0
    8.6652    5.2455  -23.2668 H   0  0  0  0  0  0  0  0  0  0  0  0
    4.6768    3.9762  -16.7071 H   0  0  0  0  0  0  0  0  0  0  0  0
    5.8946    2.6559  -16.6987 H   0  0  0  0  0  0  0  0  0  0  0  0
    6.4034    4.3450  -17.0377 H   0  0  0  0  0  0  0  0  0  0  0  0
    3.4110    2.6945  -21.0188 H   0  0  0  0  0  0  0  0  0  0  0  0
    2.0532    3.6407  -19.0906 H   0  0  0  0  0  0  0  0  0  0  0  0
    2.9206    4.0553  -17.6499 H   0  0  0  0  0  0  0  0  0  0  0  0
  1  2  1  0  0  0  0
  1  3  2  0  0  0  0
  2 12  2  0  0  0  0
  3 14  1  0  0  0  0
  4  5  2  0  0  0  0
  4 16  1  0  0  0  0
  5 17  1  0  0  0  0
  6 10  2  0  0  0  0
  6 15  1  0  0  0  0
  7 11  1  0  0  0  0
  7 15  2  0  0  0  0
  8 12  1  0  0  0  0
  8 14  2  0  0  0  0
  9 13  1  0  0  0  0
  9 16  2  0  0  0  0
 10 22  1  0  0  0  0
 11 22  2  0  0  0  0
 12 13  1  0  0  0  0
 13 17  2  0  0  0  0
 14 20  1  0  0  0  0
 15 20  1  0  0  0  0
 16 27  1  0  0  0  0
 17 28  1  0  0  0  0
 18 20  1  0  0  0  0
 18 23  1  0  0  0  0
 18 26  2  0  0  0  0
 19 23  1  0  0  0  0
 19 24  2  0  0  0  0
 19 25  1  0  0  0  0
 20 24  1  0  0  0  0
 21 23  1  0  0  0  0
  1 29  1  0  0  0  0
  2 30  1  0  0  0  0
  3 31  1  0  0  0  0
  4 32  1  0  0  0  0
  5 33  1  0  0  0  0
  6 34  1  0  0  0  0
  7 35  1  0  0  0  0
  8 36  1  0  0  0  0
  9 37  1  0  0  0  0
 10 38  1  0  0  0  0
 11 39  1  0  0  0  0
 21 40  1  0  0  0  0
 21 41  1  0  0  0  0
 21 42  1  0  0  0  0
 24 43  1  0  0  0  0
 25 44  1  0  0  0  0
 25 45  1  0  0  0  0
M  CHG  1  24   1
M  END
> <OMEGA_C>
BCLUQInQE7/6WrXBT9fEQOX3xr+6NK7BYX7OQJNWSj/+D7PBn+R5QCwAecBJpI3BGsmnQBm1gMA/
BZHBFWShQDRhgEDqBLfB92DqQG35gUBDkLDBkKepQFVzTj4qjqLBkQ5nQJQNAMCbsJnB9fWtQMiB
m0AQb7/BwLf0QE3nnEAQNbnBp12vQLpNlL9tzKTBik+eQMOnCMAEK53BVhe5QIgVmD/mkanBPbq/
QHPtZ0BiPa/BIZRFQMxpOMDnApLBIZi4QAWEScDPzZjB/NbKQLjFOkAw35vB6U2DQOJCVUA8j5nB
G0SzQAV5KUCcVabBnD6zQL+sZkCgYYnBpM3WQFxnqUAcY8DBqfmrQEOiWECk2pTBUCSGQJC8N0CA
W6PB0pM6QK2FbUDitZTBeWzwQM/AK0DlwZnBbILmPzc7MMBE147BUkPiQClqUMBcrpvB5znkQAST
YL+NnbzBM4jJQFKVJsCg6q/BunnaQGzIxD9dibjBWVNgQAgRksDasYfB+8a7QGhtmcDwoY3Bz8aA
QBBCakADg7bBam0BQTgxcEBr/KrBbiqZQL4z/j59VpvBND0/QEPdm78S85zBXnyWQP53pUDnQ8XB
qKQKQdTap0BgIrrBIqiVQLl6fkAuqIXBgqC8QLj6KUD2loXBZOjMQBYKi0A1TYjBdU1aQHlyLECV
JqjBGWcDQLUAaUCKuZjBaOo6QAvFgUDrMo3BFJTSQItPFL/zhrXBcwXEQAgnx79TR67BglzNQCvu
ST+gLrPBEYx6QL9gecAMm43BfxuoQAbggMD9/ZDBxJjqQAmRgUCKm7DBwX2hQAVjgEAj/bbBc2Sq
QIXKTj7LaqLBHb5nQG8dAMDOmpnBeO30QJx2nEB/QrnBlw6uQNJvm0BTar/BJpevQN5ZlL9Ku6TB
i6CeQEO6CMDlGJ3BcDq5QO4VmD+JhKnBauG/QMC9Z0B3O6/BDk1GQDCMOMBe7pHBX+y4QBinScDI
wJjBdtfKQJPZO0Bf1pvBBlCDQJWZVkCLoZnBPGuzQCaXKUBhTabBQSezQAXJakAcfYnBWvPWQOAj
qUAfaMDBxwOsQLfdW0Cy85TBfEiGQHe8N0A3XKPBIA46QH6ybUB80pTBP0PwQFMjLECknpnBd0bo
P8YaMMB0tI7BgJriQMdmUMCPn5vBssjhQEU5Yb9/57zBWnrIQCSwJsAvBbDBCrPYQFR+xD89v7jB
U/BgQJNdksDBr4fBuRa8QIenmcCpoI3BvI8BQRb4bkAWEavB59aAQFOIakAIdLbBf8eaQGqY/j6A
FJvBtew/QC7cm79P2ZzBwMQKQa8+p0B5OLrBCIuWQBKApUDZOcXB4b+VQLEngkAw2oXB57+7QAcW
LkBOlYXBxlHNQFmQjECecYjBoa1aQDF5K0CYIajBq/YCQJ0rZ0Cjz5jB/+05QK9wgkCTXY3BIgXT
QO9QFr+cMbXBgFLDQLMax7/NBq7BUtPNQEiNSD/L87LBrn5+QMM8fsDOpY3Bl5RGQDyzP8AcxJHB
RzOiQN71fkAUQbfBaJrqQCX5gkBcdrDBuZqoQOidWj7icaLB3cG4QHDHR8Dr8pjBnLauQHXImkAy
pL/B4uT0QIkYnkBWE7nBF4utQFpKk7/OsaTBXP2cQEamCMDRCZ3BpYq4QN3CmD/8eqnBHS3AQJMY
aEB1Sq/BgAqqQDrggMAxLJHB5jFkQJY/BMBDYJnB6M/KQLUPO0B7zJvBHieDQGocU0Cqc5nB+2ez
QDM+KkA8UabBOU2zQJR0aUDxZ4nBfDnXQD3IqUDnZsDBIgWrQPuQTECkY5TB2kuGQFWuOUBPa6PB
3po6QLaabUD7s5TBEtrwQC4OMEDo0JnB4y7FQB0hnsBhAo3BIlYtQMtEkb/gQ53B6xfjQIdjZb+t
brzBmPLHQGzGJsDJq6/BJhDaQIz8wj/Mc7jBWr5nQHDJlcBRx4fB2eoEQHRYPcB+FY/Bwt+BQDms
ZkAQ6LbBbnkBQQxHc0CXyqrBkFqYQMVfBD98N5vB8lbZQB+dS8AfypvBdnaXQNj5o0A6m8XBg54K
QfncqUBi27nB4LiUQFK3ckBCNIXBA23GQAX7OEDiLYXBi/nEQLsok0C8monB4v5aQCvTMUAJYajB
ykcEQMcVbkCc7pjBO1Y6QGYdgEClDI3BL+vRQJDwFb8Mh7XBRvDCQIy2x7/MT67BMwvNQEycSD8/
K7PB9ySAQIO2e8CsZo3BXL5IQDXpPMCGiJHBDIfqQJ45gkAbdrDBqaehQKwWgEB0/LbBvRGqQFYY
Tj5MZaLB9DK5QAf6SMC4HpnBKLz0QN5qnUDmELnB4BeuQKxwm0CIXb/Bt06uQJ6TlL/BzaTB3rSd
QAwvCcAcKJ3BzRm5QO68lz9cfanBDvi/QDTKZ0DeLa/BSJKqQKW5gMD4KJHBCC5mQCEVA8AwV5nB
WfTKQPl1O0DHyZvBznaDQIr0VkAWnpnBxImzQFluKUDiQqbBgC6zQNsPakDvbInB88/WQGG/qUC0
Q8DBohmsQJEsW0Ab5JTBWGWGQImiN0DbUqPBZqE6QOwGcEBa5pTB2nzwQMiPLEB7mpnBuHzFQMFD
nsDDB43BWdQvQHfljb+4OJ3B2y/hQKZ7Y7/e47zBAzzHQMQCJ8CUDbDBVX/YQJ2dwz/Pu7jByNRp
QNjHk8A7V4fBSYcHQLcfOcC1tY7B34MBQbzLcECx4qrBhyaBQFH8aECMhrbBTAybQDBz/z7h/JrB
f3fZQCR8TsD6IpzBZJoKQau2qEBi8rnBa56WQJ4+pUCpNsXBPriVQF6qgUBkyoXB5OK7QJVmLUCc
hoXBSUHNQLpMjEAJX4jBROFaQNIaK0B1FKjBDKkDQISuakAn8ZjBl5I6QDi6g0CAdI3B

> <OMEGA_E>
AAAAAAAAAAAAknY9oNN3PQ==

> <OMEGA_NBR>
      3442

$$$$
50161550
  -OEChem-04172616093D

 45 48  0     1  0  0  0  0  0999 V2000
    6.6292   -0.5774  -22.6694 C   0  0  0  0  0  0  0  0  0  0  0  0
    6.1513   -1.5544  -21.7757 C   0  0  0  0  0  0  0  0  0  0  0  0
    6.4529    0.7904  -22.3828 C   0  0  0  0  0  0  0  0  0  0  0  0
    3.9046   -3.8906  -17.7052 C   0  0  0  0  0  0  0  0  0  0  0  0
    5.2433   -4.0221  -18.1276 C   0  0  0  0  0  0  0  0  0  0  0  0
    5.0435    4.0119  -22.8774 C   0  0  0  0  0  0  0  0  0  0  0  0
    7.3243    4.0617  -22.0704 C   0  0  0  0  0  0  0  0  0  0  0  0
    5.3017    0.2016  -20.3194 C   0  0  0  0  0  0  0  0  0  0  0  0
    3.6103   -2.0008  -19.2112 C   0  0  0  0  0  0  0  0  0  0  0  0
    5.4363    4.8596  -23.9292 C   0  0  0  0  0  0  0  0  0  0  0  0
    7.6474    4.9032  -23.1509 C   0  0  0  0  0  0  0  0  0  0  0  0
    5.4802   -1.1586  -20.5998 C   0  0  0  0  0  0  0  0  0  0  0  0
    4.9472   -2.1352  -19.6460 C   0  0  0  0  0  0  0  0  0  0  0  0
    5.7841    1.1882  -21.1962 C   0  0  0  0  0  0  0  0  0  0  0  0
    5.9915    3.6239  -21.9050 C   0  0  0  0  0  0  0  0  0  0  0  0
    3.0872   -2.8815  -18.2514 C   0  0  0  0  0  0  0  0  0  0  0  0
    5.7686   -3.1487  -19.1005 C   0  0  0  0  0  0  0  0  0  0  0  0
    6.3387    2.9183  -19.4840 C   0  0  0  0  0  0  0  0  0  0  0  0
    4.1033    3.3322  -19.1949 C   0  0  0  0  0  0  0  0  0  0  0  0
    5.6021    2.6480  -20.7918 C   0  0  2  0  0  0  0  0  0  0  0  0
    5.6014    3.6043  -17.1727 C   0  0  0  0  0  0  0  0  0  0  0  0
    6.7126    5.2939  -24.0484 N   0  0  0  0  0  0  0  0  0  0  0  0
    5.3742    3.3849  -18.6068 N   0  0  0  0  0  0  0  0  0  0  0  0
    4.1919    2.8709  -20.4197 N   0  3  0  0  0  0  0  0  0  0  0  0
    2.9153    3.7113  -18.5888 N   0  0  0  0  0  0  0  0  0  0  0  0
    7.5132    2.6836  -19.2197 O   0  0  0  0  0  0  0  0  0  0  0  0
    1.8009   -2.7536  -17.8551 F   0  0  0  0  0  0  0  0  0  0  0  0
    7.0707   -3.2565  -19.4601 F   0  0  0  0  0  0  0  0  0  0  0  0
    7.1321   -0.8772  -23.5769 H   0  0  0  0  0  0  0  0  0  0  0  0
    6.2979   -2.6029  -21.9896 H   0  0  0  0  0  0  0  0  0  0  0  0
    6.8274    1.5374  -23.0671 H   0  0  0  0  0  0  0  0  0  0  0  0
    3.5051   -4.5646  -16.9618 H   0  0  0  0  0  0  0  0  0  0  0  0
    5.8680   -4.7946  -17.7041 H   0  0  0  0  0  0  0  0  0  0  0  0
    4.0243    3.6603  -22.8140 H   0  0  0  0  0  0  0  0  0  0  0  0
    8.0892    3.7530  -21.3733 H   0  0  0  0  0  0  0  0  0  0  0  0
    4.7864    0.4965  -19.4172 H   0  0  0  0  0  0  0  0  0  0  0  0
    2.9881   -1.2177  -19.6187 H   0  0  0  0  0  0  0  0  0  0  0  0
    4.7027    5.1709  -24.6582 H   0  0  0  0  0  0  0  0  0  0  0  0
    8.6652    5.2455  -23.2668 H   0  0  0  0  0  0  0  0  0  0  0  0
    4.6768    3.9762  -16.7071 H   0  0  0  0  0  0  0  0  0  0  0  0
    5.8946    2.6559  -16.6987 H   0  0  0  0  0  0  0  0  0  0  0  0
    6.4034    4.3450  -17.0377 H   0  0  0  0  0  0  0  0  0  0  0  0
    3.4110    2.6945  -21.0188 H   0  0  0  0  0  0  0  0  0  0  0  0
    2.0532    3.6407  -19.0906 H   0  0  0  0  0  0  0  0  0  0  0  0
    2.9206    4.0553  -17.6499 H   0  0  0  0  0  0  0  0  0  0  0  0
  1  2  1  0  0  0  0
  1  3  2  0  0  0  0
  2 12  2  0  0  0  0
  3 14  1  0  0  0  0
  4  5  2  0  0  0  0
  4 16  1  0  0  0  0
  5 17  1  0  0  0  0
  6 10  2  0  0  0  0
  6 15  1  0  0  0  0
  7 11  1  0  0  0  0
  7 15  2  0  0  0  0
  8 12  1  0  0  0  0
  8 14  2  0  0  0  0
  9 13  1  0  0  0  0
  9 16  2  0  0  0  0
 10 22  1  0  0  0  0
 11 22  2  0  0  0  0
 12 13  1  0  0  0  0
 13 17  2  0  0  0  0
 14 20  1  0  0  0  0
 15 20  1  0  0  0  0
 16 27  1  0  0  0  0
 17 28  1  0  0  0  0
 18 20  1  0  0  0  0
 18 23  1  0  0  0  0
 18 26  2  0  0  0  0
 19 23  1  0  0  0  0
 19 24  2  0  0  0  0
 19 25  1  0  0  0  0
 20 24  1  0  0  0  0
 21 23  1  0  0  0  0
  1 29  1  0  0  0  0
  2 30  1  0  0  0  0
  3 31  1  0  0  0  0
  4 32  1  0  0  0  0
  5 33  1  0  0  0  0
  6 34  1  0  0  0  0
  7 35  1  0  0  0  0
  8 36  1  0  0  0  0
  9 37  1  0  0  0  0
 10 38  1  0  0  0  0
 11 39  1  0  0  0  0
 21 40  1  0  0  0  0
 21 41  1  0  0  0  0
 21 42  1  0  0  0  0
 24 43  1  0  0  0  0
 25 44  1  0  0  0  0
 25 45  1  0  0  0  0
M  CHG  1  24   1
M  END
> <OMEGA_C>
BCLUQInQE7/6WrXBT9fEQOX3xr+6NK7BYX7OQJNWSj/+D7PBn+R5QCwAecBJpI3BGsmnQBm1gMA/
BZHBFWShQDRhgEDqBLfB92DqQG35gUBDkLDBkKepQFVzTj4qjqLBkQ5nQJQNAMCbsJnB9fWtQMiB
m0AQb7/BwLf0QE3nnEAQNbnBp12vQLpNlL9tzKTBik+eQMOnCMAEK53BVhe5QIgVmD/mkanBPbq/
QHPtZ0BiPa/BIZRFQMxpOMDnApLBIZi4QAWEScDPzZjB/NbKQLjFOkAw35vB6U2DQOJCVUA8j5nB
G0SzQAV5KUCcVabBnD6zQL+sZkCgYYnBpM3WQFxnqUAcY8DBqfmrQEOiWECk2pTBUCSGQJC8N0CA
W6PB0pM6QK2FbUDitZTBeWzwQM/AK0DlwZnBbILmPzc7MMBE147BUkPiQClqUMBcrpvB5znkQAST
YL+NnbzBM4jJQFKVJsCg6q/BunnaQGzIxD9dibjBWVNgQAgRksDasYfB+8a7QGhtmcDwoY3Bz8aA
QBBCakADg7bBam0BQTgxcEBr/KrBbiqZQL4z/j59VpvBND0/QEPdm78S85zBXnyWQP53pUDnQ8XB
qKQKQdTap0BgIrrBIqiVQLl6fkAuqIXBgqC8QLj6KUD2loXBZOjMQBYKi0A1TYjBdU1aQHlyLECV
JqjBGWcDQLUAaUCKuZjBaOo6QAvFgUDrMo3BFJTSQItPFL/zhrXBcwXEQAgnx79TR67BglzNQCvu
ST+gLrPBEYx6QL9gecAMm43BfxuoQAbggMD9/ZDBxJjqQAmRgUCKm7DBwX2hQAVjgEAj/bbBc2Sq
QIXKTj7LaqLBHb5nQG8dAMDOmpnBeO30QJx2nEB/QrnBlw6uQNJvm0BTar/BJpevQN5ZlL9Ku6TB
i6CeQEO6CMDlGJ3BcDq5QO4VmD+JhKnBauG/QMC9Z0B3O6/BDk1GQDCMOMBe7pHBX+y4QBinScDI
wJjBdtfKQJPZO0Bf1pvBBlCDQJWZVkCLoZnBPGuzQCaXKUBhTabBQSezQAXJakAcfYnBWvPWQOAj
qUAfaMDBxwOsQLfdW0Cy85TBfEiGQHe8N0A3XKPBIA46QH6ybUB80pTBP0PwQFMjLECknpnBd0bo
P8YaMMB0tI7BgJriQMdmUMCPn5vBssjhQEU5Yb9/57zBWnrIQCSwJsAvBbDBCrPYQFR+xD89v7jB
U/BgQJNdksDBr4fBuRa8QIenmcCpoI3BvI8BQRb4bkAWEavB59aAQFOIakAIdLbBf8eaQGqY/j6A
FJvBtew/QC7cm79P2ZzBwMQKQa8+p0B5OLrBCIuWQBKApUDZOcXB4b+VQLEngkAw2oXB57+7QAcW
LkBOlYXBxlHNQFmQjECecYjBoa1aQDF5K0CYIajBq/YCQJ0rZ0Cjz5jB/+05QK9wgkCTXY3BIgXT
QO9QFr+cMbXBgFLDQLMax7/NBq7BUtPNQEiNSD/L87LBrn5+QMM8fsDOpY3Bl5RGQDyzP8AcxJHB
RzOiQN71fkAUQbfBaJrqQCX5gkBcdrDBuZqoQOidWj7icaLB3cG4QHDHR8Dr8pjBnLauQHXImkAy
pL/B4uT0QIkYnkBWE7nBF4utQFpKk7/OsaTBXP2cQEamCMDRCZ3BpYq4QN3CmD/8eqnBHS3AQJMY
aEB1Sq/BgAqqQDrggMAxLJHB5jFkQJY/BMBDYJnB6M/KQLUPO0B7zJvBHieDQGocU0Cqc5nB+2ez
QDM+KkA8UabBOU2zQJR0aUDxZ4nBfDnXQD3IqUDnZsDBIgWrQPuQTECkY5TB2kuGQFWuOUBPa6PB
3po6QLaabUD7s5TBEtrwQC4OMEDo0JnB4y7FQB0hnsBhAo3BIlYtQMtEkb/gQ53B6xfjQIdjZb+t
brzBmPLHQGzGJsDJq6/BJhDaQIz8wj/Mc7jBWr5nQHDJlcBRx4fB2eoEQHRYPcB+FY/Bwt+BQDms
ZkAQ6LbBbnkBQQxHc0CXyqrBkFqYQMVfBD98N5vB8lbZQB+dS8AfypvBdnaXQNj5o0A6m8XBg54K
QfncqUBi27nB4LiUQFK3ckBCNIXBA23GQAX7OEDiLYXBi/nEQLsok0C8monB4v5aQCvTMUAJYajB
ykcEQMcVbkCc7pjBO1Y6QGYdgEClDI3BL+vRQJDwFb8Mh7XBRvDCQIy2x7/MT67BMwvNQEycSD8/
K7PB9ySAQIO2e8CsZo3BXL5IQDXpPMCGiJHBDIfqQJ45gkAbdrDBqaehQKwWgEB0/LbBvRGqQFYY
Tj5MZaLB9DK5QAf6SMC4HpnBKLz0QN5qnUDmELnB4BeuQKxwm0CIXb/Bt06uQJ6TlL/BzaTB3rSd
QAwvCcAcKJ3BzRm5QO68lz9cfanBDvi/QDTKZ0DeLa/BSJKqQKW5gMD4KJHBCC5mQCEVA8AwV5nB
WfTKQPl1O0DHyZvBznaDQIr0VkAWnpnBxImzQFluKUDiQqbBgC6zQNsPakDvbInB88/WQGG/qUC0
Q8DBohmsQJEsW0Ab5JTBWGWGQImiN0DbUqPBZqE6QOwGcEBa5pTB2nzwQMiPLEB7mpnBuHzFQMFD
nsDDB43BWdQvQHfljb+4OJ3B2y/hQKZ7Y7/e47zBAzzHQMQCJ8CUDbDBVX/YQJ2dwz/Pu7jByNRp
QNjHk8A7V4fBSYcHQLcfOcC1tY7B34MBQbzLcECx4qrBhyaBQFH8aECMhrbBTAybQDBz/z7h/JrB
f3fZQCR8TsD6IpzBZJoKQau2qEBi8rnBa56WQJ4+pUCpNsXBPriVQF6qgUBkyoXB5OK7QJVmLUCc
hoXBSUHNQLpMjEAJX4jBROFaQNIaK0B1FKjBDKkDQISuakAn8ZjBl5I6QDi6g0CAdI3B

> <OMEGA_E>
AAAAAAAAAAAAknY9oNN3PQ==

> <OMEGA_NBR>
      6884

$$$$
50093272
  -OEChem-04172616093D

 53 58  0     1  0  0  0  0  0999 V2000
    3.2026   -3.1380  -18.2220 C   0  0  0  0  0  0  0  0  0  0  0  0
    3.5950   -2.1824  -19.1665 C   0  0  0  0  0  0  0  0  0  0  0  0
    6.0662   -1.5799  -21.7635 C   0  0  0  0  0  0  0  0  0  0  0  0
    6.6134   -0.5933  -22.5906 C   0  0  0  0  0  0  0  0  0  0  0  0
    6.9212    8.1326  -23.1468 C   0  0  0  0  0  0  0  0  0  0  0  0
    5.1125    0.1474  -20.3321 C   0  0  0  0  0  0  0  0  0  0  0  0
    5.5344    4.8255  -21.9664 C   0  0  0  0  0  0  0  0  0  0  0  0
    7.2043    5.2515  -23.6782 C   0  0  0  0  0  0  0  0  0  0  0  0
    4.8553    7.7136  -21.9615 C   0  0  0  0  0  0  0  0  0  0  0  0
    4.1411   -4.0923  -17.7791 C   0  0  0  0  0  0  0  0  0  0  0  0
    6.7501    9.5038  -22.8875 C   0  0  0  0  0  0  0  0  0  0  0  0
    5.3589   -1.2064  -20.6051 C   0  0  0  0  0  0  0  0  0  0  0  0
    4.9157   -2.2159  -19.6484 C   0  0  0  0  0  0  0  0  0  0  0  0
    5.9666    7.2020  -22.6731 C   0  0  0  0  0  0  0  0  0  0  0  0
    6.1948    5.7376  -22.8172 C   0  0  0  0  0  0  0  0  0  0  0  0
    5.6399    1.1415  -21.1727 C   0  0  0  0  0  0  0  0  0  0  0  0
    5.8879    3.4628  -21.9589 C   0  0  0  0  0  0  0  0  0  0  0  0
    6.4547    0.7654  -22.2721 C   0  0  0  0  0  0  0  0  0  0  0  0
    6.8558    2.9839  -22.8741 C   0  0  0  0  0  0  0  0  0  0  0  0
    7.5369    3.8936  -23.6941 C   0  0  0  0  0  0  0  0  0  0  0  0
    4.7608    9.0988  -21.7166 C   0  0  0  0  0  0  0  0  0  0  0  0
    5.8167   -3.1914  -19.1525 C   0  0  0  0  0  0  0  0  0  0  0  0
    6.2660    2.9273  -19.5701 C   0  0  0  0  0  0  0  0  0  0  0  0
    4.0536    3.3477  -19.1656 C   0  0  0  0  0  0  0  0  0  0  0  0
    5.4563    2.5913  -20.8050 C   0  0  2  0  0  0  0  0  0  0  0  0
    5.6787    3.7288  -17.2546 C   0  0  0  0  0  0  0  0  0  0  0  0
    5.4156   -4.1057  -18.2398 N   0  0  0  0  0  0  0  0  0  0  0  0
    5.6943    9.9632  -22.1793 N   0  0  0  0  0  0  0  0  0  0  0  0
    5.3335    3.2434  -18.5968 N   0  0  0  0  0  0  0  0  0  0  0  0
    4.0680    2.8702  -20.3918 N   0  3  0  0  0  0  0  0  0  0  0  0
    2.9283    3.8547  -18.5318 N   0  0  0  0  0  0  0  0  0  0  0  0
    7.4873    2.9092  -19.4604 O   0  0  0  0  0  0  0  0  0  0  0  0
    7.1930    1.6520  -23.0278 O   0  0  0  0  0  0  0  0  0  0  0  0
    8.5427    3.4659  -24.4913 F   0  0  0  0  0  0  0  0  0  0  0  0
    3.7289    9.5736  -20.9821 F   0  0  0  0  0  0  0  0  0  0  0  0
    7.1188   -3.1826  -19.5325 F   0  0  0  0  0  0  0  0  0  0  0  0
    2.1935   -3.1442  -17.8373 H   0  0  0  0  0  0  0  0  0  0  0  0
    2.8985   -1.4354  -19.5176 H   0  0  0  0  0  0  0  0  0  0  0  0
    6.1859   -2.6239  -22.0127 H   0  0  0  0  0  0  0  0  0  0  0  0
    7.1601   -0.8775  -23.4776 H   0  0  0  0  0  0  0  0  0  0  0  0
    7.7793    7.7905  -23.7063 H   0  0  0  0  0  0  0  0  0  0  0  0
    4.5169    0.4254  -19.4751 H   0  0  0  0  0  0  0  0  0  0  0  0
    4.7490    5.1770  -21.3137 H   0  0  0  0  0  0  0  0  0  0  0  0
    7.7247    5.9365  -24.3311 H   0  0  0  0  0  0  0  0  0  0  0  0
    4.0834    7.0462  -21.6078 H   0  0  0  0  0  0  0  0  0  0  0  0
    3.8364   -4.8321  -17.0536 H   0  0  0  0  0  0  0  0  0  0  0  0
    7.4793   10.2065  -23.2629 H   0  0  0  0  0  0  0  0  0  0  0  0
    4.7576    3.9044  -16.6795 H   0  0  0  0  0  0  0  0  0  0  0  0
    6.2944    2.9765  -16.7399 H   0  0  0  0  0  0  0  0  0  0  0  0
    6.2430    4.6692  -17.3389 H   0  0  0  0  0  0  0  0  0  0  0  0
    3.2584    2.7189  -20.9589 H   0  0  0  0  0  0  0  0  0  0  0  0
    2.0506    3.8737  -19.0107 H   0  0  0  0  0  0  0  0  0  0  0  0
    2.9949    4.2010  -17.5961 H   0  0  0  0  0  0  0  0  0  0  0  0
  1  2  2  0  0  0  0
  1 10  1  0  0  0  0
  2 13  1  0  0  0  0
  3  4  2  0  0  0  0
  3 12  1  0  0  0  0
  4 18  1  0  0  0  0
  5 11  2  0  0  0  0
  5 14  1  0  0  0  0
  6 12  2  0  0  0  0
  6 16  1  0  0  0  0
  7 15  1  0  0  0  0
  7 17  2  0  0  0  0
  8 15  2  0  0  0  0
  8 20  1  0  0  0  0
  9 14  2  0  0  0  0
  9 21  1  0  0  0  0
 10 27  2  0  0  0  0
 11 28  1  0  0  0  0
 12 13  1  0  0  0  0
 13 22  2  0  0  0  0
 14 15  1  0  0  0  0
 16 18  2  0  0  0  0
 16 25  1  0  0  0  0
 17 19  1  0  0  0  0
 17 25  1  0  0  0  0
 18 33  1  0  0  0  0
 19 20  2  0  0  0  0
 19 33  1  0  0  0  0
 20 34  1  0  0  0  0
 21 28  2  0  0  0  0
 21 35  1  0  0  0  0
 22 27  1  0  0  0  0
 22 36  1  0  0  0  0
 23 25  1  0  0  0  0
 23 29  1  0  0  0  0
 23 32  2  0  0  0  0
 24 29  1  0  0  0  0
 24 30  2  0  0  0  0
 24 31  1  0  0  0  0
 25 30  1  0  0  0  0
 26 29  1  0  0  0  0
  1 37  1  0  0  0  0
  2 38  1  0  0  0  0
  3 39  1  0  0  0  0
  4 40  1  0  0  0  0
  5 41  1  0  0  0  0
  6 42  1  0  0  0  0
  7 43  1  0  0  0  0
  8 44  1  0  0  0  0
  9 45  1  0  0  0  0
 10 46  1  0  0  0  0
 11 47  1  0  0  0  0
 26 48  1  0  0  0  0
 26 49  1  0  0  0  0
 26 50  1  0  0  0  0
 30 51  1  0  0  0  0
 31 52  1  0  0  0  0
 31 53  1  0  0  0  0
M  CHG  1  30   1
M  END
> <OMEGA_C>
7fdMQHTVSMChxpHBMRVmQNysC8ACVZnBZh7CQEY6yr+7G67B6KDTQEPlF7+HubTBXnrdQEAfAkG0
LLnBipmjQMjkFj4iqKLB8xmxQOBqmkAiu6/Bh4nmQGEMqEDdbL3ByF6bQPnV9kAgsa/B4oOEQGD0
gsCJO47B1ADYQJ8PGEGiGbfBeHyrQMFrmr9Q16TBBE2dQLjRDcDpL53BKu6+QGN25kB7YrXBJjzG
QLeat0CqibbBY3q0QIMckj/GYanB4Gm8QBKeXUDaq6/BBI3OQGTwQz85LbLBBmPbQJL3PkAf/rbB
AS7xQGgxeUCQjb3B2ViYQOOUEUGGu63BByK6QEZATMBXOJnByoLIQCZYO0Coj5zBFLeBQJ5AVkA9
U5nBupmuQIzYJUCScKbBk7e1QKikbkCECYrBVkytQDFig8AJ65HBeTe2QEtpH0E8b7HBzquqQH6T
T0BTxpTB+yyCQBixN0BdIqPBPmk7QB6zdkAjQZTBPJjvQMQwOkDhrpvBsSzmQMV00z/qOLjBAK8I
QcTQXUBB7sPBOaZuQIYtGUFJ26fBAc3jQP6uS8CWQpzBCmIMQNY6ScDMso7BUoE5QLq8t78TJJzB
wPLFQGruJ8ARGrDBNB/lQNymYL8f0rvB2+/4QP5L+UCRpr3BpIqQQITL2T4OzZvB5/eXQLCppUBd
gqrB6jD3QKL3vUAlpsLBbauCQEZ64UDD3KzBfId1QJmgmsDMbYjBJFbvQO1NI0FuGrrB8j2YQBbh
eUCub4XBnmvJQDh/PkBZ64XB4sbHQD9qlUARtorBfYlQQFUCLkDjq6fBqz0DQDDrd0DwFZjBt6w/
QOluhkDBxIzBFJyrQBY5g8Bi6ZHBYtq5QCosTMCxopnBpADEQBwZyr9QDa7B4hPWQL81Fr8LkLTB
WI2xQFfH+0A1ZL/Bf86kQNjWED7sr6LBHmytQA+TmECfH7DBQu3kQHTyqEDwJL3BWmu5QBce90A1
IKzB2QmBQDulgMAIPI7Bv4itQNQ1FEG+Sb7BSSOsQKDYmr9n9qTBaBadQDbrDcCIZ53B7au3QK3s
4kCSKLbBALjBQMC5tUD+77bB9Mu1QEdfkT/hU6nBycC7QDYcXEDZrK/Bgo3QQGKxRT+YB7LBlH3c
QPoZQECGtbbBZ1HyQE6FfECPAb3B9ja2QFT0EUEUnavB/0VlQBYnDMBOaJnBqPXIQC7bO0AOj5zB
YBaCQOZeVUBpTJnB7veuQJLFJECPYKbBojy2QCoJc0BVNorB1P9KQP5kRcBt/JHBMDawQCDXHUFu
k7TByyGrQHYgUEBxw5TBA3WCQGK5NECB/6LB3xs8QH6ldkC0U5TBeRLwQOKnPEDbv5vBX4LoQNOr
1j904LfBzGYKQdL2ZEC618LBgry6QFrJG0F1CqLBFO8rQGTMpL+AL53B7/jAQH9im8COzo7BHjza
QBv6TsBJopzBCV3IQJPSJ8Dx/6/BXFDoQJ0QXr/LjLvB3/WvQHPv7EAOL8fBmPuRQOXm1T5nyZvB
M9SSQODBokBQOqvB26T1QKMRwEAKBcLBIyy9QCx55EBj6aTBbSxsQOogl8ByRYjBdDSoQE/jHUEk
UsXBUNmYQCl9fUBPjIXBIQjLQJ6IRUBV9oXB4yjHQOkdmEA1OYvBtPRQQKaOKEAbaqfBdOMDQC7S
dkBRJpjBZ2FAQLg6h0Cp64zB

> <OMEGA_E>
PIJHP4C/ST8=

> <OMEGA_NBR>
      8965

$$$$
50161551
  -OEChem-04172616093D

 45 48  0     1  0  0  0  0  0999 V2000
    6.6337   -0.5838  -22.6513 C   0  0  0  0  0  0  0  0  0  0  0  0
    3.0312   -2.8733  -18.2761 C   0  0  0  0  0  0  0  0  0  0  0  0
    6.1496   -1.5576  -21.7567 C   0  0  0  0  0  0  0  0  0  0  0  0
    3.5759   -1.9918  -19.2250 C   0  0  0  0  0  0  0  0  0  0  0  0
    6.4659    0.7858  -22.3669 C   0  0  0  0  0  0  0  0  0  0  0  0
    3.8331   -3.8885  -17.7225 C   0  0  0  0  0  0  0  0  0  0  0  0
    5.0596    3.9844  -22.8893 C   0  0  0  0  0  0  0  0  0  0  0  0
    7.3276    4.1005  -22.0557 C   0  0  0  0  0  0  0  0  0  0  0  0
    5.3123    0.2040  -20.3022 C   0  0  0  0  0  0  0  0  0  0  0  0
    5.4399    4.8393  -23.9398 C   0  0  0  0  0  0  0  0  0  0  0  0
    7.6386    4.9495  -23.1349 C   0  0  0  0  0  0  0  0  0  0  0  0
    5.4783   -1.1574  -20.5823 C   0  0  0  0  0  0  0  0  0  0  0  0
    4.9210   -2.1315  -19.6376 C   0  0  0  0  0  0  0  0  0  0  0  0
    5.8007    1.1883  -21.1808 C   0  0  0  0  0  0  0  0  0  0  0  0
    6.0052    3.6269  -21.9022 C   0  0  0  0  0  0  0  0  0  0  0  0
    5.1795   -4.0232  -18.1188 C   0  0  0  0  0  0  0  0  0  0  0  0
    5.7281   -3.1483  -19.0788 C   0  0  0  0  0  0  0  0  0  0  0  0
    6.3436    2.9176  -19.4674 C   0  0  0  0  0  0  0  0  0  0  0  0
    4.1044    3.2858  -19.1850 C   0  0  0  0  0  0  0  0  0  0  0  0
    5.6189    2.6511  -20.7842 C   0  0  2  0  0  0  0  0  0  0  0  0
    5.5934    3.6250  -17.1697 C   0  0  0  0  0  0  0  0  0  0  0  0
    6.7039    5.3105  -24.0451 N   0  0  0  0  0  0  0  0  0  0  0  0
    5.3433    3.1690  -18.5419 N   0  0  0  0  0  0  0  0  0  0  0  0
    4.2050    2.8688  -20.4238 N   0  3  0  0  0  0  0  0  0  0  0  0
    2.9272    3.7390  -18.6095 N   0  0  0  0  0  0  0  0  0  0  0  0
    7.5339    2.7574  -19.2190 O   0  0  0  0  0  0  0  0  0  0  0  0
    5.9481   -4.9873  -17.5639 F   0  0  0  0  0  0  0  0  0  0  0  0
    7.0382   -3.2543  -19.4131 F   0  0  0  0  0  0  0  0  0  0  0  0
    7.1350   -0.8877  -23.5583 H   0  0  0  0  0  0  0  0  0  0  0  0
    1.9998   -2.7719  -17.9724 H   0  0  0  0  0  0  0  0  0  0  0  0
    6.2917   -2.6069  -21.9689 H   0  0  0  0  0  0  0  0  0  0  0  0
    2.9647   -1.2045  -19.6409 H   0  0  0  0  0  0  0  0  0  0  0  0
    6.8442    1.5296  -23.0525 H   0  0  0  0  0  0  0  0  0  0  0  0
    3.4161   -4.5662  -16.9923 H   0  0  0  0  0  0  0  0  0  0  0  0
    4.0503    3.6033  -22.8377 H   0  0  0  0  0  0  0  0  0  0  0  0
    8.0938    3.8135  -21.3507 H   0  0  0  0  0  0  0  0  0  0  0  0
    4.8019    0.5030  -19.3986 H   0  0  0  0  0  0  0  0  0  0  0  0
    4.7064    5.1260  -24.6789 H   0  0  0  0  0  0  0  0  0  0  0  0
    8.6470    5.3218  -23.2390 H   0  0  0  0  0  0  0  0  0  0  0  0
    4.6353    3.7491  -16.6436 H   0  0  0  0  0  0  0  0  0  0  0  0
    6.2074    2.8802  -16.6421 H   0  0  0  0  0  0  0  0  0  0  0  0
    6.1253    4.5875  -17.1945 H   0  0  0  0  0  0  0  0  0  0  0  0
    3.4309    2.7190  -21.0390 H   0  0  0  0  0  0  0  0  0  0  0  0
    2.0842    3.7617  -19.1470 H   0  0  0  0  0  0  0  0  0  0  0  0
    2.9212    4.0433  -17.6569 H   0  0  0  0  0  0  0  0  0  0  0  0
  1  3  1  0  0  0  0
  1  5  2  0  0  0  0
  2  4  2  0  0  0  0
  2  6  1  0  0  0  0
  3 12  2  0  0  0  0
  4 13  1  0  0  0  0
  5 14  1  0  0  0  0
  6 16  2  0  0  0  0
  7 10  2  0  0  0  0
  7 15  1  0  0  0  0
  8 11  1  0  0  0  0
  8 15  2  0  0  0  0
  9 12  1  0  0  0  0
  9 14  2  0  0  0  0
 10 22  1  0  0  0  0
 11 22  2  0  0  0  0
 12 13  1  0  0  0  0
 13 17  2  0  0  0  0
 14 20  1  0  0  0  0
 15 20  1  0  0  0  0
 16 17  1  0  0  0  0
 16 27  1  0  0  0  0
 17 28  1  0  0  0  0
 18 20  1  0  0  0  0
 18 23  1  0  0  0  0
 18 26  2  0  0  0  0
 19 23  1  0  0  0  0
 19 24  2  0  0  0  0
 19 25  1  0  0  0  0
 20 24  1  0  0  0  0
 21 23  1  0  0  0  0
  1 29  1  0  0  0  0
  2 30  1  0  0  0  0
  3 31  1  0  0  0  0
  4 32  1  0  0  0  0
  5 33  1  0  0  0  0
  6 34  1  0  0  0  0
  7 35  1  0  0  0  0
  8 36  1  0  0  0  0
  9 37  1  0  0  0  0
 10 38  1  0  0  0  0
 11 39  1  0  0  0  0
 21 40  1  0  0  0  0
 21 41  1  0  0  0  0
 21 42  1  0  0  0  0
 24 43  1  0  0  0  0
 25 44  1  0  0  0  0
 25 45  1  0  0  0  0
M  CHG  1  24   1
M  END
> <OMEGA_C>
A0fUQLhwFb/lNbXBuf9BQL7jN8B7NZLBeMnEQNJdx7+tDa7BK9xkQAL0/r/gzJnBDunOQEsoST9d
77LB6VB1QErdeMC4x43B2+ehQAsAf0BjHbfB43vqQHw3g0AZcrDBhP6pQMPfUD75aqLBSROuQMrb
mkDOhL/BGW/0QJ1inkBMFLnBj06vQCgllL+EqKTBKHmdQMdpCMDLGZ3BQJ+5QFQbmD83cqnBRyrA
QM8faEC6N6/Bcb6lQP+9gMBf85DBpUy3QLh9ScBVoZjB8/7KQHe6OkA7vZvB/FaDQHlKUkDTepnB
R86zQEmrKUAiRqbBOf2yQGL/Z0B8W4nBuIbWQPPvqUB1XMDBpfyqQBjQSkDPVZTBYY+GQMGZN0AJ
ZKPBVVc7QIhMb0Ay4JTBehXxQER5MEB6wJnBD1e+QKeXn8D2gozBODnhQHJGUMD0TZvBRlLkQHVD
Y79jd7zBQPn/P5JmMcBwx4/B2lXJQLDXJsBIwK/BWL49QFYtmr+nIJ3BswPbQC3Kwz9za7jBzaFa
QG8eksAo8IfBRZyBQAOdZkCgs7bBNYABQd8PdEBWzqrBY6mZQE3HAD9vMJvBrpqWQIgIpEBobsXB
P1oKQchLqkCQ6bnBvVSUQLLwb0AuJoXBWaPGQIpVOEAGI4XBgALEQMbMkkBPjonBjpRbQJMELkDe
T6jBGmQFQDC/cED2LJnBJvQ6QPJigUBZQY3B6pzTQHqgFb9vTLXBarVDQA43N8Bv4ZHBNxjEQOQ2
x78rIq7BwF5lQFw7/r/1l5nBAIzOQI79SD8o/rLBca13QCMWeMCCi43BhpbqQDB/gkDmirDBFcih
QOecf0CHGrfBSuCpQPSLVT5pbaLBkKf0QEfDnUB8JLnBcRCuQNRKm0ATeL/B8eauQKuzk79ys6TB
4XqdQBwrCMDkFZ3BaYe5QDFYmD9Id6nBHR7AQG/QZ0DzRa/BP6WmQAt6gMCQ7pDBlpy3QEU1ScBx
t5jBMjHLQBpePEAF2pvBtJKDQAkLVkBknJnBp8izQLzXKUBFT6bBEmqzQGh9akBAeonB6qvWQADy
qUBEV8DBNkisQDHSW0Aj8pTBEaWGQBcxOECvYqPB6106QLDla0Ajw5TBuavwQGIPLUAdppnBxJm/
QMo9n8BolIzBKVfhQJYWUMBckpvBqXDjQGjIY7+klLzBax0CQIWQMMA/SY/BX2XIQL3MJsDH2a/B
vbk9QNPRmb+e3ZzBx6zaQCmUwz+ce7jB4OldQE+YkcChm4fBkpABQWegcUAy9qrBZmOBQCLGZ0DI
q7bBoMOZQIxTAj/5K5vBPogKQek8qUAXBbrB6Y+WQL3rpEAaVMXBfvKVQF7HgUDR0oXBSzS8QNDH
LUAAmoXBC3LNQGaOjEC0aojBJn9bQJi3LEDTM6jB1FIDQJEyZUDPwZjBiQs6QIstgUBnRY3BPjbT
QAVsFb+rWrXBIViqQKdbgsBkdJHBC3rEQNubx7/8Ha7BjKC5QPl4SsDjI5nBKJ7NQHn4SD94E7PB
DY9/QIIMf8Dczo3Br03qQDxCgkB0b7DB+4GhQOnbf0BAALfB5EWqQKDHSz66XKLBX5b0QJhKnUAS
ELnB4wGuQKswm0BWZb/BzEivQFfOlL+3raTBTYSeQNZ8CcCtEZ3B2yC5QCKqlz+zdqnBBL6/QHDF
Z0DmKK/BUtJIQHz0PsCX0ZHBwXZnQJqOA8AhXpnB4a/KQJPPOkCdwJvBkDGDQFWSVUC+iJnBj0Cz
QGhZKUCXPqbBvGyzQIy/bUBChYnBLbrWQMuBqUBPScDB5Q6rQHT0T0DVdZTBogSGQOZSN0CdTKPB
n2s7QGnCc0A68pTBYpbwQCmgLkDqtZnBURftP073OsD3eo7BKqQxQLuMjb8IPJ3BpNjiQMKgYr8M
rLzB40G/QMvnmsD9WI7BTGPJQBXnJsAFyq/BIBnaQK+CT8DcB5zBGe/YQFfpwz+LprjBDDFoQK74
lcBz7IfBDGEBQTwkcUDL1KrB3AOBQDmVaEAwjrbBS8WaQKCv/T5zA5vBBIkKQXqOqEDn8LnBTJOW
QNDppEBaQ8XBGN+UQAsNekAgboXBk1/FQJFoPECLIYXBzU/GQIaOlEA3zYnBNBtaQJZnK0C5E6jB
Ae4EQLBWc0BMJJnBa9s7QDD5hEBJcY3BqRzSQLQhFr8eRrXBjH2qQEHjgMD3LpHBOLHCQHZWxr9F
Bq7BWCm5QOtQR8Ah6ZjB/FzNQCEhST+LB7PBwOh/QApVfcCEf43BOUGiQBT5f0DAQrfB+NHqQNHM
gkA6irDBBE6pQKWLaT5FVaLB8dOuQIpcm0C+n7/BRiv1QLoCnkDEIbnBKMKtQASUkb9wl6TBrnmd
QIxoB8Cm3JzBtNy4QJbRmT8Rd6nBL0/AQLphaECKWq/B8RdIQLkXPsDXfZHBuoVlQDR0AsBqGJnB
gwfLQNsFPUD16ZvBFmSDQOjYVUBOm5nBT5ezQK7PKkAaX6bBJVCzQLgDakBngInBJ3HXQBITqkCx
aMDB7yasQBtKXEAn/JTByoGGQFYROkCzeaPBceI5QAAkaUC6npTBbVLwQGg+LEAsrpnBMurrP5Q5
O8AaFY7BRMAuQIIEjb/A85zBTZ/hQMh/Zr81k7zBKdi/QBEMmcDhEo7B4+HGQDl8JsCfrq/Bp6PZ
QDJaS8Ap0pvBbFfZQJrRwj9tmLjBQmRpQFlBlcCSmIfB2tiBQIklaECY47bBdpYBQaFYckD75qrB
ALyZQDNwCT+jBpvBw4uXQADapEBYjcXBlcsKQWGJqUAZ8LnB5+iVQOKOgUC10YXBj/C7QGjsLEBx
soXBU3fNQMUjjECQYojB91FbQGqGMECeX6jBmLwCQDcYYkA4lZjBr5Q5QGwZfkCuD43BcNPGQJi2
2b583LfBrInhQGU6fcBaH5bBfhq+QIYyu7/PsbDB8IjbQJrwPMAsxJ3BDCHDQI3dZz9mfbTBhnXA
QP5DiMA65o7B9sPqQE+hfUDxNbDBvW6hQNVmg0CAU7bBKxSsQFRcIz7AzaLBVtv2QPTrl0DiDbnB
9M+vQHZYnECB+r7Bzs6xQOLflb9LG6bBM8e0QOuxDsCWJp7Blqa1QKpLmz8e6KnB1B2/QIqmaUCN
nq7BBouZQEXZYsAQQI/B56mTQHWDIMDQxJbBedDIQPY/OEDgc5vBzgOCQOw9WkDzbJnBsj2xQODI
KUAO/qXBNA6yQA0BbUDcQonBUq3ZQNZPpkBuM8DBEqWqQKKlW0CIqJTB/FGEQE5aOEAZAqPByeQ4
QPtGeEBC4JTBRhfuQLEEJ0BIQpnBl5pzQF+Qd8D7YIjBEHtcQA7w6L8jApfByGHQQLcaJr8q+L/B
pGz/QLXpj8BZxpXBVMvAQANWH8A6R7PB9bb0QOSdLsAzaKPB05bKQJpi2j+F+7nBF9rEQLJOocAF
DInBn1UBQYuGZkDfrarBRN1/QKnmdkChlLXBGmSgQJ3Jvz5d25rBdRgMQR7kn0D+KbrBh+mYQPfO
p0DGx8TBRAuVQEOJhEDRuIXBotC5QK3YMEBLH4XB1N7MQGALjUClZojBFkJWQA5rKkCyn6fBJesB
QI3CdEDF8pjB5Ks5QNu6iECghY3B

> <OMEGA_E>
ANsLPUDWDD3AQTI9AHUyPVBImj4=

> <OMEGA_NBR>
     13201

$$$$
50161553
  -OEChem-04172616093D

 44 47  0     1  0  0  0  0  0999 V2000
    6.5559   -0.5803  -22.6832 C   0  0  0  0  0  0  0  0  0  0  0  0
    3.1695   -2.9587  -18.1819 C   0  0  0  0  0  0  0  0  0  0  0  0
    6.0897   -1.5582  -21.7843 C   0  0  0  0  0  0  0  0  0  0  0  0
    3.6175   -2.0398  -19.1403 C   0  0  0  0  0  0  0  0  0  0  0  0
    6.3895    0.7869  -22.3910 C   0  0  0  0  0  0  0  0  0  0  0  0
    5.0568    4.0253  -22.8728 C   0  0  0  0  0  0  0  0  0  0  0  0
    7.3333    4.0519  -22.0559 C   0  0  0  0  0  0  0  0  0  0  0  0
    5.2566    0.1956  -20.3159 C   0  0  0  0  0  0  0  0  0  0  0  0
    4.0502   -3.9604  -17.7273 C   0  0  0  0  0  0  0  0  0  0  0  0
    5.4632    4.8690  -23.9233 C   0  0  0  0  0  0  0  0  0  0  0  0
    7.6699    4.8915  -23.1344 C   0  0  0  0  0  0  0  0  0  0  0  0
    5.4340   -1.1667  -20.5974 C   0  0  0  0  0  0  0  0  0  0  0  0
    4.9340   -2.1549  -19.6298 C   0  0  0  0  0  0  0  0  0  0  0  0
    5.7399    1.1852  -21.1945 C   0  0  0  0  0  0  0  0  0  0  0  0
    5.9948    3.6271  -21.8941 C   0  0  0  0  0  0  0  0  0  0  0  0
    5.7737   -3.1754  -19.1185 C   0  0  0  0  0  0  0  0  0  0  0  0
    6.3183    2.8981  -19.4666 C   0  0  0  0  0  0  0  0  0  0  0  0
    4.0887    3.3158  -19.1813 C   0  0  0  0  0  0  0  0  0  0  0  0
    5.5854    2.6495  -20.7839 C   0  0  2  0  0  0  0  0  0  0  0  0
    5.5970    3.6708  -17.1827 C   0  0  0  0  0  0  0  0  0  0  0  0
    6.7438    5.2914  -24.0364 N   0  0  0  0  0  0  0  0  0  0  0  0
    5.3215   -4.0512  -18.1886 N   0  0  0  0  0  0  0  0  0  0  0  0
    5.3282    3.1850  -18.5416 N   0  0  0  0  0  0  0  0  0  0  0  0
    4.1772    2.8909  -20.4189 N   0  3  0  0  0  0  0  0  0  0  0  0
    2.9211    3.7891  -18.6026 N   0  0  0  0  0  0  0  0  0  0  0  0
    7.5092    2.7377  -19.2214 O   0  0  0  0  0  0  0  0  0  0  0  0
    7.0724   -3.2468  -19.4984 F   0  0  0  0  0  0  0  0  0  0  0  0
    7.0425   -0.8797  -23.5997 H   0  0  0  0  0  0  0  0  0  0  0  0
    2.1622   -2.9000  -17.7967 H   0  0  0  0  0  0  0  0  0  0  0  0
    6.2336   -2.6061  -22.0024 H   0  0  0  0  0  0  0  0  0  0  0  0
    2.9651   -1.2568  -19.4976 H   0  0  0  0  0  0  0  0  0  0  0  0
    6.7571    1.5338  -23.0791 H   0  0  0  0  0  0  0  0  0  0  0  0
    4.0337    3.6841  -22.8151 H   0  0  0  0  0  0  0  0  0  0  0  0
    8.0927    3.7342  -21.3568 H   0  0  0  0  0  0  0  0  0  0  0  0
    4.7424    0.4902  -19.4131 H   0  0  0  0  0  0  0  0  0  0  0  0
    3.7039   -4.6731  -16.9934 H   0  0  0  0  0  0  0  0  0  0  0  0
    4.7363    5.1867  -24.6561 H   0  0  0  0  0  0  0  0  0  0  0  0
    8.6914    5.2246  -23.2445 H   0  0  0  0  0  0  0  0  0  0  0  0
    4.6455    3.8213  -16.6516 H   0  0  0  0  0  0  0  0  0  0  0  0
    6.2051    2.9304  -16.6424 H   0  0  0  0  0  0  0  0  0  0  0  0
    6.1421    4.6247  -17.2355 H   0  0  0  0  0  0  0  0  0  0  0  0
    3.3982    2.7502  -21.0299 H   0  0  0  0  0  0  0  0  0  0  0  0
    2.0759    3.8213  -19.1362 H   0  0  0  0  0  0  0  0  0  0  0  0
    2.9240    4.0983  -17.6516 H   0  0  0  0  0  0  0  0  0  0  0  0
  1  3  1  0  0  0  0
  1  5  2  0  0  0  0
  2  4  2  0  0  0  0
  2  9  1  0  0  0  0
  3 12  2  0  0  0  0
  4 13  1  0  0  0  0
  5 14  1  0  0  0  0
  6 10  2  0  0  0  0
  6 15  1  0  0  0  0
  7 11  1  0  0  0  0
  7 15  2  0  0  0  0
  8 12  1  0  0  0  0
  8 14  2  0  0  0  0
  9 22  2  0  0  0  0
 10 21  1  0  0  0  0
 11 21  2  0  0  0  0
 12 13  1  0  0  0  0
 13 16  2  0  0  0  0
 14 19  1  0  0  0  0
 15 19  1  0  0  0  0
 16 22  1  0  0  0  0
 16 27  1  0  0  0  0
 17 19  1  0  0  0  0
 17 23  1  0  0  0  0
 17 26  2  0  0  0  0
 18 23  1  0  0  0  0
 18 24  2  0  0  0  0
 18 25  1  0  0  0  0
 19 24  1  0  0  0  0
 20 23  1  0  0  0  0
  1 28  1  0  0  0  0
  2 29  1  0  0  0  0
  3 30  1  0  0  0  0
  4 31  1  0  0  0  0
  5 32  1  0  0  0  0
  6 33  1  0  0  0  0
  7 34  1  0  0  0  0
  8 35  1  0  0  0  0
  9 36  1  0  0  0  0
 10 37  1  0  0  0  0
 11 38  1  0  0  0  0
 20 39  1  0  0  0  0
 20 40  1  0  0  0  0
 20 41  1  0  0  0  0
 24 42  1  0  0  0  0
 25 43  1  0  0  0  0
 25 44  1  0  0  0  0
M  CHG  1  24   1
M  END
> <OMEGA_C>
h8nRQC6OFL9Hd7XBAtlKQG5bPcCfdJHB297CQAxyx783Rq7BMIVnQCqMAsBRH5nBuHbMQNtzST/W
ILPB/dChQPzOgECH+7bBx6rqQO+ogUCMcrDBGzaoQItHSD4Hh6LBmJuBQFV3fcCG0Y3BrtKuQI/O
m0DwYr/Bw2/1QICHnEArE7nBMOOtQMBVlb+Ix6TB9+KdQFfpCcDYCZ3B36y3QOKzlz9BjqnBedW/
QKwiaEAkJ6/BRcK4QAo5S8Cf8pjBuy/KQK55OUB/u5vBadaCQPg1VEBlc5nBAbyyQGWRKUB7RabB
cRqzQL/takAfdonBnc3XQPlSqUCkSsDBIkqqQNCjgcBagpHBoICqQGXXS0BBVZTBv6uFQMMEOUDa
WaPBgPI6QAmBckAk0pTBLkvwQLU1L0BhxZnBuFDiQGfLT8C3/JvBJlzhQAozYb87zLzBIWIKQIKZ
OcC1X47BmnnHQO3JJsD6BLDBDMQ9QKDfoL8r+5vBUTrYQNhTxD/3objBABSBQEfIa0BMhbbB1nsB
Qdb9bkCk2qrBfMGXQFD7+j72TZvBcAxtQMCJlcCS8ofBh4+XQBH5pUC/P8XBxw8LQZUvp0Cj9LnB
xaeUQMSPdECQNoXBipDGQOaKO0CTI4XBRYzEQKT9k0Bf4onBeXxZQLMDMEBGPajB0NsEQLiQdEDr
FpnBaCM7QFslg0B/No3BzejQQJ92Fr++dLXBKCtKQPW2PcBThJHBp47CQFmpx7/GJa7BcLBnQDFn
AsDKEpnB/uXLQOn5Rz++JLPBpdfqQE0wgUCAmrDBxrqhQLg/gUDE+bbBbR+pQJ21UD77TqLBhwyB
QPAefsB22o3B4or1QF5LnEA4MLnBra2uQMJunEBGWL/Bg2WuQHCnlL8gkKTBHyqeQNmNCcAq2pzB
uAy4QI0FmD+hd6nBru6/QM39Z0CsP6/ByMK4QKBaS8BDxZjBe5PKQELyO0Cn35vBaDCDQN+6V0Cu
mpnBavKyQDYFKkA6UKbBvBuzQAdVaEC0bYnBS8DXQBuhqUCGTsDBZuapQK7sgcAebpHByu2rQO7E
W0BE7pTBG/KFQHqJOUCvXqPBJyA6QJExb0CEvpTBngvwQA42LEDKtZnBPV3iQC88UMBlwpvBa8/f
QFmOZL8g3LzBamIJQDUdOsDuiY7BkvfGQKj7JsBI36/B7UQ+QLspoL9G85vBaTDXQGoDwz95v7jB
Ip8BQeMabUDLF6vBNeuAQF0tbUCPdrbBaW2ZQJcLAT/N/prBYVBrQFcDlsBHDojBBCULQYeypkAz
HrrBmE6XQMwCp0BbIsXBbOeVQIMagUAXu4XBTyW7QL+kKkDVsYXBfqrNQI/GikDbPYjB5NlZQHWL
LkAOKqjBWuUCQFt9aUATuZjBLF46QKvogkDDQo3BQTrTQJ/3Gb+uM7XB+bGmQMGCgcDcTpHBn/PD
QBHLyL9d9a3Bq7q3QJbWSsCp85jBsVHOQCo3RT/K8bLBhoehQEjDf0Dj/rbBgqHqQDclgkAno7DB
bAmrQOlOUT5JK6LBxuB3QM56eMBj8o3BMYutQLl/m0ALXL/BlWv0QCaOnUDeOrnB4CGvQBWKlL90
f6TByZGdQO3hCMBO7JzB8hm6QMJClz/cVKnBMCrAQB9gZ0CHQ6/BD3plQHzmAcBJOpnB5XfLQBql
PEA605vBk8eDQG3pVUBnnZnBmhe0QGhpKUCOQ6bBq2azQKhxaUAba4nBTirWQJYCqkDgU8DBRrNF
QNtQOcBj6pHBRmasQGkMW0BH5ZTB/uOGQM3+NkAKVqPBrvE6QH6ObUDh3JTB2RfxQCabLkDUppnB
ndswQIUTib8GLp3Bw8DiQHKEab9+grzB7R26QMzpmsC+B47BHyvIQH6pJ8DWpK/BE0HYQIUVUsCV
upvBa/TZQNEqwT8bibjBDhyBQL0paEAXfbbBmbEBQQqAcEDAI6vBkxqcQF+VAj9fxZrBT8FdQBrr
kcA7EIjB3NCVQFNYpUCXI8XB2GoKQXbrqEDyLrrB5sSVQO3RgEB/wYXBSY28QFvOLEDJk4XBjCPN
QPNUjEDQUojBAgRcQDpbKkCcHKjBYv4DQFdqZ0A55JjBDqM6QCpggkAjaI3BEHbUQETrFr/jJ7XB
bjGoQPq5gcD6f5HB+nPEQMI2yL+4E67BgBS4QI30S8DnXpnBLzXPQG6URz/A27LBh2LqQKZwgkAE
f7DBk4KhQKugf0AsAbfBQsqpQAqzST6uaaLB3Sx8QDsveMAps43BK2f0QHSjnUCSHbnBHL+tQJA6
m0CaZL/B3oCuQH9glb8KvqTBoHqdQFDsCcATJZ3BWKW5QMw+lz/tZ6nBme6/QKqaZ0ASNK/B21Vm
QNrEAsDGFJnBEx7LQHG0O0DLypvBp4+DQKOFVkD0nJnBg7mzQPxDKUCsP6bBwUizQNn/aUBHbYnB
KWHWQEzEqUAvT8DBbd1IQC9cOcCNhZHB/TGsQFMHW0Cl45TBQ4uGQCAcN0AiUKPBZcM6QHlyb0A5
5pTBnKjwQAvqLECxmpnBtFkwQCsijL+K5pzBs9HkQOGQZL+aXrzB6wC8QDkmm8CZYY7BlvjIQGY/
J8CLyq/BgBnYQNvCU8DkeJzBXZvbQBQNwz9gTLjB43oBQcitcUBl6qrBQROBQEoQaEBwiLbBNcCZ
QKXh/T6MJJvBpP5jQEZXkcDJl4fBjGcKQTQaqUDIArrBay6WQAvkpECvO8XBAMOVQGNzgUB3yIXB
ADK8QD5yLUCyh4XBvTfNQPltjEBMYYjBEzlbQBBOKkDFEKjBP84DQDXqaUCy8JjBwqU6QG96g0Bn
dY3B

> <OMEGA_E>
uEkQPhCcET7QLC0+aJotPg==

> <OMEGA_NBR>
     16591

$$$$
50161567
  -OEChem-04172616093D

 45 48  0     1  0  0  0  0  0999 V2000
    6.6069   -0.8586  -23.0202 C   0  0  0  0  0  0  0  0  0  0  0  0
    6.1107   -1.6891  -21.9990 C   0  0  0  0  0  0  0  0  0  0  0  0
    6.5452    0.5413  -22.8841 C   0  0  0  0  0  0  0  0  0  0  0  0
    4.0256   -3.6201  -17.6978 C   0  0  0  0  0  0  0  0  0  0  0  0
    3.1679   -2.6911  -18.3207 C   0  0  0  0  0  0  0  0  0  0  0  0
    6.0890    3.2656  -19.0903 C   0  0  0  0  0  0  0  0  0  0  0  0
    3.9185    3.3267  -20.1563 C   0  0  0  0  0  0  0  0  0  0  0  0
    5.4662    0.2823  -20.7116 C   0  0  0  0  0  0  0  0  0  0  0  0
    5.8514   -2.9194  -19.1578 C   0  0  0  0  0  0  0  0  0  0  0  0
    5.4682    3.6517  -17.8866 C   0  0  0  0  0  0  0  0  0  0  0  0
    3.3642    3.7056  -18.9170 C   0  0  0  0  0  0  0  0  0  0  0  0
    5.5280   -1.1184  -20.8485 C   0  0  0  0  0  0  0  0  0  0  0  0
    4.9991   -1.9797  -19.7778 C   0  0  0  0  0  0  0  0  0  0  0  0
    5.9862    1.1291  -21.7224 C   0  0  0  0  0  0  0  0  0  0  0  0
    5.3146    3.1322  -20.2673 C   0  0  0  0  0  0  0  0  0  0  0  0
    5.3685   -3.7307  -18.1131 C   0  0  0  0  0  0  0  0  0  0  0  0
    3.6515   -1.8643  -19.3549 C   0  0  0  0  0  0  0  0  0  0  0  0
    7.3279    3.2674  -21.8149 C   0  0  0  0  0  0  0  0  0  0  0  0
    5.9184    4.0113  -23.4652 C   0  0  0  0  0  0  0  0  0  0  0  0
    5.9400    2.6617  -21.5969 C   0  0  1  0  0  0  0  0  0  0  0  0
    8.3327    4.8013  -23.5494 C   0  0  0  0  0  0  0  0  0  0  0  0
    4.1347    3.8707  -17.8157 N   0  0  0  0  0  0  0  0  0  0  0  0
    7.1976    4.1279  -22.8961 N   0  0  0  0  0  0  0  0  0  0  0  0
    5.1722    3.2122  -22.7337 N   0  3  0  0  0  0  0  0  0  0  0  0
    5.4799    4.6438  -24.6230 N   0  0  0  0  0  0  0  0  0  0  0  0
    8.3648    3.0100  -21.2119 O   0  0  0  0  0  0  0  0  0  0  0  0
    6.1960   -4.6132  -17.5075 F   0  0  0  0  0  0  0  0  0  0  0  0
    2.8087   -0.9868  -19.9536 F   0  0  0  0  0  0  0  0  0  0  0  0
    7.0358   -1.2955  -23.9099 H   0  0  0  0  0  0  0  0  0  0  0  0
    6.1758   -2.7628  -22.0959 H   0  0  0  0  0  0  0  0  0  0  0  0
    6.9274    1.1729  -23.6724 H   0  0  0  0  0  0  0  0  0  0  0  0
    3.6538   -4.2480  -16.9016 H   0  0  0  0  0  0  0  0  0  0  0  0
    2.1381   -2.6126  -18.0049 H   0  0  0  0  0  0  0  0  0  0  0  0
    7.1512    3.0721  -19.1150 H   0  0  0  0  0  0  0  0  0  0  0  0
    3.2804    3.1858  -21.0162 H   0  0  0  0  0  0  0  0  0  0  0  0
    5.0186    0.7147  -19.8289 H   0  0  0  0  0  0  0  0  0  0  0  0
    6.8759   -3.0161  -19.4856 H   0  0  0  0  0  0  0  0  0  0  0  0
    6.0708    3.7760  -16.9990 H   0  0  0  0  0  0  0  0  0  0  0  0
    2.2990    3.8682  -18.8439 H   0  0  0  0  0  0  0  0  0  0  0  0
    7.9630    5.4253  -24.3764 H   0  0  0  0  0  0  0  0  0  0  0  0
    8.8540    5.4350  -22.8168 H   0  0  0  0  0  0  0  0  0  0  0  0
    9.0295    4.0466  -23.9429 H   0  0  0  0  0  0  0  0  0  0  0  0
    4.2123    3.0046  -22.9219 H   0  0  0  0  0  0  0  0  0  0  0  0
    4.5442    4.5026  -24.9461 H   0  0  0  0  0  0  0  0  0  0  0  0
    6.1003    5.2398  -25.1327 H   0  0  0  0  0  0  0  0  0  0  0  0
  1  2  1  0  0  0  0
  1  3  2  0  0  0  0
  2 12  2  0  0  0  0
  3 14  1  0  0  0  0
  4  5  2  0  0  0  0
  4 16  1  0  0  0  0
  5 17  1  0  0  0  0
  6 10  2  0  0  0  0
  6 15  1  0  0  0  0
  7 11  1  0  0  0  0
  7 15  2  0  0  0  0
  8 12  1  0  0  0  0
  8 14  2  0  0  0  0
  9 13  1  0  0  0  0
  9 16  2  0  0  0  0
 10 22  1  0  0  0  0
 11 22  2  0  0  0  0
 12 13  1  0  0  0  0
 13 17  2  0  0  0  0
 14 20  1  0  0  0  0
 15 20  1  0  0  0  0
 16 27  1  0  0  0  0
 17 28  1  0  0  0  0
 18 20  1  0  0  0  0
 18 23  1  0  0  0  0
 18 26  2  0  0  0  0
 19 23  1  0  0  0  0
 19 24  2  0  0  0  0
 19 25  1  0  0  0  0
 20 24  1  0  0  0  0
 21 23  1  0  0  0  0
  1 29  1  0  0  0  0
  2 30  1  0  0  0  0
  3 31  1  0  0  0  0
  4 32  1  0  0  0  0
  5 33  1  0  0  0  0
  6 34  1  0  0  0  0
  7 35  1  0  0  0  0
  8 36  1  0  0  0  0
  9 37  1  0  0  0  0
 10 38  1  0  0  0  0
 11 39  1  0  0  0  0
 21 40  1  0  0  0  0
 21 41  1  0  0  0  0
 21 42  1  0  0  0  0
 24 43  1  0  0  0  0
 25 44  1  0  0  0  0
 25 45  1  0  0  0  0
M  CHG  1  24   1
M  END
> <OMEGA_C>
w2vTQPPPW79yKbjBrYrDQIs12L/w/a/BHXLRQMCPCj+wErfB3tGAQB+wZ8AxlY3BRL9KQDE7LMDF
kJLBrtjCQGD/UEDvuJjBSch6QF/pVEAZQKHB4OquQOiLkD5nsaXBdj67QJ3XOsBBQ5nB2/uuQLi1
aUDXF4/BaE9XQI0obUD2VZfBq+WwQNkmj7+7yabBAPmfQKJn/b8JOZ7BKo+/QC+GkD9kx63BdRGq
QG12SEBkI6LBcMqrQJLDbsCu55DBmrFpQPag7r/J1prBxX3qQKYdUUDfhK7BrWO9QMdcgECjuLvB
MhS+QD5ZKkBzxqzB8VIFQYSkmUA/ZbzBKk+EQJG5d0Caho7BuVLmQBoYhEA6K7fB/oKlQPqUTUCm
3rXBrluvQJuZlEDu+8TBJdYFQaSkQED4sanBUUXGQBqfk8BwD4zBwcEzQFKcfL/toJ/BbSXhQGDU
pb+IR7/Bd6DFQLzRMMBtxLDB8azdQF4glj8eYb3B3tdpQFzvh8CJNofBw9YIQLg0J8AQCpDBiNbk
QD2dRECe65jB4fJRQJXkS0A4IajBi5igQEb2Nj+loZ7BNgfcQF4IQcCG4pvBGUTCQJ6qcUAD/ofB
WSMTQFCQd0BRwJbB0tD+QG2crUDkAsPBH6oNQYPrrUDYiLbB83gQQZp9gUAoi7/BPsuGQCNLQEAZ
YLfB2mmRQPwUkECokcfB2TXDQLasp0DVD8nBUbjRQIv/X7/lZLjBHq3BQLq12b9WOLDBp/PQQNc0
Bj+bM7fBnbiAQMxAZ8CSgY3BucBdQGwIbcBZ1pfBx5bDQNMTUUCl05jBlTd8QKmFVECbWKHBc+Ow
QId3iz4dg6XB2sKxQM3V8L/pvZPBeL2vQLklakANNo/B6MhYQNs+bUCYcpfB+EOxQIRIkL8ywqbB
92OgQHPI/b/JJZ7BCV3AQPjMjj+pxa3BXMqqQIISSEDpOqLBjjOiQDsHLcDOdYvB1Fl9QKAyOcDJ
LaDB4SvrQDwxUECgpK7B4e+9QMJFf0Ac2rvBwdC+QOiEKUCb16zBSJsFQU3OmEA5nrzBxBCFQNIv
eEDppY7BquzmQGNug0AnVbfBuyKmQNZYTECz87XBuc2vQJu0k0AkIcXB4jEGQZTRP0Dr1KnB8nyz
QKvCJ8C5joHBXDJZQLtJPsBcBKrBiqTeQDZNqL/pl7/BYurBQKSKMcAoL7HBnh7dQPWZkz9jiL3B
kXdpQGK8h8CHJofBzRMqQMWjjMCRXZnBoZblQEzHREDqBZnBHFtTQC4kS0AiN6jBrrikQFfyND/P
NZ7BwgXLQBoQlr+0IpLBLgjDQP1dckDXHYjB4J4UQLK3d0AH3pbBCVT/QA2hrEBWQcPBhP4NQQQ0
rUDTzLbBqrgQQceMgED0vr/BtWiHQInyPkBAbrfBi9SRQGIkj0A9sMfBs5zDQOqzpkAuPsnBLPbU
QCD0Vr/TVrfBUlrFQCbf1r8bOq/B2tbRQLzfDT9AOrbBztd8QE3DbcD6BY7BHoxIQBvRLcCdiZLB
veF6QITRW0CjSqDBvcnDQK1hVEC7R5jB1PGuQBgzjT6166TBg8C5QMWbQMDPXJnBlq5bQI6FfEBJ
jpbBaf+xQIBOdUCUyI7BtLKxQIaOj7+5GabBYtGfQLb5/7+z1Z3BdHW/QFE4kD9j7KzBuJapQKoE
SkDGZqHBskGpQCeVdsAmXpHBReVpQJZO7L+eWprB5KvmQBoZU0D5ta7BGsy0QNdGfEBpC7vBVdC7
QA5bKUC1F6zBOhEAQbrgmUCrgL3BcvmHQErChED6E47Bkj7gQDnKfEC8VbjB9i+gQBA8RkDK6LTB
MR+iQPF4lUASO8PBB4AEQTwmSkA+FqrBk7DCQMZBmcB/24zBuIA2QBwAZb9EpZ7BN1fjQObxob+F
a77Ba2TIQEwHMMA3+a/B147dQHMumT8ehrzBUTxjQBkMjMBh/YfBIMgGQC56J8Df/4/BjKVPQCZg
UEAP4abBXzzlQDAqQ0AEl5jBzSmgQGyFMj9o4J3BFE/aQCuhSMAUFZzBk3kYQIvMhUAb1ZXBtVzG
QM2mfkC35ofBvwXzQIB5pkCkCcXBbhYEQeOmtECzJ7jBuZMOQQcjh0A+Mb/BS/eBQJRNM0CNDrbB
huOCQEI6kkBrxcTB/t+zQFGPqUBgmcfBIvbcQFDiU78m9bTBjqjLQMwK1790Iq3BB/DTQDq5DD8Y
tLTBblhzQESfccAIlY3BH3umQFy3bMBOtI7BiV3IQNwBPUBl65jB7R6BQMDCbEDyoJ3BUcCmQJjn
XT4tAKXB7fNhQAKcB8ADwpvB7NXAQJgnWkBIaY7Bjal3QB81hEAu+5LBI1uwQByGlL+RKaXB5tqd
QCJjA8CdA53B5su5QN8ZjD/mg6zB6CCoQDJSRkCbwqDBO9U9QJQsP8AyHpTBIK+4QNrzNcAvbJbB
EITSQID6W0BKjrHBZeCTQL7zakCe/LrBO5qvQORHJkCgRKzBtNPVQHQom0C3TMLBAT6bQCwLf0AR
nIvBMr2+QJSggkCTD7rBZzyKQDCaNUAONrPBlU5uQDmdgkB50cLBonH4QCr4X0DLD6/BXJPPP0RD
RMD0FZPBoNzjQJrYMMCORJfBJTbxQI2Onb/wK7vBd0PTQGPxLsCFOa3BdwThQOtSmT/IyrrBbKFX
QEEJjsCQtYfB2em6QCiAicCpo4nBsZbmQKe9H0CL9prB8iJPQNXcdEBxW6PBg7uQQOvoGj9THJ/B
FPQ4QDBTwL8DqqDB553ZQKHmUkAmdYjBRvk7QCzokkAKpJDB7c6+QPk2qEAnGsjB72jnQJCVtUDf
fr7Bq4XsQPT/hUCKdMbBleBaQFkDG0DEJrLBHioyQOhZb0CYwMLBJJCAQOMAl0CHhMjBEknUQKjy
Ub94dbfBVKnEQGQD1r94cq/BZJbRQPwxEj+EI7bBXZJ8QNJva8Ah0o3B7caoQNhCd8AESpHB4LR4
QHhbWECDM6DB5zXCQBZ3VUDU45fBW7quQLTghz5w2qTB0vhrQMTV6b9qU5rB6/ZWQP8Nd0BlfpbB
MzKvQOmcdEDDco7BFruxQLSmkL80KqbBXWygQNT6AMAb4Z3B7UW/QAGUkD83xKzBDdaoQIN/SUC0
IaHBarFJQDiAKsClYJLBj+m5QN6BQsB1WpnBlm7nQFpoUkAVF67B0li3QP4IfEDiz7rBGBi8QD6T
KUDVwKvB0sMBQTu8l0D/6bzB3cSEQNiwgkAb5I3B0pLiQJ0zekDx5LfB7XShQLAJSEB/rbTBSfal
QOenlUCoHsPBiYQEQVVSSkCpH6nB/sjvP3SGH8BEIo/B7iLjQEaJTcBTbpzBiVriQM3jnb/Mn77B
qh/HQMaKL8BkYrDBq5jdQG2tnD/VVLzBjmFiQKAaisDoqIfBlT28QKJxlMA6wY3BEtxOQMk0TEBx
6KbBEvrjQJjORkDUEZjBjMGfQFS7LD/GyZ3BblFFQBfnhL/rt53BxSITQHe7gUB75ZXB6/DCQDhg
f0BsfIfBKLn3QKG4o0DPpMTBgoUFQXDxskD6p7fBxEkQQeOJhECFNb7BxfCCQPllN0AE5LXBWLeG
QNJ4k0D6wcTBr6i4QBbnqECDesfBSj3TQFMbW7/gGbjBBnPDQCkS2L/676/BR0DRQI4MCz8G/LbB
cup/QLsVaMAioI3B7C6rQPAlb8AhuZDBaWvCQDX0UEBXopjB+Pt5QG+fVECjLaHBep2uQD0Ijz6S
nKXB2JhqQDhc7r/g2ZrBuICuQEWjaUDQAo/BbmZWQAbVbEDcRJfBmQuxQNRqj78vr6bBjHSgQLXT
/b/iFZ7BxkS/QFNrkD+2sK3BKK6pQC1RSED6DaLB+PxJQHExLMCzspLB9oK7QILoOsC/9ZjBKCbq
QMwtUUCVa67BOxS9QCVIgEBXpLvBwr69QHdIKkB/r6zBJiYFQUexmUDmS7zBn9CDQKWDd0BLdI7B
o/vlQEEYhEC6E7fBOTKlQOhyTUCfybXB4BKvQGRylEDI6sTBfakFQdnZQED+lanBmsTtPye3JcB0
w4/BD13lQLZBQcCJs5vBdOfgQIE2pb/kO7/Bq2jFQMa8MMABwLDBy4vdQHeflj8sRb3BtfRmQKJM
iMDpW4fBtta/QGRYjsDHxozBxmvkQKWrREDs0pjB5zdRQCeGS0DxD6jB1PWfQAqoNT+ilZ7Bk41B
QOkSkb8Zo57BtcDBQHuvcUD/54fBfzQSQCsdd0AysZbB2Hb+QMGerUB368LB8nQNQUwErkAfb7bB
o1MQQQGSgUDVbr/BpnuGQDUjQEDDS7fBZiWRQDHij0BjgsfBde3CQLiDp0AU/8jB

> <OMEGA_E>
yjN9P24+iz/IeH4/IAZ+PyrAcj+kDnE/

> <OMEGA_NBR>
     21622

$$$$
50161568
  -OEChem-04172616093D

 45 48  0     1  0  0  0  0  0999 V2000
    6.6080   -0.5771  -22.6433 C   0  0  0  0  0  0  0  0  0  0  0  0
    5.2505   -4.0556  -18.1716 C   0  0  0  0  0  0  0  0  0  0  0  0
    6.1326   -1.5464  -21.7407 C   0  0  0  0  0  0  0  0  0  0  0  0
    5.7501   -3.1585  -19.1347 C   0  0  0  0  0  0  0  0  0  0  0  0
    6.4368    0.7931  -22.3663 C   0  0  0  0  0  0  0  0  0  0  0  0
    3.9222   -3.9334  -17.7146 C   0  0  0  0  0  0  0  0  0  0  0  0
    5.0688    4.0025  -22.9026 C   0  0  0  0  0  0  0  0  0  0  0  0
    7.3383    4.0888  -22.0689 C   0  0  0  0  0  0  0  0  0  0  0  0
    5.2783    0.2222  -20.3007 C   0  0  0  0  0  0  0  0  0  0  0  0
    3.5982   -1.9974  -19.1583 C   0  0  0  0  0  0  0  0  0  0  0  0
    5.4633    4.8460  -23.9574 C   0  0  0  0  0  0  0  0  0  0  0  0
    7.6629    4.9276  -23.1514 C   0  0  0  0  0  0  0  0  0  0  0  0
    5.4530   -1.1422  -20.5738 C   0  0  0  0  0  0  0  0  0  0  0  0
    4.9256   -2.1230  -19.6231 C   0  0  0  0  0  0  0  0  0  0  0  0
    5.7734    1.2036  -21.1810 C   0  0  0  0  0  0  0  0  0  0  0  0
    6.0085    3.6363  -21.9134 C   0  0  0  0  0  0  0  0  0  0  0  0
    3.0930   -2.9101  -18.2170 C   0  0  0  0  0  0  0  0  0  0  0  0
    6.3450    2.9472  -19.4789 C   0  0  0  0  0  0  0  0  0  0  0  0
    4.0996    3.3034  -19.1778 C   0  0  0  0  0  0  0  0  0  0  0  0
    5.6099    2.6729  -20.7894 C   0  0  2  0  0  0  0  0  0  0  0  0
    5.6098    3.6621  -17.1722 C   0  0  0  0  0  0  0  0  0  0  0  0
    6.7344    5.2981  -24.0637 N   0  0  0  0  0  0  0  0  0  0  0  0
    5.3554    3.2509  -18.5588 N   0  0  0  0  0  0  0  0  0  0  0  0
    4.2003    2.9141  -20.4261 N   0  3  0  0  0  0  0  0  0  0  0  0
    2.9054    3.6554  -18.5671 N   0  0  0  0  0  0  0  0  0  0  0  0
    7.5299    2.7559  -19.2261 O   0  0  0  0  0  0  0  0  0  0  0  0
    1.8119   -2.8025  -17.7980 F   0  0  0  0  0  0  0  0  0  0  0  0
    7.1056   -0.8848  -23.5511 H   0  0  0  0  0  0  0  0  0  0  0  0
    5.8851   -4.8381  -17.7824 H   0  0  0  0  0  0  0  0  0  0  0  0
    6.2879   -2.5961  -21.9413 H   0  0  0  0  0  0  0  0  0  0  0  0
    6.7616   -3.2627  -19.4986 H   0  0  0  0  0  0  0  0  0  0  0  0
    6.8114    1.5334  -23.0578 H   0  0  0  0  0  0  0  0  0  0  0  0
    3.5395   -4.6249  -16.9785 H   0  0  0  0  0  0  0  0  0  0  0  0
    4.0538    3.6373  -22.8495 H   0  0  0  0  0  0  0  0  0  0  0  0
    8.0997    3.7930  -21.3624 H   0  0  0  0  0  0  0  0  0  0  0  0
    4.7575    0.5241  -19.4040 H   0  0  0  0  0  0  0  0  0  0  0  0
    2.9707   -1.1993  -19.5267 H   0  0  0  0  0  0  0  0  0  0  0  0
    4.7351    5.1393  -24.6991 H   0  0  0  0  0  0  0  0  0  0  0  0
    8.6769    5.2842  -23.2565 H   0  0  0  0  0  0  0  0  0  0  0  0
    4.6526    3.8418  -16.6610 H   0  0  0  0  0  0  0  0  0  0  0  0
    6.1610    2.8667  -16.6493 H   0  0  0  0  0  0  0  0  0  0  0  0
    6.2069    4.5860  -17.1676 H   0  0  0  0  0  0  0  0  0  0  0  0
    3.4260    2.7965  -21.0480 H   0  0  0  0  0  0  0  0  0  0  0  0
    2.0502    3.6206  -19.0841 H   0  0  0  0  0  0  0  0  0  0  0  0
    2.8995    3.9439  -17.6096 H   0  0  0  0  0  0  0  0  0  0  0  0
  1  3  1  0  0  0  0
  1  5  2  0  0  0  0
  2  4  2  0  0  0  0
  2  6  1  0  0  0  0
  3 13  2  0  0  0  0
  4 14  1  0  0  0  0
  5 15  1  0  0  0  0
  6 17  2  0  0  0  0
  7 11  2  0  0  0  0
  7 16  1  0  0  0  0
  8 12  1  0  0  0  0
  8 16  2  0  0  0  0
  9 13  1  0  0  0  0
  9 15  2  0  0  0  0
 10 14  2  0  0  0  0
 10 17  1  0  0  0  0
 11 22  1  0  0  0  0
 12 22  2  0  0  0  0
 13 14  1  0  0  0  0
 15 20  1  0  0  0  0
 16 20  1  0  0  0  0
 17 27  1  0  0  0  0
 18 20  1  0  0  0  0
 18 23  1  0  0  0  0
 18 26  2  0  0  0  0
 19 23  1  0  0  0  0
 19 24  2  0  0  0  0
 19 25  1  0  0  0  0
 20 24  1  0  0  0  0
 21 23  1  0  0  0  0
  1 28  1  0  0  0  0
  2 29  1  0  0  0  0
  3 30  1  0  0  0  0
  4 31  1  0  0  0  0
  5 32  1  0  0  0  0
  6 33  1  0  0  0  0
  7 34  1  0  0  0  0
  8 35  1  0  0  0  0
  9 36  1  0  0  0  0
 10 37  1  0  0  0  0
 11 38  1  0  0  0  0
 12 39  1  0  0  0  0
 21 40  1  0  0  0  0
 21 41  1  0  0  0  0
 21 42  1  0  0  0  0
 24 43  1  0  0  0  0
 25 44  1  0  0  0  0
 25 45  1  0  0  0  0
M  CHG  1  24   1
M  END
> <OMEGA_C>
mXTTQM28E79yJbXB5AOoQLrHgcBcX5HBDj7EQM/uxb/v7K3B9gC4QOckSsDeE5nBHfrNQMwLSz8e
7rLBWwV7QGu9e8B5t43BpTOiQIoUgEB+OLfBEtPqQEHXgkAnjbDBseeoQDqGYz7JZ6LBxkhmQGes
/79ARJnBTtOuQFkSm0DSqL/Bozb1QECvnUAGNrnBwH6uQDgzkr83l6TB556dQILeB8AX/JzBxb+4
QLoPmj/GcqnBzUXAQJ65aECWTq/BDfNFQEo/OsBovJHBRgrLQF+ePEDH1JvBpi+DQEhrU0AZbJnB
UoSzQHYQK0CcUKbBuYOzQGJgakDEYInBkYDXQEKKqUCLgsDBM1+rQH8PUEB9eJTBxGiGQDiAOkC3
aKPBVvI5QIvxaUBdiZTBlPTwQGVhMEAdz5nBVe3nP6lbM8BWYo7B8mDjQFSEYr+daLzB6VK8QG/R
msBtQo7BLTbJQA0nJsDEh6/BAl/YQNLPUMA4/ZvB4PbZQEFFxD9IdrjBJYdiQDf/k8D804fB8riB
QPXIaEDGy7bBXJgBQf/AckA55qrBwj2YQJEqBj9UO5vBciA+QFeDmb+jNpzBB4aXQPV0pEDXl8XB
ydQKQdAXqUA5DbrB7+GUQEzgdUC0SYXB9CbFQJx3N0DPMYXBFp/GQDXAkkA9V4nBXkRbQBr6MkBR
YqjBszUDQD24Z0A8rJjBkJE5QDtpfECE4IzB72DUQOxiGb+mG7XBbGxEQF0YPMCj9ZHBYXzEQLv0
yL+W+63BinBkQMEkAsDrlJnBhe3OQJptRT/u37LBHoh6QMN+e8B0qY3BmV7qQJQQg0CEZ7DBMPmh
QPYafkC9LrfBbIyoQGgdSD67i6LBffW3QILoSMBD45jBU170QAt0nkD2/LjBijGuQDGimkCkib/B
yxmuQO1Jlb8BvaTB6AadQEgVCcBFIp3Bbva4QGu2lj9+fanBYRfAQDllZ0D/Pq/BbzqoQJSdgMDM
CpHBXtLKQFfXOUClwpvBm0+DQKnPUkDehJnBHZGzQDMOKUBwTabBP/6yQEjuZ0AlZonBwJDWQG79
qUDdS8DBQOCqQH54SkB5XJTB+GGGQH26N0DLaqPB3747QMQWcUCz7ZTBaPXwQGtAMECUx5nBe5fC
QIUMnsB1p4zBvMrkQC3kZ78HTrzB/4MCQPkAOMAxaI/BlGzJQE+qJ8DAl6/BQ547QBWuoL+euJzB
3nvbQDutwT8EULjB0StiQC3kk8DHxIfB0mgBQXm7c0Bav6rBicCBQGZDZUCH1rbBBnOXQAMl/j4W
b5vBkpXYQLORTsAUppvBAkwKQSeNqkDNwrnBptKWQE3Bo0DoesXBAl+UQFRQcEAMMIXBEIrGQFc1
OEC6KIXBfyrEQI6tkkDpoYnBVB1bQCtULkCPU6jB0tIFQPc9c0CxOpnB/qc7QGJjgkACUY3BUAzU
QHlZE79NS7XBni5HQI/tOcCZvZHBRP7EQC8Gx78JIa7Bbi1nQMqXAMClbZnBtDnOQIW8Sj9dArPB
S0p8QIgde8Bir43BN1OhQDrVgEB84rbBEHLqQGnbgUCrhrDBqGWpQLw/Sz5agqLBXlW4QHdZS8Ch
R5nByeutQOzcm0BGUb/Bm8r0QNfGnEBoLLnBWw+vQDbBlL8PyaTBk/edQINXCcDRO53BG/a4QIQg
mD9sfqnBybq/QJI8aECIJa/BXIuoQMK8gcAXaJHBaLfKQHraOkB5vpvBuS2DQMw0VUCmf5nBTzuz
QGGjKUAMPqbBrEmzQD+4a0DbaonBTtbWQLF5qUA7UsDB7RGrQMKjT0DHb5TBXAyGQMTCN0AFTKPB
rhY7QEdDckAb4ZTBz5bwQIFILkANtJnB6UrCQBRjoMB9UY3BkhvkQGuoX79CkLzBOQgGQNj/M8CO
847B7TjKQBuLJsBcyK/BuPM+QLmPm7+3bpzBNPfZQFsVxT9TgrjB6AlkQBNlk8C8tofBvJ+AQCq/
a0CEVLbB7HwBQe2Nb0Bz/KrBJtuYQN90+z4ZS5vBvobYQE7UUsCyR5zBSWeWQIf6pUAcH8XBsLMK
QbeOp0D2ILrBu6+UQLwLeEDFWYXBNuDEQDZqOUDLG4XBjXjGQJxek0AuiYnBNjJaQB50LEBLGqjB
CZsEQDePcUBtE5nB+Ek7QO71g0D0WY3BTITTQDIRGr+9Q7XBuS2nQGwtgsBtQpHBa5XEQJBeyb/j
Aq7BBMS3QJYmTMBWCJnBCSrOQIznRD9gBbPBhXZ5QB2jesDNno3B53LqQILjgkCGd7DBYOOhQKeU
fkC3J7fBWDmqQB98Rz5pW6LBMiVnQOrh/r8NVZnBfl/0QPdynkDzBLnBTQquQKQHm0DUe7/BImyv
QAKdlb+1l6TBQwWeQCUqCcC6Ap3BjoO5QDadlj90dKnBRSTAQJ9aZ0CJRq/BLKJFQEaNOMCavJHB
bijLQDIiO0Dk05vBBXiDQHkxVEBClpnBhsezQMYfKUBWUabBYIuzQGKvbEDwi4nB53PWQNZGqkC4
RMDBTm2rQHrTT0C4iZTBHI+GQMRnN0BtaaPBRCE7QDJRb0Bz65TBDg/xQLwUL0B8xZnBGJrnP2Oj
L8AZZo7BHyDjQEKaaL91krzBb/26QEB7m8DSFI7BwVLJQG3fJ8BfqK/BkA/YQFBOVMBh75vBP8zZ
QJZUwT9Zl7jB3CJgQF/yksDaq4fBwH0BQTnickDK26rBWqOBQLnoZUDOybbBzEGaQDYS/j5zFZvB
2Og/QFHzl7/rXZzBSFAKQcRxqkAV0bnBF5aWQCRepEBuYsXBQOaUQJW/eED2fIXBHFjFQNLsOkCK
MYXBInzGQBABlECpuInBjWdbQJGdLEAkRKjBmpYEQKiebUCTGZnBPgE7QIJJgkC4X43BulfCQPzY
2b4Ew7fBZojPQOflg8DnJ5bBMQm4QDcYur9hprDBXF/NQHYNSMA0A57BEE7AQIw9aD9IXLTBTXmu
QHmZh8CNlY7BJjnrQOAQekCKLrDBhR+iQF6OhEA3SrbBUpinQICqPT6swKLBfX2JQAAyFcD7mpbB
MlH4QCpmlUB5EbnB4XyxQPa4nEBO+b7BiZ2rQHV0k79pF6bBJ5GqQESCDsAiPJ7BoeyyQNxUnT99
zKnBIzO/QATSaUASka7BRliLQJCSVsAb247BzqHHQNByOEAyW5vB4U2BQN5HXkBNZJnB0g+wQJg6
K0Am66XBqF2xQBKsbkDaMYnBErrbQLzkpEBfOMDBveepQJjcXUC1mpTBu16DQHgKPUD4AqPB0s43
QJjTfECcz5TBhoXsQCKYJECDGpnB6yxXQMLoXsBVmofBVNrLQP9WKL+o27/BhXfqQCKImcAZ6pXB
ZZi5QF3hHsDqQLPBhXDmQNbmQsDq7KPB6v3IQIN72T/A0bnB9PuvQAM6oMDIiIjByVIBQXhDYUAI
o6rBXlOAQKECfEAAiLXBpOKbQLP40j4t1JrB6hReQNxs0b+fs5bBf/oMQcfhm0DZNLrBiA6bQGAK
qUDax8TBo8WUQNBWhkASsYXBuwO4QIYCMkDPDIXBD+nMQLH0jEDES4jB6jhUQDN0MUBwtKfB/M0A
QCM1ekBP45jBF9o4QIG9ikD1bY3Bzb/YQCgAWr+IObfBCKmpQCi5dcBcY5HBPpLIQGhr2L+TLa/B
if25QMihQcAjnpnBP+vSQKbACT8/f7bBVqd+QP4oasCeyI3B+SLFQFYIVEAqPpnBetl5QDYNWUA1
LqDBwQyrQPB+gD7M4aXB8L1rQMQA6r/Xc5rBwWO1QFS/c0DwdY/BSN1eQOi3eEAzMZbBOFCxQLgn
kr8wjqbBACmgQBjWAMAjI57Blfu8QJmIjT/mq63Bo9KoQMSCSEAm8aHB1rZKQMwyKsB3YJLBW+if
QG5QS0BRIbbB54PkQOBlfUAwFrfB64i5QOAiKEDfyazB1TOyQDZUk0AG+MXBYmqLQIwPg0BoGY7B
wha7QKjNgUBzUbvB0UrkQJn+TEDBh67B8XAEQSLTkUCGQ7vBKHl4QPblNECCHrnBPuTxPzwIIMCg
FI/BgaXpQB4Qo7829r3Br5K9QIJGk8AZ1o3Bt+3NQFhqMMCOlq/Bm0DaQHQxS8DSeZzBC0TfQM8R
lz94uLzBbIdlQLMsicCtfofB/qbmQFGaREDhF5rBs8RLQGx5TUCedKbB/HyYQLheKj9kZJ/BnWNE
QGQbhr/f1p3By03LQJiifUAj5YjBtuMbQOFTg0Dm9JTBmWXMQOPOqEBYXMjBgpCvQKz6cUDvxMvB
k/eTQNBVpUD+xMXBW6r9QOmLQkB11anBbZsSQR1+jUC1tLfBq2QDQV/0o0DI1cHBJO3VQKxlW7/c
ibfBzdmpQNqPd8DHiJHBYpbGQGBV2b/nZq/BUxO6QCJVQ8AUw5nBIybRQMbdCD8fnrbBz9d/QOCh
asCBtI3BIRJ5QBh2WkBBbqDBEuvDQAMLVECN+5jBClGsQGjpfj6IkqXBe1dtQLDa57/6JJrB6mhc
QHrAe0B6mpbB0FOzQEgmdUBEXY/BdWmxQJiqkr9/d6bB9YmgQAYaAcDHCp7Bre28QEIXjT9Riq3B
6HmoQA+eSEAM3KHBwYVMQBQhKcCAEJLBI+ShQAeLTEDpE7bBSQ7nQJ6Ye0B6frbBSSC6QPHVJ0CL
lKzB9vy2QCL7k0Dnr8XBFmGJQJ6OhEDMVo7BezG+QOQQgkA8/7rBpFzlQB7jSkAl+63BwDMGQdiy
j0AncrrBYAV9QH09N0B9ZbnBWVL3PzJDHcCDhI7BnV3lQKbGo7+Hfb7Bmoa9QKbFlMCiJ47BGv/K
QGYQMcC1+6/B/f/ZQMLjTcD8y5zB/P/cQHDglj9p47zBx91mQPh7icD5a4fB9jJMQMWjTkCQ1abB
SGPlQON7Q0Bqk5nBPqqbQLF0Kj+Pxp7BPHpGQA3ggb+NX53Ba3EZQKWAhUDaoZXB3YvIQNnVfkAj
p4jBadXRQNURqUAQ1cfBsKq0QMWkc0Dyi8vBBAyZQEd9pkBltMXBtxH+QBgwP0CoHKnBziAUQU5G
ikBfv7bBj8EFQUULokA1/8DBuVLZQA56Xb/5RLfBNT9KQNzgJsBkNpLBNNnIQCfb2b+2Pa/B4CRr
QH+P5r/7dprB7l7TQAZTBj/rmbbB5JB9QNBbZ8ALpY3BaQLFQDhXUkD0UZnByyJ6QGFEWEDvbKDB
rwqrQEC7eD4mDqbBDw65QE47QsBUx5nBYvW0QH5ucUCXio/BkH5eQNIpd0A/bZbB9yixQCM5k79J
s6bBvpOfQAz1AMCVSp7BADK9QK0mjD+a063Bk/+oQDCeR0AmGaLBD86oQKywdMAyZJHBTByhQISW
S0AmU7bBofblQHS1fEBg87bB2Qm6QIxzJ0CN6qzBxv60QCGek0CSCcbBnvOKQGjogUD1QI7BROS8
QKPMgUBKXrvBSwvlQM2GS0DJeK7BMlsFQStjkUA277rBfgF7QPkKNkAadbnBSr7BQMyxmMDD3YzB
9YrqQP0Ppb9s8r3B8q8JQPYQHcBcYY/ByE3OQMgeMcAymq/BvytEQHlSgr9t4Z3B+M3fQH0LlT93
1LzB9n1kQIJRh8ByQ4fBMYjmQP3EQkB8HJrBIINMQN9eTUB9xabBrmWYQNgOKT+nl5/BRADZQApt
TcBZw5zBsKbKQOPSekAr64jBvXQbQBWOgkB+P5XBqZHPQGblqEBgRsjBs4+yQIzWckAP4svBU+uW
QGHnpUAF9sXBfB/+QCAWQECMtqnBwGUTQeOqjEDySLfB3pIEQU3Xo0BfdcHBPe/WQEhIW7/7a7fB
LupKQBYmKsBBNpLBuPbGQAgi2b9EW6/BM/ZqQJyR6r+PZJrB98HRQDrDCD8vk7bBxbt/QAZZacC9
n43BYel4QHIJW0BKfaDBZ8vDQDmiU0B/CJnBLSarQND2fj67xaXBOPS5QBbFQMAaopnBk3ZcQKaV
fEARqpbByk+zQAD+dEDCao/BsKOwQAiGkr+Pl6bBPbGfQBjtAMD6Kp7B7pu8QFURjT/poK3Bu1eo
QOuZSECT6qHB9TiqQOASdMAvRZHBOwOiQDr9TEDDJ7bBpobnQIDoeUD0m7bBXPu5QErWJ0AopazB
haC3QHANlEASwcXB3nCJQFzMhEDVZY7BrLS+QLrXgUBdF7vBlF3lQCZ5SkDg/a3BTJYGQXLzjUBs
orrBcLN8QLAmOUCgbLnBj/zDQGF7l8DBqYzBPinnQGy6o7+nQr7BROQJQO5MIsBec4/BqMLLQDTm
MMD626/BCgtDQHCih79WyZ3BWALeQL7Alj8QzbzBR0pnQBjSiMDBTYfB+fZLQGB4T0Ba5KbBAzTl
QJWTQkDdnpnBEo6ZQGZOKj+GH5/BTBjaQI86SsCdlJzB8ZoZQIkphkCEspXBdo3IQDpafkDks4jB
59DSQM+sqECD6cfBhbW0QIQQdEC8osvBfgiaQGEcp0Clt8XBfdH9QEReP0CHBanBv3YUQWVUiECJ
6LbBIUwGQSTXn0AXRMHBLnvSQL3RY7/ShrjB3Yx+QIoXgsCwAJjBnc3CQCTJ2r8/RLDBoRqPQPKr
UMANW6DBub/QQN2KAj9fi7fBMOmAQIjbZsAuW43B/BfEQOCFU0BQkJnBeTd7QKpvU0CqkKHBPVWv
QPq0jD5wBKbBFFKiQJaExL8IYJPBYw6xQC7QbECv14/BIJpZQCrwbED3m5fBkzSxQCHhkL8+66bB
xL+gQLQ//r9EH57Buxa/QJb3jT8iSa7BMU2qQDB2SEBGwaLBBG6SQHjeFcDRC4vBKZynQA7RUECV
CrfBBwDtQN85gECRdLbBMAK+QMIhKUBXX63BYji+QGB4m0DxoMXBL1SGQHaYeUDVAY/BrP3EQAig
hEBid7vBqBPqQARwSkAGa67BM0IJQZwSlUCvYbnBYtODQCpbQEDQg7rBzieUQI4987+Z0oDByuLf
QEEdq7+ApL/BP7VjQK8mocBnw5nBBzTEQHIpMsAGELHBIMiNQKZ2Z8B4gajBx/3cQE/7kD/N573B
m3dpQC07h8CE9obBay7mQAqoSEBs/ZnB7vdQQOdOSECiQqjBhrKhQMx7OD+r7J7BQMyvQE8XEb+y
kZHBawjFQL05dkAY5IjByHQVQB6gdkDo0ZbBwCbaQM7Cr0CJWMfBbP+5QHkhhECIIczBG3GhQJ6V
r0DQAMXBXzcBQZkUOkAkpqnBF78WQbbij0A3R7XBjUMJQUJBqUD/lr/B

> <OMEGA_E>
ALbCPGCBTT3AYVA9AJbBPKh8lD6apHg/8FF5P6jdfT+2aH8/rT+LPw==

> <OMEGA_NBR>
     29829

$$$$
50156562
  -OEChem-04172616093D

 55 59  0     1  0  0  0  0  0999 V2000
    6.2570   -0.5808  -22.8526 C   0  0  0  0  0  0  0  0  0  0  0  0
    5.4202   -4.1448  -18.3072 C   0  0  0  0  0  0  0  0  0  0  0  0
    5.8764   -1.5868  -21.9431 C   0  0  0  0  0  0  0  0  0  0  0  0
    5.8065   -3.2964  -19.3534 C   0  0  0  0  0  0  0  0  0  0  0  0
    6.1839    0.7748  -22.4762 C   0  0  0  0  0  0  0  0  0  0  0  0
    7.3594    3.8055  -22.0043 C   0  0  0  0  0  0  0  0  0  0  0  0
    5.0136    4.1076  -22.6125 C   0  0  0  0  0  0  0  0  0  0  0  0
    7.7393    4.6462  -23.0587 C   0  0  0  0  0  0  0  0  0  0  0  0
    5.3933    4.9371  -23.6645 C   0  0  0  0  0  0  0  0  0  0  0  0
    5.3954    0.1145  -20.2730 C   0  0  0  0  0  0  0  0  0  0  0  0
    4.2055   -3.9021  -17.6325 C   0  0  0  0  0  0  0  0  0  0  0  0
    5.4187   -1.2267  -20.6585 C   0  0  0  0  0  0  0  0  0  0  0  0
    4.9699   -2.2184  -19.6832 C   0  0  0  0  0  0  0  0  0  0  0  0
    5.9873    3.5562  -21.7543 C   0  0  0  0  0  0  0  0  0  0  0  0
    5.7549    1.1264  -21.1674 C   0  0  0  0  0  0  0  0  0  0  0  0
    6.7616    5.2260  -23.8892 C   0  0  0  0  0  0  0  0  0  0  0  0
    3.7490   -2.0378  -18.9772 C   0  0  0  0  0  0  0  0  0  0  0  0
    6.2449    2.8037  -19.3876 C   0  0  0  0  0  0  0  0  0  0  0  0
    4.0395    3.2844  -19.1626 C   0  0  0  0  0  0  0  0  0  0  0  0
    6.8633    3.3284  -16.6792 C   0  0  0  0  0  0  0  0  0  0  0  0
    5.5208    3.8247  -17.2209 C   0  0  0  0  0  0  0  0  0  0  0  0
    7.9358    3.5026  -17.7723 C   0  0  0  0  0  0  0  0  0  0  0  0
    5.5586    2.5581  -20.6983 C   0  0  1  0  0  0  0  0  0  0  0  0
    6.1685    6.7115  -25.6909 C   0  0  0  0  0  0  0  0  0  0  0  0
    3.3936   -2.8744  -17.9766 N   0  0  0  0  0  0  0  0  0  0  0  0
    5.2347    3.0981  -18.4751 N   0  0  0  0  0  0  0  0  0  0  0  0
    7.5127    2.8577  -19.0447 N   0  3  0  0  0  0  0  0  0  0  0  0
    4.1314    2.7371  -20.3491 N   0  3  0  0  0  0  0  0  0  0  0  0
    2.9371    3.9631  -18.6681 N   0  0  0  0  0  0  0  0  0  0  0  0
    7.1933    6.0564  -24.9059 O   0  0  0  0  0  0  0  0  0  0  0  0
    2.9053   -1.0245  -19.3000 F   0  0  0  0  0  0  0  0  0  0  0  0
    6.6051   -0.8488  -23.8392 H   0  0  0  0  0  0  0  0  0  0  0  0
    6.0465   -4.9766  -18.0202 H   0  0  0  0  0  0  0  0  0  0  0  0
    5.9346   -2.6271  -22.2276 H   0  0  0  0  0  0  0  0  0  0  0  0
    6.7260   -3.4677  -19.8932 H   0  0  0  0  0  0  0  0  0  0  0  0
    6.4538    1.5466  -23.1818 H   0  0  0  0  0  0  0  0  0  0  0  0
    8.1132    3.3470  -21.3814 H   0  0  0  0  0  0  0  0  0  0  0  0
    3.9687    3.8856  -22.4531 H   0  0  0  0  0  0  0  0  0  0  0  0
    8.7852    4.8499  -23.2349 H   0  0  0  0  0  0  0  0  0  0  0  0
    4.6408    5.3621  -24.3123 H   0  0  0  0  0  0  0  0  0  0  0  0
    5.0952    0.3741  -19.2686 H   0  0  0  0  0  0  0  0  0  0  0  0
    3.9156   -4.5526  -16.8206 H   0  0  0  0  0  0  0  0  0  0  0  0
    7.1425    3.9139  -15.7908 H   0  0  0  0  0  0  0  0  0  0  0  0
    6.7819    2.2656  -16.4073 H   0  0  0  0  0  0  0  0  0  0  0  0
    4.7263    3.6273  -16.4862 H   0  0  0  0  0  0  0  0  0  0  0  0
    5.5756    4.9051  -17.4202 H   0  0  0  0  0  0  0  0  0  0  0  0
    8.0969    4.5762  -17.9498 H   0  0  0  0  0  0  0  0  0  0  0  0
    8.8748    3.0424  -17.4310 H   0  0  0  0  0  0  0  0  0  0  0  0
    6.6408    7.3390  -26.4610 H   0  0  0  0  0  0  0  0  0  0  0  0
    5.5355    5.9526  -26.1739 H   0  0  0  0  0  0  0  0  0  0  0  0
    5.5499    7.3408  -25.0340 H   0  0  0  0  0  0  0  0  0  0  0  0
    8.2034    2.4593  -19.6482 H   0  0  0  0  0  0  0  0  0  0  0  0
    3.3580    2.4802  -20.9287 H   0  0  0  0  0  0  0  0  0  0  0  0
    2.1190    4.0672  -19.2337 H   0  0  0  0  0  0  0  0  0  0  0  0
    2.9597    4.3488  -17.7457 H   0  0  0  0  0  0  0  0  0  0  0  0
  1  3  1  0  0  0  0
  1  5  2  0  0  0  0
  2  4  2  0  0  0  0
  2 11  1  0  0  0  0
  3 12  2  0  0  0  0
  4 13  1  0  0  0  0
  5 15  1  0  0  0  0
  6  8  2  0  0  0  0
  6 14  1  0  0  0  0
  7  9  1  0  0  0  0
  7 14  2  0  0  0  0
  8 16  1  0  0  0  0
  9 16  2  0  0  0  0
 10 12  1  0  0  0  0
 10 15  2  0  0  0  0
 11 25  2  0  0  0  0
 12 13  1  0  0  0  0
 13 17  2  0  0  0  0
 14 23  1  0  0  0  0
 15 23  1  0  0  0  0
 16 30  1  0  0  0  0
 17 25  1  0  0  0  0
 17 31  1  0  0  0  0
 18 23  1  0  0  0  0
 18 26  1  0  0  0  0
 18 27  2  0  0  0  0
 19 26  1  0  0  0  0
 19 28  2  0  0  0  0
 19 29  1  0  0  0  0
 20 21  1  0  0  0  0
 20 22  1  0  0  0  0
 21 26  1  0  0  0  0
 22 27  1  0  0  0  0
 23 28  1  0  0  0  0
 24 30  1  0  0  0  0
  1 32  1  0  0  0  0
  2 33  1  0  0  0  0
  3 34  1  0  0  0  0
  4 35  1  0  0  0  0
  5 36  1  0  0  0  0
  6 37  1  0  0  0  0
  7 38  1  0  0  0  0
  8 39  1  0  0  0  0
  9 40  1  0  0  0  0
 10 41  1  0  0  0  0
 11 42  1  0  0  0  0
 20 43  1  0  0  0  0
 20 44  1  0  0  0  0
 21 45  1  0  0  0  0
 21 46  1  0  0  0  0
 22 47  1  0  0  0  0
 22 48  1  0  0  0  0
 24 49  1  0  0  0  0
 24 50  1  0  0  0  0
 24 51  1  0  0  0  0
 27 52  1  0  0  0  0
 28 53  1  0  0  0  0
 29 54  1  0  0  0  0
 29 55  1  0  0  0  0
M  CHG  2  27   1  28   1
M  END
> <OMEGA_C>
PznIQHqsFL8Y0rbBMXKtQEmihMAmdZLBOAu8QDkdy79/i6/Bg865QNH3UsDF05rBj+LFQLpXRj9E
z7PB+n/rQNiMc0DNCLDBNm+gQLZxg0Bl5rTBPaj3QFGtlEBNeLjBrZWsQJD8nUDtUL3BXKesQLhp
6j0pL6LBjJOGQLq7ecBfD43BVGatQBcEnb+mRKXBaQmfQDz6DcA0d53BJJi/QOCYY0DYCK7B0ie4
QJ0tkD/KVqnB9V7YQI87p0AgHb/B8u9vQOFqAsBN0ZfBItbHQKdvM0C7GZvBOEOBQDg0UkDsTJnB
5p/bQIYEVUD2boXBDaqwQIjIdEBxxInBxvH9QBIrYECvLY7BOOCxQKi3I0AMlqXBIGTFQOfE1kDn
hs3BQDBZQHj2N8D9z4/B8IKnQNFHRkDpzJPBEmjwQCLlNkB/W5jBSDSEQCgsL0AKy6LBpPk7QNSj
fUBOWJXB0y/mQOTNwUBOP8fBGvA5QC0kg79dZprB+1zTQBpMWb+itr7B3HzBQOk/n8BvKZDBDOi9
QOEhKMAQ0rHBnTvXQJzvXcBcJZ/BJoXOQFj3xT9PdLnBns8BQTU1VkArDavBxf99QPuteEDdn7PB
/I8MQY8ym0An4bnBwIGUQLKWq0B+f8LBiAujQN+Nvz4pJprBnJh6QNOukcCdkIbBno/kQJl8ekAI
p3zBqgXZQFsAEUATQoPByj2XQM0laECx44PBj2uyQOv2nECbXIvB34wBQSpwkkArmY/BFv8NQfC2
QkDJcovBiIHUQGvZ6kAssNPBESOxQGp7vkA2ZNHBt5ixQJbn6kC4RcjBJEEDQeNlHUB5L53B/ehW
QNS7HkDtbafBvp0HQNsmgkCS3pnBImw9QCcpi0BL943BgpSyQJ9wJr8Uu7bBpRL5QF3jX8Du25DB
hf66QF2Xzb8Yvq7BLZnyQMGEI8BUBZnBsBmwQExzNz9qELTBQNbqQMdqXkBvh7PBioukQPojkUAq
tbPBa2L4QAq0ikCdy7vBLQqyQJp1rEAC9LvBsEi+QAKNLj7NXqHB3kfVQMxhgcCZiIvBCZ7AQEfd
mL/EDaTBsG3IQHbmC8Asn5vB4K3AQJE8ZEB9aa/Byvu2QOK1kj/PYanBUjLcQPmHqUDyGMDBROal
QKPvMMD18JXBLxnKQPYaP0DLVJzBzV+CQCgkUUDVRJnB9mHhQHksTkBai4bB2xu2QALMdEBQAIrB
uJcBQVTMXUAzZY/BgB+yQEFNKEDJWKbBy+PNQOsb40DMmszBN8isQOYya8ABF47BQiurQP3AUEC7
o5TBlEDzQLwOQkCuG5rBIvyEQGwXNkA3OKPB4Sc5QGhkaECcMZTB+VXrQNK4w0AOQMjBv1F6QIEZ
GsAsT5jBQASuQG/rdr/j6r7BVogMQYRlc8Dwro7BDyO9QAbLKcByzLDB2LgGQSjKB8ATN53BVeeo
QMC3uD/cMrrBEVwAQQyHL0AbT7DBv2OEQJPSk0DwnLDBjEsMQQAtiECG3b7BCiecQOLnw0CdK7/B
kxbCQMbp8z6UI5nBc0HaQF+rmMCbRYXB9v7rQNavbEBOJH7BGqPdQLjxCEDZP4XBKTCdQPLYY0Ca
KITB68G4QOJunUCBiYrByWAFQStBkUCKsY/BgScQQdF1OUBTco3Bc/TdQNt89UDm8dLBT8+xQJmq
0kDo9c/BA5HDQKf4+EB2NcbBozAEQUNKMUA4vZ/BzbdXQAYzLEBTBKjBnZIBQJ8kZUB/I5jBtFE6
QEJhfEBomIzBBLCyQAD5Jr+3qrbB3lSvQOJAbMBJ2o3BcwG7QOKXzb8WqK7B+1qmQAR+MMAS8JXB
3TqwQCoiNz/LBrTB+r3qQESdXkATj7PBk1ykQIcPkUA4u7PBySz4QNHFikDm17vBer+xQMVbrEDg
/bvBmz++QByEMj7sUKHBSlPaQBqTgMBAmIvB3IbAQCd8mL/a+KPBab3IQCB4C8B5iZvByJnAQOVM
ZEB9ba/B0wq3QBPukj9yWanB/uPbQCWCqUDpJcDB0CXzQGXXIsDa2ZjBpzDKQKCBP0AGV5zBvneC
QDhMUUDuP5nBzpzhQK8XT0BKkYbB5UW2QIR0dUAnBIrB4qoBQQSwXkApcI/BUyqyQI11KEAYV6bB
MFvNQBTx4kBTrszBoi/7QG67XMDPBpHB7kurQMsrUUCto5TB6FrzQHSsQkCYIprBNQqFQPsoNkBq
MqPBh1k5QCJsaEDpKZTBCOrqQLysw0DEUcjB1UEKQYTs/b9hH57BVC6uQGMFeL+g2b7BXKOVQCTv
hMBtaonBECe9QD7VKcBFsbDBYLyFQOxPH8Bv0ZfBrRqpQJpbuD+cLbrBalkAQT/gL0AFVrDBijWE
QPSrk0CIobDB3y4MQUFLiEDg7L7BbMmbQOa6w0AiNr/B3wXCQBEY9z7pFpnBEjrhQJufl8BwZIXB
Aj/sQLDMbUB3N37BuvPdQGTfCUDkP4XBwWmdQCqAZEBdKITB2ta4QFzDnUC/korBbGoFQU22kUCs
wo/BVEEQQYOCOkDRfY3BNlbdQDFQ9UArCdPBdE6xQBZk0kD4BNDBpwDDQOPT+EASS8bBCjsEQVTi
MUAqxZ/BashXQIgnLECw+6fB0LkBQC8AZUDoGJjBQY86QNF9fECYkYzBk/60QJ90I7/ojbbB9yHq
QMTQL8Dh9YnB9B++QGquyr/5jq7B193iQEcs578EFJLBvwSxQHC4OD8B6rPBP6TqQEJ/XkByhrPB
gBCkQH6WkECv1rPBLff3QCFNikDu5rvBElmxQNJ7q0BmMLzBkyG+QGjkPz7wKaHBdrbYQCY/gcDX
+IrBLNzBQCSHl79ZuqPB3RzKQEg8C8CxE5vBKHTAQNY1ZEAja6/BFia3QGrrkz82PKnB8ofbQFSh
qEAhUsDB7Ty5QJPWX8AUe5vBfBXKQP2sQECKTZzBllWCQGcVUkCdOJnBOorhQA0SUkCajYbBgBy2
QFvNd0CMCorBRZoBQfhDYUDPco/BqAyyQM/qKEBbR6bBwcXMQOZY4UD5CM3BAeXAQBaFjMBXkJPB
wy2rQNWZUkDTnZTBjEDzQOpBREA9G5rBOOyEQARmNkDcJKPBkQc5QDg1aUCIJpTBr3PqQANswkBW
k8jBK0qfQMLceMBVkqPB4gWxQLJDdb9bv77BIeD8QLL0HsCaA4PBcFPCQITOJ8Azr7DBqAbwQMFy
T7/1dpHBGz6pQHheuD/5D7rBYFoAQRRgMED/NbDB3uCDQKovk0BrwrDBSRcMQdjRh0Cn977BKUeb
QLWMwkCyf7/BpqXAQMBWAD+865jB5nzeQDaCmMBav4TBxiDsQCFxcUAwRH7BXAfeQPDsDECpJoXB
kk2dQK8aZ0BTKITBHYi4QGDsnkBBr4rB/kUFQQ0Fk0CJ24/BxTsQQVuBPUBzdo3BO63cQDNz80An
c9PBTsiwQPKE0EBYUdDBm1fCQH6F90C3t8bB3i8EQcwbM0CIuJ/BU5BXQEDnK0CT6qfBUGYBQBBZ
ZUCQE5jBSDM6QJC3fUDmkozB2wW1QKcgKL/SgbbBEw/CQG1wjMA5iJPBL3G9QDFSzL+ZZK7BfKq5
QKoiXsC9wJvB+qqxQOw8Nj+PArTBrbjqQBjZXkAki7PBDiOkQF/CkEB42rPBHSD4QM6uikCt3rvB
oHyxQGrVq0AHKLzBbtC8QDrXRj6uMKHBF83aQAX3fsDTsYrB+aLBQMB8lr8XoqPBhk3KQAJWCsBH
+prBAXzAQCJdZED9dq/BffK2QPvqkz9bU6nBMbXbQDgVqUA9RMDBCGrjQB/96b920pHBqSXKQPh2
QEBgXZzBO2iCQB+kUUArPpnBPKnhQAXhUEBRl4bBuT62QFbRdkATDYrBNqcBQaZXYECLe4/BHgSy
QMP2KEDKW6bBHvzMQMn/4UAD7czBLOXqQIbKLsDP94nBrkirQPkoUkBgqJTB01HzQDKyQ0BdKJrB
u+6EQLedNkA/MqPBKjI5QNNJaECkIpTBJKzqQFQLw0BLe8jB41z2QGBqHb+j3ZDBph+xQIKifL/4
rL7BI6y1QHinrMAI+pPB+7bAQI8ZKcB1YrDBPLamQIfDcMCPl6LBvwmrQEistj+NRLrBVGAAQbOT
MEB9P7DBae2DQHpKk0BAybDBGDEMQftOiEC46b7B+3CbQCb3wkCScr/BJaG9QL1CAz/k75jBwBTh
QCkSlsDIWITBK0jsQAH1b0BAT37BKh/eQICwC0BxOoXBL2+dQPvaZUALLoTBba+4QPBxnkDVo4rB
o1QFQcyPkkBI24/BUkgQQeF9PEAEhY3BnOzcQKM+9EBNT9PB9Q6xQJ8u0UDlPtDBQXPCQJQK+EAk
l8bBmzYEQYKGMkBIxp/B2YNXQLyoLECx+afB9IYBQACUZEALDpjB1mo6QCpOfEDIiYzB

> <OMEGA_E>
krIpP07SZD/GNXM/cp13P/AQfD8=

> <OMEGA_NBR>
     34723

$$$$
50168753
  -OEChem-04172616093D

 49 52  0     1  0  0  0  0  0999 V2000
    6.6129   -0.5662  -22.6905 C   0  0  0  0  0  0  0  0  0  0  0  0
    3.1120   -2.9738  -18.3341 C   0  0  0  0  0  0  0  0  0  0  0  0
    6.1293   -1.5691  -21.8300 C   0  0  0  0  0  0  0  0  0  0  0  0
    3.5950   -2.0864  -19.3023 C   0  0  0  0  0  0  0  0  0  0  0  0
    6.4643    0.7905  -22.3437 C   0  0  0  0  0  0  0  0  0  0  0  0
    4.9554    3.8461  -22.7553 C   0  0  0  0  0  0  0  0  0  0  0  0
    7.2652    4.0293  -21.9801 C   0  0  0  0  0  0  0  0  0  0  0  0
    5.2558    4.6481  -23.8510 C   0  0  0  0  0  0  0  0  0  0  0  0
    7.5674    4.8338  -23.0877 C   0  0  0  0  0  0  0  0  0  0  0  0
    5.3362    0.1406  -20.2873 C   0  0  0  0  0  0  0  0  0  0  0  0
    3.9848   -3.9416  -17.7974 C   0  0  0  0  0  0  0  0  0  0  0  0
    5.4819   -1.2048  -20.6311 C   0  0  0  0  0  0  0  0  0  0  0  0
    4.9381   -2.1963  -19.7101 C   0  0  0  0  0  0  0  0  0  0  0  0
    5.9436    3.5585  -21.7916 C   0  0  0  0  0  0  0  0  0  0  0  0
    5.8189    1.1497  -21.1279 C   0  0  0  0  0  0  0  0  0  0  0  0
    6.5638    5.1630  -24.0200 C   0  0  0  0  0  0  0  0  0  0  0  0
    5.7665   -3.1813  -19.1269 C   0  0  0  0  0  0  0  0  0  0  0  0
    6.3296    2.8999  -19.3839 C   0  0  0  0  0  0  0  0  0  0  0  0
    4.1006    3.3864  -19.1622 C   0  0  0  0  0  0  0  0  0  0  0  0
    5.6038    2.5893  -20.6834 C   0  0  1  0  0  0  0  0  0  0  0  0
    5.6052    3.9275  -17.1993 C   0  0  0  0  0  0  0  0  0  0  0  0
    5.8328    6.4273  -25.9353 C   0  0  0  0  0  0  0  0  0  0  0  0
    5.2792   -4.0324  -18.1930 N   0  0  0  0  0  0  0  0  0  0  0  0
    5.3447    3.3495  -18.5198 N   0  0  0  0  0  0  0  0  0  0  0  0
    4.1856    2.7689  -20.3126 N   0  3  0  0  0  0  0  0  0  0  0  0
    2.9262    3.9225  -18.6568 N   0  0  0  0  0  0  0  0  0  0  0  0
    7.5115    2.7122  -19.1159 O   0  0  0  0  0  0  0  0  0  0  0  0
    6.9113    5.9784  -25.0797 O   0  0  0  0  0  0  0  0  0  0  0  0
    7.0841   -3.2343  -19.4397 F   0  0  0  0  0  0  0  0  0  0  0  0
    7.0980   -0.8369  -23.6167 H   0  0  0  0  0  0  0  0  0  0  0  0
    2.0856   -2.9178  -18.0031 H   0  0  0  0  0  0  0  0  0  0  0  0
    6.2530   -2.6110  -22.0859 H   0  0  0  0  0  0  0  0  0  0  0  0
    2.9503   -1.3320  -19.7283 H   0  0  0  0  0  0  0  0  0  0  0  0
    6.8408    1.5596  -23.0018 H   0  0  0  0  0  0  0  0  0  0  0  0
    3.9604    3.4416  -22.6420 H   0  0  0  0  0  0  0  0  0  0  0  0
    8.0386    3.7695  -21.2725 H   0  0  0  0  0  0  0  0  0  0  0  0
    4.4887    4.8789  -24.5754 H   0  0  0  0  0  0  0  0  0  0  0  0
    8.5730    5.2024  -23.2268 H   0  0  0  0  0  0  0  0  0  0  0  0
    4.8456    0.4054  -19.3623 H   0  0  0  0  0  0  0  0  0  0  0  0
    3.6133   -4.6289  -17.0517 H   0  0  0  0  0  0  0  0  0  0  0  0
    4.6518    4.2005  -16.7234 H   0  0  0  0  0  0  0  0  0  0  0  0
    6.1294    3.1902  -16.5734 H   0  0  0  0  0  0  0  0  0  0  0  0
    6.2305    4.8258  -17.3092 H   0  0  0  0  0  0  0  0  0  0  0  0
    6.2391    7.0645  -26.7346 H   0  0  0  0  0  0  0  0  0  0  0  0
    5.3313    5.5555  -26.3808 H   0  0  0  0  0  0  0  0  0  0  0  0
    5.1083    7.0028  -25.3404 H   0  0  0  0  0  0  0  0  0  0  0  0
    3.4060    2.4639  -20.8595 H   0  0  0  0  0  0  0  0  0  0  0  0
    2.0771    3.8486  -19.1799 H   0  0  0  0  0  0  0  0  0  0  0  0
    2.9282    4.3832  -17.7692 H   0  0  0  0  0  0  0  0  0  0  0  0
  1  3  1  0  0  0  0
  1  5  2  0  0  0  0
  2  4  2  0  0  0  0
  2 11  1  0  0  0  0
  3 12  2  0  0  0  0
  4 13  1  0  0  0  0
  5 15  1  0  0  0  0
  6  8  2  0  0  0  0
  6 14  1  0  0  0  0
  7  9  1  0  0  0  0
  7 14  2  0  0  0  0
  8 16  1  0  0  0  0
  9 16  2  0  0  0  0
 10 12  1  0  0  0  0
 10 15  2  0  0  0  0
 11 23  2  0  0  0  0
 12 13  1  0  0  0  0
 13 17  2  0  0  0  0
 14 20  1  0  0  0  0
 15 20  1  0  0  0  0
 16 28  1  0  0  0  0
 17 23  1  0  0  0  0
 17 29  1  0  0  0  0
 18 20  1  0  0  0  0
 18 24  1  0  0  0  0
 18 27  2  0  0  0  0
 19 24  1  0  0  0  0
 19 25  2  0  0  0  0
 19 26  1  0  0  0  0
 20 25  1  0  0  0  0
 21 24  1  0  0  0  0
 22 28  1  0  0  0  0
  1 30  1  0  0  0  0
  2 31  1  0  0  0  0
  3 32  1  0  0  0  0
  4 33  1  0  0  0  0
  5 34  1  0  0  0  0
  6 35  1  0  0  0  0
  7 36  1  0  0  0  0
  8 37  1  0  0  0  0
  9 38  1  0  0  0  0
 10 39  1  0  0  0  0
 11 40  1  0  0  0  0
 21 41  1  0  0  0  0
 21 42  1  0  0  0  0
 21 43  1  0  0  0  0
 22 44  1  0  0  0  0
 22 45  1  0  0  0  0
 22 46  1  0  0  0  0
 25 47  1  0  0  0  0
 26 48  1  0  0  0  0
 26 49  1  0  0  0  0
M  CHG  1  25   1
M  END
> <OMEGA_C>
O53TQHLvEL8uhrXBeStHQBNSPsBVrJLB8CLEQATZyL/Do67BKhVmQEGHBcAaa5rBRtvOQEJfSj/Z
v7LBoJKeQO4ldkDECrbBsHzoQFXwgEA316/BNC+oQFC9lEDZzr7BOijyQH6umkCbs7jBicKqQIIE
ED5aTKLB3gZ/QOVDfMANYY7BvWuvQKM3mr94DKXBggSeQM+QDMBKrp3B8TG+QC2+Y0A0Va7BpjS6
QF0pkz/YBanBYArSQH43pUAHKcDBLoe4QNiaS8DoA5nBJozKQJWXOUAmEpvBDTiDQCC6WEAqTJnB
9FGzQDm3JUCMd6XB7F2zQLdbe0AimInBOKa6QHCszUCEe8/B1+6oQFYJgcBMi5HB7werQOBdVkCG
KJTB0PCFQAE2MUAjgKLBeEY7QJMKe0AuQZXB0F3wQPKTLUB37ZjBqindQPpOv0A7o8jBK7HiQAf/
TsB6hJvBECPjQK08Vr/+7rzBqXkFQNe9OsBGBpDBjRjIQBobJ8D+r7DB7dA8QKV9qr+Y053B1+fa
QBWhxz+vA7jBvHd9QN5CXEC7IrXBTp4AQas/cUAMLqrBg6OPQEwgnEBomsTB7yoJQUp6pkBr0LnB
Fg+bQGCNzz4C5prBG0FnQDkglMDeaYjBmduUQGdqhkCByYXBDyTEQPAsTEBXloTB+l/HQN1smkBQ
eYrBuKbHQJUQ4kBz4NXBvJmqQOTGsUDyC9PB2najQIkW4EAoucrBtPxZQH2wHUBb4KbBLO8EQJlP
dkBucJnB82Y7QNlCjEBoJ47B

> <OMEGA_E>
KAq2Pg==

> <OMEGA_NBR>
     35848

$$$$
284484
  -OEChem-04172616093D

 56 61  0     1  0  0  0  0  0999 V2000
    6.0122    9.2765  -23.0738 C   0  0  0  0  0  0  0  0  0  0  0  0
    6.0254    7.8961  -23.2396 C   0  0  0  0  0  0  0  0  0  0  0  0
    7.2746    5.0956  -23.6579 C   0  0  0  0  0  0  0  0  0  0  0  0
    5.8649   -1.6417  -21.5724 C   0  0  0  0  0  0  0  0  0  0  0  0
    7.2997    3.7104  -23.8019 C   0  0  0  0  0  0  0  0  0  0  0  0
    6.3809   -0.6833  -22.4415 C   0  0  0  0  0  0  0  0  0  0  0  0
    6.2672    4.8421  -21.4789 C   0  0  0  0  0  0  0  0  0  0  0  0
    5.2746    0.1035  -20.0125 C   0  0  0  0  0  0  0  0  0  0  0  0
    6.7143    9.8077  -22.0032 C   0  0  0  0  0  0  0  0  0  0  0  0
    6.7577    5.6618  -22.4965 C   0  0  0  0  0  0  0  0  0  0  0  0
    6.7298    7.1002  -22.3433 C   0  0  0  0  0  0  0  0  0  0  0  0
    5.3110   -1.2484  -20.3578 C   0  0  0  0  0  0  0  0  0  0  0  0
    6.2853    3.4432  -21.6091 C   0  0  0  0  0  0  0  0  0  0  0  0
    5.7908    1.0822  -20.8785 C   0  0  0  0  0  0  0  0  0  0  0  0
    6.8061    2.8887  -22.7829 C   0  0  0  0  0  0  0  0  0  0  0  0
    6.3423    0.6719  -22.0966 C   0  0  0  0  0  0  0  0  0  0  0  0
    7.3997    7.7283  -21.3057 C   0  0  0  0  0  0  0  0  0  0  0  0
    5.5215   -3.2528  -18.9189 C   0  0  0  0  0  0  0  0  0  0  0  0
    4.7623   -2.2653  -19.4297 C   0  0  0  0  0  0  0  0  0  0  0  0
    6.5111    2.8024  -19.1785 C   0  0  0  0  0  0  0  0  0  0  0  0
    4.2933    3.3725  -18.8424 C   0  0  0  0  0  0  0  0  0  0  0  0
    4.9709   -4.2987  -17.9923 C   0  0  0  0  0  0  0  0  0  0  0  0
    3.2995   -2.1894  -19.0613 C   0  0  0  0  0  0  0  0  0  0  0  0
    3.0018   -2.9999  -17.8021 C   0  0  0  0  0  0  0  0  0  0  0  0
    5.7692    2.5447  -20.5145 C   0  0  1  0  0  0  0  0  0  0  0  0
    5.8651    3.6363  -16.8662 C   0  0  0  0  0  0  0  0  0  0  0  0
    7.4099    9.0662  -21.1122 N   0  0  0  0  0  0  0  0  0  0  0  0
    5.5317    3.3005  -18.2452 N   0  0  0  0  0  0  0  0  0  0  0  0
    4.3751    2.9428  -20.1714 N   0  3  0  0  0  0  0  0  0  0  0  0
    3.1292    3.7988  -18.2556 N   0  0  0  0  0  0  0  0  0  0  0  0
    7.6962    2.6219  -18.9492 O   0  0  0  0  0  0  0  0  0  0  0  0
    6.8739    1.5373  -23.0222 O   0  0  0  0  0  0  0  0  0  0  0  0
    3.5412   -4.3114  -17.9486 O   0  0  0  0  0  0  0  0  0  0  0  0
    8.0898    6.9845  -20.4248 F   0  0  0  0  0  0  0  0  0  0  0  0
    5.4698    9.9174  -23.7594 H   0  0  0  0  0  0  0  0  0  0  0  0
    5.4830    7.4557  -24.0726 H   0  0  0  0  0  0  0  0  0  0  0  0
    7.6607    5.7193  -24.4605 H   0  0  0  0  0  0  0  0  0  0  0  0
    5.9017   -2.6906  -21.8566 H   0  0  0  0  0  0  0  0  0  0  0  0
    7.7041    3.2746  -24.7119 H   0  0  0  0  0  0  0  0  0  0  0  0
    6.8116   -0.9972  -23.3890 H   0  0  0  0  0  0  0  0  0  0  0  0
    5.8674    5.2935  -20.5727 H   0  0  0  0  0  0  0  0  0  0  0  0
    4.8425    0.4013  -19.0588 H   0  0  0  0  0  0  0  0  0  0  0  0
    6.7362   10.8786  -21.8301 H   0  0  0  0  0  0  0  0  0  0  0  0
    6.5807   -3.3141  -19.1580 H   0  0  0  0  0  0  0  0  0  0  0  0
    5.2920   -5.2901  -18.3265 H   0  0  0  0  0  0  0  0  0  0  0  0
    5.3582   -4.1451  -16.9787 H   0  0  0  0  0  0  0  0  0  0  0  0
    2.9913   -1.1498  -18.8989 H   0  0  0  0  0  0  0  0  0  0  0  0
    2.7148   -2.5842  -19.9019 H   0  0  0  0  0  0  0  0  0  0  0  0
    3.4142   -2.5261  -16.9027 H   0  0  0  0  0  0  0  0  0  0  0  0
    1.9198   -3.0913  -17.6629 H   0  0  0  0  0  0  0  0  0  0  0  0
    6.1686    4.6842  -16.7882 H   0  0  0  0  0  0  0  0  0  0  0  0
    4.9999    3.4723  -16.2177 H   0  0  0  0  0  0  0  0  0  0  0  0
    6.6853    3.0059  -16.5118 H   0  0  0  0  0  0  0  0  0  0  0  0
    3.5722    2.9168  -20.7956 H   0  0  0  0  0  0  0  0  0  0  0  0
    3.1602    4.0890  -17.3061 H   0  0  0  0  0  0  0  0  0  0  0  0
    2.3005    3.8011  -18.8024 H   0  0  0  0  0  0  0  0  0  0  0  0
  1  2  2  0  0  0  0
  1  9  1  0  0  0  0
  2 11  1  0  0  0  0
  3  5  2  0  0  0  0
  3 10  1  0  0  0  0
  4  6  1  0  0  0  0
  4 12  2  0  0  0  0
  5 15  1  0  0  0  0
  6 16  2  0  0  0  0
  7 10  2  0  0  0  0
  7 13  1  0  0  0  0
  8 12  1  0  0  0  0
  8 14  2  0  0  0  0
  9 27  2  0  0  0  0
 10 11  1  0  0  0  0
 11 17  2  0  0  0  0
 12 19  1  0  0  0  0
 13 15  2  0  0  0  0
 13 25  1  0  0  0  0
 14 16  1  0  0  0  0
 14 25  1  0  0  0  0
 15 32  1  0  0  0  0
 16 32  1  0  0  0  0
 17 27  1  0  0  0  0
 17 34  1  0  0  0  0
 18 19  2  0  0  0  0
 18 22  1  0  0  0  0
 19 23  1  0  0  0  0
 20 25  1  0  0  0  0
 20 28  1  0  0  0  0
 20 31  2  0  0  0  0
 21 28  1  0  0  0  0
 21 29  2  0  0  0  0
 21 30  1  0  0  0  0
 22 33  1  0  0  0  0
 23 24  1  0  0  0  0
 24 33  1  0  0  0  0
 25 29  1  0  0  0  0
 26 28  1  0  0  0  0
  1 35  1  0  0  0  0
  2 36  1  0  0  0  0
  3 37  1  0  0  0  0
  4 38  1  0  0  0  0
  5 39  1  0  0  0  0
  6 40  1  0  0  0  0
  7 41  1  0  0  0  0
  8 42  1  0  0  0  0
  9 43  1  0  0  0  0
 18 44  1  0  0  0  0
 22 45  1  0  0  0  0
 22 46  1  0  0  0  0
 23 47  1  0  0  0  0
 23 48  1  0  0  0  0
 24 49  1  0  0  0  0
 24 50  1  0  0  0  0
 26 51  1  0  0  0  0
 26 52  1  0  0  0  0
 26 53  1  0  0  0  0
 29 54  1  0  0  0  0
 30 55  1  0  0  0  0
 30 56  1  0  0  0  0
M  CHG  1  29   1
M  END
> <OMEGA_C>
RWTAQLBsFEELl7jBX9DAQACt/EC46rnBjsnoQPAOo0BwQ73BDK27QO4j0r9BlKzBjJfpQGF2bUA0
ar7BfDDMQO3tLr9HiLPBxozIQHzymkDN1KvBnMmoQCD20z2gGaDBRNvWQIXsHEGjBrDBZD/YQGMt
tUDf+LPB21rXQNQ040D7vrLB6POpQN3Kn7+/3KLBSyHJQNxcXECI36zBUk65QHaGij8lB6fBm8vZ
QCDgOEBrQ7bB7/PKQEADLD/XxbDBbMrsQFZO90AWcqrBCrCwQI4uUMD4WZfBbmSYQMj6EMABcJvB
SlvQQMJaM0CqbZnBiWKJQAzXV0BDvZbBwRGfQMmOicA+8I/BwSpTQLQeDMCIfZjBTR1AQPz+P8Cd
ao7BBJ24QADdIkC+HaTBuK67QPK4aEAP7obB/h3tQAQPEUG85ajB+wOxQLQ7U0A69pHBHAGMQOJW
PEAcX6HBMURIQOQfc0BeC5LBEEf2QATOJ0AFmJfBy/bbQHvFxD9wLbjBX6NiQD73icDOlo/Br28B
QcaA30DqZaPB7QivQMOtHkFaE77BqnSvQAuV7kCklMDBDCT1QGYEt0Apr8PB1Nq8QAcyLMBF2q7B
WIj2QLKSUUDnscXBlPjZQNRJf7+UHLvBdsG7QKBkqUDmlKTBGPaaQNh1zT5leJjB2Y7XQKkOLkEd
pK7BZ5XSQHMZVMCRQ5nBYlipQEFIqcC9nJLBB3arQAGlhMBu1IfBt3E/QB8rk7/3MJfB2r4tQAxk
JcAaN5/BrYFaQFqsIcCpOIfBHL31PzTXRcCwTY3BkGXFQDXllUA7TobBG/+fQO46XkDXvYHBEO7V
QLpgQEA5GITBsJ5kQDitOkBPXabBWkBKQObYgkD2corBxToTQK5Ec0A9a5bBya+2QJnHFkEyFKjB
gI66QLm6AEHrMKnBcSXtQPCLskCppLvBcIDDQNLHor9Rkq3B8ljxQHpzhkCn4rzBSTTWQGhliL6/
tLPBjRvDQHgSp0CSsqvBSMmlQPrnzT4kzqHBoknKQFmjI0ESq6/B9AHWQPjdwkDuDLPB7JHRQFSm
8ECXu7HBPEWrQEoDcL8On6TB7AvHQE4IdUBx16zBPHC4QFq/tj+W6afB41jeQCYsVUCmhrXBEqXQ
QGnMiT8h5bDBqPbjQJiJBkG547jBibmuQGI9PcCoL5nB3FuXQBhJAMA7EZ7B9HDDQGyYSUCJapnB
bF11QMxHZUBtdJnB1NGaQMuvgcAdppLBM3dOQCxlAcCB9pzBqGsyQCsEOMDadZPB2ByzQCY2OEBk
66TB/geiQPtDeUC/3IfBdObgQOAMHEGNErjBa/aeQMp5ZEDWNJPBQ6eEQDb4S0Dy5aPBxnEkQEtd
e0AUOJbBTA/oQEArQkDcJpbBMEzkQCbd/j8hd7fBhwVbQODJhMANFJTBZ1z6QFy+/UAVOsHB7Oqk
QA60HUH3e6HBPm+rQAad7EDHV6PB+BH8QE69x0AkcsHBpBvIQGbbE8Dl36/BxbgBQfzTc0A3nsPB
ohPpQBzCCL+SsLrB6iSxQN0etEDe/KTBvN6SQHFXJz9kxprBqjTIQOTvNEGbKq/BPHPRQEHfPMB/
xJnBNoioQHGFoMA3/ZTByr6hQPqEecC+JIrBQ101QIG4gL+29ZvBwGIzQGajG8CzXqTBgrxBQFN0
GcB4y4vBZjvaPwATQsA8tpPBdy+pQDqdnkAnxIbBrtmDQMSsakCI04PBsGW7QFKRU0AjG4TBneFc
QGAtSEA01KnBmekbQFZahkAypo7BGgvrPy8seUBmkZvBSLWsQMW5G0HEMafB65CzQGTrBUGYk6jB
YinlQAHkwUDebbzBLPzRQGv1Y7/yZ67B6EzsQIhQlkC98r3Bb8/fQARFKT4GzbTBRifCQMmCskA6
pqvBG6K0QJrBMD9ZyqHBzGS7QCF3KUHrFa/BfxHQQEv/z0DNR7PBcpfIQMU7/UB2rLHB5l+8QMfH
IL+H5qTBfxrJQIxzhkAQEa3BQl7CQL4T4j95J6jBNUveQC+AcUAET7bB/PvXQDxRvj+XsbHBzAbW
QHamDUFpGLnBMQHJQMRgKcDA3ZnBz6etQGrV37+oEZ7B0VHOQKCBX0D9u5nBef+EQFqib0CfEZjB
llu6QGDxcsAwDpPBH6Z8QJxl8b8n4pvBdQBsQAEbMsBSOJLBzZK6QPaBTEBF26TBxbmxQDowhED5
ZYfB5vHPQE31IkGnB7jBg1WrQKsPdEBEq5LBig6MQA/MWEBEv6LBe1A6QJQDf0CV4pPBEyj0QOSe
XUDcU5fBntHmQEAfHUBrjrjBBxiNQFcUgMCqd5PBlGbqQEMOB0EF+MHBBmicQBrMIUHLKqDBw0+o
QCOj9UDrf6LBiDXwQN5r2EBodMLBaUvYQHSt9L/L8bDBU8b8QDqCi0BdHcXB0qfwQEDNPr3RN7zB
RcOxQH3WvUCmgaTBU82jQEzMYj/+U5rBO9O2QCOeOkFbZK7BikDrQHp9I8DHOpvBBYLJQAwJl8Cf
05XBw/bDQHOyaMDLuIrBWGpfQGu1Z793dprBMGFeQDFpFMAuAqPBLHJ+QCgJE8D9sYrBZMsnQG+T
QcBOtZHBf5e2QFGVpkAQU4bBYM6VQHfBdEBcuoLBBb/NQJWAZkDCT4TBUfZnQBT7UUCPKKjBCQo2
QCOEh0DPNozBQvwHQOmMeUB5r5jBzEu3QKy3F0HXtqXBgyq7QMyqAUGQ06bBdMHtQBZstEBOR7nB
chzEQDhHm7/2NKvB9PTxQKFTiEBNhbrBTNDWQPjFVL5kV7HBkLfDQJ7yqEA3VanBSmWmQGTq6z7J
cJ/BpOXKQGyTJEG4Ta3B9p3WQB++xECTr7DB7i3SQHqG8kA8Xq/BQOGrQBcCYb+yQaLB76fHQJvI
eEAWeqrBPwy5QPQ/vj87jKXB5vTeQHTsWEBLKbPBFkHRQANNkT/Gh67BqpLkQKt5B0FehrbBjFWv
QBZ9OcBN0pbB3veXQJYR+b/gs5vB9wzEQLlYTUAvDZfBcpV2QBkIaUASF5fB1m2bQEqff8DCSJDB
Oa9PQL1J+78mmZrBrqMzQN5DNMCAGJHB27izQHT2O0AJjqLBAqSiQEgEfUBkf4XBdoLhQPP8HEEz
tbXBbpKfQBc6aEB715DBRkOFQIK4T0CXiKHBy6klQJgdf0C52pPBT6voQI3rRUCCyZPBMujkQOAu
A0DGGbXBjD1cQLnpgsCytpHBavj6QIKe/0C63L7B74alQCGkHkGcHp/BQAusQCx97kBs+qDB+q38
QHWdyUDJFL/BprfIQBkbEMCKgq3BxgYCQUqUd0DcQMHBpa/pQNCB8743U7jB7MCxQAP/tUCEn6LB
wHqTQKVYNj8JaZjBrNDIQPffNUFBzazBPg/SQPQeOcAkZ5fBOCSpQEulnsDcn5LBzVqiQK3EdcBj
x4fBSZU2QMxvcr9bmJnBxZo0QBrjF8BYAaLBh/RCQAa0FcAdbonBcKvcP7NSPsDhWJHBesupQGB9
oEDMZoTBsXWEQBFtbkAsdoHBswG8QKBRV0DIvYHBoxleQKztS0DZdqfBniEdQH06iEDYSIzBJnvt
P3zsfEAMNJnB73/AQL+EFUGaybvB42DEQOvH/kAVZrzBClvzQDC3p0AwjL3BB/HPQByFub9JYarB
oZH3QALAdkB/+b3BUH3gQILzAb/peLHBGULOQMZPoUAzr6zBUVG1QKufqz4PNZ/BBuzSQBrMH0HW
G7PBYK7eQH2xukBP57TBUT3aQDu96EBRbrTBVlW6QOCXg79HP6HBPj7SQBQWaUDs/6zBWNHFQN8Q
pj/USKbBaQznQM/ZQ0DovrXBeWXbQNjbWz8pcK/Bo4LrQKkfAEFWFazBCL3BQLMyO8CfpZTBqLio
QLW7AcABrZnB8ZfUQPZTSkAQMJnBKOeLQIh6ZUAeJpjB3SKwQKL9fMDgEo3BYR9yQARnAsCfq5fB
4URcQFPIMsBIao3BHvvAQIp4MUCcJKTBcUO4QKR/gkCdmIfBBGboQHqgFUFKN6vBou+xQLDsaEAc
m5LBnN2SQJaORUD+daLBwNRIQGFZfUCcZpTBHRz6QC4/RUDzjJbB6cnsQNhX2j9H7LbBxo6CQPQt
gsCVlo3Bg2sAQW7N60D9RaTB5ZevQIx0HkGz5sHBgjm2QFfu7UC8IsPBaSoAQagBu0DlBMTB5iXU
QKx4IMBZFqzBs90DQYmCWUB+wMTBO1HxQAbpV7/kl7jBTDe+QC9vsEBK8aXB83akQIS7Jz9WB5jB
ftLQQK8KMUHfQrLBfDHkQPABO8Ad4JXBKWS9QCfyncApCY/BhYS5QIyhbcD92ITBkhtZQC4Cgr/H
F5fBxvZSQPlsIcBVhJ7BpM9vQEBSD8DWPobBDhkXQGYrPcAq64zBpWu/QFq+pECcUofBNG2bQL7j
eEAs4ILBsNbSQDj/YUDP9IPBVfN1QMDQPUBs56fBCadEQFPAiUCo+IzB6eMWQFySd0AqQpnBTI2z
QOF2HkEN0KbB6OG3QCKjCEF5q6jBpfvjQN0XyEC0fL3BeGPFQDZoOL+ap7HBPpboQIZ7nEBee7/B
pabUQNRirz5mw7fBu0bBQP/et0C7t6zBn7mrQJRjVz9FZqTBhTnDQEZtLEEEfK7B7k7QQA/M1UAH
G7TBC3fLQLKIAUEuAbLBSuewQLQu8b7w+KfB8avFQH7Fi0Bsna7BXu+6QHRM9j9ZeKrBpHXZQAL3
fEAFFrjBs2TPQBs/1D8dMbTBWxDaQEbIEEHTLLnBVlOTQEg5MMCA4KXBbamgQAu6zL/PcaHBt+HK
QIw6Y0DAjpvBpD2CQMbPekBNeJnBJUWCQNpUecBmWJ/BosWeQB2Ot7+TcZXBdQ2bQJw1MsAx0o/B
o+m1QNknVkBlrKbBFqywQJiChEAJ5ojBp27WQBoeJkHqpbfBKP2oQIo3eUBNO5TBOPSHQITRZkBo
SaTBRlY2QOeQhkDABpXBlcLwQOhjXEDZVpnBE3rfQPeZKEAQzbrBUhFyQDz1YcBehpTB8hbtQIJi
CkHdRMLBqmmkQO1hJEHFl5/BT8+rQKW6+kDaxaLB3N7vQDb43kAZVMPBSLTJQBBI3r+PjbTBq/b3
QIL+kUD908bB/5rkQChYED4SUr/BtQKyQO3gwkDjY6XBKsKbQJRegz9wzZzB8J3AQBybPUGya63B
7feUQDGCOcCGfa7B+dBIQDdDiMD24aLBZiyZQFo4l8D0Wp/B6ka7QMfFab+CepLBK8+CQJC+UL+/
g5PBAuy4QLTpVsCAR5DBpo6TQK24KMBcWYfBZIO3QHhgpkB9f4fBSI+UQLXzdkDoM4TB2OfLQK8e
Y0A5HobBD8BeQL53ZEB6nanBvPYzQKZkjUCDRY3BFykDQPQFhkCEu5nBZkWdQMYwHUHt1qrBlBGi
QAp9B0GU+KzBNSXkQIMQxECOJ7rBYdzKQPJVYb+V1a7BoqDpQBSmmEC/RbzBhyfZQFFoTT5O47TB
hWnCQENnskAQWqnBd5iwQEKGJT/QZKHBiOrBQHOiKUH2SarBooTQQHnz0EDWsbDBqcPKQFEE/kA7
d67BNY+2QAxJKL87FqXBNLPHQIB9hkB/X6vB+NK+QAGm3z9caKfBmG3bQJYMdEDq67TB7hvTQOD7
wD8pMrHBXl7tQIDLDEEUwa3BCqmaQHeSPcCSHaPBDFmnQOcE578Gnp7BJyzOQJdbV0CbZZjB0V6F
QDGUa0AqHpbBJaWKQBn4g8A6pJzBgselQHb50799mZLBbTWjQM0DQcDUFI3BpfK4QEhGSkBue6PB
eDy0QCp4ekDqoYXB0/jpQAb2IUFusqvBxFCsQMRBa0DN95DBK+iKQBe5WEDk+KDBiYo8QKXRe0B4
kJHBDzL0QFsAUkCDRZbBEUTiQAMyIEBTwrfBt4yBQJnbccByxZHB7IkKQdUMBUH7K6/Bpb57QOEp
JEFhpKnBZ8uFQGrL+kBVc63BXVHvQMVu20Bc9r/Bo8fPQGrb8b+D07HBMvb4QLnMjkDircPBdPjo
QCqloDwhf7zBRS2zQE3GvEBu9qHBxcegQM6VTz8sv5nB0ui/QEqnOkFSp6jBSxecQKUURsBnvqvB
BtVZQLkSkMB3JKDBDh+iQGUDnsBoxZzBMwXCQP1Oj7+Xp4/BXnaJQLKUh7+yjpDBJHTBQFVcZMBC
p43BgOubQF2MOMDLlITBDmO6QDgvn0DKKITB3n+YQJbKZkDz5YDBDvrPQDGMVUA09oLBcFVkQLm6
VUCsP6bBOG86QI5khEA1yonBfQ8JQL/+eUD2NpbBCk3tQMwaIUH017TBzsnuQGxaC0GzJbfBX07x
QMQ3vUD1m7vBV6nBQJDHer/8SbDBFGjyQJ14kUAnur3B/VnTQLi5UD21V7bByvjNQFoHr0B4zqrB
q22sQMQuHz842aLBDq/aQAxYJ0F9RqvB+hHfQP0BzEA+JrLBbd3dQGVs+UCi66/BdC2uQKC6Mb+i
iqbBPtTOQITOgkDm06zBFB6+QD0P1j/E3KjBIzXhQNDZaEBSYLbBCojRQIZprz+QprLBz/HLQHGS
BEESk6bB2gWLQPSXOcD5kaTBNlybQPzl5L9tEqDBfpTSQHz2TkAC2pnBsCiLQC2vcUCRkpfBALhu
QK0vgMCiGJ7B7kaaQAxS0b/kDZTBA1uTQMi7PsA7iY7Bb868QOQzRkDV76TBAIm6QIEZd0BSFofB
LOrJQGOVGUExD6TBPuSxQHGNaUA0bJLB2riPQCHQXUBMbaLBKCRKQKvXhEDfBJPBkiT4QMkBQkDq
uZfBXM7jQFsMFEC6NrnBgdVeQD2UaMDaOZPBrF+7QA2W7UAocJ/BDEb6QMXRLEH8WrrBi0P9QKYP
BkHImb7BDsT+QAVZ00DEasHBD1HDQKjm/7/rR7PBf1YAQUkihkBJIsXBz4HiQPL3Nr6I873Bedq/
QCngukDVaqPBXzidQEy4VT+TM5vBTL/YQNoeOEE1GanBCAWMQJxYQsDPMq3B9yExQG8/icDemKHB
9xqMQBd0nMDQOZ7B5hi4QGRUmL/+G5HBqgSAQMDnc78ZA5LB9ayvQLH3Z8CqG4/BLYeMQALZNMAz
CYbBRA/EQCe2nEAxnYXBmfOdQIcVaUBbWoLB1kjUQMfMTECcaoTBzeltQPXLX0ATtKfBdVhJQBNm
i0CcPovBurwWQD6EhkBeq5fBoL+gQCgQIEG1pavBI8ymQPVsCkFevq3BSqrrQFaay0B0nbrBJ1LX
QAhLKb9UVa/BzWXyQHFVoEDksbzBaSXlQO4b3D7bVbXBtTvJQBAluUCA9KnBP+S6QCZzWD82BqLB
MbTEQJ74LEE/8qrBLhDXQGAE2EDnPrHBawLQQO92AkF+Dq/B9CvCQI5F6L5traXBCcfPQLVfjUBc
8KvBBqLIQChv+j+x/KfBynnkQPZhgUCIZbXBN8jdQPa23T8Er7HBdNjxQGCwEEFVNK7BNgeoQFrl
McCgzaPBUnSzQA5czr9FQ5/BUJ3VQCeaZUDP7ZjBcG6MQK4edkDq95bB5YSYQKICfcAuY53Bpu6w
QCBRu79UQZPBxRavQErANMAfvI3BxlXBQHxdV0ArGqTBRvG5QATBg0AESYbBtjrtQPPOJUEILazB
UQGzQK/Rd0CcppHBPPWSQHV6Y0BQy6HBwKdJQCsygkBelpLBWYr7QG8zYkB4o5bBPZPsQKJEL0DJ
MLjBp2SOQJxTZ8DPj5LBpAMNQVFzCUHsca/BJu2AQLuiJkEil6rBixWLQPTz/0C+Vq7BvqP2QH46
40CZYcDBj0TdQDpV1b8ES7LBmD4BQYbalkDyB8TBNKH1QB6DhT5k37zBiTq5QEImw0DioqLBemuq
QN16fz/RcprBtrfBQDX2PUG3VKnBJyqqQD5jOsAvbKzB5bV2QApgi8A0A6HBH6iwQFXxl8AzaJ3B
roTMQISBZ7+yMZDBJACUQMCdY7+OV5HBN8/NQA2MVsCSK47BRBunQNaZLMDWRIXBjB+/QMHapUD0
y4TBNCSeQEx0ckAjq4HBg/TVQPAHZEApfYPBYkR1QCUwX0AqLafBLiRGQEetiEAb0orB5+MWQLic
gEAcWZfB

> <OMEGA_E>
jyRywQ3pd8FGdYzBrICBwe4BdcEAjoHBy8V0wQR+ccFqZ3PB

> <OMEGA_NBR>
     45719

$$$$
284494
  -OEChem-04172616093D

 53 58  0     1  0  0  0  0  0999 V2000
    6.6663    9.3189  -21.5728 C   0  0  0  0  0  0  0  0  0  0  0  0
    6.8024    7.9246  -21.6569 C   0  0  0  0  0  0  0  0  0  0  0  0
    6.8537    5.2389  -24.0337 C   0  0  0  0  0  0  0  0  0  0  0  0
    6.9891    3.8495  -24.1546 C   0  0  0  0  0  0  0  0  0  0  0  0
    5.5527   -3.4813  -19.5264 C   0  0  0  0  0  0  0  0  0  0  0  0
    5.9305    4.9463  -21.7955 C   0  0  0  0  0  0  0  0  0  0  0  0
    5.2807    0.1891  -20.2367 C   0  0  0  0  0  0  0  0  0  0  0  0
    5.9765   -1.5691  -21.7730 C   0  0  0  0  0  0  0  0  0  0  0  0
    3.8606   -1.9526  -18.7156 C   0  0  0  0  0  0  0  0  0  0  0  0
    5.9028    9.9961  -22.5465 C   0  0  0  0  0  0  0  0  0  0  0  0
    5.0786   -4.4353  -18.6055 C   0  0  0  0  0  0  0  0  0  0  0  0
    6.3247    5.7911  -22.8523 C   0  0  0  0  0  0  0  0  0  0  0  0
    6.1824    7.2484  -22.7247 C   0  0  0  0  0  0  0  0  0  0  0  0
    4.9375   -2.2124  -19.5879 C   0  0  0  0  0  0  0  0  0  0  0  0
    5.4044   -1.1847  -20.5433 C   0  0  0  0  0  0  0  0  0  0  0  0
    6.0389    3.5410  -21.9201 C   0  0  0  0  0  0  0  0  0  0  0  0
    5.7190    1.1776  -21.1467 C   0  0  0  0  0  0  0  0  0  0  0  0
    6.5839    2.9916  -23.1129 C   0  0  0  0  0  0  0  0  0  0  0  0
    6.2947    0.7764  -22.3827 C   0  0  0  0  0  0  0  0  0  0  0  0
    6.4173   -0.5971  -22.6809 C   0  0  0  0  0  0  0  0  0  0  0  0
    3.4367   -2.9533  -17.8204 C   0  0  0  0  0  0  0  0  0  0  0  0
    5.4267    7.9886  -23.6682 C   0  0  0  0  0  0  0  0  0  0  0  0
    6.3213    2.9715  -19.4909 C   0  0  0  0  0  0  0  0  0  0  0  0
    4.0797    3.3790  -19.1811 C   0  0  0  0  0  0  0  0  0  0  0  0
    5.5710    2.6491  -20.7778 C   0  0  1  0  0  0  0  0  0  0  0  0
    5.6220    3.7763  -17.1949 C   0  0  0  0  0  0  0  0  0  0  0  0
    5.2984    9.3333  -23.5628 N   0  0  0  0  0  0  0  0  0  0  0  0
    4.0422   -4.1649  -17.7765 N   0  0  0  0  0  0  0  0  0  0  0  0
    5.3639    3.4696  -18.6130 N   0  0  0  0  0  0  0  0  0  0  0  0
    4.1678    2.9548  -20.4259 N   0  3  0  0  0  0  0  0  0  0  0  0
    2.8851    3.7062  -18.5477 N   0  0  0  0  0  0  0  0  0  0  0  0
    7.5237    2.8453  -19.2852 O   0  0  0  0  0  0  0  0  0  0  0  0
    6.7643    1.6426  -23.3560 O   0  0  0  0  0  0  0  0  0  0  0  0
    6.9593   -0.9907  -23.8588 F   0  0  0  0  0  0  0  0  0  0  0  0
    2.3997   -2.6988  -16.9914 F   0  0  0  0  0  0  0  0  0  0  0  0
    4.7823    7.3511  -24.6760 F   0  0  0  0  0  0  0  0  0  0  0  0
    7.1406    9.8668  -20.7720 H   0  0  0  0  0  0  0  0  0  0  0  0
    7.3714    7.3811  -20.9172 H   0  0  0  0  0  0  0  0  0  0  0  0
    7.1546    5.8846  -24.8454 H   0  0  0  0  0  0  0  0  0  0  0  0
    7.4093    3.4311  -25.0572 H   0  0  0  0  0  0  0  0  0  0  0  0
    6.3794   -3.7183  -20.1796 H   0  0  0  0  0  0  0  0  0  0  0  0
    5.5427    5.3749  -20.8831 H   0  0  0  0  0  0  0  0  0  0  0  0
    4.8454    0.4877  -19.2945 H   0  0  0  0  0  0  0  0  0  0  0  0
    6.0755   -2.6167  -22.0162 H   0  0  0  0  0  0  0  0  0  0  0  0
    3.3648   -0.9933  -18.7340 H   0  0  0  0  0  0  0  0  0  0  0  0
    5.7972   11.0689  -22.4806 H   0  0  0  0  0  0  0  0  0  0  0  0
    5.5523   -5.4048  -18.5592 H   0  0  0  0  0  0  0  0  0  0  0  0
    4.7010    4.1549  -16.7275 H   0  0  0  0  0  0  0  0  0  0  0  0
    5.9477    2.8628  -16.6757 H   0  0  0  0  0  0  0  0  0  0  0  0
    6.4104    4.5400  -17.1226 H   0  0  0  0  0  0  0  0  0  0  0  0
    3.3913    2.8535  -21.0478 H   0  0  0  0  0  0  0  0  0  0  0  0
    2.0190    3.6254  -19.0411 H   0  0  0  0  0  0  0  0  0  0  0  0
    2.8924    4.0223  -17.5990 H   0  0  0  0  0  0  0  0  0  0  0  0
  1  2  2  0  0  0  0
  1 10  1  0  0  0  0
  2 13  1  0  0  0  0
  3  4  2  0  0  0  0
  3 12  1  0  0  0  0
  4 18  1  0  0  0  0
  5 11  2  0  0  0  0
  5 14  1  0  0  0  0
  6 12  2  0  0  0  0
  6 16  1  0  0  0  0
  7 15  1  0  0  0  0
  7 17  2  0  0  0  0
  8 15  2  0  0  0  0
  8 20  1  0  0  0  0
  9 14  2  0  0  0  0
  9 21  1  0  0  0  0
 10 27  2  0  0  0  0
 11 28  1  0  0  0  0
 12 13  1  0  0  0  0
 13 22  2  0  0  0  0
 14 15  1  0  0  0  0
 16 18  2  0  0  0  0
 16 25  1  0  0  0  0
 17 19  1  0  0  0  0
 17 25  1  0  0  0  0
 18 33  1  0  0  0  0
 19 20  2  0  0  0  0
 19 33  1  0  0  0  0
 20 34  1  0  0  0  0
 21 28  2  0  0  0  0
 21 35  1  0  0  0  0
 22 27  1  0  0  0  0
 22 36  1  0  0  0  0
 23 25  1  0  0  0  0
 23 29  1  0  0  0  0
 23 32  2  0  0  0  0
 24 29  1  0  0  0  0
 24 30  2  0  0  0  0
 24 31  1  0  0  0  0
 25 30  1  0  0  0  0
 26 29  1  0  0  0  0
  1 37  1  0  0  0  0
  2 38  1  0  0  0  0
  3 39  1  0  0  0  0
  4 40  1  0  0  0  0
  5 41  1  0  0  0  0
  6 42  1  0  0  0  0
  7 43  1  0  0  0  0
  8 44  1  0  0  0  0
  9 45  1  0  0  0  0
 10 46  1  0  0  0  0
 11 47  1  0  0  0  0
 26 48  1  0  0  0  0
 26 49  1  0  0  0  0
 26 50  1  0  0  0  0
 30 51  1  0  0  0  0
 31 52  1  0  0  0  0
 31 53  1  0  0  0  0
M  CHG  1  30   1
M  END
> <OMEGA_C>
b1LVQBkaFUEPlazBHK3ZQBOW/UBrQa3BZFHbQMukp0D+RMDB9abfQHNedkCFPMHBk6+xQJDNXsD4
NZzB+Ma9QBtInkAYXa7BYvuoQESdQT7G5KHB3z+/QCbXyL8iL67BTxR3QP/t+b+QuZXB5eO8QB7w
H0EnX7TB/YOiQODtjcAL2JTBz2PKQA1RuUBy0bbBftbFQDnz50BEzLXBsf+dQG2YDcD3s5zBLvGs
QJGkl7+bWKTBnz7BQAagYkBxXK/B9gG3QLG6lj9zLKnBjq/SQLJ2P0Ah57jBYm7JQBC/Rj/eD7PB
QlrNQL3aGL+PcrXBoPJbQAsDPcA9kI7BTqetQMui/0B3WL3BHEjKQNUtPkBO7ZvBs4yCQDNBWEDl
cpnBcEWyQLuKKUDdOKbBm+ezQE2ucUAej4nBj4ypQD1VFUGrgLzB/FmBQBZHhcA2No7B9aSrQAIO
XkBZ55TBwF6FQOsaPUBWaKPBP6U4QPoybUCuYZTBd8LwQCsZNkAgSJrBW3XYQD0/0j8q2brBlrLe
QGOgfb/H3r7B/5QZQFy4LMBa7ofBsgiZQGs860BraMXBgX/kQGfeHUELLabBr+LrQCIy7EBgVqfB
gvLkQGBOvEBuw8bBoRjtQKuWW0AsdcjBYSTMQMr4bcDDb6HBwF2xQNP+q0CsEKfBXw2bQCGv+T4i
W5rBoGrCQEl3J8BEIbDBFFhXQNRJfr8k35XBo4K5QFMaMUFR2LPBKKyxQO/zrMBAeZTBy26WQLv0
hED70YXBulO+QC04N0DoZ4XBBCLNQGJHkUAs+4jB7QpZQPmeNkD3YajBFTgBQJIGaEAqVJjBiB05
QMa2gEC7yozBMvyaQDGQE0HAJbPBCwGeQGVw+kDH9rPBLxrdQOSxp0CSFcDBlx7hQM9udkAVFMHB
ma6xQCbGXsBENJzBGSO8QM0znkBDj67Bq+CoQGAEQj6H6KHBCmW/QKfLyL8hK67B3wd3QKXW+b8e
u5XBS3XAQLMGIEHmArTBM3eiQMfqjcDF15TBXZHKQABPuUDp0LbBGXbGQLn350AQwbXB2/+dQIyP
DcDBs5zBMvesQHyXl78wWKTBX5LAQCyPYkAFca/Bz+q2QCDBlj/GL6nB7STTQL14P0CR2rjBoKnJ
QAnORj94CbPBQZ3NQETJGL9Na7XB+dJbQBr2PMD/ko7Bf9/qQEhrAUHchbbB5DHKQIWQPkBh/pvB
unqCQE5EWECjb5nBbvmxQAGKKUDYQabBoA20QFbHcUCSl4nBFlPnQPfyFkGnn7XBNkaBQBdChcAa
OI7BpaSrQChEXkBH75TBaR2FQD+7PECOYaPBhao4QCxUbUBBV5TBvK3wQBZQNkBgXZrBtBvZQORK
0j9mxbrBth/fQKOWfb+O0r7BL2sZQICnLMAt84fBdycJQX2W8UA73LfBYap4QHQgG0Fs37HB79iB
QAid5kDBO7PBozToQB1rvEC8asbBaBnvQIaqW0CXPMjB2yrMQHXxbcCxa6HBsJOtQI3Tq0C3gKfB
OdaaQD31+T5HYprBxZDCQLNxJ8AUHbDBJlFXQB4Qfr9K4ZXBuyC+QC44MUFlX7PBupuxQH/yrMBc
eJTBKp6WQIjwhEB90oXBopO+QMBLN0CodYXBL0HNQDhckUD8BonBf05YQIPFNUCGT6jBzhsBQFDw
Z0AsQZjBtGA5QBbugECiw4zBWOuqQJ7kFUFOJ7zBW3SuQB5K/0BvX73BmwfbQIq1p0CaT8DB1oPf
QJB4dkC5QsHBQZaxQK7VXsD3N5zBS4y9QCBAnkDvZq7BAAGpQO47Qj4b5aHB8Vu/QI+/yL+rLK7B
cO12QOPN+b8bvpXBUJ+/QObqH0F0eLPBT1OiQFD0jcB23ZTBlFvKQElYuUDF1bbBdjvGQBMB6EBn
x7XB8PSdQHKRDcC/tZzB8vmsQJSRl79IWKTBNCzBQK6eYkDkYK/BNxG3QLrNlj/MK6nBnrjSQECE
P0Cg6LjB8JTJQK7wRj/HDLPBTobNQE6rGL9xbrXBZ6FbQCv2PMC0l47B5VDaQLUe/kBZQK3BnkrK
QFdRPkBr7pvBEoyCQCRAWEAYc5nBg0ayQHKRKUC9OabB5uOzQE2tcUD7jonBAczWQE6UFEGXQ6zB
QyOBQHdHhcAEPo7BJqSrQAwgXkDy55TBC16FQCIIPUDWZ6PBXKI4QKMubUDPYZTBrsLwQBwyNkBE
R5rBrK7YQGxf0j9o1LrBafDeQHB5fb9+2L7BZDUZQL+hLMCU+IfBw7LyQHGA6EBtGKbBzZGYQO45
H0GNy8HBlDufQJ0270DYAcTBv1jkQAxdvEC61cbBGfLsQIq0W0D9e8jBsRHMQN0IbsBLb6HBhtqw
QDzxq0CrIafB+wibQEwJ+j6tXJrBd4nCQFxrJ8CXHrDBeURXQM7hfb+g45XBF/O8QHwLMUETirLB
Q26xQPgArcB6f5TBYWmWQGjuhECC0YXBp1G+QGIxN0BNaYXBLRzNQHJIkUBb+YjB5AVZQO1wNkBW
YKjB/zMBQInxZ0CwU5jBNxs5QLK7gEB0y4zB507VQCESFUEoqazBcq7ZQFSG/UCYUq3BrU7bQPR4
p0AhTsDBRqffQAQDdkB+QMHBSrF2QPnE+b+znZXBRMW9QM48nkAqZa7BJcGoQIpERT4m3qHBUwC/
QNTAyL+9Ia7BRpixQAE3XsAMK5zBdtq8QFLiH0EWdLTBzBJcQKBPPcCMeI7BUGLKQLg1uUBV3LbB
a9XFQC/Y50BO27XBDMGdQFY6DcBwopzBL6WsQF8sl78aTaTBKj3BQHSIYkB+X6/Bl+i2QBvWlj/s
J6nB5bHSQP86P0CY57jBEGLJQPVJRj9nCLPBdT3NQGRlGb+bZrXBsq+iQJLQjcCR0pTBuZ+tQN97
/0BVaL3BqknKQJdIPkAQ75vBcZCCQOhoWED5cpnBTz+yQCWbKUALOabBLvOzQFTgcUBEkYnBIIGp
QO5BFUGBk7zBMIyBQNNZhcC9KI7BD6urQHM0XkDK6JTBN12FQOpMPUDLaKPBL7A4QJBTbUCmYJTB
LMTwQKIqNkD9SprB837YQLC70T/70rrBCaPeQHXtfr+Kz77ByAG2QKJ8tMC/Z5TB2P2YQP8I60DP
dcXBpXzkQNvaHUHCQqbBW+nrQOIq7EAEZ6fBfOzkQAYXvEApz8bBQhntQPwgW0CVd8jBicBWQEJf
fr+zuJXBiFuxQJQArEBWGqfBwsiaQLXJ/D5WV5rBQxjCQNB1J8CKELDBOwzMQG0BbcBvaaHBIXa5
QKoMMUGg77PBKFEnQGq4MMB3HYnBxHyWQLsRhUDC04XBQ1++QJhtN0BOaYXBYy/NQCBfkUDg/ojB
cwZZQA3sNkC/YqjBakABQFkpaECbUpjBMC05QHbDgEBnyYzBI0XPQES2GEG+Br3BUlzTQJF9AkGt
+L3BHJzbQD+op0AmDsDBjfHfQNFxdkCaHMHBH7h2QNPa+L//qJXBVkO9QDhMnUBSaa7BVNOoQKQB
RT7h5aHBYPq+QNCDyL9FL67B9JWxQGrSXcDbNpzBn4K9QHhmIUHlr7PBbCNcQMTIPMCVgY7Bgw/K
QKnpuUCvnrbB3YnFQBvo6UBzhbXBaL2dQGHmDMD5rpzB+aWsQJjplr9TWaTBoRfBQA19YUChca/B
Avu2QJF2lj97LqnBe9DSQI3xPkCU6LjBwHnJQDkhRj8UEbPBIEfNQP4CGb9gcrXB56+iQNSUjcC6
3ZTBX6+zQLeS/kCqRKzBM0vKQNsEPkAl8ZvBiIuCQLVXWEANc5nBmDSyQA3+KEA7PqbByga0QMWT
ckDumInBCzuwQMnMFEFumKvBxJGBQAoYhcBkMo7B9qyrQFEkXkB365TB/ECFQJqEPEA/Y6PBc804
QEcAbkCtYpTB69DwQNGeNkCuUJrBWqvYQA2h0T8q2rrBgaveQL3efb+Z3L7B5AG2QDM/tMCIdJTB
aASlQOIs6UA1p6PBsbLZQNARI0GbbsPB6QfhQDFE90C3IMXBvMDlQBdNvED6gMbB6pXtQEhAXEDs
V8jB8NBWQIZ3fL8XxZXBQRuwQFZCqkDMG6fBv+maQAGj/D5TXZrBAwDCQEBXJ8DoH7DBiwnMQEWg
bMA1daHB1mi6QLiMMkG/9rLBFHInQKYkMMB4JInB0oyWQBFqhUDk3IXBDJu+QNF3OEBgZIXB+irN
QBrXkUA8FonBFadYQLWLNUDmU6jBX0sBQBHdaEC/UJjBzns5QChagUDq0IzBlzvPQCrEGEGP9bzB
w0/TQOWLAkFE673Bm4jbQN7Hp0DZCMDB2dvfQIC0dkC1G8HB93aOQJNKXcDMYKDBcD29QGhRnUBj
Y67Bse+oQE2OQD6/76HB9eu+QNW7yL+DRK7BdVqeQLZq+7+dqpHBy4K9QLluIUFGnLPBO4mAQC8h
jcAd2pjBvATKQNT7uUDVlrbBSIPFQAP66UB9ebXBFrSdQHtSDcBixpzBxK6sQNaBl7+Da6TBrRHB
QNqGYUD3b6/BOw+3QNs9lj9lM6nBUMLSQPMZP0Cv6bjBAXHJQIxQRj+NGrPBZS7NQF2+GL+Xg7XB
K/iPQJiTPcA0lorB7rKzQGuZ/kARNqzBn1DKQF3VPUA/8ZvBwZOCQDE0WEDgcJnB/DayQIHiKEC1
PqbBYxW0QABOckAvl4nBrEGwQADQFEEOhqvBW3GBQHT9hMAdNo7BxLarQP7uXUAD6pTB90KFQKBY
PEAIYaPBu+c4QKHtbUAuX5TB+dbwQIFsNkDpUZrBL5zYQGD90T+n4LrBb7beQK3mfL9C677BgOCQ
QGxNLsD643/B7w+lQHUn6UCxmaPBBKTZQJEjI0FiXMPBj/TgQIdp90AnFcXBXqjlQAF2vEBLesbB
AXntQPWYXEAeWcjBz36NQGOXa8Dl06jBphmwQK08qkAuFKfBYBmbQIs3+T51Y5rBe+nBQOBoJ8CA
O7DBxMupQEJ1gr9XnY7BT2u6QJKUMkEn4LLBdLhpQLu0q8BboJvBiZ2WQHpGhUD12YXBWqm+QPkq
OEAcZIXBTDvNQEqykUADFInB16JYQEFQNUAMUKjBwF8BQIzRaEAXTJjBXKM5QElTgUCmzYzBMkew
QJoGFEG8Y6vBoWu0QNSf+0AXaazBvmbcQFxPpkB7PcDBYVDgQHIidECYEsHBzImOQHB/XcDFcaDB
aCq9QEgcnkCPlK7Bs7OoQMuMQj5x5aHB2eG+QB+OyL8vPa7BrlieQDSP/L91sJHBzta9QJJNIUGw
xbPB38OAQEBpjcC+8pjBFbfKQOfFuUD/97bBijvGQKXQ6UA64bXBWaadQHqIDcDGzJzBTo2sQF1j
l7+QZ6TBxvDAQCBLYkCkaq/Bqdy2QPPVlj9tI6nBJ9rSQM13PkCazrjBDmPJQDhJRj98AbPBdyzN
QFpPGL/yc7XBUx2QQFp8PsBApIrBTC/TQMu+A0H/B77BoT3KQImkPkDm75vBgYSCQPJ8WEATZZnB
PxKyQC6yKUCENabBHwu0QMq0cUAZiInBSMfOQNMfGUHZzbzBoLOBQFVwhcDpTI7BNqqrQJ1MXkAR
4ZTBTDSFQDJTPUCJW6PB+rc4QIttbUBkS5TBu77wQPq5NkB+UZrBrMfYQBsf0T95uLrBNNDeQBG+
e7+y277BJw2RQEWJL8Ay/X/BVnrkQNk/+0D0a8fBN8OiQMHeGkE1NqTBSxSqQKrh5kBoAKbBYwfn
QFtBukDaxsbBcvntQCaXWEArOcjBEI2NQNiAa8DO5qjBjauvQGHNq0CGZqfBjsSaQNHi+D5VWprB
z+bBQKpNJ8DINbDByrSpQNung78VnI7Br6S6QE5vMkFj+bLB72BqQBP8q8AnwJvBepmWQLDkhECR
w4XBKIy+QF8uN0DKZ4XBuz/NQMFQkUCG9IjBYpRYQCXfNkAOUKjB7C4BQIo+aECtN5jBu2U5QOLU
gECTtIzB

> <OMEGA_E>
BlFKPzJsSj80kko/6FJOP7imTj8Enls/VrJbPw==

> <OMEGA_NBR>
     52238

$$$$
50168791
  -OEChem-04172616093D

 49 52  0     1  0  0  0  0  0999 V2000
    6.6007   -0.5119  -22.7014 C   0  0  0  0  0  0  0  0  0  0  0  0
    3.2735   -3.0249  -18.2237 C   0  0  0  0  0  0  0  0  0  0  0  0
    6.1383   -1.5237  -21.8421 C   0  0  0  0  0  0  0  0  0  0  0  0
    3.6753   -2.1111  -19.2052 C   0  0  0  0  0  0  0  0  0  0  0  0
    6.4042    0.8391  -22.3647 C   0  0  0  0  0  0  0  0  0  0  0  0
    7.2768    4.0133  -21.9371 C   0  0  0  0  0  0  0  0  0  0  0  0
    4.9898    3.8884  -22.8020 C   0  0  0  0  0  0  0  0  0  0  0  0
    7.6608    4.7482  -23.0637 C   0  0  0  0  0  0  0  0  0  0  0  0
    5.3785    4.6158  -23.9262 C   0  0  0  0  0  0  0  0  0  0  0  0
    5.2407    0.1670  -20.3340 C   0  0  0  0  0  0  0  0  0  0  0  0
    4.1953   -3.9871  -17.7651 C   0  0  0  0  0  0  0  0  0  0  0  0
    5.4548   -1.1780  -20.6567 C   0  0  0  0  0  0  0  0  0  0  0  0
    4.9881   -2.1913  -19.7093 C   0  0  0  0  0  0  0  0  0  0  0  0
    5.9306    3.5954  -21.7890 C   0  0  0  0  0  0  0  0  0  0  0  0
    5.7215    1.1869  -21.1655 C   0  0  0  0  0  0  0  0  0  0  0  0
    6.7079    5.0600  -24.0490 C   0  0  0  0  0  0  0  0  0  0  0  0
    5.8681   -3.1770  -19.2017 C   0  0  0  0  0  0  0  0  0  0  0  0
    6.2768    2.8732  -19.3892 C   0  0  0  0  0  0  0  0  0  0  0  0
    4.0644    3.4084  -19.1385 C   0  0  0  0  0  0  0  0  0  0  0  0
    5.5371    2.6260  -20.6967 C   0  0  1  0  0  0  0  0  0  0  0  0
    5.5948    3.8328  -17.1618 C   0  0  0  0  0  0  0  0  0  0  0  0
    6.6265    7.2389  -24.9383 C   0  0  0  0  0  0  0  0  0  0  0  0
    5.4600   -4.0491  -18.2496 N   0  0  0  0  0  0  0  0  0  0  0  0
    5.3088    3.3088  -18.5018 N   0  0  0  0  0  0  0  0  0  0  0  0
    4.1287    2.8547  -20.3245 N   0  3  0  0  0  0  0  0  0  0  0  0
    2.9102    3.9529  -18.5974 N   0  0  0  0  0  0  0  0  0  0  0  0
    7.4451    2.6117  -19.1231 O   0  0  0  0  0  0  0  0  0  0  0  0
    7.0629    5.8657  -25.0966 O   0  0  0  0  0  0  0  0  0  0  0  0
    7.1626   -3.2105  -19.6022 F   0  0  0  0  0  0  0  0  0  0  0  0
    5.2658    7.3256  -24.9313 F   0  0  0  0  0  0  0  0  0  0  0  0
    7.1127    7.7554  -23.7737 F   0  0  0  0  0  0  0  0  0  0  0  0
    7.1065   -0.7719  -23.6195 H   0  0  0  0  0  0  0  0  0  0  0  0
    2.2709   -2.9928  -17.8235 H   0  0  0  0  0  0  0  0  0  0  0  0
    6.3054   -2.5619  -22.0881 H   0  0  0  0  0  0  0  0  0  0  0  0
    2.9914   -1.3586  -19.5690 H   0  0  0  0  0  0  0  0  0  0  0  0
    6.7727    1.6156  -23.0186 H   0  0  0  0  0  0  0  0  0  0  0  0
    8.0060    3.7644  -21.1803 H   0  0  0  0  0  0  0  0  0  0  0  0
    3.9693    3.5486  -22.7053 H   0  0  0  0  0  0  0  0  0  0  0  0
    8.6842    5.0743  -23.1761 H   0  0  0  0  0  0  0  0  0  0  0  0
    4.6602    4.8379  -24.7015 H   0  0  0  0  0  0  0  0  0  0  0  0
    4.6993    0.4212  -19.4348 H   0  0  0  0  0  0  0  0  0  0  0  0
    3.8863   -4.6931  -17.0085 H   0  0  0  0  0  0  0  0  0  0  0  0
    4.6520    4.1070  -16.6659 H   0  0  0  0  0  0  0  0  0  0  0  0
    6.1101    3.0625  -16.5693 H   0  0  0  0  0  0  0  0  0  0  0  0
    6.2372    4.7219  -17.2453 H   0  0  0  0  0  0  0  0  0  0  0  0
    7.0213    7.8207  -25.7842 H   0  0  0  0  0  0  0  0  0  0  0  0
    3.3396    2.6218  -20.8929 H   0  0  0  0  0  0  0  0  0  0  0  0
    2.0576    3.9376  -19.1197 H   0  0  0  0  0  0  0  0  0  0  0  0
    2.9301    4.3610  -17.6847 H   0  0  0  0  0  0  0  0  0  0  0  0
  1  3  1  0  0  0  0
  1  5  2  0  0  0  0
  2  4  2  0  0  0  0
  2 11  1  0  0  0  0
  3 12  2  0  0  0  0
  4 13  1  0  0  0  0
  5 15  1  0  0  0  0
  6  8  2  0  0  0  0
  6 14  1  0  0  0  0
  7  9  1  0  0  0  0
  7 14  2  0  0  0  0
  8 16  1  0  0  0  0
  9 16  2  0  0  0  0
 10 12  1  0  0  0  0
 10 15  2  0  0  0  0
 11 23  2  0  0  0  0
 12 13  1  0  0  0  0
 13 17  2  0  0  0  0
 14 20  1  0  0  0  0
 15 20  1  0  0  0  0
 16 28  1  0  0  0  0
 17 23  1  0  0  0  0
 17 29  1  0  0  0  0
 18 20  1  0  0  0  0
 18 24  1  0  0  0  0
 18 27  2  0  0  0  0
 19 24  1  0  0  0  0
 19 25  2  0  0  0  0
 19 26  1  0  0  0  0
 20 25  1  0  0  0  0
 21 24  1  0  0  0  0
 22 28  1  0  0  0  0
 22 30  1  0  0  0  0
 22 31  1  0  0  0  0
  1 32  1  0  0  0  0
  2 33  1  0  0  0  0
  3 34  1  0  0  0  0
  4 35  1  0  0  0  0
  5 36  1  0  0  0  0
  6 37  1  0  0  0  0
  7 38  1  0  0  0  0
  8 39  1  0  0  0  0
  9 40  1  0  0  0  0
 10 41  1  0  0  0  0
 11 42  1  0  0  0  0
 21 43  1  0  0  0  0
 21 44  1  0  0  0  0
 21 45  1  0  0  0  0
 22 46  1  0  0  0  0
 25 47  1  0  0  0  0
 26 48  1  0  0  0  0
 26 49  1  0  0  0  0
M  CHG  1  25   1
M  END
> <OMEGA_C>
CjnTQGAJA7+KnLXBR4FRQI6XQcAkypHBuWzEQBMJw7+UvK7BGzhrQPYbB8AopJnB9e7MQAHOVj/e
6rLBedvoQO1sgEA0f6/B06yfQM3aeEB9arbBASX1QOHwl0CPgrjBmhysQFu0k0DCaL/B/bOnQOD2
Kj4JrKLBqT+GQK0sf8ABH47BwY2uQFTIlr/UQKXB1Z6fQMY9DMCzrJ3BnMe9QEsbZkDVT67BzRa3
QGbslz/pUqnBTafWQHnroUBAZMDBnMe7QKxUS8AnnZnBdtvIQFziN0ACHZvBUg+CQN0jWkCcG5nB
BTCxQAERKEC/kqXBwwizQKxMdUBqS4nBRgzUQFql50CTgcfBe7iuQIeSgcAb/5HBEuKpQH7DU0Cx
A5TBKB6EQKyzNkCCmKLBVkA6QMT8fEB2x5TBqz7uQAQmJ0An/JjBLwPiQO+zu0DbxcjBrjPlQOJ4
TcBB0ZzBSIGoQIBr6kBac8fBYJvjQGUs+EB9ML7BtGjjQLacRb/R9LzBw1YRQMOKP8B8lo7B7cXJ
QPn2I8B2tLDB2HI/QPflrb9djZzBmbnYQEjNzj8KJrjBfRgAQUXscEBHcanBSQh+QNcbY0CHpLXB
g/IKQX9gokCPaLnBnSCVQDjQmkCnnMXBjGCWQMqk1z5oepvBvbl4QCoulsBxEYjBft2UQNRsg0C4
U4XBAobDQMX/Q0DsjYTB2ZbHQH8Zl0Bm9onBxa7gQIJD+kANRs7BurtVQCXLJ0CPJKfBga8DQNoB
fEA/9ZjB04Y7QLeNi0A7eo3BG3vVQKQ3Ab8TZ7XBnaesQD1cgMCNtpHBxkbGQM7hwb/SjK7BvYG7
QLCtScApwJnBK6vOQN40WT+D1LLBQFLoQHFBgUAap6/BYxyfQLwKeUBMjLbB+3b0QIM6mEAuvrjB
e1KrQEnQk0DWlb/Bci6pQAODOz7Bn6LBZEGCQP85eMB3/o3BMnyvQBXvlL+/OaXBSH6fQJcbC8BZ
xJ3BPXK9QIfbZkAzdq7BLV24QCuHmT/PUKnBR/fVQLykoUDnqMDB1expQFzCBsAqz5nBjHfJQC0e
OkCGS5vBY4qCQJweWkDCH5nBn5+xQMnQKEB9q6XBDmazQOAVcUCbOonBEcvXQMBA50C/yMfB25FO
QAq6PMCxEpLBXoerQLXxXkCbkpTB+5+EQJsvNkBxlqLB4qE5QEr1dUBCcZTBanPuQProJkCrC5nB
tqzhQBNgukDuMsnBlNAxQButmb931Z3BT6SsQLZW7UDfuMfBla3oQN8q9kCDbb7BCWLmQNGmRL9j
o7zBL3bBQISRmMDdZo7BaAfMQPJuI8C7a7DBK77bQIo7T8B9yZzBU2faQDawzz+pF7jBrKH/QGUV
dEDBiKnBRA99QHPsYkBMvLXB2ZYKQf23okAIr7nBhCKUQGotm0DKuMXBQWOYQCbn4T5IXJvBYgRu
QIYdkcAlvIfBCLGWQHQhh0CyrIXBud+6QHsXNUBMBYXBcovOQFTAjkCOe4jBrNzlQOgD+UC5hM7B
yKxWQCEuJkAzEKfB9RICQJ4Wb0DRUZjBvMI6QKJ0iEAVMI3B6/zWQAJWEb8jHbXBAPenQEo6gMDv
UZHBvn7GQF26yL/5WK7Be6u4QBoAS8A2S5nBXFDRQEdjSj+TgLLB1efnQHgrgkBH5a/BaayeQFKS
ckCYVbbBTBjxQIMynEDku7jBnc+nQLwYk0DnEb/BuOeqQE8yFz4KYKLB0vl5QBpGdsA1HI7B8Mev
QLObmb9GDqXBKOGdQKxGDMD7vp3BwBi+QFZQY0BTga7Bu/m6QASdkz+qBqnBQvnQQCKZpUBjRsDB
8nplQLDnBcDyRJrBw+rKQKTyOkAtQpvBY5ODQCAUWUD2WJnBsZyzQA7wJUDMkaXBWGyzQIz1dEBM
bonBm8S4QKnQ0UCSDs/BaXtGQAx/OsAEmpLB81CsQJ4jYECruZTBjEuGQFJWMUAZi6LBe/g6QMo9
dkBJ+5TB2F/wQKYFLEAmApnB8o7bQMbbwED8msjBMRkwQC0Elr+0pJ7BvAenQP9WskCHLdXBgWea
QNfp5EAPzcjBeP7nQP2LV7/rTrzBYsq7QEx6mMBLq43BmzXLQL0aJ8DiQrDBsF/ZQCzjUcCB85vB
yPDdQDZfxz+as7fBzFQAQWd3dUAyKarBQ7d+QPYGVkDbirXBRHMIQYcTqUA6w7nB7maPQJQlmUAd
/8TB1YWaQIL11D6aE5vBspJgQDaYj8Cj6YfB/UWWQEToiEDdEIbBsji7QA8rOkD5/4TB6R7OQPBB
kUCpv4jB94DGQDos6kDXZtTBXJ1aQB+SHUAu46bB6uYDQNJSbUAL55jBDRg7QK4YikBn6Y3B

> <OMEGA_E>
WJrUPhC22T4M+N0+

> <OMEGA_NBR>
     55047

$$$$
50215909
  -OEChem-04172616093D

 36 38  0     1  0  0  0  0  0999 V2000
    6.6165    5.3937  -23.9925 C   0  0  0  0  0  0  0  0  0  0  0  0
    5.3079    4.8879  -23.8869 C   0  0  0  0  0  0  0  0  0  0  0  0
    7.6040    4.9891  -23.0761 C   0  0  0  0  0  0  0  0  0  0  0  0
    6.6164   -0.6067  -22.6728 C   0  0  0  0  0  0  0  0  0  0  0  0
    4.9804    3.9899  -22.8557 C   0  0  0  0  0  0  0  0  0  0  0  0
    7.2818    4.0905  -22.0437 C   0  0  0  0  0  0  0  0  0  0  0  0
    6.4321    0.7568  -22.3739 C   0  0  0  0  0  0  0  0  0  0  0  0
    6.1573   -1.5971  -21.7821 C   0  0  0  0  0  0  0  0  0  0  0  0
    5.3167    0.1345  -20.2909 C   0  0  0  0  0  0  0  0  0  0  0  0
    5.9564    3.6044  -21.9013 C   0  0  0  0  0  0  0  0  0  0  0  0
    5.7759    1.1408  -21.1768 C   0  0  0  0  0  0  0  0  0  0  0  0
    5.5058   -1.2256  -20.5901 C   0  0  0  0  0  0  0  0  0  0  0  0
    6.3358    2.9033  -19.4894 C   0  0  0  0  0  0  0  0  0  0  0  0
    4.1070    3.3495  -19.2057 C   0  0  0  0  0  0  0  0  0  0  0  0
    5.5889    2.6109  -20.7855 C   0  0  1  0  0  0  0  0  0  0  0  0
    5.6410    3.7991  -17.2361 C   0  0  0  0  0  0  0  0  0  0  0  0
    5.3647    3.3075  -18.5908 N   0  0  0  0  0  0  0  0  0  0  0  0
    4.1814    2.8245  -20.4043 N   0  3  0  0  0  0  0  0  0  0  0  0
    2.9311    3.8045  -18.6298 N   0  0  0  0  0  0  0  0  0  0  0  0
    7.5148    2.6804  -19.2351 O   0  0  0  0  0  0  0  0  0  0  0  0
    5.0698   -2.1715  -19.7255 F   0  0  0  0  0  0  0  0  0  0  0  0
    6.8631    6.0930  -24.7778 H   0  0  0  0  0  0  0  0  0  0  0  0
    4.5540    5.1899  -24.5988 H   0  0  0  0  0  0  0  0  0  0  0  0
    8.6110    5.3691  -23.1656 H   0  0  0  0  0  0  0  0  0  0  0  0
    7.1116   -0.8945  -23.5884 H   0  0  0  0  0  0  0  0  0  0  0  0
    3.9790    3.5909  -22.7898 H   0  0  0  0  0  0  0  0  0  0  0  0
    8.0484    3.7682  -21.3546 H   0  0  0  0  0  0  0  0  0  0  0  0
    6.7912    1.5118  -23.0576 H   0  0  0  0  0  0  0  0  0  0  0  0
    6.3050   -2.6416  -22.0135 H   0  0  0  0  0  0  0  0  0  0  0  0
    4.8161    0.4157  -19.3762 H   0  0  0  0  0  0  0  0  0  0  0  0
    4.6939    4.0513  -16.7368 H   0  0  0  0  0  0  0  0  0  0  0  0
    6.1616    3.0185  -16.6620 H   0  0  0  0  0  0  0  0  0  0  0  0
    6.2750    4.6961  -17.2940 H   0  0  0  0  0  0  0  0  0  0  0  0
    3.3943    2.6005  -20.9790 H   0  0  0  0  0  0  0  0  0  0  0  0
    2.0702    3.7419  -19.1347 H   0  0  0  0  0  0  0  0  0  0  0  0
    2.9437    4.1952  -17.7094 H   0  0  0  0  0  0  0  0  0  0  0  0
  1  2  1  0  0  0  0
  1  3  2  0  0  0  0
  2  5  2  0  0  0  0
  3  6  1  0  0  0  0
  4  7  2  0  0  0  0
  4  8  1  0  0  0  0
  5 10  1  0  0  0  0
  6 10  2  0  0  0  0
  7 11  1  0  0  0  0
  8 12  2  0  0  0  0
  9 11  2  0  0  0  0
  9 12  1  0  0  0  0
 10 15  1  0  0  0  0
 11 15  1  0  0  0  0
 12 21  1  0  0  0  0
 13 15  1  0  0  0  0
 13 17  1  0  0  0  0
 13 20  2  0  0  0  0
 14 17  1  0  0  0  0
 14 18  2  0  0  0  0
 14 19  1  0  0  0  0
 15 18  1  0  0  0  0
 16 17  1  0  0  0  0
  1 22  1  0  0  0  0
  2 23  1  0  0  0  0
  3 24  1  0  0  0  0
  4 25  1  0  0  0  0
  5 26  1  0  0  0  0
  6 27  1  0  0  0  0
  7 28  1  0  0  0  0
  8 29  1  0  0  0  0
  9 30  1  0  0  0  0
 16 31  1  0  0  0  0
 16 32  1  0  0  0  0
 16 33  1  0  0  0  0
 18 34  1  0  0  0  0
 19 35  1  0  0  0  0
 19 36  1  0  0  0  0
M  CHG  1  18   1
M  END
> <OMEGA_C>
mbrTQNqYrEC48L/BdNqpQAFqnEB3GL/B91PzQIKmn0Ddm7jBfbnTQFlSG7/VYbXBgV+fQDJaf0Br
2LbB3wTpQI/lgkCJWbDBwNPNQMDAQT+v/bLBeAjFQDVuzL+xQa7BPCKqQPS1CT68U6LBiZq+QPau
ZkDRNa/BI9S4QPgGkj8iaqnBdS+wQPnhnL+UuKTBtr7KQH/POUBM6pvBk2yDQE9eVkAspZnB+Ney
QLgZJ0C4SKbBEYO0QKwkc0Cg44nB1KurQICtU0AAupTB7s2FQMTENEAHPKPBc5c7QDZ8c0DLCZXB
kHnwQGKMK0B54ZnBdTuiQC75CsDmzZ3BVZ7bQLD5wkDXOMbBE7qRQFATpkBwysTBdsYJQejPq0Ab
U7nBVpLjQDIAZb/7tLzBZKd+QGHRZUCZUbbBD8YAQZQpcUAg1qrBm1HZQO+BwT8CdrjB78LJQFgQ
KcCxG7DBsR2aQErb1D5bApvBQTSWQBikgUDo5IXBzivFQHgvQUDBS4XBHM3IQMBGlkAQWorBuDtZ
QM5uJkD/1KfB234EQNd7b0DzE5nB9mQ8QBI/hkDJrI3BmpPTQNbNrEDb5b/Bmr+pQLF3nECVFb/B
vyDzQLL2n0C9irjBzAWwQHjjnb+lxqTBsUufQNYpf0D/27bBb9boQJkag0CdTbDBvQOqQHxFAT5j
UaLBjhXFQDSmzL8eSa7BT/bNQPLdQT9u7LLBz32+QHyXZkCPNa/Bgsu4QCJ8kT/DX6nBsvbTQJeI
Gr/aWLXBpLnKQEDWOUD58JvBl5aDQMSMV0Aer5nBWMiyQAjfJkDGRqbBjTK0QHpmbEAosInBeG+s
QBKiW0DhEpXBwtWFQOyhNEADNKPBGKc7QDonc0CvAJXBIEjwQIRxKkC11ZnB/VroQAf0c7+6dr7B
inbbQIQ2w0BLLMbBxaGRQLIepkB5yMTBhKYJQZhJrEAIObnBEH6kQJhu/7/sX5/BfJl+QEZWZUCF
XbbB5qoAQQnLcUDNxKrB1P+ZQJKhzj55/ZrBCtnJQCgZKcBmLLDBy4bZQAzrwT8EXLjBWxqXQHaV
g0AsCYbB86y8QGE6MEBBpIXBMKXOQF8vjUCC2YjBJSlZQPp7JUCUvKfBtjkEQOPpbEDv7JjB5JY8
QISnhkDCs43B

> <OMEGA_E>
ADT5PjBeCz8=

> <OMEGA_NBR>
     56647

$$$$
50176694
  -OEChem-04172616093D

 50 53  0     1  0  0  0  0  0999 V2000
    5.8505   -0.5160  -22.9560 C   0  0  0  0  0  0  0  0  0  0  0  0
    3.9016   -3.3349  -17.9382 C   0  0  0  0  0  0  0  0  0  0  0  0
    5.5769   -1.5111  -22.0064 C   0  0  0  0  0  0  0  0  0  0  0  0
    3.9242   -2.3596  -18.9468 C   0  0  0  0  0  0  0  0  0  0  0  0
    5.8089    0.8370  -22.5808 C   0  0  0  0  0  0  0  0  0  0  0  0
    5.1427    0.2008  -20.3216 C   0  0  0  0  0  0  0  0  0  0  0  0
    5.3817    4.2565  -22.7817 C   0  0  0  0  0  0  0  0  0  0  0  0
    5.0747   -4.0703  -17.6637 C   0  0  0  0  0  0  0  0  0  0  0  0
    7.5282    3.6848  -21.9989 C   0  0  0  0  0  0  0  0  0  0  0  0
    5.2212   -1.1478  -20.6921 C   0  0  0  0  0  0  0  0  0  0  0  0
    5.1217   -2.1661  -19.6569 C   0  0  0  0  0  0  0  0  0  0  0  0
    5.4953    1.2035  -21.2420 C   0  0  0  0  0  0  0  0  0  0  0  0
    6.1722    3.5481  -21.7901 C   0  0  0  0  0  0  0  0  0  0  0  0
    6.1560    4.8683  -23.7275 C   0  0  0  0  0  0  0  0  0  0  0  0
    6.2709   -2.9140  -19.3143 C   0  0  0  0  0  0  0  0  0  0  0  0
    6.2276    2.8267  -19.4387 C   0  0  0  0  0  0  0  0  0  0  0  0
    4.0481    3.4867  -19.2319 C   0  0  0  0  0  0  0  0  0  0  0  0
    5.6076    5.6236  -24.8485 C   0  0  0  0  0  0  0  0  0  0  0  0
    5.5208    2.6520  -20.7662 C   0  0  2  0  0  0  0  0  0  0  0  0
    3.4467    4.4675  -25.4979 C   0  0  0  0  0  0  0  0  0  0  0  0
    5.5672    3.8368  -17.2348 C   0  0  0  0  0  0  0  0  0  0  0  0
    4.0858    5.7813  -25.0058 C   0  0  0  0  0  0  0  0  0  0  0  0
    6.2285   -3.8483  -18.3387 N   0  0  0  0  0  0  0  0  0  0  0  0
    5.3204    3.4984  -18.6393 N   0  0  0  0  0  0  0  0  0  0  0  0
    4.1429    3.0762  -20.4741 N   0  3  0  0  0  0  0  0  0  0  0  0
    2.8613    3.8648  -18.6212 N   0  0  0  0  0  0  0  0  0  0  0  0
    7.3778    2.5130  -19.1521 O   0  0  0  0  0  0  0  0  0  0  0  0
    6.3641    6.0739  -25.6989 O   0  0  0  0  0  0  0  0  0  0  0  0
    7.4544   -2.6554  -19.9245 F   0  0  0  0  0  0  0  0  0  0  0  0
    7.8539    4.6518  -23.4008 S   0  0  0  0  0  0  0  0  0  0  0  0
    6.0924   -0.7890  -23.9726 H   0  0  0  0  0  0  0  0  0  0  0  0
    2.9969   -3.5208  -17.3784 H   0  0  0  0  0  0  0  0  0  0  0  0
    5.6388   -2.5535  -22.2818 H   0  0  0  0  0  0  0  0  0  0  0  0
    3.0453   -1.7735  -19.1713 H   0  0  0  0  0  0  0  0  0  0  0  0
    6.0161    1.6037  -23.3127 H   0  0  0  0  0  0  0  0  0  0  0  0
    4.8117    0.4702  -19.3295 H   0  0  0  0  0  0  0  0  0  0  0  0
    4.3024    4.2954  -22.7726 H   0  0  0  0  0  0  0  0  0  0  0  0
    5.0522   -4.8295  -16.8959 H   0  0  0  0  0  0  0  0  0  0  0  0
    8.2892    3.2463  -21.3704 H   0  0  0  0  0  0  0  0  0  0  0  0
    2.3603    4.6043  -25.6026 H   0  0  0  0  0  0  0  0  0  0  0  0
    3.8772    4.1929  -26.4722 H   0  0  0  0  0  0  0  0  0  0  0  0
    3.6468    3.6674  -24.7700 H   0  0  0  0  0  0  0  0  0  0  0  0
    4.6945    4.3672  -16.8260 H   0  0  0  0  0  0  0  0  0  0  0  0
    5.7378    2.9145  -16.6601 H   0  0  0  0  0  0  0  0  0  0  0  0
    6.4549    4.4824  -17.1638 H   0  0  0  0  0  0  0  0  0  0  0  0
    3.6490    6.0526  -24.0333 H   0  0  0  0  0  0  0  0  0  0  0  0
    3.8794    6.5781  -25.7355 H   0  0  0  0  0  0  0  0  0  0  0  0
    3.3870    3.0546  -21.1286 H   0  0  0  0  0  0  0  0  0  0  0  0
    2.0033    3.8341  -19.1339 H   0  0  0  0  0  0  0  0  0  0  0  0
    2.8638    4.1681  -17.6683 H   0  0  0  0  0  0  0  0  0  0  0  0
  1  3  1  0  0  0  0
  1  5  2  0  0  0  0
  2  4  2  0  0  0  0
  2  8  1  0  0  0  0
  3 10  2  0  0  0  0
  4 11  1  0  0  0  0
  5 12  1  0  0  0  0
  6 10  1  0  0  0  0
  6 12  2  0  0  0  0
  7 13  1  0  0  0  0
  7 14  2  0  0  0  0
  8 23  2  0  0  0  0
  9 13  2  0  0  0  0
  9 30  1  0  0  0  0
 10 11  1  0  0  0  0
 11 15  2  0  0  0  0
 12 19  1  0  0  0  0
 13 19  1  0  0  0  0
 14 18  1  0  0  0  0
 14 30  1  0  0  0  0
 15 23  1  0  0  0  0
 15 29  1  0  0  0  0
 16 19  1  0  0  0  0
 16 24  1  0  0  0  0
 16 27  2  0  0  0  0
 17 24  1  0  0  0  0
 17 25  2  0  0  0  0
 17 26  1  0  0  0  0
 18 22  1  0  0  0  0
 18 28  2  0  0  0  0
 19 25  1  0  0  0  0
 20 22  1  0  0  0  0
 21 24  1  0  0  0  0
  1 31  1  0  0  0  0
  2 32  1  0  0  0  0
  3 33  1  0  0  0  0
  4 34  1  0  0  0  0
  5 35  1  0  0  0  0
  6 36  1  0  0  0  0
  7 37  1  0  0  0  0
  8 38  1  0  0  0  0
  9 39  1  0  0  0  0
 20 40  1  0  0  0  0
 20 41  1  0  0  0  0
 20 42  1  0  0  0  0
 21 43  1  0  0  0  0
 21 44  1  0  0  0  0
 21 45  1  0  0  0  0
 22 46  1  0  0  0  0
 22 47  1  0  0  0  0
 25 48  1  0  0  0  0
 26 49  1  0  0  0  0
 26 50  1  0  0  0  0
M  CHG  1  25   1
M  END
> <OMEGA_C>
Uje7QOQVBL/4pbfBP7N5QNNuVcB8gY/BQHayQDpqwb8oDbDBdSV7QPcDF8DykpfBSuK5QH1IVj+H
pbTBVJGkQASSTT6fkqLB8jasQBo1iEDYQLbBKmSiQERAgsA3T43BIOfwQHDUa0C1/a/B7hOnQGLr
kr9WiaXB3OSjQBaiCsBuQZ3BZtmvQLMLmj+z76nBjoLFQOAUY0AMUq7B5v3EQADJm0D40b3BgqvI
QC9/OsCdg5rBrEjHQD7oNEBpgpvB0ImBQKslX0Db2pnBUnGzQGL0s0CxycbBtKqwQOW6KUA1IabB
vZZcQIn1jkCc+8vBhiayQHWNdUDa4InBjL6CQEYAuUDJC8jB1E/HQPVJdsC8tZLBhECqQEPmX0BS
HZXBPpKEQO7fREAOy6PBGCA3QN1Yd0BC+JTBFBfsQPbUIECXN5nBrKbLQMpdwkBjl83BxIruQDLy
KcBhZZ/BSFP7QKrblEDoNLvBAPXCQFL+Sb/Nx7/BEM0/QPlTYcDvBovBvXC0QOZsI8AnQbLB4+VC
QFEB47/FXpnBwoPAQINGzT92gLrBGPmZQKu68D7eoprBpq2JQB10iUBYLrbBV6uhQJKLmsDCKofB
kaAEQRLDT0Ce9qrB7g4XQIBWk0A20szBOyR4QEIshkD9xtPB3WVpQHm2akDqKMbBoDmWQCzAi0C+
m4bB05u3QGCGOkDpR4XBx47OQC9wj0CQT4nBGolpQJGuwUA5RMDBeEd4QJd/0kBM4s3B+cRYQEB/
Q0BMB6nBQTYAQH5idUBCEpnBJUk3QKtghUC0WI3BpLPDQFlECL/9KrfBTcdtQB5KTsAfvI/BRou4
QBTVw7+lza/BvdN3QGBUD8DNoZfBYMzAQDmRUT/EObTBN4KlQMQ/Mz4arKLBLaOnQKj4g0AH37bB
KruYQFDqg8ARuo3BLGDtQAPudUDw5q/B9MGpQChklr8Sh6XB44SiQMsLDcBHbJ3BxEyyQDJtlz94
1anB3pnCQN64Y0B3dq7BicG+QH4cm0AlIb7BQFXDQNJnSMAJ+prBJrDHQHqhNUBfhZvBOviBQKhk
YUC09pnBIv2qQLh6s0CpycbBxqWwQBZxKEB7EabBlDKnQNuWAUGoB8TBefqxQE0pdEDTx4nBWh++
QBnC3kCwA8rBtvm9QPX9gcATQJPBpG6qQD+fX0ChE5XBYyWEQB1ZP0Cqi6PBH6k5QNFGgUAkhZXB
LNHsQM9wI0BLTpnB3+GGQOj0qUAQzsnB/pfpQOQqRMDJEaDBB1T1QIRUmkC6IrvB3IDOQOR5Tb/B
Fb/B+uUyQO+qUsAcPovBCEW7QByMJMBh/7HB04RFQGFhw785O5nBWZ/JQLMfyz8R4rnBNWaYQK2Q
4T4g95rBkGaFQBEpf0APTbfBJtmUQO0XnMBKoYfBe1MDQYDlX0B0sarBQSa1QKcJEUEKZsbBrPGE
QGJmAUH7DcbBDBqrQCWx/kA/W7vBwN+VQPa5ikA4gIbBd3m3QFuzOEAoRoXBt0HOQK/cjkBqGInB
IV/gQGM830CA/MfBwDa6QAJY40A9r9LBRltWQBVONkCHa6jBJPwCQHKxgED4rJnBLMk6QDbQjUAy
KY7BgHfCQD0FD79KPLfBpAW9QDdKf8B4V5LBwm24QHaZxb9Xoq/BcDHDQJE2RcDLuZrB+kO/QMTt
TD/VgbTBPsylQBjXQT7LuqLBCOupQC+FhEAnG7fBwP6VQH1PfsBVsIzBxN/uQNwLdkBV0a/BoqSp
QOJGlb9CaqXBskeiQH8PC8BiJZ3BcPWxQI1Xlz+vEarBOAPEQGM7Y0CRr67BQEXBQCkHn0D2i73B
HYx3QMMXDcAHJ5fBeArIQLL0NEDp0JvBzAmCQAFrXUBSBprBmreuQJJJuEAfHsbBuguxQJl9KECt
YqbBB4RpQLq9x0D4ENTBXLmyQOKrckAPB4rBzA6DQCXsqkASzMrBhZ5sQBpqRsAqJY/BnNCqQK9T
XkCRT5XB9LWEQHUvQUD85KPBK5k4QEVWd0AkKZXBYt/sQC7cIEDGjJnB1EPDQKo91kCpzcnBdoE2
QKq0rb/qg5nBgnr3QPDonUBKV7rBRqLMQG1vWL8HK7/BptrVQOUllsDGOpDBVQe8QGWyJcDSnLHB
zabgQG0XRcBjPp/BrfDGQDFqxz8UXLrBQG6ZQHVK8T7M+5rBzyqIQPKnfEB6IrjBADeRQFmglcD0
O4bByO8DQf19XEB8x6rByB0rQPPEvEBEFNfBJNtjQJnv6ECvOdHBcIqMQMcxxkDUitrBQqCWQP25
iUBPqobBIp64QKYsN0Bjj4XBQN/OQKtRjkDFZInB5XyFQPvTiUCeu83BDsBVQM6RrEB5asTBGkNY
QK8NPUCp/ajBUXsBQGMtdUDJN5nBsk45QA0XhkDtmI3Bg3bIQPrwB79377bBZQS7QEKVesASsZHB
A7a8QDm7w799ma/B8EbDQEokQcDKCJrBtDbEQCDQUj+zJbTBeYumQIh5Oj7M2qLBa16mQISpg0CE
97bBm7iRQJxbfcCCKY3BTFnsQMrIekB38q/Bu1WrQPFylb9hm6XBPgeiQHiWC8D2i53Bc+ezQOAn
mD8A76nBfPzBQBD4ZEBHka7BppK8QK0OnECjJb7BgVxyQGBXEcDJrpjBQlzIQOoeNkDVqZvB30yC
QEwdX0BK8pnBI+inQJUqtEC3uMbBoCmxQHKRKEAMLKbBgKOgQOsJAkGrucTB3pWyQMTxckA/1onB
Oym6QHi/30AlC8rBCZNjQLjKScALrZDBT/GqQAjrXkC+JJXBjX+EQEJaPUD5iqPBQ+E5QJBZfkDU
Z5XBo1jtQODGIkDxcpnB6BKEQG6rqUAqvsnBmSQxQA0ovr/7GZzB/iPzQKU9nUBdI7vBBsDUQI7i
Tb+htb7BovjTQHEhksDSwo7BW/rAQCuLJMBHnLHB4YziQLcSPsAWsZ3BVl7NQMeXyz9ByLnBZ4OY
QCYR5j74QJvBe16EQA+Je0ALcrfBNF2LQNXZlMBauobBU/0CQdi5ZkC7uKrBXweuQJuQEUEdK8fB
DeR9QKcUAUEYOsfBta6iQBN1AEHM+bvBIVSWQC+iiUAEfYbB/JK4QKpaN0CXZYXBi5jOQEacjkB4
JYnB6dfbQOTJ4UDyicfBOhu4QA0J40A9ytLBDOxWQMQ9M0CpXKjBve4CQGDle0DzfpnBZPM6QLCp
i0CGCo7BuvzlQDksCb8NwLHB3/hRQNZYhcA5OZ/B5TfOQI0Wxb94l6zBLqt/QMklTMAK6KTBpEPe
QP9WUT+kXq/B0EunQEtOKz4wiaLBVaulQKSbT0CG3rnBXKdVQEaNhcDm8pPBySzcQPDsjUBYyLDB
pWGvQIsymL+V16TBpomXQGESD8BGIJ/B8rK9QPnElz8U/afBgqa8QHDLXkAFuK/BRgK3QIjFfECF
PcLBzASYQDAIE8CWy5PB/GLMQN44SkCA65vBJFGEQB8bW0An+5jBAXanQHjRekBdUc3BZ9CzQDN/
KkAZqqXBPm5UQHGtskBjUMzBVOa2QI6ahkCGTorBA0NvQG//hEAMn8/B7geCQHVkUMCfdo7Bvq+t
QKS+bEAjIZXBS7OGQKeCN0Dxg6LB1F08QO4qbUBps5PBeSzzQAeeR0B5cprBQ2HBQD7+fUAkq9TB
B7yvQMsOtb+AFo7BB4jgQH9hn0AL7r3Bsiv+QDavTb8NirfBym0sQIz6nMDwbqPB4Y3TQM7/JMDK
jq7BcXx+QBHmSsAyi63B7TzxQKjMyj+eLrPBpsyPQNmn2z5TjpzBzFWKQGu+JUB1n7rBZ6QyQOOv
ncBllI/BHLLvQPWGmUD7RKrB0AMQQMJUt0AcCM7Bz+1fQNgTt0DAs8PBg0B6QK0sykDN2dDBXC+Z
QFF5kkC4o4bB4SLEQFQ4WUCcYYXBJ0XOQMrYoEAd0YrBjGdjQILAgED6OtjB2RRJQFlPW0DtFMvB
PuhaQC5/J0BCAafB7WAEQIAAX0D9JZfBRog9QIIohEAudYzB

> <OMEGA_E>
kEkkP1ztFz/MghQ/nFcPPyjTTT8=

> <OMEGA_NBR>
     61203

$$$$
50176725
  -OEChem-04172616093D

 50 53  0     1  0  0  0  0  0999 V2000
    8.3182    3.4405  -23.1714 C   0  0  0  0  0  0  0  0  0  0  0  0
    4.4515    7.8806  -24.3488 C   0  0  0  0  0  0  0  0  0  0  0  0
    7.6129    4.4086  -23.8861 C   0  0  0  0  0  0  0  0  0  0  0  0
    5.1526    6.9290  -23.6167 C   0  0  0  0  0  0  0  0  0  0  0  0
    7.7310    2.8245  -22.0663 C   0  0  0  0  0  0  0  0  0  0  0  0
    5.7334    4.1446  -22.3910 C   0  0  0  0  0  0  0  0  0  0  0  0
    5.8379    0.0712  -19.8179 C   0  0  0  0  0  0  0  0  0  0  0  0
    4.2151    7.6222  -25.6899 C   0  0  0  0  0  0  0  0  0  0  0  0
    5.6509    0.5783  -22.0787 C   0  0  0  0  0  0  0  0  0  0  0  0
    6.3206    4.7606  -23.4961 C   0  0  0  0  0  0  0  0  0  0  0  0
    5.5897    5.7647  -24.2383 C   0  0  0  0  0  0  0  0  0  0  0  0
    6.4387    3.1764  -21.6763 C   0  0  0  0  0  0  0  0  0  0  0  0
    5.7693    1.0946  -20.8071 C   0  0  0  0  0  0  0  0  0  0  0  0
    5.7690   -1.1887  -20.3717 C   0  0  0  0  0  0  0  0  0  0  0  0
    5.3026    5.6006  -25.5839 C   0  0  0  0  0  0  0  0  0  0  0  0
    6.5155    2.8485  -19.1480 C   0  0  0  0  0  0  0  0  0  0  0  0
    4.3597    3.6515  -18.9731 C   0  0  0  0  0  0  0  0  0  0  0  0
    5.8036   -2.4566  -19.7180 C   0  0  0  0  0  0  0  0  0  0  0  0
    5.8176    2.5222  -20.5065 C   0  0  1  0  0  0  0  0  0  0  0  0
    4.6987   -4.4981  -18.5820 C   0  0  0  0  0  0  0  0  0  0  0  0
    5.8798    3.9941  -16.9727 C   0  0  0  0  0  0  0  0  0  0  0  0
    4.4947   -3.1423  -19.2389 C   0  0  0  0  0  0  0  0  0  0  0  0
    4.6242    6.5026  -26.3279 N   0  0  0  0  0  0  0  0  0  0  0  0
    5.5592    3.5363  -18.3200 N   0  0  0  0  0  0  0  0  0  0  0  0
    4.4479    3.0701  -20.2360 N   0  3  0  0  0  0  0  0  0  0  0  0
    3.2197    4.2412  -18.4889 N   0  0  0  0  0  0  0  0  0  0  0  0
    7.6664    2.5813  -18.8398 O   0  0  0  0  0  0  0  0  0  0  0  0
    6.8881   -3.0670  -19.5038 O   0  0  0  0  0  0  0  0  0  0  0  0
    5.7116    4.4847  -26.2107 F   0  0  0  0  0  0  0  0  0  0  0  0
    5.6224   -1.1341  -22.0770 S   0  0  0  0  0  0  0  0  0  0  0  0
    9.3247    3.1668  -23.4752 H   0  0  0  0  0  0  0  0  0  0  0  0
    4.1011    8.7962  -23.8861 H   0  0  0  0  0  0  0  0  0  0  0  0
    8.0844    4.8802  -24.7453 H   0  0  0  0  0  0  0  0  0  0  0  0
    5.3496    7.1085  -22.5626 H   0  0  0  0  0  0  0  0  0  0  0  0
    8.2873    2.0710  -21.5148 H   0  0  0  0  0  0  0  0  0  0  0  0
    4.7255    4.4143  -22.0817 H   0  0  0  0  0  0  0  0  0  0  0  0
    5.9348    0.2503  -18.7540 H   0  0  0  0  0  0  0  0  0  0  0  0
    3.6722    8.3322  -26.3048 H   0  0  0  0  0  0  0  0  0  0  0  0
    5.5794    1.1205  -23.0114 H   0  0  0  0  0  0  0  0  0  0  0  0
    5.1809   -5.2009  -19.2698 H   0  0  0  0  0  0  0  0  0  0  0  0
    5.3317   -4.3997  -17.6944 H   0  0  0  0  0  0  0  0  0  0  0  0
    3.7424   -4.9336  -18.2734 H   0  0  0  0  0  0  0  0  0  0  0  0
    6.2804    5.0116  -16.9973 H   0  0  0  0  0  0  0  0  0  0  0  0
    4.9828    3.9851  -16.3471 H   0  0  0  0  0  0  0  0  0  0  0  0
    6.6238    3.3349  -16.5170 H   0  0  0  0  0  0  0  0  0  0  0  0
    4.0117   -2.4730  -18.5189 H   0  0  0  0  0  0  0  0  0  0  0  0
    3.8461   -3.2696  -20.1121 H   0  0  0  0  0  0  0  0  0  0  0  0
    3.6634    3.0435  -20.8835 H   0  0  0  0  0  0  0  0  0  0  0  0
    3.2436    4.6304  -17.5755 H   0  0  0  0  0  0  0  0  0  0  0  0
    2.4151    4.2562  -19.0703 H   0  0  0  0  0  0  0  0  0  0  0  0
  1  3  1  0  0  0  0
  1  5  2  0  0  0  0
  2  4  2  0  0  0  0
  2  8  1  0  0  0  0
  3 10  2  0  0  0  0
  4 11  1  0  0  0  0
  5 12  1  0  0  0  0
  6 10  1  0  0  0  0
  6 12  2  0  0  0  0
  7 13  1  0  0  0  0
  7 14  2  0  0  0  0
  8 23  2  0  0  0  0
  9 13  2  0  0  0  0
  9 30  1  0  0  0  0
 10 11  1  0  0  0  0
 11 15  2  0  0  0  0
 12 19  1  0  0  0  0
 13 19  1  0  0  0  0
 14 18  1  0  0  0  0
 14 30  1  0  0  0  0
 15 23  1  0  0  0  0
 15 29  1  0  0  0  0
 16 19  1  0  0  0  0
 16 24  1  0  0  0  0
 16 27  2  0  0  0  0
 17 24  1  0  0  0  0
 17 25  2  0  0  0  0
 17 26  1  0  0  0  0
 18 22  1  0  0  0  0
 18 28  2  0  0  0  0
 19 25  1  0  0  0  0
 20 22  1  0  0  0  0
 21 24  1  0  0  0  0
  1 31  1  0  0  0  0
  2 32  1  0  0  0  0
  3 33  1  0  0  0  0
  4 34  1  0  0  0  0
  5 35  1  0  0  0  0
  6 36  1  0  0  0  0
  7 37  1  0  0  0  0
  8 38  1  0  0  0  0
  9 39  1  0  0  0  0
 20 40  1  0  0  0  0
 20 41  1  0  0  0  0
 20 42  1  0  0  0  0
 21 43  1  0  0  0  0
 21 44  1  0  0  0  0
 21 45  1  0  0  0  0
 22 46  1  0  0  0  0
 22 47  1  0  0  0  0
 25 48  1  0  0  0  0
 26 49  1  0  0  0  0
 26 50  1  0  0  0  0
M  CHG  1  25   1
M  END
> <OMEGA_C>
cRcFQVYwXEANX7nB+3KOQDAu/EBwysLByJzzQIMTjUDPFr/BFOKkQA263UD47rzBUGT3QD7ENEDd
h7DBune3QGqghEDMILPBrs+6QNzUkT0Fi57BgOKGQMTo80DYhM3B29O0QDEJFD8pobDBUELKQMVW
mEAV+LvB5t6yQBh4uEAj6MHB2AnOQMFKS0Akaa3BWp64QBkbjD/1dKbB3Zu4QJEnmL9V+aLBla6p
QCI4s0C7q8zBEX/QQBhONkAzL5nBhIKLQIyxaUDvyJfB+7a5QCM5HcBrvp3Bjym6QEZsIUA7DaTB
H1yWQDzwj8Dsp5TBZCe8QJqef0AGyIfB8tSPQPsbScBb6ZnBrPmTQG8V0ECYn9LB+OSxQL5SYkBW
j5LB9lSOQMF8REBq46HBRg9OQBG4h0BA6ZPBHFP1QIgzJUDTt5bBBGvcQBJJRMDMB5zBhMW2QISC
j0CGr9HBluqzQN0qkb+znbDByjEVQRCsSkAgzbvBSzyDQAi9DEGvFr/BhFkBQUAqnEBc9sXBsi+r
QNB440BFgLTB+JgEQceLBEBJHqzBqjeXQJRBjUBEp7DB9+m9QLAmgD4aCJbB0gRrQJBQBUFTcNLB
ioqyQMZtjz9MF7jBOcqlQMVtpsB2KJrB+ZyqQJrKjMAUjo3B7oNvQOTfncDTL5LB8fjIQNleoECR
+ofBE3OfQIwMf0DgxoLBc/bTQFduVUDCIoTB8l+AQN5EHsDCJpTBfCZ2QEBBUcCQ5aDBPnVqQG7J
QkBxEafBjJZPQDcslECVmozBEJEaQC8ziEDkj5jBsEsAQSYVLkA7u7bB6K9dQMXuqkBz9s3Bmq/q
QJ7wZEDan73BACCEQCsYj0CvG8fBE9XsQKLZEEDKaq3BeUWtQLpPYUAX5LHBtdXAQB6NIL56dprB
vPmAQJS90kBry8/B1zuYQPgSFT2w96nBzAfBQL6LfkCjNLvBP1WqQL62m0CnXMLBRi3DQMJ0KkCT
/6rBJOysQC/TOD/z7aHBRpi6QLaSvb8SFZ3Br865QNkvxEAPtsTBrXTDQAxPLEBCmJbBy8N8QMVx
YEBWkZbBWlDJQId5KcDyo5fBtEauQDBgC0CrIqHBiaYNQSzZE8A9vpfBbVCtQDojhEAyyYbBPrPz
QOgtKMDZJpHB0QmmQEUd4ED2U8vBaTCkQCsqX0DaApHBkEGCQPZQMEAx5p/B+Q4zQBf+hEDmopPB
lv7nQHlMHkDrm5PBQre0QMb5bsDG35fBt67eQOA70UAyP8DBNticQHCC1L9Jf6jBKIQQQZsqGkCf
nbjBZAMiQOvPoUDTwNHBUob6QL4ze0DC2sTBBBttQIVXX0AVjcXBJR/+QAk9zD+SFqjB6ceMQLwF
dUBH9a/BLOHSQIhKKj6fh5PB0U5jQGWf6UCXFNXBrJiGQKxv5D7wpbDB3+MPQfPYQsBrJZ7BKjMM
QbjoqL/2ZZvBgQ4cQalXFMBewZLBjjK6QBJMpEC1CIjBqRWQQK+WhkCMA4LBhLHEQMevYkAHSILB
x3LwQLSP779d3YrBcL/3QL5dZ8CGf43B9m1TQJy5KED4KaXBjA8zQH5plUBq1YzBdpQAQDHPgkCt
bZjBQIkFQZdPNEDfWLHBwZp9QOF3vED5lMjBzPL4QO5QbUB0pLjBzCyQQOTEn0B+RsHBcLnyQA4i
FUCX2KjBdyO2QPTxZ0Dt767B0yK9QJxSGb6gDZjB3iKaQH+s2UARX83B6qScQCgH8D3+pKjBmHzO
QAKQg0BQcLfB87a7QDMeoUDxAr/BPkPIQCTxLkBypKfB0EetQGGkQz982Z/BFAG4QAwBu7/WMJvB
4lLUQEyIv0ALOsTBfFe+QG+hK0CVZJPBkedzQMAaYUDfTpXBS6rDQEjRKcC1o5XBlICuQB7NDUDq
o57BaC12QKDzd8B19JPBsL2gQNX+gUAvCITBWeGpQKjifcAcM5fBBpjEQEXw20BKX8vB5a2cQEqr
XUC5n47Bx1GCQNJIM0AMo57BiBcoQKFOhUCjYZPBBA/hQJklHEB8WY/BMhbjQOoiLMBzS4/BTIH+
QEyPwUARNMLBhCmgQEz5yr8qfKfBIhIWQZ08IED5SLLBxOY5QLMJvEAJecrBCiwGQROKgkA5Or/B
scR2QAmHiEAma73BEosAQSt40T9HMqPBzP6UQIjNe0Af9K3BF6LLQFSODz7xh5DBfC6OQLu68EC5
IdPBW5COQD0BDz9ytq/BYcxvQELDZsCNf4vBR1lVQF44R8AXuZjB92dVQDiRmsCJLZXBZFauQL4q
okAUm4TBkF6BQPQhhEACMYDBlZK1QMHRXEBZ+n3BMZarQPiSh8CWrp/BxEy5QC7fl8DmZZLBpSlZ
QCqELUBxp6TBI3whQKHblEBvgIzB4o31P1X7g0BA8JjBQpL/QHyy0j9ALbPBtMJ6QC8HjUB0vs7B
lWbuQG5EHkCOErvB4+SNQEBtZEDg4sbBPlLoQEdisT/b4anB6ryuQDrZMUB1YbDBp7i9QIahLb/4
PJnB9DyUQICpsUCxRtHB+Jd8QL+x1b4luqLBAv3FQLmBQkD4rLnBvDO0QAReeUAO38HBqui/QODc
+T9GfKjBoOWgQEC4aj49RZ7B6QiwQH7+/b/JCprB5pvIQKMIokAv+sTBKOe7QE5UEEDyP5TB/pR0
QGaLUkDRApbBCNzDQHzZSsCGD5bB4E2nQDJU1j82pJ7B9BW1QFiOb8AtPoLBvbOnQD6XfUBxFYbB
UW2sQHirgsCj5Y3BBI65QPfgvECZk8zBZomeQKgOTkCm3I/Bl996QIUWGkDUmZ7BctsuQLj6gkCi
OpTBYLreQACd+j8Yg5DBoOHoQPVPYcDZ+ZjBBrTtQEDyrEBZRsDBrqGAQCosB8CW1qDB4YUPQfRM
mj/3Q7TBsSE/QIKKhUAow9LB73UAQZCqKkANRsLBmB95QHSHKkDgw8TB7O31QJaNPT+uxKPBQTGP
QHflTUD1Pa/B+gvbQPyCxr6oPpXBWr6IQHufx0CJWtfBnGBHQGA5ozw6AqfBmUPXQO5VdMAWZoDB
kqOqQG0uLsDpfIDBE++jQIiUjcDYxnnBAF64QKitnECW7YfBGvOJQGxhhkC04oHBo9G7QKVdV0AI
wYDBwP+JQI7Ff8BcY4/BLLO2QMilo8B+YI/BcpVLQGs+E0CgIaTB3J8vQNollkB15I3B9q78P+lt
gUCzV5nB

> <OMEGA_E>
iogOwVIYJ8HYHg7BoH8FwQ==

> <OMEGA_NBR>
     64887

$$$$
50176723
  -OEChem-04172616093D

 50 53  0     1  0  0  0  0  0999 V2000
    8.3182    3.4405  -23.1714 C   0  0  0  0  0  0  0  0  0  0  0  0
    4.4515    7.8806  -24.3488 C   0  0  0  0  0  0  0  0  0  0  0  0
    7.6129    4.4086  -23.8861 C   0  0  0  0  0  0  0  0  0  0  0  0
    5.1526    6.9290  -23.6167 C   0  0  0  0  0  0  0  0  0  0  0  0
    7.7310    2.8245  -22.0663 C   0  0  0  0  0  0  0  0  0  0  0  0
    5.7334    4.1446  -22.3910 C   0  0  0  0  0  0  0  0  0  0  0  0
    5.8379    0.0712  -19.8179 C   0  0  0  0  0  0  0  0  0  0  0  0
    4.2151    7.6222  -25.6899 C   0  0  0  0  0  0  0  0  0  0  0  0
    5.6509    0.5783  -22.0787 C   0  0  0  0  0  0  0  0  0  0  0  0
    6.3206    4.7606  -23.4961 C   0  0  0  0  0  0  0  0  0  0  0  0
    5.5897    5.7647  -24.2383 C   0  0  0  0  0  0  0  0  0  0  0  0
    6.4387    3.1764  -21.6763 C   0  0  0  0  0  0  0  0  0  0  0  0
    5.7693    1.0946  -20.8071 C   0  0  0  0  0  0  0  0  0  0  0  0
    5.7690   -1.1887  -20.3717 C   0  0  0  0  0  0  0  0  0  0  0  0
    5.3026    5.6006  -25.5839 C   0  0  0  0  0  0  0  0  0  0  0  0
    6.5155    2.8485  -19.1480 C   0  0  0  0  0  0  0  0  0  0  0  0
    4.3597    3.6515  -18.9731 C   0  0  0  0  0  0  0  0  0  0  0  0
    5.8036   -2.4566  -19.7180 C   0  0  0  0  0  0  0  0  0  0  0  0
    5.8176    2.5222  -20.5065 C   0  0  1  0  0  0  0  0  0  0  0  0
    4.6987   -4.4981  -18.5820 C   0  0  0  0  0  0  0  0  0  0  0  0
    5.8798    3.9941  -16.9727 C   0  0  0  0  0  0  0  0  0  0  0  0
    4.4947   -3.1423  -19.2389 C   0  0  0  0  0  0  0  0  0  0  0  0
    4.6242    6.5026  -26.3279 N   0  0  0  0  0  0  0  0  0  0  0  0
    5.5592    3.5363  -18.3200 N   0  0  0  0  0  0  0  0  0  0  0  0
    4.4479    3.0701  -20.2360 N   0  3  0  0  0  0  0  0  0  0  0  0
    3.2197    4.2412  -18.4889 N   0  0  0  0  0  0  0  0  0  0  0  0
    7.6664    2.5813  -18.8398 O   0  0  0  0  0  0  0  0  0  0  0  0
    6.8881   -3.0670  -19.5038 O   0  0  0  0  0  0  0  0  0  0  0  0
    5.7116    4.4847  -26.2107 F   0  0  0  0  0  0  0  0  0  0  0  0
    5.6224   -1.1341  -22.0770 S   0  0  0  0  0  0  0  0  0  0  0  0
    9.3247    3.1668  -23.4752 H   0  0  0  0  0  0  0  0  0  0  0  0
    4.1011    8.7962  -23.8861 H   0  0  0  0  0  0  0  0  0  0  0  0
    8.0844    4.8802  -24.7453 H   0  0  0  0  0  0  0  0  0  0  0  0
    5.3496    7.1085  -22.5626 H   0  0  0  0  0  0  0  0  0  0  0  0
    8.2873    2.0710  -21.5148 H   0  0  0  0  0  0  0  0  0  0  0  0
    4.7255    4.4143  -22.0817 H   0  0  0  0  0  0  0  0  0  0  0  0
    5.9348    0.2503  -18.7540 H   0  0  0  0  0  0  0  0  0  0  0  0
    3.6722    8.3322  -26.3048 H   0  0  0  0  0  0  0  0  0  0  0  0
    5.5794    1.1205  -23.0114 H   0  0  0  0  0  0  0  0  0  0  0  0
    5.1809   -5.2009  -19.2698 H   0  0  0  0  0  0  0  0  0  0  0  0
    5.3317   -4.3997  -17.6944 H   0  0  0  0  0  0  0  0  0  0  0  0
    3.7424   -4.9336  -18.2734 H   0  0  0  0  0  0  0  0  0  0  0  0
    6.2804    5.0116  -16.9973 H   0  0  0  0  0  0  0  0  0  0  0  0
    4.9828    3.9851  -16.3471 H   0  0  0  0  0  0  0  0  0  0  0  0
    6.6238    3.3349  -16.5170 H   0  0  0  0  0  0  0  0  0  0  0  0
    4.0117   -2.4730  -18.5189 H   0  0  0  0  0  0  0  0  0  0  0  0
    3.8461   -3.2696  -20.1121 H   0  0  0  0  0  0  0  0  0  0  0  0
    3.6634    3.0435  -20.8835 H   0  0  0  0  0  0  0  0  0  0  0  0
    3.2436    4.6304  -17.5755 H   0  0  0  0  0  0  0  0  0  0  0  0
    2.4151    4.2562  -19.0703 H   0  0  0  0  0  0  0  0  0  0  0  0
  1  3  1  0  0  0  0
  1  5  2  0  0  0  0
  2  4  2  0  0  0  0
  2  8  1  0  0  0  0
  3 10  2  0  0  0  0
  4 11  1  0  0  0  0
  5 12  1  0  0  0  0
  6 10  1  0  0  0  0
  6 12  2  0  0  0  0
  7 13  1  0  0  0  0
  7 14  2  0  0  0  0
  8 23  2  0  0  0  0
  9 13  2  0  0  0  0
  9 30  1  0  0  0  0
 10 11  1  0  0  0  0
 11 15  2  0  0  0  0
 12 19  1  0  0  0  0
 13 19  1  0  0  0  0
 14 18  1  0  0  0  0
 14 30  1  0  0  0  0
 15 23  1  0  0  0  0
 15 29  1  0  0  0  0
 16 19  1  0  0  0  0
 16 24  1  0  0  0  0
 16 27  2  0  0  0  0
 17 24  1  0  0  0  0
 17 25  2  0  0  0  0
 17 26  1  0  0  0  0
 18 22  1  0  0  0  0
 18 28  2  0  0  0  0
 19 25  1  0  0  0  0
 20 22  1  0  0  0  0
 21 24  1  0  0  0  0
  1 31  1  0  0  0  0
  2 32  1  0  0  0  0
  3 33  1  0  0  0  0
  4 34  1  0  0  0  0
  5 35  1  0  0  0  0
  6 36  1  0  0  0  0
  7 37  1  0  0  0  0
  8 38  1  0  0  0  0
  9 39  1  0  0  0  0
 20 40  1  0  0  0  0
 20 41  1  0  0  0  0
 20 42  1  0  0  0  0
 21 43  1  0  0  0  0
 21 44  1  0  0  0  0
 21 45  1  0  0  0  0
 22 46  1  0  0  0  0
 22 47  1  0  0  0  0
 25 48  1  0  0  0  0
 26 49  1  0  0  0  0
 26 50  1  0  0  0  0
M  CHG  1  25   1
M  END
> <OMEGA_C>
cRcFQVYwXEANX7nB+3KOQDAu/EBwysLByJzzQIMTjUDPFr/BFOKkQA263UD47rzBUGT3QD7ENEDd
h7DBune3QGqghEDMILPBrs+6QNzUkT0Fi57BgOKGQMTo80DYhM3B29O0QDEJFD8pobDBUELKQMVW
mEAV+LvB5t6yQBh4uEAj6MHB2AnOQMFKS0Akaa3BWp64QBkbjD/1dKbB3Zu4QJEnmL9V+aLBla6p
QCI4s0C7q8zBEX/QQBhONkAzL5nBhIKLQIyxaUDvyJfB+7a5QCM5HcBrvp3Bjym6QEZsIUA7DaTB
H1yWQDzwj8Dsp5TBZCe8QJqef0AGyIfB8tSPQPsbScBb6ZnBrPmTQG8V0ECYn9LB+OSxQL5SYkBW
j5LB9lSOQMF8REBq46HBRg9OQBG4h0BA6ZPBHFP1QIgzJUDTt5bBBGvcQBJJRMDMB5zBhMW2QISC
j0CGr9HBluqzQN0qkb+znbDByjEVQRCsSkAgzbvBSzyDQAi9DEGvFr/BhFkBQUAqnEBc9sXBsi+r
QNB440BFgLTB+JgEQceLBEBJHqzBqjeXQJRBjUBEp7DB9+m9QLAmgD4aCJbB0gRrQJBQBUFTcNLB
ioqyQMZtjz9MF7jBOcqlQMVtpsB2KJrB+ZyqQJrKjMAUjo3B7oNvQOTfncDTL5LB8fjIQNleoECR
+ofBE3OfQIwMf0DgxoLBc/bTQFduVUDCIoTB8l+AQN5EHsDCJpTBfCZ2QEBBUcCQ5aDBPnVqQG7J
QkBxEafBjJZPQDcslECVmozBEJEaQC8ziEDkj5jBsEsAQSYVLkA7u7bB6K9dQMXuqkBz9s3Bmq/q
QJ7wZEDan73BACCEQCsYj0CvG8fBE9XsQKLZEEDKaq3BeUWtQLpPYUAX5LHBtdXAQB6NIL56dprB
vPmAQJS90kBry8/B1zuYQPgSFT2w96nBzAfBQL6LfkCjNLvBP1WqQL62m0CnXMLBRi3DQMJ0KkCT
/6rBJOysQC/TOD/z7aHBRpi6QLaSvb8SFZ3Br865QNkvxEAPtsTBrXTDQAxPLEBCmJbBy8N8QMVx
YEBWkZbBWlDJQId5KcDyo5fBtEauQDBgC0CrIqHBiaYNQSzZE8A9vpfBbVCtQDojhEAyyYbBPrPz
QOgtKMDZJpHB0QmmQEUd4ED2U8vBaTCkQCsqX0DaApHBkEGCQPZQMEAx5p/B+Q4zQBf+hEDmopPB
lv7nQHlMHkDrm5PBQre0QMb5bsDG35fBt67eQOA70UAyP8DBNticQHCC1L9Jf6jBKIQQQZsqGkCf
nbjBZAMiQOvPoUDTwNHBUob6QL4ze0DC2sTBBBttQIVXX0AVjcXBJR/+QAk9zD+SFqjB6ceMQLwF
dUBH9a/BLOHSQIhKKj6fh5PB0U5jQGWf6UCXFNXBrJiGQKxv5D7wpbDB3+MPQfPYQsBrJZ7BKjMM
QbjoqL/2ZZvBgQ4cQalXFMBewZLBjjK6QBJMpEC1CIjBqRWQQK+WhkCMA4LBhLHEQMevYkAHSILB
x3LwQLSP779d3YrBcL/3QL5dZ8CGf43B9m1TQJy5KED4KaXBjA8zQH5plUBq1YzBdpQAQDHPgkCt
bZjBQIkFQZdPNEDfWLHBwZp9QOF3vED5lMjBzPL4QO5QbUB0pLjBzCyQQOTEn0B+RsHBcLnyQA4i
FUCX2KjBdyO2QPTxZ0Dt767B0yK9QJxSGb6gDZjB3iKaQH+s2UARX83B6qScQCgH8D3+pKjBmHzO
QAKQg0BQcLfB87a7QDMeoUDxAr/BPkPIQCTxLkBypKfB0EetQGGkQz982Z/BFAG4QAwBu7/WMJvB
4lLUQEyIv0ALOsTBfFe+QG+hK0CVZJPBkedzQMAaYUDfTpXBS6rDQEjRKcC1o5XBlICuQB7NDUDq
o57BaC12QKDzd8B19JPBsL2gQNX+gUAvCITBWeGpQKjifcAcM5fBBpjEQEXw20BKX8vB5a2cQEqr
XUC5n47Bx1GCQNJIM0AMo57BiBcoQKFOhUCjYZPBBA/hQJklHEB8WY/BMhbjQOoiLMBzS4/BTIH+
QEyPwUARNMLBhCmgQEz5yr8qfKfBIhIWQZ08IED5SLLBxOY5QLMJvEAJecrBCiwGQROKgkA5Or/B
scR2QAmHiEAma73BEosAQSt40T9HMqPBzP6UQIjNe0Af9K3BF6LLQFSODz7xh5DBfC6OQLu68EC5
IdPBW5COQD0BDz9ytq/BYcxvQELDZsCNf4vBR1lVQF44R8AXuZjB92dVQDiRmsCJLZXBZFauQL4q
okAUm4TBkF6BQPQhhEACMYDBlZK1QMHRXEBZ+n3BMZarQPiSh8CWrp/BxEy5QC7fl8DmZZLBpSlZ
QCqELUBxp6TBI3whQKHblEBvgIzB4o31P1X7g0BA8JjBQpL/QHyy0j9ALbPBtMJ6QC8HjUB0vs7B
lWbuQG5EHkCOErvB4+SNQEBtZEDg4sbBPlLoQEdisT/b4anB6ryuQDrZMUB1YbDBp7i9QIahLb/4
PJnB9DyUQICpsUCxRtHB+Jd8QL+x1b4luqLBAv3FQLmBQkD4rLnBvDO0QAReeUAO38HBqui/QODc
+T9GfKjBoOWgQEC4aj49RZ7B6QiwQH7+/b/JCprB5pvIQKMIokAv+sTBKOe7QE5UEEDyP5TB/pR0
QGaLUkDRApbBCNzDQHzZSsCGD5bB4E2nQDJU1j82pJ7B9BW1QFiOb8AtPoLBvbOnQD6XfUBxFYbB
UW2sQHirgsCj5Y3BBI65QPfgvECZk8zBZomeQKgOTkCm3I/Bl996QIUWGkDUmZ7BctsuQLj6gkCi
OpTBYLreQACd+j8Yg5DBoOHoQPVPYcDZ+ZjBBrTtQEDyrEBZRsDBrqGAQCosB8CW1qDB4YUPQfRM
mj/3Q7TBsSE/QIKKhUAow9LB73UAQZCqKkANRsLBmB95QHSHKkDgw8TB7O31QJaNPT+uxKPBQTGP
QHflTUD1Pa/B+gvbQPyCxr6oPpXBWr6IQHufx0CJWtfBnGBHQGA5ozw6AqfBmUPXQO5VdMAWZoDB
kqOqQG0uLsDpfIDBE++jQIiUjcDYxnnBAF64QKitnECW7YfBGvOJQGxhhkC04oHBo9G7QKVdV0AI
wYDBwP+JQI7Ff8BcY4/BLLO2QMilo8B+YI/BcpVLQGs+E0CgIaTB3J8vQNollkB15I3B9q78P+lt
gUCzV5nB

> <OMEGA_E>
iogOwVIYJ8HYHg7BoH8FwQ==

> <OMEGA_NBR>
     68571

$$$$
50176664
  -OEChem-04172616093D

 55 59  0     1  0  0  0  0  0999 V2000
    6.2157   -0.4650  -22.9691 C   0  0  0  0  0  0  0  0  0  0  0  0
    3.5724   -2.9910  -18.0779 C   0  0  0  0  0  0  0  0  0  0  0  0
    5.8760   -1.4789  -22.0566 C   0  0  0  0  0  0  0  0  0  0  0  0
    3.8136   -2.0995  -19.1299 C   0  0  0  0  0  0  0  0  0  0  0  0
    6.0947    0.8844  -22.5930 C   0  0  0  0  0  0  0  0  0  0  0  0
    5.2408    0.2079  -20.4153 C   0  0  0  0  0  0  0  0  0  0  0  0
    4.5883   -3.8903  -17.6954 C   0  0  0  0  0  0  0  0  0  0  0  0
    7.2706    4.0776  -22.2018 C   0  0  0  0  0  0  0  0  0  0  0  0
    5.0679    4.0278  -22.8309 C   0  0  0  0  0  0  0  0  0  0  0  0
    5.3822   -1.1335  -20.7808 C   0  0  0  0  0  0  0  0  0  0  0  0
    5.0625   -2.1423  -19.7775 C   0  0  0  0  0  0  0  0  0  0  0  0
    5.6200    1.2264  -21.2944 C   0  0  0  0  0  0  0  0  0  0  0  0
    5.9072    3.6167  -21.8523 C   0  0  0  0  0  0  0  0  0  0  0  0
    6.0429   -3.0644  -19.3439 C   0  0  0  0  0  0  0  0  0  0  0  0
    6.2606    2.9255  -19.5410 C   0  0  0  0  0  0  0  0  0  0  0  0
    4.0605    3.4942  -19.2361 C   0  0  0  0  0  0  0  0  0  0  0  0
    4.8936    7.5358  -25.5983 C   0  0  0  0  0  0  0  0  0  0  0  0
    3.6688    6.6622  -25.8642 C   0  0  0  0  0  0  0  0  0  0  0  0
    6.0434    6.5483  -25.3602 C   0  0  0  0  0  0  0  0  0  0  0  0
    3.8552    5.5119  -24.8997 C   0  0  0  0  0  0  0  0  0  0  0  0
    5.3748    5.2109  -24.9646 C   0  0  0  0  0  0  0  0  0  0  0  0
    5.4854    2.6577  -20.8017 C   0  0  2  0  0  0  0  0  0  0  0  0
    5.6626    3.9507  -17.3256 C   0  0  0  0  0  0  0  0  0  0  0  0
    5.7913   -3.9146  -18.3209 N   0  0  0  0  0  0  0  0  0  0  0  0
    7.1973    4.7316  -23.3352 N   0  0  0  0  0  0  0  0  0  0  0  0
    5.8819    4.7071  -23.6814 N   0  0  0  0  0  0  0  0  0  0  0  0
    5.3604    3.5635  -18.7058 N   0  0  0  0  0  0  0  0  0  0  0  0
    4.0901    2.9196  -20.4147 N   0  3  0  0  0  0  0  0  0  0  0  0
    2.9045    3.9607  -18.6286 N   0  0  0  0  0  0  0  0  0  0  0  0
    7.4531    2.7197  -19.3441 O   0  0  0  0  0  0  0  0  0  0  0  0
    7.2812   -3.0524  -19.8954 F   0  0  0  0  0  0  0  0  0  0  0  0
    6.5688   -0.7220  -23.9568 H   0  0  0  0  0  0  0  0  0  0  0  0
    2.6211   -2.9898  -17.5665 H   0  0  0  0  0  0  0  0  0  0  0  0
    5.9924   -2.5171  -22.3307 H   0  0  0  0  0  0  0  0  0  0  0  0
    3.0569   -1.3932  -19.4381 H   0  0  0  0  0  0  0  0  0  0  0  0
    6.3625    1.6639  -23.2909 H   0  0  0  0  0  0  0  0  0  0  0  0
    4.8355    0.4596  -19.4463 H   0  0  0  0  0  0  0  0  0  0  0  0
    4.4038   -4.5779  -16.8832 H   0  0  0  0  0  0  0  0  0  0  0  0
    8.1670    3.9052  -21.6246 H   0  0  0  0  0  0  0  0  0  0  0  0
    4.0049    3.8570  -22.9158 H   0  0  0  0  0  0  0  0  0  0  0  0
    5.1076    8.1759  -26.4670 H   0  0  0  0  0  0  0  0  0  0  0  0
    4.7342    8.1647  -24.7100 H   0  0  0  0  0  0  0  0  0  0  0  0
    2.7388    7.2098  -25.6514 H   0  0  0  0  0  0  0  0  0  0  0  0
    3.6550    6.3069  -26.9052 H   0  0  0  0  0  0  0  0  0  0  0  0
    6.6370    6.4230  -26.2778 H   0  0  0  0  0  0  0  0  0  0  0  0
    6.6939    6.9062  -24.5486 H   0  0  0  0  0  0  0  0  0  0  0  0
    3.5574    5.8031  -23.8816 H   0  0  0  0  0  0  0  0  0  0  0  0
    3.2693    4.6367  -25.2169 H   0  0  0  0  0  0  0  0  0  0  0  0
    5.5581    4.4714  -25.7580 H   0  0  0  0  0  0  0  0  0  0  0  0
    4.7834    4.4397  -16.8806 H   0  0  0  0  0  0  0  0  0  0  0  0
    5.9186    3.0547  -16.7413 H   0  0  0  0  0  0  0  0  0  0  0  0
    6.5129    4.6485  -17.3185 H   0  0  0  0  0  0  0  0  0  0  0  0
    3.2870    2.6939  -20.9661 H   0  0  0  0  0  0  0  0  0  0  0  0
    2.0234    3.8678  -19.0924 H   0  0  0  0  0  0  0  0  0  0  0  0
    2.9519    4.3900  -17.7267 H   0  0  0  0  0  0  0  0  0  0  0  0
  1  3  1  0  0  0  0
  1  5  2  0  0  0  0
  2  4  2  0  0  0  0
  2  7  1  0  0  0  0
  3 10  2  0  0  0  0
  4 11  1  0  0  0  0
  5 12  1  0  0  0  0
  6 10  1  0  0  0  0
  6 12  2  0  0  0  0
  7 24  2  0  0  0  0
  8 13  1  0  0  0  0
  8 25  2  0  0  0  0
  9 13  2  0  0  0  0
  9 26  1  0  0  0  0
 10 11  1  0  0  0  0
 11 14  2  0  0  0  0
 12 22  1  0  0  0  0
 13 22  1  0  0  0  0
 14 24  1  0  0  0  0
 14 31  1  0  0  0  0
 15 22  1  0  0  0  0
 15 27  1  0  0  0  0
 15 30  2  0  0  0  0
 16 27  1  0  0  0  0
 16 28  2  0  0  0  0
 16 29  1  0  0  0  0
 17 18  1  0  0  0  0
 17 19  1  0  0  0  0
 18 20  1  0  0  0  0
 19 21  1  0  0  0  0
 20 21  1  0  0  0  0
 21 26  1  0  0  0  0
 22 28  1  0  0  0  0
 23 27  1  0  0  0  0
 25 26  1  0  0  0  0
  1 32  1  0  0  0  0
  2 33  1  0  0  0  0
  3 34  1  0  0  0  0
  4 35  1  0  0  0  0
  5 36  1  0  0  0  0
  6 37  1  0  0  0  0
  7 38  1  0  0  0  0
  8 39  1  0  0  0  0
  9 40  1  0  0  0  0
 17 41  1  0  0  0  0
 17 42  1  0  0  0  0
 18 43  1  0  0  0  0
 18 44  1  0  0  0  0
 19 45  1  0  0  0  0
 19 46  1  0  0  0  0
 20 47  1  0  0  0  0
 20 48  1  0  0  0  0
 21 49  1  0  0  0  0
 23 50  1  0  0  0  0
 23 51  1  0  0  0  0
 23 52  1  0  0  0  0
 28 53  1  0  0  0  0
 29 54  1  0  0  0  0
 29 55  1  0  0  0  0
M  CHG  1  28   1
M  END
> <OMEGA_C>
/+bGQB0Y7r6lwLfBtKFkQGFsP8CVn5DBLwi8QCFOvb/ac7DBDhJ0QG9dBsDwCZnBtwfDQDhoYj9i
vrTBkbSnQF7tVD57UqPBWtOSQCv7eMA+kI3B36joQK97gkBTnbHBcCyiQNHjgECZpbbB2zqsQGcX
kb8rP6bBDwCiQKgbCcBdOJ7BVNezQP35nD/tWqrBZge9QI93Z0Bz0a7BL1/BQF4eRMBdwJrBxlbI
QLo6O0DtU5zBuu+BQFehX0Cf45nBjJicQJ0l8UBdyczBKs1qQJAw1UDu6c7BRWPBQGSL0UDF4crB
XLx2QI9hsECNMsfBaP6rQNm/pkBrt8fBUoivQMcXKkDraabBojO1QJLYfEDjmorBf1K5QCOIesA5
kZLBa1DmQJ9pl0B4rrrBxzi8QHCglkBrc73BsIirQCIRZEBlpZXB7uGCQB/bOkBBUaPByeI5QDp8
fUBWB5XBnn/uQJsPLkDCwJrBWf/oQDFaQ8DUKZ/B/jPSQBLTOL+Tp7/BycAnQFRZP8AriIzB8cG/
QNwXIcAtpbLBhaRDQJxUsr9SgZvBa5nLQAj71D+sU7rBeLyaQM1N6z4ekpvBwuuMQMN9ksDcEIfB
EqwCQU3ueUA//6zBQSiAQJLYdkCiU7fB0nGjQFLQAkFhvNPBj36XQHqiAkEHrsXBAEkvQLu25kD7
Nc3B1utpQIHSyUDXPdfBMWLUQIqJzUD0ONLBlDTWQHT/3ECiY8TBdqxjQNeyuUCBDb/B+jxRQHdf
lEBIvMnBwduxQIwVj0BREM7BthGZQLIRjkB6C4fBZGW9QGd/Q0AY7oXBdmnQQInAlEA6jIrBv11S
QHdpLECZuqfBu38BQBmKd0A8vZjB6Os8QMl6jEAy0I3BNEzHQNlpAr+PXLfBsIViQCRWO8As34/B
lXa8QHg1wL/02a/BdCl0QM6DAcDQJJjBGSnDQBjfWT+urLTBu7GnQErBZj44IqPBmC2QQPBJecDp
Jo3BJzzoQJhXhUCrj7HBDpCiQPtTgkBoMbfBnHasQKZkkL94uKXBc4ihQBK9B8AUi53BjbGzQAm3
nD+baarBatq8QErcaECPRq/BXF6/QJj1RsDxW5rBdLHIQFr6O0CxvZzB2SOCQNwTXUDM+ZnBnLRS
QD73jEB8a87BmPaJQKaMckA5GNbByYKBQN/BskDbeMnBXWu0QDRud0CMA9DB/sKwQC/no0CqyMjB
Z4CvQInrKkCfyabB3Oi1QHy6eECQvYrBAT+2QEAdfsCGUZLB7Y/mQCNSm0D8fLrBY1+9QMyPmECQ
z73BfuWrQBZYYkDK2JXBfQODQC/MO0D5m6PBMCM6QNIGd0Dj0JTBQsjuQOapLUAsNJvBl6vmQOcg
SsCl7J7Bd8rSQDfJSr+MML/BEVomQOB8OMB7oovBU2DAQH3tIsDo1LHBJCFGQN0Yor/fV5rB87/L
QK5Uzj/zarrBQaKaQNvcAD8nc5vBuV+JQEEGk8C0yobB4zECQWVngEB+tKzBb5SAQM4lekCkDrjB
i5wZQCoDmEDWw9LBupo/QI+ga0B4PMjBXaeBQDy0L0DI6dfBhKaLQPe5i0Cpk93BpmV9QCFIz0CJ
lM7BO+hpQLMDukAsdMHBXBK5QPKrPUBuHsvBzE3PQHU7fkBWodXBSa7FQFs/vUDn78vBqLuZQL8t
i0As/IbBH7a+QM6DPkDTTobBJNDQQCYOk0Adl4rBlolSQDe5L0BQHajBcXgBQEPTcEDcc5jBslQ9
QLr4h0A9dY3B

> <OMEGA_E>
7MYIP9QoBD8=

> <OMEGA_NBR>
     70708

$$$$
50168738
  -OEChem-04172616093D

 50 52  0     1  0  0  0  0  0999 V2000
    7.0903   -0.0403  -22.7026 C   0  0  0  0  0  0  0  0  0  0  0  0
    6.4555   -1.1053  -22.0461 C   0  0  0  0  0  0  0  0  0  0  0  0
    6.7941    1.2828  -22.3458 C   0  0  0  0  0  0  0  0  0  0  0  0
    4.8710    4.0641  -23.1577 C   0  0  0  0  0  0  0  0  0  0  0  0
    6.9929    4.7554  -22.1737 C   0  0  0  0  0  0  0  0  0  0  0  0
    5.1111    4.9015  -24.2620 C   0  0  0  0  0  0  0  0  0  0  0  0
    7.2311    5.5900  -23.2766 C   0  0  0  0  0  0  0  0  0  0  0  0
    5.2194    0.4757  -20.6566 C   0  0  0  0  0  0  0  0  0  0  0  0
    5.5323   -0.8626  -21.0095 C   0  0  0  0  0  0  0  0  0  0  0  0
    5.7987    3.9955  -22.0908 C   0  0  0  0  0  0  0  0  0  0  0  0
    5.8301    1.5602  -21.3453 C   0  0  0  0  0  0  0  0  0  0  0  0
    6.2928    5.6836  -24.3190 C   0  0  0  0  0  0  0  0  0  0  0  0
    6.3339    3.3482  -19.6764 C   0  0  0  0  0  0  0  0  0  0  0  0
    4.1006    3.5779  -19.2472 C   0  0  0  0  0  0  0  0  0  0  0  0
    4.9565   -2.0431  -20.3227 C   0  0  0  0  0  0  0  0  0  0  0  0
    4.3255   -1.9977  -19.1008 C   0  0  0  0  0  0  0  0  0  0  0  0
    5.5456    3.0129  -20.9327 C   0  0  1  0  0  0  0  0  0  0  0  0
    5.7015    4.0388  -17.3441 C   0  0  0  0  0  0  0  0  0  0  0  0
    3.9339   -3.3001  -18.4252 C   0  0  0  0  0  0  0  0  0  0  0  0
    3.0349   -3.0430  -17.2075 C   0  0  0  0  0  0  0  0  0  0  0  0
    5.4667    7.0415  -26.1188 C   0  0  0  0  0  0  0  0  0  0  0  0
    5.3981    3.7966  -18.7605 N   0  0  0  0  0  0  0  0  0  0  0  0
    4.1493    3.1777  -20.4961 N   0  3  0  0  0  0  0  0  0  0  0  0
    2.9260    3.7456  -18.5290 N   0  0  0  0  0  0  0  0  0  0  0  0
    7.5289    3.1603  -19.4720 O   0  0  0  0  0  0  0  0  0  0  0  0
    6.5872    6.5443  -25.3607 O   0  0  0  0  0  0  0  0  0  0  0  0
    3.6752   -2.2501  -16.3062 F   0  0  0  0  0  0  0  0  0  0  0  0
    5.7185    8.3299  -26.4552 F   0  0  0  0  0  0  0  0  0  0  0  0
    5.3117    6.3017  -27.2478 F   0  0  0  0  0  0  0  0  0  0  0  0
    7.8084   -0.2400  -23.4842 H   0  0  0  0  0  0  0  0  0  0  0  0
    6.6766   -2.1213  -22.3380 H   0  0  0  0  0  0  0  0  0  0  0  0
    7.3050    2.0974  -22.8377 H   0  0  0  0  0  0  0  0  0  0  0  0
    3.9710    3.4682  -23.1235 H   0  0  0  0  0  0  0  0  0  0  0  0
    7.7248    4.6915  -21.3821 H   0  0  0  0  0  0  0  0  0  0  0  0
    4.3940    4.9490  -25.0682 H   0  0  0  0  0  0  0  0  0  0  0  0
    8.1436    6.1656  -23.3248 H   0  0  0  0  0  0  0  0  0  0  0  0
    4.5148    0.6717  -19.8620 H   0  0  0  0  0  0  0  0  0  0  0  0
    5.0374   -3.0017  -20.8136 H   0  0  0  0  0  0  0  0  0  0  0  0
    4.1120   -1.0499  -18.6291 H   0  0  0  0  0  0  0  0  0  0  0  0
    4.7949    4.3891  -16.8291 H   0  0  0  0  0  0  0  0  0  0  0  0
    6.0497    3.1048  -16.8790 H   0  0  0  0  0  0  0  0  0  0  0  0
    6.4877    4.8039  -17.2634 H   0  0  0  0  0  0  0  0  0  0  0  0
    3.3912   -3.9295  -19.1458 H   0  0  0  0  0  0  0  0  0  0  0  0
    4.8445   -3.8219  -18.0957 H   0  0  0  0  0  0  0  0  0  0  0  0
    2.1113   -2.5448  -17.5372 H   0  0  0  0  0  0  0  0  0  0  0  0
    2.7843   -4.0030  -16.7325 H   0  0  0  0  0  0  0  0  0  0  0  0
    4.5603    6.9809  -25.4984 H   0  0  0  0  0  0  0  0  0  0  0  0
    3.3490    3.0083  -21.0713 H   0  0  0  0  0  0  0  0  0  0  0  0
    2.0442    3.5581  -18.9618 H   0  0  0  0  0  0  0  0  0  0  0  0
    2.9609    4.0541  -17.5784 H   0  0  0  0  0  0  0  0  0  0  0  0
  1  2  1  0  0  0  0
  1  3  2  0  0  0  0
  2  9  2  0  0  0  0
  3 11  1  0  0  0  0
  4  6  2  0  0  0  0
  4 10  1  0  0  0  0
  5  7  1  0  0  0  0
  5 10  2  0  0  0  0
  6 12  1  0  0  0  0
  7 12  2  0  0  0  0
  8  9  1  0  0  0  0
  8 11  2  0  0  0  0
  9 15  1  0  0  0  0
 10 17  1  0  0  0  0
 11 17  1  0  0  0  0
 12 26  1  0  0  0  0
 13 17  1  0  0  0  0
 13 22  1  0  0  0  0
 13 25  2  0  0  0  0
 14 22  1  0  0  0  0
 14 23  2  0  0  0  0
 14 24  1  0  0  0  0
 15 16  2  0  0  0  0
 16 19  1  0  0  0  0
 17 23  1  0  0  0  0
 18 22  1  0  0  0  0
 19 20  1  0  0  0  0
 20 27  1  0  0  0  0
 21 26  1  0  0  0  0
 21 28  1  0  0  0  0
 21 29  1  0  0  0  0
  1 30  1  0  0  0  0
  2 31  1  0  0  0  0
  3 32  1  0  0  0  0
  4 33  1  0  0  0  0
  5 34  1  0  0  0  0
  6 35  1  0  0  0  0
  7 36  1  0  0  0  0
  8 37  1  0  0  0  0
 15 38  1  0  0  0  0
 16 39  1  0  0  0  0
 18 40  1  0  0  0  0
 18 41  1  0  0  0  0
 18 42  1  0  0  0  0
 19 43  1  0  0  0  0
 19 44  1  0  0  0  0
 20 45  1  0  0  0  0
 20 46  1  0  0  0  0
 21 47  1  0  0  0  0
 23 48  1  0  0  0  0
 24 49  1  0  0  0  0
 24 50  1  0  0  0  0
M  CHG  1  23   1
M  END
> <OMEGA_C>
HeTiQOAIJb0Gn7XBoZPOQCR7jb9fXrDBK2nZQAk0pD8sxLLBdd+bQNsMgkDkQrnB2cXfQFAsmEDN
Y7HBu42jQO7YnECCGMLB12TnQC/hskBsNrrBdQWnQPCO8z7NQKXBuwixQGzSXL+BE6jBG4+5QLS1
f0DtubDBBpC6QLG1xz8rw6rBQl7JQF/gtUBYjcLBV6/KQC5IVkAraZ3BOTiDQPP7ZEBe+pnBVJue
QMLBAsD2lKLBy2qKQBK0/79gzpjBmnWxQKrSQEA+dqfBAHO2QDU+gUDRwIrBxMR7QJA1U8DLZpPB
hTxCQJPAQsD0qInBAe+uQF1U4UBL89DBIr2sQDb8ckCCFZbBr8aEQOxfS0Dy96PBc0M7QKK4b0Bx
O5TBxezwQM9CSkCkxpvBD8rSQOZq0UCp4srBNzZrQPsBEMAAc4LBqf22QEZHBUEspNPBXfmpQO6n
yUCC+9nBk975QIi7db6937vB06bVQP/DB8BCtLLBgcLpQAc7BkCJs7bBNiR+QFH2XUDW/LjBszH3
QLoglkCgDqvBapuMQPFdnkCWi8jBSkwCQWFMxUAsmbrBAXmQQJbxKz9Z5Z7BITKhQJ0bQMAygqbB
xJWDQPNhhr9uCJXB1W+ZQM9zjEDwoYbBzpbBQFO1RkAZCIfBm5vPQMa5mUBfG4rBqwhZQJ59e8Cj
KpnBKQabQDmZdMDlw5DB3h8HQATeIsA2TIzBTDEyQFsYgMAs3IXBRO6RQE1j30DD/MvB21VWQAGI
QED9kajBM9QCQPC3Y0C4sZfBSX89QIy7gUCloIzB+rffQGGBgr4m27PB4onJQDBqnL+fwa3BkTXY
QPdbjz/OMLLB9gOeQEkJgECrprnBIcfhQFDKlkC1y7HB03qkQCgUnEDkQcLBY03oQFetskAXb7rB
Qz6kQHxdDz9IY6TB8qurQKjRTr9h5aXB6/K7QKEHfEADLrHBHaO5QOOaxD9ZhKrBmnzJQE5UtkCY
lMLB7Z3LQLPXVECBkJ3BNq6DQGDKYECVO5rB3qeTQOhp3b+y0J7BBh2WQLCcRsBqOZ/BHMyyQKGk
QEBevafBTQi2QHlldkCnkorBQEV4QNx3f8DaspfBg1N3QH6+YcCl24vBHyytQF4t4EAzHdHBZ72s
QJ+TX0AzuZXBwQOGQLk/UEBCgKTBOkc7QFvrbUDswpTBZDryQN5sTUDgD5zBDj3RQOfl00DnlcrB
Xvc9QHCoIcC0JIrBmH+OQGZm80AuC8vB2wi7QHtQ/EBBl9jBco72QCkUEr8j1LnBqFXPQLeEEcDs
FK/BFb/pQE1m7T+nwrbB5fqBQMSsV0BofbnBRLP5QMk2lEDyl6vBtkONQC2xnUAkpcjBk54CQYqB
xUAd1brBto2NQGsHYD++YJ7BjmZ9QK5kpb9e55jBVP+qQMg1ZMCYB6XBmumXQLHVekB/DYbBc4/K
QHH7REBm+YbBH5rGQFg9mkBWVYrBAs81QKB5gMA/mJrBf7GJQIcyoMBT/ZfBclFmQGVEjMDvwYbB
gcybQMu7SsA8tYnBYQmgQOdxw0Ck/tTBxtVZQF5yTkCHdanBZ3wDQO4Ba0D9qZjBwjQ8QG9MekDR
6YzBuU/gQJqtOr7sfrTBhDvMQBajl79/Za7Bzn7XQA0alj88frLBGbOcQIhMgUDolbnBqAXhQAy2
lkAQ0rHBHdSjQPH5nEAxQ8LBRQ3oQB5tskAterrBScGmQH6sBT/0HqTBQNevQLYtV79nEKbBy7i6
QLcpfUBUJLHB9Mm5QKTaxD/wc6rB52PJQJB1tkCMpcLBSCvLQDGXVkDvsp3ByKKDQM3/ZEBrOZrB
1kucQG5a9r+SoJ/B1pOOQHTl3r91MJXBXtmxQD2wQEACtafBbdq2QBUhfECu1YrB7rN3QByjNsAx
M47Bi65kQAG5hcBKEpTBUc6tQGMn4UAtI9HBFC6tQB29cEB5PJbBlTKFQEtrTkDqUqTBAwk8QGfF
bkDMdpTB01DxQONeSUDLEZzBTs3RQI+e00A5ucrB/COXQLAamcDERpfBpyGQQONM9UA488rBgwS8
QOvv/EA3qtjB2ZD2QDMI6b4+vLrB55jSQBBeDsDUGrDBOm/nQLgb+D9ZGrfBLBSAQMPlW0AwXLnB
ePb4QBXAk0AuoqvB2amMQFPdnkAmqMjBgqICQY7RxEAa3rrBWheRQEgNSz9wv53BvZWYQJWSOcAN
OqPB/kKRQP67QL89xpHBn9eZQAOSiEBjmYbB7u7BQEELP0DqcofB8QvQQB1elkDW6InB38qSQIgr
RMBavofBCmw7QOwbH8Dqu4rBlO9BQNVEm8Bpoo7BY948QBsGfsDrIZvBWIWfQEfjxEBh+tTBsFBX
QG59R0C7EKnBFZYDQM1rZEA/AZjBSz0+QFEVgEApxYzB

> <OMEGA_E>
wECmPYBmxD0ALxM+

> <OMEGA_NBR>
      2834

$$$$
50168737
  -OEChem-04172616093D

 57 59  0     1  0  0  0  0  0999 V2000
    7.0438   -0.0954  -22.6368 C   0  0  0  0  0  0  0  0  0  0  0  0
    6.3503   -1.1096  -21.9479 C   0  0  0  0  0  0  0  0  0  0  0  0
    6.7988    1.2581  -22.3353 C   0  0  0  0  0  0  0  0  0  0  0  0
    4.9074    4.0419  -23.1518 C   0  0  0  0  0  0  0  0  0  0  0  0
    7.0431    4.7388  -22.1949 C   0  0  0  0  0  0  0  0  0  0  0  0
    5.1268    4.8723  -24.2568 C   0  0  0  0  0  0  0  0  0  0  0  0
    7.2644    5.5654  -23.3053 C   0  0  0  0  0  0  0  0  0  0  0  0
    5.1810    0.5833  -20.6483 C   0  0  0  0  0  0  0  0  0  0  0  0
    5.4102   -0.7599  -20.9504 C   0  0  0  0  0  0  0  0  0  0  0  0
    5.8450    3.9954  -22.0941 C   0  0  0  0  0  0  0  0  0  0  0  0
    5.8402    1.6043  -21.3486 C   0  0  0  0  0  0  0  0  0  0  0  0
    6.3014    5.6628  -24.3260 C   0  0  0  0  0  0  0  0  0  0  0  0
    6.3536    3.3385  -19.6547 C   0  0  0  0  0  0  0  0  0  0  0  0
    4.1021    3.5221  -19.2451 C   0  0  0  0  0  0  0  0  0  0  0  0
    4.6205   -1.7314  -20.1935 C   0  0  0  0  0  0  0  0  0  0  0  0
    4.7247   -3.0908  -20.3289 C   0  0  0  0  0  0  0  0  0  0  0  0
    5.5834    3.0473  -20.9343 C   0  0  1  0  0  0  0  0  0  0  0  0
    5.6664    3.8333  -17.2759 C   0  0  0  0  0  0  0  0  0  0  0  0
    2.3673   -2.5323  -16.7620 C   0  0  0  0  0  0  0  0  0  0  0  0
    3.9015   -3.9451  -19.4077 C   0  0  0  0  0  0  0  0  0  0  0  0
    4.6461   -4.0794  -18.0635 C   0  0  0  0  0  0  0  0  0  0  0  0
    3.7012   -4.5733  -16.9531 C   0  0  0  0  0  0  0  0  0  0  0  0
    5.4178    6.9730  -26.1363 C   0  0  0  0  0  0  0  0  0  0  0  0
    5.3835    3.5010  -18.6773 N   0  0  0  0  0  0  0  0  0  0  0  0
    4.1781    3.2430  -20.5235 N   0  3  0  0  0  0  0  0  0  0  0  0
    2.9121    3.7506  -18.5702 N   0  0  0  0  0  0  0  0  0  0  0  0
    7.5578    3.2051  -19.4632 O   0  0  0  0  0  0  0  0  0  0  0  0
    6.5562    6.5451  -25.3583 O   0  0  0  0  0  0  0  0  0  0  0  0
    3.2339   -3.4877  -16.1151 O   0  0  0  0  0  0  0  0  0  0  0  0
    4.4942    7.5850  -25.3431 F   0  0  0  0  0  0  0  0  0  0  0  0
    5.8495    7.8587  -27.0651 F   0  0  0  0  0  0  0  0  0  0  0  0
    7.7646   -0.3563  -23.3976 H   0  0  0  0  0  0  0  0  0  0  0  0
    6.5352   -2.1481  -22.1798 H   0  0  0  0  0  0  0  0  0  0  0  0
    7.3413    2.0335  -22.8559 H   0  0  0  0  0  0  0  0  0  0  0  0
    4.0167    3.4328  -23.1066 H   0  0  0  0  0  0  0  0  0  0  0  0
    7.7882    4.6699  -21.4162 H   0  0  0  0  0  0  0  0  0  0  0  0
    4.4016    4.9109  -25.0562 H   0  0  0  0  0  0  0  0  0  0  0  0
    8.1811    6.1318  -23.3777 H   0  0  0  0  0  0  0  0  0  0  0  0
    4.4853    0.8404  -19.8633 H   0  0  0  0  0  0  0  0  0  0  0  0
    3.9061   -1.3507  -19.4786 H   0  0  0  0  0  0  0  0  0  0  0  0
    5.3745   -3.5317  -21.0704 H   0  0  0  0  0  0  0  0  0  0  0  0
    4.7215    3.9031  -16.7171 H   0  0  0  0  0  0  0  0  0  0  0  0
    6.2971    3.0483  -16.8332 H   0  0  0  0  0  0  0  0  0  0  0  0
    6.1932    4.7978  -17.2271 H   0  0  0  0  0  0  0  0  0  0  0  0
    2.0732   -1.7558  -16.0404 H   0  0  0  0  0  0  0  0  0  0  0  0
    2.8992   -2.0668  -17.6048 H   0  0  0  0  0  0  0  0  0  0  0  0
    1.4686   -3.0458  -17.1343 H   0  0  0  0  0  0  0  0  0  0  0  0
    2.9212   -3.4740  -19.2428 H   0  0  0  0  0  0  0  0  0  0  0  0
    3.7595   -4.9406  -19.8537 H   0  0  0  0  0  0  0  0  0  0  0  0
    5.4704   -4.7983  -18.1798 H   0  0  0  0  0  0  0  0  0  0  0  0
    5.0529   -3.0979  -17.7787 H   0  0  0  0  0  0  0  0  0  0  0  0
    2.8324   -5.0626  -17.4177 H   0  0  0  0  0  0  0  0  0  0  0  0
    4.2392   -5.2996  -16.3262 H   0  0  0  0  0  0  0  0  0  0  0  0
    4.9717    6.0954  -26.6270 H   0  0  0  0  0  0  0  0  0  0  0  0
    3.3917    3.1722  -21.1372 H   0  0  0  0  0  0  0  0  0  0  0  0
    2.0422    3.7068  -19.0615 H   0  0  0  0  0  0  0  0  0  0  0  0
    2.9241    3.9592  -17.5922 H   0  0  0  0  0  0  0  0  0  0  0  0
  1  2  1  0  0  0  0
  1  3  2  0  0  0  0
  2  9  2  0  0  0  0
  3 11  1  0  0  0  0
  4  6  2  0  0  0  0
  4 10  1  0  0  0  0
  5  7  1  0  0  0  0
  5 10  2  0  0  0  0
  6 12  1  0  0  0  0
  7 12  2  0  0  0  0
  8  9  1  0  0  0  0
  8 11  2  0  0  0  0
  9 15  1  0  0  0  0
 10 17  1  0  0  0  0
 11 17  1  0  0  0  0
 12 28  1  0  0  0  0
 13 17  1  0  0  0  0
 13 24  1  0  0  0  0
 13 27  2  0  0  0  0
 14 24  1  0  0  0  0
 14 25  2  0  0  0  0
 14 26  1  0  0  0  0
 15 16  2  0  0  0  0
 16 20  1  0  0  0  0
 17 25  1  0  0  0  0
 18 24  1  0  0  0  0
 19 29  1  0  0  0  0
 20 21  1  0  0  0  0
 21 22  1  0  0  0  0
 22 29  1  0  0  0  0
 23 28  1  0  0  0  0
 23 30  1  0  0  0  0
 23 31  1  0  0  0  0
  1 32  1  0  0  0  0
  2 33  1  0  0  0  0
  3 34  1  0  0  0  0
  4 35  1  0  0  0  0
  5 36  1  0  0  0  0
  6 37  1  0  0  0  0
  7 38  1  0  0  0  0
  8 39  1  0  0  0  0
 15 40  1  0  0  0  0
 16 41  1  0  0  0  0
 18 42  1  0  0  0  0
 18 43  1  0  0  0  0
 18 44  1  0  0  0  0
 19 45  1  0  0  0  0
 19 46  1  0  0  0  0
 19 47  1  0  0  0  0
 20 48  1  0  0  0  0
 20 49  1  0  0  0  0
 21 50  1  0  0  0  0
 21 51  1  0  0  0  0
 22 52  1  0  0  0  0
 22 53  1  0  0  0  0
 23 54  1  0  0  0  0
 25 55  1  0  0  0  0
 26 56  1  0  0  0  0
 26 57  1  0  0  0  0
M  CHG  1  25   1
M  END
> <OMEGA_C>
imbhQLlhw701GLXBYzXLQH0Ijr9Dla/BsI/ZQMkJoT/CrrLBVgmdQOVWgUDkNrnBDWHhQFekl0Ax
j7HBkw6kQC3qm0DfDcLB03XoQCMYskBScbrBwsqlQN5QFT/NL6XBiiCtQCyGQr95mqfBaQq7QO+0
f0DGwLDBieK6QOhYzT/hyarB3qTJQIA1tUCRm8LBl1DLQL2pVUC6PJ3BBESDQElqYUAC9pnBWtuT
QH2d3b9TjKHBhDCXQE3PRcCqoaLBbquyQDUHQ0CMeafBh1O1QD9VdUAiNYrBEYEXQHIQIsCMGIbB
YLF5QDB8fMACQ5vBf6yUQFWKgsASgpDBlOBsQJ5YksD2n4fB816tQOsi30A4F9HBk0WsQJgPYEA2
a5XB7rKFQHiNT0AMMKTBfGA6QHQKcEC3j5TBldnxQPYgTUCbtJvByMzRQENx0UDM3crBFvhOQEk3
X8Cs64DBHtCPQBa48kDEvsrBPS+7QF16+0BIhdjBj3f4QCdwtr40LrvBKCDRQGp6CcBQcLHBruvq
QEUkAkDK2LbBhIiAQNGyW0BI2rjBUzn5QA1wlUBfVKvBHtqMQDQmnUATc8jB6uUCQZM3xEB7BbvB
4YePQPElVz//557Bs/15QNbirL831JvBkvurQMMGYsA5kKjB3haXQLPLeUClvIXBnoHJQFgXQ0BZ
qobBki7GQGaHmUAr0YnBfK8EQAe/4L+2UoDBCY05QBtGBMCg1ozBtfq7PxvvQsATE4nB6/Q6QEJW
XsA58ZnBj5twQAUZnsBV1J7BuQ2vQPuLmcBBcJHBwrGhQCVERsCxOo7BaUY1QGoAosB9V4vBWKeH
QIuWqcD5m4LB9BefQLQNw0AkBNXBIxJZQO4ES0DkGKnBObQCQOE8bUDlfZjBfCQ7QJFjfUDnvIzB

> <OMEGA_E>
UPZmPg==

> <OMEGA_NBR>
      4080

$$$$
50168740
  -OEChem-04172616093D

 51 53  0     1  0  0  0  0  0999 V2000
    7.1215    0.0306  -22.7408 C   0  0  0  0  0  0  0  0  0  0  0  0
    6.5054   -1.0493  -22.0909 C   0  0  0  0  0  0  0  0  0  0  0  0
    6.8035    1.3458  -22.3744 C   0  0  0  0  0  0  0  0  0  0  0  0
    4.8314    4.1359  -23.1096 C   0  0  0  0  0  0  0  0  0  0  0  0
    7.0043    4.7470  -22.1853 C   0  0  0  0  0  0  0  0  0  0  0  0
    5.0771    4.9527  -24.2253 C   0  0  0  0  0  0  0  0  0  0  0  0
    7.2539    5.5524  -23.3070 C   0  0  0  0  0  0  0  0  0  0  0  0
    5.2496    0.5014  -20.6867 C   0  0  0  0  0  0  0  0  0  0  0  0
    5.5730   -0.8288  -21.0573 C   0  0  0  0  0  0  0  0  0  0  0  0
    5.7835    4.0357  -22.0684 C   0  0  0  0  0  0  0  0  0  0  0  0
    5.8434    1.5997  -21.3629 C   0  0  0  0  0  0  0  0  0  0  0  0
    6.2953    5.6721  -24.3284 C   0  0  0  0  0  0  0  0  0  0  0  0
    6.3302    3.3622  -19.6663 C   0  0  0  0  0  0  0  0  0  0  0  0
    4.0953    3.5653  -19.2238 C   0  0  0  0  0  0  0  0  0  0  0  0
    4.9539   -2.0210  -20.4289 C   0  0  0  0  0  0  0  0  0  0  0  0
    4.0209   -1.9722  -19.4159 C   0  0  0  0  0  0  0  0  0  0  0  0
    5.5406    3.0399  -20.9237 C   0  0  1  0  0  0  0  0  0  0  0  0
    5.7008    3.9871  -17.3156 C   0  0  0  0  0  0  0  0  0  0  0  0
    3.3200   -3.2438  -18.9724 C   0  0  0  0  0  0  0  0  0  0  0  0
    3.1171   -3.2829  -17.4492 C   0  0  0  0  0  0  0  0  0  0  0  0
    5.4881    7.0174  -26.1436 C   0  0  0  0  0  0  0  0  0  0  0  0
    5.3933    3.7763  -18.7356 N   0  0  0  0  0  0  0  0  0  0  0  0
    4.1432    3.1807  -20.4775 N   0  3  0  0  0  0  0  0  0  0  0  0
    2.9213    3.7317  -18.5038 N   0  0  0  0  0  0  0  0  0  0  0  0
    7.5252    3.1703  -19.4666 O   0  0  0  0  0  0  0  0  0  0  0  0
    4.3287   -3.6354  -16.7923 O   0  0  0  0  0  0  0  0  0  0  0  0
    6.6040    6.4962  -25.3953 O   0  0  0  0  0  0  0  0  0  0  0  0
    5.8724    8.1760  -26.7322 F   0  0  0  0  0  0  0  0  0  0  0  0
    5.1116    6.1320  -27.1041 F   0  0  0  0  0  0  0  0  0  0  0  0
    7.8419   -0.1515  -23.5246 H   0  0  0  0  0  0  0  0  0  0  0  0
    6.7481   -2.0596  -22.3856 H   0  0  0  0  0  0  0  0  0  0  0  0
    7.2941    2.1725  -22.8668 H   0  0  0  0  0  0  0  0  0  0  0  0
    3.9078    3.5797  -23.0461 H   0  0  0  0  0  0  0  0  0  0  0  0
    7.7475    4.6683  -21.4056 H   0  0  0  0  0  0  0  0  0  0  0  0
    4.3364    5.0333  -25.0072 H   0  0  0  0  0  0  0  0  0  0  0  0
    8.1902    6.0849  -23.3862 H   0  0  0  0  0  0  0  0  0  0  0  0
    4.5476    0.6801  -19.8856 H   0  0  0  0  0  0  0  0  0  0  0  0
    5.2547   -2.9935  -20.7896 H   0  0  0  0  0  0  0  0  0  0  0  0
    3.7888   -1.0316  -18.9386 H   0  0  0  0  0  0  0  0  0  0  0  0
    4.7925    4.3133  -16.7877 H   0  0  0  0  0  0  0  0  0  0  0  0
    6.0626    3.0462  -16.8753 H   0  0  0  0  0  0  0  0  0  0  0  0
    6.4780    4.7595  -17.2195 H   0  0  0  0  0  0  0  0  0  0  0  0
    2.3375   -3.2986  -19.4639 H   0  0  0  0  0  0  0  0  0  0  0  0
    3.9290   -4.1092  -19.2726 H   0  0  0  0  0  0  0  0  0  0  0  0
    2.7929   -2.2907  -17.1019 H   0  0  0  0  0  0  0  0  0  0  0  0
    2.3443   -4.0270  -17.2062 H   0  0  0  0  0  0  0  0  0  0  0  0
    4.6521    7.2029  -25.4531 H   0  0  0  0  0  0  0  0  0  0  0  0
    3.3424    3.0071  -21.0507 H   0  0  0  0  0  0  0  0  0  0  0  0
    2.0385    3.5554  -18.9392 H   0  0  0  0  0  0  0  0  0  0  0  0
    2.9578    4.0281  -17.5494 H   0  0  0  0  0  0  0  0  0  0  0  0
    4.1863   -3.6550  -15.8532 H   0  0  0  0  0  0  0  0  0  0  0  0
  1  2  1  0  0  0  0
  1  3  2  0  0  0  0
  2  9  2  0  0  0  0
  3 11  1  0  0  0  0
  4  6  2  0  0  0  0
  4 10  1  0  0  0  0
  5  7  1  0  0  0  0
  5 10  2  0  0  0  0
  6 12  1  0  0  0  0
  7 12  2  0  0  0  0
  8  9  1  0  0  0  0
  8 11  2  0  0  0  0
  9 15  1  0  0  0  0
 10 17  1  0  0  0  0
 11 17  1  0  0  0  0
 12 27  1  0  0  0  0
 13 17  1  0  0  0  0
 13 22  1  0  0  0  0
 13 25  2  0  0  0  0
 14 22  1  0  0  0  0
 14 23  2  0  0  0  0
 14 24  1  0  0  0  0
 15 16  2  0  0  0  0
 16 19  1  0  0  0  0
 17 23  1  0  0  0  0
 18 22  1  0  0  0  0
 19 20  1  0  0  0  0
 20 26  1  0  0  0  0
 21 27  1  0  0  0  0
 21 28  1  0  0  0  0
 21 29  1  0  0  0  0
  1 30  1  0  0  0  0
  2 31  1  0  0  0  0
  3 32  1  0  0  0  0
  4 33  1  0  0  0  0
  5 34  1  0  0  0  0
  6 35  1  0  0  0  0
  7 36  1  0  0  0  0
  8 37  1  0  0  0  0
 15 38  1  0  0  0  0
 16 39  1  0  0  0  0
 18 40  1  0  0  0  0
 18 41  1  0  0  0  0
 18 42  1  0  0  0  0
 19 43  1  0  0  0  0
 19 44  1  0  0  0  0
 20 45  1  0  0  0  0
 20 46  1  0  0  0  0
 21 47  1  0  0  0  0
 23 48  1  0  0  0  0
 24 49  1  0  0  0  0
 24 50  1  0  0  0  0
 26 51  1  0  0  0  0
M  CHG  1  23   1
M  END
> <OMEGA_C>
duPjQNAO+zw07bXBpSzQQDBQhr86urDBV7bZQK9ErD/A/rLBzpqaQG1ZhECL4LjBViPgQC3nl0CH
e7HBfHeiQHx8nkCAzcHBsh/oQI+tsUCsdLrBXfynQC5dAD9lfqXBpFWyQG0vVL9PdajBVRK5QC8k
gUARjLDBCf26QBLDzD9A56rBe3PJQPGBtUB+oMLBMJHKQLAuV0ChVJ3BcQyDQC4uZEBpypnBWIae
QNxXAcBJbqPBO6uAQCJx/L/AU5vBiEyxQGGNQkDGY6fBtWy2QA8sf0BGhorBGHtUQBKaT8Box5fB
dn5HQEMaUsDll4vBNZ6vQFeO4EApJtHBIZasQHKvcUCB4pXBUpWEQOiPS0Db0aPBVPY6QO/UbkDc
B5TBzc7wQKjmSkCDu5vBD4WKQJ+paMCjVobBRlTTQITgz0CFKcvBjOq7QLbQAkGH29XBKJKjQIc5
xEBL1djBifD6QDkkG75mMrzBjPDXQMTQA8CrFbPB5GjpQPAJC0Al77bBphl6QPgZZUCAXrjBVuv3
QBtjlUC2PqvBo8OKQBkRoUCvDsjB3goDQUu3wkD8FrvB7IWRQMcXLj/DFZ/B2iaoQD6VP8AcUabB
B3xyQP0KhL9SgpfBOlyZQIwGikA6TYbBtQDCQIX0QkCnAIfBikvPQDlOmECQwYnB/JgVQKYcU8AH
tpvBM3V7QHd+g8BhLprBFL4yQGibEsDE0IjBlwgWQBLdgMBeponBVt6UQNF95kD1n8vB5ulVQAB0
QEDAZ6jBTHYCQMqLY0B9g5fBpUw9QN3lgEBDZYzBDfaFQNTqacDppn3Bm0LlQKAI5zzfvrXBW7/R
QBSuh78np7DB7VHaQIXgqj+mz7LBu/2aQLTHgkB0HbnBeGDfQHEEmEDuYrHBffSiQIMmnUBUA8LB
tVfnQG8tskBaSbrB2tinQBy27T48iqXBRFGzQH0gXL8ffajBHc+4QENTgECen7DBXdm6QIqFyT/c
3qrB6kPJQKSCtUBgm8LBvWbKQBBWVkA0Zp3BYg6DQGeqZUCA5JnBEbyhQDEUBcDIYKPBoJ+DQO7e
BsDgV5vBFfywQM8RQUD9aqfBmqS2QNfygUCGxYrBYUxpQL42XcBzHpfBNK1lQIiLXcCK24rBAgmx
QNHt4UC0eNHBW6usQG6+c0BQEpbBQ12EQDxrSkCV0qPBKFw7QFC8cUBdGpTBiZrwQNCqSUDRyJvB
D+giQCBsJsBER4fBbZ3TQBS/0ECIA8vBzoqhQDmqw0DTQdjByQqRQKYD8kBkP8vB1b/8QGdKEL7q
77vBwCDaQFsvBMA9A7PBcwXqQBveCkASo7bBhLZ7QAR9YEBJw7jBgtP2QHbolUDBD6vBPdiLQJTj
nkAhbMjBqXUCQV31w0BJwLrBbLiQQIQcIT++QZ/B8JitQA7sQcBoNabBULhtQMo+mL++GJjBDMOZ
QCtpjUAGo4bB0LzBQKRFSEDtAIfBBurPQAFZmkAYNYrBBREpQNPOasCLS5rBmAqLQPmLh8CpzpnB
cUhZQHeCj8DcBIjBuZuRQCwJR8AApIfBVnK+QFI6/ECtQ9bB4U1VQKDIPUDAUKjBAKYCQI14ZUCW
epfBZCw+QPxZg0B8jYzBH+ggQB3VJsCGXX/Bw8LkQNB2mj1kI7bBpGPRQOr1gr+QJ7HBTAjaQMwt
sD+7/rLBTxmaQJ3KhEBn07jBfmrfQAKEmEBGVbHBEESiQJrRnkC3x8HBZKnnQNAgskBJT7rBMBCo
QJNg9T5HuaXBkz6zQCTtVr9E56jBXXG4QGCDgUBrdLDBb+26QKflzD9W8KrB01/JQHqdtUB8kMLB
tGfKQDslV0A2TZ3BovmCQGysY0AcrpnBGWGhQDhuBMDBAKTBrJOCQBjdBsBfI5zBJu2wQDlrQkBD
VafBiqi2QPjWf0Bdf4rBHk9lQP1FXcBpJpjBFlxkQDVyYMAB4ovBWQyxQI4N40BDvtDBvZCsQC6n
cUAf1ZXBpVGEQMKLSkCOsaPB5g47QLyJbkD34ZPBLNHwQJ5gTECIyZvBT2QoQGrYI8Bv0ofBBhPU
QEDmzkAwOcvBM8W/QPveA0EoNdXB/fWhQID8yEC0ldjBE/77QGmFpr0tabzBo6nZQOWBAcAAq7PB
aJ/pQJD5DUClv7bBW994QCNVZkBnVbjBc/P2QAxIlkDiB6vB9rSKQKFwoUBIEcjBH8cCQbFRw0B4
4brBwD+RQAWyIT9tWZ/BXJKtQGX5QMCn2KbBibtrQDyEmL+z1pjBVKSZQGFLikCDPobB04HCQFfx
Q0Ba8obBYWbPQEXOmEASz4nBpAEkQBoGaMCDJpvBeuyHQK7th8BXLpvBH/5RQBSHkMBeP4nBnkmS
QPolUcAj04jBoIOXQMQy6kCQ9MrBXjxVQOGWPkAlOKjB8G0CQBQFY0AfUpfBWK89QPPxgEClQ4zB
1h0oQOshJsA7OoDBfcbkQDDs3byen7XBqRfRQFs7jb+YWbDBhlzaQLhLpT8p07LBmm6bQNDHgUBA
J7nBxE7fQNcKmED3UbHBquuiQHGxnEDJ+cHBhMfmQB/KskCEJLrB/l+oQOxU6j62VaXBjxazQBBU
YL9xH6jBADW5QPo2f0C/pLDB41G7QMmMxj+I1KrB1q7IQIjktUDBd8LBA7fKQB7NVEDlYJ3BmziD
QC4FZkBGDprBPgigQIogBMCg0aLBIiqCQExIAMBkt5rBEIaxQBarP0BTcKfBbFO2QDLxf0BtrorB
5O9bQMzJUcDsbpbBNJtTQC5vTsDFMorBflqvQIWd40Cp9NDBm8SsQNI7cUCmCZbByM6EQP7iSECa
5aPBbiQ7QDA1dkB2iZTBF/HwQLiRSEBVwJvBNQ+TQAxvUsAzZ4XBdHPSQFWx0UCIzMrBdRqgQBVy
xkDYD9jBwUuPQDr88UBqfcrBC/v7QFcXXL7r2LvBsAPZQABnB8BBnrLBoB7qQGFXB0D5yrbBKGd9
QP41XUBC37jBJ8f2QP8QlkBX/6rBwtyLQNwynkCHZsjBxP0BQawzxUDPirrBsqqRQBWcJD8g/p7B
sUGqQAKbQsDcfKXBoy9yQIgqhr/pZpfBfEmZQBUmi0AnkYbBxk3BQOjZQ0BFAofB247PQEpYmEAV
9onBkPAbQORyWcAL+ZnBCxuCQAhbhMA5qZjB3RQ0QO1SEsDh3IfB4PksQGSCgsB4cofBzTG8QBcC
/0BEdNXBumxWQMnkOkBWXqjBV6QCQNyra0BqDpjBwls9QPs0hkAACo3BYD+QQMlUUMA4rnvB3Hre
QFKTj76kbrPBbFPJQLrDnL/r3KzBI8jWQOz2jD8ZJLLBC3mdQO7sgEBXzbnBV4fhQGXrlkDs+LHB
8/+jQFNFnUDQWcLBxDDoQK33skB2kbrBouCjQC2mFz/F+qPBeCCsQD2zR79Y8aTBspS7QL6ifEC5
YrHBzaO4QN7mxT+odqrBpGzJQB/8tkApt8LBrZDLQF3jV0A+1p3B9BiEQACwZEAgV5rBl6aXQF6p
07+syZzB2N6fQH7aP8Doc5vBMz+yQEMAQkAY46fBa+m2QCnjekDJ6YrBbAyRQJzgccBnj5HBsttQ
QPkqUMDS6ovBD8GuQN0B30CQwNHBx4KtQI5AckCJX5bBC7GFQL3rUkATlqTBiio9QCxFZ0ALa5TB
nY7xQNR9SUATI5zBVQwKQJwIV8CFBZPBR63RQFaW1EBnsMrBQaW3QIJdAkGAnNbBkEyqQI8XwEBv
U9nBeKv0QFOHHr/bebnB+mbPQC3wEcAN4a3BSdjnQNCt6D+e/7bB3kOBQA3vWUBHprnBV3L5QJgU
lEC5xqvBZ4SMQNOIn0ApqsjBc5wCQeCoxUBX77rBgPSMQE7QbT/QGZ7B/oWAQMKBmb/TfpfB3Gux
QERVYcCVm6HBNAmaQBRQiEBkrYbBsArBQNqUPEBosYfBVLbQQHj1lEChyInBGcuKQDMbmsDYDpTB
10+rQBH/cMC5s4vB3HREQBdjdsD/sITBEytaQAe/DMD/qonBTDKRQCXD4UD5Bc3BxbFYQM4YUUAH
d6nBegoFQGkiW0Bk85fBOTM/QJlEdUCwnYzBVMuvP5dfQsBxlo/BVkPiQDReX74uB7TBBvPLQP+E
mr9rL67ByPfZQPNgkz9POrLBI2WdQMBBgEB7fLnBzgvhQBRfl0Dmn7HBNdWjQIEhnECNHsLB94Hn
QLQqs0C2SLrB/dakQLJICz8B36TBNvGsQJDiUL9cj6bBzGa7QBKtfECjCLHBVom6QMspxT+Fq6rB
TNDIQApptkDeeMLB+pHLQEuFVEAphJ3BGKyDQGTvYkD0QZrBBMuSQGAe4L+yOKDBoSOaQIJCRsA1
B5/BoMiyQPBFQEAZsafBdg62QBKgekAupIrBMeF3QMcZecBb8JfBqfl5QKS7V8DHR4zBBUSsQF89
4EB789DBP7esQJpfYkAAv5XByOaFQEBDTkBpaKTBKYQ7QFh2c0AK4JTB2gLyQL3RSkDy8pvBUIIz
QL+QecDUcYbB2ZrQQDGU00COkMrB9UWOQFbA80DuusrBrMm5QHk4/EDdgNjBfMv5QBUAA79d57nB
MofSQNBAEMCRiK/BzpHrQMKA8z/Vm7bBBlSBQMo2WECrSbnBXd74QHQSlUBDZKvBOp6MQNGanUBe
gsjBDiUCQX48xkDsqrrBsl2NQB/kVT9c+Z7BfaRuQPWPq7/PIpzBlqe0QEf/ZMB2BaPBweaXQB7E
gEBJL4bB/8vJQM66SED/34bBjXvHQNjkm0AEi4rBKFw2QB0xc8CKEpvBcp6FQFNknsAPBZjBFAqb
QG/da8B/c4jBxC12QJxvEcDRUIzBpYqeQGKhw0C1wtTBskhZQIC2SEAjRanBTKkDQGLrb0BrwZjB
ErE8QB52gUANHY3BwDA1QPrXZMACm37B6GTjQKBL17wSuLXBzJnPQNZ9jL87d7DBVJ3ZQEAOpT+7
yLLBMMCbQJB4gUD+M7nBbTXgQDrflkCAg7HB3ISjQOTtm0AEF8LBWNXnQBtesUDwXLrB7oOnQLL1
6z4XQKXBGQGyQDf1Xr9uKKjByJO5QAOffkBgs7DBJda6QJLgxj/FuarBHmfJQE/otECblsLBa8LK
QBwjVkCoXJ3BsjaDQPNfZUDh/JnBkf+gQISIBMAcraLBoleBQKpXBcDCBpvBz4uxQN8mQEDnZqfB
0Fq2QFPfgECDsIrBWnRpQO0vW8A1M5bBqrlFQBmpUcBg0IrBvwCvQA/P3kAmbNHBj7msQFcickCA
BZbBmNqEQAQtSkAT6aPB8Q07QITOckAoYJTBeB7xQCKIS0ACwJvBzZd9QGA9IMDyQoTBDFfSQA2H
0UBIv8rB6ISOQAFw70AJd8vBTGG9QEO9/UCSH9jBdDL6QCR/XL5nCLzBEB7XQBIMB8Doz7LBC6zp
QA4gB0BYsrbBhZh9QEhMXUCz3LjBaPT3QIlklEBNRKvB6JyMQGxAnUAWjcjBYa4CQaI2w0BO3LrB
FuSQQMk/JT9l457B+rCuQIR9QcAu4qTBKs9jQDGvlb8ohZjBADqZQAfCi0DRkIbBbM/BQMYsRkDL
+YbB8UDPQNadmUCFCYrBQj84QJvPeMDlSZvBUSKRQHdagsBR75XB+AkHQLTGMcBxNYvBByA+QF3M
iMBQQYfBfI6jQO8Vw0BLB9bBsY1WQJ/zPUABeKjBd6UCQGamZ0Bh45fBlRw9QBXTg0Dr0IzBBARm
QIldG8DFkHrB

> <OMEGA_E>
IOWWPkxpmD6YDIw+qJqpPnBLqD7MY6U+mPafPg==

> <OMEGA_NBR>
     10402

$$$$
50168773
  -OEChem-04172616093D

 51 54  0     1  0  0  0  0  0999 V2000
    7.0896   -0.0475  -22.6968 C   0  0  0  0  0  0  0  0  0  0  0  0
    6.4343   -1.1056  -22.0467 C   0  0  0  0  0  0  0  0  0  0  0  0
    6.8096    1.2797  -22.3386 C   0  0  0  0  0  0  0  0  0  0  0  0
    4.8571    4.0827  -23.1317 C   0  0  0  0  0  0  0  0  0  0  0  0
    7.0110    4.7332  -22.1905 C   0  0  0  0  0  0  0  0  0  0  0  0
    5.0816    4.9282  -24.2310 C   0  0  0  0  0  0  0  0  0  0  0  0
    7.2400    5.5669  -23.2959 C   0  0  0  0  0  0  0  0  0  0  0  0
    5.2307    0.4893  -20.6475 C   0  0  0  0  0  0  0  0  0  0  0  0
    5.5157   -0.8497  -21.0090 C   0  0  0  0  0  0  0  0  0  0  0  0
    5.8068    3.9940  -22.0863 C   0  0  0  0  0  0  0  0  0  0  0  0
    5.8488    1.5652  -21.3372 C   0  0  0  0  0  0  0  0  0  0  0  0
    6.2792    5.6852  -24.3158 C   0  0  0  0  0  0  0  0  0  0  0  0
    6.3451    3.3479  -19.6696 C   0  0  0  0  0  0  0  0  0  0  0  0
    4.1065    3.5745  -19.2489 C   0  0  0  0  0  0  0  0  0  0  0  0
    4.8687   -2.0090  -20.3554 C   0  0  0  0  0  0  0  0  0  0  0  0
    4.2566   -1.9529  -19.1240 C   0  0  0  0  0  0  0  0  0  0  0  0
    4.1744   -3.7557  -17.2310 C   0  0  0  0  0  0  0  0  0  0  0  0
    2.8174   -3.0457  -17.2600 C   0  0  0  0  0  0  0  0  0  0  0  0
    3.6280   -3.2049  -18.5534 C   0  0  0  0  0  0  0  0  0  0  0  0
    5.5610    3.0146  -20.9280 C   0  0  1  0  0  0  0  0  0  0  0  0
    5.6953    3.9564  -17.3181 C   0  0  0  0  0  0  0  0  0  0  0  0
    5.4649    6.9449  -26.1978 C   0  0  0  0  0  0  0  0  0  0  0  0
    5.4021    3.7607  -18.7436 N   0  0  0  0  0  0  0  0  0  0  0  0
    4.1627    3.1731  -20.4959 N   0  3  0  0  0  0  0  0  0  0  0  0
    2.9245    3.7694  -18.5505 N   0  0  0  0  0  0  0  0  0  0  0  0
    7.5401    3.1606  -19.4652 O   0  0  0  0  0  0  0  0  0  0  0  0
    6.5678    6.5511  -25.3571 O   0  0  0  0  0  0  0  0  0  0  0  0
    5.7814    8.1180  -26.7983 F   0  0  0  0  0  0  0  0  0  0  0  0
    5.2433    6.0015  -27.1515 F   0  0  0  0  0  0  0  0  0  0  0  0
    7.8104   -0.2557  -23.4737 H   0  0  0  0  0  0  0  0  0  0  0  0
    6.6359   -2.1240  -22.3444 H   0  0  0  0  0  0  0  0  0  0  0  0
    7.3297    2.0890  -22.8294 H   0  0  0  0  0  0  0  0  0  0  0  0
    3.9521    3.4953  -23.0841 H   0  0  0  0  0  0  0  0  0  0  0  0
    7.7576    4.6546  -21.4141 H   0  0  0  0  0  0  0  0  0  0  0  0
    4.3409    5.0024  -25.0135 H   0  0  0  0  0  0  0  0  0  0  0  0
    8.1633    6.1232  -23.3640 H   0  0  0  0  0  0  0  0  0  0  0  0
    4.5397    0.6931  -19.8430 H   0  0  0  0  0  0  0  0  0  0  0  0
    4.8772   -2.9554  -20.8757 H   0  0  0  0  0  0  0  0  0  0  0  0
    4.2254   -1.0255  -18.5714 H   0  0  0  0  0  0  0  0  0  0  0  0
    5.0372   -3.2729  -16.7490 H   0  0  0  0  0  0  0  0  0  0  0  0
    4.2229   -4.8422  -17.0663 H   0  0  0  0  0  0  0  0  0  0  0  0
    1.8918   -3.6224  -17.1166 H   0  0  0  0  0  0  0  0  0  0  0  0
    2.7061   -2.0531  -16.7993 H   0  0  0  0  0  0  0  0  0  0  0  0
    3.2555   -3.9462  -19.2757 H   0  0  0  0  0  0  0  0  0  0  0  0
    4.7837    4.2847  -16.7974 H   0  0  0  0  0  0  0  0  0  0  0  0
    6.0453    3.0090  -16.8825 H   0  0  0  0  0  0  0  0  0  0  0  0
    6.4771    4.7222  -17.2065 H   0  0  0  0  0  0  0  0  0  0  0  0
    4.5677    7.0688  -25.5735 H   0  0  0  0  0  0  0  0  0  0  0  0
    3.3655    2.9987  -21.0738 H   0  0  0  0  0  0  0  0  0  0  0  0
    2.0460    3.6021  -18.9980 H   0  0  0  0  0  0  0  0  0  0  0  0
    2.9506    4.0774  -17.5995 H   0  0  0  0  0  0  0  0  0  0  0  0
  1  2  1  0  0  0  0
  1  3  2  0  0  0  0
  2  9  2  0  0  0  0
  3 11  1  0  0  0  0
  4  6  2  0  0  0  0
  4 10  1  0  0  0  0
  5  7  1  0  0  0  0
  5 10  2  0  0  0  0
  6 12  1  0  0  0  0
  7 12  2  0  0  0  0
  8  9  1  0  0  0  0
  8 11  2  0  0  0  0
  9 15  1  0  0  0  0
 10 20  1  0  0  0  0
 11 20  1  0  0  0  0
 12 27  1  0  0  0  0
 13 20  1  0  0  0  0
 13 23  1  0  0  0  0
 13 26  2  0  0  0  0
 14 23  1  0  0  0  0
 14 24  2  0  0  0  0
 14 25  1  0  0  0  0
 15 16  2  0  0  0  0
 16 19  1  0  0  0  0
 17 18  1  0  0  0  0
 17 19  1  0  0  0  0
 18 19  1  0  0  0  0
 20 24  1  0  0  0  0
 21 23  1  0  0  0  0
 22 27  1  0  0  0  0
 22 28  1  0  0  0  0
 22 29  1  0  0  0  0
  1 30  1  0  0  0  0
  2 31  1  0  0  0  0
  3 32  1  0  0  0  0
  4 33  1  0  0  0  0
  5 34  1  0  0  0  0
  6 35  1  0  0  0  0
  7 36  1  0  0  0  0
  8 37  1  0  0  0  0
 15 38  1  0  0  0  0
 16 39  1  0  0  0  0
 17 40  1  0  0  0  0
 17 41  1  0  0  0  0
 18 42  1  0  0  0  0
 18 43  1  0  0  0  0
 19 44  1  0  0  0  0
 21 45  1  0  0  0  0
 21 46  1  0  0  0  0
 21 47  1  0  0  0  0
 22 48  1  0  0  0  0
 24 49  1  0  0  0  0
 25 50  1  0  0  0  0
 25 51  1  0  0  0  0
M  CHG  1  24   1
M  END
> <OMEGA_C>
Z97iQFCZQr0Kk7XB9eXNQN6Djb+iX7DBDOjZQMnNoz+DtbLBqW2bQC6lgkDFDbnBIVrgQJN2l0A0
hrHBMpyiQOuznUAP2cHBQK7nQGYkskARXrrBKGKnQEKB+j4MLqXB2YCwQBiHWb9dEqjBSNG5QHWe
f0DQsLDBdim7QENZyD+qsqrBOe/IQE/ttUDKhsLBwwrLQF5EVkBUW53BomiDQPzEZEDF/ZnBE8yb
QBaTAMDi16LBrjWIQI74+b/6/ZjBWJSFQPZdcMAe2YnBt1A0QGntQsCTFIrB5TBoQJMcTcBubZTB
uvOxQPHuQECSbKfBMkC2QDU2fUCDi4rBb+CuQIU83kANldHBvd2sQL6vcEDP8pXB1jSFQDQUS0Ch
96PBwio7QHs+cUB/Z5TBiUjxQNFGSkC2uJvBuSvSQJqi0UBP28rBVgG5QDbjAUHbYtbBbsmnQLEM
wEBCNtnBpe75QGXsgr4pyrvBTVnUQGnvB8BTwbLB8ozqQLmyBUCmorbBNe98QF+yX0A5rLjBZj74
QBrylEApUKvBv+iKQLUToEClG8jBv5wCQfrww0Bs6brB0kSRQIdvMT9jvp7BahKcQLwkPcBhAafB
JTaHQKJEg78nkpTBCzGhQD53UcAA/oXB5iGHQLPzmsDEh4jBVSXyP/LVZ8DP7ojB9TAtQMtlA8AM
ZYbBd1pQQFCPfMCUNJrBEhSZQBAciUAGYYbBQ3PBQMOSQEBHD4fBRkTPQFkcl0DwponByCqSQI0z
4kCGlszBuWNXQE/qP0Ayl6jBF/ECQC2IZkDS+5fBhdY8QN55gkDAy4zBjpHjQACODDwOyrXBaiXQ
QLqch79FX7DBIF7ZQOY9qj/zBrPBvCybQMQYg0AwG7nBBO7fQLbpl0COfrHBPhejQP02nUA/B8LB
JtXnQCzqsUAdbbrBEcGnQL7hAz9NaKXByK+yQP8KUb9NEKjBZyW5QKOwgEDCqLDBOZS6QGiizD8a
+arBxH3JQOJltUBnsMLBeInKQID6VkCJaZ3BICCDQGwTZUB54ZnBSTOkQLKj/L/ktaHBaoiIQPaR
8r8LL5nBiYlGQBv8QsCaEonBU9w8QAhZf8AAoZLBybqFQLNuRcCaz5HBiDWxQChoQkDheKfBVYq2
QNGTgEAQrYrBFvCwQI6U4EBbvtHB3rCsQFY/c0CRB5bBoYeEQJ4PTEAD5qPBplk7QJoTb0AUDpTB
GKTwQJhvSUCdxJvBV5PTQG+70EDeF8vB+oCiQMVjwUC9atjBDkOQQAVr8EAcs8vB7WH6QHgxP76h
FrzBgdTXQJrTBMAUlrLBPBPpQNiKCUA+ELfBWex7QMFoYUC4sbjBJo/3QAiWlUBeN6vBuuKLQHXt
nkCsasjB2MQCQXJyw0CH9rrBse6QQDfVND8hGp/BxCOwQNLCPMDp56PBjehqQHxogb880JfBpIMc
QMDUCsD/T4jBIUdUQO8LXcCRFIHBlYxDQIVsosC0gJHBGMkLQNyhcsAhvJjBFw2kQBLUZMD3q4/B
8aWZQDvCi0CNf4bBrnbBQIq8RED6E4fBmebPQPzPmEDm8YnBYPq9QEfJ+kCfodbBmLNVQGwUQUBt
eKjBwMYCQDD3YkCxeZfBPO49QMgygUBfb4zBd8DfQHUrd749gLPBc8vIQMEimb8Ob63BdWDYQNzi
kT8gAbLBzUOeQPdagEAxwbnBtZThQOHVl0DyxrHBdQmlQC7rm0BzcMLB2GToQHRBs0C7fLrBswKj
QOhUHD/sg6TBkT+qQFr8Qb+k16XBFeO7QKHAfUBaNrHBvTO5QAJWyT9XiarB9fzJQNc/tkBuvsLB
0afLQFMcV0DLm53BYa2DQPFVYUD4IZrB7dOQQFq70b+r0Z7B2omTQPt/QMATWp7BQkSLQHcvg8D0
SovBAc9KQIVZR8C8O4zB0ixxQNDsccAlSpbBbpayQIkUQ0BswKfBRUa2QK70eEAqkIrBCx2uQL69
30BjYdHBj/CsQM26Y0AOxJXBl92FQBi1U0C6eaTBa3g7QHfqZ0BGb5TBmh3yQLkGTUD3GpzBaA/S
QAFU00BM1crB1WCPQMD18kD7U8vBAS28QAn3+0Dqz9jBCw/3QNYBEr/4T7nBlYfOQL8aEMDHla7B
TXfqQIue7j87i7bBTECCQBNBWEB5lrnBfCr5QOfClUCte6vBuh2OQPQanUAb5sjBNJ4CQeQ8xkDS
27rBH7SLQJogcD+usp7ByAF0QALSlL/TkJnBdMOoQHZfYsBPsqPBdzqrQA+TbsBPHYnBG06GQHz+
osDsu4fBdOEKQOIPWsCQYonBLLpUQPmlAsDzw4rBS21JQE5/ksAKwZnBkhqYQOBef0AEGobBebTJ
QIy2RUC6+4bBYgXIQB3YmkDuNYrBGP2gQIAXw0AsTdXBb5tZQKJ0VEDrcqnBj10DQAc0YkCPN5jB
Jd08QGxfckBJi4zB

> <OMEGA_E>
0BKWPUBdxz0A1dw9

> <OMEGA_NBR>
     13279

$$$$
50168803
  -OEChem-04172616093D

 51 54  0     1  0  0  0  0  0999 V2000
    7.0941   -0.0265  -22.7091 C   0  0  0  0  0  0  0  0  0  0  0  0
    6.4517   -1.0912  -22.0580 C   0  0  0  0  0  0  0  0  0  0  0  0
    6.8023    1.2974  -22.3504 C   0  0  0  0  0  0  0  0  0  0  0  0
    4.8429    4.0940  -23.1230 C   0  0  0  0  0  0  0  0  0  0  0  0
    7.0073    4.7231  -22.1905 C   0  0  0  0  0  0  0  0  0  0  0  0
    5.0790    4.9266  -24.2302 C   0  0  0  0  0  0  0  0  0  0  0  0
    7.2449    5.5465  -23.2990 C   0  0  0  0  0  0  0  0  0  0  0  0
    5.2304    0.4933  -20.6627 C   0  0  0  0  0  0  0  0  0  0  0  0
    5.5238   -0.8453  -21.0220 C   0  0  0  0  0  0  0  0  0  0  0  0
    5.7938    4.0008  -22.0787 C   0  0  0  0  0  0  0  0  0  0  0  0
    5.8433    1.5742  -21.3450 C   0  0  0  0  0  0  0  0  0  0  0  0
    6.2853    5.6698  -24.3171 C   0  0  0  0  0  0  0  0  0  0  0  0
    6.3385    3.3509  -19.6658 C   0  0  0  0  0  0  0  0  0  0  0  0
    4.0999    3.5602  -19.2311 C   0  0  0  0  0  0  0  0  0  0  0  0
    4.2353   -1.9010  -19.1421 C   0  0  0  0  0  0  0  0  0  0  0  0
    4.8590   -2.0017  -20.3686 C   0  0  0  0  0  0  0  0  0  0  0  0
    4.0555   -3.7111  -17.2607 C   0  0  0  0  0  0  0  0  0  0  0  0
    2.7896   -2.8523  -17.2144 C   0  0  0  0  0  0  0  0  0  0  0  0
    3.5073   -3.0900  -18.5508 C   0  0  0  0  0  0  0  0  0  0  0  0
    5.5500    3.0195  -20.9235 C   0  0  1  0  0  0  0  0  0  0  0  0
    5.7029    3.9994  -17.3192 C   0  0  0  0  0  0  0  0  0  0  0  0
    5.4860    6.9563  -26.1812 C   0  0  0  0  0  0  0  0  0  0  0  0
    5.3972    3.7469  -18.7325 N   0  0  0  0  0  0  0  0  0  0  0  0
    4.1517    3.1741  -20.4838 N   0  3  0  0  0  0  0  0  0  0  0  0
    2.9221    3.7565  -18.5256 N   0  0  0  0  0  0  0  0  0  0  0  0
    7.5410    3.2036  -19.4735 O   0  0  0  0  0  0  0  0  0  0  0  0
    6.5856    6.5299  -25.3569 O   0  0  0  0  0  0  0  0  0  0  0  0
    4.9005   -3.2105  -20.9815 F   0  0  0  0  0  0  0  0  0  0  0  0
    5.8105    8.1499  -26.7345 F   0  0  0  0  0  0  0  0  0  0  0  0
    5.2664    6.0467  -27.1672 F   0  0  0  0  0  0  0  0  0  0  0  0
    7.8146   -0.2273  -23.4882 H   0  0  0  0  0  0  0  0  0  0  0  0
    6.6690   -2.1075  -22.3517 H   0  0  0  0  0  0  0  0  0  0  0  0
    7.3121    2.1116  -22.8439 H   0  0  0  0  0  0  0  0  0  0  0  0
    3.9291    3.5209  -23.0686 H   0  0  0  0  0  0  0  0  0  0  0  0
    7.7547    4.6386  -21.4155 H   0  0  0  0  0  0  0  0  0  0  0  0
    4.3418    5.0012  -25.0159 H   0  0  0  0  0  0  0  0  0  0  0  0
    8.1746    6.0914  -23.3713 H   0  0  0  0  0  0  0  0  0  0  0  0
    4.5335    0.6921  -19.8619 H   0  0  0  0  0  0  0  0  0  0  0  0
    4.2664   -0.9675  -18.5998 H   0  0  0  0  0  0  0  0  0  0  0  0
    4.9918   -3.3338  -16.8239 H   0  0  0  0  0  0  0  0  0  0  0  0
    3.9885   -4.7976  -17.1023 H   0  0  0  0  0  0  0  0  0  0  0  0
    1.8133   -3.3216  -17.0234 H   0  0  0  0  0  0  0  0  0  0  0  0
    2.8166   -1.8578  -16.7450 H   0  0  0  0  0  0  0  0  0  0  0  0
    3.0164   -3.7755  -19.2573 H   0  0  0  0  0  0  0  0  0  0  0  0
    4.7849    4.3003  -16.7931 H   0  0  0  0  0  0  0  0  0  0  0  0
    6.1041    3.0831  -16.8616 H   0  0  0  0  0  0  0  0  0  0  0  0
    6.4491    4.8040  -17.2437 H   0  0  0  0  0  0  0  0  0  0  0  0
    4.5880    7.0596  -25.5544 H   0  0  0  0  0  0  0  0  0  0  0  0
    3.3523    3.0076  -21.0611 H   0  0  0  0  0  0  0  0  0  0  0  0
    2.0405    3.6023  -18.9716 H   0  0  0  0  0  0  0  0  0  0  0  0
    2.9546    4.0521  -17.5708 H   0  0  0  0  0  0  0  0  0  0  0  0
  1  2  1  0  0  0  0
  1  3  2  0  0  0  0
  2  9  2  0  0  0  0
  3 11  1  0  0  0  0
  4  6  2  0  0  0  0
  4 10  1  0  0  0  0
  5  7  1  0  0  0  0
  5 10  2  0  0  0  0
  6 12  1  0  0  0  0
  7 12  2  0  0  0  0
  8  9  1  0  0  0  0
  8 11  2  0  0  0  0
  9 16  1  0  0  0  0
 10 20  1  0  0  0  0
 11 20  1  0  0  0  0
 12 27  1  0  0  0  0
 13 20  1  0  0  0  0
 13 23  1  0  0  0  0
 13 26  2  0  0  0  0
 14 23  1  0  0  0  0
 14 24  2  0  0  0  0
 14 25  1  0  0  0  0
 15 16  2  0  0  0  0
 15 19  1  0  0  0  0
 16 28  1  0  0  0  0
 17 18  1  0  0  0  0
 17 19  1  0  0  0  0
 18 19  1  0  0  0  0
 20 24  1  0  0  0  0
 21 23  1  0  0  0  0
 22 27  1  0  0  0  0
 22 29  1  0  0  0  0
 22 30  1  0  0  0  0
  1 31  1  0  0  0  0
  2 32  1  0  0  0  0
  3 33  1  0  0  0  0
  4 34  1  0  0  0  0
  5 35  1  0  0  0  0
  6 36  1  0  0  0  0
  7 37  1  0  0  0  0
  8 38  1  0  0  0  0
 15 39  1  0  0  0  0
 17 40  1  0  0  0  0
 17 41  1  0  0  0  0
 18 42  1  0  0  0  0
 18 43  1  0  0  0  0
 19 44  1  0  0  0  0
 21 45  1  0  0  0  0
 21 46  1  0  0  0  0
 21 47  1  0  0  0  0
 22 48  1  0  0  0  0
 24 49  1  0  0  0  0
 25 50  1  0  0  0  0
 25 51  1  0  0  0  0
M  CHG  1  24   1
M  END
> <OMEGA_C>
sALjQIAx2bxUrLXBfnTOQHSti7+5drDBH6zZQPAQpj+UzbLBKfmaQNkBg0D/+7jBsjvgQOAjl0AY
hrHBM4eiQA+nnUCB18HBVNbnQAZ9sUBtZLrBEV+nQMCX/D5ETaXBtMKwQKFkWL/7LKjB62a5QHgG
gEBFobDBgvy6QAR/yT+NwqrBxyDJQL9utUBnicLBS9XKQN50VkB5U53BdDKDQIraY0BV2ZnBaYeH
QIhT878PI5nBiXybQKAcAMDi8qLBS8aBQNuCbcADForBVIkyQHeLNsAkt4nBmndgQHfCRcAeaJTB
TJmxQOQ/QUBNY6fBAX62QAX2f0DCjYrBWo2vQLmZ3kAbc9HBvrWsQLjMb0A53JXBgNqEQK8kS0DZ
3qPBKAQ7QLdpcEBUNJTBMFDxQEkHTUCtyZvBC73SQFD10ED32srBPdGcQBd5TcAT2qfB+++5QARm
AkE74NXBWYaoQEd+wUB3VtnBdRH6QHzIaL7E57vBPmjVQAjiBsBg0LLBjPzpQP0jB0BhwLbBv3Z7
QGdWYUBzjLjB5Sb4QCZvlED+UqvB4++KQAsKoECkIMjBFcsCQbHswkBu+LrBOhKRQJEuMT9F5Z7B
wYaIQFGvd795zJTBH72fQLxdVcBJl4bB50N/QMGFmcB50YjBxxnoP5uUVMDfL4jBOkM0QKjN7b+v
9YXB4wtBQHqhccDvDprBMx6ZQAKciUA0WIbBZ1TDQCNRRUCF5IbBZV/OQFW6mUAc84nBxNCSQI7o
4UBub8zBzYtWQAN8QEAYfajBJJcCQNWMZkDJxZfBoBc9QGuqgUD6kIzBu//gQJALk71mqLXBOl3O
QCZAj7/Ryq/BuG3XQCKfoT8fH7PBgoebQG5vgkBFRrnBYdvfQDrNl0CVfbHBhEqjQE8znUA0GcLB
WJbnQPlvskA3T7rBpA2oQIanAD/D0KTBDk2yQGOXV78VOKfBjmi5QNnQf0BMy7DB9xm6QIhJyD9S
0arBqGjJQLvEtUDVmcLBIJ/KQLhVVkDVg53BLzmDQDELZUCjAprBXKyYQM4R6L/B85XBJq6hQKIK
/L/ht6DBKGQ9QEt8QMCc+onBw09VQAv7f8Aq8ZLBlWqLQLSKPsCk5I7BdkKxQBIiQUCujqfB1K62
QMstgUA41orBkGqvQGJK4UAbDtHBQsysQBwGc0DWKJbBNZuEQCjZS0BEBaTBd5A7QN3Bb0CTNJTB
XN7wQDkvSkDx55vBgCDTQL7T0ECNA8vBJmWgQFgdTcAoK6XBDy6WQIkE+kBIr8rBQd2+QBya+UBf
KNnB8L32QA1xlr5tIrzBhI3VQH8wCcDH2rHBa4DmQGkUBEAWhrfByRV9QGZQX0Dm9rjBHF73QHZ6
lUBBL6vBpzGMQGQRn0AwgsjBNH0CQUuKxEBsu7rBUEOSQATaOD/hV57BwiibQCs0VL+scpLBshYQ
QH0tDMAKmYvBx2I0QDCNV8DCvYHBNH9dQNUrosAOG5HBHzM5QPj3eMBW9prBte6kQJQfWcCm0onB
C7+ZQOxmjEB0r4bBRdbBQEaBRkAGI4fBP+LPQLOfmUBMNIrBnd+cQK5DxkCuQ9TB9ddVQA1hQUD8
m6jB9fACQNAPZEC1opfB/jE+QLmWgUD0lozB

> <OMEGA_E>
gLl4PcDU0T0=

> <OMEGA_NBR>
     15294

$$$$
50168840
  -OEChem-04172616093D

 51 53  0     1  0  0  0  0  0999 V2000
    7.1567    0.0125  -22.7326 C   0  0  0  0  0  0  0  0  0  0  0  0
    6.5215   -1.0753  -22.1195 C   0  0  0  0  0  0  0  0  0  0  0  0
    6.8407    1.3201  -22.3427 C   0  0  0  0  0  0  0  0  0  0  0  0
    4.8249    4.0978  -23.1083 C   0  0  0  0  0  0  0  0  0  0  0  0
    6.9923    4.7227  -22.1821 C   0  0  0  0  0  0  0  0  0  0  0  0
    5.0584    4.9339  -24.2150 C   0  0  0  0  0  0  0  0  0  0  0  0
    7.2268    5.5506  -23.2898 C   0  0  0  0  0  0  0  0  0  0  0  0
    5.2650    0.4506  -20.6846 C   0  0  0  0  0  0  0  0  0  0  0  0
    5.5856   -0.8720  -21.0877 C   0  0  0  0  0  0  0  0  0  0  0  0
    5.7798    3.9970  -22.0682 C   0  0  0  0  0  0  0  0  0  0  0  0
    5.8651    1.5604  -21.3433 C   0  0  0  0  0  0  0  0  0  0  0  0
    6.2651    5.6763  -24.3066 C   0  0  0  0  0  0  0  0  0  0  0  0
    6.3347    3.3466  -19.6642 C   0  0  0  0  0  0  0  0  0  0  0  0
    4.1015    3.6000  -19.2450 C   0  0  0  0  0  0  0  0  0  0  0  0
    4.9646   -2.0786  -20.5009 C   0  0  0  0  0  0  0  0  0  0  0  0
    4.3502   -2.1178  -19.2723 C   0  0  0  0  0  0  0  0  0  0  0  0
    5.5472    3.0010  -20.9164 C   0  0  1  0  0  0  0  0  0  0  0  0
    5.7041    4.0956  -17.3500 C   0  0  0  0  0  0  0  0  0  0  0  0
    2.8435   -2.8251  -16.6361 C   0  0  0  0  0  0  0  0  0  0  0  0
    3.8212   -3.4428  -18.7568 C   0  0  0  0  0  0  0  0  0  0  0  0
    5.4645    6.9461  -26.1875 C   0  0  0  0  0  0  0  0  0  0  0  0
    5.4000    3.8154  -18.7587 N   0  0  0  0  0  0  0  0  0  0  0  0
    4.1505    3.1314  -20.4698 N   0  3  0  0  0  0  0  0  0  0  0  0
    2.9255    3.8349  -18.5486 N   0  0  0  0  0  0  0  0  0  0  0  0
    7.5299    3.1625  -19.4577 O   0  0  0  0  0  0  0  0  0  0  0  0
    6.5627    6.5377  -25.3489 O   0  0  0  0  0  0  0  0  0  0  0  0
    2.6147   -3.2411  -17.9989 O   0  0  0  0  0  0  0  0  0  0  0  0
    5.7852    8.1294  -26.7661 F   0  0  0  0  0  0  0  0  0  0  0  0
    5.2501    6.0176  -27.1569 F   0  0  0  0  0  0  0  0  0  0  0  0
    7.8906   -0.1574  -23.5065 H   0  0  0  0  0  0  0  0  0  0  0  0
    6.7522   -2.0800  -22.4416 H   0  0  0  0  0  0  0  0  0  0  0  0
    7.3455    2.1536  -22.8084 H   0  0  0  0  0  0  0  0  0  0  0  0
    3.9092    3.5279  -23.0516 H   0  0  0  0  0  0  0  0  0  0  0  0
    7.7419    4.6373  -21.4094 H   0  0  0  0  0  0  0  0  0  0  0  0
    4.3177    5.0113  -24.9973 H   0  0  0  0  0  0  0  0  0  0  0  0
    8.1557    6.0969  -23.3619 H   0  0  0  0  0  0  0  0  0  0  0  0
    4.5657    0.6149  -19.8781 H   0  0  0  0  0  0  0  0  0  0  0  0
    4.9960   -2.9915  -21.0771 H   0  0  0  0  0  0  0  0  0  0  0  0
    4.2455   -1.2190  -18.6828 H   0  0  0  0  0  0  0  0  0  0  0  0
    4.7969    4.4561  -16.8431 H   0  0  0  0  0  0  0  0  0  0  0  0
    6.0560    3.1752  -16.8609 H   0  0  0  0  0  0  0  0  0  0  0  0
    6.4878    4.8652  -17.2902 H   0  0  0  0  0  0  0  0  0  0  0  0
    1.8782   -2.6927  -16.1256 H   0  0  0  0  0  0  0  0  0  0  0  0
    3.4327   -3.5925  -16.1126 H   0  0  0  0  0  0  0  0  0  0  0  0
    3.3945   -1.8730  -16.6310 H   0  0  0  0  0  0  0  0  0  0  0  0
    3.6072   -4.1040  -19.6094 H   0  0  0  0  0  0  0  0  0  0  0  0
    4.5803   -3.9098  -18.1121 H   0  0  0  0  0  0  0  0  0  0  0  0
    4.5639    7.0593  -25.5662 H   0  0  0  0  0  0  0  0  0  0  0  0
    3.3510    2.8959  -21.0223 H   0  0  0  0  0  0  0  0  0  0  0  0
    2.0430    3.6455  -18.9793 H   0  0  0  0  0  0  0  0  0  0  0  0
    2.9599    4.1938  -17.6159 H   0  0  0  0  0  0  0  0  0  0  0  0
  1  2  1  0  0  0  0
  1  3  2  0  0  0  0
  2  9  2  0  0  0  0
  3 11  1  0  0  0  0
  4  6  2  0  0  0  0
  4 10  1  0  0  0  0
  5  7  1  0  0  0  0
  5 10  2  0  0  0  0
  6 12  1  0  0  0  0
  7 12  2  0  0  0  0
  8  9  1  0  0  0  0
  8 11  2  0  0  0  0
  9 15  1  0  0  0  0
 10 17  1  0  0  0  0
 11 17  1  0  0  0  0
 12 26  1  0  0  0  0
 13 17  1  0  0  0  0
 13 22  1  0  0  0  0
 13 25  2  0  0  0  0
 14 22  1  0  0  0  0
 14 23  2  0  0  0  0
 14 24  1  0  0  0  0
 15 16  2  0  0  0  0
 16 20  1  0  0  0  0
 17 23  1  0  0  0  0
 18 22  1  0  0  0  0
 19 27  1  0  0  0  0
 20 27  1  0  0  0  0
 21 26  1  0  0  0  0
 21 28  1  0  0  0  0
 21 29  1  0  0  0  0
  1 30  1  0  0  0  0
  2 31  1  0  0  0  0
  3 32  1  0  0  0  0
  4 33  1  0  0  0  0
  5 34  1  0  0  0  0
  6 35  1  0  0  0  0
  7 36  1  0  0  0  0
  8 37  1  0  0  0  0
 15 38  1  0  0  0  0
 16 39  1  0  0  0  0
 18 40  1  0  0  0  0
 18 41  1  0  0  0  0
 18 42  1  0  0  0  0
 19 43  1  0  0  0  0
 19 44  1  0  0  0  0
 19 45  1  0  0  0  0
 20 46  1  0  0  0  0
 20 47  1  0  0  0  0
 21 48  1  0  0  0  0
 23 49  1  0  0  0  0
 24 50  1  0  0  0  0
 24 51  1  0  0  0  0
M  CHG  1  23   1
M  END
> <OMEGA_C>
kAPlQEApTDxl3LXBMrDQQJajib+l9LDB9ObaQIL5qD/yvbLBNGWaQGohg0DK3bjBpcDfQGMgl0AB
dbHBHN6hQDXinUBouMHBDkLnQLWesUB+UbrBh3qoQNu15j77eaXB17yyQEk7X7+Ps6jBuvO4QBHP
f0Cdi7DBSq+7QPm6xz8kv6rBtHvIQOijtUADdMLBHbbKQDgvVkA3UJ3Bqj+DQKFmZkDA9ZnBEd6e
QJMHBcDKAaTBuzSLQNWJB8C8LZrBgIKxQLQQQEDCVKfBSoi2QO0Og0C+zIrBR/w1QKDONMCiFoXB
q450QLNWXMDaDZbBN92uQGdG3kAEgNHBmMysQFUwdEDoEZbB3NCEQBdpSEASwqPB8zo7QIJvdUCY
Y5TBHvXwQBZnSkBbqZvBkgHSQLc00UCaysrB3VcnQF1uT8Cs/Y/B/x+5QNQRAkHzINbBsgCoQA+Q
wEBBQdnBoH/8QBcuIb5gDbzBBxLYQN8eBcBPiLPBmA7rQGzUCUCnd7bBdzB6QMPJYUCZabjBiL33
QOdklEBdRqvB1CqKQGxcoEBk+sfBnX0CQe8Zw0AZ5brBGRqSQDdoHT9HBp/Bjt+fQKt0P8DanajB
DtuHQKsGnL9ldpXBJ4CZQJGYjkCvvobBzMrBQOg2S0A144bBCpzPQJevm0BUUorBMGjwP8JULMA0
AYHBmbFbQP/qZcCT5oDB6j5ZQNK/779VDIXBrtxmQN5Tg8AZ4JzB4ZGSQNc6esCE5ZDBLwuSQPnl
4UCRh8zB5nZWQP5VOUC+LajBUMECQI1PaUCC1ZfBaW49QGwzhkBM7YzB1BvkQGCqwDxA6bXBKo3Q
QAxGiL9i2LDBCq/ZQL4bqj/S2bLBBh2bQIjJgkDWILnB3qLfQOCul0BYY7HBzEKjQOIenUDuBcLB
CLznQOzlsUD6RLrBZManQCUT6j5GcaXBbNOyQH0aXr9EhqjBnuW4QCI1gEDOn7DBUqC6QPbTyD9k
0KrBlJvJQKdZtUAakcLBjkfKQNVzVkDgZJ3Bru+CQGLTZUB65pnBUmShQBYRBsBYfqPB0n+HQNnU
CMAAm5rBsOOwQBTuQEDUZqfBGJu2QGWFgkAw0IrBDnhFQNxcOMDWjoTB19lwQIh/X8BefZbBeMCv
QKo84EB+MNHBXI6sQJ89dEC+F5bBHEWEQIuESkCs06PBRQI7QNHhcUCIIZTB4oPwQF4tSkA8yJvB
JlfTQImp0ECm8MrBIRGAQJY/aMDaKovBItuTQO469kBg4crBBhi/QPcL+0AYzdjBLkH7QKArFL48
L7zB7lvYQAtrBMCzWbPBJnvpQHV3CkDVp7bBWch7QPPFYEAKybjBfxv3QCVZlUC8EqvBkUSMQCTo
nkBCdcjB6q8CQfmSw0CUu7rBQiWRQDz4Hj+KC5/B9sWpQAx5QsAHIqfBmwZ8QH0anb92nJbBwr+Z
QEIWjkCYr4bB3L3BQIKkSUBc/4bBkd7PQH/ymkC/TYrBzGRVQJhtQsBkKHjBZ5dKQOS1578ae4bB
Fq8DQM5JTsDRE4bBM9YrQMbwZcB+B5jBkM+JQIopicANwZrB0H2fQMLaxEAn8NTBLSRVQGD8PUAt
VKjBtFwCQNmPZUBLhZfBia49QH5yg0DzlIzBxdrkQAB9m7ttsbXBcjjQQNIii7/SybDBMOraQDIp
pz8hn7LBHGubQEKpgUDpJbnBEmXfQM3kl0CqYbHBR/SiQBtVnEAeBcLBKN7mQLR3skC0PLrBT/en
QBnb5j71aqXB4SuyQJ8jYL9LkajBhDW5QPwzf0Cco7DBWXq7QAQRxz9Os6rB4r/IQHiItUBij8LB
T7/KQAU4VkDIWJ3BJUyDQGcpZkDu+JnBS1SeQD8NBcB2zKPBGo2KQGcMB8As+5nBqYuxQOUOQEAM
XafBfJ22QJzCgkDzzorBTHQyQN04MsAqBYXBvbpzQBfHW8CuwZXBNmqwQKFR30BA89HBJ9qsQCE4
dEAhGJbBMtyEQIdWSUCX06PBO1Q7QJXRc0C4V5TBdvnwQPcrSkCFspvBzZXSQB+E0UB53srBtpkl
QC81T8Be3Y/BmAClQEdBv0BfudjB1cqNQC2M7UAMW8zBxHH8QHegOb7s2LvBQHDXQCsCBsD4VrPB
bmDrQLChCED1U7bBp0F9QHQrXUCV1LjBO/L2QM7vlUDHE6vBC+iLQKmonUAYc8jBKQ8CQUvLxEBM
qrrB0miRQMlCHz9KBJ/BOXafQKvHP8CYWKjB/++GQO5fmr+IV5XBn6OZQGtcjkBmvYbBOrXBQPJQ
SkAS8IbBJNPPQF89m0C3SorBxRnoPzAtKsCqEoHB7JpYQHnFYcBynoDBmodUQF0+6b8UGoXBaGpn
QGeJg8DThZzBoASSQJhteMBdc5DBiPe8QEsQ+kD7u9bB9INWQEGYO0DGTqjB8eACQOuLZ0AsyZfB
uYM9QPT3hEAw14zB

> <OMEGA_E>
YHhEPki9Vj5ABlg+

> <OMEGA_NBR>
     18168

$$$$
50168811
  -OEChem-04172616093D

 51 54  0     1  0  0  0  0  0999 V2000
    6.5057   -0.1927  -22.9736 C   0  0  0  0  0  0  0  0  0  0  0  0
    6.2975   -1.1983  -22.0119 C   0  0  0  0  0  0  0  0  0  0  0  0
    6.2925    1.1587  -22.6423 C   0  0  0  0  0  0  0  0  0  0  0  0
    4.7848    4.2583  -23.0032 C   0  0  0  0  0  0  0  0  0  0  0  0
    7.1246    4.4681  -22.3460 C   0  0  0  0  0  0  0  0  0  0  0  0
    5.0128    5.1222  -24.0856 C   0  0  0  0  0  0  0  0  0  0  0  0
    7.3520    5.3300  -23.4313 C   0  0  0  0  0  0  0  0  0  0  0  0
    5.6649    0.4994  -20.3792 C   0  0  0  0  0  0  0  0  0  0  0  0
    5.8951   -0.8538  -20.7055 C   0  0  0  0  0  0  0  0  0  0  0  0
    5.8271    3.9553  -22.0944 C   0  0  0  0  0  0  0  0  0  0  0  0
    5.8644    1.5195  -21.3358 C   0  0  0  0  0  0  0  0  0  0  0  0
    6.2978    5.6838  -24.2943 C   0  0  0  0  0  0  0  0  0  0  0  0
    6.3538    3.3746  -19.6808 C   0  0  0  0  0  0  0  0  0  0  0  0
    4.1081    3.5845  -19.2627 C   0  0  0  0  0  0  0  0  0  0  0  0
    6.2181   -1.8974  -18.4506 C   0  0  0  0  0  0  0  0  0  0  0  0
    5.6479   -1.9145  -19.7081 C   0  0  0  0  0  0  0  0  0  0  0  0
    6.8600    0.2979  -17.1761 C   0  0  0  0  0  0  0  0  0  0  0  0
    7.6549   -0.8493  -16.5589 C   0  0  0  0  0  0  0  0  0  0  0  0
    7.2826   -0.8921  -18.0514 C   0  0  0  0  0  0  0  0  0  0  0  0
    5.5752    2.9766  -20.9367 C   0  0  1  0  0  0  0  0  0  0  0  0
    5.7043    4.1924  -17.3814 C   0  0  0  0  0  0  0  0  0  0  0  0
    5.4566    7.3204  -25.8426 C   0  0  0  0  0  0  0  0  0  0  0  0
    5.4031    3.8287  -18.7765 N   0  0  0  0  0  0  0  0  0  0  0  0
    4.1712    3.0877  -20.4795 N   0  3  0  0  0  0  0  0  0  0  0  0
    2.9215    3.8241  -18.5783 N   0  0  0  0  0  0  0  0  0  0  0  0
    7.5603    3.2785  -19.4815 O   0  0  0  0  0  0  0  0  0  0  0  0
    6.5763    6.5695  -25.3212 O   0  0  0  0  0  0  0  0  0  0  0  0
    4.8061   -2.9242  -20.0282 F   0  0  0  0  0  0  0  0  0  0  0  0
    5.9257    8.4696  -26.3898 F   0  0  0  0  0  0  0  0  0  0  0  0
    4.8155    6.6032  -26.8044 F   0  0  0  0  0  0  0  0  0  0  0  0
    6.8302   -0.4584  -23.9688 H   0  0  0  0  0  0  0  0  0  0  0  0
    6.4460   -2.2352  -22.2748 H   0  0  0  0  0  0  0  0  0  0  0  0
    6.4550    1.9257  -23.3851 H   0  0  0  0  0  0  0  0  0  0  0  0
    3.8071    3.8216  -22.8625 H   0  0  0  0  0  0  0  0  0  0  0  0
    7.9442    4.1940  -21.6983 H   0  0  0  0  0  0  0  0  0  0  0  0
    4.2057    5.3603  -24.7626 H   0  0  0  0  0  0  0  0  0  0  0  0
    8.3425    5.7239  -23.6048 H   0  0  0  0  0  0  0  0  0  0  0  0
    5.3317    0.7587  -19.3851 H   0  0  0  0  0  0  0  0  0  0  0  0
    5.8942   -2.6273  -17.7235 H   0  0  0  0  0  0  0  0  0  0  0  0
    5.8012    0.4367  -16.9122 H   0  0  0  0  0  0  0  0  0  0  0  0
    7.3342    1.2801  -17.3188 H   0  0  0  0  0  0  0  0  0  0  0  0
    8.7013   -0.6932  -16.2578 H   0  0  0  0  0  0  0  0  0  0  0  0
    7.1683   -1.5366  -15.8512 H   0  0  0  0  0  0  0  0  0  0  0  0
    8.0971   -0.7138  -18.7689 H   0  0  0  0  0  0  0  0  0  0  0  0
    4.7816    4.5196  -16.8799 H   0  0  0  0  0  0  0  0  0  0  0  0
    6.1171    3.3188  -16.8558 H   0  0  0  0  0  0  0  0  0  0  0  0
    6.4395    5.0105  -17.3664 H   0  0  0  0  0  0  0  0  0  0  0  0
    4.7658    7.5479  -25.0174 H   0  0  0  0  0  0  0  0  0  0  0  0
    3.3759    2.8204  -21.0236 H   0  0  0  0  0  0  0  0  0  0  0  0
    2.0441    3.6165  -19.0108 H   0  0  0  0  0  0  0  0  0  0  0  0
    2.9456    4.2042  -17.6536 H   0  0  0  0  0  0  0  0  0  0  0  0
  1  2  1  0  0  0  0
  1  3  2  0  0  0  0
  2  9  2  0  0  0  0
  3 11  1  0  0  0  0
  4  6  2  0  0  0  0
  4 10  1  0  0  0  0
  5  7  1  0  0  0  0
  5 10  2  0  0  0  0
  6 12  1  0  0  0  0
  7 12  2  0  0  0  0
  8  9  1  0  0  0  0
  8 11  2  0  0  0  0
  9 16  1  0  0  0  0
 10 20  1  0  0  0  0
 11 20  1  0  0  0  0
 12 27  1  0  0  0  0
 13 20  1  0  0  0  0
 13 23  1  0  0  0  0
 13 26  2  0  0  0  0
 14 23  1  0  0  0  0
 14 24  2  0  0  0  0
 14 25  1  0  0  0  0
 15 16  2  0  0  0  0
 15 19  1  0  0  0  0
 16 28  1  0  0  0  0
 17 18  1  0  0  0  0
 17 19  1  0  0  0  0
 18 19  1  0  0  0  0
 20 24  1  0  0  0  0
 21 23  1  0  0  0  0
 22 27  1  0  0  0  0
 22 29  1  0  0  0  0
 22 30  1  0  0  0  0
  1 31  1  0  0  0  0
  2 32  1  0  0  0  0
  3 33  1  0  0  0  0
  4 34  1  0  0  0  0
  5 35  1  0  0  0  0
  6 36  1  0  0  0  0
  7 37  1  0  0  0  0
  8 38  1  0  0  0  0
 15 39  1  0  0  0  0
 17 40  1  0  0  0  0
 17 41  1  0  0  0  0
 18 42  1  0  0  0  0
 18 43  1  0  0  0  0
 19 44  1  0  0  0  0
 21 45  1  0  0  0  0
 21 46  1  0  0  0  0
 21 47  1  0  0  0  0
 22 48  1  0  0  0  0
 24 49  1  0  0  0  0
 25 50  1  0  0  0  0
 25 51  1  0  0  0  0
M  CHG  1  24   1
M  END
> <OMEGA_C>
+i7QQDFWRb7eybfBy4TJQLlimb9cGLDB1FvJQDRPlD96I7XB7hyZQEhEiEB3BrjBofzjQAz7jkCj
xLLBfWigQG/po0BNr8DB1kPrQAOPqkA0c7vBgka1QEyt/z6VCKPBRaS8QCSTWr/UpKXBZne6QAEk
fUBswbDBU6m7QPx/wj+sr6rB74fJQAXitUDMWsLBJlLLQOP5V0BOcp3BVXWDQDtoZUD5GZrBcvrG
QLPe8r/dmpPBM7u0QMMM9b8xqp3BM4XbQGWAmD68aInBlvT0QNBpWb+ieITB4QrpQA5iZL9caZDB
ymeyQDSBPkBrfqfBc4m2QHcohkAaDYvBv5yuQF9A6kClvc7BTuasQN8JdUBONpbBc3qFQPWcRUDr
1aPB9Pk6QLi+dEBNoJTB/+3xQI/TUUAG2pvB0nDSQHk50kC5kcrBzcuZQL4mO8DAOaDBWJ+9QKeD
B0E4HtPBpBiaQJtN00B7b9bB8ZDaQMyx6r4pwL/By0XOQFEOD8DKMrLBF4/OQFx89j+oFLvBaKdz
QP2UdEBr5rbBrTb+QHw1hkAclq3BvpSGQLmHq0DHGcbB+XoFQTcqt0C11rzBgp2qQPI3Qj+2FJvB
FJ28QPQlKMCqyY3BiKO5QGWU3z4kTIfBmbHqQJ/aoz/PjIrBazgLQSx2Mb//D4LBxWLlQJywxL+p
nn3Bu40BQT+6Nr+2JpbBlQKZQO+gkED2CYfBcL/DQMJmVECm2IbBPRDOQClWoEBt7orBmIGYQJuI
8UCYI8jBGg9YQMGBNEBUMKjBytICQCl0Z0AQFpjBHYU8QG2IhkCVOo3BZvziQCJGGb4gFbXBMXfL
QHIFl79LKrDBek/bQLe6mD+fTbLBQ4SZQEYMh0AjXLjBZ4vjQPuCkEDWkbLBltqgQJIIo0CW/MDB
4PnqQP/Iq0BjSrvBr+SkQEY08j4ZjaXBxdusQJ9BX78IP6jBv3q6QGzHfEAH3bDBLVq7QHzswj9K
q6rB4pfJQEnBtUDAZsLBeznLQBJeV0Apa53BFWmDQJv9ZEBcBprBfumTQLzRC8AaT5jBYPSTQKyW
+r+wNqPBTem2QPkU/b+Dj4XBo47aQNQp4L9/tI3BiIqsQDqjqb+5aJDBhkqyQAXwPkBmfafB+pq2
QBtVhUDE9orBsRO3QJv89kBq9srBNuGsQC8zdECnJJbBKFOFQKEDSUBD7qPBT/U6QFHScUD7b5TB
HdjxQEkvUUBa15vBccPRQLtM0UDNvsrBZOd8QM5fNMDJm6nBoYu+QOS7B0FaI8LB7QfBQOQHB0Fx
0dPBhPj6QJ1zx77q/7rBKNrQQG5HDcDkdLLB1NvtQPs7/T/MALbBtC51QFshcEC/cLfBo1D9QHA/
iUBNG63BSVKHQFEyqkD+hsbBOTkFQccouUANi7zB8VuNQGHKND9RgZ/BRHSBQIvmQMAdQZXBb8Wr
QCTgP8AZ1YPBL9m1QB8gsL9qZHzBBSvzQObUfL+FM4zBRRfpQE4FJ8Bo1pHBtKylQKtZfL48X5DB
uSKZQNjIj0Aq7IbBxLnDQPtfUkDp0YbBrjvOQFpqn0Dzy4rBNk+VQLcY7UDINcvBQ41XQPIyPEA5
eajB5cgCQEKXZUDx85fBW5E8QPKjg0A654zB

> <OMEGA_E>
0LGPPiR1hz4=

> <OMEGA_NBR>
     20183

$$$$
50168839
  -OEChem-04172616093D

 54 56  0     1  0  0  0  0  0999 V2000
    7.0323   -0.0481  -22.6422 C   0  0  0  0  0  0  0  0  0  0  0  0
    6.3774   -1.0808  -21.9499 C   0  0  0  0  0  0  0  0  0  0  0  0
    6.7508    1.2926  -22.3388 C   0  0  0  0  0  0  0  0  0  0  0  0
    7.0130    4.7645  -22.1899 C   0  0  0  0  0  0  0  0  0  0  0  0
    4.8852    4.0798  -23.1690 C   0  0  0  0  0  0  0  0  0  0  0  0
    7.2634    5.5739  -23.3057 C   0  0  0  0  0  0  0  0  0  0  0  0
    5.1310    4.9022  -24.2796 C   0  0  0  0  0  0  0  0  0  0  0  0
    5.1404    0.5689  -20.6540 C   0  0  0  0  0  0  0  0  0  0  0  0
    5.4295   -0.7762  -20.9416 C   0  0  0  0  0  0  0  0  0  0  0  0
    5.8102    4.0231  -22.0998 C   0  0  0  0  0  0  0  0  0  0  0  0
    5.7828    1.6144  -21.3553 C   0  0  0  0  0  0  0  0  0  0  0  0
    6.3235    5.6677  -24.3453 C   0  0  0  0  0  0  0  0  0  0  0  0
    6.3363    3.3457  -19.6734 C   0  0  0  0  0  0  0  0  0  0  0  0
    4.0956    3.4885  -19.2101 C   0  0  0  0  0  0  0  0  0  0  0  0
    4.7302   -1.8204  -20.1595 C   0  0  0  0  0  0  0  0  0  0  0  0
    5.0742   -3.1579  -20.2285 C   0  0  0  0  0  0  0  0  0  0  0  0
    5.5390    3.0643  -20.9389 C   0  0  1  0  0  0  0  0  0  0  0  0
    5.7065    3.8720  -17.2919 C   0  0  0  0  0  0  0  0  0  0  0  0
    3.0408   -2.4987  -16.4019 C   0  0  0  0  0  0  0  0  0  0  0  0
    4.4123   -4.2631  -19.4128 C   0  0  0  0  0  0  0  0  0  0  0  0
    3.3643   -3.7993  -18.3910 C   0  0  0  0  0  0  0  0  0  0  0  0
    5.5109    6.9873  -26.1725 C   0  0  0  0  0  0  0  0  0  0  0  0
    5.3906    3.4883  -18.6730 N   0  0  0  0  0  0  0  0  0  0  0  0
    4.1455    3.2693  -20.5028 N   0  3  0  0  0  0  0  0  0  0  0  0
    2.9200    3.6526  -18.4933 N   0  0  0  0  0  0  0  0  0  0  0  0
    7.5470    3.2350  -19.5095 O   0  0  0  0  0  0  0  0  0  0  0  0
    6.6232    6.5247  -25.3858 O   0  0  0  0  0  0  0  0  0  0  0  0
    3.9734   -2.9678  -17.3870 O   0  0  0  0  0  0  0  0  0  0  0  0
    5.8138    8.2158  -26.6567 F   0  0  0  0  0  0  0  0  0  0  0  0
    5.2931    6.1333  -27.2067 F   0  0  0  0  0  0  0  0  0  0  0  0
    7.7539   -0.2869  -23.4094 H   0  0  0  0  0  0  0  0  0  0  0  0
    6.5975   -2.1111  -22.1874 H   0  0  0  0  0  0  0  0  0  0  0  0
    7.2741    2.0825  -22.8570 H   0  0  0  0  0  0  0  0  0  0  0  0
    7.7411    4.7058  -21.3944 H   0  0  0  0  0  0  0  0  0  0  0  0
    3.9838    3.4861  -23.1303 H   0  0  0  0  0  0  0  0  0  0  0  0
    8.1869    6.1304  -23.3670 H   0  0  0  0  0  0  0  0  0  0  0  0
    4.4122    4.9522  -25.0841 H   0  0  0  0  0  0  0  0  0  0  0  0
    4.4180    0.8066  -19.8871 H   0  0  0  0  0  0  0  0  0  0  0  0
    3.9195   -1.5261  -19.5095 H   0  0  0  0  0  0  0  0  0  0  0  0
    5.8661   -3.4391  -20.9069 H   0  0  0  0  0  0  0  0  0  0  0  0
    4.7795    3.9138  -16.7012 H   0  0  0  0  0  0  0  0  0  0  0  0
    6.3883    3.1293  -16.8519 H   0  0  0  0  0  0  0  0  0  0  0  0
    6.1889    4.8606  -17.2873 H   0  0  0  0  0  0  0  0  0  0  0  0
    3.5673   -1.8719  -15.6671 H   0  0  0  0  0  0  0  0  0  0  0  0
    2.2555   -1.9059  -16.8936 H   0  0  0  0  0  0  0  0  0  0  0  0
    2.5847   -3.3589  -15.8900 H   0  0  0  0  0  0  0  0  0  0  0  0
    3.9188   -4.9517  -20.1144 H   0  0  0  0  0  0  0  0  0  0  0  0
    5.2023   -4.7997  -18.8669 H   0  0  0  0  0  0  0  0  0  0  0  0
    2.5817   -3.2262  -18.9097 H   0  0  0  0  0  0  0  0  0  0  0  0
    2.9150   -4.6796  -17.9082 H   0  0  0  0  0  0  0  0  0  0  0  0
    4.6182    7.0414  -25.5320 H   0  0  0  0  0  0  0  0  0  0  0  0
    3.3496    3.2448  -21.1077 H   0  0  0  0  0  0  0  0  0  0  0  0
    2.0379    3.6065  -18.9621 H   0  0  0  0  0  0  0  0  0  0  0  0
    2.9543    3.8171  -17.5075 H   0  0  0  0  0  0  0  0  0  0  0  0
  1  2  1  0  0  0  0
  1  3  2  0  0  0  0
  2  9  2  0  0  0  0
  3 11  1  0  0  0  0
  4  6  2  0  0  0  0
  4 10  1  0  0  0  0
  5  7  1  0  0  0  0
  5 10  2  0  0  0  0
  6 12  1  0  0  0  0
  7 12  2  0  0  0  0
  8  9  1  0  0  0  0
  8 11  2  0  0  0  0
  9 15  1  0  0  0  0
 10 17  1  0  0  0  0
 11 17  1  0  0  0  0
 12 27  1  0  0  0  0
 13 17  1  0  0  0  0
 13 23  1  0  0  0  0
 13 26  2  0  0  0  0
 14 23  1  0  0  0  0
 14 24  2  0  0  0  0
 14 25  1  0  0  0  0
 15 16  2  0  0  0  0
 16 20  1  0  0  0  0
 17 24  1  0  0  0  0
 18 23  1  0  0  0  0
 19 28  1  0  0  0  0
 20 21  1  0  0  0  0
 21 28  1  0  0  0  0
 22 27  1  0  0  0  0
 22 29  1  0  0  0  0
 22 30  1  0  0  0  0
  1 31  1  0  0  0  0
  2 32  1  0  0  0  0
  3 33  1  0  0  0  0
  4 34  1  0  0  0  0
  5 35  1  0  0  0  0
  6 36  1  0  0  0  0
  7 37  1  0  0  0  0
  8 38  1  0  0  0  0
 15 39  1  0  0  0  0
 16 40  1  0  0  0  0
 18 41  1  0  0  0  0
 18 42  1  0  0  0  0
 18 43  1  0  0  0  0
 19 44  1  0  0  0  0
 19 45  1  0  0  0  0
 19 46  1  0  0  0  0
 20 47  1  0  0  0  0
 20 48  1  0  0  0  0
 21 49  1  0  0  0  0
 21 50  1  0  0  0  0
 22 51  1  0  0  0  0
 24 52  1  0  0  0  0
 25 53  1  0  0  0  0
 25 54  1  0  0  0  0
M  CHG  1  24   1
M  END
> <OMEGA_C>
bgjhQAQFRb0oI7XBEBTMQEVXir9rma/BYwbYQFNypT/ftbLBYWrgQLR2mEDchLHBllOcQGyNgkAM
WrnBqm3oQP9cskD5cbrBLjGkQL/enECIPMLBS36kQN2jET9XO6XB0L6tQJ+yRr9WiKfBN+25QJO9
gEBnzLDBTwy5QOmjzj+o16rB9VnKQOtdtUAow8LB/sLKQP0fVkAmY53B+A6DQEJEX0BarpnBIV6X
QPIC6b+qRqHBxl+iQOwaSsAE1KHBOz+xQAIeREDbgqfB2Zu2QAPPd0C7VYrBE51CQM3qH8AVN4PB
sDGNQFJriMBjTZvBl1BXQI8nc8C6IJPBcVmwQDqY30BJYdHBxX+sQOdAX0BSYpXBH6iEQPU8UUCl
BaTBheE6QKfEaUA78pPBooDxQNoJT0CLE5zBA/HTQJrK0EAxFsvBaEx+QArxPcCiGIvBsAq6QORz
A0HYQNXBG2GpQMhDxEA9p9nBoR/4QDnfkr6KRrvB/R7TQI4cB8C5f7HBJsXoQI5HBUA227bBfbf3
QNyVlkDKJ6vBDPd+QGUcX0DRCrnBtP0CQdUrxECP77rB5jCNQDt4nkAvrMjBmWCNQN9+Tj/TGJ/B
1Nl6QHxWw79kE5zBSLe7QBQaXMBLQafBx/GYQEJ7ekADnIXBCm3MQDNGSEDI0IbBnAvGQOWJm0BY
TIrB101kQLGZ779NrHrBaVkQQEX1878fJofBVWslQBT4VsCZPX7BbM16QKp0nsA16qDBXnmmQBOX
mcB075bBqjolQJp5TsAcR5fBi446QIa/lcD2Q4/BksiTQApT4UCeQczBcGBWQCCqT0CT3KjBS20C
QJbQZkBZspfBsxM9QINLdEBZD4zBZo/hQJzsnb14yLTBl5XLQLB2jL9nTq/B6+PYQDLroj8kfLLB
n+WcQD7sgUAEW7nBmIrgQOrmmEAngrHBomSkQJU6nEBcPsLBSzToQCjbskBjdbrBw9ejQMNCFT/K
TKXBxHCsQHyXQ7/uiKfBp266QPmagEAjzbDBaXa5QLihzj+KxqrBMCXKQOJptUADz8LBMf7KQEV4
VkCCVp3B4S+DQKbfXkD9tpnBCm6SQLVC478Z+aHB5VCdQAPeRsDydaHBj8CxQNVIREA6fqfBXUu2
QJv0dkCwR4rBkhcxQNwQJcCMx4LBooh/QNy7g8CDPJzBzIt4QM43esBlF5DBDeqwQNjv30Ae49HB
5IWsQHusXkCnW5XBHBGFQCXZUUA2EqTBS806QFzSaEBOCJTBQbzxQCXwT0B7/pvBSM7TQKHk0EDH
NMvBB5xGQK/pLsBf243By/2iQERNwEAPgNjBZQCQQAVk70BN3MvBjyL5QDWzqb6jw7rBbnzSQNyI
CMChCLHBOjzqQLRSA0CPm7bBWlSAQMkGXUADC7nBSND3QMhzl0CYIavBvGCNQC1YnUDXrsjBxMAC
QeITxUDH8brBm1KMQNOvVT9VTJ/BlZZqQNtTur//F57B/VS7QG0JXMDr06TBqIaYQF7XeEDzloXB
tkbMQDm0R0Dlw4bBoWrFQPNCm0CyLorBPx8LQAfR1L/JtIHBo4gLQN6nXMC+HIDB9BxsQBOYIMDL
B3zBTGo/QKSWgMCpyJ/BfTKMQDYWpMARxp3BKGtZQP4lmcCfdozBM4KcQBJ4csAksYzBRn+9QIU3
+kAi09bBm4FXQDMzUUDm9qjBJpECQBo7ZkCO1pfBPIo8QB2WckAMIYzBennkQABiWTzZzbXBy4jQ
QIAfib9AybDBNQraQEH8qD+7ybLBuBybQID1gkD2+7jBGgbgQFByl0BfarHB3++iQNlqnUBg38HB
U9DnQD/JsUAuS7rBxWSnQPmX6D7Xg6XBViiyQNeNXr96nqjBpz25QPoZgEDGjrDBas66QDUTyD9q
zarBXVzJQPSBtUApgsLBf57KQFONVEBBQp3BU/uCQNq5YUA8yJnBasmeQNPgBcChBaTBgIuBQF+N
CcC0zJvBq1GxQBRsQEBYWafBeWK2QE9egUCrpYrBDoYtQH1vGMDMPIPBIiRgQKAmYcB1pJjBGLiA
QIDwfcAjl43B0pqvQPi33kDqddHBmkisQJzxYkBZaJXB+5qEQGKTSUAv06PB7t86QCR1dEDCWpTB
tVvxQNpBTkA+4pvBWvfSQObe0ECo48rBfplCQOS7cMCISYXBxvSSQORO9UAZgsvB5QK/QF9h+ECi
TtnBRun7QBt6Ir7LALzB+YvYQKbxBMB+NbPB8fTpQGnLCUD3lbbBT7B7QMlMYUBolbjBv8j3QA3r
lEBcLKvBUaOLQLBpn0ABPMjBfr8CQQ9dw0BL0brB75CQQDwCHz+zKp/B6pWoQEcpQsB/d6fBDZZu
QHRuoL8btpfBHLaYQMJMhEBw+IXBCivMQFyoVUCxpIbBCtvFQMLjoEC2Q4vBjt76P3DjFMDOpnnB
QINnQEKE678axIDB+IwTQKSA9r/fjorBSNkZQKbgXcAjYZjB3f9zQOUviMCvrZ7B97iIQJI3ocD8
843BUqGdQNT4WMAPoYvBxQmgQORrwkDk9dTBcA9WQN/fPkCAcajBCIwCQIfib0D5G5jBEww9QBlF
g0Bur4zBRODhQPg0Nr2qVLXB1NvNQHCRir8fna/B+3/YQPHupT8T6rLBUimcQAFhgkC2LrnBHQXg
QJEgmUDAW7HB6JSjQDHOnECCDMLBTavnQAQds0BzTrrBNOGmQKy2Dz8ODaXBA02wQIRwR7/FYKfB
vem5QGvKgEAzq7DBmCO6QMgOzj/T3arBNYHJQOORtUDfocLBQvrKQOZWVUA2UZ3BoyuDQF4cYUAR
x5nBBfObQBWz6L/KtqDBYkCaQCA0ScAyvaPBYbaxQERkQ0A1eKfBxUe2QOBRdkCvP4rBATExQPDz
KcANR4TBUvuFQEXQh8CX/5zByTeBQKwDe8BiBpHBCiquQHhg4UDvwNDBdnasQHgnYECgZJXB2/aE
QAYJT0ALA6TBF+g6QGqpb0CdOJTBg4/xQHb6S0DB75vB45fSQKSC0EDVFcvBnz08QNAkQcA4TY/B
VQC5QHP4A0Hh5NTB1tuiQAN/xkBZ0tjBin74QOaijr7TlrvBngvVQMwrB8BMgrHBh3foQJjIBUAv
M7fBIwh/QBwuXkCf2bjBj0X3QLqul0D6+arBA2KMQOtMnkAtccjB6HgCQRpfxUAszrrBhJKQQPo4
Sz8luJ7BxNSNQM27w7+CLJnBmR+oQKPEWsCCV6vBnVuYQL77ekCgpoXBzcTKQDpxRECqvIbBuhXH
QAkTmkB2AYrBpGX1Py2V+7/fhYPBec4kQATXY8B8B3/BDJ5rQJR2CsDtV4HB0dNLQMtXjsA/PaDB
2PCZQFWnpMDIvp3BJ492QK1Vm8AgmIzB+OyeQF5NXcCbHI7BiGiTQCAC5UClG8vB8f1WQHrbSUDi
z6jBGrYCQD2kbEDxB5jBjbU8QJMsfUCcZ4zB

> <OMEGA_E>
YLE+Phi9Rj4Aqk0+qAoxPg==

> <OMEGA_NBR>
     24075

$$$$
50168769
  -OEChem-04172616093D

 50 52  0     1  0  0  0  0  0999 V2000
    7.1217    0.0082  -22.7273 C   0  0  0  0  0  0  0  0  0  0  0  0
    6.4865   -1.0688  -22.0922 C   0  0  0  0  0  0  0  0  0  0  0  0
    6.8176    1.3235  -22.3515 C   0  0  0  0  0  0  0  0  0  0  0  0
    4.8512    4.1030  -23.1265 C   0  0  0  0  0  0  0  0  0  0  0  0
    7.0041    4.7466  -22.1791 C   0  0  0  0  0  0  0  0  0  0  0  0
    5.0936    4.9294  -24.2367 C   0  0  0  0  0  0  0  0  0  0  0  0
    7.2482    5.5661  -23.2922 C   0  0  0  0  0  0  0  0  0  0  0  0
    5.2359    0.4846  -20.6848 C   0  0  0  0  0  0  0  0  0  0  0  0
    5.5579   -0.8462  -21.0557 C   0  0  0  0  0  0  0  0  0  0  0  0
    5.7933    4.0158  -22.0751 C   0  0  0  0  0  0  0  0  0  0  0  0
    5.8439    1.5813  -21.3545 C   0  0  0  0  0  0  0  0  0  0  0  0
    6.2967    5.6769  -24.3212 C   0  0  0  0  0  0  0  0  0  0  0  0
    6.3328    3.3555  -19.6680 C   0  0  0  0  0  0  0  0  0  0  0  0
    4.0981    3.5708  -19.2347 C   0  0  0  0  0  0  0  0  0  0  0  0
    5.0131   -2.0411  -20.3695 C   0  0  0  0  0  0  0  0  0  0  0  0
    4.2645   -2.0092  -19.2153 C   0  0  0  0  0  0  0  0  0  0  0  0
    5.5459    3.0250  -20.9248 C   0  0  1  0  0  0  0  0  0  0  0  0
    5.7006    4.0371  -17.3338 C   0  0  0  0  0  0  0  0  0  0  0  0
    3.9466   -3.3223  -18.5188 C   0  0  0  0  0  0  0  0  0  0  0  0
    3.1208   -3.1142  -17.2379 C   0  0  0  0  0  0  0  0  0  0  0  0
    5.4798    6.9941  -26.1560 C   0  0  0  0  0  0  0  0  0  0  0  0
    5.3954    3.7944  -18.7491 N   0  0  0  0  0  0  0  0  0  0  0  0
    4.1482    3.1717  -20.4837 N   0  3  0  0  0  0  0  0  0  0  0  0
    2.9220    3.7371  -18.5182 N   0  0  0  0  0  0  0  0  0  0  0  0
    7.5277    3.1668  -19.4646 O   0  0  0  0  0  0  0  0  0  0  0  0
    6.5957    6.5254  -25.3728 O   0  0  0  0  0  0  0  0  0  0  0  0
    1.8711   -2.6923  -17.5598 F   0  0  0  0  0  0  0  0  0  0  0  0
    3.7150   -2.1932  -16.4312 F   0  0  0  0  0  0  0  0  0  0  0  0
    5.8194    8.1773  -26.7233 F   0  0  0  0  0  0  0  0  0  0  0  0
    5.1860    6.0972  -27.1343 F   0  0  0  0  0  0  0  0  0  0  0  0
    7.8460   -0.1762  -23.5069 H   0  0  0  0  0  0  0  0  0  0  0  0
    6.7113   -2.0791  -22.4006 H   0  0  0  0  0  0  0  0  0  0  0  0
    7.3295    2.1478  -22.8256 H   0  0  0  0  0  0  0  0  0  0  0  0
    3.9375    3.5294  -23.0756 H   0  0  0  0  0  0  0  0  0  0  0  0
    7.7441    4.6721  -21.3960 H   0  0  0  0  0  0  0  0  0  0  0  0
    4.3618    4.9959  -25.0282 H   0  0  0  0  0  0  0  0  0  0  0  0
    8.1751    6.1163  -23.3588 H   0  0  0  0  0  0  0  0  0  0  0  0
    4.5264    0.6653  -19.8909 H   0  0  0  0  0  0  0  0  0  0  0  0
    5.2183   -3.0070  -20.8068 H   0  0  0  0  0  0  0  0  0  0  0  0
    3.9106   -1.0715  -18.8131 H   0  0  0  0  0  0  0  0  0  0  0  0
    4.7924    4.3787  -16.8156 H   0  0  0  0  0  0  0  0  0  0  0  0
    6.0582    3.1054  -16.8710 H   0  0  0  0  0  0  0  0  0  0  0  0
    6.4803    4.8089  -17.2541 H   0  0  0  0  0  0  0  0  0  0  0  0
    3.3753   -3.9604  -19.2091 H   0  0  0  0  0  0  0  0  0  0  0  0
    4.8907   -3.8212  -18.2547 H   0  0  0  0  0  0  0  0  0  0  0  0
    3.0660   -4.0831  -16.7199 H   0  0  0  0  0  0  0  0  0  0  0  0
    4.6116    7.1276  -25.4937 H   0  0  0  0  0  0  0  0  0  0  0  0
    3.3485    2.9921  -21.0565 H   0  0  0  0  0  0  0  0  0  0  0  0
    2.0411    3.5493  -18.9525 H   0  0  0  0  0  0  0  0  0  0  0  0
    2.9552    4.0449  -17.5673 H   0  0  0  0  0  0  0  0  0  0  0  0
  1  2  1  0  0  0  0
  1  3  2  0  0  0  0
  2  9  2  0  0  0  0
  3 11  1  0  0  0  0
  4  6  2  0  0  0  0
  4 10  1  0  0  0  0
  5  7  1  0  0  0  0
  5 10  2  0  0  0  0
  6 12  1  0  0  0  0
  7 12  2  0  0  0  0
  8  9  1  0  0  0  0
  8 11  2  0  0  0  0
  9 15  1  0  0  0  0
 10 17  1  0  0  0  0
 11 17  1  0  0  0  0
 12 26  1  0  0  0  0
 13 17  1  0  0  0  0
 13 22  1  0  0  0  0
 13 25  2  0  0  0  0
 14 22  1  0  0  0  0
 14 23  2  0  0  0  0
 14 24  1  0  0  0  0
 15 16  2  0  0  0  0
 16 19  1  0  0  0  0
 17 23  1  0  0  0  0
 18 22  1  0  0  0  0
 19 20  1  0  0  0  0
 20 27  1  0  0  0  0
 20 28  1  0  0  0  0
 21 26  1  0  0  0  0
 21 29  1  0  0  0  0
 21 30  1  0  0  0  0
  1 31  1  0  0  0  0
  2 32  1  0  0  0  0
  3 33  1  0  0  0  0
  4 34  1  0  0  0  0
  5 35  1  0  0  0  0
  6 36  1  0  0  0  0
  7 37  1  0  0  0  0
  8 38  1  0  0  0  0
 15 39  1  0  0  0  0
 16 40  1  0  0  0  0
 18 41  1  0  0  0  0
 18 42  1  0  0  0  0
 18 43  1  0  0  0  0
 19 44  1  0  0  0  0
 19 45  1  0  0  0  0
 20 46  1  0  0  0  0
 21 47  1  0  0  0  0
 23 48  1  0  0  0  0
 24 49  1  0  0  0  0
 24 50  1  0  0  0  0
M  CHG  1  23   1
M  END
> <OMEGA_C>
H+XjQIAfBzx/0bXBsJHPQNLMiL/LvLDBaynaQIppqT/Hz7LBnzybQCdMg0AlA7nB1SHgQEjkl0De
brHBdP6iQO+9nUCy5MHBbvHnQGcdskBvVrrBm4ynQOcg+D6HeqXBttqxQKWjWL8CcqjByWK5QJGB
gEDembDBIwG7QGxmyj8c1qrBtH7JQFyptUDKkcLBKabKQK3AVkD5V53BwiODQEaIZEC74JnB+2qg
QFyhAsCk9KLBFneIQBOXAMAFuZnBvnexQLqZQUDqZafBaWu2QL8vgUCmq4rBW5R8QL6gVMCEJpTB
gbpHQOdOR8Ap54nBLlqvQPHP30BzP9HB0aasQNbXckA6/pXBbr6EQIr9SkCJ3qPBywI7QPgsb0BB
JZTBPePwQMOsSkBnt5vBxg/TQMHP0EB2+8rBwX/vPylOLMCJeozBHsNtQHtdDMATc4PBoDi6QAjW
AkFXydXB6/OlQB4cw0AkE9nBzRL7QCF0NL4MDrzB+sLWQLAPBcBkNLPBk4vqQCN2CUDMmrbB4P97
QELiYUC6mrjBQ8/3QJqBlUDuKqvB+pOLQMjen0DAOcjBas0CQQe5w0DG3rrB+NeQQIJRKj+aIJ/B
K/ymQNNyQMBmdKbBTkd6QCEnib8rgZbBfFuZQOcdjEBqhobB+dzBQKe/RkDZ94bBwV7PQIHimUBq
CIrBdARYQI93fcAorJnBk4CcQP+NdMCqCZLBrzhEQIKogsBnwoXBm5KTQGcV5EAt88vBW05WQIh+
P0DMc6jBd6ECQAYnY0DInpfBZyE9QJFvgUDUiYzBbT3fQHfZML5NDbTBYZ3IQLn3kr+JJa7BN9vX
QFSZmT+AOrLBlOScQNcTg0BUbLnBi8rhQLz1l0Av2bHBYPqjQOUvnkCkLsLBtRXpQP6iskD7sLrB
PhKjQEQnHz8RrqTBGViqQCJcPr/XW6bBfkS7QDBbgEB3D7HB2gO5QEqlzT8klarBZzvKQKditkCM
1MLBsWjLQCjVWEAihZ3BeaaDQEapYUC5+5nBG+CQQGdM1r/jtp/Bo1GWQGlzQsAAap/BKD6yQEb7
REAAp6fBdTa2QBsFc0C6XYrBWGNzQGFLesA6c5jBwOlzQNQiYMDEe4zBsKSuQBRH5EDPg9DBIPes
QH00bUCl25XB3pOFQBaCVEA1VKTBLLk7QIh9YkCLKZTBDb7xQIdlTUBN9ZvBaSTTQFLG0UBpNMvB
QcVWQDF1kcB0kIbB8ixAQGurG8DPl4rBTza6QP6DBUFua9TB9tqhQL7FykAUudjBSVH2QLOw9b7Y
/rnBFGHOQA6vDMC8kK/B07PpQONr+D9/qLbBBgeAQBVCYEDJDrnBMaP5QHxulUBtoKvBWESMQHSg
oEA2cMjB+U8DQQ5vxEC9QLvBcRKMQItubT+Ctp7B9UhwQOMEoL87uZrB9iyvQHu+X8C1K6TB/M+Y
QGMFgkAcBYbBLBrCQNDrNEDweYfBUKrOQHs5kkBs/YjB12QxQGSVdcANdZvBRMCEQGR4nsCVFJnB
fyqbQNjWUMC4R4rB4YiUQPrs50D9rsrBMMpYQCnuVEDDQ6nBhNADQDOqWEBl25fBuyU9QOLpbEBn
RYzBwyrjQLAe3rwdrbXB51fOQGY5jL+ZmbDBu/LZQGRypT+6sLLBboubQMB2gkAbGLnBnCXgQPGv
l0BUdLHBSC6jQKz/nECW98HBs7znQCkrskD4UrrB19WmQGHa8j4AYaXBSHuwQEuoXL9GW6jBQJ+5
QKDZf0AMqLDBFt+6QIgdyD/wuqrBBFDJQB2JtUCEkMLBL8HKQOF6VkBwVp3B2imDQI+lZECz9pnB
39mcQOlqA8ChP6PBTp+AQMNBAcA1yZrBmqmxQGviQEA4ZqfB7BK2QGE7gEBcoIrBRDlbQI2LVMDc
l5bBsiRcQKJ/WMBwSorBhoOuQNDd30CZMNHBN5ysQLH8cUDC/JXB1++EQGruSkCw8KPBPMQ6QF37
b0DZUZTBvBDxQBdRS0AetpvBSHXSQHUj0UAs7crBr4MvQKZyFcAaKYbBPf2WQGtNVsBqnYbB1BWS
QOUq9UC24crB5xy9QN4M+0ANz9jBdFb6QLglY74F5bvB5kTVQGD3BsAZCbPBSKzqQLAFB0AyfbbB
aO98QM2xX0AytrjBUNX3QIVklUBiMKvB9fSLQNS4nkDfWcjBfZoCQaIcxEBd0rrBYzWQQEFOKj98
B5/Bt1ylQLpwQcDOaabBdBBwQNznib+LJpfBVemYQH0Di0AsgIbBOGDBQAB6REAy/YbBwQnPQJHd
mEAq4InB66oYQCDGWcDEYpnB4mGAQJw8hcB+wJnBrKE9QCiHisD57IfBd+yeQBEWxED97tTBktZW
QI6zP0ARj6jBXYoCQEdcZEC02pfB/IA8QIPjgUASt4zBdlXiQACOc73lfrXBlLbNQI60jr+IM7DB
RlbZQGgxoj/4qrLBsKWbQExqgkAnLbnB5q3gQH7BlkCQo7HBbB+jQNNenUA4/MHBTinoQM+KsUBn
c7rBSMOmQFK29j6+G6XBAkGwQKAlXL8P6afBxuW5QOLyfkCPyLDBqp+6QKZDxz9UqarBgmvJQJqw
tUD5l8LBaN/KQPrKVkDya53BYFWDQOoZZUBfA5rBHD+dQJY+AsACeKLBa86AQDvv/L/YD5rBBLOx
QNi+QECTdafBQni2QEAcgUC8v4rB3txfQNwXUcBPQZXBqaZmQCpBT8D6/ojBYkGvQDaK3kAji9HB
wNKsQOThckDSFZbBov2EQPh4S0BY/6PBjEc7QEBLcEAKVJTBFiXxQG5IS0BWx5vBrn3SQAof0kBd
yMrB+CqcQG4rPsBf64XBtk5PQCNmjsB9DYXBbvG3QKjEAkHcwtXBkHSqQGapwUBUltnBGSz5QMrq
ib5TwrvBh3vUQNOVCMC0gLLBhfLpQIjLBECEn7bByyN9QDWWX0C+z7jB+qf4QAfak0B/davBAauL
QFSVn0CCTsjB4ukCQcskw0Bt+7rBiGCQQH4oMD9svJ7BcmemQMvhQMDKUKXBbDxtQLrCgr8r7JbB
aGCZQPQPjEDmnobB5dDBQOiARkAfDYfBr3TPQJPCmUDXFIrB7V8cQAc1WcCbi5fBhceCQE6Ug8AD
WZjBWyM7QMI5HcDLCYbBBu+RQND830AvsMzBbNpWQCK2QEAWnqjBXPMCQPuhZEDL1ZfB3j49QF8D
gkDUuIzBouvgQEbJDr5Eb7XBa0fPQGITlr8gN6/Br0bXQDG7mT9/G7PBBe+bQCt/gUAfMrnB32Lg
QOsQl0C9iLHBBc6iQIQZnUBi5cHBMD7nQM2YskBcPrrBh46pQEit8T6oWqTByh+0QGWQYL9fhKbB
7jm6QDlwfUDGz7DBW7u6QMekwj9Er6rBrnbIQIVetkBOZcLB6kDLQFKzU0ApcZ3BYomDQO89ZECJ
MZrB0UanQKpJ/7+DaZ/BWVeSQAcQ67+PxZXB+CiyQL22PkCVjafBUly2QDIrgEAvworBUj2OQAxb
QcDFOo7BtwlKQNjkc8BMRJDBG3isQP+b4UBPttDBr6msQPHLZEBpuZXBUluFQKdZSUArH6TBzb07
QKO0eEDu6pTBJcXxQMqhSkBw7JvBz93QQETs0kAwm8rBpelIQKpCiMBkjZrBJhIFQM4EQcDNbI7B
zpOQQNLz9kDHQ8rBnny6QFup/ECmbdjBm/P1QAMbwb6KBbzB6JPWQBnfDMDgHLHBQ7DlQMzw/j/F
wrfBjIt+QAlxXEAw57jBaln4QB9slEDyV6vBXFqLQFYXn0AHOcjBRTUCQX4KxUCbr7rBTjaUQMW6
ND9d0p3BU86uQFL5P8Bn86HB/PmEQC3CYL8Dm5PBc1WYQMm3hEAtT4bBS9rJQM0uT0AUxIbBhyzI
QOqDnkDe+4rB69OpQEEPbMAYZ4/ByAeOQPzJKcD874XBR3VJQIBFlcA9uIrBZZGcQMzJxUCOWtTB
dLZXQOSrPUCiuqjBNp0DQC9Lc0Cos5jBJIo9QB1whkAnVI3B

> <OMEGA_E>
ALCFPaD1pj2w9rc9YFbLPdCLAT4=

> <OMEGA_NBR>
     28609

$$$$
50168752
  -OEChem-04172616093D

 54 56  0     1  0  0  0  0  0999 V2000
    7.1182    0.0568  -22.8084 C   0  0  0  0  0  0  0  0  0  0  0  0
    6.4993   -1.0380  -22.1933 C   0  0  0  0  0  0  0  0  0  0  0  0
    6.8090    1.3584  -22.3949 C   0  0  0  0  0  0  0  0  0  0  0  0
    4.8277    4.1144  -23.0966 C   0  0  0  0  0  0  0  0  0  0  0  0
    6.9977    4.7311  -22.1717 C   0  0  0  0  0  0  0  0  0  0  0  0
    5.0700    4.9370  -24.2102 C   0  0  0  0  0  0  0  0  0  0  0  0
    7.2453    5.5376  -23.2909 C   0  0  0  0  0  0  0  0  0  0  0  0
    5.2585    0.4697  -20.7262 C   0  0  0  0  0  0  0  0  0  0  0  0
    5.5799   -0.8452  -21.1454 C   0  0  0  0  0  0  0  0  0  0  0  0
    5.7777    4.0196  -22.0515 C   0  0  0  0  0  0  0  0  0  0  0  0
    5.8504    1.5855  -21.3747 C   0  0  0  0  0  0  0  0  0  0  0  0
    6.2864    5.6625  -24.3095 C   0  0  0  0  0  0  0  0  0  0  0  0
    6.3302    3.3176  -19.6447 C   0  0  0  0  0  0  0  0  0  0  0  0
    4.0915    3.5085  -19.2071 C   0  0  0  0  0  0  0  0  0  0  0  0
    4.9806   -2.0543  -20.5537 C   0  0  0  0  0  0  0  0  0  0  0  0
    4.2718   -2.0792  -19.3782 C   0  0  0  0  0  0  0  0  0  0  0  0
    5.5418    3.0148  -20.9113 C   0  0  1  0  0  0  0  0  0  0  0  0
    5.6947    3.9946  -17.3058 C   0  0  0  0  0  0  0  0  0  0  0  0
    3.7583   -3.4144  -18.8809 C   0  0  0  0  0  0  0  0  0  0  0  0
    2.5256   -3.2385  -17.9759 C   0  0  0  0  0  0  0  0  0  0  0  0
    2.9077   -2.6788  -16.5941 C   0  0  0  0  0  0  0  0  0  0  0  0
    5.5129    6.8954  -26.2242 C   0  0  0  0  0  0  0  0  0  0  0  0
    5.3810    3.5130  -18.6572 N   0  0  0  0  0  0  0  0  0  0  0  0
    4.1425    3.1384  -20.4649 N   0  3  0  0  0  0  0  0  0  0  0  0
    2.9197    3.8092  -18.5289 N   0  0  0  0  0  0  0  0  0  0  0  0
    7.5424    3.2382  -19.4759 O   0  0  0  0  0  0  0  0  0  0  0  0
    3.7807   -3.5906  -15.9321 O   0  0  0  0  0  0  0  0  0  0  0  0
    6.5976    6.5071  -25.3607 O   0  0  0  0  0  0  0  0  0  0  0  0
    5.8626    8.0404  -26.8593 F   0  0  0  0  0  0  0  0  0  0  0  0
    5.2825    5.9252  -27.1480 F   0  0  0  0  0  0  0  0  0  0  0  0
    7.8337   -0.1025  -23.6015 H   0  0  0  0  0  0  0  0  0  0  0  0
    6.7296   -2.0394  -22.5258 H   0  0  0  0  0  0  0  0  0  0  0  0
    7.3059    2.1982  -22.8577 H   0  0  0  0  0  0  0  0  0  0  0  0
    3.9089    3.5498  -23.0378 H   0  0  0  0  0  0  0  0  0  0  0  0
    7.7430    4.6510  -21.3941 H   0  0  0  0  0  0  0  0  0  0  0  0
    4.3293    5.0174  -24.9920 H   0  0  0  0  0  0  0  0  0  0  0  0
    8.1826    6.0682  -23.3709 H   0  0  0  0  0  0  0  0  0  0  0  0
    4.5636    0.6231  -19.9137 H   0  0  0  0  0  0  0  0  0  0  0  0
    5.1081   -2.9874  -21.0824 H   0  0  0  0  0  0  0  0  0  0  0  0
    4.0855   -1.1715  -18.8233 H   0  0  0  0  0  0  0  0  0  0  0  0
    4.7685    4.0636  -16.7164 H   0  0  0  0  0  0  0  0  0  0  0  0
    6.3879    3.2932  -16.8184 H   0  0  0  0  0  0  0  0  0  0  0  0
    6.1630    4.9879  -17.3701 H   0  0  0  0  0  0  0  0  0  0  0  0
    3.4822   -4.0364  -19.7452 H   0  0  0  0  0  0  0  0  0  0  0  0
    4.5542   -3.9138  -18.3090 H   0  0  0  0  0  0  0  0  0  0  0  0
    1.8243   -2.5432  -18.4604 H   0  0  0  0  0  0  0  0  0  0  0  0
    2.0393   -4.2160  -17.8423 H   0  0  0  0  0  0  0  0  0  0  0  0
    3.4159   -1.7113  -16.7190 H   0  0  0  0  0  0  0  0  0  0  0  0
    1.9981   -2.5402  -15.9913 H   0  0  0  0  0  0  0  0  0  0  0  0
    4.6120    7.0593  -25.6146 H   0  0  0  0  0  0  0  0  0  0  0  0
    3.3434    2.9645  -21.0404 H   0  0  0  0  0  0  0  0  0  0  0  0
    2.0399    3.7498  -19.0004 H   0  0  0  0  0  0  0  0  0  0  0  0
    2.9547    4.0853  -17.5684 H   0  0  0  0  0  0  0  0  0  0  0  0
    4.0151   -3.2431  -15.0796 H   0  0  0  0  0  0  0  0  0  0  0  0
  1  2  1  0  0  0  0
  1  3  2  0  0  0  0
  2  9  2  0  0  0  0
  3 11  1  0  0  0  0
  4  6  2  0  0  0  0
  4 10  1  0  0  0  0
  5  7  1  0  0  0  0
  5 10  2  0  0  0  0
  6 12  1  0  0  0  0
  7 12  2  0  0  0  0
  8  9  1  0  0  0  0
  8 11  2  0  0  0  0
  9 15  1  0  0  0  0
 10 17  1  0  0  0  0
 11 17  1  0  0  0  0
 12 28  1  0  0  0  0
 13 17  1  0  0  0  0
 13 23  1  0  0  0  0
 13 26  2  0  0  0  0
 14 23  1  0  0  0  0
 14 24  2  0  0  0  0
 14 25  1  0  0  0  0
 15 16  2  0  0  0  0
 16 19  1  0  0  0  0
 17 24  1  0  0  0  0
 18 23  1  0  0  0  0
 19 20  1  0  0  0  0
 20 21  1  0  0  0  0
 21 27  1  0  0  0  0
 22 28  1  0  0  0  0
 22 29  1  0  0  0  0
 22 30  1  0  0  0  0
  1 31  1  0  0  0  0
  2 32  1  0  0  0  0
  3 33  1  0  0  0  0
  4 34  1  0  0  0  0
  5 35  1  0  0  0  0
  6 36  1  0  0  0  0
  7 37  1  0  0  0  0
  8 38  1  0  0  0  0
 15 39  1  0  0  0  0
 16 40  1  0  0  0  0
 18 41  1  0  0  0  0
 18 42  1  0  0  0  0
 18 43  1  0  0  0  0
 19 44  1  0  0  0  0
 19 45  1  0  0  0  0
 20 46  1  0  0  0  0
 20 47  1  0  0  0  0
 21 48  1  0  0  0  0
 21 49  1  0  0  0  0
 22 50  1  0  0  0  0
 24 51  1  0  0  0  0
 25 52  1  0  0  0  0
 25 53  1  0  0  0  0
 27 54  1  0  0  0  0
M  CHG  1  24   1
M  END
> <OMEGA_C>
/MfjQHCjaD2Jd7bBnvrPQGrchL/Ri7HBsePZQMvfrT++KLPBUHyaQNqog0DWxbjBVe3fQAtll0Cb
X7HBsD2iQNH7nUBxrsHBjNnnQAc0sUDJU7rBdUWoQMt/8D4yz6XBlY6yQK1cWL/SKanBzeK4QGCg
gEBjabDBITa7QNvwyj98/6rBXirJQCgztUDgecLBBpHKQPBSVEBDKJ3B4+2CQPaLYEARqJnBZmGf
QJx5A8ATbqTBg7KIQNMQBcB2BpvBBlaxQEbyQEBuSqfB+Tq2QLCnf0AycorBP4dwQKyFWsAcDJfB
rqMhQBBDT8Cszo/Bihg6QPpxK8C0wITBpWmwQHyn3EAay9HBgTGsQITVYED9QZXBmo+EQN7bSEAb
uKPB8Nw6QHDJc0A+O5TBp1vxQFo+T0CdzpvBSvZxQA7NZcAR6n7Bex/TQNU50EDM4srBaJq7QGul
AEHE39bBTQqpQFWbvUAsL9nBpa36QMnf0b3Zz7zBrVjXQCSFAsDjNLTBCMrpQLWvDECa3LbB2yp6
QNovY0B1TbjBbsb3QFfVlEAsJ6vB24mKQI6OoECt78fB0esCQb0uwkCE97rBYQmSQPiBHz9IT5/B
OnWjQFgxP8DTqKjBmryCQFD0lb8LlpbBhZeYQJ4IgkAZu4XB8WnMQFrEUkAgjIbBbDfFQImcn0Ds
9YrBDt1eQCkqgcAe9p3ByLuRQD98esDTeJLBDILpP0/DIsDTrpPBg4MCQLbphsAOvY7Bmp1aQHYK
27+YwIXBN8P/P/qRIsBB3H/BfZWTQM3l4UDG6szB6PpVQOG5PUC5UqjBWo0CQEX9b0DqAJjBGxk9
QJO6gkAnjIzBVHuAQF+OT8A/RnHBfW3lQHAdIj2J1bXBjsTRQD+ghr/R2LDBeJLaQHbeqz/6zbLB
nw+bQIS1gkBqGbnBEoffQGLtl0CDYbHB0xSjQIHxnECHA8LBoITnQO0KskBASrrBpu+nQIpR7D5n
naXBYFazQNzoW79/r6jBduK4QHhSgECdmrDBCQa7QIuxyT+a36rBRFvJQANJtUBLl8LBq27KQL4u
VkDFYp3BowyDQORyZUDw5pnBTKChQI59BcBHx6PBxL+DQAhRCMBHuJvBLRGxQND/QECzZ6fB36C2
QIXIgUA8w4rBVH9pQAhIX8AIuJfBYJl4QNLHacCQlYvBmrVFQAAGKMC694TBw5yvQJx73kAsjdHB
CamsQP5xc0C4D5bBHG+EQOISSkDT0qPBzyg7QNy/cUA9KJTBBJ7wQCJeSUBuw5vBLcbbP0RfKMDV
EojBzf/SQE2I0ECX/crBRZaSQKl39EB2kcvBKvS+QHbL+EBDRdnBNPr8QCPp/b1YBbzBCwraQLeE
A8DmSbPBHWjqQFWRC0D5jLbBWcp7QP1zYECou7jBcv/2QM3HlUDGD6vBOAyMQCmUnkAtccjB24wC
QWDOw0D0xbrBrtuQQFPQHj9rT5/B/zOtQI/5QcABzKbBFlpuQC4XnL8ZTJjBR7uZQFAvjUDQn4bB
68bBQE/1R0AgAIfBydvPQEc5mkASMorBw6skQK/wZcAKX5nBPXeGQM/OiMA2/ZvBir5kQERGlcCI
MInBtZueQDBfYcCx64nBgpJKQDpxOMAs3XjBm5dgQBWuz79VTYbBIGWgQGZFwkAUMNXB1YRVQHUw
PUCaUajBkYsCQK2QZUAgkJfBLL49QLdmg0D8m4zBlImeP9wq/7+074PBm6ziQFyIE74JQLTBF5PM
QPiAk78coa7Bv7jZQLJImz9+QLLBOeCcQO6CgUDWZbnB46bgQIY1mEAGh7HBcfOjQNaynEBIJ8LB
V7bnQIpNs0DlS7rBrCKkQKiDDT97GaXBgQWtQJoFTb8JAafBcry6QOUdf0Bq57DBld+5QJw8yT+l
tarBCFnJQGBPtkA/kMLB6TLLQBPuVECQb53B8FuDQC9RYUB//ZnBgbeSQMtc5r/cTKHBFYSdQIE5
SMA4eKDBUBmyQGgFQkAUmafBSyC2QNegdUD5YYrB6m99QNXeg8B6f5vBMxmBQJ2RhMChK4/Be55M
QJW3QMB9LYrBY6atQAad4kBantDBTomsQDfsX0BPjZXBYFqFQFfDT0BBPKTBzBs7QN3nb0AeeZTB
0sjxQLwzTEDn/pvBJXJCQHGaUMD8FX7BkAnSQBxn0kAbz8rBzQ6zQFecBkE0FdLBZDSrQHDAzkDR
QtrBRo/6QFTA075LHLrBOrXTQPNLDMCKI7DBISjrQBSu/T+BebbBf2uAQCTaW0DOI7nBKDn4QOIl
lkDdOqvBZuaMQGAcnkDIlMjBTlwCQX0ExkDms7rBZzyMQDL2UT+LPJ/Bz8dqQNTou7/qk53B0S+8
QBbxXcD+YaPB2hiYQPGLekAp1YXBiFvKQJVhQ0Ax3IbB2R/HQE6dmUA0FYrBD+k7QEV+dsDF4p3B
dGGGQFYIpMCbhJ7Bst1pQE2Ao8AkRozBj6qiQKq4gMDgs4zBB4htQBUwA8AdWIvBk2QNQBduPsCM
CY7Bf3aQQJB93ECY8cvBRQxYQG8tTECSGqnBPREDQMlUbUDGUpjBMKE8QOz/fEAIpYzBOWkhQFUO
JMBG23fB28XkQKDuBT2w/LXBptTRQFNsh78J0rDBetjZQIoMqz9A/bLBo96aQP2rgkAlFbnBNX7f
QMWRl0A3b7HB9cSiQGoInUBM/MHBFVTnQMTVsUBTUrrB5HOoQGgd6j4dgKXBGu+zQIgTXb/XiajB
A8u4QJAkgECinbDBRPO6QL0AyT/O5arBKxDJQEp0tUAmmMLB1XfKQC7tVUAGZp3BYhqDQLDpZUCO
75nBi9OiQNilBcCGeKPB5/eDQL5gCMAypZvBVA+xQFCkQECBaqfBTLS2QKcIgkByy4rBDVFqQMpF
X8BVk5fBsu93QMKaaMBJZovBdjtEQExCJsCj+oTBKoyxQAV13kDJMdLBBrysQPyac0C3FpbBZ3OE
QGqnSUDA0aPB0jo7QI4bc0AzO5TBQKnwQLI0SUC8xpvB2o3ZPygTJ8DBPIjBODvTQFFR0UBe5srB
HqqmQGLAvUA91NjBBImOQAwq7UAF1czBUtP7QHL0Br7GSbzB/D7aQM30A8AAN7PBzB3pQPwjC0Dw
4bbBhmZ7QFdlYEAVtbjBcSX3QHAtlUDaKavBh6GLQC26nkCrY8jBXXwCQQx+w0Ck0LrB9b+RQJv4
HT/lHJ/BTLivQCkSQsATKKbBgQNtQJMmnL8jc5jBgNSZQK6VjUAhrIbB0sPBQLGHSEC9/4bByf/P
QGtqmkA5QIrBF8glQJPHZsD9WpnBKWaHQOXOiMAwtJvBNdBjQE6TlMBm8ojBiCueQMkAYMA/nonB
EipIQDXKNcDk0XjBfytfQKVZzL+oXobB8Gi+QJPE+ECUE9fBEoVVQIQkPECkR6jB5p0CQDztZkA4
o5fB7Mc9QL9mhEAwtozBxkWbP0XU+79mOITBvZvgQHZuJb7berTBGEnJQGgZlL8RAK/B8EjZQEr4
mT+mSrLBnqacQIl/gkDXOrnBI/nhQGfWlkDj1bHBkWmjQNvRnUCj9cHB3e7oQJTEsUAYpLrBeC6j
QBHcEz+5OKXB3VeqQC1UR79mU6fB6Um7QFMyf0Bi7rDBotC5QICSyj/starBRa/JQK8StkBsqsLB
5HfLQDHxVUAEXp3BNY2DQJYKX0AE55nBWjGQQEzf3b+AOaHBKU2ZQBJuRMBUBqDB8ZSyQKLNQkCz
kafBwxS2QFIcd0BBXYrBj5B7QOCLd8DCZJjBzGSGQJuIWsCirYzBwGQ7QBUwX8Br0oXBJveuQLkV
3kDCrdHB7bSsQAtkXkCtcpXBB86FQGYjUUDvOqTBrgA7QMYQakAEXJTB1DHyQOZwUEDl7pvB9LX4
PxO2JcCp6YnBrl/SQO9W0kDL5srBkL+4QDKpAUGsqNbBHiyoQAU+v0CaKdnBfSz4QJFJ5L5YYLrB
GArPQGXmDMDOqLDBAq7rQKnS+j/HZbbBXqN/QPADX0D51bjBATn6QJbUk0C6uavBpHaLQI1poECn
J8jBJkkDQfBdw0DbQ7vBBNGLQAzTWz8JRJ/BuVFnQCearb8uZZ3BETWzQC8XYsD/YKTBpCaYQAQa
eUBIvYXB0/fLQFELSEBCxobBpSnFQM1bm0B/RYrBrK83QAEtbcCpVZrBg3aFQEr5ncDXMpnBH+ae
QIM4gsC9JYnBgReSQC8jGMD3v4zB0wwiQChtkMBz/4XBHO5KQGtyTcCKD3vBODiSQPQn4kDxs8zB
HUtZQGpYUEBQLKnBvCgDQFmaZ0BjQZjBK/o7QAR6dECJd4zBvG6UP57xKMAJooXBqk/iQKB8+r3D
yLTBEUrLQEwXkb+fbK/BrEbaQLEunj92fLLBC4mcQCTJgUDZI7nBAlnhQNstl0CYorHB9VCjQKzK
nEA06sHBgEboQGHisUDXebrBWV+kQD2iEj/wg6XBFtyrQKumRb+11qfBdOq6QB0yf0Ckx7DB2aa6
QPKVyz852qrBWkHJQKCltUCak8LBaFDLQL0CVUAWRZ3Btl2DQEzQYEDN8JnBKACRQPlQ3b+mH6LB
FAObQDAKQ8B8f6DBrJiyQN1SQkBEgqfBZpO1QHQqdUAPPorBYpd+QJJvc8CatZjB8z6GQCeeTsDF
Ro3BtEs8QJPfWcBObIbBXCavQPvv4EDFa9HBS1+sQGiyXkBgaZXBIqyFQDc4T0BvLaTBL8k6QL8q
cEDDhpTBxfjxQNd+TkAcyZvB23wpQNE7mcC7lIXBelbSQPHX0UBB28rB9xGhQNxnwUBNC9jBrHWO
QLou8ECEScvBeCj6QHHfxr4PqrrBOaLRQOMlC8DBGrHB6DnsQFJvAEBUi7bBKc1/QOz9XECWwbjB
lWr5QPKelEDLd6vBIKWLQGK4nkAIMcjBI+ACQaDEw0BLE7vBbQKNQG+FVT9lgJ/ByPllQN1+r78K
8J7Bhmu1QMJOYcAql6TBUnKXQDG8eEDRtoXBemDKQCIEREB6r4bBKdDFQBbLmUAW9YnBCPU6QHlf
bMCT/JrBPhGIQP3Nm8Cs0ZjBRhehQGpqcMBAdonBQNKNQLEJCsCX4Y3BtZRHQGQpP8D5znzBLisG
QBZyOMAaMYrB6HW7QCtc+0CWWtbBeeRYQJsUS0CGEqnBpw8DQCgmbkDuc5jBIsE7QCNBfUBHsozB
eFjvPzAOncBoVIHB+n7eQBF59r2wBbXBnazJQOaBj7/oCK/BsdjWQMp9nj+Hz7LBP5acQHi3gkBP
P7nBVq7hQBBal0CVyrHBc76jQCxunUBpEsLBxProQFm/sUDKrbrBGC+lQCtHGD+vsaTBi/msQDhp
Qr8Kv6bBD+26QNw+gEDv4bDB+Vq5QB5/zT/QtarBjQbKQHW6tUD/ycLBPk/LQMfGVkDJXZ3BJ2iD
QNspX0AgzpnBfSaXQDgW3r8jwJ/BF3GaQI5NRsDhAqHBui2yQNwLREAOiqfBRUe2QA6gdkBrS4rB
d42FQGIUg8Cqb5nBra42QPinaMBE95PBzxdBQCHZXcDAx4fBpIWwQD8s4UA5sdHBZLKsQGdnX0A7
a5XBOXaFQFn8UUAsJ6TBi+I6QMU9aECaLJTBhAjyQLhyUECU+ZvBsi54QBcJGMDUUYXBr4XTQIx+
0UB8I8vB+4uhQGPSwUBhP9jBa1CQQKhS8UAkjMvBe2X0QP9Ay744VLvBUpTPQKRxCsCXwrDBh3Xn
QJUiAEDzSbfBvlR/QDy9X0B61bjBOLn5QAuolEAVn6vBxRKMQJOKn0BWWMjBFlkDQcM2w0DNTbvB
cEyPQOW9Xj9UYZ7BE5CDQAvhrb8lTZnBN7OsQE2fXsAEsKfBF1+YQCAWeUDzqYXBycjLQKx5RkBL
yYbBW9/FQCfcmkCwGIrBLvd8QKRCoMB/B57B4cKcQFKJisCGFpPBVSQjQFX0KsCibZfBPcMEQHFg
jMBGgJXB2eQBQBQHUsAeMoTByGBcQNN1jMDTa4TBxlK9QG8t+0CBr9bBsnJYQOJzUUAsEqnBcNgC
QAbXZEDLA5jB1Ss8QFEwckDpRYzBJ4J9QL/FEsAUjnvB

> <OMEGA_E>
IOeSPnwulD5QipU+eOqWPrA1ij5goaE+iNubPg==

> <OMEGA_NBR>
     35195

$$$$
50168735
  -OEChem-04172616093D

 49 52  0     1  0  0  0  0  0999 V2000
    4.8225   -1.7955  -20.2991 C   0  0  0  0  0  0  0  0  0  0  0  0
    4.2136   -2.6086  -19.6381 C   0  0  0  0  0  0  0  0  0  0  0  0
    4.8513    4.1288  -23.1249 C   0  0  0  0  0  0  0  0  0  0  0  0
    7.0051    4.7795  -22.1783 C   0  0  0  0  0  0  0  0  0  0  0  0
    6.7950    1.3389  -22.3588 C   0  0  0  0  0  0  0  0  0  0  0  0
    5.1002    4.9358  -24.2457 C   0  0  0  0  0  0  0  0  0  0  0  0
    7.2581    5.5740  -23.3055 C   0  0  0  0  0  0  0  0  0  0  0  0
    7.0788    0.0046  -22.7016 C   0  0  0  0  0  0  0  0  0  0  0  0
    5.2076    0.5675  -20.6780 C   0  0  0  0  0  0  0  0  0  0  0  0
    5.4923   -0.7635  -21.0186 C   0  0  0  0  0  0  0  0  0  0  0  0
    5.7937    4.0533  -22.0725 C   0  0  0  0  0  0  0  0  0  0  0  0
    5.8314    1.6331  -21.3603 C   0  0  0  0  0  0  0  0  0  0  0  0
    6.3105    5.6675  -24.3391 C   0  0  0  0  0  0  0  0  0  0  0  0
    6.4246   -1.0508  -22.0389 C   0  0  0  0  0  0  0  0  0  0  0  0
    6.3362    3.3794  -19.6627 C   0  0  0  0  0  0  0  0  0  0  0  0
    4.0973    3.5397  -19.2120 C   0  0  0  0  0  0  0  0  0  0  0  0
    2.8444   -2.9485  -17.5123 C   0  0  0  0  0  0  0  0  0  0  0  0
    4.0418   -3.9028  -17.4363 C   0  0  0  0  0  0  0  0  0  0  0  0
    3.4527   -3.5243  -18.8003 C   0  0  0  0  0  0  0  0  0  0  0  0
    5.5472    3.0722  -20.9251 C   0  0  1  0  0  0  0  0  0  0  0  0
    5.6974    3.8964  -17.2867 C   0  0  0  0  0  0  0  0  0  0  0  0
    5.4985    7.0731  -26.0926 C   0  0  0  0  0  0  0  0  0  0  0  0
    5.3935    3.7390  -18.7142 N   0  0  0  0  0  0  0  0  0  0  0  0
    4.1482    3.2273  -20.4849 N   0  3  0  0  0  0  0  0  0  0  0  0
    2.9219    3.6529  -18.4842 N   0  0  0  0  0  0  0  0  0  0  0  0
    7.5350    3.2024  -19.4713 O   0  0  0  0  0  0  0  0  0  0  0  0
    6.6191    6.4766  -25.4135 O   0  0  0  0  0  0  0  0  0  0  0  0
    6.7080   -2.3296  -22.3805 F   0  0  0  0  0  0  0  0  0  0  0  0
    5.8851    8.2790  -26.5744 F   0  0  0  0  0  0  0  0  0  0  0  0
    5.1035    6.2805  -27.1232 F   0  0  0  0  0  0  0  0  0  0  0  0
    3.9342    3.5615  -23.0654 H   0  0  0  0  0  0  0  0  0  0  0  0
    7.7375    4.7209  -21.3868 H   0  0  0  0  0  0  0  0  0  0  0  0
    7.3136    2.1437  -22.8585 H   0  0  0  0  0  0  0  0  0  0  0  0
    4.3689    4.9994  -25.0379 H   0  0  0  0  0  0  0  0  0  0  0  0
    8.1880    6.1182  -23.3800 H   0  0  0  0  0  0  0  0  0  0  0  0
    7.8008   -0.2107  -23.4755 H   0  0  0  0  0  0  0  0  0  0  0  0
    4.5044    0.7783  -19.8859 H   0  0  0  0  0  0  0  0  0  0  0  0
    1.8522   -3.2829  -17.1752 H   0  0  0  0  0  0  0  0  0  0  0  0
    2.9739   -1.8831  -17.2712 H   0  0  0  0  0  0  0  0  0  0  0  0
    5.0302   -3.5219  -17.1397 H   0  0  0  0  0  0  0  0  0  0  0  0
    3.9085   -4.9216  -17.0437 H   0  0  0  0  0  0  0  0  0  0  0  0
    2.8633   -4.3041  -19.3047 H   0  0  0  0  0  0  0  0  0  0  0  0
    4.7837    4.1851  -16.7465 H   0  0  0  0  0  0  0  0  0  0  0  0
    6.0752    2.9445  -16.8853 H   0  0  0  0  0  0  0  0  0  0  0  0
    6.4613    4.6774  -17.1585 H   0  0  0  0  0  0  0  0  0  0  0  0
    4.6736    7.1989  -25.3758 H   0  0  0  0  0  0  0  0  0  0  0  0
    3.3493    3.1105  -21.0749 H   0  0  0  0  0  0  0  0  0  0  0  0
    2.0408    3.4924  -18.9292 H   0  0  0  0  0  0  0  0  0  0  0  0
    2.9555    3.8950  -17.5145 H   0  0  0  0  0  0  0  0  0  0  0  0
  1  2  3  0  0  0  0
  1 10  1  0  0  0  0
  2 19  1  0  0  0  0
  3  6  2  0  0  0  0
  3 11  1  0  0  0  0
  4  7  1  0  0  0  0
  4 11  2  0  0  0  0
  5  8  2  0  0  0  0
  5 12  1  0  0  0  0
  6 13  1  0  0  0  0
  7 13  2  0  0  0  0
  8 14  1  0  0  0  0
  9 10  1  0  0  0  0
  9 12  2  0  0  0  0
 10 14  2  0  0  0  0
 11 20  1  0  0  0  0
 12 20  1  0  0  0  0
 13 27  1  0  0  0  0
 14 28  1  0  0  0  0
 15 20  1  0  0  0  0
 15 23  1  0  0  0  0
 15 26  2  0  0  0  0
 16 23  1  0  0  0  0
 16 24  2  0  0  0  0
 16 25  1  0  0  0  0
 17 18  1  0  0  0  0
 17 19  1  0  0  0  0
 18 19  1  0  0  0  0
 20 24  1  0  0  0  0
 21 23  1  0  0  0  0
 22 27  1  0  0  0  0
 22 29  1  0  0  0  0
 22 30  1  0  0  0  0
  3 31  1  0  0  0  0
  4 32  1  0  0  0  0
  5 33  1  0  0  0  0
  6 34  1  0  0  0  0
  7 35  1  0  0  0  0
  8 36  1  0  0  0  0
  9 37  1  0  0  0  0
 17 38  1  0  0  0  0
 17 39  1  0  0  0  0
 18 40  1  0  0  0  0
 18 41  1  0  0  0  0
 19 42  1  0  0  0  0
 21 43  1  0  0  0  0
 21 44  1  0  0  0  0
 21 45  1  0  0  0  0
 22 46  1  0  0  0  0
 24 47  1  0  0  0  0
 25 48  1  0  0  0  0
 25 49  1  0  0  0  0
M  CHG  1  24   1
M  END
> <OMEGA_C>
ElKaQJDS5b+MZKLBGNaGQPzzJsDoGp3BAj6bQLoehEDK/7jBtyngQFnxmEAkbbHB5nDZQHFfqz/Y
3rLBJTWjQC3ynUBG98HBjELoQD1eskCgcbrB5oXiQKD9lTvtnLXB/6SmQIhJET92bKXBB8GvQAB0
Q78eJqjBP2a5QIG0gUB/lLDBf5q6QPIH0T/l4arBcO/JQOtbtUBltsLBcZbNQOyBhr+iT7DBcsLK
QHdHWEBJTZ3BfB2DQOiKYkAYspnBYws2QL+0PMA/GYzBUFaBQEDHecCLfYvBsPlcQDiOYcAUZ5bB
j4KxQGieRECCZqfBz1C2QIpeeUAwS4rBWPOvQDdX4kCuvdDBNZesQHdLb0DHtpXB872EQPSLTkAY
4aPBwf86QHLJaUCi35PBgR7xQMP0TEAsxZvBVM/TQGpAz0DPTsvB1afWQF4XFcAzC7PBu1K8QN52
BEFOmNTBFVCjQLX5yEBQ/NjBBMp7QNfvY0DhhbjB9pn3QJ0Rl0AiGKvB/gjqQJcyCUAz3rbBCc6L
QCT7n0CZTcjBOwIDQebHw0AzCrvByZ/5QEzDV77YzbvBxyOQQH08Rz9GFp/BcRTtP4QaUsDZZonB
olM+QOAJ8b9wK4rBQfegQLdmYcAHHonBGCV6QCZ+ncBwWYjBnT83QHm7icABcJrBPRSZQLbshUC9
+IXBKGjCQP1yPEAGFYfB4MLOQGOtlUCyRInB6Y2VQGBd5kC9AcvB+VpWQJYSR0B+majBNJ0CQGSD
X0AJb5fBcSY9QG1IeUDEHYzBL2qYQI7k079cLqDB3USDQD5qEsBJ15nBbRmdQFLrgUDTWrnBu5Dh
QA/xl0C9t7HBXvnXQDCaoD9qzbLBy2ekQOMtnEB7PcLBP+voQEscskBFpbrB9+LfQJw22r2h+rTB
/yimQBSVHT8ixKTBjDWuQI1QO7/k1qbB2Qu7QJJogEBm47DBLT+6QOa2zz/7vKrBzCvKQIoztUBs
1MLB7//KQJTmjb+N/67B/2LLQKGCWEAMY53BsIyDQBZHYkCF75nBrDN8QBq8dsCLvYnB9rxJQB8u
j8A5CpPBqORQQFtQPcBqCpLBqXCyQDbLREDnjKfBh/61QBttdkCrVIrB8aatQFHe30DMINHBZtms
QMU5bkCNzpXBnZiFQAcoUkCbN6TBIVI7QDEuZkA7LJTBkaPxQLuZTECrwpvBZF/SQFU90UAXIsvB
SD/TQNVpGsDNCLHB/R6RQAnN80Boj8rB2Ce7QO4h/EDanNjB2WqAQEJnXUAn97jBZFb5QOHBlUBe
eKvBtZHoQEo2AUDwR7fB9UKNQBVhnUBSpsjBYTEDQbUCxEDiPbvBK//1QEDbw77gPbvByiOQQIoC
Yz9seJ7BU9JiQPkiesAPi4HB6DGhQNHre8AKh4nBR8BrQKcEoMA+fpnBzC4MQDsgn8BDgpHBN9wW
QHC/G8DcWo/B8IeYQIkQhEDmDYbB2fXBQK8COUBYPYfB/VrOQKEjlEBrGYnBA2+eQL8pxED5/9TB
8apYQApPT0BnHanBMWADQEtjXEA83JfBgqQ8QEbJckDMVIzB

> <OMEGA_E>
gJjTPKDFvz0=

> <OMEGA_NBR>
     37154

$$$$
50168741
  -OEChem-04172616093D

 47 49  0     1  0  0  0  0  0999 V2000
    7.0568   -0.1256  -22.6545 C   0  0  0  0  0  0  0  0  0  0  0  0
    6.7277    1.2052  -22.3603 C   0  0  0  0  0  0  0  0  0  0  0  0
    4.8561    4.0678  -23.1711 C   0  0  0  0  0  0  0  0  0  0  0  0
    6.9930    4.7195  -22.1986 C   0  0  0  0  0  0  0  0  0  0  0  0
    6.5012   -1.1766  -21.9050 C   0  0  0  0  0  0  0  0  0  0  0  0
    5.0873    4.9374  -24.2552 C   0  0  0  0  0  0  0  0  0  0  0  0
    7.2256    5.5797  -23.2830 C   0  0  0  0  0  0  0  0  0  0  0  0
    5.2453    0.4331  -20.5706 C   0  0  0  0  0  0  0  0  0  0  0  0
    5.7948    3.9633  -22.1164 C   0  0  0  0  0  0  0  0  0  0  0  0
    5.8039    1.5061  -21.3318 C   0  0  0  0  0  0  0  0  0  0  0  0
    6.2769    5.7110  -24.3110 C   0  0  0  0  0  0  0  0  0  0  0  0
    5.6023   -0.9223  -20.8492 C   0  0  0  0  0  0  0  0  0  0  0  0
    6.3334    3.3341  -19.7050 C   0  0  0  0  0  0  0  0  0  0  0  0
    4.1082    3.5983  -19.2694 C   0  0  0  0  0  0  0  0  0  0  0  0
    5.5346    2.9785  -20.9516 C   0  0  1  0  0  0  0  0  0  0  0  0
    5.7277    4.1103  -17.3942 C   0  0  0  0  0  0  0  0  0  0  0  0
    4.1367   -1.8645  -19.1140 C   0  0  0  0  0  0  0  0  0  0  0  0
    3.9839   -3.1353  -18.2376 C   0  0  0  0  0  0  0  0  0  0  0  0
    5.4822    7.0080  -26.1808 C   0  0  0  0  0  0  0  0  0  0  0  0
    5.4103    3.8261  -18.8000 N   0  0  0  0  0  0  0  0  0  0  0  0
    4.1439    3.1595  -20.5062 N   0  3  0  0  0  0  0  0  0  0  0  0
    2.9407    3.7930  -18.5467 N   0  0  0  0  0  0  0  0  0  0  0  0
    7.5315    3.1594  -19.5068 O   0  0  0  0  0  0  0  0  0  0  0  0
    5.1778   -2.0405  -20.1153 O   0  0  0  0  0  0  0  0  0  0  0  0
    6.5727    6.6041  -25.3289 O   0  0  0  0  0  0  0  0  0  0  0  0
    3.5998   -4.2107  -18.9778 F   0  0  0  0  0  0  0  0  0  0  0  0
    3.0486   -2.9068  -17.2758 F   0  0  0  0  0  0  0  0  0  0  0  0
    5.7895    8.2111  -26.7260 F   0  0  0  0  0  0  0  0  0  0  0  0
    5.3066    6.0995  -27.1767 F   0  0  0  0  0  0  0  0  0  0  0  0
    7.7408   -0.3442  -23.4613 H   0  0  0  0  0  0  0  0  0  0  0  0
    7.1828    2.0068  -22.9231 H   0  0  0  0  0  0  0  0  0  0  0  0
    3.9537    3.4750  -23.1444 H   0  0  0  0  0  0  0  0  0  0  0  0
    7.7341    4.6321  -21.4178 H   0  0  0  0  0  0  0  0  0  0  0  0
    6.7673   -2.1961  -22.1418 H   0  0  0  0  0  0  0  0  0  0  0  0
    4.3570    5.0160  -25.0469 H   0  0  0  0  0  0  0  0  0  0  0  0
    8.1437    6.1467  -23.3278 H   0  0  0  0  0  0  0  0  0  0  0  0
    4.5459    0.6489  -19.7764 H   0  0  0  0  0  0  0  0  0  0  0  0
    4.8301    4.4909  -16.8848 H   0  0  0  0  0  0  0  0  0  0  0  0
    6.0653    3.1869  -16.9008 H   0  0  0  0  0  0  0  0  0  0  0  0
    6.5256    4.8657  -17.3440 H   0  0  0  0  0  0  0  0  0  0  0  0
    3.1818   -1.6606  -19.6207 H   0  0  0  0  0  0  0  0  0  0  0  0
    4.3988   -1.0127  -18.4692 H   0  0  0  0  0  0  0  0  0  0  0  0
    4.9605   -3.3317  -17.7709 H   0  0  0  0  0  0  0  0  0  0  0  0
    4.5671    7.0881  -25.5757 H   0  0  0  0  0  0  0  0  0  0  0  0
    3.3376    2.9740  -21.0678 H   0  0  0  0  0  0  0  0  0  0  0  0
    2.0544    3.5961  -18.9660 H   0  0  0  0  0  0  0  0  0  0  0  0
    2.9851    4.1305  -17.6064 H   0  0  0  0  0  0  0  0  0  0  0  0
  1  2  2  0  0  0  0
  1  5  1  0  0  0  0
  2 10  1  0  0  0  0
  3  6  2  0  0  0  0
  3  9  1  0  0  0  0
  4  7  1  0  0  0  0
  4  9  2  0  0  0  0
  5 12  2  0  0  0  0
  6 11  1  0  0  0  0
  7 11  2  0  0  0  0
  8 10  2  0  0  0  0
  8 12  1  0  0  0  0
  9 15  1  0  0  0  0
 10 15  1  0  0  0  0
 11 25  1  0  0  0  0
 12 24  1  0  0  0  0
 13 15  1  0  0  0  0
 13 20  1  0  0  0  0
 13 23  2  0  0  0  0
 14 20  1  0  0  0  0
 14 21  2  0  0  0  0
 14 22  1  0  0  0  0
 15 21  1  0  0  0  0
 16 20  1  0  0  0  0
 17 18  1  0  0  0  0
 17 24  1  0  0  0  0
 18 26  1  0  0  0  0
 18 27  1  0  0  0  0
 19 25  1  0  0  0  0
 19 28  1  0  0  0  0
 19 29  1  0  0  0  0
  1 30  1  0  0  0  0
  2 31  1  0  0  0  0
  3 32  1  0  0  0  0
  4 33  1  0  0  0  0
  5 34  1  0  0  0  0
  6 35  1  0  0  0  0
  7 36  1  0  0  0  0
  8 37  1  0  0  0  0
 16 38  1  0  0  0  0
 16 39  1  0  0  0  0
 16 40  1  0  0  0  0
 17 41  1  0  0  0  0
 17 42  1  0  0  0  0
 18 43  1  0  0  0  0
 19 44  1  0  0  0  0
 21 45  1  0  0  0  0
 22 46  1  0  0  0  0
 22 47  1  0  0  0  0
M  CHG  1  21   1
M  END
> <OMEGA_C>
YNHhQCSoAL55PLXBC0nXQMVDmj/n4bLB5mSbQEkrgkB7XrnBccbfQF8Gl0CplrHBAArQQMyZlr+A
Pa/BjMuiQGv/nUCgCsLBKDjnQPeMskCiQ7rBdNmnQG283T6bkKTBmG65QBSmfUBt7rDBWbm5QKLG
wD+Kp6rBCtzIQHHAtkDffMLBbkazQMMYbL8/y6bBIavKQHdhVUDAo53BIHaDQEpKZkCmJ5rB2hux
QGGfPkDwnKfB/Ui3QDWHg0BIJ4vB11+EQKam7r+K6ZjB1Ph+QECpSMCh5pHBHG6vQN1B4EBTctHB
QSGtQNDedEB2ZpbBwpqEQDw1SkCbDKTBKjQ8QFDBckC5X5TBuwHxQHUzSkD1DZzBlbClQDyXAsAn
7KDBZlPSQHlU00CJocrBfmJmQM+9hsB70pfBQBxDQKYJOsDhNIrBt0O5QJtgA0HAztXBnc+pQBYv
w0DpadnBirT3QKQ2sL6psLvBn9nlQKFuAECEYrfBpgl9QKplXkDJJ7nBoH33QIw6lEDBV6vB9Y3Y
QGyNDMB7IrHBxWyLQHaDoEAcYMjBlkwCQe2xxEBJn7rBZ3iRQKgdJj8aNp7B1o+aQBy1j0AaFIfB
HxfCQIn2S0DNNIfBD9LQQN+zm0CLwIrBQKNLQFGN1L8b95zBGsOMQI6hgb/TwJPBQbyeQMQ6VcDa
Ko7BnyWSQBvS4kAHm8zB+ZpVQFZVPkDaiqjBw3sDQMAlZkBJupfBUQs/QPYshED92YzBtnXjQGEX
Kr7I2rTB+7zZQLlClT8GUrLB++qbQMHCgECXW7nBiLjfQMS5lkBJd7HBSMXOQKYznL+aga/BOLSi
QKNVnUDd68HBNZzmQITiskBaC7rBoQGnQLLKxj5DuKTBsO25QPBBe0B15bDBWL66QP+juz/ZbqrB
vy/IQLj7tkCxQMLBeqqwQGZUd7/2W6fB3/fKQD/zUkD9iJ3BK3SDQMvtZUClUJrB7bSxQM4wPEDI
iafBAqu2QIzFgkCoEovBrUeTQJ4HB8C+q5fBWf51QH1rWsBYq5TByc6tQLeh4UBa59DBEKWsQEZn
Z0Cv55XBiPmEQGx1R0AMF6TB3So8QIC7fEDUDpXBz5XxQNMXS0DfEZzBxjmbQMLHBMBjIaPBlBrR
QCVG1EDBRsrBM99jQPFIWsD7BorBZbmSQLmXkMB4+pbBK9W2QHR6BEGh59TBNI2oQPS3xUAAI9nB
Yvb6QBooxL5U8rrB+wnqQH38+z/7a7bBZBJ/QLYXWkAeP7nBq3f3QJsflEDtOKvBOg7WQOtnD8Bc
rLHBSk6LQIG4n0CAQMjBCtEBQZucxUAhVrrB2KGQQLJdGj/hXJ7B8sKYQNeNiEChqYbBxqrJQA27
VEAk34bBNRrJQMWxoEAgkIvBdqZ/QMKSnr8jYpXBEfyxQNAVBcDqX5PB0Ds6QHBTW8DaUZnB+5qQ
QIHl4kAiAMzB8rhWQJ3MOUA+kqjB+K0DQBJWdkCMu5jBm8A+QI7JiUCAl43Bw4/jQMTaar64+7PB
isDaQJjojz8z1bHBGhmdQBrpfkDembnBjezfQHlgl0Bgg7HBkOTMQKbMn7/Fna7BYJejQKTwm0Dx
LcLBv3jmQOSQs0BrGbrBVkqlQK504D5moaTBisa6QEyxekBiDrHB0+S6QADivD+bS6rBNELIQAu3
tkDRYsLBNKStQE99bL/N4abBLXfLQB3pVEDuoJ3B6PWDQAK+ZkAva5rBdWiyQHUqPUA9nafBY9e2
QEIEgUD+DYvBJAufQEG3FsBXwJfBb0V+QEnBWsCPaJPBRTCsQLuK4kD6pNDB/W+tQCCGckDYZJbB
YLGFQEzESUC8QaTB2Ww8QIZQdkAi7JTB7NnxQInjSkB1/5vBzRKUQPeY9r9piaLBMWHQQDM/1ED7
ZsrBy4huQJ/di8Du75rBDP8yQEiTNcB1gJDB3ceNQFJb9EAgPcrBBAq6QCNdAEHSoNfBu9D7QFeq
+r6JxrnBB1/sQDjr8j9N87XB+ziBQCMOVkDuibnBvWb3QHd7lUDFMKvByXzTQH8rEsCQb7DBL5mM
QCxpnUCOnsjB14EBQUkHx0DJVrrB5zmOQNgnMj/liJ7Bn9SZQJKkjECUAYfBwnfBQI0QRkCbSYfB
WEnQQEAvmUDGXorBsIaeQHlkvb9XbJLB52O/QOR4MsAE15fBLiuOQK5reMBDXozBDcWeQKkQx0Da
ANXBsVJYQJvfPUA/2KjBgxIEQANpa0AMdpjBE1U+QIE5hkB9a43BmWfgQHY9Gr6NPbXBTkvWQPir
lz+U7rLBotqbQDHMgUBcc7nBJ7nfQLN4l0BJhrHBb/zOQESimL+GEq/BwDajQKmynUBAG8LBwxvn
QGkfs0DKLrrBUwSoQGXp3j5MS6TBVK25QGWBfUBr9bDBMnG5QAD4vz91larB4vLIQAr0tkA8d8LB
mxKzQETBbL/FeKbBZbrKQPBNVUD0p53BIICDQFlzZkDiNJrBtDSxQDufPkAzoafB3CW3QHFbgkBZ
GovBoUKCQH7P8b8HEJnBOpd3QFqcScBy8ZHBEzevQEjV4EAWW9HB2CWtQMpadEDCZZbB3reEQMPy
SkDcHqTBsSU8QCV1ckDGcJTBqgvxQA7bSUDGEZzB0YamQJYMAsAiTqDBX2TSQDRF00CYrMrBJrSe
QLX9VsAGp4vBj6BpQFZbiMCR+ZfBHAiSQIoL90ALe8vBbMW+QDnJ+kA7ItnBwLH1QMWTwr5Yy7vB
V6TkQC1N/T/fj7fB5lZ+QAsQXUAsSrnBDz/3QLz6lEC6OavBhB/XQGrJDcAL9LDBYQ6MQEjjn0AZ
f8jBGiICQSyjxUDYerrBuUSSQOGEKT9H1J3BGXaaQLmIjkDtAofB7ZHBQF7ZSEBiRofBk+rQQAg9
mkBcj4rBlT1KQMTb3L9+0p3BEdKHQAyIgr902pPB0mI/QPxTPcAM34zBZiOgQINrxEAh7tTBGupV
QJTmP0A6qajBMYUDQPvyZUAZ05fBQso+QA7Qg0Dj5YzBTqHfQA1Xx77ZM7LBmjbZQHRXgD+4EbHB
IsXhQHp3l0AR1rHBo/CeQDCNfkDM4bnB/pjGQH7fp79QSqzBEHznQPJvtEDZT7rBt2SkQKisnECk
RcLBrs2gQBN3DD/OHKTBvv28QHbueUAPb7HBASq5QBIYvj8HEqrBfsTIQCDPt0ATf8LBJ8KmQDZz
Vr/EJqXBR1LMQBJJVkBGwp3BQIKEQLLiY0Ati5rByYCzQMlaP0B71qfBGG+2QA52dkCwz4rBLsaZ
QKjbPMBBxZvB1H6BQGBtVsDcZpHBzVGrQPC240DFe9DBAritQAD1bUCCTJbBB+OGQLakUUDowKTB
YY48QIQma0DJ/JTBqK7yQCYsTEAPGpzB4dmKQCQT07/pUJ/BnB7QQH7B1UCKc8rB7WuQQOxJkcC6
tI3BX08tQCKPXcB+MJPBeyS0QDFKBUFRxNTBYsCiQKitx0CFhdjButv3QAUBQb83obfBnr7sQJcu
2T/uibXBdoz5QANglUCVlqvBmYiDQGVxVEAB4bnBzcLLQO3fF8BbOK3Bq94BQfJQyEDfi7rB19GM
QL6fnkA6ksjBMeWIQFbIaT/XmJ7BgQCZQNHuhEBSo4bBRYLBQGGwOEABoIfBD1bPQF+Zk0AVj4nB
nlO8QEnqOcCTIZrBJZqTQCmlbMCyC6LBNoaHQC38I8B1c4vBjbGPQMoG5kCLD8vBL9xbQEZOUEAL
wqnBuusEQHlMYkCiyJjBHww9QN49eUAbL43BfbzcQHbdz77RLrLBvazWQHi/fT8DS7HBJjOfQCoQ
f0CIIrrBtpXhQHrhl0DR47HBS/vEQEgPp7+NuavBszulQNK4nEBrj8LBEs7nQBuutEBzXrrBNdug
QOB/Fj9xmKPBgcq8QKq6ekBUlbHBaeq3QF0iwD+VD6rBx5rJQDXht0ADq8LBN9mmQCrUTL8LP6TB
Q/PLQHyLV0BW6p3BJVGEQLI7Y0DmgprBStSyQAfDQEAe9afBYs22QNSeeUDc+orBIOCVQMetPsCx
BpzB3caDQP2qXcCDGpHBu9KsQJOg5EBujtDB1ZitQBTRb0DxbJbB/laGQExCVEDE0aTB+x49QHYi
ZEDmrZTBNEHyQAhbTEDMSJzB+AyOQG43x7+9K53BXXTRQI+41UCnnMrBVU80QKnSRcAIzo/BvQSb
QFEuO8AP+ojB+uy1QO38BUG+hNTB8EukQAGqyUDC0djBVrjzQPbmSr+E2LfBknrpQENh1T84H7bB
i7mDQNsiVUC7MLrB9v/4QCnplUDjjavB7svJQAezF8AwfqzBMh2OQA15nkCo98jB7QcCQcGRyECk
hLrBmcuJQGWCeT/z853BsYWZQEqjhkAowobBSSDCQB5GPEB/uIfBDazPQA1UlUAA4YnBuYK4QGT/
SsBMVZzB4O+FQApkYcA8kKLBG2SGQF3ukcA/8pDBWB6RQKtg5kBDJcvB3MdaQBvRVUA806nBfU4F
QDfoWEBsVZjBCH4+QBUDcED00YzB/0vcQBm2rb6Kb7TBBsfTQLSZhD+c/bLB1T+dQKUggECtv7nB
sz7gQHIel0D3lLHBPaHLQE5Gpr8KOK3BY8ajQO1AnUD+LcLBh87mQBX9s0CHBLrBcnCoQMFq+D5U
Y6PBcAG7QCprekDPPbHBHuG4QHW+uj+ZiKrBTZLIQO7dt0CPRsLBcSayQItyYb+aeqTBkFHLQNPw
UUB7yp3BWMKDQEHFYkBIeJrBBBeyQKCcPEAY5afBYOm2QAagf0ASJ4vBwYWPQFnBN8AWQJ3BVSqC
QNKGXMArJZLBw+2sQBwG5ECjfdDB0eCsQHWmYUB1/5XB+myFQDFtSkDfgaTBno48QGJSd0DcHpXB
yQHyQDlOS0DZWZzBncWpQI2+2L9wsZvBO+jQQP7D1UC0L8rBr6VQQLG6JMDdzozBakylQK2Ua8DK
+4vB5COPQC8p90AhJcrBQS+7QM5+AEGJvNfBGbLvQBB5Kb+WGrvBk8ThQPu/4T/QVLjBPEmBQD+j
V0AIxbnB6cb3QPWYlEAiSavB9VrSQLRKFsBhYq7BmreMQJRbn0ASmMjBw7ABQW5rx0AJKrrB9t6T
QKc8TT9G7JzB2hiZQFCDg0AqkYbBaLHLQLmtUEC1JofBunnHQDjRnkDXnIvBD9ahQDBMaMAur6HB
MWxlQGJ6JsBP0qHBvPBhQGtojMAEnpPBqM6eQIxLyEC0mtTB88JXQL5XQkDtN6nBhWAEQJEHdEAv
7pjBBqs+QAO4hEDIc43Bf8zfQEHSwr63bLLBm7LYQNcJgT/FUrHBUPLgQCmsl0BFsLHBgOGeQKTh
fUDuB7rBCavHQNa6p79KXqzBSvXmQPnOtECmFrrBQ9CkQDNcnEAtasLB8xehQIq6CD+3MKTBTGW8
QIK0eUBgdLHB3rS4QC0wvT+5P6rBrN/IQIjzt0BnZ8LBv/KnQPYjWb8FJqXBI9zLQIZWVECI1Z3B
dQWEQLY+YkA0gZrBetKyQOaaPkCe7KfBK662QGZMekBQ8YrBay2eQJZJPMD1aZvBqdSBQP5ZX8BD
NZLBLbCsQEHL40AQldDBwyytQILtYkDBD5bB3DuGQHCyUECRv6TBCAw8QAB1bkCe/JTBk2vyQKD3
S0BCUpzBED+NQIUe1r80HJ/BYtbQQGTm1UC6T8rBemh5QDCWI8AcX4rBHZKUQK3bksAY243BHniQ
QF+P+UBkUsrBUyy7QL01/kDiYNjBpdr3QJF+PL/H77fBQ6frQCDU2j9437XBYln4QDqplUDRWavB
SpODQBSFU0DhIrrBaGvNQBioF8CHP63BKH4BQbsGyUB2KrrB4+SNQBz0nUCC3sjBfBSJQIepYz8g
qp7B1JKYQH8JgUDrfIbBS/TJQBWGR0CBNYfB5abIQPJom0Bry4rBpA2/QBwaM8CFfJjBBFGeQIBQ
asCSEqLBBCxFQGVccMCMqJXBRhWdQAScx0DEINTBeFlaQCe1T0DTuKnBHxoEQE0HakAh1ZjBbC09
QKWxe0A6KY3BylHaQEq+JL/goa/BtC/VQL5sQz8H7K/BcLKgQMT2d0BQhLrB4AviQOyNlUCQC7LB
p+bBQO9muL+pg6jBCSilQA1em0DajMLBIbDmQL59tEA6HbrBDnGeQABjED+mI6LBw2G+QIbNckBx
97HBLbG2QP9HsT+jM6nBVxzIQKlguECiTMLBSaejQPzIVL8LpKHBr5rMQD4OVUBnGp7B7wKFQKaT
ZUBS+5rB9Y6zQIJJO0BVEKjB3Ou2QIr0eEABR4vBomSaQHbOKMCklJTBq8uPQHQpgMCIn5nBl4Sq
QA0w5EC8ZdDBejuuQMrKb0ANwpbBe1uHQNYRU0DXMKXBt8Y9QG4Wa0DVWZXBPvLyQFgVS0C/ZpzB
5ZeIQLbqw78ptprBs2nOQArL2EBkuMnBj3tKQE8/g8CywpvBwPqaQPu0n8Dsq5LBajywQE9yBkGa
5NPBaWCoQAWcyUA2/djBjibxQJDEjr8w6LTBu4PoQFsUrj8rQ7XBa1uGQAlQS0CK4rrBIuf5QIQm
k0Ck0qvB9V7GQMe5IMAgVqjBb+KNQPBWnUAw68jBogsBQQ+MyUC/BrrBCCWHQKr5gz8t95zBhMyZ
QJl6h0CVK4fBttDAQPnIOkCw+IfB4qzQQCr+k0BeFYrB7yKNQOTaJsClbozBll+9QE6BIcAROJTB
7mWiQIkIg8AvD6HBHfaMQPbj4UAhp8vBgXddQCzSVECYS6rBtiMGQM+pYEB/FZnB22o+QKB8eUBy
jo3B

> <OMEGA_E>
iEBPPkCqbT4Qtns+SLOBPtyghj4QUYw+ALKQPnCplT5cCNk+

> <OMEGA_NBR>
     44752

$$$$
50168742
  -OEChem-04172616093D

 45 47  0     1  0  0  0  0  0999 V2000
    4.8696   -1.8135  -20.0465 C   0  0  0  0  0  0  0  0  0  0  0  0
    4.3594   -2.6177  -19.2938 C   0  0  0  0  0  0  0  0  0  0  0  0
    7.0125   -0.1254  -22.6306 C   0  0  0  0  0  0  0  0  0  0  0  0
    6.3762   -1.1452  -21.8939 C   0  0  0  0  0  0  0  0  0  0  0  0
    6.7448    1.2287  -22.3467 C   0  0  0  0  0  0  0  0  0  0  0  0
    7.0253    4.7403  -22.2100 C   0  0  0  0  0  0  0  0  0  0  0  0
    4.8597    4.1151  -23.1432 C   0  0  0  0  0  0  0  0  0  0  0  0
    7.2559    5.5769  -23.3123 C   0  0  0  0  0  0  0  0  0  0  0  0
    5.0863    4.9630  -24.2392 C   0  0  0  0  0  0  0  0  0  0  0  0
    5.1948    0.5434  -20.5924 C   0  0  0  0  0  0  0  0  0  0  0  0
    5.4709   -0.8073  -20.8672 C   0  0  0  0  0  0  0  0  0  0  0  0
    5.8176    4.0076  -22.1074 C   0  0  0  0  0  0  0  0  0  0  0  0
    5.8117    1.5763  -21.3371 C   0  0  0  0  0  0  0  0  0  0  0  0
    6.2933    5.7026  -24.3294 C   0  0  0  0  0  0  0  0  0  0  0  0
    6.3479    3.3713  -19.6862 C   0  0  0  0  0  0  0  0  0  0  0  0
    4.1110    3.5559  -19.2478 C   0  0  0  0  0  0  0  0  0  0  0  0
    5.5602    3.0393  -20.9464 C   0  0  1  0  0  0  0  0  0  0  0  0
    3.7506   -3.5531  -18.3523 C   0  0  0  0  0  0  0  0  0  0  0  0
    5.7042    3.9664  -17.3289 C   0  0  0  0  0  0  0  0  0  0  0  0
    5.4771    7.0697  -26.1276 C   0  0  0  0  0  0  0  0  0  0  0  0
    5.4054    3.7731  -18.7537 N   0  0  0  0  0  0  0  0  0  0  0  0
    4.1634    3.2271  -20.5159 N   0  3  0  0  0  0  0  0  0  0  0  0
    2.9334    3.6602  -18.5227 N   0  0  0  0  0  0  0  0  0  0  0  0
    7.5431    3.1839  -19.4826 O   0  0  0  0  0  0  0  0  0  0  0  0
    6.5944    6.5450  -25.3840 O   0  0  0  0  0  0  0  0  0  0  0  0
    5.8725    8.2163  -26.7327 F   0  0  0  0  0  0  0  0  0  0  0  0
    5.0804    6.1818  -27.0776 F   0  0  0  0  0  0  0  0  0  0  0  0
    7.7079   -0.3830  -23.4157 H   0  0  0  0  0  0  0  0  0  0  0  0
    6.5817   -2.1821  -22.1154 H   0  0  0  0  0  0  0  0  0  0  0  0
    7.2522    2.0048  -22.9003 H   0  0  0  0  0  0  0  0  0  0  0  0
    7.7729    4.6544  -21.4353 H   0  0  0  0  0  0  0  0  0  0  0  0
    3.9469    3.5404  -23.0904 H   0  0  0  0  0  0  0  0  0  0  0  0
    8.1814    6.1295  -23.3802 H   0  0  0  0  0  0  0  0  0  0  0  0
    4.3403    5.0522  -25.0150 H   0  0  0  0  0  0  0  0  0  0  0  0
    4.5028    0.7959  -19.8025 H   0  0  0  0  0  0  0  0  0  0  0  0
    3.4866   -4.4830  -18.8774 H   0  0  0  0  0  0  0  0  0  0  0  0
    4.4639   -3.7776  -17.5456 H   0  0  0  0  0  0  0  0  0  0  0  0
    2.8425   -3.1035  -17.9243 H   0  0  0  0  0  0  0  0  0  0  0  0
    4.7924    4.2851  -16.8025 H   0  0  0  0  0  0  0  0  0  0  0  0
    6.0643    3.0204  -16.8983 H   0  0  0  0  0  0  0  0  0  0  0  0
    6.4800    4.7383  -17.2184 H   0  0  0  0  0  0  0  0  0  0  0  0
    4.6499    7.2738  -25.4319 H   0  0  0  0  0  0  0  0  0  0  0  0
    3.3657    3.1187  -21.1091 H   0  0  0  0  0  0  0  0  0  0  0  0
    2.0555    3.4799  -18.9664 H   0  0  0  0  0  0  0  0  0  0  0  0
    2.9621    3.9158  -17.5564 H   0  0  0  0  0  0  0  0  0  0  0  0
  1  2  3  0  0  0  0
  1 11  1  0  0  0  0
  2 18  1  0  0  0  0
  3  4  2  0  0  0  0
  3  5  1  0  0  0  0
  4 11  1  0  0  0  0
  5 13  2  0  0  0  0
  6  8  2  0  0  0  0
  6 12  1  0  0  0  0
  7  9  1  0  0  0  0
  7 12  2  0  0  0  0
  8 14  1  0  0  0  0
  9 14  2  0  0  0  0
 10 11  2  0  0  0  0
 10 13  1  0  0  0  0
 12 17  1  0  0  0  0
 13 17  1  0  0  0  0
 14 25  1  0  0  0  0
 15 17  1  0  0  0  0
 15 21  1  0  0  0  0
 15 24  2  0  0  0  0
 16 21  1  0  0  0  0
 16 22  2  0  0  0  0
 16 23  1  0  0  0  0
 17 22  1  0  0  0  0
 19 21  1  0  0  0  0
 20 25  1  0  0  0  0
 20 26  1  0  0  0  0
 20 27  1  0  0  0  0
  3 28  1  0  0  0  0
  4 29  1  0  0  0  0
  5 30  1  0  0  0  0
  6 31  1  0  0  0  0
  7 32  1  0  0  0  0
  8 33  1  0  0  0  0
  9 34  1  0  0  0  0
 10 35  1  0  0  0  0
 18 36  1  0  0  0  0
 18 37  1  0  0  0  0
 18 38  1  0  0  0  0
 19 39  1  0  0  0  0
 19 40  1  0  0  0  0
 19 41  1  0  0  0  0
 20 42  1  0  0  0  0
 22 43  1  0  0  0  0
 23 44  1  0  0  0  0
 23 45  1  0  0  0  0
M  CHG  1  22   1
M  END
> <OMEGA_C>
JdSbQLoh6L9EX6DBkICLQHqIJ8CyWZrBWmbgQHFuAL6AC7XBFQrMQDqWkr/NJq/BFNXXQElFnT8Z
xrLBaM/gQHOwl0ALrrHBDYObQDGvg0BWJbnBYzDoQCV2skCQf7rBXMOiQCLRnkDz6cHBdTumQJka
Cz8ivaTBThGvQHOuTr8K8KbBzCm6QGk+gEDj27DBMfm5QLbDyT9NsqrBomLJQBh8tkCKosLBUiLL
QCLDV0BpfZ3Bpo2DQPCTY0Bp+5nBjO2xQI2EQkBRkqfBZwlwQLZmY8CU0ZLBbYi2QNTYfUCDoYrB
kESvQNU64kBPBdHBVvmsQNB6cUCMB5bBqjqFQNOITkCqIKTBULw7QDBBakCXLpTBdGHxQNTFS0BZ
3JvBIgXTQLFw0UBfEsvBwOu7QMl1A0GG3NXB5pKiQErRxUDmntjBeKf2QOYYxL5qU7vBCZ3SQKyn
C8BO7LDBYBLoQMxOAEDiM7fB37v4QEDxlECJe6vBdZp8QC+VYkA4ubjB0OYCQc4kxEC9CrvBweOK
QLWroUDJHsjB8xaQQBfDSz+Za57BWiRfQIF0j8D+BJfB7teOQJfEccBeXYzB1es1QPqeRsD2ZI/B
KluZQE8fiUB2a4bBhg7CQKNNQUCrL4fB1lvPQFSgl0BSv4nBzsuUQBbD6ECCdMvBI2dXQO6YR0B+
36jB6owDQKe2XkAXu5fBMpM9QCucekB4c4zB+3ucQI7u578Jm5/BB1CMQMoUJsBUYZnBtbPfQIJK
L75u07TBqs3LQKbFlr8ssK7BXyfXQIACmD9jv7LBFQ2cQFZigkDtXrnBWs7gQAtGl0DkwbHBxByj
QIjhnUDAFsLBv9rnQJunskDhebrBWmymQIZ1CD99baTBzEavQICIUr87bKbBpm+6QNWqfkD6ArHB
ecm5QOKvxj+ZnarBiyPJQHegtkCYosLBNUfLQFcmV0Dal53B5ryDQNktZECuH5rBjQiyQIlQQUD7
pqfBSX1xQNMBYMBJn5HB2b22QKcVgECf04rB1C+vQBW53kDkwNHBwS6tQD1JckBbMpbBQV6FQD7V
TUD4OaTBDxo8QCzta0AyWZTBBn7xQArpSkAc8ZvBOB7SQCcq00D9zcrB9zO4QOaXAkFUOdbB2K2q
QLn9wECkndnBxJf1QEnP4r7tJbvBJmXSQLH6DcBQULDBBgjnQJUR+j/JXbfB5WB+QAjWXkAeDLnB
O8n4QN9ulECLk6vBq4+LQLYwoEC+YsjB/5UCQcTdxEDL7LrBtY2QQBrgTD+mFp7BjddrQFckkMBH
JJXB8NKMQFoiY8CsZ4rBS38xQBE4SMBmeY/B4JyZQJbBikAWq4bBERPCQDT+Q0CVPofBCLbPQPSy
mEBbDIrBf6WRQJrL4EAF/8zBA6VXQKpTRkDC86jBouQDQKUwYECi4ZfBRPQ9QPw/fUCKpozBuEac
QEum6r+9MqDBAC+MQDNgJ8B99JnBj73gQF9lIb76+7TBf0TMQGKjlr+oGa/BNijYQAY1mT/8u7LB
Hi+cQNoIgkDDRrnBCrHgQEFKl0B1oLHBaVKjQBFfnUDuBMLBscnnQPWKskC7XbrBVyamQFdoAz+9
yqTBFSmvQOQ0Vr9c66bB72i6QOFpfkAS4rDBsQW6QGe9xT9SuqrBQzbJQCJjtkBOj8LBdSzLQBCs
VEA+c53B62uDQNIDYUA7/ZnBXA2yQKViQEASlqfBp+VxQBoFYcCwHpLBJX+2QEsUgEB8vYrBfrmv
QCH64kC2Q9HBMqusQHX3YUAbl5XBdEeFQN06TEB8JaTB2mg7QKgRcUB3f5TBJeXxQAehTkBlCZzB
j7fSQK680kBCzMrBeDKhQKJZxEANFtjBd0GPQNcH8kCsCMvBMhf3QC4p1b6sPbvBp9vSQJC0DcB3
2rDBYpfoQGp7/D/MH7fBUbh+QIMEXkAg9rjBQZf4QCGnlECua6vBLuiLQJpfn0CzWsjBLYsCQX3J
xEAczrrBg7yPQKBpRD9ziZ7B7UpjQMBYj8Bn85XBHHWPQAlPa8BCeovB0n42QOF6RMBcBo/Be7SY
QNCpgkAMGYbBGi7MQJp9UkCrzobB6/rFQP2jn0C4L4vBRWa8QPm5/UDVBtbBa5xXQP5YRUBG6ajB
9DcDQLMTbUB2S5jBMDU9QItRgEDQvYzBa7qeQPxk7r+xbqDBxA6PQH0KK8AtWprBsPXhQDbwB75E
KbXB/w/OQDwclb+dTq/B0OHYQBSYmz940LLBJPffQCv8l0Dyd7HBZdmbQJXMgUCNMbnB88fmQOhg
s0AMM7rByKiiQIhTnUDa6MHBmaunQFAXAD+WyaTBTCWxQINPWL+7CKfBCxa6QIWKfkD3zLDBidi6
QHarxT9Yu6rB203IQKqvtkB4cMLB7EzLQDglVUAed53B3qiDQEkJZUBZJZrBxzSyQBMBQECyjafB
CZB4QHYdZ8D3u5LBT122QKt5e0DroIrBHLyuQLyD40CzFNHBhR2tQON7b0A5DJbBpnOFQDPaSkAX
GqTBIqk7QFMRc0C1nZTBTJDxQGlaSUC51pvBEtzRQF520kAtysrB4qOeQFFBxUA1ydfBUlePQGGX
80C0rMrBeD/4QBfawL4veLvBpfLUQMKoDMBMJ7HB9NzoQGYcAEA/MLfBvL73QPS9lUBeOavBwIx+
QG7KXEDs5bjBkuEBQZMjxkDQmLrBRy6LQMg2n0BrO8jBVHuRQKlePT84cp7B+71rQEYvksDKw5bB
rrCSQPmTccA3E4zBP0U8QM+lTMDbno/BNSyZQPlCiEBueYbBEmjBQF2dPkAqLIfBuHTPQCIilkDS
ronB67O7QLrS/UA08tXBFdlXQC3CP0DnuKjBqGcDQE8taUCKOZjB0lw9QLKJg0AfBY3B

> <OMEGA_E>
cF1kPlAsbj7ohno+qLOCPg==

> <OMEGA_NBR>
     48176

$$$$
50168843
  -OEChem-04172616093D

 51 53  0     1  0  0  0  0  0999 V2000
    5.0670   -1.7681  -20.1306 C   0  0  0  0  0  0  0  0  0  0  0  0
    4.7323   -2.5049  -19.2331 C   0  0  0  0  0  0  0  0  0  0  0  0
    4.8449    4.1105  -23.1190 C   0  0  0  0  0  0  0  0  0  0  0  0
    7.0112    4.7436  -22.1884 C   0  0  0  0  0  0  0  0  0  0  0  0
    6.7622    1.3265  -22.4125 C   0  0  0  0  0  0  0  0  0  0  0  0
    5.0823    4.9288  -24.2317 C   0  0  0  0  0  0  0  0  0  0  0  0
    7.2527    5.5511  -23.3075 C   0  0  0  0  0  0  0  0  0  0  0  0
    7.0485   -0.0087  -22.7534 C   0  0  0  0  0  0  0  0  0  0  0  0
    5.2329    0.5602  -20.6815 C   0  0  0  0  0  0  0  0  0  0  0  0
    5.5375   -0.7662  -21.0083 C   0  0  0  0  0  0  0  0  0  0  0  0
    5.7942    4.0313  -22.0743 C   0  0  0  0  0  0  0  0  0  0  0  0
    5.8279    1.6216  -21.3845 C   0  0  0  0  0  0  0  0  0  0  0  0
    6.2913    5.6660  -24.3264 C   0  0  0  0  0  0  0  0  0  0  0  0
    6.4394   -1.0618  -22.0482 C   0  0  0  0  0  0  0  0  0  0  0  0
    6.3396    3.3613  -19.6656 C   0  0  0  0  0  0  0  0  0  0  0  0
    4.1018    3.5672  -19.2282 C   0  0  0  0  0  0  0  0  0  0  0  0
    5.5509    3.0537  -20.9312 C   0  0  1  0  0  0  0  0  0  0  0  0
    5.6995    3.9667  -17.3081 C   0  0  0  0  0  0  0  0  0  0  0  0
    4.3951   -3.2491  -18.0421 C   0  0  0  0  0  0  0  0  0  0  0  0
    2.9094   -3.6073  -18.0356 C   0  0  0  0  0  0  0  0  0  0  0  0
    2.4651   -3.7695  -16.5810 C   0  0  0  0  0  0  0  0  0  0  0  0
    5.4936    6.8940  -26.2280 C   0  0  0  0  0  0  0  0  0  0  0  0
    5.3989    3.7641  -18.7314 N   0  0  0  0  0  0  0  0  0  0  0  0
    4.1526    3.2081  -20.4888 N   0  3  0  0  0  0  0  0  0  0  0  0
    2.9237    3.7222  -18.5126 N   0  0  0  0  0  0  0  0  0  0  0  0
    7.5337    3.1659  -19.4632 O   0  0  0  0  0  0  0  0  0  0  0  0
    6.5897    6.5128  -25.3767 O   0  0  0  0  0  0  0  0  0  0  0  0
    6.7694   -2.3434  -22.3341 F   0  0  0  0  0  0  0  0  0  0  0  0
    1.2026   -4.2497  -16.5382 F   0  0  0  0  0  0  0  0  0  0  0  0
    5.8197    8.0541  -26.8461 F   0  0  0  0  0  0  0  0  0  0  0  0
    5.2752    5.9312  -27.1629 F   0  0  0  0  0  0  0  0  0  0  0  0
    3.9317    3.5371  -23.0592 H   0  0  0  0  0  0  0  0  0  0  0  0
    7.7562    4.6646  -21.4106 H   0  0  0  0  0  0  0  0  0  0  0  0
    7.2561    2.1317  -22.9360 H   0  0  0  0  0  0  0  0  0  0  0  0
    4.3447    4.9986  -25.0175 H   0  0  0  0  0  0  0  0  0  0  0  0
    8.1854    6.0897  -23.3879 H   0  0  0  0  0  0  0  0  0  0  0  0
    7.7367   -0.2246  -23.5573 H   0  0  0  0  0  0  0  0  0  0  0  0
    4.5359    0.7695  -19.8835 H   0  0  0  0  0  0  0  0  0  0  0  0
    4.7873    4.2842  -16.7817 H   0  0  0  0  0  0  0  0  0  0  0  0
    6.0648    3.0248  -16.8729 H   0  0  0  0  0  0  0  0  0  0  0  0
    6.4720    4.7427  -17.2035 H   0  0  0  0  0  0  0  0  0  0  0  0
    4.9902   -4.1738  -18.0128 H   0  0  0  0  0  0  0  0  0  0  0  0
    4.6237   -2.6377  -17.1567 H   0  0  0  0  0  0  0  0  0  0  0  0
    2.3303   -2.8041  -18.5148 H   0  0  0  0  0  0  0  0  0  0  0  0
    2.7508   -4.5493  -18.5810 H   0  0  0  0  0  0  0  0  0  0  0  0
    3.1401   -4.4713  -16.0693 H   0  0  0  0  0  0  0  0  0  0  0  0
    2.5014   -2.7924  -16.0771 H   0  0  0  0  0  0  0  0  0  0  0  0
    4.5936    7.0328  -25.6109 H   0  0  0  0  0  0  0  0  0  0  0  0
    3.3527    3.0594  -21.0701 H   0  0  0  0  0  0  0  0  0  0  0  0
    2.0433    3.5573  -18.9571 H   0  0  0  0  0  0  0  0  0  0  0  0
    2.9549    3.9988  -17.5521 H   0  0  0  0  0  0  0  0  0  0  0  0
  1  2  3  0  0  0  0
  1 10  1  0  0  0  0
  2 19  1  0  0  0  0
  3  6  2  0  0  0  0
  3 11  1  0  0  0  0
  4  7  1  0  0  0  0
  4 11  2  0  0  0  0
  5  8  2  0  0  0  0
  5 12  1  0  0  0  0
  6 13  1  0  0  0  0
  7 13  2  0  0  0  0
  8 14  1  0  0  0  0
  9 10  1  0  0  0  0
  9 12  2  0  0  0  0
 10 14  2  0  0  0  0
 11 17  1  0  0  0  0
 12 17  1  0  0  0  0
 13 27  1  0  0  0  0
 14 28  1  0  0  0  0
 15 17  1  0  0  0  0
 15 23  1  0  0  0  0
 15 26  2  0  0  0  0
 16 23  1  0  0  0  0
 16 24  2  0  0  0  0
 16 25  1  0  0  0  0
 17 24  1  0  0  0  0
 18 23  1  0  0  0  0
 19 20  1  0  0  0  0
 20 21  1  0  0  0  0
 21 29  1  0  0  0  0
 22 27  1  0  0  0  0
 22 30  1  0  0  0  0
 22 31  1  0  0  0  0
  3 32  1  0  0  0  0
  4 33  1  0  0  0  0
  5 34  1  0  0  0  0
  6 35  1  0  0  0  0
  7 36  1  0  0  0  0
  8 37  1  0  0  0  0
  9 38  1  0  0  0  0
 18 39  1  0  0  0  0
 18 40  1  0  0  0  0
 18 41  1  0  0  0  0
 19 42  1  0  0  0  0
 19 43  1  0  0  0  0
 20 44  1  0  0  0  0
 20 45  1  0  0  0  0
 21 46  1  0  0  0  0
 21 47  1  0  0  0  0
 22 48  1  0  0  0  0
 24 49  1  0  0  0  0
 25 50  1  0  0  0  0
 25 51  1  0  0  0  0
M  CHG  1  24   1
M  END
> <OMEGA_C>
dSSiQHlS4r9eC6HBum6XQFxQIMB83ZnBmAmbQPKIg0Cj87jBe1vgQEHLl0DwgbHB0mPYQInLqT/R
TLPBHKKiQBC5nUB02sHBZxboQF2isUCudbrBlY3hQID4DrzzBrbBHnSnQAxsDz+rc6XBPDOxQCYn
RL8REajBEGq5QCQAgUAXmLDBGX66QI2Rzz9tE6vBZ1LJQKpPtUBgnMLBvw/OQGHph7+8YrDBHN7K
QLYfV0BAU53BIUKDQIZNZEBr05nBSqGxQIJwQ0AUc6fBh2K2QBTefUAKd4rB46SMQMjxT8BLVpDB
EjQ6QALeZsDfSJDB3MQdQDRAccD8pYTBi8uvQAec3EDj0tHB28OsQL7mcEDp2ZXBW+KEQKBRTUD3
6KPBkB47QLY4bkC7GZTBuRPxQMaeSkC2tJvBht7SQNRo0EByA8vBIp/YQOT5FcAurLLB0++ZPzX9
h8BMToTBOzu6QLndAEHHxNbBt86oQJzMvUChTdnBVKB7QFNfYkBJebjBCTP4QC1ElUDqSKvB9DHo
QFRuCEADfbfB+weLQDX0n0DYI8jBM/cCQRHfwkBwGrvB5JL3QAEKZr5OdbzB3iWRQF/7RD9wEZ/B
2TGZQEYYiUACQYbBiBLCQIqVQUDN+4bB8RrPQJvEl0DQoInBHrCfQJiPhcA/GpDBgfWTQInQKMD/
QInBViQVQC13M8A4HpTBhwwwQM2TkcDipZTB1/dIQAwVj8DkjYDBBxcgQFG3MsDtnYDB+v6SQI0M
4UAV48zB9ZJWQHnMQ0Cnj6jBL8UCQDarY0AjqJfB6Bw9QMXsf0CtaozBCr+pQIUK27/FNp7BHIOh
QE0RGsBzjpbBBB2cQHWOgUBncbnBw5nfQFR9mEB7cbHB+TnWQJbcoD/fabPBm5yjQCZonEDNOsLB
vRPnQDVGs0DsPLrB1t3gQOBrs73da7XBW/moQHLVDj8LkaTBOPe0QJzmRb+wR6bB5Za5QNb9f0Aq
4LDBfYy5QHguyz+ABKvBixHJQDQGtkD6lsLBEXnQQEDSjb/T067BIODKQBoUVUDJmJ3BxGWDQIkE
ZUBpD5rBEEuxQEwVQkBesKfBxtO2QCGeeEDhnIrBoSOYQBgMTMBHAI3Bjt1wQEtBisAaj4/BikcZ
QBLFccAzOZPB6gGvQEPY3UCvudHBqQ2tQIhlbkAUCZbBgrWEQIDzTUAiJqTBAb07QPBWcUAkV5TB
WPPwQIeSRkDyBpzBvCLSQIIO0kB/18rBH7XcQOnwGMBcfrDBuVrvP5lBPcC+oYvBMqqPQEjZ8UDn
CczBZhG+QJIy+UAhPdnBilJ/QO3qW0AROLnB+Oj2QNKJlkA9FavBmu/jQP2HAkC1R7jBoN2MQLKX
nUBRusjBOA8CQYjzxUBymrrBW6T1QIqXrL77B7zBnMWSQDIUTD9bOp7BTtiZQByShkD1U4bBVPXB
QGEzO0A3VYfBzALQQJWUlEAtn4nBDwe2QKHrZ8CL7InBdxeKQA/fIcCF5IbBs+aFQLs8nsA9+ZXB
N55nQMrPncCDVYjBZHshQMW1TcAmtprBYcPaP6nbk8AwlpTBwzmiQA/SwEAli9XB4v1VQKOURUBt
y6jBZhgDQJebaECf5pfBzEM+QFF6gUDpp4zBg4a1QKi67r/1A57BB1uvQEuHLsDRXZfBNpDkQFxP
g0DE37TBs5iZQC4emUALs7TBOjnGQDfIkz+MdLXBqD3sQKK4nkA6lr3BHKChQCVftUDbIr3B60TO
QP4gQL6QGrjBAoW1QNTy/T6jIqPB/GC8QFMCWr/a4aXBEdK6QLjCfkBIhrDBXs26QBdawj8l1KrB
m8LKQPmGt0CV5sHBgmfJQNPLmL94WbDBwAvLQJqWV0DLi53BhyuDQIYGZEBBDJrBqdyxQM9dPkDS
gqfBJZe2QMBVhUAlDIvBaoinQOMjccDaZI/BndF1QLFPjcDq6pDBGIQrQGLhWsBeDI/BOS6wQP+j
3UBQjdHBALesQHZic0CZMZbB7AiFQMyvQ0DrwKPBfn46QAsWdEAJlpTBqPbxQCppVUBXTJzBx9XT
QLDX0EA6wcrBoqfQQJkGH8B3FLPBwWEvQCt8OcCvAYXBNMiUQEhqvEAWbtPB6bmaQC4U/0APGM3B
u53+QGRDYkDSeLHBY55zQLzylkAmWrHBdbvIQPBg9T/DirvBrPgFQUzGoEAc/cDBGkSIQGm/yUCG
DcDBUTbYQCWn5L5sHcDBDiKsQONYQD8vE5vBNAuZQHc2j0CD84bBWXjEQF4dU0A354bBk6XNQDfu
n0AD9orBJj/AQPhwkcAXLJDBmTypQMiVVMCUXIfBLFFxQI2ymcC2IpnBClRvQL/rp8DgNovBFQsw
QOWnJsAd7JTBZWrcPxOEfMCSEJDB0rW9QKUg6EDIPdnBJS1XQOowMUCTBKjBHEQCQDjtZkDuCJjB
TS08QNllhkCaNY3B4Py2QEPP7L8Zt53Bw2mxQPwMLcBA95bBsEKZQH0xiEBMJ7jB2gjkQAz+jkBV
wrLBqbzIQLh2lT+PLrXBMfmgQGdro0D+4sDBYKLrQChEqkDRebvBYirQQN4OOL7z0rfBOlS1QGKC
AT/tBKPBFvW8QIBkV7+1q6XBn2e6QPdyfUDDybDBlEO7QCdnwz8ptKrBDhTKQMJHtUDFcsLBF03K
QInnl7/mGrDBzjLLQCpHWECWeJ3B/l+DQEu3ZUBfF5rBQi2yQLL8PkA1g6fB6p22QNEshkDvDovB
GUypQE97bsB0247BQX15QNo3jMDJXZDBvqUuQNTkWcCQJI7Bly63QByN90CD8crBDdqsQHVZdUC0
OJbBnUuFQEJrRkA52qPBxew6QOavdECBk5TBBszxQEDLUUAs4JvBc27SQFPX0UARoMrBXYnRQOi1
HsDZybLBFZ8qQBu+GsBGopXBccqRQCvR7kCBDdDBZcKuQJItA0EH48DBlsRzQMPLdED/C7fBtBb+
QKZThkAeg63BkkzNQByu9z9yJ7vBRXSHQHO5qkBoa8bBvK4FQbnWtkBO1bzBrWfaQN1L4r4Szr/B
4tmqQAcVQz+DC5vBTSeZQNmvkEARBofBScnDQEpHVEDH4IbBejfOQIVJoEBM74rBpRLCQMcgkMAW
do/BbbKqQMmwUMBF5IbB/Ud0QGyzl8DRqJjBgit0QM18p8B514rBH07kPyvlfcC2OY7BMOA3QO+s
PMBWOIbBf2HIQDxBCEHyas/BJJhXQO3YNUBHOKjBnLQCQJ6BZ0CkBpjBn508QC1RhkALKY3B

> <OMEGA_E>
QFa2PZCb6j0gZUQ+kNRSPg==

> <OMEGA_NBR>
     51912

$$$$
50168736
  -OEChem-04172616093D

 52 54  0     1  0  0  0  0  0999 V2000
    4.9689   -1.8633  -20.3232 C   0  0  0  0  0  0  0  0  0  0  0  0
    4.4463   -2.7812  -19.7284 C   0  0  0  0  0  0  0  0  0  0  0  0
    4.8057    4.1122  -23.1487 C   0  0  0  0  0  0  0  0  0  0  0  0
    6.8037    1.3603  -22.3719 C   0  0  0  0  0  0  0  0  0  0  0  0
    5.0707    4.9370  -24.2588 C   0  0  0  0  0  0  0  0  0  0  0  0
    7.1504    0.0410  -22.7030 C   0  0  0  0  0  0  0  0  0  0  0  0
    5.2278    0.5326  -20.7018 C   0  0  0  0  0  0  0  0  0  0  0  0
    6.9387    4.7595  -22.1624 C   0  0  0  0  0  0  0  0  0  0  0  0
    5.5821   -0.7863  -21.0288 C   0  0  0  0  0  0  0  0  0  0  0  0
    5.8180    1.6184  -21.3838 C   0  0  0  0  0  0  0  0  0  0  0  0
    5.7344    4.0313  -22.0823 C   0  0  0  0  0  0  0  0  0  0  0  0
    7.2134    5.5653  -23.2704 C   0  0  0  0  0  0  0  0  0  0  0  0
    6.2833    5.6720  -24.3213 C   0  0  0  0  0  0  0  0  0  0  0  0
    6.5414   -1.0351  -22.0351 C   0  0  0  0  0  0  0  0  0  0  0  0
    6.3183    3.3556  -19.6879 C   0  0  0  0  0  0  0  0  0  0  0  0
    4.0946    3.5827  -19.2205 C   0  0  0  0  0  0  0  0  0  0  0  0
    5.5067    3.0453  -20.9392 C   0  0  2  0  0  0  0  0  0  0  0  0
    8.5180    6.3329  -23.3207 C   0  0  0  0  0  0  0  0  0  0  0  0
    5.7299    4.0134  -17.3384 C   0  0  0  0  0  0  0  0  0  0  0  0
    3.1756   -2.8142  -16.9434 C   0  0  0  0  0  0  0  0  0  0  0  0
    3.8201   -3.8936  -19.0221 C   0  0  0  0  0  0  0  0  0  0  0  0
    5.5610    7.0570  -26.1410 C   0  0  0  0  0  0  0  0  0  0  0  0
    5.4005    3.7953  -18.7527 N   0  0  0  0  0  0  0  0  0  0  0  0
    4.1195    3.1935  -20.4740 N   0  3  0  0  0  0  0  0  0  0  0  0
    2.9335    3.7462  -18.4809 N   0  0  0  0  0  0  0  0  0  0  0  0
    7.5111    3.1398  -19.4956 O   0  0  0  0  0  0  0  0  0  0  0  0
    6.6321    6.4864  -25.3821 O   0  0  0  0  0  0  0  0  0  0  0  0
    4.0283   -3.7803  -17.5974 O   0  0  0  0  0  0  0  0  0  0  0  0
    6.8972   -2.3010  -22.3563 F   0  0  0  0  0  0  0  0  0  0  0  0
    5.9861    8.2545  -26.6152 F   0  0  0  0  0  0  0  0  0  0  0  0
    5.2581    6.2395  -27.1817 F   0  0  0  0  0  0  0  0  0  0  0  0
    3.8911    3.5392  -23.1102 H   0  0  0  0  0  0  0  0  0  0  0  0
    7.2901    2.1845  -22.8724 H   0  0  0  0  0  0  0  0  0  0  0  0
    4.3520    5.0103  -25.0617 H   0  0  0  0  0  0  0  0  0  0  0  0
    7.8857   -0.1471  -23.4714 H   0  0  0  0  0  0  0  0  0  0  0  0
    4.5003    0.7170  -19.9251 H   0  0  0  0  0  0  0  0  0  0  0  0
    7.6569    4.6939  -21.3585 H   0  0  0  0  0  0  0  0  0  0  0  0
    9.2877    5.7172  -23.8092 H   0  0  0  0  0  0  0  0  0  0  0  0
    8.3748    7.2620  -23.8918 H   0  0  0  0  0  0  0  0  0  0  0  0
    8.8391    6.5772  -22.2973 H   0  0  0  0  0  0  0  0  0  0  0  0
    4.8346    4.3615  -16.8023 H   0  0  0  0  0  0  0  0  0  0  0  0
    6.0797    3.0700  -16.8938 H   0  0  0  0  0  0  0  0  0  0  0  0
    6.5225    4.7720  -17.2594 H   0  0  0  0  0  0  0  0  0  0  0  0
    3.4012   -2.7945  -15.8670 H   0  0  0  0  0  0  0  0  0  0  0  0
    3.3537   -1.8176  -17.3735 H   0  0  0  0  0  0  0  0  0  0  0  0
    2.1224   -3.0948  -17.0921 H   0  0  0  0  0  0  0  0  0  0  0  0
    2.7399   -3.8901  -19.2299 H   0  0  0  0  0  0  0  0  0  0  0  0
    4.2586   -4.8381  -19.3765 H   0  0  0  0  0  0  0  0  0  0  0  0
    4.6844    7.1907  -25.4900 H   0  0  0  0  0  0  0  0  0  0  0  0
    3.3089    3.0219  -21.0340 H   0  0  0  0  0  0  0  0  0  0  0  0
    2.0439    3.5644  -18.9000 H   0  0  0  0  0  0  0  0  0  0  0  0
    2.9855    4.0461  -17.5283 H   0  0  0  0  0  0  0  0  0  0  0  0
  1  2  3  0  0  0  0
  1  9  1  0  0  0  0
  2 21  1  0  0  0  0
  3  5  2  0  0  0  0
  3 11  1  0  0  0  0
  4  6  2  0  0  0  0
  4 10  1  0  0  0  0
  5 13  1  0  0  0  0
  6 14  1  0  0  0  0
  7  9  1  0  0  0  0
  7 10  2  0  0  0  0
  8 11  2  0  0  0  0
  8 12  1  0  0  0  0
  9 14  2  0  0  0  0
 10 17  1  0  0  0  0
 11 17  1  0  0  0  0
 12 13  2  0  0  0  0
 12 18  1  0  0  0  0
 13 27  1  0  0  0  0
 14 29  1  0  0  0  0
 15 17  1  0  0  0  0
 15 23  1  0  0  0  0
 15 26  2  0  0  0  0
 16 23  1  0  0  0  0
 16 24  2  0  0  0  0
 16 25  1  0  0  0  0
 17 24  1  0  0  0  0
 19 23  1  0  0  0  0
 20 28  1  0  0  0  0
 21 28  1  0  0  0  0
 22 27  1  0  0  0  0
 22 30  1  0  0  0  0
 22 31  1  0  0  0  0
  3 32  1  0  0  0  0
  4 33  1  0  0  0  0
  5 34  1  0  0  0  0
  6 35  1  0  0  0  0
  7 36  1  0  0  0  0
  8 37  1  0  0  0  0
 18 38  1  0  0  0  0
 18 39  1  0  0  0  0
 18 40  1  0  0  0  0
 19 41  1  0  0  0  0
 19 42  1  0  0  0  0
 19 43  1  0  0  0  0
 20 44  1  0  0  0  0
 20 45  1  0  0  0  0
 20 46  1  0  0  0  0
 21 47  1  0  0  0  0
 21 48  1  0  0  0  0
 22 49  1  0  0  0  0
 24 50  1  0  0  0  0
 25 51  1  0  0  0  0
 25 52  1  0  0  0  0
M  CHG  1  24   1
M  END
> <OMEGA_C>
TQGfQOJ/7r/mlaLBVUiOQHD/McCt053BZciZQBeXg0CDMLnBl7fZQGkfrj+r+bLB1EKiQBX8nUAc
EsLBUtDkQCQDKD3Jn7XB40mnQIVVCD9dnaXBhwneQOVNmECKTLHB0aCyQMVMSb/qOqjBXC26QHgm
zz/3EavBI4C3QJgAgUCeqLDBYNTmQOQWskDeKbrBbxDJQMCAtUARksLBClPRQLp/hL/8R7DBfi/K
QCTCVkDUgJ3BLweDQDhKZUCZw5nBKzewQCvmQkB1g6fBrEkIQbumykC1kLrB/1q3QMBtgEAItYrB
pjxLQLEbNMAXjIfBtXx0QBwwecBPLZjBU/OxQFDT4UC3INHB19CsQNHlckBxBZbBB9ODQEpiTEDF
yqPB8707QHDCb0DU2JPBDVvwQFjySED59pvB1TnUQDWQz0CcDsvBmOeAQMzwccCIx4zBjbXcQI5D
E8DH2bLBB46/QI4SBEH269TBbkKoQMmpx0AKdNnBNgd5QPeBYkDA4bjBeEjpQEfPC0Cq+rbB80OL
QEFUoEBsfsjBSFf8QCapFr56xbvBygKQQB6KNz+1Zp/BHwX1QK40lkAi3qrBN5oUQaTztkAseb7B
Sv8FQWNi6EBaIr/B82wNQa140kD3YLLBAbWaQBGRi0Ava4bBl4zCQCJ7REB+JofB87fQQKG0mEBL
E4rBYK1ZQI/ZMsAe333BYqNWQMql6L/z/IrBpdUHQEARRsCYvIjB8lovQOT2eMDq1pnBpkaIQKbR
msAIA5vBU+aVQJka5kCY68vB0MVTQA1nQUCORajBfM8CQHIfZEAdM5fBQRI/QFN5gUDzOYzB4fyc
QFH97L+y6KLBlTSMQFKoMcAePZ7BjZ3fQCnlmkAjKLHBWTHZQCqYrz/bE7PBLofmQOlqtEAoRbrB
QB/iQDB4Rz0XIbbB7L2nQMyODT+TcqXBZn+bQEDlg0BbjrjBB+mwQBxORb9YeqjB/Ti7QDvV0T9d
1arBtp25QLORgkC2NrDBfUqiQBOgnEBbxcHBgDbIQNIMtkAtpcLBQALOQB4Sg7+937DBs/fKQKRW
WEDeD53BsyyDQD+PY0AUpZnBnCayQJ/FRECJK6fBpD6BQHUjmEBQmcrBt8+1QNqFfUCxOYrBKO5L
QD/cPMD9Y4fBUJhvQNL8eMD3tJjBoGWyQHRX5kAM5dDBjoesQAowcUDanpXBRUKFQKD+TEAUuKPB
TF86QAnda0DBAJTBBkbxQJLLTECyfJvB3qbTQHUtzkAZkcvBOFctQLb5WcDyqJHBGVTXQGi9EsBy
2bPBMBLBQEsTB0ESH9PBsh6oQGMw00DcUdrBkVX3QE3gmUDE4KrBK0HpQDcsDEAGCbfB0cEBQT4V
x0BR37rBFH/4QP5/FL58h7zBXbGRQG3xPT/v957BMNV8QIrdYkCj27fBxjtQQIRqsEAWiMnB7seQ
QG61nECIadLBcMZlQP8OcEDTQMrBIHKYQHORiEDBCYbBPKPBQG4vQUDIyYbBmVPOQJS/l0DNTInB
A5MVQD5xJsAKjYLBMhRsQDn0ccDjPIPBenp5QNT+B8AsjojBhzZTQFtKksDxop7BZfKPQAPOjcAc
/ZPBSCyWQBEM6EBHp8vBIsRXQEjBQkD9a6jBDX8CQFhdYEAdoZfBZnc7QH5ZfUD9TozBsS6eQES/
778brqLB3dmMQFuzMcDr4J3Bf0maQCqSgkAQTbnBOIXaQEQ2rD95y7LBmLmiQKP3nEAAMsLBInfl
QBCWzDy2dbXB3x2nQCbuBD+7qqXB8c/dQFJ2mECOQ7HBIFWyQHT+TL8PR6jB3H+6QFdizT9+BavB
/KC3QI6SgEA/r7DB/XjmQLBwskDOHLrB2/bIQGOKtUAImcLBrWbRQH6Phr+NPbDBukPKQI9lVkBD
gZ3BQBiDQMrLZUBH2JnBpmawQPcRQkBPg6fBXRcIQUAUy0DIfLrBflG3QOpwgUDPzorB/25KQPlX
MsDmWIfBxgJwQJJkd8DiHZjBWuOyQItO4kB4pdHBO92sQIGZc0A+GZbBS/eDQAhFS0D9zqPBxMk7
QNjKcUDu/ZPBDHLwQMHoSEBY8JvB30zUQEVX0EBbB8vBwId/QHh8cMB5wYzBJZ/cQCNUFMBv1rLB
T5GlQJbuxEAF6tjBcW2RQCMC8UA/tMvBDJp6QI2NX0BdDrnBtZPqQK/NCkC+r7bBGxqMQNWGnkAd
t8jBPVL9QP4sKL52hrvBYYiPQO6HND9rh5/Bpaj0QFivlkDby6rBgHMUQbFmt0DPXb7BHM4FQYfG
6EBfEr/BMCoNQe/30kCKS7LBV6maQNXqjEA+lIbBmGXCQCvjRkAyIYfB873QQGGvmUAOQYrBdX1a
QBtfMcBkj33Bpq5VQIgo5b88zYrBorAGQG7CQ8A0WIjBOKsqQO6wdMBAmZnBR7OEQAtrmsDlApvB
puPAQBmI/UBV/dXBYiNUQCgLP0ClQKjBKN4CQNoPZkCrV5fBMQo/QI4Wg0Bfa4zBT9CbQAW567+o
T6PBsf2LQN7jMcA6m57B45TfQCKNm0CtCLHBL/DZQFqesT8w57LBF7TmQPkYtUCMIrrBb/riQOIn
iD2S+rXB/2ymQGfcED9GxKXBjumbQHsFhECxn7jBMc6vQB+cQb+KzKjBDuW6QKiV0z8i6KrBqrW5
QMPvgkApNLDBAh6jQL2bnECL1MHBbbvIQMZLtkA6l8LBdPzNQO7jgL+d9bDBs9HKQJUzWEDDD53B
PAmDQJV+Y0DVpZnBkv6xQJ+JRUCFMKfBrcyCQKpBmECaysrBG6a1QAaSe0DILYrBoZVIQE2tOsAE
DYjBTC10QBXaesBp3pjBnBu2QFQt7EB7H9DB52SsQMudcEB8mJXB/R2FQNmjTkD/xqPBWhE6QC6Z
akC0/JPBQgTxQC9sS0DQd5vBJGXUQAFnzUDKqMvBO/GBQJZocsBTiI3BWafXQI6YEcAx5LPBTHeh
QLQB20AVr9jBS0KZQB/w+kAv1MjBnwL3QIC7mkCBr6rBHb7qQMA6DUBEp7bBx8EBQZ4RyEB9qbrB
Pxv6QEkRAL6cNrzBmHqPQOi6QD9Ne5/BCq19QF0GY0Cc/LfBLS5TQA6DsEAN0cnBeueSQJ7ynEAq
h9LBy9toQCFHcECrisrBlVKYQB+Mh0DJ94XBREPBQGW1PkCi14bBUVHOQKuPlkC1KInBHRtZQDvs
N8DPAX/B6k5MQDYW9L/5gYvBOygHQKebU8Df94jBxcMuQKWyfcBGS5rBiB+JQCgHm8C+ypvBTgvJ
QMXLA0EL9tLBZ4NXQDMURkCPiajBiDsCQFGHX0DhpJfBTRk7QGDKekCcP4zB76eeQO5M878bW6LB
sauPQLsjNsAOkJ3BbCbfQHeZmkC0/bDBYUrYQNWEqD/gN7PBRd3lQAHEtEAG/bnB0y3hQDGxFbx9
MLbBFdqnQBGnAj/jTKXB35icQFVhgUBk1rjBWEixQIc9Ub+SMajB8eS6QAzCyz/Z3KrBMOm5QC0I
gUDGS7DBnm+jQGOPmkAP+sHBsCnIQKvFtUB8f8LBYc3NQKHVib+etLDBKQPLQAmpVEDND53BFBWD
QFpqYkC50JnBjD2yQEQAQkD0O6fBmmeDQNyKlUAkBMvBfm61QH63e0BwPYrBDl1UQBI4QsAd34bB
enp8QFAugMAi85fBh5awQJY05kDTrdDBUSKsQCJQYkBDS5XBKlGFQBAzS0BC3aPBuys6QPJYdEAd
jJTBWaHxQOK7TECZnpvBHsvSQPT0z0CEHsvBXJiGQLrresDvmozBA1TXQPVIFsAukrPBihWWQNOx
+kCXuMnBsDrCQB/NAUEaUNfBs3D2QCgHmkD3m6rBXPHnQL5nCEC7UrfB6B0BQXxvyECnZbrBbvX2
QAfqVb5ktLzBzPaRQAjAND/DzJ7BMCyAQDqjW0DKWbjBurVSQKTdrEBnAMrB6H+TQNwsm0DzttLB
yklsQDHhaUAD48rBB0mXQL8XgUD4xIXB64zJQK+sSkCMbIbB/3HGQG2snEAhPIrBG4hlQMTsQcCy
rHzBX0ZaQNULAcC2HYrBJP4RQAp/WMAFzIfB6uo2QJ6HgcAGQ5nBJSuNQNlnncDlIZvB2UqeQEKq
zkBvW9XBLQhYQLQbQUDemKjBHnUCQNXWb0CfcZjB1hE7QCHlgkDa2YzB

> <OMEGA_E>
gH8zPpCKNj5AQEc+MD9OPqC4VT4=

> <OMEGA_NBR>
     56573

$$$$
50168743
  -OEChem-04172616093D

 48 50  0     1  0  0  0  0  0999 V2000
    4.8234   -1.8204  -20.2329 C   0  0  0  0  0  0  0  0  0  0  0  0
    4.2624   -2.6869  -19.5959 C   0  0  0  0  0  0  0  0  0  0  0  0
    7.0410   -0.0461  -22.6760 C   0  0  0  0  0  0  0  0  0  0  0  0
    6.3898   -1.0851  -21.9852 C   0  0  0  0  0  0  0  0  0  0  0  0
    6.7713    1.2961  -22.3505 C   0  0  0  0  0  0  0  0  0  0  0  0
    4.8598    4.1276  -23.1294 C   0  0  0  0  0  0  0  0  0  0  0  0
    7.0264    4.7580  -22.1994 C   0  0  0  0  0  0  0  0  0  0  0  0
    5.0974    4.9490  -24.2423 C   0  0  0  0  0  0  0  0  0  0  0  0
    7.2679    5.5679  -23.3192 C   0  0  0  0  0  0  0  0  0  0  0  0
    5.1911    0.5606  -20.6424 C   0  0  0  0  0  0  0  0  0  0  0  0
    5.4702   -0.7789  -20.9629 C   0  0  0  0  0  0  0  0  0  0  0  0
    5.8126    4.0366  -22.0871 C   0  0  0  0  0  0  0  0  0  0  0  0
    5.8210    1.6135  -21.3460 C   0  0  0  0  0  0  0  0  0  0  0  0
    6.3082    5.6786  -24.3405 C   0  0  0  0  0  0  0  0  0  0  0  0
    6.3463    3.3794  -19.6671 C   0  0  0  0  0  0  0  0  0  0  0  0
    4.1063    3.5358  -19.2223 C   0  0  0  0  0  0  0  0  0  0  0  0
    5.5586    3.0650  -20.9304 C   0  0  1  0  0  0  0  0  0  0  0  0
    3.4397   -3.2750  -17.3523 C   0  0  0  0  0  0  0  0  0  0  0  0
    5.6984    3.8896  -17.2904 C   0  0  0  0  0  0  0  0  0  0  0  0
    3.5815   -3.7176  -18.8183 C   0  0  0  0  0  0  0  0  0  0  0  0
    5.4821    7.0998  -26.0782 C   0  0  0  0  0  0  0  0  0  0  0  0
    5.4003    3.7360  -18.7197 N   0  0  0  0  0  0  0  0  0  0  0  0
    4.1609    3.2425  -20.4989 N   0  3  0  0  0  0  0  0  0  0  0  0
    2.9266    3.6276  -18.4988 N   0  0  0  0  0  0  0  0  0  0  0  0
    7.5456    3.2087  -19.4731 O   0  0  0  0  0  0  0  0  0  0  0  0
    6.6075    6.4994  -25.4094 O   0  0  0  0  0  0  0  0  0  0  0  0
    5.8667    8.3083  -26.5552 F   0  0  0  0  0  0  0  0  0  0  0  0
    5.0795    6.3142  -27.1116 F   0  0  0  0  0  0  0  0  0  0  0  0
    7.7491   -0.2794  -23.4574 H   0  0  0  0  0  0  0  0  0  0  0  0
    6.5947   -2.1148  -22.2382 H   0  0  0  0  0  0  0  0  0  0  0  0
    7.2906    2.0890  -22.8683 H   0  0  0  0  0  0  0  0  0  0  0  0
    3.9427    3.5605  -23.0680 H   0  0  0  0  0  0  0  0  0  0  0  0
    7.7696    4.6841  -21.4193 H   0  0  0  0  0  0  0  0  0  0  0  0
    4.3567    5.0251  -25.0247 H   0  0  0  0  0  0  0  0  0  0  0  0
    8.1983    6.1106  -23.3972 H   0  0  0  0  0  0  0  0  0  0  0  0
    4.4904    0.7878  -19.8527 H   0  0  0  0  0  0  0  0  0  0  0  0
    2.9254   -4.0609  -16.7796 H   0  0  0  0  0  0  0  0  0  0  0  0
    4.4378   -3.1025  -16.9233 H   0  0  0  0  0  0  0  0  0  0  0  0
    2.8545   -2.3448  -17.3052 H   0  0  0  0  0  0  0  0  0  0  0  0
    4.7824    4.1765  -16.7530 H   0  0  0  0  0  0  0  0  0  0  0  0
    6.0750    2.9368  -16.8900 H   0  0  0  0  0  0  0  0  0  0  0  0
    6.4614    4.6706  -17.1569 H   0  0  0  0  0  0  0  0  0  0  0  0
    2.5818   -3.8914  -19.2430 H   0  0  0  0  0  0  0  0  0  0  0  0
    4.1650   -4.6491  -18.8611 H   0  0  0  0  0  0  0  0  0  0  0  0
    4.6620    7.2218  -25.3553 H   0  0  0  0  0  0  0  0  0  0  0  0
    3.3645    3.1517  -21.0968 H   0  0  0  0  0  0  0  0  0  0  0  0
    2.0492    3.4656  -18.9504 H   0  0  0  0  0  0  0  0  0  0  0  0
    2.9534    3.8557  -17.5255 H   0  0  0  0  0  0  0  0  0  0  0  0
  1  2  3  0  0  0  0
  1 11  1  0  0  0  0
  2 20  1  0  0  0  0
  3  4  2  0  0  0  0
  3  5  1  0  0  0  0
  4 11  1  0  0  0  0
  5 13  2  0  0  0  0
  6  8  2  0  0  0  0
  6 12  1  0  0  0  0
  7  9  1  0  0  0  0
  7 12  2  0  0  0  0
  8 14  1  0  0  0  0
  9 14  2  0  0  0  0
 10 11  2  0  0  0  0
 10 13  1  0  0  0  0
 12 17  1  0  0  0  0
 13 17  1  0  0  0  0
 14 26  1  0  0  0  0
 15 17  1  0  0  0  0
 15 22  1  0  0  0  0
 15 25  2  0  0  0  0
 16 22  1  0  0  0  0
 16 23  2  0  0  0  0
 16 24  1  0  0  0  0
 17 23  1  0  0  0  0
 18 20  1  0  0  0  0
 19 22  1  0  0  0  0
 21 26  1  0  0  0  0
 21 27  1  0  0  0  0
 21 28  1  0  0  0  0
  3 29  1  0  0  0  0
  4 30  1  0  0  0  0
  5 31  1  0  0  0  0
  6 32  1  0  0  0  0
  7 33  1  0  0  0  0
  8 34  1  0  0  0  0
  9 35  1  0  0  0  0
 10 36  1  0  0  0  0
 18 37  1  0  0  0  0
 18 38  1  0  0  0  0
 18 39  1  0  0  0  0
 19 40  1  0  0  0  0
 19 41  1  0  0  0  0
 19 42  1  0  0  0  0
 20 43  1  0  0  0  0
 20 44  1  0  0  0  0
 21 45  1  0  0  0  0
 23 46  1  0  0  0  0
 24 47  1  0  0  0  0
 24 48  1  0  0  0  0
M  CHG  1  23   1
M  END
> <OMEGA_C>
+ViaQHcB6b/h3KHBomWIQO71K8BjxJzBxE/hQNPXPL1jaLXBe3nMQG/jir+k4a/Bja7YQP7mpT/t
zbLBoYObQE8VhEARCbnBX9jgQC1BmEBmmLHB8R2jQCZenkBH8MHBVJLoQCEsskChjbrB5B2mQPeD
Dz+pI6XBhQuvQNdlR7/6s6fBNwG6QDEsgUBrsrDBO0W6QK2Izj+yxKrBYdzJQEG3tUBLucLBKBXL
QEhHWEAkVp3B92aDQDNLYkA9x5nBOOCxQKkoRECNcafBTCNcQF2aUcCA0YrB61i2QIvveECoUorB
CTdlQKztbcDJi5bBNG2vQFMx40AuoNDB+s6sQGgbb0AGwpXBESaFQL2ET0Cs/aPBX007QBIqaEB+
/ZPBmnXxQIBbTUDhyJvBxXDTQPb6z0BrRsvBALy7QLTuBEEJcdTBbIuiQEMOykCP5NjBSfj3QC4O
j764qLvBAgjTQB5ZB8Dj57HBwEzpQAuyBUBD8rbBbFV8QAfgY0BNi7jBmqD4QBbklUCvWqvBemqL
QDbNoEB+MsjBWywDQRKKw0BxLbvB+rCPQL6tST9N0p7BhTk7QMzygcCfPIbBEQKOQKCPRsDtYofB
h7A2QMIQFsAlcYrBfQmZQOClhUAqBobBGGbCQCz0O0DMHofBDcTOQG51lUBcQYnBFzwlQCIMecC5
8ZnB2UeFQIDFlMCB45bBBS+VQAkZ50C418rBy1NXQDG2SUA0xqjBNiYDQHbMXUBlmpfBfAQ9QEPD
dkA9NIzBpn6bQFWy6r+CpKHB6+WJQJgQLcD6g5zBiAriQBgWab1sQLXBoH/NQANQjL8+qq/BGOHY
QJB2pD92wrLBvmDgQH9RmEB9ibHB4rmbQKccg0CfL7nB6w/oQAaJskDvb7rBZ0ijQBmsnUCZCcLB
9zOmQOhvDD/XHqXBSsWvQCZpSr+VjafB79i5QI+qgEBNw7DBbiq6QFP0zD/syqrB86LJQJDLtUAn
rsLBl+3KQFSdV0AvbZ3BnFWDQIF8Y0CM4JnBnaKxQHFaQ0C1gafBi8tkQLtaVcBRbYrBemu2QLp+
ekDQd4rBCwFpQMplb8C/RpbBRyivQITz4EAME9HBEdCsQEf/b0C045XB5vCEQJP5TkCuCqTBLGM7
QPkQa0CLE5TBYSzxQKwtS0D42JvBtRzTQKPG0EC2G8vBvEu6QLyVA0HSXdXBXcKkQLxOxUDlDtnB
U+H4QIhHlL6QdrvBzoHUQK4PCMCIl7HBy1HpQDsIBUBa77bByfT3QMYnlkBKPqvB72l9QLbPYEBj
zbjB78sCQWBdxEB89rrBONyLQG2/n0CKXsjBf3KPQIl+Rj8+4J7BomxEQBHvg8Cm0oXBuQmTQKNq
TMDyU4fBT+JAQBAfGcCvponBUECZQPANh0ATMobBvwDCQN5sPUBCL4fBcDfPQP/nlUDvdonBpaMn
QCFpeMAgWJnBZGqGQFralcBjBZfBOduTQLb65ECUnMvBhsdWQMsqSEA6yKjBFAoDQAKmYECco5fB
NXQ9QBvzekC4VIzBauucQLJd7b+Ba6HBTIGLQN3RLcCWKJzB7yPiQGAvob3+V7XBri7OQM4+j7/M
oa/Br8XYQKq1oT8H5LLBMHabQGTegkCBIrnBrz/gQH/El0Bkj7HBuNqiQHunnUBk9sHBEabnQP9n
skBhZ7rB3z6nQOBBBj+mAKXBx9ewQDhtUL92bqfBury5QAEfgEDqwbDBk5O6QOjxyT9ozKrBmhXJ
QKkXtkD3nMLBPPbKQK2RVkBYcZ3BV2GDQM3MZEDbAJrBvMKxQNi+QUCXhafB6ixjQAITUMAvF4rB
v3G2QAAJfkDen4rBDZZsQCMRb8D7tJXBSyWwQGq94UC/j9HBkuKsQHoXcUA3A5bB6waFQDA2TEAa
B6TBU1U7QN9CcEB8VZTBCyvxQKcWSkAs0JvBy+zSQAiw0UBD/MrBamKhQPm/wkDTP9jB/bmPQDSX
8UCicMvBB7H4QHUan75Gn7vBOFjVQAeDCcAoiLHByqboQCK0A0DUMLfB/tJ8QBltYECovbjBYhD4
QERJlUBtVKvBYWCLQEeun0BOSMjBiZMCQaVJxEAD6rrBl+2QQOMrQD+eqJ7BxyNDQE3igMBLUIXB
bnORQLYqQ8B5t4bBC8M8QIgXFcAr7onBAVGZQFSFiUBkcIbB7sXBQGiQQUC0HofBr2rPQHiYl0BY
yInBu8YsQHsIfMByDZnBRnWJQNUNlcDA1pXBHSO9QN/9+0AmcdbBn+VWQPr5QUBYqajBk/oCQEOj
ZUC14pfBnEw9QBWTgUC3sYzBpHadQDti77+0oaHBbVSMQF6wL8BedJzBFlnjQDjDkL1PQrXBPR3P
QBH4jr9hr6/B5bDZQChAoj/cxLLBdB/gQHDWl0B6eLHB6tSbQOTygUC3KbnBhGHnQFGNskBwTrrB
ehGjQJXMnEBz+cHBECOnQBiAAz+BKaXBcTixQKZaUr/KlafB7dy5QMCFf0DLubDBJMm6QEVGyT8P
0qrBuunIQFbatUCfjMLB4/3KQDd3VUDXZp3BEFaDQN/NZEBiBprBQNixQD8rQUBrf6fBvBlnQLv2
VsCyaYrB+S+2QC3CeUClforBUOhuQO9+csBNLpbBAFevQDtx4UCIa9HBMdKsQFWVbkA/65XB5BSF
QEvgS0CmCKTB2CA7QMOOckAtdZTB5z7xQIJaSUDqzJvBwl7SQBnO0UBe3srBMzyhQPtlwkC7LdjB
w5KOQH5u8ECbRsvBFVP6QF49l74odbvB+3vWQEA7CcCunLHBHuTpQEJOBEA27rbBq9T3QCahlUBX
NavB0y5+QDCbXUAG07jB+1YCQRrIxED3yLrBzsWLQNhrnkD6V8jBUjmQQKKNOz+K757BrIpHQPf7
hMAmzoXBvqWTQHQ4S8CqHIfBf+NAQJ/6G8CC5onBVPaYQJ/yhkDySIbBMZHBQDPQPEC1IYfBOxDP
QMB3lUCigYnBwJouQHBUfsCFcZnBXoGKQCPJlsCsp5bB6tm7QCEd/EB9PNbBSRZXQKuMQUCmrajB
acoCQI1zaUAnFJjB9f88QD7KgkCm0ozB

> <OMEGA_E>
QNg/PnBSQD4QMlo+8DFePg==

> <OMEGA_NBR>
     60153

$$$$
50168750
  -OEChem-04172616093D

 42 44  0     1  0  0  0  0  0999 V2000
    4.3183   -2.7608  -19.3764 C   0  0  0  0  0  0  0  0  0  0  0  0
    4.8492   -1.8867  -20.0317 C   0  0  0  0  0  0  0  0  0  0  0  0
    7.0516   -0.1774  -22.5460 C   0  0  0  0  0  0  0  0  0  0  0  0
    6.4144   -1.1913  -21.8049 C   0  0  0  0  0  0  0  0  0  0  0  0
    6.7577    1.1755  -22.2966 C   0  0  0  0  0  0  0  0  0  0  0  0
    4.8846    4.0536  -23.1952 C   0  0  0  0  0  0  0  0  0  0  0  0
    7.0138    4.7268  -22.2174 C   0  0  0  0  0  0  0  0  0  0  0  0
    5.1063    4.9280  -24.2754 C   0  0  0  0  0  0  0  0  0  0  0  0
    7.2385    5.5901  -23.3002 C   0  0  0  0  0  0  0  0  0  0  0  0
    5.1817    0.5016  -20.5553 C   0  0  0  0  0  0  0  0  0  0  0  0
    5.4800   -0.8546  -20.8044 C   0  0  0  0  0  0  0  0  0  0  0  0
    5.8222    3.9623  -22.1390 C   0  0  0  0  0  0  0  0  0  0  0  0
    5.8026    1.5308  -21.3131 C   0  0  0  0  0  0  0  0  0  0  0  0
    6.2868    5.7147  -24.3265 C   0  0  0  0  0  0  0  0  0  0  0  0
    6.3463    3.3573  -19.7139 C   0  0  0  0  0  0  0  0  0  0  0  0
    4.1158    3.5739  -19.2711 C   0  0  0  0  0  0  0  0  0  0  0  0
    5.5518    3.0051  -20.9622 C   0  0  1  0  0  0  0  0  0  0  0  0
    5.7264    4.0339  -17.3770 C   0  0  0  0  0  0  0  0  0  0  0  0
    5.4523    7.0771  -26.1239 C   0  0  0  0  0  0  0  0  0  0  0  0
    5.4145    3.8008  -18.7925 N   0  0  0  0  0  0  0  0  0  0  0  0
    4.1581    3.2076  -20.5303 N   0  3  0  0  0  0  0  0  0  0  0  0
    2.9456    3.7081  -18.5390 N   0  0  0  0  0  0  0  0  0  0  0  0
    7.5426    3.1730  -19.5134 O   0  0  0  0  0  0  0  0  0  0  0  0
    6.5700    6.6117  -25.3424 O   0  0  0  0  0  0  0  0  0  0  0  0
    5.7746    8.2820  -26.6557 F   0  0  0  0  0  0  0  0  0  0  0  0
    5.1892    6.2027  -27.1306 F   0  0  0  0  0  0  0  0  0  0  0  0
    3.8549   -3.5236  -18.8045 H   0  0  0  0  0  0  0  0  0  0  0  0
    7.7691   -0.4397  -23.3094 H   0  0  0  0  0  0  0  0  0  0  0  0
    6.6419   -2.2282  -22.0032 H   0  0  0  0  0  0  0  0  0  0  0  0
    7.2631    1.9473  -22.8580 H   0  0  0  0  0  0  0  0  0  0  0  0
    3.9913    3.4471  -23.1721 H   0  0  0  0  0  0  0  0  0  0  0  0
    7.7552    4.6438  -21.4364 H   0  0  0  0  0  0  0  0  0  0  0  0
    4.3761    5.0008  -25.0678 H   0  0  0  0  0  0  0  0  0  0  0  0
    8.1519    6.1646  -23.3455 H   0  0  0  0  0  0  0  0  0  0  0  0
    4.4746    0.7601  -19.7810 H   0  0  0  0  0  0  0  0  0  0  0  0
    4.8232    4.3818  -16.8544 H   0  0  0  0  0  0  0  0  0  0  0  0
    6.0764    3.0967  -16.9196 H   0  0  0  0  0  0  0  0  0  0  0  0
    6.5138    4.7977  -17.2961 H   0  0  0  0  0  0  0  0  0  0  0  0
    4.5744    7.1745  -25.4683 H   0  0  0  0  0  0  0  0  0  0  0  0
    3.3564    3.0832  -21.1150 H   0  0  0  0  0  0  0  0  0  0  0  0
    2.0625    3.5213  -18.9693 H   0  0  0  0  0  0  0  0  0  0  0  0
    2.9850    3.9918  -17.5809 H   0  0  0  0  0  0  0  0  0  0  0  0
  1  2  3  0  0  0  0
  2 11  1  0  0  0  0
  3  4  1  0  0  0  0
  3  5  2  0  0  0  0
  4 11  2  0  0  0  0
  5 13  1  0  0  0  0
  6  8  2  0  0  0  0
  6 12  1  0  0  0  0
  7  9  1  0  0  0  0
  7 12  2  0  0  0  0
  8 14  1  0  0  0  0
  9 14  2  0  0  0  0
 10 11  1  0  0  0  0
 10 13  2  0  0  0  0
 12 17  1  0  0  0  0
 13 17  1  0  0  0  0
 14 24  1  0  0  0  0
 15 17  1  0  0  0  0
 15 20  1  0  0  0  0
 15 23  2  0  0  0  0
 16 20  1  0  0  0  0
 16 21  2  0  0  0  0
 16 22  1  0  0  0  0
 17 21  1  0  0  0  0
 18 20  1  0  0  0  0
 19 24  1  0  0  0  0
 19 25  1  0  0  0  0
 19 26  1  0  0  0  0
  1 27  1  0  0  0  0
  3 28  1  0  0  0  0
  4 29  1  0  0  0  0
  5 30  1  0  0  0  0
  6 31  1  0  0  0  0
  7 32  1  0  0  0  0
  8 33  1  0  0  0  0
  9 34  1  0  0  0  0
 10 35  1  0  0  0  0
 18 36  1  0  0  0  0
 18 37  1  0  0  0  0
 18 38  1  0  0  0  0
 19 39  1  0  0  0  0
 21 40  1  0  0  0  0
 22 41  1  0  0  0  0
 22 42  1  0  0  0  0
M  CHG  1  21   1
M  END
> <OMEGA_C>
QC+KQBKxMMDZApvBCi2bQOB/8b/eQKDBsKbhQMCpNb5DXrTB6kLNQOB7mL9dcK7B4j7YQBJ3lj9W
X7LBWk6cQD23gUDbj7nBPHHgQCJCl0A5vbHBfGajQHqynUD9M8LBrqHnQE3iskDkZrrByNClQPRn
AD84caTBUlyvQKPIWr9ab6bB2k+6QLaVfUCrHLHBDK+5QDLwwz9RgarB2C3JQH3etkCcnMLBShXL
QHTdVkD6tZ3BCrWDQEW6ZEAvK5rBHqixQM9TQECcsqfB4j63QI4VgUASBIvBiHmuQLB34kC3/dDB
qEOtQF1Ac0AUV5bB7w6FQJhITUAXPqTB5oQ8QBRSbUDhT5TBCF3xQKMRS0BrG5zBrD3SQK6S00Ao
vcrBUMm4QECDBEHjPtXBQg6mQHp8xkCHC9nBjrZ2QNWCYcCyb5bBx5z4QAQi4b6kebrBvIrUQH+b
DsCeBrDBOGvoQItC+T8x3bbBA3F/QOOcXEBsYLnBjSr4QGCalEDWfavBsQiMQPUGoEDWisjBIm4C
QZ5ExUCBw7rBsi+PQDSVQj+DP57BcleaQMw3jEDY1YbBz3HCQPQvRkBqW4fBPXHQQAKHmUByXorB
vWGSQIeV5UARv8vBz85WQGFTRUB066jBMP8DQDddYUAOwZfB5gk/QBl5f0CkpYzBzCCNQEvHNMB5
ZZvB6pedQNcd+L/JnKDB8lPjQJFNMr4klbTBNTXPQEAqmr9qx67BCnrZQAcHlj8AcLLBPQfgQEIQ
l0ApibHBCDycQH24gEDYaLnBJNjmQHX7skCHKLrBGvaiQGT0nEC0AsLBzS6nQPbp6j5umqTB7Tax
QMEBZL9KvKbBET26QA4kfEDv9LDB2bC6QEB8wD9jjqrBpFvIQBq0tkDdXsLBMjLLQIKTVEAcmZ3B
XbuDQHR6ZkD1UJrBIwCyQM8PPkD6nafBws+2QOOEgECd9orB6iWtQLOW4UD61NDBREWtQGbXcUDU
TpbBkE+FQBebSUAhKqTB1ic8QEIldkD6x5TBsoLxQA12SUAs+ZvBlfnQQCTM00AQccrBxKS2QLcm
BEEIHdXBluWlQFE0xUCA3tjBi4R9QDJHZsAm2JbBYmv6QM1J1r7StLrBPsPWQNgfD8DhfbDBQ3np
QAJ7+j/b0rbBbsT3QC2XlEB/SavBxdx/QMfLWUB1QbnBy+YBQV3MxUDyfLrBHpyLQJwMn0C+W8jB
kHSQQDoVMz/BYp7BZ9SZQAwFjEAv4YbB4ozBQOP+REAWPIfB+TbQQM66mECXRorBVraQQPwS5EC5
rsvBaGZXQGEnPUCPs6jBuKwDQDtna0CwS5jBTlU+QLMXhkCCRo3Ba7iKQOA6McB/M5vB5oGbQNkh
8r+IcqDBJr7hQKTzJ76+g7TBw1TNQPN/l78kp67BB2DYQBjwlz+jbLLBVx/gQG63l0CfprHBT1uc
QI6YgUC/jLnBMWLnQKgqs0D7V7rBxY2jQP9cnUDkOcLBDvelQDf4/z41iKTB/4GvQGa4Wr8ynKbB
cyq6QLH4fUArD7HBfsm5QL9zxD8oiqrBSC7JQDrVtkC7n8LBCQXLQGXuVkDpsJ3BwqaDQIjuZEDw
JprBkZuxQEVyQEC9rKfB4Di3QBuIgUBVB4vBHgOwQIAv5ED7OdHBGzetQBmlc0CoVpbBx/+EQHEW
TUD/NaTBhXE8QMSgbUBWSpTBrVTxQBtsS0AWGpzByeXSQGZK00Ca08rB4jihQOcaxkDxKNjB6aiP
QCMk80Ag8srBJiR4QEk+YsBzn5bBK7D4QGg8174zpLrBgojUQLAFDsApUrDB05joQBJL+z8427bB
/qn3QFVnlUAUWqvBdqZ/QJM2XEAMX7nBF0MCQeuyxUBErbrBiV2MQDhTn0AkncjBNV+PQDOhQD9c
UJ7BG1SaQGrCjED724bB223CQOw+R0BqVIfBzWvQQPb8mUBpa4rB6OW8QNsb/0Ac5NXBVqxWQMWs
REB136jBgekDQChuYUCHt5fBov8+QEgMgEApo4zBR7aMQI5rM8AHPZvBCTqdQAHX9b94e6DBwCPj
QIlzKr4KebTBnQzPQBnOmL/woK7BuCPZQMkklz+IaLLBsUqcQL/vgEB6h7nBZbHfQDGwl0BkjbHB
hE2jQG3inEAqL8LBK7rmQC1js0AvNrrBP6qmQArl8j7sl6TBEd6wQElKYL+3o6bBLwS6QMAMfUBp
A7HBMji6QIgjwj9jkqrBjpfIQO/etkB2hMLBlgbLQIFSVUBGp53B+qSDQAPdZUB8PJrBbqyxQI4L
P0CWqKfBpAW3QJIPgUBcA4vBgoKvQJSb4kDEe9HBfDutQOKwckBYVpbBnwyFQA8NS0C8LaTB/ko8
QFeockAehpTBo1fxQGHxSUADD5zBMwzSQOHN00BdpcrBj6ijQPOMw0AMgNjBiT2NQBQR8EBWpMvB
mJl8QAy6ZMCBqZbBYlP6QOTr0777kLrBnMXWQBl8DsDORLDB8CDpQIxK+z/P0rbBGOx/QIxNWkBE
Y7nBzTL3QA6GlUDaPavByzqMQOSVnkBFmsjBh9MBQQ1ExkDUf7rBhsSPQHnVNz8obJ7B+x+aQB2V
jEBO5YbBd93BQNIqRkD9R4fBg2zQQIhLmUBTYIrBk9O7QOoB/kDxEdbB/75WQF5DQEA9wqjBdKwD
QIpOZ0Ae+ZfBk9Q+QAqeg0CP9IzB

> <OMEGA_E>
ELCGPrAAjD6kEpA+lEKTPg==

> <OMEGA_NBR>
     63421

$$$$
50168751
  -OEChem-04172616093D

 58 61  0     1  0  0  0  0  0999 V2000
    4.7803   -1.7912  -20.3999 C   0  0  0  0  0  0  0  0  0  0  0  0
    4.0888   -2.6484  -19.8976 C   0  0  0  0  0  0  0  0  0  0  0  0
    7.0964    0.0172  -22.6998 C   0  0  0  0  0  0  0  0  0  0  0  0
    6.4431   -1.0360  -22.0368 C   0  0  0  0  0  0  0  0  0  0  0  0
    6.8040    1.3509  -22.3605 C   0  0  0  0  0  0  0  0  0  0  0  0
    4.8482    4.1346  -23.1103 C   0  0  0  0  0  0  0  0  0  0  0  0
    7.0127    4.7765  -22.1826 C   0  0  0  0  0  0  0  0  0  0  0  0
    5.0866    4.9423  -24.2303 C   0  0  0  0  0  0  0  0  0  0  0  0
    7.2589    5.5678  -23.3144 C   0  0  0  0  0  0  0  0  0  0  0  0
    5.2182    0.5776  -20.6775 C   0  0  0  0  0  0  0  0  0  0  0  0
    5.5074   -0.7484  -21.0262 C   0  0  0  0  0  0  0  0  0  0  0  0
    5.7990    4.0574  -22.0666 C   0  0  0  0  0  0  0  0  0  0  0  0
    5.8408    1.6430  -21.3590 C   0  0  0  0  0  0  0  0  0  0  0  0
    6.3005    5.6669  -24.3391 C   0  0  0  0  0  0  0  0  0  0  0  0
    6.3421    3.3765  -19.6558 C   0  0  0  0  0  0  0  0  0  0  0  0
    4.1012    3.5412  -19.2112 C   0  0  0  0  0  0  0  0  0  0  0  0
    3.1874   -3.2698  -16.3600 C   0  0  0  0  0  0  0  0  0  0  0  0
    2.4718   -2.2666  -17.2798 C   0  0  0  0  0  0  0  0  0  0  0  0
    4.3972   -3.8994  -17.0751 C   0  0  0  0  0  0  0  0  0  0  0  0
    2.0226   -2.9526  -18.5891 C   0  0  0  0  0  0  0  0  0  0  0  0
    3.9673   -4.5964  -18.3837 C   0  0  0  0  0  0  0  0  0  0  0  0
    3.1946   -3.6488  -19.3272 C   0  0  0  0  0  0  0  0  0  0  0  0
    5.5552    3.0782  -20.9207 C   0  0  1  0  0  0  0  0  0  0  0  0
    5.6957    3.8804  -17.2780 C   0  0  0  0  0  0  0  0  0  0  0  0
    5.4865    6.9656  -26.1829 C   0  0  0  0  0  0  0  0  0  0  0  0
    5.3966    3.7308  -18.7072 N   0  0  0  0  0  0  0  0  0  0  0  0
    4.1557    3.2360  -20.4849 N   0  3  0  0  0  0  0  0  0  0  0  0
    2.9210    3.6521  -18.4911 N   0  0  0  0  0  0  0  0  0  0  0  0
    7.5385    3.1863  -19.4617 O   0  0  0  0  0  0  0  0  0  0  0  0
    6.6047    6.4760  -25.4172 O   0  0  0  0  0  0  0  0  0  0  0  0
    5.8646    8.1081  -26.8048 F   0  0  0  0  0  0  0  0  0  0  0  0
    5.1171    6.0495  -27.1172 F   0  0  0  0  0  0  0  0  0  0  0  0
    7.8228   -0.1973  -23.4697 H   0  0  0  0  0  0  0  0  0  0  0  0
    6.6582   -2.0606  -22.3018 H   0  0  0  0  0  0  0  0  0  0  0  0
    7.3153    2.1574  -22.8650 H   0  0  0  0  0  0  0  0  0  0  0  0
    3.9318    3.5671  -23.0437 H   0  0  0  0  0  0  0  0  0  0  0  0
    7.7516    4.7157  -21.3972 H   0  0  0  0  0  0  0  0  0  0  0  0
    4.3446    5.0129  -25.0119 H   0  0  0  0  0  0  0  0  0  0  0  0
    8.1918    6.1051  -23.3997 H   0  0  0  0  0  0  0  0  0  0  0  0
    4.5158    0.7842  -19.8836 H   0  0  0  0  0  0  0  0  0  0  0  0
    3.5343   -2.7469  -15.4565 H   0  0  0  0  0  0  0  0  0  0  0  0
    2.4825   -4.0649  -16.0757 H   0  0  0  0  0  0  0  0  0  0  0  0
    1.5888   -1.8662  -16.7603 H   0  0  0  0  0  0  0  0  0  0  0  0
    3.1600   -1.4431  -17.5211 H   0  0  0  0  0  0  0  0  0  0  0  0
    5.1261   -3.1100  -17.3110 H   0  0  0  0  0  0  0  0  0  0  0  0
    4.8625   -4.6409  -16.4090 H   0  0  0  0  0  0  0  0  0  0  0  0
    1.2596   -3.7074  -18.3479 H   0  0  0  0  0  0  0  0  0  0  0  0
    1.5886   -2.1922  -19.2548 H   0  0  0  0  0  0  0  0  0  0  0  0
    4.8667   -4.9573  -18.9041 H   0  0  0  0  0  0  0  0  0  0  0  0
    3.3209   -5.4505  -18.1335 H   0  0  0  0  0  0  0  0  0  0  0  0
    2.7686   -4.2544  -20.1406 H   0  0  0  0  0  0  0  0  0  0  0  0
    4.7802    4.1660  -16.7392 H   0  0  0  0  0  0  0  0  0  0  0  0
    6.0723    2.9264  -16.8805 H   0  0  0  0  0  0  0  0  0  0  0  0
    6.4590    4.6608  -17.1430 H   0  0  0  0  0  0  0  0  0  0  0  0
    4.6481    7.1663  -25.4997 H   0  0  0  0  0  0  0  0  0  0  0  0
    3.3586    3.1255  -21.0786 H   0  0  0  0  0  0  0  0  0  0  0  0
    2.0428    3.4956  -18.9432 H   0  0  0  0  0  0  0  0  0  0  0  0
    2.9482    3.8885  -17.5199 H   0  0  0  0  0  0  0  0  0  0  0  0
  1  2  3  0  0  0  0
  1 11  1  0  0  0  0
  2 22  1  0  0  0  0
  3  4  1  0  0  0  0
  3  5  2  0  0  0  0
  4 11  2  0  0  0  0
  5 13  1  0  0  0  0
  6  8  2  0  0  0  0
  6 12  1  0  0  0  0
  7  9  1  0  0  0  0
  7 12  2  0  0  0  0
  8 14  1  0  0  0  0
  9 14  2  0  0  0  0
 10 11  1  0  0  0  0
 10 13  2  0  0  0  0
 12 23  1  0  0  0  0
 13 23  1  0  0  0  0
 14 30  1  0  0  0  0
 15 23  1  0  0  0  0
 15 26  1  0  0  0  0
 15 29  2  0  0  0  0
 16 26  1  0  0  0  0
 16 27  2  0  0  0  0
 16 28  1  0  0  0  0
 17 18  1  0  0  0  0
 17 19  1  0  0  0  0
 18 20  1  0  0  0  0
 19 21  1  0  0  0  0
 20 22  1  0  0  0  0
 21 22  1  0  0  0  0
 23 27  1  0  0  0  0
 24 26  1  0  0  0  0
 25 30  1  0  0  0  0
 25 31  1  0  0  0  0
 25 32  1  0  0  0  0
  3 33  1  0  0  0  0
  4 34  1  0  0  0  0
  5 35  1  0  0  0  0
  6 36  1  0  0  0  0
  7 37  1  0  0  0  0
  8 38  1  0  0  0  0
  9 39  1  0  0  0  0
 10 40  1  0  0  0  0
 17 41  1  0  0  0  0
 17 42  1  0  0  0  0
 18 43  1  0  0  0  0
 18 44  1  0  0  0  0
 19 45  1  0  0  0  0
 19 46  1  0  0  0  0
 20 47  1  0  0  0  0
 20 48  1  0  0  0  0
 21 49  1  0  0  0  0
 21 50  1  0  0  0  0
 22 51  1  0  0  0  0
 24 52  1  0  0  0  0
 24 53  1  0  0  0  0
 24 54  1  0  0  0  0
 25 55  1  0  0  0  0
 27 56  1  0  0  0  0
 28 57  1  0  0  0  0
 28 58  1  0  0  0  0
M  CHG  1  27   1
M  END
> <OMEGA_C>
Q/iYQJxH5b8JM6PBDdeCQJR+KcBiLp/BnhXjQEAEjTwwmbXB/i3OQHqahL9rS7DBm7rZQP7orD9l
4rLBnSSbQPNOhEDN4bjBVWjgQCDZmED3dbHBT8WiQE0nnkCp18HB3UjoQCwrskDmg7rB5/umQKve
Ez9ya6XBzDywQG+YP7+TNajBgZG5QGjWgUBpiLDBIui6QDJM0j9A36rBkJ3JQJtXtUBxtsLBkPLK
QGQYWEAlP53BwjyDQOGiYkCdsJnBg/5LQJlDUcBY4YLBnTIeQMcPEcAZPYrB87WMQGyPecDLmYjB
wHIBQCn4PMBrtpTB+ud9QH4Vk8DVEZPB7XRMQAyGacAQnprB2MOxQFEBRUCGXafB10K2QF5YeEBU
OYrBmZGvQF3m3kCkdtHBKbGsQMPFbkBHqJXBqPuEQBYaT0Ac4aPBQvE6QNe7aUDb7ZPBDjvxQH3s
S0CXsZvB21nTQBI7z0BvVsvB36q7QKS6AUErcNbBd7+jQCGVwUAZ8NjBY1T6QHQTSr7fwbvBYRDV
QBnhA8AVarLBIRfqQDYTCkBw67bB+qF7QKpLZECKWbjB+Qz4QF7nlkCFLavBxgaLQOtpoEBLGMjB
sREDQWNdw0CVMrvBHYGQQADASD+WEZ/BJTJiQDLNL8ADTnfBwuAeQEYTgsDwmoDBpF3LPz/g7r8N
FYbBqz1KQDS2uL8/K4zB5wikQIcKR8DqfIrBcZmbQEKClMCnRYPBmzuhP4JGbcCayJLBsVXLP0pM
DMDkCZrBMLybQAminsB/O5fBaolUQJ5qrsBeEZHBMDExQGEkiMAJIKHBBveYQAxQhUDw6YXBeVDC
QMlJO0BRC4fBOrDOQGUllUDGJInBoL2UQI9S5UBU/8vByPNWQMkHSEDvoKjBvL0CQO23X0C1i5fB
ba88QMbdeEC2KIzBnY6bQJ4Q7r94BaPBQKSGQBYkL8Cw3Z7Br5zkQMA8u7xdgbXBlAnQQIB3ir89
MrDBTLLaQIxgpz9N1bLB7YabQPv+gUC5B7nBpdrfQCEYmEClYrHBwLSiQPuenEAm4cHBCinnQGNq
skBZSbrB7wioQI8cBT/7Y6XB7OaxQCPbTb8yIqjBV5a5QKUagEBomLDBi5q7QESTyz+03qrB5aHI
QBmGtUD6hMLB7ALLQChpVUBbTZ3BVE2DQA8RZUDE/JnBKCVOQFQKSsD+moLBiekdQMRvEsCBxIrB
oOyPQGYBcMBimYfBE5gHQHHtRsBA35TBck6FQKZ3ksBosJHBM3dXQNzWcMDGBZrB3PixQDt7QUCo
aqfBBPG1QI43eUAsZIrBdByvQEq94EDncdHBDr6sQEc3bkDI05XBnCSFQIzGSkBv8KPB9Pc6QHHD
dEDrhZTBq0DxQDoySUBfsZvBrynSQHAN0UAd6srBE2ugQFeEwUBgE9jBGr6OQNNq8EBBRsvB8wj8
QG5gbL70orvBu1PXQCCtBsDZS7LBUdXqQHedB0AW3bbBWqd9QOSZXUA2qLjB4ob3QPYglkAYHKvB
qFGLQK8xnkCAOsjByEQCQbx9xEB207rBYmORQAl+OD+NEJ/Bg9JfQKhuIsAWWXfBEzckQO6FfsAM
8n/BwuvEP/dk9b8gG4fBn3RGQAnCt7/1Do3BEKulQFGKO8D1zonBLamfQJvWjMCMsoHBUkO0Pw+j
ecC6pJLBClXTPxMcHMBnxZrBF2qjQE86ncCsXpXB9XhkQHR6rsC2To/BLWhBQHeSjsDmR6DBIKKY
QLKOhkAqM4bBn1vBQFNEPECUCYfB9LzOQPBAlUD7XYnBNMK7QG8F+0AfX9bB1k5XQCqzPkDOiKjB
tbUCQCAXbEACLpjBjLA8QKBghEAt7YzBmdC1QMM+7r9F/Z3B/BewQEVlLsCkU5fBWDPQQCXZMr6s
5rfBgBHKQOFwl794NLDB5LHIQFkqlj/APbXBsc+YQKZuiUAZCLjB9uLjQIDnjkBnyLLBOJ2gQPIN
pUAvtMDB8JzrQPBMqkCHd7vBldu0QHITAT+QHqPBmlu8QNGdV78V0aXBmCC6QFgbfkATxrDBiAO7
QMerwz+hxKrBvv/JQIQDtkAMWMLBpxPLQArzV0A3fZ3BUkyDQB4DZUA6CprB+pj1QJafcsAlvIDB
Ve/TQMuNKsDnCYDB/YH4QOVii8CnM4zBOpKnQAIiSsBg4oPBY13MQByHm8CQHJDBNhupQLtTccD2
S4/BCfCxQGEcP0BDiafBGLa2QNB4hUCnA4vB2YC4QNKK90Da7crB7M+sQLeNdECxMJbBZBqFQD9l
RkBf1qPBFeo6QDV7c0BZeZTBsrHxQHlvUUAG7JvBw5fSQGxt0UC5scrBY1nAQNb1B0GOG8LBCtfC
QBE2B0HRydPB+q/aQO6u3r603b/BddvPQMncDcAVQbLBZlvNQAme+D+EMbvBdotyQGsbeEDn5LbB
evX9QO/QhUAjlq3BS/KGQNJLrUAuHMbBKL4FQZdstkAE37zB2FCqQILQQT/MJJvBpoEKQYrkWMAf
0XzBBIvsQC48k8BJdXbBdFrRQBsJFcCVXm/BqzTeQPF16b+1GIXBq+cBQTMTZMBHnZHBI6sHQT4t
psCES4zBSeubQOEme8BKj3zB/FGRQGOVE8A27YPB8ETPQD6JpcBehJjB0tDCQNwct8CoMYvBiROK
QNwZiMDI1ZDBZ0qZQKzXj0AD8IbBufXDQJCpUkDj5IbB/UnOQA2an0AY3YrBbZWWQBEw7kCgLcvB
NxlXQCwxNkDANKjBCZ0CQJ1zZkB06ZfBzck8QE91hUCICI3BCQC1QGTZ779gLZ7BH5quQHBmL8Dm
lZfBexnOQHHpRL5HI7jBGQvJQK86mb+UYbDBJy7GQItqkz/VerXBu4HkQD49g0D+3rTB3ZCZQE8i
mUD/r7TB0jHsQKKenkCflr3BJpuhQBxctUB+Ib3BmWG1QCNw/D7jKaPB8Re8QDWcWr868aXBccW6
QACzfkC8hLDBaru6QI8Qwj8g2arBD7vKQOdwt0Bn58HBQQXLQCRYV0C1i53BBiiDQIfIY0DaB5rB
v9DyQMEVdcA06oDBnEDRQDfOLMBiPoDBJBP2QI1vjMD2ZIzBt/qkQB7jS8AWN4TBbQDKQGhSnMCc
a5DB5OimQKeXcsB7pY/BgM+xQNw/PkBug6fBXaO2QI4ThUDDB4vBhiqwQCx73UBwkdHBObesQA0K
c0ARLpbBxPyEQJ+gQ0BQv6PBkYA6QPnGc0BtjpTBi/DxQDsZVUBETZzBrdDTQGCx0EC+xMrBJLmU
QLhGvECTbdPBC8OaQHT6/kCXH83BeRLYQDqP574DJcDB2xHPQFeyDsD3arLB287IQMEN9T+Wj7vB
94z+QLkaYkCyd7HBgpRzQL4Fl0DLVLHBcvIFQWajoEAy/sDBYESIQDnEyUCTC8DBNBGsQPJNPz+C
GJvBpRgJQWumW8B2A33BmHzpQNiIlMCF6nbB02XOQCOpF8DCwm/BI87bQIuj7b/ePIXBMdcAQdAW
ZsAKwZHBfGUGQVhSp8DNdozB8ASZQLoOfcA/WH3BSdSOQNEsFcCbRoTBeCjNQDo1psBH1JjBDyXA
QJLwt8BwjYvBWdqHQBB5iMDjTpHBDRyZQJDtjkAK7IbBn4fEQLqHUkAY54bBBbPNQN2qn0Dh74rB
NLK9QPDk50CAQ9nBZwpXQFRJMUCxA6jBHD8CQE22ZkD0AJjBFD48QPwrhkAiLI3BvdKyQCDy7789
X57By8KsQPDBL8CIzJfB/E/SQGcYLr44yrfBrmTJQPy/l7/9WbDB+jPMQNLIlj/h+bTBFO6hQIYP
eEDkFLrBt8DaQH+Nn0DDBbDBbcSqQNUplkCQ6cLBSEziQNvsukB8v7jBZbuyQPcL/j6SWqPBUzi6
QLWEWb/7FabBqH66QFA+f0CwnbDBbUi7QNDCwz/HxqrB+yTKQIeLtkAiMcLBZyTLQD+TVUDwS53B
aUODQNY9ZUAEH5rBeLXxQGQJd8CbO4HBTFDQQHuFLsAReoDBy7j0QEAQjcDqv4zBtuejQKsXTcAZ
aoTBXIvIQI2znMA8w5DBP3ulQEJRc8A/4I/BxnWyQNN8P0Ced6fBPBu2QO8OhEAQ2IrBAoGwQAVr
70Cgdc3Be7KsQJ2wckBmEpbBqnOFQJd7SEA4AqTBgHE6QLsGdEAVppTBDsjxQF6mTkClyJvBkkLS
QOj+0EDtzMrBaHKIQGZW3kBn1szBZ5uyQFbDCEHuwMbBEd7dQNl52b5trL/BOijOQIUlDsB9f7LB
M27UQPFI+j9FnLrBwTaIQFgBSkAAgLrB4JjtQIDTokCI06jBkoCZQEOGkUB7TsrBF6j6QFdY00Br
NLjBhlymQPzFPT84h5vBBJYIQaEFXsD3pn3BS1XoQDKhlcAzonfBV6nNQFmvGcDPMXDBfeHaQBrZ
8L89c4XB/icAQcsTZ8BaEpLBYa4FQYoCqMAd5YzBQPiXQBVqfsBbx33By9yNQHU0FsAaaITBNovL
QNhJpsBaMpnBsrm+QHd6uMBm8ovBbWGGQFjXiMBje5HBapyYQFbCjkD12obBzK7CQKUyT0CeuobB
MxHOQLHRnUAIj4rBbiK2QA5y+kB0stXBkyhYQBqZOkBrkKjBDFUCQJa6aEBfOpjBVNo7QA36hECQ
Io3B

> <OMEGA_E>
AKs/PvCjWT44uvI+8IPxPjB57D4=

> <OMEGA_NBR>
     68470

$$$$
50168767
  -OEChem-04172616093D

 43 45  0     1  0  0  0  0  0999 V2000
    6.4882   -1.0634  -22.0723 C   0  0  0  0  0  0  0  0  0  0  0  0
    7.0864    0.0090  -22.7595 C   0  0  0  0  0  0  0  0  0  0  0  0
    5.5714   -0.8111  -21.0343 C   0  0  0  0  0  0  0  0  0  0  0  0
    6.7740    1.3341  -22.4071 C   0  0  0  0  0  0  0  0  0  0  0  0
    5.2503    0.5132  -20.6828 C   0  0  0  0  0  0  0  0  0  0  0  0
    6.9905    4.7739  -22.1471 C   0  0  0  0  0  0  0  0  0  0  0  0
    4.8438    4.1120  -23.1080 C   0  0  0  0  0  0  0  0  0  0  0  0
    7.2460    5.5738  -23.2664 C   0  0  0  0  0  0  0  0  0  0  0  0
    5.0946    4.9280  -24.2185 C   0  0  0  0  0  0  0  0  0  0  0  0
    5.8369    1.6018  -21.3743 C   0  0  0  0  0  0  0  0  0  0  0  0
    5.7842    4.0351  -22.0559 C   0  0  0  0  0  0  0  0  0  0  0  0
    6.3011    5.6635  -24.2987 C   0  0  0  0  0  0  0  0  0  0  0  0
    6.3342    3.3640  -19.6686 C   0  0  0  0  0  0  0  0  0  0  0  0
    4.1017    3.5852  -19.2334 C   0  0  0  0  0  0  0  0  0  0  0  0
    5.5446    3.0393  -20.9243 C   0  0  2  0  0  0  0  0  0  0  0  0
    5.7073    4.0625  -17.3399 C   0  0  0  0  0  0  0  0  0  0  0  0
    5.5616    7.3874  -25.7713 C   0  0  0  0  0  0  0  0  0  0  0  0
    5.1101    7.0650  -27.1969 C   0  0  0  0  0  0  0  0  0  0  0  0
    5.3999    3.8147  -18.7530 N   0  0  0  0  0  0  0  0  0  0  0  0
    4.1487    3.1844  -20.4810 N   0  3  0  0  0  0  0  0  0  0  0  0
    2.9275    3.7378  -18.5119 N   0  0  0  0  0  0  0  0  0  0  0  0
    7.5325    3.1890  -19.4723 O   0  0  0  0  0  0  0  0  0  0  0  0
    6.6021    6.4672  -25.3719 O   0  0  0  0  0  0  0  0  0  0  0  0
    4.6933    5.7754  -27.2914 F   0  0  0  0  0  0  0  0  0  0  0  0
    6.7325   -2.0804  -22.3414 H   0  0  0  0  0  0  0  0  0  0  0  0
    7.7863   -0.1859  -23.5587 H   0  0  0  0  0  0  0  0  0  0  0  0
    5.1139   -1.6351  -20.5069 H   0  0  0  0  0  0  0  0  0  0  0  0
    7.2500    2.1535  -22.9252 H   0  0  0  0  0  0  0  0  0  0  0  0
    4.5521    0.7009  -19.8805 H   0  0  0  0  0  0  0  0  0  0  0  0
    7.7158    4.7192  -21.3488 H   0  0  0  0  0  0  0  0  0  0  0  0
    3.9293    3.5399  -23.0557 H   0  0  0  0  0  0  0  0  0  0  0  0
    8.1731    6.1234  -23.3355 H   0  0  0  0  0  0  0  0  0  0  0  0
    4.3670    4.9960  -25.0137 H   0  0  0  0  0  0  0  0  0  0  0  0
    4.8019    4.4137  -16.8232 H   0  0  0  0  0  0  0  0  0  0  0  0
    6.0580    3.1306  -16.8722 H   0  0  0  0  0  0  0  0  0  0  0  0
    6.4929    4.8288  -17.2645 H   0  0  0  0  0  0  0  0  0  0  0  0
    5.9487    8.4163  -25.7339 H   0  0  0  0  0  0  0  0  0  0  0  0
    4.7062    7.2923  -25.0863 H   0  0  0  0  0  0  0  0  0  0  0  0
    4.2807    7.7331  -27.4722 H   0  0  0  0  0  0  0  0  0  0  0  0
    5.9526    7.2230  -27.8863 H   0  0  0  0  0  0  0  0  0  0  0  0
    3.3478    3.0027  -21.0517 H   0  0  0  0  0  0  0  0  0  0  0  0
    2.0470    3.5378  -18.9416 H   0  0  0  0  0  0  0  0  0  0  0  0
    2.9612    4.0478  -17.5617 H   0  0  0  0  0  0  0  0  0  0  0  0
  1  2  1  0  0  0  0
  1  3  2  0  0  0  0
  2  4  2  0  0  0  0
  3  5  1  0  0  0  0
  4 10  1  0  0  0  0
  5 10  2  0  0  0  0
  6  8  2  0  0  0  0
  6 11  1  0  0  0  0
  7  9  1  0  0  0  0
  7 11  2  0  0  0  0
  8 12  1  0  0  0  0
  9 12  2  0  0  0  0
 10 15  1  0  0  0  0
 11 15  1  0  0  0  0
 12 23  1  0  0  0  0
 13 15  1  0  0  0  0
 13 19  1  0  0  0  0
 13 22  2  0  0  0  0
 14 19  1  0  0  0  0
 14 20  2  0  0  0  0
 14 21  1  0  0  0  0
 15 20  1  0  0  0  0
 16 19  1  0  0  0  0
 17 18  1  0  0  0  0
 17 23  1  0  0  0  0
 18 24  1  0  0  0  0
  1 25  1  0  0  0  0
  2 26  1  0  0  0  0
  3 27  1  0  0  0  0
  4 28  1  0  0  0  0
  5 29  1  0  0  0  0
  6 30  1  0  0  0  0
  7 31  1  0  0  0  0
  8 32  1  0  0  0  0
  9 33  1  0  0  0  0
 16 34  1  0  0  0  0
 16 35  1  0  0  0  0
 16 36  1  0  0  0  0
 17 37  1  0  0  0  0
 17 38  1  0  0  0  0
 18 39  1  0  0  0  0
 18 40  1  0  0  0  0
 20 41  1  0  0  0  0
 21 42  1  0  0  0  0
 21 43  1  0  0  0  0
M  CHG  1  20   1
M  END
> <OMEGA_C>
PJ/PQKYciL8hlLDBrMPiQPCzEjyLE7bBPUmyQHalT78uRqjB2cTYQCLEqj+sQbPBygKoQDZgAz9T
dqXB5bHfQBTEmEBNLbHBiACbQGCVg0A03bjBKN/nQLRcskCtIbrBwgajQI+ynUBmv8HBuse6QHgG
zT+T/qrB2Re5QFAfgUBscrDBdaLJQLU7tUDVY8LB9bHKQAVLV0A3WZ3B8kCDQLlzZUAE3pnBem2x
QPWDQkD2ZKfBHaK2QNz/gUAQuIrBcfixQC9l7ECvK87BDIajQGsU4kBFk9nBqcusQNckdEAzBpbB
+MGEQC/NS0Af2aPB8Fs7QF03b0BNGJTBIwrxQKkYTEBAx5vBz0TTQETzzkCe+crBni+WQHTQuEDH
VNrBn3DXQA0lBcAwu7LBDSn5QI5aPr4qeLzB9KSjQORJ0b8QDqTB5P/nQOjSCUDTZrfB/qqRQGFx
Mz9GC5/BG+j2QO4Dl0BtyqrB+Xh7QCCOYkAbcrjBKMUCQdjyw0Agr7rBVL6LQJ3fn0AGHMjBMqmZ
QBI9jUD6lYbB9trBQGlcSEBW+obBjsXPQEaFmkDFHYrBJFy+QBipBkEM383BWJmWQIla6UCnsMjB
r/uIQEt190ATx9vBZHu+QDUj50AzF9/B7kJWQAcsQEDMaajBkAEDQKNqYkBziJfB/YM9QGmHgUBv
fozB5FnPQKIdiL/Rw7DBbJPkQLBRHzyVwLXB04GwQL1hUL92zajBbwjbQNyZqj8QybLB06qmQHsk
Aj+g2qXBGUScQJ8BgUCA9rjBCTnfQH7LmUAU/LDBUeWjQC+NmkBP7sHB8czmQIFss0As/LnB+2K7
QO96zD+O6qrBcJy5QB+PgECWYbDBySLJQPQ+tECMbsLBxujKQEy8VkBHN53B2EaDQBO7ZUCo65nB
uv2xQM4LQkAdS6fBrAy2QBb9gEC8lYrB9+qsQPCV3UA729DBy+a4QIu3A0HlR9bBnLasQKwoc0DU
7pXBwi6FQLixS0C336PBJ8w6QPpMcUApU5TBXjjxQAaOS0C2mJvBhbzRQG+OzkBF+MrBglLHQMa2
EUFZxs7B2LrWQHwRBcAlDLPBvjb8QM54O74W3bvBQ2CgQCnL0b/P86TBXuDrQBfECUDJg7bByCyP
QP6xMT+dsZ/BOox/QCQBW0D1l7jBgQ/2QKlEmUBUgKrBsF+NQGOymkD0e8jBfMABQeyWxkCQbrrB
OOyYQAgkjEBWgYbBUwLBQOrzRUBd5IbBZjvPQGZnmUAq2InBkf6RQCHd4kDgV8vBMrujQHXHxUAC
69bBejPSQJ3IAEGPONzBC5+cQNtzCkF6S9rBS3tXQGMCQEBIgKjBAbECQPyXZUB+4pfBTUY8QOys
gkDVuozBcj7PQOjnib8XM7DBYo3iQCDuZ7yjx7XB5MuxQCOaT79K86fB6JLYQJSIqD+qG7PBdo6n
QO6lBD+gSaXB9sSaQJYLg0DjELnBjmbeQNPgmUCILbHBILWiQJcWnUDj/8HB0CLmQCcBtEABELrB
5Gq6QKaCzD/w66rBvIm4QLcegUDikbDBNM7IQBbVtUDEj8LBqJ3KQIuuV0Boc53BTEKDQH2rZEBV
1JnB5B2xQLKaQkCvdKfB/g+3QDhQgkC4zorBRiq3QKwl1EDUB9TB3ECWQCe290BU2dHBwtusQEE4
dEBhFJbBOYWEQLL3S0BJ2qPBJ8M7QB0+bUCJ8pPBBgHxQF6kTECW7JvByJTUQC1Oz0CcKcvBGg14
QMi37UBvjsnBxAbXQONFBsCJP7LBahH5QK11Yb69H7zBjwyjQGhN0L84qaPBBvPnQHw+CECCT7fB
jiiRQHyaNz8+557BxXZ7QLK7YEAyr7jBtXL1QECYmEBmv6rB882LQC9TnkBndsjBEH8BQXL6xkDx
YrrBvCaaQMVbjUCFnYbBLbPCQKlRSUBNEIfB1v/PQBcSm0CDSorBgiKmQLG/tUB/R9XBJ2jJQOBG
3EDuRtvB6WqnQIW9CkH18M/BeLyCQLJ//EDsEtnBkpRVQFEHQUB+aKjB+D0DQJ5DYEDqVJfBel8+
QKAzgEBCUozB3bzJQMPNor9l8K/BPPzrQGoiur5cUK/BY+qfQD4YWL/zkK3BZXjkQBlWdz/1LKzB
QgqYQIKo/z6I3arBX/7WQEBpY0DNiLnBkr6lQG0lpECzSLHB+57eQNrXjkAu3MHBTHKtQKs0wUC5
mLnBwES6QPwStz97MqrBIAC6QOBXd0CPHbHB5BDKQHfPtkCt/8HBw0vLQKiaV0C6vZ3Bm4eDQBJG
Y0A//5nB7cexQJS8OkCxiKfBMoa3QJyzhUBTMovB+TfKQOpk/0A17cjBUOybQM4tBUFkQMzByjGt
QEy4ckBiRpbBCPeEQELkRUBk2KPBDKk7QFZeckABZZTBRE/yQJAvWkCPuZzBQKHTQHQ80kDwY8rB
ew6VQOIW/kCbhdbB5ofPQHsDE8AWPbLBvAUGQWnWL78uPrHBXcOFQDtUxr+Y0a3BLCX/QCNU0j8c
QqvBm2hvQPZTUz+ASanBnV3nQBKKJkDZg7nB6wmQQJTDrEBI6qrBnnv0QHZ3hkAzN8jBzGudQF/T
30A/mrnBmQeaQJ8Xj0CgAYfBFUrGQOXWVECtCYfBrPrNQK3OoEDURYvBX37gQAkoCUHm1M3Bs5PO
QCDRA0HUcMDB92WFQPJ7+UBa98bBReKWQHiKFkGSjMvBy1ZWQH28OEDfSKjBYR8DQIfJZkBJ2pfB
Ifs9QOlmhEBn6IzBrMfOQLrHZL9/zrPBUn/pQCAFRD49a7bBaBesQJh5Nb+zx6zBeIXhQIxCuz/9
B7LBXr6jQKgsED8idKjB3vCcQG7ThEDjubfBqCrhQLjPnEDEUrDB3G+jQODAnUDYycDBRsznQFAG
tkBulbnB8PK9QJLD1T+rLavBaoe7QESdg0Bjba/BauXIQKKztUBc98HB2n3LQI9SU0AGKZzBxhmD
QF2hY0DEspnBJGO0QJNYREDMrabBgjaxQH/cYkByI4nBUkPpQHa67UCJpszBsrPVQNvwCUFErMbB
CGOrQNs9ZUAVyJTBNgmHQDF5S0A8pKPBE+43QNsHdkAxApXB7p7xQLdQSEBlSprBeuzNQLrOyECw
3svBcParQNVhDEHmgsnB9ObUQGwr778lMrfBVRMCQVwDRD0ozLvBrtmXQD3Dxb/htKrBQZz2QMZT
EkBW5LPBZjaJQH2pMj/VBaPBEAmAQNIuZEAmBrfBYZv4QKi9nEBx+anBolKLQBKfnkBO+cbB7RwC
QYh4yUBwS7rB7umSQDeSc0AYLYXBqwa7QDEjIkAusobBRxTKQMaKiED4z4bBzGDtQCQ59kDUINXB
pE4EQSEd5kCkIcnBicLXQL4ZB0HmAL7BlIDnQGOQGEGBt8jBLvpcQJdnP0AHjKjBlhMCQN8EcUAV
SZnBWVM1QEgohEBRWY3B

> <OMEGA_E>
uCxZPlCMYT6okGQ+aJu8Pmi/xj4=

> <OMEGA_NBR>
     72555

$$$$
50168724
  -OEChem-04172616093D

 47 49  0     1  0  0  0  0  0999 V2000
    4.8838    4.0190  -23.1783 C   0  0  0  0  0  0  0  0  0  0  0  0
    6.9898    4.7316  -22.1812 C   0  0  0  0  0  0  0  0  0  0  0  0
    6.8460    1.1825  -22.2430 C   0  0  0  0  0  0  0  0  0  0  0  0
    5.0961    4.9032  -24.2544 C   0  0  0  0  0  0  0  0  0  0  0  0
    7.2066    5.6026  -23.2610 C   0  0  0  0  0  0  0  0  0  0  0  0
    7.1433   -0.1535  -22.5513 C   0  0  0  0  0  0  0  0  0  0  0  0
    5.1545    0.4245  -20.6446 C   0  0  0  0  0  0  0  0  0  0  0  0
    5.8152    3.9386  -22.1147 C   0  0  0  0  0  0  0  0  0  0  0  0
    5.8325    1.4921  -21.3074 C   0  0  0  0  0  0  0  0  0  0  0  0
    6.2617    5.7127  -24.2956 C   0  0  0  0  0  0  0  0  0  0  0  0
    5.4388   -0.9276  -20.9713 C   0  0  0  0  0  0  0  0  0  0  0  0
    6.4393   -1.2021  -21.9305 C   0  0  0  0  0  0  0  0  0  0  0  0
    6.3461    3.3202  -19.6940 C   0  0  0  0  0  0  0  0  0  0  0  0
    4.1144    3.6102  -19.2866 C   0  0  0  0  0  0  0  0  0  0  0  0
    5.5572    2.9627  -20.9427 C   0  0  1  0  0  0  0  0  0  0  0  0
    5.7123    4.0291  -17.3698 C   0  0  0  0  0  0  0  0  0  0  0  0
    4.7730   -2.2479  -19.0551 C   0  0  0  0  0  0  0  0  0  0  0  0
    3.7758   -3.3564  -18.6267 C   0  0  0  0  0  0  0  0  0  0  0  0
    5.4325    7.0203  -26.1430 C   0  0  0  0  0  0  0  0  0  0  0  0
    5.4129    3.7856  -18.7860 N   0  0  0  0  0  0  0  0  0  0  0  0
    4.1623    3.1452  -20.5122 N   0  3  0  0  0  0  0  0  0  0  0  0
    2.9380    3.8717  -18.6008 N   0  0  0  0  0  0  0  0  0  0  0  0
    7.5451    3.1547  -19.4934 O   0  0  0  0  0  0  0  0  0  0  0  0
    4.6660   -1.9798  -20.4802 O   0  0  0  0  0  0  0  0  0  0  0  0
    6.5369    6.6204  -25.3063 O   0  0  0  0  0  0  0  0  0  0  0  0
    6.7290   -2.4788  -22.2685 F   0  0  0  0  0  0  0  0  0  0  0  0
    3.8437   -3.5381  -17.2795 F   0  0  0  0  0  0  0  0  0  0  0  0
    4.0635   -4.5353  -19.2438 F   0  0  0  0  0  0  0  0  0  0  0  0
    5.6995    8.2522  -26.6432 F   0  0  0  0  0  0  0  0  0  0  0  0
    5.2854    6.1443  -27.1719 F   0  0  0  0  0  0  0  0  0  0  0  0
    4.0016    3.3962  -23.1644 H   0  0  0  0  0  0  0  0  0  0  0  0
    7.7250    4.6646  -21.3930 H   0  0  0  0  0  0  0  0  0  0  0  0
    7.3947    1.9791  -22.7233 H   0  0  0  0  0  0  0  0  0  0  0  0
    4.3694    4.9655  -25.0510 H   0  0  0  0  0  0  0  0  0  0  0  0
    8.1093    6.1943  -23.2970 H   0  0  0  0  0  0  0  0  0  0  0  0
    7.9176   -0.3787  -23.2698 H   0  0  0  0  0  0  0  0  0  0  0  0
    4.4179    0.6477  -19.8870 H   0  0  0  0  0  0  0  0  0  0  0  0
    4.8081    4.3947  -16.8609 H   0  0  0  0  0  0  0  0  0  0  0  0
    6.0444    3.0921  -16.8989 H   0  0  0  0  0  0  0  0  0  0  0  0
    6.5091    4.7831  -17.2879 H   0  0  0  0  0  0  0  0  0  0  0  0
    4.5496   -1.3266  -18.4971 H   0  0  0  0  0  0  0  0  0  0  0  0
    5.7975   -2.5762  -18.8258 H   0  0  0  0  0  0  0  0  0  0  0  0
    2.7675   -3.0203  -18.9102 H   0  0  0  0  0  0  0  0  0  0  0  0
    4.5161    7.0480  -25.5352 H   0  0  0  0  0  0  0  0  0  0  0  0
    3.3615    2.9427  -21.0759 H   0  0  0  0  0  0  0  0  0  0  0  0
    2.0554    3.7058  -19.0406 H   0  0  0  0  0  0  0  0  0  0  0  0
    2.9722    4.2262  -17.6663 H   0  0  0  0  0  0  0  0  0  0  0  0
  1  4  2  0  0  0  0
  1  8  1  0  0  0  0
  2  5  1  0  0  0  0
  2  8  2  0  0  0  0
  3  6  2  0  0  0  0
  3  9  1  0  0  0  0
  4 10  1  0  0  0  0
  5 10  2  0  0  0  0
  6 12  1  0  0  0  0
  7  9  2  0  0  0  0
  7 11  1  0  0  0  0
  8 15  1  0  0  0  0
  9 15  1  0  0  0  0
 10 25  1  0  0  0  0
 11 12  2  0  0  0  0
 11 24  1  0  0  0  0
 12 26  1  0  0  0  0
 13 15  1  0  0  0  0
 13 20  1  0  0  0  0
 13 23  2  0  0  0  0
 14 20  1  0  0  0  0
 14 21  2  0  0  0  0
 14 22  1  0  0  0  0
 15 21  1  0  0  0  0
 16 20  1  0  0  0  0
 17 18  1  0  0  0  0
 17 24  1  0  0  0  0
 18 27  1  0  0  0  0
 18 28  1  0  0  0  0
 19 25  1  0  0  0  0
 19 29  1  0  0  0  0
 19 30  1  0  0  0  0
  1 31  1  0  0  0  0
  2 32  1  0  0  0  0
  3 33  1  0  0  0  0
  4 34  1  0  0  0  0
  5 35  1  0  0  0  0
  6 36  1  0  0  0  0
  7 37  1  0  0  0  0
 16 38  1  0  0  0  0
 16 39  1  0  0  0  0
 16 40  1  0  0  0  0
 17 41  1  0  0  0  0
 17 42  1  0  0  0  0
 18 43  1  0  0  0  0
 19 44  1  0  0  0  0
 21 45  1  0  0  0  0
 22 46  1  0  0  0  0
 22 47  1  0  0  0  0
M  CHG  1  21   1
M  END
> <OMEGA_C>
xEecQOGbgEAibbnBvKzfQH1pl0Avc7HBvhLbQO1blz+k8bHB+BKjQD3nnEAYCcLBWpzmQC5Is0CL
FrrBPpbkQAo1Hb4FabTB9/GkQAxT2T4gKKXBthW6QHASfEDw6rDBO6S6QOP9vj+XdarBdl/IQCHO
tkBMXcLB4wquQEV5bb9DxafBHw/OQJLfmb+rca/BaxPLQKN+VEA8jZ3BAKmDQEUOZ0DkSprBftSx
QF6dPUCbiqfB68q2QMLugEBD9YrBS7yYQD3dD8DYcJjBWadxQJHPVsCRA5XBPNetQIWm4EDOJNHB
fzatQBBHckC6SZbBRjGFQOBKSUD2GKTB9gc8QKHKd0BczpTBO3HxQNrmSUBs8pvBNFCVQCZp/b+G
16PBfi7RQDHa00A+c8rB7lPXQDWkHsDfJbLBq/91QI9vYsBSPIrBjwiCQPkgkcBN85nBtGK2QO0I
BEFbJdXBACKpQNCdxEAgYNnB8wyAQKtaWUCuULnBmjP3QH5ElUDOJKvBv6HsQPFT/T9SybXBbdKL
QDDlnkB8aMjBs78BQRc4xkAyYLrB6Vz9QL/qwb52KLrBwF+NQILSJT+MGJ/BM9yZQEShjEAt44bB
XWvBQETlRUD2MIfBRErQQAUPmUC0TYrBTZaRQO7Oqb8B+pPBMIW5QM7fJMA3m5bBSR8xQLZMQcAZ
SJfBlIOQQOOI4UAtSMzBaSJXQJpVPEBkm6jBDYsDQJ0sbUAkU5jBfTg+QEI9h0CjVI3B/tWcQHGU
gUAQzLnBcsHgQEb+lkCz17HBbXDSQF8+iT9L/LLBGMajQFpUnkAKSsLBJMXnQKVos0CWWbrBN1Ta
QJqFmr6Nf7TBxdinQH4yCD9xOaPBgNG6QPdSfED+WrHBdCq4QAUkwD8NcarBy1bJQBvet0DAi8LB
Te6wQKb6Vr9TX6TB08PJQIlPob/eR63BxTHLQHhSVkB4753BG+CDQH+hZEBTZJrBU6mxQPOMP0Dd
66fBr2u3QFnbgEDgPYvBs1CMQPzzMcCJsZzB7zd+QFi/VMDedZHBDvauQEu44kBwINHBy3CtQF0p
c0C6kpbBESeFQGVATkDXgKTBfP48QF62a0DhepTBkHvxQMKZSkAVVZzBHQGpQNv90r9DfZvBRj/S
QMZw1UCxfcrBeHLUQADOI8Depa7BaZRMQN0QG8C2JIzBekKiQAJRZcAyXIvBAwe4QI72BEEyLtXB
mpSpQLSbxkCGUNnBFWOAQCfrW0D1uLnBCnn4QKX+k0BkmqvBWXLgQCIL5j/cWLjBFXOMQCb5oEBm
ocjBr20CQbQLxkAJmrrBej3tQNOFIL/jPrvBfuOTQNUNWz/EqZzBwZiaQPQ6jEAgEYfBOVDCQKV3
RUDcl4fBtdfQQGMOmUCzkorBHJycQAjgZMDHM6HB6gZfQOeYHcDqEKHBr/pZQH8WiMA9x5LBUcqR
QFon5ED3NszBFAZXQLELSED1OanBfH0EQGBsX0CS6JfB35U/QMEbfUC7yYzBey2dQMJFgUDKwbnB
/5DgQJTTl0DasrHB0NPSQHbHij8JALPB6AukQKrHnUAVSsLBZH7nQPsQtEARP7rBKbvaQFJglL6G
iLTB56SnQArWCT+jXaPBAvq6QDnnfEB0RLHBsGq4QNFRwT/eeKrBNEnJQDvCt0CphMLB45WwQLcn
Vb8Oi6TBQwbKQEIYoL/qWq3BlVbLQOWaVkDw2Z3BFOqDQFJjZEA+XJrBkPKxQEv8P0AZ3qfB8Ta3
QIJrgEAaIovB+m2OQNP7NMCd65zBDliFQGnAWMBxhpHB01yuQD8G40Dj9NDBFWqtQAmYckCtepbB
TmOFQPFlTkAMe6TBRcI8QKvJa0CqhJTB5LLxQEDdS0B6QJzBwB6oQHzK0L9Gp5vBICjSQFyn1EBm
ncrB9H/VQL7iIsCwm67Bui5pQExllMB5GZLBEwNTQN1eJcAvHYzB1DOSQN4c+UCfv8rBjEi9QPhK
/UD4u9jBsOyAQOu9WkA/r7nB1w74QBNilUAcZKvB4ezgQCXL5z8SVbjBx+qMQHzpn0Dhr8jBhSYC
QVgjx0CKeLrBLcPtQPDpHL8aRLvBlmWTQNEYXD9P2pzBej+aQM9xi0Av9obBhFfCQCOjRECRhIfB
L2nQQBbVmECVaorBAP2fQB+xZMDRrKHBeUZgQPRBJcDP8qDBWiKkQLDFWsCYRI3BdYWeQOYGx0CF
h9TBdqdXQIhGSECBO6nBaWIEQC4PYECWApjB2P0+QGXafEAb0IzBw+KaQB/9gUAQHbnB5LXeQPvM
l0D/K7HBUPjXQC/0nz8eJrPBLX6iQPJ8nUCO1cHBm2XmQC/vskCV6LnBqC7jQFEpgL0s2rXBlW6p
QCG2yj6K8qTBga24QL0ffkBtnLDBvma6QMUbwD/n06rBOGnIQLxrtkDWO8LBMJi1QNuecb9VhafB
lznSQB73kr+UHrDBCnzKQEprUkBueJ3BnjyDQJIvZ0C4L5rBv/CwQJ8qPUDFeafBieS2QGHOgUBA
9YrBUs6HQIUn+b+grpnBpUaBQIlWUcCnc5PBEGuuQGA34kCDstDBXOesQP/WcEDzMJbBzmOEQJCD
RkC926PBqMU7QLc4fEDyzpTBOfHwQPJGSEAX9pvBm6SoQFGcBcBA2qHBPQXSQJlI0kB2gsrBsnPe
QKGgGcDC07LBB3xGQNA5RcBGt4vBFVqmQKpMasCcqY7BQmySQDWl90CsTMrBmsC9QKO2/UBRKdjB
UBt8QCznXUDL6LjBnPv1QJi3lUBBzqrBHQTmQLPqBEAKdLfBjGSLQKObn0AcPcjB8tEBQWZOxUDp
O7rB1Qb5QH58d75wZLzBBjCTQEw6Ez8Ffp7BaPGZQF50jUDh4obB3kjCQOYGSUDk/obBv/LPQGN7
mkDRkorBpfBSQH321L+zh53B43uRQLxPlL+XCZTB1v9sQCYZgcCmL5nBC0eeQIkXx0C8l9TBfUpV
QChKNkDCJ6jBUPwCQK2tckDJTJjBI64+QOV3ikAccI3BiDHgQGZkl0AfY7HBAhudQCahf0CxY7nB
rtPaQGmBkz9X7LHBOK/mQOqTs0Da/bnBCo+jQEwwnECA+sHBrrbjQDyzQr61VLTB1galQI7d2T7p
8KTBiOK6QNIse0CL37DBQNm6QCtdvT+EXqrBflbIQLzItkBnQcLBQmitQA4Pbr+AfqfB8PLMQBLp
nL/pPq/BskzLQF0AU0A5aJ3BkaGDQLZwZEBtUZrBUnmyQBDtPECLf6fBFim2QHpYgUBT6orBDqea
QCmaEcDII5jBgxN4QHw7WsAUh5TBthSsQF3r4UCTl9DBGo2sQPu9Y0Bju5XBVKeFQDXbSEDYNKTB
kuE7QBBFe0DkNpXBBPzxQHwSTUAE6pvBtDmUQHqe+r8kYaPBknLQQILr00CnXsrBNHXVQPuHIMBW
7rHByHGFQPkYcsC4UYrBHPV/QEvdj8CPA5vB/H2PQNbF9kBsPcrBYvi5QOI8/UDCRNjBNtP3QC9Y
lUCBGqvB0yKBQEoJV0DXSrnBy4HsQHYy+D973LXBZ6IBQRn5xkCkQrrBymyMQM+6nUDCYsjBfS38
QM1e3L5/H7rBLN2NQFnlKT980Z7BBimYQE9ohUDybIbBqafKQK/3U0BnyIbBgeLGQF5AoEAAbYvB
P2KUQBQ5sL//TpPBDfG7QL9UJsDO7ZbBomg2QOkPQcBG7pTBuuCcQBnOxUBsR9TBF4tYQM9+PUDf
3ajBohwEQD8kd0DhGpnBLkU9QALvh0BdpI3BCzWcQBRmgECxWbnBQzrfQBmwl0B9RLHBX0HZQGXH
mD/Yg7LBPkajQAxknEARAsLBAljmQGNjs0Ci7rnBxIzjQHT4Br6nCrXBjMinQL0Kyj6ntaTBZb+5
QNoofECBxrDBi566QBlCvT+gharBsWPIQN+GtkC6RsLBkE6yQNkwdb9LQafBeRTQQIkamb//i6/B
NNrKQIMQUkCcb53BXGyDQM++ZEDZOZrBRp2xQPqEPEAhfKfBzqu2QN+kgkDeCovBqrWOQKrF+b9V
k5fBTWx6QHCbU8CiM5PBe0OtQNAp4kBZr9DBT3ysQC/vY0Cmt5XBq+iEQA4OR0D+CKTBV1M8QMTu
fUDUGJXBZ5XxQGLgS0DgCJzBB3CgQA+qBcDITaLBJyzRQFdi00BqaMrBIt7aQK6gHcDHMrLBMIWc
QA5cgcC1c47B8iRXQLVggcCkOZvB6lKPQKH19EBzUcrBiqy7QK+s/0CNx9fBoup/QHr8WEBEQLnB
UYj2QCPXlUB956rBhNToQGA1AEDBs7bB8FuMQOL1nUC7dsjBnZEBQYN5xkAwL7rBsp/6QNP0rL5a
QrvBfWaRQHIRGj+wVp7BPe6YQBb6hkAhdobB7pbLQK65V0A814bBNiTHQKeYoUBz0ovBvsRoQORf
nL9VzZfBe/WnQIRNy7/yLJLB19tIQITxQ8BURI3ByTKfQK7CxkDI8dTBmZ5WQKSDOUDyhqjBaCcE
QKkDekBH5pjBjb0+QJkCikA3mI3BcLjhQNqWlkD+1LHBViGfQEQcfUD7BLrBZ8rYQNwjfj9mI7HB
0XvnQFz7s0CZMrrBPLqkQFhTnECUV8LBaozfQDHuyL40UbLBSp2gQDSzBD8mKKTB+OS8QPxOeEDd
f7HBD6i4QK8vuz9KJKrBEuDIQBDUt0BTYcLBuxunQPpgXr8jJ6XB3QHHQLLPqb83b6zBgf3LQNiq
U0DbyZ3BVymEQKTAYUDYiprB0hmzQJTCPUBE5qfBmoC2QEYveUAP64rBIJ6bQE4TPMBZ9JrBVW59
QPKPXMAst5HBuTWsQAjF4kDPrtDBQCitQNqbYEAWAZbBK46GQKh1UEAqyaTBxiA8QB55b0CgIJXB
9aDyQDroTEBbRpzBPV+LQO2U17+jOZ/BrwXQQNYN10CsCcrBNBHOQKQpKcAQKa7By8FzQOKmH8Bq
BIrBpM+QQLl+kcAsMo3BvAyzQBppBUFJfNTBm9aoQJIhx0AtCtnBf4f5QKcYlEC2mavBsd2DQK2k
UkDkILrBOCjsQEjb2D8olLXBkd8BQbzcx0CCWbrB3XmNQAZDnkBIt8jBRsv3QPn1Pr9PybfB0IuI
QH1dYD9oqJ7BUmCYQNw4f0ABbobB26zKQOPmR0BHK4fBdnnHQNJtm0D914rBp0O8QEkcMsCq6JfB
zzecQGRBbMB7XqHBPdk+QGINbcDNLZXBE9eOQJv74UAR1svB2zpbQFwCUEA+zKnBqHQEQOBqbEAW
DpnBPNU8QEdtfEAkS43B63ubQIwjgkAHZLnBwfrfQDnXlkBpp7HBcj7WQPM+mD9v4bLBgLuiQKQn
nkC/CcLBMFDnQBR+skDEUbrB4FrgQA5NEL6PPrXBtIKoQH7H2z48JqTBiqG5QLg/fUBe+rDBmoO5
QFKavz8RgqrByM3IQAvhtkC7gcLBlrqzQNLWbb+GXqbBCTTPQNcPmL9eG6/BZtbKQEZbVUAmr53B
7KGDQBanZkAMN5rBlzexQCZjPkBAnqfBzXO3QNEWg0B2L4vBWGWDQCuH/L+7F5nBdl+CQCihTMBM
a5HBYPWuQHQX4UD7TtHB/VGtQI7NdECTcZbB9MSEQH5ZSkBuF6TBCXw8QAY/c0BMdZTBPSXxQKqs
SUCVGpzBc8qoQGB+AsBgA6DBiCDSQMiM00BWpcrBulbaQLZgHcAxh7HB82N9QEzTi8CN45bBIz1B
QBY0RcBym4rB+n+4QKgIBEH8cNXBRSypQF3ZxECRc9nBAUB9QH1JXkB4LbnBTMn3QLH2k0CobqvB
JIDkQJxW/j8KfbfBYDmLQD/UoED9VcjBTlwCQYiVxEAJsrrBcYL1QESVur6q1rvBQweTQB4RJz8U
n53BosiaQBxXj0CTGYfBnwjCQDi2SkDHSYfBUiXRQHYUm0CzuorBapJMQON9/L9OCp7B4ayEQFUd
hr+oV5TBWnygQIUhTMDS3IzBn9ORQNoK40CnZMzBLvVVQHyPPkCel6jBqdADQL6OZkAT0pfBFTY/
QHGChEBv8YzB

> <OMEGA_E>
MClWPlATdj6AJHc+kGJ5PiC0fT4wRoQ+kFOJPiCnST4=

> <OMEGA_NBR>
     79339

$$$$
50168770
  -OEChem-04172616093D

 49 51  0     1  0  0  0  0  0999 V2000
    4.7728   -1.7215  -20.1419 C   0  0  0  0  0  0  0  0  0  0  0  0
    4.1256   -2.4328  -19.4045 C   0  0  0  0  0  0  0  0  0  0  0  0
    7.0358   -0.0617  -22.6370 C   0  0  0  0  0  0  0  0  0  0  0  0
    6.3822   -1.0851  -21.9204 C   0  0  0  0  0  0  0  0  0  0  0  0
    6.7632    1.2911  -22.3483 C   0  0  0  0  0  0  0  0  0  0  0  0
    4.8832    4.0996  -23.1575 C   0  0  0  0  0  0  0  0  0  0  0  0
    7.0187    4.7841  -22.1922 C   0  0  0  0  0  0  0  0  0  0  0  0
    5.1214    4.9181  -24.2707 C   0  0  0  0  0  0  0  0  0  0  0  0
    7.2630    5.5892  -23.3145 C   0  0  0  0  0  0  0  0  0  0  0  0
    5.1808    0.5996  -20.6326 C   0  0  0  0  0  0  0  0  0  0  0  0
    5.4553   -0.7436  -20.9159 C   0  0  0  0  0  0  0  0  0  0  0  0
    5.8180    4.0411  -22.0975 C   0  0  0  0  0  0  0  0  0  0  0  0
    5.8114    1.6318  -21.3521 C   0  0  0  0  0  0  0  0  0  0  0  0
    6.3162    5.6754  -24.3508 C   0  0  0  0  0  0  0  0  0  0  0  0
    6.3448    3.3822  -19.6726 C   0  0  0  0  0  0  0  0  0  0  0  0
    4.1045    3.5264  -19.2231 C   0  0  0  0  0  0  0  0  0  0  0  0
    5.5564    3.0824  -20.9391 C   0  0  1  0  0  0  0  0  0  0  0  0
    4.1073   -4.3885  -17.9282 C   0  0  0  0  0  0  0  0  0  0  0  0
    5.6958    3.8439  -17.2851 C   0  0  0  0  0  0  0  0  0  0  0  0
    3.3147   -3.1911  -18.4616 C   0  0  1  0  0  0  0  0  0  0  0  0
    5.4733    7.0799  -26.0916 C   0  0  0  0  0  0  0  0  0  0  0  0
    5.3983    3.7195  -18.7177 N   0  0  0  0  0  0  0  0  0  0  0  0
    4.1582    3.2786  -20.5099 N   0  3  0  0  0  0  0  0  0  0  0  0
    2.9276    3.5787  -18.4907 N   0  0  0  0  0  0  0  0  0  0  0  0
    7.5407    3.1892  -19.4785 O   0  0  0  0  0  0  0  0  0  0  0  0
    2.9627   -2.3395  -17.3717 O   0  0  0  0  0  0  0  0  0  0  0  0
    6.6075    6.5057  -25.4139 O   0  0  0  0  0  0  0  0  0  0  0  0
    5.8255    8.3059  -26.5479 F   0  0  0  0  0  0  0  0  0  0  0  0
    5.1100    6.2944  -27.1395 F   0  0  0  0  0  0  0  0  0  0  0  0
    7.7473   -0.3148  -23.4092 H   0  0  0  0  0  0  0  0  0  0  0  0
    6.5903   -2.1220  -22.1397 H   0  0  0  0  0  0  0  0  0  0  0  0
    7.2805    2.0711  -22.8872 H   0  0  0  0  0  0  0  0  0  0  0  0
    3.9798    3.5097  -23.1090 H   0  0  0  0  0  0  0  0  0  0  0  0
    7.7489    4.7311  -21.3982 H   0  0  0  0  0  0  0  0  0  0  0  0
    4.3940    4.9714  -25.0672 H   0  0  0  0  0  0  0  0  0  0  0  0
    8.1852    6.1471  -23.3833 H   0  0  0  0  0  0  0  0  0  0  0  0
    4.4763    0.8468  -19.8522 H   0  0  0  0  0  0  0  0  0  0  0  0
    3.4857   -4.9533  -17.2178 H   0  0  0  0  0  0  0  0  0  0  0  0
    4.3923   -5.0419  -18.7660 H   0  0  0  0  0  0  0  0  0  0  0  0
    5.0135   -4.0302  -17.4179 H   0  0  0  0  0  0  0  0  0  0  0  0
    4.7796    4.1196  -16.7424 H   0  0  0  0  0  0  0  0  0  0  0  0
    6.0724    2.8831  -16.9042 H   0  0  0  0  0  0  0  0  0  0  0  0
    6.4587    4.6221  -17.1354 H   0  0  0  0  0  0  0  0  0  0  0  0
    2.4083   -3.5612  -18.9631 H   0  0  0  0  0  0  0  0  0  0  0  0
    4.6399    7.1667  -25.3789 H   0  0  0  0  0  0  0  0  0  0  0  0
    3.3635    3.2295  -21.1150 H   0  0  0  0  0  0  0  0  0  0  0  0
    2.0497    3.4221  -18.9432 H   0  0  0  0  0  0  0  0  0  0  0  0
    2.9571    3.7729  -17.5102 H   0  0  0  0  0  0  0  0  0  0  0  0
    2.4329   -2.8236  -16.7492 H   0  0  0  0  0  0  0  0  0  0  0  0
  1  2  3  0  0  0  0
  1 11  1  0  0  0  0
  2 20  1  0  0  0  0
  3  4  2  0  0  0  0
  3  5  1  0  0  0  0
  4 11  1  0  0  0  0
  5 13  2  0  0  0  0
  6  8  2  0  0  0  0
  6 12  1  0  0  0  0
  7  9  1  0  0  0  0
  7 12  2  0  0  0  0
  8 14  1  0  0  0  0
  9 14  2  0  0  0  0
 10 11  2  0  0  0  0
 10 13  1  0  0  0  0
 12 17  1  0  0  0  0
 13 17  1  0  0  0  0
 14 27  1  0  0  0  0
 15 17  1  0  0  0  0
 15 22  1  0  0  0  0
 15 25  2  0  0  0  0
 16 22  1  0  0  0  0
 16 23  2  0  0  0  0
 16 24  1  0  0  0  0
 17 23  1  0  0  0  0
 18 20  1  0  0  0  0
 19 22  1  0  0  0  0
 20 26  1  0  0  0  0
 21 27  1  0  0  0  0
 21 28  1  0  0  0  0
 21 29  1  0  0  0  0
  3 30  1  0  0  0  0
  4 31  1  0  0  0  0
  5 32  1  0  0  0  0
  6 33  1  0  0  0  0
  7 34  1  0  0  0  0
  8 35  1  0  0  0  0
  9 36  1  0  0  0  0
 10 37  1  0  0  0  0
 18 38  1  0  0  0  0
 18 39  1  0  0  0  0
 18 40  1  0  0  0  0
 19 41  1  0  0  0  0
 19 42  1  0  0  0  0
 19 43  1  0  0  0  0
 20 44  1  0  0  0  0
 21 45  1  0  0  0  0
 23 46  1  0  0  0  0
 24 47  1  0  0  0  0
 24 48  1  0  0  0  0
 26 49  1  0  0  0  0
M  CHG  1  23   1
M  END
> <OMEGA_C>
obqYQC9b3L+dIqHB7ASEQEiyG8BRPJvBfCXhQBLhfL2gGLXBGTvMQOflir8RXa/BJmzYQHJDpT9Z
ybLB6EKcQKYvg0B9QrnBZZngQIQXmUCcibHBYuKjQEthnUBrKsLBymroQKjaskAVhLrB2cilQFB/
GT+SD6XBJZKuQIFePr/PU6fB5iy6QNNQgUC3x7DB8va5QGXe0D8F0arBfR7KQM6ctUBrzsLBswjL
QMl1WECHYZ3BdliDQDuwYUD+yJnBts2xQEpGRUBUg6fB/G6DQEJujMD3bI/BO0S2QEACdkDtR4rB
bCNUQEo7TMBCsZPBqyWvQDGO4kCLu9DB1L6sQOsLbkDGvZXBARCFQCLUUUBPFKTBBV47QAIJZUD+
7JPBg03xQI4cTED005vB0pw9QJC5FcAq+YrB4nDTQGcu0ECRT8vB0Gq6QObkBEEHYtTBMYWjQP5r
yUCmHdnBg+n3QKQwob79RbvB9OPSQDLOB8A1HrHBLvroQIKMBEANGbfBvLR+QO2eYEAv37jB5fb3
QD5ll0B6L6vBnZuMQKEVn0C5icjBofYCQfe0xEATEbvBkD2PQLPIWD9l0Z7B7BVfQC6BnsAivonB
l42MQB5XocCrIJbBzm6gQBX3gMDwV4vBtvKYQOjTg0Bu8IXBI1HCQP2EOEDFO4fBD67OQOvnk0Bl
FYnBcCEaQNHqY8BhtJfBL3qUQOBV5UAUCMvBQkRXQKCvTkB666jBhS4DQKQDW0DCi5fBCEE9QAB4
cUDrFIzBLrUbQB+1NMBO/oXBnCmZQN7i378sXKDBTYuEQPa6G8CAPJrBpR/gQA5vG749A7XB1IbL
QA1jlL8eBK/BLPLXQOG4mj9B1rLBMRXhQE4gl0B4sbHBeGucQLTTgUCAUbnBgSzoQKgmskDldLrB
JoajQPL5nEAPFMLBPqOmQN0gDj/3sqTB49KuQCxFS7/P06bBT6m6QIrBfkAR67DBRFy6QAYbyT/3
uqrBGmjJQCfqtUCimcLBxUzLQPsRVkBrdp3BjmSDQFesYEAJ/pnBbkiyQBbEQUAym6fBCFGEQOly
isBjyI3Ba0+2QMIOfUBamYrBsl1VQFYxSsBKdpLB4iuvQMZC3kAJpdHBl6usQE62YkAXnZXBMm6F
QLgOTkBZNqTBuQE7QKE4bUCRbpTBf+bxQGgpTkAK/JvB/v09QJc0EcBEB4rBblLSQP8y0kA7z8rB
v0+QQOfm8kDh8MvBWHO+QFEs+UAiO9nB0jn2QIyr2L43SrvB37TRQBrfDMASsLDBeT3oQBbu/D/5
WbfBfAr5QFlolEDkgKvBpV1/QHtZXUAt/LjB2sUCQZxAxEBV9brBnCeMQOjknkDxbMjBut2QQBMy
Uj/KVZ7B+gJhQFm8m8CK7ofB07ONQHJfoMBWQZTBuSmhQF8hfMBEzYnBtVmYQN03gUBUB4bBtCnL
QMsSTUC80YbBD6fGQOuznUAusorBRrcbQLu5Y8BoYJbBx9uhQDJRwUANY9XBwyJYQB/kSEApDKnB
nOECQD41aECZOZjBSH48QC1Ie0AsoYzB2zocQFTwLsCE6oTBNyqaQMJ65b8BRaHBzmeFQCfUH8DT
U5vBk+XhQA4s6739VLXBR0HNQKaokr+/m6/BXCXZQJU9nj/Z7rLBemrgQNXGl0Dlb7HBshucQMjQ
gUAhGrnB6nXnQA+nskCGP7rBcBSjQMnnnED238HByzCnQEHhBj8hHaXBaumvQOssUL8CeafBzEa6
QBwif0B9sbDBk/i6QNtvyD9J36rBvt7IQGQGtkC+dcLBqR3LQKjTU0C+S53BbVKDQNm8YEB895nB
CU6yQKCpQEAngafBZRqFQABgjcA3KI/B2dO1QNC+eEDOaIrBIchWQB68T8CpupPBBDCvQOJY4UAK
X9HBbFSsQBOLXkBvb5XBjF6FQNUqS0CkF6TBuDw7QLS7c0AknpTB+83xQA+WTUDD15vBsXY+QAsQ
GMBtM4vBTTnSQPwH0kARxsrBgTWhQN8QwkC7FNjBxleOQLVv8ECPRMvB6nj4QNXFuL4ZkrvBjeLT
QJONC8A+crHB9HPpQPRfAUD7PbfBETT4QHONlUCvMavBa+9+QEAKXUBpxLjBI1oCQaT3xEDfu7rB
TKGLQOWqnkDQNMjBY/aQQBFtRD+hyJ7B9V5iQMU5n8Cib4nB++aOQD7BosBhtJXBYLOhQIgVgcBK
DIvBDeKXQON9fECwzoXBtknLQEOLSUBOsIbB+XDFQFvrm0AmeIrBs5cdQI0NacDixJfB26a7QALp
+0B+O9bBj/RXQMf0QkAC2qjBI1gDQOFqcUAKgZjB/sE8QHTfgUDg34zBQHocQC+vNsDeMYbB+ISa
QDyt2b+15J/Bxh2JQK9AF8B4DJnBW5feQHuRCr7pOrXBeQXKQNynkb9sLq/Bee3WQH8JnT/B/rLB
VxOdQPLLgUAcUrnBG2rhQCXGl0D7oLHBuj2kQA2GnECLI8LB1r7oQKErskD8grrBWoGlQCafFT8v
3qTBNLOtQIF2Q7+28KbBjga7QLb4f0Dq2bDBtIy5QL00zD/F2arBsw7KQPh+tUBbssLBcE/LQDiH
VUDrVJ3BMmKDQLjpXkAD3ZnBRFmyQJ4wQ0Ayj6fBIJFHQNXKjcAVmZTBPPW1QI7CdkCbUIrBxkxn
QO4URcAQdZDBdleuQKR230B1LdHBWY+sQERSXkB5aZXBqpOFQHbcUEBXMaTBAbw6QAHvaUCwTpTB
WwfyQLudT0CW55vB7NWQQBcfUsD43IfBdovSQAHK0UDz6srBCU62QIasA0F/6tTB9YOoQNdJxECO
itnBL0P0QGt90r6olrvBM+zPQFacC8C/2bDBznPnQAzX/j/YfbfBCnqAQJDgXEAO/bjBPiD5QO+Y
lUDiXavBtPWMQCobnkAQg8jBexoDQQ0ZxEB2ErvBeHGPQPGOWj92k57BzhwnQAMZn8DJGI7BJHIa
QL2iiMCPOpvBYVR+QBG/oMDscpfB/QGYQMgaeUBfs4XBYqjLQBZWR0A+uobB+ELFQHITm0C/M4rB
G9cvQELSH8A8r43BR7uRQH+w30AkDczBT7tYQJOUT0D9HanBd9cCQMlaZ0DuMJjBj807QIp1dEDd
aozBU92CQFsMcMCoPoLB/5yaQF3T1b/43Z/BnPaHQD+gFcATQpnBNRrfQHLVz71IJLXB99HKQHh3
jb8kCq/BLA7XQKtMoT+y+LLBKqPhQP+pl0BvxrHB+C6cQIisg0CNMrnBbTHpQLzKsUBus7rBTpSj
QMQmnkChDMLBj+qlQLRzHT/DyaTBK2yuQM50O7/uzabB5qm6QDzugECU3LDBO565QJYp0D+b1KrB
Qi7KQDy9tUAfzMLBxjLLQN0fWEC8Z53BSmuDQAdvYUAE3pnBJw+yQPMYRUAYk6fBScVWQMLkkMBY
n5TBKwu2QIyMc0BTQ4rBv8FgQOSERMArG5HBhciuQNgB40Avn9DBqsSsQJ/PbEAawJXBaE6FQDt7
UkCTLaTB/TQ7QFucZECuEZTBq3jxQPEOTECU05vBGNqGQNXJQMDhMYfBEzfTQFXO0EDpOMvBvPK5
QBAWBUEJVNTBzQ+jQAuxyUDb9tjB79b0QPGUwL46fbvBHv7QQK59CcCmqbDBlFLnQPShAUA1g7fB
VJz5QMXllEAil6vBrAZ+QGl3YkA4vLjBfYUDQfMBw0DJXLvBg9uLQGSVoECXTcjB9N2PQPAlYj+q
fZ7BMSQzQIC7osAqe47BzpczQBQjksAdPZzBUDSLQHtXn8CsrZXBdp+YQKVTgkA47oXBQRHCQA3D
NUDpTYfBjGbOQBKjkkDg8ojBSaMgQGxpKMAULpDBBTaUQJLZ5UDw5MrBofJXQOptUEApD6nBuS0D
QNwvW0B3wJfBubY8QCxTcEDbNIzBY7RuQHh2X8A15oHB6weZQH2V3L/bW6DBdnuEQEjpGcBvNJrB
HovgQIyS/L2j2rTBcO3LQILPkL864K7B+OXXQC41nj9Rw7LBrTycQEibgkDGVrnBdAzhQHqGl0Ac
w7HBH2qjQOCdnUCxHMLBtFvoQM85skCCl7rBXOilQDHjFD++x6TBrpquQPxrRL+90qbBpHe6QEoU
gECc9LDBPda5QHWBzD8dw6rBgZjJQMsktkBuwMLB3hzLQPjCV0C2h53BYHaDQK3EYkDD+5nBoeWx
QDGAQ0D4oafBKHSCQNUDjMACk47BU2m2QFoyeUAgiIrBjHhVQFDRR8BVXZLBnIuwQKPv4EAx1tHB
UOSsQH9nb0CH+JXBSyiFQJG1UECoOKTBjZY7QE/iZ0B5JZTBVUzxQDDdSkC965vB0GJGQN0CEcCn
bInBLT3TQOMF0kC5EsvBJTGiQPsFwUD6T9jByuCPQBVJ8UAE4svByAT3QN9cyb5ODbvBqY7SQI8N
C8DOdLDBgTXoQBtCAEDhQ7fBWtB+QJ4zX0A6/LjBOPT4QCbblEDtjqvBi9WLQFPIn0DAZ8jBFvcC
QZz6w0BhIrvBQ5qPQM6WWD9ph57Bpn1dQBkWncCWqYjB1qSIQHsVocCsc5XBDwahQLSwgsD/4orB
qS2ZQKwkhkDxP4bBahjCQO3+O0AzT4fBsBrPQMJRlUBHd4nB11kYQIFDW8AV/pXBYne9QESu+kD9
5NbBYWlXQNN6TECfCqnBP1sDQIl+XUAxvZfBLYM9QCX2dUCUWIzBstEkQBVcLsDwQYTB5R6cQMl+
1r8qqZ/Bg+KKQOtSFsA325jBSr7fQJZM0719CbXB/qTLQP+6jb9R6a7BBUfXQCvroD+c77LB7kvh
QOm7l0AUxrHBs0acQBYDg0CvR7nBja3oQAETskB9q7rB6oqjQDqXnUCPHcLBkA6mQKQfHD/+xaTB
Rv6uQLl5PL/+uqbBs426QOShgEAr6LDBq5+5QIyEzz+T1qrBddXJQBbitUDN0cLBBiPLQNIKWECV
dp3BCmqDQEh/YkDS7pnBxfOxQB64REDzm6fBPLVLQO68jcDgvZTBZSW2QMIRd0A/Z4rBmhFrQLSL
RcBnX5DBhZ2wQCds4EBj69HBxM2sQESQbkAA3pXBzTWFQCccUkDiNaTBFFE7QHBkZkDSHZTB50Px
QMiISkDx15vBxMSSQEbEU8DZ0YfBs27TQOt50UByMsvB/EiiQN2OwEDzadjB1fGPQI+c8EAs78vB
Qan1QEO4wL57WbvB8CXSQGGWCcCuebDBNGTnQO6EAUCGf7fBXD35QLsYlUABlKvBw6h+QMtoYEAd
3bjBGC0DQdefw0DcRbvBEvWLQHedn0ATacjBes+PQN5fYD/Pg57B62ArQCann8CtVY7BmJAeQNEe
iMC+WJvBqFGBQH1VoMArsJfBWdGYQOa2hEC3HIbB8ebBQNiUOUDNSIfBv7rOQFdIlEBxOYnBJngz
QK7zIMCqgY3Bumu9QLNE+kCe9tbBcqZXQIwaT0AZEanBgDgDQJRiXEBGwpfBrPo8QBw1c0ABSIzB
N9uEQGKecsBURYLB0lCdQMq41r9pmZ/BAIyMQHTWFsAfw5jBhprfQCr7u73AKrXBqQzMQOPAjL8s
+a7B1eDWQFofoj8CDrPBSzicQLL2gkDvTLnBD/PgQPsUmECTsbHB8rOjQLtanUCaKMLBm4zoQCY5
skB5nLrBHk2mQHsRHD8fyKTBH5evQIP/O7/Du6bByEi6QIzPgEA04bDBxnO5QHz7zz/Y4qrB4fLJ
QOG7tUC80sLB0v7KQBIUWED9e53BMGSDQL3WYkBB6JnBHLWxQH7ZREDDnKfB2xVOQJHMjcBszJTB
DF62QINKd0Ckb4rBt1BvQPbfRsCMR5DBgKawQLf+4EA2w9HBNtWsQC2Zb0BC5pXBMgOFQAsQUkC1
LaTBfoQ7QFdVZkCgCZTByxrxQP9HSkAZ4JvBn4aVQN1iV8Ag7ofBvp/TQBo40UCKNsvB0pOhQBit
wUBeUdjBLYSQQLM78UBtmsvBtEz1QGuZuL4TirvBTtHSQEsBCcCVh7DBz57mQHpUAkCjqbfBrI9+
QKtGYECa57jB1qr4QEa4lUDxb6vBbFCMQDkrn0DTgMjBlxgDQeXXw0DHLrvByxuQQJ8RXz+Ff57B
ZGouQPwUoMCvZ47B+fMfQHNOh8CgPpvBFQCCQMJ3oMCJ/5fBlEaZQFZahUDwHYbBzILBQLE2OUAA
XIfBaXjPQAzbk0BgPonBwLc4QE4TIsARKo3BroG9QFv4+kCxwdbB3hdXQI2yTkAwAanBbFYDQMW0
W0DMoZfBzXA9QM96c0A+NozBWOCHQD7GdsAxY4LB

> <OMEGA_E>
YIiTPnjqmz7guJw+aKGePrQUnz7s0aA+oO2sPmjerT4=

> <OMEGA_NBR>
     86327

$$$$
50168747
  -OEChem-04172616093D

 52 54  0     1  0  0  0  0  0999 V2000
    4.9277   -1.9065  -20.4855 C   0  0  0  0  0  0  0  0  0  0  0  0
    4.4403   -2.9027  -19.9980 C   0  0  0  0  0  0  0  0  0  0  0  0
    7.1561    0.0482  -22.7398 C   0  0  0  0  0  0  0  0  0  0  0  0
    6.5034   -1.0310  -22.1248 C   0  0  0  0  0  0  0  0  0  0  0  0
    6.8489    1.3633  -22.3553 C   0  0  0  0  0  0  0  0  0  0  0  0
    4.8280    4.1159  -23.0949 C   0  0  0  0  0  0  0  0  0  0  0  0
    6.9841    4.7703  -22.1573 C   0  0  0  0  0  0  0  0  0  0  0  0
    5.0644    4.9339  -24.2111 C   0  0  0  0  0  0  0  0  0  0  0  0
    7.2266    5.5725  -23.2816 C   0  0  0  0  0  0  0  0  0  0  0  0
    5.2419    0.5168  -20.7208 C   0  0  0  0  0  0  0  0  0  0  0  0
    5.5561   -0.7959  -21.1110 C   0  0  0  0  0  0  0  0  0  0  0  0
    5.7780    4.0367  -22.0491 C   0  0  0  0  0  0  0  0  0  0  0  0
    5.8623    1.6124  -21.3657 C   0  0  0  0  0  0  0  0  0  0  0  0
    6.2737    5.6675  -24.3105 C   0  0  0  0  0  0  0  0  0  0  0  0
    6.3379    3.3428  -19.6472 C   0  0  0  0  0  0  0  0  0  0  0  0
    4.0981    3.5738  -19.2243 C   0  0  0  0  0  0  0  0  0  0  0  0
    5.5515    3.0377  -20.9109 C   0  0  1  0  0  0  0  0  0  0  0  0
    5.6872    3.8899  -17.2800 C   0  0  0  0  0  0  0  0  0  0  0  0
    2.6469   -2.5351  -16.3402 C   0  0  0  0  0  0  0  0  0  0  0  0
    3.9064   -4.1371  -19.4366 C   0  0  0  0  0  0  0  0  0  0  0  0
    3.7144   -3.9863  -17.9283 C   0  0  0  0  0  0  0  0  0  0  0  0
    5.4677    7.0417  -26.0990 C   0  0  0  0  0  0  0  0  0  0  0  0
    5.3943    3.7233  -18.7087 N   0  0  0  0  0  0  0  0  0  0  0  0
    4.1529    3.1620  -20.4680 N   0  3  0  0  0  0  0  0  0  0  0  0
    2.9174    3.8099  -18.5365 N   0  0  0  0  0  0  0  0  0  0  0  0
    7.5350    3.1598  -19.4503 O   0  0  0  0  0  0  0  0  0  0  0  0
    6.5838    6.4738  -25.3882 O   0  0  0  0  0  0  0  0  0  0  0  0
    2.6769   -3.0203  -17.6878 O   0  0  0  0  0  0  0  0  0  0  0  0
    5.8776    8.1973  -26.6761 F   0  0  0  0  0  0  0  0  0  0  0  0
    5.0406    6.1874  -27.0660 F   0  0  0  0  0  0  0  0  0  0  0  0
    7.8937   -0.1323  -23.5078 H   0  0  0  0  0  0  0  0  0  0  0  0
    6.7280   -2.0425  -22.4296 H   0  0  0  0  0  0  0  0  0  0  0  0
    7.3672    2.1913  -22.8160 H   0  0  0  0  0  0  0  0  0  0  0  0
    3.9145    3.5429  -23.0340 H   0  0  0  0  0  0  0  0  0  0  0  0
    7.7210    4.7119  -21.3700 H   0  0  0  0  0  0  0  0  0  0  0  0
    4.3245    5.0045  -24.9946 H   0  0  0  0  0  0  0  0  0  0  0  0
    8.1533    6.1219  -23.3576 H   0  0  0  0  0  0  0  0  0  0  0  0
    4.5275    0.6892  -19.9294 H   0  0  0  0  0  0  0  0  0  0  0  0
    4.7725    4.1957  -16.7509 H   0  0  0  0  0  0  0  0  0  0  0  0
    6.0486    2.9369  -16.8664 H   0  0  0  0  0  0  0  0  0  0  0  0
    6.4602    4.6619  -17.1519 H   0  0  0  0  0  0  0  0  0  0  0  0
    1.8324   -1.8039  -16.2312 H   0  0  0  0  0  0  0  0  0  0  0  0
    2.4791   -3.3762  -15.6514 H   0  0  0  0  0  0  0  0  0  0  0  0
    3.6066   -2.0527  -16.1028 H   0  0  0  0  0  0  0  0  0  0  0  0
    2.9373   -4.3615  -19.9063 H   0  0  0  0  0  0  0  0  0  0  0  0
    4.6087   -4.9605  -19.6337 H   0  0  0  0  0  0  0  0  0  0  0  0
    3.4259   -4.9547  -17.4936 H   0  0  0  0  0  0  0  0  0  0  0  0
    4.6530   -3.6431  -17.4686 H   0  0  0  0  0  0  0  0  0  0  0  0
    4.6548    7.2418  -25.3855 H   0  0  0  0  0  0  0  0  0  0  0  0
    3.3554    2.9604  -21.0367 H   0  0  0  0  0  0  0  0  0  0  0  0
    2.0375    3.6665  -18.9896 H   0  0  0  0  0  0  0  0  0  0  0  0
    2.9458    4.1236  -17.5874 H   0  0  0  0  0  0  0  0  0  0  0  0
  1  2  3  0  0  0  0
  1 11  1  0  0  0  0
  2 20  1  0  0  0  0
  3  4  1  0  0  0  0
  3  5  2  0  0  0  0
  4 11  2  0  0  0  0
  5 13  1  0  0  0  0
  6  8  2  0  0  0  0
  6 12  1  0  0  0  0
  7  9  1  0  0  0  0
  7 12  2  0  0  0  0
  8 14  1  0  0  0  0
  9 14  2  0  0  0  0
 10 11  1  0  0  0  0
 10 13  2  0  0  0  0
 12 17  1  0  0  0  0
 13 17  1  0  0  0  0
 14 27  1  0  0  0  0
 15 17  1  0  0  0  0
 15 23  1  0  0  0  0
 15 26  2  0  0  0  0
 16 23  1  0  0  0  0
 16 24  2  0  0  0  0
 16 25  1  0  0  0  0
 17 24  1  0  0  0  0
 18 23  1  0  0  0  0
 19 28  1  0  0  0  0
 20 21  1  0  0  0  0
 21 28  1  0  0  0  0
 22 27  1  0  0  0  0
 22 29  1  0  0  0  0
 22 30  1  0  0  0  0
  3 31  1  0  0  0  0
  4 32  1  0  0  0  0
  5 33  1  0  0  0  0
  6 34  1  0  0  0  0
  7 35  1  0  0  0  0
  8 36  1  0  0  0  0
  9 37  1  0  0  0  0
 10 38  1  0  0  0  0
 18 39  1  0  0  0  0
 18 40  1  0  0  0  0
 18 41  1  0  0  0  0
 19 42  1  0  0  0  0
 19 43  1  0  0  0  0
 19 44  1  0  0  0  0
 20 45  1  0  0  0  0
 20 46  1  0  0  0  0
 21 47  1  0  0  0  0
 21 48  1  0  0  0  0
 22 49  1  0  0  0  0
 24 50  1  0  0  0  0
 25 51  1  0  0  0  0
 25 52  1  0  0  0  0
M  CHG  1  24   1
M  END
> <OMEGA_C>
7a+dQIwH9L9D4qPBIxeOQGnFOcD1+5/Btv7kQBuORT0y67XBnRvQQDP5g7+q/7DBlSrbQEF/rj+/
17LB636aQES1g0BrwrjBhn3fQJKmmEAtQrHBpQ+iQKzinUA+sMHBi0DnQKRRskCwQLrBkL2nQKtM
BD8mxKXBbMuxQEu9S78746jBZeW4QGIsgUB7ZLDBC5i7QD1jzj/b7KrB1cHIQPtbtUD/e8LBeNDK
QMnwVUB6LZ3BkCODQIS4ZEBWy5nBOqaxQL9pQkB9SafBQv21QFX0eEBlPYrBQGcpQKk+IsCmuILB
rwF6QHxjhMA0fpvB1LhtQMMff8AabY/BufeuQFJV4UDUytDB8p2sQDdLbkCCq5XBceSEQJdeSkBh
vqPBk7Y6QNbVc0DCSpTBjh7xQHI6SkBLmpvByK7SQEUpz0D8GsvBkVErQHVMQcC0gI3BIxW8QDMo
A0G9aNXBkEyhQCv/xUAth9jByZj8QLaGB74HELzBAEzXQBe4AsDsb7PB67/rQE4+DEAeh7bB84d6
QMq+YkCxRbjBaBL3QKbHlkCt9arBcWKKQD0loED69MfBGnQCQTLmw0BR3LrBLOGQQMttMD9db5/B
tbiYQJBDhkDQAYbB9Y3BQJL1O0BQ7obBT7rOQCQulUADN4nBdovqP9Dl5r9p2YHBBKkeQCsTWMAq
bHrBJ9NmQDdgA8Cj0oDB2/w7QBiRi8AvQJ/BgHqTQBK8nsDqEZ3BZkJbQBWNnsDV8ovB+eSUQOYn
acCqv4vBZ/SUQKK850B/FcvBlr9WQKd3PUAfS6jBG2cCQJGoakC36pfBuIc8QLz0g0ABs4zBNq+Y
QLYq7L8zgaLBwaOGQLX5L8Al5J3BpG/iQIj9hb1mQrXBi2jMQHYsjb9JCLDBRh/aQAQVoz/wirLB
cnycQGh7gUArTLnBWsbgQG+Dl0DdmbHBNhekQLu6m0AHNsLB/T/oQEzSsUCafbrBa/ylQO6CCT/X
PqXBgW2uQGVcTL+d+qfBfEy6QEmdf0BeyrDBuvC6QLxfyz+Er6rB+MnJQKHwtEDtucLBxRvLQC3Q
V0CoXp3BLWKDQLgAZECR95nB9h+yQFJhQkB8dKfBiiy2QFAwfkBZjYrBxEwjQBYAF8AZioTBXSpk
QOCLd8CIdZjBM22BQLaFfsA9uYzBWKmuQNbr3kBWcNHB5cWsQKQhcUAL8ZXBXUuFQIhNTUA2DqTB
sAs7QO6AbUDATJTB/23xQMDlTECHvJvB1GrSQG5o0UDb7crB5sE9QCg0b8CCToXBG46OQPVi70Ct
UsvBx5u8QPUI/kCfI9jBCr/5QI1MmL60XLvBSHfSQAZqCMBJMLLBy5DrQENUBEA7dbbBol1/QOvg
XECJ7rjBAXz4QBRRlUDDVqvB1jeNQEy7nEDrrsjB6dQCQUfYw0DmA7vBsmOPQCYQQz/c9Z7B+9mY
QFsLiUD8XYbBRgXCQDEPQkAREIfBHbXOQH4ZmECxsInByFbdP9FtEcATeX3BsKNZQKdG379I4IHB
j2sNQDShAMAgbIzB3m0eQKDubcC/jZjB3P9zQA2ZmcB7sZzBOUOOQKqTn8DYWovBHsWaQA3yTsCx
VYvByOeiQAxXw0ChDNbB67dXQJ+bREBnyajBresCQCrZYkAE6JfBh5M8QEwCf0B1m4zBisueQOIC
9r/kX6PBnTCOQEDQOcCmf5/BQmTlQBBAlDx+qLXByofRQOFph7/BcbDBWq/aQJ79qj9R3LLB1Smb
QOP9gUAxDbnB5ybfQDNomEB9SrHBj9aiQC0snEAo+8HBSsjmQOF+skA/N7rB60uoQGATAD/8faXB
kRazQBrdUL8LYqjBo+a4QIBTgEAtibDB8G27QPK1yz+u4KrBirfIQMk3tUCQjsLBVrDKQEWUVUCj
TJ3BEyCDQIiHZUBW5ZnBumqxQA9gQUCWXafBfUq2QI00fEAodIrBtUwsQAn+FcDfaILBQpl1QHMv
g8De8JrBDGJoQBLtecAE7o7Bb2iwQImc3kCd+NHBGrCsQFLNb0CF2JXBk7CEQJLZSUBwzKPBwfU6
QAdZdUBaXJTBruvwQC0HSUC6tpvBqaTSQHTI0EBz7crBkHIuQH2QM8DaQI3BbdakQB52vkCOs9jB
iOiNQA/47EAAWMzBieT8QOIPK75F0bvBR5zZQL2eBMB+nrLBA1vqQNZcCkBt0LbBUap8QA77XUDW
r7jBTZf2QJaslkDf9KrB696LQE5FnUBrbsjByAsCQbu1xEBTsLrB2G+RQM2TLT+PK5/BLzCZQBqK
iEA9P4bBFZrBQKmNP0Ck/obBdErPQOSilkAalYnBqdT9PynnwL8ruoHBFdEXQEyASsACRnrBcohs
QI1TAMAFCYDBTmw3QOkMicCbzJ7BE/yPQDrEnsB8TJzBOCpNQPlHmsDzcYvBPhOTQFLUa8C/F4vB
xe28QGdF+UA5ytbBpDBWQHpjPEC9S6jBrXUCQMKsa0As65fBTS09QHU2hUDoz4zBkvi0QKMG778g
5p3BcuquQFIkLsBOLJfBJljQQBGiRb5ZzLfBC9HJQJ1smb9TGbDBUBHJQDUTlD9OKrXBTSCZQCZV
iEAgDLjBov/jQHzUjkCKxbLBRIWgQOgDpECNscDBjl/rQItzqkCEcLvBGq+0QDrO/T6REKPBYe+7
QM9HWr+WvKXBC226QKIGfUALxrDBcze7QNQowj9At6rBh7DJQGTntUB3WMLBAjbLQOmcV0AaeZ3B
FmGDQOxvZUCbHZrB4jmyQDplPkCthKfBppK2QHr2hUCLEovBmO8BQQ8WmMBn+ojBW7ynQCFTb8AN
/I7By67DQACiXcBnB4XBmO+uQLN46kD/ss7BwtqsQF3ldEBgPJbBjlOFQEXbRUBb3KPB9OM6QJ7C
dEDLn5TBuc/xQE0oUUBo4ZvBK7DSQIFJ0kBNi8rBJ+/wQAqJXMAdmofB4xG+QAudB0FAD9PBF1Sa
QG6o00BSZ9bBh/XaQOf86b6mvr/B5G7PQP30DsBJILLBBQnOQINE9j9mHrvBRptzQDrYdECK77bB
CjD+QJ7zhUDflq3BzbuGQO65q0D9HMbBSI0FQcP9tkDs0LzBDwuqQJSgQD/sGpvB6huZQBCQkEBt
DYfB7qTDQIXRU0Bg4YbBrzzOQC0EoEDi8YrBrwUTQS6XlMA65orBly8AQXKOqsDIiYHBIJzzQBr2
qMBTi4/BfM+FQKCybsCeo4zByfyvQFJDl8BDRJLB37W6QFIcH8C0qYHBosK9QH4BiMBOIH7B3N2Y
QCvH8UBoF8jBiq1XQMUaNUCpOKjB5a8CQC+gZ0CtFJjBQIk8QPV0hkD5N43B

> <OMEGA_E>
4Aw0PtBwSj4wt0s+COfNPg==

> <OMEGA_NBR>
     90115

$$$$
50168734
  -OEChem-04172616093D

 52 54  0     1  0  0  0  0  0999 V2000
    7.1574   -0.1062  -22.5495 C   0  0  0  0  0  0  0  0  0  0  0  0
    6.8618    1.2307  -22.2360 C   0  0  0  0  0  0  0  0  0  0  0  0
    4.8632    4.0680  -23.1641 C   0  0  0  0  0  0  0  0  0  0  0  0
    7.0086    4.7211  -22.2074 C   0  0  0  0  0  0  0  0  0  0  0  0
    6.4328   -1.1508  -21.9495 C   0  0  0  0  0  0  0  0  0  0  0  0
    5.0898    4.9265  -24.2559 C   0  0  0  0  0  0  0  0  0  0  0  0
    7.2359    5.5720  -23.2992 C   0  0  0  0  0  0  0  0  0  0  0  0
    5.1182    0.4778  -20.6960 C   0  0  0  0  0  0  0  0  0  0  0  0
    5.8089    3.9717  -22.1147 C   0  0  0  0  0  0  0  0  0  0  0  0
    5.8255    1.5418  -21.3226 C   0  0  0  0  0  0  0  0  0  0  0  0
    5.4034   -0.8680  -21.0277 C   0  0  0  0  0  0  0  0  0  0  0  0
    6.2809    5.6956  -24.3226 C   0  0  0  0  0  0  0  0  0  0  0  0
    6.3402    3.3560  -19.6910 C   0  0  0  0  0  0  0  0  0  0  0  0
    4.1075    3.5767  -19.2562 C   0  0  0  0  0  0  0  0  0  0  0  0
    5.5496    3.0056  -20.9424 C   0  0  1  0  0  0  0  0  0  0  0  0
    3.5439   -3.4963  -17.0762 C   0  0  0  0  0  0  0  0  0  0  0  0
    5.7112    4.0344  -17.3554 C   0  0  0  0  0  0  0  0  0  0  0  0
    4.5218   -2.0061  -20.5207 C   0  0  0  0  0  0  0  0  0  0  0  0
    3.6504   -3.3900  -18.6036 C   0  0  0  0  0  0  0  0  0  0  0  0
    4.6351   -2.2648  -19.0049 C   0  0  0  0  0  0  0  0  0  0  0  0
    5.4677    7.0137  -26.1631 C   0  0  0  0  0  0  0  0  0  0  0  0
    5.4050    3.7979  -18.7718 N   0  0  0  0  0  0  0  0  0  0  0  0
    4.1544    3.1916  -20.5092 N   0  3  0  0  0  0  0  0  0  0  0  0
    2.9334    3.7340  -18.5351 N   0  0  0  0  0  0  0  0  0  0  0  0
    7.5367    3.1756  -19.4879 O   0  0  0  0  0  0  0  0  0  0  0  0
    6.5729    6.5756  -25.3501 O   0  0  0  0  0  0  0  0  0  0  0  0
    5.7727    8.2331  -26.6706 F   0  0  0  0  0  0  0  0  0  0  0  0
    5.2673    6.1396  -27.1847 F   0  0  0  0  0  0  0  0  0  0  0  0
    7.9442   -0.3324  -23.2540 H   0  0  0  0  0  0  0  0  0  0  0  0
    7.4289    2.0271  -22.6949 H   0  0  0  0  0  0  0  0  0  0  0  0
    3.9598    3.4773  -23.1263 H   0  0  0  0  0  0  0  0  0  0  0  0
    7.7541    4.6362  -21.4307 H   0  0  0  0  0  0  0  0  0  0  0  0
    6.6657   -2.1762  -22.1960 H   0  0  0  0  0  0  0  0  0  0  0  0
    4.3559    5.0004  -25.0447 H   0  0  0  0  0  0  0  0  0  0  0  0
    8.1541    6.1379  -23.3538 H   0  0  0  0  0  0  0  0  0  0  0  0
    4.3580    0.6991  -19.9615 H   0  0  0  0  0  0  0  0  0  0  0  0
    2.8407   -4.2999  -16.8122 H   0  0  0  0  0  0  0  0  0  0  0  0
    4.5344   -3.7228  -16.6546 H   0  0  0  0  0  0  0  0  0  0  0  0
    3.1806   -2.5422  -16.6668 H   0  0  0  0  0  0  0  0  0  0  0  0
    4.8050    4.3801  -16.8366 H   0  0  0  0  0  0  0  0  0  0  0  0
    6.0628    3.0991  -16.8953 H   0  0  0  0  0  0  0  0  0  0  0  0
    6.4957    4.8011  -17.2731 H   0  0  0  0  0  0  0  0  0  0  0  0
    3.4747   -1.7607  -20.7516 H   0  0  0  0  0  0  0  0  0  0  0  0
    4.8081   -2.9267  -21.0504 H   0  0  0  0  0  0  0  0  0  0  0  0
    4.0110   -4.3472  -19.0082 H   0  0  0  0  0  0  0  0  0  0  0  0
    2.6572   -3.1666  -19.0204 H   0  0  0  0  0  0  0  0  0  0  0  0
    5.6629   -2.5713  -18.7602 H   0  0  0  0  0  0  0  0  0  0  0  0
    4.3861   -1.3451  -18.4554 H   0  0  0  0  0  0  0  0  0  0  0  0
    4.5659    7.0775  -25.5365 H   0  0  0  0  0  0  0  0  0  0  0  0
    3.3537    3.0448  -21.0900 H   0  0  0  0  0  0  0  0  0  0  0  0
    2.0515    3.5502  -18.9693 H   0  0  0  0  0  0  0  0  0  0  0  0
    2.9686    4.0311  -17.5809 H   0  0  0  0  0  0  0  0  0  0  0  0
  1  2  1  0  0  0  0
  1  5  2  0  0  0  0
  2 10  2  0  0  0  0
  3  6  2  0  0  0  0
  3  9  1  0  0  0  0
  4  7  1  0  0  0  0
  4  9  2  0  0  0  0
  5 11  1  0  0  0  0
  6 12  1  0  0  0  0
  7 12  2  0  0  0  0
  8 10  1  0  0  0  0
  8 11  2  0  0  0  0
  9 15  1  0  0  0  0
 10 15  1  0  0  0  0
 11 18  1  0  0  0  0
 12 26  1  0  0  0  0
 13 15  1  0  0  0  0
 13 22  1  0  0  0  0
 13 25  2  0  0  0  0
 14 22  1  0  0  0  0
 14 23  2  0  0  0  0
 14 24  1  0  0  0  0
 15 23  1  0  0  0  0
 16 19  1  0  0  0  0
 17 22  1  0  0  0  0
 18 20  1  0  0  0  0
 19 20  1  0  0  0  0
 21 26  1  0  0  0  0
 21 27  1  0  0  0  0
 21 28  1  0  0  0  0
  1 29  1  0  0  0  0
  2 30  1  0  0  0  0
  3 31  1  0  0  0  0
  4 32  1  0  0  0  0
  5 33  1  0  0  0  0
  6 34  1  0  0  0  0
  7 35  1  0  0  0  0
  8 36  1  0  0  0  0
 16 37  1  0  0  0  0
 16 38  1  0  0  0  0
 16 39  1  0  0  0  0
 17 40  1  0  0  0  0
 17 41  1  0  0  0  0
 17 42  1  0  0  0  0
 18 43  1  0  0  0  0
 18 44  1  0  0  0  0
 19 45  1  0  0  0  0
 19 46  1  0  0  0  0
 20 47  1  0  0  0  0
 20 48  1  0  0  0  0
 21 49  1  0  0  0  0
 23 50  1  0  0  0  0
 24 51  1  0  0  0  0
 24 52  1  0  0  0  0
M  CHG  1  23   1
M  END
> <OMEGA_C>
vAnlQFhz2b1uZbTBuZPbQOqInT9q47HBR5+bQMEsgkAJULnBYkbgQH8Tl0DSqLHBRtnNQKdNk7+d
mK/B5t+iQAOmnUAADMLBboznQChOskDdZLrBosijQDCi9D5SkaXBUuK5QLovfkD06rDBG2q6QEdZ
xT/HlKrB0OisQFA3Xr/JOKjBh/3IQAVCtkCslMLBSePKQB7IVkAzh53BAXGDQD/oZECjDJrBC5ax
QCNbQEDviafBec9iQFjDX8AHnIjBj8K2QLIZgUDo14rBo7KQQAlkAMBmKqTBe59pQDT1WMAi1JTB
HVOUQB/zEMAhCpjBqPeuQBhw4EAfTtHB7vWsQIgQc0CzLJbB8PCEQPNDTEDtEqTByLw7QIz5bkDV
R5TBTSzxQME9S0A555vBDFXSQDpr0kAazcrBmrm4QO66A0FOXdXBgI2oQJR3xEBJetnB+Tb+QEsu
qr4ZCLrBuLntQM27AUA8j7XBHW59QFqLXkCmArnBzSH4QCNclED+cavBok3VQKFGC8BRkbHBIWOL
QD0DoEB5W8jBXncCQfdpxECr1LrBv3SLQA73Mj8YsZ/Bb841QAWZicBUf4bBhxmRQI1BbsCmPIXB
oo5LQNKyIsCNVYXBjcKZQJMpjEBLsYbBtALCQFNYRkCXKYfBG93PQFGimUBFL4rBO2FeQHdf4b9T
A6bBn9uZQFlPO8AhZ6jB3FmAQAcci8DMEJjBTg8qQFWpSsCyKZjBITa1QAGQJMDoFJbB4VqMQMgq
rL+2pJPBBhySQMh64kDISszBjKJWQFHeQkBHuKjBQEwDQEE3Y0AfwZfBH/49QB3/gECtpYzBFFDg
QEoB6r1XsrXBeADWQDltnD/hW7PBbGqbQLgTgkB1SLnBaG/fQLfIl0B3aLHBdk7QQG//k79ARa/B
XOCiQLmInUBi/8HB1tfmQDQis0B4G7rBQuCpQFoL8T42X6TBwE25QD2bfkCez7DBot25QLzOwz9y
0KrBCAe2QDcKXr9oYabBHLHIQL6itkCBZcLBRL7KQEa/VECrlZ3BamaDQPTeZUCKJJrBEj6xQLhD
P0BTm6fBIWFvQCi3R8BTiYrBIvu2QKIDgUDe74rBCLOsQK6U+r+0IJ7BToxwQML0acBcIJbB4bF9
QCIfIsAJmJ7BvuWuQHTn4EC6IdHBbg2tQMk9ckDsP5bB0K6EQCmuSUAqB6TBztM7QONYdEAEfZTB
nhTxQGNbSUAsBZzBfEzSQN1P0kAGs8rBTBOUQGds+UCCIcvBjJ6+QDjZ+EDFRNnBZZj0QBFnr74X
c7zBo5fjQHc1AUByGbjBt0h9QB3pXUA6DrnBIvj2QHlYlUA7HKvBVSrYQJ2bC8BOJrHBoMWLQNOG
n0BYZ8jB7/0BQaWqxUDlb7rB5zaUQE7VMD+s353BS+xlQFdEfcCc8oTBFU+WQDr1J8Ckx4jBpMQ6
QNuBGcBUoInBBR+aQOiNjEB2zobBIOrBQCo2RkDmL4fBVlvQQPdKmUCnV4rBk1vDQEkhMsAfcZ/B
aMSxQM8vxL9FHJbBs4aSQFI6jMCt45bB4TMzQKIAhcBdvJfBFK9PQKmV3L9gDJ3BbVJyQMbJPMD1
nKbBjqydQJPxxEDOTNTB3OBVQAYHPUA/gqjBPSgDQEo5aUCj75fB4W4+QHT0hECO9ozB8DbeQILw
K74hYbXBqtfUQCNJlz9LQLPBIiWcQM/jgUC8eLnB6y7gQASEl0ByorHBQvfNQK97l7+yta7Bz2Wj
QAiVnUBKJ8LBeWjnQOASs0A6ULrBEiupQCui/j5X/qPBqg26QKcjfkC2ArHBS2S5QOvAwz8Iq6rB
VH60QKY6Wr9ixaXBtB7JQJXptkAmk8LBXv/KQJYrVkDoqZ3BcJ6DQJZmZUD8LJrBvYyxQDMNQEB6
r6fBSDxnQKUAQsDDUYrBHRm3QJeYgUDKAYvBivGqQLHq87+aO53BftVvQOn2asC6hpXBofF+QDb7
J8BRjZ7BGQSwQMJ840A4WtHBwTOtQNhTc0C0UpbB4PqEQGAmTEC/LqTBFzU8QN7zb0DCZZTBbErx
QC2HSkANEJzB7sXSQJyE00DUwcrBY/qhQFLCxEDSNdjBEiSPQF5r8kAPPsvB4fbxQHeX2r75KLzB
BaLiQJOA+j+GLrjBkfR+QAA2XUC3Q7nB4t/3QCHplEC+YKvBbwXVQOj4DcAMcbDBTS2MQNCan0Bb
iMjBe0oCQXqNxUBwprrBzeqTQIlePz8Le53B+LVcQFVxdMC0UoTBdx2RQGPYHsBHYojBJqYwQNWL
FcDQRorBcS2aQML3jEC234bBpDPCQHB8R0DBQofBllbQQOUDmkBAaYrB6GjEQOKBKsBlg53B/Der
QJmDtL81YJXBox6TQD/Ri8BsapXBf6g0QPgqh8D1TpfBNl1LQFA68L8ySp7Bwut9QJXeSMDpVKbB
vsu8QMRE/kD3FdbBtJBWQPZ1QkAny6jBV7ADQHgZZECc2JfBn58+QAu1gUBHyIzBav/gQD8nVr4d
57PBH1LYQJFvkz+aEbLBdg6dQJ/4gECkvrnBm7vgQDNOl0BMy7HB94PLQPLqmb85+a3BOS6kQBfd
nECoZcLBRNbnQDAHs0AGcLrBXbCkQAg8Bj+QQqTB9dC6QDoDfUDkOrHBcIC5QHE2xD88WarBAUSt
QMCTV7+fFKbBTYnJQL2qtkDbsMLBrDPLQAuAV0D4wp3BgMODQEtRZED5OZrBVtWxQBPeQED8vafB
f3BqQFOviMD2V5PBmxe3QChYf0BO+YrBUwyTQJOt9b9zXaDBPkBvQFcbN8C8ZY7BrzKZQJ7a+b9Z
BJTBnE6uQCVR4kA0CdHBlkKtQCOAckBBV5bBBjyFQORBT0CWYKTBlos8QO60akBuWJTBg3DxQBA8
S0B5JZzBCkHSQIap00D0xsrB2g+RQKY+9kBrrsrBdtO8QHa6/kDrYdjBBTn4QLUS/b5p4bnBbDfp
QC5A9D8EkLbBeaiAQHyRWkD9mLnBt1j4QM/UlEAQhKvB8DbSQD+zD8DFeK/B+iyNQCulnkBU1MjB
SW4CQSa/xUBvwLrBcvyNQC/LTj8wJ57BrCE6QGy9m8BWEY/BBYtYQLMlhsCx1JvBCJ2UQDxfmMD7
qZLBOiGaQLlnikDSwIbBaEPCQG64QkCbeofBLkTQQBEQmEDhKorBE/lhQE6V3r8wDaLBXWucQAqS
OcCHmaPBJ/UvQPrBGMA2Eo/BGVKAQAw1PcB/54XBrGq5QE5lFcDjOZLBiweWQDK/bb8N45DB9Y2f
QEivxkDqDNXBUWtXQKnASUAlJ6nBoCkEQJ3rXkAK1ZfBUNs+QL0Ze0AknozB1crgQAsGX740HLTB
nlHYQNRckj+TL7LBwm2cQATZgUBbhbnB8wrhQCGxlkBH3rHBl03LQP+Gm78IOK7BuU2jQKn1nUD2
I8LBlvDnQKKTskD6f7rBlwilQJ9QAj+WVKTBS8m6QKT9fEAZKrHBS9S5QFvLwj/NYKrB+CitQP5l
W7/nTKbByx/JQL4Yt0AFnsLBoVDLQC4kV0ADup3BMNKDQIuWZECtRJrBRxSyQJAlQECQt6fBHFtl
QN7Oh8DxV5PBp/m2QJxkgEAUAovBl+6SQIkW979Ij6DBYDFzQEx4NsAXXY7B+jOcQAiZAcDoXZTB
0UGvQCEl5UC9BtHBcUmtQLXMckDOXJbB5myFQEauTUDCWaTBEFw8QOrObEBWfJTB6JLxQM9nS0DG
FZzBLGzSQAMO1EBOvsrBtZagQOh1x0C8FNjBUdqOQCtl80B5qMrBWOD3QHXx/76TIbrBqCHpQPlm
8z8grrbBNGx/QOZJXUCBR7nBpxf5QK6lk0DTtavB/urRQCV3EMBmxK/BPreLQOJwoEC1bMjBoqIC
Qd/HxEBa6brBNq2OQL7+ST9eIp7B9+wzQMkVmcDXzY7BKJ1QQA46hMCCtJvBENWQQL3vmcBIFJPB
C/OZQBZMi0Ct14bB7iPCQL+JREByaYfBRBzQQDLamEAOQorB1pBhQJLF2b9yp6HBrTaaQKziOcBo
OKTBaVY2QHwiE8DCno7BsLGDQNqNPsCJ/oXBMIO7QKZiIMAkM5PBYP+cQCgbgb+UAZHBX9q7QAJA
AEEGldXBOc9XQItqRkA8F6nBfxUEQHX8YEBa/5fBh1c+QAiPfkC0zYzB

> <OMEGA_E>
6CNPPqAraT6YrGo+oDaEPlCkhD4=

> <OMEGA_NBR>
     94777

$$$$
50168771
  -OEChem-04172616093D

 52 55  0     1  0  0  0  0  0999 V2000
    4.8110   -1.7891  -20.3084 C   0  0  0  0  0  0  0  0  0  0  0  0
    4.2147   -2.6026  -19.6366 C   0  0  0  0  0  0  0  0  0  0  0  0
    6.9911    4.8537  -22.1394 C   0  0  0  0  0  0  0  0  0  0  0  0
    6.7485    1.3488  -22.3970 C   0  0  0  0  0  0  0  0  0  0  0  0
    7.2147    5.6465  -23.2786 C   0  0  0  0  0  0  0  0  0  0  0  0
    7.0001    0.0149  -22.7680 C   0  0  0  0  0  0  0  0  0  0  0  0
    5.2006    0.5758  -20.6807 C   0  0  0  0  0  0  0  0  0  0  0  0
    4.8931    4.0909  -23.1003 C   0  0  0  0  0  0  0  0  0  0  0  0
    5.4625   -0.7550  -21.0419 C   0  0  0  0  0  0  0  0  0  0  0  0
    5.8232    1.6435  -21.3625 C   0  0  0  0  0  0  0  0  0  0  0  0
    5.8146    4.0757  -22.0385 C   0  0  0  0  0  0  0  0  0  0  0  0
    5.1136    4.8600  -24.2523 C   0  0  0  0  0  0  0  0  0  0  0  0
    6.2844    5.6778  -24.3398 C   0  0  0  0  0  0  0  0  0  0  0  0
    6.3576   -1.0412  -22.0944 C   0  0  0  0  0  0  0  0  0  0  0  0
    6.3431    3.3611  -19.6302 C   0  0  0  0  0  0  0  0  0  0  0  0
    4.0943    3.4757  -19.1876 C   0  0  0  0  0  0  0  0  0  0  0  0
    3.0765   -2.9990  -17.3911 C   0  0  0  0  0  0  0  0  0  0  0  0
    4.1542   -4.0792  -17.5429 C   0  0  0  0  0  0  0  0  0  0  0  0
    3.4610   -3.5129  -18.7868 C   0  0  0  0  0  0  0  0  0  0  0  0
    5.5660    3.0841  -20.9027 C   0  0  2  0  0  0  0  0  0  0  0  0
    4.0917    4.7159  -25.3660 C   0  0  0  0  0  0  0  0  0  0  0  0
    5.6787    3.9036  -17.2611 C   0  0  0  0  0  0  0  0  0  0  0  0
    5.5896    7.1933  -26.1007 C   0  0  0  0  0  0  0  0  0  0  0  0
    5.3841    3.4948  -18.6386 N   0  0  0  0  0  0  0  0  0  0  0  0
    4.1628    3.2461  -20.4757 N   0  3  0  0  0  0  0  0  0  0  0  0
    2.9065    3.6369  -18.4900 N   0  0  0  0  0  0  0  0  0  0  0  0
    7.5550    3.2749  -19.4643 O   0  0  0  0  0  0  0  0  0  0  0  0
    6.6383    6.4487  -25.4416 O   0  0  0  0  0  0  0  0  0  0  0  0
    6.6187   -2.3199  -22.4543 F   0  0  0  0  0  0  0  0  0  0  0  0
    5.9910    8.4740  -26.2829 F   0  0  0  0  0  0  0  0  0  0  0  0
    5.3468    6.6452  -27.3212 F   0  0  0  0  0  0  0  0  0  0  0  0
    7.7182    4.8388  -21.3409 H   0  0  0  0  0  0  0  0  0  0  0  0
    7.2626    2.1529  -22.9025 H   0  0  0  0  0  0  0  0  0  0  0  0
    8.1135    6.2418  -23.3429 H   0  0  0  0  0  0  0  0  0  0  0  0
    7.6883   -0.1994  -23.5723 H   0  0  0  0  0  0  0  0  0  0  0  0
    4.5155    0.7852  -19.8724 H   0  0  0  0  0  0  0  0  0  0  0  0
    3.9944    3.4965  -23.0272 H   0  0  0  0  0  0  0  0  0  0  0  0
    2.0972   -3.2554  -16.9608 H   0  0  0  0  0  0  0  0  0  0  0  0
    3.3573   -1.9811  -17.0829 H   0  0  0  0  0  0  0  0  0  0  0  0
    5.2081   -3.8361  -17.3424 H   0  0  0  0  0  0  0  0  0  0  0  0
    3.9480   -5.1104  -17.2203 H   0  0  0  0  0  0  0  0  0  0  0  0
    2.7295   -4.1742  -19.2743 H   0  0  0  0  0  0  0  0  0  0  0  0
    3.2987    5.4671  -25.2361 H   0  0  0  0  0  0  0  0  0  0  0  0
    4.5847    4.8675  -26.3376 H   0  0  0  0  0  0  0  0  0  0  0  0
    3.6515    3.7085  -25.3314 H   0  0  0  0  0  0  0  0  0  0  0  0
    4.7459    3.9314  -16.6788 H   0  0  0  0  0  0  0  0  0  0  0  0
    6.3738    3.1829  -16.8056 H   0  0  0  0  0  0  0  0  0  0  0  0
    6.1379    4.9032  -17.2657 H   0  0  0  0  0  0  0  0  0  0  0  0
    4.6818    7.1608  -25.4803 H   0  0  0  0  0  0  0  0  0  0  0  0
    3.3725    3.1885  -21.0858 H   0  0  0  0  0  0  0  0  0  0  0  0
    2.0320    3.5798  -18.9717 H   0  0  0  0  0  0  0  0  0  0  0  0
    2.9245    3.8101  -17.5053 H   0  0  0  0  0  0  0  0  0  0  0  0
  1  2  3  0  0  0  0
  1  9  1  0  0  0  0
  2 19  1  0  0  0  0
  3  5  2  0  0  0  0
  3 11  1  0  0  0  0
  4  6  2  0  0  0  0
  4 10  1  0  0  0  0
  5 13  1  0  0  0  0
  6 14  1  0  0  0  0
  7  9  1  0  0  0  0
  7 10  2  0  0  0  0
  8 11  2  0  0  0  0
  8 12  1  0  0  0  0
  9 14  2  0  0  0  0
 10 20  1  0  0  0  0
 11 20  1  0  0  0  0
 12 13  2  0  0  0  0
 12 21  1  0  0  0  0
 13 28  1  0  0  0  0
 14 29  1  0  0  0  0
 15 20  1  0  0  0  0
 15 24  1  0  0  0  0
 15 27  2  0  0  0  0
 16 24  1  0  0  0  0
 16 25  2  0  0  0  0
 16 26  1  0  0  0  0
 17 18  1  0  0  0  0
 17 19  1  0  0  0  0
 18 19  1  0  0  0  0
 20 25  1  0  0  0  0
 22 24  1  0  0  0  0
 23 28  1  0  0  0  0
 23 30  1  0  0  0  0
 23 31  1  0  0  0  0
  3 32  1  0  0  0  0
  4 33  1  0  0  0  0
  5 34  1  0  0  0  0
  6 35  1  0  0  0  0
  7 36  1  0  0  0  0
  8 37  1  0  0  0  0
 17 38  1  0  0  0  0
 17 39  1  0  0  0  0
 18 40  1  0  0  0  0
 18 41  1  0  0  0  0
 19 42  1  0  0  0  0
 21 43  1  0  0  0  0
 21 44  1  0  0  0  0
 21 45  1  0  0  0  0
 22 46  1  0  0  0  0
 22 47  1  0  0  0  0
 22 48  1  0  0  0  0
 23 49  1  0  0  0  0
 25 50  1  0  0  0  0
 26 51  1  0  0  0  0
 26 52  1  0  0  0  0
M  CHG  1  25   1
M  END
> <OMEGA_C>
mvOZQBIA5b+od6LBeN6GQE+QJsC4F53BXrffQINRm0BmHbHBYvPXQBOnrD/6LLPB7d7mQGewtECC
OrrBigDgQDDtczziJLbBqmumQE9pEz/+caXBYJScQAXpgkB2zbjBacyuQGVGQb+8VajBCVi6QLhe
0j9l5qrBJBG6QHdsgkDSTrDBxKKjQHCFm0CeBMLBehnJQFywtUDct8LB03HLQOJFhb88wbDBCPvK
QOgcV0CtCp3B3ASDQDpxXkA+gJnBHuZEQIbvP8ACIYvBD++EQOWIgsDcV4zBLoFdQMTTYMBVS5bB
thyyQCViRUDTOKfBj++CQPfolkCD7crBALi1QMfUeUC4ForB8d2yQHov5kBPztDBQ0qsQL+qX0Dp
G5XBmjWFQGq/T0A7zqPBAwQ6QCvCaECL65PBkcLxQKyXUUDrtpvBL23UQCNczkB9iMvBfMzTQBR5
FMBXorPBB7a/QI2VB0FqQ9LB5hirQF2l1EDBkdrBvPv2QEzXmkAxuqrBJWfoQLLICUBoOLfBDtEB
QQK9x0BUvrrBlgb2QAonTL7+k7zBRX+QQKL/SD/E+p7BsKR/QOrFX0C4N7jBazgGQLFXUMDFr4fB
id5WQI6T/b/XqYjBu6imQHWDdcBRvYrBV6t8QLCIo8BAw4nBU7AuQNmShcC9MZrBVB5TQJryrkCa
48nBwLWSQNXCm0Bes9LBYrJpQH5XbUCypsrBK96XQA+ce0A8boXBAPbLQPi0S0DZcYbBT2nEQPnm
nEARIIrBdNGVQJgl5UC918vBptdXQKYPTECkr6jB1wwCQGEbZUAfxpfBIis7QBnZc0DcCozBfcCc
QHlT6L9qT6PByrmIQMxcKMAeL57BsuOZQCpAhEBNArnBc9zaQPdBsz+t67LBGVyiQCcXnkCc+sHB
zqXlQFRnpz0+vrXBqBCnQMalDj9MAqbBI7PdQIYtmkD1DbHBIgqyQMYmQr9nxqjB48S6QBsm0z/p
I6vBvpG3QG4tgkC4dbDBwV/mQDyhs0DTAbrBVgzJQA2NtUDWjMLBz1PRQF1hgL81rrDBP2XKQJFf
V0AJVZ3BfhKDQBRaZECZo5nBfpU6QI6CO8A9KY3B4P6BQESGfMA0uozB+7peQJSJYcDFjZfB7aWw
QFhyRED3ZqfB0xEIQVENzEAGi7rBxd+2QHNEfEDbZIrB7ZuyQIWY5kDxA9DBOb2sQBddcUCDyJXB
jSyEQDIrTUDsuKPBAFw7QNlzbUD5x5PBUZDwQE2LSUD3y5vBHTrUQMVvzUB3ZcvB+GTcQHUYEcCJ
YbPBK2TDQH5uBkE/9NLBUemiQHRP0kBhxtjBJEN5QOnUY0DKo7jBbRnrQLOjDkBysrbBZWSLQKMG
oEC0asjBtpL9QIHFyr3WzrvBv0+PQO3gOz/75J/Bb2b0QMnomEAkjKrBYoz0P4vLTcC8Z4rB8YxG
QE7+779TKovBd0+iQNylZ8BCaYrBLVh4QCC5nsCsponBOTQ2QAaEiMCtnpvB+GMUQb3kt0ABTL7B
P9UFQfVI6UDYUL/BJioNQfG91ECkZ7LBDw6aQBSgiEBEE4bB+ALCQIj/PkCOEofBOinQQMlblkAt
gInByyiZQDY460AADMrBCrlUQGXdQkCXRajBTrsCQK8dYkCbOpfBjwo+QJVaf0CYG4zB

> <OMEGA_E>
AO5uPYA3cz0=

> <OMEGA_NBR>
     96819

$$$$
50168739
  -OEChem-04172616093D

 52 54  0     1  0  0  0  0  0999 V2000
    7.0165   -0.3183  -22.4509 C   0  0  0  0  0  0  0  0  0  0  0  0
    6.7427    1.0622  -22.3055 C   0  0  0  0  0  0  0  0  0  0  0  0
    4.9256    3.9905  -23.2125 C   0  0  0  0  0  0  0  0  0  0  0  0
    7.0218    4.7234  -22.2068 C   0  0  0  0  0  0  0  0  0  0  0  0
    6.3814   -1.2713  -21.6143 C   0  0  0  0  0  0  0  0  0  0  0  0
    5.1158    4.8925  -24.2703 C   0  0  0  0  0  0  0  0  0  0  0  0
    7.2118    5.6230  -23.2662 C   0  0  0  0  0  0  0  0  0  0  0  0
    5.1581    0.5310  -20.5435 C   0  0  0  0  0  0  0  0  0  0  0  0
    5.8601    3.9172  -22.1550 C   0  0  0  0  0  0  0  0  0  0  0  0
    5.7955    1.4935  -21.3449 C   0  0  0  0  0  0  0  0  0  0  0  0
    5.4367   -0.8354  -20.6538 C   0  0  0  0  0  0  0  0  0  0  0  0
    6.2585    5.7365  -24.2946 C   0  0  0  0  0  0  0  0  0  0  0  0
    6.3633    3.2845  -19.7157 C   0  0  0  0  0  0  0  0  0  0  0  0
    4.1223    3.5472  -19.3099 C   0  0  0  0  0  0  0  0  0  0  0  0
    5.5832    2.9685  -20.9892 C   0  0  1  0  0  0  0  0  0  0  0  0
    5.7051    3.9534  -17.3731 C   0  0  0  0  0  0  0  0  0  0  0  0
    3.6018   -3.8207  -18.8626 C   0  0  0  0  0  0  0  0  0  0  0  0
    4.7280   -3.2138  -19.7631 C   0  0  0  0  0  0  0  0  0  0  0  0
    3.6744   -3.4499  -17.3549 C   0  0  0  0  0  0  0  0  0  0  0  0
    4.8558   -1.6932  -19.5332 C   0  0  1  0  0  0  0  0  0  0  0  0
    5.4412    7.0534  -26.1858 C   0  0  0  0  0  0  0  0  0  0  0  0
    5.4039    3.5195  -18.7438 N   0  0  0  0  0  0  0  0  0  0  0  0
    4.1839    3.1991  -20.5732 N   0  3  0  0  0  0  0  0  0  0  0  0
    2.9440    3.8441  -18.6417 N   0  0  0  0  0  0  0  0  0  0  0  0
    7.5685    3.1574  -19.5257 O   0  0  0  0  0  0  0  0  0  0  0  0
    6.5136    6.6873  -25.2777 O   0  0  0  0  0  0  0  0  0  0  0  0
    4.8289   -3.8975  -16.7966 F   0  0  0  0  0  0  0  0  0  0  0  0
    5.6334   -1.4723  -18.4405 F   0  0  0  0  0  0  0  0  0  0  0  0
    5.1744    6.0378  -27.0504 F   0  0  0  0  0  0  0  0  0  0  0  0
    4.3157    7.4159  -25.5079 F   0  0  0  0  0  0  0  0  0  0  0  0
    7.7149   -0.6492  -23.2052 H   0  0  0  0  0  0  0  0  0  0  0  0
    7.2540    1.7844  -22.9247 H   0  0  0  0  0  0  0  0  0  0  0  0
    4.0583    3.3470  -23.2066 H   0  0  0  0  0  0  0  0  0  0  0  0
    7.7653    4.6459  -21.4273 H   0  0  0  0  0  0  0  0  0  0  0  0
    6.6164   -2.3211  -21.7091 H   0  0  0  0  0  0  0  0  0  0  0  0
    4.3908    4.9455  -25.0691 H   0  0  0  0  0  0  0  0  0  0  0  0
    8.1006    6.2359  -23.2927 H   0  0  0  0  0  0  0  0  0  0  0  0
    4.4280    0.8574  -19.8177 H   0  0  0  0  0  0  0  0  0  0  0  0
    4.7674    4.0661  -16.8092 H   0  0  0  0  0  0  0  0  0  0  0  0
    6.3401    3.2015  -16.8818 H   0  0  0  0  0  0  0  0  0  0  0  0
    6.2338    4.9176  -17.4018 H   0  0  0  0  0  0  0  0  0  0  0  0
    2.6335   -3.4718  -19.2506 H   0  0  0  0  0  0  0  0  0  0  0  0
    3.6565   -4.9162  -18.9446 H   0  0  0  0  0  0  0  0  0  0  0  0
    5.6852   -3.6970  -19.5176 H   0  0  0  0  0  0  0  0  0  0  0  0
    4.4839   -3.3993  -20.8195 H   0  0  0  0  0  0  0  0  0  0  0  0
    3.6257   -2.3559  -17.2511 H   0  0  0  0  0  0  0  0  0  0  0  0
    2.8215   -3.9062  -16.8311 H   0  0  0  0  0  0  0  0  0  0  0  0
    3.8415   -1.3167  -19.3347 H   0  0  0  0  0  0  0  0  0  0  0  0
    5.7894    7.9204  -26.7665 H   0  0  0  0  0  0  0  0  0  0  0  0
    3.3905    3.1027  -21.1742 H   0  0  0  0  0  0  0  0  0  0  0  0
    2.0699    3.7991  -19.1254 H   0  0  0  0  0  0  0  0  0  0  0  0
    2.9683    4.1031  -17.6761 H   0  0  0  0  0  0  0  0  0  0  0  0
  1  2  2  0  0  0  0
  1  5  1  0  0  0  0
  2 10  1  0  0  0  0
  3  6  2  0  0  0  0
  3  9  1  0  0  0  0
  4  7  1  0  0  0  0
  4  9  2  0  0  0  0
  5 11  2  0  0  0  0
  6 12  1  0  0  0  0
  7 12  2  0  0  0  0
  8 10  2  0  0  0  0
  8 11  1  0  0  0  0
  9 15  1  0  0  0  0
 10 15  1  0  0  0  0
 11 20  1  0  0  0  0
 12 26  1  0  0  0  0
 13 15  1  0  0  0  0
 13 22  1  0  0  0  0
 13 25  2  0  0  0  0
 14 22  1  0  0  0  0
 14 23  2  0  0  0  0
 14 24  1  0  0  0  0
 15 23  1  0  0  0  0
 16 22  1  0  0  0  0
 17 18  1  0  0  0  0
 17 19  1  0  0  0  0
 18 20  1  0  0  0  0
 19 27  1  0  0  0  0
 20 28  1  0  0  0  0
 21 26  1  0  0  0  0
 21 29  1  0  0  0  0
 21 30  1  0  0  0  0
  1 31  1  0  0  0  0
  2 32  1  0  0  0  0
  3 33  1  0  0  0  0
  4 34  1  0  0  0  0
  5 35  1  0  0  0  0
  6 36  1  0  0  0  0
  7 37  1  0  0  0  0
  8 38  1  0  0  0  0
 16 39  1  0  0  0  0
 16 40  1  0  0  0  0
 16 41  1  0  0  0  0
 17 42  1  0  0  0  0
 17 43  1  0  0  0  0
 18 44  1  0  0  0  0
 18 45  1  0  0  0  0
 19 46  1  0  0  0  0
 19 47  1  0  0  0  0
 20 48  1  0  0  0  0
 21 49  1  0  0  0  0
 23 50  1  0  0  0  0
 24 51  1  0  0  0  0
 24 52  1  0  0  0  0
M  CHG  1  23   1
M  END
> <OMEGA_C>
5YbgQJ/9or5im7PBz8PXQFH3hz+WcbLB2J6dQJBjf0BHs7nBTrLgQIAml0Bzp7HBUTTMQMW4or8i
6qzBxbSjQLGPnECWKcLB3sbmQKrvs0AvIbrB6A6lQJ3sBz8tWaTBNIa7QLCzekBZPbHBlHS5QCss
vz9CwqrBFfmtQAfgVb/qOqXBZ0XIQIaRt0BOW8LBh6DLQHA0UkDZuZ3BH+qDQLcFY0CzeprBzKmy
QKv8PUDi6afBEZC2QGoEfUAu/IrBhYRmQK6FdMCH5pbBC0yXQC2vTcDBGp7BASprQMXKXMDB1orB
oGKbQPy72L8HRJzB+B2uQLC14UCKfNHBfeysQPQ+YUA185XBx+KFQD2+TED8laTB0Gk8QHoFdkAv
IpXBDjHyQAYTSkCXNJzBXG/QQF7+1UC1OMrBZ4aaQCxxecBgX4bBC0W0QHF0vL8shpPBfpSlQPo1
wUAwZ9jBIxqKQARP7UAjEMzB3uD2QCcwJr9VpLnBxyDoQA1n5D+1ZbfBSN2BQGU1VkAHp7nBSH34
QFqrlEAea6vB5bnTQPGMFMBJrK3BwIGMQMFBnkBsjcjBQpwBQTqMx0CLV7rBZbKNQM58Wz+Yip7B
U46YQKodgkBOeYbBP+LKQD7lTED+DYfB6HrHQPpcnUDQNovBHIsoQDwxXsA3AZrB+wNqQMVRncCV
jpfBh+21QFucbMAcJJzB+XuPQI2OWcBCjqbBLAxoQG3GFsBSAorBVZM0QLD+ecAvpobBDNt1QBOJ
qL9xrZrBbEK5QJ5z/UDCIdbBx/1YQHmSRkC/ZKnBEnkEQKgkc0DWAJnB8/g9QL9Mg0C3aI3B

> <OMEGA_E>
kNEwPg==

> <OMEGA_NBR>
     97989

$$$$
50168768
  -OEChem-04172616093D

 55 57  0     1  0  0  0  0  0999 V2000
    5.6743   -1.8684  -19.7924 C   0  0  0  0  0  0  0  0  0  0  0  0
    5.4990   -2.7415  -18.9688 C   0  0  0  0  0  0  0  0  0  0  0  0
    6.5187   -0.1548  -23.0116 C   0  0  0  0  0  0  0  0  0  0  0  0
    6.3137   -1.1719  -22.0616 C   0  0  0  0  0  0  0  0  0  0  0  0
    6.2942    1.1908  -22.6647 C   0  0  0  0  0  0  0  0  0  0  0  0
    4.8008    4.2654  -22.9865 C   0  0  0  0  0  0  0  0  0  0  0  0
    7.1348    4.4979  -22.3232 C   0  0  0  0  0  0  0  0  0  0  0  0
    5.0261    5.1172  -24.0706 C   0  0  0  0  0  0  0  0  0  0  0  0
    7.3603    5.3551  -23.4143 C   0  0  0  0  0  0  0  0  0  0  0  0
    5.6544    0.5017  -20.4108 C   0  0  0  0  0  0  0  0  0  0  0  0
    5.8813   -0.8417  -20.7616 C   0  0  0  0  0  0  0  0  0  0  0  0
    5.8395    3.9749  -22.0765 C   0  0  0  0  0  0  0  0  0  0  0  0
    5.8617    1.5343  -21.3534 C   0  0  0  0  0  0  0  0  0  0  0  0
    6.3054    5.6919  -24.2848 C   0  0  0  0  0  0  0  0  0  0  0  0
    6.3536    3.3681  -19.6727 C   0  0  0  0  0  0  0  0  0  0  0  0
    4.1058    3.5835  -19.2651 C   0  0  0  0  0  0  0  0  0  0  0  0
    5.5811    2.9861  -20.9339 C   0  0  1  0  0  0  0  0  0  0  0  0
    5.6944    4.1710  -17.3718 C   0  0  0  0  0  0  0  0  0  0  0  0
    5.2818   -3.8000  -17.9844 C   0  0  0  0  0  0  0  0  0  0  0  0
    3.9357   -4.5322  -18.2261 C   0  0  0  0  0  0  0  0  0  0  0  0
    2.6881   -3.6137  -18.1141 C   0  0  0  0  0  0  0  0  0  0  0  0
    2.5617   -2.9650  -16.7194 C   0  0  0  0  0  0  0  0  0  0  0  0
    5.5169    7.4489  -25.7618 C   0  0  0  0  0  0  0  0  0  0  0  0
    5.3994    3.8199  -18.7708 N   0  0  0  0  0  0  0  0  0  0  0  0
    4.1747    3.0947  -20.4838 N   0  3  0  0  0  0  0  0  0  0  0  0
    2.9153    3.8208  -18.5867 N   0  0  0  0  0  0  0  0  0  0  0  0
    7.5595    3.2691  -19.4714 O   0  0  0  0  0  0  0  0  0  0  0  0
    1.3634   -2.1956  -16.6557 O   0  0  0  0  0  0  0  0  0  0  0  0
    6.5817    6.5523  -25.3386 O   0  0  0  0  0  0  0  0  0  0  0  0
    4.5140    6.7779  -26.3912 F   0  0  0  0  0  0  0  0  0  0  0  0
    5.0224    8.1407  -24.6972 F   0  0  0  0  0  0  0  0  0  0  0  0
    6.8489   -0.4068  -24.0085 H   0  0  0  0  0  0  0  0  0  0  0  0
    6.4874   -2.2040  -22.3281 H   0  0  0  0  0  0  0  0  0  0  0  0
    6.4512    1.9674  -23.3986 H   0  0  0  0  0  0  0  0  0  0  0  0
    3.8246    3.8259  -22.8439 H   0  0  0  0  0  0  0  0  0  0  0  0
    7.9530    4.2358  -21.6687 H   0  0  0  0  0  0  0  0  0  0  0  0
    4.2187    5.3405  -24.7522 H   0  0  0  0  0  0  0  0  0  0  0  0
    8.3477    5.7575  -23.5861 H   0  0  0  0  0  0  0  0  0  0  0  0
    5.3193    0.7459  -19.4136 H   0  0  0  0  0  0  0  0  0  0  0  0
    4.7705    4.4990  -16.8729 H   0  0  0  0  0  0  0  0  0  0  0  0
    6.0999    3.2912  -16.8508 H   0  0  0  0  0  0  0  0  0  0  0  0
    6.4336    4.9852  -17.3463 H   0  0  0  0  0  0  0  0  0  0  0  0
    6.1029   -4.5285  -18.0556 H   0  0  0  0  0  0  0  0  0  0  0  0
    5.2717   -3.3560  -16.9781 H   0  0  0  0  0  0  0  0  0  0  0  0
    3.9552   -4.9676  -19.2361 H   0  0  0  0  0  0  0  0  0  0  0  0
    3.8410   -5.3366  -17.4818 H   0  0  0  0  0  0  0  0  0  0  0  0
    2.7662   -2.8174  -18.8689 H   0  0  0  0  0  0  0  0  0  0  0  0
    1.7876   -4.2151  -18.3075 H   0  0  0  0  0  0  0  0  0  0  0  0
    2.5326   -3.7517  -15.9511 H   0  0  0  0  0  0  0  0  0  0  0  0
    3.4271   -2.3099  -16.5407 H   0  0  0  0  0  0  0  0  0  0  0  0
    5.9561    8.1662  -26.4707 H   0  0  0  0  0  0  0  0  0  0  0  0
    3.3822    2.8312  -21.0338 H   0  0  0  0  0  0  0  0  0  0  0  0
    2.0403    3.6174  -19.0261 H   0  0  0  0  0  0  0  0  0  0  0  0
    2.9342    4.1948  -17.6595 H   0  0  0  0  0  0  0  0  0  0  0  0
    1.2876   -1.7972  -15.7966 H   0  0  0  0  0  0  0  0  0  0  0  0
  1  2  3  0  0  0  0
  1 11  1  0  0  0  0
  2 19  1  0  0  0  0
  3  4  1  0  0  0  0
  3  5  2  0  0  0  0
  4 11  2  0  0  0  0
  5 13  1  0  0  0  0
  6  8  2  0  0  0  0
  6 12  1  0  0  0  0
  7  9  1  0  0  0  0
  7 12  2  0  0  0  0
  8 14  1  0  0  0  0
  9 14  2  0  0  0  0
 10 11  1  0  0  0  0
 10 13  2  0  0  0  0
 12 17  1  0  0  0  0
 13 17  1  0  0  0  0
 14 29  1  0  0  0  0
 15 17  1  0  0  0  0
 15 24  1  0  0  0  0
 15 27  2  0  0  0  0
 16 24  1  0  0  0  0
 16 25  2  0  0  0  0
 16 26  1  0  0  0  0
 17 25  1  0  0  0  0
 18 24  1  0  0  0  0
 19 20  1  0  0  0  0
 20 21  1  0  0  0  0
 21 22  1  0  0  0  0
 22 28  1  0  0  0  0
 23 29  1  0  0  0  0
 23 30  1  0  0  0  0
 23 31  1  0  0  0  0
  3 32  1  0  0  0  0
  4 33  1  0  0  0  0
  5 34  1  0  0  0  0
  6 35  1  0  0  0  0
  7 36  1  0  0  0  0
  8 37  1  0  0  0  0
  9 38  1  0  0  0  0
 10 39  1  0  0  0  0
 18 40  1  0  0  0  0
 18 41  1  0  0  0  0
 18 42  1  0  0  0  0
 19 43  1  0  0  0  0
 19 44  1  0  0  0  0
 20 45  1  0  0  0  0
 20 46  1  0  0  0  0
 21 47  1  0  0  0  0
 21 48  1  0  0  0  0
 22 49  1  0  0  0  0
 22 50  1  0  0  0  0
 23 51  1  0  0  0  0
 25 52  1  0  0  0  0
 26 53  1  0  0  0  0
 26 54  1  0  0  0  0
 28 55  1  0  0  0  0
M  CHG  1  25   1
M  END
> <OMEGA_C>
55O1QM0n77/dVp7BgPevQPRzL8AxwJfBhJnQQDqOHr6wF7jB/QnKQK8Alr9BfrDB4mnJQMprmD9U
UbXBFKCZQNF9iEBm5LfBmFDkQKTuj0D/lbLBN9agQG7Ao0CekMDBsIfrQK5cq0CDULvB6/C0QHJy
AD9iSaPBNzO8QP55V7/DF6bB6ty6QE1lfkCinLDB55K7QA9kxD/V06rBpMXJQPMjtkBDR8LBzlDL
QHyOV0DGYZ3BYGKDQMVXZUD/HprBD5iyQGccP0CoeKfBZji2QNd4hUBy+YrBgQSpQMszc8AV4I/B
seJ7QKsHkcAPz5HBcgksQCRHZ8DB6ZDBofIjQAvCPcA7wYXBrIqwQCVd7kAtGM7BgcesQGp5dECH
KpbB05aFQOEPRkDW3qPBiZQ6QFWHdECksZTBj+fxQCM4UUBqxZvBCoSuP0+EDMDVPoXBRp3SQC+s
0UBytcrByXKQQFrk2EA1IdPBt7egQHZAAkHbk8XBhyrbQJZG0L5sEcDB+JjPQBwODcAGoLLB7W/O
QNTU+z9RMLvBUMZ0QJzbdEBTwLbBpX7+QK2Lh0CMWa3Bgf+GQCnlqkCHBMbBJ5AFQbY9uEBEsLzB
ujeqQM/0Pj8LT5vBNKiYQHT3j0Cd+4bBEzLDQFuiUkBjzobBGODNQKyGn0A5xYrBSUvDQITpkMDI
cZDBEbKoQHvIVsAZ04fBViJ9QDv2nsCC45nBgNJ1QHDFqsDK2ovB7ggxQJpPNMCT85bB287kP1Xi
hsC2dZLBeBYiQEsccMDSN3/Ba1VbQMPUE8BlU4TBTJi+QMyoAkEIxNPBc3VYQPoyNUBMRajB55QC
QOmCZ0B4NZjBFMo7QLY7hkCvRo3Bi8+kP/QL5r+6vnzBWcmZQA5677+5xqLBIASIQNpDNMDKpJ7B
Cf3iQODmLb06RrXBK4/NQFZIi78sBrDBze3ZQP9opT84mLLBS3ubQLz+gkDyHLnBepTgQJ6Cl0DD
nbHBz9CiQC7LnUBw8MHBNhjoQMLcsUDSf7rBvB2mQLybCD89RqXBdFGvQEipTL/RAKjByde5QBNH
gEChvrDBWKe6QAQozD8Uu6rBw07JQD6/tUB2pMLBcfjKQBV3V0C2YZ3BHleDQMWyY0CH45nBo8Wx
QE6uQkCFdKfBMGa2QHz+fECcgorBNzhmQEOSfsB92ZnBTQCCQCDYhsBMLY7B5yl8QBUQP8C/nIbB
ZgIfQNMjJcDTOYTBgrSvQBRd3UCC2dHBec2sQPSpcEBk55XBkwqFQFKeTUD1/6PB8zU7QOJpbEAD
J5TBszTxQHs2S0ABxJvBI5noP4hQB8Daj43BlbPSQJRX0UDc+crBAwe6QClFAUEbzNbBtg2pQLyR
vkDdWdnBTG36QLlZh77XXrvBjkjUQJBKB8AYJLLBcuLqQLH3BUAGjLbB6eV8QBSiYEBotbjBMHj4
QEDslEAMaKvBcCKLQBwwoEAaNMjBVugCQSFXw0BNF7vBTFiPQKaPPz+JAZ/BhC+ZQPh4iEAWSIbB
6SXCQGyOQECAFYfBJBHPQJNbl0B0oInB5JcgQI4qdMBY4pnBN5N1QD3Om8APo57BUTJdQMfsoMAG
zYrBmNCjQEiXkMANYo7BR/CNQKSYTsC6/33BG1+OQINsCMC2YYrB9/f4P2gTXcA5E4HB2QkfQNPB
479oY3zBd8KSQMmm4UBP9czBpgZXQPJZRUAutqjBaPYCQG6jYUAiuZfBFAo9QCR5fUD6cYzBULxs
P7Xa77/jzYvBwByoQJYZ7b9lMqDBzUylQK/sKcC99ZjBz5ziQJA+Vb3evbXBs5fPQGC4jb8DBrDB
EL/YQG7koz8+JLPBDp+bQHjHgUBrI7nB677fQDzil0CwWrHBZgijQHiRnEDA9MHBGCXnQH6TskCc
LbrB5iqoQMqKAD/bLKXBqs+yQI7vU79apKfBin65QPuCf0Dmp7DBgZm6QEzvyD+N+arBwdPIQFqo
tUBLc8LB8ubKQPjTVEDGY53BGF2DQOvaZUBeEZrBK6+xQFONQEDCfafBNFm2QDwPf0Bup4rB5PGo
QOmCYcBqlY/BKY5+QHD7hcCqrYvBWho8QJ6rTMBy7obBxFQRQLcVE8CHY4/Ba5WuQAAq3kD4cdHB
zuSsQC3LcECEBpbBT/uEQL83SkD096PBSUM7QI8ZdUCEjJTBHxXxQCcgSEAqv5vBKfL8P497QsCJ
4JjBdQDSQDBU0UAZx8rBKiuRQMJA9EDpmsvBudO9QNzq90CnSNnBZdL4QGD+h74eI7zB/wrXQDJe
CMA2DrLBkzHoQHCjBUDkYbfBvtJ9QO0oXUAa1LjBAlT3QE+3lUDDD6vBefGLQEMXnkChX8jBkzAC
QfXrxECYn7rBM8SRQGCrNT8Uz57Byz+ZQB2KikC+iYbBWGHBQGHeQkByBIfBZoLPQIv0l0CY44nB
3cC/QGNlisDYipHBpLK1QIHLOsAg9ojBeNRgQLt9lsA5gZLBXIqHQAWBncBOd4XBEfEJQHzjccAn
34LBEc1cQGN/I8BQFIHBOviqP2AW8r8LF4zByN88QPpPvL8/ZpHBfNGfQN5twUBw8NTB2cZWQMd4
PUCxf6jBDOICQG8Ca0BWHpjBOjk9QHwXhUDb/4zBX2DIP8vaHcDx+Z3BRnmeQBHh67/sUqLBW7qS
QOw2NMAcXZ3BSXLiQADyRjx8t7XBjpPNQFlChb+zcrDB72jZQMudqz+m3rLBL+2bQFalgkB/GrnB
F03gQN6fmEBDbLHBIbujQAFhnEBVFMLB3yjoQK4vskCAbrrBuYqmQLBwDz8AaKXBbwmwQKqlQ78Y
PqjBiLi5QB8dgUANmbDB/Ia6QMF00D/Y26rBMtrJQHTgtEAwuMLBFNzKQOjDV0A+Qp3BlCqDQHKr
Y0D6xpnBBrKxQBAuREBWX6fBLxi2QGxle0BZVYrBGOmHQC05gcBtp5fB1nEyQFKLgcDZmpPBcFkr
QLTfd8B3VYfBLp00QFg6GsAEu4PBt4WvQOME3UCtwNHBq5ysQLYHcEA1v5XBF/KEQDDETkC17KPB
fLk6QKr7a0A0D5TBpRnxQApqS0AwqZvBWFaEQBdG9r+wr4XBhiTTQAnJz0BVMMvBywKSQDt68kDp
ycvBPYC+QAKJ90AddtnB0Gn5QDpSS77x8rvBlyzUQAoSBMD6r7LBPBDqQK6SCUDOzLbBxO19QJ26
X0BzrrjBdsL3QGzelkDmF6vB1bGMQEGNnUBxg8jB9tsCQbDxw0BEArvByPyPQDRVQz9ZEJ/BnM6Y
QGxbh0BAF4bByPHBQH6/PkDt/IbBjqbOQK+elkD1XYnBI3+MQLSQnMCLE53B33KdQFJxhMCGvZDB
uIwPQOF5TsC1f5fBWP0UQPFCoMA20pXB4tbYP9vOh8AcvITBNxFeQOnxjsAUgYPBZoAGQCY35b/s
KojBoQUnQIf5FcCXOXbBvd+gQOuCwEAKZNXBA+pWQA8UR0BFqqjBG4sCQJjUYUDGrJfBWGM8QEwh
fEAsUozBKFWGQPycgr/LZIPBr+KeQFH86r8/p6LBzaaPQPBiMsCkC57BiS3jQFDxET3e5LXBQzHP
QCh1g7/Xh7DB1XbZQCczrj8hELPBlF6bQIgDg0DAE7nB39nfQBS4mEAVZ7HBC2SjQEOTnEBMFMLB
VunnQOcRskAubbrBpJunQONIDz+pd6XBkcCxQD5eQr9WSqjBvi25QI9ggUC0krDBKc+6QBdb0T/g
9arBELrJQIbAtEDXu8LBOLHKQLy7V0CSTJ3BYxWDQGyMY0CVvJnBSmexQGQ2REB2ZafBz022QHYc
fEBiYIrBvP17QNxofcAO0pjByyIhQCqBa8CjfZTBwKkdQKQ2JsAjmIvB4JxfQPpmNcCNn4LB5U6w
QAdr3EA/8tHBhJesQLJNcECjxZXBsqiEQFrPTUCg3aPBbvw6QM5AbECH8JPBnO/wQNQ3S0C4uZvB
xLtgQM2dhsA7An/Bp3nTQF1Vz0AQO8vBy4GSQJws8kAGJczBwO2/QPal9kAfo9nB9/r5QLLEKL51
L7zBOGPWQOUFA8CsuLLBHmvpQKFWC0BoE7fBU4R8QCbxYEDrorjBrjz3QND7lkBXDqvBZF+MQKba
nUAfhMjB+8YCQf2vw0CXALvB6RuRQCp9QD+FF5/BrBqZQI7Oh0ADHIbBIjbCQE6WP0BBAofB5uLO
QPf8lkCfeInBxuJ4QN8fmcBkn57BwemSQCjXh8AZH5LB9bnxPxceVsAAMpvBLUwHQBC+k8CENJHB
uFEqQCzSzr8QPo/Bg3C6P6VcJsA8DYjBmMWPQB4sI8DehIXBcqhOQPHNDcBTU3fBVs6hQLTYv0D2
ltXB6SJWQBD7REBPiqjBMIsCQJC8YUBveZfBjTg9QMULfUCUOYzBENqEQG6gisBY9XPBw7+aQFe/
7r/V6qLB0WmJQBKLNMDI0p7BZ0/jQODNMrxHXLXBBEzOQM8ZiL9cGrDBM7bZQEv9qD/MsbLBqX6b
QNhHg0CFJLnB8THgQAZQmEBNibHBpTSjQMmNnUB3C8LBw//nQOdKskAUerrBqzOmQD93Cz/UXKXB
7uOvQEboSL99GqjBLIi5QAPugEDDtLDBAWu6QJt2zj+CzqrBFKLJQNGttUAsvcLBmLfKQFnOV0Cp
Yp3BfCODQIpSY0DbzpnBQWqxQAimQ0CldKfBJ2e2QODne0AddorBKlpqQKJ2f8ByBZrBSWODQH0T
hsCAQI7BdUl7QNXYPMAV3obBYgEdQCbbJsCkk4TB8IaxQDzi30DmBdLBoaOsQL9tcEDJ25XB/7KE
QPJvTkCn9qPBTh47QNTYakC5+pPBKPbwQLJUS0Alz5vBBQviP2RGDcCkA47ByefTQHKg0EBYNcvB
5tmiQFAGwECJd9jBxPyQQGjN8ED/H8zBUdj6QJYNZr66c7vBoXfVQIqOBcCeMrLB80TqQI8gCEBP
rbbBDcd8QIBvYUBAvLjBLc/3QF8ilkBYQKvBntSLQBxvn0AwZMjBhtQCQRDlw0DMBbvB9VKPQMBG
QD+7GZ/BPECZQIHDh0C1LobBHzXCQNg3P0D7HYfBbRTPQLnIlkDrionB7XgkQIAed8DwP5rB/iR8
QOZJnMAoqZ7BTR1hQFOLoMCh3IrBUoClQCbBjsAXQo7BjLqNQITWScCya37BQr6MQMxaBcAFwIrB
VU36PxOfX8B+OYHBmocaQEeO5L9Hd33BGeG+QIVW+UBIGtfBIT5WQO7jRkBprajBpbYCQNwVYEAS
g5fB0FU9QJ0Ie0CUPozBG+JcP0o6AMDST4zB

> <OMEGA_E>
MCb4Pmj9sD5godM+2IHFPrhJvz5QIbk+

> <OMEGA_NBR>
    103753

$$$$
50168765
  -OEChem-04172616093D

 46 48  0     1  0  0  0  0  0999 V2000
    6.8980   -0.2283  -22.6225 C   0  0  0  0  0  0  0  0  0  0  0  0
    6.6181    1.1253  -22.3726 C   0  0  0  0  0  0  0  0  0  0  0  0
    4.9078    4.0264  -23.2200 C   0  0  0  0  0  0  0  0  0  0  0  0
    6.9980    4.7540  -22.2005 C   0  0  0  0  0  0  0  0  0  0  0  0
    6.3917   -1.2315  -21.7734 C   0  0  0  0  0  0  0  0  0  0  0  0
    5.1283    4.9094  -24.2956 C   0  0  0  0  0  0  0  0  0  0  0  0
    7.2214    5.6259  -23.2782 C   0  0  0  0  0  0  0  0  0  0  0  0
    5.2706    0.4693  -20.4355 C   0  0  0  0  0  0  0  0  0  0  0  0
    5.8279    3.9514  -22.1464 C   0  0  0  0  0  0  0  0  0  0  0  0
    5.7747    1.4939  -21.2986 C   0  0  0  0  0  0  0  0  0  0  0  0
    5.6092   -0.8956  -20.6464 C   0  0  0  0  0  0  0  0  0  0  0  0
    6.2882    5.7273  -24.3237 C   0  0  0  0  0  0  0  0  0  0  0  0
    6.3496    3.3533  -19.7224 C   0  0  0  0  0  0  0  0  0  0  0  0
    4.1227    3.5819  -19.2841 C   0  0  0  0  0  0  0  0  0  0  0  0
    5.5518    2.9867  -20.9666 C   0  0  1  0  0  0  0  0  0  0  0  0
    3.9510   -2.4848  -19.3707 C   0  0  0  0  0  0  0  0  0  0  0  0
    5.7331    4.0860  -17.4023 C   0  0  0  0  0  0  0  0  0  0  0  0
    5.3905   -1.9623  -19.5488 C   0  0  0  0  0  0  0  0  0  0  0  0
    5.4525    7.0667  -26.1416 C   0  0  0  0  0  0  0  0  0  0  0  0
    5.4209    3.8268  -18.8131 N   0  0  0  0  0  0  0  0  0  0  0  0
    4.1627    3.1999  -20.5381 N   0  3  0  0  0  0  0  0  0  0  0  0
    2.9536    3.7043  -18.5494 N   0  0  0  0  0  0  0  0  0  0  0  0
    7.5491    3.1864  -19.5254 O   0  0  0  0  0  0  0  0  0  0  0  0
    6.5654    6.6373  -25.3313 O   0  0  0  0  0  0  0  0  0  0  0  0
    5.7109    8.3168  -26.5992 F   0  0  0  0  0  0  0  0  0  0  0  0
    5.2973    6.2278  -27.1995 F   0  0  0  0  0  0  0  0  0  0  0  0
    7.5059   -0.5019  -23.4721 H   0  0  0  0  0  0  0  0  0  0  0  0
    7.0491    1.8884  -23.0037 H   0  0  0  0  0  0  0  0  0  0  0  0
    4.0278    3.4003  -23.2143 H   0  0  0  0  0  0  0  0  0  0  0  0
    7.7245    4.6931  -21.4037 H   0  0  0  0  0  0  0  0  0  0  0  0
    6.6041   -2.2688  -21.9862 H   0  0  0  0  0  0  0  0  0  0  0  0
    4.4119    4.9642  -25.1020 H   0  0  0  0  0  0  0  0  0  0  0  0
    8.1197    6.2247  -23.3038 H   0  0  0  0  0  0  0  0  0  0  0  0
    4.6240    0.7366  -19.6127 H   0  0  0  0  0  0  0  0  0  0  0  0
    3.9291   -3.2334  -18.5649 H   0  0  0  0  0  0  0  0  0  0  0  0
    3.2865   -1.6474  -19.1111 H   0  0  0  0  0  0  0  0  0  0  0  0
    3.6098   -2.9463  -20.3091 H   0  0  0  0  0  0  0  0  0  0  0  0
    4.8330    4.4552  -16.8889 H   0  0  0  0  0  0  0  0  0  0  0  0
    6.0715    3.1547  -16.9246 H   0  0  0  0  0  0  0  0  0  0  0  0
    6.5291    4.8424  -17.3360 H   0  0  0  0  0  0  0  0  0  0  0  0
    6.0309   -2.8239  -19.7885 H   0  0  0  0  0  0  0  0  0  0  0  0
    5.7076   -1.5250  -18.5906 H   0  0  0  0  0  0  0  0  0  0  0  0
    4.5420    7.0696  -25.5242 H   0  0  0  0  0  0  0  0  0  0  0  0
    3.3603    3.0717  -21.1209 H   0  0  0  0  0  0  0  0  0  0  0  0
    2.0724    3.4960  -18.9736 H   0  0  0  0  0  0  0  0  0  0  0  0
    2.9915    4.0010  -17.5952 H   0  0  0  0  0  0  0  0  0  0  0  0
  1  2  1  0  0  0  0
  1  5  2  0  0  0  0
  2 10  2  0  0  0  0
  3  6  2  0  0  0  0
  3  9  1  0  0  0  0
  4  7  1  0  0  0  0
  4  9  2  0  0  0  0
  5 11  1  0  0  0  0
  6 12  1  0  0  0  0
  7 12  2  0  0  0  0
  8 10  1  0  0  0  0
  8 11  2  0  0  0  0
  9 15  1  0  0  0  0
 10 15  1  0  0  0  0
 11 18  1  0  0  0  0
 12 24  1  0  0  0  0
 13 15  1  0  0  0  0
 13 20  1  0  0  0  0
 13 23  2  0  0  0  0
 14 20  1  0  0  0  0
 14 21  2  0  0  0  0
 14 22  1  0  0  0  0
 15 21  1  0  0  0  0
 16 18  1  0  0  0  0
 17 20  1  0  0  0  0
 19 24  1  0  0  0  0
 19 25  1  0  0  0  0
 19 26  1  0  0  0  0
  1 27  1  0  0  0  0
  2 28  1  0  0  0  0
  3 29  1  0  0  0  0
  4 30  1  0  0  0  0
  5 31  1  0  0  0  0
  6 32  1  0  0  0  0
  7 33  1  0  0  0  0
  8 34  1  0  0  0  0
 16 35  1  0  0  0  0
 16 36  1  0  0  0  0
 16 37  1  0  0  0  0
 17 38  1  0  0  0  0
 17 39  1  0  0  0  0
 17 40  1  0  0  0  0
 18 41  1  0  0  0  0
 18 42  1  0  0  0  0
 19 43  1  0  0  0  0
 21 44  1  0  0  0  0
 22 45  1  0  0  0  0
 22 46  1  0  0  0  0
M  CHG  1  21   1
M  END
> <OMEGA_C>
GLzcQIrUab7V+rTBqMfTQJQIkD8T+7LBpgydQEbYgEB7wrnB+O/fQKQgmEC0mrHB9ojMQLGhnb/W
L67BDxukQNYZnUB3XcLBbRXnQA0HtEDOObrBkaioQJhJ8D7me6PB3X26QPDifEDMK7HBZ8q4QFk5
vz91Y6rBr36zQMpDZb/CK6XB3zjJQOlFt0AKl8LBFzDLQDydVkBix53BIO2DQHc9ZUDHRZrBWKix
QGEmP0CRu6fBsdx8QDIHH8Ai95rBb3W3QKXAgkDRN4vBkX6sQJ4r+7/yY5zBfXquQHUi4kAFItHB
C3itQIXpdEBPgZbB5DSFQKXKTEAbTqTBEwg9QMoTbUAkZZTBNZLxQJruS0AHNJzB1hfSQHRk1EB/
psrBk7+2QMcRBUE7y9TBdYOpQGtKx0B+mNnBcTDwQBF/AL/2xrvBPJLhQMi28T+TB7jBvuOAQM+e
WUDrtrnBPC/3QN8tlkDOOqvBzFTTQPYzEcC/46/BqS6NQIHankDp0MjBdeoBQSYxx0ArbrrBD/iT
QFePPD/c5pzBBHd7QE/vTsD9hJTBvVZSQInf0r+f45jBMAdnQMqQPMD+eKLB+aeaQNKQjkBiHIfB
1EnCQOHmSUCYZYfB/u3QQIr0mkANsIrBKP3AQEG6NMDlTp7B76S2QHYyw7+HuZTBYFiRQOg54kCp
MczBug5XQCqWRECz96jBbaEEQNG9X0DryZfBy3Q/QJEIgEDpwozBzAziQLKtnr537bLBqCvZQNrk
hj/QUbHBslKdQMpUgED27LnBLn/gQIP1lkDB3bHB+D3LQPBupr9ARq3B1smjQHajnUCgX8LB4Abn
QJjis0BmUbrBvq2iQOag4D7cHaTBCi+7QEcYekCsbrHBShy5QFDSuT/zBKrBLPSqQBnQcb8p5aXB
lsHIQHwcuEAAkcLB+mXLQL2YVkA26p3BCCCEQIaMZUCEd5rBZvixQGOIPUBe0KfBgHuWQB+cG8D+
TZXBQoq3QIvigkDXY4vBxhKOQDd1A8AQHqHBQuquQK735kBu5dDB3KCtQKsddUBerZbBiIKFQPc1
TUAugKTB0k49QNWEbUCBnZTB2MzxQGRtTEBrUJzBnOnRQOMG1kDWg8rBLkShQGmlyUBlKtjBEs2N
QN429EAuosrB0JT6QEwIGr9OjLjBHffqQI2O5j/zsLXBZEKBQKZSWEA28LnB1DD4QL5jlED6m6vB
34rSQAfwFcD5ma7Bn3yMQCTyn0BqusjButsBQb0kx0AterrBsiaLQMvtOj+rO57B4iCAQJBVTsCZ
2pLBwI63QKiwMsA+cZTBmMCRQIfxxb+wNpDBzLuaQOjLjkBnTYfBwUHCQDEmSkCgjYfBKRLRQLYF
m0CN2orBSVtZQMWO27/ovqHBzHuSQEd/PcB1+aXBIme7QElvAUFeQtXB1d9XQFhKRkA5O6nBzfME
QD1eYEAsCJjBPpo/QJ41gEA5+ozBlkLdQI+4i760dLTBK4jTQDXviT9RrbLBA8vfQJafl0CitrHB
YCWdQE5rgEAz8bnBLP3MQOCYor/Rpq3BTJ/mQOZZtEC+MLrBZQekQOpgnUC5csLBpW6oQIYz3T4E
GqPBpY+6QJEae0DiV7HBTHe4QJY5uj9rJarB+c+yQMSNcb+I0qTB3tjIQJ4SuEC/j8LBHSPLQP4s
VkDp6J3BTfiDQELdZUB7Z5rBknqxQKyQPUDwyqfBYBV5QAFtEcB5fZjB/L63QDCwg0D0b4vBA9eq
QALOA8CvaJzBWnKvQFq75kAE99DBV5OtQPuydUDrr5bBOR6FQNswTEDhY6TBFjk9QJqVbkD0hpTB
343xQD66S0A4W5zBzU3SQJ231UDsjMrB7xKiQIWGyUBVS9jB5B6OQI6480BPvcrBKW/xQPatDL/g
HLvBi9PgQBPW6j+m3bfBSTL3QPFRlUDRYavBqxyBQBBrWEBG/rnByabUQGyKE8DTNK/BM5QBQU3Y
x0DZRbrBOCiNQNA+n0CW6MjBdk6UQEMaNT+pbpzBr653QO2xRcADmZLBAX9hQK5xrL9MwJTBWAFQ
QHUPIsDbU5/BlxObQDXxj0BOWofBhmTCQHUJTEBjhYfBNGfRQK+5m0ClAYvB3721QJGEQMDE7p/B
s3y+QOhb6b82W5XBbvm7QDZiAUFTRNXBk8tWQFrEQ0AkCKnB5L4EQC/4YEAr4pfBd8s/QMo+gUBH
7ozB3wHiQJ1+pb5pAbPBr+vYQCAahT9MbbHBw+KcQIyTgECw4LnBhnjgQHZ8lkCj5LHBHdTLQPs/
qL8XNa3BVVmjQH4enkCHSMLBW+HmQMrNs0CdQ7rBS5ejQEZQ2D4276PB0wG7QLqEeUAkcrHBulG5
QDTbtz/g/6nBIwmsQNv6db/xr6XBD3fIQKlWuEC9dcLBSmHLQLQjVkDc9Z3BFS2EQM0pZkATiJrB
Y++xQLmWPEDO1afB8UeYQIdqGsDQ1pTBqL+3QJY1hED3jovBwc+PQMPPBMAQuqDByP6tQPZp5EB+
79DBrrmtQP4qdkDxzJbBEXiFQDq4S0ALfKTBpoU9QMbNb0BuspTB7L7xQHCvS0DVVZzBXVrRQEcT
1kAXasrBZj6RQEtR+kBN3srBG3K9QGUF/0CZmdjBoDf6QLUgHb9lt7jBtjTqQDPS5D9767XBuaWA
QMRNWUAJ4LnBx2L4QC10k0C5s6vB2DvTQNTNFsDyh67BgfGLQMXFoEAFm8jBmcYBQcYXx0D1ZbrB
tnmMQHCcNj+e8p3BHmuCQKaXTcDqQpLB/5K5QP3yL8CN4ZPBT+KSQI8ewr8E64/BbgubQLihkEBn
hYfBYkfCQM5ATUDzlIfBjnLRQPI0nEA1JYvBEWtcQOlM4b9pcqHBOOaUQCqKP8DxaKXBI5ieQBRu
yEARotTB+Z9XQM4PQ0A8JKnBdQ0FQAlIYkCqD5jB1gJAQOwjgkC4H43B

> <OMEGA_E>
YGeRPnihpD5QCqU+SKGnPg==

> <OMEGA_NBR>
    107229

$$$$
50168774
  -OEChem-04172616093D

 51 53  0     1  0  0  0  0  0999 V2000
    4.9081    4.0310  -23.1807 C   0  0  0  0  0  0  0  0  0  0  0  0
    7.0176    4.7490  -22.1886 C   0  0  0  0  0  0  0  0  0  0  0  0
    6.8833    1.2175  -22.1819 C   0  0  0  0  0  0  0  0  0  0  0  0
    5.1256    4.8921  -24.2696 C   0  0  0  0  0  0  0  0  0  0  0  0
    7.2403    5.5970  -23.2832 C   0  0  0  0  0  0  0  0  0  0  0  0
    7.1500   -0.1274  -22.4801 C   0  0  0  0  0  0  0  0  0  0  0  0
    5.0526    0.5200  -20.7280 C   0  0  0  0  0  0  0  0  0  0  0  0
    5.8372    3.9698  -22.1144 C   0  0  0  0  0  0  0  0  0  0  0  0
    5.8134    1.5570  -21.3228 C   0  0  0  0  0  0  0  0  0  0  0  0
    6.2952    5.6932  -24.3190 C   0  0  0  0  0  0  0  0  0  0  0  0
    5.3091   -0.8328  -21.0209 C   0  0  0  0  0  0  0  0  0  0  0  0
    6.3685   -1.1535  -21.9162 C   0  0  0  0  0  0  0  0  0  0  0  0
    6.3463    3.3280  -19.6739 C   0  0  0  0  0  0  0  0  0  0  0  0
    4.1027    3.5147  -19.2452 C   0  0  0  0  0  0  0  0  0  0  0  0
    3.1958   -3.2309  -18.1178 C   0  0  0  0  0  0  0  0  0  0  0  0
    3.7228   -3.3562  -16.8537 C   0  0  0  0  0  0  0  0  0  0  0  0
    5.5634    3.0188  -20.9408 C   0  0  1  0  0  0  0  0  0  0  0  0
    5.6904    3.8783  -17.3046 C   0  0  0  0  0  0  0  0  0  0  0  0
    3.8945   -3.8507  -19.3077 C   0  0  0  0  0  0  0  0  0  0  0  0
    5.0049   -2.9272  -19.8409 C   0  0  0  0  0  0  0  0  0  0  0  0
    5.4467    7.0308  -26.1235 C   0  0  0  0  0  0  0  0  0  0  0  0
    5.3889    3.4971  -18.6890 N   0  0  0  0  0  0  0  0  0  0  0  0
    4.1659    3.2361  -20.5247 N   0  3  0  0  0  0  0  0  0  0  0  0
    2.9214    3.7464  -18.5572 N   0  0  0  0  0  0  0  0  0  0  0  0
    7.5555    3.2237  -19.4959 O   0  0  0  0  0  0  0  0  0  0  0  0
    4.4254   -1.7715  -20.4996 O   0  0  0  0  0  0  0  0  0  0  0  0
    6.5696    6.5842  -25.3401 O   0  0  0  0  0  0  0  0  0  0  0  0
    6.6313   -2.4247  -22.2916 F   0  0  0  0  0  0  0  0  0  0  0  0
    3.0915   -2.7829  -15.8056 F   0  0  0  0  0  0  0  0  0  0  0  0
    4.8877   -4.0199  -16.6546 F   0  0  0  0  0  0  0  0  0  0  0  0
    5.7064    8.2863  -26.5628 F   0  0  0  0  0  0  0  0  0  0  0  0
    5.2720    6.2069  -27.1899 F   0  0  0  0  0  0  0  0  0  0  0  0
    4.0244    3.4105  -23.1570 H   0  0  0  0  0  0  0  0  0  0  0  0
    7.7505    4.6897  -21.3976 H   0  0  0  0  0  0  0  0  0  0  0  0
    7.4975    1.9958  -22.6101 H   0  0  0  0  0  0  0  0  0  0  0  0
    4.4018    4.9440  -25.0695 H   0  0  0  0  0  0  0  0  0  0  0  0
    8.1470    6.1819  -23.3307 H   0  0  0  0  0  0  0  0  0  0  0  0
    7.9614   -0.3773  -23.1477 H   0  0  0  0  0  0  0  0  0  0  0  0
    4.2615    0.7721  -20.0373 H   0  0  0  0  0  0  0  0  0  0  0  0
    2.2750   -2.6853  -18.2623 H   0  0  0  0  0  0  0  0  0  0  0  0
    4.7548    3.9441  -16.7298 H   0  0  0  0  0  0  0  0  0  0  0  0
    6.3470    3.1215  -16.8507 H   0  0  0  0  0  0  0  0  0  0  0  0
    6.1958    4.8553  -17.2952 H   0  0  0  0  0  0  0  0  0  0  0  0
    4.3398   -4.8094  -19.0036 H   0  0  0  0  0  0  0  0  0  0  0  0
    3.1582   -4.0252  -20.1060 H   0  0  0  0  0  0  0  0  0  0  0  0
    5.6310   -2.5904  -19.0015 H   0  0  0  0  0  0  0  0  0  0  0  0
    5.6243   -3.4825  -20.5606 H   0  0  0  0  0  0  0  0  0  0  0  0
    4.5464    7.0283  -25.4914 H   0  0  0  0  0  0  0  0  0  0  0  0
    3.3753    3.1788  -21.1343 H   0  0  0  0  0  0  0  0  0  0  0  0
    2.0460    3.7057  -19.0389 H   0  0  0  0  0  0  0  0  0  0  0  0
    2.9448    3.9542  -17.5793 H   0  0  0  0  0  0  0  0  0  0  0  0
  1  4  2  0  0  0  0
  1  8  1  0  0  0  0
  2  5  1  0  0  0  0
  2  8  2  0  0  0  0
  3  6  2  0  0  0  0
  3  9  1  0  0  0  0
  4 10  1  0  0  0  0
  5 10  2  0  0  0  0
  6 12  1  0  0  0  0
  7  9  2  0  0  0  0
  7 11  1  0  0  0  0
  8 17  1  0  0  0  0
  9 17  1  0  0  0  0
 10 27  1  0  0  0  0
 11 12  2  0  0  0  0
 11 26  1  0  0  0  0
 12 28  1  0  0  0  0
 13 17  1  0  0  0  0
 13 22  1  0  0  0  0
 13 25  2  0  0  0  0
 14 22  1  0  0  0  0
 14 23  2  0  0  0  0
 14 24  1  0  0  0  0
 15 16  2  0  0  0  0
 15 19  1  0  0  0  0
 16 29  1  0  0  0  0
 16 30  1  0  0  0  0
 17 23  1  0  0  0  0
 18 22  1  0  0  0  0
 19 20  1  0  0  0  0
 20 26  1  0  0  0  0
 21 27  1  0  0  0  0
 21 31  1  0  0  0  0
 21 32  1  0  0  0  0
  1 33  1  0  0  0  0
  2 34  1  0  0  0  0
  3 35  1  0  0  0  0
  4 36  1  0  0  0  0
  5 37  1  0  0  0  0
  6 38  1  0  0  0  0
  7 39  1  0  0  0  0
 15 40  1  0  0  0  0
 18 41  1  0  0  0  0
 18 42  1  0  0  0  0
 18 43  1  0  0  0  0
 19 44  1  0  0  0  0
 19 45  1  0  0  0  0
 20 46  1  0  0  0  0
 20 47  1  0  0  0  0
 21 48  1  0  0  0  0
 23 49  1  0  0  0  0
 24 50  1  0  0  0  0
 24 51  1  0  0  0  0
M  CHG  1  23   1
M  END
> <OMEGA_C>
zw6dQKP9gEARcrnBEpDgQIT3l0BJgrHBzkPcQIPXmz9+dLHB+QSkQPaLnEA0KMLBnrDnQNsas0AM
RLrB88zkQE52Ar5T17PBgK6hQKAeBT/h0qXBqsq6QKkQfkBS6rDBhAe6QExLxz8alarBPHLJQJAu
tkA8jcLB4uOpQNIzVb/SKqjB2MrLQDymk79pVK/BjRTLQML+VEAqZJ3BTkmDQGrwYEA29pnBdodM
QGbHTsBW8ZDB/0FuQHrLVsBM1IbBEQeyQJI0QUDahqfByRe2QDM2eEDKb4rBSUB5QHdxdsApdprB
JyigQP9WO8Ajup7BIkuuQLf84EDh/NDBtXGsQNnPX0AXg5XBY0+FQHQbT0CaMqTBGfg6QA3Fb0A2
dZTB1cbxQGBRTkCI95vBFJ2NQMTB4r8d/6PB0jnSQJSx0kB2uMrBWTPUQKgtG8AdVbLB2dpFQAQb
MsDV43zBamicQMKigMCFPIXBrJq2QMSUBEG3gNTBObSoQNiexkDWhNnB3seAQHZFWkCfQbnBKgT4
QFQSlkBFLqvBHuvvQLZ3/z+N4bTBv9uMQGE1nkBnjsjBAloCQVfSxUBDpbrBsMP+QHExwb51LrnB
7l2IQFCqRT9nTKDBQpkRQDbcK8AnGZLBtCeYQNZrfECU1oXB1hrLQNnFR0A6zobB/UPGQIJem0Ch
XIrB7d+KQPPmmcBUB5jBzx9KQIbOgMAf2aDBdDG0QI7JJcAZA5jB/PmzQNTgXsAxfKTB73uRQCTo
4EB67svB1wRYQAhxS0AKE6nBrPECQEUqbUC6T5jBuXc8QAcSfUCAoozBNiGaQK0Wg0B91bjBSZPe
QPwwmEDPFbHBq4nZQIgkrT8AXrPBeDOiQIaFnUBpucHBUr7mQNsxskD4/rnBGLHkQFByej13prbB
wBqqQOj31D5cvqXBug+4QP1SgEBOXLDB12e7QLjWxj8kD6vBHrzIQDZutUCdUcLBpiC2QGeeZr+V
+6jBkQHTQLI1h78AibHBdzvKQFFzVEDGSJ3BfvKCQOkEZ0Cs+JnB2U42QAecTMC6Po/B9WdHQD6w
LsCCH4XBPOWwQBILP0DFUafBq4u2QDHchEAY9YrB1wF9QP1VV8BvW5fBmnKHQFrp/L/NJpzBf7Gv
QB9C4EAqCtHBDpesQK7bdEBKJJbBoUqEQOYXRkCOoqPBxO86QH2KeECLcpTB3ZfwQGO5SUBnsJvB
P1+oQJvkBMADG6TBAfbSQGYF0ECiy8rBfnPeQBTiEsBTzrTBibsFQEy1GcD7Nn3BooCMQMy6IcBz
0oHBkVuUQDz+9kDmvsrBvqW/QJqg+kAGrNjB4rl5QGuHYUAfebjBSNT1QOJPlkD5tarB2xPoQKw0
DUDENrfBFgOLQC2dn0D3G8jBly8CQX/jw0BedrrBRgb7QHtSmb1UJ73BUcqTQOC8DD+7O5/B5rrq
Py+oXMBBa5HBuKeZQCsqkUAn+4bBZKPBQBfBT0DjzYbBzM/PQDdZnUCqtYrBvXibQGI4cMCAcZPB
0L1oQEDsgcDkr53BgRtUQB33yr8u2p/BD++RQDh4pb+cxZXBmM2eQNIzxUAvw9TBU1ZVQOxYNEAP
4qfB+j0CQFAMbECQ0JfBepU9QHbViEDjGI3BVaLgQJZ1lkAfw7HBdtibQDH3gUD0Y7nBCgjVQBB8
lD+eQLPBT23nQBuZskD8V7rBkKSiQPE6nkB59sHBJaveQNYKRL7LIbXBw7SpQKGFAT9i46PBoUa6
QKP3fEDIELHBv8S5QEmBwj+6sarB6HnIQIJht0ChbMLBcOezQLr9WL9jiKXBLXzOQMU4mb+6V67B
jzHLQKFnVED1uJ3BcK2DQNbDZUDhYprBiiBGQOT7XsBRmZDB3gVHQMtNNsAe14bBV9uxQLr/PkBp
xafBAae2QK0se0A55IrB8Y2LQN3pdcAWo5bB/6iRQLTXO8DWg6DBgX2uQE7M5ECr8NDByzitQEyI
b0C8TpbBoTmFQO/ASkCiT6TBQu87QOzjdECK25TBuGLxQJu0R0ANF5zBioioQKzk3b8scp3BYJfR
QCO81ECUecrBpTnbQH8ZHsDbErDBT+/3PxPUJcB33YHBwamIQAbeHMCyQ4LBiwOgQGUlxkAqxNfB
OwOOQMi680COssrB39D4QPgPk0DwpavBxEh+QLJ6XUBGKLnB5XLiQE9o9j9+WLjBxGECQYLLxECQ
v7rBvgCLQNjaoEAmO8jBrKfyQBnq7L6X1rvB/iuVQJs+Rz8ASp3BIh4JQAFLb8BsHJTB9qWZQGOC
iEAmuIbBRUrBQP36PUC+cofBixjQQNWelUAh9InBnzGnQOE0bsAPRpHBkYCJQKd2nMDJSJnBFx2k
QENpXsAzo6bBxldkQC1KKsB2x6PBKwm7QK6a/0AqtNXB3DNXQGSqP0D35ajBXokDQJcza0CocJjB
+u49QI6+hECRSY3BNifeQG0JmEDYELHBaf6ZQOTFgkA+7rjBd/zYQITIqT8ccbPBDibmQA60skB8
3bnBO/KhQHXFnUCpucHBjWXlQJilDD3iaLbBapeqQF1Eyz65i6XB1tO3QC6cf0DRcbDBbuu6QLbg
wz/mH6vBvj7IQA4gtkBmNcLBjha4QOjoar/gb6jBbQ3VQOj9ib8I9rDBaSjKQNCYUkCPbJ3BmhWD
QNfwZ0CmHJrBj007QMubWcAfgI/BKeU6QK79LcC78YXBlIuwQNeyPUBLbqfBnfq2QMeWg0CbC4vB
1/uEQE4OW8A5e5bB5Q2IQGJWBMB/R5zBHJCvQJ+530DnNtHBItmsQB7Sc0ApQ5bB0A2EQKIpRUA+
rqPB8Ls7QOTUfECkqZTBNYDwQOgqR0As4JvBmzytQEFHBcDo/qLB93/SQLUk0UAYnMrBuzLiQNBF
FMCezrPBOTjhP7MUJcBcioDBD3eBQCdQCMBNKILBO3OTQFgi90ARTsvBCMO/QGHk+EC2ENnBvmf1
QHvrlUAYsqrByMV5QKhYYEBbqLjBhn7mQAZoC0C3irfBNMkBQSTGxECcOrrBPNWKQC72n0ATIMjB
SKf7QE/N2L107LzByPCTQCWNCD+yHJ/BRHgCQD1Me8AfCpLBK2CaQPVukEDJC4fBSFDBQM9OTEAq
+IbB1tjQQO1sm0AUuIrB15+hQN8AZcDVhJHB4GWCQHqGh8D9YJzBDo5WQGWR9L9aMKHB+s6KQLjq
oL/hXpbBoFafQP3Gw0D8s9TBhJlUQHR6MkCR0KfB3bcCQLiEcUCeApjBdhM/QL6ai0C9Yo3B

> <OMEGA_E>
kB1IPgDGbT5gfXE+EGt1Pg==

> <OMEGA_NBR>
    110965

$$$$
50168772
  -OEChem-04172616093D

 50 52  0     1  0  0  0  0  0999 V2000
    7.1667   -0.0169  -22.7201 C   0  0  0  0  0  0  0  0  0  0  0  0
    6.8420    1.2939  -22.3421 C   0  0  0  0  0  0  0  0  0  0  0  0
    4.8316    4.0888  -23.1276 C   0  0  0  0  0  0  0  0  0  0  0  0
    6.9783    4.7338  -22.1695 C   0  0  0  0  0  0  0  0  0  0  0  0
    6.5257   -1.1072  -22.1112 C   0  0  0  0  0  0  0  0  0  0  0  0
    5.0704    4.9368  -24.2269 C   0  0  0  0  0  0  0  0  0  0  0  0
    7.2194    5.5691  -23.2701 C   0  0  0  0  0  0  0  0  0  0  0  0
    5.2409    0.4261  -20.7110 C   0  0  0  0  0  0  0  0  0  0  0  0
    5.7754    3.9881  -22.0766 C   0  0  0  0  0  0  0  0  0  0  0  0
    5.8545    1.5372  -21.3569 C   0  0  0  0  0  0  0  0  0  0  0  0
    6.2717    5.6897  -24.3000 C   0  0  0  0  0  0  0  0  0  0  0  0
    5.5667   -0.9061  -21.1002 C   0  0  0  0  0  0  0  0  0  0  0  0
    6.3288    3.3333  -19.6762 C   0  0  0  0  0  0  0  0  0  0  0  0
    4.1003    3.5995  -19.2545 C   0  0  0  0  0  0  0  0  0  0  0  0
    5.5393    2.9838  -20.9280 C   0  0  1  0  0  0  0  0  0  0  0  0
    5.7109    4.1341  -17.3772 C   0  0  0  0  0  0  0  0  0  0  0  0
    3.9002   -3.3070  -18.7654 C   0  0  0  0  0  0  0  0  0  0  0  0
    4.3046   -1.9154  -19.2925 C   0  0  0  0  0  0  0  0  0  0  0  0
    3.5690   -3.2199  -17.2631 C   0  0  0  0  0  0  0  0  0  0  0  0
    5.4923    6.9919  -26.1691 C   0  0  0  0  0  0  0  0  0  0  0  0
    5.4003    3.8317  -18.7805 N   0  0  0  0  0  0  0  0  0  0  0  0
    4.1437    3.1193  -20.4760 N   0  3  0  0  0  0  0  0  0  0  0  0
    2.9292    3.8334  -18.5491 N   0  0  0  0  0  0  0  0  0  0  0  0
    7.5258    3.1593  -19.4718 O   0  0  0  0  0  0  0  0  0  0  0  0
    4.9760   -2.0485  -20.5654 O   0  0  0  0  0  0  0  0  0  0  0  0
    6.5846    6.5460  -25.3423 O   0  0  0  0  0  0  0  0  0  0  0  0
    3.2937   -4.4591  -16.7823 F   0  0  0  0  0  0  0  0  0  0  0  0
    2.5002   -2.4050  -17.0544 F   0  0  0  0  0  0  0  0  0  0  0  0
    5.8145    8.2069  -26.6772 F   0  0  0  0  0  0  0  0  0  0  0  0
    5.2950    6.1185  -27.1917 F   0  0  0  0  0  0  0  0  0  0  0  0
    7.9125   -0.1881  -23.4823 H   0  0  0  0  0  0  0  0  0  0  0  0
    7.3501    2.1259  -22.8069 H   0  0  0  0  0  0  0  0  0  0  0  0
    3.9206    3.5103  -23.0860 H   0  0  0  0  0  0  0  0  0  0  0  0
    7.7163    4.6576  -21.3846 H   0  0  0  0  0  0  0  0  0  0  0  0
    6.7710   -2.1120  -22.4218 H   0  0  0  0  0  0  0  0  0  0  0  0
    4.3374    5.0144  -25.0163 H   0  0  0  0  0  0  0  0  0  0  0  0
    8.1434    6.1255  -23.3265 H   0  0  0  0  0  0  0  0  0  0  0  0
    4.5238    0.5938  -19.9210 H   0  0  0  0  0  0  0  0  0  0  0  0
    4.8096    4.5165  -16.8758 H   0  0  0  0  0  0  0  0  0  0  0  0
    6.0509    3.2183  -16.8715 H   0  0  0  0  0  0  0  0  0  0  0  0
    6.5052    4.8938  -17.3331 H   0  0  0  0  0  0  0  0  0  0  0  0
    3.0158   -3.6626  -19.3144 H   0  0  0  0  0  0  0  0  0  0  0  0
    4.7324   -4.0104  -18.9157 H   0  0  0  0  0  0  0  0  0  0  0  0
    3.4037   -1.2968  -19.4181 H   0  0  0  0  0  0  0  0  0  0  0  0
    4.9818   -1.4346  -18.5712 H   0  0  0  0  0  0  0  0  0  0  0  0
    4.4543   -2.8105  -16.7545 H   0  0  0  0  0  0  0  0  0  0  0  0
    4.5841    7.0661  -25.5530 H   0  0  0  0  0  0  0  0  0  0  0  0
    3.3417    2.8793  -21.0228 H   0  0  0  0  0  0  0  0  0  0  0  0
    2.0440    3.6341  -18.9696 H   0  0  0  0  0  0  0  0  0  0  0  0
    2.9699    4.2014  -17.6202 H   0  0  0  0  0  0  0  0  0  0  0  0
  1  2  2  0  0  0  0
  1  5  1  0  0  0  0
  2 10  1  0  0  0  0
  3  6  2  0  0  0  0
  3  9  1  0  0  0  0
  4  7  1  0  0  0  0
  4  9  2  0  0  0  0
  5 12  2  0  0  0  0
  6 11  1  0  0  0  0
  7 11  2  0  0  0  0
  8 10  2  0  0  0  0
  8 12  1  0  0  0  0
  9 15  1  0  0  0  0
 10 15  1  0  0  0  0
 11 26  1  0  0  0  0
 12 25  1  0  0  0  0
 13 15  1  0  0  0  0
 13 21  1  0  0  0  0
 13 24  2  0  0  0  0
 14 21  1  0  0  0  0
 14 22  2  0  0  0  0
 14 23  1  0  0  0  0
 15 22  1  0  0  0  0
 16 21  1  0  0  0  0
 17 18  1  0  0  0  0
 17 19  1  0  0  0  0
 18 25  1  0  0  0  0
 19 27  1  0  0  0  0
 19 28  1  0  0  0  0
 20 26  1  0  0  0  0
 20 29  1  0  0  0  0
 20 30  1  0  0  0  0
  1 31  1  0  0  0  0
  2 32  1  0  0  0  0
  3 33  1  0  0  0  0
  4 34  1  0  0  0  0
  5 35  1  0  0  0  0
  6 36  1  0  0  0  0
  7 37  1  0  0  0  0
  8 38  1  0  0  0  0
 16 39  1  0  0  0  0
 16 40  1  0  0  0  0
 16 41  1  0  0  0  0
 17 42  1  0  0  0  0
 17 43  1  0  0  0  0
 18 44  1  0  0  0  0
 18 45  1  0  0  0  0
 19 46  1  0  0  0  0
 20 47  1  0  0  0  0
 22 48  1  0  0  0  0
 23 49  1  0  0  0  0
 23 50  1  0  0  0  0
M  CHG  1  22   1
M  END
> <OMEGA_C>
7VXlQABcirzEwrXB7fHaQHyepT+ovLLBwZyaQIHXgkBVBbnBSk7fQEJ7l0AlW7HBmdLQQLq3jb+v
47DBfkCiQE/6nUCw0MHBqAXnQEQ2skBAKbrBL7WnQKkj2j4nsKXBuM+4QAg9f0DXnLDBxVe7QHPB
xD8G26rBvbHIQNYRtkBbZsLBrSKyQJv3Z78wzajBU4XKQHlUVUDuaJ3BATaDQIleZkAgCZrBl0Gx
QL32PkCTbKfBpL+2QEtKhECNBIvBvpx5QBmlU8CTH5bBFr+JQHor9b8ZV5rB8GlkQNcSTsDMGorB
LcGvQOK930BoWtHBU8+sQKI6dUCPPpbBdpmEQEujR0DVzqPBMnc7QP1WdUCcZJTB9tLwQFcxSkBO
xpvBuDufQHMaA8D6haTBtrTSQMh40UDzvMrBgMxSQFOxjsAgQobBEAMgQPnrGcB0b4jBPxC6QHVP
A0HpatXBxHCpQJTKw0CHiNnBVjP9QNulQL6t27vB/DPrQOsOCECLdLbBeOt6QPinYEAqsLjBmuv2
QCILlUC7E6vBLqzYQCwrB8DxX7PBDMyKQMl1oEBfIcjBbksCQbIDxECTnLrBQsOQQAsFGD82Xp/B
IuiZQEWHkEC5AYfBX6HBQHb4TUDs+IbBQirQQAeanEAnqorBbwJBQGRnasDTg5rBum+XQERVgMBx
U5fB7dVZQJj+pb9XWJvB62qfQC6it7/rkZTBT4mOQH3fM8A4CYbBA7GSQCId4kCKbMzBqN1VQBFG
OEDELqjBvtACQHWVaECqwZfBWhM+QMdxhkAf9ozBcBLlQADUmDobA7bBKEzZQGs9pz9vL7PBS4Ca
QHCzgkBrGLnBkGneQFJZmEC8MbHB+GDTQLlkjL/imbDBzHGiQEClnUCO6MHB52zmQGrlskDnBLrB
FR6pQDkb1j7egaXBGDS4QMDpf0AklLDBGMO6QO+6xD+7BavBYaTIQPw4tkDqZcLBoZy1QNRMab9T
SKjBp0rKQDJYVEDve53BtCuDQCjsZkBuCprBUriwQGnJPkDDeqfBRDO3QFSyhECkIIvBlAGCQDa1
UMAEzJTBuneIQEbb9b9nqZrBwk1UQKIqQMBDNorBQPqwQFhz40BMLtHB+eqsQKJndUBrUZbBhzeE
QGMnR0BUxKPBurA7QFrTdkBrYJTBLZvwQOW1SEBN6pvBjDGnQDl3BMCPNKPB/FTTQGhr0UB2ysrB
UwBQQFq6hMDOaYTBIN4DQKcWI8BCOIzBlnGhQNr3xUC9KtjBo+2QQLYf80DF6crBGtr7QN4WJL5G
YbzBm6nnQPRMCUBzRrfBj/R6QCbvX0Aa1rjBFZT1QIh1lkDYzKrBY7rcQPhCBsCO2bLBhmKLQJOh
n0AhU8jB3+oBQbb9xEB9YLrBmyCSQHCkEz+mLp/BdZOaQCdkkUCUG4fB2NvBQDTdTkDrBofBG+HQ
QM6/nECf3YrB1BZeQOgvfMD91pnBU1KhQNDgbcCQG5PB/G5TQC9zy79/Bp7BnTGUQPGZlb+D8pTB
val4QOd0D8CyxYXBsqa+QEgf/kCby9XBFtdUQEDxNkB/C6jBvtgCQM38aUAMr5fBlLU+QKeQh0BO
/IzBqSDiQNADa70ACrbBVsvWQJISoT9ObrPBiLCaQGISg0DlHbnBJ+ffQH9zlkA9irHBEvLRQJOg
kL8ZD7DBV2SiQCd2nkCd18HBx57nQNKcsUA3RLrBjXOpQA7f2j5W7qTBB/q4QLqYfkDywLDBWPi5
QCDrwj838qrBZPrIQFZatkB0aMLBstO1QND1aL9zdKfBD2jKQDZ3VECDjp3BDDiDQELFZkDVIJrB
rd+wQKikPkAPkqfBdgS3QOZ1g0D8GIvBPBeCQJt9UcD7QJTBJm6EQMY//78eKpvBg11OQME5QcBs
I4rBDKWvQAri30AMWtHBRuqsQNyCdECNV5bB9liEQJraSEAq8aPBxrY7QM92dUCIbZTBla7wQFK6
SECn8ZvBdKyqQJChAsAqmKHBvJrSQDSp0kBkl8rBLu1xQFAxAcDSPYTBLXJMQFifhMDbE4TBkde5
QHwBA0FN2tXB1zmpQLGHwkD+NtnB2mb3QOnIe77RrbzB9CzkQBkXBUDT77fBGc56QNqIYUDBzLjB
J9T3QKEik0BRXKvBuDPbQGjmCMB9FrLBvt6KQJ1SoUC7IcjBfLMCQSQMw0Afu7rBrHSTQNc/HD/q
bZ7BfFOaQETdj0ARDYfBEJ7BQFDTS0DIHYfBr6/QQM9+m0A5tIrBL5hmQNKWgsA48pjB5qSiQL1/
ZMA/5ZHBX1xQQGw6+L9lZaDBc1eFQMH1jb+r8ZXB1FgNQKSCL8BGr4zBg52SQLwd40DYcMzBRhRV
QDHwOkAqV6jBResCQCYlaUBVx5fB7qE+QEkwhkCR94zBkOPfQAjNnr6GgbPBWY3ZQGSkiD/4q7HB
Jc6dQIJYgECpjbnBKA3iQCBxlkBe47HBDWbHQCafor87563BZIijQNFVnUCeBcLBMvTnQFQWs0By
a7rBAOeiQIkxBT8XcaTBZGu8QAOjekDGPLHB0zm6QH5yvz+fP6rBF7fIQE9Vt0BKdMLBjqmoQM+I
Wr/AQabBsBnMQCAoVUBGkp3BNBeEQKWrYUDaXprB0X6zQKL6PkBHtqfBYwy2QMtFeUBerIrBmpeW
QJZtRsCCuZDBtgqfQArqPcAy45zBXbNSQPOyZ8AsDY7BWWasQKhl4UAs/NDBww+tQHURYkA405XB
A6mGQCKQTkA5jqTB58A7QGumb0BuA5XBXrDyQMEpTkDuAJzB3huNQH7X3L/n8aDBjVzQQFA41UCq
asrB1CgVQE/MMcAKvJHBoFNLQKNhbsB1PoPBzCa1QPjhA0FSjNXBF/2lQGPww0BR1NjBsp33QNsv
Ir8EO7nBk5fsQDjB5T/a7bXB+8KBQJZRWEBIYrnBflr6QC2Ok0CfyavBvRvMQMyoFMAUc6/B7JOL
QOvWn0DXN8jBjmUCQaMQxkAM0brBcCKMQO2KVz8HeZ7BO8KXQLeLf0BgQobBC8TJQBgjR0AR84bB
xl7HQDFEm0BXc4rB9i2uQAErc8B7WY3BA6CaQEQYB8A8BI3Br8LBQPNwPsAZVp7BRSSQQEQsdMAT
FKHBwa9LQHOJk8AlyJHB2sGPQLfe40BI6MvBaUFbQIoES0D3hKnB9S0EQNhXa0DE8ZjBwjM8QEUK
fkDsN43BytTkQMBrBryV77XBRqHZQMdxpj+fDrPBlLCaQJaOgkDQFbnBf8reQDH+l0AiQLHBUUTS
QMj3jL80prDBBYSiQMiKnUBK5MHBTanmQMCkskCOELrB9KSoQE6G2T5XgaXBsH+4QMiKf0C+l7DB
vd26QALdxD+n9arBlLPIQAgjtkDIZsLBHWW0QCcZaL+mXqjBCFjKQBhPVEBocJ3B7RGDQHRBZkDi
CJrBp+ewQBfaPkCYdafB29q2QBTOg0DKAovBf3R9QESMUcBubZXBM1KHQBRa879tsJrBBhJYQFGY
RsC4ForBycuwQCXl4kA3QNHBZ7+sQLS4c0D0NpbBB0+EQApyR0BKzqPBrk07QIF+dkBkbJTBA7Pw
QHhGSUAh3pvBacGkQG3ZA8AIfaPBYTXTQLaJ0UCmxMrByd0NQNFBGcDpcorByJWIQDlvHMB4x4PB
1OehQKz/xECvN9jBeFyQQOZD8kA8D8vBQ9T7QGbMM76ePrzBwJvoQFWuCEDIDbfBl1h7QPihX0Be
z7jBliH2QOrllUBu5qrBpwPbQCy9BsCu9rLBCmGLQPCNn0BKSsjBSAwCQYKwxEB6crrBQcmRQMPt
Fj8PKZ/Bm/mZQIHEj0AU94bBFSzCQFldTUA59YbB1//PQAxpnEDQt4rB6KhPQIF7dcBuYJrBg/qc
QFRMdcBC55TBJA5SQB/Qvb+Zq53BpzyVQBPom7/Xu5TB7P1LQO53g8Av2obBCze+QOik/UBO4tXB
WypVQCz+N0BfJ6jB/4gCQAStakAqz5fBVh0+QJ0Ch0Do/YzBasvgQPiHBr5V/7PBxd/ZQK8snj/2
17HBtDefQBpLgUDkf7nB3YTfQOyinUDu8bDBhvnHQEFXj7+z0q7BZyamQPr4m0BXT8LBsD7mQC2j
uEDgzLnB7DChQJIDID+7X6XB1ry7QFi4gUAjvbDBBHG5QLEu0D/Mk6rB13jJQBwJuEAEe8LBrcGn
QEXnPL+fbKfBgKjLQODpWEA6SZ3Bh7mDQERPYECe55nB/d2yQDRGRkDed6fBfpe1QCgrbkB0G4rB
5AVxQBzVcsAHd5rBPGyaQLE/P8C0zqDBvolqQNITWMBMkY7BC9G1QHQI8UDjbs7BHdqsQCAYa0AN
oZXBsiaGQIzaVUCiR6TBPjY7QKqcX0D3OZTBBh/yQHr5TkBexJvBnYKMQB0xz7/CJqLBaPvSQF66
zkA8ncvB+hgyQEJBhsCvgonBipVOQHIbBsBwhY3Bfs28QN6O+kDm3tjB9a+LQLDW5kD4UM3ByDn5
QHaZ2b6Ro7nBtE7tQFcK/j9IvLXB+teDQPZmWEDqZLnB7p31QOYsnkCrTarB7YPNQNaRCsAnf7DB
4FuQQLoUm0AlA8nB0sEAQXrczUBd8bnBxvqIQAkCaz/cq5/BcPeXQEPUfUDOxoXB/oTBQD+BL0Dh
bIfBWtvNQIK8j0AeeojBBjwyQD4GacBZQJ7BJQqBQFeJm8Ay1JrBTOi4QNYfQMC2aJzBUu6eQLSy
XMB8uKjBzkqVQIrdXsCaA4vBj1+9QDeCBkHIcMnBkJBaQNYcWEBxTqnBH8EDQBHAVkATEJjB+bA7
QHf4Z0CRS4zB+MzeQJ2qXr4qlLPBRwTYQH8zlD9807HBT9idQKSfgUBcqbnB2bHhQNMxmECL0rHB
firHQDPllr+uyK3BYqSkQGk5nUD3WMLBR6zoQBdys0B5k7rBoeyhQPi7Gz9seKTBCse7QDIFf0Ag
MbHBc864QD+Eyj+eWqrB4yTKQCaytkAjzsLBS2SoQJpsQ79TGqbBz5TLQMccWUCsmp3Bb9yDQDNJ
YkC0G5rBSHCyQDkcREDMr6fBpl+2QPbHdUCeh4rBRBJ4QGb9dMA2hJjBC7CbQCfHQMBndp/BRhN2
QKLhWMBWrIzB2Q+uQMjG4kA229DBkiStQIzCbkB8AZbBvtGFQL+xVEBUcaTBsTk8QEGjYkDARZTB
xtzxQGBGTUDFAZzB9wyPQB2hz7+zBaDBbqDSQAMA00AKCcvB/PuiQLzzWsB9ZIjBv3ZDQIjph8Dz
FIfBtzm4QL63BEEED9XBANOjQMtpx0A+6tjBZDj2QJPiCb/LY7nB9ZvqQCSh8T/SLbbBOIeBQCOp
W0DBcLnBBlb5QDcLlkARi6vB/3zMQLjODsAwMa/Bz0WNQP0Sn0AqssjBmt0CQQsUxkA2/7rBy+CK
QOAYbj+akZ7BcQSZQGPXg0BrOIbBDw7CQA3fN0CahofBQfvOQC6Gk0AJPYnBbW03QDhnbcC53pvB
SGWFQJZmnMC72pjBRtu7QPYGRcAC7pvBNz+cQCivW8Dfl6fB+NdbQPmaF8AQV4zBK++SQMz45UBM
TsvBUXJZQKR0VUDDZ6nBWl4EQDgVWECw8pfBQ6Y9QDhybUCuY4zB8D3eQLnMhr44cbPBTN/XQK/8
jj/Nx7HBnnqeQANigEDcz7nBrbrhQHjql0BS3bHBLqHGQClTm78Igq3ByPGkQPxZnEDacsLBZ0To
QNyus0B1ibrB6F+iQLCUGD9+OaTBVTm8QKZAfUB9TLHBdSO5QAFzxz94P6rB7M/JQE7etkArysLB
JVioQJZ4R7+iyqXB19DLQAL/WEDnp53BhA+EQMHgYkCwPprB49WyQNLyQkA7u6fBAmm2QHj+d0Dk
p4rBJ0RxQD8Kb8CfuJfBKeuaQMDpP8D7bp7BiWhrQGtBTMDQK4zBTauuQDnx40DtN9HBA0ytQEe5
b0B0IJbB6y2GQIn8U0CqjKTBQVk8QNgSZEA0d5TBahPyQA5hTUC5AZzBLECOQLjezr8rwZ/BU1HS
QJUj1ED248rBgXOWQL7ja8ByM4bB9+wfQB+1ZMCYs4fBhe+gQFKjxUAeO9jB2NCNQPdO8UBa38rB
NlT1QI/MGL+kSrnBEWzqQDUi6z/4P7bBCI2CQE8RWEDtqrnBj2v5QGXWlUBzmKvBL6DLQH43EcDp
167BWMyNQIe0nUAR28jB+oACQcXTxkBC4brB1ceLQM36bT+UQZ7BMAmZQBRLhUBxZobBPPPBQL5a
OkCBiIfBjhbPQCWelEBHb4nBI6oyQHcLZ8DvnpvBEdGAQDS7mcAqZpfBTfC5QCjgQsBvSprBOr2d
QMyGXsCWU6bBfUJvQN0IBsDCkozBKGq6QCyS/0AY0NXBhkxaQDsmVECniKnBnqUEQGcnWUBHKZjB
HWw9QPbab0B/mozBG4ngQAFUnr529rLBHkLZQFYviT+sirHBo5meQEdFfkD66bnBdDPhQF6El0DC
wrHBMavIQOg3ob8KFq3Bf7CkQFram0BSbMLBlE7nQAAZtED4R7rBe1WiQDw2DT/KWaTBtze8QGfM
ekCwXLHBd3K5QIiswT8QTKrBOfXIQLUrt0BIjcLBmCqpQNjlUr/IsKXBeNLLQHIZVkBivJ3BjQyE
QJaZY0CKcZrBoeOyQB4SQEC00qfB9UW2QAUndkBKw4rBkB90QCLKcMCuJ5fB4GebQJ2AQsCeSJ7B
nVZ2QNc3U8BAU4vBayOtQAEu4EAyV9HB2letQFunbUBCPpbBRjeGQBQJUUDSp6TBHAk8QJ1Ma0DA
zpTBXhLyQDZ1SkCUEpzB3ceOQApn1L/Ou5/BYZ/QQBgl1UCMe8rBQ443QFkdfMCEzIXB7jhpQJQZ
+79EZorBOD+NQJnr8kDslcvB0kS7QP9f/ECox9jBiYT4QL6bJL/vlLjBoPHrQBtO5T9O+rXB6heD
QLtsVED15bnBYdP4QDFulUDveavBGWfOQDgpFMA9Oa7Btb2NQN8knUAX4MjBJcwBQSnvx0BwfbrB
H8eKQL28Yj8Rn57BKOiYQJC6hEC6jYbBX3TBQGhnOEC6l4fBtinPQNd6k0C1iYnBh+YzQBcbZMBs
ZJrBkYWAQAf7msC7a5fBVfq6QKz2RMChZ5rBTxudQMNbYsCiHqbB/7WaQNtgZMB4D4jBzD6hQKb0
wkD8PdXB/TRaQFazTkD2mqnBIxwEQPyGYkAjipjBQx09QIKfeUAAA43BIJ3hQKgNJL50UrXBkpLX
QKDtlj9hCrPBFmvgQFgMlkBsm7HBa0ObQETygUBxF7nBof3PQOKKmb9RIq/BAzLnQBz9sUDJO7rB
KgWiQAsPnkB+tcHBU66oQKYO4D6fkqTBX/O5QCNlfEBu0bDBaXi6QAQvvz8ivarBcx/IQKWvtkDH
R8LB6eSzQMsUa7+rl6bBKhrLQB9zUkBfeJ3BOZWDQMzOZEDUOprBmd+xQIEyPUDPkqfBj6q2QAuX
gUAL74rBdyOKQEAZOcA9BI/BA/GLQPrl2b9D9ZbBS/JgQJU3g8BrIpPBoJytQOnV30AmLtHB1aus
QIRgZECmv5XBlByFQITtR0A/FKTBun48QISdfEB1BpXBX8PxQFiOS0DYAZzBQe+lQLK2/78YYKDB
j9fQQAi500D/XsrBFs6BQOpQksDHWpzBVhgOQFamb8D005TBIka3QO/PAkGp7dXBB2mnQCauwUCF
3djBYfX2QMqLyb4K27vBvB/mQNdu/D84pLfBn7X4QA6wkkDehKvBKr18QOkMXkBYyLjBixTYQIli
DsDG8rDBoEsCQbsRxECusbrBzySKQEvtoEAK6sfBOUuSQKDhKj+vQJ7BsMmYQG8rhkCmbIbB+9LK
QMzYU0BhzobB9OLHQCs3oEAGeIvBlBWrQGoyTsDVY43BvZV2QA2rIsDhi4fB3GJWQIGwu78fk5nB
4LKZQIzXVL+p05LBQfdjQAcbnMBF7IzB9J2QQDU040AhQ8zBtPlWQEz9OkAGl6jBdDwEQOVDeEDY
zJjBw+c+QCkRiUA8f43B

> <OMEGA_E>
UOBGPoBvXT74DGE+gI5hPkhEZD6AEWs+oMpvPoDEdz7gpn0+wJGAPg==

> <OMEGA_NBR>
    119750

$$$$
50168788
  -OEChem-04172616093D

 49 52  0     1  0  0  0  0  0999 V2000
    4.7983   -1.8191  -20.2025 C   0  0  0  0  0  0  0  0  0  0  0  0
    4.2174   -2.6367  -19.5218 C   0  0  0  0  0  0  0  0  0  0  0  0
    7.0177   -0.0877  -22.6741 C   0  0  0  0  0  0  0  0  0  0  0  0
    6.3590   -1.1187  -21.9780 C   0  0  0  0  0  0  0  0  0  0  0  0
    6.7638    1.2586  -22.3504 C   0  0  0  0  0  0  0  0  0  0  0  0
    4.8859    4.0736  -23.1474 C   0  0  0  0  0  0  0  0  0  0  0  0
    7.0324    4.7417  -22.1997 C   0  0  0  0  0  0  0  0  0  0  0  0
    5.1125    4.9077  -24.2532 C   0  0  0  0  0  0  0  0  0  0  0  0
    7.2633    5.5644  -23.3116 C   0  0  0  0  0  0  0  0  0  0  0  0
    5.1912    0.5440  -20.6292 C   0  0  0  0  0  0  0  0  0  0  0  0
    5.4519   -0.7979  -20.9498 C   0  0  0  0  0  0  0  0  0  0  0  0
    5.8286    4.0038  -22.0941 C   0  0  0  0  0  0  0  0  0  0  0  0
    5.8228    1.5880  -21.3410 C   0  0  0  0  0  0  0  0  0  0  0  0
    6.3038    5.6726  -24.3332 C   0  0  0  0  0  0  0  0  0  0  0  0
    6.3505    3.3477  -19.6600 C   0  0  0  0  0  0  0  0  0  0  0  0
    4.1041    3.4968  -19.2239 C   0  0  0  0  0  0  0  0  0  0  0  0
    2.8938   -3.0022  -17.3687 C   0  0  0  0  0  0  0  0  0  0  0  0
    4.1323   -3.9030  -17.3014 C   0  0  0  0  0  0  0  0  0  0  0  0
    3.5041   -3.5687  -18.6597 C   0  0  0  0  0  0  0  0  0  0  0  0
    5.5691    3.0417  -20.9310 C   0  0  1  0  0  0  0  0  0  0  0  0
    5.6915    3.9219  -17.2951 C   0  0  0  0  0  0  0  0  0  0  0  0
    5.4575    7.0051  -26.1399 C   0  0  0  0  0  0  0  0  0  0  0  0
    5.3928    3.5121  -18.6729 N   0  0  0  0  0  0  0  0  0  0  0  0
    4.1688    3.2292  -20.5061 N   0  3  0  0  0  0  0  0  0  0  0  0
    2.9191    3.6916  -18.5302 N   0  0  0  0  0  0  0  0  0  0  0  0
    7.5606    3.2548  -19.4824 O   0  0  0  0  0  0  0  0  0  0  0  0
    6.5842    6.5379  -25.3736 O   0  0  0  0  0  0  0  0  0  0  0  0
    5.7540    8.2347  -26.6254 F   0  0  0  0  0  0  0  0  0  0  0  0
    5.2173    6.1570  -27.1745 F   0  0  0  0  0  0  0  0  0  0  0  0
    7.7195   -0.3300  -23.4584 H   0  0  0  0  0  0  0  0  0  0  0  0
    6.5484   -2.1513  -22.2314 H   0  0  0  0  0  0  0  0  0  0  0  0
    7.2881    2.0448  -22.8732 H   0  0  0  0  0  0  0  0  0  0  0  0
    3.9848    3.4802  -23.0998 H   0  0  0  0  0  0  0  0  0  0  0  0
    7.7764    4.6706  -21.4200 H   0  0  0  0  0  0  0  0  0  0  0  0
    4.3790    4.9669  -25.0437 H   0  0  0  0  0  0  0  0  0  0  0  0
    8.1867    6.1198  -23.3838 H   0  0  0  0  0  0  0  0  0  0  0  0
    4.5022    0.7799  -19.8318 H   0  0  0  0  0  0  0  0  0  0  0  0
    1.9228   -3.3741  -17.0098 H   0  0  0  0  0  0  0  0  0  0  0  0
    2.9812   -1.9290  -17.1436 H   0  0  0  0  0  0  0  0  0  0  0  0
    5.1083   -3.4760  -17.0272 H   0  0  0  0  0  0  0  0  0  0  0  0
    4.0499   -4.9212  -16.8933 H   0  0  0  0  0  0  0  0  0  0  0  0
    2.9404   -4.3798  -19.1439 H   0  0  0  0  0  0  0  0  0  0  0  0
    4.7570    3.9768  -16.7175 H   0  0  0  0  0  0  0  0  0  0  0  0
    6.3659    3.1865  -16.8320 H   0  0  0  0  0  0  0  0  0  0  0  0
    6.1759    4.9094  -17.3032 H   0  0  0  0  0  0  0  0  0  0  0  0
    4.5769    7.0590  -25.4829 H   0  0  0  0  0  0  0  0  0  0  0  0
    3.3770    3.1615  -21.1131 H   0  0  0  0  0  0  0  0  0  0  0  0
    2.0434    3.6307  -19.0093 H   0  0  0  0  0  0  0  0  0  0  0  0
    2.9403    3.8929  -17.5509 H   0  0  0  0  0  0  0  0  0  0  0  0
  1  2  3  0  0  0  0
  1 11  1  0  0  0  0
  2 19  1  0  0  0  0
  3  4  1  0  0  0  0
  3  5  2  0  0  0  0
  4 11  2  0  0  0  0
  5 13  1  0  0  0  0
  6  8  2  0  0  0  0
  6 12  1  0  0  0  0
  7  9  1  0  0  0  0
  7 12  2  0  0  0  0
  8 14  1  0  0  0  0
  9 14  2  0  0  0  0
 10 11  1  0  0  0  0
 10 13  2  0  0  0  0
 12 20  1  0  0  0  0
 13 20  1  0  0  0  0
 14 27  1  0  0  0  0
 15 20  1  0  0  0  0
 15 23  1  0  0  0  0
 15 26  2  0  0  0  0
 16 23  1  0  0  0  0
 16 24  2  0  0  0  0
 16 25  1  0  0  0  0
 17 18  1  0  0  0  0
 17 19  1  0  0  0  0
 18 19  1  0  0  0  0
 20 24  1  0  0  0  0
 21 23  1  0  0  0  0
 22 27  1  0  0  0  0
 22 28  1  0  0  0  0
 22 29  1  0  0  0  0
  3 30  1  0  0  0  0
  4 31  1  0  0  0  0
  5 32  1  0  0  0  0
  6 33  1  0  0  0  0
  7 34  1  0  0  0  0
  8 35  1  0  0  0  0
  9 36  1  0  0  0  0
 10 37  1  0  0  0  0
 17 38  1  0  0  0  0
 17 39  1  0  0  0  0
 18 40  1  0  0  0  0
 18 41  1  0  0  0  0
 19 42  1  0  0  0  0
 21 43  1  0  0  0  0
 21 44  1  0  0  0  0
 21 45  1  0  0  0  0
 22 46  1  0  0  0  0
 24 47  1  0  0  0  0
 25 48  1  0  0  0  0
 25 49  1  0  0  0  0
M  CHG  1  24   1
M  END
> <OMEGA_C>
3ouZQPHX6L/JnqHBWPWGQA7AKMC1LJzB1pDgQHiPs72eZLXBqnzLQKQwj7//0q/BwnDYQIoZoT+T
zbLBilmcQDNbgkDlLbnBYAnhQPy7l0DjmLHBaJmjQIkLnUCdBsLBOG3oQDgPskA8frrBtB6mQNhB
Cz+wCKXB8nWuQG5CTL89mafBMoS6QIkfgEC8wLDBXlS6QO1Eyz9zuqrBzLjJQKOFtUB2qsLBmDfL
QPA/VkCYR53BZFSDQFLMX0CVypnBADQ5QEQjQMAT84rB/DuEQKbKecA1aYrB8EJgQEJlZMAjR5XB
qjWyQGyqQkCXcqfBACG2QCYAe0BHXIrBqKOuQOMp4EB+HtHBApKsQMjFYEAMYpXBFWeFQKSrTkB0
DKTBTdI6QNZCbEDfPZTBbPDxQOxNUEAJ3JvBtLHSQNk20UAn/crBiCC4QEzBA0HgANXB4vOmQPMF
xUBUZdnBLwb3QDL8qL7TqrvB34zRQI6uCcD/2bHB/TfpQKfeAkA8/LbBUAd/QOS7XkB+zLjBDtj4
QMl1lUAtXKvBvCCMQPjwnkCQWcjB3fwCQXbVw0D+EbvBwxGQQFKoRz+Lp57Bah72P+jxV8AYFIjB
U8w+QJfo9r8xJonBD3ejQAN3XsCjN4jBgZiBQFB6ncCLJYfBNTA8QDYnjMCzJpnB9jiYQF6EfkB7
vYXBZbXLQNfvS0DYp4bBX6HFQCYanUAIbYrB2nWSQAXj4UDx3MvB0iBYQIBWSkCL56jBmMcCQMhc
aEAIE5jB0S08QHoleUBHaIzBE9WaQBwC7b/N0qHBOiGHQA0oKcCYYJzB5aXhQGgUzL1qkLXB2h/N
QHMJkr+L+a/BEO3YQC8ynz91+LLB8M3gQFSllkDnmbHBPIebQNptgkBOALnBL+/nQPB/sUD8Z7rB
W66iQHBlnUCGzcHBy1WnQPqMAT8BIaXBlA6wQBDRVL//uqfBSBe6QMXZfkCFsLDBo/K6QBmGxz/7
06rBfPPIQLTGtUCvfcLBRBbLQH1mVEBRTJ3BolCDQCVSYUBh8ZnBiwM6QDyFOcD2DYvBjWaBQHM3
e8DtqorBdkNcQPwMYcCudpXBpSmyQI9QQEC0d6fB1ge2QDjIfEAcgorBH+WvQFBs4ECBntHBhmis
QBi2YEC+dJXBrEWFQM1mSkAHBqTB+T87QFRhdEAAmJTBJtDxQBH7TkAx25vBunDSQOQY0kBbvMrB
giOjQDpswEDbQ9jB7DGOQPh+70Al0MvB1yL4QNjqqb4127vBeqTTQJPvCsAJALLBmyLpQIdoAkA+
M7fBgf/4QJ+ok0AMeqvBA+h8QKCmX0CqkrjBKsoCQaAcw0Bi/LrB+AGLQNadn0CuEsjB0mWRQAll
Oz+9s57BldzzP5XWSsDBH4jBVvFGQFbX678fNInBO/qhQES/ZsD4h4jBavF2QBfVncCac4fBKJ8y
QIJSiMCVVJnBPyCYQDXFgECW54XBM3DLQKIZTkAHq4bBCcDFQBbfnUCPv4rBLX68QIbK+kBghtbB
xahXQF4KQUB9u6jB/j4DQNMJcUB6cZjBP+U8QKm7gkAJ44zB

> <OMEGA_E>
wPkoPcDJmz0=

> <OMEGA_NBR>
    121709

$$$$
50168783
  -OEChem-04172616093D

 40 42  0     1  0  0  0  0  0999 V2000
    6.4228   -1.1239  -21.9428 C   0  0  0  0  0  0  0  0  0  0  0  0
    7.0966   -0.0850  -22.6116 C   0  0  0  0  0  0  0  0  0  0  0  0
    5.4610   -0.8218  -20.9605 C   0  0  0  0  0  0  0  0  0  0  0  0
    6.8082    1.2566  -22.3027 C   0  0  0  0  0  0  0  0  0  0  0  0
    5.1655    0.5189  -20.6519 C   0  0  0  0  0  0  0  0  0  0  0  0
    4.8675    4.0846  -23.1503 C   0  0  0  0  0  0  0  0  0  0  0  0
    7.0294    4.7168  -22.2141 C   0  0  0  0  0  0  0  0  0  0  0  0
    5.0987    4.9256  -24.2510 C   0  0  0  0  0  0  0  0  0  0  0  0
    7.2655    5.5448  -23.3216 C   0  0  0  0  0  0  0  0  0  0  0  0
    5.8200    1.5746  -21.3359 C   0  0  0  0  0  0  0  0  0  0  0  0
    5.8158    3.9932  -22.1046 C   0  0  0  0  0  0  0  0  0  0  0  0
    6.3007    5.6743  -24.3354 C   0  0  0  0  0  0  0  0  0  0  0  0
    6.3434    3.3617  -19.6801 C   0  0  0  0  0  0  0  0  0  0  0  0
    4.1058    3.5547  -19.2373 C   0  0  0  0  0  0  0  0  0  0  0  0
    5.5531    3.0316  -20.9376 C   0  0  2  0  0  0  0  0  0  0  0  0
    5.7066    3.9145  -17.3117 C   0  0  0  0  0  0  0  0  0  0  0  0
    5.4529    7.0482  -26.1096 C   0  0  0  0  0  0  0  0  0  0  0  0
    5.4028    3.7404  -18.7376 N   0  0  0  0  0  0  0  0  0  0  0  0
    4.1558    3.2178  -20.5042 N   0  3  0  0  0  0  0  0  0  0  0  0
    2.9301    3.7001  -18.5154 N   0  0  0  0  0  0  0  0  0  0  0  0
    7.5432    3.1964  -19.4859 O   0  0  0  0  0  0  0  0  0  0  0  0
    6.5837    6.5454  -25.3713 O   0  0  0  0  0  0  0  0  0  0  0  0
    5.7750    8.2639  -26.6142 F   0  0  0  0  0  0  0  0  0  0  0  0
    5.1526    6.2027  -27.1304 F   0  0  0  0  0  0  0  0  0  0  0  0
    6.6439   -2.1533  -22.1833 H   0  0  0  0  0  0  0  0  0  0  0  0
    7.8363   -0.3183  -23.3632 H   0  0  0  0  0  0  0  0  0  0  0  0
    4.9493   -1.6199  -20.4431 H   0  0  0  0  0  0  0  0  0  0  0  0
    7.3426    2.0496  -22.8048 H   0  0  0  0  0  0  0  0  0  0  0  0
    4.4354    0.7454  -19.8890 H   0  0  0  0  0  0  0  0  0  0  0  0
    3.9586    3.5032  -23.1018 H   0  0  0  0  0  0  0  0  0  0  0  0
    7.7774    4.6301  -21.4399 H   0  0  0  0  0  0  0  0  0  0  0  0
    4.3599    5.0024  -25.0350 H   0  0  0  0  0  0  0  0  0  0  0  0
    8.1964    6.0873  -23.3958 H   0  0  0  0  0  0  0  0  0  0  0  0
    4.7946    4.2169  -16.7761 H   0  0  0  0  0  0  0  0  0  0  0  0
    6.0773    2.9653  -16.8974 H   0  0  0  0  0  0  0  0  0  0  0  0
    6.4761    4.6916  -17.1930 H   0  0  0  0  0  0  0  0  0  0  0  0
    4.5940    7.1369  -25.4281 H   0  0  0  0  0  0  0  0  0  0  0  0
    3.3569    3.1032  -21.0946 H   0  0  0  0  0  0  0  0  0  0  0  0
    2.0479    3.5453  -18.9602 H   0  0  0  0  0  0  0  0  0  0  0  0
    2.9648    3.9596  -17.5503 H   0  0  0  0  0  0  0  0  0  0  0  0
  1  2  1  0  0  0  0
  1  3  2  0  0  0  0
  2  4  2  0  0  0  0
  3  5  1  0  0  0  0
  4 10  1  0  0  0  0
  5 10  2  0  0  0  0
  6  8  2  0  0  0  0
  6 11  1  0  0  0  0
  7  9  1  0  0  0  0
  7 11  2  0  0  0  0
  8 12  1  0  0  0  0
  9 12  2  0  0  0  0
 10 15  1  0  0  0  0
 11 15  1  0  0  0  0
 12 22  1  0  0  0  0
 13 15  1  0  0  0  0
 13 18  1  0  0  0  0
 13 21  2  0  0  0  0
 14 18  1  0  0  0  0
 14 19  2  0  0  0  0
 14 20  1  0  0  0  0
 15 19  1  0  0  0  0
 16 18  1  0  0  0  0
 17 22  1  0  0  0  0
 17 23  1  0  0  0  0
 17 24  1  0  0  0  0
  1 25  1  0  0  0  0
  2 26  1  0  0  0  0
  3 27  1  0  0  0  0
  4 28  1  0  0  0  0
  5 29  1  0  0  0  0
  6 30  1  0  0  0  0
  7 31  1  0  0  0  0
  8 32  1  0  0  0  0
  9 33  1  0  0  0  0
 16 34  1  0  0  0  0
 16 35  1  0  0  0  0
 16 36  1  0  0  0  0
 17 37  1  0  0  0  0
 19 38  1  0  0  0  0
 20 39  1  0  0  0  0
 20 40  1  0  0  0  0
M  CHG  1  19   1
M  END
> <OMEGA_C>
+YfNQMbbj7/Kiq/BixfjQFYlrr2E5LTBq8CuQIBjUr8ar6fBKN3ZQLPWoD/5a7LB80ulQIvWBD8p
N6XBZcKbQDm1gkDqM7nBCPHgQNDvlkCAtrHBwSijQDWenUAjAsLB+37oQKZusUCJkrrBHj26QGKL
yT/nr6rBZxu6QAeRf0Az1rDBT5/JQKuTtUD0rsLBDP3KQJUmV0DvcJ3BW2KDQG2AY0Dp5ZnBQ7Ox
QIAFQkA+gKfB0Jy2QOeGekBFforBDn6uQJmK4UBf4NDBWuOsQD5jb0C05pXBs/yEQA3xTUCmCKTB
x4Y7QPzNbECYH5TBTWLxQEeRTEAP45vBbq3SQLdz0UBS+MrB38y4QNg4BEHz6dTB+uGkQM58xkAO
C9nBiZrUQOTPCcBed7HB3cL6QLnzor7K57rBtWCeQAlYz7+Fi6PBMPbqQBUsA0AocLbBiO6NQLfP
Pj/GHJ/BXlp9QFU0YECT0LjBheD4QCcqlEDmhKvBDISLQAQUoECsR8jBeCQDQdnKwkCFKrvBqm2Z
QJrwhkB5NYbBN3nCQEHHPUDLLYfB0DvPQMIhlkBdi4nBygGTQGZh5EC+bMvBCNdWQI6aRkCowajB
KhEDQPzlYkBxrpfB+L49QMlqfUARZ4zB5RHPQKg8jb8Bw6/BONfjQHEQVL3+JbXBdW6wQPjjUb87
06fBmg7aQAdfpD+8nLLB3FemQBDQAz8wT6XBsLGbQIh9gkA/KLnBlvbfQKdgmECUdLHB3iKjQIUX
nUCJA8LB03jnQCq/skBsWLrBrZi6QCqdyj8AyarBZ7C5QJ1IgEAstbDB3CvJQErPtUBGocLB1+zK
QDGTVkDKYp3BYk+DQNUmZECz5pnBE6qxQK8WQkCidqfBq1+2QFsYekCXcYrBiryvQF4740BBIdHB
UtGsQCM3b0BJ3ZXB7POEQOv5TEBv+qPBcj87QIFFb0DYNJTBlT3xQGXrSkBy0pvBIfPSQBwH0UD9
EcvBkdmeQGfFxUBn7tfBuN2QQPAr80DGiMrBMaTWQLw3CMDjt7HBXFT7QHKlir42PbvBrKagQH5W
0L+WqaPBsJfqQLqVBUCypbbBeAOPQFsoOj9VKp/BWaN9QHAcX0COy7jBLoD3QEVxlkDBJavB/daL
QDzCnkDVYcjB7mkCQZ3hxEDU1LrB+C+ZQALvhkC3MIbB++7BQH0hPUDwH4fBAizPQIK3lUB7dYnB
FNS8QJHE/UBv5dXBEsJWQK3wQ0AHp6jBGtUCQG6AZUD8x5fBmlI9QHaHgEClhozBEovMQCXJhb+y
SLLBurLnQAAKxDtfdLXBTlyqQMBJS7/QO6vB6IzgQMzXpz/qpLHBGuqiQOy3Aj9JdqfBCvHhQOY0
m0ARirDBBMWfQGYzgEBfcbjBrpTnQLomtkByi7nBBFGlQMbAmkAgQ8HBaG69QKy0yj+2zarBUFC9
QBJkgEAp6K/BrLjIQBbutUB37MHB0q7LQG+LUUBFT5zBQGWDQGvUYkBaCprBJv60QFPXQECj3KbB
9FixQPNTbED7cYnBGCLjQH6c9EB548rBLvWqQNtkW0BO35TBvoCHQPeCS0AsBaTBWW45QMmOekCL
e5XBKhLyQIk0S0DXb5rBAoHLQAp0zUA7O8vBHgDkQGQbAkFBAtXBfDPPQDaxCEGxbcTBOvLRQM7d
AsB4Q7XBGQcBQRQ3Qr7A0brBA9SVQIlLzb+Ht6jBR+71QHgEB0B98bPBvdiIQAZWMj/y/KHBC175
QBcNm0DpL6rBf2yEQK02VkBFH7jBo5sBQQ3OykBdDbrBZhCOQDhdmkBIp8fBaRSSQEgvcUAKc4XB
atXDQKG3N0Dm3IXBa+/CQNlklEAbc4jB5+MBQZ857kAIA8jBtyxeQKgmQkCyDqnBBQkEQI9iekCW
5JnB3wo3QJ/rhUAdyY3B

> <OMEGA_E>
aIY6PlC8UT4cOrM+

> <OMEGA_NBR>
    124142

$$$$
50168790
  -OEChem-04172616093D

 51 53  0     1  0  0  0  0  0999 V2000
    4.7543   -1.7776  -20.1922 C   0  0  0  0  0  0  0  0  0  0  0  0
    4.1257   -2.5350  -19.4844 C   0  0  0  0  0  0  0  0  0  0  0  0
    7.0307   -0.1020  -22.6675 C   0  0  0  0  0  0  0  0  0  0  0  0
    6.3614   -1.1276  -21.9677 C   0  0  0  0  0  0  0  0  0  0  0  0
    6.7810    1.2502  -22.3544 C   0  0  0  0  0  0  0  0  0  0  0  0
    4.8699    4.1045  -23.1204 C   0  0  0  0  0  0  0  0  0  0  0  0
    7.0400    4.7338  -22.1988 C   0  0  0  0  0  0  0  0  0  0  0  0
    5.0938    4.9406  -24.2241 C   0  0  0  0  0  0  0  0  0  0  0  0
    7.2676    5.5599  -23.3092 C   0  0  0  0  0  0  0  0  0  0  0  0
    5.1913    0.5507  -20.6467 C   0  0  0  0  0  0  0  0  0  0  0  0
    5.4436   -0.7909  -20.9523 C   0  0  0  0  0  0  0  0  0  0  0  0
    5.8293    4.0092  -22.0842 C   0  0  0  0  0  0  0  0  0  0  0  0
    5.8343    1.5867  -21.3526 C   0  0  0  0  0  0  0  0  0  0  0  0
    6.2979    5.6815  -24.3199 C   0  0  0  0  0  0  0  0  0  0  0  0
    6.3504    3.3312  -19.6530 C   0  0  0  0  0  0  0  0  0  0  0  0
    4.1051    3.4875  -19.2291 C   0  0  0  0  0  0  0  0  0  0  0  0
    5.5768    3.0349  -20.9321 C   0  0  1  0  0  0  0  0  0  0  0  0
    2.9210   -2.6429  -17.3343 C   0  0  0  0  0  0  0  0  0  0  0  0
    4.2421   -4.6051  -18.1999 C   0  0  0  0  0  0  0  0  0  0  0  0
    5.6781    3.8595  -17.2828 C   0  0  0  0  0  0  0  0  0  0  0  0
    3.3634   -3.4109  -18.5989 C   0  0  0  0  0  0  0  0  0  0  0  0
    5.4408    7.1078  -26.0388 C   0  0  0  0  0  0  0  0  0  0  0  0
    5.3874    3.4581  -18.6646 N   0  0  0  0  0  0  0  0  0  0  0  0
    4.1736    3.2057  -20.5075 N   0  3  0  0  0  0  0  0  0  0  0  0
    2.9218    3.7405  -18.5519 N   0  0  0  0  0  0  0  0  0  0  0  0
    7.5615    3.2587  -19.4735 O   0  0  0  0  0  0  0  0  0  0  0  0
    6.5793    6.5283  -25.3733 O   0  0  0  0  0  0  0  0  0  0  0  0
    5.8006    8.3225  -26.5190 F   0  0  0  0  0  0  0  0  0  0  0  0
    5.0491    6.3136  -27.0698 F   0  0  0  0  0  0  0  0  0  0  0  0
    7.7366   -0.3531  -23.4455 H   0  0  0  0  0  0  0  0  0  0  0  0
    6.5508   -2.1634  -22.2081 H   0  0  0  0  0  0  0  0  0  0  0  0
    7.3117    2.0314  -22.8784 H   0  0  0  0  0  0  0  0  0  0  0  0
    3.9581    3.5288  -23.0608 H   0  0  0  0  0  0  0  0  0  0  0  0
    7.7917    4.6502  -21.4278 H   0  0  0  0  0  0  0  0  0  0  0  0
    4.3481    5.0197  -25.0013 H   0  0  0  0  0  0  0  0  0  0  0  0
    8.1953    6.1072  -23.3885 H   0  0  0  0  0  0  0  0  0  0  0  0
    4.4941    0.7956  -19.8590 H   0  0  0  0  0  0  0  0  0  0  0  0
    2.3487   -3.3149  -16.6780 H   0  0  0  0  0  0  0  0  0  0  0  0
    3.8091   -2.2762  -16.7988 H   0  0  0  0  0  0  0  0  0  0  0  0
    2.2903   -1.7900  -17.6254 H   0  0  0  0  0  0  0  0  0  0  0  0
    3.6756   -5.2709  -17.5322 H   0  0  0  0  0  0  0  0  0  0  0  0
    4.5404   -5.1584  -19.1026 H   0  0  0  0  0  0  0  0  0  0  0  0
    5.1402   -4.2415  -17.6792 H   0  0  0  0  0  0  0  0  0  0  0  0
    4.7435    3.8834  -16.7030 H   0  0  0  0  0  0  0  0  0  0  0  0
    6.3723    3.1366  -16.8294 H   0  0  0  0  0  0  0  0  0  0  0  0
    6.1366    4.8594  -17.2803 H   0  0  0  0  0  0  0  0  0  0  0  0
    2.4687   -3.7839  -19.1189 H   0  0  0  0  0  0  0  0  0  0  0  0
    4.6212    7.2155  -25.3131 H   0  0  0  0  0  0  0  0  0  0  0  0
    3.3825    3.1184  -21.1130 H   0  0  0  0  0  0  0  0  0  0  0  0
    2.0502    3.7139  -19.0413 H   0  0  0  0  0  0  0  0  0  0  0  0
    2.9402    3.9496  -17.5742 H   0  0  0  0  0  0  0  0  0  0  0  0
  1  2  3  0  0  0  0
  1 11  1  0  0  0  0
  2 21  1  0  0  0  0
  3  4  2  0  0  0  0
  3  5  1  0  0  0  0
  4 11  1  0  0  0  0
  5 13  2  0  0  0  0
  6  8  2  0  0  0  0
  6 12  1  0  0  0  0
  7  9  1  0  0  0  0
  7 12  2  0  0  0  0
  8 14  1  0  0  0  0
  9 14  2  0  0  0  0
 10 11  2  0  0  0  0
 10 13  1  0  0  0  0
 12 17  1  0  0  0  0
 13 17  1  0  0  0  0
 14 27  1  0  0  0  0
 15 17  1  0  0  0  0
 15 23  1  0  0  0  0
 15 26  2  0  0  0  0
 16 23  1  0  0  0  0
 16 24  2  0  0  0  0
 16 25  1  0  0  0  0
 17 24  1  0  0  0  0
 18 21  1  0  0  0  0
 19 21  1  0  0  0  0
 20 23  1  0  0  0  0
 22 27  1  0  0  0  0
 22 28  1  0  0  0  0
 22 29  1  0  0  0  0
  3 30  1  0  0  0  0
  4 31  1  0  0  0  0
  5 32  1  0  0  0  0
  6 33  1  0  0  0  0
  7 34  1  0  0  0  0
  8 35  1  0  0  0  0
  9 36  1  0  0  0  0
 10 37  1  0  0  0  0
 18 38  1  0  0  0  0
 18 39  1  0  0  0  0
 18 40  1  0  0  0  0
 19 41  1  0  0  0  0
 19 42  1  0  0  0  0
 19 43  1  0  0  0  0
 20 44  1  0  0  0  0
 20 45  1  0  0  0  0
 20 46  1  0  0  0  0
 21 47  1  0  0  0  0
 22 48  1  0  0  0  0
 24 49  1  0  0  0  0
 25 50  1  0  0  0  0
 25 51  1  0  0  0  0
M  CHG  1  24   1
M  END
> <OMEGA_C>
UCOYQBGI47+OiaHB+gWEQAs9IsAf4JvB2/vgQLD+0L0ZV7XBp5DLQIRWkL/dva/BUP7YQHwFoD/D
1bLBONabQPJXg0Ct9rjBvEfhQGx7l0AUl7HBZACjQDoZnkDtysHBz4/oQBbrsUBTebrB7B6mQBj8
DD9uLKXBNzKuQBx4Sr9VnqfBdIm6QElLgECDrLDB7bK6QHwayz8T0qrBO4jJQIjOtUArj8LByzbL
QKYyVUBXOZ3BAV2DQJ8yX0Al1ZnBHXWyQNw7QkDwdKfBRfI6QO0kKcC9rIrBHr+HQKVck8BimZHB
nrK1QFwCd0AbQ4rBs0FXQMNMWsByypTBDBuuQCdz40B5T9DBXGWsQBRSXUAPUZXBSY6FQFwqTUBu
D6TBSP86QLFkb0BRapTBnffxQMuNUECryZvBUonSQAXo0ECG/MrBzp65QP8oBUHSJtTBdZKhQK8I
ykDejtjB3ZH3QKLEtL5ckLvBy5/RQK90CsBEqrHBZPnpQLsBAkDgBrfBZ1F9QELXYUCbfLjBg1X5
QEDOlEAnbKvBhCOLQMehoECjAsjB0R8DQQJuw0CyG7vBzc+PQM6uSz9U357BSlEWQE4nVMB6bIXB
2MhzQNqsEcDvY4bBhZMSQAof5b/eAI3BoD1rQE2rqMD/QYzBnkqRQMgRpcAP0pjBtHykQAq6h8D6
bo3BBcuXQH+JeEDLn4XBlenLQLW+SECqoobB7V7EQB6Am0D8PYrBBP8dQH0rcsBv85jBeuCTQBLl
5kBRgcrBLHtYQEuTR0BT56jB2zUDQD6xbUCOVJjBcCs8QDLGfEDul4zBluCaQChf579uV6HBcrSH
QCjgJcAztZvBCfDhQLviv728TLXB0HbNQAIqkL/2lK/Bzg3ZQFiJoD+b4LLBdeHgQBOCl0Cqj7HB
UNCbQFetgkDZCLnB7QjoQNEqskALarrBHc+iQGConUCn0cHBhhCnQLSvCT+GDaXBWwawQAZxTb8O
cafB01S6QNntf0ACtrDBRN66QGpNyj/YzqrBiBHJQK7ktUD1hsLBUUPLQHTPVUB0Vp3B+3SDQKub
Y0CN/JnBJkuyQNnLQUAyfKfBDdY6QEYPLcCVHYvBxEKPQMgtksCpXJDBJvW1QEVadkAmVYrBm+Zg
QPWlX8ATmJTB5qGtQIqi4EAJ69DBl9WsQK2ebEAoy5XB/XOFQILXTECuEaTBhQc7QHc/cECCc5TB
C5vxQJHnSkCNvZvBs+XRQDh10UB248rBx1m4QMUsA0ExitXBdCGjQAT6w0CFq9jBRn34QMAWrL6N
jbvBIUvUQCs2CsBTbbHBKUfpQFitAkCJLbfB/d34QATxlEDNX6vBjsx9QHujX0DNnrjBy8cCQQz5
w0ASAbvBPwWLQIT+n0AkD8jBrb6QQANNRj/wu57Be/YXQPAQWcCkzoXB3M5uQE8HDsBLn4bBzZwO
QEoB+L9gKY7BnMB7QOkCqMDI/4rBvIScQI9lpMB7H5fBN3epQEO7gsAU74vBTn+YQCtdhEB0GYbB
1t3BQAdUOUADHIfB9VrOQNUklED9M4nBx4wsQEQPf8DY+ZjBgnmSQFQu5UCob8vB0gtYQPQkREBN
zajBBusCQBj9Z0BoKJjBam08QG/PgEDpwIzB8heZQMot4r+77qDB6FKFQMesIcA5NZvBW2XhQEB2
3L0r7LTBvFPMQEIZkL8RK6/Bh9HYQE2Wnz9RqLLBHMbgQLvpl0CNqLHBzyucQOx8gkD/Q7nBvRLo
QFx8skDUg7rBiHGjQHUznUBLGMLB+filQBjWED9v66TBpK+uQPzSR7+bIafBglq6QOcpgEB43bDB
L066QNwEzD+3uarBGXvJQG/vtUDDucLBsSvLQDbZV0Cnd53BrX2DQKZVY0DG+pnBng2yQMUhQ0D1
j6fBTvk2QCUjJMC4h4rBcyOKQK9GkMAdyY/BqWC2QOSFe0B9jIrBj/xZQBnyWMBYAZTBaPuvQHuK
4UBvl9HBZuesQKBPcEBk95XBgkiFQG5PT0DAJ6TB1mw7QHoLakBFN5TBlGHxQMRqS0Cr1pvBEAXT
QLis0UBmFMvB6V6hQFd/wkApSdjBHpCPQFUF8UCtZ8vBqiv4QM6Cu75FFbvB7NvSQFd7CsBb6LDB
jofpQHh4AUB4+bbB3pH4QMiRlUCOa6vBIJl+QEwcX0De4bjBqb8CQTB+xEBlCbvBfwmMQPT3nkCw
b8jBkmqPQOifUT/RsZ7BW3ESQDQwTsAZJoXBK6VsQEFYB8DrHYbBU+MMQIdw4r+Lko3BM6dvQHoW
pcDCXIrBlj2WQDBHo8AUjJbBszulQGAagsAqbYvB4x2ZQJWFh0AqT4bBBRnCQAXCPkA8NYfBlwfP
QA+VlkCYkonB7tsjQNjidcCwUJjBRqS8QKn5+0AHd9bBCKhXQHwmSUAS8ajBxUoDQApXX0Bz0ZfB
eRU9QGuWeUBKdYzBgxuZQDnn5L+6yqDBK22FQBIMI8CIDJvBIlThQCK0FL7k47TB7DDMQG5DlL8+
F6/BTA/ZQIMWmz+iorLBK5ScQG16gUAISbnBhvzgQJVkl0COq7HBHGKjQJivnEBbC8LB7s7nQHWC
skDKdLrBoIGmQEbPCj8nyqTB49GuQG5gTr/jAqfBv8y6QMGHfkAx5LDBBta6QP9eyD/Yp6rBRADJ
QLkWtkAdn8LBoW7LQBzDVkDScZ3BCqeDQHQsZEBAIZrB5Y+yQKluQUDmj6fBfKE0QBZ9JcBAkIrB
85eLQDKYj8BQPY/BEBq2QOd7e0APlYrBq+9aQHCjWsBCzpPBDzOvQIfB30BS3NHBIACtQBvrb0Bq
BJbBS7WFQGZXTUCDNaTBuFc7QAlpbkCLiJTBEqXxQN/jSkBywpvBF+bRQMu/0kBK18rB/t6jQEE/
v0AFhdjBh66MQMK97UDNLszBPOv3QBit0b7dE7vBQnjSQLqpDMBZ1LDBB8jpQFvv/T+3/rbB2QSA
QE4gXECa87jBHfn4QOjulEADe6vB3eyLQA9UnkA8YMjBl4QCQdfXxEA09brBP0OQQDMRTT94gp7B
BrUQQGvcT8BfKIXBkJFoQDAdBsD0GYbBYFIJQNor6b802I3BEk1zQLSUpMAHyInBR+2YQKS9osAm
1JXBm8qlQFgCgMDT1orBpsCYQD/Gh0Dea4bB6oHBQMu1PkAwLYfBH+DOQBBtlkAHlYnBD5cmQINU
esAnKJjBpyK7QDh5+kBpwNbBDalYQKEfRUAA+ajBF1YDQBw5ZECDMJjBxJQ8QF76f0Cc14zB

> <OMEGA_E>
uPM3PmCVPD6gF1Q+IENZPg==

> <OMEGA_NBR>
    127878

$$$$
50168798
  -OEChem-04172616093D

 48 50  0     1  0  0  0  0  0999 V2000
    4.9419   -1.8235  -20.1969 C   0  0  0  0  0  0  0  0  0  0  0  0
    4.4014   -2.6300  -19.4682 C   0  0  0  0  0  0  0  0  0  0  0  0
    4.8281    4.1098  -23.1522 C   0  0  0  0  0  0  0  0  0  0  0  0
    6.8100    1.3254  -22.3547 C   0  0  0  0  0  0  0  0  0  0  0  0
    5.0817    4.9446  -24.2574 C   0  0  0  0  0  0  0  0  0  0  0  0
    7.1316   -0.0073  -22.6699 C   0  0  0  0  0  0  0  0  0  0  0  0
    5.2200    0.5394  -20.6818 C   0  0  0  0  0  0  0  0  0  0  0  0
    6.9263    4.8203  -22.1347 C   0  0  0  0  0  0  0  0  0  0  0  0
    5.5511   -0.7918  -20.9810 C   0  0  0  0  0  0  0  0  0  0  0  0
    5.8257    1.6094  -21.3753 C   0  0  0  0  0  0  0  0  0  0  0  0
    5.7524    4.0403  -22.0808 C   0  0  0  0  0  0  0  0  0  0  0  0
    7.1809    5.6527  -23.2314 C   0  0  0  0  0  0  0  0  0  0  0  0
    6.2736    5.7076  -24.3079 C   0  0  0  0  0  0  0  0  0  0  0  0
    6.5035   -1.0698  -21.9893 C   0  0  0  0  0  0  0  0  0  0  0  0
    6.3322    3.3522  -19.6841 C   0  0  0  0  0  0  0  0  0  0  0  0
    4.1033    3.5660  -19.2300 C   0  0  0  0  0  0  0  0  0  0  0  0
    5.5288    3.0452  -20.9416 C   0  0  2  0  0  0  0  0  0  0  0  0
    8.4619    6.4589  -23.2650 C   0  0  0  0  0  0  0  0  0  0  0  0
    5.7190    3.9540  -17.3241 C   0  0  0  0  0  0  0  0  0  0  0  0
    3.7381   -3.5570  -18.5554 C   0  0  0  0  0  0  0  0  0  0  0  0
    5.5563    7.2430  -25.9879 C   0  0  0  0  0  0  0  0  0  0  0  0
    5.4047    3.7683  -18.7463 N   0  0  0  0  0  0  0  0  0  0  0  0
    4.1391    3.1963  -20.4880 N   0  3  0  0  0  0  0  0  0  0  0  0
    2.9336    3.7170  -18.5022 N   0  0  0  0  0  0  0  0  0  0  0  0
    7.5280    3.1525  -19.4925 O   0  0  0  0  0  0  0  0  0  0  0  0
    6.6177    6.4765  -25.4017 O   0  0  0  0  0  0  0  0  0  0  0  0
    6.8433   -2.3438  -22.2943 F   0  0  0  0  0  0  0  0  0  0  0  0
    3.2150   -2.8722  -17.5015 F   0  0  0  0  0  0  0  0  0  0  0  0
    6.0621    8.4470  -26.3565 F   0  0  0  0  0  0  0  0  0  0  0  0
    5.0824    6.5998  -27.0850 F   0  0  0  0  0  0  0  0  0  0  0  0
    3.9242    3.5195  -23.1211 H   0  0  0  0  0  0  0  0  0  0  0  0
    7.3149    2.1350  -22.8607 H   0  0  0  0  0  0  0  0  0  0  0  0
    4.3679    5.0030  -25.0658 H   0  0  0  0  0  0  0  0  0  0  0  0
    7.8628   -0.2172  -23.4365 H   0  0  0  0  0  0  0  0  0  0  0  0
    4.4927    0.7474  -19.9110 H   0  0  0  0  0  0  0  0  0  0  0  0
    7.6360    4.7750  -21.3219 H   0  0  0  0  0  0  0  0  0  0  0  0
    9.2566    5.8658  -23.7410 H   0  0  0  0  0  0  0  0  0  0  0  0
    8.2989    7.3821  -23.8405 H   0  0  0  0  0  0  0  0  0  0  0  0
    8.7609    6.7151  -22.2379 H   0  0  0  0  0  0  0  0  0  0  0  0
    4.8176    4.2877  -16.7893 H   0  0  0  0  0  0  0  0  0  0  0  0
    6.0663    3.0011  -16.8981 H   0  0  0  0  0  0  0  0  0  0  0  0
    6.5092    4.7121  -17.2193 H   0  0  0  0  0  0  0  0  0  0  0  0
    2.9300   -4.0792  -19.0887 H   0  0  0  0  0  0  0  0  0  0  0  0
    4.4688   -4.2920  -18.1867 H   0  0  0  0  0  0  0  0  0  0  0  0
    4.7544    7.3760  -25.2468 H   0  0  0  0  0  0  0  0  0  0  0  0
    3.3332    3.0393  -21.0589 H   0  0  0  0  0  0  0  0  0  0  0  0
    2.0493    3.5409  -18.9346 H   0  0  0  0  0  0  0  0  0  0  0  0
    2.9740    4.0021  -17.5445 H   0  0  0  0  0  0  0  0  0  0  0  0
  1  2  3  0  0  0  0
  1  9  1  0  0  0  0
  2 20  1  0  0  0  0
  3  5  2  0  0  0  0
  3 11  1  0  0  0  0
  4  6  2  0  0  0  0
  4 10  1  0  0  0  0
  5 13  1  0  0  0  0
  6 14  1  0  0  0  0
  7  9  1  0  0  0  0
  7 10  2  0  0  0  0
  8 11  2  0  0  0  0
  8 12  1  0  0  0  0
  9 14  2  0  0  0  0
 10 17  1  0  0  0  0
 11 17  1  0  0  0  0
 12 13  2  0  0  0  0
 12 18  1  0  0  0  0
 13 26  1  0  0  0  0
 14 27  1  0  0  0  0
 15 17  1  0  0  0  0
 15 22  1  0  0  0  0
 15 25  2  0  0  0  0
 16 22  1  0  0  0  0
 16 23  2  0  0  0  0
 16 24  1  0  0  0  0
 17 23  1  0  0  0  0
 19 22  1  0  0  0  0
 20 28  1  0  0  0  0
 21 26  1  0  0  0  0
 21 29  1  0  0  0  0
 21 30  1  0  0  0  0
  3 31  1  0  0  0  0
  4 32  1  0  0  0  0
  5 33  1  0  0  0  0
  6 34  1  0  0  0  0
  7 35  1  0  0  0  0
  8 36  1  0  0  0  0
 18 37  1  0  0  0  0
 18 38  1  0  0  0  0
 18 39  1  0  0  0  0
 19 40  1  0  0  0  0
 19 41  1  0  0  0  0
 19 42  1  0  0  0  0
 20 43  1  0  0  0  0
 20 44  1  0  0  0  0
 21 45  1  0  0  0  0
 23 46  1  0  0  0  0
 24 47  1  0  0  0  0
 24 48  1  0  0  0  0
M  CHG  1  23   1
M  END
> <OMEGA_C>
1yOeQGpp6b9Uk6HBEdiMQMBRKMD3vpvBf3+aQHWDg0CqN7nBk+vZQAanqT9e1rLBmZ2iQFQ6nkAY
D8LBYTbkQAA/8LvxW7XBgwqnQM4TCj9EdKXBoKTdQB1AmkDrE7HBNqKxQJizSr8g2afB+Wu6QBwA
zj+hAKvBghO4QO9JgUCKpbDBpcnlQA7jtEDS2bnBhMHIQPKktkCpdsLB0hzQQCDwiL8X6q/BoaHK
QBiKVkDyeJ3BGE6DQO44ZEAd15nBy+uwQP7jQkBeiKfB4GMHQZuvzkDSHrrBaAK3QKgNfUC/l4rB
UDxvQF+mY8BrcZTBW82xQIzG50BJ58/BdfOsQE4scUBe+JXBaXOEQPuQTEB556PB0MA7QMbjbUBu
BJTB/+TwQEfCSUCp8JvBisTTQH4/z0CnNsvBU/zaQJcBFsDCWrLB9MJNQAPSN8AYA4zBj/zBQNIm
B0Er2tLBZaOiQLAx00AartjBViZ7QO4+YUD697jBtBPqQHajCEC+4rbBK8aLQDIYoECshsjBSpz7
QEVwXr76fbvB18OPQIBWPz/LSZ/BXlr0QC/NmEA9k6rBIxsUQZu0u0Cp7b3BX8gEQXY67EBYub7B
oCwMQczh1kBD57HBnSmaQOM0iUCLUIbB6R7CQDYSQEA1L4fBGEvQQC7JlkAKwYnBPYU7QGqIgsCv
tZjBKwCPQOdXicBrfpHBMCSYQBQI7EB2+cnB5lJVQDyEQkCPeKjBfigDQNWeYkAXepfBlFU+QDwR
gEAmW4zB1tucQENy7b8e0aDBsNSMQAbmKcBPs5rB5hHgQO/WmUDeLLHBtpHXQE6znT+/G7PBqjfm
QFvqtEBAC7rBFLXfQPK56b06trXBqOymQKkHAT9xAaXBOp+cQIMkgkBhxrjBwoqvQOdRV786dafB
Eoa6QEYFxz+/zarBKrq6QABigEDmbrDBJo6iQCeWnEBVvMHBBsrHQLkpt0CPYsLBpPrLQMSgk78M
5a/BQFHLQBuGU0CSJ53BEmaDQIpNYEBB65nBVL6yQM+MQECAW6fB/jmBQHbPmECKhMrB9KS1QOAS
fUB8d4rB68xyQN0lZcCKEJPBCL2wQN+A6EBXXtDB5l+sQCueX0A6XJXBqsOFQIaBSkBvA6TBlMU6
QEmQckCVrJTBoBryQOuQT0BkwJvBaJ/SQJ0/0UBdBsvBBpHVQAgdHMCeSLLBrk1YQN/QOcDvNorB
Klq+QKdbCEHbkdLBCienQOdL1UDO1NnBBeX3QGl9mEDs7KrBs4bnQItUAUBBdbfBX18BQWdYyED1
errB7jH1QJJetL5+NLzBeQGRQKFcPT/hmJ7BwimAQOBEXUCoR7jBMh9PQF8+sEAOH8nBUkmQQIse
n0BQUNLBdVtnQAKlcEBKfMrBJ6iXQP2sgEC344XBEmHLQBF6T0DqiYbBRt3EQKI/nkBfzIrBooQ7
QDRagsDF0pbBKhmRQC7aisAmuJDBCmaUQBBf6UBMJ8vBRwVZQA/LQUDtzajB+jcDQJhwb0CPoJjB
zX07QNJtgUA08IzB

> <OMEGA_E>
sM+MPXDhmT0=

> <OMEGA_NBR>
    129805

$$$$
50168778
  -OEChem-04172616093D

 47 49  0     1  0  0  0  0  0999 V2000
    4.8824    4.0520  -23.1867 C   0  0  0  0  0  0  0  0  0  0  0  0
    7.0037    4.7365  -22.2018 C   0  0  0  0  0  0  0  0  0  0  0  0
    6.8128    1.2021  -22.2537 C   0  0  0  0  0  0  0  0  0  0  0  0
    5.1073    4.9227  -24.2711 C   0  0  0  0  0  0  0  0  0  0  0  0
    7.2324    5.5940  -23.2892 C   0  0  0  0  0  0  0  0  0  0  0  0
    7.1038   -0.1368  -22.5536 C   0  0  0  0  0  0  0  0  0  0  0  0
    5.1475    0.4633  -20.6191 C   0  0  0  0  0  0  0  0  0  0  0  0
    5.8158    3.9643  -22.1255 C   0  0  0  0  0  0  0  0  0  0  0  0
    5.8161    1.5231  -21.3035 C   0  0  0  0  0  0  0  0  0  0  0  0
    6.2870    5.7105  -24.3223 C   0  0  0  0  0  0  0  0  0  0  0  0
    5.4272   -0.8925  -20.9370 C   0  0  0  0  0  0  0  0  0  0  0  0
    6.4104   -1.1773  -21.9099 C   0  0  0  0  0  0  0  0  0  0  0  0
    6.3416    3.3591  -19.7027 C   0  0  0  0  0  0  0  0  0  0  0  0
    4.1113    3.5809  -19.2655 C   0  0  0  0  0  0  0  0  0  0  0  0
    5.5492    2.9981  -20.9481 C   0  0  1  0  0  0  0  0  0  0  0  0
    5.7203    4.0632  -17.3757 C   0  0  0  0  0  0  0  0  0  0  0  0
    4.6506   -2.1063  -18.9879 C   0  0  0  0  0  0  0  0  0  0  0  0
    3.7591   -3.3111  -18.6108 C   0  0  0  0  0  0  0  0  0  0  0  0
    5.4783    7.0187  -26.1777 C   0  0  0  0  0  0  0  0  0  0  0  0
    5.4093    3.8144  -18.7884 N   0  0  0  0  0  0  0  0  0  0  0  0
    4.1554    3.1929  -20.5179 N   0  3  0  0  0  0  0  0  0  0  0  0
    2.9402    3.7274  -18.5374 N   0  0  0  0  0  0  0  0  0  0  0  0
    7.5394    3.1845  -19.5027 O   0  0  0  0  0  0  0  0  0  0  0  0
    4.6710   -1.9479  -20.4307 O   0  0  0  0  0  0  0  0  0  0  0  0
    6.5772    6.6023  -25.3425 O   0  0  0  0  0  0  0  0  0  0  0  0
    6.6918   -2.4583  -22.2397 F   0  0  0  0  0  0  0  0  0  0  0  0
    3.6786   -3.4306  -17.2570 F   0  0  0  0  0  0  0  0  0  0  0  0
    5.7687    8.2424  -26.6848 F   0  0  0  0  0  0  0  0  0  0  0  0
    5.3113    6.1404  -27.2015 F   0  0  0  0  0  0  0  0  0  0  0  0
    3.9891    3.4453  -23.1645 H   0  0  0  0  0  0  0  0  0  0  0  0
    7.7398    4.6636  -21.4149 H   0  0  0  0  0  0  0  0  0  0  0  0
    7.3536    1.9931  -22.7519 H   0  0  0  0  0  0  0  0  0  0  0  0
    4.3797    4.9910  -25.0663 H   0  0  0  0  0  0  0  0  0  0  0  0
    8.1447    6.1704  -23.3324 H   0  0  0  0  0  0  0  0  0  0  0  0
    7.8650   -0.3702  -23.2833 H   0  0  0  0  0  0  0  0  0  0  0  0
    4.4225    0.6947  -19.8528 H   0  0  0  0  0  0  0  0  0  0  0  0
    4.8172    4.4184  -16.8580 H   0  0  0  0  0  0  0  0  0  0  0  0
    6.0685    3.1308  -16.9074 H   0  0  0  0  0  0  0  0  0  0  0  0
    6.5088    4.8268  -17.3030 H   0  0  0  0  0  0  0  0  0  0  0  0
    4.2473   -1.1935  -18.5252 H   0  0  0  0  0  0  0  0  0  0  0  0
    5.6741   -2.2802  -18.6243 H   0  0  0  0  0  0  0  0  0  0  0  0
    2.7505   -3.1599  -19.0229 H   0  0  0  0  0  0  0  0  0  0  0  0
    4.1931   -4.2301  -19.0316 H   0  0  0  0  0  0  0  0  0  0  0  0
    4.5644    7.0676  -25.5674 H   0  0  0  0  0  0  0  0  0  0  0  0
    3.3542    3.0496  -21.0988 H   0  0  0  0  0  0  0  0  0  0  0  0
    2.0577    3.5329  -18.9655 H   0  0  0  0  0  0  0  0  0  0  0  0
    2.9783    4.0276  -17.5843 H   0  0  0  0  0  0  0  0  0  0  0  0
  1  4  2  0  0  0  0
  1  8  1  0  0  0  0
  2  5  1  0  0  0  0
  2  8  2  0  0  0  0
  3  6  2  0  0  0  0
  3  9  1  0  0  0  0
  4 10  1  0  0  0  0
  5 10  2  0  0  0  0
  6 12  1  0  0  0  0
  7  9  2  0  0  0  0
  7 11  1  0  0  0  0
  8 15  1  0  0  0  0
  9 15  1  0  0  0  0
 10 25  1  0  0  0  0
 11 12  2  0  0  0  0
 11 24  1  0  0  0  0
 12 26  1  0  0  0  0
 13 15  1  0  0  0  0
 13 20  1  0  0  0  0
 13 23  2  0  0  0  0
 14 20  1  0  0  0  0
 14 21  2  0  0  0  0
 14 22  1  0  0  0  0
 15 21  1  0  0  0  0
 16 20  1  0  0  0  0
 17 18  1  0  0  0  0
 17 24  1  0  0  0  0
 18 27  1  0  0  0  0
 19 25  1  0  0  0  0
 19 28  1  0  0  0  0
 19 29  1  0  0  0  0
  1 30  1  0  0  0  0
  2 31  1  0  0  0  0
  3 32  1  0  0  0  0
  4 33  1  0  0  0  0
  5 34  1  0  0  0  0
  6 35  1  0  0  0  0
  7 36  1  0  0  0  0
 16 37  1  0  0  0  0
 16 38  1  0  0  0  0
 16 39  1  0  0  0  0
 17 40  1  0  0  0  0
 17 41  1  0  0  0  0
 18 42  1  0  0  0  0
 18 43  1  0  0  0  0
 19 44  1  0  0  0  0
 21 45  1  0  0  0  0
 22 46  1  0  0  0  0
 22 47  1  0  0  0  0
M  CHG  1  21   1
M  END
> <OMEGA_C>
XDycQJqpgUBZfrnBix7gQDSRl0BbnbHBUwLaQDHemT+aB7LB726jQGyGnUBPK8LBem/nQM4Bs0Bd
ULrBHFLjQBQXDL6+bbTBOLikQEY27T7/86TBvhq6QNO2fUD8ALHBqh26QNf0wj+cbarBgy/JQMq8
tkAjlMLBn6utQFR7ZL/ufqfBpCHNQCuylr9sR6/BQe7KQAD8VkAIn53BkI+DQLMsZUCvH5rBEJOx
QI3hP0CzlafB4wy3QKAFgkCEAYvBvdGUQAXNBsBG55fBMpVwQM7oU8D74pTBkU6vQF6Z4EDYa9HB
BhmtQC4fdECgTpbBVvmEQEdYTECQJKTB8yw8QIONbkCUTJTBtELxQJvPS0CdBZzBOXmVQKpV+b8E
cqPBpnjSQNxF00BavcrB1CLWQBZUHcDQ6rHBvG1rQEqPW8BcDorBC5m4QM/gA0F7etXB0PWpQPh9
xEC3nNnB901/QKF/XEDwULnBg6z3QH08lUCyUavBnVDrQN0e/z/jA7bBHiaMQP+1n0DLh8jBgVAC
QclzxUC+qLrBIa77QFiEvb4wRLrB14SNQPTVMT+e0p7BKiaaQK9jjUAW3YbBYTHCQLFeSEBLQofB
8kfQQMh0mkCBbIrBfumHQHHDmL+hM5TB+ZG1QDrvEcB8/pTB7gcwQJo7SsDzLpjBOy6GQN5ch8C3
QJjBuA+SQMop4kAiiszBbKtWQPYrQ0BWyqjBBbEDQFMaYkBBuZfB15w+QAXigECZrIzBXsqaQMxX
gkBtH7nB0onfQFPTlkC+fLHBxrPYQJBNnD/RyLLBhBCiQDwnnkB/0MHBItHmQBhhskDjK7rBfk3j
QLaJyr2nabXBJ8yoQJDOzD4buqTB2Ci5QPJdfUC1wrDBkL26QGAtvz9amKrBKj3IQIewtkAyV8LB
KtyzQBlxcr8TWKfBWvPQQHMAlr+yza/BQcvKQNxZVEClh53B94KDQDQpZ0C7MZrBIlixQANaPUAm
fafBnB23QHi4gkBRDYvBDoiKQPls9r9miJjBxgmDQPoqU8AEHZPB4FeuQCDM4UCM/9DBUSutQHil
c0AgUJbBaseEQOsNR0DG5KPBhxs8QAQheUDSr5TBlC/xQH3jSUCc85vBez6kQKCuBcB0H6LBPsTR
QPuu0kBpncrBCAjcQCHNG8Amh7LBO/tgQEzbhcCB/ZnB34aSQDKD+ED41srB0Om9QEvY+0AKwtjB
l4N7QP1CX0BC1rjB+mz3QPv1k0DYSKvBZInnQLtvAkBlDLfBTX+KQL/NoEBfGcjBmx0CQVxzxEBl
k7rBib75QGIflr77y7vBCLaSQOg/GD9HRJ7BGlSaQHvdjkC1/4bBx9DBQBUzSkAnH4fBGavQQIXc
mkCzmIrBDvdWQHnSvb/BsZrB/E2bQEAkob/d7JLBh/2hQPsZbcAXdZDBDPJbQLhiSsAtJozBzwCe
QJkjxkB6mNTBJR1WQPJiN0AlO6jBP2EDQOWfbUCdGZjBqc8+QJrLiEBMTY3B/8ieQPBsfUCRC7rB
EsngQOOPl0BXsbHB5aTZQK3lhT8AR7HBI+qkQLvem0DIesLBfffmQEt7tEDYI7rBGoLhQCCBqb4s
krLBkrahQMbAAz8fXaTBpRy8QJbFeUB2bbHB4Cu5QGXOvT+yPKrBcubIQH+Qt0Azd8LBqiapQHzT
Xb+Gi6XB7ZvJQLwvpb9qy6zBVbPLQLAoVUD7153BlBeEQMytZEB/j5rBUZ6yQNyTPkAx4qfBgqa2
QE7OeUDx/YrBevSeQNwKO8AWJ5vB6aaAQAxtXMAfR5LB7wusQE9240B9ktDBPHmtQDwab0DJbZbB
/AeGQKqyT0AQtKTBbmQ8QKY8bkAH65TBoALyQHQOSkDqNJzBvnKNQKrB27+A9p/B53DQQHXy1UDj
TsrBTrbRQMheJsCDma7BdKdyQE9nH8AatYrBtcqNQBGe9UB6LsrBz3u5QGp+AEGixdfB8XiDQO4U
U0AqJbrBzSX4QNiclUAyWKvBJW7sQN9G4j9gqrXBey+OQLIunUDa+sjB8osBQTCPyECgPrrBXBv6
QNGdKL95C7jBLm2JQLTRWD9H0p7BbnyZQPRkh0AQ0obBGHnBQCZ2PECboIfBDeLPQK4XlUBZ9InB
UWq+QDOMLMBXpZfB35KiQM2EbMDnWKHBKvVDQMMCb8Ck6pXBp1ePQJZIisBxcY7BHqGeQPJ9x0AP
u9TBIpNZQBTaS0CnmKnBYkcEQLP+ZEB4lpjBzdY9QHJffkC7LY3B

> <OMEGA_E>
OB5JPgAwez4As4s+

> <OMEGA_NBR>
    132519

$$$$
50168789
  -OEChem-04172616093D

 49 51  0     1  0  0  0  0  0999 V2000
    4.8665   -1.8486  -20.2811 C   0  0  0  0  0  0  0  0  0  0  0  0
    4.3508   -2.7640  -19.6762 C   0  0  0  0  0  0  0  0  0  0  0  0
    7.0412   -0.0257  -22.7139 C   0  0  0  0  0  0  0  0  0  0  0  0
    6.3956   -1.0743  -22.0357 C   0  0  0  0  0  0  0  0  0  0  0  0
    6.7721    1.3095  -22.3652 C   0  0  0  0  0  0  0  0  0  0  0  0
    4.8705    4.1016  -23.1277 C   0  0  0  0  0  0  0  0  0  0  0  0
    7.0185    4.7668  -22.1803 C   0  0  0  0  0  0  0  0  0  0  0  0
    5.1099    4.9170  -24.2443 C   0  0  0  0  0  0  0  0  0  0  0  0
    7.2623    5.5706  -23.3038 C   0  0  0  0  0  0  0  0  0  0  0  0
    5.2108    0.5464  -20.6501 C   0  0  0  0  0  0  0  0  0  0  0  0
    5.4886   -0.7861  -20.9978 C   0  0  0  0  0  0  0  0  0  0  0  0
    5.8116    4.0325  -22.0735 C   0  0  0  0  0  0  0  0  0  0  0  0
    5.8290    1.6101  -21.3484 C   0  0  0  0  0  0  0  0  0  0  0  0
    6.3104    5.6649  -24.3337 C   0  0  0  0  0  0  0  0  0  0  0  0
    6.3446    3.3561  -19.6522 C   0  0  0  0  0  0  0  0  0  0  0  0
    4.0984    3.5036  -19.2105 C   0  0  0  0  0  0  0  0  0  0  0  0
    5.5599    3.0552  -20.9206 C   0  0  1  0  0  0  0  0  0  0  0  0
    5.6929    3.9352  -17.2866 C   0  0  0  0  0  0  0  0  0  0  0  0
    3.0392   -2.9113  -16.8537 C   0  0  0  0  0  0  0  0  0  0  0  0
    3.7381   -3.8785  -18.9635 C   0  0  0  0  0  0  0  0  0  0  0  0
    5.4658    7.0741  -26.0710 C   0  0  0  0  0  0  0  0  0  0  0  0
    5.3897    3.5350  -18.6660 N   0  0  0  0  0  0  0  0  0  0  0  0
    4.1594    3.2191  -20.4891 N   0  3  0  0  0  0  0  0  0  0  0  0
    2.9156    3.6982  -18.5132 N   0  0  0  0  0  0  0  0  0  0  0  0
    7.5540    3.2502  -19.4768 O   0  0  0  0  0  0  0  0  0  0  0  0
    6.6008    6.4967  -25.3969 O   0  0  0  0  0  0  0  0  0  0  0  0
    2.6434   -3.4136  -18.1474 O   0  0  0  0  0  0  0  0  0  0  0  0
    5.8281    8.2831  -26.5640 F   0  0  0  0  0  0  0  0  0  0  0  0
    5.0724    6.2704  -27.0936 F   0  0  0  0  0  0  0  0  0  0  0  0
    7.7444   -0.2460  -23.5035 H   0  0  0  0  0  0  0  0  0  0  0  0
    6.5949   -2.0996  -22.3104 H   0  0  0  0  0  0  0  0  0  0  0  0
    7.2864    2.1112  -22.8743 H   0  0  0  0  0  0  0  0  0  0  0  0
    3.9607    3.5223  -23.0726 H   0  0  0  0  0  0  0  0  0  0  0  0
    7.7548    4.7075  -21.3924 H   0  0  0  0  0  0  0  0  0  0  0  0
    4.3783    4.9746  -25.0367 H   0  0  0  0  0  0  0  0  0  0  0  0
    8.1884    6.1211  -23.3780 H   0  0  0  0  0  0  0  0  0  0  0  0
    4.5222    0.7597  -19.8460 H   0  0  0  0  0  0  0  0  0  0  0  0
    4.7584    4.0052  -16.7107 H   0  0  0  0  0  0  0  0  0  0  0  0
    6.3531    3.1865  -16.8244 H   0  0  0  0  0  0  0  0  0  0  0  0
    6.1950    4.9139  -17.2908 H   0  0  0  0  0  0  0  0  0  0  0  0
    2.1482   -2.5797  -16.3003 H   0  0  0  0  0  0  0  0  0  0  0  0
    3.5450   -3.7090  -16.2899 H   0  0  0  0  0  0  0  0  0  0  0  0
    3.7263   -2.0624  -16.9846 H   0  0  0  0  0  0  0  0  0  0  0  0
    3.3611   -4.6111  -19.6923 H   0  0  0  0  0  0  0  0  0  0  0  0
    4.4923   -4.3557  -18.3205 H   0  0  0  0  0  0  0  0  0  0  0  0
    4.6454    7.1919  -25.3477 H   0  0  0  0  0  0  0  0  0  0  0  0
    3.3650    3.1261  -21.0893 H   0  0  0  0  0  0  0  0  0  0  0  0
    2.0380    3.6237  -18.9868 H   0  0  0  0  0  0  0  0  0  0  0  0
    2.9403    3.9130  -17.5369 H   0  0  0  0  0  0  0  0  0  0  0  0
  1  2  3  0  0  0  0
  1 11  1  0  0  0  0
  2 20  1  0  0  0  0
  3  4  1  0  0  0  0
  3  5  2  0  0  0  0
  4 11  2  0  0  0  0
  5 13  1  0  0  0  0
  6  8  2  0  0  0  0
  6 12  1  0  0  0  0
  7  9  1  0  0  0  0
  7 12  2  0  0  0  0
  8 14  1  0  0  0  0
  9 14  2  0  0  0  0
 10 11  1  0  0  0  0
 10 13  2  0  0  0  0
 12 17  1  0  0  0  0
 13 17  1  0  0  0  0
 14 26  1  0  0  0  0
 15 17  1  0  0  0  0
 15 22  1  0  0  0  0
 15 25  2  0  0  0  0
 16 22  1  0  0  0  0
 16 23  2  0  0  0  0
 16 24  1  0  0  0  0
 17 23  1  0  0  0  0
 18 22  1  0  0  0  0
 19 27  1  0  0  0  0
 20 27  1  0  0  0  0
 21 26  1  0  0  0  0
 21 28  1  0  0  0  0
 21 29  1  0  0  0  0
  3 30  1  0  0  0  0
  4 31  1  0  0  0  0
  5 32  1  0  0  0  0
  6 33  1  0  0  0  0
  7 34  1  0  0  0  0
  8 35  1  0  0  0  0
  9 36  1  0  0  0  0
 10 37  1  0  0  0  0
 18 38  1  0  0  0  0
 18 39  1  0  0  0  0
 18 40  1  0  0  0  0
 19 41  1  0  0  0  0
 19 42  1  0  0  0  0
 19 43  1  0  0  0  0
 20 44  1  0  0  0  0
 20 45  1  0  0  0  0
 21 46  1  0  0  0  0
 23 47  1  0  0  0  0
 24 48  1  0  0  0  0
 24 49  1  0  0  0  0
M  CHG  1  23   1
M  END
> <OMEGA_C>
MLqbQPGe7L+iP6LBkjmLQNfkMMDyaJ3BRlHhQAiz0rwhtrXBbqjMQPiBib8hSbDBWrXYQNGdpz/4
67LBvtqbQJZAg0CcBbnBPpfgQACKmEA7cbHBBISjQLFXnUBJ9MHBkWToQEFCskAobrrBNr+mQC/h
Cz98M6XBYqKvQCA+Sb+D+6fBkvi5QHEKgUCNlrDBG4e6QHcXzj+eyarBZO7JQAFHtUCBq8LBUgfL
QBjKVkCzN53BzyWDQP86YEAHr5nBUuqxQIuIQ0BTXafBmCy2QKTae0DeSorB0IFCQFlTOsBc1IbB
nj1vQCY5eMBVtZfBdOeuQFpf4kBVkdDBeHisQNk9YkDhU5XB2RmFQAcGTkCm6aPB+Zg6QNqubEAa
G5TBk7rxQNkDUECR0JvByTnTQDPlz0DfLMvB6y0pQCR4WsDILZHB1H+6QH6HBEEbg9TB5FCiQCSn
yECyv9jB/dH3QAble74bB7zBzgnTQFBfBsCZe7LBNirpQJQeB0CJ/rbBi3t9QBhtYUCqlLjB7Cb4
QMGjlkCnI6vB7BqMQCcwn0AUS8jB4gMDQUngw0AtBrvBybWQQNB8Qj+VxJ7Bg0SYQM0qgEBtr4XB
V0zLQBvvS0BVmIbByT3GQPA+nUCYU4rBinwJQHoaJcD8ZoLB5uFiQP5fbcC3UYLBaHxuQLv+A8B/
4IfBfxtXQFOOk8DIiZ3BusCPQDBii8BgkJLBGqeUQKkj5kAEyMrBaFxXQJ0RSEDwtqjBNG4CQLTq
Z0Dx5JfBJi08QN9tekCJS4zBHmKgQDH/8r95DaLBAd6QQBqhNcD4TZ3BW8HjQJhLdbw8nLXB55zQ
QBcGir+hCLDBslXZQAD2pz9v/rLBVJrfQPF9mEApWbHBlTebQNXPgkB9D7nBb1HnQKmmskCjQrrB
J8uiQBtYnUBK7MHBdDCoQOYlAz/KNaXBtwSzQKtqUL+HzqfB9je5QMqOgEAmm7DBJ9O6QGWFyz+F
4qrBBgjJQEymtUCpisLBasnKQN3AVUB+XZ3BNjiDQH/ZZECG5ZnB8nKxQFPhQUD7cKfBt2+2QMPv
eUAJb4rB6NtHQDO6OsCMiIfBonN8QLacfsA/tpfBAXOuQBg94UDu1dDBJsqsQCDcbkC92JXBLsGE
QA53S0DE5KPBni47QBbtckAxSJTBewnxQEI9SUDOzZvBHn3SQJqP0EAq/MrB9Q0zQCo0ZMCVh5HB
pWC5QOcABEEi2dTBFDekQAp0xkADA9nB7n36QPQfX75V6bvBUJnYQHRIBsC+DrLB1aboQPkXCED2
LrfBmQz3QDSWlkDFBKvBZ4t8QE34X0DosbjBnmECQQ6ixECaw7rBuHaLQD4/n0CRR8jBspWRQL98
NT/c3Z7BU1KZQOsLh0CJLYbBxd7BQHHyPEBEGIfBZ1vPQByIlUAneonBKX0MQAHXKMC/XYPB4wdt
QPLaZsC8fYLB4OxtQITmAMBPIYnBV3RoQNd2l8Camp3B0lKWQIA3jcBoUpLB1R+TQJ975EAKWcvB
/EBWQOMuQEDceKjBLqkCQCa3aUCV2pfBXHE9QJ0kg0B7qYzBrHqaQG657r8z/6HBRIiKQGpLMMAc
wZzBFiPhQMirs72ggLXBNc3LQCAPkL+tGLDBEuLYQDBsoD/dzbLBvwWcQJA4gkDxJbnBeNTgQDMj
l0AqkLHBgYCjQEjwnEBE/cHB/DboQKbSsUCXYLrB2gOmQJx9BD+WNKXBHXWuQHjVUb+R56fBrzi6
QH9Pf0BBu7DBy2+6QDj0yD/bxqrBMpzJQImKtUB5jcLBBhbLQBZgVUDETJ3BOkaDQJaIYEAs3ZnB
WhCyQAc+QUBodKfBtya2QO5Tf0DDj4rBvHRAQNStL8CWBYbBuohxQNADdcC9QJbBjQSwQH2y3UB9
ttHB13ysQMqLYUDyb5XBUEGFQLkZTEDyBqTB9uI6QM5IcECEaZTBqdnxQNyMUEBR4pvByOfSQI2L
0UDZzcrBeo6AQO7CY8D6EovBm+aQQBsx8kBBEczBjIa/QKHP+EAWO9nBGuP3QEg9pL7Fu7vBIenR
QBzmCcArObLBJ9HpQPHzAkCp3bbBfAd+QL39XkDhxLjBLL74QDt1lECEXKvBBj2MQKvCnkDNXMjB
+NsCQQu0w0D347rB6MyPQEVdPj+y1p7BP1WYQFPMgUBm6oXBoxPMQHDnUUApq4bB/UvFQJBmn0CU
84rBXzdRQNGzJcD0IXvBi648QPna4r+2GorB8iYCQGEwUMBqi4bBZywsQGBgecBHqJfB6gaIQOv2
mMDtd5jB4uWiQMDPwEBqhtXBBKtXQMDeREAozajBQtoCQBJTbEDiPpjBdVo8QJCaf0CbpYzBooeb
QDG37b+dEKLBTO+KQPCMMMAcFZ3BpSTiQBBZX70+a7XB8QLNQDeKjL+OCrDBLpnZQBM+pD8asbLB
aJvgQPGal0BapLHBm8abQBmDgkC8J7nBWwjoQH/msUBhi7rBIDKjQBX1nEB7C8LBg7+mQFShCD96
IaXBR52vQLQ6Tb/S1qfBUv25QI0sgECHwbDBUu66QLi4yz8TsqrB+2PJQFl1tUCevMLBSh3LQBgk
WEAgYp3B/XSDQGi9Y0C65JnBFQCyQDqUQkDKcafBSH62QFaTfkAajYrBzSo7QEBiLsBsGofBslhu
QKwZdsAfFZfBZoGwQJSh30Bx99HBh+OsQMB4cUAl7pXBTDWFQIT5TECt+6PBO3c7QJLHbEBjKJTB
unHxQFglTUDExZvBmxTTQBsp0UC9GcvBEaQlQIrZVsBEIpHBtE+jQF+hv0CBj9jBWwqPQNcT70Ae
I8zBCfb4QM26j76OprvBt1DTQDEBCMCQMrLBZ3vqQLkoBUBVtbbBbn34QHw3lUD1bKvBkIZ9QAaf
X0DcurjBKc8CQeudw0BUHbvBVsWLQBKunkD6YcjBSG2QQMrWQD/TxZ7BeD6ZQEQ9iUChVYbBmWjC
QLh2QkBbEofBagnPQLNMmEA2uInB0UsAQNuXGMCqHoPBSYNcQI6SXMDV7oHBNh5lQKtP7r9CnYjB
dhBZQBYKlMAgrpzBTL6OQF6YiMACfpHBrTi9QFjO+UDv6tbBQ2NXQJfsQ0BYrajBAjQDQHe1YUD6
tZfBzFQ9QChefkAleIzBhmafQIBT8r8XN6LBugSPQAWwNMAUiJ3Bi5rjQF4GgrxvpLXB0iXQQJEX
ir/VH7DB+nvZQDH+pz/p+LLBSkybQIi0gkCIErnB63HfQDvImED+VLHBrOaiQCwZnUAL98HB9hjn
QELvskDTP7rBSCKoQJ23Az+uO6XBAZ6yQGEAUL8p46fBmja5QN6hgECbmbDBdfm6QNi9yz/Z3arB
tPzIQHC7tUBclMLBLdLKQCYlVkBzWZ3B6ziDQNe+ZEDN45nBmoqxQBEDQkB7bafBRGC2QAlkekB3
bYrBFmROQFwbO8B4IYfBRO91QN2MfMA4BpjBlRqwQO8r40A7ItHBTsSsQA8nb0Do1pXBptKEQGBd
S0Dj4qPBzxs7QKxkckBuRpTBYyDxQBhMSkADy5vB8xXTQNGF0EAJFMvBOM8xQMe6XsA4LZHBKfOe
QNP5xUDJ9dfBWFyRQMNj80Cpi8rBVln6QF0YYb598LvBjNfXQCRaBsBYM7LBtwjpQD0PCEAmHrfB
+MB8QOSvX0CWs7jBIdj2QPwNl0AA/arBqLKLQHmonkA1W8jByTYCQYUdxUDeuLrBuZ6RQBxRNj8e
357BhjmZQOo1h0CWLYbB9ePBQH1/PUARFIfBjjnPQIvVlUCweYnBTakWQMUZJsBAcILBQN1xQNYQ
bMBTn4LBO3F4QKMFBMDwrYjBQ45bQDOWlMCJ+p3BxB6TQEHdjsDYJZPBjYO9QBmc/UDx4NXBEHJW
QNLxP0AVeKjB+aMCQHvZaECv2JfBeUI9QHTjgkDWp4zBz+OOQLT57r8XZqbBuHZvQLbFL8C2EaPB
a0fnQFBYwb0DzbTBddjLQHCEj7+XT7HBG7/gQMoMnT/9TrHBg0ehQOJqe0BgqbjBtXXkQKqkl0AR
FbHB5/ulQDf3mEDzWcHBJX/pQCsGs0BKB7rBmzqjQILd/D63yabBDROqQHOWU79jOqrBTR2/QFjg
e0DqMrDB/e69QMwGxT/qeqrB3QrJQAWGtEDcBsLBAxXMQCpvUUCFWJzB8+SDQIzbYkAtQZrBq+61
QJHWPkBB6qbBUzexQHI6bkDPnonBavoEQFLqM8BNco7BEmo3QI4pc8DyCZ/B4ebrQIGe6kDzn8zB
IQ6rQGRtWUDd85TBd1GIQNRqS0BiOaTBkuY6QP7RfUB72JXBF4jyQOwYT0CDbJrBZ7fHQJkX0EAw
oMrBRODgP/SkTsCWNZnBTdPnQAN7+ECw2dbBJ9TrQCluBkEy7sXBXbAAQf9ipL6bKrrBFKzQQGGT
CMD3DrTBr132QNt+AECp17PBhWSGQGcMUEDzYLjB49r8QMlQlkCo+KrBkE+OQCXamEBhpcfBC+QC
QRynxkALyLrB6HaJQGdCNj/KTKHBqfSRQNeYcED/lYXBjkXFQGTaPEDX2YXBbQ7BQGhslkB164jB
shmXP7MKGcBKn4rBZYIbQF9ia8Ai0YnBFoo3QMn4AsBStI7Bpa8eQEBTjMDX0KXB0BdcQGSjjsBV
rpnBa7cEQUvd10BNpsvByy9gQEQaQ0DLWKnBQScGQH4MgEAKXprBXzk4QEd9h0BRJY7B

> <OMEGA_E>
cPIqPsiyND7YekM+IIJEPvCeST6QqdY+

> <OMEGA_NBR>
    137827

$$$$
50168808
  -OEChem-04172616093D

 45 47  0     1  0  0  0  0  0999 V2000
    4.8809   -1.8057  -20.0138 C   0  0  0  0  0  0  0  0  0  0  0  0
    4.3725   -2.5857  -19.2349 C   0  0  0  0  0  0  0  0  0  0  0  0
    4.8686    4.0887  -23.1581 C   0  0  0  0  0  0  0  0  0  0  0  0
    7.0240    4.7323  -22.2133 C   0  0  0  0  0  0  0  0  0  0  0  0
    6.7543    1.2229  -22.3378 C   0  0  0  0  0  0  0  0  0  0  0  0
    5.0936    4.9398  -24.2522 C   0  0  0  0  0  0  0  0  0  0  0  0
    7.2510    5.5756  -23.3111 C   0  0  0  0  0  0  0  0  0  0  0  0
    7.0269   -0.1292  -22.6173 C   0  0  0  0  0  0  0  0  0  0  0  0
    5.1920    0.5378  -20.5952 C   0  0  0  0  0  0  0  0  0  0  0  0
    5.4774   -0.8129  -20.8575 C   0  0  0  0  0  0  0  0  0  0  0  0
    5.8197    3.9932  -22.1152 C   0  0  0  0  0  0  0  0  0  0  0  0
    5.8119    1.5690  -21.3381 C   0  0  0  0  0  0  0  0  0  0  0  0
    6.2889    5.6997  -24.3286 C   0  0  0  0  0  0  0  0  0  0  0  0
    6.3931   -1.1503  -21.8807 C   0  0  0  0  0  0  0  0  0  0  0  0
    6.3495    3.3637  -19.6931 C   0  0  0  0  0  0  0  0  0  0  0  0
    4.1142    3.5696  -19.2570 C   0  0  0  0  0  0  0  0  0  0  0  0
    5.5601    3.0302  -20.9510 C   0  0  1  0  0  0  0  0  0  0  0  0
    3.7619   -3.4835  -18.2584 C   0  0  0  0  0  0  0  0  0  0  0  0
    5.7115    3.9920  -17.3436 C   0  0  0  0  0  0  0  0  0  0  0  0
    5.4454    7.0672  -26.1111 C   0  0  0  0  0  0  0  0  0  0  0  0
    5.4104    3.7843  -18.7659 N   0  0  0  0  0  0  0  0  0  0  0  0
    4.1640    3.2198  -20.5198 N   0  3  0  0  0  0  0  0  0  0  0  0
    2.9374    3.6941  -18.5340 N   0  0  0  0  0  0  0  0  0  0  0  0
    7.5430    3.1673  -19.4879 O   0  0  0  0  0  0  0  0  0  0  0  0
    6.5730    6.5702  -25.3646 O   0  0  0  0  0  0  0  0  0  0  0  0
    6.6986   -2.4429  -22.1420 F   0  0  0  0  0  0  0  0  0  0  0  0
    5.7757    8.2756  -26.6281 F   0  0  0  0  0  0  0  0  0  0  0  0
    5.1437    6.2130  -27.1245 F   0  0  0  0  0  0  0  0  0  0  0  0
    3.9626    3.5027  -23.1125 H   0  0  0  0  0  0  0  0  0  0  0  0
    7.7717    4.6461  -21.4387 H   0  0  0  0  0  0  0  0  0  0  0  0
    7.2654    1.9995  -22.8874 H   0  0  0  0  0  0  0  0  0  0  0  0
    4.3553    5.0159  -25.0368 H   0  0  0  0  0  0  0  0  0  0  0  0
    8.1730    6.1344  -23.3751 H   0  0  0  0  0  0  0  0  0  0  0  0
    7.7252   -0.3858  -23.4001 H   0  0  0  0  0  0  0  0  0  0  0  0
    4.4893    0.7919  -19.8154 H   0  0  0  0  0  0  0  0  0  0  0  0
    3.5812   -4.4638  -18.7235 H   0  0  0  0  0  0  0  0  0  0  0  0
    4.4378   -3.6046  -17.3990 H   0  0  0  0  0  0  0  0  0  0  0  0
    2.8068   -3.0583  -17.9166 H   0  0  0  0  0  0  0  0  0  0  0  0
    4.8027    4.3245  -16.8207 H   0  0  0  0  0  0  0  0  0  0  0  0
    6.0640    3.0483  -16.9020 H   0  0  0  0  0  0  0  0  0  0  0  0
    6.4937    4.7588  -17.2427 H   0  0  0  0  0  0  0  0  0  0  0  0
    4.5852    7.1676  -25.4329 H   0  0  0  0  0  0  0  0  0  0  0  0
    3.3650    3.0985  -21.1087 H   0  0  0  0  0  0  0  0  0  0  0  0
    2.0582    3.5129  -18.9747 H   0  0  0  0  0  0  0  0  0  0  0  0
    2.9679    3.9651  -17.5719 H   0  0  0  0  0  0  0  0  0  0  0  0
  1  2  3  0  0  0  0
  1 10  1  0  0  0  0
  2 18  1  0  0  0  0
  3  6  2  0  0  0  0
  3 11  1  0  0  0  0
  4  7  1  0  0  0  0
  4 11  2  0  0  0  0
  5  8  2  0  0  0  0
  5 12  1  0  0  0  0
  6 13  1  0  0  0  0
  7 13  2  0  0  0  0
  8 14  1  0  0  0  0
  9 10  1  0  0  0  0
  9 12  2  0  0  0  0
 10 14  2  0  0  0  0
 11 17  1  0  0  0  0
 12 17  1  0  0  0  0
 13 25  1  0  0  0  0
 14 26  1  0  0  0  0
 15 17  1  0  0  0  0
 15 21  1  0  0  0  0
 15 24  2  0  0  0  0
 16 21  1  0  0  0  0
 16 22  2  0  0  0  0
 16 23  1  0  0  0  0
 17 22  1  0  0  0  0
 19 21  1  0  0  0  0
 20 25  1  0  0  0  0
 20 27  1  0  0  0  0
 20 28  1  0  0  0  0
  3 29  1  0  0  0  0
  4 30  1  0  0  0  0
  5 31  1  0  0  0  0
  6 32  1  0  0  0  0
  7 33  1  0  0  0  0
  8 34  1  0  0  0  0
  9 35  1  0  0  0  0
 18 36  1  0  0  0  0
 18 37  1  0  0  0  0
 18 38  1  0  0  0  0
 19 39  1  0  0  0  0
 19 40  1  0  0  0  0
 19 41  1  0  0  0  0
 20 42  1  0  0  0  0
 22 43  1  0  0  0  0
 23 44  1  0  0  0  0
 23 45  1  0  0  0  0
M  CHG  1  22   1
M  END
> <OMEGA_C>
KDCcQDQh579aHKDBSeuLQGd8JcAM4ZnBksubQAXXgkDiQ7nB0cTgQMhul0DltLHBbCPYQMyHnD/P
s7LBhf6iQOESnkCNBMLBigjoQDtrskAcfbrBANzgQGVMBL4i8LTBnySmQN+uCT8Sw6TBNkevQI0a
UL9A3KbBTzu6QAOQf0Da67DBCPu5QGLVyD9ftKrB5D7JQA1ktkAPocLBqZTMQBc9k7+qC6/BaS/L
QN5GV0CSi53BwaeDQMxzZEBhDprBOeyxQBfvQUCqm6fBxcNwQE/xXsAtEZLBe8S2QB59f0C+v4rB
ykCuQMkm4kCT49DBLyKtQIUyckB6IJbBqz+FQGwRTkCTKKTBBP47QOxrbECURZTBjmDxQF+0SkBP
55vBrFXSQNo+0kCu6srBrVrWQMNXHMDMIrHBStK4QN9oBEFnBtXBfZmkQBvRxkAC/9jBC5t9QBos
YEB15rjBX7H4QMSslEB8gqvBSX7oQP3v/z9fGbfBbl6LQFWCoEBUS8jBpcQCQQ9NxEBCALvBtTT3
QEGDxb57M7vBQaiPQN22Sj8Dhp7B6TJlQDbXjsDPyZXBxQKOQA+xZsAxMYvBDKIzQAG7Q8AjVY/B
Za+ZQEFiikC1kIbBTQzCQJwWQ0A+N4fBdMzPQPpHmEAS8YnB77mSQLJc5UCZdsvB3VtXQHFORkCv
3qjB1LkDQBvTYEAwzJfB1/I9QNLDfUA0k4zB2RWgQLdK7L++eaDBdoaQQKU7KsAiaZrBN9nfQH1c
mEAearHBalmbQBQRg0B8H7nBLiXYQFbcoD/6CbPB3UTnQMk0s0DpN7rBGJyiQG9LnkDd3cHBZ1Di
QMz9q719UbXBca6nQM79Az+x8KTBlSiyQG4fU79rH6fBx5W5QOMzgEBJvLDBvji6QLHjyD9b5KrB
otfIQK6ctkAddsLBiJDPQHVOkL+yXq/BLeXKQK1NVUCSep3Bv1yDQH7yZEBECJrB2ZGxQPpMQUCO
kafB42p7QOibZsBo1pLBV322QEeAekAgk4rB7WKuQLHq4kB0qNDBjuusQC1Ab0Cv/ZXB3uaEQMUy
TEBFDaTBlmE7QJnOcUAWZJTBySLxQPHOSEDD5pvBj13SQDuN0UBK5srBM8baQLEaGsBRfrHBb7u6
QIYhBEH6ONXBDZihQFlkx0BJc9jBk233QHsalkCHH6vBjOZ8QL1QYEBBzLjBpjXnQK9IA0CFhLfB
FUwCQZ1nxUDhqrrBkgeLQGi6oEBeJ8jBLJr4QPn0oL63qLvBCzCRQNwtPj9Io57BYq91QDXvksDO
oZbBI0+SQAiHa8B9uovB25Y7QBfpT8B3cZDBEm2ZQKKuh0CtWYbBa5XBQGNlPUCFMofBxKPPQCeV
lUC8n4nBcAqUQO6e6EC4/8rB7IhWQKobQkDXq6jBOe0CQCcmaED49ZfB4II9QF5egkDqwIzBeO6b
QOCE57+uxp/BEZ+LQOl0JcC5hZnBCqmcQDxVgUCBf7nB3ZTgQC2Ll0BtrrHBt83XQAgJmT/uprLB
HL6jQArEnEChOMLBA53nQH7uskD9ZrrBF67gQAi+Ir7vu7TBevalQKOPBz8WnaTBTiivQBfyUr/J
lKbB7oa6QM4mfkDyBbHBTci5QBazxj/Ip6rBgzPJQMJ4tkD6psLBf5bMQLD8lb/Utq7BSC/LQFHT
VkCHmZ3B46uDQBS4ZECzJprByfOxQDodQUBZqKfBh15wQL7qXsCmsZHBgL22QCNcgEAb3YrBjI+v
QJmV4UA0p9HBUiWtQIKRckBrOpbB7kOFQNjjTUDwPaTBNho8QFwjbUAaXJTBrmjxQG61SkCX85vB
IFHSQNxs00B3y8rBu57WQBvUHcATp7DBEsGjQAf8wUDDhtjB8lKNQPkx70AQ0cvBnimAQHqbW0B5
Q7nBx1T4QCQclUAqb6vBsO/nQHOq+z+2KrfBq5yMQDRTnkAAocjBe1sCQZmCxUDyyLrBRAL3QOgS
2b6B+rrBanSPQKzNSj8wZ57BqPJeQKPAjcBNnJXB/ySPQDKpa8B3N4vBx5U2QGncQMC2Wo7BdqyZ
QOhGi0DNt4bBkuPBQGmHREDYP4fBetvPQArWmEAqHIrBjZ27QGTC/EB5XdbBoGxXQIc4RkAM9qjB
1sQDQB2JYUBX3pfBWC8+QKPPfkDdrIzBykufQKsw7r8WQaDBdlePQK1wKsC+JprB0rnfQL4WmEBi
Y7HBv/+bQIaEgUB7QbnB0ezYQMgOnD+LzrLByaTmQJifs0BwFbrBVO+iQJgmnUBZ8cHBm8riQPxe
/701CLXBI7KnQFgg/T7K0KTBJuGxQHVsWb9S7abBBvO5QBlQfkCVzbDB+Ke6QMMzxT9jxqrBtl/I
QGXYtkAFX8LBr3DPQAW0lL81IK/BrBzLQO6IVEDIg53BhpODQMTbZUD8NZrBHfCxQJiXP0BalqfB
+El4QD0BZsAOiJLBsYC2QLdvfUB1wYrBSZyuQEXU40Db89DB5hetQBo4cEDIJJbBMTiFQCZTSkAh
HaTBvbY7QGdgdUDxspTB9mHxQBe0SEAw55vBZdPRQJj00kBiqMrBFTTaQH5/HMCPQ7HBTmCfQAC+
xUD109fBcZyOQMPP8kD3j8rBB1j3QJrklUDAGqvB2Rp/QPrSW0AECLnBwHvoQLyNAEDjPLfBs8MB
QR2NxkC5arrBNrOLQGXenkAGU8jBcVH5QPrsub73TLvBzReRQI4dOz89j57BQV9uQBguksCAbJbB
65iRQAPvbcAboIvBtGA6QO6STMCUzY/Bkm+ZQCi4iUDAn4bBi1fBQN3TQEAqMYfBBcvPQIP4lkDF
6onB3UC7QBO7/kCQqtXBJEZXQPxGPkB1rajBn1EDQPKTa0AOR5jB57Q9QNouhUBEJY3B

> <OMEGA_E>
4N9ZPuArXD54HXU+0GR9Pg==

> <OMEGA_NBR>
    141251

$$$$
50168782
  -OEChem-04172616093D

 49 51  0     1  0  0  0  0  0999 V2000
    7.0299   -0.2194  -22.4935 C   0  0  0  0  0  0  0  0  0  0  0  0
    6.7497    1.1331  -22.2441 C   0  0  0  0  0  0  0  0  0  0  0  0
    4.9001    4.0422  -23.2154 C   0  0  0  0  0  0  0  0  0  0  0  0
    7.0198    4.7213  -22.2262 C   0  0  0  0  0  0  0  0  0  0  0  0
    6.3647   -1.2290  -21.7738 C   0  0  0  0  0  0  0  0  0  0  0  0
    5.1201    4.9281  -24.2897 C   0  0  0  0  0  0  0  0  0  0  0  0
    7.2414    5.5979  -23.3012 C   0  0  0  0  0  0  0  0  0  0  0  0
    5.1158    0.4644  -20.5429 C   0  0  0  0  0  0  0  0  0  0  0  0
    5.8335    3.9442  -22.1548 C   0  0  0  0  0  0  0  0  0  0  0  0
    5.7774    1.4973  -21.2844 C   0  0  0  0  0  0  0  0  0  0  0  0
    5.4091   -0.9069  -20.7838 C   0  0  0  0  0  0  0  0  0  0  0  0
    6.2935    5.7264  -24.3309 C   0  0  0  0  0  0  0  0  0  0  0  0
    6.3469    3.3590  -19.7214 C   0  0  0  0  0  0  0  0  0  0  0  0
    4.1185    3.5680  -19.2768 C   0  0  0  0  0  0  0  0  0  0  0  0
    5.5489    2.9917  -20.9644 C   0  0  1  0  0  0  0  0  0  0  0  0
    3.9409   -3.3640  -18.0470 C   0  0  0  0  0  0  0  0  0  0  0  0
    5.7285    4.0409  -17.3861 C   0  0  0  0  0  0  0  0  0  0  0  0
    4.6190   -2.0614  -20.1261 C   0  0  0  0  0  0  0  0  0  0  0  0
    4.5247   -2.0305  -18.5777 C   0  0  0  0  0  0  0  0  0  0  0  0
    5.4771    7.0364  -26.1862 C   0  0  0  0  0  0  0  0  0  0  0  0
    5.4159    3.8044  -18.8007 N   0  0  0  0  0  0  0  0  0  0  0  0
    4.1595    3.2221  -20.5412 N   0  3  0  0  0  0  0  0  0  0  0  0
    2.9490    3.6730  -18.5397 N   0  0  0  0  0  0  0  0  0  0  0  0
    7.5468    3.1937  -19.5259 O   0  0  0  0  0  0  0  0  0  0  0  0
    6.5733    6.6410  -25.3354 O   0  0  0  0  0  0  0  0  0  0  0  0
    5.7414    8.2725  -26.6778 F   0  0  0  0  0  0  0  0  0  0  0  0
    5.3511    6.1640  -27.2211 F   0  0  0  0  0  0  0  0  0  0  0  0
    7.7606   -0.4869  -23.2425 H   0  0  0  0  0  0  0  0  0  0  0  0
    7.2801    1.9003  -22.7886 H   0  0  0  0  0  0  0  0  0  0  0  0
    4.0096    3.4313  -23.2010 H   0  0  0  0  0  0  0  0  0  0  0  0
    7.7605    4.6374  -21.4447 H   0  0  0  0  0  0  0  0  0  0  0  0
    6.5877   -2.2652  -21.9809 H   0  0  0  0  0  0  0  0  0  0  0  0
    4.3929    4.9999  -25.0850 H   0  0  0  0  0  0  0  0  0  0  0  0
    8.1506    6.1798  -23.3368 H   0  0  0  0  0  0  0  0  0  0  0  0
    4.3860    0.7301  -19.7924 H   0  0  0  0  0  0  0  0  0  0  0  0
    3.8801   -3.3271  -16.9492 H   0  0  0  0  0  0  0  0  0  0  0  0
    2.9347   -3.5158  -18.4649 H   0  0  0  0  0  0  0  0  0  0  0  0
    4.5932   -4.1962  -18.3502 H   0  0  0  0  0  0  0  0  0  0  0  0
    4.8254    4.3899  -16.8639 H   0  0  0  0  0  0  0  0  0  0  0  0
    6.0789    3.1048  -16.9266 H   0  0  0  0  0  0  0  0  0  0  0  0
    6.5158    4.8051  -17.3074 H   0  0  0  0  0  0  0  0  0  0  0  0
    3.5944   -2.0374  -20.5256 H   0  0  0  0  0  0  0  0  0  0  0  0
    5.1028   -3.0064  -20.4143 H   0  0  0  0  0  0  0  0  0  0  0  0
    3.8711   -1.2007  -18.2707 H   0  0  0  0  0  0  0  0  0  0  0  0
    5.5296   -1.8811  -18.1560 H   0  0  0  0  0  0  0  0  0  0  0  0
    4.5521    7.0543  -25.5912 H   0  0  0  0  0  0  0  0  0  0  0  0
    3.3593    3.1283  -21.1335 H   0  0  0  0  0  0  0  0  0  0  0  0
    2.0674    3.4796  -18.9704 H   0  0  0  0  0  0  0  0  0  0  0  0
    2.9869    3.9421  -17.5774 H   0  0  0  0  0  0  0  0  0  0  0  0
  1  2  1  0  0  0  0
  1  5  2  0  0  0  0
  2 10  2  0  0  0  0
  3  6  2  0  0  0  0
  3  9  1  0  0  0  0
  4  7  1  0  0  0  0
  4  9  2  0  0  0  0
  5 11  1  0  0  0  0
  6 12  1  0  0  0  0
  7 12  2  0  0  0  0
  8 10  1  0  0  0  0
  8 11  2  0  0  0  0
  9 15  1  0  0  0  0
 10 15  1  0  0  0  0
 11 18  1  0  0  0  0
 12 25  1  0  0  0  0
 13 15  1  0  0  0  0
 13 21  1  0  0  0  0
 13 24  2  0  0  0  0
 14 21  1  0  0  0  0
 14 22  2  0  0  0  0
 14 23  1  0  0  0  0
 15 22  1  0  0  0  0
 16 19  1  0  0  0  0
 17 21  1  0  0  0  0
 18 19  1  0  0  0  0
 20 25  1  0  0  0  0
 20 26  1  0  0  0  0
 20 27  1  0  0  0  0
  1 28  1  0  0  0  0
  2 29  1  0  0  0  0
  3 30  1  0  0  0  0
  4 31  1  0  0  0  0
  5 32  1  0  0  0  0
  6 33  1  0  0  0  0
  7 34  1  0  0  0  0
  8 35  1  0  0  0  0
 16 36  1  0  0  0  0
 16 37  1  0  0  0  0
 16 38  1  0  0  0  0
 17 39  1  0  0  0  0
 17 40  1  0  0  0  0
 17 41  1  0  0  0  0
 18 42  1  0  0  0  0
 18 43  1  0  0  0  0
 19 44  1  0  0  0  0
 19 45  1  0  0  0  0
 20 46  1  0  0  0  0
 22 47  1  0  0  0  0
 23 48  1  0  0  0  0
 23 49  1  0  0  0  0
M  CHG  1  22   1
M  END
> <OMEGA_C>
E/XgQMivYL6v8rPB3P3XQLEIkT/v87HBhs2cQKVZgUAtubnBZKLgQPMUl0Azz7HBAazLQJ5Qnb+x
MK7BD9ijQPiynUBXUcLB77nnQAgis0DGaLrBaLSjQJHB7T7CV6TBa6y6QPxsfEDuPLHBY+C4QDCn
vz9wRqrBcxetQJIpaL8qRabBAWTJQHc+t0CkpcLBvhnLQM75VkBgxZ3Bd8qDQMpaZEDTNprBOZCx
QL54P0Aft6fBTzd8QNFLV8AoYJDBu0+3QOVOgUCjFovB3c6TQKDuA8BLAqHBFsqQQDXzAcApn5TB
eESvQC4q4UBhfdHBSE+tQCF7c0DVZ5bBSxqFQE43TkBHVKTB8rs8QFcSa0BUUZTBqX/xQCdlTEAO
NZzBcFjSQNyC1EDwrsrBdbm3QDlcBEEtbNXBNTyrQEU/xUDpxNnB3Fb4QCRF+b6a8LnBqfboQPY8
8z8RT7bBd06AQHyaW0C3m7nBFlb4QLpllECujqvB2c7SQL35EMD32K/Br5KMQMv+n0D9rcjB2WgC
QbPAxUDbsbrB91mMQP3mOj/OVp7ByVN4QPbvVMAQmIfBnNI7QA8CYcAFuJPBk/uSQP9GhsA4zZLB
4mmaQMt5jEAr6YbBL4bCQL61RkDFaYfBHIHQQELDmUCRdYrBHQpmQGBlAsBWNKTBbUqjQC5oQMBv
UKPBG8B3QKWvmb9NKpLBUvKwQIXH8L+AP5HBv6qRQNG84UDRuszBRP5WQEc2SEBwEanBF1EEQFyx
XkBqw5fBsyk/QKhLfEBrnozB3rXeQHplZL5nS7XBce7UQFSLjz+PJbPBB1LgQE0dlkDPrrHBeLOb
QCOJgUB4XrnBnvHOQJi2n7/Gpa7BdBbnQKuWskA3NrrBSHCiQIBAnkCO5MHBYweqQOQa1D7yw6PB
dyC6QMBPe0C4B7HBY7u5QLDjuj8LhKrBI1i1QIJgcb8JqqXB4zjIQNJst0A/TcLBICbLQIS3U0Ad
tJ3BPtCDQCACZ0DWcJrBWMSxQOdbPED9rqfBBNV5QPlyUcAvcpDBvgW3QA5mgUCyKIvB1Z+uQEuj
AcCJBp3Be2iAQGULI8AHYJvBnketQPqT4kA6z9DB/GWtQEeSckC/eZbBNDmFQIQYSEBgMaTBHXA8
QNLqd0DY8JTBMYfxQDxVSUAKGZzBxd7QQFj/1EA8ScrBVga2QJMFBUExwtTB1aunQADwxkBtFtnB
pnjyQBYT8r5sGLzB7kDiQJtU8z/cHLjBJ3L4QILKkkBtjavB4Qh+QJSKXEBZMbnBpYLWQD7CEcB5
cLDBgykCQR73xECsjrrBSMGKQOwgoUDRJMjBPkuVQH2ZKD+lIp3BiRU4QE/6aMBjVI/BE0qTQBTk
g8ChRpDBNfOEQGmDJMD4+YnBBDCaQCaBjUCrHofBi13BQHDoRkDNUofBxrzQQEJQmUDEjYrBsLvC
QBvNOMDQLJ/B0Iq5QH/Kzb88W5XBBqlwQAANUMBn1aHBSvtTQIGQ2b++iJvBPkiQQHuj40Dy08vB
GA1XQCtlOkBPpKjBNeMDQDmGbEDMZ5jBXcM+QJvAh0B3go3Bu0PdQLxtYb5ZB7XBojDUQPC6kD9p
9LLBgfbfQO7Kl0DmpbHBV8ScQPsigUD3tbnBToLMQDKtnb/AaK7B1xfnQBDHs0DqQrrBXt6jQFpk
nUBEUsLBUS+oQI7G6T5mqqPB+lK6QDfWfEBjKLHBLse4QKq/vj/Ra6rB2qKyQIi+aL/hgqXBER/J
QENzt0BgmcLBi/zKQA1eVkBhw53B/rGDQMwUZUDSQJrBcHyxQKrfPkCCuKfBu0BzQGFcUMD+V5DB
AEG3QIWGgkBGMIvBh/eqQObM/r8L5ZzBWjF4QNE4G8Av0JrBeEmwQPC140BGh9HBtj+tQONUdEDy
eJbBkf6EQF4/TEBYRqTBlIs8QNIjbkDuZpTBPmbxQKMUTEBXMpzBn77SQCh+1ECQtcrBsdyjQK7c
xEDDitjBAlCOQGiX8UBnpsvBUD/xQJZG+L6UwLvBdjniQN4l8z+g57fBjGX3QHeNlUCEUqvBu3GA
QBirWkC/o7nBaYXTQBsQEcDTJ7DB+f0BQRm5xkAke7rBC9mMQEI/n0Cyv8jBu3GTQDeYNz+ME53B
850wQObvY8CF547BuuWNQKHLhMBHG5HBC++EQLc6KcC/mInBKmiaQPYsjkBiEofBdEbCQKOTSUDI
XofBt5bQQLnfmkDzqorBjfC8QAvFOMDrTp/BfuO3QE+vzb91TpXBpoNhQNpnQsBcjaHBSJZPQJ4W
xL/UCprBwuK8QKb2/kAyH9bBQZ1WQAyeQ0AH7KjBSQkEQEhyYUBfzpfBZRM/QOuugEA2x4zBdJPh
QMgPer6NvrPBBv3YQMHljj8c2LHBshudQM3CgEDjtbnBsmngQASOl0DotrHB6UHLQBtTn7+DFK7B
89ejQCY6nUCJScLBCjbnQHG2s0ApTrrBth6kQO588z6BWKTBCOq6QKESfED7NbHBJbe5QDxavz/3
PqrB1AOsQCBcZb/RZqbBYv7IQExqt0BSlsLBKFLLQDG9VkC9v53Br+WDQFnsZEBhUJrBuBGyQIQU
P0DGtqfB4CF3QD1/WsDzRJHBnB+3QF9/gUB1H4vBmAKQQAy7/r+yS6HBDDabQIVjFsBvj5XB/F+v
QAA95EBvTdHBVV+tQB+oc0BRcpbB0HWFQDcrTUA7XqTBiqE8QB0+bUB0gpTB8arxQE32S0D+IZzB
fzvSQLCr1EAUq8rBu9GiQK/PxUDjadjBspaNQHp+8UAJQ8vBT235QKQ5Br/jlLnBZ1jqQPH27z90
NLbBi+WAQHWaWUC8nrnBRP33QD9NlUAabKvBwRnSQFpHEsC0n6/BZaKMQGknn0C/q8jBPgMCQerE
xkCLjbrBSGyNQAYHQT8JOZ7BRMaDQANjasAV8ojBuJA1QFr9QMCJlpHB+U17QKhAisBuOpbBmSqa
QFTTjECL/4bBDiLCQMMYR0BLaIfBgmTQQHTdmUBbeYrBHyhdQMvI0r9gf6HBqT2TQMC9OcDNJabB
pxmZQLr7uL/xlJDBSPi7QNMBMMDWOJXB2Ju7QI3j/0DjztXB6NpXQCCtRUBAGanBW1IEQHnSYED9
+pfBh7s+QL2pf0BF2ozBOx7fQPq9UL6tbbXB/SDVQCaXkT+YNrPBEGWcQAN0gEACfbnBO5XfQFlU
l0DpabHB7VrPQCVEnr+9267Bc3ejQNGlnEBfGcLBYI3mQFtys0An/rnBUPmpQNyC0j5J8KPBkAW6
QEmoe0AL8bDBm6q5QOJ4uz9fmqrBPZO1QK8Xcb/+4qXBt4XIQOPgtkCUTsLBvgbLQG9IUkBzm53B
y4yDQE8rZEBsTJrBX6OxQDFaPECYpafBPEl3QJyxTcAgopDBjQy3QAWJgkBuKYvBVdCuQJTWAcAr
Sp3BPJmAQO/GI8DNzZvBp0qtQFPk4kBOotDBYMSsQJbGZEBP4pXB0QCFQIPYR0BpLKTBdFI8QP9H
ekDyAZXBucTxQFleTEBLNZzByirRQOcy1EAfVsrBK2mOQKka9EBsRMrBk3i7QFbcAEGQZdfB+wjz
QILa4757OLzBMXziQJAu9j8PHLjBCRaAQGFDWUAmZ7nBtw73QIwPlUAdGavB1A/XQJnhEMBUs7DB
oZuMQB9PnkDgkMjBrqQBQXKhxkABNLrBaQOVQI9/JT8DVZ3BvXg1QLJ+ZcAoro/B6zuSQDiugcD+
5Y/B9XOCQEz5HcA4ZIrBKk6ZQO48h0DhmobBH33LQMmBVkAA/IbBfhLIQPs3oUDo24vBLjXDQHKs
OMDyZp/BQEq5QFBEzr+ElJXBZWpzQMydU8CgBqLBedpTQFF13L/ahJzB3j6gQNrAx0AJMdXBSrJW
QJK/O0CutajBQe4DQFEKdUDRu5jBRsY+QG68h0AQd43B

> <OMEGA_E>
cOCAPuhRhj6wDIg+9BeLPnAkjj4=

> <OMEGA_NBR>
    145721

$$$$
50168780
  -OEChem-04172616093D

 50 52  0     1  0  0  0  0  0999 V2000
    4.8649    4.0480  -23.1508 C   0  0  0  0  0  0  0  0  0  0  0  0
    6.9924    4.7343  -22.1774 C   0  0  0  0  0  0  0  0  0  0  0  0
    6.8865    1.2632  -22.2560 C   0  0  0  0  0  0  0  0  0  0  0  0
    5.0919    4.9023  -24.2457 C   0  0  0  0  0  0  0  0  0  0  0  0
    7.2224    5.5770  -23.2747 C   0  0  0  0  0  0  0  0  0  0  0  0
    7.1851   -0.0585  -22.6183 C   0  0  0  0  0  0  0  0  0  0  0  0
    5.1535    0.4524  -20.7357 C   0  0  0  0  0  0  0  0  0  0  0  0
    5.8011    3.9705  -22.0918 C   0  0  0  0  0  0  0  0  0  0  0  0
    5.8487    1.5391  -21.3343 C   0  0  0  0  0  0  0  0  0  0  0  0
    6.2755    5.6837  -24.3073 C   0  0  0  0  0  0  0  0  0  0  0  0
    5.4487   -0.8856  -21.1099 C   0  0  0  0  0  0  0  0  0  0  0  0
    6.4650   -1.1264  -22.0569 C   0  0  0  0  0  0  0  0  0  0  0  0
    6.3378    3.3473  -19.6738 C   0  0  0  0  0  0  0  0  0  0  0  0
    4.1055    3.5933  -19.2553 C   0  0  0  0  0  0  0  0  0  0  0  0
    5.5528    2.9925  -20.9276 C   0  0  1  0  0  0  0  0  0  0  0  0
    5.7045    4.1106  -17.3650 C   0  0  0  0  0  0  0  0  0  0  0  0
    3.8491   -3.3236  -18.7815 C   0  0  0  0  0  0  0  0  0  0  0  0
    4.4546   -1.9709  -19.2058 C   0  0  0  0  0  0  0  0  0  0  0  0
    3.6111   -3.3507  -17.2591 C   0  0  0  0  0  0  0  0  0  0  0  0
    5.4713    6.9611  -26.1820 C   0  0  0  0  0  0  0  0  0  0  0  0
    5.4021    3.8256  -18.7737 N   0  0  0  0  0  0  0  0  0  0  0  0
    4.1556    3.1564  -20.4916 N   0  3  0  0  0  0  0  0  0  0  0  0
    2.9303    3.7863  -18.5447 N   0  0  0  0  0  0  0  0  0  0  0  0
    7.5350    3.1784  -19.4661 O   0  0  0  0  0  0  0  0  0  0  0  0
    4.7412   -1.9780  -20.6228 O   0  0  0  0  0  0  0  0  0  0  0  0
    6.5676    6.5614  -25.3372 O   0  0  0  0  0  0  0  0  0  0  0  0
    6.7715   -2.3938  -22.4162 F   0  0  0  0  0  0  0  0  0  0  0  0
    2.7024   -2.4052  -16.8956 F   0  0  0  0  0  0  0  0  0  0  0  0
    5.7715    8.1673  -26.7230 F   0  0  0  0  0  0  0  0  0  0  0  0
    5.2964    6.0540  -27.1794 F   0  0  0  0  0  0  0  0  0  0  0  0
    3.9687    3.4463  -23.1181 H   0  0  0  0  0  0  0  0  0  0  0  0
    7.7293    4.6666  -21.3908 H   0  0  0  0  0  0  0  0  0  0  0  0
    7.4533    2.0770  -22.6839 H   0  0  0  0  0  0  0  0  0  0  0  0
    4.3639    4.9637  -25.0411 H   0  0  0  0  0  0  0  0  0  0  0  0
    8.1366    6.1497  -23.3265 H   0  0  0  0  0  0  0  0  0  0  0  0
    7.9716   -0.2561  -23.3316 H   0  0  0  0  0  0  0  0  0  0  0  0
    4.3955    0.6460  -19.9911 H   0  0  0  0  0  0  0  0  0  0  0  0
    4.7980    4.4786  -16.8621 H   0  0  0  0  0  0  0  0  0  0  0  0
    6.0499    3.1905  -16.8709 H   0  0  0  0  0  0  0  0  0  0  0  0
    6.4923    4.8761  -17.3068 H   0  0  0  0  0  0  0  0  0  0  0  0
    2.8908   -3.4709  -19.3010 H   0  0  0  0  0  0  0  0  0  0  0  0
    4.5424   -4.1328  -19.0545 H   0  0  0  0  0  0  0  0  0  0  0  0
    3.7386   -1.1660  -18.9833 H   0  0  0  0  0  0  0  0  0  0  0  0
    5.3861   -1.7978  -18.6469 H   0  0  0  0  0  0  0  0  0  0  0  0
    3.2343   -4.3430  -16.9705 H   0  0  0  0  0  0  0  0  0  0  0  0
    4.5620   -3.1548  -16.7419 H   0  0  0  0  0  0  0  0  0  0  0  0
    4.5586    7.0346  -25.5724 H   0  0  0  0  0  0  0  0  0  0  0  0
    3.3557    2.9617  -21.0593 H   0  0  0  0  0  0  0  0  0  0  0  0
    2.0486    3.5892  -18.9734 H   0  0  0  0  0  0  0  0  0  0  0  0
    2.9646    4.1226  -17.6035 H   0  0  0  0  0  0  0  0  0  0  0  0
  1  4  2  0  0  0  0
  1  8  1  0  0  0  0
  2  5  1  0  0  0  0
  2  8  2  0  0  0  0
  3  6  2  0  0  0  0
  3  9  1  0  0  0  0
  4 10  1  0  0  0  0
  5 10  2  0  0  0  0
  6 12  1  0  0  0  0
  7  9  2  0  0  0  0
  7 11  1  0  0  0  0
  8 15  1  0  0  0  0
  9 15  1  0  0  0  0
 10 26  1  0  0  0  0
 11 12  2  0  0  0  0
 11 25  1  0  0  0  0
 12 27  1  0  0  0  0
 13 15  1  0  0  0  0
 13 21  1  0  0  0  0
 13 24  2  0  0  0  0
 14 21  1  0  0  0  0
 14 22  2  0  0  0  0
 14 23  1  0  0  0  0
 15 22  1  0  0  0  0
 16 21  1  0  0  0  0
 17 18  1  0  0  0  0
 17 19  1  0  0  0  0
 18 25  1  0  0  0  0
 19 28  1  0  0  0  0
 20 26  1  0  0  0  0
 20 29  1  0  0  0  0
 20 30  1  0  0  0  0
  1 31  1  0  0  0  0
  2 32  1  0  0  0  0
  3 33  1  0  0  0  0
  4 34  1  0  0  0  0
  5 35  1  0  0  0  0
  6 36  1  0  0  0  0
  7 37  1  0  0  0  0
 16 38  1  0  0  0  0
 16 39  1  0  0  0  0
 16 40  1  0  0  0  0
 17 41  1  0  0  0  0
 17 42  1  0  0  0  0
 18 43  1  0  0  0  0
 18 44  1  0  0  0  0
 19 45  1  0  0  0  0
 19 46  1  0  0  0  0
 20 47  1  0  0  0  0
 22 48  1  0  0  0  0
 23 49  1  0  0  0  0
 23 50  1  0  0  0  0
M  CHG  1  22   1
M  END
> <OMEGA_C>
ba2bQGeJgUC+NLnBkcHfQC1/l0BXa7HBnV7cQNGxoT9aDLLB7fCiQM/fnEA098HBCB7nQN92skCU
MrrBJ+zlQCCJb71M8rTBaemkQL6i5z6l4qXBrqK5QOocfkDyu7DBrSi7QJ8AxT+5rKrBGNHIQMjg
tUBYdcLBrVuuQDq2Yr8B4ajBYuHOQC8ukL+edLDBeM/KQLo5VkD1Y53BfWCDQHL4ZUDjCprBYbCx
QJSEP0DNa6fB34q2QAKKg0CL64rBPVh2QMC1VMBsQJbB9YuOQBNG/L9rpZnBBx1nQCJxVsCvEorB
EhWvQI7B3kC0dNHBWN6sQFzXdEB1MJbBB/uEQGQCSkDa7qPBCYo7QORSckCDW5TB4h7xQPxqS0CS
upvBMbiXQLUt/b+B+6TBsSnSQGD30UCVssrBTbDYQEwzGcBsVLPB3fQsQGDvGcArKofBwq+4QG6t
AkGhyNXBBXypQKS6wUBlb9nB6P59QOiPXEDI8bjBPFb3QLhUlUBOIKvBHoHuQBPtBECleLXBIaWL
QGHWnkArVMjBfy8CQYPKxECVnLrBCBf/QHgfg74gp7rBQ6iMQNlfJT+y7Z/BK4mZQHBQj0CP5YbB
1ZjBQM4xTECV94bB0sDPQKMInEBNdIrB1AI5QKsiXsBlaJrBVVuRQN4/hMC0b5jBeUVvQBU+lb/k
3ZfBAVusQP8e5r/mLJXBP/9OQL75isCkw4fBvfuRQLnoScBQ74XBL+CRQNkb4UBTlMzBY8RWQAaM
PUBpeajB0hwDQO21ZUCWyZfBi7s9QBDsg0AL1IzBrAucQCZogUBYSLnBQiPgQM5ll0BEh7HBdbfc
QC62nz/qw7HBgjajQLC5nEB7CsLBX1LnQF6BskAcS7rBHgnmQBCCqb3merTBqNGjQGlq8z7+26XB
CAi6QAX6fUBS07DBW/q6QJnXxT8GmKrBxvLIQFoCtkA+i8LBjeKsQPhRXb8qt6jBQhrOQOQ2kb+e
BrDBHe7KQJOeVkDQbp3Bt2aDQKhxZUCiEprB19axQIEpQEA+d6fBemy2QMqBgUC0z4rB3dlvQNRv
VcC/3ZbBIyeTQLFOBsAqrpnBiOZoQDabX8ABporB2cOvQHAJ4kDxZ9HBOt2sQKdbc0CJJJbBUBuF
QGKbS0DfC6TBXmY7QGepcEAMZJTBrTHxQFI0S0Dqw5vBZPWTQIBG9b9fH6XBPJDSQFpD0kDEzMrB
wyzXQDxBGsB2zrLBGQA/QA2WG8DfTobBwPihQDQuw0CKQdjBPsCOQJjS8EBuUcvBbsx+QE81XECa
ArnBrtf3QCwelUBaRKvBYWvvQL8xA0AGLLXBnO+LQLl+nkB4acjBNkQCQWHmxEAbtbrBFq3/QHAa
mb5AArrByyaLQPSPLz/zC6DBwVmZQJ23jEC9t4bBCovBQIxNR0C9EYfBko3PQP4DmkC+J4rBmV0v
QNK4TcA5Q5rBJAiHQLpzh8DARJrBwS6FQDKKmr9j4pXBkf6zQCyjD8BmvJbBd3pFQNVRjcAfz4jB
r8eUQGmMY8D2M4fBiG68QPbb/EDUJNbB/CNXQEUhQUCsr6jBrRUDQPDYZECh5JfBCVg9QFBIgkCY
yozBDyqdQAwugECCk7nBAlTgQEG1l0CSj7HBGJvcQKYflj/OU7HB4sqjQJFGnEAHNsLBbf3mQACP
s0DsM7rBIFjlQEKROL58fLPBjzmiQL5r/j4giaXBe+u6QNRffEAjDLHBpZC6QN9nwz8dbarBLcfI
QJaTtkBxf8LBVS2qQEeyW7/74KfBl0DMQGIfmb+r0a7BnFvLQF0TVkALjJ3B4LiDQMBxZUB3P5rB
2FCyQAvNP0D7mKfB8Fe2QLR9fEDTvIrBY4FlQJ1mQsCPGJXBIZWaQAqcKsBhy5vBcSp+QG9DcMDB
qIrBZVCtQK7X4UBn1dDBAyGtQG5ucEA2J5bBS5mFQAmDTUD7SaTBucI7QB5kcUBVppTBi6PxQIG1
SkCF5ZvBWeeMQOUB57+Yb6TBXFHRQMt/00C3mMrBd1TUQMAyH8CgUbHBxqmPQP9cn8BBzIzBvgu1
QCZJBUGABdTB84KoQPZ4yEDSlNnBmySBQDLqV0Bcc7nBTOD3QIu1lUCxQavBxPTvQAvm+D+m87TB
JLSMQHDTnUDXoMjB3s8BQZbgxkAzfLrBfm7/QL+H4r40wLjBBT6JQHh5QT+s75/BaiOZQG3GiEAR
l4bBMGLBQAKoP0AnRofBQm3PQF+mlkDXyonB2ENCQHSNB8BuHZPBAUY8QFjqbMB+2pnBtPKxQFbV
CMDTvpbBok6pQKzxZMCBEZ/BhBGXQMXLScDCX4bB1tpEQDuWd8CVoYXBy1aQQO2f4ECZ2MvBhllY
QN+lRUDwC6nBv4oDQO+oZ0A0RpjBx2Y9QGTegUD8/IzBjSWcQMSpgEA0X7nB05/fQLyKl0A2bLHB
GubbQL7cnz/mDLLBGZajQBTQm0AlKsLBq//mQMKLskBdMLrB1HzlQBDGmb3h27TBs+ekQCVv5T5i
tKXBiLi5QFt3fUDRzbDBYPS6QPD7wz/hnqrBQvvIQKCUtUC+hMLB0E+uQJmvZL8Uo6jBqrjOQOzY
kb+fO7DB7szKQCA3VkCwbp3Bl2GDQIyrZkCFHJrBMqWxQGdEP0AIc6fB5J22QG9KhEDrBYvBvlJ3
QJKMVMC7zpXBES6OQHC5+7/6ZJnB7X5nQLaoUcDNqInBE4GvQHj23UANutHBC+asQBRodUBaQ5bB
bPWEQOBFSkCq+6PB24w7QBKCc0CXcZTBBCDxQCiMS0A5xpvB17KXQGAe/r9Rs6TBlhzSQIY90kB0
qcrBgZnYQGsrGsD8BrPBq39KQOs9j8C2I4bBo3mOQCin70CtK8zBkou+QN99+0AGu9jB3Ud/QNhI
WkD0KLnB4Af3QHmflUCGFavBRM7tQLHWA0BQlrXBmM2MQBwLnUBxp8jBIwcCQRo0xUBQirrB63r+
QDYOjr5AmrrBrNyMQPGXJT+LtJ/B0Z+ZQJs5kEDSBYfBSbLBQCwJTkAt/4bBotLPQGHPnEC8oIrB
x5k6QMOaYMBg/5nBLYOSQIL5g8BQr5fBZFltQD4+lr/cwZfBN7+rQDnS4b/w5pTBVeORQEohQsCK
jIXB4Y03QPgcIMDn4IfBPpGkQGFHwUBeCNbBVbVWQOnUPUDGhajBuRsDQBLuZkAs35fBDMI9QPar
hEDF7YzB3F+bQGiEgkBOULnB9S/gQNL7lkAFr7HB9hTXQPsjmz/C6bLBBKmiQLwinkDrA8LB+YHn
QHhWskBUZLrBx9XgQPqJAb7XMrXBx+6nQGa99T5XdKTB7Ky5QF1VfkDk8LDBTeq5QN4KxD+vpqrB
wdnIQDiktkBvi8LBx4WyQPLpYL/rjabBobLOQO4Hlb9rGq/BK/PKQCwhVkAGpZ3BSKCDQP6GZUBV
H5rBLm6xQLnZP0DtoKfBMF23QOJHgkBBDIvBEn2HQChMOsDyh4/BjfuLQK/J07/UrJbBRndfQBbN
gcBVNJXBEuWuQAx34EDrW9HB7EKtQO/Hc0AIU5bBx92EQFNKS0C6FqTBQGQ8QJIIcUB/V5TBWkfx
QITDSkB5EJzBtHejQLtF+r9Ad6DB/iPSQLoM00ATucrBdmrZQDRkHMDvX7HB/xMOQCmYa8DQkJfB
W3a4QFCnA0HgjdXBiuuoQFL8w0BJcdnBu858QE5rX0CABbnBIhn4QF8JlEAwfavBb+rlQKoqAEAE
fLfBkiCLQLOyoEBuT8jB+38CQXpExECY1brBrGj2QMtvub4ErrvBte2RQDE8Nz+NEJ7BGIOaQFTJ
jUBu6IbBCpPCQKkuSUCpPYfBkZbQQOW/mkBKi4rB6qenQHGsUMCjTo3BWU1rQE7TKMAJRIjBasRX
QJfupL/qyZjBnjudQDUrYL+oM5LBZ6eAQDnvicD0pZzBzt9dQB71ncBN7Y/BqtuRQCWZ4kDSaczB
bT1WQLiOQEBwpajBhsADQAojZUDEwZfByQo/QDidgkD6wYzBUS3fQLbul0AqQLHBB4GbQE1rgUBf
LLnB1SbYQFyZnD8iFrPBH0jmQO1qs0Dg8LnBDo+iQAAlnUA12cHButjiQF+d3L3/bLXB0IeoQMCX
5T6y5qTBPGu5QD7JfUCfsrDBtm26QOcTwj994arBMhjIQD+jtkAZO8LBqz60QGF9Zr89+qbBOT7R
QHfOlL8aaK/BBNbKQD3cUUCra53B82GDQJG3Y0AGH5rB7YmxQNL3PUB5i6fBH6C2QDSvgEDh2IrB
oj2LQHVBOcC4i4/BMyOOQF4F1r9yEpfBn+VlQIU+gsBUnJTBLZOtQN154UDIwtDBBnasQHH5YUD4
n5XBBNSEQNE2SEAICKTBRzU8QJuie0D45pTBGonxQBT8SkAWBJzB9ZelQFCO/b+z3qDBQlvRQLBt
0kBah8rB12DdQJKdG8Alm7HBlpMTQM3SbcBoppbB/UOTQITG+UCVkMrBq868QAPG+UB949jBMKf2
QEHUlUCK7qrB3gV+QJPAW0A9+bjBQKzmQFjCAUCxkbfBipsBQVdGxkBYQ7rBFF2LQDEMn0BZPMjB
frn4QHAIpr7H4rvBdZ6RQFDpKT+Nqp7BFeOYQPtshECeO4bB9KzLQLg1U0BxyobB3PDGQJjIn0CI
cYvBXN2rQHxuTsBLkY3BSSF1QNP3JcA1LojBxRxbQLwGrb8/M5nBnaGeQKz4Wr/d25LBSK+CQC5c
i8AtJZzBwplmQHKXncAhEo/BJAecQFi9xUD08NPBi15WQDjuO0BWkKjBPgcEQFZ1eECztpjBPZ0+
QAkIiECfU43BTnjgQM7KlkD3trHBb1KdQLTHf0Bu2LnBmmvUQBfwiT/s3LLBdxjnQLxzs0A4LrrB
MwakQCmknEAkVsLB/yrdQJg1lL4ZYLTBlQ+oQNttAj/5eaPB+va6QEK5ekCYT7HBme+4QM52vj8l
gKrBvMXIQMxat0AVa8LB3LKxQApLW78bq6TBfyHMQPgmob90Wq3BSlfLQIJbVECR353BNeSDQOrM
ZUAZhprB5/WxQEghPkDm5afB8/62QJTpfEBWGYvBwMSKQPRzbcDhnZPBoyGQQFgrOsBFLJ7BbIdW
QCEUQ8AjrovBe46tQAnp4UCkANHB7nKtQDdXcEAPfpbBfGaFQAWPTECWhqTBDYA8QNa7ckCn4JTB
sZjxQO5gSEC5P5zBL2inQB1S17/jEpzBw+LQQMG41UCJOcrBugjYQFwMI8A6s67B7LB0QJyi7b+x
CojBt5qNQLXx80DEIMvBm/m7QEki/0CkKNjBqiD4QL4SlEABdKvBl1mBQMgvV0CM1rnBb7HiQBEW
6D9VFrjB++MBQVK2xkATX7rBnC6NQGBnnkAmzsjBOB/xQOrBGb/d+brBbEKTQJ/3UT8+Cp3B1RCa
QH6piUAZ8YbBSI7BQM3yP0Drk4fBAYjQQG9wlkB6PYrBTJt9QKrhlsCFlZXBzzuqQArLcsCQuo/B
O/qhQFAHYcCw/6PB7MdgQJ2ZKsAQcaHBwgoZQIFgOMB3wI/BZt1MQMg3bsDp1ITBn5+hQLVXxUCU
MNXB8JxXQF9CREDiNqnB5QUEQMW+aEB0bZjBGK8+QFwGg0BoQY3Bo0+cQJOpgEAwWbnBPerfQG9e
l0ArdLHBe/TYQKLglj/snbLBVviiQK/PnEBP9sHBJqTmQG0/s0CGF7rB7SLiQFPFKL4Y6LTB09Cn
QHrF6z4Tj6TBcEm6QGVffEDg47DBWf26QP2pwD9AkKrBNzXIQPfUtkA6VMLB6mywQKqPZ7/W5abB
jd/NQFZ/mb+4LK/BvTbLQNpGVEDciJ3B/6eDQJKlZkBMXZrBkzayQCUIPkCvlafBsVK2QOWnf0Ce
44rBa75cQJcsOsBgGJPBRsyHQGOZ2L/dWJfBU4SKQEOvhMDtNZHBmuqtQBla5EDXxNDBSRutQLAc
cUCrQpbBJ3OFQEVsSUBrMKTBO7A7QPk4d0Bt8ZTBvX7xQMkFSUBU4JvBrIycQASU/L85l6HBcEPR
QM7J00Cpd8rBlnjXQP3jHsAlmrHBoduoQNt5eMAeuonBwKCfQF9sxkCDz9fBnFmNQLgz8kDmZcrB
MhGAQCeDWUDeL7nBHZr3QMUXlUAoMKvBcNLoQAF9+z+1BLfBVKyLQI2onkDIU8jB0sMBQSksxkDU
arrBGuj4QDmp0L7+G7vBu0mSQEf3ND/9F57BQTmZQEY0i0AE1obB/PbAQLhnQ0AdMofBErPPQBwG
mEABHYrBNHc+QJxDKMAAeYvBD/YqQEWtSsAw95jBa1JjQPbXWL9YZZjB6XygQMs4tr9VdJHBI7Fs
QCpNn8APbo7BLDWaQKCtjcCiwpjBKye6QL3X/0C4VdXBj+BXQCmjPEAZv6jBhmsDQKXnbECsh5jB
iGo9QFe/hkA9co3B

> <OMEGA_E>
+Jc1Pgi5Sj6A1Vs+YLdcPkASYz7AuYE+UFqDPoDDiD4=

> <OMEGA_NBR>
    152805

$$$$
50168801
  -OEChem-04172616093D

 51 53  0     1  0  0  0  0  0999 V2000
    6.9591   -0.1867  -22.6119 C   0  0  0  0  0  0  0  0  0  0  0  0
    6.6617    1.1704  -22.3851 C   0  0  0  0  0  0  0  0  0  0  0  0
    7.0187    4.7289  -22.2202 C   0  0  0  0  0  0  0  0  0  0  0  0
    4.8802    4.0691  -23.1864 C   0  0  0  0  0  0  0  0  0  0  0  0
    6.4306   -1.1810  -21.7647 C   0  0  0  0  0  0  0  0  0  0  0  0
    7.2391    5.5938  -23.3033 C   0  0  0  0  0  0  0  0  0  0  0  0
    5.1006    4.9377  -24.2677 C   0  0  0  0  0  0  0  0  0  0  0  0
    5.2896    0.5347  -20.4682 C   0  0  0  0  0  0  0  0  0  0  0  0
    5.8236    3.9732  -22.1377 C   0  0  0  0  0  0  0  0  0  0  0  0
    5.7977    1.5423  -21.3253 C   0  0  0  0  0  0  0  0  0  0  0  0
    6.2819    5.7244  -24.3257 C   0  0  0  0  0  0  0  0  0  0  0  0
    5.6073   -0.8192  -20.6760 C   0  0  0  0  0  0  0  0  0  0  0  0
    6.3476    3.3423  -19.7167 C   0  0  0  0  0  0  0  0  0  0  0  0
    4.1114    3.5722  -19.2805 C   0  0  0  0  0  0  0  0  0  0  0  0
    4.0861   -3.4551  -17.7160 C   0  0  0  0  0  0  0  0  0  0  0  0
    2.8984   -2.9557  -17.2331 C   0  0  0  0  0  0  0  0  0  0  0  0
    5.5535    3.0131  -20.9711 C   0  0  1  0  0  0  0  0  0  0  0  0
    5.7103    3.8647  -17.3431 C   0  0  0  0  0  0  0  0  0  0  0  0
    4.2380   -3.9316  -19.1514 C   0  0  0  0  0  0  0  0  0  0  0  0
    4.3163   -2.7672  -20.1665 C   0  0  0  0  0  0  0  0  0  0  0  0
    5.4733    7.1344  -26.1469 C   0  0  0  0  0  0  0  0  0  0  0  0
    5.4102    3.7270  -18.7734 N   0  0  0  0  0  0  0  0  0  0  0  0
    4.1593    3.2146  -20.5414 N   0  3  0  0  0  0  0  0  0  0  0  0
    2.9343    3.7490  -18.5690 N   0  0  0  0  0  0  0  0  0  0  0  0
    7.5402    3.1338  -19.5181 O   0  0  0  0  0  0  0  0  0  0  0  0
    5.2397   -1.7468  -19.7201 O   0  0  0  0  0  0  0  0  0  0  0  0
    6.5715    6.6270  -25.3433 O   0  0  0  0  0  0  0  0  0  0  0  0
    2.8086   -2.5884  -15.9344 F   0  0  0  0  0  0  0  0  0  0  0  0
    1.8193   -2.8279  -18.0406 F   0  0  0  0  0  0  0  0  0  0  0  0
    5.0281    6.1835  -27.0114 F   0  0  0  0  0  0  0  0  0  0  0  0
    4.4533    7.5869  -25.3641 F   0  0  0  0  0  0  0  0  0  0  0  0
    7.5950   -0.4670  -23.4386 H   0  0  0  0  0  0  0  0  0  0  0  0
    7.0930    1.9299  -23.0204 H   0  0  0  0  0  0  0  0  0  0  0  0
    7.7651    4.6390  -21.4448 H   0  0  0  0  0  0  0  0  0  0  0  0
    3.9826    3.4693  -23.1556 H   0  0  0  0  0  0  0  0  0  0  0  0
    6.6556   -2.2213  -21.9483 H   0  0  0  0  0  0  0  0  0  0  0  0
    8.1540    6.1655  -23.3523 H   0  0  0  0  0  0  0  0  0  0  0  0
    4.3686    5.0079  -25.0587 H   0  0  0  0  0  0  0  0  0  0  0  0
    4.6491    0.8106  -19.6436 H   0  0  0  0  0  0  0  0  0  0  0  0
    4.9377   -3.5102  -17.0540 H   0  0  0  0  0  0  0  0  0  0  0  0
    4.8035    4.1803  -16.8063 H   0  0  0  0  0  0  0  0  0  0  0  0
    6.0537    2.8981  -16.9459 H   0  0  0  0  0  0  0  0  0  0  0  0
    6.4991    4.6189  -17.2050 H   0  0  0  0  0  0  0  0  0  0  0  0
    5.1599   -4.5268  -19.2281 H   0  0  0  0  0  0  0  0  0  0  0  0
    3.3727   -4.5614  -19.4057 H   0  0  0  0  0  0  0  0  0  0  0  0
    4.6557   -3.1590  -21.1367 H   0  0  0  0  0  0  0  0  0  0  0  0
    3.3169   -2.3221  -20.2801 H   0  0  0  0  0  0  0  0  0  0  0  0
    5.8625    7.9806  -26.7321 H   0  0  0  0  0  0  0  0  0  0  0  0
    3.3596    3.0953  -21.1299 H   0  0  0  0  0  0  0  0  0  0  0  0
    2.0524    3.6024  -19.0171 H   0  0  0  0  0  0  0  0  0  0  0  0
    2.9673    4.0231  -17.6079 H   0  0  0  0  0  0  0  0  0  0  0  0
  1  2  2  0  0  0  0
  1  5  1  0  0  0  0
  2 10  1  0  0  0  0
  3  6  2  0  0  0  0
  3  9  1  0  0  0  0
  4  7  1  0  0  0  0
  4  9  2  0  0  0  0
  5 12  2  0  0  0  0
  6 11  1  0  0  0  0
  7 11  2  0  0  0  0
  8 10  2  0  0  0  0
  8 12  1  0  0  0  0
  9 17  1  0  0  0  0
 10 17  1  0  0  0  0
 11 27  1  0  0  0  0
 12 26  1  0  0  0  0
 13 17  1  0  0  0  0
 13 22  1  0  0  0  0
 13 25  2  0  0  0  0
 14 22  1  0  0  0  0
 14 23  2  0  0  0  0
 14 24  1  0  0  0  0
 15 16  2  0  0  0  0
 15 19  1  0  0  0  0
 16 28  1  0  0  0  0
 16 29  1  0  0  0  0
 17 23  1  0  0  0  0
 18 22  1  0  0  0  0
 19 20  1  0  0  0  0
 20 26  1  0  0  0  0
 21 27  1  0  0  0  0
 21 30  1  0  0  0  0
 21 31  1  0  0  0  0
  1 32  1  0  0  0  0
  2 33  1  0  0  0  0
  3 34  1  0  0  0  0
  4 35  1  0  0  0  0
  5 36  1  0  0  0  0
  6 37  1  0  0  0  0
  7 38  1  0  0  0  0
  8 39  1  0  0  0  0
 15 40  1  0  0  0  0
 18 41  1  0  0  0  0
 18 42  1  0  0  0  0
 18 43  1  0  0  0  0
 19 44  1  0  0  0  0
 19 45  1  0  0  0  0
 20 46  1  0  0  0  0
 20 47  1  0  0  0  0
 21 48  1  0  0  0  0
 23 49  1  0  0  0  0
 24 50  1  0  0  0  0
 24 51  1  0  0  0  0
M  CHG  1  23   1
M  END
> <OMEGA_C>
2LDeQOQwP74m5bTBaizVQL/OlT+wFLPBcZngQPJSl0D/wrHB6CqcQPg1gkCvfbnBvMfNQLsrl78i
Hq7B2qbnQCYAs0ArbbrBUzijQAMCnkBLJMLBcESpQDDgCD/svqPBRFu6QDVJfkAXGrHBHYe5QKVp
xT8xmqrBnAXJQBwut0AWm8LB0m6zQOe0Ub9waKXBSh/LQEboVUDau53BRpCDQHifZECOPprBWcGC
QNEfXcBluo3BBX85QFcqPcBu3YnBnraxQN/WQEDhxKfBDbu2QH1Xd0CdvorBpZ2HQFyfe8AdNpnB
fR+KQBwaMcABVaHBfSWvQL5M5ED0LNHBgCCtQLuGbkD+L5bB3BiFQG28TUDfVKTBA8s7QIfvb0Bn
jZTBpEnxQMWPSEALJZzBoKunQKCY37/Twp3Bp0nSQLMQ1EAiv8rBLcAzQIynJcBp837BnN/oP8z7
NMAmU5DBz+WgQOnexUBMF9jBy4GOQNPH8kDB6crB2gnzQOIY775XgrvBjPniQAoG9z+wKbjBhnv4
QFtylEDujqvBAON+QIEJXkCyPrnBufrUQAUpDsAglq/B6nYCQSZMxUCO0brB4cuLQB1BoEA+eMjB
kMWUQMGCTz8LJp3BPwGeQCenYMCnbojBP7aZQK3EhUBkc4bB87fBQLN6OUAfkYfBg/jPQB3Ok0Dh
o4nBqx2lQJjbkMAQ05nBnNpXQAH3kcDYPpvB1/uUQFwsSsAKGKnBe0dUQGedFMC9PaLB95m7QPJg
/0Bj29XBegNXQLMYRkDzCanB/1kDQP+MZkAFI5jB3eg9QDu9gEAC3YzBCw3kQCDPkjxSvrbBaaTX
QDMRqD98z7PBQXXeQLGcl0BRH7HB9yKaQM56gkA95rjBC1bVQAsWi7906rDBzzTmQAxoskC16rnB
kNqhQBSPnUCJrsHBbIGsQCSsyz52OKXB7hS4QDQWf0D1cbDBCCy7QNobwz9PJKvBpQvIQIoftkC+
NMLBRBa6QNpDar8vE6jBIUfKQAdSUkA0Zp3BmCODQC9paEAeM5rBBN1AQMXoX8DyrI/BKUE0QBwI
McCEfobB+9SwQFhVPUC3b6fBm5m2QIC5gkB8+orB+CSKQGQzW8DZt5XB+NCJQO+uCcCuoJzBG5Sv
QMJl40BK49DBp8+sQB0yc0B5PpbBs0SEQB3PRECQuKPBzao7QDxjfkDO2ZTBbY7wQIWPRkCcy5vB
OUOyQHxTA8AFCKLB6EbSQDK90UAVjMrBpljMPwiMMMAJ3YHBWs9zQGZMAMBYU4LB8x6gQF24xUCa
1tfBx5KPQEfL8kB2j8rB3AH5QBRtBL4Wg73BFufjQPVECkDyM7jBH/D1QCpLlUAhz6rBAzN6QDOM
X0ArnLjBJwrfQNg3BcANPrPBDNcBQWJhxEBzUrrB75+KQF6un0CaDsjBkAaXQJDfCT/fi57B3DsO
QJNchMBampLBleuZQJiGj0A5AYfBuafAQGgeSkCt9obBRpHQQLhrmkCVh4rBKf+kQGGtWMB7CZDB
ToyNQPLricDN35rBJp9fQPtvDcApiqLBCAiFQGJ7or+GgZfBAt28QAkt/kDZiNXBai1VQAqVMUBY
2KfB6cQCQElFc0BfPZjBoMY+QJesjEAPm43BzXrkQMC18DsmjrbBnrHXQJ/Ipj/MvLPBtKfeQGUb
l0D1MLHBeriZQBcSg0Bl1rjBGdXVQB4YjL/PrrDB6G7mQD0KskDM87nBgY2hQJ4mnkCmncHBPBas
QBrNyD53NqXBJP23QNr3fkBVdrDBYPC6QOA3wj8dI6vBwA7IQMUitkBnK8LBoQW6QBT6a7/j9KfB
gzvKQBTQUUBebp3BLxmDQDXyZ0A3MZrB/EM9QIMHW8DnmI/BVMA5QH/qL8AMA4bBYKywQEQGPUBL
dqfBOsC2QDqBgkCl/IrBxTmHQH6NXMAvHpbBnB+JQKKMCMADiZzBbpGuQNU14UBGz9DBtMqsQC3s
cUDVOJbB/CKEQL6RREAMuqPB37o7QE7AfkD33ZTBGpvwQDLXRkDQ4ZvBB2+xQEYIBMAsA6LBSfPR
QKmK0UCTg8rBlvXaPyKIJcCmGoHBPGiAQA7MC8BLu4HB8cySQAiM90C9i8rBgzm+QFXA+0A/cdjB
2675QFveEb6jRb3BreLjQMd8CUAyK7jBX1X2QI9RlEC976rBpr54QHu/YUDrfLjBewngQCCvBcB5
47LB/gQCQSLJw0BRYrrBRTGKQCKxoECP88fBujSWQJ7oCD9+n57BOzMFQEUwfMDdfJLBDveZQCbg
jkDj+YbBzXTBQAM5SkDD84bBKU3QQO+rmkA+norBQSejQPY7YcAcy5DB/+GGQKzHicD2m5vBCMJd
QK0gB8CeZaLBegiGQGOTo78oD5fBJiWeQDDfxUC2iNTBTdRUQEWIMUAh2afB0ckCQA13dEAQSZjB
9vs+QEq9jEAGnI3B9pfdQGDacb7rALTBhC/WQIBtkT90WrLBYCSeQHDIgECpzLnBBrvhQN6Rl0AJ
3bHB1PHIQIlimb/Gka3Bj/ikQEGVnECyccLBB4/oQFdSs0DIhrrB7zKlQKZ0FT/X06PBgdy7QL2H
fUBwSbHB6fy4QLJPxz/JYarBwwrKQBjDtkAnwcLB9tusQO+VSb9ZQKXB7ZTLQFMNWEB3uZ3BseaD
QCkdY0ABRZrBSRhFQKd1XMAdZZHBih8+QMA8OsBmR4fB1G6yQAuKQkDLyafBL4u2QCUgeEBgvIrB
MVCNQDkEd8CTE5bB7iaYQCi1Q8ASPKDBmNutQByo4EDRTNHBSz+tQEWeb0AHMpbBBcyFQBOiUkDL
iqTBy0c8QI8gZkDKc5TB673xQJscS0D3E5zBhvmZQL7v0b9fzp3B5gXSQA8K1ECo08rBBdnfP1vU
JcBCbYPBaBeCQDMfLMAuJIHB4KGPQAw99ED8KcvBLJC7QB+T/ECC2djBNzzzQIoPDr8TPbrBEMbm
QBAZ7z/uKrfBqfiBQHKLWUBYpbnB/HP5QFIelUA7nKvBdXzOQDj/D8BT967BIPSNQIUPnkDj4MjB
er0CQUYwxkC34LrBUqqPQDpmZz/Ykp3BUOkLQBKjZMC/I5bB0U+ZQAC2hUDGd4bBJdXBQCBiOkBz
lofBnXfPQLp4lEC7j4nB9nimQEkQbMB+E5DBaRWMQFO9ncCDGpjBKmC3QGm2WMDYVaPBHLJ+QPcb
T8BUUKbB7USgQMf/w0AFHtXBGC9ZQKkvUUDAd6nBt04EQLdaW0AUF5jBicw9QJ0Sc0C2nozB96ri
QEQLBr6SobPBiuXaQFpunT/whrHB4l6dQLBMgkDad7nBDjjhQKDwmEB9qbHBSHvJQF74j7+XtK7B
coukQMAenUA6ScLBFXvoQCaQs0DTh7rB/a6gQI0TGj97iqXBkja7QHpugECm+rDBm1a5QLTxzT/S
i6rB8i7KQG9etkCg1cLBGCCoQESxQb+umKfBsE3LQNezWEB0b53BWYiDQKWWYUCN7pnBG6lJQB1q
TMBelZHBgQ9mQLY1W8DMVofB/C+yQIvoRECqjqfBSQ22QDdZc0CWTorBGOh0QCmKdcBTJJvBNwye
QMC3O8CvoZ/BhtKvQHD55UCDwdDBZdSsQO8abUDMypXBhoaFQOgqVEBXRKTBt1Q7QIdyY0CPJpTB
BKfxQLhqTUCV4JvBO0aMQDbI1L/k6aLBdn3TQMan0UBNScvBleo+QMn5M8DPEn7BpDSVQMdAh8AH
g4XBjZycQPBHykB0otfBP7mSQA/U9UDIqcnBXgj8QGxt1L69CrnBypDuQD1N/j9vPrXBXcuAQKjN
XUAfKbnBCbb4QC4ol0A+V6vBO5bPQIy9CsCEWLDBq1SNQDyLnkBGrcjBB84CQbUSxkDa+7rBvqWH
QB5rYj/YB6DBrX0TQNSuIsAT2JLBZp6YQAwogkCh+IXB1grCQEdsNUClYofBjGvOQBR+kkA/9IjB
g4CIQLB9mcAgq5jBKeZEQOBkgMBGbKHBT1u2QPTwMMBHaZnB6vGsQCgnW8CxkabB6fO8QDBpAEG4
Z9XBQ75YQL5CVEBQNqnBkG0DQAE2WkDS3pfBHaA8QDAGbkAlQ4zBJbrhQAobF75ErrPB1ivaQBi5
mz8epLHBZB2dQESbgkAie7nBMVXhQIKdmEAju7HB+evIQIRokb9Ijq7B7UekQC6lnUA/RMLBm6jo
QJxFs0Cqk7rBFRWhQHhFGj+/SKXBbiy7QHdYgEDVB7HBNEK5QGtazT97gKrBTTvKQEhbtkDu08LB
5yaoQDU/Qr/zTafBsl7LQHgfWUDGe53B2aSDQLFoYUCs8JnBPgxHQOIsTMBRlJHBe/NkQNDWWsDS
ZofB2zCyQDHcRECZlqfB2UG2QKNwdEDQXIrB7uFwQJiEdcD+OJvB0sScQJsqPcAQrJ/BnQyvQOgZ
5EDdltDBcvCsQA2vbUCd1pXBI42FQN49VEBcSKTBnb87QIZRYkCdHZTBaMHxQMY/TkBv75vBmy2M
QAV4078gfqLBcF/TQNt30UBBPsvBVow/QHXlMsB2DX7BmaSUQCs+h8ByuoXBbre6QJCFBUFzXdTB
uKiiQJzlykAb5NjBlaT6QMt/4L6IMrnB0YHtQOD1+z8Jh7XBK26AQM+9XkCzKrnBr+X4QAyalkBQ
bqvBzd/OQEaVC8DlJrDBU9yMQJqdn0DcmcjB6fQCQcqSxUA+DbvBUaqIQERnZD8foJ/BLbwQQK5r
IsAGupLBn9eYQKy3gkBcBYbB01nCQJSxNkCNaIfBaZPOQCogk0AWDonBabKFQHH2mcD92pjBK2NA
QPHefsBkfqHBu8+1QLrwNcDjjZnBrXGqQMyyW8Ca06bBlbSUQPh150BE0MrBAr9YQIWTVEBOOKnB
69ADQFqKWECKzpfBhzY9QJXAbECOOYzB

> <OMEGA_E>
cIlZPohZhT6gQoQ+QMJ0PtCwcT5w1Vs+

> <OMEGA_NBR>
    158265

$$$$
50168805
  -OEChem-04172616093D

 54 56  0     1  0  0  0  0  0999 V2000
    4.9248   -1.8502  -20.4950 C   0  0  0  0  0  0  0  0  0  0  0  0
    4.3575   -2.7660  -19.9400 C   0  0  0  0  0  0  0  0  0  0  0  0
    4.8030    4.1285  -23.1177 C   0  0  0  0  0  0  0  0  0  0  0  0
    6.8530    1.4230  -22.3655 C   0  0  0  0  0  0  0  0  0  0  0  0
    5.0717    4.9308  -24.2410 C   0  0  0  0  0  0  0  0  0  0  0  0
    7.1992    0.1137  -22.7365 C   0  0  0  0  0  0  0  0  0  0  0  0
    5.2263    0.5470  -20.7720 C   0  0  0  0  0  0  0  0  0  0  0  0
    6.9150    4.8249  -22.1165 C   0  0  0  0  0  0  0  0  0  0  0  0
    5.5767   -0.7605  -21.1405 C   0  0  0  0  0  0  0  0  0  0  0  0
    5.8409    1.6516  -21.3972 C   0  0  0  0  0  0  0  0  0  0  0  0
    5.7261    4.0695  -22.0459 C   0  0  0  0  0  0  0  0  0  0  0  0
    7.1893    5.6175  -23.2362 C   0  0  0  0  0  0  0  0  0  0  0  0
    6.2795    5.6671  -24.3103 C   0  0  0  0  0  0  0  0  0  0  0  0
    6.5604   -0.9816  -22.1293 C   0  0  0  0  0  0  0  0  0  0  0  0
    6.3203    3.3569  -19.6627 C   0  0  0  0  0  0  0  0  0  0  0  0
    4.0917    3.5699  -19.2023 C   0  0  0  0  0  0  0  0  0  0  0  0
    5.5145    3.0636  -20.9196 C   0  0  2  0  0  0  0  0  0  0  0  0
    8.4877    6.3940  -23.2932 C   0  0  0  0  0  0  0  0  0  0  0  0
    3.0154   -2.6123  -17.1488 C   0  0  0  0  0  0  0  0  0  0  0  0
    5.7152    3.9583  -17.3015 C   0  0  0  0  0  0  0  0  0  0  0  0
    3.6777   -3.8684  -19.2700 C   0  0  0  0  0  0  0  0  0  0  0  0
    3.8380   -3.7738  -17.7383 C   0  0  0  0  0  0  0  0  0  0  0  0
    5.5729    7.1642  -26.0229 C   0  0  0  0  0  0  0  0  0  0  0  0
    5.3952    3.7689  -18.7215 N   0  0  0  0  0  0  0  0  0  0  0  0
    4.1248    3.1851  -20.4561 N   0  3  0  0  0  0  0  0  0  0  0  0
    2.9237    3.7441  -18.4766 N   0  0  0  0  0  0  0  0  0  0  0  0
    7.5150    3.1485  -19.4743 O   0  0  0  0  0  0  0  0  0  0  0  0
    6.6317    6.4122  -25.4161 O   0  0  0  0  0  0  0  0  0  0  0  0
    6.9080   -2.2380  -22.4933 F   0  0  0  0  0  0  0  0  0  0  0  0
    6.0895    8.3404  -26.4578 F   0  0  0  0  0  0  0  0  0  0  0  0
    5.0709    6.4731  -27.0775 F   0  0  0  0  0  0  0  0  0  0  0  0
    3.8888    3.5552  -23.0725 H   0  0  0  0  0  0  0  0  0  0  0  0
    7.3601    2.2614  -22.8199 H   0  0  0  0  0  0  0  0  0  0  0  0
    4.3580    4.9853  -25.0497 H   0  0  0  0  0  0  0  0  0  0  0  0
    7.9564   -0.0520  -23.4886 H   0  0  0  0  0  0  0  0  0  0  0  0
    4.4824    0.7083  -20.0058 H   0  0  0  0  0  0  0  0  0  0  0  0
    7.6198    4.7913  -21.2989 H   0  0  0  0  0  0  0  0  0  0  0  0
    9.2684    5.7707  -23.7537 H   0  0  0  0  0  0  0  0  0  0  0  0
    8.3442    7.3046  -23.8933 H   0  0  0  0  0  0  0  0  0  0  0  0
    8.7940    6.6712  -22.2737 H   0  0  0  0  0  0  0  0  0  0  0  0
    3.1563   -2.5789  -16.0583 H   0  0  0  0  0  0  0  0  0  0  0  0
    3.3523   -1.6631  -17.5911 H   0  0  0  0  0  0  0  0  0  0  0  0
    1.9501   -2.7652  -17.3762 H   0  0  0  0  0  0  0  0  0  0  0  0
    4.8145    4.2877  -16.7628 H   0  0  0  0  0  0  0  0  0  0  0  0
    6.0699    3.0080  -16.8758 H   0  0  0  0  0  0  0  0  0  0  0  0
    6.5015    4.7210  -17.2015 H   0  0  0  0  0  0  0  0  0  0  0  0
    2.6073   -3.8358  -19.5215 H   0  0  0  0  0  0  0  0  0  0  0  0
    4.1073   -4.8194  -19.6178 H   0  0  0  0  0  0  0  0  0  0  0  0
    4.9002   -3.6149  -17.5004 H   0  0  0  0  0  0  0  0  0  0  0  0
    3.4980   -4.7169  -17.2856 H   0  0  0  0  0  0  0  0  0  0  0  0
    4.7855    7.3460  -25.2766 H   0  0  0  0  0  0  0  0  0  0  0  0
    3.3181    3.0005  -21.0175 H   0  0  0  0  0  0  0  0  0  0  0  0
    2.0374    3.5741  -18.9073 H   0  0  0  0  0  0  0  0  0  0  0  0
    2.9674    4.0399  -17.5224 H   0  0  0  0  0  0  0  0  0  0  0  0
  1  2  3  0  0  0  0
  1  9  1  0  0  0  0
  2 21  1  0  0  0  0
  3  5  2  0  0  0  0
  3 11  1  0  0  0  0
  4  6  2  0  0  0  0
  4 10  1  0  0  0  0
  5 13  1  0  0  0  0
  6 14  1  0  0  0  0
  7  9  1  0  0  0  0
  7 10  2  0  0  0  0
  8 11  2  0  0  0  0
  8 12  1  0  0  0  0
  9 14  2  0  0  0  0
 10 17  1  0  0  0  0
 11 17  1  0  0  0  0
 12 13  2  0  0  0  0
 12 18  1  0  0  0  0
 13 28  1  0  0  0  0
 14 29  1  0  0  0  0
 15 17  1  0  0  0  0
 15 24  1  0  0  0  0
 15 27  2  0  0  0  0
 16 24  1  0  0  0  0
 16 25  2  0  0  0  0
 16 26  1  0  0  0  0
 17 25  1  0  0  0  0
 19 22  1  0  0  0  0
 20 24  1  0  0  0  0
 21 22  1  0  0  0  0
 23 28  1  0  0  0  0
 23 30  1  0  0  0  0
 23 31  1  0  0  0  0
  3 32  1  0  0  0  0
  4 33  1  0  0  0  0
  5 34  1  0  0  0  0
  6 35  1  0  0  0  0
  7 36  1  0  0  0  0
  8 37  1  0  0  0  0
 18 38  1  0  0  0  0
 18 39  1  0  0  0  0
 18 40  1  0  0  0  0
 19 41  1  0  0  0  0
 19 42  1  0  0  0  0
 19 43  1  0  0  0  0
 20 44  1  0  0  0  0
 20 45  1  0  0  0  0
 20 46  1  0  0  0  0
 21 47  1  0  0  0  0
 21 48  1  0  0  0  0
 22 49  1  0  0  0  0
 22 50  1  0  0  0  0
 23 51  1  0  0  0  0
 25 52  1  0  0  0  0
 26 53  1  0  0  0  0
 26 54  1  0  0  0  0
M  CHG  1  25   1
M  END
> <OMEGA_C>
FZidQCjS7L/b9aPBxXCLQF8FMcAYhZ/BxbGZQNIchEAa8bjB/0vbQJkltj+g7LLBPUuiQNPInUCT
7cHByV/mQETN6D1j5LXB3T2nQN4GDD/2LKbBo0fdQONlmkCE7rDBlnSyQC6uQr+3H6nBQui6QHRm
0z9lLavBhTy3QKA5gkAXXrDByg7mQPHCs0C+47nBD/LIQNxYtUCYe8LBC+/RQGpHe7/bCLHBsD/K
QKfWVkBPTZ3BHO+CQP94ZEBXnpnBoXawQM8SREBZW6fBn80HQb6bzEBvWLrBr/xAQKEvJ8C1MInB
/eK2QMVUfUBxaYrB0V5rQKaTd8D+KJrBb6J1QGSGccAA6I3BBVWyQNBA5UDtLtDBOqWsQCM2cUCu
xZXB9v2DQDvZS0ArpqPBxh07QNefb0Ai0JPBtXrwQLiBSUBSy5vBpTbUQMIwzUBFVMvBUQ7dQFE7
D8Av8rPBUd3CQCRyBUGfqdPBLkWiQJ8jz0DPntjBYOJ4QCWIY0BnlLjBLIbrQA66EEApj7bBcnSL
QMqHn0DVZcjB7Jr+QHj5VL2U6LvBrG+PQGNVNT/wC6DBzdXzQPRRmUAaZKrBLEsUQfepuECuB77B
wIEFQYq/6UCHJb/BVrQMQdt61UCTMLLBjABKQBMNJcCAd4DBVYtWQATh1L+KuozBOJ35P2n4MMCL
AovBBBCaQMg0iUBKGobBejzCQKqDQECkAYfBbwzQQH0Sl0CznInByt0mQI5+dcACLJzB2G6DQKk4
msBN8ZzBS86cQEFaZ8DQAIzB3t9fQBTxlsDSSIrB5iKZQCoS60B1NsrBXltUQA8IQEDxI6jBL2QC
QDm+ZEA9QpfBIek9QJBGgUDILYzBbk+bQOCt6L8/KKPBQ36KQNjvL8BGlZ7BQqnfQH7Fm0ASDbHB
kdLYQGh5sj8IILPBRd7mQHwCtUBdMrrBAUXhQGO1kD0vQbbBSuOmQJMaFT/XlKXBqvibQPQohEAZ
nbjBq6KvQOqjPb8+q6jBXM26QMot1T9P5KrBYLu5QO5Kg0DxLrDBrE+jQPRUnEDr4MHBJPPIQEcA
tkA9qsLBDKHMQJmff78WFbHBE9vKQPTpWEDXBZ3BTv+CQEksYkCzj5nBmwuyQMdmRkC8KafBdkeD
QJpBl0Be48rB+Mg/QNRCLcAZGYjBq4m1QECseEDRCYrB6rVtQDIVecDkOJnB/Jx4QJyzc8B/+YzB
1U22QFvS6kADdtDBpE6sQMMQb0CoeZXBwyKFQIiQT0AuwqPB+fo5QKnXZ0B+4JPBCjjxQA/ETUB+
fZvBtsvUQJzczECGwcvBrDjVQMYpEcDlLLTB1PKiQGLZ2EAcG9nB92+YQEJA+UCqYcnBixH3QKsV
m0BksqrBBEnpQL10DUD1ArfBgNsBQdXpx0BJwLrBIqn3QLPXAL5CpbzB2NCQQEsWRj+UHJ/BHqJ9
QP+ZY0DA77fBUNdTQPxwr0CBDsrBxJmTQPqLm0BgnNLBEh9qQOArbkBzisrBAkRJQGlaK8BPw37B
VUFRQILw3b9+kYvBTHL4P1YgO8Dg3InBFhCYQA87hUDCxYXB4L7BQIzGO0D/2IbBSL7NQDZ+lUCc
6YjBowMpQDVqesCkI5vBdAqGQBMbmsDRHpzBFPydQH9+ZcCcIYvB+e9mQErTmMD+bInBuuzIQMZD
A0FgQNPBpZ5XQD2LSECzkajBrCoCQIhwXUDGkZfB9Ps6QE1VdkDwFYzBqOGdQHv/7r9W2KPB9nuL
QKYtMsCkep/BNPaZQPNIg0BJA7nBIqLbQFpnsz+q4bLBg2uiQNMcnUCA/sHBr8fmQMhDuj2EzbXB
Cs2nQKiaBz+GDqbBRFPdQPnmmUD0+bDBw/yyQB1wR79d+qjBOU27QJn50D+eH6vB42m3QMiVgUBq
abDBh+PlQJGKs0Bu57nBrbrIQPxatUD9fsLBim/SQMBcgL9D5bDBB2HKQEL1VUAWSp3Biv+CQDw0
ZUAiuZnBc7WwQCT5QkDsXKfBpr8HQa9GzECYW7rBUps/QIAjK8BlKonBUpu2QNJne0AnYIrBg9dq
QOIoecC7RprBn2t0QB7adMBtAI7BwriyQL5z5kAMiNDBU6ysQB4xcEBaxZXB2TKEQAi/SkBdrqPB
OQU7QELtckAMDJTBSJDwQGhbSEDovpvBORfUQOwuzkBAQsvBt47dQHqnEMDKyLPBQqmfQO0AzkCI
INjB2BiVQLWu9UB0fMnB0715QJRZYUD9rbjB48LrQD9ID0CCj7bBabuLQA53nkC+gMjBGP3+QB5N
nb0z0rvBZCOQQHCAMT+t5Z/B3PvzQCS+mEB7darBDy8UQVtauECKGL7B5HUFQaOM6UDjG7/Bd7gM
QfHp1EB1MrLBCCVIQNZDKsBmboDB2G1VQJzY27+GjIzBrAj3P5GSNMCyEIvB4reZQEZHiEBMGYbB
+qjBQPA2PkCkA4fBfOXPQLPrlUC5eYnBX3QmQDd2dsCMVpzBTBWDQFvnmsBiKJ3BmCacQOgJa8Bu
BIzBr2NeQBbYmMCaiIrBCSPCQKPvAEETe9TBRORUQKuyPUAPJKjBJ1wCQLuYaEAeiZfBzpg9QPST
g0DLdozB0vGYQAgZ0780pqDBCVWFQN+kE8B0KZrBLBDiQIS7l0A+wbHBvmrYQK4FpT/GDrPBZ7bo
QB/vsUB9vLrBww7gQHDCjr2kd7XBpJumQKcaHj8jIaXBIaqaQJnxhkAlSrjB8kuuQN88Ob+YZqfB
fda6QFrF0T8I6arBka+6QL8mgkCRdbDB+KmgQIWIoUCpLsHB+GXIQJhUt0BpgcLB1QfLQM4Ai78A
pK/B2HfLQL7GV0A2M53B+3WDQGAwYUBLypnBvcuyQF0kRUC5Z6fBYs94QIrXo0BgOcnBefGeQNbD
osBOmJXBlq+1QJqXc0DpHYrB9rBcQDbERcAPOJLBPrhgQLxlksA7TJXBjjG1QMh57kBHGs/BSris
QHy2a0Bkl5XBUcmFQOWbT0AiAqTBRIQ6QCIBaEA5NZTBVN7xQMioTUDOnpvBBz/TQF9jzkAFlMvB
czbTQD6yGMBM47HBqJzKQHC5CUGH69DBh7aiQKjt4UBDb9jBvgb7QM0YlEBp2avByhbpQIYBBECn
arfBmXwDQVArwkAftbvBaw/2QGpsqr7uybvBwaGQQPtdYD93yp7BBsB5QH2Ka0Dqa7fB+oNNQBY+
vkDlFMfBxJaJQF9zqUAeQ9HBYCFVQKB/hUAyKsnBZzWfQKfRxMA30pfBQUOxQBVMkMAJhpvB+5Gt
QAjWnsCzpo3BugKYQHXigUBq1oXB/kjCQOqDNkAaFIfB5X/NQPkyk0Ce04jBh1V6QNSNPMATUorB
4H8ZQNHiMMBx7ZHB/t1DQIaYlsCAQZ3Bc3s8QHkipcAqYo/BVLacQKcb80Dz4sjBYQhZQOcBSkC/
3ajBFNYCQD1QX0Dq/5fBORs7QA+cdUAfZIzBOlKZQGBa0L/QiaDB0PCCQJq8CcBX1pnBYjybQGdd
gkAMSbnBw7PaQLRfpD9pqrLBir2iQDEtnUCRF8LBnGDkQKhIlL1frLTBMFCmQGerGj/qaaXByRvf
QFVtmEB1arHB5/GvQEWCO79fQqfBZcK6QLLQzz9aD6vBDiC5QNpugEA8zrDBufrmQHjAskDYPrrB
PsfIQMnutUCKl8LBnw/PQG7pi7958q7BChDLQO8eVkAkf53BAnGDQHLJY0AV9ZnBJKGxQN13Q0B4
oqfB4/EHQXCdzEBxmbrBnWqSQPQDmsBxKJDBV4q2QHQYdEAxZorBthNPQE7LKsB8X5HB0IJLQPJO
hsBv3ZHBVjKwQFma5EAH69DBgf+sQCbpbEAR3pXBW/OEQE0BT0BpHaTBDH47QFZwbkC5QpTB3DDx
QAAxSECd6pvBDuXSQPgK0UAlCMvBDSzZQLzoGMDFxLDB1RCfQJIhyEC469fBC56RQH1j9EB3OMrB
uhR9QPRIXkB6+7jB3ZbrQOgCBECo6bbB8ZSLQMX6nkBLfcjB4SD8QDhDqb6embrBroSOQJblWz8U
fZ/BgVL2QB+ElkBvCKvBg4cUQb/suUDsmb7BAiYFQedx6kCcDr/BGgcNQUNK1EBQZbLBTCSQQDob
vcCAjZDBlUOoQF2JjsDHbpbB17+eQCN4kMDURIjBommZQNWAg0B0D4bBuNbBQDr3NUDtX4fByofP
QH1YkkCuK4nB48xoQA76FsCkkInBcR4OQLTWEMBSXZLBDiYzQDoakMD1v5nBkx4gQP8IksAClovB
Rc29QBFp/0DwftXBb6lWQB3zR0CV06jB0RQDQHs3ZkCV5ZfBbYc9QO1XfkAKhIzBo5+ZQKgj1L+z
OqDBEdqCQMWFCsDWhZnBFqebQA7CgECncbnBiT7aQDYdnj9ZxbLBxtSiQL8unED9K8LB3UHjQEK+
/73B1LTBRqanQFZmEj9vCaXBYgLfQKyll0CEcLHBr2GwQPbTRL///abB72K7QOjJyj9R7KrBcVy5
QB5EfkDt5rDBVmTmQBvMskDpH7rBgjXIQKzxtUBteMLBVzXOQGjTkb9B967BwkPLQK2nVUA3hJ3B
3p6DQAHCZEAOJprBjA6yQIs+QUBkqKfBs7cHQXByzEAYfbrBMfeRQNKhl8AKAI7BmlC2QBK2d0Bx
jYrBzgFNQEj2KMB5F5HB8FdLQBdthcA835DB8rquQIDW30AZZtHBYROtQLtcbkCeBJbB3E2FQOcq
TEDPLKTBGb87QBQ/ckAkkpTBuGbxQLqcSEBL1pvBHIzRQLAL0kADtsrBikDXQDMYHMCM9rDBkI2P
QPv58kANfsvB46S+QJLd/ED7aNjBecx+QCy9WUCGQLnB987qQNGFAEAbKbfB9POLQCimnUAko8jB
UE76QFoZyL5F6LrBQx+RQHjhVT9O1Z7BVGH2QBN7lUABGavB1C4UQZnNuUCKmL7Bw+4EQfSC6kA7
2b7B1/QMQZ2v00DnSLLBXniQQEjMusAD5o3BAoapQKsrjcA0/pPB7ZKbQMHui8A/DobBAyGZQKnw
hUAAVIbBtU7BQHoNOkCBUIfBJ3DPQAYZlEDvbYnBqfRjQMUNEcDjU4nBiuoLQIniEMCakZLB92g4
QDpZkcBxzpjBz4IcQFAckMB93orBja2hQPoLxEDQs9XB6ndXQNoxQkAZ0qjBMGYDQPo2aUBDMZjB
fqM9QPaAgkAM7YzBWhKdQBil8b/p8qLBaaKMQEStNMCIVp7BM1HfQDeRmkDg9rDB1RfZQFriqj/K
K7PBtRnmQF6btEB5+rnBVgziQOhWQDyQN7bBY8GnQNADBD9/g6XBmx2cQDxSgkAhpbjBa/mwQKCl
Tr9KhqjBEiu7QCsBzT8e6qrB+My5QIVtgUCCMbDB5NeiQD+Om0A4xsHBJiHIQG7/tUBha8LBCwvO
QOzJh79U7rDBjOPKQM8YVECx/pzBDwyDQOCGYEDftZnB2DuyQNAvQkD4MafBeTGCQDELl0BTs8rB
BUpGQBAtM8AptofBqmq1QGsKeUDeKYrBqPNyQOozfsAZ8ZjByhJ/QLoYecC4tYzBoHixQMH/5kBi
W9DB4gGsQIgHXkAPJZXBgEGFQAOKSkBkzaPBtWs6QENMdEAHeJTBZKrxQKI0T0BfnpvB0zbTQJsq
z0BqKsvBEWTXQLQcFcCq5bPBcDG+QCsFCEFFxtHBroepQGmt1UCaItrBBsb2QOTBmUBSn6rBghfp
QFTWCUABJLfBXl0BQXvfx0DGc7rB9Fj4QAeFOr4PorzBWbWRQCV7ND/lCJ/BXOt+QFZBXkBpGLjB
mCZRQOnFrkBll8nBMOyRQDRtnEAHddLBptxoQJRObUCOhcrB5KVQQGhzMcAhBX7BAP5WQIRY6b9t
LovBJaUCQHNwQcDmX4nBKYKXQFP5e0ChiYXBNFXLQM3DSkBgbYbBkXvEQFpUnEC5SIrBmhIuQMTf
f8DBv5rBb62IQHiKnMDH6ZvBRkKhQLp+asDE94rBsStuQHahm8A9KYnBkImUQPnG5UDGWsvBCepX
QCjGQEDui6jBQNICQGc1ckAgbJjBc3I7QJxSgkA9vIzB

> <OMEGA_E>
oFg6PoD4TT44mE8+ILJyPkBRcz5gbnQ+CFM6Pg==

> <OMEGA_NBR>
    164850

$$$$
50168779
  -OEChem-04172616093D

 55 57  0     1  0  0  0  0  0999 V2000
    7.1787   -0.0153  -22.6270 C   0  0  0  0  0  0  0  0  0  0  0  0
    6.8835    1.3067  -22.2608 C   0  0  0  0  0  0  0  0  0  0  0  0
    4.8435    4.1164  -23.1184 C   0  0  0  0  0  0  0  0  0  0  0  0
    7.0201    4.7239  -22.2001 C   0  0  0  0  0  0  0  0  0  0  0  0
    6.4473   -1.0785  -22.0752 C   0  0  0  0  0  0  0  0  0  0  0  0
    5.0803    4.9464  -24.2269 C   0  0  0  0  0  0  0  0  0  0  0  0
    7.2604    5.5426  -23.3139 C   0  0  0  0  0  0  0  0  0  0  0  0
    5.1289    0.5007  -20.7618 C   0  0  0  0  0  0  0  0  0  0  0  0
    5.8012    4.0100  -22.0819 C   0  0  0  0  0  0  0  0  0  0  0  0
    5.8417    1.5840  -21.3413 C   0  0  0  0  0  0  0  0  0  0  0  0
    5.4117   -0.8274  -21.1528 C   0  0  0  0  0  0  0  0  0  0  0  0
    6.2943    5.6729  -24.3264 C   0  0  0  0  0  0  0  0  0  0  0  0
    6.3393    3.3624  -19.6671 C   0  0  0  0  0  0  0  0  0  0  0  0
    4.1028    3.5680  -19.2313 C   0  0  0  0  0  0  0  0  0  0  0  0
    5.5509    3.0312  -20.9231 C   0  0  1  0  0  0  0  0  0  0  0  0
    2.7888   -2.7562  -16.6837 C   0  0  0  0  0  0  0  0  0  0  0  0
    5.7024    3.9738  -17.3147 C   0  0  0  0  0  0  0  0  0  0  0  0
    4.5121   -1.9749  -20.7281 C   0  0  0  0  0  0  0  0  0  0  0  0
    3.5732   -3.8406  -17.4461 C   0  0  0  0  0  0  0  0  0  0  0  0
    4.5617   -2.2771  -19.2237 C   0  0  0  0  0  0  0  0  0  0  0  0
    3.6799   -3.5196  -18.9476 C   0  0  0  0  0  0  0  0  0  0  0  0
    5.4640    7.0809  -26.0789 C   0  0  0  0  0  0  0  0  0  0  0  0
    5.3997    3.7702  -18.7365 N   0  0  0  0  0  0  0  0  0  0  0  0
    4.1539    3.1940  -20.4869 N   0  3  0  0  0  0  0  0  0  0  0  0
    2.9248    3.7314  -18.5181 N   0  0  0  0  0  0  0  0  0  0  0  0
    7.5360    3.1809  -19.4670 O   0  0  0  0  0  0  0  0  0  0  0  0
    6.5906    6.5138  -25.3825 O   0  0  0  0  0  0  0  0  0  0  0  0
    5.8423    8.2718  -26.6035 F   0  0  0  0  0  0  0  0  0  0  0  0
    5.0696    6.2538  -27.0827 F   0  0  0  0  0  0  0  0  0  0  0  0
    7.9699   -0.2150  -23.3345 H   0  0  0  0  0  0  0  0  0  0  0  0
    7.4551    2.1198  -22.6834 H   0  0  0  0  0  0  0  0  0  0  0  0
    3.9231    3.5548  -23.0568 H   0  0  0  0  0  0  0  0  0  0  0  0
    7.7693    4.6370  -21.4271 H   0  0  0  0  0  0  0  0  0  0  0  0
    6.6794   -2.0944  -22.3589 H   0  0  0  0  0  0  0  0  0  0  0  0
    4.3362    5.0315  -25.0050 H   0  0  0  0  0  0  0  0  0  0  0  0
    8.1955    6.0770  -23.3939 H   0  0  0  0  0  0  0  0  0  0  0  0
    4.3681    0.6927  -20.0196 H   0  0  0  0  0  0  0  0  0  0  0  0
    2.7356   -3.0226  -15.6178 H   0  0  0  0  0  0  0  0  0  0  0  0
    3.2994   -1.7882  -16.7946 H   0  0  0  0  0  0  0  0  0  0  0  0
    1.7710   -2.6831  -17.0945 H   0  0  0  0  0  0  0  0  0  0  0  0
    4.7921    4.2960  -16.7879 H   0  0  0  0  0  0  0  0  0  0  0  0
    6.0642    3.0311  -16.8783 H   0  0  0  0  0  0  0  0  0  0  0  0
    6.4783    4.7469  -17.2122 H   0  0  0  0  0  0  0  0  0  0  0  0
    3.4761   -1.7211  -20.9969 H   0  0  0  0  0  0  0  0  0  0  0  0
    4.8217   -2.8785  -21.2738 H   0  0  0  0  0  0  0  0  0  0  0  0
    4.5866   -3.9100  -17.0240 H   0  0  0  0  0  0  0  0  0  0  0  0
    3.0583   -4.8049  -17.3239 H   0  0  0  0  0  0  0  0  0  0  0  0
    5.5988   -2.4820  -18.9196 H   0  0  0  0  0  0  0  0  0  0  0  0
    4.1774   -1.4152  -18.6584 H   0  0  0  0  0  0  0  0  0  0  0  0
    4.1187   -4.3861  -19.4639 H   0  0  0  0  0  0  0  0  0  0  0  0
    2.6702   -3.3308  -19.3412 H   0  0  0  0  0  0  0  0  0  0  0  0
    4.6404    7.2265  -25.3644 H   0  0  0  0  0  0  0  0  0  0  0  0
    3.3547    3.0405  -21.0680 H   0  0  0  0  0  0  0  0  0  0  0  0
    2.0445    3.5612  -18.9609 H   0  0  0  0  0  0  0  0  0  0  0  0
    2.9557    4.0195  -17.5610 H   0  0  0  0  0  0  0  0  0  0  0  0
  1  2  1  0  0  0  0
  1  5  2  0  0  0  0
  2 10  2  0  0  0  0
  3  6  2  0  0  0  0
  3  9  1  0  0  0  0
  4  7  1  0  0  0  0
  4  9  2  0  0  0  0
  5 11  1  0  0  0  0
  6 12  1  0  0  0  0
  7 12  2  0  0  0  0
  8 10  1  0  0  0  0
  8 11  2  0  0  0  0
  9 15  1  0  0  0  0
 10 15  1  0  0  0  0
 11 18  1  0  0  0  0
 12 27  1  0  0  0  0
 13 15  1  0  0  0  0
 13 23  1  0  0  0  0
 13 26  2  0  0  0  0
 14 23  1  0  0  0  0
 14 24  2  0  0  0  0
 14 25  1  0  0  0  0
 15 24  1  0  0  0  0
 16 19  1  0  0  0  0
 17 23  1  0  0  0  0
 18 20  1  0  0  0  0
 19 21  1  0  0  0  0
 20 21  1  0  0  0  0
 22 27  1  0  0  0  0
 22 28  1  0  0  0  0
 22 29  1  0  0  0  0
  1 30  1  0  0  0  0
  2 31  1  0  0  0  0
  3 32  1  0  0  0  0
  4 33  1  0  0  0  0
  5 34  1  0  0  0  0
  6 35  1  0  0  0  0
  7 36  1  0  0  0  0
  8 37  1  0  0  0  0
 16 38  1  0  0  0  0
 16 39  1  0  0  0  0
 16 40  1  0  0  0  0
 17 41  1  0  0  0  0
 17 42  1  0  0  0  0
 17 43  1  0  0  0  0
 18 44  1  0  0  0  0
 18 45  1  0  0  0  0
 19 46  1  0  0  0  0
 19 47  1  0  0  0  0
 20 48  1  0  0  0  0
 20 49  1  0  0  0  0
 21 50  1  0  0  0  0
 21 51  1  0  0  0  0
 22 52  1  0  0  0  0
 24 53  1  0  0  0  0
 25 54  1  0  0  0  0
 25 55  1  0  0  0  0
M  CHG  1  24   1
M  END
> <OMEGA_C>
trflQMB7erwUBLXBaEXcQAJDpz8sFrLBSv6aQHi5g0CA8rjBqKTgQCkql0DMmbHBeFDOQOYLir/4
mbDBLZKiQANJnkC10MHBj1XoQMxcsUDmgrrBwB+kQEQsAD8RGKbBFqO5QEZSgEC0p7DBE++6QLDA
yj8Ru6rBZSytQA/RU7/2OKnBqmrJQAqItUCCnMLBwtvKQEAxV0BFVp3BU0qDQGJaZEC42ZnBG6Gx
QM7/QUCYYqfBRHsyQL5lMMBMeIXBdHq2QItTfkB4hIrBZ2OQQJ7I/L8906XBB7BkQOTLdcC2kYvB
lvmRQEe7EcAjypnBcYNrQF1AYcCulJfBRdmuQMmW4kCHodDBBsqsQIBLcUBc5JXBH+2EQIxqTEAp
5aPBhTA7QPHPbkAYJZTBuSbxQGGTS0BkvJvBdebSQN1w0EBsD8vBt/O6QG5ZBEHj09TBizqiQL0e
yEBeqdjBCAn/QLMeXL4PrbrBkpDuQCOqB0Ced7XBnxN7QHiCY0BOdLjBRZ74QPthlEC3aqvBbL3V
QLIKBsDu3rLBd8KKQK0BoUBOCsjBziADQRt3wkDOJrvBrseLQIJVMT8nKKDBrRMvQN5xQcCF4nnB
wihTQGLk5L9gW4bBNq/iP2e3K8CNwYjBKFmZQCJ5iUCTTYbBQQ7CQE/+QUDIBofBB07PQIHml0CR
sonBanheQIlO3L/A+afBdEuaQLM4OMCmMKrB0MWSQIc9esAxMYjBeLpDQF7BmcBdl4rBHCmzQNfZ
HsBAW5fB/qyFQD0mtb92RJXBKsyDQMxajMAitpvB1eQqQCosVcDIuprBi36UQLo/50A46srBmLNW
QGGXQkA4i6jBjNkCQN3qY0D3r5fBuSk9QO+fgEDvfIzBL7jlQFA8L72q0LTBmgDcQPhspD8eGLLB
bIabQCB/gkDmOrnBfnfgQND0lkDnr7HBL6nOQDvEjL9MMbDBGyKjQB47nUD/E8LBtQ3oQIKGsUBw
h7rBqISkQP4l/j4z16XBs7W5QOBhf0AI07DBRe26QAJByT8XsKrBlJKtQL4FVr+v06jBKG/JQN+f
tUAStMLBbc3KQHRXV0BndZ3B8EiDQAS+ZEAq85nBwYuxQDh7QUDLeqfBxnYyQLYuLcC1+4TBRKO2
QMQigECCsYrBSLaQQAPN/L+RTaXBFCJmQAoBc8Br0orByBKTQCiOEcBJRpnBSXZtQEqXYMAG45bB
JKSwQCdj4UDMqNHBW9CsQEZMckBFC5bBqdSEQAZCTECO+6PBi2Y7QJZGb0CvMZTBHg3xQKpYS0BL
1pvBkDvTQLjY0UAi9MrB4z2jQBtBwkAnetjBFVOPQAJK8ED+r8vB4fj+QKKigL4ZebrB0uDtQDH5
BUCWrLXBxMx8QOboX0BT2bjBfV74QMM1lEASfKvBS0/WQOeqB8A0SrLBHcWLQK87n0DSbMjBeuIC
QXoKw0BHELvBwnaMQC+HMj9P2Z/B7bUuQOukPMBk0njBSEpSQLfg3b+ABYbBL/7iP7wZKsDcWYjB
ZZWZQGG6ikBvfYbBhybCQMMsREBSIIfBq43PQE/TmEAF9YnBo/heQK5A279fUKfBhxKaQFxyOMC7
sqnBUmiTQDzXdcC1XYfBdAVGQE6AmMARsonB2WG0QHUfH8BT/ZbBOlKHQMYxtL8auJTBhM2EQEhn
jMDp2JrBof0sQFH0VMC7G5rBvm69QLsV/ECXa9bBanBWQHdKQkBBnajB1uwCQBABZEAZr5fB1K89
QAcSgUAMjozBb+niQMarKL4WPbTBaFvbQM/FmD+F5rHBDA+dQE/RgEC8XrnBLlXhQHkdl0Apt7HB
u3zKQACmlb/FMq/BsM6jQCMXnEBjIcLBMAboQL9kskAgebrBrV2kQEKtCT9VF6XBCUS7QG+DfUDI
87DBhV+7QEg8xz9QZ6rBBZGqQBhGUL9LvKfBHTTJQHbAtUAcocLB0ojLQEshWEBUap3BtryDQD7k
ZECkLZrBxOqyQNVXQUAQgqfBqE9iQK4zSMCZVIPB9Ou1QBM4gEBTtIrBPsaKQPc96794mqPBogY5
QPImQsAQc47BU0CdQFADNMCgPpvBANZxQG9pbsCd+pbBSxCtQDK230DWK9HBHvmsQErUckCrG5bB
/vuFQOj+TUDzP6TB1WU7QG5hbUD5jpTBYKrxQGwQTEDWo5vBPFLRQOJs0kCt0srBUamPQMQe9ECa
9MrBGgK7QMwv+0AYzNjBl3z7QEXa376v6LnBK/rtQI7P+j9K1LXBiJiAQG+DWkAnDbnB6FX5QFax
lEBih6vBEzPQQBRfDcDRC7HBToCMQO+KnUDzf8jBuowCQdb5xECG9LrB0baNQNcsTT+E6p7B5/c4
QI5vKMCe1XrBOVpqQNDyhcA0IoHBHpyQQNmeKMAKeYPB24qYQAS4ikAyoYbBOi/BQFc9REBAHYfB
f8HOQDbqmEDF0onBlKtfQGxTpr/U7J/BPz5+QLFCG8AYcqrBpSX0P5CgYcCxQI7B1vAwQJSz/L+H
l5DBOTe2QHKjW8Du+p7BGyurQGp/D8DgkpTBP2uHQAPfk8CqYZPBehNJQP+zgMDxv53BqJueQLtO
w0Ao6NTBOXJZQAkuRkACEKnBDJQDQHLFYUBnMZjBKl88QB8cf0Bf34zBMBjjQCAg072LfrTBNZLZ
QBZrnz8OYLLByg+cQP5IgkBnZrnBSp3gQFGRl0DAubHByhDOQEEKkL8y0a7BJT6jQOWFnUCcJMLB
xf3nQFxgskCbh7rBWYOkQHx4DD8yN6XBhCe6QDSef0Ad+rDB1c25QBDEyj/RwarBpBWvQNbqTb/n
BKfBiV3JQIcgtkArt8LBmwPLQDRoV0A2k53BeISDQFR5Y0DL9pnBP5GxQCrCQkBXoqfBaFWCQKHH
jcCH3IfBa+O2QKShe0A0oYrBPa2VQBcq9b9wo6HBsyJSQPBGfMCkpZHBwDCPQMWi2r8UZpXBmGlL
QNTiGcDBmZHBHK6vQKo/3UDq/tHB8AutQMBYcED+B5bB1PCEQCQlUEDQK6TBHwY8QES7aUDRFJTB
wjnxQGqXSkDS/ZvBZ3/SQPRE0kA+9MrBTHy5QO40AUGdAtfBxRqqQDACvkBYcNnBC536QCHHtb7h
frrBl4vqQN6uAUCnkrbBEbR+QHcqXkB+GrnBQmL4QMMHlUBZfKvBoqvVQPMwCsB8b7DBFLmLQPbF
n0DRcsjB8bsCQdFOxEABB7vB9MeLQM/USz/Ig5/BfGyEQHXpsMA0BYjBrMCiQAkWgMAbC4jBrNpj
QD6Jg8BOgoDBkM+ZQKDJh0CnV4bBT4XCQGzHPkBnS4fBy7fPQH5+lkD9tYnBL/5rQMdC/L/KcqXB
/MWmQJJVN8A93aLBpBFzQO6EiMCh+pjB+GoRQCP4i8DUcZHBSKiqQJCdCMCtFJHBxfyMQJWTIb9a
sZPBuMkWQOHWBsBw8JbB/UI9QI+eBMB8ZonBx1uSQKch4UCGOc3BzbZWQI4uS0C176jBUI8DQHM5
X0BynJfB1Gg+QPy/eEB4T4zBhGrjQHiIwb3kX7TB0MnaQJQOoT9eGbLBnqecQNv8gUDjU7nBJw3h
QF/Xl0BdrrHBdgLMQOk+jr9DOq/B9L6jQDLInEChI8LB7FXoQCdFskCRkbrBT6CiQNBqFD/UvaXB
VKq6QMsRgEAY47DBkti5QLefzT9az6rB03OrQMbSRL+a66fBpa/JQFSptUBDxsLBpCDLQOitV0CJ
aJ3BFmyDQPqtYkAr7ZnBwgOyQNzFQ0Ahi6fBbqA6QMaQkcBsu4jBOyG2QORaeUBGbYrBvCuTQKMv
6b8LyaHBxMxrQHB2d8D8yZHBX6yhQCFs5b8P9JXBOGqAQLIiG8BNeY7BvVmwQGXg30C07dHB+cis
QAwdb0D/3ZXBTEeFQFyJUUB8LqTB8zc7QH2RZ0B+JZTBImPxQAHCS0ATy5vBaybTQGZq0UBDIsvB
02aiQJ66v0BEY9jBfnKPQIby70DQAczBrAf8QNl1tL7jE7rBDljtQJcsAkAw7LXBuwmAQGNRXUBD
/LjBR8/4QCKklUA+bqvBEvnSQAuJCcAr37DBHkiMQIyEnkC+d8jBL+UCQYU2xECiHrvBsbaJQG1P
VT9mG6DB0VQrQAanssBGDIvBhi9iQIrPkcD9c4HBdfT9P1nff8ATLYfBoceYQMgUhkDrLIbB5/vB
QB1oPEAzK4fBq6POQBeVlUA1XYnBgkthQPHHzr9+QqLBptOZQJsDNMBSOaXBBMKTQNpLjcC+WZPB
vU5EQPnXdsDUEpnBvua/QDJLFsByNpXBNcOmQKkaP7+pipPBLdtFQHd96b+yvI7BxyaNQPRvG8Ar
RYbBZAq9QCCy+UDE/9bB4dlXQEY/TkClC6nBeSQDQLS7XUALzZfBcsY8QIHtdEA6U4zBnf7iQBbH
Hb4d7bTB0WbbQMksmD8sG7LBSjyjQCJEckBIULrBGGDaQBOTnkAaIrDBJrLKQEdtl78vN7DBflyq
QPKelEAECMPBC6XhQH7OuUD43rjBi2mjQM528T4EwqXB1AG7QLPMe0DrwbDBLtC6QJg5wj/opKrB
2qKqQJqSXr8ErKjB2YvJQDZ+tUAxUcLBjjLLQOGaVECjRp3BJ2aDQFFoZUAdE5rB016yQBeMPkAC
Z6fB96LRQNzvk8Bu+4rBfHu2QJKMhEDt4YrBn32RQCdZ/L/YOaPBfxalQEFIgMBv44jBCqmoQE97
GsAV85jBbBWPQE0HYsC8S5PBlhivQNay2UCZ89HBzuesQAuockBnEZbBW2yFQGLxSkABDqTBV9U6
QJXgckCXh5TBy+rxQLSKTkAG1ZvBR5rRQDQ70kCLf8rBV2K0QE6IAEEBVtbBkuavQCbhu0DD39nB
73z7QI0byr6otbrBxHzuQIOU/D9kpLXB3W+LQFxgQEAa6rrBucnsQMyHokCE46jBvJfQQHCXDcAb
YLLBDA2YQFq2kEAoS8rBNvL5QLtJ0kBJV7jBsseLQMZJND8KvJ/BTtvfQNc9nsAEW4PBzV/OQFWz
r8B3VJDBhWzmQAu/d8CDwY7BuxKZQKqNj0Da54bBLwDDQGx9UECysIbBsIrOQGI7nkBUsYrBhcli
QHy/zL8wLaHB3JmOQJYcNcBjrqjBpbaQQEaQmMC2D4XBXcOoQOt4ScDCfIPBlq3IQAGaMsCgBJvB
er6rQPm3xr+6h5PBsBGMQCljjMDgxpjBcRxeQAmGScBJT5HB73+QQLMi2EA7ns3BTwJYQF+dQEBr
vajBlagCQBZdaEBrIZjByWA8QPSJg0Dp8IzBXjHjQH8K4r0+V7XBH7DbQIAOnT9aWLLBtKSbQABV
hECDc7jBj17jQG7tk0Cq37HBvMnKQOjYkr93ybDBqd6iQN/5nkBzO8HBTkXqQKBgr0ATo7rBKsGj
QNpV+T7jE6bBdlO7QK47fkA1iLDB2ky7QIh/xT/FyarBF7WqQMnTWL9UOKnB85PJQBEptkBQOcLB
nTjLQBE3VkBFJ53BZj2DQNVeZUBUAJrB+siyQO6yP0CZUafBPP/PQFkelcCd6IvBqsC1QO4KhEDm
sorBjjaRQCaD+r/N/aPBhWqjQHZ2gcBA3InB/dqnQKvuGsDKtJnBwuqNQPT/YsBeRJTBnPexQPEI
8UCqjc3B8JWsQCb/ckAZ8ZXBKKGFQEYzSkDl7KPBZP85QO61ckC6kJTBC8PxQPVFT0ArhJvBf8zR
QERQ0EBS88rB+CyJQAYn4kDTHc7B0DizQBaFCEFeOsbBC7j7QJFirr6GJLvB97HuQB8gAUC00bXB
4xl7QGAuZ0B8uLfBzqz8QImqjkBgI6zBcZ7QQLAGC8CvFbPBqp+KQELvoUA0WMfBz1wEQe9Mv0Av
jbvBgTKMQFYKNT+aAaDBTtvdQBrun8DQSITBpOPMQNKKsMDdXpHBkAPlQOzGecCViI/BtyiYQACe
jkAPvIbBak/CQAUWT0D/mIbBSafNQDfZnUDgW4rB+BhiQGQXy78C/qHB7YSOQFR+M8Crj6nBvs6O
QPTpmcCfLobBqu6mQC+FTMBWWITBeu/HQKn7MsD5uZvBOMKqQKj9yL9tLJTBSxKLQMWFjMB73JnB
UKxbQHOMSsDnUpLBPbW6QO5T/kA+Z9XB7qBYQEIsPkALlajB8C4CQEWAZ0B7OJjBKs46QOHBg0Af
AI3BSAnjQH1IEb6IFbXBAjnbQLO0mT9STbLB3ymaQN8Nh0A1X7jBC8DjQKB6kUCfU7LBaAvLQDks
lr/3UrDBurmhQLTXokAQBMHBrk3rQL7vrEAEB7vBd+GjQITH9D4yz6XBH8y6QO6XfUD2w7DBqPK6
QGG6wz9Nv6rB3BmrQBi/XL8iwKjB8CvKQIYLtkArT8LBJx3LQBGbVkA8VJ3BpkeDQL4kZUDcAZrB
X0qyQINFP0Dqc6fBRyHSQBonlMDALYvBMFC2QIGYhEAX2orB4fiRQCXA+78HVaPBOoSlQOungMAx
FYnBKySpQDqXGsC0E5nBk5KPQLZwYsBWe5PBh8vKQANY/UBqicjBfbusQA55c0DjD5bBj0mFQIjB
SUDx76PB9486QEcwckArdJTBnK/xQHrHT0C8uJvB3WfRQIWo0EAK3crBM7LvQHSYB0Hr3sTBwNe+
QDa3CEF8sNHBH377QDLFwr4F4rrBnOvtQL1T/j8t8bXB/ZR2QCDMb0BWhbfBXlD9QCKGikBKx6zB
yxXRQPbxDMDgd7LBW3eIQHl5qUDCrMbBCkUFQSMOu0C1ILzB4XyMQKcGNT8duJ/BPU/gQGyWnsD2
joPBzvvOQMLOr8DekJDBx+PmQDfpd8CL6I7BPNaYQLwkj0BA1IbBhifDQJ9+UEB3vYbBVR7OQOuB
nkBjnIrBBsdjQGI3zL9wQ6HBdAyPQGqfNMDp0KjBGSuRQPARmcDRTIXBEhOpQJNvSsB/pIPBXCzJ
QDePMsC8KJvB7DCsQMdux78DnpPBnqWMQCl9jMCK/5jBZARfQKYdSsBEf5HBU3exQPsnAEGceMLB
jJBXQFeUPUDUhajBFnECQHGXZkAFBJjBRAc8QGWVg0Dj5YzB

> <OMEGA_E>
IGGNPsw0mT6wUZw+DAekPlg5sz40zsc+yOTaPgyl5T4=

> <OMEGA_NBR>
    172434

$$$$
50168822
  -OEChem-04172616093D

 49 51  0     1  0  0  0  0  0999 V2000
    4.8607   -1.8419  -20.3182 C   0  0  0  0  0  0  0  0  0  0  0  0
    4.3392   -2.7528  -19.7114 C   0  0  0  0  0  0  0  0  0  0  0  0
    4.8525    4.1201  -23.1203 C   0  0  0  0  0  0  0  0  0  0  0  0
    7.0141    4.7618  -22.1872 C   0  0  0  0  0  0  0  0  0  0  0  0
    6.8074    1.3351  -22.3430 C   0  0  0  0  0  0  0  0  0  0  0  0
    5.0958    4.9305  -24.2402 C   0  0  0  0  0  0  0  0  0  0  0  0
    7.2611    5.5607  -23.3129 C   0  0  0  0  0  0  0  0  0  0  0  0
    7.0833    0.0059  -22.7032 C   0  0  0  0  0  0  0  0  0  0  0  0
    5.2117    0.5517  -20.6700 C   0  0  0  0  0  0  0  0  0  0  0  0
    5.4958   -0.7777  -21.0260 C   0  0  0  0  0  0  0  0  0  0  0  0
    5.7998    4.0412  -22.0727 C   0  0  0  0  0  0  0  0  0  0  0  0
    5.8409    1.6230  -21.3456 C   0  0  0  0  0  0  0  0  0  0  0  0
    6.3058    5.6630  -24.3385 C   0  0  0  0  0  0  0  0  0  0  0  0
    6.4242   -1.0523  -22.0535 C   0  0  0  0  0  0  0  0  0  0  0  0
    6.3402    3.3865  -19.6585 C   0  0  0  0  0  0  0  0  0  0  0  0
    4.1005    3.5472  -19.2144 C   0  0  0  0  0  0  0  0  0  0  0  0
    5.5542    3.0644  -20.9187 C   0  0  1  0  0  0  0  0  0  0  0  0
    5.6965    3.9392  -17.2923 C   0  0  0  0  0  0  0  0  0  0  0  0
    2.9198   -2.7652  -16.9675 C   0  0  0  0  0  0  0  0  0  0  0  0
    3.7208   -3.8537  -18.9823 C   0  0  0  0  0  0  0  0  0  0  0  0
    5.4829    7.0440  -26.1106 C   0  0  0  0  0  0  0  0  0  0  0  0
    5.3951    3.7578  -18.7174 N   0  0  0  0  0  0  0  0  0  0  0  0
    4.1546    3.2164  -20.4823 N   0  3  0  0  0  0  0  0  0  0  0  0
    2.9228    3.6687  -18.4920 N   0  0  0  0  0  0  0  0  0  0  0  0
    7.5398    3.2199  -19.4632 O   0  0  0  0  0  0  0  0  0  0  0  0
    6.6074    6.4840  -25.4069 O   0  0  0  0  0  0  0  0  0  0  0  0
    2.5840   -3.3816  -18.2295 O   0  0  0  0  0  0  0  0  0  0  0  0
    6.7058   -2.3276  -22.4096 F   0  0  0  0  0  0  0  0  0  0  0  0
    5.8583    8.2360  -26.6339 F   0  0  0  0  0  0  0  0  0  0  0  0
    5.1002    6.2116  -27.1143 F   0  0  0  0  0  0  0  0  0  0  0  0
    3.9356    3.5528  -23.0580 H   0  0  0  0  0  0  0  0  0  0  0  0
    7.7539    4.6955  -21.4031 H   0  0  0  0  0  0  0  0  0  0  0  0
    7.3344    2.1431  -22.8286 H   0  0  0  0  0  0  0  0  0  0  0  0
    4.3602    4.9963  -25.0282 H   0  0  0  0  0  0  0  0  0  0  0  0
    8.1926    6.1015  -23.3923 H   0  0  0  0  0  0  0  0  0  0  0  0
    7.8032   -0.2036  -23.4806 H   0  0  0  0  0  0  0  0  0  0  0  0
    4.5088    0.7565  -19.8759 H   0  0  0  0  0  0  0  0  0  0  0  0
    4.7811    4.2333  -16.7579 H   0  0  0  0  0  0  0  0  0  0  0  0
    6.0772    2.9952  -16.8752 H   0  0  0  0  0  0  0  0  0  0  0  0
    6.4575    4.7248  -17.1757 H   0  0  0  0  0  0  0  0  0  0  0  0
    1.9992   -2.4364  -16.4630 H   0  0  0  0  0  0  0  0  0  0  0  0
    3.4457   -3.4933  -16.3324 H   0  0  0  0  0  0  0  0  0  0  0  0
    3.5705   -1.8964  -17.1455 H   0  0  0  0  0  0  0  0  0  0  0  0
    3.3890   -4.6211  -19.6971 H   0  0  0  0  0  0  0  0  0  0  0  0
    4.4573   -4.2901  -18.2915 H   0  0  0  0  0  0  0  0  0  0  0  0
    4.6540    7.1861  -25.4015 H   0  0  0  0  0  0  0  0  0  0  0  0
    3.3570    3.0854  -21.0712 H   0  0  0  0  0  0  0  0  0  0  0  0
    2.0434    3.5001  -18.9372 H   0  0  0  0  0  0  0  0  0  0  0  0
    2.9531    3.9250  -17.5258 H   0  0  0  0  0  0  0  0  0  0  0  0
  1  2  3  0  0  0  0
  1 10  1  0  0  0  0
  2 20  1  0  0  0  0
  3  6  2  0  0  0  0
  3 11  1  0  0  0  0
  4  7  1  0  0  0  0
  4 11  2  0  0  0  0
  5  8  2  0  0  0  0
  5 12  1  0  0  0  0
  6 13  1  0  0  0  0
  7 13  2  0  0  0  0
  8 14  1  0  0  0  0
  9 10  1  0  0  0  0
  9 12  2  0  0  0  0
 10 14  2  0  0  0  0
 11 17  1  0  0  0  0
 12 17  1  0  0  0  0
 13 26  1  0  0  0  0
 14 28  1  0  0  0  0
 15 17  1  0  0  0  0
 15 22  1  0  0  0  0
 15 25  2  0  0  0  0
 16 22  1  0  0  0  0
 16 23  2  0  0  0  0
 16 24  1  0  0  0  0
 17 23  1  0  0  0  0
 18 22  1  0  0  0  0
 19 27  1  0  0  0  0
 20 27  1  0  0  0  0
 21 26  1  0  0  0  0
 21 29  1  0  0  0  0
 21 30  1  0  0  0  0
  3 31  1  0  0  0  0
  4 32  1  0  0  0  0
  5 33  1  0  0  0  0
  6 34  1  0  0  0  0
  7 35  1  0  0  0  0
  8 36  1  0  0  0  0
  9 37  1  0  0  0  0
 18 38  1  0  0  0  0
 18 39  1  0  0  0  0
 18 40  1  0  0  0  0
 19 41  1  0  0  0  0
 19 42  1  0  0  0  0
 19 43  1  0  0  0  0
 20 44  1  0  0  0  0
 20 45  1  0  0  0  0
 21 46  1  0  0  0  0
 23 47  1  0  0  0  0
 24 48  1  0  0  0  0
 24 49  1  0  0  0  0
M  CHG  1  23   1
M  END
> <OMEGA_C>
+YqbQMbE67+ti6LBrtqKQBMuMMAFsZ3B0EebQBzYg0Bn9rjB2HPgQABhmEBrf7HBGNbZQG7lqj97
vrLBhxCjQN7GnUDs68HBMFvoQFbxsUC4gLrBlqriQAAJwjsToLXB6cWmQDU+DT8PXKXB492vQCEW
R784NajBWJi5QKdRgUDKlLDB2ui6QJq9zz+1w6rB/sjJQD03tUAptcLBBZPNQJKxhr+pbbDBUOPK
QKe7WECGRJ3BoDeDQF0FY0ATt5nBzruxQFoeREBtWafBwkm2QFUbfECuVorBct06QNT5MMBfvYfB
MiJuQNCjdsCv25fBAnSvQDRo4UBr4tDBiqSsQDeAcEA6vZXBR/KEQO/YTUC+26PBTA87QJbMakCE
75PBUUbxQPMSTkC3tJvBC3DTQFV9z0BXQcvBoWAlQFVsWMAB1pHBS5bWQM33FMDTRrPB+Ha7QKTG
A0FAEtXBiTSjQFTFxkAP6tjBleF7QCBhY0DFdrjBmx/4QONBlkCROavBarPqQNooCUD7oLbBfYaL
QFbhn0DIOcjB6RQDQXw/w0BUI7vBhLP5QNZ2UL4t2LvB7keQQBuoQT/wAZ/BC/+YQGJ3h0BBEIbB
B3jCQDSxP0BcAIfB9KPOQNQxl0DjZ4nBeOb/P7zuG8A6tIPByIZcQEiSX8DFqILBVYNkQIe+8r/8
KYnBt+VYQDfgk8C9k53BH6KOQL9IicDsVJLBzu2UQLj05UBKNsvBldlWQL93RUDFkajBnscCQJMB
YEBqf5fB4P48QD4ze0DgNIzBvUCaQOkZ7L/ULqLBciOIQEr5LsBDZZ3Btq6bQLa/gkD+FrnBYnjg
QHv2l0CvkbHB15TZQNVhpT9fp7LBlAKjQNlFnUBf98HBbufnQC8qskCnfLrBZFziQNCCNb12VrXB
+5GmQFI3Cj+PJKXBQW+vQArBS79s1afBh+65QFpqgEBcsrDBD9K6QDSSzD8qr6rB40bJQMuktUAM
r8LB4TDNQPuKi7/H/q/BlhnLQJz8V0BJUZ3BxmODQBpvY0D/2ZnBFf6xQD7sQkBdZ6fBEEK2QFg/
fEBMa4rB7PNDQOJCN8ASQobBjcZjQA4Wc8Aas5fB5XawQE9B4EC90tHBgcusQG48cEA205XBMDiF
QO54TUDI9qPBpiQ7QGRPbEDZJ5TBMYDxQDisTUDNvJvBKh/TQCoE0UCLGcvB7QUkQO73TsCrrJDB
hgnWQCbTF8CvrLLBTuuhQDV8wECvT9jBe++PQBG28ECe1svBom19QE/0X0DpqrjBnEj4QDW9lUAN
VavBslvqQC3NBUATr7bBd3eLQI4on0AVRsjB374CQdzfw0DYELvBV2v5QFesib6EhLvB5yiQQOOD
Qj8jzp7BQ+uYQGK1h0A4MIbBZUrCQKvlP0DTB4fB9KrOQEg2l0C0fYnB+XoPQPhvHMCkcYHBr/hd
QBgxcMAKO4LBV8d2QA4VB8AbKIfBFXREQGPVjsD/gp3BzBiJQO32i8AO85LBu329QO/8+UAm3tbB
7ntXQFUMRUBLsKjBCf0CQD7BYUBxwpfBqsA8QDVEfUC1cYzBZT2dQI3h878NLqLBYHKNQFNANMDe
JZ3BVSngQMXSlkAwcrHBXjmbQBUYgkBp/bjBYyraQKIRoj8pwbLBE1LnQAnasUA6N7rB+UGiQGF7
nUC5uMHB7qXjQNA+hL0/dbXBIVGnQKip+D4HTqXByv6wQLAVWL9U/afBoqK5QK1tfkAhorDBZxi7
QM71xj8h0arB2XTIQFTztUBQVMLBn/7OQCmUj7+fIrDBKuPKQImjU0AWTJ3B6iuDQBfrY0CdCZrB
x9KxQMGSP0D1bafBtvS1QLR1fkD8j4rBQptLQHnLNsBqa4bBp0d3QEb2esAm/JbBM4WuQPEC3kBf
b9HB90OsQN+OY0CyjJXBfPSEQEEPSUB196PBajk7QLyieUAKypTBXWvxQCCtSkALy5vBUYTRQE5J
0kDph8rBsvqDQK9mbsCju4vBsbTYQNKDGcA3ybLBYWu4QILAAUHtSdbB7nyoQKhiv0BbA9nBkC34
QKP+k0AGRqvBQsh8QGEtXkBtprjBgqHqQFTABEBqvrbBm2sCQeuyw0AMvrrBjpKKQA7vn0DI+8fB
tNf6QDpdjb6zorvBPKaQQJRlMT9H/57BSPCXQORUg0ADFYbBJLnJQH5hTUD3o4bBJ3vHQO+/nUDQ
uorBiv9cQMDOMMC62XvBXPFMQBt57r87M4rBAeIKQCr4UcBnFofBZcAxQCwQfsBWT5jBKXeKQKqh
m8D4m5nBYmWRQGu34UCSlMzBgetWQN27PECijKjBMR0DQGk8dUACmZjBxio9QAjZhkA8Mo3ByH+c
QMcs7r9B2KHBLqOMQJCiMMCGsJzBp5GbQHZegkDYNLnB3zPgQPSEl0AZjLHBFKrZQO4UpD8VuLLB
8hijQHcenUA0CsLBtLDnQMoqskDQXrrBxNziQAAVWr1EWLXB+uimQPYzBj9ZKqXBdEuwQPZgT7+L
xafBvae5QBLcf0CYxLDBab+6QPywyj93xqrBQjLJQHvBtUDblcLBQhHOQEH6jL+78K/Bh9/KQKjE
VkB1b53BGlKDQOxtZUDyA5rBPauxQCDHQUDmf6fBm3a2QJ8ZgEBBsIrB6EpJQHBZMcAx4oXBTn91
QBxcdsAzXpbBr7yvQAqj3UDFz9HB2tesQIo6ckCPDZbBO/GEQCAoTEB8A6TB7kQ7QIgAcUCkVpTB
lfrwQA5oSUC8w5vBR5fSQDqU0UCR38rBIj6DQBBGaMCjJovBpnDXQMp9GMCIiLLBHh2RQFgs80Bq
PczBsXq/QCS790CkhdnBjz99QJ0TX0Bp2rjBiPn3QAz4lEDzTqvBoDrqQFtPBUC+xbbBAeCLQBnx
nkAibMjBAZUCQW8bxEBB3LrBB/L5QCvjjL5qhrvB0mqQQKf6PT9x157Bm2OZQFXqikCLh4bBhrDB
QNn8Q0BJGIfB84fPQFafmEAL7YnBI/laQF8aKsDr03rBWydJQPVf5L8ixYnBSRoJQHDlTcBzdIbB
7+0vQJRdecDkqZfBUW2JQPuQmcAA35jBmQuiQOmZwEDqa9XBsLlWQH5sQUAeoajBHeUCQI/rZUD7
3JfBOEs9QOY2gkBZuIzBaTCdQAdp8b8BmaLBrW+NQIuLMsAPep3BQNPfQCrCl0BfXLHBES2bQBlx
gkAo9LjB5Y3aQPP5pj/TzrLBrD3nQI0wskASPbrBRoyiQAYQnUD6zcHBij7kQFDCtbzWmLXBG0in
QKoDAT9ni6XBcAuxQP5EUr8NVqjBfF+5QN0KgEDMjbDBezq7QBpOyj+x5qrBarLIQNuitUAsdcLB
inXPQPo5i7+OabDBvtPKQJ8BVUCmSZ3B/zKDQDzyZUB3A5rBMMCxQK3jQEB0ZafBSOu1QFn6e0BX
eYrB5/FHQCrAOcDZYYbBnTt4QNc1eMCZEpfBXXmvQAw64UABW9HB5KqsQCCRb0Bk4pXBpfaEQIvq
SUCG5KPBKNM6QAeedkDBlJTB7wjxQBilSECKpZvBW2jSQNw40UCP1crB3AqFQPl/aMDG6YvB73/Z
QLcTF8AFHbPBc6GgQKcswkDTA9jBNzCPQCgE8UDtLMvBC5P3QO59lUATHKvBYm98QPVKX0BQjrjB
Ow3rQOuaB0DdtLbBHV0CQSsXxEDNxLrBjiGLQIvfnkCPJMjBqLL7QIWBZb7bu7vBz2SQQA+YMz9M
RJ/BcLmYQLKSiECgVIbBgvrAQABBP0Dp+4bBq//OQAhqlkCHjonBL5taQPqeMMC+8nvBABk/QHT0
9b+ZNYrBuqcLQOP7XcDlvobB6pwyQBkffMC7SJjBowyLQORvmsC9hZnBY0y8QId/+0DIQdbBB+RW
QGSGPECba6jBcIYCQHhSbUAsNJjBqaE8QHX3hUCNCo3B

> <OMEGA_E>
wC4gPpDeNj7QDzo+cJVAPoBuTD4=

> <OMEGA_NBR>
    176904

$$$$
50168809
  -OEChem-04172616093D

 55 57  0     1  0  0  0  0  0999 V2000
    7.0172   -0.0940  -22.7311 C   0  0  0  0  0  0  0  0  0  0  0  0
    6.6834    1.2422  -22.4468 C   0  0  0  0  0  0  0  0  0  0  0  0
    4.8384    4.0892  -23.1303 C   0  0  0  0  0  0  0  0  0  0  0  0
    7.0064    4.7102  -22.2003 C   0  0  0  0  0  0  0  0  0  0  0  0
    6.5564   -1.1301  -21.8981 C   0  0  0  0  0  0  0  0  0  0  0  0
    5.0633    4.9408  -24.2230 C   0  0  0  0  0  0  0  0  0  0  0  0
    7.2336    5.5546  -23.2971 C   0  0  0  0  0  0  0  0  0  0  0  0
    5.3538    0.4981  -20.5397 C   0  0  0  0  0  0  0  0  0  0  0  0
    5.7941    3.9846  -22.0937 C   0  0  0  0  0  0  0  0  0  0  0  0
    5.8229    1.5496  -21.3617 C   0  0  0  0  0  0  0  0  0  0  0  0
    5.7596   -0.8299  -20.7736 C   0  0  0  0  0  0  0  0  0  0  0  0
    6.2647    5.6918  -24.3067 C   0  0  0  0  0  0  0  0  0  0  0  0
    6.3424    3.3219  -19.6900 C   0  0  0  0  0  0  0  0  0  0  0  0
    4.1092    3.5925  -19.2635 C   0  0  0  0  0  0  0  0  0  0  0  0
    5.5470    2.9980  -20.9474 C   0  0  1  0  0  0  0  0  0  0  0  0
    2.3905   -3.5890  -18.1204 C   0  0  0  0  0  0  0  0  0  0  0  0
    3.9559   -3.5457  -20.7704 C   0  0  0  0  0  0  0  0  0  0  0  0
    5.7139    3.9693  -17.3415 C   0  0  0  0  0  0  0  0  0  0  0  0
    5.5244   -1.8795  -19.6990 C   0  0  0  0  0  0  0  0  0  0  0  0
    3.8224   -3.0497  -18.2643 C   0  0  0  0  0  0  0  0  0  0  0  0
    4.0911   -2.4583  -19.6782 C   0  0  2  0  0  0  0  0  0  0  0  0
    5.4287    7.0058  -26.1374 C   0  0  0  0  0  0  0  0  0  0  0  0
    5.4098    3.7524  -18.7621 N   0  0  0  0  0  0  0  0  0  0  0  0
    4.1524    3.1500  -20.4981 N   0  3  0  0  0  0  0  0  0  0  0  0
    2.9353    3.8462  -18.5698 N   0  0  0  0  0  0  0  0  0  0  0  0
    7.5370    3.1259  -19.4903 O   0  0  0  0  0  0  0  0  0  0  0  0
    6.5461    6.5717  -25.3369 O   0  0  0  0  0  0  0  0  0  0  0  0
    5.7570    8.1788  -26.7312 F   0  0  0  0  0  0  0  0  0  0  0  0
    5.1532    6.0824  -27.0966 F   0  0  0  0  0  0  0  0  0  0  0  0
    7.6286   -0.3253  -23.5908 H   0  0  0  0  0  0  0  0  0  0  0  0
    7.0840    2.0379  -23.0572 H   0  0  0  0  0  0  0  0  0  0  0  0
    3.9286    3.5094  -23.0810 H   0  0  0  0  0  0  0  0  0  0  0  0
    7.7599    4.6125  -21.4327 H   0  0  0  0  0  0  0  0  0  0  0  0
    6.8128   -2.1555  -22.1198 H   0  0  0  0  0  0  0  0  0  0  0  0
    4.3202    5.0248  -25.0022 H   0  0  0  0  0  0  0  0  0  0  0  0
    8.1607    6.1041  -23.3667 H   0  0  0  0  0  0  0  0  0  0  0  0
    4.6785    0.7158  -19.7255 H   0  0  0  0  0  0  0  0  0  0  0  0
    2.2511   -3.9946  -17.1074 H   0  0  0  0  0  0  0  0  0  0  0  0
    1.6727   -2.7731  -18.2905 H   0  0  0  0  0  0  0  0  0  0  0  0
    2.2227   -4.3854  -18.8604 H   0  0  0  0  0  0  0  0  0  0  0  0
    2.9357   -3.9568  -20.7548 H   0  0  0  0  0  0  0  0  0  0  0  0
    4.1571   -3.1017  -21.7565 H   0  0  0  0  0  0  0  0  0  0  0  0
    4.6789   -4.3517  -20.5766 H   0  0  0  0  0  0  0  0  0  0  0  0
    4.8071    4.3090  -16.8196 H   0  0  0  0  0  0  0  0  0  0  0  0
    6.0635    3.0274  -16.8936 H   0  0  0  0  0  0  0  0  0  0  0  0
    6.4991    4.7338  -17.2474 H   0  0  0  0  0  0  0  0  0  0  0  0
    6.2282   -2.7081  -19.8667 H   0  0  0  0  0  0  0  0  0  0  0  0
    5.7249   -1.4207  -18.7195 H   0  0  0  0  0  0  0  0  0  0  0  0
    3.9801   -2.2602  -17.5148 H   0  0  0  0  0  0  0  0  0  0  0  0
    4.5301   -3.8725  -18.0847 H   0  0  0  0  0  0  0  0  0  0  0  0
    3.3697   -1.6518  -19.8762 H   0  0  0  0  0  0  0  0  0  0  0  0
    4.5547    7.1437  -25.4839 H   0  0  0  0  0  0  0  0  0  0  0  0
    3.3491    2.9442  -21.0571 H   0  0  0  0  0  0  0  0  0  0  0  0
    2.0509    3.6922  -19.0105 H   0  0  0  0  0  0  0  0  0  0  0  0
    2.9732    4.1831  -17.6290 H   0  0  0  0  0  0  0  0  0  0  0  0
  1  2  1  0  0  0  0
  1  5  2  0  0  0  0
  2 10  2  0  0  0  0
  3  6  2  0  0  0  0
  3  9  1  0  0  0  0
  4  7  1  0  0  0  0
  4  9  2  0  0  0  0
  5 11  1  0  0  0  0
  6 12  1  0  0  0  0
  7 12  2  0  0  0  0
  8 10  1  0  0  0  0
  8 11  2  0  0  0  0
  9 15  1  0  0  0  0
 10 15  1  0  0  0  0
 11 19  1  0  0  0  0
 12 27  1  0  0  0  0
 13 15  1  0  0  0  0
 13 23  1  0  0  0  0
 13 26  2  0  0  0  0
 14 23  1  0  0  0  0
 14 24  2  0  0  0  0
 14 25  1  0  0  0  0
 15 24  1  0  0  0  0
 16 20  1  0  0  0  0
 17 21  1  0  0  0  0
 18 23  1  0  0  0  0
 19 21  1  0  0  0  0
 20 21  1  0  0  0  0
 22 27  1  0  0  0  0
 22 28  1  0  0  0  0
 22 29  1  0  0  0  0
  1 30  1  0  0  0  0
  2 31  1  0  0  0  0
  3 32  1  0  0  0  0
  4 33  1  0  0  0  0
  5 34  1  0  0  0  0
  6 35  1  0  0  0  0
  7 36  1  0  0  0  0
  8 37  1  0  0  0  0
 16 38  1  0  0  0  0
 16 39  1  0  0  0  0
 16 40  1  0  0  0  0
 17 41  1  0  0  0  0
 17 42  1  0  0  0  0
 17 43  1  0  0  0  0
 18 44  1  0  0  0  0
 18 45  1  0  0  0  0
 18 46  1  0  0  0  0
 19 47  1  0  0  0  0
 19 48  1  0  0  0  0
 20 49  1  0  0  0  0
 20 50  1  0  0  0  0
 21 51  1  0  0  0  0
 22 52  1  0  0  0  0
 24 53  1  0  0  0  0
 25 54  1  0  0  0  0
 25 55  1  0  0  0  0
M  CHG  1  24   1
M  END
> <OMEGA_C>
5ozgQIRpwL1k2bXBQd7VQP/+nj/zkrPBWNSaQLvagkDtCrnBZTTgQNC5lkA3mrHBvM3RQKylkL9H
L6/BvAaiQAIbnkC6yMHBQHnnQJW/sUCPYLrBRFKrQA0C/z5DUaTB/2i5QEIEf0D3v7DB2VS6QBpY
xj/V5KrB5E64QFx3VL9kMKbBFnjIQHMjtkAadMLBDPXKQE6aVEAwhZ3Bx36DQI/rZUCNG5rBr4Cx
QDLfP0BUlKfBm/4YQKayZcB79pDBGS19QAzsYsC3KabB5te2QD8JfkB4u4rBEsiwQBSU8L94l53B
LqJ0QE4uQ8BdHZLBheqCQLJUHcD7bJ3BP7itQJUv4EBWGdHB6hytQMsncEDIGJbBTeCEQCGZSUAx
/KPBZ9s7QAwodkD4jpTB4i7xQIQPSEA07JvB3HnRQEdL0kDoscrBYjm4QEPcAkGO2dXBTuekQGij
wkC9xdjBgh30QM2Rpr4EurzBKLDiQDxtAkAudbjBc217QNCaYEDppbjBulD4QNOZk0A7dqvBrgLa
QD7zCcBQ9bDBdz+KQGbLoECQBMjBOJICQSNVw0AQ77rB+bWVQAg9Nz/EzZ3BhBEQQAKof8D+24jB
yxrWP3x6McD8UpLBRkAOQAhVjMAQ4pbBGeM7QNA8fcDSCabBJgeFQLGCRsBIDa7B2rmVQOJAi8D5
nKTBttOZQJ/jiUChjobB2AfCQLzBQUAMJofB6fjPQG97l0CW+onBXU3HQLpRLcAD757BtjK3QDra
tb+VwZXBqrl+QNCmEMBUHozBRvaQQGPWd8BprZDB6alXQAJv07+KAp/BP8CRQMqY5EDw3svBX1dW
QHVuPEDbdKjB7kEDQHNNbEB1FZjBHUk+QLvbhUA/CI3B9wneQDB4Ur5yoLTBQ6PUQI8Tkz8JyrLB
8KecQKmagUCHvbnB7aHgQHQKl0Ae2bHB79DMQBcJmr/F7q3BxfejQGCNnUBpYMLBvernQAbWskBj
errBsEqnQLhWAT8LrqPBnmq6QIBUfUDjPrHBvFa4QOvCwj/kdqrBaV+yQF46W78iMaXBL5jJQGIL
t0Blt8LBzunKQNT3VkDl0p3ByZmDQHpiZEB6MZrBiTuxQOCMQEBOyafBd7N1QEU9SMAvY4fBS2Z4
QF9DgMDFaJ7BP1S3QG57f0C7A4vBt6KpQOrs8r/SWJzBSz5NQNDmEcC/cpDBjJN2QKyVH8C6vZvB
n/mvQFsp5UBZINHBpDStQHFQckAyXZbBfsmEQKQgT0DgV6TBBYM8QHf4akAPQpTBOjjxQNUFS0AV
RpzBNQXTQCJI1ED2xcrBSq+hQJtVx0ApMdjBTlWPQKBE80Aa0MrB6ZXyQECb975NNbvBgBHjQLxr
9D8/wLfBVw2AQNduXEDPmLnBuFr4QCsvlEAHm6vBtOLTQNSCD8DZfq/B4duMQM6in0Clx8jB95QC
QZo0xUDRyrrB6KWRQIHsRj//TZ3BKdxUQHaPOsBlln/B2wJvQJdNhsA3UInBDPucQFUgOMBcoIbB
phs3QA1OjcAt9p3BouiIQGXhhMC5iKbBf8uQQIb7kMD4n5jBdX2aQJqYikDBwobB7obCQPnsQkC9
gYfBlJHQQHkYmEA5RYrBP+W/QOwXL8BvlZ3BlG+wQGyStb9onJTB1/IIQEBtIsDl/ZDBE+ZTQNHk
m78KTo7Bf6BOQDC5/b/buKHB5Y68QBdHAEF3q9XBhD5WQDKcSUBNEqnB3fIDQKYwX0D7spfBuzY/
QBqAe0BwiYzBm0PeQHZ+Tb5mz7TBpZDUQGtQkz/y77LBXZCcQO1cgUDas7nBFUrgQANKl0DxubHB
jrnNQN0Nmr84Dq7Bh+2jQAlCnUCuWcLB5p7nQH4Is0ATXbrBiTWoQBtK/D4orqPBezu6QIg4fUDo
LLHBB7S4QBXMwT9rf6rBHnWzQN6VXb9eQqXBOWjJQMzhtkDYocLBgu/KQBQuVkAXzJ3BcKGDQBTr
ZEC6O5rBD06xQOrFP0Cuw6fBH6Z5QLbwSMAjcofB6mN1QO4VfsBmmZ7Ba1e3QEuvgECnFYvB86eq
QCVd9b8OgZzBft5QQFBAEMBGQJDBNXp3QIScHcD2sZvBpmauQB3K4kDi+9DBH0KtQPbTckD7aJbB
jdaEQFAxTUD/S6TBUHY8QJrYbUDTXpTBCzzxQKw/SkA0O5zBt0bSQDLm00AXt8rBwqOQQGvb9UDl
nMrBkue8QOoHAEFMH9jBS4PyQN0I8r4Ld7vBg2ziQPQ49T8N9bfB7wSAQPPFW0C9krnB7tf3QB6y
lEDlb6vBBTHVQM9ZD8COna/BoPqMQPwqn0D3ysjBGWACQbyXxUAuqLrBituSQP0tQj9JOp3BINNa
QG9nO8A7b3/B8JtwQDpohsCSfYnBHz2fQEfbOsB94YbB3VUzQHH8isAhAp7B326GQGZxg8CA0qbB
hUGPQObrkMAfB5nBAomaQJb6i0CF44bBRVjCQCIoRUC8cofBebbQQGTxmEDSbYrB7dq/QAaUMcBQ
Ap7BJsmyQOlEu78DwJTBLAoMQLfEHsBgmpDBe+hZQBGfmb9M/o3BwJBPQKwp9b/veKHBPh+gQLVk
x0CUM9XBIEBWQLJVRUDl9KjBtuADQEDvYUCJzJfBlRk/QCkZgECitozBI/HPQPdkRL6607fBohXJ
QE6BlD/wMbXBRM+ZQOjVhkArMrjBUhfkQKDDj0A8o7LB7cHJQOLdmL9nE7DBZyWhQPvWoUAs8sDB
P0DrQEVAq0C1V7vBOF+2QARWAj+r+aLBaM+6QEEHfUAjv7DBcAy8QOQjwz/xsKrBRju9QJf3V7/q
maXBcLXJQHtdtUDXasLBWHLLQBxCWEBLbp3BioGDQIEZZUBXI5rB3beyQLiuPkC0fafBcybdP0Vz
9L+5/JrBiYCEQPn7aMCmSpXBJFy2QEjyhUBUCYvBxcC1QNFe9b9RNZ3BBSpLQN0BsL9pKZvBNW+H
QLQvH8BJip3B/leuQGhS60D5m87Bu+CsQEIEdUBVN5bBbraFQGSZRUAO4qPBveA6QOXvc0CyrpTB
uAbyQIH/UUBYzJvBQi/SQCtw0kDSisrBAT2XQBDg00Dtu9XBwpGUQCJW+UCtgsbBUfjZQDCv6763
z7/Bl7/NQDRf9j9ML7vBEIJ1QH+PcED+IbfBezP+QGS1h0D2WK3BspnOQDTWDsBwJbLBp8GHQOrX
p0DAnMbBWFYFQZi0uECcnbzBe6WsQLHdRT8f9ZrBNViEP1Omir8sSJnBewe+Pz1aFsD60KLBvQHR
P/5tK8BMvZTBBvpHQLX5gcB8XpXBy7GbQN+ajcADZJfBr8CLQE8wUMDnQY3BXMaYQCRUkEBiCYfB
tIfDQNDWU0A/2obB897NQHAioEAQ3orBfmzMQClgL8CumZ7BRX+7QGrMvb9RQJXBMgpQQAYKGr/h
Y6HBU4dZQAxZbr8zUJPB5FaBQDE0OcDukqXBEqu7QCmqA0FMxdLBX7RYQJ+TNEAARqjBEN0CQNZ7
ZkDqKpjBSiU8QKcHhkAtRo3B

> <OMEGA_E>
oB2iPqDYrj7UGa8+UAfVPg==

> <OMEGA_NBR>
    180851

$$$$
50168824
  -OEChem-04172616093D

 49 51  0     1  0  0  0  0  0999 V2000
    4.8897   -1.8792  -20.3536 C   0  0  0  0  0  0  0  0  0  0  0  0
    4.3559   -2.7840  -19.7480 C   0  0  0  0  0  0  0  0  0  0  0  0
    7.1212   -0.0178  -22.7136 C   0  0  0  0  0  0  0  0  0  0  0  0
    6.4641   -1.0805  -22.0669 C   0  0  0  0  0  0  0  0  0  0  0  0
    6.8341    1.3113  -22.3539 C   0  0  0  0  0  0  0  0  0  0  0  0
    4.8455    4.0973  -23.1025 C   0  0  0  0  0  0  0  0  0  0  0  0
    7.0043    4.7507  -22.1698 C   0  0  0  0  0  0  0  0  0  0  0  0
    5.0732    4.9246  -24.2123 C   0  0  0  0  0  0  0  0  0  0  0  0
    7.2359    5.5678  -23.2865 C   0  0  0  0  0  0  0  0  0  0  0  0
    5.2410    0.5141  -20.6851 C   0  0  0  0  0  0  0  0  0  0  0  0
    5.5305   -0.8113  -21.0465 C   0  0  0  0  0  0  0  0  0  0  0  0
    5.7994    4.0150  -22.0610 C   0  0  0  0  0  0  0  0  0  0  0  0
    5.8645    1.5903  -21.3561 C   0  0  0  0  0  0  0  0  0  0  0  0
    6.2743    5.6714  -24.3072 C   0  0  0  0  0  0  0  0  0  0  0  0
    6.3461    3.3406  -19.6525 C   0  0  0  0  0  0  0  0  0  0  0  0
    4.1041    3.5758  -19.2420 C   0  0  0  0  0  0  0  0  0  0  0  0
    5.5665    3.0248  -20.9179 C   0  0  1  0  0  0  0  0  0  0  0  0
    5.6819    3.9005  -17.2913 C   0  0  0  0  0  0  0  0  0  0  0  0
    3.7433   -3.8858  -19.0120 C   0  0  0  0  0  0  0  0  0  0  0  0
    3.6173   -3.5530  -17.5136 C   0  0  0  0  0  0  0  0  0  0  0  0
    5.4236    7.0653  -26.0571 C   0  0  0  0  0  0  0  0  0  0  0  0
    5.3977    3.7306  -18.7216 N   0  0  0  0  0  0  0  0  0  0  0  0
    4.1654    3.1607  -20.4839 N   0  3  0  0  0  0  0  0  0  0  0  0
    2.9187    3.8094  -18.5614 N   0  0  0  0  0  0  0  0  0  0  0  0
    7.5411    3.1541  -19.4476 O   0  0  0  0  0  0  0  0  0  0  0  0
    2.6148   -2.5613  -17.2985 O   0  0  0  0  0  0  0  0  0  0  0  0
    6.5598    6.5073  -25.3688 O   0  0  0  0  0  0  0  0  0  0  0  0
    5.7788    8.2726  -26.5590 F   0  0  0  0  0  0  0  0  0  0  0  0
    5.0463    6.2476  -27.0751 F   0  0  0  0  0  0  0  0  0  0  0  0
    7.8466   -0.2227  -23.4870 H   0  0  0  0  0  0  0  0  0  0  0  0
    6.6749   -2.1007  -22.3520 H   0  0  0  0  0  0  0  0  0  0  0  0
    7.3542    2.1237  -22.8396 H   0  0  0  0  0  0  0  0  0  0  0  0
    3.9354    3.5190  -23.0427 H   0  0  0  0  0  0  0  0  0  0  0  0
    7.7483    4.6826  -21.3899 H   0  0  0  0  0  0  0  0  0  0  0  0
    4.3326    4.9925  -24.9954 H   0  0  0  0  0  0  0  0  0  0  0  0
    8.1600    6.1215  -23.3628 H   0  0  0  0  0  0  0  0  0  0  0  0
    4.5379    0.7124  -19.8897 H   0  0  0  0  0  0  0  0  0  0  0  0
    4.7657    4.2139  -16.7696 H   0  0  0  0  0  0  0  0  0  0  0  0
    6.0346    2.9467  -16.8718 H   0  0  0  0  0  0  0  0  0  0  0  0
    6.4589    4.6681  -17.1607 H   0  0  0  0  0  0  0  0  0  0  0  0
    2.7410   -4.0780  -19.4224 H   0  0  0  0  0  0  0  0  0  0  0  0
    4.3659   -4.7852  -19.1286 H   0  0  0  0  0  0  0  0  0  0  0  0
    3.3459   -4.4658  -16.9629 H   0  0  0  0  0  0  0  0  0  0  0  0
    4.5827   -3.1759  -17.1453 H   0  0  0  0  0  0  0  0  0  0  0  0
    4.5966    7.1820  -25.3412 H   0  0  0  0  0  0  0  0  0  0  0  0
    3.3704    2.9636  -21.0577 H   0  0  0  0  0  0  0  0  0  0  0  0
    2.0419    3.6613  -19.0189 H   0  0  0  0  0  0  0  0  0  0  0  0
    2.9407    4.1260  -17.6131 H   0  0  0  0  0  0  0  0  0  0  0  0
    2.5521   -2.3700  -16.3701 H   0  0  0  0  0  0  0  0  0  0  0  0
  1  2  3  0  0  0  0
  1 11  1  0  0  0  0
  2 19  1  0  0  0  0
  3  4  1  0  0  0  0
  3  5  2  0  0  0  0
  4 11  2  0  0  0  0
  5 13  1  0  0  0  0
  6  8  2  0  0  0  0
  6 12  1  0  0  0  0
  7  9  1  0  0  0  0
  7 12  2  0  0  0  0
  8 14  1  0  0  0  0
  9 14  2  0  0  0  0
 10 11  1  0  0  0  0
 10 13  2  0  0  0  0
 12 17  1  0  0  0  0
 13 17  1  0  0  0  0
 14 27  1  0  0  0  0
 15 17  1  0  0  0  0
 15 22  1  0  0  0  0
 15 25  2  0  0  0  0
 16 22  1  0  0  0  0
 16 23  2  0  0  0  0
 16 24  1  0  0  0  0
 17 23  1  0  0  0  0
 18 22  1  0  0  0  0
 19 20  1  0  0  0  0
 20 26  1  0  0  0  0
 21 27  1  0  0  0  0
 21 28  1  0  0  0  0
 21 29  1  0  0  0  0
  3 30  1  0  0  0  0
  4 31  1  0  0  0  0
  5 32  1  0  0  0  0
  6 33  1  0  0  0  0
  7 34  1  0  0  0  0
  8 35  1  0  0  0  0
  9 36  1  0  0  0  0
 10 37  1  0  0  0  0
 18 38  1  0  0  0  0
 18 39  1  0  0  0  0
 18 40  1  0  0  0  0
 19 41  1  0  0  0  0
 19 42  1  0  0  0  0
 20 43  1  0  0  0  0
 20 44  1  0  0  0  0
 21 45  1  0  0  0  0
 23 46  1  0  0  0  0
 24 47  1  0  0  0  0
 24 48  1  0  0  0  0
 26 49  1  0  0  0  0
M  CHG  1  23   1
M  END
> <OMEGA_C>
mHicQO6J8L891KLBo2OLQFcsMsD2+53BduDjQEaJkbyOtbXBvdnOQIlOir8BibDBqbDaQELapz/H
1LLBpg6bQCcdg0Dp0bjBiiPgQCIGmEDKW7HB+1eiQPOVnUDkssHBooznQDQrskC8SrrBgranQPye
Az8Ce6XB8PmwQDivT79CX6jB8ZS5QAp7gEDZfLDBram7QPaNyz9I2arBCcfIQOB7tUAxdcLBKRPL
QCXMVUBVOJ3BAFWDQP7ZZECu75nBjSCyQAyWQUDRV6fBUdK1QKWheUCXVIrBxJJvQHixeMCTGJjB
PYFnQPZkY8DmG4zBKo6tQJkW4kDbdNDB17msQLjBbkDcxZXBkEqFQJ1JSkAI36PBX8w6QKvNc0DF
fZTBDVHxQHXcSUCylJvBclgnQBLtI8BMY4rBO+rRQCg80EBY88rBweu4QJJcBEHaeNTBNHuhQHjs
x0DZmdjBahf7QGoJZL5v5bvBgJjVQD9xBsDk0LLB7FXrQBDrB0Bqt7bBF917QJo3YUB8V7jBxfH3
QD3YlUBuHqvBdaSKQIXCn0Cf9sfBYY8CQYrjw0D75rrBVjaRQGVgNj8CHp/BQ4CYQFfYhkALKIbB
JxvBQOiWPECJ+YbBba/OQA5hlUANSYnBvmwvQDh/gsAJYZvBprWLQP0fmcBlB5nBriNWQJPnjsAD
tIfBwaWSQFJCS8CaKYnBNxeTQK3S5UDUusrB3LRXQPqqPUAUdqjBEq8CQAhTakC6JpjBQzQ8QEQI
hECh54zB0lUjQGytF8Dq9YLBMGSbQObL7L+woaLBYymJQC2ZLMCSaJ3BXxTjQMCunrzXl7XBXNDN
QMzCib/aaLDBxyjaQG4gqD+4wbLBEU3gQMUXmEDpg7HBcfuaQCDng0CT87jBaP7nQCAXskD6dLrB
c5aiQPE3nkCR28HBcM+mQLDUCD9ddKXBrfuvQJuoS797R6jBk4C5QJvzgECBnrDBvge7QIpxzT8h
1arBFFHJQF6otUBMosLByObKQNvBV0BaUp3BDkaDQKcdZEDL2ZnBGcixQFcFQ0BTaafBo0a2QOC5
fkD5f4rBvYpkQK3ZaMAPo5bBN7pfQL89Q8DzSIvBxyGvQGJp4UBa9dDBPrisQBOqcUAq4pXB3AOF
QPOnTEDM6aPBqAo7QGp4bUD9IpTBJSHxQDiVS0BZsJvBDiskQIl2csC+DYXB8f7SQMkk0EDnJcvB
JL+6QFnxA0F/B9XBPiqkQHK2xkDaF9nBeE36QPrhbL5Uw7vBh1nUQOlSBsC8qLLBFB/rQHGqB0A4
o7bBSBn4QFW1lUBGR6vBMD57QH2PY0D5dLjBld4CQWiEw0DBELvBOumKQHKboECJH8jBAiyQQC1T
PT+/Ip/BQRKZQEKTiUCITYbBuOnBQL50QkAeAYfBIQTPQFEtmECDqYnB+ogjQFfQcsDjxpnBXWeD
QFYqk8DGc5bBhqOPQEaqRsDahYfBfRBLQAAKAMCnvIvBagSUQNRK5UBtbsvB7PVWQAeuQkAmkqjB
FtMCQIsYYkCfr5fBvtA8QAaXf0Cad4zBwXIhQED4WsC9GnzB8BiZQFF76b92OqLBfGKFQPD0K8BV
hJ3Bl7ThQJjnT71wZbXBOGbMQPmVi78z/a/BlUrZQHlCpT+pubLBaoWbQErpg0AhBLnBp9LgQDoa
mEAdkrHBNRajQHlPnkBa58HBOojoQNMYskD1g7rBmVymQGOIDT+pKKXB//WuQPj7SL+uz6fBbAK6
QBz2gEDerbDB1K+6QJqizT87u6rBnNHJQN+1tUDErsLB/gnLQEYxWEDhUp3B41aDQPiiYkDS0JnB
b/axQNOXQ0DlbafB1ye2QP1EekC5XIrBDO5YQEuWbcBZAJjBaaBJQO91VcD9OIzBd2OvQOyg4kAj
uNDBBbesQKefb0DHypXBBCiFQBUsTkDQ+qPBPzw7QC4TakC1C5TBhmfxQFlvTUDZvZvB2QmMQDfr
V8BnaYbBO2fTQAwh0EDgNcvB34a7QDyDBEFkvdTBZ9aiQPqvyEAT3djByo34QPznkL5Mm7vBVprS
QO2mB8CRGrLBzzfqQKloBUASyLbBNWh8QI1sY0C8ibjBtJv4QJu4lUC0VKvBV12LQGvLoED4J8jB
7CYDQTh5w0DKIbvBjQyQQJtVRz8a0J7BvdCYQNt/hkDrGYbB7SXCQDiAPUBXFYfBu5bOQN8jlkB4
VonBEMIaQGu8dMAtCJzB0ud7QB1QlcDIVZjBS7wuQAJ7FMDH0IvBDEQcQFuLgcCHpojB7/2UQILj
5kD1/srBal1XQKLERkBzu6jBmP8CQACUX0DZoZfBeBI9QG7veUB2TIzBpeKGQPXqSMAKUn7BK66Z
QDTD6r+OvqHBjrKHQJtOLsB66ZzBz13iQLAypL1eBrXB8PHMQMxZjr/ojK/BkJHZQHzboT8/jrLB
sZybQBcTg0BGMbnBtr/gQGFil0BVt7HB0PiiQOvynUCjAcLBGzDoQI31sUCdj7rBSvGlQKBICz8g
E6XBhvCuQEcGTL8thKfBIQW6QEMlgECs2LDBKnq6QBBuyz8ptarBf2zJQCsMtkB3tMLBkRDLQKDG
V0D5eJ3BMm2DQBYvY0BQ8JnBlNexQN+pQkANiafBk5K2QG+0e0CIjorBhoxlQFhJdcDDXpfBXQ5m
QChtacB6IovB77uwQMrd4UB2o9HBk+SsQGQrcEBJ9ZXB6xiFQEHhTUDCE6TBunQ7QE5Ea0AqLJTB
P2jxQHyfTEBq5JvBiSQpQEVkKsAD9YfBfWbTQOCc0UDwEcvBSSehQH++wkDFK9jBduKQQEK28kD8
f8vBY5X5QKxapL7EILvBcH3TQPU4CcDGgLHBhJDqQM9lA0Bxp7bBjAV9QDUCYUD2yLjBqbb4QLCg
lEBth6vBslCLQMNOoED+RsjBmPECQd98w0DbH7vBXC6PQMF8Rz/02Z7BblyZQNmNh0CjSYbBIXjC
QJAZP0ChNYfBQyfPQObFlkDnoInBEs8iQPWUecBhHprBp6yDQGl+mMA6WJnBxgdWQKhZk8DcSofB
WiGTQM0CVcDllIjBuwm+QHKP+0BxptbB+yBXQApMRkAuzqjBCy0DQE+dYEDCvZfBvF49QFa/e0Au
cozBzn0qQFgVJMBlZoDB0b2ZQMp+778ryqHB+riHQO8WMMCs3ZzBaxvhQKS28730W7XBmObLQCBC
k79Z1K/B7QzZQIHrnD9GvLLBXhrhQEmklkBbnbHBNVacQEB1gUB4LLnBCD3oQLuAsUCuarrBxpOj
QBVRnEDJ/8HB56mmQOGRAT9396TBf+GuQOi3Vb/9lKfBUZO6QNUPfkBmw7DBfOq6QAWjxj88qarB
/WzJQChKtUAZjMLBGj/LQAsKVUDeSJ3BuWSDQLOXYEAe85nBd26yQKtKQEAqc6fBu+61QOewfUAP
h4rBRLJkQLHYdMC8BZfBMKFkQNiOY8Ds5YrBvEeuQJTB30CLKtHBmXusQI/oYECMdJXBAYmFQGX/
SkCREqTB4xk7QN4LckDdlZTB1fvxQHZHUEBv0pvBXVEwQPBnG8AOZojBagjSQMr40UCXtMrBDNmO
QPEv8UCcAMvBs4q8QGMl/kA5CNjBp5r3QHBzuL6noLvBI93RQBuoC8Cx57HBm+LpQATdAEBB47bB
wSP5QK7vk0CQcavBavJ+QF8EXUAQzbjBrdgCQQ50w0Ah9LrBLE+MQMP1nUDXX8jB4LiQQAWuPT+i
j57BiACYQKHzgEAX7YXBhaHLQNW2T0AWqIbBFkLFQImDnkCaz4rBoSgiQE/oecCg05nBKCuDQIe1
mMDNlJjBmqVLQM8YjsDltIbBWUWTQADjVsA0PojBycGhQIYfxEDyoNXB919YQGjlQkBt2ajBdzQD
QJl/bkDYdJjBVWk8QFQXgUB42IzBOhkxQMzIEcAi5YDBbaWZQOwK779scaLBNV2HQA88LcBnJp3B
mifhQODplr0Mr7XBLtzLQG1Ij79jXLDBOP3YQFLsoT8h3rLBpDPhQBTolkB5pbHBpXebQBGGg0AR
57jBsJfoQOhMsUC9iLrBq9eiQA4ZnkC3xcHBBGGmQGdkAz/0SaXBvZ+uQKycUr9vIqjBcje6QMAi
gECzo7DBQby6QK2DyT9fx6rBlo/JQJqptUBzmsLBpiLLQKPGVUCYOZ3BNFCDQOAyYEDVx5nBiTOy
QAqUQUBnZKfBkxO2QAC4fUDGa4rBXDxiQDjeaMD8J5bBRKVgQHzWQcAM3YrBP46wQG7K4UC7cNHB
N3+sQKbxYEAZWJXBN1iFQC3XS0D48aPBsvM6QBsicEAcVpTBN+zxQPrIUUBh0ZvB21cvQHfvdcAX
44PBtm3TQE4O0UCeA8vBPMCgQH4Iw0DBC9jBp+iQQDRQ8kDeLMvBwNX3QGj0mL4O87vBMO3RQENV
CcBRlLLBut7pQFj2A0Bu5LbBI2r5QBztk0DIhqvBChl8QN8CY0BpYrjBcjwDQXh4wkBsL7vBmviK
QGegoEDv/MfBxVeQQIgXOz9b3Z7BFj2YQA6mgEAYxoXBQxTMQIcUUEBXmIbB5xnFQLWrnkC7tYrB
lm4gQM28csC3B5nBgBiCQIJDk8CJA5bB8zyRQIlIPcARzIfBLjNEQCOCAcCOO4vBFLq9QGrA+0A1
Y9bBLtxXQFNLREDItqjBzfACQJRgbECfLZjBPWU8QBlhf0CbkYzBa8cuQDRGXcCh4XnBaiieQJFP
87/9s6LBhyqMQHOMMMDYi53BDkDkQDCr9ryTwLXBsNvPQGKOjL+qgLDBWrPaQI4Upj+s47LBjTGb
QLBHgkD577jBGLXfQJv9l0AtTLHB1pOiQErenECOzMHB4A3nQEqBskCGKLrBo1yoQN9H+z4Oc6XB
WS6yQIJwVb/fTqjBbWq5QJnmf0CTh7DBiMu7QOoryT9y3qrBx5zIQGKEtUB6ZsLBwvrKQOUuVUC6
Rp3BHlODQOHTZUDwCJrBIgCyQLBuQEBbYafBKAO2QH1pfkAYiorBYlFqQGTYbMAJ0ZbBSBZpQFwI
ScCxWYvBxL6tQN6I4ED70tDBtsKsQLIrcECT6pXBwyuFQHP5SEDR4KPBnQM7QMR1dkAqnZTBfj/x
QHGpSUC7oZvBFZUmQG1LcMC5XYXBHNTRQJ2W0ECE1srB/LmTQJEM+EBBXMrBD5q8QMXp+UADydjB
4kj7QAvFar5C/rvB7/LWQIZ9B8CBwLLBLgDrQH49B0CB0rbBwXx8QCzyXkDsiLjB+WD3QPLjlUA9
BqvB+0WLQI2OnkBPKsjB5CoCQYnBxEBVp7rB0diRQOXeLj/eE5/BqbuYQKPIiUC1bobB+2fBQJ9u
QkAK64bBptfOQJfzl0D/vYnBsmkoQKFtdMAIw5nBqm6FQOGhlcCr65bBlXiTQCwiVsD9eofBwj1e
QKKCA8BxoovBaAGcQH5ExUCnL9TBhGRXQGy/OkCbYajB5L4CQJl7bEBAN5jBzL48QA43hkBqGo3B
a0UmQJzXWcBXm3zBmL2bQLDZ8L/SSaLBHFyIQGzUL8D6h53BlN3iQA3wj72+jLXBW2LOQFCHj78E
F7DBpLHZQGcXoj/f4LLBYKGbQJwbgkAWBLnB8y7gQLadl0CbarHBs7yiQHgWnUAw0MHBe2DnQERV
skCEQLrBNp2nQGo8AD9oNqXB8vKwQJLwVL/34KfBy9+5QA9Sf0Czn7DB3zO7QJRJyD+/0KrBwcHI
QCrctUAic8LB4gfLQI5nVEABRp3BEDuDQPzwYkBk+ZnBfhKyQFR4QEBebafBKea1QKZffECEc4rB
TkFfQLXTcMAm3pfBX0NYQKs3W8BU5YvBi12vQHdZ4UDWW9HBq1SsQJjEYkA5fpXBmiyFQFA7SkDv
/KPB0hI7QCF/dkAop5TBR5/xQMhjTEBcyZvBe82UQFAgZMBd24bBaFPSQGSl0UBWzMrB2rigQO4h
wkDY/9fBffSOQOwP8UDcNcvB1an5QNZjlL4fzbvBijfVQG9nCcCgMLLBRPPpQCVtBEDC/LbB2ah9
QO4eXkAGp7jBnwH4QIhPlUAIL6vBLjWLQHAFn0CBH8jB+WECQepmxED/w7rBAlCRQE7XNj8q1p7B
Z9iXQAe7gUDY9IXBV+DJQPgfS0BdoYbByyjHQDfdnECjfYrBI5seQNQLdMD5U5vBvQl/QB6cl8B2
x5jBj9RBQDPjGMDJ+4rBWU4qQOWBg8CeF4jBXBi8QIqd+0AFR9bBvXZXQIN8P0CJpqjBPQIDQHAd
ckDieJjBX8c8QEl9hEAs/4zBmkiSQKCkVsAk8n7BC4KUQEhp5L/5HKbB/IB6QHiGKMAYV6LBGVPm
QGDW8T0797XBExLOQLSZdb+497HBSQXeQOMZtz+Tb7LBYdffQOQ6nUCys7DBX/abQIL5hECSUbjB
Se7mQDtvtkB95LnBWR+jQIfqnUBmaMHB8TmlQKqdFj/h4KbBuratQJ5NOL8TWqrBfUq6QKDbg0DD
7a/BdZS8QPkq1z81B6vBX9PIQEzrtUAMU8LBtWLLQHgXV0Agr5zBYyyDQAidYUATk5nBzTSzQMJf
RkCdAafBbwO0QEKXakBQh4nBliQ/QKDqZsB0yZ3Bnp8wQHo3VsAoyJHBxXPNQHg/90AIw8vBsCas
QGbGaEBFGZXBnh+GQBiTTkD1u6PBGiU5QJ4WbEAHRJTB7cvxQBBjTUBpEpvBaDl8QNhrasDH7ovB
cfTQQBSIyUC66cvBY5/TQNqoAkH859XB19qlQN7KAUE6bMjBsVb/QK0wgL3rv7vB3D/UQAZy+788
urTBbDTxQFv8D0AgYrXBIev2QOk7nUA4RarBD+59QAyvZEAgsLfBhqMBQScQykCae7rBLZqLQF23
nkAvvMfBGJqMQBDgQj/Z+aDBMRmWQKgbekDjUIXBH5W/QFaKK0D044bBMUTMQIC9jUAhtIfBcn8B
QJNlYsDS/6HBtcFZQGHHk8AE1J7Bm5UgQLhcEsDMkJDB8Bn3PxRlfsDX6o7BtCDmQAo3AkHHa8bB
njtaQE+lRkBZoKjBn/sBQBATZUD1OZjBwp84QE6oekDeeYzBbd5yQCj+X8CJiYTB

> <OMEGA_E>
YBqIPtwcjT6AcI4+sO2QPtj7kD7QFpg+CN2bPjBmnz54JsI+

> <OMEGA_NBR>
    188673

$$$$
50168827
  -OEChem-04172616093D

 48 50  0     1  0  0  0  0  0999 V2000
    4.8927   -1.8406  -20.1370 C   0  0  0  0  0  0  0  0  0  0  0  0
    4.4062   -2.7049  -19.4381 C   0  0  0  0  0  0  0  0  0  0  0  0
    7.0419   -0.0915  -22.6615 C   0  0  0  0  0  0  0  0  0  0  0  0
    6.4027   -1.1243  -21.9494 C   0  0  0  0  0  0  0  0  0  0  0  0
    6.7666    1.2542  -22.3541 C   0  0  0  0  0  0  0  0  0  0  0  0
    4.8588    4.1093  -23.1324 C   0  0  0  0  0  0  0  0  0  0  0  0
    7.0343    4.7190  -22.2110 C   0  0  0  0  0  0  0  0  0  0  0  0
    5.0886    4.9504  -24.2323 C   0  0  0  0  0  0  0  0  0  0  0  0
    7.2682    5.5483  -23.3179 C   0  0  0  0  0  0  0  0  0  0  0  0
    5.2036    0.5337  -20.6235 C   0  0  0  0  0  0  0  0  0  0  0  0
    5.4899   -0.8086  -20.9228 C   0  0  0  0  0  0  0  0  0  0  0  0
    5.8169    4.0038  -22.0967 C   0  0  0  0  0  0  0  0  0  0  0  0
    5.8217    1.5799  -21.3471 C   0  0  0  0  0  0  0  0  0  0  0  0
    6.2975    5.6853  -24.3255 C   0  0  0  0  0  0  0  0  0  0  0  0
    6.3469    3.3529  -19.6761 C   0  0  0  0  0  0  0  0  0  0  0  0
    4.1063    3.5483  -19.2411 C   0  0  0  0  0  0  0  0  0  0  0  0
    5.5601    3.0330  -20.9394 C   0  0  1  0  0  0  0  0  0  0  0  0
    5.6990    3.8891  -17.3042 C   0  0  0  0  0  0  0  0  0  0  0  0
    3.8588   -3.7544  -18.5796 C   0  0  0  0  0  0  0  0  0  0  0  0
    3.1881   -3.1688  -17.3207 C   0  0  0  0  0  0  0  0  0  0  0  0
    5.4468    7.1107  -26.0527 C   0  0  0  0  0  0  0  0  0  0  0  0
    5.4018    3.7173  -18.7319 N   0  0  0  0  0  0  0  0  0  0  0  0
    4.1615    3.2095  -20.5068 N   0  3  0  0  0  0  0  0  0  0  0  0
    2.9260    3.7100  -18.5310 N   0  0  0  0  0  0  0  0  0  0  0  0
    7.5471    3.1919  -19.4807 O   0  0  0  0  0  0  0  0  0  0  0  0
    6.5822    6.5440  -25.3699 O   0  0  0  0  0  0  0  0  0  0  0  0
    2.0280   -2.5357  -17.6417 F   0  0  0  0  0  0  0  0  0  0  0  0
    5.8053    8.3183  -26.5519 F   0  0  0  0  0  0  0  0  0  0  0  0
    5.0642    6.2996  -27.0737 F   0  0  0  0  0  0  0  0  0  0  0  0
    7.7449   -0.3323  -23.4452 H   0  0  0  0  0  0  0  0  0  0  0  0
    6.6114   -2.1565  -22.1892 H   0  0  0  0  0  0  0  0  0  0  0  0
    7.2771    2.0426  -22.8873 H   0  0  0  0  0  0  0  0  0  0  0  0
    3.9439    3.5383  -23.0763 H   0  0  0  0  0  0  0  0  0  0  0  0
    7.7865    4.6252  -21.4417 H   0  0  0  0  0  0  0  0  0  0  0  0
    4.3432    5.0379  -25.0090 H   0  0  0  0  0  0  0  0  0  0  0  0
    8.2015    6.0860  -23.3966 H   0  0  0  0  0  0  0  0  0  0  0  0
    4.5054    0.7688  -19.8338 H   0  0  0  0  0  0  0  0  0  0  0  0
    4.7819    4.1792  -16.7705 H   0  0  0  0  0  0  0  0  0  0  0  0
    6.0788    2.9425  -16.8924 H   0  0  0  0  0  0  0  0  0  0  0  0
    6.4593    4.6743  -17.1800 H   0  0  0  0  0  0  0  0  0  0  0  0
    3.1112   -4.3266  -19.1484 H   0  0  0  0  0  0  0  0  0  0  0  0
    4.6751   -4.4237  -18.2700 H   0  0  0  0  0  0  0  0  0  0  0  0
    2.9706   -3.9844  -16.6154 H   0  0  0  0  0  0  0  0  0  0  0  0
    3.8731   -2.4490  -16.8488 H   0  0  0  0  0  0  0  0  0  0  0  0
    4.6218    7.2279  -25.3345 H   0  0  0  0  0  0  0  0  0  0  0  0
    3.3642    3.0875  -21.0978 H   0  0  0  0  0  0  0  0  0  0  0  0
    2.0462    3.5664  -18.9841 H   0  0  0  0  0  0  0  0  0  0  0  0
    2.9548    3.9701  -17.5658 H   0  0  0  0  0  0  0  0  0  0  0  0
  1  2  3  0  0  0  0
  1 11  1  0  0  0  0
  2 19  1  0  0  0  0
  3  4  1  0  0  0  0
  3  5  2  0  0  0  0
  4 11  2  0  0  0  0
  5 13  1  0  0  0  0
  6  8  2  0  0  0  0
  6 12  1  0  0  0  0
  7  9  1  0  0  0  0
  7 12  2  0  0  0  0
  8 14  1  0  0  0  0
  9 14  2  0  0  0  0
 10 11  1  0  0  0  0
 10 13  2  0  0  0  0
 12 17  1  0  0  0  0
 13 17  1  0  0  0  0
 14 26  1  0  0  0  0
 15 17  1  0  0  0  0
 15 22  1  0  0  0  0
 15 25  2  0  0  0  0
 16 22  1  0  0  0  0
 16 23  2  0  0  0  0
 16 24  1  0  0  0  0
 17 23  1  0  0  0  0
 18 22  1  0  0  0  0
 19 20  1  0  0  0  0
 20 27  1  0  0  0  0
 21 26  1  0  0  0  0
 21 28  1  0  0  0  0
 21 29  1  0  0  0  0
  3 30  1  0  0  0  0
  4 31  1  0  0  0  0
  5 32  1  0  0  0  0
  6 33  1  0  0  0  0
  7 34  1  0  0  0  0
  8 35  1  0  0  0  0
  9 36  1  0  0  0  0
 10 37  1  0  0  0  0
 18 38  1  0  0  0  0
 18 39  1  0  0  0  0
 18 40  1  0  0  0  0
 19 41  1  0  0  0  0
 19 42  1  0  0  0  0
 20 43  1  0  0  0  0
 20 44  1  0  0  0  0
 21 45  1  0  0  0  0
 23 46  1  0  0  0  0
 24 47  1  0  0  0  0
 24 48  1  0  0  0  0
M  CHG  1  23   1
M  END
> <OMEGA_C>
PpGcQJOZ67+kGKHBiv+MQJYdLcBQgZvBcFfhQJdQu720SrXB0+LMQG7pj79FmK/BUIjYQHCKoD8r
1bLBoHubQDx/g0A2D7nBqxjhQM8Bl0APsLHBaNWiQFRpnkDF28HBvJToQAOMsUAHi7rBBoSmQCSg
CD/l/KTBQq2vQD79Tr/oYafBLiS6QGgfgEAaxrDBg0u6QHo5yj/WxqrBBoXJQBDutUCsmsLBkhnL
QL6VVkCPaJ3Bm2aDQK0XY0DH7ZnBZ+yxQAkdQkDKg6fBRV62QDXneED9borB2vZ2QAZIcMDwopTB
fAlMQODMSsCykIrB4UuuQJCK40Dja9DBM9usQP7obUDf2pXBTCuFQKloTUDjDaTBHEM7QOFvbUBn
P5TBM4LxQMRHTEB02JvBuqHSQM9o0UB69crBIsoBQCZIIsA9Io3BZsW5QKIXBUFhatTB1g2iQEiW
yUDqltjBZtb3QFYgqr6+j7vBVZDTQE4DCsCHg7HBDd7oQOy5AkAlGbfBDGh8QD9zYkAwnLjBoCr5
QJoBlECLiKvBfPuKQFo2oUBbEsjBVjkDQXzAwkBHLLvB6CuQQAHSRD+wq57BrwWZQFG8hUAAKobB
sYXCQCVRPECfI4fB7rLOQI+TlUCYcInBlx1HQLBzisD1L5nBCpqVQN6OjcAKKZLBsx0+QHUAf8BO
7ITBx+B3QJm7HMBdyobBGeaTQCJL50AarcrBQk5XQPCZRUBIyKjBQ/QCQJA/ZEBk35fBwho9QJwV
fkDHhozBJ5OeQJiZ1r9P8p7BWYqQQGC2FsAPu5fBqgrfQEvj/L0l+LTB1ZTLQJKJj7/pp67Bn2bW
QNaLnj9V/LLBDFecQHYag0ApWbnBGEHhQLLZl0CExLHBAKGjQAP5nUA/IcLBxbroQJRfskBXoLrB
8uilQMicGj+an6TBZz+vQEiOPr9nbKbBg4+6QEaKgEDz9rDBIxq5QAw8zj+q1arBJ/bJQF4ktkCA
ycLBjxbLQKMSWEC+iZ3BvXSDQApdYkAi8JnBzcKxQCN9RED3qKfB4HS2QH+Fd0AreIrBqXGAQNML
R8ADq47BMBNZQNQtjcDropLBEUCvQHd530D+idHBK+SsQLPDbkDk65XBVRWFQBNWUkAKO6TBjbY7
QLSgZUAzDZTBs0rxQOIpS0AZ9ZvBkw/TQPe30UAOIsvBmbdEQLCLpcDwDIrBdxe6QDc1AkGVhNbB
jrGlQFRkwUCHB9nBPJ30QJ02zr7DVrvB01TSQMiKCsD3HbDBlR/mQOUGAEC4rrfB5tx+QBRxYECU
+7jBxhX5QHE2lUCIi6vB0wSMQB5LoECjacjBUiwDQSILxECeL7vBHamPQKIrYD8wYZ7BTzaZQMP9
hEA9JobB3ETCQGoZOkDzV4fBrBDPQLWElEBIVonBwvWaQBSZVcB2LInBWihQQLQWIcA3corBLvce
QOEfhsDWR5fBM5SDQHhansDTt5fBjYuTQM2/5ED5RczBE0lXQMbYT0DEEqnBq3cDQLBoW0AAppfB
48A9QBYzckAqNozBE++0QM9i7r+OHp7BUjyvQHFuLsCKc5fBm1PQQLLtLb5H8LfBgZ3JQB0sl78Z
TLDBJjbJQKvYlj+1O7XBWfOZQHmxh0DvNbjB4SvkQG5OkEBThLLBYK6hQEK6okAu9MDB/azrQE/O
q0BgNrvBuXy0QIIaAT/aL6PBarK7QIGYV78Z7KXBMsa6QP8nfkD/tbDBNDq7QGX9wz/lxqrBKkLK
QJvetUDHVMLBrjXLQFyiV0CzaJ3BIFWDQBK5ZUC8H5rBi2KyQFM4P0ANgafBqEy2QKx5hUDZ+4rB
CmuoQBXvcMD5bI/B4RNxQH+Jg8DOno7B82y6QFOK+UASccrBr8KsQBWudEA5LpbBd2uFQJXmRkB3
56PBO6I6QATPdEBUqJTBUMHxQNmbUEDYxZvBuCTSQNN90UDtucrBE3tlQM+wosCmK4fBNoWPQDMV
80BoZMvB0HHCQEVnB0ELJsHBB/XaQJZW274v5b/BXh7PQGDDDcC2YLLBjGfOQOGj+T+5IrvBmoh1
QN+4ckCJMbfB7xb+QJ05iECpK63ByX2IQE3xqEBYqcbB0pEFQeY9uUBib7zBLripQB1VQT/jOZvB
OcuYQHsNkECx+obBQjHDQN1+UkCQ1IbBzwzOQCBxn0DoxorBkmq6QIhNlcAitpHBs82zQOjkWcDU
nIfBAvdMQPakTcDcRIzBJgpaQH7tjsDZbpbB/2/FQIieBkH4MdHBqPpXQNfJNkCpUqjBk4YCQO4W
aECJKZjBGBE8QCIwhkDLOI3B

> <OMEGA_E>
YLgRPaCU+z1MJ4g+

> <OMEGA_NBR>
    191427

$$$$
50168812
  -OEChem-04172616093D

 52 54  0     1  0  0  0  0  0999 V2000
    7.1532   -0.0313  -22.6113 C   0  0  0  0  0  0  0  0  0  0  0  0
    6.8599    1.2955  -22.2609 C   0  0  0  0  0  0  0  0  0  0  0  0
    4.8602    4.1139  -23.1394 C   0  0  0  0  0  0  0  0  0  0  0  0
    7.0212    4.7402  -22.1991 C   0  0  0  0  0  0  0  0  0  0  0  0
    6.4293   -1.0884  -22.0375 C   0  0  0  0  0  0  0  0  0  0  0  0
    5.0996    4.9488  -24.2438 C   0  0  0  0  0  0  0  0  0  0  0  0
    7.2653    5.5627  -23.3100 C   0  0  0  0  0  0  0  0  0  0  0  0
    5.1130    0.5079  -20.7426 C   0  0  0  0  0  0  0  0  0  0  0  0
    5.8077    4.0144  -22.0935 C   0  0  0  0  0  0  0  0  0  0  0  0
    5.8227    1.5852  -21.3407 C   0  0  0  0  0  0  0  0  0  0  0  0
    5.4036   -0.8282  -21.1061 C   0  0  0  0  0  0  0  0  0  0  0  0
    6.3083    5.6860  -24.3325 C   0  0  0  0  0  0  0  0  0  0  0  0
    6.3358    3.3672  -19.6752 C   0  0  0  0  0  0  0  0  0  0  0  0
    4.0996    3.5507  -19.2311 C   0  0  0  0  0  0  0  0  0  0  0  0
    5.5456    3.0399  -20.9317 C   0  0  1  0  0  0  0  0  0  0  0  0
    5.7012    3.9368  -17.3119 C   0  0  0  0  0  0  0  0  0  0  0  0
    4.5215   -1.9786  -20.6444 C   0  0  0  0  0  0  0  0  0  0  0  0
    4.5280   -2.2058  -19.1235 C   0  0  0  0  0  0  0  0  0  0  0  0
    3.5916   -3.3985  -18.8032 C   0  0  0  0  0  0  0  0  0  0  0  0
    5.4895    7.0508  -26.1293 C   0  0  0  0  0  0  0  0  0  0  0  0
    3.4099   -3.5965  -17.2896 C   0  0  0  0  0  0  0  0  0  0  0  0
    5.3960    3.7544  -18.7362 N   0  0  0  0  0  0  0  0  0  0  0  0
    4.1495    3.2203  -20.4991 N   0  3  0  0  0  0  0  0  0  0  0  0
    2.9232    3.6752  -18.5071 N   0  0  0  0  0  0  0  0  0  0  0  0
    7.5344    3.1936  -19.4801 O   0  0  0  0  0  0  0  0  0  0  0  0
    6.6097    6.5303  -25.3861 O   0  0  0  0  0  0  0  0  0  0  0  0
    5.8631    8.2203  -26.7035 F   0  0  0  0  0  0  0  0  0  0  0  0
    5.1217    6.1747  -27.1015 F   0  0  0  0  0  0  0  0  0  0  0  0
    4.6119   -3.8412  -16.7060 F   0  0  0  0  0  0  0  0  0  0  0  0
    2.5883   -4.6559  -17.0751 F   0  0  0  0  0  0  0  0  0  0  0  0
    2.8504   -2.4865  -16.7371 F   0  0  0  0  0  0  0  0  0  0  0  0
    7.9375   -0.2396  -23.3240 H   0  0  0  0  0  0  0  0  0  0  0  0
    7.4299    2.1027  -22.6967 H   0  0  0  0  0  0  0  0  0  0  0  0
    3.9449    3.5430  -23.0885 H   0  0  0  0  0  0  0  0  0  0  0  0
    7.7635    4.6595  -21.4188 H   0  0  0  0  0  0  0  0  0  0  0  0
    6.6596   -2.1074  -22.3113 H   0  0  0  0  0  0  0  0  0  0  0  0
    4.3611    5.0296  -25.0276 H   0  0  0  0  0  0  0  0  0  0  0  0
    8.1963    6.1056  -23.3799 H   0  0  0  0  0  0  0  0  0  0  0  0
    4.3484    0.7106  -20.0073 H   0  0  0  0  0  0  0  0  0  0  0  0
    4.7903    4.2451  -16.7777 H   0  0  0  0  0  0  0  0  0  0  0  0
    6.0696    2.9893  -16.8917 H   0  0  0  0  0  0  0  0  0  0  0  0
    6.4727    4.7127  -17.1988 H   0  0  0  0  0  0  0  0  0  0  0  0
    3.4882   -1.7683  -20.9575 H   0  0  0  0  0  0  0  0  0  0  0  0
    4.8722   -2.8999  -21.1325 H   0  0  0  0  0  0  0  0  0  0  0  0
    5.5498   -2.4347  -18.7864 H   0  0  0  0  0  0  0  0  0  0  0  0
    4.1669   -1.3018  -18.6112 H   0  0  0  0  0  0  0  0  0  0  0  0
    2.6077   -3.2097  -19.2575 H   0  0  0  0  0  0  0  0  0  0  0  0
    4.0237   -4.3146  -19.2320 H   0  0  0  0  0  0  0  0  0  0  0  0
    4.6513    7.2200  -25.4373 H   0  0  0  0  0  0  0  0  0  0  0  0
    3.3508    3.1065  -21.0900 H   0  0  0  0  0  0  0  0  0  0  0  0
    2.0428    3.5091  -18.9514 H   0  0  0  0  0  0  0  0  0  0  0  0
    2.9554    3.9309  -17.5409 H   0  0  0  0  0  0  0  0  0  0  0  0
  1  2  2  0  0  0  0
  1  5  1  0  0  0  0
  2 10  1  0  0  0  0
  3  6  2  0  0  0  0
  3  9  1  0  0  0  0
  4  7  1  0  0  0  0
  4  9  2  0  0  0  0
  5 11  2  0  0  0  0
  6 12  1  0  0  0  0
  7 12  2  0  0  0  0
  8 10  2  0  0  0  0
  8 11  1  0  0  0  0
  9 15  1  0  0  0  0
 10 15  1  0  0  0  0
 11 17  1  0  0  0  0
 12 26  1  0  0  0  0
 13 15  1  0  0  0  0
 13 22  1  0  0  0  0
 13 25  2  0  0  0  0
 14 22  1  0  0  0  0
 14 23  2  0  0  0  0
 14 24  1  0  0  0  0
 15 23  1  0  0  0  0
 16 22  1  0  0  0  0
 17 18  1  0  0  0  0
 18 19  1  0  0  0  0
 19 21  1  0  0  0  0
 20 26  1  0  0  0  0
 20 27  1  0  0  0  0
 20 28  1  0  0  0  0
 21 29  1  0  0  0  0
 21 30  1  0  0  0  0
 21 31  1  0  0  0  0
  1 32  1  0  0  0  0
  2 33  1  0  0  0  0
  3 34  1  0  0  0  0
  4 35  1  0  0  0  0
  5 36  1  0  0  0  0
  6 37  1  0  0  0  0
  7 38  1  0  0  0  0
  8 39  1  0  0  0  0
 16 40  1  0  0  0  0
 16 41  1  0  0  0  0
 16 42  1  0  0  0  0
 17 43  1  0  0  0  0
 17 44  1  0  0  0  0
 18 45  1  0  0  0  0
 18 46  1  0  0  0  0
 19 47  1  0  0  0  0
 19 48  1  0  0  0  0
 20 49  1  0  0  0  0
 23 50  1  0  0  0  0
 24 51  1  0  0  0  0
 24 52  1  0  0  0  0
M  CHG  1  23   1
M  END
> <OMEGA_C>
7ubkQPATAL0F5LTBmoTbQAvSpT9qFrLBIIebQNmkg0CDHbnBDK7gQLWvl0DTl7HBmrzNQFNQi7/K
TLDBNTCjQGpcnkA488HBMn3oQLABskDxerrB752jQE8GAj/V8KXBkdi5QJR1gEB6v7DB41O6QHXn
yj+wuarBP+qsQMgDVL9A2ajB6t3JQFPztUDmqMLBsL7KQG6AV0DmZp3BjS+DQCc/Y0Az2ZnBwHWx
QD2OQkA4dKfBC3C2QNn0e0DGforB+q+QQINC/b+wJ6XBw+WQQFUrDcDd/JjBcdxlQJyAWcDxbJbB
w6mvQG+g4UDPCNHBiztaQEQsZsADUYrBzKusQEJIcECo45XB9ciEQOYYTkAO/qPBWBU7QMo1a0Cb
DpTB4hnxQL5jTEBI15vBWYLTQAj40EDDFsvB5J67QFCGA0HdoNXBE+WjQAiXxUDMz9jB15STQLfV
dcDhpYXBFaYlQEz9lMDbmYjBW202QEwiH8CS5YXB0f/9QE1cdb6Nl7rBEcLtQO2SBkDFkrXBqHh8
QKfAYkA9tbjBqG74QOsalUCtWavBdxvVQHPfBsCdfbLB942LQFjyoECHOMjBBCQDQRZhw0AVCrvB
ViaLQEnpNT/hDqDBYUqZQLrXh0DPOIbBCjrCQFNRP0A8IofBjCDPQBzOlkAsl4nB5j1fQAVZ4r/n
qKfBZ+mbQGOXOcBID6nB+JexQBbSG8CPSpbB2FaFQNehpr/G45TBzuQmQGRrTcBND5rBV8KAQIsR
isAt25nBddeUQHAK50Cgf8vBM3RWQKrRRkA4uKjB67wCQK6VYEBinJfBdyQ9QNuTe0DPU4zBG67m
QCCQyr0f1bPB6Y/dQP3Inj+5SbHBhX6bQKHmg0CBGrnBkN3gQPeOl0Abo7HB4sPMQG1Ckb/Vzq/B
D8miQKBfn0A41cHBejboQF+4skDBZLrBboChQM5cAD82N6bBnTq6QCTpf0AX1bDBMKa6QOebxz9Y
iqrBSVypQM4QV7+WMqnBJVjJQAIKt0Cff8LB5wnLQGqtV0DQcZ3BJ3SDQKqDY0A4+ZnBt+mxQDma
QUBufafBHXW2QML+fkDapYrBnO+HQHjM9r+YDKfBBOyNQPRMMsAR1pzB1VdvQFuUCsAj7JLBIQOw
QAxi6UBseM/BiCldQIbKTsBKPIrBUNqsQPSLcUDTBJbBGzWFQHuHTUAbFaTBR2M7QBeAa0AFPJTB
yW3xQJxpTUCc15vBcxHTQBj80EDKG8vBlfGjQNIHBEHKXcjBElm9QIVn/ECJoNjBx3ogQHlKg8B0
wo3BIpE/QFBHJ8DYSoHB6sySQN79esAO0IfBy9QAQTcIq76Y5LjBW0/xQGL2AUAKgLTBKGF8QK1M
Y0CJtLjBXdj4QDCclECMdavBwALUQDVUCsAByrHBX+6KQLhrokDECcjBqegCQfxuxECo57rBJDWI
QALdOT/tm6DBGD6ZQKyoiUCVcobBETvCQDXpQkCDIYfBHxzPQGtqmECU14nBnhpRQDS4t7/jd6bB
9xCIQOchJ8D48a3BrU6AQEcwcsAvR57BeVuwQF40OMD9KpvBdZGMQCO3sb9Ih4/BF2gyQIk5278t
b5XBchqVQHat00AbINHB225XQEHpRUDs0qjBdjsDQGg6YEDXzZfBGhQ9QDeIfECdhozB8jDlQESB
l724wrTB3NzbQIgSoT9SFLLBZbabQLxkgkB/O7nBuh/gQAnCl0Ckh7HB2g3OQLXqj79VC7DBhumi
QETInUDK+sHB6ljnQAnkskCySbrBG0ykQOkY+j5ExqXBIee5QP4ef0At0rDBtdK6QB9Zxz+Fs6rB
bGutQKSxWb+DkqjBNubIQEWctkCshMLBg/PKQCuFVkBTdp3BxmyDQPRIZUDfFprBFdKxQJDLQEBi
hKfBNGS2QOifgEA1x4rBE2uRQMeH/r/flqTBYFSTQLl8DMDWaZjBYkRrQGU4WMBPfpXBDhGwQHZ2
5EBTENHBFDRiQJ0NY8CjVYnBz+OsQDrKckAfI5bBNyCFQMgYTEDnFaTBll87QGoXcECYaZTBkyfx
QJFOSkDaypvBUefSQEMu0kAa4crBaUSgQGlwx0DzIdjBDUmQQHKJ80A0n8rBoTCYQLwJb8B30YTB
C38wQFc8lMCGVIfBsH88QK+SHMAmBYXBrTX+QOdGlb4idrrBoQLuQArgA0Azq7XBCcl9QBO3XkCU
7rjBVOD3QNlNlUCrSKvB7E3VQH1mCcA8J7LBcniLQETun0A2TsjBxFICQe4jxUCntrrByA2MQFRL
Mz/Y2p/B5VSZQB/Ai0AOqobBPlzBQHEVRUCDH4fBTJ3PQB3/mEDSCIrBpSpgQDkH479C1abBhOSb
QLC6OsBQgajBp1q0QNIfG8CB+pXBdnKIQEhHpL80T5TBcJMrQGiOTMCL8pjBSQ+DQHOyicAD4ZjB
R1e9QNuI/0DamtXB/ipXQAf3QUBJvKjBhhwDQF95ZEA38JfBjjQ9QEDAgUDwyozBV4rnQCzVLb7z
oLPBZEbeQE0Alj9gMLHB672cQE5bgEC2TLnBxDvgQNJKl0AubLHBFonNQDP/mb8El6/BsgqjQJnX
nEDQ3cHBJLHmQMZns0BxCbrBkPKhQLFZ4T5nLabBMM+6QN+Je0Bi3LDBYSq7QLRFvz8fhqrBguap
QFweZ78cE6nBsTvIQFTwtkAbRsLBdzzLQBjWUkCVYZ3BA3+DQEzhYkB9O5rB5XeyQLpePUBugqfB
aPK1QJ4TgEABy4rBpaSIQI/l/r8ozabB/9GPQCOLNcCalJzBeE9pQFKZFMAcDpPBi6quQChz4kB/
PNHBUzNqQDF6VMCwn4nBKHGsQH5CYkBWqpXBMZ2FQJRqSUAGNaTBGX47QAZUeEDMDpXBCO7xQE4l
TUB345vBv2rRQC3I00CdcsrBds+gQPKswkAB0dfBxbCNQK8l8kBUS8vBhyxCQAc4j8CCdYzBxkVA
QCVHMcD1LYHBaQqeQGhjZsCot4bBhlkBQSA/0b5FnrjB4w3yQBTn+j8Ua7TBzqWAQFp5WEAXKbnB
Tv33QMYZlUDeK6vBheTUQGvODsC6fLHBfXyLQL7jnkD+KsjBvLYBQTGRxkBXV7rBM4aIQNJEKz9Z
nqDB+euXQIamg0CoSYbBSqHKQJBLUUBtvobBTW3GQHwjn0A3MovBmHlSQFRYwL8cFqbBLViIQCZq
K8CCrK3BQumGQIBOeMCJQ57B792xQHmGMsDbYJrBdMOBQK0Mrr/fUpDBMOQmQCKFC8AavpXBLF67
QIaP/ED5NdbBcoZYQOmEP0D17ajBBcADQPXOdEC19pjB8cc8QKKohUB1a43BlcfiQDTqSr4YRLTB
y4bZQCbkkz99QbLBT3CcQKOcgECTcrnB5CzgQOwdl0DWjrHBpb/NQCgLm78DdK7BVB2jQJfdnECZ
CsLBnOPmQB4fs0DjKLrB+UGmQE399T6ihaTBw3q6QLEFfEBJ/7DBKJW6QLvpwD+leqrBbWevQMxL
YL9Qg6bBq13IQF3PtkDAW8LBg1PLQAP8U0DLmJ3BRKaDQGCFZEB5TJrBxiWyQLdWPkB3pafBQcG2
QEoxgEBL6orBPLyVQLPC+79V5KDBVL2aQK34+r+ZgJTBh1d1QDCzOsAuy47BmfCsQKkT4kArvNDB
7N51QLp8i8DRUJPBhdusQGRgZUAi4ZXBtmCFQPFeSkCUQaTB8Rg8QIMjeEBV85TB8N3xQOEGS0Ab
GpzBce7QQKDF00D9dMrBeFGQQEgp90BvcMrBRIG7QLlH/UCGWtjB3I1HQPFGjcAfhpzBH89RQDpn
psBSFYzBZ66jQHi1mMCyPJXBRxb6QJeH7L5GSbrBRBHqQKHF9j/Jp7bBkSuAQMB6WUD7SrnBw+v3
QCaplEB3T6vBr9vUQEHoD8A7E7DBOdqLQKDTnkCPacjBDuUBQUMHxkApfLrBonWPQGISPj9PYJ7B
6M2YQLr1hEC5cobBvgrKQBG/TkA/9IbBYNrIQFJfnkDsHovBFWRnQEK26b/106LBFHygQL5gPMBM
7KPBU4K7QLOQEcD/fpLBxkyVQPH6b7/3kpHB/AiDQP5+PcC8QIbBx3U0QABZIMATso/B456dQCoj
xkCAedTB5LZXQCUGQEDw56jBzNYDQIyockDYs5jBHBs+QLXihUAhV43BrinjQF7mCr7qGLXBjLDb
QG3dmT+7I7LBPM+jQPmdcUBHZbrBpk7aQMvRnkBwGrDB4vPKQOqclb+NcrDBSWerQPwFlEBbJ8PB
E+bhQCvVuUCo3LjBMkykQOgY8D76q6XBtB27QFDse0Dkw7DB7EC7QAK7wj9NnKrB8pWrQHV/Xr8L
rqjB80TKQOn+tEAdW8LBZTrLQM4wVUCqQp3BKGKDQGCKZUAGGZrBPoGyQKe2PkDSY6fB3k+2QDs1
hUAt6orBBoOTQAVs/r/UFqPBjrupQJvwGMBqhJjBDGLXQDjVPMDaiZrBBVisQD496UBFSs7BFcfs
QBlPXMAFJpDBFdesQCNTc0DHFZbB84OFQICbSkD/DqTBPbU6QCr0ckAhkpTBCvXxQK2QT0B9zZvB
2JDRQBSZ0UBAlsrB6+iVQB7Q0UARiNXBi0WSQKJJ9EB3+cXBpnHwQGenGsCMD4nB9EEKQaKAesBZ
d5LBSlHVQIIljsBCrovBboD7QPLXvL7V8LrBZsHuQIHS/j/WnrXB6A6MQJWnP0C/BLvB41TsQBMS
o0DzzqjBEF3QQHFgDMCO0rLBhKqZQGzAj0DgfcrBYwb6QJd60kAzT7jBagGNQDyaMT8njJ/BeNWY
QIEtkEDE9obBXvDCQGkiUkCgrIbB00DOQCoBn0AeworBgZFlQJ7+0r/1UaHBCj2SQJo8N8CJaKjB
bRmsQFCJwL97VJPBWmqWQKdQSsCZg5TBRifVQKm+csCNK6DBQz/rQNb4CcDYDZ7BxuS3QKtNA0FR
MNLBUklYQHysP0DzvKjBVpoCQJ0GaEBgK5jBeR08QJHDg0Bc/4zB

> <OMEGA_E>
wOaRPaDJ2D1Am+c9GJYRPoD8MT7A8ps+

> <OMEGA_NBR>
    196963

$$$$
50168828
  -OEChem-04172616093D

 51 54  0     1  0  0  0  0  0999 V2000
    7.1532   -0.0481  -22.6531 C   0  0  0  0  0  0  0  0  0  0  0  0
    6.8820    1.2777  -22.2756 C   0  0  0  0  0  0  0  0  0  0  0  0
    4.8554    4.0738  -23.1279 C   0  0  0  0  0  0  0  0  0  0  0  0
    7.0088    4.7277  -22.1879 C   0  0  0  0  0  0  0  0  0  0  0  0
    6.4281   -1.1091  -22.0820 C   0  0  0  0  0  0  0  0  0  0  0  0
    5.0814    4.9151  -24.2311 C   0  0  0  0  0  0  0  0  0  0  0  0
    7.2372    5.5595  -23.2938 C   0  0  0  0  0  0  0  0  0  0  0  0
    5.1700    0.4826  -20.7294 C   0  0  0  0  0  0  0  0  0  0  0  0
    5.8062    3.9867  -22.0827 C   0  0  0  0  0  0  0  0  0  0  0  0
    5.8608    1.5613  -21.3365 C   0  0  0  0  0  0  0  0  0  0  0  0
    6.2781    5.6735  -24.3148 C   0  0  0  0  0  0  0  0  0  0  0  0
    5.4446   -0.8582  -21.1053 C   0  0  0  0  0  0  0  0  0  0  0  0
    6.3439    3.3586  -19.6620 C   0  0  0  0  0  0  0  0  0  0  0  0
    4.1063    3.5815  -19.2439 C   0  0  0  0  0  0  0  0  0  0  0  0
    4.0630   -3.8720  -17.4769 C   0  0  0  0  0  0  0  0  0  0  0  0
    2.8435   -2.9536  -17.4126 C   0  0  0  0  0  0  0  0  0  0  0  0
    3.6190   -3.1047  -18.7334 C   0  0  0  0  0  0  0  0  0  0  0  0
    5.5636    3.0110  -20.9208 C   0  0  1  0  0  0  0  0  0  0  0  0
    5.6947    4.0493  -17.3327 C   0  0  0  0  0  0  0  0  0  0  0  0
    4.4522   -1.8906  -19.1714 C   0  0  0  0  0  0  0  0  0  0  0  0
    5.4657    6.9571  -26.1791 C   0  0  0  0  0  0  0  0  0  0  0  0
    5.4004    3.8010  -18.7499 N   0  0  0  0  0  0  0  0  0  0  0  0
    4.1636    3.1725  -20.4888 N   0  3  0  0  0  0  0  0  0  0  0  0
    2.9252    3.7623  -18.5393 N   0  0  0  0  0  0  0  0  0  0  0  0
    7.5397    3.1832  -19.4517 O   0  0  0  0  0  0  0  0  0  0  0  0
    4.7442   -1.9411  -20.5902 O   0  0  0  0  0  0  0  0  0  0  0  0
    6.5705    6.5361  -25.3565 O   0  0  0  0  0  0  0  0  0  0  0  0
    5.7882    8.1445  -26.7478 F   0  0  0  0  0  0  0  0  0  0  0  0
    5.2364    6.0404  -27.1563 F   0  0  0  0  0  0  0  0  0  0  0  0
    7.9212   -0.2531  -23.3843 H   0  0  0  0  0  0  0  0  0  0  0  0
    7.4561    2.0858  -22.7044 H   0  0  0  0  0  0  0  0  0  0  0  0
    3.9488    3.4890  -23.0772 H   0  0  0  0  0  0  0  0  0  0  0  0
    7.7552    4.6516  -21.4111 H   0  0  0  0  0  0  0  0  0  0  0  0
    6.6267   -2.1236  -22.3945 H   0  0  0  0  0  0  0  0  0  0  0  0
    4.3431    4.9844  -25.0164 H   0  0  0  0  0  0  0  0  0  0  0  0
    8.1591    6.1178  -23.3615 H   0  0  0  0  0  0  0  0  0  0  0  0
    4.4263    0.6832  -19.9724 H   0  0  0  0  0  0  0  0  0  0  0  0
    4.9917   -3.5888  -16.9600 H   0  0  0  0  0  0  0  0  0  0  0  0
    3.9324   -4.9630  -17.4248 H   0  0  0  0  0  0  0  0  0  0  0  0
    1.8360   -3.3840  -17.3147 H   0  0  0  0  0  0  0  0  0  0  0  0
    2.8954   -2.0099  -16.8498 H   0  0  0  0  0  0  0  0  0  0  0  0
    3.1359   -3.6905  -19.5293 H   0  0  0  0  0  0  0  0  0  0  0  0
    4.7824    4.3926  -16.8229 H   0  0  0  0  0  0  0  0  0  0  0  0
    6.0490    3.1195  -16.8635 H   0  0  0  0  0  0  0  0  0  0  0  0
    6.4735    4.8216  -17.2499 H   0  0  0  0  0  0  0  0  0  0  0  0
    3.8890   -0.9712  -18.9532 H   0  0  0  0  0  0  0  0  0  0  0  0
    5.3982   -1.8830  -18.6102 H   0  0  0  0  0  0  0  0  0  0  0  0
    4.5721    7.0688  -25.5475 H   0  0  0  0  0  0  0  0  0  0  0  0
    3.3665    2.9946  -21.0659 H   0  0  0  0  0  0  0  0  0  0  0  0
    2.0468    3.5779  -18.9800 H   0  0  0  0  0  0  0  0  0  0  0  0
    2.9522    4.0771  -17.5905 H   0  0  0  0  0  0  0  0  0  0  0  0
  1  2  2  0  0  0  0
  1  5  1  0  0  0  0
  2 10  1  0  0  0  0
  3  6  2  0  0  0  0
  3  9  1  0  0  0  0
  4  7  1  0  0  0  0
  4  9  2  0  0  0  0
  5 12  2  0  0  0  0
  6 11  1  0  0  0  0
  7 11  2  0  0  0  0
  8 10  2  0  0  0  0
  8 12  1  0  0  0  0
  9 18  1  0  0  0  0
 10 18  1  0  0  0  0
 11 27  1  0  0  0  0
 12 26  1  0  0  0  0
 13 18  1  0  0  0  0
 13 22  1  0  0  0  0
 13 25  2  0  0  0  0
 14 22  1  0  0  0  0
 14 23  2  0  0  0  0
 14 24  1  0  0  0  0
 15 16  1  0  0  0  0
 15 17  1  0  0  0  0
 16 17  1  0  0  0  0
 17 20  1  0  0  0  0
 18 23  1  0  0  0  0
 19 22  1  0  0  0  0
 20 26  1  0  0  0  0
 21 27  1  0  0  0  0
 21 28  1  0  0  0  0
 21 29  1  0  0  0  0
  1 30  1  0  0  0  0
  2 31  1  0  0  0  0
  3 32  1  0  0  0  0
  4 33  1  0  0  0  0
  5 34  1  0  0  0  0
  6 35  1  0  0  0  0
  7 36  1  0  0  0  0
  8 37  1  0  0  0  0
 15 38  1  0  0  0  0
 15 39  1  0  0  0  0
 16 40  1  0  0  0  0
 16 41  1  0  0  0  0
 17 42  1  0  0  0  0
 19 43  1  0  0  0  0
 19 44  1  0  0  0  0
 19 45  1  0  0  0  0
 20 46  1  0  0  0  0
 20 47  1  0  0  0  0
 21 48  1  0  0  0  0
 23 49  1  0  0  0  0
 24 50  1  0  0  0  0
 24 51  1  0  0  0  0
M  CHG  1  23   1
M  END
> <OMEGA_C>
WufkQMDlRL2NObXBqjncQKCLoz96NLLBP1+bQJBcgkDwBbnBAEjgQGBJl0DngLHBAbPNQK71jb/t
p7DBd5qiQFJInUBb2cHBxJbnQA3nsUDAWbrBpnClQLgV9z7j1aXBPsy5QLsmf0BiqbDB0Iu7QIHX
xz8ZsarB+OXIQK+NtUChhMLBTzquQFGzW7+116jBaAHLQFLzVkDLS53BiGaDQCw3ZUB185nBLwSC
QAzPd8DF0IvBG/w1QLQHPcAPTYvBWJ5nQHezRsDn3ZXBRQmyQMC0QEDhXafB4zq2QKSTgUBWqYrB
L3iOQKz98b8CX5nBSeeuQNqg3kDNbtHBH9CsQIlDc0C4/5XB2DuFQCYKS0An6aPBhDY7QK3JcEBj
UJTB2UTxQC66S0ARnZvBPtCXQGh0+L/RuKTBMEHSQCIo0UAF2srBCDm5QMtPAkFn+9XB3ZCnQOlK
wUAmQNnBI3r9QBWZgb4NE7vBLJjuQHZ9BUCxorXBp7l8QINLX0AunrjBUCr4QB3alEDdSavBNQ7U
QOPoB8D9J7PBDvuKQEGAn0CUIcjB2IsCQQjFw0Bz5LrBlqSNQMroLj94x5/BZLyfQI+vZcABrofB
q6t7QLzQnsAHZovBfAHrPzaUWMBvhIrB2005QE2iAMBqzIbBCrNIQHYwbMD0O5zBcQmZQMePjEBF
lYbBGJHBQI2mR0CL6IbBLifPQNxKmkDM/4nBFuZ4QKWdeL83oJfBK76sQPkE8b+s4ZTBeU6SQAA0
4kBPYczBzHRXQPWmP0AQh6jB+P0CQJb7ZEAi15fB5vA8QL93gkBOuYzB6tLeQA6NX75+ubPBVtvY
QDY7lD+NwLHBxKydQNrygUA7hLnBaCriQL2dl0AV27HBmpHFQNq5lr+uVq7BLJ2kQBM+nUCpQ8LB
jDXpQJCVskC2pbrBbBOhQGNKHD/136TBTOq7QOkVf0ArGrHBQhq5QJyvyj9ua6rBCW7KQK0mtkCy
y8LBCommQLZMQb+RyKbBha3LQD2kV0Cgc53BmraDQOFGXkDc8pnBublGQOr2RMA+GI7BiY11QLh9
jcB2F4/B7vyQQAtOSMAepZLBg8GyQJfpQ0DKnafBqh62QDXCdECJWIrBzk2YQH7rOsBDt57BG1eu
QOru5ECgMtDBg+esQLvbXkDphZXBJRWGQG1JVEClWKTBSy07QGWnY0BWUJTBWmryQOMtUkDOB5zB
6CyKQHjPy7+XhKHBIATTQAgd0kBfD8vBcam3QF0hB0GagdLBAIylQAxkz0AiYNnBDNP2QPdgCr+2
YbnB73rsQLh58T8v1LXBqQuBQCtDXUB7M7nBEwb6QBk0lUBQoqvBCuPJQMGvDsCP+K/BziONQIhA
n0DklcjBykMDQXnDxEAjKbvBb96JQK8Lbj8gAZ/B/GoQQMdcNsB7Y5PBriU7QPfqKMBtJ4bBQryF
QHVNnsCj3IfB0r1gQF0GpcCxGJXBYHWqQDOAMMCIWY3B9RaYQG01dkApwoXBrLTLQOR1RECR5obB
sXzFQEsEmkD7/onBxom6QDneQcDXkaDBUeCFQCuSasAORaPBvteSQHZH40AtuMrBy1daQNxSV0B0
WqnBo1MDQA7mX0AwMZjBPwk8QHlJa0AkX4zB/dHjQAD8JLtXBbbB47nZQLRSqD8MF7PBeLuaQIsw
g0C467jBzJ3fQITQl0AQXLHB8XbQQLW1ir8JurDB7naiQPidnUBxzsHByEznQN4nskD3PbrBUSOo
QMwn8j4HlqXB0vi4QPJRgECiibDB9ha7QKL5yD8U/KrBp+nIQCC0tUBQfcLBOhGzQFDfXL/tX6jB
C6DKQFTDVUDdV53BxDSDQF7iZUBL8ZnBQF5SQCjQS8DH24nBeoFHQJDEf8CVPJTBqV6KQB7BRMBL
1JLBHWWxQNadQEAyaafBHIe2QPWAgkCYyIrBvkOMQBdk4r+DPZnBx5WwQIJg4UBtetHB7cSsQPjF
c0D9EpbB3bGEQDxvSUD80KPBQko7QKyKc0AbSJTBl+HwQJAFSkC1tJvBQQujQJ80/r9ILaPBJzLT
QNyn0ED39MrBwVGhQLbAwkDXMtjBbHWQQBCD8UAuTsvBX4n6QEANPr6HXbzBuWzpQF8BCUCiCrfB
uuV6QFTVYUCSfbjByFP3QKxslUAtGqvBFTTYQG8GBsCfFbPBgBGLQCegn0BKJcjBG3ECQdfnw0Au
wLrBECyRQNxCJz8CS5/B2VcnQJ3KFcCSJojBP9JiQDmAbMBCV4LBJyZQQMDQosCPI5TBwasUQOPr
bsDf8pnByzmpQCeDZMC3WpHB7o2ZQIIcjkANt4bBOJnBQATFSUDF6obBaMDPQHn3mkDnQorBRhJX
QCXmtr9oAJvBKPmcQAEugL88hJTBVeK9QB6R+0DfU9bBPRpWQDCnO0DuR6jBDL0CQCeRZ0Aat5fB
AK89QGauhEBYxIzBifDgQAAHurxbc7bBKCbWQKrxpT/8v7PBN2GaQGCPg0Du97jBz7TfQOIrl0Dv
c7HBjRjRQI8RjL+2XrDBJ0+iQOMZnkBt08HBvIvnQK2ssUBwSbrBjlSrQLGh8j4qy6TBBr24QMg0
gEB7nLDBZoi6QMjQxz+/AavB9fvIQKHDtUDtdsLBO3O2QA69XL/aeqfBdn3KQKppVUCXdZ3Boi6D
QAZhZkDYA5rBM+0/QJbRM8AI/InBu9pcQJ4qgsBl/o/B82mHQCx1MMCdRZHBDhKxQKBEQEC4f6fB
cc62QBmcgkDD54rB0ViDQLFB/7+U55vBiECvQBqu4EBmFNHBndWsQKYWdEAHMJbBUnaEQLYSSUDo
2qPBSXo7QLB/dEDUUpTB8qzwQCq4SEC005vBrNKsQAWQ+r/sF6HB2MfSQCrx0ED02crB09uTQNJQ
90ChxsrBxsW+QLLq+kAgytjBdX31QHmrW769Ob3BmPriQKt1B0DoXbjBv895QDcxY0CNibjBNIv3
QM86lECLPavB8m7ZQP7WBsDAiLLBPeyKQEZ+oEC5KMjBd6kCQfQWw0BAz7rBuRqXQC7QKT8k9J3B
nrEEQNLaEsANXIzBmZhHQILhL8AwQIHB4kZ5QEATncAekovB5182QOiPjsD6rZbB/7KmQNYjLcCW
Qo3Brv+ZQA+IjkDu0YbBkZ3BQG7KSUDPCYfBF0nQQJnQmkA+aIrBcVtYQKleIMBHHaHBQK9wQI6+
d7+JV5rBRYSeQHdaxUC7uNTBRHhVQNO6OkD3QqjBaskCQFc2aEAftJfB6y0+QIF7hUAb14zBfB3i
QIp6hr7iA7PBMOjaQIiKjj9bVrHBsHueQFfCfkDYwLnBRr3hQPIjl0D7z7HBlu3IQCG+nL/7pK3B
OLOkQKaCm0DzWsLBxPnnQC40s0APcLrBOpehQHRUED+W3qTBeEy8QFOAe0CwQLHBPgK6QNm+xD/D
UarBzkbJQG1ftkDvocLBgDuoQN7tTb95jKbB1tfLQLQSV0CInp3BdAKEQArxY0BOW5rBml+IQF95
h8CYDIzBBy9dQEpDO8DOuovBIpN0QPVFZMDSgpbBJA+zQHQRQUAot6fBahq2QFe8d0A+rorBZtSc
QAHgOcAFiZ3BzmusQMHD30ArMtHBEkKtQJ3BbkAZKJbBREyGQCd+UUD7kKTBidQ7QEn/akBPu5TB
agbyQMz/SkBO6ZvButmLQIIK1b+Nj6HBcqLQQBse1EBeocrBZouNQCPZ8kAvKsvBSt65QMXF+0Bs
wNjBTgP7QOsvFb+7brjBo3juQO0Z7D9MZ7XB9LeCQB2dVUCunrnB75T5QALplEAplavBx5TOQFbD
EcCy8a7BdpyNQI25nEDrxsjBXUsCQSKJxkC0ybrBu0OJQLHDYT/qSJ/BkluqQFd8h8CjwYnBDONy
QFGopcB7fInBaWUaQDmzO8CS8ojBgDl8QIy2/r+6N4nBlt8/QHnYgcB305rBUq+YQHCFhUCHfobB
5VjBQBArOkA4eIfBeevOQHBclECbeYnBSaO5QEtOLcCQupjBIAulQH9UZMB5P6TBCpufQEC6wkA/
ANXB8nRaQCDoTkAZh6nByQMEQCTPYUBKeZjBz7Y8QLhFeUAb74zBvRjjQA+ngb6q27LBEmXbQO6U
jz/zPbHBi3WeQOstf0A5vbnBGD/hQELwl0BktbHBlcDJQPxCnL9wmK3Bi5OkQC3Tm0BNU8LBHoDn
QBT0s0DTWrrB1yahQLZVDz9qFKXB8Bq8QHkwfEAVNrHBJeG5QML+xD9VY6rBjRTJQCjctkAAosLB
SVSoQKDQTr89sKbBS8TLQLaBVkAhnJ3BrfODQHDEY0AJU5rBsPyHQNHZhsCS+4vBL0ZcQN0MOsBh
1ovBKKt0QKreY8DyiJbB+uiyQBYkQUBrt6fBdhy2QKGldkAapIrBbROdQISdOcA4hZ3BQRuuQB5G
4UD4ndHBNzutQLTfbUBDHpbBDC2GQBdsUUDCiaTBkcQ7QJKfa0CBtJTB3vnxQJVqSkCB8JvBPdyL
QOyO1r/Xz6HBJDzRQGtn1EAZtcrByeGiQK0DwUCIXtjB96uLQLd77kBUzMvBaoD8QHJxEb9uJbjB
EhDvQNSf7T+TO7XBM9mCQHWdVUDspLnB49z4QEkclkDHaqvBItjPQBBxEcDV1a7BimuNQP4CnUB3
u8jBOf0BQSh/x0BPqLrBDCqIQJ6AXz+EqZ/BMN6pQE26hsCsmInBtPZxQPLzpMA9Y4nBoT4ZQOBb
OsC9JYnBTQR7QC7R+78tW4nBKWRAQBTZgcA54prBuK+YQHTchEDfcIbB/HDBQGUQOUAgdIfBv9/O
QOHck0DFbInBbXm5QIaOK8B1oJjBqgKmQFffZMAXGKTBun65QHxs/EC7cNbBjiFaQDDSTkCHfKnB
eN8DQGkkY0BqdJjBv8Q8QMTEeUBp54zB2ojkQOhae74KS7TBoc/cQMHHjD8xwLHBtGmeQJqIeEAx
jrnBZCzjQGpIkkBgJLLBudHMQAXbob81Ta/BBpyjQJVTmUCs/sHBhJzoQG3urkDEsbrB5O2lQCgb
0j68/qTB4dO8QJiudEBIM7HBcI28QBvhuD9ITarBAybIQCnvs0DoZsLBSaKtQPp9dL8ajKfBSRXM
QFaLVECwg53B2mSEQL6NakDH55rB7gRwQMA3Z8AYDovBOA8dQDqOMsDStIrBqI5NQAJsPcATSpXB
qO+zQBB+OkB6kKfBS9i1QK+NhkBBfovBBOd5QCmT2r/RvJnB3HjGQNNK00DBEtTBVI+tQKYWd0CH
uZbBXN2GQEqwR0DibaTBc3Q8QMIpf0BM2pXB+BvyQAFbSUCaiJvBsvSXQH5WAcA00aLBkunIQDFa
2EDPnsjBT7ejQJ3ovEBrbtfB0pnDQFpX+0DTMtjBucj8QIaG/77yGrrBupXvQPom8D+wf7XBiQGD
QPlvTkBdb7nBm0D8QHN9jkABRqzB+5HSQNXpEsBAb7HBA6aLQAtlm0AYM8jB1+kCQV0zwUAUXLvB
+ZaOQJJmKT/U8p7BF0OVQNtgTsBrRYfB4JVtQPaVlsAgHYrBrWa+P2bJUsDqg4nBpCMcQKv85781
rIbBF4IwQOqsaMAUNZvBo46YQLqmk0Bu34fBv7C/QPhSU0ArHIfBeoHPQI2XnkDyFIvBC8NIQDtd
fL+aQpzBpMSQQIZ7ob9vZpPBA/HjQBqww0BJ5NbBqUlbQHImOEAt9KjBHqoEQPt+c0DGfZnB7Do9
QIzXjECUko7B

> <OMEGA_E>
cGZDPhjCXT6Q72Q+0AFlPmAadD5Q5nQ+hJ+ePg==

> <OMEGA_NBR>
    203288

$$$$
50168829
  -OEChem-04172616093D

 44 46  0     1  0  0  0  0  0999 V2000
    7.2405   -0.1090  -22.5560 C   0  0  0  0  0  0  0  0  0  0  0  0
    6.8860    1.2021  -22.2228 C   0  0  0  0  0  0  0  0  0  0  0  0
    4.8968    3.9617  -23.1965 C   0  0  0  0  0  0  0  0  0  0  0  0
    6.9387    4.7644  -22.1396 C   0  0  0  0  0  0  0  0  0  0  0  0
    6.5678   -1.1909  -21.9723 C   0  0  0  0  0  0  0  0  0  0  0  0
    5.1090    4.8486  -24.2738 C   0  0  0  0  0  0  0  0  0  0  0  0
    7.1522    5.6417  -23.2156 C   0  0  0  0  0  0  0  0  0  0  0  0
    5.1789    0.3430  -20.6745 C   0  0  0  0  0  0  0  0  0  0  0  0
    5.7974    3.9194  -22.1038 C   0  0  0  0  0  0  0  0  0  0  0  0
    5.8413    1.4567  -21.3047 C   0  0  0  0  0  0  0  0  0  0  0  0
    6.2406    5.7068  -24.2826 C   0  0  0  0  0  0  0  0  0  0  0  0
    5.5406   -0.9963  -21.0291 C   0  0  0  0  0  0  0  0  0  0  0  0
    6.3411    3.2947  -19.6873 C   0  0  0  0  0  0  0  0  0  0  0  0
    4.1157    3.6306  -19.2926 C   0  0  0  0  0  0  0  0  0  0  0  0
    5.5462    2.9284  -20.9316 C   0  0  1  0  0  0  0  0  0  0  0  0
    5.7223    4.1224  -17.3965 C   0  0  0  0  0  0  0  0  0  0  0  0
    5.4486    6.9376  -26.2031 C   0  0  0  0  0  0  0  0  0  0  0  0
    4.2726   -2.2981  -19.3302 C   0  0  0  0  0  0  0  0  0  0  0  0
    5.4167    3.8104  -18.7988 N   0  0  0  0  0  0  0  0  0  0  0  0
    4.1555    3.1015  -20.4934 N   0  3  0  0  0  0  0  0  0  0  0  0
    2.9438    3.9426  -18.6210 N   0  0  0  0  0  0  0  0  0  0  0  0
    7.5427    3.1410  -19.4920 O   0  0  0  0  0  0  0  0  0  0  0  0
    6.5171    6.6219  -25.2880 O   0  0  0  0  0  0  0  0  0  0  0  0
    4.8864   -2.1734  -20.6398 O   0  0  0  0  0  0  0  0  0  0  0  0
    5.6364    8.2006  -26.6607 F   0  0  0  0  0  0  0  0  0  0  0  0
    5.4702    6.0745  -27.2527 F   0  0  0  0  0  0  0  0  0  0  0  0
    3.7099   -3.5414  -19.2796 F   0  0  0  0  0  0  0  0  0  0  0  0
    5.1853   -2.2378  -18.3246 F   0  0  0  0  0  0  0  0  0  0  0  0
    8.0350   -0.2883  -23.2653 H   0  0  0  0  0  0  0  0  0  0  0  0
    7.4161    2.0291  -22.6716 H   0  0  0  0  0  0  0  0  0  0  0  0
    4.0376    3.3074  -23.2054 H   0  0  0  0  0  0  0  0  0  0  0  0
    7.6516    4.7318  -21.3290 H   0  0  0  0  0  0  0  0  0  0  0  0
    6.8435   -2.1968  -22.2523 H   0  0  0  0  0  0  0  0  0  0  0  0
    4.4079    4.8747  -25.0949 H   0  0  0  0  0  0  0  0  0  0  0  0
    8.0277    6.2739  -23.2227 H   0  0  0  0  0  0  0  0  0  0  0  0
    4.4108    0.5181  -19.9358 H   0  0  0  0  0  0  0  0  0  0  0  0
    4.8221    4.5185  -16.9038 H   0  0  0  0  0  0  0  0  0  0  0  0
    6.0500    3.2078  -16.8805 H   0  0  0  0  0  0  0  0  0  0  0  0
    6.5240    4.8743  -17.3546 H   0  0  0  0  0  0  0  0  0  0  0  0
    4.4885    6.8645  -25.6711 H   0  0  0  0  0  0  0  0  0  0  0  0
    3.5058   -1.5187  -19.2095 H   0  0  0  0  0  0  0  0  0  0  0  0
    3.3519    2.8515  -21.0335 H   0  0  0  0  0  0  0  0  0  0  0  0
    2.0586    3.7656  -19.0512 H   0  0  0  0  0  0  0  0  0  0  0  0
    2.9836    4.3447  -17.7062 H   0  0  0  0  0  0  0  0  0  0  0  0
  1  2  2  0  0  0  0
  1  5  1  0  0  0  0
  2 10  1  0  0  0  0
  3  6  2  0  0  0  0
  3  9  1  0  0  0  0
  4  7  1  0  0  0  0
  4  9  2  0  0  0  0
  5 12  2  0  0  0  0
  6 11  1  0  0  0  0
  7 11  2  0  0  0  0
  8 10  2  0  0  0  0
  8 12  1  0  0  0  0
  9 15  1  0  0  0  0
 10 15  1  0  0  0  0
 11 23  1  0  0  0  0
 12 24  1  0  0  0  0
 13 15  1  0  0  0  0
 13 19  1  0  0  0  0
 13 22  2  0  0  0  0
 14 19  1  0  0  0  0
 14 20  2  0  0  0  0
 14 21  1  0  0  0  0
 15 20  1  0  0  0  0
 16 19  1  0  0  0  0
 17 23  1  0  0  0  0
 17 25  1  0  0  0  0
 17 26  1  0  0  0  0
 18 24  1  0  0  0  0
 18 27  1  0  0  0  0
 18 28  1  0  0  0  0
  1 29  1  0  0  0  0
  2 30  1  0  0  0  0
  3 31  1  0  0  0  0
  4 32  1  0  0  0  0
  5 33  1  0  0  0  0
  6 34  1  0  0  0  0
  7 35  1  0  0  0  0
  8 36  1  0  0  0  0
 16 37  1  0  0  0  0
 16 38  1  0  0  0  0
 16 39  1  0  0  0  0
 17 40  1  0  0  0  0
 18 41  1  0  0  0  0
 20 42  1  0  0  0  0
 21 43  1  0  0  0  0
 21 44  1  0  0  0  0
M  CHG  1  20   1
M  END
> <OMEGA_C>
XrLnQMxG3729crTBc1rcQHXdmT8/yLHBibKcQN+LfUB8krnBHAreQJ91mEDwHbHBUyvSQFBumL9C
x6/B2HyjQI8nm0DFMMLBpt7kQKiItECRubnBj7mlQMearz5YZaXBTYS5QFLXekCY1LDBieu6QNl0
uj8BcKrBLbPHQP+dtkDeQsLBa0yxQMYPf7+AO6jBYOrKQMfcUkCff53B8LODQIlbaEBTV5rBrXqx
QHNqO0Dwc6fBDh23QFHqg0D1K4vB61quQJcA3kDpn9HBJrmIQIETE8BJpJrBo1WtQJndc0DjY5bB
E/qEQMF+RkBz8qPB6mY8QDNUfEDE95TB7V3xQAcGSUCO75vBP4zQQH7m00DaTcrBfV2cQKkYC8BX
HqXBmV20QNY1A0EVSdXBfQuvQJBiwkCdBdrBpW5tQB2nYsCNPJrBT+6lQHM3D8CymJLBbo8AQeqZ
k75MH7rBj1DtQIXdAUBYX7XBsTOBQLGsU0CYpLnBKtr0QNJql0DGoarBz/3aQC+ZDMCqBLLBTg2N
QNr9m0BRwsjBp3EAQfrDyEAnyLnBESWNQCOlBD91fJ/Bk06aQMiXkEARO4fB0JnBQI1MTUBWC4fB
/cTQQF36m0Ak1orBLaKPQCyq20B9Xs3BWV9gQDdjwr8lrZnB/oVWQK5/NkCrRKjB/r8DQEMAcUDq
aJjBtPM+QAQIi0Bkpo3Be/XiQHxUsL7oDLLB8LLaQPUphD/nwrDBuhidQJn0gECc1LnBOaXhQNB6
lUATHbLB0bPJQEmup78Ws6zB2IijQL5VnkBdPcLBax7oQAOTskAPhrrB6R2gQDxl9T48l6TBi5K7
QMWjeUDLgLHB9/q4QMtVuz+BD6rBoxzJQHnat0DojsLBOr+nQMvpZ78n86XBnHvLQNwKV0Dk7Z3B
oSWEQKj8ZEBzdZrBLiSyQO4jPkCm3afBMWq3QJX/gUANUovBPg6uQO9y40DG/tDBGFyUQEE8LsD1
qZnBo5etQHVSdEDxopbBf5uFQJSmTkApkaTBgGg9QA7Ia0DHkJTBaN3xQEYHTUBySpzBkYbRQIwk
1kCWZcrBzfuIQAnw6L9xYaLBVqa2QNR9BUFB7tTBe/OoQA3Kx0AiStnBPnB9QKcJGMBJmJDBtuiH
QL4+f8BzPpzB4dL8QPxRKr9tLLfBIS3uQPUr4T8E57TBGZ2AQHvFWkCWvLnBRu/5QLzSkUAhCazB
ImPQQG0bF8Bjxq3BM8eLQHZxoUBrd8jBJaICQe8axUCv0brB89mGQI/DTD9bSJ/BJ4CaQFd0jUD+
MofBHmHCQOksSEDSk4fB0bzQQNlSmkA+tIrBfeCQQB1L5EDcE8zBqB+3QAuGK8BDU5jBbDlYQL6K
SUABXKnBywEFQM5JX0BGApjB3M4/QJ0sfUBa34zBMFTnQJiOL75uzLPB7hndQG+wlD/SZ7HBs7Gb
QIoDgUB8UbnB0S3gQMYflkAUqLHBmLLPQHjXnL86PK/BmFaiQFqGnUAq5sHBH87mQMV2skCEObrB
7q+jQLAExD4YjqXBQya6QOPRekDN+LDBtfe6QDNEuz94YqrBK/jHQD7stkDqVcLBeaetQNJveL+n
GKjBZyrLQLlFVEDGkp3BE8ODQIbkZkAPWprB2u6xQAU+PECqjKfBntS2QJowgkC6E4vBh3StQPTO
4EAPL9HB2BSOQLnXJsAGNJvB7UetQCjsckD/XpbBLVKFQOPxR0CCGaTBAC48QDn9d0By5ZTB+ZHx
QNmDSkC48JvBZcHQQCPv00CXc8rBO4aRQJvpAcBw/qXBKOGPQHzH9kBiYcvBxcG8QGHM+kCQ/NjB
jnGwQLvVGMC+x5TBQ/1TQKBOCsDWRpbByLwAQUi/x77FK7nBYm3vQKJA+z9n87TBfBp+QAdjW0Dk
GrnBQU74QCcak0BHhKvB/b3XQGa5D8BpOrHBM7KKQBAPoEBNK8jBn/UBQegHxUArlbrBiVqKQPUt
GT/P75/BnNiZQBkTjkBXEIfBj5fBQOwbSUADKofBMTjQQA96mkCwiorBoteeQDUXxEDzudTBQN2K
QEdobMAbSpzBX2JXQG4yOkA3kqjBJrsDQKG2bECJZJjBR0k+QEHMh0AMd43BQD7hQCKpv77iErLB
a9zZQCVIgT/X17DB6ySeQGAIf0DeCbrBJtjgQMwol0AY47HBugjIQI8+qb8de6zBRFGkQO/gnEC2
d8LBDhPnQLIqtEDMUbrBdlqgQEeE/z69RKTBgeS7QJ6heUDtg7HBz/e4QJFuuz9W/KnBPtbIQJX3
t0CrlcLBLAWnQOjGY79zi6XBNbrLQBkiV0D96p3BGE+EQKWuZEARgJrBSYCyQG5jPkDe3qfB8VW3
QP8/gUDrRIvBAFeuQEOH5kCz29DBxLCUQPamMsCj8pnBbrKtQAapc0BOnJbBPvWFQBx1T0AupKTB
mnI9QJh6akAUppTBlibyQBqMTUCtTJzBVpLRQH8o1kAne8rBUdqHQEfC4b9akaHB29yhQPM+yUAK
RNjBHKGMQDtl8kCincrBBCWBQIIXJMC+WZDB6eiGQFY5gMDddZ3B8mP6QL/3Nr99VrfBYVntQCRn
3D9RJLXBvG6CQIi7VUBMFbrB9Xb4QL/dlEApm6vB7AfOQJwwGMCig63BlSuNQKLInkCg3cjB9b4B
QdrTx0DBdLrBn+aHQMTfVj+ozZ7BOFSaQHl0jEA2JYfBFVfCQC50RkAal4fBGJPQQHugmUAakorB
xye6QOeGAUGFFdXBy7W3QIHzMcD8D5nBFDFZQG1tS0BYfqnBbkIFQFcZXkACJ5jB0Gw/QAgKe0DX
7IzB1QLbQPB5vr5MzbPBhhHTQOWDgT/pprLBUFieQBXlfkC7FrrB8rfgQL53l0DxybHB0ynKQOjh
pr/lWqzBHOqkQDRunEB0jsLBgzvnQEZOtEClPLrBC/unQE90Bz9v4aLBsrW7QFNgekCufLHBNqS4
QCW9vD8LPqrB+0HJQAKst0CpkcLBnvewQEPeWL+ZrqPB0pjLQFOVVkCL953B7zeEQP8+ZUDJjZrB
a1OyQFKOPkCM9afBaFm3QHocgkATYYvBZzetQPTX40DbwdDBrm6QQJd+NsC9ZJvBEqytQKd/dEDQ
tJbBF7+FQIVKTkBMpaTBPG49QA32a0AlrpTBT9/xQMBDS0COTZzBak/RQM7S1UDNccrB3HWoQDoV
zr/5lJrBqEeOQDTx9EC8Y8rB1ue6QE5AAUFEodfBZ3KAQI+1RsAKbJHBaH9dQGfXMcAtPaLBQCDu
QB9eOb8abbrB6SbhQIGE2z9HL7jB2aiCQM2GVUCdKLrBnBv4QCVAlUDNc6vBYorQQPrzFsCbTK3B
mTmOQMXvnUAREMnBhscBQewZyECcVbrB572TQKhFYD9Zc5zBdnOaQKXVjUBLTIfBFAHCQGZLSEBk
m4fBoNrQQCM9mkAUv4rBb2SgQKZYyEABONXB1lGmQJEPasA81Z3BZntYQO9PSEA9a6nBMCUFQB3u
XkBAH5jBm6I/QHTVfUDkAI3BEMjZQKZSHr+eZbHBcIzUQEUESj//I7HBJIyfQM9GeUB4VrrBLBri
QGuVlEDyJbLBfCTEQLReur+x+KnBKgukQKYenECNWMLBtI7mQPfds0BZIbrBUFWkQOsOBT8EAqLB
4Mu9QBe6ckAZ7LHBvNO4QI6Arz/2gqnBUFnHQD+9uED+IMLBQlCpQMa/YL9iEaLBUKPMQOl5VEBP
I57BbAaFQMkMZ0DaLZvBNO+zQFegOUDbHajBQtW2QBKCgEA/movBMvGqQFZv40D1qNDBPiuUQLG1
QMAITJnBwj+uQEXbckCGBJfBwkuHQN01TUCPJKXBxeM9QKluckCPqpXBWs7yQOuKSUDRSpzBbITN
QE3E2UChZMnByG6TQKiPx7/E65nBzEeIQOtw8kAIPsvBVpO4QLwhAUHqf9fB+lK7QIslX8AUgJbB
uchwQOrkV8C2YZHBDonuQNbeh7+/U7fBU6blQHL2tD+DvrbBC8mEQISZTUBynrrBcJj6QJA0kUCP
HKzB/hrIQM/IIcADWKrBNpOMQMR4nkA3qcjBMikBQWhyyEBoH7rBwAeQQKL4dj9z/ZvBTbyZQMSZ
jEAmrofBMXnAQBhJREBG3IfBabvQQMYUmEAmt4rBfXKiQIBExkDnGtXBEf2JQAGWW8CjBaHBe2dc
QAqMR0BrDqrB/w0GQC/AZkAaS5nBUsw+QE4pg0AyEI7BcDLgQPDi5r48DbLBVmrdQNwjcT+4LLDB
bqKnQImeckChz7nBZBfjQMR/nEBRuLDB9MbBQHH3q7+hkq3Byq6pQEpHl0CGCMLBJq/lQOKFukDr
N7nBCiieQBw0DD/QO6XBzhPDQKsveEDU5bDB1Nm7QGrHuj8azqnB/NHHQHhWuEBY0cHBJCKgQL7c
Vr8UH6fBVvHNQA8pVEBI25zBUEKFQJfuY0Ae+prB6A24QFdXPkD8W6fB9GqxQO0saEAHHIrBuLbh
QCLB90Cv4srBVDuFQPXrP8AoWqDB9PGsQKfNZ0DLypXB6O2KQIOzU0BfIKXBB2w6QG9ybkBhYZbB
+CD0QA/WTUC0v5rBQCHFQDIr1ECeY8rBm618QEi0zL+E+aLBVG7lQPcIAUHHYdXBjLTQQPfGDEEi
icXB9Y1aQEC0UsB0h5fBowNvQIljc8CbbqjBCcv5QGfsVr9c9LbBKeL0QI36zT+cmbPBxauQQHQY
P0CTRbrBLV/5QAs9nkAnIarB0D/EQOzeGcAvE6/Bp6+TQJv2lEAPrMjBqyz+QCvo0kDRKrnBoCeF
QPG2bj/UH6DBr6ySQH7HeUCCbobB/e66QPsQKEALXIfB1gLKQBV6i0CIxofBjXcAQdDB7kD/f8fB
n2ynQHmLSsDkvJ7Bq5NnQD6BVUC5parBxsUFQNiraUC045rBaVE1QPvNekCRjo7B

> <OMEGA_E>
aOSMPuz8jD4obZk+cJOaPgiOnD6obtU+jN7uPg==

> <OMEGA_NBR>
    208994

$$$$
50168802
  -OEChem-04172616093D

 50 52  0     1  0  0  0  0  0999 V2000
    7.1542   -0.0358  -22.7052 C   0  0  0  0  0  0  0  0  0  0  0  0
    6.8208    1.2805  -22.3557 C   0  0  0  0  0  0  0  0  0  0  0  0
    4.8388    4.0764  -23.1369 C   0  0  0  0  0  0  0  0  0  0  0  0
    6.9848    4.7263  -22.1791 C   0  0  0  0  0  0  0  0  0  0  0  0
    6.5468   -1.1164  -22.0467 C   0  0  0  0  0  0  0  0  0  0  0  0
    5.0723    4.9281  -24.2326 C   0  0  0  0  0  0  0  0  0  0  0  0
    7.2206    5.5670  -23.2763 C   0  0  0  0  0  0  0  0  0  0  0  0
    5.2541    0.4378  -20.6790 C   0  0  0  0  0  0  0  0  0  0  0  0
    5.7823    3.9807  -22.0862 C   0  0  0  0  0  0  0  0  0  0  0  0
    5.8489    1.5370  -21.3580 C   0  0  0  0  0  0  0  0  0  0  0  0
    6.2689    5.6891  -24.3023 C   0  0  0  0  0  0  0  0  0  0  0  0
    5.6028   -0.9000  -21.0247 C   0  0  0  0  0  0  0  0  0  0  0  0
    6.3323    3.3325  -19.6829 C   0  0  0  0  0  0  0  0  0  0  0  0
    4.1033    3.5970  -19.2602 C   0  0  0  0  0  0  0  0  0  0  0  0
    5.5421    2.9849  -20.9355 C   0  0  1  0  0  0  0  0  0  0  0  0
    5.7123    4.1141  -17.3772 C   0  0  0  0  0  0  0  0  0  0  0  0
    3.9908   -3.2077  -18.5746 C   0  0  0  0  0  0  0  0  0  0  0  0
    4.2023   -1.8512  -19.2806 C   0  0  0  0  0  0  0  0  0  0  0  0
    5.4751    6.9777  -26.1724 C   0  0  0  0  0  0  0  0  0  0  0  0
    3.1927   -3.0455  -17.2611 C   0  0  0  0  0  0  0  0  0  0  0  0
    5.4031    3.8240  -18.7835 N   0  0  0  0  0  0  0  0  0  0  0  0
    4.1469    3.1293  -20.4863 N   0  3  0  0  0  0  0  0  0  0  0  0
    2.9316    3.8177  -18.5515 N   0  0  0  0  0  0  0  0  0  0  0  0
    7.5283    3.1527  -19.4774 O   0  0  0  0  0  0  0  0  0  0  0  0
    5.0803   -2.0373  -20.4135 O   0  0  0  0  0  0  0  0  0  0  0  0
    6.5694    6.5613  -25.3342 O   0  0  0  0  0  0  0  0  0  0  0  0
    5.7904    8.1791  -26.7152 F   0  0  0  0  0  0  0  0  0  0  0  0
    5.2816    6.0726  -27.1680 F   0  0  0  0  0  0  0  0  0  0  0  0
    3.1925   -4.2281  -16.5941 F   0  0  0  0  0  0  0  0  0  0  0  0
    3.7628   -2.1019  -16.4647 F   0  0  0  0  0  0  0  0  0  0  0  0
    1.9115   -2.6806  -17.5319 F   0  0  0  0  0  0  0  0  0  0  0  0
    7.8804   -0.2188  -23.4833 H   0  0  0  0  0  0  0  0  0  0  0  0
    7.3094    2.1061  -22.8517 H   0  0  0  0  0  0  0  0  0  0  0  0
    3.9321    3.4909  -23.0975 H   0  0  0  0  0  0  0  0  0  0  0  0
    7.7259    4.6460  -21.3976 H   0  0  0  0  0  0  0  0  0  0  0  0
    6.8067   -2.1264  -22.3275 H   0  0  0  0  0  0  0  0  0  0  0  0
    4.3395    5.0030  -25.0223 H   0  0  0  0  0  0  0  0  0  0  0  0
    8.1429    6.1260  -23.3332 H   0  0  0  0  0  0  0  0  0  0  0  0
    4.5328    0.6183  -19.8957 H   0  0  0  0  0  0  0  0  0  0  0  0
    4.8107    4.4929  -16.8736 H   0  0  0  0  0  0  0  0  0  0  0  0
    6.0511    3.1937  -16.8791 H   0  0  0  0  0  0  0  0  0  0  0  0
    6.5071    4.8728  -17.3256 H   0  0  0  0  0  0  0  0  0  0  0  0
    3.4375   -3.8786  -19.2483 H   0  0  0  0  0  0  0  0  0  0  0  0
    4.9724   -3.6474  -18.3442 H   0  0  0  0  0  0  0  0  0  0  0  0
    3.2335   -1.4612  -19.6261 H   0  0  0  0  0  0  0  0  0  0  0  0
    4.6554   -1.1371  -18.5773 H   0  0  0  0  0  0  0  0  0  0  0  0
    4.5670    7.0650  -25.5579 H   0  0  0  0  0  0  0  0  0  0  0  0
    3.3444    2.9026  -21.0382 H   0  0  0  0  0  0  0  0  0  0  0  0
    2.0471    3.6179  -18.9731 H   0  0  0  0  0  0  0  0  0  0  0  0
    2.9714    4.1767  -17.6190 H   0  0  0  0  0  0  0  0  0  0  0  0
  1  2  2  0  0  0  0
  1  5  1  0  0  0  0
  2 10  1  0  0  0  0
  3  6  2  0  0  0  0
  3  9  1  0  0  0  0
  4  7  1  0  0  0  0
  4  9  2  0  0  0  0
  5 12  2  0  0  0  0
  6 11  1  0  0  0  0
  7 11  2  0  0  0  0
  8 10  2  0  0  0  0
  8 12  1  0  0  0  0
  9 15  1  0  0  0  0
 10 15  1  0  0  0  0
 11 26  1  0  0  0  0
 12 25  1  0  0  0  0
 13 15  1  0  0  0  0
 13 21  1  0  0  0  0
 13 24  2  0  0  0  0
 14 21  1  0  0  0  0
 14 22  2  0  0  0  0
 14 23  1  0  0  0  0
 15 22  1  0  0  0  0
 16 21  1  0  0  0  0
 17 18  1  0  0  0  0
 17 20  1  0  0  0  0
 18 25  1  0  0  0  0
 19 26  1  0  0  0  0
 19 27  1  0  0  0  0
 19 28  1  0  0  0  0
 20 29  1  0  0  0  0
 20 30  1  0  0  0  0
 20 31  1  0  0  0  0
  1 32  1  0  0  0  0
  2 33  1  0  0  0  0
  3 34  1  0  0  0  0
  4 35  1  0  0  0  0
  5 36  1  0  0  0  0
  6 37  1  0  0  0  0
  7 38  1  0  0  0  0
  8 39  1  0  0  0  0
 16 40  1  0  0  0  0
 16 41  1  0  0  0  0
 16 42  1  0  0  0  0
 17 43  1  0  0  0  0
 17 44  1  0  0  0  0
 18 45  1  0  0  0  0
 18 46  1  0  0  0  0
 19 47  1  0  0  0  0
 22 48  1  0  0  0  0
 23 49  1  0  0  0  0
 23 50  1  0  0  0  0
M  CHG  1  22   1
M  END
> <OMEGA_C>
8e7kQADDEr1JpLXBm0PaQLDooz9y2LLBa9eaQOlxgkBvGLnBdoPfQPo9l0C8brHB+n7RQCznjr+u
X7DBXlCiQPeynUBE3MHB0g7nQL4kskDtNbrBSCGoQGwi4D6MbqXBrAi5QDHEfkB+sLDBmSq7QFy7
xD8i3arBe5rIQHMNtkAka8LBREqzQFtjZr+kMqjBGKLKQEZIVUCXdp3BFk6DQMo1ZkDcFJrBxlix
QBQIP0Dqe6fBXsu2QKimg0CTBIvBQWl/QAtLTcDimJTBOXmGQJ717L+5PprBDTSvQIdJ30AmYdHB
41RMQOroQsDMForBeeasQPe8dECxRJbBEbOEQKdFSEDc46PB4Z87QMxVdECCaZTBkOfwQEDFSUCz
0ZvBFpKiQP1iAsDBTqPB7jjSQO/10UCCrMrBoEq5QMndAkHQuNXBygKpQP5SwkAbWNnBflJMQLVM
h8CowITBJNJwQA+GBsC2t4PBK6z0P7uOK8BbQYzBaiz8QHcSYL7g3bvBSubpQBbLBkBL0LbBHKh7
QPlqX0Crx7jBhDr3QA2slEA+LqvBO9DZQMwWCMCnnrLBDd2KQLgYoEC8LcjBLEkCQVwIxEBgqrrB
pAyRQGJJHj9UKp/BWfGZQIPFj0Ar/YbB66LBQF1mTEBVCIfBBDrQQFLum0DnmorBkwBcQAE7eMCC
/JnBER6fQOZuacD6wJLB/vFOQDAJu78+Ap3BpPiUQA2Lkb9NnpTBgySSQEEU4kCTdszByApWQG/D
OUBQTqjBFAQDQBOMZ0DgyJfBNSs+QFOnhUC484zBci/fQLyeX77d4bPBfNfXQJ7Kkz+UIrLBoCid
QAsWgkByh7nBKUPhQJAomECDuLHB2bbIQEYomL8b5a3BUeijQIbvnUAcLMLBhiToQASus0D/arrB
y1ajQCenFT+ycqTBp1+7QHzgfkAWH7HBwCW5QBSAyD9xfKrBJpTJQMcat0CWoMLB8HCqQMq0SL/n
DabBZJPLQF4nV0Dzm53BY8qDQOqRYkB+K5rBIW+yQOPCQkAGt6fBdU62QKpNc0AChIrBnad5QGBY
eMDnLJnBdcecQCeHQ8CZ/p/BCuatQL3Q5UApHdDBH5N3QNMHYMB4JI3BbiatQL5/bECW/5XB1MuF
QJY/UkAOcKTBXqA7QAZDaEBkepTB0OTxQOqWS0BlCJzBl2aSQLzO0r8stJ/B8WXSQHro0kBv6srB
rrm5QAtQBkFd8NPBhMSgQKnFzEDtX9jBtl9MQCPfjsBUt4fBRRekQLzrWsBHG4nBQHhOQIY/FMBO
oYvBhyT2QE3dB79t1rnB15rpQAkj8j//n7bBn6+AQLkKXUCNSrnBLvX4QKjRlUBhdavBO4vOQDRO
D8DWRq/BPWOMQIgvoEBResjBA5QCQTVkxkClz7rBaZyMQAjLZT+6cJ7BXOiYQO9/gkANNobBQQfC
QDxfNUBPh4fBJ9zOQEBRkkDAMonB+hs5QNXXbsBle5zByKuFQMQlnsCD0JnBpEm9QI7OTMBC05zB
znebQKwCWsDIU6jBVvOTQLds6UCIPMrBPStZQMeJUEAeXKnBuq4DQP61X0C9NpjBpco8QO3qdEAu
o4zBO6PkQDACP73sg7XB6kfbQGqooj8odrLBCpCbQFH1gUBrIrnBCb3fQI64l0CfZ7HBdgTPQCqR
j7+surDBS9KiQFo6nUAi6cHBGgTnQHTDskDHL7rB6JimQNbH4D6pnaXBaJy5QEKafkCysLDBc1u7
QNGSxD8WtqrBM7rIQBM+tkCCdcLBw1KwQNs6Zr8Ur6jBcNrKQPwLVkDbXJ3BqF2DQM4MZkDmE5rB
mtOxQMVXP0AMaafBxVi2QCFWg0Cm5IrBWfx/QEorUsDcQZXBLkOIQHw78b9UE5rBswewQDJF4kB3
Y9HB8Y9YQADpS8Bn8InB1NKsQOagdEBlLZbBSBmFQDwvSUAs7aPB6kI7QIwcc0BeeJTB1SbxQL9E
S0C/rpvBuQqdQK3mAcDnVKTB1azSQLoH0kB0zMrBszGhQOJuw0DfG9jBZaiPQMku8kCXRMvBSIJX
QMN0jcBtaYXBCOaDQIoEF8BCo4PBNj4HQKtKLcC3gorBo438QMU1cL6MkbvBXpbsQD/MBUAkDrbB
0Ix9QFi+XUB517jBn2j3QKp/lUBJIqvBZQTWQNZlCMDrP7PBJnaLQAgmn0COQsjB0B8CQWsgxUDv
l7rBWVuPQBx4Hz+IZJ/BrEuZQBQdj0Dp44bBkk/BQAy0S0DH8YbBDZTPQHjMm0CQZIrBoJ9TQJtH
dcCUfprBh4SeQEcAdcCEwpTBOkdTQCrWrb8JHpvBpvicQIlPp7/TqZTB7Cu9QEmH/EDfPdbB4xxX
QFy6O0BKcajB3PkCQA9XZkBb7ZfBgiE9QHqmhEBU+IzBVuXlQMBy07xtR7XB/M7cQKpupT/8JLLB
9oCbQCstgkCnFLnBmcXfQBTul0CWV7HB5UTOQApQjL9XArHBkwGjQBEEnUC46cHBuFHnQDuAskD2
LrrB9wWlQLzU7z4LJabBpIi5QE5uf0ASoLDB+4S7QIicxz9QwqrBKhXJQD6rtUDodsLBDfCtQDXM
XL/zYqnBCMPKQJqbVkBtUp3Bsz2DQCjUZUBaAprBnsmxQItjQEDjYKfB5DO2QJrkgkAp0IrBlBl0
QCPnVMDeIZfB9FaOQCwR/b/9V5rBj6+vQKyR3kDHgNHBG8NtQAzMXMB81IrB366sQCqJdEDeG5bB
ngOFQMczSkCd6KPBvgI7QIzKcUAcXZTB/wXxQPhhS0B+opvB3q+WQFi7+b8Qt6XBz9vSQE6x0EDs
48rBUH+TQKYU9kDGo8vBPZS/QDlf90DYddnBFWZKQBislMCCOIjBrqaeQFiPWMCWdYbB/ok8QFbj
HMBPuIbBPhv/QM75Xr5j/LrB2VfvQJn1BkDPY7XBKTB9QLeSXkDkvrjBY0j3QDfnlUCjB6vBnfXU
QLa9BsDbl7PBmsCLQD7fnkCrScjBpFICQcKyxECmobrBAPSMQOU5Jz+oH6DBfCKZQJp2jkDCx4bB
TzzBQLyTSkDV7obBYGLPQHhjm0CQQorBnoczQGI6WcDDmJrBt++NQJCzhMBlPZrBOH9wQHSHlL8z
SJjBZ5usQBX567/l+pXBwqGfQIFIwkBY3tTBbf1WQIqNPUAaeKjB3cACQOYiZUCh1ZfB89k8QCGJ
g0CJ0ozBoczgQI4SjL7qWbPBGmrZQJQzjT8tvrHBctmeQE1RfkB/1LnBxUDhQLfal0BdqLHBNgLJ
QNxJnr8tma3BQyGlQLt3m0ClZ8LB647nQNsItECeQbrBmIiiQBmmDT+coKTBaj28QDece0B7PLHB
75W5QOZvwz+/bqrB7VXJQHHjtkB4kcLBSHepQD0HUb+iKKbB8LrLQLP1VEBXm53BB8mDQIudYUDB
TZrBz+iyQAZwQEAmwqfBCh62QFt1d0Bno4rBiSpxQAcuccAraZjB5YqbQOmTQsBl/57B7wmtQCQA
5UA3odDBmUNwQG3AWMDQXIzB09qsQGkvYUAozpXBCSmGQBDeUECskKTBRHc7QOddbkD40pTBhkTy
QEZnTEB9FJzBQwiPQN521L/GVKDBFTXRQEjv1EBahsrBtFagQOLDx0CvB9jBFrKLQFj270BDJcrB
wNYlQFkldMBG6IfBXlyZQOXFf8DrVIfBHfN1QHjIAsCI0IrBI8v4QKsQGL89BLnBDQfsQD2x6j/C
FbbBcFeDQK95VEC2y7nBpb34QKIJlkAEVqvBpdLOQHiGEsCb3K7BD1mOQM9jnEDT5cjBpvYBQQDA
x0DefrrBffGKQEijXz9A257BFvCXQKRYfUBOK4bBl+7JQBMGRUDXAofBTHDHQEZamkDFXIrBllwy
QIEvYcD92JvBiRJ8QMREm8C0DpnBoUu6QO7YRcBWvJrBU8ieQE4qYcDT4abBQem3QI30AEG+2dTB
PT1aQGxrT0D2iqnBtqYDQD//akBHt5jB8GU8QKHuekAN+4zBfXzeQPL7mL4mOLPB87vYQPWCij/o
crHBCVKeQOmUgEBEqbnB3bLiQIt/lkDDCLLBSRjFQKXpnr+es63BzV2kQPUNnUD0NsLB3ezoQJef
skDwprrBa4OgQKJzEj+GiaTBrcC8QKfEe0DTTbHBjQ+5QK/+wz+qMarB5LbJQBrRtkDSsMLBx9ul
QF+JTb95SabBWyvMQAZSV0Czkp3BgCmEQCtlYEC7M5rB3VKzQDOCQUCzsafBKWy2QHHfekDqo4rB
EQGQQPzoOMDEC5DBGG6dQNe6NMDy+ZvBqhSuQAJC30Bsk9HBislXQIjDecCz6I3BTEqtQBunYkAZ
wJXBnK+GQFEiU0CpiKTBhso7QLIyZ0AKqJTBw9zyQBTGUUBxFJzBUSGKQPWR1b+tDqHBjHnRQF+T
1EDvq8rBN7a2QHGLAkEIa9bB2gipQB2SwEAuL9nBJAxDQBnjdsA9WoPBVFkRQFzPZsB215PBTsBz
QHvppMAbYJDBvXH2QNgpI7+R07jBbYDsQBMT5j8robXB3yyCQLwVWUDMdLnB7/n6QBSdk0By7avB
eYHJQGAKE8BzI6/Bo4qMQP1bn0BqcsjBSP4CQVc8xUA1HbvBxi+JQNFIaD8AwZ7By0CYQJV7f0C+
JIbBrBDLQBogSkAj8YbB4c7GQN+VnEB4gYrB7ROsQKJPS8DwQovBM/qEQDkn8r+2j43B5HnAQEXA
L8Bwg5zBTreSQAI1b8BQFKDBo9qQQDj04UDTt8zBs65bQNC7VEBhkqnBXyYEQPDyYUD1jZjB0Tk8
QLFacUAKwozB

> <OMEGA_E>
QBBTPojMYD7YQGY+kNRoPoDWfT5gQH4+

> <OMEGA_NBR>
    214378

$$$$
50168810
  -OEChem-04172616093D

 53 55  0     1  0  0  0  0  0999 V2000
    4.8964    4.0615  -23.1530 C   0  0  0  0  0  0  0  0  0  0  0  0
    7.0290    4.7565  -22.1925 C   0  0  0  0  0  0  0  0  0  0  0  0
    6.8980    1.2442  -22.1892 C   0  0  0  0  0  0  0  0  0  0  0  0
    5.1069    4.9153  -24.2456 C   0  0  0  0  0  0  0  0  0  0  0  0
    7.2474    5.5958  -23.2962 C   0  0  0  0  0  0  0  0  0  0  0  0
    7.1585   -0.1011  -22.5002 C   0  0  0  0  0  0  0  0  0  0  0  0
    5.0648    0.5456  -20.7358 C   0  0  0  0  0  0  0  0  0  0  0  0
    5.8413    3.9913  -22.1024 C   0  0  0  0  0  0  0  0  0  0  0  0
    5.8318    1.5820  -21.3213 C   0  0  0  0  0  0  0  0  0  0  0  0
    6.2895    5.6936  -24.3219 C   0  0  0  0  0  0  0  0  0  0  0  0
    5.3145   -0.7999  -21.0547 C   0  0  0  0  0  0  0  0  0  0  0  0
    6.3693   -1.1236  -21.9415 C   0  0  0  0  0  0  0  0  0  0  0  0
    6.3566    3.3591  -19.6668 C   0  0  0  0  0  0  0  0  0  0  0  0
    4.1118    3.5564  -19.2510 C   0  0  0  0  0  0  0  0  0  0  0  0
    5.5775    3.0394  -20.9321 C   0  0  1  0  0  0  0  0  0  0  0  0
    5.6838    3.8495  -17.2920 C   0  0  0  0  0  0  0  0  0  0  0  0
    4.0671   -3.7847  -19.2224 C   0  0  0  0  0  0  0  0  0  0  0  0
    4.0626   -4.0380  -17.6976 C   0  0  0  0  0  0  0  0  0  0  0  0
    5.0504   -2.6539  -19.5909 C   0  0  0  0  0  0  0  0  0  0  0  0
    3.2034   -2.9998  -16.9506 C   0  0  0  0  0  0  0  0  0  0  0  0
    5.4296    7.0670  -26.0913 C   0  0  0  0  0  0  0  0  0  0  0  0
    5.4028    3.7109  -18.7257 N   0  0  0  0  0  0  0  0  0  0  0  0
    4.1788    3.2472  -20.5217 N   0  3  0  0  0  0  0  0  0  0  0  0
    2.9213    3.7032  -18.5557 N   0  0  0  0  0  0  0  0  0  0  0  0
    7.5534    3.1818  -19.4637 O   0  0  0  0  0  0  0  0  0  0  0  0
    4.4613   -1.7665  -20.5618 O   0  0  0  0  0  0  0  0  0  0  0  0
    6.5663    6.5498  -25.3712 O   0  0  0  0  0  0  0  0  0  0  0  0
    6.6191   -2.4079  -22.2848 F   0  0  0  0  0  0  0  0  0  0  0  0
    1.8953   -3.1632  -17.2873 F   0  0  0  0  0  0  0  0  0  0  0  0
    5.7935    8.2331  -26.6781 F   0  0  0  0  0  0  0  0  0  0  0  0
    5.0381    6.1900  -27.0536 F   0  0  0  0  0  0  0  0  0  0  0  0
    4.0054    3.4525  -23.1132 H   0  0  0  0  0  0  0  0  0  0  0  0
    7.7698    4.6942  -21.4091 H   0  0  0  0  0  0  0  0  0  0  0  0
    7.5134    2.0235  -22.6139 H   0  0  0  0  0  0  0  0  0  0  0  0
    4.3672    4.9800  -25.0299 H   0  0  0  0  0  0  0  0  0  0  0  0
    8.1589    6.1716  -23.3587 H   0  0  0  0  0  0  0  0  0  0  0  0
    7.9675   -0.3513  -23.1705 H   0  0  0  0  0  0  0  0  0  0  0  0
    4.2794    0.7920  -20.0366 H   0  0  0  0  0  0  0  0  0  0  0  0
    4.7626    4.1354  -16.7632 H   0  0  0  0  0  0  0  0  0  0  0  0
    6.0513    2.8912  -16.8962 H   0  0  0  0  0  0  0  0  0  0  0  0
    6.4487    4.6257  -17.1418 H   0  0  0  0  0  0  0  0  0  0  0  0
    4.3692   -4.7072  -19.7397 H   0  0  0  0  0  0  0  0  0  0  0  0
    3.0542   -3.4995  -19.5429 H   0  0  0  0  0  0  0  0  0  0  0  0
    3.6571   -5.0421  -17.5041 H   0  0  0  0  0  0  0  0  0  0  0  0
    5.0956   -3.9815  -17.3237 H   0  0  0  0  0  0  0  0  0  0  0  0
    5.3012   -2.0832  -18.6846 H   0  0  0  0  0  0  0  0  0  0  0  0
    5.9662   -3.0942  -20.0121 H   0  0  0  0  0  0  0  0  0  0  0  0
    3.3223   -3.1384  -15.8658 H   0  0  0  0  0  0  0  0  0  0  0  0
    3.5292   -1.9866  -17.2287 H   0  0  0  0  0  0  0  0  0  0  0  0
    4.6073    7.2405  -25.3815 H   0  0  0  0  0  0  0  0  0  0  0  0
    3.3891    3.1637  -21.1295 H   0  0  0  0  0  0  0  0  0  0  0  0
    2.0484    3.5715  -19.0254 H   0  0  0  0  0  0  0  0  0  0  0  0
    2.9356    3.9408  -17.5844 H   0  0  0  0  0  0  0  0  0  0  0  0
  1  4  2  0  0  0  0
  1  8  1  0  0  0  0
  2  5  1  0  0  0  0
  2  8  2  0  0  0  0
  3  6  2  0  0  0  0
  3  9  1  0  0  0  0
  4 10  1  0  0  0  0
  5 10  2  0  0  0  0
  6 12  1  0  0  0  0
  7  9  2  0  0  0  0
  7 11  1  0  0  0  0
  8 15  1  0  0  0  0
  9 15  1  0  0  0  0
 10 27  1  0  0  0  0
 11 12  2  0  0  0  0
 11 26  1  0  0  0  0
 12 28  1  0  0  0  0
 13 15  1  0  0  0  0
 13 22  1  0  0  0  0
 13 25  2  0  0  0  0
 14 22  1  0  0  0  0
 14 23  2  0  0  0  0
 14 24  1  0  0  0  0
 15 23  1  0  0  0  0
 16 22  1  0  0  0  0
 17 18  1  0  0  0  0
 17 19  1  0  0  0  0
 18 20  1  0  0  0  0
 19 26  1  0  0  0  0
 20 29  1  0  0  0  0
 21 27  1  0  0  0  0
 21 30  1  0  0  0  0
 21 31  1  0  0  0  0
  1 32  1  0  0  0  0
  2 33  1  0  0  0  0
  3 34  1  0  0  0  0
  4 35  1  0  0  0  0
  5 36  1  0  0  0  0
  6 37  1  0  0  0  0
  7 38  1  0  0  0  0
 16 39  1  0  0  0  0
 16 40  1  0  0  0  0
 16 41  1  0  0  0  0
 17 42  1  0  0  0  0
 17 43  1  0  0  0  0
 18 44  1  0  0  0  0
 18 45  1  0  0  0  0
 19 46  1  0  0  0  0
 19 47  1  0  0  0  0
 20 48  1  0  0  0  0
 20 49  1  0  0  0  0
 21 50  1  0  0  0  0
 23 51  1  0  0  0  0
 24 52  1  0  0  0  0
 24 53  1  0  0  0  0
M  CHG  1  23   1
M  END
> <OMEGA_C>
Lq+cQNr3gUBCObnB9O3gQDE1mEAyirHBVrzcQKxCnz+Fg7HBBWyjQD5KnUD99sHBn+rnQLEQs0C1
XrrBmxLlQBr2zr1fALTBCROiQO+sCz/34qXBMey6QDxyf0DO0bDB9526QLJ/yj/ukarBLUPJQKox
tkA8k8LBQBCqQIfETL/5b6jBgdHLQBbSj78giK/B6GjLQIT7VkCpVZ3BqJODQCGcY0D/AZrBqXqy
QJ6FQkAIdafBCeK1QHxddkAXVorBUiWCQBU4csCJx5nB/gCCQJo3gcCtlI3B/pyhQC7aKcAmupzB
0gNNQPz7P8DKmofB876tQJck4kDrutDBduOsQJh+bUA+zpXBtLiFQCnST0CHLKTBKvc6QHYBbUAI
cpTBd7XxQPKhS0CitZvBRcOOQHAd4r+GfqTB9x7SQFqY0UAn+MrBUM/TQB8bGsA1R7LBxpnyP+Rx
SsB+TIrBEGS5QJu6A0HEbNXB2DehQOEUxkDIbdjB9yuAQHX1XEDn57jBkaL4QBg3lkDCRavBCm7w
QKWAAUBc6bTBeMCLQOxbn0ArPcjB/4oCQfh9xUCH3rrBr/X+QMLes741XbnBHfGIQGW/Sj8IS6DB
lWeYQONUhEAQG4bBW6TBQOsIOUCCK4fBY1vOQHEFlEB4IonBJNCLQKmhlsAA653BSXdDQGH3X8DX
V5zBJA5qQM9YocBmCIzB7g6jQCTQfsDolorBjaOpQF9TBcAPepXBf+u+QNQGRsDeGKDB9Z9UQAvb
SMCC2n3Bo95hQMhI/r9L1InBBW+TQIey50BTDcvBXeZYQMF6SkAvCanBQhkDQKCTZEAVNJjB+uA7
QDw2fEDkrIzBgribQMK4gUBjI7nBhtTfQJbLl0AUabHBtKDdQGmrpD/o0bHBGf2iQPK+nEAZ88HB
mCfnQNCKskDoPLrBTkvnQOD8/LyM07TBJyakQL7R7T7YTabBZLi5QODJfkB8rrDBqHC7QAoCxz9f
tKrBvt3IQLrJtUCog8LBvKCtQKAvXb+Sd6nBkU7PQLbyjL+mtbDBQOvKQNR1VkCnU53B1WCDQMd7
ZUBc/JnBv9mxQA4yQECqYKfB3Gm2QCfmgkDEy4rB2CR6QBOgXcCUMZjBwCR2QEHcbcCH/4vBc3+Q
QLY1BcACu5rB4Vk9QMd8LMB8EIbBnOyvQHzj4UDlYNHBfNWsQGa1c0BKEpbB1RyFQGyHSkAE6qPB
Rkk7QK+qcUBfWZTBtEHxQA3lS0DRrZvBmGqVQJ7n+L+zIabBurbSQEZ/0UC43crBGCbZQI10F8Ao
orPB8rXaP44ZK8AlWIrBzeqgQKYsw0C3G9jBELKPQHay8UDtMMvB9PR9QAwlXUAP07jBqG73QIfJ
lUB8HqvBEW7wQNWaBkDy9bTBka2LQDB4nkBRUMjBezQCQR3bxEAbrrrBCqAAQfDWY74zUrrBfiKL
QAozJj9Fh6DBZzqZQGoSjkABv4bBLgPCQIklS0AE44bBfjDPQH3Tm0BzTorBf+yQQCa+h8A77pvB
AvI4QMCVYMAgfpvB3SxcQJIul8Ben4rB0bSbQAMSasAAvIjBt0F2QI1apb8Ju5fBv/KvQEzw/r8S
2JbBtyo5QGZ0PsDRJHvBUBJaQHbq2L8mxIbBxPS8QNE6/EDWONbBDiVXQAajPkC/f6jB7v0CQLq4
ZUCG2ZfBFyk9QM8yg0C2yIzB55GaQCJNgkD9CbnB8fzeQPl+l0CXSbHBFu3XQOLEpT+6fLPBt02i
QLkynUCl2cHBC7LmQI44skBLF7rBk4bjQIArabxcO7bByfWqQAX43T6sC6XBSIm4QGoff0CFlLDB
zui6QLzQxD+G/qrBMnDIQI3HtUDXWsLBs4W3QLbwY78MrafBTXXTQPn3jL+fX7DBeHrKQFL8U0BI
c53B3EKDQC5qZ0DwHZrBNgexQBSVPkCweKfBTvK2QJpog0DDBIvBIAFwQEglXsDFGZnBtbl9QFC5
X8Dt0YzBukqAQPxtBcCmPZ7BkHU9QCwBJsBsyIbBnn6uQHs64EDmEdHBNvSsQHg7dECyQ5bBtnSE
QNbyRkAXzqPB1bg7QCo5eUAvk5TBqLzwQAgISEAh1pvBXZCsQD1d/r8jc6HBefzRQNVv0UDDq8rB
n7nfQEy6FsClBrPBtCHYPwzNM8AyRIrBynGRQAo89UAF4crBnMO9QLvE+0Aah9jBFBN7QIIwX0D+
ubjBs4n2QOQelUDp/arBEjjlQNIdCEBC4rfBxymLQOkmn0C4P8jBwxICQfs4xECJhbrB++b4QJkJ
QL6z4LzBQyWVQLpcGj+be57BjDqaQKPjj0Cm/4bBJHbBQKDDS0BxA4fBEKXQQDBpm0D/norBh+uN
QP5jhsAKxJzB7HctQC/NcMBjyJrB/SF2QMzzkMAw+YnB1YGfQLltScBsEYvBxDpXQOtb+7/bS6XB
3CNyQBK2pb8yZJjBxvJAQDpBNMArWnzBAGdOQD4Yxb/vJIjBmVifQK+NxEDp+NTBGHhVQP5GNkB2
FajBOOwCQAlSbUCw8pfB3ZU+QM/7iECqNI3BseCZQL1uhEBukLjBnGTfQNFPmEB2MbHBo1/cQM02
sT+sybLBv7ShQKhSnkCdiMHB3l3nQIHBsUC3NrrB9XfmQKA2qD2WIrbBMXimQJj6+z4TrabBEHy4
QA5ZgUBbQrDBqau7QBnQzT/bJKvBrsfIQCQftUC6acLBvJewQOYjVL+JDqrB56rQQOKIgr/gzbHB
KnLKQEguVkDkGp3B+eWCQFSfZUAiu5nBI1mxQM7rQUCBOqfBZO+1QOzWgEBqaIrBY811QOzZRsAC
65bBPVJVQBIUM8CujYvBKQWIQGuP47/q0JvBoT07QAlogsD+xYXB4HivQLKI4ECP49DBJmWsQCY7
ckA9wZXBV5OEQASYSUCYnqPBJGE6QJTkc0BOJ5TBh8vwQCiAS0BZf5vBpVmcQL84+r/2A6bBDfzS
QPuQzkAJFcvBkTzbQEJPEcDc+LTBHyeAQBJlnMCYs4TBW6e8QJW+AkE5gdXBC0GiQIIAxUBfodjB
d4x4QAV8ZUAWALjBkQ73QKI0lkAa66rBPrPtQLJWDkAHErbBru6JQE/goECmxcfBxaACQXnowkDf
3brBBxv/QOo0lb3nELzB0UqOQOrQJD9nn6DBp8mYQILBi0AzTIbBUEzBQJcFRkDDsobB4N/OQFKI
mUA1u4nBO4mWQKpccsA+j5bBzZlCQGhwZMBcsZvBJUqEQIhhE8BIAYfB5J0dQHs9CMCnFYzBQKlW
QNC+k7/o3pzBSHSeQMnoor/GXpbB6ggiQPamdMAynnvBF30JQKj1ksDUbIrBGy6VQMzu5kC/QsvB
bgZWQD5kO0CnF6jBw/gBQE+7aEB/qpfB8ms8QKyrhEDYnozB

> <OMEGA_E>
eLgmPkANPT54Wkk+2MRXPg==

> <OMEGA_NBR>
    218218

$$$$
50168844
  -OEChem-04172616093D

 51 53  0     1  0  0  0  0  0999 V2000
    4.8280   -1.8480  -20.3336 C   0  0  0  0  0  0  0  0  0  0  0  0
    4.2784   -2.7638  -19.7598 C   0  0  0  0  0  0  0  0  0  0  0  0
    7.0592   -0.0171  -22.7112 C   0  0  0  0  0  0  0  0  0  0  0  0
    6.4061   -1.0691  -22.0448 C   0  0  0  0  0  0  0  0  0  0  0  0
    6.7800    1.3170  -22.3650 C   0  0  0  0  0  0  0  0  0  0  0  0
    7.0157    4.7635  -22.1791 C   0  0  0  0  0  0  0  0  0  0  0  0
    4.8566    4.1225  -23.1168 C   0  0  0  0  0  0  0  0  0  0  0  0
    7.2626    5.5674  -23.3014 C   0  0  0  0  0  0  0  0  0  0  0  0
    5.0987    4.9387  -24.2317 C   0  0  0  0  0  0  0  0  0  0  0  0
    5.1970    0.5454  -20.6741 C   0  0  0  0  0  0  0  0  0  0  0  0
    5.4800   -0.7850  -21.0225 C   0  0  0  0  0  0  0  0  0  0  0  0
    5.8032    4.0386  -22.0693 C   0  0  0  0  0  0  0  0  0  0  0  0
    5.8239    1.6123  -21.3588 C   0  0  0  0  0  0  0  0  0  0  0  0
    6.3092    5.6710  -24.3287 C   0  0  0  0  0  0  0  0  0  0  0  0
    6.3387    3.3479  -19.6544 C   0  0  0  0  0  0  0  0  0  0  0  0
    4.0953    3.4950  -19.2065 C   0  0  0  0  0  0  0  0  0  0  0  0
    5.5519    3.0541  -20.9226 C   0  0  1  0  0  0  0  0  0  0  0  0
    2.9420   -2.6764  -16.9518 C   0  0  0  0  0  0  0  0  0  0  0  0
    5.6957    3.9311  -17.2909 C   0  0  0  0  0  0  0  0  0  0  0  0
    3.6318   -3.8869  -19.0877 C   0  0  0  0  0  0  0  0  0  0  0  0
    3.8003   -3.8031  -17.5563 C   0  0  0  0  0  0  0  0  0  0  0  0
    5.4929    7.0101  -26.1394 C   0  0  0  0  0  0  0  0  0  0  0  0
    5.3871    3.5087  -18.6623 N   0  0  0  0  0  0  0  0  0  0  0  0
    4.1520    3.2118  -20.4858 N   0  3  0  0  0  0  0  0  0  0  0  0
    2.9162    3.7076  -18.5081 N   0  0  0  0  0  0  0  0  0  0  0  0
    7.5495    3.2515  -19.4840 O   0  0  0  0  0  0  0  0  0  0  0  0
    6.6136    6.4932  -25.3965 O   0  0  0  0  0  0  0  0  0  0  0  0
    5.8653    8.1780  -26.7161 F   0  0  0  0  0  0  0  0  0  0  0  0
    5.1252    6.1289  -27.1070 F   0  0  0  0  0  0  0  0  0  0  0  0
    7.7759   -0.2339  -23.4895 H   0  0  0  0  0  0  0  0  0  0  0  0
    6.6143   -2.0934  -22.3165 H   0  0  0  0  0  0  0  0  0  0  0  0
    7.2962    2.1214  -22.8678 H   0  0  0  0  0  0  0  0  0  0  0  0
    7.7542    4.6965  -21.3939 H   0  0  0  0  0  0  0  0  0  0  0  0
    3.9404    3.5538  -23.0579 H   0  0  0  0  0  0  0  0  0  0  0  0
    8.1927    6.1111  -23.3768 H   0  0  0  0  0  0  0  0  0  0  0  0
    4.3616    5.0096  -25.0179 H   0  0  0  0  0  0  0  0  0  0  0  0
    4.4969    0.7551  -19.8789 H   0  0  0  0  0  0  0  0  0  0  0  0
    3.0882   -2.6478  -15.8619 H   0  0  0  0  0  0  0  0  0  0  0  0
    3.2432   -1.7123  -17.3874 H   0  0  0  0  0  0  0  0  0  0  0  0
    1.8813   -2.8640  -17.1745 H   0  0  0  0  0  0  0  0  0  0  0  0
    4.7666    3.9811  -16.7042 H   0  0  0  0  0  0  0  0  0  0  0  0
    6.3819    3.2057  -16.8296 H   0  0  0  0  0  0  0  0  0  0  0  0
    6.1703    4.9233  -17.3110 H   0  0  0  0  0  0  0  0  0  0  0  0
    2.5589   -3.8788  -19.3301 H   0  0  0  0  0  0  0  0  0  0  0  0
    4.0816   -4.8247  -19.4458 H   0  0  0  0  0  0  0  0  0  0  0  0
    4.8580   -3.6100  -17.3236 H   0  0  0  0  0  0  0  0  0  0  0  0
    3.4960   -4.7617  -17.1108 H   0  0  0  0  0  0  0  0  0  0  0  0
    4.6554    7.1805  -25.4469 H   0  0  0  0  0  0  0  0  0  0  0  0
    3.3556    3.1160  -21.0829 H   0  0  0  0  0  0  0  0  0  0  0  0
    2.0372    3.6483  -18.9813 H   0  0  0  0  0  0  0  0  0  0  0  0
    2.9450    3.9202  -17.5314 H   0  0  0  0  0  0  0  0  0  0  0  0
  1  2  3  0  0  0  0
  1 11  1  0  0  0  0
  2 20  1  0  0  0  0
  3  4  2  0  0  0  0
  3  5  1  0  0  0  0
  4 11  1  0  0  0  0
  5 13  2  0  0  0  0
  6  8  2  0  0  0  0
  6 12  1  0  0  0  0
  7  9  1  0  0  0  0
  7 12  2  0  0  0  0
  8 14  1  0  0  0  0
  9 14  2  0  0  0  0
 10 11  2  0  0  0  0
 10 13  1  0  0  0  0
 12 17  1  0  0  0  0
 13 17  1  0  0  0  0
 14 27  1  0  0  0  0
 15 17  1  0  0  0  0
 15 23  1  0  0  0  0
 15 26  2  0  0  0  0
 16 23  1  0  0  0  0
 16 24  2  0  0  0  0
 16 25  1  0  0  0  0
 17 24  1  0  0  0  0
 18 21  1  0  0  0  0
 19 23  1  0  0  0  0
 20 21  1  0  0  0  0
 22 27  1  0  0  0  0
 22 28  1  0  0  0  0
 22 29  1  0  0  0  0
  3 30  1  0  0  0  0
  4 31  1  0  0  0  0
  5 32  1  0  0  0  0
  6 33  1  0  0  0  0
  7 34  1  0  0  0  0
  8 35  1  0  0  0  0
  9 36  1  0  0  0  0
 10 37  1  0  0  0  0
 18 38  1  0  0  0  0
 18 39  1  0  0  0  0
 18 40  1  0  0  0  0
 19 41  1  0  0  0  0
 19 42  1  0  0  0  0
 19 43  1  0  0  0  0
 20 44  1  0  0  0  0
 20 45  1  0  0  0  0
 21 46  1  0  0  0  0
 21 47  1  0  0  0  0
 22 48  1  0  0  0  0
 24 49  1  0  0  0  0
 25 50  1  0  0  0  0
 25 51  1  0  0  0  0
M  CHG  1  24   1
M  END
> <OMEGA_C>
w36aQDyL7L8dq6LBi+iIQL3hMMAbFJ7BF+XhQLB6jLx/sLXBmf7MQCLZiL+4W7DBrPXYQGCTqD+P
67LByYDgQDhumEDUbrHBa2mbQI3rg0BE77jBSWfoQOgnskAuabrBcyijQDsKnkCd2sHB302mQPig
Cz95ZKXBDVyvQNz1SL8VLqjBGLS5QOk7gUDtjbDBNV26QDxhzj/i3qrBruTJQDp5tUAgocLB9NbK
QIxDVkAxPJ3BhQyDQCCuX0DfppnBE6mxQE12Q0CDYafBRUo8QKFJK8BSnYfBLEO2QHqXe0DLU4rB
MnBoQO/CeMCEs5jBwDhzQN5lc8BBc4zBtsWvQOZS4EB2HdHBXGOsQOOOYEBTTJXBEN2EQEqOTUDW
4qPBRqM6QBxJbUCmEJTB5pXxQFsYUEAk35vBfaLTQIjIz0D5K8vB2rC7QBfZAkGjutXB0QGkQLUf
xEAe29jBG9T4QF2Ob7596rvBcKjTQNf6BcAziLLBU3rpQITFB0BY8bbBLSL4QHZJlkCoJqvBAS98
QJZxY0CYdrjBXBUDQfCNw0CbA7vBPZKLQI9OoEC4JMjBsOaPQBRQQT/5B5/BrKVFQM91KcCMyn3B
KpFPQBAr279zGYvBtc3wPwxLN8B5ZYnBlYeYQC/KfkBKooXBpDjMQL0pTUD3oobBJ3PFQFyLnUDw
fIrBYsUjQGY+eMD7o5rBrZyCQKBjmsAWkZvBiXSbQA8KZ8DVlorBw75fQMlfmMDc4ojBpPiUQAHH
5UBQk8vBNsJWQDxsR0DPqajB1GECQOB9aUCg2ZfBeXo8QPbjekBTQIzBsWOaQA6i6r+DbaLBDvWI
QJ/YL8CIyZ3BKEbiQKDfqbxAbrXBUibNQEyFiL95FbDBmmDZQExjqD/yu7LBW7abQGJtg0AqFrnB
6IPgQI2LmEAXgLHB0lmjQKifnUCA/8HBa1XoQIBPskCuerrB9xWmQBkrDz8kTKXB7kGvQJUvRr+E
+6fBSNy5QAQigUD5qbDBOXG6QHpJzz9GyarBqtXJQNh1tUAitsLBx+nKQOQeWEBEUJ3BhTmDQALh
YkAOy5nB+b+xQIIoREBEa6fBLbE4QFLnKcBWdYfBPSi2QHvDeUBCVorBhWBpQFe1d8DZUJjBowFz
QPA7cMD2EYzBxyqvQMLI4UA61NDBpKSsQCqQb0BLxJXBVQCFQLE4T0Cj+qPBQOk6QHCEaUDQBpTB
MDTxQIFHTEBTu5vBcUvTQKf/z0CbOMvBm7+6QGItBEHY19TBIWujQCyGx0DS+9jB5lf5QJCzeb6G
nLvBytXTQM/0BcCkL7LBLjDqQAxnB0BdvLbBbTV9QAfBYUAwp7jBKxP4QAGOlkDdMqvBvOKLQI2h
n0BFUsjBIgEDQTHdw0DWErvBtWSPQP6RRj/bA5/BzEhBQKl3JsAreH3BtpZJQA7Z17/MDovBAwrr
PycNOcAQSonBGuCYQCJMhkDTDobBkwrCQBnLPECUF4fBX7LOQGDFlUB5S4nBgOQkQNTEeMCwWZrB
RsSDQNTKmcBbAJvBIfuaQK28YMCNKYrBjuRhQKbulsDSZIjBcHmUQB+c5UA2LMvBOg1XQIKmSEAG
wKjBdMICQBIMX0CZopfBmJg8QCzGeECWQozBia6YQIS67b8nq6LBY9CGQF47MMBY5p3B9HLhQOiR
ab3Vm7XBpq7LQED4jL9kYrDBjFXZQAzjoz8IxbLBQ+bgQNhql0AUk7HBZ5WbQBpRg0DS97jBLm3o
QEuisUCxe7rBKBWjQB2/nUCs28HBZculQI0XBz8yY6XB8RGuQE1dTr9cOKjBzhC6QFNfgEDiobDB
YZG6QAItyz+Ny6rB56nJQISQtUDvoMLB8QXLQEurVUBsOZ3B9TuDQG1RX0B+u5nB9geyQMcmQkBo
ZKfBudU1QJYJKcB3NIfBkxm2QK8Ve0CcWYrBRllkQIafdsDvM5jB7llwQCp3bsCH+4vBMOCwQE+x
4UCKetHBwHCsQHgvX0DlTJXBcjSFQNZzTEAL8aPBxd86QH3ibkAkQpTB4tHxQJ5zUUB615vBP63T
QA3H0EBjD8vBPAShQHIWw0DyHdjBijqRQNwu8kDQNcvBLmv4QIankL6dzrvB2qnRQNEmCMDsoLLB
Hp7qQCX3BECErrbB8eL4QOrIlECyY6vBrpR8QBAoYkBxfbjBDRoDQXABw0DGF7vBzWyLQOb3n0DF
IcjBCGyPQMADPz/MCZ/BLT1AQOIxJcCYB33BqNxEQBfC1b+H4orBJCPlP3xoOcCJzYjBH1uYQAdt
fUA3p4XBJHzMQD6hTUBKoYbB4rXEQE+OnUBQj4rBQ4EfQKkmdsC/CprBSEOAQDy5mcA+5JrBGbOZ
QDC6XcCGTYrBHBthQNAglsCIOIjB4iC+QFOz+0CPZdbBvZFXQOjwRUB2u6jBptwCQG4HbECyHJjB
yl08QKX3fEDodIzBkt2ZQNVP7L8WFKLBUC6GQBLOLMDzRZ3BvBLiQGilpL0mTbXBZOLMQNojj7/T
3K/BQmnZQI5soT8HsrLBKDqcQBKngUAvO7nBpLngQBlTl0CSmbHBBJCjQOhOnEBqFsLBaAToQP/g
sUA5crrBCICmQFPvBj9cHqXBOmOvQAZYT7+Xt6fB4kG6QJZDf0ASxbDB8LW6QBQCyj8xuqrBsmvJ
QJ5LtUDuosLB5h3LQGDJVUCdTZ3BbFGDQIQ9YEBu0pnBOBayQE66QUDXc6fBzAdqQCYGScA67oPB
yD+2QGCKfUA6fYrBOR9ZQDR3bMC3qJfBTjguQB5kRcCup43BSJqvQGHo3EBX4tHBgousQAyyYED8
ZpXBHkWFQHDrTEDmBaTBURU7QBR7b0DpUZTBeNzxQJ5FUEAK5ZvB7HDSQD150UDF38rBFFuPQHfx
70CLUMzBbK2+QE0b+UATNdnB5gX5QNeHoL54fLvBczjTQKB6CcCL7bHBVjrqQOV4A0CpyLbBWut+
QFsbXUCm37jBiZb4QCbrlEANYavBfWGMQFLLnUAbfMjB8LcCQfnjw0A7+brBFBaQQMDeQD/Sy57B
qLlJQG/LLMAc6HnB3Hl6QBwIhsB7M4LB+GWSQF7UJMBkqoXBDXuYQI9zgEDPz4XBgWXMQAkQUECD
r4bBQifFQNCinkAWy4rBqjgnQEtQgsANFZ3BvV2BQMzVkMCILZXByQfnP/dyacBA2IvB+NUdQB03
AsApT4/BfcmjQPbdv0B74tXBebNXQD2jRkCb0ajB5PgCQHsEbECxJJjBQ7c8QPPufUB/h4zBUF6a
QB4C7L+JEKLBMO+IQKY9MMCJXZ3BcPXhQNBTaL2CSrXBDd7MQCQijL+x1q/BdkHZQGZFpD9GrrLB
phOcQNScgkB2KrnBBbvgQBwCmEBImLHBu1qjQJw0nUCrBcLBWyHoQJ5NskADgbrBsUqmQBDlCz/7
F6XBdjyvQBiPSr8/tKfBBTu6QEpigED4wLDBtJa6QMSlzD+3s6rB64PJQFC7tUBKtsLB7BbLQJfV
V0BaWp3BUVyDQLhCY0BE6ZnBnQqyQGEmQ0B4dKfB+2o5QDjUJsDSHIfBAxi2QOFFe0DwcIrB9CJp
QKecd8Cbz5fBh1tyQPf1bsADkovBNWmwQKSC4EDNydHBj7ysQIb9b0C83JXBMkOFQG6UTkANEKTB
i/86QP30akBvNJTBZmHxQDRQTEB2vJvBFzvTQOwm0UBrIMvBbamhQDThwEDuStjBLAiQQNjc8EBZ
vMvBpdz4QKjwk74pfbvBv2HTQAfxB8Dg4rHBcwPqQMvzBED4xbbBf2d+QBNgX0BYxbjBOIT4QNnI
lUD5WavBdtmLQPMIn0DwVsjBx9QCQeIcxEAdEbvB1dSPQBSwRT/Dx57BmbpBQJGnIsCIx3zB4NdL
QCZD079+zYrBcf/rP1KrNMCw9ojBFcGYQEZBh0AkN4bBfu7BQEOdPkCWGIfB2Z7OQKaSlkCwc4nB
+rgkQP7feMBk4ZnBBrKDQNLdmcBPZJrBWceaQCe/YMAJpInBi7ZfQHPklcA7zYfBk1O9QDlV+kBz
0tbB065XQOSJR0Bm16jBee0CQJN/YEBg1ZfBF3c8QCj3ekAYdozBOuebQINd8L+mi6LBMPGHQFnS
L8Ag/p3BXlHkQLAiZb3TZ7XBPoDPQHshjr+oE7DBatDaQF2Uoz8QvLLBVSzgQAhyl0DRbLHB+7mb
QICDgUAYELnBl0znQAorskBBQrrBIOGiQIlKnEAn5MHBO+6nQGLUAD+WSqXBxYaxQBxxU79U+qfB
Hd65QCXyfkAco7DBEr67QNziyD97yqrBgqHIQF5qtUCzcsLBshvLQJFPVUB3T53BLmWDQOysZUBz
FZrBTTGyQIt5QEB7a6fBR1x0QNqwV8AU8oTBguO1QPPKe0DJf4rBZfVbQM00ccCNyJjBdbk0QCi1
T8BqP47BJVatQHep3kBLMdHBW8ysQIeAb0C/65XBWlaFQDrrSUD4+KPBX/86QArJdUDMq5TB407x
QK8iSUB3o5vBCEbRQAxw0UAwvcrB5OaPQMuS80ASF8vBYMe7QDql+UDt3djBTp37QBaMir5WjbvB
cXvWQOCdCMB+MLLBn0DrQBxoBUBBwLbB4wL4QLkklUAnMqvBQQh+QH6pXECTsrjBuEoCQUhnxECq
xrrBc5+LQILInUB4RcjBj0WRQD0lNj/d+57BuKpWQHliP8C3InvBrfWCQIKnjcC024PB5g+XQFUc
MsC/vobB85mYQCVTiEA5X4bB8QfBQIoZP0BrBIfBUtvOQJBqlkDOjInBXPsnQKQqgsBDN57BmDiC
QCuElMBAA5fBQhj2P2ExdcAVYIzBk0AjQLP+C8AgQ4/BOMmeQPwwwkCF39TBNshXQKTyPEBbi6jB
INUCQH5EbEA/UZjB4YM8QI91hUBIH43B

> <OMEGA_E>
INgoPihgLT5orz8+wBFCPoAYRT5A/1M+

> <OMEGA_NBR>
    223678

$$$$
50168848
  -OEChem-04172616093D

 45 47  0     1  0  0  0  0  0999 V2000
    4.9308   -1.8158  -19.9595 C   0  0  0  0  0  0  0  0  0  0  0  0
    4.4325   -2.5998  -19.1779 C   0  0  0  0  0  0  0  0  0  0  0  0
    7.0054   -0.1560  -22.6189 C   0  0  0  0  0  0  0  0  0  0  0  0
    6.3996   -1.1688  -21.8473 C   0  0  0  0  0  0  0  0  0  0  0  0
    6.7231    1.1996  -22.3586 C   0  0  0  0  0  0  0  0  0  0  0  0
    4.8787    4.0637  -23.1783 C   0  0  0  0  0  0  0  0  0  0  0  0
    7.0188    4.7275  -22.2134 C   0  0  0  0  0  0  0  0  0  0  0  0
    5.1037    4.9217  -24.2675 C   0  0  0  0  0  0  0  0  0  0  0  0
    7.2446    5.5794  -23.3038 C   0  0  0  0  0  0  0  0  0  0  0  0
    5.2134    0.5302  -20.5636 C   0  0  0  0  0  0  0  0  0  0  0  0
    5.5061   -0.8218  -20.8130 C   0  0  0  0  0  0  0  0  0  0  0  0
    5.8202    3.9778  -22.1260 C   0  0  0  0  0  0  0  0  0  0  0  0
    5.8055    1.5551  -21.3374 C   0  0  0  0  0  0  0  0  0  0  0  0
    6.2899    5.6987  -24.3282 C   0  0  0  0  0  0  0  0  0  0  0  0
    6.3452    3.3591  -19.7019 C   0  0  0  0  0  0  0  0  0  0  0  0
    4.1115    3.5676  -19.2634 C   0  0  0  0  0  0  0  0  0  0  0  0
    5.5550    3.0201  -20.9588 C   0  0  1  0  0  0  0  0  0  0  0  0
    5.7127    4.0122  -17.3578 C   0  0  0  0  0  0  0  0  0  0  0  0
    3.8285   -3.5027  -18.2017 C   0  0  0  0  0  0  0  0  0  0  0  0
    5.4685    6.9951  -26.1774 C   0  0  0  0  0  0  0  0  0  0  0  0
    5.4082    3.7892  -18.7773 N   0  0  0  0  0  0  0  0  0  0  0  0
    4.1587    3.2165  -20.5268 N   0  3  0  0  0  0  0  0  0  0  0  0
    2.9389    3.6890  -18.5323 N   0  0  0  0  0  0  0  0  0  0  0  0
    7.5397    3.1688  -19.4970 O   0  0  0  0  0  0  0  0  0  0  0  0
    6.5735    6.5870  -25.3494 O   0  0  0  0  0  0  0  0  0  0  0  0
    2.9020   -2.8306  -17.4662 F   0  0  0  0  0  0  0  0  0  0  0  0
    5.7584    8.2109  -26.7006 F   0  0  0  0  0  0  0  0  0  0  0  0
    5.2890    6.1018  -27.1865 F   0  0  0  0  0  0  0  0  0  0  0  0
    7.6886   -0.4203  -23.4124 H   0  0  0  0  0  0  0  0  0  0  0  0
    6.6192   -2.2070  -22.0479 H   0  0  0  0  0  0  0  0  0  0  0  0
    7.2073    1.9710  -22.9391 H   0  0  0  0  0  0  0  0  0  0  0  0
    3.9802    3.4654  -23.1439 H   0  0  0  0  0  0  0  0  0  0  0  0
    7.7631    4.6424  -21.4355 H   0  0  0  0  0  0  0  0  0  0  0  0
    4.3731    4.9903  -25.0598 H   0  0  0  0  0  0  0  0  0  0  0  0
    8.1605    6.1491  -23.3570 H   0  0  0  0  0  0  0  0  0  0  0  0
    4.5274    0.7896  -19.7708 H   0  0  0  0  0  0  0  0  0  0  0  0
    4.8050    4.3499  -16.8362 H   0  0  0  0  0  0  0  0  0  0  0  0
    6.0666    3.0733  -16.9070 H   0  0  0  0  0  0  0  0  0  0  0  0
    6.4949    4.7802  -17.2670 H   0  0  0  0  0  0  0  0  0  0  0  0
    3.3421   -4.3374  -18.7277 H   0  0  0  0  0  0  0  0  0  0  0  0
    4.6100   -3.8953  -17.5345 H   0  0  0  0  0  0  0  0  0  0  0  0
    4.5610    7.0545  -25.5586 H   0  0  0  0  0  0  0  0  0  0  0  0
    3.3587    3.0984  -21.1151 H   0  0  0  0  0  0  0  0  0  0  0  0
    2.0574    3.5041  -18.9667 H   0  0  0  0  0  0  0  0  0  0  0  0
    2.9751    3.9613  -17.5708 H   0  0  0  0  0  0  0  0  0  0  0  0
  1  2  3  0  0  0  0
  1 11  1  0  0  0  0
  2 19  1  0  0  0  0
  3  4  1  0  0  0  0
  3  5  2  0  0  0  0
  4 11  2  0  0  0  0
  5 13  1  0  0  0  0
  6  8  2  0  0  0  0
  6 12  1  0  0  0  0
  7  9  1  0  0  0  0
  7 12  2  0  0  0  0
  8 14  1  0  0  0  0
  9 14  2  0  0  0  0
 10 11  1  0  0  0  0
 10 13  2  0  0  0  0
 12 17  1  0  0  0  0
 13 17  1  0  0  0  0
 14 25  1  0  0  0  0
 15 17  1  0  0  0  0
 15 21  1  0  0  0  0
 15 24  2  0  0  0  0
 16 21  1  0  0  0  0
 16 22  2  0  0  0  0
 16 23  1  0  0  0  0
 17 22  1  0  0  0  0
 18 21  1  0  0  0  0
 19 26  1  0  0  0  0
 20 25  1  0  0  0  0
 20 27  1  0  0  0  0
 20 28  1  0  0  0  0
  3 29  1  0  0  0  0
  4 30  1  0  0  0  0
  5 31  1  0  0  0  0
  6 32  1  0  0  0  0
  7 33  1  0  0  0  0
  8 34  1  0  0  0  0
  9 35  1  0  0  0  0
 10 36  1  0  0  0  0
 18 37  1  0  0  0  0
 18 38  1  0  0  0  0
 18 39  1  0  0  0  0
 19 40  1  0  0  0  0
 19 41  1  0  0  0  0
 20 42  1  0  0  0  0
 22 43  1  0  0  0  0
 23 44  1  0  0  0  0
 23 45  1  0  0  0  0
M  CHG  1  22   1
M  END
> <OMEGA_C>
vMidQIxr6L8BrZ/BsdaNQB9jJsBjbJnBeizgQKi1H75p87TB7cnMQPiZlb9dx67BTCPXQKaNmT9t
3rLB9x2cQDYKgkAVbbnBo5ngQMhHl0AZtbHB21GjQNd+nUC+I8LBldPnQHGKskAybrrBJ9SmQIq8
Bz9BgqTBLDKwQMFeUr/7gKbBVD+6QFuUfkANArHBq8a5QJQOxz/4sqrBl0bJQHJbtkAtoMLByQvL
QAH8VkB0nZ3BPZGDQHFTZEBYG5rBRsKxQFlJQUCKq6fBSs62QKdjgEDW3IrBKgZ1QOYrYMD8nJHB
qv2uQP/X30Bqa9HByw+tQD6CckDsN5bB9xOFQGvaTUDKNqTBZBc8QPAXbEAdQpTBOEXxQNbNSkDB
+ZvBtlnSQBnJ0kCOy8rBELs5QD4oNcCzuovBeES4QK1fA0G6mtXBvj+pQA5Cw0DbfdnB/wj2QIE2
176wTLvBvdDTQKY/DcAcYrDB0KHmQOdJ/D86g7fBWbx+QFDIXUDEJrnBPWv4QNCOlED3e6vBZ/CL
QFuwn0CHesjBgJECQdbFxEAl27rBnOCQQNIkSj+WKp7BpcKZQEkyi0CVsIbBwSHCQL+wRECPQYfB
8NXPQLj3mEDQIorBFOVVQKrLisBV0pXBPoWTQAFNecCzRozBd/ORQGu+4UAXeMzBvvVWQKpLRkC6
66jBvKwDQMJCYEDku5fBUGg+QKyGfUDykIzBp1+eQLy+5r8Bl5/BQqqOQJJIJMA2J5nBCFXgQCzW
G76k/LTB0PfMQAMwlb8i0K7BlGDXQEgMmj/A4LLBSl+cQBCPgUDmcLnB52zgQKCil0BDoLHBZKSj
QBTInEDWMcLBbp3nQEzVskC4XLrBwEGnQBl/CD/KfaTBoYWwQGgyUb8Eg6bBPkq6QK+TfkDu97DB
ax26QCFbxz+nrqrB00PJQGgntkDuncLB+SDLQG0oV0AflZ3B956DQMLqZECRIZrBV+6xQFo/QUDq
o6fBj7y2QDUQgUBf4orBZH13QEf+W8A5E5HB36euQJzD30AcZdHB8hetQCE7c0B5O5bB2TWFQMU/
TUDWMaTBZw88QAe6bUDXVZTBBFvxQDYpS0Am7ZvBuz/SQJxa0kDV2crBAv1IQK4PjcAG7ZXB5D+R
QKQd9UB/YsvBP6O9QNhz+kC4EtnBYxv2QOQN1b73WrvBSuXTQP4NDcCWb7DB89nmQGTe/D/PhLfB
3Xx/QIl0XEBULbnBlBr4QBo8lUB5XKvB95CMQDRonkAZncjBCl0CQZBkxUB+wLrBvG2RQBbMSj8P
H57BpauZQKcMjEDvv4bBb/fBQAA1RkA1N4fBxc7PQPWcmUDML4rBjU+VQAx+ecCxR4zBAI9NQMUX
NsAu1IvBivKfQPZbw0BtEdXBt0RXQGOOREDT4KjBObIDQMLCYUA20ZfBNTg+QKcFgEC7rIzB

> <OMEGA_E>
YGmgPTDj8D0=

> <OMEGA_NBR>
    225522

$$$$
50168841
  -OEChem-04172616093D

 51 53  0     1  0  0  0  0  0999 V2000
    7.1566    0.0007  -22.7049 C   0  0  0  0  0  0  0  0  0  0  0  0
    6.5114   -1.0844  -22.0983 C   0  0  0  0  0  0  0  0  0  0  0  0
    6.8373    1.3090  -22.3256 C   0  0  0  0  0  0  0  0  0  0  0  0
    4.8473    4.0744  -23.1364 C   0  0  0  0  0  0  0  0  0  0  0  0
    6.9894    4.7351  -22.1814 C   0  0  0  0  0  0  0  0  0  0  0  0
    5.0852    4.9092  -24.2432 C   0  0  0  0  0  0  0  0  0  0  0  0
    7.2266    5.5652  -23.2878 C   0  0  0  0  0  0  0  0  0  0  0  0
    5.2268    0.4479  -20.6952 C   0  0  0  0  0  0  0  0  0  0  0  0
    5.5451   -0.8814  -21.0846 C   0  0  0  0  0  0  0  0  0  0  0  0
    5.7861    3.9918  -22.0815 C   0  0  0  0  0  0  0  0  0  0  0  0
    5.8470    1.5553  -21.3440 C   0  0  0  0  0  0  0  0  0  0  0  0
    6.2789    5.6763  -24.3203 C   0  0  0  0  0  0  0  0  0  0  0  0
    6.3309    3.3487  -19.6722 C   0  0  0  0  0  0  0  0  0  0  0  0
    4.0991    3.5938  -19.2461 C   0  0  0  0  0  0  0  0  0  0  0  0
    4.8909   -2.0745  -20.4707 C   0  0  0  0  0  0  0  0  0  0  0  0
    5.5418    3.0030  -20.9240 C   0  0  1  0  0  0  0  0  0  0  0  0
    5.7042    4.0841  -17.3535 C   0  0  0  0  0  0  0  0  0  0  0  0
    4.2039   -2.0031  -19.0860 C   0  0  0  0  0  0  0  0  0  0  0  0
    3.7189   -3.3964  -18.5885 C   0  0  0  0  0  0  0  0  0  0  0  0
    3.3907   -3.3623  -17.0878 C   0  0  0  0  0  0  0  0  0  0  0  0
    5.5169    7.0208  -26.2120 C   0  0  0  0  0  0  0  0  0  0  0  0
    5.3978    3.8165  -18.7643 N   0  0  0  0  0  0  0  0  0  0  0  0
    4.1460    3.1531  -20.4814 N   0  3  0  0  0  0  0  0  0  0  0  0
    2.9254    3.7942  -18.5350 N   0  0  0  0  0  0  0  0  0  0  0  0
    7.5270    3.1677  -19.4683 O   0  0  0  0  0  0  0  0  0  0  0  0
    4.9960   -3.1616  -21.0309 O   0  0  0  0  0  0  0  0  0  0  0  0
    6.5936    6.5390  -25.3657 O   0  0  0  0  0  0  0  0  0  0  0  0
    2.4768   -2.3961  -16.8137 F   0  0  0  0  0  0  0  0  0  0  0  0
    5.0859    6.0399  -27.0495 F   0  0  0  0  0  0  0  0  0  0  0  0
    4.4826    7.5075  -25.4701 F   0  0  0  0  0  0  0  0  0  0  0  0
    7.9020   -0.1728  -23.4669 H   0  0  0  0  0  0  0  0  0  0  0  0
    6.7547   -2.0899  -22.4085 H   0  0  0  0  0  0  0  0  0  0  0  0
    7.3515    2.1395  -22.7863 H   0  0  0  0  0  0  0  0  0  0  0  0
    3.9394    3.4911  -23.0915 H   0  0  0  0  0  0  0  0  0  0  0  0
    7.7302    4.6617  -21.3989 H   0  0  0  0  0  0  0  0  0  0  0  0
    4.3569    4.9675  -25.0386 H   0  0  0  0  0  0  0  0  0  0  0  0
    8.1482    6.1252  -23.3468 H   0  0  0  0  0  0  0  0  0  0  0  0
    4.5118    0.6198  -19.9042 H   0  0  0  0  0  0  0  0  0  0  0  0
    4.7993    4.4464  -16.8436 H   0  0  0  0  0  0  0  0  0  0  0  0
    6.0505    3.1580  -16.8716 H   0  0  0  0  0  0  0  0  0  0  0  0
    6.4926    4.8484  -17.2882 H   0  0  0  0  0  0  0  0  0  0  0  0
    4.9211   -1.5982  -18.3569 H   0  0  0  0  0  0  0  0  0  0  0  0
    3.3352   -1.3320  -19.1574 H   0  0  0  0  0  0  0  0  0  0  0  0
    2.8162   -3.6836  -19.1476 H   0  0  0  0  0  0  0  0  0  0  0  0
    4.5118   -4.1378  -18.7665 H   0  0  0  0  0  0  0  0  0  0  0  0
    2.9841   -4.3388  -16.7858 H   0  0  0  0  0  0  0  0  0  0  0  0
    4.3117   -3.1579  -16.5222 H   0  0  0  0  0  0  0  0  0  0  0  0
    5.9238    7.8422  -26.8199 H   0  0  0  0  0  0  0  0  0  0  0  0
    3.3449    2.9478  -21.0438 H   0  0  0  0  0  0  0  0  0  0  0  0
    2.0424    3.6000  -18.9625 H   0  0  0  0  0  0  0  0  0  0  0  0
    2.9620    4.1329  -17.5949 H   0  0  0  0  0  0  0  0  0  0  0  0
  1  2  1  0  0  0  0
  1  3  2  0  0  0  0
  2  9  2  0  0  0  0
  3 11  1  0  0  0  0
  4  6  2  0  0  0  0
  4 10  1  0  0  0  0
  5  7  1  0  0  0  0
  5 10  2  0  0  0  0
  6 12  1  0  0  0  0
  7 12  2  0  0  0  0
  8  9  1  0  0  0  0
  8 11  2  0  0  0  0
  9 15  1  0  0  0  0
 10 16  1  0  0  0  0
 11 16  1  0  0  0  0
 12 27  1  0  0  0  0
 13 16  1  0  0  0  0
 13 22  1  0  0  0  0
 13 25  2  0  0  0  0
 14 22  1  0  0  0  0
 14 23  2  0  0  0  0
 14 24  1  0  0  0  0
 15 18  1  0  0  0  0
 15 26  2  0  0  0  0
 16 23  1  0  0  0  0
 17 22  1  0  0  0  0
 18 19  1  0  0  0  0
 19 20  1  0  0  0  0
 20 28  1  0  0  0  0
 21 27  1  0  0  0  0
 21 29  1  0  0  0  0
 21 30  1  0  0  0  0
  1 31  1  0  0  0  0
  2 32  1  0  0  0  0
  3 33  1  0  0  0  0
  4 34  1  0  0  0  0
  5 35  1  0  0  0  0
  6 36  1  0  0  0  0
  7 37  1  0  0  0  0
  8 38  1  0  0  0  0
 17 39  1  0  0  0  0
 17 40  1  0  0  0  0
 17 41  1  0  0  0  0
 18 42  1  0  0  0  0
 18 43  1  0  0  0  0
 19 44  1  0  0  0  0
 19 45  1  0  0  0  0
 20 46  1  0  0  0  0
 20 47  1  0  0  0  0
 21 48  1  0  0  0  0
 23 49  1  0  0  0  0
 24 50  1  0  0  0  0
 24 51  1  0  0  0  0
M  CHG  1  23   1
M  END
> <OMEGA_C>
kgLlQADgNDqeo7XBOl3QQKTOir9QybDBS8vaQKSMpz/bmrLBzxybQLFhgkBMF7nBIKnfQLSFl0B4
c7HBnrmiQGsYnUAh8sHBjkDnQNQVskBUTbrB4UGnQItT5T64j6XBjXGxQM2lYb9QrajBqye5QHB5
f0DQprDB5hq7QCYUxz9twKrBzezIQJ+ktUDjj8LB35bKQHZRVkCtYJ3BNyyDQAYAZkAa+JnB4IGc
QErEBMD4w6PBO1axQEQxQEBXZKfBjoi2QCGxgkAD1IrBWoaGQGQyAMArsJjBjAJuQJJeWcBMtZTB
ywBZQKowV8DSs4jBP4qwQASq4EAZstHBlLqsQOdBdEBTHZbB0KuEQP/LSUAC2qPBbjk7QDrUckDB
R5TBJN3wQBC8SkD6vpvBKt+fQPZWSsBKP6jB8f7SQKo/0UD27MrB+YMeQCRaGcBugobBYr+iQOJG
wUBNZdjBUHGPQJ898ECswsvB4Nz8QDX+ML45vLvBfybYQBjBBcCMRLPBKj/rQD/uCEBSSrbBjh98
QPJuX0Bzu7jBbV33QOgslUDsMKvBWGuLQKD1nkAAT8jB6l4CQe4BxEAqxrrBwmCQQIeoHj/EO5/B
QpSZQClJjkCsv4bB0Z3BQOMbSkAG+YbBT8PPQCQmm0BVTorB0nmdQI6RzL/d2pLBpnRVQOF+qr9L
QpnBgzw0QLbAa8BbLpnB1GCQQIxohMC6IZbB+fo+QG3XisBLSYbBdfmJQJcaSsB7LYTB14+9QKzz
+kAaj9bBQxNWQDSpPECgWajBdbcCQDlmZkAqs5fBjpE9QBhBhEBLwozBbMbhQECW7rzpWrXBlR/M
QObpib/HKLDBZUrZQLgipz8SmbLBijedQJ+MgkC/N7nB7hbfQGdNnEDT97DBO72kQJXmnEA2GsLB
7E7mQBERt0Ch27nBOf6lQFH0Cj9VKaXBVw+uQD9uTr8d9qfBPzS6QCjVgUDli7DBx4a6QDLjzT+k
p6rBNA7JQAnKt0ChccLBpwHLQPMSWEBWQJ3B50WDQA3mYkCG05nBnfmWQOpZ97+rmaLBShWyQOU4
REDsXKfBPdu1QP9JeUAATorBPHZ/QMhd3b/9rJfBd29KQJD4PMBWuJPBg6iAQF6XhcC1ipDByi22
QFas70BpLM/BLpusQJ3Ib0B+wJXBq0eFQGxpT0DeAqTBHcY6QFf2aEDTGZTBvlPxQIaPTECerpvB
uFWWQDr9QcAC9qbBHYDTQOMfzkAqp8vBDUufQC+ldMDjX4nBxQKMQNA15kDl0s3Bqfu+QNg5CkFd
3MnBfAf5QIQUgb4jfrvBVX3SQB1jBsDkcbLBF1HqQPG0BkBtjrbBiP+AQDE7XUCiALnBPLv1QMvr
m0DzcKrBZZiOQOminEBKvMjBgzUBQUUmy0DPGLrBBOmPQJHGQz/EwZ7BpI2YQN1AhkDQD4bBcVrB
QDXyO0AdFYfBJZzOQJJElUDUL4nBhBiYQCtowL+ElpHBuL1TQHCKX7/4e5jBPPIkQLcNKcAys4zB
YsIeQKpyUMCYLZrB27pXQL4WnsDp8ozBsBOQQEm2ksCWvZfBFhu8QBrm9EC3v9fBa91XQC0KSUAv
1KjB39ECQDEtXkAgvpfBxRU8QOseeECKVIzBrVviQKfdhr5PO7PB2oHKQOWjnb9Eiq3BGoTaQJlg
jj9jqbHBuVyeQB6RfkD3wbnB83HhQLE8l0BqwbHBrZykQPN3m0AdWcLBOLDnQHlgs0CKXLrBD06j
QJuJDT84rKTBu0yqQIbbUb9gT6bBYBu8QKxle0CFPbHB5GG6QEXDwz+pZ6rB8xfJQH13tkCQlMLB
YtzLQFM3VkBNp53BjhCEQJqOZEBga5rBxkaNQFpD479L3aDBlBKzQNdlQECkwafBGii2QFStd0Ds
u4rBJDWdQC/dSMAuhpzB+0J2QHGaeMBuqZXBM6NmQEezTMDMv4rBHP2rQFOM4EDo+dDB71itQGm5
bkDBNpbBl0eGQP8jUEAdk6TBmQE8QCHFbUBo1JTBmfXxQFJHSUBI7ZvBfuVOQBKwu7+L85/BsmrQ
QDRP1EDPjcrBakcmQNNKdcA0eYXBVXGNQAdc80BSycrBHTy5QMoC/UC7ctjBILr6QMcmFL+Y0LjB
O9/QQKwbEsA3tq7B3QLtQBhh7D/+/bXBo6SCQHRLVUB0pbnBFDX5QI8PlUBlgavBGaCNQJ+enEAg
y8jB0hwCQYvUxkC8rbrBdLGLQLwFXj/64p7B5dGYQEvdhUARkYbBuQTBQC3nOUC6gIfB/z7PQEwN
lEAvh4nB4dulQE+4ccBCW6PBO625QP2fPcAJi5fBGZc5QHI3esD0HprBQUGGQBY0ncAWO5TBsLqQ
QHe6T8DL7YXBm+hUQJZiCcAyEIzBg+OeQFnTw0Bt3tTBaThaQEHUS0BFfKnB8RcEQMOzZEC9jZjB
twg9QP96fUBXE43BatHhQOAwAb6nm7TBvVPJQN23kL9Ygq/BQdfaQLlPnj+qN7LBM2qeQEF8gUAG
LbnBvJPfQOnpnECE27DBGuukQD1enEAA98HB9uflQB4XuECnsbnB7IyjQNr2Fj/Wh6XBEYmpQNiQ
RL+t/afBSZq7QLtUgUCWi7DBnPi6QAFfzT8ct6rBPJnIQC73t0C2Q8LBZcXLQAbFVUDYGp3BMqGD
QPCdXkCc4ZnBLEaMQOBl4L/376LB13uzQEoQREC8ZKfBJxa1QBxMbUC+8onBqKeaQKCSTMAwWaDB
YMJyQBkHgMAHrJnBlFtnQI4vXMDJOY7BQs60QL2q8ECvO87Bo3ysQF7OW0C9RZXBLYCGQI5pUUBm
M6TBV4A6QPQlakBggZTB1IDyQED0UEA9pJvBtAxPQPRms7/j6qDB1xXSQMqPzkDjasvBJg86QNxg
isANOYjB/BTAQIHS/kDdFtjBzTKLQEkB5ECxs87BPAL6QDyDzr7HXbrBOuHOQBz5CsCKWbHBlsnt
QEXC/z8bG7bBidiCQGBRWUBN+7jBsSP2QPATnUAZUKrBHYqOQPn/m0BVjMjB3qgAQUAezUCw6LnB
f2GMQA/1XD8qgZ/BgrqWQPCtbkBWf4XBGsvJQOzAOkBdrIbBhTPFQJzKlUCqLYnB3yOgQOWXbsD8
7afBZ764QKuCScAvzJvByqM0QIWlfcBBzZ3BBC6EQCh0ocB/G5nBx0uTQP3/UcC7korBbLxEQG/1
HsBtmI7Bmk+4QL9SBUFGXMjBRz5bQBp/UEAYO6nBhTkDQEufaEBviJjBCGs6QK/9c0C+mYzB9TTg
QEN8Kr4HkrTBXVnLQCbqlr9Mwq7B4KrXQHWOlz+/ZLLBwzqcQE5AgkDae7nBovLgQBfflkDU1LHB
eF2jQEkhnkC4JMLB9jPoQJpYskAwhrrBjfelQLx7Aj/ERqTBJQKuQA8tW78YhKbBRny6QKzwfUBM
GLHB+b65QB3mxD9hZKrBtnrJQBy9tkC/qMLB2RnLQFmmV0AdqZ3BJ5uDQCfoY0AYHZrBlpCXQEun
+b+Nk6DB+MSxQFvsQEAmpafBnvO2QFqdf0Ah34rBlX1/QP/C1r9O1JXB4ytPQKnrOcCKJJHBhD+G
QCYugMBaJo3BXLmuQFxU40Br1tDB5BitQJgYckDGOZbBUh6FQMTnTUCpO6TBNCc8QIJ+a0AsRZTB
injxQCTZTEBOFZzB3x+XQPryRMDMc6TBeavSQM8R00Ap3MrBM7NfQLPlncDDjYfB4/K5QH+/BEFT
K9XBmjikQGrHx0C51NjB3+b2QKfr2769vLrBtsbRQF3ADcAomrDBTALoQPFc+j+O2LbBx9V+QPdh
XkBcPLnBJ+L4QLTmk0C1pKvB48GLQL7OoED6asjB5dcCQS9KxEBl97rB3YaQQCQaRj+C1p3BFOOZ
QNI4ikAgpYbBN5HCQAFtQ0CQWYfBwszPQDWNmECqG4rBVXuXQB1MrL/Z5Y/BraJQQBT0X784MpfB
14AnQLNWJMBMZIrBOtQlQOkEVcCTaJfB+9CVQCWOj8AJC5TB+r6eQE+tY8BI8ofBXm+TQNh750CB
YMvB7xxXQBLtRkBK96jBvL8DQNbkX0DjwpfBUW4+QNmQfEC5kIzBNCzlQCCrgDyDmrXBktfQQDw1
ib8Ls7DB2qPaQJFxqT+enLLBauuaQG6ygkAyCLnBlGbfQMcCmEBpWbHBwpSiQJdgnUDl48HB1ibn
QPZZskB7O7rBA6qnQMeG6j43d6XBI/uxQFySXr93lqjBiOq4QPokgEDTkrDBTh67QK6XyD8ltarB
K9/IQE2qtUAXgcLB6GPKQBXaVkAoUJ3ByveCQK35ZUB64ZnBm+WcQHvEA8CXuKPBSSexQOTVQEDU
VKfBKlm2QIC3gkCivorBZGuIQG5i/79gfJjB3DBzQBz2WMATd5TB0zJYQC27VMBTqYjBx9OuQIeH
4EDQEdHBZISsQIN2dECrCJbB5XiEQJIeSkC8x6PB2eM6QNIdckC1JpTBDafwQDcbS0DTrpvBclmd
QK/6R8Cyl6jBWYXSQITQ0ECi6crBSREXQFQjHMBNUYfB5Sm6QBwxA0Gpi9XBGsKkQPJMxEAn89jB
cgX9QBAfH76BtLvBN9bYQGrxBMDOJLPBp7jqQKYACkDqXrbBHMh7QGP9X0CrrrjBa/L2QC3klUAP
DKvBuz+LQGhin0CGPsjBG1QCQe49xECKt7rBMPmQQIyDID8oF5/BlGCZQHQujkBcpobBi4rBQFsn
SkAL6YbBGYHPQDk/m0AON4rBaRegQA7Uy79x05LBugRZQBG8qb9nzJjBvHg8QO12bsBBTpnB9BuU
QEFhg8DcUZXBlhFDQKFGisCsDIbBSpyHQEpUQMDWzIPB/0eTQFwI5UAztcvB9q9VQDAHPUBSSKjB
KF4CQP9rZUBAjZfBtU49QD7Ig0CvnozB

> <OMEGA_E>
SMpYPjjBhj6QmX4+eOZxPuBQZj4QKEE+

> <OMEGA_NBR>
    230982

$$$$
50168838
  -OEChem-04172616093D

 50 52  0     1  0  0  0  0  0999 V2000
    4.8475    4.0695  -23.1660 C   0  0  0  0  0  0  0  0  0  0  0  0
    6.8860    1.2981  -22.2421 C   0  0  0  0  0  0  0  0  0  0  0  0
    5.0942    4.9176  -24.2647 C   0  0  0  0  0  0  0  0  0  0  0  0
    7.2068   -0.0228  -22.5879 C   0  0  0  0  0  0  0  0  0  0  0  0
    6.9312    4.8012  -22.1373 C   0  0  0  0  0  0  0  0  0  0  0  0
    5.1269    0.4741  -20.7550 C   0  0  0  0  0  0  0  0  0  0  0  0
    5.7654    4.0042  -22.0887 C   0  0  0  0  0  0  0  0  0  0  0  0
    5.8265    1.5663  -21.3436 C   0  0  0  0  0  0  0  0  0  0  0  0
    7.1777    5.6485  -23.2258 C   0  0  0  0  0  0  0  0  0  0  0  0
    6.2728    5.7036  -24.3035 C   0  0  0  0  0  0  0  0  0  0  0  0
    5.4445   -0.8635  -21.1098 C   0  0  0  0  0  0  0  0  0  0  0  0
    6.4867   -1.0969  -22.0344 C   0  0  0  0  0  0  0  0  0  0  0  0
    6.3320    3.3545  -19.6816 C   0  0  0  0  0  0  0  0  0  0  0  0
    4.1053    3.5896  -19.2375 C   0  0  0  0  0  0  0  0  0  0  0  0
    5.5298    3.0178  -20.9320 C   0  0  1  0  0  0  0  0  0  0  0  0
    8.4476    6.4743  -23.2501 C   0  0  0  0  0  0  0  0  0  0  0  0
    5.7226    4.0354  -17.3447 C   0  0  0  0  0  0  0  0  0  0  0  0
    4.6010   -2.0959  -19.2088 C   0  0  0  0  0  0  0  0  0  0  0  0
    3.6957   -3.2934  -18.8337 C   0  0  0  0  0  0  0  0  0  0  0  0
    5.5392    7.2012  -26.0189 C   0  0  0  0  0  0  0  0  0  0  0  0
    5.4065    3.8072  -18.7602 N   0  0  0  0  0  0  0  0  0  0  0  0
    4.1414    3.1905  -20.4865 N   0  3  0  0  0  0  0  0  0  0  0  0
    2.9354    3.7538  -18.5130 N   0  0  0  0  0  0  0  0  0  0  0  0
    7.5316    3.1809  -19.4889 O   0  0  0  0  0  0  0  0  0  0  0  0
    4.7008   -1.9497  -20.6515 O   0  0  0  0  0  0  0  0  0  0  0  0
    6.6140    6.4950  -25.3842 O   0  0  0  0  0  0  0  0  0  0  0  0
    6.8114   -2.3601  -22.3909 F   0  0  0  0  0  0  0  0  0  0  0  0
    3.5481   -3.3344  -17.4820 F   0  0  0  0  0  0  0  0  0  0  0  0
    4.2372   -4.4692  -19.2546 F   0  0  0  0  0  0  0  0  0  0  0  0
    6.0266    8.3836  -26.4736 F   0  0  0  0  0  0  0  0  0  0  0  0
    5.0723    6.4776  -27.0679 F   0  0  0  0  0  0  0  0  0  0  0  0
    3.9525    3.4653  -23.1453 H   0  0  0  0  0  0  0  0  0  0  0  0
    7.4514    2.1156  -22.6644 H   0  0  0  0  0  0  0  0  0  0  0  0
    4.3846    4.9684  -25.0773 H   0  0  0  0  0  0  0  0  0  0  0  0
    8.0108   -0.2162  -23.2826 H   0  0  0  0  0  0  0  0  0  0  0  0
    7.6414    4.7569  -21.3249 H   0  0  0  0  0  0  0  0  0  0  0  0
    4.3476    0.6652  -20.0320 H   0  0  0  0  0  0  0  0  0  0  0  0
    9.2516    5.8976  -23.7307 H   0  0  0  0  0  0  0  0  0  0  0  0
    8.2717    7.4005  -23.8168 H   0  0  0  0  0  0  0  0  0  0  0  0
    8.7416    6.7249  -22.2202 H   0  0  0  0  0  0  0  0  0  0  0  0
    4.8238    4.3929  -16.8208 H   0  0  0  0  0  0  0  0  0  0  0  0
    6.0625    3.0939  -16.8887 H   0  0  0  0  0  0  0  0  0  0  0  0
    6.5185    4.7903  -17.2640 H   0  0  0  0  0  0  0  0  0  0  0  0
    4.1750   -1.1756  -18.7827 H   0  0  0  0  0  0  0  0  0  0  0  0
    5.6062   -2.2611  -18.7937 H   0  0  0  0  0  0  0  0  0  0  0  0
    2.7194   -3.1344  -19.3149 H   0  0  0  0  0  0  0  0  0  0  0  0
    4.7371    7.3743  -25.2863 H   0  0  0  0  0  0  0  0  0  0  0  0
    3.3358    3.0268  -21.0558 H   0  0  0  0  0  0  0  0  0  0  0  0
    2.0515    3.5646  -18.9408 H   0  0  0  0  0  0  0  0  0  0  0  0
    2.9750    4.0615  -17.5623 H   0  0  0  0  0  0  0  0  0  0  0  0
  1  3  2  0  0  0  0
  1  7  1  0  0  0  0
  2  4  2  0  0  0  0
  2  8  1  0  0  0  0
  3 10  1  0  0  0  0
  4 12  1  0  0  0  0
  5  7  2  0  0  0  0
  5  9  1  0  0  0  0
  6  8  2  0  0  0  0
  6 11  1  0  0  0  0
  7 15  1  0  0  0  0
  8 15  1  0  0  0  0
  9 10  2  0  0  0  0
  9 16  1  0  0  0  0
 10 26  1  0  0  0  0
 11 12  2  0  0  0  0
 11 25  1  0  0  0  0
 12 27  1  0  0  0  0
 13 15  1  0  0  0  0
 13 21  1  0  0  0  0
 13 24  2  0  0  0  0
 14 21  1  0  0  0  0
 14 22  2  0  0  0  0
 14 23  1  0  0  0  0
 15 22  1  0  0  0  0
 17 21  1  0  0  0  0
 18 19  1  0  0  0  0
 18 25  1  0  0  0  0
 19 28  1  0  0  0  0
 19 29  1  0  0  0  0
 20 26  1  0  0  0  0
 20 30  1  0  0  0  0
 20 31  1  0  0  0  0
  1 32  1  0  0  0  0
  2 33  1  0  0  0  0
  3 34  1  0  0  0  0
  4 35  1  0  0  0  0
  5 36  1  0  0  0  0
  6 37  1  0  0  0  0
 16 38  1  0  0  0  0
 16 39  1  0  0  0  0
 16 40  1  0  0  0  0
 17 41  1  0  0  0  0
 17 42  1  0  0  0  0
 17 43  1  0  0  0  0
 18 44  1  0  0  0  0
 18 45  1  0  0  0  0
 19 46  1  0  0  0  0
 20 47  1  0  0  0  0
 22 48  1  0  0  0  0
 23 49  1  0  0  0  0
 23 50  1  0  0  0  0
M  CHG  1  22   1
M  END
> <OMEGA_C>
qx6bQFM5gkD2U7nBUlrcQN0mpj/f77HBtQOjQNlcnUACHsLB/Z3mQFDburz3s7TBH8zdQLijmUAq
GbHBig+kQA298j4vCqbBR364QAoigECktbDBZXK6QMd8yD+qv6rBwa/lQBvAtEBuzrnBvbrIQJGD
tkCEbcLBMzmuQMINXb/r4KjBs5LPQENojL9wRrDB8Z/KQNywVkDpc53Bul6DQD28ZUB/5pnBJPSw
QBsjQUCzdKfBVykHQcctz0AtALrBPB+3QOwhgUABworBozuTQC8jBsC0q5nBQoZsQKjGUsBiq5bB
w0CxQIxw5kC8JtDBSQKtQLmoc0DPFJbBZYaEQHoxTEBb5KPByNw7QDM+cECOGpTBqwLxQBaTS0BL
6ZvBQm2WQAGQ+b85NqXB2qXTQAvXz0DCEsvBwfbZQC4MF8CpILPByRRjQAtmVcA624vB6ZaHQGQD
j8BnCZrBp9nAQBYjBkHXydPBrVCiQJtIz0Aii9jBSfZ8QADIXUCbKbnBzHHuQH9mB0DAULXB1E6M
QP38nkA2nsjBESwAQbRlXb68QrrBRIb0QFM4mEBXmarB4B+LQPZHKj+VQaDBYQYUQSG5vECG2L3B
z1gEQSjR7EDoiL7Blt0LQcMy10DhwrHBs1yaQGqSjEAUkYbBWwDCQG0CRkD2G4fBu5fQQF5KmUCl
HIrBvpmFQDt6lr8EQ5bBCmazQHS1EMCCWZbB8QouQFKaSMAEhZrBE5aXQJz660BiSsrBZH1VQHW2
QUBdcqjBQ0wDQJ0hZEDFhpfBVmY+QNr3gUCdf4zBnEyaQIH2gkCUMrnBr3nbQCuSpj/YVbLB9jmi
QCY6nkDT+sHB2CDmQKDYUrwrKbXB8cTdQDMJmUBtKrHB/bKmQLke5T53k6XBcxW4QF8SgED4rLDB
WO+6QBCjxj8du6rBkKHlQCVWtEC917nBf1bIQFHItkAnYcLBPE6xQAKaY7/XeKjByvrQQIOhjL/u
XLDBpY3KQGFHVkDwe53BcFiDQPOWZUDI6pnBENywQP4UQEDbc6fBPVIHQXMuzkA9GrrBMlC3QH5n
gkBC5YrByLmMQMUE+r/ObZnB2nh2QBlkVcBU+ZXBEjixQFoz50CNEtDBqwWtQIJEdECzKpbBYGmE
QLhhSUDAzaPB6gs8QExHckDQI5TBwffwQP+IS0Di8pvBYtGcQKg/AcBHVKTBYmLTQGkZ0EC0B8vB
z8HbQHq8FsChUbPBJ8o3QBdEb8DIzZzB0VxVQJ4LUMDo7IvBqjvBQJl1BkFGrtPBwvahQE9j0EDs
fNjBDqJ6QMRRYEAj+LjBGTjsQFk5CEDP/LXBujiLQHRioECpZ8jBdbn+QEQ8Rb66DrvBb9r0QJQJ
l0BRwarBaSCPQPtwID8wbJ/BrvUTQal6u0DdDr7Bmp4EQRgL7EC4j77BlkUMQT3M1UAR4LHB1Jea
QHIajkB3u4bBg1nCQH08SUCZGofBkLjQQLKvmkBRZ4rB67plQDK/mr90/5jB/tmmQAss1L/QBpTB
YQ+WQO96gcAnIJbB2aaXQCbx7EBcMsrBvjJVQKwWPED/OqjBZUsDQNS/ZUBofZfBuPE+QDH7g0At
n4zB4YPfQHZrmUATQbHBSJbVQJqwoT8bYrPBxEHmQDVxtECWHbrBECffQHAYa70dPLbBplCbQHmR
g0A3wLjB99GoQEqr4D6GtaTBB5S5QEGygECQc7DBfOa5QKaSxD9jtqrBBdShQIMfnkBAtsHBztPH
QKWVt0D0bcLBhGezQD1Zab9MbafB8GjOQJbtkL/ZU7DBXb3KQCoEVkAbVZ3BUU+DQA50ZUDs75nB
R5qxQOEtQEDeV6fBrFCAQBaSm0AqecrB8p62QCGvg0Cp5IrBl7qEQO45+r+yzJnB7kKDQKdFTcCi
cJLB7r+yQJ4Y6UCLpNDBAtWsQHzQdECkIZbBmOyEQLXbSUCk1KPBJE07QBzTcEAiPpTBSj/xQPrv
TEAy0JvBzoenQJxZA8BWhaHB5aXTQCfN0EDjLMvBQ3PZQPgUGcDwI7PBuz9zQFzRisALApjBNCZK
QAxhQcBPu4rBDFTBQFCXCEEWn9LBIaWpQLKP1kCTOdrB1GX3QNeCl0ADB6vBQnnjQIkeBUAd2LfB
U6MBQZ4gx0Auj7rBhZHzQDHCgL7xB73BOph8QDnRYUBLPbjBE7KTQNQNIj/EDJ7BRMxOQJzAs0Dq
BsnB5nqPQLWVoUBnRdLBgYtjQMoHd0DOecrBvaeZQHaAj0D024bBP73BQB6dTEDj64bBptLPQCEz
nED2d4rBYGVMQBCL77/KIJ7BN4KJQIaHh79c1pTBWwOjQG+6U8Bjuo7BFPOVQKQ/6kBll8vB46tW
QKMkPUAqXajBEwADQJG4Y0AbrZfBoko9QGIQg0D5s4zBLbHeQBrimkCF67DB0M/XQLbloj+fF7PB
QjPlQPQZtkAgwLnBX9HgQAQPPr3NJLbBxdGbQG7TgkD9vbjBXsmnQOpx3j7MI6XB5p25QM/SgEBl
UrDBNa66QEy3xD/qtKrBhFWiQOJWnUCQtcHBDHvHQMb/t0BoP8LB9QyxQNNlab9bMajBlJTNQCdQ
kL+ty7DB/+HKQMCvVUAGOp3BJliDQKabZUDW/ZnBTAWyQDfjP0AvRafBM2SCQDrqmEDKwsrBvTC2
QGQEhEAi3orBE9KKQIvX8r+o75jBW/14QPIuUcB5V5TB/IK1QPLb60CgldDBtMOsQGDRdEDRGpbB
20GFQLW2SEBt0aPBk/M6QNxGckBZb5TBQ2vxQEJlTUCVrpvBRJSfQAdeA8BHSqPBAiTUQOwO0EDx
IsvBmmjXQFfDGMBc47PBLZlSQODhRMAosYrB/HeeQFFEg8DI8JLBmRSlQBEK2EBEXNnBLpeVQFs5
+kChGsrBgRT2QGjZmUB0kKrBoj7nQO3yBUCvLbfBo74AQSDsyUCbB7rBabf2QPqUb75FqLzBF2V+
QE0PX0AiUrjBnEKSQFZTHz/BjJ7BwZlQQOwesEAgpsnBPYCSQKQdn0AdbtLBKF5qQNWScEAex8rB
AhaZQLXpj0BE6YbBlzjBQH6JTUBv0obBMlnPQJaTnEAtcIrBoR1dQA9CoL8i35nBQ2yhQAbWtr8Z
VJPBdFBLQHpibcABCZrBj63HQHXyA0GZW9PBpqNXQLOfOkBFV6jBD+ECQEomZUDQ7JfB6GQ8QGNF
hEDW74zBz0bgQKsAmkBCa7HBSYjRQBLGkD+qbrPB3nrmQJHjtUBRIrrBDuHYQBhLcr4Fa7XBgRWd
QIORgkAnNLnBDgupQMScBj86dqPB5iS7QGcKgECG27DBWM+4QHSMwz8kgarBIvaiQIwjnkDl+sHB
YDLIQHm4uEBefcLBcZ6xQA0hWL99IKXBlCnJQLy/nL/gWK7B02bLQO3KVkDLkZ3BiMeDQEhSY0AV
LJrB2W6yQAoCQUB/oKfBvYSBQIrOm0BRwcrBVIO2QLDpf0D624rBb6uKQHpUMMDazJ3BAQF8QLlp
VsDpsZLBJdaxQGGq60D2MNDByCGtQO4GckAVOZbBw7GFQGa8TUDeSKTBM+U7QHCKaUAxbZTBVeDx
QL1yTUAaBZzBT7qqQPxU27/ijJzBFE7TQLfi0kCcGcvBDGTTQCg7IcBNKLDBsjpcQF9iGMCLJIzB
/U+gQHMde8CYyo3BJQ3AQCoMCkHc3NHBYhioQD922kCs49nBuu33QONjmEDYIavBj8neQIk78D8Q
u7jBCHcBQVF5yUCkbrrBNrrqQLakCL+jbLzBx76AQCiqXUBp3rjBPPyVQJQ4Uj8Lp5zBEw9QQJ4z
s0BoIsnBYoWQQCQYo0ArgdLBMoFnQDzZdkA6/srBJlWZQMaqikDcuobBM8LBQKW5Q0BRQ4fBQX/P
QJaLmEBVD4rBq7aXQOidY8DT3qLBICNcQIgAFcCGoKHB841KQHyQg8BlKZTBK22VQNjl60D5/srB
VJZYQKHZRkDYEqnB4voDQMYzXUD9/5fBTT89QEFdekCwtYzBkkmbQLL3gUDkYLnBitvbQFXApD/V
7rHBWxejQHcXnUCkLcLB09zlQPhWEr2/rLTBwrPdQIj1mUBfHLHBZ7ykQEtj8j7fn6XB26S4QNoM
gEB/v7DBPYe6QGfsxz/7mKrB11vlQPpAtUD+zbnBvY/IQBuItkB8d8LBS5CuQPrWXb++dqjB0hvP
QGBvjb9IFbDB2MDKQFsSV0A7d53Bk3iDQBpzZUCZ55nB4RixQM8zQUCQcqfBPLUGQZyN0ECB6bnB
AiK3QKCugEAcvYrBU4STQM/fCMBkWpnBzF9zQBfrWsDPr5bBHsywQBmX6EACsc/B3hStQAJ4c0Av
E5bBbquEQM+FTECP6qPBSAY8QHZMb0AjGpTB7ifxQAsMTECL8JvBfFmWQEBc+b8Z3qTB3w7TQEG/
z0AAK8vBL7PYQH2WF8DQF7PBseOJQL7Bj8A4C5zB6+0fQHuXUMAxf5nBCayfQOpzAUFiJsjBPUnB
QKNxAEHtr9fBWXd9QP0EXUBzNrnB8bPtQOJ8BkAocbXBX3mMQIV2nkDCs8jBRyr/QOZ1cL4jV7rB
k2n0QMS1mEALm6rBu5GMQN6RKz/wpp/BB9MTQcCvvkCft73BC6QDQc0Y7kCecb7BzTMLQUi22EDq
prHBl1aaQAbxi0A0iIbBBQvCQCXoREAFJofBY5DQQF/bmECBCYrBvniDQP1por/cwZXBx/mzQArc
DsAbCJbBuGN4QMh6ZcBLAo7BuiuYQJ3U0kA/2NLB6tdVQHydQkCUgKjBcIQDQJkoY0C7iZfBInc+
QPhFgUCEeozB2SCdQJSFgUAHsrnBFXHbQF5zlT8SUrHBvyikQMCInUAUV8LBzETjQPhATr5kK7PB
307eQB1gm0AIJ7HBFCmhQDDTDj8DUqXBAWO6QATRf0DaC7HBCrW5QFa0xz+BearBZvLkQLLjt0BD
qbnBo4/IQP1guECBa8LBmzeoQEjTT78CI6fBVuLJQHXnmL/OLq7BQoXLQMLlV0CSnp3BlwCEQDKO
YkC3GprBXjOyQLh7QkCtrqfBTdYFQXkA1UBZhLnB0N62QGK4eUDyq4rBe3WZQJzIO8B1853BogaA
QLg0UsAZn5PBBrqxQELD7EAjC8/BpFutQDpLcEBgG5bBJa6FQLY4UUB7WaTBWow8QFThZUCsSpTB
w/HxQMhsTUAgEpzBl2yKQIk61787gqLBtenSQGXh0EBLOsvBEpPRQPCFH8DljLDBWUMqQK9MVMDL
gJXBt82HQC0SF8Am4IvBjv2sQDgZB0G6L8jBraS9QF7m+0Crw9jB7DuBQNc8WkAmqLnBwTDvQIok
9T8KIbXB7byNQLuCnkAc6cjBte/8QG77/b4BdLjBn+L0QBVomkCMnarBk0CIQMoJWz8n05/BiG4T
QQuxxEDaVr3B2y0CQY6a8kDQ6b3By/cJQYbf3EA1MbHBO7+ZQFHKhkDTZYbBjhzCQPMsPEADdIfB
auXPQK47lUAjl4nBW5+7QOPCNcAw+JvB2ByVQElQb8D82KPBKwOLQDfHiMC48JDB1qSTQGKq2kAO
r8/BV5tYQM1pTkDbNanBUJYEQA6yWkC26ZfBIRA+QL92c0DreYzBkM3gQFJTmkBVdLHBNxXaQOz0
mT/wrrHBe2TnQCumtUD0O7rBFqjhQI6RKL6Lo7PBByqdQLpBg0DVOLnB0+SgQGgyFz9kX6XB2FG7
QHH4gECl2bDBiEm5QGkOzD8xjKrBm7SjQAwvnkCLEcLBuQjJQNgouEBtjMLBytinQAQJR7+xQafB
D/fIQBhYlL/DeK7BwX/LQJbQWEAscp3Bn8aDQII7YUAu8pnBNn6yQBqLRECrjKfBnwaCQCFRnkBN
zsrBP0+2QJg/d0BebIrBmxqbQLrZOMDLzp3BkRqCQMZPUcCFepPBCje4QOZM9ECoRc7BLAWtQJLA
bkCr35XBQ8uFQIZzU0CaQ6TBLtg7QKqnYUDvJ5TBTebxQBBKTkAV5ZvB2emKQNEy07/dWqLBr7DT
QIpT0ED2c8vBRAbRQLA/HcCTwrDBU10uQKx7VMCcS5XBE6iJQOg2F8BPmIvBE8+nQGYy7UBeLdjB
IKeXQFy/+0A5QsfBaGP4QPupmEAeJ6vBM1PtQALS+T9morXBWAQCQTHuyEDYnLrBKJj6QEPq6b4P
JbnB4YiAQG3tX0Ai07jB7TKIQLDTYj84z5/BHXpTQFPDtkDGAsnBkziRQPyZpUAviNLBpGJlQClZ
fUDYNsvBNuiYQEyLhEAwIYbBlE7CQLPoOUDvUIfBELLOQPiOlEDOO4nBtii9QLXAMMA505vBZI6X
QAZ8bMA5uaPBfJqNQNBciMDN9ZDB+JbMQMR8CEHumM7B/URZQFIWU0AWNanBvyEEQN0DV0Cd3JfB
F/c8QHWZbEBsRozBhQibQCsJgkBmpbnBe3HUQKDHkT9EJ7PBKISiQI6WnkCdMMLBaRjeQLJsW76w
BrXBJSbfQG1+lkBzsbHBITypQM4H+D7cvKPBUxm5QGVffEAkNrHBQPO4QFQiwD9Lo6rBo5PmQEcU
s0CEHrrB/WfIQIqht0CcaMLBvjm0QPfvXr+ZS6XBZBzOQHb2m788La7BVsvKQOxeVUAp453BN7WD
QD9OZkA/VZrBWPCwQDl7PkDj2KfB3Z8HQQZ8zUAMKLrBTcO3QAIGg0CgXIvB5YeIQB4tKcA5up3B
s3J5QHAUTsD+iJLBhLevQPRr5UBusdDBQm6tQMXxdEAsn5bBipiEQL4qS0B7RKTBg/k8QCeacUAo
eJTBAgPxQG/USEDWQZzB7GetQJYV4r/Q75zBtH3SQFv000AzkcrBsQXaQFsYIMCw2K/ByoxdQK6b
DsBt74vBAhufQEvOdMAd6I3BpZaVQOwf/UB7UcrBtMzAQDw5/0CxTtjBcGZ8QJ35XUCdiLnBkAni
QGSf8z8sObjBoWKLQC9koUAsksjBBufxQJl7+b7YwrvBvd72QFP8kkCjeKvBnnqUQOv2QD+QLJ3B
MEYUQVj/u0Dlb77BoJ4EQb4w7EAnML7B/r0MQShy00Cg3rHBnjSbQKZdj0CyPofBXETCQN9rSkBY
fYfBcJHRQJ3lmkBW6orBSgeQQOVHXsAtMaPBGVZaQAXEBMD14KDBEg1GQLUtfcDjwpPB/7CdQAge
y0Bxa9TBJGNVQAWXQEByxqjBDCoEQJzWZEA3ypfBZhRAQAdCg0Ak64zB

> <OMEGA_E>
QOFHPji+Sj5INkw+uKhoPlAScz6weXk+QAh/PsRfgD6oLoU+

> <OMEGA_NBR>
    238916

$$$$
50168842
  -OEChem-04172616093D

 50 52  0     1  0  0  0  0  0999 V2000
    3.4551   -2.9045  -17.3425 C   0  0  0  0  0  0  0  0  0  0  0  0
    7.0110   -0.1779  -22.6555 C   0  0  0  0  0  0  0  0  0  0  0  0
    6.6990    1.1676  -22.3884 C   0  0  0  0  0  0  0  0  0  0  0  0
    4.8766    4.0466  -23.1750 C   0  0  0  0  0  0  0  0  0  0  0  0
    6.9929    4.7343  -22.1795 C   0  0  0  0  0  0  0  0  0  0  0  0
    6.4825   -1.2064  -21.8488 C   0  0  0  0  0  0  0  0  0  0  0  0
    5.0962    4.9292  -24.2475 C   0  0  0  0  0  0  0  0  0  0  0  0
    7.2161    5.6067  -23.2564 C   0  0  0  0  0  0  0  0  0  0  0  0
    5.2747    0.4539  -20.5360 C   0  0  0  0  0  0  0  0  0  0  0  0
    5.8099    3.9535  -22.1164 C   0  0  0  0  0  0  0  0  0  0  0  0
    5.7994    1.4983  -21.3463 C   0  0  0  0  0  0  0  0  0  0  0  0
    5.6509   -0.8927  -20.7512 C   0  0  0  0  0  0  0  0  0  0  0  0
    6.2705    5.7250  -24.2896 C   0  0  0  0  0  0  0  0  0  0  0  0
    6.3406    3.3032  -19.7076 C   0  0  0  0  0  0  0  0  0  0  0  0
    4.1103    3.5919  -19.2895 C   0  0  0  0  0  0  0  0  0  0  0  0
    5.5467    2.9667  -20.9622 C   0  0  1  0  0  0  0  0  0  0  0  0
    5.7149    4.0038  -17.3763 C   0  0  0  0  0  0  0  0  0  0  0  0
    3.9822   -3.6768  -18.4744 C   0  0  0  0  0  0  0  0  0  0  0  0
    5.4205   -1.9289  -19.6432 C   0  0  0  0  0  0  0  0  0  0  0  0
    4.1488   -2.8031  -19.7556 C   0  0  0  0  0  0  0  0  0  0  0  0
    5.4361    7.0647  -26.1050 C   0  0  0  0  0  0  0  0  0  0  0  0
    3.0179   -2.2984  -16.4468 N   0  0  0  0  0  0  0  0  0  0  0  0
    5.4107    3.7630  -18.7924 N   0  0  0  0  0  0  0  0  0  0  0  0
    4.1531    3.1460  -20.5229 N   0  3  0  0  0  0  0  0  0  0  0  0
    2.9371    3.8411  -18.5936 N   0  0  0  0  0  0  0  0  0  0  0  0
    7.5396    3.1333  -19.5112 O   0  0  0  0  0  0  0  0  0  0  0  0
    6.5519    6.6226  -25.3058 O   0  0  0  0  0  0  0  0  0  0  0  0
    5.7453    8.2707  -26.6417 F   0  0  0  0  0  0  0  0  0  0  0  0
    5.1965    6.1786  -27.1080 F   0  0  0  0  0  0  0  0  0  0  0  0
    7.6593   -0.4244  -23.4833 H   0  0  0  0  0  0  0  0  0  0  0  0
    7.1474    1.9514  -22.9807 H   0  0  0  0  0  0  0  0  0  0  0  0
    3.9871    3.4343  -23.1594 H   0  0  0  0  0  0  0  0  0  0  0  0
    7.7280    4.6568  -21.3921 H   0  0  0  0  0  0  0  0  0  0  0  0
    6.7144   -2.2375  -22.0710 H   0  0  0  0  0  0  0  0  0  0  0  0
    4.3685    5.0016  -25.0422 H   0  0  0  0  0  0  0  0  0  0  0  0
    8.1227    6.1925  -23.2913 H   0  0  0  0  0  0  0  0  0  0  0  0
    4.5791    0.6922  -19.7451 H   0  0  0  0  0  0  0  0  0  0  0  0
    4.8115    4.3647  -16.8629 H   0  0  0  0  0  0  0  0  0  0  0  0
    6.0521    3.0666  -16.9094 H   0  0  0  0  0  0  0  0  0  0  0  0
    6.5094    4.7603  -17.2956 H   0  0  0  0  0  0  0  0  0  0  0  0
    4.9634   -4.0887  -18.1961 H   0  0  0  0  0  0  0  0  0  0  0  0
    3.2878   -4.5009  -18.6952 H   0  0  0  0  0  0  0  0  0  0  0  0
    6.2885   -2.6046  -19.6344 H   0  0  0  0  0  0  0  0  0  0  0  0
    5.3679   -1.3871  -18.6873 H   0  0  0  0  0  0  0  0  0  0  0  0
    4.2352   -3.4591  -20.6343 H   0  0  0  0  0  0  0  0  0  0  0  0
    3.2692   -2.1524  -19.8688 H   0  0  0  0  0  0  0  0  0  0  0  0
    4.5495    7.1535  -25.4601 H   0  0  0  0  0  0  0  0  0  0  0  0
    3.3498    2.9543  -21.0867 H   0  0  0  0  0  0  0  0  0  0  0  0
    2.0524    3.6810  -19.0314 H   0  0  0  0  0  0  0  0  0  0  0  0
    2.9757    4.1810  -17.6539 H   0  0  0  0  0  0  0  0  0  0  0  0
  1 18  1  0  0  0  0
  1 22  3  0  0  0  0
  2  3  2  0  0  0  0
  2  6  1  0  0  0  0
  3 11  1  0  0  0  0
  4  7  2  0  0  0  0
  4 10  1  0  0  0  0
  5  8  1  0  0  0  0
  5 10  2  0  0  0  0
  6 12  2  0  0  0  0
  7 13  1  0  0  0  0
  8 13  2  0  0  0  0
  9 11  2  0  0  0  0
  9 12  1  0  0  0  0
 10 16  1  0  0  0  0
 11 16  1  0  0  0  0
 12 19  1  0  0  0  0
 13 27  1  0  0  0  0
 14 16  1  0  0  0  0
 14 23  1  0  0  0  0
 14 26  2  0  0  0  0
 15 23  1  0  0  0  0
 15 24  2  0  0  0  0
 15 25  1  0  0  0  0
 16 24  1  0  0  0  0
 17 23  1  0  0  0  0
 18 20  1  0  0  0  0
 19 20  1  0  0  0  0
 21 27  1  0  0  0  0
 21 28  1  0  0  0  0
 21 29  1  0  0  0  0
  2 30  1  0  0  0  0
  3 31  1  0  0  0  0
  4 32  1  0  0  0  0
  5 33  1  0  0  0  0
  6 34  1  0  0  0  0
  7 35  1  0  0  0  0
  8 36  1  0  0  0  0
  9 37  1  0  0  0  0
 17 38  1  0  0  0  0
 17 39  1  0  0  0  0
 17 40  1  0  0  0  0
 18 41  1  0  0  0  0
 18 42  1  0  0  0  0
 19 43  1  0  0  0  0
 19 44  1  0  0  0  0
 20 45  1  0  0  0  0
 20 46  1  0  0  0  0
 21 47  1  0  0  0  0
 24 48  1  0  0  0  0
 25 49  1  0  0  0  0
 25 50  1  0  0  0  0
M  CHG  1  24   1
M  END
> <OMEGA_C>
zh9dQBHkOcCHvYrBeVrgQBQlNr5lPrXBDV7WQChzlT9yG7PB8gycQNB9gUBTZrnBgcXfQKp/l0Cf
b7HB9nDPQE5qmr9lyq7BPBSjQJ+7nUDg+sHB6unmQFVqs0AQDbrBu8qoQH9g6D7NSaTBYeq5QGYF
fUBm7rDBvJS5QPHIvz83xarBjtS0QASLZL9bAqbBqqfIQIczt0A0UcLBJubKQGpoU0AgqZ3BmYeD
QP/gZUDcUJrBpn6xQILePUCasqfBs+C2QN0egEC6AovBn9t+QLdQa8CLy5PB8HStQDjm9r88JZ3B
XcOEQJZlM8B2C57BxPStQCIS4kAc19DBiCRBQIoZE8D5koPBkiStQMvUcEDmVpbBOuaEQIJXSUDi
LqTBTfk7QAbVdUCmv5TBpkTxQE2ISEDoFpzBb6nRQKTs00BGcsrBrdm3QNtUBEEhItXBFEqmQDC3
xUBA3djBKRn1QLNP2b7Y3bvBzbfkQPvI+T+B2LfB3St/QN3LW0CLRrnB7kv3QN4ElUAcI6vBJ9zW
QI0zD8B7kbDBsMqLQNkMoEByVsjBxfYBQbMoxkCXVLrBvYeSQH82MT/t9Z3BLfiZQP6ri0BC54bB
K6vBQHpDREBsRofBFU3QQA5UmEBeXYrBZNSeQMTWgsCokZHBgGtSQEsHkMDMj5XBcjvJQEmxJsA0
E53BwMWrQEmNsb+Xf5XBo4aHQDliXcAVE6XB9TpRQDPACcBk857BQZWRQKrp5EBFrsvBdGJWQNkT
PUCgsajBjloDQCKWa0BUQJjBGHI+QJHKhUAsO43BfMVLQFI7RcCkn4jBR6TjQHCBZ72vV7XBBhrZ
QHpaoT8toLLBaBicQMh5gUCZdbnB5VnfQGI5mECAYbHBFD/QQNKIkL/t/6/BLvajQDmKnEBsQMLB
jzznQBwEs0AgLLrBL7+mQF993D4lHqXBKl+5QIbCfkAS1bDB3wa6QOy7wz9irKrBaiyyQCUMab8t
yafB443JQHr6tUDvk8LBSIvKQH8NVkC4jZ3BN0SDQBd1ZUB+DJrB8AqxQFCoP0B1hqfBGf22QCjA
gkDGAYvBa0J/QFv4U8DyLZLB46ufQC8dC8BJd6LBDCWFQAYs/L+7NZjB+mivQPhi4UAnINHBdCIi
QJ5LN8CyFYHBveKsQCNXdEDPRZbBY4aEQInZSkBgAKTB7bM7QFd7cEAtP5TBUufwQA/ySkD2/JvB
9f7SQDcZ0kBU0MrBJ32RQDB09EAbzcrBWGK+QHzZ/kAVKNjBRMr6QHHHfL4ik7vBgdjoQCsqBUC2
o7bB9Op+QO9GXEALTLnB2mv2QMJ7lkBk9qrBnX3YQAQCCcBIN7LBvU6NQP/vnUBmxMjBoDICQemG
xUBgerrBfYSPQHQXHj/Q5Z7BMC+aQGWBjkDd44bBNgXCQM8qSkARKIfBYFjQQEUXm0DBh4rBGjWf
QPz7bMBM3o/B7d5eQIxDgcCXZJfBq/yKQFv1KsCoXqjBGa+6QEFJNcBVdKDB+9lKQFy7yb8JXJrB
UKOVQDopoL97+pLBKSehQCk6xkA6cdXBYJdVQJW+P0AOjajB7hgDQB3qY0ARopfBwVc+QPN/gkAd
rYzBaNFKQO2uTMBZ1ojB+PrjQKLD5r22qbTBq9zZQEwgnD/sQLLBBSOcQB2hgUCphLnB/brfQM7K
l0DsjLHBQgnPQPvOlL+kWq/Ba4SjQLpgnUB8NMLB+i7nQMIus0AlQLrBuGOlQDBT5z4tEaXBcMi5
QJ/2fUBN/LDBRg26QDcCwz+Ik6rBGdOvQMfnZb9ce6fBXCrJQLLVtkBzksLB18fKQBQYVkDJp53B
RHmDQFI4ZUChJZrBq0+xQFGZP0Dnn6fBlx+3QKvagUACDIvBRiFvQAUCWMBefJPB522WQPtsBcBI
AqPBQWuQQKg3BsBhw5bBBnqwQKv+40CESdHBGT8tQJVVQcAsZYDBWhOtQL6vc0BGV5bB98KEQAu2
S0BTJKTB7xY8QFBxb0AWVJTBYhvxQIimSkCdE5zBDB3TQH5E00CPxcrBfViiQLXlxUBmTNjBj52P
QPyg8kCUIMvBMvv7QGkVqr5coLrBTH3qQI1TAUDBSrbBRSV/QBReXEBBXrnBwiL3QDmUlUC1N6vB
n+rWQHLWC8A3UrHBjHGMQHdQn0B9nsjBsCwCQfyuxUDvjbrBVK2NQNEtKz+bBp/BxE2aQAhrjUAu
54bBjh7CQH37R0AsSYfBgX3QQK4nmkBwfIrBR4qNQEeAh8CTb5PB80w7QGO5Y8AhQpnBygRtQDW3
BMCft6bB3kOnQCOEQMA1SKXBy3d8QHeAmr/jTJTB/emvQAzgBcBl1ZLBsXG9QCMS/0C/4dXBUh5W
QKnhQUAYv6jBF4QDQI4eY0CtvJfB9qw+QLmRgUA9uYzBarh5QK/TgcDR+IrBZ4vkQCR3/72Qn7TB
OULbQHCrmz/1JbLBSLubQJN4gkBBDbnBNg/gQHM1mEAwYbHBsb3NQDKElb+hpK/BsFmiQH5rnkAU
s8HB+L7mQMj5s0BTELrBhyilQFSV7z5PWqXB9TC6QFGrfkAsuLDBFRa7QFS7wz9JlarBQV2tQHee
YL/1HqjBqwfIQFeXt0BtPsLB8TrLQEHEVEAibJ3BO5WDQE/tZEDgJprBUT2yQCVcP0B8e6fB0UK2
QB0Qe0B8n4rBgLJoQOSqXcBgapXBLL2PQHh4/r8iK6TB2mmYQEG8HsCMqZjB+gWuQOEI5UBtZtDB
drKDQLU/kcBvp4LBaQStQM8sb0BqCJbBMniFQOYlSkA/E6TB7GI7QCf8c0C2sZTBvJ7xQApcSkBY
1pvBQq/RQA7A0UAG2crBwSGhQMxUBEEhEcvBPxG7QGkf8ECbWtrBb0b9QGsGtr6GXrrBjMHsQM2s
AECtCbbBnil+QAFbXkCSw7jBfO/3QCXLlUCKKavBAhDVQMR9DMDClrHB2qKKQL+8oEAz9cfBht4B
QeS3xkBhdrrBeP2NQPdwMT81M5/BWRaZQL8aiED0d4bBIT3BQCckPkDEK4fBqGbPQMXflUAjrInB
pXFkQKFxiMDkbZvBspgrQNHLOsCwFpXBIVhdQKSAzr9igaTBDyaTQHAyNsDjmanBm72YQNfCz7+r
JZPBHIS3QPOaP8CJWZjB0rOTQK27zUBt2tDBlP5XQMGfPkC/sqjBpjcDQF9pakBUVpjBzec8QHg1
hECAHY3BMiuJQM5QQsAf3onBX+/PQMhtOb5687fBiHnIQH46lT80RbXBa9OYQBA/iUDiCrjB2+Dj
QJbHjkBDyLLBrkvKQL9QmL9kPbDB4pqgQGr3pEDFssDB6JPrQD5KqkBvcrvBAV61QOD9/D6lG6PB
LCO6QNWvfUDgyLDBaxm7QBSQwj8mxqrBN3W9QANWWr9yxKXBL/bJQAoGtkBQUsLBjwnLQJalV0Ca
f53BmT6DQJfWZEAPFZrBLfOxQJKXPkAvjKfBZI+2QDShhUAoDovBlB+BQEypYcD+u5TBvUW3QO4F
+L+FcZ3BExaIQKFUGsBoJ53B+1q4QLyZ90CL4MrBaeSPQA3rKMC7QYHBzLusQG95dEBFOZbBshqF
QF/DRUBl26PBZcA6QPmlc0DripTB3KjxQJpdUUBQ7JvBJYjSQFCK0UBlp8rBbRzAQO/2B0HBCsLB
/qvCQNRJB0ECudPBKATaQCKW4b5G87/BtPDMQBzD9z8HOrvBp5tyQL2ed0AB67bB4/X9QOuqhUB0
l63B6czPQCdLDsAnV7LBDPCGQAw1rUDRGsbBY7cFQRp8tkBx1rzBQ7CqQGnNPj/rI5vBGhyZQFoO
kEA8AIfBAMzDQPIhU0Bh5obB4h/OQO/Fn0B87IrB5BqXQON2i8BecJbBPsQ/QIZxeMD2QZXBz/rL
QKm3MsC5aZ/BxhfAQN1cxb/RiJXB855+QP4pM8AxF6XBhvtmQEsIx796KJvBUnWWQJcr7kCOI8vB
6ihXQMsvNUDtNqjBQnsCQImFZkCS+5fBso08QIe2hUBiHo3BNFU2QIA4N8CKiIzBBtHjQAmFu75T
KbPBYN3cQN9GgD+RL7HB9oKfQBAad0B0yLnBurbjQLuNkkDNLbLB/irKQL51q7+8Ga7BLl+jQIqP
mkCT1MHBarrnQC1JsUCYU7rB5jqjQCwu2D5z0qTBGRS+QCyickCYcbHBBu+7QBOJtD+3IqrBjFGp
QNJ3cr++AKfBpH/GQOPCtkCezMHBYITMQP2JUkCJm53BKpWEQHNQZkDS/5rBIp60QKREOUABvqfB
Cne1QH/UgUC7QYvBcgR2QA06ZsCv0ZLBWM6KQLAR/b/wKqLBLoWcQM4pKcDl6pfBCuDRQBlV10Dt
tNLBVJQEQBryEcCTXofB8QStQPWTZUAoLZbBj3mHQN22SEDRx6TBAg49QHP5fkA2MJbBjgDzQPyX
TED/1pvByuLEQIyH20CgxcfBk364QJFZu0B8GtjB8CbOQJOO/kCaQdfBYub8QKosLL+Kk7jBdrTw
QPX/3j8ED7XBABqFQM6JSkBc8rnBPEr9QHkkjkBDeazBfKrPQK7SGMBgqK/BknKLQPvOnEBECsjB
HCICQUGqxEDp2brBKnWLQF43OT9MCJ/Bm/GWQJT0hkB3EIfBsGvIQK1oU0CE8YbBx1/HQEsboECJ
k4vBJKaLQCDficDPjI3B4RhVQFW+hMB9OpnBLhFZQD6nvL/TLaDBCM+EQFK3MMCiJ6jB5tukQFcU
7r+6GZLBrlm5QNsRTsAb+JnB+2DzQOGWzED4+NLBdPtcQMkBPkDMmKnBZ/wFQCmrekCbOprBB0I9
QEiHikD+rY7B

> <OMEGA_E>
sGhXPuAVYT7gwWM+sJB6Pgy9pT4QJLQ+

> <OMEGA_NBR>
    244300

$$$$
50168832
  -OEChem-04172616093D

 54 56  0     1  0  0  0  0  0999 V2000
    4.8210   -1.8381  -20.3308 C   0  0  0  0  0  0  0  0  0  0  0  0
    4.2361   -2.7630  -19.8113 C   0  0  0  0  0  0  0  0  0  0  0  0
    7.0803   -0.0303  -22.6902 C   0  0  0  0  0  0  0  0  0  0  0  0
    6.4300   -1.0760  -22.0131 C   0  0  0  0  0  0  0  0  0  0  0  0
    6.7941    1.3056  -22.3590 C   0  0  0  0  0  0  0  0  0  0  0  0
    4.8525    4.1070  -23.1293 C   0  0  0  0  0  0  0  0  0  0  0  0
    7.0195    4.7351  -22.1988 C   0  0  0  0  0  0  0  0  0  0  0  0
    5.0874    4.9346  -24.2382 C   0  0  0  0  0  0  0  0  0  0  0  0
    7.2592    5.5493  -23.3142 C   0  0  0  0  0  0  0  0  0  0  0  0
    5.2174    0.5471  -20.6559 C   0  0  0  0  0  0  0  0  0  0  0  0
    5.5027   -0.7828  -20.9949 C   0  0  0  0  0  0  0  0  0  0  0  0
    5.8034    4.0197  -22.0851 C   0  0  0  0  0  0  0  0  0  0  0  0
    5.8367    1.6062  -21.3549 C   0  0  0  0  0  0  0  0  0  0  0  0
    6.2956    5.6724  -24.3300 C   0  0  0  0  0  0  0  0  0  0  0  0
    6.3408    3.3531  -19.6681 C   0  0  0  0  0  0  0  0  0  0  0  0
    4.0987    3.5462  -19.2338 C   0  0  0  0  0  0  0  0  0  0  0  0
    5.5546    3.0456  -20.9326 C   0  0  1  0  0  0  0  0  0  0  0  0
    5.6909    3.8898  -17.2957 C   0  0  0  0  0  0  0  0  0  0  0  0
    3.5505   -3.9185  -19.2476 C   0  0  0  0  0  0  0  0  0  0  0  0
    4.0184   -4.2221  -17.8060 C   0  0  0  0  0  0  0  0  0  0  0  0
    3.0369   -3.6848  -16.7401 C   0  0  0  0  0  0  0  0  0  0  0  0
    2.9173   -2.1517  -16.7453 C   0  0  0  0  0  0  0  0  0  0  0  0
    5.4826    6.9739  -26.1749 C   0  0  0  0  0  0  0  0  0  0  0  0
    5.3942    3.7059  -18.7215 N   0  0  0  0  0  0  0  0  0  0  0  0
    4.1546    3.2046  -20.4986 N   0  3  0  0  0  0  0  0  0  0  0  0
    2.9186    3.7214  -18.5270 N   0  0  0  0  0  0  0  0  0  0  0  0
    7.5394    3.1787  -19.4732 O   0  0  0  0  0  0  0  0  0  0  0  0
    6.5924    6.5250  -25.3760 O   0  0  0  0  0  0  0  0  0  0  0  0
    4.1277   -1.5870  -16.4982 F   0  0  0  0  0  0  0  0  0  0  0  0
    5.8031    8.1794  -26.7031 F   0  0  0  0  0  0  0  0  0  0  0  0
    5.2467    6.0882  -27.1789 F   0  0  0  0  0  0  0  0  0  0  0  0
    7.7996   -0.2528  -23.4646 H   0  0  0  0  0  0  0  0  0  0  0  0
    6.6412   -2.1028  -22.2733 H   0  0  0  0  0  0  0  0  0  0  0  0
    7.3053    2.1074  -22.8710 H   0  0  0  0  0  0  0  0  0  0  0  0
    3.9396    3.5328  -23.0726 H   0  0  0  0  0  0  0  0  0  0  0  0
    7.7659    4.6532  -21.4226 H   0  0  0  0  0  0  0  0  0  0  0  0
    4.3481    5.0098  -25.0218 H   0  0  0  0  0  0  0  0  0  0  0  0
    8.1925    6.0868  -23.3939 H   0  0  0  0  0  0  0  0  0  0  0  0
    4.5221    0.7622  -19.8580 H   0  0  0  0  0  0  0  0  0  0  0  0
    4.7700    4.1669  -16.7618 H   0  0  0  0  0  0  0  0  0  0  0  0
    6.0877    2.9519  -16.8799 H   0  0  0  0  0  0  0  0  0  0  0  0
    6.4380    4.6885  -17.1769 H   0  0  0  0  0  0  0  0  0  0  0  0
    2.4688   -3.7187  -19.2354 H   0  0  0  0  0  0  0  0  0  0  0  0
    3.7543   -4.7956  -19.8794 H   0  0  0  0  0  0  0  0  0  0  0  0
    4.1075   -5.3119  -17.6861 H   0  0  0  0  0  0  0  0  0  0  0  0
    5.0014   -3.7543  -17.6482 H   0  0  0  0  0  0  0  0  0  0  0  0
    2.0424   -4.1137  -16.9326 H   0  0  0  0  0  0  0  0  0  0  0  0
    3.3884   -4.0047  -15.7481 H   0  0  0  0  0  0  0  0  0  0  0  0
    2.5547   -1.8186  -17.7290 H   0  0  0  0  0  0  0  0  0  0  0  0
    2.2050   -1.8399  -15.9672 H   0  0  0  0  0  0  0  0  0  0  0  0
    4.5937    7.0644  -25.5333 H   0  0  0  0  0  0  0  0  0  0  0  0
    3.3576    3.0705  -21.0876 H   0  0  0  0  0  0  0  0  0  0  0  0
    2.0384    3.5862  -18.9820 H   0  0  0  0  0  0  0  0  0  0  0  0
    2.9477    3.9829  -17.5623 H   0  0  0  0  0  0  0  0  0  0  0  0
  1  2  3  0  0  0  0
  1 11  1  0  0  0  0
  2 19  1  0  0  0  0
  3  4  1  0  0  0  0
  3  5  2  0  0  0  0
  4 11  2  0  0  0  0
  5 13  1  0  0  0  0
  6  8  2  0  0  0  0
  6 12  1  0  0  0  0
  7  9  1  0  0  0  0
  7 12  2  0  0  0  0
  8 14  1  0  0  0  0
  9 14  2  0  0  0  0
 10 11  1  0  0  0  0
 10 13  2  0  0  0  0
 12 17  1  0  0  0  0
 13 17  1  0  0  0  0
 14 28  1  0  0  0  0
 15 17  1  0  0  0  0
 15 24  1  0  0  0  0
 15 27  2  0  0  0  0
 16 24  1  0  0  0  0
 16 25  2  0  0  0  0
 16 26  1  0  0  0  0
 17 25  1  0  0  0  0
 18 24  1  0  0  0  0
 19 20  1  0  0  0  0
 20 21  1  0  0  0  0
 21 22  1  0  0  0  0
 22 29  1  0  0  0  0
 23 28  1  0  0  0  0
 23 30  1  0  0  0  0
 23 31  1  0  0  0  0
  3 32  1  0  0  0  0
  4 33  1  0  0  0  0
  5 34  1  0  0  0  0
  6 35  1  0  0  0  0
  7 36  1  0  0  0  0
  8 37  1  0  0  0  0
  9 38  1  0  0  0  0
 10 39  1  0  0  0  0
 18 40  1  0  0  0  0
 18 41  1  0  0  0  0
 18 42  1  0  0  0  0
 19 43  1  0  0  0  0
 19 44  1  0  0  0  0
 20 45  1  0  0  0  0
 20 46  1  0  0  0  0
 21 47  1  0  0  0  0
 21 48  1  0  0  0  0
 22 49  1  0  0  0  0
 22 50  1  0  0  0  0
 23 51  1  0  0  0  0
 25 52  1  0  0  0  0
 26 53  1  0  0  0  0
 26 54  1  0  0  0  0
M  CHG  1  25   1
M  END
> <OMEGA_C>
4EWaQJxF67+EpaLBPo6HQBbVMMCSfZ7BOJLiQKDu97yQhbXB5cLNQJq7ib/iGrDBbmnZQD4fpz8m
37LBC0ibQOxsg0DnCLnBXp/gQNCFl0AWl7HBB8yiQBLonUDI58HBSUvoQJ+TsUCOg7rBCfWmQHMM
DD9bP6XBBBawQOtlSL919afB17W5QMGhgEBYrrDBBca6QBiXzT/c1qrB43XJQAeEtUDjo8LBA+jK
QMyYVkBZWJ3BMiiDQFb1YkDX3pnBRr+xQLXqQkDqdafBOBy2QCDzeECpXYrBNDtjQNTIesAg+5nB
95aAQG0bh8Ceco7B6FtCQPLSa8Cy64XBirQ6QFS1CcBY9oXBv3GvQMop30A1ZtHBG52sQGYtbUC0
xZXBe/KEQFwYTUA5/aPBh8k6QDMrbkBON5TBlULxQGtwS0AGyZvB3fTSQCfN0ED6AcvBPBaEQIgj
y785/IPBoLK5QKjeAkHvn9XBpeSnQKDSwkBXbtnBCJb5QDRpgb5xt7vBU4TUQHqTBsC5L7LBDsXp
QG3gBkDU97bBwCJ8QHcZYkC9lLjBVYL4QCDnlEBpYavBfyOLQC1QoEC/LMjBrBQDQcnGwkCpJrvB
97SQQCEgQz9D3Z7BAKSYQFpXhUAVGIbBCs7CQOTrPEAaCofBtwPOQCkIlkBCaonBmwEeQO3/bcAe
4pnBxUVwQLN1mcAHCZ/BBXGDQCL7qcAPfY3BdgugQM5FcMB4L43B7rYCQIOjg8AHdofBS9tYQHom
gMAo+HvBp4AjQMbI6L/t1I3BTB4NQACD67+UeX/Brv+SQIgP4kBERMzBaONWQNeCREBfs6jBT3UC
QJaDZUA925fBjqY8QGXofkB+f4zB

> <OMEGA_E>
cPNIPg==

> <OMEGA_NBR>
    245498

$$$$
50176706
  -OEChem-04172616093D

 47 50  0     1  0  0  0  0  0999 V2000
    6.7015   -0.4293  -22.3902 C   0  0  0  0  0  0  0  0  0  0  0  0
    6.1609   -1.4404  -21.5779 C   0  0  0  0  0  0  0  0  0  0  0  0
    6.4902    0.9222  -22.0672 C   0  0  0  0  0  0  0  0  0  0  0  0
    5.1369    0.2515  -20.1514 C   0  0  0  0  0  0  0  0  0  0  0  0
    3.5352   -2.0990  -19.0855 C   0  0  0  0  0  0  0  0  0  0  0  0
    5.6923   -3.1936  -19.1328 C   0  0  0  0  0  0  0  0  0  0  0  0
    5.1542    3.9080  -22.8488 C   0  0  0  0  0  0  0  0  0  0  0  0
    7.0335    4.4883  -21.6698 C   0  0  0  0  0  0  0  0  0  0  0  0
    3.9346   -4.0401  -17.8475 C   0  0  0  0  0  0  0  0  0  0  0  0
    5.3775   -1.1001  -20.4554 C   0  0  0  0  0  0  0  0  0  0  0  0
    4.8595   -2.1440  -19.5638 C   0  0  0  0  0  0  0  0  0  0  0  0
    5.6960    1.2756  -20.9452 C   0  0  0  0  0  0  0  0  0  0  0  0
    5.9142    3.7018  -21.5934 C   0  0  0  0  0  0  0  0  0  0  0  0
    6.2740    2.9655  -19.2039 C   0  0  0  0  0  0  0  0  0  0  0  0
    4.0464    3.3819  -18.8980 C   0  0  0  0  0  0  0  0  0  0  0  0
    5.5253    2.7290  -20.5025 C   0  0  2  0  0  0  0  0  0  0  0  0
    7.4046    7.4753  -23.1109 C   0  0  0  0  0  0  0  0  0  0  0  0
    5.5539    3.5919  -16.8725 C   0  0  0  0  0  0  0  0  0  0  0  0
    7.9123    6.0564  -23.3955 C   0  0  0  0  0  0  0  0  0  0  0  0
    3.0894   -3.0551  -18.2436 N   0  0  0  0  0  0  0  0  0  0  0  0
    5.2199   -4.1213  -18.2747 N   0  0  0  0  0  0  0  0  0  0  0  0
    5.8215    4.7414  -23.6117 N   0  0  0  0  0  0  0  0  0  0  0  0
    6.9327    5.0680  -22.9071 N   0  0  0  0  0  0  0  0  0  0  0  0
    5.2867    3.2096  -18.2636 N   0  0  0  0  0  0  0  0  0  0  0  0
    4.1264    2.9891  -20.1472 N   0  3  0  0  0  0  0  0  0  0  0  0
    2.8873    3.8589  -18.3060 N   0  0  0  0  0  0  0  0  0  0  0  0
    7.4813    2.8749  -19.0075 O   0  0  0  0  0  0  0  0  0  0  0  0
    7.2801   -0.6910  -23.2638 H   0  0  0  0  0  0  0  0  0  0  0  0
    6.3452   -2.4783  -21.8130 H   0  0  0  0  0  0  0  0  0  0  0  0
    6.9344    1.6958  -22.6759 H   0  0  0  0  0  0  0  0  0  0  0  0
    4.5192    0.5080  -19.3034 H   0  0  0  0  0  0  0  0  0  0  0  0
    2.8768   -1.2997  -19.3923 H   0  0  0  0  0  0  0  0  0  0  0  0
    6.7098   -3.2564  -19.4891 H   0  0  0  0  0  0  0  0  0  0  0  0
    4.2082    3.4487  -23.0949 H   0  0  0  0  0  0  0  0  0  0  0  0
    7.8101    4.6199  -20.9308 H   0  0  0  0  0  0  0  0  0  0  0  0
    3.5687   -4.7913  -17.1633 H   0  0  0  0  0  0  0  0  0  0  0  0
    8.1386    8.2082  -23.4770 H   0  0  0  0  0  0  0  0  0  0  0  0
    6.4442    7.6308  -23.6241 H   0  0  0  0  0  0  0  0  0  0  0  0
    7.2665    7.6047  -22.0273 H   0  0  0  0  0  0  0  0  0  0  0  0
    4.6013    3.7256  -16.3389 H   0  0  0  0  0  0  0  0  0  0  0  0
    6.1412    2.8019  -16.3816 H   0  0  0  0  0  0  0  0  0  0  0  0
    6.1200    4.5349  -16.8538 H   0  0  0  0  0  0  0  0  0  0  0  0
    8.0507    5.9286  -24.4792 H   0  0  0  0  0  0  0  0  0  0  0  0
    8.8730    5.9026  -22.8824 H   0  0  0  0  0  0  0  0  0  0  0  0
    3.3481    2.8828  -20.7660 H   0  0  0  0  0  0  0  0  0  0  0  0
    2.0427    3.9197  -18.8380 H   0  0  0  0  0  0  0  0  0  0  0  0
    2.8957    4.1423  -17.3471 H   0  0  0  0  0  0  0  0  0  0  0  0
  1  2  1  0  0  0  0
  1  3  2  0  0  0  0
  2 10  2  0  0  0  0
  3 12  1  0  0  0  0
  4 10  1  0  0  0  0
  4 12  2  0  0  0  0
  5 11  1  0  0  0  0
  5 20  2  0  0  0  0
  6 11  2  0  0  0  0
  6 21  1  0  0  0  0
  7 13  1  0  0  0  0
  7 22  2  0  0  0  0
  8 13  2  0  0  0  0
  8 23  1  0  0  0  0
  9 20  1  0  0  0  0
  9 21  2  0  0  0  0
 10 11  1  0  0  0  0
 12 16  1  0  0  0  0
 13 16  1  0  0  0  0
 14 16  1  0  0  0  0
 14 24  1  0  0  0  0
 14 27  2  0  0  0  0
 15 24  1  0  0  0  0
 15 25  2  0  0  0  0
 15 26  1  0  0  0  0
 16 25  1  0  0  0  0
 17 19  1  0  0  0  0
 18 24  1  0  0  0  0
 19 23  1  0  0  0  0
 22 23  1  0  0  0  0
  1 28  1  0  0  0  0
  2 29  1  0  0  0  0
  3 30  1  0  0  0  0
  4 31  1  0  0  0  0
  5 32  1  0  0  0  0
  6 33  1  0  0  0  0
  7 34  1  0  0  0  0
  8 35  1  0  0  0  0
  9 36  1  0  0  0  0
 17 37  1  0  0  0  0
 17 38  1  0  0  0  0
 17 39  1  0  0  0  0
 18 40  1  0  0  0  0
 18 41  1  0  0  0  0
 18 42  1  0  0  0  0
 19 43  1  0  0  0  0
 19 44  1  0  0  0  0
 25 45  1  0  0  0  0
 26 46  1  0  0  0  0
 26 47  1  0  0  0  0
M  CHG  1  25   1
M  END
> <OMEGA_C>
k3LWQJ3Q274UH7PB8SXFQHlguL92n6zBiK/PQDAVbD+YibDBnGGkQIa/gD4MNqHB8T9iQGZVBsAO
r5jBCSe2QIZkTMDgD5nB1u6kQB0dekBeyrbBTRLhQPKfj0CyW63Bt9B7QLNIgcC8x47BGRSsQLzQ
jL+cpKPB9YCbQBM3CcCagpzBXEW2QOFFoz++j6fBhkG9QKPqbEA5v6zBxcTIQAvKPUCtoZnBz3uB
QF9wWEAJL5fB+s6wQPenLkAKBaTBgvLsQLY170As47jB4rmxQA7iZUDL+obBQjH9QFPOwUD0KbvB
1bhFQDiHQ8D38pHBxQmnQKDhg8CLMpLBr0m6QL65l0Cw5LzBsdjdQP8sokDXQbfBcSypQPVpTUDo
G5LBVguEQIBNP0B7LaHBo8k4QDP4dkDAcpLByGbvQK/9N0BnD5jBWfboQI/kML81HLrBRwzLQDqc
HsALga7B/ebdQEMQ2T9FaLXBd52QQGkJAj9kbZrBLh44QFxbpr90I5vBALfWQFFpUMC56ZvBhKmG
QHW3XEBpwrjB9ev5QDDWk0BecqfBtWVkQHFSmcBZTonB5DcCQepUA0Hg0LvBmDbOQEEv9EA8/rzB
/4boQAVa80D6N7DBKD6TQPpwbkAatoLB84TEQG9SM0B2DYPBRtfDQNodkUCG1IbBy88AQWe3vUB0
1cPB/vcNQSvivEAyD7fBNkdWQCJ/OEDcIKbBrbsCQBDcekAmtJbBpFM5QHWNhEDFxorBAWrWQEBv
2L49F7PBQWXFQNY4t79fhazBeZrPQGQIbj9oi7DBX86kQNkVhz5RHaHBlT+2QOaeS8DG6pjBpWBi
QG+fBcAOt5jBwkekQAj+ekD9trbBRDrhQF54j0Bria3BhK56QApngcCn847BKIOsQMY9i7+ThKPB
qsSbQElMCMAOZpzBpny2QMyPpD9VhafBsCu9QG1wbUBgxKzBivHIQOnJPkDQoJnBNJqBQBm+WEDp
KJfB0vSwQO5SL0CHAaTBrIHvQF507kBQvLjBPeGxQCrTZkD8+IbBEFD9QDi9wEC/jrvBCLymQN2+
g8BkLZLBbQFFQOBuQ8DoIJLBqoa5QGzel0Bg67zBm53dQD7goUCjcrfBA1ipQA4kTkB9GJLBSi6E
QHefP0D6JqHBnOw4QGMRd0BqbpLBOpfvQO5GOUCGEJjB2L7oQNPaL7+EGrrB317LQCASHsCzXa7B
NozdQAfb2T9LerXB3DCRQAfABT/8TprBCv7WQHpaT8AtpJvB6p04QKdFpL8XKZvB6bmFQNc6XkBi
jbjB93f6QOyCk0DhuKfBh3piQJnKmcBMoYnBKKMDQaKlAkGY0rvBRCbQQOco9UCPXbzBCy7tQOW0
8UAY/q/Bn2STQAEVb0BSsoLBv9XEQP6ENED4CoPB4NLDQMywkUCk1obB46f/QKCNvUBITcTB1VcO
QZ0ZukDS7bfBdIpWQFOeOEDUGKbBCeECQJ7LekDesJbBE2A5QDqchECTworBgZrHQODu576xX7XB
enK6QLyZur8IN67BrhzCQIsbZz9dtLLBTqqfQAyGej53/6HBa7O2QIvsScAY45nBNK5jQJiZBcBr
kpfBZl/uQC1/gUBqJq3BDvSrQOIHjkDXRLTBboWEQAwUf8DWuY3BLC2mQEm4jb9Qh6TBNOaZQF6I
CMCLupzBxcyuQD84oT9v2KjBvGHAQIFVbECCnqzBysjEQFTpMkDaSJrBoSp+QFieW0Cm8JfBuhWt
QJ+wLEBH3qTBTVHrQGm/4kClJMPB3M6xQGBjbUCyMojBdkzCQOrczkCLer7B3ayrQLj3gcDDYZLB
/jpPQOxmQcAAN5DB3G3zQJnzn0A9MLTB3dfLQJQaqEDdHbjBReemQLAnT0Dv+pLB3g6BQHv4REBo
EKLB+uc0QNoHeUDt4ZLBuMzpQODFHUB3XJjB3vHVQJoYOb+f7rzBKN2/QCDRH8BdIrDB25zMQG0P
1j8cK7jBLeuOQAd1Aj9LvprBO6HVQOOsTcCutp3BLqQ2QEECp7+ggZnBPcgDQbPqZUDQe6jB1c2K
QISsjEBGsLbBNgJ4QBQnl8CSyYfBWQnjQCNq/0C0z8fBwH8AQRi060D6lLzB2z77QJdUy0B+XsjB
ymuUQKchgECj94PBM87BQMG9OUCFwIPBcGHHQPRnkkCky4jBm4CyQK6K5kA3TbnB9b+sQC4rxkC7
FsXBAHlQQHddREDPHKfBVU38PzovfkBR+ZbBdc42QGGMhEBwJIvBuufGQEx+6L59erXB9qq5QD+/
ur+QVa7BZMrBQLWoZj/9wLLB9Z+fQCKyeT44AqLBnYZjQFBBBcBkiJfBvl62QLIxSsBfCZrBwJvu
QIW8gEA2L63BaEOsQP7djUDJTbTBBrSEQKqhfsAOs43B1rulQD/Zjb+xmqTBB5CZQIihCMDkzpzB
zM6uQPDzoD/E2ajBTIPAQEzVa0ACpazBuLHEQJbiM0AyUZrBO/x+QJZFXkDPD5jBKBqtQFiOLEAk
5KTBinvsQFBR5kD5ncHB6sGxQEARbkAVPojBGJ/DQDRLzECgU7/B+ZtPQMzBQMDEHZDBUJyrQKr1
gcCaeZLB1PPzQD4An0C3Q7TBhGfMQMeAp0A0MbjB9q6oQJ6FXUDjkZPBOCKBQLg5RUDkGaLBirI0
QB7rdUCixJLB5tToQHmBGkB6KJjBlwPVQMo1Ob/IEL3B+8K+QITpH8DeS7DBfFTMQBbl1T96NbjB
aCqPQDVLAj+ntprBw3c2QM4jpr9sbJnBshbVQMlNTsBG9p3BLtMDQbERZEDff6jB5xOLQObWjEDW
s7bB/MN4QPHVlsBuuIfBo7fkQL6lAEEU7cbBWpf5QKKc8kDsDLrBnCkCQXaf0UA0gsXBmY2WQF8B
iECYnITBv8u2QOTxMEDMD4TBUb3OQJbSikALj4fBuuurQHNI4UDWervBl6e2QEdLwEAe8MbB/UxQ
QNREQ0AYGKfB7h35PwuadEAim5bBXj83QIIlhECNHIvB

> <OMEGA_E>
AMhJPIBCTjxUvb0+/MHCPg==

> <OMEGA_NBR>
      3530

$$$$
50176687
  -OEChem-04172616093D

 48 51  0     1  0  0  0  0  0999 V2000
    6.6171   -0.4046  -22.4575 C   0  0  0  0  0  0  0  0  0  0  0  0
    3.0418   -3.0015  -18.2593 C   0  0  0  0  0  0  0  0  0  0  0  0
    6.1107   -1.4134  -21.6202 C   0  0  0  0  0  0  0  0  0  0  0  0
    3.5390   -2.0152  -19.1208 C   0  0  0  0  0  0  0  0  0  0  0  0
    6.4439    0.9482  -22.1154 C   0  0  0  0  0  0  0  0  0  0  0  0
    5.2172    0.2833  -20.1166 C   0  0  0  0  0  0  0  0  0  0  0  0
    3.8976   -4.0369  -17.8336 C   0  0  0  0  0  0  0  0  0  0  0  0
    5.1437    3.9411  -22.8331 C   0  0  0  0  0  0  0  0  0  0  0  0
    7.0619    4.4896  -21.7016 C   0  0  0  0  0  0  0  0  0  0  0  0
    5.4160   -1.0675  -20.4421 C   0  0  0  0  0  0  0  0  0  0  0  0
    4.8781   -2.0998  -19.5475 C   0  0  0  0  0  0  0  0  0  0  0  0
    5.7265    1.3038  -20.9428 C   0  0  0  0  0  0  0  0  0  0  0  0
    5.9296    3.7260  -21.5950 C   0  0  0  0  0  0  0  0  0  0  0  0
    5.6892   -3.1610  -19.0745 C   0  0  0  0  0  0  0  0  0  0  0  0
    6.2924    2.9939  -19.1993 C   0  0  0  0  0  0  0  0  0  0  0  0
    4.0576    3.3587  -18.8872 C   0  0  0  0  0  0  0  0  0  0  0  0
    5.5497    2.7551  -20.5007 C   0  0  2  0  0  0  0  0  0  0  0  0
    7.4392    7.4716  -23.1090 C   0  0  0  0  0  0  0  0  0  0  0  0
    5.5648    3.6111  -16.8708 C   0  0  0  0  0  0  0  0  0  0  0  0
    7.9127    6.0526  -23.4473 C   0  0  0  0  0  0  0  0  0  0  0  0
    5.1903   -4.0998  -18.2353 N   0  0  0  0  0  0  0  0  0  0  0  0
    5.8065    4.7602  -23.6143 N   0  0  0  0  0  0  0  0  0  0  0  0
    6.9390    5.0701  -22.9375 N   0  0  0  0  0  0  0  0  0  0  0  0
    5.2998    3.1956  -18.2529 N   0  0  0  0  0  0  0  0  0  0  0  0
    4.1480    3.0009  -20.1460 N   0  3  0  0  0  0  0  0  0  0  0  0
    2.8914    3.8148  -18.2926 N   0  0  0  0  0  0  0  0  0  0  0  0
    7.5007    2.9211  -19.0032 O   0  0  0  0  0  0  0  0  0  0  0  0
    6.9988   -3.2273  -19.4157 F   0  0  0  0  0  0  0  0  0  0  0  0
    7.1400   -0.6688  -23.3647 H   0  0  0  0  0  0  0  0  0  0  0  0
    2.0153   -2.9688  -17.9254 H   0  0  0  0  0  0  0  0  0  0  0  0
    6.2532   -2.4523  -21.8784 H   0  0  0  0  0  0  0  0  0  0  0  0
    2.9066   -1.2046  -19.4518 H   0  0  0  0  0  0  0  0  0  0  0  0
    6.8581    1.7199  -22.7472 H   0  0  0  0  0  0  0  0  0  0  0  0
    4.6681    0.5427  -19.2236 H   0  0  0  0  0  0  0  0  0  0  0  0
    3.5140   -4.7987  -17.1712 H   0  0  0  0  0  0  0  0  0  0  0  0
    4.1846    3.4971  -23.0552 H   0  0  0  0  0  0  0  0  0  0  0  0
    7.8603    4.6065  -20.9837 H   0  0  0  0  0  0  0  0  0  0  0  0
    8.1674    8.2025  -23.4905 H   0  0  0  0  0  0  0  0  0  0  0  0
    6.4597    7.6522  -23.5759 H   0  0  0  0  0  0  0  0  0  0  0  0
    7.3504    7.5780  -22.0177 H   0  0  0  0  0  0  0  0  0  0  0  0
    4.6136    3.7005  -16.3255 H   0  0  0  0  0  0  0  0  0  0  0  0
    6.2006    2.8608  -16.3781 H   0  0  0  0  0  0  0  0  0  0  0  0
    6.0791    4.5834  -16.8726 H   0  0  0  0  0  0  0  0  0  0  0  0
    8.0017    5.9471  -24.5386 H   0  0  0  0  0  0  0  0  0  0  0  0
    8.8924    5.8729  -22.9804 H   0  0  0  0  0  0  0  0  0  0  0  0
    3.3739    2.9090  -20.7725 H   0  0  0  0  0  0  0  0  0  0  0  0
    2.0512    3.8865  -18.8299 H   0  0  0  0  0  0  0  0  0  0  0  0
    2.8904    4.0720  -17.3262 H   0  0  0  0  0  0  0  0  0  0  0  0
  1  3  1  0  0  0  0
  1  5  2  0  0  0  0
  2  4  2  0  0  0  0
  2  7  1  0  0  0  0
  3 10  2  0  0  0  0
  4 11  1  0  0  0  0
  5 12  1  0  0  0  0
  6 10  1  0  0  0  0
  6 12  2  0  0  0  0
  7 21  2  0  0  0  0
  8 13  1  0  0  0  0
  8 22  2  0  0  0  0
  9 13  2  0  0  0  0
  9 23  1  0  0  0  0
 10 11  1  0  0  0  0
 11 14  2  0  0  0  0
 12 17  1  0  0  0  0
 13 17  1  0  0  0  0
 14 21  1  0  0  0  0
 14 28  1  0  0  0  0
 15 17  1  0  0  0  0
 15 24  1  0  0  0  0
 15 27  2  0  0  0  0
 16 24  1  0  0  0  0
 16 25  2  0  0  0  0
 16 26  1  0  0  0  0
 17 25  1  0  0  0  0
 18 20  1  0  0  0  0
 19 24  1  0  0  0  0
 20 23  1  0  0  0  0
 22 23  1  0  0  0  0
  1 29  1  0  0  0  0
  2 30  1  0  0  0  0
  3 31  1  0  0  0  0
  4 32  1  0  0  0  0
  5 33  1  0  0  0  0
  6 34  1  0  0  0  0
  7 35  1  0  0  0  0
  8 36  1  0  0  0  0
  9 37  1  0  0  0  0
 18 38  1  0  0  0  0
 18 39  1  0  0  0  0
 18 40  1  0  0  0  0
 19 41  1  0  0  0  0
 19 42  1  0  0  0  0
 19 43  1  0  0  0  0
 20 44  1  0  0  0  0
 20 45  1  0  0  0  0
 25 46  1  0  0  0  0
 26 47  1  0  0  0  0
 26 48  1  0  0  0  0
M  CHG  1  25   1
M  END
> <OMEGA_C>
Z7/TQCkoz77fqLPBWq1CQLgYQMD4EpLBuIrDQBnqtL8m9qzBvH5iQNX4AMBz95jBEzTOQOq6cj9i
7LDBe/OmQIkIkT7j7qDBtXJ5QOItgcBFq47BI5mkQKY6fEA5qrbBxPrhQCKrj0DLnK3BsE+tQM6i
iL95iaPBuxmcQC9jBsAyYZzB1z+3QPLhpj/xiqfBUr+9QFh3bkCpwqzBTA62QAFOSsCXmJjBMFvJ
QCacP0A2mJnB0NeBQNz0VkDnGJfBg5exQMxTMEBlAaTBpw3uQIIX70Ax37jBjhKyQKIbZ0By94bB
8TT9QPOuwUADlLvBOhemQHwxg8Df4ZHBuc65QHlTmEAh6rzBgQzeQDY+okDmf7fBp5epQF2ETED5
BZLBAryEQPINQEAIK6HBDA05QOokdEAlV5LBuwXwQJzyOkCIBpjB5vXfQJSMTsBTU5vBKHvkQMU1
K7/86rrBDfoAQL8APsAmZ4/BPhrIQDbzHMD0Bq/BUgY6QH0xmr9FnZvBoXXbQH4m3D9T+rXBX2GV
QI7tCj/YyZnBe+VgQCCPmcCmXonB3+eFQBHQX0ACcbjBOof7QA5ok0Cf3qfBsq0CQUc9A0F/7LvB
tbXOQAHf9EBkm7zBezbrQBJ/8kBWJLDB86KTQC3VbECnmoLBjWvGQJ0XN0BIBoPB9ofCQEmrkkAZ
+4bB1QYAQWVOvkACT8TBOUcOQXbuu0Dz17fBae5XQCUtOkAFLqbBC0YDQMS8eEC7o5bBefw4QLhN
gkAQnIrB4vLXQAh0z74EVrPBd3amQHZwhMCSZZLBYnDGQAM+tr+b8KzBFeK2QMnoS8D3g5nB6w3R
QL6vcT9grbDBK6SmQLrxgj5QR6HBHJt3QMOygMAw3Y7BtYGkQP2/eUAys7bBdpjgQJFekECxWq3B
e3OtQGe3i79m7KPBDB+cQBTSCMCi6JzBydm3QLRjpD97oafBaTy9QI9CbUDAtKzB2XhiQOqfBcAK
KpnBBkXJQG+MPUC1mJnBMeqBQDfmVkBzKJfB93yxQDWELkDaAaTBqKrpQAm78EAyGrjBndSxQDyS
YkB84YbB56L6QAgwxEDYBLvBgTFEQNElQcCVRJLB6Au5QEg4mEC3yLzBJ4vcQO1Co0C9MbfBBn6p
QCQsS0D7DZLBtIaEQFRcPUADI6HBxuU5QHeGdkAhd5LBAervQMlROEDpBJjBReYrQMgIkb8lvZzB
7LfqQB3CKL/dTLrBoEi6QGiGnsBmpY/BVRzMQAVtHcAt7a7B5XbXQKJWUMDlV5zBQ/veQE6u3D/I
iLXByfmTQBxhAT9mSZrB/ZpeQA8FmMBdTonBb5CGQDD1WkA+prjBKqz5QG28lECVgqfBthYAQQug
BEH09rrBnUTKQEin9UCN4rvBp17mQMo980AQXa/B+kaTQD+UaUB+mYLB7wvFQJ4uMEBaDIPBvG7D
QALAj0CDnYbB++/9QCmzwUAPwsPBAgUNQapJv0CSPLfBvTpXQCY4NUDLDabB4AEEQEP6ekCkvpbB
RHg6QL5whEBBzYrBKD/JQHZt0b76w7XBhjGvQNKqgMCiMZLB2YK8QG6itr/sq67Bq1W6QG9SRsCV
KZrBWhTDQFcdcT+IA7PBRuuhQO6vgT54QKLB9COGQLNGfcDojI3Bp4PsQFvEg0ByUa3Bga6pQKa9
jUAedLTBPlCoQNTIi79O8KTBGDOcQAv+B8CCLJ3BhuCvQPynoz91F6nBmvi+QDDkbUD1wazBx7tm
QHVmB8AFMZjBsiDFQK0NNEByfprBpCJ/QMdjXEDB8JfBHPqsQOc4LUA1/6TBaSflQKae5EC0c8PB
zAKyQNuhZkAEDIjBHWe9QBLwz0B1Xr7BXUlSQHijQcCKmJDBw4fwQLD3oUDldrTBoprIQL/WqECJ
VbjBSKOoQF90WEBraZPBks6AQLY3Q0AB/KHB8eI1QLJSd0BPqZLBfdTpQG/IHEAclJjBZZkqQFy8
mr9RHZvBXsbXQI9EKr8pVb3B8tHFQMq0mMA2o4/BTTDCQLaWHcCnrLDBJnHZQPqqSMBV6p3BuPbM
QEZm3D9rdLjBfBWSQN41AT8a15rBijJ7QBRrlcD6aYfBnhUDQbG4bEAKmajBH5+IQHYPi0Bp4bbB
KZ/bQJ/FAEFj3cfBGBL8QL9Q7UDWIr3BDzj0QCnKzUCr/cjBqyqWQFA1gkB9KITBg/+4QIX4KEAv
LYTBPOjNQM2QiEDcSIfBknWuQHIK50Bm4bjBipumQN2Dx0A7vMTB2PBOQBGUP0CK2abB6pr7P8+I
eEApg5bBNSQ5QLDEhEDCAIvBpd/BQMTM8L5AsLXB5xhVQLspQ8CODY/BOKG2QDDTvL/wVa7BXD5n
QP6FBcAA35bBf2y9QDeRYj9O47LBMymgQEjZZz4qlqHBoliJQGwrgcB3uIzBBpHsQPuLf0Aucq3B
YLipQMKvjECyRLTBYtOlQDbVj7+JPaTB6TebQMQ/CcC6OpzBwBitQIzAnj/Rr6jB/oO+QEtAakDf
nqzBxAu5QI6oScDhY5nBe0DEQPTuMUDwP5rBMWd/QFT6YEDazZfB1rGrQIZlK0AAt6TB+nroQJTM
3EAyscTBTIezQMAIcUDyR4jBmDDAQAtBzECA9L7BMqOvQOBFgsCIzJHBtmvxQOmWnUBxqbTBbKfJ
QHPgpUBZc7jBKk2nQKIPUUDC5JLBAtZ/QNgEREDisKHBtLk5QE6pg0BU45LB4ifpQHRdG0AMc5jB
FH7gQOgHS8Cc453B8+/NQBJQPb9Nfr3B8KQYQJhEQsCT3YrBJNq6QGX4IMDeabDBo1o5QOMmqL/I
wJjBG3HGQL7o0z+3gbjBSr2RQF9G+z5jBprB8kGCQAUVmcBbvYbBAvoCQQ6KYkDb1qjBE1KIQI6y
i0B/ebbBD1HgQI5H+UCjccnBL3gAQZU95UDOub7BmwH1QHmzw0AzAsrBE8KWQIQUg0Dx84PBK1bD
QNKbPUDcwIPBYqrJQDilk0AcL4nB4smzQOKW5UDksLnBH9unQMcMxEBJ+cTBbXNMQGd0P0D6bKbB
nNUCQIVGh0Cw5pbBCVs+QH7gjUAnVIvB

> <OMEGA_E>
YAUJPhi1Dj7QPOs+sOb9Pg==

> <OMEGA_NBR>
      7112

$$$$
50176686
  -OEChem-04172616093D

 54 58  0     1  0  0  0  0  0999 V2000
    6.4822   -0.4519  -22.5427 C   0  0  0  0  0  0  0  0  0  0  0  0
    5.9956   -1.4725  -21.7078 C   0  0  0  0  0  0  0  0  0  0  0  0
    6.3141    0.8953  -22.1762 C   0  0  0  0  0  0  0  0  0  0  0  0
    5.1041    0.2029  -20.1769 C   0  0  0  0  0  0  0  0  0  0  0  0
    5.6879   -3.2271  -19.2189 C   0  0  0  0  0  0  0  0  0  0  0  0
    3.5473   -2.1122  -19.0394 C   0  0  0  0  0  0  0  0  0  0  0  0
    6.9936    4.4987  -21.7905 C   0  0  0  0  0  0  0  0  0  0  0  0
    5.0208    3.7486  -22.6750 C   0  0  0  0  0  0  0  0  0  0  0  0
    4.0188   -4.0308  -17.7949 C   0  0  0  0  0  0  0  0  0  0  0  0
    5.3019   -1.1412  -20.5252 C   0  0  0  0  0  0  0  0  0  0  0  0
    4.8337   -2.1806  -19.6092 C   0  0  0  0  0  0  0  0  0  0  0  0
    5.6188    1.2329  -20.9821 C   0  0  0  0  0  0  0  0  0  0  0  0
    5.7940    3.6551  -21.5700 C   0  0  0  0  0  0  0  0  0  0  0  0
    6.2253    2.9418  -19.2417 C   0  0  0  0  0  0  0  0  0  0  0  0
    4.0136    3.4307  -18.9169 C   0  0  0  0  0  0  0  0  0  0  0  0
    4.0380    6.5330  -25.9859 C   0  0  0  0  0  0  0  0  0  0  0  0
    3.4456    5.1667  -26.3449 C   0  0  0  0  0  0  0  0  0  0  0  0
    5.3863    6.2335  -25.3048 C   0  0  0  0  0  0  0  0  0  0  0  0
    3.8724    4.2961  -25.1846 C   0  0  0  0  0  0  0  0  0  0  0  0
    5.3341    4.7437  -24.9076 C   0  0  0  0  0  0  0  0  0  0  0  0
    5.4520    2.6738  -20.5002 C   0  0  2  0  0  0  0  0  0  0  0  0
    5.5987    3.8779  -17.0005 C   0  0  0  0  0  0  0  0  0  0  0  0
    5.2708   -4.1315  -18.3093 N   0  0  0  0  0  0  0  0  0  0  0  0
    3.1550   -3.0462  -18.1493 N   0  0  0  0  0  0  0  0  0  0  0  0
    6.9038    5.0240  -22.9918 N   0  0  0  0  0  0  0  0  0  0  0  0
    5.7336    4.5544  -23.5038 N   0  0  0  0  0  0  0  0  0  0  0  0
    5.2698    3.2956  -18.3029 N   0  0  0  0  0  0  0  0  0  0  0  0
    4.0522    2.9056  -20.1154 N   0  3  0  0  0  0  0  0  0  0  0  0
    2.8816    4.0065  -18.3604 N   0  0  0  0  0  0  0  0  0  0  0  0
    7.4427    2.9037  -19.1020 O   0  0  0  0  0  0  0  0  0  0  0  0
    6.9849   -0.7021  -23.4652 H   0  0  0  0  0  0  0  0  0  0  0  0
    6.1526   -2.5080  -21.9711 H   0  0  0  0  0  0  0  0  0  0  0  0
    6.7147    1.6772  -22.8042 H   0  0  0  0  0  0  0  0  0  0  0  0
    4.5515    0.4483  -19.2820 H   0  0  0  0  0  0  0  0  0  0  0  0
    6.6764   -3.3066  -19.6467 H   0  0  0  0  0  0  0  0  0  0  0  0
    2.8759   -1.3126  -19.3151 H   0  0  0  0  0  0  0  0  0  0  0  0
    7.7990    4.6540  -21.0878 H   0  0  0  0  0  0  0  0  0  0  0  0
    4.0602    3.2895  -22.8563 H   0  0  0  0  0  0  0  0  0  0  0  0
    3.6962   -4.7659  -17.0725 H   0  0  0  0  0  0  0  0  0  0  0  0
    4.1916    7.1354  -26.8934 H   0  0  0  0  0  0  0  0  0  0  0  0
    3.3709    7.0717  -25.2968 H   0  0  0  0  0  0  0  0  0  0  0  0
    2.3492    5.2180  -26.4184 H   0  0  0  0  0  0  0  0  0  0  0  0
    3.8596    4.7929  -27.2930 H   0  0  0  0  0  0  0  0  0  0  0  0
    6.2168    6.4151  -26.0029 H   0  0  0  0  0  0  0  0  0  0  0  0
    5.5130    6.8638  -24.4123 H   0  0  0  0  0  0  0  0  0  0  0  0
    3.2346    4.4729  -24.3059 H   0  0  0  0  0  0  0  0  0  0  0  0
    3.8331    3.2312  -25.4578 H   0  0  0  0  0  0  0  0  0  0  0  0
    6.0079    4.1763  -25.5664 H   0  0  0  0  0  0  0  0  0  0  0  0
    4.6722    4.0697  -16.4395 H   0  0  0  0  0  0  0  0  0  0  0  0
    6.2313    3.1777  -16.4352 H   0  0  0  0  0  0  0  0  0  0  0  0
    6.1403    4.8239  -17.1482 H   0  0  0  0  0  0  0  0  0  0  0  0
    3.2545    2.6951  -20.6806 H   0  0  0  0  0  0  0  0  0  0  0  0
    2.0286    4.0373  -18.8815 H   0  0  0  0  0  0  0  0  0  0  0  0
    2.9181    4.3909  -17.4379 H   0  0  0  0  0  0  0  0  0  0  0  0
  1  2  1  0  0  0  0
  1  3  2  0  0  0  0
  2 10  2  0  0  0  0
  3 12  1  0  0  0  0
  4 10  1  0  0  0  0
  4 12  2  0  0  0  0
  5 11  1  0  0  0  0
  5 23  2  0  0  0  0
  6 11  2  0  0  0  0
  6 24  1  0  0  0  0
  7 13  1  0  0  0  0
  7 25  2  0  0  0  0
  8 13  2  0  0  0  0
  8 26  1  0  0  0  0
  9 23  1  0  0  0  0
  9 24  2  0  0  0  0
 10 11  1  0  0  0  0
 12 21  1  0  0  0  0
 13 21  1  0  0  0  0
 14 21  1  0  0  0  0
 14 27  1  0  0  0  0
 14 30  2  0  0  0  0
 15 27  1  0  0  0  0
 15 28  2  0  0  0  0
 15 29  1  0  0  0  0
 16 17  1  0  0  0  0
 16 18  1  0  0  0  0
 17 19  1  0  0  0  0
 18 20  1  0  0  0  0
 19 20  1  0  0  0  0
 20 26  1  0  0  0  0
 21 28  1  0  0  0  0
 22 27  1  0  0  0  0
 25 26  1  0  0  0  0
  1 31  1  0  0  0  0
  2 32  1  0  0  0  0
  3 33  1  0  0  0  0
  4 34  1  0  0  0  0
  5 35  1  0  0  0  0
  6 36  1  0  0  0  0
  7 37  1  0  0  0  0
  8 38  1  0  0  0  0
  9 39  1  0  0  0  0
 16 40  1  0  0  0  0
 16 41  1  0  0  0  0
 17 42  1  0  0  0  0
 17 43  1  0  0  0  0
 18 44  1  0  0  0  0
 18 45  1  0  0  0  0
 19 46  1  0  0  0  0
 19 47  1  0  0  0  0
 20 48  1  0  0  0  0
 22 49  1  0  0  0  0
 22 50  1  0  0  0  0
 22 51  1  0  0  0  0
 28 52  1  0  0  0  0
 29 53  1  0  0  0  0
 29 54  1  0  0  0  0
M  CHG  1  28   1
M  END
> <OMEGA_C>
723PQIRZ575rV7TBCNy/QEB5vL97qa3BswzKQNQwZT/FaLHBEVWjQDbGTz44aqHBTwO2QMaITsBA
wJnBpgdjQA8vB8CrUJjB+svfQML1j0DwUq7BEqqgQPPob0BXZrXB1ZmAQAr8gMAGXI7BIKmpQBoT
kr+JM6TBda2aQBSPC8C435zBI82zQMPPnT9M26fBSmi5QMPsaUBQj6zBCTbHQHlGPEDo7pnBcW+A
QP2QW0C7VZfB8DaBQKgO0UAX48/BKoRcQIJVpUBHwtLBY1ysQCx5x0BHcMrBqNR3QEp5iUACesnB
QbGqQBLMl0C1QsfBrHauQPkeK0B6AKTB7SizQIgveEAUAYjBZaqoQCA1hMBeeZLBhutJQHT0QsC8
MZHBN+zcQOTEoEAn77fBT3m3QNi9kUCwB7zBgqKoQKfrUkBWbJLBeKuBQBD1OUBO7KDBxms4QDA1
gEAH4pLBbyruQFzWOUDR0JjBEITfQDG+M7/BuLvBxOHEQHKDIMDVxK/Byd7WQLmu1j8Nb7bB06WR
QJmK5T6RQZrBzqTVQBifU8BoLJ3BQw44QM0BqL9VhZrBM5H5QNXtlEDhs6jB5OyBQDeHUkDL2bbB
No5sQKaCmMCVlIjBMSGGQFNV5EClJdfBP71XQJdL4kDGX8rByVkWQMj5pkD3WNPBpQN3QJtfmUD4
V9rBBfDGQIhIzUDgBdDBx2qwQJOk20BSTMPBQARPQCMij0CGcsLBsFF1QKnMTkB+qcvB10DAQCik
hUAUiMzBr4KVQBw7gkAlhIPBaGbHQBVfS0A7e4PBj33EQEFdmkCDL4nB8klQQJt8LEDKcaXBIdUB
QIExgUA5DZfBhcI6QHuCjEDlgIvB5wXtQPdDjL7rFa7BZmDWQC4dqL9DF6nBhebiQFfzhz+hv6vB
k4iqQGwHpz4gnp/Brc6zQDtQVcBXzZnB+/9oQGtC+r82XZjB6/uvQNGcR0D1BLjB/OrIQDz2nECu
Ya7BaL1sQAyAg8BIKpHBQ3q1QJWGgr8ZraHBrgufQIUGB8BG+JvBG0LAQLNDsD/l1KTBjmW5QMls
aECAH63BCy/LQFSDW0DkW5nB0eaCQNmXYUCTDZbBLjWjQMTV/0DYjMbBvxrHQF079kA9fs7B/7m0
QJJh8ED7u7vBwwHYQP7XykAqzcrBdJPVQGaLzEAGWb7BRTGzQPKtNUB11qLBSZ+0QNE9jUDck4fB
2DufQMX1icCpb5TBR7BBQLwpPcDQCpPB4TO7QF/AgEBOC7/B4irJQAXlokDeULnBK8+rQDXveEAb
YJLB6eeFQMPWPUBWkp/BLyA5QIUFb0AWpZDBFxTyQM6rX0CbKZjB/BgDQaSAAL+6t7PBfRjeQN3U
FcA76qrB0Z71QGLW7T+vPa/BlEyRQIWSDT/4/5nBvVTUQNgrX8CXc5zB7zxHQAkThL+U35nBUSKi
QCoACkBb2bnBlazSQCo5s0BDPajBlpBMQAfXnMDh4YzBslGcQKorEUGUT8bBBPGFQOZC7kA+ssjB
Vam6QL1f9EA7ttbBtkfgQJdjB0HTFM7BIIfEQBZwBUEAf7fB16OaQCqf40DVwrbBgOvDQB3KsEBl
7s3B6jv5QAUyxkCqds3BLg71QF5i1kDiRbvBg2CWQNOslkAwvoPBSkjEQH2faED7wILBL8zJQABC
qUAGLYjBH+xZQM/SKkCm+6PBIcYBQOUZXUBg+pPBKWA5QMNLhUDhbInB

> <OMEGA_E>
0JjYPuw5Gz8=

> <OMEGA_NBR>
      9213

$$$$
50176682
  -OEChem-04172616093D

 54 57  0     1  0  0  0  0  0999 V2000
    6.7244   -0.3262  -22.4206 C   0  0  0  0  0  0  0  0  0  0  0  0
    3.0545   -2.9894  -18.3128 C   0  0  0  0  0  0  0  0  0  0  0  0
    6.1656   -1.3548  -21.6454 C   0  0  0  0  0  0  0  0  0  0  0  0
    3.5380   -2.0056  -19.1843 C   0  0  0  0  0  0  0  0  0  0  0  0
    6.5365    1.0147  -22.0461 C   0  0  0  0  0  0  0  0  0  0  0  0
    5.1939    0.3013  -20.1423 C   0  0  0  0  0  0  0  0  0  0  0  0
    3.9185   -4.0210  -17.8947 C   0  0  0  0  0  0  0  0  0  0  0  0
    5.0744    3.9207  -22.7635 C   0  0  0  0  0  0  0  0  0  0  0  0
    7.0634    4.4036  -21.7236 C   0  0  0  0  0  0  0  0  0  0  0  0
    5.4132   -1.0387  -20.4940 C   0  0  0  0  0  0  0  0  0  0  0  0
    4.8726   -2.0886  -19.6258 C   0  0  0  0  0  0  0  0  0  0  0  0
    5.7442    1.3402  -20.9104 C   0  0  0  0  0  0  0  0  0  0  0  0
    5.8854    3.7358  -21.5392 C   0  0  0  0  0  0  0  0  0  0  0  0
    5.6913   -3.1480  -19.1627 C   0  0  0  0  0  0  0  0  0  0  0  0
    6.2837    3.0306  -19.1467 C   0  0  0  0  0  0  0  0  0  0  0  0
    4.0503    3.4232  -18.8463 C   0  0  0  0  0  0  0  0  0  0  0  0
    5.5356    2.7777  -20.4407 C   0  0  2  0  0  0  0  0  0  0  0  0
    8.4173    7.8179  -21.8762 C   0  0  0  0  0  0  0  0  0  0  0  0
    5.5601    3.7207  -16.8360 C   0  0  0  0  0  0  0  0  0  0  0  0
    7.3462    7.7809  -22.9812 C   0  0  0  0  0  0  0  0  0  0  0  0
    7.7675    6.8814  -24.1648 C   0  0  0  0  0  0  0  0  0  0  0  0
    8.1029    5.4442  -23.7306 C   0  0  0  0  0  0  0  0  0  0  0  0
    5.2051   -4.0844  -18.3147 N   0  0  0  0  0  0  0  0  0  0  0  0
    5.7835    4.5970  -23.6315 N   0  0  0  0  0  0  0  0  0  0  0  0
    6.9650    4.8430  -23.0160 N   0  0  0  0  0  0  0  0  0  0  0  0
    5.2936    3.2786  -18.2091 N   0  0  0  0  0  0  0  0  0  0  0  0
    4.1328    3.0046  -20.0855 N   0  3  0  0  0  0  0  0  0  0  0  0
    2.8868    3.9107  -18.2727 N   0  0  0  0  0  0  0  0  0  0  0  0
    7.4910    2.9444  -18.9491 O   0  0  0  0  0  0  0  0  0  0  0  0
    6.9987   -3.2098  -19.5138 F   0  0  0  0  0  0  0  0  0  0  0  0
    7.2981   -0.5655  -23.3038 H   0  0  0  0  0  0  0  0  0  0  0  0
    2.0323   -2.9579  -17.9656 H   0  0  0  0  0  0  0  0  0  0  0  0
    6.3114   -2.3865  -21.9297 H   0  0  0  0  0  0  0  0  0  0  0  0
    2.8993   -1.1985  -19.5115 H   0  0  0  0  0  0  0  0  0  0  0  0
    6.9961    1.8030  -22.6239 H   0  0  0  0  0  0  0  0  0  0  0  0
    4.5969    0.5360  -19.2734 H   0  0  0  0  0  0  0  0  0  0  0  0
    3.5458   -4.7800  -17.2227 H   0  0  0  0  0  0  0  0  0  0  0  0
    4.0681    3.5589  -22.9150 H   0  0  0  0  0  0  0  0  0  0  0  0
    7.8722    4.5486  -21.0227 H   0  0  0  0  0  0  0  0  0  0  0  0
    8.0768    8.4676  -21.0565 H   0  0  0  0  0  0  0  0  0  0  0  0
    8.5835    6.8005  -21.4926 H   0  0  0  0  0  0  0  0  0  0  0  0
    9.3573    8.2120  -22.2899 H   0  0  0  0  0  0  0  0  0  0  0  0
    4.6082    3.8451  -16.2989 H   0  0  0  0  0  0  0  0  0  0  0  0
    6.1755    2.9679  -16.3215 H   0  0  0  0  0  0  0  0  0  0  0  0
    6.0969    4.6806  -16.8576 H   0  0  0  0  0  0  0  0  0  0  0  0
    6.4096    7.3920  -22.5552 H   0  0  0  0  0  0  0  0  0  0  0  0
    7.1834    8.8035  -23.3525 H   0  0  0  0  0  0  0  0  0  0  0  0
    6.9416    6.8458  -24.8906 H   0  0  0  0  0  0  0  0  0  0  0  0
    8.6559    7.3210  -24.6417 H   0  0  0  0  0  0  0  0  0  0  0  0
    8.3306    4.8407  -24.6216 H   0  0  0  0  0  0  0  0  0  0  0  0
    8.9792    5.4620  -23.0660 H   0  0  0  0  0  0  0  0  0  0  0  0
    3.3546    2.8615  -20.6970 H   0  0  0  0  0  0  0  0  0  0  0  0
    2.0455    3.9577  -18.8112 H   0  0  0  0  0  0  0  0  0  0  0  0
    2.8885    4.2154  -17.3203 H   0  0  0  0  0  0  0  0  0  0  0  0
  1  3  1  0  0  0  0
  1  5  2  0  0  0  0
  2  4  2  0  0  0  0
  2  7  1  0  0  0  0
  3 10  2  0  0  0  0
  4 11  1  0  0  0  0
  5 12  1  0  0  0  0
  6 10  1  0  0  0  0
  6 12  2  0  0  0  0
  7 23  2  0  0  0  0
  8 13  1  0  0  0  0
  8 24  2  0  0  0  0
  9 13  2  0  0  0  0
  9 25  1  0  0  0  0
 10 11  1  0  0  0  0
 11 14  2  0  0  0  0
 12 17  1  0  0  0  0
 13 17  1  0  0  0  0
 14 23  1  0  0  0  0
 14 30  1  0  0  0  0
 15 17  1  0  0  0  0
 15 26  1  0  0  0  0
 15 29  2  0  0  0  0
 16 26  1  0  0  0  0
 16 27  2  0  0  0  0
 16 28  1  0  0  0  0
 17 27  1  0  0  0  0
 18 20  1  0  0  0  0
 19 26  1  0  0  0  0
 20 21  1  0  0  0  0
 21 22  1  0  0  0  0
 22 25  1  0  0  0  0
 24 25  1  0  0  0  0
  1 31  1  0  0  0  0
  2 32  1  0  0  0  0
  3 33  1  0  0  0  0
  4 34  1  0  0  0  0
  5 35  1  0  0  0  0
  6 36  1  0  0  0  0
  7 37  1  0  0  0  0
  8 38  1  0  0  0  0
  9 39  1  0  0  0  0
 18 40  1  0  0  0  0
 18 41  1  0  0  0  0
 18 42  1  0  0  0  0
 19 43  1  0  0  0  0
 19 44  1  0  0  0  0
 19 45  1  0  0  0  0
 20 46  1  0  0  0  0
 20 47  1  0  0  0  0
 21 48  1  0  0  0  0
 21 49  1  0  0  0  0
 22 50  1  0  0  0  0
 22 51  1  0  0  0  0
 27 52  1  0  0  0  0
 28 53  1  0  0  0  0
 28 54  1  0  0  0  0
M  CHG  1  27   1
M  END
> <OMEGA_C>
ji7XQCADp75mXbPBNH1DQOtSP8CngJLBsEzFQChrrb+4Ka3BFW5iQA9cAMBheZnBnCrRQB7jgT+C
XrDBljSmQC4/mj5eI6HB8cd6QA2sgMBGKI/BSmGiQE7sekCzG7bBsgfiQPHpjEDhya3BjjitQAT1
hL+r86PBiuybQDWsBcCmAZ3BGNC3QMqMqz+MSKfBeFW8QOsXb0BfUKzB0B62QCV5ScAeTZnBwhPJ
QL/1QUCILJnBrJuBQLgVW0AvxZbBeiOxQBjFMUCbhqPBEa0GQZ4s+kB+Aq/BlOyxQLwfbkAOsIbB
RBTrQH39+ECG2bfBAo/4QMc03ECaUcHBZKUBQTY3rkBS2L3BlpCmQMGzgsBshJLBcBK5QLgak0Ba
Db3BEOHeQID5mkCwILjBxGSpQDPVUUBRrJHBOECEQJZKQEAdr6DBCME4QLRIekB8LpLBWLbvQM9w
PEC9l5fBTvXfQKxsTcAsHJzBUIrpQE/HEL8fbrrByRECQCtOPcCUuY/BuPbJQAS8GMAdcK/B3o45
QB5omb+eF5zBI+DfQN7I5j+s/bTBKhqTQNc4CT/0L5rB3O5iQH31mMAcyInBCy6CQMXEY0AEUrfB
7ej7QH2OkUBnLqjBhzoBQWt7B0Gkc6jB4FUJQYCd2UDw8KvBVLcVQSlkA0HAUbLBj3aTQK0VdkA3
ZILBGp7FQMvyPUCCkoLB7BnDQE/HlUBc3IbBXxvNQHqL7EAbcbTBSN7lQCbbDEHs0brBtCHeQHkQ
20DvH8fBn34KQQpG6kA0IsXBFkoFQcvmmkAP+cTB8qoPQQvJrkA8h7jBKbJWQBUiN0Brk6XBJ+kC
QFxLfUBefZbB+Nw4QNnkhkDoj4rBU+3ZQADLqL7RO7PBAgymQMl0gsA8gZLBDeXHQFp1rr+SFK3B
ffS2QDe+SMAmqJnB87bSQMGggT+aZ7DBCFSnQKxjlD6qTaHBxhR2QPZ6fcCgO4/BMo6hQBrye0Bk
PbbB3/zgQGi6jECBya3BKUeuQKovhr+xIaTBCVycQC1IBsAtSp3B/KW4QB1bqj9pb6fBUWW7QGaZ
bkBgcqzBHGViQHC8AsCLwJnB/obJQFWOQUDIZpnBY+SBQCUwV0C/spbBGhixQAm9MEAfrqPB88nb
QHKLA0FdUL7BShKzQKtfa0CzxYbBf0/yQDlu9kDJMbTBVYAKQazR1ED45bbBVaEBQY3urkD9cL3B
NQxDQOTCPcAj35LBN3O4QC4nlECGEL3B1RfeQGDCm0ByBLjB5S6qQCRQUEAKypHBjESEQGq2PUB+
rKDBqds4QHS3ckAd35HBrETwQKDePEBl7pfBhK0sQBJiir/8a53Bpk/tQN4XEb9wIbrBhcG5QJo6
nMBah4/BS6LNQKRAGcBxMq/BRb/XQD1UTcDrUpzB6gbhQI4E5z/jD7XBI2eUQMKXBT/8UJrB2Dxc
QAPglcDAr4nBjVyBQLcOZUDOibfBtcv6QILTkED9IajBIG/DQNprD0H7DbzBjnvzQCMMC0HAocPB
JlnMQCc97ECrfsLBCcKUQNOTckAKZILBcgPHQLbgOkDtyoLByx7EQOJ6lEAm34bBF7wAQbbDCEGd
DLDBx1XaQEus50CI6a7B2TYXQel35EBLj7vBCDkRQSBsyEAEYa/BInH5QNZrukCTY8XB/DMOQc+P
lkA+Vr7BPmVWQEeCNEC4gqXBlj4CQEzrc0AqCpbBl2Q5QAmxgkA8OIrBY47aQDlip773J7PBXgCl
QL2tgcBWTpLBC0PIQDYFrr+GC63BpK+2QOCsR8D7Z5nB5v7TQHD0gT+fN7DB26aoQBiOlj7NGqHB
oCFzQHoPfMBkZY/BZGahQIJsd0AMC7bBntfgQM09jkB2Aa7BNv+uQFJ8hb+NC6TB52qcQGe9BcDV
UJ3Bk0G6QA/aqj+wMKfBRkW8QAFibkBDXKzB3rNhQG8tAsCRIJrBKnbKQLMlQ0D9LZnBno+CQBkC
V0D2o5bBlIyyQPcbMUBWe6PBJRsHQaiX+0CV8K7BTteyQGkqbEDqlobBTRLoQGCg+kCrubbBqhXy
QNwD4EBw08DBPM7+QKicsUDWOL7BzMVAQEnjPMC6UpPB03u2QM5nkkBQFb3BSDjcQA8QnEC5VrjB
pauqQNLvUECaoZHBP4OFQHYyPUCNlaDBNHk5QCwkckDY85HBWDDxQB+uP0C7ppfBChMtQPoEib/L
AZ7B+aPtQFNuEL/RGrrBrm+4QFQ1m8ByGI/B1ojNQPcJGcDSO6/B+cnXQPQ/TMBg0pvBx5DiQFo4
5z/N1bTB5f2VQEmGBj9rEprBKBBYQHX/lMDR5YnBvr+BQOkGXUCoHbfB7+b6QMsZlEDphajBIOgC
QU5nB0Eu36fBhAALQQzD2kAJb6zBwQsVQS/yBEEj87LBy0aUQK5mckBvS4LBBvjGQONAPEDpjoLB
JmvDQGQilUARoobBolPMQLt27ECboLLBHWrgQAbMDUG0JLnBc3vVQIyB30Ad9MXBGFIGQV5a70A6
JcXB8H8CQTtDoEB+uMXBg/oNQZS3sUA1SrnB82FZQKo2M0AGeqXBDEoDQBq9ckCXNZbBHhE5QOWP
gkAMUIrBX2TTQFa/tb4B0rPBXWxIQFLtQcDY2pHBXNHDQLBKsb+uQa3BQzJmQCx4AsB21JjBGwfN
QM2UfD+45LDBcp6mQNRoij7R7aDBQAWAQP9GgsAwzY7BajuiQIwifkC9NbbBA4fhQBY8i0CMbq3B
z7CtQIACib+FvqPBy16dQBbhB8A6rJzBHO21QOm5pz/+b6fBBi+7QGLYbUA9VKzBs623QGC1TMBF
UpnBAM7HQCoVP0C+UpnBfDOBQLCeX0DdC5fB4G2vQFDTL0CEqaPBl6nZQBcqAkHnMcDBHLaxQKQl
b0Dy64bBYRLsQMf/90BJM7XBGtwIQfUu2EC0PrbBX7ACQfOBr0Dlf7zBULqoQEN+hMAVf5LBwEe6
QPgHlUCr1bzBF8rfQJMYm0BZlbfBjZKoQKrxUkD24JHBaryCQNxSP0DIuaDBJZk6QEQRg0DCq5LB
iT7uQIbkNUBhspfBWe3gQHzqUcB5mZzBjkHkQJ0JGL+bHbvByqQHQBnVP8BR2o7BY8TIQF+wGsA8
fK/BHRI9QAufnL9tOJvBg7/ZQKBt4z/u2bXBIUKVQC0OAT8zspnBLTppQKmnmsCwYYnB486BQD5k
aUAds7fBCBj7QLATjkBzqafBXwe/QGt3DUHXHL/BltPyQLa3CUGPDcXBVvrNQDht50ADSMTBUXST
QIy8ekAdqoLBhATEQEQ+PUB+uoLBUYfEQKNOlUBgJ4fBIHz3QMWOCkFIKbHB4aLSQFUb6UC9Y7DB
mxkWQdEr6EDbcbrBJR4OQRzWzkCwLa7BdNT9QGgquEBh0cTBajMQQa/0mEBiZbzB8sRSQK8zM0DM
XaXBy74EQMBKhUAp9ZbBq6E8QJ69jkD/OYvBt27EQPELwb67frXBn4mtQIIhhcA455LBLdi4QFUf
s7+kYa7BwUi6QOaIScAf/5nBcg7BQERQdz+pVLLBobSlQD8miz5K66DBPmWDQOLkhMA53Y7B+LDp
QPjggUCzm6/Byu6jQIBThkBBM7XBpiWpQDe/ib/8IKTBP5WcQEyECcBmwZzBDvGxQFucpz/s66fB
/ba8QJkSbUBHCq3Brm5lQOy9DMCra5jBhuHGQOjWQUDx3JnBLAeAQKhSYkDFKJfBZQmuQA5gMUDp
LKTBMoC3QBjhEkEgLbvB0NOyQPtieECdeYfB8B+qQOp+9kBkxLvB+87AQOTi30DHNsXBTl60QJge
sEBK1cXB+9tNQKQ1TMARppHBBGbqQF/hlkBcs7jBQAnBQEF0mUCH6bvBkHqpQMgqZUDDyJLBpIWB
QFIWRUAhDKHBnVQ1QPgme0B49pHBs97sQHStM0APJJjBn2kqQE/Qor8wR5vBu/HPQD1oH7+tZr3B
a7jDQLPsncBAkJDBffG7QC27G8BjwbDBjEHaQFXWSMCnRp3BAgTKQBnW3z/Y2LfBDaGZQG28Aj95
DZnBgR1zQELbncAga4nBTaYCQaQ+dEBCyarBLqOBQCk3hEC4ILbBBBenQKmjGkFNbbTBn1PaQMXv
E0HRArrBY6uuQP/6GkGPq8LBIzqWQJfsiUCwqYPBgui7QMcVPUCoT4PBhVXNQMNHk0AkA4fBS++y
QJFz5kAgQLTBDkeHQAOK9EDe6LzB9Iy3QDi270DauczBy6TjQMFx4kDFH8TBIYaRQHdzrUAw48bB
kq3EQJJVoUAss8zBvglQQAZSPUDwx6XBJiz6P7Fgd0AywJXBjt03QPFiiECUcIrBfvXCQNse2L62
F7XBFklMQH5vTMD+xZDBV9S2QH3jtr/i5q3B5ahiQD8+CsBV05fBS0HAQK3xbD/pB7LBLlOkQKN4
iD6tk6DBgvGEQPZ3hcBmH47BRQXqQB80gEAumq/BY1ukQJsVhUDnPrXBJnunQGUHi78KpqPBHPSa
QFsjCcCcIJzBAiCxQPYEpT9wqqfBM+e8QDj4akCsBK3B/mu4QMmlScANG5nBALTGQExlQUAzxZnB
MASAQLyqY0BWJJfB7NGtQKKDMEDAEKTBNX25QPf3EUGcuLvButmyQN8nekCBeYfBt7CrQDDF9EBq
K7zBbDvCQPF53UChiMXBily1QFvMrUBkAsbBsBetQGhShMCqOJLBkAXrQBKxlEAnxLjBzLbBQACH
l0AMArzBkXWpQBIPZkDhwZLBV2qBQCSYRUCN/aDBdn01QCSpfUCi/pHB+pvsQA2eMkD3A5jBUCDh
QMC1R8Be2JzB9V3OQDviLr/5+bzBFawMQFd+T8Boao3BHDy5QPPfHcArNrDBdfI0QCtOsr/u6JnB
47/JQMk02T/Hl7fBjw2YQA56BT/vwpjBp6d4QNbvnsCpsYjB6cACQT/XcEBgvarBZwyCQKxJg0Al
L7bB/iupQMP4GUFiB7XBDlPcQO3lEkHci7rBd9uwQHvrGUH9RMPBamKWQJ1Pi0ATt4PBCpO7QGEP
P0DjN4PBpZzNQBrjk0AtEofBSU20QEYH5UBJmbTBstWIQGQS80BqUr3Bayy5QJQB7UBqGc3B2hTl
QDfF30B0b8TBa4GSQPdkq0BcFMfB4ZvFQM+DnkAe0czBTtFPQLgVPkC2uqXBS4b6PyAhekBHypXB
OiM4QCHwiUDXf4rB

> <OMEGA_E>
iOOJPlzciz6QDpY+NDSJPtwLBT+qcgg/

> <OMEGA_NBR>
     14903

$$$$
50176689
  -OEChem-04172616093D

 60 63  0     1  0  0  0  0  0999 V2000
    6.7042   -0.3134  -22.4245 C   0  0  0  0  0  0  0  0  0  0  0  0
    3.0691   -3.0326  -18.3523 C   0  0  0  0  0  0  0  0  0  0  0  0
    6.1622   -1.3428  -21.6438 C   0  0  0  0  0  0  0  0  0  0  0  0
    3.5421   -2.0320  -19.2093 C   0  0  0  0  0  0  0  0  0  0  0  0
    6.4971    1.0232  -22.0547 C   0  0  0  0  0  0  0  0  0  0  0  0
    5.1756    0.3067  -20.1384 C   0  0  0  0  0  0  0  0  0  0  0  0
    3.9498   -4.0495  -17.9320 C   0  0  0  0  0  0  0  0  0  0  0  0
    5.0429    3.9868  -22.7435 C   0  0  0  0  0  0  0  0  0  0  0  0
    7.1157    4.2061  -21.7888 C   0  0  0  0  0  0  0  0  0  0  0  0
    5.4096   -1.0295  -20.4927 C   0  0  0  0  0  0  0  0  0  0  0  0
    4.8840   -2.0839  -19.6299 C   0  0  0  0  0  0  0  0  0  0  0  0
    5.7110    1.3474  -20.9103 C   0  0  0  0  0  0  0  0  0  0  0  0
    5.8670    3.7195  -21.5420 C   0  0  0  0  0  0  0  0  0  0  0  0
    5.7226   -3.1225  -19.1589 C   0  0  0  0  0  0  0  0  0  0  0  0
    6.2622    3.0374  -19.1444 C   0  0  0  0  0  0  0  0  0  0  0  0
    4.0368    3.4626  -18.8319 C   0  0  0  0  0  0  0  0  0  0  0  0
    5.5010    2.7833  -20.4352 C   0  0  2  0  0  0  0  0  0  0  0  0
    7.6984    8.3379  -23.8545 C   0  0  0  0  0  0  0  0  0  0  0  0
    9.0354    8.5185  -21.7272 C   0  0  0  0  0  0  0  0  0  0  0  0
    6.8177    7.3772  -21.7046 C   0  0  0  0  0  0  0  0  0  0  0  0
    5.5592    3.7173  -16.8220 C   0  0  0  0  0  0  0  0  0  0  0  0
    8.9063    6.3096  -22.8833 C   0  0  0  0  0  0  0  0  0  0  0  0
    8.1686    5.2741  -23.7628 C   0  0  0  0  0  0  0  0  0  0  0  0
    8.0988    7.6088  -22.5518 C   0  0  0  0  0  0  0  0  0  0  0  0
    5.2448   -4.0788  -18.3300 N   0  0  0  0  0  0  0  0  0  0  0  0
    5.7984    4.5687  -23.6437 N   0  0  0  0  0  0  0  0  0  0  0  0
    7.0143    4.6991  -23.0606 N   0  0  0  0  0  0  0  0  0  0  0  0
    5.2815    3.3025  -18.2024 N   0  0  0  0  0  0  0  0  0  0  0  0
    4.1025    3.0274  -20.0680 N   0  3  0  0  0  0  0  0  0  0  0  0
    2.8858    3.9679  -18.2476 N   0  0  0  0  0  0  0  0  0  0  0  0
    7.4683    2.9344  -18.9467 O   0  0  0  0  0  0  0  0  0  0  0  0
    7.0392   -3.1406  -19.4810 F   0  0  0  0  0  0  0  0  0  0  0  0
    7.2792   -0.5485  -23.3080 H   0  0  0  0  0  0  0  0  0  0  0  0
    2.0424   -3.0254  -18.0173 H   0  0  0  0  0  0  0  0  0  0  0  0
    6.3204   -2.3741  -21.9228 H   0  0  0  0  0  0  0  0  0  0  0  0
    2.8908   -1.2369  -19.5409 H   0  0  0  0  0  0  0  0  0  0  0  0
    6.9376    1.8149  -22.6425 H   0  0  0  0  0  0  0  0  0  0  0  0
    4.5801    0.5354  -19.2668 H   0  0  0  0  0  0  0  0  0  0  0  0
    3.5832   -4.8251  -17.2760 H   0  0  0  0  0  0  0  0  0  0  0  0
    3.9970    3.7435  -22.8586 H   0  0  0  0  0  0  0  0  0  0  0  0
    7.9772    4.2032  -21.1375 H   0  0  0  0  0  0  0  0  0  0  0  0
    7.0309    7.6936  -24.4455 H   0  0  0  0  0  0  0  0  0  0  0  0
    7.1779    9.2744  -23.6053 H   0  0  0  0  0  0  0  0  0  0  0  0
    8.6016    8.5650  -24.4398 H   0  0  0  0  0  0  0  0  0  0  0  0
    9.3233    8.0037  -20.7986 H   0  0  0  0  0  0  0  0  0  0  0  0
    9.9370    8.7454  -22.3151 H   0  0  0  0  0  0  0  0  0  0  0  0
    8.5133    9.4548  -21.4805 H   0  0  0  0  0  0  0  0  0  0  0  0
    7.0832    6.8584  -20.7717 H   0  0  0  0  0  0  0  0  0  0  0  0
    6.3557    8.3466  -21.4662 H   0  0  0  0  0  0  0  0  0  0  0  0
    6.1065    6.7627  -22.2761 H   0  0  0  0  0  0  0  0  0  0  0  0
    4.6106    3.8625  -16.2844 H   0  0  0  0  0  0  0  0  0  0  0  0
    6.1510    2.9393  -16.3175 H   0  0  0  0  0  0  0  0  0  0  0  0
    6.1245    4.6609  -16.8296 H   0  0  0  0  0  0  0  0  0  0  0  0
    9.1685    5.8217  -21.9329 H   0  0  0  0  0  0  0  0  0  0  0  0
    9.8258    6.6068  -23.4088 H   0  0  0  0  0  0  0  0  0  0  0  0
    7.8187    5.7690  -24.6807 H   0  0  0  0  0  0  0  0  0  0  0  0
    8.8667    4.4656  -24.0253 H   0  0  0  0  0  0  0  0  0  0  0  0
    3.3167    2.8837  -20.6695 H   0  0  0  0  0  0  0  0  0  0  0  0
    2.0374    4.0168  -18.7747 H   0  0  0  0  0  0  0  0  0  0  0  0
    2.9038    4.2837  -17.2989 H   0  0  0  0  0  0  0  0  0  0  0  0
  1  3  1  0  0  0  0
  1  5  2  0  0  0  0
  2  4  2  0  0  0  0
  2  7  1  0  0  0  0
  3 10  2  0  0  0  0
  4 11  1  0  0  0  0
  5 12  1  0  0  0  0
  6 10  1  0  0  0  0
  6 12  2  0  0  0  0
  7 25  2  0  0  0  0
  8 13  1  0  0  0  0
  8 26  2  0  0  0  0
  9 13  2  0  0  0  0
  9 27  1  0  0  0  0
 10 11  1  0  0  0  0
 11 14  2  0  0  0  0
 12 17  1  0  0  0  0
 13 17  1  0  0  0  0
 14 25  1  0  0  0  0
 14 32  1  0  0  0  0
 15 17  1  0  0  0  0
 15 28  1  0  0  0  0
 15 31  2  0  0  0  0
 16 28  1  0  0  0  0
 16 29  2  0  0  0  0
 16 30  1  0  0  0  0
 17 29  1  0  0  0  0
 18 24  1  0  0  0  0
 19 24  1  0  0  0  0
 20 24  1  0  0  0  0
 21 28  1  0  0  0  0
 22 23  1  0  0  0  0
 22 24  1  0  0  0  0
 23 27  1  0  0  0  0
 26 27  1  0  0  0  0
  1 33  1  0  0  0  0
  2 34  1  0  0  0  0
  3 35  1  0  0  0  0
  4 36  1  0  0  0  0
  5 37  1  0  0  0  0
  6 38  1  0  0  0  0
  7 39  1  0  0  0  0
  8 40  1  0  0  0  0
  9 41  1  0  0  0  0
 18 42  1  0  0  0  0
 18 43  1  0  0  0  0
 18 44  1  0  0  0  0
 19 45  1  0  0  0  0
 19 46  1  0  0  0  0
 19 47  1  0  0  0  0
 20 48  1  0  0  0  0
 20 49  1  0  0  0  0
 20 50  1  0  0  0  0
 21 51  1  0  0  0  0
 21 52  1  0  0  0  0
 21 53  1  0  0  0  0
 22 54  1  0  0  0  0
 22 55  1  0  0  0  0
 23 56  1  0  0  0  0
 23 57  1  0  0  0  0
 29 58  1  0  0  0  0
 30 59  1  0  0  0  0
 30 60  1  0  0  0  0
M  CHG  1  29   1
M  END
> <OMEGA_C>
eIjWQIB5oL56ZbPBBmxEQKMVQsB70ZLBDzHFQKvhq7+TJq3ByrFiQLoMAsC9rJnBbujPQLz2gj/w
b7DBN56lQFYOnT5sG6HB2sh8QC6VgcDFdI/BzF+hQP4mf0Cq8rXBobPjQGuYhkBdT67BTxutQHDH
g7/38KPBikmcQMVeBcAeCp3BIcC2QNx4rD9ZSKfBpb67QB8MbkAYVqzBph+3QIvWR8B4RZnBJ2TI
QNxkQkDJJ5nBUi2BQICbXUDAp5bBCgiwQJohMkBge6PBj1n2QAdoBUHt1b7BJpEQQcRLCEE70a3B
kSraQAUS7EAYo63B1OSxQJ/nbUCNk4bBMYAOQQnoyUD+ELfBd7ICQavFqEAhGr7BlpQBQZV780AR
arTBqtWnQO+FgsDno5LBcYy5QAYzkkBlJr3B43TgQNZelkAGfLjBUQKpQIhbU0BsnpHBBEiDQK/A
QUA8i6DBlLA4QNHyfUAG+5HBt/zuQHLMO0DrkpfBbEHhQEcAScAd2ZvBaO/oQKZpDL+9drrBKbYC
QM+fQcCHI5DB1EDKQH3xF8DlYa/B6wI5QFxRnr+6U5zBwwDeQI9O6D/KI7XBfJCSQMsQCT+CIprB
WVJlQFhnmsA/NYrB9c5/QPeVb0B23rbBM0X/QNmAhkCHGanBWP3gQFYy9kB0kMPBrrHlQNVjFEGR
17zBTqAJQSIKCUHEhMPBECwVQVoPAEGTY6bBGf4eQfvsC0FNhbLBojYIQa5GF0Eb2KvB3KniQAt4
20B5LKbBomHLQJaLBUHbuqvBcmjDQAFo2EB6NbLBzYmTQJkzd0CBRoLBFNXEQJkdPEBTioLBjfvD
QOcllUDtoobB/rESQQlLukCgdq/BojYdQeFq00AgRbvBrDL6QKCbuEAncsXBB94NQXrmjkDeM8DB
jkRUQB6OOEAQW6XB72QCQGeJgECiMpbBVdg5QLETiUAeZIrB8eTWQAeGib5Jt7PBjFSpQJ19gsDC
CJPBVCzGQIY5qL/lf63BeOC4QITYRsALHJrBFlLPQPxDiD8hvLDB75alQNg8nz6FcaHB2tZ8QNtP
gMDAmY/BMO+hQAaGfEBUWLbBMazgQI57i0ANZ63BpFOtQGiQgr9IYKTBvQmdQCSeBcDUf53Bbu61
QOy6rj8BlKfBG++5QOdFcECHO6zBDj1kQM73BMAPyZnBvevHQKXjQED2UJnBX/qAQAJMXEASdpbB
pcuuQBp3MkBhj6PB3mC7QMqk9UC2UrnBAbf3QOItEkFcZ7/BdXIAQQ/k90Di7K7BwS+zQFNYbECI
pYbBctT/QKmO1UBh2sHB7pEDQf+JqUCwvrzBAt3sQMzG+EB2R7rBHIFHQALlQcB//ZLBKlS7QJ9E
kUB1OL3B5T3gQOSNmEDcxbfB6TqpQJ/uUUAuopHB0EGCQAD7QEAdY6DBgBE5QFAHfEDxi5HBmoTu
QLAoOEC25JfBsVUsQEAdkb+bO53B+InpQEhA+r47xrrB3Py9QE/Xm8AoPZDBxE/MQK/TFcDnsa/B
a5DZQJkAScDu5pzBI9fcQK8W7z/earXB1tqSQPd+Bj93Y5rBPQJlQL5BmMDzIIrBOzqBQCR4aUDn
zLfBZaz5QOd5j0B6hafBo6WyQGHO1kAwr7XBg3yvQAf2B0F0R7TBf/esQOD+90CGVMHBM1ENQXDA
E0F5L8DB6dvoQKguE0GoXcfB7WDrQEAlH0GWULrBJfcRQT0a+kAbka/Bv8L0QKSQCUHQP6rBty/4
QKLP2UAO6KrBzEGVQG7SdUA3K4LBZ2nGQDBnOkD4uYLBJV7FQIZOlECizobBuWcPQfss4UAU28TB
JZrpQLNk0UDBmMjBKOwIQTgck0AR+sLBow0QQYh8rEDclbbBbnhRQAKHN0DyEKXBn/wBQA4jf0AG
mpXBEo07QNnoh0Dw8YnBQGHUQATVl76G47PBdzlGQJFxSsAMkJPBEfbDQL/+q7+pqK3BscRhQH5j
CsBsmZrBjiHNQIZfhD/iz7DBpnCjQP4IjT7agKHB7yyBQIm4gsCVho/B0j6iQOExfkCXJrbBWkDh
QF6kiUCdHK3BaNSrQCnJhr95aqTBLlycQAvOB8Beep3BY/2zQO+gqj/0mqfB5u+5QHq9bkB6D6zB
Pwu5QKlsRMCGFpnBWK/GQAtqPUB/M5nBC5aAQN6lYUBEvZbBhLitQPCCMECBgaPBxlHAQPtt9kCx
V7jBrt/+QAmiEUF65b3BmMkCQew/9ED2y63BskqyQMQbcEBZy4bBycIBQfOS1EAkBMHBiXAEQZ+b
p0A/SbzB8u7xQHWI90A7K7nBlRerQL3UgMC8RZLBP0G8QIH4kUDH6LzBqVjhQJ6Xl0AoarfB3iqo
QE7wU0Dls5HBrU2BQFssQUBAbKDBiFw6QOx5hECwOJLBlu/sQNzpMECFopfBa4DjQJMfP8D3M5vB
jIvmQAplA78YCLvBqb0DQK6YTsDGQZHB5cfJQA6oF8Db7q/BvS41QNDtt794v53B0rraQHxi6z/L
drXB0SeQQL57+D5oiJrBRBVtQJJzm8CGG4rBo0qBQAtRbUAKrbfBM0v6QFJkjEB9MqfBNx+2QDuH
10Cr/LTBu2C1QLpACEExGrPBDlayQBV8+kDBWsDBj/YQQZx9EkHQk77BXG/wQBB/E0Ej3sXBCXrz
QL+BHkGTnbjBoVgUQaoG9UDtXa7BHH36QParB0H96KjBoXX7QBEN1kB6DKrBtHOUQJkifkDgd4LB
O93DQKgnPUApmoLBiCnGQOUTlUA3IofBlIIRQRpE30AK5cPBU0LtQB9G0kDrzsfB2EMJQeWYkUA4
t8LB1AERQaCfqEBzIbbBXzdPQH6nNUDk96TBCvwDQHfyhkAXZZbBb6M9QPIvkECnyYrBjPLZQIII
ob4aILPBF2+nQC3rg8CQ+5LB9DXIQDAbrb8DBK3BCBu4QEN/ScCj3JnBuWPSQM+ngj8pO7DBLxKn
QLYCkj4EKKHBpHF4QN9PgcB90Y/Byw6gQJrEfEAb07XBlVDiQFPMh0DXTq7BeoauQEY7hr87D6TB
9w+dQBo8B8BAVp3BfUa4QDeHqj9wOafB7xu7QO0lbUAIS6zBDo5jQE+7BcBa5pnBmxTJQHbjQUBt
IJnBQgGCQOr3XECToJbBjqCwQJG6MEAPaqPBY3HwQFh9BkEy077BC5oNQdjoCUEO1a3Bf03VQPVG
7UAin63ByoKyQF/xa0DkgIbBRn0MQeQkzUBvHrfBHxUBQbRjq0DXIL7BU//9QPvt9UAUbLTBJqRE
QBLlQsDqSZPB9ii3QOlUkkCQBb3ByhLeQIbCl0B7cLjBD6ypQH2pUUA2jpHB986DQAaVPkAGZqDB
TB07QGUPgEB2FpLBdcfvQHT1PEBMnJfBoCstQKB/kL+Abp3BDF3tQI/VCr9qCbrBYXW7QM6sncDL
IZDBvDTOQK9rGMDiKa/Bkg7ZQJdETMCucZzBwHrgQEPJ6D8Z3rTBO+qTQBbDAT/qL5rBr99eQKlU
mcDEfYrBidh9QM1oakDJsrbBLQr+QNCliEBzJ6nB357bQHfQ90BQjcPBZfreQEA6FUFwzrzBQosG
QeWKCkFNhcPBJnkSQQrIAUGsaqbBbuUbQT71DUHdjLLBX9cEQZmkGEH/1avB7lreQPDb3EB4LKbB
06bFQK3rBUG2r6vBDRK/QPoB2UCiMLLB/SWUQOU5dEBeLILBF9XFQOp8OkBahILBxjDEQL9olEDE
iIbBpf4QQVnAvUBCiK/BlAIbQV6E10CeXLvBYi72QLf3ukDCbcXBRp0MQelEkkAQT8DBdAtVQCyy
MkAlEqXBj+cEQEm3gUDlUZbB0ro8QOIVi0COlIrBVwXDQFGp1b70DbXBUnNMQLQPTcCs2ZDBTg23
QJN5tr9t3q3BguhiQIqXCsAd25fB2RfAQMvQbT9L/LHBHGakQGE+iD4ThaDBYgeFQG3NhcB6N47B
XSnqQFyQfEAZpq/BOm2kQCmRhUAvHrXBTKmnQNbzir94naPBEx+bQJlECcDQIJzBFw6xQN00pT/O
mafBGdu8QIeaakAY8KzB+Za4QLfTScDDIJnBTJ3GQJWrQUBrs5nBfwCAQBejZEC6G5fBWqytQICV
MEDY+6PBAbi1QH359EBQL7HBfUOwQKA0FEEYjMDBFwbvQHf39kDgrb/BPeCyQIGue0D1dYfBBryi
QP762UDFKMTBg4a2QC0BrUB6B8bBSTa+QOR9+kDfYb3BpjitQCSLhMCDSZLBeHDrQFS2kUAG7rjB
dCbCQN6OlkBSA7zBInOpQDf5ZkA8uZLBCVGBQCLfRUBn7KDBeZE1QLc9f0BP/ZHB9ITsQN3jMkCV
8JfBHFLhQFuzR8A52ZzBynnOQNgQLb9f8LzBncUMQIFNUMC9g43BRZy5QLKjHcBbLrDB9DI1QBDt
sr9h7ZnBO1jJQNvf2T+UjrfB/SiYQCupBD8LspjBH8J4QKdhn8D10ojBhcUCQexRbECuyKrBVgaC
QMAbhUBz77XByU+/QN6e1ECPrq7BIWbIQDBpBkHxs6zBxHCTQBeY+UAbja/BjuC1QJqqFkGlJcnB
WQeOQPJPFkHsyr7Bt/zCQBbtH0HC8bvBusz0QOXj+kDoTcjBdxEAQX8QCEF+QbvBs6b6QPti10BC
Gb3Bp3aWQNRLjEChuoPBZny7QKvHQED4JYPBXrnNQDKPlECPGYfBLQWdQI2F6ECAC8zBZASEQF2D
1UBtAsDBNyKfQKRMmUCQYsrBIZXTQA66sEB/6MrBpo9PQMkJPkDtpKXB/6X6P2uie0C1x5XB5Ew4
QJj8ikDZhIrBsJDrQG2xhr7qva7BMjA8QFKgPMBexpPBDrrUQKW4pb80w6nBuWJmQMCy9L8hMZnB
ySTiQBc5iT/TTazBgoKrQEKdsj7io5/BcLBoQHR5hMAykJHBMfafQPgYbkBOXLbB3KnhQEkLikBW
vq/BNFS1QFsfgL/p8KHB9lWeQOe/BcBuRJzBvLjAQJPEsj8sCaXBuqG8QHeNakDm7azB39ayQKFn
VMBTqZnBtrvLQJjsWkCNH5nBxR2DQACnZECUZpbB4XW0QPgGN0DE06LB9MT3QNssE0GVc7vBnWbl
QMtc+0AvD6vBNgO7QNBj8kC9E7zBEZqzQK1bjkAhoofBBKAFQQFf10Af6rrBpm/6QBtfrkDTisDB
B7ToQJzU+UA8drfB+LOdQKfUicDLepTByLWzQGNai0BjH77B+WHaQPzAlkD1FbrBhs+rQN2aekC+
cpLB6uWGQKX3P0AC1p/BHoc4QHbjc0DOTpHB5HPyQCjiXEBwi5fBMtLcQKUqYcBi1ZvBdTMCQZEx
/r7Ic7TBVaH0P+03NcDEU5HBshvbQNeYFMBX56vBKmFFQIxlfb+6/ZrBCHj0QJOM7j9g/K/B+YuT
QD2ZFD9NspnB1whIQMkVnsDdcI3BzBOAQBOlU0BCyLbB/uv9QL4sj0AL8KrBh1X6QOH/EkFIOsTB
rXXgQKZqH0GO/7jBzZkLQbrmFkGu9LfB+73aQLUM3ECwDKjBlHcCQZOGAUFap6fBOTHOQH8KCkE6
sqjBCgivQKoG00AIb7nB/26lQEHYBUHGMLnBZ0u8QEw180Bv3sTBKx2VQCS9mEAKFYTBIPbBQDqL
akCAnILBSo/JQDjMqUB1IYjBjTEOQeJGzUBmp7PBnd8QQdYd50CYa8DByJTrQGOmt0D0LMjBgtwK
Qc4GmUDdGcLB+6FcQNbFLEByXKTBD7UBQCehYkDX05TBx4A3QH0MiEDEIIrBiUzpQOClpL4/fK/B
hsSaQGpNjMBErJXB99fSQLDorL9hUarBLTCxQFAxV8Dz6JrBSELgQL5mgj9IC63BocCrQJwMnT7O
15/BrUNgQN0lhcCPgZLBHoWeQO3qbkAnKrbBiBPhQMr7iEDw06/B7MuzQJa4hb9Jc6LBKGWcQGyW
CMAu6JzB8zTAQMG2rD94aqXB0g+8QHTaaEBf7KzBuBRiQN0Z/r+Hj5nBeZ7MQNCvVUA8PZnB1j+E
QPrqX0DCIpbBXIS0QEPZM0AB7qLBt4v3QEIlE0EFqLrBQy3mQDDW+UAAcarBnD66QCL58kDIRbvB
hhO2QN4qikBDcIfB5iYFQUYb10A1t7rBNJ/4QPvbrkCWg8DBO2XoQDiG+UAq3bbBMVA4QEQQP8DT
dZTBKcSxQBlSjEBj6b3Bc/HYQJ/dlkC9CLrBAlOtQLt4dEBwUJLBpi6HQAQHPUCBsp/BB7Y7QMW7
bkCkzpDBu3LzQGWNVkDe05fBvwY1QId+XL/9ypvBV8QAQVaTD78NV7XBtQaqQFanqsCdFZTBt0jZ
QIxhGMCkWqzB5PLRQB/LYMDRYp3BadHxQDtG5z9w/7DBUZqVQLcHCz9pfJnB4uc9QE1JnsAna47B
U+h8QG5CVUA1erbBId79QCI8jUAbK6vBkln5QBdmE0GgccPBGLHgQMBdH0HS7LfB5KsLQfqMFkGP
SbfB73nbQF5U2kAjkqfB3AgDQQhyAEFGKafBB2vPQM5CCUGJzKfBbjCuQBZ300C8wrjBdCulQBQW
BkGHHLjBgcW6QBaq9EC6D8TBAPKXQCNmlEAbrYPBl6TEQCH/YECepILBEDDMQAaApUAH4IfB6vcN
QYUbzED0nLPBeD8QQWgz50BWPMDBiS3pQMgPuUDH/8fBSMgJQQ5zmUAcXcLBgV9cQJIqK0BoKqTB
0jcEQDiSXkAYPpTBJAc8QFPFhED/ionBd2LEQBK3vb51ebXBlZutQANXhcA4/pLBSfq4QPyDsr/R
Xa7BgWa6QNOuScBoCprBsdHAQDaSeD8KTLLBOcilQExziz5i3qDB0m+DQIEuhcDt+I7BVNnpQGz0
f0AZrK/BkPqjQNTkhkAAELXBEkqpQKuEib+2G6TBz7acQCqSCcBWxZzB0tmxQALzpz/t3KfBYKu8
QDfMbEDd9azBU6BlQH/3DMAddpjBVtvGQM4dQkCwzJnBMReAQKVTY0C7G5fBUuitQIKCMUD/F6TB
m020QMdE9kANwrDBKiauQIE/FUFR77/B7mPtQL+c+UCaSr/BJP6yQGi/eUDDc4fBEFGhQIUl3EDM
zsPBMn61QEJ2r0DI2MXBGJS8QGCK/EAB8bzBavdNQJewTMCtu5HBVtLqQArxk0BU4rjBXHPBQFGR
mEAd67vBOJGpQNUQZkCYvpLBhHWBQCJ5RUDC96DB9pk1QAS8fEA57ZHB8tjsQDPoM0DnFJjBZaIq
QBEao7/CTZvBu+bPQEQSHb+dYr3BZcbDQJ4tnsB6rJDBuDS8QChjG8BOv7DBoGTaQB7aSMCPTp3B
/oTJQFe04D9/0rfBucmZQLMdAj8Q/ZjBKSFzQBk/nsBfj4nBLK8CQRW0b0BO26rBmpKBQNglhkD4
2rXB3Ty+QG3f1UAJYK7Bw9DGQJUFB0GGNazBLgGSQAh4+kCvFK/BNJmzQHb5F0FthcjBR+aLQDgk
F0FII77B3LXAQMrtIEEfRLvB/AHzQGgR/kAs6MfBwlL+QGxYCUGyy7rB+1r5QHwB2kCT1LzBMniW
QP/VikALqIPBDfG7QGqQPkCTPoPBpJzNQOXXk0B0B4fBT16bQDIQ60B9o8vB37GCQHYr10Bypr/B
CjqeQCLJm0ClQMrB9XPSQBe4s0AJvMrBh9FPQDV1PUDbraXBp576PybreED5s5XBnEc4QFhoiUDi
bIrB

> <OMEGA_E>
mMSjPrTInD6ss6Q+1P6kPghNDD8K7xA/HDQKPyzsCD8=

> <OMEGA_NBR>
     22989

$$$$
50176692
  -OEChem-04172616093D

 54 57  0     1  0  0  0  0  0999 V2000
    6.7517   -0.3531  -22.4417 C   0  0  0  0  0  0  0  0  0  0  0  0
    5.2399   -4.0561  -18.2525 C   0  0  0  0  0  0  0  0  0  0  0  0
    6.2217   -1.3830  -21.6436 C   0  0  0  0  0  0  0  0  0  0  0  0
    5.7515   -3.1241  -19.1656 C   0  0  0  0  0  0  0  0  0  0  0  0
    6.5183    0.9921  -22.1018 C   0  0  0  0  0  0  0  0  0  0  0  0
    5.2088    0.2779  -20.1782 C   0  0  0  0  0  0  0  0  0  0  0  0
    3.8953   -3.9532  -17.8416 C   0  0  0  0  0  0  0  0  0  0  0  0
    5.0982    3.9455  -22.8142 C   0  0  0  0  0  0  0  0  0  0  0  0
    7.0131    4.4629  -21.6608 C   0  0  0  0  0  0  0  0  0  0  0  0
    5.4388   -1.0628  -20.5145 C   0  0  0  0  0  0  0  0  0  0  0  0
    4.9026   -2.1071  -19.6362 C   0  0  0  0  0  0  0  0  0  0  0  0
    5.7273    1.3153  -20.9665 C   0  0  0  0  0  0  0  0  0  0  0  0
    5.8651    3.7304  -21.5660 C   0  0  0  0  0  0  0  0  0  0  0  0
    3.5551   -2.0645  -19.1900 C   0  0  0  0  0  0  0  0  0  0  0  0
    6.2761    2.9785  -19.2036 C   0  0  0  0  0  0  0  0  0  0  0  0
    4.0454    3.3741  -18.8697 C   0  0  0  0  0  0  0  0  0  0  0  0
    5.5116    2.7469  -20.4915 C   0  0  2  0  0  0  0  0  0  0  0  0
    7.6021    7.7330  -21.9813 C   0  0  0  0  0  0  0  0  0  0  0  0
    6.6830    7.6897  -24.3319 C   0  0  0  0  0  0  0  0  0  0  0  0
    5.5933    3.6729  -16.8826 C   0  0  0  0  0  0  0  0  0  0  0  0
    8.0763    5.7380  -23.4984 C   0  0  0  0  0  0  0  0  0  0  0  0
    7.8552    7.2626  -23.4287 C   0  0  0  0  0  0  0  0  0  0  0  0
    3.0816   -2.9785  -18.3123 N   0  0  0  0  0  0  0  0  0  0  0  0
    5.8111    4.7060  -23.6094 N   0  0  0  0  0  0  0  0  0  0  0  0
    6.9504    4.9775  -22.9230 N   0  0  0  0  0  0  0  0  0  0  0  0
    5.3034    3.2499  -18.2570 N   0  0  0  0  0  0  0  0  0  0  0  0
    4.1126    2.9691  -20.1157 N   0  3  0  0  0  0  0  0  0  0  0  0
    2.8826    3.8223  -18.2634 N   0  0  0  0  0  0  0  0  0  0  0  0
    7.4789    2.8314  -19.0124 O   0  0  0  0  0  0  0  0  0  0  0  0
    2.7019   -1.1206  -19.6593 F   0  0  0  0  0  0  0  0  0  0  0  0
    7.3381   -0.5950  -23.3157 H   0  0  0  0  0  0  0  0  0  0  0  0
    5.8693   -4.8449  -17.8676 H   0  0  0  0  0  0  0  0  0  0  0  0
    6.4135   -2.4158  -21.8944 H   0  0  0  0  0  0  0  0  0  0  0  0
    6.7763   -3.1859  -19.5007 H   0  0  0  0  0  0  0  0  0  0  0  0
    6.9415    1.7813  -22.7056 H   0  0  0  0  0  0  0  0  0  0  0  0
    4.6251    0.5153  -19.3011 H   0  0  0  0  0  0  0  0  0  0  0  0
    3.5046   -4.6695  -17.1340 H   0  0  0  0  0  0  0  0  0  0  0  0
    4.1193    3.5446  -23.0322 H   0  0  0  0  0  0  0  0  0  0  0  0
    7.7839    4.6016  -20.9172 H   0  0  0  0  0  0  0  0  0  0  0  0
    8.4429    7.4246  -21.3426 H   0  0  0  0  0  0  0  0  0  0  0  0
    7.5106    8.8290  -21.9628 H   0  0  0  0  0  0  0  0  0  0  0  0
    6.6719    7.2811  -21.6063 H   0  0  0  0  0  0  0  0  0  0  0  0
    6.8705    7.3509  -25.3616 H   0  0  0  0  0  0  0  0  0  0  0  0
    5.7511    7.2376  -23.9614 H   0  0  0  0  0  0  0  0  0  0  0  0
    6.5898    8.7856  -24.3179 H   0  0  0  0  0  0  0  0  0  0  0  0
    4.6495    3.8225  -16.3378 H   0  0  0  0  0  0  0  0  0  0  0  0
    6.1887    2.8975  -16.3783 H   0  0  0  0  0  0  0  0  0  0  0  0
    6.1594    4.6158  -16.9010 H   0  0  0  0  0  0  0  0  0  0  0  0
    8.1968    5.4468  -24.5523 H   0  0  0  0  0  0  0  0  0  0  0  0
    8.9917    5.4884  -22.9420 H   0  0  0  0  0  0  0  0  0  0  0  0
    8.7670    7.7574  -23.7943 H   0  0  0  0  0  0  0  0  0  0  0  0
    3.3267    2.8325  -20.7188 H   0  0  0  0  0  0  0  0  0  0  0  0
    2.0275    3.8503  -18.7811 H   0  0  0  0  0  0  0  0  0  0  0  0
    2.8987    4.1178  -17.3082 H   0  0  0  0  0  0  0  0  0  0  0  0
  1  3  1  0  0  0  0
  1  5  2  0  0  0  0
  2  4  2  0  0  0  0
  2  7  1  0  0  0  0
  3 10  2  0  0  0  0
  4 11  1  0  0  0  0
  5 12  1  0  0  0  0
  6 10  1  0  0  0  0
  6 12  2  0  0  0  0
  7 23  2  0  0  0  0
  8 13  1  0  0  0  0
  8 24  2  0  0  0  0
  9 13  2  0  0  0  0
  9 25  1  0  0  0  0
 10 11  1  0  0  0  0
 11 14  2  0  0  0  0
 12 17  1  0  0  0  0
 13 17  1  0  0  0  0
 14 23  1  0  0  0  0
 14 30  1  0  0  0  0
 15 17  1  0  0  0  0
 15 26  1  0  0  0  0
 15 29  2  0  0  0  0
 16 26  1  0  0  0  0
 16 27  2  0  0  0  0
 16 28  1  0  0  0  0
 17 27  1  0  0  0  0
 18 22  1  0  0  0  0
 19 22  1  0  0  0  0
 20 26  1  0  0  0  0
 21 22  1  0  0  0  0
 21 25  1  0  0  0  0
 24 25  1  0  0  0  0
  1 31  1  0  0  0  0
  2 32  1  0  0  0  0
  3 33  1  0  0  0  0
  4 34  1  0  0  0  0
  5 35  1  0  0  0  0
  6 36  1  0  0  0  0
  7 37  1  0  0  0  0
  8 38  1  0  0  0  0
  9 39  1  0  0  0  0
 18 40  1  0  0  0  0
 18 41  1  0  0  0  0
 18 42  1  0  0  0  0
 19 43  1  0  0  0  0
 19 44  1  0  0  0  0
 19 45  1  0  0  0  0
 20 46  1  0  0  0  0
 20 47  1  0  0  0  0
 20 48  1  0  0  0  0
 21 49  1  0  0  0  0
 21 50  1  0  0  0  0
 22 51  1  0  0  0  0
 27 52  1  0  0  0  0
 28 53  1  0  0  0  0
 28 54  1  0  0  0  0
M  CHG  1  27   1
M  END
> <OMEGA_C>
BQ7YQMDEtL6PiLPBfK2nQGrLgcAOBZLBHBjHQKIGsb8MJq3BDgy4QDDxR8AoU5nBs5XQQCT8fT+V
0LDBv66mQCpNjj7ubKHBR015QNEBfcChu47BWiSjQOeCfEBrg7bBSWvgQFTQjkBJSa3BfgquQCAL
iL+cHaTBwuGcQN7aBsAEF53BGka3QMNcqD96u6fB0a67QHa+bkAvh6zBzIZjQJUgBMAThZnBA9bI
QKmfPkD4oJnB+XOBQOnwV0A39ZbBCF+wQNrML0Cd7qPBGkTzQNp090Cp2a/B79rVQKAR9kDQp8LB
DfyyQCAQa0CkD4fBXjgBQaidt0DH/LvBbl37QC5n6EDhbbvBrjhFQEygPsCtf5LBjfS5QKiXlkD9
37zBoWneQGRHn0BCYrfB1rWpQMH9T0BgDpLBFJqDQFUGPkDl7KDB43w4QB+hdEB9G5LB2FLvQE02
NUByGZjBkewsQExuj79XRp3B9dHqQPZRGL+ihrrBBdG7QBsJm8DA8I7BjzvNQLWcGsDLJ6/BidfY
QBTlS8BwAZzBiCDeQF0B5D8VpbXB5wCUQADoAz+VaJrBNUtgQDVslcBoEonBedGDQEDbYkDsQbjB
+xX5QDFAk0BVVqfB+hUHQfmV7UCnvarBu1bwQMhDDUHRs6/BZIDVQIT+6EDG2azBT9vbQPE660B2
5MrBIwm4QKOa50DrsL/Bet/SQNiRDEH2isLBmsiUQEOkdEDCs4LBfwnGQIhwOUDWBoPByxnFQLq0
k0BJNYfBFCYDQfRLrkAfa8TBK94PQaygr0BFibfBpUUMQZ88+EC8Wr7BruhUQCtINUAcwKXBIcMB
QOtrdkDLP5bB7IM5QNrEg0Awd4rBl5/TQJDBub7KrbPBXu9EQMhSQsD8G5LBewbDQLbVsL9sKK3B
XWNiQPx8AsAEEJnBnajNQCDLez8s1bDB+RulQE4ulj63HaHBC6N9QB2wgcAe1I7BaHSjQFZLfkCN
crbBcC/iQDiXjEAEiK3B1iCsQAmHhr+8y6PBgeCbQFgLBsA7o5zB/rK1QKxdqT+IjafBiC+8QDDG
bkC0hazB7ua2QM59SMB27ZjBjVfIQBqCP0Bpf5nBNS+BQC6kWkB15ZbBE+6vQKAAMUCF1aPBQCT6
QCLu8kB/3q/BhdPbQD7f9EAekcLBCzSyQOAAaUBj2IbBYZgCQaFzs0C4bLzBoHIAQTKD5EA5jrvB
egioQGS4gsBfMJLBnim7QO7elUA5+7zBg2PgQFHJnEDTqbfBLRapQMKpT0Aa6pHBk0mDQIpTQUDP
46DBMMM4QAbGeUDFFpLB7/TuQFJcOECs+pfB7NTgQOz4ScABsZvBqfbkQKcqHb+n4LrBBZUDQOyy
QcAJTI/BbsfHQHOwGsBATq/BBW84QGIWn79soZvBwljbQFDi4T9auLXB/NGSQP8ICj/JDZrBC9Rm
QAVnmsAogYnBg12DQOv6Z0A+CLjBDov7QN3Gj0Act6fBnVkKQYYp50Az5qrBPSD5QDkLC0HdhK/B
AMbbQFfT5UCd26zBgs3gQPKB6kBc4srBomq9QCTF50DJlL/B38TaQB8EDEEJPsLBj/CTQI7icUCM
fYLBJjTFQGjCNkC86oLBqVDEQDivkkDh04bBXMADQQuvqkB97cTBeUERQSZ0qUAHP7jBO2EPQX39
8kDifL7BtllUQIk7OkC1xKXBanECQOb9fUBTSZbBqfc5QJoChkAmbIrB5KLAQDYr3b6HObXB6GNM
QAf1TMAN0pDBS2+2QBvkt7+12a3B3S1jQHh2CsCczZfBbM68QPdeaj/nRbLB8QalQFmEhj42c6DB
6OuEQN3MhcC2Ko7BLwLqQLF5aUDoabHB18amQDSGkUCI+bLBL+anQJaGi79AiaPBI1ebQDE5CcBq
BpzBgmawQAFrpD80sKfBqgK+QPy4akCB5azBI7G4QOfpScCrBpnBtpHGQNXBQEASwZnB9dB/QC+F
Y0BQH5fB566tQK5iMEDmD6TBJ7f8QI+m7EAWEr/ByT+4QKRZ/UB3BrXBa7SyQJyAeUDBb4fBh/y4
QFEywEA9q8LBVjXLQDP27ECFsb/B3SytQNOYhMBYNJLBr/HqQOY3jUBJ7bnBPHLDQAjynkBmnbrB
aFOpQH5RZUAxuJLBSleBQHU+RkDDAaHB+UQ1QOp7fUDf+JHB1azsQFtrM0D0F5jBx2rhQNj4R8Aj
wJzBr2vLQLywMb8xKb3BTJkMQBgmUMCZhI3BybG5QC5zHsAnD7DBcZw1QJOEsr8t5ZnBuVjDQHjW
1z+8GbjBlROaQJiHBD9dg5jBwVN4QKtgn8DeyIjBcGQCQVUTRkDyNa7B68GFQOXxmkCU/rHBRPgE
QT/24EA8r8bB9S0EQXWnBkETjb3BUoEDQQJ310AAiLjBsBuVQN54/UCZiLXBCWjCQLIy6EA0d67B
TsHDQE0FD0FHfLPB4TSWQAjrikA3rYPBCoK7QAB3PkCGLYPBm2jNQP6gk0B1CYfBYvmVQGqmwkCA
VsPBVHjGQO5xtkBqbMrBqdDBQDa+AUH6CMbB9sRPQJm4P0ANyaXBzT/6P0SOekB1y5XBkNU3QG2J
iUCqcorB

> <OMEGA_E>
0MSAPngtfz4g5wI/

> <OMEGA_NBR>
     25985

$$$$
50176695
  -OEChem-04172616093D

 53 56  0     1  0  0  0  0  0999 V2000
    6.9100   -0.3587  -22.2932 C   0  0  0  0  0  0  0  0  0  0  0  0
    6.3345   -1.3969  -21.5420 C   0  0  0  0  0  0  0  0  0  0  0  0
    6.6447    0.9793  -21.9564 C   0  0  0  0  0  0  0  0  0  0  0  0
    5.1854    0.2432  -20.1494 C   0  0  0  0  0  0  0  0  0  0  0  0
    5.7173   -3.1930  -19.1539 C   0  0  0  0  0  0  0  0  0  0  0  0
    3.5641   -2.0891  -19.2101 C   0  0  0  0  0  0  0  0  0  0  0  0
    5.0165    3.8473  -22.7532 C   0  0  0  0  0  0  0  0  0  0  0  0
    6.9894    4.3625  -21.7024 C   0  0  0  0  0  0  0  0  0  0  0  0
    3.8988   -4.0188  -17.9413 C   0  0  0  0  0  0  0  0  0  0  0  0
    5.4714   -1.0917  -20.4685 C   0  0  0  0  0  0  0  0  0  0  0  0
    4.9079   -2.1462  -19.6288 C   0  0  0  0  0  0  0  0  0  0  0  0
    5.7625    1.2896  -20.8843 C   0  0  0  0  0  0  0  0  0  0  0  0
    5.8308    3.6693  -21.5290 C   0  0  0  0  0  0  0  0  0  0  0  0
    6.2786    3.0028  -19.1406 C   0  0  0  0  0  0  0  0  0  0  0  0
    4.0654    3.4623  -18.8531 C   0  0  0  0  0  0  0  0  0  0  0  0
    5.5158    2.7194  -20.4220 C   0  0  2  0  0  0  0  0  0  0  0  0
    6.9960    7.8311  -23.0153 C   0  0  0  0  0  0  0  0  0  0  0  0
    9.4601    7.5419  -23.4508 C   0  0  0  0  0  0  0  0  0  0  0  0
    5.5792    3.7670  -16.8497 C   0  0  0  0  0  0  0  0  0  0  0  0
    7.9610    5.5680  -23.6119 C   0  0  0  0  0  0  0  0  0  0  0  0
    8.2077    6.8876  -22.8648 C   0  0  0  0  0  0  0  0  0  0  0  0
    5.2022   -4.1092  -18.3090 N   0  0  0  0  0  0  0  0  0  0  0  0
    3.0773   -3.0324  -18.3799 N   0  0  0  0  0  0  0  0  0  0  0  0
    5.7020    4.5714  -23.6029 N   0  0  0  0  0  0  0  0  0  0  0  0
    6.8689    4.8410  -22.9730 N   0  0  0  0  0  0  0  0  0  0  0  0
    5.2974    3.2831  -18.2049 N   0  0  0  0  0  0  0  0  0  0  0  0
    4.1157    2.9344  -20.0518 N   0  3  0  0  0  0  0  0  0  0  0  0
    2.9444    4.0823  -18.3257 N   0  0  0  0  0  0  0  0  0  0  0  0
    7.4895    2.9432  -18.9538 O   0  0  0  0  0  0  0  0  0  0  0  0
    7.5553   -0.5885  -23.1282 H   0  0  0  0  0  0  0  0  0  0  0  0
    6.5521   -2.4263  -21.7857 H   0  0  0  0  0  0  0  0  0  0  0  0
    7.1131    1.7766  -22.5144 H   0  0  0  0  0  0  0  0  0  0  0  0
    4.5161    0.4676  -19.3320 H   0  0  0  0  0  0  0  0  0  0  0  0
    6.7492   -3.2632  -19.4649 H   0  0  0  0  0  0  0  0  0  0  0  0
    2.9244   -1.2899  -19.5543 H   0  0  0  0  0  0  0  0  0  0  0  0
    4.0264    3.4483  -22.9175 H   0  0  0  0  0  0  0  0  0  0  0  0
    7.8030    4.4996  -21.0054 H   0  0  0  0  0  0  0  0  0  0  0  0
    3.4983   -4.7645  -17.2705 H   0  0  0  0  0  0  0  0  0  0  0  0
    6.1019    7.3510  -22.5910 H   0  0  0  0  0  0  0  0  0  0  0  0
    7.1953    8.7717  -22.4810 H   0  0  0  0  0  0  0  0  0  0  0  0
    6.8270    8.0436  -24.0812 H   0  0  0  0  0  0  0  0  0  0  0  0
   10.3168    6.8612  -23.3382 H   0  0  0  0  0  0  0  0  0  0  0  0
    9.2978    7.7536  -24.5180 H   0  0  0  0  0  0  0  0  0  0  0  0
    9.6662    8.4817  -22.9177 H   0  0  0  0  0  0  0  0  0  0  0  0
    4.6332    3.9122  -16.3075 H   0  0  0  0  0  0  0  0  0  0  0  0
    6.1968    3.0283  -16.3178 H   0  0  0  0  0  0  0  0  0  0  0  0
    6.1194    4.7235  -16.9069 H   0  0  0  0  0  0  0  0  0  0  0  0
    7.6953    5.7832  -24.6574 H   0  0  0  0  0  0  0  0  0  0  0  0
    8.8742    4.9553  -23.5844 H   0  0  0  0  0  0  0  0  0  0  0  0
    8.3715    6.6761  -21.7978 H   0  0  0  0  0  0  0  0  0  0  0  0
    3.3244    2.7138  -20.6221 H   0  0  0  0  0  0  0  0  0  0  0  0
    2.1069    4.1468  -18.8684 H   0  0  0  0  0  0  0  0  0  0  0  0
    2.9727    4.4654  -17.4024 H   0  0  0  0  0  0  0  0  0  0  0  0
  1  2  1  0  0  0  0
  1  3  2  0  0  0  0
  2 10  2  0  0  0  0
  3 12  1  0  0  0  0
  4 10  1  0  0  0  0
  4 12  2  0  0  0  0
  5 11  1  0  0  0  0
  5 22  2  0  0  0  0
  6 11  2  0  0  0  0
  6 23  1  0  0  0  0
  7 13  1  0  0  0  0
  7 24  2  0  0  0  0
  8 13  2  0  0  0  0
  8 25  1  0  0  0  0
  9 22  1  0  0  0  0
  9 23  2  0  0  0  0
 10 11  1  0  0  0  0
 12 16  1  0  0  0  0
 13 16  1  0  0  0  0
 14 16  1  0  0  0  0
 14 26  1  0  0  0  0
 14 29  2  0  0  0  0
 15 26  1  0  0  0  0
 15 27  2  0  0  0  0
 15 28  1  0  0  0  0
 16 27  1  0  0  0  0
 17 21  1  0  0  0  0
 18 21  1  0  0  0  0
 19 26  1  0  0  0  0
 20 21  1  0  0  0  0
 20 25  1  0  0  0  0
 24 25  1  0  0  0  0
  1 30  1  0  0  0  0
  2 31  1  0  0  0  0
  3 32  1  0  0  0  0
  4 33  1  0  0  0  0
  5 34  1  0  0  0  0
  6 35  1  0  0  0  0
  7 36  1  0  0  0  0
  8 37  1  0  0  0  0
  9 38  1  0  0  0  0
 17 39  1  0  0  0  0
 17 40  1  0  0  0  0
 17 41  1  0  0  0  0
 18 42  1  0  0  0  0
 18 43  1  0  0  0  0
 18 44  1  0  0  0  0
 19 45  1  0  0  0  0
 19 46  1  0  0  0  0
 19 47  1  0  0  0  0
 20 48  1  0  0  0  0
 20 49  1  0  0  0  0
 21 50  1  0  0  0  0
 27 51  1  0  0  0  0
 28 52  1  0  0  0  0
 28 53  1  0  0  0  0
M  CHG  1  27   1
M  END
> <OMEGA_C>
1x7dQMiht76NWLLB2LPKQAPPsr8WVqzBs6HUQDezej++pq/BKu+lQCoIeT73MaHBQfS2QP5ZTMAm
O5nBghpkQBu0BcBXrpnB8oagQJA6dkCiBrbBM6nfQOyZi0B2nq3BXoV5QFSagMDAh4/BhxWvQGi+
i79vv6PBcQ2dQO9bCcDIB53Bx2a4QGQQpT8FE6fBjpW6QBzVakB9O6zB4+nIQJYtQEDkH5nBAxiC
QBCXXUAb05bBl4GwQPkKLkAzYKPBQ9/fQFSY+kA8H7jBeFwXQftW8UA1m7vBsYiyQEAWcUAezIbB
UcD+QL0sskA15bzBuFIDQRln3EAi67bBgXimQLp+g8DTeJLBuvFEQJETQsD4CZPBlna2QBdJkkC3
0rzBVc7bQJ/pmkC8yLfBEISpQO4eUkC8o5HBo7ODQFXNO0ACaqDB6nA8QHiigkAdm5LBuanvQDdd
PEBmoZfB6sTxQBGrFr+RBrnBGavRQNJIG8A3Sa7BUZ7jQFNn4z+QHbTBNYSQQCFl7z4AqJrBOPnX
QEvYUMAnuJvB6Sk7QOoapb8gb5zBd9iAQL6wXED7VrfB17H5QIL8j0AYC6jBt+RfQBV3mMDtKYrB
fkLDQC8760BVurTBTEDmQA1ZDEEM2bPBBnfaQH2yAEFZpsDBthElQeWO20C7tLrB+8MUQU0d+EDI
JMTBnqgaQTa1B0F7V7fB0kKUQKFhekDGdYLBKEzGQJHPQUDUioLBQtLDQLUml0BPQYfBmj/2QE4Q
uUBgQsXBmfwNQQ6SnkDLrLzBhvEFQa+i1UDzYa7Bb8NUQOWuLUAC+qTBsdcGQOmyhEB38pbBD0A+
QDPkjkAvOIvBPlveQNRz7b4WdLLBZyzLQO46vr99ZazBsPjWQEfHYT+Ax6/BY4+nQCgGPT5DWKHB
q1S2QFv5TsCd/pjBxF5kQKt6BcCLlJnB4V2mQBJMaEAf27bBvEHaQKk8k0BAcKzB0G13QGaLf8D3
GY/BVcSvQILqk79C0qPBEg+dQOrDC8DR+pzBbeC6QNr3mj+TPafBpjO9QJSwZUC9fKzBI4TKQEjW
PEBkUpnBuICDQG8vXUB2rpfBEkKzQCDfKECzr6PBKPcKQZPwBEE2lbnB9JgOQaTZv0C+icHBImKy
QDwUdkBXdIfBCBLcQKWM1UC48LbBWEMGQc8t2kAf87fBj1SlQH3Kg8BxDJLBmiZEQArZP8C4vpLB
VpKzQBzBlUBtIbzBO/nPQNPsqECiiLXB+ICqQClTVEDnOZLBjRWGQBeSN0BNCaHBRAA+QM+ngkBS
3ZPB6BfxQDC4OEBfl5fBUrjyQNxJNr9RJbnB+mXRQJtfIcBTTa7BuK7mQNBo1T9BObTByy+SQFm7
2z7e15rBXkXXQMdFVcC+fJvBPn88QCjPo7+wc5zBa92OQC+UOkDMlrnBqBbzQNwEmkBirKbBquFc
QFXxlsDanYnB2u0EQWwPDkE1sLLBmlYcQSFYB0FzUbrBqwEDQQeICkG26sDBqxcLQa7AnUCYO8DB
cqcGQTC2ykAJ6MjBYvwfQWVWxEDHTsLBUqaTQD/JgUCBgoPBzULEQPuHRkDLv4LBQSnFQJC5mEB9
BojBYQTRQCER6EA5/K/BeNjMQIkC4kDLPL7B0QQOQWj/zkCyj7DBb2NaQMBuJ0BTpKXBDfEIQE5f
g0CUVZjBdWY+QB9pkEA5pIzBQu7VQPANwb5UV7PB/dDEQNoss79y7qzBeOLOQHwGeD+Tn7DBcrKj
QCQsij7wXqHBFXm2QFsrS8C1gZnBFm9jQDRABMBEqZjBpM2jQK1pfEC+erbBFEXhQP51jUBVMq3B
OhJ+QPqGgMAD747BKLurQHyCib8n6qPBvKWbQEHFB8A1x5zBW1W1QOzapj/UmqfBSui7QKHnbUBq
cqzBouHHQAovPkCqf5nB28SAQOTrWkC6/pbBmIWvQMqlL0Cy1aPBe7D3QERM9kC3lrDBokTaQAiz
8kCnXMPBkC+yQBFCb0CQHYfB/4UCQZobtEBTBLzBK1//QPgf5UAN/rvB3NCnQOZPg8AQmZLB6uxH
QF5MQcC+2ZHBpXC7QGaklUDH3LzB/ADgQPyFnUC3V7fBsMeoQD+tUUAzAZLB7+GCQIMRQECh7KDB
s4g3QAOceUDXPZLBYGjuQErGNUAF8JfBU37oQOYAIL+YWrrBN9vKQNjJG8B/567BJPXcQHRd4D+H
abXB5NGPQLkqAz8Kk5rBpsnWQJtLT8DAhpzBhTM5QEVqob/x9JrBzyeEQJB5ZEBGPbjBfdn5QJ6M
kUCmNafBfEdnQJi4mMAJdonBEyQJQex/7ECMXqvBecn1QMy3DEHbzbDB5IHZQI836UDbdK3BuPDf
QNVa5kDoesvB+Qm8QNuc5UB9QsDBjlHYQHLqCkF9m8PBiAiUQGM8ekCHyYLBoBvFQKdkPkDs5oLB
IHvEQM+plUD2fYfB754EQSBOqUCKU8TBKeMQQbAKrEA9WbfBhIAOQSCa80B8Eb/BdIlTQJcEOEBr
x6XBew8BQFI5fECgbZbBpJk4QCqShkDZn4rBUJDJQBnuy76PJLXBvRK8QKFmtr9EP67BS1DDQOwh
cj/AQbLB9Y+fQP4Ucj7v4KHBRO62QEyUTMDigprBeyNmQFvEBcDTlZfB63jrQB8/g0AYiqzB6kOq
QM0hhkAL+LTBuoSFQLibgMDcH47BEeGmQBh1jb+snKTB7ouaQA6dCcAOAp3BxrGuQD3qoj9/dajB
jAK+QDAGbECKEKzB4G3DQDrsM0BCsJnBJOp8QB4aYkBwqJfBJr2rQE3fLEC1OqTBj6/zQO3T8ECW
5r7BlGGkQA8X8UC2EbvBWzOxQGK5dUDS84fBAUzFQNWwsECnfMTB71PHQFfR4UA+58LBMhesQJ+M
g8CJDpPBcgtSQBwHQsBiSJDBsN3xQAiil0C8f7XBQD7LQEecmUAcVbrBGPGlQIp6VECXkJLByQ1/
QHdtQ0A8c6HBPbg1QD7zg0C4B5PBgGfoQEqVHkDMv5fBsbrYQEViJL9QqLzB1OrBQFpHHcCPUbDB
0jbOQBXn3T9XgLfBpymOQEHV8j4BqZrBSGDVQHEgUcBqj57BOLg5QFoipb/TRpnBoqkBQQsbekBn
e6bBE/aIQDsJhEB6N7fBr0p6QN9wmMBbOojBgUgGQXbp5UDdfsTBeDP0QKn8CUFfbr7Bjdf5QAZI
40D27LbBOtuEQI5j5kBr7b3BM4GqQDCL40CuF7PBHd2kQD4eCkEXmbrByhOUQKDohUBy2oPB2l3A
QE64QkC+N4PBaZzHQFTHlUBp1IjBKOOlQPA2qEDR2MfBU6beQMgGp0DZF8rB2VnBQIgB8UA3s8rB
UVdMQA2LPED6QKbBkq3+P6OahkAgMpfBb7s4QKvujkCFhovBfgfPQDcYy74TabTBkzrAQGGDtr9C
ua3B7zXIQL7TcT+4i7HB9auhQHwaaz7Ul6HBaDa3QIUQTMB67pnBWmVkQDHlBsBrWpjBK2zmQBNb
hkCQ7q3BqeaiQH44gEClB7XBs22CQF3RgMC1g47BqGKpQD/vjb+gU6TByj2bQHr1CcDL/JzB+oux
QGpOoj+EAqjBapq6QBMAa0D6R6zBY2XFQOftOUCEvJnB+uB+QGQGYEBnSZfBkJKsQIawLEBo9aPB
4RmTQO5H60DJzszBuXnTQF4p8UCZk8DBT96yQOpUekCd94fBM06zQGugqEDTX8XBHsSpQC4K2EAJ
B8PBznaqQGtRg8CFrZLBpJVMQDg2Q8AjPpHBYyzoQL5/l0Csc7fB8hHAQAX6k0BDcbvBQHenQDkt
VUDLWZLBaRuAQFqsPkDA66DBEog3QHzzgkDPtJLB3NHrQBruLkBkSZjBQaDfQMvTIr83vrvBFFLG
QGRLHcA/xa/B2jrUQEsf3j8ym7bB4GOPQAnK7D5kgJrBDdXWQFvsT8CpYp3B1ZA4QESJqL+HfprB
ITQAQTO/hEDrP6jB31aBQIH1dECGgrbB4RRxQG61mMAYyIjBfkJrQFMx2UDtc87BvQOLQHx1BkH8
LsvBSm2oQBKH6UCOy9PBIF7jQDIO40Ccj7nBkgTpQGBt70DIhcfBBZvLQKNoCUE26b7BbIqVQFxr
hUBQj4PB/IjFQC6cS0AZU4PBgxnGQF03mkBZOYnBc3SWQPACmUCMkMjBxFrNQGoxpkD4QsvBK2KU
QHcl2kCcDrzBJ85MQDpRM0A0eKXBBJwAQKeDhEB0y5bBivk6QHoNj0AcUIvB2MzsQCNTkL5jNK7B
mUXWQCA6qb/KLqnB2YjiQMTHhj924avBvmWqQLXNoD7Dsp/BYs6zQJiAVcAp0ZnBfBhpQItM+r+n
X5jBID6wQEahR0BXVbjBZ+3GQMfom0CzHK7B3O5sQMZWg8BxF5HBQmq1QDa0g7+uwKHBfQqfQCZS
B8CrApzBM+K/QKlkrj+e86TB7EC4QHsvZkBAQq3BCQ3LQOh6WkBWiJnBlOiCQGyzYUCYGpbBCJWy
QIgaNEBR86LB4vcIQdB04UBkLrHB6LnGQJb9AEGmia7BDDS1QEbDjUBCzofB/5vUQHu8zEDAE77B
OsznQPLv70B6qrbBKkafQBXqicApZZTBkuRBQIrhPMDL/ZLBAeO7QMvUgUDdEr/BebnIQPpSo0Af
97jBzPurQMv5eEChiZLBb3qFQCKVPECfjZ/BDJY5QIJHcECXpZDBgf3xQNENX0C8b5jBpfsCQds0
Ar9917PBMwzeQOFgFsBJ/6rB7h31QC/07D/kYq/BTUWRQB5GCj9vDJrBi0nUQLKEX8BefZzBgltH
QGQshL+96JnBhAOjQGEiCkC9e7rBjUnPQDGesUD0uKfBl9dMQKmTnMDzwozB6xMUQRYB1UBXQbfB
q1QQQWvo/EBwFa3BLW4FQcAxyEBcUKvBGI6pQLjfBUGW0LLBRbe+QIof6UBAo6jBQoTUQBrrDkFV
aKrBXR+XQIuQl0Cw8oPByNvEQFD6aUBT7oLBMYXKQKefqUC/h4jBsY23QBf/2UDJxsHBzGPsQNbK
xUAmVMTB8nHwQABkBUGI7rvBrKdYQDDYKEAR16PBtOsBQD0xXkAH4pPBonY6QApshkAcfYnBkUvB
QODS177ADbbB/di1QORnub+a6q7BsK+8QBqZbD+h/bLBcHGeQJz8XD6P7qHBGvq1QEqSTcBY9JrB
2vplQOE7BsBlHJfB4PrwQFlYc0A0RK3BkHSuQGnnjkBdsrLB9qKHQOtkgMAKwY3BrNCjQIwmkL8d
5KTBRheZQBe8CsBiHJ3BfKmsQOG1nz/ZrKjBPjvCQPJ0aEDstKvB0qvCQGG4L0AonpnBkUd8QP+y
YUAs9ZfBmECsQCnXKkBqTqTB4aOLQHlUoUDUVcrB+N2YQIsv8UD3wsrBMlGwQGYWdkB+N4jBJn7K
QENqw0AAPMDBfX6bQIi8yED02cPBfu2sQG6pg8A2QpPBi2JVQAS9QcDDk4/BqEX3QHz9lUB70rTB
wdPPQAwIokD2CLjBhvWkQJnSUUB7qJLBpDKAQH7XRUAx3qHBsL80QADAg0CyZZPB8eHnQH3NHEDU
l5fBHZ/NQF6TKr9k4r3B49i6QMPRHsCPGrHBxlbFQEcw2z+xfLjBAkSPQONZ6j4taprBeF7TQJum
UsBvdJ/BD944QJFGpr+Ii5jBVdsEQU4SUkDq5KjB3IyMQEnsk0ANzrPBkLSAQKTll8BEqYfBAqON
QMR6hECBUcXBc35UQKF0pkBPzszBodGfQAkvnUCLeNHBPyKkQKNvBkFAHcbBLhOtQJs37UD65dHB
jQFvQDR99kC+O83BYDaTQMWChkCdLoTBj7K/QM6URED4R4PBIJPGQIPulUCKWonBJP3dQPLbukD9
PcfBpbvVQHQM4kAZ77zB7BOHQHe5zECiwLzByStPQIxfQ0Co+KbBGt/+P1GPh0A0uJfBrXo2QNiR
jUBLyYvB

> <OMEGA_E>
oEI7PqgHVj7Q1xU+nHLpPsB1yz7sEQY/vOAQPw==

> <OMEGA_NBR>
     32485

$$$$
50176688
  -OEChem-04172616093D

 57 60  0     1  0  0  0  0  0999 V2000
    6.6334   -0.3319  -22.4722 C   0  0  0  0  0  0  0  0  0  0  0  0
    3.0962   -3.1427  -18.3860 C   0  0  0  0  0  0  0  0  0  0  0  0
    6.1154   -1.3675  -21.6816 C   0  0  0  0  0  0  0  0  0  0  0  0
    3.5299   -2.1394  -19.2614 C   0  0  0  0  0  0  0  0  0  0  0  0
    6.4159    1.0040  -22.1015 C   0  0  0  0  0  0  0  0  0  0  0  0
    5.1186    0.2721  -20.1725 C   0  0  0  0  0  0  0  0  0  0  0  0
    4.0272   -4.0868  -17.9073 C   0  0  0  0  0  0  0  0  0  0  0  0
    5.0569    4.0186  -22.7401 C   0  0  0  0  0  0  0  0  0  0  0  0
    7.0923    4.2317  -21.7000 C   0  0  0  0  0  0  0  0  0  0  0  0
    5.3689   -1.0617  -20.5250 C   0  0  0  0  0  0  0  0  0  0  0  0
    4.8825   -2.1218  -19.6470 C   0  0  0  0  0  0  0  0  0  0  0  0
    5.6404    1.3184  -20.9485 C   0  0  0  0  0  0  0  0  0  0  0  0
    5.8453    3.7108  -21.5244 C   0  0  0  0  0  0  0  0  0  0  0  0
    5.7697   -3.0938  -19.1259 C   0  0  0  0  0  0  0  0  0  0  0  0
    6.2216    2.9591  -19.1598 C   0  0  0  0  0  0  0  0  0  0  0  0
    4.0258    3.5146  -18.8679 C   0  0  0  0  0  0  0  0  0  0  0  0
    5.4530    2.7483  -20.4517 C   0  0  2  0  0  0  0  0  0  0  0  0
    6.8952    7.5614  -21.8548 C   0  0  0  0  0  0  0  0  0  0  0  0
    8.0338    9.1397  -23.4225 C   0  0  0  0  0  0  0  0  0  0  0  0
    5.5554    3.7152  -16.8545 C   0  0  0  0  0  0  0  0  0  0  0  0
    8.0426    6.7280  -24.0334 C   0  0  0  0  0  0  0  0  0  0  0  0
    8.2399    5.2696  -23.6147 C   0  0  0  0  0  0  0  0  0  0  0  0
    8.0775    7.7200  -22.8414 C   0  0  0  0  0  0  0  0  0  0  0  0
    5.3313   -4.0495  -18.2744 N   0  0  0  0  0  0  0  0  0  0  0  0
    5.8383    4.6424  -23.5879 N   0  0  0  0  0  0  0  0  0  0  0  0
    7.0387    4.7410  -22.9608 N   0  0  0  0  0  0  0  0  0  0  0  0
    5.2563    3.2954  -18.2279 N   0  0  0  0  0  0  0  0  0  0  0  0
    4.0620    3.0168  -20.0813 N   0  3  0  0  0  0  0  0  0  0  0  0
    2.9103    4.1188  -18.3104 N   0  0  0  0  0  0  0  0  0  0  0  0
    7.4158    2.7673  -18.9545 O   0  0  0  0  0  0  0  0  0  0  0  0
    7.0915   -3.0433  -19.4225 F   0  0  0  0  0  0  0  0  0  0  0  0
    7.1981   -0.5615  -23.3637 H   0  0  0  0  0  0  0  0  0  0  0  0
    2.0613   -3.1925  -18.0812 H   0  0  0  0  0  0  0  0  0  0  0  0
    6.2878   -2.3972  -21.9579 H   0  0  0  0  0  0  0  0  0  0  0  0
    2.8407   -1.3954  -19.6326 H   0  0  0  0  0  0  0  0  0  0  0  0
    6.8399    1.8003  -22.6952 H   0  0  0  0  0  0  0  0  0  0  0  0
    4.5218    0.4951  -19.3004 H   0  0  0  0  0  0  0  0  0  0  0  0
    3.6928   -4.8594  -17.2309 H   0  0  0  0  0  0  0  0  0  0  0  0
    4.0177    3.7717  -22.9003 H   0  0  0  0  0  0  0  0  0  0  0  0
    7.9210    4.2386  -21.0074 H   0  0  0  0  0  0  0  0  0  0  0  0
    6.9082    6.5484  -21.4260 H   0  0  0  0  0  0  0  0  0  0  0  0
    6.9897    8.3024  -21.0474 H   0  0  0  0  0  0  0  0  0  0  0  0
    5.9474    7.7208  -22.3898 H   0  0  0  0  0  0  0  0  0  0  0  0
    8.8673    9.2736  -24.1277 H   0  0  0  0  0  0  0  0  0  0  0  0
    7.0801    9.2909  -23.9494 H   0  0  0  0  0  0  0  0  0  0  0  0
    8.1223    9.8725  -22.6069 H   0  0  0  0  0  0  0  0  0  0  0  0
    4.6162    3.9246  -16.3217 H   0  0  0  0  0  0  0  0  0  0  0  0
    6.0997    2.9121  -16.3361 H   0  0  0  0  0  0  0  0  0  0  0  0
    6.1752    4.6237  -16.8758 H   0  0  0  0  0  0  0  0  0  0  0  0
    8.8428    7.0002  -24.7373 H   0  0  0  0  0  0  0  0  0  0  0  0
    7.0674    6.8183  -24.5340 H   0  0  0  0  0  0  0  0  0  0  0  0
    8.4580    4.6658  -24.5079 H   0  0  0  0  0  0  0  0  0  0  0  0
    9.0864    5.2081  -22.9150 H   0  0  0  0  0  0  0  0  0  0  0  0
    9.0211    7.5844  -22.2926 H   0  0  0  0  0  0  0  0  0  0  0  0
    3.2653    2.8475  -20.6615 H   0  0  0  0  0  0  0  0  0  0  0  0
    2.0657    4.1953  -18.8404 H   0  0  0  0  0  0  0  0  0  0  0  0
    2.9498    4.4783  -17.3781 H   0  0  0  0  0  0  0  0  0  0  0  0
  1  3  1  0  0  0  0
  1  5  2  0  0  0  0
  2  4  2  0  0  0  0
  2  7  1  0  0  0  0
  3 10  2  0  0  0  0
  4 11  1  0  0  0  0
  5 12  1  0  0  0  0
  6 10  1  0  0  0  0
  6 12  2  0  0  0  0
  7 24  2  0  0  0  0
  8 13  1  0  0  0  0
  8 25  2  0  0  0  0
  9 13  2  0  0  0  0
  9 26  1  0  0  0  0
 10 11  1  0  0  0  0
 11 14  2  0  0  0  0
 12 17  1  0  0  0  0
 13 17  1  0  0  0  0
 14 24  1  0  0  0  0
 14 31  1  0  0  0  0
 15 17  1  0  0  0  0
 15 27  1  0  0  0  0
 15 30  2  0  0  0  0
 16 27  1  0  0  0  0
 16 28  2  0  0  0  0
 16 29  1  0  0  0  0
 17 28  1  0  0  0  0
 18 23  1  0  0  0  0
 19 23  1  0  0  0  0
 20 27  1  0  0  0  0
 21 22  1  0  0  0  0
 21 23  1  0  0  0  0
 22 26  1  0  0  0  0
 25 26  1  0  0  0  0
  1 32  1  0  0  0  0
  2 33  1  0  0  0  0
  3 34  1  0  0  0  0
  4 35  1  0  0  0  0
  5 36  1  0  0  0  0
  6 37  1  0  0  0  0
  7 38  1  0  0  0  0
  8 39  1  0  0  0  0
  9 40  1  0  0  0  0
 18 41  1  0  0  0  0
 18 42  1  0  0  0  0
 18 43  1  0  0  0  0
 19 44  1  0  0  0  0
 19 45  1  0  0  0  0
 19 46  1  0  0  0  0
 20 47  1  0  0  0  0
 20 48  1  0  0  0  0
 20 49  1  0  0  0  0
 21 50  1  0  0  0  0
 21 51  1  0  0  0  0
 22 52  1  0  0  0  0
 22 53  1  0  0  0  0
 23 54  1  0  0  0  0
 28 55  1  0  0  0  0
 29 56  1  0  0  0  0
 29 57  1  0  0  0  0
M  CHG  1  28   1
M  END
> <OMEGA_C>
ukTUQP/oqb7+xrPB4yhGQKMhScB2FpPBe7HDQJsKr7/1c63BbelhQKvsCMBtF5rB+k7NQJGBgD/Z
z7DBPMujQARSiz5fYaHBKt+AQKnGgsA/Qo/BvNGhQEeYgECo67XBdPTiQNRph0CKma3BoM2rQFbm
h78+M6TBDz2cQNHLB8D1LJ3BBn60QDnBqD+BlqfByQy7QNl9bUDkMazBvqG4QKIBRsDqAZnBnhfH
QC9hPUAzR5nBOtOAQHXvYEBv8ZbBnH6uQNDkL0ARnaPB2aXcQKD28UCo1q7BdYoAQRc8EkFeYbvB
MsaxQHPFbUAd1obBn64AQY9L10BSRMDBvdYDQd2gqEDu6rzBfz0BQQAK90A/u7bB65mqQGiVgcD4
MZLBV9O6QF2OlEDts7zB5DzhQBy2l0DBr7fBTzOoQLjnUkDF0pHBi/uBQJkTQUBxpqDBDUI6QO/M
g0C5e5LBJk7tQB8cMUC6opfBW+3iQGDFQsBIYZvBelbmQCm/D7/U6LrBzewDQNdRTMBdppDB3TXJ
QHtsGcC+qa/Boc01QFCbsr+LD53Bc+DaQOhv5j+5j7XBubKQQP19/T5LZ5rB3FZsQE6Am8Dw2InB
MZGAQOljcUDHM7fBPHn9QGGih0A+D6jBzQ/dQOGM0UCGaKvBnqvfQKXWBEEQYajBeVG+QAAR90Bg
HrPBouANQbNgFEGRBcHBE5DiQGqnFEFYmL/BHPUBQY/1HUEI27TBjbeTQAkse0DnkoLBDzHDQD5f
OkBnsILBNZvFQIr1k0CNAYfBO3wNQWgB4EAU5sXB2yfiQMsv2kC7RcTBz1MHQUtOlUBBEMTB/2ER
QQGppkDVUbfBi1YQQZSz8kA9V7LBDvtQQEU9NkDRSqXBJTUEQK8/hkAruZbBiMk8QNlNj0BYBovB
iCzhQCJcnL4f9LHB6PGjQK9agsAQcJLB1NbNQFFJrL/4KKzB7ja3QKvpR8D+GpnB5o7YQDXvgz8G
Oq/BqIWpQNwNlD5N56DB66RvQC9RfsChOpDBxLudQBiBdUCumbXBgv7fQHONiUAEqK7BsK+xQKRH
hb+2rqPBjr2dQJr9BcDVUJ3BRtu7QP8Cqz+KuKbB0l26QN3Qa0AZQazBt9ViQP49A8Bj1prBwM7K
QEjLRUBoAJnB+EKDQLnrW0A+cZbBmluyQGqbMEDBI6PBsPzmQAiQA0GfRLzBrYUNQWNwA0E74qzB
ruWzQFLDc0DsiobBeEEMQVhvx0D5GbnBUPr8QOfrp0CPlL/BrGz9QBpC60DOyLPBd/A+QCLxPsAt
bJTBwK6yQHTbjkC1Jr3BCNTZQMnqlkCn/bjBVlGrQOdoVUDrbpHBCmWFQC0xO0AFE6DBHXU8QJZe
fUD7AZLBTpfxQKyMQkCPjJfB6aovQKS+i79sF5/Bbpr2QKgWCL9zfLjBPK62QAv7m8CuBY/BBH/U
QLMAGMDCL67B8+jYQNKgS8AN+JrB2cnnQBRa6j8em7PBod6UQLNsAj8vNJrBpRxSQG2VlsAuD4vB
Xyx6QH0xX0DUG7bBauD7QBCgjUBqp6nBCdHRQIz68kBWLMHBmfPTQOcEEEGQRLjBoS3/QPwhC0Fl
a8HBM3AVQQ+t8kCQ3KbBhrAZQVACC0Em/rHBgRMEQTvlD0FS16jBRYGVQGfvekDQMYLBi07IQLos
RUA+XILBQVTEQEX6mEDW5obBkLUUQQWXtUCLzbLBxP0XQbFU1kDuf77BGHjvQPiduEB6jcbB45QI
QXo9jUDBUMLBmgnlQOFi3EBOpK7BanxYQPDOK0COoaTB5AgGQAFqfUCoN5bBh2w9QKu7ikDxmIrB
fnjZQM6ujb5wbrPBaFepQMbvgMCpaJLBWrvIQEc7qb9RM63BqKO5QMMERcAEjZnBYtTQQDBchz+K
o7DBEmSmQJW0mz5Re6HB6+p7QJGBfcBmXI/BVNGgQEt7fUCNL7bBUlPgQGV+ikAIbK3BmOWuQCAi
g78KQqTB8gKeQNUXBcB1Yp3BEJS2QOh0rT+5oKfBvmm5QE1Ub0BtN6zB2TBlQOVRBMABDJrBNAnI
QFlKQEBLbJnB1h+BQPvgXECWnJbBWsSuQO1ZMUDnnaPB0HfdQMiS9EAIgrHBig//QHsXEEGuAcDB
gquzQGCCcECs64bBatEAQfpN0UCjD8LBOpEDQW82pUCoB73Bfi8BQW8b9kA8wrnBGw1HQPr+P8De
LpPBPPC5QFE7kkCkBb3BhJ7fQG+Sl0AVwrfBuIqpQHJDVEAM0ZHBsDyCQO9EP0BGbqDBGUI5QN6u
fEDovJHBJHDuQNPuNEDF8pfBPdEtQJo6kr8s8J3Bue3sQLDV/r57WbrBcsi9QLTPmcC+RI/BTZzP
QDBYFsA5P6/B3rLaQFkvR8D2DZzBNCjeQAlH7j8CWbXBPR+TQMj0BD/fhJrBN/diQAQ2lsDq1YnB
3/p/QJD1akCwk7fBhI75QKshjkCPlqfBB03fQK6N1kCK76zB4ETgQK/zB0GuAazBTZm+QOMu9kC1
t7XBlIgMQcrvEEEA7MXBlAfgQFnKEEFgJcTBk9kAQZamHUFYb7rBwc6VQO40fEBDf4LBZ1DGQIKW
PkAq04LB3n/GQJP2lUCtQ4fB++MNQS901kCVz8fBLMniQLQd0kAyS8bBIrYHQcn/jUDtT8PBSIcQ
QTyFpkDnFbfBzIkQQYVR9UDmdbXBoEtRQOT4M0ClBaXB6NwBQLACfkC1vZXB3/U7QGcoiUBjN4rB
jgDWQH0RkL7MBbTBeeeqQNZ8gsBw8ZLBJcvFQA+Lqr9awq3B1cS5QJGIR8CENJrB4kbOQPKPhj8H
A7HBhTelQNmtkT57pqHB1zeAQENggMDFVY/BemyiQNhTe0CyQbbB3xDfQEoCjkBUsKzBQi+tQCOj
hb+TlKTBSX6dQIETB8A4mZ3Bmie1QNnIqz8qzKfB6465QCLcb0ArCazBZKJlQEiNBsC9s5nBaTfH
QFk/PUA9WpnB+9aAQJbWXkCtw5bB7DauQNtrMEBQnqPBn03UQB2ICkHhXsfB3H/xQPU/BEFW0LTB
n+KyQJDKbkD+6obB8IL7QOPv0EBapsPB1kwDQdNZrUA1t7vBcG3dQHVT80C3xL7BAjhKQMbVQsBH
vJLBGqS7QOtxkkAfzbzBTGXfQP2Om0Cu/7bBca2oQFpSUkCqzJHBC66BQA4xP0AdfKDBXzg6QEAY
gkDxJpLBTprtQDS7MUAz4ZfBk+AsQDKtlb/eH53Ba1zoQIl4/r74IrvB/uq/QHqGm8A8I5DBUybM
QJHiFsCL9q/BukPaQHWkScB4Ip3B43XbQFPl7T/btbXBcpOSQIpW/T5wkprBgrBpQOsKmMCmt4nB
TmuCQLNRZUC8AbjBWq72QJFjk0CIhqbBsAPGQGfFAkE7as7BKPS9QEmKFkF4LsTBS2XyQMllEkFe
sMnBvt/3QD7z70BBtq7BdNgHQRYYDEGtEbfBxj/bQJY8EEHIj7HBYg+VQIV6e0CBhYLBVCjFQIyR
PEB6xoLBEBzGQCXYlEC9SofBZqoMQe2S4EAfN8bBzZXrQLSTwkDWoMrB8gMMQWTOk0BC67/B028N
QVWCukBkUbXBHCq/QMjw40COcbzBuA5QQOsaM0DaBaXBaZADQOEehECKSJbB+Uw9QESMjUAnsYrB
ugHEQMPfvL6zfLXB5pytQLZahcCIBJPB1sa4QMxDsr8nXa7Bt2W6QIiWScAyDJrBemfAQJjbeD/H
T7LBKculQINtjD6K16DBqW+DQJI/hcAkAI/BSxnqQDQ2fUD+56/BBA+kQJprh0Ab97TB7zupQAFB
ib+/F6TBGLKcQIp3CcD4wpzBF72xQL0vqD9Z2afB0dq8QHKjbEAa+KzBOZRlQOj3DMBFdZjBt9bG
QIpIQkAgyJnBkQmAQL4+Y0C4E5fBzuetQNSqMUCPFKTBN8bpQOe/EUGARcLBKazcQE7870CuWrPB
LeqyQA52eUAqaYfB4f3RQJwm2UDmZsfBxri0QKO0sUCAgMXB0ALOQMUn/UAvwL7B+u9NQL7OTMAu
v5HBpvbqQK5lkkA8J7nBFGfBQHYbmUCM2rvB84GpQIrzZUDJtZLBz3KBQKTNRUDz9KDBYHU1QDxj
fEBX4ZHBbdzsQNJaNEBlE5jBto0qQFYgo79LS5vBVmrPQG2eHL9saL3BEsrDQEQznsCDtZDBEAe8
QMVDG8DYvbDBUmTaQNOrSMD1T53BktjIQGba4D+L3LfBhvOZQPSGAj9n8pjB0yNzQBNdnsApmonB
9d0CQXGZa0BONavB6p2BQD8Oh0BirLXBMTTgQJjZFkHNWMrBjEHlQBcUH0EGo7zBfNQFQbb8DEGH
VsLBo3rJQJSi1EAJlrDBG6z+QNLn5kCZjLPBrkTYQEmLBUEY2a3BiFuWQM+UikACm4PBRPG7QMA9
PkC7OIPBfnnNQL/Dk0By+YbBjmbzQLYTzkBSh8fB18LJQPgL50CTOM/B2Y+TQLbOvEDPfsTBObC2
QNuOnEADhczBRmWsQPy9A0HgXb7BK9hPQF0oPkCKr6XBjVr6PwKyeEAsqZXBlRs4QG4TiUBDXYrB
KtPCQMOr1L6fDbXBYE5MQMQVTcDu4JDB4Pa2QIIotr9g263BD9FiQHd+CsD53JfB7Nq/QFI2bj9E
/bHBlHKkQH62iT5mfqDB3POEQGbUhcCUQI7BIZjqQLjPeUB+2a/BH72kQGcehkAvBrXBq6SnQB+T
ir8gmaPBzBibQIwXCcDPHpzBbwuxQCuIpT87lafBUDa9QCR7akDD76zBn464QACxScC9IZnB8KfG
QHXXQUAorJnBXQGAQJinZECbFpfBb8etQGnJMECW96PBcS/sQPZfEEF3ycLBfFLeQDYy7kB5tbPB
psWyQF1fe0B/aYfBcszTQGtZ1kBNsMfB7x62QGdKr0AusMXBkv/PQIHd+kDdKr/BiymtQP6IhMDF
T5LB7tPrQF4mkECXKrnBkmLCQHwdl0Cd8LvB0WypQCrlZkD2r5LB8WeBQL1LRkB37KDBzH41QKIL
f0B595HBopTsQGdKM0Bl6ZfB+0vhQG+CR8De2JzBjzrOQPWaLL8m8bzBm5gMQNVlUMCwjY3B74y5
QG59HcDLKbDBvx41QPytsr/17ZnB5+bIQPgP2j8blbfBgk+YQOBhBT/PqJjBuZF4QHlzn8DB34jB
wgYDQUoyaEBhFqvBEU+CQA0NhkDhxbXB/NziQGZLFUGO6MrBis/nQCThHUEuQL3Bm/0GQSV0C0GL
x8LBgNLKQIou00CG3rDBlR4AQX/K5EDX1LPBfRHaQD7SBEF5Ta7BrFCWQEINjEALroPBzme7QN1l
QEBBHoPBzJTNQKRxlEBnBofBWBr1QIT0ykCovMfBwNjLQFfj40CQkM/BZgyVQA7CukDQwsTBmAW4
QIy8mUAVoczBmXmuQKrDAkH8277B8NVPQJTbPkCpq6XBf5r6PyGZe0B0xZXBsyA4QCq7ikAQe4rB

> <OMEGA_E>
3MqZPkhOvj4cjZg+KH2aPth1Aj/ArgU/

> <OMEGA_NBR>
     38403

$$$$
50176696
  -OEChem-04172616093D

 56 59  0     1  0  0  0  0  0999 V2000
    6.7585   -0.3281  -22.3770 C   0  0  0  0  0  0  0  0  0  0  0  0
    6.2172   -1.3602  -21.5951 C   0  0  0  0  0  0  0  0  0  0  0  0
    6.5272    1.0112  -22.0261 C   0  0  0  0  0  0  0  0  0  0  0  0
    5.1805    0.2910  -20.1280 C   0  0  0  0  0  0  0  0  0  0  0  0
    5.6521   -3.2678  -19.3354 C   0  0  0  0  0  0  0  0  0  0  0  0
    3.6326   -1.9813  -18.9927 C   0  0  0  0  0  0  0  0  0  0  0  0
    5.0526    3.9696  -22.7395 C   0  0  0  0  0  0  0  0  0  0  0  0
    7.0959    4.2769  -21.7405 C   0  0  0  0  0  0  0  0  0  0  0  0
    3.9493   -4.0361  -17.9327 C   0  0  0  0  0  0  0  0  0  0  0  0
    5.4275   -1.0505  -20.4664 C   0  0  0  0  0  0  0  0  0  0  0  0
    4.8949   -2.1129  -19.6064 C   0  0  0  0  0  0  0  0  0  0  0  0
    5.7219    1.3340  -20.8973 C   0  0  0  0  0  0  0  0  0  0  0  0
    5.8667    3.7231  -21.5277 C   0  0  0  0  0  0  0  0  0  0  0  0
    6.2453    3.0388  -19.1348 C   0  0  0  0  0  0  0  0  0  0  0  0
    4.0137    3.4526  -18.8513 C   0  0  0  0  0  0  0  0  0  0  0  0
    5.5001    2.7732  -20.4302 C   0  0  2  0  0  0  0  0  0  0  0  0
    7.5477    8.9908  -23.0757 C   0  0  0  0  0  0  0  0  0  0  0  0
    8.8787    7.3664  -21.6903 C   0  0  0  0  0  0  0  0  0  0  0  0
    5.5207    3.7824  -16.8408 C   0  0  0  0  0  0  0  0  0  0  0  0
    8.0000    6.7201  -24.0077 C   0  0  0  0  0  0  0  0  0  0  0  0
    8.1870    5.2223  -23.7546 C   0  0  0  0  0  0  0  0  0  0  0  0
    7.7228    7.5132  -22.7061 C   0  0  0  0  0  0  0  0  0  0  0  0
    5.1710   -4.2081  -18.4969 N   0  0  0  0  0  0  0  0  0  0  0  0
    3.1759   -2.9485  -18.1725 N   0  0  0  0  0  0  0  0  0  0  0  0
    5.8089    4.5605  -23.6309 N   0  0  0  0  0  0  0  0  0  0  0  0
    7.0194    4.6944  -23.0382 N   0  0  0  0  0  0  0  0  0  0  0  0
    5.2551    3.3192  -18.2078 N   0  0  0  0  0  0  0  0  0  0  0  0
    4.0963    3.0020  -20.0801 N   0  3  0  0  0  0  0  0  0  0  0  0
    2.8496    3.9518  -18.2890 N   0  0  0  0  0  0  0  0  0  0  0  0
    7.4513    2.9534  -18.9283 O   0  0  0  0  0  0  0  0  0  0  0  0
    7.3524   -0.5641  -23.2476 H   0  0  0  0  0  0  0  0  0  0  0  0
    6.4046   -2.3911  -21.8567 H   0  0  0  0  0  0  0  0  0  0  0  0
    6.9635    1.8029  -22.6171 H   0  0  0  0  0  0  0  0  0  0  0  0
    4.5687    0.5220  -19.2685 H   0  0  0  0  0  0  0  0  0  0  0  0
    6.6184   -3.4011  -19.7990 H   0  0  0  0  0  0  0  0  0  0  0  0
    3.0307   -1.1044  -19.1800 H   0  0  0  0  0  0  0  0  0  0  0  0
    4.0127    3.7071  -22.8668 H   0  0  0  0  0  0  0  0  0  0  0  0
    7.9240    4.3635  -21.0526 H   0  0  0  0  0  0  0  0  0  0  0  0
    3.5768   -4.7980  -17.2640 H   0  0  0  0  0  0  0  0  0  0  0  0
    6.7249    9.0935  -23.7985 H   0  0  0  0  0  0  0  0  0  0  0  0
    7.3145    9.5700  -22.1701 H   0  0  0  0  0  0  0  0  0  0  0  0
    8.4784    9.3694  -23.5236 H   0  0  0  0  0  0  0  0  0  0  0  0
    9.0030    6.3058  -21.4262 H   0  0  0  0  0  0  0  0  0  0  0  0
    9.8099    7.7443  -22.1376 H   0  0  0  0  0  0  0  0  0  0  0  0
    8.6461    7.9449  -20.7842 H   0  0  0  0  0  0  0  0  0  0  0  0
    4.5678    3.9313  -16.3119 H   0  0  0  0  0  0  0  0  0  0  0  0
    6.1214    3.0298  -16.3090 H   0  0  0  0  0  0  0  0  0  0  0  0
    6.0724    4.7334  -16.8767 H   0  0  0  0  0  0  0  0  0  0  0  0
    8.9146    7.1157  -24.4735 H   0  0  0  0  0  0  0  0  0  0  0  0
    7.1504    6.8585  -24.6925 H   0  0  0  0  0  0  0  0  0  0  0  0
    8.2938    4.6990  -24.7162 H   0  0  0  0  0  0  0  0  0  0  0  0
    9.0910    5.0635  -23.1483 H   0  0  0  0  0  0  0  0  0  0  0  0
    6.7937    7.1409  -22.2499 H   0  0  0  0  0  0  0  0  0  0  0  0
    3.3182    2.8392  -20.6867 H   0  0  0  0  0  0  0  0  0  0  0  0
    2.0076    3.9829  -18.8275 H   0  0  0  0  0  0  0  0  0  0  0  0
    2.8517    4.2810  -17.3447 H   0  0  0  0  0  0  0  0  0  0  0  0
  1  2  1  0  0  0  0
  1  3  2  0  0  0  0
  2 10  2  0  0  0  0
  3 12  1  0  0  0  0
  4 10  1  0  0  0  0
  4 12  2  0  0  0  0
  5 11  1  0  0  0  0
  5 23  2  0  0  0  0
  6 11  2  0  0  0  0
  6 24  1  0  0  0  0
  7 13  1  0  0  0  0
  7 25  2  0  0  0  0
  8 13  2  0  0  0  0
  8 26  1  0  0  0  0
  9 23  1  0  0  0  0
  9 24  2  0  0  0  0
 10 11  1  0  0  0  0
 12 16  1  0  0  0  0
 13 16  1  0  0  0  0
 14 16  1  0  0  0  0
 14 27  1  0  0  0  0
 14 30  2  0  0  0  0
 15 27  1  0  0  0  0
 15 28  2  0  0  0  0
 15 29  1  0  0  0  0
 16 28  1  0  0  0  0
 17 22  1  0  0  0  0
 18 22  1  0  0  0  0
 19 27  1  0  0  0  0
 20 21  1  0  0  0  0
 20 22  1  0  0  0  0
 21 26  1  0  0  0  0
 25 26  1  0  0  0  0
  1 31  1  0  0  0  0
  2 32  1  0  0  0  0
  3 33  1  0  0  0  0
  4 34  1  0  0  0  0
  5 35  1  0  0  0  0
  6 36  1  0  0  0  0
  7 37  1  0  0  0  0
  8 38  1  0  0  0  0
  9 39  1  0  0  0  0
 17 40  1  0  0  0  0
 17 41  1  0  0  0  0
 17 42  1  0  0  0  0
 18 43  1  0  0  0  0
 18 44  1  0  0  0  0
 18 45  1  0  0  0  0
 19 46  1  0  0  0  0
 19 47  1  0  0  0  0
 19 48  1  0  0  0  0
 20 49  1  0  0  0  0
 20 50  1  0  0  0  0
 21 51  1  0  0  0  0
 21 52  1  0  0  0  0
 22 53  1  0  0  0  0
 28 54  1  0  0  0  0
 29 55  1  0  0  0  0
 29 56  1  0  0  0  0
M  CHG  1  28   1
M  END
> <OMEGA_C>
q0XYQN0CqL4QBLPBVPPGQJEbrr/IwqzBtN7QQDJvgT+ONbDBSMalQKL6lD4nBqHB1N20QBwkUcDp
rprBlHxoQGec/b8K8ZfBya6hQGUOfkCE6rXBphHjQFDciECB7K3BVMF8QLEngcApdo/BJ66tQH13
hr8ou6PBCKOcQHM6B8Dv2ZzBchm3QATAqj/BLafBF7y7QK5GbkC4OKzBeNnHQB17QkAUFJnBKnCA
QBf3XECOz5bB7QCwQJt8MUAXcaPB6obxQGbaD0ENm7jBSg8OQW+560DKha3Bm6mwQCgTckD9uYbB
EAAAQQ4L10DFD8DBwP0CQc0cp0BbCb7BOiH3QP9r8EAKprXBCXmlQGiohsCh+ZPBMEJLQNuzPMBL
YZHB6OK5QN3vkUANDL3BIJ/gQIE4lkA/TrjBeCmoQBRuVECkqZHBJxWDQA8hQEAZpKDBqGA2QBnr
fEDmT5LBSHHuQL4EPUBCbZfBrkbrQFdpEL8p+7nB3PLMQJQIGcCT2q7B69TeQJjG5j/J77TBlzKS
QNGiBT/kJZrB18nTQMyrWcBEZJ7BAvdBQJhcjb+bcJnBUGiAQJNBbUAu77bBm5H9QGqhi0DOa6jB
jOpkQEOJmcCuHIrBTDLXQAZ/EUFMY77BmhDqQOkeGUFgXLHBaacHQfroFUFFMLzBSwwQQT/JyUDp
aKvBefUcQRzR90DYGbHBXlYKQfk8/kDzRabBQCuSQGOae0C8foLBjuLDQProQUDoeILBbVHCQLh3
l0CRA4fBVKIOQeuz40C6ycPB/8/kQPN420BIisXBPrMEQUdelkDXusXBrnQRQf4HokDQL7nBnmXZ
QCaC5EDY/7HBUF1UQOm0NUByfqXBZHwAQKTofkC6npbB24I2QB3+iEAKworB9zLZQKcvp74Pq7LB
cofHQOCUrb9ecqzBeJrRQD3GgT+D66/BVs+kQIR3mD5GA6HB+3O2QL5OS8CWh5nBbM5jQB5mA8Cw
95jBQc6jQAsJc0AHmrbB/PfeQH0IkECIRK3BCfh6QGRVgcAxnI/BvGmtQKt4hb+wlqPBH1acQPah
BsC/vpzB/si2QLBmqz+7GKfBIBa7QJuMbkCmUKzBDYHIQGn1QkDFNJnBtECBQJqeXEDMipbBtOev
QIH9MUDrbqPB5Fq8QJRh70CdkMjB8E69QA3JEUHNNrnBj92yQAaPckDFwobBNWPzQOA+6ECxXLnB
CEb+QJ2ouUAwQLzBDtrEQFjJ9EBWbbzB9rSmQCMEhMAm9JLBmQhGQEnlQcAYhpLByBC7QGeAj0Bf
Wr3Bb9/dQC6WnECZurfBZGqpQDsiVEACnJHB6TODQL3qQEDSb6DBCqY4QF6je0DTx5HBa0XvQFEE
PkA2zZfBQpvsQC2iEL/fjrnB7OvNQB/SGMCFcK7ByjngQLvr5j+jibTBwkOQQNbFBz+tUZrB0hbX
QCZjT8B3U5zBCJ46QJXYnb+iOpvBK/GEQEXjVkBlQbjBam72QBbEl0DEOafBH21iQEIKmsDUZ4rB
YsPBQGDXzUA23srBjA6bQJdI+EC9WcrBjjXSQJIYAkFRGM3BKFfDQA+0E0HymLDBmynTQOUwHEF3
vr3BmAKcQJ48FkHk/7rBQsaUQG1Ge0ClU4LBBfPGQAY9Q0DCm4LBufjDQI39l0AjNofBrWP3QNVy
7EC4rrDBFdEEQXmM/UA0n73Bc9T+QAgotkCHAcXBA/MOQUt6sUDn+LjB7oCuQJw84EBL+bfBovRT
QG5rN0DLNqXBuf8BQITWfUBZ75XBYwI6QM7oh0DLMIrBnnHXQMbfpb5MRbPBi9rGQNjWrr9m/KzB
CN7OQHxrgT8jhLDBzYCjQKrIhz6Ad6HBrHy3QAyHS8CI1ZnBmqdlQNAsBMAG+ZjBifihQDysfEC7
PbbBwHXgQEvGiUAsBK3BX+1/QMJngMAIPI/BE9ysQNuYiL/jEaTBSMGcQAT4B8AsFZ3BU2G0QMJu
qD9okafBG3e5QGVpbUAzIKzB24bGQCJ0PUCTTpnBv0mAQM+xYEDo05bB9H2tQC9nL0BxkqPBmI/T
QLTY80DERrHBT6v2QDaJEUGexb7Bo3CyQOxVc0AqCofBh00AQWLB1EBeAMHBkw8EQd7CqEDSBrzB
oi37QMLl+EDlmrjB+r6oQFlXg8Ch5ZLBq/VJQHr4QMDnKJLBXMG7QIhZkkCC1bzBGK7gQAILmEDI
QrfBQSKoQFQMVUAQ2JHBiQmBQNqbP0Ahe6DBTUo5QFpWg0BAQpLBqNnsQArEMUDLv5fBVcHqQGRx
DL/9NLrBCPjNQEIrGcB6+K7BUXLcQJHv5z/ZNrXBdSKPQLNo9z5RtZrBYL3XQNQHUMD54pzB95M7
QBUXob9aSJvBe1iBQH0ZakAL5bfBUi/5QD/NjED2BqfBBwBpQKuImMC0wInBXxPWQDi+1UBVwqzB
mA7SQOh0B0G8qavB/mO2QMNN80AoM7bBx0EJQXGwE0H0C8TBa0rZQIwfEUFoncPBBfX0QJLtHkH8
E7nB76qUQEzxgEAntoLBzTvEQM5YQUDkuYLBIinGQMy+lkDvk4fBGhIOQemX3EAGH8bBtmzjQKdJ
00C36MXBgJQJQSaNkkBuRcLBCWAQQc56q0C3xrXBQgwMQVdJ+kB5mbPBr7BOQI5sM0AXAKXBS3sC
QJgQhUDqXZbBo6M8QHtRj0A92orBVsDGQKj8z74E2LTBdmK6QIt0tb9bua3B4hfDQPCOcD8B17HB
lmKmQGrfij5xf6DBZVSwQDyGW8BlXJzB4lx4QFvw+L8kbZTBbpnrQIlPgECrPq/BEIemQIjchUDX
SLXBYVqEQGh6hMA7Xo7BJAOqQCIxi79yg6PBi8icQAsgCsDJDZzBcAizQGUtpj+4kKfB4TS+QE/i
a0CC7KzBKsvFQKBeQ0BUlJnBjx19QEGgY0DWjpfBlmWuQA8rMUAnD6TBJGqiQG+KA0GxT73BsP3t
QH88D0FufsHB1yivQM6rfEACg4fB7zrUQGVL1kD8LcjBdli5QGFArUDzLcbBUwHRQM/E90B/877B
W+ajQBfBjMCHhZXBmeFgQNQBPMD5uY3BMJrtQFnBlEALZrjBO43EQEmkmECu0bvBmmKnQG2NZ0DO
15LBDHKBQInZRECtWqHBCO0wQKrjfECPvZLBNI3rQNPRNUDzf5fB+RnTQCjqKb9bpbzBO1+9QFUJ
HcC+C7DBv4/MQDVf2z8zYbfBHdCZQDxrBj/PtZjBfF3JQKo/aMDOGaLBuCJZQLCxe78j85PBtkgD
QYSscEAUOarBQFWEQK8NhEAKdLbBe1Z1QJeYncAv84jBGN6NQKBu60CKgLvBbzqhQJDzDkEwnrbB
n/+WQJFoC0HApcTBr4wHQaK6CUGtp8LB5KTiQGAdF0F41cjBs9/sQF+oGkHozbrBawGSQL88jEBo
A4TBycm3QHoiQkDkH4PBQn/JQNCTlUA48YbBXvn1QEP3zED4F8nBtPDIQLxh5UDKnM/BNjiXQOTe
tUDME8bBql2/QDdolkABtMzBX0DcQIy56EA7grfBIDhRQJoKPED6RqbB/H/zP2k7eECEwJbB5lYx
QDzaiUAqRIvB

> <OMEGA_E>
eBxlPjAfVj6gC04+aDoMPw==

> <OMEGA_NBR>
     42401

$$$$
50176700
  -OEChem-04172616093D

 48 51  0     1  0  0  0  0  0999 V2000
    6.6388   -0.4034  -22.4333 C   0  0  0  0  0  0  0  0  0  0  0  0
    3.0499   -3.0298  -18.2497 C   0  0  0  0  0  0  0  0  0  0  0  0
    6.1057   -1.4102  -21.6120 C   0  0  0  0  0  0  0  0  0  0  0  0
    3.5259   -2.0336  -19.1126 C   0  0  0  0  0  0  0  0  0  0  0  0
    6.4619    0.9482  -22.0926 C   0  0  0  0  0  0  0  0  0  0  0  0
    5.1796    0.2861  -20.1268 C   0  0  0  0  0  0  0  0  0  0  0  0
    3.9226   -4.0565  -17.8366 C   0  0  0  0  0  0  0  0  0  0  0  0
    5.1367    3.9382  -22.8270 C   0  0  0  0  0  0  0  0  0  0  0  0
    7.0734    4.4511  -21.7091 C   0  0  0  0  0  0  0  0  0  0  0  0
    5.3866   -1.0642  -20.4482 C   0  0  0  0  0  0  0  0  0  0  0  0
    4.8627   -2.0997  -19.5500 C   0  0  0  0  0  0  0  0  0  0  0  0
    5.7123    1.3046  -20.9400 C   0  0  0  0  0  0  0  0  0  0  0  0
    5.9257    3.7154  -21.5929 C   0  0  0  0  0  0  0  0  0  0  0  0
    5.6936   -3.1471  -19.0813 C   0  0  0  0  0  0  0  0  0  0  0  0
    6.2899    2.9931  -19.1994 C   0  0  0  0  0  0  0  0  0  0  0  0
    4.0561    3.3901  -18.8893 C   0  0  0  0  0  0  0  0  0  0  0  0
    5.5413    2.7547  -20.4968 C   0  0  2  0  0  0  0  0  0  0  0  0
    5.5679    3.6287  -16.8695 C   0  0  0  0  0  0  0  0  0  0  0  0
    7.9523    5.9761  -23.4684 C   0  0  0  0  0  0  0  0  0  0  0  0
    7.5656    7.4185  -23.1073 C   0  0  0  0  0  0  0  0  0  0  0  0
    5.2135   -4.0987  -18.2464 N   0  0  0  0  0  0  0  0  0  0  0  0
    5.8110    4.7399  -23.6150 N   0  0  0  0  0  0  0  0  0  0  0  0
    6.9538    5.0277  -22.9452 N   0  0  0  0  0  0  0  0  0  0  0  0
    5.3020    3.2402  -18.2593 N   0  0  0  0  0  0  0  0  0  0  0  0
    4.1423    3.0161  -20.1435 N   0  3  0  0  0  0  0  0  0  0  0  0
    2.8871    3.8335  -18.2905 N   0  0  0  0  0  0  0  0  0  0  0  0
    7.4946    2.8805  -18.9991 O   0  0  0  0  0  0  0  0  0  0  0  0
    7.0071   -3.1792  -19.4132 F   0  0  0  0  0  0  0  0  0  0  0  0
    8.4901    8.2583  -23.6334 F   0  0  0  0  0  0  0  0  0  0  0  0
    7.5336    7.5740  -21.7565 F   0  0  0  0  0  0  0  0  0  0  0  0
    6.3433    7.7211  -23.6214 F   0  0  0  0  0  0  0  0  0  0  0  0
    7.1847   -0.6681  -23.3267 H   0  0  0  0  0  0  0  0  0  0  0  0
    2.0264   -3.0111  -17.9052 H   0  0  0  0  0  0  0  0  0  0  0  0
    6.2460   -2.4492  -21.8712 H   0  0  0  0  0  0  0  0  0  0  0  0
    2.8800   -1.2307  -19.4360 H   0  0  0  0  0  0  0  0  0  0  0  0
    6.8979    1.7196  -22.7100 H   0  0  0  0  0  0  0  0  0  0  0  0
    4.6070    0.5461  -19.2487 H   0  0  0  0  0  0  0  0  0  0  0  0
    3.5536   -4.8283  -17.1775 H   0  0  0  0  0  0  0  0  0  0  0  0
    4.1680    3.5115  -23.0415 H   0  0  0  0  0  0  0  0  0  0  0  0
    7.8795    4.5525  -20.9974 H   0  0  0  0  0  0  0  0  0  0  0  0
    4.6148    3.7634  -16.3371 H   0  0  0  0  0  0  0  0  0  0  0  0
    6.1560    2.8416  -16.3750 H   0  0  0  0  0  0  0  0  0  0  0  0
    6.1327    4.5725  -16.8544 H   0  0  0  0  0  0  0  0  0  0  0  0
    8.0054    5.8787  -24.5628 H   0  0  0  0  0  0  0  0  0  0  0  0
    8.9350    5.7447  -23.0316 H   0  0  0  0  0  0  0  0  0  0  0  0
    3.3668    2.9227  -20.7679 H   0  0  0  0  0  0  0  0  0  0  0  0
    2.0410    3.8826  -18.8213 H   0  0  0  0  0  0  0  0  0  0  0  0
    2.8899    4.1044  -17.3279 H   0  0  0  0  0  0  0  0  0  0  0  0
  1  3  1  0  0  0  0
  1  5  2  0  0  0  0
  2  4  2  0  0  0  0
  2  7  1  0  0  0  0
  3 10  2  0  0  0  0
  4 11  1  0  0  0  0
  5 12  1  0  0  0  0
  6 10  1  0  0  0  0
  6 12  2  0  0  0  0
  7 21  2  0  0  0  0
  8 13  1  0  0  0  0
  8 22  2  0  0  0  0
  9 13  2  0  0  0  0
  9 23  1  0  0  0  0
 10 11  1  0  0  0  0
 11 14  2  0  0  0  0
 12 17  1  0  0  0  0
 13 17  1  0  0  0  0
 14 21  1  0  0  0  0
 14 28  1  0  0  0  0
 15 17  1  0  0  0  0
 15 24  1  0  0  0  0
 15 27  2  0  0  0  0
 16 24  1  0  0  0  0
 16 25  2  0  0  0  0
 16 26  1  0  0  0  0
 17 25  1  0  0  0  0
 18 24  1  0  0  0  0
 19 20  1  0  0  0  0
 19 23  1  0  0  0  0
 20 29  1  0  0  0  0
 20 30  1  0  0  0  0
 20 31  1  0  0  0  0
 22 23  1  0  0  0  0
  1 32  1  0  0  0  0
  2 33  1  0  0  0  0
  3 34  1  0  0  0  0
  4 35  1  0  0  0  0
  5 36  1  0  0  0  0
  6 37  1  0  0  0  0
  7 38  1  0  0  0  0
  8 39  1  0  0  0  0
  9 40  1  0  0  0  0
 18 41  1  0  0  0  0
 18 42  1  0  0  0  0
 18 43  1  0  0  0  0
 19 44  1  0  0  0  0
 19 45  1  0  0  0  0
 25 46  1  0  0  0  0
 26 47  1  0  0  0  0
 26 48  1  0  0  0  0
M  CHG  1  25   1
M  END
> <OMEGA_C>
1XDUQMiOzr5cd7PBKTFDQE7oQcBb/5HBsmHDQOmBtL9s5azBoahhQP4lAsCw5pjB38fOQNa8cj+r
vbDBFb+lQDJ+kj67A6HBlwx7QNbOgcBusY7BhV+kQKoLfEC/nbbBr1niQCNvjkA+rK3BU1+sQPs2
iL/9laPBN5ubQEhhBsBgZpzBUMu2QA/9pj8hhafBHp+9QKzIbUAtvqzB7zG2QHpqScB4ppjBh0bJ
QJyOP0BGmJnBM8uBQBj3WEAyHZfBoFKxQBhNMECL+aPBbSyyQEA9aEDD9IbBm3n+QAs8v0A5v7vB
nRnyQKBk7UDS27jBEdWmQIUog8Cb+JHBsfO5QD6tl0Bs67zBcoXeQLnioEDAj7fB7KmpQKRfT0AJ
E5LBWI2EQBwHQUDmJaHB+8U4QJBYdUAGU5LB4tPvQMxaOEAR/pfB/zngQIx4S8AmTpvBVNcHQf4h
BEEtEb3BDxPxQGRe8kBXDa7BhfzKQGgT90Cd+LzBOunlQBsKK78unbrBRLEBQHa1QMDyPY/BfN/H
QCTAHMAj+K7BDlI4QGeGnb/hfJvBn7vcQD4d3D8UrrXB4GyTQKjMCz9u/ZnByG1jQNaBmsCPa4nB
QGCFQIm8YEAWVbjBhCT8QAOukUDD+qfBnqyTQOnbcEBksoLBsP3EQEXcNUDz/4LBbT/EQDVSkkDj
1YbBTxYAQU0evECKgMTBz/UOQUPUt0CeQLjBJ3lXQKYNO0C6JKbB9J4CQDV8eEDskZbBs/Q4QBFX
g0CVn4rB2ozWQFNRzL5jq7PBwUOnQHlqg8CjNJLBaE/FQLUQtr+HRa3BYli3QB7ISsCOfpnBa07Q
QNKxcj841rDBKgunQIr0fj7jR6HBsfR4QAb+f8CWvY7Br0SkQP94eUDClrbB2ongQMilj0BvPa3B
YUGtQDYejL/wFqTB8jKcQOTsCMAGDZ3BlOy3QDD8oz9OoKfBGu68QIvHbECWlqzBU5liQKEFBsDO
U5nB9D3JQHZnPUDNg5nB5fKBQDnEV0C4J5fBym+xQDsCLkDh66PB4fixQIIQZ0DB8obB1H77QES7
wkAv2LrBJTTpQKvt70BtRbnBDctEQMP5QMBRU5LBs0e5QKuLl0DAtrzBb8HcQDJdokDBFLfBxIGp
QE2zTECZA5LBEHuEQOVsPECnDqHBHA46QHKLeEBtkpLBreLvQLRWOEBH7JfBuM0rQC66kr+M+JzB
ljMEQe1iBkEFbrvB6ZPbQCB49UCCBa/B8MzHQME79kDODsDBl5noQLDLJb+Yw7rB9G+7QKfonMD7
RY/BcHnKQKhBHcAJYq/BwO7XQJQAT8CkUpzBthjeQL2l3T9YrrXBxRWVQG5S/D5KKZrBrWBgQOEQ
l8CgFonBUBGGQP+VW0BkgrjBPKD5QH/Rk0DBY6fBvniTQJnxbkDPqoLBclnFQMzZNUCh7oLBbnTD
QHQVkkDB8obBfQMBQZeDvUCHZMPBULcMQbWuv0BbR7bBog5XQPPZMkC966XBfj0EQAdufEDt35bB
YJo6QPomhkCQ9orBBE7GQDLvwL4OOLbBhaiwQHrjgMBzl5LBlJS6QOVxtL/kJq/Blve6QOTARsD1
oZrBeI/AQP32dz9MO7PBc6ChQOwcez4qUKLBAw+IQFjcfcC9so3BOkLsQPGMhUBcNazBJM2rQGMx
ikD97LTBxKynQFX9i7/5OKXBWmycQI64CMBFeZ3BEL+uQOqFpD9+GanB3B2/QKgZbkBBVKzBcyho
QNxaCMDnQZjBYSHEQGpEMUAaLJrBnuZ9QKDvXECOyZfBE1OsQKYbLUBUv6TBMCKyQFgkbUDjHYjB
AVDFQC8zwUCP+cHBcDvTQOVS7kAeX77BwFtVQHp2QsBnlZDBYHbyQBg1n0CrSLTBlBfMQGeYokBb
MrnB2qGmQOB4TkBJ1pLB8TKAQJSzQ0CJ06HBuzc2QDiUfkDByZLBV9noQDjVGUCoTZjBH2srQDnW
nL9MA5vBJLjDQH+vBUG2ZsXBI7P+QAwg8UA2LL7BNJPDQC4690A2cbTBkrrTQIvtHb8G8r3BQZPH
QCTgmMB/K5DBLwvAQGY4HMBsU7HBs7nZQJvhSMAwkJ7BprXJQO0/4T9oprjBb66SQMD29T7ewJrB
/DCAQLGrlcAaf4fBWQwCQaK/eEBzY6bByjGLQMzlhkAJq7fBtwSVQGRqgEC104PBMhPCQPl2OUDn
qYPBlvDHQMEOkkAL04jBuDSjQASvwUDVJcTBfmXYQDdqt0Dy88jB3OZNQLpmQEBduabB9/n+PyiE
gkAg25bBgDs5QMgyiEAXHYvB4hrAQGju474L6bXBJzVXQEqsQsA9+I7BlIm1QNSdur+dkK7BBixo
QDVFBcAZ2pbBgsm7QEo6aD+7/7LBpJ6fQFzSaz4YpKHBZKSKQF3KgMDauozB6r7sQBU3gUCrd6zB
Uv2rQDnHiEDi6bTBVVilQNzXjr88Y6TBUFSbQFT2CMCNXpzB2h6sQK5BoD8os6jB2uW+QDBLakD5
UqzB0mq5QEgpScAkopnBYHHDQK1fMEDWCprBRrp+QCBXYkAQsZfBoCurQBrJK0AujaTBhXCzQFxF
ckAqNYjB+ILHQM9nvUDFWsLB77vZQH2d6UDlQb/BGJiwQDvlgcCW95HBJKzzQJoOmkBwqLTBKi7N
QGlHn0CFaLnBcN2mQOC2UUBhw5LBYxJ/QJWdRUBVl6HBPVQ5QE2LhEAHxJLBWNTnQAb2FkD4K5jB
LoPgQBSoSsDjUZ7BMTLNQBJaA0HlosbBtaMCQYFi6ECvCb/BDujKQDS89UAGd7XBRovLQESqNL/a
yr3B1ksbQKDQQcCIqYrBms65QBO4H8CMtbDBB+o5QNIAqL8/qpjB/2XEQL6E1z+dmrjBcXeRQGWM
+D4RB5rB+gWEQIyamMDdsIbBXUECQTItbkBbuqbBLROLQOL9hkB3grfBKOyWQKemhEBE7YPBNpfC
QBuaPkB9lYPBRj7KQKenk0AoM4nBczqlQF2GwEDtMMTBw4XYQKRCsUBpb8nB/9RLQDbwQUDHXKbB
qoQCQN5siEDIx5bBUhM+QLWjjkCPMovB

> <OMEGA_E>
WBc9PpATRT4sngU/lAgNPw==

> <OMEGA_NBR>
     45983

$$$$
50176702
  -OEChem-04172616093D

 59 62  0     1  0  0  0  0  0999 V2000
    6.8659   -0.3224  -22.2831 C   0  0  0  0  0  0  0  0  0  0  0  0
    6.3008   -1.3550  -21.5223 C   0  0  0  0  0  0  0  0  0  0  0  0
    6.6119    1.0136  -21.9414 C   0  0  0  0  0  0  0  0  0  0  0  0
    5.1849    0.2901  -20.1035 C   0  0  0  0  0  0  0  0  0  0  0  0
    5.7156   -3.1812  -19.1802 C   0  0  0  0  0  0  0  0  0  0  0  0
    3.5686   -2.0632  -19.1660 C   0  0  0  0  0  0  0  0  0  0  0  0
    5.0018    3.8726  -22.7398 C   0  0  0  0  0  0  0  0  0  0  0  0
    7.0561    4.2508  -21.7900 C   0  0  0  0  0  0  0  0  0  0  0  0
    3.9048   -4.0521  -17.9908 C   0  0  0  0  0  0  0  0  0  0  0  0
    5.4609   -1.0466  -20.4321 C   0  0  0  0  0  0  0  0  0  0  0  0
    4.9072   -2.1102  -19.6001 C   0  0  0  0  0  0  0  0  0  0  0  0
    5.7534    1.3343  -20.8497 C   0  0  0  0  0  0  0  0  0  0  0  0
    5.8393    3.6925  -21.5311 C   0  0  0  0  0  0  0  0  0  0  0  0
    6.2755    3.0694  -19.1195 C   0  0  0  0  0  0  0  0  0  0  0  0
    4.0533    3.4922  -18.8121 C   0  0  0  0  0  0  0  0  0  0  0  0
    5.5112    2.7733  -20.3980 C   0  0  2  0  0  0  0  0  0  0  0  0
    6.8865    8.1405  -24.1051 C   0  0  0  0  0  0  0  0  0  0  0  0
    8.3153    8.8929  -22.1780 C   0  0  0  0  0  0  0  0  0  0  0  0
    6.4005    7.3560  -21.7549 C   0  0  0  0  0  0  0  0  0  0  0  0
    5.5763    3.8107  -16.8163 C   0  0  0  0  0  0  0  0  0  0  0  0
    8.5626    6.5504  -22.9964 C   0  0  0  0  0  0  0  0  0  0  0  0
    8.0356    5.3342  -23.7876 C   0  0  0  0  0  0  0  0  0  0  0  0
    7.5284    7.7043  -22.7672 C   0  0  0  0  0  0  0  0  0  0  0  0
    5.2042   -4.1320  -18.3735 N   0  0  0  0  0  0  0  0  0  0  0  0
    3.0845   -3.0422  -18.3760 N   0  0  0  0  0  0  0  0  0  0  0  0
    5.7240    4.4633  -23.6606 N   0  0  0  0  0  0  0  0  0  0  0  0
    6.9287    4.6843  -23.0810 N   0  0  0  0  0  0  0  0  0  0  0  0
    5.2956    3.3390  -18.1773 N   0  0  0  0  0  0  0  0  0  0  0  0
    4.1111    2.9981  -20.0257 N   0  3  0  0  0  0  0  0  0  0  0  0
    2.9116    4.0436  -18.2516 N   0  0  0  0  0  0  0  0  0  0  0  0
    7.4852    2.9963  -18.9308 O   0  0  0  0  0  0  0  0  0  0  0  0
    7.4949   -0.5550  -23.1298 H   0  0  0  0  0  0  0  0  0  0  0  0
    6.5083   -2.3854  -21.7706 H   0  0  0  0  0  0  0  0  0  0  0  0
    7.0714    1.8077  -22.5112 H   0  0  0  0  0  0  0  0  0  0  0  0
    4.5323    0.5159  -19.2732 H   0  0  0  0  0  0  0  0  0  0  0  0
    6.7443   -3.2418  -19.5035 H   0  0  0  0  0  0  0  0  0  0  0  0
    2.9311   -1.2445  -19.4653 H   0  0  0  0  0  0  0  0  0  0  0  0
    3.9708    3.5686  -22.8447 H   0  0  0  0  0  0  0  0  0  0  0  0
    7.9115    4.3311  -21.1355 H   0  0  0  0  0  0  0  0  0  0  0  0
    3.5061   -4.8261  -17.3517 H   0  0  0  0  0  0  0  0  0  0  0  0
    6.3225    7.2988  -24.5335 H   0  0  0  0  0  0  0  0  0  0  0  0
    6.2049    8.9852  -23.9264 H   0  0  0  0  0  0  0  0  0  0  0  0
    7.6755    8.4482  -24.8071 H   0  0  0  0  0  0  0  0  0  0  0  0
    8.7760    8.5922  -21.2255 H   0  0  0  0  0  0  0  0  0  0  0  0
    9.1009    9.1987  -22.8847 H   0  0  0  0  0  0  0  0  0  0  0  0
    7.6303    9.7357  -22.0040 H   0  0  0  0  0  0  0  0  0  0  0  0
    6.8480    7.0444  -20.7996 H   0  0  0  0  0  0  0  0  0  0  0  0
    5.7681    8.2411  -21.5920 H   0  0  0  0  0  0  0  0  0  0  0  0
    5.7873    6.5362  -22.1572 H   0  0  0  0  0  0  0  0  0  0  0  0
    4.6299    3.9478  -16.2727 H   0  0  0  0  0  0  0  0  0  0  0  0
    6.1962    3.0687  -16.2918 H   0  0  0  0  0  0  0  0  0  0  0  0
    6.1137    4.7693  -16.8642 H   0  0  0  0  0  0  0  0  0  0  0  0
    8.8975    6.1946  -22.0109 H   0  0  0  0  0  0  0  0  0  0  0  0
    9.4194    6.9672  -23.5462 H   0  0  0  0  0  0  0  0  0  0  0  0
    7.6833    5.6722  -24.7733 H   0  0  0  0  0  0  0  0  0  0  0  0
    8.8527    4.6096  -23.9189 H   0  0  0  0  0  0  0  0  0  0  0  0
    3.3214    2.8045  -20.6078 H   0  0  0  0  0  0  0  0  0  0  0  0
    2.0635    4.0817  -18.7800 H   0  0  0  0  0  0  0  0  0  0  0  0
    2.9362    4.4034  -17.3189 H   0  0  0  0  0  0  0  0  0  0  0  0
  1  2  1  0  0  0  0
  1  3  2  0  0  0  0
  2 10  2  0  0  0  0
  3 12  1  0  0  0  0
  4 10  1  0  0  0  0
  4 12  2  0  0  0  0
  5 11  1  0  0  0  0
  5 24  2  0  0  0  0
  6 11  2  0  0  0  0
  6 25  1  0  0  0  0
  7 13  1  0  0  0  0
  7 26  2  0  0  0  0
  8 13  2  0  0  0  0
  8 27  1  0  0  0  0
  9 24  1  0  0  0  0
  9 25  2  0  0  0  0
 10 11  1  0  0  0  0
 12 16  1  0  0  0  0
 13 16  1  0  0  0  0
 14 16  1  0  0  0  0
 14 28  1  0  0  0  0
 14 31  2  0  0  0  0
 15 28  1  0  0  0  0
 15 29  2  0  0  0  0
 15 30  1  0  0  0  0
 16 29  1  0  0  0  0
 17 23  1  0  0  0  0
 18 23  1  0  0  0  0
 19 23  1  0  0  0  0
 20 28  1  0  0  0  0
 21 22  1  0  0  0  0
 21 23  1  0  0  0  0
 22 27  1  0  0  0  0
 26 27  1  0  0  0  0
  1 32  1  0  0  0  0
  2 33  1  0  0  0  0
  3 34  1  0  0  0  0
  4 35  1  0  0  0  0
  5 36  1  0  0  0  0
  6 37  1  0  0  0  0
  7 38  1  0  0  0  0
  8 39  1  0  0  0  0
  9 40  1  0  0  0  0
 17 41  1  0  0  0  0
 17 42  1  0  0  0  0
 17 43  1  0  0  0  0
 18 44  1  0  0  0  0
 18 45  1  0  0  0  0
 18 46  1  0  0  0  0
 19 47  1  0  0  0  0
 19 48  1  0  0  0  0
 19 49  1  0  0  0  0
 20 50  1  0  0  0  0
 20 51  1  0  0  0  0
 20 52  1  0  0  0  0
 21 53  1  0  0  0  0
 21 54  1  0  0  0  0
 22 55  1  0  0  0  0
 22 56  1  0  0  0  0
 29 57  1  0  0  0  0
 30 58  1  0  0  0  0
 30 59  1  0  0  0  0
M  CHG  1  29   1
M  END
> <OMEGA_C>
jrXbQCwUpb7jQ7LBXqDJQMFxrb+1LazBqpTTQE+8gT8NiK/BXuqlQAiClD4S1KDB+uW2QEqZS8AL
cZnBS2RkQKYLBMDoU5nBtg6gQHrYd0Ax67XB2MvhQOQGiEDhUa7Bv+d5QNSqgcAT7Y/B1r+uQAv4
hb/udKPBhAedQPINB8AFzZzB1hu4QCfJqj83zKbBMtu6QHxSbECtP6zBSNHIQAJxRECn9JjBTrSB
QOiAX0Arf5bBAlywQDZ+MUAvL6PB7F3cQKs/AkFM18DBfAsFQR5JDkGlbLHBOtHMQGJk60AYCq7B
KnGyQLzic0Ddh4bBiwAJQQ+d0UCT+LfBspEAQbexqkD6TL7B3ujwQKOJ9kBJI7bBKommQG45hMDj
/JLBSmhFQCCzQsD3AZPBQCu3QGrTjkDfSL3BDLjdQOfllUDtpbjBUnWpQBSyVUAYa5HBao6DQFLh
P0C7NKDBHVg6QG9lgUBMA5LBxobvQK7CP0A8cpfB+NXvQNgRDr+7CbnBzEPQQBOrGMAcKq7B90ji
QE5h5z/7FrTBcAiRQOoSBD91L5rBANHXQFV6T8ArB5zBK5c7QGtKn7/8uJvBJCF+QCBkZEDjwbbB
DSv9QK2YikCWFanBZ2NgQElvmsBL0IrBSlLKQPuP6UCbRMTBYY7GQIXDD0FIab/BYZ31QO8rB0ED
dcbBcGoMQYJ5CUHQzanBJJ0RQfQtE0HYE7fBRyv0QIrFG0EdCLDBjCLbQIBr4UCJZabB+JO4QKPb
A0F5vKzBrzG5QEIo0UDvQbHBTyiUQK2ofEB7LoLBJ0fGQGFlRECUVYLBUKPDQFOemEDv6YbBClwO
QcQ5xkA9FrDBqrUWQVzz3kClXrzB5d31QJ6CtUDHL8bBpaQNQaaBk0DWWb/Bv5FUQDN8M0DO3KTB
GxAEQBydgkB0PZbBkeo7QFbojEAPjYrBYmjVQPb9qr5EV7PBcjvEQMRYrr/dCa3BgLHOQNaMgD+7
b7DBW7CjQPu0lT6AMqHBGi+2QFJ6S8ASB5rBi+xjQC8CA8AZoJjB9CujQG2AekDJTLbB2AHjQKky
iUC7sa3B3rp+QE3TgMC7So/BqXyrQOAOhr8X8aPBVYmbQKbLBsDV8ZzBHVS1QDV4qj8bVafBkdu7
QN8obUBhUazBJ67HQJr0QEA5LZnB14eAQE0IXUBWrJbBFlSvQDFUMUBQg6PBRqC5QIn97EDMr7DB
aznjQBl9FEHBurjBzc8DQXzN90BHrKvBkK2xQBd4b0AWs4bBZuT1QL2f30DJ2L7BSgECQVxhsUAQ
jbzBVqTmQOwp+kAw6rTBwManQMnRg8AHMZPBm8hIQJ3vQMCC7JHBpZ67QAKJkUCbJL3Be9/gQPzD
mEDg3rfBw3CoQJcNU0BQp5HBgauCQKMxQkC9m6DBHzQ3QPp0fEC48pHBLU7uQGDCOkCYnZfBEcHn
QHRnEr9GabrBC/HJQKM5GcB4Ja/B+eDcQBKj5T+/JLXBTwmQQPxGBj9KVprB4CbWQFcBUMDwQp3B
Svc5QEMunb9crZrBcJqCQJFBZkBksrfBDj/9QBgfi0B/F6jBJl5oQJBBmcCI24nBZ5m6QPuny0DF
3q3BhXWwQNMNAUGaB6rBKAeiQFTq70DcLLfBLDkBQQDTGUF1y7vBQSzLQBWfFUFAIb/BnprZQL63
HkH/+7HBhbETQfmNAEH7qq7B+u39QLLbBkEMOqXBpXoEQSfn1kDUj6jB63WTQKJxeUCWXILBMMXE
QGZlPkChkoLB1LzDQGjulUCT9IbB5JMIQfWN8EBGdsLBy0nbQPlo3kDlmcTBkgIHQVYookChFMTB
sYoPQXjQsUCX7bbBZyJTQF1oOkAveaXBe+IAQPepf0DfKJbBfD44QJP1h0D9U4rBRNHJQPY3o76C
nLTBTHq6QDbQq78mBa7BMMHHQLBTgT8fJrHBIsukQHVdnz5Np6DBr4evQFpqWcBvL53BXiN2QI/2
+L+u/JTBk8qpQPXlcUB3XrfBIWTfQEj1kkDwqazBtc+DQOTuhMDjUI/BH96oQKL1hL9y46PBN5ab
QENxCMAurJzBSKezQB49rT9mR6fBjbW8QDsycECfd6zBt/fFQBkwRUArEJnB0jl9QD19ZED58JbB
TY+uQFdONEBjkKPB7K2ZQMrm5ECYscHB0LjEQMlrE0HSXMXB3dXGQNUKA0H8A7PBnCGvQHe7ekA8
0obBBzLtQAVh4UDgBcPBMSEAQd3PwECg4brBluHEQDrV+0BuK7/BJ2KjQP5cjMBAhJbBdVFfQFxN
PcA1c47BmpXCQBbVj0AMmL3BmWbgQElGoUCCDrfByXGnQCvPZ0A2N5LBopOBQBFFR0B5z6DB9u0w
QE+9fEApD5LBkMzrQMqxN0D8EZfBPjfXQIC5Db/VWbzBVhe8QNeWF8A0rrDBQpzVQGsF5T+5B7bB
0C+WQN2MCz/IDJnByKXIQKuyZMAn86LB74NWQOr3fL95VZTBuX6MQFiiUkCHw7nB0dP0QP32mkBi
MKbBMpd0QKOZnsC9CorBV3aYQLgcxkCDcL3BFMx9QF8u+UChEL/BpTeXQABB30CeW8rByr/iQJQO
HEGwzMPBTM7BQH0/EEHV/M3BsXypQC02HUHYscLBVTblQLMhC0FXK7HBbvOrQGCMDUGg2rDBV7fE
QOYl6EDAaq7Bc+iRQMvMikDaPoPBMty3QIdpP0BXnYLBhV/JQC6mlEDDGYbBOUcDQZpd+ECVE8XB
N9XjQHdyz0CCOcrB1VENQcB6r0C3xr7BJ1UGQTaa0kBG87PBKIVRQFYRP0CBwaXBOYbzP/WFeECK
FJbBf0cxQIcwiUDQh4rB45vEQJih1b5v/LTB3Ci6QGZqtr+6rK3Bpsy/QAwubT+DF7LBhDinQI4F
iT4sXKDBDLawQGKiW8BzS5zB8ul4QL/8+L8JaZTBzJjrQFbZakDtFbHBT7KnQOLej0C6abPBtxCE
QOSthMBtdI7BYpSqQDiXi79/ZqPBVledQPAgCsDu9JvBiWqyQGlqpT/plKfBBwa/QHS1akAo56zB
rsrFQGBDQ0ARl5nBJRR9QIK7Y0DFipfBcE6uQDTwMECGD6TBDOusQHaiCkGROrXBcov7QJKoEkGL
e7fBJ/PkQCtO5kDsnazBIiKvQLhnfEASfYfBTtbbQLi+5kBfd8HBS8+7QATTwEALfsLB19fZQPaE
AEETu7bBpN6jQPjqjMBsipXB15dgQCRDPMAHzI3B4wztQHBjjUBwsbnBfVfFQOmInkBoq7rBwV2n
QH5DZ0C60pLBlmqBQDpyRUB/XKHBwucwQPIJfUAruJLBA8LrQGBBN0ADm5fBrlvQQJvuLL8p2LzB
cgK+QI2THcBR46/BJlPGQLZr2T+W6LfBU/6bQAmOBT8NcpjBhu7JQPtEaMCh/KHBSPJZQONHe78w
7ZPBMiwDQVAPSUCvm63B5AaGQFFxl0Bx87LBjxZ0QNTlncDGGonB676UQBfG+0CKr7TBVoOsQOEu
FEFP1q3BEqKlQLEDFUEfGbzBV8YNQTymC0G8jLjBvw70QIQEHUGdWL7BA/D6QLQvHEHNFbDBf2MC
QRHI10Cxlq3BWwDlQJZH+0C6jKXB1uvMQN3vzECLjavBBfGRQLoAjEAX/IPBP963QJjpQUD7GoPB
PWXJQLqHlUCl64bBfmH8QCGx2UBNPcLB/I7VQFUE/UD6GMjBGC+bQLG/zEC6EcHBtO+9QKKIs0Cl
n8rBnTBRQG9wPUBsT6bBoIjzP9PLeEAFv5bBk00xQNi7iUAXOovBYS7EQKbc1b7NCrXBFhe6QHGg
tr8sta3BUCm/QBgGbT/FJrLBjEinQEWQhz48X6DBBtuwQEjKW8BaTpzBX0V5QHpF+b/paJTBaSHr
QDHwaECaJrHB6SCoQI+ekUBeCbPBdkqEQDS6hMDQcY7BwaaqQGrri78Za6PB73ydQLJJCsAi95vB
9S+yQEs8pT9+m6fBg+i+QD0da0A4z6zBbqTFQErjQkAil5nBr+N8QEnFY0AQi5fBCxuuQPnaMECS
DKTBzzroQERm8EBQpKzBgsDqQIbjFkF8iLnBNXUIQWYq6kAlSr7B0CavQMGqfED5g4fBzz29QIa0
7UClUr7BvNy7QD1Kv0CCycLBgSPoQNNP/ECuvbjBig6kQKz6jMCFipXBHQdhQIJePMCayY3BoVvs
QGPii0BL1LnB2T7FQBpInkCMo7rByUunQE8wZ0A01ZLBbECBQBNNRUACWqHBc8owQOxWfUCiupLB
waXrQKABN0A2o5fBVNDPQA+4LL/96bzBzxu+QPanHcAQ6q/BgTXFQJJf2T+Q/7fBKUScQHaGBD/I
b5jBcgnKQEZ0aMAOAqLBQ0paQOTfe79A7ZPBoOQCQUaFRkC3ua3BWiuHQLtrm0CFK7LB4550QGXu
ncDXFYnBmGbmQNFrzUCpxKvBse8CQZwk/EDQ6ajBFHvMQAw7/0BDsqjB7cHqQAWzG0GA/8HB8/rO
QAkHHkHBeLXBoC8EQdJ7HEFNsLXBBkMIQcDB8kCs0sbBrcsWQeTL90CGfbrBE7gIQSUfx0DpeL3B
EgGSQFg8jECGA4TBud63QDJKQkA4G4PBFXTJQB2hlUBa+4bB6zy3QE7QAUHTCsXB81qjQPXG8EDL
aLjBlLSbQPlLuUCnCcbB7aXTQDePvEDtPMnBlNBQQPQlPUAkSqbB8kjzPwYmeUApwZbBrT0xQFr0
iUBCPovB

> <OMEGA_E>
WKJzPgDJVT5wWs4+jG4LPwQoCT8=

> <OMEGA_NBR>
     51095

$$$$
50176703
  -OEChem-04172616093D

 48 51  0     1  0  0  0  0  0999 V2000
    3.0470   -3.0371  -18.2684 C   0  0  0  0  0  0  0  0  0  0  0  0
    3.5257   -2.0426  -19.1323 C   0  0  0  0  0  0  0  0  0  0  0  0
    6.4260    0.9602  -22.1187 C   0  0  0  0  0  0  0  0  0  0  0  0
    6.5774   -0.3873  -22.4821 C   0  0  0  0  0  0  0  0  0  0  0  0
    5.2038    0.2839  -20.1204 C   0  0  0  0  0  0  0  0  0  0  0  0
    3.9218   -4.0559  -17.8406 C   0  0  0  0  0  0  0  0  0  0  0  0
    5.1482    3.9453  -22.8345 C   0  0  0  0  0  0  0  0  0  0  0  0
    7.0590    4.4879  -21.6872 C   0  0  0  0  0  0  0  0  0  0  0  0
    4.8675   -2.1008  -19.5548 C   0  0  0  0  0  0  0  0  0  0  0  0
    5.3888   -1.0657  -20.4611 C   0  0  0  0  0  0  0  0  0  0  0  0
    5.7120    1.3087  -20.9429 C   0  0  0  0  0  0  0  0  0  0  0  0
    5.9225    3.7302  -21.5886 C   0  0  0  0  0  0  0  0  0  0  0  0
    6.0583   -1.4022  -21.6613 C   0  0  0  0  0  0  0  0  0  0  0  0
    5.7031   -3.1341  -19.0610 C   0  0  0  0  0  0  0  0  0  0  0  0
    6.2868    2.9932  -19.1986 C   0  0  0  0  0  0  0  0  0  0  0  0
    4.0527    3.3853  -18.8861 C   0  0  0  0  0  0  0  0  0  0  0  0
    5.5387    2.7586  -20.4965 C   0  0  2  0  0  0  0  0  0  0  0  0
    7.5002    7.4446  -23.1463 C   0  0  0  0  0  0  0  0  0  0  0  0
    5.5662    3.6271  -16.8677 C   0  0  0  0  0  0  0  0  0  0  0  0
    7.9545    6.0107  -23.4435 C   0  0  0  0  0  0  0  0  0  0  0  0
    5.2189   -4.0876  -18.2306 N   0  0  0  0  0  0  0  0  0  0  0  0
    5.8269    4.7515  -23.6160 N   0  0  0  0  0  0  0  0  0  0  0  0
    6.9559    5.0558  -22.9299 N   0  0  0  0  0  0  0  0  0  0  0  0
    5.2997    3.2394  -18.2576 N   0  0  0  0  0  0  0  0  0  0  0  0
    4.1385    3.0104  -20.1403 N   0  3  0  0  0  0  0  0  0  0  0  0
    2.8833    3.8255  -18.2858 N   0  0  0  0  0  0  0  0  0  0  0  0
    7.4918    2.8802  -19.0001 O   0  0  0  0  0  0  0  0  0  0  0  0
    6.1842   -2.6919  -22.0511 F   0  0  0  0  0  0  0  0  0  0  0  0
    7.0235   -3.1506  -19.3649 F   0  0  0  0  0  0  0  0  0  0  0  0
    2.0201   -3.0228  -17.9345 H   0  0  0  0  0  0  0  0  0  0  0  0
    2.8774   -1.2466  -19.4676 H   0  0  0  0  0  0  0  0  0  0  0  0
    6.8549    1.7351  -22.7368 H   0  0  0  0  0  0  0  0  0  0  0  0
    7.0942   -0.6443  -23.3949 H   0  0  0  0  0  0  0  0  0  0  0  0
    4.6665    0.5389  -19.2189 H   0  0  0  0  0  0  0  0  0  0  0  0
    3.5492   -4.8301  -17.1863 H   0  0  0  0  0  0  0  0  0  0  0  0
    4.1858    3.5107  -23.0611 H   0  0  0  0  0  0  0  0  0  0  0  0
    7.8478    4.6089  -20.9595 H   0  0  0  0  0  0  0  0  0  0  0  0
    8.2478    8.1539  -23.5310 H   0  0  0  0  0  0  0  0  0  0  0  0
    6.5325    7.6312  -23.6350 H   0  0  0  0  0  0  0  0  0  0  0  0
    7.3938    7.5776  -22.0596 H   0  0  0  0  0  0  0  0  0  0  0  0
    4.6134    3.7610  -16.3347 H   0  0  0  0  0  0  0  0  0  0  0  0
    6.1549    2.8399  -16.3741 H   0  0  0  0  0  0  0  0  0  0  0  0
    6.1306    4.5711  -16.8524 H   0  0  0  0  0  0  0  0  0  0  0  0
    8.0612    5.8789  -24.5303 H   0  0  0  0  0  0  0  0  0  0  0  0
    8.9225    5.8254  -22.9549 H   0  0  0  0  0  0  0  0  0  0  0  0
    3.3622    2.9108  -20.7628 H   0  0  0  0  0  0  0  0  0  0  0  0
    2.0361    3.8714  -18.8150 H   0  0  0  0  0  0  0  0  0  0  0  0
    2.8869    4.0972  -17.3234 H   0  0  0  0  0  0  0  0  0  0  0  0
  1  2  2  0  0  0  0
  1  6  1  0  0  0  0
  2  9  1  0  0  0  0
  3  4  2  0  0  0  0
  3 11  1  0  0  0  0
  4 13  1  0  0  0  0
  5 10  1  0  0  0  0
  5 11  2  0  0  0  0
  6 21  2  0  0  0  0
  7 12  1  0  0  0  0
  7 22  2  0  0  0  0
  8 12  2  0  0  0  0
  8 23  1  0  0  0  0
  9 10  1  0  0  0  0
  9 14  2  0  0  0  0
 10 13  2  0  0  0  0
 11 17  1  0  0  0  0
 12 17  1  0  0  0  0
 13 28  1  0  0  0  0
 14 21  1  0  0  0  0
 14 29  1  0  0  0  0
 15 17  1  0  0  0  0
 15 24  1  0  0  0  0
 15 27  2  0  0  0  0
 16 24  1  0  0  0  0
 16 25  2  0  0  0  0
 16 26  1  0  0  0  0
 17 25  1  0  0  0  0
 18 20  1  0  0  0  0
 19 24  1  0  0  0  0
 20 23  1  0  0  0  0
 22 23  1  0  0  0  0
  1 30  1  0  0  0  0
  2 31  1  0  0  0  0
  3 32  1  0  0  0  0
  4 33  1  0  0  0  0
  5 34  1  0  0  0  0
  6 35  1  0  0  0  0
  7 36  1  0  0  0  0
  8 37  1  0  0  0  0
 18 38  1  0  0  0  0
 18 39  1  0  0  0  0
 18 40  1  0  0  0  0
 19 41  1  0  0  0  0
 19 42  1  0  0  0  0
 19 43  1  0  0  0  0
 20 44  1  0  0  0  0
 20 45  1  0  0  0  0
 25 46  1  0  0  0  0
 26 47  1  0  0  0  0
 26 48  1  0  0  0  0
M  CHG  1  25   1
M  END
> <OMEGA_C>
1AJDQDZfQsCuJZLBeqVhQP25AsDmDpnBJqLNQE/QdT8o87DBCnrSQPpHxr5N27PBXYWmQPldkT6H
9qDBhP56QEfKgcCjuY7BK76kQKZ/fEAarbbBMOPhQPGcj0BPf63BrsKbQGlzBsAkcJzBUHGsQI5p
iL9YsKPBxsi2QAqEpz8Ai6fBSIW9QGC7bkCBtazBNN3BQNp6s79LSq3Bd3+2QBuVSMD5fJjBsC3J
QDuRP0CqlpnBpa+BQHypWEDIFpfBNj2xQIaNMEDN+KPBQQHwQDk67kCzK7nBgh6yQCgiaEAe8YbB
bov+QM9XwEA+jLvBOgGnQHzNgsBA2JHBxnW6QDAMmECL7bzBaZbeQGvJoUCDcLfB15apQJFRT0CW
D5LBUm6EQG6qQEBNH6HBDog4QKXVdEA4SZLBgrzvQJ1UOEAyAJjBMOXFQFVILMCsaLDB28DgQE2j
ScA965rBv0gBQMN0QcDQeY/BFCg4QB2Pn7+mvZvBaFvbQBIY3j/15LXB7APjQAPvJL/AKLvBJ1SV
QOb1CT84wJnBXCVjQEyQmsB7fYnBJfKFQI+vYEAOfbjBHiH7QCl8k0D+rKfBC/cDQTd2AkF8P7zB
GwrRQI4y9ECFFL3BAJrsQPx78kARerDBvKCTQPuzcEBvrYLBDvXEQDvANUAQ/oLBES7EQK5GkkCl
0YbBi/oAQQEgvEAfPsTBfsIOQW5pukCro7fBWC5XQO5JOkAmGqbBkk8CQFTFd0A2hZbBncM4QE4c
g0BBlorBumemQIIMg8Cp0pHBEV63QL3yScCK+JjB/KnRQGLAcz8apbDBFSXYQE9jyb6rcbPBKtCn
QN4Zfz6LMqHBsk52QHqgf8Brvo7Bt5ujQK8OekCHgbbBz5LgQJkmkEC3eK3BHYacQJXECMAT4pzB
8DiuQC5djL/M8qPBkc24QO44pD+0h6fBmxy9QP1FbUBIo6zBWa/GQFzKtb/nHa3BHGZiQNfnBcCm
dZnB1LDJQE0oPkD+g5nBlUSCQPz7VkBkJpfBxP2xQNhCLkCb6aPBf7PtQE1i70BabLjBIzWyQHLO
Z0CL94bBrij7QBDowUAEkLvB7v9CQN7BQMCbjJLBy+m3QIUTmEC1uLzB/BPcQHOpokA9WbfB2t2p
QCiiTEC4AZLBYfWEQATHO0BRDaHBNnA6QPlXd0CvlZLBBFnwQD55OUBe7pfB0GjNQAdRLcDN+q/B
z3ssQHwQkr8TP53B6kO6QP1vnMDetI7B3XHYQAKKTcAQb5vBS6bfQKRE3j9OcrXBzJjqQNfNI79u
errB4ZaVQNbt/D5aH5rBoUlcQPb2lsDwNonBMFiFQJXcW0CSSLjBu/35QGWelECWuafBlYUCQXA8
A0GxmLvB8uLNQLNQ9kAyxLvBj4HsQC3/8UASp6/Boq+TQBPGbkCrq4LBQRLGQHZ9N0Dh7YLBzyHD
QEPEkkDIBYfBxF/8QFBgv0CkVcTBMX8NQcoOu0CEOLjBfyFYQI3AMUCb66XBirAEQKr/ekBK55bB
Z7w6QAWEhUAE+YrBVCqvQN0VgcClD5LBDdq6QNHhRsDG8pnBh3nCQPqvcj/YDLPBtpfIQBHJy754
6bXBXO2iQHAJcz4/KKLBec+FQLtEfsCvl43BrCzsQLJig0B1Za3B1NSoQDNkjkBjILTBcsacQL/9
CMDfKJ3BFhKpQKuSjb+X86TB6i+wQJrBoj9XAanBuZO+QDjdbUCXoazBO568QOWitr9K1a7BkGFn
QFJdCMBmTZjBTBPFQNqXM0CrXprBh7l+QB42W0CU4JfB4PCsQPqhLECf4aTB8m7kQGBj5EC0bMPB
MEayQEvHa0DtLIjBjom8QIYd0ECZS77BnhZSQCx/QsBZupDB1MvvQBssokDjZbTBWKvHQEZhqUAa
GbjB5SqnQCfLTUCd85LBbKCAQF9mQUAp5KHBcto2QEWFfED84ZLBemzqQLUcIEDflJjBEpHDQDSv
LcBprrHBVqgrQPZlnL8FUJvB5pzFQPQrmcBVb4/BLFraQMuoSMDcfp3BFLTLQAQJ3j+AgLjBD4jW
QMTFJL/skb3Bk8uTQOZL9j5Zo5rBhK55QLgGlsBEhYfBXhIDQWKqakAV6KjB34aHQBQyjEAvXrbB
QQnbQA2GAEE+9sfBEUb7QIdv7UBRH73BlIfzQPgrzUBZ28jBEuWUQKrkfECA04PB2yPDQKKfOEC4
14PB5h/HQGAlkkDLx4jBNY6tQEGV50A36bjBuc+lQLNRx0A/pcTBGo9OQMGfPEDevKbBJvT/P/0f
gUDE75bBeOI5QNloh0DgOYvB

> <OMEGA_E>
IBUYPnDqIj60Qu8+

> <OMEGA_NBR>
     53851

$$$$
50176707
  -OEChem-04172616093D

 47 50  0     1  0  0  0  0  0999 V2000
    6.4682    0.9409  -22.0777 C   0  0  0  0  0  0  0  0  0  0  0  0
    6.6657   -0.4065  -22.4164 C   0  0  0  0  0  0  0  0  0  0  0  0
    5.1656    0.2590  -20.1310 C   0  0  0  0  0  0  0  0  0  0  0  0
    3.5450   -2.0977  -19.0892 C   0  0  0  0  0  0  0  0  0  0  0  0
    5.7076   -3.1809  -19.0977 C   0  0  0  0  0  0  0  0  0  0  0  0
    5.1394    3.9247  -22.8318 C   0  0  0  0  0  0  0  0  0  0  0  0
    7.0426    4.4826  -21.6802 C   0  0  0  0  0  0  0  0  0  0  0  0
    3.9253   -4.0524  -17.8655 C   0  0  0  0  0  0  0  0  0  0  0  0
    5.3950   -1.0925  -20.4472 C   0  0  0  0  0  0  0  0  0  0  0  0
    4.8764   -2.1364  -19.5480 C   0  0  0  0  0  0  0  0  0  0  0  0
    5.7032    1.2873  -20.9349 C   0  0  0  0  0  0  0  0  0  0  0  0
    5.9134    3.7123  -21.5858 C   0  0  0  0  0  0  0  0  0  0  0  0
    6.1428   -1.4246  -21.6016 C   0  0  0  0  0  0  0  0  0  0  0  0
    6.2764    2.9801  -19.1947 C   0  0  0  0  0  0  0  0  0  0  0  0
    4.0484    3.3962  -18.8943 C   0  0  0  0  0  0  0  0  0  0  0  0
    5.5292    2.7396  -20.4927 C   0  0  2  0  0  0  0  0  0  0  0  0
    7.4562    7.4531  -23.1401 C   0  0  0  0  0  0  0  0  0  0  0  0
    5.5525    3.6232  -16.8692 C   0  0  0  0  0  0  0  0  0  0  0  0
    7.9251    6.0223  -23.4310 C   0  0  0  0  0  0  0  0  0  0  0  0
    3.0872   -3.0618  -18.2626 N   0  0  0  0  0  0  0  0  0  0  0  0
    5.2209   -4.1209  -18.2617 N   0  0  0  0  0  0  0  0  0  0  0  0
    5.8082    4.7449  -23.6072 N   0  0  0  0  0  0  0  0  0  0  0  0
    6.9340    5.0572  -22.9198 N   0  0  0  0  0  0  0  0  0  0  0  0
    5.2872    3.2262  -18.2565 N   0  0  0  0  0  0  0  0  0  0  0  0
    4.1292    2.9916  -20.1393 N   0  3  0  0  0  0  0  0  0  0  0  0
    2.8898    3.8826  -18.3097 N   0  0  0  0  0  0  0  0  0  0  0  0
    7.4830    2.8852  -18.9965 O   0  0  0  0  0  0  0  0  0  0  0  0
    6.3518   -2.7151  -21.9503 F   0  0  0  0  0  0  0  0  0  0  0  0
    6.9009    1.7179  -22.6904 H   0  0  0  0  0  0  0  0  0  0  0  0
    7.2215   -0.6618  -23.3065 H   0  0  0  0  0  0  0  0  0  0  0  0
    4.5724    0.5123  -19.2647 H   0  0  0  0  0  0  0  0  0  0  0  0
    2.8904   -1.2965  -19.3989 H   0  0  0  0  0  0  0  0  0  0  0  0
    6.7364   -3.2292  -19.4226 H   0  0  0  0  0  0  0  0  0  0  0  0
    4.1834    3.4784  -23.0630 H   0  0  0  0  0  0  0  0  0  0  0  0
    7.8301    4.6073  -20.9517 H   0  0  0  0  0  0  0  0  0  0  0  0
    3.5448   -4.8185  -17.2063 H   0  0  0  0  0  0  0  0  0  0  0  0
    8.1991    8.1680  -23.5234 H   0  0  0  0  0  0  0  0  0  0  0  0
    6.4891    7.6294  -23.6337 H   0  0  0  0  0  0  0  0  0  0  0  0
    7.3437    7.5883  -22.0542 H   0  0  0  0  0  0  0  0  0  0  0  0
    4.5992    3.7555  -16.3365 H   0  0  0  0  0  0  0  0  0  0  0  0
    6.1452    2.8418  -16.3713 H   0  0  0  0  0  0  0  0  0  0  0  0
    6.1122    4.5701  -16.8596 H   0  0  0  0  0  0  0  0  0  0  0  0
    8.0381    5.8889  -24.5170 H   0  0  0  0  0  0  0  0  0  0  0  0
    8.8926    5.8478  -22.9375 H   0  0  0  0  0  0  0  0  0  0  0  0
    3.3510    2.8727  -20.7560 H   0  0  0  0  0  0  0  0  0  0  0  0
    2.0466    3.9410  -18.8442 H   0  0  0  0  0  0  0  0  0  0  0  0
    2.8969    4.1751  -17.3535 H   0  0  0  0  0  0  0  0  0  0  0  0
  1  2  2  0  0  0  0
  1 11  1  0  0  0  0
  2 13  1  0  0  0  0
  3  9  1  0  0  0  0
  3 11  2  0  0  0  0
  4 10  1  0  0  0  0
  4 20  2  0  0  0  0
  5 10  2  0  0  0  0
  5 21  1  0  0  0  0
  6 12  1  0  0  0  0
  6 22  2  0  0  0  0
  7 12  2  0  0  0  0
  7 23  1  0  0  0  0
  8 20  1  0  0  0  0
  8 21  2  0  0  0  0
  9 10  1  0  0  0  0
  9 13  2  0  0  0  0
 11 16  1  0  0  0  0
 12 16  1  0  0  0  0
 13 28  1  0  0  0  0
 14 16  1  0  0  0  0
 14 24  1  0  0  0  0
 14 27  2  0  0  0  0
 15 24  1  0  0  0  0
 15 25  2  0  0  0  0
 15 26  1  0  0  0  0
 16 25  1  0  0  0  0
 17 19  1  0  0  0  0
 18 24  1  0  0  0  0
 19 23  1  0  0  0  0
 22 23  1  0  0  0  0
  1 29  1  0  0  0  0
  2 30  1  0  0  0  0
  3 31  1  0  0  0  0
  4 32  1  0  0  0  0
  5 33  1  0  0  0  0
  6 34  1  0  0  0  0
  7 35  1  0  0  0  0
  8 36  1  0  0  0  0
 17 37  1  0  0  0  0
 17 38  1  0  0  0  0
 17 39  1  0  0  0  0
 18 40  1  0  0  0  0
 18 41  1  0  0  0  0
 18 42  1  0  0  0  0
 19 43  1  0  0  0  0
 19 44  1  0  0  0  0
 25 45  1  0  0  0  0
 26 46  1  0  0  0  0
 26 47  1  0  0  0  0
M  CHG  1  25   1
M  END
> <OMEGA_C>
SPvOQMDecD8kn7DBFE3VQHQk0L7VVLPBckylQC6ehD5IDKHBFuJiQMFABsC3tpjBgaS2QBOUS8At
yJjBlnWkQM0ue0CMp7bB0VzhQMFxj0D4cK3BmDh7QPysgcCb7I7BsKOsQJfWi7/zk6PB0gucQB66
CMBHYpzBXYC2QH3FpD+YeqfBzjq9QA6XbUDFr6zBhpHEQGVYtr8U0KzBBdjIQDS5PkCzjpnBloyB
QCJcWUCGJ5fB2+6wQBdVL0D48KPBd5nuQMF/7kDaHrnBxq2xQO3iZ0Ar9IbBq5r9QHe2wECecrvB
xpRFQN3zQ8DYGZLBbxGnQEbeg8DwF5LB29y5QDvWl0CZ27zB++LdQLrUoUDEW7fBDDGpQJR6TkBM
DZLBLiKEQHZ2P0BMHaHBsPE4QK98eEBNepLBAnXvQPWmOEDO+JfBN0LLQNvELcBBmq/BJNTcQMXl
2z/bhbXBmxbnQLBqKb/Bc7rBBVGSQHUkAz81HprBnfw4QIDzpb8CMZvB2ZDXQN+qTsB/YZvBwN6F
QOCeXkAUgbjBapD6QAZvk0AfnafBw95iQHUxmsB0ponBqy8DQUiwAkHvL7zBGqfPQOAj9EDOEb3B
iv/qQFzT8kAMb7DBoyyTQKlacEAssYLBpqXEQFzfNUBi+ILBbJfDQDk+kkBn4IbBAJwAQY9xvEDK
IsTBOUgOQQohu0AIgLfBy3ZWQBLaN0BHDKbB+PoCQBw6fEDWwJbBBmc5QHOahUDs04rBOnfPQCXR
bT+xi7DBJ+HVQGo51r6jQbPBGMqlQCcFej4o+6DBDc62QIlPTMDysZjBJDJjQAT8BsDByJjBs3Wk
QNE9ekDAmrbB4d7gQAyhj0CPRK3BTPB6QGLigcBW6o7BRx6tQG6ejb/IhqPBpVGcQN2NCcC9XZzB
VuG2QAjxoj9vaqfBDBy9QAnYbED0nKzBYhPFQJQDuL/swazBE9fIQA3sPUD/gJnBzs6BQOcBW0BI
PpfB+gCxQG1OLkAC5KPBtdbrQMA070BcnLnBCKyxQGYSaUDf/IbBTNn8QJ2VwUCwJLvBaAOnQDAm
hMBwA5LBMntFQJB7RMB0LJLBKI+5QP/1l0ATt7zBNkndQCVdokChIrfBlCipQCzCTkCGDJLBDiaE
QBAdPkDXE6HBPnI6QMUbfkC5w5LBq3HvQF71N0CZ5ZfBVLXLQLGYLsBGj6/BE1HdQPCC2j9gb7XB
9snnQPgrLL9PXLrBPuWSQCUX/j6MCJrBZs3XQDd6T8ClO5vBM3Q5QDKUp78PVJvB1iyGQLS7XECi
iLjBour5QEbAk0B7Z6fBB0xiQE5MmsDkoYnBPMQBQcQlA0G7nbzByLTNQMX68kCLD77BHxDmQBcS
9UAFDrHBwCyTQExYckDEv4LBQnPEQAAtN0D47ILB4MnDQES3kkD5/YbB1FEBQcHKu0Cos8PBf38N
QRPivUAhsrbBBUtWQDJaNEBR66XBZdMEQF1KgUCfGJfBdEc7QM96iUClM4vB2nzBQHVYaj8hzbLB
fNHGQLbw3r4klbXBxvmfQA5gdD7NBqLBxvFjQOHvBcBcr5fB7BS3QE2XScCfyZnBsGXuQEBdgUC1
Ba3B9DGsQIKyjUDvSLTBS3aEQCxIf8DzyY3BG16mQFg/jr+apKTBSCiaQFfHCMDSyJzBGrauQLxP
oT/n26jBbmPAQE01bEDQiqzBNg66QIicub89eK7BtJnEQAxHMkCQOJrBUi1+QPNpXEDu75fBOvqs
QPp3LEBR0aTBtrHrQH4H4EDh3cPB2AiyQGjWb0BlRYjBcPLCQJYdzkBom77Bn0JPQLyUQcApUZDB
ztOrQOvjgcCRVJLBerDzQI6Hn0BfIbTBCkDMQAyBp0AqK7jB1OWmQM4LUEC495LBse+AQA6eRECh
BaLB2CE1QOS8ekDJ6pLB8GrpQL3/G0CGQpjB+1fAQEyKL8BPP7HB9bPLQGJ72D/9PbjBfcPUQCcp
Mr9UNb3B2ZmPQB17/j5AtJrB5d82QKUCqL9yrJnBBFHWQO+1TMD+dp3BhLgDQYj7ZUBkRqjB5RaL
QAZXjEDYvbbBXGd3QKppl8CJ6YfBapbjQGej/EB5k8jBk3wBQXuh6EBDoL3BB6v5QPWex0CCKMnB
CcOUQHrggUDGEITBmuzBQDizPEDctYPBVsbHQHlwk0CeBYnBMhu1QH3H5kAxXrnBE82rQPfExUBv
5sTBdhNQQHEtQ0BPC6fBkrH8Px+yf0CGAZfB2zY3QGTUhUDKNIvBWxfBQFjPbT/80LLBwKTGQDbE
176+krXBgkufQK7igT4tE6LBDhS3QG/ASMAJy5nBobxjQAmJBcCUsJfBTOTtQB/hhEBNH6zBeWGu
QHuWiUC8QbXBFJCEQP+0fsCxyI3B3hmmQAZ1jL++paTBDBGaQEEFCMDMx5zBtguuQHxSoz8E6KjB
PK/AQHr4bED8gqzB4P+5QNbCt787c67BrjLEQBAcM0BJQ5rBQvh+QJw9X0AV9pfBsrOsQGWhLUBE
2KTB2LfZQLJ77EDbRL/BoCOyQHkTbkBoNojB4rPJQJmfv0AkZsLBcOqrQDqCgcB+VZLBHTpPQNNF
QcCSU5DBwOr0QFnMnkCdH7TBYhTPQJQvokAOTLnBNNeoQGmyXkATjZPBnfmAQBKTR0AfDqLB6aU0
QPDRdECyipLBdKXnQPU2FkAHE5jBxqLAQOuULsDGMbHBtVnLQDAn2j+jQbjB7qvUQImMLr+OML3B
/5qOQFPmAj+Zy5rBoUzWQMG8S8C3ep3Be3o2QG6Qp79yrpnBsJcCQezqdkCkMKbBxyKOQI8nhkC5
PrjB39J3QHcXl8CF44fBoa3VQFU2AUFfE8bB7ybHQBFT+EBUZ7jBqMb7QBDE6kBbFr3BW5iXQLL/
iEDZkoTBhe+1QMVxMEAQEYTBbN/PQPiniUDLfYfBqKWnQIRbwUAAlcTBYkXcQIPMs0AHRMnBchpQ
QJdOR0CaEqfBrYz4P5f4ckB3UpbBlGY3QHUeg0D42YrB

> <OMEGA_E>
ADzwPKDwBD1oY8Y+CGzLPg==

> <OMEGA_NBR>
     57381

$$$$
50176690
  -OEChem-04172616093D

 63 67  0     1  0  0  0  0  0999 V2000
    6.8595   -0.3308  -22.2784 C   0  0  0  0  0  0  0  0  0  0  0  0
    6.2926   -1.3535  -21.5055 C   0  0  0  0  0  0  0  0  0  0  0  0
    6.6130    1.0095  -21.9495 C   0  0  0  0  0  0  0  0  0  0  0  0
    5.1852    0.3092  -20.1018 C   0  0  0  0  0  0  0  0  0  0  0  0
    5.6964   -3.1648  -19.1561 C   0  0  0  0  0  0  0  0  0  0  0  0
    3.5550   -2.0364  -19.1508 C   0  0  0  0  0  0  0  0  0  0  0  0
    5.0448    3.8690  -22.7794 C   0  0  0  0  0  0  0  0  0  0  0  0
    7.0840    4.2835  -21.8152 C   0  0  0  0  0  0  0  0  0  0  0  0
    3.8764   -4.0278  -17.9749 C   0  0  0  0  0  0  0  0  0  0  0  0
    5.4558   -1.0321  -20.4168 C   0  0  0  0  0  0  0  0  0  0  0  0
    4.8955   -2.0888  -19.5785 C   0  0  0  0  0  0  0  0  0  0  0  0
    5.7599    1.3442  -20.8589 C   0  0  0  0  0  0  0  0  0  0  0  0
    5.8756    3.6989  -21.5648 C   0  0  0  0  0  0  0  0  0  0  0  0
    6.2949    3.0859  -19.1422 C   0  0  0  0  0  0  0  0  0  0  0  0
    4.0558    3.4240  -18.8050 C   0  0  0  0  0  0  0  0  0  0  0  0
    7.2036   10.4513  -22.6184 C   0  0  0  0  0  0  0  0  0  0  0  0
    7.9055    9.6646  -21.4932 C   0  0  0  0  0  0  0  0  0  0  0  0
    6.9823    9.5741  -23.8701 C   0  0  0  0  0  0  0  0  0  0  0  0
    7.0857    8.4202  -21.1277 C   0  0  0  0  0  0  0  0  0  0  0  0
    6.1914    8.2995  -23.5142 C   0  0  0  0  0  0  0  0  0  0  0  0
    6.8459    7.5171  -22.3495 C   0  0  0  0  0  0  0  0  0  0  0  0
    5.5327    2.7895  -20.4219 C   0  0  2  0  0  0  0  0  0  0  0  0
    5.5932    3.7983  -16.8289 C   0  0  0  0  0  0  0  0  0  0  0  0
    8.1896    6.8396  -22.7863 C   0  0  0  0  0  0  0  0  0  0  0  0
    7.9542    5.6324  -23.7116 C   0  0  0  0  0  0  0  0  0  0  0  0
    5.1770   -4.1139  -18.3524 N   0  0  0  0  0  0  0  0  0  0  0  0
    3.0624   -3.0144  -18.3643 N   0  0  0  0  0  0  0  0  0  0  0  0
    5.7493    4.5070  -23.6824 N   0  0  0  0  0  0  0  0  0  0  0  0
    6.9451    4.7542  -23.0962 N   0  0  0  0  0  0  0  0  0  0  0  0
    5.3147    3.3254  -18.1906 N   0  0  0  0  0  0  0  0  0  0  0  0
    4.1327    3.0229  -20.0519 N   0  3  0  0  0  0  0  0  0  0  0  0
    2.8845    3.8545  -18.2009 N   0  0  0  0  0  0  0  0  0  0  0  0
    7.5062    3.0302  -18.9584 O   0  0  0  0  0  0  0  0  0  0  0  0
    7.4844   -0.5747  -23.1249 H   0  0  0  0  0  0  0  0  0  0  0  0
    6.4965   -2.3870  -21.7435 H   0  0  0  0  0  0  0  0  0  0  0  0
    7.0744    1.7958  -22.5285 H   0  0  0  0  0  0  0  0  0  0  0  0
    4.5329    0.5464  -19.2744 H   0  0  0  0  0  0  0  0  0  0  0  0
    6.7261   -3.2305  -19.4752 H   0  0  0  0  0  0  0  0  0  0  0  0
    2.9227   -1.2144  -19.4522 H   0  0  0  0  0  0  0  0  0  0  0  0
    4.0283    3.5249  -22.9008 H   0  0  0  0  0  0  0  0  0  0  0  0
    7.9414    4.3574  -21.1627 H   0  0  0  0  0  0  0  0  0  0  0  0
    3.4716   -4.7995  -17.3368 H   0  0  0  0  0  0  0  0  0  0  0  0
    6.2282   10.8046  -22.2526 H   0  0  0  0  0  0  0  0  0  0  0  0
    7.8270   11.3150  -22.8930 H   0  0  0  0  0  0  0  0  0  0  0  0
    8.9042    9.3548  -21.8345 H   0  0  0  0  0  0  0  0  0  0  0  0
    8.0043   10.3082  -20.6066 H   0  0  0  0  0  0  0  0  0  0  0  0
    6.4191   10.1503  -24.6190 H   0  0  0  0  0  0  0  0  0  0  0  0
    7.9592    9.2875  -24.2867 H   0  0  0  0  0  0  0  0  0  0  0  0
    7.6298    7.8473  -20.3623 H   0  0  0  0  0  0  0  0  0  0  0  0
    6.1135    8.7397  -20.7244 H   0  0  0  0  0  0  0  0  0  0  0  0
    5.1706    8.5854  -23.2206 H   0  0  0  0  0  0  0  0  0  0  0  0
    6.1495    7.6486  -24.4000 H   0  0  0  0  0  0  0  0  0  0  0  0
    6.1525    6.7177  -22.0492 H   0  0  0  0  0  0  0  0  0  0  0  0
    4.6476    3.9078  -16.2777 H   0  0  0  0  0  0  0  0  0  0  0  0
    6.2363    3.0705  -16.3125 H   0  0  0  0  0  0  0  0  0  0  0  0
    6.1047    4.7710  -16.8761 H   0  0  0  0  0  0  0  0  0  0  0  0
    8.8038    7.5805  -23.3189 H   0  0  0  0  0  0  0  0  0  0  0  0
    8.7238    6.4987  -21.8872 H   0  0  0  0  0  0  0  0  0  0  0  0
    7.5934    5.9814  -24.6904 H   0  0  0  0  0  0  0  0  0  0  0  0
    8.8954    5.0787  -23.8439 H   0  0  0  0  0  0  0  0  0  0  0  0
    3.3504    2.8948  -20.6614 H   0  0  0  0  0  0  0  0  0  0  0  0
    2.0306    3.8716  -18.7212 H   0  0  0  0  0  0  0  0  0  0  0  0
    2.8935    4.1479  -17.2450 H   0  0  0  0  0  0  0  0  0  0  0  0
  1  2  1  0  0  0  0
  1  3  2  0  0  0  0
  2 10  2  0  0  0  0
  3 12  1  0  0  0  0
  4 10  1  0  0  0  0
  4 12  2  0  0  0  0
  5 11  1  0  0  0  0
  5 26  2  0  0  0  0
  6 11  2  0  0  0  0
  6 27  1  0  0  0  0
  7 13  1  0  0  0  0
  7 28  2  0  0  0  0
  8 13  2  0  0  0  0
  8 29  1  0  0  0  0
  9 26  1  0  0  0  0
  9 27  2  0  0  0  0
 10 11  1  0  0  0  0
 12 22  1  0  0  0  0
 13 22  1  0  0  0  0
 14 22  1  0  0  0  0
 14 30  1  0  0  0  0
 14 33  2  0  0  0  0
 15 30  1  0  0  0  0
 15 31  2  0  0  0  0
 15 32  1  0  0  0  0
 16 17  1  0  0  0  0
 16 18  1  0  0  0  0
 17 19  1  0  0  0  0
 18 20  1  0  0  0  0
 19 21  1  0  0  0  0
 20 21  1  0  0  0  0
 21 24  1  0  0  0  0
 22 31  1  0  0  0  0
 23 30  1  0  0  0  0
 24 25  1  0  0  0  0
 25 29  1  0  0  0  0
 28 29  1  0  0  0  0
  1 34  1  0  0  0  0
  2 35  1  0  0  0  0
  3 36  1  0  0  0  0
  4 37  1  0  0  0  0
  5 38  1  0  0  0  0
  6 39  1  0  0  0  0
  7 40  1  0  0  0  0
  8 41  1  0  0  0  0
  9 42  1  0  0  0  0
 16 43  1  0  0  0  0
 16 44  1  0  0  0  0
 17 45  1  0  0  0  0
 17 46  1  0  0  0  0
 18 47  1  0  0  0  0
 18 48  1  0  0  0  0
 19 49  1  0  0  0  0
 19 50  1  0  0  0  0
 20 51  1  0  0  0  0
 20 52  1  0  0  0  0
 21 53  1  0  0  0  0
 23 54  1  0  0  0  0
 23 55  1  0  0  0  0
 23 56  1  0  0  0  0
 24 57  1  0  0  0  0
 24 58  1  0  0  0  0
 25 59  1  0  0  0  0
 25 60  1  0  0  0  0
 31 61  1  0  0  0  0
 32 62  1  0  0  0  0
 32 63  1  0  0  0  0
M  CHG  1  31   1
M  END
> <OMEGA_C>
JoHbQDNhqb4vOrLB8lzJQL8+rb8wC6zB9J3TQJg3gT+LmK/BXO2lQBRVnj6E0KDBCEm2QKeLSsCk
P5nBl4VjQJdUAsDWNJnBrm6hQPKdd0BNPLbBxK/iQFQSiUCBha7BbRd4QATkgMCXzI/BmJWuQGob
hL+oVaPBzKecQIOuBcDQoJzB1FC4QFIOrD8V36bBBAW8QPu5bECyhKzBuG/JQAWARUA+I5nBMMmB
QEUiW0CwcJbBNITmQHY4J0Fl8rTBevn8QE6iGkH+8avB5G7fQJQvGUEP9r7BYL7iQBq5BkF2BanB
MiDGQNfKBEEPHbzB7BHbQNCL8ECty7LB3AuxQNCGMkAWYKPBNPuyQOcWc0CroYbBawgDQdbd2kBQ
SrbBnoj+QAU9tEBRsb3BqqmlQOKkg8Ci0ZLB//5DQJjrQMAd6pLBdPq3QJs5kEChdb3BAD7eQB8i
mEDwxLjBSBKqQCjUVEBdhpHBcj+EQGx2QUAyaqDBDJs4QN6vdkCKm5HBhjLwQErvQUDiqpfB93/v
QKIdE7+7/7jBruPPQHjEGMCo8q3Bh2HiQEne5T9HOrTBuQ2RQJviCz/tMZrBRTzXQCzATsAhzZvB
+gw7QLRxm78MnpvBlueAQCSYYUDuNLfB2x/+QPRvi0A0TanBxy5eQCCVmcDYsYrBwU3HQJjfLEFT
BbLB8Xb6QDMKNUHKJLfBn3cOQTetFUEDra7BchEAQXvuJEFI2qTBQ2nNQMxnIkG388TBnrH+QMqZ
FEFAS8LBESf0QLUc+0AB5qLBq6HDQMvVC0GJy6XBnXWlQLhdCUHBw7nBwsjEQJfB9EAcM8PBPeHE
QHr31kC3ZLDBzLiUQNIYekDHOILBt4/HQFaCREAWgILBhFnDQL6rmEBHAofBZdwMQZ6T8kAnjbrB
pJQLQRL1z0D3GK/B+/zyQJ9nv0DphcXBXFMOQVSEokA/wL7BOG1WQLpEOUCWSqXBzvUBQJjId0AI
xZXBci45QEu7hEC/9YnBTD3XQHSHo74A6bLBdp3FQOVfrL9iqqzBxGDQQLqngj+3DrDBaR2kQEoG
nz78B6HBqjq2QEBYSsCZqZnBagRjQJQ9A8AY1pjBlvWkQDNxcUC0yLbBOkXeQGezkUA6Hq3B+gx8
QIdFgcCljY/B9T6sQCj3g78orqPBEbebQEH0BcApxZzBtRi2QCLVrD+aJKfB9CO7QIZvb0AkV6zB
pFbIQL5PQ0B4PJnB6vmAQNS+W0DMd5bBQ0dmQEZaDEGOXMjBqc14QASDEUHkeLzBd0KFQEKn7EBo
ncvBB5OsQGx+D0GI2LnBcz21QD3r6UD278jBjlK8QPDt8UAxyLzB16yvQI7YMkAQdqPB7vayQMBa
c0CryobBJ9rrQJT760Bqf7nBYzj8QB09vkCv07vBFBKnQOOpg8CDCpPBFmNGQDQKQsDXWpLBFom8
QLCqjkAoeL3BFeDdQH8DnkC/m7fBjFipQDxEVEClmpHBvAeDQAwuQkC/c6DBp4w3QBsaeEBQlJHB
XSXvQJ7GPkDs4ZfB9wzqQNk4D78p5rnBPXjLQOVCGMDAvK7BFSvfQOiC5z+hqrTBNfWPQMeQCz++
RJrBWLXWQPX8TcBxlJzBF0U5QDzqnb95AZvBrZKGQEjSU0DylLjBN9P0QNtdmkDJ8KbBvGVkQNIa
msB5UorBAp4gQPNUDEESosnBcuiBQJbBGEFfZc3BmupjQEf5IUHgxrrB7sFUQC5LBkGtZ7fBjA9o
QI9q00AuP8fB0dWAQFYS6EAFRdTB6qG+QAZyG0Fhd77B94+xQPZEEkHyPrHBTEHBQJjryUBaCsvB
2LbGQLkfAUEtj83BWQqpQJ1+2kDRUrjBzfWUQHq/e0C5T4LBiF7HQGCTREAlpILB08nDQISGmEC7
UIfBvov/QB96AUGN/r3B2vbuQKRV8kCR4LDBu3//QKz3uUD4hcTBSMkNQfjLuUDH+7fBCrNTQLxT
OkBRSqXBaL0AQIDneUAmtJXBO644QPlghUCW7YnBTzrHQKn8vL5XzLTBF5G6QJt/sb89ya3BsZvD
QH2oeD9qr7HBiiymQLD3kj7zdaDBylewQF2rWsDWn5zBSs93QGsh+b/7oJTBX0elQIQjhEB1GLbB
JGzoQMmwgUCQqa7BLRKEQE3MhMDuxY7B3/CpQE6kiL9ulKPBl6ucQHFtCcDSOpzBexezQBwLqT+/
a6fBabq+QLg9bECbsazBnvHFQH7DQ0COP5nBxj99QCYzZEA5TpfBwtS6QApSHUE2dazB2+aqQDEh
BkE7QK3B72vaQKKIIkHil7XBEgfRQMhu7UBuQK3Bevz/QBpyEkE9/bXBA2nvQEtO9kDB6rbBWMuu
QC1ZMkAfyqPBELuuQMise0DyI4fBqQoLQUG71kB4R7fBiM8FQXlWrEBfLL3BRNKjQBarjMAI5pXB
SilgQFrGPMCxCo7BwvC+QKUfl0Ak8rzBG3rmQGfXlUA1bbjBwFKnQOuFZ0DTg5LBUtiBQI7tRkBF
KqHBOrcwQEi5fECggJLBSqnrQPlANkCyIJfBoMXTQKAhHr94mbzBN4O9QJjkGsD/LrDB93TNQJEq
4D9sIbfBk0yZQHMYCD9gr5jBdozJQI62ZsAvV6LBAHlYQJNzfL/lFJTB0EiDQA0Af0BXIrfBjBgC
QZd3eEAKtKnB4Y50QC00nsCuc4nB+ESfQF84KEEB+KzBYxXLQOmRH0HFu6TBbSeWQJGSAkE/XqbB
3qGYQKUbBEFftLTBryfJQNL3IUGyQb3B+1fnQHy2MkHYV7TBORLjQJZ68UCHw6XBtxTFQP1jzECs
yK3BhxgKQSgVFkE59rzB5IUJQdkAFEHKoa7BcATdQGAT80BjYL7BCXuRQMaji0DnqoPBpCq3QOG/
QEDBz4LBTxXJQB8DlUB9dIbBGWkYQSl/5kDsbbvBn84PQf0kz0DhBa/B1DcCQWWas0AqmMXBsdwT
Qfg1l0DxvrzBymlSQC+jP0AeMKbBepjzP1WseEA/lJbB26UwQGUyiUCY+YrBy03dQCRYp75a4rHB
5H/KQMgXrb8m3KvBNqXVQGqFgT/8Ka/Bf/SmQB6NnD4dmaDBBjS2QPpES8ByOJnBNG1jQLDuAsCo
bpnB202gQG0RdEB+37XBYlviQGUtiUA8zK7BwGR2QI+bgcD5JJDBhVuvQKp0hL9JNqPBxNqcQGwr
BsDbp5zBGOa5QFgFrD/chKbBfDi8QM8RbECiXqzBMhvKQNWbR0Cm4JjBfWuCQOahXEAKW5bBVekL
QcU6HkEkRa/B8uQVQbuiB0H6i6/B3HrsQMxOH0GZNrXBf9oFQQcX7kArPavBjFXNQCf7DUEiKbHB
rkDhQIf67kDesLHByRmyQCGhMkB6GaPBVKqyQNh4ckDRVIbBWgPoQDxj4UCLnL3BmOH5QLS/s0D4
n77B1BClQEI7hMD38ZLBydxCQLsDQsCGTJPBcqm1QOx9jUB3cL3BpkfcQHy1lkBAJLnBVF6qQCJT
VUDyTJHBpRqFQOZQQEBsNKDBof45QGsfe0CVxpHBIOvwQLYnSECmcJfB7qHxQEY1Eb8BmrjBQsrQ
QGykGMDB1q3BS/DkQMNh5j88q7PBvdyRQPEvCj/VA5rBXVvXQDZLT8CRm5vBYGo7QJMVnL/j3ZvB
IHB/QBKHXUC+drbB41n+QPnEjEC7z6nBBZdbQAmMmsCGMIvB02AJQfDeIkFq4KbB+hMXQV+FKUFa
ELPBdyIaQWaOA0Em17fB52MkQdZvB0GcjqrBpBjeQKknL0E45rPBcwvyQMjoHEHI0b3BxvoMQZ//
zUCq2qvBeGICQWpK9UAszaLBnsfEQDGIEUGpz6jB6FCwQBpCDkHQI7bB4d/KQFMy2EA9/a3BfzGU
QOI8eEBG/IHBD1vHQGPiQ0BrPILBcK3CQCuSmEASjYbBkRLJQFv04kAQysHBHKD+QBfG90DqX8HB
TGb8QJLbqkDAHcfBltcMQcH5sUAe4brB+FJYQKKdNUDrCKXBIN0DQL9gfEB4CpbBvyQ6QOjth0AQ
NYrBXaHWQCslk77GMLPBJV7FQNkPqr/pC63BCbPPQOK4hT9mJ7DBvtykQMWxmj4H/aDBVUW0QEhX
UcCrN5vBOA1nQKoQAMAXLZjBENOjQCcAfUAt07XBcg/kQOsyiUAqRa3BVmt8QCdpgsC3CZDBk4ms
QAZ9hL/x6KPBycybQLhVB8AWKp3By0G2QBV8rT+zBqfBq2O8QM1nb0C+06vBnbHGQLH1QUA+pZjB
HjJ/QFzBX0C7tJbBD8PVQIo8HEG8PKfBDgYCQYTSHEFjj6vBk17FQMIiBUHXI6bBIjwEQa4kEEFe
ELbB+WjJQMDh8kCB3LDB7w75QEzz8UDqfrTB63uvQPWtMkBQJKPBVVOuQM47bUBHO4bBj8z/QGAN
2UC5D7/BXggEQfNmqUAN/rzBFzilQABah8BXopTB7IBKQNoiP8CZvZHB6ka9QNMdkEBV5LzBaRfj
QBCylUAtwbfBWYamQGT+UkDZVJHBN3iCQExzQkBqg6DBmKE1QAm1gUCmZ5LBOyjtQGMXPEDF1pbB
bDvpQKbLAr/NP7rBOBHLQNnEFsDTTa/Bf8ndQJb66z+qx7TBPXaRQONQBT8rDprBjhzTQBX5WMB+
/57B0ClAQMHaj797gpnB6Z2CQPinbEBLErfBKcf9QEJejECajafBSw5lQEBJm8CLzIrBc/PUQLH6
I0FRVp/BXM3AQJ7/JEE9yazBh5cGQUqQLUEwB63Bs8kMQULUFUEiiqXBZm7YQHJn+UC9D6DB3ZSj
QBpkBUEDraPB6Qb1QGbaF0EhTrzBXB8VQZ4FEEGiirjBKK29QGvj0UCd96/BQCi2QBLPAUHK7LbB
IyYGQWbT4kCsK67B5I6PQGq2dkDAH4LBD7zAQN0yO0BdF4LBlovAQKu7lEDqJ4bBZfriQARc3ECl
C8TBz7kNQY+q5kDJT8PBh/8GQeoumUAaqcTB9CYSQVr7pUASz7fBTYFTQBRrOEDrb6XBpp8AQID9
g0Dx2ZbB5I41QP1JjEDe2orBJFrVQIkSo76OXLPBk33EQAYyrb9DFK3BUFzOQHMngj+IbbDBGTKk
QGyDlD7tGKHBNui0QL5BUcCrCJvBSZxoQM09AMCMtZfB5FOiQDqyfkDv77XBI77jQFr1hkBGxa3B
eimAQPX9gcBka4/BrPmrQN5lhr+c6KPBwwicQOm/B8C79ZzBPFK1QBcUqz89QKfBh5O7QGECbkCi
IazBaMHGQAxjQUA3AZnBhZx/QD7BX0Cs0pbBB7SdQCBoC0GLxbfBM/C7QMrZDkGbW8HBQle3QNq1
CkHZPq3BHyDdQJm7+UAJAsLBswfYQIzt8EDPlK3BuX32QAdw9UCdYLfBLN6uQJabMUAyZ6PBf+iv
QAkacUCZpobBywMMQb+m0EDX+bfBnCMEQbfnpkBvZL3BubKmQKYCh8B6QJTBnMpNQNaoPsAHEJHB
k5m7QH8ukUAmBb3BgiLiQLk4lUBWFbjB/CinQIcOVECsmZHBOA2CQO2/QUA3nKDBdYs2QFnUgUDK
a5LBoFDtQKplO0BsVZfBJbHnQJCxDL+McrrBuUHKQMV8GMBnQa/B3xbcQI3S5z+oK7XB7uqQQMcb
BD94KJrBx2LTQIr6WMCs/Z7B/CxBQIvgkL/lApnBT9uAQDsCcEA/D7fBY07+QJsGiED+P6jBlkFq
QC+omsBdCIrBEoqGQO2jGEHra7fB2YGMQG9g+EDzzLjBdAepQNURD0GMx8jBmI7MQAZAHkGbacDB
+zbIQFUAGkFzJ6zB2D6hQPIhCEF7hKbBY53MQJNb20COqcPBHaXzQMxjAEG3icjBgSjrQKqO8UAX
MqbBWOjGQDlB0kAyJK7BOjcEQVS0CUFOSrbBx3+RQE94e0CDaYLBSMDCQLo0QEC4a4LBTAvCQH+z
lkBP6YbB/ekZQWB03EAdf7zBz/EQQajIyECnwq/BRjAAQQHWrUB4ysXBwQsRQVACj0CuEb3BIQlS
QFF5N0DLbKXBTf0AQKrsg0AJxZbBgmE3QPOvjEB55YrBhVjtQK7imb6PFq7BmE/XQLZ6qr/s16jB
J5niQFfkhD81EazBa3CrQCHJpD7+hZ/BQTy0QDGTVcBVg5nBZbJpQMSe+r8zZpjBK2mfQNxpbkBU
Q7bBv37hQPM8iUBfuq/BLR1sQJyjg8BSN5HBdWK2QBaOg7/MeKHBL66fQMA7B8D3xpvBKLjAQFIA
rz8V8aTBw3O8QAb2aEDc6KzB1rLLQKCOWUDWGpnBViCDQEWHYkCmTZbBklGZQOSCHUFWrMPB/Cqt
QNESHUHnXbjBOMGTQPauBkHBJMjBtSPYQCXoEEGZWrjBBJa+QO709EAaIMjBR2XSQBrV80BfuLzB
DVm0QNhRNUDPy6LBDrSzQDrDjUDQm4fBSUX+QMla3EBzq7zBg+v6QNNMrUD7bcDBpzGfQFsaisD6
Q5TBkG9BQDhkPcB3MpPBURuzQJG/i0CHAb7BGHTaQHmIlUAhHLrBO9GrQNwGeUATZ5LBgdGGQOQo
PkA2w5/B6bA4QIcbcUBLJZHBBW/yQPQKXEA1j5fBMkoDQY5xCb9KrrPBkYTfQAEoF8CtcKrBCEP0
QA3+6T8E+K/BoIqSQExSDj/W1JnBovjUQANzX8Ai/pvBfj9IQMlWhL9p/JnBJ69+QGrVVECnprbB
wKD9QKWgjkDa5KrBEyxLQJH+nMD+B43BtaVzQN5UJUGAR8PBP2yuQC+jJkG9CcnBGqeyQGyZLUH5
qrXBsd2WQIETFUE827LBtx55QNjz+0BPKMPBZrKHQAarB0GAZdDBVy3vQPiGGUEtbL3BOG3kQF4X
EEEWHrDBMg25QMj300Cc3crBBALVQJV+AkE0mc3B/GC8QIR14kACZ7fBsDeVQIUAmEDmB4TBTk/C
QNGpaUA0lYLBYnvJQI1UqUBcJ4jBKyUKQXN77UBQCcLBoo4FQe7M3EAperTB97jxQE+3rEAy7MjB
sh0NQR22nUBNcb/B/F5cQF0cK0CpR6TBUtEBQOmWX0DgoZTBDNM3QC2NhkDV84nBdMHtQKJMmb7z
/K3BNZ3XQDROqr+DxKjBEgfjQHgShT8u+KvBPqWrQAG+pT6ze5/Bq0+0QIuDVcCeeZnB39VpQHR6
+r8xaZjBomufQAgrbUDCN7bBlYzhQOFliUCP1a/BvApsQK+cg8DTOpHBepa2QHFbg7/ZbKHBzsqf
QKQoB8AgwZvB6QzBQAA7rz974KTBGrW8QAjUaEBA6azBVt7LQGX/WUB+E5nBCT+DQG2NYkAhTZbB
wPrkQH/mI0F59KzBtR0CQShfEUH/karBiTy6QAh2G0GwerHB78MFQQFaA0Gkj7TBsNbBQOPGDUFK
krvBPWfgQPTz9UC6FrnB1Ka0QAh5NUDCw6LBfaSzQLbYjUB0lIfBwdHnQPDe2kBnW8PBCnD5QJ3Z
rUDrvcDBEjOfQPwSisDDPpTBM21BQJNTPcAAOpPBt6ayQAQei0AcBr7B+uXZQIimlUAeN7rBZOKr
QEM3eUBzYZLB8BGHQMowPkCZwZ/BAcg4QGv7cEBhK5HBNJfyQCesXECnhJfBWYcDQdA/Cb9/j7PB
c9HfQEsTF8CBXKrBq8j0QAwk6j8R2a/BxKiSQAvlDj8F0ZnB0BPVQFxlX8DZ7ZvB5G5IQLEvhL+B
AprBXvh+QIzdUkDvh7bBceD9QC30jkBvFavBnPtKQHn4nMCED43BQ6neQCi5LEGXgaXB6azzQMS3
LkE22LLB4YkRQYISGEHM+KfBdNj2QLZkB0HZI6TBrVSqQEGdEUFaXavBzqKlQNYdKUFtjbPB/9wN
QULtDEFSvLrBJ+QPQYtE60DxYLLByQqjQPVgB0EqY77B7BDQQEbZF0HD2cHBeFjRQKRp4UCkA7PB
aRmVQGD4l0AdA4TBG03CQF3laUC2jYLBvFTJQGF9qUBBHIjB0DTJQDFt10BRncfBqOj+QKCa60A4
hMjB+IP/QCF2nECjPcjBeMALQQYCsUD1O7zBhf5cQOEPK0DqSaTB1AQCQD9ZX0CarJTB67M3QP19
hkAj+onB

> <OMEGA_E>
aM+VPlC9lj6EAN8+gCGnPsB4pD5IA5s+HHoMP0xCDj8=

> <OMEGA_NBR>
     65770

$$$$
50176708
  -OEChem-04172616093D

 44 47  0     1  0  0  0  0  0999 V2000
    6.7856   -0.7719  -22.6604 C   0  0  0  0  0  0  0  0  0  0  0  0
    6.2486   -1.6374  -21.6932 C   0  0  0  0  0  0  0  0  0  0  0  0
    6.6542    0.6206  -22.5213 C   0  0  0  0  0  0  0  0  0  0  0  0
    5.3771    0.2796  -20.4650 C   0  0  0  0  0  0  0  0  0  0  0  0
    3.6525   -1.9455  -19.1196 C   0  0  0  0  0  0  0  0  0  0  0  0
    5.7374   -3.1674  -19.1424 C   0  0  0  0  0  0  0  0  0  0  0  0
    3.7396    3.2782  -19.7226 C   0  0  0  0  0  0  0  0  0  0  0  0
    5.8387    3.1290  -18.8151 C   0  0  0  0  0  0  0  0  0  0  0  0
    3.9193   -3.9161  -17.8810 C   0  0  0  0  0  0  0  0  0  0  0  0
    5.5377   -1.1225  -20.5905 C   0  0  0  0  0  0  0  0  0  0  0  0
    4.9754   -2.0676  -19.5930 C   0  0  0  0  0  0  0  0  0  0  0  0
    5.9712    1.1720  -21.4165 C   0  0  0  0  0  0  0  0  0  0  0  0
    5.1840    3.0935  -20.0150 C   0  0  0  0  0  0  0  0  0  0  0  0
    7.1572    3.4796  -21.4921 C   0  0  0  0  0  0  0  0  0  0  0  0
    5.6500    4.2108  -23.0398 C   0  0  0  0  0  0  0  0  0  0  0  0
    5.8311    2.7113  -21.3257 C   0  0  1  0  0  0  0  0  0  0  0  0
    5.1469    3.4576  -16.4714 C   0  0  0  0  0  0  0  0  0  0  0  0
    7.8518    5.4434  -22.9370 C   0  0  0  0  0  0  0  0  0  0  0  0
    3.1419   -2.8774  -18.2809 N   0  0  0  0  0  0  0  0  0  0  0  0
    5.2040   -4.0665  -18.2872 N   0  0  0  0  0  0  0  0  0  0  0  0
    3.5972    3.4439  -18.4249 N   0  0  0  0  0  0  0  0  0  0  0  0
    4.8527    3.3766  -17.9114 N   0  0  0  0  0  0  0  0  0  0  0  0
    6.9707    4.3104  -22.5886 N   0  0  0  0  0  0  0  0  0  0  0  0
    5.0329    3.2040  -22.4577 N   0  3  0  0  0  0  0  0  0  0  0  0
    5.0727    5.0664  -23.9640 N   0  0  0  0  0  0  0  0  0  0  0  0
    8.1292    3.4935  -20.7440 O   0  0  0  0  0  0  0  0  0  0  0  0
    7.3029   -1.1791  -23.5166 H   0  0  0  0  0  0  0  0  0  0  0  0
    6.3813   -2.7044  -21.7951 H   0  0  0  0  0  0  0  0  0  0  0  0
    7.0802    1.2750  -23.2674 H   0  0  0  0  0  0  0  0  0  0  0  0
    4.8011    0.6802  -19.6439 H   0  0  0  0  0  0  0  0  0  0  0  0
    3.0456   -1.1066  -19.4268 H   0  0  0  0  0  0  0  0  0  0  0  0
    6.7545   -3.2907  -19.4840 H   0  0  0  0  0  0  0  0  0  0  0  0
    2.9421    3.2768  -20.4509 H   0  0  0  0  0  0  0  0  0  0  0  0
    6.8936    2.9923  -18.6282 H   0  0  0  0  0  0  0  0  0  0  0  0
    3.4974   -4.6521  -17.2126 H   0  0  0  0  0  0  0  0  0  0  0  0
    4.2080    3.5771  -15.9110 H   0  0  0  0  0  0  0  0  0  0  0  0
    5.6519    2.5354  -16.1481 H   0  0  0  0  0  0  0  0  0  0  0  0
    5.8012    4.3207  -16.2790 H   0  0  0  0  0  0  0  0  0  0  0  0
    7.4782    5.9323  -23.8488 H   0  0  0  0  0  0  0  0  0  0  0  0
    7.8609    6.1684  -22.1098 H   0  0  0  0  0  0  0  0  0  0  0  0
    8.8729    5.0734  -23.1115 H   0  0  0  0  0  0  0  0  0  0  0  0
    4.1508    2.8294  -22.7436 H   0  0  0  0  0  0  0  0  0  0  0  0
    4.1180    4.9407  -24.2335 H   0  0  0  0  0  0  0  0  0  0  0  0
    5.6108    5.8096  -24.3615 H   0  0  0  0  0  0  0  0  0  0  0  0
  1  2  1  0  0  0  0
  1  3  2  0  0  0  0
  2 10  2  0  0  0  0
  3 12  1  0  0  0  0
  4 10  1  0  0  0  0
  4 12  2  0  0  0  0
  5 11  1  0  0  0  0
  5 19  2  0  0  0  0
  6 11  2  0  0  0  0
  6 20  1  0  0  0  0
  7 13  1  0  0  0  0
  7 21  2  0  0  0  0
  8 13  2  0  0  0  0
  8 22  1  0  0  0  0
  9 19  1  0  0  0  0
  9 20  2  0  0  0  0
 10 11  1  0  0  0  0
 12 16  1  0  0  0  0
 13 16  1  0  0  0  0
 14 16  1  0  0  0  0
 14 23  1  0  0  0  0
 14 26  2  0  0  0  0
 15 23  1  0  0  0  0
 15 24  2  0  0  0  0
 15 25  1  0  0  0  0
 16 24  1  0  0  0  0
 17 22  1  0  0  0  0
 18 23  1  0  0  0  0
 21 22  1  0  0  0  0
  1 27  1  0  0  0  0
  2 28  1  0  0  0  0
  3 29  1  0  0  0  0
  4 30  1  0  0  0  0
  5 31  1  0  0  0  0
  6 32  1  0  0  0  0
  7 33  1  0  0  0  0
  8 34  1  0  0  0  0
  9 35  1  0  0  0  0
 17 36  1  0  0  0  0
 17 37  1  0  0  0  0
 17 38  1  0  0  0  0
 18 39  1  0  0  0  0
 18 40  1  0  0  0  0
 18 41  1  0  0  0  0
 24 42  1  0  0  0  0
 25 43  1  0  0  0  0
 25 44  1  0  0  0  0
M  CHG  1  24   1
M  END
> <OMEGA_C>
+yPZQKacRb+RSLXBW/THQEOX0b+ni63BlO/UQP7gHj+jK7TBURGsQDUojz47uKPB/MJpQI8E+b/l
9JjBfJi3QAi3SsCKI5nBNVZvQNTNUUDvx53BTNa6QAZCSEA8hZbBztV6QACiesBMDI/BdDSxQHmv
j79duaTBJDafQGxTBMCDvpzBchS/QI4Dlj/tVKvBHuOlQIz7RUC8HqDByAflQKKxXkDl76vBLs20
QKW+hkBvUbjBC5i6QMCFLUAEm6rBwrOkQJpIXUCCxYPB60H7QCwwrkDkfrfBThVJQKgnOMA6P5LB
2IamQPoggsBETJLBXDhmQCJoXEA3ZpPBNEmbQIQZWECbSo/BFBDfQOPuiUCOtbTBXw2hQJ4NTUBb
qbPBrFOiQMAfokA5tr/BDhECQTCVX0Cr86XBgLHpQP3rlr8IIrzBeDPMQKUULcBxXK7BZJHiQJA0
oz+jI7rB96KZQBsfLj+cJp3BYepCQAumjb8EapvBkiTYQMOaUsAy35vB+0s8QNm2UUB0m6PBA5jc
QD2CP0CdBpXBKdZfQNrdlMBPs4nBLaiGQPXvZEBJk37BpNy0QIhDIkBFL4HBOaO5QNlCikBkO4LB
QE3vQCnVvUBHyr7Bioz7QJdjxUDL4LDBafcNQYJZokBs5LjBtdOEQB4VNUDV8rXBT8aDQOkZnkAv
3sHBZouzQJXouUBu5MLBwsLZQNxdRb81OLXBTifIQL9/0b/+iq3BIG/VQA4VHz/wH7TBdqOrQDvg
jj7x0aPB4Gi3QCvKSsAIPJnBxKBpQClp+L9G6pjBGnBvQM8tUUD9xp3BGuq6QOu2R0D0hpbBSP96
QJt0esBoCY/B7PKwQKWsj79eyqTBXgKfQJZEBMD2ypzB5wy/QAL+lT9CXavBoPKlQG+4RUChH6DB
kgjlQBmXXkDx7avBZQe1QIljhkDLbLjBQpi6QKt8LUDYnarB1s6kQN+lW0ByxYPBJ/r6QP6qrkDt
WLfBNX+mQJ4egsBgXJLB8jRJQNnYN8ALL5LBzklmQDsoW0AkY5PBuVebQHP5VkCrSY/BhgrfQGwX
ikAbqbTBpwShQHE+TUCCpbPBSgajQJXcoEDoF8DBfiACQcm8XkA9+6XBJLvqQEfAlr+fAbzBNGzM
QMwILcABWq7B+V/jQNBeoz+WC7rBHsSYQDLYLT/1U53BrdvXQETZUsBOCJzBBs1CQNa1jL/1UZvB
Cmg8QFJNUUDNmqPBtbDcQDgpP0C4CpXBCjRgQDvElMCBq4nBosWGQEPUYkDuin7B/Bm1QEKhIECd
PIHBs6O5QBR9iUDnMYLBDAnvQJtpvkA7ob7Bbu76QCyvxUBzsLDBJ+QNQf0mo0DkuLjBComEQLb3
NUAg2LXB0aiEQLR4nEDfXcLBOWW0QKxbuEDJWsPB

> <OMEGA_E>
QN9MPzzxTD8=

> <OMEGA_NBR>
     67589

$$$$
50176704
  -OEChem-04172616093D

 53 56  0     1  0  0  0  0  0999 V2000
    6.7912   -0.3606  -22.3522 C   0  0  0  0  0  0  0  0  0  0  0  0
    6.2528   -1.3924  -21.5660 C   0  0  0  0  0  0  0  0  0  0  0  0
    6.5334    0.9803  -22.0217 C   0  0  0  0  0  0  0  0  0  0  0  0
    5.1498    0.2594  -20.1492 C   0  0  0  0  0  0  0  0  0  0  0  0
    5.7199   -3.1912  -19.1673 C   0  0  0  0  0  0  0  0  0  0  0  0
    3.5666   -2.0869  -19.1422 C   0  0  0  0  0  0  0  0  0  0  0  0
    5.0434    3.9483  -22.7683 C   0  0  0  0  0  0  0  0  0  0  0  0
    7.0389    4.3282  -21.7063 C   0  0  0  0  0  0  0  0  0  0  0  0
    3.9384   -4.0380  -17.9151 C   0  0  0  0  0  0  0  0  0  0  0  0
    5.4298   -1.0802  -20.4636 C   0  0  0  0  0  0  0  0  0  0  0  0
    4.8972   -2.1363  -19.6020 C   0  0  0  0  0  0  0  0  0  0  0  0
    5.6992    1.3020  -20.9155 C   0  0  0  0  0  0  0  0  0  0  0  0
    5.8388    3.7024  -21.5430 C   0  0  0  0  0  0  0  0  0  0  0  0
    6.2513    2.9909  -19.1621 C   0  0  0  0  0  0  0  0  0  0  0  0
    4.0405    3.4654  -18.8590 C   0  0  0  0  0  0  0  0  0  0  0  0
    5.4838    2.7399  -20.4491 C   0  0  2  0  0  0  0  0  0  0  0  0
    7.0409    8.2288  -23.6188 C   0  0  0  0  0  0  0  0  0  0  0  0
    5.5632    3.7014  -16.8476 C   0  0  0  0  0  0  0  0  0  0  0  0
    7.7143    7.6087  -22.3838 C   0  0  0  0  0  0  0  0  0  0  0  0
    8.7521    6.5316  -22.7798 C   0  0  0  0  0  0  0  0  0  0  0  0
    8.1433    5.4060  -23.6423 C   0  0  0  0  0  0  0  0  0  0  0  0
    5.2301   -4.1221  -18.3230 N   0  0  0  0  0  0  0  0  0  0  0  0
    3.1046   -3.0444  -18.3130 N   0  0  0  0  0  0  0  0  0  0  0  0
    5.7839    4.6263  -23.6132 N   0  0  0  0  0  0  0  0  0  0  0  0
    6.9654    4.8214  -22.9776 N   0  0  0  0  0  0  0  0  0  0  0  0
    5.2763    3.2737  -18.2215 N   0  0  0  0  0  0  0  0  0  0  0  0
    4.0878    2.9768  -20.0754 N   0  3  0  0  0  0  0  0  0  0  0  0
    2.9146    4.0495  -18.3018 N   0  0  0  0  0  0  0  0  0  0  0  0
    7.4586    2.8870  -18.9712 O   0  0  0  0  0  0  0  0  0  0  0  0
    7.4028   -0.5979  -23.2101 H   0  0  0  0  0  0  0  0  0  0  0  0
    6.4685   -2.4233  -21.8050 H   0  0  0  0  0  0  0  0  0  0  0  0
    6.9716    1.7720  -22.6114 H   0  0  0  0  0  0  0  0  0  0  0  0
    4.5074    0.4905  -19.3123 H   0  0  0  0  0  0  0  0  0  0  0  0
    6.7424   -3.2557  -19.5090 H   0  0  0  0  0  0  0  0  0  0  0  0
    2.9169   -1.2823  -19.4537 H   0  0  0  0  0  0  0  0  0  0  0  0
    4.0271    3.6246  -22.9375 H   0  0  0  0  0  0  0  0  0  0  0  0
    7.8518    4.4134  -21.0004 H   0  0  0  0  0  0  0  0  0  0  0  0
    3.5579   -4.7945  -17.2449 H   0  0  0  0  0  0  0  0  0  0  0  0
    6.3121    8.9875  -23.2975 H   0  0  0  0  0  0  0  0  0  0  0  0
    7.8046    8.7003  -24.2548 H   0  0  0  0  0  0  0  0  0  0  0  0
    6.5242    7.4422  -24.1883 H   0  0  0  0  0  0  0  0  0  0  0  0
    4.6181    3.8605  -16.3077 H   0  0  0  0  0  0  0  0  0  0  0  0
    6.1508    2.9243  -16.3369 H   0  0  0  0  0  0  0  0  0  0  0  0
    6.1362    4.6402  -16.8680 H   0  0  0  0  0  0  0  0  0  0  0  0
    8.2230    8.4032  -21.8182 H   0  0  0  0  0  0  0  0  0  0  0  0
    6.9426    7.1451  -21.7517 H   0  0  0  0  0  0  0  0  0  0  0  0
    9.5598    7.0140  -23.3498 H   0  0  0  0  0  0  0  0  0  0  0  0
    9.1656    6.0873  -21.8624 H   0  0  0  0  0  0  0  0  0  0  0  0
    7.8406    5.8200  -24.6155 H   0  0  0  0  0  0  0  0  0  0  0  0
    8.8979    4.6207  -23.7967 H   0  0  0  0  0  0  0  0  0  0  0  0
    3.2946    2.7946  -20.6566 H   0  0  0  0  0  0  0  0  0  0  0  0
    2.0710    4.1174  -18.8345 H   0  0  0  0  0  0  0  0  0  0  0  0
    2.9455    4.4031  -17.3670 H   0  0  0  0  0  0  0  0  0  0  0  0
  1  2  1  0  0  0  0
  1  3  2  0  0  0  0
  2 10  2  0  0  0  0
  3 12  1  0  0  0  0
  4 10  1  0  0  0  0
  4 12  2  0  0  0  0
  5 11  1  0  0  0  0
  5 22  2  0  0  0  0
  6 11  2  0  0  0  0
  6 23  1  0  0  0  0
  7 13  1  0  0  0  0
  7 24  2  0  0  0  0
  8 13  2  0  0  0  0
  8 25  1  0  0  0  0
  9 22  1  0  0  0  0
  9 23  2  0  0  0  0
 10 11  1  0  0  0  0
 12 16  1  0  0  0  0
 13 16  1  0  0  0  0
 14 16  1  0  0  0  0
 14 26  1  0  0  0  0
 14 29  2  0  0  0  0
 15 26  1  0  0  0  0
 15 27  2  0  0  0  0
 15 28  1  0  0  0  0
 16 27  1  0  0  0  0
 17 19  1  0  0  0  0
 18 26  1  0  0  0  0
 19 20  1  0  0  0  0
 20 21  1  0  0  0  0
 21 25  1  0  0  0  0
 24 25  1  0  0  0  0
  1 30  1  0  0  0  0
  2 31  1  0  0  0  0
  3 32  1  0  0  0  0
  4 33  1  0  0  0  0
  5 34  1  0  0  0  0
  6 35  1  0  0  0  0
  7 36  1  0  0  0  0
  8 37  1  0  0  0  0
  9 38  1  0  0  0  0
 17 39  1  0  0  0  0
 17 40  1  0  0  0  0
 17 41  1  0  0  0  0
 18 42  1  0  0  0  0
 18 43  1  0  0  0  0
 18 44  1  0  0  0  0
 19 45  1  0  0  0  0
 19 46  1  0  0  0  0
 20 47  1  0  0  0  0
 20 48  1  0  0  0  0
 21 49  1  0  0  0  0
 21 50  1  0  0  0  0
 27 51  1  0  0  0  0
 28 52  1  0  0  0  0
 28 53  1  0  0  0  0
M  CHG  1  27   1
M  END
> <OMEGA_C>
NFHZQCGkuL420bLB+hbIQG45sr8rh6zB+hHRQPT1ej9uLLDB/cqkQKzShD6BMaHBqwm3QDg9TMCJ
VpnB8ENkQBWPBcBBI5nB62OhQLKwfECBJbbBzD7hQLGAikB+pq3Bgg98QAg3gcAhUo/B4MCtQI5C
ir9ttaPBmbWcQKm5CMDr0JzBnV+2QHippj/jUqfBj9e6QED0bEAOWKzBWwrIQCNqP0DkS5nBKkyB
QG3JXUBU35bBFHuvQBdbL0C1l6PB7E7hQDOpA0FW87zBxQWyQNrjbEDcx4bB3dv2QBV680AAErPB
lAgMQcgC0UD5PLbB4koCQRD+rEB/I73Bw1ynQN/ng8CQlZLBurFGQDLXQsAXgZLBqRW5QOAKlEDi
57zBM+TeQMxImkAZ0rfBxteoQIWEUUCTxZHB6c6CQBiEPkBhmqDBNok6QDuVgUAnapLBA63uQFfE
OEALxZfBu+PsQNoMGb87rrnBUf7OQKQWG8C9cK7BQhffQJTP4j8b5LTB/DyQQHcd+z6Af5rBzsHX
QINdUMBoEpzBL686QJcjpL8yoZvB4N2AQND4Z0Dqf7fBVkL7QI06jUDTAKjBCLVjQLtsmcB49YnB
lfzJQMrMD0FLYbrBO7/5QIo0C0G9CcLBMcbQQLEm7kCkgcHBw8eTQJISd0ASdoLBDdPEQO8mO0D3
sYLBsVvEQDt8lEC28YbBaJEDQYpzBkGTi67BxSneQLGk5EB6A67B0vQYQWty4EB2zLrBN6YSQR3L
wkAh5q7BVOb6QNQ9ukB07MTB5l0OQe3ck0CfX77Ba9tSQGXaMkCeQKXBxIsEQNLBg0ANrZbBLYM8
QDPmjECI74rBztjbQC23q745t7LBYKjJQHSjsL84vazBt63TQI5yfz/G1q/BBJSlQADJfD5sU6HB
UEu3QF3GS8AFmZnBwwFlQCqFBMCNnpnBbl6hQI8EckAnGLbBSM7eQLs/jEDSN63Bwd97QAILgMB2
jI/B4pyuQC6Rir9BBKTB1h+dQFC7CMCnP53BT8W3QPcApj9cJqfBoUC6QLomakCYEazBK0jIQIw9
P0ANA5nB47eBQMb5YEBz5ZbB1uGvQF7dLUCTRaPBurYUQeF1BkHm1bnBfESyQOq0dUBn4YbBtDH5
QKWoBkEjNLzB5BPjQPv35kC9IrfB8Pj2QDwGvUAyI7vBMVunQP4Wg8BFu5LBdu1GQOenQMC/4JLB
f4S3QIwzkECbzrzB0T3bQKRwm0B+YLfBTBSpQLm+VUAdq5HBzxWDQOh6PEBQVqDBZfs7QOf7hEAu
ypLBqMHuQLinNkDVY5fBJwvwQImADr/rf7nBTljQQEQTGsC7z67BoqPiQJuM5j8qPbTBIG+QQLvr
7D6gtprB7Q7YQNV/UMBRSJzB19A7QCtAor9cPZzB50yCQP8/VkAumrfBXD34QItPkUC/gafBDAlj
QPDql8DAIIrBAkocQSR3FEHJlb3BBEcXQcQFB0FJIrHBC9kbQS9+70ADF73B9weUQHpogUD6roLB
2pHEQClHRUCZbILBfxvFQLqAmECYcIfB9inrQDFwFUF49bjBAk70QIQpBkEx6sTBFInmQHbK6EDe
Y67B4enAQEqG50AUQLnBnoL4QJvSvEDP7cPBR64LQQ4BuUBo17fBilxTQEcfLUCMzqTBPSYGQIp/
hkCLGZfBEEA+QLZCkkAuhIvBvL/YQM1Mtb6+6LLB6QPHQG18sb8et6zByzTRQNGbfD8yIbDBsGmk
QH6xhz5TPqHBsL62QC66S8Dff5nBgnBjQHaUBcBbIJnBX2KiQArueEBhPrbBHofgQP75jEB6X63B
zpN8QGIqgcAZVI/Bi+WsQPOZib9F2qPBQiCcQHqACMDT7ZzBDIG2QNh4pz/eR6fBIjW7QOZjbUBP
QqzBXTvIQEjYP0AMMpnBYFWBQGV3XUDT0JbBN9+vQDXML0B5gqPBZ67/QBhC/0C8h6/BetexQNA8
bUCgs4bBvpLjQE8K+UAxhbnBP2/4QKmI2kC1v8HBhPwBQfu1rkAz9rzBKHynQKq0g8D4s5LB2LdG
QBTpQsDVb5LBrp65QOvAkkCx9bzB9JHeQP1Qm0AdrbfBcuCoQO2pUUCdsZHBJCeDQAwSP0AalaDB
P/85QFzNgECRWZLB0+fuQP41OkA3q5fBLirsQDswF79IzbnBOV3NQDi9GsDzu67BFcffQFeh4z/2
vbTBudePQDrx/T4JjZrBsl/XQLqJT8CZTpzBqXE5QGCIpL/dkJvBo5CCQAu+YECbvLfB3nz5QDgF
kkATiKfBp9pkQEJtmcDh74nB8ZTvQDuPCkHc7anBKm8CQRAo4EBZnqvBEVkPQe53BkH85rHBooST
QBgcd0AaaILBsLzEQFHBO0A8mILBYgHEQIXDlEAk3IbBj5jEQMyS60BTC7fBXmzeQEwtDEH2U73B
OufhQK+X1UBjZcjByOsKQUyQ6UA1y8TB74AHQdlnmUCUZsPB3dwOQbvcskCSDbfBBdFTQK4HNEAM
TaXB4hoEQMvSgkCdopbBzHA7QG7Si0Bk14rBHnnIQCDk0L7cW7XB7CG7QBrCt7+mcq7BKmnCQGHG
bz9qcbLBEs+eQITMZj5cDqLBNtO2QET+TMDWqprBCo1mQKy6BcCwepfBYpTrQCm+hEDEuKvBq56s
QDrjhECcMrXB/DqGQItxgMBMB47ByC2mQDTSjr9Ux6TBPk+aQCIVCsBaGJ3BKO6tQGeXoT8qoKjB
Mpa+QHena0BS8avB5LbCQHkRMUDCqJnB/Zl8QOxjYkAgyJfB/nGrQM35K0AiSqTBjqyhQFFz/ECm
W7zBxu2wQAgTdUC0DojBZqXSQIAa90DkO7zB2FHiQB3/10CgEcXBEmLLQNUjrEAi08TB8nKsQMuR
g8DgH5PBSmpTQF6JQcD+FJDBno3zQPAXmUCgmbTBFDvOQOZPmUAQErrB7lClQGFgUkAKk5LBsah+
QHbBQ0B2lKHB/k82QAIvhUA0OpPB2H3nQHe+GkDap5fBjWDXQHq9Jr856LzBPujAQOzzHcCgiLDB
UVnNQMPG3D+9rbfBhFqNQCjw7D5Q2JrBoP7UQMjMUcC51p7BKwg6QGnxpL/NGZnB/wIBQfE2f0A8
R6XBVhCMQDaFgUDg+LfBg1t8QEoxmMBMFYjBcgaYQHZaCUE2+7XBRJeXQDyjBEHjJ8TBJGiSQOYu
3UAgB7vBRO+TQIXOhUBn8IPB1E/AQHjCQkB0QIPB4EHHQNVtlUDxGInBX5DhQBJJC0EghL3BP2Hc
QJN66kBcY7TB0ZbcQF3p5kD36MzB3GsCQWGn0kAo/cPB6YWpQLqGsEAS98bBH6XaQI+ClkD1n8rB
eBFMQLWiPUB0a6bBGHIAQNG8iEB4dJfBaXU5QKoNkECctovB

> <OMEGA_E>
cPYuPqBrTj5QaSw+yNn6Pg==

> <OMEGA_NBR>
     71431

$$$$
50176705
  -OEChem-04172616093D

 48 51  0     1  0  0  0  0  0999 V2000
    6.6470   -0.3970  -22.4319 C   0  0  0  0  0  0  0  0  0  0  0  0
    3.0507   -3.0223  -18.2531 C   0  0  0  0  0  0  0  0  0  0  0  0
    6.1182   -1.4069  -21.6111 C   0  0  0  0  0  0  0  0  0  0  0  0
    3.5343   -2.0282  -19.1140 C   0  0  0  0  0  0  0  0  0  0  0  0
    6.4660    0.9541  -22.0901 C   0  0  0  0  0  0  0  0  0  0  0  0
    5.1914    0.2855  -20.1220 C   0  0  0  0  0  0  0  0  0  0  0  0
    3.9167   -4.0542  -17.8394 C   0  0  0  0  0  0  0  0  0  0  0  0
    5.1387    3.9392  -22.8244 C   0  0  0  0  0  0  0  0  0  0  0  0
    7.0640    4.4722  -21.6955 C   0  0  0  0  0  0  0  0  0  0  0  0
    5.4004   -1.0646  -20.4455 C   0  0  0  0  0  0  0  0  0  0  0  0
    4.8709   -2.1021  -19.5513 C   0  0  0  0  0  0  0  0  0  0  0  0
    5.7178    1.3071  -20.9359 C   0  0  0  0  0  0  0  0  0  0  0  0
    5.9226    3.7238  -21.5857 C   0  0  0  0  0  0  0  0  0  0  0  0
    5.6934   -3.1583  -19.0863 C   0  0  0  0  0  0  0  0  0  0  0  0
    6.2875    2.9961  -19.1937 C   0  0  0  0  0  0  0  0  0  0  0  0
    4.0531    3.3898  -18.8860 C   0  0  0  0  0  0  0  0  0  0  0  0
    5.5407    2.7573  -20.4918 C   0  0  2  0  0  0  0  0  0  0  0  0
    5.5615    3.6295  -16.8640 C   0  0  0  0  0  0  0  0  0  0  0  0
    7.9530    5.9868  -23.4638 C   0  0  0  0  0  0  0  0  0  0  0  0
    7.5722    7.4228  -23.0782 C   0  0  0  0  0  0  0  0  0  0  0  0
    5.2070   -4.1055  -18.2498 N   0  0  0  0  0  0  0  0  0  0  0  0
    5.8155    4.7382  -23.6135 N   0  0  0  0  0  0  0  0  0  0  0  0
    6.9531    5.0374  -22.9383 N   0  0  0  0  0  0  0  0  0  0  0  0
    5.2984    3.2423  -18.2546 N   0  0  0  0  0  0  0  0  0  0  0  0
    4.1403    3.0114  -20.1388 N   0  3  0  0  0  0  0  0  0  0  0  0
    2.8833    3.8343  -18.2901 N   0  0  0  0  0  0  0  0  0  0  0  0
    7.4924    2.8847  -18.9935 O   0  0  0  0  0  0  0  0  0  0  0  0
    7.0039   -3.2080  -19.4276 F   0  0  0  0  0  0  0  0  0  0  0  0
    6.3326    7.7259  -23.5497 F   0  0  0  0  0  0  0  0  0  0  0  0
    7.1930   -0.6590  -23.3262 H   0  0  0  0  0  0  0  0  0  0  0  0
    2.0267   -2.9980  -17.9107 H   0  0  0  0  0  0  0  0  0  0  0  0
    6.2610   -2.4452  -21.8721 H   0  0  0  0  0  0  0  0  0  0  0  0
    2.8940   -1.2204  -19.4363 H   0  0  0  0  0  0  0  0  0  0  0  0
    6.8978    1.7274  -22.7081 H   0  0  0  0  0  0  0  0  0  0  0  0
    4.6218    0.5429  -19.2412 H   0  0  0  0  0  0  0  0  0  0  0  0
    3.5429   -4.8228  -17.1792 H   0  0  0  0  0  0  0  0  0  0  0  0
    4.1717    3.5099  -23.0411 H   0  0  0  0  0  0  0  0  0  0  0  0
    7.8603    4.5888  -20.9753 H   0  0  0  0  0  0  0  0  0  0  0  0
    4.6073    3.7635  -16.3334 H   0  0  0  0  0  0  0  0  0  0  0  0
    6.1487    2.8420  -16.3691 H   0  0  0  0  0  0  0  0  0  0  0  0
    6.1260    4.5735  -16.8469 H   0  0  0  0  0  0  0  0  0  0  0  0
    7.9931    5.9031  -24.5598 H   0  0  0  0  0  0  0  0  0  0  0  0
    8.9398    5.7465  -23.0413 H   0  0  0  0  0  0  0  0  0  0  0  0
    7.5766    7.5175  -21.9823 H   0  0  0  0  0  0  0  0  0  0  0  0
    8.3049    8.1207  -23.5096 H   0  0  0  0  0  0  0  0  0  0  0  0
    3.3649    2.9108  -20.7623 H   0  0  0  0  0  0  0  0  0  0  0  0
    2.0376    3.8806  -18.8217 H   0  0  0  0  0  0  0  0  0  0  0  0
    2.8850    4.1087  -17.3285 H   0  0  0  0  0  0  0  0  0  0  0  0
  1  3  1  0  0  0  0
  1  5  2  0  0  0  0
  2  4  2  0  0  0  0
  2  7  1  0  0  0  0
  3 10  2  0  0  0  0
  4 11  1  0  0  0  0
  5 12  1  0  0  0  0
  6 10  1  0  0  0  0
  6 12  2  0  0  0  0
  7 21  2  0  0  0  0
  8 13  1  0  0  0  0
  8 22  2  0  0  0  0
  9 13  2  0  0  0  0
  9 23  1  0  0  0  0
 10 11  1  0  0  0  0
 11 14  2  0  0  0  0
 12 17  1  0  0  0  0
 13 17  1  0  0  0  0
 14 21  1  0  0  0  0
 14 28  1  0  0  0  0
 15 17  1  0  0  0  0
 15 24  1  0  0  0  0
 15 27  2  0  0  0  0
 16 24  1  0  0  0  0
 16 25  2  0  0  0  0
 16 26  1  0  0  0  0
 17 25  1  0  0  0  0
 18 24  1  0  0  0  0
 19 20  1  0  0  0  0
 19 23  1  0  0  0  0
 20 29  1  0  0  0  0
 22 23  1  0  0  0  0
  1 30  1  0  0  0  0
  2 31  1  0  0  0  0
  3 32  1  0  0  0  0
  4 33  1  0  0  0  0
  5 34  1  0  0  0  0
  6 35  1  0  0  0  0
  7 36  1  0  0  0  0
  8 37  1  0  0  0  0
  9 38  1  0  0  0  0
 18 39  1  0  0  0  0
 18 40  1  0  0  0  0
 18 41  1  0  0  0  0
 19 42  1  0  0  0  0
 19 43  1  0  0  0  0
 20 44  1  0  0  0  0
 20 45  1  0  0  0  0
 25 46  1  0  0  0  0
 26 47  1  0  0  0  0
 26 48  1  0  0  0  0
M  CHG  1  25   1
M  END
> <OMEGA_C>
hLTUQOdIy76ZdLPBvT5DQFdtQcBdBpLBasjDQNsWtL+I46zBbTJiQLjNAcCL6ZjBVunOQOw+dD+R
uLDB0R+mQKUskj7Q+aDBcqt6QOa7gcAht47BRnCkQEYbfEBcmLbBDwziQC0cj0BlkK3BC9CsQDJD
iL9QkKPBht6bQHqIBsD/aJzBWfi2QGhQpz+hfKfBAYa9QGJSbkB1r6zBeDC2QMshSsDXsJjBLzPJ
QMDAP0CljJnBl7KBQB3zWECbFpfBck2xQLp3MEBE76PBdfexQH1KaEB76YbBA3/+QAyUv0DJtbvB
LU/yQOSH7UA/oLjB35+mQBBgg8Ci/5HBbBi6QCifl0CA6LzBK4DeQGoyoUC4gbfBWIypQHuCT0B8
CZLBU32EQFC6QEBYHKHBOIc4QCBldUAcUpLBbMHvQFOfOECi8pfBkR/gQMFPTcC9a5vB76TKQNQ6
90C4ZbzBUi3mQL62KL/6m7rBZbUBQGLfP8AwSY/BHFrIQJh9HMAK+q7BVDc5QDg1nL93fZvB17rc
QNUb3T8uqrXBJuaTQF/4Cj/07ZnBVL5iQGVUmsAIb4nBVn6FQIihYEAWVLjBUof7QL3XkkBmzafB
xG6TQC3dcEC4qoLBGsLEQLTjNUDb84LBfQjEQLhZkkBsxobBnMf/QBDmvECMesTBbQkPQS3jt0CZ
VLjBuHPyQJmP8EDU26/BE+EEQVbuAUGVE7zBQFtXQO9JOkAxGabBTGcCQB1beEDvkpbBVaM4QHl6
g0C6oIrBzT3XQNWs0r6McLPBSNumQKt6g8D3CpLBl8fFQPH9tr/XBq3Bzia3QK2dSsDUQ5nBhrzQ
QH0rcD8yubDBdcimQMi7gD7CPaHB+793QB9TgMAXuI7BgzekQGS7eUCLqrbBsKPgQEgMkECGaq3B
30CtQGI9jL8H8KPB5QmcQETqCMBt5JzB1O63QPnFoz9LnKfBhiy9QJn5bEBCtqzBSuZhQPODBsBV
TJnBBWDJQM+6PUD5mJnB9geCQGBjV0AzMZfBlpSxQJhBLkCZ/6PBWPSxQOl/ZED17obBdf36QCJH
w0AtNrvBEnrpQJyF8EA2RbnBCqZDQILVQcAlX5LBcLq4QB4gmECxx7zBW2zcQLj6okAwP7fBRpup
QHsLTEB8EpLBHJ2EQCTlPEB7IaHBsCY6QNCZd0A5j5LBqAfwQIbDOEBVBZjBWjcrQO3Hk78L+ZzB
yLPjQJBz90BFoa7BjKvpQJSEKr+QdbrBEgS7QBvhnMAZDo/BPCPLQA7SHcCUDq/BU+PXQDF9TsDn
/ZvBEqneQK7W2z94lrXB/26UQG5gAD+9MprBZdBeQHmEl8CFH4nBTSeGQAk6W0C7kbjBZeT5QBNH
lEDznKfBsGeTQMjja0AaqYLB6i7FQKB8MkBNB4PB/YvDQPa6kEA8wobBYQUAQYmJvkDq1sPBEs8M
QaWav0AG+bbBLiwAQccQBEFta7zBVqTKQEcI9EBRbL3BpF1XQLMANEB5BabBCk8EQGu7e0Bt2pbB
k686QPBZhUCl7IrBmRDYQIwL7r6aDLPBCtw/QE5SQcD3Z5LBJxLGQMIPu79uhKzBXB9hQI1oAsC+
OpnBd0fSQFxeZD/CfbDBKXynQMAKgj4r/qDBqPl1QDKogcAkwY7Bj2ynQHomc0ApRLfBd53dQBDC
lECn7qzBdgeuQInLjL+iaKPBptabQHHBB8CUTZzBLUS5QD5eoT+Cf6fBkZG+QDPXa0C+86zB0ni1
QBT9SsAQN5jB0Y3KQCGpPkAVvpnBleyCQGyhV0ADjpfBSj2zQPCVLUAXLKTBnDCyQLCUaEC3O4fB
OezrQNBa00CCtbjBufcMQcJ/ykBfMLzBM8WkQNCEg8CinZHBjy23QKYUmkD0m7zBh+fVQDvQqkA5
NLbBT3WqQF2jTkAHWZLBwDSGQONaPUByfKHBW646QHmSdUD7AJPBERTxQIV7OEBzCZjB6NTfQG1E
TsByfprB690MQfq3sEC578TBIlnqQK7yPb/CCbrBiCD7P5FDP8Cq+Y/BMKXKQBY9IMA5eK7Bxyc5
QNainb+AE5zB3ergQPDk0z/wYrXBy6aUQBvwBj/4FZrBgzZcQKMMmsCljInBVduNQDDVSUBD77nB
pD72QF1dmkAXCafBvWaTQJEQcUAMGoPB4PbEQBXZNkCPI4PBaQPEQC6kkkAMIIfBoSjsQIva50Ay
jrHB1tXaQPXA40AhOL/BQu8UQdng6EBVKb7BLaMVQY+cukAlpLXBZDNbQLY+NUDUf6bBmwoFQK0T
eEBCW5fBqhk6QChVhEBUXovBtmrIQAHkz74W27XBujyvQD6MgcBcbZLBnv67QBG2tr/+wa7Bojy6
QOOfR8AMW5rBAWrCQCSWcT/sCrPBUgCiQFpIfD4TNqLBX3eGQByjfsAho43BvHTsQP9Sg0AoW63B
QEypQO7mjUAnPrTBwyqoQMWIjL8s96TBWDCcQK+tCMDfN53B5sOvQMJEoz9gC6nBdOC+QKO7bUC+
pKzBBihnQIDrB8CnHpjBqvjEQIJoM0CpYJrBxHN+QLwLW0AY45fBde+sQCH0LEAz6KTBF/6xQIyX
akBPJIjBNKy8QKCYz0CTZr7BD3vkQJVk50CElMLBeRpTQK9cQsCsh5DBa0HwQO5ooUAqh7TBIhvI
QAzZqECTNLjB+v6mQANPTUCH9JLBUrOAQKu+QkD59KHBvUg2QNRqe0Bq3JLBMEPqQLeKH0CflJjB
utoqQMSsm79R+JrBUH/8QFaw9kDyUrrBM5TWQPSVKL9Leb3BFcPFQC/qmcA/A5DBrqHBQGqOHcDM
zbDBIS7ZQD4XSsDyMJ7BUQDMQIr23D9LfrjBWH2SQPEa/T7mv5rB4yh8QFQzlsDUgofBWiIDQUOO
a0AUt6jBmBaIQMtyi0DsjbbBGpOUQL2Te0AGzYPBOL7CQLsZN0Ds14PBEurGQNSFkUAWrYjBOFmq
QJBV5UBUNrnBTM6oQJwNxkAdQ8XBv/33QC8x0UAVXMfBGizaQEcpAUGUoMfBKwFPQJOQP0A636bB
UBv/P4LMgEBp75bB3/U4QApLhkBYKYvBldDAQJqX5r7/zLXB9S1WQIDEQ8DaEY/BQOG1QBTZur/a
da7BE2dnQJ7sBcAt5ZbBSG+8QFdAZz+S8LLBjnifQGzWbz7zoqHBmTaKQHk3gcCkyozBXGLsQLTL
gkA2kKzBoHarQFIGiUDU+bTB3UqlQNygjr+oVKTBWiybQHntCMC/UJzB2lKsQLJvoD/Hs6jBbNS+
QMoPa0DqbazBYFy5QAzSSMBahpnBgr/DQKb3MEDGH5rB4NV+QLxwYUDDtJfBomqrQGkdLEBJnqTB
QWazQLv3cEBmMojB0JnFQI9VvUBbq8LBeH3WQDJ+6kDrGcDB7WOwQCb4gcBz7ZHBcZnyQFJlnECf
qrTB0AHMQHqaoEBlcbnB0vmmQAUAUUDrypLBuYN/QJStRUD8pKHB3vs4QM+Xg0BDwpLBSFHoQLxn
GEAmTZjBrrngQIxnScBYEp7B4gMBQUy76kDd0b/B05bMQJb2Nr/RpL3Bdu4ZQHtqQ8DN1YrBLSy6
QJLkH8DKkrDBfP44QP65qb9jvJjBK1jFQAio1j+cirjB1f2QQAKO/D7vEZrBR3mDQKU2mcB6zobB
QD0CQVvKcUCj4qbBCJmKQJJ5hkAmkrfBacOWQNR3g0Ds4IPBuuLCQKxIPUBLpYPBjt/JQAlSk0DW
H4nBHD6jQN40v0AzhsTBr+7WQFqEsEBToMnB6nHLQHpxAEHOTcbBdw/KQByi9ECmRLjBPmZMQIB3
QkAbcabBDjsCQG9vh0DByZbBcVg9QKBdjUAbKYvB6PHFQCQ+xL5DS7bBVi2xQItAgcDVypLBIy26
QF6ttL+yLq/Bcsq6QN4QR8Dg15rB9eS/QDghdz+1a7PBibSfQB63gD42nqLBpiKJQJB5fsCroI3B
LrbsQDLjiECixarBdNewQBeRikBlYbXBMKSmQDe6i7+cVaXBVh2cQHaKCMC6dJ3BY16tQO4ipT/z
ZqnBBMrAQP6cb0BjRKzBWJ5oQDJLCMDR+ZfBU2HDQKeiLUBkS5rBbZd9QH28XEDC7JfB+husQLGR
LUAR+6TBKNqxQOxVaEC0JojBRkrRQNbjvkAKdsLB3FPLQD0I7kABUL/BVkBXQLWiQsBrRZDBRpH1
QPYao0AqlrLB8HrSQDeTo0Cr2rjBrzWmQPT+S0D49pLBiUmAQGjORkCrF6LBYxA2QFGCfUCdzJLB
Dh/nQP4PEUCtWJjB0gQrQD22nb/Xk5rB2meiQGe49ECcG7zBrKfTQIYtIb/z+b3BSjbIQJJvmcA7
kpDBGBjAQDhfHMBfQ7HBvSfZQKk5ScDl9Z7B113JQFo44D9X2bjBx6WPQKv4+z6vNpvB9s+BQFEa
lsC6aYfBCvkAQQrjgEBUQaTBLZyRQISuhkBA87jBTvSUQMiWfUDl4oPBz6bAQHzpMkBAxoPB2K/I
QJTejkCLsIjBdHq2QDLktED0lcfBiobvQBZau0Ag4cbBmkfhQKz29UC1ubjBl2TSQKJDAUHPPsbB
g6pOQK1BR0ClGafBmjf/P47/gkDB3ZbBPew4QMhUhkDzCIvB

> <OMEGA_E>
sM4TPihbHD4QzzQ+wGPnPrgcAT/wzw0/

> <OMEGA_NBR>
     76665

$$$$
50176665
  -OEChem-04172616093D

 41 44  0     1  0  0  0  0  0999 V2000
    6.9782   -0.9661  -22.6171 C   0  0  0  0  0  0  0  0  0  0  0  0
    6.3747   -1.8007  -21.6575 C   0  0  0  0  0  0  0  0  0  0  0  0
    6.6848    0.4100  -22.6484 C   0  0  0  0  0  0  0  0  0  0  0  0
    6.1332    3.2337  -19.2609 C   0  0  0  0  0  0  0  0  0  0  0  0
    5.1538    0.1099  -20.7760 C   0  0  0  0  0  0  0  0  0  0  0  0
    5.4277   -3.2954  -19.2326 C   0  0  0  0  0  0  0  0  0  0  0  0
    3.5107   -1.8242  -19.2050 C   0  0  0  0  0  0  0  0  0  0  0  0
    5.5731    3.5140  -18.0396 C   0  0  0  0  0  0  0  0  0  0  0  0
    3.8381    2.9951  -19.7928 C   0  0  0  0  0  0  0  0  0  0  0  0
    3.5947   -3.7220  -17.8466 C   0  0  0  0  0  0  0  0  0  0  0  0
    5.4473   -1.2679  -20.7332 C   0  0  0  0  0  0  0  0  0  0  0  0
    4.7901   -2.1352  -19.7213 C   0  0  0  0  0  0  0  0  0  0  0  0
    5.7956    0.9722  -21.7013 C   0  0  0  0  0  0  0  0  0  0  0  0
    5.1210    2.9396  -20.2991 C   0  0  0  0  0  0  0  0  0  0  0  0
    6.5793    3.3296  -22.3160 C   0  0  0  0  0  0  0  0  0  0  0  0
    4.6821    3.5702  -23.5877 C   0  0  0  0  0  0  0  0  0  0  0  0
    5.4604    2.4750  -21.7198 C   0  0  1  0  0  0  0  0  0  0  0  0
    6.7689    4.8083  -24.3563 C   0  0  0  0  0  0  0  0  0  0  0  0
    4.8233   -4.0679  -18.3045 N   0  0  0  0  0  0  0  0  0  0  0  0
    2.9341   -2.6204  -18.2798 N   0  0  0  0  0  0  0  0  0  0  0  0
    6.0065    3.9991  -23.3890 N   0  0  0  0  0  0  0  0  0  0  0  0
    4.3355    2.7202  -22.6428 N   0  3  0  0  0  0  0  0  0  0  0  0
    3.8412    3.9840  -24.6153 N   0  0  0  0  0  0  0  0  0  0  0  0
    7.7510    3.3905  -21.9571 O   0  0  0  0  0  0  0  0  0  0  0  0
    3.8357    3.3999  -18.0983 S   0  0  0  0  0  0  0  0  0  0  0  0
    7.6701   -1.3840  -23.3333 H   0  0  0  0  0  0  0  0  0  0  0  0
    6.6211   -2.8518  -21.6274 H   0  0  0  0  0  0  0  0  0  0  0  0
    7.1400    1.0399  -23.3984 H   0  0  0  0  0  0  0  0  0  0  0  0
    7.1975    3.2283  -19.4442 H   0  0  0  0  0  0  0  0  0  0  0  0
    4.4255    0.5173  -20.0905 H   0  0  0  0  0  0  0  0  0  0  0  0
    6.4051   -3.5670  -19.6030 H   0  0  0  0  0  0  0  0  0  0  0  0
    2.9915   -0.9435  -19.5532 H   0  0  0  0  0  0  0  0  0  0  0  0
    6.1372    3.7723  -17.1555 H   0  0  0  0  0  0  0  0  0  0  0  0
    2.9471    2.8107  -20.3745 H   0  0  0  0  0  0  0  0  0  0  0  0
    3.1227   -4.3503  -17.1057 H   0  0  0  0  0  0  0  0  0  0  0  0
    6.0819    5.2294  -25.1050 H   0  0  0  0  0  0  0  0  0  0  0  0
    7.2805    5.6260  -23.8274 H   0  0  0  0  0  0  0  0  0  0  0  0
    7.5140    4.1737  -24.8584 H   0  0  0  0  0  0  0  0  0  0  0  0
    3.4325    2.2983  -22.5620 H   0  0  0  0  0  0  0  0  0  0  0  0
    2.9067    3.6323  -24.6690 H   0  0  0  0  0  0  0  0  0  0  0  0
    4.1712    4.6334  -25.3006 H   0  0  0  0  0  0  0  0  0  0  0  0
  1  2  1  0  0  0  0
  1  3  2  0  0  0  0
  2 11  2  0  0  0  0
  3 13  1  0  0  0  0
  4  8  2  0  0  0  0
  4 14  1  0  0  0  0
  5 11  1  0  0  0  0
  5 13  2  0  0  0  0
  6 12  1  0  0  0  0
  6 19  2  0  0  0  0
  7 12  2  0  0  0  0
  7 20  1  0  0  0  0
  8 25  1  0  0  0  0
  9 14  2  0  0  0  0
  9 25  1  0  0  0  0
 10 19  1  0  0  0  0
 10 20  2  0  0  0  0
 11 12  1  0  0  0  0
 13 17  1  0  0  0  0
 14 17  1  0  0  0  0
 15 17  1  0  0  0  0
 15 21  1  0  0  0  0
 15 24  2  0  0  0  0
 16 21  1  0  0  0  0
 16 22  2  0  0  0  0
 16 23  1  0  0  0  0
 17 22  1  0  0  0  0
 18 21  1  0  0  0  0
  1 26  1  0  0  0  0
  2 27  1  0  0  0  0
  3 28  1  0  0  0  0
  4 29  1  0  0  0  0
  5 30  1  0  0  0  0
  6 31  1  0  0  0  0
  7 32  1  0  0  0  0
  8 33  1  0  0  0  0
  9 34  1  0  0  0  0
 10 35  1  0  0  0  0
 18 36  1  0  0  0  0
 18 37  1  0  0  0  0
 18 38  1  0  0  0  0
 22 39  1  0  0  0  0
 23 40  1  0  0  0  0
 23 41  1  0  0  0  0
M  CHG  1  22   1
M  END
> <OMEGA_C>
J03fQDRPd7/i77TBjv3LQHV85r+XQq3Bo+nVQKXt0T4GMLXBOkPEQJ30TkBIFprBJeykQHQh4T1J
NabByq+tQAjnUsBL3JnBZK9gQP596b/Ao5nBO1eyQPrlYEALUZDBCqR1QAOwP0C0V57B3w5mQJI0
bsDDxY7Bq1CuQNxLor9/3aXBqkiZQHanCMBOxZ3BsHW5QB7ieD9HnK3B9t6jQMIhPECcZKLB74nS
QCwYVUA3h7LBKdSVQM19ZECQs7zBg7uuQE1mHkAPwq3BMJvYQPLdmUCl2cLBmliaQJ8sgsCTb5LB
pcc7QN60J8ACPZLBlDXAQAvyf0CoHLvBebyKQN4XLkBpJLXBlNZ1QHX6fkA87MTBcwj4QNT9WEAo
qK/BUHt1QBSYWUBpyZDBvXH1QAMosb+QqrrBF+DTQDODNsDuBK3B/XrkQAUahT/2L7vBIlLmQD2d
TkCpjZvB6J2NQOhwBD9EuaDBw/bMQC5KZMAI05zB8nM/QNuKcb/sbJzB3mPEQOZscUB6PonB05w8
QO/hM0AI/6LB29pHQOc1i8CI2IjBhp7CQAhXp0AZ18jB5fnoQIUItECSnr7BxHLwQOeOhUDv3cbB
Ta1bQCcYE0DufrTB6gY6QCR3aEAbWsXBO3qFQG5ElECPZ8rBTAfcQBwXb7/+nLXBHoLJQDxC47+C
3a3BmEHTQF+G5D6umbXBHIR2QHHvPUBX8ZzBYnikQEApDT7SM6bBFHqtQOPsUsA7YZrBG9NhQCgp
5r9YZJnBfNR4QFuiUUC9PpLBGNbFQDVeUUCLm5rBbKdoQJoGbsBizY7BaDytQMlRn7+gIKbBsAyZ
QI2aB8BQ8p3B0EC4QJvKgD94r63B7EqmQC+MPUB36qHBykrSQH/MVkBQi7LBjPuTQOUTakCN/bvB
2r6uQA0iIUCDdq3BMFfWQE7lm0AkscLBluaaQI9lgsCS4JLB/2o+QCx7JsCn7JHBgty+QODXgUAT
0LrBuo6JQP3xM0ATWLTB/w1wQDkOg0BE6cPBZkX4QCUGWUBMErDBrI+wQEFuZUAS+o3BnRbxQCzI
rL/7mbvB0+zQQG0jNcAZ1a3BnDDhQE5yij9CqLvBY0Q8QOg0MEAURKHBYjuOQHVVCz9xcaDBFyjM
QLnMZMCvq53Bx55AQMiPZ7/Q55vBPy5BQGZ+VEALIo3BG4vnQGcbVED5e5zBGadLQMFLi8DC0YjB
Y5G/QK09qkAOXcjBMPLnQO5qtUCXhr7BxAztQKh6h0CVEcfBCb5YQID3GkCtVrPBLaQzQKcCcUAG
CcTBnSOCQHSul0AUe8nB

> <OMEGA_E>
bgBqPxKmZz8=

> <OMEGA_NBR>
      1735

$$$$
50176485
  -OEChem-04172616093D

 42 45  0     1  0  0  0  0  0999 V2000
    7.0636   -0.8825  -22.6048 C   0  0  0  0  0  0  0  0  0  0  0  0
    2.8327   -2.4879  -18.3812 C   0  0  0  0  0  0  0  0  0  0  0  0
    6.4018   -1.7058  -21.6748 C   0  0  0  0  0  0  0  0  0  0  0  0
    3.4669   -1.6541  -19.3150 C   0  0  0  0  0  0  0  0  0  0  0  0
    6.8235    0.5039  -22.6246 C   0  0  0  0  0  0  0  0  0  0  0  0
    3.9319    3.1023  -19.7416 C   0  0  0  0  0  0  0  0  0  0  0  0
    5.2350    0.2392  -20.7963 C   0  0  0  0  0  0  0  0  0  0  0  0
    3.4921   -3.6517  -17.9377 C   0  0  0  0  0  0  0  0  0  0  0  0
    5.3505   -3.1911  -19.2936 C   0  0  0  0  0  0  0  0  0  0  0  0
    3.8846    3.4153  -18.4059 C   0  0  0  0  0  0  0  0  0  0  0  0
    6.2439    3.3541  -19.2934 C   0  0  0  0  0  0  0  0  0  0  0  0
    5.4712   -1.1498  -20.7675 C   0  0  0  0  0  0  0  0  0  0  0  0
    4.7535   -2.0051  -19.7866 C   0  0  0  0  0  0  0  0  0  0  0  0
    5.9313    1.0879  -21.6934 C   0  0  0  0  0  0  0  0  0  0  0  0
    5.3153    3.0630  -20.2707 C   0  0  0  0  0  0  0  0  0  0  0  0
    6.8355    3.4154  -22.2533 C   0  0  0  0  0  0  0  0  0  0  0  0
    4.9794    3.7523  -23.5641 C   0  0  0  0  0  0  0  0  0  0  0  0
    5.6663    2.6053  -21.6912 C   0  0  1  0  0  0  0  0  0  0  0  0
    7.1319    4.9145  -24.2658 C   0  0  0  0  0  0  0  0  0  0  0  0
    4.7242   -3.9841  -18.3920 N   0  0  0  0  0  0  0  0  0  0  0  0
    6.3151    4.1237  -23.3287 N   0  0  0  0  0  0  0  0  0  0  0  0
    4.5713    2.9195  -22.6288 N   0  3  0  0  0  0  0  0  0  0  0  0
    4.1840    4.2035  -24.6125 N   0  0  0  0  0  0  0  0  0  0  0  0
    7.9994    3.4251  -21.8653 O   0  0  0  0  0  0  0  0  0  0  0  0
    5.4811    3.6902  -17.7643 S   0  0  0  0  0  0  0  0  0  0  0  0
    7.7595   -1.3171  -23.3070 H   0  0  0  0  0  0  0  0  0  0  0  0
    1.8505   -2.2405  -18.0066 H   0  0  0  0  0  0  0  0  0  0  0  0
    6.6057   -2.7662  -21.6542 H   0  0  0  0  0  0  0  0  0  0  0  0
    2.9796   -0.7575  -19.6686 H   0  0  0  0  0  0  0  0  0  0  0  0
    7.3222    1.1253  -23.3536 H   0  0  0  0  0  0  0  0  0  0  0  0
    3.0558    2.9060  -20.3417 H   0  0  0  0  0  0  0  0  0  0  0  0
    4.5085    0.6661  -20.1208 H   0  0  0  0  0  0  0  0  0  0  0  0
    3.0039   -4.2933  -17.2191 H   0  0  0  0  0  0  0  0  0  0  0  0
    6.3322   -3.4707  -19.6465 H   0  0  0  0  0  0  0  0  0  0  0  0
    2.9751    3.4826  -17.8274 H   0  0  0  0  0  0  0  0  0  0  0  0
    7.3114    3.3716  -19.4562 H   0  0  0  0  0  0  0  0  0  0  0  0
    6.4800    5.3744  -25.0231 H   0  0  0  0  0  0  0  0  0  0  0  0
    7.6642    5.7026  -23.7130 H   0  0  0  0  0  0  0  0  0  0  0  0
    7.8617    4.2570  -24.7609 H   0  0  0  0  0  0  0  0  0  0  0  0
    3.6444    2.5501  -22.5630 H   0  0  0  0  0  0  0  0  0  0  0  0
    3.2361    3.8944  -24.6898 H   0  0  0  0  0  0  0  0  0  0  0  0
    4.5601    4.8368  -25.2888 H   0  0  0  0  0  0  0  0  0  0  0  0
  1  3  1  0  0  0  0
  1  5  2  0  0  0  0
  2  4  2  0  0  0  0
  2  8  1  0  0  0  0
  3 12  2  0  0  0  0
  4 13  1  0  0  0  0
  5 14  1  0  0  0  0
  6 10  2  0  0  0  0
  6 15  1  0  0  0  0
  7 12  1  0  0  0  0
  7 14  2  0  0  0  0
  8 20  2  0  0  0  0
  9 13  2  0  0  0  0
  9 20  1  0  0  0  0
 10 25  1  0  0  0  0
 11 15  2  0  0  0  0
 11 25  1  0  0  0  0
 12 13  1  0  0  0  0
 14 18  1  0  0  0  0
 15 18  1  0  0  0  0
 16 18  1  0  0  0  0
 16 21  1  0  0  0  0
 16 24  2  0  0  0  0
 17 21  1  0  0  0  0
 17 22  2  0  0  0  0
 17 23  1  0  0  0  0
 18 22  1  0  0  0  0
 19 21  1  0  0  0  0
  1 26  1  0  0  0  0
  2 27  1  0  0  0  0
  3 28  1  0  0  0  0
  4 29  1  0  0  0  0
  5 30  1  0  0  0  0
  6 31  1  0  0  0  0
  7 32  1  0  0  0  0
  8 33  1  0  0  0  0
  9 34  1  0  0  0  0
 10 35  1  0  0  0  0
 11 36  1  0  0  0  0
 19 37  1  0  0  0  0
 19 38  1  0  0  0  0
 19 39  1  0  0  0  0
 22 40  1  0  0  0  0
 23 41  1  0  0  0  0
 23 42  1  0  0  0  0
M  CHG  1  22   1
M  END
> <OMEGA_C>
7gjiQPrsYb+I1rTBw0s1QA06H8CiDJPBjtvMQDxZ2r/lZa3Bp+FdQBi6078zhZrB5lnaQEj+AD8d
/7TBv6R7QEKMRkC37p3BXIWnQEr4dD7CXqbB4X5fQAK1acBYgI/BYDerQDk6TMBQWZrBj514QPyU
WkBQP5PBFM7HQBCqVkD5WJrBHBSvQAYtk7/bI6bBuhyYQAZTAMDkSp7BDM29QKU/iz8hjK3BDheq
QJQHREBnKqLBnrzaQDyVWkDbBrLBGlefQBYmcEBKg7zBTlK1QNC9JkCDh63BLDjkQNlDnUBdIMLB
3iyXQED7fsDAIpPBMBXKQAb1g0AXobrBEkiSQG/ZOkC7B7XBCuOFQNqChkBg5sTB9vr/QBA1W0AU
7K7BJmWvQAMsbEBKHY7B8E34QPSXqL/OdLrBDtzsP+RjD8CNDZDBkGHTQPkJMcC2O63BSLI+QHrp
Qb9CWZ3BaE/qQBoLkD8l1LrBapFDQI37OUDLu6LBf0WQQBWHKj9Z96DBQUBAQJ5iicCkwInBWqHK
QLgfXsDuK53BwWg+QPviXkBqno7BOvfpQNXHV0BOppvB+VvPQB37q0BoL8jBvUD1QBB8tkBRtL3B
35L7QL05iEA6FsbBkD1pQBc0I0AVgbTB0htPQOE9eUCzhMXBROyRQGbHmkBtT8rBllDdQGU/eL8U
frXBa2g3QNLBHsCTC5LB7kTJQKAf4782u63BjKZdQIIw1b/W1ZnBlPXVQMQy1j6UubXBvPPJQDN3
UUAtnJrBILClQBgDRT6ehabB/k1iQIgkacAEmY7ByraqQHvgTcCaJ5rBbP+4QL8gZUCUyJDBJQOA
QEqYSEAmmp7BR/SsQPRVmb9RNqbBpTKXQCwkAsBvBZ7BwuS6QE7Ygj+HCa7BmraoQJVbQUBvy6LB
NvPWQPnIVUBCG7PBcQ2aQHE4akC+Eb3Bi0SyQL1sIkDqLq7BmineQCSgmUBOgMPB4c6XQOp1f8A2
oZLBhhXFQNb5gECFpbvB4ziOQAwPNUCRcbXBaoV+QBxsg0DMM8XBfKj8QFxqVkCGX7DB+USBQDS4
YkBvDpHBwHTyQGnCtb8QTbvB/JfzPxIUDsDWuo7Bw4rPQDeDNcD2hK3BcuQ9QHw6Rb8amJzBOwjl
QK1Egz+6y7vBL+LrQHQdTkAvMpzB/IKPQCqFIj9466DBFN1EQMSjiMBnmojBa4XJQEeaYMAuS53B
osrLQOQpdEDQx4nBHQNGQCE7P0C6JqPBaHTIQOD5p0BabcnB1e7vQB8Zs0AlXL/BmtX0QDU0hEBk
lMfBUZphQBOkHEDJrbTBmLpBQNz8ckA1gsXB52SKQAOkl0BSvsrB

> <OMEGA_E>
ygh3P7iufD8=

> <OMEGA_NBR>
      3498

$$$$
50176741
  -OEChem-04172616093D

 42 45  0     1  0  0  0  0  0999 V2000
    4.9411   -4.0490  -18.2786 C   0  0  0  0  0  0  0  0  0  0  0  0
    5.5098   -3.2375  -19.2683 C   0  0  0  0  0  0  0  0  0  0  0  0
    6.5108    0.5949  -22.5538 C   0  0  0  0  0  0  0  0  0  0  0  0
    6.6332   -0.7822  -22.7807 C   0  0  0  0  0  0  0  0  0  0  0  0
    3.7782    3.4820  -19.5902 C   0  0  0  0  0  0  0  0  0  0  0  0
    5.2862    0.1706  -20.4951 C   0  0  0  0  0  0  0  0  0  0  0  0
    3.6578   -3.7391  -17.7875 C   0  0  0  0  0  0  0  0  0  0  0  0
    3.5869    4.0192  -18.3431 C   0  0  0  0  0  0  0  0  0  0  0  0
    5.9630    3.2579  -18.7077 C   0  0  0  0  0  0  0  0  0  0  0  0
    4.7735   -2.1389  -19.7524 C   0  0  0  0  0  0  0  0  0  0  0  0
    5.3833   -1.2169  -20.7289 C   0  0  0  0  0  0  0  0  0  0  0  0
    5.8593    1.0864  -21.3911 C   0  0  0  0  0  0  0  0  0  0  0  0
    5.1807    3.0687  -19.8280 C   0  0  0  0  0  0  0  0  0  0  0  0
    6.0843   -1.6939  -21.8670 C   0  0  0  0  0  0  0  0  0  0  0  0
    3.4738   -1.8969  -19.2286 C   0  0  0  0  0  0  0  0  0  0  0  0
    6.9813    3.2968  -21.5505 C   0  0  0  0  0  0  0  0  0  0  0  0
    5.3913    3.7274  -23.1446 C   0  0  0  0  0  0  0  0  0  0  0  0
    5.6905    2.5935  -21.1957 C   0  0  1  0  0  0  0  0  0  0  0  0
    7.7312    4.5922  -23.5750 C   0  0  0  0  0  0  0  0  0  0  0  0
    2.9511   -2.6868  -18.2625 N   0  0  0  0  0  0  0  0  0  0  0  0
    6.7460    3.8374  -22.8011 N   0  0  0  0  0  0  0  0  0  0  0  0
    4.7540    3.0447  -22.2270 N   0  3  0  0  0  0  0  0  0  0  0  0
    4.8022    4.2268  -24.2938 N   0  0  0  0  0  0  0  0  0  0  0  0
    8.0548    3.2326  -20.9604 O   0  0  0  0  0  0  0  0  0  0  0  0
    6.2062   -3.0178  -22.1211 F   0  0  0  0  0  0  0  0  0  0  0  0
    2.7079   -0.8859  -19.7092 F   0  0  0  0  0  0  0  0  0  0  0  0
    5.0558    3.9846  -17.4088 S   0  0  0  0  0  0  0  0  0  0  0  0
    5.4806   -4.9029  -17.8961 H   0  0  0  0  0  0  0  0  0  0  0  0
    6.4960   -3.4506  -19.6536 H   0  0  0  0  0  0  0  0  0  0  0  0
    6.9171    1.2917  -23.2720 H   0  0  0  0  0  0  0  0  0  0  0  0
    7.1497   -1.1415  -23.6585 H   0  0  0  0  0  0  0  0  0  0  0  0
    2.9905    3.3720  -20.3210 H   0  0  0  0  0  0  0  0  0  0  0  0
    4.7667    0.5313  -19.6197 H   0  0  0  0  0  0  0  0  0  0  0  0
    3.2271   -4.3563  -17.0129 H   0  0  0  0  0  0  0  0  0  0  0  0
    2.6466    4.4129  -17.9865 H   0  0  0  0  0  0  0  0  0  0  0  0
    7.0071    2.9893  -18.6435 H   0  0  0  0  0  0  0  0  0  0  0  0
    7.2853    4.9062  -24.5303 H   0  0  0  0  0  0  0  0  0  0  0  0
    8.0418    5.4807  -23.0058 H   0  0  0  0  0  0  0  0  0  0  0  0
    8.6078    3.9573  -23.7709 H   0  0  0  0  0  0  0  0  0  0  0  0
    3.7715    2.8586  -22.2300 H   0  0  0  0  0  0  0  0  0  0  0  0
    3.8288    4.0735  -24.4638 H   0  0  0  0  0  0  0  0  0  0  0  0
    5.3502    4.7408  -24.9537 H   0  0  0  0  0  0  0  0  0  0  0  0
  1  2  2  0  0  0  0
  1  7  1  0  0  0  0
  2 10  1  0  0  0  0
  3  4  2  0  0  0  0
  3 12  1  0  0  0  0
  4 14  1  0  0  0  0
  5  8  2  0  0  0  0
  5 13  1  0  0  0  0
  6 11  1  0  0  0  0
  6 12  2  0  0  0  0
  7 20  2  0  0  0  0
  8 27  1  0  0  0  0
  9 13  2  0  0  0  0
  9 27  1  0  0  0  0
 10 11  1  0  0  0  0
 10 15  2  0  0  0  0
 11 14  2  0  0  0  0
 12 18  1  0  0  0  0
 13 18  1  0  0  0  0
 14 25  1  0  0  0  0
 15 20  1  0  0  0  0
 15 26  1  0  0  0  0
 16 18  1  0  0  0  0
 16 21  1  0  0  0  0
 16 24  2  0  0  0  0
 17 21  1  0  0  0  0
 17 22  2  0  0  0  0
 17 23  1  0  0  0  0
 18 22  1  0  0  0  0
 19 21  1  0  0  0  0
  1 28  1  0  0  0  0
  2 29  1  0  0  0  0
  3 30  1  0  0  0  0
  4 31  1  0  0  0  0
  5 32  1  0  0  0  0
  6 33  1  0  0  0  0
  7 34  1  0  0  0  0
  8 35  1  0  0  0  0
  9 36  1  0  0  0  0
 19 37  1  0  0  0  0
 19 38  1  0  0  0  0
 19 39  1  0  0  0  0
 22 40  1  0  0  0  0
 23 41  1  0  0  0  0
 23 42  1  0  0  0  0
M  CHG  1  22   1
M  END
> <OMEGA_C>
qB2eQHeRgcB/OpLBVVCwQI4zT8BvJZrBtVjQQPxLGD8obrTBzkLUQNBASL/hPrbBas1xQOzYXkDU
uJzBdyipQHC0Lj4M9qPB7BlqQBROb8DLTI7B7o9lQDKdgECxvpLBqtC+QHOBUEBgqZXB2MCYQCTj
CMAEBZ7BRkSsQKjDm7/P1KXBPn+7QBAOiz8DIavBGcilQK1lRECqn57BXbLCQGzS2L+x767B8FFe
QCrN8r8i1JnBy2bfQOP+UkCFZ6zBM4WsQLCNbkATKLnBphi2QHL8JUC7kKnBqWX3QALzkkChmbzB
IN88QBT0K8CXGZLB3d7XQICYdUC/aLbBsyCYQMXcQkDg0LHBkquZQNBBh0CjWcLBV+AAQeLiTkDP
rqfBNpnGQMgjQcD797DBwk4tQJDKYr9prJ3BOsmhQFwDf0AuRYvBxGCvQJLknMA+K4/BGN/PQDnW
XMCMOp3Bu1jdQLJWpT8OLbrBWcrkQFsdkr+SRL3Bz2Q/QMHOV0BRkaLBe4iYQIIBCD8g9ZzBiYhO
QBBni8CCGojBvWEpQII2jUBO5I/B7zngQEtRP0DKJZXBICHpQPz/nEAJPsTBBasAQeZhr0DTC7jB
qLkJQdlDfUC+Kr7Bn19xQBH0NkAI17HBVwp1QPdZgkDotcPBsTSrQFa0l0A3ocfB

> <OMEGA_E>
CuVgPw==

> <OMEGA_NBR>
      4507

$$$$
50176744
  -OEChem-04172616093D

 46 49  0     1  0  0  0  0  0999 V2000
    7.1101   -0.8436  -22.7150 C   0  0  0  0  0  0  0  0  0  0  0  0
    6.5271   -1.7021  -21.7652 C   0  0  0  0  0  0  0  0  0  0  0  0
    6.7763    0.5223  -22.7360 C   0  0  0  0  0  0  0  0  0  0  0  0
    6.1142    2.8220  -19.2334 C   0  0  0  0  0  0  0  0  0  0  0  0
    5.2334    0.1613  -20.8817 C   0  0  0  0  0  0  0  0  0  0  0  0
    3.6730   -1.8446  -19.3124 C   0  0  0  0  0  0  0  0  0  0  0  0
    5.6633   -3.2365  -19.3562 C   0  0  0  0  0  0  0  0  0  0  0  0
    3.8987   -3.8291  -17.9340 C   0  0  0  0  0  0  0  0  0  0  0  0
    5.5635    3.1716  -18.0255 C   0  0  0  0  0  0  0  0  0  0  0  0
    3.9379    3.4429  -19.9381 C   0  0  0  0  0  0  0  0  0  0  0  0
    5.5786   -1.2058  -20.8408 C   0  0  0  0  0  0  0  0  0  0  0  0
    4.9620   -2.1028  -19.8301 C   0  0  0  0  0  0  0  0  0  0  0  0
    5.8599    1.0470  -21.7937 C   0  0  0  0  0  0  0  0  0  0  0  0
    5.1641    2.9749  -20.3587 C   0  0  0  0  0  0  0  0  0  0  0  0
    3.1263   -2.7137  -18.3528 C   0  0  0  0  0  0  0  0  0  0  0  0
    6.5911    3.4244  -22.3674 C   0  0  0  0  0  0  0  0  0  0  0  0
    4.6979    3.6228  -23.6537 C   0  0  0  0  0  0  0  0  0  0  0  0
    5.4917    2.5396  -21.7888 C   0  0  1  0  0  0  0  0  0  0  0  0
    6.7342    4.9783  -24.3579 C   0  0  0  0  0  0  0  0  0  0  0  0
    1.3041   -3.3587  -16.8950 C   0  0  0  0  0  0  0  0  0  0  0  0
    5.1327   -4.0685  -18.4328 N   0  0  0  0  0  0  0  0  0  0  0  0
    6.0569    3.9643  -23.5312 N   0  0  0  0  0  0  0  0  0  0  0  0
    4.3621    2.7693  -22.7089 N   0  3  0  0  0  0  0  0  0  0  0  0
    3.8275    4.0842  -24.6355 N   0  0  0  0  0  0  0  0  0  0  0  0
    7.7304    3.5760  -21.9384 O   0  0  0  0  0  0  0  0  0  0  0  0
    1.8533   -2.4368  -17.8690 O   0  0  0  0  0  0  0  0  0  0  0  0
    3.9130    3.7016  -18.2144 S   0  0  0  0  0  0  0  0  0  0  0  0
    7.8173   -1.2353  -23.4312 H   0  0  0  0  0  0  0  0  0  0  0  0
    6.8052   -2.7454  -21.7418 H   0  0  0  0  0  0  0  0  0  0  0  0
    7.2210    1.1735  -23.4740 H   0  0  0  0  0  0  0  0  0  0  0  0
    7.1297    2.4733  -19.3502 H   0  0  0  0  0  0  0  0  0  0  0  0
    4.4794    0.5393  -20.2072 H   0  0  0  0  0  0  0  0  0  0  0  0
    3.1122   -0.9861  -19.6514 H   0  0  0  0  0  0  0  0  0  0  0  0
    6.6502   -3.4429  -19.7433 H   0  0  0  0  0  0  0  0  0  0  0  0
    3.4896   -4.5046  -17.1973 H   0  0  0  0  0  0  0  0  0  0  0  0
    6.0849    3.1246  -17.0809 H   0  0  0  0  0  0  0  0  0  0  0  0
    3.0990    3.6260  -20.5932 H   0  0  0  0  0  0  0  0  0  0  0  0
    6.0989    5.2344  -25.2186 H   0  0  0  0  0  0  0  0  0  0  0  0
    6.9161    5.8805  -23.7554 H   0  0  0  0  0  0  0  0  0  0  0  0
    7.6936    4.5775  -24.7168 H   0  0  0  0  0  0  0  0  0  0  0  0
    0.2991   -3.0239  -16.5984 H   0  0  0  0  0  0  0  0  0  0  0  0
    1.2399   -4.3639  -17.3373 H   0  0  0  0  0  0  0  0  0  0  0  0
    1.9565   -3.3885  -16.0099 H   0  0  0  0  0  0  0  0  0  0  0  0
    3.4645    2.3363  -22.6266 H   0  0  0  0  0  0  0  0  0  0  0  0
    2.8794    3.7667  -24.6525 H   0  0  0  0  0  0  0  0  0  0  0  0
    4.1498    4.7335  -25.3243 H   0  0  0  0  0  0  0  0  0  0  0  0
  1  2  1  0  0  0  0
  1  3  2  0  0  0  0
  2 11  2  0  0  0  0
  3 13  1  0  0  0  0
  4  9  2  0  0  0  0
  4 14  1  0  0  0  0
  5 11  1  0  0  0  0
  5 13  2  0  0  0  0
  6 12  1  0  0  0  0
  6 15  2  0  0  0  0
  7 12  2  0  0  0  0
  7 21  1  0  0  0  0
  8 15  1  0  0  0  0
  8 21  2  0  0  0  0
  9 27  1  0  0  0  0
 10 14  2  0  0  0  0
 10 27  1  0  0  0  0
 11 12  1  0  0  0  0
 13 18  1  0  0  0  0
 14 18  1  0  0  0  0
 15 26  1  0  0  0  0
 16 18  1  0  0  0  0
 16 22  1  0  0  0  0
 16 25  2  0  0  0  0
 17 22  1  0  0  0  0
 17 23  2  0  0  0  0
 17 24  1  0  0  0  0
 18 23  1  0  0  0  0
 19 22  1  0  0  0  0
 20 26  1  0  0  0  0
  1 28  1  0  0  0  0
  2 29  1  0  0  0  0
  3 30  1  0  0  0  0
  4 31  1  0  0  0  0
  5 32  1  0  0  0  0
  6 33  1  0  0  0  0
  7 34  1  0  0  0  0
  8 35  1  0  0  0  0
  9 36  1  0  0  0  0
 10 37  1  0  0  0  0
 19 38  1  0  0  0  0
 19 39  1  0  0  0  0
 19 40  1  0  0  0  0
 20 41  1  0  0  0  0
 20 42  1  0  0  0  0
 20 43  1  0  0  0  0
 23 44  1  0  0  0  0
 24 45  1  0  0  0  0
 24 46  1  0  0  0  0
M  CHG  1  23   1
M  END
> <OMEGA_C>
TobjQIf1V78+uLXBLd7QQLvd2b8sH67Bx9fYQEG4BT9J47XBb6fDQAmbNEAJ3pnBuXenQLk1JT7F
DafBMBJrQI4b7L+8f5rBXDm1QJgjT8CK2ZrB1oN5QLsQdcDSeI/BlQiyQBf8SkBGNJDB3gV8QNZX
XEA0gZ/Bv4OyQDRZmr/iuabBycieQLuTBsAGpJ7BZIS7QIYEhj90Wa7BKEClQL9kPkCv3qLBtxVI
QAOtLcCW0pLBTerSQKgoW0CB8LLBcVWWQK/bZ0DIOr3BwbuvQDCIIkBwT67BL37XQIJOn0Dp3MLB
F+ymPzz1VsD8KIfByD6kQBoxgsBGdpPBMNLBQFO3fUD8P7zBZJaLQEE8MUDgq7XByvV0QAaygkBp
FcXBtF/3QBTdZEDega/BGTrtPxj0G8Cv847B5G56QJfnbEAat5HBGCf6QDQdnr8Mc7vBPsTZQKq0
L8BI763BhBLnQHk0lj/HyrvBUibkQPFKHkAqzZrB2FaPQKcNCj9GqKHBcC5HQEZxfL8INp3BC87U
QDhZXMBG8p3BklVfQOUlkMD6k4nBirfCQFn5R0CepYjBV1VGQN4PaEDKvqTBKSrDQAiAp0C6v8nB
k1DdQPYsvED5Cr7ByzH2QKh6kkD0u8XBpSaZPnuHQcCbyYTBnbSeP66ki8C2sorB/2/6P/3dWMBN
FIDByrldQJ2GFUA8A7XBMUg4QJ8RcUA7OMXB4MqEQCl5l0A4mMrB

> <OMEGA_E>
Y+mAPw==

> <OMEGA_NBR>
      5580

$$$$
50176743
  -OEChem-04172616093D

 42 45  0     1  0  0  0  0  0999 V2000
    6.6684   -0.7513  -22.7857 C   0  0  0  0  0  0  0  0  0  0  0  0
    2.9326   -2.6154  -18.3017 C   0  0  0  0  0  0  0  0  0  0  0  0
    6.0759   -1.6430  -21.8809 C   0  0  0  0  0  0  0  0  0  0  0  0
    3.4748   -1.7800  -19.2852 C   0  0  0  0  0  0  0  0  0  0  0  0
    6.5642    0.6301  -22.5681 C   0  0  0  0  0  0  0  0  0  0  0  0
    3.7834    3.6604  -19.7891 C   0  0  0  0  0  0  0  0  0  0  0  0
    5.2562    0.2422  -20.5501 C   0  0  0  0  0  0  0  0  0  0  0  0
    3.6840   -3.7151  -17.8442 C   0  0  0  0  0  0  0  0  0  0  0  0
    3.5506    4.2641  -18.5799 C   0  0  0  0  0  0  0  0  0  0  0  0
    5.9045    3.3821  -18.7758 C   0  0  0  0  0  0  0  0  0  0  0  0
    5.3728   -1.1486  -20.7586 C   0  0  0  0  0  0  0  0  0  0  0  0
    4.7593   -2.0661  -19.7879 C   0  0  0  0  0  0  0  0  0  0  0  0
    5.8721    1.1418  -21.4362 C   0  0  0  0  0  0  0  0  0  0  0  0
    5.1762    3.1757  -19.9290 C   0  0  0  0  0  0  0  0  0  0  0  0
    5.4607   -3.1945  -19.2882 C   0  0  0  0  0  0  0  0  0  0  0  0
    7.0980    3.2902  -21.5111 C   0  0  0  0  0  0  0  0  0  0  0  0
    5.6510    3.7939  -23.2120 C   0  0  0  0  0  0  0  0  0  0  0  0
    5.7510    2.6562  -21.2529 C   0  0  1  0  0  0  0  0  0  0  0  0
    8.0852    4.3434  -23.5538 C   0  0  0  0  0  0  0  0  0  0  0  0
    4.9161   -3.9880  -18.3361 N   0  0  0  0  0  0  0  0  0  0  0  0
    6.9499    3.9698  -22.7076 N   0  0  0  0  0  0  0  0  0  0  0  0
    4.9132    3.1514  -22.3433 N   0  3  0  0  0  0  0  0  0  0  0  0
    5.1973    4.2067  -24.4536 N   0  0  0  0  0  0  0  0  0  0  0  0
    8.1442    3.0697  -20.9088 O   0  0  0  0  0  0  0  0  0  0  0  0
    6.7239   -3.4629  -19.6988 F   0  0  0  0  0  0  0  0  0  0  0  0
    4.9620    4.2038  -17.5619 S   0  0  0  0  0  0  0  0  0  0  0  0
    7.2026   -1.1263  -23.6462 H   0  0  0  0  0  0  0  0  0  0  0  0
    1.9500   -2.4191  -17.8987 H   0  0  0  0  0  0  0  0  0  0  0  0
    6.1566   -2.7079  -22.0412 H   0  0  0  0  0  0  0  0  0  0  0  0
    2.9179   -0.9306  -19.6524 H   0  0  0  0  0  0  0  0  0  0  0  0
    7.0160    1.3152  -23.2702 H   0  0  0  0  0  0  0  0  0  0  0  0
    3.0319    3.5502  -20.5569 H   0  0  0  0  0  0  0  0  0  0  0  0
    4.6925    0.6157  -19.7079 H   0  0  0  0  0  0  0  0  0  0  0  0
    3.2674   -4.3569  -17.0820 H   0  0  0  0  0  0  0  0  0  0  0  0
    2.6128    4.7183  -18.2957 H   0  0  0  0  0  0  0  0  0  0  0  0
    6.9306    3.0730  -18.6420 H   0  0  0  0  0  0  0  0  0  0  0  0
    7.7195    4.8723  -24.4463 H   0  0  0  0  0  0  0  0  0  0  0  0
    8.7621    5.0015  -22.9894 H   0  0  0  0  0  0  0  0  0  0  0  0
    8.6271    3.4369  -23.8613 H   0  0  0  0  0  0  0  0  0  0  0  0
    3.9245    3.0192  -22.4146 H   0  0  0  0  0  0  0  0  0  0  0  0
    4.2552    4.0170  -24.7301 H   0  0  0  0  0  0  0  0  0  0  0  0
    5.8117    4.6946  -25.0736 H   0  0  0  0  0  0  0  0  0  0  0  0
  1  3  1  0  0  0  0
  1  5  2  0  0  0  0
  2  4  2  0  0  0  0
  2  8  1  0  0  0  0
  3 11  2  0  0  0  0
  4 12  1  0  0  0  0
  5 13  1  0  0  0  0
  6  9  2  0  0  0  0
  6 14  1  0  0  0  0
  7 11  1  0  0  0  0
  7 13  2  0  0  0  0
  8 20  2  0  0  0  0
  9 26  1  0  0  0  0
 10 14  2  0  0  0  0
 10 26  1  0  0  0  0
 11 12  1  0  0  0  0
 12 15  2  0  0  0  0
 13 18  1  0  0  0  0
 14 18  1  0  0  0  0
 15 20  1  0  0  0  0
 15 25  1  0  0  0  0
 16 18  1  0  0  0  0
 16 21  1  0  0  0  0
 16 24  2  0  0  0  0
 17 21  1  0  0  0  0
 17 22  2  0  0  0  0
 17 23  1  0  0  0  0
 18 22  1  0  0  0  0
 19 21  1  0  0  0  0
  1 27  1  0  0  0  0
  2 28  1  0  0  0  0
  3 29  1  0  0  0  0
  4 30  1  0  0  0  0
  5 31  1  0  0  0  0
  6 32  1  0  0  0  0
  7 33  1  0  0  0  0
  8 34  1  0  0  0  0
  9 35  1  0  0  0  0
 10 36  1  0  0  0  0
 19 37  1  0  0  0  0
 19 38  1  0  0  0  0
 19 39  1  0  0  0  0
 22 40  1  0  0  0  0
 23 41  1  0  0  0  0
 23 42  1  0  0  0  0
M  CHG  1  22   1
M  END
> <OMEGA_C>
qmPVQMhVQL8eSbbBKK87QIhiJ8D0aZLB2m3CQDRM0r8ODK/BnGJeQIzW478cSJrBtA3SQPRPIT9m
i7TBdCJyQNdDakAWUJ7BZjKoQDAJeD6MZqTB/sZrQDDEbcDgwI7BhDxjQExziECco5TBnPG8QIpz
WEDqNJbBRu6rQGAFk7+kEabBaEyYQHA6BMC4TZ7B7+e7QLolkj8+favBCaOlQIU+S0Cubp/B7L2u
QDBzTMA+TprB5iLjQF6TUkCwFqzBQtW0QH7OckAwsrnBfgi4QK7+KUDYBarB+VwBQfD8ikBGbrzB
kVCdQBw7f8BusJLBvGXeQAIRfkA0qbXB3TidQBexSUD6vrLB4E+mQIqdhkD0oMPBqU4CQZV1REBA
RafBZSrXQPifXcA2l53B2MieQD6FhkDEfozBanvmQMorkL9lK73Bnpn5PxnSGsCRMI/BqQLFQMRO
LcBqVLDBt746QBE7br8SOJ3BDoPgQBxYqD9MKbrBZQpCQGU2Y0CWdKTBsCiWQCOeHT/fqZ3BzR1R
QIdri8DXp4jBwDgnQBH8lkCSXZLBwMfdQMKrREDPIpXBbgb3QKXpm0AeksPBuTEMQZEMoEBT6rfB
rwgKQXT1W0D9477BzCt7QNo5QUANUbPBSSqIQNuKgEA518XBOfm5QIE6lkDDlsjBzKfTQJB3RL+Z
BLbBD5eeQAndgcB+apLBraXBQDhW17/Hya7BqgOwQMipT8DBbprBIMzPQGp/HD/TF7TBEgBrQOum
XUCJH53BcASoQCCXMD5SvaPBFG5rQKRscMCbTY7B9qpaQLAkg0DtnZPBfDm6QEhCV0BPN5XBhyCr
QFzYmr8lv6XB/w2YQEI9CcDgEp7BOXm6QBTmiz/pzarBFgCjQMcuRUApVZ7BkEtdQFjr9L/sw5nB
UnfgQP+HUECm6arBkuuxQGGxcUAKbLjB49q1QKBBJkAJ/qjBME//QLoNjEDq/rrBihI9QAB+LcB+
A5LBmjDbQIWpfkCvRbTBd6yaQNu4RkBWlrHBqXOjQJmohUDlZMLBuggBQYy3QUBiLqbBTJsrQGCM
Z7+Bg53BluSaQAY4hUBKnovBvGTkQKmWj7+ABr3BhUewQOcGncB/a4/BDv/EQNWdL8ASIrDB0TDP
QGZPXcB9v53B5C7dQOs8qD/au7nBSKc6QKTfUEB3FqPBNlGXQFYnBj+1t5zBZxlRQEkDjMB+CIjB
MzQdQGAtkEBKYZHBVqDbQBulR0CLKZTBzHXzQGj9nUDQ9sHBZJgKQTdnoEAxWLbB/DoIQXyrXkBN
vL3Bey52QMR7PUAFKLLBNKuFQMEHfUA1tsTBBcq2QE0NlkCoRsfB

> <OMEGA_E>
Mox5P1yEXD8=

> <OMEGA_NBR>
      7343

$$$$
50218462
  -OEChem-04172616093D

 41 43  0     1  0  0  0  0  0999 V2000
    6.4467   -0.6741  -22.7040 C   0  0  0  0  0  0  0  0  0  0  0  0
    4.9070   -4.1422  -18.3830 C   0  0  0  0  0  0  0  0  0  0  0  0
    5.9744   -1.5721  -21.7350 C   0  0  0  0  0  0  0  0  0  0  0  0
    5.4336   -3.2350  -19.3159 C   0  0  0  0  0  0  0  0  0  0  0  0
    6.1486    0.6944  -22.6065 C   0  0  0  0  0  0  0  0  0  0  0  0
    4.8861    0.2699  -20.5636 C   0  0  0  0  0  0  0  0  0  0  0  0
    3.6538   -3.8772  -17.7958 C   0  0  0  0  0  0  0  0  0  0  0  0
    3.4476   -1.8708  -18.9971 C   0  0  0  0  0  0  0  0  0  0  0  0
    5.1947   -1.1100  -20.6520 C   0  0  0  0  0  0  0  0  0  0  0  0
    4.6954   -2.0735  -19.6362 C   0  0  0  0  0  0  0  0  0  0  0  0
    5.3490    1.1874  -21.5487 C   0  0  0  0  0  0  0  0  0  0  0  0
    6.5043    2.9321  -19.2900 C   0  0  0  0  0  0  0  0  0  0  0  0
    4.0907    3.2041  -19.2076 C   0  0  0  0  0  0  0  0  0  0  0  0
    6.4576    3.2920  -20.7729 C   0  0  0  0  0  0  0  0  0  0  0  0
    5.1624    2.7146  -21.3855 C   0  0  1  0  0  0  0  0  0  0  0  0
    4.9102    3.4294  -22.7407 C   0  0  0  0  0  0  0  0  0  0  0  0
    5.3904    3.1692  -17.0637 C   0  0  0  0  0  0  0  0  0  0  0  0
    2.9496   -2.7624  -18.1064 N   0  0  0  0  0  0  0  0  0  0  0  0
    5.3262    3.0445  -18.5379 N   0  0  0  0  0  0  0  0  0  0  0  0
    3.9888    3.0398  -20.5117 N   0  3  0  0  0  0  0  0  0  0  0  0
    2.9279    3.4817  -18.4975 N   0  0  0  0  0  0  0  0  0  0  0  0
    7.5889    2.7058  -18.7657 O   0  0  0  0  0  0  0  0  0  0  0  0
    7.0423   -1.0371  -23.5286 H   0  0  0  0  0  0  0  0  0  0  0  0
    5.4563   -5.0335  -18.1181 H   0  0  0  0  0  0  0  0  0  0  0  0
    6.2085   -2.6232  -21.8178 H   0  0  0  0  0  0  0  0  0  0  0  0
    6.3895   -3.4222  -19.7822 H   0  0  0  0  0  0  0  0  0  0  0  0
    6.5343    1.3787  -23.3477 H   0  0  0  0  0  0  0  0  0  0  0  0
    4.2914    0.6307  -19.7374 H   0  0  0  0  0  0  0  0  0  0  0  0
    3.2458   -4.5781  -17.0827 H   0  0  0  0  0  0  0  0  0  0  0  0
    2.8781   -0.9822  -19.2258 H   0  0  0  0  0  0  0  0  0  0  0  0
    6.4651    4.3860  -20.8881 H   0  0  0  0  0  0  0  0  0  0  0  0
    7.3317    2.8634  -21.2850 H   0  0  0  0  0  0  0  0  0  0  0  0
    4.7848    4.5087  -22.5688 H   0  0  0  0  0  0  0  0  0  0  0  0
    5.7679    3.2619  -23.4087 H   0  0  0  0  0  0  0  0  0  0  0  0
    3.9992    3.0240  -23.2050 H   0  0  0  0  0  0  0  0  0  0  0  0
    4.3712    3.2454  -16.6570 H   0  0  0  0  0  0  0  0  0  0  0  0
    5.8879    2.2834  -16.6422 H   0  0  0  0  0  0  0  0  0  0  0  0
    5.9600    4.0716  -16.7967 H   0  0  0  0  0  0  0  0  0  0  0  0
    3.0888    3.1363  -20.9367 H   0  0  0  0  0  0  0  0  0  0  0  0
    2.0533    3.5504  -18.9775 H   0  0  0  0  0  0  0  0  0  0  0  0
    2.9662    3.6125  -17.5069 H   0  0  0  0  0  0  0  0  0  0  0  0
  1  3  1  0  0  0  0
  1  5  2  0  0  0  0
  2  4  2  0  0  0  0
  2  7  1  0  0  0  0
  3  9  2  0  0  0  0
  4 10  1  0  0  0  0
  5 11  1  0  0  0  0
  6  9  1  0  0  0  0
  6 11  2  0  0  0  0
  7 18  2  0  0  0  0
  8 10  2  0  0  0  0
  8 18  1  0  0  0  0
  9 10  1  0  0  0  0
 11 15  1  0  0  0  0
 12 14  1  0  0  0  0
 12 19  1  0  0  0  0
 12 22  2  0  0  0  0
 13 19  1  0  0  0  0
 13 20  2  0  0  0  0
 13 21  1  0  0  0  0
 14 15  1  0  0  0  0
 15 16  1  0  0  0  0
 15 20  1  0  0  0  0
 17 19  1  0  0  0  0
  1 23  1  0  0  0  0
  2 24  1  0  0  0  0
  3 25  1  0  0  0  0
  4 26  1  0  0  0  0
  5 27  1  0  0  0  0
  6 28  1  0  0  0  0
  7 29  1  0  0  0  0
  8 30  1  0  0  0  0
 14 31  1  0  0  0  0
 14 32  1  0  0  0  0
 16 33  1  0  0  0  0
 16 34  1  0  0  0  0
 16 35  1  0  0  0  0
 17 36  1  0  0  0  0
 17 37  1  0  0  0  0
 17 38  1  0  0  0  0
 20 39  1  0  0  0  0
 21 40  1  0  0  0  0
 21 41  1  0  0  0  0
M  CHG  1  20   1
M  END
> <OMEGA_C>
i0vOQGuQLL/MobXBwQWdQNOMhMBPEJPBNy6/QNM7yb874a3Bwt+tQDIKT8DthprBq8HEQNbBMT8o
2rTBvlqcQGwvij4wgqTBwtdpQIAjeMDlXY7B4qVcQL13778S+pfBWDumQOQVjr9YN6XBfkCWQHC0
BMAIF53BGiurQBT+lz+2Y6zBOSPQQB6nO0DxUZrB2uaCQIQPTUA1qZnBZaTOQKawUkDvLqbB/jGl
QI67LUCXFavBLCCdQPB7W0Dv7LXByH2sQOLUSkCDgojBjsU8QNjKMMDW2ZDBdHCqQBTZQkCgTZTB
2Eh/QFKLQkACGKTBBGI7QI7TXkD5+pPBAtjyQI4rLUAmIJbBMlrhQADBhL+GOrzBPZquQI0SocD3
8ZDBHqzGQHniJ8Djiq7BGnfMQBsFW8D9QZ7BwBjRQIZ4sD8syLrB/lKJQKp0IT8v5p3BC7tPQOV/
ksBTqYjBzTI4QOlue79izpnBL+LOQMZZjEDTGqfB+5zqQLVBN0CqR6rB8xyZQPZGkEDbjLTB5pK4
QC7DUEDzRLvBGvJ/QKGIQUDto7nBheCLQDq1T0CFQYXB/Gm8QAEjEkBEI4XBLLi+QFpKgkCUX4bB
sK5FQNm5SEBffqfBAGkDQGk6Y0D+0ZfBd9U9QI0zZ0AZDozBe+PKQHskL79CxrXB18pFQGBFOMAc
3o/B5TG8QHriyL/S5a3BhBFfQCac8r9TQZfBjF3CQEM2MD8I7rTBwHCbQFXOlT6cSaTBTcx7QCPv
fsBW7Y3BYFSwQJD4S8AxPprB3sOkQALMi78GB6XBf9GWQM9mA8B4qZzBOempQDBQmT/bUazBcoPP
QL1hO0CiRZrBq/eCQO+oU0BOvpnBCxzPQCU8UUCmKabBkSClQHiRLkD2DavBd46dQNdgXEDL7LXB
QxmsQJTtT0CFhIjBUdijQIvHg8DJB5PBJ46qQLq8TECEV5TB8FN/QHklRUC8GqTBNlg7QOdPZkBG
J5TBUqrwQBJOIkBoEZbB4NXcQEi5h79YhLzBK3kJQO2UMsCBtYvBPtnCQP8FKMBwnq7B7RA3QF16
hL/TwpjBbp7OQBa7rj8K7brBEzaJQMQrKj/6k53BfShoQLuWl8BjP4jBAaHOQD/oU8BZR57BeazQ
QM6Hi0C1NqfB57fqQINGM0BsIqrB9mCaQBnVkEBrlbTBdNi4QOgrUEAaRbvB0xWAQLm2Q0CcnrnB
lwSMQKlXXkBAYIXBfdm2QE6uEUBKaIXBdpbCQHgQgUAv+oXBUYNFQKBnSUB2fqfBqkEDQIpaaEB7
/5fBLMM9QASxcUBkSYzB

> <OMEGA_E>
bN/BPkRtED8=

> <OMEGA_NBR>
      9075

$$$$
408875
  -OEChem-04172616093D

 61 65  0     1  0  0  0  0  0999 V2000
    7.0165    5.2238  -23.9180 C   0  0  0  0  0  0  0  0  0  0  0  0
    7.8919    4.2885  -23.3362 C   0  0  0  0  0  0  0  0  0  0  0  0
    5.6882    5.3240  -23.4632 C   0  0  0  0  0  0  0  0  0  0  0  0
    6.1454   -0.6779  -22.8299 C   0  0  0  0  0  0  0  0  0  0  0  0
    3.9309   -4.4804  -19.1144 C   0  0  0  0  0  0  0  0  0  0  0  0
    5.7861   -1.6585  -21.8926 C   0  0  0  0  0  0  0  0  0  0  0  0
    4.3433   -3.5213  -20.0561 C   0  0  0  0  0  0  0  0  0  0  0  0
    7.4408    3.4575  -22.2952 C   0  0  0  0  0  0  0  0  0  0  0  0
    5.2255    4.4803  -22.4374 C   0  0  0  0  0  0  0  0  0  0  0  0
    6.0708    0.6829  -22.4912 C   0  0  0  0  0  0  0  0  0  0  0  0
    4.0880   -4.2314  -17.7371 C   0  0  0  0  0  0  0  0  0  0  0  0
    5.3043    0.0877  -20.2586 C   0  0  0  0  0  0  0  0  0  0  0  0
    5.0851   -2.0670  -18.2409 C   0  0  0  0  0  0  0  0  0  0  0  0
    5.3464   -1.2816  -20.6039 C   0  0  0  0  0  0  0  0  0  0  0  0
    4.9222   -2.3054  -19.6240 C   0  0  0  0  0  0  0  0  0  0  0  0
    6.0959    3.5313  -21.8434 C   0  0  0  0  0  0  0  0  0  0  0  0
    5.6793    1.0823  -21.1854 C   0  0  0  0  0  0  0  0  0  0  0  0
    4.6626   -3.0237  -17.2861 C   0  0  0  0  0  0  0  0  0  0  0  0
    6.3678    2.7933  -19.4621 C   0  0  0  0  0  0  0  0  0  0  0  0
    4.1386    3.2226  -19.0384 C   0  0  0  0  0  0  0  0  0  0  0  0
    7.2032    3.3307  -16.6405 C   0  0  0  0  0  0  0  0  0  0  0  0
    5.3597    5.0556  -16.7980 C   0  0  0  0  0  0  0  0  0  0  0  0
    7.4539    3.7997  -15.2026 C   0  0  0  0  0  0  0  0  0  0  0  0
    5.7023    5.4503  -15.3478 C   0  0  0  0  0  0  0  0  0  0  0  0
    5.7201    3.5655  -17.0619 C   0  0  0  0  0  0  0  0  0  0  0  0
    5.5899    2.5601  -20.7611 C   0  0  1  0  0  0  0  0  0  0  0  0
    5.3552   -1.5742  -15.4624 C   0  0  0  0  0  0  0  0  0  0  0  0
    4.1984    2.8470  -20.3751 N   0  0  0  0  0  0  0  0  0  0  0  0
    5.4365    3.2054  -18.4890 N   0  0  0  0  0  0  0  0  0  0  0  0
    3.0195    3.5254  -18.4250 N   0  3  0  0  0  0  0  0  0  0  0  0
    7.5681    2.5738  -19.3366 O   0  0  0  0  0  0  0  0  0  0  0  0
    7.0971    5.1919  -15.0818 O   0  0  0  0  0  0  0  0  0  0  0  0
    4.7907   -2.8339  -15.9141 O   0  0  0  0  0  0  0  0  0  0  0  0
    7.3640    5.8653  -24.7143 H   0  0  0  0  0  0  0  0  0  0  0  0
    8.9096    4.2087  -23.6888 H   0  0  0  0  0  0  0  0  0  0  0  0
    5.0220    6.0513  -23.9034 H   0  0  0  0  0  0  0  0  0  0  0  0
    6.4800   -0.9705  -23.8142 H   0  0  0  0  0  0  0  0  0  0  0  0
    3.4929   -5.4096  -19.4478 H   0  0  0  0  0  0  0  0  0  0  0  0
    5.8459   -2.7039  -22.1569 H   0  0  0  0  0  0  0  0  0  0  0  0
    4.2179   -3.7135  -21.1115 H   0  0  0  0  0  0  0  0  0  0  0  0
    8.1225    2.7574  -21.8353 H   0  0  0  0  0  0  0  0  0  0  0  0
    4.2022    4.5556  -22.1004 H   0  0  0  0  0  0  0  0  0  0  0  0
    6.3132    1.4324  -23.2300 H   0  0  0  0  0  0  0  0  0  0  0  0
    3.7657   -4.9714  -17.0195 H   0  0  0  0  0  0  0  0  0  0  0  0
    4.9800    0.3772  -19.2700 H   0  0  0  0  0  0  0  0  0  0  0  0
    5.5372   -1.1444  -17.9080 H   0  0  0  0  0  0  0  0  0  0  0  0
    7.8620    3.8909  -17.3203 H   0  0  0  0  0  0  0  0  0  0  0  0
    7.4304    2.2568  -16.7120 H   0  0  0  0  0  0  0  0  0  0  0  0
    4.2828    5.2022  -16.9673 H   0  0  0  0  0  0  0  0  0  0  0  0
    5.9298    5.6930  -17.4900 H   0  0  0  0  0  0  0  0  0  0  0  0
    6.8417    3.2030  -14.5103 H   0  0  0  0  0  0  0  0  0  0  0  0
    8.5179    3.6711  -14.9552 H   0  0  0  0  0  0  0  0  0  0  0  0
    5.4963    6.5212  -15.2034 H   0  0  0  0  0  0  0  0  0  0  0  0
    5.0842    4.8613  -14.6543 H   0  0  0  0  0  0  0  0  0  0  0  0
    5.0845    2.9456  -16.4125 H   0  0  0  0  0  0  0  0  0  0  0  0
    5.3962   -1.5633  -14.3632 H   0  0  0  0  0  0  0  0  0  0  0  0
    6.3713   -1.4614  -15.8683 H   0  0  0  0  0  0  0  0  0  0  0  0
    4.7256   -0.7435  -15.8139 H   0  0  0  0  0  0  0  0  0  0  0  0
    3.4099    2.7811  -20.9866 H   0  0  0  0  0  0  0  0  0  0  0  0
    3.0324    3.7800  -17.4581 H   0  0  0  0  0  0  0  0  0  0  0  0
    2.1534    3.5017  -18.9243 H   0  0  0  0  0  0  0  0  0  0  0  0
  1  2  1  0  0  0  0
  1  3  2  0  0  0  0
  2  8  2  0  0  0  0
  3  9  1  0  0  0  0
  4  6  2  0  0  0  0
  4 10  1  0  0  0  0
  5  7  1  0  0  0  0
  5 11  2  0  0  0  0
  6 14  1  0  0  0  0
  7 15  2  0  0  0  0
  8 16  1  0  0  0  0
  9 16  2  0  0  0  0
 10 17  2  0  0  0  0
 11 18  1  0  0  0  0
 12 14  2  0  0  0  0
 12 17  1  0  0  0  0
 13 15  1  0  0  0  0
 13 18  2  0  0  0  0
 14 15  1  0  0  0  0
 16 26  1  0  0  0  0
 17 26  1  0  0  0  0
 18 33  1  0  0  0  0
 19 26  1  0  0  0  0
 19 29  1  0  0  0  0
 19 31  2  0  0  0  0
 20 28  1  0  0  0  0
 20 29  1  0  0  0  0
 20 30  2  0  0  0  0
 21 23  1  0  0  0  0
 21 25  1  0  0  0  0
 22 24  1  0  0  0  0
 22 25  1  0  0  0  0
 23 32  1  0  0  0  0
 24 32  1  0  0  0  0
 25 29  1  0  0  0  0
 26 28  1  0  0  0  0
 27 33  1  0  0  0  0
  1 34  1  0  0  0  0
  2 35  1  0  0  0  0
  3 36  1  0  0  0  0
  4 37  1  0  0  0  0
  5 38  1  0  0  0  0
  6 39  1  0  0  0  0
  7 40  1  0  0  0  0
  8 41  1  0  0  0  0
  9 42  1  0  0  0  0
 10 43  1  0  0  0  0
 11 44  1  0  0  0  0
 12 45  1  0  0  0  0
 13 46  1  0  0  0  0
 21 47  1  0  0  0  0
 21 48  1  0  0  0  0
 22 49  1  0  0  0  0
 22 50  1  0  0  0  0
 23 51  1  0  0  0  0
 23 52  1  0  0  0  0
 24 53  1  0  0  0  0
 24 54  1  0  0  0  0
 25 55  1  0  0  0  0
 27 56  1  0  0  0  0
 27 57  1  0  0  0  0
 27 58  1  0  0  0  0
 28 59  1  0  0  0  0
 30 60  1  0  0  0  0
 30 61  1  0  0  0  0
M  CHG  1  30   1
M  END
> <OMEGA_C>
A4fgQAgpp0ApWL/BpYr8QA47iUCSsLrBWAW2QF5eqkCXtLvBuqbEQH+JLb+po7bB7ZN7QK1fj8BS
6pjBhye5QG5J1L/2I6/Br/yKQL1dYcDucqDBARvuQFVIXUCYXLLBoDenQLdej0DIf7PBuUPCQITT
Lj/47bPBmdCCQAloh8Cb5Y3BirypQIinsz2wEaLBeLmiQChKBMBo7ZHBexWrQA4MpL/Q1KTBV4Kd
QDSME8AJ/pzBAhLDQFoAYkA8v67B8by1QOOJij/Ee6nBXzSVQMiDQcDtSYrBusTLQNvEMkBospvB
Ym+EQLY+TkC7TpjBf4DmQG0pVUDNH4XBEYOrQN3HoUBbYobB8YXuQPcuc0DhPXPBinm2QBxprkCF
kHXBMwu3QPQwZEDOfojBWeCyQLfYI0C1FqbBuF2rQFJ/yb8dZnfBY1mGQJg1NkAlAKPB+vetQPIl
TUCL6ZPB1j9BQM2fYUB5ZpPBgi3yQLq5JEBKsZrB1BvjQHEkpkAnT3HBvE2ZQIxeNcAmoH7BoaXr
QJKwu0D0tsXBzo0OQe6thkC7gr3BMLSgQPGjwUAROr/BYVzPQHBveL90g77BzItfQNQbrcD/lJvB
PRG7QBcNLcBpQbHBKfmGQD+qbcBD5KjBzPUBQXV5MEDCrq7Bu3iGQDDHkUCMzbDBjQXKQL1Ztz8Y
17nB5gFxQOYVn8DfJ4jBw1ufQGsdwT7tKJrB7TCxQFV8kr+kQ4/BepX7QOwDeUAJkIrB1MXtQJ1u
EEAtsoXBjAyJQD94pkAgvYfBrsC9QEkttkCC64vBae/aQJT+TEBQKmjBbEkIQVjzakCdSG/BCeKv
QI6t0EBGQXPBX7GiQLePm0AeeGrBmLSiQDqEPEDJTIPB4K2sQKQbyL/ez2XB/eHLQNUOu7+C5H3B
fDiXQORTPr/nBX3BTzxaQFf+MUCL5KfBIRNCQM3qcUAgqovBdNEJQEgbYEADZZfBlxreQKdOp0Ay
v7/Bd66yQArLm0AP8L7Bfdv7QJePl0BHRrjBeiHHQDBnI7/sirbBygWAQHbXjsChyZjBFXC6QG/W
z7+GLK/BRI6MQLREYMCeZKDBctikQDb0gEDZlrbBFjPuQA9TeUBC7a/BfgzFQNwkOT9NxbPBlEmF
QFyWhsB0yY3B7PqoQMgG7j2/PaLBAP6jQGDcAcAH+ZHBm3CrQP8/oL9e7qTBu4KeQLe6EcBeBp3B
5EPCQKSrY0AL067Be+C1QMV8jj8Ti6nBeEKXQAs/P8BEQ4rBkIrLQJ22MUA9n5vB2rSEQFxDUUCe
Y5jBFfvmQLswX0B7DYXBzSWpQDxbokDk+oXBNcgBQSIZk0DmGIrBtPbGQHnjwkDdfYvBMTC3QCE/
Z0D+iYjB8fmyQFpUJUAuGabBhp6tQGJww783iXfBi5mGQH8hOUC8EKPBiGWuQH8rUkAkD5TBD1ZB
QHqIYkA0dpPBSlPwQGSuGEDjQJrBRUfyQHjLvEBXxIfBubWbQOivMsCemX7BAJXoQHI7vEDLGsbB
JfCbQIuVp0CrvMTB+pwOQesjoEAm87jBlobSQMyTbb/9XL7B1KhkQDLSrMAlY5vBeSe8QGa6KsDo
WLHBf3SIQLEibcDk0ajBOJSDQF6ab0BmF7bBeKQCQRFHYECTT6rBogrPQEO/vD+3c7nBxvZ2QGpK
nsAy/4fB5QidQKYrzz4NeJrBtw2yQF92jL+zYI/B6CDzQDBMIEC9lYfBxs7oQJBIZEBBk3jBBFSq
QOxip0D7jHrB6DqIQBNHp0Ae2IjBxwkSQSLGkEBrxobB/GUCQYSTjkCk0ZLBl8jFQM0cvkCNNJTB
w2e8QOiQ40Avj4nBnjOkQCbzO0BCeoPBdj6vQCdywb/e9GXBNf7NQHZRtL+nLn7BBDGZQHuvM79b
H33BHthaQGK0NUAC/KfB/stBQI+cckDxt4vB7+wJQPmeX0DKcpfB

> <OMEGA_E>
1M0gP3y/ID8=

> <OMEGA_NBR>
      2292

$$$$
408874
  -OEChem-04172616093D

 63 67  0     1  0  0  0  0  0999 V2000
    6.9569    5.2356  -23.9369 C   0  0  0  0  0  0  0  0  0  0  0  0
    5.5982    4.8812  -23.8403 C   0  0  0  0  0  0  0  0  0  0  0  0
    7.8837    4.7258  -23.0113 C   0  0  0  0  0  0  0  0  0  0  0  0
    6.2466   -0.6514  -22.8027 C   0  0  0  0  0  0  0  0  0  0  0  0
    3.9918   -4.4925  -19.1253 C   0  0  0  0  0  0  0  0  0  0  0  0
    5.8444   -1.6390  -21.8869 C   0  0  0  0  0  0  0  0  0  0  0  0
    4.3909   -3.5259  -20.0656 C   0  0  0  0  0  0  0  0  0  0  0  0
    5.1593    4.0341  -22.8063 C   0  0  0  0  0  0  0  0  0  0  0  0
    7.4519    3.8729  -21.9819 C   0  0  0  0  0  0  0  0  0  0  0  0
    6.1712    0.7093  -22.4563 C   0  0  0  0  0  0  0  0  0  0  0  0
    4.1449   -4.2443  -17.7473 C   0  0  0  0  0  0  0  0  0  0  0  0
    5.2795    0.0971  -20.2719 C   0  0  0  0  0  0  0  0  0  0  0  0
    5.1052   -2.0616  -18.2468 C   0  0  0  0  0  0  0  0  0  0  0  0
    5.3619   -1.2709  -20.6106 C   0  0  0  0  0  0  0  0  0  0  0  0
    4.9475   -2.3009  -19.6315 C   0  0  0  0  0  0  0  0  0  0  0  0
    6.0742    3.5444  -21.8421 C   0  0  0  0  0  0  0  0  0  0  0  0
    5.6838    1.0970  -21.1823 C   0  0  0  0  0  0  0  0  0  0  0  0
    4.7013   -3.0290  -17.2935 C   0  0  0  0  0  0  0  0  0  0  0  0
    6.3457    2.7660  -19.4548 C   0  0  0  0  0  0  0  0  0  0  0  0
    4.1353    3.2582  -19.0404 C   0  0  0  0  0  0  0  0  0  0  0  0
    8.6300    3.2542  -16.3118 C   0  0  0  0  0  0  0  0  0  0  0  0
    8.1353    4.4720  -17.1354 C   0  0  0  0  0  0  0  0  0  0  0  0
    7.7340    1.9877  -16.3838 C   0  0  0  0  0  0  0  0  0  0  0  0
    6.6363    4.7605  -16.9115 C   0  0  0  0  0  0  0  0  0  0  0  0
    6.2251    2.2993  -16.2424 C   0  0  0  0  0  0  0  0  0  0  0  0
    5.7222    3.5188  -17.0611 C   0  0  0  0  0  0  0  0  0  0  0  0
    5.5826    2.5685  -20.7568 C   0  0  1  0  0  0  0  0  0  0  0  0
    5.3723   -1.5771  -15.4643 C   0  0  0  0  0  0  0  0  0  0  0  0
    4.1930    2.8769  -20.3758 N   0  0  0  0  0  0  0  0  0  0  0  0
    5.4276    3.1929  -18.4865 N   0  0  0  0  0  0  0  0  0  0  0  0
    3.0248    3.6004  -18.4314 N   0  3  0  0  0  0  0  0  0  0  0  0
    7.5188    2.4524  -19.3153 O   0  0  0  0  0  0  0  0  0  0  0  0
    4.8318   -2.8448  -15.9207 O   0  0  0  0  0  0  0  0  0  0  0  0
    7.2873    5.8992  -24.7223 H   0  0  0  0  0  0  0  0  0  0  0  0
    4.8902    5.2607  -24.5622 H   0  0  0  0  0  0  0  0  0  0  0  0
    8.9279    4.9898  -23.0915 H   0  0  0  0  0  0  0  0  0  0  0  0
    6.6150   -0.9388  -23.7764 H   0  0  0  0  0  0  0  0  0  0  0  0
    3.5669   -5.4272  -19.4605 H   0  0  0  0  0  0  0  0  0  0  0  0
    5.9042   -2.6824  -22.1595 H   0  0  0  0  0  0  0  0  0  0  0  0
    4.2721   -3.7198  -21.1214 H   0  0  0  0  0  0  0  0  0  0  0  0
    4.1176    3.7553  -22.7473 H   0  0  0  0  0  0  0  0  0  0  0  0
    8.1724    3.4625  -21.2900 H   0  0  0  0  0  0  0  0  0  0  0  0
    6.4859    1.4624  -23.1635 H   0  0  0  0  0  0  0  0  0  0  0  0
    3.8337   -4.9906  -17.0313 H   0  0  0  0  0  0  0  0  0  0  0  0
    4.9013    0.3828  -19.3015 H   0  0  0  0  0  0  0  0  0  0  0  0
    5.5386   -1.1307  -17.9120 H   0  0  0  0  0  0  0  0  0  0  0  0
    9.6310    2.9820  -16.6778 H   0  0  0  0  0  0  0  0  0  0  0  0
    8.6962    3.5625  -15.2580 H   0  0  0  0  0  0  0  0  0  0  0  0
    8.7144    5.3588  -16.8382 H   0  0  0  0  0  0  0  0  0  0  0  0
    8.3004    4.2673  -18.2035 H   0  0  0  0  0  0  0  0  0  0  0  0
    7.9001    1.4967  -17.3541 H   0  0  0  0  0  0  0  0  0  0  0  0
    8.0276    1.3052  -15.5726 H   0  0  0  0  0  0  0  0  0  0  0  0
    6.5101    5.1614  -15.8950 H   0  0  0  0  0  0  0  0  0  0  0  0
    6.3166    5.5148  -17.6455 H   0  0  0  0  0  0  0  0  0  0  0  0
    5.6624    1.4132  -16.5713 H   0  0  0  0  0  0  0  0  0  0  0  0
    6.0159    2.4930  -15.1800 H   0  0  0  0  0  0  0  0  0  0  0  0
    4.7615    3.8028  -16.6066 H   0  0  0  0  0  0  0  0  0  0  0  0
    5.4182   -1.5719  -14.3653 H   0  0  0  0  0  0  0  0  0  0  0  0
    6.3841   -1.4412  -15.8740 H   0  0  0  0  0  0  0  0  0  0  0  0
    4.7244   -0.7573  -15.8080 H   0  0  0  0  0  0  0  0  0  0  0  0
    3.4054    2.8202  -20.9893 H   0  0  0  0  0  0  0  0  0  0  0  0
    3.0424    3.8527  -17.4639 H   0  0  0  0  0  0  0  0  0  0  0  0
    2.1607    3.6089  -18.9347 H   0  0  0  0  0  0  0  0  0  0  0  0
  1  2  1  0  0  0  0
  1  3  2  0  0  0  0
  2  8  2  0  0  0  0
  3  9  1  0  0  0  0
  4  6  2  0  0  0  0
  4 10  1  0  0  0  0
  5  7  1  0  0  0  0
  5 11  2  0  0  0  0
  6 14  1  0  0  0  0
  7 15  2  0  0  0  0
  8 16  1  0  0  0  0
  9 16  2  0  0  0  0
 10 17  2  0  0  0  0
 11 18  1  0  0  0  0
 12 14  2  0  0  0  0
 12 17  1  0  0  0  0
 13 15  1  0  0  0  0
 13 18  2  0  0  0  0
 14 15  1  0  0  0  0
 16 27  1  0  0  0  0
 17 27  1  0  0  0  0
 18 33  1  0  0  0  0
 19 27  1  0  0  0  0
 19 30  1  0  0  0  0
 19 32  2  0  0  0  0
 20 29  1  0  0  0  0
 20 30  1  0  0  0  0
 20 31  2  0  0  0  0
 21 22  1  0  0  0  0
 21 23  1  0  0  0  0
 22 24  1  0  0  0  0
 23 25  1  0  0  0  0
 24 26  1  0  0  0  0
 25 26  1  0  0  0  0
 26 30  1  0  0  0  0
 27 29  1  0  0  0  0
 28 33  1  0  0  0  0
  1 34  1  0  0  0  0
  2 35  1  0  0  0  0
  3 36  1  0  0  0  0
  4 37  1  0  0  0  0
  5 38  1  0  0  0  0
  6 39  1  0  0  0  0
  7 40  1  0  0  0  0
  8 41  1  0  0  0  0
  9 42  1  0  0  0  0
 10 43  1  0  0  0  0
 11 44  1  0  0  0  0
 12 45  1  0  0  0  0
 13 46  1  0  0  0  0
 21 47  1  0  0  0  0
 21 48  1  0  0  0  0
 22 49  1  0  0  0  0
 22 50  1  0  0  0  0
 23 51  1  0  0  0  0
 23 52  1  0  0  0  0
 24 53  1  0  0  0  0
 24 54  1  0  0  0  0
 25 55  1  0  0  0  0
 25 56  1  0  0  0  0
 26 57  1  0  0  0  0
 28 58  1  0  0  0  0
 28 59  1  0  0  0  0
 28 60  1  0  0  0  0
 29 61  1  0  0  0  0
 31 62  1  0  0  0  0
 31 63  1  0  0  0  0
M  CHG  1  31   1
M  END
> <OMEGA_C>
qZ7eQKeJp0Dffr/BNiSzQIcynEDquL7Bckf8QG45l0A9F7jB8+PHQOu/Jr8AbLbBQnl/QKzCj8CJ
AJnB9wS7QKHL0b9yGK/BfIKMQCOpYcBHhqDB0hilQIIXgUBhc7bBUXbuQD7dd0AF26/BaHrFQK2V
NT+BprPB86KEQPPQh8Bs+o3BXvGoQMPKxj3jLKLBCV6jQIDwA8CH+ZHB+JSrQN2ror+G4qTB3FGe
QMBCE8A5DZ3BBmDCQLvXYkCovK7BouG1QI9pjD9tdanBzHCWQOraQcATWYrBTxDLQHEGMUCBo5vB
RlSEQLiFUEC9UpjBaxQKQQdEUECHfoLBJCoCQfEaj0BVFYnBDH33QMdr/j8OEoPBNFzUQL5VmEC4
SofBajTHQD4nE0Bd8IHB+hu3QF0zYUAafYjBv6SyQMBhJEDWDabB0umrQLHeyb/NbXfBOy2GQLQf
OECNAaPBPa+tQOxYTEBv5JPBcpZBQFRsZkCJc5PBHZrwQGXzHECqhZrB0p2aQNYQNsBZu37BbDHp
QDLGvEBQx8XB0nycQOdXqEBmf8TBndgOQQ6sn0B7u7jBIq7TQPpVcL8UNr7Bk0hkQD+rrcACr5vB
9+68QKmrK8CrRrHB0LSIQHYRbsCI+KjBIMODQHBWcEB++rXBWsICQS6ZXUDXUarBNIzPQPcwuz/x
TrnB9lt1QOeyn8AtQIjBNNecQO4CxD56aZrB6TuxQDS6kL/VS4/BbhgaQerYPkAgbIXBuyMLQS0A
ZECgIHTBFW4LQT57q0CvtIbBgM4EQfONiEDKoJHBjM38QMiUvz8l1YrB23AAQbgRpz9BKXnBcVLQ
QHgqpUDMUX7BMCHKQDB5sED8KY3BnTK1QOnitD/4kYTB8YHAQIaNH0Ay4XLBkl6YQKRgc0BY2oTB
f2GtQEYzyb8r2GXBMkrMQKd6uL8H/H3BBy6XQPjfQb+07XzBpPFZQBd+NEAE6qfBGbdCQPuRdkAe
tovBekkKQEX4ZkBIepfBdoLgQKUBp0CNXb/BN4L8QNsIiUCtuLrBtQm2QC1MqkDjtLvB91/EQIEB
Lr/Mp7bBMuN6QLNij8Az7pjBvdy4QDiE1L/OKK/BFaiKQG5kYcC/dqDBeRbuQHb6XEApYrLBpD+n
QB1Wj0D7fbPBgRzCQJFQLj8A77PBD4+CQCR4h8Bi6Y3Ba6upQALMrz0vEaLBnJKiQB6DBMAr8ZHB
/+GqQNpIpL+S16TBPkidQHKsE8ChAZ3BgBXDQFTZYUAjwK7B97O1QLJPij9jeqnBsAuVQKu7QcDU
TYrBl8rLQCXoMkBDr5vByWeEQHDwTUDkTZjBwzDiQJzqo0CAW27BUHSzQCnfrECIz3TBrcftQFF0
aUAacXLBwKGrQJYaoUBYOobBfuTlQPKAUUC594TByMG2QErPYkDibYjBMOiyQNDGI0AVFabBYFur
QPYqyr+yb3fBKGCGQJsrNkDpAKPBV+mtQAPYTEDI5JPBTB1BQFoTYUA7ZpPBWUjyQPy6JUA5sJrB
XDSZQBGiNcBEqH7Bv53rQGaBu0BGvsXBIoYOQS9rhkDejr3BubygQPKawUAjOL/BgQDPQDXbeL9+
ib7B5rFeQOAUrcAKmZvBLLG6QPkoLcAsSLHBIJOGQD6ebcD756jBQPIBQWseMEDita7B6YaGQPLN
kUDyx7DBJeDJQJ8Ytz/017nBZXxwQDYmn8DXK4jB+l6fQAkHwD6eJprBDRuxQI4Qk78+R4/BKI73
QLCBuECB03fB20zmQB8Rq0BRP13ByAWeQHW6mUB5pWrBkZOsQEwUz0D0fHLBOeIHQVViX0C0nW7B
g/LZQKx0QEDQIGjBxruJQCuYpkA/KYjBysa/QCmJtUBUU4vB5WP7QD+cd0C2DYrBZOjsQBsQDUAo
DYbBTOShQNVNO0ByWIPBJLasQC3SyL+k2WXBcd3LQK3zu7/R8n3BJD+XQBxbP7+zC33BOlhaQDoj
MkA96KfBTNdBQP8lcUABqIvBd7kJQMiXX0AbZ5fBGAHeQNRQp0DGw7/BnZWyQH/Mm0BS877BH8X7
QCGal0BMSrjBfwTHQJIBI7+yirbBfgyAQLLEjsBEw5jByl66QHKez7+1Kq/Bz4uMQGcgYMA4X6DB
6sSkQNz6gECbmLbBdiHuQEx2eUDx7q/BQ+7EQFyTOT8BxrPBi12FQBeDhsCcw43Ba/eoQIpg8j13
O6LBXA6kQLG4AcDQ9ZHB1mqrQD7+n7+n66TBp4WeQLqXEcCRAp3BOjTCQLbIY0B31K7Bg9K1QNq9
jj9uiqnBS1qXQEMXP8D2PorBhInLQH3hMUCrn5vB/8GEQNWkUUByZJjBAM7zQO3gvkCsjofBp/HE
QK6ew0AJM4vBR2QCQXaYkUDPx4nBapCoQAm2oUAsuYXBQtLmQA6CXUCb7YTBiyi3QFuyZkBfgojB
DPKyQPN5JUA1GabBiLytQIUAw78YhXfBG5mGQD1ROUB2D6PB43uuQPTXUkDQEpTB1GJBQOyzYkBu
d5PBoy3wQGMaGEAVPZrB8tabQKGAMsCqkX7BGXnoQNg3vEDPIMbBmNSbQB2Sp0Djv8TBeZEOQVcv
oEB2+LjBrmHSQGg8bb9aXb7By69kQIS/rMCpW5vBUBa8QJafKsCEVrHB0WaIQIL+bMAlzKjBooGD
QKSib0AaGLbBYJwCQYB9YEBKUKrBBd/OQCbyvD8sdrnBii13QPI2nsCE+IfBbw+dQBdb0D7sdJrB
BiOyQI0xjL+0Xo/BUNEDQaIu1kA56IvB68X1QBhIxUAV1n3BXVa5QPa640BOD4nB4izDQM1rv0Dj
7JPBLHEDQcvJjEBye5LB4mcSQXpgjkA6OIbBNF2qQIkmpkCqAnrBvE6HQIcQpkDFZIjBroDyQJY7
HkDacofBnTToQAtGYkBwT3jBexSkQDGJOkCDloPB92SvQIr1wL/48GXBVhjOQHfQs7+jLn7B6EeZ
QGDyMr/WGX3BictaQHnLNUCW+KfB2ctBQMDXckCruYvBtPsJQKCRX0DHc5fB

> <OMEGA_E>
vBkNP1zQDz9IshA/

> <OMEGA_NBR>
      5644

$$$$
50157485
  -OEChem-04172616093D

 39 41  0     0  0  0  0  0  0999 V2000
    6.7872    5.4737  -23.8388 C   0  0  0  0  0  0  0  0  0  0  0  0
    5.8268   -1.7265  -21.7641 C   0  0  0  0  0  0  0  0  0  0  0  0
    7.7669    4.9323  -22.9873 C   0  0  0  0  0  0  0  0  0  0  0  0
    5.4589    5.0186  -23.7570 C   0  0  0  0  0  0  0  0  0  0  0  0
    6.2933   -0.7779  -22.6961 C   0  0  0  0  0  0  0  0  0  0  0  0
    5.2887   -1.3007  -20.5374 C   0  0  0  0  0  0  0  0  0  0  0  0
    7.4164    3.9551  -22.0361 C   0  0  0  0  0  0  0  0  0  0  0  0
    5.1031    4.0437  -22.8060 C   0  0  0  0  0  0  0  0  0  0  0  0
    6.2328    0.6002  -22.4048 C   0  0  0  0  0  0  0  0  0  0  0  0
    5.2200    0.0726  -20.2454 C   0  0  0  0  0  0  0  0  0  0  0  0
    6.0683    3.5285  -21.9011 C   0  0  0  0  0  0  0  0  0  0  0  0
    5.6933    1.0419  -21.1737 C   0  0  0  0  0  0  0  0  0  0  0  0
    6.4049    2.7351  -19.4977 C   0  0  0  0  0  0  0  0  0  0  0  0
    4.1894    3.1487  -19.1280 C   0  0  0  0  0  0  0  0  0  0  0  0
    5.6364    2.5327  -20.7973 C   0  0  0  0  0  0  0  0  0  0  0  0
    6.0440    4.3795  -16.7003 C   0  0  0  0  0  0  0  0  0  0  0  0
    5.6854    2.9481  -17.0962 C   0  0  0  0  0  0  0  0  0  0  0  0
    5.4257    2.8768  -18.5337 N   0  0  0  0  0  0  0  0  0  0  0  0
    4.2497    2.8518  -20.4025 N   0  3  0  0  0  0  0  0  0  0  0  0
    3.0528    3.6018  -18.4754 N   0  0  0  0  0  0  0  0  0  0  0  0
    7.6016    2.5684  -19.2868 O   0  0  0  0  0  0  0  0  0  0  0  0
    7.0543    6.2375  -24.5541 H   0  0  0  0  0  0  0  0  0  0  0  0
    5.8828   -2.7806  -21.9924 H   0  0  0  0  0  0  0  0  0  0  0  0
    8.7909    5.2671  -23.0631 H   0  0  0  0  0  0  0  0  0  0  0  0
    4.7104    5.4180  -24.4252 H   0  0  0  0  0  0  0  0  0  0  0  0
    6.7001   -1.1089  -23.6402 H   0  0  0  0  0  0  0  0  0  0  0  0
    4.9294   -2.0257  -19.8220 H   0  0  0  0  0  0  0  0  0  0  0  0
    8.1794    3.5260  -21.4036 H   0  0  0  0  0  0  0  0  0  0  0  0
    4.0857    3.6839  -22.7644 H   0  0  0  0  0  0  0  0  0  0  0  0
    6.5987    1.3196  -23.1223 H   0  0  0  0  0  0  0  0  0  0  0  0
    4.8022    0.3966  -19.3037 H   0  0  0  0  0  0  0  0  0  0  0  0
    6.2375    4.4237  -15.6183 H   0  0  0  0  0  0  0  0  0  0  0  0
    6.9444    4.6963  -17.2469 H   0  0  0  0  0  0  0  0  0  0  0  0
    5.2083    5.0494  -16.9508 H   0  0  0  0  0  0  0  0  0  0  0  0
    6.5218    2.2798  -16.8435 H   0  0  0  0  0  0  0  0  0  0  0  0
    4.7856    2.6329  -16.5474 H   0  0  0  0  0  0  0  0  0  0  0  0
    3.4651    2.8426  -21.0224 H   0  0  0  0  0  0  0  0  0  0  0  0
    2.1995    3.7224  -18.9827 H   0  0  0  0  0  0  0  0  0  0  0  0
    3.0865    3.8079  -17.4974 H   0  0  0  0  0  0  0  0  0  0  0  0
  1  3  1  0  0  0  0
  1  4  2  0  0  0  0
  2  5  1  0  0  0  0
  2  6  2  0  0  0  0
  3  7  2  0  0  0  0
  4  8  1  0  0  0  0
  5  9  2  0  0  0  0
  6 10  1  0  0  0  0
  7 11  1  0  0  0  0
  8 11  2  0  0  0  0
  9 12  1  0  0  0  0
 10 12  2  0  0  0  0
 11 15  1  0  0  0  0
 12 15  1  0  0  0  0
 13 15  1  0  0  0  0
 13 18  1  0  0  0  0
 13 21  2  0  0  0  0
 14 18  1  0  0  0  0
 14 19  2  0  0  0  0
 14 20  1  0  0  0  0
 15 19  1  0  0  0  0
 16 17  1  0  0  0  0
 17 18  1  0  0  0  0
  1 22  1  0  0  0  0
  2 23  1  0  0  0  0
  3 24  1  0  0  0  0
  4 25  1  0  0  0  0
  5 26  1  0  0  0  0
  6 27  1  0  0  0  0
  7 28  1  0  0  0  0
  8 29  1  0  0  0  0
  9 30  1  0  0  0  0
 10 31  1  0  0  0  0
 16 32  1  0  0  0  0
 16 33  1  0  0  0  0
 16 34  1  0  0  0  0
 17 35  1  0  0  0  0
 17 36  1  0  0  0  0
 19 37  1  0  0  0  0
 20 38  1  0  0  0  0
 20 39  1  0  0  0  0
M  CHG  1  19   1
M  END
> <OMEGA_C>
4jDZQOwor0DTtb7BfHW6QGr/3L/QHK7BVIr4QJnVnUDl5bfBpq+uQGOYoEA9Dr7B/GLJQHQiR7+N
kbXB4DypQOh9pr+BTKTB6lLtQAEgfUABSrDB4kyjQOJlgUDJcrbB2nLHQFKkGT/0PLPB/AmnQITA
lD2r9qHBei/CQPXSYUBwNa/BLi+2QDtehT/HY6nBkvTMQFsLL0A8+5vBZg+GQLmESUApBpnBFl20
QMcXIkDvYKbBXmjBQLkkjEAsmoXBZu61QP+sPEAAxYjBUJ+tQF8dOEAORZTBnP2HQCKENkBTOKPB
S2FDQLaDZkCRzZPBQEDzQBpgJEBZS5rBOL3hQK+Zx0DUbsTBTEC8QCj2McBm8K/BfacMQeOLqEBA
gbjBU7uWQENgrUDAZsPBUWfWQPrwjb8VH73BAr6dQF6lAcB5k57BuN4CQdipYUCPOqvB472CQP7E
a0B0HbbBtCjTQOzoqD+A+rjB06uZQL4Uyz7zbZrBkJnHQLyOjUC05HnB3jjeQBZIlkCw+YnBF6qm
QKyUoUBKm4fBZLLQQFzoEUCRv4bBnSOZQIiBKEArYYTB2MNdQFvsNUDfLajBZMUMQH88bkCS3JfB
s4hFQNqzc0C0+ovB

> <OMEGA_E>
mCr3Pg==

> <OMEGA_NBR>
      6598

$$$$
50157488
  -OEChem-04172616093D

 33 35  0     0  0  0  0  0  0999 V2000
    6.7910    5.3082  -23.9545 C   0  0  0  0  0  0  0  0  0  0  0  0
    5.8500   -1.6722  -21.9331 C   0  0  0  0  0  0  0  0  0  0  0  0
    7.7611    4.8395  -23.0501 C   0  0  0  0  0  0  0  0  0  0  0  0
    5.4604    4.8637  -23.8482 C   0  0  0  0  0  0  0  0  0  0  0  0
    6.3331   -0.6804  -22.8078 C   0  0  0  0  0  0  0  0  0  0  0  0
    5.2877   -1.3052  -20.6964 C   0  0  0  0  0  0  0  0  0  0  0  0
    7.3990    3.9453  -22.0249 C   0  0  0  0  0  0  0  0  0  0  0  0
    5.0930    3.9713  -22.8229 C   0  0  0  0  0  0  0  0  0  0  0  0
    6.2673    0.6789  -22.4455 C   0  0  0  0  0  0  0  0  0  0  0  0
    5.2184    0.0530  -20.3304 C   0  0  0  0  0  0  0  0  0  0  0  0
    6.0499    3.5293  -21.8722 C   0  0  0  0  0  0  0  0  0  0  0  0
    5.7114    1.0631  -21.1971 C   0  0  0  0  0  0  0  0  0  0  0  0
    6.4033    2.7675  -19.4554 C   0  0  0  0  0  0  0  0  0  0  0  0
    4.1905    3.2194  -19.1059 C   0  0  0  0  0  0  0  0  0  0  0  0
    5.6338    2.5389  -20.7605 C   0  0  0  0  0  0  0  0  0  0  0  0
    5.4637    3.1804  -18.5327 N   0  0  0  0  0  0  0  0  0  0  0  0
    4.2451    2.8313  -20.3583 N   0  3  0  0  0  0  0  0  0  0  0  0
    3.0299    3.5980  -18.4528 N   0  0  0  0  0  0  0  0  0  0  0  0
    7.5879    2.5669  -19.2153 O   0  0  0  0  0  0  0  0  0  0  0  0
    7.0672    6.0081  -24.7292 H   0  0  0  0  0  0  0  0  0  0  0  0
    5.9110   -2.7140  -22.2110 H   0  0  0  0  0  0  0  0  0  0  0  0
    8.7863    5.1666  -23.1424 H   0  0  0  0  0  0  0  0  0  0  0  0
    4.7192    5.2077  -24.5545 H   0  0  0  0  0  0  0  0  0  0  0  0
    6.7558   -0.9632  -23.7605 H   0  0  0  0  0  0  0  0  0  0  0  0
    4.9094   -2.0648  -20.0283 H   0  0  0  0  0  0  0  0  0  0  0  0
    8.1539    3.5723  -21.3486 H   0  0  0  0  0  0  0  0  0  0  0  0
    4.0737    3.6198  -22.7593 H   0  0  0  0  0  0  0  0  0  0  0  0
    6.6420    1.4333  -23.1213 H   0  0  0  0  0  0  0  0  0  0  0  0
    4.7856    0.3289  -19.3801 H   0  0  0  0  0  0  0  0  0  0  0  0
    5.6667    3.4192  -17.5830 H   0  0  0  0  0  0  0  0  0  0  0  0
    3.4510    2.7453  -20.9600 H   0  0  0  0  0  0  0  0  0  0  0  0
    2.1561    3.5867  -18.9390 H   0  0  0  0  0  0  0  0  0  0  0  0
    3.0654    3.8828  -17.4948 H   0  0  0  0  0  0  0  0  0  0  0  0
  1  3  1  0  0  0  0
  1  4  2  0  0  0  0
  2  5  1  0  0  0  0
  2  6  2  0  0  0  0
  3  7  2  0  0  0  0
  4  8  1  0  0  0  0
  5  9  2  0  0  0  0
  6 10  1  0  0  0  0
  7 11  1  0  0  0  0
  8 11  2  0  0  0  0
  9 12  1  0  0  0  0
 10 12  2  0  0  0  0
 11 15  1  0  0  0  0
 12 15  1  0  0  0  0
 13 15  1  0  0  0  0
 13 16  1  0  0  0  0
 13 19  2  0  0  0  0
 14 16  1  0  0  0  0
 14 17  2  0  0  0  0
 14 18  1  0  0  0  0
 15 17  1  0  0  0  0
  1 20  1  0  0  0  0
  2 21  1  0  0  0  0
  3 22  1  0  0  0  0
  4 23  1  0  0  0  0
  5 24  1  0  0  0  0
  6 25  1  0  0  0  0
  7 26  1  0  0  0  0
  8 27  1  0  0  0  0
  9 28  1  0  0  0  0
 10 29  1  0  0  0  0
 16 30  1  0  0  0  0
 17 31  1  0  0  0  0
 18 32  1  0  0  0  0
 18 33  1  0  0  0  0
M  CHG  1  17   1
M  END
> <OMEGA_C>
DlDZQHLcqUC6or/BaDO7QDEJ1r/6dq/BJFv4QGvdmkCTZrjBQruuQDijm0Asyb7BiqjKQPYxLr9X
drbBpDSpQC0Rp79GkqXBqMTsQHR/fED0MrDBfvmiQAQpfkBmlbbBvo3IQCbKLT9RkLPBVP2mQEgt
WT2jpKLBEpnBQNngYUBO+q7BlMO2QO8UiD+mk6nBDujMQK0eMUCppJvBthiGQJwKTkDg2JjBEEi0
QL98IkCCFabBsNauQFCMS0DhQpTBKtiHQHY0NUDl3aLBYulBQMRFZkBMn5PBatDyQH5HJEDvuJnB
gybiQFpCwEBh1cXB+ia9QBmyLcAzsLHBk5QMQWFUpUC3I7nBFgSXQDqlpkCfb8TBjS/YQJOWdr+S
Fb7BlBmdQA8lBMD8OaDBa3YCQeCgZEDWyarBF1yCQA+qZ0ANE7bBQYvUQKl3tz91+LjB4yOZQDVh
qD6ACpvB51W1QIHUWkATqozBU91cQK6zL0AMrqfBqf0JQAuMZUAUg5fBvy5EQLp/eEBz9YvBte60
QAH74r8/OrHBbnEfQTwZIkBHZZHBb5m6QCES37+tFKbBASyyQLO2Eb83+rbBgoYRQS7KwT/bAo7B
bvIYQdEEW0Bad5nBa1y9QOaQAr+XsKDBU/i1QLUbKj+xprHBiT/6QN6OsT+Uq5LBBsYEQZXRUUDJ
Up7BjBS8QO9kOD/zYKbBwPTsQEnKD0D5GJvBKE6zQHXoUUB/VKfBz/ODQBUTR0DddJnBaxHAQEy8
BECEUKDBu0WPQK1mdEDUpqLBXBOfQIXeB0BE0JfB1R9CQPysWkAhCJPB/zLEQP10bUDafq/BubSy
QOAELsCsXLXBqxQvQZNxKEBLzo3BH9e8QKGpKsAhpKHB0hytQIM5F7/Ihb/BB30WQeywUz/10ofB
RHwjQX8Hh0DP85vBkoHAQPhN/74NFpjBIjm0QKuLyj/NLrbB96vkQDC6Hz9Vy4/B7xAAQXyAfUCE
l6TB47l+QGySk0CYeKXB6JWdQF2hvj/HopHBsME1QIxuN0AViYzBMDscQNcEhkCF5pTB

> <OMEGA_E>
imUVP5zvnj8=

> <OMEGA_NBR>
      8101

$$$$
408836
  -OEChem-04172616093D

 55 58  0     1  0  0  0  0  0999 V2000
    6.8676    5.2724  -23.9689 C   0  0  0  0  0  0  0  0  0  0  0  0
    5.9749   -1.6445  -21.8608 C   0  0  0  0  0  0  0  0  0  0  0  0
   10.6984    4.5444  -17.8250 C   0  0  0  0  0  0  0  0  0  0  0  0
    5.5307    4.8409  -23.8845 C   0  0  0  0  0  0  0  0  0  0  0  0
    7.8097    4.8275  -23.0252 C   0  0  0  0  0  0  0  0  0  0  0  0
    6.8413   -0.6921  -22.4296 C   0  0  0  0  0  0  0  0  0  0  0  0
    4.9966   -1.2388  -20.9339 C   0  0  0  0  0  0  0  0  0  0  0  0
    9.5952    5.3823  -17.5737 C   0  0  0  0  0  0  0  0  0  0  0  0
   10.6060    3.1625  -17.5682 C   0  0  0  0  0  0  0  0  0  0  0  0
    5.1306    3.9724  -22.8518 C   0  0  0  0  0  0  0  0  0  0  0  0
    7.4132    3.9676  -21.9865 C   0  0  0  0  0  0  0  0  0  0  0  0
    6.7208    0.6683  -22.0854 C   0  0  0  0  0  0  0  0  0  0  0  0
    4.8741    0.1194  -20.5850 C   0  0  0  0  0  0  0  0  0  0  0  0
    8.3931    4.8397  -17.0823 C   0  0  0  0  0  0  0  0  0  0  0  0
    9.4082    2.6168  -17.0659 C   0  0  0  0  0  0  0  0  0  0  0  0
    6.0579    3.5463  -21.8688 C   0  0  0  0  0  0  0  0  0  0  0  0
    5.7142    1.0963  -21.1798 C   0  0  0  0  0  0  0  0  0  0  0  0
    8.2805    3.4449  -16.8447 C   0  0  0  0  0  0  0  0  0  0  0  0
    6.3596    2.7858  -19.4613 C   0  0  0  0  0  0  0  0  0  0  0  0
    4.1421    3.2283  -19.0330 C   0  0  0  0  0  0  0  0  0  0  0  0
    5.5950    2.5748  -20.7604 C   0  0  0  0  0  0  0  0  0  0  0  0
    6.8124    4.1170  -14.1956 C   0  0  0  0  0  0  0  0  0  0  0  0
    6.8519    2.7309  -14.8724 C   0  0  0  0  0  0  0  0  0  0  0  0
    5.6938    3.4811  -17.0493 C   0  0  0  0  0  0  0  0  0  0  0  0
    6.9517    2.7933  -16.4200 C   0  0  1  0  0  0  0  0  0  0  0  0
    4.2066    2.8987  -20.3804 N   0  0  0  0  0  0  0  0  0  0  0  0
    5.4221    3.1156  -18.4684 N   0  0  0  0  0  0  0  0  0  0  0  0
    3.0369    3.5652  -18.4127 N   0  3  0  0  0  0  0  0  0  0  0  0
    7.5406    2.4963  -19.3355 O   0  0  0  0  0  0  0  0  0  0  0  0
    7.1696    5.9449  -24.7581 H   0  0  0  0  0  0  0  0  0  0  0  0
    6.0606   -2.6854  -22.1354 H   0  0  0  0  0  0  0  0  0  0  0  0
   11.6154    4.9611  -18.2147 H   0  0  0  0  0  0  0  0  0  0  0  0
    4.8094    5.1774  -24.6145 H   0  0  0  0  0  0  0  0  0  0  0  0
    8.8389    5.1465  -23.0984 H   0  0  0  0  0  0  0  0  0  0  0  0
    7.6001   -1.0052  -23.1315 H   0  0  0  0  0  0  0  0  0  0  0  0
    4.3387   -1.9709  -20.4894 H   0  0  0  0  0  0  0  0  0  0  0  0
    9.6716    6.4437  -17.7583 H   0  0  0  0  0  0  0  0  0  0  0  0
   11.4541    2.5209  -17.7565 H   0  0  0  0  0  0  0  0  0  0  0  0
    4.1080    3.6277  -22.8083 H   0  0  0  0  0  0  0  0  0  0  0  0
    8.1441    3.6227  -21.2701 H   0  0  0  0  0  0  0  0  0  0  0  0
    7.3991    1.3915  -22.5135 H   0  0  0  0  0  0  0  0  0  0  0  0
    4.1342    0.4207  -19.8582 H   0  0  0  0  0  0  0  0  0  0  0  0
    7.5520    5.4879  -16.8851 H   0  0  0  0  0  0  0  0  0  0  0  0
    9.3495    1.5606  -16.8480 H   0  0  0  0  0  0  0  0  0  0  0  0
    6.7419    3.9913  -13.1051 H   0  0  0  0  0  0  0  0  0  0  0  0
    7.7298    4.6715  -14.4421 H   0  0  0  0  0  0  0  0  0  0  0  0
    5.9373    4.6767  -14.5574 H   0  0  0  0  0  0  0  0  0  0  0  0
    7.7258    2.1829  -14.4901 H   0  0  0  0  0  0  0  0  0  0  0  0
    5.9332    2.1880  -14.6054 H   0  0  0  0  0  0  0  0  0  0  0  0
    4.8152    3.2003  -16.4500 H   0  0  0  0  0  0  0  0  0  0  0  0
    5.8391    4.5703  -16.9988 H   0  0  0  0  0  0  0  0  0  0  0  0
    6.9660    1.7558  -16.7852 H   0  0  0  0  0  0  0  0  0  0  0  0
    3.4246    2.8832  -21.0035 H   0  0  0  0  0  0  0  0  0  0  0  0
    3.0559    3.7733  -17.4347 H   0  0  0  0  0  0  0  0  0  0  0  0
    2.1751    3.6140  -18.9176 H   0  0  0  0  0  0  0  0  0  0  0  0
  1  4  1  0  0  0  0
  1  5  2  0  0  0  0
  2  6  1  0  0  0  0
  2  7  2  0  0  0  0
  3  8  1  0  0  0  0
  3  9  2  0  0  0  0
  4 10  2  0  0  0  0
  5 11  1  0  0  0  0
  6 12  2  0  0  0  0
  7 13  1  0  0  0  0
  8 14  2  0  0  0  0
  9 15  1  0  0  0  0
 10 16  1  0  0  0  0
 11 16  2  0  0  0  0
 12 17  1  0  0  0  0
 13 17  2  0  0  0  0
 14 18  1  0  0  0  0
 15 18  2  0  0  0  0
 16 21  1  0  0  0  0
 17 21  1  0  0  0  0
 18 25  1  0  0  0  0
 19 21  1  0  0  0  0
 19 27  1  0  0  0  0
 19 29  2  0  0  0  0
 20 26  1  0  0  0  0
 20 27  1  0  0  0  0
 20 28  2  0  0  0  0
 21 26  1  0  0  0  0
 22 23  1  0  0  0  0
 23 25  1  0  0  0  0
 24 25  1  0  0  0  0
 24 27  1  0  0  0  0
  1 30  1  0  0  0  0
  2 31  1  0  0  0  0
  3 32  1  0  0  0  0
  4 33  1  0  0  0  0
  5 34  1  0  0  0  0
  6 35  1  0  0  0  0
  7 36  1  0  0  0  0
  8 37  1  0  0  0  0
  9 38  1  0  0  0  0
 10 39  1  0  0  0  0
 11 40  1  0  0  0  0
 12 41  1  0  0  0  0
 13 42  1  0  0  0  0
 14 43  1  0  0  0  0
 15 44  1  0  0  0  0
 22 45  1  0  0  0  0
 22 46  1  0  0  0  0
 22 47  1  0  0  0  0
 23 48  1  0  0  0  0
 23 49  1  0  0  0  0
 24 50  1  0  0  0  0
 24 51  1  0  0  0  0
 25 52  1  0  0  0  0
 26 53  1  0  0  0  0
 28 54  1  0  0  0  0
 28 55  1  0  0  0  0
M  CHG  1  28   1
M  END
> <OMEGA_C>
hcPbQHy3qEBCwL/BGzK/QKR90r/94q7BmywrQXNrkUCimY7BUvuwQP/omkB5E7/BF+n5QIB6mkCv
M7jBGOzaQFEuMb/ob7PBUOSfQLCQnr+ZeKfBEYYZQRY8rEDwlozBQLIpQfpmSkCji4zBsi2kQLM7
fkCQ0LbBCTntQB7tfUBd5K/BoBDXQFkVKz/6rrDBufibQHyE9D0drqTB70kGQXTemkCWqIjBFogW
QWV5J0DehojBY9rBQC73YkBG867BYdq2QAJTjD84cKnByHwEQdt4XEAIwobBh4HLQNZJMkDFsJvB
ZYyEQM6bTkCEQ5jBcAqzQFDKJEBRFabBKv/ZQHS+g0A+IWPBKEPbQLDGLkA79W3B7zO2QAzLXkDi
ZIjBD3TeQEbFMkAlXIPBjZyGQLeEOUAmC6PBIYKtQJFmR0BPv5PBa1xCQM0rZEAlTZPB/UzxQDrD
H0AYr5rBI23lQNs8vkCoEMbB1PDBQC/eK8BiFbHBndg5QUfBnkC5t5HBteaZQGitpUCY6sTBHGwN
QV6wpECYybjBVzTzQMGqgL9ADbnBxdaKQBRH/L9U6qPB5L4aQbgyzkAREY7B3kM3QatVIUBEDY7B
rnSDQPkraEBmd7bBH04CQYPaZ0AUKarBWsXsQLkcsj+3G7TBmEuEQCBh1z6r3Z7BOarxQJGcr0Ca
FIfBoJcVQf7Bxz/HyIbBn73XQIxxf0B6rlHB7Vr3QFF9lUDhEmfBGv69QHWnlUAi62jBujn3QHu0
C0Ce12fB59y9QMQIDEDfr2nBbBaaQBLRTECDmYPButm6QEhAkkCk/YfBceneQHu94D8TSIbB6yxb
QO+FOEA+B6jBr5NDQBx9cUBaeovBDzULQKFLZ0A/V5fBILHXQCpFr0BHOb/BLXfDQKTp07+Ay6zB
vJAtQZcjf0AoAI7Bs3ytQLC+n0BquL7BG6L2QBgAoEAf/LfBEQrQQCplN7+YmLTBABqwQJqqnL/l
P6PBOqEkQc38cUBtyIPBLb0gQQpij0AZYpbBtQyiQIJugUDt5bbBv0/rQJatgUBPIrDBzcfJQJQa
KT983LLBzBqpQGhtFT7okKHB5M0OQSSUgUDW+4HB6gwLQecqmUAGhJTB0YbAQFuVZUBJUa/BVBS2
QHA5jT8+VKnBPtUBQdjQkUBiTorB9T3MQKdiMEB6RZzB19mFQGUSUUAVvZjBz8eyQA2BJUAKjKbB
D6iVQCoqzUCqb4rBWy/BQBpivkA0247Br6e6QFcsXUCzUInBQhPUQDMTmUAUE4jBacCGQB5hOUBD
YKPB5EuvQMZVSkAxgJTBxFZFQBtGZUAKrZPBC67vQGhHEUC4l5rBMlfgQOndxkCQJ8XBHLnIQDZm
LcDIJ67BXj4+QSf6cEDqZ4/BkdSVQGAZq0DSV8TBRpMLQcmOq0DacrjBY5HeQMwch79y87vBVaqm
QE+n+L86P53B9oYuQSi4WkCQpnrBK4gnQeEBlEA3Pp7B8b6BQPVeakCLqbbB9a0BQZ5ea0B5s6rB
sgPUQDcxsD92zbjBLrSZQOIg9D5lTJrBY+8HQddtd0CKYnTBUWYBQVZSpkA54prB2DyJQJp250C8
ZI/Bz/N9QPNAskA+morBzKOZQOtV2ECWJoLBbvO8QC1ss0DJJpfBUp3XQCWB2UAgs47Bel7OQBJf
KEAPOIbBkAadQBLnYUDrmYTBE0bRQJ6tokBVRn/B2XVaQNdBNkCxL6jBtgxHQJQXckBJ14vBV80N
QODoZ0Bao5fBuF3gQMUDqEA4Br/BuJa7QBDZ078pdK/BMOkYQZMZ2UDlX5DBILr7QAtiiEAJ1rrB
FUO2QKXmq0CjI7vBseKzQKzLKb83N7fBCu6/QPYHpr8Bn6TBfbgEQUcM0UAE4pTBGZYgQUvXvkCI
E4jBVPjsQNQjWUCxxrLBomunQFNKkEB2DbPBEAOxQBaKMD9FL7TB5wK9QCxRVz1VjaHBIBXwQEFf
r0BM85DBV0UUQYEWnEDeZITBCKPCQNpyYED/xK7BRqe2QOmYiD80WanB4Ef/QMYRlEAupIjBBrHL
QNciM0ASvZvBslOEQOeVTUA+U5jB5b2yQFeUIkAYAqbBvp3WQAFajUBdCmTB7bXnQM5PTUDkrnDB
ko21QMyLWkBdT4jBfH7lQHYTWUD5tITByh6GQPB1M0Bh8KLB2ZGtQGb3SUA/4pPBcR1CQGNgZEBP
Z5PBFn7yQK4GKUDc6prBka3rQJVLvUCHN8XBbiq+QPs1LMDV0LHB0oQiQWJi80CBRZPBJQYOQZhy
hUBbzr3BCkqhQJAixEBOX77BZyywQC3tcL9bg7/BgIHFQETNA8BWqZ7BN9/9QKS55EDAXpvBBv0v
QUhcxUCug4TBIgUBQeaFKEBNnq/Bgx6HQC+Hk0C/FrDBLXmqQHDNuD83JrrBO5+/QHHToz7jNJnB
l57QQIkcqkBGRpTBTqAaQQtRh0DGhnzB9y/ZQDznhkBByVLByY7pQDDpqUBVD2jBjeO0QOHjkkCk
P2jBtacEQRfMQkB8JGzBMKTUQHrBFEDLVGzBS12kQJh0KUBSsYPB0nioQJMJjUD5Y4bB5jj0QCkb
IEAHVojBXqRZQCsWLUC8xafBdPhDQJZ5dUClsovBonkKQNunZEBNW5fBR4rbQEHDp0BZuL/B1DC/
QKC10r+e6a7B5KQVQbsL3EBPPZHBHZq5QOLMikAyTcHBrW/wQKygqUBTwrXBLHHbQNF+Mb/gQrPB
pj+fQDEgn7/PpqfBJVcAQd/44ECdw43B0IcfQXSWs0DevZDBL6+sQIz/XkCr8bjBbITjQOiTjkBK
Xq3BoonXQG4nKj9Ib7DBxR2bQPbD6T0416TB8b7pQP54vUBn0YnBWCYUQVodkECBuozB9KTBQD6q
YUAT6K7Bm5G2QGZkiz+3ZanBTlv9QBeglEDpTInBFmjLQIGzL0AQnZvBKN6EQDQSUUDcX5jB6uGy
QPcuJEAiB6bBiDLWQD1Ej0A1RmTBL8LqQIN5VECu2nDBfcK1QFqiVUBNQYjB1L3lQO/fWkDyvYTB
97iGQADDOkCNIqPBS26uQKWxT0CcApTBp3FCQLjzYkBdTZPBCIfxQOXHHkBKpZrBuojlQOOMvECD
J8bBmQXCQKriK8BSJbHBbWIeQQhD90AuSJTBbXapQG+HiUBX78jBszgFQZ/fv0BMjrTBnSL0QNiJ
gL9TxbjBMOGJQBr+/L9zO6TBbY7xQL4BAEG7H47BFdYvQbq/r0Ccb5PByJqSQGbEMkCbMrrBSWvz
QMFokED/taXBIcXtQGuksT9dpLPB/d2CQK1u1D6aLJ/B9hPJQKVrwUBALYfBY94bQQGAYkDMQ4zB
O1PbQONSikDMCVPBDurkQPezrUDZLGnBiaezQPk9kECkn2fBEJIGQWw7U0CeGG3Bm+HbQHBPGEBo
i2vBYJCnQHaqHEDNfoTB5mSlQOqth0D9UIXBmIv1QF4MIkBIHYjBCY9bQEYsOkBaJajBhOBDQNmJ
cUDLg4vBbKoKQAD/YUAaOZfB3BbgQId3p0BJSb/BJue5QK790r9CXK/BQF8uQa8sUkC9f4vBCWT7
QLaoh0AjJ7vBJE22QMHuq0AhO7vB6PWxQK5FKL+dHLfBAGW/QIappL/3kKTB/PgeQZsGHUCIs4bB
nuYoQUAYk0C8dY7BBeLsQHR0WED1+rLBS7GnQMCtkEDJC7PBZPKvQOioMj/sGrTBqV+9QJAXiD36
haHBoBsKQeK3O0D/4YTBTOITQeErokCt9IzBxdDCQLe+YEA7167BYLq2QBIfij8lUKnB0ucDQeha
h0BPaYjBrxbMQBt5NUBwwpvBKK2EQIpoTkCaWZjBLCSzQP59I0ByAabBaQygQF4Qz0CJCY3BJU3O
QGaLvkAXTI7BF3a3QHu3ZEDxt4jBgwfZQPgLl0BV+obBX46GQMYuNEDV8aLBUlOuQBHJUEC7G5TB
9dJBQMQxYUByYpPBc4XyQM2LKEBAs5rBOzXrQCJvvEAikcXBAci7QHDuK8CxsrHBYl0+QZaLOkBQ
6IzB97wNQVJLhEBNQL7BhGWhQAdXxEDhaL7B1GetQKf0b7/VYL/BeirFQIQUA8AOnZ7BOycjQbcL
uT/TZ4TBBt40QXzhp0Df5pHBw/cAQZ25J0Cy16/BPKWHQDNflEA+8q/ByzGpQKjWuT9yDrrBnubA
QKh4rD6FNJnBJVT9QI/LE0BFwoDBh9oPQYx3wkCeR4/BWf+aQEGQ6kAmYpLBs3OJQKJmtUBpII/B
x7WaQNX/2ECDs4TBViHTQLcetUCHsJbBaWPkQOu32ECiQ4zBfLjDQKNYKkC83oTBZk+ZQFnyd0Ci
3YTB5LTVQInPoUAHSH3BYo5aQICeLUDyx6fBvSJDQLuac0B1uYvBAPsJQEAbXUBVQpfB/STaQOVJ
qEB787/BtwDAQEfS0b/AO6/BlPcBQTta3EBy7qHBdHGvQBxdmkA2KL/BUbj4QDPkmUBgg7jBucfj
QE7rSL+2j6/B7syXQGF0kb87JKzB6LzZQJht20DS953BmQESQVybw0AR/JzBvDWjQO7AfEBo4LbB
ro/sQM01fEBRLrDB4l3fQETGEj8d0KzBp0eTQBp0Xz7iU6nBw5XPQEvhwUDcCZXBNOUMQUJ3qUAu
KpTBqFzBQLBWYUADG6/BChO3QGyuiz+foanBFl7vQKrfp0BFOpDBCa7LQNsIMEDSn5vBdPmEQDyP
UEC8VZjBrxOzQIS7I0AjIabB2gjeQCe+gUCke2XBa/rlQFdUoECDfHjBhl+4QO6JY0BdxojBWGzk
QBasiEANIIfBf7uGQGxtOUBmB6PBSYCuQOdQT0AuG5TB/iRDQFZeZEDfRpPBPnTxQHrqHkAJA5rB
62/jQLr+vUCbQsbBEmjDQHKRK8DTWrHBxNgFQd4I8EBqw6jBewSYQK4opUBY6MTB3cwMQXYtpEAw
MrnBNFEBQbf2lb9Q7LHB07R4QKFj5b/D7avBlCbBQE9U7kDpx6HBWTkiQcytxECC9J/BIYyCQEBy
ZkDXbrbBOiYCQSDUZUAbj6rBed/6QMftnD8eIa3Bc79oQMmxGD+m66bBYnivQBUcwkDO2JHBlDoZ
QQ+MlkDFY5DB4GzfQF7bk0CFaFbB8Ui+QFDSZUBgJGfB6bv2QDNUUUCwXWXBqj7NQN9fuUCsYXjB
0dgCQdEgr0D8mnbBrrK4QF9WJ0CuNoTB7ACfQGPChkD1qYXB30L9QAd5X0Dz+4bBPxRbQLyoN0Dt
9KfBIiZFQOLWdEDljIvB6yQLQAsBY0BgJZfB1bfVQP65r0BezL7BHVvIQCHL07/34K3BzdssQZHI
gUC+m47BVz/1QHRnnkCrBbjBv/WqQLQvokCo1r3BfIjRQEoELL89obXBc1u2QAiLpL+gAKTB3g8k
QQB6eEDMUoTBh9YfQSgZkEBrFJfBMhLqQEBcf0AFQbDB4pqfQBy5g0CoCbbBelHJQOrNLz82grPB
QGmtQGBQhj0j7KHBazYOQVaXhEB3hoLB/xoKQS+AmUBpO5XBK+G+QEAwZUD//q7BDzq3QO61iD+0
mqnBQg0BQcaSk0CL64rBXmPLQJ5JLUBzKJzB6JaFQFC5UkBAypjBj/CxQG9NIkAEc6bBUNTRQDim
6UBCAo7B3gC9QEGRvUB6to/B5Qi6QEj5XkBVZInBdWHSQLeLmkA8oIjBjJiFQK5UMkDNGKPBbo2u
QH6PSEACcpTBKeBHQCICckCI8ZPBV/buQBr9DkApbprB9FXeQAVdx0DRuMTBvinPQBVdLMCJh6/B
bJQ9QZUedkDl/o/BSg0LQayvqEAHx7jBdMySQGctr0D3F8PBbfPeQA+Jdr9zPr3BrnKvQFZlAsDG
C57BExYuQZ4jY0Agn3vB14MmQfrdk0Ao/p7BuUoBQZL3Y0CTN6vBB4V9QPeMckBbZ7XBwtPQQErY
tz9fcLnBWuueQCxOsT41aJrBYXcHQaMEf0CYWHXB9EUAQXNJpUCEspvB0O3BQK25AEFsIZPBZXzO
QEoc80DwkoXBvPnzQO7o50DsGZDBbtqaQEKsv0BFpY3BxVfAQOZ4tEBCLJjBPnvOQNQKLEDVG4bB
84ecQESvY0DtoITBMMDPQCZzpUDfSIDBOiJXQDeOJ0AfjafBvitMQAHIgkBQWIzB4CMQQHBddkB2
1pfB8s7bQJ4SqUAvor/BkeO9QOOs0r/L8a7BEM8XQUVG3ECtJ5HBzMGwQAdInEBAzr7BgCb6QG6x
mUDaRLjByqvJQMZaJ7/2X7bBHcKuQFOKo79pwaTB3IUDQW9V00BZcZXBLwQgQZOUwkDi4YjB/tuj
QNeVgECZiLbBrHTtQNW5e0CUBLDBa2fGQGJUNT+7pbPBylWrQBReqD2O/6HBRX3uQP1usUANS5HB
UR4UQaqXn0CU/oTB09TBQHWFY0Cf3K7Beyi3QCu5iz/IZqnBJKP+QDvBlkBr9ojBPtLLQMCLMUCA
rZvBFc2EQIMVUECebJjBiUmzQC8yJEBUGqbBn1nUQN3PAkAZ/WfBcW3nQIGkV0Dgj3DB4se1QDVE
W0A5dojB+7zlQKLvXUDQu4TBbqaGQCl2NkCeC6PBsSiuQDMvTkBmD5TBUM1CQMerZEDIZ5PBds7x
QKGWIEAhcJrB14nlQAGwvkDI68XBTXbAQO0lLMBVELHBvBEhQY7J9kBuM5TBzo6ZQDK/p0BNiMTB
bZ8NQX5Eo0Bg87jB7z/VQNVBcL+zML7BrsalQHJ/AsDSDZ/B4q36QK2A5kDn7pvBO4IvQfSyyUCK
foXBLduCQLURbUD4BbbBpocCQX8gY0C4garBponPQLl8uz88YLnBr5ufQB81uD4bLprBm+XOQICF
q0AGeJTBMe4aQdI0i0Cqz33BEmPWQCXtAUBoa1bB1qSyQG6L+z8J52zBZHfmQFXzmD9Rj27ByzHV
QJmuhkBswmnBLYIEQSYRXECzamvB/fSlQE+tJkDVJoTBruqmQBs6jEBAMobB/471QOOdJEDQ94fB
hslaQAQqMUC36afBjbNEQEkldUC7rYvBa+4KQNHjY0BlTpfB8Z6zQGB6KL86t7jBOEf9QEDRAb+k
eH7BJNfHQBDjSkDonb7BjPWRQKARTr+QV7HBOPvXQAB9vz0A7LXBovj7QEBIk78TRInBpHTnQEAF
NT9nYHvBTsmiQOBIaUDcbbnB7KXwQDDiX0C6mLrB8TeUQIDXN74ARafB4mDaQADLOD8M2avB7izl
QGBgFL+J1pHBKCzQQLCZoj9yKobB53amQMjAjkAGSLDBqGX0QGh8iUDIXLHBQO+3QKDaHz+me6TB
XufOQMB9Ij+CVZDBrF3PQMTYmEDJF6zBxNHOQIjnLEBmV5rBoEeHQKgdREBWCpfBxNq4QJBfrT9G
kJnB9uTuQATJ9UC64qrBEnHMQNiU4kB2jaPBHgi2QLpuo0DAqpjBDGHUQGyhskAKraHB98uMQMDq
2D8jdJbBAA2vQMgdakDo4JjBEGhFQECsa0C2zJXBpqL1QDDHOEAkuprBU46xQEmHj7/vgMDBEYsH
QeKqcr8Nc3HBQfXEQJp5I0CQrcXBip5sQJIRs7+KabPBpyXyQHP/QT6Kg7vBVUgGQR+dBcBFYYrB
jproQEwMmj9pCmzBcImDQLiJWEDMd7zBlIMGQW7OSEBomL7BZvp0QEVGoL7TmaHBw6j2QFkhpD9M
tqnBgLjkQPrIiL9pipnBTgu/QFuLDEDl84TBSQqKQCQYm0C0dKzBLtoJQVZmkUC/SK7BTnPoQLQG
DEGAF6zBxUQHQavI8UCsKafB4mDuQKBD5UC0p7LBjAvNQBNU80BX0JvB5OKsQAjP5kBfTqfBnRnE
QGYtrED85pDBJ/+WQFaas0CCnZnBWHn1QBSyrkAq2J7ByqhsQPDRhD/EQZTBw/RCQODIlUDHIpbB
CvUPQPQASkDvg5TB

> <OMEGA_E>
WPJTPyDBVz+43lc/PMVYP2reWD+AtVw/kvldP7wmUD96XJ8/

> <OMEGA_NBR>
     16577

$$$$
50225087
  -OEChem-04172616093D

 47 50  0     1  0  0  0  0  0999 V2000
    6.1850   -1.3164  -21.7720 C   0  0  0  0  0  0  0  0  0  0  0  0
    6.6846   -0.2920  -22.5933 C   0  0  0  0  0  0  0  0  0  0  0  0
    5.4189    0.3480  -20.1700 C   0  0  0  0  0  0  0  0  0  0  0  0
    5.6524   -3.2903  -19.5574 C   0  0  0  0  0  0  0  0  0  0  0  0
    3.8026   -1.8491  -18.9637 C   0  0  0  0  0  0  0  0  0  0  0  0
    4.0058   -3.9892  -18.0539 C   0  0  0  0  0  0  0  0  0  0  0  0
    5.5335   -0.9968  -20.5626 C   0  0  0  0  0  0  0  0  0  0  0  0
    4.9907   -2.0544  -19.6953 C   0  0  0  0  0  0  0  0  0  0  0  0
    6.5608    1.0573  -22.2058 C   0  0  0  0  0  0  0  0  0  0  0  0
    5.9610    1.3804  -20.9630 C   0  0  0  0  0  0  0  0  0  0  0  0
    6.4725    2.8884  -19.0542 C   0  0  0  0  0  0  0  0  0  0  0  0
    4.2322    3.3048  -18.9436 C   0  0  0  0  0  0  0  0  0  0  0  0
    7.1598    2.1254  -23.0958 C   0  0  0  0  0  0  0  0  0  0  0  0
    6.5894    3.8528  -21.3603 C   0  0  0  0  0  0  0  0  0  0  0  0
    5.8810    2.8165  -20.4455 C   0  0  1  0  0  0  0  0  0  0  0  0
    6.5141    3.5110  -22.8655 C   0  0  0  0  0  0  0  0  0  0  0  0
    7.3343    4.5650  -23.6415 C   0  0  0  0  0  0  0  0  0  0  0  0
    5.0526    3.5367  -23.3899 C   0  0  0  0  0  0  0  0  0  0  0  0
    5.5154    3.2603  -16.7619 C   0  0  0  0  0  0  0  0  0  0  0  0
    5.1537   -4.2355  -18.7337 N   0  0  0  0  0  0  0  0  0  0  0  0
    3.3247   -2.8217  -18.1614 N   0  0  0  0  0  0  0  0  0  0  0  0
    5.4373    3.2823  -18.2271 N   0  0  0  0  0  0  0  0  0  0  0  0
    4.4759    3.1973  -20.2297 N   0  3  0  0  0  0  0  0  0  0  0  0
    2.9675    3.4477  -18.3948 N   0  0  0  0  0  0  0  0  0  0  0  0
    7.6230    2.6108  -18.7334 O   0  0  0  0  0  0  0  0  0  0  0  0
    6.2999   -2.3491  -22.0667 H   0  0  0  0  0  0  0  0  0  0  0  0
    7.1665   -0.5401  -23.5274 H   0  0  0  0  0  0  0  0  0  0  0  0
    4.9095    0.5935  -19.2499 H   0  0  0  0  0  0  0  0  0  0  0  0
    6.5596   -3.4815  -20.1113 H   0  0  0  0  0  0  0  0  0  0  0  0
    3.2744   -0.9107  -19.0462 H   0  0  0  0  0  0  0  0  0  0  0  0
    3.6180   -4.7557  -17.3993 H   0  0  0  0  0  0  0  0  0  0  0  0
    8.2370    2.1978  -22.8855 H   0  0  0  0  0  0  0  0  0  0  0  0
    7.0098    1.8355  -24.1462 H   0  0  0  0  0  0  0  0  0  0  0  0
    6.1172    4.8338  -21.2035 H   0  0  0  0  0  0  0  0  0  0  0  0
    7.6489    3.9052  -21.0692 H   0  0  0  0  0  0  0  0  0  0  0  0
    6.8902    5.5600  -23.4903 H   0  0  0  0  0  0  0  0  0  0  0  0
    8.3709    4.5665  -23.2734 H   0  0  0  0  0  0  0  0  0  0  0  0
    7.3262    4.3191  -24.7136 H   0  0  0  0  0  0  0  0  0  0  0  0
    4.6169    4.5314  -23.2144 H   0  0  0  0  0  0  0  0  0  0  0  0
    5.0462    3.3187  -24.4680 H   0  0  0  0  0  0  0  0  0  0  0  0
    4.4593    2.7778  -22.8588 H   0  0  0  0  0  0  0  0  0  0  0  0
    4.5661    3.6199  -16.3381 H   0  0  0  0  0  0  0  0  0  0  0  0
    5.7031    2.2317  -16.4202 H   0  0  0  0  0  0  0  0  0  0  0  0
    6.3360    3.9128  -16.4287 H   0  0  0  0  0  0  0  0  0  0  0  0
    3.8054    3.3516  -20.9554 H   0  0  0  0  0  0  0  0  0  0  0  0
    2.1643    3.4745  -18.9899 H   0  0  0  0  0  0  0  0  0  0  0  0
    2.8582    3.5239  -17.4037 H   0  0  0  0  0  0  0  0  0  0  0  0
  1  2  2  0  0  0  0
  1  7  1  0  0  0  0
  2  9  1  0  0  0  0
  3  7  2  0  0  0  0
  3 10  1  0  0  0  0
  4  8  1  0  0  0  0
  4 20  2  0  0  0  0
  5  8  2  0  0  0  0
  5 21  1  0  0  0  0
  6 20  1  0  0  0  0
  6 21  2  0  0  0  0
  7  8  1  0  0  0  0
  9 10  2  0  0  0  0
  9 13  1  0  0  0  0
 10 15  1  0  0  0  0
 11 15  1  0  0  0  0
 11 22  1  0  0  0  0
 11 25  2  0  0  0  0
 12 22  1  0  0  0  0
 12 23  2  0  0  0  0
 12 24  1  0  0  0  0
 13 16  1  0  0  0  0
 14 15  1  0  0  0  0
 14 16  1  0  0  0  0
 15 23  1  0  0  0  0
 16 17  1  0  0  0  0
 16 18  1  0  0  0  0
 19 22  1  0  0  0  0
  1 26  1  0  0  0  0
  2 27  1  0  0  0  0
  3 28  1  0  0  0  0
  4 29  1  0  0  0  0
  5 30  1  0  0  0  0
  6 31  1  0  0  0  0
 13 32  1  0  0  0  0
 13 33  1  0  0  0  0
 14 34  1  0  0  0  0
 14 35  1  0  0  0  0
 17 36  1  0  0  0  0
 17 37  1  0  0  0  0
 17 38  1  0  0  0  0
 18 39  1  0  0  0  0
 18 40  1  0  0  0  0
 18 41  1  0  0  0  0
 19 42  1  0  0  0  0
 19 43  1  0  0  0  0
 19 44  1  0  0  0  0
 23 45  1  0  0  0  0
 24 46  1  0  0  0  0
 24 47  1  0  0  0  0
M  CHG  1  23   1
M  END
> <OMEGA_C>
4+vFQNiAqL8BLa7BNujVQOiGlb7+vrTB8WetQKQpsj4tXKHBYuC0QPuUUsB1dZzBaV1zQOCu7L+P
tZfBpC+AQLdPf8BjbpDBwxKxQMkwf78vgKTBHbSfQKl7A8APkJ3BQPLRQDJUhz91pbHB1MC+QI6x
sD8ttKfB0B7PQHbbOEDzbpjBfW6HQIeBU0CFjJfBsBzlQPQGCEAixLjBktzSQAyVdkDq4arBETG8
QAxCNEBKkKPBoXPQQO+0YECD7LbBebLqQL4UkkDGIb3B266hQNRYYkB5HrvBQH6wQGmpUEBFGIbB
duukQCyJh8CT3pXBQsdUQAWWNMB9SpHBG/6tQMcRUkAD0ZHBizqPQAyhTEBW1qHByes9QMmmXECE
KJPB++/zQEAXJ0D13ZXB5ZjJQO9WFsC0iLDBA1TlQHtCCr8kOLzB2RqdQFHxFz/K/5nB8+fRQPnQ
XsAC5KDBR49RQBEjab+XXpjBCo1nQN8umMDHMYvB78oDQUipDECSFbfBoVDgQMzy6j+AK8HBwb/D
QOaumkC3oKnB+MP0QDPveUDNjajBtHzcQHvrsUAo7LvBJO8FQfQgkkABMLrBVXDqQBc2ikB9tcXB
1b2TQOcAkUAkt7nBEHqhQFZlVECOvsPBU7KOQBPHMUDV3rbBrh2SQA2sZ0BhtILBln+2QIHUDkCT
XIPBRMDKQFtrekAEboPB6ItzQNF/VkCcpKfBVoQKQMNeXkBS65fBf+02QPWHYUDHOovB36HNQIbu
rb+YV63BuHzcQNBlpb6XALTBFpOvQPj3lT7XPKHBT6W2QHRdVcBDzJvBTZR1QAxs7r/lT5jBS3F8
QPgDf8CvqJDBcBy2QMYDhr9gCaTBxI2iQOjUBcD/XZ3BaPvTQIZngz/Qc7HBzQa9QOaTqj/D/qfB
MM7NQEc+R0CrrZrBHp+GQEtoVkAj65bBK6LeQFCKBUBMt7nBTHu3QEJycUDbwa3Bi2CzQIMyMEAa
iaTBZqHdQEK2YkDrbbXBB2UEQdoAeUAXEbDB7D3XQAStj0BkE7/BdkC6QBy9aEA+mYfBQT+kQJdM
iMAjbZXBWWZSQOMGNMCWE5LBWViwQGb5YEALDJPBBVOHQCbuNUCXkaDBGrRCQHS+akCggpHBQIHz
QAtbNkAz9ZjBDjjUQGbkGMBaWa/BvofuQN//D780HrvBefOfQM7KBz/UxJnBI7/UQK0HY8Akr5/B
aN5UQEwKbL8zdJnBVjxgQFdtl8Dag4vBGvX+QP448T9pzbzBQFLHQKNzAEBbR8DBiN2ZQEXjbkCk
gLLBzva6QATCmEAzN6rBb94DQXGQnUD1Dq3BnE0HQaziTEB0XanBe18RQR7XckDp9bXBfWjWQJ8D
sUBtQrzBSeHxQFCci0DavMTBV+S4QBL3h0BQGMPBIJGdQBAsfkA0QoPBYYLEQIkvKkDmeoTB/xvU
QEbVi0Dke4bB3dRaQKWUI0BuqqTBreEJQBHAYEAV+ZTBT6dFQL63gUCKI4rB

> <OMEGA_E>
2MlLPpSJwT4=

> <OMEGA_NBR>
      1903

$$$$
290127
  -OEChem-04172616093D

 59 63  0     1  0  0  0  0  0999 V2000
    5.0263   -2.2580  -19.9534 C   0  0  0  0  0  0  0  0  0  0  0  0
    6.3426   -1.3345  -21.8193 C   0  0  0  0  0  0  0  0  0  0  0  0
    6.9148   -0.2341  -22.4887 C   0  0  0  0  0  0  0  0  0  0  0  0
    8.4237    6.5897  -16.3511 C   0  0  0  0  0  0  0  0  0  0  0  0
    5.3060    0.1615  -20.1728 C   0  0  0  0  0  0  0  0  0  0  0  0
    8.6829    5.3062  -15.8381 C   0  0  0  0  0  0  0  0  0  0  0  0
    7.1960    6.8167  -16.9994 C   0  0  0  0  0  0  0  0  0  0  0  0
    5.5553   -1.1374  -20.6569 C   0  0  0  0  0  0  0  0  0  0  0  0
    6.6850    1.0563  -21.9938 C   0  0  0  0  0  0  0  0  0  0  0  0
    5.8714    1.2400  -20.8629 C   0  0  0  0  0  0  0  0  0  0  0  0
    6.5952    4.5901  -16.6048 C   0  0  0  0  0  0  0  0  0  0  0  0
    6.4774    2.9353  -19.1736 C   0  0  0  0  0  0  0  0  0  0  0  0
    4.2346    3.3790  -18.9330 C   0  0  0  0  0  0  0  0  0  0  0  0
    7.2521    2.3763  -22.3843 C   0  0  0  0  0  0  0  0  0  0  0  0
    5.6206    4.5043  -23.9963 C   0  0  0  0  0  0  0  0  0  0  0  0
    5.1451    3.7999  -22.7227 C   0  0  0  0  0  0  0  0  0  0  0  0
    7.1247    4.7094  -21.4179 C   0  0  0  0  0  0  0  0  0  0  0  0
    7.6778    5.3182  -22.7198 C   0  0  1  0  0  0  0  0  0  0  0  0
    6.5045    5.7089  -23.6406 C   0  0  1  0  0  0  0  0  0  0  0  0
    5.7621    2.6950  -20.4919 C   0  0  1  0  0  0  0  0  0  0  0  0
    6.3212    3.4330  -21.7470 C   0  0  2  0  0  0  0  0  0  0  0  0
    8.5365    6.5415  -22.3742 C   0  0  0  0  0  0  0  0  0  0  0  0
    6.4462    7.5326  -25.2073 C   0  0  0  0  0  0  0  0  0  0  0  0
    5.6445    3.4501  -16.8365 C   0  0  0  0  0  0  0  0  0  0  0  0
    4.5950   -3.1703  -19.3705 N   0  0  0  0  0  0  0  0  0  0  0  0
    7.7666    4.3258  -15.9754 N   0  0  0  0  0  0  0  0  0  0  0  0
    6.2984    5.8145  -17.1161 N   0  0  0  0  0  0  0  0  0  0  0  0
    5.4630    3.2513  -18.2778 N   0  0  0  0  0  0  0  0  0  0  0  0
    4.3671    3.0500  -20.1915 N   0  3  0  0  0  0  0  0  0  0  0  0
    3.0388    3.7802  -18.3599 N   0  0  0  0  0  0  0  0  0  0  0  0
    7.6613    2.7422  -18.9166 O   0  0  0  0  0  0  0  0  0  0  0  0
    7.0223    6.2618  -24.8602 O   0  0  0  0  0  0  0  0  0  0  0  0
    6.5049   -2.3342  -22.1942 H   0  0  0  0  0  0  0  0  0  0  0  0
    7.5213   -0.3834  -23.3698 H   0  0  0  0  0  0  0  0  0  0  0  0
    9.1501    7.3825  -16.2499 H   0  0  0  0  0  0  0  0  0  0  0  0
    4.6968    0.3205  -19.2953 H   0  0  0  0  0  0  0  0  0  0  0  0
    9.6164    5.1052  -15.3336 H   0  0  0  0  0  0  0  0  0  0  0  0
    6.9713    7.7926  -17.4038 H   0  0  0  0  0  0  0  0  0  0  0  0
    8.2764    2.4838  -21.9978 H   0  0  0  0  0  0  0  0  0  0  0  0
    7.2604    2.4821  -23.4792 H   0  0  0  0  0  0  0  0  0  0  0  0
    6.2001    3.7968  -24.6075 H   0  0  0  0  0  0  0  0  0  0  0  0
    4.7465    4.8514  -24.5669 H   0  0  0  0  0  0  0  0  0  0  0  0
    4.4463    4.4652  -22.1945 H   0  0  0  0  0  0  0  0  0  0  0  0
    4.6247    2.8737  -23.0080 H   0  0  0  0  0  0  0  0  0  0  0  0
    7.9597    4.4546  -20.7488 H   0  0  0  0  0  0  0  0  0  0  0  0
    6.4672    5.4390  -20.9225 H   0  0  0  0  0  0  0  0  0  0  0  0
    8.3023    4.5704  -23.2304 H   0  0  0  0  0  0  0  0  0  0  0  0
    5.8867    6.4566  -23.1218 H   0  0  0  0  0  0  0  0  0  0  0  0
    8.9359    6.9829  -23.2992 H   0  0  0  0  0  0  0  0  0  0  0  0
    7.9197    7.2859  -21.8494 H   0  0  0  0  0  0  0  0  0  0  0  0
    9.3698    6.2329  -21.7258 H   0  0  0  0  0  0  0  0  0  0  0  0
    6.8891    7.8919  -26.1479 H   0  0  0  0  0  0  0  0  0  0  0  0
    5.3592    7.4200  -25.3335 H   0  0  0  0  0  0  0  0  0  0  0  0
    6.6491    8.2582  -24.4059 H   0  0  0  0  0  0  0  0  0  0  0  0
    6.0551    2.5332  -16.3886 H   0  0  0  0  0  0  0  0  0  0  0  0
    4.6741    3.6817  -16.3732 H   0  0  0  0  0  0  0  0  0  0  0  0
    3.6220    3.0411  -20.8583 H   0  0  0  0  0  0  0  0  0  0  0  0
    2.2098    3.8312  -18.9168 H   0  0  0  0  0  0  0  0  0  0  0  0
    3.0047    4.0188  -17.3894 H   0  0  0  0  0  0  0  0  0  0  0  0
  1  8  1  0  0  0  0
  1 25  3  0  0  0  0
  2  3  2  0  0  0  0
  2  8  1  0  0  0  0
  3  9  1  0  0  0  0
  4  6  1  0  0  0  0
  4  7  2  0  0  0  0
  5  8  2  0  0  0  0
  5 10  1  0  0  0  0
  6 26  2  0  0  0  0
  7 27  1  0  0  0  0
  9 10  2  0  0  0  0
  9 14  1  0  0  0  0
 10 20  1  0  0  0  0
 11 24  1  0  0  0  0
 11 26  1  0  0  0  0
 11 27  2  0  0  0  0
 12 20  1  0  0  0  0
 12 28  1  0  0  0  0
 12 31  2  0  0  0  0
 13 28  1  0  0  0  0
 13 29  2  0  0  0  0
 13 30  1  0  0  0  0
 14 21  1  0  0  0  0
 15 16  1  0  0  0  0
 15 19  1  0  0  0  0
 16 21  1  0  0  0  0
 17 18  1  0  0  0  0
 17 21  1  0  0  0  0
 18 19  1  0  0  0  0
 18 22  1  0  0  0  0
 19 32  1  0  0  0  0
 20 21  1  0  0  0  0
 20 29  1  0  0  0  0
 23 32  1  0  0  0  0
 24 28  1  0  0  0  0
  2 33  1  0  0  0  0
  3 34  1  0  0  0  0
  4 35  1  0  0  0  0
  5 36  1  0  0  0  0
  6 37  1  0  0  0  0
  7 38  1  0  0  0  0
 14 39  1  0  0  0  0
 14 40  1  0  0  0  0
 15 41  1  0  0  0  0
 15 42  1  0  0  0  0
 16 43  1  0  0  0  0
 16 44  1  0  0  0  0
 17 45  1  0  0  0  0
 17 46  1  0  0  0  0
 18 47  1  0  0  0  0
 19 48  1  0  0  0  0
 22 49  1  0  0  0  0
 22 50  1  0  0  0  0
 22 51  1  0  0  0  0
 23 52  1  0  0  0  0
 23 53  1  0  0  0  0
 23 54  1  0  0  0  0
 24 55  1  0  0  0  0
 24 56  1  0  0  0  0
 29 57  1  0  0  0  0
 30 58  1  0  0  0  0
 30 59  1  0  0  0  0
M  CHG  1  29   1
M  END
> <OMEGA_C>
WdegQGqCEMB3oJ/BWfbKQEPPqr/bja7BU0bdQGS+b77h6LPBgMcGQQvf0kAjz4LBucqpQHBVJT7k
YaHB9ewKQSTMqUDEaH3BdEXmQKUi2kC6/ofBFsWxQL2Ukb9bQaXByOvVQJ80hz9S86/BYuK7QDe4
nj8r56bBAgzTQHzikkCI1oTB3UbPQKbcO0CNY5nBt4GHQOJAWEDFdpfBVBHoQLQVGEABE7PBkduz
QPkikEBy+L/BSKSkQJ4xc0AQyLXBsf3jQLyzlkD1V6vBPrD1QAAvqkA5wrXBpiTQQEWvtkD/H73B
YmO4QI56LEBe76PBMkfKQNS2W0Di+a3BlZUIQZpT0UBu/rLB60bOQMMK8UCTqMnBYZ+0QCbOXEAr
sYbBCAqTQNzlSsDW9prBGoj4QDltikA+m3/BlIzJQMkQukC67YjBR9GuQNwVUEDiOJLBdL+LQCIz
Q0AviKHBWntCQFrucUAs4ZLBhyn1QGp/L0AgVZfBhLbgQFpgyECY4cbBwyfQQHVjFcC3jbHBW67w
QENOxL5e9brB8mYSQTg97EC6/4HB+UuWQPIYpD7VXJrB1dwZQfpdo0CAVnXBfRTfQDNd+UDkOovB
/msEQV/2HkCB+6/B3VToQEnaHkBO1bvBOGfGQDb+ckAu3MTBq+OXQGw+m0AcicTBzEeOQC/jjkA+
jrHBqf2TQNPqN0BmELjBLbb+QFaMjkB1/aXBoPPOQBoMrkA4YafBZNYEQdxAkkDY17nBrl+8QOCc
zkBq+bjBfPkOQdRz30DUZLrBYm79QL8l6UCcy67BruoVQQ90x0B0zq3BnHPcQE+K/EDfLtHBz36r
QPZw7UAJq8rBF8XUQJUhBEFBP8PBUcPBQD8fIkDYG4PB/ZGVQGKha0A5/ILBMM5nQKigQkDX3abB
lmwNQMsxdUCqVZfBMExAQOKZgECPHYvB7N2gQJi5EMALt5/Bl5nLQMy3qr+LhK7BfCneQHSMbb4N
zbPBjDrVQPH+6kCZAYHBlVKpQIgwJD4UgqHB0tPzQAeezUD2woTB9l+rQEdK3ECoLX7BF8ixQP+8
kb/1UqXBmHDWQG1vhz9S4K/Bi6C7QF/Xnj/q96bBjEDAQLJpl0DdNITBOQjPQPYOO0BBZJnBIGyH
QGjWVkB8bZfBHvroQJY+GEDe27LBJVu1QGubj0DoDMDByIClQMRvckDZ5rXBpuLjQNLvlkAiN6vB
XD/2QL9jqkDJjLXBQzvRQLRhtkBaIb3BWUK4QPiWLEA696PBMKvKQCS7W0Cj7q3BIYgIQSnj0UCX
rbLBZw/QQGdH8EBOy8nB1EK0QLSpU0Akl4bBICKTQE41S8C+DpvBI9voQDJWpEA8VobB6mWhQLTO
skAvz4DB/kGuQFL+SECGIJLBDrKLQJozRECPk6HB9jNDQGJuckApyZLBgAH1QCr7L0DkVZfB9ovi
QNvbx0C608bBthTRQPNRFcAbfrHBuAnyQFOBwr72xLrBEKjdQBMHBkH1QH/BblCVQNPRoj7Dk5rB
ew4KQU0Z2ECJYobB0zKTQH8y8kBbenjBzrUEQRwCH0Alja/BBynqQEIyH0BhnLvBNmHIQO/ocUD7
0cTBf6yZQNN1mkCqwsTB77+OQCl9jkBkzbHBWSiVQB/lNkDdNrjBFT3+QB8Nj0CEuaXB3F/OQO8v
rkB+YKfBimsFQRGckkCwf7nBB/+8QEdXzkBNIrnBGCsPQeYG4ECjBbrBCrX8QAGQ6UBtna7Bn68V
QU5kyEDSVa3BcdLeQBai+0D6QtHBIWitQJlf7EDC/crB6cvVQNfhA0HlZcPBqOzNQC/TKEA71YPB
R1OWQJmzQ0C/aYLBkQRoQLDIRUCp86bBOJYOQAs0eUDHQpfBwzhBQG2Tf0DT9YrBzkycQNg+FMBc
taPBvPDQQAORob9Btq/BHEvmQIYO8L1KnrPBbPkbQV/vUkAc733BIsmmQM3L/T1NYqPB3ycOQb/4
C0AtB37BH0ETQQInkkAE/YDBJlqxQHeAkr9zn6fBJIDbQGD4kj/6ha/Bzs27QIiAoD+NiqfBpKXi
QNqjZkBO8YLBHNXNQBfZOECZWJnB1OqGQKbLXUA2aZfBbgHtQOLnIUDGwLHBBGC4QIz5kkCZ07/B
nHmnQNThcUCAPLbB8KjeQPnrm0BMDarBzNfwQJz7tECyu7PBlhfNQDpxvUB/GrzBWNW2QBZzLEDN
7KPBOnLKQHWiYEAxe63BziwCQT2Q30DPtq/BLibAQFYM6kBlu8vBPtC0QHIlb0C8yYbBRC2LQOmD
UcDdiqDBchnyQP/SFkDB54DBZEX8QGl4lkBTDYPB+hevQL9hWkAzVJLBQB+KQLqeQkDiV6HBc6lB
QB7GeEDpupLBmMPzQPK9KEDq0pfBehffQAyB00ALP8XBLLzYQOwQD8B56bLB063+QEXNWb5fsbnB
5NwsQW8qS0DR1XrBfjKPQDb+Yz54Hp3BQmwUQXNOmT8jEnvBaXYdQdoIrkA+5IDB7MAFQeOWK0Dc
h63Bx93xQFIjK0BZZLrBXnLQQDmzf0CrHMTBqpSdQN89mkCRPMXBJ/mMQFnCikDuiLLBAqGbQHL2
M0BQMrnBPsX4QL+tlUBCXKTBcOvFQESBr0CxJqbBNRsFQUvMoUC7gLfBM0C0QDth0UCwW7jBjKwI
QdyU8UAwirbBx2HrQHyp8kAbwavB7xcPQSa42EDf/KnBPZLQQIbC+UCsc9LBm3CoQAI300Ca2c7B
096vQDEqAUGD1MbBoqygQBB6Q0D/EILBXlWqQOvAmEB2dYXBkDFjQDKsPUDZcabBJmILQBU5eEDe
95bBMTRBQAVbhkDgIIvB

> <OMEGA_E>
FCCHP5rGhj9bT48/

> <OMEGA_NBR>
     10410

$$$$
290125
  -OEChem-04172616093D

 68 72  0     1  0  0  0  0  0999 V2000
    5.1260   -2.1476  -19.7698 C   0  0  0  0  0  0  0  0  0  0  0  0
    6.3571   -1.2953  -21.7373 C   0  0  0  0  0  0  0  0  0  0  0  0
    6.9155   -0.2123  -22.4507 C   0  0  0  0  0  0  0  0  0  0  0  0
    5.2614    0.2448  -20.1818 C   0  0  0  0  0  0  0  0  0  0  0  0
    5.5650   -1.0641  -20.5840 C   0  0  0  0  0  0  0  0  0  0  0  0
    6.6754    1.0927  -22.0012 C   0  0  0  0  0  0  0  0  0  0  0  0
    5.8145    1.3014  -20.9107 C   0  0  0  0  0  0  0  0  0  0  0  0
    6.4654    2.8498  -19.1833 C   0  0  0  0  0  0  0  0  0  0  0  0
    4.2349    3.3548  -18.9400 C   0  0  0  0  0  0  0  0  0  0  0  0
    7.3028    2.4003  -22.3699 C   0  0  0  0  0  0  0  0  0  0  0  0
    6.4943    6.0101  -21.4381 C   0  0  0  0  0  0  0  0  0  0  0  0
    7.3056    4.7141  -21.3708 C   0  0  0  0  0  0  0  0  0  0  0  0
    4.7768    5.9650  -16.9524 C   0  0  0  0  0  0  0  0  0  0  0  0
    7.1343    5.5531  -17.7264 C   0  0  0  0  0  0  0  0  0  0  0  0
    5.2917    3.8747  -22.7564 C   0  0  0  0  0  0  0  0  0  0  0  0
    5.1414    7.4535  -16.8098 C   0  0  0  0  0  0  0  0  0  0  0  0
    7.4100    7.0566  -17.5751 C   0  0  0  0  0  0  0  0  0  0  0  0
    5.8370    4.9296  -23.7092 C   0  0  2  0  0  0  0  0  0  0  0  0
    6.0227    6.2542  -22.9042 C   0  0  2  0  0  0  0  0  0  0  0  0
    5.7680    2.7398  -20.5151 C   0  0  1  0  0  0  0  0  0  0  0  0
    6.4129    3.4805  -21.7298 C   0  0  1  0  0  0  0  0  0  0  0  0
    6.0341    5.0775  -16.7430 C   0  0  0  0  0  0  0  0  0  0  0  0
    4.9120    3.9203  -25.8376 C   0  0  0  0  0  0  0  0  0  0  0  0
    8.3055    6.8037  -23.7285 C   0  0  0  0  0  0  0  0  0  0  0  0
    4.8986    5.1457  -24.9037 C   0  0  0  0  0  0  0  0  0  0  0  0
    5.7093    3.5682  -16.8935 C   0  0  0  0  0  0  0  0  0  0  0  0
    4.7726   -3.0159  -19.0775 N   0  0  0  0  0  0  0  0  0  0  0  0
    5.4615    3.1792  -18.2831 N   0  0  0  0  0  0  0  0  0  0  0  0
    4.3890    3.1514  -20.2196 N   0  3  0  0  0  0  0  0  0  0  0  0
    3.0202    3.6984  -18.3651 N   0  0  0  0  0  0  0  0  0  0  0  0
    7.6394    2.5966  -18.9320 O   0  0  0  0  0  0  0  0  0  0  0  0
    6.1808    7.7978  -17.7578 O   0  0  0  0  0  0  0  0  0  0  0  0
    6.9002    7.1647  -23.6261 O   0  0  0  0  0  0  0  0  0  0  0  0
    6.4882    5.2427  -15.4732 F   0  0  0  0  0  0  0  0  0  0  0  0
    6.5344   -2.3066  -22.0723 H   0  0  0  0  0  0  0  0  0  0  0  0
    7.5184   -0.3873  -23.3295 H   0  0  0  0  0  0  0  0  0  0  0  0
    4.6191    0.4308  -19.3338 H   0  0  0  0  0  0  0  0  0  0  0  0
    8.3266    2.4608  -21.9722 H   0  0  0  0  0  0  0  0  0  0  0  0
    7.3264    2.5202  -23.4631 H   0  0  0  0  0  0  0  0  0  0  0  0
    5.6169    5.9278  -20.7798 H   0  0  0  0  0  0  0  0  0  0  0  0
    7.1212    6.8523  -21.1098 H   0  0  0  0  0  0  0  0  0  0  0  0
    8.1411    4.7743  -22.0837 H   0  0  0  0  0  0  0  0  0  0  0  0
    7.7011    4.5888  -20.3520 H   0  0  0  0  0  0  0  0  0  0  0  0
    4.0190    5.7036  -16.1991 H   0  0  0  0  0  0  0  0  0  0  0  0
    4.3703    5.7861  -17.9587 H   0  0  0  0  0  0  0  0  0  0  0  0
    6.8050    5.3515  -18.7565 H   0  0  0  0  0  0  0  0  0  0  0  0
    8.0613    4.9970  -17.5224 H   0  0  0  0  0  0  0  0  0  0  0  0
    4.4235    4.2800  -22.2160 H   0  0  0  0  0  0  0  0  0  0  0  0
    4.9859    2.9856  -23.3273 H   0  0  0  0  0  0  0  0  0  0  0  0
    4.2503    8.0679  -17.0060 H   0  0  0  0  0  0  0  0  0  0  0  0
    5.5011    7.6450  -15.7881 H   0  0  0  0  0  0  0  0  0  0  0  0
    7.8112    7.2556  -16.5705 H   0  0  0  0  0  0  0  0  0  0  0  0
    8.1433    7.3721  -18.3320 H   0  0  0  0  0  0  0  0  0  0  0  0
    6.8197    4.6046  -24.0815 H   0  0  0  0  0  0  0  0  0  0  0  0
    5.0301    6.7240  -22.8404 H   0  0  0  0  0  0  0  0  0  0  0  0
    4.2336    4.0971  -26.6852 H   0  0  0  0  0  0  0  0  0  0  0  0
    5.9329    3.7568  -26.2131 H   0  0  0  0  0  0  0  0  0  0  0  0
    4.5794    3.0316  -25.2810 H   0  0  0  0  0  0  0  0  0  0  0  0
    8.8430    7.5777  -24.2960 H   0  0  0  0  0  0  0  0  0  0  0  0
    8.7374    6.7221  -22.7201 H   0  0  0  0  0  0  0  0  0  0  0  0
    8.3991    5.8379  -24.2467 H   0  0  0  0  0  0  0  0  0  0  0  0
    3.8751    5.3064  -24.5341 H   0  0  0  0  0  0  0  0  0  0  0  0
    5.2286    6.0315  -25.4662 H   0  0  0  0  0  0  0  0  0  0  0  0
    6.5602    2.9853  -16.5113 H   0  0  0  0  0  0  0  0  0  0  0  0
    4.8122    3.3403  -16.2991 H   0  0  0  0  0  0  0  0  0  0  0  0
    3.6684    3.2605  -20.9042 H   0  0  0  0  0  0  0  0  0  0  0  0
    2.2072    3.8014  -18.9381 H   0  0  0  0  0  0  0  0  0  0  0  0
    2.9576    3.8430  -17.3776 H   0  0  0  0  0  0  0  0  0  0  0  0
  1  5  1  0  0  0  0
  1 27  3  0  0  0  0
  2  3  2  0  0  0  0
  2  5  1  0  0  0  0
  3  6  1  0  0  0  0
  4  5  2  0  0  0  0
  4  7  1  0  0  0  0
  6  7  2  0  0  0  0
  6 10  1  0  0  0  0
  7 20  1  0  0  0  0
  8 20  1  0  0  0  0
  8 28  1  0  0  0  0
  8 31  2  0  0  0  0
  9 28  1  0  0  0  0
  9 29  2  0  0  0  0
  9 30  1  0  0  0  0
 10 21  1  0  0  0  0
 11 12  1  0  0  0  0
 11 19  1  0  0  0  0
 12 21  1  0  0  0  0
 13 16  1  0  0  0  0
 13 22  1  0  0  0  0
 14 17  1  0  0  0  0
 14 22  1  0  0  0  0
 15 18  1  0  0  0  0
 15 21  1  0  0  0  0
 16 32  1  0  0  0  0
 17 32  1  0  0  0  0
 18 19  1  0  0  0  0
 18 25  1  0  0  0  0
 19 33  1  0  0  0  0
 20 21  1  0  0  0  0
 20 29  1  0  0  0  0
 22 26  1  0  0  0  0
 22 34  1  0  0  0  0
 23 25  1  0  0  0  0
 24 33  1  0  0  0  0
 26 28  1  0  0  0  0
  2 35  1  0  0  0  0
  3 36  1  0  0  0  0
  4 37  1  0  0  0  0
 10 38  1  0  0  0  0
 10 39  1  0  0  0  0
 11 40  1  0  0  0  0
 11 41  1  0  0  0  0
 12 42  1  0  0  0  0
 12 43  1  0  0  0  0
 13 44  1  0  0  0  0
 13 45  1  0  0  0  0
 14 46  1  0  0  0  0
 14 47  1  0  0  0  0
 15 48  1  0  0  0  0
 15 49  1  0  0  0  0
 16 50  1  0  0  0  0
 16 51  1  0  0  0  0
 17 52  1  0  0  0  0
 17 53  1  0  0  0  0
 18 54  1  0  0  0  0
 19 55  1  0  0  0  0
 23 56  1  0  0  0  0
 23 57  1  0  0  0  0
 23 58  1  0  0  0  0
 24 59  1  0  0  0  0
 24 60  1  0  0  0  0
 24 61  1  0  0  0  0
 25 62  1  0  0  0  0
 25 63  1  0  0  0  0
 26 64  1  0  0  0  0
 26 65  1  0  0  0  0
 29 66  1  0  0  0  0
 30 67  1  0  0  0  0
 30 68  1  0  0  0  0
M  CHG  1  29   1
M  END
> <OMEGA_C>
zAekQKFxCcBzKJ7Bfm3LQCLMpb8N5q3BokvdQPhvWb4Fm7PBtl2oQFapej5mdKHBwRSyQMwziL//
q6TBSJ3VQNPeiz9yArDBPxC6QBKUpj83SafBs+TOQLBjNkBYd5nBU4SHQJq1VkA0hZfBdrDpQPud
GUCh9bLBotHPQNJSwEA1gavBIMfpQBzalkBi96rBWtuYQAXhvkB5nofBeUzkQMuysUDCz43B41Wp
QBT7d0AiDbbBAoakQAGD7kCNeobBfh7tQNTP4UDemYzBpci6QBG/nUBcrL3B1rnAQJsiyEDdO7fB
iZO4QGZZL0DnHqTBcDbNQAzAXkCz1q3BVBfBQL96okCe8YXBFC+dQGHlekBas87Bb+MEQdK32UD7
073BLMGcQIKppEDROsfBRLK2QP5cZEDqJYfByLiYQN4DQcDSnpjB1sSuQHt4S0C4Q5LB23KMQD+w
SUC2waHBPUtBQPGxbECv65LBO3b0QFAuJkDPdJfBAsnFQMmH+UAKEI7BTs7cQNNE5UAxAr3BIJ/P
QJPEp0AUknfBFBrRQIKfE8AJlLDB+ZbwQCRPxr6+orrB4c+TQA6S3D6Kq5rBvzkFQal9HUArx6/B
sXHqQLFLIUB4tLvBr72zQECwvUAPPabBRuHjQMZF20Dt4KjBDkICQQzHmEBeq7DBCm/2QBbXkkD4
0KLBypuAQNmDtkCul4HBddmLQGwnuUCBq4/Bk8LZQNg/q0A5DZbB/foAQdPnn0D6LYzBo42NQGz1
iEBzurHBv4yfQJUTP0BZnrrBhAKIQFIWAUE9DIjBYwmwQIij9EAtnHzBuvX5QEMu6EBMkITBzUoC
Qd/n60DZp5LBLzvaQJ1Yk0DVpsDBjfagQBsr10A9ubbBSnmHQEcbg0BEe9XBQNq9QARvcECCtNHB
KYqSQHEGQkCQP8rBAH0NQYR88kAjXsLBlswLQYgb10DcwrXBl2IGQSvQukA9+cHBnwF4QCPOqUC9
RcTB5lCnQGwCwUCvusvBYu3RQKAOP0AtF4TBpf2ZQJ/HVUB3ZILBcMZqQIGrUEDiO6fBI0INQAdK
c0AugZfB3kg9QHvzdUBIBYvBCS6dQIbmE8CJyaPB/b/RQOA3oL+eu6/BANrmQLjC2L27qrPBCRKn
QMp6Bz4Me6PBk/+xQGxZkb+1r6fBK6nbQE0alD9poa/BK+y7QEjUoT8ApqfB+QXOQFaBOUDpc5nB
dx2HQOrhXUBxXpfBXpjsQCRAIkBYBbLBUma+QCeswEA5C6zBpknfQFU0nEAmeavB5F/XQAfFtkB6
wXbBEvPSQAtNw0A5RY/B8oGmQFbTa0AF77bB9p6vQAUY1EBplnTB0XKqQIv63UBZZI3BphixQEMC
nECgZ77BXSGvQGy5xkAf17fBBNW2QEVPLUB/FKTBL9HJQKVFYED59q3Br3fZQB2OoEDTfYbB0aiU
QHq3bUBbX8/B3MS+QK32CEHgKbvBPeeRQIaYnkBBD8jBABS4QFx3dkAIQIfB5UyMQNeDUcCFpaDB
H4KvQB9JWkA/aJLBZguKQEuZQkDMTaHB7ihCQEvKeEDapZLBcoXzQNtQKED4iJfB4mytQKkl8kCg
E4PBxwHKQAHT5UCiOL3BeLgAQezFj0AfkIfBB9nZQDJsDsBH4LLBU1j/QJiRS76At7nBml2PQHzc
aT6UPZ3BU3gFQW5ILUCax63BZZfxQHhjKkAUrLrByMGiQDvGuEBR96bBeTTNQJR/3kDHMKnBwcb4
QKIvokD4WrHBGirtQNc1m0DGY6PBsF/0QMc+ykColnTB9QLWQDoHnkBdQWrBcGbQQCJrs0AJGZfB
LtTuQEHK2EDqQ4/BUGWHQM9+d0CoFbPBCMOkQOToMEAgu7vB+5GSQIA3wEA2lXTB6qqxQC7l5UBI
cGXBn6ynQIWU9kDFpZPBQSiOQDIOyUDMn43BqNjRQOr2l0DGd8HBvcWNQCT00UAuu7fBHgR8QOGu
dEBFDdbBbl21QOy5Z0D0idLBwpOMQGccNEAkvMrBK7zUQDSPE0EQjL/BR8GdQO3nC0Gq1r3BzkDB
QNs1DEF1ibLBygRiQLZaoUDvAMXBEcyZQHkpu0C/zszBj2LEQEt7P0BUsoLBgM6ZQGwnhkA/r4PB
XIdiQCX+PEAiUabB9LgLQKAReECF2pbBZ/NBQK1rhkD4DIvBGIKaQJwcE8AdK6TB5AzQQJ66oL85
+6/BEALmQDjS7b2Ax7PBD9ulQB3+DD6ItaPB2SKwQO7bkL9t+qfB/YjbQBw6kz8Opq/BSIu7QB6e
oT/jvKfBCgHOQMRlOEAhY5nBWyWHQDEuXUBdZJfBZWztQI/nIUDNz7HBcxe/QG3owEA94avBvJPf
QN9dnEDu1arBYSTfQJC2skC7CXjBQSSgQLtDyUAubIfBgxyoQEWEbUD9+rbB3KbAQMbMskAslWTB
31KEQN+JyECgX3rBm+ezQJuxnECZX77BFWOyQHl4x0DP1bfBEv+2QBoPLUAAFqTBCJ7KQJ17YEAS
0K3BtbPGQJTSqUBaoobBbRKfQBhPwkDoANDBrf/EQMoFCUFUBrvBk+CUQE/GnUBHGcjBrWa4QD+s
c0BMOofBkvCIQLQlUMCpFaHBYDevQIQ/V0BsUZLBnFCKQL6hQ0AcZqHBXzVCQIe1d0BHqJLBD7Xz
QEaFKUDDYJfBWZyeQMx30UBH2mfBFZ3PQNGV5UBhyLzBAO/hQHdkskB52o7BN6HXQNixDsAEM7PB
j5n+QD2LXb72y7nBUfqNQHuRdj6ChJ3BaL0FQSiaK0ASZa3BUDPzQBbbKkCEa7rBzU+iQE8KuUDd
NafBWV7NQJGZ3kAPyKjBgaT6QIN7okAVQLDB7TDrQDoEm0ALiaLBjuDuQMse0kAPKXnB03n3QKKz
mUCAunXBXSyMQFkPwEBnS47BeW6sQN3k6UA7oYjBm8uIQEUvekCNSbPBTkGmQOLAMkDmzbvBrcmy
QHqxkkBGlWLBGrrSQIF2u0BkHVbBtzZWQCP24EA+qnvBcSZrQPTFqEBjm3jBBLXUQKwDmED0V8HB
u4mRQPAP1EBkIrjBfyyIQF10wUAEr9bB/4+cQI894UCw2cvB58G/QLpIvkBrHNPBD73cQPQ8E0Fm
Cr/BOgSlQK5XDEHnTb7BkCbFQNFoDEGnY7LBpzuXQKE2fkC4YMzBfBNoQCUQokD+HcXB9yPSQMKA
S0A58IPBDUubQD+Ua0BLYoLBvYFjQOz5P0CkgabB8PoLQNMbeEDf55bBFL9BQH8whUBpAYvB7gyd
QExtE8CtCaTB/W3UQJ6Bnr8DLK/BQEXqQIJftL34y7LB8DWmQG7ODz7Hu6PBfZeyQC05kL+yqqfB
3ardQL2Tlj/0CK/BbYS7QIdVoz+irqfBpcTMQI7XNUCWcpnBd6SGQAWXXkDAVJfBMA3vQL9CJEAG
HrHB4Jy/QBfHwUDmSqvBdMbfQMQ9nUAk6qnBZg3nQMjBaUCufWzBCN//QFgllkC2W4fBDlWqQKxa
b0COorbB23ILQcslYkCn4mXB5EgXQbffkEAnv4PB/MC3QDdvnUD44L3B7LC0QAUgyEC1XLfB4CG2
QDdrLUAk96PByXPLQAQhYkDNR63Buo3jQO1KY0ADgoLB2kKfQO5BcUA5Rs/B2gjHQFh2CUEnSLrB
c1ubQPiCoEDpCsjBe5y0QBwFakBhkIbBR3mLQLrzUMBYHaHBOPiuQIr4WUAATpLBuZuJQFl7REBu
UaHBpy9BQGJbeUDOmpLBksjyQJECJEDtgZjBJ0IYQTCqkUDGYXDByvvRQC+Y5kDrILzB8J3yQB1N
E0BYpYTBzZPdQMiHDcA9JLLBRTMCQR99N76AZ7jBdBCNQOmLbz6f2p3BllkGQWrTLkCzj6zBSWj1
QJBaLUCbsrnBaCaiQNcRukA24abB34DNQOd+30D6GajBRvH7QBeRo0Af867BRZ/pQOyRm0DueaHB
4JzUQKOvNUANDmXBnEzaQP/jk0AlI2fBT8LzQG9UtUDunoTB/lL+QBujlEBDJJDBXJ+KQLbHfEDx
M7PBysSoQA2bNEDXd7vBdckMQWP/aUBHclTBTHMRQXWRIkBhemrB/o0dQTdRZED6r4bBmPggQes3
q0DiAIfBVDPZQMnEmEBzXMDBKbWTQEcu1EC99rfBS5CKQGsAeUCAU9bBB6/AQH/QaUC139HBKlOV
QIAfOEDTxcrBsd3eQFjUE0EXKr7B5C+nQAjFDEE8pb3BDrXGQESoDEHioLHB4YlzQMP+o0DnjsXB
zSClQELXvEDJqMzBrDyhQH3fOkA9LYLBrt+oQF1vlUBWzITB2AdiQHLKQEBvaqbBEOgKQOhxeUDX
15bBfsxAQLE/hkCV+IrBmzicQArOE8AFJqTBXErRQBl1n79W+6/BH8DmQKSbx73LyrPB+46mQOn+
BT7ZtKPBnVqxQFkzkb+i+KfBT8HbQNkYlT8Aq6/BLL67QJHNoT+5wKfBr+fNQH6JOEC0ZpnBdwWH
QILvXED1YZfBeQjtQPxYI0Ay17HB1CW9QPv9wEBC5qvBJCDeQN/lnED22qrBXOjyQAdps0Bbx4nB
9bO7QOYmvEC4P3bBKiSnQO4DbUBb+LbBSVEJQV+Ro0AgKYHBjr7dQASlq0BjVGbBnGCyQKqWnEBY
YL7BLVWwQM5dx0CD2bfBVbi2QHDwLEBCFaTBBtPJQKLxYEC+0q3BmnXDQFebqkCDnYbBFgadQODe
wUCJAtDB0fvBQPAVCUFdDLvBvEuTQPQ/nUDMF8jBCt63QObRc0CnOIfBTAyLQJA9UcDTDKHBPiCv
QAjEVkCyTpLB+fmJQCphQkAGWaHByYJCQIpReUCDq5LBIofzQHTdKEDcZpfBEBIEQd5ntkCM3m3B
gijNQPfY5UAzzrzBM7GpQJXfwECVa43BZ0XZQOXeDcArMrPBy1z/QF6gQL5s0LnBxa2OQGIeZj6I
gZ3B8YYFQXLeLUAvcK3BU67yQBF2LECac7rBjnygQPq9uEDEOafBFgfLQAbh3kA0zqjBhhj5QNBi
o0DJRbDBOcTpQKa6m0A8jqLBRz/3QDES1kAi3YrBgtb5QBHWokCtWJHB+OGbQCzRsUBLx3DBYvi8
QKlR30DUq3bB7seHQKDheEBIQrPBWZ+lQIIvMkDpybvBolQIQTGCgEB/jIDBGawZQVrfrEChboPB
GHPYQHCFukCXmVbBx/TaQKitiEBr3GTBBDnTQBBWmEBfW8HB9FKPQOKI00A+JbjBcByGQDO3wEAg
r9bBlymaQJPJ4EA13cvBGr69QOU4vkDeH9PBunLZQABzE0ELEr/BouihQCYzDEFeUr7B3xPCQGZ6
DEHRabLBGwCWQK4vfUA6XczBMddkQIUooUCSGsXBk87SQPyETkBlAYTB2jKbQNFSaEBYUoLBwoZi
QIZhPUAwZKbBED8MQJJfekDN6JbBjH9CQHFUhkBFC4vBwdOiQGyXFcALx6HBU27VQITbpL8BVq7B
u+boQOiJD74cwrLBGjCpQGhM5T25lKLBJdC1QHYElb/BQqbBDh/cQObakD+1NK/B/Ru8QJL+nj8j
TKfBdIrNQBEbOkBmsZnBIR+HQKyEX0BOYZfBx+HrQDQjIUAr9LHB6d7rQPZBtEAVxbTBrNbbQHnG
m0BJ4arBlc/pQGJaoUAci3PB2DntQCDltUD7LI3BrgSlQA5ba0D/hrbBN1ELQdUmtkB53XDBL8oM
QRuwyUAvQYvBe2a0QHzujkDXicDBh8fHQM2nukDoE73BVu+1QJcTLEAPCqTB9ZLIQKnkXkD92K3B
LA3lQH4ykEDKR4XBzll1QA9MV0CrXMzB+VveQFIT/kD5FMXBeX6OQJ8clkDca8jBkE24QAbldkBI
QYfBX1aTQGDuUsDMJJ7BcDuwQGe9YEDntpLBKFeJQG5PQUDnNKHBDk5CQMYzeUBJhpLB2BvzQNZ6
JkA7YJjBjHYOQeLA10AiSIDBP/LYQMtr0EAVYMbBRvcBQWyNY0C1KobB3bHeQHIqEcBfILHBAK8A
QS1zdL42z7jBZqKRQH1DXT44UJzBZj0FQZRDLkC17K3B//3vQITaJ0A2p7rBWtD3QJbI00ARPbLB
3gQDQaAHokDJfrjBetz2QKfdlkBAYKXBKAzDQHQBr0AF5KbB6WTmQEzJhkDYH2jB7eLQQANtuUDQ
cnDBEJPUQF6OzkDj+IvBjIDrQKTfqUB1b5XBuzKKQFI1h0BB4rLB6vyZQM/YK0BFI7nBPZ0MQQXh
w0DrtWDB07MXQfyDnUB3BHPBtDYZQbCesUCz4YzBjf8OQcw35UBCoJDBZU7NQFNZeEBsn8TBXFCu
QCMTzkDlbLnBbU5AQP8XZUCD4tHBJDmTQPp1MUDRiNDBiRZdQHXYMkCreMXBm3brQP7kBUG5fszB
4DC/QLFuBkGpVcPB8Yn0QHMoAkHZbb7BASRrQHDOqEBuU8TB4D+aQDIdqECTY8/BGie2QKv0O0Dx
eILBh4CfQCsakkDin4TBMnlgQE3NOUADFKbBwAkLQJc4dUAmh5bBYgNDQHLRh0BdCIvBPJShQJ9m
FcAXtqLBY+vUQMS8ob8V+a7B08/oQPCW3r1AKrPBBI+oQDhW7T3oFqPBYAC1QACvk7/U9KbBTzXc
QDkflD/Iba/B1QW8QON7oD8mjafBD7fNQIHoOUBYrZnB/gyHQCXIXkAEYZfBj+7rQGReI0Cr+7HB
JxG5QAwrwEA0tazBZRvbQMMXnUAscKvBvgbhQLnVskBEo3fBZfHFQFLDyUBl943B5cKkQJGUZ0BN
JbfBNQ/+QCf62kBEr3fBcRfkQOrE8ED2WY3B+Y2uQDo9mUCs3L7BznarQNSuxEBHp7jB0+O1QICC
LECRJqTBdPjHQIqkX0C3Eq7BrJbYQJLZo0DNbofBYiiXQNihu0C2s9DB90a6QA7QB0HedrzB+gKP
QBW5l0CqesjBWry5QAR2eUD3kYfBXcORQLUcU8BwRJ/BduCvQDdtXEC4nJLBojWJQCviQECEN6HB
VrlCQBx3ekCWkJLBBhrzQDkHJ0C42pfBYiPrQASI/EBCS4LBhPPGQE+H40BR7b3BmRf/QA2JmEAF
qIvB+BfeQHBED8C45bHBiLoAQTYQSr4tLrnBPL2QQLt4Vj7P35zB7v4EQaPTMEB3ua3BWP3wQAjK
KkBppLrBNNucQHbJt0A+4afBoEbGQIDP3kDs56nB/dH1QIazo0Dt7LDBWuHmQPcunUAgJaPBqezw
QDcBmUDGtG7B6WLCQHGoukBO6G/BnX2mQIGO0kDororBhk7CQH0BwEBfX5bBlGqFQFGRckBsYrPB
5dujQByPK0A1vbvBKvwAQRGL5kBhLWfBM8UOQZ9+0kB5UX7BnXMBQUOo6ECQF5HBFIXVQEvvBUEd
oJHBkWHPQHyclUAM6MHBjA2KQJG1z0AI7LjBovF/QIjquEDRSdfBzn6TQKTw2kAJyczB8dK3QNum
uED+5NPB2crQQJxWEkHItsDB9tiZQCkoCkHlrb/B/Yi6QHm5C0F64rPBSICSQGxQcUAlhszBSlhc
QP/xmkAwasXBFMjIQJVgREBrLoPBbK2bQNHIhUDaloPB2wdgQFsGOUDpDKbB8JELQEpNeEAxnZbB
n7VDQOlCiEBSDovB3ECiQJjgFcASWKLBWg/VQO6/o7/tvq7BDKLoQMShA75iELPB2vqoQOBB3z25
1qLBrmq1QHDdlL/Mq6bBLvzbQFCdkT9PYa/BtjK8QCoxnz96Z6fB2OLNQGupO0CRuZnBnB6HQKkm
X0ATWJfBVFzrQDhxIUBVIrLBljq6QJOVv0BF8azBEMPbQN65m0A416vBDjzcQGj7wkB12o/BDPPW
QMTTukBf7HfBuAekQKe2ZUDjHLfBDuMFQTRQtUD/MY/BYpIDQYCsrkAc53fBovytQJW+l0BmA7/B
CpGrQKiAw0Cj1rjBIu21QDZILEAcIaTBQLXHQM0KXkBwLq7BvOvAQNBur0B/v4bBfFGRQK7tXkBO
g8/BrFXxQAX540DU973BSFSOQFlSmEDTmcjBBoO6QOSce0CzsIfBi6ySQMmdU8D8157BCguwQMe9
XUAVpZLBfzSJQAGuQEBoKaHBDuVCQA/jeUCacZLBGCLzQG5QKEDj1pfBLoEOQSnCwUD1+oTB2t7C
QFwH5UApjL7BJs6ZQL2RwkDGE4fBY0DeQIVuEMAHnbHBi4cAQcaYYb7QIbnBSV6RQIy/Uj7Lk5zB
ndkEQS5sL0BMB67BX9HvQC/vJ0BS07rBOGWeQMoPuEDu5KfBSlzIQPcZ3kAKWKrBgej1QMqWoUAa
jLHBtozoQLvum0BhpKPBnW3aQKIS5kDvU4/Bsh7PQFJjuEAPlJfBi83GQAtjqUDk8GrBFPTTQE53
3UDGLHXBbf+EQLwWckATQrPBO2uiQMEnKUATlbvB6BUHQaphkkBPGZDBCvsOQWkLxUAqn5XBfPQK
QWMtukBf/2jBUxoFQRSoi0AG1XjBJbHOQJihk0C7GcLBfZaJQNSqzECeqbjB46d0QPkZY0D7J9bB
0OuxQL3LWECbvdLB+NeJQOWqJkBqkMrBSaL+QOfS/kD9lcLBm3f7QCux5kBqkbXBzg79QPuXxUBr
T8HBFxJbQCAhm0Awe8XB5JyVQIsxtEBhqM3BPEHYQAoHXEDxIIXBMz2gQC3LaECxU4LBV+dfQHBv
OEBH96XBKmcLQEmUdkBsaJbBSTtEQKw0iEAc9YrB

> <OMEGA_E>
f2yKP7q/kz9fL5Q/mjGUPxJPlD/L948/s1+TPyzHkj8=

> <OMEGA_NBR>
     19288

$$$$
290123
  -OEChem-04172616093D

 68 72  0     1  0  0  0  0  0999 V2000
    5.3987   -2.2245  -19.8336 C   0  0  0  0  0  0  0  0  0  0  0  0
    6.6216   -1.2667  -21.7610 C   0  0  0  0  0  0  0  0  0  0  0  0
    7.1203   -0.1360  -22.4466 C   0  0  0  0  0  0  0  0  0  0  0  0
    5.3319    0.1673  -20.2561 C   0  0  0  0  0  0  0  0  0  0  0  0
    5.7665   -1.1087  -20.6405 C   0  0  0  0  0  0  0  0  0  0  0  0
    6.7586    1.1432  -22.0017 C   0  0  0  0  0  0  0  0  0  0  0  0
    5.8207    1.2703  -20.9619 C   0  0  0  0  0  0  0  0  0  0  0  0
    6.4032    2.7512  -19.1883 C   0  0  0  0  0  0  0  0  0  0  0  0
    4.1997    3.3247  -18.9221 C   0  0  0  0  0  0  0  0  0  0  0  0
    7.3232    2.5040  -22.3035 C   0  0  0  0  0  0  0  0  0  0  0  0
    6.1887    6.0188  -21.3297 C   0  0  0  0  0  0  0  0  0  0  0  0
    7.0889    4.7921  -21.2141 C   0  0  0  0  0  0  0  0  0  0  0  0
    5.7207    5.8621  -17.5940 C   0  0  0  0  0  0  0  0  0  0  0  0
    6.7689    5.1042  -15.4292 C   0  0  0  0  0  0  0  0  0  0  0  0
    5.2322    3.8377  -22.7535 C   0  0  0  0  0  0  0  0  0  0  0  0
    6.5431    7.1539  -17.5015 C   0  0  0  0  0  0  0  0  0  0  0  0
    7.5544    6.4252  -15.4167 C   0  0  0  0  0  0  0  0  0  0  0  0
    6.4765    4.7128  -16.8801 C   0  0  0  0  0  0  0  0  0  0  0  0
    5.7277    4.9611  -23.6555 C   0  0  2  0  0  0  0  0  0  0  0  0
    5.8235    6.2796  -22.8092 C   0  0  2  0  0  0  0  0  0  0  0  0
    5.6984    2.6851  -20.5163 C   0  0  1  0  0  0  0  0  0  0  0  0
    6.3289    3.5017  -21.6806 C   0  0  1  0  0  0  0  0  0  0  0  0
    5.2056    6.2021  -25.8092 C   0  0  0  0  0  0  0  0  0  0  0  0
    8.1337    6.9472  -23.4587 C   0  0  0  0  0  0  0  0  0  0  0  0
    4.7567    5.1010  -24.8389 C   0  0  0  0  0  0  0  0  0  0  0  0
    5.6832    3.3973  -16.8926 C   0  0  0  0  0  0  0  0  0  0  0  0
    5.0996   -3.1159  -19.1450 N   0  0  0  0  0  0  0  0  0  0  0  0
    5.4015    3.0150  -18.2687 N   0  0  0  0  0  0  0  0  0  0  0  0
    4.3101    3.0445  -20.1937 N   0  3  0  0  0  0  0  0  0  0  0  0
    3.0683    3.8768  -18.3394 N   0  0  0  0  0  0  0  0  0  0  0  0
    7.5914    2.5364  -18.9666 O   0  0  0  0  0  0  0  0  0  0  0  0
    6.8128    7.4561  -16.1139 O   0  0  0  0  0  0  0  0  0  0  0  0
    6.7175    7.2616  -23.4086 O   0  0  0  0  0  0  0  0  0  0  0  0
    6.8936   -2.2579  -22.0925 H   0  0  0  0  0  0  0  0  0  0  0  0
    7.7704   -0.2557  -23.3007 H   0  0  0  0  0  0  0  0  0  0  0  0
    4.6388    0.2945  -19.4376 H   0  0  0  0  0  0  0  0  0  0  0  0
    8.3188    2.6177  -21.8498 H   0  0  0  0  0  0  0  0  0  0  0  0
    7.3956    2.6592  -23.3901 H   0  0  0  0  0  0  0  0  0  0  0  0
    5.2675    5.8483  -20.7533 H   0  0  0  0  0  0  0  0  0  0  0  0
    6.7167    6.8955  -20.9264 H   0  0  0  0  0  0  0  0  0  0  0  0
    7.9781    4.9357  -21.8456 H   0  0  0  0  0  0  0  0  0  0  0  0
    7.3995    4.6694  -20.1660 H   0  0  0  0  0  0  0  0  0  0  0  0
    4.7445    6.0141  -17.1105 H   0  0  0  0  0  0  0  0  0  0  0  0
    5.5693    5.5994  -18.6514 H   0  0  0  0  0  0  0  0  0  0  0  0
    7.3656    4.3156  -14.9474 H   0  0  0  0  0  0  0  0  0  0  0  0
    5.8223    5.2327  -14.8838 H   0  0  0  0  0  0  0  0  0  0  0  0
    4.3091    4.1554  -22.2465 H   0  0  0  0  0  0  0  0  0  0  0  0
    5.0279    2.9436  -23.3608 H   0  0  0  0  0  0  0  0  0  0  0  0
    7.4936    7.0226  -18.0394 H   0  0  0  0  0  0  0  0  0  0  0  0
    5.9772    7.9817  -17.9536 H   0  0  0  0  0  0  0  0  0  0  0  0
    7.7210    6.7388  -14.3755 H   0  0  0  0  0  0  0  0  0  0  0  0
    8.5240    6.2759  -15.9142 H   0  0  0  0  0  0  0  0  0  0  0  0
    7.4323    4.5504  -17.3997 H   0  0  0  0  0  0  0  0  0  0  0  0
    6.7288    4.7100  -24.0359 H   0  0  0  0  0  0  0  0  0  0  0  0
    4.8130    6.7141  -22.8065 H   0  0  0  0  0  0  0  0  0  0  0  0
    4.4891    6.2733  -26.6407 H   0  0  0  0  0  0  0  0  0  0  0  0
    5.2471    7.1644  -25.2777 H   0  0  0  0  0  0  0  0  0  0  0  0
    6.2028    5.9583  -26.2044 H   0  0  0  0  0  0  0  0  0  0  0  0
    8.6774    7.7765  -23.9349 H   0  0  0  0  0  0  0  0  0  0  0  0
    8.5128    6.7993  -22.4368 H   0  0  0  0  0  0  0  0  0  0  0  0
    8.2845    6.0271  -24.0424 H   0  0  0  0  0  0  0  0  0  0  0  0
    4.7128    4.1443  -25.3800 H   0  0  0  0  0  0  0  0  0  0  0  0
    3.7571    5.3504  -24.4533 H   0  0  0  0  0  0  0  0  0  0  0  0
    6.2747    2.6076  -16.4062 H   0  0  0  0  0  0  0  0  0  0  0  0
    4.7369    3.5343  -16.3488 H   0  0  0  0  0  0  0  0  0  0  0  0
    3.5583    3.0708  -20.8525 H   0  0  0  0  0  0  0  0  0  0  0  0
    2.2679    4.0860  -18.9012 H   0  0  0  0  0  0  0  0  0  0  0  0
    3.0531    4.0657  -17.3575 H   0  0  0  0  0  0  0  0  0  0  0  0
  1  5  1  0  0  0  0
  1 27  3  0  0  0  0
  2  3  2  0  0  0  0
  2  5  1  0  0  0  0
  3  6  1  0  0  0  0
  4  5  2  0  0  0  0
  4  7  1  0  0  0  0
  6  7  2  0  0  0  0
  6 10  1  0  0  0  0
  7 21  1  0  0  0  0
  8 21  1  0  0  0  0
  8 28  1  0  0  0  0
  8 31  2  0  0  0  0
  9 28  1  0  0  0  0
  9 29  2  0  0  0  0
  9 30  1  0  0  0  0
 10 22  1  0  0  0  0
 11 12  1  0  0  0  0
 11 20  1  0  0  0  0
 12 22  1  0  0  0  0
 13 16  1  0  0  0  0
 13 18  1  0  0  0  0
 14 17  1  0  0  0  0
 14 18  1  0  0  0  0
 15 19  1  0  0  0  0
 15 22  1  0  0  0  0
 16 32  1  0  0  0  0
 17 32  1  0  0  0  0
 18 26  1  0  0  0  0
 19 20  1  0  0  0  0
 19 25  1  0  0  0  0
 20 33  1  0  0  0  0
 21 22  1  0  0  0  0
 21 29  1  0  0  0  0
 23 25  1  0  0  0  0
 24 33  1  0  0  0  0
 26 28  1  0  0  0  0
  2 34  1  0  0  0  0
  3 35  1  0  0  0  0
  4 36  1  0  0  0  0
 10 37  1  0  0  0  0
 10 38  1  0  0  0  0
 11 39  1  0  0  0  0
 11 40  1  0  0  0  0
 12 41  1  0  0  0  0
 12 42  1  0  0  0  0
 13 43  1  0  0  0  0
 13 44  1  0  0  0  0
 14 45  1  0  0  0  0
 14 46  1  0  0  0  0
 15 47  1  0  0  0  0
 15 48  1  0  0  0  0
 16 49  1  0  0  0  0
 16 50  1  0  0  0  0
 17 51  1  0  0  0  0
 17 52  1  0  0  0  0
 18 53  1  0  0  0  0
 19 54  1  0  0  0  0
 20 55  1  0  0  0  0
 23 56  1  0  0  0  0
 23 57  1  0  0  0  0
 23 58  1  0  0  0  0
 24 59  1  0  0  0  0
 24 60  1  0  0  0  0
 24 61  1  0  0  0  0
 25 62  1  0  0  0  0
 25 63  1  0  0  0  0
 26 64  1  0  0  0  0
 26 65  1  0  0  0  0
 29 66  1  0  0  0  0
 30 67  1  0  0  0  0
 30 68  1  0  0  0  0
M  CHG  1  29   1
M  END
> <OMEGA_C>
8MGsQJxeDsAoq57BYeTTQAwjor+JFq7BbNnjQLBPC76xkrPBkJ6qQKhEKz5qDKLB6Ia4QOzojb/J
H6XB2kbYQPtVkj99A7DBCUO6QAqaoj/2safB7ObMQFgUMECKgZnBlWOGQMXHVECDYJfB6VfqQIJB
IECAbbLB6QnGQPyZwEA2o6rBjdjiQLRYmUB6tqnBTBC3QAqWu0B2wIzB85rYQPxVo0D43XbBzW2n
QImddUA3B7bBJ2HRQGTs5ED+AozB1L3xQCqbzUCbqnbBVD/PQJzPlkBtCofBJEm3QKjBnkCGPr3B
F1q6QLTyyEBXebbBklm2QC/YK0BzIaTBGobKQLkbYEDNca3BP5SmQPx3xkAkec7B1yMCQUBP3kCC
q7vBwTaYQIo7o0AqtsbBFd21QOVsWUALJIfBqS+jQHhrR8AAKZnBBdmsQD/1QEA+JpLBiOyJQEnZ
QkCZjKHBnF5EQAkeeEASt5LBDO3yQL1TIkCku5fBXQLaQAiY7kAu6YDBzfXWQDRf6EDaRLvBG5jc
QAOCEMBxvbDB1Kb4QBjxgr7gZ7rBZXGUQH7Klj4igJvB8BkFQWyIJ0BPzK7BeKjsQCcwKkDXHrvB
K4+oQIAlu0CvBqbB5O7WQOin3EA3aafBj0z/QHbxnUC8w67BocjsQJRrlUD7U6HBo9KXQKlzwEBG
4ojBuDeyQAYus0D7NZXBsbLrQKgZikCoKG/BiVC6QHFyp0D3I27B2uOJQLj4hEDv+LHBjOSgQBpk
PED24rrBbMvvQMu44ECpUJDBkUW/QFxq/0DwoI/BYxL3QCyk10A4AmbBbGIIQenTyECdoH7BW9Xt
QBydkUCuMovBX1LXQHu4lkCHScDBvwOaQDva1kDFc7bBd6aPQBm/yEA3INXBN+inQFxC5UC6OMrB
73zGQAWqvkCOotHBkdYKQf/Y+ECfer/BUzQIQdKT2UB3frPBRY0EQc/dwEDpVsDBE8+WQBKehEBG
CsvBtHRwQGk2q0ByoMPBLMrIQMfiJkDcP4PB8JSXQDUxYkBNyoLBE7tjQJuIREDi0abBICURQFzA
gkCuNZfBAmZDQC4agkAr3IrBV06kQD+JCsC7Vp7BBYnLQDozpr92D67BfBPdQJb9Vr7EwrPBfhmp
QFYJbD6kaaHBQYeyQLqlib8kw6TBYF3VQNLLiz9rGLDBVXC6QCZ1pT+EPafBcfLOQNnVNkDLaJnB
bYqHQN66VkAeeJfBB/zoQIbFGUAqGbPBjdjPQH5awEAfXKvBILXpQPy5lkDm96rBzU7kQAb3skBm
+43BdYKYQPQZwEBFGYjBSLCoQMDQeEDW57XB0srsQMoi40DO5ozBtBSkQD6e70Du44bBo9HAQJxb
pEDiKIbBG3W6QEInnkA9e73BeA3AQB52yEC5BLfBK5a4QCHNLkA3EKTB8NHMQG6xXkBrz63B1Tui
QJFcfUBL/s7BdUIEQdqq2kD06r3BIT6dQACEpEA7MMfBxvm2QBauZ0C6IYfBWMaYQIFYQsBN3pjB
vuWuQD+xTEBMNZLBdFOMQOkESECBraHB1nBBQIeybUBE7JLBQ5f0QAVGJ0CPaZfBImPFQCyl+kBp
dI7B75nbQPAU5kDXzLzBDDLRQMSsE8AxzLDB+yXwQB2twb7O1rrB8gSVQNjV0T5Sh5rBUf4EQdfM
HUBPFLDBzgbpQMOvIUCu17vBbha0QOG4vUAZ/aXByivkQNAs20CNx6jBiRMCQbCymEBYwbDB+MX2
QM15kkDP3aLB0i7aQGz3q0D9OZbB//cAQfdcoUACMYzBQnh/QPydt0DhN4LBjVOMQOU/ukBiOZDB
Mi+NQJuQiUACgrHB5HOeQApcQECBf7rBMYH5QEXs6UBy34TBliMCQUkV7UBm95LBTpWHQPGnAUH9
c4jBromvQMWd9UBZaX3BUhDMQEeDqkCS7XvBMyTaQIzCk0DkTMDBICGgQF0T10AqY7bBeieNQICB
g0DZ79XBlqrDQNeBeUBKtNHB2HOZQI2FQUAP6crBiqUMQe7P80B0bcLBmoQLQftz10D+8LXBpZgF
QXcYvEBjOsLBf5F3QOZopkD9fsTBff+lQApnwkA4SsvBYYHSQCCDQ0AuB4TB5XmaQAojWUAfTILB
3hdqQAM1TUDbIKfB5GYNQAeuc0D3hJfBT389QIRGeEBhDIvBWmKlQBp0DMCCmZ7BwyvLQEnxpb+0
bq7BpX3cQJhdSr5AELTBBu6pQCiaVD5faaHBuxGzQLDCi7/p9KTBA2/VQCFvjD+yJ7DBzf26QG2s
oz9cMKfBVeTOQErtNkBGXZnB6FCHQJAeVUDMfZfBdDrpQL65GkBq8rLB8hzMQNYVv0DPkKrBea/n
QF71lkA2lKrB2P6zQHuIqkD8FHPBr0vTQEWCuUDvz4vB/PCnQHC/dkCf87XBDAniQBd2o0CS8WrB
pgwAQfi3sUDtEofBnaOwQBxCoEDfiYXBvm23QP1Hn0B+Jr3BTBK9QPS4yEBTI7bBToO4QA6rLUAv
BKTBLS/MQGAzXkA4uq3BJsykQHmhyEAXBs7BJd8CQVqe3EBZtrzBZrCWQLCApUC4NMbB8qi0QLpY
XkBxDofB7FiaQBQfRcDlM5nBfzmuQCApSEACNJLBOBWMQNCKRUBHqKHBbiRCQMhQb0DS65LBJsH0
QFznKUBaU5fButb/QIFNvED0nXfBnQ3ZQOYB6EC1NrvBiVHQQOArE8AfXbHB3+PuQNDJtL5MRbvB
FU2WQOxJwD6wbZrBH/MEQev8HkAat6/Bux3qQFx6I0AErbvBIBGwQOgMukAoZqXB6eneQGhA2kBa
h6fB7uoAQTTamkCEY7DBhy71QJQVkkAZi6LBixieQPOJlUDzJ2rBp+6qQO0izEAgc3DBz+3LQL3j
20APZovBuQ3TQLoPr0AqN5TBuVGLQMv2hUAKkbHBMPKfQAeIPkB227rBFirkQLiFrUCMHFrB/C/q
QMhQgUC2O2zBA2oEQRHcj0AoFojBr8kLQcj2xUAGPovBVPKQQHBgqkDZaYjBwpnWQMahlkCNnsDB
PBudQOA210DndrXB9amMQBQnzEB9XtTBUySoQGMY50ABssnBfrbDQLrVv0B2nNHBKlULQUxA90DP
nMDBhD0KQQoV1kC547TBKvUDQcfjv0CixMHBy0GTQKg5h0CInMrBQF9vQFF8rkASssLBsr7UQI2O
SUCHiYTBmF2cQCzzPUBUJILBUmtpQCJTSUDSGafBtT0OQBk+d0D2fpfB6t8+QGJIekDTDIvBcQqd
QN+LFMALD6TB5bXRQFz3n7/h8q/BiODmQAbHyb04zLPBP9ymQKJe+j0cqaPB79uxQIg1kr8x6qfB
3a3bQF3NlD8BsK/BE8S7QCYeoT8UvqfBWfjNQFi+OEDmcJnBCyiHQIlUXUCqWJfBYabsQE9LI0AJ
6rHB3Ei8QMa1wEA096vBO4TdQJLSnECwA6vBscm9QGzlukC71XXBWkTxQK9ItEArZYrB7XamQN0U
bEAg/rbBlxLiQA2UqkA+HGfBs7UJQV09pECpZ4LBLfXCQAMqqkA1jobBlU2xQAUxnEASa77BURiv
QKP7xkBR5LfBnpK2QJGtLEDvFqTBGlrJQLiUYECc4q3Bmm6bQAxNwUDlB9DBbyvAQDD0CEG0HLvB
ThGSQGWfnEAaGsjBWCm4QFnvckD9MYfBNyKMQIg0UsAl8KDBbVWvQCAwV0B4UZLB29iJQAPrQUBF
SaHBb/1CQPDFeUB6l5LBd6TzQABCKUBtepfBU6oFQcUhtkAc4W/B95nLQPyo5UA747zBctnZQHQV
DsCNJrPBuWz/QBVqPr7T1rnBnQqPQFwZWj5LcZ3B31sFQalGLkCpjK3BpB7yQBo+LED5iLrBAdSf
QNFCuEB3PKfBRhLKQPOs3kCt5KjBxCb4QMJro0C3hrDB85zpQIvMm0AbwaLB1OaeQCHRr0Didm/B
aV++QM8W3kBYCHbBjaT0QBEh10DpT4vBHJX2QPGkpECEKpLBxSCHQIKDd0BvP7PB6hKlQDA0MUD1
zbvBc4reQI8IuUAIKVfBZfzfQD2Lh0D+wmXBQA0JQfYcgUAa8YHBKaoZQbg4rkAjKIXBD2KsQJOX
u0CstovBViDSQOonmEDDbsHBMP6NQNjp0kDlIrjBCm2EQJ38v0DdrtbBxW2YQNkz4EBb4svBaiC8
QNTdvUAmLdPBxmbXQLZlE0G7Kr/BlfqfQBL2C0HPVr7BrGrAQPxXDEEkerLBUOmUQPn0e0CGX8zB
VG1iQIJQoEC7FMXBiHzTQO8tTkAcFoTBy76bQB0gZkA4QYLBVPRhQM46PEAaRabBlG4MQPw2ekAI
xpbBbGlDQBnjhkAa/orBjeGaQKoQE8ASNqTBnn3QQDUKoL8D/q/BRmPmQDQ13b2sw7PBJwqmQMKr
Cz4Cu6PBvXqwQCmukL/AAajBQL/bQDf6kz9vnq/BAai7QFeioT9Tu6fBwvHNQEILOEA8XpnBfhqH
QKzvXEDOYJfBQ3LtQM9zIkDcvLHBAYm/QNmIwUCxOazBwBbfQD1KnEBzm6rB/6zEQE3VukDav3XB
lha5QLkZyUBbh47BbAKoQNmGbUBQ4bbByBv1QDqYwkDUq3nBwenpQE2/zUDpwY/B+XCtQBuuqkCI
HIXBduC0QMqmm0D4ir7BLwi0QPIOx0DNPrjBM+i2QJXGLECqDKTB4GjKQLKeYEC5tq3Bh9uXQCRP
bUDnfM/Bw5H8QIV+40DXRrzBDE+WQPDXnkBaU8jBItK4QBpydUBdUYfBL0mJQKENUMDLH6HBa5Cv
QA/2WUATbpLBCTWKQNHzQkCkXaHBIUZCQJQteEATrZLBNKzzQPUQKUCbZZfBHoT7QBJp3kC984XB
+nzOQPdq50Coer3BYjDYQBpGDsAyN7PBCwv/QI6CUb7yxLnBOBeOQID5cT6FjZ3BmroFQUZPLECr
Tq3BND7zQOy1K0AQV7rBUh6iQFH7ukC+rafBTz/OQNtB30C5RqnBl3L7QFaxoUBupK/BusDoQN07
m0BFJqLBzQHBQOm6okACDmnB0Nq1QA0P2UBPm3DBHCCrQCHS6EBa/YzBdMSrQMUBvEDT/JXBkO6I
QObCfEBzNrPBNkKlQP3hMUAXgbvBapgBQaCR0UBKYmvBIHYCQX29o0DktXzBjB34QERHrkDgeJHB
agvxQMXa40CGXpbBi72KQOzSrEBKvIPBw6DVQN71lUDbb8HBZbeSQGZg0kAof7jBFrWBQOpPdUDt
QNbB/pO4QHthZEC/iNLBQGaOQAPqNEDtx8rB7zoGQWK//UBOlsDBJn0CQQca5UCtvbPBs5QDQRen
xEAJl7/BUsdqQEUQo0DHZMXBZpGfQAHMukCZJc3BOCrbQJgxbEAyxoXBeSCmQL8xTUCX0IHBeDdj
QGLHPkC0dKbBkhkMQHDHeEBW75bB59lBQAaVhUBRCYvBA6i1QDpDFsDZBZ7B1ajDQKAMqb+alq/B
zf7IQFQxOL7HHLbBN3q4QB8p1T2h2Z/BHFq7QNdAl793f6TBI6vGQInHjD+he7HBfLC+QEtLnT+4
eabB/LvPQK/pN0CJPJjBj/qHQIcgWUB0tJfBN13IQMTKHkAfRbbBTn4LQYCKl0A2iaXBVOACQdeO
YUCu/6vBVfvhQDPYg0DSPWzBse/hQGDp7T8con3BNDPBQNftm0Do5q/B5JUHQQywckAbgGPBqKgH
QfJqzj949XTBjhDcQNmlWEAw0YDB0/DTQCw+w0Cp0KnBDu0CQQQwwkB1+6nBGr28QEiXLEBOQaPB
12/TQOq1XEBN96zBxN7NQEMM80AvLpnBXuoKQTQ180CCmLjB1rvBQMbUx0BdUZ7Bc2uwQLu/bEBd
MYbBuwmxQHlIU8BCx5jBT4GtQHmcT0ANj5HBN4iPQFSvRECHv6HBscJAQGWIdEDp7pPBzQL0QGUd
IUC01ZXB5H4KQVbkFkBnTmHBQtQKQZCDx0AbzLTBFu3FQOuZE8BhE7PBD9DOQP8VlL6Glb7BkLCx
QGpTYz5bbpfBQC/hQP7cIUCEf7zBwCypQLWiL0Cdw7nBoXUGQVhIlECeJJ3BUxIdQei5l0Cq+KXB
zpAJQdsKZUBvILTBVnYIQeuqJkBqEajBeI7JQFQyckB9w2DBLu7eQCaOpkB1vG7BeJvdQIe8pz9c
XobBsjHKQAiawT8N4XHBrYmeQBRNm0CuYK7BVfvGQKMQoUCqfLjBga0TQUP0hUBNoG7BVpQJQVKI
iEC3v1PBEtkJQWIPCj9QynHB9IATQQoR+T/aaoDBUZP1QMCibUCbSIbBOxnKQC3y30B8Rq7BYN0I
Qa1d3EBc56TBcVLAQMvZ9EAjEpHBvuvwQDfE9UCFvZjBYgfBQNqsBkGTEZ7BJCERQdcm9EBc08DB
VAT1QJ7v/0BTd7jBDywVQaplA0FEYrPBkKWeQJJgxUAQqp7B7InOQBXLrUADVpnBtgeXQL7PTEBK
loHB/mOrQAc0mUCf+4XBryRzQDxoRUD3kKfBLjgPQJegeUAw9ZjBemU5QKWQgUDdMozB5SOiQAiY
FcDyi6LBjEzVQESdor+z1a7BpADpQLA/8r0NGbPB+t6oQCjt6z2v/aLBgGu1QPIIlL/00KbBTUHc
QI7rkj+1bK/BRTO8QGQ6oD9tg6fB3dvNQPRxO0Aay5nBWxSHQIvlXkBWYpfBRLjrQFtIIkDzIrLB
rLy5QDXHv0DF+6zBIrTbQASAnEAyAKzB07DYQDQLuUB1QHjBl0jZQNuiwkAECZDB/1ekQBbTZUBU
NbfBPnwEQTuTrUCsrnnBNawEQfBbtkCsEJDBsHHAQN8BrkBBnobBc8ytQHY2mEA2A7/BQouqQPO5
w0Dy1bjBdPa1QOHRLEBXNqTBouzHQBPUXkA7Qa7BtV2SQAqvX0Crn8/BOfa3QBNtB0GazLzBJ4iO
QE2EmECOrMjBwWe6QDP9eEAmq4fBZnySQNx1U8ALGp/BdOWvQDIkXECypZLB7zWJQN82QUCKPaHB
pwJDQFEdekDTeZLBL+TyQEzEJkB03JfB6EIOQTn8wUBRA4bBnY7EQGnY4kBFd77BXJPeQO/PD8Dv
s7HB4c4AQdLyVb6RHrnBQxiRQNiwVz5oxJzBrPQEQc5BMECO9q3BcXrwQFfaKEAl0brBmzWeQDjF
t0Cf4KfBZ4nHQM9x3kAdYqrBWWn1QEGkokAC0LHBfwHpQB7rnECg2qPBkUTKQNz7pkAp+mrBkYzV
QJSM20C6JXXBQ5fWQBmk5UB7Zo/Bj9TKQKzrt0BKmZfBIyWFQPTbcEC4X7PBU1WjQBmGKUAjvrvB
r5cMQRl4uECJCmvBNDIGQfSrikBzMHvBA0MGQQikk0BnR5HBqdgMQelmx0A9l5bBPYmgQFTKvEB/
O4bBJ6fOQNK2lEA2DMLBCuCIQL7+zUDL2bjB9jh3QD12Y0A2UtbBXiKzQBOWWkAkxtLBxxeLQKcI
J0DMucrBGVjNQDgKEkFeWcHBWdOWQECuCUG5i7/BvR66QMJNC0GBO7TB2ShbQCfOmkAOosXBA5+V
QN2UtEBnrs3BK0zYQGyaWUChLYXBqUegQKxRZUDVToLBAvpfQJF9OUByEabB4ZULQODUd0BBd5bB
IG1EQLv6h0BY9YrBrdqWQOZoEMCzd6PBeHfMQJuZo7/roK/B+zDjQIhnJ74WobPB2JekQEghLD6B
RqPBv1CtQMnFjr9Fe6fB/UbaQNIIjz9Zja/BPhi7QF8poj8sfqfBktvOQBp2OkCVW5nBKbiHQFrs
XECNcJfBDy3tQDbFHkCI6bHBeDjBQGekwEDnTKzBAyPhQHGfm0CfIqvBXHGvQHaeykDXo43BubbL
QM17ukBrRXbBM3WoQObqbEBYCbfBsaaDQNfJ1EANd4jBApWeQIORxUCUjG3BtQvKQBM5qkB55YbB
z5e0QH/Fm0BBmb7BSHe0QM7wxkBlOrjBKLW3QArvLUALDqTBk0fLQFJkX0BA7q3BVyKfQHsnwUAx
NdDB3uLIQLBuCEG+pLvBG9eUQGYanUCCLMjBWu+3QLhmd0CKTYfBZpmEQIALTMBtNaDBZdmvQCg4
WUBBWZLB/k2LQOrXRUBVfqHBG+JBQGoxc0AIzpLBLIL0QL5dK0DxUJfBSq+JQOsZ5EDfcnvBD0bS
QPsQ5EAOUb3BdeDSQKzLEMB5zbLBQC77QLWDlr6twrnBQEWNQM6Hmj5l/ZzBYsIFQRV6J0AZlq3B
LrXyQJKIJkBtjLrBO1ykQKp2uUC/l6fBkALQQPg83kDcS6nBazv8QF3soEAXmLDBotbsQAOUmkD/
1qLBYvOpQHXrvEAMoZXBrr7BQEWI6ECxZo7Bo9LfQMhX10BXmXXBB9zZQMtfoUCAKmzBkHKJQIYx
e0BBRrPBts2lQCC9MUCtwbvBMIFmQPh87UBwNY3BAw9gQLCSt0CdSojB9TqLQPk1qEDvumzB36ih
QNdn00B6cF3B3eLqQM2wqUCtD4rBVAzVQFcxlkD4tMHBKPOTQEZf1EBlhLjBELeHQGuEwECOxtbB
q4udQJdF4EAOHczBmn2/QLphvED7ddPBCf/gQJRBEkG2w7/B4faoQCEbDEF23b7BJIvJQHD7C0Gk
BrPBn0WWQJV9fECLZMzBYKdoQKgiokCeC8XB/SzPQAsfTEChgYPBRqOZQJKddUAY1ILBOS5mQE2n
RECzuKbBqD0MQCMSckB6KpfBY6E/QMIugkBzGovBa4CfQA6BFMCA+qLBS/jTQE/zob9Y/K7B44bo
QLiP8r18FrPBKqmnQNarAz5hLqPBmrSzQFSFkr8kEqfBZz3cQLMukz/CXa/B4dO7QJ1RoT+KjafB
Wq/NQPwQOkDTpJnB1iqHQFp+X0CwZZfBwZnsQO4cIkDS7LHBoUy8QEMuwEDSSqzBza/dQLRXnEAj
gKvBJRLoQCVaukCTfIzBGxjuQE8BnECQAXTBOVKmQOKwaUDJJ7fBTsgKQSCOzED/c4vBbo4NQSig
sEAWo3LBgLfkQLHokEAVxIXB5MWwQAjRmkBYp77BAzauQNvTxUAfMrjBSjK2QAo3LUArJ6TBRTTJ
QMaeX0AkDq7BUf2aQO6FvkBJbtDB/969QNJsCEGys7vBj5WRQKN6mkCpVcjBrpe4QCJRdUBgRYfB
NRePQNQYUsATrp/BkSewQOzWX0CcsZLB2o+JQKzSQkB4S6HBXmdCQM7neECqg5LBtgDzQF4uJkBc
65fBSBwPQYCb1UAfUIDB/P3JQOm55ED0W73BMuPcQNyND8BE5rHBkbgAQe8OXL6LBrnBmKKPQCp3
aj7LBZ3B/V4FQSSqLkDKqK3BOMTxQKY3KUCalbrB0EWgQMnXt0CiZKfBpEfKQC5I3kBaXKnBYZP3
QLKookABQLHBm97qQNa8m0CmV6PBCs3QQHX60UASiYnBJE7hQIgUs0DU7ZTBgkXtQJhmfUC2Q2rB
cO3VQLusskAbEW7BduyGQIu5dEB9bLPBUj6lQAV0LkAd57vBd2kWQZgCtUApc47BmxMMQd026kDl
JZDB7ZEQQSe/ukBHDWLByaAZQbTfmEC+bnfBpqH9QGRedUDQjYjBvqPRQE7/lkD7p8HB6emMQLg6
0UDqVrjBRgOEQLW0vED8FNfB8PmXQL283UABb8zBerK7QBbXukDWjNPBOJbUQPj0EkFl4b/BOnad
QDQSC0Hx3r7BT1O+QKELDEFDF7PB4nCUQIYEd0CkdMzBsHBhQOpnnkDPVsXBUSO4QNf4OUDMiYLB
ikqfQHpHkECsZ4TBdRBhQOCEPEBvN6bBCj4LQHPzdUDbjZbB3ARDQLsOh0B/94rBzQmgQL7IFMBa
MKPBK0TVQPVcoL878K7BW+3pQNzdx72g47LBdoWnQBwX/D0YXaPBVEe0QGmFkr/GMafBzf3cQMxk
lT+fMq/Bqae7QAFzoT/+nafBjxfNQFRHN0DXipnBNP+GQMinX0BIY5fB/2DtQAoJJECGgbHBHEi8
QE1OwUChJqzBU7fcQNj0nEDObarBqCH/QArEnUDULYjBBT/rQKpBb0DYVW7BQG6nQCala0Df7rbB
a0wXQbANmkAeBoXBVM0NQeD8aUAoH2nBof/lQPCgbkB9YIPBTZSzQMn6mkDch77BmTyxQKtwxkAs
O7jBKse1QCaTLECIDaTBrF/JQKS9YEAzpK3BAO+eQJ3DvkCAZ9DBU3f5QM1C5EDaGrzBivmUQIi/
mkBbV8jBlka2QFDHbkCh5obBUoKPQGdsUsC68J/B6tKvQLlZXkBGkZLBKEyJQHyWQkAmQ6HByilC
QEn1eUAbj5LB0uXyQH3bJEASRJjBpjkZQcdEmEBW/XLBcFzLQF+V50DrR73BmaveQCyDDsDz1rHB
LrMBQbmXPb6pr7jB+vWOQK8YXD5nVJ3BEpcFQZFSMEDuFK3BFCHzQAxnLEDfH7rBrtOeQML8uUCJ
safBaQrKQM5t30AYK6nBojj5QGUro0BKWq/BkePlQMUWnECN76HBxfDxQKfku0DyCoXBeDf8QAJj
nUDD8pDB+IfaQHXwN0AIXGfBDdDdQExalUBhuGfB7emHQAf8eED5YrPBbd6lQAHgL0ABkbvBexQe
QU9+eUCShojBEBIgQRwPtkDnDYjB1gIQQQ/SbEDdrFfBgjkUQTktLUBxPG/BzLL0QE6MM0AscYbB
B5fUQCk9lkC3WMHBr62PQPb00EDUm7jBy1mIQEn8vEDQI9fBO7+bQDn93UC+a8zButC/QMICu0DR
ZtPB63gEQd4d/0BgRsDBse8AQWFD5UAukLPBHkICQRrgxUB1lb/BYQKYQO6Ld0C9c8zBxOFnQG3A
nkCreMXBz1alQK3JPECQYILBx32oQATYlkBe+ITBE5NgQJFQPEDcMKbBQRoLQFhZd0C6n5bBgL1C
QJq7h0BNBovB

> <OMEGA_E>
qCiLP8ohiT/1IIk/uvuSP5uwkj/2lo8/faiRP8XukT9ALZI/t1OSPw==

> <OMEGA_NBR>
     30301

$$$$
290124
  -OEChem-04172616093D

 63 66  0     1  0  0  0  0  0999 V2000
    5.7024   -2.3457  -19.7524 C   0  0  0  0  0  0  0  0  0  0  0  0
    6.1000   -1.3264  -21.9586 C   0  0  0  0  0  0  0  0  0  0  0  0
    6.2527   -0.1885  -22.7798 C   0  0  0  0  0  0  0  0  0  0  0  0
    5.7721    0.1049  -19.9919 C   0  0  0  0  0  0  0  0  0  0  0  0
    5.8601   -1.1824  -20.5694 C   0  0  0  0  0  0  0  0  0  0  0  0
    6.1862    1.0926  -22.2038 C   0  0  0  0  0  0  0  0  0  0  0  0
    5.9518    1.2276  -20.8255 C   0  0  0  0  0  0  0  0  0  0  0  0
    6.4985    2.8676  -19.0378 C   0  0  0  0  0  0  0  0  0  0  0  0
    4.2694    3.4300  -18.9718 C   0  0  0  0  0  0  0  0  0  0  0  0
    6.2348    2.4680  -22.8091 C   0  0  0  0  0  0  0  0  0  0  0  0
    8.6752    4.7568  -20.7523 C   0  0  0  0  0  0  0  0  0  0  0  0
    8.1522    3.5307  -21.5411 C   0  0  0  0  0  0  0  0  0  0  0  0
    5.9990    4.8622  -22.0480 C   0  0  0  0  0  0  0  0  0  0  0  0
    6.5814    6.1155  -21.3290 C   0  0  2  0  0  0  0  0  0  0  0  0
    8.1413    6.0799  -21.3385 C   0  0  2  0  0  0  0  0  0  0  0  0
    5.8961    2.6967  -20.4238 C   0  0  1  0  0  0  0  0  0  0  0  0
    6.5834    3.4467  -21.6559 C   0  0  1  0  0  0  0  0  0  0  0  0
    6.4414    7.6128  -19.2403 C   0  0  0  0  0  0  0  0  0  0  0  0
    7.9194    3.1140  -15.8630 C   0  0  0  0  0  0  0  0  0  0  0  0
    6.6447    5.1250  -15.0333 C   0  0  0  0  0  0  0  0  0  0  0  0
    8.6312    7.5833  -23.1929 C   0  0  0  0  0  0  0  0  0  0  0  0
    5.9922    6.2980  -19.9114 C   0  0  0  0  0  0  0  0  0  0  0  0
    5.5442    3.5947  -16.7586 C   0  0  0  0  0  0  0  0  0  0  0  0
    6.8962    4.2222  -16.2611 C   0  0  0  0  0  0  0  0  0  0  0  0
    5.5753   -3.2968  -19.0900 N   0  0  0  0  0  0  0  0  0  0  0  0
    5.4696    3.3656  -18.2319 N   0  0  0  0  0  0  0  0  0  0  0  0
    4.4873    3.0816  -20.2233 N   0  3  0  0  0  0  0  0  0  0  0  0
    3.0230    3.8117  -18.4843 N   0  0  0  0  0  0  0  0  0  0  0  0
    7.6108    2.4894  -18.6913 O   0  0  0  0  0  0  0  0  0  0  0  0
    8.6380    6.2259  -22.6922 O   0  0  0  0  0  0  0  0  0  0  0  0
    7.4393    5.0185  -17.2217 F   0  0  0  0  0  0  0  0  0  0  0  0
    6.1665   -2.3135  -22.3919 H   0  0  0  0  0  0  0  0  0  0  0  0
    6.4191   -0.3008  -23.8410 H   0  0  0  0  0  0  0  0  0  0  0  0
    5.5720    0.2255  -18.9375 H   0  0  0  0  0  0  0  0  0  0  0  0
    7.0073    2.5117  -23.5910 H   0  0  0  0  0  0  0  0  0  0  0  0
    5.2579    2.7261  -23.2440 H   0  0  0  0  0  0  0  0  0  0  0  0
    8.3490    4.6731  -19.7051 H   0  0  0  0  0  0  0  0  0  0  0  0
    9.7744    4.7658  -20.7943 H   0  0  0  0  0  0  0  0  0  0  0  0
    8.5690    3.5735  -22.5581 H   0  0  0  0  0  0  0  0  0  0  0  0
    8.5087    2.6205  -21.0367 H   0  0  0  0  0  0  0  0  0  0  0  0
    4.9186    4.8390  -21.8425 H   0  0  0  0  0  0  0  0  0  0  0  0
    6.1640    4.9973  -23.1272 H   0  0  0  0  0  0  0  0  0  0  0  0
    6.2783    6.9927  -21.9194 H   0  0  0  0  0  0  0  0  0  0  0  0
    8.5087    6.9099  -20.7171 H   0  0  0  0  0  0  0  0  0  0  0  0
    5.9922    7.6861  -18.2389 H   0  0  0  0  0  0  0  0  0  0  0  0
    7.5378    7.6233  -19.1519 H   0  0  0  0  0  0  0  0  0  0  0  0
    6.1147    8.4668  -19.8520 H   0  0  0  0  0  0  0  0  0  0  0  0
    8.1093    2.4617  -16.7281 H   0  0  0  0  0  0  0  0  0  0  0  0
    8.8618    3.5828  -15.5435 H   0  0  0  0  0  0  0  0  0  0  0  0
    7.5087    2.5159  -15.0362 H   0  0  0  0  0  0  0  0  0  0  0  0
    5.9242    5.9128  -15.2982 H   0  0  0  0  0  0  0  0  0  0  0  0
    6.2390    4.5191  -14.2097 H   0  0  0  0  0  0  0  0  0  0  0  0
    7.5921    5.5861  -14.7171 H   0  0  0  0  0  0  0  0  0  0  0  0
    9.0226    7.5975  -24.2209 H   0  0  0  0  0  0  0  0  0  0  0  0
    7.6018    7.9710  -23.1873 H   0  0  0  0  0  0  0  0  0  0  0  0
    9.2640    8.2140  -22.5511 H   0  0  0  0  0  0  0  0  0  0  0  0
    4.8946    6.2982  -19.9846 H   0  0  0  0  0  0  0  0  0  0  0  0
    6.3177    5.4547  -19.2845 H   0  0  0  0  0  0  0  0  0  0  0  0
    5.4090    2.6268  -16.2537 H   0  0  0  0  0  0  0  0  0  0  0  0
    4.7263    4.2734  -16.4752 H   0  0  0  0  0  0  0  0  0  0  0  0
    3.7908    3.0786  -20.9409 H   0  0  0  0  0  0  0  0  0  0  0  0
    2.2318    3.8316  -19.0955 H   0  0  0  0  0  0  0  0  0  0  0  0
    2.9186    4.0660  -17.5228 H   0  0  0  0  0  0  0  0  0  0  0  0
  1  5  1  0  0  0  0
  1 25  3  0  0  0  0
  2  3  2  0  0  0  0
  2  5  1  0  0  0  0
  3  6  1  0  0  0  0
  4  5  2  0  0  0  0
  4  7  1  0  0  0  0
  6  7  2  0  0  0  0
  6 10  1  0  0  0  0
  7 16  1  0  0  0  0
  8 16  1  0  0  0  0
  8 26  1  0  0  0  0
  8 29  2  0  0  0  0
  9 26  1  0  0  0  0
  9 27  2  0  0  0  0
  9 28  1  0  0  0  0
 10 17  1  0  0  0  0
 11 12  1  0  0  0  0
 11 15  1  0  0  0  0
 12 17  1  0  0  0  0
 13 14  1  0  0  0  0
 13 17  1  0  0  0  0
 14 15  1  0  0  0  0
 14 22  1  0  0  0  0
 15 30  1  0  0  0  0
 16 17  1  0  0  0  0
 16 27  1  0  0  0  0
 18 22  1  0  0  0  0
 19 24  1  0  0  0  0
 20 24  1  0  0  0  0
 21 30  1  0  0  0  0
 23 24  1  0  0  0  0
 23 26  1  0  0  0  0
 24 31  1  0  0  0  0
  2 32  1  0  0  0  0
  3 33  1  0  0  0  0
  4 34  1  0  0  0  0
 10 35  1  0  0  0  0
 10 36  1  0  0  0  0
 11 37  1  0  0  0  0
 11 38  1  0  0  0  0
 12 39  1  0  0  0  0
 12 40  1  0  0  0  0
 13 41  1  0  0  0  0
 13 42  1  0  0  0  0
 14 43  1  0  0  0  0
 15 44  1  0  0  0  0
 18 45  1  0  0  0  0
 18 46  1  0  0  0  0
 18 47  1  0  0  0  0
 19 48  1  0  0  0  0
 19 49  1  0  0  0  0
 19 50  1  0  0  0  0
 20 51  1  0  0  0  0
 20 52  1  0  0  0  0
 20 53  1  0  0  0  0
 21 54  1  0  0  0  0
 21 55  1  0  0  0  0
 21 56  1  0  0  0  0
 22 57  1  0  0  0  0
 22 58  1  0  0  0  0
 23 59  1  0  0  0  0
 23 60  1  0  0  0  0
 27 61  1  0  0  0  0
 28 62  1  0  0  0  0
 28 63  1  0  0  0  0
M  CHG  1  27   1
M  END
> <OMEGA_C>
Nnq2QFsgFsAEBZ7BkTPDQN7Iqb8eq6/BKRbIQK7/QL4RPbbBCrW4QNbo1j1475/BT4a7QEpal78v
jqTBrfXFQMfZiz93obHBR3W+QMcgnT+QmqbBdfPPQE6GN0BfTZjBi56IQIuFW0AnxpfBLoPHQDnz
HUAXebbBqM0KQew3mECsBKbBWW8CQff2YUAVVKzBmPe/QAGXm0BnYrDB9ZrSQFmyw0DFoarBpUIC
QZCOwkBZtarBj6y8QCqWLEDbY6PBgKvSQLOWXEAvP63BGiDOQG6c80Au7JnBs2v9QFRLR0DOzn3B
eaHUQGUApEA/iHDBixkKQcyq8kAhi7nBC8C/QDeJyUCASp/B6mmxQJEPZkCWEYbBEa7cQJUch0Cx
FoLBsGiyQKD+UsBSuJjBDQevQGxmV0D42pHBJpiPQAI5RUBVyaHBxHhBQJjyc0DQ35PBRYvzQIVR
H0DHh5XBYjUKQVU6x0CkibXBpg7uQMOXoEAhxonBS1TFQK8PFMCXIrPB62jNQHn+mb5gur7Bh02y
QKDlZj4BgJfB1zvgQHfAIEBJurzB60CoQDd5LkC/87nBTZUFQVuKlUAVpJ3B02McQSOBmECtWqbB
sxoJQV+0ZEAHd7TBsyMIQQC2J0AfS6jBOWWdQBDZmkBZva7B4j/FQMDpn0BwBLnBHejIQIzE30AA
W6/BfyMIQYId3UCcvKXBP8C/QNH09UBE6ZHBvDXxQODx80AYN5nBBKzDQN53B0HU0J7B3r8BQcaM
HUA604XB78kNQd9MZUBBsnjBNkfwQOQDIUBDlHDB2JK9QBA2vUB6xXTBhqXHQI+ckEAQW2PBLvLy
QAzBskAPeWvBjVwQQdwe80BUxMHB/kHzQBkS/0CQf7nBVzkUQVdsA0GmaLTB1KCcQPWKyUB04J/B
jCrKQBmNrkC5RprBvBatQFgdKEChB4LBeD2XQP+/iEAwzYPB6pxyQIgIRUDihqfBQdUOQEU5dUCK
w5jB18o6QJYcgkC2LozB

> <OMEGA_E>
gWqJPw==

> <OMEGA_NBR>
     31655

$$$$
290130
  -OEChem-04172616093D

 59 63  0     1  0  0  0  0  0999 V2000
    5.1068   -2.2644  -19.9059 C   0  0  0  0  0  0  0  0  0  0  0  0
    6.4006   -1.3379  -21.7877 C   0  0  0  0  0  0  0  0  0  0  0  0
    6.9597   -0.2345  -22.4639 C   0  0  0  0  0  0  0  0  0  0  0  0
    7.2355    5.2560  -16.7502 C   0  0  0  0  0  0  0  0  0  0  0  0
    5.3193    0.1572  -20.1699 C   0  0  0  0  0  0  0  0  0  0  0  0
    7.4743    6.6225  -16.5416 C   0  0  0  0  0  0  0  0  0  0  0  0
    5.2254    6.9154  -15.9625 C   0  0  0  0  0  0  0  0  0  0  0  0
    5.6025   -1.1426  -20.6323 C   0  0  0  0  0  0  0  0  0  0  0  0
    6.7057    1.0571  -21.9830 C   0  0  0  0  0  0  0  0  0  0  0  0
    5.8676    1.2389  -20.8696 C   0  0  0  0  0  0  0  0  0  0  0  0
    5.9344    4.7644  -16.5376 C   0  0  0  0  0  0  0  0  0  0  0  0
    6.4679    2.9210  -19.1797 C   0  0  0  0  0  0  0  0  0  0  0  0
    4.2293    3.3518  -18.9301 C   0  0  0  0  0  0  0  0  0  0  0  0
    7.2819    2.3802  -22.3559 C   0  0  0  0  0  0  0  0  0  0  0  0
    5.6724    4.4706  -24.0162 C   0  0  0  0  0  0  0  0  0  0  0  0
    5.1705    3.7809  -22.7444 C   0  0  0  0  0  0  0  0  0  0  0  0
    7.1071    4.7215  -21.4024 C   0  0  0  0  0  0  0  0  0  0  0  0
    7.6920    5.3281  -22.6891 C   0  0  1  0  0  0  0  0  0  0  0  0
    6.5494    5.6827  -23.6615 C   0  0  1  0  0  0  0  0  0  0  0  0
    5.7541    2.6947  -20.4990 C   0  0  1  0  0  0  0  0  0  0  0  0
    6.3286    3.4321  -21.7444 C   0  0  2  0  0  0  0  0  0  0  0  0
    8.5052    6.5794  -22.3262 C   0  0  0  0  0  0  0  0  0  0  0  0
    6.5148    7.4217  -25.3207 C   0  0  0  0  0  0  0  0  0  0  0  0
    5.6294    3.3216  -16.8282 C   0  0  0  0  0  0  0  0  0  0  0  0
    4.7049   -3.1754  -19.3003 N   0  0  0  0  0  0  0  0  0  0  0  0
    6.4676    7.4327  -16.1457 N   0  0  0  0  0  0  0  0  0  0  0  0
    4.9430    5.6042  -16.1629 N   0  0  0  0  0  0  0  0  0  0  0  0
    5.4453    3.1450  -18.2699 N   0  0  0  0  0  0  0  0  0  0  0  0
    4.3611    3.0607  -20.1991 N   0  3  0  0  0  0  0  0  0  0  0  0
    3.0477    3.7753  -18.3433 N   0  0  0  0  0  0  0  0  0  0  0  0
    7.6530    2.7294  -18.9292 O   0  0  0  0  0  0  0  0  0  0  0  0
    7.1175    6.1955  -24.8757 O   0  0  0  0  0  0  0  0  0  0  0  0
    6.5815   -2.3384  -22.1521 H   0  0  0  0  0  0  0  0  0  0  0  0
    7.5746   -0.3822  -23.3394 H   0  0  0  0  0  0  0  0  0  0  0  0
    8.0309    4.5974  -17.0663 H   0  0  0  0  0  0  0  0  0  0  0  0
    4.6975    0.3149  -19.3010 H   0  0  0  0  0  0  0  0  0  0  0  0
    8.4633    7.0273  -16.6974 H   0  0  0  0  0  0  0  0  0  0  0  0
    4.4309    7.5743  -15.6446 H   0  0  0  0  0  0  0  0  0  0  0  0
    8.2940    2.4901  -21.9393 H   0  0  0  0  0  0  0  0  0  0  0  0
    7.3221    2.4875  -23.4499 H   0  0  0  0  0  0  0  0  0  0  0  0
    6.2647    3.7555  -24.6060 H   0  0  0  0  0  0  0  0  0  0  0  0
    4.8098    4.8090  -24.6090 H   0  0  0  0  0  0  0  0  0  0  0  0
    4.4592    4.4506  -22.2387 H   0  0  0  0  0  0  0  0  0  0  0  0
    4.6588    2.8495  -23.0283 H   0  0  0  0  0  0  0  0  0  0  0  0
    7.9244    4.4819  -20.7063 H   0  0  0  0  0  0  0  0  0  0  0  0
    6.4261    5.4465  -20.9326 H   0  0  0  0  0  0  0  0  0  0  0  0
    8.3553    4.5916  -23.1661 H   0  0  0  0  0  0  0  0  0  0  0  0
    5.9151    6.4484  -23.1911 H   0  0  0  0  0  0  0  0  0  0  0  0
    8.9279    7.0206  -23.2408 H   0  0  0  0  0  0  0  0  0  0  0  0
    7.8493    7.3130  -21.8346 H   0  0  0  0  0  0  0  0  0  0  0  0
    9.3209    6.3009  -21.6427 H   0  0  0  0  0  0  0  0  0  0  0  0
    6.9990    7.7523  -26.2514 H   0  0  0  0  0  0  0  0  0  0  0  0
    5.4425    7.2579  -25.5036 H   0  0  0  0  0  0  0  0  0  0  0  0
    6.6410    8.1939  -24.5475 H   0  0  0  0  0  0  0  0  0  0  0  0
    6.4647    2.6935  -16.4851 H   0  0  0  0  0  0  0  0  0  0  0  0
    4.7093    3.0277  -16.3020 H   0  0  0  0  0  0  0  0  0  0  0  0
    3.6200    3.0838  -20.8700 H   0  0  0  0  0  0  0  0  0  0  0  0
    2.2219    3.8758  -18.8982 H   0  0  0  0  0  0  0  0  0  0  0  0
    3.0208    3.9804  -17.3650 H   0  0  0  0  0  0  0  0  0  0  0  0
  1  8  1  0  0  0  0
  1 25  3  0  0  0  0
  2  3  2  0  0  0  0
  2  8  1  0  0  0  0
  3  9  1  0  0  0  0
  4  6  2  0  0  0  0
  4 11  1  0  0  0  0
  5  8  2  0  0  0  0
  5 10  1  0  0  0  0
  6 26  1  0  0  0  0
  7 26  2  0  0  0  0
  7 27  1  0  0  0  0
  9 10  2  0  0  0  0
  9 14  1  0  0  0  0
 10 20  1  0  0  0  0
 11 24  1  0  0  0  0
 11 27  2  0  0  0  0
 12 20  1  0  0  0  0
 12 28  1  0  0  0  0
 12 31  2  0  0  0  0
 13 28  1  0  0  0  0
 13 29  2  0  0  0  0
 13 30  1  0  0  0  0
 14 21  1  0  0  0  0
 15 16  1  0  0  0  0
 15 19  1  0  0  0  0
 16 21  1  0  0  0  0
 17 18  1  0  0  0  0
 17 21  1  0  0  0  0
 18 19  1  0  0  0  0
 18 22  1  0  0  0  0
 19 32  1  0  0  0  0
 20 21  1  0  0  0  0
 20 29  1  0  0  0  0
 23 32  1  0  0  0  0
 24 28  1  0  0  0  0
  2 33  1  0  0  0  0
  3 34  1  0  0  0  0
  4 35  1  0  0  0  0
  5 36  1  0  0  0  0
  6 37  1  0  0  0  0
  7 38  1  0  0  0  0
 14 39  1  0  0  0  0
 14 40  1  0  0  0  0
 15 41  1  0  0  0  0
 15 42  1  0  0  0  0
 16 43  1  0  0  0  0
 16 44  1  0  0  0  0
 17 45  1  0  0  0  0
 17 46  1  0  0  0  0
 18 47  1  0  0  0  0
 19 48  1  0  0  0  0
 22 49  1  0  0  0  0
 22 50  1  0  0  0  0
 22 51  1  0  0  0  0
 23 52  1  0  0  0  0
 23 53  1  0  0  0  0
 23 54  1  0  0  0  0
 24 55  1  0  0  0  0
 24 56  1  0  0  0  0
 29 57  1  0  0  0  0
 30 58  1  0  0  0  0
 30 59  1  0  0  0  0
M  CHG  1  29   1
M  END
> <OMEGA_C>
gWqjQKTrEMA5P5/BFNLMQLhBq782Ta7B9rXeQOwUcL4StrPBFonnQGsxqEBuAIbB5zeqQOj1ID7j
W6HBay3vQDvr00AgVYTBVjanQPFK3UBiZn/Bg0ezQM1Bkr8JD6XByZTWQENOhz8o3a/BHsO7QNuT
nj/l9KbBtea9QDJ2mEALTYTBsvjOQFzyOkD+b5nBKVaHQFKDVkDEcJfBYwXpQNBUGEDz2LLBjoS1
QAgPj0A4IcDBgnSlQCT6cUCP9LXBQW3jQMgWl0APOKvBrST2QLB/qkA0g7XBpJTRQH7YtUC7Sr3B
wyG4QHR2LEDm/aPBLITKQIinW0CH9K3BUBUIQTyK0kD/m7LB1njQQOF+7UDWkMrB8iO0QFCVVEA8
oIbB2o6WQM45S8DvZprBYvbOQPPY7UBtKoHB6SyeQNRVs0CoTYHBRUCuQGpHSUDDKJLBdY6LQPri
Q0Cwl6HB/Q1DQByecUAdv5LBPeX0QAKuLkDobpfBVcLjQOZBxkCFAcfBupvSQE6oFcB6N7HB1GLy
QOqyw74et7rBlH4AQfwdk0DTh4jBUlKWQHU5oT50aJrB1GkHQfXf4EAvlIXBCMqNQJhg8kAqUHrB
OrQEQRFdH0Cog6/Bt07qQKQzH0B8mbvBqnjIQKlacEAq2cTB++mZQKXjmUAl38TBEbKOQO5qjkD0
6LHBjRSVQHRdNkDjObjBxpT9QMBrj0BwpqXBjKLNQM9JrkAKdqfBfK8FQcnukkBDVLnBmEi9QJhZ
zkBOh7nBr9gOQd2o4EBB7bnBjS37QNED6kA/ra7BdCIVQRahyUBTJK3B2vffQAET+EDsAtLBEimu
QF5A6EBoB8zBI4PUQEgaA0FfYcTBht7OQMNhLEB64YPBTbKWQJTFQUBlaoLBca1nQKFdRUC29abB
nTMOQJsNeECEL5fBd1RBQLG+fkBr64rBmmacQKcyFMCis6PB+RXRQGVhob8/sK/BuHDmQLZa7L2c
lrPBHW7+QNqJlkAD9YLBntCmQKKX/z33YaPBrfUUQeKuj0D5oIDB4F4OQZKiDEBf6n3BW3OxQEZg
kr98nKfBApbbQCkwkz9jgK/B8tO7QA+poD+tiKfB8rjiQDHqZUAb+YLBW8/NQBfZOECrVpnBx+aG
QP/VXUA4ZpfBfRHtQPAJIkB/urHB73e4QLsHk0D8z7/Bt4unQFr0cUCBOrbBy6feQEL5m0AvB6rB
ueDwQFsNtUD+s7PB3ifNQFGAvUAxFbzBHtO2QDaELEB26qPBlnnKQMS6YEAdd63BDCwCQVCl30BO
ra/BzT/AQLke6kAotsvBJdu0QMpPb0Afx4bBQESLQI93UcDliaDBsUEcQelXT0AScH3BiVnyQAm6
FkCY5YDBQxKvQGFjWkDeUJLBJR2KQJayQkB8VaHBwaFBQALTeEAVuJLBL77zQB+qKEBe1JfBhy3f
QH2S00DSOMXBx+rYQIb3DsCF4rLBZ9/+QBCcV77FprnBC5LyQLBAtkAysITBJi2PQDqMZD4SIZ3B
L94fQU93qkCDXYDBuHEUQfvVmT/BF3vBq8YFQS3EK0Dsf63BvfTxQPFEK0DVXbrBApDQQBbXf0AW
GMTBk7CdQOJKmkBJOsXBVgSNQIjGikCCiLLBO7ubQO4GNECtMbnBnb34QGa8lUAxVKTBjePFQF2L
r0BBIqbBBSMFQdXhoUBqd7fB2Uq0QJ9t0UDSV7jBCq8IQfur8UCSf7bBlljrQBG78kCUuavB5hMP
QV7Q2EBK8anB4a/QQJDW+UCUbdLBmoyoQKNJ00Ca1c7B6fSvQL4yAUGdz8bB/YigQJsgREADCYLB
dLWqQBXzmEDgdoXBAC9jQDbIPUDSb6bBnFwLQCJQeEB99ZbBjipBQFBdhkC1HYvB

> <OMEGA_E>
/EuGP8hXjz8=

> <OMEGA_NBR>
     33900

$$$$
290128
  -OEChem-04172616093D

 58 61  0     1  0  0  0  0  0999 V2000
    5.1484   -2.2416  -19.8545 C   0  0  0  0  0  0  0  0  0  0  0  0
    6.4076   -1.3260  -21.7717 C   0  0  0  0  0  0  0  0  0  0  0  0
    6.9538   -0.2234  -22.4641 C   0  0  0  0  0  0  0  0  0  0  0  0
    5.3368    0.1745  -20.1582 C   0  0  0  0  0  0  0  0  0  0  0  0
    5.6246   -1.1269  -20.6065 C   0  0  0  0  0  0  0  0  0  0  0  0
    6.6992    1.0726  -21.9932 C   0  0  0  0  0  0  0  0  0  0  0  0
    5.8642    1.2531  -20.8797 C   0  0  0  0  0  0  0  0  0  0  0  0
    6.4560    2.8884  -19.1917 C   0  0  0  0  0  0  0  0  0  0  0  0
    4.2217    3.3390  -18.9393 C   0  0  0  0  0  0  0  0  0  0  0  0
    7.2640    2.4025  -22.3838 C   0  0  0  0  0  0  0  0  0  0  0  0
    5.6964    4.6312  -23.9398 C   0  0  0  0  0  0  0  0  0  0  0  0
    5.1894    3.8764  -22.7095 C   0  0  0  0  0  0  0  0  0  0  0  0
    7.1591    4.7163  -21.3379 C   0  0  0  0  0  0  0  0  0  0  0  0
    7.7287    5.3867  -22.5971 C   0  0  1  0  0  0  0  0  0  0  0  0
    6.5682    5.8223  -23.5096 C   0  0  1  0  0  0  0  0  0  0  0  0
    5.7510    2.7018  -20.5091 C   0  0  1  0  0  0  0  0  0  0  0  0
    6.3428    3.4603  -21.7302 C   0  0  2  0  0  0  0  0  0  0  0  0
    8.5812    6.5957  -22.1796 C   0  0  0  0  0  0  0  0  0  0  0  0
    6.3648    7.5996  -25.1143 C   0  0  0  0  0  0  0  0  0  0  0  0
    7.5070    3.8763  -14.6883 C   0  0  0  0  0  0  0  0  0  0  0  0
    5.6298    3.2317  -16.8672 C   0  0  0  0  0  0  0  0  0  0  0  0
    6.2432    4.6128  -16.6184 C   0  0  0  0  0  0  0  0  0  0  0  0
    4.7613   -3.1424  -19.2243 N   0  0  0  0  0  0  0  0  0  0  0  0
    5.4260    3.0701  -18.2875 N   0  0  0  0  0  0  0  0  0  0  0  0
    4.3554    3.0680  -20.2108 N   0  3  0  0  0  0  0  0  0  0  0  0
    3.0526    3.7840  -18.3415 N   0  0  0  0  0  0  0  0  0  0  0  0
    7.6391    2.6873  -18.9345 O   0  0  0  0  0  0  0  0  0  0  0  0
    7.1052    6.4444  -24.6853 O   0  0  0  0  0  0  0  0  0  0  0  0
    6.5175    4.7865  -15.2220 O   0  0  0  0  0  0  0  0  0  0  0  0
    6.5875   -2.3281  -22.1321 H   0  0  0  0  0  0  0  0  0  0  0  0
    7.5597   -0.3763  -23.3450 H   0  0  0  0  0  0  0  0  0  0  0  0
    4.7263    0.3377  -19.2824 H   0  0  0  0  0  0  0  0  0  0  0  0
    8.2930    2.5066  -22.0091 H   0  0  0  0  0  0  0  0  0  0  0  0
    7.2592    2.5142  -23.4781 H   0  0  0  0  0  0  0  0  0  0  0  0
    6.2940    3.9499  -24.5633 H   0  0  0  0  0  0  0  0  0  0  0  0
    4.8373    5.0001  -24.5193 H   0  0  0  0  0  0  0  0  0  0  0  0
    4.4844    4.5233  -22.1667 H   0  0  0  0  0  0  0  0  0  0  0  0
    4.6689    2.9674  -23.0452 H   0  0  0  0  0  0  0  0  0  0  0  0
    7.9868    4.4210  -20.6763 H   0  0  0  0  0  0  0  0  0  0  0  0
    6.5045    5.4265  -20.8115 H   0  0  0  0  0  0  0  0  0  0  0  0
    8.3616    4.6663  -23.1362 H   0  0  0  0  0  0  0  0  0  0  0  0
    5.9389    6.5374  -22.9595 H   0  0  0  0  0  0  0  0  0  0  0  0
    8.9932    7.0818  -23.0762 H   0  0  0  0  0  0  0  0  0  0  0  0
    7.9550    7.3130  -21.6288 H   0  0  0  0  0  0  0  0  0  0  0  0
    9.4055    6.2576  -21.5344 H   0  0  0  0  0  0  0  0  0  0  0  0
    6.8326    8.0214  -26.0161 H   0  0  0  0  0  0  0  0  0  0  0  0
    5.3288    7.3075  -25.3412 H   0  0  0  0  0  0  0  0  0  0  0  0
    6.3661    8.3539  -24.3137 H   0  0  0  0  0  0  0  0  0  0  0  0
    7.6535    4.0800  -13.6173 H   0  0  0  0  0  0  0  0  0  0  0  0
    7.1613    2.8404  -14.8204 H   0  0  0  0  0  0  0  0  0  0  0  0
    8.4589    4.0160  -15.2216 H   0  0  0  0  0  0  0  0  0  0  0  0
    6.3116    2.4510  -16.4989 H   0  0  0  0  0  0  0  0  0  0  0  0
    4.6660    3.1539  -16.3428 H   0  0  0  0  0  0  0  0  0  0  0  0
    7.1806    4.7021  -17.1870 H   0  0  0  0  0  0  0  0  0  0  0  0
    5.5379    5.3891  -16.9498 H   0  0  0  0  0  0  0  0  0  0  0  0
    3.6169    3.1040  -20.8842 H   0  0  0  0  0  0  0  0  0  0  0  0
    2.2293    3.9195  -18.8927 H   0  0  0  0  0  0  0  0  0  0  0  0
    3.0326    3.9695  -17.3590 H   0  0  0  0  0  0  0  0  0  0  0  0
  1  5  1  0  0  0  0
  1 23  3  0  0  0  0
  2  3  2  0  0  0  0
  2  5  1  0  0  0  0
  3  6  1  0  0  0  0
  4  5  2  0  0  0  0
  4  7  1  0  0  0  0
  6  7  2  0  0  0  0
  6 10  1  0  0  0  0
  7 16  1  0  0  0  0
  8 16  1  0  0  0  0
  8 24  1  0  0  0  0
  8 27  2  0  0  0  0
  9 24  1  0  0  0  0
  9 25  2  0  0  0  0
  9 26  1  0  0  0  0
 10 17  1  0  0  0  0
 11 12  1  0  0  0  0
 11 15  1  0  0  0  0
 12 17  1  0  0  0  0
 13 14  1  0  0  0  0
 13 17  1  0  0  0  0
 14 15  1  0  0  0  0
 14 18  1  0  0  0  0
 15 28  1  0  0  0  0
 16 17  1  0  0  0  0
 16 25  1  0  0  0  0
 19 28  1  0  0  0  0
 20 29  1  0  0  0  0
 21 22  1  0  0  0  0
 21 24  1  0  0  0  0
 22 29  1  0  0  0  0
  2 30  1  0  0  0  0
  3 31  1  0  0  0  0
  4 32  1  0  0  0  0
 10 33  1  0  0  0  0
 10 34  1  0  0  0  0
 11 35  1  0  0  0  0
 11 36  1  0  0  0  0
 12 37  1  0  0  0  0
 12 38  1  0  0  0  0
 13 39  1  0  0  0  0
 13 40  1  0  0  0  0
 14 41  1  0  0  0  0
 15 42  1  0  0  0  0
 18 43  1  0  0  0  0
 18 44  1  0  0  0  0
 18 45  1  0  0  0  0
 19 46  1  0  0  0  0
 19 47  1  0  0  0  0
 19 48  1  0  0  0  0
 20 49  1  0  0  0  0
 20 50  1  0  0  0  0
 20 51  1  0  0  0  0
 21 52  1  0  0  0  0
 21 53  1  0  0  0  0
 22 54  1  0  0  0  0
 22 55  1  0  0  0  0
 25 56  1  0  0  0  0
 26 57  1  0  0  0  0
 26 58  1  0  0  0  0
M  CHG  1  25   1
M  END
> <OMEGA_C>
yb+kQNZ2D8D+1Z7B+QrNQBS6qb9vLK7BI4XeQNjPZL6PtrPBx8aqQCCjMj73Q6HBrfyzQHw+kL8F
2qTB71/WQMZJiT8c8q/Bl6e7QH5loD+qCafBcZfOQILbOECEiJnBWRiHQNayVUCzg5fBs3LoQDbC
GUAaErPB/Ei2QMEylECphL/Bfg+mQJIXeED9rLXBexflQDjslkD1s6rBmFH3QHtfrED1xrTBdC7S
QK9QukDDE7zBMQi4QITpLECoEqTBnfjKQDZ2XUCB163Bn0wJQd4P00C9b7HBb6zLQNUv80Am6sjB
hjnwQH4VeEBWA2vBRie0QCjUTkD974bBmMjHQK+bk0B38oTBwlyYQIIdScBFy5nB5aGtQOZ7REDk
TJLBE1+LQHxaREDKr6HBmF1DQH4tckBau5LBTnP0QPL7K0DYeZfBdl3jQI04zkBve8XBbo/QQLkq
mUBsjXPBfszSQBb/FMCGDrHBuujxQD6mwL6SwrrB3D2XQKTprD5EQprB7q8EQZpsIECuErDBoEvo
QNjnIEA+07vBamjJQOXLfEClgcTBicuaQB8BoECaJ8TBWICPQM++kEBpVbHB1GeVQFfpPUCHXLjB
0pP/QIB4jUAFaaXB1iTQQCymrUDnfabBIskFQZJSlUDuFrnBegu+QLwy0UAQrbfBAuQPQcKd4kAh
nLjBk4/+QPwD6kC0B63BHX0WQY8+yECFRqzBfKTaQJ9XAEEPIdDB2IWqQCfX6UDQusrBNLfLQLip
BUGFgsLBoen0QLmPgkCK4FnBbynlQM/JNUCEIG3BzFcHQRCDgECBi3PB/PjJQFndHEDR/YPBiU+V
QAjZSUAUvoLBmsflQNZ3lkACf4nBdzaxQDlzrEA3mYfBVXtnQKyoRkDLEqfBKa0OQMDYekBSJJfB
PhZCQLAMfkBQ34rBaPqVQGJIC8BBgJ7BTKnBQFv/sr+Zsq3BwQvXQORcur6dMbPBuMKkQBgOVT6R
v6DB2kSpQGrVjr8/Z6TB/3zTQMblcj//Zq/BBtK5QCkbnD/Ha6bBkF3PQJZtPUB8Z5nBP2SIQAz5
XkDa3ZfBhsvpQGI9DUCGl7LBOuifQMWQp0AcQrXB+KqrQGB1cEDHhrbBlJbrQL1ikUBh5qrBxp7y
QOVFrEDo47TBthnIQLssxECqLbfBaAG5QA70K0At66PBp0XOQH7UVUCm763BF+MLQeGNy0BFQLPB
QO+wQOMW+UDq7MPBWHDsQB7YX0AON2nBJKS3QMyPfUDGHIjBZzC3QKigLEBxK4HB7HSGQE5pQsAu
kJnBWc+wQFYIZkCAM5PBBrmMQMS/SEAA6KHB73lDQAobcEAu15LBUqT0QI4xLkCv+5bBmhXJQE+A
0kABGMLBAyLBQFDkQUAGjGzBLeHDQL16GsAJl7DBQOTpQBXKFL+AObrBS6aRQOlY3z7myJnBAyUF
QXshD0B2N6/BupPrQNtiEkBmW7vBBQKHQEXyr0BxHbvBKbqTQFMbrUBwHq3BNM2OQLYiSUBObrXB
PrS4QJjPZUB3l77BOT4FQeiEhUCY56fBRAvcQGjWpEAFrqTBku/5QLwdl0BvrrvBaiPGQMXk30DV
xrHBBisOQaaq3kBnjbrBQD0IQTvw4EDUgKzBsJkaQaKGuUBphLHBbCezQOoIAUGIaszBBjiPQHWe
80B8zMHBqfy9QOeFCUEP9b7BdTbxQIqObkCGK1jBQpMBQQbVLUCtKW7BS+LxQD71jEDfyHLBJgSe
QBaFlEAYfoXB/cLWQNjojkAwTofBaz6XQGUxD0CihIHBEyHPQB1E/j9HN4TBAPhqQIXySkA2ZqfB
wrIMQFvTa0Be8ZbBs4pCQMhdgEC6HYvB6LOYQG99CsCRB57BEXXEQFI4sr9QPq3B5m/ZQIaztb51
zbLB2lKkQPDaZj6/4aDBGdSqQKxljb/OK6TBt0vUQF38dj+bSK/B2tK4QLLZnj84pKbBZgbPQGD7
OEDlVZnB9JOHQKX1WEAIpZfBuq/qQNucDkD0V7LBSgmeQB12pUAxGbbBcjmrQB2ebEBC0LbBqpLp
QCLpkkAiJavBxnLwQIuerEBQZbXBQXTFQHfawkDnLbjBNa+4QNdCLUBG/6PBl/LNQKt3VkA1BK7B
Yz8KQZpFzUDo87PBNX2tQKuK9EC8qcXBLQC1QF8rw0DQOYfB8UCxQO2hREBlbIbBaEzVQEE+fkAK
JILBsiyKQIpkQcBf3pjBNe6tQJEFSUD6LJLBmy+NQN49TUAW66HBzwZCQA+LcUA5F5PBC9/0QCxR
LEBsSZfBPsfGQDwrz0DMQsPB5AjZQGN6pkAsL4jBiPDHQLp3GsC66q/BXi3tQNAyE78hrLnBSCCQ
QAOC6T41HprB3E4FQQCHEUBHqK7BWcztQGtWE0DVFrvBg0WFQN4ZrEC5ILzBaTORQMcGrEADEq7B
iN2OQBwfREBokbXBtrC4QCj+X0Adyr7BDk0EQTWOiEAe5afBQ9rYQOOnpkCwLaXB9u/4QDyblkAu
7bvBAEfCQMx830CHH7PBSG0MQc5d30AIbLvBLBYGQTZz40COca3Bsy8ZQc13vEDg87HByRCwQCP4
+0CgPc7BzNCLQFhV7kB2n8PBrUi5QPbrB0Gs9MDBm8y6QKT430CbEozBg+GXQF4Es0AIFIrBKt6w
QChezEDgln3BWs+3QE8UAkCPEYTBH7WSQNljWUBD54LBfYPOQCMJh0CWeHPBfsTzQNo4W0DspILB
6jduQNNnWED2iafBF88OQKRge0BDupfBZ6M9QK9ueUCzK4vBneWhQHCLEsBfiZ/BTRTMQJtHrb+a
aq7BVl3eQJCjfr5curPBiDyqQCARCT48SqHBVpWyQJT2lL/aJ6XB/5zWQFQzhT/eyK/BF0C8QK6p
mz8UyqbBDuTOQMGfPkCgmZnBxCyIQHMCX0BxzZfBLZDoQGmfF0BC3bLBB4i1QDihkECNyb/BtUWl
QDeCckCnzrXB343jQPJelkCN8arBzRD2QIjdqkApELXBWjPRQPJMt0BhmbzBsua3QMXrKkCc8aPB
pzDKQAXAWkBk3q3BXzMIQZZc0kA82bHBGNLNQFp08EAia8nBniPFQMQSLz/3wnzBWqq4QJKphECA
m4jBzkaxQK2zP0CCvIDBv1+UQCwpTcCh3ZrBHz+xQHMAbEBlmZPBciKLQB13QEDrhaHB18VDQAVA
cECOoZLBtxv0QL+YLUD4TpfBC+LiQAzDyUA6IMbBeUzQQBop+z9zwoLBAYjRQFqEFsAybLHBNg7y
QLehyb6bu7rBv4uWQMD3kz5+TJrBOZIEQZkhH0DNqq/B6j/pQIdZHkBSn7vBK9XIQLbndEBcoMTB
6QOaQLTMm0AIg8TB1E+OQKcSjkC0orHBTRqVQONON0AnU7jBYdb9QCb1jUAde6XBTALOQHJErUBr
/KbBkoMFQZK3k0CbH7nBycC8QNXNzkCggLjBiPEOQVVj4UCZDrnB0p/7QI1p6UDxsa3BjkUVQaqO
yEBTfazBLQXdQGC5/EA4vdDBhdqrQF6+6UAgAcvB9nPQQOtCBEHnB8PBUGXeQIQ3N73oRoDBvsrB
QNjPRD9KS2vBs6emQOt8sT5S24HBQXeiQJL0nkBOwYbB0NHZQDMYkEDs2YfBS+O0QNw6V0C4+3DB
TdSQQLjWJUBl04HBqSNlQOnkOEDbj6bBtSoMQIJYZUCPWZbB5iREQIPLg0CjLovB

> <OMEGA_E>
NP1wPz7Bdj86enQ/anVxPw==

> <OMEGA_NBR>
     41443

$$$$
290129
  -OEChem-04172616093D

 62 66  0     1  0  0  0  0  0999 V2000
    4.8719   -2.3115  -20.4765 C   0  0  0  0  0  0  0  0  0  0  0  0
    6.5512   -1.2609  -21.9407 C   0  0  0  0  0  0  0  0  0  0  0  0
    7.2293   -0.1170  -22.4167 C   0  0  0  0  0  0  0  0  0  0  0  0
    5.2002    0.1287  -20.4325 C   0  0  0  0  0  0  0  0  0  0  0  0
    5.5419   -1.1409  -20.9520 C   0  0  0  0  0  0  0  0  0  0  0  0
    6.8796    1.1499  -21.9171 C   0  0  0  0  0  0  0  0  0  0  0  0
    5.8653    1.2580  -20.9437 C   0  0  0  0  0  0  0  0  0  0  0  0
    6.4232    2.8832  -19.1816 C   0  0  0  0  0  0  0  0  0  0  0  0
    4.2104    3.4451  -18.9157 C   0  0  0  0  0  0  0  0  0  0  0  0
    7.4324    2.5315  -22.1894 C   0  0  0  0  0  0  0  0  0  0  0  0
    5.8340    4.6191  -23.9585 C   0  0  0  0  0  0  0  0  0  0  0  0
    5.2781    3.7987  -22.7774 C   0  0  0  0  0  0  0  0  0  0  0  0
    6.9811    4.8734  -21.2172 C   0  0  0  0  0  0  0  0  0  0  0  0
    8.2943    3.2789  -16.3841 C   0  0  0  0  0  0  0  0  0  0  0  0
    7.1307    3.3421  -14.6862 C   0  0  0  0  0  0  0  0  0  0  0  0
    7.5784    5.6600  -22.4076 C   0  0  1  0  0  0  0  0  0  0  0  0
    6.4831    5.9380  -23.4712 C   0  0  1  0  0  0  0  0  0  0  0  0
    5.7076    2.6985  -20.4931 C   0  0  1  0  0  0  0  0  0  0  0  0
    6.3481    3.5160  -21.6685 C   0  0  2  0  0  0  0  0  0  0  0  0
    6.7739    2.8645  -16.1507 C   0  0  0  0  0  0  0  0  0  0  0  0
    8.1863    6.9828  -21.8821 C   0  0  0  0  0  0  0  0  0  0  0  0
    6.4890    1.3415  -16.2439 C   0  0  0  0  0  0  0  0  0  0  0  0
    6.1278    7.3445  -25.4236 C   0  0  0  0  0  0  0  0  0  0  0  0
    5.7307    3.7607  -16.8810 C   0  0  0  0  0  0  0  0  0  0  0  0
    4.3266   -3.2679  -20.0925 N   0  0  0  0  0  0  0  0  0  0  0  0
    5.4570    3.3118  -18.2701 N   0  0  0  0  0  0  0  0  0  0  0  0
    4.3116    3.0523  -20.1689 N   0  3  0  0  0  0  0  0  0  0  0  0
    3.0275    3.9005  -18.3405 N   0  0  0  0  0  0  0  0  0  0  0  0
    7.6087    2.6337  -19.0043 O   0  0  0  0  0  0  0  0  0  0  0  0
    8.4542    3.5773  -15.0471 O   0  0  0  0  0  0  0  0  0  0  0  0
    7.0734    6.6299  -24.5973 O   0  0  0  0  0  0  0  0  0  0  0  0
    6.8035   -2.2350  -22.3329 H   0  0  0  0  0  0  0  0  0  0  0  0
    8.0090   -0.2146  -23.1576 H   0  0  0  0  0  0  0  0  0  0  0  0
    4.4485    0.2290  -19.6636 H   0  0  0  0  0  0  0  0  0  0  0  0
    8.3796    2.6808  -21.6503 H   0  0  0  0  0  0  0  0  0  0  0  0
    7.5975    2.6751  -23.2674 H   0  0  0  0  0  0  0  0  0  0  0  0
    6.5914    4.0204  -24.4857 H   0  0  0  0  0  0  0  0  0  0  0  0
    5.0107    4.8582  -24.6477 H   0  0  0  0  0  0  0  0  0  0  0  0
    4.4444    4.3561  -22.3255 H   0  0  0  0  0  0  0  0  0  0  0  0
    4.9098    2.8363  -23.1622 H   0  0  0  0  0  0  0  0  0  0  0  0
    7.7810    4.6678  -20.4906 H   0  0  0  0  0  0  0  0  0  0  0  0
    6.2023    5.4873  -20.7413 H   0  0  0  0  0  0  0  0  0  0  0  0
    8.9307    2.4524  -16.7331 H   0  0  0  0  0  0  0  0  0  0  0  0
    8.4206    4.1453  -17.0500 H   0  0  0  0  0  0  0  0  0  0  0  0
    6.5898    4.2464  -14.3707 H   0  0  0  0  0  0  0  0  0  0  0  0
    7.0118    2.5587  -13.9232 H   0  0  0  0  0  0  0  0  0  0  0  0
    8.3765    5.0589  -22.8679 H   0  0  0  0  0  0  0  0  0  0  0  0
    5.7028    6.5642  -23.0139 H   0  0  0  0  0  0  0  0  0  0  0  0
    8.6140    7.5496  -22.7222 H   0  0  0  0  0  0  0  0  0  0  0  0
    7.3999    7.5811  -21.3988 H   0  0  0  0  0  0  0  0  0  0  0  0
    8.9772    6.7579  -21.1513 H   0  0  0  0  0  0  0  0  0  0  0  0
    5.4187    1.1569  -16.0695 H   0  0  0  0  0  0  0  0  0  0  0  0
    6.7655    0.9774  -17.2444 H   0  0  0  0  0  0  0  0  0  0  0  0
    7.0811    0.8107  -15.4839 H   0  0  0  0  0  0  0  0  0  0  0  0
    6.6612    7.8371  -26.2500 H   0  0  0  0  0  0  0  0  0  0  0  0
    5.3910    6.6375  -25.8327 H   0  0  0  0  0  0  0  0  0  0  0  0
    5.6110    8.1028  -24.8172 H   0  0  0  0  0  0  0  0  0  0  0  0
    4.7892    3.7382  -16.3127 H   0  0  0  0  0  0  0  0  0  0  0  0
    6.1145    4.7910  -16.9140 H   0  0  0  0  0  0  0  0  0  0  0  0
    3.5477    3.0009  -20.8123 H   0  0  0  0  0  0  0  0  0  0  0  0
    2.1903    3.9429  -18.8858 H   0  0  0  0  0  0  0  0  0  0  0  0
    3.0149    4.1852  -17.3820 H   0  0  0  0  0  0  0  0  0  0  0  0
  1  5  1  0  0  0  0
  1 25  3  0  0  0  0
  2  3  2  0  0  0  0
  2  5  1  0  0  0  0
  3  6  1  0  0  0  0
  4  5  2  0  0  0  0
  4  7  1  0  0  0  0
  6  7  2  0  0  0  0
  6 10  1  0  0  0  0
  7 18  1  0  0  0  0
  8 18  1  0  0  0  0
  8 26  1  0  0  0  0
  8 29  2  0  0  0  0
  9 26  1  0  0  0  0
  9 27  2  0  0  0  0
  9 28  1  0  0  0  0
 10 19  1  0  0  0  0
 11 12  1  0  0  0  0
 11 17  1  0  0  0  0
 12 19  1  0  0  0  0
 13 16  1  0  0  0  0
 13 19  1  0  0  0  0
 14 20  1  0  0  0  0
 14 30  1  0  0  0  0
 15 20  1  0  0  0  0
 15 30  1  0  0  0  0
 16 17  1  0  0  0  0
 16 21  1  0  0  0  0
 17 31  1  0  0  0  0
 18 19  1  0  0  0  0
 18 27  1  0  0  0  0
 20 22  1  0  0  0  0
 20 24  1  0  0  0  0
 23 31  1  0  0  0  0
 24 26  1  0  0  0  0
  2 32  1  0  0  0  0
  3 33  1  0  0  0  0
  4 34  1  0  0  0  0
 10 35  1  0  0  0  0
 10 36  1  0  0  0  0
 11 37  1  0  0  0  0
 11 38  1  0  0  0  0
 12 39  1  0  0  0  0
 12 40  1  0  0  0  0
 13 41  1  0  0  0  0
 13 42  1  0  0  0  0
 14 43  1  0  0  0  0
 14 44  1  0  0  0  0
 15 45  1  0  0  0  0
 15 46  1  0  0  0  0
 16 47  1  0  0  0  0
 17 48  1  0  0  0  0
 21 49  1  0  0  0  0
 21 50  1  0  0  0  0
 21 51  1  0  0  0  0
 22 52  1  0  0  0  0
 22 53  1  0  0  0  0
 22 54  1  0  0  0  0
 23 55  1  0  0  0  0
 23 56  1  0  0  0  0
 23 57  1  0  0  0  0
 24 58  1  0  0  0  0
 24 59  1  0  0  0  0
 27 60  1  0  0  0  0
 28 61  1  0  0  0  0
 28 62  1  0  0  0  0
M  CHG  1  27   1
M  END
> <OMEGA_C>
rOabQH3vE8DKz6PBQaPRQCtkob96hq/BI1bnQCKz7710VbPB6memQDbTAz7KdaPB31axQJoKkr/L
nafBDSbcQMgvkz9RVq/BxrC7QL0HoT++jKfBe4rNQPCGOEDUc5nBfLuGQPl8XEBtU5fBgdbtQCUE
IkDUg7HBHbC6QAjQk0ACq7/BAeaoQDEec0AkOLbBKmXfQK3ym0DivKnBcrUEQefZUUCMEoPB6i7k
QFjkVUDU+mrBS4LyQGAetUDHQrPBK3XPQFwEvkDyxLvB8KS2QPW0LEDf8aPBwSPLQJMFYUAQWa3B
IsTYQPJTN0C3NIHBNPsCQfZy30CKDq/Bv6XPQG62qz+D84HBVBfEQMIF60CQY8vBnmG3QJavcEBY
DIfBS3OKQHslUcCFvaDBsJ+uQJD0U0AtKZLBe/iJQGlZQ0DyWaHBKMNBQJmheUBguZLBtXrzQFSP
KEC5CJjBPEQHQdnyZEDnwHDBQVniQO0n1EBLx8TBp7bZQKQJD8DIqbLBACUAQRrHW76wQrnB71mO
QBuIaj79Tp3BuxIGQc2SK0DAM63BFR/zQOY0K0CbI7rBqOzSQHSngECq4sPBvFegQHV2m0CPLsXB
JziOQGlli0CumrLBMB2dQFCFNUAvTLnBlv34QGdelUDK7KPB8HjGQLqXr0Ab7qXBBuQOQZLzHEBk
3YXBq7oGQWemhEBRZojBjd/SQIjih0B07mXB4WDgQBHCI0BlxV7BBAYGQZTioUBh8bbBq322QDwO
0kBeHLjB5dIJQX+W8UAbx7XB5cvsQEKY8kDPMKvBdKIPQcZA2EDwNanBCWatQOQTlD9cjoDB9X7Y
QLM2ej+A9InBfJjiQBSHTz8fvnfBnijVQFbJ+kDr/9HBUIOsQJ5m1EBgqc7BEI2zQCOlAUGoicbB
uUCZQAw/b0BTgILBJKrDQDZQmUDsT4fBJA5jQBoOQECEf6bBfS4MQDxYfEANFpfBePRAQILthUBV
DovBXqeeQJivFMA/C6PBNm/TQH1qor81Aq/B3E3oQC5R+L3FBrPBAVOnQL5L+z1eKaPBkCezQGkm
k7/wF6fBR0TcQEHrkj94Pa/Bqqu7QBqOoD+Ce6fBdUTNQLsCOEDzgpnBGOiGQJLWXkBuZZfBOjft
QEQpIkA7mrHB7rG4QMNHkkBY47/B0pCnQLCycEC0ULbB6eTdQLMgnEDxB6rBMN7qQPU/ZECJB23B
t6f5QEm8DUDbXoLBN0fwQD8ttUCjr7PBadrMQAkHvUDrLLzB9DO2QD11LEBQ+KPBRS3KQBiJYECi
eK3BrhDlQF4Ya0CbDIPBm40BQSgV4EAprK/BJ+gAQbe4mECEHojBqjvAQHG96ECf+cvBGKO1QAHF
bEBB1IbB6+6NQBEIUsDFxJ/BC4WvQGGgXEAMe5LBDKWJQFX+QkCYUKHBdLhBQCgNeUDznpLBFSfz
QNttJkAkTJjBw/H9QHYmFEA1227BQhjfQGD10kDvTcXBJCLcQC61D8BO/bHBnaIAQQz1Xr5g87jB
hkyPQNNpZD7AAJ3Bs8oFQckZLUAqXq3BqyfyQHCTKkBuQLrBkSTRQBaGfkCXEcTBdBqeQOkqmUAN
ZMXBHcCMQJ0HikATt7LBYB2cQO1vMkC/QrnBVc/3QP8xlkB3Q6TBedPEQA+Rr0CIN6bBrQsAQdW9
ikC4RWbB033MQHGMY0B5I2TB5evjQJegtD+l8ITBHSUMQbe4B0CQo4bBRQYFQdMyokB7WbfBMKez
QIza0EBzi7jBkB4IQaAU8kBEfLbBsLrpQBf+8kDv0avBr10OQQys2UAv26nBXnf8QK6omUBc0JDB
x7H5QEf/t0DqoITBt9ARQYtnkUAmgIbBI9jQQH5o+EATrNLBzhOpQO1o0UCCH8/BGkavQIZ9AEHj
NMfBhv2jQFdiO0AlX4LBI0eoQEUTlkAc9ITB6NNhQGTYPUDHWabBxgMLQCVZd0BzxJbBEcNBQP/K
hkA7C4vBMzqgQKxcFcD1i6LBPyrTQHjyo78KA6/BNjjnQJrhB76NRbPBxk6oQKRD5j0m5aLBKOiz
QIqOlL9X2KbBsmnbQCKGkT+KdK/B0uu7QBspnz/ta6fBI6vNQOp5OUD6j5nBuh+HQNwfX0AxbJfB
eqrrQA96IUBSCbLBd4+0QNVLkEAiP8DBVfakQFqHbUABcLbBSUjcQJThm0CquqrBrk73QDCWrUBk
o47BhKznQJ/zuUD0133BtAvtQLOttEB2nrTB/H3IQBaSu0A03LzBkDa2QL3jK0ARBaTBNbXIQCdZ
X0D1y63BSMflQHujjkCFfYXB7LT/QE8U4EC75bDBpSQDQVjDWUBDXYHBp1G5QEZD5kCVtMzBc/W3
QFK5eECIZIfBbi2QQPqqUsDnDp/BORawQMI8YEA7t5LBIouJQGoRQUC5PqHBPlNCQAkbeUDvlpLB
sE/zQJKaJ0AO9JfBTXH6QGYzz0AYgIfB1UjZQJ870UBMNcbBxrTbQJyKEMC4/7HBbGL/QE+/ar5o
ZrnBbP+QQDjcWj5kkZzBtywFQQhxLUDT/a3B2sXvQPM1KUABubrB9MnMQHK3ekBXh8TBWDqZQCBr
lkCKk8XB91aKQCtTiECftrLBCpmZQCKYLkA5LLnBOA33QFSglkD/KqXBgYDDQNs7r0DVxabBkxkL
QV6Do0CwBZLBs1bgQLcws0BnKJXB+wjIQBmMxkCOY3nBDCL8QAlTuEB5i2/B2FEDQRfjoUDvarjB
fnWvQNU9z0BGG7nB8dcFQXDn8UCf3rfBe4rmQGfP8kD656zBthMNQfZe2kCrRKvBCiz3QKeFMkDm
OHbBNSUIQWJrMECNCIjBTzgRQZyDekCRDXzB2+DIQMTC9UAsldPBAxSiQPZ5zkD7ls/B/6ioQCSO
/kAx48fBrsKzQAG0P0DjVoLB1m+gQDXdlEAUFYXBMxdhQPOcOUDRJqbB1yMLQFF8dUConZbBrvVC
QFKyh0A9F4vB

> <OMEGA_E>
QMKJP35jiT/qC4k/

> <OMEGA_NBR>
     44775

$$$$
298703
  -OEChem-04172616093D

 57 60  0     1  0  0  0  0  0999 V2000
    5.1289   -2.2507  -19.8896 C   0  0  0  0  0  0  0  0  0  0  0  0
    6.3923   -1.3265  -21.8016 C   0  0  0  0  0  0  0  0  0  0  0  0
    6.9530   -0.2201  -22.4769 C   0  0  0  0  0  0  0  0  0  0  0  0
    5.3052    0.1632  -20.1891 C   0  0  0  0  0  0  0  0  0  0  0  0
    5.5983   -1.1342  -20.6422 C   0  0  0  0  0  0  0  0  0  0  0  0
    6.7049    1.0714  -21.9906 C   0  0  0  0  0  0  0  0  0  0  0  0
    5.8518    1.2447  -20.8895 C   0  0  0  0  0  0  0  0  0  0  0  0
    6.4484    2.8588  -19.1777 C   0  0  0  0  0  0  0  0  0  0  0  0
    4.2220    3.3069  -18.9325 C   0  0  0  0  0  0  0  0  0  0  0  0
    7.3067    2.4005  -22.3288 C   0  0  0  0  0  0  0  0  0  0  0  0
    5.2115    3.8203  -22.7039 C   0  0  0  0  0  0  0  0  0  0  0  0
    7.1120    4.7419  -21.3304 C   0  0  0  0  0  0  0  0  0  0  0  0
    5.7220    4.5222  -23.9654 C   0  0  2  0  0  0  0  0  0  0  0  0
    7.7158    5.3867  -22.5885 C   0  0  1  0  0  0  0  0  0  0  0  0
    6.6067    5.7384  -23.6043 C   0  0  0  0  0  0  0  0  0  0  0  0
    5.7505    2.6885  -20.5004 C   0  0  1  0  0  0  0  0  0  0  0  0
    6.3521    3.4493  -21.7108 C   0  0  0  0  0  0  0  0  0  0  0  0
    4.4979    4.9742  -24.7770 C   0  0  0  0  0  0  0  0  0  0  0  0
    8.4917    6.6489  -22.1775 C   0  0  0  0  0  0  0  0  0  0  0  0
    5.9695    4.7648  -16.7644 C   0  0  0  0  0  0  0  0  0  0  0  0
    5.6311    3.2744  -16.8761 C   0  0  0  0  0  0  0  0  0  0  0  0
    6.3743    5.0973  -15.3388 C   0  0  0  0  0  0  0  0  0  0  0  0
    4.7495   -3.1513  -19.2546 N   0  0  0  0  0  0  0  0  0  0  0  0
    5.4120    2.9843  -18.2715 N   0  0  0  0  0  0  0  0  0  0  0  0
    4.3574    3.0556  -20.2062 N   0  3  0  0  0  0  0  0  0  0  0  0
    3.0657    3.7988  -18.3464 N   0  0  0  0  0  0  0  0  0  0  0  0
    7.6433    2.7403  -18.9243 O   0  0  0  0  0  0  0  0  0  0  0  0
    7.2249    6.2123  -24.7947 O   0  0  0  0  0  0  0  0  0  0  0  0
    6.6312    6.4266  -15.2672 F   0  0  0  0  0  0  0  0  0  0  0  0
    5.3621    4.7765  -14.4885 F   0  0  0  0  0  0  0  0  0  0  0  0
    7.4945    4.3984  -15.0093 F   0  0  0  0  0  0  0  0  0  0  0  0
    6.5693   -2.3259  -22.1706 H   0  0  0  0  0  0  0  0  0  0  0  0
    7.5640   -0.3667  -23.3552 H   0  0  0  0  0  0  0  0  0  0  0  0
    4.6762    0.3213  -19.3255 H   0  0  0  0  0  0  0  0  0  0  0  0
    8.3125    2.4904  -21.8926 H   0  0  0  0  0  0  0  0  0  0  0  0
    7.3672    2.5299  -23.4195 H   0  0  0  0  0  0  0  0  0  0  0  0
    4.5046    4.4897  -22.1919 H   0  0  0  0  0  0  0  0  0  0  0  0
    4.6922    2.8975  -23.0020 H   0  0  0  0  0  0  0  0  0  0  0  0
    7.9188    4.4957  -20.6243 H   0  0  0  0  0  0  0  0  0  0  0  0
    6.4143    5.4489  -20.8578 H   0  0  0  0  0  0  0  0  0  0  0  0
    6.3119    3.8122  -24.5636 H   0  0  0  0  0  0  0  0  0  0  0  0
    8.4127    4.6751  -23.0553 H   0  0  0  0  0  0  0  0  0  0  0  0
    5.9671    6.5206  -23.1693 H   0  0  0  0  0  0  0  0  0  0  0  0
    4.8323    5.4838  -25.6927 H   0  0  0  0  0  0  0  0  0  0  0  0
    3.8922    4.0965  -25.0463 H   0  0  0  0  0  0  0  0  0  0  0  0
    3.8927    5.6660  -24.1728 H   0  0  0  0  0  0  0  0  0  0  0  0
    8.9284    7.1187  -23.0712 H   0  0  0  0  0  0  0  0  0  0  0  0
    7.8068    7.3572  -21.6886 H   0  0  0  0  0  0  0  0  0  0  0  0
    9.2952    6.3738  -21.4784 H   0  0  0  0  0  0  0  0  0  0  0  0
    6.8009    5.0020  -17.4444 H   0  0  0  0  0  0  0  0  0  0  0  0
    5.0876    5.3609  -17.0415 H   0  0  0  0  0  0  0  0  0  0  0  0
    6.4663    2.6696  -16.4932 H   0  0  0  0  0  0  0  0  0  0  0  0
    4.7218    3.0512  -16.2986 H   0  0  0  0  0  0  0  0  0  0  0  0
    3.6222    3.1053  -20.8821 H   0  0  0  0  0  0  0  0  0  0  0  0
    2.2603    3.9852  -18.9090 H   0  0  0  0  0  0  0  0  0  0  0  0
    3.0372    3.9670  -17.3610 H   0  0  0  0  0  0  0  0  0  0  0  0
    7.7732    6.9609  -24.5909 H   0  0  0  0  0  0  0  0  0  0  0  0
  1  5  1  0  0  0  0
  1 23  3  0  0  0  0
  2  3  2  0  0  0  0
  2  5  1  0  0  0  0
  3  6  1  0  0  0  0
  4  5  2  0  0  0  0
  4  7  1  0  0  0  0
  6  7  2  0  0  0  0
  6 10  1  0  0  0  0
  7 16  1  0  0  0  0
  8 16  1  0  0  0  0
  8 24  1  0  0  0  0
  8 27  2  0  0  0  0
  9 24  1  0  0  0  0
  9 25  2  0  0  0  0
  9 26  1  0  0  0  0
 10 17  1  0  0  0  0
 11 13  1  0  0  0  0
 11 17  1  0  0  0  0
 12 14  1  0  0  0  0
 12 17  1  0  0  0  0
 13 15  1  0  0  0  0
 13 18  1  0  0  0  0
 14 15  1  0  0  0  0
 14 19  1  0  0  0  0
 15 28  1  0  0  0  0
 16 17  1  0  0  0  0
 16 25  1  0  0  0  0
 20 21  1  0  0  0  0
 20 22  1  0  0  0  0
 21 24  1  0  0  0  0
 22 29  1  0  0  0  0
 22 30  1  0  0  0  0
 22 31  1  0  0  0  0
  2 32  1  0  0  0  0
  3 33  1  0  0  0  0
  4 34  1  0  0  0  0
 10 35  1  0  0  0  0
 10 36  1  0  0  0  0
 11 37  1  0  0  0  0
 11 38  1  0  0  0  0
 12 39  1  0  0  0  0
 12 40  1  0  0  0  0
 13 41  1  0  0  0  0
 14 42  1  0  0  0  0
 15 43  1  0  0  0  0
 18 44  1  0  0  0  0
 18 45  1  0  0  0  0
 18 46  1  0  0  0  0
 19 47  1  0  0  0  0
 19 48  1  0  0  0  0
 19 49  1  0  0  0  0
 20 50  1  0  0  0  0
 20 51  1  0  0  0  0
 21 52  1  0  0  0  0
 21 53  1  0  0  0  0
 25 54  1  0  0  0  0
 26 55  1  0  0  0  0
 26 56  1  0  0  0  0
 28 57  1  0  0  0  0
M  CHG  1  25   1
M  END
> <OMEGA_C>
SCCkQEILEMD4HZ/BeY3MQLfKqb+saa7Bm37eQHhmYb6d0LPB1MOpQNgmJz5Ng6HBgiWzQHEtkb8p
I6XBV47WQLskiT/F7K/BNkK7QOhRnz+nHafBAVnOQBX3NkDfa5nBnRqHQKKkU0C4dZfBMNDpQC6i
GUByobLBSsSmQA5/dECrobXBy5XjQMm9l0CPpKrBYRq3QHm1kEAVub/Br+f2QJ9frEBLtbTB62nT
QEOht0CR1bzBvQO4QIIQLEDeAKTBbUTLQL7BXECrr63BDe+PQPAsn0BAN8bBFN4HQXrD1ECXa7HB
LAa/QCp5mEBmHYbB0DG0QCqPUUA9AofBd/rLQOEco0DEa3XBtvuXQAyvScCDCZrBVi+tQP/9PkD7
K5LBOXCLQFaOQ0AzpqHB4zREQL4ec0BcxZLBmJX0QMphL0AMZZfBEDLnQDXLxkB3W8bBKDPUQPqm
zUCNRnTB8ZWrQEbZmEDD0GfB/9LvQJm/jEDkJXDBiDfSQELcFMBvXbHBsgzyQCPCu75x17rBiqOV
QMmGpD6dmprB0/8EQd1iH0AJJK/Bt7/rQDrpIUAwW7vB8CWQQNSrj0D6iLHBUSaWQCxwOUADBLjB
CGf9QOzcj0Ce/qTBK0LNQMJdrkDA3KbBefvJQFj7c0BSgsTBmZoGQRealUAxcbjBwvK+QIOo0ECj
WrnBbaKaQCB7r0Clis3BTxl5QB8Wg0DeXsjBTSF5QBZQtUDUYcHBsNoOQVfM40C/kbjBDtH5QIpu
60BJgq3B9LgUQR32y0C106vBEqHZQLsQoEAljovBOc2iQFmMq0AXVYjBPuzOQB7bKkD/8YPBWRmX
QBJGQ0CXY4LBINJnQEe9RkCWDqfB76gQQDEOf0CTRZfBbGFCQCDjfUBl44rBtL34QHq/3kArusTB
N2yjQE1kEcCJqJ7BC2XQQChVrb/q96zBVc7hQKj/hb5VnrLBi/CnQCC4Lj65aqHBY5yzQPxRkr8g
ZaTB6OfWQDTbhT8nk6/BRua5QKi7nz/5JKfBk6bOQOKOOEDbqpnB5jmHQB7qVECOfpfBmL7nQCZL
GECOObPBXbCmQMBee0CIh7XBZGXmQAOklkDMxarBiKq2QHYMlkD4Y7/Birj4QO42rEA82LTBienT
QLh/u0DwErzBiae3QOqTLUB+LaTB/lfLQKqeXUA6463BClKPQIxHp0B9ZcXBG38KQRQp0kDUgbHB
GgCzQDIZiECXV4HBtwOyQJpmOEA90IbBIjLaQM4Do0BzpoTBbr6WQAdYTcA1GZrBrLKtQDAmQUD2
XJLBbqKLQNCmSEC7waHBgRJDQKTrbkCzp5LBKrn0QE7WLEDLxpfBClnlQMSdzkDZb8XBUhPdQFZ9
xED/nnvBRJj+QIhJi0CK7oPBIwHWQOqKskDgx47BzRvZQHYdF8CHNK/Btlz3QJz/276fPLnBfNaR
QNePsD4s7JrB/p8EQcMWIECftbDBcKblQExRHUCc/LvB9AGRQHm8kkBRBLHBCw2VQFR4QkBUQLjB
pnQAQa2XjEDzjqXB+/7RQC6arUBdeabB1YXIQJ8cgEDZoMTBHycGQZ7klEDxQbnBIqrAQMP90kAI
oLfB+s+ZQHv5uECFiczBMaJ1QKdgjEAK1cfBzVp6QPTOvEBUHcDBqxQRQZet4UDor7jBRdcAQXJj
6UBC/azBgbAXQdWVxkDEc6zBHsiVQKqxmUBwhIPBn92zQAxNg0D/QHHBeu7PQDgzFkCOBIXB/rOW
QEKQE0BUtoPBbO1oQBKDUECuL6fBUOAOQOyFeUA1F5fB0NdAQC0Yd0C5uYrBmm33QBq/5UDgdsPB

> <OMEGA_E>
luB4PzwkeT8=

> <OMEGA_NBR>
     46972

$$$$
298704
  -OEChem-04172616093D

 60 63  0     1  0  0  0  0  0999 V2000
    5.2532   -2.2372  -19.8092 C   0  0  0  0  0  0  0  0  0  0  0  0
    6.4542   -1.3134  -21.7615 C   0  0  0  0  0  0  0  0  0  0  0  0
    6.9815   -0.2045  -22.4594 C   0  0  0  0  0  0  0  0  0  0  0  0
    5.3447    0.1737  -20.1633 C   0  0  0  0  0  0  0  0  0  0  0  0
    5.6713   -1.1227  -20.5943 C   0  0  0  0  0  0  0  0  0  0  0  0
    6.7096    1.0879  -21.9891 C   0  0  0  0  0  0  0  0  0  0  0  0
    5.8526    1.2563  -20.8902 C   0  0  0  0  0  0  0  0  0  0  0  0
    6.4530    2.8583  -19.1946 C   0  0  0  0  0  0  0  0  0  0  0  0
    4.2219    3.3404  -18.9335 C   0  0  0  0  0  0  0  0  0  0  0  0
    7.2922    2.4237  -22.3412 C   0  0  0  0  0  0  0  0  0  0  0  0
    5.1949    3.8446  -22.6985 C   0  0  0  0  0  0  0  0  0  0  0  0
    7.0949    4.7537  -21.3164 C   0  0  0  0  0  0  0  0  0  0  0  0
    5.7018    4.5642  -23.9501 C   0  0  2  0  0  0  0  0  0  0  0  0
    7.6886    5.4284  -22.5620 C   0  0  1  0  0  0  0  0  0  0  0  0
    6.5754    5.7827  -23.5730 C   0  0  0  0  0  0  0  0  0  0  0  0
    5.7396    2.6967  -20.5052 C   0  0  1  0  0  0  0  0  0  0  0  0
    6.3371    3.4653  -21.7122 C   0  0  0  0  0  0  0  0  0  0  0  0
    4.4750    5.0149  -24.7586 C   0  0  0  0  0  0  0  0  0  0  0  0
    8.4408    6.6974  -22.1252 C   0  0  0  0  0  0  0  0  0  0  0  0
    7.2019    5.3908  -17.4057 C   0  0  0  0  0  0  0  0  0  0  0  0
    6.1599    5.0936  -15.1380 C   0  0  0  0  0  0  0  0  0  0  0  0
    5.6762    3.3972  -16.8782 C   0  0  0  0  0  0  0  0  0  0  0  0
    5.9462    4.8986  -16.6453 C   0  0  0  0  0  0  0  0  0  0  0  0
    4.9171   -3.1357  -19.1473 N   0  0  0  0  0  0  0  0  0  0  0  0
    5.4430    3.1126  -18.2849 N   0  0  0  0  0  0  0  0  0  0  0  0
    4.3488    3.0650  -20.2028 N   0  3  0  0  0  0  0  0  0  0  0  0
    3.0418    3.7711  -18.3455 N   0  0  0  0  0  0  0  0  0  0  0  0
    7.6339    2.6263  -18.9554 O   0  0  0  0  0  0  0  0  0  0  0  0
    7.1896    6.2734  -24.7582 O   0  0  0  0  0  0  0  0  0  0  0  0
    4.8729    5.6394  -17.0406 F   0  0  0  0  0  0  0  0  0  0  0  0
    6.6485   -2.3138  -22.1192 H   0  0  0  0  0  0  0  0  0  0  0  0
    7.5856   -0.3500  -23.3428 H   0  0  0  0  0  0  0  0  0  0  0  0
    4.7198    0.3303  -19.2965 H   0  0  0  0  0  0  0  0  0  0  0  0
    8.3037    2.5255  -21.9211 H   0  0  0  0  0  0  0  0  0  0  0  0
    7.3343    2.5497  -23.4332 H   0  0  0  0  0  0  0  0  0  0  0  0
    4.4862    4.5048  -22.1771 H   0  0  0  0  0  0  0  0  0  0  0  0
    4.6787    2.9240  -23.0081 H   0  0  0  0  0  0  0  0  0  0  0  0
    7.9076    4.4972  -20.6208 H   0  0  0  0  0  0  0  0  0  0  0  0
    6.3975    5.4483  -20.8254 H   0  0  0  0  0  0  0  0  0  0  0  0
    6.2987    3.8660  -24.5553 H   0  0  0  0  0  0  0  0  0  0  0  0
    8.3985    4.7377  -23.0404 H   0  0  0  0  0  0  0  0  0  0  0  0
    5.9296    6.5547  -23.1292 H   0  0  0  0  0  0  0  0  0  0  0  0
    4.8064    5.5375  -25.6680 H   0  0  0  0  0  0  0  0  0  0  0  0
    3.8772    4.1350  -25.0386 H   0  0  0  0  0  0  0  0  0  0  0  0
    3.8629    5.6947  -24.1476 H   0  0  0  0  0  0  0  0  0  0  0  0
    8.8717    7.1913  -23.0086 H   0  0  0  0  0  0  0  0  0  0  0  0
    7.7418    7.3842  -21.6257 H   0  0  0  0  0  0  0  0  0  0  0  0
    9.2470    6.4240  -21.4285 H   0  0  0  0  0  0  0  0  0  0  0  0
    7.0538    5.2532  -18.4870 H   0  0  0  0  0  0  0  0  0  0  0  0
    7.3660    6.4571  -17.1910 H   0  0  0  0  0  0  0  0  0  0  0  0
    8.0785    4.8119  -17.0792 H   0  0  0  0  0  0  0  0  0  0  0  0
    5.2701    4.7453  -14.5929 H   0  0  0  0  0  0  0  0  0  0  0  0
    7.0377    4.5151  -14.8144 H   0  0  0  0  0  0  0  0  0  0  0  0
    6.3252    6.1602  -14.9262 H   0  0  0  0  0  0  0  0  0  0  0  0
    6.5473    2.8194  -16.5357 H   0  0  0  0  0  0  0  0  0  0  0  0
    4.7885    3.0993  -16.3008 H   0  0  0  0  0  0  0  0  0  0  0  0
    3.6073    3.0995  -20.8729 H   0  0  0  0  0  0  0  0  0  0  0  0
    2.2193    3.8876  -18.9023 H   0  0  0  0  0  0  0  0  0  0  0  0
    3.0134    3.9650  -17.3649 H   0  0  0  0  0  0  0  0  0  0  0  0
    7.7320    7.0241  -24.5468 H   0  0  0  0  0  0  0  0  0  0  0  0
  1  5  1  0  0  0  0
  1 24  3  0  0  0  0
  2  3  2  0  0  0  0
  2  5  1  0  0  0  0
  3  6  1  0  0  0  0
  4  5  2  0  0  0  0
  4  7  1  0  0  0  0
  6  7  2  0  0  0  0
  6 10  1  0  0  0  0
  7 16  1  0  0  0  0
  8 16  1  0  0  0  0
  8 25  1  0  0  0  0
  8 28  2  0  0  0  0
  9 25  1  0  0  0  0
  9 26  2  0  0  0  0
  9 27  1  0  0  0  0
 10 17  1  0  0  0  0
 11 13  1  0  0  0  0
 11 17  1  0  0  0  0
 12 14  1  0  0  0  0
 12 17  1  0  0  0  0
 13 15  1  0  0  0  0
 13 18  1  0  0  0  0
 14 15  1  0  0  0  0
 14 19  1  0  0  0  0
 15 29  1  0  0  0  0
 16 17  1  0  0  0  0
 16 26  1  0  0  0  0
 20 23  1  0  0  0  0
 21 23  1  0  0  0  0
 22 23  1  0  0  0  0
 22 25  1  0  0  0  0
 23 30  1  0  0  0  0
  2 31  1  0  0  0  0
  3 32  1  0  0  0  0
  4 33  1  0  0  0  0
 10 34  1  0  0  0  0
 10 35  1  0  0  0  0
 11 36  1  0  0  0  0
 11 37  1  0  0  0  0
 12 38  1  0  0  0  0
 12 39  1  0  0  0  0
 13 40  1  0  0  0  0
 14 41  1  0  0  0  0
 15 42  1  0  0  0  0
 18 43  1  0  0  0  0
 18 44  1  0  0  0  0
 18 45  1  0  0  0  0
 19 46  1  0  0  0  0
 19 47  1  0  0  0  0
 19 48  1  0  0  0  0
 20 49  1  0  0  0  0
 20 50  1  0  0  0  0
 20 51  1  0  0  0  0
 21 52  1  0  0  0  0
 21 53  1  0  0  0  0
 21 54  1  0  0  0  0
 22 55  1  0  0  0  0
 22 56  1  0  0  0  0
 26 57  1  0  0  0  0
 27 58  1  0  0  0  0
 27 59  1  0  0  0  0
 29 60  1  0  0  0  0
M  CHG  1  26   1
M  END
> <OMEGA_C>
eBqoQOUtD8AleZ7BrIjOQGYeqL+UF67BeWjfQAhdUb7prLPBdQerQOTXMT6CTqHBZXu1QJS0j780
waTBK7XWQDw/iz+76a/Biki7QDTOoD8RH6fBCH/OQJbtNkB+jpnBiBmHQMfJVUC2d5fBoFnpQEUd
G0DdurLB8jymQDMOdkB/lrXBhAnjQCcemEACiKrBK3W2QFMOkkC3mb/Btwj2QMq1rUD/frTB/GnS
QAAMuUB4lbzBBKu3QIWWLECfCqTBpsnKQPnGXUCosq3BeTOPQOl5oECGEcbBtQ0HQcVQ1kBhALHB
MnbmQE2BrEDrPovBkh3FQG3+okAiNXLBDKO1QJtrWUCgBofBTUe+QErBnECUKYXB4lidQIKvSMDB
LZnB7iyuQF01R0BoR5LBqCmLQM8oREBun6HBiKxCQOdYcUCtw5LBHkn0QJcVKECRpJfB9xDmQHy/
yEC3EMbB5+6bQAd2tEA6U4jBisDUQPUUFMAd9LDB1rzyQDk3s74LvrrB9AiXQIQeqT4nX5rB7dsE
Qd6hIUB7Xq/BWLLqQJQuI0Apd7vByY6PQEwnkEC+arHB0reVQBkiO0CdELjBwwr9QGDpj0B196TB
CrjMQCFYrkBWmqbBjo7JQCxtd0AtccTBZWAGQZObl0DHUrjBWL+9QDvA0UCoCLnB9c2ZQOgysUAX
WM3BoyR4QOBRhEAaT8jBfzp3QLs6tkBWLsHBW/INQcUe5kCoEbjBs7z3QMVL7EBqAa3BufMTQVSR
zUCNbavBErnhQPwZqEBZ5ZPB6bXrQGugzkAuh4nBcEEBQW77mUA7oojB+qSoQBvZl0CbfGnBETXh
QKF7kECfB23BG2jKQJ4gxUCF0W7BUoPRQFtxNEApSYTBxjuZQBRbRkAPaILBmN5mQMFdRkC6+6bB
8AgOQCLOeEDYN5fB7dtAQGvCfUBm64rBWGz3QKjF4EDiX8TBxU2qQLJ2EMCdYp7B7UHRQKISqL8t
0a3BH7HhQICSSL5RXbPBABOrQIAaHz4eXaHBExi3QFJQkb9KqKTBLHDXQF21iz+2v6/BKN+6QGqL
nz++KKfB6dzNQKaUNkBdpJnBMiKHQGrGWkDSipfB/IfpQCjvG0DFfrLB/xOmQMw7dUC8mbXBp9jh
QCRWmEC9QqrBmeG2QGbkkUBlhr/BFEX1QPpFrkBfHrTBpRvSQDc6uUAaW7zB0762QBjWK0AtBqTB
8yzKQMa7XUB+k63BEg+QQLLNn0CqNcbB2U8GQT4d10BhfbDB57TWQEsNlUAMuG/BqaTjQHYLsEA+
korB/JK0QL4oXECu+obB/6zcQEmLh0Dvk4PBYBCgQOOCSsCDHpnBY1SvQIBUVkBQmpLBDF6KQMFb
Q0D9iqHBKSBCQKA+c0DkupLB6jLzQCxFIkDyAZjBfUrmQPlMyUA6usXBFrr/QNCTW0AdCITBoanY
QMTcE8CGkbDBpt/1QA+Uqb5TS7rBr0SWQCPwmT5BkJrBBdMEQbV2I0DgBK/Bf1DrQDELJECpObvB
od+OQBh5j0CzhrHBFA6WQEYAOkAXKrjB74/7QO9IkEBPmaTByQ7LQKpGrkCcZqbBnK/KQFqWd0Af
QsTBY0MGQYB9mECF27fBoty8QOWe0UDi4rjByhmbQI2tsEAebM3B1AN7QHRng0BEj8jBS4B3QABK
tUD5bsHB+loNQRkr50AUfLfB1rn1QC/I7EAjk6zB8RATQYOYzkDgz6rB6MLRQCXscEAqwWXBCmjz
QOEzpkDJNmrBVK26QDQuqkA2Zm7BNe/nQHGDpkBs+ZLBiZnHQAwlxUAu5InBICoAQbkqwUB4zIfB
Kxm3QLHyGkBWuYPBXS2YQCLbe0CBnIPB/zZkQOeyQUB0wabBG9MLQF6kc0DD9pbBdoZBQNQ+gkC+
BovBHDL3QDKH4UBM78PBqoCkQMuDF8BkcqDB6+/UQFr1rL/ls63BOWjnQDAfXL4QkrLBLzSqQJBC
pT322KHBAoi2QCZdmr/gXKXBpd3aQIiRiD+RL6/BDzy8QNpamT/u+KbBsTjOQHQaPUA46ZnBlqWH
QCcDYEBxe5fBSpjpQL2xHECSbbLBo1+hQId9Y0Bvy7bB7+rYQGJumkDS8qvByTGvQHKMiUB9IcHB
hfvnQEytsUAtPLbBwK3CQE7utUDVYb7Byri1QIP+KUCzGqTB/UTGQLFsWkD4Va7Bqs6HQF6ujkBZ
hcjBscP5QOA73kDcKLPBO6nwQFoKt0AKbo/B6mUFQcx0dUDkFYPBlf65QFlFf0Bb54fBo8rkQCnz
mEA+/YXBmtGVQL89VMB7dZzB30qxQHksZkA1KpPB4TOJQDsXPkDdHaHB6I9DQHW8eEAzfpLB3p3z
QL4zKkBZL5jBIRrSQPyCyUAx/MfBsFfeQMiaskCRsnrBuAveQCqxFcCaWrDBhO/+QJzcqL4A1bjB
goqTQD42Tz7FZZvBQUMEQRfgK0Anrq7BRKnsQBIdIUBZLbvBf9iGQHmOg0BXGrPBUl2WQFgDI0CE
ArnBLWH0QA78lkDngqbBJgfAQLDjrUByEajBqIDHQKKLbEDjScXBSeYAQd7fnkBQ77nBLoOpQF/b
yUBexbrB202RQEGIn0CG38/BC0B2QA/OXUBXlsrBpPRdQLlAoUD3WsTBREYCQQUA70COabrBI3rg
QKwH8UBzPK/B+nMKQVRY2kAlpK3BJk/VQEbpy0ATSpHBCTAGQXnJykDqLY3B1bb4QKi5o0B9gZbB
yboAQfS5S0CAyXjB3YQJQZ3zTUBpEorBfFkTQaAJjkDXvoDBvSq7QFGNREDdDoPBqVifQP7ck0D+
KoXBlWtfQI1uM0Ddw6XBYpILQPoKcUA2P5bBZyhFQAAYiUDNJ4vB5g7eQLau5EC4WMbBBCWfQMUw
FcC+iKLBhXrSQGgRpb8n9q7BEN/mQMB6Fb4aNLPBO7+nQLx96j1M5aLBeB+zQF67lL8y06bB41Db
QApCkD+SZq/BlrS7QBjlnj+UZ6fBNMfNQKh2OUC7jZnBWU+HQP5xX0Bya5fBqwHsQNSpIED58bHB
s6qlQD3vbUCdfrbB97vcQFzBm0AFqarBUM61QEonkED6aMDBiV3uQOMYtEDwiLTBdIHKQC01u0DS
+LzBzEy2QH/1K0DUBKTBVB7JQIgmX0B9x63BZLWPQHkmmECZD8jBpqkAQXBb30DI0bDBqvEDQYgi
YUC3dYLB6n7gQN/ZsUAc0HfBgy+4QFA+dkA6P4fBIULkQC/EkUB4Q4XB9d2OQDZJUsCBDZ/B8kew
QDv4X0DsrJLBormJQIHfQUC5RKHBk5NCQPh3eUCKnpLB817zQA5ZJ0AL75fBXQ3cQB/lz0DrMcbB
6sLvQEGuqEAEHI7B2NXaQMc6EcB28LHBzRr/QCJafr4QT7nBv1eQQBnZYj6rmJzBuEsFQfYlLEAk
1a3BMnPwQBtWKEA5n7rBaDqLQMQBiUAK1bLBJOmZQBgqL0BcL7nByAz3QPV6lkBs96TB6MnDQL5e
r0Ao2qbBjfjNQHCHeUBMlsTBz/4DQfXloEC0MLjBQ42xQHZqz0DbXbnBKdqaQJj+qUDDHc/BmTGC
QE2XckBxncrBzvdtQFjXqkDE48PBG/UGQYfZ8ED0xrfBSinoQFJ+8kAZ86zBerANQXN82UBAFqvB
34cFQRTMMkCBCYnBdj8TQfBSgUB+TYHB9jX/QPAwP0CfH3bB3ILHQO+LyUDfdnvBmALYQHGPoEDb
FGnBjkv/QOlJwkA4kHXB4Fq3QOXzOkDAgYLBPYaeQDerkEAkjYTBMYdhQI0xO0BINKbBmY4LQHc9
dkCer5bBwfVCQH6yh0CEGovBecLoQLdB6kAqI8TBn/2bQOtmFMAvWaPBqFjPQMj/o78QyK/Bf23k
QIfXEb6W47PBTwOnQAqk9j3XLqPB38iwQIKQk7/idafBeW7aQDJLkD8Jv6/BSN67QNtFnz89gafB
UH3OQIigOkBjZZnBlF6HQDOZXUBja5fBCunrQHwzIECvKLLBDwWmQPZfcEAAZrbBUGreQLFem0CK
p6rBHgu2QBGXkUChS8DBDtjvQLPns0DUgrTBfKbLQIAZvEDtybzBXDG3QLpNLECHAKTB89HJQHmA
X0A/za3Bn7GPQESumkCVy8fB6+ABQUKZ3kDys7DBwF2gQDL2x0Cml4nBXtruQH/JtEABCovBdOG3
QPw7c0BPIIfBgvnDQIykqUAShoXBqBuLQBxfUcCwA6DBdrOvQDWOWkCTaJLBB3WKQDJHQkC7WaHB
QHRCQBm0d0A4s5LBjxb0QM4bK0BOWZfB8Q3dQB0A0UBy/8XBcMLIQGdksEDKpnXBbY/WQA99EMD7
ALPB0wD8QMmDe74FJ7rBxCGQQOK+aD6zw5zBKV8FQXv1KUC3F67BiiLwQBXAKEBo1LrBeROMQMF7
ikDRmLLBY5qZQHFFMkD9JLnB9P/4QLZZlUAYFqXBTBTGQGg9r0Cbr6bBPaXNQGkEfEB1ncTBxnYE
QcB7oED7UrjBJkCzQEmG0EC0BrnB88uaQOitrEB+1M7BRXqBQDZteEDEZsrBShRvQBubrUDJe8PB
RR8IQbdM8ECgo7fB/SbrQKfr8UBeq6zBOAQPQQPv10DdFqvBtfOBQFrnv0CTpYXBiP6oQLhC6UCq
uYfBjdecQJBIxEC8TJLB0wUEQf8mn0DHHojB/m3rQI8VsUCRv5PB+ZT3QLcP1kB/LInBLVzSQKfC
S0DWFITBmMaaQDwGZkDcdYLBZKpjQG8YPUAYa6bBSAIMQBRadkDd5pbBqA9CQBjphUASG4vBs0/q
QLUH60Co5MPBa4iZQA9AE8DdRKTB5uPPQFw6ob/E2q/BIz3mQOjn+L3NibPB/HelQHgzCT5Eo6PB
P6evQHZMkb9O76fBasvbQN6Pkj8lZ6/BCnq7QJYUoT+ElqfBG7DNQAXQN0BpTJnBJb2GQCAVW0Aw
TZfBzTnuQIZRIUA9crHBq/apQFkSdUBhKbbBMJrgQDukm0D8j6nB32C8QC7AlEAgqL/Bm3v0QJq8
tEAQ/bLBRxbSQFR3vkAjnLvBegW3QGm9LEB85aPBD+rLQOIhYUBOQ63BEbOXQHRcn0APh8fBeT8E
QY6S3kBPpK7BFTXVQLwqrj9OB4LBc0PWQCGhTUDYCGnBiqm1QBYwbEDcuYbB8E7ZQNbKOUD2lIDB
oI6HQGg7UMAgUaHBnC6uQIg4UEBf+JHB12OKQCb3Q0C3Y6HB7ahBQO/FeECAx5LBxdrzQIAAKkAJ
2JfBgbHlQDfy00CCccTBwkYAQQ3WVUD0yIPBJmvXQDHjDsDZGLPBWSD/QF9oZL5TernBOG6NQAJM
cz5VfJ3BcD4GQSyZKUB+Eq3BgtDzQIX7KkDcDLrB1qOPQHjdjECbibLBLY+dQB8UOECFRrnBWtj5
QOOblEDOr6PBacjHQC+Pr0AtzaXBDGzUQPExgUA41MPBNfEGQbIuoUCpn7bB2GC5QP/70kAuArjB
kW+kQHXysUDjSc7Bzn+JQLB1gUAvhcrBIh9+QDo4skArX8PBtGALQcO18EC3SbXBIYPvQD8D8kAt
y6rBvrgQQVO71kBQwKjB5UXXQIgKjj+xlIrBrD/vQCrlWz8NWnvBFDS2QA0bgz/qsX3BQRHZQEaJ
iUBHgWbBmEC3QLhCN0Br3WLBMEzwQHyuLECOhWDBdHyXQGqmZEBZS4LB3Me+QIIWmEAB3YbBvXNk
QPFfQkBioabB388MQLB2fUDcQJfBQgxAQGq0hECTDovBZwHzQDp57UC6AMLB

> <OMEGA_E>
jsN6P570fD+yJ4U/c6+GP8BRhz+e+oc/

> <OMEGA_NBR>
     53137

$$$$
298705
  -OEChem-04172616093D

 60 63  0     1  0  0  0  0  0999 V2000
    4.9756   -2.1741  -20.6445 C   0  0  0  0  0  0  0  0  0  0  0  0
    6.5455   -1.0612  -22.1588 C   0  0  0  0  0  0  0  0  0  0  0  0
    7.1636    0.0913  -22.6474 C   0  0  0  0  0  0  0  0  0  0  0  0
    5.2431    0.2540  -20.5809 C   0  0  0  0  0  0  0  0  0  0  0  0
    5.5913   -0.9803  -21.1332 C   0  0  0  0  0  0  0  0  0  0  0  0
    6.8026    1.3124  -22.1025 C   0  0  0  0  0  0  0  0  0  0  0  0
    5.8540    1.3952  -21.0773 C   0  0  0  0  0  0  0  0  0  0  0  0
    6.4072    3.0623  -19.2825 C   0  0  0  0  0  0  0  0  0  0  0  0
    4.1694    3.5618  -18.9830 C   0  0  0  0  0  0  0  0  0  0  0  0
    7.3491    2.6663  -22.4463 C   0  0  0  0  0  0  0  0  0  0  0  0
    5.1487    3.9033  -22.9175 C   0  0  0  0  0  0  0  0  0  0  0  0
    6.8792    4.9841  -21.4505 C   0  0  0  0  0  0  0  0  0  0  0  0
    5.6128    4.7402  -24.1203 C   0  0  2  0  0  0  0  0  0  0  0  0
    7.3808    5.8165  -22.6422 C   0  0  1  0  0  0  0  0  0  0  0  0
    6.2550    6.0591  -23.6615 C   0  0  0  0  0  0  0  0  0  0  0  0
    5.6896    2.8207  -20.6384 C   0  0  1  0  0  0  0  0  0  0  0  0
    6.2625    3.6288  -21.8609 C   0  0  0  0  0  0  0  0  0  0  0  0
    4.4308    5.0000  -25.0627 C   0  0  0  0  0  0  0  0  0  0  0  0
    7.9786    7.1341  -22.1352 C   0  0  0  0  0  0  0  0  0  0  0  0
    7.2977    5.7613  -17.5261 C   0  0  0  0  0  0  0  0  0  0  0  0
    6.1949    5.6853  -15.2690 C   0  0  0  0  0  0  0  0  0  0  0  0
    5.6938    3.8594  -16.9807 C   0  0  0  0  0  0  0  0  0  0  0  0
    6.0385    5.3470  -16.7556 C   0  0  0  0  0  0  0  0  0  0  0  0
    4.4757   -3.1434  -20.2475 N   0  0  0  0  0  0  0  0  0  0  0  0
    5.4027    3.5328  -18.3717 N   0  0  0  0  0  0  0  0  0  0  0  0
    4.2821    3.1346  -20.3069 N   0  3  0  0  0  0  0  0  0  0  0  0
    2.9843    3.9419  -18.4069 N   0  0  0  0  0  0  0  0  0  0  0  0
    7.5847    2.8766  -19.0229 O   0  0  0  0  0  0  0  0  0  0  0  0
    6.7786    6.7241  -24.8108 O   0  0  0  0  0  0  0  0  0  0  0  0
    4.6585    6.3248  -17.3952 Cl  0  0  0  0  0  0  0  0  0  0  0  0
    6.8191   -2.0247  -22.5834 H   0  0  0  0  0  0  0  0  0  0  0  0
    7.9070    0.0261  -23.4346 H   0  0  0  0  0  0  0  0  0  0  0  0
    4.5156    0.3250  -19.7776 H   0  0  0  0  0  0  0  0  0  0  0  0
    8.3145    2.7973  -21.9440 H   0  0  0  0  0  0  0  0  0  0  0  0
    7.4921    2.7729  -23.5237 H   0  0  0  0  0  0  0  0  0  0  0  0
    4.3255    4.4482  -22.4365 H   0  0  0  0  0  0  0  0  0  0  0  0
    4.7233    2.9584  -23.2788 H   0  0  0  0  0  0  0  0  0  0  0  0
    7.7215    4.8265  -20.7665 H   0  0  0  0  0  0  0  0  0  0  0  0
    6.1310    5.5655  -20.8945 H   0  0  0  0  0  0  0  0  0  0  0  0
    6.3490    4.1744  -24.7041 H   0  0  0  0  0  0  0  0  0  0  0  0
    8.1954    5.2750  -23.1415 H   0  0  0  0  0  0  0  0  0  0  0  0
    5.4848    6.7074  -23.2238 H   0  0  0  0  0  0  0  0  0  0  0  0
    3.6640    5.5612  -24.5363 H   0  0  0  0  0  0  0  0  0  0  0  0
    4.0196    4.0520  -25.3983 H   0  0  0  0  0  0  0  0  0  0  0  0
    4.7711    5.5713  -25.9228 H   0  0  0  0  0  0  0  0  0  0  0  0
    7.2092    7.7115  -21.6300 H   0  0  0  0  0  0  0  0  0  0  0  0
    8.3656    7.7044  -22.9752 H   0  0  0  0  0  0  0  0  0  0  0  0
    8.7870    6.9227  -21.4393 H   0  0  0  0  0  0  0  0  0  0  0  0
    7.2084    5.5286  -18.5929 H   0  0  0  0  0  0  0  0  0  0  0  0
    8.1842    5.2351  -17.1535 H   0  0  0  0  0  0  0  0  0  0  0  0
    7.4852    6.8368  -17.4345 H   0  0  0  0  0  0  0  0  0  0  0  0
    5.3047    5.3971  -14.6983 H   0  0  0  0  0  0  0  0  0  0  0  0
    6.3528    6.7604  -15.1187 H   0  0  0  0  0  0  0  0  0  0  0  0
    7.0551    5.1713  -14.8271 H   0  0  0  0  0  0  0  0  0  0  0  0
    6.5216    3.2246  -16.6423 H   0  0  0  0  0  0  0  0  0  0  0  0
    4.8178    3.5864  -16.3809 H   0  0  0  0  0  0  0  0  0  0  0  0
    3.4786    3.0458  -20.9244 H   0  0  0  0  0  0  0  0  0  0  0  0
    2.9943    4.2282  -17.4558 H   0  0  0  0  0  0  0  0  0  0  0  0
    2.1619    3.9165  -18.9626 H   0  0  0  0  0  0  0  0  0  0  0  0
    7.4342    6.1252  -25.1988 H   0  0  0  0  0  0  0  0  0  0  0  0
  1  5  1  0  0  0  0
  1 24  3  0  0  0  0
  2  3  2  0  0  0  0
  2  5  1  0  0  0  0
  3  6  1  0  0  0  0
  4  5  2  0  0  0  0
  4  7  1  0  0  0  0
  6  7  2  0  0  0  0
  6 10  1  0  0  0  0
  7 16  1  0  0  0  0
  8 16  1  0  0  0  0
  8 25  1  0  0  0  0
  8 28  2  0  0  0  0
  9 25  1  0  0  0  0
  9 26  2  0  0  0  0
  9 27  1  0  0  0  0
 10 17  1  0  0  0  0
 11 13  1  0  0  0  0
 11 17  1  0  0  0  0
 12 14  1  0  0  0  0
 12 17  1  0  0  0  0
 13 15  1  0  0  0  0
 13 18  1  0  0  0  0
 14 15  1  0  0  0  0
 14 19  1  0  0  0  0
 15 29  1  0  0  0  0
 16 17  1  0  0  0  0
 16 26  1  0  0  0  0
 20 23  1  0  0  0  0
 21 23  1  0  0  0  0
 22 23  1  0  0  0  0
 22 25  1  0  0  0  0
 23 30  1  0  0  0  0
  2 31  1  0  0  0  0
  3 32  1  0  0  0  0
  4 33  1  0  0  0  0
 10 34  1  0  0  0  0
 10 35  1  0  0  0  0
 11 36  1  0  0  0  0
 11 37  1  0  0  0  0
 12 38  1  0  0  0  0
 12 39  1  0  0  0  0
 13 40  1  0  0  0  0
 14 41  1  0  0  0  0
 15 42  1  0  0  0  0
 18 43  1  0  0  0  0
 18 44  1  0  0  0  0
 18 45  1  0  0  0  0
 19 46  1  0  0  0  0
 19 47  1  0  0  0  0
 19 48  1  0  0  0  0
 20 49  1  0  0  0  0
 20 50  1  0  0  0  0
 20 51  1  0  0  0  0
 21 52  1  0  0  0  0
 21 53  1  0  0  0  0
 21 54  1  0  0  0  0
 22 55  1  0  0  0  0
 22 56  1  0  0  0  0
 26 57  1  0  0  0  0
 27 58  1  0  0  0  0
 27 59  1  0  0  0  0
 29 60  1  0  0  0  0
M  CHG  1  26   1
M  END
> <OMEGA_C>
9jefQJQkC8DbJ6XBdnTRQM7Th78/RbHBCjzlQEDquj3mLbXBUcenQDIPgj7CpaTBxOuyQH7yer/O
EKnBnq7ZQO78pz/f0bDB3FO7QN6Usj9jnqjBtgfNQFb9Q0CTQprBEmyFQF30Y0Af3ZfBrivrQByl
KkAOkrPBv8GkQAHQeUAOV7fBDCLcQHB9n0CMmqvBZJyzQOivl0Bh9sDBcS/sQIQgukBGI7XBQinI
QIXkwUC3Sr3B7BC2QCKGNEBmG6XBJGbIQNY9aEAO467BXsmNQLT/n0B5gMjBClH/QF5K5EDWFLHB
robpQFZcuECLNYzByDzGQPDttUCjTXTB0jO2QP7/dkBo2IfBGjvBQOgaq0BoC4bBNjmPQLYsScDg
+qHBiOKsQBkZYkA3+ZLBFweJQNOcSECEdKLBaP4+QNFIfEBEQZPBhLXyQDAaOED5LpjBbOrYQKor
10BwfMbBHhKVQBZlykBXKYvB/jXaQASVAcDlqrTBLQb9QIAR1jwaervBrH+QQOxspj6MOJ7BRggF
QVEGM0A/ja/BLL/vQL52MUCNMLzBO2qKQIlXjkACfrPBqSWXQLVVPUD3OrrBaxb3QP1ymkDGIabB
1DDEQG4YskDzJ6fBtirLQAiVhUDsocXBdiADQdbMqECyIbnBLYOvQPui1kBcyrnBOn5qQCb1sUBb
SsTBpKCAQFWqgUChL8vBtayYQNBHskD4Yc/BjLHmQKzE9kBHCq3BWtkFQdiK9kBOzbfBwJcMQbCG
3UCvg6vB9qrmQJ7qsEA+vpTBivICQUGGp0BROonBFIfvQCrH2kDzeYvBVMCpQGm1rEBtLGvBekrL
QERV2EAM5nHBUcPhQHN7pUCqO23BmLDQQJxfTkB8I4XBTiuaQESHZUALDIPBT6FeQJPuQkAtZafB
waI/QJFNh0BqpYvBGFwKQDuoekBws5fBGuXtQHkBxEAOl8nBzraJQEWhIMDu3aLBSGC8QCa21b8X
N7DBHGnTQABnIL8a5rTBfvybQOhNCr6QeaPBJtagQM10tr8pkafB3xXOQIDwJj9j2rDB07qyQLm8
ZT9dNqjBmADPQIBpI0AJ3ZrBUs+KQLYhVkBgfpfBhPzjQGp59D/wbLTBLSOiQH9jWUAGhLfBz5vg
QCDaiUCzKq3B1maxQJ6/g0B+r8HB9BDxQCmgoEBARLfBsgnMQPSPq0A05b7BHDO0QCZZFkB7MqXB
Mr/GQLqwQUDkka/BEtaKQLSOj0DJrcjBrDMFQXWkyEBnEbTBM8sGQWDXK0BwJofBd475QBQgm0A7
bXzBi97AQBjgYUBmdIjB8ZDwQGTXekAEtYfBqOJtQJb5WMC4DJ/BQCezQG7aS0CKQpPBIaOJQJ6c
NkDY76HBnTlQQOVueUBXbZLBLCb0QHS3DkBnV5nBRJ/cQOj9vEDXmcjBWvb9QElPmkD9yJPB/jvA
QPlSK8DiW7PB1uLoQCiEUb+YirvBYxOHQMDvej3utpzBJh4CQfP+9z+j+7DBlnbmQHLz+T8dIr3B
BleLQF73gUD4drPBuxSQQNH3H0DwyrnBvDr8QNZTgkB5GKjB6IDMQKUToECCkqjBbB/FQH8QXEBo
gMbBQsgDQeJ4i0DBdbvBQzq3QPTWw0BMQrvBkftrQKgtpUBFTcTB34tyQMh1ZUC6wcrBKeiVQOsl
n0DX8c/BCH71QJTC3kCb3a/BT38LQTAK2EDIMrvBtWESQV6Qv0DD3K7BQtsDQcliAEBo3o3BCQkE
QcNdB0AHk3/BMrsXQTTYPUDVWIfB2iDlQG6dt0D153zB7ngNQeL2pUCaXnzBpfHzQKT+ikBMIG3B
ni26QIxMK0DaMoPBEuisQCiIi0B2qYXBfNZcQHbmNUBpZqbBAoJXQFcDh0Dr9orBMmEZQFgOfUDL
aZbBfhzuQBLQpkDszMvBSL6JQHYcKsBQFKLBQEPBQGBn8b+jcq7BQG/aQHi1Xr9F0LLBNZedQB5w
l766u6LBjgijQPnkzL+fd6bBA4fUQFjK2D5CIq/BDXy2QKarNT8wKKfBThzPQDQGGUD2j5nBxYKK
QAewTkBEz5fBclLsQFU+1D/sdLLBzqysQFfYSkB/N7fBfvDnQEuIgkDrvavBBse/QNRpdkBSJ8HB
kzP8QNYFmEDzlLXBxh3aQPjTokD6CL7BUc23QK/VCkD+Y6TBvjfOQLZ8M0CMc67BGPabQOr4hkAH
A8nBRI4KQcLov0DfFbLBTgnWQBuohT9OOIXBlWjfQNs7LUAcpmzB91u7QISQW0BXtYfBsFzdQC1c
IUAHfILBUGxqQIgLYcD7g57BySmxQNDiQ0Bes5LB9ZiMQNMpLUBYJaLBgxxNQKwkdEBBm5PBCWfz
QDxiA0BWMZfB8kTuQHIDs0DkcsfB+mkIQabOP0Dy44fB4JDFQCvkOcB/T7HB3vjxQPP3i7+E77jB
GZSGQOihir2We5zBoKUFQVjx1j/zV67BIsfxQFUe1j/PFbvBEP2UQCPwdkCxyrPBMuuaQGicEUBz
tLnBMssAQdMWdkCNDqbBpsTSQA6KmUA1uafBsKbUQKBiSUBiZ8XB/tEJQfgVgkDeJ7nBfJvEQN7N
u0B6/7rBnB2GQORdnUDsOMXBaKCKQMJ/VEBXSsvBv8GpQDynlUBCGtDBs0T/QLjI1kBoea7BlS8S
QXRizkD2AbnByrYWQRjntkDSSKzB7HXUQDguYz9w4o3B6ty3QNy5LT8f1oHBg9zvQHhl1D5TF4LB
vKLkQJpycEBnX2jB/4j5QMC5B0AsnWXBvMrBQI5FGEB+4mTBw7mdQKRQWkATA4PBvZ/GQNwAj0CN
vofBI/1lQNV9LEDPK6fBoq1PQJAJhUCiJ4zBZkEZQKDnd0BnLJjBMC4AQdw7nEBIIsrB0AyHQH+A
LsCSFKDBhWm7QCLt+L+JPq3BzuHSQEjpa78cErLBk+WYQKiGtL74VKHB+JmeQMbA1L/B76TBPrbM
QB5+wD5Bg67B9xWwQMnhKD8PNqbBdRTKQHIQGUDCMZnBhEiFQEnFS0AotJbBO9jiQLZGzz8PULLB
GSuhQLqXREC2fLbBwezdQPStgUDW6KvB+LmxQPp4b0AuwMDB06rvQE3clkDzFrbB9K7LQCozoECy
Jr7BNNGwQBoXCEBCrqPBt7HEQO0wMEBgGq7BGhyMQLUKgkBgM8jBICIEQdyVv0CRGLPB0Sz4QJB2
lEAcFZDBi9UCQaUsKkD8K4TBlh25QIl0XUBLRYfBdZfoQDFsd0DWO4bBQNxnQGnPZcDtIpzBIAet
QHuVQ0BqEJLBxrWFQFC8KEBe+aDB74hDQCswcEDYI5LBaA3vQMOABUBFPJfB/YfdQAAcsEA74cfB
SPrsQHTvnkCZnnXBG+6/QOnePcC/AbDBplXpQHZHkr+PcrjBs/2CQFAaAb6J1ZrBdEkBQbAp1j9I
ma7BqI7mQP7yzj/q/7rBgqqJQIIYcEDN3rLBjKOPQAYqCkC1nbjB29n4QJF7dkBxhabBcQfJQBR/
mEB9vKfBTUTGQAvGQkBsJ8XB8XEDQXQzgUA+2rnB4DS2QHDmuEBt9rrBBQVtQHw2mECmPsTBXRd2
QBF/SUALIMrBRhyYQDp7kEDOhc/BNp/yQPw41kD9Ua/BXOIKQfDdzUBmRLrBM/YQQXSbt0Byka3B
3NXjQHBCsEBctpHBErX3QLVUgEBLQ5fBjHwMQcINoEBU/Y7BbBj7QMjQBUC3T3rBv2wTQWIbPkA5
woLBDgwDQXrD/D/uAovBMduxQF6YKEDZyoHBVJekQGebiUAJ8YTBTE1WQNYTJkADq6XBdYpIQImr
g0AOxIrB2tcNQKQEckDrYZbB4ZzvQGaNmUAWr8rBFmyVQB6DL8CR5qHBImbJQCha6L/di67BhpLe
QJTOOr8XKbPBcoGgQB+5p77DCaPB4o+qQJjJzr99i6bBYhjUQCB/Cz9mtK/Bl3C1QCwMPz8jtafB
QizIQNbYIkDhfJrBAASBQNLfSECyt5jBKiLnQNRG7D8jULPBTUCiQPjPRkCFMLjB3CXaQAIpiECz
CK3BHXSyQACHdEDSS8LB5YnrQPvdnkCKC7fBRDLIQFfppEDgeL/BvoGxQBpgDUClNqXB0CnFQKTs
OECnca/BuEyNQEAfgUAuIcrBwtf/QOKmyUBZ17PBJqSaQO3bvkBtbIzBEHnoQCUUq0D6hY3Bz0ix
QBTdY0Dlx4jBDsi9QOeboUDa+IfBjkKEQOQPasD6IJ7BVC6oQFfrR0AYrZPB4bGEQEUSJkCm9aLB
85E2QGSzZkBxiJTBvIftQI0QFkDaJZjBjhjaQLxgtkDCBsnBXSvEQHMPrkAq33PB9E3RQDB+NMBc
O7HBUJf2QBTrYr9zTLnBBP+IQB4UKL4RxpzBMvkCQbSg/j9hSK/BDj/sQJBQ7T+G9LvB0E6IQJrf
bUAr1bTBnMyTQBlzCUDQd7rBFqb0QIUvhEBDX6fBgpzCQNP8nECGGKnBqKHJQEW9S0Ded8bBFJwC
QSZni0D8jLrBLxKwQPmPu0B/hrzB/U9qQBU+lUBCasbB0JF+QK7ORED4MszBhx+ZQOuXkEBHVtHB
VKTnQJI73kDCTrDBL5MGQRQa2UD04brBRZkMQU8HxEAnDa7BpZF3QBOmuEDLkIjBmiuWQLnruUCP
CJXB+nCiQNWr4EAOLIvBvAoBQQN/lkBJdYrB5lHyQPZozEBFSozBOmXmQKYNpkCqLZbBGvTKQGqc
O0Cyi4XBS76UQG2SV0BH64PBpkxWQKWdHkDE6qfBKg83QBU0fkBcJo3BJ1sCQJKpY0BWC5nBEpbu
QLWNoUAToMvBK8WlQKibIMBkTabBluHVQMNZtb+yDrPBW/roQJbJir5tSrfBwG2uQOLWpb1UIabB
Nsq4QJVCqb9HiqrBZzLeQLgCdT8E77LBxEjBQJLVhj8bbKrBFHXVQECEL0CRb5zBJFWOQLrUT0As
UpnBrjTvQByYE0BxAbbBrzeoQBh9YkAhI7nBqJLhQH5elEACHq7BCmi1QLGHi0Bi/sLBXvnvQLaD
rkDj5bfBjpTKQFvmtUAorr/B0KS8QLcAH0AYAKfB6UfNQIK1UUB/DLHB+FGOQFh+k0DyJMrB/OUB
QdTc2EALL7TBBZgIQSSEQUA5RojBZdPzQKyKoUAox33BctTBQLpmZECs34nBW4HvQMllhEDgsIjB
XFSWQMhKXsBF3KLB3pm2QPJmTkCN25TBSBuQQP5sM0DO5aPBqnpSQPWtaEC4WJTBJnX7QG3HI0CX
v5rBiL3ZQPSzykDAHMnBPkn6QO6FpECcapTBRgneQEmxGMDgcrbB8Kj/QDp5sb7r1L3BQEeYQADS
LTptd5/B3mEHQbNTHEAuVrLBIEvyQP6KGUAQrb7BPJGOQErkgkBxELXBdB2aQG+/JUCGyLvBqnH9
QNOUj0Dn7KjBdmzKQOE2p0B9eanBpiHMQExZckAk28fBs6kEQQD4nEA+HbzBEpCyQC/WykBm+7vB
2xBtQEqupUCsusXBFLSAQLATakDRlszBXgSYQMZrpUBXMdHBvOXrQHeP60B38K/BsoEHQWLE6kCK
FrvBtUwPQWhb0kAy4a7B51kHQcr8FkC5No/BNKkGQcXDGUAFHYHBqNYYQSjaW0AEKYjBSQTcQAZJ
u0BdDH7BbMoJQepvsEAME33BJJPvQC6zj0Dc2G7BriC+QBALK0BQ54TBwXCqQLiqiUAT/obBwiFr
QJ5KLUALjKjBO79VQKzCe0AOx4zBjVwcQBCmZkCNgJjBICnuQDBet0AIYczBMParQNN5E8AOOqXB
zC/eQMaAmL9RWLHB5PbxQCDsH71FQbXBDoe0QLSK/T0EuKTBiKm/QMskjr9PI6nBaWvmQFpPlz/8
5LDBFBPIQLbooT/zsKjBBszZQAmmO0BjVZrBXDGSQHSfW0Ce7pfBbuj3QNVNIkBtpbPBGX6xQFl7
cUAaabfBaOLoQOJRm0CMravBbFbAQISFk0CnCMHBgO34QOT0tUCINrXBFeXUQLK5vUBOXb3B9dHC
QBcwLEDNLaXByiTVQJLnX0DC9a7BWoGaQCTWm0ANksjBgggGQVQe4EBkKLHBMjzWQI25sEAWjHTB
LF+rQEvRxEA6h4rB7P3CQLKobkDE6ofBjQbOQAbvpkDoHYbB0vebQIyBUcDUDKLBOKm5QJvCWUBs
C5PBE8mVQD9IQEAWhqLBFYxYQAv1c0ANUpPBVHr/QHrBL0B5QpjB9qPlQMAA00BOj8bBc+7+QNzu
sUCgV43Bzu/mQKvrCcApvrTBld8EQeBt1b3qjbvBTkGdQGyJRz5fSp7BRGcLQcmtKkAsoa/BfHn8
QKsfKUAARLzBACiXQJYtikCNj7PBpOCjQKQBNUDNTLrBI+wBQdtGlkBFNabBzPLQQDTtrUB+OqfB
EuPXQFZqgUCmtMXBwn4JQdagpEBzNbnBZEC8QIV40kB63LnBoviBQO7LrUB4W8TBUleNQBwCe0AC
QcvBBGOlQDYerkC4c8/BA3PzQPmY8kBaHa3BhTgMQbhe8kAO4bfBfPgSQRRa2UC0l6vBQ+/uQMa2
m0CX423ByD65QJoUrEAI82rB2tbgQHLV0UBhSHLBMvykQEhdvkAs/5LBhuW0QLZ85kA+04nBjiyN
QB5AwUBHLIbBIHvdQEYHRkBbNoXBpPamQL8wXUDpHYPBTiJ4QBmbOkBJdqfBKzVZQIIjg0AxtovB
KucjQI1VckC/w5fBaJ36QEHWv0BTqsnByuafQIwnGsBzAqXBphXMQAi/sL+H8bLB60XeQDZ7hL7E
ybfBQtmpQOBCazyrf6XBigiyQBZhn7+B3anBNaXVQNLUfD96drPBZcW7QHsBkD8CZarBLXvVQOLo
NUAnOJ3BDPCPQLZiWUAAuJjBq0DmQD5SFECMJbfB+BufQNMxZUC/A7nBRo3cQBSulUDvda/BElep
QLK3i0DERcPBiwPoQBalrkD3qrnBvT7AQDT9tUCsrcDB0gy5QC5aJECGK6fB2qLGQB6RVECdr7HB
vxuAQKu6k0Avn8nBObX9QOH02EBVpbbB7Zv/QOoupECBaYDBbKkAQZZ0okBugpTBjqPIQHntbkB4
eorBJ9f2QJXtiECpX4rBoS6RQCecVsDsEKHBM465QCtQV0CrHZXBAOWNQOL3OkBhNKPBfLxZQAiA
dEAjD5PB4tD7QAAaKUBhTZzBjH7MQOqhyUBvhcrBlUQNQZPWNkBw84nBwo7SQCNKF8ByTbbBFp7y
QJx5u744xL7BGBSWQLj3Aj4WaZ7B3YADQbmTHEDcLrTBSXHmQFaMGEDw3b/BQTiHQDwVhUCphrTB
lquPQFGBKECvKrvBsP/5QL3dkECa2KrBxF3HQLheqUDvdqrBZQm+QD4CcUBDe8jBJY//QMhAnEAg
S77BpOipQLqyy0AfnrzBGmZUQIjApkC91cTBqHBiQIOeakBGlcvBvqyHQJrRpEAf9dDBRqPnQNh5
7ECdB7LBGmsDQT4C6kCs3r3B1wwNQaB00kDp4rHBcVT4QAyPkkDoHXLB7urrQEs2wUCqXYDBwpoQ
QcoSrkCTBoDBOEf7QLSMj0DPvJvBo4IRQRxHrEDwpZTByh7uQM6wv0CDDJXBryrGQI2mNkDhRYXB
X7GyQDCdj0ClQofBgKhjQOTxNEArQqfB9GxiQCx1hEDJnIvBTPkgQFOwckBzn5bBPGvfQFahtUAS
Fs7B

> <OMEGA_E>
sgOEwaK7f8HgQX/BrLN7wa78d8HlIYbB1ZeEwRx8gME=

> <OMEGA_NBR>
     61208

$$$$
290146
  -OEChem-04172616093D

 63 67  0     1  0  0  0  0  0999 V2000
    5.1981   -2.2344  -19.8389 C   0  0  0  0  0  0  0  0  0  0  0  0
    6.4472   -1.3141  -21.7600 C   0  0  0  0  0  0  0  0  0  0  0  0
    6.9887   -0.2082  -22.4503 C   0  0  0  0  0  0  0  0  0  0  0  0
    5.3282    0.1783  -20.1723 C   0  0  0  0  0  0  0  0  0  0  0  0
    5.6467   -1.1196  -20.6058 C   0  0  0  0  0  0  0  0  0  0  0  0
    6.7131    1.0849  -21.9859 C   0  0  0  0  0  0  0  0  0  0  0  0
    5.8527    1.2589  -20.8905 C   0  0  0  0  0  0  0  0  0  0  0  0
    6.4520    2.8657  -19.1876 C   0  0  0  0  0  0  0  0  0  0  0  0
    4.2194    3.3257  -18.9364 C   0  0  0  0  0  0  0  0  0  0  0  0
    7.2847    2.4173  -22.3540 C   0  0  0  0  0  0  0  0  0  0  0  0
    5.6889    4.5794  -23.9634 C   0  0  0  0  0  0  0  0  0  0  0  0
    5.1826    3.8371  -22.7260 C   0  0  0  0  0  0  0  0  0  0  0  0
    7.1147    4.7386  -21.3389 C   0  0  0  0  0  0  0  0  0  0  0  0
    8.0805    5.0632  -14.9884 C   0  0  0  0  0  0  0  0  0  0  0  0
    6.7110    4.6099  -14.4289 C   0  0  0  0  0  0  0  0  0  0  0  0
    7.1073    5.3911  -17.1615 C   0  0  0  0  0  0  0  0  0  0  0  0
    7.6853    5.4019  -22.6033 C   0  0  1  0  0  0  0  0  0  0  0  0
    6.5276    5.7943  -23.5411 C   0  0  1  0  0  0  0  0  0  0  0  0
    5.7515    4.8485  -16.6509 C   0  0  1  0  0  0  0  0  0  0  0  0
    5.7435    2.7013  -20.5083 C   0  0  1  0  0  0  0  0  0  0  0  0
    6.3337    3.4617  -21.7265 C   0  0  2  0  0  0  0  0  0  0  0  0
    8.4994    6.6384  -22.1954 C   0  0  0  0  0  0  0  0  0  0  0  0
    6.3834    7.6181  -25.0996 C   0  0  0  0  0  0  0  0  0  0  0  0
    5.6157    3.3260  -16.8705 C   0  0  0  0  0  0  0  0  0  0  0  0
    4.8359   -3.1352  -19.1942 N   0  0  0  0  0  0  0  0  0  0  0  0
    5.4240    3.0575  -18.2801 N   0  0  0  0  0  0  0  0  0  0  0  0
    4.3532    3.0719  -20.2096 N   0  3  0  0  0  0  0  0  0  0  0  0
    3.0511    3.7778  -18.3412 N   0  0  0  0  0  0  0  0  0  0  0  0
    7.6369    2.6629  -18.9398 O   0  0  0  0  0  0  0  0  0  0  0  0
    8.1692    4.7756  -16.4041 O   0  0  0  0  0  0  0  0  0  0  0  0
    5.6300    5.1373  -15.2419 O   0  0  0  0  0  0  0  0  0  0  0  0
    7.0622    6.4080  -24.7227 O   0  0  0  0  0  0  0  0  0  0  0  0
    6.6440   -2.3154  -22.1135 H   0  0  0  0  0  0  0  0  0  0  0  0
    7.6065   -0.3565  -23.3236 H   0  0  0  0  0  0  0  0  0  0  0  0
    4.6972    0.3374  -19.3103 H   0  0  0  0  0  0  0  0  0  0  0  0
    8.2998    2.5266  -21.9447 H   0  0  0  0  0  0  0  0  0  0  0  0
    7.3157    2.5335  -23.4474 H   0  0  0  0  0  0  0  0  0  0  0  0
    6.3094    3.9005  -24.5668 H   0  0  0  0  0  0  0  0  0  0  0  0
    4.8302    4.9196  -24.5607 H   0  0  0  0  0  0  0  0  0  0  0  0
    4.4588    4.4793  -22.2029 H   0  0  0  0  0  0  0  0  0  0  0  0
    4.6841    2.9120  -23.0510 H   0  0  0  0  0  0  0  0  0  0  0  0
    7.9397    4.4711  -20.6624 H   0  0  0  0  0  0  0  0  0  0  0  0
    6.4375    5.4413  -20.8314 H   0  0  0  0  0  0  0  0  0  0  0  0
    8.1957    6.1457  -14.8309 H   0  0  0  0  0  0  0  0  0  0  0  0
    8.8829    4.5282  -14.4592 H   0  0  0  0  0  0  0  0  0  0  0  0
    6.6641    3.5109  -14.4329 H   0  0  0  0  0  0  0  0  0  0  0  0
    6.6014    4.9778  -13.3980 H   0  0  0  0  0  0  0  0  0  0  0  0
    7.2248    5.1480  -18.2279 H   0  0  0  0  0  0  0  0  0  0  0  0
    7.1425    6.4825  -17.0282 H   0  0  0  0  0  0  0  0  0  0  0  0
    8.3437    4.6887  -23.1207 H   0  0  0  0  0  0  0  0  0  0  0  0
    5.8748    6.5043  -23.0122 H   0  0  0  0  0  0  0  0  0  0  0  0
    4.9456    5.3526  -17.2044 H   0  0  0  0  0  0  0  0  0  0  0  0
    8.9117    7.1195  -23.0946 H   0  0  0  0  0  0  0  0  0  0  0  0
    7.8470    7.3486  -21.6662 H   0  0  0  0  0  0  0  0  0  0  0  0
    9.3227    6.3330  -21.5330 H   0  0  0  0  0  0  0  0  0  0  0  0
    6.8453    8.0301  -26.0090 H   0  0  0  0  0  0  0  0  0  0  0  0
    5.3233    7.3983  -25.2942 H   0  0  0  0  0  0  0  0  0  0  0  0
    6.4621    8.3518  -24.2838 H   0  0  0  0  0  0  0  0  0  0  0  0
    6.5294    2.8222  -16.5222 H   0  0  0  0  0  0  0  0  0  0  0  0
    4.7509    2.9495  -16.3045 H   0  0  0  0  0  0  0  0  0  0  0  0
    3.6165    3.1224  -20.8840 H   0  0  0  0  0  0  0  0  0  0  0  0
    2.2338    3.9312  -18.8967 H   0  0  0  0  0  0  0  0  0  0  0  0
    3.0260    3.9504  -17.3565 H   0  0  0  0  0  0  0  0  0  0  0  0
  1  5  1  0  0  0  0
  1 25  3  0  0  0  0
  2  3  2  0  0  0  0
  2  5  1  0  0  0  0
  3  6  1  0  0  0  0
  4  5  2  0  0  0  0
  4  7  1  0  0  0  0
  6  7  2  0  0  0  0
  6 10  1  0  0  0  0
  7 20  1  0  0  0  0
  8 20  1  0  0  0  0
  8 26  1  0  0  0  0
  8 29  2  0  0  0  0
  9 26  1  0  0  0  0
  9 27  2  0  0  0  0
  9 28  1  0  0  0  0
 10 21  1  0  0  0  0
 11 12  1  0  0  0  0
 11 18  1  0  0  0  0
 12 21  1  0  0  0  0
 13 17  1  0  0  0  0
 13 21  1  0  0  0  0
 14 15  1  0  0  0  0
 14 30  1  0  0  0  0
 15 31  1  0  0  0  0
 16 19  1  0  0  0  0
 16 30  1  0  0  0  0
 17 18  1  0  0  0  0
 17 22  1  0  0  0  0
 18 32  1  0  0  0  0
 19 24  1  0  0  0  0
 19 31  1  0  0  0  0
 20 21  1  0  0  0  0
 20 27  1  0  0  0  0
 23 32  1  0  0  0  0
 24 26  1  0  0  0  0
  2 33  1  0  0  0  0
  3 34  1  0  0  0  0
  4 35  1  0  0  0  0
 10 36  1  0  0  0  0
 10 37  1  0  0  0  0
 11 38  1  0  0  0  0
 11 39  1  0  0  0  0
 12 40  1  0  0  0  0
 12 41  1  0  0  0  0
 13 42  1  0  0  0  0
 13 43  1  0  0  0  0
 14 44  1  0  0  0  0
 14 45  1  0  0  0  0
 15 46  1  0  0  0  0
 15 47  1  0  0  0  0
 16 48  1  0  0  0  0
 16 49  1  0  0  0  0
 17 50  1  0  0  0  0
 18 51  1  0  0  0  0
 19 52  1  0  0  0  0
 22 53  1  0  0  0  0
 22 54  1  0  0  0  0
 22 55  1  0  0  0  0
 23 56  1  0  0  0  0
 23 57  1  0  0  0  0
 23 58  1  0  0  0  0
 24 59  1  0  0  0  0
 24 60  1  0  0  0  0
 27 61  1  0  0  0  0
 28 62  1  0  0  0  0
 28 63  1  0  0  0  0
M  CHG  1  27   1
M  END
> <OMEGA_C>
slamQOX/DsAJtp7BnU/OQAQzqL97FK7BcqPfQAwrVb4gmrPBpICqQEiZNj7fYKHBALK0QB9Pj7+n
2KTBytHWQMPcij8V46/BTUm7QJEioT+sH6fBGnfOQHZnN0AvgJnBjAWHQMbXVEC/fZfB9hvpQFS1
GkAV1bLBZwu2QGmKkkD7tL/BjNelQBCTdUDvzrXBUavjQGail0AbtqrBzUkBQZwFokB40G/Bh8DW
QAaEk0Ci3GbBr27jQEaErEDHSonBye31QHjcrEB107TBbeLQQAxruUBDVLzBqAy4QCInm0ACNYXB
Jsu3QIThLEAGEaTBvK3KQESNXUD5z63BiP0HQext1EBBkLHBKkXMQCDH80AEzMjBArSzQADdVEDX
9obBE8CaQBinSMDHjZnBZ5GtQH6uQ0COPZLBME2LQHyaREBMraHB5ERDQIjHcUC+upLBi2H0QNBs
KkC3hJfBNbUCQQzSmECHO4PB9ii0QI1kpEAC33PBo/3hQBIOzUATyMXBxZvUQLYvFMBx6LDBCmjz
QB6Jtr7LlrrB0U+WQGLCrD6Te5rB7csEQZG0IUC5jq/BkhrqQFwlIkBflLvBVObJQM2heUDIiMTB
oZCaQFxtnUBcfMTBL66OQKBWj0CRn7HB0OOVQINdOkB4aLjBYxL+QF4Tj0CNTKXBnP/NQPgerkCt
pqbBhCEDQd6pxEAqS23BZCAOQVbnkEAPWWfBOUDVQCuyYEA57WbBWj7TQLtJn0BLXlbBgDHnQMC8
pECl0pHBxY/kQF1wz0C4OYjB/H8FQc0JlkAq97jBRv67QPUi0EAIGbjBmkKeQHJIq0CuoonBLJYO
QVnT40DOwbjBARv7QG4n60BMVK3B5CkVQT+oykCCQ6zBeQzbQGh7AEFbEtDBvFiqQNS+7ECOWsrB
MMnOQMmgBUFJRcLBLfHQQE6fNEBwLYTBpAeYQDnEPECjb4LBFnVnQG7VR0BxEqfBVfcOQD2Ye0B1
LJfBM6lBQLbTfEAk2orBSGmjQLxwDsAkzZ7B7gnMQCO3qb9KJK7BNCfeQLAqa77LobPB8FapQOi3
Pj5wZaHBFY+yQOMRj7+s56TB+kTWQOfEiD9L4q/B2O66QP0XoT9oGqfBF5nOQHCvN0DDe5nBmymH
QHrsU0AHfZfBumbpQET/GEC10rLBB+K3QMXskkCvr7/BoR6nQJyydkCv0bXB4WPlQH7ylkDAr6rB
pYa8QNSv6EC6Q3jBBuaxQJjc4ECoCIjBJ4fOQBgonkBAvXPBEzL4QP3hq0Amw7TBoH/TQIdDuUCR
RbzBWPfEQJlulkBFt4XB+Ca4QFQzLUDeEqTB8J7LQLQYXUBYz63BWo0JQX7Z0kAYcrHBa3fOQJIc
8kCkJsnB6Ja0QNRgUUDm9IbBPD+XQGKvR8Crp5nBW4itQBrGQEAZOJLBpcuLQIJLRkBAu6HBmFJD
QHCIcEDcwJLBkKD0QDTmLECscJfBIgTcQP/ZyUBuF3HBGTClQLPbtEAVconBFDflQIqczECDr8XB
8qDRQMIgFcBZ/7DB8M/xQNkex75xn7rBK0OVQOJstj4ff5rBzPcEQVa1HkBriq/BXoDqQINlIEDs
kbvBbFbLQHq9eUCehcTBF6mcQG9qnkD6d8TBgkyQQJlGkEAoorHBQKWWQJwqPEB4dLjB7Iz/QPLa
jUBMQaXBphrQQHDUrUAro6bBH2fJQFqbBEE3UHbBVDyfQE9H5UBBp27BrZaXQJsT9kAvforBr1LO
QAeH50Ah84zB84WxQLxMmED2NGrB6SHoQA13iEAMbW7BwWgGQSGqlEDO57jBdwm/QARh0EAhC7jB
3bviQJQKmkAyU4rBdloQQUoN4kAEnrjBorH+QGn46UAyNK3BW5YWQQ1syEB6I6zBUcvdQJsl/0Aa
X9DBphmtQG2S6UC298rB1xXPQLIoBUGOw8LBMHLMQGE0JEAEzIPBHV2WQPbXSUDKi4LBYx9pQMsV
TEBCL6fBpLAPQDYefEDMQJfBZ+BAQG+TeUDr1orBCz6nQCn9D8Aoe57B5iDQQEiLqb9Tpq3Bl0zh
QDg6X742LrPBedWqQGBrLT65MqHBgsC1QPa2kL9ejaTB53TXQJm/iT/apK/BQ067QJFEoD+X/qbB
PGTOQLRSOkBntJnBToOHQECwW0DjlpfBNUbpQN5OGkDOsbLB2Hq3QOmCkkDAq7/BeG2mQHgJdkBu
0rXBD7njQEuYl0D7k6rB0aPSQM8YyUAdPm3BR7nNQBX5yUD64oLBYmfhQC5Fe0Av7W3B8y73QJ9u
rEDBkrTBQiHTQNYtuUCXWrzBqXXfQNZoe0DjPIPBwDy3QJgDLUCvD6TBB6TKQIpsXUDswq3B5LII
QbfH00DVKrHB5/rKQMtF6UD/RsvBXRa0QOycV0DyAYfBdIybQJoBSsDgZpnB79ivQMCbWkBFrZLB
LeeKQBQNRUChoKHB/BtCQOZwb0D8oZLBgpTzQJwpJUAuA5jBPe/GQJI5n0CSamXB7nLnQOtHqEBV
k4fBUijmQLlgy0CbwsXBtB/XQBriFMA+XbDB7b71QMVgu757C7rBJFqWQCeKpz6/WprBrd8EQUgd
IkAUca/BbTDqQKr+IECoc7vBdwzLQK+seEB7ccTBHFWcQAHUnUBvgcTBOVCPQL3ej0DWtrHBzD+W
QGguO0CgdbjBeH39QA76jkC6+6TBv9HNQEpbrkARsqbBtBH0QG35z0BU72jB4ZW9QL1c4UDFDGbB
TeyrQEIFxUAjAoXBtnbYQIon6UB89oXB+/jVQK0xPUDY52fBQVYBQYKxgkDdw2jBrzsGQXNTlUAZ
i7jBjXi+QN3m0EC5Z7jBZI34QMroT0AnKIbBQb4PQeLx4kD0SLjBdF/8QLLK6kAnFK3BUosVQeTB
yUDDsqvB6sXbQMO69UBLW9LBdm6tQLMF2UDgzM3BK/HCQML2AUF/5MXBqEKxQFy7FEBJWoTBo0Oa
QKzSfUCxaIPBvo1lQAU+REDL4abBbmsLQNPMbEBfxpbBBVdBQHwpgECv6orBqQmoQHCDEMDd3p7B
kojQQMBFqL/qCa7Bdh/hQJjfTL6FkrPBymSrQHQ7Iz4ea6HBAmq2QJgRkb8U4aTBMR7XQEY/iz/w
76/BPo27QAr4nz/8J6fBNkjOQM6WN0DagZnBEgSHQF7OVUB7bZfBPgboQLBgG0DJELPBG2WzQIzP
kUB62L/BrgSkQKixdEAWzbXBRTXiQMPdl0BYBKvBYkbuQP0a3UDl9XbBk/LAQEqJ0UDwIG/BpDfo
QDbjqEBNlYnBPhv0QJaLrEDIRrXBLtbOQOO1uEATw7zBoWa7QJznm0CgU4XB4V63QDJQLEBxEqTB
fG7JQHJtXUBP7q3BaC0HQUBE1EDKP7LBK9XJQBRF8UCOwMnBBBW0QIaRV0DL1IbBzFCcQInMSsCL
2JnB5KKtQFoWRUDqKZLB/tCKQO7GQkAvkKHBc6BDQAoudEDtuJLBCDD0QD4JKkAMlpfBDHbxQNOP
1ED8y4bB7Ve4QNJOpUB9I3TBDtrfQMYxy0BaYcbBs8bXQDEEFMAmzLDBlj71QA3GrL6rgrrBqg2X
QI33nD6EiJrBeF8EQeAIJED4AbDBSAvoQHk8IkDe0rvBVZ3GQF+gd0B6wcTBIHuXQMexnED/dsTB
xxiNQH/8jkCbj7HBgvmTQJ0yOUBoQrjBxMr8QJDQj0CLnKXBln/MQNR6rkChA6fBh2r0QBs//0D3
+HPBCwADQYm1yUAiTW7BL+u+QPdY1kAvuV3BFlGpQFUU5kBUK3fB5UsAQTDbk0BxBobBq8boQO13
pUAqV5LBZX4EQWpulUABYLnBfV+6QJIY0EDZoLjBbNaiQB+irUD2zonBH50NQTEv40CQirnBvrX5
QM9J60B2C67B2ncUQQrLykAv/azB5JPYQAiK/UB3IdHBD/2nQHC56UAnRMvBvRLMQJ/XBEETcMPB
AC3QQAYwNEAm6IPB0JeXQM7IQ0DzSoLBfqhlQM9oQ0CU26bBrA4PQDDYfEChJ5fBm4lCQL21gECI
5YrBM/aaQH6ME8AIn6PBzuXOQB7Kor9R7q/B417kQADzCb778bPBfJimQKYVBD4EU6PB/ymwQGo+
kr9KpqfBupXaQH8kkT9DwK/BpdS7QDIUoD/pjafBUWTOQNvUOUB9XJnBCy2HQCdwXEAAZJfBoWbs
QIiJIEBIELLBPSS3QK43kkDaDcDBK9CmQFUscUAMVLbBcxvfQB19m0BTfKrBh4X9QB7o2EAEUIXB
T4zwQMbQvEBcV3fB6du7QDevx0CjO47B98zwQNEVtECDTbTBkHLMQIejvEDugrzB4fGtQJt6qUAZ
AYXBblG3QLt5LEDP/KPBJ2DKQH3oX0Cts63BZncCQdKd3kC6crDBIoK+QM8a6UCaHszB6vG3QPKY
ckCvLYfBcbeJQE5UUMDtWaDBfm2vQGHfWECNXZLBBYeKQNubQkCYYKHBg0xCQJKUd0AntZLBMxn0
QHAPK0D/V5fBi9bpQMixyEDs8Y7BvTLCQBLNt0C9QHbBS9LdQDdf0kBlyMXBCfHVQD/TD8C6MbPB
UxT8QChCdL4tLbrBfZOPQPz1cT7w75zBmpQFQSq3KUAo8a3Bs9zwQIiFKUBYuLrB1LvOQNCVfUDK
a8TBUfqbQNSEmUBEWMXB/rWMQGmzikBPirLBV4qaQH49M0BYLLnB55H5QHdIlUDg5KTB7cfGQONl
r0CWhqbB5dryQO79+UDJ7YPBuEMQQRVR2EBDOIbB72r/QCAWnUCyA3nBx+P7QDQFzEDzg2jBNIau
QEjsu0Dn05XBNNOvQCoo6EATqIzB8toEQSCSoEBKKLjBQA60QKjV0EBQq7jBAQ2LQAV9rEDWH4TB
UcwIQSpU8EDTXLfBLWfsQPgI8kBDaqzBNY4PQV+510C/0qrBZ3fOQHCJ+EDn8tLB9U2mQGxy0kBu
E8/BeOmuQJnQAEG4J8fBP+zZQMXfZkBMaIXBmfWjQBlWS0Ci2YHBMyFkQAGCPkBagqbBVzkMQCdB
eEBm/JbBBbJBQMc1hUD+D4vBuFudQNUsFMB0dKPBXy3SQMdCob8hZ6/BhFXnQDiu570ZWLPBRwGn
QPw6Az5KUKPBgDKyQCIvkr9FaafBU+nbQMW2kz8PZa/B4bm7QOg/oT95iKfB9KHNQH33OEBNeJnB
xcWGQFC7XED6UJfBsSXtQPFvIkCJrbHBiLO4QJjxkkD417/B4ZmnQO7YcUD4RrbBqU/eQIY1nECe
A6rBmJwHQZhXlkDbK2nBHiYJQfKHlUB314DB4fjXQIZaQEAMFWrBrLjwQA9CtUAjqrPBIjPNQByA
vUDdGrzBTc3aQFKKO0CPWoHBuX22QKLYLEDx9aPB/FXKQHoAYUB3ea3BZvcBQUb030CZoK/Bu5jA
QFfE6UB3zsvBXoe2QMz8b0BG64bB1GGMQOyAUcDPQaDBZrauQMuzVEBdKJLBQNeJQDb1QkDHUKHB
weBBQDXUeUCKs5LBoHrzQCS+J0BqIJjBdHrkQPQuikD5tWLBhb8CQXR2V0BFloTBHmvfQLx/00AE
OsXB/WzaQMwBD8BvgLLBcwYAQee1Vb6eVbnBECyPQP+BaD5fG53BXMkFQb61LEBzca3BvRHyQGlR
K0AHUrrBXfLQQNm2f0ACFMTBlAqeQKUZmkDbTcXBnvCMQMmtikD5oLLBQPCbQHPPM0CXPrnBNEH4
QLgTlkB+RKTBYWLFQGO8r0CcK6bB5j4TQS9nf0CsXmLBAB4LQV7NtkDdVWPBif38QA8GrkBNPoTB
urkZQYIDnECmUIPBkN22QGluM0AkDWXBzGztQIwjEECDDWPBdyQFQcMkokDQX7fByTC0QORp0UD9
a7jBlKrWQI9I8D8VrYPBsosIQYX28UBwb7bBc8LqQLn98kANu6vBC80OQTRC2UDZ16nBSi7RQGh0
+UBCgdLBHSCpQCbB0kBi9M7BOgKwQFsFAUHA98bBhcaYQA2iZ0COVYLBWKK/QOX+mUB/64bBKYti
QFbtPkCZaqbBBh8MQAD8e0DGCJfBcEVBQA5KhkB+DYvBXa6gQMmRFcDiVaLBZFLTQBjPpL9R5q7B
8j3nQJjHD74zOLPBtoSoQHTV4T2izaLBWiu0QIAVlb+StabB3WjbQBTEkD8AcK/BdQO8QKDAnj/l
YafB/ePNQLhxOkBznpnBdzSHQE8jX0A1apfBKo3rQB0lIUB/ELLBl/ezQCA3j0DkY8DBz5OkQGoO
bEDPgbbBz7HbQEP2m0D+3KrBDxEPQb971EAqjoHBtPkJQVSdxUDFEI3B/MfsQFC8n0Am6nTBkmHs
QEdUtEDy2LTBuMbHQJyxukBLH73BZwLlQP2Fj0AX5IXBkjq2QLTiK0DcCaTBZHLIQGLuXkAg3a3B
jOf+QIP330DVRrHBwlC4QOOe5EDRFc3BjGq4QISkdUBRUIfBzsuQQOPPUsBAyJ7BBjSwQJoqYEBR
t5LByZGJQPUGQUAjPaHBw31CQIsXeUAhlZLBwW/zQAH+J0Dp75fBCMoLQfCUsUDBJHTBqMfpQFHi
skDkTI3BymrYQCEA0EDpisbB4+LbQHkLEcDS27HBllL/QHSrdL7XXbnB4UCRQK7rWj7Rd5zBOhkF
QblyLUB8BK7BKq/vQFecKEDswLrBoDfMQOhkeEBppMTBnI2YQMAGlUAst8XBq+eJQKCeh0CC0LLB
W1aZQB3KLEA1J7nBum/2QOUgl0AfRaXBXr/CQHRUr0BG+qbBf9QfQSgU30B1JIHBbncEQcNB70Bs
2H7BvIYKQY864UAIhJLBuNcVQUSwrUAdm4/BcibVQBSIuEAL3HDBNxbqQMQNhUCxg2nBEgMDQVpp
oUD3lbjBeKyuQGVwzkAfbLnBUEv9QAcmbkCBr4fBomcFQRR08UBqT7jBZLDlQHbU8kArWK3BNLEM
QWml2kAooqvBtsPHQOrc80B8A9TBRSShQGaezEAA5M/BU5qnQIIR/UATVMjB7OK2QLq3OkB7g4LB
RMafQGVdkUC/iITBlhFhQJSDOUDbIabBxUwLQHhodUBIm5bBXyBDQKG2h0D/FYvB

> <OMEGA_E>
qIyFP+FMhT+SioY/d0SGPzPmjj9OlI4/SQSOPw==

> <OMEGA_NBR>
     68600

$$$$
298706
  -OEChem-04172616093D

 65 69  0     1  0  0  0  0  0999 V2000
    4.9053   -2.1313  -19.7591 C   0  0  0  0  0  0  0  0  0  0  0  0
    6.2190   -1.3264  -21.6953 C   0  0  0  0  0  0  0  0  0  0  0  0
    6.8400   -0.2671  -22.3954 C   0  0  0  0  0  0  0  0  0  0  0  0
    5.1852    0.2570  -20.1428 C   0  0  0  0  0  0  0  0  0  0  0  0
    5.4257   -1.0641  -20.5491 C   0  0  0  0  0  0  0  0  0  0  0  0
    6.6524    1.0485  -21.9475 C   0  0  0  0  0  0  0  0  0  0  0  0
    5.7881    1.2900  -20.8694 C   0  0  0  0  0  0  0  0  0  0  0  0
    6.4661    2.8671  -19.1857 C   0  0  0  0  0  0  0  0  0  0  0  0
    4.2300    3.3391  -18.9490 C   0  0  0  0  0  0  0  0  0  0  0  0
    7.3301    2.3399  -22.3045 C   0  0  0  0  0  0  0  0  0  0  0  0
    6.4838    5.2977  -15.3841 C   0  0  0  0  0  0  0  0  0  0  0  0
    5.0834    5.9601  -17.3991 C   0  0  0  0  0  0  0  0  0  0  0  0
    5.3295    3.8816  -22.7200 C   0  0  0  0  0  0  0  0  0  0  0  0
    7.2570    4.7002  -21.3188 C   0  0  0  0  0  0  0  0  0  0  0  0
    6.8264    6.7859  -15.2167 C   0  0  0  0  0  0  0  0  0  0  0  0
    5.4802    7.4183  -17.1289 C   0  0  0  0  0  0  0  0  0  0  0  0
    5.8982    4.5454  -23.9750 C   0  0  2  0  0  0  0  0  0  0  0  0
    7.9112    5.3140  -22.5661 C   0  0  1  0  0  0  0  0  0  0  0  0
    6.8413    5.7140  -23.6062 C   0  0  0  0  0  0  0  0  0  0  0  0
    5.7673    2.7378  -20.5051 C   0  0  1  0  0  0  0  0  0  0  0  0
    6.4309    3.4504  -21.7093 C   0  0  0  0  0  0  0  0  0  0  0  0
    6.1686    4.9819  -16.8574 C   0  0  0  0  0  0  0  0  0  0  0  0
    4.7131    5.0572  -24.8086 C   0  0  0  0  0  0  0  0  0  0  0  0
    8.7322    6.5434  -22.1410 C   0  0  0  0  0  0  0  0  0  0  0  0
    5.6938    3.5142  -16.9130 C   0  0  0  0  0  0  0  0  0  0  0  0
    4.4830   -2.9885  -19.0918 N   0  0  0  0  0  0  0  0  0  0  0  0
    5.4467    3.1131  -18.2853 N   0  0  0  0  0  0  0  0  0  0  0  0
    4.3979    3.1881  -20.2332 N   0  3  0  0  0  0  0  0  0  0  0  0
    3.0282    3.7223  -18.3735 N   0  0  0  0  0  0  0  0  0  0  0  0
    7.6422    2.6256  -18.9307 O   0  0  0  0  0  0  0  0  0  0  0  0
    5.7431    7.6005  -15.7210 O   0  0  0  0  0  0  0  0  0  0  0  0
    7.5091    6.1370  -24.7888 O   0  0  0  0  0  0  0  0  0  0  0  0
    7.3086    5.1473  -17.5907 F   0  0  0  0  0  0  0  0  0  0  0  0
    6.3494   -2.3431  -22.0357 H   0  0  0  0  0  0  0  0  0  0  0  0
    7.4506   -0.4681  -23.2633 H   0  0  0  0  0  0  0  0  0  0  0  0
    4.5530    0.4707  -19.2937 H   0  0  0  0  0  0  0  0  0  0  0  0
    8.3369    2.3815  -21.8635 H   0  0  0  0  0  0  0  0  0  0  0  0
    7.4035    2.4475  -23.3968 H   0  0  0  0  0  0  0  0  0  0  0  0
    7.3406    4.6897  -15.0584 H   0  0  0  0  0  0  0  0  0  0  0  0
    5.6065    5.0560  -14.7660 H   0  0  0  0  0  0  0  0  0  0  0  0
    4.1260    5.7486  -16.9004 H   0  0  0  0  0  0  0  0  0  0  0  0
    4.9728    5.8114  -18.4833 H   0  0  0  0  0  0  0  0  0  0  0  0
    4.6554    4.5938  -22.2214 H   0  0  0  0  0  0  0  0  0  0  0  0
    4.7617    2.9892  -23.0219 H   0  0  0  0  0  0  0  0  0  0  0  0
    8.0403    4.4092  -20.6034 H   0  0  0  0  0  0  0  0  0  0  0  0
    6.5933    5.4437  -20.8533 H   0  0  0  0  0  0  0  0  0  0  0  0
    6.9827    7.0063  -14.1504 H   0  0  0  0  0  0  0  0  0  0  0  0
    7.7453    7.0138  -15.7768 H   0  0  0  0  0  0  0  0  0  0  0  0
    6.3853    7.6631  -17.7042 H   0  0  0  0  0  0  0  0  0  0  0  0
    4.6595    8.0831  -17.4363 H   0  0  0  0  0  0  0  0  0  0  0  0
    6.4583    3.8006  -24.5595 H   0  0  0  0  0  0  0  0  0  0  0  0
    8.5863    4.5721  -23.0175 H   0  0  0  0  0  0  0  0  0  0  0  0
    6.2382    6.5358  -23.1928 H   0  0  0  0  0  0  0  0  0  0  0  0
    5.0886    5.5419  -25.7219 H   0  0  0  0  0  0  0  0  0  0  0  0
    4.0652    4.2114  -25.0824 H   0  0  0  0  0  0  0  0  0  0  0  0
    4.1366    5.7845  -24.2182 H   0  0  0  0  0  0  0  0  0  0  0  0
    9.2062    6.9923  -23.0264 H   0  0  0  0  0  0  0  0  0  0  0  0
    8.0685    7.2813  -21.6668 H   0  0  0  0  0  0  0  0  0  0  0  0
    9.5091    6.2358  -21.4256 H   0  0  0  0  0  0  0  0  0  0  0  0
    6.4699    2.8657  -16.4803 H   0  0  0  0  0  0  0  0  0  0  0  0
    4.7649    3.4117  -16.3328 H   0  0  0  0  0  0  0  0  0  0  0  0
    3.6983    3.3542  -20.9282 H   0  0  0  0  0  0  0  0  0  0  0  0
    2.2311    3.8987  -18.9510 H   0  0  0  0  0  0  0  0  0  0  0  0
    2.9585    3.8222  -17.3810 H   0  0  0  0  0  0  0  0  0  0  0  0
    8.0946    6.8561  -24.5824 H   0  0  0  0  0  0  0  0  0  0  0  0
  1  5  1  0  0  0  0
  1 26  3  0  0  0  0
  2  3  2  0  0  0  0
  2  5  1  0  0  0  0
  3  6  1  0  0  0  0
  4  5  2  0  0  0  0
  4  7  1  0  0  0  0
  6  7  2  0  0  0  0
  6 10  1  0  0  0  0
  7 20  1  0  0  0  0
  8 20  1  0  0  0  0
  8 27  1  0  0  0  0
  8 30  2  0  0  0  0
  9 27  1  0  0  0  0
  9 28  2  0  0  0  0
  9 29  1  0  0  0  0
 10 21  1  0  0  0  0
 11 15  1  0  0  0  0
 11 22  1  0  0  0  0
 12 16  1  0  0  0  0
 12 22  1  0  0  0  0
 13 17  1  0  0  0  0
 13 21  1  0  0  0  0
 14 18  1  0  0  0  0
 14 21  1  0  0  0  0
 15 31  1  0  0  0  0
 16 31  1  0  0  0  0
 17 19  1  0  0  0  0
 17 23  1  0  0  0  0
 18 19  1  0  0  0  0
 18 24  1  0  0  0  0
 19 32  1  0  0  0  0
 20 21  1  0  0  0  0
 20 28  1  0  0  0  0
 22 25  1  0  0  0  0
 22 33  1  0  0  0  0
 25 27  1  0  0  0  0
  2 34  1  0  0  0  0
  3 35  1  0  0  0  0
  4 36  1  0  0  0  0
 10 37  1  0  0  0  0
 10 38  1  0  0  0  0
 11 39  1  0  0  0  0
 11 40  1  0  0  0  0
 12 41  1  0  0  0  0
 12 42  1  0  0  0  0
 13 43  1  0  0  0  0
 13 44  1  0  0  0  0
 14 45  1  0  0  0  0
 14 46  1  0  0  0  0
 15 47  1  0  0  0  0
 15 48  1  0  0  0  0
 16 49  1  0  0  0  0
 16 50  1  0  0  0  0
 17 51  1  0  0  0  0
 18 52  1  0  0  0  0
 19 53  1  0  0  0  0
 23 54  1  0  0  0  0
 23 55  1  0  0  0  0
 23 56  1  0  0  0  0
 24 57  1  0  0  0  0
 24 58  1  0  0  0  0
 24 59  1  0  0  0  0
 25 60  1  0  0  0  0
 25 61  1  0  0  0  0
 28 62  1  0  0  0  0
 29 63  1  0  0  0  0
 29 64  1  0  0  0  0
 32 65  1  0  0  0  0
M  CHG  1  28   1
M  END
> <OMEGA_C>
SPicQEJnCMCREp7BxAHHQDPIqb8LkK3BreHaQELAiL7KKbPBae2lQJKVgz6KJKHBdp+tQK80iL+O
ZKTBluDUQPQ0hj9ylK/BDDi5QL8epT+H9KbBeurOQNh+N0BqfJnB9VuHQAi0VUCTl5fBH5DqQHzA
FUCib7LB5HrPQAuHqUB4JXbBNKuiQDi5vkBIMYvB5YqqQJ5seEB5wrXBPDnoQBFolkDajKrBwHHa
QL0l2UCSd3PBt12vQK5i7UAVCInBa768QNRzkUDlzL/BJij9QPULqkBTh7TBH+zaQEzZtkCN2bzB
DY64QMo4L0BxCqTB08nNQEDTXECvrK3BA2XFQHJrn0D524bBfNGWQGfUoUAUeMbBIrcLQVFj0UDZ
ILHBlzO2QCjoYEDoTYfBzXSPQNJDP8AAvJjBK0uuQDI9R0A2SJLBVLuMQNYJTECK3aHBuc1BQNo5
bkAG/ZLBB430QGwKKEAmcpfBVMe3QBs380AHiXvBlErwQPdhxEBjT8bB59/pQNS2pEDBuYzBHi7L
QIn0FcAlSbDBtGvuQBWr774lG7rB+rGRQP788D6OWZrBImQFQUprGEBn6K7BaOnsQLSjHECVLLvB
LObqQOsRlkBT73DBzWizQBfLoUCYQWzBVgiEQIP0t0D7M4fB2CCfQCL3uUDg3ZPBN/mUQBUAk0Bz
xbHBfF+YQMNOP0DCLLjBI6UAQe4XjUDc06TBDPzSQPAyrkCR06bBA3LfQPEz4EASaGLBatn3QLlw
4ECbbXzBRVTMQAM49UAhoo3BPRqVQE9UAUF8fYvBjarOQPw8c0DiecTBqmEJQQVPkkDwI7jBQJ/H
QG0l0UDxirnB89WiQC5XsUBoxs3BERaCQBbEhkDaqMjBAF+EQL0auUDKvsHBkUwTQSvB30D4NbjB
fhgBQVQA6UCGVa3BZiUYQaeLx0C3Z6vBHQnPQGVoN0Cj14PBJHqYQB5ZWkCZqYLBT7FsQI+rVkDs
bKfBGsoOQAGFeUC7m5fBn1c9QKKedEBHDIvBSYMBQSpl20DAqMTBf3GgQO8MCcD8GJ7Bsb3IQF7F
p7+1xq3B4ZDbQB48db5+crPBXZqnQNvbgD5NL6HBPtWvQKAyiL+gf6TBGALVQO8eiT9b0a/BTem5
QKjzpT+UDKfBBCjPQNxlOEBrfJnBQH6HQEA1VkBVk5fBBNXpQBS0F0CHwbLB0FCeQBhNv0DAForB
JSDtQHBFrEAA8YrBzXypQEU2ekBftrXBnd7nQOHPlkA/rqrBLsCrQAlT7kAUuojBZyr3QH4b3EDF
i4nBDQy7QGHzkkAEw7/BRkD8QD/HqkBYsrTBnnjZQCsnuECg0LzB1qq4QBaGL0A/EqTBfTfNQBEF
XkCVxq3BA47BQLLcoECBpYXBuLqUQEnNo0BGOMbBjYYLQeLA0UB/S7HBSP61QDwuYkBzG4fBngiU
QGhvQMCSrZjBddGuQEDES0BUT5LBE6SMQH3oSkD51aHBfYVBQIaJbEBO8ZLBAZj0QFdJJ0C8bpfB
spDUQPN+9UAq543BXR/uQE1BxkAIU8bBK//EQB/9pkCb1HXBalnNQGTDFMBZhrDBvLvuQBDq2r46
errBibSTQC9Z5z7qTZrBaDIFQcP9GkBMcK/BBjnrQFnvHkCkgLvBc0yAQNW7uUBXtYXBfF2ZQEGQ
uEAUo5LBbJzrQCu2pEAZh5PBAlEDQdFFmUC9K4fB3AyUQL2bk0CslLHBzkuXQHMzQUD3J7jBt6EA
QZtGjUCDEqXB3OTSQPyCrkAq1KbBhm6TQOyXAUHGXozBPJOuQFjF9UCzJ4DB++P6QChb40Au/IDB
GYQKQbHX40BkyI3Bh53MQMq7dkAKmcTBcrUIQeUNk0AhebjBqXDGQCZB0kCcUbnBOFGgQB25s0CU
g83B9pp/QHTpiECpbcjBNaKCQAnUukBvVsHBGuoSQetZ4EA6ZrjBJCEBQflV6UBfVq3B+B0YQcJz
x0A3tqvBlGfQQEbnOkCV/IPBbKiYQEV8VEALjoLB+tprQLmfU0BmXafBW7gNQG3VdEBbhpfBzHI9
QLBYdEDKBIvBVX8AQWQo3UAYrcTBt0ynQH0QDsCQWp7BXKzNQOSip7+XAq7BFHPeQHzaVL7ssLPB
7A2rQAiiRD7RLqHBzgG1QALojb9toKTBmBXWQB1Niz8K+q/B5lC7QPNUoj96FKfB3rnOQIIXOEBN
j5nBnx2HQBa9VUAdiZfBKs/oQKqPGkBF9LLBNt3qQMWLrkCm04rBAAG9QCI4rUAEo3TBvK2mQPAk
eUAzdbXBOg3lQIehl0Aro6rBe68HQRmLmUDvYITBQPjiQF19mEDhnWjBDMS2QMQ9k0Dwhr/B1AX4
QFCyrED4srTBjEDUQKI1uUCporzB6g+4QKCELUB6DqTBhl7LQAZaXkBQva3B4F++QLiLoUCJS4bB
vWyPQLExo0DSu8XBgMkIQXeE1EATU7HBHEm1QOyKYUC2T4fBbDycQBSdR8BSG5nB+E2uQHa6SUDZ
WpLBNoGLQMw2RUA1s6HBGGJCQFqab0CdwZLB5FT0QDbmJ0A2l5fB1Z0FQSzHpEB5Y3LB9qfnQPRU
yEByNsbBtsufQKGRuEBzh4vBE6zTQAYJFMAb1bDBxXbxQG00ub7TzLrBH3CXQNOqtj5WMZrBnc0E
QVRVIEBT16/B5CfpQC1YIkAms7vBIDbuQBaL0UBjZIrB1RLtQHkzpEBROJPBZs2eQBOhoUC+sm3B
Tta+QMgz0EAK6nLBhfiQQCpRkkAGKrHBQRWVQE1VP0Bi4bfBzCn/QCWZjkBkL6XB4K3PQAh9rkCb
m6bB7MkGQSohbUCYQYXBmS8XQaX6pEBwaYfBlaXiQD8lo0Dj11fBJ7ffQFPsakCZOWnBHJ/IQMLC
eEAVg8TBqeEGQTPmlUAroLjBUK7AQHOT0kCa/bjB9eaZQJ62s0C2DM3BkDN2QL3Ih0DY5MfBvTJ6
QFiAuUDlssDB2qgPQfLi40DvdLjBwzD8QNot60DpOq3BVb8VQfP6ykB13qvB59nQQKiqPUDCLITB
+JSYQHKaUUCbn4LBtfVnQK83SEA5HKfBE4UNQEG3dkBhLZfBTpNAQAgie0D044rBQ/T5QIm830DV
mcTBz0OoQIorD8DciZ7BPSbPQDF2p78EDq7Bkg7gQHSSSr40m7PBcMeqQCztMj43Y6HB9p61QNpn
j7/By6TBvPzWQEHwiz8n4a/BPiu7QOQroT8OKKfB6oHOQKJGNkBZhpnBqESHQJ5iVkCea5fBBIjp
QJKMG0AMrrLBakzlQKx/rkBN6ozBw9vIQD4yqECN9HPB+z6mQPCndUAUprXBkafiQJthmEA3mKrB
DwTzQChp3EAtSorBx63XQFGj1kArinDBz422QF3xkUAsqb/BqOz1QH3IrUCuirTBFF/SQIoLuUA+
pLzB4J+3QGylLEATB6TBJ7jKQFbvXUBstK3BuuG+QCvXn0Cz4IXBKV+PQO9NoEBuKcbB+fkGQUpr
1kAnC7HBqDG2QEzgXkB6GofBwZKdQL7fSMARRZnBQFiuQNAkSECkOpLBeDKLQBZgRECrkqHB8B9D
QEL4cUBVspLBuGD0QDjeJ0CTp5fBJBz8QJvR30BwCn7BEQbmQGvoyEArG8bB9GCbQCOWtkDPu4jB
9rTVQDO4E8Bm4bDBpLHzQHrArr5tn7rBkmaWQFFhqD7rhJrBv+YEQahbIkAwRa/BaRPrQPCOI0AJ
arvBjuPbQFzfrECfYpXBsT8AQR/jmEAvf4vB2FbiQE1JkkDCt27BAterQBBqokAKbGrB6laPQHTT
j0DSg7HB3viVQEB+OkBSI7jBYX/8QLR7kECY9KTBtBfMQEuhrkAjw6bBa/AHQeqJ5EAr5o7BGA7Z
QOCh8kCCZozB81y9QN2R7EA8lnTBAr/gQPkg20C8rl/BG8PJQBFId0C6fMTBSlUGQeSal0A+VbjB
mZe9QBan0UA+F7nBJw2aQEoPsUACbc3BKaZ4QGYehEBPbMjB9ll3QIIDtkAlSsHBFvkNQc0a5kAs
GrjBVoD3QJl77ED1Gq3BjMsTQYG5zUBCa6vBkyvSQNsOO0AdMYTBAfSZQHq2TUD+ToLBuMZmQGBv
RkBw6abBMlQOQCMoeUDXIJfBfIlBQO2sfkC924rBRkX3QPv84EAkZcTBzAOnQBkGF8CJh6DB0w7X
QGSlqL8uv63BugLpQABlL77glbLB5SqrQGCjuD10+KHBR2S4QJozmL/ocqXBPqnbQLg9jT+JOK/B
1ZG8QH7Rmz/EFqfB2xHOQGT5PEBh7ZnBlD6HQCXWXkB7X5fBz+TpQGiRH0BHZLLBd/jKQEa0yEDx
6JDBav8DQep8nkDAyIfBiiuhQB99Y0BI5rbBEi3XQHagm0DcEKzBrEnrQJaK7UBWFZLBWu8RQUBO
xkDNdonB2NOuQKrniUBkN8HBpBnnQBabskDwRbbBVPLBQNCBtkByeb7B44O1QIbxKkCpJKTBk+PF
QPveW0BsYK7BpSPXQE58qUAyr4fBVmSHQAfBjkA4mcjB91f4QKJa30C3JrPBwci6QE/+f0AM24fB
fNmYQPM1VMDpiJzBcn+wQP9wX0Bnx5LBHeuIQEpVPkBUGKHBjh9DQGv0eUA0gZLBEQ3zQOEzJ0AS
NpjBawsLQc6L3EDj+JLBh0/RQAZEykDqDcjB7WrPQA42vkDyl3zB5MPgQGM0E8BlY7DBWWEAQcrT
i74bz7jB/kyUQJfASz4KjZvBlEIEQWWiL0D6i67B1FXtQKFTJEAbIbvBNTKrQDJM1kBSPY/BD+bJ
QIuptkAadpjB5yMHQXy1h0B4To7BNUYIQSa4j0BzFoDBJSyGQHf9gkDGQLPBb+SWQMeXIkCkJLnB
jvTxQC0pmUBMY6bBj1i9QOHBrkCVeqjBtazjQFERAEEWT5nBJVfpQDw5AUEvBYvB3mAQQZuh20Cd
gYLB/MAiQe+XvEB3X4rBMkrHQInFbUA6ZMXB5ZUAQd/Sn0DO3bnBPYuoQMQ1ykDo47rBYrWQQJTU
n0DE7s/BnRR2QBzDXUDxssrB2b5cQGT+oECKacTBouIBQRQC8EDEW7rBBJLeQBob8kCsaq/BJHgJ
QT2920Alda3BdvPLQM9VTUBrgYPB2IGcQIsbh0D2u4PBVOVeQO0wNEDexKXBzHgLQDlHdUB0aZbB
C55EQCUPiUBiGYvBjALdQLqH5UCzZcbBtayWQLhNEMAdr6LBuMXKQOClpr9xXq/B5BvhQIA5Sb47
p7PBbe6kQIAiKz7+yqLBXM+sQMDDj7+U+KbBU/vYQCCoiz+Qm6/BFRK7QHDUoD/VR6fBBELPQMAK
PEBNW5nBN+6HQCBEXUCPd5fBGf7rQPBUHEBvNrLBaz/IQEC7vEDXYXbBz7yxQPB2y0D3UI7B0nan
QLg2cUC4cbbBXmbhQGxTmkCv66rBxQqaQDyAyEC0kG/BX8WEQKS11kDM/InBlvm3QOQEkUDqb8DB
rnTzQCiusUA34bTBoz7PQCzaukCQF73BLwm4QJiuLUC2/KPBYEDLQICFXkA05K3BISnKQNSRq0CZ
4YbB3p+RQBQ3m0DD2cfB9IUEQeDL20A8PrHB2RW4QKjKeUArXIfB3q+EQKB2S8B7NJ/BbSiwQKgb
W0DlZJLBUKOLQBgfRkAAhKHBRtxBQNDWcUC/0pLB7Mf0QPAwLEASQ5fBGc6HQPDA5kCwe37BF/vg
QDTEzkBaZcbBKPfzQOS7qkC++YnB95DQQMakEsAhhLLBijb4QGqDrb4b+rnBZoCOQKJGoD4EU5zB
7JAFQSNBJEAaO67BEQ3wQL6hI0D857rBj3XcQG5z2UB4L3XBwoXUQNTmo0BnhWvBN0SuQFvYvEAz
RpbBH47EQFgX6UC6/I7B4U2OQG/yi0DyorLBAeKZQIfKM0A5FbnBft/7QBq1k0CgXKXBNdfJQAQ+
r0DZ/qbB8UyGQOxcq0B4S2/BkbKaQPXT1kAOfl/BRGxsQHpI70BlIY/B2VlhQHTPuUD9CorBNKjO
QA3feEAPxsTBJdMFQT8lnUAUsLjBlb+3QAlI0EC0UbnBhwqdQFOIrEDl9c7BazGCQOZfekBTV8rB
KsB0QLwqr0BuhMPBTv8KQVSp7ECdQbjBgUnxQEg68EAMPK3Bo5oRQTVy1EBQpqvBXkvPQMOeTkA/
iIPBAbWZQMLsd0Cw64LBsxtnQDA2RUA0yKbBKzMMQNVab0AKLJfByk8/QA6TgUDDIIvBCUHvQD5h
6EDOY8TBMSSfQCsOFcAc96LBF+fRQNT4or++c6/B8S/mQBSuAL5wprPBLRuoQOCT7j3eEqPBCgyz
QGDTk79sMKfBdAzbQB8ykj9gq6/BPge8QILFnz/GhKfBMB7OQAuGOUDMeJnBdS6HQF+JXUB4XZfB
upvrQGytIUBAMbLB/LLWQM3zt0ALeHfBYznQQJ1fwkBAmo/BrvGkQN9zbkC0jLbB8SXcQKwBnEDG
/qrBNMH0QDVp30AXRXfBadLuQO+r6EB0zI7BeHa0QOH6kEDgdsDBZLztQP13tEASyrTBGmHJQAT6
u0BECL3BnaW2QBRBLEBqDKTBaNHIQHCdX0Cg7q3BT/zYQPPuoEBKsobB7N2NQNxUmUCe7cfB3WgA
QfGP30DE87DBgGi4QE46dkAYPIfBb/COQD5zUsB6i5/BeZCvQLBpWUCoYJLB+OqJQNVgQUB8RqHB
dZpCQIWHeUAwrJLBxsfzQG1dKUCim5fBZa3qQDcJ/EAiZYTBl1PaQIIj0UA8QMbB/aoAQY7/kEBm
2IfByvTZQDfvD8B2j7LB2Qb+QDBqYr7W27nB0Q6RQN0wXT5ir5zB1SUFQaEhLUBSIK7B/MzvQNm1
KUAy37rB0IzgQLWcoUCBymrBcaG1QCKAwkDzinTB8xyvQEHrzUAN1o7BNm7UQEP/skDJcpfBS36K
QIziiEA8x7LBzFyZQPutL0AwSbnBw3b2QLQEl0AMSaXBrxDDQMqOr0AuOafBc9fwQC6c8ED8CWjB
PQwLQauS1EAU2XjBn/gHQYWt3UA484/BxL3mQFclAEGuAJXBClbMQASTe0DAzMTBo5MDQelZoUBq
j7jBxKuwQDIA0EDLQrnBSIeYQLeLq0CR+M7BtTSAQBYydUBLhsrBrNFqQOXIq0BzmMPBY7wGQSdR
8UBx3LfBFrLnQDyZ8kAPCa3B5GsNQRNh2UBUO6vBUYLFQELvP0ClsILBvyOaQM+GhUDrkoPBuR5i
QJ8jO0CkQKbB6SEMQMz5eEA535bBbaJCQF4Zh0DuGYvBeR3nQEBr60DsKMTBwkGeQE5LFMD4HqPB
isTTQDrlob8V5K7BuufoQOz18b1m1rLB+PumQO15BD5WOaPBPgazQDhukr8+GafBwKncQMxzkz9T
Ha/B6oq7QMZfoT/KfqfB3hbNQJRfN0Auf5nBRr2GQPyUXkDbW5fBoOjtQL5cIkCNarHBEnXnQMay
bUD6rmzBcsn/QBi3l0C0j4fBfN+oQGGyckDWRrbBdLHeQJ89nEBVwKnBR64LQc5EZ0C6G2bBrkgX
QS4Kk0D68oPBpN+6QDRGk0Bo2r/BsiDyQH9JtUCeQrPBOKPPQEiwvUAg9bvBYiy2QErgLEBT86PB
ruLKQC8xYUD7V63BMuHjQCtFZkDsmILB+gyWQHuAnEDjyMfBnYgCQevf30C7Ea/BONy0QK/Ea0DM
oIbBZlKNQEKhUcB56Z/BWCyvQPIgW0BtW5LB1KuJQAf8Q0DHVKHBlURBQEzReEB3nZLBehPzQLNZ
JUD7ipjBHU0YQctHlEBkyXDBQN7iQAj30kCh38TBwFDzQB1uFkA9p4TBPp7cQOp6D8A91bHBph4B
QU5XXb5iqbjBkaSOQEVnbD4EJZ3BaxQGQevnLEAzHa3B0irzQJXaKkBvDbrB903VQAKLOUD9G2XB
TGzaQOHUlUAmdWfByGHzQBDltkBl54TBFTT+QETPlUDqVpDBXC+OQC5pi0CGvLLBtg+dQMTeNECN
RrnBxgr4QIP6lUCH2aPBeXfFQJLVr0C+DabBBwkNQc/Tb0ACsVTBpNQRQanCJ0B/kGrBQ7IdQZSu
aECx0obBXtQgQXxzrUBzRofBImLTQBLqf0CT7MPBogUGQV0hokChzLbBJXK2QBbq0UCldrjB7W2i
QCjlrkCrns7B+42IQOkqfEAup8rBDOl5QH4Wr0BfucPBSHwJQZvr8UAhx7XBBZLrQCvz8kCNUavB
VQ8PQeMF2UAvIanBQM2hQNtbPEDlMoLBQMaoQF81lkDi5ITBDydiQJEEQEDNbKbBgtkKQJgdeEAj
05bByu9AQPwuhkBh/4rBlJ7vQF/u7ECSicLB

> <OMEGA_E>
A7CGPxwghz83S4c/AauHP4jsjj8sL48/6/qPP4JNkD8=

> <OMEGA_NBR>
     77194

$$$$
298707
  -OEChem-04172616093D

 67 71  0     1  0  0  0  0  0999 V2000
    6.5647   -1.3391  -21.4010 C   0  0  0  0  0  0  0  0  0  0  0  0
    7.1398   -0.2713  -22.1196 C   0  0  0  0  0  0  0  0  0  0  0  0
    5.2794    0.2365  -20.0264 C   0  0  0  0  0  0  0  0  0  0  0  0
    5.7475   -3.4443  -19.4494 C   0  0  0  0  0  0  0  0  0  0  0  0
    3.7702   -2.1255  -19.0076 C   0  0  0  0  0  0  0  0  0  0  0  0
    3.9629   -4.3166  -18.2209 C   0  0  0  0  0  0  0  0  0  0  0  0
    5.6353   -1.0958  -20.3514 C   0  0  0  0  0  0  0  0  0  0  0  0
    5.0487   -2.2268  -19.5980 C   0  0  0  0  0  0  0  0  0  0  0  0
    6.7752    1.0459  -21.8023 C   0  0  0  0  0  0  0  0  0  0  0  0
    5.8443    1.2811  -20.7723 C   0  0  0  0  0  0  0  0  0  0  0  0
    6.4775    3.1561  -19.3078 C   0  0  0  0  0  0  0  0  0  0  0  0
    4.2900    3.7669  -18.9965 C   0  0  0  0  0  0  0  0  0  0  0  0
    7.2442    2.3768  -22.3363 C   0  0  0  0  0  0  0  0  0  0  0  0
    4.9871    3.4615  -22.9202 C   0  0  0  0  0  0  0  0  0  0  0  0
    6.7752    4.8211  -21.7279 C   0  0  0  0  0  0  0  0  0  0  0  0
    5.3949    4.0767  -24.2849 C   0  0  2  0  0  0  0  0  0  0  0  0
    7.2257    5.4163  -23.0860 C   0  0  1  0  0  0  0  0  0  0  0  0
    6.0363    5.4771  -24.0842 C   0  0  0  0  0  0  0  0  0  0  0  0
    5.6732    2.7656  -20.5326 C   0  0  1  0  0  0  0  0  0  0  0  0
    6.1663    3.3979  -21.8845 C   0  0  0  0  0  0  0  0  0  0  0  0
    4.1416    4.1759  -25.1866 C   0  0  0  0  0  0  0  0  0  0  0  0
    7.8151    6.8264  -22.8447 C   0  0  0  0  0  0  0  0  0  0  0  0
    7.6483    5.9881  -18.2482 C   0  0  0  0  0  0  0  0  0  0  0  0
    8.4538    4.2013  -16.5847 C   0  0  0  0  0  0  0  0  0  0  0  0
    5.9198    4.3851  -17.1354 C   0  0  0  0  0  0  0  0  0  0  0  0
    7.2843    5.1517  -16.9899 C   0  0  0  0  0  0  0  0  0  0  0  0
    5.1965   -4.4673  -18.7632 N   0  0  0  0  0  0  0  0  0  0  0  0
    3.2470   -3.1703  -18.3320 N   0  0  0  0  0  0  0  0  0  0  0  0
    5.6066    3.8832  -18.4991 N   0  0  0  0  0  0  0  0  0  0  0  0
    4.2975    3.1349  -20.1516 N   0  3  0  0  0  0  0  0  0  0  0  0
    3.1308    4.2288  -18.3790 N   0  0  0  0  0  0  0  0  0  0  0  0
    7.6461    2.8566  -19.0970 O   0  0  0  0  0  0  0  0  0  0  0  0
    6.4974    5.9668  -25.3470 O   0  0  0  0  0  0  0  0  0  0  0  0
    7.1334    6.0398  -15.9709 F   0  0  0  0  0  0  0  0  0  0  0  0
    6.8332   -2.3550  -21.6503 H   0  0  0  0  0  0  0  0  0  0  0  0
    7.8537   -0.4652  -22.9065 H   0  0  0  0  0  0  0  0  0  0  0  0
    4.5886    0.4429  -19.2223 H   0  0  0  0  0  0  0  0  0  0  0  0
    6.7283   -3.5576  -19.8872 H   0  0  0  0  0  0  0  0  0  0  0  0
    3.2082   -1.2076  -19.0971 H   0  0  0  0  0  0  0  0  0  0  0  0
    3.5323   -5.1446  -17.6775 H   0  0  0  0  0  0  0  0  0  0  0  0
    8.2252    2.6384  -21.9129 H   0  0  0  0  0  0  0  0  0  0  0  0
    7.3140    2.3494  -23.4337 H   0  0  0  0  0  0  0  0  0  0  0  0
    4.1789    4.0717  -22.4907 H   0  0  0  0  0  0  0  0  0  0  0  0
    4.6213    2.4388  -23.0947 H   0  0  0  0  0  0  0  0  0  0  0  0
    7.6472    4.7621  -21.0600 H   0  0  0  0  0  0  0  0  0  0  0  0
    6.0176    5.4839  -21.2842 H   0  0  0  0  0  0  0  0  0  0  0  0
    6.1297    3.4156  -24.7674 H   0  0  0  0  0  0  0  0  0  0  0  0
    8.0101    4.7728  -23.5111 H   0  0  0  0  0  0  0  0  0  0  0  0
    5.2723    6.1536  -23.6734 H   0  0  0  0  0  0  0  0  0  0  0  0
    4.4211    4.6115  -26.1573 H   0  0  0  0  0  0  0  0  0  0  0  0
    3.7220    3.1712  -25.3429 H   0  0  0  0  0  0  0  0  0  0  0  0
    3.3901    4.8156  -24.7007 H   0  0  0  0  0  0  0  0  0  0  0  0
    8.1382    7.2583  -23.8034 H   0  0  0  0  0  0  0  0  0  0  0  0
    7.0478    7.4718  -22.3921 H   0  0  0  0  0  0  0  0  0  0  0  0
    8.6781    6.7519  -22.1668 H   0  0  0  0  0  0  0  0  0  0  0  0
    6.8060    6.6463  -18.5078 H   0  0  0  0  0  0  0  0  0  0  0  0
    8.5389    6.5984  -18.0375 H   0  0  0  0  0  0  0  0  0  0  0  0
    7.8580    5.3117  -19.0899 H   0  0  0  0  0  0  0  0  0  0  0  0
    8.1661    3.6245  -15.6933 H   0  0  0  0  0  0  0  0  0  0  0  0
    8.6695    3.5114  -17.4139 H   0  0  0  0  0  0  0  0  0  0  0  0
    9.3504    4.7981  -16.3615 H   0  0  0  0  0  0  0  0  0  0  0  0
    5.9425    3.5218  -16.4541 H   0  0  0  0  0  0  0  0  0  0  0  0
    5.1134    5.0695  -16.8333 H   0  0  0  0  0  0  0  0  0  0  0  0
    3.4828    2.9333  -20.6953 H   0  0  0  0  0  0  0  0  0  0  0  0
    2.2417    4.0865  -18.8142 H   0  0  0  0  0  0  0  0  0  0  0  0
    3.1872    4.7029  -17.5004 H   0  0  0  0  0  0  0  0  0  0  0  0
    6.8908    6.8235  -25.2303 H   0  0  0  0  0  0  0  0  0  0  0  0
  1  2  2  0  0  0  0
  1  7  1  0  0  0  0
  2  9  1  0  0  0  0
  3  7  2  0  0  0  0
  3 10  1  0  0  0  0
  4  8  1  0  0  0  0
  4 27  2  0  0  0  0
  5  8  2  0  0  0  0
  5 28  1  0  0  0  0
  6 27  1  0  0  0  0
  6 28  2  0  0  0  0
  7  8  1  0  0  0  0
  9 10  2  0  0  0  0
  9 13  1  0  0  0  0
 10 19  1  0  0  0  0
 11 19  1  0  0  0  0
 11 29  1  0  0  0  0
 11 32  2  0  0  0  0
 12 29  1  0  0  0  0
 12 30  2  0  0  0  0
 12 31  1  0  0  0  0
 13 20  1  0  0  0  0
 14 16  1  0  0  0  0
 14 20  1  0  0  0  0
 15 17  1  0  0  0  0
 15 20  1  0  0  0  0
 16 18  1  0  0  0  0
 16 21  1  0  0  0  0
 17 18  1  0  0  0  0
 17 22  1  0  0  0  0
 18 33  1  0  0  0  0
 19 20  1  0  0  0  0
 19 30  1  0  0  0  0
 23 26  1  0  0  0  0
 24 26  1  0  0  0  0
 25 26  1  0  0  0  0
 25 29  1  0  0  0  0
 26 34  1  0  0  0  0
  1 35  1  0  0  0  0
  2 36  1  0  0  0  0
  3 37  1  0  0  0  0
  4 38  1  0  0  0  0
  5 39  1  0  0  0  0
  6 40  1  0  0  0  0
 13 41  1  0  0  0  0
 13 42  1  0  0  0  0
 14 43  1  0  0  0  0
 14 44  1  0  0  0  0
 15 45  1  0  0  0  0
 15 46  1  0  0  0  0
 16 47  1  0  0  0  0
 17 48  1  0  0  0  0
 18 49  1  0  0  0  0
 21 50  1  0  0  0  0
 21 51  1  0  0  0  0
 21 52  1  0  0  0  0
 22 53  1  0  0  0  0
 22 54  1  0  0  0  0
 22 55  1  0  0  0  0
 23 56  1  0  0  0  0
 23 57  1  0  0  0  0
 23 58  1  0  0  0  0
 24 59  1  0  0  0  0
 24 60  1  0  0  0  0
 24 61  1  0  0  0  0
 25 62  1  0  0  0  0
 25 63  1  0  0  0  0
 30 64  1  0  0  0  0
 31 65  1  0  0  0  0
 31 66  1  0  0  0  0
 33 67  1  0  0  0  0
M  CHG  1  30   1
M  END
> <OMEGA_C>
ShLSQP9mq78oNavBPnnkQGLkir4G9bDB5fCoQMolcj4hNqDBp+u3QCJvXMBVmJvBsEtxQDkICMCp
D5jBTqB9QLchisBvxJHBc1S0QDBDjL+7z6LBRI+hQIWDDsClyJzBf87YQBLghT8ya67BQQS7QK76
oz+jLabB70fPQE3+SUBxdprBvUeJQKIVcUDX+JfBr9DnQDUdGEC4sLLBNJafQLOIXUCjXLfBUc7Y
QHRGmkDA0q3Bv6KsQIl0gkBiR8LBKDnnQJFSrUAhsLjB+yjBQGJEr0CDrMDBqYq1QO7+MECrQqTB
hVLFQK52WUCLE6/BlIeEQEmhhUA1fsnB5xT6QBhy2kD6wbbBz770QOOev0A7/JHBlEIHQW5xhkCC
rYTBG2+9QNRSjEA8FYnBuBjpQKnapEBS64fBzUmmQBL0jsAQG5bBfM5PQCXmSsD3p5LBA2mzQFKG
eEAv/pPBzoSJQMuiSEB0NqHBSV5IQLlSh0BHCJPBdKz0QGPSNkC9xpjBUOrPQNfvvkCTxsrBm0Tk
QFZGwUDiiH/BNqnaQCO5FsC+M63B31H7QCMq7r5wQLfBz9WSQDTH4j5Zx5nBF07XQPCvY8DpGJ/B
X1NNQBWTmr/dxpjB2BBiQNqgpMBya43BXpoDQUbcKECmTa/BYQzqQKRcFkBIeLvBmLmFQCtLgkD4
7LPBuuGTQPYVHEDuwbjBv7X0QPlimEDUeqjBlZDAQPN7r0ASRqrBcybEQG6YWkC0I8bBSSkAQSm7
mEDDFrzBqLaoQAnqxEAwY73B4HmNQAeRk0AaQtHB5TRuQKf0SkBIvsrB5/ZYQEYZmkAFm8XBRDYC
QeRD6EBTbb7B7IfhQPEY70D0IrPBadkKQa4P2ECDVbHBDcvZQIGu1EAQEJTBcJ8IQRwm00DjTJDB
YHT7QL75qUAZuJjBfKgCQTT4Z0DxF3vBLbYKQZO7YECgT4vBbJsVQSeKmUBq5ILBASm+QPZkYUDz
oYPB2aCjQG45okCDqobBm+VeQKG7O0D5j6XBj3gPQKjEgkCFg5bBWvpLQIp+lkDGAIzB0oHcQIJa
2kCw18nBsAjSQMhDrL+yJavBOYbkQHmKj7646LDB7USpQLg5cj6ZH6DBno23QAoCXcAIlZvBlM1w
QLE/CMDnDpjB8HR8QJVhisBE05HBH2C0QNSxjL+CvaLBkV6hQKnTDsCcv5zBtxHZQGoPhT/XYK7B
WYi7QNb1oz/oF6bBAefPQMVHTUB9yJrBEhiJQD/IbEAiwJfBb9/nQOmXF0B7xLLBK5yfQHejXEBa
dbfBhozYQHBzmkADAK7BgbisQGXlgUCTY8LBmFXnQCz0rEA62rjB9ljBQEO7rkAM2MDB0rO1QExk
MUD7VqTBZFDFQPUjWUCYMK/BD6GEQHYJhUDXmcnBW136QJcL2kDL+rbBEE/iQHtRDkDuIoLBHjzl
QO7GikAjtm7Bt3q9QOBKjEAPEYnBy2vkQGvJcUAs24LBr72lQNJEj8C4IpbB3elOQGc1S8Dqs5LB
mZ+yQCnqbEDbT5PBi5iJQMz8R0AFOqHBM4NIQOGkhkDK+5LB5cr2QF4KRUCDCprBnj/QQLQjvkCB
88rBo8wEQfHahUCMiYfBRX/aQE44F8BgJK3B50v7QOG09L6KNrfB0D6TQO905D4GrpnB9PTWQOxo
ZMCcEZ/B7wxNQLC3mr/swZjB6JpgQOXjpMDygo3BI6YDQejFKEBNb6/BX/TpQFczFUAIjLvBuKyF
QIPRgUAVDLTBQQOUQPISG0Ab07jBITP0QML6mEAfkajBNAXAQL2xr0DqlqrBQzDEQA5IWUDUO8bB
3TAAQQodmECHLrzBlOqoQOeBxECZmr3BxJWNQADjkkAKYNHBPlduQHDFSUCj1MrBVDVZQH2RmUC6
ucXBnYECQTiO50BEqL7BUc/hQPrw7kDucrPBouYKQc2z10CGf7HBCbHhQJwb5j+NP4rBIpb+QNjH
7D+gqnvBNijFQFmN9j8monvBlLrmQLztrUDXQG/BKRDIQI3LgEBaOGbBC78AQVi0fEDUQGbBPUah
QMOvikAm0YPBYtbEQHXzrUCV3orB6UpfQKnjPECUsqXB9FUQQASthEDdyJbB9MRLQFhJlEAqwovB
S+PcQKuM2UDiC8rBEWjSQC6Bq78BG6vB6OHkQP5qi7641rDBEO6oQH5ocT7PL6DB+fC3QNiCXMDp
iZvBfBJxQDhACMCTGpjBSjR9QPxAisC6z5HBmnO0QCBhjL/zwaLBQpOhQCyfDsAawpzBVBLZQFq1
hT9GVq7BSRG7QKDuoz+TJKbBsE7PQH0bSkBneJrB6jmJQIzIcEBl6pfBXxzoQPDxF0DBnrLBIwyg
QGugXUD7XLfBNDzZQKsxmkAzwq3BPlytQC18gkCpQsLB0s3nQKtKrUBImbjBeeLBQCdHr0CNn8DB
3Y21QEsTMUDOPaTB4ZvFQK9rWUAwCq/BO2uFQMWthUA+h8nBOJ/6QG5o2kDQoLbBvLXrQM+kuUCG
n3nBjF/vQBU1xUANuJDBjFK9QIt4i0DH44jBwC3pQDFSo0AQy4fB8zGmQHAGj8DOFZbBQ11PQG0u
S8Bku5LBb0+zQBK/d0Af4pPBtomJQN7uSEC5M6HB5y9IQHEmh0DH/ZLB+gT1QPIROECYCpnBEtvQ
QB32vkDss8rBCP8EQd3IhkBxAIjBABrbQF7EFsAvE63BOub7QIKk7r4zGLfBW66SQBVQ4j7XyJnB
OGzXQPWuY8Ak/Z7BSRRNQKMUm79N2JjB8nZhQIrGpMDDfY3Be70DQSy4KEAVOa/BbmjqQOYMFkDv
ZbvB5SeGQMFigkAc9bPB+U6UQHE5HEBOxrjBlRb1QHUsmEDMZqjBLAjBQJhzr0AINqrBSvLEQGCe
WkBZFsbB6XsAQVy7mEBO+7vBA2WpQLzvxECkXL3B9oqOQMqak0AiSNHBTwBwQFYRS0Cny8rBWpla
QCQqmkCsrMXBlIoCQchJ6EDVR77BRALiQLsG70CHBbPBlhMLQSH910ChLbHBkVjnQEjUoUD52GzB
VpYFQTUFyUCD2XfB1GrSQJwF0kBqgHjBdZ3tQLGPtUDvlpjBhRLWQDmP3UDfHJDBLmoHQdKO1EBs
yY/BfsC9QFNoX0B6e4PB+8mjQBGdoUAnbobB2gFfQEuOPEDDlqXBo2QPQPHRgkBLhJbBv6JLQNQU
lkDA7YvBtnLdQNhd2kDQv8nBpC3SQEDzq7/SLavBGbDkQD3YjL7O57DBHPmoQLC5bT5uM6DBA8K3
QBDMXMDpl5vBZwlxQOI4CMC7FpjBERF9QKM8isAGy5HB91i0QIrWjL84zaLBKnehQNzNDsCVypzB
GwvZQChyhT/6XK7B7SW7QAR/oz/qJKbBylzPQO3QSUC3dJrBmSaJQLMOcEDb5JfB9CHoQCv7F0BO
nLLBJPWfQEhEXUASWbfB89rYQANamkB4vK3BszWtQPA/gkCkQsLBrrvnQEUbrUA2mrjBatrBQOEE
r0ASqMDBB5m1QAXGMEDeOqTBD4zFQC5PWUCKBa/B4zSFQDp+hUB/gsnBwq/6QKM02kCXtbbBFhMH
QRpzhEA+/4TBm5vnQKVvyEDtDIDBV2+9QCs6jEA8+ojBrKPpQK7Wo0A+WIjBygimQPocj8DxHJbB
v11PQK4LS8BWsZLBOiazQL2DdkCh05PBDIiJQARWSEASMKHBnClIQGUQh0BO/5LBbG31QPhYOkCu
H5nB39nQQFGHvkB1wMrBBvjyQDcUtkB0/pHBKsHaQB3/FsBmLa3BKZn7QA4V8L6EL7fBs8uSQA94
4D5/yJnBqinXQIgkZMDKFJ/BHyhNQJ3bmr8W0JjB2F1hQMu2pMCwc43BVbsDQd21KEATMK/BJ4Tq
QB9OFkBLY7vBhQmGQJcvgkDh8rPBNUaUQC7NG0ASvrjB1H70QP2nmEDCTajBumHAQPuRr0CfSqrB
m7bEQM4CWkBgGMbBN2sAQbVTmEC27bvBBmOpQLPFxEBtbL3ByUqOQF9gk0BURdHBNnBvQLS8SkBs
w8rBIlBaQCoJmkDYpcXBMasCQTzH50A8Yb7BBBfiQCkL70DkLLPBKQ4LQdPe10A4ObHBWw8IQcg3
VEBK0IrB/mUWQRy/lUCszoTBlKADQbbFbkDKBHrBHgnOQOXv3kAURYLBZefgQNsIu0DnLHDBHDkD
QR1l2UB2xX/BOO+9QLqKYkDeUYPB1S6kQJjookCCpYbBXApfQNLcO0A3lKXBi2YPQLsBg0AMjZbB
0qhLQGbslUD07IvBP4TdQNfp2UCW0snBC5HQQDHKrb/yhavBI/DiQG0ylr4QUrHBGYGpQFFeaj4E
J6DBAwy3QCeuXcC01ZvB7glxQMkMCMB99JfB2dZ8QFZSisA3wpHBttKzQAzNjb8v7aLBWwihQPI0
D8BH35zBaljYQMGXgz9Hm67B3s+7QOrjoj8tHKbBST7QQGr8TEBygprBWD6JQPI+bkDl45fBXVbn
QGe3FkBd87LB1dSeQFovXEAOXbfBMs3YQD3OmUA3Ka7BexarQARzgUAXYsLBe5jmQBlMrEC8IrnB
4fK/QIw0rkCg88DBt1e2QEPdMEDiRaTB8zXFQKVvWEApO6/B6G+CQEyshEAyacnB2t75QFFa2UCH
ZLfBAFGjQHop2EBU+I3Bk8rxQDnaxUB3CJDB3q29QCuXjED7FYnBCsPIQMFCvUCEdInBlX+lQPV7
j8CjSpbBQaZPQKHHSsAIgpLBZ+OyQG83c0BeoZPBWRCKQHZdR0DmOqHB2R9IQNn3hUDbBZPBepD2
QDrxQUBU5JjBrf7NQL6OvUDAJcvBJRvQQHFPykA7cX7B6mnYQPMNGMCioq3BPPP4QNU+/L6mybfB
4gWUQHYJ4T7pmJnBMBrWQDyBZcBef5/BupZNQCfQmb+5jZjB12lhQPW7pMCzXY3BWnoDQZQxJ0Bk
ra/BiBPpQPXPFECWvLvB70GFQELDgUBE2LPBUvmSQKayGkBFpbjBiwH1QOogmECe6ajBysjAQNky
r0DflarByzDCQLApWEBrU8bB5U3/QC1ll0CvmLzBKtqnQM0MxEAclr3BTtyKQM9ekkAxPdHB9Htp
QPIhSUD7i8rBOZxVQJlemUDHcMXB2+QBQezP5kACI7/Bi7PhQPVN7kAbuLPBT+oKQRL91kBXFLLB
eDqGQEbv0UDtQ4nBnHCrQHRb+kCffI3B06mdQH9Tz0DHXpbBKiYGQQapskC3yozBkD3sQCT+vECa
b5jBWQT6QBkG6EBzjY/BZnnZQK+7dkD804XB/xSiQPk7iECiu4PBiGVgQAvBOkAsq6XBn5EPQOka
gkATpJbBUjpLQIKAlED754vBDcnaQHnv2EBWUcrBUrnQQD3trb9VfavBfxTjQHxplr4wSLHBHGup
QCazZz4WKKDBuCa3QHS9XcB4zZvBAvpwQGFSCMDa/JfBOd58QIJqisDUxJHB9dyzQNcRjr9q6qLB
+BKhQDVdD8BQ3pzBuVrYQA91gz+0la7Bs7C7QLSgoj/PHKbBjSzQQKB2TEAYfprBlEmJQK2obkBO
4ZfBSFTnQNSnFkDj7LLB7NOeQEr8W0BmXrfBWbbYQPu9mUBvJ67BtSWrQP1YgUDBYsLBGpHmQNQ/
rECZHrnBCfy/QOgcrkDe88DBwTq2QMq3MECKQ6TBqybFQIdPWEC4OK/BK4mCQH6RhEAybcnBMML5
QONW2UDOXrfB0K3uQK9Ex0ADuZDBfOzNQLuwz0A11nzBdfq9QFGcjEAWGonBaMbGQImfvUAQzYnB
NZalQPKGj8BYRJbBA5BPQJcQS8AdjJLB2NiyQLrxcUBKjJPBmfiJQKBsR0ANNKHBs6FIQKfuhkCC
D5PB44r2QLDNQUBT6JjBvhvOQEpwvUDtJMvBSFekQMPE0UA5LY7BO6zYQCwaGMB6lq3BLi75QHH8
+75su7fBht6TQEZC3z4YnZnBA0TWQGx4ZcDjb5/BzW5NQOF/mr/rm5jBgmthQMnVpMB+YY3BsnUD
QaczJ0Dzo6/Bhx/pQFS8FEDstbvBjzeFQD6mgUCz3LPBZQCTQKF6GkBDp7jBGOP0QGQVmEAy5ajB
/qnAQHYgr0CklqrBHUbCQPH1V0DmUcbB8lT/QCxil0CXkbzBsNqnQBf2w0Camr3BFgCLQDhDkkCS
QNHBkrFpQBjsSEDukMrBDsRVQC5EmUDldsXBw9sBQfzN5kBJHL/BB4fhQAtC7kDltbPBANcKQXsG
10D/CrLB59TpQC2CukCL1ZjBSKPzQFcT6kAZJpHBDnkFQZEVuEC7Go3Bs6uxQNzzyEDz5HLBdkDq
QJR9wEAqq3XBovHSQFp78kDowX3BLN/aQMKUeUAIAIbB9TujQM1Wh0C8iIPB8hhgQLi1OkDSnaXB
5AsQQIuIg0BQs5bBShFMQNGLlUDe9IvBgeLaQIzS2EAuUMrBiezLQKQnrr/qO63BwsThQOpxkr4O
FrLB7tOlQAHGRT7sYaHBAZaPQObHXcA8f6XBHJ2JQKNWDcAFDJXB5EBdQAkujMBQaJbBCfWtQP30
kL9a3KTBspWXQCKFEcC1xp/BhSvZQPpUgz9Vt67BGEm7QG3nnz/FeqbBpT3PQEMsQ0CWkJnBJlGI
QIZBaEBg0pfBcqXrQCzVFkCKB7LB+nSmQLXIZkA19rbBmPzfQBUxmUAYHKzBL6q2QK3jiEAJZsHB
sMvxQGGfrUBsfrbB84TNQETas0Df3L7BBKC3QG+zLkDv9KPB+GfKQJxBWkBmSa7BpDSQQJ1kkEBb
+cjBo34DQX/o2ECGrbPBfFjBQHED0EDJZY/BSDbHQCvUwkD8BXfBpOa5QPafg0C91ofBLhGxQPlF
tEAq9YXBaXF2QATnj8AVv6DB7vVqQOG0UMAIiJDBOvywQDulaUAt7pLBNTeLQKYCSEALhKHBt7ND
QMimgUAgY5PBlr70QGZhM0CRb5fBABrfQGQBxUCWhcjB6FqGQLbjukAfs4TBvgTSQNGpF8B96K/B
kuT4QDrw8L7HVbjBDJqPQK67xT728prB99GZQHNQY8BvuK3B8w+PQOPkp7+6bZDBQek8QIDfpsBE
spLBx1cFQSOxIUCEG67BEcLvQLuMGUA6w7rB8RWNQECJh0AQhbPBhDuZQMOcJ0ASALnB+oD6QOKV
lEAtcKbBCCjIQHfyrkDbl6jBJ47NQBGUZkDrVsXBQxkFQXk3mEDS5bnB7su1QMQmykCHhLvBDG6b
QOegn0DpZNDBoRmBQBwQY0CP4srBiXxxQAtZpUCJBsXBuOAJQe+150AK/7rBsQzvQLRG7kCLD7DB
RJ4QQRqH00By+K3BtaKxQCW4xUAU15bBwsW5QKPU8UDR2o3B1DDkQOEvzEBeMpDBHra7QPEvr0AI
mWnBrg3qQLQCv0B/pXjBnKK/QHan5EBn9nPBcsnbQDCkekCCDYbBAaClQNdZYkCXUYLB9ixlQEiF
QUAaj6bBu4QNQO6ofkDmmpfBQYVCQJW0jUBb+ovBcR/tQPFL30DMA8fB

> <OMEGA_E>
KENVPzxeVT861VU/njZWP7yBVj8kFFc/cMd1Pw==

> <OMEGA_NBR>
     84921

$$$$
298709
  -OEChem-04172616093D

 63 66  0     1  0  0  0  0  0999 V2000
    4.7915   -2.3003  -20.5448 C   0  0  0  0  0  0  0  0  0  0  0  0
    6.4910   -1.2574  -21.9912 C   0  0  0  0  0  0  0  0  0  0  0  0
    7.1918   -0.1191  -22.4478 C   0  0  0  0  0  0  0  0  0  0  0  0
    5.1677    0.1337  -20.4599 C   0  0  0  0  0  0  0  0  0  0  0  0
    5.4839   -1.1344  -21.0006 C   0  0  0  0  0  0  0  0  0  0  0  0
    6.8687    1.1462  -21.9258 C   0  0  0  0  0  0  0  0  0  0  0  0
    5.8583    1.2582  -20.9493 C   0  0  0  0  0  0  0  0  0  0  0  0
    6.4264    2.8697  -19.1611 C   0  0  0  0  0  0  0  0  0  0  0  0
    4.2093    3.4223  -18.9126 C   0  0  0  0  0  0  0  0  0  0  0  0
    7.4486    2.5219  -22.1741 C   0  0  0  0  0  0  0  0  0  0  0  0
    7.0163    4.8661  -21.1909 C   0  0  0  0  0  0  0  0  0  0  0  0
    5.3153    3.8212  -22.7621 C   0  0  0  0  0  0  0  0  0  0  0  0
    7.6360    5.6480  -22.3702 C   0  0  1  0  0  0  0  0  0  0  0  0
    5.8836    4.6394  -23.9578 C   0  0  2  0  0  0  0  0  0  0  0  0
    6.5616    5.9464  -23.4497 C   0  0  2  0  0  0  0  0  0  0  0  0
    5.7196    2.6983  -20.4851 C   0  0  1  0  0  0  0  0  0  0  0  0
    6.3750    3.5186  -21.6522 C   0  0  1  0  0  0  0  0  0  0  0  0
    8.2570    6.9591  -21.8301 C   0  0  0  0  0  0  0  0  0  0  0  0
    4.0701    3.7206  -25.5437 C   0  0  0  0  0  0  0  0  0  0  0  0
    6.6568    1.3529  -16.2589 C   0  0  0  0  0  0  0  0  0  0  0  0
    6.6914    3.2012  -14.5653 C   0  0  0  0  0  0  0  0  0  0  0  0
    4.7470    4.9824  -24.9651 C   0  0  0  0  0  0  0  0  0  0  0  0
    5.6748    3.6859  -16.8401 C   0  0  0  0  0  0  0  0  0  0  0  0
    6.7872    2.8948  -16.0738 C   0  0  0  0  0  0  0  0  0  0  0  0
    4.2290   -3.2532  -20.1772 N   0  0  0  0  0  0  0  0  0  0  0  0
    5.4414    3.2515  -18.2458 N   0  0  0  0  0  0  0  0  0  0  0  0
    4.3243    3.0608  -20.1731 N   0  3  0  0  0  0  0  0  0  0  0  0
    3.0245    3.8869  -18.3481 N   0  0  0  0  0  0  0  0  0  0  0  0
    7.6194    2.6549  -18.9801 O   0  0  0  0  0  0  0  0  0  0  0  0
    7.1805    6.6222  -24.5484 O   0  0  0  0  0  0  0  0  0  0  0  0
    8.0145    3.3324  -16.4722 F   0  0  0  0  0  0  0  0  0  0  0  0
    6.7241   -2.2295  -22.4001 H   0  0  0  0  0  0  0  0  0  0  0  0
    7.9689   -0.2196  -23.1911 H   0  0  0  0  0  0  0  0  0  0  0  0
    4.4158    0.2364  -19.6914 H   0  0  0  0  0  0  0  0  0  0  0  0
    8.3921    2.6479  -21.6227 H   0  0  0  0  0  0  0  0  0  0  0  0
    7.6283    2.6765  -23.2483 H   0  0  0  0  0  0  0  0  0  0  0  0
    7.8049    4.6501  -20.4551 H   0  0  0  0  0  0  0  0  0  0  0  0
    6.2384    5.4873  -20.7231 H   0  0  0  0  0  0  0  0  0  0  0  0
    4.4912    4.3924  -22.3099 H   0  0  0  0  0  0  0  0  0  0  0  0
    4.9310    2.8648  -23.1463 H   0  0  0  0  0  0  0  0  0  0  0  0
    8.4320    5.0381  -22.8222 H   0  0  0  0  0  0  0  0  0  0  0  0
    6.6391    4.0292  -24.4743 H   0  0  0  0  0  0  0  0  0  0  0  0
    5.7872    6.5863  -23.0016 H   0  0  0  0  0  0  0  0  0  0  0  0
    8.7017    7.5247  -22.6621 H   0  0  0  0  0  0  0  0  0  0  0  0
    7.4740    7.5657  -21.3517 H   0  0  0  0  0  0  0  0  0  0  0  0
    9.0366    6.7186  -21.0923 H   0  0  0  0  0  0  0  0  0  0  0  0
    3.2781    4.0184  -26.2466 H   0  0  0  0  0  0  0  0  0  0  0  0
    4.8192    3.1124  -26.0719 H   0  0  0  0  0  0  0  0  0  0  0  0
    3.6311    3.1319  -24.7248 H   0  0  0  0  0  0  0  0  0  0  0  0
    6.7218    1.1047  -17.3286 H   0  0  0  0  0  0  0  0  0  0  0  0
    7.4693    0.8484  -15.7155 H   0  0  0  0  0  0  0  0  0  0  0  0
    5.6871    1.0169  -15.8630 H   0  0  0  0  0  0  0  0  0  0  0  0
    6.7806    4.2858  -14.4045 H   0  0  0  0  0  0  0  0  0  0  0  0
    5.7214    2.8524  -14.1813 H   0  0  0  0  0  0  0  0  0  0  0  0
    7.5037    2.6839  -14.0338 H   0  0  0  0  0  0  0  0  0  0  0  0
    3.9863    5.5849  -24.4471 H   0  0  0  0  0  0  0  0  0  0  0  0
    5.1744    5.5654  -25.7943 H   0  0  0  0  0  0  0  0  0  0  0  0
    4.7314    3.5687  -16.2866 H   0  0  0  0  0  0  0  0  0  0  0  0
    5.9615    4.7477  -16.8552 H   0  0  0  0  0  0  0  0  0  0  0  0
    3.5697    3.0354  -20.8288 H   0  0  0  0  0  0  0  0  0  0  0  0
    2.1992    3.9605  -18.9079 H   0  0  0  0  0  0  0  0  0  0  0  0
    2.9989    4.1471  -17.3829 H   0  0  0  0  0  0  0  0  0  0  0  0
    6.5287    6.8085  -25.2139 H   0  0  0  0  0  0  0  0  0  0  0  0
  1  5  1  0  0  0  0
  1 25  3  0  0  0  0
  2  3  2  0  0  0  0
  2  5  1  0  0  0  0
  3  6  1  0  0  0  0
  4  5  2  0  0  0  0
  4  7  1  0  0  0  0
  6  7  2  0  0  0  0
  6 10  1  0  0  0  0
  7 16  1  0  0  0  0
  8 16  1  0  0  0  0
  8 26  1  0  0  0  0
  8 29  2  0  0  0  0
  9 26  1  0  0  0  0
  9 27  2  0  0  0  0
  9 28  1  0  0  0  0
 10 17  1  0  0  0  0
 11 13  1  0  0  0  0
 11 17  1  0  0  0  0
 12 14  1  0  0  0  0
 12 17  1  0  0  0  0
 13 15  1  0  0  0  0
 13 18  1  0  0  0  0
 14 15  1  0  0  0  0
 14 22  1  0  0  0  0
 15 30  1  0  0  0  0
 16 17  1  0  0  0  0
 16 27  1  0  0  0  0
 19 22  1  0  0  0  0
 20 24  1  0  0  0  0
 21 24  1  0  0  0  0
 23 24  1  0  0  0  0
 23 26  1  0  0  0  0
 24 31  1  0  0  0  0
  2 32  1  0  0  0  0
  3 33  1  0  0  0  0
  4 34  1  0  0  0  0
 10 35  1  0  0  0  0
 10 36  1  0  0  0  0
 11 37  1  0  0  0  0
 11 38  1  0  0  0  0
 12 39  1  0  0  0  0
 12 40  1  0  0  0  0
 13 41  1  0  0  0  0
 14 42  1  0  0  0  0
 15 43  1  0  0  0  0
 18 44  1  0  0  0  0
 18 45  1  0  0  0  0
 18 46  1  0  0  0  0
 19 47  1  0  0  0  0
 19 48  1  0  0  0  0
 19 49  1  0  0  0  0
 20 50  1  0  0  0  0
 20 51  1  0  0  0  0
 20 52  1  0  0  0  0
 21 53  1  0  0  0  0
 21 54  1  0  0  0  0
 21 55  1  0  0  0  0
 22 56  1  0  0  0  0
 22 57  1  0  0  0  0
 23 58  1  0  0  0  0
 23 59  1  0  0  0  0
 27 60  1  0  0  0  0
 28 61  1  0  0  0  0
 28 62  1  0  0  0  0
 30 63  1  0  0  0  0
M  CHG  1  27   1
M  END
> <OMEGA_C>
S1SZQDo4E8CpW6TBALbPQFrzoL8T7q/BQyPmQOT3870ZlbPBbV2lQPrfCD7KraPBf3yvQJcykb9K
AajBT8zbQCS3kj8YaK/ByXa7QBMOoT8qmKfBOaXNQN2pN0DcSZnBdbKGQI8HW0DxTJfBV1vuQC5n
IUCMZLHBcoXgQNK2m0ACh6nBSheqQAeOdEDQGLbBtVn0QLy8tEA99rLBTEa8QNh1lECQqb/BgvjR
QNZIvkABmbvBNAe3QC+wLEBj4aPBXwDMQIgwYUCgN63BnxwEQciw3kAXpK7BlT6CQHEebkCQWczB
agTVQLArrT9QEoLBwh/WQDLhTEBJC2nBxOeXQPRvn0CAuMfB/pe1QDfla0BwuIbBCDHZQD1EOUAo
l4DB+1OHQBM1UMDWaqHBCyCuQO4XUEBy95HB62CKQKXjQ0B6YqHB35FBQKPDeEDzyJLB6dHzQGDq
KUBO15fBY8blQD7p00AJY8TBizsAQQVGVUASx4PBkyvXQBOwDsBcM7PB6AD/QLPgYL5eh7nBQ06N
QAINcj7uh53B+EUGQWp2KUA3+6zBcRv0QA9LK0Bv/LnBpsH5QMHNlED8o6PB1KDHQCOYr0DPyKXB
67ePQK6OjEDAerLB/cqdQFdYN0CfK7nBjOkGQUE4oUDck7bBvXPUQDvvgEB2y8PB/jC5QErD0kAw
A7jBSDoLQYbK8EAQTLXBoirvQA0a8kBE0KrB4JUQQcL+1kAFvajBK8xRQKyWgED4+NHBxTaaQPww
R0BEk9DBfWRoQGFxSEBNzMXBShnXQMVmjT/5oIrB1gTvQDgzWT/dcnvBZPy1QL0qgj/yzn3Br/rY
QAUliUDJeGbB0BW3QAGNNkB55mLBQx7wQHHEK0BkimDBNCB/QMu3skCtk8PBoZSlQJkXskCkWs7B
0meXQOBkZED+SoLB4MS+QGjtl0Bz14bBknZkQJtDQkBaoabB4r4MQKF4fUBcQ5fBve0/QDy1hEAu
EIvBxerQQALf2UAVtsnBbVacQIewFMDMmaPBfdLPQMfnor8V7q/BD+jkQNJlBL5g9LPBCxSnQJix
7j1RU6PBkBKxQMaLk7/TpKfBT73aQDJ4kT+wwq/BU/O7QApbnz/Oj6fBLlLOQBu/OUDAW5nBM0KH
QKhBXUC2ZJfB+jTsQCQBIUAiEbLBxh/eQLKYm0ANh6rB2z6mQD4xcECiU7bBuIzvQK9PtEAJWLTB
XBa2QMi1kUAfQMDBVXnLQENYvEBBqLzBICO3QAYgLEAt+6PBT+TJQNneX0AvuK3B0YwBQTse30BK
fbDB3h51QAQBZECNKszBlaTrQMsztkDhjIvBqcvFQN+CtED7gXPBcxeQQAUzm0CE+MfBYda3QOcZ
ckA4F4fBYqvBQHOpqUBGyIXBVoGLQHPoUcC7UqDBVWqvQOBnWEBCUpLBGFiKQOneQUBVU6HB645C
QMqpeEAYtJLBIf7zQCTTKkCjVJfBqCfdQCum0UDqx8XBGPagQKYowUBV74nBdi3XQLrAD8B0MLPB
zJz8QBdvZ76cMbrBtgSQQLI1Xj6+8JzBfHMFQX2vKkDk7q3B/a/wQLUMKkDIuLrBdab4QPexlUAj
76TBwpfFQN9Fr0DwkqbB1hyMQOkpikC1ibLB/h6aQInhMUCvFLnBgmsEQdQZoUCAI7jB/vXNQFKp
fECfiMTB0t6yQMmQ0ECh6LjB6ssHQcr28EDaZrfBl0nqQCk88kB3eazBkKgOQUmW2EBK2arBViVA
QPIPdUA2jtHBSjaSQBJuPUAZjdDB4yBcQLbOPkAaYcXBRfPoQIqTrkBqHZTBTFLxQBy42EDkkYrB
O0EDQaM7pEC5EIjBCg6oQOStq0B1MWvBprvgQIWLokC0mmzBfIvLQP8H10AKnXHBcxhwQJJIrkAR
qsPBEjKcQD+YrUAQ1s7BJ3rTQNN+TUC4IYTBQ3ebQDCKYkBBQoLBqmxjQACCPEBcY6bBizcMQO9M
eEDo7ZbBt01CQMVchkBUG4vBoTjHQMCk1kCZ5MrBMbOfQNRRFcCMkKLBzsvSQCRjpL9rBK/Bsw7n
QNAmDb6ZQLPBvAeoQNDc5z0o6aLBlYCzQI6mlL9a3KbBqnHbQIoNkT8la6/Bid67QKgSnz+iaKfB
ZsTNQFCzOUBhkJnBAzuHQDAnX0BpaZfBogbsQAs6IUCI7rHBuULcQMsDnECPrqrBK3mlQDwxbUAS
cbbBLqHtQNdOtEColbTBiCi1QP+9j0AZcsDBD67JQF8Fu0A5BL3BY0q2QJz9K0AFA6TBDvzIQENj
X0B4w63B1iUAQRHH30BA7LDBOwd1QGDZW0AwQ8zBnvgDQZLmYUC+hoLB+mLgQI8ZskCH53fBezeP
QNLfl0B/RcjB6Ce4QDp/dkDeQ4fBcSzkQBgIkkByT4XB9pGPQLuKUsA8E5/BKjqwQA8LYED/rpLB
gamJQDdzQUCGQKHBsFpCQDXweEBMm5LBoWnzQN7tJ0AG95fBTULbQOzlz0CfNsbB6YPvQOT6qEAT
Ko7BIjXbQNnLEMARBLLBzjv/QCRicr4jYLnBg6SQQCYKXj6bmpzBe0cFQQDXLEDozK3Bx4bwQI4W
KUCimrrBDab2QLEDl0Ba/qTB/zDDQHx+r0CR4abBr/CKQJp8iEC8xrLBGvOZQP4WLkCiErnBO7AD
QV0+oUD8OrjBbYLNQL/2eECel8TBlpiwQHMXz0Bna7nBJFoGQeM+8UCY57fBXwTnQHrK8kDPD63B
cDcNQbsy2kAwMqvB2QlAQFf7akAVvdHBeZySQHlTNUAagNDBn1hcQCF3N0C4Y8XBTpEFQbSVM0D/
GonBfEATQUzPgUDfYoHBYGP/QAXmP0A8P3bBY07HQAq2yUAph3vBWQbYQNnHoEDiKWnB8CP/QCKk
wkBjsHXBQXltQM7rqkBWHMTByiybQPvZqUC5OM/BlXC3QHtDO0A7g4LBxHKeQBG9kECQkYTBxWFh
QJJoOkBALabBm08LQABrdUAcqpbBgLdCQAp+h0CuGIvBqWbFQI8S1EAnZMvBip6kQCCeFsB3BaHB
9D7WQCnFp7/H4K3BRBPpQFj5J771gbLBQPGpQJDsxD38M6LBh+y2QO9ol7+tu6XB2fLbQEA/jj9t
GK/BxTS8QFehnD+EIKfBU7vNQC00O0B+wpnBchyHQLB2X0DCbJfB0g3rQL4nIEBuCLLBZ3fZQLG6
m0DJJavBMo+jQKxBaEAxqrbBgT7qQImIs0A9KrXBv2CyQLvAjEDk1sDB42zGQMrEuEAHsb3BfJ+1
QIgSK0BNCaTBvlrHQKZVXUBD/K3BKdr7QBLG30DKvbHBtJ6UQNejpUCJR9PBXj/3QNoVK0Dd8n/B
baDrQGzgoUAVw3TBh5+KQIxYkUCuTsjBg6+3QNoOf0AajofBlmPnQMBDgkAByIPB0qyVQPjBU8Ae
Mp3BFlWwQLohYkAs0ZLBYA6JQARXP0C1JqHBvHVCQGJkeUDbipLBTULzQKz1JkC6b5jBxwzZQFXi
zEAk2MbBMn0AQfdlkkDHnYvBd8nfQO6+EsCSkLDBPqkAQQVIiL4hnLjBkpuSQEnPUT6245vBhdEE
QeWiLkDeEa7BPu7uQKn8JUC8v7rBKvDzQPTql0AYbaXByeG/QLPkrkCLdqfB8bqIQMPAhUDSDbPB
raiYQCI+KECJHLnBqEECQWrNoEAgr7jBgMvKQNogc0CG+8TBxQytQN0czUBpU7rB5+wDQTPr8EBA
0bjBqBziQCqB8kBv/K3BRQ0LQWdV20Ak/KvBVB1uQFq2p0AxB9jB6s2hQIHuxUA6GNLBTiOsQIK/
kUDmidfBQ3r0QEvd+T9PlYbBQnIMQU6tL0CN53rBM5TjQGx2FUD3Y3LBjZDgQFa5wUB60nnBFQTY
QIWulkDEQmfBM6oGQfbJo0Baxm/BRUV6QG+WYkDzq8nBfZplQDd6pUBHOsTBG/+mQJwPUkDwOYLB
v4qpQJaVn0B/tYbBE5JfQHn/NUAF66XBL+EKQFURdEDXc5bBBp5DQMSriEAFIIvBe9bDQPqE0EBE
NszB3xqmQKyrCcDV/p3BQ0jOQECcpL/4mq3BdBDgQOcfRr4UP7PB/Y2oQNdtdD68kqHBKrizQNl3
iL+Gk6TBDPTWQIZPjj+50q/BW+e5QC7opj9cZqfBu0fOQFMMNUAEpJnBMvCGQLTtU0Drh5fBu6Lq
QGksHED0mbLBO+/lQIVimEBT+6nBSsypQP20fECgmrXB4S77QKTmrUDinrPBHX67QFMvlkDyYr/B
fnHZQCiYu0Ca97vBssi3QDM8L0APMaTBBdPMQI5gYED/k63BVmgKQaXr1EA5r6/BvJGeQDtLvUCf
D9DBbwDMQFjDo0CwYnTB0eSwQCZeu0B0PYzB96STQCWhpUB/qsXB4Ny1QCV+V0A5KYfBCHvKQKqS
mEAAIYbBny2bQDMjQcASZJjB6MytQO1qQkDoUJLBXLCLQNuUSUCj06HBukFCQPCkbkDhx5LBgODz
QEvRI0Bay5fBB6TwQBJlykAZCcXBt1vzQDn6l0AD6YnBTvrUQOzhEsACMbDBuWX0QOw8ub4RGrrB
FiWTQIeZ1T5b8ZrBo4MFQT8cIUCfNq/BLDDsQClSJEBpVbvB/Lj+QFLsjkDpMqTBcMHPQKIZr0BJ
LqbBDkuTQCSek0DtarHB97iYQE5fQ0AHaLjB8K0IQagQl0CWYLfBqrTNQAFhf0D+ZMTBSsvFQJt2
1UAQlLjB1SASQSyu5ECKirbBDhP/QGqd60CTuKvBz7YWQRFZykDB+anBNtiAQDg/x0B1ENTB/Pix
QGe12UBRNM7Bgb2wQBTnp0AvX9XBrijeQOoNi0D5vWvBWbXbQHT6wkBwRHLBGjmrQO9LpUBEBG7B
o9WvQD1Ks0AWzZTBiBqQQEvpvEA5EInBx5bAQNCX2kBPMIvBXPN/QBKPiUBUq8fBKTWBQGRdu0B3
gMDBp5/LQAh8J0CnuIPBf2KXQG3UVkBawoLBF29pQClNUkDUSafBHfYOQL4ve0D4TJfB8wQ/QDVe
dUDZ1YrBOSfdQAk/00C9bsrB

> <OMEGA_E>
zviLP1mYiz/kvIo/PcWJP25Tgj8=

> <OMEGA_NBR>
     90307

$$$$
298712
  -OEChem-04172616093D

 58 62  0     1  0  0  0  0  0999 V2000
    4.7575   -2.5353  -20.4858 C   0  0  0  0  0  0  0  0  0  0  0  0
    6.3688   -1.5678  -22.0557 C   0  0  0  0  0  0  0  0  0  0  0  0
    7.0478   -0.4709  -22.5890 C   0  0  0  0  0  0  0  0  0  0  0  0
    5.1710   -0.1269  -20.5048 C   0  0  0  0  0  0  0  0  0  0  0  0
    5.4364   -1.3969  -21.0211 C   0  0  0  0  0  0  0  0  0  0  0  0
    6.7687    0.7866  -22.0795 C   0  0  0  0  0  0  0  0  0  0  0  0
    5.8417    0.9590  -21.0458 C   0  0  0  0  0  0  0  0  0  0  0  0
    6.5119    2.6478  -19.3137 C   0  0  0  0  0  0  0  0  0  0  0  0
    4.3152    3.2895  -19.0052 C   0  0  0  0  0  0  0  0  0  0  0  0
    7.3908    2.0932  -22.4740 C   0  0  0  0  0  0  0  0  0  0  0  0
    7.8482    1.9448  -16.4564 C   0  0  0  0  0  0  0  0  0  0  0  0
    7.4300    2.5923  -15.1658 C   0  0  0  0  0  0  0  0  0  0  0  0
    5.2640    3.4485  -22.9582 C   0  0  0  0  0  0  0  0  0  0  0  0
    7.0775    4.4649  -21.5469 C   0  0  0  0  0  0  0  0  0  0  0  0
    6.4261    2.3964  -16.2678 C   0  0  0  0  0  0  0  0  0  0  0  0
    5.7620    4.2176  -24.1924 C   0  0  2  0  0  0  0  0  0  0  0  0
    7.6140    5.2263  -22.7705 C   0  0  1  0  0  0  0  0  0  0  0  0
    6.4919    5.5072  -23.7840 C   0  0  0  0  0  0  0  0  0  0  0  0
    5.7682    2.4051  -20.6525 C   0  0  1  0  0  0  0  0  0  0  0  0
    6.3731    3.1382  -21.9065 C   0  0  0  0  0  0  0  0  0  0  0  0
    4.5842    4.5223  -25.1267 C   0  0  0  0  0  0  0  0  0  0  0  0
    8.3004    6.5189  -22.3135 C   0  0  0  0  0  0  0  0  0  0  0  0
    5.8938    3.5919  -17.0390 C   0  0  0  0  0  0  0  0  0  0  0  0
    4.2064   -3.4595  -20.0511 N   0  0  0  0  0  0  0  0  0  0  0  0
    5.5477    3.2054  -18.4018 N   0  0  0  0  0  0  0  0  0  0  0  0
    4.3882    2.8131  -20.3162 N   0  3  0  0  0  0  0  0  0  0  0  0
    3.1584    3.7564  -18.4346 N   0  0  0  0  0  0  0  0  0  0  0  0
    7.6800    2.4033  -19.0600 O   0  0  0  0  0  0  0  0  0  0  0  0
    7.0403    6.1009  -24.9604 O   0  0  0  0  0  0  0  0  0  0  0  0
    6.5774   -2.5592  -22.4523 H   0  0  0  0  0  0  0  0  0  0  0  0
    7.7741   -0.6055  -23.3833 H   0  0  0  0  0  0  0  0  0  0  0  0
    4.4608    0.0134  -19.6951 H   0  0  0  0  0  0  0  0  0  0  0  0
    8.3695    2.1808  -21.9882 H   0  0  0  0  0  0  0  0  0  0  0  0
    7.5245    2.1566  -23.5559 H   0  0  0  0  0  0  0  0  0  0  0  0
    8.4891    2.5123  -17.1198 H   0  0  0  0  0  0  0  0  0  0  0  0
    8.0442    0.8797  -16.4456 H   0  0  0  0  0  0  0  0  0  0  0  0
    7.3459    1.9613  -14.2896 H   0  0  0  0  0  0  0  0  0  0  0  0
    7.7911    3.5934  -14.9648 H   0  0  0  0  0  0  0  0  0  0  0  0
    4.4825    4.0578  -22.4849 H   0  0  0  0  0  0  0  0  0  0  0  0
    4.7766    2.5208  -23.2844 H   0  0  0  0  0  0  0  0  0  0  0  0
    7.9172    4.2774  -20.8673 H   0  0  0  0  0  0  0  0  0  0  0  0
    6.3736    5.1089  -21.0022 H   0  0  0  0  0  0  0  0  0  0  0  0
    5.6705    1.6324  -16.1297 H   0  0  0  0  0  0  0  0  0  0  0  0
    6.4524    3.5890  -24.7676 H   0  0  0  0  0  0  0  0  0  0  0  0
    8.3863    4.6193  -23.2614 H   0  0  0  0  0  0  0  0  0  0  0  0
    5.7699    6.2165  -23.3584 H   0  0  0  0  0  0  0  0  0  0  0  0
    3.8621    5.1465  -24.6080 H   0  0  0  0  0  0  0  0  0  0  0  0
    4.1095    3.5923  -25.4267 H   0  0  0  0  0  0  0  0  0  0  0  0
    4.9464    5.0444  -26.0088 H   0  0  0  0  0  0  0  0  0  0  0  0
    7.5758    7.1594  -21.8183 H   0  0  0  0  0  0  0  0  0  0  0  0
    8.7107    7.0368  -23.1762 H   0  0  0  0  0  0  0  0  0  0  0  0
    9.1035    6.2788  -21.6208 H   0  0  0  0  0  0  0  0  0  0  0  0
    5.0047    3.9881  -16.5380 H   0  0  0  0  0  0  0  0  0  0  0  0
    6.6478    4.3856  -17.0616 H   0  0  0  0  0  0  0  0  0  0  0  0
    3.5734    2.7532  -20.9224 H   0  0  0  0  0  0  0  0  0  0  0  0
    3.1922    4.0698  -17.4928 H   0  0  0  0  0  0  0  0  0  0  0  0
    2.3323    3.7630  -18.9852 H   0  0  0  0  0  0  0  0  0  0  0  0
    7.6516    5.4498  -25.3364 H   0  0  0  0  0  0  0  0  0  0  0  0
  1  5  1  0  0  0  0
  1 24  3  0  0  0  0
  2  3  2  0  0  0  0
  2  5  1  0  0  0  0
  3  6  1  0  0  0  0
  4  5  2  0  0  0  0
  4  7  1  0  0  0  0
  6  7  2  0  0  0  0
  6 10  1  0  0  0  0
  7 19  1  0  0  0  0
  8 19  1  0  0  0  0
  8 25  1  0  0  0  0
  8 28  2  0  0  0  0
  9 25  1  0  0  0  0
  9 26  2  0  0  0  0
  9 27  1  0  0  0  0
 10 20  1  0  0  0  0
 11 12  1  0  0  0  0
 11 15  1  0  0  0  0
 12 15  1  0  0  0  0
 13 16  1  0  0  0  0
 13 20  1  0  0  0  0
 14 17  1  0  0  0  0
 14 20  1  0  0  0  0
 15 23  1  0  0  0  0
 16 18  1  0  0  0  0
 16 21  1  0  0  0  0
 17 18  1  0  0  0  0
 17 22  1  0  0  0  0
 18 29  1  0  0  0  0
 19 20  1  0  0  0  0
 19 26  1  0  0  0  0
 23 25  1  0  0  0  0
  2 30  1  0  0  0  0
  3 31  1  0  0  0  0
  4 32  1  0  0  0  0
 10 33  1  0  0  0  0
 10 34  1  0  0  0  0
 11 35  1  0  0  0  0
 11 36  1  0  0  0  0
 12 37  1  0  0  0  0
 12 38  1  0  0  0  0
 13 39  1  0  0  0  0
 13 40  1  0  0  0  0
 14 41  1  0  0  0  0
 14 42  1  0  0  0  0
 15 43  1  0  0  0  0
 16 44  1  0  0  0  0
 17 45  1  0  0  0  0
 18 46  1  0  0  0  0
 21 47  1  0  0  0  0
 21 48  1  0  0  0  0
 21 49  1  0  0  0  0
 22 50  1  0  0  0  0
 22 51  1  0  0  0  0
 22 52  1  0  0  0  0
 23 53  1  0  0  0  0
 23 54  1  0  0  0  0
 26 55  1  0  0  0  0
 27 56  1  0  0  0  0
 27 57  1  0  0  0  0
 29 58  1  0  0  0  0
M  CHG  1  26   1
M  END
> <OMEGA_C>
0j2YQDJCIsD34qPBH83LQNasyL8AcrDB04fhQEwU8b5CtrTBdHilQO37Ab7RCaTBGvetQLrOsr82
K6jBMJnYQOZbST/NorDBGe+6QM6CdT/UXajBGWHQQDt2KUBsgprBIhaKQH2HUkCuCpjBP4HsQG72
BUCsyrPBQiT7QHzw+D+ypoPBNMLtQN7oJUAlp3LBx3KoQB20XEBUqrfB6nriQFDgjkAUYKzB76LN
QCVeGUCAJILBHWK4QIL2hkD3icHB4qXzQJA9p0AKKrbBoL3PQEI7sECsRb7B05S4QBLtGUBDOKXB
kPDLQNXXSECGQK/BIrKSQKy2kECGA8nBk84EQYqa0EAkgrLBTZq8QMnhZUDyT4jB75qGQAxoXcCb
aKDBdoaxQHklTUDXNpPBUGyMQPsJNECYh6LBcCNKQIFocEAfepPBdsL1QNDPGUDqepjB1EnhQM46
w0D+rsfBGHrSQGzJI8A4nrPBm8X4QCMEG78NEbvBv76OQOAkXDyBj53BmOkFQZKRC0Dn56/Basjw
QAQGCkCVcrzBadMHQTPJIEBb9YjB47QAQd4yYT+qkIPB2BHrQE0L+z8JomTBX1D5QMb5ZUDIb2/B
UXCPQJXZgUD+4LPBBNqYQCdUIUBqRrrBhFn9QHLgiEA48KbBr/TLQMx7o0BwBKjB/nS1QHTz0D+v
CYHBQHrOQPyxZUD2I8bBIy4GQV/Rk0BvF7rB3KK4QGrtxkAB3rrB4Cx3QFCwpEBI3cTBLYGDQJ/o
ZUDgacvBFUmeQBtsoUAQEtDB92zyQLQZ5UDbi67B8V4LQRQt4UDgaLnBBKgRQSTsyEB+96zBMSag
QCY9f0DPTYTBe7rUQHdWjEAlfojB67JkQPE0MEADYafB00xMQA48gkBF8YvB+0MVQPvUcECa4ZfB
ntn0QKJkrkD4sMrBrqKYQCw/GMD34qPB+jHMQMumtL8AcrDBruzhQCD8oL5CtrTBT92lQGGj8TzS
CaTB9VuuQK/Inr83K6jBC/7YQPxncT/NorDB9FO7QHLHjj/UXajB9MXQQEF5M0BsgprB/nqKQIOK
XECuCpjBGubsQHT5D0CtyrPBG4n7QEN7BkCypoPBDyfuQOTrL0Akp3LBo9eoQCO3ZkBUqrfBxd/i
QNLhk0AUYKzBygfOQCthI0CAJILB+ca4QAX4i0D4icHBvgr0QBI/rEAKKrbBeyLQQMY8tUCsRb7B
r/m4QBjwI0BDOKXBbFXMQNvaUkCGQK/B/RaTQC+4lUCGA8nBAQEFQQ2c1UAlgrLBKf+8QNDkb0Dz
T4jByv+GQAZlU8CcaKDBUeuxQH8oV0DXNpPBLNGMQAENPkCYh6LBJ+1KQIhrekAfepPBUyf2QNbS
I0DqepjBr67hQFE8yED/rsfB8t7SQGfGGcA4nrPBdyr5QBrw5b4OEbvBmSOPQKfyLT6Cj53BBhwG
QZiUFUDo56/BRS3xQAkJFECWcrzB2AUIQTjMKkBb9YjBUOcAQXufhD+rkIPBtHbrQKyIB0AJomTB
ObX5QMr8b0DIb2/BLtWPQBjbhkD+4LPB4D6ZQC1XK0BqRrrBX779QPThjUA48KbBilnMQE59qEBw
BKjB2dm1QH755D+vCYHBHN/OQAK1b0D2I8bBkWAGQeLSmEBwF7rBtwe5QOzuy0AC3rrBl/Z3QNOx
qUBJ3cTBCeaDQKXrb0DgacvB8a2eQJ5tpkAQEtDB0tHyQDgb6kDbi67BXpELQZgu5kDgaLnBcdoR
QabtzUB+96zBDIugQBaghEDPTYTBVx/VQPpXkUAmfojBo3xlQPc3OkADYafBihZNQJA9h0BG8YvB
sQ0WQADYekCa4ZfBeT71QCVms0D5sMrBrOuVQMESHMBD4KLBkTTJQAO2ub94Z6/B+5/eQL0fsb7n
orPBuniiQFCw2rzP86LBrlKrQGVppb9cH6fB8lbVQOouaD9kha/B4aC3QBWbiD8WP6fBR5nMQEZT
MEAlVpnB2CCGQOATWEBY2ZbBp+DoQBQdDkDDorLBz0POQAqQxkBeEInBgdijQFB3wUAhl47BMHGk
QHTGY0Cgd7bBwC/eQHa+kkAwJavBhiqvQD8OpUAeToXBzSi0QM7KikAQUcDBiyPvQEhpq0AD6bTB
RCfLQI02tEBrAr3Bid60QAG1IEDwDaTBHgXIQLtGUEBJEK7BH2OOQPxTlEA1yMfByF4CQY7o1EC9
NrHBAY+4QEjTa0AqHIfBlIuEQCmjV8BYbZ/B7JatQMI8U0AkBpLBIZmIQEr1OUAOWqHBgfZBQFkp
dUAZRZLB7QvyQAhFIUCQUJfBYIjcQBCDx0DxZsbBzyjQQMsVHMCdm7LBH+f1QJ028b69/rnBP7WL
QKyG1T1oeJzBBhYEQf8lFEBEv67BECPtQDyFEkAkSrvB3qfqQHtlvEBaVY3BrsbSQECB4kAsEITB
F+uLQFYA2kAUTI3Bd9SjQMDks0Drj5bBKUOLQBAbhUBxqbLBWBuVQOc1KEApG7nBrRv5QFrljEDQ
tqXBcHvHQIwVp0BrxKbBb9aeQMicqkAYk3vB6m3KQF7jbUAP8MTBqgIEQatEmEA827jBtdmzQMqm
ykAZlbnBijVuQMQIqEAAncPBfup+QM7ybEAFNsrBO9SZQJQ/pUCI0s7Bjl/tQGwj6UBaO63BX9wI
QRq05UBLGbjByEAPQeBdzUD+ravBOpLaQEBPX0CGtYXBlzKmQBAGRUAecYHBgxVdQMvRNUD4M6bB
+/JDQJiAhEDAuYrBdhYNQB5CdUCLrJbB0EbwQDjlskAcbsnBrOuVQMESHMBD4KLBkTTJQAO2ub94
Z6/B+5/eQL0fsb7norPBuniiQFCw2rzP86LBrlKrQGVppb9cH6fB8lbVQOouaD9kha/B4aC3QBWb
iD8WP6fBR5nMQEZTMEAlVpnB2CCGQOATWEBY2ZbBp+DoQBQdDkDDorLBz0POQAqQxkBeEInBgdij
QFB3wUAhl47BMHGkQHTGY0Cgd7bBwC/eQHa+kkAwJavBhiqvQD8OpUAeToXBzSi0QM7KikAQUcDB
iyPvQEhpq0AD6bTBRCfLQI02tEBrAr3Bid60QAG1IEDwDaTBHgXIQLtGUEBJEK7BH2OOQPxTlEA1
yMfByF4CQY7o1EC9NrHBAY+4QEjTa0AqHIfBlIuEQCmjV8BYbZ/B7JatQMI8U0AkBpLBIZmIQEr1
OUAOWqHBgfZBQFkpdUAZRZLB7QvyQAhFIUCQUJfBYIjcQBCDx0DxZsbBzyjQQMsVHMCdm7LBH+f1
QJ028b69/rnBP7WLQKyG1T1oeJzBBhYEQf8lFEBEv67BECPtQDyFEkAkSrvB3qfqQHtlvEBaVY3B
rsbSQECB4kAsEITBF+uLQFYA2kAUTI3Bd9SjQMDks0Drj5bBKUOLQBAbhUBxqbLBWBuVQOc1KEAp
G7nBrRv5QFrljEDQtqXBcHvHQIwVp0BrxKbBb9aeQMicqkAYk3vB6m3KQF7jbUAP8MTBqgIEQatE
mEA827jBtdmzQMqmykAZlbnBijVuQMQIqEAAncPBfup+QM7ybEAFNsrBO9SZQJQ/pUCI0s7Bjl/t
QGwj6UBaO63BX9wIQRq05UBLGbjByEAPQeBdzUD+ravBOpLaQEBPX0CGtYXBlzKmQBAGRUAecYHB
gxVdQMvRNUD4M6bB+/JDQJiAhEDAuYrBdhYNQB5CdUCLrJbB0EbwQDjlskAcbsnBQOmyQKw8F8DX
ZaTBEoPhQPK6nb9RSrHB6gfzQIBOkL2mqrXBKjS4QIBomT29iaTBpknEQNp8lL+ryajB4ovmQFxH
kz/2d7HBknzJQIjMnD9w+ajB8vvaQHf/PUDHNJvB/EuTQE15WEDsL5jBPLT1QEbzIEAdtrTByKzo
QKR/vUC5zH7BXDn8QFTkukBkXorBfiatQKdzaUDVA7jBWujkQPTfmkCVHa3BsJTPQK6RqkCEgojB
UEy5QN7vjkCt98HBEFHyQA73tEAz/rbB1rfMQA5WukAy0b7BXtHCQHHrKUDcvqXBxHfSQO+/XEBB
4q/BuO2RQCrglEAAJcnB9TECQfpP4EB4cbPBQnHGQCOwdUC904jB6s2kQJe+VcAZ1aDBoF67QOkN
W0DCqJPBvOeVQCfXOkCftaLBAgpbQIOObkDuU5PB7ZgAQR4BNkCTd5nBuBjbQH4fz0DmU8jB1v7q
QGqODMB2jrTB8ucEQexnA76KMrzBkO6hQHhnDz5B453B/IMKQe3TLEByDrHBtrT4QIMLJkBqZL3B
Egz1QEBEqEDClHLBai3fQJS/3EBOAHnBfNj/QFZm2ECm0o7BC9kKQSLro0DImovBRsGSQLSIhUAu
BLTBFFmgQElDK0C/jLrBPHIAQUaWl0C946fBiPDMQJgIrUAEkKjB9Eu1QK4xvUA5tovBTsLQQPdz
ekCQwsbBKTIGQQw0pEBNIbvBctizQASGzkCgNbvBndZyQCZZpkDwy8TB4Y+FQGl/a0D/eMvBauaa
QMDApkCwQtDBwLnrQDZM8kD+R6/BQnYHQY418kBZarrBibIPQTA720A7G67B+LPiQJU9UkCHJobB
6BWsQLFhZkDnYYPBLy13QC/RMUCAXafBe/dcQHhJgUBdyovBrFslQAmvaUB0iJfBGE7wQIhrvEBk
gsvBiNeXQF+SLMDXZaTBXI/KQPKP4L9RSrHBwIrgQClRK7+mqrXB3r2mQCphmL69iaTBhNitQEbv
yL+ryajBRvzYQP86Fz/2d7HBanG8QL3fRj9w+ajB6LTUQPchHEDHNJvB5jSPQL0iSEDsL5jB5Gzt
QBpm8T8dtrTBgvrtQMclqkC5zH7BFIcAQbIkpUBkXorBWumpQMeWUkDVA7jBXPXlQGNBiECVHa3B
drzSQHJ3mkCEgojBGDW5QFzNgUCt98HBsn32QLl8oEAz/rbBYtjRQHV3qkAy0b7B/nu7QIQvDkDc
vqXBOijOQDnBPEBB4q/B3t+SQFeQjEAAJcnBqeQGQUlEyUB4cbPBGsTDQNN5WEC904jBfPqFQEUc
Z8AZ1aDBpCG3QAXJQEDCqJPBdPaPQKsVKkCftaLBZitWQHdkZ0DuU5PBMiH6QPu/CkCTd5nBFq/i
QNtQvUDmU8jB+ifQQCXYL8B2jrTBWOv2QOGNUL+KMrzBBOaQQHRvFr5B453Bi58GQbJ5+T9yDrHB
HLjwQGwG+j9qZL3BUqH3QG2Mk0DClHLBHmvoQPlUykBOAHnBKiYEQRD6wUCm0o7BxL4LQUMyi0DI
movBHMyRQLl5ekAuBLTBslyZQDgLGEC/jLrBNKkAQTmIgUC946fBgmvQQB89nUAEkKjBAvW6QPIy
sEA5tovBTkzOQBSnWkCQwsbBiSUHQSehjEBNIbvB9qi7QCyTwUCgNbvBhW15QOruoEDwy8TB6sCC
QBlpXkD/eMvB5PydQMgxnUCwQtDBAon3QAMq3kD+R6/B5zkNQTq52UBZarrBR/oTQZHiwEA7G67B
Lp7dQJNPLkCHJobBQKqoQEXOT0DnYYPBY5RqQLejJ0CAXafBzI5aQIkEe0BdyovBSEwgQAEyaUB0
iJfBsGr1QDoiqEBkgsvBei5/QAKMLcBD4KLBzYW2QC0p+L94Z6/BaVLQQBLqbb/norPB2fyVQESn
vb7P86LBQIuZQOme1L9cH6fBeUjMQDx2sz5kha/BJnuvQI0PIT8WP6fBXD3LQJr6DUAlVpnBfeuH
QPiRR0BY2ZbBwBPlQK6FyT/DorLBCSDbQNpAtEBeEInBJmewQAqrtEAhl47BGrymQJBaS0Cgd7bB
tjvkQP6gfUAwJavBT/e3QAsJl0AeToXBG4i5QNSxeEAQUcDBajn4QBwXlUAD6bTBhqzVQEJ1okBr
Ar3BlLOyQBGcBEDwDaTBQMLIQArYLkBJEK7B2k2VQGCsikA1yMfBcn8JQcZ0u0C9NrHByjO7QFQm
TkAqHIfBpApVQDgiZMBYbZ/BYr2uQGSYOEAkBpLBdW2IQLQQKUAOWqHBbOpJQFb9bUAZRZLBjGfv
QEHJ6j+QUJfBdGXpQPFas0DxZsbBwVe5QFCTPMCdm7LBnePmQKHZkr+9/rnBnuh/QPhpGL5oeJzB
8D8CQUdaxT9Ev67ByJXpQNcQ0D8kSrvB6Pf1QPuCpkBaVY3BfjPjQHphz0AsEITBodabQFsV0EAU
TI3BMKOuQP81p0Drj5bBKD6QQDb2d0BxqbLBErCTQIw9FEApG7nBHC3+QLAWa0DQtqXBOVfQQHnp
lUBrxKbBgX2oQJ+mnkAYk3vBjw7NQF6WS0AP8MTBHzcHQVrMfUA827jBUnXBQKq2u0AZlbnBo8GA
QH03oUAAncPBj6aCQJz8XUAFNsrB9tSiQDD6mUCI0s7Bem7+QKSH0kBaO63BUwQRQQBwykBLGbjB
d8kVQdKnsED+ravBzh/cQOT3OECGtYXBSX6mQP9nLEAecYHB6KRcQP6tK0D4M6bBknFOQJ20gEDA
uYrBiX4VQAbndECLrJbBRFH6QIJdnEAcbsnBei5/QAKMLcBD4KLBzYW2QC0p+L94Z6/BaVLQQBLq
bb/norPB2fyVQESnvb7P86LBQIuZQOme1L9cH6fBeUjMQDx2sz5kha/BJnuvQI0PIT8WP6fBXD3L
QJr6DUAlVpnBfeuHQPiRR0BY2ZbBwBPlQK6FyT/DorLBCSDbQNpAtEBeEInBJmewQAqrtEAhl47B
GrymQJBaS0Cgd7bBtjvkQP6gfUAwJavBT/e3QAsJl0AeToXBG4i5QNSxeEAQUcDBajn4QBwXlUAD
6bTBhqzVQEJ1okBrAr3BlLOyQBGcBEDwDaTBQMLIQArYLkBJEK7B2k2VQGCsikA1yMfBcn8JQcZ0
u0C9NrHByjO7QFQmTkAqHIfBpApVQDgiZMBYbZ/BYr2uQGSYOEAkBpLBdW2IQLQQKUAOWqHBbOpJ
QFb9bUAZRZLBjGfvQEHJ6j+QUJfBdGXpQPFas0DxZsbBwVe5QFCTPMCdm7LBnePmQKHZkr+9/rnB
nuh/QPhpGL5oeJzB8D8CQUdaxT9Ev67ByJXpQNcQ0D8kSrvB6Pf1QPuCpkBaVY3BfjPjQHphz0As
EITBodabQFsV0EAUTI3BMKOuQP81p0Drj5bBKD6QQDb2d0BxqbLBErCTQIw9FEApG7nBHC3+QLAW
a0DQtqXBOVfQQHnplUBrxKbBgX2oQJ+mnkAYk3vBjw7NQF6WS0AP8MTBHzcHQVrMfUA827jBUnXB
QKq2u0AZlbnBo8GAQH03oUAAncPBj6aCQJz8XUAFNsrB9tSiQDD6mUCI0s7Bem7+QKSH0kBaO63B
UwQRQQBwykBLGbjBd8kVQdKnsED+ravBzh/cQOT3OECGtYXBSX6mQP9nLEAecYHB6KRcQP6tK0D4
M6bBknFOQJ20gEDAuYrBiX4VQAbndECLrJbBRFH6QIJdnEAcbsnB

> <OMEGA_E>
swKEwRj/g8FnpIPBZ6SDwThRgsFoIYHBiBt5wYgbecE=

> <OMEGA_NBR>
    102684

$$$$
298716
  -OEChem-04172616093D

 61 65  0     1  0  0  0  0  0999 V2000
    5.2587   -2.2314  -19.8171 C   0  0  0  0  0  0  0  0  0  0  0  0
    6.4710   -1.3039  -21.7618 C   0  0  0  0  0  0  0  0  0  0  0  0
    7.0011   -0.1923  -22.4543 C   0  0  0  0  0  0  0  0  0  0  0  0
    5.3363    0.1783  -20.1773 C   0  0  0  0  0  0  0  0  0  0  0  0
    5.6743   -1.1165  -20.6033 C   0  0  0  0  0  0  0  0  0  0  0  0
    6.7195    1.0992  -21.9862 C   0  0  0  0  0  0  0  0  0  0  0  0
    5.8485    1.2634  -20.8976 C   0  0  0  0  0  0  0  0  0  0  0  0
    6.4449    2.8615  -19.1934 C   0  0  0  0  0  0  0  0  0  0  0  0
    4.2154    3.3324  -18.9353 C   0  0  0  0  0  0  0  0  0  0  0  0
    7.3016    2.4397  -22.3269 C   0  0  0  0  0  0  0  0  0  0  0  0
    5.1872    3.8307  -22.7056 C   0  0  0  0  0  0  0  0  0  0  0  0
    7.0644    4.7740  -21.3113 C   0  0  0  0  0  0  0  0  0  0  0  0
    7.0944    5.4248  -17.0664 C   0  0  0  0  0  0  0  0  0  0  0  0
    6.1724    5.1456  -15.2012 C   0  0  0  0  0  0  0  0  0  0  0  0
    5.6926    4.5445  -23.9595 C   0  0  2  0  0  0  0  0  0  0  0  0
    7.6548    5.4520  -22.5581 C   0  0  1  0  0  0  0  0  0  0  0  0
    5.7636    4.7761  -16.6265 C   0  0  0  0  0  0  0  0  0  0  0  0
    6.5467    5.7777  -23.5861 C   0  0  0  0  0  0  0  0  0  0  0  0
    5.7336    2.7029  -20.5073 C   0  0  1  0  0  0  0  0  0  0  0  0
    6.3290    3.4734  -21.7102 C   0  0  0  0  0  0  0  0  0  0  0  0
    7.6481    5.1170  -15.6613 C   0  0  0  0  0  0  0  0  0  0  0  0
    4.4658    4.9709  -24.7811 C   0  0  0  0  0  0  0  0  0  0  0  0
    8.3780    6.7391  -22.1259 C   0  0  0  0  0  0  0  0  0  0  0  0
    5.6132    3.2654  -16.8697 C   0  0  0  0  0  0  0  0  0  0  0  0
    4.9256   -3.1292  -19.1526 N   0  0  0  0  0  0  0  0  0  0  0  0
    5.4186    3.0450  -18.2840 N   0  0  0  0  0  0  0  0  0  0  0  0
    4.3423    3.0683  -20.2061 N   0  3  0  0  0  0  0  0  0  0  0  0
    3.0507    3.7928  -18.3400 N   0  0  0  0  0  0  0  0  0  0  0  0
    7.6254    2.6246  -18.9551 O   0  0  0  0  0  0  0  0  0  0  0  0
    7.1679    6.2603  -24.7710 O   0  0  0  0  0  0  0  0  0  0  0  0
    8.2598    3.9031  -15.5434 F   0  0  0  0  0  0  0  0  0  0  0  0
    8.3895    6.1262  -15.1432 F   0  0  0  0  0  0  0  0  0  0  0  0
    6.6739   -2.3034  -22.1170 H   0  0  0  0  0  0  0  0  0  0  0  0
    7.6146   -0.3352  -23.3316 H   0  0  0  0  0  0  0  0  0  0  0  0
    4.6995    0.3322  -19.3187 H   0  0  0  0  0  0  0  0  0  0  0  0
    8.3056    2.5464  -21.8903 H   0  0  0  0  0  0  0  0  0  0  0  0
    7.3606    2.5686  -23.4177 H   0  0  0  0  0  0  0  0  0  0  0  0
    4.4681    4.4873  -22.1938 H   0  0  0  0  0  0  0  0  0  0  0  0
    4.6831    2.9015  -23.0098 H   0  0  0  0  0  0  0  0  0  0  0  0
    7.8766    4.5320  -20.6100 H   0  0  0  0  0  0  0  0  0  0  0  0
    6.3537    5.4596  -20.8267 H   0  0  0  0  0  0  0  0  0  0  0  0
    7.6093    4.9006  -17.8850 H   0  0  0  0  0  0  0  0  0  0  0  0
    7.0233    6.4963  -17.3045 H   0  0  0  0  0  0  0  0  0  0  0  0
    5.8188    6.1325  -14.8678 H   0  0  0  0  0  0  0  0  0  0  0  0
    5.9171    4.3896  -14.4441 H   0  0  0  0  0  0  0  0  0  0  0  0
    6.3036    3.8491  -24.5538 H   0  0  0  0  0  0  0  0  0  0  0  0
    8.3832    4.7720  -23.0239 H   0  0  0  0  0  0  0  0  0  0  0  0
    4.8885    5.3447  -16.9740 H   0  0  0  0  0  0  0  0  0  0  0  0
    5.8863    6.5471  -23.1597 H   0  0  0  0  0  0  0  0  0  0  0  0
    4.7968    5.4891  -25.6932 H   0  0  0  0  0  0  0  0  0  0  0  0
    3.8819    4.0804  -25.0569 H   0  0  0  0  0  0  0  0  0  0  0  0
    3.8403    5.6482  -24.1812 H   0  0  0  0  0  0  0  0  0  0  0  0
    8.8055    7.2346  -23.0101 H   0  0  0  0  0  0  0  0  0  0  0  0
    7.6614    7.4157  -21.6372 H   0  0  0  0  0  0  0  0  0  0  0  0
    9.1841    6.4875  -21.4210 H   0  0  0  0  0  0  0  0  0  0  0  0
    6.5216    2.7434  -16.5346 H   0  0  0  0  0  0  0  0  0  0  0  0
    4.7447    2.8846  -16.3121 H   0  0  0  0  0  0  0  0  0  0  0  0
    3.6019    3.1086  -20.8770 H   0  0  0  0  0  0  0  0  0  0  0  0
    2.2321    3.9440  -18.8940 H   0  0  0  0  0  0  0  0  0  0  0  0
    3.0295    3.9736  -17.3567 H   0  0  0  0  0  0  0  0  0  0  0  0
    7.6991    7.0201  -24.5637 H   0  0  0  0  0  0  0  0  0  0  0  0
  1  5  1  0  0  0  0
  1 25  3  0  0  0  0
  2  3  2  0  0  0  0
  2  5  1  0  0  0  0
  3  6  1  0  0  0  0
  4  5  2  0  0  0  0
  4  7  1  0  0  0  0
  6  7  2  0  0  0  0
  6 10  1  0  0  0  0
  7 19  1  0  0  0  0
  8 19  1  0  0  0  0
  8 26  1  0  0  0  0
  8 29  2  0  0  0  0
  9 26  1  0  0  0  0
  9 27  2  0  0  0  0
  9 28  1  0  0  0  0
 10 20  1  0  0  0  0
 11 15  1  0  0  0  0
 11 20  1  0  0  0  0
 12 16  1  0  0  0  0
 12 20  1  0  0  0  0
 13 17  1  0  0  0  0
 13 21  1  0  0  0  0
 14 17  1  0  0  0  0
 14 21  1  0  0  0  0
 15 18  1  0  0  0  0
 15 22  1  0  0  0  0
 16 18  1  0  0  0  0
 16 23  1  0  0  0  0
 17 24  1  0  0  0  0
 18 30  1  0  0  0  0
 19 20  1  0  0  0  0
 19 27  1  0  0  0  0
 21 31  1  0  0  0  0
 21 32  1  0  0  0  0
 24 26  1  0  0  0  0
  2 33  1  0  0  0  0
  3 34  1  0  0  0  0
  4 35  1  0  0  0  0
 10 36  1  0  0  0  0
 10 37  1  0  0  0  0
 11 38  1  0  0  0  0
 11 39  1  0  0  0  0
 12 40  1  0  0  0  0
 12 41  1  0  0  0  0
 13 42  1  0  0  0  0
 13 43  1  0  0  0  0
 14 44  1  0  0  0  0
 14 45  1  0  0  0  0
 15 46  1  0  0  0  0
 16 47  1  0  0  0  0
 17 48  1  0  0  0  0
 18 49  1  0  0  0  0
 22 50  1  0  0  0  0
 22 51  1  0  0  0  0
 22 52  1  0  0  0  0
 23 53  1  0  0  0  0
 23 54  1  0  0  0  0
 23 55  1  0  0  0  0
 24 56  1  0  0  0  0
 24 57  1  0  0  0  0
 27 58  1  0  0  0  0
 28 59  1  0  0  0  0
 28 60  1  0  0  0  0
 30 61  1  0  0  0  0
M  CHG  1  27   1
M  END
> <OMEGA_C>
C0eoQMnPDsBaiZ7BjxLPQHzlpr8WGK7BXgngQKDnRL5korPB6sKqQKSaNj4ra6HBg5O1QATqjr+h
06TBvgXXQBS0jD/T46/BiCa7QHq2oT86LqfBwDzOQIciN0AkjJnBfOSGQGFFVUBze5fB/qbpQFkj
HECInbLBPv2lQKkqdUD8pLXBwg/iQI/EmEB3farBegXjQMiXrUDqh4jBl4TFQBSppEAUOHPBHiq2
QNtskUAUrb/B3vP0QCV3rkD+drTBlG+4QGjVmEASA4XB5H7RQK3iuEBSsLzBDHq3QLv7LEDrDqTB
bIfKQN9LXkCCrq3BMb30QC++o0CJlHrB/eeOQIMRn0DFP8bBGgwGQW+m10DoAbHB+Z6zQIn7UEAl
9YbB356dQFlFSMCaOJnBJGWtQMnhQkCaRZLBVPSKQHlfREAWpqHBDD9DQP+8ckBduJLBGAP0QIH5
J0AOpJfBIV/lQFBUyED6KsbBMSgEQanLeUCpsXjBmDsGQTkKxEBgSnLBs5DVQOZqE8Ca77DBfKrz
QGilq74ip7rBoWKWQCkcqj6vjJrBuuMEQYD3IkA/H6/BWorrQD1jJECLV7vBzPqOQKCXj0DSjLHB
XdyVQHeyOUD8E7jBYA38QDsGkUBL4aTBaVHLQMy0rkAAnabBd3/zQN7RnEB0FI/B8L7gQPjhz0Cg
b4rB8TO6QCQ9xECC4m3ByVi9QOF3jEDbGmfBubbJQFRYdkA7bsTBkyEGQXC0mEDzMLjBZ26cQN0H
q0C8yofB2ly8QC2C0UAkR7nBM3+ZQNmmr0C6i83B3HB4QKWSgkCVdMjB98Z1QEa+tEAkc8HBaOMM
QYCB50CYFLjBiyr1QBFN7UAIGa3BAfISQX2Zz0BNXqvBEbHQQKSUL0DIRoTB+dSXQHidOEA1f4LB
zYRmQH7zRkANBKfB+tkOQElqfED2JpfB3uJBQOpPfkCa2orBqV72QOqk4EBmgsTBB3KbQEP7E8DW
mqPBbJPPQOj9or8n1a/BX/rkQOx1Cb6L1bPBSJqmQAqfAD7qWKPBsouwQIy7kr9LnqfBIdPaQIc7
kT+xsq/Bxr67QO/ynz81k6fBGkfOQICuOUAaZpnBtS2HQA7lXECdZZfB8oLsQOy/IEBvArLB+tWm
QKrjcEB2crbB7F7eQCesm0AQhqrBvDa6QPQFykBCWI3BkdTLQJFtwEAXmXrBaGS3QFwIkkAXRcDB
n67wQIcZtEDXR7TBoc+sQHSOqEDX2oTBCfLMQGB4vECJq7zBKhi3QI9xLECABaTBQizKQFjpX0Ch
vq3ByZLkQNyk0EAFQYfB4WmRQLxUm0CY3sfB2TsCQYq33kAmX7DBIku4QED/cUCULYfB6k2KQNTv
UMDaWaDBwIyvQLp5WUDdZ5LBY1iKQO+0QkBEYaHB+E9CQMTBd0ChrpLBEO3zQMFqKkAQYJfBeNXe
QJN60UB1zcXBWokCQQWrtkCYhIrBqajwQIZd+kDcmobBbufWQF3uD8AeDrPBPOr8QMFYcr4ZA7rB
oGGPQJIIbT4sAZ3Bso0FQa1WKkCR063Bxj7xQKaOKUDoqLrBaqiMQGalikDkt7LBl56aQMnTMkBb
Q7nBf2z4QOzLlUCWyqTBtZ3FQN6Lr0DHuKbB4hC+QJX4vEDidZXBzpSlQJCE5kDuo43BxMa8QPHh
2UBiDXHBWoreQHhoq0B1BnDBCSXPQCPxfEAZi8TBWfQEQeGSoEAXALjB4jWLQBJVrEB6aILBi2a0
QDbl0ECO97jBet+cQBtzrUBf2c7B/0WDQDLgeUD5jcrBNy1yQMA1rkADm8PBwcsIQXZc8EA/PrfB
aZ/rQFAl8kDVdqzBVyAPQTDx10AqoKrB94faQKxKaECOiIXBijqlQIfRSEBx3YHBspdjQI50PkDq
e6bBBRAMQKTrd0Av7ZbBMeZBQIdzhUB2DIvB7QrsQAly60CmocPBgMihQJj7FcCC8KHBHOfUQHoF
pr/ZY67BsLToQAgEGr7Zv7LB7b2oQFja2T1SpKLBGCa1QDLslb99WabBzR/cQJ7Hjz+ILK/BaQS8
QBgxnj9TS6fBpnDNQGDDOkCsupnBWRuHQJB+X0CKbZfBsBrsQHawIEDH3rHBhValQIxwa0BynrbB
jIzbQBPpm0DDzqrBgNAEQci+VkCoD4PByL/vQG0HnUBZMXTBg2O1QDuwjkBfkcDBShztQMILtEBN
trTBZV3mQFsMjUAeiYXBLVnJQBo2ukAKOL3BKtu1QDbYK0DbEKTBqqPIQN6SXkD82K3BHQAPQY5A
jEBqRnfBnF+PQBC3lUDqS8jB8VL/QN7A30DkFrHBx5G4QHAtdkArZ4fBHv6RQKQ/U8DDXZ7B+1Sw
QALYYUBN1JLBbUmJQBROQUA2QqHB+kdCQKxueEDDg5LBae3yQH6mJ0BsTJjBWc7aQGC+zkCoeMbB
zN8XQfiudEComWXBw3EcQQMGqEDttoDB6ATeQNTEEcAQNLHBf6MAQXSHgL6GxbjBchWRQNdZWT6e
ZpzBmkQFQcWsLUCawa3BMJnwQFt4J0CUjrrBPomKQJuFh0DSDLPB9R+aQNQVLEBCPbnBj8T1QLNB
l0BuDaXBhDfCQAFVr0A5GafBowT+QNeaHEC9En7ByrgOQemyREDO+YnBsS/tQIHhv0AGFXLBsHTd
QOTEjEAni2fBBfXNQHr1dkAQpsTBLI4DQRQQoUBrRbjBuiLwQIsLpEDnu4vBDwCwQNsxzkBbtbnB
C2iaQK5op0DnYs/BIWuCQOIPbUDwx8rBeX9sQJUyqEC4N8TBj+4FQZoa8UAtE7jBY8TlQCWy8kB9
Uq3B5qQMQd+I2kDkSqvBPLa0QHVoO0Cup4LBLyKhQIEZk0ACvoTBj2RgQFP3OUB0I6bB8NsKQPPn
c0CreZbBzyNDQG9wh0AMBovBbg/nQAlj6UAfeMTBJuKLQCDHEcD0IZzBiAbCQAAf1r8WnKnBpGPa
QAAwNL9eIa/BzA6eQACxsj0kQ5/BdAGkQNACpL+Ws6HBqjrUQEC8KD8R0azBpiG2QBDThD+Y+qTB
7izOQEihOkCUSZnBWkCJQGDmbUBCOZjBC73pQBA99D9p/rDByL2nQFhwT0BLH7fB+B/jQMBfjUA7
3azBoBLXQLgvy0Di3H3BoGKqQET810BiBYvBYO25QNDBcEDo6MHBVa32QPgCnUC4krfB/G7MQHiw
tEDElYnBtE7TQDiSokDwNMDBCPK1QAj2IkAKfaPBQLXKQKBhREDaK67BoOrGQOhD9UCoCITBLIGU
QHANf0AE08nBTDcHQai6x0AfnLXBLCe7QPyPhkA+eYjBoI9wQEDzRcDpm5fBRPewQHj2ZkA0/ZLB
OI+KQNDdREDxa6HBjElKQHyqi0AYSZTBtx3zQEAHKEDO6pbBBm/mQJwyr0AYHsrBBJ6wQP5UB0GK
WXrB0lPlQPCbBUEdmonBWkvGQCoYLsATbavBL4jxQIzYgL+QErXBPJ6HQFkmyj5ZK5nBN3IEQSmY
A0CKEq3BpFbuQJTe6z/gs7nBT5WPQOo1fUDtQLTBmY2YQO7wEECUiLjBzQ79QL//iEDgA6fBQ6nM
QEXEpUCK6anBTS/EQEwSwEAWF3DBQT/5QAgty0AopXnBlyKmQCX+4kDYT5PBWviKQOV10ECDhofB
CKTPQJEqQEAWPcXBIOwGQccKhUAhZrrB9IrmQKEgt0CcdI/Bed+8QFJeu0Bvdb3BWCShQIhVi0Ag
fdHBXJaDQN40QkBYIcvBGFt8QNk3l0AmesbB+TcOQRQd00A+Kr3BNrn3QFi230AUkbLBcwMUQfe9
wkDdsq/BuIXTQD2AZUDxf4TByOydQO4vh0CAkoPBWSxjQCWgPUBgV6bB/PQTQPuNi0CDg5jBtbJM
QNCrmkDbOY3B0f/1QEoAyUCnHcnB/cioQCyeEMA4iJ7BmtrQQGqcqL8Xyq3BgKfhQNRpT743TLPB
OFarQHxUIj5LQKHB7qy2QNRbkb/0oqTBo7jXQCQXiz8Uqa/BjXO7QODCnz+fBKfBvkjOQNDhOEAq
q5nBzSeHQJTkWUDwfZfBl8bpQLpyG0DKeLLBRhCmQIjmc0BCprXBWN/hQCaRmEBcf6rB4BzgQPwB
jEDFwG/B4AfbQK+esUCNlIXByJm2QMWPkEC/sb/Bl3r1QARrrUD/fLTB4yfcQM/9gECisoPBVFXS
QAnlt0BPxbzBERm3QK5sLEB+/6PByVTKQBSEXUBEoa3BgZP4QEk2tEANbXfBy4mPQA9snkD2S8bB
jasGQe5P1kA1IrHBz++zQMqtUUAw5YbB+omdQIXSSsBdbJnBYCuvQLCQVEBSgZLBWJ+KQDyrQ0Al
iKHBXhJCQGqzcUBYqZLB4r3zQAg1JUDWDJjBEJ7mQF/PxkCVP8bBcfDxQN8D10BR62rBz2cRQYpp
rUAfAnzBFvzXQOcwFMB6kLDBA+D1QIaKrr5tN7rBdM2WQBdEnT5yZ5rBqe0EQWg/I0Dm+67B7KLr
QMcMI0BANbvB5PCOQIEQj0AeobHBCACWQGlQOECuELjBG3T7QAcakUB6v6TBUfrKQJrerkCOz6bB
n6XBQKBykkDbi2fBcCTzQFetakD2OWbB4XfpQMxqvEByI43BgnG7QPGkwEA6mITBAPfJQB8TdECI
asTBiTkGQVIFl0DnG7jB+mb5QNtrZEBC6YbB0mO9QLvc0EDCcbnBy1OaQOvVrkBpmc3BD055QOcL
gkBCfsjByUl3QBpPtECKhsHBzcENQUWB5UCrPLjBbb/2QO+f7ED5Va3B7WkTQRcQzkDXbKvBM322
QByxDkDJQ4TBQuqXQHGZb0CMGoPBAvZkQG6hQkD9x6bB9NwLQCWSckCo6ZbBzUlBQHoAgUAQ7YrB
FtP3QJUA30DUnMTBRDqpQLDeDsAdkp7Bg3LPQEs6pr/GNK7BMyrgQAi7O77pv7PB8RurQLzlMz72
faHBtR+2QCfqjr+A56TBQxTXQFKmjT/++a/BQzi7QIfjoT93QqfBAtTNQPxbNUDzfZnBd66GQOpE
U0CAdJfB5qjpQPC7HEBCr7LBiJWmQNamd0A3j7XBBvjiQGWSmEA/O6rBjgbrQMAko0DoO4nBlrPK
QCZtpEBQOXXB0AO3QMG4k0Blbb/BacT1QCEmr0D5F7TBZXa9QH1zlkBLz4XB+v7RQKH6ukCbGbzB
UXq3QOraLEBJEaTBJejKQODsXkCRnK3B+8HpQBzfw0CZIYDBAfGPQOa0oUCsBsbB/eQGQZl/10A8
Z7DBlRqzQJQ4TkBN6obBlN+eQE5CSMDINJnBlqWsQJxUPUCRMJLB7fOKQCQ7REATq6HBVepDQBCf
c0A+t5LBU8HzQEyAJ0BtoZfBjFblQMduzEDsbcXBA9cHQecgyECv6nXB5snXQCf66UB09YLBOADW
QKf8EsCxErHBY6vzQLcNpb5+y7rBKMaWQG2hpj4InJrBJfsEQSc1I0B5SK/BwiPrQIRoJUDjaLvB
VYOPQI5vkEB7XLHB3naWQMLGPEBkNrjBwhH9QOoHkEABuqTBrI/MQPlSrkDPK6bBFZcBQbrPiUCH
TYjBSHHtQBYCsUDPTJHBZzCxQESos0CgyWvB4jvaQNxqi0Brk2vBw+rKQAoVfEBEQcTBokEGQXh0
mUAHDrjBKM2kQEY/q0DAVInBScS8QAew0kDrVrjBAbqaQJUGs0ByMs3Behd7QGdMhUDqccjBtSV3
QFDNtkBuKMHBFbQNQcL150ClZbfBTm73QCIP7UBIQ6zBp9oTQZRVzkBT6KrBOdXNQIxyJ0C93YPB
lduVQAvbPkAXaYLBC9BmQNQMSECFEKfBWKkQQGCNgEBYM5fBHjZCQAp3fUBZ0IrBJBP2QLqj5EA1
hsPB0gqhQC3UCcDPQp7BlVXJQOjUp7+H6K3BmzLcQD5ocL51grPB4a+nQCJbdj4xUqHBTjKwQAlB
ib8WqKTBCHfVQIlaiT8I1a/BaiK6QE4/pT8PGafBi/XOQME+OEADeZnB1AiHQJSdUkBDipfBuETq
QHkKGEAkq7LBKU6pQEWTeECRzbXBMSnnQL1al0AH06rBPGqoQH8+v0AJOY7B0gHoQOeCsUCtVIrB
4Mu6QPKCkUCo9L/BrY37QHPpqkBh7bTB5zS9QDF6oECP84XBntTYQHc8t0DWLb3BEJm4QNsvL0Da
FaTBkRXNQH31XUBZza3B2QrQQPOm20Ceu4zBlHCUQC9foUAKjMbBQ98KQX+M0kCutbHBi/W0QN7Z
X0BhGofBnOCUQFNNQcAW0pjBLiSuQEYIRkAtNpLBimaMQLNRSUCQ1aHBhhVCQLumbUCY6ZLByp70
QLXkKEAjeJfBoY/tQP24xEARvsbBbh7dQIg970C/4ZXB5D/NQPC/9kA0PITBDhfOQIaoFMDbsLDB
P4bvQGlf1b7XhbrBYHiTQAqh3j7xfJrBYEoFQbCqG0AlNa/BY0HsQM9fH0ATaLvBQruTQLf3kkAi
x7HBlkeXQAkEP0CHHrjBQkUAQVuHjkDUI6XB5MrRQCMKr0CjGqfBVo+kQITQsUDETJbBPhWKQGDM
zUBxoovBEdsAQVY/tECSW4TBZCH0QEaaoEDTbZHB/a/MQKZlc0A4pcTB9I8IQeQuk0BOjrjBNn+3
QExpq0A4a3vB13vFQMB20UC72rnBFwCgQOTOsECi6M3BXLt/QIwQhkDKo8jBRPuBQEWYuEBez8HB
3jcSQXC94EBc4LjB6UYAQUYr6kCn5q3BqXwXQa0WyUAaDKzBi8zQQPoAPUDT74PB+lmYQOoIT0Al
bYLB+H9rQJOgUkA8XafBspQPQNBAe0DghZfBq8k9QB6Mc0Dx9orBaxgAQdDu20CXMcXB

> <OMEGA_E>
aQ2DPwOHjD/zk4s/4cOKPxrygz+WcYM/0qyCPw==

> <OMEGA_NBR>
    111268

$$$$
298718
  -OEChem-04172616093D

 63 67  0     1  0  0  0  0  0999 V2000
    5.0910   -2.2627  -19.9144 C   0  0  0  0  0  0  0  0  0  0  0  0
    6.3685   -1.3340  -21.8103 C   0  0  0  0  0  0  0  0  0  0  0  0
    6.9391   -0.2294  -22.4779 C   0  0  0  0  0  0  0  0  0  0  0  0
    7.3311    5.2704  -16.8058 C   0  0  0  0  0  0  0  0  0  0  0  0
    5.3101    0.1563  -20.1746 C   0  0  0  0  0  0  0  0  0  0  0  0
    5.0192    5.7734  -16.2912 C   0  0  0  0  0  0  0  0  0  0  0  0
    7.6336    6.6311  -16.6173 C   0  0  0  0  0  0  0  0  0  0  0  0
    5.5814   -1.1417  -20.6462 C   0  0  0  0  0  0  0  0  0  0  0  0
    6.7057    1.0605  -21.9802 C   0  0  0  0  0  0  0  0  0  0  0  0
    5.8680    1.2376  -20.8661 C   0  0  0  0  0  0  0  0  0  0  0  0
    6.0086    4.8321  -16.6239 C   0  0  0  0  0  0  0  0  0  0  0  0
    5.3895    7.1236  -16.1062 C   0  0  0  0  0  0  0  0  0  0  0  0
    6.4687    2.9152  -19.1779 C   0  0  0  0  0  0  0  0  0  0  0  0
    4.2306    3.3557  -18.9276 C   0  0  0  0  0  0  0  0  0  0  0  0
    7.3000    2.3865  -22.3293 C   0  0  0  0  0  0  0  0  0  0  0  0
    5.1803    3.7691  -22.7173 C   0  0  0  0  0  0  0  0  0  0  0  0
    7.0797    4.7422  -21.3848 C   0  0  0  0  0  0  0  0  0  0  0  0
    5.6741    4.4328  -24.0067 C   0  0  2  0  0  0  0  0  0  0  0  0
    7.6784    5.3520  -22.6635 C   0  0  1  0  0  0  0  0  0  0  0  0
    6.5741    5.6539  -23.7018 C   0  0  0  0  0  0  0  0  0  0  0  0
    5.7551    2.6902  -20.4905 C   0  0  1  0  0  0  0  0  0  0  0  0
    6.3340    3.4334  -21.7259 C   0  0  0  0  0  0  0  0  0  0  0  0
    4.3590    8.1212  -15.6200 C   0  0  0  0  0  0  0  0  0  0  0  0
    4.4404    4.8721  -24.8116 C   0  0  0  0  0  0  0  0  0  0  0  0
    8.4292    6.6405  -22.2915 C   0  0  0  0  0  0  0  0  0  0  0  0
    5.6528    3.3880  -16.8427 C   0  0  0  0  0  0  0  0  0  0  0  0
    4.6945   -3.1711  -19.3014 N   0  0  0  0  0  0  0  0  0  0  0  0
    6.6781    7.5241  -16.2618 N   0  0  0  0  0  0  0  0  0  0  0  0
    5.4504    3.1565  -18.2698 N   0  0  0  0  0  0  0  0  0  0  0  0
    4.3603    3.0492  -20.1916 N   0  3  0  0  0  0  0  0  0  0  0  0
    3.0463    3.7838  -18.3497 N   0  0  0  0  0  0  0  0  0  0  0  0
    7.6578    2.7385  -18.9353 O   0  0  0  0  0  0  0  0  0  0  0  0
    7.2051    6.0523  -24.9135 O   0  0  0  0  0  0  0  0  0  0  0  0
    6.5321   -2.3324  -22.1884 H   0  0  0  0  0  0  0  0  0  0  0  0
    7.5465   -0.3754  -23.3589 H   0  0  0  0  0  0  0  0  0  0  0  0
    8.1053    4.5717  -17.0866 H   0  0  0  0  0  0  0  0  0  0  0  0
    4.6896    0.3132  -19.3047 H   0  0  0  0  0  0  0  0  0  0  0  0
    3.9893    5.4682  -16.1786 H   0  0  0  0  0  0  0  0  0  0  0  0
    8.6488    6.9715  -16.7589 H   0  0  0  0  0  0  0  0  0  0  0  0
    8.3030    2.4879  -21.8893 H   0  0  0  0  0  0  0  0  0  0  0  0
    7.3648    2.5051  -23.4210 H   0  0  0  0  0  0  0  0  0  0  0  0
    4.4769    4.4520  -22.2185 H   0  0  0  0  0  0  0  0  0  0  0  0
    4.6611    2.8356  -22.9800 H   0  0  0  0  0  0  0  0  0  0  0  0
    7.8880    4.5260  -20.6707 H   0  0  0  0  0  0  0  0  0  0  0  0
    6.3748    5.4571  -20.9352 H   0  0  0  0  0  0  0  0  0  0  0  0
    6.2480    3.7013  -24.5946 H   0  0  0  0  0  0  0  0  0  0  0  0
    8.3909    4.6368  -23.1004 H   0  0  0  0  0  0  0  0  0  0  0  0
    5.9423    6.4674  -23.3158 H   0  0  0  0  0  0  0  0  0  0  0  0
    4.8416    9.0953  -15.4522 H   0  0  0  0  0  0  0  0  0  0  0  0
    3.5681    8.2295  -16.3769 H   0  0  0  0  0  0  0  0  0  0  0  0
    3.9183    7.7633  -14.6779 H   0  0  0  0  0  0  0  0  0  0  0  0
    4.7641    5.3536  -25.7461 H   0  0  0  0  0  0  0  0  0  0  0  0
    3.8240    3.9920  -25.0472 H   0  0  0  0  0  0  0  0  0  0  0  0
    3.8499    5.5849  -24.2174 H   0  0  0  0  0  0  0  0  0  0  0  0
    8.8629    7.0875  -23.1982 H   0  0  0  0  0  0  0  0  0  0  0  0
    7.7290    7.3527  -21.8307 H   0  0  0  0  0  0  0  0  0  0  0  0
    9.2331    6.4035  -21.5791 H   0  0  0  0  0  0  0  0  0  0  0  0
    6.4699    2.7481  -16.4780 H   0  0  0  0  0  0  0  0  0  0  0  0
    4.7285    3.1496  -16.2961 H   0  0  0  0  0  0  0  0  0  0  0  0
    3.6169    3.0577  -20.8604 H   0  0  0  0  0  0  0  0  0  0  0  0
    2.2216    3.8743  -18.9080 H   0  0  0  0  0  0  0  0  0  0  0  0
    3.0163    4.0024  -17.3744 H   0  0  0  0  0  0  0  0  0  0  0  0
    7.7638    6.8026  -24.7482 H   0  0  0  0  0  0  0  0  0  0  0  0
  1  8  1  0  0  0  0
  1 27  3  0  0  0  0
  2  3  2  0  0  0  0
  2  8  1  0  0  0  0
  3  9  1  0  0  0  0
  4  7  2  0  0  0  0
  4 11  1  0  0  0  0
  5  8  2  0  0  0  0
  5 10  1  0  0  0  0
  6 11  2  0  0  0  0
  6 12  1  0  0  0  0
  7 28  1  0  0  0  0
  9 10  2  0  0  0  0
  9 15  1  0  0  0  0
 10 21  1  0  0  0  0
 11 26  1  0  0  0  0
 12 23  1  0  0  0  0
 12 28  2  0  0  0  0
 13 21  1  0  0  0  0
 13 29  1  0  0  0  0
 13 32  2  0  0  0  0
 14 29  1  0  0  0  0
 14 30  2  0  0  0  0
 14 31  1  0  0  0  0
 15 22  1  0  0  0  0
 16 18  1  0  0  0  0
 16 22  1  0  0  0  0
 17 19  1  0  0  0  0
 17 22  1  0  0  0  0
 18 20  1  0  0  0  0
 18 24  1  0  0  0  0
 19 20  1  0  0  0  0
 19 25  1  0  0  0  0
 20 33  1  0  0  0  0
 21 22  1  0  0  0  0
 21 30  1  0  0  0  0
 26 29  1  0  0  0  0
  2 34  1  0  0  0  0
  3 35  1  0  0  0  0
  4 36  1  0  0  0  0
  5 37  1  0  0  0  0
  6 38  1  0  0  0  0
  7 39  1  0  0  0  0
 15 40  1  0  0  0  0
 15 41  1  0  0  0  0
 16 42  1  0  0  0  0
 16 43  1  0  0  0  0
 17 44  1  0  0  0  0
 17 45  1  0  0  0  0
 18 46  1  0  0  0  0
 19 47  1  0  0  0  0
 20 48  1  0  0  0  0
 23 49  1  0  0  0  0
 23 50  1  0  0  0  0
 23 51  1  0  0  0  0
 24 52  1  0  0  0  0
 24 53  1  0  0  0  0
 24 54  1  0  0  0  0
 25 55  1  0  0  0  0
 25 56  1  0  0  0  0
 25 57  1  0  0  0  0
 26 58  1  0  0  0  0
 26 59  1  0  0  0  0
 30 60  1  0  0  0  0
 31 61  1  0  0  0  0
 31 62  1  0  0  0  0
 33 63  1  0  0  0  0
M  CHG  1  30   1
M  END
> <OMEGA_C>
YOmiQETQEMCzUJ/BosrLQIfAqr+Ie67BVQ3eQADwar6s0rPBx5jqQISnqEBEcobBbuypQBADID6N
ZaHB6pygQO2/uEBqVILBk0b0QEky1EBH8ITBPZuyQN4ikr9fK6XBE5XWQD29hz9q16/BfMa7QONp
nj+/7abBdEbAQI6gmkDP/YTB6HasQG7040B22YDB/v/OQMaSOkBtbJnBcWGHQGrDVkDHa5fBNJnp
QKi8GEBvorLBOsWlQGo4cUAGvbXB8IziQHTAl0ABFKvBTJK1QBrZjUCvDcDBZLX1QLpDq0DTTrXB
/l7SQA7ttEBfnb3BhSm4QPIsLECT7KPBC7DKQBS9W0Clzq3Bo3yLQILwAUGy63nB6xeOQNfnm0Ai
fsbB/90GQaF+1EAOVbLBE+S0QL7VWEDavYbBMDmWQOrzSsA1aZrB8bLVQLrF8EAxGILBj2muQFwD
SkB7KJLBc4eLQNYmQ0B4iKHBJPdCQBwqckA9zJLB8gz1QNpCL0CIe5fBcpDmQB6swUDDTsfBLAfR
QFJFFcC+gbHBKX3xQKk1wL703rrBa68BQbtLkkBlsYjBhRGWQC9eoD7vb5rBLlF/QFz7rkC8bYHB
TWEKQYQW30A7EobBB9kEQVM6H0A6Ha/BOqzrQKZTIEAqXrvBIkOPQC93jkCAv7HBYieVQLV6NUAW
17fBvWr8QBrVkECmXaXBj/7LQJugrkBIe6fBNe/HQDvibEDTwcTB+EAGQb1glECOzbjBCie+QAj1
zkCyhrrBAO6aQIuGEUEdPHfBOFxkQCisA0HpA4PBxsR6QN9s+ECb2GrBjHOYQOZQq0AE+M3BAb10
QCt8f0CcYMjB/WN2QFW3skAovcHBls4NQXTM4kDulbnBlVP3QENJ60A/pa7BzboTQdrpzEDtoazB
QAnPQKnhL0AF04PB10+XQBCTSUB+XoLBN3tnQOCwQ0Av4qbBQy8OQED0d0CdQ5fBFgtBQEgTgECw
/orBQ3H4QC6v2UBf/MXBBdOkQA/wEcDAYJ/BXzTMQKBoqr+It67BBdvdQMRhX76XErTBxEPAQDnn
u0DEhIrBNamqQHSqDz5Kc6HBlOr2QC8ylEBVBIHBqnLbQNDT30BOT4rB1YyzQOJ6k7+BTKXBu2jW
QP5/iD+F+q/B8Pq7QNhnnT+l+qbBW2HOQDd3lUAG0oXBYykIQW1tuUDt7IDBP73OQMrBOEBQTJnB
Si2HQJZcVUBUX5fBD0PpQGRpGUBysrLB9CulQExQcUCZnLXBLxviQAHZl0BkA6vBgoC0QCU6jkBk
7r/Bx730QJnIq0CoRrXBoPrQQN6BtUByeb3BlyK4QKZSK0CZ3qPBfVzKQBjSW0Cuv63BeGQeQQ59
t0A6RnjBCreMQMQCnECtSsbBAVsGQc4N1UARTbLBAVi0QORQWkABr4bBywOZQCReTMA+ZJrBAUcB
QfUo3kBinYXBiditQCv/RkCJBZLBrmaLQA5GQUDrdqHBvzVDQO6kc0DQ3JLBif30QKUPMEBHX5fB
EZHkQJbswkD2MMfBHYHRQBHeFMBRz7HBTM/wQKMItb4wN7vBIRmhQFXNvUDROI7BkwuXQJkPkz5I
b5rBuUMBQZD4bUBE2nrBJvLQQKpU/UDK9o3BV7YEQdLPH0AvNq/BzSPrQE2uIUBsbLvByKiOQDtL
jkCVjLHBDqmUQEx8NUADurfB10H8QP/qkEAeYqXBkJTLQA1/rkAAUafBY/rGQD8tbkCIsMTBbL4F
QQgZlUBz37jBiZ+8QEUsz0D5QLrB1WgmQTCF1kDYc3rBODkdQTA3sEAEGGfBw7InQTdPnkBsKIDB
6LmWQAmmq0CPxM3BxG5yQNNgf0CyLMjBQ3FzQA2OskCLe8HBwxcNQaCd40DykbnBNV72QMCj60AO
g67B9V0TQTNyzUBTsKzByH3FQKwsJUCY0YLBYjKVQIWEY0Cpv4LBKiFnQAviQEBGzabBTRUPQPhM
e0CDZ5fBExxBQKjrgED3EIvBszz2QE8T20CB2sXBo0qlQEaBEsA0Yp/BhHHMQP2jqr98ua7BMbDd
QBDtXr5yIbTB5bn6QIp9jkCvuYDBPXurQIAVCT7SVKHBMiHIQIpJvUAKnInBZLsLQVILsUCTMoDB
hi60QOorlL8ePaXBrULWQNRwiD8gBLDBonW8QIzfnD+O5qbBvIPSQPqslEBod4XBwUzmQA7J3kBn
u4jBWQLPQIJVOkBKV5nBNk2HQNVXV0BBa5fBcnzoQJObGUCY3rLBkySkQK1jcUD9f7XBAL/hQObL
l0CMGavBWL+yQGqkjkCG1L/BAaDzQDrrq0B6bLXBMCfPQE78tUCfZL3BRy64QHoeK0AS2KPBA83J
QDXJW0A/yK3BVVrcQBseBUFSgI3BlX6KQHJpnEA2AsbB8xEGQfjx1EAkhrLBhp+0QEOxXkCxv4bB
8D2ZQM8/TcDRfZrBYZMGQXgT2EAUKYTB2XquQJnXTUBiKJLBLVCLQGvZP0AbZqHB4rBCQFWbc0Ai
6JLBGx31QM+NL0AhZpfBV9LhQOgRxEByKcfBVcHRQPfvFMC51LHBYlPwQCeNs74UVLvB5b4BQSE4
X0B0DHvBUkSYQJtojj4+PprB1Y6pQP69wkCpZo3BhTkbQUphrEALG3nBoHYEQXWbIEBrka/By4zp
QJalIUCfm7vBY8CNQD4YjkCgUbHBY6qTQPOENUDonLfBaU38QCXDkEAUmaXB7n3LQApfrkAtRqfB
dw7FQMeBb0D8s8TB8fEEQbstlUABL7nBN+26QNFTz0C/97nBfxz4QAi/D0FCe4zBg0TVQJpSA0EF
E5bBGHLAQOEODEF8aYnB/PSTQM9TrEAnfs3BnwxuQAIMgECL3sfBCmFvQOy1skBDFcHBXIcMQW+X
40By2LnBak32QBuX60CHk67B700TQeIFzUBHEq3Bq3XCQFfbJUAr4ILBRaKVQODPbUASB4PBgXNm
QFZuPEDnpabBnZ4NQP3zdkC6W5fBZvpAQDBUgkDqMovB2G7zQORF3ECC1cXBdWGhQHDoD8AoSZ/B
D+HKQIrmqr/Qaq7BrI3dQCQvcr6mwLPBnBScQO+St0CVr4LBjgapQDxXKz6ObKHBcdfmQBAbrEAj
4YbBRNakQOug40Cu04HBR3axQIgikb+6J6XBwGTWQNQ8hz/Dy6/BbGu7QBIAnz9G7abBWLi9QHZY
m0AAGIXBEYztQD6R2EBb6YXBkxjPQJ15OkCFZ5nB/H2HQDm8VkBTbJfBsszpQHE9GEBglbLBxFSm
QEGLcUCfyLXBiwjjQMScl0BcBqvBiHy2QNsejkBLDsDBlm/2QO8tq0AnNbXBaz3TQKQmtUDlhb3B
pEK4QIV+LEDg7KPBPgfLQKuzW0B6zK3Be4wMQY4U60ApiojBZzuPQLZKnEBgkMbBi1UHQf421EAI
KLLB+x+1QCf9WEA8u4bB9meUQFWgScCvWZrBecfMQB5Z80AQb4PBDn+uQPl8SUBKI5LBZsGLQPFF
REAgkKHBoONCQJmhcUA+1pLBMyX1QOVjL0AAcJfBtJjnQKw8wkBXKsfBgfrPQMl9FcBYaLHBHBHx
QM5jx74fx7rBcPd3QFanq0DvgoHB1vGUQAbcqT4uhJrBZ4MAQagol0B3+IjBdS+LQJ9j+UB1sH/B
V+0EQZhMHkDyBq/Bzw/sQLG4H0C8ULvBYsKPQEyfjkBq0LHBv7WVQDDuNUBo8LfBdMf8QAKFkECy
SqXBuoPMQCGKrkAmb6fBxfzIQBmDbUAWvcTBaJMGQYw6lEDXtbjBb/m+QIASz0BuZbrBQOALQbcY
B0EeBYjBh28YQWrg3kDaz4LB/iYRQUCb4UBIspDBfNiZQOHGq0AJAs7B1hR3QLIrgEAlgsjBumh4
QEIRs0D81MHBFV8OQfKU4kDjYLnBWVf4QLoQ60A7dq7BayEUQVxdzEA1cazBP6TQQH9lM0CI5YPB
zlGYQIY4RkArQILBFjZoQNkRRkCM8qbBJGgOQEHdd0A9WZfBiXBAQGXQfkCxA4vBOm75QNA32kDo
xcXBqDObQDLfE8BS4KPBYgbPQIyLob/pIrDBD2fkQF7k9b1LGLTBGXm6QGw4xUAQNo7BWZ2mQFCh
AD7KdaPBBTrYQIHRtUCajHnBRg7GQB9f8EBIwYzBc0iwQPAukr8p2afBjYTaQJGHkj971q/BNsC7
QJpYoD9Fo6fBajDEQGAHp0ApKobBBjnjQMSP4UB+rnfBB0HOQFT1OEAsTpnBehOHQA2sW0DCW5fB
DUnsQK9wIUChEbLB96mmQLiQckAbS7bBVcfeQEe+m0CrW6rB+Au3QBMdk0DQFsDB4sPwQB6JtECK
HLTB/tbMQB5UvUCebbzB0TW3QOhrLEDA+6PB4jPKQPiPYEArqq3B44r3QBPB8UCbPWPBv+eQQCDO
nEACnMfB7WgCQeny3kCsJ7DBPTq3QOYocEBqD4fBuxGKQPnxUMBSp6DBbt3ZQPLa/UDcu4PBOe2u
QFd+VEBHMZLBvGeKQMtCQkCtXKHBdL9CQIDceEB8spLBSgf0QBYdK0D0RZfBr5XeQOKO0kDCjMXB
0CbWQN//DsDlcrPBox38QAZoXr78VLrBM0eqQH5Ju0C2bZXBp5iPQD+IZz7UEJ3BhyffQG/jn0Cc
pmzBvPe+QGigA0Gf+5LBdYIFQV92KkAC7q3BP8nwQJvmKkBVt7rBUbGMQGF+i0BrerLB3zKaQLLV
NECZJ7nBABH5QJ10lUCIuKTBF0/GQAGPr0CObKbBnJ7OQNE4f0DgcMTBpukEQS4WoUD17LfBxHe0
QP650UAvpbjBfwj8QCJNCkEETGTBUZjiQHpC6kAPmlXBa2ILQaoo4kCy9mDBlkGcQIgar0Acks7B
uZOCQAAcfUAjVcrBZIdxQOqjr0C7RMPBb9kIQRPS8EDKBLfBsjDsQBFK8kDvIqzB/WkPQcnk10BX
fqrB7i7RQCeWSECfw4PB/e+ZQM84ZkAdV4LBjN9jQF9FPkBTfqbBuOoMQAqCe0DvApfBdWFCQPWY
hUBZCIvBuvPrQEBn7EBXWcPBYz2cQAs4FMCDpKPBMhHRQIjnob+inK/Bm3zmQE54973bg7PBUIv0
QMqfFUDyuoDBmq2mQEgNAD6UXKPB40r+QFE1l0AU5ILBnFMQQb6WDkApIn3Bh1axQP+Nkr9Rj6fB
g5zbQI+ykj+sda/BPby7QLuOoD9ahqfBwQrjQDu0ZkDcBYPBoREVQReLkUCXfYDB88XNQHCeOEBz
VpnBcuWGQJqxXUAjY5fBxzztQLa4IUAvrrHBbe2nQK17ckA9RLbBQdfeQIXnm0BL/6nBrTC5QJkn
k0DK8b/Bz57xQBfOtEBVoLPB7nXOQLJzvUBlJbzBI862QA+LLECz66PB+6fKQAq3YEBedq3B/Iwj
Qes8uEDScn/BS8KTQCGsnEBFsMfB45gCQddC30AAjK/BrOy0QKabbkC/vobBpxSLQL5xUcB3eaDB
2jgdQShKVEDnzHzBHROvQBsfWkAsTZLBoyCKQKf9QkDjV6HBl5VBQAx4eECbspLBKbbzQOBhKEBO
2ZfB8wPhQA2+0kBmJ8XBa+vYQHlKD8A4ybLBbv3+QOpdX77fjrnB2l7gQPEDuz8BooDBYf2OQDPv
Zj4/H53BpNfxQNy1tkDbmoTB8hoXQXh+oD8kA3rBANUFQfRSK0Dqa63B60fyQMjWKkCRULrBc42N
QEVbi0BDmbLBc9ObQF60NEBJNbnBOKD4QCKflUBiN6TBAvjFQF+dr0CjMKbBx0LRQAKCf0DqJsTB
PIwFQVN1oUBnTLfBn6e1QAvB0UCTgrjBsr0zQcj5rUAo1XrBajEkQUNuyEAAiIfB2z0dQdNxzkB1
VnPB9bCfQC8Kr0DQk87BZdiFQIu3fEAkgMrBbzp2QK9hr0A3fsPB51AJQYcz8UACVbbB2SfsQBuD
8kBuqavB7FoPQT5B2EBNvqnBMCOhQKxhQkDvAoLBbi6qQP1bmECVWoXBmURjQB+IPkAWdqbBslgL
QI4jeEC78ZbBJA9BQBEFhkDIFIvBXhHuQMWi7EAx38LBQWicQElHFMARoKPBkx7RQBDjob+Bnq/B
G3nmQCJD9r0cibPB51P+QMzIl0AH+oLBR8imQKjW/j0YWqPBH9P0QGu4FkCL1oDBBBMVQdIUkkAq
rYDBY3KxQC+dkr+MjafBypfbQDvAkj8peq/BDse7QOaJoD+uhqfBvCLjQOTFZ0BZCoPB2Y4QQW13
D0Cvn33Bt9HNQEHGOEBFWZnBHO6GQKSvXUACYpfBTSntQNbDIUDztbHBscmnQLdhckD6RbbBP8He
QIbrm0DJB6rBAfa4QPAYk0BP9r/Bam7xQOnUtECRq7PB9zXOQI9svUCWLbzBmM+2QNeLLEAZ7aPB
b5TKQI21YEA9e63ByWYaQZQuXj+yGXvBRXeTQJOMnEA2scfBenwCQUdR30AMmq/BngG1QLZCb0Br
wobBX0uLQJKHUcD/cqDBu2kdQdl/VUDdh33BoCKvQJRbWkAvT5LBaSGKQLzmQkAuVqHBZ6pBQPlX
eED1rZLBGsfzQFilKEDv35fB+7DgQHC10kBJMsXBqvrYQLBGD8BHy7LBEe7+QO09Xr5Dl7nBX8/x
QNZHt0CeqoTB1iKPQILMZT4UGp3BFKngQPQwvT+Bs4DB0HQfQd2wrUBlboDBeM4FQcRwK0A3d63B
+yPyQNrbKkAIWbrBxWuNQGtKi0DjmLLBxbGbQKiRNECtNLnBN5j4QD+qlUBOQ6TB2OXFQJKcr0AD
NqbBeQbRQFxsf0AfLcTBjXQFQQiEoUDJWbfBMWi1QA+20UAxibjB4NorQba+dj/lbnnB/swTQQC5
wz4KwWzBDrMWQed3hD7Qo4TBdVSfQGnprkDYls7B1ZGFQPVrfEBAfsrBYKd1QIs9r0BVfcPBWSsJ
QSdF8UDJZLbB3O7rQHWJ8kALtavB0UQPQU1a2EAFz6nBu02hQLEQQ0DV/4HBMiqqQKKsmEBEZoXB
KjpjQAVVPkAycqbBvF0LQJDcd0Df6ZbBJTZBQK79hUDPEIvBUrvtQAOf7EBu7MLBsAKfQLYPFcD8
v6LBJ6/RQEoApL9wUK/B2/flQGYUC75Lj7PBfMfvQLfTs0BPxYvBhA2oQKAA7T0B9aLBACkBQWmO
d0Bqcn7B+fkMQeFjw0A33orB1umyQEQ9lL/gCKfB9+raQDU7kT8Sm6/BVP67QMxPnz+DcafBh8Xj
QOhDj0B16IXB/+cVQYJ+jUDzCH3BCRXOQKCkOkCRhZnBAzOHQAjRXkD5cpfBiYrrQFIxIUD8IrLB
2eqkQGtYbkAaeLbBLYbcQF/rm0Dbx6rBbn+0QLB0kEBmbcDBLZ/tQEhYtECrtLTBtFXJQM9+u0Av
CL3BwJW2QK4oLEAQCKTB+NPIQA+CX0Cd2q3BYYomQZ/kb0DKHW/BZvyNQPl/mEBY88fBq1sAQYuW
30C5BrHByb63QA7zdkBLWIfB4M+OQOc/UsBIRZ/BeoIbQaFPsECaYYTBM/yvQK+cX0BQrZLBqNiJ
QANHQUBxSqHBsmhCQDKweEBboZLB65rzQDIRKUBpoZfBvWXaQIxF0EDeTMbBAK3ZQDOOEMAhZrLB
6rv9QNl1cL5KyLnB+vPYQMe9w0AQ5ZDBOguRQDWRYD5PkJzBih/6QPYbP0DzWnXBd6oRQdYm30Dh
co/BvSMFQYB+LEB/Fq7BqarvQPwwKUCS0brBO6KKQOkkiUCat7LBJRSZQDWTL0ABI7nBKSL3QGKm
lkAtLKXBwr7DQNJ5r0AL46bB+XTMQMBAekDcscTBpIoDQfkyoUD2crjBy4uwQImnz0DeVrnBjuE1
QWbsiEA/qHDBO0ghQX51cUAnU17ByIsoQfwHLUBtP3TBwb+YQAVpqkBFCM/Bl1qAQMZRc0D/ecrB
MPJqQFQkq0BGsMPBoXcGQVUo8UBdA7jBMLrnQBCp8kAXEa3BBogNQR2y2UAlYavBbH61QKIBPUDt
YILBQU+fQHCmkkD/yITBMOdhQKcdOkCnPKbBXFYLQIdqdUB3r5bB+t1CQPVGh0CnHIvBMDDnQHmg
6kAXRcTBEyCoQAR4F8ATWKDBSzfXQLhxqb9mxa3BjJ/oQFg0Nb7xuLLBmST2QO6dskByU5DBmLqr
QMC+pz3u46HBG4rSQHQ1yUDYNoDBEpIHQcK710Ax+Y/BYf+4QJIgmb/VXqXBFTDbQNJejD/JW6/B
QqK8QOS6mj9WG6fBUXHWQAjxqkC9fojBsMHsQEYy7kCRU4DBVRLOQNt/PEDR9ZnBQWOHQA3GX0BG
dJfBHOzoQAkXH0CAo7LBrNKfQJDoYkBU07bBVCjXQIxDm0CLMqzByqKsQCBhiUBMOsHBL//kQFDc
skADjbbBgTS/QDQ5tkDbkr7BVXe1QLU7KkCVLKTBDDLFQAdwW0Bhdq7B5+vpQJUOB0Ezkm7Br9OE
QNB/jUA8hMjBP/L1QILU30AIjLPBvtG7QCLIgUCMQIjBA1uaQGWhVMAxQpzBwSsFQSap9EBkFojB
rOywQHE9Y0B0E5PBDtKIQBAZPUBnD6HBKIlDQFMfekAVfZLBHxLzQKKlJ0BU8pfB1rPNQEAMykDx
PMjBlP/gQHeUE8ByZ7DBzgIAQWodjr6iB7nB6x/7QBCYm0DtpZbBOzOVQFyxQj5XZZvBhsS7QOdI
xEBSqnPBwloTQRZF3UCrI5bB0OwDQSh5L0Av+K7B75frQPKXI0AtZbvBvCKFQLbMgkBEEbPBSFWV
QKn1IUBs+7jBiRrzQKFbmEB95abB3jW+QJ5ArkBPMqjBtDLFQCsvbUCGbsXBHQr/QLWqoEA1V7rB
sMelQNibyUB65LrBjvcAQY+0E0GT8XDBVMPJQHM1DkHoTm7BJv7vQOvD/UBzSF/BwqCNQJ5tnkBf
6c/BSItxQELRWkDmg8rBAYlXQLCVn0C2TcTBGtr/QGHW8EDE17rBzn7cQFsJ8kBuhK/BpMQIQX6T
3ECeJK7BEivOQM3vUUD6BITBGemdQMIxiEDN5YPBdGleQJIuMUA8nqXBRmcLQGMmc0A9O5bB75pF
QIQDikCGLYvBLRnZQJCC5UCLp8bBnC6kQHTsFsDo8Z/BEPPSQPk8r7/7sq3Bjt3kQBgkeL4t1LLB
egfYQCv+yECdjYDB26SpQFBcrT3ws6HBQ0r5QPoFsUDX1ZDBe3bzQIXv7EBA3IDBcJG1QD2Vmr/V
JqXBjcTYQBnRhT8zfq/BEwO7QNiHmD8QGKfBBVDaQIltqkAizIjBttoJQU811UAUuJDBpuHOQCcE
O0DaIprBPuiIQK5lYkCWWJfBUmLnQPLPGkBi8rLBw9SeQAIlYkBu0LbBGEXYQOzVmUBvn6zB30Or
QHYxiEC5WsHBRqrlQAmTsEADJrfBsTG/QOmhtEA4777B+0+1QB2rKUB2OaTBMdvEQOhbWUCGpq7B
KA8aQXV320DUmpnBU+mCQPYMjUBhbMjBAy74QEMz3UBEc7TBRbW+QNX8gUBUYYjB2/yVQEoLU8Aq
tpvBgywIQc6e8kCw1ojBfL2yQKihY0CAJJPBDiyJQLIPP0B/66DBXRtIQDA+f0DzPZLBTbzzQBw4
JECrSJjB3zfNQPWpx0AnvsjBVrLbQF0mF8CsTrDBt6H7QMzivL74P7nB0pDBQKQJxUDOH3TBcsST
QGqSXz6sGZvBuK/8QNXNmUChLZfBhF/xQO5DAkFTI3XBcGoDQYXHKUDBdq/BAFrpQNGQHkB0uLvB
XviEQJNIg0DV87LBjUmTQGmZIUB10bjBl6r0QAVolkBjfqfByEPAQC6srUAxhajBV/DCQA0zaUBi
pcXB2cL+QJ1wnUDjC7vBz6amQFrQyEDYJbvBUd4iQSh5+UDFRpjBslolQeJ4wEAqpZnBKrcRQar8
3ED/V6HBQXaLQMZrnUAu6s/BZqxrQINpWkDBQsrBzHdVQDb5n0CCHsTBGN0AQVd27UCC4bvB1bXf
QGxe8EAaUrDBPiIKQYCB2UAwOq/Bp7DQQBuqUUDhLITByD2hQCdDiUBa7IPBqyReQCo0NEBOWKXB
KkQPQOaweUBC2pXBTvtLQPnCjECz9orBcnTZQBbl4kAQT8fB

> <OMEGA_E>
TMaHP1jphz+qWYg/y7OHP6DtkD8LhZA/wYGQPyTcjz927o4/A1aOPw==

> <OMEGA_NBR>
    121653

$$$$
50225042
  -OEChem-04172616093D

 46 49  0     1  0  0  0  0  0999 V2000
    6.1659   -1.2743  -21.8029 C   0  0  0  0  0  0  0  0  0  0  0  0
    6.6744   -0.2374  -22.6092 C   0  0  0  0  0  0  0  0  0  0  0  0
    5.4107    0.3675  -20.1754 C   0  0  0  0  0  0  0  0  0  0  0  0
    3.7997   -1.8115  -18.9816 C   0  0  0  0  0  0  0  0  0  0  0  0
    5.6745   -3.2498  -19.5568 C   0  0  0  0  0  0  0  0  0  0  0  0
    4.0809   -4.0172  -18.0150 C   0  0  0  0  0  0  0  0  0  0  0  0
    5.5199   -0.9694  -20.5850 C   0  0  0  0  0  0  0  0  0  0  0  0
    4.9860   -2.0258  -19.7121 C   0  0  0  0  0  0  0  0  0  0  0  0
    5.9474    1.4049  -20.9567 C   0  0  0  0  0  0  0  0  0  0  0  0
    6.5586    1.1065  -22.2001 C   0  0  0  0  0  0  0  0  0  0  0  0
    3.3397   -2.8239  -18.1317 C   0  0  0  0  0  0  0  0  0  0  0  0
    6.4664    2.8998  -19.0425 C   0  0  0  0  0  0  0  0  0  0  0  0
    4.2395    3.3848  -18.9202 C   0  0  0  0  0  0  0  0  0  0  0  0
    6.5676    3.8390  -21.3554 C   0  0  0  0  0  0  0  0  0  0  0  0
    5.8619    2.8242  -20.4269 C   0  0  1  0  0  0  0  0  0  0  0  0
    6.5077    3.4307  -22.8444 C   0  0  0  0  0  0  0  0  0  0  0  0
    7.3896    4.4117  -23.6415 C   0  0  0  0  0  0  0  0  0  0  0  0
    5.0607    3.5002  -23.3995 C   0  0  0  0  0  0  0  0  0  0  0  0
    5.5562    3.4038  -16.7572 C   0  0  0  0  0  0  0  0  0  0  0  0
    5.2236   -4.2116  -18.7174 N   0  0  0  0  0  0  0  0  0  0  0  0
    5.4548    3.3578  -18.2203 N   0  0  0  0  0  0  0  0  0  0  0  0
    4.4562    3.1961  -20.2021 N   0  3  0  0  0  0  0  0  0  0  0  0
    2.9915    3.6028  -18.3577 N   0  0  0  0  0  0  0  0  0  0  0  0
    7.6160    2.6121  -18.7272 O   0  0  0  0  0  0  0  0  0  0  0  0
    7.0515    2.0948  -23.0343 O   0  0  0  0  0  0  0  0  0  0  0  0
    1.8555   -2.6090  -17.2408 Cl  0  0  0  0  0  0  0  0  0  0  0  0
    6.2702   -2.3026  -22.1162 H   0  0  0  0  0  0  0  0  0  0  0  0
    7.1559   -0.4735  -23.5466 H   0  0  0  0  0  0  0  0  0  0  0  0
    4.9083    0.6024  -19.2487 H   0  0  0  0  0  0  0  0  0  0  0  0
    3.2558   -0.8832  -19.0760 H   0  0  0  0  0  0  0  0  0  0  0  0
    6.5800   -3.4219  -20.1197 H   0  0  0  0  0  0  0  0  0  0  0  0
    3.7305   -4.7937  -17.3512 H   0  0  0  0  0  0  0  0  0  0  0  0
    6.0809    4.8186  -21.2397 H   0  0  0  0  0  0  0  0  0  0  0  0
    7.6228    3.9160  -21.0543 H   0  0  0  0  0  0  0  0  0  0  0  0
    7.3653    4.1437  -24.7081 H   0  0  0  0  0  0  0  0  0  0  0  0
    7.0086    5.4354  -23.5120 H   0  0  0  0  0  0  0  0  0  0  0  0
    8.4246    4.3563  -23.2732 H   0  0  0  0  0  0  0  0  0  0  0  0
    5.0591    3.2034  -24.4587 H   0  0  0  0  0  0  0  0  0  0  0  0
    4.4152    2.8180  -22.8267 H   0  0  0  0  0  0  0  0  0  0  0  0
    4.6814    4.5285  -23.3064 H   0  0  0  0  0  0  0  0  0  0  0  0
    4.6227    3.8063  -16.3369 H   0  0  0  0  0  0  0  0  0  0  0  0
    5.7248    2.3884  -16.3693 H   0  0  0  0  0  0  0  0  0  0  0  0
    6.3973    4.0511  -16.4682 H   0  0  0  0  0  0  0  0  0  0  0  0
    3.7667    3.2913  -20.9201 H   0  0  0  0  0  0  0  0  0  0  0  0
    2.1780    3.6242  -18.9389 H   0  0  0  0  0  0  0  0  0  0  0  0
    2.9047    3.7387  -17.3708 H   0  0  0  0  0  0  0  0  0  0  0  0
  1  2  2  0  0  0  0
  1  7  1  0  0  0  0
  2 10  1  0  0  0  0
  3  7  2  0  0  0  0
  3  9  1  0  0  0  0
  4  8  1  0  0  0  0
  4 11  2  0  0  0  0
  5  8  2  0  0  0  0
  5 20  1  0  0  0  0
  6 11  1  0  0  0  0
  6 20  2  0  0  0  0
  7  8  1  0  0  0  0
  9 10  2  0  0  0  0
  9 15  1  0  0  0  0
 10 25  1  0  0  0  0
 11 26  1  0  0  0  0
 12 15  1  0  0  0  0
 12 21  1  0  0  0  0
 12 24  2  0  0  0  0
 13 21  1  0  0  0  0
 13 22  2  0  0  0  0
 13 23  1  0  0  0  0
 14 15  1  0  0  0  0
 14 16  1  0  0  0  0
 15 22  1  0  0  0  0
 16 17  1  0  0  0  0
 16 18  1  0  0  0  0
 16 25  1  0  0  0  0
 19 21  1  0  0  0  0
  1 27  1  0  0  0  0
  2 28  1  0  0  0  0
  3 29  1  0  0  0  0
  4 30  1  0  0  0  0
  5 31  1  0  0  0  0
  6 32  1  0  0  0  0
 14 33  1  0  0  0  0
 14 34  1  0  0  0  0
 17 35  1  0  0  0  0
 17 36  1  0  0  0  0
 17 37  1  0  0  0  0
 18 38  1  0  0  0  0
 18 39  1  0  0  0  0
 18 40  1  0  0  0  0
 19 41  1  0  0  0  0
 19 42  1  0  0  0  0
 19 43  1  0  0  0  0
 22 44  1  0  0  0  0
 23 45  1  0  0  0  0
 23 46  1  0  0  0  0
M  CHG  1  22   1
M  END
> <OMEGA_C>
G0/FQEYco79gbK7BWpTVQHwgc76f37TBeiStQMwpvD5DZ6HBSi5zQDze579f2pfBXZW1QB39T8A8
dJzBzZaCQM6MgMC+HpDBF6OwQLEseL8erqTBKo2fQBmnAcBmsp3BIlG+QNzUsz9jp6fBtt/RQJSh
jT/bmbHBIr1VQHq7NMCnDZHBauzOQOWVOUAJV5jBwamHQCuhWEB8XJfB/CnSQKyxdUDS16rBr5S7
QBLANEBBaqPB/D7QQB2RW0A/wbbB1HfsQGYsjUDQIb3BF/GhQD8DYEAoMrvBI8yxQOzXWUCuDobB
tSenQMzFhsA1vZXBwY2uQEjmVkAjw5HBjJmOQPyMTED/naHBEXU/QOaUZkCc3JLB6LXzQEMtJ0A4
0ZXB6KXhQFERBkAyRrjBGoLtP/T5JsAa7YnBGaXIQHJdE8AU7rDBUf3kQN1u8r54X7zBgxCdQAo5
Gj9j/ZnBBF9QQBUaYr+nm5jB9Y7SQM3/WsAw9aDBlMBuQBRmmcBIz4rB4ZbCQD8ymkD66qnBHu7z
QPqeekA6b6jBx7DrQCqZhEAtqsXBREbgQNXurUCcGLzBWssGQS9ni0BzL7rBOOShQJIETUBnq8PB
fkmNQNRaNEAnnbbBtc2VQKvpkECKc7rBRu2TQCybc0D7sYLBqzG3QMPaGEBk9ILB6bbMQFSigUDe
voPB/RFxQHWkUkBuXKfBR2QLQB7zZ0DHgpfBseY5QIRHb0Bq94rBpdTGQJ0For9/9q7B/TfXQOoK
Wr5hQrXBt6itQDdgsj5x3qHBTpO1QLGFT8Cx85zBsThyQFCG578Ap5jBDFZ9QBDQeMBQLZDBR0Sx
QIx9er/7S6XBSXifQEUuAsAzb57BQ+m+QLL4sj/v7afBI8HSQDA3kD/y4rHBDRClQBKLhcAIqJXB
ltXOQBheNkAOWZjBhT+HQKyDUkB6WZfByi/SQLa1dUDFqKrBN7a7QIxMM0DEc6PB7yXQQMv6XUDp
o7bBi/nrQOFtj0B5zLzBz7ShQLHXYkCM/7rB4E2xQMUzU0BJA4bBOr5SQNV1LsCSwJHBdQquQGSt
UECqtpHBw46OQD7vSUAepaHBok8+QOpEXkDi15LBF9jzQG2RJUD02pXB3eDhQGjcCECPdLjBVHXA
QHsVtcApOZPBwcLKQD2MEsDchrHBbEbnQJfg3b5JtLzBR12dQL46ET8bdJrBjp7SQLbKXMC9VKHB
7A9QQCl3Yb9AypnBvv5jQMKUk8DXmorBAJvCQCAXmkAxhqnBAPnzQLksekAHQajBVTbrQJ7ah0Dy
Y8XBlG/fQOXqr0AehLvB3JEGQausjUDz4bnBVX+hQBaUUUCEh8PBnEaNQJwMNkCihrbBJGuVQEot
kkCzBrrBB/mSQIxlakDbnYLBq/+3QFWDEkCP+ILBembLQEeVfkBsrIPBrFtxQG6kUUArZ6fBzHIK
QMG2YEBWhZfBBFE4QGFOZEAP6orB

> <OMEGA_E>
wGixPuz2sz4=

> <OMEGA_NBR>
    123529

$$$$
298711
  -OEChem-04172616093D

 60 63  0     1  0  0  0  0  0999 V2000
    4.9762   -2.3305  -20.3428 C   0  0  0  0  0  0  0  0  0  0  0  0
    6.5807   -1.2799  -21.8903 C   0  0  0  0  0  0  0  0  0  0  0  0
    7.2190   -0.1331  -22.4130 C   0  0  0  0  0  0  0  0  0  0  0  0
    5.2444    0.1153  -20.3748 C   0  0  0  0  0  0  0  0  0  0  0  0
    5.6003   -1.1583  -20.8729 C   0  0  0  0  0  0  0  0  0  0  0  0
    6.8588    1.1372  -21.9294 C   0  0  0  0  0  0  0  0  0  0  0  0
    5.8696    1.2454  -20.9304 C   0  0  0  0  0  0  0  0  0  0  0  0
    6.4299    2.8974  -19.1929 C   0  0  0  0  0  0  0  0  0  0  0  0
    4.2261    3.4852  -18.9259 C   0  0  0  0  0  0  0  0  0  0  0  0
    7.3814    2.5236  -22.2367 C   0  0  0  0  0  0  0  0  0  0  0  0
    7.4225    5.6396  -22.5549 C   0  0  0  0  0  0  0  0  0  0  0  0
    6.8899    4.8786  -21.3223 C   0  0  0  0  0  0  0  0  0  0  0  0
    5.1801    3.7146  -22.8056 C   0  0  0  0  0  0  0  0  0  0  0  0
    5.6748    4.5096  -24.0501 C   0  0  2  0  0  0  0  0  0  0  0  0
    6.3119    5.8576  -23.6054 C   0  0  2  0  0  0  0  0  0  0  0  0
    5.6979    2.6890  -20.5009 C   0  0  1  0  0  0  0  0  0  0  0  0
    6.2864    3.4948  -21.7154 C   0  0  1  0  0  0  0  0  0  0  0  0
    3.8473    3.4686  -25.5440 C   0  0  0  0  0  0  0  0  0  0  0  0
    8.2131    3.4180  -16.2654 C   0  0  0  0  0  0  0  0  0  0  0  0
    7.0143    5.4673  -15.4245 C   0  0  0  0  0  0  0  0  0  0  0  0
    4.4943    4.7740  -25.0311 C   0  0  0  0  0  0  0  0  0  0  0  0
    5.7409    3.8118  -16.8930 C   0  0  0  0  0  0  0  0  0  0  0  0
    7.1280    4.4859  -16.6123 C   0  0  0  0  0  0  0  0  0  0  0  0
    4.4679   -3.2874  -19.9122 N   0  0  0  0  0  0  0  0  0  0  0  0
    5.5052    3.4917  -18.3301 N   0  0  0  0  0  0  0  0  0  0  0  0
    4.3038    3.0272  -20.1580 N   0  3  0  0  0  0  0  0  0  0  0  0
    3.0365    3.8883  -18.3263 N   0  0  0  0  0  0  0  0  0  0  0  0
    7.6068    2.6197  -18.9950 O   0  0  0  0  0  0  0  0  0  0  0  0
    6.8828    6.5291  -24.7309 O   0  0  0  0  0  0  0  0  0  0  0  0
    7.5181    5.2164  -17.6980 F   0  0  0  0  0  0  0  0  0  0  0  0
    6.8416   -2.2573  -22.2685 H   0  0  0  0  0  0  0  0  0  0  0  0
    7.9764   -0.2312  -23.1767 H   0  0  0  0  0  0  0  0  0  0  0  0
    4.5116    0.2179  -19.5881 H   0  0  0  0  0  0  0  0  0  0  0  0
    8.3342    2.7011  -21.7164 H   0  0  0  0  0  0  0  0  0  0  0  0
    7.5259    2.6503  -23.3198 H   0  0  0  0  0  0  0  0  0  0  0  0
    7.8073    6.6183  -22.2324 H   0  0  0  0  0  0  0  0  0  0  0  0
    8.2369    5.0574  -23.0106 H   0  0  0  0  0  0  0  0  0  0  0  0
    7.7184    4.7187  -20.6166 H   0  0  0  0  0  0  0  0  0  0  0  0
    6.1087    5.4841  -20.8396 H   0  0  0  0  0  0  0  0  0  0  0  0
    4.3475    4.2690  -22.3482 H   0  0  0  0  0  0  0  0  0  0  0  0
    4.8240    2.7298  -23.1420 H   0  0  0  0  0  0  0  0  0  0  0  0
    6.4385    3.9123  -24.5697 H   0  0  0  0  0  0  0  0  0  0  0  0
    5.5245    6.4802  -23.1556 H   0  0  0  0  0  0  0  0  0  0  0  0
    3.0228    3.7123  -26.2302 H   0  0  0  0  0  0  0  0  0  0  0  0
    4.6016    2.8698  -26.0755 H   0  0  0  0  0  0  0  0  0  0  0  0
    3.4568    2.8935  -24.6915 H   0  0  0  0  0  0  0  0  0  0  0  0
    8.3097    2.7081  -17.1001 H   0  0  0  0  0  0  0  0  0  0  0  0
    9.1782    3.9178  -16.0957 H   0  0  0  0  0  0  0  0  0  0  0  0
    7.9160    2.8758  -15.3556 H   0  0  0  0  0  0  0  0  0  0  0  0
    6.2535    6.2293  -15.6492 H   0  0  0  0  0  0  0  0  0  0  0  0
    6.7233    4.9147  -14.5190 H   0  0  0  0  0  0  0  0  0  0  0  0
    7.9855    5.9567  -15.2591 H   0  0  0  0  0  0  0  0  0  0  0  0
    3.7280    5.3661  -24.5094 H   0  0  0  0  0  0  0  0  0  0  0  0
    4.8728    5.3424  -25.8934 H   0  0  0  0  0  0  0  0  0  0  0  0
    5.6873    2.8765  -16.3164 H   0  0  0  0  0  0  0  0  0  0  0  0
    4.9485    4.4962  -16.5559 H   0  0  0  0  0  0  0  0  0  0  0  0
    3.5248    2.9229  -20.7763 H   0  0  0  0  0  0  0  0  0  0  0  0
    2.1776    3.8382  -18.8359 H   0  0  0  0  0  0  0  0  0  0  0  0
    3.0407    4.2281  -17.3857 H   0  0  0  0  0  0  0  0  0  0  0  0
    6.2123    6.6718  -25.3886 H   0  0  0  0  0  0  0  0  0  0  0  0
  1  5  1  0  0  0  0
  1 24  3  0  0  0  0
  2  3  2  0  0  0  0
  2  5  1  0  0  0  0
  3  6  1  0  0  0  0
  4  5  2  0  0  0  0
  4  7  1  0  0  0  0
  6  7  2  0  0  0  0
  6 10  1  0  0  0  0
  7 16  1  0  0  0  0
  8 16  1  0  0  0  0
  8 25  1  0  0  0  0
  8 28  2  0  0  0  0
  9 25  1  0  0  0  0
  9 26  2  0  0  0  0
  9 27  1  0  0  0  0
 10 17  1  0  0  0  0
 11 12  1  0  0  0  0
 11 15  1  0  0  0  0
 12 17  1  0  0  0  0
 13 14  1  0  0  0  0
 13 17  1  0  0  0  0
 14 15  1  0  0  0  0
 14 21  1  0  0  0  0
 15 29  1  0  0  0  0
 16 17  1  0  0  0  0
 16 26  1  0  0  0  0
 18 21  1  0  0  0  0
 19 23  1  0  0  0  0
 20 23  1  0  0  0  0
 22 23  1  0  0  0  0
 22 25  1  0  0  0  0
 23 30  1  0  0  0  0
  2 31  1  0  0  0  0
  3 32  1  0  0  0  0
  4 33  1  0  0  0  0
 10 34  1  0  0  0  0
 10 35  1  0  0  0  0
 11 36  1  0  0  0  0
 11 37  1  0  0  0  0
 12 38  1  0  0  0  0
 12 39  1  0  0  0  0
 13 40  1  0  0  0  0
 13 41  1  0  0  0  0
 14 42  1  0  0  0  0
 15 43  1  0  0  0  0
 18 44  1  0  0  0  0
 18 45  1  0  0  0  0
 18 46  1  0  0  0  0
 19 47  1  0  0  0  0
 19 48  1  0  0  0  0
 19 49  1  0  0  0  0
 20 50  1  0  0  0  0
 20 51  1  0  0  0  0
 20 52  1  0  0  0  0
 21 53  1  0  0  0  0
 21 54  1  0  0  0  0
 22 55  1  0  0  0  0
 22 56  1  0  0  0  0
 26 57  1  0  0  0  0
 27 58  1  0  0  0  0
 27 59  1  0  0  0  0
 29 60  1  0  0  0  0
M  CHG  1  26   1
M  END
> <OMEGA_C>
3TyfQDcnFcAKvqLBY5XSQFrTo79BH6/BWgLnQKRTCL7KTbPBJdKnQAgq7D2P/6LBZzWzQFRDlL/F
+6bBNnvbQLWOkT9rb6/BeNO7QLhnnz+LcafBosHNQJRvOUD8ipnBDTyHQBQOX0BMaJfBLTTsQKKC
IUDF5LHB0oTtQIt3tEBacLTB93ncQF8dnEAclKrBwcOlQES8bUDfcbbBsZe1QFNOkECPZsDBS/vJ
QH1xu0DS17zBPVW2QIQYLEDpAaTBMirJQBSrX0A2ua3B8Dl2QMf8XUAYWszB0mgDQZDAWkB6H4LB
SnXgQGj0rkCqynbBIdGPQDbEmEC7P8jBxbW3QBX0c0DQJIfBehjkQMqMj0AD5oTB5viOQDBlUsBG
TJ/BgyqwQER4X0AZpJLB97iJQBO9QUCnQ6HBClZCQIPaeEAsnJLBuGrzQNapJ0DM9ZfBC0DcQIHu
0EDg2MXBhZTwQPTspkCalY3BgO7aQNx2EMD5JbLBrj7/QJ+ybL7JabnBLF+QQIMgXz5jtJzBtlgF
QUPeLEA5u63B99PwQDyfKUDpjrrBTdX5QH7J00AM3LHBfMoDQSbWoUCpFbjB5fz2QMr/lkDE7qTB
L3rDQLV9r0Bwt6bBbR6LQPObiEAFybLB3V2aQFe0LkDgIrnB3gfOQPpiekDQjsTB4ciwQCZez0Ck
PrnB6nVBQHWWbUBk19HBhECTQMGqN0CNmtDBvjtdQJ8uOUAmiMXBh/QEQZdRLUDtzIjB3tkSQTm9
ekD+w4DBCVD9QOIMOEBisHXBYRzIQGhWx0BEY3rBZSXXQD1FnUDGTWjBFon/QGmdvkBgJXTBbZdu
QAm3q0BIE8TBXO6bQBn1qkCvJc/BZ/61QMwYOEAIiILBSFqeQCXhj0CVcoTBz5VhQPMQO0DENabB
ol0LQLSldUD5r5bBRJtCQDtMh0D+FYvBksvGQFB/1UDrG8vBQOy1QPomFsAD5p3BdvbDQNejqb/F
e6/BfjvJQLx8P76wCbbB3kq4QJcl2T0lzp/B2Ha7QGNJl78KaKTB5qjGQPwejD+fc7HBZ2y+QDVL
nT9adqbBBabPQHxuN0C+OpjBdDyIQOkJW0A3w5fB7FTIQI5IHkA2R7bB3IwLQclwl0BRraXB1uEC
QWoXYUCkDKzBKE7BQL/Ym0C9DbDBg0XUQD1uw0DhGarBngMDQZ77wUACM6rBkqq8QD7ALEB8RaPB
UnPTQF6JXEAZA63BsCHOQGmM80CieJnBi+HTQPKmYEBxmWfB25X4QGFyk0DqT4PBcq3BQNiHyECW
pZ7Bal+uQLhyYEBIzYXBQ6vaQIjnW0AP+3/BiW+xQBoVU8BYoZjB/zKuQN72VEAdsZHB35+PQPnG
RUDByKHB/3xAQJ6Oc0Cm7pPBybrzQEydH0Dt2ZXBjogKQdA/x0DM6bTBf2ztQDeXDkB0soHBSW3G
QC78E8D077LBDDDPQH11mb4tgL7BA1ixQNKeaD65ZZfBuB7hQGgnIUAJhLzBvx+pQIUCL0BSxbnB
QIoGQbN3lEAfRp3BjiAdQQWKl0ByIKbBt5MJQarpY0AiLrTBsWoIQYFnJkC0DajBbqueQEpmm0D5
fK7BCPLGQOuSoEDBqLjB16nKQAr030AXqq7BxPoIQSI73ECyJqXBdzXAQKqG9UBrZ5HB9TDxQGvL
9UAt7JjBXOPBQFMDB0FqZZ7BWsa+QMwlLECqfWLBcO/yQO7fWkCKcF/BWBfFQBUsj0Ccc2PBO/D9
QBtzkkCZAYzBcZHpQG0TskBAJIHBxbQLQU5XkEBuRX7BbpOeQAKWxkDiFp/BBuHNQMZarkClnZnB
POmZQJQ0LkDIXILBbWygQKTMj0BhFITBBUhzQPWERkDFmKfBHU8OQBe3dUD245jBATY5QIKBgUDz
OIzByUwFQc534UCOu7fB7AGbQDooBMBaQp3Bk/HCQDQbqr9GX63BdEbXQBBflr6XMbPBvTekQLRf
mj5SBaHB57KqQCvog7/fFKTBqwvTQGJqhD8psK/B4TS4QMudpz+R+6bBBPTOQCRINkC3XpnBdmKH
QKd8VUAkvJfBBG7qQJZPE0AIorLBDUoBQT/mqUBNz7PBkQDuQD17lEDCCqrBUXKuQGLBf0CJULXB
Ub3BQNQnlkB3IL/BNUzgQMpeukC3lrvB8Wq5QDxHMECCBqTBzY/QQI1kXUCMeK3BgJB+QIK0g0BT
/MnBE/LNQDHuq0DJ7nbBLDSjQItvv0De3IvBShCdQOjfp0DSE8bBc4u1QJueYkCRXofBDQfFQLtY
oEBILYfBcY6OQJqwOMA4apfBdfutQAe0RkBQSJLB872NQM4HT0C4AqLBj/RAQJd2bEDTP5PBDT/0
QD7sJEBqMpfBHKf1QMkdy0DutcTB9xTqQNXipECI0ozBvOrFQHKRFsAYBrDBfNPpQNTHBb/yP7rB
RE6QQG2VCz/IO5rBL54FQeoNEkBscq/BFoDrQILuGkCLYLvBbCgLQfT6xECwHbHBQ3MLQe1ykkDO
9rfBd7ADQS84iEAZxaTBAMraQCJOrED3saXBzSGaQKf5lkBICbHBQMSaQMC1SUAGErjBLfDTQAgu
fUAU0sPBA4PNQDGC00BUmrfBoQlLQCtjkUAc6c7BmsyRQGN8WUCOyc7BqpxiQGJjZkAjC8PBPPLl
QGrTlUBtVHDBQx7aQKvozECRBnbB1CmwQIBgqUBvo23B+9+cQGYMt0D2QpTB1GOFQIPlvEBROofB
QlivQK9t4EDia4vBG0iKQBnEvkCyUcHBYMaqQJlQuEAdEM3BvR/OQEqUOUC2toPBBJ+XQIdWXUBN
yILBgVdwQJnmXEDiqKfBFdEOQFkdeUCO9pfBh/U6QA1jcEC0TIvBNCThQK+R1UCXrMnBP6qkQGqT
FsCAaqHBenfXQFCppb8Z5a3BdYTqQJBgEb7vX7LBVKipQBAayT10d6LBrUC3QF6Slr929aXBOL3c
QGB3kD9aBK/BSyy8QE2fnT+QPafB04bNQEfuOkDE1pnBmAyHQBy8X0DiapfBaXDrQHy3IUAo6LHB
kzG3QEKEv0D3la3BOD/ZQObNnEDev6vB+oSjQNTuYUClH7fBCUmtQDHqlEC/Rb/BDK2pQNtPwUAH
kLnBO0y1QARyK0D8G6TBKu3GQFaNXUChH67BSJGSQNDhU0A/j8/BD/z3QNKjLEBsK4DBWGTsQH7J
okBpWnXBCVqOQGiak0B3AMnBHgy4QFTff0CXqYfB6d/nQB/pgkCUAoTBnHyVQKoHVMC9up3BeWCw
QNKEYkBU45LBsMGIQKYkP0CuHaHBLpNCQJ/geUD4fpLB9h3zQILzJkAjkpjBIyfEQIJO30AEG7/B
tI4AQZDmkkBk74vBP4XhQJR+EcBJibDBKrUBQav+cb6yUbjBcq+RQAjOSz6oS5zBLr4EQRdUMUBA
wq3B+iXwQKRwJ0AumbrB7+yaQKpGuEAVqqjBvl7EQLDD3kAyOqvBXZX0QOPgokDTFLHB3vfjQCUu
nkDqX6PBh0qEQKl4bkCmYLPBAW+iQMw8JECDWrvBZULOQJj4kECnMMLBpxCIQEqoy0B28bnBLRB4
QAN8VUAPUdbBDXOzQGAcTkDCndLB2zuLQNmrHECnasrBUQP1QN9E/D/7u4bBL9wMQXGDMUAsd3vB
oJrkQEhHF0DupnLBsyfhQHGJwkBJeHrBTxHZQGW7l0B1uGfBhxcHQXrZpECziHDBwZJaQJE0lkD/
DcbBkoCVQNXsrkAbQc7BwKSnQG3sUkC3RYLB486pQBbzn0A40YbBEKleQAkfNUAXz6XB/swKQNZV
dECfW5bBpBhEQIMZiUA/GYvBVe27QP1s4ECrasbBi1mdQHL+E8AHzqPB+eXTQFjKn79cNK/BMXHp
QLQ3yb2Q8rLBNmqmQNVdCD5VmqPBWZCyQORXkb9Wj6fBsBPdQBBslT/FJq/BbIG7QCZUoj+zpKfB
sxHNQJj+NkDhdZnBZO2GQF8tX0BzYpfBwjHuQD7CI0DpVLHBp2u+QGPXwUCI66vBPKHeQLJLnUA1
V6rBnM+oQHQsbUC3xbbB9Jq1QCbVm0BwRb7BkQWzQJEBx0BP9rfBRyC2QKsoLUBNAKTB6IrKQFV3
YUCXfa3BxBCcQBrra0D5bM/B/SDjQO10d0BmJmzBcNr+QLPnmkA8PYfBnmuYQPounkBwT8jBNfC0
QFFia0CosobBsNDjQBAFbEA/UILB0hGMQLKGUcBBxqDB/4mvQEeqXEANcZLBUqGJQDG3Q0CEUKHB
CppBQHIreUD8n5LBQPDyQNYdJUCVRJjBI9PPQILh5EAsxbzB5Ib2QMOFHkDK74PBl+PcQBA3DsCr
MLLBOJUBQWbNQr6gq7jBOJqNQFi0aT4Mo53BnvYFQbPYLkBj1KzBq1H0QAt5LEDA7bnB3hqhQPiv
ukCiY6fBF4HMQL3Z30Dn9ajBVdj6QHlEo0DNYq/BFmHoQG5TnEBu46HBa0uJQP/yekBvQLPBywun
QIeqMUAjdLvB/dnWQGr9lkCE5cDBCgWSQLkJ00Bjh7jBy9CGQKugckASZNbBIFC9QHKpZEB1K9LB
VKySQHAhM0DlyMrBXCTQQPHXQ0A83GTB1gUCQeoKdUCY8WXBJbfUQBrWmkC1KWjBJ8D/QABpl0Ar
/o/BJkzwQHLauUAqKIXBV9APQc2JmUAbDITBoQBuQESRoUDrrcXBHKShQEVVukB7EM3B9m6jQMxy
OEAXfILBdoCmQH7glEC0yoTBf79hQDnUPkDAWKbBVAALQM6Ld0Any5bBJW9BQCi7hkCqCYvB6vDI
QOka6ED4IMTBBIegQKnXB8D3rJ3BQUvFQNbNp78z/a3B2MPXQMg1fb4i2rPBCsqnQDkWiD6g/KDB
SJCuQC7whr+DYqTBs0nTQGiYiD/WDbDB+Am6QGrCpj/E+qbB3KXPQBjkOEAZWpnBDLWHQKoZVUDt
o5fBRlLpQFqfFkCzBbPBX8H+QD73q0CmN7TBn+brQOzOlUD4U6rBqJ+rQCrJf0D1L7XBnjK9QFzL
lkCxG7/BRCfbQIC2u0B5urvBkby5QCMVMEC0/aPBOhTPQBHZXkDHmK3BmKl0QHymgkCvmsnBSgSe
QLziukDqs4jBX2fsQMzEpkB6w4jBLlWXQMScp0Dzy8XBvDa0QODWV0A50IbBsru/QNT6mkBEWoTB
OHWVQNWDPsBf95fBiZCuQDa/SEAmPpLBYZKNQF17S0Cj46HBKh1BQNHhaUCkIpPBOQf1QMLdJ0Br
PZfBd/HuQAA3zUD9+sTBEb7AQMx/nkCPFnPBCYbIQG7QFMCA2LDBJxnpQLkn477tKLvBBv+UQN0v
9D5075nBuzgFQUW8FkAaC7DBpWrpQBkPH0BCwrvBvgsJQUV/x0AaobHBaZcJQdMilUAxjbjBRxkD
QUAUikAkRKXB853YQP0IrUBvzaXBND2XQLlolkBQvbDBy1CYQK7aSEDg1LfBu4HPQJeRf0D88cPB
OSzIQN8+1EBzkbfBy1w/QLSrj0DLV87BbBaNQLfgWEDfkM7BTx1bQNH3YkDoncLB8n98QN5wskDx
jYXBZGKmQKKE20DGJobBeXqdQCpduUBYfpHBnyUCQYUUkEB4qoXBmOfrQKg8pUDqjZHBg8/0QCBk
x0BYNobBK1GEQJG/vUAz4MDB79ijQAS0uEAq08zBCxvOQHtlLkDv3IPBiT6WQCa7R0D7qILBcZNu
QGhOVUBwf6fBbuINQCZMckBI0JfBWtM7QJp3cECNNIvBPpLZQFE410CMxcnBiq+oQJXCDMDQN57B
H03MQCrHpb+yXa7BpLjcQEBBQr5nHLTB27uqQNwtUD5sYqHB75G0QPhSjL+F06TBJzvVQELgjT8b
QrDBZu66QNwNpD9xRqfBBajOQEDVNUD/bJnBHDOHQFhPVUBjhJfBOMvoQAkZHEDkErPBVcv5QE2L
r0AomLPBUKHnQCiol0B456nBXqmoQFCjf0Bu77TBCzq5QDvTmECZpr7BLZfVQPaVvkDv/brBiHa4
QL7QLUCiAqTBwcPMQK+AYECjcK3B7CJuQFt9g0DuRsnBCnXmQCuVq0CM7YrByzvDQBS6okAoC3LB
Y6SSQIMBqUByLMXBWfK0QKZiWEB894bBYo29QCE9nEC0GoXBvlyfQB5PRcCdmZjBzgSuQH5CRkBx
PJLBotKLQEU3RUAesKHB0TFCQCSvb0Bq4pLBuUf0QHwhJkBHbJfBkqfoQJz40UDlGMTBAambQOES
tEB4hIjB69/RQOAKE8CwQ7HB2MzuQLI9r75kX7vB7TGXQJg8vD5QYZrBnfoEQXSGH0DbJ7DBP1zo
QL/HJUAcyrvBYv8FQWOIy0BTzrDBqJMHQbsFmkBeELjBqCABQYq6jEBs1qTB8xnTQF6MrUAxTqXB
sRaTQKGzlECSV7DBTtGWQEuCR0CP0bfB4W7MQFVLg0AUscPBDpLBQE7M1UB6qrbB7rs3QGoXkECb
483BuJyKQFZuXUAcb87BkyJWQA3MYUDtbsLBCqHiQPUHp0D1mZPB9r/rQCe0zUDMN4nBCAsBQX3t
mEBoGojBE0OmQG7il0ArpWnBHe7eQLkWkECVdmzBApjIQGPdxEBesW7Bnqt9QLOyvUAWD8DBPWGe
QNiDu0BFD8zBDqvQQA9bM0AXJITBqFCYQIZrRUADboLB6MxoQPZUSED2H6fBRf4NQCVrd0AmaZfB
HXE/QB34ekBuBIvBVObSQMKb20DZ08jB0JCrQNWGC8A4+J3BL6TRQPvTor+Wt63BO73hQDx7Jb66
brPBicSpQIyeVj4GxKHB3/62QO5pir/UqqTBlBHXQL/4kD8oB7DBv6e5QPDBpT9oo6fBxJDNQDpJ
MkA2p5nBWaCGQJ5OVECifJfB2ijqQDdRHkAWqbLBUrn7QOsBr0Bs0LLBm/DlQAaEmEAedanBSvSp
QMRLgEDOXbXBmpm8QGMTmUAw7L7BN+zaQEHPvUAyJ7vBUhG3QFsxLkDiNqTBnXrMQD+YYUDcZK3B
BXqhQMiPwUCud8/BkGTPQBihpkCC03XBfb2yQAigvEBw54zBQlqVQOGQqUBUOcXBIYa2QHcZW0Cg
SYfBQ1HMQMP+mUDGvYbB33yiQBD2Q8A+T5jBaJOtQDHkQkDUT5LB/eCKQLe+R0A2xaHBBM9CQCiV
cUAqrpLBvO/yQEMNH0BW1JfBpoPzQAKJzUCW4cPBqsb0QBUGmEDkx4rBprHZQOt5EcDfQrDB+//1
QPBxnb6EVbrBM+2TQMqcuT68LpvBRlwFQbNAI0AAYK/B6DDrQJm+J0CfYLvBs6AGQZEJy0AUy6/B
mScJQT+1mECMnrbBSmr+QOokjkBasKPBYc7PQI31rkB7iqXBMYyTQDBblUB2FbHBEKCYQPRsSEDb
bbjBNtfOQEDlgkD0AsTBslXHQN+O10CKr7fBVUCEQG5mzEBTjtPBE121QEhu3UBcbM3BbomzQHUX
rEAzyNTBK4jhQDYZjkAxDG3B5dPfQBKhxUDWanTB+QSvQFE8qUA+Cm/BMH6wQGigs0ChZJXB/2GS
QCI4v0A3gInB6zDDQOOc20CDMIzBvz6BQGIDjkC3ZcfBZRKDQDVav0DhCcDBmt3LQLYaK0BLr4PB
E0mYQENWXUCnyoLBwwxnQJiETkBzLKfBH0gPQC94fkDAJJfBw6dAQE7OeUBPwIrB5OLgQCNK10Cw
XsnBRTKwQBgTD8C4Mp7B1sTUQNfsor+U7K3BtnrjQCBwEr5cnLPB/J+rQMjGIj5006HBIzq6QJnh
jr/10KTBinzXQP1qkT9LIbDBCgC6QJbnoT/2s6fBOu/MQKMQMUCKpZnBBqyGQIVvWEAZfZfBbUHp
QPKSH0D+vLLBvk74QGJesEBBkrLBHZfjQPhNmEAMU6nBU/6nQJH4fkDATrXBXxG6QNRymUBav77B
btbWQK74vkD3vLrBSzC2QHwQLEApMaTBr93KQD3nYEDFXq3BLRSeQFTVwUAEO8/BKazuQMhlpUAQ
cYvBSwLOQIqen0DMgHLBD4CSQG7iqEBKFsXBgyW2QOkPWEAWHIfBLDXFQOKFmkDfQ4XB3UeoQO7V
SMCto5jB6petQEkMR0DzXZLBmsqJQIpgREDDoKHBnA5EQMcfeEAFo5LBmu/xQMZ/G0CMxJfBaKbu
QILZ0EB2VsPBMOClQGBUtkAOSojBFs3dQM7VEMAeiLDBmLT3QIJXhr4ZjbrBOumVQBk7kT7BLZvB
QOwEQbQuJkBmhK/BTdzpQCBsKUBOc7vB/IkEQRWdzECraK/BH7cHQXcqm0Ddj7bBQqf8QBryjUDb
tqPBEirNQGPLrUAUL6XB1e+QQFiak0A49bDBc4SXQDNBRkDWgLjBZlHNQBs+hEAP3cPBcUPCQOxm
10AYCrfByJyAQAbWy0AKWNPB2eSwQMJI3kChDs3B4w6xQGVMrUBlk9TBwgHpQEftoUBeFZTB7y34
QOmLxkBkrYnB9isEQcF1j0D49IjBEdWwQA4CmEAobGnB2NbnQLK1iUBYtm3B2qzXQNrLwEAxJ2/B
t+d+QHjBjEBXZMfBopN+QNS9vUCT37/BSDzPQDUKLEBGUITBKamYQJwZTUCzgILBHjRjQBZnRUAZ
3abBLOkOQBCQgEAd85bBGl9EQL37gkCG04rBWpHbQPec2kAbusjB

> <OMEGA_E>
Ms6IP3mNiT9yNn4/2yyLP/CPjD++BH4/ZK5/P4degT9xt4I/

> <OMEGA_NBR>
    132603

$$$$
50093273
  -OEChem-04172616093D

 55 59  0     1  0  0  0  0  0999 V2000
    6.2850   -1.3783  -21.7321 C   0  0  0  0  0  0  0  0  0  0  0  0
    6.7049   -0.3717  -22.6035 C   0  0  0  0  0  0  0  0  0  0  0  0
    7.4836    4.8414  -20.4062 C   0  0  0  0  0  0  0  0  0  0  0  0
    8.2208    5.8291  -21.0631 C   0  0  0  0  0  0  0  0  0  0  0  0
    5.5303    0.3149  -20.1638 C   0  0  0  0  0  0  0  0  0  0  0  0
    5.6627   -3.3545  -19.5923 C   0  0  0  0  0  0  0  0  0  0  0  0
    3.9556   -1.8105  -18.8491 C   0  0  0  0  0  0  0  0  0  0  0  0
    4.0461   -3.9934  -18.0335 C   0  0  0  0  0  0  0  0  0  0  0  0
    5.6414   -1.0343  -20.5309 C   0  0  0  0  0  0  0  0  0  0  0  0
    5.0862   -2.0716  -19.6521 C   0  0  0  0  0  0  0  0  0  0  0  0
    6.5067    0.9856  -22.2850 C   0  0  0  0  0  0  0  0  0  0  0  0
    6.6702    3.9288  -21.1277 C   0  0  0  0  0  0  0  0  0  0  0  0
    6.0266    1.3519  -20.9837 C   0  0  0  0  0  0  0  0  0  0  0  0
    6.5202    4.1285  -22.5206 C   0  0  0  0  0  0  0  0  0  0  0  0
    7.3498    5.0594  -23.2020 C   0  0  0  0  0  0  0  0  0  0  0  0
    8.1794    5.9382  -22.4699 C   0  0  0  0  0  0  0  0  0  0  0  0
    6.4004    2.7263  -18.9389 C   0  0  0  0  0  0  0  0  0  0  0  0
    4.2337    3.4133  -18.9758 C   0  0  0  0  0  0  0  0  0  0  0  0
    6.7079    1.9423  -23.4278 C   0  0  0  0  0  0  0  0  0  0  0  0
    5.7505    3.1219  -23.3204 C   0  0  0  0  0  0  0  0  0  0  0  0
    5.9256    2.7874  -20.3883 C   0  0  1  0  0  0  0  0  0  0  0  0
    7.3948    5.0692  -24.7330 C   0  0  0  0  0  0  0  0  0  0  0  0
    5.4314    3.4612  -16.7441 C   0  0  0  0  0  0  0  0  0  0  0  0
    9.5403    7.9447  -22.4147 C   0  0  0  0  0  0  0  0  0  0  0  0
    5.1357   -4.2940  -18.7827 N   0  0  0  0  0  0  0  0  0  0  0  0
    3.4540   -2.7745  -18.0536 N   0  0  0  0  0  0  0  0  0  0  0  0
    5.3986    3.3239  -18.2027 N   0  0  0  0  0  0  0  0  0  0  0  0
    4.5099    3.1551  -20.2334 N   0  3  0  0  0  0  0  0  0  0  0  0
    2.9720    3.7356  -18.5040 N   0  0  0  0  0  0  0  0  0  0  0  0
    7.4779    2.3019  -18.5324 O   0  0  0  0  0  0  0  0  0  0  0  0
    8.9395    6.8684  -23.1694 O   0  0  0  0  0  0  0  0  0  0  0  0
    6.4539   -2.4159  -21.9797 H   0  0  0  0  0  0  0  0  0  0  0  0
    7.1873   -0.6370  -23.5326 H   0  0  0  0  0  0  0  0  0  0  0  0
    7.5333    4.7707  -19.3296 H   0  0  0  0  0  0  0  0  0  0  0  0
    8.8274    6.5149  -20.4902 H   0  0  0  0  0  0  0  0  0  0  0  0
    5.0522    0.5674  -19.2289 H   0  0  0  0  0  0  0  0  0  0  0  0
    6.5280   -3.5860  -20.1957 H   0  0  0  0  0  0  0  0  0  0  0  0
    3.4915   -0.8356  -18.8725 H   0  0  0  0  0  0  0  0  0  0  0  0
    3.6323   -4.7583  -17.3932 H   0  0  0  0  0  0  0  0  0  0  0  0
    7.7427    2.3148  -23.4083 H   0  0  0  0  0  0  0  0  0  0  0  0
    6.5257    1.4151  -24.3759 H   0  0  0  0  0  0  0  0  0  0  0  0
    4.8258    2.8311  -22.8005 H   0  0  0  0  0  0  0  0  0  0  0  0
    5.5022    3.5181  -24.3161 H   0  0  0  0  0  0  0  0  0  0  0  0
    6.6418    5.7725  -25.1180 H   0  0  0  0  0  0  0  0  0  0  0  0
    8.3945    5.3827  -25.0683 H   0  0  0  0  0  0  0  0  0  0  0  0
    7.1808    4.0591  -25.1125 H   0  0  0  0  0  0  0  0  0  0  0  0
    4.5184    3.9710  -16.4026 H   0  0  0  0  0  0  0  0  0  0  0  0
    5.4887    2.4641  -16.2832 H   0  0  0  0  0  0  0  0  0  0  0  0
    6.3122    4.0516  -16.4512 H   0  0  0  0  0  0  0  0  0  0  0  0
   10.1076    8.5977  -23.0943 H   0  0  0  0  0  0  0  0  0  0  0  0
    8.7516    8.5291  -21.9182 H   0  0  0  0  0  0  0  0  0  0  0  0
   10.2190    7.5266  -21.6567 H   0  0  0  0  0  0  0  0  0  0  0  0
    3.8489    3.2019  -20.9824 H   0  0  0  0  0  0  0  0  0  0  0  0
    2.1988    3.7834  -19.1364 H   0  0  0  0  0  0  0  0  0  0  0  0
    2.8342    3.9206  -17.5309 H   0  0  0  0  0  0  0  0  0  0  0  0
  1  2  2  0  0  0  0
  1  9  1  0  0  0  0
  2 11  1  0  0  0  0
  3  4  1  0  0  0  0
  3 12  2  0  0  0  0
  4 16  2  0  0  0  0
  5  9  2  0  0  0  0
  5 13  1  0  0  0  0
  6 10  1  0  0  0  0
  6 25  2  0  0  0  0
  7 10  2  0  0  0  0
  7 26  1  0  0  0  0
  8 25  1  0  0  0  0
  8 26  2  0  0  0  0
  9 10  1  0  0  0  0
 11 13  2  0  0  0  0
 11 19  1  0  0  0  0
 12 14  1  0  0  0  0
 12 21  1  0  0  0  0
 13 21  1  0  0  0  0
 14 15  2  0  0  0  0
 14 20  1  0  0  0  0
 15 16  1  0  0  0  0
 15 22  1  0  0  0  0
 16 31  1  0  0  0  0
 17 21  1  0  0  0  0
 17 27  1  0  0  0  0
 17 30  2  0  0  0  0
 18 27  1  0  0  0  0
 18 28  2  0  0  0  0
 18 29  1  0  0  0  0
 19 20  1  0  0  0  0
 21 28  1  0  0  0  0
 23 27  1  0  0  0  0
 24 31  1  0  0  0  0
  1 32  1  0  0  0  0
  2 33  1  0  0  0  0
  3 34  1  0  0  0  0
  4 35  1  0  0  0  0
  5 36  1  0  0  0  0
  6 37  1  0  0  0  0
  7 38  1  0  0  0  0
  8 39  1  0  0  0  0
 19 40  1  0  0  0  0
 19 41  1  0  0  0  0
 20 42  1  0  0  0  0
 20 43  1  0  0  0  0
 22 44  1  0  0  0  0
 22 45  1  0  0  0  0
 22 46  1  0  0  0  0
 23 47  1  0  0  0  0
 23 48  1  0  0  0  0
 23 49  1  0  0  0  0
 24 50  1  0  0  0  0
 24 51  1  0  0  0  0
 24 52  1  0  0  0  0
 28 53  1  0  0  0  0
 29 54  1  0  0  0  0
 29 55  1  0  0  0  0
M  CHG  1  28   1
M  END
> <OMEGA_C>
DR/JQG5rsL9f263Bm47WQDpQvr7407TB2nnvQPXsmkDUP6PBcYgDQUuIukAsgajB/vewQH47oT6G
T6HBpzS1QO6wVsDuvJzBPih9QNa/57/oypbBd3mBQJKTf8CSRJDBHIa0QOpjhL9hP6TBhcKiQDuV
BMCPN53BADfQQFBOfD+6R7LBd3LVQN9we0CIBanBrdnAQEIMrT+Y3qfBfaXQQEcchEAvKrTBPjHr
QDjmoUDKnbnBsd4CQbAFvkBawrPBH9DMQD18LkDKgpfB33qHQPdyWkB0zpfBIKfWQEad+D8WbLvB
+wO4QJPMR0BBkLrBWJ69QPZjMkBOG6PBXKLsQJ42okBC3cXBas6tQPaEXUDi84XBKKUYQRU7/kA/
UbPBllekQCdoicDlQpbBxg1dQGWRMcC6bZDBcsGsQM66VEAmn5HB0lCQQGjsSUAT3qHBujQ+QMIU
b0AdCJTBEUvvQBpSE0BpQpTBPQgPQZTJ20AGW7nBkIbOQKSdGsBY1q/Bff7lQJkTI7/WQrzBwxDx
QHupmEAVo5rB9jwNQUR60ED266PB+quhQMVAET+91JnBAOXQQFSBZcC9kKHBY3VfQLHpVb/b+pbB
N3doQFJEmMAyJYvBYMT3QPQlFEBCRLvB6dLQQEshtT/BAcPBjmyaQP8wNUBtZ7bBXBKwQOcoYUBh
h8LBlYnUQJe4uEDB8cjByU8GQbI+rEDli8jBTMnlQEfkgUBs5sjBHJeQQIckfkCSOIPBTqOvQGSz
HUAPRILBdP3JQNCmgUAnnIPBj7ghQT6QCUEHwbjBjAYMQQN3CEGGWK/BCoEjQaHZ8EDkQK3BO1R2
QKjsTEDo26fB+bgMQL4ickBAF5nByWM1QOrrekBXP4zB

> <OMEGA_E>
6pIUPw==

> <OMEGA_NBR>
    133819

$$$$
298715
  -OEChem-04172616093D

 58 62  0     1  0  0  0  0  0999 V2000
    5.2294   -2.2373  -19.8437 C   0  0  0  0  0  0  0  0  0  0  0  0
    6.5074   -1.3075  -21.7431 C   0  0  0  0  0  0  0  0  0  0  0  0
    7.0477   -0.1953  -22.4248 C   0  0  0  0  0  0  0  0  0  0  0  0
    5.3218    0.1736  -20.1939 C   0  0  0  0  0  0  0  0  0  0  0  0
    5.6751   -1.1208  -20.6102 C   0  0  0  0  0  0  0  0  0  0  0  0
    6.7370    1.0957  -21.9750 C   0  0  0  0  0  0  0  0  0  0  0  0
    5.8410    1.2607  -20.9066 C   0  0  0  0  0  0  0  0  0  0  0  0
    6.4315    2.8418  -19.1939 C   0  0  0  0  0  0  0  0  0  0  0  0
    4.2100    3.3032  -18.9290 C   0  0  0  0  0  0  0  0  0  0  0  0
    7.3025    2.4366  -22.3262 C   0  0  0  0  0  0  0  0  0  0  0  0
    5.7241    4.5466  -23.9845 C   0  0  0  0  0  0  0  0  0  0  0  0
    5.1900    3.8400  -22.7354 C   0  0  0  0  0  0  0  0  0  0  0  0
    7.0670    4.7653  -21.3195 C   0  0  0  0  0  0  0  0  0  0  0  0
    7.3208    5.0986  -17.0999 C   0  0  0  0  0  0  0  0  0  0  0  0
    6.2982    5.0889  -15.2786 C   0  0  0  0  0  0  0  0  0  0  0  0
    7.6970    5.4036  -22.5671 C   0  0  1  0  0  0  0  0  0  0  0  0
    5.9012    4.6708  -16.6897 C   0  0  0  0  0  0  0  0  0  0  0  0
    6.6107    5.7501  -23.6122 C   0  0  1  0  0  0  0  0  0  0  0  0
    5.7238    2.7020  -20.5146 C   0  0  1  0  0  0  0  0  0  0  0  0
    6.3237    3.4714  -21.7188 C   0  0  2  0  0  0  0  0  0  0  0  0
    7.2480    6.1063  -15.9476 C   0  0  0  0  0  0  0  0  0  0  0  0
    8.4683    6.6628  -22.1441 C   0  0  0  0  0  0  0  0  0  0  0  0
    5.6008    3.1901  -16.8607 C   0  0  0  0  0  0  0  0  0  0  0  0
    4.8675   -3.1368  -19.1971 N   0  0  0  0  0  0  0  0  0  0  0  0
    5.3981    2.9534  -18.2765 N   0  0  0  0  0  0  0  0  0  0  0  0
    4.3382    3.0807  -20.2097 N   0  3  0  0  0  0  0  0  0  0  0  0
    3.0654    3.8037  -18.3268 N   0  0  0  0  0  0  0  0  0  0  0  0
    7.6193    2.6369  -18.9633 O   0  0  0  0  0  0  0  0  0  0  0  0
    7.2554    6.1932  -24.7971 O   0  0  0  0  0  0  0  0  0  0  0  0
    8.4240    6.2620  -15.2898 F   0  0  0  0  0  0  0  0  0  0  0  0
    6.6578    7.2874  -16.2888 F   0  0  0  0  0  0  0  0  0  0  0  0
    6.7294   -2.3070  -22.0867 H   0  0  0  0  0  0  0  0  0  0  0  0
    7.6911   -0.3370  -23.2806 H   0  0  0  0  0  0  0  0  0  0  0  0
    4.6681    0.3256  -19.3478 H   0  0  0  0  0  0  0  0  0  0  0  0
    8.3061    2.5560  -21.8920 H   0  0  0  0  0  0  0  0  0  0  0  0
    7.3589    2.5558  -23.4182 H   0  0  0  0  0  0  0  0  0  0  0  0
    6.3184    3.8325  -24.5734 H   0  0  0  0  0  0  0  0  0  0  0  0
    4.8742    4.9006  -24.5866 H   0  0  0  0  0  0  0  0  0  0  0  0
    4.4710    4.5052  -22.2349 H   0  0  0  0  0  0  0  0  0  0  0  0
    4.6803    2.9155  -23.0447 H   0  0  0  0  0  0  0  0  0  0  0  0
    7.8569    4.5244  -20.5930 H   0  0  0  0  0  0  0  0  0  0  0  0
    6.3554    5.4714  -20.8668 H   0  0  0  0  0  0  0  0  0  0  0  0
    8.0897    4.3202  -16.9860 H   0  0  0  0  0  0  0  0  0  0  0  0
    7.3978    5.5461  -18.1018 H   0  0  0  0  0  0  0  0  0  0  0  0
    5.4879    5.5349  -14.6833 H   0  0  0  0  0  0  0  0  0  0  0  0
    6.7992    4.3073  -14.6886 H   0  0  0  0  0  0  0  0  0  0  0  0
    8.4024    4.6881  -23.0149 H   0  0  0  0  0  0  0  0  0  0  0  0
    5.1237    5.3173  -17.1228 H   0  0  0  0  0  0  0  0  0  0  0  0
    5.9712    6.5465  -23.2036 H   0  0  0  0  0  0  0  0  0  0  0  0
    8.9243    7.1289  -23.0300 H   0  0  0  0  0  0  0  0  0  0  0  0
    7.7763    7.3747  -21.6706 H   0  0  0  0  0  0  0  0  0  0  0  0
    9.2567    6.3865  -21.4285 H   0  0  0  0  0  0  0  0  0  0  0  0
    6.4470    2.5895  -16.4958 H   0  0  0  0  0  0  0  0  0  0  0  0
    4.6927    2.9228  -16.3003 H   0  0  0  0  0  0  0  0  0  0  0  0
    3.6023    3.1568  -20.8824 H   0  0  0  0  0  0  0  0  0  0  0  0
    2.2624    4.0206  -18.8818 H   0  0  0  0  0  0  0  0  0  0  0  0
    3.0431    3.9476  -17.3374 H   0  0  0  0  0  0  0  0  0  0  0  0
    7.8108    6.9374  -24.5967 H   0  0  0  0  0  0  0  0  0  0  0  0
  1  5  1  0  0  0  0
  1 24  3  0  0  0  0
  2  3  2  0  0  0  0
  2  5  1  0  0  0  0
  3  6  1  0  0  0  0
  4  5  2  0  0  0  0
  4  7  1  0  0  0  0
  6  7  2  0  0  0  0
  6 10  1  0  0  0  0
  7 19  1  0  0  0  0
  8 19  1  0  0  0  0
  8 25  1  0  0  0  0
  8 28  2  0  0  0  0
  9 25  1  0  0  0  0
  9 26  2  0  0  0  0
  9 27  1  0  0  0  0
 10 20  1  0  0  0  0
 11 12  1  0  0  0  0
 11 18  1  0  0  0  0
 12 20  1  0  0  0  0
 13 16  1  0  0  0  0
 13 20  1  0  0  0  0
 14 17  1  0  0  0  0
 14 21  1  0  0  0  0
 15 17  1  0  0  0  0
 15 21  1  0  0  0  0
 16 18  1  0  0  0  0
 16 22  1  0  0  0  0
 17 23  1  0  0  0  0
 18 29  1  0  0  0  0
 19 20  1  0  0  0  0
 19 26  1  0  0  0  0
 21 30  1  0  0  0  0
 21 31  1  0  0  0  0
 23 25  1  0  0  0  0
  2 32  1  0  0  0  0
  3 33  1  0  0  0  0
  4 34  1  0  0  0  0
 10 35  1  0  0  0  0
 10 36  1  0  0  0  0
 11 37  1  0  0  0  0
 11 38  1  0  0  0  0
 12 39  1  0  0  0  0
 12 40  1  0  0  0  0
 13 41  1  0  0  0  0
 13 42  1  0  0  0  0
 14 43  1  0  0  0  0
 14 44  1  0  0  0  0
 15 45  1  0  0  0  0
 15 46  1  0  0  0  0
 16 47  1  0  0  0  0
 17 48  1  0  0  0  0
 18 49  1  0  0  0  0
 22 50  1  0  0  0  0
 22 51  1  0  0  0  0
 22 52  1  0  0  0  0
 23 53  1  0  0  0  0
 23 54  1  0  0  0  0
 26 55  1  0  0  0  0
 27 56  1  0  0  0  0
 27 57  1  0  0  0  0
 29 58  1  0  0  0  0
M  CHG  1  26   1
M  END
> <OMEGA_C>
FVenQFwvD8DSv57BTjzQQNxap7/b8a3Ba4bhQGD0R74SZrPBbkyqQGi/MT4XjaHBjpq1QAt2j7+3
4aTBNZXXQPZAjD/WzK/BNOm6QK5foT+4QKfB8s7NQMTgNUAKjZnBO7iGQN9nU0CebpfB563pQNXw
G0D5m7LBbSu3QNx9kUBT4L/BkhSmQAHCdUAK4rXBkCTiQIZ9mEBjjqrBN0TqQHQno0CnzIjBxIrJ
QATYokBMdXTBFk72QG7qrECEibTBRda8QDh3lUBwhIXBrYrTQAYBuEC75bzBVSm3QBPtLED7HaTB
gVvKQLcrXkArwK3BYO/nQOJmw0B8KX/BI34HQVI11UAvJ7HBaTmzQOoqTEC34obBNMKbQJ/BSMCR
k5nBAr2sQDEFPUBSNpLBzdKKQHApRUB1raHBnS9EQINvc0AxnZLBfdHzQHPDKEDUtJfBXizoQHwu
xkCQYMbBo8gGQYxiyEDkonTB+wzVQBIy6UByT4LBVFfXQFilE8CcsbDBTB32QLaRrL6nPrrBDmGV
QLGzpj46yJrBsuUEQcaVI0DAIq/B0HvrQIKSI0CFWLvBtDDKQOlHdUBQlsTBr/mbQGzRnEBrscTB
lBKPQLsqkEAI4bHBZMWVQBeYOkB6W7jBA2z7QJbHkEBnvqTBFF/LQBsWr0Ac76bBW28BQQc/ikA6
44fBGrvsQLN5sUCE0JDBrJyvQDkesUDY7mrBN5PZQLHViUBoBGvBQHAGQdMElkB7HrjBBfWjQAUn
qkB1+4jBZBS/QLp80UDyoLnBCMoOQVIg5EBhPbjBINf4QGb960BYXa3BXRsUQZZezECIbavBfk3O
QDW6JUBM94PBuCqWQGgPO0AYZ4LB14tmQG4JSkA7D6fBB8sQQBypgED2DZfB8sFCQGGlfEAHs4rB
YfL5QOv+3UAGxsTBgaKbQLYxFMBFi6PBaJzPQM5ao793z6/B8uzkQH4ADL7U1bPBU7amQDRS+z2O
T6PBqqiwQDkgk7/2k6fBbMPaQADwkD8HtK/ByMW7QMGfnz/jjqfBi0jOQMrUOUBPZ5nB8y+HQDj8
XEDEZZfBKlvsQHqhIEA1C7LBUTy3QKYBkkAqL8DBtaemQHqbcEC2c7bBNVveQD+cm0BBjqrB2PG4
QLm8ykC4ro3BUO3LQBQ7wkAIaXvBfYPwQCEZtEB6VLTBJaOsQLSIqUAuB4XBqY/MQC5PvECiqbzB
JBO3QKBMLEA1BKTBNw7KQES7X0A0wa3BzbXjQLkq0kCJ1YfBRBsCQWLN3kDwdbDB64y4QPr1c0BI
QIfBdo2KQEgpUcAERqDB5J+vQMArWkDzbZLB8VGKQM5uQkANXqHB5ktCQMTId0CYr5LB7u/zQE6c
KkCWYZfBCq7dQO8G0UAN6cXB+B8CQQNguEBUKovB71vvQBAO/ECsZIfBtPLWQNEeEMB/B7PBj838
QFu/dL4aB7rB4YuPQA/0aT6J9JzBeIEFQR5VKkBt5K3BhfLwQDBgKUAps7rBGtbOQAcIfUCnh8TB
BiecQJ9amUAnf8XB9GCMQFNYikDFt7LBKpSaQM+LMkBGTrnBv4P4QGu1lUDm2qTBTK7FQKB7r0Cl
uKbBRUq8QMJVvUDOxpXBqvKjQML35kAO9Y3Buuq8QELG20Aq6HHBg0vfQOHArUAV3nDBaNwEQdqg
oEBtE7jBJTCLQHACrUC7bYLBFg+0QDKw0EAa7bjBZ5kIQdxs8EAfWrfBbFvrQJ4w8kB6i6zBcgsP
QUso2EAZu6rBYeLaQFoga0Dnp4XBAtylQCbcSkCx2IHBEntjQNjcPUA6dabB4v8LQF2bd0C865bB
2OdBQOSchUBqEIvBdurqQK4i60Dw28PBND2bQNUdFMDRpqPBaujOQCELo799/a/BSD3kQOm8Cb7G
ArTBWbCmQPT++j1qVKPBy0iwQC/4kr8YrqfBfG7aQAoKkT8Iy6/B0Mq7QImknz90kKfBgWXOQP/c
OUCtUpnBCEqHQLoOXUC+Y5fBvirsQPKUIEBeGrLBoNe2QINHkkBaG8DBJH2mQNQ7cUA4W7bBPNHe
QP9/m0D+fKrBSSjRQLPOuEBOPnbByFCiQL9NykAabobBEnPwQBIutECwUbTBuSrGQLIzqEBqcIbB
uETMQOKBvEDElrzBAke3QL9aLEBY+qPB/SDKQL/iX0BMuK3Bz9+iQFbZyUCvGnTBMTECQXbO3kB5
fbDBTJu3QJh7cUAMEYfBICSKQM4UUcCnYqDB9z6vQLEvV0CfQJLB4IyKQPmkQkB8W6HBr1dCQJ/S
d0DJuZLBUhf0QHo/K0DcR5fBWCfdQI9E0UCv3MXBVPuGQHu7rUAL/WrBQFmgQEiB8UBhNmvB8fnV
QAXiD8BVRbPBh9z7QNFQcb7yQ7rBHcCPQF92aD7n65zBgHkFQaPPKUBb/q3BO5DwQICiKUCswrrB
A1POQFSRfUDAfcTB36WbQBaumUAJYcXBu2mMQKzBikCFkLLBZS6aQFNRM0CVMrnB/0/5QG1NlUDc
56TBP3vGQGVbr0AChKbBinTZQIGJn0AWt2rBm+bpQP/V0UDF73XBGJ+rQIsY6UDWAIrBSQGEQGZy
v0C1/InBy8AEQZu+oECVI7jBz3XfQJuIr0A+R4zB9eGzQEbg0EA9zbjBGnwIQXmD8EARarfBP8Xr
QCYn8kCod6zB5ksPQdIT2ECZ3KrBOOfQQAKLSEAktoPBrByaQJeXaUCtXYLB6hFkQAdCPkBEeKbB
nzkMQJS1d0AW/5bB+KJBQIeXhUDgGYvB2XfqQJ9a60Aw08PBiuOgQPyfFcDkTaLBGhHUQKi2pL/s
t67B3g7oQLBeDr6HAbPB3HKoQCyg4z3KzaLB+Xa0QNILlb/uoqbBdNnbQFkCkT/cTq/Bsvm7QND/
nj9mXqfBjMjNQHIzOkA+nZnBoiCHQJYcX0C8aZfBCQLsQBVYIUCz7LHBiGO1QMDEj0DgYMDBWVGl
QGfXbECojbbBzunbQJITnEBMs6rB4AnyQBTFiUBGTHHBb2oBQbvYnEBNEojBbU/tQK2FtEDalrTB
A67mQNLgb0BOuoPBkFvJQHvsukAOB73BMSO2QC8TLECVB6TBmcHIQPM2X0DczK3B/YoOQdZWmEDw
ZHvBg5P/QPgi4EDl7LDBd+K2QGZWckBIDYfBZPCQQKz0UsDoyp7BGv6vQJT6XkDzm5LB8IuJQOeN
QUBoQ6HBrkNCQEgHeUBgl5LBPWnzQBU6J0ALK5jB0CHaQNxMz0AVXcbBzgAWQZgKvkD2nHPBfvod
QeHbckD6SXzBDezcQG0CEcCJnrHBXj4AQSAac74MEbnB8+SQQNCLWz4ZiZzBNkQFQdbCLUCR063B
BGLwQIixKECgm7rBkKvNQC1GeUBclsTBHUGaQO/llUA+xcXBcYSKQA0NiEBR7rLBlBqaQLO9LUB/
RLnBWUX2QNAil0AAAKXBFcDCQDB1r0A06KbBclPdQNXyo0DmtmvBLwv1QNkZY0BunWTBbTkKQRVg
lUAgdY/BBjXyQDumu0CVAInBPp0DQR+ioUBlN7jBiy/1QCzLMEDXLYXB+CewQCzlzkCTcrnB+PwF
Qa+n8UB25rfBTxbmQH378kCAGa3BpNMMQRPK2kDqKqvB5VOlQH/UQkD2Q4LBwTmqQCpSmUDXX4XB
wSNhQB+iOkBcMKbB9i0LQKC+dUC6pJbB7b9CQH93h0AiE4vB5o/mQPPz6UBKcMTBvGOXQGBwEMBL
GaPBKHfMQO9bpb/jdK/BW9/iQMCGOb4nnbPB/SylQHQwKj4rFKPB7ratQFR0j78iO6fB6QDaQC45
jT8fn6/BTVy7QJ5xoT+/cqfByMXOQDzeOkAUa5nB4ESHQCNXWkAvZ5fBDM7sQGkvHUDSLrLBz965
QJT3kUDFX8DB0ZuoQI9VckCckrbB92HiQFFTmkAC66rBPh6gQLPnzEDeyobBg2LYQMQ6w0Bl7Y/B
vZ70QGhdskCZurTBcfHEQJX8q0DCK4bBIpvQQGmiu0BH87zBCee3QLexLUAAFqTBINvLQHUXX0BG
7K3BRvurQG7w1kCciZLBYccEQZOK3EB037DBEV+4QOd6d0DXZofBNzSFQD7WS8BewJ/BsrKvQFnR
WUDfcZLBJCuLQGE0RUC0jqHBVAxCQHHWc0BjppLBJFn0QGW6K0AOTJfB5w7iQJOvz0BQQMbBTDGU
QFzMwUD92JnBDp2tQKagAEHo15TBEM7SQPfmEcB/kbLBsZj6QC13or4wzbnBqjeOQBBJnD6bt5zB
1egFQStkJUAzJq7B7RPxQCKJJECO3rrBzsHQQLoke0DussTBvveeQCcHmkDjrcXB0CmPQE5PjEBT
0rLBxD+bQJ4hNUCcW7nBX9v8QLk5k0CSZaXBDf/KQBQur0CZ6KbBwRKAQNHnvkByyYXBE9CjQBM8
6EDqUoHBhA3xQLjz2kCD3o3B1LnkQN6grUAlJ5bBO5cGQd9TnkA1jrjBF4XYQI74sEDE7X3Breu4
QIzS0ECNKrnB11QLQRLz7UC9yLfBvF3xQPt48EBY3qzBZsIRQScr1UAhOavBmMrSQHO6UEBCL4TB
RlibQDpZbEA/n4LBWUpmQEYRRUCh16bBYHcMQJf2dkDoAZfBD7dAQD6CgUBJ4YrBRSjwQAJn6UAs
QMTBQOynQLbZDsBlgp7BuXvQQI5np7/kxK3B1lXhQNieS75lWLPBRPCqQPTpOD5IW6HBmCa2QM7k
jr/zqKTBA0HXQA4gjD/01K/BTCC7QCLboT/oLqfBiDLOQNisN0CSoJnBVOSGQMV6VUA5gJfBCKro
QG3eG0AI57LBJ8+1QLYBk0Auv7/BgVOlQEmBd0CTybXBNLXiQDIumEA4qarBp1zjQAclrEBKAYjB
5yTFQCYsokCJanLBdvn1QAYDrUCms7TBGYS4QM1hl0BBtoTBpjrSQKNNuUBkrbzBFkK3QMdVLUDB
JKTBaw3KQM95XkCn1q3BX4P0QANeoUBNhXnB2+wHQSeN1ECcVrHB3pCzQIeHTkBW9IbBS1qcQBWI
SMCLWpnBFWatQBedQkDbUpLB4s+KQE0DRUBXsaHB44NDQDfMckBmqJLBO9vzQB54J0ACtZfBA3Tl
QF/8yECjMMbBNu8DQRO/dECu4XfBrxcGQddAwUBMzHDB/7LXQDLHE8DidbDBcrf1QPyhsL5qObrB
HGuWQMV6rD6NhJrBJ6MEQWL+I0DHv6/BDB3pQNbRIkCkqLvB4p7IQHgHeUCUncTBZVmaQCCcnkAe
bcTB26WOQFbUkECzmbHBV8KUQHTOPEC2U7jBAIz8QO/Pj0AyEKXBbKLMQB3PrkA+yqbBew30QE/E
m0AklY7B01zhQASVzkDEwYnBLNe5QBqQwUBDzmzBgpq8QBmAiUCUnGbBoMsFQS/6lUCTlbjBwb6c
QH76qUAheYfBrw2+QCUg0kAkAbnBleYOQd2640CZeLjBI6j6QOJz60D7Q63BD9EUQcrNykCB3avB
U5DQQP1vLEB4XITBVbSXQIB7NUDnlILByyRmQKIPSEAfC6fBjuoOQL7EfECnCpfBkY5CQBX4fUAT
yIrBBD33QKC54ECxhsTBF4ylQMySEMD/2Z7BxVTPQBLaqb8k1q3BdrfgQMBUYL4WTrPB69mqQDCs
Jj6bM6HBEBu1QFJokb8itaTBDj7XQG9liT80rK/BgpG7QEWhnz8W7qbBtYXOQMSwOUD2lpnBQjmH
QGajWUASgJfBY7ToQC4oGkDAybLBmru1QGp4kUDny7/BUFmlQMSBdUDwvLXBawjjQMisl0BPzqrB
wdvgQEUdkECjdXDBt7TqQBcBqUAbzYfBG1P2QNioq0BQ9LTBtyXfQFi2eEDpZIPB+HDSQGLJt0BK
5bzBOmW3QPyiLEDk/aPBKyHKQGwgXUCDya3BFPDZQNuQvEA5nnrBa1wIQZIc00Avy7HBZVSzQPpb
VUCXw4bBFNaYQMblSsAv/JnBoRKvQDiSVECwcJLBE/GKQMz3Q0CIjqHBMxJCQKR1cUAFtZLBpEv0
QALGKECV8JfBO3TlQFEPx0AqesbBojuwQPA2yUDEXXvBaEz0QL0B20BXfHLBBQvWQD/2FMBen7DB
Pwv1QKLDur7QMbrBBa+WQFgNoz70S5rBZaYEQdlOIkBFoK/B3jjpQHa1IECHjLvBdk7IQDxJdUDn
n8TBmjeaQKD8nEAKeMTB4siOQIYZkEAYmbHBcKyUQKWhOkC+KrjBl9/8QKeaj0BsLqXBNRjNQGOx
rkAYCKfB+enGQGzGhUBBv2XB8Mv/QBdQjEB6SGjBPYwGQSj2rUAYNonBMqHYQGhxskBc+Y7BLMgF
QfghlEA1yLjB0f74QFUVSkCis4TBkXu+QL3W0EAPP7nBYlYPQYWn4UAwArnB5eL7QFGF6kBWya3B
0EIVQTBvyUBgUazB6eyvQKykE0CEuYPBAQWaQKDifUBrVoPB3dZlQKZdQ0Br16bBKhQMQBDNckDO
/5bBsPdAQKumgEAT9YrBr2H3QKXI3kC15cTB

> <OMEGA_E>
75iBP8Yjiz/IIYs/NhaKPwwFij/fpIE/rD+CPw==

> <OMEGA_NBR>
    140779

$$$$
50225091
  -OEChem-04172616093D

 50 53  0     1  0  0  0  0  0999 V2000
    5.8514   -5.4314  -18.5746 C   0  0  0  0  0  0  0  0  0  0  0  0
    3.2634   -2.7585  -18.1287 C   0  0  0  0  0  0  0  0  0  0  0  0
    3.9555   -3.9756  -17.9823 C   0  0  0  0  0  0  0  0  0  0  0  0
    3.7556   -1.7739  -19.0026 C   0  0  0  0  0  0  0  0  0  0  0  0
    6.1367   -1.2884  -21.8231 C   0  0  0  0  0  0  0  0  0  0  0  0
    6.6747   -0.2664  -22.6226 C   0  0  0  0  0  0  0  0  0  0  0  0
    5.6263   -3.2285  -19.5958 C   0  0  0  0  0  0  0  0  0  0  0  0
    5.4218    0.3664  -20.1908 C   0  0  0  0  0  0  0  0  0  0  0  0
    5.1372   -4.2064  -18.7166 C   0  0  0  0  0  0  0  0  0  0  0  0
    4.9411   -2.0083  -19.7398 C   0  0  0  0  0  0  0  0  0  0  0  0
    5.4944   -0.9670  -20.6083 C   0  0  0  0  0  0  0  0  0  0  0  0
    6.5828    1.0781  -22.2105 C   0  0  0  0  0  0  0  0  0  0  0  0
    5.9843    1.3933  -20.9657 C   0  0  0  0  0  0  0  0  0  0  0  0
    6.4857    2.8794  -19.0433 C   0  0  0  0  0  0  0  0  0  0  0  0
    4.2401    3.3139  -18.9310 C   0  0  0  0  0  0  0  0  0  0  0  0
    7.1794    2.1561  -23.0871 C   0  0  0  0  0  0  0  0  0  0  0  0
    6.5813    3.8675  -21.3469 C   0  0  0  0  0  0  0  0  0  0  0  0
    5.8933    2.8180  -20.4350 C   0  0  1  0  0  0  0  0  0  0  0  0
    6.4974    3.5238  -22.8530 C   0  0  0  0  0  0  0  0  0  0  0  0
    7.2753    4.5999  -23.6392 C   0  0  0  0  0  0  0  0  0  0  0  0
    5.0290    3.5053  -23.3630 C   0  0  0  0  0  0  0  0  0  0  0  0
    5.5475    3.3614  -16.7551 C   0  0  0  0  0  0  0  0  0  0  0  0
    6.4440   -6.4293  -18.4697 N   0  0  0  0  0  0  0  0  0  0  0  0
    5.4210    3.1296  -18.1983 N   0  0  0  0  0  0  0  0  0  0  0  0
    4.4824    3.1756  -20.2142 N   0  3  0  0  0  0  0  0  0  0  0  0
    2.9914    3.5841  -18.3945 N   0  0  0  0  0  0  0  0  0  0  0  0
    7.6428    2.6239  -18.7282 O   0  0  0  0  0  0  0  0  0  0  0  0
    2.3559   -2.5817  -17.5705 H   0  0  0  0  0  0  0  0  0  0  0  0
    3.5818   -4.7320  -17.3080 H   0  0  0  0  0  0  0  0  0  0  0  0
    3.2287   -0.8375  -19.1119 H   0  0  0  0  0  0  0  0  0  0  0  0
    6.2144   -2.3187  -22.1377 H   0  0  0  0  0  0  0  0  0  0  0  0
    7.1600   -0.5117  -23.5557 H   0  0  0  0  0  0  0  0  0  0  0  0
    6.5278   -3.4123  -20.1614 H   0  0  0  0  0  0  0  0  0  0  0  0
    4.9273    0.6086  -19.2617 H   0  0  0  0  0  0  0  0  0  0  0  0
    8.2515    2.2484  -22.8593 H   0  0  0  0  0  0  0  0  0  0  0  0
    7.0518    1.8697  -24.1414 H   0  0  0  0  0  0  0  0  0  0  0  0
    6.0967    4.8415  -21.1843 H   0  0  0  0  0  0  0  0  0  0  0  0
    7.6420    3.9337  -21.0632 H   0  0  0  0  0  0  0  0  0  0  0  0
    6.8032    5.5812  -23.4839 H   0  0  0  0  0  0  0  0  0  0  0  0
    8.3157    4.6332  -23.2835 H   0  0  0  0  0  0  0  0  0  0  0  0
    7.2619    4.3521  -24.7109 H   0  0  0  0  0  0  0  0  0  0  0  0
    4.5663    4.4874  -23.1856 H   0  0  0  0  0  0  0  0  0  0  0  0
    5.0180    3.2841  -24.4405 H   0  0  0  0  0  0  0  0  0  0  0  0
    4.4634    2.7309  -22.8240 H   0  0  0  0  0  0  0  0  0  0  0  0
    4.5512    3.5348  -16.3223 H   0  0  0  0  0  0  0  0  0  0  0  0
    6.0048    2.4804  -16.2810 H   0  0  0  0  0  0  0  0  0  0  0  0
    6.1818    4.2428  -16.5796 H   0  0  0  0  0  0  0  0  0  0  0  0
    3.8042    3.2962  -20.9391 H   0  0  0  0  0  0  0  0  0  0  0  0
    2.1999    3.6868  -18.9970 H   0  0  0  0  0  0  0  0  0  0  0  0
    2.8818    3.6765  -17.4048 H   0  0  0  0  0  0  0  0  0  0  0  0
  1  9  1  0  0  0  0
  1 23  3  0  0  0  0
  2  3  1  0  0  0  0
  2  4  2  0  0  0  0
  3  9  2  0  0  0  0
  4 10  1  0  0  0  0
  5  6  2  0  0  0  0
  5 11  1  0  0  0  0
  6 12  1  0  0  0  0
  7  9  1  0  0  0  0
  7 10  2  0  0  0  0
  8 11  2  0  0  0  0
  8 13  1  0  0  0  0
 10 11  1  0  0  0  0
 12 13  2  0  0  0  0
 12 16  1  0  0  0  0
 13 18  1  0  0  0  0
 14 18  1  0  0  0  0
 14 24  1  0  0  0  0
 14 27  2  0  0  0  0
 15 24  1  0  0  0  0
 15 25  2  0  0  0  0
 15 26  1  0  0  0  0
 16 19  1  0  0  0  0
 17 18  1  0  0  0  0
 17 19  1  0  0  0  0
 18 25  1  0  0  0  0
 19 20  1  0  0  0  0
 19 21  1  0  0  0  0
 22 24  1  0  0  0  0
  2 28  1  0  0  0  0
  3 29  1  0  0  0  0
  4 30  1  0  0  0  0
  5 31  1  0  0  0  0
  6 32  1  0  0  0  0
  7 33  1  0  0  0  0
  8 34  1  0  0  0  0
 16 35  1  0  0  0  0
 16 36  1  0  0  0  0
 17 37  1  0  0  0  0
 17 38  1  0  0  0  0
 20 39  1  0  0  0  0
 20 40  1  0  0  0  0
 20 41  1  0  0  0  0
 21 42  1  0  0  0  0
 21 43  1  0  0  0  0
 21 44  1  0  0  0  0
 22 45  1  0  0  0  0
 22 46  1  0  0  0  0
 22 47  1  0  0  0  0
 25 48  1  0  0  0  0
 26 49  1  0  0  0  0
 26 50  1  0  0  0  0
M  CHG  1  25   1
M  END
> <OMEGA_C>
pD67QCXOrcDhmJTBc9tQQMyLMMCIB5HBVSZ9QI1vfsCq24/BbltwQPYP479tBZjBfl/EQMjqpL+4
la7B95bVQNhkiL4Z+7TBnQq0QNCfTsA3xJzBFX+tQN6auz68hqHBDGSkQO2ahsCfu5XBsh2eQIuI
AMAx653BF9KvQPmPd7+43aTBrabSQAQAij8Xr7HBLn+/QBBZsj+7uafBw4rPQCBIOEDAWJjByK6H
QG4XVECxcpfBSL3lQC/9CUBUsrjBm5nSQNOEd0B3xqrBwpW8QHlaNEDSeqPBT+rPQMuFYUDk0rbB
K8/oQAUyk0AXHb3BRe2gQMVWYEBr57rBMoWxQPsgV0BcCobBpjXOQJa8zcDrwZPBdHitQJ9KSEAj
lpHBb2+PQHM9S0CxtqHBs3M/QJdiZUDoJ5PBq5H0QHvtJ0B005XBBscWQHI6JcBbkIzBcztlQGls
l8DhdorBQKNOQOVmVr8q5ZjBXdzGQPtkFMDtGbHBGB/lQJ79Ar8QcrzB2ePQQPBiWsCJSqHBM6yd
QJXOGz/0F5rBUgYEQSDmD0DS37bBv6jhQOVQ7z+wIcHB+hfDQKvtmkBfeanB+Yr0QAbCe0BmgajB
j7PZQAeZskAf37vB8AwFQYpDlECiRLrB3WHoQJpEi0DYr8XBzB6SQHWYj0AzfLnBEZOgQFYvUkAa
hsPBhtSOQNjHLkB0l7bBgKORQGg6YkABlILBBCfAQFi+HkCCP4LBg9HFQPLEh0AZo4TBSXdzQOT0
UkBVg6fBkMsMQDL0a0DF+ZfBmm84QAZMa0APPYvB6OsHQCTHIMAD2orB+uakQJ26h8Ae0JXB3Pd+
QK7Xf8DK2I/BBaW0QOrMUMCq25zBU3HEQALapb9Eq67BQgLVQN4Hib7lHLXBat5yQEwC5b9f8ZfB
MNetQI6PtD7iiKHBzIFTQJJJMcCm7JDBPAqfQNj1AcCJ653B6GKwQHFse79p4aTB/P/RQIa9iT91
y7HBCFK/QKJdsT/sxafBUlvPQMkrN0CwVJjBIJuHQIFyU0AddpfBx/7kQPPuCUCr0LjBw9XSQKD8
dkABuarBdIi8QP6/M0CAe6PBGvjPQK0KYkBezLbB8YvpQGU9k0A+/7zBc/6gQEj1YkC737rB4nOx
QOTTV0AOGIbBAoKUP9b/EsAo5YXBhSetQETVRUC/j5HBF26PQE7gSkB5uqHBGJM/QOJXZkBJMpPB
H4v0QJ1DKEBR0ZXBiYi1QIXWpcB4+ZTB5d5mQLILmMBlcYrBH0PRQAIAXcCsdKHBxBDHQHXIFMB9
NbHBkx3kQCwOAr9bpLzBX3tRQE1lWb8dxpjBWT2eQBErFz9IEJrB0roDQeTTDkAYIrfBsTngQOZi
8D9KP8HBVanDQBjFmkARV6nBu9D0QIZaekAVd6jBrxLbQIPhskA0qrvBwm0FQXGDk0BZJ7rBrPLo
QBm1i0CGl8XBqcCSQNUWkUBOWrnBh4KgQCO1VUANhMPBr3WOQG2dMUDQo7bBCYmRQPkEYUDGkILB
fXvBQMm1IUBPJILBdJPEQNYfiUA8+YTB/5NzQBXuUkDxiKfBIEMNQBNmbkCMCZjB9Wg4QP7sa0AE
R4vBpmW2QNaWrMDgqJLBRuVIQIOcKsCMO5LBwLFyQIdGeMBqBJDB9k9vQIgf3r+GHpnBjcDLQJb/
qb8tza3Bv0/bQA7Ql778aLTBc5K0QP/mTsDLspvBN86vQIqeqj4TeqHB4UChQAcqhcBkypTBdQOg
QO7LAMB4y53BS7W0QIIrgL/1c6TB//bTQIUchz/ysbHB8fG9QELSrj80H6jBJpvOQBPBQkASC5rB
jQaHQNFpVUDcBJfBbtfeQD5SCECNxbnBGca9QAUCdkBNGa3B1sq1QPHuMUCxWqTBRYHjQNJZYkBE
vbTBpZQHQfASakDrAK/BXQXiQJhzkkDz3b3BWC24QKI8YEB2DYfBpurHQLPQzMC9/ZDBMCOwQP17
W0C/nZLBwReJQEBsOkAp7KDBvDhCQHUSaUCr2pHB+abzQOygLkDTAJjBQIQLQLfdHMCBpo7BGrhV
QDkQk8BhqYrBtUFPQC7ETb/p3ZrBGWrRQBAkF8B136/BrO7sQGE3Cr9HlbvB3AbTQO0vXcAoX5/B
VNygQA2JEj/R7JnBPkL9QDeq7j9+qL3BZD/FQFmfCkBqzr/Bn4GgQPGxe0Cc77HBMVbEQAmzmUDK
HanBGRcJQXcblUCddKvB66EIQSx4OUDDqKjBZY4UQTYDYECD0LTBv0blQGHQskClgLrB1Gv8QMli
jECQfMPBik7DQCDaj0DOHcLBRPCaQNt1dUDZ7oLBbX3BQO2tIECtEYTBtiLSQMYPh0DEfoXBKmtf
QMxkLUB2g6XB5XYKQDzsYkCftJXBmS5DQGxtfUBCRYrB

> <OMEGA_E>
sDnmPghP6D7Wdxo/

> <OMEGA_NBR>
    143616

$$$$
50225094
  -OEChem-04172616093D

 48 51  0     1  0  0  0  0  0999 V2000
    3.2964   -2.8360  -18.1688 C   0  0  0  0  0  0  0  0  0  0  0  0
    3.7667   -1.8505  -19.0452 C   0  0  0  0  0  0  0  0  0  0  0  0
    6.1107   -1.3144  -21.8557 C   0  0  0  0  0  0  0  0  0  0  0  0
    6.6276   -0.2797  -22.6549 C   0  0  0  0  0  0  0  0  0  0  0  0
    5.4351    0.3191  -20.1865 C   0  0  0  0  0  0  0  0  0  0  0  0
    4.0409   -4.0197  -18.0047 C   0  0  0  0  0  0  0  0  0  0  0  0
    5.5143   -1.0148  -20.6118 C   0  0  0  0  0  0  0  0  0  0  0  0
    4.9786   -2.0696  -19.7331 C   0  0  0  0  0  0  0  0  0  0  0  0
    6.5499    1.0601  -22.2233 C   0  0  0  0  0  0  0  0  0  0  0  0
    5.9724    1.3601  -20.9656 C   0  0  0  0  0  0  0  0  0  0  0  0
    5.6896   -3.2755  -19.5034 C   0  0  0  0  0  0  0  0  0  0  0  0
    6.4654    2.8404  -19.0328 C   0  0  0  0  0  0  0  0  0  0  0  0
    4.2326    3.3212  -18.9301 C   0  0  0  0  0  0  0  0  0  0  0  0
    7.1607    2.1439  -23.0854 C   0  0  0  0  0  0  0  0  0  0  0  0
    6.5759    3.8427  -21.3236 C   0  0  0  0  0  0  0  0  0  0  0  0
    5.8790    2.7828  -20.4265 C   0  0  1  0  0  0  0  0  0  0  0  0
    6.5088    3.5236  -22.8344 C   0  0  0  0  0  0  0  0  0  0  0  0
    7.3264    4.5940  -23.5902 C   0  0  0  0  0  0  0  0  0  0  0  0
    5.0494    3.5502  -23.3638 C   0  0  0  0  0  0  0  0  0  0  0  0
    5.5588    3.4715  -16.7772 C   0  0  0  0  0  0  0  0  0  0  0  0
    5.2082   -4.2209  -18.6618 N   0  0  0  0  0  0  0  0  0  0  0  0
    5.4035    3.1052  -18.1893 N   0  0  0  0  0  0  0  0  0  0  0  0
    4.4671    3.1360  -20.2090 N   0  3  0  0  0  0  0  0  0  0  0  0
    3.0041    3.6857  -18.4032 N   0  0  0  0  0  0  0  0  0  0  0  0
    7.6374    2.6582  -18.7221 O   0  0  0  0  0  0  0  0  0  0  0  0
    6.9109   -3.4721  -20.0558 F   0  0  0  0  0  0  0  0  0  0  0  0
    2.3744   -2.6900  -17.6257 H   0  0  0  0  0  0  0  0  0  0  0  0
    3.2102   -0.9367  -19.1923 H   0  0  0  0  0  0  0  0  0  0  0  0
    6.1700   -2.3385  -22.1934 H   0  0  0  0  0  0  0  0  0  0  0  0
    7.0865   -0.5125  -23.6044 H   0  0  0  0  0  0  0  0  0  0  0  0
    4.9547    0.5507  -19.2473 H   0  0  0  0  0  0  0  0  0  0  0  0
    3.6724   -4.7859  -17.3386 H   0  0  0  0  0  0  0  0  0  0  0  0
    8.2351    2.2131  -22.8598 H   0  0  0  0  0  0  0  0  0  0  0  0
    7.0246    1.8745  -24.1431 H   0  0  0  0  0  0  0  0  0  0  0  0
    6.0902    4.8148  -21.1527 H   0  0  0  0  0  0  0  0  0  0  0  0
    7.6339    3.9046  -21.0290 H   0  0  0  0  0  0  0  0  0  0  0  0
    6.8775    5.5844  -23.4237 H   0  0  0  0  0  0  0  0  0  0  0  0
    8.3620    4.5939  -23.2191 H   0  0  0  0  0  0  0  0  0  0  0  0
    7.3226    4.3661  -24.6663 H   0  0  0  0  0  0  0  0  0  0  0  0
    4.6080    4.5397  -23.1742 H   0  0  0  0  0  0  0  0  0  0  0  0
    5.0481    3.3494  -24.4453 H   0  0  0  0  0  0  0  0  0  0  0  0
    4.4580    2.7799  -22.8472 H   0  0  0  0  0  0  0  0  0  0  0  0
    4.5673    3.6295  -16.3277 H   0  0  0  0  0  0  0  0  0  0  0  0
    6.0783    2.6619  -16.2436 H   0  0  0  0  0  0  0  0  0  0  0  0
    6.1475    4.3975  -16.7013 H   0  0  0  0  0  0  0  0  0  0  0  0
    3.7827    3.2228  -20.9329 H   0  0  0  0  0  0  0  0  0  0  0  0
    2.2215    3.8255  -19.0099 H   0  0  0  0  0  0  0  0  0  0  0  0
    2.9000    3.8091  -17.4163 H   0  0  0  0  0  0  0  0  0  0  0  0
  1  2  2  0  0  0  0
  1  6  1  0  0  0  0
  2  8  1  0  0  0  0
  3  4  2  0  0  0  0
  3  7  1  0  0  0  0
  4  9  1  0  0  0  0
  5  7  2  0  0  0  0
  5 10  1  0  0  0  0
  6 21  2  0  0  0  0
  7  8  1  0  0  0  0
  8 11  2  0  0  0  0
  9 10  2  0  0  0  0
  9 14  1  0  0  0  0
 10 16  1  0  0  0  0
 11 21  1  0  0  0  0
 11 26  1  0  0  0  0
 12 16  1  0  0  0  0
 12 22  1  0  0  0  0
 12 25  2  0  0  0  0
 13 22  1  0  0  0  0
 13 23  2  0  0  0  0
 13 24  1  0  0  0  0
 14 17  1  0  0  0  0
 15 16  1  0  0  0  0
 15 17  1  0  0  0  0
 16 23  1  0  0  0  0
 17 18  1  0  0  0  0
 17 19  1  0  0  0  0
 20 22  1  0  0  0  0
  1 27  1  0  0  0  0
  2 28  1  0  0  0  0
  3 29  1  0  0  0  0
  4 30  1  0  0  0  0
  5 31  1  0  0  0  0
  6 32  1  0  0  0  0
 14 33  1  0  0  0  0
 14 34  1  0  0  0  0
 15 35  1  0  0  0  0
 15 36  1  0  0  0  0
 18 37  1  0  0  0  0
 18 38  1  0  0  0  0
 18 39  1  0  0  0  0
 19 40  1  0  0  0  0
 19 41  1  0  0  0  0
 19 42  1  0  0  0  0
 20 43  1  0  0  0  0
 20 44  1  0  0  0  0
 20 45  1  0  0  0  0
 23 46  1  0  0  0  0
 24 47  1  0  0  0  0
 24 48  1  0  0  0  0
M  CHG  1  23   1
M  END
> <OMEGA_C>
ePhSQLaANcC6WZHBWxFxQObd7L+VXJjBL4vDQMA8qL+L2K7B5BTUQLg1j75FPbXBAeytQDRmoz7j
faHBD0+BQIahgMCHCZDB7HSwQOzkgb8O5aTB71CfQG90BMBx3Z3Bl5jRQJKxhz9eybHB0h2/QOAY
rj+duafBMRG2QCKhUcD7BpzBYOTOQGfJNUA5Q5jB0nGHQNiOVEDQcJfBKSTlQDg2CUDOrrjBZW3S
QFjvdUC3lqrB/SC8QIgZMkB7aaPBt0fQQHaCYUDXrLbBP3LqQFgCk0DCuLzBp5ShQBo2Y0AR6brB
deGxQGssXkDAN4bBZqmmQLARh8BrS5XBm+msQAm8RkC0g5HBjPKOQIa0SEAIrKHB3kJAQOzia0DP
OZPBWGX0QJ8gKkD0xpXBuCXdQOY2XsBPcqDBZfYXQBYpLMBeAY3BJnNNQMLMb7/TiZnB+3DFQKmp
FcAtjLHBYMTiQFExA7/p1bzB34yeQD75DD93+pnB8wdrQNUlmcCCtYrB4sIDQQajDUD34LbBr8ng
QBfx7z8pJcHBwOLCQN8SmkDAOKnBnkj0QJnleUBnO6jBhhTcQAqzskDIY7vBlcoFQZYBk0C/wLnB
hVLqQM22i0CiVMXBeHSTQExFkUCqZLnBJ4qhQBNdVkAIkMPB06eOQJ/pMUAOx7bBgCeSQGdKaEA0
n4LBaYHCQDddKkDd8oHBVLjEQLm4jEBWnIXBhRdyQC1CTkCWdqfByiwOQDHUdEA3FJjBipk5QNjH
c0CoVIvBYABOQLxBNMBwgZLBLNhxQOsM7L+XL5nB4gjLQJ8Tq7+TCq7BzFDaQAi4lr6GjrTBvuSv
QKAfmj4vZKHBNNh7QIwagMCaj5DBjCW1QGWLhL84dqTB0omhQPgcBcAvw53BOVbTQHqqhj/Jq7HB
GJm9QJq5rD99BqjBMOG2QKbzUsABdpvBglHOQPb2Q0AqIprBKeeGQK7JVkAr7ZbBz6bdQNwVCECI
zLnB4Xu7QPAOdUCmJ63B/PS0QKoXMUCvS6TB+sDgQHo0Y0C3ArXB620GQbARcEDKpK/BRqjcQJjj
kUCZUr7BAbS4QOgFZEDtIIfBzNakQJc5h8DJ/5TBFzKwQDqhXUDMqJLBQ3eIQGYyOEDpqqDB7JNC
QH5+bUAI05HBUt7zQCqqMkA5SJjBxvfeQKxdYcBNKZ/BwQgQQIAqKsBO5I7BBd9PQGoSbb8F0prB
BwnQQOdcF8CrXLDBaoLrQEq1Br+J0bvBxhGhQKBbBz9YzZnBD09gQIIrmMAxZ4vBH4f8QCHT8D8D
i73BxWLEQKgSCEAY7b/Ba76dQOsVeUDb1bHBQaHBQHt3mUCpP6nBBl4HQRV9mEDHRKzBJ3gIQeO9
QECVNanBuiUTQRufZ0BmorXBTr7eQMqwskA7LLvBxqz2QJGEjECJGMTB/qK9QHhujUBhVMLB8Z2b
QDe8eUBC+4LBVTDCQHjrJEDaB4TBvq/SQAEZiUD1vIXBHMpdQOjwJ0DkBqXBMogKQCDZZkC4mJXB
UEBEQJVGgkBPXYrBzOulQNWHh8CS5ZTBjiG4QDvGUsD91JvB9GDLQFfQrb+WEq7BjlPaQM2Gnr7F
nbTBlEqxQNYIiz5LRaHBfIp7QF4RfsB7OJDBi1y1QEplh7+ggqTBDMmhQJpoBsBR0p3BvsrSQD+k
hD+avLHBHIS9QMIHqT8eA6jBjdxxQAKr878P+ZjBI73NQCi7QkBMRJrBso6GQJ/5VECf0JbBGXLc
QPvWB0DH1rnBjKe3QJ7zcUAdOq3BIJezQDhDLkDdRKTBpi7dQLCQY0CSFrXBdmMEQdosdUD2r6/B
24LXQPHGkUA6ab7Bie64QI9iXEDYB4fBPxlQQOYbNcDYU5LB4OKvQK1MWEA2jZLBJWGHQHA5MkDs
VqDBhYlDQOE4ckCu4JHBmJDzQCzIMkCUlpjBr+RBQBo7Tr85LJvBk4K2QPsHpcD2JZPBBLXWQJfC
XsD4kZ/BV77QQDCvGMD3XLDBfKLrQKlICb8c37vBT4OkQL7H/D4ycZnB2QBgQCk7lsDe0YrBN/r7
QARa9T8xY73Bms3DQGuGBUC7HcDBnLmZQPfNcUDd27HBrP67QLhymEAmcKnBFnUEQZEpm0BSWqzB
//oGQUSXRkDON6nBRkARQckgb0BqpbXB1ejXQP+nskAnRbvB6c3xQD21jUA3LMTBPci4QJm7i0Cw
bcLBlLqbQPkDb0BYtILB56rDQHA7HUBrN4TBZi/SQAL7hUDaioXBW2VbQAN1HUA0WKTBNyALQH1s
bUC6m5XBuLpGQG0WhkBrk4rB

> <OMEGA_E>
UHuOPrQf6j5giuo+

> <OMEGA_NBR>
    146373

$$$$
50225095
  -OEChem-04172616093D

 45 48  0     1  0  0  0  0  0999 V2000
    6.1102   -1.3722  -21.7984 C   0  0  0  0  0  0  0  0  0  0  0  0
    6.6563   -0.3723  -22.6132 C   0  0  0  0  0  0  0  0  0  0  0  0
    5.3923    0.3248  -20.2097 C   0  0  0  0  0  0  0  0  0  0  0  0
    5.6461   -3.2792  -19.5275 C   0  0  0  0  0  0  0  0  0  0  0  0
    3.7581   -1.8706  -18.9751 C   0  0  0  0  0  0  0  0  0  0  0  0
    4.0198   -3.9794  -18.0056 C   0  0  0  0  0  0  0  0  0  0  0  0
    5.4764   -1.0250  -20.5911 C   0  0  0  0  0  0  0  0  0  0  0  0
    4.9495   -2.0676  -19.7017 C   0  0  0  0  0  0  0  0  0  0  0  0
    5.9787    1.3436  -20.9948 C   0  0  0  0  0  0  0  0  0  0  0  0
    6.6074    0.9772  -22.2198 C   0  0  0  0  0  0  0  0  0  0  0  0
    6.4767    2.8227  -19.0436 C   0  0  0  0  0  0  0  0  0  0  0  0
    4.2347    3.2588  -18.9604 C   0  0  0  0  0  0  0  0  0  0  0  0
    6.6481    3.8524  -21.3172 C   0  0  0  0  0  0  0  0  0  0  0  0
    5.9144    2.7861  -20.4542 C   0  0  1  0  0  0  0  0  0  0  0  0
    6.5050    3.6730  -22.8419 C   0  0  0  0  0  0  0  0  0  0  0  0
    7.2431    4.8243  -23.5487 C   0  0  0  0  0  0  0  0  0  0  0  0
    5.0308    3.6429  -23.3155 C   0  0  0  0  0  0  0  0  0  0  0  0
    5.5000    3.2739  -16.7658 C   0  0  0  0  0  0  0  0  0  0  0  0
    5.1755   -4.2126  -18.6762 N   0  0  0  0  0  0  0  0  0  0  0  0
    3.3066   -2.8339  -18.1460 N   0  0  0  0  0  0  0  0  0  0  0  0
    5.3924    3.0231  -18.2084 N   0  0  0  0  0  0  0  0  0  0  0  0
    4.5079    3.1823  -20.2442 N   0  3  0  0  0  0  0  0  0  0  0  0
    2.9780    3.5193  -18.4359 N   0  0  0  0  0  0  0  0  0  0  0  0
    7.6445    2.6494  -18.7131 O   0  0  0  0  0  0  0  0  0  0  0  0
    7.3446    2.1339  -23.2990 S   0  0  0  0  0  0  0  0  0  0  0  0
    6.1756   -2.4082  -22.0964 H   0  0  0  0  0  0  0  0  0  0  0  0
    7.1188   -0.6399  -23.5517 H   0  0  0  0  0  0  0  0  0  0  0  0
    4.8708    0.5883  -19.3015 H   0  0  0  0  0  0  0  0  0  0  0  0
    6.5583   -3.4606  -20.0765 H   0  0  0  0  0  0  0  0  0  0  0  0
    3.2066   -0.9482  -19.0821 H   0  0  0  0  0  0  0  0  0  0  0  0
    3.6515   -4.7381  -17.3310 H   0  0  0  0  0  0  0  0  0  0  0  0
    6.2459    4.8412  -21.0514 H   0  0  0  0  0  0  0  0  0  0  0  0
    7.7190    3.8134  -21.0688 H   0  0  0  0  0  0  0  0  0  0  0  0
    7.1481    4.7073  -24.6383 H   0  0  0  0  0  0  0  0  0  0  0  0
    6.8021    5.7847  -23.2433 H   0  0  0  0  0  0  0  0  0  0  0  0
    8.3069    4.8039  -23.2692 H   0  0  0  0  0  0  0  0  0  0  0  0
    4.9986    3.5132  -24.4074 H   0  0  0  0  0  0  0  0  0  0  0  0
    4.5073    2.8054  -22.8313 H   0  0  0  0  0  0  0  0  0  0  0  0
    4.5392    4.5887  -23.0441 H   0  0  0  0  0  0  0  0  0  0  0  0
    4.4939    3.3981  -16.3387 H   0  0  0  0  0  0  0  0  0  0  0  0
    6.0010    2.4225  -16.2821 H   0  0  0  0  0  0  0  0  0  0  0  0
    6.0859    4.1892  -16.5956 H   0  0  0  0  0  0  0  0  0  0  0  0
    3.8533    3.3669  -20.9773 H   0  0  0  0  0  0  0  0  0  0  0  0
    2.2008    3.6644  -19.0482 H   0  0  0  0  0  0  0  0  0  0  0  0
    2.8487    3.5620  -17.4452 H   0  0  0  0  0  0  0  0  0  0  0  0
  1  2  2  0  0  0  0
  1  7  1  0  0  0  0
  2 10  1  0  0  0  0
  3  7  2  0  0  0  0
  3  9  1  0  0  0  0
  4  8  1  0  0  0  0
  4 19  2  0  0  0  0
  5  8  2  0  0  0  0
  5 20  1  0  0  0  0
  6 19  1  0  0  0  0
  6 20  2  0  0  0  0
  7  8  1  0  0  0  0
  9 10  2  0  0  0  0
  9 14  1  0  0  0  0
 10 25  1  0  0  0  0
 11 14  1  0  0  0  0
 11 21  1  0  0  0  0
 11 24  2  0  0  0  0
 12 21  1  0  0  0  0
 12 22  2  0  0  0  0
 12 23  1  0  0  0  0
 13 14  1  0  0  0  0
 13 15  1  0  0  0  0
 14 22  1  0  0  0  0
 15 16  1  0  0  0  0
 15 17  1  0  0  0  0
 15 25  1  0  0  0  0
 18 21  1  0  0  0  0
  1 26  1  0  0  0  0
  2 27  1  0  0  0  0
  3 28  1  0  0  0  0
  4 29  1  0  0  0  0
  5 30  1  0  0  0  0
  6 31  1  0  0  0  0
 13 32  1  0  0  0  0
 13 33  1  0  0  0  0
 16 34  1  0  0  0  0
 16 35  1  0  0  0  0
 16 36  1  0  0  0  0
 17 37  1  0  0  0  0
 17 38  1  0  0  0  0
 17 39  1  0  0  0  0
 18 40  1  0  0  0  0
 18 41  1  0  0  0  0
 18 42  1  0  0  0  0
 22 43  1  0  0  0  0
 23 44  1  0  0  0  0
 23 45  1  0  0  0  0
M  CHG  1  22   1
M  END
> <OMEGA_C>
CIfDQIOkr78eY67BHgDVQFKivr7c57TB0I2sQA5Mpj6QraHBPq20QMvdUcBQOJzBs4RwQFRv77/u
zJfB+qGAQKaufsB/C5DBxT6vQMwxg7+GuqTB9WGeQMhTBMAGnZ3Bc1G/QPb7qz9E9afBGHDTQL0m
ej83wrHBLUHPQIGnNEBAWZjBlYKHQC2QUED8rpfBcr3UQICOdkCbiarBZUK9QMxPMkAsoqPBlSjQ
QBgTa0ArvLbB2sfnQL5gmkCsY7zBlPygQCMlaUA+hrrBuP+vQA6IUUBfIIbBoZ2lQI7NhsDZaJXB
7p9TQOBeNcAOK5HB6o6sQBF6QUDbqpHBEEGQQCqqS0Ah9KHBVpc+QI47YUCrfJPBtZ/0QAuQKUCC
tJXBQwfrQBSRCEBUZLrBc57FQIEgGsBWxbDBZ83jQFjRI7/4abzBmd2bQPiaFj9iaZrB/t3RQAV7
XcCWnKDBBzlNQPe8cr8bqJjBF7JpQN+el8DnpYrBUd7HQM/qmkBCaajBDAL3QKsOdEDhjKjBbb3k
QByilkA4G8XBKKvZQPUbuUBS8rnB6OgEQeG5mUBbJ7rBSfSfQJfXYEBYQsPBvDuQQJKLM0B9prbB
NEGRQAPXkkBjWrjBAs6PQIB6WUCwtYLBKQjAQAcKG0CmQYLBEMDCQKENhkDFw4TB2px2QM57V0Bu
0afBatoMQFyFakDAYpjBx1E2QJ33Y0C7j4vBJMnNQNb9sL+G6azBrnzcQO1Cwr6M1bPBuHmwQFlI
oz64JqHBnoa2QCFgVMAmeJvBlal2QPax6b/o2ZfBY315QKw/f8CS4pDBPrm2QBkohL+/pqPBah2j
QHHnA8Ci25zBnja+QOl9qz8uHajBGk7UQDxpej96prHBzlbOQNLvRUC3W5rBnMKGQHGbU0AC/5bB
AnS6QA6ZdUB0d63B9iu1QFyHMUAqk6TBVkbiQBhNbkAOsrTBuUkGQU9re0Dcmq7BZlneQMTDmUBu
a73BnIW4QNCVX0CTNIfBXB2jQJpYiMAHeZXBdX1RQErDMsAs+JHB/vevQOFMXECHxZLBBpGIQHY6
OEAD5aDBhBdCQMmjZUDWo5HBpr/zQMZqNEBdX5jBmhXkQGOuB0AIhrvBrSLUQHrzGsAPrq7Br0bu
QPaaJr+Y6rrBadOgQLJJFT9avpnBnPTUQBHVYcA2NJ/Bj4dXQGgvXr89vZjBgfRaQLk3mMA5KozB
8BSeQO7ccUCKp7LBCoi7QPNWmkCrkanBjcwTQVFudUDGMbTBRnEGQe3CnUDV96rBFb0HQSevSkDE
S6jBnkv6QAgomEBLwcLBugHBQFxTlEAmFsLBqO7cQBuIuUBHpbnBxEabQJf8ckBg84LB+ZrCQMT2
H0DBZ4TBgxfSQKcgh0BInIXB5wReQDfLKUCmW6XBLtwJQK3vXUA3VpXBLddDQFheekAKE4rB

> <OMEGA_E>
4D1NPiQUyD4=

> <OMEGA_NBR>
    156067

$$$$
50225133
  -OEChem-04172616093D

 47 50  0     1  0  0  0  0  0999 V2000
    6.4153   -1.3487  -21.6703 C   0  0  0  0  0  0  0  0  0  0  0  0
    6.8691   -0.3157  -22.5114 C   0  0  0  0  0  0  0  0  0  0  0  0
    5.5054    0.3060  -20.1456 C   0  0  0  0  0  0  0  0  0  0  0  0
    5.7028   -3.3320  -19.4885 C   0  0  0  0  0  0  0  0  0  0  0  0
    3.8554   -1.8448  -19.0112 C   0  0  0  0  0  0  0  0  0  0  0  0
    3.9478   -3.9818  -18.0856 C   0  0  0  0  0  0  0  0  0  0  0  0
    5.6968   -1.0349  -20.4982 C   0  0  0  0  0  0  0  0  0  0  0  0
    5.0875   -2.0792  -19.6615 C   0  0  0  0  0  0  0  0  0  0  0  0
    6.6209    1.0400  -22.1869 C   0  0  0  0  0  0  0  0  0  0  0  0
    5.9291    1.3458  -20.9901 C   0  0  0  0  0  0  0  0  0  0  0  0
    6.4403    3.0638  -19.2652 C   0  0  0  0  0  0  0  0  0  0  0  0
    4.2072    3.3511  -18.8747 C   0  0  0  0  0  0  0  0  0  0  0  0
    5.8617    3.8311  -21.6434 C   0  0  0  0  0  0  0  0  0  0  0  0
    5.6527    2.7676  -20.5383 C   0  0  1  0  0  0  0  0  0  0  0  0
    6.8984    2.1165  -23.2266 C   0  0  0  0  0  0  0  0  0  0  0  0
    7.0335    3.5461  -22.6115 C   0  0  0  0  0  0  0  0  0  0  0  0
    8.3993    3.7036  -21.8953 C   0  0  0  0  0  0  0  0  0  0  0  0
    6.9677    4.6118  -23.7383 C   0  0  0  0  0  0  0  0  0  0  0  0
    5.7460    3.4670  -16.8816 C   0  0  0  0  0  0  0  0  0  0  0  0
    5.1264   -4.2616  -18.6979 N   0  0  0  0  0  0  0  0  0  0  0  0
    3.3032   -2.7998  -18.2388 N   0  0  0  0  0  0  0  0  0  0  0  0
    5.4937    3.4429  -18.3287 N   0  0  0  0  0  0  0  0  0  0  0  0
    4.2617    2.8792  -20.0941 N   0  3  0  0  0  0  0  0  0  0  0  0
    3.0269    3.6881  -18.2366 N   0  0  0  0  0  0  0  0  0  0  0  0
    7.6075    2.7748  -19.0238 O   0  0  0  0  0  0  0  0  0  0  0  0
    8.0347    1.8155  -23.9164 F   0  0  0  0  0  0  0  0  0  0  0  0
    5.8496    2.0824  -24.0942 F   0  0  0  0  0  0  0  0  0  0  0  0
    6.6168   -2.3794  -21.9219 H   0  0  0  0  0  0  0  0  0  0  0  0
    7.4118   -0.5594  -23.4128 H   0  0  0  0  0  0  0  0  0  0  0  0
    5.0241    0.5454  -19.2088 H   0  0  0  0  0  0  0  0  0  0  0  0
    6.6354   -3.5499  -19.9877 H   0  0  0  0  0  0  0  0  0  0  0  0
    3.3544   -0.8960  -19.1339 H   0  0  0  0  0  0  0  0  0  0  0  0
    3.5047   -4.7334  -17.4490 H   0  0  0  0  0  0  0  0  0  0  0  0
    4.9371    3.8938  -22.2359 H   0  0  0  0  0  0  0  0  0  0  0  0
    6.0503    4.7984  -21.1547 H   0  0  0  0  0  0  0  0  0  0  0  0
    9.2127    3.4955  -22.6059 H   0  0  0  0  0  0  0  0  0  0  0  0
    8.4979    4.7314  -21.5160 H   0  0  0  0  0  0  0  0  0  0  0  0
    8.4564    2.9957  -21.0553 H   0  0  0  0  0  0  0  0  0  0  0  0
    7.7883    4.4434  -24.4513 H   0  0  0  0  0  0  0  0  0  0  0  0
    6.0041    4.5316  -24.2628 H   0  0  0  0  0  0  0  0  0  0  0  0
    7.0638    5.6158  -23.2993 H   0  0  0  0  0  0  0  0  0  0  0  0
    4.8397    3.8026  -16.3564 H   0  0  0  0  0  0  0  0  0  0  0  0
    6.0150    2.4567  -16.5396 H   0  0  0  0  0  0  0  0  0  0  0  0
    6.5728    4.1595  -16.6652 H   0  0  0  0  0  0  0  0  0  0  0  0
    3.4654    2.6298  -20.6452 H   0  0  0  0  0  0  0  0  0  0  0  0
    2.1530    3.5751  -18.7094 H   0  0  0  0  0  0  0  0  0  0  0  0
    3.0477    4.0447  -17.3026 H   0  0  0  0  0  0  0  0  0  0  0  0
  1  2  2  0  0  0  0
  1  7  1  0  0  0  0
  2  9  1  0  0  0  0
  3  7  2  0  0  0  0
  3 10  1  0  0  0  0
  4  8  1  0  0  0  0
  4 20  2  0  0  0  0
  5  8  2  0  0  0  0
  5 21  1  0  0  0  0
  6 20  1  0  0  0  0
  6 21  2  0  0  0  0
  7  8  1  0  0  0  0
  9 10  2  0  0  0  0
  9 15  1  0  0  0  0
 10 14  1  0  0  0  0
 11 14  1  0  0  0  0
 11 22  1  0  0  0  0
 11 25  2  0  0  0  0
 12 22  1  0  0  0  0
 12 23  2  0  0  0  0
 12 24  1  0  0  0  0
 13 14  1  0  0  0  0
 13 16  1  0  0  0  0
 14 23  1  0  0  0  0
 15 16  1  0  0  0  0
 15 26  1  0  0  0  0
 15 27  1  0  0  0  0
 16 17  1  0  0  0  0
 16 18  1  0  0  0  0
 19 22  1  0  0  0  0
  1 28  1  0  0  0  0
  2 29  1  0  0  0  0
  3 30  1  0  0  0  0
  4 31  1  0  0  0  0
  5 32  1  0  0  0  0
  6 33  1  0  0  0  0
 13 34  1  0  0  0  0
 13 35  1  0  0  0  0
 17 36  1  0  0  0  0
 17 37  1  0  0  0  0
 17 38  1  0  0  0  0
 18 39  1  0  0  0  0
 18 40  1  0  0  0  0
 18 41  1  0  0  0  0
 19 42  1  0  0  0  0
 19 43  1  0  0  0  0
 19 44  1  0  0  0  0
 23 45  1  0  0  0  0
 24 46  1  0  0  0  0
 24 47  1  0  0  0  0
M  CHG  1  23   1
M  END
> <OMEGA_C>
6knNQMagrL+zXK3BzM/bQNSnob4/F7TB/CuwQDSvnD4fKqHBdn22QLA/VcCF6JvBTb92QEAj7L/c
FpjBB6h8QAzVfsBar5DB5ku2QKx2hL9m/KPBfsyiQD4RBcDASp3Bqt7TQEgehT+vfrHBEru9QBVC
rD/L66fB+BbOQIAVREAmH5rBLqGGQG94VkBu/5bBTpO7QCAxdUChJa3BDOO0QLIgMUBrTqTBAMDc
QIN1B0Aj0LnBlhLhQMTzYkBM5LTBh2MGQSQHbUCFKa/BjPfeQMmTk0AP6L3BlN+3QIriXUCYDYfB
IgukQFhfiMBhlZXBWWdTQIMvM8AU6ZHBgsyvQN1YXEAboZLBEGCIQKREOEC1wKDB/rhBQLAJbECN
5JHB5HDzQD+WMUC4MJjBTY4AQThj6D++VL/Byi+7QKdFBUDtwMDBE73TQGVIGMD7X6/BXy3tQNEx
D79aTbvBLMWgQKacCz+xq5nBXlXUQO4wY8Db5p/B865WQBReZb9AEpnBxk1gQKx3l8Cjl4vBpPyd
QJwzeUAr47HBdZzBQLCMmUDtPKnBSmcTQcO1X0D42LTBmvcHQWtnl0C4IKzBik0HQfy4P0AtcajB
Zjn5QF8wjkBGnMPB7iHAQAMDkUA4GsLB0griQMi0s0ANZbrBu96aQCtdc0Dh2YLBw3rAQMQ5HUAw
UYTBNVTSQM4ahUBMUoXBRsldQHpOKEBNKaXBs8oJQGXOZEDBrJXBEw1DQApugUCoa4rB

> <OMEGA_E>
gKrMPg==

> <OMEGA_NBR>
    158301

$$$$
28721
  -OEChem-04172616093D

 80 82  0     1  0  0  0  0  0999 V2000
    7.8661    8.6702  -18.6434 C   0  0  0  0  0  0  0  0  0  0  0  0
    7.0044    8.0565  -17.7137 C   0  0  0  0  0  0  0  0  0  0  0  0
    7.3778    9.0607  -19.9065 C   0  0  0  0  0  0  0  0  0  0  0  0
    6.5065   -0.1040  -16.8049 C   0  0  0  0  0  0  0  0  0  0  0  0
    8.0499    1.4419  -15.7148 C   0  0  0  0  0  0  0  0  0  0  0  0
    7.7434   -0.8097  -14.8255 C   0  0  0  0  0  0  0  0  0  0  0  0
    6.7227    1.3223  -21.4282 C   0  0  0  0  0  0  0  0  0  0  0  0
    5.0305   -0.3554  -20.8916 C   0  0  0  0  0  0  0  0  0  0  0  0
    5.1597    8.2382  -19.3062 C   0  0  0  0  0  0  0  0  0  0  0  0
    7.2275   -1.0447  -21.7019 C   0  0  0  0  0  0  0  0  0  0  0  0
    7.1159    1.1697  -16.7393 C   0  0  0  0  0  0  0  0  0  0  0  0
    6.8324   -1.0987  -15.8608 C   0  0  0  0  0  0  0  0  0  0  0  0
    5.6511    7.8407  -18.0429 C   0  0  0  0  0  0  0  0  0  0  0  0
    8.3431    0.4625  -14.7439 C   0  0  0  0  0  0  0  0  0  0  0  0
    5.4272    0.9951  -20.9693 C   0  0  0  0  0  0  0  0  0  0  0  0
    7.6235    0.3042  -21.7829 C   0  0  0  0  0  0  0  0  0  0  0  0
    5.9279   -1.3727  -21.2681 C   0  0  0  0  0  0  0  0  0  0  0  0
    6.0250    8.8416  -20.2392 C   0  0  0  0  0  0  0  0  0  0  0  0
    6.7681    2.2013  -17.7334 C   0  0  0  0  0  0  0  0  0  0  0  0
    6.1761   -2.4171  -15.9203 C   0  0  0  0  0  0  0  0  0  0  0  0
    9.3478    0.7541  -13.6517 C   0  0  0  0  0  0  0  0  0  0  0  0
    3.6042   -3.2066  -18.7693 C   0  0  0  0  0  0  0  0  0  0  0  0
    9.0685   -4.0391  -16.6021 C   0  0  0  0  0  0  0  0  0  0  0  0
    4.4681    2.0924  -20.5602 C   0  0  0  0  0  0  0  0  0  0  0  0
    4.7272    7.2075  -17.0275 C   0  0  0  0  0  0  0  0  0  0  0  0
    3.7944   -3.8952  -17.4106 C   0  0  0  0  0  0  0  0  0  0  0  0
    8.3370   -4.1486  -17.9511 C   0  0  0  0  0  0  0  0  0  0  0  0
    5.2561   -4.3515  -17.2152 C   0  0  0  0  0  0  0  0  0  0  0  0
    7.2488   -3.0633  -18.1127 C   0  0  0  0  0  0  0  0  0  0  0  0
    4.8804    4.9792  -18.0309 C   0  0  0  0  0  0  0  0  0  0  0  0
    5.1144    2.9860  -19.4826 C   0  0  1  0  0  0  0  0  0  0  0  0
    4.1353    4.0524  -18.9847 C   0  0  2  0  0  0  0  0  0  0  0  0
    5.5321    2.1264  -18.3648 N   0  0  0  0  0  0  0  0  0  0  0  0
    6.1794   -3.1990  -17.0924 N   0  0  0  0  0  0  0  0  0  0  0  0
    3.9987    6.0836  -17.6326 N   0  3  0  0  0  0  0  0  0  0  0  0
    7.5563    3.1057  -17.9912 O   0  0  0  0  0  0  0  0  0  0  0  0
    5.5723   -2.8000  -14.9236 O   0  0  0  0  0  0  0  0  0  0  0  0
    3.6490    4.8230  -20.0846 O   0  0  0  0  0  0  0  0  0  0  0  0
    8.8610    0.6252  -22.2217 F   0  0  0  0  0  0  0  0  0  0  0  0
    5.5366   -2.6649  -21.2358 F   0  0  0  0  0  0  0  0  0  0  0  0
    5.2664    9.4503  -22.1881 I   0  0  0  0  0  0  0  0  0  0  0  0
    8.9014    8.8416  -18.3884 H   0  0  0  0  0  0  0  0  0  0  0  0
    7.3806    7.7512  -16.7485 H   0  0  0  0  0  0  0  0  0  0  0  0
    8.0402    9.5281  -20.6201 H   0  0  0  0  0  0  0  0  0  0  0  0
    5.7875   -0.3162  -17.5824 H   0  0  0  0  0  0  0  0  0  0  0  0
    8.5407    2.4032  -15.6751 H   0  0  0  0  0  0  0  0  0  0  0  0
    7.9826   -1.5658  -14.0924 H   0  0  0  0  0  0  0  0  0  0  0  0
    7.0211    2.3573  -21.5065 H   0  0  0  0  0  0  0  0  0  0  0  0
    4.0400   -0.6091  -20.5439 H   0  0  0  0  0  0  0  0  0  0  0  0
    4.1212    8.0795  -19.5563 H   0  0  0  0  0  0  0  0  0  0  0  0
    7.9202   -1.8280  -21.9723 H   0  0  0  0  0  0  0  0  0  0  0  0
    8.8279    1.1698  -12.7760 H   0  0  0  0  0  0  0  0  0  0  0  0
    9.8595   -0.1769  -13.3663 H   0  0  0  0  0  0  0  0  0  0  0  0
   10.0872    1.4813  -14.0184 H   0  0  0  0  0  0  0  0  0  0  0  0
    2.5554   -2.8937  -18.8788 H   0  0  0  0  0  0  0  0  0  0  0  0
    4.2581   -2.3239  -18.8276 H   0  0  0  0  0  0  0  0  0  0  0  0
    3.8633   -3.9087  -19.5755 H   0  0  0  0  0  0  0  0  0  0  0  0
    9.8308   -4.8290  -16.5326 H   0  0  0  0  0  0  0  0  0  0  0  0
    9.5530   -3.0544  -16.5268 H   0  0  0  0  0  0  0  0  0  0  0  0
    8.3445   -4.1552  -15.7821 H   0  0  0  0  0  0  0  0  0  0  0  0
    4.2194    2.7048  -21.4395 H   0  0  0  0  0  0  0  0  0  0  0  0
    3.5499    1.6412  -20.1561 H   0  0  0  0  0  0  0  0  0  0  0  0
    5.3199    6.8399  -16.1769 H   0  0  0  0  0  0  0  0  0  0  0  0
    4.0061    7.9593  -16.6742 H   0  0  0  0  0  0  0  0  0  0  0  0
    3.5291   -3.1888  -16.6103 H   0  0  0  0  0  0  0  0  0  0  0  0
    3.1343   -4.7735  -17.3582 H   0  0  0  0  0  0  0  0  0  0  0  0
    9.0712   -4.0381  -18.7627 H   0  0  0  0  0  0  0  0  0  0  0  0
    7.8628   -5.1389  -18.0180 H   0  0  0  0  0  0  0  0  0  0  0  0
    5.3204   -4.9587  -16.3002 H   0  0  0  0  0  0  0  0  0  0  0  0
    5.5583   -4.9595  -18.0807 H   0  0  0  0  0  0  0  0  0  0  0  0
    7.7158   -2.0727  -18.0095 H   0  0  0  0  0  0  0  0  0  0  0  0
    6.8003   -3.1549  -19.1129 H   0  0  0  0  0  0  0  0  0  0  0  0
    5.1883    4.4155  -17.1379 H   0  0  0  0  0  0  0  0  0  0  0  0
    5.7709    5.3841  -18.5341 H   0  0  0  0  0  0  0  0  0  0  0  0
    5.9939    3.4842  -19.9166 H   0  0  0  0  0  0  0  0  0  0  0  0
    3.3059    3.5659  -18.4504 H   0  0  0  0  0  0  0  0  0  0  0  0
    4.8822    1.4410  -18.0364 H   0  0  0  0  0  0  0  0  0  0  0  0
    3.3354    5.7388  -16.9685 H   0  0  0  0  0  0  0  0  0  0  0  0
    3.5168    6.4155  -18.4435 H   0  0  0  0  0  0  0  0  0  0  0  0
    3.1820    4.2561  -20.6872 H   0  0  0  0  0  0  0  0  0  0  0  0
  1  2  2  0  0  0  0
  1  3  1  0  0  0  0
  2 13  1  0  0  0  0
  3 18  2  0  0  0  0
  4 11  1  0  0  0  0
  4 12  2  0  0  0  0
  5 11  2  0  0  0  0
  5 14  1  0  0  0  0
  6 12  1  0  0  0  0
  6 14  2  0  0  0  0
  7 15  1  0  0  0  0
  7 16  2  0  0  0  0
  8 15  2  0  0  0  0
  8 17  1  0  0  0  0
  9 13  2  0  0  0  0
  9 18  1  0  0  0  0
 10 16  1  0  0  0  0
 10 17  2  0  0  0  0
 11 19  1  0  0  0  0
 12 20  1  0  0  0  0
 13 25  1  0  0  0  0
 14 21  1  0  0  0  0
 15 24  1  0  0  0  0
 16 39  1  0  0  0  0
 17 40  1  0  0  0  0
 18 41  1  0  0  0  0
 19 33  1  0  0  0  0
 19 36  2  0  0  0  0
 20 34  1  0  0  0  0
 20 37  2  0  0  0  0
 22 26  1  0  0  0  0
 23 27  1  0  0  0  0
 24 31  1  0  0  0  0
 25 35  1  0  0  0  0
 26 28  1  0  0  0  0
 27 29  1  0  0  0  0
 28 34  1  0  0  0  0
 29 34  1  0  0  0  0
 30 32  1  0  0  0  0
 30 35  1  0  0  0  0
 31 32  1  0  0  0  0
 31 33  1  0  0  0  0
 32 38  1  0  0  0  0
  1 42  1  0  0  0  0
  2 43  1  0  0  0  0
  3 44  1  0  0  0  0
  4 45  1  0  0  0  0
  5 46  1  0  0  0  0
  6 47  1  0  0  0  0
  7 48  1  0  0  0  0
  8 49  1  0  0  0  0
  9 50  1  0  0  0  0
 10 51  1  0  0  0  0
 21 52  1  0  0  0  0
 21 53  1  0  0  0  0
 21 54  1  0  0  0  0
 22 55  1  0  0  0  0
 22 56  1  0  0  0  0
 22 57  1  0  0  0  0
 23 58  1  0  0  0  0
 23 59  1  0  0  0  0
 23 60  1  0  0  0  0
 24 61  1  0  0  0  0
 24 62  1  0  0  0  0
 25 63  1  0  0  0  0
 25 64  1  0  0  0  0
 26 65  1  0  0  0  0
 26 66  1  0  0  0  0
 27 67  1  0  0  0  0
 27 68  1  0  0  0  0
 28 69  1  0  0  0  0
 28 70  1  0  0  0  0
 29 71  1  0  0  0  0
 29 72  1  0  0  0  0
 30 73  1  0  0  0  0
 30 74  1  0  0  0  0
 31 75  1  0  0  0  0
 32 76  1  0  0  0  0
 33 77  1  0  0  0  0
 35 78  1  0  0  0  0
 35 79  1  0  0  0  0
 38 80  1  0  0  0  0
M  CHG  1  35   1
M  END
> <OMEGA_C>
urb7QAK5CkG/JZXB3yPgQE3nAEGztY3BQhfsQKn4EEGFQJ/BPDXQQCoP1b1+cIbBZswAQW+RuD+f
b3vBtsn3QItLT79lNW3BACDXQOdAqT/wbKvBnvmgQO7xtb4CIqfBqhylQL7PA0EAc5rB3UfnQP25
hb+Gna3Bt7XjQIe3lT8C6oXB0qLaQHyijL/SxX3BJ9a0QFvn+kDvV5DBb30FQdLM7D4Q52vB/aut
QHW9fj8jwafBa/PzQPq+mz55Q67BbrG9QI21r78lJarB38zAQCN3DUHT6aHBK5TYQJ3hDEAU3o3B
AaPFQP2xGsCvuX7BjJAVQU8KQT9TbVrBBqxmQOk4TcCQJ5bBgxgRQTVAgcAk0YTBzvqOQBjqBUBj
e6TB3USXQJKj5kBAOIjBONdyQI5KecD+SIvBMmQFQTvBhMDgm4/BvDGoQOM/i8CwuInBW/bnQIIN
RMDC5pDBPSycQEpVn0BeP5DB0KijQBwbP0Bz3JvBUVSEQKKtgUCx4JfB3waxQB4XCEAn65LB2r3F
QL28TMAsvYjB6up/QDitwkCcD43Bc83xQPrCRkAB7o/BqFCyQHIzM8Apx27BkohpQEJWmkBcraDB
y8YNQf8KID8UxrHBAyyxQKGNKsAF46nBdYaoQHI0F0EzgbHBK2wOQRt3DUFZG5PBBy7sQKwJ+EDw
/IXBiKQAQRxzGEEG9qTBfDO5QJfiob7IqIzBqqYIQXrNGUBlzXrB13H/QHxryL9EemHBPq3gQIHd
FkA+DazBSkeBQBjtG7/qWaTBq+CDQLVFAUFTc5zBgXL9QHr66b9ax6/B/z4NQWu9lT+HakzBYMAd
QeAqNb5T3FXBIGUhQeKZvT9eS2DBsosjQJ4xOcDAB5fBYEKIQH+7FMDtnpbBlEB3QB4oesCjmpzB
JUsdQUGHmsDcQoTBH9kYQbZ7Q8DTNoTBRoMFQZ73hMB9g3zBWQWHQNoaLUAxhKvBSDJjQCsS0j+p
P6HB2TyqQG3g2kA7aoHB4zGAQMyy/kDWZIXBZ9xhQAYVTMDM4YTBOphIQNPAmMCC3YrB0CMRQfY3
gcDwGZbB8Jv7QLlxpMDaJJDB5ECqQLCtnsDFZoLBPd2xQGe0nsAwpZDB0+f2QImnBMBvE5DBZJzZ
QIXpScBA55jBtwamQAFMjUBxGonB4qq4QENKrEDFRZTBrs2/QAn9XkAtVZ/BSJRTQGc4ZEB3mpPB
LjucQEFxuD+mSpDBR3dVQOajt0B2v4fBpBJhQLxLzUBijJPB/6VLQOAxiEBSf6XBeJXBQGC8DUEb
AqLBa3GlQIxEBEEjmJrBoczsQF8AEUFVQJ/B9K3QQNJT2r0nd4bBCpABQd3ztT+51nvBe074QHJw
Ub8HT23BFGHXQAOkqz8oSqvBDAaiQHAxub4LAafB+93fQNILAUHltY3B2h7oQHkFgr/v2K3Bz8Tk
QGZYlD9gBIbB5sraQDnUjL/8wH3BIKi0QL7B+0D0b5DBMyMGQcpK4z6EQWzBH0OuQBxVfj/CgKfB
FFf0QCUcrT7vXK7BWd++QGGdrr+qP6rB1tj7QPavCkGXGJXBUoTZQJWTDED/5I3BcvzEQFgOGsBo
dH7BPIcWQTHvOT8tClvBZDxmQMzJTcBVMJbBu8gQQTMtgsAzzYTB4jKPQJrPBEAGJKTBQMqWQGKR
50B6ZYjBPGFwQNwleMBbLYvBLYwEQU1jhsAZbY/BpaOmQE4ui8BGWYnBd8XmQNZNRsDevJDBRcyc
QLiNoECAfpDB5e+jQERBP0DAqZvBX7CEQEnzgUDK0JfBKlqxQPFsCUDooZLBM77EQKFUTcCxgIjB
SxeAQDJ4w0AqUI3BMgDzQNCpRUCRGZDBKUWxQNHLMMBId27BlgZpQNhbmUAowaDB6s8NQZ/OLT+O
+bHBFM+yQO1PKsDFE6rBurgeQc3rD0HOzJDBJw22QAh9EkFzzKnBwTuEQEfjAUE2q5zBizIBQUxW
GEGW6aTBgHm5QAhGoL7NpozBjrAJQcryF0AyZHvBVaT/QIIfyb+2emHBpY/gQOVRGECA0qvBbJOC
QPdtIb9oI6TBiorrQKUt+EAd94XBAGD+QJDK5L8cNrDBeoUOQZdJlD92+UzBb4IeQXtsWL56dVbB
uXsiQX/ytz/qKWHBBIYjQKD7OMBGQZfBNHiIQPf6FcBfuJbB3P92QJINfMBne5zBXcgcQbPSm8D+
N4TBB9YYQbLMRcCkf4TBsHsFQfbIhMB7LHzB0VqGQC1SK0DyKqvBFK1kQJYEzj+/v6DB92apQBYG
3EDcgYHB3s5+QB+J/0Ayr4XBIjtfQC2dScBs7oTBl0pFQOTXl8B0sYrBFQMQQWn0g8BJE5bBfVH5
QAXXpcDiqY/BuvunQI3ZncBc5YHBRGSwQKCDn8AJG5DByDr2QE9SB8CUA5DBpyLYQCROTMCttJjB
7MKnQC9Hj0BgVYnBApe4QN7GrUC/w5TBaA3AQN+hXkBYOJ/Bs/ZUQMN7ZUBFVpPBZiCcQG1dvz98
so/BH7lVQMgRuECWDIjBh2xhQBEHzkAu0JPBX9FKQP6EhkAwX6XB

> <OMEGA_E>
gEGiPKijOD4=

> <OMEGA_NBR>
      2826

$$$$
28720
  -OEChem-04172616093D

 80 82  0     1  0  0  0  0  0999 V2000
    7.2976    9.1196  -19.8001 C   0  0  0  0  0  0  0  0  0  0  0  0
    7.7654    8.7128  -18.5337 C   0  0  0  0  0  0  0  0  0  0  0  0
    5.9561    8.8880  -20.1661 C   0  0  0  0  0  0  0  0  0  0  0  0
    6.8937    8.0691  -17.6339 C   0  0  0  0  0  0  0  0  0  0  0  0
    5.0806    8.2542  -19.2635 C   0  0  0  0  0  0  0  0  0  0  0  0
    6.5994   -0.0920  -16.8787 C   0  0  0  0  0  0  0  0  0  0  0  0
    8.0988    1.4765  -15.7531 C   0  0  0  0  0  0  0  0  0  0  0  0
    7.7899   -0.7705  -14.8619 C   0  0  0  0  0  0  0  0  0  0  0  0
    6.8284    1.3238  -21.4281 C   0  0  0  0  0  0  0  0  0  0  0  0
    5.1325   -0.3561  -20.9078 C   0  0  0  0  0  0  0  0  0  0  0  0
    7.3490   -1.0444  -21.6635 C   0  0  0  0  0  0  0  0  0  0  0  0
    7.1878    1.1923  -16.7953 C   0  0  0  0  0  0  0  0  0  0  0  0
    6.8992   -1.0722  -15.9125 C   0  0  0  0  0  0  0  0  0  0  0  0
    5.5512    7.8398  -17.9967 C   0  0  0  0  0  0  0  0  0  0  0  0
    8.3832    0.5029  -14.7756 C   0  0  0  0  0  0  0  0  0  0  0  0
    5.5237    0.9953  -20.9981 C   0  0  0  0  0  0  0  0  0  0  0  0
    7.7412    0.3061  -21.7511 C   0  0  0  0  0  0  0  0  0  0  0  0
    6.0433   -1.3741  -21.2466 C   0  0  0  0  0  0  0  0  0  0  0  0
    6.8157    2.2362  -17.7669 C   0  0  0  0  0  0  0  0  0  0  0  0
    6.1823   -2.3596  -15.9048 C   0  0  0  0  0  0  0  0  0  0  0  0
    9.3509    0.8109  -13.6545 C   0  0  0  0  0  0  0  0  0  0  0  0
    3.6251   -3.0290  -18.5104 C   0  0  0  0  0  0  0  0  0  0  0  0
    8.9657   -4.4174  -16.7309 C   0  0  0  0  0  0  0  0  0  0  0  0
    4.5527    2.0921  -20.6193 C   0  0  0  0  0  0  0  0  0  0  0  0
    4.6181    7.1654  -17.0171 C   0  0  0  0  0  0  0  0  0  0  0  0
    4.3625   -4.3672  -18.3305 C   0  0  0  0  0  0  0  0  0  0  0  0
    8.6791   -3.2010  -17.6262 C   0  0  0  0  0  0  0  0  0  0  0  0
    5.2351   -4.3909  -17.0521 C   0  0  0  0  0  0  0  0  0  0  0  0
    7.2039   -3.1407  -18.0918 C   0  0  0  0  0  0  0  0  0  0  0  0
    4.8584    4.9624  -18.0577 C   0  0  0  0  0  0  0  0  0  0  0  0
    5.1681    2.9933  -19.5304 C   0  0  1  0  0  0  0  0  0  0  0  0
    4.1597    4.0370  -19.0464 C   0  0  2  0  0  0  0  0  0  0  0  0
    5.5879    2.1387  -18.4100 N   0  0  0  0  0  0  0  0  0  0  0  0
    6.2035   -3.2586  -16.9935 N   0  0  0  0  0  0  0  0  0  0  0  0
    3.9374    6.0356  -17.6639 N   0  3  0  0  0  0  0  0  0  0  0  0
    7.5674    3.1821  -17.9812 O   0  0  0  0  0  0  0  0  0  0  0  0
    5.5485   -2.6295  -14.8905 O   0  0  0  0  0  0  0  0  0  0  0  0
    3.6938    4.8133  -20.1514 O   0  0  0  0  0  0  0  0  0  0  0  0
    8.9903    0.6293  -22.1550 F   0  0  0  0  0  0  0  0  0  0  0  0
    5.6653   -2.6692  -21.1686 F   0  0  0  0  0  0  0  0  0  0  0  0
    7.9681    9.6094  -20.4908 H   0  0  0  0  0  0  0  0  0  0  0  0
    8.7924    8.8948  -18.2536 H   0  0  0  0  0  0  0  0  0  0  0  0
    5.6001    9.1964  -21.1379 H   0  0  0  0  0  0  0  0  0  0  0  0
    7.2538    7.7514  -16.6665 H   0  0  0  0  0  0  0  0  0  0  0  0
    4.0502    8.0847  -19.5390 H   0  0  0  0  0  0  0  0  0  0  0  0
    5.9186   -0.3211  -17.6852 H   0  0  0  0  0  0  0  0  0  0  0  0
    8.5784    2.4430  -15.7058 H   0  0  0  0  0  0  0  0  0  0  0  0
    8.0181   -1.5207  -14.1193 H   0  0  0  0  0  0  0  0  0  0  0  0
    7.1246    2.3592  -21.5087 H   0  0  0  0  0  0  0  0  0  0  0  0
    4.1354   -0.6097  -20.5792 H   0  0  0  0  0  0  0  0  0  0  0  0
    8.0490   -1.8272  -21.9159 H   0  0  0  0  0  0  0  0  0  0  0  0
    8.8000    1.2257  -12.7975 H   0  0  0  0  0  0  0  0  0  0  0  0
    9.8634   -0.1130  -13.3484 H   0  0  0  0  0  0  0  0  0  0  0  0
   10.0935    1.5441  -14.0024 H   0  0  0  0  0  0  0  0  0  0  0  0
    3.0214   -3.0630  -19.4293 H   0  0  0  0  0  0  0  0  0  0  0  0
    2.9676   -2.8538  -17.6461 H   0  0  0  0  0  0  0  0  0  0  0  0
    4.3591   -2.2130  -18.5840 H   0  0  0  0  0  0  0  0  0  0  0  0
   10.0237   -4.4108  -16.4302 H   0  0  0  0  0  0  0  0  0  0  0  0
    8.3296   -4.3709  -15.8347 H   0  0  0  0  0  0  0  0  0  0  0  0
    8.7484   -5.3412  -17.2872 H   0  0  0  0  0  0  0  0  0  0  0  0
    4.3252    2.6992  -21.5080 H   0  0  0  0  0  0  0  0  0  0  0  0
    3.6255    1.6407  -20.2365 H   0  0  0  0  0  0  0  0  0  0  0  0
    5.1973    6.7973  -16.1575 H   0  0  0  0  0  0  0  0  0  0  0  0
    3.8682    7.8915  -16.6701 H   0  0  0  0  0  0  0  0  0  0  0  0
    3.6186   -5.1749  -18.2659 H   0  0  0  0  0  0  0  0  0  0  0  0
    5.0102   -4.5342  -19.2038 H   0  0  0  0  0  0  0  0  0  0  0  0
    8.9080   -2.2855  -17.0610 H   0  0  0  0  0  0  0  0  0  0  0  0
    9.3269   -3.2558  -18.5134 H   0  0  0  0  0  0  0  0  0  0  0  0
    4.5744   -4.3343  -16.1744 H   0  0  0  0  0  0  0  0  0  0  0  0
    5.7972   -5.3360  -17.0275 H   0  0  0  0  0  0  0  0  0  0  0  0
    7.0434   -2.1789  -18.6009 H   0  0  0  0  0  0  0  0  0  0  0  0
    7.0338   -3.9639  -18.8013 H   0  0  0  0  0  0  0  0  0  0  0  0
    5.1581    4.3901  -17.1674 H   0  0  0  0  0  0  0  0  0  0  0  0
    5.7507    5.3989  -18.5304 H   0  0  0  0  0  0  0  0  0  0  0  0
    6.0430    3.5104  -19.9513 H   0  0  0  0  0  0  0  0  0  0  0  0
    3.3225    3.5300  -18.5445 H   0  0  0  0  0  0  0  0  0  0  0  0
    4.9472    1.4409  -18.0896 H   0  0  0  0  0  0  0  0  0  0  0  0
    3.2650    5.6606  -17.0257 H   0  0  0  0  0  0  0  0  0  0  0  0
    3.4699    6.3708  -18.4818 H   0  0  0  0  0  0  0  0  0  0  0  0
    3.2559    4.2461  -20.7751 H   0  0  0  0  0  0  0  0  0  0  0  0
  1  2  1  0  0  0  0
  1  3  2  0  0  0  0
  2  4  2  0  0  0  0
  3  5  1  0  0  0  0
  4 14  1  0  0  0  0
  5 14  2  0  0  0  0
  6 12  1  0  0  0  0
  6 13  2  0  0  0  0
  7 12  2  0  0  0  0
  7 15  1  0  0  0  0
  8 13  1  0  0  0  0
  8 15  2  0  0  0  0
  9 16  1  0  0  0  0
  9 17  2  0  0  0  0
 10 16  2  0  0  0  0
 10 18  1  0  0  0  0
 11 17  1  0  0  0  0
 11 18  2  0  0  0  0
 12 19  1  0  0  0  0
 13 20  1  0  0  0  0
 14 25  1  0  0  0  0
 15 21  1  0  0  0  0
 16 24  1  0  0  0  0
 17 39  1  0  0  0  0
 18 40  1  0  0  0  0
 19 33  1  0  0  0  0
 19 36  2  0  0  0  0
 20 34  1  0  0  0  0
 20 37  2  0  0  0  0
 22 26  1  0  0  0  0
 23 27  1  0  0  0  0
 24 31  1  0  0  0  0
 25 35  1  0  0  0  0
 26 28  1  0  0  0  0
 27 29  1  0  0  0  0
 28 34  1  0  0  0  0
 29 34  1  0  0  0  0
 30 32  1  0  0  0  0
 30 35  1  0  0  0  0
 31 32  1  0  0  0  0
 31 33  1  0  0  0  0
 32 38  1  0  0  0  0
  1 41  1  0  0  0  0
  2 42  1  0  0  0  0
  3 43  1  0  0  0  0
  4 44  1  0  0  0  0
  5 45  1  0  0  0  0
  6 46  1  0  0  0  0
  7 47  1  0  0  0  0
  8 48  1  0  0  0  0
  9 49  1  0  0  0  0
 10 50  1  0  0  0  0
 11 51  1  0  0  0  0
 21 52  1  0  0  0  0
 21 53  1  0  0  0  0
 21 54  1  0  0  0  0
 22 55  1  0  0  0  0
 22 56  1  0  0  0  0
 22 57  1  0  0  0  0
 23 58  1  0  0  0  0
 23 59  1  0  0  0  0
 23 60  1  0  0  0  0
 24 61  1  0  0  0  0
 24 62  1  0  0  0  0
 25 63  1  0  0  0  0
 25 64  1  0  0  0  0
 26 65  1  0  0  0  0
 26 66  1  0  0  0  0
 27 67  1  0  0  0  0
 27 68  1  0  0  0  0
 28 69  1  0  0  0  0
 28 70  1  0  0  0  0
 29 71  1  0  0  0  0
 29 72  1  0  0  0  0
 30 73  1  0  0  0  0
 30 74  1  0  0  0  0
 31 75  1  0  0  0  0
 32 76  1  0  0  0  0
 33 77  1  0  0  0  0
 35 78  1  0  0  0  0
 35 79  1  0  0  0  0
 38 80  1  0  0  0  0
M  CHG  1  35   1
M  END
> <OMEGA_C>
K4bpQNzpEUGmZp7B4H34QIBnC0EURZTBdZi+QA41DkEYVKHBJZncQP0aAUEtEo3BaJSiQAkRBEGi
G5rBCi7TQJ5gvL2ZB4fB0JQBQXf9vD+NDHzBvkb5QAM9Rb9iym3B6IHaQNFxqT+5bKvBJT2kQNlR
tr4qQ6fBMivrQOKthb/sTq3B1wLmQIycmD/GXIbB68XcQMY+ib/ImX7BBqOxQMDf+kAr+Y/BqyEG
QZe9AD/OaGzBesKwQA7Lfj8T/KfBMLj3QDO8nD4/Aq7BdWLBQOrjr78P+anBVxraQH4dD0CTIo7B
jdXFQPkDF8A1en7BeZ0VQfyZTz+/eFrBwwFoQD/bQcBBFZTBVnMPQS1bjcDl2IXBf6+RQGzlBUBY
9KTBfMeTQPJK5UAXI4jBkJmLQPC/i8DcpJLBdN0KQaXcTMBfAo3Bj4WnQOeBjMCaaojBtobmQCgB
ScAMvJDBanibQDbMnkBCdpDBHGGlQI2SP0BPPpzBjhyFQGUvgUASX5jB5c+yQDTgCEC8R5PBIIPG
QPCMUMCm8ofB1/57QJEjwUCtT43BDyjyQHOnS0B22Y/BeY2xQFtJKMBSP27BX2dsQDMGmkAFNqHB
I9gPQVQbIT92PbHBX0q1QI/TKsBjWanBivr+QATAGUEb7aPBqa0MQQFRDkFaB5LB+zOzQEokE0F+
GqnBPR/oQJIL+EADVYXBK5uBQBZbAUHwT5zBa2W9QP5spL5be43BQ0EJQRpaHEAKS3vBKkoAQeOk
wr+B6GHBBv3jQG79FkDSEazBblWEQHYWHL8koqTBg8gAQU/h6b/IU6/B8cwMQQ7jnD9gwkzBhdAd
Qcpx573/klXBKn8hQRClxT+zCWDBL19BQNIIRMA2b5vBZOw9QFekNsBIK43B8H2LQIGiDcAarJTB
MmEgQVQljcD8cIPB7EUFQSLei8DUWn3BnvkLQefqqsAbTIrBu2eKQMO/LEBMEKzBVQhoQC0C0j9G
5KHBeVCmQImD2UCDQoHB15B3QGWH/EBwXIXBIpdnQPGYpcCIIJLBTlOgQAYYkcBaoZnBXIcOQURF
EsDZfIjBDjsVQc5eUMCKG5TBp2GSQDiyisASZYHB64K5QMTAqsBMOIjB7WPhQJByC8CSzpTBwRTh
QNCwfcAMaZbB3w6lQOB7jEDaVonBbAW4QPDDrEBSPpTBZGDBQP2qYEA4nJ/BHKNUQLbrYUA2W5TB
TU+eQNtwuD+Ht5DBifZQQM0jtUCkNIjBgBJeQJrdy0DT2pPBomBQQPTfh0BxM6bBgnHrQJnZEEFg
X5/BrSrAQHMhDUE39aHBU2v7QDDcCkEBQpXB+s+kQFd+A0GzaZrBiS3gQCATAUEJu43B45bQQECi
x71NrIbBTwQBQdZWuT9m7HvBSvn3QMDcTL8gmm3B1Q/XQOrrpj+vn6vBCg2hQHCbvL4kG6fB9Wrn
QDtqiL95f63B3RzkQEKNlj8PJobBg8TaQB9Mi7+yJH7Be+G0QNq9+kAHS5DBuLYFQcjc7z7yZWzB
vaWtQO5Vez9C5qfBd/vzQCywkD7kUK7Bj9W9QNrhsb+bAKrBWezYQKlWDUDcFY7BuSLFQLBeGcC4
2H7Bdf0VQbdBQT/WGFvBwGllQHu7TMDGFpbBSRsRQUA0gcDaXITB1g6PQPZwBUBaq6TBwdeXQCn3
5UB/IIjBwwpxQFz+d8DRKYvBWQ0FQUG+hsBDAI/B6CinQGrxisBKi4nBJAjoQCsMR8DXtJDB62ed
QAlcn0BzipDBoBCkQN7hPkCpHpzBXRKFQKC2gUAqE5jBW4GxQOQDCEBNLpPB7CvFQB2+TMC0rojB
u9SAQFnQwUDz+YzBv+vxQCrCR0DaFJDBuRSxQNjGL8BG727BEStqQB9cmkAU06DBK8oNQVSBGT/V
2bHBBV+xQMykK8C4n6nB8TEAQV5MGEHsJaXBHQC0QGOrEUFIuKnB0UYOQZLGDUHsR5PB05ODQPrH
AEEbW5zB1XXsQKHS+ECi/4XB6cO5QJTMn77x7YzB8eAIQawrGkAzTHvBynj/QN3uxr+Rz2HBeYPg
QAynFUA8Z6zBSWOBQO5wHr9KSKTB4aj9QEb/7L/fjK/ButsNQWGClj8eBE3BVB4eQQNoN77FlVbB
ftchQer2vD+GGmHBbXoiQMwvOMBnAZfBreGHQK2nFMBqnpbB7K51QK9XesD1eZzB1AMdQc3kmsCY
gIPBpj8ZQTn/Q8D8SoTB96wFQZG/gsB4XXvBowyHQDpKLEDTuqvBdlxjQFnp0T8wYaHBXy6rQNNM
2kCDYIHBOpGAQJet/UDgOIXBB2FgQJAcSsCE0oTBmkxGQEnml8AOrorB5KUQQcJehcCynJXBaSb6
QLUepsBxAI/BFQCpQGr9ncBzKILBYaCwQCLhnsBLZpDBsX33QJQICMAxB5DB/DnaQKYsTsCQwJjB
SqmoQH8ajUAWkInBFQW5QHE0rUCNwpTBMS/AQNBoXkBrp5/BcG1VQGWSZEAXs5PBT9ecQJiNtz8L
lpDBZvtYQK7jtUBIkYfB2NZgQP+PzEDxS5PBCalLQAw7iEAflqXBxDnvQOUgE0GUnZ3BOQbEQEaZ
EEGdi6DBfj7+QMGXCkFX35PBX/KnQLNoBUE+x5nBz1fiQEwO/kCtKo3B7pfUQAdCXr6L2IXBMB8E
Qe5roj+5lXrBkOz6QM+FdL+28GvByh3UQIehvD/jRavBt4udQP1+M767nKbBNYbiQFj2Zr/6uq3B
lwTqQNIhgz/Wa4XBzITdQCqwm7/MjHzBhle3QBcC+ECBNJDBpA8IQRNwlD7t6GrBRvSqQPojlj83
SKfBOPPvQLDt4D4bX67B1Ta5QM3Emr/i9KnBg4ffQMraA0D7QY3B8bfGQKdcIMD+t33B+ZIYQT/C
DD+Wv1nB6kdjQDNSS8A/h5XBtuIQQR/dg8DYb4XBlziPQAefEkCsvqLBuQeaQNuo3UDNI4nBPIVv
QAZ/eMCjuYrBczsEQdVDh8B19o/BqyamQPpHjMB0WYnBctzlQApaSMDK45DBXpCKQPO4qUAXoZfB
WL+nQMkxP0AZeJnB1xeNQC4afED8fJLBpHO4QM+i+z+qXpLB/t7EQAC1UMC4ZIjB8NVxQGwLyEDJ
rI/BQZ/3QCWlQEAwz47BOBizQOcAOMAdyW3BTHJFQGQqXUAy8ZDBoNILQTKrPD9i8bHB3DSsQCzT
H8ChnKnBwnICQYyeG0GI1qLBjHu4QO4+F0H0+qfBZ5kPQYXsDEGHi5HBuYuGQJb4A0Gb4JvBoOXt
QAn78EBwtYXBHjC9QOmXzL5mCIzByqwMQcU+DUDNJ3rBAZ4AQY/S2r/h+1/BlkLeQI0rIECv8qvB
ZU18QHqp074Ii6PBXOf3QFkR2b/pIbDBUMkQQRmSgD+/vUvBxRggQfDbzL60ClXBFN4kQYL9nT8n
+F/B06ggQL9QNcBxQJbBbVaHQDcGFMCmBJbB+8JxQP1CeMBADpzBoPwcQWZkncBlH4XBHtkYQfkG
ScCaCIXBst0FQYI+h8BGQX3BHTSIQAGPQUCDEKnB9SZiQFBa7z/wsZ/BnAqtQEZnxUBV44TBMF+K
QKvO8kB5S4PBuJxgQG8+S8AlP4TB2LJDQJu9l8C/SIrBfGoPQZMPhMDUtZbBId74QJnKpsDdTZDB
BwOoQOQBoMByE4LBoduuQGbJn8AKWJDBkD31QGRICcC6LZDBbkDWQAumTcDYv5jBwraqQGwktEDr
FprBBQZrQNlsqECrrJ7BS3PCQJeoY0CQ8pzBJC+dQHFLgUAhtIrB5bamQMMIkz80G5HBaflKQP7m
t0CXw4rB2k5QQIpp3kDBkZPB+HxHQMEtJkCRtY3B

> <OMEGA_E>
cG40PhCj5D1Yo+g+

> <OMEGA_NBR>
      6863

$$$$
50139668
  -OEChem-04172616093D

 77 79  0     1  0  0  0  0  0999 V2000
    7.1740   -1.1201  -21.6844 C   0  0  0  0  0  0  0  0  0  0  0  0
    7.6038    0.2181  -21.7796 C   0  0  0  0  0  0  0  0  0  0  0  0
    5.8683   -1.4133  -21.2430 C   0  0  0  0  0  0  0  0  0  0  0  0
    8.4428    0.4617  -14.7538 C   0  0  0  0  0  0  0  0  0  0  0  0
    7.8284    8.6643  -18.6254 C   0  0  0  0  0  0  0  0  0  0  0  0
    8.1537    1.4471  -15.7206 C   0  0  0  0  0  0  0  0  0  0  0  0
    7.7981   -0.7912  -14.8059 C   0  0  0  0  0  0  0  0  0  0  0  0
    6.7287    1.2627  -21.4326 C   0  0  0  0  0  0  0  0  0  0  0  0
    4.9951   -0.3698  -20.8827 C   0  0  0  0  0  0  0  0  0  0  0  0
    6.9640    8.0486  -17.6998 C   0  0  0  0  0  0  0  0  0  0  0  0
    7.3407    9.0697  -19.8838 C   0  0  0  0  0  0  0  0  0  0  0  0
    6.5771   -0.0786  -16.7930 C   0  0  0  0  0  0  0  0  0  0  0  0
    5.1174    8.2575  -19.2871 C   0  0  0  0  0  0  0  0  0  0  0  0
    7.2018    1.1877  -16.7366 C   0  0  0  0  0  0  0  0  0  0  0  0
    6.8793   -1.0721  -15.8418 C   0  0  0  0  0  0  0  0  0  0  0  0
    5.4262    0.9697  -20.9690 C   0  0  0  0  0  0  0  0  0  0  0  0
    5.6084    7.8468  -18.0279 C   0  0  0  0  0  0  0  0  0  0  0  0
    5.9864    8.8613  -20.2170 C   0  0  0  0  0  0  0  0  0  0  0  0
    6.8371    2.2209  -17.7312 C   0  0  0  0  0  0  0  0  0  0  0  0
    6.1641   -2.3654  -15.8887 C   0  0  0  0  0  0  0  0  0  0  0  0
    3.6036   -3.1891  -18.8226 C   0  0  0  0  0  0  0  0  0  0  0  0
    9.0163   -4.0901  -16.6120 C   0  0  0  0  0  0  0  0  0  0  0  0
    4.4952    2.0884  -20.5589 C   0  0  0  0  0  0  0  0  0  0  0  0
    4.6859    7.1969  -17.0219 C   0  0  0  0  0  0  0  0  0  0  0  0
    3.7255   -3.8126  -17.4238 C   0  0  0  0  0  0  0  0  0  0  0  0
    8.2340   -4.2072  -17.9319 C   0  0  0  0  0  0  0  0  0  0  0  0
    5.1659   -4.2937  -17.1502 C   0  0  0  0  0  0  0  0  0  0  0  0
    7.1843   -3.0808  -18.0911 C   0  0  0  0  0  0  0  0  0  0  0  0
    4.8949    4.9776  -18.0380 C   0  0  0  0  0  0  0  0  0  0  0  0
    5.1586    2.9812  -19.4879 C   0  0  1  0  0  0  0  0  0  0  0  0
    4.1663    4.0372  -18.9882 C   0  0  2  0  0  0  0  0  0  0  0  0
    5.6008    2.1264  -18.3697 N   0  0  0  0  0  0  0  0  0  0  0  0
    6.1267   -3.1651  -17.0526 N   0  0  0  0  0  0  0  0  0  0  0  0
    3.9864    6.0595  -17.6353 N   0  3  0  0  0  0  0  0  0  0  0  0
    7.6084    3.1412  -17.9829 O   0  0  0  0  0  0  0  0  0  0  0  0
    5.5258   -2.6970  -14.8955 O   0  0  0  0  0  0  0  0  0  0  0  0
    3.6613    4.7991  -20.0877 O   0  0  0  0  0  0  0  0  0  0  0  0
    5.2384    9.4687  -22.1704 I   0  0  0  0  0  0  0  0  0  0  0  0
    7.8462   -1.9225  -21.9500 H   0  0  0  0  0  0  0  0  0  0  0  0
    8.6045    0.4415  -22.1188 H   0  0  0  0  0  0  0  0  0  0  0  0
    5.5373   -2.4395  -21.1811 H   0  0  0  0  0  0  0  0  0  0  0  0
    9.1593    0.6672  -13.9723 H   0  0  0  0  0  0  0  0  0  0  0  0
    8.8655    8.8258  -18.3708 H   0  0  0  0  0  0  0  0  0  0  0  0
    8.6590    2.4010  -15.6861 H   0  0  0  0  0  0  0  0  0  0  0  0
    8.0068   -1.5369  -14.0531 H   0  0  0  0  0  0  0  0  0  0  0  0
    7.0522    2.2894  -21.5205 H   0  0  0  0  0  0  0  0  0  0  0  0
    3.9958   -0.5951  -20.5405 H   0  0  0  0  0  0  0  0  0  0  0  0
    7.3399    7.7310  -16.7384 H   0  0  0  0  0  0  0  0  0  0  0  0
    8.0047    9.5405  -20.5937 H   0  0  0  0  0  0  0  0  0  0  0  0
    5.8605   -0.2866  -17.5737 H   0  0  0  0  0  0  0  0  0  0  0  0
    4.0772    8.1089  -19.5366 H   0  0  0  0  0  0  0  0  0  0  0  0
    2.5680   -2.8567  -18.9875 H   0  0  0  0  0  0  0  0  0  0  0  0
    4.2821   -2.3268  -18.9000 H   0  0  0  0  0  0  0  0  0  0  0  0
    3.8736   -3.9375  -19.5823 H   0  0  0  0  0  0  0  0  0  0  0  0
    9.7474   -4.9092  -16.5445 H   0  0  0  0  0  0  0  0  0  0  0  0
    9.5433   -3.1250  -16.5827 H   0  0  0  0  0  0  0  0  0  0  0  0
    8.3173   -4.1520  -15.7649 H   0  0  0  0  0  0  0  0  0  0  0  0
    4.2542    2.7000  -21.4409 H   0  0  0  0  0  0  0  0  0  0  0  0
    3.5705    1.6571  -20.1480 H   0  0  0  0  0  0  0  0  0  0  0  0
    5.2762    6.8410  -16.1646 H   0  0  0  0  0  0  0  0  0  0  0  0
    3.9467    7.9349  -16.6770 H   0  0  0  0  0  0  0  0  0  0  0  0
    3.4496   -3.0601  -16.6704 H   0  0  0  0  0  0  0  0  0  0  0  0
    3.0411   -4.6708  -17.3527 H   0  0  0  0  0  0  0  0  0  0  0  0
    8.9437   -4.1513  -18.7705 H   0  0  0  0  0  0  0  0  0  0  0  0
    7.7177   -5.1783  -17.9527 H   0  0  0  0  0  0  0  0  0  0  0  0
    5.1786   -4.8524  -16.2028 H   0  0  0  0  0  0  0  0  0  0  0  0
    5.4798   -4.9558  -17.9706 H   0  0  0  0  0  0  0  0  0  0  0  0
    7.6900   -2.1076  -18.0066 H   0  0  0  0  0  0  0  0  0  0  0  0
    6.7172   -3.1664  -19.0833 H   0  0  0  0  0  0  0  0  0  0  0  0
    5.2204    4.4203  -17.1472 H   0  0  0  0  0  0  0  0  0  0  0  0
    5.7730    5.4044  -18.5447 H   0  0  0  0  0  0  0  0  0  0  0  0
    6.0265    3.4880  -19.9350 H   0  0  0  0  0  0  0  0  0  0  0  0
    3.3459    3.5387  -18.4511 H   0  0  0  0  0  0  0  0  0  0  0  0
    4.9655    1.4258  -18.0448 H   0  0  0  0  0  0  0  0  0  0  0  0
    3.3298    5.6952  -16.9749 H   0  0  0  0  0  0  0  0  0  0  0  0
    3.4988    6.3845  -18.4456 H   0  0  0  0  0  0  0  0  0  0  0  0
    3.2038    4.2232  -20.6890 H   0  0  0  0  0  0  0  0  0  0  0  0
  1  2  1  0  0  0  0
  1  3  2  0  0  0  0
  2  8  2  0  0  0  0
  3  9  1  0  0  0  0
  4  6  1  0  0  0  0
  4  7  2  0  0  0  0
  5 10  2  0  0  0  0
  5 11  1  0  0  0  0
  6 14  2  0  0  0  0
  7 15  1  0  0  0  0
  8 16  1  0  0  0  0
  9 16  2  0  0  0  0
 10 17  1  0  0  0  0
 11 18  2  0  0  0  0
 12 14  1  0  0  0  0
 12 15  2  0  0  0  0
 13 17  2  0  0  0  0
 13 18  1  0  0  0  0
 14 19  1  0  0  0  0
 15 20  1  0  0  0  0
 16 23  1  0  0  0  0
 17 24  1  0  0  0  0
 18 38  1  0  0  0  0
 19 32  1  0  0  0  0
 19 35  2  0  0  0  0
 20 33  1  0  0  0  0
 20 36  2  0  0  0  0
 21 25  1  0  0  0  0
 22 26  1  0  0  0  0
 23 30  1  0  0  0  0
 24 34  1  0  0  0  0
 25 27  1  0  0  0  0
 26 28  1  0  0  0  0
 27 33  1  0  0  0  0
 28 33  1  0  0  0  0
 29 31  1  0  0  0  0
 29 34  1  0  0  0  0
 30 31  1  0  0  0  0
 30 32  1  0  0  0  0
 31 37  1  0  0  0  0
  1 39  1  0  0  0  0
  2 40  1  0  0  0  0
  3 41  1  0  0  0  0
  4 42  1  0  0  0  0
  5 43  1  0  0  0  0
  6 44  1  0  0  0  0
  7 45  1  0  0  0  0
  8 46  1  0  0  0  0
  9 47  1  0  0  0  0
 10 48  1  0  0  0  0
 11 49  1  0  0  0  0
 12 50  1  0  0  0  0
 13 51  1  0  0  0  0
 21 52  1  0  0  0  0
 21 53  1  0  0  0  0
 21 54  1  0  0  0  0
 22 55  1  0  0  0  0
 22 56  1  0  0  0  0
 22 57  1  0  0  0  0
 23 58  1  0  0  0  0
 23 59  1  0  0  0  0
 24 60  1  0  0  0  0
 24 61  1  0  0  0  0
 25 62  1  0  0  0  0
 25 63  1  0  0  0  0
 26 64  1  0  0  0  0
 26 65  1  0  0  0  0
 27 66  1  0  0  0  0
 27 67  1  0  0  0  0
 28 68  1  0  0  0  0
 28 69  1  0  0  0  0
 29 70  1  0  0  0  0
 29 71  1  0  0  0  0
 30 72  1  0  0  0  0
 31 73  1  0  0  0  0
 32 74  1  0  0  0  0
 34 75  1  0  0  0  0
 34 76  1  0  0  0  0
 37 77  1  0  0  0  0
M  CHG  1  34   1
M  END
> <OMEGA_C>
S5HlQKNej7+Tea3BVVLzQLxOXz6ePK7BDsm7QOLmtL+q8anB0hUHQQRm7D6fD2zBk4L6QOagCkHb
AJXBZHUCQV46uT+5h3vB+4n5QLqJSr8J5WzBz1HXQJKhoT8IdqvB89efQABavb7ED6fB9NjeQATH
AEE0mY3BZOfqQKodEUEaEp/Bq3fSQMzgoL0UWIbBHcKjQNkeBEH1S5rBEHXmQP8HmD+K5IXBBSPc
QG07ib8OeH3BMqOtQHZBeD90wKfBsXezQKAY+0AZOZDBXZC/QPrHDUFWvKHBg8naQJ4jDkB32Y3B
UEDFQChiF8AmOH7BBKFmQJQaTMDJlJbBx0IQQcnhgsBb5YTBFtmPQCGoBUCreKTB9/KVQENN5kDE
LIjBaW9uQOQAdMD7Y4vBoL4DQaKhhsB0dI/BMk+lQK5licC0M4nBleXlQIQrRcCEupDBvaKcQB1I
n0DMTZDBlROlQEbLPkBI55vBPlKFQNQwgUDo55fBqDmzQCwXCEAr9ZLBjg3EQOqQSsC3a4jBiiF/
QFPnwUAbFY3BsXfzQMIJSUDs3I/Bp9OwQE6cLMDSU27BMFNqQCSSmUCts6DBo6CnQLd/F0HxXLHB
bxT7QHYU9r+uma/BH6wJQacH4j5K87DBrzGxQDsgHMD6cqnBiIwSQTzNKj9djl/BC9kNQWQ2DUFW
95LBNIsKQUSpGUA/+nrB/xsAQXC5xL+c2WDBb6vhQNuFEkD+KazB9Lt/QNlYGL/iUqTBreDqQLpk
90BR6IXBZRMAQcOlGEHxv6TB7Yi7QBe3kr4Kl4zBrHiCQOS9AUHuSpzBw1okQIzUNsBg5pfBpQaJ
QJrpFMBEM5fBrOl3QH//e8CEqJzBbvUbQc8XncAtW4TBhLEYQbv/R8BkqYTBsBMFQePchMACPXzB
ySKIQG7MLEDyhqvBbYNkQMYa1D8jL6HBOtaoQIfp2kAOUYHBvJZ8QOrq/UB6aoXBosVcQOXXQ8AS
XYXBBaJCQOV2lcBS0orBXBkPQV/XhMDsKZbBD/f2QGS0pcAKn4/BFbelQJ5Gm8BNn4HBn1qvQCGW
nsDTw4/B4BT2QBzjBsCGDZDBkvPWQPulSsChqpjBqg2nQApzjUB+LYnBO7y4QJfwrECGW5TBWdnA
QD47X0Dpep/BVSNWQHx6YkDpm5PBs+WeQEiAtj+yW5DBbhtVQE4/tkCOzIfBF+xfQM5NzECXkJPB
IAtNQKwkh0Agg6XBwoPmQIJVir9F6a3BxLDzQKuthz4CYa7B4SS9QEfVs7+TQKrBNW0HQURR3j7A
pWvBDOa+QCsZDkG6QaLBWBsDQTastj9TGXvBOZP5QKwjT7/Fj2zBDZnXQB6TpD/oI6vBtBGhQGYN
xb4E8abBlUGjQLiPBEGGv5rBwkfqQJJeEUFtq5/BiQvTQL6skL0zKobBE4jeQO9EAUGYHI7BSr7n
QOBslz9dsoXBTRrcQE0pib9mMH3BOWKuQLAcdj+URafBMR6zQGZS/EB6qJDBFAf6QA3zCkFImZXB
l1ncQEH1DUBWoo3Bf3PEQHtrFsAiJn7BvqBmQGDVTsDm6pbBEr0PQXU5gsBoH4XB8xuQQP2FA0DR
vqPB2MGVQL8N6EBihIjBudxtQJTWc8BWkovB+XgDQYYYhcAuxY/BK++kQGUcicDXL4nBptXkQLQA
Q8CI05DB9lqdQFazoEAmXZDBO46lQGOlPkAZapvBQ8SFQEI5gUA5iZfBAQS0QHnNCUBoXZLB04XD
QPjGScCrY4jBZbV/QAwfw0D9Q43B29j1QDiZRkBc/o/Boq+uQBP0KcCZkW7BixJpQBPyl0CjeaDB
EPwdQYgcEEFclpHBuib8QCXB7r9KXLDBlqwJQRM0Az8lObHBsfiyQMzwG8Do/KnBK+YSQbRUID+e
GF/B1dqyQHfmEkG0/anBYmwLQTXgF0DMfXrBIdH/QGq/x79SjGDBaIThQJ5kFEDMm6vBc1iBQL0t
Ir9XJqTBtPCBQJkjAkFDs5zBSXj/QL/KGEHgZaXBvvq7QHq+hr5zaYzBhrnqQKN5+EDBbYbBhXMk
QJbNOcAPXpjBjBaJQDvmF8AoupfBpxh4QD0lgMCHyZzBQ6gbQU0TnMBNuYTBg+MXQZQwRsDamoTB
LHAEQbRwhcA32XzBmsCGQLnFKUDPwKrBiPBmQCWNzD+MKqDBDKioQAZr3UDolYHBcrV7QHiu/0Dq
5oXB0gFcQNMeQsA4wYXBYe1BQIlBlcCY0IrBaO8OQUkQgsCgZ5bBIfj2QLNopMBiOZDB2fekQM+w
msAckIHBHmWvQFqHnsCKqY/BX6j0QMJZBMARJpDBH2zVQE9YSMCvtZjBT9+oQGQTkEBPKYnBiL24
QGdSrkA3uJTB1hzBQEilXkA6J5/BnkBYQNEuY0Dr8ZLBHjifQI/4vj/hXY/B4g9WQOmEt0Cm7YfB
qiVgQCDpzEDYx5PBh3BLQB+ThEAzA6XBZTbnQNsbir8mra3B54b0QLwzhz7OWK7BR9K9QBMRsr/3
96nB1fAJQax6/T49aWzBGb/5QM/3C0EVD5XBPTkFQUdiuz+SKXzB4NT8QAPfN79vvWvBH2/YQFbD
pT83U6vB1NWhQLmNub5EyqbBGXPeQPvvAUG4oI3B3+npQH0xEkHoJZ/BX8jTQMgQMrxRd4XBFUWj
QAWcBEGWVprBEurpQOg1nD+/uoXBxa7cQFOSeL+SEHvBNSWvQK6sez84cafBvjWzQJuJ/EDpQJDB
8a++QPd0DkFrzKHBhqLdQIGgD0CIwo3BtJ2/QN0XCMBOHXnB/fxUQBR3asDKF5fB2WwXQXnBf8A5
x5DB+CiRQFmqBUBKCKTB0f6VQKF250DYMIjBF3OQQJK4QMDnZpHB7ucAQRAuWsA9tI/BxSigQE0N
esBZKYjBsQLwQPo6dMA1xYTBC46dQNM6oED9JpDBEJGmQN6wP0DllJvBrXqGQH9cgUDgl5fBzH+1
QIPECUAjn5LB8SjFQHCJUcBY04LBRhiAQIbFwkA4Fo3B3DL2QM4vSkCiAJDB/+qcQNNI9r+wk3DB
tShrQE0NmUCgbKDBLyCmQAcDGEE/ZLHBzcX8QNV/779FArDB6SMKQcllAD/fLbHBYY6zQHX0GsCo
kKnBqGkWQeTlLj/z1WDBamkNQRnkDkGnBpPBkwkOQf0fGUDgi3zBqOQBQe24ub/Vh1/BEmjiQAXc
FECH+KvBDj+CQGlBGr/f26PByqXqQEwe+kCt64XBBOb+QHrUGUFi2qTB5rG7QEcCYL4vb4vBJROC
QEzoAUGwU5zBlU8/QHXgQMDqp53BkaxoQNNplMAJWprBlFwgQPi+c8A0XZHBHzAeQYbkbcD7lpjB
PKohQT58ZsAPW4rBUZsWQcrzosCSKJDB4p2IQBBuLECRD6vBHxJoQGGC0j9umKDBTgmpQKJc3EBa
VIHBIxh8QN3L/kCRcIXB3KmqQDxpN8CSKJfB3YGGQI5UAsC9K47B758BQTH+E8A9SZDBCSLtQIdp
c8DAFpbBQCSGQCBYgcBYVYLBdMWpQJVgnMBPXIvB023uQOE+ncA8YoTBj9wCQfV3XMC2Bn3BEzeo
QEkOj0Cq8ojBEHq5QCDgrUDUSJTB3/XBQH2RYECwRp/B+kxZQIxvYkCuLpPBbEShQEwfuz9p0I/B
LdNVQKIlt0B514fBVHVhQObazEDAopPBNSBOQJknhkC4JKXB

> <OMEGA_E>
oLB7PTCrZD5grKY+

> <OMEGA_NBR>
     10792

$$$$
50139675
  -OEChem-04172616093D

 58 60  0     1  0  0  0  0  0999 V2000
    6.8976   -1.1783  -15.9796 C   0  0  0  0  0  0  0  0  0  0  0  0
    7.8193    8.7602  -18.6605 C   0  0  0  0  0  0  0  0  0  0  0  0
    6.5511   -0.1644  -16.8940 C   0  0  0  0  0  0  0  0  0  0  0  0
    7.8087   -0.9066  -14.9390 C   0  0  0  0  0  0  0  0  0  0  0  0
    6.9659    8.1510  -17.7208 C   0  0  0  0  0  0  0  0  0  0  0  0
    7.3229    9.1349  -19.9251 C   0  0  0  0  0  0  0  0  0  0  0  0
    8.0666    1.3785  -15.7555 C   0  0  0  0  0  0  0  0  0  0  0  0
    6.7285    1.3333  -21.4242 C   0  0  0  0  0  0  0  0  0  0  0  0
    5.0443   -0.3170  -20.7834 C   0  0  0  0  0  0  0  0  0  0  0  0
    5.1129    8.3044  -19.3071 C   0  0  0  0  0  0  0  0  0  0  0  0
    7.2224   -1.0457  -21.6095 C   0  0  0  0  0  0  0  0  0  0  0  0
    7.1394    1.1201  -16.7876 C   0  0  0  0  0  0  0  0  0  0  0  0
    8.3779    0.3802  -14.8133 C   0  0  0  0  0  0  0  0  0  0  0  0
    5.6129    7.9238  -18.0419 C   0  0  0  0  0  0  0  0  0  0  0  0
    5.4384    1.0279  -20.9373 C   0  0  0  0  0  0  0  0  0  0  0  0
    7.6214    0.2984  -21.7510 C   0  0  0  0  0  0  0  0  0  0  0  0
    5.9352   -1.3524  -21.1221 C   0  0  0  0  0  0  0  0  0  0  0  0
    5.9706    8.9026  -20.2503 C   0  0  0  0  0  0  0  0  0  0  0  0
    6.7883    2.1847  -17.7446 C   0  0  0  0  0  0  0  0  0  0  0  0
    9.3729    0.6776  -13.7119 C   0  0  0  0  0  0  0  0  0  0  0  0
    4.4935    2.1430  -20.5474 C   0  0  0  0  0  0  0  0  0  0  0  0
    4.7041    7.2739  -17.0246 C   0  0  0  0  0  0  0  0  0  0  0  0
    4.9175    5.0569  -18.0500 C   0  0  0  0  0  0  0  0  0  0  0  0
    5.1400    3.0291  -19.4637 C   0  0  1  0  0  0  0  0  0  0  0  0
    4.1686    4.1074  -18.9776 C   0  0  2  0  0  0  0  0  0  0  0  0
    5.5354    2.1630  -18.3417 N   0  0  0  0  0  0  0  0  0  0  0  0
    4.0068    6.1308  -17.6295 N   0  3  0  0  0  0  0  0  0  0  0  0
    7.5909    3.0785  -17.9957 O   0  0  0  0  0  0  0  0  0  0  0  0
    3.6695    4.8512  -20.0899 O   0  0  0  0  0  0  0  0  0  0  0  0
    8.8624    0.5977  -22.1966 F   0  0  0  0  0  0  0  0  0  0  0  0
    5.5605   -2.6411  -20.9607 F   0  0  0  0  0  0  0  0  0  0  0  0
    5.2054    9.4720  -22.2083 I   0  0  0  0  0  0  0  0  0  0  0  0
    6.4654   -2.1634  -16.0758 H   0  0  0  0  0  0  0  0  0  0  0  0
    8.8548    8.9405  -18.4121 H   0  0  0  0  0  0  0  0  0  0  0  0
    5.8358   -0.3665  -17.6775 H   0  0  0  0  0  0  0  0  0  0  0  0
    8.0722   -1.6835  -14.2366 H   0  0  0  0  0  0  0  0  0  0  0  0
    7.3483    7.8579  -16.7542 H   0  0  0  0  0  0  0  0  0  0  0  0
    7.9788    9.6004  -20.6459 H   0  0  0  0  0  0  0  0  0  0  0  0
    8.5397    2.3470  -15.6884 H   0  0  0  0  0  0  0  0  0  0  0  0
    7.0293    2.3635  -21.5454 H   0  0  0  0  0  0  0  0  0  0  0  0
    4.0601   -0.5523  -20.4061 H   0  0  0  0  0  0  0  0  0  0  0  0
    4.0742    8.1369  -19.5507 H   0  0  0  0  0  0  0  0  0  0  0  0
    7.9029   -1.8414  -21.8744 H   0  0  0  0  0  0  0  0  0  0  0  0
   10.3889    0.4415  -14.0614 H   0  0  0  0  0  0  0  0  0  0  0  0
    9.3158    1.7430  -13.4442 H   0  0  0  0  0  0  0  0  0  0  0  0
    9.1371    0.0646  -12.8295 H   0  0  0  0  0  0  0  0  0  0  0  0
    4.2689    2.7561  -21.4327 H   0  0  0  0  0  0  0  0  0  0  0  0
    3.5614    1.7099  -20.1553 H   0  0  0  0  0  0  0  0  0  0  0  0
    5.3039    6.9244  -16.1714 H   0  0  0  0  0  0  0  0  0  0  0  0
    3.9637    8.0089  -16.6758 H   0  0  0  0  0  0  0  0  0  0  0  0
    5.2717    4.5062  -17.1660 H   0  0  0  0  0  0  0  0  0  0  0  0
    5.7779    5.4897  -18.5814 H   0  0  0  0  0  0  0  0  0  0  0  0
    6.0302    3.5159  -19.8886 H   0  0  0  0  0  0  0  0  0  0  0  0
    3.3445    3.6320  -18.4255 H   0  0  0  0  0  0  0  0  0  0  0  0
    4.8586    1.5179  -17.9869 H   0  0  0  0  0  0  0  0  0  0  0  0
    3.3643    5.7590  -16.9593 H   0  0  0  0  0  0  0  0  0  0  0  0
    3.5031    6.4530  -18.4310 H   0  0  0  0  0  0  0  0  0  0  0  0
    3.2002    4.2690  -20.6758 H   0  0  0  0  0  0  0  0  0  0  0  0
  1  3  1  0  0  0  0
  1  4  2  0  0  0  0
  2  5  2  0  0  0  0
  2  6  1  0  0  0  0
  3 12  2  0  0  0  0
  4 13  1  0  0  0  0
  5 14  1  0  0  0  0
  6 18  2  0  0  0  0
  7 12  1  0  0  0  0
  7 13  2  0  0  0  0
  8 15  1  0  0  0  0
  8 16  2  0  0  0  0
  9 15  2  0  0  0  0
  9 17  1  0  0  0  0
 10 14  2  0  0  0  0
 10 18  1  0  0  0  0
 11 16  1  0  0  0  0
 11 17  2  0  0  0  0
 12 19  1  0  0  0  0
 13 20  1  0  0  0  0
 14 22  1  0  0  0  0
 15 21  1  0  0  0  0
 16 30  1  0  0  0  0
 17 31  1  0  0  0  0
 18 32  1  0  0  0  0
 19 26  1  0  0  0  0
 19 28  2  0  0  0  0
 21 24  1  0  0  0  0
 22 27  1  0  0  0  0
 23 25  1  0  0  0  0
 23 27  1  0  0  0  0
 24 25  1  0  0  0  0
 24 26  1  0  0  0  0
 25 29  1  0  0  0  0
  1 33  1  0  0  0  0
  2 34  1  0  0  0  0
  3 35  1  0  0  0  0
  4 36  1  0  0  0  0
  5 37  1  0  0  0  0
  6 38  1  0  0  0  0
  7 39  1  0  0  0  0
  8 40  1  0  0  0  0
  9 41  1  0  0  0  0
 10 42  1  0  0  0  0
 11 43  1  0  0  0  0
 20 44  1  0  0  0  0
 20 45  1  0  0  0  0
 20 46  1  0  0  0  0
 21 47  1  0  0  0  0
 21 48  1  0  0  0  0
 22 49  1  0  0  0  0
 22 50  1  0  0  0  0
 23 51  1  0  0  0  0
 23 52  1  0  0  0  0
 24 53  1  0  0  0  0
 25 54  1  0  0  0  0
 26 55  1  0  0  0  0
 27 56  1  0  0  0  0
 27 57  1  0  0  0  0
 29 58  1  0  0  0  0
M  CHG  1  27   1
M  END
> <OMEGA_C>
UrncQF3Tlr+OrH/BGTj6QO8pDEHNSJXB3aLRQHpTKL72JofBL+H5QB4UaL9WBm/BpujeQFVqAkEq
xI3BIFXqQKMoEkGqZp/B7BABQZVxsD+4FnzBNFDXQEiqqj+yZKvBIGuhQHROor5uRKbBEp2jQOne
BEHndJrB2h3nQI3ahb9B4KzBAHbkQB9ejz8XTYbB0gsGQcOrwj5CA23BlZyzQLSP/UDHVZDBegeu
QIaSgz+Nf6fBReLzQNrNmD4eAq7BC+29QJsbrb8j+qjB0g6/QAlxDkGiAKLBzTnZQNrRC0Dh9I3B
lfcVQbh5LT8OZFvBXsqPQLkmCUAqYaTB94eWQLPD6EB5MojB6ludQM7RoUBWZpDBA3ukQLPcQUCQ
tZvBVGWFQJpvg0AZ0pfB9SGxQAduCkC3u5LBUDeAQCIvxEAeCY3B1ujyQJYGRUA+94/BcNlqQNM8
m0AvuKDBPswNQQoCGT+LkrHBvu+xQJkIKcBrr6fBwJKmQHONF0GvqrHBsuTOQPF0CsBCm4DBVK0N
QTQMD0EDTJPB8766QA6ju76Ra43BpycBQXR8179EyWPB6yTrQJ9z+0CWCIbBJVL/QGmbGUHLKqXB
yKIIQTg1FkCQA3vBIfDgQElDF0AOXazBceyBQORjDb+4P6PBs1+CQJMwAkHJZ5zBZeT8QBW067/f
/q7B6TgmQccR4j5Y+2DBXg0VQUYb3z9UG1fBrTESQRhfhD3HRU3Bz5qIQG5jMEA0dqvBHu5jQB7f
2j8bPqHByrmpQKyU3UD+XoHBo619QEUkAEEaaIXBabGoQM0ykEAOVInBLOS4QKCrr0CnppTBqvfA
QC8EYUDLG5/BzwtWQPtyaEBkZ5PB2nmbQGFKwj8j5Y/BqFBXQABKuECwrIfBXzJgQAB/zkCrcpPB
qdBMQEObiEAgaKXBarUEQY4e5z2R8mzB79r5QK/BDEFlzJXBnND9QEjAmz8ntHnBctn8QCo8mL9j
73LBo3feQLwuA0GYPo7B2wHqQG6lEkED75/Bo97WQLyGjr7D34jBMHzXQPiBrz/jTqvBYK6hQJib
lb6IY6bB9TijQN55BUE89ZrBJAjnQGZggL/GVa3BKu3jQBakgz/NAYbBsjHkQGAbsr+lzYLBTSmz
QBAi/0DNzZDBI3KuQLz+hj/2VKfBdcvzQHY4sD5UQa7BSPu9QAb5qL8dZKnBqLe+QAzyDkEgh6LB
8RjYQM7eCkCB5YzB71XcQBTqMsAsAYfBFnCQQO9BCkC8+6PBmgSWQM3a6kD5mojBAridQL4Eo0Bm
Q5DBCCylQKq4QUAGKpvBNf2FQEStg0Dfc5fB6emwQJwYCUCWL5LByziAQAGixUCsQY3BTVnxQAgH
RkDLPY7BL1RrQISemkDqd6DBfZYNQfeZJz8Y+7HBHuOxQJAlJ8DYXajBiUSmQDIFGEFEM7LBnvoN
Qcojhz4DkV7BwIINQYeWD0El05PB9FkEQbtGDUAcfnXB8gwDQRMyAsDPN2nBOafqQNw4/UBAfYbB
IQn/QGsAGkFuuKXBuYvCQLE02b6Yw4/BCyHhQBHWGUDjFazBpz6CQLnZCL88XqPBBwKCQNK8AkHd
6ZzBFLT8QHx65b/jpq/Bm+u9QOdPS8C+yoPB38LaQJVxMcA6y4/ByqT2QLUSXcDxeITBTSuJQJuz
MkAJ9KrBIktlQJQT3D+H5aDBYRepQB+G4EDArIHBcQd8QG40AUG9AYbBie+oQA5okkCIB4nBeU65
QAJqsEAqlZTBtxDCQLJMYECcbZ7BvYZXQEWJaUAR65LBPi+bQHfbvD8wuo/BSstWQGhBukC144fB
suRgQAkdz0AIzZPBtXlNQD95h0D1CqXBdtXbQBZHlL9gQX/BMQi+QAgQDkGRi6LB7zzRQIyLHL7C
DofBRxv5QEiUYr9Yqm7BmcOiQEzPBEFC3ZrBeGHpQEi9EUFOEKDBvwYBQezQsT/RF3zB02XXQEJh
qj+BYavBTH6hQIoJob4KKqbBblLeQCywAkEtP47B0ibnQEJVhr8wwazBx1jkQI5gkD8kSYbBP0MG
Qag9xj5xLG3Bgv6yQKka/kDptZDBfByuQKHBgz9ZeKfB4fTzQGtelj5D8a3BQ/W9QHwirb+x1qjB
h3X5QMIMDEGR6pXBU1LZQOPvC0Bp/43BH1AVQaaLNT8d6lrBGOyPQAB0CUAXZKTBu0aWQOOc6UDX
dIjBf6mdQBFBokDkdpDB25ykQLktQkAEuJvBMZ6FQGqeg0Da0JfB3SyxQPDeCkAmvJLB2EeAQLR8
xEAgH43BKEzzQARZRECMHpDBatJqQMUum0ADuaDBOdoNQZjrFj/2f7HBleqxQEf7KMDHgKfBKNId
QaJREUFYLZLBQ4rNQIjZCMAISYDBpbmxQBpWEkG2VKrBtYG6QAugt76mWo3BWFoAQcUt078XEmPB
QnSBQMscAkEVu5zBg0v+QCDqGEGt7qXBt2kIQSI4F0BU7HrBHgnhQJoPF0CAZ6zBCQaCQD0FDL+J
HaPBRLrqQK2b/EB7fIbBnOb8QKxt7L9F2K7Bf9YlQUcC9D6OsV/BgREUQWeQ4z9P71bBBvgQQRWb
2z2o1kzBnN2IQKKeMEDEfKvBOA1kQDrl2z91RKHBZK+pQN0Y30ATmoHB+MV8QBqKAEGZvoXBFj+p
QO3ZkEB1YonB7wW5QOwtsEDqxJTBFyHBQO8/YUBRHZ/BZr1WQBzqaECdV5PBm22bQHbgwz9M3I/B
BTRYQMycuEAbq4fBwYZfQFFGzkCMhZPB8rFMQP5piEC+XaXBW5IFQfI3OD7qLm3BIWq+QC/CDkFs
66LBqS7/QDqzoj9aI3rBTwD+QIYskL/PnnLB6fSiQFh4BUH9SZvBl77pQOpZEkG0YaDBqq7WQBzy
eL7Sm4jB+tPWQFKtqz/GOqvBSuWgQAhfn74PK6bBlUfeQDUlA0GAnY7BJDnmQHiwhL99CK3BXFnk
QGaQiD9dCIbBpFvkQNYerL+wdILBOPiyQONE/0AtIJHB9b2tQBRGhD8TPKfBvBnzQMC7nT7qD67B
gCS9QLowrL80EanBRZr5QIGIDEHpOpbBNUfYQHNWDEA9D43BOqXbQB1pMMBaYobBtM6PQHtRCUCO
+KPBFPuVQFE060BK34jBNY+dQJBJo0BrfJDBXL+kQBW5QUDeRpvB8rCFQILig0BSoZfBq8ywQL0q
CkAZN5LB7R2AQJDqxUAQdo3BoaTxQJfkRkCYqI7BpANrQHGsmkCsr6DBiFINQYAjHD+uubHB8wSx
QAqaKMA146fBvM4dQeTKEUHWWpLBpjIPQSYIsD4RE1/BqUSyQG8fE0FitarBukEFQcrjEEDCX3bB
ycgDQR0h+7/bxWjBqK2BQKbOAkHWM53Bs83+QMGOGUFONabBcZzBQOD5zL4sV4/By4jgQGTNF0Ds
G6zBKW+BQAwfDL/HIaPBXInqQDpJ/UBb24bBfNT7QJxl6r+ISK/B53a9QMC1R8CK6oLB3SjZQGFF
MMCGKY/BNgP2QIiuWsCy64PBWGeIQGn9MEBFAKvBzyVkQOn22j/gy6DBjCmpQM0A4UDG8oHBAA98
QA9pAUFRR4bB9OuoQGC8kkD2QYnBLw+5QAqnsECb2JTBkorBQMH2X0CvpJ7BtcVWQDdpakDiE5PB
qhqbQKYVwD/OmI/BL9xWQJyWukDtDYjBA1tgQAJOz0Aw/ZPByf5MQPl7h0BtO6XB

> <OMEGA_E>
WM3iPhjZ7z5gvhU/HFEZPw==

> <OMEGA_NBR>
     14911

$$$$
50154283
  -OEChem-04172616093D

 90 92  0     1  0  0  0  0  0999 V2000
    7.8924    8.3261  -18.1107 C   0  0  0  0  0  0  0  0  0  0  0  0
    6.8610    7.7713  -17.3332 C   0  0  0  0  0  0  0  0  0  0  0  0
    7.6159    8.8231  -19.3989 C   0  0  0  0  0  0  0  0  0  0  0  0
    6.3888   -0.3070  -16.9235 C   0  0  0  0  0  0  0  0  0  0  0  0
    7.9417    1.2049  -15.7972 C   0  0  0  0  0  0  0  0  0  0  0  0
    7.6210   -1.0578  -14.9611 C   0  0  0  0  0  0  0  0  0  0  0  0
    5.2668    8.2220  -19.1312 C   0  0  0  0  0  0  0  0  0  0  0  0
    6.6257    1.1327  -21.3350 C   0  0  0  0  0  0  0  0  0  0  0  0
    4.8937   -0.5148  -20.8356 C   0  0  0  0  0  0  0  0  0  0  0  0
    7.1130   -1.2440  -21.5461 C   0  0  0  0  0  0  0  0  0  0  0  0
    6.9992    0.9657  -16.8206 C   0  0  0  0  0  0  0  0  0  0  0  0
    6.7051   -1.3208  -15.9939 C   0  0  0  0  0  0  0  0  0  0  0  0
    5.5501    7.7157  -17.8423 C   0  0  0  0  0  0  0  0  0  0  0  0
    8.2430    0.1970  -14.8500 C   0  0  0  0  0  0  0  0  0  0  0  0
    5.3109    0.8297  -20.9160 C   0  0  0  0  0  0  0  0  0  0  0  0
    6.3073    8.7767  -19.9251 C   0  0  0  0  0  0  0  0  0  0  0  0
    7.5281    0.0981  -21.6340 C   0  0  0  0  0  0  0  0  0  0  0  0
    5.7916   -1.5480  -21.1648 C   0  0  0  0  0  0  0  0  0  0  0  0
    6.6123    2.0571  -17.7375 C   0  0  0  0  0  0  0  0  0  0  0  0
    5.9887   -2.6094  -15.9936 C   0  0  0  0  0  0  0  0  0  0  0  0
    3.1449   -2.7359  -18.3304 C   0  0  0  0  0  0  0  0  0  0  0  0
    8.5420   -4.7478  -17.0647 C   0  0  0  0  0  0  0  0  0  0  0  0
    9.7479    1.8505  -13.5794 C   0  0  0  0  0  0  0  0  0  0  0  0
    4.7839    9.2186  -21.7615 C   0  0  0  0  0  0  0  0  0  0  0  0
    4.3527    1.9477  -20.5565 C   0  0  0  0  0  0  0  0  0  0  0  0
    4.4544    7.0996  -17.0022 C   0  0  0  0  0  0  0  0  0  0  0  0
    3.7942   -4.1296  -18.4152 C   0  0  0  0  0  0  0  0  0  0  0  0
    8.2973   -3.4716  -17.8876 C   0  0  0  0  0  0  0  0  0  0  0  0
    4.7611   -4.4065  -17.2395 C   0  0  0  0  0  0  0  0  0  0  0  0
    6.8094   -3.2909  -18.2808 C   0  0  0  0  0  0  0  0  0  0  0  0
    4.6704    4.8772  -18.0345 C   0  0  0  0  0  0  0  0  0  0  0  0
    9.1005    0.4563  -13.6143 C   0  0  2  0  0  0  0  0  0  0  0  0
    4.9768    2.8644  -19.4818 C   0  0  1  0  0  0  0  0  0  0  0  0
    3.9967    3.9645  -19.0583 C   0  0  2  0  0  0  0  0  0  0  0  0
    5.3586    2.0231  -18.3360 N   0  0  0  0  0  0  0  0  0  0  0  0
    5.8544   -3.4018  -17.1466 N   0  0  0  0  0  0  0  0  0  0  0  0
   10.1699   -0.5585  -13.5252 N   0  3  0  0  0  0  0  0  0  0  0  0
    3.7867    6.0197  -17.7462 N   0  3  0  0  0  0  0  0  0  0  0  0
    7.3767    2.9957  -17.9405 O   0  0  0  0  0  0  0  0  0  0  0  0
    5.5166   -2.9924  -14.9280 O   0  0  0  0  0  0  0  0  0  0  0  0
    3.6450    4.7471  -20.2012 O   0  0  0  0  0  0  0  0  0  0  0  0
    6.1198    9.2806  -21.2082 O   0  0  0  0  0  0  0  0  0  0  0  0
    8.7894    0.3964  -22.0175 F   0  0  0  0  0  0  0  0  0  0  0  0
    5.3880   -2.8347  -21.1171 F   0  0  0  0  0  0  0  0  0  0  0  0
    8.8981    8.3712  -17.7196 H   0  0  0  0  0  0  0  0  0  0  0  0
    7.0744    7.3881  -16.3463 H   0  0  0  0  0  0  0  0  0  0  0  0
    8.4146    9.2446  -19.9912 H   0  0  0  0  0  0  0  0  0  0  0  0
    5.6799   -0.5027  -17.7145 H   0  0  0  0  0  0  0  0  0  0  0  0
    8.4361    2.1632  -15.7365 H   0  0  0  0  0  0  0  0  0  0  0  0
    7.8499   -1.8310  -14.2427 H   0  0  0  0  0  0  0  0  0  0  0  0
    4.2574    8.1874  -19.5138 H   0  0  0  0  0  0  0  0  0  0  0  0
    6.9380    2.1625  -21.4258 H   0  0  0  0  0  0  0  0  0  0  0  0
    3.8876   -0.7515  -20.5222 H   0  0  0  0  0  0  0  0  0  0  0  0
    7.8072   -2.0401  -21.7710 H   0  0  0  0  0  0  0  0  0  0  0  0
    2.4700   -2.5925  -19.1871 H   0  0  0  0  0  0  0  0  0  0  0  0
    2.5719   -2.6548  -17.3949 H   0  0  0  0  0  0  0  0  0  0  0  0
    3.9289   -1.9646  -18.3483 H   0  0  0  0  0  0  0  0  0  0  0  0
    9.6105   -4.8242  -16.8147 H   0  0  0  0  0  0  0  0  0  0  0  0
    7.9509   -4.7054  -16.1380 H   0  0  0  0  0  0  0  0  0  0  0  0
    8.2394   -5.6267  -17.6528 H   0  0  0  0  0  0  0  0  0  0  0  0
   10.3451    1.9551  -12.6616 H   0  0  0  0  0  0  0  0  0  0  0  0
   10.3995    1.9740  -14.4569 H   0  0  0  0  0  0  0  0  0  0  0  0
    8.9620    2.6200  -13.5950 H   0  0  0  0  0  0  0  0  0  0  0  0
    4.7854    9.6493  -22.7737 H   0  0  0  0  0  0  0  0  0  0  0  0
    4.4555    8.1699  -21.8099 H   0  0  0  0  0  0  0  0  0  0  0  0
    4.0952    9.7894  -21.1213 H   0  0  0  0  0  0  0  0  0  0  0  0
    4.1333    2.5409  -21.4564 H   0  0  0  0  0  0  0  0  0  0  0  0
    3.4198    1.5145  -20.1665 H   0  0  0  0  0  0  0  0  0  0  0  0
    4.8916    6.6886  -16.0803 H   0  0  0  0  0  0  0  0  0  0  0  0
    3.7161    7.8732  -16.7447 H   0  0  0  0  0  0  0  0  0  0  0  0
    2.9994   -4.8900  -18.4047 H   0  0  0  0  0  0  0  0  0  0  0  0
    4.3564   -4.1998  -19.3581 H   0  0  0  0  0  0  0  0  0  0  0  0
    8.6119   -2.6024  -17.2913 H   0  0  0  0  0  0  0  0  0  0  0  0
    8.9004   -3.5238  -18.8060 H   0  0  0  0  0  0  0  0  0  0  0  0
    4.1876   -4.3905  -16.3010 H   0  0  0  0  0  0  0  0  0  0  0  0
    5.2086   -5.4017  -17.3789 H   0  0  0  0  0  0  0  0  0  0  0  0
    6.6920   -2.2949  -18.7328 H   0  0  0  0  0  0  0  0  0  0  0  0
    6.5538   -4.0624  -19.0220 H   0  0  0  0  0  0  0  0  0  0  0  0
    4.8582    4.3148  -17.1080 H   0  0  0  0  0  0  0  0  0  0  0  0
    5.6247    5.2439  -18.4407 H   0  0  0  0  0  0  0  0  0  0  0  0
    8.4549    0.3631  -12.7285 H   0  0  0  0  0  0  0  0  0  0  0  0
    5.8753    3.3372  -19.9049 H   0  0  0  0  0  0  0  0  0  0  0  0
    3.1043    3.5051  -18.6083 H   0  0  0  0  0  0  0  0  0  0  0  0
    4.6770    1.3911  -17.9672 H   0  0  0  0  0  0  0  0  0  0  0  0
   10.7286   -0.3843  -12.7143 H   0  0  0  0  0  0  0  0  0  0  0  0
    9.7610   -1.4686  -13.4589 H   0  0  0  0  0  0  0  0  0  0  0  0
   10.7443   -0.5098  -14.3423 H   0  0  0  0  0  0  0  0  0  0  0  0
    3.0123    5.6930  -17.2045 H   0  0  0  0  0  0  0  0  0  0  0  0
    3.4542    6.3904  -18.6134 H   0  0  0  0  0  0  0  0  0  0  0  0
    3.2243    4.1927  -20.8479 H   0  0  0  0  0  0  0  0  0  0  0  0
  1  2  2  0  0  0  0
  1  3  1  0  0  0  0
  2 13  1  0  0  0  0
  3 16  2  0  0  0  0
  4 11  1  0  0  0  0
  4 12  2  0  0  0  0
  5 11  2  0  0  0  0
  5 14  1  0  0  0  0
  6 12  1  0  0  0  0
  6 14  2  0  0  0  0
  7 13  2  0  0  0  0
  7 16  1  0  0  0  0
  8 15  1  0  0  0  0
  8 17  2  0  0  0  0
  9 15  2  0  0  0  0
  9 18  1  0  0  0  0
 10 17  1  0  0  0  0
 10 18  2  0  0  0  0
 11 19  1  0  0  0  0
 12 20  1  0  0  0  0
 13 26  1  0  0  0  0
 14 32  1  0  0  0  0
 15 25  1  0  0  0  0
 16 42  1  0  0  0  0
 17 43  1  0  0  0  0
 18 44  1  0  0  0  0
 19 35  1  0  0  0  0
 19 39  2  0  0  0  0
 20 36  1  0  0  0  0
 20 40  2  0  0  0  0
 21 27  1  0  0  0  0
 22 28  1  0  0  0  0
 23 32  1  0  0  0  0
 24 42  1  0  0  0  0
 25 33  1  0  0  0  0
 26 38  1  0  0  0  0
 27 29  1  0  0  0  0
 28 30  1  0  0  0  0
 29 36  1  0  0  0  0
 30 36  1  0  0  0  0
 31 34  1  0  0  0  0
 31 38  1  0  0  0  0
 32 37  1  0  0  0  0
 33 34  1  0  0  0  0
 33 35  1  0  0  0  0
 34 41  1  0  0  0  0
  1 45  1  0  0  0  0
  2 46  1  0  0  0  0
  3 47  1  0  0  0  0
  4 48  1  0  0  0  0
  5 49  1  0  0  0  0
  6 50  1  0  0  0  0
  7 51  1  0  0  0  0
  8 52  1  0  0  0  0
  9 53  1  0  0  0  0
 10 54  1  0  0  0  0
 21 55  1  0  0  0  0
 21 56  1  0  0  0  0
 21 57  1  0  0  0  0
 22 58  1  0  0  0  0
 22 59  1  0  0  0  0
 22 60  1  0  0  0  0
 23 61  1  0  0  0  0
 23 62  1  0  0  0  0
 23 63  1  0  0  0  0
 24 64  1  0  0  0  0
 24 65  1  0  0  0  0
 24 66  1  0  0  0  0
 25 67  1  0  0  0  0
 25 68  1  0  0  0  0
 26 69  1  0  0  0  0
 26 70  1  0  0  0  0
 27 71  1  0  0  0  0
 27 72  1  0  0  0  0
 28 73  1  0  0  0  0
 28 74  1  0  0  0  0
 29 75  1  0  0  0  0
 29 76  1  0  0  0  0
 30 77  1  0  0  0  0
 30 78  1  0  0  0  0
 31 79  1  0  0  0  0
 31 80  1  0  0  0  0
 32 81  1  0  0  0  0
 33 82  1  0  0  0  0
 34 83  1  0  0  0  0
 35 84  1  0  0  0  0
 37 85  1  0  0  0  0
 37 86  1  0  0  0  0
 37 87  1  0  0  0  0
 38 88  1  0  0  0  0
 38 89  1  0  0  0  0
 41 90  1  0  0  0  0
M  CHG  2  37   1  38   1
M  END
> <OMEGA_C>
2Y78QLY3BUHL4pDBlI3bQFKu+EBrqorBfbXzQFsrDUELMZvBwnDMQAAqnb5hY4fBXCL+QDs5mj8w
wXzBOt/zQEhmh7+tYG/BbomoQGWNA0HEDJnBcAXUQHv7kD8orqrB85icQHbLA79Kr6bBlJ3jQMg6
n797XqzBIfnfQI41dz+dkIbBOpDWQKkQqb8Q53/BnJqxQLHm9kDvvI7BauMDQUa4ST7NmW3BpfKp
QLdpVD8MVKfBXdXJQHhtDEGcZp/B5eXwQP7fyD19Eq3BFFW5QDolxr92UanBSJjTQP6mA0B75o3B
BqO/QHYAJ8Cc5X/BSEVJQLIZL8CqpJLBNKwIQcntl8CEhIjBNPcbQaHb7D8FRVnBERaZQHt/E0GY
F67B/UiLQC1N+T+pc6TB2YqOQL8v40CKBIjBm9NyQFslhMBVUpPBwcEEQaAuXsDBGY/Bm1qYQGAC
jcCS6onB7+bZQLqdUsAnP5LBDXSVQOkRnECtRpDBe5sRQVCd6T4A1FnBvUGfQJhRN0C82pvBtsp/
QKC5fUBSd5jBp3mrQIx6AUAnsJLB8Fa7QLC2WcAjLInB7rciQfv3Dr8xZ1jBBFpyQGyhwEA4+I3B
xA3sQBi6P0AWho/B4oewQASEP8A+2W7BQUdpQAjol0D8m6HBRdXDQDV9FEFRqqnBT6EMQb3uyj7S
I7DBTmqsQFJsNcDO76jBsF4OQZzwBUHLwY3BaWHiQGhr7EAoxYLBT6IGQQ7qE0Hs7Z/BtsG1QBmu
AL9Bt43BLfoGQQ5xCkCByHvBljL7QMxf6r8g4mPBjTyIQHD/AkE4HJzBMgTeQOpmCkD+Z6vBuc54
QBlkQL9rLaTB/dT5QG2RAsDyKq7BPBQeQEHsJcBAf5nBXZokQKPoKcDAKIvBp3J7QIF3+79CyZLB
vMQZQQ1gmsCRhIbB/W3+QE2SlsCfGoHBhNQDQU4OtMDbOI3Bo4UlQeA/+j/MlUrBi2QmQTet/D9M
T2fBWGQPQeytJ0D5hFnBVyKZQK9jGkGDMLbBpJOOQPW3AkG7eq7BtAuDQEKhHEF5+KjB/UOEQLie
IkDDpqvBw91aQFnawT/3VKHBMIicQB8J1kBkpIDBq9RtQInx+0Aw9YXBj/Y/QOp6nMDPPJPBbWeL
QHlkhsBR3ZrBdsoJQWWOJsCFVIrB/GcOQWaGYcDBcpbBywCGQCt/jMBpaILBfqymQK/arMDtB4vB
1yTWQDbgEsDa3JXBYbjRQCX/gcAkLZjBjHabQJcSikAw3YjBMf2zQLHNp0CEhpPBSkcHQbnmuT7r
p0vBagK8QHmVVUBLPZ/BmaxGQBlTYEDF3ZTBIKqVQOcPsj/PvI/BZKgrQZbGxL7XbUvB6SwcQcf7
u7+jV1fBnugrQVeEAr8wemXBvshAQCottkDToonBOBJdQBR+zEA96JTBs1tOQHcqhkBuyKbB

> <OMEGA_E>
0LBPPg==

> <OMEGA_NBR>
      1783

$$$$
50141631
  -OEChem-04172616093D

 85 87  0     1  0  0  0  0  0999 V2000
    7.0280   -1.3230  -21.5679 C   0  0  0  0  0  0  0  0  0  0  0  0
    7.4711    0.0097  -21.6751 C   0  0  0  0  0  0  0  0  0  0  0  0
    5.7062   -1.5970  -21.1621 C   0  0  0  0  0  0  0  0  0  0  0  0
    7.9330    8.2771  -18.0611 C   0  0  0  0  0  0  0  0  0  0  0  0
    6.5942    1.0677  -21.3735 C   0  0  0  0  0  0  0  0  0  0  0  0
    4.8336   -0.5405  -20.8396 C   0  0  0  0  0  0  0  0  0  0  0  0
    6.8937    7.7214  -17.2950 C   0  0  0  0  0  0  0  0  0  0  0  0
    7.6636    8.8043  -19.3391 C   0  0  0  0  0  0  0  0  0  0  0  0
    7.9709    1.3123  -15.8372 C   0  0  0  0  0  0  0  0  0  0  0  0
    7.7410   -0.9571  -14.9768 C   0  0  0  0  0  0  0  0  0  0  0  0
    6.4132   -0.2420  -16.8930 C   0  0  0  0  0  0  0  0  0  0  0  0
    5.3066    8.2310  -19.0843 C   0  0  0  0  0  0  0  0  0  0  0  0
    8.3424    0.3217  -14.9051 C   0  0  0  0  0  0  0  0  0  0  0  0
    7.0060    1.0397  -16.8265 C   0  0  0  0  0  0  0  0  0  0  0  0
    6.7805   -1.2449  -15.9725 C   0  0  0  0  0  0  0  0  0  0  0  0
    5.2751    0.7955  -20.9420 C   0  0  0  0  0  0  0  0  0  0  0  0
    5.5827    7.6944  -17.8062 C   0  0  0  0  0  0  0  0  0  0  0  0
    6.3543    8.7883  -19.8659 C   0  0  0  0  0  0  0  0  0  0  0  0
    9.3380    0.6341  -13.8525 C   0  0  0  0  0  0  0  0  0  0  0  0
    6.6122    2.0935  -17.7763 C   0  0  0  0  0  0  0  0  0  0  0  0
    6.0852   -2.5537  -15.9781 C   0  0  0  0  0  0  0  0  0  0  0  0
    3.0488   -2.7805  -18.4278 C   0  0  0  0  0  0  0  0  0  0  0  0
    8.4777   -4.7711  -17.1457 C   0  0  0  0  0  0  0  0  0  0  0  0
    4.8517    9.2285  -21.7207 C   0  0  0  0  0  0  0  0  0  0  0  0
    4.3336    1.9335  -20.5917 C   0  0  0  0  0  0  0  0  0  0  0  0
    4.4802    7.0656  -16.9866 C   0  0  0  0  0  0  0  0  0  0  0  0
    3.8239   -4.1070  -18.4639 C   0  0  0  0  0  0  0  0  0  0  0  0
    8.2789   -3.4613  -17.9271 C   0  0  0  0  0  0  0  0  0  0  0  0
    4.7451   -4.2814  -17.2261 C   0  0  0  0  0  0  0  0  0  0  0  0
    6.7987   -3.2058  -18.3072 C   0  0  0  0  0  0  0  0  0  0  0  0
    4.7067    4.8818  -18.0978 C   0  0  0  0  0  0  0  0  0  0  0  0
    4.9685    2.8532  -19.5277 C   0  0  1  0  0  0  0  0  0  0  0  0
    3.9922    3.9437  -19.0710 C   0  0  2  0  0  0  0  0  0  0  0  0
    9.9353   -0.3796  -13.1251 N   0  0  0  0  0  0  0  0  0  0  0  0
    5.3692    2.0177  -18.3873 N   0  0  0  0  0  0  0  0  0  0  0  0
    5.8471   -3.2795  -17.1643 N   0  0  0  0  0  0  0  0  0  0  0  0
    3.8152    6.0039  -17.7593 N   0  3  0  0  0  0  0  0  0  0  0  0
    9.6448    1.7952  -13.6056 O   0  0  0  0  0  0  0  0  0  0  0  0
    7.3743    3.0250  -18.0167 O   0  0  0  0  0  0  0  0  0  0  0  0
    5.6813   -2.9886  -14.9047 O   0  0  0  0  0  0  0  0  0  0  0  0
    3.5571    4.7017  -20.2003 O   0  0  0  0  0  0  0  0  0  0  0  0
    6.1711    9.3312  -21.1337 O   0  0  0  0  0  0  0  0  0  0  0  0
    7.7015   -2.1356  -21.7967 H   0  0  0  0  0  0  0  0  0  0  0  0
    8.4831    0.2191  -21.9886 H   0  0  0  0  0  0  0  0  0  0  0  0
    5.3625   -2.6188  -21.0985 H   0  0  0  0  0  0  0  0  0  0  0  0
    8.9392    8.2997  -17.6694 H   0  0  0  0  0  0  0  0  0  0  0  0
    6.9290    2.0898  -21.4717 H   0  0  0  0  0  0  0  0  0  0  0  0
    3.8261   -0.7528  -20.5139 H   0  0  0  0  0  0  0  0  0  0  0  0
    7.1008    7.3159  -16.3157 H   0  0  0  0  0  0  0  0  0  0  0  0
    8.4684    9.2259  -19.9229 H   0  0  0  0  0  0  0  0  0  0  0  0
    8.4303    2.2887  -15.7922 H   0  0  0  0  0  0  0  0  0  0  0  0
    8.0184   -1.7198  -14.2642 H   0  0  0  0  0  0  0  0  0  0  0  0
    5.6753   -0.4540  -17.6526 H   0  0  0  0  0  0  0  0  0  0  0  0
    4.2970    8.2176  -19.4676 H   0  0  0  0  0  0  0  0  0  0  0  0
    2.4124   -2.7026  -19.3217 H   0  0  0  0  0  0  0  0  0  0  0  0
    2.4196   -2.7480  -17.5261 H   0  0  0  0  0  0  0  0  0  0  0  0
    3.7594   -1.9411  -18.4095 H   0  0  0  0  0  0  0  0  0  0  0  0
    9.5437   -4.8971  -16.9052 H   0  0  0  0  0  0  0  0  0  0  0  0
    7.8937   -4.7345  -16.2142 H   0  0  0  0  0  0  0  0  0  0  0  0
    8.1376   -5.6189  -17.7586 H   0  0  0  0  0  0  0  0  0  0  0  0
    4.8552    9.6970  -22.7160 H   0  0  0  0  0  0  0  0  0  0  0  0
    4.5743    8.1683  -21.8156 H   0  0  0  0  0  0  0  0  0  0  0  0
    4.1229    9.7420  -21.0764 H   0  0  0  0  0  0  0  0  0  0  0  0
    4.1225    2.5204  -21.4978 H   0  0  0  0  0  0  0  0  0  0  0  0
    3.3947    1.5179  -20.1970 H   0  0  0  0  0  0  0  0  0  0  0  0
    4.9095    6.6338  -16.0705 H   0  0  0  0  0  0  0  0  0  0  0  0
    3.7424    7.8360  -16.7179 H   0  0  0  0  0  0  0  0  0  0  0  0
    3.1034   -4.9378  -18.4892 H   0  0  0  0  0  0  0  0  0  0  0  0
    4.4432   -4.1309  -19.3726 H   0  0  0  0  0  0  0  0  0  0  0  0
    8.6313   -2.6248  -17.3058 H   0  0  0  0  0  0  0  0  0  0  0  0
    8.8752   -3.5092  -18.8502 H   0  0  0  0  0  0  0  0  0  0  0  0
    4.1321   -4.1824  -16.3182 H   0  0  0  0  0  0  0  0  0  0  0  0
    5.1894   -5.2871  -17.2608 H   0  0  0  0  0  0  0  0  0  0  0  0
    6.7261   -2.2018  -18.7508 H   0  0  0  0  0  0  0  0  0  0  0  0
    6.5003   -3.9582  -19.0521 H   0  0  0  0  0  0  0  0  0  0  0  0
    4.9683    4.3313  -17.1821 H   0  0  0  0  0  0  0  0  0  0  0  0
    5.6231    5.2693  -18.5670 H   0  0  0  0  0  0  0  0  0  0  0  0
    5.8569    3.3337  -19.9634 H   0  0  0  0  0  0  0  0  0  0  0  0
    3.1364    3.4752  -18.5630 H   0  0  0  0  0  0  0  0  0  0  0  0
   10.6028   -0.1584  -12.4141 H   0  0  0  0  0  0  0  0  0  0  0  0
    9.6995   -1.3336  -13.3102 H   0  0  0  0  0  0  0  0  0  0  0  0
    4.7082    1.3570  -18.0315 H   0  0  0  0  0  0  0  0  0  0  0  0
    3.0511    5.6502  -17.2198 H   0  0  0  0  0  0  0  0  0  0  0  0
    3.4679    6.4004  -18.6091 H   0  0  0  0  0  0  0  0  0  0  0  0
    3.1109    4.1295  -20.8134 H   0  0  0  0  0  0  0  0  0  0  0  0
  1  2  1  0  0  0  0
  1  3  2  0  0  0  0
  2  5  2  0  0  0  0
  3  6  1  0  0  0  0
  4  7  2  0  0  0  0
  4  8  1  0  0  0  0
  5 16  1  0  0  0  0
  6 16  2  0  0  0  0
  7 17  1  0  0  0  0
  8 18  2  0  0  0  0
  9 13  1  0  0  0  0
  9 14  2  0  0  0  0
 10 13  2  0  0  0  0
 10 15  1  0  0  0  0
 11 14  1  0  0  0  0
 11 15  2  0  0  0  0
 12 17  2  0  0  0  0
 12 18  1  0  0  0  0
 13 19  1  0  0  0  0
 14 20  1  0  0  0  0
 15 21  1  0  0  0  0
 16 25  1  0  0  0  0
 17 26  1  0  0  0  0
 18 42  1  0  0  0  0
 19 34  1  0  0  0  0
 19 38  2  0  0  0  0
 20 35  1  0  0  0  0
 20 39  2  0  0  0  0
 21 36  1  0  0  0  0
 21 40  2  0  0  0  0
 22 27  1  0  0  0  0
 23 28  1  0  0  0  0
 24 42  1  0  0  0  0
 25 32  1  0  0  0  0
 26 37  1  0  0  0  0
 27 29  1  0  0  0  0
 28 30  1  0  0  0  0
 29 36  1  0  0  0  0
 30 36  1  0  0  0  0
 31 33  1  0  0  0  0
 31 37  1  0  0  0  0
 32 33  1  0  0  0  0
 32 35  1  0  0  0  0
 33 41  1  0  0  0  0
  1 43  1  0  0  0  0
  2 44  1  0  0  0  0
  3 45  1  0  0  0  0
  4 46  1  0  0  0  0
  5 47  1  0  0  0  0
  6 48  1  0  0  0  0
  7 49  1  0  0  0  0
  8 50  1  0  0  0  0
  9 51  1  0  0  0  0
 10 52  1  0  0  0  0
 11 53  1  0  0  0  0
 12 54  1  0  0  0  0
 22 55  1  0  0  0  0
 22 56  1  0  0  0  0
 22 57  1  0  0  0  0
 23 58  1  0  0  0  0
 23 59  1  0  0  0  0
 23 60  1  0  0  0  0
 24 61  1  0  0  0  0
 24 62  1  0  0  0  0
 24 63  1  0  0  0  0
 25 64  1  0  0  0  0
 25 65  1  0  0  0  0
 26 66  1  0  0  0  0
 26 67  1  0  0  0  0
 27 68  1  0  0  0  0
 27 69  1  0  0  0  0
 28 70  1  0  0  0  0
 28 71  1  0  0  0  0
 29 72  1  0  0  0  0
 29 73  1  0  0  0  0
 30 74  1  0  0  0  0
 30 75  1  0  0  0  0
 31 76  1  0  0  0  0
 31 77  1  0  0  0  0
 32 78  1  0  0  0  0
 33 79  1  0  0  0  0
 34 80  1  0  0  0  0
 34 81  1  0  0  0  0
 35 82  1  0  0  0  0
 37 83  1  0  0  0  0
 37 84  1  0  0  0  0
 41 85  1  0  0  0  0
M  CHG  1  37   1
M  END
> <OMEGA_C>
H+XgQAdYqb/8iqzBMhPvQACcHjyiZq3BX5m2QARpzL/zS6nBJ9v9QNRuBEE3fZDB2APTQOariD/4
/KrBOq2aQDRfCr+Xt6bB0JjcQLsV90AfXIrB3Dv1QHjeDEF3tprBxRH/QJL6pz85ZX3B/LX3QOgC
db/SoG/B5DjNQErXd77VJIfBYM+pQFmyA0GOrJjBeHoFQYu0pD5re27BBTHgQEEVhT+2nIbB1fnY
QC9an7+Oj3/Bl82oQLaiSz8wiafBR6WyQIA49kAic47BIVbLQLWcDEFS7Z7Bd2gVQaxTIj/Ko13B
BpfTQCj8BUD1NY7BQLrCQGNwI8A8pn/B2B5DQHjzMcAjbJPBjKQHQTatmMBcKonBYUGbQPenE0H7
w63BxKyKQB989z/Ou6TBhV2PQFkZ4kB95IfBFLt0QHFsg8D8tZPBP3YEQWOGXcC8ao/B3teXQG4B
icAkz4nBTo/ZQPorTcAgdZLBhJ2WQM83nEBXyJDBAv6eQD6aNkCoOJzBt39/QBdmfEB8kZjB0vYe
QWpXwr5VAFLBGNCrQIciAUBJGZPB0hu7QIvjUcBnUInBAyx0QDEgwEAkE47BKlEaQWnI5T+FsFnB
qfrrQKaZQUA2IpDBYs21QGpFP8DWeW7BvKdjQFZ0lkAfmqHBrHnFQKNMFUHFEanBx3L2QA6uCMC3
X67B97oHQRNnYD6p6K/BcpmrQKWaJ8CsyajBAgcPQY3LBEECW43BX7rdQPq/BUAOxqvBR950QMi0
QL9hHKTBrTnjQM0b6kB8hoLBs34HQWadE0EUYp/BX+IGQcl6EkDwrHzBOksAQUgh3L8lOmTBOpy1
QMl26L6AOI3B84CJQCV7A0G3vZvBjGUaQL33LMDVkprB5doaQD3fL8BkNYzBI5pwQIV0+L+pRpPB
0LIYQdi0nMDkPYfB0Jj8QCKBl8DFtoHBcDMCQb3Ns8CoEY7BjV2bQMYmG0FEurXBfmCSQGWxAkFI
hq7B1e6DQEzfG0F1nKjBduuDQOZNIUB1+6vBz0JZQCtKwj98k6HBWxqdQLpH1EBXkIDBxINvQLzA
+kBXvoXBrZ5GQIQCnsDm6ZPB9S6OQAcwhMAq+5rB4xkKQdn8J8BQcorB6wAOQRCWYMAyzZbBBDqE
QFXWhcCgi4LBKg+mQCwwqcAFForBeTzXQL7qDMCLAZbBYwLQQFRTfcCaapjB+vueQBCaikDydInB
NPCzQD+eqEBGiZTB3mu7QJtaVUAFtZ/B0rpIQKhpXkDzgJTBH6UpQYwrIr5OoEbBGDEbQUezqr9i
9lTBw6mWQGKyrT+MQJDBJEVDQKXOtEBAwonBrvFdQFrQzECI35TBVBlHQMskhEDqgabB

> <OMEGA_E>
gMqoPQ==

> <OMEGA_NBR>
      3480

$$$$
50141632
  -OEChem-04172616093D

 86 88  0     1  0  0  0  0  0999 V2000
    7.9789    8.2227  -18.1685 C   0  0  0  0  0  0  0  0  0  0  0  0
    6.9332    7.7182  -17.3767 C   0  0  0  0  0  0  0  0  0  0  0  0
    6.5301    1.1350  -21.3774 C   0  0  0  0  0  0  0  0  0  0  0  0
    4.8063   -0.4899  -20.7713 C   0  0  0  0  0  0  0  0  0  0  0  0
    7.7141    8.6991  -19.4669 C   0  0  0  0  0  0  0  0  0  0  0  0
    7.4195    0.0871  -21.6651 C   0  0  0  0  0  0  0  0  0  0  0  0
    5.6936   -1.5381  -21.0713 C   0  0  0  0  0  0  0  0  0  0  0  0
    7.9545    1.3050  -15.7868 C   0  0  0  0  0  0  0  0  0  0  0  0
    7.6780   -0.9539  -14.9062 C   0  0  0  0  0  0  0  0  0  0  0  0
    6.3605   -0.2217  -16.8239 C   0  0  0  0  0  0  0  0  0  0  0  0
    5.3497    8.1675  -19.1846 C   0  0  0  0  0  0  0  0  0  0  0  0
    8.3057    0.3133  -14.8462 C   0  0  0  0  0  0  0  0  0  0  0  0
    6.9813    1.0452  -16.7723 C   0  0  0  0  0  0  0  0  0  0  0  0
    6.7001   -1.2212  -15.8906 C   0  0  0  0  0  0  0  0  0  0  0  0
    5.2265    0.8481  -20.9136 C   0  0  0  0  0  0  0  0  0  0  0  0
    5.6206    7.6889  -17.8825 C   0  0  0  0  0  0  0  0  0  0  0  0
    7.0027   -1.2486  -21.5063 C   0  0  0  0  0  0  0  0  0  0  0  0
    6.4037    8.6777  -19.9906 C   0  0  0  0  0  0  0  0  0  0  0  0
    9.2961    0.6189  -13.7876 C   0  0  0  0  0  0  0  0  0  0  0  0
    6.5996    2.0956  -17.7314 C   0  0  0  0  0  0  0  0  0  0  0  0
    5.9578   -2.5024  -15.8931 C   0  0  0  0  0  0  0  0  0  0  0  0
    2.9109   -2.8426  -18.5130 C   0  0  0  0  0  0  0  0  0  0  0  0
    9.1218   -4.2705  -17.9873 C   0  0  0  0  0  0  0  0  0  0  0  0
    4.8864    9.1385  -21.8267 C   0  0  0  0  0  0  0  0  0  0  0  0
    4.2915    1.9755  -20.5418 C   0  0  0  0  0  0  0  0  0  0  0  0
    4.5114    7.1269  -17.0232 C   0  0  0  0  0  0  0  0  0  0  0  0
    3.7358   -4.1356  -18.4236 C   0  0  0  0  0  0  0  0  0  0  0  0
    7.6886   -4.4766  -17.5062 C   0  0  0  0  0  0  0  0  0  0  0  0
    4.5628   -4.1764  -17.1192 C   0  0  0  0  0  0  0  0  0  0  0  0
    6.7757   -3.3486  -18.0392 C   0  0  0  0  0  0  0  0  0  0  0  0
    4.7009    4.8944  -18.0379 C   0  0  0  0  0  0  0  0  0  0  0  0
    4.9468    2.8747  -19.4734 C   0  0  1  0  0  0  0  0  0  0  0  0
    3.9789    3.9644  -19.0090 C   0  0  2  0  0  0  0  0  0  0  0  0
    9.9249   -0.4002  -13.0952 N   0  0  0  0  0  0  0  0  0  0  0  0
    5.3525    2.0298  -18.3396 N   0  0  0  0  0  0  0  0  0  0  0  0
    5.6542   -3.1654  -17.0956 N   0  0  0  0  0  0  0  0  0  0  0  0
    3.8226    6.0336  -17.7249 N   0  3  0  0  0  0  0  0  0  0  0  0
    9.5634    1.7802  -13.4993 O   0  0  0  0  0  0  0  0  0  0  0  0
    7.3771    3.0099  -17.9871 O   0  0  0  0  0  0  0  0  0  0  0  0
    5.6179   -2.9859  -14.8186 O   0  0  0  0  0  0  0  0  0  0  0  0
    7.8661   -2.2600  -21.7718 O   0  0  0  0  0  0  0  0  0  0  0  0
    3.5452    4.7269  -20.1365 O   0  0  0  0  0  0  0  0  0  0  0  0
    6.2267    9.1648  -21.2815 O   0  0  0  0  0  0  0  0  0  0  0  0
    8.9867    8.2450  -17.7809 H   0  0  0  0  0  0  0  0  0  0  0  0
    7.1370    7.3532  -16.3808 H   0  0  0  0  0  0  0  0  0  0  0  0
    6.8424    2.1602  -21.5105 H   0  0  0  0  0  0  0  0  0  0  0  0
    3.8045   -0.7092  -20.4325 H   0  0  0  0  0  0  0  0  0  0  0  0
    8.5232    9.0855  -20.0690 H   0  0  0  0  0  0  0  0  0  0  0  0
    8.4205    0.3050  -22.0072 H   0  0  0  0  0  0  0  0  0  0  0  0
    5.3726   -2.5642  -20.9685 H   0  0  0  0  0  0  0  0  0  0  0  0
    8.4356    2.2713  -15.7509 H   0  0  0  0  0  0  0  0  0  0  0  0
    7.9480   -1.7210  -14.1955 H   0  0  0  0  0  0  0  0  0  0  0  0
    5.6206   -0.4261  -17.5836 H   0  0  0  0  0  0  0  0  0  0  0  0
    4.3402    8.1456  -19.5678 H   0  0  0  0  0  0  0  0  0  0  0  0
    2.3331   -2.8396  -19.4490 H   0  0  0  0  0  0  0  0  0  0  0  0
    2.2223   -2.7871  -17.6570 H   0  0  0  0  0  0  0  0  0  0  0  0
    3.5867   -1.9748  -18.4967 H   0  0  0  0  0  0  0  0  0  0  0  0
    9.7588   -5.0797  -17.6008 H   0  0  0  0  0  0  0  0  0  0  0  0
    9.1442   -4.2799  -19.0871 H   0  0  0  0  0  0  0  0  0  0  0  0
    9.4957   -3.3030  -17.6212 H   0  0  0  0  0  0  0  0  0  0  0  0
    4.8965    9.5508  -22.8464 H   0  0  0  0  0  0  0  0  0  0  0  0
    4.5223    8.1009  -21.8544 H   0  0  0  0  0  0  0  0  0  0  0  0
    4.2211    9.7437  -21.1932 H   0  0  0  0  0  0  0  0  0  0  0  0
    4.0705    2.5755  -21.4369 H   0  0  0  0  0  0  0  0  0  0  0  0
    3.3567    1.5563  -20.1414 H   0  0  0  0  0  0  0  0  0  0  0  0
    4.9388    6.7430  -16.0852 H   0  0  0  0  0  0  0  0  0  0  0  0
    3.7885    7.9246  -16.7972 H   0  0  0  0  0  0  0  0  0  0  0  0
    3.0544   -4.9990  -18.4445 H   0  0  0  0  0  0  0  0  0  0  0  0
    4.4189   -4.1866  -19.2842 H   0  0  0  0  0  0  0  0  0  0  0  0
    7.3189   -5.4459  -17.8722 H   0  0  0  0  0  0  0  0  0  0  0  0
    7.6704   -4.4689  -16.4064 H   0  0  0  0  0  0  0  0  0  0  0  0
    3.8896   -3.9865  -16.2702 H   0  0  0  0  0  0  0  0  0  0  0  0
    5.0085   -5.1769  -17.0169 H   0  0  0  0  0  0  0  0  0  0  0  0
    7.3497   -2.4136  -18.1186 H   0  0  0  0  0  0  0  0  0  0  0  0
    6.3854   -3.6245  -19.0299 H   0  0  0  0  0  0  0  0  0  0  0  0
    4.9410    4.3486  -17.1136 H   0  0  0  0  0  0  0  0  0  0  0  0
    5.6299    5.2606  -18.4993 H   0  0  0  0  0  0  0  0  0  0  0  0
    5.8345    3.3529  -19.9129 H   0  0  0  0  0  0  0  0  0  0  0  0
    3.1222    3.4984  -18.5001 H   0  0  0  0  0  0  0  0  0  0  0  0
   10.5834   -0.1830  -12.3747 H   0  0  0  0  0  0  0  0  0  0  0  0
    9.7208   -1.3542  -13.3150 H   0  0  0  0  0  0  0  0  0  0  0  0
    4.6911    1.3686  -17.9856 H   0  0  0  0  0  0  0  0  0  0  0  0
    3.0747    5.7076  -17.1468 H   0  0  0  0  0  0  0  0  0  0  0  0
    3.4504    6.3915  -18.5812 H   0  0  0  0  0  0  0  0  0  0  0  0
    7.4361   -3.0929  -21.6172 H   0  0  0  0  0  0  0  0  0  0  0  0
    3.0936    4.1584  -20.7492 H   0  0  0  0  0  0  0  0  0  0  0  0
  1  2  2  0  0  0  0
  1  5  1  0  0  0  0
  2 16  1  0  0  0  0
  3  6  2  0  0  0  0
  3 15  1  0  0  0  0
  4  7  1  0  0  0  0
  4 15  2  0  0  0  0
  5 18  2  0  0  0  0
  6 17  1  0  0  0  0
  7 17  2  0  0  0  0
  8 12  1  0  0  0  0
  8 13  2  0  0  0  0
  9 12  2  0  0  0  0
  9 14  1  0  0  0  0
 10 13  1  0  0  0  0
 10 14  2  0  0  0  0
 11 16  2  0  0  0  0
 11 18  1  0  0  0  0
 12 19  1  0  0  0  0
 13 20  1  0  0  0  0
 14 21  1  0  0  0  0
 15 25  1  0  0  0  0
 16 26  1  0  0  0  0
 17 41  1  0  0  0  0
 18 43  1  0  0  0  0
 19 34  1  0  0  0  0
 19 38  2  0  0  0  0
 20 35  1  0  0  0  0
 20 39  2  0  0  0  0
 21 36  1  0  0  0  0
 21 40  2  0  0  0  0
 22 27  1  0  0  0  0
 23 28  1  0  0  0  0
 24 43  1  0  0  0  0
 25 32  1  0  0  0  0
 26 37  1  0  0  0  0
 27 29  1  0  0  0  0
 28 30  1  0  0  0  0
 29 36  1  0  0  0  0
 30 36  1  0  0  0  0
 31 33  1  0  0  0  0
 31 37  1  0  0  0  0
 32 33  1  0  0  0  0
 32 35  1  0  0  0  0
 33 42  1  0  0  0  0
  1 44  1  0  0  0  0
  2 45  1  0  0  0  0
  3 46  1  0  0  0  0
  4 47  1  0  0  0  0
  5 48  1  0  0  0  0
  6 49  1  0  0  0  0
  7 50  1  0  0  0  0
  8 51  1  0  0  0  0
  9 52  1  0  0  0  0
 10 53  1  0  0  0  0
 11 54  1  0  0  0  0
 22 55  1  0  0  0  0
 22 56  1  0  0  0  0
 22 57  1  0  0  0  0
 23 58  1  0  0  0  0
 23 59  1  0  0  0  0
 23 60  1  0  0  0  0
 24 61  1  0  0  0  0
 24 62  1  0  0  0  0
 24 63  1  0  0  0  0
 25 64  1  0  0  0  0
 25 65  1  0  0  0  0
 26 66  1  0  0  0  0
 26 67  1  0  0  0  0
 27 68  1  0  0  0  0
 27 69  1  0  0  0  0
 28 70  1  0  0  0  0
 28 71  1  0  0  0  0
 29 72  1  0  0  0  0
 29 73  1  0  0  0  0
 30 74  1  0  0  0  0
 30 75  1  0  0  0  0
 31 76  1  0  0  0  0
 31 77  1  0  0  0  0
 32 78  1  0  0  0  0
 33 79  1  0  0  0  0
 34 80  1  0  0  0  0
 34 81  1  0  0  0  0
 35 82  1  0  0  0  0
 37 83  1  0  0  0  0
 37 84  1  0  0  0  0
 41 85  1  0  0  0  0
 42 86  1  0  0  0  0
M  CHG  1  37   1
M  END
> <OMEGA_C>
O1P/QCaQA0EoWZHB49zdQDr79kBnA4vBwfbQQMxGkT/XBKvBIc2ZQCfO+r6tK6bBj9n2QKUvC0Eu
vJvBsmztQOx4sj0XUq3BGzK2QK7gxL/0kajBLYv+QIAKpz+RlnzBQrL1QNwzdL/Mf27BT4nLQHIN
Y75ol4bBqzCrQESuAkEBepnBH+QEQcNmoD41im3B+WbfQH/IhT+7LYbBh2fWQFlRnL/8P37BXD+n
QDgfWT8NT6fBAtyzQNcL9kBOD4/B1hXgQJzQn7/dDKzBB+vMQNzXCkHM7J/B/7wUQQpwHj8cmlzB
QjDTQFgeBkDm2Y3BUqa+QEcnIMAOSn7B3Us6QKDsNcCVGpTBvvIRQeqniMAL5o/BCF2cQDU3EkH8
nK7B2FOJQNvd/D+dVaTBJV2QQLAP5EB8L4jBnhZvQARXhMBxY5PBxwj2QLdAj8C8DIzBsQKSQGul
hcAF9IjBftLYQKZOVsAyUJDB+22WQDifnECkTZDB70ueQLz6N0B5yZvB16V+QA+5fUBxEpjBOswe
Qe/ozL7PhVHBykerQAfoAUCCt5LB1u60QHuWSsDIw4jBRaZ0QCsTwUCJzI3BpQMZQeLc4z9K/VfB
XRHsQPuhQECe5Y/BcsWzQFIZP8DPGG3BNbf7QLGjEMCxLK7BTuRiQB1Dl0ChF6HBH0HHQASjEkGR
QKrBeskPQZfrA0E4P47BGGLkQKpN60DrC4PBSPXaQPlACkCRFazBpX1zQEePNb/RdaPB3V4IQR9e
EUE4jaDBN7oGQZwpnD7BDrDBueyrQHIbJMB6v6fBJvgGQYJcEUDQA3zBFFb+QD5I3L+aIGPBq9uz
QNcr2r45q4zB4eKKQHVUAkHJipzBD1EVQFe8NcCMl5vBszkOQJdgMsB7QY3BgIxlQJnG/L81+ZPB
HiQcQaeMosBwzozBf04SQQH1iMBLspjBYu4XQYljU8BJ+IzBfbCcQPDPGEF1xbbBcLaQQBadAUHc
1a7BThOHQAbmG0HGi6nBI0GCQMbUJEDCfqvBp9NWQMQzxz+IIaHBpQqeQGzG10BproDB+nVyQIOW
/UDCYIbB5ntDQIv3n8BgjpPBWWeNQOb4hcAaRprBazTqQI5ErsBO+o7BMnT1QFEBj8BMQIPBGu94
QJAif8BtKYLBwkWgQC2ppcC0IojB4jDrQO93GsDi8pDBzVTMQBr3Z8AsPZjBUxyeQG0ni0CX6IjB
iCi0QIlWqECK/pPBaLS6QHWWVkCWTZ/BuNJHQFXmX0AcAJTBz1UpQURqO768/kXBX4gbQR9Vrb9r
ClXBQR2WQEcurz994o/BFcdEQEuktkCVLInB1tNcQO6GzEBjppTBqPTtQIHxRcDv76zBS/5FQDoR
hUBN/qXB

> <OMEGA_E>
iLuIPg==

> <OMEGA_NBR>
      5193

$$$$
50141643
  -OEChem-04172616093D

 85 87  0     1  0  0  0  0  0999 V2000
    7.9572    8.2053  -18.0921 C   0  0  0  0  0  0  0  0  0  0  0  0
    6.9139    7.6739  -17.3141 C   0  0  0  0  0  0  0  0  0  0  0  0
    7.6888    8.7210  -19.3748 C   0  0  0  0  0  0  0  0  0  0  0  0
    7.9616    1.3163  -15.8059 C   0  0  0  0  0  0  0  0  0  0  0  0
    7.7197   -0.9509  -14.9368 C   0  0  0  0  0  0  0  0  0  0  0  0
    6.3605   -0.2147  -16.8222 C   0  0  0  0  0  0  0  0  0  0  0  0
    5.3244    8.1875  -19.0997 C   0  0  0  0  0  0  0  0  0  0  0  0
    6.5244    1.0527  -21.3609 C   0  0  0  0  0  0  0  0  0  0  0  0
    4.7161   -0.5320  -20.9371 C   0  0  0  0  0  0  0  0  0  0  0  0
    6.8940   -1.3322  -21.6952 C   0  0  0  0  0  0  0  0  0  0  0  0
    8.3305    0.3219  -14.8739 C   0  0  0  0  0  0  0  0  0  0  0  0
    6.9768    1.0546  -16.7801 C   0  0  0  0  0  0  0  0  0  0  0  0
    6.7387   -1.2232  -15.9115 C   0  0  0  0  0  0  0  0  0  0  0  0
    5.5990    7.6637  -17.8160 C   0  0  0  0  0  0  0  0  0  0  0  0
    5.1979    0.7927  -20.9487 C   0  0  0  0  0  0  0  0  0  0  0  0
    6.3772    8.7151  -19.8955 C   0  0  0  0  0  0  0  0  0  0  0  0
    7.3751   -0.0088  -21.7140 C   0  0  0  0  0  0  0  0  0  0  0  0
    5.5575   -1.5895  -21.3299 C   0  0  0  0  0  0  0  0  0  0  0  0
    9.3424    0.6162  -13.8353 C   0  0  0  0  0  0  0  0  0  0  0  0
    6.5878    2.0992  -17.7450 C   0  0  0  0  0  0  0  0  0  0  0  0
    6.0576   -2.5344  -15.9370 C   0  0  0  0  0  0  0  0  0  0  0  0
    3.0076   -2.8591  -18.5452 C   0  0  0  0  0  0  0  0  0  0  0  0
    8.5095   -4.4724  -17.1054 C   0  0  0  0  0  0  0  0  0  0  0  0
    4.8614    9.2038  -21.7262 C   0  0  0  0  0  0  0  0  0  0  0  0
    4.2789    1.9349  -20.5622 C   0  0  0  0  0  0  0  0  0  0  0  0
    4.4903    7.0671  -16.9794 C   0  0  0  0  0  0  0  0  0  0  0  0
    3.7953   -4.1773  -18.4410 C   0  0  0  0  0  0  0  0  0  0  0  0
    7.6281   -4.3328  -18.3583 C   0  0  0  0  0  0  0  0  0  0  0  0
    4.6786   -4.2175  -17.1729 C   0  0  0  0  0  0  0  0  0  0  0  0
    6.7065   -3.0988  -18.2811 C   0  0  0  0  0  0  0  0  0  0  0  0
    4.6788    4.8550  -18.0412 C   0  0  0  0  0  0  0  0  0  0  0  0
    4.9441    2.8470  -19.5092 C   0  0  1  0  0  0  0  0  0  0  0  0
    3.9795    3.9489  -19.0543 C   0  0  2  0  0  0  0  0  0  0  0  0
    9.9810   -0.4126  -13.1661 N   0  0  0  0  0  0  0  0  0  0  0  0
    5.3516    2.0088  -18.3723 N   0  0  0  0  0  0  0  0  0  0  0  0
    5.7396   -3.1696  -17.1501 N   0  0  0  0  0  0  0  0  0  0  0  0
    3.8063    5.9997  -17.7274 N   0  3  0  0  0  0  0  0  0  0  0  0
    9.6313    1.7737  -13.5540 O   0  0  0  0  0  0  0  0  0  0  0  0
    7.3499    3.0294  -17.9900 O   0  0  0  0  0  0  0  0  0  0  0  0
    5.7048   -3.0257  -14.8697 O   0  0  0  0  0  0  0  0  0  0  0  0
    3.5981    4.7369  -20.1834 O   0  0  0  0  0  0  0  0  0  0  0  0
    6.1996    9.2289  -21.1758 O   0  0  0  0  0  0  0  0  0  0  0  0
    8.6480    0.2475  -22.0904 F   0  0  0  0  0  0  0  0  0  0  0  0
    5.0779   -2.8525  -21.3711 F   0  0  0  0  0  0  0  0  0  0  0  0
    8.9656    8.2181  -17.7057 H   0  0  0  0  0  0  0  0  0  0  0  0
    7.1211    7.2740  -16.3325 H   0  0  0  0  0  0  0  0  0  0  0  0
    8.4963    9.1257  -19.9669 H   0  0  0  0  0  0  0  0  0  0  0  0
    8.4377    2.2851  -15.7721 H   0  0  0  0  0  0  0  0  0  0  0  0
    8.0063   -1.7193  -14.2341 H   0  0  0  0  0  0  0  0  0  0  0  0
    5.5943   -0.4149  -17.5565 H   0  0  0  0  0  0  0  0  0  0  0  0
    4.3124    8.1868  -19.4767 H   0  0  0  0  0  0  0  0  0  0  0  0
    6.8852    2.0697  -21.4047 H   0  0  0  0  0  0  0  0  0  0  0  0
    3.7017   -0.7353  -20.6270 H   0  0  0  0  0  0  0  0  0  0  0  0
    7.5486   -2.1491  -21.9605 H   0  0  0  0  0  0  0  0  0  0  0  0
    2.3934   -2.8695  -19.4577 H   0  0  0  0  0  0  0  0  0  0  0  0
    2.3557   -2.7511  -17.6658 H   0  0  0  0  0  0  0  0  0  0  0  0
    3.7108   -2.0142  -18.5863 H   0  0  0  0  0  0  0  0  0  0  0  0
    9.1483   -5.3625  -17.2033 H   0  0  0  0  0  0  0  0  0  0  0  0
    9.1409   -3.5779  -16.9999 H   0  0  0  0  0  0  0  0  0  0  0  0
    7.8695   -4.5765  -16.2168 H   0  0  0  0  0  0  0  0  0  0  0  0
    4.8717    9.6386  -22.7365 H   0  0  0  0  0  0  0  0  0  0  0  0
    4.5059    8.1641  -21.7782 H   0  0  0  0  0  0  0  0  0  0  0  0
    4.1891    9.7894  -21.0819 H   0  0  0  0  0  0  0  0  0  0  0  0
    4.0472    2.5293  -21.4583 H   0  0  0  0  0  0  0  0  0  0  0  0
    3.3483    1.5226  -20.1449 H   0  0  0  0  0  0  0  0  0  0  0  0
    4.9173    6.6477  -16.0565 H   0  0  0  0  0  0  0  0  0  0  0  0
    3.7650    7.8535  -16.7235 H   0  0  0  0  0  0  0  0  0  0  0  0
    3.0840   -5.0157  -18.4066 H   0  0  0  0  0  0  0  0  0  0  0  0
    4.4391   -4.2788  -19.3272 H   0  0  0  0  0  0  0  0  0  0  0  0
    8.2778   -4.2362  -19.2407 H   0  0  0  0  0  0  0  0  0  0  0  0
    7.0065   -5.2348  -18.4576 H   0  0  0  0  0  0  0  0  0  0  0  0
    4.0320   -4.0767  -16.2942 H   0  0  0  0  0  0  0  0  0  0  0  0
    5.1628   -5.2036  -17.1176 H   0  0  0  0  0  0  0  0  0  0  0  0
    7.3303   -2.2017  -18.1544 H   0  0  0  0  0  0  0  0  0  0  0  0
    6.1416   -3.0227  -19.2220 H   0  0  0  0  0  0  0  0  0  0  0  0
    4.8851    4.2874  -17.1218 H   0  0  0  0  0  0  0  0  0  0  0  0
    5.6251    5.2202  -18.4668 H   0  0  0  0  0  0  0  0  0  0  0  0
    5.8313    3.3161  -19.9596 H   0  0  0  0  0  0  0  0  0  0  0  0
    3.0979    3.4888  -18.5842 H   0  0  0  0  0  0  0  0  0  0  0  0
   10.6651   -0.2055  -12.4667 H   0  0  0  0  0  0  0  0  0  0  0  0
    9.7586   -1.3634  -13.3818 H   0  0  0  0  0  0  0  0  0  0  0  0
    4.6993    1.3327  -18.0296 H   0  0  0  0  0  0  0  0  0  0  0  0
    3.0371    5.6712  -17.1794 H   0  0  0  0  0  0  0  0  0  0  0  0
    3.4646    6.3826  -18.5857 H   0  0  0  0  0  0  0  0  0  0  0  0
    3.1616    4.1855  -20.8221 H   0  0  0  0  0  0  0  0  0  0  0  0
  1  2  2  0  0  0  0
  1  3  1  0  0  0  0
  2 14  1  0  0  0  0
  3 16  2  0  0  0  0
  4 11  1  0  0  0  0
  4 12  2  0  0  0  0
  5 11  2  0  0  0  0
  5 13  1  0  0  0  0
  6 12  1  0  0  0  0
  6 13  2  0  0  0  0
  7 14  2  0  0  0  0
  7 16  1  0  0  0  0
  8 15  1  0  0  0  0
  8 17  2  0  0  0  0
  9 15  2  0  0  0  0
  9 18  1  0  0  0  0
 10 17  1  0  0  0  0
 10 18  2  0  0  0  0
 11 19  1  0  0  0  0
 12 20  1  0  0  0  0
 13 21  1  0  0  0  0
 14 26  1  0  0  0  0
 15 25  1  0  0  0  0
 16 42  1  0  0  0  0
 17 43  1  0  0  0  0
 18 44  1  0  0  0  0
 19 34  1  0  0  0  0
 19 38  2  0  0  0  0
 20 35  1  0  0  0  0
 20 39  2  0  0  0  0
 21 36  1  0  0  0  0
 21 40  2  0  0  0  0
 22 27  1  0  0  0  0
 23 28  1  0  0  0  0
 24 42  1  0  0  0  0
 25 32  1  0  0  0  0
 26 37  1  0  0  0  0
 27 29  1  0  0  0  0
 28 30  1  0  0  0  0
 29 36  1  0  0  0  0
 30 36  1  0  0  0  0
 31 33  1  0  0  0  0
 31 37  1  0  0  0  0
 32 33  1  0  0  0  0
 32 35  1  0  0  0  0
 33 41  1  0  0  0  0
  1 45  1  0  0  0  0
  2 46  1  0  0  0  0
  3 47  1  0  0  0  0
  4 48  1  0  0  0  0
  5 49  1  0  0  0  0
  6 50  1  0  0  0  0
  7 51  1  0  0  0  0
  8 52  1  0  0  0  0
  9 53  1  0  0  0  0
 10 54  1  0  0  0  0
 22 55  1  0  0  0  0
 22 56  1  0  0  0  0
 22 57  1  0  0  0  0
 23 58  1  0  0  0  0
 23 59  1  0  0  0  0
 23 60  1  0  0  0  0
 24 61  1  0  0  0  0
 24 62  1  0  0  0  0
 24 63  1  0  0  0  0
 25 64  1  0  0  0  0
 25 65  1  0  0  0  0
 26 66  1  0  0  0  0
 26 67  1  0  0  0  0
 27 68  1  0  0  0  0
 27 69  1  0  0  0  0
 28 70  1  0  0  0  0
 28 71  1  0  0  0  0
 29 72  1  0  0  0  0
 29 73  1  0  0  0  0
 30 74  1  0  0  0  0
 30 75  1  0  0  0  0
 31 76  1  0  0  0  0
 31 77  1  0  0  0  0
 32 78  1  0  0  0  0
 33 79  1  0  0  0  0
 34 80  1  0  0  0  0
 34 81  1  0  0  0  0
 35 82  1  0  0  0  0
 37 83  1  0  0  0  0
 37 84  1  0  0  0  0
 41 85  1  0  0  0  0
M  CHG  1  37   1
M  END
> <OMEGA_C>
I6H+QABJA0GovJDBgz7dQKeQ9UBNg4rBrAr2QBCJC0GE/5rBvcX+QCV8qD/V5HzBGgj3QDBuc79B
/W7BEYnLQCXQW77Xk4bBdGGqQOP/AkErzJjBlcfQQJe+hj8o46rB5emWQMQyCL8qf6fBRZvcQJmE
qr+6j63BskkFQTzOpD6S+23BzkHfQDv+hj+oPYbBhKPXQKiQnL+MlX7B1yqzQAU99UA6h47BbFWm
QM3sSj/blqfBXxLMQARxC0HlKZ/BHgHsQFC7D7xbtq3BH9exQFJ0y7+Oo6rBXHoVQRrBHT9OXV3B
E8/SQItZBkCt9Y3Bh9fBQDU0IsDc/X7BzXxAQF77NsCdXJTBziYIQToej8Dq14jBk5CbQNVCE0E0
z63BmeyIQIyp9z90f6TB3bCPQLMl4kDf1YfBqOVyQGGshcBEh5PBnRn0QPOlisDO3ZLBNreVQI31
hsAYYonBbZvWQIVSRsC5P5LBrLiVQP1bm0BuVJDBaDaeQHk0NkDOEpzBfa9+QJK7fEAyb5jBRbIf
QbhD0746qFLBIkCrQNaQAEBh+pLB9qq3QCXaSsBxM4nBlZpzQC39v0DF0Y3B8RkaQYkI4z813VjB
RDLrQF/hQUB364/B0422QL6lQcBs6m3BEUdmQOOUl0CWd6HB5WLGQL6pE0EaaKnBPF4KQUN9fT4S
ubDBNn6iQCSPNsDu96rBHHMPQYp9A0FUpY3BqN/jQHfE6ED8qILBpvAHQb0CEkE8vJ/B/AAHQQc/
EkC5WnzByRkAQb4S3L/rvmPBdwSzQEtr1L7Kc4zBzf6JQBr9AkFg0JvBzlPcQIx1BEDmPKvBmOhs
QGE8PL8SBKXBVI7xQHOLCcAHr6/BWy0ZQLClN8BgqZvBdsQWQJ0SMMCJU43B331tQL7oAMDNsJTB
jV8SQf6Zq8BMoInBA0ESQWn8ZMC1/4fB8NL7QH5yksAQvIHBu+SbQNs3GkFr5LXBfTCQQE+gAkGx
Oa7B1wyGQHKhHEHNp6jBSIKBQMTfIUCiqqvB/EpWQK/lwj/VKKHBP1qdQMq51ECxc4DBzPVwQNBP
+0DUyYXBL2BFQIaAoMDNQJPBzAyOQJfriMARnprB93EEQQ6Ph8Dl7JnB1zTgQFiDp8BAqZPBKgaB
QO5zgsCUWoLBYjWlQEiEpsDR8IjB55HqQI3oDMBBPJHBV4jEQHR0QcCRxpnB0FKcQKkyiUB3+YjB
zQC0QLcLp0APvJPBI5q6QEo6VEA7rZ/BUkNGQARIX0BjrJTBFqQqQTFnUr5td0fBKCMcQQ+Err/c
G1bB9WCWQBKVqj+5PJDBEV9CQJJ6tUBZb4nBy7xdQKs+zEB0r5TBa1dKQJDvhUCRk6bB

> <OMEGA_E>
oLpsPQ==

> <OMEGA_NBR>
      6890

$$$$
50141634
  -OEChem-04172616093D

 87 89  0     1  0  0  0  0  0999 V2000
    7.7016    8.3635  -18.5797 C   0  0  0  0  0  0  0  0  0  0  0  0
    7.1196    8.8200  -19.7840 C   0  0  0  0  0  0  0  0  0  0  0  0
    6.9011    7.7509  -17.5937 C   0  0  0  0  0  0  0  0  0  0  0  0
    7.9771    1.3374  -15.8595 C   0  0  0  0  0  0  0  0  0  0  0  0
    7.7130   -0.9168  -14.9720 C   0  0  0  0  0  0  0  0  0  0  0  0
    6.4139   -0.2155  -16.9111 C   0  0  0  0  0  0  0  0  0  0  0  0
    4.9362    8.0855  -19.0001 C   0  0  0  0  0  0  0  0  0  0  0  0
    6.6335    1.0880  -21.4276 C   0  0  0  0  0  0  0  0  0  0  0  0
    4.8493   -0.5032  -20.9292 C   0  0  0  0  0  0  0  0  0  0  0  0
    7.0568   -1.3053  -21.5964 C   0  0  0  0  0  0  0  0  0  0  0  0
    8.3237    0.3560  -14.9077 C   0  0  0  0  0  0  0  0  0  0  0  0
    7.0226    1.0588  -16.8591 C   0  0  0  0  0  0  0  0  0  0  0  0
    6.7596   -1.2071  -15.9717 C   0  0  0  0  0  0  0  0  0  0  0  0
    5.7249    8.6663  -20.0024 C   0  0  0  0  0  0  0  0  0  0  0  0
    5.5160    7.6093  -17.8123 C   0  0  0  0  0  0  0  0  0  0  0  0
    5.3032    0.8282  -21.0273 C   0  0  0  0  0  0  0  0  0  0  0  0
    7.5110    0.0236  -21.6975 C   0  0  0  0  0  0  0  0  0  0  0  0
    5.7228   -1.5668  -21.2259 C   0  0  0  0  0  0  0  0  0  0  0  0
    9.2987    0.6683  -13.8377 C   0  0  0  0  0  0  0  0  0  0  0  0
    6.6516    2.0969  -17.8338 C   0  0  0  0  0  0  0  0  0  0  0  0
    6.0449   -2.5027  -15.9542 C   0  0  0  0  0  0  0  0  0  0  0  0
    5.9221    9.4954  -22.4279 C   0  0  0  0  0  0  0  0  0  0  0  0
    3.0504   -2.7238  -18.4706 C   0  0  0  0  0  0  0  0  0  0  0  0
    8.3750   -4.7822  -17.1186 C   0  0  0  0  0  0  0  0  0  0  0  0
    5.0008    9.1521  -21.2533 C   0  0  0  0  0  0  0  0  0  0  0  0
    4.3743    1.9768  -20.6788 C   0  0  0  0  0  0  0  0  0  0  0  0
    4.6402    6.8925  -16.8167 C   0  0  0  0  0  0  0  0  0  0  0  0
    3.7330   -4.0999  -18.3826 C   0  0  0  0  0  0  0  0  0  0  0  0
    8.1961   -3.4760  -17.9114 C   0  0  0  0  0  0  0  0  0  0  0  0
    4.6595   -4.2254  -17.1451 C   0  0  0  0  0  0  0  0  0  0  0  0
    6.7168   -3.1993  -18.2814 C   0  0  0  0  0  0  0  0  0  0  0  0
    4.7790    4.7825  -18.0488 C   0  0  0  0  0  0  0  0  0  0  0  0
    5.0194    2.8674  -19.5980 C   0  0  1  0  0  0  0  0  0  0  0  0
    4.0567    3.9530  -19.1070 C   0  0  2  0  0  0  0  0  0  0  0  0
    9.9055   -0.3484  -13.1218 N   0  0  0  0  0  0  0  0  0  0  0  0
    5.4233    2.0068  -18.4754 N   0  0  0  0  0  0  0  0  0  0  0  0
    5.7763   -3.2370  -17.1267 N   0  0  0  0  0  0  0  0  0  0  0  0
    3.8977    5.8325  -17.5256 N   0  3  0  0  0  0  0  0  0  0  0  0
    9.5755    1.8303  -13.5625 O   0  0  0  0  0  0  0  0  0  0  0  0
    7.4172    3.0278  -18.0662 O   0  0  0  0  0  0  0  0  0  0  0  0
    5.6553   -2.9226  -14.8695 O   0  0  0  0  0  0  0  0  0  0  0  0
    3.6893    4.8048  -20.1928 O   0  0  0  0  0  0  0  0  0  0  0  0
    8.7877    0.2801  -22.0604 F   0  0  0  0  0  0  0  0  0  0  0  0
    5.2835   -2.8414  -21.1513 F   0  0  0  0  0  0  0  0  0  0  0  0
    8.7620    8.4840  -18.4142 H   0  0  0  0  0  0  0  0  0  0  0  0
    7.7359    9.2861  -20.5385 H   0  0  0  0  0  0  0  0  0  0  0  0
    7.3463    7.3927  -16.6773 H   0  0  0  0  0  0  0  0  0  0  0  0
    8.4462    2.3095  -15.8223 H   0  0  0  0  0  0  0  0  0  0  0  0
    7.9783   -1.6745  -14.2495 H   0  0  0  0  0  0  0  0  0  0  0  0
    5.6805   -0.4303  -17.6743 H   0  0  0  0  0  0  0  0  0  0  0  0
    3.8688    8.0029  -19.1427 H   0  0  0  0  0  0  0  0  0  0  0  0
    6.9768    2.1072  -21.5264 H   0  0  0  0  0  0  0  0  0  0  0  0
    3.8327   -0.7068  -20.6269 H   0  0  0  0  0  0  0  0  0  0  0  0
    7.7306   -2.1238  -21.8026 H   0  0  0  0  0  0  0  0  0  0  0  0
    5.3175    9.8348  -23.2818 H   0  0  0  0  0  0  0  0  0  0  0  0
    6.6152   10.2954  -22.1285 H   0  0  0  0  0  0  0  0  0  0  0  0
    6.4958    8.6024  -22.7169 H   0  0  0  0  0  0  0  0  0  0  0  0
    2.4077   -2.6891  -19.3627 H   0  0  0  0  0  0  0  0  0  0  0  0
    2.4384   -2.5601  -17.5714 H   0  0  0  0  0  0  0  0  0  0  0  0
    3.8171   -1.9382  -18.5404 H   0  0  0  0  0  0  0  0  0  0  0  0
    9.4400   -4.9266  -16.8844 H   0  0  0  0  0  0  0  0  0  0  0  0
    7.7984   -4.7254  -16.1835 H   0  0  0  0  0  0  0  0  0  0  0  0
    8.0141   -5.6289  -17.7210 H   0  0  0  0  0  0  0  0  0  0  0  0
    4.3093    8.3611  -21.5790 H   0  0  0  0  0  0  0  0  0  0  0  0
    4.4286   10.0541  -20.9906 H   0  0  0  0  0  0  0  0  0  0  0  0
    4.1841    2.5779  -21.5802 H   0  0  0  0  0  0  0  0  0  0  0  0
    3.4236    1.5742  -20.2992 H   0  0  0  0  0  0  0  0  0  0  0  0
    5.2636    6.4454  -16.0283 H   0  0  0  0  0  0  0  0  0  0  0  0
    3.9324    7.6034  -16.3655 H   0  0  0  0  0  0  0  0  0  0  0  0
    2.9558   -4.8760  -18.3216 H   0  0  0  0  0  0  0  0  0  0  0  0
    4.3345   -4.2540  -19.2906 H   0  0  0  0  0  0  0  0  0  0  0  0
    8.5685   -2.6400  -17.3011 H   0  0  0  0  0  0  0  0  0  0  0  0
    8.7841   -3.5436  -18.8385 H   0  0  0  0  0  0  0  0  0  0  0  0
    4.0514   -4.0785  -16.2402 H   0  0  0  0  0  0  0  0  0  0  0  0
    5.0914   -5.2370  -17.1363 H   0  0  0  0  0  0  0  0  0  0  0  0
    6.6579   -2.2015  -18.7407 H   0  0  0  0  0  0  0  0  0  0  0  0
    6.3969   -3.9581  -19.0107 H   0  0  0  0  0  0  0  0  0  0  0  0
    5.0878    4.1250  -17.2228 H   0  0  0  0  0  0  0  0  0  0  0  0
    5.6682    5.2479  -18.4990 H   0  0  0  0  0  0  0  0  0  0  0  0
    5.9084    3.3521  -20.0278 H   0  0  0  0  0  0  0  0  0  0  0  0
    3.1691    3.4806  -18.6608 H   0  0  0  0  0  0  0  0  0  0  0  0
   10.5565   -0.1287  -12.3952 H   0  0  0  0  0  0  0  0  0  0  0  0
    9.6930   -1.3029  -13.3310 H   0  0  0  0  0  0  0  0  0  0  0  0
    4.7750    1.3160  -18.1553 H   0  0  0  0  0  0  0  0  0  0  0  0
    3.2464    5.4174  -16.8903 H   0  0  0  0  0  0  0  0  0  0  0  0
    3.4014    6.2447  -18.2897 H   0  0  0  0  0  0  0  0  0  0  0  0
    3.2388    4.2960  -20.8566 H   0  0  0  0  0  0  0  0  0  0  0  0
  1  2  1  0  0  0  0
  1  3  2  0  0  0  0
  2 14  2  0  0  0  0
  3 15  1  0  0  0  0
  4 11  1  0  0  0  0
  4 12  2  0  0  0  0
  5 11  2  0  0  0  0
  5 13  1  0  0  0  0
  6 12  1  0  0  0  0
  6 13  2  0  0  0  0
  7 14  1  0  0  0  0
  7 15  2  0  0  0  0
  8 16  1  0  0  0  0
  8 17  2  0  0  0  0
  9 16  2  0  0  0  0
  9 18  1  0  0  0  0
 10 17  1  0  0  0  0
 10 18  2  0  0  0  0
 11 19  1  0  0  0  0
 12 20  1  0  0  0  0
 13 21  1  0  0  0  0
 14 25  1  0  0  0  0
 15 27  1  0  0  0  0
 16 26  1  0  0  0  0
 17 43  1  0  0  0  0
 18 44  1  0  0  0  0
 19 35  1  0  0  0  0
 19 39  2  0  0  0  0
 20 36  1  0  0  0  0
 20 40  2  0  0  0  0
 21 37  1  0  0  0  0
 21 41  2  0  0  0  0
 22 25  1  0  0  0  0
 23 28  1  0  0  0  0
 24 29  1  0  0  0  0
 26 33  1  0  0  0  0
 27 38  1  0  0  0  0
 28 30  1  0  0  0  0
 29 31  1  0  0  0  0
 30 37  1  0  0  0  0
 31 37  1  0  0  0  0
 32 34  1  0  0  0  0
 32 38  1  0  0  0  0
 33 34  1  0  0  0  0
 33 36  1  0  0  0  0
 34 42  1  0  0  0  0
  1 45  1  0  0  0  0
  2 46  1  0  0  0  0
  3 47  1  0  0  0  0
  4 48  1  0  0  0  0
  5 49  1  0  0  0  0
  6 50  1  0  0  0  0
  7 51  1  0  0  0  0
  8 52  1  0  0  0  0
  9 53  1  0  0  0  0
 10 54  1  0  0  0  0
 22 55  1  0  0  0  0
 22 56  1  0  0  0  0
 22 57  1  0  0  0  0
 23 58  1  0  0  0  0
 23 59  1  0  0  0  0
 23 60  1  0  0  0  0
 24 61  1  0  0  0  0
 24 62  1  0  0  0  0
 24 63  1  0  0  0  0
 25 64  1  0  0  0  0
 25 65  1  0  0  0  0
 26 66  1  0  0  0  0
 26 67  1  0  0  0  0
 27 68  1  0  0  0  0
 27 69  1  0  0  0  0
 28 70  1  0  0  0  0
 28 71  1  0  0  0  0
 29 72  1  0  0  0  0
 29 73  1  0  0  0  0
 30 74  1  0  0  0  0
 30 75  1  0  0  0  0
 31 76  1  0  0  0  0
 31 77  1  0  0  0  0
 32 78  1  0  0  0  0
 32 79  1  0  0  0  0
 33 80  1  0  0  0  0
 34 81  1  0  0  0  0
 35 82  1  0  0  0  0
 35 83  1  0  0  0  0
 36 84  1  0  0  0  0
 38 85  1  0  0  0  0
 38 86  1  0  0  0  0
 42 87  1  0  0  0  0
M  CHG  1  38   1
M  END
> <OMEGA_C>
onP2QLzQBUE8o5TBGdTjQOgeDUGnRZ7B9NXcQKcH+EDsv4zBMUT/QN0wqz92wH3BEdH2QOS1ar81
jW/Baz7NQJq3XL71SYfBafWdQDleAUFKAJjBd0XUQP1Ciz++a6vBii2bQNLRAL8Zb6fBDNHhQIgU
p79UxazBsC0FQRo/tj4Xhm7BUbngQNGHhz9u34bBkk7YQKaCmr/8i3/BgDK3QPeoCkH2BKDBWYOw
QIB/80CUf47BE7SpQMAEVD/eN6jBxVnwQPAgwTyVlK3B/iC3QByNyL+szqnBg8cUQa4UKz8zZ13B
SNrUQPAzBkCyq47B0G/BQAstIMA0RH/B+IG9QB3tF0FUbLPBRjlDQEVTLsDXw5PB4P8FQe8HmcDq
8ojB2wagQPpuEkHXBqrBJfqLQEQJ/T8ibqXB6HyUQDqP3ECFiIbBOuluQLwyg8CmD5PBCiMDQYB2
XsB2So/BPRqVQJA2h8ARKYnBRfDWQBnBTMBXQJLBb+2YQPkJmUDcY5DBAZ+gQJGDN0CfyJzBjdCB
QBz+fEAg25jB33weQSVesr7r8lHBgYutQI1vAECmzZPBD9e4QDYqT8CSA4nBlHN5QHKjukB4NIzB
azUZQTZH6j8kAFnBbVntQLLGQUCih5DBlvi0QIwLO8CE6W3BrB1sQNPAmUDqiqHBPZoMQcBujz6r
e7DBLRKpQOHYNcDUNanBTDEMQYa+B0FiUJPB5Yz3QAaUFEHwTqTBLBXrQGCR7EAIa4XBxyMHQbPO
E0AdKH3B203/QOlW1r/8/WPBcca1QLJQ3L7nZI3BH5t3QPYLAEEtJJnB9EHfQBPcBkAUNqzBvUp1
QBf0NL/qA6XB42D3QLPrB8Cra67BkiiqQG9bHUEkQbrBYa/TQAC6JEEZB7HBj93PQJWjCUE5vLXB
xxcaQFsaLMDH5prBXw4cQIHYI8AtkozB7Up0QFIV+L/JUpTBNwoXQQmnncA0E4fB44z5QDw2l8Da
d4HBmTkAQREgtMCSxI3BneWJQADHBUHIoazBb7eNQGrdIEGn7KfBMOSFQFD8JEBApKzBDhxbQFd/
yT/XZKLBEG+oQGVAzkDjOYDBaax7QNFO80By7ILBjis9QAMInMCdkpLBDrSKQBchiMA6U5rBkhgJ
QUr2KMCOaIrBuosMQfTJYsBHtZbB4aSBQDiDgsAI7IHB8OyiQI2Vp8AcF4nBzg3VQIHlDMAE7ZXB
S7PMQKlRfcDeFZjBnM+iQJz/g0A1yInBfWG1QO7up0AB/pPBhxG9QGuJVkDnOKDB/NJKQN3CXkBc
SZXBWecoQVu+A77RUkbBuxYbQXPFpr+qS1XBZ8yYQI9yqD8iPpHBesVPQDdbrUBmH4fBJbFZQJTU
x0BGUZLBDUhPQIh4iUBZ2qbB

> <OMEGA_E>
kOprPg==

> <OMEGA_NBR>
      8619

$$$$
50141639
  -OEChem-04172616093D

 76 78  0     1  0  0  0  0  0999 V2000
    6.9103   -1.3495  -21.5170 C   0  0  0  0  0  0  0  0  0  0  0  0
    7.3671   -0.0263  -21.6697 C   0  0  0  0  0  0  0  0  0  0  0  0
    5.5948   -1.5952  -21.0772 C   0  0  0  0  0  0  0  0  0  0  0  0
    7.9645    8.2516  -18.1135 C   0  0  0  0  0  0  0  0  0  0  0  0
    6.5090    1.0507  -21.3813 C   0  0  0  0  0  0  0  0  0  0  0  0
    4.7372   -0.5197  -20.7759 C   0  0  0  0  0  0  0  0  0  0  0  0
    6.9231    7.7240  -17.3307 C   0  0  0  0  0  0  0  0  0  0  0  0
    7.6935    8.7604  -19.3980 C   0  0  0  0  0  0  0  0  0  0  0  0
    7.7000   -0.9276  -14.9497 C   0  0  0  0  0  0  0  0  0  0  0  0
    7.9088    1.3477  -15.7976 C   0  0  0  0  0  0  0  0  0  0  0  0
    6.3859   -0.2219  -16.8803 C   0  0  0  0  0  0  0  0  0  0  0  0
    5.3294    8.2264  -19.1158 C   0  0  0  0  0  0  0  0  0  0  0  0
    8.2865    0.3547  -14.8692 C   0  0  0  0  0  0  0  0  0  0  0  0
    6.7529   -1.2208  -15.9530 C   0  0  0  0  0  0  0  0  0  0  0  0
    6.9567    1.0682  -16.7990 C   0  0  0  0  0  0  0  0  0  0  0  0
    5.1929    0.8076  -20.9245 C   0  0  0  0  0  0  0  0  0  0  0  0
    5.6077    7.7071  -17.8307 C   0  0  0  0  0  0  0  0  0  0  0  0
    6.3806    8.7537  -19.9148 C   0  0  0  0  0  0  0  0  0  0  0  0
    9.2814    0.6592  -13.8155 C   0  0  0  0  0  0  0  0  0  0  0  0
    6.1012   -2.5423  -15.9893 C   0  0  0  0  0  0  0  0  0  0  0  0
    6.5670    2.1175  -17.7569 C   0  0  0  0  0  0  0  0  0  0  0  0
    2.9305   -2.9074  -18.4736 C   0  0  0  0  0  0  0  0  0  0  0  0
    4.8588    9.2633  -21.7334 C   0  0  0  0  0  0  0  0  0  0  0  0
    4.2777    1.9688  -20.5812 C   0  0  0  0  0  0  0  0  0  0  0  0
    4.5039    7.1079  -16.9888 C   0  0  0  0  0  0  0  0  0  0  0  0
    3.8900   -4.1108  -18.5520 C   0  0  0  0  0  0  0  0  0  0  0  0
    4.7718   -4.2246  -17.2973 C   0  0  0  0  0  0  0  0  0  0  0  0
    4.7003    4.9051  -18.0740 C   0  0  0  0  0  0  0  0  0  0  0  0
    4.9380    2.8795  -19.5237 C   0  0  1  0  0  0  0  0  0  0  0  0
    3.9856    3.9953  -19.0739 C   0  0  2  0  0  0  0  0  0  0  0  0
    9.8885   -0.3621  -13.1062 N   0  0  0  0  0  0  0  0  0  0  0  0
    5.6683   -3.0660  -17.2013 N   0  0  0  0  0  0  0  0  0  0  0  0
    5.3283    2.0412  -18.3794 N   0  0  0  0  0  0  0  0  0  0  0  0
    3.8189    6.0347  -17.7293 N   0  3  0  0  0  0  0  0  0  0  0  0
    9.5868    1.8180  -13.5584 O   0  0  0  0  0  0  0  0  0  0  0  0
    5.8545   -3.1220  -14.9369 O   0  0  0  0  0  0  0  0  0  0  0  0
    7.3351    3.0429  -18.0010 O   0  0  0  0  0  0  0  0  0  0  0  0
    3.6011    4.7789  -20.2042 O   0  0  0  0  0  0  0  0  0  0  0  0
    6.2014    9.2657  -21.1953 O   0  0  0  0  0  0  0  0  0  0  0  0
    7.5690   -2.1766  -21.7371 H   0  0  0  0  0  0  0  0  0  0  0  0
    8.3754    0.1617  -22.0080 H   0  0  0  0  0  0  0  0  0  0  0  0
    5.2431   -2.6108  -20.9708 H   0  0  0  0  0  0  0  0  0  0  0  0
    8.9738    8.2666  -17.7293 H   0  0  0  0  0  0  0  0  0  0  0  0
    6.8562    2.0654  -21.5091 H   0  0  0  0  0  0  0  0  0  0  0  0
    3.7315   -0.7104  -20.4314 H   0  0  0  0  0  0  0  0  0  0  0  0
    7.1322    7.3320  -16.3463 H   0  0  0  0  0  0  0  0  0  0  0  0
    8.4999    9.1604  -19.9947 H   0  0  0  0  0  0  0  0  0  0  0  0
    7.9790   -1.6899  -14.2374 H   0  0  0  0  0  0  0  0  0  0  0  0
    8.3529    2.3306  -15.7406 H   0  0  0  0  0  0  0  0  0  0  0  0
    5.6666   -0.4444  -17.6546 H   0  0  0  0  0  0  0  0  0  0  0  0
    4.3168    8.2225  -19.4913 H   0  0  0  0  0  0  0  0  0  0  0  0
    2.3207   -2.8638  -19.3881 H   0  0  0  0  0  0  0  0  0  0  0  0
    2.2724   -3.0197  -17.5993 H   0  0  0  0  0  0  0  0  0  0  0  0
    3.5133   -1.9796  -18.3770 H   0  0  0  0  0  0  0  0  0  0  0  0
    4.8680    9.6938  -22.7456 H   0  0  0  0  0  0  0  0  0  0  0  0
    4.4836    8.2302  -21.7780 H   0  0  0  0  0  0  0  0  0  0  0  0
    4.2032    9.8638  -21.0856 H   0  0  0  0  0  0  0  0  0  0  0  0
    4.0786    2.5546  -21.4907 H   0  0  0  0  0  0  0  0  0  0  0  0
    3.3301    1.5778  -20.1821 H   0  0  0  0  0  0  0  0  0  0  0  0
    4.9362    6.6930  -16.0663 H   0  0  0  0  0  0  0  0  0  0  0  0
    3.7768    7.8925  -16.7324 H   0  0  0  0  0  0  0  0  0  0  0  0
    3.2975   -5.0318  -18.6549 H   0  0  0  0  0  0  0  0  0  0  0  0
    4.5384   -3.9916  -19.4326 H   0  0  0  0  0  0  0  0  0  0  0  0
    4.1303   -4.2627  -16.4045 H   0  0  0  0  0  0  0  0  0  0  0  0
    5.3719   -5.1445  -17.3571 H   0  0  0  0  0  0  0  0  0  0  0  0
    4.9403    4.3350  -17.1644 H   0  0  0  0  0  0  0  0  0  0  0  0
    5.6290    5.2870  -18.5230 H   0  0  0  0  0  0  0  0  0  0  0  0
    5.8344    3.3381  -19.9665 H   0  0  0  0  0  0  0  0  0  0  0  0
    3.1038    3.5472  -18.5924 H   0  0  0  0  0  0  0  0  0  0  0  0
   10.5624   -0.1478  -12.3991 H   0  0  0  0  0  0  0  0  0  0  0  0
    9.6534   -1.3144  -13.3006 H   0  0  0  0  0  0  0  0  0  0  0  0
    5.9817   -2.6339  -18.0469 H   0  0  0  0  0  0  0  0  0  0  0  0
    4.6645    1.3796  -18.0306 H   0  0  0  0  0  0  0  0  0  0  0  0
    3.0682    5.6902  -17.1656 H   0  0  0  0  0  0  0  0  0  0  0  0
    3.4508    6.4191  -18.5759 H   0  0  0  0  0  0  0  0  0  0  0  0
    3.1549    4.2270  -20.8358 H   0  0  0  0  0  0  0  0  0  0  0  0
  1  2  1  0  0  0  0
  1  3  2  0  0  0  0
  2  5  2  0  0  0  0
  3  6  1  0  0  0  0
  4  7  2  0  0  0  0
  4  8  1  0  0  0  0
  5 16  1  0  0  0  0
  6 16  2  0  0  0  0
  7 17  1  0  0  0  0
  8 18  2  0  0  0  0
  9 13  2  0  0  0  0
  9 14  1  0  0  0  0
 10 13  1  0  0  0  0
 10 15  2  0  0  0  0
 11 14  2  0  0  0  0
 11 15  1  0  0  0  0
 12 17  2  0  0  0  0
 12 18  1  0  0  0  0
 13 19  1  0  0  0  0
 14 20  1  0  0  0  0
 15 21  1  0  0  0  0
 16 24  1  0  0  0  0
 17 25  1  0  0  0  0
 18 39  1  0  0  0  0
 19 31  1  0  0  0  0
 19 35  2  0  0  0  0
 20 32  1  0  0  0  0
 20 36  2  0  0  0  0
 21 33  1  0  0  0  0
 21 37  2  0  0  0  0
 22 26  1  0  0  0  0
 23 39  1  0  0  0  0
 24 29  1  0  0  0  0
 25 34  1  0  0  0  0
 26 27  1  0  0  0  0
 27 32  1  0  0  0  0
 28 30  1  0  0  0  0
 28 34  1  0  0  0  0
 29 30  1  0  0  0  0
 29 33  1  0  0  0  0
 30 38  1  0  0  0  0
  1 40  1  0  0  0  0
  2 41  1  0  0  0  0
  3 42  1  0  0  0  0
  4 43  1  0  0  0  0
  5 44  1  0  0  0  0
  6 45  1  0  0  0  0
  7 46  1  0  0  0  0
  8 47  1  0  0  0  0
  9 48  1  0  0  0  0
 10 49  1  0  0  0  0
 11 50  1  0  0  0  0
 12 51  1  0  0  0  0
 22 52  1  0  0  0  0
 22 53  1  0  0  0  0
 22 54  1  0  0  0  0
 23 55  1  0  0  0  0
 23 56  1  0  0  0  0
 23 57  1  0  0  0  0
 24 58  1  0  0  0  0
 24 59  1  0  0  0  0
 25 60  1  0  0  0  0
 25 61  1  0  0  0  0
 26 62  1  0  0  0  0
 26 63  1  0  0  0  0
 27 64  1  0  0  0  0
 27 65  1  0  0  0  0
 28 66  1  0  0  0  0
 28 67  1  0  0  0  0
 29 68  1  0  0  0  0
 30 69  1  0  0  0  0
 31 70  1  0  0  0  0
 31 71  1  0  0  0  0
 32 72  1  0  0  0  0
 33 73  1  0  0  0  0
 34 74  1  0  0  0  0
 34 75  1  0  0  0  0
 38 76  1  0  0  0  0
M  CHG  1  34   1
M  END
> <OMEGA_C>
GyHdQL29rL+5IqzBcb/rQKBY17yeW63BegizQAkvzL8PnqjBcN3+QHQGBEGC6JDBxUnQQDR9hj/s
DKvBv5aXQOQIBb8INabB8YndQDMr90A0pYrBIDH2QGUqDEELL5vBT2b2QCJ5bb8iMm/BoBT9QKOC
rD8Sw3zBh1nMQFY8Y77vCofBs4qqQDmfA0Ey7ZjBa5UEQaaetT5F6G3BexfYQHNCnL9qP3/BZJ3e
QP+5iD9yZIbBkCymQEi9Tj9mZafB6nGzQPCg9kBcpY7BMy7MQC4PDEFuUZ/BroAUQdzAKD9xDF3B
4zzDQNC0IsA31H/BDiXSQD2FB0AwDo7BpIw7QKATOsDwyZPBGHubQEo2FEH63a3BEOOIQCkA/D9F
pqTBlB+QQLxz40AK6YfB8PV4QH2Lg8CCapTBe7KYQNsvh8DTYIrB7miWQFb2nECNl5DB9AOeQPtI
OEBwMJzBUBN/QG+yf0BMl5jBdzceQYVgub7yslHBcmK1QCU5RMBDnInBlIGqQICiAkAPCZPBVmh0
QCkcwUCU1Y3BiGMZQRC06D8N71jBZli7QOLOR8Bg/W7BHrnqQCm/QkAVApDBOXhmQADtmEBBoqHB
DnLGQDpAFEEPkKnBBzXyQNlNC8CY5a3BmgEGQXeRJT55ELDBmMenQOIWJ8A7xKfBgJQPQStEBEGW
1Y3BtGXbQAEvBECLEqzB1NBuQHndNb+Ec6PBpzrkQKCf6kA0xYLBrv8HQfeQEkET9Z/B8lP/QP5O
2L88zGPBVqUFQccnFUCP2XvBflS1QDCG476LPI3BPSOKQD+PA0Eg7pvB8oYUQMpIN8DcGpvB6W4R
QJBDQcBxy4zB6NlgQEVi/b8wBJPBAcebQO0ZG0Hv9rXB5nmPQL6uA0FAOa7B1ICGQAPSHUFNr6jB
KoSCQMZ+I0Dd7KvBEyFVQJr0yT8EdaHB9PSdQMws1kDNh4DBbbdxQJ6P/EDw24XBNApTQMwEocAp
PZXBmTqRQCt3f8DodZvBZiuEQOtniMBuPIPB7OarQMufpMBK24rBmhaeQBa4ikClUInB8CC0QDUv
qUAiL5TBfbO6QNuiVUBYu5/BZqVGQKUFY0AuvZTBvf8oQVVWF77GYkbBVnQaQY49qL9hz1TBEmq/
QA+SKMAYYJDB60OVQJaVsD+oPpDB71xEQMIVtkAhU4nBZdlcQP1ozUBym5TBoOpJQMtDh0Csr6bB

> <OMEGA_E>
0IxzPg==

> <OMEGA_NBR>
     10172

$$$$
28722
  -OEChem-04172616093D

 84 86  0     1  0  0  0  0  0999 V2000
    8.1318    8.3151  -18.4345 C   0  0  0  0  0  0  0  0  0  0  0  0
    7.1685    7.8141  -17.5407 C   0  0  0  0  0  0  0  0  0  0  0  0
    7.7593    8.6752  -19.7441 C   0  0  0  0  0  0  0  0  0  0  0  0
    6.7533   -0.0554  -16.7679 C   0  0  0  0  0  0  0  0  0  0  0  0
    8.3759    1.5559  -15.9113 C   0  0  0  0  0  0  0  0  0  0  0  0
    8.1972   -0.6478  -14.8907 C   0  0  0  0  0  0  0  0  0  0  0  0
    5.4501    8.0534  -19.2607 C   0  0  0  0  0  0  0  0  0  0  0  0
    6.6762    1.0970  -21.4631 C   0  0  0  0  0  0  0  0  0  0  0  0
    4.9112   -0.4422  -20.7648 C   0  0  0  0  0  0  0  0  0  0  0  0
    7.0593   -1.3098  -21.5284 C   0  0  0  0  0  0  0  0  0  0  0  0
    7.3511    1.2243  -16.8267 C   0  0  0  0  0  0  0  0  0  0  0  0
    7.1894   -0.9933  -15.8095 C   0  0  0  0  0  0  0  0  0  0  0  0
    5.8305    7.6744  -17.9546 C   0  0  0  0  0  0  0  0  0  0  0  0
    8.7787    0.6315  -14.9287 C   0  0  0  0  0  0  0  0  0  0  0  0
    5.3713    0.8736  -20.9705 C   0  0  0  0  0  0  0  0  0  0  0  0
    6.4198    8.5522  -20.1705 C   0  0  0  0  0  0  0  0  0  0  0  0
    7.5222    0.0059  -21.7315 C   0  0  0  0  0  0  0  0  0  0  0  0
    5.7506   -1.5319  -21.0533 C   0  0  0  0  0  0  0  0  0  0  0  0
    6.9111    2.2054  -17.8349 C   0  0  0  0  0  0  0  0  0  0  0  0
    6.5883   -2.3309  -15.7441 C   0  0  0  0  0  0  0  0  0  0  0  0
    9.8770    0.9896  -13.9547 C   0  0  0  0  0  0  0  0  0  0  0  0
    3.9490   -3.4166  -17.7020 C   0  0  0  0  0  0  0  0  0  0  0  0
    9.5418   -4.2471  -17.1813 C   0  0  0  0  0  0  0  0  0  0  0  0
    4.7299    9.0417  -21.8323 C   0  0  0  0  0  0  0  0  0  0  0  0
    4.4877    2.0420  -20.5981 C   0  0  0  0  0  0  0  0  0  0  0  0
    4.8092    7.1076  -16.9923 C   0  0  0  0  0  0  0  0  0  0  0  0
    4.8955   -4.6293  -17.7924 C   0  0  0  0  0  0  0  0  0  0  0  0
    8.5642   -4.0382  -18.3509 C   0  0  0  0  0  0  0  0  0  0  0  0
    6.0093   -4.5667  -16.7314 C   0  0  0  0  0  0  0  0  0  0  0  0
    7.5287   -2.9523  -18.0129 C   0  0  0  0  0  0  0  0  0  0  0  0
    4.9457    4.8625  -17.9886 C   0  0  0  0  0  0  0  0  0  0  0  0
    5.1772    2.9128  -19.5281 C   0  0  1  0  0  0  0  0  0  0  0  0
    4.2037    3.9559  -18.9684 C   0  0  2  0  0  0  0  0  0  0  0  0
    5.6696    2.0495  -18.4405 N   0  0  0  0  0  0  0  0  0  0  0  0
    6.7424   -3.2711  -16.7843 N   0  0  0  0  0  0  0  0  0  0  0  0
    4.0774    5.9901  -17.6125 N   0  3  0  0  0  0  0  0  0  0  0  0
    7.6324    3.1556  -18.1227 O   0  0  0  0  0  0  0  0  0  0  0  0
    5.9947   -2.6258  -14.7124 O   0  0  0  0  0  0  0  0  0  0  0  0
    3.6945    4.7517  -20.0394 O   0  0  0  0  0  0  0  0  0  0  0  0
    6.1275    8.9170  -21.4785 O   0  0  0  0  0  0  0  0  0  0  0  0
    8.7785    0.2227  -22.1822 F   0  0  0  0  0  0  0  0  0  0  0  0
    5.2993   -2.7922  -20.8680 F   0  0  0  0  0  0  0  0  0  0  0  0
    9.1582    8.4237  -18.1164 H   0  0  0  0  0  0  0  0  0  0  0  0
    7.4553    7.5367  -16.5371 H   0  0  0  0  0  0  0  0  0  0  0  0
    8.5062    9.0493  -20.4287 H   0  0  0  0  0  0  0  0  0  0  0  0
    5.9630   -0.3146  -17.4568 H   0  0  0  0  0  0  0  0  0  0  0  0
    8.8525    2.5235  -15.9660 H   0  0  0  0  0  0  0  0  0  0  0  0
    8.5249   -1.3670  -14.1546 H   0  0  0  0  0  0  0  0  0  0  0  0
    4.4188    7.9637  -19.5685 H   0  0  0  0  0  0  0  0  0  0  0  0
    7.0241    2.1051  -21.6336 H   0  0  0  0  0  0  0  0  0  0  0  0
    3.9144   -0.6132  -20.3857 H   0  0  0  0  0  0  0  0  0  0  0  0
    7.7074   -2.1483  -21.7367 H   0  0  0  0  0  0  0  0  0  0  0  0
    9.4361    1.4415  -13.0540 H   0  0  0  0  0  0  0  0  0  0  0  0
   10.4301    0.0807  -13.6756 H   0  0  0  0  0  0  0  0  0  0  0  0
   10.5649    1.7073  -14.4256 H   0  0  0  0  0  0  0  0  0  0  0  0
    3.1705   -3.5000  -18.4747 H   0  0  0  0  0  0  0  0  0  0  0  0
    3.4779   -3.3926  -16.7082 H   0  0  0  0  0  0  0  0  0  0  0  0
    4.5228   -2.4912  -17.8582 H   0  0  0  0  0  0  0  0  0  0  0  0
   10.2709   -5.0268  -17.4468 H   0  0  0  0  0  0  0  0  0  0  0  0
   10.0713   -3.3056  -16.9735 H   0  0  0  0  0  0  0  0  0  0  0  0
    8.9821   -4.5581  -16.2868 H   0  0  0  0  0  0  0  0  0  0  0  0
    4.6434    9.3336  -22.8893 H   0  0  0  0  0  0  0  0  0  0  0  0
    4.2247    8.0772  -21.6758 H   0  0  0  0  0  0  0  0  0  0  0  0
    4.2589    9.8091  -21.2004 H   0  0  0  0  0  0  0  0  0  0  0  0
    4.2950    2.6514  -21.4934 H   0  0  0  0  0  0  0  0  0  0  0  0
    3.5346    1.6640  -20.1998 H   0  0  0  0  0  0  0  0  0  0  0  0
    5.3243    6.7461  -16.0901 H   0  0  0  0  0  0  0  0  0  0  0  0
    4.0957    7.8977  -16.7155 H   0  0  0  0  0  0  0  0  0  0  0  0
    4.3112   -5.5489  -17.6412 H   0  0  0  0  0  0  0  0  0  0  0  0
    5.3561   -4.6475  -18.7912 H   0  0  0  0  0  0  0  0  0  0  0  0
    9.1300   -3.7312  -19.2429 H   0  0  0  0  0  0  0  0  0  0  0  0
    8.0408   -4.9837  -18.5562 H   0  0  0  0  0  0  0  0  0  0  0  0
    5.5596   -4.6823  -15.7341 H   0  0  0  0  0  0  0  0  0  0  0  0
    6.7199   -5.3870  -16.9105 H   0  0  0  0  0  0  0  0  0  0  0  0
    8.0557   -1.9996  -17.8565 H   0  0  0  0  0  0  0  0  0  0  0  0
    6.8339   -2.8523  -18.8598 H   0  0  0  0  0  0  0  0  0  0  0  0
    5.2132    4.2892  -17.0887 H   0  0  0  0  0  0  0  0  0  0  0  0
    5.8603    5.2463  -18.4642 H   0  0  0  0  0  0  0  0  0  0  0  0
    6.0251    3.4357  -19.9944 H   0  0  0  0  0  0  0  0  0  0  0  0
    3.3857    3.4428  -18.4416 H   0  0  0  0  0  0  0  0  0  0  0  0
    5.0777    1.3099  -18.1201 H   0  0  0  0  0  0  0  0  0  0  0  0
    3.3923    5.6602  -16.9631 H   0  0  0  0  0  0  0  0  0  0  0  0
    3.6211    6.3276  -18.4358 H   0  0  0  0  0  0  0  0  0  0  0  0
    3.2308    4.1959  -20.6547 H   0  0  0  0  0  0  0  0  0  0  0  0
  1  2  2  0  0  0  0
  1  3  1  0  0  0  0
  2 13  1  0  0  0  0
  3 16  2  0  0  0  0
  4 11  1  0  0  0  0
  4 12  2  0  0  0  0
  5 11  2  0  0  0  0
  5 14  1  0  0  0  0
  6 12  1  0  0  0  0
  6 14  2  0  0  0  0
  7 13  2  0  0  0  0
  7 16  1  0  0  0  0
  8 15  1  0  0  0  0
  8 17  2  0  0  0  0
  9 15  2  0  0  0  0
  9 18  1  0  0  0  0
 10 17  1  0  0  0  0
 10 18  2  0  0  0  0
 11 19  1  0  0  0  0
 12 20  1  0  0  0  0
 13 26  1  0  0  0  0
 14 21  1  0  0  0  0
 15 25  1  0  0  0  0
 16 40  1  0  0  0  0
 17 41  1  0  0  0  0
 18 42  1  0  0  0  0
 19 34  1  0  0  0  0
 19 37  2  0  0  0  0
 20 35  1  0  0  0  0
 20 38  2  0  0  0  0
 22 27  1  0  0  0  0
 23 28  1  0  0  0  0
 24 40  1  0  0  0  0
 25 32  1  0  0  0  0
 26 36  1  0  0  0  0
 27 29  1  0  0  0  0
 28 30  1  0  0  0  0
 29 35  1  0  0  0  0
 30 35  1  0  0  0  0
 31 33  1  0  0  0  0
 31 36  1  0  0  0  0
 32 33  1  0  0  0  0
 32 34  1  0  0  0  0
 33 39  1  0  0  0  0
  1 43  1  0  0  0  0
  2 44  1  0  0  0  0
  3 45  1  0  0  0  0
  4 46  1  0  0  0  0
  5 47  1  0  0  0  0
  6 48  1  0  0  0  0
  7 49  1  0  0  0  0
  8 50  1  0  0  0  0
  9 51  1  0  0  0  0
 10 52  1  0  0  0  0
 21 53  1  0  0  0  0
 21 54  1  0  0  0  0
 21 55  1  0  0  0  0
 22 56  1  0  0  0  0
 22 57  1  0  0  0  0
 22 58  1  0  0  0  0
 23 59  1  0  0  0  0
 23 60  1  0  0  0  0
 23 61  1  0  0  0  0
 24 62  1  0  0  0  0
 24 63  1  0  0  0  0
 24 64  1  0  0  0  0
 25 65  1  0  0  0  0
 25 66  1  0  0  0  0
 26 67  1  0  0  0  0
 26 68  1  0  0  0  0
 27 69  1  0  0  0  0
 27 70  1  0  0  0  0
 28 71  1  0  0  0  0
 28 72  1  0  0  0  0
 29 73  1  0  0  0  0
 29 74  1  0  0  0  0
 30 75  1  0  0  0  0
 30 76  1  0  0  0  0
 31 77  1  0  0  0  0
 31 78  1  0  0  0  0
 32 79  1  0  0  0  0
 33 80  1  0  0  0  0
 34 81  1  0  0  0  0
 36 82  1  0  0  0  0
 36 83  1  0  0  0  0
 39 84  1  0  0  0  0
M  CHG  1  36   1
M  END
> <OMEGA_C>
2hsCQXcKBUHyeZPBU2TlQAwN+kBTU4zBQEz4QKnNCkHl853BbhvYQCzjYr2tJIbBuwMGQbMmxz+x
lH7BxScDQRDWJb9/QG7Bi2euQLnaAEHdFZrBeKPVQFZpjD97tKvBKCidQOlm4r46HqbBveXhQMKo
p78cOqzBCzzrQLG2nD8KnYbByw/mQLJGfr/U83zBEZO6QM2U9UAco4/Bc3UMQbCqIT8T3G7B2uGr
QLCmXz+fw6fB4G7NQJ7VCEE3XaHB0LXwQKA4wTs22q3BhQS4QCsWxL8QbajB2yfdQDYlDUDzrY7B
C9PSQNUtFcDD53vBOAgeQUpWfT+eRl/BALx8QKqpWsChnY3BJqsYQXHoh8A8c4nBUVuXQOSqEEGL
qK7BFZuPQOuvAkD9yKTBVeWZQClx40BF8IfBVKicQN0ilMDTVo7B7AYJQSM5gcC9zpLB3kvAQIQi
ksDX2YXBauvwQC3zPMBnGpDBYkOeQLmZm0CZ6I/BOqulQLVrOkB4OZzBxISGQAcufUBhv5fBZm21
QGYqA0A9hpPB3cHXQK9ZUcBFRobBXHqCQK2uv0Bk5ozBQDz0QKj0SUA/+5DBnNS/QOUNKMABZmvB
b3JsQKQNmECiUKDBShTEQPurDkHo06vBr3QMQcYLZD44dbHBMJSpQDyzMsCh8abBy4cSQVfHBkFt
7pDBo5HuQIcs8UD2S4TBSRkIQb3JEEH3baPB6dC+QIoWob5/p4vB6KMNQZeAIUCUdH/Bz2UIQej4
rr9yeWLBJ2eNQJjW/kBdjJzBqcXgQKG5BkCPEa3BmYV6QOb4HL/8FaPBEqP2QPF8CcDV5K3BFPoW
QZyBuD8R3VDBseEmQTospT1jz1rBtAkpQc6I2j9vz2bBJ+pKQAoAYMAmzJPBI5ZeQMcgWcBxqoXB
97qQQHFwH8B+3Y7BclUkQajboMAjk4vBGSQhQS2PU8DHyYfBgbYPQavbkcBsS4LBfZaUQHZWFUFY
HbfBrTCHQDw8AUEhaK3B3kiIQBHyHEFtmqnBzXCJQNWwKUB38qvBHjZiQDn91D88maHBsWCqQLnf
10B9uIDBWRCDQLq5/EBGuYXBmvWJQHyQscA8IY3BgGWrQFG4lMBJVJbBkBQSQYDMbsB58ZnB96YA
QVV6n8Aec5TBeuixQMrVlcALv3vBmgnXQEpirMC8SIfBUuQAQV7x/78c2o7BRK/aQHSMNsDL4JbB
6dKmQHdBiUCjtYjB04e7QMDhp0CktpPBBs7AQOniW0CK9J/B3K5YQIVXXEBriJPBIXyiQHSrpz8F
9pDBvBpZQPcftUB7tIfBacBnQIx7ykCPfJPBgsVOQOdEhkDXPKXB

> <OMEGA_E>
wAUSPQ==

> <OMEGA_NBR>
      3279

$$$$
50139666
  -OEChem-04172616093D

 81 83  0     1  0  0  0  0  0999 V2000
    7.0750   -1.3792  -21.5285 C   0  0  0  0  0  0  0  0  0  0  0  0
    7.5340   -0.0701  -21.7803 C   0  0  0  0  0  0  0  0  0  0  0  0
    5.7943   -1.5867  -20.9781 C   0  0  0  0  0  0  0  0  0  0  0  0
    8.8153    0.7010  -14.7841 C   0  0  0  0  0  0  0  0  0  0  0  0
    8.1157    8.3115  -18.4395 C   0  0  0  0  0  0  0  0  0  0  0  0
    8.4327    1.6198  -15.7825 C   0  0  0  0  0  0  0  0  0  0  0  0
    8.2153   -0.5724  -14.7294 C   0  0  0  0  0  0  0  0  0  0  0  0
    6.7132    1.0332  -21.4795 C   0  0  0  0  0  0  0  0  0  0  0  0
    4.9737   -0.4857  -20.6738 C   0  0  0  0  0  0  0  0  0  0  0  0
    7.1321    7.8047  -17.5713 C   0  0  0  0  0  0  0  0  0  0  0  0
    7.7671    8.7117  -19.7441 C   0  0  0  0  0  0  0  0  0  0  0  0
    6.8331   -0.0015  -16.6570 C   0  0  0  0  0  0  0  0  0  0  0  0
    5.4447    8.0985  -19.3126 C   0  0  0  0  0  0  0  0  0  0  0  0
    7.4320    1.2748  -16.7236 C   0  0  0  0  0  0  0  0  0  0  0  0
    7.2342   -0.9320  -15.6788 C   0  0  0  0  0  0  0  0  0  0  0  0
    5.4321    0.8254  -20.9223 C   0  0  0  0  0  0  0  0  0  0  0  0
    5.7986    7.6922  -18.0079 C   0  0  0  0  0  0  0  0  0  0  0  0
    6.4323    8.6164  -20.1934 C   0  0  0  0  0  0  0  0  0  0  0  0
    6.9957    2.2333  -17.7628 C   0  0  0  0  0  0  0  0  0  0  0  0
    6.5868   -2.2574  -15.6228 C   0  0  0  0  0  0  0  0  0  0  0  0
    3.9060   -3.4111  -17.7874 C   0  0  0  0  0  0  0  0  0  0  0  0
    9.3469   -4.7214  -18.1416 C   0  0  0  0  0  0  0  0  0  0  0  0
    4.7726    9.0535  -21.9030 C   0  0  0  0  0  0  0  0  0  0  0  0
    4.5624    2.0026  -20.5500 C   0  0  0  0  0  0  0  0  0  0  0  0
    4.7499    7.1428  -17.0647 C   0  0  0  0  0  0  0  0  0  0  0  0
    4.8908   -4.5948  -17.7909 C   0  0  0  0  0  0  0  0  0  0  0  0
    8.9917   -3.4319  -17.3960 C   0  0  0  0  0  0  0  0  0  0  0  0
    5.9320   -4.4606  -16.6632 C   0  0  0  0  0  0  0  0  0  0  0  0
    7.5951   -2.9390  -17.8176 C   0  0  0  0  0  0  0  0  0  0  0  0
    4.9320    4.8651  -17.9766 C   0  0  0  0  0  0  0  0  0  0  0  0
    5.2429    2.8878  -19.4813 C   0  0  1  0  0  0  0  0  0  0  0  0
    4.2265    3.9008  -18.9275 C   0  0  2  0  0  0  0  0  0  0  0  0
    5.7640    2.0418  -18.3893 N   0  0  0  0  0  0  0  0  0  0  0  0
    6.6293   -3.1489  -16.7170 N   0  0  0  0  0  0  0  0  0  0  0  0
    4.0451    6.0030  -17.6744 N   0  3  0  0  0  0  0  0  0  0  0  0
    7.7034    3.1924  -18.0533 O   0  0  0  0  0  0  0  0  0  0  0  0
    5.9989   -2.5581  -14.5899 O   0  0  0  0  0  0  0  0  0  0  0  0
    3.6597    4.6452  -20.0083 O   0  0  0  0  0  0  0  0  0  0  0  0
    6.1588    9.0481  -21.4859 O   0  0  0  0  0  0  0  0  0  0  0  0
    7.7062   -2.2249  -21.7579 H   0  0  0  0  0  0  0  0  0  0  0  0
    8.5152    0.0862  -22.2039 H   0  0  0  0  0  0  0  0  0  0  0  0
    5.4432   -2.5906  -20.7900 H   0  0  0  0  0  0  0  0  0  0  0  0
    9.5692    0.9737  -14.0605 H   0  0  0  0  0  0  0  0  0  0  0  0
    9.1394    8.3940  -18.1054 H   0  0  0  0  0  0  0  0  0  0  0  0
    8.9044    2.5902  -15.8300 H   0  0  0  0  0  0  0  0  0  0  0  0
    8.5059   -1.2736  -13.9612 H   0  0  0  0  0  0  0  0  0  0  0  0
    7.0622    2.0364  -21.6745 H   0  0  0  0  0  0  0  0  0  0  0  0
    3.9929   -0.6438  -20.2501 H   0  0  0  0  0  0  0  0  0  0  0  0
    7.3998    7.5018  -16.5698 H   0  0  0  0  0  0  0  0  0  0  0  0
    8.5284    9.0952  -20.4072 H   0  0  0  0  0  0  0  0  0  0  0  0
    6.0600   -0.2670  -17.3629 H   0  0  0  0  0  0  0  0  0  0  0  0
    4.4197    8.0155  -19.6426 H   0  0  0  0  0  0  0  0  0  0  0  0
    3.1778   -3.5369  -18.6023 H   0  0  0  0  0  0  0  0  0  0  0  0
    3.3760   -3.3780  -16.8241 H   0  0  0  0  0  0  0  0  0  0  0  0
    4.4607   -2.4724  -17.9332 H   0  0  0  0  0  0  0  0  0  0  0  0
   10.3458   -5.0618  -17.8312 H   0  0  0  0  0  0  0  0  0  0  0  0
    8.6049   -5.4981  -17.9045 H   0  0  0  0  0  0  0  0  0  0  0  0
    9.3449   -4.5308  -19.2249 H   0  0  0  0  0  0  0  0  0  0  0  0
    4.7024    9.4151  -22.9395 H   0  0  0  0  0  0  0  0  0  0  0  0
    4.3677    8.0325  -21.8428 H   0  0  0  0  0  0  0  0  0  0  0  0
    4.1939    9.7169  -21.2434 H   0  0  0  0  0  0  0  0  0  0  0  0
    4.3740    2.6074  -21.4492 H   0  0  0  0  0  0  0  0  0  0  0  0
    3.6070    1.6304  -20.1516 H   0  0  0  0  0  0  0  0  0  0  0  0
    5.2379    6.8105  -16.1366 H   0  0  0  0  0  0  0  0  0  0  0  0
    4.0225    7.9348  -16.8333 H   0  0  0  0  0  0  0  0  0  0  0  0
    4.3281   -5.5294  -17.6496 H   0  0  0  0  0  0  0  0  0  0  0  0
    5.4128   -4.6238  -18.7587 H   0  0  0  0  0  0  0  0  0  0  0  0
    8.9968   -3.6256  -16.3132 H   0  0  0  0  0  0  0  0  0  0  0  0
    9.7367   -2.6583  -17.6336 H   0  0  0  0  0  0  0  0  0  0  0  0
    5.4219   -4.5544  -15.6931 H   0  0  0  0  0  0  0  0  0  0  0  0
    6.6754   -5.2648  -16.7658 H   0  0  0  0  0  0  0  0  0  0  0  0
    7.6449   -1.8669  -18.0587 H   0  0  0  0  0  0  0  0  0  0  0  0
    7.2637   -3.4993  -18.7043 H   0  0  0  0  0  0  0  0  0  0  0  0
    5.1837    4.3399  -17.0434 H   0  0  0  0  0  0  0  0  0  0  0  0
    5.8538    5.2354  -18.4489 H   0  0  0  0  0  0  0  0  0  0  0  0
    6.0716    3.4369  -19.9521 H   0  0  0  0  0  0  0  0  0  0  0  0
    3.4424    3.3593  -18.3778 H   0  0  0  0  0  0  0  0  0  0  0  0
    5.1958    1.2801  -18.0777 H   0  0  0  0  0  0  0  0  0  0  0  0
    3.3352    5.6932  -17.0419 H   0  0  0  0  0  0  0  0  0  0  0  0
    3.6213    6.3104  -18.5264 H   0  0  0  0  0  0  0  0  0  0  0  0
    3.2185    4.0520  -20.6049 H   0  0  0  0  0  0  0  0  0  0  0  0
  1  2  1  0  0  0  0
  1  3  2  0  0  0  0
  2  8  2  0  0  0  0
  3  9  1  0  0  0  0
  4  6  1  0  0  0  0
  4  7  2  0  0  0  0
  5 10  2  0  0  0  0
  5 11  1  0  0  0  0
  6 14  2  0  0  0  0
  7 15  1  0  0  0  0
  8 16  1  0  0  0  0
  9 16  2  0  0  0  0
 10 17  1  0  0  0  0
 11 18  2  0  0  0  0
 12 14  1  0  0  0  0
 12 15  2  0  0  0  0
 13 17  2  0  0  0  0
 13 18  1  0  0  0  0
 14 19  1  0  0  0  0
 15 20  1  0  0  0  0
 16 24  1  0  0  0  0
 17 25  1  0  0  0  0
 18 39  1  0  0  0  0
 19 33  1  0  0  0  0
 19 36  2  0  0  0  0
 20 34  1  0  0  0  0
 20 37  2  0  0  0  0
 21 26  1  0  0  0  0
 22 27  1  0  0  0  0
 23 39  1  0  0  0  0
 24 31  1  0  0  0  0
 25 35  1  0  0  0  0
 26 28  1  0  0  0  0
 27 29  1  0  0  0  0
 28 34  1  0  0  0  0
 29 34  1  0  0  0  0
 30 32  1  0  0  0  0
 30 35  1  0  0  0  0
 31 32  1  0  0  0  0
 31 33  1  0  0  0  0
 32 38  1  0  0  0  0
  1 40  1  0  0  0  0
  2 41  1  0  0  0  0
  3 42  1  0  0  0  0
  4 43  1  0  0  0  0
  5 44  1  0  0  0  0
  6 45  1  0  0  0  0
  7 46  1  0  0  0  0
  8 47  1  0  0  0  0
  9 48  1  0  0  0  0
 10 49  1  0  0  0  0
 11 50  1  0  0  0  0
 12 51  1  0  0  0  0
 13 52  1  0  0  0  0
 21 53  1  0  0  0  0
 21 54  1  0  0  0  0
 21 55  1  0  0  0  0
 22 56  1  0  0  0  0
 22 57  1  0  0  0  0
 22 58  1  0  0  0  0
 23 59  1  0  0  0  0
 23 60  1  0  0  0  0
 23 61  1  0  0  0  0
 24 62  1  0  0  0  0
 24 63  1  0  0  0  0
 25 64  1  0  0  0  0
 25 65  1  0  0  0  0
 26 66  1  0  0  0  0
 26 67  1  0  0  0  0
 27 68  1  0  0  0  0
 27 69  1  0  0  0  0
 28 70  1  0  0  0  0
 28 71  1  0  0  0  0
 29 72  1  0  0  0  0
 29 73  1  0  0  0  0
 30 74  1  0  0  0  0
 30 75  1  0  0  0  0
 31 76  1  0  0  0  0
 32 77  1  0  0  0  0
 33 78  1  0  0  0  0
 35 79  1  0  0  0  0
 35 80  1  0  0  0  0
 38 81  1  0  0  0  0
M  CHG  1  35   1
M  END
> <OMEGA_C>
C2biQLaIsL9POqzBzxbxQHSHj70ZPq7B4Wq5QDYZy78c06fBlwsNQSF2Mz/Wi2zBBNoBQQ38BEEA
hJPBc+wGQXdVzz8uhXzBEXIDQbGFEr/Pq2vBT9LWQI4+hD8d1qvBNSifQKSx+L71Y6XBGTrkQOK/
+UDtkYzB/ov4QApjC0HW853BAKnaQABavrqiQYXB+jquQG+TAUE8gJrBNdPtQP4toz/nyYXBuX7n
QBiVbr9a3HrBhdOtQIBKUz/UYKfBgY65QJQm9kAzEJDBqNXNQKncCUEFjKHB79zfQMbtDkBRGo7B
8MbSQO55EMDt9nnBNvx5QFJPWsCuTI7BAI0VQX4Vl8DsIZHBvLiYQE/bEEFLOa/B+f6RQBIqAEBe
ZqTBJv+XQM6R5ECWhIjBuYGcQIoIk8CtU47BMN4PQYSkW8DyKovBzdK9QF29jsAiToXB4wrzQAAZ
PMBlio7BMtOdQA+vm0AI0I/BqMWnQCjROECb2ZvBWT+HQCqmeUBwa5fBr3K4QDasAkBJHZPBgSPU
QMSGScBfvIXBf3GBQHUYwEBFZY3BEoL2QBJQTEAQbZDBNve/QGS3I8AJcGnBTzhqQJCllEDxEKDB
qBTFQAfFEEET46vBeJn2QMNkDsAoEK7BFT4IQWd2sD2CobHB1y6uQELMJcACUqbBfxsZQRNCeT+b
92DBJzsSQclNBkHP15DBSngOQQHGJUCCR33BVxgIQQwFo78HYV/Bxf3hQO1UAkBZZa3BxIt/QGfR
JL8yAKLBZcvsQOEO8EDdjoTBZXQIQd6FEUHfQaPB4OvBQIu5iL4u54rBPG6NQFE/AEEOJJ3B1GFL
QMFcYsBv0ZTB7BBYQDAxWMDDl4bBu72OQP87HsBAd4/Bc4glQfb5ocAzpo7B260JQU7wr8B2PI/B
soQVQST8kMClzJnB9XmWQHOkFkEIhLfB28OLQE2FAEEAvq7BijSGQJd4G0Fr8qnBkPeLQGngJkAB
mKvBh9hmQOqx0D98NqHBM52nQP/v2UDHF4HB7reAQMrp/UCLqobBJoCKQInwsMBbMo3BazWtQPH1
k8DYEZbBzvIPQTYJaMBagYLBpckbQeMgKsCJEY3BaICtQAy+kcDcFnvB9ZzVQI15qMBrIIbB5KL0
QJL37r8seJDBcnDoQPXzX8B5opXBp+ClQCbgikDtWIjBr1K7QK2Ip0Bvl5PBl0rCQLv1W0DknZ/B
+lBcQHv+VkDUBZPB50OmQMrboz8vn5DBQ3RVQOcutkDRVYjB9cNnQPvuyUAqNpTB7ftNQDKqgUDg
1qTB

> <OMEGA_E>
YCZLPg==

> <OMEGA_NBR>
     22209

$$$$
50141640
  -OEChem-04172616093D

 82 84  0     1  0  0  0  0  0999 V2000
    9.8410    0.9574  -13.9350 C   0  0  0  0  0  0  0  0  0  0  0  0
    7.1756   -1.3080  -21.4864 C   0  0  0  0  0  0  0  0  0  0  0  0
    7.5912    0.0141  -21.7437 C   0  0  0  0  0  0  0  0  0  0  0  0
    5.8959   -1.5558  -20.9501 C   0  0  0  0  0  0  0  0  0  0  0  0
    8.1146    8.3005  -18.5059 C   0  0  0  0  0  0  0  0  0  0  0  0
    6.7278    1.0899  -21.4635 C   0  0  0  0  0  0  0  0  0  0  0  0
    5.0322   -0.4816  -20.6661 C   0  0  0  0  0  0  0  0  0  0  0  0
    7.1502    7.7964  -17.6148 C   0  0  0  0  0  0  0  0  0  0  0  0
    7.7390    8.6893  -19.8063 C   0  0  0  0  0  0  0  0  0  0  0  0
    8.4022    1.5655  -15.8314 C   0  0  0  0  0  0  0  0  0  0  0  0
    8.2051   -0.6385  -14.8048 C   0  0  0  0  0  0  0  0  0  0  0  0
    6.7437   -0.0225  -16.6577 C   0  0  0  0  0  0  0  0  0  0  0  0
    5.4276    8.0718  -19.3245 C   0  0  0  0  0  0  0  0  0  0  0  0
    8.8140    0.6262  -14.8666 C   0  0  0  0  0  0  0  0  0  0  0  0
    7.3611    1.2467  -16.7332 C   0  0  0  0  0  0  0  0  0  0  0  0
    7.1768   -0.9674  -15.7053 C   0  0  0  0  0  0  0  0  0  0  0  0
    5.4471    0.8435  -20.9196 C   0  0  0  0  0  0  0  0  0  0  0  0
    5.8088    7.6757  -18.0240 C   0  0  0  0  0  0  0  0  0  0  0  0
    6.3957    8.5886  -20.2275 C   0  0  0  0  0  0  0  0  0  0  0  0
    6.9259    2.2227  -17.7509 C   0  0  0  0  0  0  0  0  0  0  0  0
    6.5513   -2.2958  -15.6382 C   0  0  0  0  0  0  0  0  0  0  0  0
    3.9191   -3.4434  -17.7141 C   0  0  0  0  0  0  0  0  0  0  0  0
    9.4335   -4.6983  -18.1006 C   0  0  0  0  0  0  0  0  0  0  0  0
    4.6973    9.0514  -21.8909 C   0  0  0  0  0  0  0  0  0  0  0  0
    4.5418    1.9983  -20.5488 C   0  0  0  0  0  0  0  0  0  0  0  0
    4.7795    7.1372  -17.0523 C   0  0  0  0  0  0  0  0  0  0  0  0
    4.9005   -4.6300  -17.7615 C   0  0  0  0  0  0  0  0  0  0  0  0
    9.0276   -3.4206  -17.3605 C   0  0  0  0  0  0  0  0  0  0  0  0
    5.9729   -4.5200  -16.6626 C   0  0  0  0  0  0  0  0  0  0  0  0
    7.6211   -2.9719  -17.8014 C   0  0  0  0  0  0  0  0  0  0  0  0
    4.9116    4.8511  -17.9492 C   0  0  0  0  0  0  0  0  0  0  0  0
    5.2090    2.8927  -19.4809 C   0  0  1  0  0  0  0  0  0  0  0  0
    4.2104    3.9319  -18.9500 C   0  0  2  0  0  0  0  0  0  0  0  0
   10.6749    1.2214  -13.1650 N   0  0  0  0  0  0  0  0  0  0  0  0
    5.6958    2.0489  -18.3767 N   0  0  0  0  0  0  0  0  0  0  0  0
    6.6511   -3.2026  -16.7102 N   0  0  0  0  0  0  0  0  0  0  0  0
    4.0472    6.0039  -17.6424 N   0  3  0  0  0  0  0  0  0  0  0  0
    7.6451    3.1747  -18.0379 O   0  0  0  0  0  0  0  0  0  0  0  0
    5.9907   -2.6101  -14.5941 O   0  0  0  0  0  0  0  0  0  0  0  0
    3.7267    4.7172  -20.0407 O   0  0  0  0  0  0  0  0  0  0  0  0
    6.0943    9.0192  -21.5139 O   0  0  0  0  0  0  0  0  0  0  0  0
    7.8390   -2.1328  -21.7006 H   0  0  0  0  0  0  0  0  0  0  0  0
    8.5717    0.2017  -22.1557 H   0  0  0  0  0  0  0  0  0  0  0  0
    5.5782   -2.5698  -20.7570 H   0  0  0  0  0  0  0  0  0  0  0  0
    9.1443    8.3895  -18.1926 H   0  0  0  0  0  0  0  0  0  0  0  0
    7.0439    2.1029  -21.6640 H   0  0  0  0  0  0  0  0  0  0  0  0
    4.0519   -0.6711  -20.2543 H   0  0  0  0  0  0  0  0  0  0  0  0
    7.4389    7.5020  -16.6166 H   0  0  0  0  0  0  0  0  0  0  0  0
    8.4861    9.0683  -20.4880 H   0  0  0  0  0  0  0  0  0  0  0  0
    8.8827    2.5314  -15.8826 H   0  0  0  0  0  0  0  0  0  0  0  0
    8.5267   -1.3575  -14.0658 H   0  0  0  0  0  0  0  0  0  0  0  0
    5.9370   -0.2693  -17.3321 H   0  0  0  0  0  0  0  0  0  0  0  0
    4.3968    7.9818  -19.6341 H   0  0  0  0  0  0  0  0  0  0  0  0
    3.1691   -3.5551  -18.5110 H   0  0  0  0  0  0  0  0  0  0  0  0
    3.4150   -3.4234  -16.7366 H   0  0  0  0  0  0  0  0  0  0  0  0
    4.4724   -2.5040  -17.8606 H   0  0  0  0  0  0  0  0  0  0  0  0
   10.4383   -5.0069  -17.7765 H   0  0  0  0  0  0  0  0  0  0  0  0
    8.7133   -5.4981  -17.8733 H   0  0  0  0  0  0  0  0  0  0  0  0
    9.4401   -4.5080  -19.1840 H   0  0  0  0  0  0  0  0  0  0  0  0
    4.6047    9.4091  -22.9270 H   0  0  0  0  0  0  0  0  0  0  0  0
    4.2732    8.0394  -21.8132 H   0  0  0  0  0  0  0  0  0  0  0  0
    4.1518    9.7302  -21.2188 H   0  0  0  0  0  0  0  0  0  0  0  0
    4.3369    2.5995  -21.4469 H   0  0  0  0  0  0  0  0  0  0  0  0
    3.5965    1.6024  -20.1491 H   0  0  0  0  0  0  0  0  0  0  0  0
    5.2887    6.8006  -16.1372 H   0  0  0  0  0  0  0  0  0  0  0  0
    4.0665    7.9366  -16.8023 H   0  0  0  0  0  0  0  0  0  0  0  0
    4.3381   -5.5647  -17.6197 H   0  0  0  0  0  0  0  0  0  0  0  0
    5.3955   -4.6454  -18.7437 H   0  0  0  0  0  0  0  0  0  0  0  0
    9.0240   -3.6139  -16.2776 H   0  0  0  0  0  0  0  0  0  0  0  0
    9.7509   -2.6238  -17.5884 H   0  0  0  0  0  0  0  0  0  0  0  0
    5.4944   -4.6427  -15.6798 H   0  0  0  0  0  0  0  0  0  0  0  0
    6.7198   -5.3143  -16.8084 H   0  0  0  0  0  0  0  0  0  0  0  0
    7.6418   -1.9005  -18.0499 H   0  0  0  0  0  0  0  0  0  0  0  0
    7.3161   -3.5479  -18.6876 H   0  0  0  0  0  0  0  0  0  0  0  0
    5.1192    4.2935  -17.0240 H   0  0  0  0  0  0  0  0  0  0  0  0
    5.8576    5.2086  -18.3820 H   0  0  0  0  0  0  0  0  0  0  0  0
    6.0562    3.4203  -19.9433 H   0  0  0  0  0  0  0  0  0  0  0  0
    3.3813    3.4126  -18.4471 H   0  0  0  0  0  0  0  0  0  0  0  0
    5.1067    1.3065  -18.0575 H   0  0  0  0  0  0  0  0  0  0  0  0
    3.3426    5.7099  -16.9966 H   0  0  0  0  0  0  0  0  0  0  0  0
    3.6149    6.3115  -18.4901 H   0  0  0  0  0  0  0  0  0  0  0  0
    3.2893    4.1535  -20.6678 H   0  0  0  0  0  0  0  0  0  0  0  0
  1 14  1  0  0  0  0
  1 34  3  0  0  0  0
  2  3  1  0  0  0  0
  2  4  2  0  0  0  0
  3  6  2  0  0  0  0
  4  7  1  0  0  0  0
  5  8  2  0  0  0  0
  5  9  1  0  0  0  0
  6 17  1  0  0  0  0
  7 17  2  0  0  0  0
  8 18  1  0  0  0  0
  9 19  2  0  0  0  0
 10 14  1  0  0  0  0
 10 15  2  0  0  0  0
 11 14  2  0  0  0  0
 11 16  1  0  0  0  0
 12 15  1  0  0  0  0
 12 16  2  0  0  0  0
 13 18  2  0  0  0  0
 13 19  1  0  0  0  0
 15 20  1  0  0  0  0
 16 21  1  0  0  0  0
 17 25  1  0  0  0  0
 18 26  1  0  0  0  0
 19 41  1  0  0  0  0
 20 35  1  0  0  0  0
 20 38  2  0  0  0  0
 21 36  1  0  0  0  0
 21 39  2  0  0  0  0
 22 27  1  0  0  0  0
 23 28  1  0  0  0  0
 24 41  1  0  0  0  0
 25 32  1  0  0  0  0
 26 37  1  0  0  0  0
 27 29  1  0  0  0  0
 28 30  1  0  0  0  0
 29 36  1  0  0  0  0
 30 36  1  0  0  0  0
 31 33  1  0  0  0  0
 31 37  1  0  0  0  0
 32 33  1  0  0  0  0
 32 35  1  0  0  0  0
 33 40  1  0  0  0  0
  2 42  1  0  0  0  0
  3 43  1  0  0  0  0
  4 44  1  0  0  0  0
  5 45  1  0  0  0  0
  6 46  1  0  0  0  0
  7 47  1  0  0  0  0
  8 48  1  0  0  0  0
  9 49  1  0  0  0  0
 10 50  1  0  0  0  0
 11 51  1  0  0  0  0
 12 52  1  0  0  0  0
 13 53  1  0  0  0  0
 22 54  1  0  0  0  0
 22 55  1  0  0  0  0
 22 56  1  0  0  0  0
 23 57  1  0  0  0  0
 23 58  1  0  0  0  0
 23 59  1  0  0  0  0
 24 60  1  0  0  0  0
 24 61  1  0  0  0  0
 24 62  1  0  0  0  0
 25 63  1  0  0  0  0
 25 64  1  0  0  0  0
 26 65  1  0  0  0  0
 26 66  1  0  0  0  0
 27 67  1  0  0  0  0
 27 68  1  0  0  0  0
 28 69  1  0  0  0  0
 28 70  1  0  0  0  0
 29 71  1  0  0  0  0
 29 72  1  0  0  0  0
 30 73  1  0  0  0  0
 30 74  1  0  0  0  0
 31 75  1  0  0  0  0
 31 76  1  0  0  0  0
 32 77  1  0  0  0  0
 33 78  1  0  0  0  0
 35 79  1  0  0  0  0
 37 80  1  0  0  0  0
 37 81  1  0  0  0  0
 40 82  1  0  0  0  0
M  CHG  1  37   1
M  END
> <OMEGA_C>
nnQdQQYXdT/n9V7BIJ7lQIBtp78W5KvB1uryQHjFZzwT863B8aq8QP8ix7+1mafBZ9UBQebOBEEu
DJTByUnXQC+Ciz8ytavBvwehQAOR9r49VKXBss7kQFd8+UAY64zBtaX3QIUHC0Fgc57BmW8GQcpi
yD9LTX3BCEgDQaxyI79C4GzBCczXQEwfuLz9QoXBya6tQCsmAUGSmJrBLwYNQXBMID+93W3B+o3r
QJ2Tnz+S3YXBEKjlQGKqd78TSXvBhE6uQL7sVz9AW6fBYeG5QP6e9UAeMZDBY6nMQNZqCUHY0aHB
RaHdQCNBDkDVAY7BZKTRQKbtEsDqNXrBBNJ6QEZgXMCGto3Bhe8WQb5YlsAMzpDB+U+WQLrSEEGX
IK/BKlaRQLvH/z/nY6TBu/GYQONj5EAya4jByNCcQDkplMB6F47B23AQQUXrWsBQ4orB4yG/QOCj
kMABTYXB7d/zQEwzPsBdaY7B7CudQEM8m0ABmI/B5K+mQH4iOUDX2JvBebuGQH6je0CwmZfBR8wq
QQ9XnD/Oo1LBqEO2QJkhA0BkA5PB6tXUQJj2TMB4roXBr4KBQOwfwECoI43BUqT0QE0uS0CrTZDB
vrO/QBwLJ8BggWnB9YJuQPDylkBJU6DB1QTDQNBOEEF4HKzBMNn6QJGACMDXmq3ByCUJQT9/Tj7c
PrHBhoCyQBZ3JMBlDqbBHU8SQV47BkGAipHBbGfhQKqWBkD3T63BfKmBQFPNK7/hCKLBrQvuQJ8Q
8EDN7oTBCccHQcEXEUFV56PBax8OQcgCIkDyHn7Bc20IQTzBrb+kDWHBTvy9QIDgib49qIrB3LKM
QA5r/0CfEp3BuNJKQO+GY8CdFpTBR49aQMkYW8CZ5IXB3B2PQAhCIMCI4o7BZwMnQaM4oMBGNo7B
q2kLQZTwr8Bw/I7BwgoXQWdBkMDSeJnBpFmTQJ+LFkGLarfBPb6IQI+hAEF0ga7BY9uEQMWuG0EG
wKnBGsiKQFdeJkAyk6vBES1mQB0bzT9fMaHBrTypQECe2UAGGYHBgCCCQKf4/UAga4bB/dGKQDsS
ssAR9YzBNqisQNqmlMD/8pXBaWIQQZdKZ8CWOILBfwMcQTzsJ8D4tIzBxdGvQJqQlMBQ4HrBgwjX
QI0OqsCtd4bBxIn0QI5D878fZpDB3R3qQNYQY8AkgJXBZdCjQBZkiUA+MYjBrnG7QLWspkBCDpPB
pMzBQPTlWkDji5/BFWdYQO1nWkCek5PBfWqjQEs7pz+9dZDBqu1VQEC3tkDz+IfB6FpnQBP4yUCg
65PBF4NSQDHphEDAV6XB

> <OMEGA_E>
0A59Pg==

> <OMEGA_NBR>
     23858

$$$$
50141638
  -OEChem-04172616093D

 84 86  0     1  0  0  0  0  0999 V2000
    7.2265   -1.2967  -21.4675 C   0  0  0  0  0  0  0  0  0  0  0  0
    7.6366    0.0245  -21.7384 C   0  0  0  0  0  0  0  0  0  0  0  0
    5.9438   -1.5451  -20.9390 C   0  0  0  0  0  0  0  0  0  0  0  0
    8.1311    8.3382  -18.4038 C   0  0  0  0  0  0  0  0  0  0  0  0
    6.7627    1.0983  -21.4840 C   0  0  0  0  0  0  0  0  0  0  0  0
    5.0709   -0.4728  -20.6778 C   0  0  0  0  0  0  0  0  0  0  0  0
    7.1429    7.8272  -17.5435 C   0  0  0  0  0  0  0  0  0  0  0  0
    7.7942    8.7226  -19.7159 C   0  0  0  0  0  0  0  0  0  0  0  0
    6.7547    0.0113  -16.6681 C   0  0  0  0  0  0  0  0  0  0  0  0
    8.3802    1.6225  -15.8221 C   0  0  0  0  0  0  0  0  0  0  0  0
    8.1823   -0.5720  -14.7789 C   0  0  0  0  0  0  0  0  0  0  0  0
    5.4714    8.0963  -19.3044 C   0  0  0  0  0  0  0  0  0  0  0  0
    7.3626    1.2847  -16.7430 C   0  0  0  0  0  0  0  0  0  0  0  0
    7.1789   -0.9225  -15.7021 C   0  0  0  0  0  0  0  0  0  0  0  0
    5.4775    0.8508  -20.9512 C   0  0  0  0  0  0  0  0  0  0  0  0
    5.8159    7.6969  -17.9945 C   0  0  0  0  0  0  0  0  0  0  0  0
    8.7702    0.7060  -14.8258 C   0  0  0  0  0  0  0  0  0  0  0  0
    6.4653    8.6137  -20.1787 C   0  0  0  0  0  0  0  0  0  0  0  0
    6.9363    2.2481  -17.7757 C   0  0  0  0  0  0  0  0  0  0  0  0
    6.5563   -2.2542  -15.6323 C   0  0  0  0  0  0  0  0  0  0  0  0
    9.8628    1.0713  -13.8471 C   0  0  0  0  0  0  0  0  0  0  0  0
    3.9326   -3.4207  -17.6565 C   0  0  0  0  0  0  0  0  0  0  0  0
    9.4835   -4.6249  -17.8939 C   0  0  0  0  0  0  0  0  0  0  0  0
    4.8205    9.0627  -21.8986 C   0  0  0  0  0  0  0  0  0  0  0  0
    4.5656    2.0050  -20.5938 C   0  0  0  0  0  0  0  0  0  0  0  0
    4.7655    7.1352  -17.0599 C   0  0  0  0  0  0  0  0  0  0  0  0
    4.9004   -4.6188  -17.6962 C   0  0  0  0  0  0  0  0  0  0  0  0
    9.0552   -3.2447  -17.3849 C   0  0  0  0  0  0  0  0  0  0  0  0
    6.0016   -4.4988  -16.6271 C   0  0  0  0  0  0  0  0  0  0  0  0
    7.6077   -2.9310  -17.8102 C   0  0  0  0  0  0  0  0  0  0  0  0
    4.9421    4.8770  -18.0215 C   0  0  0  0  0  0  0  0  0  0  0  0
    5.2209    2.8968  -19.5162 C   0  0  1  0  0  0  0  0  0  0  0  0
    4.2113    3.9061  -18.9498 C   0  0  2  0  0  0  0  0  0  0  0  0
    5.7247    2.0469  -18.4262 N   0  0  0  0  0  0  0  0  0  0  0  0
    6.6727   -3.1776  -16.6909 N   0  0  0  0  0  0  0  0  0  0  0  0
    4.0572    6.0045  -17.6839 N   0  3  0  0  0  0  0  0  0  0  0  0
    7.6402    3.2161  -18.0463 O   0  0  0  0  0  0  0  0  0  0  0  0
    5.9755   -2.5546  -14.5952 O   0  0  0  0  0  0  0  0  0  0  0  0
    3.6141    4.6407  -20.0184 O   0  0  0  0  0  0  0  0  0  0  0  0
    6.2051    9.0286  -21.4792 O   0  0  0  0  0  0  0  0  0  0  0  0
    7.8966   -2.1202  -21.6655 H   0  0  0  0  0  0  0  0  0  0  0  0
    8.6210    0.2128  -22.1409 H   0  0  0  0  0  0  0  0  0  0  0  0
    5.6310   -2.5583  -20.7344 H   0  0  0  0  0  0  0  0  0  0  0  0
    9.1495    8.4359  -18.0578 H   0  0  0  0  0  0  0  0  0  0  0  0
    7.0742    2.1105  -21.6959 H   0  0  0  0  0  0  0  0  0  0  0  0
    4.0898   -0.6627  -20.2682 H   0  0  0  0  0  0  0  0  0  0  0  0
    7.4022    7.5347  -16.5368 H   0  0  0  0  0  0  0  0  0  0  0  0
    8.5601    9.1045  -20.3746 H   0  0  0  0  0  0  0  0  0  0  0  0
    5.9616   -0.2472  -17.3541 H   0  0  0  0  0  0  0  0  0  0  0  0
    8.8610    2.5876  -15.8826 H   0  0  0  0  0  0  0  0  0  0  0  0
    8.5015   -1.2851  -14.0332 H   0  0  0  0  0  0  0  0  0  0  0  0
    4.4496    8.0082  -19.6429 H   0  0  0  0  0  0  0  0  0  0  0  0
    9.4167    1.5352  -12.9551 H   0  0  0  0  0  0  0  0  0  0  0  0
   10.4102    0.1635  -13.5533 H   0  0  0  0  0  0  0  0  0  0  0  0
   10.5571    1.7809  -14.3209 H   0  0  0  0  0  0  0  0  0  0  0  0
    3.1634   -3.5442  -18.4331 H   0  0  0  0  0  0  0  0  0  0  0  0
    3.4514   -3.3708  -16.6686 H   0  0  0  0  0  0  0  0  0  0  0  0
    4.4920   -2.4914  -17.8393 H   0  0  0  0  0  0  0  0  0  0  0  0
   10.5179   -4.8276  -17.5795 H   0  0  0  0  0  0  0  0  0  0  0  0
    8.8162   -5.3930  -17.4759 H   0  0  0  0  0  0  0  0  0  0  0  0
    9.4236   -4.6454  -18.9921 H   0  0  0  0  0  0  0  0  0  0  0  0
    4.7611    9.4069  -22.9417 H   0  0  0  0  0  0  0  0  0  0  0  0
    4.3889    8.0539  -21.8204 H   0  0  0  0  0  0  0  0  0  0  0  0
    4.2586    9.7530  -21.2523 H   0  0  0  0  0  0  0  0  0  0  0  0
    4.3732    2.6069  -21.4942 H   0  0  0  0  0  0  0  0  0  0  0  0
    3.6148    1.6092  -20.2073 H   0  0  0  0  0  0  0  0  0  0  0  0
    5.2530    6.7894  -16.1364 H   0  0  0  0  0  0  0  0  0  0  0  0
    4.0396    7.9254  -16.8175 H   0  0  0  0  0  0  0  0  0  0  0  0
    4.3308   -5.5429  -17.5187 H   0  0  0  0  0  0  0  0  0  0  0  0
    5.3714   -4.6635  -18.6893 H   0  0  0  0  0  0  0  0  0  0  0  0
    9.1203   -3.2288  -16.2870 H   0  0  0  0  0  0  0  0  0  0  0  0
    9.7277   -2.4812  -17.8032 H   0  0  0  0  0  0  0  0  0  0  0  0
    5.5500   -4.6237  -15.6319 H   0  0  0  0  0  0  0  0  0  0  0  0
    6.7491   -5.2887  -16.7924 H   0  0  0  0  0  0  0  0  0  0  0  0
    7.5400   -1.8754  -18.1122 H   0  0  0  0  0  0  0  0  0  0  0  0
    7.3328   -3.5737  -18.6595 H   0  0  0  0  0  0  0  0  0  0  0  0
    5.2330    4.3522  -17.0996 H   0  0  0  0  0  0  0  0  0  0  0  0
    5.8423    5.2576  -18.5264 H   0  0  0  0  0  0  0  0  0  0  0  0
    6.0560    3.4479  -19.9734 H   0  0  0  0  0  0  0  0  0  0  0  0
    3.4446    3.3649  -18.3759 H   0  0  0  0  0  0  0  0  0  0  0  0
    5.1594    1.2752  -18.1348 H   0  0  0  0  0  0  0  0  0  0  0  0
    3.3570    5.6791  -17.0484 H   0  0  0  0  0  0  0  0  0  0  0  0
    3.6209    6.3279  -18.5236 H   0  0  0  0  0  0  0  0  0  0  0  0
    3.1584    4.0423  -20.5987 H   0  0  0  0  0  0  0  0  0  0  0  0
  1  2  1  0  0  0  0
  1  3  2  0  0  0  0
  2  5  2  0  0  0  0
  3  6  1  0  0  0  0
  4  7  2  0  0  0  0
  4  8  1  0  0  0  0
  5 15  1  0  0  0  0
  6 15  2  0  0  0  0
  7 16  1  0  0  0  0
  8 18  2  0  0  0  0
  9 13  1  0  0  0  0
  9 14  2  0  0  0  0
 10 13  2  0  0  0  0
 10 17  1  0  0  0  0
 11 14  1  0  0  0  0
 11 17  2  0  0  0  0
 12 16  2  0  0  0  0
 12 18  1  0  0  0  0
 13 19  1  0  0  0  0
 14 20  1  0  0  0  0
 15 25  1  0  0  0  0
 16 26  1  0  0  0  0
 17 21  1  0  0  0  0
 18 40  1  0  0  0  0
 19 34  1  0  0  0  0
 19 37  2  0  0  0  0
 20 35  1  0  0  0  0
 20 38  2  0  0  0  0
 22 27  1  0  0  0  0
 23 28  1  0  0  0  0
 24 40  1  0  0  0  0
 25 32  1  0  0  0  0
 26 36  1  0  0  0  0
 27 29  1  0  0  0  0
 28 30  1  0  0  0  0
 29 35  1  0  0  0  0
 30 35  1  0  0  0  0
 31 33  1  0  0  0  0
 31 36  1  0  0  0  0
 32 33  1  0  0  0  0
 32 34  1  0  0  0  0
 33 39  1  0  0  0  0
  1 41  1  0  0  0  0
  2 42  1  0  0  0  0
  3 43  1  0  0  0  0
  4 44  1  0  0  0  0
  5 45  1  0  0  0  0
  6 46  1  0  0  0  0
  7 47  1  0  0  0  0
  8 48  1  0  0  0  0
  9 49  1  0  0  0  0
 10 50  1  0  0  0  0
 11 51  1  0  0  0  0
 12 52  1  0  0  0  0
 21 53  1  0  0  0  0
 21 54  1  0  0  0  0
 21 55  1  0  0  0  0
 22 56  1  0  0  0  0
 22 57  1  0  0  0  0
 22 58  1  0  0  0  0
 23 59  1  0  0  0  0
 23 60  1  0  0  0  0
 23 61  1  0  0  0  0
 24 62  1  0  0  0  0
 24 63  1  0  0  0  0
 24 64  1  0  0  0  0
 25 65  1  0  0  0  0
 25 66  1  0  0  0  0
 26 67  1  0  0  0  0
 26 68  1  0  0  0  0
 27 69  1  0  0  0  0
 27 70  1  0  0  0  0
 28 71  1  0  0  0  0
 28 72  1  0  0  0  0
 29 73  1  0  0  0  0
 29 74  1  0  0  0  0
 30 75  1  0  0  0  0
 30 76  1  0  0  0  0
 31 77  1  0  0  0  0
 31 78  1  0  0  0  0
 32 79  1  0  0  0  0
 33 80  1  0  0  0  0
 34 81  1  0  0  0  0
 36 82  1  0  0  0  0
 36 83  1  0  0  0  0
 39 84  1  0  0  0  0
M  CHG  1  36   1
M  END
> <OMEGA_C>
qz/nQPT4pb+EvavBZF/0QOhyyDxA6K3B+zO+QArFxb8Ag6fBCRkCQUlpBUEGO5PBOGjYQKaUjD9U
36vB9ESiQE4V8r4vbKXBp5LkQDN4+kAtWYzBvGn5QMmPC0FCup3BVybYQADOODwxWIXBWxUGQTKt
zz9tJ33Bl+oCQZFtEr89dmzB3RWvQEqKAUFzb5rBfprrQKZwpD+d8YXBSrnlQNkobL/6O3vBU0ev
QBnNWT8lnKfB6hu6QNJM9kDK9I/B31IMQbq9ND+ENm3Bt+POQNTRCUHybaHBXPbdQFLgD0CaNI7B
Mc3RQK5EEMDqHXrBOM4dQRMgiT/OjV3BlK97QCrtWsCbQI3BVLwXQYn/k8DOJo/BL0GaQL4AEUFk
MK/BgRmSQAJSAEAfwKTBIn+YQN1T5ECkeojBOtCcQGPNk8DekY3BP+IQQV2oT8BPFIvBKg3AQBr2
j8BlBIXBOnLzQH2VO8Aye47BmSWeQL8QnEAMLJDB2RGnQOllOUA8IZzBksKGQOr8eUAvmZfBCzG3
QHwAA0DtaJPBkobVQGVdS8D+hoXBs9SBQP0kwECieI3BcXz0QEXUTUDpXpDBNTe/QCV+I8AUhmnB
hk1nQIqAlECwJaDBXJDGQDZ1EEF01avBzLD8QKmxB8DZUq3BjO8JQRHcWT6eILHB9zC0QHm7I8AD
4KXBVWQSQZz5BkFWdpDB+1/iQLERB0A6ka3B29+CQGWkKb80JaLB097sQAEc8UBKS4TBSvYIQe+r
EUE9/6LBh8W+QCMpfb4n1YrB0cYNQfebJUDtHn7BAQYIQZx8pL/nh2DBTGOOQLghAEGxJJ3B56oW
QSWCxD/9R0/BM5AmQbdyJz4j2ljBAeooQUHz4z94ImXBq3RKQEHUYsACd5PBqONcQF67V8BgWYXB
xL6PQDhzH8DUto7BV0koQZd7msDBoozB/Q4NQaWTrMC1zovB38YWQVanlMDe75fB5FqYQJaCFkGb
iLfBiHGMQNncAEEwkK7BW0aIQGMMHEG6BKrBmvGLQJbXJkAg9KvBillnQIb7zT+GqKHBsRioQKdC
2UBxF4HBXkSBQImc/UBEiobBrpWKQKhfscAyJozBn+KrQJU7lcCng5XBvuwRQVGkTsCwS4LBoKQb
QbPLHsDabI7BnJmxQCv1k8BiHHrBefjXQDM9qcC/VobB/EfxQJsO8L/H5ZDBcKbqQEu4ZMCRRpXB
bXSnQNVEi0AEzIjBzPO6QAY+qEAENpTBosrBQCqqXECWyZ/BDXRcQI5aV0DUAZPByxmlQOQ6oz8f
FJHBitlWQBO7tUAsY4jB1rxnQB9+ykBKMJTBkSJKQO1agUA0yqTB

> <OMEGA_E>
0JsmPg==

> <OMEGA_NBR>
     25539

$$$$
50141644
  -OEChem-04172616093D

 83 85  0     1  0  0  0  0  0999 V2000
    7.1095   -1.2969  -21.5550 C   0  0  0  0  0  0  0  0  0  0  0  0
    7.5418    0.0230  -21.7940 C   0  0  0  0  0  0  0  0  0  0  0  0
    5.8205   -1.5359  -21.0374 C   0  0  0  0  0  0  0  0  0  0  0  0
    8.1649    8.2990  -18.4345 C   0  0  0  0  0  0  0  0  0  0  0  0
    6.6852    1.1044  -21.5151 C   0  0  0  0  0  0  0  0  0  0  0  0
    4.9692   -0.4564  -20.7410 C   0  0  0  0  0  0  0  0  0  0  0  0
    7.1937    7.7928  -17.5522 C   0  0  0  0  0  0  0  0  0  0  0  0
    7.8012    8.6814  -19.7401 C   0  0  0  0  0  0  0  0  0  0  0  0
    6.7791   -0.0556  -16.8020 C   0  0  0  0  0  0  0  0  0  0  0  0
    8.3873    1.5537  -15.9186 C   0  0  0  0  0  0  0  0  0  0  0  0
    8.1970   -0.6563  -14.9122 C   0  0  0  0  0  0  0  0  0  0  0  0
    5.4867    8.0605  -19.2792 C   0  0  0  0  0  0  0  0  0  0  0  0
    7.3741    1.2246  -16.8453 C   0  0  0  0  0  0  0  0  0  0  0  0
    7.2020   -0.9964  -15.8444 C   0  0  0  0  0  0  0  0  0  0  0  0
    8.7958    0.6211  -14.9386 C   0  0  0  0  0  0  0  0  0  0  0  0
    5.3978    0.8659  -20.9828 C   0  0  0  0  0  0  0  0  0  0  0  0
    5.8573    7.6647  -17.9752 C   0  0  0  0  0  0  0  0  0  0  0  0
    6.4629    8.5740  -20.1748 C   0  0  0  0  0  0  0  0  0  0  0  0
    6.9309    2.2131  -17.8437 C   0  0  0  0  0  0  0  0  0  0  0  0
    6.5782   -2.3233  -15.7717 C   0  0  0  0  0  0  0  0  0  0  0  0
    9.8208    0.9859  -13.9314 C   0  0  0  0  0  0  0  0  0  0  0  0
    3.9155   -3.4245  -17.7046 C   0  0  0  0  0  0  0  0  0  0  0  0
    9.5147   -4.2047  -17.1624 C   0  0  0  0  0  0  0  0  0  0  0  0
    4.7819    9.0564  -21.8493 C   0  0  0  0  0  0  0  0  0  0  0  0
    4.5029    2.0260  -20.6028 C   0  0  0  0  0  0  0  0  0  0  0  0
    4.8251    7.1090  -17.0174 C   0  0  0  0  0  0  0  0  0  0  0  0
    4.8462   -4.6510  -17.7672 C   0  0  0  0  0  0  0  0  0  0  0  0
    8.5431   -4.0513  -18.3455 C   0  0  0  0  0  0  0  0  0  0  0  0
    5.9755   -4.5682  -16.7241 C   0  0  0  0  0  0  0  0  0  0  0  0
    7.4780   -2.9808  -18.0515 C   0  0  0  0  0  0  0  0  0  0  0  0
    4.9517    4.8585  -18.0006 C   0  0  0  0  0  0  0  0  0  0  0  0
    5.1855    2.9035  -19.5321 C   0  0  1  0  0  0  0  0  0  0  0  0
    4.1987    3.9207  -18.9440 C   0  0  2  0  0  0  0  0  0  0  0  0
    5.6981    2.0396  -18.4586 N   0  0  0  0  0  0  0  0  0  0  0  0
    6.7043   -3.2721  -16.8087 N   0  0  0  0  0  0  0  0  0  0  0  0
    4.0881    5.9925  -17.6330 N   0  3  0  0  0  0  0  0  0  0  0  0
   10.1519    0.1529  -13.0449 O   0  5  0  0  0  0  0  0  0  0  0  0
    7.6362    3.1808  -18.1124 O   0  0  0  0  0  0  0  0  0  0  0  0
    5.9881   -2.6025  -14.7336 O   0  0  0  0  0  0  0  0  0  0  0  0
   10.3427    2.1331  -13.9545 O   0  0  0  0  0  0  0  0  0  0  0  0
    3.6180    4.6874  -19.9989 O   0  0  0  0  0  0  0  0  0  0  0  0
    6.1770    8.9814  -21.4721 O   0  0  0  0  0  0  0  0  0  0  0  0
    7.7669   -2.1266  -21.7688 H   0  0  0  0  0  0  0  0  0  0  0  0
    8.5298    0.2046  -22.1908 H   0  0  0  0  0  0  0  0  0  0  0  0
    5.4863   -2.5488  -20.8683 H   0  0  0  0  0  0  0  0  0  0  0  0
    9.1907    8.3945  -18.1104 H   0  0  0  0  0  0  0  0  0  0  0  0
    7.0113    2.1158  -21.7078 H   0  0  0  0  0  0  0  0  0  0  0  0
    3.9881   -0.6394  -20.3285 H   0  0  0  0  0  0  0  0  0  0  0  0
    7.4732    7.5024  -16.5503 H   0  0  0  0  0  0  0  0  0  0  0  0
    8.5539    9.0607  -20.4153 H   0  0  0  0  0  0  0  0  0  0  0  0
    5.9995   -0.3127  -17.5039 H   0  0  0  0  0  0  0  0  0  0  0  0
    8.8543    2.5267  -15.9591 H   0  0  0  0  0  0  0  0  0  0  0  0
    8.5057   -1.3778  -14.1703 H   0  0  0  0  0  0  0  0  0  0  0  0
    4.4581    7.9726  -19.5966 H   0  0  0  0  0  0  0  0  0  0  0  0
    3.1256   -3.5238  -18.4637 H   0  0  0  0  0  0  0  0  0  0  0  0
    3.4584   -3.3619  -16.7060 H   0  0  0  0  0  0  0  0  0  0  0  0
    4.4981   -2.5119  -17.8990 H   0  0  0  0  0  0  0  0  0  0  0  0
   10.2635   -4.9747  -17.3997 H   0  0  0  0  0  0  0  0  0  0  0  0
   10.0209   -3.2459  -16.9772 H   0  0  0  0  0  0  0  0  0  0  0  0
    8.9542   -4.5030  -16.2642 H   0  0  0  0  0  0  0  0  0  0  0  0
    4.7015    9.3897  -22.8945 H   0  0  0  0  0  0  0  0  0  0  0  0
    4.3200    8.0636  -21.7447 H   0  0  0  0  0  0  0  0  0  0  0  0
    4.2633    9.7729  -21.1953 H   0  0  0  0  0  0  0  0  0  0  0  0
    4.3006    2.6355  -21.4959 H   0  0  0  0  0  0  0  0  0  0  0  0
    3.5552    1.6368  -20.2022 H   0  0  0  0  0  0  0  0  0  0  0  0
    5.3319    6.7496  -16.1097 H   0  0  0  0  0  0  0  0  0  0  0  0
    4.1154    7.9057  -16.7500 H   0  0  0  0  0  0  0  0  0  0  0  0
    4.2529   -5.5577  -17.5780 H   0  0  0  0  0  0  0  0  0  0  0  0
    5.2926   -4.7078  -18.7710 H   0  0  0  0  0  0  0  0  0  0  0  0
    9.1106   -3.7573  -19.2408 H   0  0  0  0  0  0  0  0  0  0  0  0
    8.0439   -5.0144  -18.5278 H   0  0  0  0  0  0  0  0  0  0  0  0
    5.5410   -4.6688  -15.7186 H   0  0  0  0  0  0  0  0  0  0  0  0
    6.6857   -5.3895  -16.9006 H   0  0  0  0  0  0  0  0  0  0  0  0
    7.9780   -2.0078  -17.9362 H   0  0  0  0  0  0  0  0  0  0  0  0
    6.7793   -2.9357  -18.8999 H   0  0  0  0  0  0  0  0  0  0  0  0
    5.2398    4.3091  -17.0923 H   0  0  0  0  0  0  0  0  0  0  0  0
    5.8548    5.2349  -18.5034 H   0  0  0  0  0  0  0  0  0  0  0  0
    6.0193    3.4472  -20.0003 H   0  0  0  0  0  0  0  0  0  0  0  0
    3.4212    3.3853  -18.3793 H   0  0  0  0  0  0  0  0  0  0  0  0
    5.1236    1.2805  -18.1524 H   0  0  0  0  0  0  0  0  0  0  0  0
    3.3996    5.6699  -16.9834 H   0  0  0  0  0  0  0  0  0  0  0  0
    3.6355    6.3279  -18.4593 H   0  0  0  0  0  0  0  0  0  0  0  0
    3.1482    4.1099  -20.5892 H   0  0  0  0  0  0  0  0  0  0  0  0
  1  2  1  0  0  0  0
  1  3  2  0  0  0  0
  2  5  2  0  0  0  0
  3  6  1  0  0  0  0
  4  7  2  0  0  0  0
  4  8  1  0  0  0  0
  5 16  1  0  0  0  0
  6 16  2  0  0  0  0
  7 17  1  0  0  0  0
  8 18  2  0  0  0  0
  9 13  2  0  0  0  0
  9 14  1  0  0  0  0
 10 13  1  0  0  0  0
 10 15  2  0  0  0  0
 11 14  2  0  0  0  0
 11 15  1  0  0  0  0
 12 17  2  0  0  0  0
 12 18  1  0  0  0  0
 13 19  1  0  0  0  0
 14 20  1  0  0  0  0
 15 21  1  0  0  0  0
 16 25  1  0  0  0  0
 17 26  1  0  0  0  0
 18 42  1  0  0  0  0
 19 34  1  0  0  0  0
 19 38  2  0  0  0  0
 20 35  1  0  0  0  0
 20 39  2  0  0  0  0
 21 37  1  0  0  0  0
 21 40  2  0  0  0  0
 22 27  1  0  0  0  0
 23 28  1  0  0  0  0
 24 42  1  0  0  0  0
 25 32  1  0  0  0  0
 26 36  1  0  0  0  0
 27 29  1  0  0  0  0
 28 30  1  0  0  0  0
 29 35  1  0  0  0  0
 30 35  1  0  0  0  0
 31 33  1  0  0  0  0
 31 36  1  0  0  0  0
 32 33  1  0  0  0  0
 32 34  1  0  0  0  0
 33 41  1  0  0  0  0
  1 43  1  0  0  0  0
  2 44  1  0  0  0  0
  3 45  1  0  0  0  0
  4 46  1  0  0  0  0
  5 47  1  0  0  0  0
  6 48  1  0  0  0  0
  7 49  1  0  0  0  0
  8 50  1  0  0  0  0
  9 51  1  0  0  0  0
 10 52  1  0  0  0  0
 11 53  1  0  0  0  0
 12 54  1  0  0  0  0
 22 55  1  0  0  0  0
 22 56  1  0  0  0  0
 22 57  1  0  0  0  0
 23 58  1  0  0  0  0
 23 59  1  0  0  0  0
 23 60  1  0  0  0  0
 24 61  1  0  0  0  0
 24 62  1  0  0  0  0
 24 63  1  0  0  0  0
 25 64  1  0  0  0  0
 25 65  1  0  0  0  0
 26 66  1  0  0  0  0
 26 67  1  0  0  0  0
 27 68  1  0  0  0  0
 27 69  1  0  0  0  0
 28 70  1  0  0  0  0
 28 71  1  0  0  0  0
 29 72  1  0  0  0  0
 29 73  1  0  0  0  0
 30 74  1  0  0  0  0
 30 75  1  0  0  0  0
 31 76  1  0  0  0  0
 31 77  1  0  0  0  0
 32 78  1  0  0  0  0
 33 79  1  0  0  0  0
 34 80  1  0  0  0  0
 36 81  1  0  0  0  0
 36 82  1  0  0  0  0
 41 83  1  0  0  0  0
M  CHG  2  36   1  37  -1
M  END
> <OMEGA_C>
4IDjQIwBpr+ZcKzB0VbxQIB7vDwGWq7BzUG6QMKXxL+jTKjBXaMCQaDIBEHDeZPB8+zVQEpdjT/x
HqzBCwSfQMCn6b6J7aXBxjLmQMRe+UDzaozBkqP5QCXnCkGk653BYO7YQFTbY72TaobBgTIGQUjf
xj+fsn7B8CYDQZoBKL+MmG7B05KvQLv3AEHFO5rBB/nrQBbAnD84w4bBkXbmQI0Vf7+Ygn3Bb7sM
Qe7/Hj+SBG/ByrqsQGCoXT/O3KfBU2+7QHdF9UBDzY/BQdDOQPIuCUENZqHBCsrdQAmjDUDvv47B
zoDSQKKwFMAOWXzBHyIdQWlmfD/y5l7BNJd6QA0rW8Dzoo3BITwYQRqNhsCxTInB9QSZQB7nEEFw
y67BiReQQD2qAUB90qTBA2eaQMd840C1I4jBOBSbQK/UlMBJI47Bd7AIQXykgcCkw5LBODe/QNAu
ksAGy4XBvEvvQLrFPsCEaZDBKnSeQOt4m0BJAZDBre+lQCrSOUCyQZzBsVuGQOPsekBqjZfBkFa2
QFKJAkAtq5PBSonWQNJpUcBReIbBZNGCQH/Cv0B0EI3BTm4iQYiIHD7Wt1DB0lv0QEeSS0Ab5pDB
h56/QLSOJsC/vGvBiXslQeCECEB2RV/BDI1nQBz/lUDX/Z/BKKrFQPqzD0HUxqvBxYr4QNsaCMCA
Jq7B7nkIQbV7UT6qhrHBeY+vQA8gI8BQ8qbB/AwTQc5PBkEA4pDB9lzgQCdpB0B+qa3BYTx/QKKx
I7+3oKLBhSTvQNMT8EDqZoTB5dwIQcX4EEGKUqPBA/y/QKoYoL7tB4zBD6sNQVO1IUB1WH/BRBcI
QftbsL92uWLB2KiOQGgf/0DHxZzB+QlIQAiGYcCatZPBGVZdQEopV8DhpYXBM/CPQI/DIMArMY/B
aDckQQcxn8CwMovBs1UgQVW8T8BN0YfBdUQPQZoYkMAEHYLBvHKWQEA8FkEHKLfBRj2KQHsEAUER
9a3B5WyIQKxdHEHqj6nBk56JQDOsKECI96vBAYljQMSB0T8SnqHBBZ+qQKj810Cy4IDB9bCDQKn7
/EAVAIbBIhiIQM/YscCln4zBSV2pQPKllsDvKpbB4cQRQYp3cMAn7ZnBo7MAQTV2oMDdOJTBRlCx
QLVmlcBJf3vB2vDVQPR2rMBbNIfBYEv/QAyAAMA/fY/B1u/YQAPjO8ADM5fBMKynQNbjiUD5vIjB
Nlq7QA2Ep0D/BpTBx53AQMaeXECOAKDBR/VaQI6pWEDWCJPBW/SjQNvooz8cOJHBRJNZQKtvtUAZ
3ofBi6toQDx+ykCTrJPBkXxJQI+Eg0ChtqTB

> <OMEGA_E>
OP2GPg==

> <OMEGA_NBR>
     27207

$$$$
50154205
  -OEChem-04172616093D

 81 83  0     1  0  0  0  0  0999 V2000
    8.7910    0.7417  -14.7207 C   0  0  0  0  0  0  0  0  0  0  0  0
    8.1253    8.3480  -18.4983 C   0  0  0  0  0  0  0  0  0  0  0  0
    8.4125    1.6548  -15.7267 C   0  0  0  0  0  0  0  0  0  0  0  0
    8.1864   -0.5300  -14.6558 C   0  0  0  0  0  0  0  0  0  0  0  0
    7.1461    7.8537  -17.6186 C   0  0  0  0  0  0  0  0  0  0  0  0
    7.7721    8.7206  -19.8097 C   0  0  0  0  0  0  0  0  0  0  0  0
    6.7986    0.0372  -16.5792 C   0  0  0  0  0  0  0  0  0  0  0  0
    5.4536    8.1032  -19.3622 C   0  0  0  0  0  0  0  0  0  0  0  0
    6.6867    1.0897  -21.4180 C   0  0  0  0  0  0  0  0  0  0  0  0
    4.9733   -0.4836  -20.6679 C   0  0  0  0  0  0  0  0  0  0  0  0
    7.1089   -1.3085  -21.5081 C   0  0  0  0  0  0  0  0  0  0  0  0
    7.4068    1.3078  -16.6617 C   0  0  0  0  0  0  0  0  0  0  0  0
    7.2011   -0.8916  -15.6004 C   0  0  0  0  0  0  0  0  0  0  0  0
    5.8130    7.7240  -18.0507 C   0  0  0  0  0  0  0  0  0  0  0  0
    5.4067    0.8406  -20.8770 C   0  0  0  0  0  0  0  0  0  0  0  0
    6.4366    8.6118  -20.2537 C   0  0  0  0  0  0  0  0  0  0  0  0
    7.5412    0.0150  -21.7207 C   0  0  0  0  0  0  0  0  0  0  0  0
    5.8206   -1.5559  -20.9960 C   0  0  0  0  0  0  0  0  0  0  0  0
    6.9768    2.2527  -17.7166 C   0  0  0  0  0  0  0  0  0  0  0  0
    6.5761   -2.2304  -15.5671 C   0  0  0  0  0  0  0  0  0  0  0  0
    3.9910   -3.4596  -17.9636 C   0  0  0  0  0  0  0  0  0  0  0  0
    9.2863   -4.7357  -17.9088 C   0  0  0  0  0  0  0  0  0  0  0  0
    4.7682    9.0380  -21.9574 C   0  0  0  0  0  0  0  0  0  0  0  0
    4.5151    1.9895  -20.4808 C   0  0  0  0  0  0  0  0  0  0  0  0
    4.7721    7.1879  -17.0923 C   0  0  0  0  0  0  0  0  0  0  0  0
    4.4227   -4.2773  -16.7364 C   0  0  0  0  0  0  0  0  0  0  0  0
    9.0013   -3.3397  -17.3494 C   0  0  0  0  0  0  0  0  0  0  0  0
    5.9541   -4.4123  -16.6544 C   0  0  0  0  0  0  0  0  0  0  0  0
    7.5998   -2.8592  -17.7710 C   0  0  0  0  0  0  0  0  0  0  0  0
    4.9601    4.9039  -17.9886 C   0  0  0  0  0  0  0  0  0  0  0  0
    5.2171    2.8882  -19.4386 C   0  0  1  0  0  0  0  0  0  0  0  0
    4.2216    3.9181  -18.8888 C   0  0  2  0  0  0  0  0  0  0  0  0
    5.7452    2.0536  -18.3414 N   0  0  0  0  0  0  0  0  0  0  0  0
    6.6283   -3.0934  -16.6830 N   0  0  0  0  0  0  0  0  0  0  0  0
    4.0689    6.0332  -17.6729 N   0  3  0  0  0  0  0  0  0  0  0  0
    7.6881    3.2043  -18.0222 O   0  0  0  0  0  0  0  0  0  0  0  0
    6.0125   -2.5798  -14.5357 O   0  0  0  0  0  0  0  0  0  0  0  0
    3.6304    4.6371  -19.9736 O   0  0  0  0  0  0  0  0  0  0  0  0
    6.1575    9.0244  -21.5512 O   0  0  0  0  0  0  0  0  0  0  0  0
    8.7743    0.2536  -22.2202 F   0  0  0  0  0  0  0  0  0  0  0  0
    5.3943   -2.8251  -20.8316 F   0  0  0  0  0  0  0  0  0  0  0  0
    9.5455    1.0173  -13.9987 H   0  0  0  0  0  0  0  0  0  0  0  0
    9.1493    8.4420  -18.1681 H   0  0  0  0  0  0  0  0  0  0  0  0
    8.8908    2.6214  -15.7843 H   0  0  0  0  0  0  0  0  0  0  0  0
    8.4766   -1.2274  -13.8839 H   0  0  0  0  0  0  0  0  0  0  0  0
    7.4170    7.5736  -16.6114 H   0  0  0  0  0  0  0  0  0  0  0  0
    8.5305    9.0934  -20.4822 H   0  0  0  0  0  0  0  0  0  0  0  0
    6.0153   -0.2259  -17.2747 H   0  0  0  0  0  0  0  0  0  0  0  0
    4.4288    8.0065  -19.6890 H   0  0  0  0  0  0  0  0  0  0  0  0
    7.0091    2.1045  -21.5991 H   0  0  0  0  0  0  0  0  0  0  0  0
    3.9930   -0.6741  -20.2567 H   0  0  0  0  0  0  0  0  0  0  0  0
    7.7660   -2.1343  -21.7380 H   0  0  0  0  0  0  0  0  0  0  0  0
    2.8938   -3.3853  -17.9878 H   0  0  0  0  0  0  0  0  0  0  0  0
    4.4255   -2.4509  -17.9032 H   0  0  0  0  0  0  0  0  0  0  0  0
    4.3450   -3.9572  -18.8785 H   0  0  0  0  0  0  0  0  0  0  0  0
   10.2903   -5.0586  -17.5962 H   0  0  0  0  0  0  0  0  0  0  0  0
    8.5374   -5.4442  -17.5253 H   0  0  0  0  0  0  0  0  0  0  0  0
    9.2358   -4.7077  -19.0073 H   0  0  0  0  0  0  0  0  0  0  0  0
    4.6936    9.3826  -22.9994 H   0  0  0  0  0  0  0  0  0  0  0  0
    4.3527    8.0227  -21.8766 H   0  0  0  0  0  0  0  0  0  0  0  0
    4.2021    9.7189  -21.3048 H   0  0  0  0  0  0  0  0  0  0  0  0
    4.2783    2.5877  -21.3730 H   0  0  0  0  0  0  0  0  0  0  0  0
    3.5849    1.5927  -20.0480 H   0  0  0  0  0  0  0  0  0  0  0  0
    5.2668    6.8770  -16.1603 H   0  0  0  0  0  0  0  0  0  0  0  0
    4.0421    7.9811  -16.8729 H   0  0  0  0  0  0  0  0  0  0  0  0
    4.0595   -3.7754  -15.8275 H   0  0  0  0  0  0  0  0  0  0  0  0
    3.9790   -5.2816  -16.8028 H   0  0  0  0  0  0  0  0  0  0  0  0
    9.0563   -3.3728  -16.2513 H   0  0  0  0  0  0  0  0  0  0  0  0
    9.7547   -2.6362  -17.7334 H   0  0  0  0  0  0  0  0  0  0  0  0
    6.2159   -4.9251  -15.7171 H   0  0  0  0  0  0  0  0  0  0  0  0
    6.3046   -5.0093  -17.5092 H   0  0  0  0  0  0  0  0  0  0  0  0
    7.6381   -1.7835  -17.9979 H   0  0  0  0  0  0  0  0  0  0  0  0
    7.2811   -3.4118  -18.6671 H   0  0  0  0  0  0  0  0  0  0  0  0
    5.2587    4.3996  -17.0578 H   0  0  0  0  0  0  0  0  0  0  0  0
    5.8558    5.2761  -18.5076 H   0  0  0  0  0  0  0  0  0  0  0  0
    6.0448    3.4201  -19.9305 H   0  0  0  0  0  0  0  0  0  0  0  0
    3.4502    3.3977  -18.3021 H   0  0  0  0  0  0  0  0  0  0  0  0
    5.1806    1.2919  -18.0236 H   0  0  0  0  0  0  0  0  0  0  0  0
    3.3799    5.7201  -17.0192 H   0  0  0  0  0  0  0  0  0  0  0  0
    3.6190    6.3273  -18.5162 H   0  0  0  0  0  0  0  0  0  0  0  0
    3.1676    4.0315  -20.5407 H   0  0  0  0  0  0  0  0  0  0  0  0
  1  3  1  0  0  0  0
  1  4  2  0  0  0  0
  2  5  2  0  0  0  0
  2  6  1  0  0  0  0
  3 12  2  0  0  0  0
  4 13  1  0  0  0  0
  5 14  1  0  0  0  0
  6 16  2  0  0  0  0
  7 12  1  0  0  0  0
  7 13  2  0  0  0  0
  8 14  2  0  0  0  0
  8 16  1  0  0  0  0
  9 15  1  0  0  0  0
  9 17  2  0  0  0  0
 10 15  2  0  0  0  0
 10 18  1  0  0  0  0
 11 17  1  0  0  0  0
 11 18  2  0  0  0  0
 12 19  1  0  0  0  0
 13 20  1  0  0  0  0
 14 25  1  0  0  0  0
 15 24  1  0  0  0  0
 16 39  1  0  0  0  0
 17 40  1  0  0  0  0
 18 41  1  0  0  0  0
 19 33  1  0  0  0  0
 19 36  2  0  0  0  0
 20 34  1  0  0  0  0
 20 37  2  0  0  0  0
 21 26  1  0  0  0  0
 22 27  1  0  0  0  0
 23 39  1  0  0  0  0
 24 31  1  0  0  0  0
 25 35  1  0  0  0  0
 26 28  1  0  0  0  0
 27 29  1  0  0  0  0
 28 34  1  0  0  0  0
 29 34  1  0  0  0  0
 30 32  1  0  0  0  0
 30 35  1  0  0  0  0
 31 32  1  0  0  0  0
 31 33  1  0  0  0  0
 32 38  1  0  0  0  0
  1 42  1  0  0  0  0
  2 43  1  0  0  0  0
  3 44  1  0  0  0  0
  4 45  1  0  0  0  0
  5 46  1  0  0  0  0
  6 47  1  0  0  0  0
  7 48  1  0  0  0  0
  8 49  1  0  0  0  0
  9 50  1  0  0  0  0
 10 51  1  0  0  0  0
 11 52  1  0  0  0  0
 21 53  1  0  0  0  0
 21 54  1  0  0  0  0
 21 55  1  0  0  0  0
 22 56  1  0  0  0  0
 22 57  1  0  0  0  0
 22 58  1  0  0  0  0
 23 59  1  0  0  0  0
 23 60  1  0  0  0  0
 23 61  1  0  0  0  0
 24 62  1  0  0  0  0
 24 63  1  0  0  0  0
 25 64  1  0  0  0  0
 25 65  1  0  0  0  0
 26 66  1  0  0  0  0
 26 67  1  0  0  0  0
 27 68  1  0  0  0  0
 27 69  1  0  0  0  0
 28 70  1  0  0  0  0
 28 71  1  0  0  0  0
 29 72  1  0  0  0  0
 29 73  1  0  0  0  0
 30 74  1  0  0  0  0
 30 75  1  0  0  0  0
 31 76  1  0  0  0  0
 32 77  1  0  0  0  0
 33 78  1  0  0  0  0
 35 79  1  0  0  0  0
 35 80  1  0  0  0  0
 38 81  1  0  0  0  0
M  CHG  1  35   1
M  END
> <OMEGA_C>
B6gMQZfgPT/Oh2vBWwECQW+RBUGX/JPBfpkGQRnS0z+6oHvBdvsCQRqtB78DfmrBwqzkQHNR+0D7
8ozBC7X4QK+HC0Ezep7B343ZQBhCGD00ooTBKISuQJ+mAUHc5ZrB0vnVQIh8iz8WWKvBZCWfQMmb
977KV6XBcHzjQKl9p7+fEKzB2gTtQHRkpz9DS4XBp2/mQIg/ZL8Ym3nBegS6QAUr90DiZ5DB1gOt
QF4wVz8NBKfBnvjNQM3JCUGaB6LBW1HxQACddTwIxK3BWEK6QJcox7/Q96fBrkHfQPMsEECau43B
B2/SQHW/DsCoEnnBG21/QF5qXcBgtY/B0pQUQd+Kl8BLRY/B0ZSYQJCbEEHPqK/BinuQQLin/j+x
2KPBrLSYQJwD5kD+vIjBxIaNQJTfiMA25IXBLgUQQUG+VcCiy4rB1oe+QLgxjcAgPIXBsTHzQO78
NsADK47BLLmeQMvsnECz6I/BWPKmQHXXOEBEgpvBmxeHQN/BekAuHJfBuNi3QNRtA0BCu5LBTRvU
QLP5RcCydoXBbjSCQPQPwUAnYo3BGQX2QOcTTUCELZDBWGbAQMAaJcAVkmjBiFhoQFhjlED1yZ/B
RgrFQMhjEEHJaKzBV2MMQfDYgT79wrHBu52sQFLONMAsp6bBULoYQbo3gj+t+l/BdmMSQXASB0Er
WJHBokAOQcbFJ0CHjHzBK6AHQQUcnb97JF7BsFftQIha8kAi5ITB03wIQWB+EUGc26PBnH3AQBBb
Z76WMorBuriNQIkaAEEMg53Bz0rgQJKvBkD2yqzBMo1/QGKSLL+qDaLB8IL4QM2XCMBo563BUjQ5
QAWoWMAD54/B952NQBnbHMC5OY/BLgqLQPhBfcA9B5fBL6UkQeHfocABxYzBXJkIQUA3rsC8M4zB
4MUTQbSllsD8DpjBWjKWQCcfFkG+/rfBC0mLQOtcAEE0A6/BkneGQISAG0EycKrB/+eIQAydJUD8
+6rBTG9lQLDcyz9IYqDBRYmoQDgQ3EBQSIHBvViBQNFk/0DM+4bByeeBQJmfccBePX3B/6d+QDwD
qcAzbIbBzOYQQT/bV8CtAoLBUBMcQSe4KMDu3Y3BDunGQImancA2eXvBFr/JQARMoMDjEozBlWv0
QINK5L+v+4/B3f7oQDJbWsBDVpXBCkeoQC3JjEBPdojBbGK7QHnVqEB7D5TB3W7BQDfjWkCXcZ/B
sdBcQHJ0WUCsapLBIcelQEdcpT9vMJDBvlBYQF8Lt0BlJ4jBq51nQB15ykAqIZTBGrpKQB8CgUBI
U6TB

> <OMEGA_E>
IEc9Pg==

> <OMEGA_NBR>
     28840

$$$$
50154310
  -OEChem-04172616093D

 88 90  0     1  0  0  0  0  0999 V2000
    8.1027    8.3656  -18.4208 C   0  0  0  0  0  0  0  0  0  0  0  0
    7.1389    7.8321  -17.5468 C   0  0  0  0  0  0  0  0  0  0  0  0
    7.7335    8.7629  -19.7203 C   0  0  0  0  0  0  0  0  0  0  0  0
    6.6422    0.0124  -16.6896 C   0  0  0  0  0  0  0  0  0  0  0  0
    8.4522    1.5035  -16.0185 C   0  0  0  0  0  0  0  0  0  0  0  0
    8.1827   -0.6509  -14.9200 C   0  0  0  0  0  0  0  0  0  0  0  0
    5.4314    8.0875  -19.2765 C   0  0  0  0  0  0  0  0  0  0  0  0
    6.7815    1.0710  -21.4061 C   0  0  0  0  0  0  0  0  0  0  0  0
    5.0802   -0.4821  -20.5915 C   0  0  0  0  0  0  0  0  0  0  0  0
    7.2496   -1.3219  -21.3275 C   0  0  0  0  0  0  0  0  0  0  0  0
    7.3307    1.2412  -16.8291 C   0  0  0  0  0  0  0  0  0  0  0  0
    7.0771   -0.9302  -15.7354 C   0  0  0  0  0  0  0  0  0  0  0  0
    5.8059    7.6851  -17.9749 C   0  0  0  0  0  0  0  0  0  0  0  0
    8.8946    0.5450  -15.0933 C   0  0  0  0  0  0  0  0  0  0  0  0
    5.4866    0.8346  -20.8926 C   0  0  0  0  0  0  0  0  0  0  0  0
    6.3992    8.6350  -20.1614 C   0  0  0  0  0  0  0  0  0  0  0  0
    7.6625   -0.0062  -21.6190 C   0  0  0  0  0  0  0  0  0  0  0  0
    5.9573   -1.5587  -20.8175 C   0  0  0  0  0  0  0  0  0  0  0  0
    6.9154    2.2225  -17.8402 C   0  0  0  0  0  0  0  0  0  0  0  0
    6.4590   -2.2529  -15.6466 C   0  0  0  0  0  0  0  0  0  0  0  0
    3.9748   -3.4941  -17.5434 C   0  0  0  0  0  0  0  0  0  0  0  0
    9.6063   -4.6292  -17.6636 C   0  0  0  0  0  0  0  0  0  0  0  0
    4.7418    8.9574  -21.9038 C   0  0  0  0  0  0  0  0  0  0  0  0
   10.1465    0.8009  -14.2951 C   0  0  0  0  0  0  0  0  0  0  0  0
    4.5599    1.9976  -20.5901 C   0  0  0  0  0  0  0  0  0  0  0  0
    4.7771    7.1147  -17.0218 C   0  0  0  0  0  0  0  0  0  0  0  0
    4.9531   -4.6847  -17.5999 C   0  0  0  0  0  0  0  0  0  0  0  0
    9.1290   -3.2402  -17.2252 C   0  0  0  0  0  0  0  0  0  0  0  0
    6.0782   -4.5592  -16.5586 C   0  0  0  0  0  0  0  0  0  0  0  0
    7.6905   -2.9770  -17.7132 C   0  0  0  0  0  0  0  0  0  0  0  0
    4.9098    4.8663  -18.0022 C   0  0  0  0  0  0  0  0  0  0  0  0
    9.8423    1.7263  -13.1174 C   0  0  0  0  0  0  0  0  0  0  0  0
    5.1925    2.9205  -19.5301 C   0  0  1  0  0  0  0  0  0  0  0  0
    4.1914    3.9510  -18.9964 C   0  0  2  0  0  0  0  0  0  0  0  0
    5.6636    2.0949  -18.4156 N   0  0  0  0  0  0  0  0  0  0  0  0
    6.7157   -3.2272  -16.6286 N   0  0  0  0  0  0  0  0  0  0  0  0
    4.0446    6.0035  -17.6520 N   0  3  0  0  0  0  0  0  0  0  0  0
    7.6692    3.1346  -18.1673 O   0  0  0  0  0  0  0  0  0  0  0  0
    5.8530   -2.5340  -14.6187 O   0  0  0  0  0  0  0  0  0  0  0  0
    8.9252    1.0926  -12.2304 O   0  0  0  0  0  0  0  0  0  0  0  0
    3.6914    4.7339  -20.0786 O   0  0  0  0  0  0  0  0  0  0  0  0
    6.1109    9.0721  -21.4496 O   0  0  0  0  0  0  0  0  0  0  0  0
    8.9042    0.2234  -22.1030 F   0  0  0  0  0  0  0  0  0  0  0  0
    5.5578   -2.8198  -20.5430 F   0  0  0  0  0  0  0  0  0  0  0  0
    9.1271    8.4708  -18.0951 H   0  0  0  0  0  0  0  0  0  0  0  0
    7.4213    7.5352  -16.5476 H   0  0  0  0  0  0  0  0  0  0  0  0
    8.4796    9.1699  -20.3866 H   0  0  0  0  0  0  0  0  0  0  0  0
    5.7863   -0.2026  -17.3122 H   0  0  0  0  0  0  0  0  0  0  0  0
    8.9734    2.4451  -16.1091 H   0  0  0  0  0  0  0  0  0  0  0  0
    8.4857   -1.3555  -14.1596 H   0  0  0  0  0  0  0  0  0  0  0  0
    4.4067    7.9787  -19.5998 H   0  0  0  0  0  0  0  0  0  0  0  0
    7.0956    2.0786  -21.6354 H   0  0  0  0  0  0  0  0  0  0  0  0
    4.0953   -0.6640  -20.1873 H   0  0  0  0  0  0  0  0  0  0  0  0
    7.9238   -2.1488  -21.4948 H   0  0  0  0  0  0  0  0  0  0  0  0
    3.1903   -3.6270  -18.3030 H   0  0  0  0  0  0  0  0  0  0  0  0
    3.5143   -3.4451  -16.5456 H   0  0  0  0  0  0  0  0  0  0  0  0
    4.5218   -2.5604  -17.7409 H   0  0  0  0  0  0  0  0  0  0  0  0
   10.6329   -4.7948  -17.3050 H   0  0  0  0  0  0  0  0  0  0  0  0
    8.9416   -5.3960  -17.2391 H   0  0  0  0  0  0  0  0  0  0  0  0
    9.5866   -4.6939  -18.7615 H   0  0  0  0  0  0  0  0  0  0  0  0
    4.6631    9.3387  -22.9326 H   0  0  0  0  0  0  0  0  0  0  0  0
    4.4348    7.9014  -21.8798 H   0  0  0  0  0  0  0  0  0  0  0  0
    4.0863    9.5449  -21.2441 H   0  0  0  0  0  0  0  0  0  0  0  0
   10.5365   -0.1548  -13.9148 H   0  0  0  0  0  0  0  0  0  0  0  0
   10.9001    1.2728  -14.9427 H   0  0  0  0  0  0  0  0  0  0  0  0
    4.3833    2.5708  -21.5121 H   0  0  0  0  0  0  0  0  0  0  0  0
    3.6030    1.6103  -20.2101 H   0  0  0  0  0  0  0  0  0  0  0  0
    5.2862    6.7458  -16.1191 H   0  0  0  0  0  0  0  0  0  0  0  0
    4.0647    7.9053  -16.7437 H   0  0  0  0  0  0  0  0  0  0  0  0
    4.3942   -5.6125  -17.4081 H   0  0  0  0  0  0  0  0  0  0  0  0
    5.4018   -4.7278  -18.6034 H   0  0  0  0  0  0  0  0  0  0  0  0
    9.1540   -3.1801  -16.1271 H   0  0  0  0  0  0  0  0  0  0  0  0
    9.7990   -2.4780  -17.6495 H   0  0  0  0  0  0  0  0  0  0  0  0
    5.6562   -4.7040  -15.5532 H   0  0  0  0  0  0  0  0  0  0  0  0
    6.8365   -5.3320  -16.7528 H   0  0  0  0  0  0  0  0  0  0  0  0
    7.6061   -1.9301  -18.0400 H   0  0  0  0  0  0  0  0  0  0  0  0
    7.4686   -3.6442  -18.5591 H   0  0  0  0  0  0  0  0  0  0  0  0
    5.1510    4.2979  -17.0919 H   0  0  0  0  0  0  0  0  0  0  0  0
    5.8385    5.2413  -18.4572 H   0  0  0  0  0  0  0  0  0  0  0  0
   10.7749    1.9511  -12.5791 H   0  0  0  0  0  0  0  0  0  0  0  0
    9.4008    2.6615  -13.4923 H   0  0  0  0  0  0  0  0  0  0  0  0
    6.0416    3.4517  -19.9848 H   0  0  0  0  0  0  0  0  0  0  0  0
    3.3717    3.4280  -18.4820 H   0  0  0  0  0  0  0  0  0  0  0  0
    5.0452    1.3994  -18.0497 H   0  0  0  0  0  0  0  0  0  0  0  0
    3.3417    5.6846  -17.0163 H   0  0  0  0  0  0  0  0  0  0  0  0
    3.6102    6.3417  -18.4869 H   0  0  0  0  0  0  0  0  0  0  0  0
    8.7391    1.6711  -11.5002 H   0  0  0  0  0  0  0  0  0  0  0  0
    3.2445    4.1694  -20.6984 H   0  0  0  0  0  0  0  0  0  0  0  0
  1  2  2  0  0  0  0
  1  3  1  0  0  0  0
  2 13  1  0  0  0  0
  3 16  2  0  0  0  0
  4 11  1  0  0  0  0
  4 12  2  0  0  0  0
  5 11  2  0  0  0  0
  5 14  1  0  0  0  0
  6 12  1  0  0  0  0
  6 14  2  0  0  0  0
  7 13  2  0  0  0  0
  7 16  1  0  0  0  0
  8 15  1  0  0  0  0
  8 17  2  0  0  0  0
  9 15  2  0  0  0  0
  9 18  1  0  0  0  0
 10 17  1  0  0  0  0
 10 18  2  0  0  0  0
 11 19  1  0  0  0  0
 12 20  1  0  0  0  0
 13 26  1  0  0  0  0
 14 24  1  0  0  0  0
 15 25  1  0  0  0  0
 16 42  1  0  0  0  0
 17 43  1  0  0  0  0
 18 44  1  0  0  0  0
 19 35  1  0  0  0  0
 19 38  2  0  0  0  0
 20 36  1  0  0  0  0
 20 39  2  0  0  0  0
 21 27  1  0  0  0  0
 22 28  1  0  0  0  0
 23 42  1  0  0  0  0
 24 32  1  0  0  0  0
 25 33  1  0  0  0  0
 26 37  1  0  0  0  0
 27 29  1  0  0  0  0
 28 30  1  0  0  0  0
 29 36  1  0  0  0  0
 30 36  1  0  0  0  0
 31 34  1  0  0  0  0
 31 37  1  0  0  0  0
 32 40  1  0  0  0  0
 33 34  1  0  0  0  0
 33 35  1  0  0  0  0
 34 41  1  0  0  0  0
  1 45  1  0  0  0  0
  2 46  1  0  0  0  0
  3 47  1  0  0  0  0
  4 48  1  0  0  0  0
  5 49  1  0  0  0  0
  6 50  1  0  0  0  0
  7 51  1  0  0  0  0
  8 52  1  0  0  0  0
  9 53  1  0  0  0  0
 10 54  1  0  0  0  0
 21 55  1  0  0  0  0
 21 56  1  0  0  0  0
 21 57  1  0  0  0  0
 22 58  1  0  0  0  0
 22 59  1  0  0  0  0
 22 60  1  0  0  0  0
 23 61  1  0  0  0  0
 23 62  1  0  0  0  0
 23 63  1  0  0  0  0
 24 64  1  0  0  0  0
 24 65  1  0  0  0  0
 25 66  1  0  0  0  0
 25 67  1  0  0  0  0
 26 68  1  0  0  0  0
 26 69  1  0  0  0  0
 27 70  1  0  0  0  0
 27 71  1  0  0  0  0
 28 72  1  0  0  0  0
 28 73  1  0  0  0  0
 29 74  1  0  0  0  0
 29 75  1  0  0  0  0
 30 76  1  0  0  0  0
 30 77  1  0  0  0  0
 31 78  1  0  0  0  0
 31 79  1  0  0  0  0
 32 80  1  0  0  0  0
 32 81  1  0  0  0  0
 33 82  1  0  0  0  0
 34 83  1  0  0  0  0
 35 84  1  0  0  0  0
 37 85  1  0  0  0  0
 37 86  1  0  0  0  0
 40 87  1  0  0  0  0
 41 88  1  0  0  0  0
M  CHG  1  37   1
M  END
> <OMEGA_C>
yaQBQZzZBUHhXZPBBHLkQG6g+kDiX4zBjXj3QL40DEEiw53BuYzUQKAmSzxMhIXBIDwHQbNywD/o
JYDBM+wCQdyiJr9NuG7BVc6tQH5mAUFPNprB8QHZQLoWiT+rP6vBF5GiQCvb9r5nu6TB/PznQO0z
qb+knqrB7JTqQAXfnj/1oYbBPHfiQFYebr9AxHvB0Mm5QLPs9UCNzI/BclAOQdiGCz89fnHBmZKv
QGiqVT/0I6fB3sXMQNAoCkGISqHB1DL1QMDrybvO86zB+qG+QISDx79MiqbBMUvdQPE8DkDHuI7B
T7DOQA8wEMBcWHrBk2J+QNeeX8DgWIzBQLMZQWcilMD1To3BbbyXQJtRD0EDO6/BMVgiQT4HTT/C
uGTBfOqRQEmw/z96uKTB6N2YQFur40CTLIjBIICeQArplcCxzIzBWhASQbxfT8AizYnBw4DCQKTk
kcAceITB5xj2QDiHPsCltI3BNh2dQBu5m0B0BJDBJ3odQXv43D/G4FHB5CimQJ3pOkCVPZzB+h+G
QEndfECU+JfBMzy1QP4SBkAZU5PBF+fWQLeKTsBcB4XBH22BQKMcwEBiN43Bd2r1QIacSECeVpHB
L0y7QM0tIsBk5mnBus0OQd3Ziz+4r0PBvz9sQOR7l0AToaDBzozDQDYnEUG3mKvBdHcOQfbLZD7s
0rDBVdmxQNh3NMAJWKTBdAgSQV+IB0HYwpDB/HrtQBAg8UBmYYTBZqwHQfO3EkHRF6PBOim5QDRx
T75gf4rBBpMPQd97HEBY34DBXsUHQfCArb/ajWLB+QONQHJR/0B9zJzByg7jQFgHBUA8Fa3B/AyD
QPn5Kb+nf6HBDpD9QJOGCcBy9avBoC5MQLsgaMCRbJLBnelgQDZ9XMBzXYTB1LKQQObdI8Bq7Y3B
XyAqQf5umcCRcIrBuhAPQUesrMCl6YnBpGIZQXc0lsB/F5bB1zeVQCBrFUEJdrfB3OmNQDXY/EC9
Ca/B3sKCQPK3GEHp86nBs5UoQQx7Hr4so17B+GYuQZProj9CFW/B00OMQByIJEDfGKzB8JZmQHce
zj9grqHBrSipQJrd10AB9IDB0RGCQF34/EAG84XBR52MQGeZs8DCQ4vBTNusQL9Jl8C505TB9XYS
QQiHS8BIBIHB4MgcQWmXHsAiMo3BRf+0QIqHlsAB2njBzcTaQJ+fqsDWBYbBSWXzQLMM97/7UZDB
d/7uQPw6acAKeZTBXNWkQGqIiUAfvIjBm9S6QPa4p0BJqJPBHGYsQWa9+T8LREnB12kWQRpWKkBY
4FfB7VTBQKzoXED24J/BmslXQBFlW0At25PBMXKhQFQgsz/FZZDBB95VQOjntUBNIYjBvw1nQCrv
ykAi5ZPBONMLQWPm1T/eADjB+KVPQHprhUBjlqXBKO4BQe0fBkFHB5TBpSjlQAEP/EAO3YzBDdX3
QPfXC0E/gZ7BuSbWQARtrb0kZobBe8ADQYIgxD8RMn3BfHL/QFcMK7/OHG3BWSquQJ10AUHno5rB
9i3YQPrejT9iM6vBLOChQOqT4b6Ci6TBA97mQMarpL9jrqrBe47pQNi8mD8DjYbBcbnhQPrxgb9w
2HzBu2W6QPMT90BqLZDBawcJQSgdGj+lJW3BkO+uQJYDYD8J+abB/PfMQLW5CUHc56HB5x70QBDT
6TzAB63BrLa9QCiIwr8BdqbBJGDdQB3uC0DgoI7Bs/POQPl3FsBO7HvBuy2AQGALY8AHNozBAycc
QRbCkcCNoI3B62uWQOPEEEGwNa/BgMYWQeP/fj+7j1rBOpmRQHSZAkBhcqTB752ZQKnN5UD+XYjB
qFufQG+bl8B8SY3ByP0SQXsaTcCKH4rBnfrEQGDclMC9YYXBMvj3QN0vQsC7Uo7BoTCdQGW5nEBH
o4/BlfcrQRrAyj8792HBJiGmQHu1PEBh55vBQUOGQJQCf0DIoJfBPuO0QALOBkCvDpPBFrrYQMgR
VMB9wYXBFtSBQG60wUCDEo3Bmvv1QOgNRkA0CpHB8ua6QDTWKcClwmvBvOs3QRwc7z9mR0/BUA5t
QKOYmED4UKDBUjnDQNkQEEG/R6zBHtINQXKcgj7PC7HBieewQAfpMcCkPKTBElkSQR/1B0FgfpHB
r2TuQCFz80AU0oTBv9AHQSHoEUHW/KPBLZa+QKqUsb5pXIzBIjMLQaluIEAiTX3B7wcEQbwFsb97
5WDBB0ONQDVg/0B/IZ3B7UbiQDVmB0CuB63ByYCCQF2PHr8JN6HBmEH8QIpmB8CmHazBGP5LQN4r
asBkBpLBoc9lQDW2YcD2D4TBFGyRQFH2JsDjxo3B6ZAsQXIhlcChkIrBXiMSQUu1q8C2a4rBU1Uc
QTR/k8B7apbBKVqTQIYBFkF2k7fBh1iIQOW8AEG0T67BUISFQJoYHEEd96nB2DsOQZOO3z/i71DB
y/UZQRBd2j1dtVDB3wSMQGfzJ0BHxqvB0NNlQCIK1D/ma6HBBxmqQOPS2kCGF4HBVfqCQEJy/0CO
SobBPqmNQPdrtcBzxIvBgi2sQAUMmMBhe5XBrOASQR7UScA6VYHBoRIdQfFnGcD/U43BlDK5QIMN
m8BeeHrBqxbdQDoKrcAShYfB2JvzQFsbAMDhJ5HBTqPyQJDibsBt/ZTBvwukQOW4ikDCRYjBL2C7
QPQSqEA0KpPByZQ0QTbSWz+AAmzB7S4pQc9uIEDTIWvBFXzBQM9lXkAtgJ/Ba79XQD3EXUA3jJPB
toCgQDyLtz+xCpDB8eJWQJ1PuEA23IfBpIxnQKO8y0DGzpPBOFxFQS5PD0AGLFPB0o5QQKSQhkCO
SqXB

> <OMEGA_E>
gIKIPuA8hz4=

> <OMEGA_NBR>
     33542

$$$$
50209149
  -OEChem-04172616093D

 78 80  0     1  0  0  0  0  0999 V2000
    6.8261    0.0226  -16.6713 C   0  0  0  0  0  0  0  0  0  0  0  0
    8.3769    1.6467  -15.7122 C   0  0  0  0  0  0  0  0  0  0  0  0
    8.1453   -0.5596  -14.7062 C   0  0  0  0  0  0  0  0  0  0  0  0
    6.8149    1.2892  -21.2856 C   0  0  0  0  0  0  0  0  0  0  0  0
    5.0518   -0.2737  -20.6364 C   0  0  0  0  0  0  0  0  0  0  0  0
    7.2010   -1.1139  -21.4270 C   0  0  0  0  0  0  0  0  0  0  0  0
    7.4236    1.3015  -16.6931 C   0  0  0  0  0  0  0  0  0  0  0  0
    7.2167   -0.9251  -15.7039 C   0  0  0  0  0  0  0  0  0  0  0  0
    8.7098    0.7307  -14.6978 C   0  0  0  0  0  0  0  0  0  0  0  0
    5.5090    1.0494  -20.8045 C   0  0  0  0  0  0  0  0  0  0  0  0
    7.6635    0.2078  -21.5834 C   0  0  0  0  0  0  0  0  0  0  0  0
    5.8928   -1.3529  -20.9611 C   0  0  0  0  0  0  0  0  0  0  0  0
    7.0478    2.2698  -17.7296 C   0  0  0  0  0  0  0  0  0  0  0  0
    6.6178   -2.2739  -15.6804 C   0  0  0  0  0  0  0  0  0  0  0  0
    6.0686    5.8732  -18.2506 C   0  0  0  0  0  0  0  0  0  0  0  0
    4.6856    7.0467  -16.6351 C   0  0  0  0  0  0  0  0  0  0  0  0
    5.8792    7.2365  -17.5743 C   0  0  2  0  0  0  0  0  0  0  0  0
    4.9190    4.9943  -17.7136 C   0  0  2  0  0  0  0  0  0  0  0  0
    9.7264    1.1091  -13.6451 C   0  0  0  0  0  0  0  0  0  0  0  0
    9.2279   -4.4186  -17.1083 C   0  0  0  0  0  0  0  0  0  0  0  0
    3.9395   -3.4719  -17.9673 C   0  0  0  0  0  0  0  0  0  0  0  0
    6.7352    8.7288  -19.2788 C   0  0  0  0  0  0  0  0  0  0  0  0
    4.6126    2.2072  -20.4271 C   0  0  0  0  0  0  0  0  0  0  0  0
    8.9275   -3.0608  -17.7723 C   0  0  0  0  0  0  0  0  0  0  0  0
    4.4084   -4.2898  -16.7515 C   0  0  0  0  0  0  0  0  0  0  0  0
    7.4209   -2.8517  -18.0196 C   0  0  0  0  0  0  0  0  0  0  0  0
    5.9400   -4.4445  -16.7290 C   0  0  0  0  0  0  0  0  0  0  0  0
    4.2676    4.0834  -18.7710 C   0  0  2  0  0  0  0  0  0  0  0  0
    5.2812    3.0824  -19.3466 C   0  0  1  0  0  0  0  0  0  0  0  0
    5.7667    2.2153  -18.2625 N   0  0  0  0  0  0  0  0  0  0  0  0
    6.6149   -3.1274  -16.8045 N   0  0  0  0  0  0  0  0  0  0  0  0
    3.9146    5.9366  -17.2025 N   0  3  0  0  0  0  0  0  0  0  0  0
    7.8629    3.1032  -18.1094 O   0  0  0  0  0  0  0  0  0  0  0  0
    6.1567   -2.6683  -14.6141 O   0  0  0  0  0  0  0  0  0  0  0  0
    3.7205    4.8819  -19.8216 O   0  0  0  0  0  0  0  0  0  0  0  0
    5.5788    8.2533  -18.5539 O   0  0  0  0  0  0  0  0  0  0  0  0
    8.9195    0.4391  -22.0267 F   0  0  0  0  0  0  0  0  0  0  0  0
    5.4430   -2.6194  -20.8294 F   0  0  0  0  0  0  0  0  0  0  0  0
    6.0679   -0.2302  -17.3976 H   0  0  0  0  0  0  0  0  0  0  0  0
    8.8522    2.6161  -15.7401 H   0  0  0  0  0  0  0  0  0  0  0  0
    8.4247   -1.2731  -13.9451 H   0  0  0  0  0  0  0  0  0  0  0  0
    7.1618    2.3025  -21.4249 H   0  0  0  0  0  0  0  0  0  0  0  0
    4.0570   -0.4581  -20.2587 H   0  0  0  0  0  0  0  0  0  0  0  0
    7.8495   -1.9443  -21.6644 H   0  0  0  0  0  0  0  0  0  0  0  0
    6.0008    5.9719  -19.3441 H   0  0  0  0  0  0  0  0  0  0  0  0
    7.0435    5.4406  -17.9813 H   0  0  0  0  0  0  0  0  0  0  0  0
    5.0302    6.7967  -15.6208 H   0  0  0  0  0  0  0  0  0  0  0  0
    4.0747    7.9608  -16.6000 H   0  0  0  0  0  0  0  0  0  0  0  0
    6.7770    7.4952  -16.9937 H   0  0  0  0  0  0  0  0  0  0  0  0
    5.3007    4.3711  -16.8914 H   0  0  0  0  0  0  0  0  0  0  0  0
    9.2121    1.5578  -12.7824 H   0  0  0  0  0  0  0  0  0  0  0  0
   10.2700    0.2096  -13.3204 H   0  0  0  0  0  0  0  0  0  0  0  0
   10.4374    1.8351  -14.0663 H   0  0  0  0  0  0  0  0  0  0  0  0
   10.3122   -4.5197  -16.9534 H   0  0  0  0  0  0  0  0  0  0  0  0
    8.7123   -4.4743  -16.1382 H   0  0  0  0  0  0  0  0  0  0  0  0
    8.8733   -5.2314  -17.7592 H   0  0  0  0  0  0  0  0  0  0  0  0
    2.8433   -3.3830  -17.9494 H   0  0  0  0  0  0  0  0  0  0  0  0
    4.3893   -2.4688  -17.9298 H   0  0  0  0  0  0  0  0  0  0  0  0
    4.2510   -3.9791  -18.8924 H   0  0  0  0  0  0  0  0  0  0  0  0
    6.4248    9.4973  -20.0020 H   0  0  0  0  0  0  0  0  0  0  0  0
    7.4585    9.1615  -18.5720 H   0  0  0  0  0  0  0  0  0  0  0  0
    7.2029    7.8893  -19.8141 H   0  0  0  0  0  0  0  0  0  0  0  0
    4.4189    2.8202  -21.3197 H   0  0  0  0  0  0  0  0  0  0  0  0
    3.6613    1.8158  -20.0376 H   0  0  0  0  0  0  0  0  0  0  0  0
    9.2931   -2.2573  -17.1160 H   0  0  0  0  0  0  0  0  0  0  0  0
    9.4541   -3.0144  -18.7369 H   0  0  0  0  0  0  0  0  0  0  0  0
    4.0877   -3.7783  -15.8320 H   0  0  0  0  0  0  0  0  0  0  0  0
    3.9494   -5.2885  -16.7946 H   0  0  0  0  0  0  0  0  0  0  0  0
    7.2529   -1.8094  -18.3283 H   0  0  0  0  0  0  0  0  0  0  0  0
    7.0954   -3.5290  -18.8229 H   0  0  0  0  0  0  0  0  0  0  0  0
    6.2359   -4.9458  -15.7957 H   0  0  0  0  0  0  0  0  0  0  0  0
    6.2511   -5.0564  -17.5885 H   0  0  0  0  0  0  0  0  0  0  0  0
    3.4627    3.5142  -18.2830 H   0  0  0  0  0  0  0  0  0  0  0  0
    6.1204    3.6334  -19.7960 H   0  0  0  0  0  0  0  0  0  0  0  0
    5.1320    1.5415  -17.8840 H   0  0  0  0  0  0  0  0  0  0  0  0
    3.3530    5.5029  -16.4978 H   0  0  0  0  0  0  0  0  0  0  0  0
    3.3274    6.2601  -17.9444 H   0  0  0  0  0  0  0  0  0  0  0  0
    3.3193    4.3181  -20.4725 H   0  0  0  0  0  0  0  0  0  0  0  0
  1  7  1  0  0  0  0
  1  8  2  0  0  0  0
  2  7  2  0  0  0  0
  2  9  1  0  0  0  0
  3  8  1  0  0  0  0
  3  9  2  0  0  0  0
  4 10  1  0  0  0  0
  4 11  2  0  0  0  0
  5 10  2  0  0  0  0
  5 12  1  0  0  0  0
  6 11  1  0  0  0  0
  6 12  2  0  0  0  0
  7 13  1  0  0  0  0
  8 14  1  0  0  0  0
  9 19  1  0  0  0  0
 10 23  1  0  0  0  0
 11 37  1  0  0  0  0
 12 38  1  0  0  0  0
 13 30  1  0  0  0  0
 13 33  2  0  0  0  0
 14 31  1  0  0  0  0
 14 34  2  0  0  0  0
 15 17  1  0  0  0  0
 15 18  1  0  0  0  0
 16 17  1  0  0  0  0
 16 32  1  0  0  0  0
 17 36  1  0  0  0  0
 18 28  1  0  0  0  0
 18 32  1  0  0  0  0
 20 24  1  0  0  0  0
 21 25  1  0  0  0  0
 22 36  1  0  0  0  0
 23 29  1  0  0  0  0
 24 26  1  0  0  0  0
 25 27  1  0  0  0  0
 26 31  1  0  0  0  0
 27 31  1  0  0  0  0
 28 29  1  0  0  0  0
 28 35  1  0  0  0  0
 29 30  1  0  0  0  0
  1 39  1  0  0  0  0
  2 40  1  0  0  0  0
  3 41  1  0  0  0  0
  4 42  1  0  0  0  0
  5 43  1  0  0  0  0
  6 44  1  0  0  0  0
 15 45  1  0  0  0  0
 15 46  1  0  0  0  0
 16 47  1  0  0  0  0
 16 48  1  0  0  0  0
 17 49  1  0  0  0  0
 18 50  1  0  0  0  0
 19 51  1  0  0  0  0
 19 52  1  0  0  0  0
 19 53  1  0  0  0  0
 20 54  1  0  0  0  0
 20 55  1  0  0  0  0
 20 56  1  0  0  0  0
 21 57  1  0  0  0  0
 21 58  1  0  0  0  0
 21 59  1  0  0  0  0
 22 60  1  0  0  0  0
 22 61  1  0  0  0  0
 22 62  1  0  0  0  0
 23 63  1  0  0  0  0
 23 64  1  0  0  0  0
 24 65  1  0  0  0  0
 24 66  1  0  0  0  0
 25 67  1  0  0  0  0
 25 68  1  0  0  0  0
 26 69  1  0  0  0  0
 26 70  1  0  0  0  0
 27 71  1  0  0  0  0
 27 72  1  0  0  0  0
 28 73  1  0  0  0  0
 29 74  1  0  0  0  0
 30 75  1  0  0  0  0
 32 76  1  0  0  0  0
 32 77  1  0  0  0  0
 35 78  1  0  0  0  0
M  CHG  1  32   1
M  END
> <OMEGA_C>
Zm/aQPwyuTzBXoXB5gcGQZ3F0j8xZXvBLVMCQXlCD7+WTGvBjhPaQCAGpT/4SKrBhqihQFchjL5P
F6XBRm7mQB+Vjr+QaqvBg47tQKiYpj+Ei4XB4+7mQCLTbL8IQ3vBL1sLQSMOOz9fKmvBCkqwQNlS
hj+Qb6bBZjv1QK7MVD7cqqzB1JG8QHgrrb9usKfBvYfhQF5EEUBK1o3BOsXTQC6IEcC+4nrBQjLC
QPDwu0BFAZLBaPCVQDN+4UDCFIXBziK8QAWR50AimIzBjmidQFzRn0BltY3BaJ8bQeP1jT8sUlrB
aaUTQVRljcDO3YjB/CB8QE00XsAXvY/B1obXQDypC0ECO5rBppqTQIxDDUC9aqPBB9cOQZjjQ8Cz
LY7BrhGNQEBGicAQA4bB0HftQLSCNsAbKJDBSRS+QPc4jsD71IXBbJCIQCSrgkAEK5bBcf+oQF1F
RUDAxZrB6oi4QMTGDUCnGZLBa63TQAooSMCSb4bBNol6QD74vUDLnonBfpz7QA2aRkAM4JDBvAPF
QOHEKsCB02nBUBxuQOY4nECskp7BP4WyQKUNBEFcbpTBVbYOQZjN4D6vNrDBtSyuQLujJ8CYoqbB
4ivCQPWza75MLovBb6INQdVtJ0Bm13vBZMsGQf7zor/1Hl/BNy3lQD1cE0AfZqvBrtKBQOSK6r7E
EaLBuS77QOze+L+kUK3BYAbAQH4Zv0CtwJrBdWThQK0ZrkC02Y/BbvegQMZ+2UD+7nnBNWSCQKa+
/kDMzITBGN3YQKjY70AJ84fBhZ+pQHXgi0CUIYfBw2QTQfBlxz/fhEzBC1IkQZOYVj58IFXBc/8m
Qfjk6j9qD2HB2P4kQYqhkMCKoIfBdWULQXMtj8AYG4HB5vgNQV9np8DfEo7BB/g1QNmCWMBGmI/B
S3WMQAgBHsBEcI/BCwiIQF2pfsCtI5fB5JfNQBb1F0EgBKDBBKzuQISVEkFhk5TBK37mQIt1/EBT
g57BgGeNQCV+NEDOjqrBuVJqQDls6D/0TKDBubAUQU14EMB47YjBK0QXQSTsQMA/5ZXBqM6CQDjP
ccDcT33Bz8J8QMc7qcBWW4bBbBfoQAOa579VoJLB1g3jQPTbYcBPlZbBYozHQE5EnsApu3zBvAjI
QMvNocBJtYzBbZ1dQOjnYECpQ5LBRNrDQFOKaEBIXp7BtDmkQBhRxT9kEo/BJ5hWQPcXsECX+4PB
ovNUQBFTyEA3jo/BKHBUQLQtikCux6PB

> <OMEGA_E>
xA6cPg==

> <OMEGA_NBR>
      1591

$$$$
50210640
  -OEChem-04172616093D

 73 76  0     1  0  0  0  0  0999 V2000
    6.0880    9.7284  -23.1450 C   0  0  0  0  0  0  0  0  0  0  0  0
    7.4013    9.5815  -22.6561 C   0  0  0  0  0  0  0  0  0  0  0  0
    4.9895    9.5568  -22.2799 C   0  0  0  0  0  0  0  0  0  0  0  0
    7.6174    9.2606  -21.3028 C   0  0  0  0  0  0  0  0  0  0  0  0
    5.2025    9.2425  -20.9242 C   0  0  0  0  0  0  0  0  0  0  0  0
    6.9610    1.2824  -21.3323 C   0  0  0  0  0  0  0  0  0  0  0  0
    5.2145   -0.2510  -20.5752 C   0  0  0  0  0  0  0  0  0  0  0  0
    7.3061   -1.1289  -21.4673 C   0  0  0  0  0  0  0  0  0  0  0  0
    6.5222    9.0831  -20.4323 C   0  0  0  0  0  0  0  0  0  0  0  0
    5.6827    1.0626  -20.7814 C   0  0  0  0  0  0  0  0  0  0  0  0
    7.7734    0.1860  -21.6721 C   0  0  0  0  0  0  0  0  0  0  0  0
    6.0252   -1.3462  -20.9200 C   0  0  0  0  0  0  0  0  0  0  0  0
    8.0293   -0.5656  -15.1090 C   0  0  0  0  0  0  0  0  0  0  0  0
    7.2063    2.1574  -17.6271 C   0  0  0  0  0  0  0  0  0  0  0  0
    8.1144    0.9109  -15.5450 C   0  0  0  0  0  0  0  0  0  0  0  0
    6.0545    5.9223  -18.1721 C   0  0  0  0  0  0  0  0  0  0  0  0
    6.8657   -0.3380  -17.1229 C   0  0  0  0  0  0  0  0  0  0  0  0
    4.5624    7.0078  -16.5785 C   0  0  0  0  0  0  0  0  0  0  0  0
    7.8037    0.8598  -17.0357 C   0  0  1  0  0  0  0  0  0  0  0  0
    5.8315    7.2321  -17.4008 C   0  0  2  0  0  0  0  0  0  0  0  0
    4.9418    4.9913  -17.6666 C   0  0  2  0  0  0  0  0  0  0  0  0
    8.6519   -3.6141  -17.5719 C   0  0  0  0  0  0  0  0  0  0  0  0
    4.8214    2.2311  -20.3878 C   0  0  0  0  0  0  0  0  0  0  0  0
    6.7947    8.7883  -18.9733 C   0  0  0  0  0  0  0  0  0  0  0  0
    7.1440   -3.5089  -17.2651 C   0  0  0  0  0  0  0  0  0  0  0  0
    6.8766   -2.6618  -15.9978 C   0  0  0  0  0  0  0  0  0  0  0  0
    4.3844    4.0340  -18.7231 C   0  0  2  0  0  0  0  0  0  0  0  0
    5.4582    3.0630  -19.2462 C   0  0  1  0  0  0  0  0  0  0  0  0
    7.3916   -1.2838  -16.1358 N   0  0  0  0  0  0  0  0  0  0  0  0
    5.9172    2.1532  -18.1689 N   0  0  0  0  0  0  0  0  0  0  0  0
    3.8698    5.8936  -17.2276 N   0  3  0  0  0  0  0  0  0  0  0  0
    8.4510   -1.0141  -14.0494 O   0  0  0  0  0  0  0  0  0  0  0  0
    7.9281    3.1423  -17.7250 O   0  0  0  0  0  0  0  0  0  0  0  0
    3.8353    4.7916  -19.8080 O   0  0  0  0  0  0  0  0  0  0  0  0
    5.6050    8.3133  -18.3126 O   0  0  0  0  0  0  0  0  0  0  0  0
    9.0032    0.3964  -22.1918 F   0  0  0  0  0  0  0  0  0  0  0  0
    5.5756   -2.6048  -20.7176 F   0  0  0  0  0  0  0  0  0  0  0  0
    5.9234    9.9727  -24.1841 H   0  0  0  0  0  0  0  0  0  0  0  0
    8.2425    9.7153  -23.3201 H   0  0  0  0  0  0  0  0  0  0  0  0
    3.9833    9.6664  -22.6569 H   0  0  0  0  0  0  0  0  0  0  0  0
    8.6249    9.1500  -20.9299 H   0  0  0  0  0  0  0  0  0  0  0  0
    4.3602    9.1228  -20.2589 H   0  0  0  0  0  0  0  0  0  0  0  0
    7.3156    2.2898  -21.4931 H   0  0  0  0  0  0  0  0  0  0  0  0
    4.2342   -0.4157  -20.1530 H   0  0  0  0  0  0  0  0  0  0  0  0
    7.9303   -1.9702  -21.7299 H   0  0  0  0  0  0  0  0  0  0  0  0
    7.3731    1.5223  -15.0096 H   0  0  0  0  0  0  0  0  0  0  0  0
    9.1214    1.3161  -15.3669 H   0  0  0  0  0  0  0  0  0  0  0  0
    5.9624    6.0875  -19.2557 H   0  0  0  0  0  0  0  0  0  0  0  0
    7.0461    5.5021  -17.9483 H   0  0  0  0  0  0  0  0  0  0  0  0
    5.8357   -0.0451  -16.8714 H   0  0  0  0  0  0  0  0  0  0  0  0
    6.8863   -0.7761  -18.1317 H   0  0  0  0  0  0  0  0  0  0  0  0
    4.8174    6.7499  -15.5400 H   0  0  0  0  0  0  0  0  0  0  0  0
    3.9332    7.9101  -16.5883 H   0  0  0  0  0  0  0  0  0  0  0  0
    8.7293    0.6232  -17.5810 H   0  0  0  0  0  0  0  0  0  0  0  0
    6.6857    7.4317  -16.7370 H   0  0  0  0  0  0  0  0  0  0  0  0
    5.3186    4.4090  -16.8128 H   0  0  0  0  0  0  0  0  0  0  0  0
    8.8010   -4.2218  -18.4766 H   0  0  0  0  0  0  0  0  0  0  0  0
    9.0640   -2.6073  -17.7346 H   0  0  0  0  0  0  0  0  0  0  0  0
    9.1665   -4.0882  -16.7230 H   0  0  0  0  0  0  0  0  0  0  0  0
    4.6812    2.8802  -21.2647 H   0  0  0  0  0  0  0  0  0  0  0  0
    3.8445    1.8545  -20.0505 H   0  0  0  0  0  0  0  0  0  0  0  0
    7.5777    8.0191  -18.9017 H   0  0  0  0  0  0  0  0  0  0  0  0
    7.1383    9.7086  -18.4783 H   0  0  0  0  0  0  0  0  0  0  0  0
    6.6377   -3.0394  -18.1213 H   0  0  0  0  0  0  0  0  0  0  0  0
    6.7402   -4.5203  -17.1098 H   0  0  0  0  0  0  0  0  0  0  0  0
    5.7917   -2.6197  -15.8209 H   0  0  0  0  0  0  0  0  0  0  0  0
    7.3697   -3.1412  -15.1393 H   0  0  0  0  0  0  0  0  0  0  0  0
    3.5872    3.4375  -18.2555 H   0  0  0  0  0  0  0  0  0  0  0  0
    6.3072    3.6373  -19.6453 H   0  0  0  0  0  0  0  0  0  0  0  0
    5.2607    1.4921  -17.8056 H   0  0  0  0  0  0  0  0  0  0  0  0
    3.2629    5.4313  -16.5811 H   0  0  0  0  0  0  0  0  0  0  0  0
    3.3386    6.2169  -18.0107 H   0  0  0  0  0  0  0  0  0  0  0  0
    3.4888    4.1992  -20.4650 H   0  0  0  0  0  0  0  0  0  0  0  0
  1  2  1  0  0  0  0
  1  3  2  0  0  0  0
  2  4  2  0  0  0  0
  3  5  1  0  0  0  0
  4  9  1  0  0  0  0
  5  9  2  0  0  0  0
  6 10  1  0  0  0  0
  6 11  2  0  0  0  0
  7 10  2  0  0  0  0
  7 12  1  0  0  0  0
  8 11  1  0  0  0  0
  8 12  2  0  0  0  0
  9 24  1  0  0  0  0
 10 23  1  0  0  0  0
 11 36  1  0  0  0  0
 12 37  1  0  0  0  0
 13 15  1  0  0  0  0
 13 29  1  0  0  0  0
 13 32  2  0  0  0  0
 14 19  1  0  0  0  0
 14 30  1  0  0  0  0
 14 33  2  0  0  0  0
 15 19  1  0  0  0  0
 16 20  1  0  0  0  0
 16 21  1  0  0  0  0
 17 19  1  0  0  0  0
 17 29  1  0  0  0  0
 18 20  1  0  0  0  0
 18 31  1  0  0  0  0
 20 35  1  0  0  0  0
 21 27  1  0  0  0  0
 21 31  1  0  0  0  0
 22 25  1  0  0  0  0
 23 28  1  0  0  0  0
 24 35  1  0  0  0  0
 25 26  1  0  0  0  0
 26 29  1  0  0  0  0
 27 28  1  0  0  0  0
 27 34  1  0  0  0  0
 28 30  1  0  0  0  0
  1 38  1  0  0  0  0
  2 39  1  0  0  0  0
  3 40  1  0  0  0  0
  4 41  1  0  0  0  0
  5 42  1  0  0  0  0
  6 43  1  0  0  0  0
  7 44  1  0  0  0  0
  8 45  1  0  0  0  0
 15 46  1  0  0  0  0
 15 47  1  0  0  0  0
 16 48  1  0  0  0  0
 16 49  1  0  0  0  0
 17 50  1  0  0  0  0
 17 51  1  0  0  0  0
 18 52  1  0  0  0  0
 18 53  1  0  0  0  0
 19 54  1  0  0  0  0
 20 55  1  0  0  0  0
 21 56  1  0  0  0  0
 22 57  1  0  0  0  0
 22 58  1  0  0  0  0
 22 59  1  0  0  0  0
 23 60  1  0  0  0  0
 23 61  1  0  0  0  0
 24 62  1  0  0  0  0
 24 63  1  0  0  0  0
 25 64  1  0  0  0  0
 25 65  1  0  0  0  0
 26 66  1  0  0  0  0
 26 67  1  0  0  0  0
 27 68  1  0  0  0  0
 28 69  1  0  0  0  0
 30 70  1  0  0  0  0
 31 71  1  0  0  0  0
 31 72  1  0  0  0  0
 34 73  1  0  0  0  0
M  CHG  1  31   1
M  END
> <OMEGA_C>
RNHCQF+nG0EAKbnBHNfsQAFOGUG2P7XBsamfQJnoGEFPPbLBmcHzQIIrFEEKbKrBFnumQEjhE0G1
ZKfBa8DeQCgnpD+nqKrB59ymQDWIgL4ZmqTB0svpQMF/kL/0vKvBfrXQQHJUEUFYdaPBwNi1QNAC
iD9XQKbBe7/4QLxxPj50YK3Bt87AQF9PrL8vXKfBM3gAQejMEL+FvnHBUZrmQCwTCkBJBI3BhNQB
Qe4taT+BuHjBtb7BQKqDvUCBYJHBr7PbQHkKrb7D+4jBVv+RQEtA4EDRoITBCrj5QAIZXD8YSYjB
yJu6QGBt50DnNIvBGCOeQOq4n0AkVY3BQG4KQSROZ8Axk4zB2kiaQOfJDkA8GqPBDW7ZQBSdDEFg
yZfBlZvkQAOSYMDWHorB/QzcQGhbKsAc93/BWE2MQFoWgUDQyJXBdKmuQKwIREAl+JnB2YfsQOhT
pL8zFoHBhVm9QMvNCUACWpHBVqt3QP+XvEAZ0onBSjcHQS/Ogb9JymDBYrP9QP0aSUC+zI3BoHV1
QGpUmUDgdp7BwluzQBcDBUEcgJLB+AwQQf33yj7FiLHBQWuyQIK0JsCivaXB1Iy9QCWQH0H1eMHB
MuEDQeVxG0GFj7rBKu9+QIqpGkFeQbXBr/8JQWlmEkFscKfBBIeLQCz3EUEsEqLBlRnqQDKMEkD4
8avBRn6HQMrT1L5POaHB/sT9QBYw/L/q1q3Bh/DrQFvawj90J3DBOfERQVt1qD/t3nXBqcu+QGjM
wkDDC5rB+XnhQPIQsEAclo/Bvr26QPegOL2i+IbB0VzcQPKwRr+wDZHBNCiaQAf/10AIpHjBa7l7
QC0f/UDUtITBPKsLQS6MHz/ZpYzB4/DVQHbQ7UB55YXBvjGqQHkWjUCfgIbB9dAMQQEZh8AQ0JPB
JAYRQR3eJsBd4I3B2akSQWXSgsDGyIXBXcyVQM5VOEAZHqrB6wt2QPRe7T9cZ6DB7XzyQGtOAEGl
NpfBvGzkQGdWG0F405PBBGjUQD2FQsB9+JDBba/XQPalkMDl4IjBx1W5QGapJ8CCIn3B+9TrQGcJ
ScDCOnLBA5VlQH//W0A+C5LBstTJQFPKaECSKZ3BpVeoQH3+vj/GcY7BwdJQQHvNrUAapoTBaaxV
QD/xxkDnFZDBHkhfQBxghkBLuKPBOQHCQCkJHEEhOrnB+QKfQHY6GUGxQrLBYR/sQICsGUHbYbXB
vBemQMsjFEGabqfBYkzzQGt2FEHUk6rBxq7fQJzcpD/agKrBMWSnQNTCgb5z0aTBfy3qQHd4j7/k
HazBj2zQQK6TEUFAkaPB3LS2QBLqhz9/KabB8Wv5QKyLSD59d63BNxrBQMIQrL8Tz6fB5Zz/QO7d
N7/fl3LBnuPlQGRSB0CplIzBcwcBQVH0Rj+bc3jBa9zBQKq8vUCRk5HBOuzZQLavyb7sUInB7qOS
QA584EB5sYTBk2/4QBbuST9nLYjBfBK7QG+Z50D4WYvBeJ+eQHTvn0COWo3B75gNQeKRaMAdY4vB
ZhqbQMRrDkDa8aLBCXrZQPrRDEGj65fBmOzpQOa3ZMD+9orBB/vZQIo/McA2LoHBSrGMQCfPgEAG
qZXBZiavQJY3Q0B7upnB9CvpQL/Fr7/KgIHBdei8QJaTCECDEZHBMbR4QPfDvECh0onBv1IHQUP5
nL+1aWLBHSv9QOpTRkAaBY3BFrB1QLt7mECrZ57B6ZizQCgsBUEMlZLBqV0QQYAY0z5GobHBG1Sy
QOSxJsCshqbBwom8QMsAIEFEhsHBhXx9QPX6GkFKOrXB3nQDQRXdG0G/urrBwUWLQIYwEkEsEqLB
J84JQSKrEkGGpafBKEjrQPT/EkAXjavBi/OHQEtd2L7mfqHBkv79QDfA+r/DYq7BNBHqQPDSrT8E
iW/BrBERQTxElz85M3XBKzi+QFELw0BiOprBhcDhQHVXsEAB8o/BPeO4QJ+6t70uf4fBEVjbQM7T
Tr8YdpHBrwmbQNxS2ED1yXjBO/x8QN9Y/UBvwYTB+AoLQeHCDz/gjozB4JrWQHrU7UAyGIbBZxqr
QNmyjUAFgYbBnaISQYLMhsBdb5LBJBIUQes/J8Bl7ovBtqoTQYfMg8AcGITBL7eWQCt1OEAA66nB
2593QAUC7D/1T6DBVpbyQKKHAEErZ5fBxIjkQCeJG0GH9pPB7xbeQPHzRcBoTpLBFEjdQIomk8Af
eIrB/8e2QOh2McBBIoHBwOrlQI3UT8C9rHPBK6RmQCm8W0DB0JHBSavKQJOeZ0CDy5zBBmGnQH//
vT+BPI7BNSBSQAUFrkCVnITBomZWQF8Ex0BJEpDBDWFfQHcvhUCtkqPBwlLmQC0qFkE1WbTBZgUC
QURlFEF36KvBERe6QK7LFEGNQ7LBiI/1QO1vEUEwW6HBdI2rQPniEUHIt6fBbjTVQBdKlD9x1arB
XIWoQFRY3b4GEqHBTiTsQDuPlL8W6KjB0kLJQLNGEEFyQZ/B6JKvQOIMXz/mC6XBymPzQIhkEz7+
xazBlMrGQBlJub8lBKPBTmb6QBIUGb/SLn3BdvbgQP4+GUCmEo/BhlXdQAhkDj5nYIbBZrW4QF/f
vEDepZPBSdUMQaTyuT/hqYLBMoqQQEWh30BbiIXBEvnqQKOlyz8bJ4XBUAy+QCSG20DnXYrB9LaW
QGc+n0AgCI/B7WwjQd6e6T8CRFPBfuyPQNd3/T/9qKLBYTi5QP8AEEEh7ZPBVAAvQeLVgD9bnWTB
ThAhQVimKL68s2zBsHqCQMWvgEAsKpfBYXOkQIDdQkCIYJvBUjoNQYiZmT58uXbBNqK2QLRpF0DN
I5LBMDxuQCOLvECJVYrB/Hj3QKXW5L+uvHjB4Oj7QBZTRkBAeJPBU+hfQAMAmEDfx5/B3CHSQFKs
AUElTo3BwqwLQYBM2T5AWbLBPjzAQJZgLMCOIp/BtH3xQI+TGEF/b7zBsvYSQdFPFUFUi63BUGaj
QHr6FUEEwbjBGiQGQQ8PEEHu4ZrBhqqJQLHiEEGOGKbBSdnaQDgjCkBcx63BHe+LQA2VJr9VipzB
J5wBQRps+L88darBam/iQIbWWL52no7B33y7QMSXBzyhMoTBHGStQEpMzUAL5prBEZLWQGyqq0Dv
b5XBISkWQWccoD8G84nBzg0TQQnWFkAad33BbL2RQLEm3EDNj3nBY4GCQDfZ/kAWlofBPVPaQOIa
AkAEgXzBSibSQOuXy0AAV4TB1VylQLUOjEB5oIjBddItQbdwKUAg7E3BV4UUQRdKD0AR4lnBjqcf
QRxGlj9Il0XBGfaFQB3hHEBjNqrBbIxnQJ77xj/Vnp7BUE67QBJGIEFonJDBzKaXQFq1CkFI5ZPB
3sgyQb9d1T8CLHLBFes9QVkfGj854V3Bl0YqQVLjPb8ChXjBX/4cQT6oT79oDl/BmiFTQJMLXECI
DpPBvTK9QPAXZkDW0p/B9peiQJ8/6j/im43B8c1LQJyUrUAcuYTBHhxHQNfxx0C5/I/Bdh5HQF+c
hEA0v6TB

> <OMEGA_E>
KDQAP+BLAj8QPzg/

> <OMEGA_NBR>
     16792

$$$$
50210644
  -OEChem-04172616093D

 77 80  0     1  0  0  0  0  0999 V2000
    6.9357    9.5491  -22.8647 C   0  0  0  0  0  0  0  0  0  0  0  0
    5.5405    9.5065  -22.6740 C   0  0  0  0  0  0  0  0  0  0  0  0
    7.8043    9.3277  -21.7774 C   0  0  0  0  0  0  0  0  0  0  0  0
    5.0138    9.2434  -21.3954 C   0  0  0  0  0  0  0  0  0  0  0  0
    7.2801    9.0643  -20.4976 C   0  0  0  0  0  0  0  0  0  0  0  0
    6.8442    1.2964  -21.3324 C   0  0  0  0  0  0  0  0  0  0  0  0
    5.1442   -0.3136  -20.6313 C   0  0  0  0  0  0  0  0  0  0  0  0
    7.2829   -1.0975  -21.4995 C   0  0  0  0  0  0  0  0  0  0  0  0
    5.8788    9.0148  -20.3040 C   0  0  0  0  0  0  0  0  0  0  0  0
    5.5641    1.0200  -20.8059 C   0  0  0  0  0  0  0  0  0  0  0  0
    7.7048    0.2366  -21.6735 C   0  0  0  0  0  0  0  0  0  0  0  0
    6.0013   -1.3708  -20.9802 C   0  0  0  0  0  0  0  0  0  0  0  0
    8.2465   -0.1256  -15.1015 C   0  0  0  0  0  0  0  0  0  0  0  0
    7.1283    2.3166  -17.7646 C   0  0  0  0  0  0  0  0  0  0  0  0
    8.1831    1.3167  -15.6348 C   0  0  0  0  0  0  0  0  0  0  0  0
    5.8712    5.9009  -18.3680 C   0  0  0  0  0  0  0  0  0  0  0  0
    6.9231   -0.1108  -17.0149 C   0  0  0  0  0  0  0  0  0  0  0  0
    4.5128    7.0362  -16.6925 C   0  0  0  0  0  0  0  0  0  0  0  0
    7.7997    1.1176  -17.0940 C   0  0  1  0  0  0  0  0  0  0  0  0
    5.9057    7.0378  -17.3604 C   0  0  2  0  0  0  0  0  0  0  0  0
    4.7998    4.9793  -17.7856 C   0  0  2  0  0  0  0  0  0  0  0  0
    4.5320   -3.5062  -17.3835 C   0  0  0  0  0  0  0  0  0  0  0  0
    4.6394    2.1454  -20.4169 C   0  0  0  0  0  0  0  0  0  0  0  0
    5.2778    8.8244  -18.9279 C   0  0  0  0  0  0  0  0  0  0  0  0
    7.2589   -2.3457  -15.8141 C   0  0  0  0  0  0  0  0  0  0  0  0
    5.6210   -4.5333  -17.7593 C   0  0  0  0  0  0  0  0  0  0  0  0
    7.5614   -3.2320  -17.0393 C   0  0  0  0  0  0  0  0  0  0  0  0
    4.1952    4.0117  -18.8052 C   0  0  2  0  0  0  0  0  0  0  0  0
    5.2715    3.0528  -19.3388 C   0  0  1  0  0  0  0  0  0  0  0  0
    7.6431   -0.9558  -16.0611 N   0  0  0  0  0  0  0  0  0  0  0  0
    5.8164    2.2213  -18.2394 N   0  0  0  0  0  0  0  0  0  0  0  0
    3.7725    5.9035  -17.2851 N   0  3  0  0  0  0  0  0  0  0  0  0
    8.7466   -0.4684  -14.0367 O   0  0  0  0  0  0  0  0  0  0  0  0
    7.8304    3.2865  -18.0149 O   0  0  0  0  0  0  0  0  0  0  0  0
    3.6138    4.7488  -19.8866 O   0  0  0  0  0  0  0  0  0  0  0  0
    6.2456    8.2948  -17.9818 O   0  0  0  0  0  0  0  0  0  0  0  0
    6.8038   -4.4547  -16.9186 O   0  0  0  0  0  0  0  0  0  0  0  0
    8.9351    0.4999  -22.1682 F   0  0  0  0  0  0  0  0  0  0  0  0
    5.5919   -2.6475  -20.8147 F   0  0  0  0  0  0  0  0  0  0  0  0
    7.3400    9.7517  -23.8455 H   0  0  0  0  0  0  0  0  0  0  0  0
    4.8756    9.6756  -23.5081 H   0  0  0  0  0  0  0  0  0  0  0  0
    8.8735    9.3601  -21.9260 H   0  0  0  0  0  0  0  0  0  0  0  0
    3.9441    9.2163  -21.2491 H   0  0  0  0  0  0  0  0  0  0  0  0
    7.9469    8.9001  -19.6640 H   0  0  0  0  0  0  0  0  0  0  0  0
    7.1624    2.3188  -21.4732 H   0  0  0  0  0  0  0  0  0  0  0  0
    4.1639   -0.5231  -20.2294 H   0  0  0  0  0  0  0  0  0  0  0  0
    7.9424   -1.9108  -21.7643 H   0  0  0  0  0  0  0  0  0  0  0  0
    7.4212    1.9037  -15.1010 H   0  0  0  0  0  0  0  0  0  0  0  0
    9.1593    1.8157  -15.5458 H   0  0  0  0  0  0  0  0  0  0  0  0
    5.5850    6.2626  -19.3666 H   0  0  0  0  0  0  0  0  0  0  0  0
    6.8445    5.3920  -18.4274 H   0  0  0  0  0  0  0  0  0  0  0  0
    5.9190    0.1412  -16.6431 H   0  0  0  0  0  0  0  0  0  0  0  0
    6.8384   -0.6020  -17.9955 H   0  0  0  0  0  0  0  0  0  0  0  0
    4.6115    6.9002  -15.6054 H   0  0  0  0  0  0  0  0  0  0  0  0
    3.9905    7.9823  -16.8977 H   0  0  0  0  0  0  0  0  0  0  0  0
    8.7074    0.8655  -17.6619 H   0  0  0  0  0  0  0  0  0  0  0  0
    6.6536    6.7967  -16.5907 H   0  0  0  0  0  0  0  0  0  0  0  0
    5.2295    4.4051  -16.9515 H   0  0  0  0  0  0  0  0  0  0  0  0
    3.6701   -3.6219  -18.0571 H   0  0  0  0  0  0  0  0  0  0  0  0
    4.2109   -3.6757  -16.3451 H   0  0  0  0  0  0  0  0  0  0  0  0
    4.9387   -2.4887  -17.4801 H   0  0  0  0  0  0  0  0  0  0  0  0
    4.4187    2.7507  -21.3085 H   0  0  0  0  0  0  0  0  0  0  0  0
    3.7050    1.7196  -20.0223 H   0  0  0  0  0  0  0  0  0  0  0  0
    4.9162    9.7961  -18.5603 H   0  0  0  0  0  0  0  0  0  0  0  0
    4.4334    8.1234  -19.0027 H   0  0  0  0  0  0  0  0  0  0  0  0
    6.1812   -2.3874  -15.5979 H   0  0  0  0  0  0  0  0  0  0  0  0
    7.8215   -2.7253  -14.9484 H   0  0  0  0  0  0  0  0  0  0  0  0
    5.1945   -5.5431  -17.6673 H   0  0  0  0  0  0  0  0  0  0  0  0
    5.9223   -4.3561  -18.8023 H   0  0  0  0  0  0  0  0  0  0  0  0
    7.2704   -2.7045  -17.9597 H   0  0  0  0  0  0  0  0  0  0  0  0
    8.6363   -3.4633  -17.0735 H   0  0  0  0  0  0  0  0  0  0  0  0
    3.4194    3.4160  -18.3020 H   0  0  0  0  0  0  0  0  0  0  0  0
    6.0806    3.6407  -19.7967 H   0  0  0  0  0  0  0  0  0  0  0  0
    5.2093    1.5519  -17.8113 H   0  0  0  0  0  0  0  0  0  0  0  0
    3.2071    5.4554  -16.5927 H   0  0  0  0  0  0  0  0  0  0  0  0
    3.1922    6.2200  -18.0355 H   0  0  0  0  0  0  0  0  0  0  0  0
    3.2397    4.1448  -20.5172 H   0  0  0  0  0  0  0  0  0  0  0  0
  1  2  1  0  0  0  0
  1  3  2  0  0  0  0
  2  4  2  0  0  0  0
  3  5  1  0  0  0  0
  4  9  1  0  0  0  0
  5  9  2  0  0  0  0
  6 10  1  0  0  0  0
  6 11  2  0  0  0  0
  7 10  2  0  0  0  0
  7 12  1  0  0  0  0
  8 11  1  0  0  0  0
  8 12  2  0  0  0  0
  9 24  1  0  0  0  0
 10 23  1  0  0  0  0
 11 38  1  0  0  0  0
 12 39  1  0  0  0  0
 13 15  1  0  0  0  0
 13 30  1  0  0  0  0
 13 33  2  0  0  0  0
 14 19  1  0  0  0  0
 14 31  1  0  0  0  0
 14 34  2  0  0  0  0
 15 19  1  0  0  0  0
 16 20  1  0  0  0  0
 16 21  1  0  0  0  0
 17 19  1  0  0  0  0
 17 30  1  0  0  0  0
 18 20  1  0  0  0  0
 18 32  1  0  0  0  0
 20 36  1  0  0  0  0
 21 28  1  0  0  0  0
 21 32  1  0  0  0  0
 22 26  1  0  0  0  0
 23 29  1  0  0  0  0
 24 36  1  0  0  0  0
 25 27  1  0  0  0  0
 25 30  1  0  0  0  0
 26 37  1  0  0  0  0
 27 37  1  0  0  0  0
 28 29  1  0  0  0  0
 28 35  1  0  0  0  0
 29 31  1  0  0  0  0
  1 40  1  0  0  0  0
  2 41  1  0  0  0  0
  3 42  1  0  0  0  0
  4 43  1  0  0  0  0
  5 44  1  0  0  0  0
  6 45  1  0  0  0  0
  7 46  1  0  0  0  0
  8 47  1  0  0  0  0
 15 48  1  0  0  0  0
 15 49  1  0  0  0  0
 16 50  1  0  0  0  0
 16 51  1  0  0  0  0
 17 52  1  0  0  0  0
 17 53  1  0  0  0  0
 18 54  1  0  0  0  0
 18 55  1  0  0  0  0
 19 56  1  0  0  0  0
 20 57  1  0  0  0  0
 21 58  1  0  0  0  0
 22 59  1  0  0  0  0
 22 60  1  0  0  0  0
 22 61  1  0  0  0  0
 23 62  1  0  0  0  0
 23 63  1  0  0  0  0
 24 64  1  0  0  0  0
 24 65  1  0  0  0  0
 25 66  1  0  0  0  0
 25 67  1  0  0  0  0
 26 68  1  0  0  0  0
 26 69  1  0  0  0  0
 27 70  1  0  0  0  0
 27 71  1  0  0  0  0
 28 72  1  0  0  0  0
 29 73  1  0  0  0  0
 31 74  1  0  0  0  0
 32 75  1  0  0  0  0
 32 76  1  0  0  0  0
 35 77  1  0  0  0  0
M  CHG  1  32   1
M  END
> <OMEGA_C>
HPHdQDPJGEHx6rbB7UuxQK4aGEFHZLXBqbz5QD8+FUESOK7B63CgQNzkE0G6KavB3vboQFMHEUES
+6PB8QPbQNzvpT/VqKrBX52kQCaRoL7aDKXB3g3pQHB8jL/v/qvB7R68QIA8EEGIbqLBHg2yQFOP
gj+BcqbBW432QB1Ncj5DY63BCAvAQOh0r79916fB1fEDQf2VAL6kn3HBBBvkQI9CFED+HY7BAu4C
QaKJqD8IKHrBk+C7QA3UvECs8ZLBKIrdQIbX4r2RHojBLGmQQKgo4UArioXB7Zb5QNIOjz+MwIjB
tfu8QMU14UAw4orB95eZQEZWn0DcSI7B3QWRQHBlYMBmEYvB8nWUQAFOCUDBVaPBg+OoQK8wDUFo
bJfB7EjoQCIfFsB/Bn3Bm9+zQNIQkcD7Eo7BGffxQMzYTsB8UIjBGz+GQOFfgEAlcZbB4q+oQEZg
Q0DTtZrBAJT0QBSudL8rfYDBVyC6QHwqDkA/6pHBSnFxQLHpvEDqR4rB/fELQajM774ylmDBZZL6
QFRVUkCbHpDB+kdnQIn2l0C/F5/BGtzHQHC3BEHT2o/BG7nZQAmNjsBhWYfBX/YOQaby/z55WLHB
p/CyQAZwKcB1hKbBfeHqQBIHHEGBw77BBQWcQErPGkF/ELzB5/kNQQbDFUF8aK/Bsmt8QB52E0E3
/qnBwEz+QL5mDkHXT53ByjLlQBRnFEAiyavBzT6FQDHqBb+81aHBLSj+QAiV9L9NHa7BaXrtQMSt
8z/enXHBp4wSQW5q6D9su3jBP7iyQEdnyEDe7prBeQbbQOOKrEBPa5PBYmi9QPWWED4TJYXBadTa
QEsaGr/P9o/BP5GTQGzO3ECbr3nB8GN/QK9u/0CHLofBaFELQdiRXT+aS43Bn+rUQEJ+2UDNuYTB
u1enQFz2jECtnIfBh+JqQHnMZ8D6dJDBF8CGQC0+a8DOwoLBFgqeQIJHH8BC14vBLGaNQOMKMEC9
d6rBZR9tQKMc3D+gLaDB6lGdQLK8HEGMe5TBFt6NQHD5AUFzBZjBDszFQA/LGMAUkXnBgkn6QBBs
LsDOLG/BTDmmQLBgscCcVo3BS4O9QFpli8AQa5bBF6foQBMXLcBurY/BIy4KQU6nXcCQlojBftda
QPyfWkBvapLBFZTCQG0BaUCNX57B2bKmQLykxj+GfY7B4kFNQHCSrkDFvYTBX01MQKAKx0CpSJDB
y1ZPQAKihEA2I6TB

> <OMEGA_E>
tJ/8Pg==

> <OMEGA_NBR>
     18374

$$$$
50209151
  -OEChem-04172616093D

 88 91  0     1  0  0  0  0  0999 V2000
    6.2999    9.7333  -22.9843 C   0  0  0  0  0  0  0  0  0  0  0  0
    7.5974    9.5347  -22.4722 C   0  0  0  0  0  0  0  0  0  0  0  0
    5.1782    9.5717  -22.1475 C   0  0  0  0  0  0  0  0  0  0  0  0
    7.7744    9.1711  -21.1239 C   0  0  0  0  0  0  0  0  0  0  0  0
    5.3522    9.2148  -20.7969 C   0  0  0  0  0  0  0  0  0  0  0  0
    6.8011    0.0024  -16.7355 C   0  0  0  0  0  0  0  0  0  0  0  0
    8.4262    1.5906  -15.8430 C   0  0  0  0  0  0  0  0  0  0  0  0
    8.1624   -0.5951  -14.7998 C   0  0  0  0  0  0  0  0  0  0  0  0
    6.7850    1.2637  -21.3973 C   0  0  0  0  0  0  0  0  0  0  0  0
    5.0022   -0.2530  -20.6943 C   0  0  0  0  0  0  0  0  0  0  0  0
    7.1179   -1.1506  -21.5090 C   0  0  0  0  0  0  0  0  0  0  0  0
    7.4335    1.2629  -16.7916 C   0  0  0  0  0  0  0  0  0  0  0  0
    7.1829   -0.9339  -15.7535 C   0  0  0  0  0  0  0  0  0  0  0  0
    6.6555    9.0029  -20.2821 C   0  0  0  0  0  0  0  0  0  0  0  0
    8.7909    0.6634  -14.8489 C   0  0  0  0  0  0  0  0  0  0  0  0
    5.4836    1.0571  -20.8916 C   0  0  0  0  0  0  0  0  0  0  0  0
    7.6037    0.1595  -21.6985 C   0  0  0  0  0  0  0  0  0  0  0  0
    5.8136   -1.3548  -21.0145 C   0  0  0  0  0  0  0  0  0  0  0  0
    7.0577    2.2292  -17.8307 C   0  0  0  0  0  0  0  0  0  0  0  0
    6.5590   -2.2641  -15.7108 C   0  0  0  0  0  0  0  0  0  0  0  0
    6.0216    5.8063  -18.1194 C   0  0  0  0  0  0  0  0  0  0  0  0
    4.5602    6.8996  -16.5075 C   0  0  0  0  0  0  0  0  0  0  0  0
    5.8420    7.1004  -17.3136 C   0  0  2  0  0  0  0  0  0  0  0  0
    4.8383    4.9200  -17.6980 C   0  0  2  0  0  0  0  0  0  0  0  0
    9.7966    1.0496  -13.7892 C   0  0  0  0  0  0  0  0  0  0  0  0
    3.8570   -3.3268  -17.6075 C   0  0  0  0  0  0  0  0  0  0  0  0
    9.4655   -4.2401  -17.0946 C   0  0  0  0  0  0  0  0  0  0  0  0
    4.6156    2.2353  -20.5179 C   0  0  0  0  0  0  0  0  0  0  0  0
    6.8871    8.6627  -18.8262 C   0  0  0  0  0  0  0  0  0  0  0  0
    4.8337   -4.5017  -17.7962 C   0  0  0  0  0  0  0  0  0  0  0  0
    8.5468   -3.9695  -18.3004 C   0  0  0  0  0  0  0  0  0  0  0  0
    5.9541   -4.4781  -16.7415 C   0  0  0  0  0  0  0  0  0  0  0  0
    7.5208   -2.8718  -17.9753 C   0  0  0  0  0  0  0  0  0  0  0  0
    4.2444    4.0609  -18.8276 C   0  0  2  0  0  0  0  0  0  0  0  0
    5.2773    3.0835  -19.4108 C   0  0  1  0  0  0  0  0  0  0  0  0
    5.7661    2.1978  -18.3418 N   0  0  0  0  0  0  0  0  0  0  0  0
    6.7034   -3.1901  -16.7668 N   0  0  0  0  0  0  0  0  0  0  0  0
    3.8153    5.8561  -17.2152 N   0  3  0  0  0  0  0  0  0  0  0  0
    7.8833    3.0419  -18.2325 O   0  0  0  0  0  0  0  0  0  0  0  0
    5.9443   -2.5624  -14.6927 O   0  0  0  0  0  0  0  0  0  0  0  0
    3.7457    4.9040  -19.8675 O   0  0  0  0  0  0  0  0  0  0  0  0
    5.6687    8.2130  -18.1991 O   0  0  0  0  0  0  0  0  0  0  0  0
    8.8539    0.3576  -22.1738 F   0  0  0  0  0  0  0  0  0  0  0  0
    5.3365   -2.6086  -20.8490 F   0  0  0  0  0  0  0  0  0  0  0  0
    6.1652   10.0097  -24.0196 H   0  0  0  0  0  0  0  0  0  0  0  0
    8.4565    9.6614  -23.1143 H   0  0  0  0  0  0  0  0  0  0  0  0
    4.1842    9.7218  -22.5424 H   0  0  0  0  0  0  0  0  0  0  0  0
    8.7698    9.0206  -20.7330 H   0  0  0  0  0  0  0  0  0  0  0  0
    4.4925    9.1026  -20.1529 H   0  0  0  0  0  0  0  0  0  0  0  0
    6.0249   -0.2446  -17.4447 H   0  0  0  0  0  0  0  0  0  0  0  0
    8.9077    2.5566  -15.8803 H   0  0  0  0  0  0  0  0  0  0  0  0
    8.4317   -1.3023  -14.0293 H   0  0  0  0  0  0  0  0  0  0  0  0
    7.1519    2.2675  -21.5529 H   0  0  0  0  0  0  0  0  0  0  0  0
    4.0102   -0.4099  -20.2971 H   0  0  0  0  0  0  0  0  0  0  0  0
    7.7454   -1.9980  -21.7427 H   0  0  0  0  0  0  0  0  0  0  0  0
    5.9867    6.0132  -19.1992 H   0  0  0  0  0  0  0  0  0  0  0  0
    6.9775    5.3227  -17.8695 H   0  0  0  0  0  0  0  0  0  0  0  0
    4.7965    6.5763  -15.4830 H   0  0  0  0  0  0  0  0  0  0  0  0
    3.9775    7.8320  -16.4726 H   0  0  0  0  0  0  0  0  0  0  0  0
    6.6975    7.2482  -16.6382 H   0  0  0  0  0  0  0  0  0  0  0  0
    5.1594    4.2605  -16.8783 H   0  0  0  0  0  0  0  0  0  0  0  0
    9.2751    1.5177  -12.9413 H   0  0  0  0  0  0  0  0  0  0  0  0
   10.3270    0.1506  -13.4422 H   0  0  0  0  0  0  0  0  0  0  0  0
   10.5202    1.7617  -14.2127 H   0  0  0  0  0  0  0  0  0  0  0  0
    3.0717   -3.3750  -18.3763 H   0  0  0  0  0  0  0  0  0  0  0  0
    3.3976   -3.3886  -16.6100 H   0  0  0  0  0  0  0  0  0  0  0  0
    4.4037   -2.3769  -17.7012 H   0  0  0  0  0  0  0  0  0  0  0  0
   10.1885   -5.0277  -17.3533 H   0  0  0  0  0  0  0  0  0  0  0  0
   10.0057   -3.3188  -16.8313 H   0  0  0  0  0  0  0  0  0  0  0  0
    8.8585   -4.5670  -16.2374 H   0  0  0  0  0  0  0  0  0  0  0  0
    4.4601    2.8635  -21.4074 H   0  0  0  0  0  0  0  0  0  0  0  0
    3.6448    1.8659  -20.1557 H   0  0  0  0  0  0  0  0  0  0  0  0
    7.6416    7.8650  -18.7591 H   0  0  0  0  0  0  0  0  0  0  0  0
    7.2523    9.5578  -18.3015 H   0  0  0  0  0  0  0  0  0  0  0  0
    4.2779   -5.4466  -17.7064 H   0  0  0  0  0  0  0  0  0  0  0  0
    5.2840   -4.4349  -18.7976 H   0  0  0  0  0  0  0  0  0  0  0  0
    9.1602   -3.6471  -19.1547 H   0  0  0  0  0  0  0  0  0  0  0  0
    8.0130   -4.8953  -18.5609 H   0  0  0  0  0  0  0  0  0  0  0  0
    5.5089   -4.6128  -15.7446 H   0  0  0  0  0  0  0  0  0  0  0  0
    6.6536   -5.3023  -16.9451 H   0  0  0  0  0  0  0  0  0  0  0  0
    8.0581   -1.9283  -17.7989 H   0  0  0  0  0  0  0  0  0  0  0  0
    6.8461   -2.7541  -18.8361 H   0  0  0  0  0  0  0  0  0  0  0  0
    3.4172    3.4705  -18.4066 H   0  0  0  0  0  0  0  0  0  0  0  0
    6.1131    3.6534  -19.8429 H   0  0  0  0  0  0  0  0  0  0  0  0
    5.1275    1.5305  -17.9587 H   0  0  0  0  0  0  0  0  0  0  0  0
    3.1814    5.3945  -16.5946 H   0  0  0  0  0  0  0  0  0  0  0  0
    3.3060    6.2464  -17.9821 H   0  0  0  0  0  0  0  0  0  0  0  0
    3.3804    4.3685  -20.5620 H   0  0  0  0  0  0  0  0  0  0  0  0
  1  2  1  0  0  0  0
  1  3  2  0  0  0  0
  2  4  2  0  0  0  0
  3  5  1  0  0  0  0
  4 14  1  0  0  0  0
  5 14  2  0  0  0  0
  6 12  1  0  0  0  0
  6 13  2  0  0  0  0
  7 12  2  0  0  0  0
  7 15  1  0  0  0  0
  8 13  1  0  0  0  0
  8 15  2  0  0  0  0
  9 16  1  0  0  0  0
  9 17  2  0  0  0  0
 10 16  2  0  0  0  0
 10 18  1  0  0  0  0
 11 17  1  0  0  0  0
 11 18  2  0  0  0  0
 12 19  1  0  0  0  0
 13 20  1  0  0  0  0
 14 29  1  0  0  0  0
 15 25  1  0  0  0  0
 16 28  1  0  0  0  0
 17 43  1  0  0  0  0
 18 44  1  0  0  0  0
 19 36  1  0  0  0  0
 19 39  2  0  0  0  0
 20 37  1  0  0  0  0
 20 40  2  0  0  0  0
 21 23  1  0  0  0  0
 21 24  1  0  0  0  0
 22 23  1  0  0  0  0
 22 38  1  0  0  0  0
 23 42  1  0  0  0  0
 24 34  1  0  0  0  0
 24 38  1  0  0  0  0
 26 30  1  0  0  0  0
 27 31  1  0  0  0  0
 28 35  1  0  0  0  0
 29 42  1  0  0  0  0
 30 32  1  0  0  0  0
 31 33  1  0  0  0  0
 32 37  1  0  0  0  0
 33 37  1  0  0  0  0
 34 35  1  0  0  0  0
 34 41  1  0  0  0  0
 35 36  1  0  0  0  0
  1 45  1  0  0  0  0
  2 46  1  0  0  0  0
  3 47  1  0  0  0  0
  4 48  1  0  0  0  0
  5 49  1  0  0  0  0
  6 50  1  0  0  0  0
  7 51  1  0  0  0  0
  8 52  1  0  0  0  0
  9 53  1  0  0  0  0
 10 54  1  0  0  0  0
 11 55  1  0  0  0  0
 21 56  1  0  0  0  0
 21 57  1  0  0  0  0
 22 58  1  0  0  0  0
 22 59  1  0  0  0  0
 23 60  1  0  0  0  0
 24 61  1  0  0  0  0
 25 62  1  0  0  0  0
 25 63  1  0  0  0  0
 25 64  1  0  0  0  0
 26 65  1  0  0  0  0
 26 66  1  0  0  0  0
 26 67  1  0  0  0  0
 27 68  1  0  0  0  0
 27 69  1  0  0  0  0
 27 70  1  0  0  0  0
 28 71  1  0  0  0  0
 28 72  1  0  0  0  0
 29 73  1  0  0  0  0
 29 74  1  0  0  0  0
 30 75  1  0  0  0  0
 30 76  1  0  0  0  0
 31 77  1  0  0  0  0
 31 78  1  0  0  0  0
 32 79  1  0  0  0  0
 32 80  1  0  0  0  0
 33 81  1  0  0  0  0
 33 82  1  0  0  0  0
 34 83  1  0  0  0  0
 35 84  1  0  0  0  0
 36 85  1  0  0  0  0
 38 86  1  0  0  0  0
 38 87  1  0  0  0  0
 41 88  1  0  0  0  0
M  CHG  1  38   1
M  END
> <OMEGA_C>
DpnJQJS7G0Hq37fB1R3zQPONGEEHx7PBf7OlQNolGUEjLrHBicf4QPC8EkHU/ajBTEWrQP1vE0H2
X6bBgKLZQDTwHTtP4oXBrdEGQTKZyz8WfX3BFpkCQaFWGL8ozGzByh7ZQJnAoT/ALavBNRKgQD6J
gb7gjaXBCcbjQDdGk79dEqzBRN/tQKWloT8eVYbBadrlQMoRb79FDnzBffnUQOULEEGxQaLBtqcM
QW/UKT82lW3BeHmvQHhPhz/4IafBn1HzQFFYIz6elq3BvQi6QBZprb/AHajB19jhQACsDkA/pY7B
o+PRQMXmEMCJX3vBJ7HAQHLNuUCV9JDBOe2RQKLJ3EBnD4TBWvG6QDo240BUgorBXtOaQLRwnUCQ
lY3BzL4cQZRahj+JoFzBqdh2QIbpVMA83IzBsHIXQSavh8C5wYjBlrKTQMsOD0CpJKTBC2PcQEWa
CkENnJbB4K2aQJgNkMC4Xo7B5L8IQaQLfsAoZ5LBwYe+QMlMj8CS7oXBgqrwQIvLN8BzzY/Bh9KH
QKDygUDknpbBtt+oQOFXRUBiSZvB7IO4QEqpDEAavJLBnoLWQPUpTMBaIobB0S10QM1ku0CvuInB
PUT8QPWuQkA63JHBEji+QMn9I8A6FWvBK7pvQDPtnECP8J7B7GW1QGJoA0G+l5HBbKkNQf0ctz7+
Y7HBrsSqQIHyJsDMyqbBWEnFQNsnIEEyKMDBp00HQfiUGkEj6rjB1eSFQFOMG0HIVrTBJ1EMQVpU
EEFA3aXBO8KPQA2kEUE7OaHBVszAQCKBer7DjovB64UOQaSfI0CVFX7BT+gGQd2xpr8qeGDBEdzk
QJseEUBUbKzB21OAQDHk0b6BYKLBGNr3QBG+/7/z8K3BMJO/QAdswEAJmJnBUUffQIVTqkCj9I7B
N32ZQABx0kBtunfBu49+QFqf+kDPx4PBBFLWQDPx50AVG4XBxxmlQAxWiEDDBofBnmYUQclCwj94
D0/BcDslQT06Gj5OE1fBkVIoQXGA4T88Z2PBX5ZEQOv/V8ClApPBsXJZQIreWMAu4YTBeOuMQLge
GMATnI3BIwQjQS7joMCY04rBYBcgQVxnVMBspobBdbwNQdYkksBD5oHB1riOQLhDN0BJQqvBs0Rp
QHnU7j/RPqHBnYf0QAWu+0CXEpbBlRLoQPPsGEGCaZLBg+SIQNNKrsCupo3BohapQOvqjcCSYZbB
/I8SQXlpacDfPJnBETUAQeSlnMC1fJTBK0mwQPabk8AI6nvBGurUQFesqcCCj4fBAO4AQZDS9r8b
ZI7BJBPbQPVCMMBDsJbBCLRaQAEdXkDAQJPBHp7DQO/RaUBHvp7BaBSkQB3mwz90q4/BBpxLQIqf
rEC9wYTB8pVTQM/ix0Bx24/BTFhYQCnLi0DxfqTB

> <OMEGA_E>
gHG7PA==

> <OMEGA_NBR>
     20128

$$$$
50210666
  -OEChem-04172616093D

 73 76  0     1  0  0  0  0  0999 V2000
    6.6496    9.7529  -22.9656 C   0  0  0  0  0  0  0  0  0  0  0  0
    5.2570    9.6485  -22.7783 C   0  0  0  0  0  0  0  0  0  0  0  0
    7.5258    9.5370  -21.8842 C   0  0  0  0  0  0  0  0  0  0  0  0
    4.7400    9.3197  -21.5105 C   0  0  0  0  0  0  0  0  0  0  0  0
    7.0130    9.2058  -20.6171 C   0  0  0  0  0  0  0  0  0  0  0  0
    6.8576    1.3628  -21.4235 C   0  0  0  0  0  0  0  0  0  0  0  0
    5.1860   -0.2434  -20.6472 C   0  0  0  0  0  0  0  0  0  0  0  0
    7.2799   -1.0307  -21.6154 C   0  0  0  0  0  0  0  0  0  0  0  0
    5.6142    9.0855  -20.4276 C   0  0  0  0  0  0  0  0  0  0  0  0
    5.6058    1.0880  -20.8392 C   0  0  0  0  0  0  0  0  0  0  0  0
    7.6963    0.3029  -21.8070 C   0  0  0  0  0  0  0  0  0  0  0  0
    6.0223   -1.3027  -21.0388 C   0  0  0  0  0  0  0  0  0  0  0  0
    7.9840   -0.7811  -15.3312 C   0  0  0  0  0  0  0  0  0  0  0  0
    7.1144    2.0918  -17.6639 C   0  0  0  0  0  0  0  0  0  0  0  0
    7.9902    0.7236  -15.6544 C   0  0  0  0  0  0  0  0  0  0  0  0
    6.0000    5.9184  -18.2758 C   0  0  0  0  0  0  0  0  0  0  0  0
    6.8141   -0.4546  -17.3421 C   0  0  0  0  0  0  0  0  0  0  0  0
    4.5268    7.0807  -16.6942 C   0  0  0  0  0  0  0  0  0  0  0  0
    7.7185    0.7614  -17.1503 C   0  0  1  0  0  0  0  0  0  0  0  0
    5.9025    7.1612  -17.3843 C   0  0  2  0  0  0  0  0  0  0  0  0
    4.8869    5.0138  -17.7321 C   0  0  2  0  0  0  0  0  0  0  0  0
    5.9772   -3.4104  -17.1856 C   0  0  0  0  0  0  0  0  0  0  0  0
    8.4811   -3.2633  -17.5656 C   0  0  0  0  0  0  0  0  0  0  0  0
    4.7225    2.2189  -20.4013 C   0  0  0  0  0  0  0  0  0  0  0  0
    5.0280    8.7148  -19.0827 C   0  0  0  0  0  0  0  0  0  0  0  0
    4.3107    4.0373  -18.7560 C   0  0  2  0  0  0  0  0  0  0  0  0
    7.3231   -2.9072  -16.6081 C   0  0  0  0  0  0  0  0  0  0  0  0
    5.3729    3.0459  -19.2652 C   0  0  1  0  0  0  0  0  0  0  0  0
    7.3005   -1.4428  -16.3680 N   0  0  0  0  0  0  0  0  0  0  0  0
    5.8182    2.1242  -18.1889 N   0  0  0  0  0  0  0  0  0  0  0  0
    3.8288    5.9427  -17.3090 N   0  3  0  0  0  0  0  0  0  0  0  0
    8.5023   -1.2905  -14.3448 O   0  0  0  0  0  0  0  0  0  0  0  0
    7.8271    3.0883  -17.6847 O   0  0  0  0  0  0  0  0  0  0  0  0
    3.7597    4.7799  -19.8520 O   0  0  0  0  0  0  0  0  0  0  0  0
    6.0731    8.3877  -18.1269 O   0  0  0  0  0  0  0  0  0  0  0  0
    8.9017    0.5672  -22.3580 F   0  0  0  0  0  0  0  0  0  0  0  0
    5.6204   -2.5795  -20.8529 F   0  0  0  0  0  0  0  0  0  0  0  0
    7.0457    9.9988  -23.9398 H   0  0  0  0  0  0  0  0  0  0  0  0
    4.5862    9.8207  -23.6070 H   0  0  0  0  0  0  0  0  0  0  0  0
    8.5925    9.6259  -22.0281 H   0  0  0  0  0  0  0  0  0  0  0  0
    3.6721    9.2466  -21.3665 H   0  0  0  0  0  0  0  0  0  0  0  0
    7.6859    9.0432  -19.7881 H   0  0  0  0  0  0  0  0  0  0  0  0
    7.1717    2.3848  -21.5762 H   0  0  0  0  0  0  0  0  0  0  0  0
    4.2245   -0.4491  -20.2005 H   0  0  0  0  0  0  0  0  0  0  0  0
    7.9251   -1.8449  -21.9107 H   0  0  0  0  0  0  0  0  0  0  0  0
    7.2010    1.2496  -15.0971 H   0  0  0  0  0  0  0  0  0  0  0  0
    8.9664    1.1730  -15.4198 H   0  0  0  0  0  0  0  0  0  0  0  0
    5.8215    6.1740  -19.3307 H   0  0  0  0  0  0  0  0  0  0  0  0
    6.9841    5.4372  -18.1766 H   0  0  0  0  0  0  0  0  0  0  0  0
    5.7653   -0.1933  -17.1379 H   0  0  0  0  0  0  0  0  0  0  0  0
    6.9020   -0.8449  -18.3667 H   0  0  0  0  0  0  0  0  0  0  0  0
    4.6506    6.9143  -15.6140 H   0  0  0  0  0  0  0  0  0  0  0  0
    3.9617    8.0098  -16.8597 H   0  0  0  0  0  0  0  0  0  0  0  0
    8.6635    0.5824  -17.6840 H   0  0  0  0  0  0  0  0  0  0  0  0
    6.6798    7.0914  -16.6090 H   0  0  0  0  0  0  0  0  0  0  0  0
    5.2664    4.4519  -16.8659 H   0  0  0  0  0  0  0  0  0  0  0  0
    5.1613   -3.1508  -16.4950 H   0  0  0  0  0  0  0  0  0  0  0  0
    5.7965   -2.9356  -18.1613 H   0  0  0  0  0  0  0  0  0  0  0  0
    6.0176   -4.5025  -17.3111 H   0  0  0  0  0  0  0  0  0  0  0  0
    9.4304   -2.9008  -17.1445 H   0  0  0  0  0  0  0  0  0  0  0  0
    8.5293   -4.3549  -17.6924 H   0  0  0  0  0  0  0  0  0  0  0  0
    8.3082   -2.7880  -18.5425 H   0  0  0  0  0  0  0  0  0  0  0  0
    4.5360    2.8792  -21.2611 H   0  0  0  0  0  0  0  0  0  0  0  0
    3.7681    1.8072  -20.0413 H   0  0  0  0  0  0  0  0  0  0  0  0
    4.4440    9.5645  -18.6992 H   0  0  0  0  0  0  0  0  0  0  0  0
    4.3689    7.8429  -19.2063 H   0  0  0  0  0  0  0  0  0  0  0  0
    3.5120    3.4597  -18.2676 H   0  0  0  0  0  0  0  0  0  0  0  0
    7.4985   -3.4223  -15.6521 H   0  0  0  0  0  0  0  0  0  0  0  0
    6.2317    3.6037  -19.6666 H   0  0  0  0  0  0  0  0  0  0  0  0
    5.1469    1.4844  -17.8148 H   0  0  0  0  0  0  0  0  0  0  0  0
    3.2237    5.5038  -16.6447 H   0  0  0  0  0  0  0  0  0  0  0  0
    3.2939    6.2457  -18.0977 H   0  0  0  0  0  0  0  0  0  0  0  0
    3.3992    4.1787  -20.4931 H   0  0  0  0  0  0  0  0  0  0  0  0
  1  2  1  0  0  0  0
  1  3  2  0  0  0  0
  2  4  2  0  0  0  0
  3  5  1  0  0  0  0
  4  9  1  0  0  0  0
  5  9  2  0  0  0  0
  6 10  1  0  0  0  0
  6 11  2  0  0  0  0
  7 10  2  0  0  0  0
  7 12  1  0  0  0  0
  8 11  1  0  0  0  0
  8 12  2  0  0  0  0
  9 25  1  0  0  0  0
 10 24  1  0  0  0  0
 11 36  1  0  0  0  0
 12 37  1  0  0  0  0
 13 15  1  0  0  0  0
 13 29  1  0  0  0  0
 13 32  2  0  0  0  0
 14 19  1  0  0  0  0
 14 30  1  0  0  0  0
 14 33  2  0  0  0  0
 15 19  1  0  0  0  0
 16 20  1  0  0  0  0
 16 21  1  0  0  0  0
 17 19  1  0  0  0  0
 17 29  1  0  0  0  0
 18 20  1  0  0  0  0
 18 31  1  0  0  0  0
 20 35  1  0  0  0  0
 21 26  1  0  0  0  0
 21 31  1  0  0  0  0
 22 27  1  0  0  0  0
 23 27  1  0  0  0  0
 24 28  1  0  0  0  0
 25 35  1  0  0  0  0
 26 28  1  0  0  0  0
 26 34  1  0  0  0  0
 27 29  1  0  0  0  0
 28 30  1  0  0  0  0
  1 38  1  0  0  0  0
  2 39  1  0  0  0  0
  3 40  1  0  0  0  0
  4 41  1  0  0  0  0
  5 42  1  0  0  0  0
  6 43  1  0  0  0  0
  7 44  1  0  0  0  0
  8 45  1  0  0  0  0
 15 46  1  0  0  0  0
 15 47  1  0  0  0  0
 16 48  1  0  0  0  0
 16 49  1  0  0  0  0
 17 50  1  0  0  0  0
 17 51  1  0  0  0  0
 18 52  1  0  0  0  0
 18 53  1  0  0  0  0
 19 54  1  0  0  0  0
 20 55  1  0  0  0  0
 21 56  1  0  0  0  0
 22 57  1  0  0  0  0
 22 58  1  0  0  0  0
 22 59  1  0  0  0  0
 23 60  1  0  0  0  0
 23 61  1  0  0  0  0
 23 62  1  0  0  0  0
 24 63  1  0  0  0  0
 24 64  1  0  0  0  0
 25 65  1  0  0  0  0
 25 66  1  0  0  0  0
 26 67  1  0  0  0  0
 27 68  1  0  0  0  0
 28 69  1  0  0  0  0
 30 70  1  0  0  0  0
 31 71  1  0  0  0  0
 31 72  1  0  0  0  0
 34 73  1  0  0  0  0
M  CHG  1  31   1
M  END
> <OMEGA_C>
1cnUQNULHEGGubfBhjmoQExgGkHdObbBotPwQJSXGEHfEq/BG66XQHwdFUF6FazBmmrgQPtKE0HG
76TBk3HbQAFxrj9pY6vBifOlQCpBeb6BLaXBlPToQOjtg79K7KzBaaezQAdeEUHHa6PBT2KzQBtD
iz/AtqbBM0j2QHkamz7WdK7BxbbAQJW9pr9oT6jBl3z/QFj2R7/LTHXBM6njQKjfBUCZT43Bjq//
QNZAOT9ceHrB4v+/QMpjvUDsNJLBOw3aQIW96L6GvIrBituQQPWU4kDFjYXBkv32QObnQj+/M4nB
l+G8QEQo5UACE4vBpGGcQNxwoEBx243B8kS/QPhDWsAafInBZ7IHQZfZUMBmhozB9B6XQB0DDkDh
NaPBceWgQO1vC0FJqZjB6vCJQLMxgUA9DJbByFbqQMMOOsBg3YTBa+6rQHPwQkAMH5rBDp7pQK2s
uL++8YLB5y66QNzyB0DhgpHBrgp1QLcqvkDNeIrBigkIQf0tpb8nhGXBOHf6QDWmRUBUeo3BBZ9w
QEr1mEDy0J7BfFbCQAA0BkH1A5HBhG0OQRwzET8f3bLBV9qzQH8WJcDV0qbBwnbhQAX7H0GnhL/B
VcKSQI0hHUEX27zB63oJQYoDGkGWObDBdQRrQBLyE0GK7qrBFPP1QMuwEEEbTp7BOX7lQNCgGEAW
nKzBuy6HQAnz5b6hmqHBfJr9QBIk7L8TSa/BZm7mQEnznz/njXHBX3YPQewllj9at3bBtEm6QFGR
xUBgpZrB7X3fQCj9rUCxaZHBJX24QJTvRb5yGonBKd3cQEJMWL8C75LBDtKUQLRB3UDH0nnBr4x9
QD0oAEGd4IbB050KQW0bFT+9eI3B9cDVQNzs4kBT34TBGIaoQCF2jkBt7YbBRSmlQPOmScC19YPB
Kn25QMngO8BGSpHBVpDAQCsUkMA3fYrB/+IWQU+nOcDxJ4nBIXgIQT9bi8D1iY3Bi+4EQfFuMsAE
V5TBwSaRQPhEOEC8FqrB+ChxQBhT5z+WVKDBSTWOQAcIGUHol5XBB86LQOX4+kCKppnBP8VgQO1q
XUAMJJLBVPPvQPsGW8Aeb3rBV2rHQI+jZkBEVZ3BdbOkQF//vT/FhI7BaVFOQC0fsEBdKIXB5c9S
QM7cx0AwyJDBF41ZQIS3hUDs8aPB

> <OMEGA_E>
rN0UPw==

> <OMEGA_NBR>
     21646

$$$$
50210655
  -OEChem-04172616093D

 70 73  0     1  0  0  0  0  0999 V2000
    7.1617    9.6123  -22.6866 C   0  0  0  0  0  0  0  0  0  0  0  0
    5.7589    9.5871  -22.5587 C   0  0  0  0  0  0  0  0  0  0  0  0
    7.9783    9.3285  -21.5739 C   0  0  0  0  0  0  0  0  0  0  0  0
    5.1723    9.2737  -21.3185 C   0  0  0  0  0  0  0  0  0  0  0  0
    7.3946    9.0211  -20.3311 C   0  0  0  0  0  0  0  0  0  0  0  0
    6.7559    1.3433  -21.4092 C   0  0  0  0  0  0  0  0  0  0  0  0
    5.2960   -0.3258  -20.3832 C   0  0  0  0  0  0  0  0  0  0  0  0
    7.4704   -0.9848  -21.2739 C   0  0  0  0  0  0  0  0  0  0  0  0
    5.9856    8.9839  -20.2026 C   0  0  0  0  0  0  0  0  0  0  0  0
    5.5384    1.0073  -20.7804 C   0  0  0  0  0  0  0  0  0  0  0  0
    7.7214    0.3497  -21.6517 C   0  0  0  0  0  0  0  0  0  0  0  0
    6.2593   -1.3216  -20.6360 C   0  0  0  0  0  0  0  0  0  0  0  0
    8.1629   -0.5579  -15.5888 C   0  0  0  0  0  0  0  0  0  0  0  0
    6.9640    2.1571  -17.8989 C   0  0  0  0  0  0  0  0  0  0  0  0
    7.4384   -0.1391  -16.8721 C   0  0  0  0  0  0  0  0  0  0  0  0
    5.8814    5.7589  -18.2102 C   0  0  0  0  0  0  0  0  0  0  0  0
    8.4754    1.7555  -15.9049 C   0  0  0  0  0  0  0  0  0  0  0  0
    4.4473    7.0019  -16.6600 C   0  0  0  0  0  0  0  0  0  0  0  0
    7.2256    1.3476  -16.6407 C   0  0  1  0  0  0  0  0  0  0  0  0
    5.8734    6.9458  -17.2485 C   0  0  2  0  0  0  0  0  0  0  0  0
    4.6821    4.9281  -17.7495 C   0  0  2  0  0  0  0  0  0  0  0  0
   10.7149    1.6851  -13.9812 C   0  0  0  0  0  0  0  0  0  0  0  0
    4.5422    2.0970  -20.4393 C   0  0  0  0  0  0  0  0  0  0  0  0
    5.3207    8.7018  -18.8760 C   0  0  0  0  0  0  0  0  0  0  0  0
    9.5594    0.6751  -13.8315 C   0  0  0  0  0  0  0  0  0  0  0  0
    4.0889    4.0264  -18.8498 C   0  0  2  0  0  0  0  0  0  0  0  0
    5.1490    3.0554  -19.3961 C   0  0  1  0  0  0  0  0  0  0  0  0
    8.7779    0.5950  -15.0690 N   0  0  0  0  0  0  0  0  0  0  0  0
    5.6413    2.2608  -18.2742 N   0  0  0  0  0  0  0  0  0  0  0  0
    3.6862    5.9163  -17.3072 N   0  3  0  0  0  0  0  0  0  0  0  0
    8.1839   -1.6895  -15.1193 O   0  0  0  0  0  0  0  0  0  0  0  0
    7.8550    2.7875  -18.4616 O   0  0  0  0  0  0  0  0  0  0  0  0
    3.5720    4.8254  -19.9129 O   0  0  0  0  0  0  0  0  0  0  0  0
    6.2618    8.1726  -17.9037 O   0  0  0  0  0  0  0  0  0  0  0  0
    8.8928    0.6800  -22.2401 F   0  0  0  0  0  0  0  0  0  0  0  0
    6.0283   -2.5977  -20.2525 F   0  0  0  0  0  0  0  0  0  0  0  0
    7.6120    9.8494  -23.6392 H   0  0  0  0  0  0  0  0  0  0  0  0
    5.1344    9.8082  -23.4116 H   0  0  0  0  0  0  0  0  0  0  0  0
    9.0534    9.3470  -21.6751 H   0  0  0  0  0  0  0  0  0  0  0  0
    4.0969    9.2549  -21.2207 H   0  0  0  0  0  0  0  0  0  0  0  0
    8.0210    8.8138  -19.4761 H   0  0  0  0  0  0  0  0  0  0  0  0
    6.9467    2.3644  -21.7046 H   0  0  0  0  0  0  0  0  0  0  0  0
    4.3723   -0.5817  -19.8857 H   0  0  0  0  0  0  0  0  0  0  0  0
    8.2063   -1.7497  -21.4732 H   0  0  0  0  0  0  0  0  0  0  0  0
    8.0610   -0.3207  -17.7605 H   0  0  0  0  0  0  0  0  0  0  0  0
    6.4802   -0.6682  -16.9814 H   0  0  0  0  0  0  0  0  0  0  0  0
    5.7536    6.0931  -19.2504 H   0  0  0  0  0  0  0  0  0  0  0  0
    6.8160    5.1856  -18.1215 H   0  0  0  0  0  0  0  0  0  0  0  0
    9.2968    1.9575  -16.6082 H   0  0  0  0  0  0  0  0  0  0  0  0
    8.2939    2.6475  -15.2873 H   0  0  0  0  0  0  0  0  0  0  0  0
    4.4788    6.8476  -15.5713 H   0  0  0  0  0  0  0  0  0  0  0  0
    3.9834    7.9748  -16.8792 H   0  0  0  0  0  0  0  0  0  0  0  0
    6.3669    1.4725  -15.9646 H   0  0  0  0  0  0  0  0  0  0  0  0
    6.5742    6.7312  -16.4282 H   0  0  0  0  0  0  0  0  0  0  0  0
    4.9866    4.2994  -16.8998 H   0  0  0  0  0  0  0  0  0  0  0  0
   11.2875    1.7296  -13.0431 H   0  0  0  0  0  0  0  0  0  0  0  0
   11.3768    1.3662  -14.7999 H   0  0  0  0  0  0  0  0  0  0  0  0
   10.3047    2.6803  -14.2078 H   0  0  0  0  0  0  0  0  0  0  0  0
    4.2921    2.6606  -21.3503 H   0  0  0  0  0  0  0  0  0  0  0  0
    3.6295    1.6410  -20.0281 H   0  0  0  0  0  0  0  0  0  0  0  0
    4.8934    9.6372  -18.4856 H   0  0  0  0  0  0  0  0  0  0  0  0
    4.5164    7.9673  -19.0297 H   0  0  0  0  0  0  0  0  0  0  0  0
    9.9747   -0.3173  -13.6019 H   0  0  0  0  0  0  0  0  0  0  0  0
    8.9027    0.9968  -13.0098 H   0  0  0  0  0  0  0  0  0  0  0  0
    3.2768    3.4327  -18.4049 H   0  0  0  0  0  0  0  0  0  0  0  0
    5.9691    3.6266  -19.8557 H   0  0  0  0  0  0  0  0  0  0  0  0
    4.9677    1.7532  -17.7370 H   0  0  0  0  0  0  0  0  0  0  0  0
    3.0510    5.5014  -16.6558 H   0  0  0  0  0  0  0  0  0  0  0  0
    3.1759    6.2697  -18.0913 H   0  0  0  0  0  0  0  0  0  0  0  0
    3.2089    4.2615  -20.5857 H   0  0  0  0  0  0  0  0  0  0  0  0
  1  2  1  0  0  0  0
  1  3  2  0  0  0  0
  2  4  2  0  0  0  0
  3  5  1  0  0  0  0
  4  9  1  0  0  0  0
  5  9  2  0  0  0  0
  6 10  1  0  0  0  0
  6 11  2  0  0  0  0
  7 10  2  0  0  0  0
  7 12  1  0  0  0  0
  8 11  1  0  0  0  0
  8 12  2  0  0  0  0
  9 24  1  0  0  0  0
 10 23  1  0  0  0  0
 11 35  1  0  0  0  0
 12 36  1  0  0  0  0
 13 15  1  0  0  0  0
 13 28  1  0  0  0  0
 13 31  2  0  0  0  0
 14 19  1  0  0  0  0
 14 29  1  0  0  0  0
 14 32  2  0  0  0  0
 15 19  1  0  0  0  0
 16 20  1  0  0  0  0
 16 21  1  0  0  0  0
 17 19  1  0  0  0  0
 17 28  1  0  0  0  0
 18 20  1  0  0  0  0
 18 30  1  0  0  0  0
 20 34  1  0  0  0  0
 21 26  1  0  0  0  0
 21 30  1  0  0  0  0
 22 25  1  0  0  0  0
 23 27  1  0  0  0  0
 24 34  1  0  0  0  0
 25 28  1  0  0  0  0
 26 27  1  0  0  0  0
 26 33  1  0  0  0  0
 27 29  1  0  0  0  0
  1 37  1  0  0  0  0
  2 38  1  0  0  0  0
  3 39  1  0  0  0  0
  4 40  1  0  0  0  0
  5 41  1  0  0  0  0
  6 42  1  0  0  0  0
  7 43  1  0  0  0  0
  8 44  1  0  0  0  0
 15 45  1  0  0  0  0
 15 46  1  0  0  0  0
 16 47  1  0  0  0  0
 16 48  1  0  0  0  0
 17 49  1  0  0  0  0
 17 50  1  0  0  0  0
 18 51  1  0  0  0  0
 18 52  1  0  0  0  0
 19 53  1  0  0  0  0
 20 54  1  0  0  0  0
 21 55  1  0  0  0  0
 22 56  1  0  0  0  0
 22 57  1  0  0  0  0
 22 58  1  0  0  0  0
 23 59  1  0  0  0  0
 23 60  1  0  0  0  0
 24 61  1  0  0  0  0
 24 62  1  0  0  0  0
 25 63  1  0  0  0  0
 25 64  1  0  0  0  0
 26 65  1  0  0  0  0
 27 66  1  0  0  0  0
 29 67  1  0  0  0  0
 30 68  1  0  0  0  0
 30 69  1  0  0  0  0
 33 70  1  0  0  0  0
M  CHG  1  30   1
M  END
> <OMEGA_C>
8SzlQM7LGUFBfrXBTEm4QNZkGUEzeLTBGE7/QJJBFUFWl6zBVYOlQA5hFEFIjKrBNaDsQIdWEEEN
pqLBQzDYQMLvqz/2RavBLnmpQHrLpr7HEKPBHA3vQJkafL/ZMKrBF4q/QDG+D0H6nqHBzDqxQFLv
gD85PqbByRX3QJoGsz6fNq3BE0zIQFopqb92FqXBZZsCQWnSDr+Sa3nB6djeQGYNCkAFMY/Bdgfu
QAx3Dr4C+obBlDS8QPlIuEB+rpHBWpsHQbq14D9Qen7BnlCOQDQP4EChR4XBXjjnQK5/rD8ZIIXB
SvO7QDNE3kD+/InB69OVQJeynUD8/o3BLnArQSSx1z/1sl/BclmRQJc1BkC4g6PBX0OqQIg6C0EN
ApfBZfMYQWfQLD/aTV3BotiCQJ7YgEBZzJbB7sSkQPSKQ0BPK5vBNnIMQZVTGD+LGnHBZoW0QAmx
EECJMZLBl+prQFBSvUA5dYrBVPECQdRA2L/U6HHBJFz7QANmMkB1sZPBZpxkQGRpmkCeTZ/BdmDI
QOXCAkHOOo/BuEgOQYETLj/R67HBuefAQOtAJsAaBaLBkZXzQDCXHUElHb3Bw0ykQEvuHEHwSrvB
odoQQTyNFUGFZq3BrxmDQCsUFEHuw6nBAFYAQVAFDUEOz5vBMEveQEBSF0D6oq3BeemLQKHqFL/m
FZ/B2kwDQSv2378TyavB/vkAQdA0pL6UFY7BDl7PQM8PK78C2ofBhB24QJz6wkDKAJrBghzaQCLw
pUDO+JDBib8UQRuP+j+C3YTBwbMEQetwKUCfmHTBkVKPQIsf20ALJHnBSu9+QMQx/0CNCIfBy73L
QEZ8vD8wb3/B2V/SQEhm10ADbYPB9pGfQFWUiUC4MofBw5k0QQFj3T9fsFDBMQc2QeTerj88zGzB
MOAkQeiJK0AoU2PB1ViJQDZHKkBdzarBmEloQJUM0j+cOaDBjZacQO0xGkGJ4pPBk4aQQAz0/kDL
PJjBdpgfQbF2or4/oVnBdXEOQYAufz8qKFDBCLdRQCKyW0AuPZPBHQO/QMIZaEBq2J7B/vaeQHpo
4D9t5Y3B6kNDQH4LsEABP4XBwUJLQK2hyED0upDBxV5NQPBdiEB/r6TBSu3qQIPZG0ERarTB24wA
QUyTGkGqoarBGJW+QMvRF0FBxLTBNhjrQDcjFUG6NqHBdX2oQN0pEkHAWqvB8aXVQIB2mj8UPavB
lU+jQDQL0L4UraPBIIvnQJCBlb/07arBfsy+QF90EEHwkaHBNAauQIlqbD+9TKbBi3LyQGSOJT4Q
f63BgPq/QCayub/JAqbBBBkTQeb6wD+3qXDBF0/lQBZjFUC3fpDBfK4RQTC1AEB9u4PBiaK8QE4B
uEAQqpHBThHeQMqtqj+7uHvBmnyNQAaD3kCISIXBa0H5QIBAuD9J6IfBHcK6QB5t3kAlG4rBhgCX
QB5FnEDF+Y3BiRn6QKNbj79CbVzBe8SPQAHpAkBkVqPB6timQFxZCkHjgZfBhw30QOyouz7dF1fB
wsiDQNv4fkBvv5bBsxmlQH4QQUAgXpvBgez8QHP7lD/QHGrBJa+5QAyoEEChm5LBv6BsQKziukCG
WorBolYjQSRyvz9isWXBx8r8QDVLQkAX/5XB1VZmQFZYmUD0Np/Bc+HEQGQJA0HXZ4/BBE8MQZDd
3j4gGLLBW6G1QAdOLsDjb6PBr+v7QJzrH0E3qLvBsoURQYDHHUF7XarBxoStQPEQGUEPQbzBjwP8
QIWHFEGlr5nBdnuGQJUiD0E0oKvBQNndQJBbDkAfSK3BxxGFQBaKH7/p3p/BeoT9QMw6/L+Wu6zB
l2wRQTsVR0Bt7YPBQEAfQXxc0j/GgIjBYoa4QM0TwkCUCJrBESDbQIG/pkBZ0JDBhhTLQBTnD0Cz
bHnBEobIQI1r7j6xsnzBRBePQNi52UAHJnnBerp6QAUH/UB8A4fBVtD+QK/03j4nOYvBS7vRQHj6
2EBJlIPBsWGhQNsiiEBoPYfB63DzQFDx3L9FH07B9PPjQIbws7/fUWnB/p4NQTyOpb+tqmHBcteG
QLM4JkC2narB08BlQEU3zz9vpZ/B0k+VQCxbGEGVepTBPhSQQMff+kAuV5nBmunSQAmZCj/L3FHB
0RkFQZ5dJz+YNUrBjptTQPcNWUDvK5PBNH29QL9nZkCRqp/BQH6nQLPr1T9JA47Br3FFQJT5rEDv
EYXB6pdKQF+FxUDHlZDBXrVOQNt2h0DLmqTB

> <OMEGA_E>
wIYZPzRlOD8=

> <OMEGA_NBR>
     24206

$$$$
50210664
  -OEChem-04172616093D

 76 79  0     1  0  0  0  0  0999 V2000
    7.2194    9.3599  -22.4850 C   0  0  0  0  0  0  0  0  0  0  0  0
    8.1706    9.2599  -21.4490 C   0  0  0  0  0  0  0  0  0  0  0  0
    5.8431    9.2717  -22.1947 C   0  0  0  0  0  0  0  0  0  0  0  0
    7.7462    9.0872  -20.1192 C   0  0  0  0  0  0  0  0  0  0  0  0
    5.4171    9.1007  -20.8656 C   0  0  0  0  0  0  0  0  0  0  0  0
    6.6655    1.1518  -21.3145 C   0  0  0  0  0  0  0  0  0  0  0  0
    5.2586   -0.4454  -20.1147 C   0  0  0  0  0  0  0  0  0  0  0  0
    7.3849   -1.1660  -21.0721 C   0  0  0  0  0  0  0  0  0  0  0  0
    6.3684    9.0181  -19.8268 C   0  0  0  0  0  0  0  0  0  0  0  0
    5.4801    0.8595  -20.6080 C   0  0  0  0  0  0  0  0  0  0  0  0
    7.6161    0.1414  -21.5451 C   0  0  0  0  0  0  0  0  0  0  0  0
    6.2089   -1.4582  -20.3519 C   0  0  0  0  0  0  0  0  0  0  0  0
    8.1081   -0.5996  -15.9956 C   0  0  0  0  0  0  0  0  0  0  0  0
    7.0030    2.3888  -17.8870 C   0  0  0  0  0  0  0  0  0  0  0  0
    7.1593    0.0624  -16.9830 C   0  0  0  0  0  0  0  0  0  0  0  0
    5.7720    5.9168  -18.4725 C   0  0  0  0  0  0  0  0  0  0  0  0
    8.7489    1.6186  -16.2182 C   0  0  0  0  0  0  0  0  0  0  0  0
    4.5317    6.9870  -16.6928 C   0  0  0  0  0  0  0  0  0  0  0  0
    7.3251    1.5430  -16.6841 C   0  0  1  0  0  0  0  0  0  0  0  0
    5.9566    6.8389  -17.2858 C   0  0  2  0  0  0  0  0  0  0  0  0
    4.7122    4.9854  -17.8970 C   0  0  2  0  0  0  0  0  0  0  0  0
   13.1051    0.7863  -14.3603 C   0  0  0  0  0  0  0  0  0  0  0  0
    4.4829    1.9659  -20.3213 C   0  0  0  0  0  0  0  0  0  0  0  0
    5.9027    9.0286  -18.3995 C   0  0  0  0  0  0  0  0  0  0  0  0
   11.9576    1.7688  -14.6862 C   0  0  0  0  0  0  0  0  0  0  0  0
   10.6761    1.3700  -13.9266 C   0  0  0  0  0  0  0  0  0  0  0  0
   10.0148    0.1122  -14.5462 C   0  0  0  0  0  0  0  0  0  0  0  0
    4.0695    4.0303  -18.9069 C   0  0  2  0  0  0  0  0  0  0  0  0
    5.1209    3.0393  -19.4205 C   0  0  1  0  0  0  0  0  0  0  0  0
    8.8532    0.4195  -15.3795 N   0  0  0  0  0  0  0  0  0  0  0  0
    5.6805    2.3651  -18.2611 N   0  0  0  0  0  0  0  0  0  0  0  0
    3.7307    5.8970  -17.2957 N   0  3  0  0  0  0  0  0  0  0  0  0
    8.2303   -1.8099  -15.8489 O   0  0  0  0  0  0  0  0  0  0  0  0
    7.8445    3.0912  -18.4398 O   0  0  0  0  0  0  0  0  0  0  0  0
    3.5039    4.7560  -19.9916 O   0  0  0  0  0  0  0  0  0  0  0  0
    6.6324    8.0741  -17.5961 O   0  0  0  0  0  0  0  0  0  0  0  0
    8.7515    0.4289  -22.2200 F   0  0  0  0  0  0  0  0  0  0  0  0
    6.0003   -2.7067  -19.8756 F   0  0  0  0  0  0  0  0  0  0  0  0
    7.5465    9.5044  -23.5041 H   0  0  0  0  0  0  0  0  0  0  0  0
    9.2249    9.3160  -21.6765 H   0  0  0  0  0  0  0  0  0  0  0  0
    5.1170    9.3353  -22.9916 H   0  0  0  0  0  0  0  0  0  0  0  0
    8.4733    9.0078  -19.3245 H   0  0  0  0  0  0  0  0  0  0  0  0
    4.3631    9.0328  -20.6402 H   0  0  0  0  0  0  0  0  0  0  0  0
    6.8433    2.1529  -21.6788 H   0  0  0  0  0  0  0  0  0  0  0  0
    4.3612   -0.6667  -19.5561 H   0  0  0  0  0  0  0  0  0  0  0  0
    8.1092   -1.9444  -21.2616 H   0  0  0  0  0  0  0  0  0  0  0  0
    7.4473   -0.1653  -18.0200 H   0  0  0  0  0  0  0  0  0  0  0  0
    6.1222   -0.2612  -16.8110 H   0  0  0  0  0  0  0  0  0  0  0  0
    5.4080    6.4558  -19.3596 H   0  0  0  0  0  0  0  0  0  0  0  0
    6.6986    5.3799  -18.7242 H   0  0  0  0  0  0  0  0  0  0  0  0
    9.4501    1.5778  -17.0648 H   0  0  0  0  0  0  0  0  0  0  0  0
    8.9315    2.5330  -15.6346 H   0  0  0  0  0  0  0  0  0  0  0  0
    4.5592    6.8823  -15.5982 H   0  0  0  0  0  0  0  0  0  0  0  0
    4.1064    7.9665  -16.9569 H   0  0  0  0  0  0  0  0  0  0  0  0
    6.6558    1.8198  -15.8561 H   0  0  0  0  0  0  0  0  0  0  0  0
    6.5575    6.2966  -16.5409 H   0  0  0  0  0  0  0  0  0  0  0  0
    5.1764    4.3834  -17.1019 H   0  0  0  0  0  0  0  0  0  0  0  0
   14.0106    1.0843  -14.9092 H   0  0  0  0  0  0  0  0  0  0  0  0
   13.3085    0.8059  -13.2794 H   0  0  0  0  0  0  0  0  0  0  0  0
   12.8129   -0.2309  -14.6600 H   0  0  0  0  0  0  0  0  0  0  0  0
    4.1698    2.4271  -21.2696 H   0  0  0  0  0  0  0  0  0  0  0  0
    3.6050    1.5406  -19.8130 H   0  0  0  0  0  0  0  0  0  0  0  0
    6.0527   10.0353  -17.9823 H   0  0  0  0  0  0  0  0  0  0  0  0
    4.8326    8.7755  -18.3710 H   0  0  0  0  0  0  0  0  0  0  0  0
   12.2546    2.7849  -14.3873 H   0  0  0  0  0  0  0  0  0  0  0  0
   11.7589    1.7481  -15.7679 H   0  0  0  0  0  0  0  0  0  0  0  0
   10.9335    1.1585  -12.8782 H   0  0  0  0  0  0  0  0  0  0  0  0
    9.9620    2.2058  -13.9674 H   0  0  0  0  0  0  0  0  0  0  0  0
   10.7618   -0.4054  -15.1660 H   0  0  0  0  0  0  0  0  0  0  0  0
    9.6929   -0.5509  -13.7297 H   0  0  0  0  0  0  0  0  0  0  0  0
    3.2826    3.4609  -18.3906 H   0  0  0  0  0  0  0  0  0  0  0  0
    5.9011    3.5778  -19.9784 H   0  0  0  0  0  0  0  0  0  0  0  0
    5.0512    1.8404  -17.6878 H   0  0  0  0  0  0  0  0  0  0  0  0
    3.1971    5.4246  -16.5942 H   0  0  0  0  0  0  0  0  0  0  0  0
    3.1148    6.2599  -17.9949 H   0  0  0  0  0  0  0  0  0  0  0  0
    3.1100    4.1496  -20.6077 H   0  0  0  0  0  0  0  0  0  0  0  0
  1  2  1  0  0  0  0
  1  3  2  0  0  0  0
  2  4  2  0  0  0  0
  3  5  1  0  0  0  0
  4  9  1  0  0  0  0
  5  9  2  0  0  0  0
  6 10  1  0  0  0  0
  6 11  2  0  0  0  0
  7 10  2  0  0  0  0
  7 12  1  0  0  0  0
  8 11  1  0  0  0  0
  8 12  2  0  0  0  0
  9 24  1  0  0  0  0
 10 23  1  0  0  0  0
 11 37  1  0  0  0  0
 12 38  1  0  0  0  0
 13 15  1  0  0  0  0
 13 30  1  0  0  0  0
 13 33  2  0  0  0  0
 14 19  1  0  0  0  0
 14 31  1  0  0  0  0
 14 34  2  0  0  0  0
 15 19  1  0  0  0  0
 16 20  1  0  0  0  0
 16 21  1  0  0  0  0
 17 19  1  0  0  0  0
 17 30  1  0  0  0  0
 18 20  1  0  0  0  0
 18 32  1  0  0  0  0
 20 36  1  0  0  0  0
 21 28  1  0  0  0  0
 21 32  1  0  0  0  0
 22 25  1  0  0  0  0
 23 29  1  0  0  0  0
 24 36  1  0  0  0  0
 25 26  1  0  0  0  0
 26 27  1  0  0  0  0
 27 30  1  0  0  0  0
 28 29  1  0  0  0  0
 28 35  1  0  0  0  0
 29 31  1  0  0  0  0
  1 39  1  0  0  0  0
  2 40  1  0  0  0  0
  3 41  1  0  0  0  0
  4 42  1  0  0  0  0
  5 43  1  0  0  0  0
  6 44  1  0  0  0  0
  7 45  1  0  0  0  0
  8 46  1  0  0  0  0
 15 47  1  0  0  0  0
 15 48  1  0  0  0  0
 16 49  1  0  0  0  0
 16 50  1  0  0  0  0
 17 51  1  0  0  0  0
 17 52  1  0  0  0  0
 18 53  1  0  0  0  0
 18 54  1  0  0  0  0
 19 55  1  0  0  0  0
 20 56  1  0  0  0  0
 21 57  1  0  0  0  0
 22 58  1  0  0  0  0
 22 59  1  0  0  0  0
 22 60  1  0  0  0  0
 23 61  1  0  0  0  0
 23 62  1  0  0  0  0
 24 63  1  0  0  0  0
 24 64  1  0  0  0  0
 25 65  1  0  0  0  0
 25 66  1  0  0  0  0
 26 67  1  0  0  0  0
 26 68  1  0  0  0  0
 27 69  1  0  0  0  0
 27 70  1  0  0  0  0
 28 71  1  0  0  0  0
 29 72  1  0  0  0  0
 31 73  1  0  0  0  0
 32 74  1  0  0  0  0
 32 75  1  0  0  0  0
 35 76  1  0  0  0  0
M  CHG  1  32   1
M  END
> <OMEGA_C>
iQXnQAHCFUFU4bPByLoCQaooFEGhl6vBBvu6QMFYFEG6jrHB6OD3QEVlEUEp9KDBKFmtQI2cEUHH
7KbBGEzVQLBukz8XhKrBREaoQLQI5L4A66DBKVHsQIs/lb+3k6jBJMrLQPJJEEFinZ7BCF2vQFoJ
XD8c3aTBI7fzQDjRED5eXKzBlK/GQEWlur+n0KLByLoBQVKBGb8X7n/B7RjgQGDhGECoGI/BVRnl
QOBufz1G3YfBorS4QFxWvUCjx5PBevsLQRMvzz/0voHBwgORQM+V30DgioXB0mbqQGOCxT/weIXB
k5y+QFvY2kBVSYrBtMqWQFGIn0AQLY/BZK5RQTpOST+5w2XBuHOPQKui+z//kaLBO+O8QEh1EEEt
MpPBIlI/QaVo4j98+mrBONEqQVZdrz8/017BfDwgQTDJ5T03vWjB8jiCQDj4gEBCQZfBot6jQLaD
QkA8XZvBzaYNQezF1j6JEnbBAMe1QKRdF0C3FpLBvsNuQFK0vECVXYrBWK8DQW2r57/vlH3B5AX7
QLLWRUDJhJPBQEBgQPQwmEC87p/BwDzUQHEvAUHAxIzBRgYMQaiX2z6NwrHBvALAQPY6LcA1AZ/B
5HzxQCgSGEFoCLzBGZkTQT8OFUGRaa3BYb6jQEJdFUHJ7rfBcJIHQR4gEEGtmJrBnJ6LQEaGEEEU
H6XBn/zaQE7ICUAubq3BlY6LQM6rKr/ycpzBF78BQSLj+L/WF6rB70/uQDVNKb7xKJDBw+jDQCK3
hb75fIbBhw6tQDqWzkBh4JrBi1rWQHMorEA7y5XBwDMXQYb0yT+ghIjBoOcOQeQbIkBMJ3rB2+SR
QPI73EAHknnB7WeDQNDt/kC1p4fB6/vUQNju6D+5sn3BG9fRQB1+yUDIU4TBMqWlQL5EjEDA0IjB
TStgQXzLij/8i27ByO9UQVRSTj+ZeFTBkQFNQSdwbL5hj2rBM2+FQK1VG0AiKKrBnrdmQMMwxT8R
gZ7BdK/BQLiQIEGy24/B6aSaQJtoDEHH95LB0BJEQR88MkBvMmbBmCQ8QQ/B3z83SXzBge8uQflJ
lD9FDU7BZ2QfQUcrDUBNel/BRTAsQayKz77Ap3LB8BUbQaUGDb/GrFvBwBVSQMZ+XUDeH5PBNta8
QJH6ZEDX05/B0KOhQKuR6z+agI3Bwp1MQJKWrUDTwITBYVhHQDZRyECg9Y/B9gpHQFfJhECd3KTB

> <OMEGA_E>
MDVGPw==

> <OMEGA_NBR>
     25772

$$$$
50210671
  -OEChem-04172616093D

 73 77  0     1  0  0  0  0  0999 V2000
    6.4803    9.7144  -22.9040 C   0  0  0  0  0  0  0  0  0  0  0  0
    7.7617    9.4648  -22.3739 C   0  0  0  0  0  0  0  0  0  0  0  0
    5.3407    9.5856  -22.0859 C   0  0  0  0  0  0  0  0  0  0  0  0
    7.9049    9.0869  -21.0256 C   0  0  0  0  0  0  0  0  0  0  0  0
    5.4811    9.2128  -20.7355 C   0  0  0  0  0  0  0  0  0  0  0  0
    6.7615    1.2256  -21.3745 C   0  0  0  0  0  0  0  0  0  0  0  0
    4.9871   -0.3140  -20.7007 C   0  0  0  0  0  0  0  0  0  0  0  0
    7.0942   -1.1848  -21.5635 C   0  0  0  0  0  0  0  0  0  0  0  0
    7.2166   -4.0275  -18.0280 C   0  0  0  0  0  0  0  0  0  0  0  0
    5.9036   -4.3394  -17.7663 C   0  0  0  0  0  0  0  0  0  0  0  0
    6.7682    8.9549  -20.2014 C   0  0  0  0  0  0  0  0  0  0  0  0
    5.4669    1.0019  -20.8568 C   0  0  0  0  0  0  0  0  0  0  0  0
    7.5761    0.1311  -21.7216 C   0  0  0  0  0  0  0  0  0  0  0  0
    5.7985   -1.4056  -21.0543 C   0  0  0  0  0  0  0  0  0  0  0  0
    6.9563   -2.8611  -16.0888 C   0  0  0  0  0  0  0  0  0  0  0  0
    8.3739    0.3837  -14.8769 C   0  0  0  0  0  0  0  0  0  0  0  0
    7.1576    2.2605  -17.9042 C   0  0  0  0  0  0  0  0  0  0  0  0
    8.3058    1.6646  -15.7115 C   0  0  0  0  0  0  0  0  0  0  0  0
    5.9820    5.7945  -18.1325 C   0  0  0  0  0  0  0  0  0  0  0  0
    6.8627    0.0537  -16.6309 C   0  0  0  0  0  0  0  0  0  0  0  0
    4.5268    6.8764  -16.5086 C   0  0  0  0  0  0  0  0  0  0  0  0
    7.7902    1.1681  -17.0520 C   0  0  1  0  0  0  0  0  0  0  0  0
    5.8311    7.0604  -17.2837 C   0  0  2  0  0  0  0  0  0  0  0  0
    4.8150    4.8976  -17.6940 C   0  0  2  0  0  0  0  0  0  0  0  0
    4.5891    2.1627  -20.4541 C   0  0  0  0  0  0  0  0  0  0  0  0
    6.9661    8.6129  -18.7407 C   0  0  0  0  0  0  0  0  0  0  0  0
    7.2807   -1.8935  -14.9787 C   0  0  0  0  0  0  0  0  0  0  0  0
    4.2234    4.0193  -18.8074 C   0  0  2  0  0  0  0  0  0  0  0  0
    5.2609    3.0417  -19.3761 C   0  0  1  0  0  0  0  0  0  0  0  0
    7.7748   -3.1808  -17.0679 N   0  0  0  0  0  0  0  0  0  0  0  0
    7.6362   -0.5967  -15.5589 N   0  0  0  0  0  0  0  0  0  0  0  0
    5.8209    2.1952  -18.2975 N   0  0  0  0  0  0  0  0  0  0  0  0
    3.7879    5.8316  -17.2217 N   0  3  0  0  0  0  0  0  0  0  0  0
    8.9807    0.2600  -13.8197 O   0  0  0  0  0  0  0  0  0  0  0  0
    7.8962    3.1470  -18.3120 O   0  0  0  0  0  0  0  0  0  0  0  0
    3.7275    4.8471  -19.8635 O   0  0  0  0  0  0  0  0  0  0  0  0
    5.7229    8.2104  -18.1292 O   0  0  0  0  0  0  0  0  0  0  0  0
    8.8217    0.3429  -22.2030 F   0  0  0  0  0  0  0  0  0  0  0  0
    5.3336   -2.6652  -20.8976 F   0  0  0  0  0  0  0  0  0  0  0  0
    5.3888   -3.5835  -16.2969 S   0  0  0  0  0  0  0  0  0  0  0  0
    6.3717   10.0048  -23.9385 H   0  0  0  0  0  0  0  0  0  0  0  0
    8.6344    9.5635  -23.0024 H   0  0  0  0  0  0  0  0  0  0  0  0
    4.3588    9.7730  -22.4948 H   0  0  0  0  0  0  0  0  0  0  0  0
    8.8882    8.8975  -20.6210 H   0  0  0  0  0  0  0  0  0  0  0  0
    4.6077    9.1234  -20.1066 H   0  0  0  0  0  0  0  0  0  0  0  0
    7.1259    2.2340  -21.5038 H   0  0  0  0  0  0  0  0  0  0  0  0
    3.9950   -0.4837  -20.3091 H   0  0  0  0  0  0  0  0  0  0  0  0
    7.7184   -2.0239  -21.8328 H   0  0  0  0  0  0  0  0  0  0  0  0
    7.7589   -4.3980  -18.8853 H   0  0  0  0  0  0  0  0  0  0  0  0
    5.2823   -4.9664  -18.3885 H   0  0  0  0  0  0  0  0  0  0  0  0
    7.6116    2.3917  -15.2650 H   0  0  0  0  0  0  0  0  0  0  0  0
    9.3004    2.1231  -15.8150 H   0  0  0  0  0  0  0  0  0  0  0  0
    5.9079    6.0333  -19.2037 H   0  0  0  0  0  0  0  0  0  0  0  0
    6.9461    5.3043  -17.9319 H   0  0  0  0  0  0  0  0  0  0  0  0
    5.9084    0.4488  -16.2525 H   0  0  0  0  0  0  0  0  0  0  0  0
    6.6684   -0.6406  -17.4617 H   0  0  0  0  0  0  0  0  0  0  0  0
    4.7354    6.5618  -15.4754 H   0  0  0  0  0  0  0  0  0  0  0  0
    3.9514    7.8138  -16.4974 H   0  0  0  0  0  0  0  0  0  0  0  0
    8.6319    0.7332  -17.6110 H   0  0  0  0  0  0  0  0  0  0  0  0
    6.6766    7.1501  -16.5858 H   0  0  0  0  0  0  0  0  0  0  0  0
    5.1476    4.2536  -16.8666 H   0  0  0  0  0  0  0  0  0  0  0  0
    4.3858    2.7802  -21.3414 H   0  0  0  0  0  0  0  0  0  0  0  0
    3.6417    1.7713  -20.0549 H   0  0  0  0  0  0  0  0  0  0  0  0
    7.6901    7.7887  -18.6595 H   0  0  0  0  0  0  0  0  0  0  0  0
    7.3560    9.4966  -18.2143 H   0  0  0  0  0  0  0  0  0  0  0  0
    6.4039   -1.7761  -14.3249 H   0  0  0  0  0  0  0  0  0  0  0  0
    8.1274   -2.2781  -14.3911 H   0  0  0  0  0  0  0  0  0  0  0  0
    3.3970    3.4329  -18.3795 H   0  0  0  0  0  0  0  0  0  0  0  0
    6.0703    3.6189  -19.8471 H   0  0  0  0  0  0  0  0  0  0  0  0
    5.2154    1.5498  -17.8317 H   0  0  0  0  0  0  0  0  0  0  0  0
    3.1491    5.3700  -16.6061 H   0  0  0  0  0  0  0  0  0  0  0  0
    3.2848    6.2208  -17.9933 H   0  0  0  0  0  0  0  0  0  0  0  0
    3.3627    4.3009  -20.5498 H   0  0  0  0  0  0  0  0  0  0  0  0
  1  2  1  0  0  0  0
  1  3  2  0  0  0  0
  2  4  2  0  0  0  0
  3  5  1  0  0  0  0
  4 11  1  0  0  0  0
  5 11  2  0  0  0  0
  6 12  1  0  0  0  0
  6 13  2  0  0  0  0
  7 12  2  0  0  0  0
  7 14  1  0  0  0  0
  8 13  1  0  0  0  0
  8 14  2  0  0  0  0
  9 10  2  0  0  0  0
  9 30  1  0  0  0  0
 10 40  1  0  0  0  0
 11 26  1  0  0  0  0
 12 25  1  0  0  0  0
 13 38  1  0  0  0  0
 14 39  1  0  0  0  0
 15 27  1  0  0  0  0
 15 30  2  0  0  0  0
 15 40  1  0  0  0  0
 16 18  1  0  0  0  0
 16 31  1  0  0  0  0
 16 34  2  0  0  0  0
 17 22  1  0  0  0  0
 17 32  1  0  0  0  0
 17 35  2  0  0  0  0
 18 22  1  0  0  0  0
 19 23  1  0  0  0  0
 19 24  1  0  0  0  0
 20 22  1  0  0  0  0
 20 31  1  0  0  0  0
 21 23  1  0  0  0  0
 21 33  1  0  0  0  0
 23 37  1  0  0  0  0
 24 28  1  0  0  0  0
 24 33  1  0  0  0  0
 25 29  1  0  0  0  0
 26 37  1  0  0  0  0
 27 31  1  0  0  0  0
 28 29  1  0  0  0  0
 28 36  1  0  0  0  0
 29 32  1  0  0  0  0
  1 41  1  0  0  0  0
  2 42  1  0  0  0  0
  3 43  1  0  0  0  0
  4 44  1  0  0  0  0
  5 45  1  0  0  0  0
  6 46  1  0  0  0  0
  7 47  1  0  0  0  0
  8 48  1  0  0  0  0
  9 49  1  0  0  0  0
 10 50  1  0  0  0  0
 18 51  1  0  0  0  0
 18 52  1  0  0  0  0
 19 53  1  0  0  0  0
 19 54  1  0  0  0  0
 20 55  1  0  0  0  0
 20 56  1  0  0  0  0
 21 57  1  0  0  0  0
 21 58  1  0  0  0  0
 22 59  1  0  0  0  0
 23 60  1  0  0  0  0
 24 61  1  0  0  0  0
 25 62  1  0  0  0  0
 25 63  1  0  0  0  0
 26 64  1  0  0  0  0
 26 65  1  0  0  0  0
 27 66  1  0  0  0  0
 27 67  1  0  0  0  0
 28 68  1  0  0  0  0
 29 69  1  0  0  0  0
 32 70  1  0  0  0  0
 33 71  1  0  0  0  0
 33 72  1  0  0  0  0
 36 73  1  0  0  0  0
M  CHG  1  33   1
M  END
> <OMEGA_C>
mF7PQC5uG0FYO7fBDmD4QM9vF0HJ/bLBveaqQLNeGUHnr7DBVvX8QPdjEUFrNKjBQGWvQMNnE0Fm
4qXBWF7YQIrgnD/h/qrBPZafQO7IoL4Sm6XBlQPjQAmml78dgqzBBu7mQEbhgMBDOZDBY+q8QFXc
isBgIY7B7ZTYQGRHD0GKnKHB3PCuQNg+gD+q2qbBHm/yQCc4Bj7Qxa3BiY25QBLrs79Kb6jB8Jne
QMwcN8DdtYDBavsFQY5uxD7IB27B1wrlQG2rEEDfO4/BneQEQY8S1T9UYnvBUGy/QMhsuUBPD5HB
GJvbQGzDWz0fDIXBg9uQQDIL3ECjEYTBhEn5QEGFlT+ZaojBEpi6QKTu4UDuRIrBkRSaQEq5nEBW
jY3Bw9mSQChqCkDwoaPBqereQHTOCUEA7ZXByvvoQMxc8r++qG/BSiaHQFGegECWdZbBp1moQLWr
QkBMApvBIsv4QPGSS8AMi4jBYlv0QIi+GL9q8XjBr0S6QIJ9DEA6YZLBRmxyQE+cukANxonBw7AP
QWgchT5jHV3BZK38QJZoSUAQf5LBGJBuQGIbm0Bo6J7BHCK3QJtdA0GfCJHBoCUNQXaUrz7Gn7HB
Oa2qQP6SKsBDLqfBuHCsQJJXZcAeYILBk+TLQHYTIEEagr/BoiYKQfgDGUECBbjBFHuLQAZeHEFR
9bPBMzYOQRJcDkHh96TBqHKTQGH5EUE32qDBtAfkQOL5DkC/B6zBWq5/QMmq9771eKLBAf32QGKI
AcCrqa7BRkn4QGG8jMD+FJfBUwipQMnsnsC8G5PBF5LzQKURGUBAPXTBR84UQWLgB0AuCn3BdA29
QA4RwUAkoZnBFUbeQOO8qUCMdI/BthG9QNPL5T4YBYLBVGPVQB7/I7+dsYvBbIiXQF360UA3m3fB
ZOR8QOgK+kCy+oPBMRwKQS2wOz9N44zBeKbVQKjN5EChr4TBDLmkQE0diEDP7obBdliMQIXvMUAv
u6rBaRJpQIO54j9zcKDBEBX2QOw8+UCmRpXBo2TrQADyF0HutpHB0OzMQKBX47/xMmXBtwkCQeDL
EcDoQWbBQ2hZQKu0W0A3CZPBGkDCQGubZ0Ddxp7Bc+SmQHxhxj9Rp47BgIpJQErXq0Bb2YTBfzpS
QBYRx0Bg8o/BMTZXQBahiUAIZqTBKkT2QBHXF0F7E7XBugoDQd55EkFe3KrBWt7JQJDzGUGrxLbB
+onpQHSJD0GjSaLBZkGtQJfoFkHPN67BoJfWQOMgoT9wIqvBQjqgQB4hvr7t6aXB9iDlQKppkL8F
z6zB1kvpQJ4Pf8BU/4/B+g+/QKuUicAjOo7BDCC9QBQbEkGK76PBUoCtQAcMeD90BKfB0n7yQJPI
Vz616q3BuPK7QCh9tb/I1ajBFNjeQDAsM8D+p4DBjasFQdyq6z4H+m3BiLnjQP8UFEDdRY/BtW0E
QSM23z80UHvBSKzBQNR8tUBat5DBnP/bQFzy3D0yLIXBUGmSQPl/30BmUYbBKhL5QNsmnz/ab4jB
GNWyQG334kDZTY/BlKiaQEQAmkBLVY3BsvyPQH6KBUBjf6PBQGaeQKWTDkHH3prBskroQB2/6L8d
l2/BvhyGQI/Mf0BIeZbBRj+mQHGlP0ARN5vBzg36QPgsSMARPojBSlz0QCLEB7/1AHnBnGu5QEjk
CkCmpZLBaVV1QHEtuECO5IjBl0EPQdQ/rz4h+1zBmP35QHKJT0A0ZJLBnTxuQMihm0BowZ7B9ied
QAci8ECf45jBzBUNQWgw+z7tm7HBFCKvQG7jLMAGuKfBvPKsQIDZYcCsrYLBLh4GQR9XGkGioLvB
0goUQSmgEEGgnqnBQ9a9QOjmHUGKn77B4oz1QJ9TC0HsdprB1zKLQHY/GEGAhq/BKJPgQAo+EkAi
JazBjsGAQD1GGL/Q0qLBEnP6QPxg979TAa/BR5X7QFyWi8AyrpbB0uurQFjwncClT5PBciXyQPxp
HUAWRHTB/z8UQRPjDUAAxnzBSUDKQIZDr0CeG5nBWGTdQDzHrkDmjovBzP+8QE9x9z72R4LB97XW
QH3hFr9p2YvBCnqiQB+u3EAdCn3BO/B5QNhp+0CIPIbBeDQKQTPEVD9m5IzBtW7NQLFX+EBJJY3B
fPCkQOO5g0DKBYfBrv6GQDgSLEDagqrBfR1mQF5r0z9O45/BBYGpQBMXF0Gcr5PBmL18QFBgFEFT
Fp3BVKXLQJo62L+mkmXBQ2MBQReoDMCPtmXBfCRWQDCDW0DfIZPBZKy/QLy4Y0A0TZ/BrDanQHYW
vT+tGo/Bf6JaQCD9q0CiSoLB+8VHQAFEvkAWTY7Byi5VQCgSi0BjTqTB

> <OMEGA_E>
YOjnPlA7Fz8=

> <OMEGA_NBR>
     28419

$$$$
50210675
  -OEChem-04172616093D

 79 82  0     1  0  0  0  0  0999 V2000
    6.1443    9.6972  -23.1156 C   0  0  0  0  0  0  0  0  0  0  0  0
    5.0428    9.5320  -22.2529 C   0  0  0  0  0  0  0  0  0  0  0  0
    7.4556    9.5408  -22.6245 C   0  0  0  0  0  0  0  0  0  0  0  0
    5.2512    9.2162  -20.8968 C   0  0  0  0  0  0  0  0  0  0  0  0
    7.6669    9.2177  -21.2710 C   0  0  0  0  0  0  0  0  0  0  0  0
    6.9394    1.2453  -21.3355 C   0  0  0  0  0  0  0  0  0  0  0  0
    5.1922   -0.2676  -20.5396 C   0  0  0  0  0  0  0  0  0  0  0  0
    7.2806   -1.1692  -21.4159 C   0  0  0  0  0  0  0  0  0  0  0  0
    6.5689    9.0490  -20.4024 C   0  0  0  0  0  0  0  0  0  0  0  0
    5.6616    1.0408  -20.7774 C   0  0  0  0  0  0  0  0  0  0  0  0
    7.7487    0.1398  -21.6536 C   0  0  0  0  0  0  0  0  0  0  0  0
    6.0014   -1.3718  -20.8591 C   0  0  0  0  0  0  0  0  0  0  0  0
    8.1129   -0.4955  -15.1272 C   0  0  0  0  0  0  0  0  0  0  0  0
    7.1948    2.1874  -17.6461 C   0  0  0  0  0  0  0  0  0  0  0  0
    8.2591    0.9580  -15.6237 C   0  0  0  0  0  0  0  0  0  0  0  0
    6.0399    5.9063  -18.1957 C   0  0  0  0  0  0  0  0  0  0  0  0
    6.7262   -0.2179  -16.9714 C   0  0  0  0  0  0  0  0  0  0  0  0
    4.5734    6.9789  -16.5703 C   0  0  0  0  0  0  0  0  0  0  0  0
    7.7692    0.8818  -17.0592 C   0  0  1  0  0  0  0  0  0  0  0  0
    5.8447    7.1981  -17.3921 C   0  0  2  0  0  0  0  0  0  0  0  0
    4.9333    4.9742  -17.6836 C   0  0  2  0  0  0  0  0  0  0  0  0
    9.0770   -3.8091  -17.2748 C   0  0  0  0  0  0  0  0  0  0  0  0
    4.8041    2.2210  -20.4049 C   0  0  0  0  0  0  0  0  0  0  0  0
    6.8374    8.7575  -18.9423 C   0  0  0  0  0  0  0  0  0  0  0  0
    7.8172   -3.6702  -18.1546 C   0  0  0  0  0  0  0  0  0  0  0  0
    6.5369   -4.1923  -17.4540 C   0  0  0  0  0  0  0  0  0  0  0  0
    5.7142   -3.1044  -16.7214 C   0  0  0  0  0  0  0  0  0  0  0  0
    6.4790   -2.3683  -15.5814 C   0  0  0  0  0  0  0  0  0  0  0  0
    4.3658    4.0281  -18.7432 C   0  0  2  0  0  0  0  0  0  0  0  0
    5.4417    3.0688  -19.2756 C   0  0  1  0  0  0  0  0  0  0  0  0
    7.2696   -1.1911  -16.0192 N   0  0  0  0  0  0  0  0  0  0  0  0
    5.9082    2.1781  -18.1929 N   0  0  0  0  0  0  0  0  0  0  0  0
    3.8700    5.8734  -17.2235 N   0  3  0  0  0  0  0  0  0  0  0  0
    8.5954   -0.9321  -14.0886 O   0  0  0  0  0  0  0  0  0  0  0  0
    7.9297    3.1604  -17.7614 O   0  0  0  0  0  0  0  0  0  0  0  0
    3.8064    4.7885  -19.8198 O   0  0  0  0  0  0  0  0  0  0  0  0
    5.6410    8.3043  -18.2778 O   0  0  0  0  0  0  0  0  0  0  0  0
    8.9766    0.3360  -22.1836 F   0  0  0  0  0  0  0  0  0  0  0  0
    5.5533   -2.6246  -20.6201 F   0  0  0  0  0  0  0  0  0  0  0  0
    5.9834    9.9441  -24.1546 H   0  0  0  0  0  0  0  0  0  0  0  0
    4.0382    9.6476  -22.6320 H   0  0  0  0  0  0  0  0  0  0  0  0
    8.2989    9.6689  -23.2869 H   0  0  0  0  0  0  0  0  0  0  0  0
    4.4069    9.1014  -20.2333 H   0  0  0  0  0  0  0  0  0  0  0  0
    8.6729    9.0987  -20.8966 H   0  0  0  0  0  0  0  0  0  0  0  0
    7.2962    2.2481  -21.5184 H   0  0  0  0  0  0  0  0  0  0  0  0
    4.2122   -0.4211  -20.1125 H   0  0  0  0  0  0  0  0  0  0  0  0
    7.9029   -2.0174  -21.6606 H   0  0  0  0  0  0  0  0  0  0  0  0
    7.6362    1.6429  -15.0296 H   0  0  0  0  0  0  0  0  0  0  0  0
    9.3081    1.2863  -15.5812 H   0  0  0  0  0  0  0  0  0  0  0  0
    5.9232    6.0956  -19.2730 H   0  0  0  0  0  0  0  0  0  0  0  0
    7.0333    5.4744  -18.0048 H   0  0  0  0  0  0  0  0  0  0  0  0
    5.7703    0.1859  -16.6064 H   0  0  0  0  0  0  0  0  0  0  0  0
    6.5749   -0.6849  -17.9558 H   0  0  0  0  0  0  0  0  0  0  0  0
    4.8271    6.7137  -15.5334 H   0  0  0  0  0  0  0  0  0  0  0  0
    3.9516    7.8862  -16.5751 H   0  0  0  0  0  0  0  0  0  0  0  0
    8.5950    0.5409  -17.7010 H   0  0  0  0  0  0  0  0  0  0  0  0
    6.7042    7.3639  -16.7260 H   0  0  0  0  0  0  0  0  0  0  0  0
    5.3202    4.3835  -16.8402 H   0  0  0  0  0  0  0  0  0  0  0  0
    9.9508   -3.4245  -17.8213 H   0  0  0  0  0  0  0  0  0  0  0  0
    8.9419   -3.2330  -16.3475 H   0  0  0  0  0  0  0  0  0  0  0  0
    9.2366   -4.8691  -17.0279 H   0  0  0  0  0  0  0  0  0  0  0  0
    4.6693    2.8562  -21.2928 H   0  0  0  0  0  0  0  0  0  0  0  0
    3.8245    1.8547  -20.0640 H   0  0  0  0  0  0  0  0  0  0  0  0
    7.6084    7.9765  -18.8672 H   0  0  0  0  0  0  0  0  0  0  0  0
    7.1957    9.6748  -18.4523 H   0  0  0  0  0  0  0  0  0  0  0  0
    7.6752   -2.6075  -18.4005 H   0  0  0  0  0  0  0  0  0  0  0  0
    7.9700   -4.2436  -19.0809 H   0  0  0  0  0  0  0  0  0  0  0  0
    5.8926   -4.6543  -18.2165 H   0  0  0  0  0  0  0  0  0  0  0  0
    6.8349   -4.9520  -16.7164 H   0  0  0  0  0  0  0  0  0  0  0  0
    5.3999   -2.3550  -17.4627 H   0  0  0  0  0  0  0  0  0  0  0  0
    4.8255   -3.5831  -16.2843 H   0  0  0  0  0  0  0  0  0  0  0  0
    5.7418   -2.0282  -14.8393 H   0  0  0  0  0  0  0  0  0  0  0  0
    7.1671   -3.0868  -15.1120 H   0  0  0  0  0  0  0  0  0  0  0  0
    3.5750    3.4247  -18.2735 H   0  0  0  0  0  0  0  0  0  0  0  0
    6.2826    3.6485  -19.6841 H   0  0  0  0  0  0  0  0  0  0  0  0
    5.2539    1.5184  -17.8233 H   0  0  0  0  0  0  0  0  0  0  0  0
    3.2691    5.4059  -16.5751 H   0  0  0  0  0  0  0  0  0  0  0  0
    3.3308    6.2066  -17.9970 H   0  0  0  0  0  0  0  0  0  0  0  0
    3.4549    4.1981  -20.4759 H   0  0  0  0  0  0  0  0  0  0  0  0
  1  2  1  0  0  0  0
  1  3  2  0  0  0  0
  2  4  2  0  0  0  0
  3  5  1  0  0  0  0
  4  9  1  0  0  0  0
  5  9  2  0  0  0  0
  6 10  1  0  0  0  0
  6 11  2  0  0  0  0
  7 10  2  0  0  0  0
  7 12  1  0  0  0  0
  8 11  1  0  0  0  0
  8 12  2  0  0  0  0
  9 24  1  0  0  0  0
 10 23  1  0  0  0  0
 11 38  1  0  0  0  0
 12 39  1  0  0  0  0
 13 15  1  0  0  0  0
 13 31  1  0  0  0  0
 13 34  2  0  0  0  0
 14 19  1  0  0  0  0
 14 32  1  0  0  0  0
 14 35  2  0  0  0  0
 15 19  1  0  0  0  0
 16 20  1  0  0  0  0
 16 21  1  0  0  0  0
 17 19  1  0  0  0  0
 17 31  1  0  0  0  0
 18 20  1  0  0  0  0
 18 33  1  0  0  0  0
 20 37  1  0  0  0  0
 21 29  1  0  0  0  0
 21 33  1  0  0  0  0
 22 25  1  0  0  0  0
 23 30  1  0  0  0  0
 24 37  1  0  0  0  0
 25 26  1  0  0  0  0
 26 27  1  0  0  0  0
 27 28  1  0  0  0  0
 28 31  1  0  0  0  0
 29 30  1  0  0  0  0
 29 36  1  0  0  0  0
 30 32  1  0  0  0  0
  1 40  1  0  0  0  0
  2 41  1  0  0  0  0
  3 42  1  0  0  0  0
  4 43  1  0  0  0  0
  5 44  1  0  0  0  0
  6 45  1  0  0  0  0
  7 46  1  0  0  0  0
  8 47  1  0  0  0  0
 15 48  1  0  0  0  0
 15 49  1  0  0  0  0
 16 50  1  0  0  0  0
 16 51  1  0  0  0  0
 17 52  1  0  0  0  0
 17 53  1  0  0  0  0
 18 54  1  0  0  0  0
 18 55  1  0  0  0  0
 19 56  1  0  0  0  0
 20 57  1  0  0  0  0
 21 58  1  0  0  0  0
 22 59  1  0  0  0  0
 22 60  1  0  0  0  0
 22 61  1  0  0  0  0
 23 62  1  0  0  0  0
 23 63  1  0  0  0  0
 24 64  1  0  0  0  0
 24 65  1  0  0  0  0
 25 66  1  0  0  0  0
 25 67  1  0  0  0  0
 26 68  1  0  0  0  0
 26 69  1  0  0  0  0
 27 70  1  0  0  0  0
 27 71  1  0  0  0  0
 28 72  1  0  0  0  0
 28 73  1  0  0  0  0
 29 74  1  0  0  0  0
 30 75  1  0  0  0  0
 32 76  1  0  0  0  0
 33 77  1  0  0  0  0
 33 78  1  0  0  0  0
 36 79  1  0  0  0  0
M  CHG  1  33   1
M  END
> <OMEGA_C>
Vp7EQO0nG0HJ7LjBBV+hQPqCGEH7BbLB65PuQCmnGEH6/rTB8gmoQJt1E0G4LKfB8Fb1QL17E0EE
K6rBgw/eQNxlnz8er6rB4SamQMH+iL4pUaTBEfvoQCuplb+1U6vBiTTSQLLIEEElOKPBcyu1QI04
hT8nOKbBrPX3QGgrDz6fOq3BhQvAQBKWr7+D36bBoc4BQQe1/b4JCXLBcjvmQPz+C0BMK43BXSUE
Qbw+dT+3+nnBrEbBQLoAvUDLkJHBqTzXQFwWX754xYfBcFmSQPRS30ASkITBj534QKa/YT8ueYjB
yAe7QLpW5kAEI4vBiN2dQIIsn0AXeI3BeTsRQbLIc8DMMorB9rqZQD0lDkBTPaPBFMzaQJMeDEHe
iZfBZCb6QPjkasC2PJHBfS7RQAMnhsDMoYvB3tq2QMOuRsBUxYXBW1TPQPaSF8BiTXnBjbSLQM7l
gEAB8pXBLyKuQNpnREBoNJrBraDoQMx2mL9aJ4DByw+9QKhlC0Ali5HBoq13QIryu0CkyYnBp4YJ
QUaebr8Wa2HBuL/9QKBESkBSF47Bj5tzQFo7mUACj57B/YK0QIzeBEHoOJLBRqAPQUUJrD4IeLHB
v7SxQJn5J8Dh9aTB9Xe/QDkbH0GtPMHB7TiBQGdcGkFiDrXBUsgEQbOzGkGNS7rBOQWNQE+fEUG4
3aHBC8QKQRWUEUE0LKfBjHrpQPLgD0C5JazBsMqGQCuY175v5qDBdeT8QGscAcDiSK3BI1z0QDNJ
0j8yeXDBG+4UQeakpD/ITHnBuYq9QOoOw0AaL5rBBhHhQOktr0DTCZDBFqa4QDJoPj7r2YTBmmXS
QO9XL79vpY/B6neaQInW1kC5iHjBuuZ8QAdc/EDUmYTBB4UJQb15Cj+em43BH4nWQMuk60DPzoXB
+D6qQLJFjECyuIbBTTYfQTwqW8DvkY7B1REPQZTpTsDDx4LBRMkTQcXPm8AyOYjBi2qVQJfMNkCz
V6rBhsR0QGxm7T8eg6DBMXjzQHw//0AY8JbBTEPmQN7LGkE2npPBVpv1QB3hJsAxNJPBNAr/QInL
h8CfpZjBgZC8QGPwlMBbu5HBwbfaQKZ2nsA/u4XB+susQJW4FsCes4vBGWqaQA9RZcBRRoLBwry3
QAzOAcCebW3BH1nlQJiORcDGynHBi8xkQL0tW0A0MJLBHwvJQF+AaUABeZ3Bmx+oQHhawj8Glo7B
ujhRQNP8rEDHmYTBcyxVQD6cxkDE+Y/BLx1dQD5XhkCzzqPBD4jpQMSdGEETirfB4K38QEeaE0Hk
o63BU6y8QENZGkEdXbjBWADjQNqdEEGghaTBO+yiQFVBF0FcRK/BEJ/aQBq/nz8L3arBGwqlQEZf
qr4kUKTBHfToQC0ck79IW6vB9CK2QIrGEkECUKXBvyCyQKRHfj9uTabBgg72QEYDNT5JWq3BAGnA
QLqOs7/O2KbBZQgCQRBdvr5eF3LBemPkQCQpDkBAqY3BqqEDQabEiT/1dXrBJwjDQJqruEBc/pDB
4RnYQOrlN76U7ofBZ5aSQBmH4kBK14bBVTT4QNwbdD8Au4jB66+yQNra5UAO6Y/B/BCdQM13nEBp
Q43BSacSQXgkb8AMqYnBp1eVQKrqCEAHJqPBBZWaQKj6DkGorJvB00b9QPozaMA615DB6DnUQDzb
hMDISIvBnYS5QIIpRMAahoXBR8PRQFZIE8AgAXnB4XOJQOuVgEATI5bBcZeqQCwyQUAge5rBl0fq
QOHFjr/PJ4DBUM26QOh6CkBEwpHBriR4QNQsukAVEonB/cgJQVz1RL8VPmHBCiz7QLTzTEA2E4/B
iJJzQBqsmkAxrZ7BlEKcQEAR8UAGiZnBaIgOQfA82D7smLHB3uOzQAQDK8Bi1qTB8Ur9QGojG0G2
g77B14IPQY8OEkE+D63BvReuQIAMHkG++b/Bu47xQO2uDEG/75zBm4WAQApPGEHz56/Bc4nkQKjf
EEDccKzBSQCGQCPPBr8X2KDBKf/9QL5X/L/JSK3BMlnyQPv63z/kR3HBUTUUQQ+yuD8WtnnBrHDL
QOqYsUCZWpnBcC7fQKSQs0DZ3YvBKfy4QL5wST6vIIXBawvUQCc8K792v4/Bk+iiQCs14UAlGn7B
HIp4QMG+/UCo8YbBf5sJQfyhIT8ZwI3Bkp7MQOFd/EA8+o3BfjioQEB9h0A9xYbBOKsgQUKIVsAS
AY7BLTUQQY5KScCMV4LBO1kVQbBHmcCbg4fBTr+OQG1lMEDePqrBUTpuQLgy3j/u/5/BUvWmQLsG
GEEUypTBdOZyQPjrE0E2U53BhXP4QFKYJMA1+pLB0F0BQZLuhsBEJpjBSd+/QMrmk8BdZpHBPrfd
QPj4nMBLVIXBvA6vQLsqFcATiIvBoFWdQPEsY8Bl84HBuhq6QCCf+78hIW3BG0joQDgWQMCMa3HB
561dQBuBXEAdppLB2jfFQNrlZECtHZ7BcKqmQEWsvz/jjo7BWDxeQMF3rkDPXYLBuDdKQFrMvkBs
hY7BaJlbQDX4iEBjFKTBuqIJQdrZHEEjdqvB6SkSQX1+G0HgCqHBbMrnQAAhGEFeVK3BHfIEQbNw
FUEzeZjB3ETNQHsXEkEsw6TB/SPYQOpfmz+2rarBFc+lQKh+tb4hiaLBbGzqQP5fk798UqnBRmfe
QKisEEHVWZrBbi+wQDyLdD9v2KXBMSv1QOAlJT7WbqzBo9fCQKAktL/gUKTBv+YGQTRgAL9gs3zB
uOzbQAaMB0C7qI7BuajsQBjUDL61tYbBumy+QFBPtUCEupDBphYEQWo17D+wuXvBCUSRQF6q20Cc
EITBaNDiQP+OqT96dYTBS2fAQGwI1ED6VIfBYwGWQGZKnEANDo7Bh1j1QHps3L+a2C7B6ZKRQFoo
BkA2oaPBMYDBQEatC0HVJpHBau8GQXDl0b6w0TLBTWIMQehFor5Mj0rBxeAZQaYjbT+B4U/BN6Ii
QZc1Tj9x3WbBIs+DQJhSgkBfbZfBVeGkQAbQQkDjQJvBa1QRQTKaMD/npXbBSymyQCl1EEDz+pHB
YjtvQGT9vECrXorBN0kLQaqf07/foHfBTPf5QKLzJkCRopPB1qZwQObvnUAtCKDBPyLXQFiA+kCf
6InBn6QNQXCx0j6EI7HBz8m4QLhnKsCdLKHB3c0TQauHIUE1C7LBBNUiQXMaH0HVpp/BPOLaQPEl
GUEEVLXBh2cLQd1vFEGweZDBSearQIaNDkE+JqbBfnDgQBwXDkAWCK3BcpmHQI+CDL9Lo57Bv0MA
QREQ+795xqrBwKz5QALihr7l0o7Bh8TPQGx6Qb+dz4XBZFK7QPJ0xkDnX5jBjrLaQL9eoEAtAZHB
xVYNQY4UJUC2gYLB4W/8QK81FEAy8GzBFgONQJ/B1UAP6XbBErCHQNWx/EAm8YXBnJDFQKHLsD/0
Kn/By4fQQPO9w0Bdp4DBLx6dQDI0hkACcIfBgUHtQBPR5r8+xB3B68bXQMrZ3L8WZTjBc70EQcTQ
JMAkizPB26+LQNe2KUC1FKvBUFpmQEaB2D+OmKDByk+5QJSMGkEn6ozB4xKkQJkVBEHZIpTBWs35
QO1F5D5cLC7BqsAVQQ7Zzr5qUinBx24VQSyDm7+tME/Bp8v6QIdwi77UwlPBZdkPQTHU6T+0nE7B
M04nQYUJgD99kETBqzIsQQCU2T8qi2rB89YsQXH0tL2N5GfBKLpOQAvvYUBnl5TBiXzAQJFjZEDP
vp7BxW6bQEYJ5T+0xY3BmdVBQLe8r0CMzoXB7wNUQAyry0CRnJDBI0FaQNVvjUCvxKXB

> <OMEGA_E>
WHXNPpYSBD8eoGQ/

> <OMEGA_NBR>
     32429

$$$$
50209150
  -OEChem-04172616093D

 85 88  0     1  0  0  0  0  0999 V2000
    7.4319    9.3205  -21.9162 C   0  0  0  0  0  0  0  0  0  0  0  0
    6.0341    9.2132  -22.0467 C   0  0  0  0  0  0  0  0  0  0  0  0
    8.0517    8.9934  -20.6950 C   0  0  0  0  0  0  0  0  0  0  0  0
    5.2562    8.7759  -20.9581 C   0  0  0  0  0  0  0  0  0  0  0  0
    7.2770    8.5515  -19.6051 C   0  0  0  0  0  0  0  0  0  0  0  0
    6.8529   -0.0178  -16.7746 C   0  0  0  0  0  0  0  0  0  0  0  0
    8.4173    1.5843  -15.7989 C   0  0  0  0  0  0  0  0  0  0  0  0
    8.1511   -0.6210  -14.7985 C   0  0  0  0  0  0  0  0  0  0  0  0
    6.8464    1.2884  -21.4006 C   0  0  0  0  0  0  0  0  0  0  0  0
    5.0327   -0.2229  -20.7704 C   0  0  0  0  0  0  0  0  0  0  0  0
    7.1500   -1.1274  -21.5736 C   0  0  0  0  0  0  0  0  0  0  0  0
    7.4576    1.2594  -16.7832 C   0  0  0  0  0  0  0  0  0  0  0  0
    7.2169   -0.9668  -15.7959 C   0  0  0  0  0  0  0  0  0  0  0  0
    8.7662    0.6449  -14.8098 C   0  0  0  0  0  0  0  0  0  0  0  0
    5.5326    1.0868  -20.9230 C   0  0  0  0  0  0  0  0  0  0  0  0
    5.8656    8.4322  -19.7341 C   0  0  0  0  0  0  0  0  0  0  0  0
    7.6567    0.1806  -21.7165 C   0  0  0  0  0  0  0  0  0  0  0  0
    5.8366   -1.3273  -21.1030 C   0  0  0  0  0  0  0  0  0  0  0  0
    7.0730    2.2535  -17.7983 C   0  0  0  0  0  0  0  0  0  0  0  0
    6.5810   -2.2967  -15.7599 C   0  0  0  0  0  0  0  0  0  0  0  0
    6.0501    5.8436  -18.0733 C   0  0  0  0  0  0  0  0  0  0  0  0
    4.5340    6.9794  -16.6049 C   0  0  0  0  0  0  0  0  0  0  0  0
    5.6258    7.2513  -17.6249 C   0  0  2  0  0  0  0  0  0  0  0  0
    4.8686    4.9246  -17.6728 C   0  0  2  0  0  0  0  0  0  0  0  0
    9.7429    1.0203  -13.7180 C   0  0  0  0  0  0  0  0  0  0  0  0
    3.8296   -3.5042  -17.6860 C   0  0  0  0  0  0  0  0  0  0  0  0
    9.5591   -3.9767  -16.9961 C   0  0  0  0  0  0  0  0  0  0  0  0
    4.6661    2.2668  -20.5356 C   0  0  0  0  0  0  0  0  0  0  0  0
    4.8541   -4.6456  -17.8155 C   0  0  0  0  0  0  0  0  0  0  0  0
    8.6374   -3.9518  -18.2281 C   0  0  0  0  0  0  0  0  0  0  0  0
    5.9621   -4.5290  -16.7529 C   0  0  0  0  0  0  0  0  0  0  0  0
    7.4881   -2.9422  -18.0487 C   0  0  0  0  0  0  0  0  0  0  0  0
    4.2816    4.0843  -18.8243 C   0  0  2  0  0  0  0  0  0  0  0  0
    5.3163    3.1008  -19.4096 C   0  0  1  0  0  0  0  0  0  0  0  0
    5.7980    2.1967  -18.3505 N   0  0  0  0  0  0  0  0  0  0  0  0
    6.6693   -3.2178  -16.8307 N   0  0  0  0  0  0  0  0  0  0  0  0
    3.8194    5.8195  -17.1449 N   0  3  0  0  0  0  0  0  0  0  0  0
    7.8656    3.1303  -18.1263 O   0  0  0  0  0  0  0  0  0  0  0  0
    5.9997   -2.6017  -14.7239 O   0  0  0  0  0  0  0  0  0  0  0  0
    3.8017    4.9485  -19.8553 O   0  0  0  0  0  0  0  0  0  0  0  0
    5.0309    8.0037  -18.7122 O   0  0  0  0  0  0  0  0  0  0  0  0
    8.9235    0.3720  -22.1490 F   0  0  0  0  0  0  0  0  0  0  0  0
    5.3473   -2.5795  -20.9617 F   0  0  0  0  0  0  0  0  0  0  0  0
    8.0286    9.6537  -22.7525 H   0  0  0  0  0  0  0  0  0  0  0  0
    5.5585    9.4666  -22.9826 H   0  0  0  0  0  0  0  0  0  0  0  0
    9.1234    9.0816  -20.5939 H   0  0  0  0  0  0  0  0  0  0  0  0
    4.1836    8.7031  -21.0613 H   0  0  0  0  0  0  0  0  0  0  0  0
    7.7556    8.3027  -18.6695 H   0  0  0  0  0  0  0  0  0  0  0  0
    6.1109   -0.2679  -17.5184 H   0  0  0  0  0  0  0  0  0  0  0  0
    8.8856    2.5575  -15.8050 H   0  0  0  0  0  0  0  0  0  0  0  0
    8.3960   -1.3308  -14.0221 H   0  0  0  0  0  0  0  0  0  0  0  0
    7.2292    2.2908  -21.5235 H   0  0  0  0  0  0  0  0  0  0  0  0
    4.0310   -0.3778  -20.3976 H   0  0  0  0  0  0  0  0  0  0  0  0
    7.7686   -1.9763  -21.8249 H   0  0  0  0  0  0  0  0  0  0  0  0
    6.2105    5.8159  -19.1612 H   0  0  0  0  0  0  0  0  0  0  0  0
    6.9721    5.5351  -17.5588 H   0  0  0  0  0  0  0  0  0  0  0  0
    4.9680    6.7471  -15.6212 H   0  0  0  0  0  0  0  0  0  0  0  0
    3.8609    7.8446  -16.5136 H   0  0  0  0  0  0  0  0  0  0  0  0
    6.4706    7.7857  -17.1659 H   0  0  0  0  0  0  0  0  0  0  0  0
    5.2072    4.2447  -16.8771 H   0  0  0  0  0  0  0  0  0  0  0  0
    9.1967    1.4684  -12.8748 H   0  0  0  0  0  0  0  0  0  0  0  0
   10.2726    0.1196  -13.3744 H   0  0  0  0  0  0  0  0  0  0  0  0
   10.4703    1.7461  -14.1106 H   0  0  0  0  0  0  0  0  0  0  0  0
    3.0542   -3.6175  -18.4579 H   0  0  0  0  0  0  0  0  0  0  0  0
    3.3637   -3.5411  -16.6902 H   0  0  0  0  0  0  0  0  0  0  0  0
    4.3388   -2.5380  -17.8170 H   0  0  0  0  0  0  0  0  0  0  0  0
   10.3669   -4.7058  -17.1565 H   0  0  0  0  0  0  0  0  0  0  0  0
    9.9925   -2.9774  -16.8423 H   0  0  0  0  0  0  0  0  0  0  0  0
    8.9766   -4.2643  -16.1084 H   0  0  0  0  0  0  0  0  0  0  0  0
    4.5207    2.9083  -21.4173 H   0  0  0  0  0  0  0  0  0  0  0  0
    3.6909    1.8952  -20.1877 H   0  0  0  0  0  0  0  0  0  0  0  0
    4.3361   -5.6076  -17.6884 H   0  0  0  0  0  0  0  0  0  0  0  0
    5.3112   -4.6046  -18.8152 H   0  0  0  0  0  0  0  0  0  0  0  0
    9.2282   -3.6685  -19.1117 H   0  0  0  0  0  0  0  0  0  0  0  0
    8.2124   -4.9553  -18.3777 H   0  0  0  0  0  0  0  0  0  0  0  0
    5.5105   -4.6312  -15.7551 H   0  0  0  0  0  0  0  0  0  0  0  0
    6.6920   -5.3369  -16.9096 H   0  0  0  0  0  0  0  0  0  0  0  0
    7.9157   -1.9322  -17.9650 H   0  0  0  0  0  0  0  0  0  0  0  0
    6.8342   -2.9915  -18.9318 H   0  0  0  0  0  0  0  0  0  0  0  0
    3.4445    3.4953  -18.4215 H   0  0  0  0  0  0  0  0  0  0  0  0
    6.1582    3.6723  -19.8274 H   0  0  0  0  0  0  0  0  0  0  0  0
    5.1690    1.4990  -18.0075 H   0  0  0  0  0  0  0  0  0  0  0  0
    3.2993    5.3618  -16.4237 H   0  0  0  0  0  0  0  0  0  0  0  0
    3.1983    6.1005  -17.8766 H   0  0  0  0  0  0  0  0  0  0  0  0
    3.4407    4.4277  -20.5631 H   0  0  0  0  0  0  0  0  0  0  0  0
  1  2  1  0  0  0  0
  1  3  2  0  0  0  0
  2  4  2  0  0  0  0
  3  5  1  0  0  0  0
  4 16  1  0  0  0  0
  5 16  2  0  0  0  0
  6 12  1  0  0  0  0
  6 13  2  0  0  0  0
  7 12  2  0  0  0  0
  7 14  1  0  0  0  0
  8 13  1  0  0  0  0
  8 14  2  0  0  0  0
  9 15  1  0  0  0  0
  9 17  2  0  0  0  0
 10 15  2  0  0  0  0
 10 18  1  0  0  0  0
 11 17  1  0  0  0  0
 11 18  2  0  0  0  0
 12 19  1  0  0  0  0
 13 20  1  0  0  0  0
 14 25  1  0  0  0  0
 15 28  1  0  0  0  0
 16 41  1  0  0  0  0
 17 42  1  0  0  0  0
 18 43  1  0  0  0  0
 19 35  1  0  0  0  0
 19 38  2  0  0  0  0
 20 36  1  0  0  0  0
 20 39  2  0  0  0  0
 21 23  1  0  0  0  0
 21 24  1  0  0  0  0
 22 23  1  0  0  0  0
 22 37  1  0  0  0  0
 23 41  1  0  0  0  0
 24 33  1  0  0  0  0
 24 37  1  0  0  0  0
 26 29  1  0  0  0  0
 27 30  1  0  0  0  0
 28 34  1  0  0  0  0
 29 31  1  0  0  0  0
 30 32  1  0  0  0  0
 31 36  1  0  0  0  0
 32 36  1  0  0  0  0
 33 34  1  0  0  0  0
 33 40  1  0  0  0  0
 34 35  1  0  0  0  0
  1 44  1  0  0  0  0
  2 45  1  0  0  0  0
  3 46  1  0  0  0  0
  4 47  1  0  0  0  0
  5 48  1  0  0  0  0
  6 49  1  0  0  0  0
  7 50  1  0  0  0  0
  8 51  1  0  0  0  0
  9 52  1  0  0  0  0
 10 53  1  0  0  0  0
 11 54  1  0  0  0  0
 21 55  1  0  0  0  0
 21 56  1  0  0  0  0
 22 57  1  0  0  0  0
 22 58  1  0  0  0  0
 23 59  1  0  0  0  0
 24 60  1  0  0  0  0
 25 61  1  0  0  0  0
 25 62  1  0  0  0  0
 25 63  1  0  0  0  0
 26 64  1  0  0  0  0
 26 65  1  0  0  0  0
 26 66  1  0  0  0  0
 27 67  1  0  0  0  0
 27 68  1  0  0  0  0
 27 69  1  0  0  0  0
 28 70  1  0  0  0  0
 28 71  1  0  0  0  0
 29 72  1  0  0  0  0
 29 73  1  0  0  0  0
 30 74  1  0  0  0  0
 30 75  1  0  0  0  0
 31 76  1  0  0  0  0
 31 77  1  0  0  0  0
 32 78  1  0  0  0  0
 32 79  1  0  0  0  0
 33 80  1  0  0  0  0
 34 81  1  0  0  0  0
 35 82  1  0  0  0  0
 37 83  1  0  0  0  0
 37 84  1  0  0  0  0
 40 85  1  0  0  0  0
M  CHG  1  37   1
M  END
> <OMEGA_C>
e9LtQPAgFUFKVK/BvxfBQGRpE0GiX7DB69MAQRTlD0Fij6XBmDKoQBdqDEElqqfBAN3oQOXSCEFG
15zBMUvbQMRykbxbMobBdq0GQWPKyj8ayHzB82oCQc38Hr+kxmzB1hXbQI3ppD+HNKvB/QuhQCpD
ZL7FKabBKc3kQEFNkL+/lqzB16TuQEg0oT/yQ4bBi/DmQG1/d78rvHzBUEIMQQMWJT/O9GzBPQux
QDsdiz9PYqfBZ7O7QDnqBkFa353BpAP1QOrtOD5xu63Bm8W6QOnkqb/Y0qjBWVbiQKY5EEAEY47B
QZfSQHr9EsCWKHzBrZrBQCf/ukAvlpDBQxaRQBhX30DF1oTBWAa0QNMK6EDa/4zB4MubQHSWnUDs
YY3B4+IbQXqagj/NfFvBrBh1QL9EYMD1fI3B/vEYQYSBfsD594fBlVCVQLgSEUDySKTBDlWbQOCo
lMAsho7BzzIKQZzqfMBA05HBf8m+QL3tkMD9BYbBYp7vQAhNPMCsY5DB5QKJQO+ygkBDmJbBDB+q
QNpzRkDbRpvBH4m5QCCXDEDTzZLBp2rVQKrvTcBgpYbBUnB0QDg5ukC/KInBy7L7QJVXSECqApHB
5f2/QNiBJsAzlWvBxE5zQO1ZnkCS157BLP2gQFsPAEGbspXBksYOQRp6vj4cMbHBdR2rQFUXJcCL
safB8nQAQX51GkEgBbbBad+xQDd3F0Fv3LfBWPkRQStOEUFTwKTBAOCFQMI/C0GffajBnC34QLjX
BEEQW5XBp4zDQE8nib6wJYzBPysOQU6uI0BF4XzBCFYGQbxWqr+5WmDBpFXnQN6bEkAmMKzBBf6A
QD5vwb47LqPB+5f4QM73/L9Lma7BQbzGQAMcukAySpnBqxvfQHgfsUB5eIzB9fmeQPLn10Bf8HnB
EBl3QC8H+0DFG4TBUg/PQIEk+UDZU4nB/6CmQFjUh0BnBIfBkSUTQRnzuz81/03Bm1wkQWvs9D11
/VXBR4YnQeGA3z/xxGHBn3dDQN6EZ8DRqZPBcEdXQM2gYsCYhYXBydeKQJFuIsBMiY7B3t4lQRaW
lsB2QInBJeEfQX6NPsAavYbBTqAPQc10iMDt3YDB3qmQQDUhOkCaVqvBQjhsQCOW8j9+gKHBfMGK
QNVxs8DXgY3BjfWpQLdYk8CKhZbB46YTQeTHasC05JjBDGYDQQCSnsCHBZPBO1awQCMzlMDtFHzB
wiTWQCDIqsDWRofBwk39QCpS979iuI/Br7HaQER1P8BndJfBjnJcQLeyX0BQX5PBLxDFQNoGa0CH
np7Bn2ilQK7gvz9hD5DBMShTQD2Uq0C3Y4PBOrFMQGE3w0AzA4/B3DRcQMavjUAvgaTBHcHtQAA8
FEEjOK/Be/MAQSY2DkHDmqXB6dLAQJy1E0GoA7DBtjPpQDCRB0FkyZzBzQaoQNsmDUEpNKfBw+za
QLTh5Ly5N4bBrrgGQfo6yD8n6HzBuVQCQajiI79N7GzBQAnbQMpyoj8cMavBogqhQDp8dL7fDabB
IZTkQN/Ykr+YlazBH4TuQEmMnz9lS4bB9pPmQFLZer/g0HzBK0oMQYolHz++IG3BJxSxQI74iD/J
T6fBNNO7QMjhBkHtkJ3Bh9H0QFarIz4yxK3BaKa6QFojrL8AvqjBzF3iQMWTD0CkaY7B5i/SQF6+
E8BnMHzB0DzBQK66ukDMjJDB2LqQQLeQ3kDlr4TB3/izQICn50C0vozBUlabQItanUC4b43B/Rkc
QcQDfT+3xlvBVZh2QNWPXsA4F43BHGkZQQt4fsCYB4jBOWKVQBclEECUQaTB3taaQEHslMA8HI7B
gGwKQckrfsCTy5HBBUa/QPPPkcDr2IXBlNPvQDcsPsAHT5DB6eKIQPuHgkD6sZbBvyaqQCIQRkDA
S5vBZ3W5QJqYDECyxZLBgQTWQJjjT8BTgYbB1nBzQOsCukCxQonBjfj7QFUTR0AMGZHBbBu/QBqL
JsDHsmvBlrBzQIcvnkBc+57B6jmhQMBgAEFGTZXByp4OQUu6sj7IULHBc/mqQN4pJsCekqfBwGEA
QahBGUHf+7XBTy4SQTWwDkG6/aTBcmCxQDlXGEFeY7fBMcD4QMb7AkExa5XBn4+FQOjrDEHl1KfB
EAXDQFbdi74TJIzBNE4OQXM4IkC3BX3B6TsGQVoJrb9zhmDBYlbnQAJUEUAKL6zB5AyBQGqAyL7T
BaPB50X4QGao/7+mn67ByDbGQLJsukDiQpnBVMDeQPNjsECrgozBfVOeQPRV1kCUq3nBBMl2QItb
+kBI2IPBChLPQKQs+EBK8IjB4fSlQCKMh0AWD4fBFIYTQWczuD+HNE7B2IMkQUltqj1HXlbBEMYn
QX7M2j+CImLBBKdDQAJFZcA4G5PBTi1aQHqkXsAeCoXB3XKMQBP6IcBDZY7B42smQQZalsBBV4nB
KjYgQd0nPsCH6YbB5U8QQUdfiMD92YDByrKQQPHXOEAoV6vBh2NsQEHw8D/McqHBnl2JQO0Ns8Aj
14zB07moQLm4lMBHMpbBpacTQQonbMDt8JjBYcEDQd1en8Bk4ZLBRLexQEpplcBxjXvB5lfWQNy2
q8BvWIfBM0D9QM2M+r+Ts4/BOK7aQNjtQcABVJfB2+1bQL1iX0AFipPBOxnFQKyFakDDp57B+CKl
QGlMwT8Z8Y/BqP1QQG8tq0BDoYPBcsVMQN6Zw0DIKo/B2QFdQMGEjUCdq6TBckztQA9HFUF0SK/B
9o0AQTztD0F9hqXBGILAQMvmE0GHSrDBgTXoQF0jCUEXxZzBZ4GnQNE6DUFTiqfBBQ3eQIJDkj3L
1YXB8gIHQVyB3D+42XvBvrYDQYwP+r7UyWvBYujcQHE3rT8x2qrBcvCjQN2kT74D7KXBW6voQHrG
hr86LazBKgjwQDrgrj8K5IXB1ZbqQPFKXb/s/nvBwHAMQV7XTj+Xk2vBEfGyQH8+jz8rGqfBd/m6
QKKuB0HWwJ3Bv9T3QIdxiD6QS63BRbO+QOuQpL8OhajBwDLjQJTnFUB8Ho7BxuLXQKdoDcD+snvB
iJTAQBDivECUjJDB7UqPQPm44EAl5oTBi86yQBvP6UBl4IzBML+aQPhTn0Dweo3B4GwcQSW1mD/1
gFrBQ18YQfAlkMAPGYnB3AFiQFrEjsATN4zB00SWQBPMEUCDD6TBA34UQYKiQ8ApwozBnayaQJ8s
cMA68o7BacD5QN5ONcC9pI/BLRO/QE1ch8DlnIfBEO6IQJvyg0DptpbBt6GqQB4bSUDOKZvBw2C6
QAPPEEDUiZLBCu7cQGHdRsA1c4bBx3VxQG3qu0CZeonBezb8QFlTTkBx15DB8uzBQAqnIMCsJmzB
wwJ0QLcln0BCHJ/BoCugQBcvAUFjiZXBhSoQQXg/+j7WprDBHR+wQMsrI8AAfafBLjsAQf9vGkGG
/rXB7LoRQdwHEUEkwaTBzFSxQKb3F0FRyLfBpX73QD0IBUE/TJXBgCKFQIhaDEF7VKjBxqfGQKTy
T76gzYvBRFgOQRrULECHJXzBahYIQf8emb8Afl/B+VXoQMRaF0Be2KvBS+aDQIhKxL7oBaPBiTz9
QGtp8b/EH67BffTFQO9TvECtPpnB7vvdQIfmskClZ4zBWZmcQFfH2EDZ/nnBbn5zQHxm/EC1KITB
K5rNQDe2+kCUConBVDilQDniiUD3AofBDPETQam30D+ww0zBzDwlQbrXmD4lSFXBdLwnQb0N9z+n
CmHBx18pQVxjlMDpFYfBOYUOQavwlsCTAYLBCf4TQTZFpsBDlY/BTOwuQDBZg8AgjpHB5zdqQCR7
scDkP43Bg55QQC3hh8AJ3YPBNdeQQA/xOUA/KavBUfpuQAAe8T8gL6HBzPYYQUi+F8BlQIbBnG8e
QV5nNsAW1JPBXyWjQJr9fcClT5fBrliWQKzJKsDK7I3BH3X1QMbO5L+0KZLBIijxQM80YMAvSJbB
OjayQKeKkMDPf3/BLn/PQI7uosCKOovBMBNcQNkDYkC5lJPBQF/FQL3cbUAzk57BBnmmQKxeyD85
sI/B7otOQPsorUBS4YPBullLQBo3xUCCeI/BUxleQMAojkBmyaTBtVvrQOeBFUF7uq/BDxwAQe5w
EEGoEabBVIe+QJLOE0Htd7DBeVfoQDSWCUHzJZ3BuI6mQEoGDUFKj6fB0GHdQMi4rrzOmIXBD4AI
Qcapyz+uUn3BX7cEQbGnFb8VLGzBEH3aQJDKpz/ZRqvBseahQDM+Zb42raXBSFzlQGXljL+bhqzB
9vTwQPY5oD9rKYbBxcbpQAMWcL/WJXvBR60OQRDDLD9pXW3B5wqxQFzNiz+dIqfBoRm7QNu5B0H8
353Bj7T0QJzbWj7t5a3BFPa7QJa9qL88aajBRJrjQCQyD0DCT47BZGrTQD1WDsAKMHnBj8vBQDFA
vEBA6JDBBkySQDJT4EDOyoTBR+K0QH066UB5CY3BnpGcQCHCnkDDW43BuM0eQTKIij9QkVzBqox7
QGriesBXeIzBbOYMQdCIhcDEopfB6TmVQK6+EEAC5qPB2vWtQHyIgcDTl47BpV8MQSJkP8Cqzo/B
keHGQHc/j8BBZITB7/IIQX3HXsDsOoTBKmeJQC3IgkAITZbBnWuqQBUwRkBV8prBGj66QNleDECW
c5LBTXbkQKMcWsBh4oDBvS92QPyJu0DdKonB6Kr8QMJIR0BzHpHBBUSvQEN7DcDal3HBy2VyQDOO
nUA+o57BmUmhQO8cAUEDfZXBCWEOQWPT1z5XorHBplqtQGT7JMCc/KbBz779QG+yGkGJkbbBIEwR
QXvQEUETgKXB94euQEu1F0Hg37fB12z4QGa9BUEpv5XBryeEQNHeC0HbJajBsO/EQGUYlr7STYvB
ghEQQTPkI0A3Gn7BFDkJQfTto7++wF/BihDmQAxdFECnbqzBYUeCQPdUyL5PdaLBF1n5QPaH+L8p
oa7B/FjFQP29u0BQqZnBLgDgQBEtskDmJ43BaISgQOhw2EB++XnB1tl5QLoS/EAB6oPBzlHQQLDJ
+UBfZYnB0hSoQL/FiUD/54bBGHcWQR4Wxz/OCk/B/3InQUyxRD7h5VbBxT0qQYHf5T+PiWPB8NFa
QN5tZ8A635PBnixiQPt1nMBQx4nB94xwQARxSsAJPIbBeloPQdkfc8Db0Z/BKRYaQUsvm8BbeZXB
Bkb7QG/7lsDQOJfByPOPQNbtOUCn6arBc5tsQPu78D9sAKHBQRWzQIOpmcD23pTBbUW6QBPYRMCw
U5HBEKYbQfmfHMBYR5DB1WX+QEA4FMDNBpLBZeqvQO7tlcDH3nvBDmjZQH5WrMAcJ4bBO1MOQfjT
kMCKp4PB3IwSQQO+NsAqoH3BGANeQBIaYECh15LBdUjFQKyJakDFXZ7B0wymQAlWwT+egY/BJmNU
QOb2rEAQb4PBB91OQAbLxEA7Co/B7cRaQDlHjEBEJqTBs/rqQPFuFUFUra/B5zu+QCZQE0F6d7DB
fdD/QL24EEEp+KXBYFGmQCJ6DEG2jqfBXgDoQObKCUFIDZ3BvRneQJgZKb0Oe4XBwOIIQQB1yj+U
a33BCjoFQd9+Fb9y8GvBSZraQMtGpj+mU6vB48SiQPtHfr6MeqXBrxPmQOERjr8mi6zBsaDxQLjf
nT+/KYbBm3zqQJGXcb/Xq3rBLjEPQUpkLD+0ZG3BU3GxQBIXiT9wC6fBOtm6QKKGB0EC053B+PP0
QDYEVT6sBa7BvPW8QKUdq79aSajBbubjQF8BDkBWTI7Buf/RQJlBC8C/KXfBk7bBQKm2u0Do9pDB
r3KSQMKA30CyvYTBet60QKSZ6ECnBI3B9JucQKIknkBSYI3BrE0fQem+iz9+pVzBTEp1QA2zkcDL
gpDBygIaQePWcMBelpXBE2GVQKQGD0DH0qPBJFGaQJPjY8BKu4vBD0IEQUyiVMDDRJHBCK64QBIH
icBW24PB3D8DQXqraMCkQoXBlWWJQFcYgkBsSpbBxXuqQIbJRED35ZrBzmu6QMcwC0AkYJLBpazb
QBaxV8Da5IDB6lN2QCLZukCYJonBbsz8QM1ORkAhIpHBZ7exQPw+BsBYGGzBxEVyQGnInEDNpJ7B
DCKhQCbeAEEvbZXBx0cOQQbV2T6uArLBC6KuQH9jJsBN4abBylH9QC2sGkH6g7bBpkGuQOXuFkE6
6bfBWw8RQa9sEkFnXKXBFvmDQHYDC0HHLqjBZRL4QGMyBkH6nZXBecDFQCEtpr6VLYvB/WQQQSNg
I0BPVH7BoNwJQQIao7/Xe1/BDtzlQLzFE0B3iKzBU2qDQLtu2L5xH6LBdjX6QO4h+b/UrK7BJQDF
QC9du0DAuZnBGQrgQLqYsUAdSI3BfdKgQMFo10A073nBgDR6QKA7+0BQyoPB/V7QQGgY+UDnY4nB
r0ioQNcziUDe7obBPfIWQSwNyT+HL0/BlvonQbKlUj5921bBs7cqQafR5j95tWPBW3RKQLztgMCH
GJbBQTiMQOTZqsDL0pTB9D1PQGdCoMA6EIrBJuoaQXfFYsCyMp7BssUmQdcKTsARXpHBaAMcQTAD
m8DiTZTB+eyPQI8IOEBd2KrBahxtQMyU7D946KDBikCtQF3LRsCAMpLBQ6eIQGOcMcDub4fBKDkC
Qb9vD8Bah5LBve3uQEhrd8Ard5XBedWmQN1dksCbR3nBIf3FQHnCpcBRs4fB1zAHQXRHlsCaBITB
OPoOQbJ+QMCHCYHBxw5eQGTCXkAl0JLBf0/FQMkmaUBCVZ7BtTymQOt3vz/TXo/BModUQPAvrEBV
boPBGv5OQGM7xEBXAo/BJ5VaQDdxi0CUI6TB

> <OMEGA_E>
YH4nPaA0Dj3gzzo+uBGLPrjhpD4=

> <OMEGA_NBR>
      6786

$$$$
50210663
  -OEChem-04172616093D

 84 88  0     1  0  0  0  0  0999 V2000
    7.4609    9.3007  -21.9134 C   0  0  0  0  0  0  0  0  0  0  0  0
    8.0921    8.9934  -20.6927 C   0  0  0  0  0  0  0  0  0  0  0  0
    6.0589    9.2252  -22.0200 C   0  0  0  0  0  0  0  0  0  0  0  0
    7.3239    8.6011  -19.5795 C   0  0  0  0  0  0  0  0  0  0  0  0
    5.2874    8.8445  -20.9065 C   0  0  0  0  0  0  0  0  0  0  0  0
    6.7745    0.0703  -16.6642 C   0  0  0  0  0  0  0  0  0  0  0  0
    7.9594   -0.4512  -14.5969 C   0  0  0  0  0  0  0  0  0  0  0  0
    8.2280    1.7384  -15.6325 C   0  0  0  0  0  0  0  0  0  0  0  0
    6.6560    1.1490  -21.4749 C   0  0  0  0  0  0  0  0  0  0  0  0
    4.8156   -0.2521  -20.6866 C   0  0  0  0  0  0  0  0  0  0  0  0
    6.8144   -1.2820  -21.6293 C   0  0  0  0  0  0  0  0  0  0  0  0
    7.0998   -0.8448  -15.6417 C   0  0  0  0  0  0  0  0  0  0  0  0
    7.3403    1.3639  -16.6655 C   0  0  0  0  0  0  0  0  0  0  0  0
    8.5173    0.8407  -14.5862 C   0  0  0  0  0  0  0  0  0  0  0  0
    5.3714    1.0264  -20.9038 C   0  0  0  0  0  0  0  0  0  0  0  0
    5.9088    8.5178  -19.6847 C   0  0  0  0  0  0  0  0  0  0  0  0
    7.3766   -0.0058  -21.8362 C   0  0  0  0  0  0  0  0  0  0  0  0
    5.5332   -1.4036  -21.0555 C   0  0  0  0  0  0  0  0  0  0  0  0
    6.5313   -2.2023  -15.6428 C   0  0  0  0  0  0  0  0  0  0  0  0
    6.9967    2.3151  -17.7342 C   0  0  0  0  0  0  0  0  0  0  0  0
    7.8384   -4.0872  -18.4824 C   0  0  0  0  0  0  0  0  0  0  0  0
    6.8765   -5.1227  -17.8836 C   0  0  0  0  0  0  0  0  0  0  0  0
    6.0382    5.8938  -18.1631 C   0  0  0  0  0  0  0  0  0  0  0  0
    7.3130   -2.7306  -18.0209 C   0  0  0  0  0  0  0  0  0  0  0  0
    4.5642    6.9870  -16.6055 C   0  0  0  0  0  0  0  0  0  0  0  0
    5.6595    7.2833  -17.6175 C   0  0  2  0  0  0  0  0  0  0  0  0
    5.9688   -4.3413  -16.9132 C   0  0  2  0  0  0  0  0  0  0  0  0
    4.8834    4.9635  -17.7226 C   0  0  2  0  0  0  0  0  0  0  0  0
    9.4906    1.2317  -13.4978 C   0  0  0  0  0  0  0  0  0  0  0  0
    2.4851   -2.9730  -17.2437 C   0  0  0  0  0  0  0  0  0  0  0  0
    4.5806    2.2589  -20.5242 C   0  0  0  0  0  0  0  0  0  0  0  0
    4.5492   -4.1859  -17.4943 C   0  0  0  0  0  0  0  0  0  0  0  0
    4.2740    4.1041  -18.8461 C   0  0  2  0  0  0  0  0  0  0  0  0
    5.2861    3.0965  -19.4329 C   0  0  1  0  0  0  0  0  0  0  0  0
    6.6077   -3.0229  -16.7701 N   0  0  0  0  0  0  0  0  0  0  0  0
    5.7619    2.2016  -18.3645 N   0  0  0  0  0  0  0  0  0  0  0  0
    3.8395    5.8514  -17.1797 N   0  3  0  0  0  0  0  0  0  0  0  0
    6.0283   -2.6322  -14.6108 O   0  0  0  0  0  0  0  0  0  0  0  0
    7.7902    3.1961  -18.0460 O   0  0  0  0  0  0  0  0  0  0  0  0
    3.7698    4.9514  -19.8799 O   0  0  0  0  0  0  0  0  0  0  0  0
    5.0845    8.1295  -18.6414 O   0  0  0  0  0  0  0  0  0  0  0  0
    3.7695   -3.2883  -16.6815 O   0  0  0  0  0  0  0  0  0  0  0  0
    8.6071    0.1101  -22.3842 F   0  0  0  0  0  0  0  0  0  0  0  0
    4.9961   -2.6266  -20.8477 F   0  0  0  0  0  0  0  0  0  0  0  0
    8.0523    9.5945  -22.7681 H   0  0  0  0  0  0  0  0  0  0  0  0
    9.1670    9.0586  -20.6101 H   0  0  0  0  0  0  0  0  0  0  0  0
    5.5754    9.4595  -22.9569 H   0  0  0  0  0  0  0  0  0  0  0  0
    7.8104    8.3634  -18.6450 H   0  0  0  0  0  0  0  0  0  0  0  0
    4.2113    8.8025  -20.9888 H   0  0  0  0  0  0  0  0  0  0  0  0
    6.0908   -0.2192  -17.4484 H   0  0  0  0  0  0  0  0  0  0  0  0
    8.1909   -1.1437  -13.8012 H   0  0  0  0  0  0  0  0  0  0  0  0
    8.6865    2.7162  -15.6449 H   0  0  0  0  0  0  0  0  0  0  0  0
    7.0858    2.1269  -21.6347 H   0  0  0  0  0  0  0  0  0  0  0  0
    3.8383   -0.3463  -20.2367 H   0  0  0  0  0  0  0  0  0  0  0  0
    7.3659   -2.1668  -21.9108 H   0  0  0  0  0  0  0  0  0  0  0  0
    8.8605   -4.2509  -18.1100 H   0  0  0  0  0  0  0  0  0  0  0  0
    7.8343   -4.1480  -19.5807 H   0  0  0  0  0  0  0  0  0  0  0  0
    6.2755   -5.5909  -18.6770 H   0  0  0  0  0  0  0  0  0  0  0  0
    7.4376   -5.8986  -17.3423 H   0  0  0  0  0  0  0  0  0  0  0  0
    6.1187    5.9178  -19.2599 H   0  0  0  0  0  0  0  0  0  0  0  0
    6.9926    5.5562  -17.7328 H   0  0  0  0  0  0  0  0  0  0  0  0
    8.1429   -2.0301  -17.8459 H   0  0  0  0  0  0  0  0  0  0  0  0
    6.6249   -2.3050  -18.7662 H   0  0  0  0  0  0  0  0  0  0  0  0
    4.9967    6.7202  -15.6299 H   0  0  0  0  0  0  0  0  0  0  0  0
    3.8984    7.8545  -16.4866 H   0  0  0  0  0  0  0  0  0  0  0  0
    6.5249    7.7566  -17.1306 H   0  0  0  0  0  0  0  0  0  0  0  0
    5.9216   -4.8609  -15.9448 H   0  0  0  0  0  0  0  0  0  0  0  0
    5.2515    4.2975  -16.9282 H   0  0  0  0  0  0  0  0  0  0  0  0
   10.5119    0.9608  -13.8037 H   0  0  0  0  0  0  0  0  0  0  0  0
    9.4345    2.3172  -13.3285 H   0  0  0  0  0  0  0  0  0  0  0  0
    9.2337    0.7020  -12.5686 H   0  0  0  0  0  0  0  0  0  0  0  0
    1.9488   -2.2866  -16.5719 H   0  0  0  0  0  0  0  0  0  0  0  0
    2.6218   -2.4938  -18.2243 H   0  0  0  0  0  0  0  0  0  0  0  0
    1.9014   -3.8973  -17.3655 H   0  0  0  0  0  0  0  0  0  0  0  0
    4.4485    2.8840  -21.4196 H   0  0  0  0  0  0  0  0  0  0  0  0
    3.5958    1.9451  -20.1476 H   0  0  0  0  0  0  0  0  0  0  0  0
    4.6178   -3.7831  -18.5156 H   0  0  0  0  0  0  0  0  0  0  0  0
    4.0585   -5.1700  -17.5204 H   0  0  0  0  0  0  0  0  0  0  0  0
    3.4424    3.5285  -18.4136 H   0  0  0  0  0  0  0  0  0  0  0  0
    6.1296    3.6431  -19.8798 H   0  0  0  0  0  0  0  0  0  0  0  0
    5.1559    1.4618  -18.0721 H   0  0  0  0  0  0  0  0  0  0  0  0
    3.3098    5.3802  -16.4744 H   0  0  0  0  0  0  0  0  0  0  0  0
    3.2264    6.1583  -17.9077 H   0  0  0  0  0  0  0  0  0  0  0  0
    3.3946    4.4191  -20.5715 H   0  0  0  0  0  0  0  0  0  0  0  0
  1  2  1  0  0  0  0
  1  3  2  0  0  0  0
  2  4  2  0  0  0  0
  3  5  1  0  0  0  0
  4 16  1  0  0  0  0
  5 16  2  0  0  0  0
  6 12  2  0  0  0  0
  6 13  1  0  0  0  0
  7 12  1  0  0  0  0
  7 14  2  0  0  0  0
  8 13  2  0  0  0  0
  8 14  1  0  0  0  0
  9 15  1  0  0  0  0
  9 17  2  0  0  0  0
 10 15  2  0  0  0  0
 10 18  1  0  0  0  0
 11 17  1  0  0  0  0
 11 18  2  0  0  0  0
 12 19  1  0  0  0  0
 13 20  1  0  0  0  0
 14 29  1  0  0  0  0
 15 31  1  0  0  0  0
 16 41  1  0  0  0  0
 17 43  1  0  0  0  0
 18 44  1  0  0  0  0
 19 35  1  0  0  0  0
 19 38  2  0  0  0  0
 20 36  1  0  0  0  0
 20 39  2  0  0  0  0
 21 22  1  0  0  0  0
 21 24  1  0  0  0  0
 22 27  1  0  0  0  0
 23 26  1  0  0  0  0
 23 28  1  0  0  0  0
 24 35  1  0  0  0  0
 25 26  1  0  0  0  0
 25 37  1  0  0  0  0
 26 41  1  0  0  0  0
 27 32  1  0  0  0  0
 27 35  1  0  0  0  0
 28 33  1  0  0  0  0
 28 37  1  0  0  0  0
 30 42  1  0  0  0  0
 31 34  1  0  0  0  0
 32 42  1  0  0  0  0
 33 34  1  0  0  0  0
 33 40  1  0  0  0  0
 34 36  1  0  0  0  0
  1 45  1  0  0  0  0
  2 46  1  0  0  0  0
  3 47  1  0  0  0  0
  4 48  1  0  0  0  0
  5 49  1  0  0  0  0
  6 50  1  0  0  0  0
  7 51  1  0  0  0  0
  8 52  1  0  0  0  0
  9 53  1  0  0  0  0
 10 54  1  0  0  0  0
 11 55  1  0  0  0  0
 21 56  1  0  0  0  0
 21 57  1  0  0  0  0
 22 58  1  0  0  0  0
 22 59  1  0  0  0  0
 23 60  1  0  0  0  0
 23 61  1  0  0  0  0
 24 62  1  0  0  0  0
 24 63  1  0  0  0  0
 25 64  1  0  0  0  0
 25 65  1  0  0  0  0
 26 66  1  0  0  0  0
 27 67  1  0  0  0  0
 28 68  1  0  0  0  0
 29 69  1  0  0  0  0
 29 70  1  0  0  0  0
 29 71  1  0  0  0  0
 30 72  1  0  0  0  0
 30 73  1  0  0  0  0
 30 74  1  0  0  0  0
 31 75  1  0  0  0  0
 31 76  1  0  0  0  0
 32 77  1  0  0  0  0
 32 78  1  0  0  0  0
 33 79  1  0  0  0  0
 34 80  1  0  0  0  0
 36 81  1  0  0  0  0
 37 82  1  0  0  0  0
 37 83  1  0  0  0  0
 40 84  1  0  0  0  0
M  CHG  1  37   1
M  END
> <OMEGA_C>
pb/uQMvPFEG9Tq/BY3kBQdPkD0G0iqXBc+LBQF2aE0EJKbDBY13qQBGeCUHQopzBAzKpQCODDUFq
QKfB6MjYQIgAkD0zUIXBD7P+QFIE577njGnBC6YDQW6F3j+mHnrBN/7UQNwTkz+rzKvBKxmaQAAO
gb43fqXBYg/aQAgYpL/cCK3BijHjQFlDWL+ERHrBVuPqQFCUrj/YUoXBuEYIQbQ4Vz82YWnBneKr
QL9fgz8DO6fBfxS9QNVICEFTep3BKw3sQPD8vrt5sK7B9Q+xQEKps7+9cajBgQDRQEHyDMDlSHrB
H+XfQD8rFECw343Bj9T6QB3KgsDj25PBHwzcQN7so8CLEY/BPTnBQEiavEAeTpHBRQTqQCLCLsDD
KpDBNQ6SQD2V30AT2ITBrRq1QIUQ6UCL8IzBIgC/QD7sisA0TofB10ScQKrUnkDWx43BlNkXQc6p
nT/N9lfBwAsfQOtEPsAG84nBA5SSQLOREEB9MaTBapORQJbyhcBD9IvBAcWIQHdUg0DgxJbBqyep
QKctRkCCdpvBF3LTQK12QcAtKYbBamG4QM/mDEBt6pLBtLl1QP4+u0AOcInBuufAQIl1KMDDxWnB
nUn5QJiNTEBMXpDB2ENxQDRynkATCp/BhrSiQFYSAkGDIZXB+D9xQDhzUsC6c4XBjbYJQXqU4T3s
ErPBTOCfQGMaKMAuyKbBDNYAQe+CGUEKJbbBA6wSQeDvEEGC4aTB+WmyQDFaF0HIp7fBdO75QErQ
BUEDKZXBH8OGQALXDEEL6afBcefCQHltYL5alovBDQ4DQfhkkr+E0VzB6PsKQbDWLUCtUXrBNb/i
QIYeCEDtE63BL6Z1QHRKsb7X5KHBoLXrQIatCsBRSa/Bb8QNQVYHiMAx4ZDBQ7L6QMe8hMA4pZzB
JtHIQAjpssCLapXBygDuQKLBvMDyvIrBSszDQIFevUBZFJrBUsPfQH7MsUC53I3BZUkCQbbtAcBm
xI7Bkf/TQFuFE8AVIZbBROWfQBgM10AaFHrBg395QKxX+0B/5IPBYszQQPM1+ECSC4nB6H29QHqM
m8DDHX/BcQyoQP2EiUAKbYfBrjAoQVT5dT8b3FzBovMWQc9MFEBeQVXBHL0TQVCzMz8MGUnB+nD5
P4pXEsBFk4TBHswnQMGZH8Bky5HBG2DzP5VtecB07IrBbVqOQLWTOEBTW6vB7CFmQDz4+D9PLqHB
BMWTQLMdcsDiH5TBfd+BQJhwpcDWKYzBb1BcQEzSYUAbT5PB8yXEQFgoaUDDCZ/BLv2kQIYbuz+3
k5DBjdRTQMwqrECSy4PBjnxOQL8QxUDwQo/BjkBZQAZpjUB3kqTB9RfvQCyYFUEfQa/B8U/CQNsZ
FEHcP7DBgHkBQWeIEEEOd6XBrF2pQDyVDUEydafBbiHqQG/QCUGprpzBdlHZQJWyqT0WbYXB5yT/
QJRv6r7L2WnBRgkEQZaR3j9CK3rB42zVQC1Wlz9vZqvBc6eaQFrfeL58X6XBZ/baQF9Kn78X+KzB
vYnjQATuVr9WmXrBKKPrQGe7rz+PX4XB/o8IQd4NVT+NfmnBrUOsQKRMhT+H5abB5Oq8QIE3CEGf
p53BasrsQHpRHT3DZq7B9M+xQMEOsb+JfajBLsHQQAAVDMDzpnrBz4TgQCvsFEAo4o3BNQ38QIgy
g8CKZJPBMgbcQPoCpMBYCo/BqA/BQPaFvEA7I5HBdpnpQLN5L8B0VJDBbs2RQCZh4ECa5ITB+dO0
QApM6UCqB43BseW+QMQKi8BTRofBTaObQKJAn0AFqI3BB+wXQRlrmz950lfBLy0dQP2zQ8DamonB
OGqSQLOvEED22qPBbCWRQAyGh8DBwovBuT2IQOTqg0CkqZbBe9CoQEBaR0BqOZvBMTzSQG1XQMDV
YobB2zK4QLNuD0B/j5LBL8d0QNz8u0CqYYnB2NXAQGNbJ8AXE2rB55/6QJbMSkBdw5DBQSxxQPYH
n0Cs/p7B/EmiQCe7AUFbZpXBUW9vQGqiV8A7HYXB5BoKQV5PMD5WurLBMJGgQBgmJ8CGIqfB0BoB
QS6fGkHL/7XBChizQIH1F0FVw7fBTqMSQSbOEUG/sKTBh/2GQLCvDEFwOqjBQ3j5QFveBUELMpXB
k2XDQO7MSr5Zt4vBxkQDQQxLlL8kO13BZXILQWC5LUCnRXrB+fniQOCXCkDWiqzBJbh2QLeDs74s
z6HBttnsQF3BB8AtTq/Bo9gNQSDKh8Auto/BPd3+QP0EhsDcIpzBygnJQNjCscDompXBfOTsQA7K
vcBwyIrBwFLEQCSlvEBT5pnBVUPfQDDNsUCHf43B/KUBQQuNAMCCAI/BI9zTQIq8F8AolZbB3aaf
QMQZ2EDWJHrB3lF5QFtM/ECpAYTBSXTQQIjv+EBkOonBEEW+QEIcm8Cv5H7B7gKnQGPdiUCDRYfB
WVIoQeD2cT/filzBRP8WQT0XE0CC/FTB050TQelZLT8BFEnBOgj0P5xUGcANH4TBkdYlQNNeI8C4
WJHBLl7xP04of8DPyYrBx5SNQD09OEC9CKvBKmNmQEJJ9z/awaDBtm6SQBu7dMCd6pPBwHyCQPqD
p8BT94vB/uBaQK0xY0D8QpPBUrTDQGlGakA6257B8ESkQD2jxD8/2I/BLspSQBM7rUDasYPBQZRN
QBypxUCJOY/BgEhZQOn/jUBpiaTB

> <OMEGA_E>
AFjAPIC4qzw=

> <OMEGA_NBR>
      2954

$$$$
50147869
  -OEChem-04172616093D

 84 88  0     1  0  0  0  0  0999 V2000
    6.5545    9.2952  -22.0311 C   0  0  0  0  0  0  0  0  0  0  0  0
    7.7756    9.1896  -21.3358 C   0  0  0  0  0  0  0  0  0  0  0  0
    5.3379    9.0445  -21.3647 C   0  0  0  0  0  0  0  0  0  0  0  0
    7.7816    8.8421  -19.9720 C   0  0  0  0  0  0  0  0  0  0  0  0
    5.3411    8.6992  -19.9991 C   0  0  0  0  0  0  0  0  0  0  0  0
    6.7644    0.0814  -16.6080 C   0  0  0  0  0  0  0  0  0  0  0  0
    8.0423   -0.4238  -14.5953 C   0  0  0  0  0  0  0  0  0  0  0  0
    8.2506    1.7639  -15.6523 C   0  0  0  0  0  0  0  0  0  0  0  0
    6.5072    1.2010  -21.4651 C   0  0  0  0  0  0  0  0  0  0  0  0
    4.8025   -0.3571  -20.6656 C   0  0  0  0  0  0  0  0  0  0  0  0
    6.8455   -1.2025  -21.6941 C   0  0  0  0  0  0  0  0  0  0  0  0
    7.1417   -0.8270  -15.6023 C   0  0  0  0  0  0  0  0  0  0  0  0
    7.3218    1.3738  -16.6423 C   0  0  0  0  0  0  0  0  0  0  0  0
    6.5661    8.6011  -19.2981 C   0  0  0  0  0  0  0  0  0  0  0  0
    8.5893    0.8747  -14.6129 C   0  0  0  0  0  0  0  0  0  0  0  0
    5.2589    0.9630  -20.8493 C   0  0  0  0  0  0  0  0  0  0  0  0
    7.3036    0.1179  -21.8773 C   0  0  0  0  0  0  0  0  0  0  0  0
    5.5905   -1.4376  -21.0973 C   0  0  0  0  0  0  0  0  0  0  0  0
    5.9948    5.8288  -18.2145 C   0  0  0  0  0  0  0  0  0  0  0  0
    6.5859   -2.1885  -15.5957 C   0  0  0  0  0  0  0  0  0  0  0  0
    6.9361    2.2952  -17.7154 C   0  0  0  0  0  0  0  0  0  0  0  0
    7.7096   -4.0200  -18.5946 C   0  0  0  0  0  0  0  0  0  0  0  0
    6.8980   -5.0782  -17.8335 C   0  0  0  0  0  0  0  0  0  0  0  0
    7.2924   -2.6692  -18.0071 C   0  0  0  0  0  0  0  0  0  0  0  0
    4.6046    7.0028  -16.7503 C   0  0  0  0  0  0  0  0  0  0  0  0
    4.8384    4.9359  -17.7529 C   0  0  2  0  0  0  0  0  0  0  0  0
    5.9727   -4.2977  -16.8892 C   0  0  2  0  0  0  0  0  0  0  0  0
    9.6020    1.2828  -13.5667 C   0  0  0  0  0  0  0  0  0  0  0  0
    2.4619   -2.9999  -17.1825 C   0  0  0  0  0  0  0  0  0  0  0  0
    4.4028    2.1161  -20.3907 C   0  0  0  0  0  0  0  0  0  0  0  0
    6.5880    8.2503  -17.8223 C   0  0  0  0  0  0  0  0  0  0  0  0
    4.5640   -4.1315  -17.4911 C   0  0  0  0  0  0  0  0  0  0  0  0
    4.2095    4.0954  -18.8726 C   0  0  2  0  0  0  0  0  0  0  0  0
    5.1637    3.0038  -19.3895 C   0  0  1  0  0  0  0  0  0  0  0  0
    5.8140    7.0407  -17.5681 N   0  0  0  0  0  0  0  0  0  0  0  0
    6.6236   -2.9892  -16.7392 N   0  0  0  0  0  0  0  0  0  0  0  0
    5.6643    2.1797  -18.2762 N   0  0  0  0  0  0  0  0  0  0  0  0
    3.8319    5.8765  -17.2607 N   0  3  0  0  0  0  0  0  0  0  0  0
    6.8195    5.6112  -19.0951 O   0  0  0  0  0  0  0  0  0  0  0  0
    6.1078   -2.6283  -14.5566 O   0  0  0  0  0  0  0  0  0  0  0  0
    7.7447    3.1249  -18.1140 O   0  0  0  0  0  0  0  0  0  0  0  0
    3.8324    4.9499  -19.9551 O   0  0  0  0  0  0  0  0  0  0  0  0
    3.7604   -3.2924  -16.6400 O   0  0  0  0  0  0  0  0  0  0  0  0
    8.5055    0.3467  -22.4524 F   0  0  0  0  0  0  0  0  0  0  0  0
    5.1452   -2.7022  -20.9280 F   0  0  0  0  0  0  0  0  0  0  0  0
    6.5507    9.5685  -23.0759 H   0  0  0  0  0  0  0  0  0  0  0  0
    8.7072    9.3754  -21.8496 H   0  0  0  0  0  0  0  0  0  0  0  0
    4.4034    9.1172  -21.9011 H   0  0  0  0  0  0  0  0  0  0  0  0
    8.7182    8.7599  -19.4406 H   0  0  0  0  0  0  0  0  0  0  0  0
    4.4091    8.5093  -19.4875 H   0  0  0  0  0  0  0  0  0  0  0  0
    6.0443   -0.2139  -17.3568 H   0  0  0  0  0  0  0  0  0  0  0  0
    8.3137   -1.1119  -13.8083 H   0  0  0  0  0  0  0  0  0  0  0  0
    8.7016    2.7444  -15.6920 H   0  0  0  0  0  0  0  0  0  0  0  0
    6.8498    2.2135  -21.6192 H   0  0  0  0  0  0  0  0  0  0  0  0
    3.8482   -0.5384  -20.1935 H   0  0  0  0  0  0  0  0  0  0  0  0
    7.4567   -2.0346  -22.0113 H   0  0  0  0  0  0  0  0  0  0  0  0
    8.7871   -4.1851  -18.4472 H   0  0  0  0  0  0  0  0  0  0  0  0
    7.4764   -4.0585  -19.6689 H   0  0  0  0  0  0  0  0  0  0  0  0
    6.3060   -5.6843  -18.5351 H   0  0  0  0  0  0  0  0  0  0  0  0
    7.5680   -5.7336  -17.2577 H   0  0  0  0  0  0  0  0  0  0  0  0
    8.1750   -2.0374  -17.8286 H   0  0  0  0  0  0  0  0  0  0  0  0
    6.6012   -2.1499  -18.6872 H   0  0  0  0  0  0  0  0  0  0  0  0
    4.8598    6.8472  -15.6917 H   0  0  0  0  0  0  0  0  0  0  0  0
    4.0376    7.9394  -16.8569 H   0  0  0  0  0  0  0  0  0  0  0  0
    5.1812    4.2754  -16.9428 H   0  0  0  0  0  0  0  0  0  0  0  0
    5.9054   -4.8141  -15.9203 H   0  0  0  0  0  0  0  0  0  0  0  0
   10.6128    1.0196  -13.9117 H   0  0  0  0  0  0  0  0  0  0  0  0
    9.5419    2.3688  -13.4023 H   0  0  0  0  0  0  0  0  0  0  0  0
    9.3878    0.7570  -12.6245 H   0  0  0  0  0  0  0  0  0  0  0  0
    1.9073   -2.3582  -16.4821 H   0  0  0  0  0  0  0  0  0  0  0  0
    2.5755   -2.4795  -18.1449 H   0  0  0  0  0  0  0  0  0  0  0  0
    1.9089   -3.9383  -17.3362 H   0  0  0  0  0  0  0  0  0  0  0  0
    4.1173    2.7216  -21.2636 H   0  0  0  0  0  0  0  0  0  0  0  0
    3.4975    1.7217  -19.9061 H   0  0  0  0  0  0  0  0  0  0  0  0
    7.6286    8.0862  -17.5057 H   0  0  0  0  0  0  0  0  0  0  0  0
    6.1566    9.0826  -17.2469 H   0  0  0  0  0  0  0  0  0  0  0  0
    4.6453   -3.6696  -18.4862 H   0  0  0  0  0  0  0  0  0  0  0  0
    4.0884   -5.1191  -17.5831 H   0  0  0  0  0  0  0  0  0  0  0  0
    3.3145    3.6011  -18.4669 H   0  0  0  0  0  0  0  0  0  0  0  0
    6.0074    3.4834  -19.9073 H   0  0  0  0  0  0  0  0  0  0  0  0
    5.0493    1.4890  -17.8958 H   0  0  0  0  0  0  0  0  0  0  0  0
    3.2872    5.4620  -16.5316 H   0  0  0  0  0  0  0  0  0  0  0  0
    3.2284    6.1689  -18.0025 H   0  0  0  0  0  0  0  0  0  0  0  0
    3.4430    4.4301  -20.6485 H   0  0  0  0  0  0  0  0  0  0  0  0
  1  2  1  0  0  0  0
  1  3  2  0  0  0  0
  2  4  2  0  0  0  0
  3  5  1  0  0  0  0
  4 14  1  0  0  0  0
  5 14  2  0  0  0  0
  6 12  2  0  0  0  0
  6 13  1  0  0  0  0
  7 12  1  0  0  0  0
  7 15  2  0  0  0  0
  8 13  2  0  0  0  0
  8 15  1  0  0  0  0
  9 16  1  0  0  0  0
  9 17  2  0  0  0  0
 10 16  2  0  0  0  0
 10 18  1  0  0  0  0
 11 17  1  0  0  0  0
 11 18  2  0  0  0  0
 12 20  1  0  0  0  0
 13 21  1  0  0  0  0
 14 31  1  0  0  0  0
 15 28  1  0  0  0  0
 16 30  1  0  0  0  0
 17 44  1  0  0  0  0
 18 45  1  0  0  0  0
 19 26  1  0  0  0  0
 19 35  1  0  0  0  0
 19 39  2  0  0  0  0
 20 36  1  0  0  0  0
 20 40  2  0  0  0  0
 21 37  1  0  0  0  0
 21 41  2  0  0  0  0
 22 23  1  0  0  0  0
 22 24  1  0  0  0  0
 23 27  1  0  0  0  0
 24 36  1  0  0  0  0
 25 35  1  0  0  0  0
 25 38  1  0  0  0  0
 26 33  1  0  0  0  0
 26 38  1  0  0  0  0
 27 32  1  0  0  0  0
 27 36  1  0  0  0  0
 29 43  1  0  0  0  0
 30 34  1  0  0  0  0
 31 35  1  0  0  0  0
 32 43  1  0  0  0  0
 33 34  1  0  0  0  0
 33 42  1  0  0  0  0
 34 37  1  0  0  0  0
  1 46  1  0  0  0  0
  2 47  1  0  0  0  0
  3 48  1  0  0  0  0
  4 49  1  0  0  0  0
  5 50  1  0  0  0  0
  6 51  1  0  0  0  0
  7 52  1  0  0  0  0
  8 53  1  0  0  0  0
  9 54  1  0  0  0  0
 10 55  1  0  0  0  0
 11 56  1  0  0  0  0
 22 57  1  0  0  0  0
 22 58  1  0  0  0  0
 23 59  1  0  0  0  0
 23 60  1  0  0  0  0
 24 61  1  0  0  0  0
 24 62  1  0  0  0  0
 25 63  1  0  0  0  0
 25 64  1  0  0  0  0
 26 65  1  0  0  0  0
 27 66  1  0  0  0  0
 28 67  1  0  0  0  0
 28 68  1  0  0  0  0
 28 69  1  0  0  0  0
 29 70  1  0  0  0  0
 29 71  1  0  0  0  0
 29 72  1  0  0  0  0
 30 73  1  0  0  0  0
 30 74  1  0  0  0  0
 31 75  1  0  0  0  0
 31 76  1  0  0  0  0
 32 77  1  0  0  0  0
 32 78  1  0  0  0  0
 33 79  1  0  0  0  0
 34 80  1  0  0  0  0
 37 81  1  0  0  0  0
 38 82  1  0  0  0  0
 38 83  1  0  0  0  0
 42 84  1  0  0  0  0
M  CHG  1  38   1
M  END
> <OMEGA_C>
jb7RQB65FEGfP7DB+9H4QLIIE0Gjr6rBH9CqQFS2EEHq6qrBmQL5QFh5DUGhxp/BouqqQMUvC0EX
/p/BDHbYQCKjpj0q3YTBZq0AQej+2L4thmnBcAIEQbvH4T/kb3rBIzvQQGy5mT90uKvBAq6ZQHjP
tr4TU6XBvA7bQOvqmb+Pja3B84jkQEG4U7/qonnB30vqQPvXrz95I4XBOh3SQC+eCUFyYprBu20J
QffuXz9YzmnB5EioQDKGdj9Gy6bB9bbpQO5l8T24BK/BCuWyQNEEuL8/x6jBFtW/QO+FukBjt5HB
1L/SQGoQDMD+h3nB7/TdQN3kEkApuY3BIrX2QPGjgMDUwZTBPrzcQISAosALq47BtFvpQOjTKsB3
DpDBRVmTQDoX4ECWAIbBgdSaQNHynUD5BY7BkSC/QPGGicArHYfBuKEZQcMxpD8aEVnBJY8dQDT+
P8DSdYnByeOMQIhuB0AwIKPBQ9HSQDYBBEEplI7BngySQGo1hMDg7YvBH7SGQMYNg0AU+5bB3Dyl
QNc+QEClHZvBDAy6QD5N4UCCi4zBpvTTQH5OP8Db6YXB4UG1QOd/C0ClNZLBWj11QDUMvEDmFYrB
/zjaQI6Os0CtwpjBFnPDQP81KMC652jBvtT3QCr/R0Bm6ZDBZUV1QDFlnkAZpJ/BqalwQOe2UsCm
HoXBqBYIQSp9sT59nrPBI6WkQBXwLMB5bKfBtJ/RQLgYGUFvm7jB0lALQcUBFkHqy67BfOiMQCfg
EUGONa/BvH0LQWIoDEFghpvBfBeNQEsmCEFn5pvB3mrBQEb8Wr6u2orBAwUFQURUjr/97lzBqTkL
QeGkL0BwEnvBtjHbQGiqDUAi9KzBskh2QBHUCb9YjKHBDZ3uQBs2AsAYF7DBBZgMQXrshcDyk5PB
UT7vQDXfgcD8WZ3BwsrJQPjltcDOR5TBTy3yQGN5t8DfD4rB4cwCQQVkAsDxoI7BUj3TQPqXCcBe
f5XBo4ObQF4c20AUEXvBFDSBQE0P/kD+2obBB8ylQPHPiEDfiofBA/m8QFYNmsCruX7B5M0pQXqC
gj9xll7ByqsYQdKZF0Dub1bBgzQWQazHQT8L/knBCCL0Pz7sFsBI24PBBdUkQKCvHsDaKJHBeFf0
P2MNfMCBsIrBocCDQA8uLkDVG6rBUddfQF5f3D+yP5/Bxx30QCRhAUG3C4zB3QLFQGFSEUG1+YnB
/qWUQALbasCp45PB89OCQJPPo8AhqozBziBUQDR4ZkAfvJPB8DzAQMXvXkASQp/BBpShQJGWvj+H
Ko/B9WBSQAPJrkDIQITBRZ5OQJpnxUAzBZDBuVlcQKnDjUAjMKXB

> <OMEGA_E>
OMpIPg==

> <OMEGA_NBR>
      4647

$$$$
50147868
  -OEChem-04172616093D

 88 92  0     1  0  0  0  0  0999 V2000
    6.1095    9.4803  -22.2925 C   0  0  0  0  0  0  0  0  0  0  0  0
    7.4535    9.4690  -21.8704 C   0  0  0  0  0  0  0  0  0  0  0  0
    5.0871    9.1082  -21.3996 C   0  0  0  0  0  0  0  0  0  0  0  0
    7.7784    9.0744  -20.5585 C   0  0  0  0  0  0  0  0  0  0  0  0
    5.4076    8.7225  -20.0861 C   0  0  0  0  0  0  0  0  0  0  0  0
    6.7443    0.0423  -16.6796 C   0  0  0  0  0  0  0  0  0  0  0  0
    7.8830   -0.5682  -14.6192 C   0  0  0  0  0  0  0  0  0  0  0  0
    8.2367    1.6381  -15.5855 C   0  0  0  0  0  0  0  0  0  0  0  0
    6.5492    1.1670  -21.4954 C   0  0  0  0  0  0  0  0  0  0  0  0
    4.8093   -0.3102  -20.6196 C   0  0  0  0  0  0  0  0  0  0  0  0
    6.8105   -1.2509  -21.6459 C   0  0  0  0  0  0  0  0  0  0  0  0
    7.0331   -0.8989  -15.6743 C   0  0  0  0  0  0  0  0  0  0  0  0
    7.3396    1.3222  -16.6391 C   0  0  0  0  0  0  0  0  0  0  0  0
    6.7613    8.6827  -19.6636 C   0  0  0  0  0  0  0  0  0  0  0  0
    5.3015    0.9861  -20.8634 C   0  0  0  0  0  0  0  0  0  0  0  0
    8.4859    0.6855  -14.5579 C   0  0  0  0  0  0  0  0  0  0  0  0
    7.3067    0.0479  -21.8790 C   0  0  0  0  0  0  0  0  0  0  0  0
    5.5582   -1.4274  -21.0227 C   0  0  0  0  0  0  0  0  0  0  0  0
    6.0377    6.0035  -18.3635 C   0  0  0  0  0  0  0  0  0  0  0  0
    6.4519   -2.2323  -15.6857 C   0  0  0  0  0  0  0  0  0  0  0  0
    6.9813    2.3159  -17.6725 C   0  0  0  0  0  0  0  0  0  0  0  0
    7.8510   -4.0946  -18.5233 C   0  0  0  0  0  0  0  0  0  0  0  0
    6.8632   -5.1292  -17.9663 C   0  0  0  0  0  0  0  0  0  0  0  0
    7.3576   -2.7498  -18.0070 C   0  0  0  0  0  0  0  0  0  0  0  0
    5.1876    7.7338  -16.7554 C   0  0  0  0  0  0  0  0  0  0  0  0
    4.3401    6.6161  -16.1458 C   0  0  0  0  0  0  0  0  0  0  0  0
    4.9713    5.0049  -17.8369 C   0  0  2  0  0  0  0  0  0  0  0  0
    5.9909   -4.3745  -16.9452 C   0  0  2  0  0  0  0  0  0  0  0  0
   10.2601    1.9305  -13.5393 C   0  0  0  0  0  0  0  0  0  0  0  0
    2.5284   -2.9219  -17.0645 C   0  0  0  0  0  0  0  0  0  0  0  0
    4.4937    2.1774  -20.4383 C   0  0  0  0  0  0  0  0  0  0  0  0
    7.1484    8.2346  -18.2590 C   0  0  0  0  0  0  0  0  0  0  0  0
    4.5590   -4.1567  -17.4779 C   0  0  0  0  0  0  0  0  0  0  0  0
    4.3243    4.1229  -18.9076 C   0  0  2  0  0  0  0  0  0  0  0  0
    5.2763    3.0356  -19.4296 C   0  0  1  0  0  0  0  0  0  0  0  0
    6.2062    7.2380  -17.7136 N   0  0  0  0  0  0  0  0  0  0  0  0
    6.6517   -3.0792  -16.7662 N   0  0  0  0  0  0  0  0  0  0  0  0
    5.7504    2.1865  -18.3200 N   0  0  0  0  0  0  0  0  0  0  0  0
    3.8695    5.7505  -17.2199 N   0  3  0  0  0  0  0  0  0  0  0  0
    6.7659    5.7009  -19.3041 O   0  0  0  0  0  0  0  0  0  0  0  0
    5.9185   -2.6520  -14.6643 O   0  0  0  0  0  0  0  0  0  0  0  0
    7.7505    3.2324  -17.9409 O   0  0  0  0  0  0  0  0  0  0  0  0
    3.8470    4.9440  -19.9757 O   0  0  0  0  0  0  0  0  0  0  0  0
    9.2568    0.9128  -13.4368 O   0  0  0  0  0  0  0  0  0  0  0  0
    3.8025   -3.3444  -16.5571 O   0  0  0  0  0  0  0  0  0  0  0  0
    8.5072    0.2221  -22.4748 F   0  0  0  0  0  0  0  0  0  0  0  0
    5.0771   -2.6704  -20.8041 F   0  0  0  0  0  0  0  0  0  0  0  0
    5.8634    9.7747  -23.3020 H   0  0  0  0  0  0  0  0  0  0  0  0
    8.2359    9.7636  -22.5542 H   0  0  0  0  0  0  0  0  0  0  0  0
    4.0568    9.1189  -21.7232 H   0  0  0  0  0  0  0  0  0  0  0  0
    8.8094    9.0715  -20.2367 H   0  0  0  0  0  0  0  0  0  0  0  0
    4.6206    8.4556  -19.3964 H   0  0  0  0  0  0  0  0  0  0  0  0
    6.0678   -0.2139  -17.4816 H   0  0  0  0  0  0  0  0  0  0  0  0
    8.0757   -1.2923  -13.8414 H   0  0  0  0  0  0  0  0  0  0  0  0
    8.7291    2.5991  -15.5636 H   0  0  0  0  0  0  0  0  0  0  0  0
    6.9214    2.1631  -21.6840 H   0  0  0  0  0  0  0  0  0  0  0  0
    3.8591   -0.4448  -20.1242 H   0  0  0  0  0  0  0  0  0  0  0  0
    7.3903   -2.1116  -21.9450 H   0  0  0  0  0  0  0  0  0  0  0  0
    8.8685   -4.2977  -18.1581 H   0  0  0  0  0  0  0  0  0  0  0  0
    7.8463   -4.1104  -19.6232 H   0  0  0  0  0  0  0  0  0  0  0  0
    6.2390   -5.5363  -18.7755 H   0  0  0  0  0  0  0  0  0  0  0  0
    7.4057   -5.9495  -17.4736 H   0  0  0  0  0  0  0  0  0  0  0  0
    8.2026   -2.0743  -17.8078 H   0  0  0  0  0  0  0  0  0  0  0  0
    6.6756   -2.2801  -18.7311 H   0  0  0  0  0  0  0  0  0  0  0  0
    4.5200    8.4303  -17.2838 H   0  0  0  0  0  0  0  0  0  0  0  0
    5.7025    8.2656  -15.9417 H   0  0  0  0  0  0  0  0  0  0  0  0
    4.9490    6.0326  -15.4395 H   0  0  0  0  0  0  0  0  0  0  0  0
    3.4795    7.0505  -15.6160 H   0  0  0  0  0  0  0  0  0  0  0  0
    5.4439    4.3566  -17.0843 H   0  0  0  0  0  0  0  0  0  0  0  0
    5.9562   -4.9326  -15.9979 H   0  0  0  0  0  0  0  0  0  0  0  0
   10.8001    2.0112  -12.5843 H   0  0  0  0  0  0  0  0  0  0  0  0
   10.9679    1.6682  -14.3395 H   0  0  0  0  0  0  0  0  0  0  0  0
    9.7828    2.8935  -13.7730 H   0  0  0  0  0  0  0  0  0  0  0  0
    2.0160   -2.3104  -16.3072 H   0  0  0  0  0  0  0  0  0  0  0  0
    2.6765   -2.3266  -17.9775 H   0  0  0  0  0  0  0  0  0  0  0  0
    1.9158   -3.8052  -17.2981 H   0  0  0  0  0  0  0  0  0  0  0  0
    4.2566    2.7868  -21.3228 H   0  0  0  0  0  0  0  0  0  0  0  0
    3.5602    1.8318  -19.9701 H   0  0  0  0  0  0  0  0  0  0  0  0
    8.1540    7.7900  -18.2933 H   0  0  0  0  0  0  0  0  0  0  0  0
    7.1581    9.1128  -17.5967 H   0  0  0  0  0  0  0  0  0  0  0  0
    4.6075   -3.6507  -18.4534 H   0  0  0  0  0  0  0  0  0  0  0  0
    4.0627   -5.1314  -17.5947 H   0  0  0  0  0  0  0  0  0  0  0  0
    3.4672    3.6140  -18.4426 H   0  0  0  0  0  0  0  0  0  0  0  0
    6.1292    3.5095  -19.9376 H   0  0  0  0  0  0  0  0  0  0  0  0
    5.1406    1.4588  -18.0059 H   0  0  0  0  0  0  0  0  0  0  0  0
    3.2076    5.1007  -16.8462 H   0  0  0  0  0  0  0  0  0  0  0  0
    3.4269    6.3124  -17.9187 H   0  0  0  0  0  0  0  0  0  0  0  0
    3.4453    4.3974  -20.6408 H   0  0  0  0  0  0  0  0  0  0  0  0
  1  2  1  0  0  0  0
  1  3  2  0  0  0  0
  2  4  2  0  0  0  0
  3  5  1  0  0  0  0
  4 14  1  0  0  0  0
  5 14  2  0  0  0  0
  6 12  1  0  0  0  0
  6 13  2  0  0  0  0
  7 12  2  0  0  0  0
  7 16  1  0  0  0  0
  8 13  1  0  0  0  0
  8 16  2  0  0  0  0
  9 15  1  0  0  0  0
  9 17  2  0  0  0  0
 10 15  2  0  0  0  0
 10 18  1  0  0  0  0
 11 17  1  0  0  0  0
 11 18  2  0  0  0  0
 12 20  1  0  0  0  0
 13 21  1  0  0  0  0
 14 32  1  0  0  0  0
 15 31  1  0  0  0  0
 16 44  1  0  0  0  0
 17 46  1  0  0  0  0
 18 47  1  0  0  0  0
 19 27  1  0  0  0  0
 19 36  1  0  0  0  0
 19 40  2  0  0  0  0
 20 37  1  0  0  0  0
 20 41  2  0  0  0  0
 21 38  1  0  0  0  0
 21 42  2  0  0  0  0
 22 23  1  0  0  0  0
 22 24  1  0  0  0  0
 23 28  1  0  0  0  0
 24 37  1  0  0  0  0
 25 26  1  0  0  0  0
 25 36  1  0  0  0  0
 26 39  1  0  0  0  0
 27 34  1  0  0  0  0
 27 39  1  0  0  0  0
 28 33  1  0  0  0  0
 28 37  1  0  0  0  0
 29 44  1  0  0  0  0
 30 45  1  0  0  0  0
 31 35  1  0  0  0  0
 32 36  1  0  0  0  0
 33 45  1  0  0  0  0
 34 35  1  0  0  0  0
 34 43  1  0  0  0  0
 35 38  1  0  0  0  0
  1 48  1  0  0  0  0
  2 49  1  0  0  0  0
  3 50  1  0  0  0  0
  4 51  1  0  0  0  0
  5 52  1  0  0  0  0
  6 53  1  0  0  0  0
  7 54  1  0  0  0  0
  8 55  1  0  0  0  0
  9 56  1  0  0  0  0
 10 57  1  0  0  0  0
 11 58  1  0  0  0  0
 22 59  1  0  0  0  0
 22 60  1  0  0  0  0
 23 61  1  0  0  0  0
 23 62  1  0  0  0  0
 24 63  1  0  0  0  0
 24 64  1  0  0  0  0
 25 65  1  0  0  0  0
 25 66  1  0  0  0  0
 26 67  1  0  0  0  0
 26 68  1  0  0  0  0
 27 69  1  0  0  0  0
 28 70  1  0  0  0  0
 29 71  1  0  0  0  0
 29 72  1  0  0  0  0
 29 73  1  0  0  0  0
 30 74  1  0  0  0  0
 30 75  1  0  0  0  0
 30 76  1  0  0  0  0
 31 77  1  0  0  0  0
 31 78  1  0  0  0  0
 32 79  1  0  0  0  0
 32 80  1  0  0  0  0
 33 81  1  0  0  0  0
 33 82  1  0  0  0  0
 34 83  1  0  0  0  0
 35 84  1  0  0  0  0
 38 85  1  0  0  0  0
 39 86  1  0  0  0  0
 39 87  1  0  0  0  0
 43 88  1  0  0  0  0
M  CHG  1  39   1
M  END
> <OMEGA_C>
qoDDQFevF0HyVrLBO4PuQDaBF0GE9q7BUMmiQDa7EUFOMqvB/+j4QJYwEUHZd6TBRwutQIWPC0FR
sKDBCtHXQOhpLT3Nb4XB2kH8QEZ3Eb9u6GnBoMkDQfWt0T8YXnnBXpPRQNBelT+r9qvBxeWZQKXQ
nr7l9KTBle/ZQKcdoL++Kq3B5w7hQEYhZr/fyXrBBt7qQB8/qT/JHIXBfFzYQIHsCkH/Tp3B66Wp
QK5wfD9W6KbBWsYHQRR8Lz897WjBUNDpQFgSRD0kCK/B/tyxQDm0tr+LLqjBljTBQPkcwEBw6JLB
wHXOQMjeDsCx+HrBm2bfQGY3FEA4YY3Bijv7QLwGg8CyL5TB757bQEsipMASu4/BLXHrQDz8L8BT
DpDBzwCmQEJ790D6CobBLuKKQPm200CTKoHBxhSfQBIooED5sY7BnLW/QC38i8DAj4fBkykkQaMZ
9z/ToFjBG9EhQA8BO8AOhIjBecyPQLpaC0CVgaPBs7/kQMnAA0FqEpLBW+ORQIwDhcDJ0ovBBGGK
QMzug0DYQpfBydeoQMRHQkDAb5vBMpnGQMOd50BstY3BGdvUQOUQRcBEIYbBKwO4QADvC0Bgj5LB
laV3QNkDuEBXwonBeoLYQGlttkDQbprBDWS9QPm5KcDJoGrBugP4QLzfTkDoho/BeTV2QKI1nkA7
zp/B6xsUQT6saT8g/VbBkltzQNgJVsDxdITBox0IQStwYz5izLPBh3eiQIzoKsDEbqbBBqG7QDdl
HEGAarrBEsYDQdA3HEHsbrTBGNGBQCPnEUExya3BO/MMQeQkEUHO5KHBrNuTQFVKB0HJK5vBjivC
QOoAW75B2ovBQDYBQf9opb9pdl3BRqoLQftXJkCbBHnByXvdQLpwCkDheK3BcPt2QB28475d/qDB
F33sQJQkB8BGj6/BfeUNQSiHicCzQ5HBoxT7QB+Ig8A+/JzBRabHQH8pscA7NJbBrPvsQAxivsAF
yovBxD0DQUzBBMBSdo7BLp7VQL3tEcBE2ZXBFqSQQE/iBkFTRYrB1Xq2QAtABEE8EX/BEF6eQPQK
wUBOCHfBf7BeQOyd4UA923nBWDSuQClpi0C7rIjBy5i+QEPYncCI93/BN80sQSK4AEBaWUnBdnwv
QSOH1T9wbmXBhYYcQecvOUBpXlzBbAYBQD3dE8AndYLBikwrQEPmFMDg0Y/B8Tf1PxuIc8CGYorB
uTWIQC5aMkAularBz9pjQPV46j/Iwp/ByHYCQRNI+UChWJLBTA/lQBnOEUEexozBQ3CTQHikacCb
oJPBrAGCQFE0pMD6wYzBIuZdQL9LZ0BpipPBXCLEQFCcYEAbgJ/BAoCkQGa5uj8MDJDBD0lNQN44
o0DsxIbB71FbQPP+yUCMWY/BpX9cQMm3jEBRIKXB2jvNQDaeF0H0t7DBVKGqQLXzEUG6FqrBaGr3
QJiYFkHrxazBijGyQD4dC0Gnip/BVhv/QFObD0EPPqLBiYfYQIn5uT2X+4XBVkz7QHKmbb7UcWnB
ct0AQSJO8z/M+XvBoljTQHWckz9XkqvBiOOaQAhmt779gKXBBRneQIwLob94V6zBxI7iQA5bPr9M
h3rBaLfoQOyNsz86YobBPKncQDmACUEDoJvBDO6pQHoxcz8GVKfBxksFQVBXjT9BKmrB5HjtQJLV
TD0GAa7B6r60QJ3kur8yIqjB71vAQD7FvEAeXJLBrprRQHa2B8BbxXnBwBbeQAx7EUB5R4/BsHn8
QAvGgsDB8ZLBg+PbQKDSosBVgY7BpbfrQADILcDBro/BnBilQNyH8kCfKYXB4KeKQHEFzkBzboDB
ATadQAmqnEACrI7BDyW/QPUhicCIyobBEQkeQQ5mWz/QSE3BM8YcQJwPQcAWU4nBSCSOQFhyCEA8
XaTBkCLmQJBjAUEGYpDBt7iRQOC0hMDmeIvB0MuHQEHxgkARupfB+selQPdXQUDhTZzBVD/GQI8r
40Als4zBH7/TQAqxPcDkzIXBlG21QK+CC0BRkpPBykd1QLXMs0AjO4nBp1LYQKzZs0AXz5nBkdfA
QOUqIcBHOGnBwiX4QMCWRkBZY5LBWoBzQL9Jn0CM8Z/BoV8QQV7e2j+kvVnBrI9vQBEKU8BS1ITB
D5gKQcL8fT74/bHB+fulQJKvLcAAg6bBmnDHQEfBHEH91rjBj0qKQFvbEkE3Gq3B0vAIQUguG0Gh
1bHBJ5eXQGAUB0GdaJrB4boPQTvrDkFZOZ/BemjEQEFvjb4+XYzBa0gBQVevW79a11vBRx4HQdkA
OkA1zXzBCuzeQLX/CUAN8qzBkBJ3QN+fA7/2FqLBKQHyQIbTBsDfSq7BFyMOQWx9iMCWc4/BwG7+
QF9PhcA0tZvB6KrIQMR/sMBfCZXBdlTsQK63vMAsMIrB7ysDQek9AcCvOI7BHqPWQMxjE8AJ6ZXB
Q3+PQE4zBEFnc4nB0uC0QH3rAUETMH3B6tGeQPF1ukAgQnbBDUBfQPEl20BjsnfBtuqrQAvuhUB4
DInBw6+9QPpNmcB7933BmvYlQaWNuT8WwUDBD2gUQUp/gT2e0UXBijMqQdEdzz6bvVfB+GHxP9Fd
F8B42oPBN6okQLC4IMAiFJHBXELzP0JafcC9e4rBeNeGQIvMLUDDmKvB1FNgQJen4j8HxaDBkvcC
Qfmu80D0WZDBnwrmQGMQD0Hi14rB+dGTQGiCbcDRiJPB7tyCQMuOpMAK9YvByblXQPn5ZEB4TJTB
P8vAQB3bYEAEWKDBMYWhQLh+vz9ohZDBYWdLQAySnkDFU4bB++pXQDTFxkChho7BoidZQAFMj0BT
gaXB

> <OMEGA_E>
gEiUPmj5oD4=

> <OMEGA_NBR>
      7710

$$$$
50147874
  -OEChem-04172616093D

 87 91  0     1  0  0  0  0  0999 V2000
    6.1836    9.5088  -22.1431 C   0  0  0  0  0  0  0  0  0  0  0  0
    7.5283    9.4724  -21.7243 C   0  0  0  0  0  0  0  0  0  0  0  0
    5.1589    9.1235  -21.2586 C   0  0  0  0  0  0  0  0  0  0  0  0
    7.8518    9.0352  -20.4258 C   0  0  0  0  0  0  0  0  0  0  0  0
    5.4781    8.6936  -19.9590 C   0  0  0  0  0  0  0  0  0  0  0  0
    6.7613    0.0818  -16.6001 C   0  0  0  0  0  0  0  0  0  0  0  0
    8.0491   -0.4645  -14.6036 C   0  0  0  0  0  0  0  0  0  0  0  0
    8.2743    1.7340  -15.6341 C   0  0  0  0  0  0  0  0  0  0  0  0
    6.5313    1.1416  -21.5104 C   0  0  0  0  0  0  0  0  0  0  0  0
    4.7862   -0.3431  -20.6583 C   0  0  0  0  0  0  0  0  0  0  0  0
    6.7991   -1.2754  -21.6681 C   0  0  0  0  0  0  0  0  0  0  0  0
    7.1338   -0.8422  -15.6058 C   0  0  0  0  0  0  0  0  0  0  0  0
    7.3330    1.3705  -16.6243 C   0  0  0  0  0  0  0  0  0  0  0  0
    6.8329    8.6234  -19.5424 C   0  0  0  0  0  0  0  0  0  0  0  0
    8.6129    0.8258  -14.6108 C   0  0  0  0  0  0  0  0  0  0  0  0
    5.2778    0.9543  -20.8901 C   0  0  0  0  0  0  0  0  0  0  0  0
    7.2957    0.0254  -21.8903 C   0  0  0  0  0  0  0  0  0  0  0  0
    5.5413   -1.4562  -21.0568 C   0  0  0  0  0  0  0  0  0  0  0  0
    6.0432    5.9244  -18.3302 C   0  0  0  0  0  0  0  0  0  0  0  0
    6.5555   -2.1929  -15.6008 C   0  0  0  0  0  0  0  0  0  0  0  0
    6.9527    2.3163  -17.6860 C   0  0  0  0  0  0  0  0  0  0  0  0
    7.5195   -4.0402  -18.7079 C   0  0  0  0  0  0  0  0  0  0  0  0
    6.8869   -5.0920  -17.7940 C   0  0  0  0  0  0  0  0  0  0  0  0
    7.3215   -2.6965  -17.9902 C   0  0  0  0  0  0  0  0  0  0  0  0
    5.2495    7.6312  -16.6661 C   0  0  0  0  0  0  0  0  0  0  0  0
    4.3074    6.5458  -16.1387 C   0  0  0  0  0  0  0  0  0  0  0  0
    4.9398    4.9507  -17.8382 C   0  0  2  0  0  0  0  0  0  0  0  0
    5.9475   -4.3065  -16.8781 C   0  0  2  0  0  0  0  0  0  0  0  0
    9.6432    1.2039  -13.5707 C   0  0  0  0  0  0  0  0  0  0  0  0
    2.4532   -2.9731  -17.1844 C   0  0  0  0  0  0  0  0  0  0  0  0
    4.4640    2.1374  -20.4564 C   0  0  0  0  0  0  0  0  0  0  0  0
    7.2203    8.1145  -18.1586 C   0  0  0  0  0  0  0  0  0  0  0  0
    4.5454   -4.1287  -17.4919 C   0  0  0  0  0  0  0  0  0  0  0  0
    4.2989    4.0801  -18.9223 C   0  0  2  0  0  0  0  0  0  0  0  0
    5.2466    2.9917  -19.4466 C   0  0  1  0  0  0  0  0  0  0  0  0
    6.2520    7.1296  -17.6395 N   0  0  0  0  0  0  0  0  0  0  0  0
    6.6062   -3.0019  -16.7368 N   0  0  0  0  0  0  0  0  0  0  0  0
    5.7303    2.1472  -18.3375 N   0  0  0  0  0  0  0  0  0  0  0  0
    3.8457    5.7307  -17.2551 N   0  3  0  0  0  0  0  0  0  0  0  0
    6.7520    5.6374  -19.2904 O   0  0  0  0  0  0  0  0  0  0  0  0
    6.0497   -2.6167  -14.5679 O   0  0  0  0  0  0  0  0  0  0  0  0
    7.7164    3.2260  -17.9886 O   0  0  0  0  0  0  0  0  0  0  0  0
    3.8398    4.9106  -19.9901 O   0  0  0  0  0  0  0  0  0  0  0  0
    3.7562   -3.2619  -16.6529 O   0  0  0  0  0  0  0  0  0  0  0  0
    8.5049    0.2039  -22.4676 F   0  0  0  0  0  0  0  0  0  0  0  0
    5.0586   -2.6986  -20.8432 F   0  0  0  0  0  0  0  0  0  0  0  0
    5.9389    9.8327  -23.1439 H   0  0  0  0  0  0  0  0  0  0  0  0
    8.3121    9.7803  -22.4004 H   0  0  0  0  0  0  0  0  0  0  0  0
    4.1278    9.1582  -21.5783 H   0  0  0  0  0  0  0  0  0  0  0  0
    8.8830    9.0153  -20.1054 H   0  0  0  0  0  0  0  0  0  0  0  0
    4.6897    8.4157  -19.2752 H   0  0  0  0  0  0  0  0  0  0  0  0
    6.0340   -0.1976  -17.3480 H   0  0  0  0  0  0  0  0  0  0  0  0
    8.3189   -1.1661  -13.8281 H   0  0  0  0  0  0  0  0  0  0  0  0
    8.7352    2.7103  -15.6619 H   0  0  0  0  0  0  0  0  0  0  0  0
    6.9020    2.1395  -21.6925 H   0  0  0  0  0  0  0  0  0  0  0  0
    3.8303   -0.4819  -20.1752 H   0  0  0  0  0  0  0  0  0  0  0  0
    7.3826   -2.1339  -21.9662 H   0  0  0  0  0  0  0  0  0  0  0  0
    8.5909   -4.2470  -18.8472 H   0  0  0  0  0  0  0  0  0  0  0  0
    7.0177   -4.0303  -19.6868 H   0  0  0  0  0  0  0  0  0  0  0  0
    6.3236   -5.8293  -18.3850 H   0  0  0  0  0  0  0  0  0  0  0  0
    7.6597   -5.6075  -17.2049 H   0  0  0  0  0  0  0  0  0  0  0  0
    8.2952   -2.2341  -17.7708 H   0  0  0  0  0  0  0  0  0  0  0  0
    6.7243   -2.0152  -18.6140 H   0  0  0  0  0  0  0  0  0  0  0  0
    4.6446    8.4066  -17.1589 H   0  0  0  0  0  0  0  0  0  0  0  0
    5.7848    8.0714  -15.8119 H   0  0  0  0  0  0  0  0  0  0  0  0
    4.8433    5.9120  -15.4169 H   0  0  0  0  0  0  0  0  0  0  0  0
    3.4445    7.0157  -15.6442 H   0  0  0  0  0  0  0  0  0  0  0  0
    5.3736    4.2938  -17.0699 H   0  0  0  0  0  0  0  0  0  0  0  0
    5.8659   -4.8104  -15.9037 H   0  0  0  0  0  0  0  0  0  0  0  0
   10.6461    0.9314  -13.9313 H   0  0  0  0  0  0  0  0  0  0  0  0
    9.6008    2.2882  -13.3900 H   0  0  0  0  0  0  0  0  0  0  0  0
    9.4322    0.6675  -12.6338 H   0  0  0  0  0  0  0  0  0  0  0  0
    1.9132   -2.3098  -16.4926 H   0  0  0  0  0  0  0  0  0  0  0  0
    2.5573   -2.4776  -18.1610 H   0  0  0  0  0  0  0  0  0  0  0  0
    1.8912   -3.9107  -17.3070 H   0  0  0  0  0  0  0  0  0  0  0  0
    4.2204    2.7507  -21.3365 H   0  0  0  0  0  0  0  0  0  0  0  0
    3.5342    1.7840  -19.9869 H   0  0  0  0  0  0  0  0  0  0  0  0
    8.2109    7.6401  -18.2194 H   0  0  0  0  0  0  0  0  0  0  0  0
    7.2644    8.9679  -17.4660 H   0  0  0  0  0  0  0  0  0  0  0  0
    4.6382   -3.6835  -18.4935 H   0  0  0  0  0  0  0  0  0  0  0  0
    4.0533   -5.1093  -17.5707 H   0  0  0  0  0  0  0  0  0  0  0  0
    3.4333    3.5735  -18.4704 H   0  0  0  0  0  0  0  0  0  0  0  0
    6.0971    3.4671  -19.9570 H   0  0  0  0  0  0  0  0  0  0  0  0
    5.1400    1.4005  -18.0310 H   0  0  0  0  0  0  0  0  0  0  0  0
    3.1376    5.1043  -16.9292 H   0  0  0  0  0  0  0  0  0  0  0  0
    3.4627    6.3297  -17.9584 H   0  0  0  0  0  0  0  0  0  0  0  0
    3.4420    4.3709  -20.6631 H   0  0  0  0  0  0  0  0  0  0  0  0
  1  2  1  0  0  0  0
  1  3  2  0  0  0  0
  2  4  2  0  0  0  0
  3  5  1  0  0  0  0
  4 14  1  0  0  0  0
  5 14  2  0  0  0  0
  6 12  2  0  0  0  0
  6 13  1  0  0  0  0
  7 12  1  0  0  0  0
  7 15  2  0  0  0  0
  8 13  2  0  0  0  0
  8 15  1  0  0  0  0
  9 16  1  0  0  0  0
  9 17  2  0  0  0  0
 10 16  2  0  0  0  0
 10 18  1  0  0  0  0
 11 17  1  0  0  0  0
 11 18  2  0  0  0  0
 12 20  1  0  0  0  0
 13 21  1  0  0  0  0
 14 32  1  0  0  0  0
 15 29  1  0  0  0  0
 16 31  1  0  0  0  0
 17 45  1  0  0  0  0
 18 46  1  0  0  0  0
 19 27  1  0  0  0  0
 19 36  1  0  0  0  0
 19 40  2  0  0  0  0
 20 37  1  0  0  0  0
 20 41  2  0  0  0  0
 21 38  1  0  0  0  0
 21 42  2  0  0  0  0
 22 23  1  0  0  0  0
 22 24  1  0  0  0  0
 23 28  1  0  0  0  0
 24 37  1  0  0  0  0
 25 26  1  0  0  0  0
 25 36  1  0  0  0  0
 26 39  1  0  0  0  0
 27 34  1  0  0  0  0
 27 39  1  0  0  0  0
 28 33  1  0  0  0  0
 28 37  1  0  0  0  0
 30 44  1  0  0  0  0
 31 35  1  0  0  0  0
 32 36  1  0  0  0  0
 33 44  1  0  0  0  0
 34 35  1  0  0  0  0
 34 43  1  0  0  0  0
 35 38  1  0  0  0  0
  1 47  1  0  0  0  0
  2 48  1  0  0  0  0
  3 49  1  0  0  0  0
  4 50  1  0  0  0  0
  5 51  1  0  0  0  0
  6 52  1  0  0  0  0
  7 53  1  0  0  0  0
  8 54  1  0  0  0  0
  9 55  1  0  0  0  0
 10 56  1  0  0  0  0
 11 57  1  0  0  0  0
 22 58  1  0  0  0  0
 22 59  1  0  0  0  0
 23 60  1  0  0  0  0
 23 61  1  0  0  0  0
 24 62  1  0  0  0  0
 24 63  1  0  0  0  0
 25 64  1  0  0  0  0
 25 65  1  0  0  0  0
 26 66  1  0  0  0  0
 26 67  1  0  0  0  0
 27 68  1  0  0  0  0
 28 69  1  0  0  0  0
 29 70  1  0  0  0  0
 29 71  1  0  0  0  0
 29 72  1  0  0  0  0
 30 73  1  0  0  0  0
 30 74  1  0  0  0  0
 30 75  1  0  0  0  0
 31 76  1  0  0  0  0
 31 77  1  0  0  0  0
 32 78  1  0  0  0  0
 32 79  1  0  0  0  0
 33 80  1  0  0  0  0
 33 81  1  0  0  0  0
 34 82  1  0  0  0  0
 35 83  1  0  0  0  0
 38 84  1  0  0  0  0
 39 85  1  0  0  0  0
 39 86  1  0  0  0  0
 43 87  1  0  0  0  0
M  CHG  1  39   1
M  END
> <OMEGA_C>
3t/FQBYkGEEpJbHBfufwQO2OF0FZy63BaBWlQOv5EUGzEarBBEL7QFaQEEH7Z6PBxEyvQPAYC0EG
rJ/BLlzYQBqBpz0FzYTBKMkAQZDW7b5VqGnBi2MEQaLy3T9tJXrBVgDRQHYekj89FazBZCiZQLur
r75MRKXBUpLZQN8/o78tWK3BckjkQJCaV79XsXnBSKjqQNVrrz+I/oTBzKbaQHL5CUHGVpzBas4J
QSdnUz+3xWnBAOSoQOdNdD/fHqfB+HXpQJJX0DxGH6/BllKxQCNlur9cdKjBtmHBQPmUvUA4pJLB
vMbRQNZXDMC/nHnBIHzeQLQ+FEDVfI3Bep/wQKNJgcDVqZXBLGHcQMnxosAvWo7BvknqQNGTLMAC
7I/BuvunQHMy9EAuVIXBWNaJQGd30UAPHIHBCBOeQIVsnkCmtI7B3lG+QDnPicBNBofBlEoaQW4a
mj+YIVnBfwEdQKNGPsCveYnBfNmOQGfLCECypqPBCg3nQNXUAUHHRJHBGHSRQDoehMB074vBZpCJ
QB+QgkDwYJfB9OOnQBt4P0CPkpvBAhDIQP0l5ECzHY3BwmXTQE8fQMAM5YXBUl63QD1sCUBLs5LB
WR92QC1it0BxCorBeBDYQN5ltEC+UprB4pbBQFF3J8ABFmnBIO32QF13TkCn6I/BAr91QIUjnUCx
65/B+WRwQNDCUMA5OYXB4hMIQXnJUD6VvbPB6t+hQDm1LMD2vqbBOgu+QMRSHUHPJrnBUf4EQT58
HEEcNLPBMBeEQNSHEkFUoKzB1iAOQYU+EEHy16DBExKWQNimBkGTM5rBXxbBQERbSr7LyIrBUxoF
QVpElb8UQF3Bk8MLQf10LUAul3rB2NzcQPHsCEBUiq3B1SN1QPq39r7AZqHBAj7sQBGSCMDUuq/B
IXQJQVbnh8ACx5bBA5HgQGj4gMCAfp3BE1vKQGSJusBtFJPB9Rv1QNFws8C4o4nBFbkEQfr7DsCy
Ko7BRC3XQDH5AMCQ6ZTBl6CUQF+BBkFpRYnBJR25QI4kAUG5/XzBrvyaQP0uvUCJq3bBvHJcQN2A
4EB5TnrBjvSrQAJniUArj4jBwLW7QJTumcBadX7BTFYqQfFwbj9y5l7BwpwZQSRxEkBjPVbBc+oW
QVTiKj8fJErBwuT0P2rUE8Du8IPBhKojQHuRHsC7SZHBZRTyP/NIesCudIrBVA2HQCkLMEAWsarB
yS9iQKRZ5D815Z/B/18DQa179EBewZHBC3boQKR8D0FnuovB6GuUQFa+a8C58pPBabSBQFp/o8C8
kIzBr7tbQN+0ZEBnw5PBeBvDQFTlXUACqJ/BPHukQIxCsz9wP5DB8M5IQCRWo0DzbofBdZ1dQB2N
ykC4qo/BQ0lcQBHei0ADTqXB

> <OMEGA_E>
QOJuPg==

> <OMEGA_NBR>
      9451

$$$$
50162065
  -OEChem-04172616093D

 76 78  0     1  0  0  0  0  0999 V2000
    6.8032   -0.1356  -16.7032 C   0  0  0  0  0  0  0  0  0  0  0  0
    8.3103    1.5174  -15.7237 C   0  0  0  0  0  0  0  0  0  0  0  0
    8.0772   -0.6737  -14.6908 C   0  0  0  0  0  0  0  0  0  0  0  0
    6.7986    1.1289  -21.4155 C   0  0  0  0  0  0  0  0  0  0  0  0
    5.0705   -0.4475  -20.7097 C   0  0  0  0  0  0  0  0  0  0  0  0
    7.1955   -1.2710  -21.5819 C   0  0  0  0  0  0  0  0  0  0  0  0
    7.3868    1.1504  -16.7249 C   0  0  0  0  0  0  0  0  0  0  0  0
    7.1725   -1.0586  -15.7004 C   0  0  0  0  0  0  0  0  0  0  0  0
    8.6304    0.6196  -14.6907 C   0  0  0  0  0  0  0  0  0  0  0  0
    5.5137    0.8793  -20.8831 C   0  0  0  0  0  0  0  0  0  0  0  0
    7.6400    0.0547  -21.7578 C   0  0  0  0  0  0  0  0  0  0  0  0
    5.9070   -1.5202  -21.0671 C   0  0  0  0  0  0  0  0  0  0  0  0
    7.0361    2.1093  -17.7787 C   0  0  0  0  0  0  0  0  0  0  0  0
    6.5953   -2.4131  -15.6708 C   0  0  0  0  0  0  0  0  0  0  0  0
    5.6799    7.7984  -17.3396 C   0  0  0  0  0  0  0  0  0  0  0  0
    6.2134    5.7933  -18.6625 C   0  0  0  0  0  0  0  0  0  0  0  0
    4.5259    7.0480  -16.6531 C   0  0  0  0  0  0  0  0  0  0  0  0
    5.0511    5.0174  -17.9758 C   0  0  2  0  0  0  0  0  0  0  0  0
    9.6223    1.0212  -13.6244 C   0  0  0  0  0  0  0  0  0  0  0  0
    9.4887   -4.3001  -16.9534 C   0  0  0  0  0  0  0  0  0  0  0  0
    3.8784   -3.4441  -17.6135 C   0  0  0  0  0  0  0  0  0  0  0  0
    4.6160    2.0304  -20.4822 C   0  0  0  0  0  0  0  0  0  0  0  0
    8.6179   -4.0744  -18.2042 C   0  0  0  0  0  0  0  0  0  0  0  0
    4.8510   -4.6233  -17.7974 C   0  0  0  0  0  0  0  0  0  0  0  0
    7.5487   -2.9978  -17.9486 C   0  0  0  0  0  0  0  0  0  0  0  0
    5.9667   -4.6018  -16.7397 C   0  0  0  0  0  0  0  0  0  0  0  0
    4.3538    4.0135  -18.9203 C   0  0  2  0  0  0  0  0  0  0  0  0
    5.3167    2.9280  -19.4409 C   0  0  1  0  0  0  0  0  0  0  0  0
    6.7246    6.8350  -17.7484 N   0  0  0  0  0  0  0  0  0  0  0  0
    5.7602    2.0777  -18.3247 N   0  0  0  0  0  0  0  0  0  0  0  0
    6.7085   -3.3095  -16.7560 N   0  0  0  0  0  0  0  0  0  0  0  0
    4.0096    5.9759  -17.5285 N   0  3  0  0  0  0  0  0  0  0  0  0
    7.8599    2.9442  -18.1340 O   0  0  0  0  0  0  0  0  0  0  0  0
    6.0369   -2.7575  -14.6347 O   0  0  0  0  0  0  0  0  0  0  0  0
    3.7860    4.7260  -20.0212 O   0  0  0  0  0  0  0  0  0  0  0  0
    8.8700    0.2972  -22.2648 F   0  0  0  0  0  0  0  0  0  0  0  0
    5.4689   -2.7902  -20.9199 F   0  0  0  0  0  0  0  0  0  0  0  0
    6.0760   -0.4124  -17.4521 H   0  0  0  0  0  0  0  0  0  0  0  0
    8.7734    2.4927  -15.7511 H   0  0  0  0  0  0  0  0  0  0  0  0
    8.3468   -1.3743  -13.9143 H   0  0  0  0  0  0  0  0  0  0  0  0
    7.1350    2.1451  -21.5597 H   0  0  0  0  0  0  0  0  0  0  0  0
    4.0890   -0.6403  -20.3026 H   0  0  0  0  0  0  0  0  0  0  0  0
    7.8421   -2.0962  -21.8416 H   0  0  0  0  0  0  0  0  0  0  0  0
    5.2982    8.3233  -18.2277 H   0  0  0  0  0  0  0  0  0  0  0  0
    6.1098    8.5290  -16.6385 H   0  0  0  0  0  0  0  0  0  0  0  0
    7.0250    5.0930  -18.9093 H   0  0  0  0  0  0  0  0  0  0  0  0
    5.8434    6.2653  -19.5846 H   0  0  0  0  0  0  0  0  0  0  0  0
    4.8905    6.6045  -15.7148 H   0  0  0  0  0  0  0  0  0  0  0  0
    3.7142    7.7569  -16.4326 H   0  0  0  0  0  0  0  0  0  0  0  0
    5.4523    4.4726  -17.1084 H   0  0  0  0  0  0  0  0  0  0  0  0
    9.0874    1.4780  -12.7787 H   0  0  0  0  0  0  0  0  0  0  0  0
   10.1665    0.1310  -13.2761 H   0  0  0  0  0  0  0  0  0  0  0  0
   10.3356    1.7470  -14.0420 H   0  0  0  0  0  0  0  0  0  0  0  0
   10.2422   -5.0729  -17.1651 H   0  0  0  0  0  0  0  0  0  0  0  0
    9.9931   -3.3605  -16.6835 H   0  0  0  0  0  0  0  0  0  0  0  0
    8.8523   -4.6276  -16.1180 H   0  0  0  0  0  0  0  0  0  0  0  0
    3.0953   -3.4904  -18.3846 H   0  0  0  0  0  0  0  0  0  0  0  0
    3.4157   -3.5025  -16.6173 H   0  0  0  0  0  0  0  0  0  0  0  0
    4.4293   -2.4966  -17.7070 H   0  0  0  0  0  0  0  0  0  0  0  0
    4.3764    2.6294  -21.3732 H   0  0  0  0  0  0  0  0  0  0  0  0
    3.6874    1.6307  -20.0486 H   0  0  0  0  0  0  0  0  0  0  0  0
    9.2611   -3.7515  -19.0361 H   0  0  0  0  0  0  0  0  0  0  0  0
    8.1204   -5.0186  -18.4706 H   0  0  0  0  0  0  0  0  0  0  0  0
    4.2912   -5.5660  -17.7077 H   0  0  0  0  0  0  0  0  0  0  0  0
    5.3048   -4.5601  -18.7974 H   0  0  0  0  0  0  0  0  0  0  0  0
    8.0501   -2.0323  -17.7860 H   0  0  0  0  0  0  0  0  0  0  0  0
    6.8975   -2.9286  -18.8323 H   0  0  0  0  0  0  0  0  0  0  0  0
    5.5193   -4.7449  -15.7450 H   0  0  0  0  0  0  0  0  0  0  0  0
    6.6711   -5.4211  -16.9462 H   0  0  0  0  0  0  0  0  0  0  0  0
    3.5533    3.5147  -18.3542 H   0  0  0  0  0  0  0  0  0  0  0  0
    6.1843    3.4135  -19.9117 H   0  0  0  0  0  0  0  0  0  0  0  0
    7.4573    7.3347  -18.2106 H   0  0  0  0  0  0  0  0  0  0  0  0
    5.1001    1.4359  -17.9345 H   0  0  0  0  0  0  0  0  0  0  0  0
    3.3086    5.4690  -17.0269 H   0  0  0  0  0  0  0  0  0  0  0  0
    3.6009    6.3982  -18.3375 H   0  0  0  0  0  0  0  0  0  0  0  0
    3.3552    4.1142  -20.6066 H   0  0  0  0  0  0  0  0  0  0  0  0
  1  7  1  0  0  0  0
  1  8  2  0  0  0  0
  2  7  2  0  0  0  0
  2  9  1  0  0  0  0
  3  8  1  0  0  0  0
  3  9  2  0  0  0  0
  4 10  1  0  0  0  0
  4 11  2  0  0  0  0
  5 10  2  0  0  0  0
  5 12  1  0  0  0  0
  6 11  1  0  0  0  0
  6 12  2  0  0  0  0
  7 13  1  0  0  0  0
  8 14  1  0  0  0  0
  9 19  1  0  0  0  0
 10 22  1  0  0  0  0
 11 36  1  0  0  0  0
 12 37  1  0  0  0  0
 13 30  1  0  0  0  0
 13 33  2  0  0  0  0
 14 31  1  0  0  0  0
 14 34  2  0  0  0  0
 15 17  1  0  0  0  0
 15 29  1  0  0  0  0
 16 18  1  0  0  0  0
 16 29  1  0  0  0  0
 17 32  1  0  0  0  0
 18 27  1  0  0  0  0
 18 32  1  0  0  0  0
 20 23  1  0  0  0  0
 21 24  1  0  0  0  0
 22 28  1  0  0  0  0
 23 25  1  0  0  0  0
 24 26  1  0  0  0  0
 25 31  1  0  0  0  0
 26 31  1  0  0  0  0
 27 28  1  0  0  0  0
 27 35  1  0  0  0  0
 28 30  1  0  0  0  0
  1 38  1  0  0  0  0
  2 39  1  0  0  0  0
  3 40  1  0  0  0  0
  4 41  1  0  0  0  0
  5 42  1  0  0  0  0
  6 43  1  0  0  0  0
 15 44  1  0  0  0  0
 15 45  1  0  0  0  0
 16 46  1  0  0  0  0
 16 47  1  0  0  0  0
 17 48  1  0  0  0  0
 17 49  1  0  0  0  0
 18 50  1  0  0  0  0
 19 51  1  0  0  0  0
 19 52  1  0  0  0  0
 19 53  1  0  0  0  0
 20 54  1  0  0  0  0
 20 55  1  0  0  0  0
 20 56  1  0  0  0  0
 21 57  1  0  0  0  0
 21 58  1  0  0  0  0
 21 59  1  0  0  0  0
 22 60  1  0  0  0  0
 22 61  1  0  0  0  0
 23 62  1  0  0  0  0
 23 63  1  0  0  0  0
 24 64  1  0  0  0  0
 24 65  1  0  0  0  0
 25 66  1  0  0  0  0
 25 67  1  0  0  0  0
 26 68  1  0  0  0  0
 26 69  1  0  0  0  0
 27 70  1  0  0  0  0
 28 71  1  0  0  0  0
 29 72  1  0  0  0  0
 30 73  1  0  0  0  0
 32 74  1  0  0  0  0
 32 75  1  0  0  0  0
 35 76  1  0  0  0  0
M  CHG  1  32   1
M  END
> <OMEGA_C>
A7TZQInWCr4OoIXB0PYEQYs7wj9blHvBOjwBQTd5LL9cDWvBPI7ZQESBkD/qUqvBn0GiQOse5b6L
raXBcEHmQHWxor/Lp6zBQ2DsQMM+kz+CzIXB1oTlQDWAh7/tNHvBPRYKQU2cHj/zDGvBL3CwQEUa
YT+oEKfB3Xr0QFMfYD39D67B8AW9QDeVwr+FiajBgifhQI7+BkDFOo7BUwzTQHlvGsCiu3rBrcG1
QLWM+UBzt4rBItTGQGxiuUDJTJXB4dOQQEeJ4UCgOYXBuaKhQNaOoEBezo/B1fQZQZW2gj+F/VnB
ltEXQRCaicCDoIfBATd4QAFsXMB26IzB6bWTQAjyAUCS26PBCuMJQaRhgsA4opHBRDubQHbyk8D/
YI7BMI/xQODbP8Ctlo/BL+++QB5Ck8Da6oXBKVKLQFRugEDbXJfBYiKqQA5kO0APh5vBAzDXQKC4
2kCx/I3B6lO4QEb5BEARmZLBDqzWQCvOU8A7DIbBqU6AQHg6v0BKOozBl4T7QINtPEB+EpHBAS7B
QER6MMDjJ2rBJ05yQAo7l0BpK6DBU+sNQfgsmD44HrLBlQGvQMySMsD6W6fBbG7CQOQp077UnYvB
y18MQa6IH0BsBHzBXowFQcTor7/YoF7Bh1HkQK5ICUAqeqzBx9iCQIDrI7+pa6LBGfL6QL4oBsCC
u67B8YqpQCUsBUFt0pHBS4PDQKR2CEGkG4XBoszgQHv5okAsRpfBI/26QKR9yEA6rZzBmH6cQE5Y
00D8b3vBabVtQJc4+EDfdYPBDXmuQMcfj0AW3ojB6WURQSgvvT+CdUzBHqoiQWIkBj7MalTBlV4l
QT6d3z8ZrGDBKOAjQWhVosAcUonBnOMfQWISV8Dmd4XBN6MNQYgVlMC88YDB0hhGQOhhX8C3E5PB
NZpaQMkoYMAn8ITBnLyNQCTIH8DXp43BjwuMQDtIKEBA/KrBZf5rQNK60D+CY6DBgy0UQUMYcMDq
SZjBH+0BQXiYoMDAw5PBtlGJQNAcssBVqY3BN8GpQH3skcAEYZbBPc0AQQYRAsDMSY7B7rfcQIBt
O8CiqJbBSJ6wQNPVl8B663vBcnnVQKF5rcC/kYfBrGljQD7xYEBh1ZLBbeXFQFZ2WkA7S5/B6KHu
QHi16kA5r5HB7jOjQNDLtz/geY/BYr9TQMgBr0AWN4jBY3RmQG2+zEAys5LB7btWQI2ng0BE2qTB
sr3ZQLORDL6WwIXBZiwFQc3CwD8F3XvBwWgBQdF5ML/teWvBRILZQKysjj9DaavBNP6hQHYV6L7P
vqXBquflQCXPpL/pr6zBxIrsQB7Okj8r6IXBWKrlQKCKiL8XlXvBBVgKQUsFGj8Fb2vBBFywQFoF
Xz9LJafB8kr0QOvZEj15Ia7B/py8QAvaw7/5lKjBXDPhQGIZB0D6So7BpP7SQI/IGsCnJHvBvNi1
QKHN+EBdgorBaJnGQMdSuUChZZXBlluRQCJB4ECB+4TBYMKhQOAdoEBH3I/BmVgaQTEPfj98blrB
03p3QFvEWMCb8ozBLa0XQUQMiMAkSIfBEL6TQNKiAUCs86PB6MmZQJr0ksCifo7BoTEKQTkhgsDF
fZHBPA++QHcQk8DSLobB2DXxQFqqQMDI0o/BtFKLQFsjgEBPbJfBpiyqQAICO0C4npvBFDzXQJZb
2kCTCI7BhHO4QMOXBECqs5LBkh7WQB7aU8CwTIbB/oqAQIKBvkBZGozBqGz7QO/zPEAVGJHB/EDB
QE3hMMBDiWrBaRlyQM0Hl0D6MqDB/9ENQX7Yij6AOLLBwGGuQDoMM8AyZqfBE0fCQGzO0L4at4vB
M6QMQcCwHkByRnzBw7wFQb9wsr8mHl/B5WbkQHRCCEB/lazB5oqCQIMhJL98fqLBpYT6QFhuB8D3
ua7B/SGpQEYBBUFOf5HB1dPDQGXvB0Hv2oTBPojgQEkXo0CahZfBB1e6QFrAyEBVsJzB0IydQFB8
0UChMnvBCN1uQCez9kAu/4LBgQOvQFd9jkB6AInBWecRQRIyuT+ozkzBAwUjQRICyD00/lTBK8Yl
QXvO2z9uHWHBzYFEQFaqWsBLA5PB+dFaQEttW8Cx6oTBpRiOQGIXHcBVzo3BbRYkQfhWoMCytojB
Q0wfQYD4UsC7JoXBSEUNQZ+JksDZr4DBDy6MQLH6J0D4FavBwO9rQCmD0D8CfqDB+ySHQL6gsMCQ
qo3Bo9SnQMl1kcA0jpbBY7YUQf2Rb8BDDpjBaK8CQV7WoMBhl5PBMUCwQPfnl8DQW3zBKD3UQG1m
rcAgA4jBvjAAQYzGAcDCs47BhrPcQBb9PsDo+JbBiI1jQNkyYEAp45LBauLFQOQ9WkCgY5/BI1Tu
QJ+z6kB3xZHB62+jQKk6tj/YnY/B8mVUQFsHrkDZH4jBi5tmQMV9zED2fZLB/WFWQOmBg0Dz4aTB
F3HeQESbFD1qgYXB2sAFQdmo3D9UbXrBHagCQZba+r7NQ2rBUBTcQCAzkj8xMqvBpCmmQCjX+L5g
p6XBdv3qQKVCn793mqzBDD/vQKn9qj/ac4XBFHvqQFLWYr/qHnvB0ccKQQVDUj+0zmnBQTCzQIjk
Wj+M9KbBRgX4QKKXwD3r7q3BqPrBQGxGxL8KiKjBW0TjQO+1EEDhCI7Bo17aQGf3D8CEYHzBO8Oy
QFwj+EBb24nBlofEQGd9ukDhRJXB3yWOQOh33kBcsITBWl+gQK3Yn0Ao54/BlfUZQUVWnT9NN1jB
mFx5QMjEqMAgTY3BPPYNQQv+mcA8v4fBt16VQHGu/T/zxaPBzoGoQK9rmcDym4nBW9AQQSpWWMBQ
CYzBsaCqQOCeUsBYS4vB5E33QLFwM8DrbZDBcymLQOEJf0A8lpfB4TqrQEO8O0ATtZvBFKLUQBac
2kCtlo3BA/O6QF2mCECippLB6rzUQGuzM8CDSojBArN8QO8uvUDgGIzB8v/8QDiBRkBfGZHBEpzI
QO3jLsBSrGzBikFxQCEjlkAZXqDB9aUPQSRKvz484bHBy0i1QBtZNMClbafB3ibIQNYuhL6BrIvB
wrkMQXaSLUAliHrB3LcGQVoOmL86uF3BbuTlQES+CkBVVqzB+N2GQO9/Nb+Yc6LBRTkAQfciA8DJ
tK7BQj6mQPMtBUFstJDBw0TAQAMxB0Fp7oPBcNLeQFgbpUDGpZfBFMq3QG3OykDpYpzBY/GZQNMf
z0BDrXrBG31nQOVX9EDcsoLBQPutQOhPjkCsEonBeNQQQeI21D/Q0krBNt4iQbzOsT5rn1LBrEEl
QTdp/T+IX17BXpB0QJSXy8CMKozBcVRHQL26mMCZlYjBLNpwQCsQocBb0pXBZl0dQVrmpcD/s4TB
HCECQTfmmcCNO4HB51gIQcDtrsCHPY7BUWGMQMtBI0AW9qrBlfBwQMgyxz9aFKDBUeusQEXpoMDu
FIHBLq7BQLM+qcCwUY7B84UWQRYdL8C3f4XBvr0cQSksWcCygZLBlaWkQCveQ8CcxJPBLTuSQLAq
M8DwUIbBkeD8QHZQ4r8ADJPBNAntQJZJWsABTpfB7r1jQJ5PXUBQJpPBlgzGQJxwXEDNrZ/B4KHr
QE2960BnI5HBCSynQOWLuT+0ko/BCR9QQIflq0C3UYjBNIhiQBmYy0B2cpLB/wxXQMFegkBZH6XB
OKjcQJzmVb4aXIXBn6kGQVQMvj/mjXzBNLIDQSF5Lb9X2mrBVYfWQEimjj+GTKvB35qgQIJ6/b7O
ZqXBiw7jQHLSor90iq3B2NPuQLociz9a9IXB92vpQJiYjL/8SnrBTGwMQQSpHj8fzmvB5jCuQMDc
Vj/8rabB2BnxQNjObj0zm67BKua6QAQsxr846qjBwgjiQJp6AkDLXI7BVC7UQL4OGsB1xHfBK9i2
QMvl+UBShIvBva7GQClUuEDIvJXBVFSTQKFE4kD+Y4XB32aiQFgmoEBZsI/BdXYcQfTDiT/YQVvB
I+SOQAqrXsAbuo7B8rABQfx+MsD+rpbB/nKRQFRf/D9zHaPBCjaVQGn0jsAQcoXBcG8LQRQTfMB5
O5DBJPvEQFj+l8CZpILBC7MHQSBob8BoMITB2cuKQCZmfkCkxZbBTvCoQGQjOEACDZvB2/HXQHzu
2kBR647Bi0a4QP/7AUAmK5LBb1jhQER7Y8AOkYHBgquBQAczv0DA9ovBgvv7QOJiN0BXlpHBkuG0
QFBtHMDJ/WvBi9VtQMk6lUAre5/BvfALQUrYpD6M6bLBwnytQMXcNMBq7afBcBLFQBWhBL+pK4vB
4vYNQWOCHUDirH3B9IEIQeYTrb+kPl7Be/DgQPDBCECwSazBqRGCQMlNNb9zu6HBdxj3QN1OBcAg
RrDBcxepQJTKBEHmmpLByGPFQIgVCUFGSIbBbn3gQNO9oUAZuJfB17a5QNMyxkCzJZ3BZamgQPbm
1EAx7XvBcy9zQNH1+EAqbYPBxWewQKR3j0CdxojB6wAUQeflxj8Q2U3BWIMlQfmPVT5UVVXBQI4n
QdY85j87i2LB7/NYQGWEVcDPLZDBYJmdQH7iIMC6qIzBqhWeQP1ReMAS/ZXBO5gEQRguPcB3Qp/B
qLfgQAqmL8B3MpXBOR0JQRqF67+MOpTBTxeIQFNfJEDIIKrBElRpQP33xj8sTp/Bn3iFQBG7gcDF
mnzB6PSFQNFyrcC8oYfBEP4DQbtNnMDxv5LBdL8cQfi3fsAGyJHBs7XFQHNhqcC9/HXBQ0jSQEJm
rMDm/ojBSasNQTQKlMDPz3/Ba5kQQZd4NsC7i4HBFS1kQC1dX0Bl2ZHBCUrEQEeaVkDuEp/BtHbu
QEyg6kASCJPBs1CjQEgGtT8WrY7Bd/dXQHtrr0CXmYfB/edmQAP8y0D5YJLBjJpQQPw8gUCj46PB

> <OMEGA_E>
oNSOPqCqjD7Yo+8+iFj0Pg==

> <OMEGA_NBR>
      5042

$$$$
50147873
  -OEChem-04172616093D

 77 79  0     1  0  0  0  0  0999 V2000
    6.8203   -0.1231  -16.7130 C   0  0  0  0  0  0  0  0  0  0  0  0
    8.3436    1.5127  -15.7293 C   0  0  0  0  0  0  0  0  0  0  0  0
    8.0854   -0.6793  -14.7014 C   0  0  0  0  0  0  0  0  0  0  0  0
    6.8184    1.1347  -21.4196 C   0  0  0  0  0  0  0  0  0  0  0  0
    5.1014   -0.4559  -20.7186 C   0  0  0  0  0  0  0  0  0  0  0  0
    7.2269   -1.2617  -21.6064 C   0  0  0  0  0  0  0  0  0  0  0  0
    7.4160    1.1581  -16.7307 C   0  0  0  0  0  0  0  0  0  0  0  0
    7.1785   -1.0534  -15.7137 C   0  0  0  0  0  0  0  0  0  0  0  0
    8.6535    0.6084  -14.6986 C   0  0  0  0  0  0  0  0  0  0  0  0
    5.5372    0.8747  -20.8831 C   0  0  0  0  0  0  0  0  0  0  0  0
    7.6645    0.0676  -21.7722 C   0  0  0  0  0  0  0  0  0  0  0  0
    5.9411   -1.5215  -21.0902 C   0  0  0  0  0  0  0  0  0  0  0  0
    7.0628    2.1259  -17.7759 C   0  0  0  0  0  0  0  0  0  0  0  0
    6.5860   -2.4030  -15.6910 C   0  0  0  0  0  0  0  0  0  0  0  0
    6.7488    6.9552  -17.8429 C   0  0  0  0  0  0  0  0  0  0  0  0
    5.5983    7.8651  -17.3817 C   0  0  0  0  0  0  0  0  0  0  0  0
    6.1961    5.8361  -18.7405 C   0  0  0  0  0  0  0  0  0  0  0  0
    4.5369    7.0335  -16.6441 C   0  0  0  0  0  0  0  0  0  0  0  0
    5.0832    5.0338  -17.9979 C   0  0  2  0  0  0  0  0  0  0  0  0
    9.6516    0.9973  -13.6330 C   0  0  0  0  0  0  0  0  0  0  0  0
    3.8474   -3.4136  -17.6368 C   0  0  0  0  0  0  0  0  0  0  0  0
    9.4566   -4.2918  -16.9323 C   0  0  0  0  0  0  0  0  0  0  0  0
    4.6337    2.0189  -20.4732 C   0  0  0  0  0  0  0  0  0  0  0  0
    4.8166   -4.5940  -17.8287 C   0  0  0  0  0  0  0  0  0  0  0  0
    8.6107   -4.0681  -18.2004 C   0  0  0  0  0  0  0  0  0  0  0  0
    5.9319   -4.5811  -16.7706 C   0  0  0  0  0  0  0  0  0  0  0  0
    7.5348   -2.9924  -17.9700 C   0  0  0  0  0  0  0  0  0  0  0  0
    4.3738    4.0019  -18.9055 C   0  0  2  0  0  0  0  0  0  0  0  0
    5.3372    2.9240  -19.4392 C   0  0  1  0  0  0  0  0  0  0  0  0
    5.7917    2.0774  -18.3282 N   0  0  0  0  0  0  0  0  0  0  0  0
    6.6825   -3.2933  -16.7836 N   0  0  0  0  0  0  0  0  0  0  0  0
    4.0297    5.9573  -17.5144 N   0  3  0  0  0  0  0  0  0  0  0  0
    7.8725    2.9816  -18.1151 O   0  0  0  0  0  0  0  0  0  0  0  0
    6.0305   -2.7499  -14.6542 O   0  0  0  0  0  0  0  0  0  0  0  0
    3.7582    4.6855  -19.9986 O   0  0  0  0  0  0  0  0  0  0  0  0
    8.8918    0.3206  -22.2803 F   0  0  0  0  0  0  0  0  0  0  0  0
    5.5087   -2.7951  -20.9569 F   0  0  0  0  0  0  0  0  0  0  0  0
    6.0914   -0.3903  -17.4638 H   0  0  0  0  0  0  0  0  0  0  0  0
    8.8177    2.4828  -15.7545 H   0  0  0  0  0  0  0  0  0  0  0  0
    8.3453   -1.3836  -13.9250 H   0  0  0  0  0  0  0  0  0  0  0  0
    7.1483    2.1536  -21.5590 H   0  0  0  0  0  0  0  0  0  0  0  0
    4.1232   -0.6570  -20.3074 H   0  0  0  0  0  0  0  0  0  0  0  0
    7.8768   -2.0814  -21.8748 H   0  0  0  0  0  0  0  0  0  0  0  0
    7.4810    7.5499  -18.4088 H   0  0  0  0  0  0  0  0  0  0  0  0
    7.2383    6.5108  -16.9638 H   0  0  0  0  0  0  0  0  0  0  0  0
    5.9926    8.6368  -16.7042 H   0  0  0  0  0  0  0  0  0  0  0  0
    5.1400    8.3463  -18.2584 H   0  0  0  0  0  0  0  0  0  0  0  0
    5.7728    6.2809  -19.6532 H   0  0  0  0  0  0  0  0  0  0  0  0
    7.0146    5.1528  -19.0111 H   0  0  0  0  0  0  0  0  0  0  0  0
    4.9862    6.5896  -15.7434 H   0  0  0  0  0  0  0  0  0  0  0  0
    3.7020    7.6878  -16.3530 H   0  0  0  0  0  0  0  0  0  0  0  0
    5.5363    4.5069  -17.1452 H   0  0  0  0  0  0  0  0  0  0  0  0
    9.1231    1.4586  -12.7857 H   0  0  0  0  0  0  0  0  0  0  0  0
   10.1864    0.1004  -13.2869 H   0  0  0  0  0  0  0  0  0  0  0  0
   10.3724    1.7157  -14.0505 H   0  0  0  0  0  0  0  0  0  0  0  0
    3.0639   -3.4527  -18.4080 H   0  0  0  0  0  0  0  0  0  0  0  0
    3.3848   -3.4773  -16.6409 H   0  0  0  0  0  0  0  0  0  0  0  0
    4.4008   -2.4670  -17.7242 H   0  0  0  0  0  0  0  0  0  0  0  0
   10.2148   -5.0644  -17.1283 H   0  0  0  0  0  0  0  0  0  0  0  0
    9.9549   -3.3516  -16.6535 H   0  0  0  0  0  0  0  0  0  0  0  0
    8.8041   -4.6190  -16.1094 H   0  0  0  0  0  0  0  0  0  0  0  0
    4.3798    2.6152  -21.3620 H   0  0  0  0  0  0  0  0  0  0  0  0
    3.7132    1.6115  -20.0297 H   0  0  0  0  0  0  0  0  0  0  0  0
    4.2546   -5.5359  -17.7450 H   0  0  0  0  0  0  0  0  0  0  0  0
    5.2706   -4.5255  -18.8283 H   0  0  0  0  0  0  0  0  0  0  0  0
    9.2705   -3.7459  -19.0195 H   0  0  0  0  0  0  0  0  0  0  0  0
    8.1197   -5.0133  -18.4754 H   0  0  0  0  0  0  0  0  0  0  0  0
    5.4831   -4.7233  -15.7765 H   0  0  0  0  0  0  0  0  0  0  0  0
    6.6312   -5.4045  -16.9784 H   0  0  0  0  0  0  0  0  0  0  0  0
    8.0309   -2.0231  -17.8131 H   0  0  0  0  0  0  0  0  0  0  0  0
    6.8935   -2.9359  -18.8619 H   0  0  0  0  0  0  0  0  0  0  0  0
    3.6006    3.4993  -18.3060 H   0  0  0  0  0  0  0  0  0  0  0  0
    6.1978    3.4147  -19.9172 H   0  0  0  0  0  0  0  0  0  0  0  0
    5.1409    1.4223  -17.9444 H   0  0  0  0  0  0  0  0  0  0  0  0
    3.3566    5.4262  -16.9997 H   0  0  0  0  0  0  0  0  0  0  0  0
    3.5880    6.3753  -18.3082 H   0  0  0  0  0  0  0  0  0  0  0  0
    3.3205    4.0564  -20.5600 H   0  0  0  0  0  0  0  0  0  0  0  0
  1  7  1  0  0  0  0
  1  8  2  0  0  0  0
  2  7  2  0  0  0  0
  2  9  1  0  0  0  0
  3  8  1  0  0  0  0
  3  9  2  0  0  0  0
  4 10  1  0  0  0  0
  4 11  2  0  0  0  0
  5 10  2  0  0  0  0
  5 12  1  0  0  0  0
  6 11  1  0  0  0  0
  6 12  2  0  0  0  0
  7 13  1  0  0  0  0
  8 14  1  0  0  0  0
  9 20  1  0  0  0  0
 10 23  1  0  0  0  0
 11 36  1  0  0  0  0
 12 37  1  0  0  0  0
 13 30  1  0  0  0  0
 13 33  2  0  0  0  0
 14 31  1  0  0  0  0
 14 34  2  0  0  0  0
 15 16  1  0  0  0  0
 15 17  1  0  0  0  0
 16 18  1  0  0  0  0
 17 19  1  0  0  0  0
 18 32  1  0  0  0  0
 19 28  1  0  0  0  0
 19 32  1  0  0  0  0
 21 24  1  0  0  0  0
 22 25  1  0  0  0  0
 23 29  1  0  0  0  0
 24 26  1  0  0  0  0
 25 27  1  0  0  0  0
 26 31  1  0  0  0  0
 27 31  1  0  0  0  0
 28 29  1  0  0  0  0
 28 35  1  0  0  0  0
 29 30  1  0  0  0  0
  1 38  1  0  0  0  0
  2 39  1  0  0  0  0
  3 40  1  0  0  0  0
  4 41  1  0  0  0  0
  5 42  1  0  0  0  0
  6 43  1  0  0  0  0
 15 44  1  0  0  0  0
 15 45  1  0  0  0  0
 16 46  1  0  0  0  0
 16 47  1  0  0  0  0
 17 48  1  0  0  0  0
 17 49  1  0  0  0  0
 18 50  1  0  0  0  0
 18 51  1  0  0  0  0
 19 52  1  0  0  0  0
 20 53  1  0  0  0  0
 20 54  1  0  0  0  0
 20 55  1  0  0  0  0
 21 56  1  0  0  0  0
 21 57  1  0  0  0  0
 21 58  1  0  0  0  0
 22 59  1  0  0  0  0
 22 60  1  0  0  0  0
 22 61  1  0  0  0  0
 23 62  1  0  0  0  0
 23 63  1  0  0  0  0
 24 64  1  0  0  0  0
 24 65  1  0  0  0  0
 25 66  1  0  0  0  0
 25 67  1  0  0  0  0
 26 68  1  0  0  0  0
 26 69  1  0  0  0  0
 27 70  1  0  0  0  0
 27 71  1  0  0  0  0
 28 72  1  0  0  0  0
 29 73  1  0  0  0  0
 30 74  1  0  0  0  0
 32 75  1  0  0  0  0
 32 76  1  0  0  0  0
 35 77  1  0  0  0  0
M  CHG  1  32   1
M  END
> <OMEGA_C>
GkDaQN4G/L1QtIXBTH8FQeegwT9Uq3vBuF0BQTroLb8dOWvBNDDaQHc+kT9MW6vBhj6jQCZs6b6r
v6XBFkPnQE5+ob/S2azB0U/tQLg7lD9g2IXBB7blQKfUhr9xa3vBvXQKQQ3DGz9rLWvBcjCxQNbp
Xz+jEKfBP0P1QDuGij10La7B4B2+QLTAwr+luKjBTgLiQBkOCEAiNY7BgcDSQOTKGcBHDnvBFPbX
QCqR3kA9vo7B3ySzQCmv+0DNDYvBuUbGQGnBukCA7JXBmi6RQHcS4UAbJ4XB6qmiQK8UoUCw+4/B
5mwaQexLfz/BIFrBETt2QGF4WsA/GI3BOU4XQcFWicBtdYfBaUeUQNk1AUADyaPBPyGaQPsBk8A1
oY7BVsUJQR0ugsBwmpHBX9K9QKiYksBKKobBex3xQL6CP8B5wo/BNvaLQMgPgECGPpfBIMqqQKgi
O0CGg5vBc1W5QJX0BEAooJLBENfVQGrFUsDkRIbBS/OAQCmivkB3HYzBvev7QKDSPkC365DBlvnA
QNf+L8Ced2rBnYZwQNLvlUAk/Z/BvUQOQXInpD4cPrLBRkewQJjiMsChp6fBq+zCQFbbx77VtYvB
JhUNQd/lHkBTEnzBW4YFQYoasb/1zF7Bw77kQLTUCUDGeKzBEPGDQLIzKL+ZdaLBwQ78QFw2BcCK
/67BQmTvQK+Y8UA5RZPBkKDnQBNY0EDjtYfBx8O/QDEwCkE+ooXBNXukQJ2KBUEkEZLBK7u4QDX9
yECrOZ3BMnfgQJ7jpEDUFpjBnI6fQDDe0kAm5XvBR+1sQH8C9kDw0oLBuimxQEs4kEBkKYnBWvgR
Qee0uj9fkkzBTfsiQZGyzT1Xl1TBOPUlQU2b2z8Bz2DBcBdEQF74XMCgQ5PBLaBYQG2MXsB/IIXB
U9OMQBvjHcAmy43BrW8jQUMPosCzBonBIkcfQRyBVsBuOoXBft0MQSHPk8Ai4IDBuCeMQJ1fJ0BK
5arBe6RtQPZFzj/sPKDBUCWIQN8lscC49Y3BjKioQDbRkMBfoJbB0VMUQXO8b8DYJ5jBLeoBQc1s
oMCNzZPB73WvQPkkl8BrbHzBmTLUQHvxrMDE04fBdH4AQUd7AcBAgY7BdpfcQEnmO8AS5ZbBRnBm
QOHzX0CacpLBm1TGQBiKWkCAVp/BZ4KkQCQOtj8Ujo/ByNJWQKejrUBX/4fBh6JlQLQCzEBCd5LB
ooNUQFPOgUDpeqTBsQ7dQPDFcr0OlIXBNukFQXzyzz9nR3vBTMMCQQI5Er/OzmrBtwLcQM6olj/N
VavBIyGmQPyO476lpaXBX97qQBYHm7/ylazBfc7uQC1nnj8mt4XBPV7pQLR9eb8LJnvB3iILQcyN
Oz8prWrB4iGzQOzSZD+hEKfB6eP3QChfAD4nCa7BFe3BQJhFv79IcajBxNDiQMzwC0B3JI7BgBvW
QE63E8DaFXrBEvLVQFXK3kDnJI7BAquwQDBi+0BZe4rBOgfFQI1uu0AJlJXBNVKOQNkf4EB+6YTB
8E6hQAMDoUBK5Y/BX4MaQdxgkz8eSVnB/5UTQSrNlcAbdIjBgDF7QLzqkcC8YJPBenqVQFhgAUB/
16PBtUMQQapcUsCNaY3BrseMQCZZccAepYnBJe3wQOz3P8DZeo/B80O4QBUgisBT0IXBYaOLQD0E
gEBSWpfBLUKrQK4wPECei5vBkTC6QI30BkCcl5LBF7DWQEUFTcDotYXBSgF+QEoXvkDpIIzBDYD8
QGiUQkDQA5HBuiTDQOWYJsDGjWnBkM1wQJgflkBkH6DB+48PQRB9zD7qCLLBgmG1QFadMcDHF6fB
7BLGQORjs76OmIvBSgYNQT7yJkDnqXvBYCUHQYIOor+xU17B4trlQMLlDEC1hqzB2dmGQLjZKb/E
aqLB2iIAQVk1AcB3pq7BgZLtQOVR8kBWeJLBjjHlQIAe0ECWHIfB4La8QGTQCUGF24TBi4aiQI6t
BUFAe5HBLcu3QEkkykAz25zBk4jfQN/3pUBVwZfBNBacQFB80UCwX3vBt3tmQJC39EAQp4LBXnav
QK0QkEDPConBW4cRQZTcyz8/5kvBSmwjQQQ/iz5BmFPBxMslQSCA8j/rsV/BbMIkQdY9m8AvF4fB
QP4KQRKvl8C+yYDBUV8NQR5crsBz8I3B5xk9QAlShcCME5bBRS+VQLXIjsDV3JnBpTp0QJXbs8C3
NpHBnC2NQGcrJ0Bp+KrB71twQDWEzD++VaDB25kWQSu5IcAw5YfB7foYQUMTT8DlC5XBQTiQQGN6
LcCn0YvBnUxqQCKgd8CJK4PB3HDtQF1w+r9II5LBnlrlQKY4a8CqypXBcAy1QB9+l8D2bHvBf4LD
QBI3o8AGT4vBYWhlQDHbXkCCupLBy4/GQOWgXEBPV5/BSb2lQF+8uD+fgY/BrEZSQMOxrEChOojB
Te5iQALVy0AEg5LBeP9VQPASgkDqv6TBDZvcQABDhb58f4XBg20GQcBQtz+CZnzBJbEDQcvvPr+5
LmvBNZXWQPatkj+ZZKvB0BehQIIo7L4UNaXBGXTjQOD7nr+wW63BwXbuQNCXhT/Z74XBlajpQNIH
lb/lv3rBMkMMQTQ3Dj9M12vB7GeuQIFJXz+Gr6bBNkHxQMgZtD1SnK7BGIa7QCoRwr9/m6jBArLh
QMAlAUAJO47BSBvVQGtJH8D2ZXjBMabYQGxI30Dqd4/BGDm0QGsa/UCa4IvBBnTGQNI5ukDiLpbB
ErOSQBiI40Brj4XBL/KiQMzUoUBX3o/BqkIcQWxxgD++MFvBdmCNQIzzXsBBdo7Bo94CQcNqLcDq
q5bBs8qRQA1YAECOHqPBUnSVQLtykMByk4XBEvALQXk6e8A1y5DBUbHFQFXPmcBJiIPB7QsIQZuX
c8BetoTBZkCLQPcWgED5tZbBcDipQKpLOUCZ7JrBZu+3QK4jAkBvC5LB0g7iQDOAZ8D0J4LBCMGB
QOJGwEDLI4zBvKf7QCOyNkClSpHBR7y3QCynJMDFfmvBKpptQMxGlUB/eZ/B9/cLQSpwsj5h+7LB
3ImuQAfTMsCOXKfBexfFQJKCEL/vV4vBCaQNQQZeGkAmSn3BiYkIQfOktr9srV7B38rgQDbCCkCa
hKzBG6uCQFUTLL/5eKHBGIT3QNCBA8B+C7DBL7DvQHGE8UCBUJTBCOnoQAg90kCvYIjBEVrBQJVH
C0EUw4bBHQqlQIK8BUEU9ZLBda24QL0qx0Bfm53BW3LgQEbYo0C3KJjBsaShQK0/1kCeonzBLpBw
QMPo+EBjRIPBkbOxQDbNkUDr9IjBocETQfefuz9WrE3BjGUlQdc/CT4fd1XB+EcnQYxH3j/yT2LB
bXVVQFo1VcD9bI/B3p+cQArlIcCYTYzBgACbQKGCdsDOBZbBDdEFQXAbNMCRTp/BdhfjQHIoKcCB
NpXBqLgKQUwA5r97uJPBct2IQAszJ0AsHKrBY4FpQCaYyz8rap/B9EyHQEtIhMDGOnzBlq2FQBaX
rsCa1YfB0BIEQW28msAPypPBvD8dQY9Qf8AKTJLBXQfIQIE8rcAwb3jBeM3RQAtUrMBdYIrBxLkN
Qacvl8AKyoDBdBYRQWNnPMDgpIHB77JlQN/IYUDxoZHBU+/EQMlPV0DP157B95iiQNOatj98lY7B
16JYQM4ZsEAPyofBdrRmQN/czEC6jZLBUkFQQCvUgEDCvKPB

> <OMEGA_E>
INIgPgxCpD7QPcE+

> <OMEGA_NBR>
      8962

$$$$
50209141
  -OEChem-04172616093D

 88 91  0     1  0  0  0  0  0999 V2000
    6.8810   -0.0515  -16.7108 C   0  0  0  0  0  0  0  0  0  0  0  0
    8.4652    1.5532  -15.7765 C   0  0  0  0  0  0  0  0  0  0  0  0
    8.1731   -0.6263  -14.7245 C   0  0  0  0  0  0  0  0  0  0  0  0
    6.8565    1.1199  -21.4559 C   0  0  0  0  0  0  0  0  0  0  0  0
    5.1272   -0.4502  -20.7346 C   0  0  0  0  0  0  0  0  0  0  0  0
    7.2357   -1.2809  -21.6319 C   0  0  0  0  0  0  0  0  0  0  0  0
    7.5044    1.2139  -16.7540 C   0  0  0  0  0  0  0  0  0  0  0  0
    7.2344   -0.9816  -15.7135 C   0  0  0  0  0  0  0  0  0  0  0  0
    8.7763    0.6459  -14.7452 C   0  0  0  0  0  0  0  0  0  0  0  0
    5.5758    0.8706  -20.9145 C   0  0  0  0  0  0  0  0  0  0  0  0
    7.6893    0.0425  -21.8053 C   0  0  0  0  0  0  0  0  0  0  0  0
    5.9501   -1.5237  -21.1063 C   0  0  0  0  0  0  0  0  0  0  0  0
    7.1364    2.1727  -17.8049 C   0  0  0  0  0  0  0  0  0  0  0  0
    6.5990   -2.3094  -15.6751 C   0  0  0  0  0  0  0  0  0  0  0  0
    9.7591    9.5887  -19.5095 C   0  0  0  0  0  0  0  0  0  0  0  0
   10.5508    9.7397  -18.1958 C   0  0  0  0  0  0  0  0  0  0  0  0
    5.5625    7.7208  -17.3077 C   0  0  0  0  0  0  0  0  0  0  0  0
    6.1135    5.7495  -18.7386 C   0  0  0  0  0  0  0  0  0  0  0  0
    4.4885    6.8973  -16.5968 C   0  0  0  0  0  0  0  0  0  0  0  0
    9.7731    8.4667  -18.4780 C   0  0  0  0  0  0  0  0  0  0  0  0
    6.6748    6.7705  -17.7849 C   0  0  1  0  0  0  0  0  0  0  0  0
    5.0344    4.9339  -18.0041 C   0  0  2  0  0  0  0  0  0  0  0  0
    9.8077    1.0114  -13.7023 C   0  0  0  0  0  0  0  0  0  0  0  0
    9.3500   -4.3124  -16.9563 C   0  0  0  0  0  0  0  0  0  0  0  0
    3.7938   -3.1352  -17.6036 C   0  0  0  0  0  0  0  0  0  0  0  0
    4.6786    2.0106  -20.5185 C   0  0  0  0  0  0  0  0  0  0  0  0
    8.5154    8.2428  -17.6825 C   0  0  0  0  0  0  0  0  0  0  0  0
    8.5038   -4.0492  -18.2164 C   0  0  0  0  0  0  0  0  0  0  0  0
    4.6789   -4.3796  -17.8028 C   0  0  0  0  0  0  0  0  0  0  0  0
    7.4794   -2.9283  -17.9725 C   0  0  0  0  0  0  0  0  0  0  0  0
    5.8100   -4.4381  -16.7625 C   0  0  0  0  0  0  0  0  0  0  0  0
    4.3657    3.9347  -18.9469 C   0  0  2  0  0  0  0  0  0  0  0  0
    5.3742    2.9059  -19.4849 C   0  0  1  0  0  0  0  0  0  0  0  0
    5.8698    2.0774  -18.3737 N   0  0  0  0  0  0  0  0  0  0  0  0
    6.6291   -3.1935  -16.7763 N   0  0  0  0  0  0  0  0  0  0  0  0
    3.9801    5.8418  -17.4933 N   0  3  0  0  0  0  0  0  0  0  0  0
    7.9341    3.0372  -18.1504 O   0  0  0  0  0  0  0  0  0  0  0  0
    6.0421   -2.6320  -14.6314 O   0  0  0  0  0  0  0  0  0  0  0  0
    3.7650    4.6511  -20.0283 O   0  0  0  0  0  0  0  0  0  0  0  0
    7.6670    7.4659  -18.5072 O   0  0  0  0  0  0  0  0  0  0  0  0
    8.9184    0.2789  -22.3168 F   0  0  0  0  0  0  0  0  0  0  0  0
    5.4995   -2.7887  -20.9624 F   0  0  0  0  0  0  0  0  0  0  0  0
    6.1308   -0.3075  -17.4444 H   0  0  0  0  0  0  0  0  0  0  0  0
    8.9628    2.5107  -15.8198 H   0  0  0  0  0  0  0  0  0  0  0  0
    8.4307   -1.3318  -13.9484 H   0  0  0  0  0  0  0  0  0  0  0  0
    7.1949    2.1352  -21.6009 H   0  0  0  0  0  0  0  0  0  0  0  0
    4.1515   -0.6375  -20.3113 H   0  0  0  0  0  0  0  0  0  0  0  0
    7.8735   -2.1096  -21.9019 H   0  0  0  0  0  0  0  0  0  0  0  0
    8.8438   10.1766  -19.6728 H   0  0  0  0  0  0  0  0  0  0  0  0
   10.2920    9.4673  -20.4640 H   0  0  0  0  0  0  0  0  0  0  0  0
   11.6506    9.7280  -18.2112 H   0  0  0  0  0  0  0  0  0  0  0  0
   10.2024   10.4373  -17.4200 H   0  0  0  0  0  0  0  0  0  0  0  0
    5.1210    8.2381  -18.1723 H   0  0  0  0  0  0  0  0  0  0  0  0
    5.9820    8.4623  -16.6118 H   0  0  0  0  0  0  0  0  0  0  0  0
    5.6676    6.2581  -19.6060 H   0  0  0  0  0  0  0  0  0  0  0  0
    6.9167    5.0796  -19.0793 H   0  0  0  0  0  0  0  0  0  0  0  0
    4.9216    6.4335  -15.6982 H   0  0  0  0  0  0  0  0  0  0  0  0
    3.6583    7.5573  -16.3049 H   0  0  0  0  0  0  0  0  0  0  0  0
   10.3648    7.5749  -18.7321 H   0  0  0  0  0  0  0  0  0  0  0  0
    7.1096    6.2594  -16.9133 H   0  0  0  0  0  0  0  0  0  0  0  0
    5.4989    4.3906  -17.1680 H   0  0  0  0  0  0  0  0  0  0  0  0
    9.3105    1.4913  -12.8464 H   0  0  0  0  0  0  0  0  0  0  0  0
   10.3243    0.1015  -13.3630 H   0  0  0  0  0  0  0  0  0  0  0  0
   10.5393    1.7074  -14.1385 H   0  0  0  0  0  0  0  0  0  0  0  0
   10.0719   -5.1169  -17.1602 H   0  0  0  0  0  0  0  0  0  0  0  0
    9.8913   -3.3954  -16.6802 H   0  0  0  0  0  0  0  0  0  0  0  0
    8.6909   -4.6124  -16.1283 H   0  0  0  0  0  0  0  0  0  0  0  0
    2.9976   -3.1257  -18.3626 H   0  0  0  0  0  0  0  0  0  0  0  0
    3.3436   -3.1624  -16.6004 H   0  0  0  0  0  0  0  0  0  0  0  0
    4.4081   -2.2284  -17.7054 H   0  0  0  0  0  0  0  0  0  0  0  0
    4.4363    2.6075  -21.4101 H   0  0  0  0  0  0  0  0  0  0  0  0
    3.7518    1.6080  -20.0837 H   0  0  0  0  0  0  0  0  0  0  0  0
    8.7428    7.7031  -16.7514 H   0  0  0  0  0  0  0  0  0  0  0  0
    8.0388    9.2046  -17.4418 H   0  0  0  0  0  0  0  0  0  0  0  0
    9.1695   -3.7541  -19.0408 H   0  0  0  0  0  0  0  0  0  0  0  0
    7.9692   -4.9712  -18.4889 H   0  0  0  0  0  0  0  0  0  0  0  0
    4.0560   -5.2809  -17.7047 H   0  0  0  0  0  0  0  0  0  0  0  0
    5.1206   -4.3469  -18.8097 H   0  0  0  0  0  0  0  0  0  0  0  0
    8.0191   -1.9819  -17.8209 H   0  0  0  0  0  0  0  0  0  0  0  0
    6.8305   -2.8428  -18.8566 H   0  0  0  0  0  0  0  0  0  0  0  0
    5.3698   -4.5653  -15.7625 H   0  0  0  0  0  0  0  0  0  0  0  0
    6.4599   -5.2962  -16.9888 H   0  0  0  0  0  0  0  0  0  0  0  0
    3.5899    3.3943  -18.3848 H   0  0  0  0  0  0  0  0  0  0  0  0
    6.2104    3.4346  -19.9658 H   0  0  0  0  0  0  0  0  0  0  0  0
    5.2468    1.3915  -17.9976 H   0  0  0  0  0  0  0  0  0  0  0  0
    3.3102    5.2959  -16.9901 H   0  0  0  0  0  0  0  0  0  0  0  0
    3.5345    6.2790  -18.2746 H   0  0  0  0  0  0  0  0  0  0  0  0
    3.3460    4.0380  -20.6209 H   0  0  0  0  0  0  0  0  0  0  0  0
  1  7  1  0  0  0  0
  1  8  2  0  0  0  0
  2  7  2  0  0  0  0
  2  9  1  0  0  0  0
  3  8  1  0  0  0  0
  3  9  2  0  0  0  0
  4 10  1  0  0  0  0
  4 11  2  0  0  0  0
  5 10  2  0  0  0  0
  5 12  1  0  0  0  0
  6 11  1  0  0  0  0
  6 12  2  0  0  0  0
  7 13  1  0  0  0  0
  8 14  1  0  0  0  0
  9 23  1  0  0  0  0
 10 26  1  0  0  0  0
 11 41  1  0  0  0  0
 12 42  1  0  0  0  0
 13 34  1  0  0  0  0
 13 37  2  0  0  0  0
 14 35  1  0  0  0  0
 14 38  2  0  0  0  0
 15 16  1  0  0  0  0
 15 20  1  0  0  0  0
 16 20  1  0  0  0  0
 17 19  1  0  0  0  0
 17 21  1  0  0  0  0
 18 21  1  0  0  0  0
 18 22  1  0  0  0  0
 19 36  1  0  0  0  0
 20 27  1  0  0  0  0
 21 40  1  0  0  0  0
 22 32  1  0  0  0  0
 22 36  1  0  0  0  0
 24 28  1  0  0  0  0
 25 29  1  0  0  0  0
 26 33  1  0  0  0  0
 27 40  1  0  0  0  0
 28 30  1  0  0  0  0
 29 31  1  0  0  0  0
 30 35  1  0  0  0  0
 31 35  1  0  0  0  0
 32 33  1  0  0  0  0
 32 39  1  0  0  0  0
 33 34  1  0  0  0  0
  1 43  1  0  0  0  0
  2 44  1  0  0  0  0
  3 45  1  0  0  0  0
  4 46  1  0  0  0  0
  5 47  1  0  0  0  0
  6 48  1  0  0  0  0
 15 49  1  0  0  0  0
 15 50  1  0  0  0  0
 16 51  1  0  0  0  0
 16 52  1  0  0  0  0
 17 53  1  0  0  0  0
 17 54  1  0  0  0  0
 18 55  1  0  0  0  0
 18 56  1  0  0  0  0
 19 57  1  0  0  0  0
 19 58  1  0  0  0  0
 20 59  1  0  0  0  0
 21 60  1  0  0  0  0
 22 61  1  0  0  0  0
 23 62  1  0  0  0  0
 23 63  1  0  0  0  0
 23 64  1  0  0  0  0
 24 65  1  0  0  0  0
 24 66  1  0  0  0  0
 24 67  1  0  0  0  0
 25 68  1  0  0  0  0
 25 69  1  0  0  0  0
 25 70  1  0  0  0  0
 26 71  1  0  0  0  0
 26 72  1  0  0  0  0
 27 73  1  0  0  0  0
 27 74  1  0  0  0  0
 28 75  1  0  0  0  0
 28 76  1  0  0  0  0
 29 77  1  0  0  0  0
 29 78  1  0  0  0  0
 30 79  1  0  0  0  0
 30 80  1  0  0  0  0
 31 81  1  0  0  0  0
 31 82  1  0  0  0  0
 32 83  1  0  0  0  0
 33 84  1  0  0  0  0
 34 85  1  0  0  0  0
 36 86  1  0  0  0  0
 36 87  1  0  0  0  0
 39 88  1  0  0  0  0
M  CHG  1  36   1
M  END
> <OMEGA_C>
DDHcQID3Ur2xr4XBk3EHQcLNxj9sbHzB88QCQRRVIL+xl2vBO2jbQFhYjz+ipavBURKkQE965r6K
4KXB4YrnQIP1o78jDq3B2yPwQOdfmz8zCIbBLYDnQJhHe7+WanvBnmsMQeRbJT8t7GvBpmyyQMjh
Xj/ZUKfBnA72QCA1Lj1Vca7Bgme+QEwJw7+/2ajBJF3kQBcOC0CFcI7BDCvTQN7NE8AozXrBFyUc
QTVrGUFsE5zB8M8oQcvVG0EGkZHBRwCyQPUQ90A6dorB8qHDQNv7t0CT6JXB3qGPQJG23EAvxoTB
jV4cQZt3B0H00pPBwJfVQNun2ECGR47BahmhQJjinUByCJDBX+wcQdx2gT+KPFvBZpkVQdz+icB3
pofB9s1yQM2nSMA81IzBLLeVQIatAEDLJaTBMT8IQaXiA0HJdY3Bag8IQWKTgcAmu5HB7bmVQBQm
jMATbI7BZFfvQHNpO8C3x4/B5+u5QMQEjsCOGYbBN7SLQJfSe0Ask5fBr/mrQE/6OUAN4ZvBhdW7
QHv0BEBf/ZLBqSHUQIZhTMDFNYbBBLp+QNfvukBf8ovBA+T9QAFiQkACNJHBlljBQHVyKMBmGmrB
SvVwQKfVlEAJOqDBJlj1QJ/o7kC1DpTBl7EOQdjNjj7niLLBhfuvQMV5MsASs6fB6C/EQBB3nb4O
jovBr2cPQaGvIEDjHX3BB+QGQYF4qr/WLF/BdDzmQO6mCECuzqzBx9iEQAowI7+efaLB/vP7QJ8D
B8AJN6/BO4ANQVnTIkHXYZ3BO6wkQeZ5F0FatqPB12g6QcqlG0GasJHB1zwjQTz/JkEXXIvBE9+j
QDfPA0HYYJHByGy/QH5lB0EL5YTBsFy1QJhCyEAM2ZzBeFXdQNCLokB4opjBWn2dQCLfzUD4K3vB
pSFqQAjV8UBlcILBYNYlQdVl8kBh25XBJILjQA5NyEB8TofBmvavQLp/jEAjWInBn/cUQafivj/5
ik3BezAlQZzazz37zlXBIaEoQTiN2j9kN2LBaSYhQXu9o8AISInBnkIeQaBOWcAacYXB6Q0LQSCZ
k8C0BoHBVtk/QDgLSMCQ5pLB2fxVQI5lSsCRzYTBIw+NQI6eDsCbpI3B4fWNQLLgJkDcR6vBAx5w
QJzTzT9mq6DBeuILQXV/9kDkAobBG58AQeFFE0HHiIvBW7YSQfdDcMCWU5jBTQP/QMwTn8Aw6ZPB
4cqBQIX9qMA6o43BmNujQAUai8BFepbBak4AQaiu/b81kY7Bh5PaQD/wNcBR2pbBXdWrQJUWksAZ
M3zBxrfOQK96qcAg6YfBOcBlQCI8WUANFJPBlLvGQDDRW0DquZ/BIuanQK0dsj8Z+4/BGNtTQOd3
qUCl64fBFzViQETtyEBNMpLBriVWQEg3gUCc96TB

> <OMEGA_E>
wLOQPQ==

> <OMEGA_NBR>
     10717

$$$$
50209143
  -OEChem-04172616093D

 83 85  0     1  0  0  0  0  0999 V2000
    6.8433   -0.0960  -16.7117 C   0  0  0  0  0  0  0  0  0  0  0  0
    8.3997    1.5230  -15.7539 C   0  0  0  0  0  0  0  0  0  0  0  0
    8.1223   -0.6614  -14.7132 C   0  0  0  0  0  0  0  0  0  0  0  0
    6.8355    1.1260  -21.4197 C   0  0  0  0  0  0  0  0  0  0  0  0
    5.0988   -0.4451  -20.7210 C   0  0  0  0  0  0  0  0  0  0  0  0
    7.2169   -1.2749  -21.6000 C   0  0  0  0  0  0  0  0  0  0  0  0
    7.4563    1.1751  -16.7434 C   0  0  0  0  0  0  0  0  0  0  0  0
    7.1993   -1.0258  -15.7135 C   0  0  0  0  0  0  0  0  0  0  0  0
    8.7073    0.6186  -14.7214 C   0  0  0  0  0  0  0  0  0  0  0  0
    5.5503    0.8783  -20.8878 C   0  0  0  0  0  0  0  0  0  0  0  0
    7.6708    0.0491  -21.7665 C   0  0  0  0  0  0  0  0  0  0  0  0
    5.9263   -1.5193  -21.0880 C   0  0  0  0  0  0  0  0  0  0  0  0
    7.1012    2.1359  -17.7929 C   0  0  0  0  0  0  0  0  0  0  0  0
    6.5862   -2.3639  -15.6819 C   0  0  0  0  0  0  0  0  0  0  0  0
    8.5209    8.4504  -17.8855 C   0  0  0  0  0  0  0  0  0  0  0  0
    5.5268    7.8134  -17.3829 C   0  0  0  0  0  0  0  0  0  0  0  0
    6.1685    5.7880  -18.7012 C   0  0  0  0  0  0  0  0  0  0  0  0
    4.4817    6.9828  -16.6339 C   0  0  0  0  0  0  0  0  0  0  0  0
    6.7013    6.8995  -17.8022 C   0  0  1  0  0  0  0  0  0  0  0  0
    5.0570    4.9851  -17.9754 C   0  0  2  0  0  0  0  0  0  0  0  0
    9.7174    0.9965  -13.6637 C   0  0  0  0  0  0  0  0  0  0  0  0
    9.6083    9.1543  -18.6890 C   0  0  0  0  0  0  0  0  0  0  0  0
    3.8165   -3.3142  -17.6253 C   0  0  0  0  0  0  0  0  0  0  0  0
    9.4101   -4.2846  -16.9439 C   0  0  0  0  0  0  0  0  0  0  0  0
    4.6557    2.0250  -20.4856 C   0  0  0  0  0  0  0  0  0  0  0  0
    4.7558   -4.5198  -17.8110 C   0  0  0  0  0  0  0  0  0  0  0  0
    8.5575   -4.0569  -18.2066 C   0  0  0  0  0  0  0  0  0  0  0  0
    5.8764   -4.5252  -16.7582 C   0  0  0  0  0  0  0  0  0  0  0  0
    7.4977   -2.9670  -17.9725 C   0  0  0  0  0  0  0  0  0  0  0  0
    4.3738    3.9768  -18.9154 C   0  0  2  0  0  0  0  0  0  0  0  0
    5.3568    2.9221  -19.4491 C   0  0  1  0  0  0  0  0  0  0  0  0
    5.8254    2.0828  -18.3380 N   0  0  0  0  0  0  0  0  0  0  0  0
    6.6507   -3.2522  -16.7780 N   0  0  0  0  0  0  0  0  0  0  0  0
    3.9915    5.8946  -17.4941 N   0  3  0  0  0  0  0  0  0  0  0  0
    7.9174    2.9777  -18.1505 O   0  0  0  0  0  0  0  0  0  0  0  0
    6.0326   -2.6987  -14.6401 O   0  0  0  0  0  0  0  0  0  0  0  0
    8.4039    8.7425  -16.6991 O   0  0  0  0  0  0  0  0  0  0  0  0
    3.7849    4.6828  -20.0101 O   0  0  0  0  0  0  0  0  0  0  0  0
    7.6847    7.6190  -18.5759 O   0  0  0  0  0  0  0  0  0  0  0  0
    8.9037    0.2868  -22.2683 F   0  0  0  0  0  0  0  0  0  0  0  0
    5.4768   -2.7863  -20.9522 F   0  0  0  0  0  0  0  0  0  0  0  0
    6.1014   -0.3563  -17.4522 H   0  0  0  0  0  0  0  0  0  0  0  0
    8.8870    2.4862  -15.7892 H   0  0  0  0  0  0  0  0  0  0  0  0
    8.3817   -1.3667  -13.9375 H   0  0  0  0  0  0  0  0  0  0  0  0
    7.1761    2.1413  -21.5598 H   0  0  0  0  0  0  0  0  0  0  0  0
    4.1175   -0.6339  -20.3114 H   0  0  0  0  0  0  0  0  0  0  0  0
    7.8582   -2.1026  -21.8647 H   0  0  0  0  0  0  0  0  0  0  0  0
    5.0693    8.2581  -18.2789 H   0  0  0  0  0  0  0  0  0  0  0  0
    5.8998    8.6132  -16.7262 H   0  0  0  0  0  0  0  0  0  0  0  0
    5.7537    6.2321  -19.6181 H   0  0  0  0  0  0  0  0  0  0  0  0
    6.9929    5.1085  -18.9634 H   0  0  0  0  0  0  0  0  0  0  0  0
    4.9374    6.5544  -15.7290 H   0  0  0  0  0  0  0  0  0  0  0  0
    3.6387    7.6295  -16.3489 H   0  0  0  0  0  0  0  0  0  0  0  0
    7.1585    6.4594  -16.9036 H   0  0  0  0  0  0  0  0  0  0  0  0
    5.5012    4.4445  -17.1266 H   0  0  0  0  0  0  0  0  0  0  0  0
    9.2009    1.4674  -12.8143 H   0  0  0  0  0  0  0  0  0  0  0  0
   10.2421    0.0934  -13.3187 H   0  0  0  0  0  0  0  0  0  0  0  0
   10.4452    1.7039  -14.0880 H   0  0  0  0  0  0  0  0  0  0  0  0
   10.1497    9.8563  -18.0378 H   0  0  0  0  0  0  0  0  0  0  0  0
   10.3109    8.4076  -19.0874 H   0  0  0  0  0  0  0  0  0  0  0  0
    9.1490    9.7067  -19.5219 H   0  0  0  0  0  0  0  0  0  0  0  0
    3.0287   -3.3410  -18.3926 H   0  0  0  0  0  0  0  0  0  0  0  0
    3.3572   -3.3578  -16.6268 H   0  0  0  0  0  0  0  0  0  0  0  0
    4.3924   -2.3822  -17.7237 H   0  0  0  0  0  0  0  0  0  0  0  0
   10.1571   -5.0674  -17.1415 H   0  0  0  0  0  0  0  0  0  0  0  0
    9.9220   -3.3492  -16.6737 H   0  0  0  0  0  0  0  0  0  0  0  0
    8.7598   -4.5994  -16.1144 H   0  0  0  0  0  0  0  0  0  0  0  0
    4.4127    2.6234  -21.3760 H   0  0  0  0  0  0  0  0  0  0  0  0
    3.7289    1.6244  -20.0489 H   0  0  0  0  0  0  0  0  0  0  0  0
    4.1713   -5.4469  -17.7163 H   0  0  0  0  0  0  0  0  0  0  0  0
    5.2066   -4.4713  -18.8132 H   0  0  0  0  0  0  0  0  0  0  0  0
    9.2147   -3.7469  -19.0323 H   0  0  0  0  0  0  0  0  0  0  0  0
    8.0525   -4.9971  -18.4730 H   0  0  0  0  0  0  0  0  0  0  0  0
    5.4298   -4.6564  -15.7615 H   0  0  0  0  0  0  0  0  0  0  0  0
    6.5591   -5.3620  -16.9671 H   0  0  0  0  0  0  0  0  0  0  0  0
    8.0072   -2.0035  -17.8237 H   0  0  0  0  0  0  0  0  0  0  0  0
    6.8501   -2.9061  -18.8597 H   0  0  0  0  0  0  0  0  0  0  0  0
    3.5885    3.4568  -18.3471 H   0  0  0  0  0  0  0  0  0  0  0  0
    6.2083    3.4291  -19.9265 H   0  0  0  0  0  0  0  0  0  0  0  0
    5.1799    1.4269  -17.9468 H   0  0  0  0  0  0  0  0  0  0  0  0
    3.3288    5.3559  -16.9739 H   0  0  0  0  0  0  0  0  0  0  0  0
    3.5407    6.3002  -18.2892 H   0  0  0  0  0  0  0  0  0  0  0  0
    3.3611    4.0652  -20.5945 H   0  0  0  0  0  0  0  0  0  0  0  0
  1  7  1  0  0  0  0
  1  8  2  0  0  0  0
  2  7  2  0  0  0  0
  2  9  1  0  0  0  0
  3  8  1  0  0  0  0
  3  9  2  0  0  0  0
  4 10  1  0  0  0  0
  4 11  2  0  0  0  0
  5 10  2  0  0  0  0
  5 12  1  0  0  0  0
  6 11  1  0  0  0  0
  6 12  2  0  0  0  0
  7 13  1  0  0  0  0
  8 14  1  0  0  0  0
  9 21  1  0  0  0  0
 10 25  1  0  0  0  0
 11 40  1  0  0  0  0
 12 41  1  0  0  0  0
 13 32  1  0  0  0  0
 13 35  2  0  0  0  0
 14 33  1  0  0  0  0
 14 36  2  0  0  0  0
 15 22  1  0  0  0  0
 15 37  2  0  0  0  0
 15 39  1  0  0  0  0
 16 18  1  0  0  0  0
 16 19  1  0  0  0  0
 17 19  1  0  0  0  0
 17 20  1  0  0  0  0
 18 34  1  0  0  0  0
 19 39  1  0  0  0  0
 20 30  1  0  0  0  0
 20 34  1  0  0  0  0
 23 26  1  0  0  0  0
 24 27  1  0  0  0  0
 25 31  1  0  0  0  0
 26 28  1  0  0  0  0
 27 29  1  0  0  0  0
 28 33  1  0  0  0  0
 29 33  1  0  0  0  0
 30 31  1  0  0  0  0
 30 38  1  0  0  0  0
 31 32  1  0  0  0  0
  1 42  1  0  0  0  0
  2 43  1  0  0  0  0
  3 44  1  0  0  0  0
  4 45  1  0  0  0  0
  5 46  1  0  0  0  0
  6 47  1  0  0  0  0
 16 48  1  0  0  0  0
 16 49  1  0  0  0  0
 17 50  1  0  0  0  0
 17 51  1  0  0  0  0
 18 52  1  0  0  0  0
 18 53  1  0  0  0  0
 19 54  1  0  0  0  0
 20 55  1  0  0  0  0
 21 56  1  0  0  0  0
 21 57  1  0  0  0  0
 21 58  1  0  0  0  0
 22 59  1  0  0  0  0
 22 60  1  0  0  0  0
 22 61  1  0  0  0  0
 23 62  1  0  0  0  0
 23 63  1  0  0  0  0
 23 64  1  0  0  0  0
 24 65  1  0  0  0  0
 24 66  1  0  0  0  0
 24 67  1  0  0  0  0
 25 68  1  0  0  0  0
 25 69  1  0  0  0  0
 26 70  1  0  0  0  0
 26 71  1  0  0  0  0
 27 72  1  0  0  0  0
 27 73  1  0  0  0  0
 28 74  1  0  0  0  0
 28 75  1  0  0  0  0
 29 76  1  0  0  0  0
 29 77  1  0  0  0  0
 30 78  1  0  0  0  0
 31 79  1  0  0  0  0
 32 80  1  0  0  0  0
 34 81  1  0  0  0  0
 34 82  1  0  0  0  0
 38 83  1  0  0  0  0
M  CHG  1  34   1
M  END
> <OMEGA_C>
B/zaQAKXxL2jsYXBBmUGQT/xwj8SEHzB7/QBQdBPKb8caWvBnrzaQKohkD+CW6vBvSmjQObi476g
xKXB5PDmQK0wo7+9zKzB/pnuQDRqlj+H8oXBzWDmQDlNg7+PanvB7lALQYJcHj/uimvBDpyxQDDW
YD83GqfBeXf1QPoPST29Ia7BP6S9QM55wr9BtKjBYz3jQMqxCEDlV47BxMHSQNZKF8Dr6HrBslUI
Qds0B0F0FY/BP9uwQFQH+kAYEIvBUGTFQBw3uUAUnJXBxGmPQA5z30AkEoXBTXHWQFTI3EDiao7B
99KhQKCFn0CnzY/Bd3obQRocfz+vnlrBe7sZQd93EkEEg5XB/kB0QD4cVMCuAI3BmY8WQTAbicAZ
jYfBXvuUQIyZAUBz4qPBmC+YQE+ikMDmfI7BWesIQdjRgcAMp5HBWgu8QF7OkMDLEIbBEu3vQOfi
PcDGx4/B1vWLQLeDfkCvUpfBC2urQF0DO0Col5vBDGq6QD9MBUBNtJLBgdLUQEAjUMBnOYbB+nR/
QE6gvED084vBoFv9QCaSPkAnNJHBSQvBQDG3LMD6PWrBjHYGQXzhC0HDl4XBMjtyQEjZlUCaFKDB
4uj1QBLP80CCm5TBp3UOQRrbkj5vJbLBU0KvQNBSMsArnqfB3D7DQA5str4lnovB/zAOQS4dH0Cq
oHzBdRsGQRTvrr/2/17BwaLlQPgKCUBxeqzB88KDQHdKIr+6faLBEXb7QGGRBsD86q7BbDeiQFgh
BEEyO5LBhMu8QJ/PCUFZz4XBKh64QG5tx0Dc8ZzBe8XfQNx4o0ALtZfB6v6dQN690UDWqXvB8t9o
QIsk9ECZyoLBVhLlQKqzzkCoOofB0AmwQJo5jkA+A4nBBTcTQeDUuz98B03Btd8jQZZOvz1XGVXB
aB8nQdsX2j+kaGHBLGUiQX2zHUF/TZDBo/kkQaWFBkEWs5jBHmISQcROG0HnLJzBDdZBQFbSVcAJ
JJPBA9xWQNvlVsCYA4XBxI6MQJd2GMAZyo3BboMiQYAoosDUIYnBrcAeQX5ZVsDTY4XBKCgMQXou
k8BT6oDB7zSNQLHlJ0ASAqvBs6ZuQMTtzz8rZKDBb3uFQJ1MrsD2uo3BMZymQPsUj8B3gZbBnW8T
QQzNb8A1QpjBGNcAQUHon8C1yJPBycCtQBsBlcBCL3zB0uPRQMSVq8CxvIfBdR0AQX45AMAGl47B
VzTbQFz+OcCY4JbBuallQHA7XUDqxpLBC6rGQCh3W0BraZ/BpsGlQM6ktj//ko/BSgpVQM5jq0CQ
yofBhJpiQKCbyUBOUJLBCRxXQEcWgkB7waTBDN7cQMHTKb4GyoXBEHEIQWPOtz/AtH3ByOMDQUCP
Ob/vNGzBqg3YQBrJkj+t76vBfVWkQPf0+b7RTKXBeLXnQMo3nr8WIa3Bfg7xQJGFjD+tYobBDSjo
QKOjib+7QnvB1zkOQXyCBj9SjW3BmmCwQOzXWT+CEqfBhMfzQGK51D0C567Bm+2/QJ/hw78aW6jB
ABDkQCXsBEAsj47BsqLPQPGaFMA1jXjBv/sHQelEB0HkpY/BdNqxQGUZ+UDsH4vB0NnEQC9HuEAv
55XB9PeQQNyV3kAo7YTBrtvWQN+z20Cjy47BEC2iQEydnkCpwI/BsVEeQfZkbz/Xu1zBYxAZQYTf
EkH4IpbBHu6EQMoqTcCC/IzB6pAVQdyvdsDZwZfBtkSTQMfL+z8EfKPB1pOeQO+ikMCel4zBYH4D
QWSFScC5w5HB9Zq7QLgglMBckoLB5LcCQavXa8BmSIbBcHaLQNiGe0BQ8pbBSnyqQAiwN0CcWpvB
CZW6QBLxAUBBjZLBbOvaQB8GYcB9d4HBiYWAQNrXu0DXuIvBXGT9QP4JPEC2gJHBQCuwQBpSEsAf
32zBI9oHQQ7zCUE+64XB9Y5uQMnOk0AOm5/B5e31QFPg8kDOFJXBlAMNQaHhxz64aLPBuE60QJMQ
NMCNn6bBbcHEQNzu3r5Tl4vBIzkQQfSEGUAPlH7BQRoIQZ8utb+Fm1/BCBbhQM4bC0A6YK3BN/OF
QOe8Nr+FmaHBLPP8QGRvAsDQba/B13aiQFHKA0GdKZLBVI++QCxACUE57YXBC4G2QDObxkCwGJ3B
9eTeQASQokCtQ5jBIT+gQDDO0EB/knvBtpBsQNZU80BxeILBsBnmQGtZzUCouIfBeFuxQLPNjUBE
BInBkPwVQQ3Gtj/QYk/BwbomQbv8MD1ZyVbB8vUpQejx0D//yWPB9y8jQUllHEHQvJDBPAEjQRYV
B0F5YJrBqlMRQc2DHUFA+5vBuBliQL4NTMBJP5TBCoVgQGnCSMCA4oXBgimbQCOYFsAqG43BKE8W
QR2mXsAeBaDBL90kQWzpacCotZPB/YkSQUoEnsDF2pfBAM2JQH9SJEDId6rBMSVtQKPbxD/at5/B
n++HQH6Wq8BEjYzBnNayQFuBksDuxZPBwXwGQY4nBMDxopHBH1PoQLZGVsAOyJXBdwqnQBNklMAk
3HbBGXjNQGFmssB8CoPBUL8GQTwvmMAFYIbBmoYOQcgLScD7aoHBZiBmQOScWkB3HpLBJVLFQPz/
V0BdXp/BwDymQM3EsD+WNo/BAjZXQFaxqkCAcofBIDVjQKzjyEDUAJLBjlJSQCR7f0DCF6TB

> <OMEGA_E>
QG80PoQ7wz4=

> <OMEGA_NBR>
     13635

$$$$
50147861
  -OEChem-04172616093D

 84 86  0     1  0  0  0  0  0999 V2000
    6.9036   -0.0927  -16.7407 C   0  0  0  0  0  0  0  0  0  0  0  0
    8.3872    1.5583  -15.7213 C   0  0  0  0  0  0  0  0  0  0  0  0
    8.1624   -0.6553  -14.7309 C   0  0  0  0  0  0  0  0  0  0  0  0
    6.8680    1.1670  -21.4364 C   0  0  0  0  0  0  0  0  0  0  0  0
    5.2116   -0.4671  -20.6888 C   0  0  0  0  0  0  0  0  0  0  0  0
    7.3583   -1.2161  -21.5727 C   0  0  0  0  0  0  0  0  0  0  0  0
    7.4712    1.2003  -16.7327 C   0  0  0  0  0  0  0  0  0  0  0  0
    7.2684   -1.0307  -15.7563 C   0  0  0  0  0  0  0  0  0  0  0  0
    8.7070    0.6434  -14.7024 C   0  0  0  0  0  0  0  0  0  0  0  0
    5.5989    0.8718  -20.8901 C   0  0  0  0  0  0  0  0  0  0  0  0
    7.7495    0.1236  -21.7689 C   0  0  0  0  0  0  0  0  0  0  0  0
    6.0880   -1.5094  -21.0356 C   0  0  0  0  0  0  0  0  0  0  0  0
    7.0869    2.1759  -17.7586 C   0  0  0  0  0  0  0  0  0  0  0  0
    6.6253   -2.3550  -15.7091 C   0  0  0  0  0  0  0  0  0  0  0  0
    5.5729    7.7798  -17.3381 C   0  0  0  0  0  0  0  0  0  0  0  0
    6.1413    5.8005  -18.7690 C   0  0  0  0  0  0  0  0  0  0  0  0
    4.5139    6.9373  -16.6201 C   0  0  0  0  0  0  0  0  0  0  0  0
    6.7185    6.8700  -17.8411 C   0  0  1  0  0  0  0  0  0  0  0  0
    5.0596    4.9792  -18.0157 C   0  0  2  0  0  0  0  0  0  0  0  0
    9.6754    1.0399  -13.6114 C   0  0  0  0  0  0  0  0  0  0  0  0
    9.3399   -4.5238  -17.0039 C   0  0  0  0  0  0  0  0  0  0  0  0
    3.8681   -3.2676  -17.5668 C   0  0  0  0  0  0  0  0  0  0  0  0
    9.6157    9.0942  -18.6138 C   0  0  0  0  0  0  0  0  0  0  0  0
    4.6663    1.9878  -20.4861 C   0  0  0  0  0  0  0  0  0  0  0  0
    9.0130   -3.1978  -17.7136 C   0  0  0  0  0  0  0  0  0  0  0  0
    4.7298   -4.5371  -17.7060 C   0  0  0  0  0  0  0  0  0  0  0  0
    7.5067   -3.0502  -17.9922 C   0  0  0  0  0  0  0  0  0  0  0  0
    5.9134   -4.5471  -16.7186 C   0  0  0  0  0  0  0  0  0  0  0  0
    8.4211    8.5887  -17.8093 C   0  0  0  0  0  0  0  0  0  0  0  0
    4.3621    3.9491  -18.9199 C   0  0  2  0  0  0  0  0  0  0  0  0
    5.3507    2.8999  -19.4524 C   0  0  1  0  0  0  0  0  0  0  0  0
    5.8293    2.0708  -18.3378 N   0  0  0  0  0  0  0  0  0  0  0  0
    6.6776   -3.2760  -16.7807 N   0  0  0  0  0  0  0  0  0  0  0  0
    4.0057    5.8869  -17.5146 N   0  3  0  0  0  0  0  0  0  0  0  0
    7.8627    3.0723  -18.0701 O   0  0  0  0  0  0  0  0  0  0  0  0
    6.0242   -2.6374  -14.6781 O   0  0  0  0  0  0  0  0  0  0  0  0
    3.7325    4.6323  -20.0050 O   0  0  0  0  0  0  0  0  0  0  0  0
    7.6982    7.6154  -18.5874 O   0  0  0  0  0  0  0  0  0  0  0  0
    8.9712    0.4092  -22.2731 F   0  0  0  0  0  0  0  0  0  0  0  0
    5.7127   -2.7921  -20.8394 F   0  0  0  0  0  0  0  0  0  0  0  0
    6.1883   -0.3626  -17.5036 H   0  0  0  0  0  0  0  0  0  0  0  0
    8.8438    2.5370  -15.7296 H   0  0  0  0  0  0  0  0  0  0  0  0
    8.4302   -1.3673  -13.9642 H   0  0  0  0  0  0  0  0  0  0  0  0
    7.1608    2.1939  -21.5986 H   0  0  0  0  0  0  0  0  0  0  0  0
    4.2425   -0.6925  -20.2687 H   0  0  0  0  0  0  0  0  0  0  0  0
    8.0320   -2.0188  -21.8339 H   0  0  0  0  0  0  0  0  0  0  0  0
    5.1115    8.2925  -18.1950 H   0  0  0  0  0  0  0  0  0  0  0  0
    5.9799    8.5261  -16.6400 H   0  0  0  0  0  0  0  0  0  0  0  0
    5.6874    6.2845  -19.6463 H   0  0  0  0  0  0  0  0  0  0  0  0
    6.9476    5.1281  -19.0974 H   0  0  0  0  0  0  0  0  0  0  0  0
    4.9628    6.4709  -15.7307 H   0  0  0  0  0  0  0  0  0  0  0  0
    3.6808    7.5866  -16.3126 H   0  0  0  0  0  0  0  0  0  0  0  0
    7.1891    6.3798  -16.9761 H   0  0  0  0  0  0  0  0  0  0  0  0
    5.5336    4.4550  -17.1728 H   0  0  0  0  0  0  0  0  0  0  0  0
    9.1199    1.4755  -12.7679 H   0  0  0  0  0  0  0  0  0  0  0  0
   10.2250    0.1509  -13.2684 H   0  0  0  0  0  0  0  0  0  0  0  0
   10.3864    1.7816  -14.0042 H   0  0  0  0  0  0  0  0  0  0  0  0
   10.4234   -4.5871  -16.8250 H   0  0  0  0  0  0  0  0  0  0  0  0
    8.8066   -4.5663  -16.0428 H   0  0  0  0  0  0  0  0  0  0  0  0
    9.0231   -5.3660  -17.6366 H   0  0  0  0  0  0  0  0  0  0  0  0
    3.0392   -3.3055  -18.2889 H   0  0  0  0  0  0  0  0  0  0  0  0
    3.4626   -3.2099  -16.5459 H   0  0  0  0  0  0  0  0  0  0  0  0
    4.4874   -2.3806  -17.7660 H   0  0  0  0  0  0  0  0  0  0  0  0
   10.1693    9.8376  -18.0214 H   0  0  0  0  0  0  0  0  0  0  0  0
   10.2788    8.2502  -18.8549 H   0  0  0  0  0  0  0  0  0  0  0  0
    9.2601    9.5588  -19.5453 H   0  0  0  0  0  0  0  0  0  0  0  0
    4.4006    2.5797  -21.3744 H   0  0  0  0  0  0  0  0  0  0  0  0
    3.7544    1.5585  -20.0454 H   0  0  0  0  0  0  0  0  0  0  0  0
    9.3397   -2.3633  -17.0757 H   0  0  0  0  0  0  0  0  0  0  0  0
    9.5562   -3.1630  -18.6695 H   0  0  0  0  0  0  0  0  0  0  0  0
    4.0988   -5.4169  -17.5118 H   0  0  0  0  0  0  0  0  0  0  0  0
    5.1236   -4.5875  -18.7318 H   0  0  0  0  0  0  0  0  0  0  0  0
    7.3153   -2.0334  -18.3658 H   0  0  0  0  0  0  0  0  0  0  0  0
    7.2166   -3.7833  -18.7593 H   0  0  0  0  0  0  0  0  0  0  0  0
    5.5273   -4.6838  -15.6977 H   0  0  0  0  0  0  0  0  0  0  0  0
    6.5842   -5.3814  -16.9717 H   0  0  0  0  0  0  0  0  0  0  0  0
    8.7761    8.1236  -16.8778 H   0  0  0  0  0  0  0  0  0  0  0  0
    7.7574    9.4322  -17.5682 H   0  0  0  0  0  0  0  0  0  0  0  0
    3.6004    3.4286  -18.3209 H   0  0  0  0  0  0  0  0  0  0  0  0
    6.1977    3.4133  -19.9308 H   0  0  0  0  0  0  0  0  0  0  0  0
    5.2049    1.3817  -17.9701 H   0  0  0  0  0  0  0  0  0  0  0  0
    3.3316    5.3436  -17.0141 H   0  0  0  0  0  0  0  0  0  0  0  0
    3.5654    6.3243  -18.2987 H   0  0  0  0  0  0  0  0  0  0  0  0
    3.2992    4.0017  -20.5682 H   0  0  0  0  0  0  0  0  0  0  0  0
  1  7  1  0  0  0  0
  1  8  2  0  0  0  0
  2  7  2  0  0  0  0
  2  9  1  0  0  0  0
  3  8  1  0  0  0  0
  3  9  2  0  0  0  0
  4 10  1  0  0  0  0
  4 11  2  0  0  0  0
  5 10  2  0  0  0  0
  5 12  1  0  0  0  0
  6 11  1  0  0  0  0
  6 12  2  0  0  0  0
  7 13  1  0  0  0  0
  8 14  1  0  0  0  0
  9 20  1  0  0  0  0
 10 24  1  0  0  0  0
 11 39  1  0  0  0  0
 12 40  1  0  0  0  0
 13 32  1  0  0  0  0
 13 35  2  0  0  0  0
 14 33  1  0  0  0  0
 14 36  2  0  0  0  0
 15 17  1  0  0  0  0
 15 18  1  0  0  0  0
 16 18  1  0  0  0  0
 16 19  1  0  0  0  0
 17 34  1  0  0  0  0
 18 38  1  0  0  0  0
 19 30  1  0  0  0  0
 19 34  1  0  0  0  0
 21 25  1  0  0  0  0
 22 26  1  0  0  0  0
 23 29  1  0  0  0  0
 24 31  1  0  0  0  0
 25 27  1  0  0  0  0
 26 28  1  0  0  0  0
 27 33  1  0  0  0  0
 28 33  1  0  0  0  0
 29 38  1  0  0  0  0
 30 31  1  0  0  0  0
 30 37  1  0  0  0  0
 31 32  1  0  0  0  0
  1 41  1  0  0  0  0
  2 42  1  0  0  0  0
  3 43  1  0  0  0  0
  4 44  1  0  0  0  0
  5 45  1  0  0  0  0
  6 46  1  0  0  0  0
 15 47  1  0  0  0  0
 15 48  1  0  0  0  0
 16 49  1  0  0  0  0
 16 50  1  0  0  0  0
 17 51  1  0  0  0  0
 17 52  1  0  0  0  0
 18 53  1  0  0  0  0
 19 54  1  0  0  0  0
 20 55  1  0  0  0  0
 20 56  1  0  0  0  0
 20 57  1  0  0  0  0
 21 58  1  0  0  0  0
 21 59  1  0  0  0  0
 21 60  1  0  0  0  0
 22 61  1  0  0  0  0
 22 62  1  0  0  0  0
 22 63  1  0  0  0  0
 23 64  1  0  0  0  0
 23 65  1  0  0  0  0
 23 66  1  0  0  0  0
 24 67  1  0  0  0  0
 24 68  1  0  0  0  0
 25 69  1  0  0  0  0
 25 70  1  0  0  0  0
 26 71  1  0  0  0  0
 26 72  1  0  0  0  0
 27 73  1  0  0  0  0
 27 74  1  0  0  0  0
 28 75  1  0  0  0  0
 28 76  1  0  0  0  0
 29 77  1  0  0  0  0
 29 78  1  0  0  0  0
 30 79  1  0  0  0  0
 31 80  1  0  0  0  0
 32 81  1  0  0  0  0
 34 82  1  0  0  0  0
 34 83  1  0  0  0  0
 37 84  1  0  0  0  0
M  CHG  1  34   1
M  END
> <OMEGA_C>
mOrcQNfgvb0L7YXB+zEGQX93xz+binvBGpkCQc7CJ7+psWvB48bbQEphlT/RfavBRcWmQMkj777A
gqXBA3frQACqm7/SlKzB8hPvQJaimT+f3IXB7JboQFvtg7/kGXzBz08LQeu3JD81PWvBhSqzQEcw
Xz/hHqfBgvv3QNkv/T28Jq7BANHCQGIywb/mSKjBfMfiQH9CC0CdEY7BwALUQBO5FsBsWHvBlVWy
QPvz+EBytIrB0YXEQOKduUD1JpbBnXGQQK7+3UDp9YTB5f3WQO/W20CQuo7BROihQHVVn0BAIJDB
Zc4aQUkahT9vyFnBSXAVQRHDkMD6B4jBAI93QCwgUcDWiIzBAtoZQbyBEUEh6ZTBM1KVQK9v/j9x
46PBDDUQQfOnTMB9tY3BvFqXQOsvkcDPpY3BfjbwQH02Q8AQ8I/BOTq9QCKCkcC2v4XBprwGQSZr
CUFueY7BhJaLQE69fEAGXJfBkDirQGOXOUCNnpvBzom6QMWHBEDCs5LBPq/VQD2pUcDGPobBYC6A
QD1hvEDlHYzBcpv7QOKgREB3j5DBkcbAQGXKKMB/2WrBmuBuQJE7lEA9CqDBilf2QJGx80AKs5TB
GIoPQYh/0T5HL7LBf862QJmxMsAOt6bBvAbGQI+lub5LB4zBFIANQfleIkB/rHvBRuIGQasCr79o
bV/BayXlQExoDEDbyazBtsKHQHRFMb9QJqLBP4MAQUMzAcDFq67BxZGjQOGtBEFhj5HBaVu/QBRr
CEHCHoXB0/61QLIayUCtK53BsVLeQMAZpECJx5jBJs+eQLQRz0AasXvB4JJrQEnF8kAwgILB4Qzm
QAcnzEAHz4fB3BKxQIKPjkDRYYnB/eoRQU/dvD8oSUzBkJkjQVaGGj5KS1TBxC4mQXwL5D83EWDB
VMYmQYjJksCUmYbB5OcMQW8fksCSV4DBg14QQVa2q8DDF43BnoFCQGeNU8CuT5LBl5pdQK5vTcAP
XoTB0piPQEBbGMC0II7BRrUiQcpmHUHqK5DB7nUkQQIBBEHm1pbBiykUQfjwGEHNXJzBBtKMQE4Z
JUC2/qrBfkhwQFB7xz/1XKDBZm8VQedAF8D0mojBBuYYQbZuSsAlW5XBCCmDQD5XrcAiGIzBjvSj
QAfNksDH2pXBqxbqQLwjAsAg7ZLBwu7mQLUhcsAYE5bBht+wQHThlcC7KXvBgbHSQFg0rMD0xYfB
5moMQS76AUHFBYfBBj34QCTqFkGsi4zBKWxmQI5tW0BKkZLBxlPGQO9yWkBdcp/BcI6mQJnasD+3
wo/BrjhVQMj+qkDqHIjB1C9kQA5hykC3Y5LBoyZTQJgNgECVi6TBLqzaQMAb4r23qYXBFiIGQSiE
wT/U9HvBjucBQTCHLb83amvBSH7aQCDhkj/2c6vBGuCjQC326b7w4aXB5g/oQBpan7/4+6zBwATu
QF0QlT+y4oXBEUfmQJldhb/manvBbigLQbLlGj+XfmvBg4exQGTnXz9qMKfBh9P1QC56sz0CRq7B
lO++QHjVwb8w4KjBY0PiQHhfCEBVOY7BSsnSQEtgGMBo/nrBfwyzQF0Y+UBl6IrBjOjEQIHHuEDP
+ZXBcqiQQDP/3kDlFoXB7oLXQPs120C2q47BlKihQGhKn0Do/I/BXTQbQaT+fD/HfVrBAHx0QBb3
UcBiII3BLI4WQRNMicBneIfBUXAaQeFcEEFgSpXB6UyUQJ07AEBf5qPBS92XQPTZj8D/tI7BWyAJ
QYDbgcB4opHB4b27QPzSkMCwSobBXDzwQEEaPsCz0I/BmhkHQfsDCUHZzI7BszKLQBRMfUB4SpfB
dYqqQPiUOUAFlZvBCKq5QPqwA0DttZLBt9fUQJ+hUMDjUYbB8SeAQHbjvEDkE4zBi9P7QNXYP0Dg
6ZDB59rAQPoELsDyZmrBYhZvQMvKlEAQAaDBI2H3QCzj8UAXv5TBoYoOQS5dsz6XT7LBqDSxQJCB
MsAC3qfB+/bCQA/Ovr7NlovBSOANQYWDHkCFfXzB/iEGQdhFsb+LDl/B/MvkQBHWCkBWi6zBK6OE
QKtNKr9ZlaLBqwb9QNbWA8D0JK/B2LekQCiCBEEE5JHB8B7AQNCsCEFuboXBTfC2QMv/x0DNGZ3B
Y4zeQFTCokBLb5jBuKSeQEmN0ECFu3vBSVlsQBRL9EDny4LBtRnmQArly0AHo4fBnkewQHVRjkA5
M4nBy9MSQbv0uT/+6UzBhrEjQWgrtT2R+VTB48gmQabr2T9HNGHBeg5CQEidUsA5RJPBRg1XQLwL
VcBKJIXBiQONQGmvFsDz1o3BaI0iQcRMosDsA4nB0q8eQX3HVsCeO4XBDQQMQQCCk8C15oDBNDwj
QZeoHEH5yJDBsQQlQYyhAkEd0JbBOAAVQVEXF0E+9JzB/COMQGu4JkD6+qrBJcZtQPMJyz+LZ6DB
bc+EQGhSrcAdBo7BU0ymQD8kjsDHuJbBN8cTQWibb8BuLJjBcRsBQfXrn8CE15PBa3CtQItWlcA5
qXzBI1nRQHGyq8B0D4jBzDkAQVVpAMABk47Ba77bQIslOsAE9JbBToMMQZZEAkHwIofBq/34QFy6
FkERR43BegtlQGpPXEBVj5LB283FQLwTWkBbY5/Bv0mlQIRIsT/zsY/BpxZVQMXuq0Bf+YfBBR9k
QMt8ykB3Z5LB7jhTQH3KgECti6TB3nHcQGp4SL6YN4XBVSwHQc7+uj/QOXzB2NEDQQjZNr9582rB
477WQAoKkD+DNavBvp+gQDFB+L4cbaXBmtniQP0qob+yra3B/znvQBi4iz9ru4XB1wPpQExmjb9g
RXrBO/cMQTCWEj9TyGvBQWyuQIjnWD9pmKbB3R/xQICekD27n67BebK6QIyUxL9/C6nB70/iQGfH
A0CoBI7BIqvSQD9XGcAo0XfBGha0QFgs+kDIVYvBUIzFQIM3uEA47pXBCmySQOyt4ED7H4XBembY
QMMK3EAwDo/BU2CiQLe2n0Dio4/B/5EdQZPUfD9VglvBKyaNQOY2W8AK2o7BtMMAQTfKMsDtopbB
G0YaQTmqEEEn0ZbBtceRQFVp/D+d9aLB7GCSQEthjcCPjoXBD/IJQZsUfsBESpDBn8vBQBFrl8Ab
k4LBiXMGQS2sccDIOITBBFkHQeebCUHI8o/BjPWKQE5KfUCNopbBQ1SpQEOeN0C14ZrBu9C4QNmr
AUB9AZLBghHfQJ+rY8CXhYHBDFGBQO/4vUB1z4vBEfn7QO3VOUCbFpHBndSyQOmiGcAbZWzBvCRu
QEtflED+ZJ/BgFT3QCpZ8kBYhJXB2/oLQQOcqz745LLBdRytQJD4M8C2HKjBxX3EQIzB977EAIvB
Zq4OQaahG0DzMX3BWJAIQaKus7+thl7BEUbhQKd1CUDhG6zB/BWCQMe3Mr8iwqHB8bT2QK5sBMBz
grDBAwqlQMeLBEGvXJLBOnrBQEeaCUHbIYbBBW63QG8ixkC+M53BmSbfQLnIoUDGK5jBQzKhQEvu
0kB21HvB109wQBYo9kAUyILBSubnQLf2zUBN+4fBCzixQB1Fj0AdzYjBPp8VQc5muz/Zx03Bqmkm
QUipzT2RBlbBDMUoQVSm2T9S4GLBZNBVQNK/UMBvapDBaVScQKYDHsAkuozBk3qcQNNjdcDqEJbB
K3oDQYlKPcBLO5/BpvfeQF2sLcBwGJXBD7sIQZOK7r9VJJTBpkcjQZc6HUEinJLBrNAkQcXjAkGx
TpjBUV0UQRf1FkFhfJ7B4k+IQILCJECB7qnBWh1qQGCAxj/1JZ/B5X+CQJK9f8DU7nzBEKaCQN+O
q8AwzofB9PUBQVaynMCL2JLBMDUbQc1+gcBw5JHBM7fBQBVwqMBNvnXBU+fOQP50rMCT0ojBqSEM
QX2PlcCGAIDBprkPQRS/OcAxkIHBkToNQWNLA0FTR4jBa475QLRcF0EDdY7B2adkQBkdXkC4s5HB
e5bEQHJtVkAZ557BUB6kQMTosT8LpI7Bo6tXQIafrUDAg4fBdeJlQDr6ykDyLJLBaQVRQJ43gEBe
xKPB

> <OMEGA_E>
QOVWPYAw6DxwcI4+

> <OMEGA_NBR>
     17839

$$$$
50209157
  -OEChem-04172616093D

 74 76  0     1  0  0  0  0  0999 V2000
    6.7906   -0.1224  -16.7489 C   0  0  0  0  0  0  0  0  0  0  0  0
    8.2740    1.5396  -15.7450 C   0  0  0  0  0  0  0  0  0  0  0  0
    8.0296   -0.6501  -14.7125 C   0  0  0  0  0  0  0  0  0  0  0  0
    6.8322    1.1487  -21.4290 C   0  0  0  0  0  0  0  0  0  0  0  0
    5.0992   -0.4266  -20.7342 C   0  0  0  0  0  0  0  0  0  0  0  0
    7.2377   -1.2530  -21.5724 C   0  0  0  0  0  0  0  0  0  0  0  0
    7.3698    1.1675  -16.7621 C   0  0  0  0  0  0  0  0  0  0  0  0
    7.1443   -1.0413  -15.7361 C   0  0  0  0  0  0  0  0  0  0  0  0
    8.5778    0.6445  -14.7041 C   0  0  0  0  0  0  0  0  0  0  0  0
    5.5390    0.9025  -20.9139 C   0  0  0  0  0  0  0  0  0  0  0  0
    7.6806    0.0724  -21.7530 C   0  0  0  0  0  0  0  0  0  0  0  0
    5.9444   -1.5015  -21.0707 C   0  0  0  0  0  0  0  0  0  0  0  0
    7.0278    2.1276  -17.8192 C   0  0  0  0  0  0  0  0  0  0  0  0
    6.5583   -2.3922  -15.6931 C   0  0  0  0  0  0  0  0  0  0  0  0
    6.3078    7.0176  -17.7140 C   0  0  0  0  0  0  0  0  0  0  0  0
    6.1552    5.8552  -18.6721 C   0  0  0  0  0  0  0  0  0  0  0  0
    4.8700    7.2885  -17.2587 C   0  0  0  0  0  0  0  0  0  0  0  0
    5.0673    5.0158  -17.9833 C   0  0  2  0  0  0  0  0  0  0  0  0
    9.5455    1.0496  -13.6168 C   0  0  0  0  0  0  0  0  0  0  0  0
    3.9207   -3.5222  -17.6946 C   0  0  0  0  0  0  0  0  0  0  0  0
    9.4943   -4.2808  -16.8319 C   0  0  0  0  0  0  0  0  0  0  0  0
    4.6314    2.0608  -20.5304 C   0  0  0  0  0  0  0  0  0  0  0  0
    4.8953   -4.7117  -17.7784 C   0  0  0  0  0  0  0  0  0  0  0  0
    8.6598   -4.1078  -18.1157 C   0  0  0  0  0  0  0  0  0  0  0  0
    5.9819   -4.6268  -16.6946 C   0  0  0  0  0  0  0  0  0  0  0  0
    7.5637   -3.0423  -17.9311 C   0  0  0  0  0  0  0  0  0  0  0  0
    4.3330    4.0267  -18.9176 C   0  0  2  0  0  0  0  0  0  0  0  0
    5.3066    2.9607  -19.4707 C   0  0  1  0  0  0  0  0  0  0  0  0
    5.7539    2.0981  -18.3666 N   0  0  0  0  0  0  0  0  0  0  0  0
    6.7026   -3.3221  -16.7460 N   0  0  0  0  0  0  0  0  0  0  0  0
    4.1217    6.0122  -17.4265 N   0  3  0  0  0  0  0  0  0  0  0  0
    7.8531    2.9614  -18.1752 O   0  0  0  0  0  0  0  0  0  0  0  0
    5.9811   -2.7111  -14.6592 O   0  0  0  0  0  0  0  0  0  0  0  0
    3.7223    4.7454  -19.9897 O   0  0  0  0  0  0  0  0  0  0  0  0
    8.9170    0.3117  -22.2459 F   0  0  0  0  0  0  0  0  0  0  0  0
    5.5127   -2.7730  -20.9131 F   0  0  0  0  0  0  0  0  0  0  0  0
    6.0795   -0.4043  -17.5114 H   0  0  0  0  0  0  0  0  0  0  0  0
    8.7347    2.5162  -15.7660 H   0  0  0  0  0  0  0  0  0  0  0  0
    8.2885   -1.3482  -13.9302 H   0  0  0  0  0  0  0  0  0  0  0  0
    7.1701    2.1641  -21.5744 H   0  0  0  0  0  0  0  0  0  0  0  0
    4.1132   -0.6194  -20.3380 H   0  0  0  0  0  0  0  0  0  0  0  0
    7.8892   -2.0784  -21.8185 H   0  0  0  0  0  0  0  0  0  0  0  0
    6.9465    6.7444  -16.8612 H   0  0  0  0  0  0  0  0  0  0  0  0
    6.7320    7.8954  -18.2235 H   0  0  0  0  0  0  0  0  0  0  0  0
    5.8283    6.1961  -19.6655 H   0  0  0  0  0  0  0  0  0  0  0  0
    7.0945    5.2908  -18.7688 H   0  0  0  0  0  0  0  0  0  0  0  0
    4.8584    7.5991  -16.2035 H   0  0  0  0  0  0  0  0  0  0  0  0
    4.4183    8.0774  -17.8781 H   0  0  0  0  0  0  0  0  0  0  0  0
    5.5269    4.4474  -17.1613 H   0  0  0  0  0  0  0  0  0  0  0  0
    8.9911    1.5048  -12.7828 H   0  0  0  0  0  0  0  0  0  0  0  0
   10.0850    0.1612  -13.2566 H   0  0  0  0  0  0  0  0  0  0  0  0
   10.2652    1.7776  -14.0192 H   0  0  0  0  0  0  0  0  0  0  0  0
    3.1589   -3.6154  -18.4826 H   0  0  0  0  0  0  0  0  0  0  0  0
    3.4308   -3.5184  -16.7097 H   0  0  0  0  0  0  0  0  0  0  0  0
    4.4764   -2.5827  -17.8313 H   0  0  0  0  0  0  0  0  0  0  0  0
   10.2665   -5.0468  -16.9963 H   0  0  0  0  0  0  0  0  0  0  0  0
    9.9748   -3.3251  -16.5754 H   0  0  0  0  0  0  0  0  0  0  0  0
    8.8373   -4.5938  -16.0070 H   0  0  0  0  0  0  0  0  0  0  0  0
    4.4139    2.6603  -21.4266 H   0  0  0  0  0  0  0  0  0  0  0  0
    3.6923    1.6621  -20.1191 H   0  0  0  0  0  0  0  0  0  0  0  0
    4.3306   -5.6464  -17.6461 H   0  0  0  0  0  0  0  0  0  0  0  0
    5.3762   -4.7107  -18.7677 H   0  0  0  0  0  0  0  0  0  0  0  0
    9.3245   -3.7997  -18.9363 H   0  0  0  0  0  0  0  0  0  0  0  0
    8.1869   -5.0684  -18.3679 H   0  0  0  0  0  0  0  0  0  0  0  0
    5.5110   -4.7366  -15.7066 H   0  0  0  0  0  0  0  0  0  0  0  0
    6.7051   -5.4412  -16.8486 H   0  0  0  0  0  0  0  0  0  0  0  0
    8.0421   -2.0607  -17.7979 H   0  0  0  0  0  0  0  0  0  0  0  0
    6.9323   -3.0233  -18.8316 H   0  0  0  0  0  0  0  0  0  0  0  0
    3.5595    3.5111  -18.3296 H   0  0  0  0  0  0  0  0  0  0  0  0
    6.1701    3.4664  -19.9274 H   0  0  0  0  0  0  0  0  0  0  0  0
    5.0965    1.4478  -17.9858 H   0  0  0  0  0  0  0  0  0  0  0  0
    3.7766    5.6991  -16.5417 H   0  0  0  0  0  0  0  0  0  0  0  0
    3.3554    6.1451  -18.0551 H   0  0  0  0  0  0  0  0  0  0  0  0
    3.2714    4.1368  -20.5632 H   0  0  0  0  0  0  0  0  0  0  0  0
  1  7  1  0  0  0  0
  1  8  2  0  0  0  0
  2  7  2  0  0  0  0
  2  9  1  0  0  0  0
  3  8  1  0  0  0  0
  3  9  2  0  0  0  0
  4 10  1  0  0  0  0
  4 11  2  0  0  0  0
  5 10  2  0  0  0  0
  5 12  1  0  0  0  0
  6 11  1  0  0  0  0
  6 12  2  0  0  0  0
  7 13  1  0  0  0  0
  8 14  1  0  0  0  0
  9 19  1  0  0  0  0
 10 22  1  0  0  0  0
 11 35  1  0  0  0  0
 12 36  1  0  0  0  0
 13 29  1  0  0  0  0
 13 32  2  0  0  0  0
 14 30  1  0  0  0  0
 14 33  2  0  0  0  0
 15 16  1  0  0  0  0
 15 17  1  0  0  0  0
 16 18  1  0  0  0  0
 17 31  1  0  0  0  0
 18 27  1  0  0  0  0
 18 31  1  0  0  0  0
 20 23  1  0  0  0  0
 21 24  1  0  0  0  0
 22 28  1  0  0  0  0
 23 25  1  0  0  0  0
 24 26  1  0  0  0  0
 25 30  1  0  0  0  0
 26 30  1  0  0  0  0
 27 28  1  0  0  0  0
 27 34  1  0  0  0  0
 28 29  1  0  0  0  0
  1 37  1  0  0  0  0
  2 38  1  0  0  0  0
  3 39  1  0  0  0  0
  4 40  1  0  0  0  0
  5 41  1  0  0  0  0
  6 42  1  0  0  0  0
 15 43  1  0  0  0  0
 15 44  1  0  0  0  0
 16 45  1  0  0  0  0
 16 46  1  0  0  0  0
 17 47  1  0  0  0  0
 17 48  1  0  0  0  0
 18 49  1  0  0  0  0
 19 50  1  0  0  0  0
 19 51  1  0  0  0  0
 19 52  1  0  0  0  0
 20 53  1  0  0  0  0
 20 54  1  0  0  0  0
 20 55  1  0  0  0  0
 21 56  1  0  0  0  0
 21 57  1  0  0  0  0
 21 58  1  0  0  0  0
 22 59  1  0  0  0  0
 22 60  1  0  0  0  0
 23 61  1  0  0  0  0
 23 62  1  0  0  0  0
 24 63  1  0  0  0  0
 24 64  1  0  0  0  0
 25 65  1  0  0  0  0
 25 66  1  0  0  0  0
 26 67  1  0  0  0  0
 26 68  1  0  0  0  0
 27 69  1  0  0  0  0
 28 70  1  0  0  0  0
 29 71  1  0  0  0  0
 31 72  1  0  0  0  0
 31 73  1  0  0  0  0
 34 74  1  0  0  0  0
M  CHG  1  31   1
M  END
> <OMEGA_C>
Q0zZQFCs+r3N/YXBVmIEQbMRxT9U63vBN3kAQVtsJr87ZmvBIKHaQCAJkz+nbqvB7CyjQEdq2r6R
36XB1ZrnQDJjoL9ClKzBG9XrQHZvlT/JGIbByp3kQE5Khb8Lx3vB1T4JQa/8JD/1Q2vBvj+xQG0K
Zz+WT6fBV8f1QHpClD0fBq7BiDi+QIsvwL+9kKjBZOPgQEYrCEDBjY7BM93RQAUaGcAQF3vBH9nJ
QCmQ4EBSto3BuffEQABeu0BnYJXBDNebQKg76UDeEYrBaSeiQGeBoEDa3Y/BS7oYQU9Yhj853lnB
/+x6QBxrYcCAjo3BxugXQZ78iMCjp4bBZDSUQJfkA0AzPqTB9aWcQBzGlsA/Oo7Bpo4KQQJzg8AG
7ZDB8Wu/QLYOlMB+joXBzwnyQHu0QsDeco/BI6iKQPfagEBHV5fBcc+pQHJ8PUD+w5vBpx+4QGFH
BkDk7pLBqHvWQI6dVMDe94XBn+SDQO1jwECLaYvBq0z7QO2HPUDPZpHBcGW/QFyDLcAqjGrBhTpu
QD7al0Dw6p/BEqwOQQKYnz6y97HBaWiwQNp4McAfTqfBLovCQO0Bz75EF4zBg8ELQeYIIUBmQXzB
kJ0EQU+SrL/l4V7BmnHlQO6ACkB5mKzBMp+DQCyUHr9QtKLBhHT8QCYFBcAzjK7BykneQOzR10Cy
44bBf2zXQMmm/EC0yZHBeIG6QDZGxkD7Up3BxAXjQKFOqUCAJpbBLnibQAIs80DdoIHBTmKNQO08
AUFjBo/BY9ywQBRRjkBhSonBqtsPQbqcwD9chkzBU1whQeQRJT44G1TBWj4kQUyI4z+UTmDBFitK
QEliZ8BK3JPBbJJbQLctYcB5rYXBnT6PQGtLJcBypo7BjEMkQZN/ocBb+IfB5pgfQRPPVMBzmoTB
i2UNQcoAk8BoDoDBTz6NQAJDKkC3aavBwk5sQAO/1D/+86DBp5SKQGGvtMBQK43BDgqsQDu+lsBJ
JJbB/jAVQRQuc8CMfZfBpP0CQUswosCC8ZLBGFqwQP+Rl8ASTnvBWpDWQGUersDnyYbBfqwAQTLj
A8ArYo7BldXdQFl9QcA2p5bB585jQJu1YEAAo5LBh3HFQALaXUBJa5/BlRajQHZSuT/74o/BKrNx
QDJftkBzVYTBJ75WQFmkxEDncJDBQ19RQN1ghEBggaTB29rdQEBO9jsJvIXBKl0EQbGG3D+uHXrB
B5gBQVYc/r6SJmrBYV/eQKOklz9n8qrBl1+nQK5+4b61EabBNVbtQDwUmr9PP6zBd7LtQNEJqT9j
gYXBA63pQN3daL8Ma3vBDT4JQegsUz88aWnBSa60QMq/Zj96L6fBGbD6QGTVCD4paK3BL6HDQD+0
vr/Vo6jBpxziQPIrEECHFI7Bc87aQNJeEsA63XzBj7bGQD8a4UCQkI3BYPDCQDNAvECkWZXB/0qY
QIS96EAxHorBVaWgQOFcoEAg9Y/B6tgXQfvUnz+WblfB3x2DQGsJr8Biho3Bxg8QQa/VmcBQFofB
PmqWQMwSAkBXNKTBQ7WtQOlXncB3lYnBvowSQZIhWMAoeovBnkiuQKD1WsASxovBqfX6QM7NNcA1
U5DBGXqKQP4XgEBegZfB8uyqQFjaPUCaxpvBHgy6QIbTCEDy0ZLBUyrXQBgtN8BFiIjBg1mBQJZj
v0BWl4vBKbT7QDwXR0Dn5pDBXc7IQOxUMsAKXG3BXLdtQFt8lkACLKDBHFQRQdxH0T4f67DBs7a2
QCqHMcBSrqfBeo7IQIu7mb7jE4zB3PwKQcwZLkAu+XnB0IIFQZ1QmL+Xf13B54XoQAlrDUB276vB
6H+HQH+dKb/XPaPB7okBQRmhAMDAH67Bxc/aQOFe2ECMrYbBTxfUQCOe/UBPfpHBnWW4QHVLx0B/
R53Bv23hQGHxqkCKIpbBaR6XQKiS8kBfrIHB1aKJQPnbAEGtHo/Bs4yvQL+UjkD3VonBgkAOQYjc
1D8kQErBd+cgQSEqwT55qFHBCwsjQXLyAEDWRl3B2tyBQE600cBcCIzBBIpRQAU4n8DHO4nBU+V/
QCT1qMALKJbBAmcfQSOrpMDruoPBCsUDQcsfmsAVyoDBrzoLQVVqr8Adm43BVN2OQFVsJ0DNa6vB
iJNxQLuIzT/+5aDB1QWxQBs0o8BC8oDBfDPIQDvxrMCG3o3B+nwXQYGrLcAa6ITBnvIeQZRAWMAi
uZHB9XGpQIStT8AXYJTBvXGUQKvsO8BxOofByAkAQT3y5r9H+5LBsUTyQGK/XcDuPJfBMtJjQH7R
XUDh5JLBHgbGQEPQX0AOdJ/BbxymQMLDuD+c8I/B7DdsQGn8tEAkkYTB1RhSQJUnw0DQtZDBkX5S
QHGXgkCFzaTB

> <OMEGA_E>
YNxCPrh5zT4=

> <OMEGA_NBR>
     20501

$$$$
50209162
  -OEChem-04172616093D

 87 89  0     1  0  0  0  0  0999 V2000
    6.8777   -0.0938  -16.7462 C   0  0  0  0  0  0  0  0  0  0  0  0
    8.4490    1.5291  -15.8261 C   0  0  0  0  0  0  0  0  0  0  0  0
    8.1832   -0.6468  -14.7599 C   0  0  0  0  0  0  0  0  0  0  0  0
    6.8050    1.2473  -21.5415 C   0  0  0  0  0  0  0  0  0  0  0  0
    5.2112   -0.4208  -20.7357 C   0  0  0  0  0  0  0  0  0  0  0  0
    7.3088   -1.1265  -21.7621 C   0  0  0  0  0  0  0  0  0  0  0  0
    7.4852    1.1785  -16.7948 C   0  0  0  0  0  0  0  0  0  0  0  0
    7.2424   -1.0115  -15.7389 C   0  0  0  0  0  0  0  0  0  0  0  0
    8.8033    0.6145  -14.8157 C   0  0  0  0  0  0  0  0  0  0  0  0
    5.5730    0.9265  -20.9297 C   0  0  0  0  0  0  0  0  0  0  0  0
    7.6744    0.2211  -21.9505 C   0  0  0  0  0  0  0  0  0  0  0  0
    6.0728   -1.4452  -21.1651 C   0  0  0  0  0  0  0  0  0  0  0  0
    7.1131    2.1323  -17.8468 C   0  0  0  0  0  0  0  0  0  0  0  0
    6.6271   -2.3416  -15.6969 C   0  0  0  0  0  0  0  0  0  0  0  0
    5.5994    7.7626  -17.2322 C   0  0  0  0  0  0  0  0  0  0  0  0
    6.1359    5.8106  -18.7374 C   0  0  0  0  0  0  0  0  0  0  0  0
    4.5483    6.9024  -16.5253 C   0  0  0  0  0  0  0  0  0  0  0  0
    6.7144    6.8694  -17.8102 C   0  0  1  0  0  0  0  0  0  0  0  0
    5.0561    4.9891  -17.9928 C   0  0  2  0  0  0  0  0  0  0  0  0
    9.8032    1.0080  -13.7553 C   0  0  0  0  0  0  0  0  0  0  0  0
    3.1298   -4.2159  -17.7022 C   0  0  0  0  0  0  0  0  0  0  0  0
    9.3560   -4.3736  -16.7629 C   0  0  0  0  0  0  0  0  0  0  0  0
    9.8056    8.5506  -19.0617 C   0  0  0  0  0  0  0  0  0  0  0  0
    8.8771    8.6456  -16.7333 C   0  0  0  0  0  0  0  0  0  0  0  0
    4.6376    2.0235  -20.4844 C   0  0  0  0  0  0  0  0  0  0  0  0
    4.4060   -3.3892  -17.7147 C   0  0  0  0  0  0  0  0  0  0  0  0
    8.5481   -4.1961  -18.0596 C   0  0  0  0  0  0  0  0  0  0  0  0
    5.5405   -4.1441  -17.0091 C   0  0  0  0  0  0  0  0  0  0  0  0
    7.5914   -3.0001  -17.9427 C   0  0  0  0  0  0  0  0  0  0  0  0
    4.3553    3.9886  -18.9244 C   0  0  2  0  0  0  0  0  0  0  0  0
    5.3353    2.9318  -19.4593 C   0  0  1  0  0  0  0  0  0  0  0  0
    8.9264    7.8242  -18.0360 C   0  0  0  0  0  0  0  0  0  0  0  0
    5.8175    2.1024  -18.3454 N   0  0  0  0  0  0  0  0  0  0  0  0
    6.6371   -3.1875  -16.8200 N   0  0  0  0  0  0  0  0  0  0  0  0
    4.0172    5.8960  -17.4590 N   0  3  0  0  0  0  0  0  0  0  0  0
    7.9411    2.9347  -18.2642 O   0  0  0  0  0  0  0  0  0  0  0  0
    6.0152   -2.6568  -14.6816 O   0  0  0  0  0  0  0  0  0  0  0  0
    3.7636    4.6980  -20.0142 O   0  0  0  0  0  0  0  0  0  0  0  0
    7.6084    7.6781  -18.5923 O   0  0  0  0  0  0  0  0  0  0  0  0
    8.8481    0.5302  -22.5458 F   0  0  0  0  0  0  0  0  0  0  0  0
    5.7030   -2.7364  -21.0253 F   0  0  0  0  0  0  0  0  0  0  0  0
    6.1334   -0.3652  -17.4802 H   0  0  0  0  0  0  0  0  0  0  0  0
    8.9166    2.5020  -15.8596 H   0  0  0  0  0  0  0  0  0  0  0  0
    8.4299   -1.3351  -13.9650 H   0  0  0  0  0  0  0  0  0  0  0  0
    7.0791    2.2807  -21.6951 H   0  0  0  0  0  0  0  0  0  0  0  0
    4.2741   -0.6663  -20.2582 H   0  0  0  0  0  0  0  0  0  0  0  0
    7.9763   -1.9156  -22.0754 H   0  0  0  0  0  0  0  0  0  0  0  0
    5.1214    8.3223  -18.0496 H   0  0  0  0  0  0  0  0  0  0  0  0
    6.0364    8.4687  -16.5108 H   0  0  0  0  0  0  0  0  0  0  0  0
    5.6826    6.3004  -19.6119 H   0  0  0  0  0  0  0  0  0  0  0  0
    6.9406    5.1383  -19.0698 H   0  0  0  0  0  0  0  0  0  0  0  0
    5.0099    6.3950  -15.6654 H   0  0  0  0  0  0  0  0  0  0  0  0
    3.7269    7.5445  -16.1745 H   0  0  0  0  0  0  0  0  0  0  0  0
    7.2527    6.3808  -16.9847 H   0  0  0  0  0  0  0  0  0  0  0  0
    5.5320    4.4393  -17.1674 H   0  0  0  0  0  0  0  0  0  0  0  0
    9.2781    1.4836  -12.9139 H   0  0  0  0  0  0  0  0  0  0  0  0
   10.3309    0.1113  -13.3983 H   0  0  0  0  0  0  0  0  0  0  0  0
   10.5296    1.7158  -14.1812 H   0  0  0  0  0  0  0  0  0  0  0  0
    2.3278   -3.6610  -18.2112 H   0  0  0  0  0  0  0  0  0  0  0  0
    3.3048   -5.1683  -18.2241 H   0  0  0  0  0  0  0  0  0  0  0  0
    2.8334   -4.4168  -16.6621 H   0  0  0  0  0  0  0  0  0  0  0  0
   10.0337   -5.2338  -16.8673 H   0  0  0  0  0  0  0  0  0  0  0  0
    9.9446   -3.4645  -16.5703 H   0  0  0  0  0  0  0  0  0  0  0  0
    8.6675   -4.5493  -15.9232 H   0  0  0  0  0  0  0  0  0  0  0  0
    9.8426    7.9663  -19.9929 H   0  0  0  0  0  0  0  0  0  0  0  0
    9.3821    9.5444  -19.2691 H   0  0  0  0  0  0  0  0  0  0  0  0
   10.8229    8.6625  -18.6585 H   0  0  0  0  0  0  0  0  0  0  0  0
    8.2471    8.1269  -15.9958 H   0  0  0  0  0  0  0  0  0  0  0  0
    9.8951    8.7574  -16.3318 H   0  0  0  0  0  0  0  0  0  0  0  0
    8.4542    9.6393  -16.9424 H   0  0  0  0  0  0  0  0  0  0  0  0
    4.3387    2.6228  -21.3570 H   0  0  0  0  0  0  0  0  0  0  0  0
    3.7447    1.5751  -20.0242 H   0  0  0  0  0  0  0  0  0  0  0  0
    4.6973   -3.1885  -18.7562 H   0  0  0  0  0  0  0  0  0  0  0  0
    4.2259   -2.4370  -17.1943 H   0  0  0  0  0  0  0  0  0  0  0  0
    9.2411   -4.0239  -18.8963 H   0  0  0  0  0  0  0  0  0  0  0  0
    7.9640   -5.1087  -18.2492 H   0  0  0  0  0  0  0  0  0  0  0  0
    5.1954   -4.5209  -16.0350 H   0  0  0  0  0  0  0  0  0  0  0  0
    5.8772   -4.9873  -17.6301 H   0  0  0  0  0  0  0  0  0  0  0  0
    8.1782   -2.0864  -17.7670 H   0  0  0  0  0  0  0  0  0  0  0  0
    7.0268   -2.8985  -18.8812 H   0  0  0  0  0  0  0  0  0  0  0  0
    3.5723    3.4724  -18.3494 H   0  0  0  0  0  0  0  0  0  0  0  0
    6.1819    3.4390  -19.9450 H   0  0  0  0  0  0  0  0  0  0  0  0
    9.3638    6.8381  -17.8213 H   0  0  0  0  0  0  0  0  0  0  0  0
    5.1680    1.4737  -17.9176 H   0  0  0  0  0  0  0  0  0  0  0  0
    3.3327    5.3473  -16.9790 H   0  0  0  0  0  0  0  0  0  0  0  0
    3.5856    6.3709  -18.2260 H   0  0  0  0  0  0  0  0  0  0  0  0
    3.3286    4.0837  -20.5937 H   0  0  0  0  0  0  0  0  0  0  0  0
  1  7  1  0  0  0  0
  1  8  2  0  0  0  0
  2  7  2  0  0  0  0
  2  9  1  0  0  0  0
  3  8  1  0  0  0  0
  3  9  2  0  0  0  0
  4 10  1  0  0  0  0
  4 11  2  0  0  0  0
  5 10  2  0  0  0  0
  5 12  1  0  0  0  0
  6 11  1  0  0  0  0
  6 12  2  0  0  0  0
  7 13  1  0  0  0  0
  8 14  1  0  0  0  0
  9 20  1  0  0  0  0
 10 25  1  0  0  0  0
 11 40  1  0  0  0  0
 12 41  1  0  0  0  0
 13 33  1  0  0  0  0
 13 36  2  0  0  0  0
 14 34  1  0  0  0  0
 14 37  2  0  0  0  0
 15 17  1  0  0  0  0
 15 18  1  0  0  0  0
 16 18  1  0  0  0  0
 16 19  1  0  0  0  0
 17 35  1  0  0  0  0
 18 39  1  0  0  0  0
 19 30  1  0  0  0  0
 19 35  1  0  0  0  0
 21 26  1  0  0  0  0
 22 27  1  0  0  0  0
 23 32  1  0  0  0  0
 24 32  1  0  0  0  0
 25 31  1  0  0  0  0
 26 28  1  0  0  0  0
 27 29  1  0  0  0  0
 28 34  1  0  0  0  0
 29 34  1  0  0  0  0
 30 31  1  0  0  0  0
 30 38  1  0  0  0  0
 31 33  1  0  0  0  0
 32 39  1  0  0  0  0
  1 42  1  0  0  0  0
  2 43  1  0  0  0  0
  3 44  1  0  0  0  0
  4 45  1  0  0  0  0
  5 46  1  0  0  0  0
  6 47  1  0  0  0  0
 15 48  1  0  0  0  0
 15 49  1  0  0  0  0
 16 50  1  0  0  0  0
 16 51  1  0  0  0  0
 17 52  1  0  0  0  0
 17 53  1  0  0  0  0
 18 54  1  0  0  0  0
 19 55  1  0  0  0  0
 20 56  1  0  0  0  0
 20 57  1  0  0  0  0
 20 58  1  0  0  0  0
 21 59  1  0  0  0  0
 21 60  1  0  0  0  0
 21 61  1  0  0  0  0
 22 62  1  0  0  0  0
 22 63  1  0  0  0  0
 22 64  1  0  0  0  0
 23 65  1  0  0  0  0
 23 66  1  0  0  0  0
 23 67  1  0  0  0  0
 24 68  1  0  0  0  0
 24 69  1  0  0  0  0
 24 70  1  0  0  0  0
 25 71  1  0  0  0  0
 25 72  1  0  0  0  0
 26 73  1  0  0  0  0
 26 74  1  0  0  0  0
 27 75  1  0  0  0  0
 27 76  1  0  0  0  0
 28 77  1  0  0  0  0
 28 78  1  0  0  0  0
 29 79  1  0  0  0  0
 29 80  1  0  0  0  0
 30 81  1  0  0  0  0
 31 82  1  0  0  0  0
 32 83  1  0  0  0  0
 33 84  1  0  0  0  0
 35 85  1  0  0  0  0
 35 86  1  0  0  0  0
 38 87  1  0  0  0  0
M  CHG  1  35   1
M  END
> <OMEGA_C>
1xXcQNYawL0w+IXB+C4HQQS4wz/MN33Bje4CQRSVJb9wKGzBzsLZQM6onz8YVazBPMKmQLN0177I
4qXByOHpQIgwkL/JGK7BJofvQBTalj+oW4bBWsHnQGB3gb9z0nvBPNoMQY1NHT8HDW3B4lWyQGkv
bT8OcKfBc5T1QGhfYj6mmq/BDFTCQPr6uL8nUqnBsJ7jQDV3CEBAxo7BjhHUQMDcFcCiJnvBhi6z
QCFn+EB224nBS1nEQMjwuUA15pXBnIuRQHPg3EDUM4TBXNzWQILS20A6e47BgsuhQHamn0A78Y/B
7dkcQYIGgT/nFVzB/U1IQKTohsAYno3BJbIVQbX0i8BSGobBweMcQWbPCEFOfpjBsggOQXhUCkHb
3YXBC2eUQD+AAUD136PBqP2MQNjoWMC6t43B7MQIQXBGhsAlepDBKkyxQCWchMCZEojBEe3yQCgC
QMC0io/BZl6LQJNEf0ATZZfBibqqQAqjO0CwrJvBaNIOQTJg+kCtSZDBkCi6QAyNBkBow5LBKWPU
QOP/S8Bnj4bBtoyAQDmsvEAarIvBxR3+QMTSO0AUHZLBZHzAQH4IKsC852rBJN9wQFhWlkD+HKDB
FXjzQGez9UAJvZTB8ZENQTS4Bz/bXbTB+362QF0hL8DYM6jBlETEQO76ur5x14vBT6oOQbcgIEDW
wH3B2OAGQRblqr+4cF/BmYfiQC72EUCSj63Bn8WIQHeTKr/hEKLBkj3/QHkz9b9hmrDBkeKjQEIo
BUGNZZDBUirBQOF/B0EHFoTBBdi1QJecyUAi5ZzBOBneQCNtpEDujpjBTFGgQLyjzECApXrBcIVu
QEhs8UBqZYHBfhboQLwvzECf4IfB6wWxQPkOjkDEVonBEHMUQb3nvT9Tn07BdUslQW774z2TX1bB
ZnkoQU+e2z9O5mLBavsUQKNOasCEsJHBToJTQHtipcDcypHB5FU1QHNWjcD9S4XB/YkgQeN6p8Ay
8IbB+hwfQU+6XcAMkITB5q0KQfWTkcBXxX7BJHsdQQns/kB68Z/B7BwWQei1GEEVJ5rBvCotQZaZ
CkGoRJXBG/QDQdIHAkGl7n/BU1IeQWUeDEGGp4LBhEQHQbg6GkHziYfBptaKQGTbJ0Af26rBnKhv
QGKdyT+nMaDBglCWQJwPTMDMDJbBTTqHQIv3G8DtjYnBktsTQfzDgMC1K5fB/Nj+QMp6o8BU/pHB
xECmQJqrkMCuR4DBERK8QKWXn8B2Co3BxdkCQduHBcDVIo7BVtvgQJ2AOcDLDJfBcqBkQI48XkCU
y5LBLdLFQGEZXEB2j5/BP9IVQXTR2kADko7BlWClQL+hvD84V4/BU0tVQDQdq0D51IfBU3plQCPe
y0DgzpHBKQhVQIWtgkDZv6TBFjjcQNjuLb4LuIXBTgQIQU9UtD/2vHzBn6QCQWfOQb/qmmvByiLa
QNHtkT/ot6vB1mWkQO9b7b5Nm6XBuvrnQO9FoL+YCa3BIdrwQGJIiz+CHobBx0zmQLlYi7+0FHvB
pjcNQQxH+T5miWzB4a+xQMjhXT+rLafBgVX1QM46pD38l67Bd3a/QCDKwr8JkajBJ33kQOw/BUAB
QI7BRoTMQJ/cE8B/k3jBSGWxQFwB+UBwdovBmxzFQLfhuEBmbJbBFhiTQORo3UAlyoTBbcrWQHEs
3UCwk4/BByekQHlbnkDp34/Bud4cQTIlYT8JNVvBqHCCQGYMTcA4jY3BFuEQQR/He8BDepjBc0Yb
QbC+DUFg45jBX5IIQcesEEEHRYfBZQKVQANb/z/OsqPBchucQEOCkMAjx4zB1YEBQWsaR8Anm5HB
jB+3QH6Jk8BpaILBJq4AQbWhbcDXTobBIfGMQLFoekCa0ZbBDwisQE+pN0AKX5vB4iwNQRnEAUGt
0JDBgsC7QDqqAECeqZLBJkTXQOFlYcAXSoHBzm2CQM5jukDFaYvBYmL9QBuGPkDgwZDBfDesQMDX
DsApiW3BMoBuQHPBkkBuU5/B91DzQNRl9kCIGZbBdR4OQWpQrz4I1rLBHZKyQAwDM8D6CqfB4qrE
QNbl2r5VsovBGv8PQVpuF0DrTn3BT24GQdV7ur8/AF/BqCXkQExZCkBn+qzBM3SFQECOK7/DIaLB
5878QG1QBMDGRa/BIuafQPFEA0HdTpLBVBO+QK2QCUFCfYbBWky1QJVZxkAmh53Bq4vfQBXyo0Cv
8pjBqYmkQG8M0EBR1HvBc6xwQAcn8UAx54HBkAjoQJWkz0DmsIjBdwK1QK/MjUAeWonBRjkUQaKL
rz9/DU7BavckQeBepLyVHlXBsNEoQWNOyT9B1mHBHPhfQE5vTMBzC5XBDNVYQN1kSMAutobBd5iY
QGBZFsDPco3BB48RQbSQYMAilqDBA/EgQR5cesBy4pTBDDMLQXIpn8Bc55jB4K8eQVRFA0FawJ/B
r9sSQW4pHEHKrJvBfGMqQfVkEkEmBpXBv+78QNRGCEE7aoHBdr8XQZRQFUHpdoPBqTcAQQ0VH0GN
HYrBIKaMQDYHJ0CNsKrBYVNvQPJTyj8FJaDB0ZKFQHOKq8Ba9ozBwsCxQLSEksD7spPB2SsHQQmL
BMCQKZHBw9viQM+BSMB7LpXBkFChQJsmksCcBHfBeBbIQBthssATaYLBDwwEQddNmcDt0obBIe0M
QUuATsDOU4HBU/BqQNPtWEAZxZHBSwDHQBCzWEAKPJ/Bte0VQadM50C6543Bo6mnQMmjqT/YtI/B
YM1dQHCFqEDh6obB8NdjQBMTx0AifZHBJZpRQFzFfEC+qKPB

> <OMEGA_E>
gNRyPoTPsD4=

> <OMEGA_NBR>
     23531

$$$$
50209145
  -OEChem-04172616093D

 97100  0     1  0  0  0  0  0999 V2000
    6.9002   -0.0616  -16.7040 C   0  0  0  0  0  0  0  0  0  0  0  0
    8.5619    1.5145  -15.8565 C   0  0  0  0  0  0  0  0  0  0  0  0
    8.1904   -0.6029  -14.7067 C   0  0  0  0  0  0  0  0  0  0  0  0
    6.8145    1.0764  -21.5598 C   0  0  0  0  0  0  0  0  0  0  0  0
    5.2139   -0.4802  -20.5638 C   0  0  0  0  0  0  0  0  0  0  0  0
    7.2684   -1.3182  -21.5725 C   0  0  0  0  0  0  0  0  0  0  0  0
    7.5685    1.1788  -16.8038 C   0  0  0  0  0  0  0  0  0  0  0  0
    7.2077   -0.9487  -15.6541 C   0  0  0  0  0  0  0  0  0  0  0  0
    8.8822    0.6177  -14.8172 C   0  0  0  0  0  0  0  0  0  0  0  0
    5.5918    0.8331  -20.9009 C   0  0  0  0  0  0  0  0  0  0  0  0
    7.6536   -0.0001  -21.8934 C   0  0  0  0  0  0  0  0  0  0  0  0
    6.0489   -1.5559  -20.9054 C   0  0  0  0  0  0  0  0  0  0  0  0
    7.2005    2.1243  -17.8707 C   0  0  0  0  0  0  0  0  0  0  0  0
    6.4323   -2.1862  -15.4799 C   0  0  0  0  0  0  0  0  0  0  0  0
   11.9752    9.9044  -19.2281 C   0  0  0  0  0  0  0  0  0  0  0  0
   11.2486   10.7008  -18.1265 C   0  0  0  0  0  0  0  0  0  0  0  0
   10.9738    9.2429  -20.1938 C   0  0  0  0  0  0  0  0  0  0  0  0
   10.2900    9.7962  -17.3554 C   0  0  0  0  0  0  0  0  0  0  0  0
   10.0180    8.3306  -19.4257 C   0  0  0  0  0  0  0  0  0  0  0  0
    5.4726    7.6284  -17.1437 C   0  0  0  0  0  0  0  0  0  0  0  0
    6.1202    5.7572  -18.7012 C   0  0  0  0  0  0  0  0  0  0  0  0
    4.4419    6.7224  -16.4905 C   0  0  0  0  0  0  0  0  0  0  0  0
    9.2967    9.1395  -18.3214 C   0  0  0  0  0  0  0  0  0  0  0  0
    6.6233    6.7646  -17.6949 C   0  0  1  0  0  0  0  0  0  0  0  0
    5.0482    4.8919  -18.0169 C   0  0  2  0  0  0  0  0  0  0  0  0
    9.9026    1.0014  -13.7698 C   0  0  0  0  0  0  0  0  0  0  0  0
    3.6655   -3.0763  -17.4907 C   0  0  0  0  0  0  0  0  0  0  0  0
    9.6813   -4.3295  -17.9314 C   0  0  0  0  0  0  0  0  0  0  0  0
    4.7023    1.9796  -20.5206 C   0  0  0  0  0  0  0  0  0  0  0  0
    8.4318    8.2312  -17.4990 C   0  0  0  0  0  0  0  0  0  0  0  0
    4.4662   -4.3910  -17.4520 C   0  0  0  0  0  0  0  0  0  0  0  0
    8.6982   -3.9054  -16.8462 C   0  0  0  0  0  0  0  0  0  0  0  0
    5.5178   -4.3706  -16.3304 C   0  0  0  0  0  0  0  0  0  0  0  0
    7.4569   -3.2684  -17.4882 C   0  0  0  0  0  0  0  0  0  0  0  0
    4.4018    3.9242  -18.9982 C   0  0  2  0  0  0  0  0  0  0  0  0
    5.4111    2.8905  -19.5078 C   0  0  1  0  0  0  0  0  0  0  0  0
    5.9038    2.0836  -18.3764 N   0  0  0  0  0  0  0  0  0  0  0  0
    6.4052   -3.1903  -16.4643 N   0  0  0  0  0  0  0  0  0  0  0  0
    3.9694    5.7442  -17.4770 N   0  3  0  0  0  0  0  0  0  0  0  0
    8.0276    2.9252  -18.2929 O   0  0  0  0  0  0  0  0  0  0  0  0
    5.8128   -2.3199  -14.4307 O   0  0  0  0  0  0  0  0  0  0  0  0
    3.8532    4.6584  -20.0955 O   0  0  0  0  0  0  0  0  0  0  0  0
    7.5285    7.5893  -18.3754 O   0  0  0  0  0  0  0  0  0  0  0  0
    8.8258    0.2327  -22.5249 F   0  0  0  0  0  0  0  0  0  0  0  0
    5.6810   -2.8157  -20.5859 F   0  0  0  0  0  0  0  0  0  0  0  0
    6.1516   -0.3305  -17.4346 H   0  0  0  0  0  0  0  0  0  0  0  0
    9.0772    2.4608  -15.9290 H   0  0  0  0  0  0  0  0  0  0  0  0
    8.4138   -1.2765  -13.8926 H   0  0  0  0  0  0  0  0  0  0  0  0
    7.1051    2.0868  -21.8072 H   0  0  0  0  0  0  0  0  0  0  0  0
    4.2844   -0.6599  -20.0440 H   0  0  0  0  0  0  0  0  0  0  0  0
    7.9082   -2.1467  -21.8380 H   0  0  0  0  0  0  0  0  0  0  0  0
   12.6228   10.5881  -19.7966 H   0  0  0  0  0  0  0  0  0  0  0  0
   12.5901    9.1224  -18.7586 H   0  0  0  0  0  0  0  0  0  0  0  0
   11.9920   11.1169  -17.4307 H   0  0  0  0  0  0  0  0  0  0  0  0
   10.6794   11.5209  -18.5885 H   0  0  0  0  0  0  0  0  0  0  0  0
   10.3948   10.0246  -20.7073 H   0  0  0  0  0  0  0  0  0  0  0  0
   11.5252    8.6475  -20.9364 H   0  0  0  0  0  0  0  0  0  0  0  0
   10.8646    9.0145  -16.8368 H   0  0  0  0  0  0  0  0  0  0  0  0
    9.7377   10.3960  -16.6170 H   0  0  0  0  0  0  0  0  0  0  0  0
    9.2728    7.9149  -20.1198 H   0  0  0  0  0  0  0  0  0  0  0  0
   10.5875    7.5102  -18.9646 H   0  0  0  0  0  0  0  0  0  0  0  0
    5.0035    8.1867  -17.9673 H   0  0  0  0  0  0  0  0  0  0  0  0
    5.8665    8.3356  -16.3989 H   0  0  0  0  0  0  0  0  0  0  0  0
    5.6824    6.2795  -19.5646 H   0  0  0  0  0  0  0  0  0  0  0  0
    6.9517    5.1218  -19.0401 H   0  0  0  0  0  0  0  0  0  0  0  0
    4.9001    6.1962  -15.6402 H   0  0  0  0  0  0  0  0  0  0  0  0
    3.5938    7.3257  -16.1345 H   0  0  0  0  0  0  0  0  0  0  0  0
    8.6774    9.9179  -18.7911 H   0  0  0  0  0  0  0  0  0  0  0  0
    7.1128    6.2401  -16.8611 H   0  0  0  0  0  0  0  0  0  0  0  0
    5.5159    4.3211  -17.2011 H   0  0  0  0  0  0  0  0  0  0  0  0
    9.4024    1.5343  -12.9477 H   0  0  0  0  0  0  0  0  0  0  0  0
   10.3851    0.0937  -13.3782 H   0  0  0  0  0  0  0  0  0  0  0  0
   10.6633    1.6552  -14.2213 H   0  0  0  0  0  0  0  0  0  0  0  0
    2.9234   -3.1221  -18.3014 H   0  0  0  0  0  0  0  0  0  0  0  0
    3.1501   -2.9325  -16.5296 H   0  0  0  0  0  0  0  0  0  0  0  0
    4.3512   -2.2347  -17.6686 H   0  0  0  0  0  0  0  0  0  0  0  0
   10.5680   -4.7848  -17.4661 H   0  0  0  0  0  0  0  0  0  0  0  0
    9.1998   -5.0614  -18.5966 H   0  0  0  0  0  0  0  0  0  0  0  0
    9.9856   -3.4481  -18.5151 H   0  0  0  0  0  0  0  0  0  0  0  0
    4.4550    2.5612  -21.4209 H   0  0  0  0  0  0  0  0  0  0  0  0
    3.7776    1.5881  -20.0715 H   0  0  0  0  0  0  0  0  0  0  0  0
    9.0545    7.4822  -16.9881 H   0  0  0  0  0  0  0  0  0  0  0  0
    7.8765    8.8176  -16.7521 H   0  0  0  0  0  0  0  0  0  0  0  0
    3.7734   -5.2277  -17.2786 H   0  0  0  0  0  0  0  0  0  0  0  0
    4.9744   -4.5298  -18.4176 H   0  0  0  0  0  0  0  0  0  0  0  0
    8.3955   -4.7875  -16.2628 H   0  0  0  0  0  0  0  0  0  0  0  0
    9.1813   -3.1743  -16.1813 H   0  0  0  0  0  0  0  0  0  0  0  0
    5.0068   -4.3294  -15.3572 H   0  0  0  0  0  0  0  0  0  0  0  0
    6.1243   -5.2865  -16.3877 H   0  0  0  0  0  0  0  0  0  0  0  0
    7.7007   -2.2589  -17.8507 H   0  0  0  0  0  0  0  0  0  0  0  0
    7.1130   -3.8872  -18.3301 H   0  0  0  0  0  0  0  0  0  0  0  0
    3.5963    3.3883  -18.4749 H   0  0  0  0  0  0  0  0  0  0  0  0
    6.2478    3.4064  -20.0016 H   0  0  0  0  0  0  0  0  0  0  0  0
    5.2570    1.4591  -17.9385 H   0  0  0  0  0  0  0  0  0  0  0  0
    3.2887    5.1562  -17.0401 H   0  0  0  0  0  0  0  0  0  0  0  0
    3.5452    6.2383  -18.2359 H   0  0  0  0  0  0  0  0  0  0  0  0
    3.4492    4.0564  -20.7095 H   0  0  0  0  0  0  0  0  0  0  0  0
  1  7  1  0  0  0  0
  1  8  2  0  0  0  0
  2  7  2  0  0  0  0
  2  9  1  0  0  0  0
  3  8  1  0  0  0  0
  3  9  2  0  0  0  0
  4 10  1  0  0  0  0
  4 11  2  0  0  0  0
  5 10  2  0  0  0  0
  5 12  1  0  0  0  0
  6 11  1  0  0  0  0
  6 12  2  0  0  0  0
  7 13  1  0  0  0  0
  8 14  1  0  0  0  0
  9 26  1  0  0  0  0
 10 29  1  0  0  0  0
 11 44  1  0  0  0  0
 12 45  1  0  0  0  0
 13 37  1  0  0  0  0
 13 40  2  0  0  0  0
 14 38  1  0  0  0  0
 14 41  2  0  0  0  0
 15 16  1  0  0  0  0
 15 17  1  0  0  0  0
 16 18  1  0  0  0  0
 17 19  1  0  0  0  0
 18 23  1  0  0  0  0
 19 23  1  0  0  0  0
 20 22  1  0  0  0  0
 20 24  1  0  0  0  0
 21 24  1  0  0  0  0
 21 25  1  0  0  0  0
 22 39  1  0  0  0  0
 23 30  1  0  0  0  0
 24 43  1  0  0  0  0
 25 35  1  0  0  0  0
 25 39  1  0  0  0  0
 27 31  1  0  0  0  0
 28 32  1  0  0  0  0
 29 36  1  0  0  0  0
 30 43  1  0  0  0  0
 31 33  1  0  0  0  0
 32 34  1  0  0  0  0
 33 38  1  0  0  0  0
 34 38  1  0  0  0  0
 35 36  1  0  0  0  0
 35 42  1  0  0  0  0
 36 37  1  0  0  0  0
  1 46  1  0  0  0  0
  2 47  1  0  0  0  0
  3 48  1  0  0  0  0
  4 49  1  0  0  0  0
  5 50  1  0  0  0  0
  6 51  1  0  0  0  0
 15 52  1  0  0  0  0
 15 53  1  0  0  0  0
 16 54  1  0  0  0  0
 16 55  1  0  0  0  0
 17 56  1  0  0  0  0
 17 57  1  0  0  0  0
 18 58  1  0  0  0  0
 18 59  1  0  0  0  0
 19 60  1  0  0  0  0
 19 61  1  0  0  0  0
 20 62  1  0  0  0  0
 20 63  1  0  0  0  0
 21 64  1  0  0  0  0
 21 65  1  0  0  0  0
 22 66  1  0  0  0  0
 22 67  1  0  0  0  0
 23 68  1  0  0  0  0
 24 69  1  0  0  0  0
 25 70  1  0  0  0  0
 26 71  1  0  0  0  0
 26 72  1  0  0  0  0
 26 73  1  0  0  0  0
 27 74  1  0  0  0  0
 27 75  1  0  0  0  0
 27 76  1  0  0  0  0
 28 77  1  0  0  0  0
 28 78  1  0  0  0  0
 28 79  1  0  0  0  0
 29 80  1  0  0  0  0
 29 81  1  0  0  0  0
 30 82  1  0  0  0  0
 30 83  1  0  0  0  0
 31 84  1  0  0  0  0
 31 85  1  0  0  0  0
 32 86  1  0  0  0  0
 32 87  1  0  0  0  0
 33 88  1  0  0  0  0
 33 89  1  0  0  0  0
 34 90  1  0  0  0  0
 34 91  1  0  0  0  0
 35 92  1  0  0  0  0
 36 93  1  0  0  0  0
 37 94  1  0  0  0  0
 39 95  1  0  0  0  0
 39 96  1  0  0  0  0
 42 97  1  0  0  0  0
M  CHG  1  39   1
M  END
> <OMEGA_C>
Qc7cQHBdfL3eoYXBdf0IQQ7awT9GtH3BwwsDQe9WGr99TmvByhDaQPTHiT98eqzBMtimQLji9b6m
gqTBbpboQHq5qL9rlKzBXzHyQH7klj9BbobBkqXmQLbdcr9Hd3rBqx0OQWchHj81E23BW/CyQGZG
VT8SNafBBOr0QAAAgbiiJa/B0JDBQPomx79PPqfBImrmQOrzB0Ah947BFNXNQPTpC8DOrXfBbpo/
QUB4HkE405nBHfozQWA2K0EMA5HBiJQvQfbiE0HajKHB76MkQQi9HEHO14rB3kkgQTRKBUHRZ5vB
ix+vQAgc9EBNJonB6tjDQCs7uEAPnJXBKCSOQKQd10Ck7IPBL78UQXQ7EkFFkpLBLvLTQOp32EAf
j43BiIqhQDWKnECIIpDBKnEeQdEsgD8ZUVzBxpdqQKfhRMAF7YvBx+YaQeeKisCGc4/BgnmWQB5j
/T8uKqTBd+gGQTOzA0EJ/ovBw+qOQAyDjMCcnYvByysLQZjyecD9xIbB6pGwQJfbi8DCpILBK5/u
QAwuUcDG54vB7duMQMUme0Bf/JfBBSitQMn9OED7D5zBPey8QMZZBUDNApPBOPfMQNwtTMDvtoPB
Ewt+QMTQt0DP0IvB3nAAQTg3O0DwV5LB1QK6QOd5FMAj5GbB0Jp2QJERlUChw6DBqOnwQIzb8kC7
AJPBRzYNQds8bj4QM7TBEcu1QIk0NMDZr6TBiNnEQBAzqb4AeovBBzwRQYh+HUAq3X7BBp8GQa1j
o7/4R17B51zjQF6NBUAjda7BGBqJQDXvKL8DWqDBGBD9QMZjCcAntK7BK/dJQbtoKUFXX57B43BJ
QU31EUGWEZbBMN8/Qf7eMUEScovBrd4qQXdVOEFEtZTBDlEmQdZkIEGUqKXBQGc4QU9cCkGsfafB
fNUtQXw7EEHPsYbBlc0bQeJVJkGu74TBkV0UQXtG/UBr9aDBfGYpQYhT8ECFt5fBCB2gQNP8AkH+
vI/Brbq7QK5eBUEAMYPB/tW1QALyyEBPhJzBPHTeQI3lo0AxUpjBqs2cQORGxkAYPnrBawFmQERs
6kCNE4HB1dYKQeivHkEvVJbBTpzjQJSux0CJ44bBkYKwQNlGikDcm4nBYXAWQbhkxD/7KU/BKykm
QVXNvz1ADVbB4JwqQcnd0z+KimPBvBg7QAPQR8A5aZLBZJtJQDyuO8C2PITBoDyLQBwFD8BJWY3B
bRYpQR0dmcCCuovBcjITQbP2ocDHxZTB4MQfQa2tXMDdHpTBo4+OQC7rI0D9XavB18RxQFtFyz+I
kqDBHt8QQfJt70CK54fBBQz8QM0UDUFdBIbBIH9xQApJp8CXOorBfi6fQHr0kMApV5PBGFQGQXcz
mcBLGoLBhuYSQTQnS8Bgc4HB2TegQECKisAkt3XBffrDQJsqqcDzGYPBBWz2QKuREMAqzo7Byp3j
QDrIeMAFpJLBaSlmQBPaWECqzJPB5O3HQPcBWkBdA6DBjDmoQGbFuj8kgo/Bv3pSQIn/pEAMUojB
6ORiQMqfx0Af45HBnL9cQDvOgUD2rKXB

> <OMEGA_E>
tGW4Pg==

> <OMEGA_NBR>
     25430

$$$$
29073
  -OEChem-04172616093D

 67 69  0     1  0  0  0  0  0999 V2000
    6.7096   -1.3549  -21.6600 C   0  0  0  0  0  0  0  0  0  0  0  0
    7.3609   -0.1196  -21.4774 C   0  0  0  0  0  0  0  0  0  0  0  0
    5.3047   -1.4263  -21.5814 C   0  0  0  0  0  0  0  0  0  0  0  0
    6.6094    1.0434  -21.2148 C   0  0  0  0  0  0  0  0  0  0  0  0
    4.5512   -0.2663  -21.3027 C   0  0  0  0  0  0  0  0  0  0  0  0
    5.9926   -0.5344  -17.2060 C   0  0  0  0  0  0  0  0  0  0  0  0
    6.8813   -1.4794  -15.1417 C   0  0  0  0  0  0  0  0  0  0  0  0
    7.2262    0.8722  -15.6489 C   0  0  0  0  0  0  0  0  0  0  0  0
    6.1688   -1.6450  -16.3593 C   0  0  0  0  0  0  0  0  0  0  0  0
    6.5257    0.7149  -16.8533 C   0  0  0  0  0  0  0  0  0  0  0  0
    5.1989    0.9749  -21.1029 C   0  0  0  0  0  0  0  0  0  0  0  0
    7.4149   -0.2130  -14.7588 C   0  0  0  0  0  0  0  0  0  0  0  0
    5.5900   -2.9608  -16.7490 C   0  0  0  0  0  0  0  0  0  0  0  0
    6.3464    1.8606  -17.7425 C   0  0  0  0  0  0  0  0  0  0  0  0
    4.6974    8.4999  -21.0430 C   0  0  0  0  0  0  0  0  0  0  0  0
    5.5987    8.8244  -19.8376 C   0  0  0  0  0  0  0  0  0  0  0  0
    5.3800    7.3742  -20.2596 C   0  0  0  0  0  0  0  0  0  0  0  0
    3.9920   -4.2452  -18.2258 C   0  0  0  0  0  0  0  0  0  0  0  0
    8.6628    1.3702  -13.2358 C   0  0  0  0  0  0  0  0  0  0  0  0
    6.0102   -0.8180  -11.7737 C   0  0  0  0  0  0  0  0  0  0  0  0
    4.3783    2.2232  -20.7574 C   0  0  0  0  0  0  0  0  0  0  0  0
    4.1475    5.2647  -20.0176 C   0  0  0  0  0  0  0  0  0  0  0  0
    4.9599    2.9531  -19.5136 C   0  0  1  0  0  0  0  0  0  0  0  0
    4.1023    4.1267  -18.9911 C   0  0  2  0  0  0  0  0  0  0  0  0
    4.7477   -3.0414  -17.8606 N   0  0  0  0  0  0  0  0  0  0  0  0
    5.1562    1.9798  -18.4417 N   0  0  0  0  0  0  0  0  0  0  0  0
    8.0836    0.0129  -13.5151 N   0  0  1  0  0  0  0  0  0  0  0  0
    4.5737    6.5181  -19.3674 N   0  3  0  0  0  0  0  0  0  0  0  0
    5.8328   -3.9660  -16.0888 O   0  0  0  0  0  0  0  0  0  0  0  0
    7.2488    2.6824  -17.8705 O   0  0  0  0  0  0  0  0  0  0  0  0
    8.4647   -0.3918  -10.9569 O   0  0  0  0  0  0  0  0  0  0  0  0
    8.0436   -2.3958  -12.4330 O   0  0  0  0  0  0  0  0  0  0  0  0
    2.7499    3.7379  -18.7723 O   0  0  0  0  0  0  0  0  0  0  0  0
    7.7751   -0.9876  -12.1103 S   0  0  0  0  0  0  0  0  0  0  0  0
    7.2861   -2.2460  -21.8599 H   0  0  0  0  0  0  0  0  0  0  0  0
    8.4377   -0.0634  -21.5387 H   0  0  0  0  0  0  0  0  0  0  0  0
    4.8035   -2.3706  -21.7347 H   0  0  0  0  0  0  0  0  0  0  0  0
    7.1119    1.9923  -21.0982 H   0  0  0  0  0  0  0  0  0  0  0  0
    3.4746   -0.3266  -21.2418 H   0  0  0  0  0  0  0  0  0  0  0  0
    5.4452   -0.6441  -18.1304 H   0  0  0  0  0  0  0  0  0  0  0  0
    7.0220   -2.3305  -14.4919 H   0  0  0  0  0  0  0  0  0  0  0  0
    7.6303    1.8410  -15.3948 H   0  0  0  0  0  0  0  0  0  0  0  0
    3.6088    8.6402  -20.9707 H   0  0  0  0  0  0  0  0  0  0  0  0
    5.0316    8.7433  -22.0623 H   0  0  0  0  0  0  0  0  0  0  0  0
    6.5773    9.3015  -19.9950 H   0  0  0  0  0  0  0  0  0  0  0  0
    5.1544    9.1984  -18.9034 H   0  0  0  0  0  0  0  0  0  0  0  0
    6.2300    6.8932  -20.7658 H   0  0  0  0  0  0  0  0  0  0  0  0
    3.4079   -4.0497  -19.1372 H   0  0  0  0  0  0  0  0  0  0  0  0
    4.6905   -5.0750  -18.4091 H   0  0  0  0  0  0  0  0  0  0  0  0
    3.3111   -4.5137  -17.4047 H   0  0  0  0  0  0  0  0  0  0  0  0
    9.1371    1.3698  -12.2433 H   0  0  0  0  0  0  0  0  0  0  0  0
    9.4148    1.6123  -14.0012 H   0  0  0  0  0  0  0  0  0  0  0  0
    7.8609    2.1227  -13.2586 H   0  0  0  0  0  0  0  0  0  0  0  0
    5.7437   -1.4252  -10.8961 H   0  0  0  0  0  0  0  0  0  0  0  0
    5.7749    0.2379  -11.5740 H   0  0  0  0  0  0  0  0  0  0  0  0
    5.4358   -1.1629  -12.6462 H   0  0  0  0  0  0  0  0  0  0  0  0
    4.3927    2.9108  -21.6160 H   0  0  0  0  0  0  0  0  0  0  0  0
    3.3415    1.9234  -20.5451 H   0  0  0  0  0  0  0  0  0  0  0  0
    4.8608    5.0076  -20.8145 H   0  0  0  0  0  0  0  0  0  0  0  0
    3.1463    5.4026  -20.4520 H   0  0  0  0  0  0  0  0  0  0  0  0
    5.9405    3.3612  -19.8001 H   0  0  0  0  0  0  0  0  0  0  0  0
    4.5457    4.4875  -18.0513 H   0  0  0  0  0  0  0  0  0  0  0  0
    4.6544   -2.2324  -18.4409 H   0  0  0  0  0  0  0  0  0  0  0  0
    4.3983    1.3731  -18.2022 H   0  0  0  0  0  0  0  0  0  0  0  0
    5.1203    6.2911  -18.5613 H   0  0  0  0  0  0  0  0  0  0  0  0
    3.7596    7.0259  -19.0858 H   0  0  0  0  0  0  0  0  0  0  0  0
    2.7217    3.0327  -18.1363 H   0  0  0  0  0  0  0  0  0  0  0  0
  1  2  1  0  0  0  0
  1  3  2  0  0  0  0
  2  4  2  0  0  0  0
  3  5  1  0  0  0  0
  4 11  1  0  0  0  0
  5 11  2  0  0  0  0
  6  9  1  0  0  0  0
  6 10  2  0  0  0  0
  7  9  2  0  0  0  0
  7 12  1  0  0  0  0
  8 10  1  0  0  0  0
  8 12  2  0  0  0  0
  9 13  1  0  0  0  0
 10 14  1  0  0  0  0
 11 21  1  0  0  0  0
 12 27  1  0  0  0  0
 13 25  1  0  0  0  0
 13 29  2  0  0  0  0
 14 26  1  0  0  0  0
 14 30  2  0  0  0  0
 15 16  1  0  0  0  0
 15 17  1  0  0  0  0
 16 17  1  0  0  0  0
 17 28  1  0  0  0  0
 18 25  1  0  0  0  0
 19 27  1  0  0  0  0
 20 34  1  0  0  0  0
 21 23  1  0  0  0  0
 22 24  1  0  0  0  0
 22 28  1  0  0  0  0
 23 24  1  0  0  0  0
 23 26  1  0  0  0  0
 24 33  1  0  0  0  0
 27 34  1  0  0  0  0
 31 34  2  0  0  0  0
 32 34  2  0  0  0  0
  1 35  1  0  0  0  0
  2 36  1  0  0  0  0
  3 37  1  0  0  0  0
  4 38  1  0  0  0  0
  5 39  1  0  0  0  0
  6 40  1  0  0  0  0
  7 41  1  0  0  0  0
  8 42  1  0  0  0  0
 15 43  1  0  0  0  0
 15 44  1  0  0  0  0
 16 45  1  0  0  0  0
 16 46  1  0  0  0  0
 17 47  1  0  0  0  0
 18 48  1  0  0  0  0
 18 49  1  0  0  0  0
 18 50  1  0  0  0  0
 19 51  1  0  0  0  0
 19 52  1  0  0  0  0
 19 53  1  0  0  0  0
 20 54  1  0  0  0  0
 20 55  1  0  0  0  0
 20 56  1  0  0  0  0
 21 57  1  0  0  0  0
 21 58  1  0  0  0  0
 22 59  1  0  0  0  0
 22 60  1  0  0  0  0
 23 61  1  0  0  0  0
 24 62  1  0  0  0  0
 25 63  1  0  0  0  0
 26 64  1  0  0  0  0
 28 65  1  0  0  0  0
 28 66  1  0  0  0  0
 33 67  1  0  0  0  0
M  CHG  1  28   1
M  END
> <OMEGA_C>
GLXWQLFtrb+oR63BMozrQMTn9L240avB17+pQG2Ptr+2pqzBnYDTQPyOhT/ct6nBSqORQE9XiL4F
bKrBwsO/QAzOCL/WpYnBSDPcQKxdvb9cRHLBbD3nQDpFXz/QYXrBwGbFQOyO0r/e34LB0NLQQIwD
Nz+l04bBj12mQKyUeT+10qjBNkftQI4YWr7aI2zB+eCyQHh9PcD7/YXBpBXLQLcp7j+W8I3BOFGW
QLf/B0EIWKjBnyizQJ0wDUFZs57BuCisQHD560DAE6LBwnx/QMXYh8B1zpHB6ZoKQalhrz++xVPB
QVPAQIZmUb8fYTzBXhuMQKNJDkA4D6bBHLiEQHJ4qEAEJKDBzLeeQEQAPUDeG5zBQ0aDQAwOhEDU
7ZfBVu2XQOqmQsCb4o7Bpf+kQMpq/T+aiJPBO1YBQeDiUzypPVjB9luSQD2U0EBm8JrBCqa6QIrS
fcDUtYDB8PXnQKqsK0DB9o7Bgm8HQVmdyL5OTy/BsbIAQRFUGcB17UbBvP4vQP04b0CVLZbBtM34
QNTVfL+xw0HBDCjpQIG+D8AU4a7BpgAHQZ/ugb1TT6zBebaZQHi3F8DA4K3BSJTjQDoE/z8FyajB
tl9eQPU1p74r76nB6T6uQLbmJL8kC5HBDbTgQMAmFcCn3mfBQCv0QE6k6z/mUHbBUPZmQBk+CkEV
xKfB8wKhQGPkC0Gxf7DB43jSQPzSFEG99Z/BF/GkQLIsE0EhOpfBD1zHQG2V3EBFIKbBfRtaQByX
gcAAGZnBfhiWQD9mosC/RZPBuOhTQPNvkMC8PIvBcjESQS1Xrz9n5EPB5qIWQTJhzj8NBWDBNoz7
QM/aB0AZI1TBOsy3QGxttr9VVi7BWsy4QJGScz4WLznBVvKtQMfZlL+uVkrB6ZCMQDVKOkCC7azB
VttVQBIz9j9KXKTBYoubQP49oEAhhKbBq11JQL7hrEC7naPBWxi+QDgdV0CTZp7BQXaRQDmZj0AJ
aZDBOfGUQA7fDsD5hpPBfb6MQFXArz8unpHBc9mjQGFQyUCbfZTBspxwQCzU4EDEr5jBzS8uQB8Y
QkAQF5HBNrnQQLoZpb9CU63BSEPmQFPkeb3dL6zBof6jQKikrL/e/KvBvx/PQDjtjT/Ku6nBjdKM
QB+iOr4TZanBvwjDQJaiD79l5onBbtzfQDAjw79QD3PB6rzqQBwIVj+9x3rBsbfIQIYI178WNoPB
DGDUQApKLz98BYfBJ0CiQCvnhj8wLqjBwvHvQIa7gb5nt2zBgRi1QDzbPsBvNobB6I/NQBLb6z82
243BcAS5QOqKDEHXDZXBHqzOQHnP/0DmGZ7B2RafQPHP+ECRj5vBYsF7QC/7hsD1KZHB0yAPQcrJ
lz+a71TBMV4NQdNqHcBdTEPBOjeJQEOpE0A156TBPnCLQPycrEBI2ZzB1VGeQFfiPkDiC5vBoumE
QCOMhEDP/pXB52WXQF/wQcD8jY7Ba1qmQAe0/D9X45LBg+wBQct0Kr2zpVjByTKRQDH50UDsz5XB
qO+9QH0EgMCwNIHBM+3pQGyeK0C05o7BqWzLQP9iwb8ElUTBsbABQQi0hL6+LC/BbN4wQBQgdkDu
GZXB8ZT3QBiygr8LZ0LBlnfiQMjkC8CEOK/BEUcEQROjebwaMq3B2WqTQCZ7EsAP86zBjLDfQLdd
A0B4CKnByiBVQNMyb74hVajBQkixQFgbKb8tRZHBlF3lQByYGMCN+GjBriL4QPEa5j+DqHbB0RnB
QG4WCUFPqozB5AqzQN3IHUH7/pXBvCPYQLITCEHuhqXBqTLmQIXC5kBCMpzBRWOIQHBBA0FOWaHB
/glSQMLmf8D6B5jBAluTQCSqocDeMJPB60FUQJbVj8BKOYrBHXwVQa8dlj95hkTBrnscQRWBmj/q
ZGDBjh4FQU0cBUCdKlfBrRcKQdgmR8APgjXBCJQKQfklQcBBNFLBWh0eQa/hB8Bgu0LB9eGIQLki
QUDUnqvBUV9QQEt3AUDy4aLBPwSoQPqMqECS4qHBeH5eQN+PsUCR+KHBNkO9QC7sWEBusZ3BwEKS
QKnMikAIAY7BikuTQA1eDcATAJPBGqOOQOY7rT8d2JDB90anQD7HykDTTpDBE6tqQC8r2EA9MpLB
A2kpQKZYRECd1pDB

> <OMEGA_E>
7Lp+P2BoXj8=

> <OMEGA_NBR>
      2457

$$$$
29083
  -OEChem-04172616093D

 75 78  0     1  0  0  0  0  0999 V2000
    6.5481   -1.4764  -21.5178 C   0  0  0  0  0  0  0  0  0  0  0  0
    7.2584   -0.2859  -21.2661 C   0  0  0  0  0  0  0  0  0  0  0  0
    5.1394   -1.4722  -21.5056 C   0  0  0  0  0  0  0  0  0  0  0  0
    6.5605    0.9086  -20.9997 C   0  0  0  0  0  0  0  0  0  0  0  0
    4.4398   -0.2827  -21.2250 C   0  0  0  0  0  0  0  0  0  0  0  0
    6.0334   -0.5591  -17.2502 C   0  0  0  0  0  0  0  0  0  0  0  0
    6.9919   -1.5784  -15.2561 C   0  0  0  0  0  0  0  0  0  0  0  0
    7.3629    0.7844  -15.7083 C   0  0  0  0  0  0  0  0  0  0  0  0
    6.2162   -1.7006  -16.4452 C   0  0  0  0  0  0  0  0  0  0  0  0
    6.6235    0.6691  -16.8934 C   0  0  0  0  0  0  0  0  0  0  0  0
    5.1443    0.9104  -20.9550 C   0  0  0  0  0  0  0  0  0  0  0  0
    7.5245   -0.3208  -14.8456 C   0  0  0  0  0  0  0  0  0  0  0  0
    5.6166   -3.0146  -16.8460 C   0  0  0  0  0  0  0  0  0  0  0  0
    6.4212    1.8464  -17.7358 C   0  0  0  0  0  0  0  0  0  0  0  0
    2.3070   -4.1476  -16.9142 C   0  0  0  0  0  0  0  0  0  0  0  0
    3.2898   -5.2327  -17.3659 C   0  0  0  0  0  0  0  0  0  0  0  0
    3.0459   -2.7993  -17.1054 C   0  0  0  0  0  0  0  0  0  0  0  0
    4.1755   -4.5309  -18.3984 C   0  0  0  0  0  0  0  0  0  0  0  0
    5.1737    8.4654  -17.6950 C   0  0  0  0  0  0  0  0  0  0  0  0
    6.3143    7.5327  -18.1252 C   0  0  0  0  0  0  0  0  0  0  0  0
    4.3848   -3.1116  -17.8316 C   0  0  0  0  0  0  0  0  0  0  0  0
    4.8507    7.1486  -18.3905 C   0  0  0  0  0  0  0  0  0  0  0  0
    8.9877    1.1015  -13.3483 C   0  0  0  0  0  0  0  0  0  0  0  0
    8.9414   -2.4770  -12.1454 C   0  0  0  0  0  0  0  0  0  0  0  0
    4.3629    2.1847  -20.6496 C   0  0  0  0  0  0  0  0  0  0  0  0
    4.6797    4.7720  -17.7641 C   0  0  0  0  0  0  0  0  0  0  0  0
    4.9411    2.9523  -19.4383 C   0  0  1  0  0  0  0  0  0  0  0  0
    3.9900    4.0520  -18.9457 C   0  0  2  0  0  0  0  0  0  0  0  0
    5.1883    2.0053  -18.3486 N   0  0  0  0  0  0  0  0  0  0  0  0
    8.1742   -0.1327  -13.5942 N   0  0  3  0  0  0  0  0  0  0  0  0
    4.1827    6.1364  -17.5436 N   0  3  0  0  0  0  0  0  0  0  0  0
    6.1053   -4.0423  -16.3890 O   0  0  0  0  0  0  0  0  0  0  0  0
    7.3300    2.6558  -17.8958 O   0  0  0  0  0  0  0  0  0  0  0  0
    6.4319   -1.6530  -12.3553 O   0  0  0  0  0  0  0  0  0  0  0  0
    8.0617   -0.2729  -10.9972 O   0  0  0  0  0  0  0  0  0  0  0  0
    3.7209    4.9354  -20.0337 O   0  0  0  0  0  0  0  0  0  0  0  0
    7.7793   -1.0907  -12.1861 S   0  0  0  0  0  0  0  0  0  0  0  0
    7.0836   -2.3922  -21.7199 H   0  0  0  0  0  0  0  0  0  0  0  0
    8.3384   -0.2891  -21.2775 H   0  0  0  0  0  0  0  0  0  0  0  0
    4.5955   -2.3821  -21.7118 H   0  0  0  0  0  0  0  0  0  0  0  0
    7.1062    1.8249  -20.8291 H   0  0  0  0  0  0  0  0  0  0  0  0
    3.3598   -0.2833  -21.2163 H   0  0  0  0  0  0  0  0  0  0  0  0
    5.4363   -0.6261  -18.1476 H   0  0  0  0  0  0  0  0  0  0  0  0
    7.1801   -2.4552  -14.6542 H   0  0  0  0  0  0  0  0  0  0  0  0
    7.8148    1.7312  -15.4520 H   0  0  0  0  0  0  0  0  0  0  0  0
    1.3963   -4.1756  -17.5305 H   0  0  0  0  0  0  0  0  0  0  0  0
    2.0389   -4.2903  -15.8570 H   0  0  0  0  0  0  0  0  0  0  0  0
    3.8902   -5.5930  -16.5175 H   0  0  0  0  0  0  0  0  0  0  0  0
    2.7545   -6.0787  -17.8217 H   0  0  0  0  0  0  0  0  0  0  0  0
    2.4355   -2.1176  -17.7160 H   0  0  0  0  0  0  0  0  0  0  0  0
    3.2458   -2.3364  -16.1278 H   0  0  0  0  0  0  0  0  0  0  0  0
    5.1380   -5.0529  -18.5033 H   0  0  0  0  0  0  0  0  0  0  0  0
    3.6730   -4.4883  -19.3760 H   0  0  0  0  0  0  0  0  0  0  0  0
    4.9423    8.5937  -16.6273 H   0  0  0  0  0  0  0  0  0  0  0  0
    5.0149    9.4180  -18.2217 H   0  0  0  0  0  0  0  0  0  0  0  0
    6.9709    7.8141  -18.9618 H   0  0  0  0  0  0  0  0  0  0  0  0
    6.8982    6.9898  -17.3674 H   0  0  0  0  0  0  0  0  0  0  0  0
    4.5278   -2.4007  -18.6587 H   0  0  0  0  0  0  0  0  0  0  0  0
    4.5169    7.2227  -19.4360 H   0  0  0  0  0  0  0  0  0  0  0  0
    9.4083    1.0677  -12.3325 H   0  0  0  0  0  0  0  0  0  0  0  0
    9.8055    1.1538  -14.0821 H   0  0  0  0  0  0  0  0  0  0  0  0
    8.3464    1.9895  -13.4501 H   0  0  0  0  0  0  0  0  0  0  0  0
    8.7282   -3.1093  -11.2708 H   0  0  0  0  0  0  0  0  0  0  0  0
    8.8333   -3.0730  -13.0636 H   0  0  0  0  0  0  0  0  0  0  0  0
    9.9694   -2.0917  -12.0773 H   0  0  0  0  0  0  0  0  0  0  0  0
    4.3964    2.8402  -21.5323 H   0  0  0  0  0  0  0  0  0  0  0  0
    3.3187    1.9157  -20.4321 H   0  0  0  0  0  0  0  0  0  0  0  0
    4.5071    4.1857  -16.8496 H   0  0  0  0  0  0  0  0  0  0  0  0
    5.7593    4.8228  -17.9688 H   0  0  0  0  0  0  0  0  0  0  0  0
    5.8896    3.4190  -19.7422 H   0  0  0  0  0  0  0  0  0  0  0  0
    3.0599    3.5877  -18.5862 H   0  0  0  0  0  0  0  0  0  0  0  0
    4.4258    1.4425  -18.0294 H   0  0  0  0  0  0  0  0  0  0  0  0
    4.3320    6.3771  -16.5845 H   0  0  0  0  0  0  0  0  0  0  0  0
    3.2029    6.1530  -17.7428 H   0  0  0  0  0  0  0  0  0  0  0  0
    3.2985    4.4545  -20.7357 H   0  0  0  0  0  0  0  0  0  0  0  0
  1  2  1  0  0  0  0
  1  3  2  0  0  0  0
  2  4  2  0  0  0  0
  3  5  1  0  0  0  0
  4 11  1  0  0  0  0
  5 11  2  0  0  0  0
  6  9  1  0  0  0  0
  6 10  2  0  0  0  0
  7  9  2  0  0  0  0
  7 12  1  0  0  0  0
  8 10  1  0  0  0  0
  8 12  2  0  0  0  0
  9 13  1  0  0  0  0
 10 14  1  0  0  0  0
 11 25  1  0  0  0  0
 12 30  1  0  0  0  0
 13 21  1  0  0  0  0
 13 32  2  0  0  0  0
 14 29  1  0  0  0  0
 14 33  2  0  0  0  0
 15 16  1  0  0  0  0
 15 17  1  0  0  0  0
 16 18  1  0  0  0  0
 17 21  1  0  0  0  0
 18 21  1  0  0  0  0
 19 20  1  0  0  0  0
 19 22  1  0  0  0  0
 20 22  1  0  0  0  0
 22 31  1  0  0  0  0
 23 30  1  0  0  0  0
 24 37  1  0  0  0  0
 25 27  1  0  0  0  0
 26 28  1  0  0  0  0
 26 31  1  0  0  0  0
 27 28  1  0  0  0  0
 27 29  1  0  0  0  0
 28 36  1  0  0  0  0
 30 37  1  0  0  0  0
 34 37  2  0  0  0  0
 35 37  2  0  0  0  0
  1 38  1  0  0  0  0
  2 39  1  0  0  0  0
  3 40  1  0  0  0  0
  4 41  1  0  0  0  0
  5 42  1  0  0  0  0
  6 43  1  0  0  0  0
  7 44  1  0  0  0  0
  8 45  1  0  0  0  0
 15 46  1  0  0  0  0
 15 47  1  0  0  0  0
 16 48  1  0  0  0  0
 16 49  1  0  0  0  0
 17 50  1  0  0  0  0
 17 51  1  0  0  0  0
 18 52  1  0  0  0  0
 18 53  1  0  0  0  0
 19 54  1  0  0  0  0
 19 55  1  0  0  0  0
 20 56  1  0  0  0  0
 20 57  1  0  0  0  0
 21 58  1  0  0  0  0
 22 59  1  0  0  0  0
 23 60  1  0  0  0  0
 23 61  1  0  0  0  0
 23 62  1  0  0  0  0
 24 63  1  0  0  0  0
 24 64  1  0  0  0  0
 24 65  1  0  0  0  0
 25 66  1  0  0  0  0
 25 67  1  0  0  0  0
 26 68  1  0  0  0  0
 26 69  1  0  0  0  0
 27 70  1  0  0  0  0
 28 71  1  0  0  0  0
 29 72  1  0  0  0  0
 31 73  1  0  0  0  0
 31 74  1  0  0  0  0
 36 75  1  0  0  0  0
M  CHG  1  31   1
M  END
> <OMEGA_C>
7onRQHH5vL9eJKzB70ToQERlkr4NIarBUHakQIlvvL+SC6zB2u/RQOqbaD9R/6fB7xKOQBvBkL7I
zKnBwRHBQHUeD79qAIrBtr3fQEAKyr/+GHTB8pzrQAXNSD8pVXvBI+vGQHat2b/Zj4PB/vPTQOtG
Kz/FJYfB252kQLgQaT/Ko6fBu8jwQFs9pL5jh23BFLuzQI/uQMChxIbBfnrNQANX7D/h4o3BqqYT
QA25hMA7UIfB2IxSQExyp8BT7YrBR/BCQAknM8Dy14jBYZ2FQNj8kMAAMJPBwo6lQD5yB0Fnj43B
9Q7KQBcM8UCDAJHBU1CMQLckR8ASp47BpTibQKnB5EDAH5PBgM0PQQz/jD+6klXB9A8PQaqHHsCD
U0LB25yLQB7SC0BjMqXBcMCVQDO0mED3HI7BGx2eQBvyPECggZvBF1x/QB+qgUDJkJfBVgamQDBW
AEAJypLBtMkCQYzhB77sgVnBntiFQLldxEA3WYzBX17DQO1agcCUHIPBho/qQCP4KUCQKo/ByNHN
QDmV079/r0XB4vwAQcq/i75k9C/BZyNuQB3vnUAORaDB3+/4QPCci79h+kLBvqziQNkZGcBvwq3B
4mkFQYADlL5gOKrBSg6TQGV0GMDVsa3B3mXjQJeW6T8BoqbBugdXQEAQkb70uqnBOfatQBRIIL9V
LpHBccPlQG4hHcB0d2rB6RL6QFCY3T9RO3fBWLuyP8GehcBsPozB2nwCQGFKicAatn3BIPl4QJL5
ssDOI4TB60kwQG2EwsDTko7BBN8bQPKGB8BLuo3B17pPQNCGFcC/BYHBUmqkQKexocDSBpTBLxJr
QPefj8AgApvBcSeeQNd/CUG7BIXBcnqgQB6wFkH1xZHBVRHfQO4M+kC+sZfBVL7cQGGs30CF8IrB
6eOQQB6lGcAKRZXBIYqQQDgg50D1fJvBc4gWQTKriD/gUUXBN+McQaWukz9nUGHB4ooFQaSm/j/D
M1fB36YLQVH+RsBdVTTBUlUNQTWsRMCLBFHBw4IfQbXdBcBsPEHBi6+MQGHFNUA9QqzBwWVUQM80
9T/7dKPBOTqQQBLxhUDwy4bBgky4QEZUmkAewI/BAni8QMrQWkD2753BxNRDQL+cZUB/sJTB6p+N
QEWkuD9DPJDBfJ+KQAkRzEAMrYTB7/tMQIjlxEA18Y3BExtTQDqLjkC54qXB8qTCQOh90L9CyKzB
9PHbQPFI7b5EbKzBbzCWQABtxr9AA6vB/cfIQA9dSD9MWarBEwKDQJaTnb7+0qjBow3FQJUkIr/X
VYrBO8fiQNpRzr+qQ3TBq7HsQNFIQz8adnvBJtbLQPYf4r893IPBEtPVQHMtHz/RXYfBajucQEtd
XD+qeqjBkVDyQNj1rr4lqW3BwJi7QCftRsAhPYfBcz3OQMJ65D8lQo7Brp8rQBZrgsB/sYbBrXlh
QN3XqMBReYrBRFJWQGwJNMBHd4vB7paOQBoVl8BHKZPBUIPFQAli8EAc+ovB8w+jQNvPAEFcTYTB
mhuXQCPUUMCJ1I/BJmWqQNzZ0UCfN4XB2XISQfludz+XOFbBVq4JQXo4IMDMJ0DBdnyHQPO3C0AQ
vKXB1OKZQCh0kECmAo7BzkmeQGSMNkC9OZzB7VGCQNYffkDbrpfBpMqnQCj47D+F4ZPBnykDQdpL
JL6YjVnB4jKJQAQ7uUBelYrBiCfNQCx3g8B0ooPBiXXpQISRKkBDAY/B8F3HQKxysb/JSUbBvrn+
QOBNGr4IKDDBiIp6QPKdn0ANnp/BERr0QIjVfL+nwULBBVzRQFZnJcDpaq7Bhwr+QLDiBr9Rva3B
INeCQAltHMBDVqvBjRLcQMjZ1j9QL6rBsO9BQOmJfr53aKfBMteyQJYROr/bo5HBn4boQEpyHsCe
TGrBgAr6QAeC3D9TMnfBUfLSP39hhcCpnInBKngrQEmwgMDZznvBpXSDQC0ItsBPyoPBROs3QOf0
wcDhy43BY80uQGTnGcCT+ZHB18ZeQIIUA8AnO4XBiqesQCBcqcC+a5PBTAV+QOxRmMDdC5vBJKzA
QOkz8kB3rpTBhKHnQH/z9EA5I4rBqo2sQBpXCUFS9XnBSZiFQE/3B0HnhYfBVFKfQFOnKsDn7pbB
/OC6QNqPwkBt5HzBtIAYQbnrcD86s0XBTuofQa4uXj9DcWHBATMKQdD89T+xEVnBC2wEQVW7Q8DF
5THBjWkHQco5SMB4dU7BobUaQUSmD8DJiD7BJECJQBRRNkAXuqzBKYVLQFmiAEBEoaPBdsGWQJ3n
ckAnZYfBTuS7QOBPlEB6EZDBTWy8QAusUkBiHJ/BOVRGQE7tY0AwOZXB+y+RQJGzlj9+JpLBMLxh
QHhttEArh4XBeZ19QPaByUBo9pDB8fFcQHY0lECknKXBkVDCQCAc07+2F6zBd7rbQACt+L7x46vB
xNyVQIT6x7/HWarBOrDIQPI8RD/l+6nBtc+CQBq0oL6ZUKjB1enDQMn3FL/MPorBfjjiQAzVzb8+
nXTBa6XsQLxjRT8eJ3vBAgfLQNt43b+d8YPBU97UQBPqKj/kHofB8yicQEtOWj/ZHajBKOLyQNbY
u75XG27BJmq7QFIaRMD2X4fB90jNQCWY7D+e3Y3Bpi4wQEiugMBhQYTBDtBiQI4sp8CkqojBieJU
QBcVMcAF2InBrCyLQDChlcDjK5LBmeHBQI7L9UBX7Y3BTsqeQDuuA0H5e4bBV5uUQE/ETcD1Ko/B
MGqoQF7X10C8nobBMx70QBExJL8/bkbBd9wWQWE+DkA94VDB3YSHQMTFC0AynKXBV1aaQEsQlEAR
no7BWEKeQIZ0OEBJNpzBtC6CQOtggEAI65fBcUWnQHnw8z9tq5PBXOoEQQZcmL5861rBngeIQBeC
vEDicovBJzHOQI/tgcDgFoTBoCXoQFd7L0ANZo7BWKQlQfU8Ij80f2/B750pQQfSrr0rrkjBrz53
QPRbn0ChLKDBVOUcQVNBCz+zsVnBavHQQA4HJ8AHlq3BQ9H9QNwfDr/fMq3BK2mCQLcXHcAqlKrB
ehDcQHqW1D918qnBNY9BQLR4fr5T56bBN1+xQAKSKL/FgpHB2j3nQMu0HsAMumrB7SD6QLtg3D/i
e3bB/m/XP5UthMAAHIbBF7Y4QHx5fMBMFXfB3gWHQGAEtMAVgoLBudc2QCeBwMAsVovBSsgnQLBf
GcCE6o/BkVhhQFW1/L+68YPBXRqpQPmwp8CONJPBc49wQBFIl8CylZnBT8i8QKsP9UDjoZbB48Xj
QKV7/EDePIzB4panQENiDUGn9X7BTpmAQEWsCUHY34nBrGGaQDLaJ8DQcJbB0L25QO4ry0CCSn/B
NmwFQT4nCL8NGznBlcrYQM3XDD1J8kPB9aroQNYg179+G0fBdcAlQX+JM0AU1E/Bd/ULQavNLEBb
ZFzBGTEPQfXQC0DlDEHB8VuJQDIPNUAcuazBAotLQHMuAUC/fKPBZzCZQB/fe0Cax4fBt9O7QD8u
mUCSAZHBd4G8QKTaU0AMIp/BQRVHQNh3ZkCqGJXB8oGQQG10nj8D65HBsVJhQM1Ht0BXJIbBpeZ3
QBsfy0C45JHBo/NYQAySkkCs76XB

> <OMEGA_E>
oBQoP/zfKz/sx2Q/

> <OMEGA_NBR>
      6288

$$$$
29086
  -OEChem-04172616093D

 73 76  0     1  0  0  0  0  0999 V2000
    6.3844   -1.5008  -21.6434 C   0  0  0  0  0  0  0  0  0  0  0  0
    7.0709   -0.2764  -21.5285 C   0  0  0  0  0  0  0  0  0  0  0  0
    4.9892   -1.5500  -21.4516 C   0  0  0  0  0  0  0  0  0  0  0  0
    6.3624    0.9005  -21.2283 C   0  0  0  0  0  0  0  0  0  0  0  0
    4.2799   -0.3765  -21.1352 C   0  0  0  0  0  0  0  0  0  0  0  0
    6.0670   -0.5511  -17.1519 C   0  0  0  0  0  0  0  0  0  0  0  0
    7.4071    0.8256  -15.6481 C   0  0  0  0  0  0  0  0  0  0  0  0
    7.0641   -1.5446  -15.1719 C   0  0  0  0  0  0  0  0  0  0  0  0
    6.6231    0.6949  -16.8148 C   0  0  0  0  0  0  0  0  0  0  0  0
    4.9647    0.8504  -21.0128 C   0  0  0  0  0  0  0  0  0  0  0  0
    6.2907   -1.6702  -16.3404 C   0  0  0  0  0  0  0  0  0  0  0  0
    7.6382   -0.2994  -14.8238 C   0  0  0  0  0  0  0  0  0  0  0  0
    6.3998    1.8237  -17.7182 C   0  0  0  0  0  0  0  0  0  0  0  0
    1.9938   -4.3127  -17.0681 C   0  0  0  0  0  0  0  0  0  0  0  0
    2.8414   -4.3873  -18.3509 C   0  0  0  0  0  0  0  0  0  0  0  0
    6.1250    7.5499  -17.7545 C   0  0  0  0  0  0  0  0  0  0  0  0
    5.0573    8.1871  -16.8462 C   0  0  0  0  0  0  0  0  0  0  0  0
    3.5194   -4.2476  -16.9852 C   0  0  0  0  0  0  0  0  0  0  0  0
    5.2754    6.6877  -16.8173 C   0  0  0  0  0  0  0  0  0  0  0  0
    8.2729    0.9807  -12.7693 C   0  0  0  0  0  0  0  0  0  0  0  0
    8.9229   -2.5475  -12.1663 C   0  0  0  0  0  0  0  0  0  0  0  0
    4.1960    2.1013  -20.6402 C   0  0  0  0  0  0  0  0  0  0  0  0
    5.6833   -2.9951  -16.7311 C   0  0  0  0  0  0  0  0  0  0  0  0
    4.1539   -2.9012  -16.6304 C   0  0  0  0  0  0  0  0  0  0  0  0
    4.7538    4.5729  -17.7797 C   0  0  0  0  0  0  0  0  0  0  0  0
    4.8851    2.8386  -19.4786 C   0  0  1  0  0  0  0  0  0  0  0  0
    4.0060    3.9722  -18.9586 C   0  0  2  0  0  0  0  0  0  0  0  0
    5.1810    1.8904  -18.3912 N   0  0  0  0  0  0  0  0  0  0  0  0
    8.4340   -0.1830  -13.6762 N   0  0  3  0  0  0  0  0  0  0  0  0
    4.2288    5.8647  -17.4066 N   0  3  0  0  0  0  0  0  0  0  0  0
    7.3030    2.6258  -17.9331 O   0  0  0  0  0  0  0  0  0  0  0  0
   10.7207   -0.6506  -12.5726 O   0  0  0  0  0  0  0  0  0  0  0  0
    9.9938   -2.0728  -14.5488 O   0  0  0  0  0  0  0  0  0  0  0  0
    3.8392    4.9427  -19.9946 O   0  0  0  0  0  0  0  0  0  0  0  0
    9.6602   -1.3505  -13.3114 S   0  0  0  0  0  0  0  0  0  0  0  0
    6.9282   -2.4037  -21.8788 H   0  0  0  0  0  0  0  0  0  0  0  0
    8.1409   -0.2414  -21.6710 H   0  0  0  0  0  0  0  0  0  0  0  0
    4.4640   -2.4888  -21.5475 H   0  0  0  0  0  0  0  0  0  0  0  0
    6.8853    1.8432  -21.1621 H   0  0  0  0  0  0  0  0  0  0  0  0
    3.2110   -0.4154  -20.9861 H   0  0  0  0  0  0  0  0  0  0  0  0
    5.4633   -0.6460  -18.0424 H   0  0  0  0  0  0  0  0  0  0  0  0
    7.8300    1.7841  -15.3855 H   0  0  0  0  0  0  0  0  0  0  0  0
    7.2206   -2.4040  -14.5369 H   0  0  0  0  0  0  0  0  0  0  0  0
    1.3924   -3.4162  -16.8572 H   0  0  0  0  0  0  0  0  0  0  0  0
    1.4607   -5.2049  -16.7080 H   0  0  0  0  0  0  0  0  0  0  0  0
    2.9150   -5.3329  -18.9082 H   0  0  0  0  0  0  0  0  0  0  0  0
    2.8467   -3.5441  -19.0573 H   0  0  0  0  0  0  0  0  0  0  0  0
    5.9681    7.5029  -18.8423 H   0  0  0  0  0  0  0  0  0  0  0  0
    7.1934    7.7060  -17.5446 H   0  0  0  0  0  0  0  0  0  0  0  0
    5.3628    8.8035  -15.9879 H   0  0  0  0  0  0  0  0  0  0  0  0
    4.1375    8.6003  -17.2856 H   0  0  0  0  0  0  0  0  0  0  0  0
    4.0265   -5.1437  -16.5980 H   0  0  0  0  0  0  0  0  0  0  0  0
    5.7917    6.2897  -15.9313 H   0  0  0  0  0  0  0  0  0  0  0  0
    8.9804    0.8941  -11.9315 H   0  0  0  0  0  0  0  0  0  0  0  0
    8.4742    1.9087  -13.3246 H   0  0  0  0  0  0  0  0  0  0  0  0
    7.2444    1.0023  -12.3798 H   0  0  0  0  0  0  0  0  0  0  0  0
    9.6686   -3.3127  -11.9047 H   0  0  0  0  0  0  0  0  0  0  0  0
    8.5952   -2.0280  -11.2538 H   0  0  0  0  0  0  0  0  0  0  0  0
    8.0573   -3.0280  -12.6456 H   0  0  0  0  0  0  0  0  0  0  0  0
    4.1477    2.7687  -21.5133 H   0  0  0  0  0  0  0  0  0  0  0  0
    3.1767    1.8212  -20.3359 H   0  0  0  0  0  0  0  0  0  0  0  0
    5.9692   -3.2399  -17.7646 H   0  0  0  0  0  0  0  0  0  0  0  0
    6.0487   -3.7809  -16.0536 H   0  0  0  0  0  0  0  0  0  0  0  0
    3.7900   -2.1325  -17.3280 H   0  0  0  0  0  0  0  0  0  0  0  0
    3.8733   -2.6264  -15.6029 H   0  0  0  0  0  0  0  0  0  0  0  0
    4.6663    3.8924  -16.9199 H   0  0  0  0  0  0  0  0  0  0  0  0
    5.8136    4.6856  -18.0517 H   0  0  0  0  0  0  0  0  0  0  0  0
    5.8267    3.2687  -19.8507 H   0  0  0  0  0  0  0  0  0  0  0  0
    3.0370    3.5723  -18.6253 H   0  0  0  0  0  0  0  0  0  0  0  0
    4.4607    1.2529  -18.1178 H   0  0  0  0  0  0  0  0  0  0  0  0
    3.4928    5.7414  -16.7410 H   0  0  0  0  0  0  0  0  0  0  0  0
    3.8693    6.3216  -18.2202 H   0  0  0  0  0  0  0  0  0  0  0  0
    3.3709    4.5518  -20.7228 H   0  0  0  0  0  0  0  0  0  0  0  0
  1  2  1  0  0  0  0
  1  3  2  0  0  0  0
  2  4  2  0  0  0  0
  3  5  1  0  0  0  0
  4 10  1  0  0  0  0
  5 10  2  0  0  0  0
  6  9  2  0  0  0  0
  6 11  1  0  0  0  0
  7  9  1  0  0  0  0
  7 12  2  0  0  0  0
  8 11  2  0  0  0  0
  8 12  1  0  0  0  0
  9 13  1  0  0  0  0
 10 22  1  0  0  0  0
 11 23  1  0  0  0  0
 12 29  1  0  0  0  0
 13 28  1  0  0  0  0
 13 31  2  0  0  0  0
 14 15  1  0  0  0  0
 14 18  1  0  0  0  0
 15 18  1  0  0  0  0
 16 17  1  0  0  0  0
 16 19  1  0  0  0  0
 17 19  1  0  0  0  0
 18 24  1  0  0  0  0
 19 30  1  0  0  0  0
 20 29  1  0  0  0  0
 21 35  1  0  0  0  0
 22 26  1  0  0  0  0
 23 24  1  0  0  0  0
 25 27  1  0  0  0  0
 25 30  1  0  0  0  0
 26 27  1  0  0  0  0
 26 28  1  0  0  0  0
 27 34  1  0  0  0  0
 29 35  1  0  0  0  0
 32 35  2  0  0  0  0
 33 35  2  0  0  0  0
  1 36  1  0  0  0  0
  2 37  1  0  0  0  0
  3 38  1  0  0  0  0
  4 39  1  0  0  0  0
  5 40  1  0  0  0  0
  6 41  1  0  0  0  0
  7 42  1  0  0  0  0
  8 43  1  0  0  0  0
 14 44  1  0  0  0  0
 14 45  1  0  0  0  0
 15 46  1  0  0  0  0
 15 47  1  0  0  0  0
 16 48  1  0  0  0  0
 16 49  1  0  0  0  0
 17 50  1  0  0  0  0
 17 51  1  0  0  0  0
 18 52  1  0  0  0  0
 19 53  1  0  0  0  0
 20 54  1  0  0  0  0
 20 55  1  0  0  0  0
 20 56  1  0  0  0  0
 21 57  1  0  0  0  0
 21 58  1  0  0  0  0
 21 59  1  0  0  0  0
 22 60  1  0  0  0  0
 22 61  1  0  0  0  0
 23 62  1  0  0  0  0
 23 63  1  0  0  0  0
 24 64  1  0  0  0  0
 24 65  1  0  0  0  0
 25 66  1  0  0  0  0
 25 67  1  0  0  0  0
 26 68  1  0  0  0  0
 27 69  1  0  0  0  0
 28 70  1  0  0  0  0
 30 71  1  0  0  0  0
 30 72  1  0  0  0  0
 34 73  1  0  0  0  0
M  CHG  1  30   1
M  END
> <OMEGA_C>
m0zMQHQbwL+iJa3B3kTiQDR/jb5wOqzBqaefQIJmxr/onKvBBZnLQGKKZj+L06nBJ/WIQNrIwL7o
FKnB0yTCQJUUDb8WN4nBOQftQAxdUz+cXnrBgw3iQCK0xb8+wHLBmfDTQInjMT++hIbBM9+eQNOz
WT84GqjB0k3JQDLJ1b8guYLB6Wv0QLRLmb48Lm3BWcvMQFpv6T/wvo3BYDX/P6EBisBwi4jBWNk1
QMRkjMC4zpLBy//DQNaY8UBHCY7BktWhQDT+AkEBxYbBCD5hQA/sh8Co4YfBxs+oQKQB1kDriYbB
wV0EQdIRez8+T0zBT8QOQUUKI8AuqULBmUWGQBR7BkAuH6XBj921QDmvP8Az2YXBGO2EQNytOcD9
CoXBBx+YQFtVkkDAPI7BslKcQPKrNUA11JvBgDGAQF04fkA4q5fBHMulQGj48T8UIZPBpPEGQe5w
O7640VrBI1KHQJqru0CyQIvB0rHpQIkMKEAAd4/B3ocrQQyPJr9KKUnBceYfQTaoBMC/x2jBGLZ1
QIgqnkDb9J/BXZAaQVrcrL9l+1TB57PdQFnWGcDdB6/BH0ECQSQ6d743Xq3BIdmOQKBIH8BWYazB
AlTcQG3v6z8ETKnBroBNQJqx1L5746fBV9OuQNpiJb/EVpDBBY/6QAhe5D82K3bB+A7nQODaGcD6
lmjB1TmyP0GiWsBz24bBx/a6P+SOpsAKqoXBR486QMmmqsDrQ5fBzjA2QAvSYsBUdZjBtfq+QJkX
8ED4vJbBWzDmQN2X9kBGW4zBwZurQCTbDEFYzn/BHGaEQAKbCUHfSIrBA9mAQOqYpMDNyITBP1W5
QD5FyUCu5n7Bnq8PQTDjZD+A5z7BX5YHQRJR9D+ZMVXB+9HnQDFLgD/bE0bBeLIaQcYDVMCfeT7B
EoYJQQvKAcCCDzTBgOoAQavKQcBoVErBqLmEQKExMUA6G6zBFE9LQPEd6T/nr6LBtQO/QCpbT8D7
HY7Bpo7BQGT6ccC+bYDBb49yQEF7CMCmn4rBwuN3QO0WKMB3pXnBXlKVQIUdeUDbW4fBUQm6QKDw
lUDuaZDBVXS6QKkxUUA9zp7B+F5CQDKgZECJAJXBxb2OQHFgoD9J8ZDBOolfQGa5t0B+7YXBnKJ3
QNpKykD/wpHBWLxXQLOokUBXyKXB

> <OMEGA_E>
LLRrPw==

> <OMEGA_NBR>
      7794

$$$$
50146844
  -OEChem-04172616093D

 82 84  0     1  0  0  0  0  0999 V2000
    6.4505   -1.3340  -21.6064 C   0  0  0  0  0  0  0  0  0  0  0  0
    0.4592   -4.8423  -15.5402 C   0  0  0  0  0  0  0  0  0  0  0  0
    7.1627   -0.1237  -21.4908 C   0  0  0  0  0  0  0  0  0  0  0  0
    5.0466   -1.3369  -21.4932 C   0  0  0  0  0  0  0  0  0  0  0  0
    0.5425   -3.6800  -16.3331 C   0  0  0  0  0  0  0  0  0  0  0  0
    1.5069   -5.7842  -15.5568 C   0  0  0  0  0  0  0  0  0  0  0  0
    6.4730    1.0824  -21.2550 C   0  0  0  0  0  0  0  0  0  0  0  0
    4.3561   -0.1364  -21.2343 C   0  0  0  0  0  0  0  0  0  0  0  0
    1.6696   -3.4632  -17.1508 C   0  0  0  0  0  0  0  0  0  0  0  0
    2.6339   -5.5700  -16.3729 C   0  0  0  0  0  0  0  0  0  0  0  0
    6.0268   -0.5109  -17.2073 C   0  0  0  0  0  0  0  0  0  0  0  0
    6.9870   -1.5478  -15.2317 C   0  0  0  0  0  0  0  0  0  0  0  0
    7.4372    0.7981  -15.7064 C   0  0  0  0  0  0  0  0  0  0  0  0
    6.2203   -1.6480  -16.4029 C   0  0  0  0  0  0  0  0  0  0  0  0
    6.6312    0.7151  -16.8636 C   0  0  0  0  0  0  0  0  0  0  0  0
    5.0668    1.0790  -21.1063 C   0  0  0  0  0  0  0  0  0  0  0  0
    2.7143   -4.4171  -17.1840 C   0  0  0  0  0  0  0  0  0  0  0  0
    7.5962   -0.3328  -14.8697 C   0  0  0  0  0  0  0  0  0  0  0  0
    5.6419   -2.9433  -16.7846 C   0  0  0  0  0  0  0  0  0  0  0  0
    6.3962    1.8868  -17.7177 C   0  0  0  0  0  0  0  0  0  0  0  0
    3.5340   -4.1470  -19.5602 C   0  0  0  0  0  0  0  0  0  0  0  0
    6.7578    7.8806  -19.5554 C   0  0  0  0  0  0  0  0  0  0  0  0
    4.6134    8.1246  -18.2512 C   0  0  0  0  0  0  0  0  0  0  0  0
    9.0393   -1.4988  -13.1888 C   0  0  0  0  0  0  0  0  0  0  0  0
    7.0727   -0.0287  -11.1880 C   0  0  0  0  0  0  0  0  0  0  0  0
    4.3252    2.3590  -20.7326 C   0  0  0  0  0  0  0  0  0  0  0  0
    3.9695    5.3241  -19.4028 C   0  0  0  0  0  0  0  0  0  0  0  0
    3.9238   -4.2193  -18.0797 C   0  0  1  0  0  0  0  0  0  0  0  0
    4.8930    2.9778  -19.4166 C   0  0  1  0  0  0  0  0  0  0  0  0
    5.3038    7.3910  -19.4130 C   0  0  0  0  0  0  0  0  0  0  0  0
    3.9328    3.9727  -18.7140 C   0  0  2  0  0  0  0  0  0  0  0  0
    4.6115   -2.9841  -17.7098 N   0  0  0  0  0  0  0  0  0  0  0  0
    5.2173    1.9275  -18.4552 N   0  0  0  0  0  0  0  0  0  0  0  0
    8.3444   -0.2703  -13.6855 N   0  0  2  0  0  0  0  0  0  0  0  0
    5.2802    5.9474  -19.1318 N   0  3  0  0  0  0  0  0  0  0  0  0
    6.0758   -3.9778  -16.2872 O   0  0  0  0  0  0  0  0  0  0  0  0
    7.2229    2.7921  -17.7775 O   0  0  0  0  0  0  0  0  0  0  0  0
    6.9667    1.8531  -13.0318 O   0  0  0  0  0  0  0  0  0  0  0  0
    9.2027    1.3837  -11.9163 O   0  0  0  0  0  0  0  0  0  0  0  0
    2.5895    3.5040  -18.7183 O   0  0  0  0  0  0  0  0  0  0  0  0
    7.9382    0.8957  -12.4827 S   0  0  0  0  0  0  0  0  0  0  0  0
    6.9806   -2.2585  -21.7816 H   0  0  0  0  0  0  0  0  0  0  0  0
   -0.4084   -5.0110  -14.9194 H   0  0  0  0  0  0  0  0  0  0  0  0
    8.2387   -0.1203  -21.5831 H   0  0  0  0  0  0  0  0  0  0  0  0
    4.4985   -2.2607  -21.6050 H   0  0  0  0  0  0  0  0  0  0  0  0
   -0.2578   -2.9551  -16.3140 H   0  0  0  0  0  0  0  0  0  0  0  0
    1.4455   -6.6709  -14.9432 H   0  0  0  0  0  0  0  0  0  0  0  0
    7.0197    2.0114  -21.1877 H   0  0  0  0  0  0  0  0  0  0  0  0
    3.2809   -0.1446  -21.1334 H   0  0  0  0  0  0  0  0  0  0  0  0
    1.7360   -2.5688  -17.7524 H   0  0  0  0  0  0  0  0  0  0  0  0
    3.4393   -6.2896  -16.3786 H   0  0  0  0  0  0  0  0  0  0  0  0
    5.4119   -0.5774  -18.0927 H   0  0  0  0  0  0  0  0  0  0  0  0
    7.1108   -2.4150  -14.6000 H   0  0  0  0  0  0  0  0  0  0  0  0
    7.9328    1.7254  -15.4597 H   0  0  0  0  0  0  0  0  0  0  0  0
    4.4374   -4.0037  -20.1713 H   0  0  0  0  0  0  0  0  0  0  0  0
    3.0371   -5.0832  -19.8546 H   0  0  0  0  0  0  0  0  0  0  0  0
    2.8473   -3.3022  -19.7176 H   0  0  0  0  0  0  0  0  0  0  0  0
    7.2437    7.3510  -20.3881 H   0  0  0  0  0  0  0  0  0  0  0  0
    6.7623    8.9621  -19.7563 H   0  0  0  0  0  0  0  0  0  0  0  0
    7.3055    7.6786  -18.6231 H   0  0  0  0  0  0  0  0  0  0  0  0
    3.5767    7.7692  -18.1568 H   0  0  0  0  0  0  0  0  0  0  0  0
    5.1565    7.9231  -17.3160 H   0  0  0  0  0  0  0  0  0  0  0  0
    4.6133    9.2066  -18.4493 H   0  0  0  0  0  0  0  0  0  0  0  0
    9.5734   -1.2666  -12.2556 H   0  0  0  0  0  0  0  0  0  0  0  0
    8.2973   -2.2886  -12.9997 H   0  0  0  0  0  0  0  0  0  0  0  0
    9.7582   -1.8448  -13.9462 H   0  0  0  0  0  0  0  0  0  0  0  0
    6.7806    0.6576  -10.3796 H   0  0  0  0  0  0  0  0  0  0  0  0
    6.1734   -0.4991  -11.6123 H   0  0  0  0  0  0  0  0  0  0  0  0
    7.7383   -0.8067  -10.7858 H   0  0  0  0  0  0  0  0  0  0  0  0
    4.4352    3.0885  -21.5485 H   0  0  0  0  0  0  0  0  0  0  0  0
    3.2595    2.1272  -20.5892 H   0  0  0  0  0  0  0  0  0  0  0  0
    3.8372    5.1927  -20.4868 H   0  0  0  0  0  0  0  0  0  0  0  0
    3.1652    5.9635  -19.0100 H   0  0  0  0  0  0  0  0  0  0  0  0
    4.6057   -5.0713  -17.9413 H   0  0  0  0  0  0  0  0  0  0  0  0
    5.8131    3.5231  -19.6737 H   0  0  0  0  0  0  0  0  0  0  0  0
    4.7604    7.6019  -20.3459 H   0  0  0  0  0  0  0  0  0  0  0  0
    4.2767    4.1019  -17.6772 H   0  0  0  0  0  0  0  0  0  0  0  0
    4.3255   -2.1299  -18.1440 H   0  0  0  0  0  0  0  0  0  0  0  0
    4.5520    1.1935  -18.3188 H   0  0  0  0  0  0  0  0  0  0  0  0
    5.5055    5.8076  -18.1676 H   0  0  0  0  0  0  0  0  0  0  0  0
    5.9688    5.5009  -19.7031 H   0  0  0  0  0  0  0  0  0  0  0  0
    2.5478    2.6570  -18.2900 H   0  0  0  0  0  0  0  0  0  0  0  0
  1  3  1  0  0  0  0
  1  4  2  0  0  0  0
  2  5  1  0  0  0  0
  2  6  2  0  0  0  0
  3  7  2  0  0  0  0
  4  8  1  0  0  0  0
  5  9  2  0  0  0  0
  6 10  1  0  0  0  0
  7 16  1  0  0  0  0
  8 16  2  0  0  0  0
  9 17  1  0  0  0  0
 10 17  2  0  0  0  0
 11 14  1  0  0  0  0
 11 15  2  0  0  0  0
 12 14  2  0  0  0  0
 12 18  1  0  0  0  0
 13 15  1  0  0  0  0
 13 18  2  0  0  0  0
 14 19  1  0  0  0  0
 15 20  1  0  0  0  0
 16 26  1  0  0  0  0
 17 28  1  0  0  0  0
 18 34  1  0  0  0  0
 19 32  1  0  0  0  0
 19 36  2  0  0  0  0
 20 33  1  0  0  0  0
 20 37  2  0  0  0  0
 21 28  1  0  0  0  0
 22 30  1  0  0  0  0
 23 30  1  0  0  0  0
 24 34  1  0  0  0  0
 25 41  1  0  0  0  0
 26 29  1  0  0  0  0
 27 31  1  0  0  0  0
 27 35  1  0  0  0  0
 28 32  1  0  0  0  0
 29 31  1  0  0  0  0
 29 33  1  0  0  0  0
 30 35  1  0  0  0  0
 31 40  1  0  0  0  0
 34 41  1  0  0  0  0
 38 41  2  0  0  0  0
 39 41  2  0  0  0  0
  1 42  1  0  0  0  0
  2 43  1  0  0  0  0
  3 44  1  0  0  0  0
  4 45  1  0  0  0  0
  5 46  1  0  0  0  0
  6 47  1  0  0  0  0
  7 48  1  0  0  0  0
  8 49  1  0  0  0  0
  9 50  1  0  0  0  0
 10 51  1  0  0  0  0
 11 52  1  0  0  0  0
 12 53  1  0  0  0  0
 13 54  1  0  0  0  0
 21 55  1  0  0  0  0
 21 56  1  0  0  0  0
 21 57  1  0  0  0  0
 22 58  1  0  0  0  0
 22 59  1  0  0  0  0
 22 60  1  0  0  0  0
 23 61  1  0  0  0  0
 23 62  1  0  0  0  0
 23 63  1  0  0  0  0
 24 64  1  0  0  0  0
 24 65  1  0  0  0  0
 24 66  1  0  0  0  0
 25 67  1  0  0  0  0
 25 68  1  0  0  0  0
 25 69  1  0  0  0  0
 26 70  1  0  0  0  0
 26 71  1  0  0  0  0
 27 72  1  0  0  0  0
 27 73  1  0  0  0  0
 28 74  1  0  0  0  0
 29 75  1  0  0  0  0
 30 76  1  0  0  0  0
 31 77  1  0  0  0  0
 32 78  1  0  0  0  0
 33 79  1  0  0  0  0
 35 80  1  0  0  0  0
 35 81  1  0  0  0  0
 40 82  1  0  0  0  0
M  CHG  1  35   1
M  END
> <OMEGA_C>
2mrOQMbBqr/02azBWBrrPg70msCLpHjBbzTlQEBH/b097avBZ32hQF4eq78W8qvBXOMKPweFa8A+
qoLBiOPAP1YYucB/6HjBoyLPQGiLij81CqrBHWWLQAisC77Z36nB6rPVP7elXcDZNInBfJIoQIo9
ssCt+4LBLtvAQGDMAr92qInBUpXfQCodxr8ZtXPBqf3tQAJPTD94TXvB0QzHQJby0r8fOYPBszLU
QPsNNz+z6IbBZCOiQJ4dij+h2ajBWrctQEJZjcC+eInByRPzQLhoqr5w6m3B04q0QDtfPMDXRobB
sq3MQCGE8T/ZvY3ByixiQDS0hMBje5zBnj/YQBwu/EBfcZzBp6CTQHT+AUFgApLBDqEQQYzZv79p
BVPBZFPiQIBW67wWAjPB9GeKQBb6FkBY3KXBCgx+QLReqkDaOJvBSCB7QLoEh8Alo5DBqpOcQJqT
PkAxVZvBhripQAqD7EDITZvByLN7QP4/fkBftpXBS5GTQCX8PsC5rY3B3fOmQM659j9YpJPBjIIF
QQxpir7m91rBNfeoQBpRvkDkDZnBz2zCQN+TfsA+TILByyHnQC6xMkBiOI7BgO/eQCQx7T9FglDB
GD4TQTsdsT9CqT7B/rolQA1CYED/vpXBEQb+QL9OZT8nuUfBaWHfQOeLEMDEQK7BzhTRvjdaoMAR
tm7BsNEDQVhO9r1KqqzBpfOPQLKvEMAh16zBxAGEvnYgPcAhg4LBgAW5P7l31cBCF2/BGaHgQBe6
AEBWgKnBfflRQAoeFL4cEanB4TTeP9NmJMDsBI7BIR1cQF1EycBIB4PBgC6tQLLPE7/NvZDB9ovj
QL+OGsC2mWnBPNn9QJLa3D/uWnfBE/+NQF4egMC7XqHBwF9CQIGposA31p7Bijk2QI1XU8CpvZ3B
OMznQKo760DGGqPB8WTYQMpkD0HvDJ7BvcbpQC+39UAK/JTB2udkQEKd+EAdQZHBzwGlQFOK/UBE
h4rBA6CTQFxOE0EpmJPBhCwZQRkhor/8FkTBzsEEQcd3EsD2/k/BbyEcQRcj7L9yI1/BbPrYQLJa
KD+1EibBdozFQL+H/74kzDnB9Z/3QKuBTr+HkizBZ+2NQPypRUBeY6zBdptQQFUkCEC/tqTB7ZN1
QJwqpkAN5aPBMJNKQFjVvkCHFJjBLmKTQDpIosDOh4/B6QS6QAJ6YUC5Y53BP1WYQMlC80BTxKLB
0dqIQLBCg0Dnao3BK2qKQBhRCMACJ5HByqmRQI3FmD/+jJLB0SywQLXXuUAyV5HBVgC/QFoHsEAG
oJ3BXQ8jQAQNKkABUpLB7rDPQMzKq7+IG63BCo8PP0Z4l8CU+nbBVDfmQCTIDr6sbqvBlLyiQCZf
rr9TVqzBzsQpP8lGYsDnX4HBs6/HPzALt8DV03jBosrPQKSZhT9A/6jBPEyMQIS2P74rvKnBoSbh
P8AIVcDEQ4jBFAEqQH1+sMCBSYPB0EnCQLKL9r6ILorBpE7dQIKExr/WHHTBjL7pQERBVD+tDnrB
qQzIQEzM0b8O5IPBSyfTQP66QT/4zYbBFbmiQCpfgj8ZAqjBdTYwQBJ3isD/VInBUcPtQMJtqL4g
LW3BSRa3QHGIO8D6X4fBCvvLQGS4+T/heo3BHJ9bQE0MgcAJo5zBkGSaQFDv+0BrzYvBv/HnQIa7
60DTPY/BOKPpQMjhcb7XpUXBfRAeQWqZ5D+NnVLB5+KJQLrVEUCbXqXB5O+LQEhDnEATPo7BF2Z6
QDjNhMD6C5HBGcmbQKdkQUDod5vB3TK9QE8k2UBkP4vBpZF0QDB0gUA4fpfBSNqUQA9EPMB+XI7B
Mh2lQF93A0Dw5ZLBgW4BQQIXor4XtlnBrjmxQHbftEBFHpLBOIHFQCtLfsDVqIPBrSboQMn6MkDZ
eI7B7okkQZyEEr5Z8W7BiFElQQGlOr8vTkfBvKNdQIl/nUDKDqDBnBUcQTCyCT3YJ1nB0+jgQCrr
D8Cd+67BVYyRvj6lnMDDiGzB1lgEQQzu/70gBKzBa3iRQKT9EcAIv63Bo9nJvbmqMcBYmoDBqhG+
P21I1MCqsW/BYALhQOEi/D+04qfBdbNTQGO3VL6xDqnBPozrP9AaGsCuu4zB7TRbQJqgyMDe74PB
Cd2wQOJFC79doJHBafngQOCgG8A0SGrBjNz3QMyP4T8P+HTBZ4uJQHX+ecDm9aHBxqE4QFZAnsD6
357BuAAxQBtmSsBPZ53BJaZ3QCO47kDM84jBo7OjQA+TC0G2uobB6MiWQLBnA0GGH5TBfG4AQYXr
0kAJ2o7BmkvkQMid9kB3j5fBVDbxQEN6A0GnKorBlXX/QDP8cr6D1jfBC7DWQOXWMD8TnkXBdgvU
QPMejb/3m0TBMAMvQZ8eBUBP/lHBjsoVQfJBGEAV6l7Bb5cWQc/f+z/T8kLBOE+LQOAmPUAjTKzB
u8ZQQLNPAEAdyaPBri9mQPVkskC8XovBWtiVQMkRh0DZqofB13GSQPy/oMDvZ5DBTyi5QLyXY0A5
wp3BQuLAQAZ5zkCP6YLBHOA7QFfKX0BsrJTBueOLQBISBcD6u5HBfMWNQM0Ntj9hzZDBBULKQGoH
oUCBl5LBz1yqQIwywECzZpnBIZxHQFs3jUDj2qXB56jRQAT4q7+ioKzBBG/kPgvfmsC2VHrBjMLn
QJxDEL7ZoKrBbaCkQAM/r79ETKzBOh8PP+xoaMAG5oLBGci7P/HWucCtqHvBqNXQQA2ohD+6TKjB
Z6uNQLgjTr4ax6nBHS3YP8QtWcAoW4nBJEwmQJxFssAnQ4TBVxG/QMgD4b4jSonBtljfQGDIxb9b
9nPBFxjsQARnVD//9nnBl37GQJT4zb/KTIPBTMDRQEDYSD8MMobBNqijQESEgD8GuKfB+GktQCLM
i8DCHYrBn0DyQJylrL7nZW3B4sK0QBmmOcAlu4bB/+/JQAOu/T8n1ozBpF5hQPSjgMBpBJ3BtFOW
QCDf+kDSSovBjknkQIVJ60DIRY7BgpkQQTivyr/DsFPBUNHmQMylJ75AdzHBCzWKQN57EECYQaXB
OXuIQMl9m0BdIY7BwMx6QESehMDQOZHBY8OaQK+6QEBkQpvBS0W5QFpF2EAWmorBSNJwQNq8gEDo
j5fBT2GTQGHhOsAIAY7B9qijQP2HA0CJkZLBnYMFQQBrqL4vpFrBMzquQCpCtECJpJHB+0TDQNKe
fMBEGYPBTovlQC4+NkDIsI3B6d/fQJwF4j9BDE7BtLAUQZjIoz/5aj7B1AlcQMrZnEAZM6DBHQMA
QYXqTD8ZjEbBikPjQKa5D8Claa7BztXYvlHFoMDIhHDBXSYFQb+H+b284arBHLKTQIVaEsCV+63B
pytivoTOOMBNV4LB1dmwP0Nk18DxzXLBC8DhQPZH+z9z9abBgExWQKR7aL7faqnBfVLjP3nTHcCY
uo3BIoJYQMvzycBCuITBDeyqQAXD9b5oTZDBRgvkQIb3G8C+gGrBxIj7QKyE4D+NdnXBnICNQE70
dsAq56HBSkRBQPg0nsAYm5/B64s1QC7DSsBFA57BvR1vQBFc7UBerIjBsPGeQBb3CkGrF4bB7IGT
QIIIA0EEm5PBKFH9QCud0kBFyY3BzGvhQM999kCFlZbBkNvsQHstA0EsEonBPXsZQf1Osr/4zUTB
rakEQSTfF8Cb6lDBF8wbQSsB9L+LP2DBM9neQK2z/z40ACTBBGPJQJjJIL+qoTfBZ+v8QGKwcr8e
+SvByiSMQOiuO0ASMKzB6EhRQC+n/D/s4qPBsUFeQI9/sUAtfIvBXnWRQG5FhkA/eofB3jiTQE8F
oMC7XJDBwB64QDusY0BDYZ3BLiq8QIJEzUA2RoLBrp83QEnJXUBEB5XBj9iJQJltA8CINZHBbYCM
QHFetD+LoJDBAVPHQOxxoEDS9JHBBE+oQAzXv0C+85jB+PlHQHKXjECBHKbB

> <OMEGA_E>
MJNlPxy7RD9mWDw/

> <OMEGA_NBR>
     13490

$$$$
50150455
  -OEChem-04172616093D

 77 81  0     1  0  0  0  0  0999 V2000
    6.5511   -0.8872  -21.8508 C   0  0  0  0  0  0  0  0  0  0  0  0
    0.4705   -5.2534  -15.2679 C   0  0  0  0  0  0  0  0  0  0  0  0
    6.8366    0.4166  -22.2562 C   0  0  0  0  0  0  0  0  0  0  0  0
    5.5749   -1.1176  -20.8815 C   0  0  0  0  0  0  0  0  0  0  0  0
    0.8149   -3.9206  -15.4931 C   0  0  0  0  0  0  0  0  0  0  0  0
    1.2243   -6.2750  -15.8453 C   0  0  0  0  0  0  0  0  0  0  0  0
    6.1460    1.4897  -21.6927 C   0  0  0  0  0  0  0  0  0  0  0  0
    4.8843   -0.0445  -20.3181 C   0  0  0  0  0  0  0  0  0  0  0  0
    1.9130   -3.6095  -16.2953 C   0  0  0  0  0  0  0  0  0  0  0  0
    2.3224   -5.9639  -16.6474 C   0  0  0  0  0  0  0  0  0  0  0  0
    6.0939   -0.7701  -16.8253 C   0  0  0  0  0  0  0  0  0  0  0  0
    6.6875   -1.6801  -14.6689 C   0  0  0  0  0  0  0  0  0  0  0  0
    6.1188   -1.8393  -15.9318 C   0  0  0  0  0  0  0  0  0  0  0  0
    6.6302    0.4628  -16.4526 C   0  0  0  0  0  0  0  0  0  0  0  0
    7.1940    0.6373  -15.1818 C   0  0  0  0  0  0  0  0  0  0  0  0
    5.1698    1.2593  -20.7234 C   0  0  0  0  0  0  0  0  0  0  0  0
    2.6669   -4.6312  -16.8726 C   0  0  0  0  0  0  0  0  0  0  0  0
    7.2367   -0.4501  -14.2988 C   0  0  0  0  0  0  0  0  0  0  0  0
    5.5557   -3.1232  -16.3187 C   0  0  0  0  0  0  0  0  0  0  0  0
    6.5847    1.5458  -17.4280 C   0  0  0  0  0  0  0  0  0  0  0  0
    7.7686    1.9701  -14.7942 C   0  0  0  0  0  0  0  0  0  0  0  0
    7.9598    2.0475  -13.2855 C   0  0  0  0  0  0  0  0  0  0  0  0
    5.5442    8.6049  -18.6454 C   0  0  0  0  0  0  0  0  0  0  0  0
    7.0190    8.3317  -18.5617 C   0  0  0  0  0  0  0  0  0  0  0  0
    8.6024    0.7587  -12.7977 C   0  0  0  0  0  0  0  0  0  0  0  0
    6.1182    7.3760  -19.2902 C   0  0  0  0  0  0  0  0  0  0  0  0
    3.4728   -4.1415  -19.2127 C   0  0  0  0  0  0  0  0  0  0  0  0
    4.4215    2.4216  -20.1126 C   0  0  0  0  0  0  0  0  0  0  0  0
    4.5167    5.4809  -19.0023 C   0  0  0  0  0  0  0  0  0  0  0  0
    3.8577   -4.2942  -17.7426 C   0  0  1  0  0  0  0  0  0  0  0  0
    5.1115    2.9799  -18.8558 C   0  0  1  0  0  0  0  0  0  0  0  0
    4.3342    4.1662  -18.2468 C   0  0  2  0  0  0  0  0  0  0  0  0
    4.5320   -3.1054  -17.2727 N   0  0  0  0  0  0  0  0  0  0  0  0
    5.3203    1.9388  -17.8755 N   0  0  0  0  0  0  0  0  0  0  0  0
    5.8388    6.0644  -18.6484 N   0  3  0  0  0  0  0  0  0  0  0  0
    5.9665   -4.1749  -15.7979 O   0  0  0  0  0  0  0  0  0  0  0  0
    7.6354    2.0632  -17.8397 O   0  0  0  0  0  0  0  0  0  0  0  0
    7.7696   -0.3804  -13.0372 O   0  0  0  0  0  0  0  0  0  0  0  0
    2.9399    3.8459  -18.2376 O   0  0  0  0  0  0  0  0  0  0  0  0
    7.0887   -1.7227  -22.2894 H   0  0  0  0  0  0  0  0  0  0  0  0
   -0.3844   -5.4956  -14.6435 H   0  0  0  0  0  0  0  0  0  0  0  0
    7.5964    0.5961  -23.0112 H   0  0  0  0  0  0  0  0  0  0  0  0
    5.3525   -2.1326  -20.5656 H   0  0  0  0  0  0  0  0  0  0  0  0
    0.2282   -3.1249  -15.0433 H   0  0  0  0  0  0  0  0  0  0  0  0
    0.9562   -7.3128  -15.6702 H   0  0  0  0  0  0  0  0  0  0  0  0
    6.3755    2.5020  -22.0148 H   0  0  0  0  0  0  0  0  0  0  0  0
    4.1247   -0.2340  -19.5643 H   0  0  0  0  0  0  0  0  0  0  0  0
    2.1736   -2.5681  -16.4651 H   0  0  0  0  0  0  0  0  0  0  0  0
    2.9043   -6.7669  -17.0921 H   0  0  0  0  0  0  0  0  0  0  0  0
    5.6549   -0.8985  -17.8126 H   0  0  0  0  0  0  0  0  0  0  0  0
    6.7105   -2.5149  -13.9718 H   0  0  0  0  0  0  0  0  0  0  0  0
    8.7346    2.0978  -15.2972 H   0  0  0  0  0  0  0  0  0  0  0  0
    7.1101    2.7897  -15.1035 H   0  0  0  0  0  0  0  0  0  0  0  0
    8.5758    2.9144  -13.0249 H   0  0  0  0  0  0  0  0  0  0  0  0
    6.9829    2.1714  -12.8013 H   0  0  0  0  0  0  0  0  0  0  0  0
    4.9594    8.4948  -17.7404 H   0  0  0  0  0  0  0  0  0  0  0  0
    5.2172    9.4086  -19.2938 H   0  0  0  0  0  0  0  0  0  0  0  0
    7.6805    8.9519  -19.1543 H   0  0  0  0  0  0  0  0  0  0  0  0
    7.4231    8.0386  -17.6004 H   0  0  0  0  0  0  0  0  0  0  0  0
    9.5800    0.5921  -13.2670 H   0  0  0  0  0  0  0  0  0  0  0  0
    8.7664    0.8170  -11.7165 H   0  0  0  0  0  0  0  0  0  0  0  0
    6.1760    7.3601  -20.3720 H   0  0  0  0  0  0  0  0  0  0  0  0
    2.7287   -3.3512  -19.3609 H   0  0  0  0  0  0  0  0  0  0  0  0
    4.3479   -3.8993  -19.8263 H   0  0  0  0  0  0  0  0  0  0  0  0
    3.0370   -5.0715  -19.5952 H   0  0  0  0  0  0  0  0  0  0  0  0
    4.3367    3.2073  -20.8744 H   0  0  0  0  0  0  0  0  0  0  0  0
    3.3942    2.1075  -19.8870 H   0  0  0  0  0  0  0  0  0  0  0  0
    4.5237    5.3501  -20.0872 H   0  0  0  0  0  0  0  0  0  0  0  0
    3.7741    6.2319  -18.7166 H   0  0  0  0  0  0  0  0  0  0  0  0
    4.6007   -5.0974  -17.6710 H   0  0  0  0  0  0  0  0  0  0  0  0
    6.1192    3.3296  -19.1147 H   0  0  0  0  0  0  0  0  0  0  0  0
    4.6390    4.2943  -17.2002 H   0  0  0  0  0  0  0  0  0  0  0  0
    4.1918   -2.2145  -17.6186 H   0  0  0  0  0  0  0  0  0  0  0  0
    4.4995    1.4380  -17.5519 H   0  0  0  0  0  0  0  0  0  0  0  0
    5.8970    6.1694  -17.6263 H   0  0  0  0  0  0  0  0  0  0  0  0
    6.5796    5.3984  -18.9046 H   0  0  0  0  0  0  0  0  0  0  0  0
    2.8572    3.0115  -17.7538 H   0  0  0  0  0  0  0  0  0  0  0  0
  1  3  1  0  0  0  0
  1  4  2  0  0  0  0
  2  5  1  0  0  0  0
  2  6  2  0  0  0  0
  3  7  2  0  0  0  0
  4  8  1  0  0  0  0
  5  9  2  0  0  0  0
  6 10  1  0  0  0  0
  7 16  1  0  0  0  0
  8 16  2  0  0  0  0
  9 17  1  0  0  0  0
 10 17  2  0  0  0  0
 11 13  1  0  0  0  0
 11 14  2  0  0  0  0
 12 13  2  0  0  0  0
 12 18  1  0  0  0  0
 13 19  1  0  0  0  0
 14 15  1  0  0  0  0
 14 20  1  0  0  0  0
 15 18  2  0  0  0  0
 15 21  1  0  0  0  0
 16 28  1  0  0  0  0
 17 30  1  0  0  0  0
 18 38  1  0  0  0  0
 19 33  1  0  0  0  0
 19 36  2  0  0  0  0
 20 34  1  0  0  0  0
 20 37  2  0  0  0  0
 21 22  1  0  0  0  0
 22 25  1  0  0  0  0
 23 24  1  0  0  0  0
 23 26  1  0  0  0  0
 24 26  1  0  0  0  0
 25 38  1  0  0  0  0
 26 35  1  0  0  0  0
 27 30  1  0  0  0  0
 28 31  1  0  0  0  0
 29 32  1  0  0  0  0
 29 35  1  0  0  0  0
 30 33  1  0  0  0  0
 31 32  1  0  0  0  0
 31 34  1  0  0  0  0
 32 39  1  0  0  0  0
  1 40  1  0  0  0  0
  2 41  1  0  0  0  0
  3 42  1  0  0  0  0
  4 43  1  0  0  0  0
  5 44  1  0  0  0  0
  6 45  1  0  0  0  0
  7 46  1  0  0  0  0
  8 47  1  0  0  0  0
  9 48  1  0  0  0  0
 10 49  1  0  0  0  0
 11 50  1  0  0  0  0
 12 51  1  0  0  0  0
 21 52  1  0  0  0  0
 21 53  1  0  0  0  0
 22 54  1  0  0  0  0
 22 55  1  0  0  0  0
 23 56  1  0  0  0  0
 23 57  1  0  0  0  0
 24 58  1  0  0  0  0
 24 59  1  0  0  0  0
 25 60  1  0  0  0  0
 25 61  1  0  0  0  0
 26 62  1  0  0  0  0
 27 63  1  0  0  0  0
 27 64  1  0  0  0  0
 27 65  1  0  0  0  0
 28 66  1  0  0  0  0
 28 67  1  0  0  0  0
 29 68  1  0  0  0  0
 29 69  1  0  0  0  0
 30 70  1  0  0  0  0
 31 71  1  0  0  0  0
 32 72  1  0  0  0  0
 33 73  1  0  0  0  0
 34 74  1  0  0  0  0
 35 75  1  0  0  0  0
 35 76  1  0  0  0  0
 39 77  1  0  0  0  0
M  CHG  1  35   1
M  END
> <OMEGA_C>
NKLRQEohY79rzq7B5OPwPpcbqMBKSXTBcsXaQDdG1T6hDLLBa2WyQCcNj79fDafBFJ1QP5HqesDg
43fBOrecPxjNyMAmhn3BTKzEQPitvj+kiq3BRUycQGAYNr1ji6LB1tz0Pz8BZ8CwXILBwqIUQG/Y
vsDSLYXBZAHDQOIjRb8wmobB6f/VQLAN17/Is2rBZ83DQNZu67+w6H7BtirUQIj17D7gnoPBgzXm
QFIkIz+V6HLBO2+lQEowoT+EyaXBxK0qQJwylMAk+4bB4JLnQKp45r7Sx2TBGMixQC7iR8DBjILB
9rXSQB7dxT+dbIvB/pf4QNgt/D/ltGzBB7f+QOgKA0BekVTBCGqxQHmtCUHQKZXBfZvgQKVOBUFe
fpTBdKMJQaQ4Qj9Vw0zBTMjDQP0H7EBnUprBykFeQIKHhMCFs5nBvXyNQE/8GkCo5qDB0IiQQFpj
r0DBBJjBGeV2QDhqicDj8I3BVpGjQFa3PkC72JbB1LGKQK5RhUBs+ZHBNwaRQK6/RsCHLorB+D+q
QC4q+D8NAY/BPte6QMMPwkDhL5XB5+2+QH6YhcBPxHzBcVX0QDQLBEDMt47BraD4QNy9wr48mFDB
5iY8QCAjdkCj5pHBPNbiQKaB3L+pULLBKs/Evkvcr8CzS2rBtxXzQPKWGD/hFrjBAkirQJB8CMBi
hqTBRLZpPuL+R8BnsXDBMsx0P3wC6sAMuXrBEgTMQPggIEBTHrDBwP2DQPijb76fg5zBGRwLQG1b
JMCQuIPBjOA5QFSK2MCLvIjB5vS0QIQCZr8pgI7BTbzWQFTzIMBijF/B/8ALQV5CBkBjwXTBw4Xj
QCGKMkDIp3HBaTYJQZiFOkDRZVDBynPfQLL3CkAc0kzBObOeQJLqB0FQ7I3BNfOmQMGJFkGvWZrB
UMb1QBc7D0EWPJnB2IntQB+eAEGlzYzBvEcZQZ2RFz9uRVTB+UIMQeIjUT+xdjvBE6LFQOCF60Dd
+aLBHKMuQJh6VsAR45rBOiKLQA6OecA2nJ7BrF1CQBFKosAOw5zBZMaKQBhETUC+/qbBRTtZQP7h
BkClGJ/Bx8GQQNszq0B+sqDBGItxQJxrx0CZu5XBAzmTQA8eo8A2Xo3BbdDDQOgYVUDZ6pjBTnKU
QDxriUAFmonBMCOGQKG5DcDs8ozBz/uPQGQRuD8yaozBXLS8QNlrxUCTAo3BOozSQAjArECWPJfB
T9w2QBW8QEC+B47B3ADSQACuRr+3qq7B6nKhPtWxmsCBWnPB2LHdQLYfAz+IyrHB7t6yQATpdL+D
zabBLJA+P4+GYcAIu3bBjjt9PwCevMDdDX3BFEHKQA1Qzz8BDq3BKG6fQFJdGj76EKLBMm/sPwWC
UcB85oHBceIFQLmbtMDnD4XB4GDGQIkLNr/gZIbB5IrYQPrS2L8EsGrBVF3FQE6m5b+bw37B1Ffa
QGs29D4LV4PBOmftQH6zFz/yeHLB2R6rQGsxuD+5MKXBSFghQKitisAywIbBROnsQO9zAr8loGTB
+mywQMv8QcBSjYLBPK/aQPrIyT/IAIvBwGcBQSpW8D/QHGzBDfMEQY5r9T8+BFTBxfDHQLdUC0Hi
upPBEHv2QO9fBUE9TpPB1vQNQVmmFD9otkzBOEjXQCuL7kCKHpnBV15UQF4Ud8CbhZnBYA2WQMLd
KEBxDqDBAkCgQLlPtUBE0ZbB9+FtQL4BgsC61o3ByvStQHA/SEAxCZbBxAOYQMJVi0Cm6JDB0USP
QOh7O8BbCIrBs+uyQPTZA0A2Wo7BxuXLQNDuxEACG5TBu5G7QO23g8DYJX3BFR39QEzfAUA6Yo7B
jsH+QHUN/r7UlFDBVaRVQJYUhECXrJDBMSPhQOCy0b+HWrLBXg4Lv4buoMDeLWnBPe31QDApJz+x
6rfBnMSpQJfV+r8sXqTBpE1hPkuxLMBNLG/BXbknP05E3cD7bXrBSJPTQIymJ0Bgiq/B0i6HQACA
drig85vB8yILQLPzD8BgK4PBGR0nQF1Az8DPzIjB3o23QDAyS78mPo7BQd3XQAqKIsApv1/BhNMQ
Qadx+T/SZ3TBFmHvQFehL0DOq3DBzccPQbUnL0A30E/B9DzrQIFHBkD29UvBSIa1QOb1CUHTa4zB
rd++QBuuGEFLxZjBoU0GQW25DkGZEJjB3aIBQUgDAEEOtovBXEEdQaS+tj5CilTBke0QQTUyHD9o
czvBaoLYQAd77kACyKHBGxcoQH5JQcARgZrBYE+GQIK0asCThp7BtSQ0QDgZmMDnoZzBXJ6UQGIw
XEB6CqbBfWppQL31GECVJJ7B5pqfQKawsUC4gp/B7U6KQOK4zkCLVZTBEfqMQK5FncB2eI3BOrzO
QJ6LWkBQNZjBcJWiQLw5jkAOkYjBgCGGQJjHAMBBpIzBntGXQEYWzj/5tIvB1ojOQMWfx0An7YvB
VvvhQIU5rkCUV5bBKE9NQNa6UkDz5IzB

> <OMEGA_E>
z79VwetBQ8E=

> <OMEGA_NBR>
     16230

$$$$
50150462
  -OEChem-04172616093D

 73 76  0     1  0  0  0  0  0999 V2000
    6.2242   -1.6005  -21.6340 C   0  0  0  0  0  0  0  0  0  0  0  0
    0.4237   -4.8131  -15.6363 C   0  0  0  0  0  0  0  0  0  0  0  0
    7.0393   -0.4885  -21.3402 C   0  0  0  0  0  0  0  0  0  0  0  0
    4.8221   -1.4716  -21.6095 C   0  0  0  0  0  0  0  0  0  0  0  0
    0.5427   -3.6475  -16.4196 C   0  0  0  0  0  0  0  0  0  0  0  0
    1.4373   -5.7914  -15.6690 C   0  0  0  0  0  0  0  0  0  0  0  0
    6.4532    0.7531  -21.0218 C   0  0  0  0  0  0  0  0  0  0  0  0
    4.2344   -0.2374  -21.2766 C   0  0  0  0  0  0  0  0  0  0  0  0
    1.6758   -3.4592  -17.2359 C   0  0  0  0  0  0  0  0  0  0  0  0
    2.5676   -5.6085  -16.4890 C   0  0  0  0  0  0  0  0  0  0  0  0
    6.0674   -0.6013  -17.2281 C   0  0  0  0  0  0  0  0  0  0  0  0
    7.0889   -1.6729  -15.2922 C   0  0  0  0  0  0  0  0  0  0  0  0
    7.4370    0.7093  -15.6910 C   0  0  0  0  0  0  0  0  0  0  0  0
    6.3029   -1.7616  -16.4618 C   0  0  0  0  0  0  0  0  0  0  0  0
    6.6409    0.6307  -16.8569 C   0  0  0  0  0  0  0  0  0  0  0  0
    5.0461    0.8797  -20.9770 C   0  0  0  0  0  0  0  0  0  0  0  0
    2.6907   -4.4449  -17.2791 C   0  0  0  0  0  0  0  0  0  0  0  0
    7.6423   -0.4438  -14.8846 C   0  0  0  0  0  0  0  0  0  0  0  0
    5.7205   -3.0532  -16.8803 C   0  0  0  0  0  0  0  0  0  0  0  0
    6.4029    1.8200  -17.6983 C   0  0  0  0  0  0  0  0  0  0  0  0
    5.5088    7.6698  -19.1047 C   0  0  0  0  0  0  0  0  0  0  0  0
    6.4113    7.6284  -17.8713 C   0  0  0  0  0  0  0  0  0  0  0  0
    5.6545    6.3665  -18.3048 C   0  0  0  0  0  0  0  0  0  0  0  0
    3.5257   -4.1468  -19.6397 C   0  0  0  0  0  0  0  0  0  0  0  0
    8.9154    0.8181  -13.2510 C   0  0  0  0  0  0  0  0  0  0  0  0
    4.3863    2.2214  -20.6956 C   0  0  0  0  0  0  0  0  0  0  0  0
    4.1489    4.5371  -17.5477 C   0  0  0  0  0  0  0  0  0  0  0  0
    3.9153   -4.2649  -18.1594 C   0  0  1  0  0  0  0  0  0  0  0  0
    4.9019    2.9410  -19.4167 C   0  0  1  0  0  0  0  0  0  0  0  0
    3.8201    3.9508  -18.9518 C   0  0  2  0  0  0  0  0  0  0  0  0
    4.6412   -3.0560  -17.7579 N   0  0  0  0  0  0  0  0  0  0  0  0
    5.1775    1.9479  -18.3567 N   0  0  0  0  0  0  0  0  0  0  0  0
    4.4824    5.9790  -17.4990 N   0  3  0  0  0  0  0  0  0  0  0  0
    6.1793   -4.1060  -16.4484 O   0  0  0  0  0  0  0  0  0  0  0  0
    7.2928    2.6516  -17.8461 O   0  0  0  0  0  0  0  0  0  0  0  0
    3.6517    4.9556  -19.9582 O   0  0  0  0  0  0  0  0  0  0  0  0
    8.3558   -0.4411  -13.6910 O   0  0  0  0  0  0  0  0  0  0  0  0
    6.6750   -2.5511  -21.8778 H   0  0  0  0  0  0  0  0  0  0  0  0
   -0.4448   -4.9565  -15.0106 H   0  0  0  0  0  0  0  0  0  0  0  0
    8.1145   -0.5881  -21.3591 H   0  0  0  0  0  0  0  0  0  0  0  0
    4.1978   -2.3205  -21.8463 H   0  0  0  0  0  0  0  0  0  0  0  0
   -0.2348   -2.8984  -16.3942 H   0  0  0  0  0  0  0  0  0  0  0  0
    1.3474   -6.6821  -15.0649 H   0  0  0  0  0  0  0  0  0  0  0  0
    7.0792    1.6078  -20.8121 H   0  0  0  0  0  0  0  0  0  0  0  0
    3.1588   -0.1435  -21.2500 H   0  0  0  0  0  0  0  0  0  0  0  0
    1.7699   -2.5617  -17.8292 H   0  0  0  0  0  0  0  0  0  0  0  0
    3.3424   -6.3605  -16.5135 H   0  0  0  0  0  0  0  0  0  0  0  0
    5.4421   -0.6577  -18.1069 H   0  0  0  0  0  0  0  0  0  0  0  0
    7.2681   -2.5596  -14.7022 H   0  0  0  0  0  0  0  0  0  0  0  0
    7.8910    1.6486  -15.4119 H   0  0  0  0  0  0  0  0  0  0  0  0
    4.5627    8.2302  -19.0752 H   0  0  0  0  0  0  0  0  0  0  0  0
    5.9523    7.7516  -20.1080 H   0  0  0  0  0  0  0  0  0  0  0  0
    7.5038    7.6811  -17.9879 H   0  0  0  0  0  0  0  0  0  0  0  0
    6.1143    8.1597  -16.9551 H   0  0  0  0  0  0  0  0  0  0  0  0
    6.2500    5.5657  -18.7675 H   0  0  0  0  0  0  0  0  0  0  0  0
    4.4325   -4.0177  -20.2488 H   0  0  0  0  0  0  0  0  0  0  0  0
    2.9998   -5.0602  -19.9543 H   0  0  0  0  0  0  0  0  0  0  0  0
    2.8653   -3.2778  -19.7767 H   0  0  0  0  0  0  0  0  0  0  0  0
    9.4485    0.6707  -12.3002 H   0  0  0  0  0  0  0  0  0  0  0  0
    9.6173    1.1926  -14.0106 H   0  0  0  0  0  0  0  0  0  0  0  0
    8.1058    1.5489  -13.1079 H   0  0  0  0  0  0  0  0  0  0  0  0
    4.5682    2.8806  -21.5571 H   0  0  0  0  0  0  0  0  0  0  0  0
    3.3048    2.0550  -20.5832 H   0  0  0  0  0  0  0  0  0  0  0  0
    3.2725    4.3742  -16.9032 H   0  0  0  0  0  0  0  0  0  0  0  0
    5.0084    3.9808  -17.1454 H   0  0  0  0  0  0  0  0  0  0  0  0
    4.5689   -5.1413  -18.0389 H   0  0  0  0  0  0  0  0  0  0  0  0
    5.8219    3.4912  -19.6636 H   0  0  0  0  0  0  0  0  0  0  0  0
    2.8776    3.3921  -18.8544 H   0  0  0  0  0  0  0  0  0  0  0  0
    4.3423   -2.1806  -18.1378 H   0  0  0  0  0  0  0  0  0  0  0  0
    4.4387    1.3273  -18.0941 H   0  0  0  0  0  0  0  0  0  0  0  0
    4.6637    6.2249  -16.5468 H   0  0  0  0  0  0  0  0  0  0  0  0
    3.6918    6.4932  -17.8314 H   0  0  0  0  0  0  0  0  0  0  0  0
    3.4538    4.5414  -20.7899 H   0  0  0  0  0  0  0  0  0  0  0  0
  1  3  1  0  0  0  0
  1  4  2  0  0  0  0
  2  5  1  0  0  0  0
  2  6  2  0  0  0  0
  3  7  2  0  0  0  0
  4  8  1  0  0  0  0
  5  9  2  0  0  0  0
  6 10  1  0  0  0  0
  7 16  1  0  0  0  0
  8 16  2  0  0  0  0
  9 17  1  0  0  0  0
 10 17  2  0  0  0  0
 11 14  1  0  0  0  0
 11 15  2  0  0  0  0
 12 14  2  0  0  0  0
 12 18  1  0  0  0  0
 13 15  1  0  0  0  0
 13 18  2  0  0  0  0
 14 19  1  0  0  0  0
 15 20  1  0  0  0  0
 16 26  1  0  0  0  0
 17 28  1  0  0  0  0
 18 37  1  0  0  0  0
 19 31  1  0  0  0  0
 19 34  2  0  0  0  0
 20 32  1  0  0  0  0
 20 35  2  0  0  0  0
 21 22  1  0  0  0  0
 21 23  1  0  0  0  0
 22 23  1  0  0  0  0
 23 33  1  0  0  0  0
 24 28  1  0  0  0  0
 25 37  1  0  0  0  0
 26 29  1  0  0  0  0
 27 30  1  0  0  0  0
 27 33  1  0  0  0  0
 28 31  1  0  0  0  0
 29 30  1  0  0  0  0
 29 32  1  0  0  0  0
 30 36  1  0  0  0  0
  1 38  1  0  0  0  0
  2 39  1  0  0  0  0
  3 40  1  0  0  0  0
  4 41  1  0  0  0  0
  5 42  1  0  0  0  0
  6 43  1  0  0  0  0
  7 44  1  0  0  0  0
  8 45  1  0  0  0  0
  9 46  1  0  0  0  0
 10 47  1  0  0  0  0
 11 48  1  0  0  0  0
 12 49  1  0  0  0  0
 13 50  1  0  0  0  0
 21 51  1  0  0  0  0
 21 52  1  0  0  0  0
 22 53  1  0  0  0  0
 22 54  1  0  0  0  0
 23 55  1  0  0  0  0
 24 56  1  0  0  0  0
 24 57  1  0  0  0  0
 24 58  1  0  0  0  0
 25 59  1  0  0  0  0
 25 60  1  0  0  0  0
 25 61  1  0  0  0  0
 26 62  1  0  0  0  0
 26 63  1  0  0  0  0
 27 64  1  0  0  0  0
 27 65  1  0  0  0  0
 28 66  1  0  0  0  0
 29 67  1  0  0  0  0
 30 68  1  0  0  0  0
 31 69  1  0  0  0  0
 32 70  1  0  0  0  0
 33 71  1  0  0  0  0
 33 72  1  0  0  0  0
 36 73  1  0  0  0  0
M  CHG  1  33   1
M  END
> <OMEGA_C>
0izHQFTczL9nEq3Bqu/YPqwEmsAmLnrB0UHhQBIc+r7AuKrB3E6aQJBevL824KzB0PAKPzJxacBa
W4PBdvq3P2VTucBMtHrBboDOQCTOQD+uLKjBKoCHQI8fc76INqrBt3/WP0ljXcAX44nBvlIkQDh5
s8Bp6YPB2yfCQMvsGb8104nBVdjiQGoh1r+1rHTBIvztQFiSNT9PDnvBkLHJQGh94b+7sYPBRILU
QPh2IT/W2obBUHmhQA03YT/60KfBqzMsQMs8jsCWO4rB7o30QFg6474vJ27BZg63QENnQ8DzCofB
weTMQCz26D8Plo3BPUiwQMxu9UB41pjBWinNQP8b9ECG+I7BifG0QIW6y0BVcJLBY6VhQGiyhMAM
Hp3BWqUOQSVuUT9ABFTBjFyMQAArDkCPkKXBzMOEQPkvkUCwYYzBgZN6QLh5iMB0RpHBNtycQKs5
PEBqVZvBj3x0QFDZfEA/nZfBbYSUQK+VQ8AnEI7Baa6lQKBT+T+b2pLBCHCPQI9Tv0Dw/YvBxbzF
QItkg8BWloPBqV7pQIO0KUDDxI7BLrZpQDGUnkBcqp/Bb7EFQVnS4b55DlvBx5nVQHpFI8DLBa/B
fL/jvm2bnsBHK3DBC9UBQUyPFr+C36rBTVSGQMmCFMAixa7B0W5wvnF/OcBoJ4PBO3asP+rT1cDD
CXHBxojiQKvNzT8Xf6bB/SlKQPD8Er4CAKrBNY3iP83yI8A9oo7BVulVQFuJy8CdG4TBkiWuQA1e
KL/w2pDBHpToQEDQI8AmPGvBwYL8QOoG0z8Tl3bB7gGSQNSuA0EFmpjBTXm+QCQN+EA93aDBYh/w
QOHL9UBK54/BA6jDQDKOAkESpIfBGADIQBMaskDDI5bBLteNQP2QgMCT/aHBYfw/QHntocBcop/B
pWE3QJbHUcC2Np7BHC0XQd+zKz+8zUTBhuAZQUiomD+NK2DBQ7EBQbZBxj/HuVHBFi+SQAVcOEAL
dazBkYFTQJWEA0BYqqTB2nBRQEn5i0C5OYfBtkSgQNDFfkDPKYnBwjSSQJSFpMCST5DBuEy6QGtv
X0AQT53BKSo4QHoXWUDH1ZbBSfSKQAmPC8BGGpHBDwqOQFzjqT+pwJDBDj2VQMUyx0DmX4TBY0Zs
QPjHz0Czpo7BYQtdQOBSkUC1UabBiCbJQL/8gL95Ba3BVgAqPt5ol8DbOn/BSDzkQGyCvz0MI6vB
J4mcQHZlXL9P6avBL3C9Pld3X8A6uITB3tmOP8JmuMA8wYDBgMjSQFJZqz/LHajBEwqLQFRTwT6E
tajBmdHCP2sgUsBr/orB1EERQGbJscC0AYfB4jrCQI2hJb+7QInBZT3cQDox8b/menPBPHPtQECq
9D6+bXfBw3TFQE7V7b/2gIPB17TWQGP3Az/Nb4XB9hGmQB48vj+9t6bB2HYeQOEtisDbMIzB9arv
QB8hOL9dXWvBevewQBleRcDDpYfBherTQDas4j/mfovBLs2+QP+u80CwRqXBBxGeQOyFB0G2G5/B
nyzAQCVl9UB3AJnBoKxWQA6+dsAEvp7BNxwKQRyM1T4aaE7Bs0+TQP7HM0B8gqLB5naPQHiUtUDS
VpbBsgtuQIOkg8AV/pLB2x2pQOB4T0CoyZfBWPKPQHxEiUDsCZHBC5+PQKcsPsCD9I7Bsc+uQBf0
AkA+JJHBO+K0QJjGzkC2h5LBFw29QAHyhcC4j4TBN5LxQHbDJEBkQovBGfhJQE82d0DzhY/BH/YB
QUB7T7+colfBfYvWQPkM+787T6/B8Ps3vzWInMDYp3XBkTgDQYeVgLysAazBp6mHQJ1Z2b+ug63B
0MK2vt3aLMCP0oPBhKJ1P5nI1sDsqXnBYarnQDfUC0Dg3KbBwa1RQCm+9T7exafBP7LWP1hDFcBS
5Y7BY+U/QHATy8B41ofBRgiwQNpfHL+ml5DBCsneQJ3UM8CNqmrBH079QBAPrz+CrXHBF220QMJD
1kBXWqnBhRrYQF6hAUGS/qnBcPufQA4WGUHvap/BA5x4QJGWAkGzxp7BDV7aQLZ3BEEzu5XBe7+I
QLSRbcB6cKPBxP8yQATxlsBu6aHBtsEuQAzsPMCCS5/B2KwRQebGSz465z7BpAAWQdA/XD9fRVnB
1a35QKDqjz+6CkzB7GWYQG0bZkDMh6jBX5dhQCh4K0BnIaHBrzqRQJ7lsUBoFJ/BpHVjQKhexkAJ
NJTB1caKQJq6oMC6kpLBmafIQK2takCwtpnBjPOfQOY3jEBcPInBDviHQBXHA8CInJHBKpuWQGeJ
sj8vqZDBy1HOQB5cu0CTepLBSqOuQCt92EC4EYvBkp9JQAddQECEPozB16XHQFAaVr+/za3BCGkL
PxOQo8AFK3jBu0TcQGVEzj7EU6zB1zibQOr6cb/qF6zB07caPwJCeMDIiIHBVDjJPx7xwcCs33rB
QZ/EQOHiwz81DqnBoZaDQDIBNT7GpajB+CbYP68/ZsDNYIjBzBwqQMj7uMAQQYTBUhrBQBTNIL8T
UInBWfbhQPXe3L8I73PB5ADsQCjNKj9Yc3nB8N7IQF9b5r/JW4PBseTSQJ6wGT+8EYbBFkiYQOah
tT/cAKfBmvstQF6ukcDuzonBXyHzQFvk/b7Q+2zB+ma2QO1fRcAL7YbBEtLJQEow6D/eP4zBatSi
QIncBkEze5fBEKjQQOZyAUFG1JPBqSizQDHF30AcDpjBDqFaQENVgsAp15zBbpgMQdphST/VGlLB
vH9/QKVdJkAzNqLB0NxyQNdgrUAkBpTB5+F4QG/MiMDgQJHBPTCVQEUQRUBvk5fB2u9wQHD5fUCx
TJDBQjmTQG6JRMABwI3BBGSiQBZD9T97S5HBT+WhQGivwEATZJDBwr7FQBudhMA20YPBHOzjQFG9
LkBIjIzBNa0aQGd9YUAQXJDBqwYFQblj/L5w7VnByd/ZQHnT2b9gPrDBmuaTvnd/qsBbvW3BWUb+
QKEo+j7dtK3Bsz+LQAm58b/va63B4245vs2XScBnd4DBIW7DPz4f4MBDfHLBW27UQB/xHkCNHKjB
gTFDQKmPsz1pQqfBZfPdP/27KcCTiYzBCp1cQCNA0MCmPIXBFmatQM4zLL/qZpDBTQ/oQMDOJ8Cd
ymrBkeL5QPHnzT+tmXTBQmWKQLVJC0HGi5HBb6OdQOkJEEGQ4J7BITvsQAu/BkFlnZjB9PzYQNb+
AUGbSIvBNZ26QEPO00BaHqDBrBqJQDr7d8D2AKLBbaY5QJlgn8CWnp/BNVkuQCwCTsBCMZ3B0VYV
QVLZIz/5AkPBFlMXQSKPnj/jCF7B4Lv9QBz2uT9uVU/Boy9/QLiBW0DK+6fBj0s9QO6AEkBriqDB
4h9vQPamrkBJzpzBsHE8QEHnvkBTkJDB41iSQHlWpMAbCZHBIruxQLSKakAHt5nBVVWFQNsWe0DG
HYjBd9qIQM/nC8BfbZDBQOWNQICYkz/+mJDBuG63QCFkqUDrV4/BcbicQE6Qz0BrbYnBWVAYQHyb
J0BtDY7B6fPGQM7zrL+wnK7BhO7cPlcKmsAl+XjBSRrfQBziM74DNa3BRC+aQBAHqb/9Ta3BsPEN
PzQLZsCSDoLBptK2P8SmucDk/nrB9YDKQDabgz8VearB6paFQEygAL6jTKrB6h/WP8FGV8B/qojB
d/MiQJtcssBEGYTBTovEQPefFb8bbYnBOmTiQKQx0L8GC3PBvnvvQJphPT9GI3rB6h7KQHSr3L+O
CIPB/kHXQAhDJD/Gh4bBOa+dQDS/hj9CxqjBH/IqQEd4i8CMwInByLT0QEqQyr6Hx2zBKmG2QIe0
P8CybYbBmw/QQNI95z/7Xo3BHrjCQEzc9ECJ3pTBOvunQJXcAUFsN4vBKZmkQObe1UBaII/BL3Jc
QJDwfMAZqJzBqukMQcgFbj+JH1LBi8aHQFRCFEBTuKTB9iKAQBmPpEDOY5vBAe53QCmIhMCZ9ZDB
jWWgQAVMOEAc8prB29OHQF6LekDUdJTBYMWTQCpaPcCCc43BpIarQApj5z/EoZPBltJ3QJLXyUBr
W5TBZo7EQOsDgsBKKIPB61XpQCa8L0BJeY3BbDNAQGJkW0DxcJDBFG4FQR55ub7mglnBjb3WQHmr
EcD5sLDBCq/avgG2n8Dc4W7B9rQAQSeNSr4YOq7BvZmHQDLYDcCGnK7B9JhVvsiLNcCrQoHBD9qq
Pwx/18B0aXLBIOzcQErd9z+uqqnBEatGQIku470rKanBfVviPy5bG8CL54zBFdxTQEeaysCq1oTB
Y66xQFdRJr+epZDBMPvmQMYkIMCmMWnBCxr+QCkF1z9ByXXBqe66QE0sAEHm9JzBaZblQCMg8UB5
G5TBusG3QO9dBUEljIPB+hmNQCv6DEGTZYzBCQe0QGhuvUB0GorBTreKQIEMc8B2rKHB7vY5QKgh
m8AVZp/BMzoyQLnSRMANR53BSlkVQen/Tj+EzELBNuYXQQ7nrT/jCV7Bu1X+QLUtzT/X7U/B6FSH
QBV9REAtIavBl4FNQC0BBUDhV6LBN1CbQLUuqUCk3KDBcDZFQDxXoEDJD6DBRMmQQLfYoMD7eJDB
duy9QDJnVkD+6J3BbyecQNP9hkD6sY3B5pqKQBhZBMCARpDBV7CXQOhUgz+RFZPBC71MQPMdw0Bv
r47B4lVjQAqo4kALtpjBGRtKQEBeKkCoHozB6WHEQCwByL+bda3B457MPtDNmcC863rBrz/fQHDV
575IqKvBsJ2XQBhAtL+YAq3BWQMDPyjSasD0DoTBeSe5P5fyt8A3KHrBqmbNQO7iTz+Ya6nBorWF
QACxGL6+pqrBHdbVP6hKXsB3SIrBypomQF7ZscAgU4PBdG3DQCjwCr94yonBwKnhQAaCwr+MKnPB
FuTsQC9pWD/iFHvBpQfKQGhE1b/vK4PB5NDUQBwhNj/hDofBNIGgQMz/dz/O2KjBPRIuQBSLjcCi
/InB5ozyQNRDgr7gM23BzFe3QF5dPsASNobB/bjMQGKi7z8TFY7BXlKvQD67x0ARWorBynW3QMt6
80DOjI/B7QWPQIQ42kAhUZLB7RNoQIINhcA8r5zBfSQBQX5cgb8DKUnBA62MQPBvFUDhiKbBlgpa
QNkqo0BBy53BtUV+QPehh8DOuJDBVVebQLZBPkArr5vBofpvQB4ZeEDEuZbBIrGVQG+/QMDLiI3B
rGWmQHyP9j8iz5PBcaCMQEF2xkBlCJ3BJ+PEQORMgMCdK4LBsYznQDLHMECs247BiBUjQJx9SEDB
eJXBjhUEQRCIAb0tD1rBsxvSQNLrIcC/Lq/Bu0T6vh6XnsBhZHHBc8kAQVRIEr+R/avBswCDQHJa
EMCBea7BxdWUvjmePMBbWITBeFKuP4HA08De+2/BwBPiQPbP1D+PJKjBpMJGQH0RF70LOKrBvhDh
P2c5JsB3SY/BaNVZQI0EycCmBIPBHtmwQIIcJb+0B5HBdObmQIsbGMDS+2jBPhf7QFUw5j/VHnfB
9gzDQJIBrEB+mozBwSqnQH+4xUBWzoHBJie1QFBrCEHHuorBWwnRQLMf90DvhpXBtPFhQEVY5kBS
4Y7B1o6RQNrJgMCuW6HBhBdIQPPJosAeLJ/ByB09QJx4U8DMFZ7BjYUKQU2tNr/bCzvBDTLgQOYz
iL/J20TBQ5MGQRmJ/7+7xU7Bt5OVQDVAQUCtDa3BbFtTQMEPDkAOVqbBduJWQLmKmECXLKbB8Ckb
QKaJr0DrUpvBs0CUQAhXo8AGdo/BBLC3QAATZkCsP53BvlCDQK6ih0DP6Y7Bd0+MQLeECcCY05DB
duGQQEI2mj9RfJLBh4qEQMsa3UDjT6LBZIGpQHbRukCg4J7BJdUtQCKdF0DeJ5HBE9PJQI5Ygb9C
AK7Ba1TkPq3jnsB83HjBa3bfQGxFYT4sHa3BpUOdQD6siL+/VqzBU7AJP7+5ccBycoLBsUa9PyJ+
vcAX5nnBP7fIQJzvsT8ieqrBk4SGQNg5yj0tfanBQarUP1PiYsBl/4jBNZEmQGMntsAifoPB+N3B
QGW2E79CpYnBUuXfQAaczL+FLHPBShrtQNazQT+UvHrBr/7HQMCP2787J4PBjL7UQLGvJz+p2IbB
LEmcQGSsqj/SZ6jBs6ssQBczkMDqlInBtNjxQDZqtL54CW3BwmS1QJgdQcBwV4bBq8rNQLoI6z8w
p43BsDPWQFiQAkGtmJvBduq6QCRv9kAWKaXB3vioQHOq80D1xJnBB/dfQKSDhcCAiZzB0e8BQQrr
l7/JtEnB7RCFQNOGJEBWHaTBx+R/QA1PsEDxUZjBWTl6QAb/iMAiuJDByu6bQCwTR0BQ1pnB6i+B
QKTZg0A1JJPBW3eTQNUwQ8A8j43Bkc+mQFZ3/D+V5pLBC02lQIJLyUDDopTBjrfDQL/ggcDflILB
jXfpQLTvLECIVY7BU+8sQM8zakAq7JHB8dwDQcRcHr766FnBQFvbQMxQ9L+y86/B1/7UvsqSpMBq
2G7B3cgAQUtTiD5wda7B5n2MQE1VAMAMP63B66WBvk7IQsDDCYLBtE60P2ma2sAjp3DBfU7ZQN5/
FUAECarB7thIQPh6Sj2fIajBlKbdP+B1KMCQlI3B6TZZQKWgzcC/2oPBaZ2uQJdWJr8RzJDBHIfk
QFzQHcAlJGnBc0D8QJTT2D92snbB0zDyQHA+8kCqG5nBmtjcQImuE0EUZ5rB8AiuQAsUB0HuzqrB
KmHDQHUJ2UCDg6nBg3qQQNjFBUHisZfBFJ+MQPtTgMCQfKHBdR9AQPxHo8DcB5/BjLUzQIXiVMCU
jZ3BPFQLQc4IZ7/JiDvBQQ3iQIampr/MMEXBx/0HQXPlCMBbHFDBHh+FQKSwVkDzSarBsrlHQC1i
E0DzIKLB6AmBQKUGrUDVE6HBAJdEQLzUwECb/ZXBlOuSQPdmpMA014/B8JS5QHxAZ0DwWZzB21yQ
QBjihkDQPIvBBsKJQI3nC8DWxpDBUOSQQJqXoD+F5pHBmtO/QD+YuEAFP5bByMqiQOKNzUBYu4zB
gkwtQDMSM0Dpt47B

> <OMEGA_E>
6CQhP8Ytej96eWg/sDBoP/6pZz+gemc/

> <OMEGA_NBR>
     26543

$$$$
50150469
  -OEChem-04172616093D

 84 88  0     1  0  0  0  0  0999 V2000
    6.3203   -1.6014  -21.5425 C   0  0  0  0  0  0  0  0  0  0  0  0
    0.2559   -4.2663  -16.0030 C   0  0  0  0  0  0  0  0  0  0  0  0
    7.0611   -0.4213  -21.3383 C   0  0  0  0  0  0  0  0  0  0  0  0
    4.9141   -1.5701  -21.4778 C   0  0  0  0  0  0  0  0  0  0  0  0
    0.6373   -3.1769  -16.8108 C   0  0  0  0  0  0  0  0  0  0  0  0
    1.1126   -5.3769  -15.8617 C   0  0  0  0  0  0  0  0  0  0  0  0
    6.3944    0.7902  -21.0735 C   0  0  0  0  0  0  0  0  0  0  0  0
    4.2460   -0.3688  -21.1807 C   0  0  0  0  0  0  0  0  0  0  0  0
    1.8739   -3.1991  -17.4805 C   0  0  0  0  0  0  0  0  0  0  0  0
    2.3520   -5.4009  -16.5294 C   0  0  0  0  0  0  0  0  0  0  0  0
    5.9900   -0.6029  -17.1611 C   0  0  0  0  0  0  0  0  0  0  0  0
    7.0428   -1.5498  -15.1844 C   0  0  0  0  0  0  0  0  0  0  0  0
    7.4153    0.7848  -15.7635 C   0  0  0  0  0  0  0  0  0  0  0  0
    6.2380   -1.7143  -16.3274 C   0  0  0  0  0  0  0  0  0  0  0  0
    6.5727    0.6448  -16.8695 C   0  0  0  0  0  0  0  0  0  0  0  0
    4.9808    0.8163  -20.9753 C   0  0  0  0  0  0  0  0  0  0  0  0
    2.7353   -4.3134  -17.3424 C   0  0  0  0  0  0  0  0  0  0  0  0
    7.6744   -0.3137  -14.9377 C   0  0  0  0  0  0  0  0  0  0  0  0
    5.6971   -3.0395  -16.6766 C   0  0  0  0  0  0  0  0  0  0  0  0
    6.3519    1.7793  -17.7517 C   0  0  0  0  0  0  0  0  0  0  0  0
    7.9533    0.2112  -11.5974 C   0  0  0  0  0  0  0  0  0  0  0  0
    9.0136   -0.7775  -11.0335 C   0  0  0  0  0  0  0  0  0  0  0  0
    6.0797    7.5152  -17.5757 C   0  0  0  0  0  0  0  0  0  0  0  0
    4.9876    8.1277  -16.6798 C   0  0  0  0  0  0  0  0  0  0  0  0
    8.4222    0.8850  -12.9045 C   0  0  0  0  0  0  0  0  0  0  0  0
    9.2651   -1.9820  -11.9750 C   0  0  0  0  0  0  0  0  0  0  0  0
    5.1976    6.6261  -16.6949 C   0  0  0  0  0  0  0  0  0  0  0  0
    3.8570   -4.3907  -19.5852 C   0  0  0  0  0  0  0  0  0  0  0  0
    4.2358    2.1053  -20.6641 C   0  0  0  0  0  0  0  0  0  0  0  0
    4.6987    4.5389  -17.7363 C   0  0  0  0  0  0  0  0  0  0  0  0
    4.0635   -4.3449  -18.0665 C   0  0  1  0  0  0  0  0  0  0  0  0
    4.8695    2.8381  -19.4731 C   0  0  1  0  0  0  0  0  0  0  0  0
    3.9760    3.9583  -18.9460 C   0  0  2  0  0  0  0  0  0  0  0  0
    8.6235   -0.1562  -13.9403 N   0  0  1  0  0  0  0  0  0  0  0  0
    4.8046   -3.1345  -17.7319 N   0  0  0  0  0  0  0  0  0  0  0  0
    5.1315    1.8773  -18.3978 N   0  0  0  0  0  0  0  0  0  0  0  0
    4.1680    5.8253  -17.3458 N   0  3  0  0  0  0  0  0  0  0  0  0
    6.0494   -4.0406  -16.0603 O   0  0  0  0  0  0  0  0  0  0  0  0
    7.2450    2.6031  -17.9273 O   0  0  0  0  0  0  0  0  0  0  0  0
    9.7012   -2.4663  -14.5444 O   0  0  0  0  0  0  0  0  0  0  0  0
   11.0673   -0.6591  -13.3989 O   0  0  0  0  0  0  0  0  0  0  0  0
    3.8282    4.9478  -19.9640 O   0  0  0  0  0  0  0  0  0  0  0  0
    9.7896   -1.3602  -13.5785 S   0  0  0  0  0  0  0  0  0  0  0  0
    6.8308   -2.5305  -21.7488 H   0  0  0  0  0  0  0  0  0  0  0  0
   -0.6949   -4.2506  -15.4910 H   0  0  0  0  0  0  0  0  0  0  0  0
    8.1398   -0.4455  -21.3847 H   0  0  0  0  0  0  0  0  0  0  0  0
    4.3468   -2.4715  -21.6568 H   0  0  0  0  0  0  0  0  0  0  0  0
   -0.0191   -2.3257  -16.9158 H   0  0  0  0  0  0  0  0  0  0  0  0
    0.8180   -6.2100  -15.2408 H   0  0  0  0  0  0  0  0  0  0  0  0
    6.9609    1.7007  -20.9451 H   0  0  0  0  0  0  0  0  0  0  0  0
    3.1684   -0.3543  -21.1098 H   0  0  0  0  0  0  0  0  0  0  0  0
    2.1664   -2.3648  -18.1008 H   0  0  0  0  0  0  0  0  0  0  0  0
    3.0088   -6.2512  -16.4193 H   0  0  0  0  0  0  0  0  0  0  0  0
    5.3513   -0.7100  -18.0253 H   0  0  0  0  0  0  0  0  0  0  0  0
    7.1766   -2.3711  -14.4959 H   0  0  0  0  0  0  0  0  0  0  0  0
    7.8667    1.7416  -15.5464 H   0  0  0  0  0  0  0  0  0  0  0  0
    7.0239   -0.3420  -11.7975 H   0  0  0  0  0  0  0  0  0  0  0  0
    7.7612    0.9912  -10.8459 H   0  0  0  0  0  0  0  0  0  0  0  0
    9.9608   -0.2361  -10.8934 H   0  0  0  0  0  0  0  0  0  0  0  0
    8.6608   -1.1566  -10.0630 H   0  0  0  0  0  0  0  0  0  0  0  0
    5.9564    7.5058  -18.6687 H   0  0  0  0  0  0  0  0  0  0  0  0
    7.1418    7.6581  -17.3278 H   0  0  0  0  0  0  0  0  0  0  0  0
    5.2692    8.7132  -15.7922 H   0  0  0  0  0  0  0  0  0  0  0  0
    4.0838    8.5609  -17.1331 H   0  0  0  0  0  0  0  0  0  0  0  0
    7.6590    1.6005  -13.2446 H   0  0  0  0  0  0  0  0  0  0  0  0
    9.3690    1.4157  -12.7265 H   0  0  0  0  0  0  0  0  0  0  0  0
   10.0513   -2.6246  -11.5519 H   0  0  0  0  0  0  0  0  0  0  0  0
    8.3381   -2.5631  -12.0884 H   0  0  0  0  0  0  0  0  0  0  0  0
    5.6845    6.1960  -15.8072 H   0  0  0  0  0  0  0  0  0  0  0  0
    4.8350   -4.4129  -20.0883 H   0  0  0  0  0  0  0  0  0  0  0  0
    3.2877   -5.2937  -19.8506 H   0  0  0  0  0  0  0  0  0  0  0  0
    3.2998   -3.4983  -19.9065 H   0  0  0  0  0  0  0  0  0  0  0  0
    4.2678    2.7605  -21.5470 H   0  0  0  0  0  0  0  0  0  0  0  0
    3.1896    1.8660  -20.4228 H   0  0  0  0  0  0  0  0  0  0  0  0
    4.5926    3.8415  -16.8923 H   0  0  0  0  0  0  0  0  0  0  0  0
    5.7642    4.6560  -17.9834 H   0  0  0  0  0  0  0  0  0  0  0  0
    4.6294   -5.2345  -17.7528 H   0  0  0  0  0  0  0  0  0  0  0  0
    5.8210    3.2791  -19.8049 H   0  0  0  0  0  0  0  0  0  0  0  0
    3.0019    3.5486  -18.6406 H   0  0  0  0  0  0  0  0  0  0  0  0
    4.6598   -2.3236  -18.2988 H   0  0  0  0  0  0  0  0  0  0  0  0
    4.3936    1.2633  -18.1175 H   0  0  0  0  0  0  0  0  0  0  0  0
    3.4073    5.6885  -16.7113 H   0  0  0  0  0  0  0  0  0  0  0  0
    3.8414    6.3071  -18.1589 H   0  0  0  0  0  0  0  0  0  0  0  0
    3.3766    4.5705  -20.7098 H   0  0  0  0  0  0  0  0  0  0  0  0
  1  3  1  0  0  0  0
  1  4  2  0  0  0  0
  2  5  1  0  0  0  0
  2  6  2  0  0  0  0
  3  7  2  0  0  0  0
  4  8  1  0  0  0  0
  5  9  2  0  0  0  0
  6 10  1  0  0  0  0
  7 16  1  0  0  0  0
  8 16  2  0  0  0  0
  9 17  1  0  0  0  0
 10 17  2  0  0  0  0
 11 14  1  0  0  0  0
 11 15  2  0  0  0  0
 12 14  2  0  0  0  0
 12 18  1  0  0  0  0
 13 15  1  0  0  0  0
 13 18  2  0  0  0  0
 14 19  1  0  0  0  0
 15 20  1  0  0  0  0
 16 29  1  0  0  0  0
 17 31  1  0  0  0  0
 18 34  1  0  0  0  0
 19 35  1  0  0  0  0
 19 38  2  0  0  0  0
 20 36  1  0  0  0  0
 20 39  2  0  0  0  0
 21 22  1  0  0  0  0
 21 25  1  0  0  0  0
 22 26  1  0  0  0  0
 23 24  1  0  0  0  0
 23 27  1  0  0  0  0
 24 27  1  0  0  0  0
 25 34  1  0  0  0  0
 26 43  1  0  0  0  0
 27 37  1  0  0  0  0
 28 31  1  0  0  0  0
 29 32  1  0  0  0  0
 30 33  1  0  0  0  0
 30 37  1  0  0  0  0
 31 35  1  0  0  0  0
 32 33  1  0  0  0  0
 32 36  1  0  0  0  0
 33 42  1  0  0  0  0
 34 43  1  0  0  0  0
 40 43  2  0  0  0  0
 41 43  2  0  0  0  0
  1 44  1  0  0  0  0
  2 45  1  0  0  0  0
  3 46  1  0  0  0  0
  4 47  1  0  0  0  0
  5 48  1  0  0  0  0
  6 49  1  0  0  0  0
  7 50  1  0  0  0  0
  8 51  1  0  0  0  0
  9 52  1  0  0  0  0
 10 53  1  0  0  0  0
 11 54  1  0  0  0  0
 12 55  1  0  0  0  0
 13 56  1  0  0  0  0
 21 57  1  0  0  0  0
 21 58  1  0  0  0  0
 22 59  1  0  0  0  0
 22 60  1  0  0  0  0
 23 61  1  0  0  0  0
 23 62  1  0  0  0  0
 24 63  1  0  0  0  0
 24 64  1  0  0  0  0
 25 65  1  0  0  0  0
 25 66  1  0  0  0  0
 26 67  1  0  0  0  0
 26 68  1  0  0  0  0
 27 69  1  0  0  0  0
 28 70  1  0  0  0  0
 28 71  1  0  0  0  0
 28 72  1  0  0  0  0
 29 73  1  0  0  0  0
 29 74  1  0  0  0  0
 30 75  1  0  0  0  0
 30 76  1  0  0  0  0
 31 77  1  0  0  0  0
 32 78  1  0  0  0  0
 33 79  1  0  0  0  0
 35 80  1  0  0  0  0
 36 81  1  0  0  0  0
 37 82  1  0  0  0  0
 37 83  1  0  0  0  0
 42 84  1  0  0  0  0
M  CHG  1  37   1
M  END
> <OMEGA_C>
/D/KQDj6zL8EV6zBsgODPo+FiMA6BoDBrfThQEmx177GtKrBokCdQJn4yL900qvBqCYjP3BSS8Ce
fIbBNWqOP2IPrMCpyX3B5J7MQPRHSj+BlqjBAd+HQGrNvL4CcqnB5tvvP1q9TMAc2IvBSYcWQGbU
rMA7PITBdK6/QIJXGr/fSYnBxV7hQA9gxr9083LBVkrtQIDmSD9RN3zBFp7HQCFv2791noLBn1PS
QAATJT+z9IbBVGKfQDr3UD9SzafBYA4vQFwHisBMvYrBjJT1QIyaoL7DAG/Bo062QAeHQsCtaYXB
m0LLQHjB4z9nA47BrIH+QAZRWD7NjjnBojcQQW4JR79oiTDB5ozCQG188ED+mozBWJqfQBsLAkEy
cIXBJcEGQQaOYj+9eE7B/D0UQQ+x/b9mmT/Bj1KmQPMI1EAPj4XBxdh2QKqAjMCNrpzBfYuHQF29
BkD7T6XBGlyWQPY+kUDt443BcwiCQBwJi8AyiJDBqdKbQBikNUD4yJvBX3Z+QJpUfUBukZfB0/kJ
QafuH76XC1/BZL+ZQACcSMD+2o3BIDWkQGJL8D+pLpPBemCFQKNoukA3xIrBmJTBQKFMgcB8e4DB
/tbnQN2ZJkAFa4/BBzgbQQDYHcDntWjBjxMxQW67KL/VYVbBxAF1QCxUnkBTtp/BT6IcQR4crr+O
QVnB8ZXaQKXzIcB7/a3BaeIxv7EEiMD12nfBzzwCQQQZ5L7rE6vBYhmLQMcsHsAuQa3BE6icvNnY
FMB2U4fBoGpRPyS4xsBM2nPBcL/eQGSv2T+Ej6fB+8ZKQP9itb7x4KjB56YKQCZYF8B3zpDB849A
QJkJyMC0WoPB/j2rQAzFNb/hM5DBFKflQJK/F8Bk72fBr7v7QHbt3j8lvnjB5MPgQNcgr76FwjzB
dVv4QLm+fT+kiC3BcF8fQae7cb5WSy7B0ZIKQecJlL81AiHBhJq+QHUv8ECBWZXBz4nkQD8P9UA8
n4rBsZ2oQENpC0GxrHzBZq6CQF75CEGdEInB4Bb1QNvdzD+/6VPBm+cVQTo3tT+ln0vBB9IgQav5
J8CI1DjBxWgFQZ0JJMAKakHBkue1QJpFxkBX6nzB7LeaQMg2jcDWtKDBGWlSQDdmqcARzp7BKi9T
QN7kX8BtQJ/BAJKIQLmsMEBPYKzBCCJMQI7Y7j/0YaPBRfaSQFnadUCHI4fBe3S4QFT+lEDw3Y/B
1SOUQOyAp8DNBY7B70W6QDrdUUBYcJ7B4x5AQCAcY0DgH5XBLh2VQCW1FMD9Y5LBbZiMQDe0oT+o
8JDB2hBaQH0ItkDNsIXB4dl1QLnTyUCARZHBqhpYQHBBkkC1raXBzFvNQPNPpL/0y6vBHlu4PgcL
nsCkq3rB7i/lQFD5wr1dwarBv2egQKEOn79BBqvB+b0APxCEb8DDLoPBWkywP0E6vcBPQHvBuxvQ
QNnwkD9/8ajBQ0uLQGDpp7z//ajB8prUPxxkYcDaWonBe1siQL43tsCPxoPBWuK+QEbSCr+Es4nB
xIfdQO+Iwb92FHPBSvTqQC5wUT/c03vBQyLFQAmZ1L9I84LBTx7SQACVMT+kHofBmPaiQODTlj/0
4afBV6ArQIsLkMCgtInBokzxQMhGjr7Jcm7BMn2zQCq1PsBR14XB4JnNQG5Z7T+ZA47B8lbtQE7d
Qj6WejnB2LYGQW61SL/omC7B6UXRQIpxA0HmnaLBw+2sQN5h+kBhTKrBPsQAQQQAaT+A1UzBZFYN
QT9X+r8LZj3B+COnQJgh9UB1Lp7B+fVkQGuwhsBuaZzB6g+MQILSH0Ai76TBp22BQGdesECRI5vB
Dzl7QORRicACeZDBlPKfQERlSEA7r5rBePWEQGekhkBoxZTBQlgGQTDUy721Rl3BbtSSQLQOQ8Au
VY3BdRqnQHJZA0BDE5PBJ6KoQJzvyUBhXZnBJ/3BQOwEgMBOw4HBSunqQGaeKkCly47BvywZQVqh
F8DEnmXBe0AsQR6AEb9DM1DB1k42QM48bkAZhpLBbYIYQXPCpL8KsVXB6n3dQPtEDsCdLq3Bi44H
v4B8o8D3QXHB2dMDQfd7/L0yWKvBawaOQOqMCcCH/avBahmNvh6mP8C87oLBj0OiP+uG2sClQXLB
oYLiQILKAkBDXKjBPbdRQOOWXrmMR6jBS5DiP2WmJsD70o3BCkxUQLAZzsDN9IPBb3SrQD4zIr8j
z5DBXhXhQIv+FcAxM2jBwln5QOVu4j8n6nfBvFbRQENLw75Z9j7BOyDjQMp9cT+qtS3BYicVQTiD
Yr5CGyrBHmX+QHBhmb8WISDBxZLuQAtv80ABQaLBFnXZQPllFEFicKHB5RebQE2rCUFxna7BlTWw
QLX53UAPbq/Bu4fqQKWr0D/AhVPBYk0PQXaWuD85u0fBGloZQT0LJcCaRTXBDmv+QJpIJMABNkHB
NPuRQI5QBkGzUJrBG+uPQA3TgcCsFKHBSP5FQKWkpMD1757BgxE5QCtuV8Dbxp3BVzaPQPgnTUDa
nqvBxfdTQDiPEkBle6PBxjh8QDcQqUAQtaPBzaNKQDaKwkAXapjBonqTQPNypMDqOY/BMNO+QDU8
ZUBd45zBS1aVQGftjUCZMo3B8TmJQA6hDMAOypDBOPKOQKzRtj9RdpHB4mbBQFMdukBwh5zBZwGt
QIAfzUDdepHBCkA6QAZzOkCiko7B

> <OMEGA_E>
VIU+P044aD8=

> <OMEGA_NBR>
     31057

$$$$
50163076
  -OEChem-04172616093D

 80 83  0     1  0  0  0  0  0999 V2000
    6.3858   -1.3803  -21.7204 C   0  0  0  0  0  0  0  0  0  0  0  0
    7.1156   -0.1972  -21.4885 C   0  0  0  0  0  0  0  0  0  0  0  0
    4.9825   -1.3759  -21.6063 C   0  0  0  0  0  0  0  0  0  0  0  0
    6.4420    0.9910  -21.1429 C   0  0  0  0  0  0  0  0  0  0  0  0
    4.3092   -0.1978  -21.2379 C   0  0  0  0  0  0  0  0  0  0  0  0
    1.7203   -3.3507  -17.0983 C   0  0  0  0  0  0  0  0  0  0  0  0
    2.5869   -5.5610  -16.5180 C   0  0  0  0  0  0  0  0  0  0  0  0
    0.6037   -3.5726  -16.2686 C   0  0  0  0  0  0  0  0  0  0  0  0
    1.4703   -5.7807  -15.6895 C   0  0  0  0  0  0  0  0  0  0  0  0
    6.1536   -0.4987  -17.3003 C   0  0  0  0  0  0  0  0  0  0  0  0
    7.0147   -1.5258  -15.2709 C   0  0  0  0  0  0  0  0  0  0  0  0
    7.3906    0.8519  -15.6872 C   0  0  0  0  0  0  0  0  0  0  0  0
    6.3281   -1.6425  -16.4935 C   0  0  0  0  0  0  0  0  0  0  0  0
    6.6909    0.7457  -16.9066 C   0  0  0  0  0  0  0  0  0  0  0  0
    5.0346    0.9884  -20.9992 C   0  0  0  0  0  0  0  0  0  0  0  0
    2.7162   -4.3475  -17.2282 C   0  0  0  0  0  0  0  0  0  0  0  0
    7.5087   -0.2766  -14.8532 C   0  0  0  0  0  0  0  0  0  0  0  0
    0.4782   -4.7878  -15.5652 C   0  0  0  0  0  0  0  0  0  0  0  0
    5.7358   -2.9316  -16.8918 C   0  0  0  0  0  0  0  0  0  0  0  0
    6.4400    1.9296  -17.7386 C   0  0  0  0  0  0  0  0  0  0  0  0
    6.9403    7.6521  -17.8201 C   0  0  0  0  0  0  0  0  0  0  0  0
    5.5337    7.8370  -17.2203 C   0  0  0  0  0  0  0  0  0  0  0  0
    6.1748    6.4553  -17.2605 C   0  0  0  0  0  0  0  0  0  0  0  0
    3.4716   -3.9982  -19.6032 C   0  0  0  0  0  0  0  0  0  0  0  0
    7.0630   -0.3121  -12.4427 C   0  0  0  0  0  0  0  0  0  0  0  0
    9.5597   -2.2902  -12.5663 C   0  0  0  0  0  0  0  0  0  0  0  0
    4.2776    2.2544  -20.6438 C   0  0  0  0  0  0  0  0  0  0  0  0
    4.4087    4.8452  -17.7421 C   0  0  0  0  0  0  0  0  0  0  0  0
    3.9123   -4.1394  -18.1408 C   0  0  1  0  0  0  0  0  0  0  0  0
    4.8698    2.9960  -19.4243 C   0  0  1  0  0  0  0  0  0  0  0  0
    3.8336    4.0203  -18.8941 C   0  0  2  0  0  0  0  0  0  0  0  0
    4.6452   -2.9318  -17.7522 N   0  0  0  0  0  0  0  0  0  0  0  0
    5.2006    2.0300  -18.3663 N   0  0  0  0  0  0  0  0  0  0  0  0
    8.0149   -0.1404  -13.5690 N   0  0  1  0  0  0  0  0  0  0  0  0
    5.6263    5.5132  -18.2201 N   0  3  0  0  0  0  0  0  0  0  0  0
    6.1714   -3.9810  -16.4284 O   0  0  0  0  0  0  0  0  0  0  0  0
    7.3066    2.7873  -17.8742 O   0  0  0  0  0  0  0  0  0  0  0  0
   10.1529    0.2941  -12.2523 O   0  0  0  0  0  0  0  0  0  0  0  0
   10.3102   -0.7248  -14.5798 O   0  0  0  0  0  0  0  0  0  0  0  0
    3.4647    4.9089  -19.9489 O   0  0  0  0  0  0  0  0  0  0  0  0
   -0.5957   -5.0026  -14.7724 F   0  0  0  0  0  0  0  0  0  0  0  0
    9.6303   -0.6160  -13.2802 S   0  0  0  0  0  0  0  0  0  0  0  0
    6.9031   -2.2905  -21.9858 H   0  0  0  0  0  0  0  0  0  0  0  0
    8.1921   -0.2014  -21.5758 H   0  0  0  0  0  0  0  0  0  0  0  0
    4.4226   -2.2785  -21.8018 H   0  0  0  0  0  0  0  0  0  0  0  0
    6.9995    1.9029  -20.9879 H   0  0  0  0  0  0  0  0  0  0  0  0
    3.2339   -0.2010  -21.1375 H   0  0  0  0  0  0  0  0  0  0  0  0
    1.8164   -2.4188  -17.6357 H   0  0  0  0  0  0  0  0  0  0  0  0
    3.3469   -6.3227  -16.6107 H   0  0  0  0  0  0  0  0  0  0  0  0
   -0.1565   -2.8116  -16.1715 H   0  0  0  0  0  0  0  0  0  0  0  0
    1.3739   -6.7107  -15.1489 H   0  0  0  0  0  0  0  0  0  0  0  0
    5.6044   -0.5758  -18.2270 H   0  0  0  0  0  0  0  0  0  0  0  0
    7.1629   -2.3979  -14.6513 H   0  0  0  0  0  0  0  0  0  0  0  0
    7.8331    1.7926  -15.3946 H   0  0  0  0  0  0  0  0  0  0  0  0
    7.0941    7.7497  -18.9049 H   0  0  0  0  0  0  0  0  0  0  0  0
    7.8216    8.0402  -17.2884 H   0  0  0  0  0  0  0  0  0  0  0  0
    5.4089    8.3583  -16.2597 H   0  0  0  0  0  0  0  0  0  0  0  0
    4.6814    8.0678  -17.8762 H   0  0  0  0  0  0  0  0  0  0  0  0
    6.5320    6.0561  -16.2997 H   0  0  0  0  0  0  0  0  0  0  0  0
    4.3558   -3.8489  -20.2403 H   0  0  0  0  0  0  0  0  0  0  0  0
    2.9437   -4.9109  -19.9167 H   0  0  0  0  0  0  0  0  0  0  0  0
    2.7988   -3.1335  -19.7014 H   0  0  0  0  0  0  0  0  0  0  0  0
    7.5947   -0.1784  -11.4890 H   0  0  0  0  0  0  0  0  0  0  0  0
    6.2609    0.4364  -12.5233 H   0  0  0  0  0  0  0  0  0  0  0  0
    6.6278   -1.3216  -12.4813 H   0  0  0  0  0  0  0  0  0  0  0  0
   10.5804   -2.6450  -12.3606 H   0  0  0  0  0  0  0  0  0  0  0  0
    8.9845   -2.2651  -11.6290 H   0  0  0  0  0  0  0  0  0  0  0  0
    9.0713   -2.9719  -13.2782 H   0  0  0  0  0  0  0  0  0  0  0  0
    4.3023    2.9314  -21.5105 H   0  0  0  0  0  0  0  0  0  0  0  0
    3.2350    1.9864  -20.4175 H   0  0  0  0  0  0  0  0  0  0  0  0
    3.6736    5.5972  -17.4192 H   0  0  0  0  0  0  0  0  0  0  0  0
    4.6533    4.1850  -16.8969 H   0  0  0  0  0  0  0  0  0  0  0  0
    4.5757   -5.0129  -18.0583 H   0  0  0  0  0  0  0  0  0  0  0  0
    5.7759    3.5350  -19.7383 H   0  0  0  0  0  0  0  0  0  0  0  0
    2.9515    3.4715  -18.5326 H   0  0  0  0  0  0  0  0  0  0  0  0
    4.3425   -2.0561  -18.1285 H   0  0  0  0  0  0  0  0  0  0  0  0
    4.4822    1.3979  -18.0758 H   0  0  0  0  0  0  0  0  0  0  0  0
    5.4085    6.0071  -19.0619 H   0  0  0  0  0  0  0  0  0  0  0  0
    6.3171    4.8160  -18.4119 H   0  0  0  0  0  0  0  0  0  0  0  0
    3.1052    4.4097  -20.6729 H   0  0  0  0  0  0  0  0  0  0  0  0
  1  2  1  0  0  0  0
  1  3  2  0  0  0  0
  2  4  2  0  0  0  0
  3  5  1  0  0  0  0
  4 15  1  0  0  0  0
  5 15  2  0  0  0  0
  6  8  2  0  0  0  0
  6 16  1  0  0  0  0
  7  9  1  0  0  0  0
  7 16  2  0  0  0  0
  8 18  1  0  0  0  0
  9 18  2  0  0  0  0
 10 13  1  0  0  0  0
 10 14  2  0  0  0  0
 11 13  2  0  0  0  0
 11 17  1  0  0  0  0
 12 14  1  0  0  0  0
 12 17  2  0  0  0  0
 13 19  1  0  0  0  0
 14 20  1  0  0  0  0
 15 27  1  0  0  0  0
 16 29  1  0  0  0  0
 17 34  1  0  0  0  0
 18 41  1  0  0  0  0
 19 32  1  0  0  0  0
 19 36  2  0  0  0  0
 20 33  1  0  0  0  0
 20 37  2  0  0  0  0
 21 22  1  0  0  0  0
 21 23  1  0  0  0  0
 22 23  1  0  0  0  0
 23 35  1  0  0  0  0
 24 29  1  0  0  0  0
 25 34  1  0  0  0  0
 26 42  1  0  0  0  0
 27 30  1  0  0  0  0
 28 31  1  0  0  0  0
 28 35  1  0  0  0  0
 29 32  1  0  0  0  0
 30 31  1  0  0  0  0
 30 33  1  0  0  0  0
 31 40  1  0  0  0  0
 34 42  1  0  0  0  0
 38 42  2  0  0  0  0
 39 42  2  0  0  0  0
  1 43  1  0  0  0  0
  2 44  1  0  0  0  0
  3 45  1  0  0  0  0
  4 46  1  0  0  0  0
  5 47  1  0  0  0  0
  6 48  1  0  0  0  0
  7 49  1  0  0  0  0
  8 50  1  0  0  0  0
  9 51  1  0  0  0  0
 10 52  1  0  0  0  0
 11 53  1  0  0  0  0
 12 54  1  0  0  0  0
 21 55  1  0  0  0  0
 21 56  1  0  0  0  0
 22 57  1  0  0  0  0
 22 58  1  0  0  0  0
 23 59  1  0  0  0  0
 24 60  1  0  0  0  0
 24 61  1  0  0  0  0
 24 62  1  0  0  0  0
 25 63  1  0  0  0  0
 25 64  1  0  0  0  0
 25 65  1  0  0  0  0
 26 66  1  0  0  0  0
 26 67  1  0  0  0  0
 26 68  1  0  0  0  0
 27 69  1  0  0  0  0
 27 70  1  0  0  0  0
 28 71  1  0  0  0  0
 28 72  1  0  0  0  0
 29 73  1  0  0  0  0
 30 74  1  0  0  0  0
 31 75  1  0  0  0  0
 32 76  1  0  0  0  0
 33 77  1  0  0  0  0
 35 78  1  0  0  0  0
 35 79  1  0  0  0  0
 40 80  1  0  0  0  0
M  CHG  1  35   1
M  END
> <OMEGA_C>
4VjMQPissL9sw63BWrPjQPHtSb596KvBzHCfQH4csL+a2azBBiXOQPC0fT+xJKnBFuWJQDuNSr49
56nBJDTcP2JxVsBXyYjBVZAlQF3zscDuJITBwokaP52lZMAhJoLBWDG8P3z7uMAoCHvBkerEQFpZ
/74SZ4rBTXjgQLVOw7+EVXTBuX/sQCsXWj++/nrB6n/KQKI80r+c8oPB3hvWQIjmPj/MQIfBpxuh
QOEIfT9c/qfBvNYtQNAei8Bg04nBF0fwQMaijb7ipm3Bxtn0PlA1mcAEC3nByYu3QNKfO8BjIofB
gBTOQMb79j+o6I3B4BbeQLbd9ECOj47B+xOxQF7I+kAVw4nBx5fFQK6RzkCDFYrBpy5eQGPif8BK
05zBVwTiQBDKn75KFUfBsfQYQdCSEsCsD0nBLeKIQCNIEECKJqXB2xONQEgMm0DN743BYWJ6QEd2
hMBlIJHBzNWbQPq+P0DmZJvB61l1QF+mgEAUJ5fBLKWUQOWiO8B9BI7B8mqmQMDqAUAv7pLB3zwA
QQG4D77GGlnBogq0QPprsEDVwpHBVHzFQBXJfsBXbYPBms/pQLFjMkBF/o7BN3IiQW+alj52CUTB
wvYkQQSOOb+8RmnBrr1dQJwVnUBzl5/By4IYv6oVoMCeW2zBkhUaQWuxHb+ce1TBLebcQBSXEsDW
4q/B3BIDQSIzTr41m6zBEoaNQCXSEcAraq7B/vvfQKmT8z8p56fBPvhOQO3PTb6AGanBiIDoPxDO
GsACFo3BbDNWQLVTysC+4oTB/zwgvjvxM8AkX4HB59qvP/W91sDuYXLBKVezQKxpE7/30JHBOTbl
QGZ3GcCMa2rBt6j6QIV15T9GUHbBvgLjQGL990BAPZfBnEr6QHykAEG0TorBlBWtQIW7BUHjE4LB
ts2VQLoVAUFvAo/BTgbRQMfLwUDiZYLBeGKLQKZUdsAq7KHBO2Y8QC8mncBuVZ/BEiAzQMiKSMBn
nJ3BpgfzQJ2pNr4Z0zfBqlnIQBxq3z5IX0jBzRbUQH0pqb9os0fBeUkpQeVGKcDsxEXBlMAPQYb3
EMCWEDrBAyQRQb8zPsBYc1TBjKyJQBicO0BqFazB4wpPQFRC/j8IV6PBvBxrQDkcs0BvWovB0eeU
QMTrhUDyLIfBhmySQM1poMBUd5DB+9O4QHQ9YkAQ6J3Bc+U8QMssXkC/QpTBlPWKQMuXA8ARB5HB
zG2PQKTusj8lm5DBrhKtQCY6wEDVfpjBpiXKQOgcmkCWS5PBFbtGQI4cjUASYqXB

> <OMEGA_E>
pDM/Pw==

> <OMEGA_NBR>
     34609

$$$$
50163079
  -OEChem-04172616093D

 79 81  0     1  0  0  0  0  0999 V2000
    6.2850   -1.5399  -21.5781 C   0  0  0  0  0  0  0  0  0  0  0  0
    7.0640   -0.4054  -21.2759 C   0  0  0  0  0  0  0  0  0  0  0  0
    4.8797   -1.4481  -21.5808 C   0  0  0  0  0  0  0  0  0  0  0  0
    6.4377    0.8191  -20.9691 C   0  0  0  0  0  0  0  0  0  0  0  0
    4.2514   -0.2320  -21.2560 C   0  0  0  0  0  0  0  0  0  0  0  0
    1.6851   -3.4089  -17.2413 C   0  0  0  0  0  0  0  0  0  0  0  0
    2.5630   -5.5598  -16.4807 C   0  0  0  0  0  0  0  0  0  0  0  0
    0.5358   -3.5995  -16.4502 C   0  0  0  0  0  0  0  0  0  0  0  0
    1.4156   -5.7464  -15.6878 C   0  0  0  0  0  0  0  0  0  0  0  0
    6.0317   -0.5436  -17.1870 C   0  0  0  0  0  0  0  0  0  0  0  0
    7.0413   -1.6039  -15.2425 C   0  0  0  0  0  0  0  0  0  0  0  0
    7.4464    0.7543  -15.6841 C   0  0  0  0  0  0  0  0  0  0  0  0
    6.2602   -1.6968  -16.4119 C   0  0  0  0  0  0  0  0  0  0  0  0
    6.6229    0.6811  -16.8258 C   0  0  0  0  0  0  0  0  0  0  0  0
    5.0244    0.9033  -20.9325 C   0  0  0  0  0  0  0  0  0  0  0  0
    2.6982   -4.3967  -17.2684 C   0  0  0  0  0  0  0  0  0  0  0  0
    7.6586   -0.3859  -14.8711 C   0  0  0  0  0  0  0  0  0  0  0  0
    0.3995   -4.7704  -15.6770 C   0  0  0  0  0  0  0  0  0  0  0  0
    5.6903   -2.9926  -16.8263 C   0  0  0  0  0  0  0  0  0  0  0  0
    6.4014    1.8649  -17.6662 C   0  0  0  0  0  0  0  0  0  0  0  0
    6.0124    7.5892  -18.4802 C   0  0  0  0  0  0  0  0  0  0  0  0
    3.5583   -4.1148  -19.6197 C   0  0  0  0  0  0  0  0  0  0  0  0
    8.6313    1.0350  -13.0361 C   0  0  0  0  0  0  0  0  0  0  0  0
    8.0710   -2.3973  -11.8135 C   0  0  0  0  0  0  0  0  0  0  0  0
    4.3147    2.2110  -20.6107 C   0  0  0  0  0  0  0  0  0  0  0  0
    5.1390    7.2126  -17.2678 C   0  0  0  0  0  0  0  0  0  0  0  0
    4.6835    4.8557  -17.7913 C   0  0  0  0  0  0  0  0  0  0  0  0
    3.9304   -4.2219  -18.1353 C   0  0  1  0  0  0  0  0  0  0  0  0
    4.9288    2.9582  -19.4019 C   0  0  1  0  0  0  0  0  0  0  0  0
    3.9873    4.0769  -18.9185 C   0  0  2  0  0  0  0  0  0  0  0  0
    4.6410   -3.0078  -17.7350 N   0  0  0  0  0  0  0  0  0  0  0  0
    5.1758    2.0060  -18.3093 N   0  0  0  0  0  0  0  0  0  0  0  0
    8.4454   -0.2900  -13.6989 N   0  0  3  0  0  0  0  0  0  0  0  0
    4.1213    6.2098  -17.6412 N   0  3  0  0  0  0  0  0  0  0  0  0
    6.1472   -4.0402  -16.3788 O   0  0  0  0  0  0  0  0  0  0  0  0
    7.3067    2.6762  -17.8317 O   0  0  0  0  0  0  0  0  0  0  0  0
   10.3669   -1.1647  -12.1742 O   0  0  0  0  0  0  0  0  0  0  0  0
    9.5103   -2.6806  -14.0132 O   0  0  0  0  0  0  0  0  0  0  0  0
    3.7094    4.9415  -20.0220 O   0  0  0  0  0  0  0  0  0  0  0  0
   -0.7048   -4.9565  -14.9199 F   0  0  0  0  0  0  0  0  0  0  0  0
    9.2452   -1.6711  -12.9769 S   0  0  0  0  0  0  0  0  0  0  0  0
    6.7654   -2.4795  -21.8076 H   0  0  0  0  0  0  0  0  0  0  0  0
    8.1418   -0.4742  -21.2794 H   0  0  0  0  0  0  0  0  0  0  0  0
    4.2835   -2.3126  -21.8327 H   0  0  0  0  0  0  0  0  0  0  0  0
    7.0359    1.6940  -20.7616 H   0  0  0  0  0  0  0  0  0  0  0  0
    3.1733   -0.1672  -21.2543 H   0  0  0  0  0  0  0  0  0  0  0  0
    1.7934   -2.5083  -17.8276 H   0  0  0  0  0  0  0  0  0  0  0  0
    3.3417   -6.3081  -16.4864 H   0  0  0  0  0  0  0  0  0  0  0  0
   -0.2408   -2.8491  -16.4358 H   0  0  0  0  0  0  0  0  0  0  0  0
    1.3138   -6.6382  -15.0872 H   0  0  0  0  0  0  0  0  0  0  0  0
    5.4006   -0.5993  -18.0616 H   0  0  0  0  0  0  0  0  0  0  0  0
    7.1707   -2.4765  -14.6195 H   0  0  0  0  0  0  0  0  0  0  0  0
    7.9207    1.6898  -15.4266 H   0  0  0  0  0  0  0  0  0  0  0  0
    6.7606    8.3359  -18.1759 H   0  0  0  0  0  0  0  0  0  0  0  0
    6.5232    6.6909  -18.8571 H   0  0  0  0  0  0  0  0  0  0  0  0
    5.3767    8.0095  -19.2735 H   0  0  0  0  0  0  0  0  0  0  0  0
    4.4721   -3.9892  -20.2191 H   0  0  0  0  0  0  0  0  0  0  0  0
    3.0369   -5.0310  -19.9339 H   0  0  0  0  0  0  0  0  0  0  0  0
    2.8988   -3.2475  -19.7706 H   0  0  0  0  0  0  0  0  0  0  0  0
    9.2675    0.9147  -12.1468 H   0  0  0  0  0  0  0  0  0  0  0  0
    9.1114    1.7321  -13.7386 H   0  0  0  0  0  0  0  0  0  0  0  0
    7.6518    1.4347  -12.7346 H   0  0  0  0  0  0  0  0  0  0  0  0
    8.5274   -3.2737  -11.3302 H   0  0  0  0  0  0  0  0  0  0  0  0
    7.8058   -1.6532  -11.0480 H   0  0  0  0  0  0  0  0  0  0  0  0
    7.1642   -2.7072  -12.3535 H   0  0  0  0  0  0  0  0  0  0  0  0
    4.3726    2.8660  -21.4925 H   0  0  0  0  0  0  0  0  0  0  0  0
    3.2607    1.9904  -20.3864 H   0  0  0  0  0  0  0  0  0  0  0  0
    5.7809    6.7969  -16.4771 H   0  0  0  0  0  0  0  0  0  0  0  0
    4.6343    8.1155  -16.8935 H   0  0  0  0  0  0  0  0  0  0  0  0
    4.5538    4.3084  -16.8460 H   0  0  0  0  0  0  0  0  0  0  0  0
    5.7556    4.9379  -18.0233 H   0  0  0  0  0  0  0  0  0  0  0  0
    4.5866   -5.0943  -17.9998 H   0  0  0  0  0  0  0  0  0  0  0  0
    5.8801    3.4113  -19.7175 H   0  0  0  0  0  0  0  0  0  0  0  0
    3.0607    3.6283  -18.5311 H   0  0  0  0  0  0  0  0  0  0  0  0
    4.3545   -2.1390  -18.1389 H   0  0  0  0  0  0  0  0  0  0  0  0
    4.4182    1.4255  -18.0107 H   0  0  0  0  0  0  0  0  0  0  0  0
    3.4187    6.1872  -16.9300 H   0  0  0  0  0  0  0  0  0  0  0  0
    3.7076    6.4823  -18.5099 H   0  0  0  0  0  0  0  0  0  0  0  0
    3.2797    4.4482  -20.7109 H   0  0  0  0  0  0  0  0  0  0  0  0
  1  2  1  0  0  0  0
  1  3  2  0  0  0  0
  2  4  2  0  0  0  0
  3  5  1  0  0  0  0
  4 15  1  0  0  0  0
  5 15  2  0  0  0  0
  6  8  2  0  0  0  0
  6 16  1  0  0  0  0
  7  9  1  0  0  0  0
  7 16  2  0  0  0  0
  8 18  1  0  0  0  0
  9 18  2  0  0  0  0
 10 13  2  0  0  0  0
 10 14  1  0  0  0  0
 11 13  1  0  0  0  0
 11 17  2  0  0  0  0
 12 14  2  0  0  0  0
 12 17  1  0  0  0  0
 13 19  1  0  0  0  0
 14 20  1  0  0  0  0
 15 25  1  0  0  0  0
 16 28  1  0  0  0  0
 17 33  1  0  0  0  0
 18 40  1  0  0  0  0
 19 31  1  0  0  0  0
 19 35  2  0  0  0  0
 20 32  1  0  0  0  0
 20 36  2  0  0  0  0
 21 26  1  0  0  0  0
 22 28  1  0  0  0  0
 23 33  1  0  0  0  0
 24 41  1  0  0  0  0
 25 29  1  0  0  0  0
 26 34  1  0  0  0  0
 27 30  1  0  0  0  0
 27 34  1  0  0  0  0
 28 31  1  0  0  0  0
 29 30  1  0  0  0  0
 29 32  1  0  0  0  0
 30 39  1  0  0  0  0
 33 41  1  0  0  0  0
 37 41  2  0  0  0  0
 38 41  2  0  0  0  0
  1 42  1  0  0  0  0
  2 43  1  0  0  0  0
  3 44  1  0  0  0  0
  4 45  1  0  0  0  0
  5 46  1  0  0  0  0
  6 47  1  0  0  0  0
  7 48  1  0  0  0  0
  8 49  1  0  0  0  0
  9 50  1  0  0  0  0
 10 51  1  0  0  0  0
 11 52  1  0  0  0  0
 12 53  1  0  0  0  0
 21 54  1  0  0  0  0
 21 55  1  0  0  0  0
 21 56  1  0  0  0  0
 22 57  1  0  0  0  0
 22 58  1  0  0  0  0
 22 59  1  0  0  0  0
 23 60  1  0  0  0  0
 23 61  1  0  0  0  0
 23 62  1  0  0  0  0
 24 63  1  0  0  0  0
 24 64  1  0  0  0  0
 24 65  1  0  0  0  0
 25 66  1  0  0  0  0
 25 67  1  0  0  0  0
 26 68  1  0  0  0  0
 26 69  1  0  0  0  0
 27 70  1  0  0  0  0
 27 71  1  0  0  0  0
 28 72  1  0  0  0  0
 29 73  1  0  0  0  0
 30 74  1  0  0  0  0
 31 75  1  0  0  0  0
 32 76  1  0  0  0  0
 34 77  1  0  0  0  0
 34 78  1  0  0  0  0
 39 79  1  0  0  0  0
M  CHG  1  34   1
M  END
> <OMEGA_C>
vx7JQEAbxb/qn6zBoAziQACLz77zNKrB4yacQJRbub+FpazBuwHOQBCuUT+ewKfBXwuIQOGXbb5P
DKrBOLHXP6AqWsAt7onBfQgkQIXpscBz2IPBDigJP7JeZsD2mYPBujO1P9Hit8AmAXvBuQPBQEwp
C7/nfonB8VHhQPZKzb8f4XPBTUnuQPocQT9G8nrBYlPIQPQw2b+cS4PBk+7TQNNeLj9Cm4bB8ceg
QIdBZz+vdafBva8sQGmxjMDGJYrBWhP1QAyZxb78723Bb4fMPjOnmMAF1XrBThe2QJOHP8A5nIbB
NdjMQH+07j9gVI3BXGXAQMDa8kBv15PBs7tjQKOsg8Aq9ZzBzhkKQb16hD+qk1DB/yIBQelsGcBM
BD3B/hGKQE2ADUC94qTB3HKkQPTN5kCGJIrBWN+VQChim0CRVI7Bjot7QNUZh8AEFZHBWLidQKxS
PUAYN5vBDTB/QNp1gkAWWZfB4oKUQCCAQMA54Y3B1J+lQABiAEBteZLBNiAHQUR+lL6gLlvBh+GD
QLe2xkAuIY3BkLXEQD5JgcDAB4PBsNDpQIlGK0BPp47B/N4lQWIVlb+JyULBVSoYQViPK8D9NWDB
LmdtQGIgnkAPLaDBEW40v9+bnsC6t27BXuwTQYbn1b+LoU/BUn7YQNywHsDeda7B9kQCQfrP8r4c
PKrBPRKJQHMCFMBOqa7BRCbhQA3V2D/PF6bB/BdLQCMtK77DCKrBfo/lP7iIIMDrno7BAt9VQKnb
ycAw5IPBtpx2vktYNsCEfIPBDSyoP4ds1MAfZXHBgNGsQAVuGb8ifpDBpnblQFB/HsB56WnBlnb9
QMFM2D+E03bBDFfYQNFfBUFSaJHBSL7QQKob1kBJ25bBxw2sQNomAEEHMJrBJRuPQBxPf8DKwKHB
x1xCQA7+oMCkeJ/BPoY5QO7WT8BHKp7Bo0cUQW8naj9CWULBOsgRQfi13T830VvBwNv0QLWktz8M
wUvBI3AIQYyEUcCUSDXB+Mj5QCyc07/KxDDBvUDlQFxCLcDKp0XBGuyLQDFtN0Ca8KvBiq5QQHXE
/j9DF6PB1vy4QC6A2UAv0YPBVUyUQBzZAUHuJYfBqbiRQAreiUCjxIbBHy64QAsDnkCuL5DBRMWS
QHYEo8CU/4/B3Cm8QLdSWkBrvZ3BvuFDQB42aECtP5TBcViLQBbmCMCJHJHBrGGNQHZ3tj8EFpDB
C8xaQLb9xUCKcIfByUhtQOVuz0A5FJTBGuZRQA9YjkDlr6XB

> <OMEGA_E>
4OMtPw==

> <OMEGA_NBR>
     36218

$$$$
50163097
  -OEChem-04172616093D

 80 83  0     1  0  0  0  0  0999 V2000
    6.3786   -1.3863  -21.7104 C   0  0  0  0  0  0  0  0  0  0  0  0
    0.4875   -4.7712  -15.5228 C   0  0  0  0  0  0  0  0  0  0  0  0
    7.1114   -0.2016  -21.4974 C   0  0  0  0  0  0  0  0  0  0  0  0
    4.9756   -1.3775  -21.5914 C   0  0  0  0  0  0  0  0  0  0  0  0
    0.6178   -3.5530  -16.2195 C   0  0  0  0  0  0  0  0  0  0  0  0
    1.4697   -5.7719  -15.6627 C   0  0  0  0  0  0  0  0  0  0  0  0
    6.4412    0.9921  -21.1645 C   0  0  0  0  0  0  0  0  0  0  0  0
    4.3058   -0.1938  -21.2343 C   0  0  0  0  0  0  0  0  0  0  0  0
    1.7288   -3.3355  -17.0590 C   0  0  0  0  0  0  0  0  0  0  0  0
    2.5820   -5.5561  -16.4994 C   0  0  0  0  0  0  0  0  0  0  0  0
    6.1727   -0.5064  -17.3222 C   0  0  0  0  0  0  0  0  0  0  0  0
    6.9977   -1.5251  -15.2741 C   0  0  0  0  0  0  0  0  0  0  0  0
    7.3728    0.8533  -15.6894 C   0  0  0  0  0  0  0  0  0  0  0  0
    6.3364   -1.6472  -16.5089 C   0  0  0  0  0  0  0  0  0  0  0  0
    6.7003    0.7404  -16.9232 C   0  0  0  0  0  0  0  0  0  0  0  0
    5.0346    0.9936  -21.0131 C   0  0  0  0  0  0  0  0  0  0  0  0
    2.7153   -4.3399  -17.2047 C   0  0  0  0  0  0  0  0  0  0  0  0
    7.4707   -0.2714  -14.8470 C   0  0  0  0  0  0  0  0  0  0  0  0
    5.7472   -2.9365  -16.9076 C   0  0  0  0  0  0  0  0  0  0  0  0
    6.4583    1.9209  -17.7614 C   0  0  0  0  0  0  0  0  0  0  0  0
    6.9417    7.6806  -17.8714 C   0  0  0  0  0  0  0  0  0  0  0  0
    5.5400    7.8484  -17.2554 C   0  0  0  0  0  0  0  0  0  0  0  0
    6.2007    6.4757  -17.2963 C   0  0  0  0  0  0  0  0  0  0  0  0
    3.4473   -3.9968  -19.5889 C   0  0  0  0  0  0  0  0  0  0  0  0
    7.0159   -0.4467  -12.4381 C   0  0  0  0  0  0  0  0  0  0  0  0
    9.7067   -2.1172  -12.5900 C   0  0  0  0  0  0  0  0  0  0  0  0
    4.2840    2.2635  -20.6573 C   0  0  0  0  0  0  0  0  0  0  0  0
    4.4472    4.8435  -17.7468 C   0  0  0  0  0  0  0  0  0  0  0  0
    3.9032   -4.1390  -18.1313 C   0  0  1  0  0  0  0  0  0  0  0  0
    4.8841    2.9979  -19.4368 C   0  0  1  0  0  0  0  0  0  0  0  0
    3.8549    4.0206  -18.8917 C   0  0  2  0  0  0  0  0  0  0  0  0
    4.6468   -2.9343  -17.7548 N   0  0  0  0  0  0  0  0  0  0  0  0
    5.2178    2.0261  -18.3854 N   0  0  0  0  0  0  0  0  0  0  0  0
    7.9470   -0.1299  -13.5521 N   0  0  1  0  0  0  0  0  0  0  0  0
    5.6529    5.5202  -18.2432 N   0  3  0  0  0  0  0  0  0  0  0  0
    6.1854   -3.9858  -16.4463 O   0  0  0  0  0  0  0  0  0  0  0  0
    7.3297    2.7732  -17.9009 O   0  0  0  0  0  0  0  0  0  0  0  0
   10.0224    0.5118  -12.2231 O   0  0  0  0  0  0  0  0  0  0  0  0
   10.2907   -0.4409  -14.5686 O   0  0  0  0  0  0  0  0  0  0  0  0
    3.4695    4.9106  -19.9393 O   0  0  0  0  0  0  0  0  0  0  0  0
    9.6021   -0.4302  -13.2690 S   0  0  0  0  0  0  0  0  0  0  0  0
    6.8932   -2.3011  -21.9650 H   0  0  0  0  0  0  0  0  0  0  0  0
   -0.3654   -4.9379  -14.8815 H   0  0  0  0  0  0  0  0  0  0  0  0
    8.1875   -0.2087  -21.5895 H   0  0  0  0  0  0  0  0  0  0  0  0
    4.4132   -2.2810  -21.7746 H   0  0  0  0  0  0  0  0  0  0  0  0
   -0.1342   -2.7856  -16.1100 H   0  0  0  0  0  0  0  0  0  0  0  0
    1.3696   -6.7049  -15.1280 H   0  0  0  0  0  0  0  0  0  0  0  0
    7.0008    1.9052  -21.0249 H   0  0  0  0  0  0  0  0  0  0  0  0
    3.2310   -0.1938  -21.1291 H   0  0  0  0  0  0  0  0  0  0  0  0
    1.8276   -2.4013  -17.5919 H   0  0  0  0  0  0  0  0  0  0  0  0
    3.3352   -6.3232  -16.6019 H   0  0  0  0  0  0  0  0  0  0  0  0
    5.6394   -0.5876  -18.2578 H   0  0  0  0  0  0  0  0  0  0  0  0
    7.1427   -2.3960  -14.6521 H   0  0  0  0  0  0  0  0  0  0  0  0
    7.8097    1.7952  -15.3922 H   0  0  0  0  0  0  0  0  0  0  0  0
    7.0809    7.7746  -18.9585 H   0  0  0  0  0  0  0  0  0  0  0  0
    7.8236    8.0843  -17.3525 H   0  0  0  0  0  0  0  0  0  0  0  0
    5.4193    8.3731  -16.2962 H   0  0  0  0  0  0  0  0  0  0  0  0
    4.6765    8.0634  -17.9021 H   0  0  0  0  0  0  0  0  0  0  0  0
    6.5754    6.0872  -16.3378 H   0  0  0  0  0  0  0  0  0  0  0  0
    4.3252   -3.8529  -20.2358 H   0  0  0  0  0  0  0  0  0  0  0  0
    2.9112   -4.9070  -19.8957 H   0  0  0  0  0  0  0  0  0  0  0  0
    2.7781   -3.1286  -19.6806 H   0  0  0  0  0  0  0  0  0  0  0  0
    7.5270   -0.2902  -11.4766 H   0  0  0  0  0  0  0  0  0  0  0  0
    6.1364    0.2113  -12.4970 H   0  0  0  0  0  0  0  0  0  0  0  0
    6.6948   -1.4959  -12.5159 H   0  0  0  0  0  0  0  0  0  0  0  0
   10.7586   -2.3667  -12.3867 H   0  0  0  0  0  0  0  0  0  0  0  0
    9.1297   -2.1725  -11.6551 H   0  0  0  0  0  0  0  0  0  0  0  0
    9.2946   -2.8315  -13.3179 H   0  0  0  0  0  0  0  0  0  0  0  0
    4.3122    2.9415  -21.5230 H   0  0  0  0  0  0  0  0  0  0  0  0
    3.2400    2.0017  -20.4304 H   0  0  0  0  0  0  0  0  0  0  0  0
    3.7144    5.5903  -17.4072 H   0  0  0  0  0  0  0  0  0  0  0  0
    4.7104    4.1807  -16.9093 H   0  0  0  0  0  0  0  0  0  0  0  0
    4.5630   -5.0158  -18.0549 H   0  0  0  0  0  0  0  0  0  0  0  0
    5.7897    3.5365  -19.7527 H   0  0  0  0  0  0  0  0  0  0  0  0
    2.9787    3.4708  -18.5177 H   0  0  0  0  0  0  0  0  0  0  0  0
    4.3441   -2.0583  -18.1302 H   0  0  0  0  0  0  0  0  0  0  0  0
    4.4998    1.3929  -18.0964 H   0  0  0  0  0  0  0  0  0  0  0  0
    5.4213    6.0050  -19.0866 H   0  0  0  0  0  0  0  0  0  0  0  0
    6.3491    4.8289  -18.4365 H   0  0  0  0  0  0  0  0  0  0  0  0
    3.0992    4.4123  -20.6584 H   0  0  0  0  0  0  0  0  0  0  0  0
  1  3  1  0  0  0  0
  1  4  2  0  0  0  0
  2  5  1  0  0  0  0
  2  6  2  0  0  0  0
  3  7  2  0  0  0  0
  4  8  1  0  0  0  0
  5  9  2  0  0  0  0
  6 10  1  0  0  0  0
  7 16  1  0  0  0  0
  8 16  2  0  0  0  0
  9 17  1  0  0  0  0
 10 17  2  0  0  0  0
 11 14  1  0  0  0  0
 11 15  2  0  0  0  0
 12 14  2  0  0  0  0
 12 18  1  0  0  0  0
 13 15  1  0  0  0  0
 13 18  2  0  0  0  0
 14 19  1  0  0  0  0
 15 20  1  0  0  0  0
 16 27  1  0  0  0  0
 17 29  1  0  0  0  0
 18 34  1  0  0  0  0
 19 32  1  0  0  0  0
 19 36  2  0  0  0  0
 20 33  1  0  0  0  0
 20 37  2  0  0  0  0
 21 22  1  0  0  0  0
 21 23  1  0  0  0  0
 22 23  1  0  0  0  0
 23 35  1  0  0  0  0
 24 29  1  0  0  0  0
 25 34  1  0  0  0  0
 26 41  1  0  0  0  0
 27 30  1  0  0  0  0
 28 31  1  0  0  0  0
 28 35  1  0  0  0  0
 29 32  1  0  0  0  0
 30 31  1  0  0  0  0
 30 33  1  0  0  0  0
 31 40  1  0  0  0  0
 34 41  1  0  0  0  0
 38 41  2  0  0  0  0
 39 41  2  0  0  0  0
  1 42  1  0  0  0  0
  2 43  1  0  0  0  0
  3 44  1  0  0  0  0
  4 45  1  0  0  0  0
  5 46  1  0  0  0  0
  6 47  1  0  0  0  0
  7 48  1  0  0  0  0
  8 49  1  0  0  0  0
  9 50  1  0  0  0  0
 10 51  1  0  0  0  0
 11 52  1  0  0  0  0
 12 53  1  0  0  0  0
 13 54  1  0  0  0  0
 21 55  1  0  0  0  0
 21 56  1  0  0  0  0
 22 57  1  0  0  0  0
 22 58  1  0  0  0  0
 23 59  1  0  0  0  0
 24 60  1  0  0  0  0
 24 61  1  0  0  0  0
 24 62  1  0  0  0  0
 25 63  1  0  0  0  0
 25 64  1  0  0  0  0
 25 65  1  0  0  0  0
 26 66  1  0  0  0  0
 26 67  1  0  0  0  0
 26 68  1  0  0  0  0
 27 69  1  0  0  0  0
 27 70  1  0  0  0  0
 28 71  1  0  0  0  0
 28 72  1  0  0  0  0
 29 73  1  0  0  0  0
 30 74  1  0  0  0  0
 31 75  1  0  0  0  0
 32 76  1  0  0  0  0
 33 77  1  0  0  0  0
 35 78  1  0  0  0  0
 35 79  1  0  0  0  0
 40 80  1  0  0  0  0
M  CHG  1  35   1
M  END
> <OMEGA_C>
0x3MQCpzsb/vrq3Bq5j5PgeumMBYXXjB65DjQJxrTr61+qvBZDifQEtQsL8Wu6zBfSgePwVkY8CE
wYHBLh+8PwizuMBymnrBVx7OQPD6fT/UUKnBWMmJQBSARr7D36nB5ErdP894VcDueIjBuz4lQHPL
scC5/oPBAYfFQBKkAb/gk4rBJu3fQI01w7+MYnTBJe7rQEhwWj+0B3vBpMPKQK3X0r86EoTBRGnW
QJmIPT+mYofBdBuhQChdfj/KGqjBNcgtQJrgisAio4nBLBDvQIP6ir4ljW3B2+i3QJvvO8DBQofB
TKrOQLDh9T9LF47BeyLeQJ3H9UCP+I7Bh0exQEgm+0AWC4rBYmzGQP44z0DMXorBg6BcQKDLf8AR
tpzBpYLgQPu65L5BAkfBnU4bQVqAB8B1cEnByBaJQAzdEEAjQqXBYk+OQDj+mkB4+Y3BzM15QEly
hMDRDJHBgEqcQB7dP0COfpvBE7d2QPqogEAgIpfBirKUQAvMO8DTCY7B8/emQBSsAUA1FZPBpE3+
QJ4PBb6G1VjBheS0QJmlsEAI8pHBu+7FQGYXf8AAkoPBI43qQDx8MUDyNI/B71sgQaMDAz/KkUPB
zaYkQfm84b7nGGnB2wteQG4jnUCpg5/BPaIZQX1D3L6mTVTB7ZTcQIdFE8BLuK/BZBW7vgkDnsC/
Gm7B8/8CQXOvVb44t6zB3DiNQLP8EcBQMq7BD2wJvhhHMsAw4YDB302vPyaO1sBhDHLBPwbgQDHf
8z8MM6jBGshOQAt5Rr5UCKnBMO3pP92uGcA0vIzBrHRVQIVXysCv0ITB53W0QCpvFr/+D5LBMZHk
QKFYGcAjb2rBc+n5QG7I5T96RnbBlJbiQMrJ+EDyqpfBUVv6QHRZAUH60YrBnmqtQBb4BUGHXoLB
4aWVQIcDAUF+N4/BvmnSQJXKwkDQs4LBP2iKQC6VdsD74qHBQFE6QEEGncBmKp/BQswxQEE7SMD0
cZ3BVN3wQAKSlL5ZoDfBml3EQGdUWD7e80fB4TvWQN96v7/wQEjBJyMsQaJ3F8AeMEbBLxMSQaYJ
C8AtezrBwbYUQak3NcBAFlXBVv2JQARCPEAiL6zBX1xPQMobAEBrcaPBE7htQGDjskDcQYvBgLuW
QKbIhUA7RofBSwSSQAiBoMBgcJDBKEW5QIdVYkCOBZ7BWaI+QGwhXkBGJJTBhAKLQCC7A8CfCpHB
Of6PQL9Jsj9yxZDBlHutQCIpwEBWsZjBkivLQAaGmkDyfZPBi1lGQPUxjUB8RKXB

> <OMEGA_E>
DD4/Pw==

> <OMEGA_NBR>
     37846

$$$$
50163161
  -OEChem-04172616093D

 77 80  0     1  0  0  0  0  0999 V2000
    6.2965   -1.5395  -21.6400 C   0  0  0  0  0  0  0  0  0  0  0  0
    7.0685   -0.4067  -21.3161 C   0  0  0  0  0  0  0  0  0  0  0  0
    4.8908   -1.4542  -21.6444 C   0  0  0  0  0  0  0  0  0  0  0  0
    6.4349    0.8083  -20.9869 C   0  0  0  0  0  0  0  0  0  0  0  0
    4.2548   -0.2485  -21.2925 C   0  0  0  0  0  0  0  0  0  0  0  0
    1.6471   -3.4849  -17.3990 C   0  0  0  0  0  0  0  0  0  0  0  0
    2.5228   -5.6237  -16.6042 C   0  0  0  0  0  0  0  0  0  0  0  0
    0.4676   -3.6941  -16.6572 C   0  0  0  0  0  0  0  0  0  0  0  0
    1.3454   -5.8288  -15.8606 C   0  0  0  0  0  0  0  0  0  0  0  0
    6.0874   -0.5863  -17.1976 C   0  0  0  0  0  0  0  0  0  0  0  0
    7.0149   -1.6134  -15.1955 C   0  0  0  0  0  0  0  0  0  0  0  0
    7.4445    0.7416  -15.6628 C   0  0  0  0  0  0  0  0  0  0  0  0
    6.2719   -1.7294  -16.3913 C   0  0  0  0  0  0  0  0  0  0  0  0
    6.6768    0.6447  -16.8407 C   0  0  0  0  0  0  0  0  0  0  0  0
    5.0201    0.8847  -20.9419 C   0  0  0  0  0  0  0  0  0  0  0  0
    2.6792   -4.4535  -17.3783 C   0  0  0  0  0  0  0  0  0  0  0  0
    7.5707   -0.3699  -14.8112 C   0  0  0  0  0  0  0  0  0  0  0  0
    0.3176   -4.8655  -15.8870 C   0  0  0  0  0  0  0  0  0  0  0  0
    5.6692   -3.0242  -16.7885 C   0  0  0  0  0  0  0  0  0  0  0  0
    6.4528    1.8264  -17.6835 C   0  0  0  0  0  0  0  0  0  0  0  0
    6.5830    7.3920  -18.1177 C   0  0  0  0  0  0  0  0  0  0  0  0
    5.6680    7.5284  -19.3480 C   0  0  0  0  0  0  0  0  0  0  0  0
    5.0506    7.4156  -17.9453 C   0  0  0  0  0  0  0  0  0  0  0  0
    3.6423   -4.1368  -19.6819 C   0  0  0  0  0  0  0  0  0  0  0  0
    8.6326   -2.5844  -12.0687 C   0  0  0  0  0  0  0  0  0  0  0  0
    4.3009    2.1824  -20.5808 C   0  0  0  0  0  0  0  0  0  0  0  0
    4.8735    4.8919  -17.8450 C   0  0  0  0  0  0  0  0  0  0  0  0
    3.9532   -4.2544  -18.1822 C   0  0  1  0  0  0  0  0  0  0  0  0
    4.9592    2.9326  -19.3949 C   0  0  1  0  0  0  0  0  0  0  0  0
    4.0664    4.0826  -18.8781 C   0  0  2  0  0  0  0  0  0  0  0  0
    8.2013   -0.1926  -13.5792 N   0  0  0  0  0  0  0  0  0  0  0  0
    4.6515   -3.0395  -17.7403 N   0  0  0  0  0  0  0  0  0  0  0  0
    5.2194    1.9733  -18.3102 N   0  0  0  0  0  0  0  0  0  0  0  0
    4.2591    6.2076  -17.5385 N   0  3  0  0  0  0  0  0  0  0  0  0
    6.0601   -4.0696  -16.2783 O   0  0  0  0  0  0  0  0  0  0  0  0
    7.3491    2.6492  -17.8390 O   0  0  0  0  0  0  0  0  0  0  0  0
    8.1715   -0.2039  -11.0114 O   0  0  0  0  0  0  0  0  0  0  0  0
    6.2867   -1.3544  -12.2674 O   0  0  0  0  0  0  0  0  0  0  0  0
    3.6921    4.9120  -19.9773 O   0  0  0  0  0  0  0  0  0  0  0  0
   -0.8096   -5.0634  -15.1669 F   0  0  0  0  0  0  0  0  0  0  0  0
    7.7141   -1.0213  -12.1424 S   0  0  0  0  0  0  0  0  0  0  0  0
    6.7821   -2.4726  -21.8848 H   0  0  0  0  0  0  0  0  0  0  0  0
    8.1466   -0.4693  -21.3201 H   0  0  0  0  0  0  0  0  0  0  0  0
    4.2995   -2.3154  -21.9182 H   0  0  0  0  0  0  0  0  0  0  0  0
    7.0287    1.6835  -20.7683 H   0  0  0  0  0  0  0  0  0  0  0  0
    3.1763   -0.1903  -21.2907 H   0  0  0  0  0  0  0  0  0  0  0  0
    1.7639   -2.5847  -17.9841 H   0  0  0  0  0  0  0  0  0  0  0  0
    3.3089   -6.3639  -16.5825 H   0  0  0  0  0  0  0  0  0  0  0  0
   -0.3215   -2.9571  -16.6785 H   0  0  0  0  0  0  0  0  0  0  0  0
    1.2298   -6.7251  -15.2693 H   0  0  0  0  0  0  0  0  0  0  0  0
    5.4903   -0.6542  -18.0949 H   0  0  0  0  0  0  0  0  0  0  0  0
    7.1601   -2.4811  -14.5691 H   0  0  0  0  0  0  0  0  0  0  0  0
    7.9362    1.6704  -15.4141 H   0  0  0  0  0  0  0  0  0  0  0  0
    7.1418    6.4598  -17.9480 H   0  0  0  0  0  0  0  0  0  0  0  0
    7.1878    8.2480  -17.7838 H   0  0  0  0  0  0  0  0  0  0  0  0
    5.6203    8.4820  -19.8942 H   0  0  0  0  0  0  0  0  0  0  0  0
    5.5743    6.6939  -20.0584 H   0  0  0  0  0  0  0  0  0  0  0  0
    4.6637    8.3672  -17.5519 H   0  0  0  0  0  0  0  0  0  0  0  0
    4.5788   -3.9936  -20.2409 H   0  0  0  0  0  0  0  0  0  0  0  0
    3.1466   -5.0562  -20.0267 H   0  0  0  0  0  0  0  0  0  0  0  0
    2.9785   -3.2764  -19.8522 H   0  0  0  0  0  0  0  0  0  0  0  0
    8.3441   -3.1374  -11.1626 H   0  0  0  0  0  0  0  0  0  0  0  0
    8.3987   -3.1892  -12.9573 H   0  0  0  0  0  0  0  0  0  0  0  0
    9.7120   -2.3744  -12.0419 H   0  0  0  0  0  0  0  0  0  0  0  0
    4.3081    2.8430  -21.4603 H   0  0  0  0  0  0  0  0  0  0  0  0
    3.2619    1.9432  -20.3103 H   0  0  0  0  0  0  0  0  0  0  0  0
    4.9382    4.3088  -16.9145 H   0  0  0  0  0  0  0  0  0  0  0  0
    5.8850    5.0605  -18.2432 H   0  0  0  0  0  0  0  0  0  0  0  0
    4.6063   -5.1262  -18.0290 H   0  0  0  0  0  0  0  0  0  0  0  0
    5.9118    3.3601  -19.7409 H   0  0  0  0  0  0  0  0  0  0  0  0
    3.1773    3.6573  -18.3896 H   0  0  0  0  0  0  0  0  0  0  0  0
    9.1609   -0.4338  -13.7240 H   0  0  0  0  0  0  0  0  0  0  0  0
    4.3791   -2.1683  -18.1485 H   0  0  0  0  0  0  0  0  0  0  0  0
    4.4648    1.3924  -18.0051 H   0  0  0  0  0  0  0  0  0  0  0  0
    4.1153    6.2550  -16.5500 H   0  0  0  0  0  0  0  0  0  0  0  0
    3.3761    6.2490  -18.0061 H   0  0  0  0  0  0  0  0  0  0  0  0
    3.1958    4.4009  -20.6057 H   0  0  0  0  0  0  0  0  0  0  0  0
  1  2  1  0  0  0  0
  1  3  2  0  0  0  0
  2  4  2  0  0  0  0
  3  5  1  0  0  0  0
  4 15  1  0  0  0  0
  5 15  2  0  0  0  0
  6  8  2  0  0  0  0
  6 16  1  0  0  0  0
  7  9  1  0  0  0  0
  7 16  2  0  0  0  0
  8 18  1  0  0  0  0
  9 18  2  0  0  0  0
 10 13  1  0  0  0  0
 10 14  2  0  0  0  0
 11 13  2  0  0  0  0
 11 17  1  0  0  0  0
 12 14  1  0  0  0  0
 12 17  2  0  0  0  0
 13 19  1  0  0  0  0
 14 20  1  0  0  0  0
 15 26  1  0  0  0  0
 16 28  1  0  0  0  0
 17 31  1  0  0  0  0
 18 40  1  0  0  0  0
 19 32  1  0  0  0  0
 19 35  2  0  0  0  0
 20 33  1  0  0  0  0
 20 36  2  0  0  0  0
 21 22  1  0  0  0  0
 21 23  1  0  0  0  0
 22 23  1  0  0  0  0
 23 34  1  0  0  0  0
 24 28  1  0  0  0  0
 25 41  1  0  0  0  0
 26 29  1  0  0  0  0
 27 30  1  0  0  0  0
 27 34  1  0  0  0  0
 28 32  1  0  0  0  0
 29 30  1  0  0  0  0
 29 33  1  0  0  0  0
 30 39  1  0  0  0  0
 31 41  1  0  0  0  0
 37 41  2  0  0  0  0
 38 41  2  0  0  0  0
  1 42  1  0  0  0  0
  2 43  1  0  0  0  0
  3 44  1  0  0  0  0
  4 45  1  0  0  0  0
  5 46  1  0  0  0  0
  6 47  1  0  0  0  0
  7 48  1  0  0  0  0
  8 49  1  0  0  0  0
  9 50  1  0  0  0  0
 10 51  1  0  0  0  0
 11 52  1  0  0  0  0
 12 53  1  0  0  0  0
 21 54  1  0  0  0  0
 21 55  1  0  0  0  0
 22 56  1  0  0  0  0
 22 57  1  0  0  0  0
 23 58  1  0  0  0  0
 24 59  1  0  0  0  0
 24 60  1  0  0  0  0
 24 61  1  0  0  0  0
 25 62  1  0  0  0  0
 25 63  1  0  0  0  0
 25 64  1  0  0  0  0
 26 65  1  0  0  0  0
 26 66  1  0  0  0  0
 27 67  1  0  0  0  0
 27 68  1  0  0  0  0
 28 69  1  0  0  0  0
 29 70  1  0  0  0  0
 30 71  1  0  0  0  0
 31 72  1  0  0  0  0
 32 73  1  0  0  0  0
 33 74  1  0  0  0  0
 34 75  1  0  0  0  0
 34 76  1  0  0  0  0
 39 77  1  0  0  0  0
M  CHG  1  34   1
M  END
> <OMEGA_C>
2nzJQBwPxb/EHq3B1jDiQFM50L5xh6rBQYGcQEciur+oJ63BVurNQBzvTj8t5afB7CaIQNZ0fr7z
VqrBSdXSP2YJX8A7MYvBR3UhQJn1s8Bw1YTBD2/vPkVsbMDgQYXBLjWsP26FusDXxH3BPszCQBIV
Fr+clInBOHrgQEqDzr+VIHPBADnuQIbYPT/CmnrBEbPIQMJb3b97IYPBlajVQIgNJT/HuYbBxqSg
QMB8Yj/0iKfBnngrQOmCjsDaBovBTkPyQF9dvb7J+mzB956iPu2xm8BCMX7BZWq1QBWNQcDgTobB
T33OQF3H6T/Kd43B3qfSQAOL7EAX8ZDBH2C1QAfp8ECkyJrBlJ6hQFRM7UDtj4/BuRtpQLVghMCG
dJ3B9B4KQTNnJcBwGUHBQ6GJQMKrC0BtpaTB1fObQHiKnECjwo7B2QF9QDckiMAudZHBXrGeQAOv
O0DWKJvBuB+CQIakgkBkBpfBhTgDQRw/Rb5eRFnBSNmUQPCHQsAl7I3BTAWnQGeW/D8/e5LBPEqI
QLKkxkDNTozBbOzBQHg6gsDvOYLB4yvrQO6MKUA2to7BW74CQdrRUL7FLjDBXizJQH9drb8zR0TB
iEtsQF4vnUCH0Z/BwkBPvwoHosDLq3LBmNn2QJK7gr94R0LBNgfZQDo/HsAHFK/BolgCQcJF8L6U
j6rBJZWJQMMvFMCEWK/BSuvgQLt91z+RJabB4khLQETVQr5bU6rBl8bhP4trJcBz34/BrMVTQEWl
y8ANqYTBUJ6kvk5BPcCGbYXBzGidP2I018AST3TB6LCvQHt6J79rwpDBZh/lQIPKHsDbGmnB8vT9
QBvR1T8EoHbBUInkQJq2zkBslY/BOQLmQLT3A0E+RY7BRdmzQGu2B0FcJ5/BXGCyQAg01kCKd6DB
0jyVQPPfBUFYaozBeIWSQEGXf8Bo7aHBXGFJQMXMocCYNqDBLqA+QNivUcBc0Z7BfIEFQXDLSMAY
mjLBHmEGQYQcTMDrUE/BQ2QbQWb1F8Bzq0DB1NuJQL3zNUCerqvBtMJQQNm5+D95e6LB1AWeQLXh
iUD/UIfBxVG8QNbvoUD98ZHBEmeTQNIJpMBrO5DBKi29QKkMV0Bj7Z3BW1lLQHYQakDOHZPBJ5MS
QUQX3r5slVvByyGMQKfECsAvMJHBnd+OQBI5sj+GCpDBtLCDQM0oyEBkZoTB6BFYQPj3x0BzDJDB
MIdMQCLUjEB12KTB

> <OMEGA_E>
mD/gPg==

> <OMEGA_NBR>
     39422

$$$$
50147876
  -OEChem-04172616093D

 90 93  0     1  0  0  0  0  0999 V2000
    5.5414   10.2045  -21.7889 C   0  0  0  0  0  0  0  0  0  0  0  0
    6.0456    8.9250  -22.0966 C   0  0  0  0  0  0  0  0  0  0  0  0
    5.7341   10.7490  -20.5035 C   0  0  0  0  0  0  0  0  0  0  0  0
    6.7442    8.1899  -21.1196 C   0  0  0  0  0  0  0  0  0  0  0  0
    6.4296   10.0141  -19.5249 C   0  0  0  0  0  0  0  0  0  0  0  0
    6.8516   -0.0287  -16.7684 C   0  0  0  0  0  0  0  0  0  0  0  0
    8.4299    1.5806  -15.8299 C   0  0  0  0  0  0  0  0  0  0  0  0
    8.1605   -0.6091  -14.7940 C   0  0  0  0  0  0  0  0  0  0  0  0
    6.7711    1.0387  -21.3819 C   0  0  0  0  0  0  0  0  0  0  0  0
    4.9467   -0.4458  -20.7183 C   0  0  0  0  0  0  0  0  0  0  0  0
    7.0548   -1.3788  -21.5148 C   0  0  0  0  0  0  0  0  0  0  0  0
    7.4662    1.2439  -16.8052 C   0  0  0  0  0  0  0  0  0  0  0  0
    7.2218   -0.9653  -15.7809 C   0  0  0  0  0  0  0  0  0  0  0  0
    6.9347    8.7298  -19.8271 C   0  0  0  0  0  0  0  0  0  0  0  0
    8.7532    0.6669  -14.8081 C   0  0  0  0  0  0  0  0  0  0  0  0
    5.4597    0.8551  -20.8897 C   0  0  0  0  0  0  0  0  0  0  0  0
    7.5717   -0.0783  -21.6807 C   0  0  0  0  0  0  0  0  0  0  0  0
    5.7387   -1.5601  -21.0433 C   0  0  0  0  0  0  0  0  0  0  0  0
    7.0864    2.2148  -17.8442 C   0  0  0  0  0  0  0  0  0  0  0  0
    6.6246   -2.3110  -15.7565 C   0  0  0  0  0  0  0  0  0  0  0  0
    5.4974    7.8205  -17.2970 C   0  0  0  0  0  0  0  0  0  0  0  0
    6.0472    5.9104  -18.8595 C   0  0  0  0  0  0  0  0  0  0  0  0
    4.5698    6.8827  -16.5195 C   0  0  0  0  0  0  0  0  0  0  0  0
    6.6413    7.0063  -17.9536 C   0  0  1  0  0  0  0  0  0  0  0  0
    5.0639    5.0237  -18.0550 C   0  0  2  0  0  0  0  0  0  0  0  0
    9.7960    1.0249  -13.7750 C   0  0  0  0  0  0  0  0  0  0  0  0
    3.9306   -3.3484  -17.6515 C   0  0  0  0  0  0  0  0  0  0  0  0
    9.5786   -4.1028  -17.0614 C   0  0  0  0  0  0  0  0  0  0  0  0
    7.6223    7.9127  -18.7436 C   0  0  0  0  0  0  0  0  0  0  0  0
    4.6044    2.0467  -20.5277 C   0  0  0  0  0  0  0  0  0  0  0  0
    4.8900   -4.5392  -17.8400 C   0  0  0  0  0  0  0  0  0  0  0  0
    8.6792   -3.9299  -18.2988 C   0  0  0  0  0  0  0  0  0  0  0  0
    6.0336   -4.5168  -16.8110 C   0  0  0  0  0  0  0  0  0  0  0  0
    7.5759   -2.8913  -18.0393 C   0  0  0  0  0  0  0  0  0  0  0  0
    4.3446    3.9961  -18.9457 C   0  0  2  0  0  0  0  0  0  0  0  0
    5.3237    2.9515  -19.5080 C   0  0  1  0  0  0  0  0  0  0  0  0
    5.8208    2.1164  -18.4058 N   0  0  0  0  0  0  0  0  0  0  0  0
    6.7606   -3.2169  -16.8322 N   0  0  0  0  0  0  0  0  0  0  0  0
    4.0219    5.8650  -17.4308 N   0  3  0  0  0  0  0  0  0  0  0  0
    7.8619    3.1063  -18.1738 O   0  0  0  0  0  0  0  0  0  0  0  0
    6.0447   -2.6457  -14.7291 O   0  0  0  0  0  0  0  0  0  0  0  0
    3.6746    4.6693  -20.0135 O   0  0  0  0  0  0  0  0  0  0  0  0
    8.8329    0.0989  -22.1342 F   0  0  0  0  0  0  0  0  0  0  0  0
    5.2344   -2.8053  -20.8997 F   0  0  0  0  0  0  0  0  0  0  0  0
    5.0067   10.7684  -22.5390 H   0  0  0  0  0  0  0  0  0  0  0  0
    5.8963    8.5084  -23.0817 H   0  0  0  0  0  0  0  0  0  0  0  0
    5.3481   11.7301  -20.2693 H   0  0  0  0  0  0  0  0  0  0  0  0
    7.1350    7.2117  -21.3581 H   0  0  0  0  0  0  0  0  0  0  0  0
    6.5775   10.4332  -18.5406 H   0  0  0  0  0  0  0  0  0  0  0  0
    6.0972   -0.2843  -17.4978 H   0  0  0  0  0  0  0  0  0  0  0  0
    8.9208    2.5419  -15.8676 H   0  0  0  0  0  0  0  0  0  0  0  0
    8.4264   -1.3176  -14.0235 H   0  0  0  0  0  0  0  0  0  0  0  0
    7.1585    2.0361  -21.5287 H   0  0  0  0  0  0  0  0  0  0  0  0
    3.9459   -0.5864  -20.3375 H   0  0  0  0  0  0  0  0  0  0  0  0
    7.6673   -2.2369  -21.7490 H   0  0  0  0  0  0  0  0  0  0  0  0
    4.9216    8.3367  -18.0793 H   0  0  0  0  0  0  0  0  0  0  0  0
    5.9269    8.5625  -16.6079 H   0  0  0  0  0  0  0  0  0  0  0  0
    5.5099    6.3821  -19.6954 H   0  0  0  0  0  0  0  0  0  0  0  0
    6.8613    5.2843  -19.2536 H   0  0  0  0  0  0  0  0  0  0  0  0
    5.1373    6.3885  -15.7172 H   0  0  0  0  0  0  0  0  0  0  0  0
    3.7452    7.4638  -16.0809 H   0  0  0  0  0  0  0  0  0  0  0  0
    7.2091    6.5131  -17.1509 H   0  0  0  0  0  0  0  0  0  0  0  0
    5.6259    4.4887  -17.2753 H   0  0  0  0  0  0  0  0  0  0  0  0
    9.3081    1.4944  -12.9081 H   0  0  0  0  0  0  0  0  0  0  0  0
   10.3196    0.1132  -13.4516 H   0  0  0  0  0  0  0  0  0  0  0  0
   10.5200    1.7276  -14.2132 H   0  0  0  0  0  0  0  0  0  0  0  0
    3.1294   -3.3997  -18.4035 H   0  0  0  0  0  0  0  0  0  0  0  0
    3.4909   -3.3878  -16.6440 H   0  0  0  0  0  0  0  0  0  0  0  0
    4.4868   -2.4070  -17.7722 H   0  0  0  0  0  0  0  0  0  0  0  0
   10.3573   -4.8499  -17.2749 H   0  0  0  0  0  0  0  0  0  0  0  0
   10.0515   -3.1408  -16.8147 H   0  0  0  0  0  0  0  0  0  0  0  0
    8.9697   -4.4411  -16.2101 H   0  0  0  0  0  0  0  0  0  0  0  0
    8.3850    7.2759  -19.2156 H   0  0  0  0  0  0  0  0  0  0  0  0
    8.1069    8.6034  -18.0379 H   0  0  0  0  0  0  0  0  0  0  0  0
    4.3924    2.6274  -21.4376 H   0  0  0  0  0  0  0  0  0  0  0  0
    3.6593    1.6920  -20.0906 H   0  0  0  0  0  0  0  0  0  0  0  0
    4.3238   -5.4750  -17.7234 H   0  0  0  0  0  0  0  0  0  0  0  0
    5.3197   -4.4942  -18.8516 H   0  0  0  0  0  0  0  0  0  0  0  0
    9.2950   -3.5958  -19.1469 H   0  0  0  0  0  0  0  0  0  0  0  0
    8.2132   -4.8962  -18.5423 H   0  0  0  0  0  0  0  0  0  0  0  0
    5.6140   -4.6755  -15.8066 H   0  0  0  0  0  0  0  0  0  0  0  0
    6.7410   -5.3260  -17.0449 H   0  0  0  0  0  0  0  0  0  0  0  0
    8.0445   -1.9068  -17.8940 H   0  0  0  0  0  0  0  0  0  0  0  0
    6.9114   -2.8555  -18.9152 H   0  0  0  0  0  0  0  0  0  0  0  0
    3.6049    3.4685  -18.3256 H   0  0  0  0  0  0  0  0  0  0  0  0
    6.1599    3.4657  -20.0043 H   0  0  0  0  0  0  0  0  0  0  0  0
    5.2013    1.4258  -18.0326 H   0  0  0  0  0  0  0  0  0  0  0  0
    3.4037    5.2738  -16.9128 H   0  0  0  0  0  0  0  0  0  0  0  0
    3.5111    6.3284  -18.1550 H   0  0  0  0  0  0  0  0  0  0  0  0
    3.2315    4.0322  -20.5616 H   0  0  0  0  0  0  0  0  0  0  0  0
  1  2  1  0  0  0  0
  1  3  2  0  0  0  0
  2  4  2  0  0  0  0
  3  5  1  0  0  0  0
  4 14  1  0  0  0  0
  5 14  2  0  0  0  0
  6 12  1  0  0  0  0
  6 13  2  0  0  0  0
  7 12  2  0  0  0  0
  7 15  1  0  0  0  0
  8 13  1  0  0  0  0
  8 15  2  0  0  0  0
  9 16  1  0  0  0  0
  9 17  2  0  0  0  0
 10 16  2  0  0  0  0
 10 18  1  0  0  0  0
 11 17  1  0  0  0  0
 11 18  2  0  0  0  0
 12 19  1  0  0  0  0
 13 20  1  0  0  0  0
 14 29  1  0  0  0  0
 15 26  1  0  0  0  0
 16 30  1  0  0  0  0
 17 43  1  0  0  0  0
 18 44  1  0  0  0  0
 19 37  1  0  0  0  0
 19 40  2  0  0  0  0
 20 38  1  0  0  0  0
 20 41  2  0  0  0  0
 21 23  1  0  0  0  0
 21 24  1  0  0  0  0
 22 24  1  0  0  0  0
 22 25  1  0  0  0  0
 23 39  1  0  0  0  0
 24 29  1  0  0  0  0
 25 35  1  0  0  0  0
 25 39  1  0  0  0  0
 27 31  1  0  0  0  0
 28 32  1  0  0  0  0
 30 36  1  0  0  0  0
 31 33  1  0  0  0  0
 32 34  1  0  0  0  0
 33 38  1  0  0  0  0
 34 38  1  0  0  0  0
 35 36  1  0  0  0  0
 35 42  1  0  0  0  0
 36 37  1  0  0  0  0
  1 45  1  0  0  0  0
  2 46  1  0  0  0  0
  3 47  1  0  0  0  0
  4 48  1  0  0  0  0
  5 49  1  0  0  0  0
  6 50  1  0  0  0  0
  7 51  1  0  0  0  0
  8 52  1  0  0  0  0
  9 53  1  0  0  0  0
 10 54  1  0  0  0  0
 11 55  1  0  0  0  0
 21 56  1  0  0  0  0
 21 57  1  0  0  0  0
 22 58  1  0  0  0  0
 22 59  1  0  0  0  0
 23 60  1  0  0  0  0
 23 61  1  0  0  0  0
 24 62  1  0  0  0  0
 25 63  1  0  0  0  0
 26 64  1  0  0  0  0
 26 65  1  0  0  0  0
 26 66  1  0  0  0  0
 27 67  1  0  0  0  0
 27 68  1  0  0  0  0
 27 69  1  0  0  0  0
 28 70  1  0  0  0  0
 28 71  1  0  0  0  0
 28 72  1  0  0  0  0
 29 73  1  0  0  0  0
 29 74  1  0  0  0  0
 30 75  1  0  0  0  0
 30 76  1  0  0  0  0
 31 77  1  0  0  0  0
 31 78  1  0  0  0  0
 32 79  1  0  0  0  0
 32 80  1  0  0  0  0
 33 81  1  0  0  0  0
 33 82  1  0  0  0  0
 34 83  1  0  0  0  0
 34 84  1  0  0  0  0
 35 85  1  0  0  0  0
 36 86  1  0  0  0  0
 37 87  1  0  0  0  0
 39 88  1  0  0  0  0
 39 89  1  0  0  0  0
 42 90  1  0  0  0  0
M  CHG  1  39   1
M  END
> <OMEGA_C>
IFOxQMJFI0GbT67B3nXBQPrMDkHYxbDBXH23QMr7K0FEB6TBHdDXQLAJA0Hn9KjBKL/NQN85IEEB
M5zBf0DbQNRv67ylJYbB8uAGQYZQyj9UR33BNZECQUXvG78NtGzB2azYQPX0hD82DqvBg0ueQI09
5L4Ov6XBMsHhQOB7sL9SHqzBYuvuQOQ3nz8ScYbBFxnnQP8fd7+ifnzB9ejdQFOtC0HdnZ7B+AwM
Qdu7Kj/o7WzB1bWuQCDmWj8KHqfB/0ryQFdEoL0Icq3BXaO3QMKxx7+9WKjB48PiQO6/DUDewI7B
lPzTQPDmE8DUGnzBouqvQEBB+kBYYIrBioLBQNAhvUBV4JbBITySQBA/3EDdJ4TBeoXUQMYz4EAR
oY/BbQuiQBDCoECdcJDBb7wcQRkvgz9+ZlzBxY97QG9LVsBQNo3BCUIZQUtKg8DHfYjB6enzQHk0
/UDc8pXBOFeTQFb9AkCzOKTBqHqcQPZAkcA+uI7BEt4KQSiEe8ADZJLBDRPBQJWJkMDofIbBY23y
QK4LOcCBUJDB9QaLQCrAf0DKkJfBZ1uqQAjmPEBUEJzBSkS6QINzB0AeP5PBD1fYQMLhTcBrqIbB
abOAQDiuu0BacovB5JT7QBrORkD7Y5HB7G3BQAhTKcBCqmvBkixrQL1qlUC7G6DBrFMNQTWayj3l
ErHBjYCnQImJM8CBMqfBSDegQEpLLEHGT7TB2668QDkiCEFkp7jBbCOrQFOuO0F1J6LBF1LkQKDG
5kB13arBkXrSQGDuJkEWU5TBYhzDQIGJkb5l+4vBhbsOQaytIkCU4X3BstIGQf2nqL8XYGDBpBLl
QHJPAkDWOqzBpYl8QAAgFr89s6LBtFr1QNUpD8Dr/a3BEn6dQD9jBUF6opDBVKm9QO7/CEH83ITB
xVCwQGI6zEBDkJ3Boo/bQFAZqUB3B5rBJmWkQIduzEB7eXvBuLFvQJTX7kDBpYDBNrHmQJ5r0EAi
NYnBeAe0QKmjj0DDM4rB6O0UQTVHvz+rh07BRB0lQa7A5z3pOVfBu1EoQeUi3T9waWPBqUhIQEWV
WcBJOpPBe2pfQCTSWMD4JoXBtZOPQEMMGsCBLY7BaLclQUcym8AKM4rB5NIgQXcCScB+hIbB5IMP
QXkdjsA7roHBGSkGQUHU6ECMuZnB17UBQaOnCUGYTZDBho6MQOYmKEAkgKvBszJqQN6U2D9zuaDB
Q1yKQG8zr8B4yY3BuzqqQH/Qj8AB0JbBWLgUQU8iZsDPLJnBWGkDQWStnMCMVpTBLKazQICdlcDR
53zBC7bXQNpuqsABXIjBXrYAQSQT9L8DJ4/BCyrdQPG/NsBWUpfBVLdmQIb8XUC8mpLB0h3FQL/O
XUC+CKDBT3GmQCqBtj/QQpDBitZZQCHDqEB2TYfBm7ZgQDOCykBwPZHBm9FOQNAHgUAafqTB

> <OMEGA_E>
ANPdPA==

> <OMEGA_NBR>
      1787

$$$$
50209132
  -OEChem-04172616093D

 86 88  0     1  0  0  0  0  0999 V2000
    6.8469   -0.0284  -16.7512 C   0  0  0  0  0  0  0  0  0  0  0  0
    8.4363    1.5710  -15.8150 C   0  0  0  0  0  0  0  0  0  0  0  0
    8.1438   -0.6109  -14.7693 C   0  0  0  0  0  0  0  0  0  0  0  0
    6.7819    1.0655  -21.4012 C   0  0  0  0  0  0  0  0  0  0  0  0
    4.9928   -0.4519  -20.7169 C   0  0  0  0  0  0  0  0  0  0  0  0
    7.1072   -1.3456  -21.5442 C   0  0  0  0  0  0  0  0  0  0  0  0
    7.4722    1.2395  -16.7916 C   0  0  0  0  0  0  0  0  0  0  0  0
    7.2045   -0.9625  -15.7565 C   0  0  0  0  0  0  0  0  0  0  0  0
    8.7478    0.6591  -14.7878 C   0  0  0  0  0  0  0  0  0  0  0  0
    5.4805    0.8592  -20.8932 C   0  0  0  0  0  0  0  0  0  0  0  0
    7.5998   -0.0356  -21.7081 C   0  0  0  0  0  0  0  0  0  0  0  0
    5.8006   -1.5520  -21.0569 C   0  0  0  0  0  0  0  0  0  0  0  0
    7.0980    2.2139  -17.8311 C   0  0  0  0  0  0  0  0  0  0  0  0
    6.5948   -2.3015  -15.7244 C   0  0  0  0  0  0  0  0  0  0  0  0
    5.4671    7.8990  -17.4036 C   0  0  0  0  0  0  0  0  0  0  0  0
    6.0356    5.9928  -18.9886 C   0  0  0  0  0  0  0  0  0  0  0  0
    4.6560    6.9146  -16.5560 C   0  0  0  0  0  0  0  0  0  0  0  0
    6.6063    7.1545  -18.1423 C   0  0  1  0  0  0  0  0  0  0  0  0
    5.1284    5.0752  -18.1128 C   0  0  2  0  0  0  0  0  0  0  0  0
    9.7855    1.0140  -13.7489 C   0  0  0  0  0  0  0  0  0  0  0  0
    6.0979    8.7470  -21.0904 C   0  0  0  0  0  0  0  0  0  0  0  0
    9.5395   -4.1636  -17.0392 C   0  0  0  0  0  0  0  0  0  0  0  0
    3.9190   -3.4143  -17.7186 C   0  0  0  0  0  0  0  0  0  0  0  0
    4.6164    2.0408  -20.5140 C   0  0  0  0  0  0  0  0  0  0  0  0
    7.5025    8.1281  -18.9741 C   0  0  0  0  0  0  0  0  0  0  0  0
    6.8013    9.2453  -19.8139 C   0  0  0  0  0  0  0  0  0  0  0  0
    8.6292   -3.9703  -18.2656 C   0  0  0  0  0  0  0  0  0  0  0  0
    4.9171   -4.5800  -17.8501 C   0  0  0  0  0  0  0  0  0  0  0  0
    7.5582   -2.9009  -17.9946 C   0  0  0  0  0  0  0  0  0  0  0  0
    6.0028   -4.5154  -16.7626 C   0  0  0  0  0  0  0  0  0  0  0  0
    4.3827    4.0064  -18.9344 C   0  0  2  0  0  0  0  0  0  0  0  0
    5.3463    2.9518  -19.5029 C   0  0  1  0  0  0  0  0  0  0  0  0
    5.8388    2.1127  -18.4029 N   0  0  0  0  0  0  0  0  0  0  0  0
    6.7290   -3.2146  -16.7931 N   0  0  0  0  0  0  0  0  0  0  0  0
    4.0942    5.8770  -17.4305 N   0  3  0  0  0  0  0  0  0  0  0  0
    7.8676    3.1152  -18.1482 O   0  0  0  0  0  0  0  0  0  0  0  0
    6.0201   -2.6286  -14.6915 O   0  0  0  0  0  0  0  0  0  0  0  0
    3.6543    4.6365  -19.9889 O   0  0  0  0  0  0  0  0  0  0  0  0
    8.8584    0.1671  -22.1580 F   0  0  0  0  0  0  0  0  0  0  0  0
    5.3239   -2.8078  -20.9080 F   0  0  0  0  0  0  0  0  0  0  0  0
    6.0944   -0.2820  -17.4832 H   0  0  0  0  0  0  0  0  0  0  0  0
    8.9367    2.5272  -15.8556 H   0  0  0  0  0  0  0  0  0  0  0  0
    8.4017   -1.3184  -13.9952 H   0  0  0  0  0  0  0  0  0  0  0  0
    7.1488    2.0697  -21.5540 H   0  0  0  0  0  0  0  0  0  0  0  0
    4.0006   -0.6112  -20.3214 H   0  0  0  0  0  0  0  0  0  0  0  0
    7.7309   -2.1917  -21.7919 H   0  0  0  0  0  0  0  0  0  0  0  0
    4.8048    8.3744  -18.1421 H   0  0  0  0  0  0  0  0  0  0  0  0
    5.9008    8.6701  -16.7499 H   0  0  0  0  0  0  0  0  0  0  0  0
    5.4409    6.4059  -19.8167 H   0  0  0  0  0  0  0  0  0  0  0  0
    6.8670    5.3983  -19.3953 H   0  0  0  0  0  0  0  0  0  0  0  0
    5.3109    6.4486  -15.8050 H   0  0  0  0  0  0  0  0  0  0  0  0
    3.8401    7.4505  -16.0489 H   0  0  0  0  0  0  0  0  0  0  0  0
    7.2511    6.7063  -17.3720 H   0  0  0  0  0  0  0  0  0  0  0  0
    5.7586    4.5713  -17.3651 H   0  0  0  0  0  0  0  0  0  0  0  0
    9.2947    1.4913  -12.8879 H   0  0  0  0  0  0  0  0  0  0  0  0
   10.2997    0.0999  -13.4174 H   0  0  0  0  0  0  0  0  0  0  0  0
   10.5180    1.7091  -14.1851 H   0  0  0  0  0  0  0  0  0  0  0  0
    5.6365    9.5987  -21.6117 H   0  0  0  0  0  0  0  0  0  0  0  0
    6.8349    8.2680  -21.7518 H   0  0  0  0  0  0  0  0  0  0  0  0
    5.3200    8.0180  -20.8194 H   0  0  0  0  0  0  0  0  0  0  0  0
   10.2947   -4.9324  -17.2600 H   0  0  0  0  0  0  0  0  0  0  0  0
   10.0415   -3.2141  -16.8020 H   0  0  0  0  0  0  0  0  0  0  0  0
    8.9327   -4.4824  -16.1789 H   0  0  0  0  0  0  0  0  0  0  0  0
    3.1584   -3.4911  -18.5096 H   0  0  0  0  0  0  0  0  0  0  0  0
    3.4300   -3.4597  -16.7343 H   0  0  0  0  0  0  0  0  0  0  0  0
    4.4557   -2.4592  -17.8177 H   0  0  0  0  0  0  0  0  0  0  0  0
    4.3820    2.6212  -21.4185 H   0  0  0  0  0  0  0  0  0  0  0  0
    3.6832    1.6746  -20.0612 H   0  0  0  0  0  0  0  0  0  0  0  0
    8.1817    8.6288  -18.2684 H   0  0  0  0  0  0  0  0  0  0  0  0
    8.0884    7.5139  -19.6738 H   0  0  0  0  0  0  0  0  0  0  0  0
    7.5636    9.9817  -20.1083 H   0  0  0  0  0  0  0  0  0  0  0  0
    6.0487    9.7317  -19.1759 H   0  0  0  0  0  0  0  0  0  0  0  0
    9.2427   -3.6557  -19.1228 H   0  0  0  0  0  0  0  0  0  0  0  0
    8.1338   -4.9241  -18.4997 H   0  0  0  0  0  0  0  0  0  0  0  0
    4.3716   -5.5305  -17.7551 H   0  0  0  0  0  0  0  0  0  0  0  0
    5.3973   -4.5300  -18.8385 H   0  0  0  0  0  0  0  0  0  0  0  0
    8.0575   -1.9336  -17.8361 H   0  0  0  0  0  0  0  0  0  0  0  0
    6.8975   -2.8330  -18.8714 H   0  0  0  0  0  0  0  0  0  0  0  0
    5.5295   -4.6376  -15.7771 H   0  0  0  0  0  0  0  0  0  0  0  0
    6.7227   -5.3307  -16.9272 H   0  0  0  0  0  0  0  0  0  0  0  0
    3.6792    3.4939  -18.2618 H   0  0  0  0  0  0  0  0  0  0  0  0
    6.1850    3.4556  -20.0057 H   0  0  0  0  0  0  0  0  0  0  0  0
    5.2200    1.4165  -18.0391 H   0  0  0  0  0  0  0  0  0  0  0  0
    3.5303    5.2645  -16.8765 H   0  0  0  0  0  0  0  0  0  0  0  0
    3.5247    6.3186  -18.1237 H   0  0  0  0  0  0  0  0  0  0  0  0
    3.1948    3.9769  -20.4951 H   0  0  0  0  0  0  0  0  0  0  0  0
  1  7  2  0  0  0  0
  1  8  1  0  0  0  0
  2  7  1  0  0  0  0
  2  9  2  0  0  0  0
  3  8  2  0  0  0  0
  3  9  1  0  0  0  0
  4 10  1  0  0  0  0
  4 11  2  0  0  0  0
  5 10  2  0  0  0  0
  5 12  1  0  0  0  0
  6 11  1  0  0  0  0
  6 12  2  0  0  0  0
  7 13  1  0  0  0  0
  8 14  1  0  0  0  0
  9 20  1  0  0  0  0
 10 24  1  0  0  0  0
 11 39  1  0  0  0  0
 12 40  1  0  0  0  0
 13 33  1  0  0  0  0
 13 36  2  0  0  0  0
 14 34  1  0  0  0  0
 14 37  2  0  0  0  0
 15 17  1  0  0  0  0
 15 18  1  0  0  0  0
 16 18  1  0  0  0  0
 16 19  1  0  0  0  0
 17 35  1  0  0  0  0
 18 25  1  0  0  0  0
 19 31  1  0  0  0  0
 19 35  1  0  0  0  0
 21 26  1  0  0  0  0
 22 27  1  0  0  0  0
 23 28  1  0  0  0  0
 24 32  1  0  0  0  0
 25 26  1  0  0  0  0
 27 29  1  0  0  0  0
 28 30  1  0  0  0  0
 29 34  1  0  0  0  0
 30 34  1  0  0  0  0
 31 32  1  0  0  0  0
 31 38  1  0  0  0  0
 32 33  1  0  0  0  0
  1 41  1  0  0  0  0
  2 42  1  0  0  0  0
  3 43  1  0  0  0  0
  4 44  1  0  0  0  0
  5 45  1  0  0  0  0
  6 46  1  0  0  0  0
 15 47  1  0  0  0  0
 15 48  1  0  0  0  0
 16 49  1  0  0  0  0
 16 50  1  0  0  0  0
 17 51  1  0  0  0  0
 17 52  1  0  0  0  0
 18 53  1  0  0  0  0
 19 54  1  0  0  0  0
 20 55  1  0  0  0  0
 20 56  1  0  0  0  0
 20 57  1  0  0  0  0
 21 58  1  0  0  0  0
 21 59  1  0  0  0  0
 21 60  1  0  0  0  0
 22 61  1  0  0  0  0
 22 62  1  0  0  0  0
 22 63  1  0  0  0  0
 23 64  1  0  0  0  0
 23 65  1  0  0  0  0
 23 66  1  0  0  0  0
 24 67  1  0  0  0  0
 24 68  1  0  0  0  0
 25 69  1  0  0  0  0
 25 70  1  0  0  0  0
 26 71  1  0  0  0  0
 26 72  1  0  0  0  0
 27 73  1  0  0  0  0
 27 74  1  0  0  0  0
 28 75  1  0  0  0  0
 28 76  1  0  0  0  0
 29 77  1  0  0  0  0
 29 78  1  0  0  0  0
 30 79  1  0  0  0  0
 30 80  1  0  0  0  0
 31 81  1  0  0  0  0
 32 82  1  0  0  0  0
 33 83  1  0  0  0  0
 35 84  1  0  0  0  0
 35 85  1  0  0  0  0
 38 86  1  0  0  0  0
M  CHG  1  35   1
M  END
> <OMEGA_C>
1xnbQHy/6LyCAobB5foGQdAVyT8QCn3BJk0CQbRgHL84T2zBUgXZQMdiiD+0NavBSMWfQDRi575B
vKXB123jQAA7rL91WqzB3BvvQIGpnj80VYbBFovmQIhkdr+FGnzBCPcLQR+6KD/xmmzBKmCvQLDx
Wz8/JafBWDHzQMC6Eb0rqq3BJp65QFupxr+MdKjBiCLjQJ2wDUAGpo7BnwjTQEFLE8AXl3vBq/Ku
QGXE/ECTOovBWiPBQKnEv0C46JfBVv6UQIFE3UCZcoTBJGfTQOfx5EBkI5HBCRykQCpookDu5pDB
RJEcQeXKgT+x+1vB4iHDQL3zC0EkuajB3KEYQY88hcBIUIjBTtB6QJODWsC2v43B6LmTQNGcAkCb
HKTBhhTwQKIMAkHzypfBI6TZQOzsE0HVgp7BNxEKQRYZfsD2H5LBoVidQCWPksAFzY7B8tzxQJin
OcD39I/BKRfAQAV+kMC8GYbBHT+MQC80gEC7eZfBqRSrQJfqPED9BZzBbde6QMU2B0AQOZPBQlTX
QFu7TcAwWIbB6wODQBwQvECScYvBpMP7QKhfR0CIL5HB3KTAQDI7KMCOEGvB0eBpQDlelEBL6Z/B
3bsNQWwZKz5/Q7HBI12qQFOzM8CXQ6fBUAXDQPVbkL6v3YvBiPwOQYm9IUCZsH3BYm0GQW/BqL9l
7F/BKMPkQEh2BECWbqzBlgSAQNV6HL9MkqLBOGP3QDBFDMDgVa7BA8GZQF/9BUH7IpHBFdO8QNW4
CkHe/4XB1RuuQFX9zECPiJ7BWb7bQL2+rEB7KZvBO/OpQIxazkBe4XzBMsR1QCZq7kApZIDBWgno
QCWa1kDa+YrBI0a4QOhHkkDB64rBNbcUQcbjvj/9NE7BvcskQVydzD2BrVbBmUkoQSPF2j8m9mLB
MF60QDOUGUHL5KzBK7faQMRJBEGpA67BJz2qQNBJAEE4jqbBKbckQdDVncCFFIrBMKogQTSzTcCC
aobBOOwOQTdwj8BoboHBOCNKQENuX8CgE5TBN4VbQEBrXcDa34XB9ZSOQB9kHcCuio7BlTmMQLTB
J0AgWavB/rlrQFda1j9OfaDBM+gCQagPCkG8JZLBHGoBQTpy8EDlY53B1QjyQCS1H0G03aDB0o7B
QC+1G0FCaJnB9+ETQVT3acBp+5jB/yMCQUeSncBP/5PBKuSLQJT5sMBnCo7Bg7asQAP2kMA7tZbB
sOsAQemA9788sI7BFrjcQBJQNcCv+JbB1PGwQBpnlMAzb3zBWiDXQMWUqsDsaofBvndrQEWbX0BC
GJLBWOvFQGYoXUCtC6DB9gmnQC9QtT8GUJDBYfBhQN12qEANA4fBX5RhQEQyykBF/ZDBondMQK6F
fkAH9qPBKCnbQKB93bwFDYbBVQoHQfgIyT+dHn3Bg3gCQb/sHb+8g2zBdG7ZQGBAhz9aPKvBlg2g
QJgG6r5NxqXBlpvjQO10rb+XaKzBPAXvQHgcnz9BVobBqLLmQLr/dr+0QnzBVo0MQTIaJD++Gm3B
MruvQDIwWj8NMqfBnoPzQCRLPr3qsq3Bjsu5QPx3x78WgKjBfOXiQCUSDkDyoI7BzjHTQLKOE8Az
33vBgAyuQCpq+0C53YrBFhPBQDRSv0APtZfBilSUQDlj20ATM4TBWt7SQEkr5EAYxZDBesCjQHR9
oUA45JDBAXocQU5Egj/O7FvB2srFQHipC0GgrqjBs+d5QK0eVcBTLY3Bq64YQSWrhMB4aYjBOP2T
QOsfAkCfOqTBppDvQE/6AUGpOJfBGiTZQPenE0GSE57BPoabQMvDkMD9rI7BLlIKQZa/fMAuS5LB
cPG/QIpHkMD7Y4bBtvDxQPInOcDaJJDBjBWMQCD2f0AHspfB/B6rQLaPPECNJJzBcrS6QBk9B0A5
RZPBVJHXQDu3TcBEhobBcIWCQJ2dukD5VovBEoz7QCqwR0CWLJHB9ILAQBK8KMC6cmvB8WhrQJX6
lECoK6DBUegNQakZHD6jS7HBuGqqQF/7M8CxTKfBBhjDQBY6j76p6YvBG7kOQUVpIkD9gH3BLFgG
QaaiqL9j8l/BWEblQNjZA0CubqzBuk+AQDg6Hb+9mKLByXX3QIr7DMAvaq7BttKYQJhNBUEqxZDB
HIq7QNYGCkEdkIXBKFquQFPUzEChWZ7BU+fbQM6KrEAe75rB3mWpQIctzEC0hnzBmk90QF4f7EDz
D4DBfVrnQHqY1UBGnIrBXby3QA3KkECr+IrBGQMUQTE6vj/Hb07BZM4kQe4P6j1uUVbBszQoQeUE
3T8thWLBfc+2QDsjGUEk7azBcTzfQL3DBEHOsK3BjIOtQIS8/kAYAafBlt5GQHsKWMBFOpPBvmhd
QAa/V8AKI4XB3eOOQAX+GMARGI7BPO0kQcX1nMCqKorBDYUgQa9oTMBhZIbBcdwOQdtUj8AMnYHB
zp6MQHIWJ0AFfavBMSBsQPFq1T8xo6DBWS4CQeQvCkGkbZHBBqYBQbS78EAbs5zBx/TwQKkQIEFK
8p/B4ju/QC2rGkGUQpnBY0WJQFanrsCZyo3B4XSpQNVGj8Cgv5bBfz8UQROxZ8AcEZnB4pYCQQ35
nMDHSZTBhkmyQDI8lcD5v3zBGWzWQKhaqsCVOYjBisIAQYej9b/M5Y7Bd8HcQJWBNcAxKJfBBOZp
QKoHX0C+fpLB5QnGQIrGXECjIqDBTN2mQM12tT80XZDBYQ9hQF+kpkDu/4bBU4pgQPMNyUCs1JDB
DidOQAJRgEC8YKTBFRbdQNfS1L1PJIbBe6MIQXzPvT8EJH7B/6wDQdVuLr+ezWzB6mvYQEQPiT+l
eKvBt1mhQKax8r5AJaXBtwXlQGiyqr9GBqzBMqrxQJLekz9fsYbB++3nQIycgr9uAnzBoiQOQV6y
ED+U9m3BHnivQKnVVz+YDafBEVHzQIdGh7zA163Bcga8QDTIx7+QsKfBs8DkQKUNCUBq2I7BChTP
QBq/EMCTgnnBg8GsQP2h/UAh4ozBLsvBQHSdvECg3pfBAeSUQNnB30BJOYXBvT/SQPZh5UC3JZLB
rZKkQKANoUCggZDBlBkeQX5Idj+n71zBh9LAQH36H0F0jaLBenGFQBmOUsB1p43BKFwXQRndacBW
iZfB1Y6TQPKfAEBK2aPBprvsQJQTAUGa75nBx2bVQMDHCUHPI6TBxPKgQMAIksCF1YzBs/kDQUyE
Q8BN1ZHBanC8QFU7k8CViILBxd0CQd1zaMCbeIbB22uMQFNxfEDO2ZbBDiarQCIIOkBMtZvB/9e7
QNCBA0CQF5PBbyDbQNUGXsBFp4HBKluDQEGyu0AkW4vB3Q/9QMkaQ0BFcZHB6suuQFVwDcA8am7B
3NxmQBnYkUDnFp/BG34NQRGMUj5sxrHBf2yuQFCnNMCg3aXByPzEQA9Lur6n+YvB9IwQQURIHEBB
4n7BIbcHQZRXsL8SOmDBUhLjQNkYBUD7Bq3BRBeCQHv3Jb8dvKHBZn/5QGTZCsA/9K3B5aGWQFl0
BEHYHpPBgEO5QCOcDEF+ZojB7WivQF82xkDv+p7B53LdQNg3qUAqWJrBaiGrQDy000BzNX7BglV1
QGhP8UAaU4HB8/TnQIkI20CnuIvBWH+4QEqdkUAhXYrBa64VQQ43uj9spE/BhVUmQRCogz2O91bB
fOcpQfHv0z/NzmPBSSGxQKwBJUGLBKrBwu+oQLIdH0FjGpzBfrjZQOWmK0HGZqDBclNlQJtHVMAI
GJXBREhfQKktT8AbwobB32CaQOb1GcCSsY3BPl0YQTnxT8Drs5/BxQAmQcZkWcAQHJPB3qsVQWjw
l8Cq5pfBUauLQKuFJkB2/6rB0NBrQKWt0D9rNKDBMAr4QHv8DkFAWJXBCC8EQYlD70CGqJzBfBy8
QHvC/ECxXqbBOOXsQHDqCkEUq6rB3aOLQDgNrsAD34zBmmC2QFdxk8B7zpPBPKAFQVP/+r/sb5HB
qZbqQLP7U8CGOpbBuN2mQFtGksAFK3fBV63OQDBWscBNc4LBM7kGQYSLlsB1zYbBeLAOQehOR8A1
cIHBsx9uQBnYWkDdQZHB847FQE5iW0AixJ/B1kCoQL0prj8eEJDBbs9kQIk0qUCUY4bBfztgQNJS
x0CmDJHB7SdJQH3KeECT/aLB

> <OMEGA_E>
UINwPrD0az6QkeE+

> <OMEGA_NBR>
      6071

$$$$
50209144
  -OEChem-04172616093D

 93 96  0     1  0  0  0  0  0999 V2000
    5.3929   10.5323  -21.6590 C   0  0  0  0  0  0  0  0  0  0  0  0
    5.8373   10.8528  -20.3609 C   0  0  0  0  0  0  0  0  0  0  0  0
    5.7298    9.2918  -22.2343 C   0  0  0  0  0  0  0  0  0  0  0  0
    6.6480    9.9472  -19.6499 C   0  0  0  0  0  0  0  0  0  0  0  0
    6.5226    8.3775  -21.5177 C   0  0  0  0  0  0  0  0  0  0  0  0
    6.8770   -0.0515  -16.7474 C   0  0  0  0  0  0  0  0  0  0  0  0
    8.5070    1.5222  -15.8377 C   0  0  0  0  0  0  0  0  0  0  0  0
    8.2144   -0.6642  -14.8025 C   0  0  0  0  0  0  0  0  0  0  0  0
    6.7866    1.0581  -21.3656 C   0  0  0  0  0  0  0  0  0  0  0  0
    4.9924   -0.4488  -20.6704 C   0  0  0  0  0  0  0  0  0  0  0  0
    7.0787   -1.3550  -21.5484 C   0  0  0  0  0  0  0  0  0  0  0  0
    7.5164    1.2068  -16.7931 C   0  0  0  0  0  0  0  0  0  0  0  0
    7.2475   -0.9967  -15.7700 C   0  0  0  0  0  0  0  0  0  0  0  0
    6.9932    8.7024  -20.2267 C   0  0  0  0  0  0  0  0  0  0  0  0
    8.8330    0.5992  -14.8251 C   0  0  0  0  0  0  0  0  0  0  0  0
    5.4909    0.8573  -20.8421 C   0  0  0  0  0  0  0  0  0  0  0  0
    7.5850   -0.0487  -21.7033 C   0  0  0  0  0  0  0  0  0  0  0  0
    5.7793   -1.5524  -21.0385 C   0  0  0  0  0  0  0  0  0  0  0  0
    7.1364    2.1827  -17.8234 C   0  0  0  0  0  0  0  0  0  0  0  0
    6.6248   -2.3287  -15.7407 C   0  0  0  0  0  0  0  0  0  0  0  0
    5.4894    7.7750  -17.2091 C   0  0  0  0  0  0  0  0  0  0  0  0
    6.1192    5.8060  -18.6118 C   0  0  0  0  0  0  0  0  0  0  0  0
    4.3871    6.9387  -16.5463 C   0  0  0  0  0  0  0  0  0  0  0  0
    6.6436    6.8309  -17.5919 C   0  0  1  0  0  0  0  0  0  0  0  0
    4.9939    4.9819  -17.9452 C   0  0  2  0  0  0  0  0  0  0  0  0
    9.9052    0.9307  -13.8136 C   0  0  0  0  0  0  0  0  0  0  0  0
    3.8931   -3.3569  -17.6162 C   0  0  0  0  0  0  0  0  0  0  0  0
    9.5359   -4.1772  -17.1104 C   0  0  0  0  0  0  0  0  0  0  0  0
    8.0426    7.8093  -19.5930 C   0  0  0  0  0  0  0  0  0  0  0  0
    4.6297    2.0360  -20.4657 C   0  0  0  0  0  0  0  0  0  0  0  0
    7.9064    7.5901  -18.0689 C   0  0  0  0  0  0  0  0  0  0  0  0
    4.8518   -4.5459  -17.8149 C   0  0  0  0  0  0  0  0  0  0  0  0
    8.6133   -3.9780  -18.3263 C   0  0  0  0  0  0  0  0  0  0  0  0
    5.9964   -4.5275  -16.7876 C   0  0  0  0  0  0  0  0  0  0  0  0
    7.5403   -2.9164  -18.0355 C   0  0  0  0  0  0  0  0  0  0  0  0
    4.3432    3.9844  -18.9140 C   0  0  2  0  0  0  0  0  0  0  0  0
    5.3458    2.9491  -19.4520 C   0  0  1  0  0  0  0  0  0  0  0  0
    5.8483    2.1254  -18.3428 N   0  0  0  0  0  0  0  0  0  0  0  0
    6.7364   -3.2351  -16.8184 N   0  0  0  0  0  0  0  0  0  0  0  0
    3.9192    5.8855  -17.4685 N   0  3  0  0  0  0  0  0  0  0  0  0
    7.9411    3.0317  -18.1902 O   0  0  0  0  0  0  0  0  0  0  0  0
    6.0549   -2.6557  -14.7053 O   0  0  0  0  0  0  0  0  0  0  0  0
    3.7559    4.6972  -20.0038 O   0  0  0  0  0  0  0  0  0  0  0  0
    8.8348    0.1442  -22.1811 F   0  0  0  0  0  0  0  0  0  0  0  0
    5.2863   -2.8027  -20.8986 F   0  0  0  0  0  0  0  0  0  0  0  0
    4.7931   11.2388  -22.2136 H   0  0  0  0  0  0  0  0  0  0  0  0
    5.5562   11.7936  -19.9111 H   0  0  0  0  0  0  0  0  0  0  0  0
    5.3796    9.0427  -23.2251 H   0  0  0  0  0  0  0  0  0  0  0  0
    7.0063   10.2029  -18.6637 H   0  0  0  0  0  0  0  0  0  0  0  0
    6.7726    7.4229  -21.9567 H   0  0  0  0  0  0  0  0  0  0  0  0
    6.1032   -0.2897  -17.4622 H   0  0  0  0  0  0  0  0  0  0  0  0
    9.0160    2.4736  -15.8835 H   0  0  0  0  0  0  0  0  0  0  0  0
    8.4822   -1.3812  -14.0404 H   0  0  0  0  0  0  0  0  0  0  0  0
    7.1638    2.0603  -21.5066 H   0  0  0  0  0  0  0  0  0  0  0  0
    4.0066   -0.6014  -20.2565 H   0  0  0  0  0  0  0  0  0  0  0  0
    7.6867   -2.2052  -21.8204 H   0  0  0  0  0  0  0  0  0  0  0  0
    5.0940    8.2648  -18.1112 H   0  0  0  0  0  0  0  0  0  0  0  0
    5.8511    8.5393  -16.5056 H   0  0  0  0  0  0  0  0  0  0  0  0
    5.7226    6.3300  -19.4939 H   0  0  0  0  0  0  0  0  0  0  0  0
    6.9365    5.1371  -18.9193 H   0  0  0  0  0  0  0  0  0  0  0  0
    4.7853    6.4714  -15.6336 H   0  0  0  0  0  0  0  0  0  0  0  0
    3.5427    7.5934  -16.2847 H   0  0  0  0  0  0  0  0  0  0  0  0
    6.9236    6.2745  -16.6852 H   0  0  0  0  0  0  0  0  0  0  0  0
    5.4165    4.4286  -17.0936 H   0  0  0  0  0  0  0  0  0  0  0  0
    9.4462    1.4071  -12.9347 H   0  0  0  0  0  0  0  0  0  0  0  0
   10.4160    0.0067  -13.5047 H   0  0  0  0  0  0  0  0  0  0  0  0
   10.6346    1.6195  -14.2648 H   0  0  0  0  0  0  0  0  0  0  0  0
    3.0900   -3.4033  -18.3665 H   0  0  0  0  0  0  0  0  0  0  0  0
    3.4558   -3.4032  -16.6079 H   0  0  0  0  0  0  0  0  0  0  0  0
    4.4488   -2.4146  -17.7319 H   0  0  0  0  0  0  0  0  0  0  0  0
   10.2928   -4.9402  -17.3448 H   0  0  0  0  0  0  0  0  0  0  0  0
   10.0355   -3.2272  -16.8698 H   0  0  0  0  0  0  0  0  0  0  0  0
    8.9388   -4.5063  -16.2472 H   0  0  0  0  0  0  0  0  0  0  0  0
    7.9885    6.8254  -20.0819 H   0  0  0  0  0  0  0  0  0  0  0  0
    9.0282    8.2593  -19.7827 H   0  0  0  0  0  0  0  0  0  0  0  0
    4.4002    2.6163  -21.3715 H   0  0  0  0  0  0  0  0  0  0  0  0
    3.6941    1.6684  -20.0189 H   0  0  0  0  0  0  0  0  0  0  0  0
    7.9038    8.5792  -17.5876 H   0  0  0  0  0  0  0  0  0  0  0  0
    8.7857    7.0210  -17.7329 H   0  0  0  0  0  0  0  0  0  0  0  0
    4.2866   -5.4829  -17.7030 H   0  0  0  0  0  0  0  0  0  0  0  0
    5.2795   -4.4943  -18.8271 H   0  0  0  0  0  0  0  0  0  0  0  0
    9.2170   -3.6531  -19.1866 H   0  0  0  0  0  0  0  0  0  0  0  0
    8.1202   -4.9322  -18.5639 H   0  0  0  0  0  0  0  0  0  0  0  0
    5.5764   -4.6751  -15.7817 H   0  0  0  0  0  0  0  0  0  0  0  0
    6.6956   -5.3452  -17.0166 H   0  0  0  0  0  0  0  0  0  0  0  0
    8.0356   -1.9455  -17.8869 H   0  0  0  0  0  0  0  0  0  0  0  0
    6.8625   -2.8538  -18.8996 H   0  0  0  0  0  0  0  0  0  0  0  0
    3.5577    3.4427  -18.3667 H   0  0  0  0  0  0  0  0  0  0  0  0
    6.1770    3.4688  -19.9511 H   0  0  0  0  0  0  0  0  0  0  0  0
    5.2135    1.4726  -17.9295 H   0  0  0  0  0  0  0  0  0  0  0  0
    3.2322    5.3347  -16.9945 H   0  0  0  0  0  0  0  0  0  0  0  0
    3.5026    6.3259  -18.2638 H   0  0  0  0  0  0  0  0  0  0  0  0
    3.3526    4.0817  -20.6047 H   0  0  0  0  0  0  0  0  0  0  0  0
  1  2  1  0  0  0  0
  1  3  2  0  0  0  0
  2  4  2  0  0  0  0
  3  5  1  0  0  0  0
  4 14  1  0  0  0  0
  5 14  2  0  0  0  0
  6 12  1  0  0  0  0
  6 13  2  0  0  0  0
  7 12  2  0  0  0  0
  7 15  1  0  0  0  0
  8 13  1  0  0  0  0
  8 15  2  0  0  0  0
  9 16  1  0  0  0  0
  9 17  2  0  0  0  0
 10 16  2  0  0  0  0
 10 18  1  0  0  0  0
 11 17  1  0  0  0  0
 11 18  2  0  0  0  0
 12 19  1  0  0  0  0
 13 20  1  0  0  0  0
 14 29  1  0  0  0  0
 15 26  1  0  0  0  0
 16 30  1  0  0  0  0
 17 44  1  0  0  0  0
 18 45  1  0  0  0  0
 19 38  1  0  0  0  0
 19 41  2  0  0  0  0
 20 39  1  0  0  0  0
 20 42  2  0  0  0  0
 21 23  1  0  0  0  0
 21 24  1  0  0  0  0
 22 24  1  0  0  0  0
 22 25  1  0  0  0  0
 23 40  1  0  0  0  0
 24 31  1  0  0  0  0
 25 36  1  0  0  0  0
 25 40  1  0  0  0  0
 27 32  1  0  0  0  0
 28 33  1  0  0  0  0
 29 31  1  0  0  0  0
 30 37  1  0  0  0  0
 32 34  1  0  0  0  0
 33 35  1  0  0  0  0
 34 39  1  0  0  0  0
 35 39  1  0  0  0  0
 36 37  1  0  0  0  0
 36 43  1  0  0  0  0
 37 38  1  0  0  0  0
  1 46  1  0  0  0  0
  2 47  1  0  0  0  0
  3 48  1  0  0  0  0
  4 49  1  0  0  0  0
  5 50  1  0  0  0  0
  6 51  1  0  0  0  0
  7 52  1  0  0  0  0
  8 53  1  0  0  0  0
  9 54  1  0  0  0  0
 10 55  1  0  0  0  0
 11 56  1  0  0  0  0
 21 57  1  0  0  0  0
 21 58  1  0  0  0  0
 22 59  1  0  0  0  0
 22 60  1  0  0  0  0
 23 61  1  0  0  0  0
 23 62  1  0  0  0  0
 24 63  1  0  0  0  0
 25 64  1  0  0  0  0
 26 65  1  0  0  0  0
 26 66  1  0  0  0  0
 26 67  1  0  0  0  0
 27 68  1  0  0  0  0
 27 69  1  0  0  0  0
 27 70  1  0  0  0  0
 28 71  1  0  0  0  0
 28 72  1  0  0  0  0
 28 73  1  0  0  0  0
 29 74  1  0  0  0  0
 29 75  1  0  0  0  0
 30 76  1  0  0  0  0
 30 77  1  0  0  0  0
 31 78  1  0  0  0  0
 31 79  1  0  0  0  0
 32 80  1  0  0  0  0
 32 81  1  0  0  0  0
 33 82  1  0  0  0  0
 33 83  1  0  0  0  0
 34 84  1  0  0  0  0
 34 85  1  0  0  0  0
 35 86  1  0  0  0  0
 35 87  1  0  0  0  0
 36 88  1  0  0  0  0
 37 89  1  0  0  0  0
 38 90  1  0  0  0  0
 40 91  1  0  0  0  0
 40 92  1  0  0  0  0
 43 93  1  0  0  0  0
M  CHG  1  40   1
M  END
> <OMEGA_C>
pZKsQFaEKEG1Ra3Bdcu6QDClLUE446LBlFq3QBirFEHM37HBE7zUQIknH0HvMp3BiLnQQBgKBkFH
JKzBGRDcQHoMU72T+oXB2BwIQeDXwj8pZ33BTm4DQfgJKr/i1mzB3ivZQERxhz/Z7KrBdsGfQMDD
5b4NXaXB54TiQDZwrb8GY6zBDIbwQLZ3mj9DWIbBL+vnQH8nf78QUnzBYcjfQBg9C0FY0KHBJ1QN
QRhmGT/DM23BbrWvQBV6Wz+MvKbBarjyQMpaR71IoK3BAvC4QCe2xr/nTqjBXV3kQOSxC0Bplo7B
dv7TQDwKFcAD2nvBc6mvQM3M+EBTrInBpNDDQM/KuUDe5JTB/GKMQC4K3kDnXoTBMpjUQF+W2kBK
vIzBAc6fQKNrn0DSj4/B53seQbdBbj9jBF3BRCh5QL7WVsDv7YzBNZMYQXirhcAK4ojBYa4AQdnl
+UCBvpzBjyaUQGdNAkC2uaPBFgH9QPrh8kA0jZDB20GbQMR3kcADhY7BJtAJQQKYfsBQnJLB2uK/
QOXgkMD4TIbBJErxQFmmOsCsSJDBZvuKQDUAf0DoT5fBcBCrQNO+PEC+nZvBIiW7QNAGCEASvpLB
TZDXQEELT8AIjIbBXtR6QPRVvEB3v4vBkx3+QMwHQkCLhZHB3MHBQDv3KcDlSGvBa2FwQENPlkDT
B6DBVVsNQRiyEz79crHBLimpQLFeM8BnMKfBZmGZQEjSM0FitbHBDMyxQG6yPEHwSZ/BTSWsQNau
EEHzzLnBQDPgQDA/I0EvT5XB7rjYQFOI7UBdp6/BWk3DQD1VlL59sovBu0EQQR9QHkDaIn7BKLcH
QfDJsL+lpWDBlT3lQL/bA0ByDazBCzaAQAXzGb8+DaLBFvn1QHohDcAtkK7B8QGjQIo8BEHF45DB
XDy7QBWhCEFxC4TBzh+3QE6PykB585vBLvjdQFxjpEC1WpfB6iCZQJwVz0BfI3rBYLtiQMr88kD/
RoLB1Y3dQObIyEBfe4XBt1OtQOy2jUCsv4jB1yMXQQgctD+v9E7B8qcmQXL62ztFE1jBJScqQchL
zz/SPGTBo8JFQLPPWcB+7pLBLyxdQH3NWcDy3ITBdFyOQEOJGsD+2o3BOK8kQWMWnsAbworBi5Eg
QbGJTsBv9YbBRwUPQTszkMAy+oHBt6H/QKFp2kCzp6DBnHMQQSQmBEEDQ57BlM6MQEZxJ0Dm+KrB
5mxsQDeP1T+kJqDBOuz8QE1ECUFns4zBYZIMQVGs4EAD3Y3BiCuJQMZzr8DJn43B5fGoQKnRj8DV
nZbBzngTQXDMacARfpnBiuwBQZrUncDVgpTBC3KyQAialcDZgXzBN0LWQA0Mq8AIIojBApIAQZ8H
+b9xGI/B3pnbQPOkNsBnMpfBpbBjQI1VXEAJ75LBzqnFQMQAXkDDm5/BM9WmQLp8vD+Ib4/B8txO
QNy1qkCu9IfBVSpgQM1tykAvHJLBOpFWQH+dgkBo1qTBz3etQH2cKEF9ea3Blv26QFDMLUGpCaPB
A6C4QKzAFEEWArLBiInUQDhWH0FYN53BmZrRQNgoBkHVJazB5L7cQBgIMb3r74XBaZ4IQUkewz9q
c33B97gDQQrnJ7+iuWzBJjfZQC3Rhj8z3KrBYYSfQJTd476RU6XBmiLiQAU7rr8yWazBW1rxQIoh
mz+GVobBf27oQK9rfL+lL3zBjOvfQDtmC0FSwqHBHsYNQT9TGj9AMW3BI7evQIq8Wz8JrqbBTJLy
QChMa706kq3BrYS4QMq1xr8gRqjBXffkQHEQDEBykI7BfP/TQE3SE8DAk3vBrgOvQIr0+EB7m4nB
y6nDQP3+uUDJzJTBZraLQFgS3kBRWoTBKiPUQGjp2kDHn4zBBLSfQPt5n0CMfI/Btu8eQZvCbj/3
/VzB+S4YQUiOhsBr5YjB8F94QHhCWMCZFo3BUqUAQVhV+kCBj5zBQlqUQJ6PAkAZqqPBPH38QAl7
80CMX5DBnzQJQQMEgMDqiJLBrnWbQKjRkcAOcI7BbsrwQGXGOsDoJpDBgku/QOBokMBNA4bBgxiL
QKS6fkCGN5fBoVarQFDgPEBzjJvBHq+7QJYYCEArs5LBDxbXQMM7TsC/YIbBeix6QIg/vEDiu4vB
2pH+QPSiQkAegpHBRI3BQAm6J8Cg/WrBTPZvQJAElkBd65/BUE8NQUD7Az7QYLHBLY6oQDw3M8CX
JqfB/IaaQK/gM0FuALLBa8KxQFrfPEEJgJ/BYQGuQGy7EEEI+7nBy3DfQOx3I0EvSJXBnt/ZQJjA
7UDnm6/BYPrDQCvaj76pp4vB598QQcowHkBgRn7BTuoHQRR2r793eGDBqHXlQMxtA0Al+avBNNp/
QNW5F78iB6LBu3D1QHG2DcDpiK7BWnSiQCtLBEH81pDBdl+6QNm5CEE/9oPBnP62QMSrykCJ35vB
f/bdQBG3pEDoOpfB0VKYQFY7z0BqC3rBCxZhQFPq8kDLUILBRQndQHMpyUCZW4XByjStQJ3vjUD1
pIjBRpwXQZwutT81+k7BrwMnQY4I6Tur+FfBeq4qQeHCzj/7PGTB9wgkQdtvn8BkzYrBL3sgQey5
UMDAF4fBlLwOQZOIkMAe54HBSxNGQC0+XMCfOZPBXAhbQHEYW8DPGIXB2aqNQF2RG8Dq+Y3Bwr7/
QF7I2kB4caDB33AQQfFdBEEmA57BaBiNQBnGJ0Aw6arBS7lsQD6K1j8JGKDBl/37QA2ZCUHAjozB
BVYMQf6N4UCFmI3BqMASQUJWbMB2gZnBDQIBQb5WnsDUUJTBt7KJQNADsMB4lI3BYtmpQEZAkMCS
dZbBi6IAQYON+r//+o7B5fzaQBzhNcCTCJfBPhWxQFJKlMCaCnzBoMnVQOfIqsAWi4fBBUtkQEex
W0BC0ZLB4MzFQId3XkDmjZ/BLISnQLsLvD8xZY/BZTZOQCqKqkAS94fBn6hfQJ46ykAMH5LBymRW
QJE2gkDut6TBUa+rQEPjJ0Egdq3BifC1QM6lE0FEsrHBMG+6QGrFLUGhOKPBQoXPQMNtBUHfxavB
w2DUQHegH0FiUJ3BC//bQAyLlb2MCYbB5xkIQTRJvz8OYn3BO2YDQXS1Mr9cB23B0MHYQCtEhz+i
MqvBe5GfQDGF474SZaXB0szhQMjDrb8Wq6zBz4HwQEijlz/pWYbBMeznQFRgg79PlHzBpDXfQDxm
C0FpnKHBzEgNQYDzED83QG3B1Y2vQOgiXD842qbBUgHyQCSyVr0gAa7BEXq4QBuGxr+JaajBdXXk
QN+WCkAkko7Brq3TQCO0FsBdGXzB1xqvQFKp+EBTgInBhUDEQE3kuUD6vpTBV/+LQIx83UDoR4TB
+W/UQAzw2kDLiozBcSagQHY9n0B9g4/BxlweQYA9ZT+f91zBYGV3QGtyVcDHtozBJ4kYQc2dgsC2
y4jBtJwAQfES+0DibZzBClCUQN2pAkCGxqPBlXX8QEEl9ECxQZDBwNWYQI8VksCzKY7BcawJQWtT
fsD8kZLBbL6+QLCvkcATTYbBq2fvQN8gPcBKkpDBaX6LQKr2fkDfVZfBO3SrQJB2PEDln5vBfk27
QEgvB0C2xZLB2WLWQCGzUMD+s4bBufZ6QELiu0DMuovBhUv+QJfiQEBbeJHBrqvBQKVhK8AOc2vB
T0FyQE6BlkC5E6DBUdsMQea1DD6yBLLBuaKoQHArM8D4NqfBp32YQKXqMkFCEbLBSCqqQPgMD0HL
fLnBAdexQHYiPUGl5p/BETPXQNW/60CwAq/B4/7fQMU4JEEEgpXBGyHDQCbzm76KvovBI0QQQe2A
HEAKCn7BoaoHQWWktb8+5GDB6N3kQM2xA0BUXazBODaAQELiF7999qHBMw31QPdrDcAE6K7B5XOi
QJ8oBEFsuJDBZ0i6QBGTCEG11IPB68a3QDCEykAe2ZvBW6/eQMKrpEAuHpfBb72YQOtyzkDT+nnB
doNhQP8j8kDwLoLB54ndQBM2yUC2SYXBuoetQHJojUAdtIjBTfEWQbr0rj/65k7B54smQenL67wH
D1jBdgkqQcJByz+TFmTB1jtCQBiUWMA2eJLBlapdQHXAVMDyhYTBGFmOQEzMGsDLHI7BXTklQdIb
msBDcIrBc8gfQWxrRsAdKofBkzkPQQf+jMADy4HBhDMAQWuB20ATUaDBiD4QQZUXBUED353BOBGN
QEtAKEAM/qrBMZ5sQCbG1j/VNaDB6G/7QIPrCUHPb4zBCXIMQXKm4kBOd43BG9WFQCc1r8CAzIzB
6FilQBM7ksBZY5bB6BcTQafQacAxjJnBCIkCQaWwnsAWLZTBT4+yQFiflsCORnzB187UQGnOq8Bh
ZIjBB7P9QN5G+r+6vY/BxozZQGGwPcAteJfB9TVkQDN1XEBGB5PBEDDGQC14XUDal5/BLuemQDKN
uj9Kho/BtvJOQFUNqkDmAYjBwo9gQAALykCKGZLBNaJYQGHwgkC67qTB

> <OMEGA_E>
4GgfPQBwOT0Akho9

> <OMEGA_NBR>
     10638

$$$$
50209146
  -OEChem-04172616093D

 96 99  0     1  0  0  0  0  0999 V2000
    6.9256    0.0107  -16.7456 C   0  0  0  0  0  0  0  0  0  0  0  0
    8.5785    1.6158  -15.9406 C   0  0  0  0  0  0  0  0  0  0  0  0
    8.3196   -0.5326  -14.8194 C   0  0  0  0  0  0  0  0  0  0  0  0
    6.7364    1.0527  -21.4398 C   0  0  0  0  0  0  0  0  0  0  0  0
    4.9969   -0.4508  -20.6098 C   0  0  0  0  0  0  0  0  0  0  0  0
    7.0627   -1.3615  -21.5293 C   0  0  0  0  0  0  0  0  0  0  0  0
    7.5607    1.2649  -16.8541 C   0  0  0  0  0  0  0  0  0  0  0  0
    7.3193   -0.8957  -15.7427 C   0  0  0  0  0  0  0  0  0  0  0  0
    8.9376    0.7295  -14.9071 C   0  0  0  0  0  0  0  0  0  0  0  0
    5.4662    0.8536  -20.8608 C   0  0  0  0  0  0  0  0  0  0  0  0
    7.5388   -0.0550  -21.7625 C   0  0  0  0  0  0  0  0  0  0  0  0
    5.7908   -1.5573  -20.9539 C   0  0  0  0  0  0  0  0  0  0  0  0
    7.1559    2.1992  -17.9105 C   0  0  0  0  0  0  0  0  0  0  0  0
    6.6627   -2.2067  -15.6366 C   0  0  0  0  0  0  0  0  0  0  0  0
    5.9126    9.4241  -21.9553 C   0  0  0  0  0  0  0  0  0  0  0  0
    6.3577    8.0286  -21.4816 C   0  0  0  0  0  0  0  0  0  0  0  0
    5.4523   10.2998  -20.7717 C   0  0  0  0  0  0  0  0  0  0  0  0
    7.4634    8.1418  -20.4042 C   0  0  0  0  0  0  0  0  0  0  0  0
    6.5483   10.3920  -19.6857 C   0  0  0  0  0  0  0  0  0  0  0  0
    5.7046    6.9015  -16.2710 C   0  0  0  0  0  0  0  0  0  0  0  0
    6.0890    5.7848  -18.5208 C   0  0  0  0  0  0  0  0  0  0  0  0
    4.1754    6.7978  -16.4584 C   0  0  0  0  0  0  0  0  0  0  0  0
    7.0209    9.0015  -19.1906 C   0  0  0  0  0  0  0  0  0  0  0  0
    6.4012    7.0353  -17.6434 C   0  0  1  0  0  0  0  0  0  0  0  0
    4.8952    4.9635  -17.9649 C   0  0  2  0  0  0  0  0  0  0  0  0
   10.0336    1.1044  -13.9367 C   0  0  0  0  0  0  0  0  0  0  0  0
    3.8513   -3.2410  -17.5601 C   0  0  0  0  0  0  0  0  0  0  0  0
    9.7907   -4.2175  -18.3505 C   0  0  0  0  0  0  0  0  0  0  0  0
    4.6084    2.0342  -20.4997 C   0  0  0  0  0  0  0  0  0  0  0  0
    5.9136    8.3443  -18.3244 C   0  0  0  0  0  0  0  0  0  0  0  0
    4.8016   -4.4453  -17.6910 C   0  0  0  0  0  0  0  0  0  0  0  0
    8.9994   -3.5564  -17.2269 C   0  0  0  0  0  0  0  0  0  0  0  0
    5.9149   -4.3922  -16.6335 C   0  0  0  0  0  0  0  0  0  0  0  0
    7.6696   -3.0121  -17.7774 C   0  0  0  0  0  0  0  0  0  0  0  0
    4.2975    3.9812  -18.9786 C   0  0  2  0  0  0  0  0  0  0  0  0
    5.3224    2.9616  -19.4945 C   0  0  1  0  0  0  0  0  0  0  0  0
    5.8437    2.1592  -18.3742 N   0  0  0  0  0  0  0  0  0  0  0  0
    6.6608   -3.1127  -16.7121 N   0  0  0  0  0  0  0  0  0  0  0  0
    3.8129    5.8862  -17.5673 N   0  3  0  0  0  0  0  0  0  0  0  0
    7.9748    2.9911  -18.3619 O   0  0  0  0  0  0  0  0  0  0  0  0
    6.1416   -2.5006  -14.5667 O   0  0  0  0  0  0  0  0  0  0  0  0
    3.7505    4.7051  -20.0825 O   0  0  0  0  0  0  0  0  0  0  0  0
    8.7661    0.1374  -22.2949 F   0  0  0  0  0  0  0  0  0  0  0  0
    5.3290   -2.8070  -20.7339 F   0  0  0  0  0  0  0  0  0  0  0  0
    6.1360   -0.2551  -17.4328 H   0  0  0  0  0  0  0  0  0  0  0  0
    9.0827    2.5662  -16.0347 H   0  0  0  0  0  0  0  0  0  0  0  0
    8.6129   -1.2237  -14.0430 H   0  0  0  0  0  0  0  0  0  0  0  0
    7.0917    2.0538  -21.6347 H   0  0  0  0  0  0  0  0  0  0  0  0
    4.0292   -0.5996  -20.1540 H   0  0  0  0  0  0  0  0  0  0  0  0
    7.6730   -2.2129  -21.7917 H   0  0  0  0  0  0  0  0  0  0  0  0
    6.7572    9.9176  -22.4584 H   0  0  0  0  0  0  0  0  0  0  0  0
    5.0784    9.3125  -22.6636 H   0  0  0  0  0  0  0  0  0  0  0  0
    5.4925    7.4990  -21.0564 H   0  0  0  0  0  0  0  0  0  0  0  0
    6.7477    7.4633  -22.3409 H   0  0  0  0  0  0  0  0  0  0  0  0
    5.2263   11.3113  -21.1402 H   0  0  0  0  0  0  0  0  0  0  0  0
    4.5461    9.8592  -20.3304 H   0  0  0  0  0  0  0  0  0  0  0  0
    7.7149    7.1317  -20.0487 H   0  0  0  0  0  0  0  0  0  0  0  0
    8.3530    8.6028  -20.8581 H   0  0  0  0  0  0  0  0  0  0  0  0
    7.4127   10.9290  -20.1033 H   0  0  0  0  0  0  0  0  0  0  0  0
    6.1474   10.9528  -18.8284 H   0  0  0  0  0  0  0  0  0  0  0  0
    5.9366    7.7847  -15.6578 H   0  0  0  0  0  0  0  0  0  0  0  0
    6.0709    5.9966  -15.7640 H   0  0  0  0  0  0  0  0  0  0  0  0
    5.8453    6.1189  -19.5401 H   0  0  0  0  0  0  0  0  0  0  0  0
    6.9800    5.1404  -18.5494 H   0  0  0  0  0  0  0  0  0  0  0  0
    3.7284    6.4196  -15.5272 H   0  0  0  0  0  0  0  0  0  0  0  0
    3.7757    7.7990  -16.6768 H   0  0  0  0  0  0  0  0  0  0  0  0
    7.9015    9.1548  -18.5494 H   0  0  0  0  0  0  0  0  0  0  0  0
    7.4885    7.0979  -17.4887 H   0  0  0  0  0  0  0  0  0  0  0  0
    5.2385    4.3992  -17.0853 H   0  0  0  0  0  0  0  0  0  0  0  0
    9.5945    1.6122  -13.0652 H   0  0  0  0  0  0  0  0  0  0  0  0
   10.5570    0.1952  -13.6059 H   0  0  0  0  0  0  0  0  0  0  0  0
   10.7474    1.7785  -14.4326 H   0  0  0  0  0  0  0  0  0  0  0  0
    3.0671   -3.3069  -18.3286 H   0  0  0  0  0  0  0  0  0  0  0  0
    3.3882   -3.2464  -16.5624 H   0  0  0  0  0  0  0  0  0  0  0  0
    4.4198   -2.3091  -17.6954 H   0  0  0  0  0  0  0  0  0  0  0  0
   10.7401   -4.6049  -17.9523 H   0  0  0  0  0  0  0  0  0  0  0  0
    9.2045   -5.0472  -18.7725 H   0  0  0  0  0  0  0  0  0  0  0  0
    9.9980   -3.4775  -19.1374 H   0  0  0  0  0  0  0  0  0  0  0  0
    4.3805    2.6037  -21.4128 H   0  0  0  0  0  0  0  0  0  0  0  0
    3.6720    1.6722  -20.0501 H   0  0  0  0  0  0  0  0  0  0  0  0
    5.6049    9.0558  -17.5444 H   0  0  0  0  0  0  0  0  0  0  0  0
    5.0529    8.1095  -18.9680 H   0  0  0  0  0  0  0  0  0  0  0  0
    4.2255   -5.3730  -17.5592 H   0  0  0  0  0  0  0  0  0  0  0  0
    5.2571   -4.4357  -18.6922 H   0  0  0  0  0  0  0  0  0  0  0  0
    8.7933   -4.2971  -16.4403 H   0  0  0  0  0  0  0  0  0  0  0  0
    9.5868   -2.7274  -16.8052 H   0  0  0  0  0  0  0  0  0  0  0  0
    5.4662   -4.4864  -15.6336 H   0  0  0  0  0  0  0  0  0  0  0  0
    6.6120   -5.2262  -16.8026 H   0  0  0  0  0  0  0  0  0  0  0  0
    7.7922   -1.9609  -18.0773 H   0  0  0  0  0  0  0  0  0  0  0  0
    7.3544   -3.6072  -18.6472 H   0  0  0  0  0  0  0  0  0  0  0  0
    3.4926    3.4251  -18.4757 H   0  0  0  0  0  0  0  0  0  0  0  0
    6.1430    3.4895  -20.0024 H   0  0  0  0  0  0  0  0  0  0  0  0
    5.2081    1.5401  -17.9128 H   0  0  0  0  0  0  0  0  0  0  0  0
    3.0245    5.3414  -17.2815 H   0  0  0  0  0  0  0  0  0  0  0  0
    3.5648    6.4405  -18.3617 H   0  0  0  0  0  0  0  0  0  0  0  0
    3.3805    4.0950  -20.7097 H   0  0  0  0  0  0  0  0  0  0  0  0
  1  7  1  0  0  0  0
  1  8  2  0  0  0  0
  2  7  2  0  0  0  0
  2  9  1  0  0  0  0
  3  8  1  0  0  0  0
  3  9  2  0  0  0  0
  4 10  1  0  0  0  0
  4 11  2  0  0  0  0
  5 10  2  0  0  0  0
  5 12  1  0  0  0  0
  6 11  1  0  0  0  0
  6 12  2  0  0  0  0
  7 13  1  0  0  0  0
  8 14  1  0  0  0  0
  9 26  1  0  0  0  0
 10 29  1  0  0  0  0
 11 43  1  0  0  0  0
 12 44  1  0  0  0  0
 13 37  1  0  0  0  0
 13 40  2  0  0  0  0
 14 38  1  0  0  0  0
 14 41  2  0  0  0  0
 15 16  1  0  0  0  0
 15 17  1  0  0  0  0
 16 18  1  0  0  0  0
 17 19  1  0  0  0  0
 18 23  1  0  0  0  0
 19 23  1  0  0  0  0
 20 22  1  0  0  0  0
 20 24  1  0  0  0  0
 21 24  1  0  0  0  0
 21 25  1  0  0  0  0
 22 39  1  0  0  0  0
 23 30  1  0  0  0  0
 24 30  1  0  0  0  0
 25 35  1  0  0  0  0
 25 39  1  0  0  0  0
 27 31  1  0  0  0  0
 28 32  1  0  0  0  0
 29 36  1  0  0  0  0
 31 33  1  0  0  0  0
 32 34  1  0  0  0  0
 33 38  1  0  0  0  0
 34 38  1  0  0  0  0
 35 36  1  0  0  0  0
 35 42  1  0  0  0  0
 36 37  1  0  0  0  0
  1 45  1  0  0  0  0
  2 46  1  0  0  0  0
  3 47  1  0  0  0  0
  4 48  1  0  0  0  0
  5 49  1  0  0  0  0
  6 50  1  0  0  0  0
 15 51  1  0  0  0  0
 15 52  1  0  0  0  0
 16 53  1  0  0  0  0
 16 54  1  0  0  0  0
 17 55  1  0  0  0  0
 17 56  1  0  0  0  0
 18 57  1  0  0  0  0
 18 58  1  0  0  0  0
 19 59  1  0  0  0  0
 19 60  1  0  0  0  0
 20 61  1  0  0  0  0
 20 62  1  0  0  0  0
 21 63  1  0  0  0  0
 21 64  1  0  0  0  0
 22 65  1  0  0  0  0
 22 66  1  0  0  0  0
 23 67  1  0  0  0  0
 24 68  1  0  0  0  0
 25 69  1  0  0  0  0
 26 70  1  0  0  0  0
 26 71  1  0  0  0  0
 26 72  1  0  0  0  0
 27 73  1  0  0  0  0
 27 74  1  0  0  0  0
 27 75  1  0  0  0  0
 28 76  1  0  0  0  0
 28 77  1  0  0  0  0
 28 78  1  0  0  0  0
 29 79  1  0  0  0  0
 29 80  1  0  0  0  0
 30 81  1  0  0  0  0
 30 82  1  0  0  0  0
 31 83  1  0  0  0  0
 31 84  1  0  0  0  0
 32 85  1  0  0  0  0
 32 86  1  0  0  0  0
 33 87  1  0  0  0  0
 33 88  1  0  0  0  0
 34 89  1  0  0  0  0
 34 90  1  0  0  0  0
 35 91  1  0  0  0  0
 36 92  1  0  0  0  0
 37 93  1  0  0  0  0
 39 94  1  0  0  0  0
 39 95  1  0  0  0  0
 42 96  1  0  0  0  0
M  CHG  1  39   1
M  END
> <OMEGA_C>
uJ7dQGCDLzwD94XBVkEJQUrSzj+yDH/BEx0FQahbCL9CHG3By5DXQCG/hj+shKvB4eafQJPP5r7d
4KTBtAHiQFVErr/wO6zBbPHxQJrpoT9A1YbBdzfqQBBMZb8l4nvBUwAPQXa/Oj9lg27BG+uuQJ+C
Wj/14qbBoD3xQFgVYb2cGa7BTU65QKhUx7+GoafBvfzkQJS/DEDKSI/BMDXVQGA7DcCHL3rBLDS9
QCzJFkGIpK/BU3LLQEV1AEFg2qvBanmuQO3LJEFXLKbBHtTuQNpEAkHYO6PBYIvRQLdFJkE5fJ3B
14u2QLzY3EDzKoLB+9jCQFMduUCnKpTBAJ2FQE2H2UDSqoPBjqvgQAUGEEFUhpnB6dbMQPYg4UC4
JY3BHKWcQNnUnkALuI/BbYkgQW9bjT+m/F7BOHx2QEJtT8AVe4zBkaYcQfn1hsC+zZLBJ3iTQK4v
AkBz/6PBJDy9QCaCBUF0mJLB9aaZQNY/jsAxh43BgP0PQXubY8Cy0InB2Ua9QCaNjMBWEYXBeW31
QALHQMAtOI7BxoSJQGrLfkAk1JfBMVGqQJeLPUCu9JvBf/+6QN4vCkBD/pLBRCXVQDs3R8BQsoXB
LAd0QGdbvEDXiYzB1zH/QIBtP0Ar5ZLBp4fEQFIKIMBbEWnBIAhwQBaQlkD1qKDB8kEMQdi3DD7h
W7LBK4eqQEalM8AK36XBTFrEQF6Zgr51dovBrFIRQbk8JEAoR4DBkc4JQY6hnL8JsGDBXe/iQHZx
A0DME63Bau+AQCSBGb9MO6HBlYn1QOygDcBbVa7BUDvYQGquHkHeqrPBfIKiQOb/FEEYT7XBOMKv
QGn370CVc6jBHO3XQEzT7kAcurLBcT2nQPX6NEEJH6nBnHmRQGO/HUHBpKLBXuD2QNI25ECwY6DB
/KUFQT2lCUFk3abBxDTtQErdLkF406DBt7fEQK4+L0GboJbB6fi9QG0c+UBOhnrB00TCQCvkv0BD
OXzB1Qy7QBXOw0A5UpzB2lvfQMd9pEASZZTBUJ1uQAZtzUCJb3jBUqVxQMaR+UAGaoXB09j8QBV6
EkEcZZTBzaHvQBwi40Dt6IvB/qGnQCrGjECnrojBN4MZQS5bzj9AC1HBY+koQa3eRz6isVnBW/Ur
QZKm4z/a62bBa0tEQE+kU8ALoZLBf9dYQPbET8DDf4TBMW+NQHTIE8BDkI3BYdcrQTpbk8A9no/B
xUUTQVSCocAtLpbB0PcfQdCOXsB2GZnBYy2MQP+iJkBrTavBxgJrQCAJ1j+hZqDBGVuzQHDkEEHu
WozBs7GhQJTAAUF3vpfB6DaHQJnvq8AveYzBWTqoQFjxjcCviZXBVbEMQRaCicCshYPBYGMZQVSO
LsD0cIbBQeuuQKeQj8ANI3rBa5XTQNI8p8Cwa4bBY1n5QGH/+r8+npDBNVfrQOfbZsCQLZXBPIZf
QK80W0AnzpPBY5PEQHFUX0DoBKDBJqmmQEcjxT9STY/BipFBQA7tqkCbQIrBRyVkQOoYzkDG5JLB
rFpYQGIKg0CQraXB

> <OMEGA_E>
cHt+Pg==

> <OMEGA_NBR>
     12521

$$$$
248242
  -OEChem-04172616093D

 82 86  0     1  0  0  0  0  0999 V2000
    7.2062   -1.3079  -21.5940 C   0  0  0  0  0  0  0  0  0  0  0  0
    5.1811   10.5271  -21.9233 C   0  0  0  0  0  0  0  0  0  0  0  0
    7.6103    0.0144  -21.8681 C   0  0  0  0  0  0  0  0  0  0  0  0
    5.9758   -1.5536  -20.9521 C   0  0  0  0  0  0  0  0  0  0  0  0
    5.3621    9.1383  -22.0841 C   0  0  0  0  0  0  0  0  0  0  0  0
    5.6001   11.1606  -20.7364 C   0  0  0  0  0  0  0  0  0  0  0  0
    8.8050    0.2230  -14.8475 C   0  0  0  0  0  0  0  0  0  0  0  0
    8.5528    1.2026  -15.8309 C   0  0  0  0  0  0  0  0  0  0  0  0
    8.0351   -0.9602  -14.8131 C   0  0  0  0  0  0  0  0  0  0  0  0
    6.7828    1.0919  -21.5018 C   0  0  0  0  0  0  0  0  0  0  0  0
    5.1511   -0.4777  -20.5767 C   0  0  0  0  0  0  0  0  0  0  0  0
    5.9743    8.3839  -21.0632 C   0  0  0  0  0  0  0  0  0  0  0  0
    6.2072   10.4083  -19.7137 C   0  0  0  0  0  0  0  0  0  0  0  0
    6.7885   -0.2033  -16.7634 C   0  0  0  0  0  0  0  0  0  0  0  0
    9.3560   -4.4395  -17.9644 C   0  0  0  0  0  0  0  0  0  0  0  0
    7.5257    0.9984  -16.7830 C   0  0  0  0  0  0  0  0  0  0  0  0
    7.0300   -1.1808  -15.7855 C   0  0  0  0  0  0  0  0  0  0  0  0
    5.5516    0.8460  -20.8539 C   0  0  0  0  0  0  0  0  0  0  0  0
    6.4089    9.0216  -19.8782 C   0  0  0  0  0  0  0  0  0  0  0  0
    8.2605   -4.0309  -17.2485 C   0  0  0  0  0  0  0  0  0  0  0  0
    9.6403   -4.5356  -15.4981 C   0  0  0  0  0  0  0  0  0  0  0  0
    6.1114    5.9366  -18.5420 C   0  0  0  0  0  0  0  0  0  0  0  0
    7.1759    2.0297  -17.7780 C   0  0  0  0  0  0  0  0  0  0  0  0
    6.1670   -2.3861  -15.7590 C   0  0  0  0  0  0  0  0  0  0  0  0
    5.0255    7.8568  -17.3746 C   0  0  0  0  0  0  0  0  0  0  0  0
    4.4192    6.8190  -16.4312 C   0  0  0  0  0  0  0  0  0  0  0  0
    5.1062    4.9429  -17.8731 C   0  0  2  0  0  0  0  0  0  0  0  0
   10.0826   -4.5952  -14.0552 C   0  0  0  0  0  0  0  0  0  0  0  0
    4.9645   -4.2552  -16.9014 C   0  0  0  0  0  0  0  0  0  0  0  0
    4.6755    1.9982  -20.4251 C   0  0  0  0  0  0  0  0  0  0  0  0
    7.0865    8.2341  -18.7755 C   0  0  0  0  0  0  0  0  0  0  0  0
    7.0798   -3.3226  -17.8850 C   0  0  0  0  0  0  0  0  0  0  0  0
    4.4441    3.9664  -18.8692 C   0  0  2  0  0  0  0  0  0  0  0  0
    5.4091    2.8829  -19.3979 C   0  0  1  0  0  0  0  0  0  0  0  0
    8.4424   -4.1665  -15.8664 N   0  0  0  0  0  0  0  0  0  0  0  0
    6.1417    7.2851  -18.1526 N   0  0  0  0  0  0  0  0  0  0  0  0
    5.8770    2.0416  -18.2854 N   0  0  0  0  0  0  0  0  0  0  0  0
    5.9748   -3.1808  -16.9127 N   0  0  0  0  0  0  0  0  0  0  0  0
    3.9853    5.6706  -17.2332 N   0  3  0  0  0  0  0  0  0  0  0  0
    6.9660    5.5113  -19.3111 O   0  0  0  0  0  0  0  0  0  0  0  0
    8.0110    2.8498  -18.1429 O   0  0  0  0  0  0  0  0  0  0  0  0
    5.6550   -2.7149  -14.6945 O   0  0  0  0  0  0  0  0  0  0  0  0
    3.8899    4.7169  -19.9507 O   0  0  0  0  0  0  0  0  0  0  0  0
   10.6367   -4.8867  -16.8827 S   0  0  0  0  0  0  0  0  0  0  0  0
    7.8410   -2.1347  -21.8765 H   0  0  0  0  0  0  0  0  0  0  0  0
    4.7210   11.1060  -22.7104 H   0  0  0  0  0  0  0  0  0  0  0  0
    8.5542    0.2004  -22.3588 H   0  0  0  0  0  0  0  0  0  0  0  0
    5.6661   -2.5680  -20.7484 H   0  0  0  0  0  0  0  0  0  0  0  0
    5.0314    8.6522  -22.9901 H   0  0  0  0  0  0  0  0  0  0  0  0
    5.4553   12.2236  -20.6116 H   0  0  0  0  0  0  0  0  0  0  0  0
    9.5880    0.3782  -14.1199 H   0  0  0  0  0  0  0  0  0  0  0  0
    9.1427    2.1069  -15.8572 H   0  0  0  0  0  0  0  0  0  0  0  0
    8.2131   -1.6976  -14.0444 H   0  0  0  0  0  0  0  0  0  0  0  0
    7.0884    2.1055  -21.7156 H   0  0  0  0  0  0  0  0  0  0  0  0
    4.2122   -0.6650  -20.0769 H   0  0  0  0  0  0  0  0  0  0  0  0
    6.1115    7.3197  -21.1857 H   0  0  0  0  0  0  0  0  0  0  0  0
    6.5194   10.8936  -18.8008 H   0  0  0  0  0  0  0  0  0  0  0  0
    6.0278   -0.3739  -17.5108 H   0  0  0  0  0  0  0  0  0  0  0  0
    9.4132   -4.4775  -19.0422 H   0  0  0  0  0  0  0  0  0  0  0  0
    4.2477    8.2083  -18.0686 H   0  0  0  0  0  0  0  0  0  0  0  0
    5.3989    8.7052  -16.7823 H   0  0  0  0  0  0  0  0  0  0  0  0
    5.1728    6.4975  -15.6972 H   0  0  0  0  0  0  0  0  0  0  0  0
    3.5564    7.2531  -15.9047 H   0  0  0  0  0  0  0  0  0  0  0  0
    5.6468    4.3593  -17.1135 H   0  0  0  0  0  0  0  0  0  0  0  0
    9.2521   -4.2860  -13.4036 H   0  0  0  0  0  0  0  0  0  0  0  0
   10.3810   -5.6240  -13.8055 H   0  0  0  0  0  0  0  0  0  0  0  0
   10.9372   -3.9190  -13.9056 H   0  0  0  0  0  0  0  0  0  0  0  0
    4.9567   -4.7621  -17.8776 H   0  0  0  0  0  0  0  0  0  0  0  0
    5.2109   -4.9817  -16.1131 H   0  0  0  0  0  0  0  0  0  0  0  0
    3.9722   -3.8232  -16.7047 H   0  0  0  0  0  0  0  0  0  0  0  0
    4.4182    2.6043  -21.3062 H   0  0  0  0  0  0  0  0  0  0  0  0
    3.7551    1.6031  -19.9703 H   0  0  0  0  0  0  0  0  0  0  0  0
    7.9329    7.6742  -19.1999 H   0  0  0  0  0  0  0  0  0  0  0  0
    7.4555    8.9312  -18.0089 H   0  0  0  0  0  0  0  0  0  0  0  0
    7.3956   -2.3243  -18.2222 H   0  0  0  0  0  0  0  0  0  0  0  0
    6.7295   -3.9074  -18.7483 H   0  0  0  0  0  0  0  0  0  0  0  0
    3.6302    3.4526  -18.3367 H   0  0  0  0  0  0  0  0  0  0  0  0
    6.2644    3.3709  -19.8881 H   0  0  0  0  0  0  0  0  0  0  0  0
    5.2107    1.4298  -17.8591 H   0  0  0  0  0  0  0  0  0  0  0  0
    3.4939    5.0354  -16.6374 H   0  0  0  0  0  0  0  0  0  0  0  0
    3.3701    5.9989  -17.9500 H   0  0  0  0  0  0  0  0  0  0  0  0
    3.4796    4.1249  -20.5701 H   0  0  0  0  0  0  0  0  0  0  0  0
  1  3  1  0  0  0  0
  1  4  2  0  0  0  0
  2  5  1  0  0  0  0
  2  6  2  0  0  0  0
  3 10  2  0  0  0  0
  4 11  1  0  0  0  0
  5 12  2  0  0  0  0
  6 13  1  0  0  0  0
  7  8  1  0  0  0  0
  7  9  2  0  0  0  0
  8 16  2  0  0  0  0
  9 17  1  0  0  0  0
 10 18  1  0  0  0  0
 11 18  2  0  0  0  0
 12 19  1  0  0  0  0
 13 19  2  0  0  0  0
 14 16  1  0  0  0  0
 14 17  2  0  0  0  0
 15 20  2  0  0  0  0
 15 44  1  0  0  0  0
 16 23  1  0  0  0  0
 17 24  1  0  0  0  0
 18 30  1  0  0  0  0
 19 31  1  0  0  0  0
 20 32  1  0  0  0  0
 20 35  1  0  0  0  0
 21 28  1  0  0  0  0
 21 35  2  0  0  0  0
 21 44  1  0  0  0  0
 22 27  1  0  0  0  0
 22 36  1  0  0  0  0
 22 40  2  0  0  0  0
 23 37  1  0  0  0  0
 23 41  2  0  0  0  0
 24 38  1  0  0  0  0
 24 42  2  0  0  0  0
 25 26  1  0  0  0  0
 25 36  1  0  0  0  0
 26 39  1  0  0  0  0
 27 33  1  0  0  0  0
 27 39  1  0  0  0  0
 29 38  1  0  0  0  0
 30 34  1  0  0  0  0
 31 36  1  0  0  0  0
 32 38  1  0  0  0  0
 33 34  1  0  0  0  0
 33 43  1  0  0  0  0
 34 37  1  0  0  0  0
  1 45  1  0  0  0  0
  2 46  1  0  0  0  0
  3 47  1  0  0  0  0
  4 48  1  0  0  0  0
  5 49  1  0  0  0  0
  6 50  1  0  0  0  0
  7 51  1  0  0  0  0
  8 52  1  0  0  0  0
  9 53  1  0  0  0  0
 10 54  1  0  0  0  0
 11 55  1  0  0  0  0
 12 56  1  0  0  0  0
 13 57  1  0  0  0  0
 14 58  1  0  0  0  0
 15 59  1  0  0  0  0
 25 60  1  0  0  0  0
 25 61  1  0  0  0  0
 26 62  1  0  0  0  0
 26 63  1  0  0  0  0
 27 64  1  0  0  0  0
 28 65  1  0  0  0  0
 28 66  1  0  0  0  0
 28 67  1  0  0  0  0
 29 68  1  0  0  0  0
 29 69  1  0  0  0  0
 29 70  1  0  0  0  0
 30 71  1  0  0  0  0
 30 72  1  0  0  0  0
 31 73  1  0  0  0  0
 31 74  1  0  0  0  0
 32 75  1  0  0  0  0
 32 76  1  0  0  0  0
 33 77  1  0  0  0  0
 34 78  1  0  0  0  0
 37 79  1  0  0  0  0
 39 80  1  0  0  0  0
 39 81  1  0  0  0  0
 43 82  1  0  0  0  0
M  CHG  1  39   1
M  END
> <OMEGA_C>
GJnmQLVnp7+BwKzB+8ulQDFvKEHVYq/BN4fzQASNbDzW8a7BWjm/QFPcxr/nnafBSparQHs2EkFF
rLDB4DOzQOWRMkEy5KXBcOEMQZdZZD4xj23Bc9gIQWvvmT9yS33BqI8AQYvPdb+iAm3BoAzZQLzD
iz+oA6zBnNWkQD6a9L4knaTBnC2/QG8kBkFjgajBDaHGQHGIJkGqtZ3BLTvZQEgqUL5yG4bBFLIV
Qa4QjsAot4/BP9LwQCiafz+TQ4bBt/XgQGMll7+WkXzBeKaxQI+QWD+01KbBYxXNQHdYEEGWBp/B
MCsEQSP9gMDe/InBpz4aQQYkkcAP+HfB7ZDDQHP4vUDuVZTByaDlQPTmAUBgOY7BcFjFQB+1GMDX
JHzB6tCgQExr+0BD/4rB/2mNQHo12kAFc4PBImajQGQsnkAt/I7BMVIhQacLk8A34mDBRN2eQJoq
iMAWNofB052VQKLE/z+TZqPBlMTiQN2+A0FINJbB+o3iQPGkVMCUFI/BWDaOQCHZfUAQ9JbBKhet
QPaAOED0LpvB5xMHQS5UhcDq3H3BjYjEQCIf6UCOOJHBBxC8QOipAkB1SJLBhTG/QKqRS8AvTYfB
2w5/QOh1tUCQ3YnBSuneQEBcsEA3fZrBNC0AQVVjNkC4JJHBDPa0QKLBLcDHHGvBvvN4QOnwlkAU
m5/B3C8qQcNfnMDZD4fBTen6QD6eCMApA6/BvBKXQF2yMUHfrrXB6t0IQXc0TT7i3rLBglC1QDla
JMDN/KXBXQGhQJlvCkG467fBvJGuQLiTQ0GM5KTBZGgZQcWnwT4+62HBcUgSQRXYBkA5t33Bs2gD
QZVJ2b+3tWDB6NPiQBLABkCKua3BjcqGQClAKr9knaDBKZHDQL866kBcfKnB057QQApMLkH7Z5bB
hePAQPtwv74lFozBl5wWQY1Hj8CFVpjBgu2HQC9VA0F7jJDBmMOsQHFIC0ERQobBNoelQDTrz0Ck
J3vBGpxjQIAZ6ECfeX7B1rK0QAJ/i0Bo6IjBeAgUQeMmicDydFbBixgmQST4s8BC41zBq/4uQT3Q
esBxfV7BBp2eQC1jmMBdBY/BuL+mQHhqn8Ck54DBXDh+QFivdMBPo4XBvWGNQIutJkAXc6rBJVRw
QKsyzT82w5/Ba9r9QEKT9UB5mZnBypPuQGbmDkEjEpDBYajsQJrAFMAhx5HBzVfXQCISesCY/JXB
hFRoQJ33XEChsZLB4XXIQAC9V0DOGp/Bwr2mQG4Ctz+D347BtJxfQLQhoUBSGYXBf69XQNf2v0CP
mY/B/7BeQOf+g0CNj6TBtYniQHsKr79n3qzB9aOuQGV0KUEuJa7BcgnwQK7kS71oA6/BDh+7QNim
zL++tqfBwgezQLI0E0EVoK/B4a67QFv4MkGHdaTBDzkNQXNFyj6tCG3BQmEIQXOzqz9hEH3BHv8B
QTAZVL+nLmzBABHWQBW/hD9VBqzB2UWhQI+RA78Ao6TBkcLEQEJ6BkHRcqfBjT7NQB1FJkEtQ5zB
Q9vZQJKKGr6skoXBs/wVQZWbYcBTSIfBJhLwQIQ6iT/mD4bBiQLkQCJdjr/diXvBDKuuQBQZTj9w
zabBaRHSQGIFEEECv53B+9EDQdIXgMC+I4zBLDMSQZSkv8AIAofBiWLCQN7SvEAR/JPBrHDkQGnh
AkCFbo7BR3zLQN0hGMBtCnvB/gSgQGJk+kCRn4rBOyWKQCYu2UCFgYPBpuagQFhxnUDRCo/BG9sT
QQdd78DHbIXBpfejQLb4hsCptYbBxBmTQD2V+z8AWKPBmNfkQPCWAkGi0pTBu07jQMMcSMB8tY/B
UnmMQHaafUCwRZfB9CyrQG5SN0AlVJvBQ3oCQWagrMCzEozBX2nEQNd450A+fZDBTY+6QDH6AkCM
TpLBsiXDQALaRsAp+obBB055QGRGtUDyQ4rBfb/dQJAir0AdH5rBy4v/QDbRM0AoBJLBX2K7QOYb
LsCzAWrBTEh5QE1ql0AzDaDBa8gkQaHUmsAuMILBQ3H2QKLpDMBELq/BgkShQCc4M0HecLTBLyUH
QVmVAD6G8rLBt8KwQAIIJ8AyIKbBw8yoQELqC0GCB7fB/DO4QBIDREEqU6PB5IkZQeN1Gz/nZWHB
DyURQaxWEUB/1n3BmZ0FQc4dxr+Dz1/BNDzgQIwGA0BwuK3BtDODQITTML+/nqDBCTDIQK3e6kD1
lqjBdQvXQGyRLUHs0pTBHa/AQJXxtL5aRIvBJGAaQZHmHsCkuobBDKKIQJ1qA0Efa5DBisqrQN1j
CkH2mIXBA7GgQG/PzUDuv3rBqB9cQH6I50AzMn/BidewQMdPikCc0ojBHv4FQYQk/8DYJInBoaki
QXUm+8DUKInBMyAUQayd9sAroXnBdYWhQGZslcDctY7BbrOuQGFMn8Bx8YDBa3eEQAhOdcD0RYTB
2l6KQE7jI0AvaqrBEc9rQBoUyj8ihp/BPP3/QCWe8kD19ZfBoArwQGoxDUGdYY7B+gHvQObcBsDT
PpHBRefUQEEpYsBvDJfByuBiQE+BXUCVUJPBc2jGQKirVUBDap/BAGelQHxPuT/UsI7BgPdWQA0F
oUD1zIXBSNVUQPCzwECfL5DBT/VfQO/fhEDwLKXB

> <OMEGA_E>
NPHKPpjiwz4=

> <OMEGA_NBR>
      2886

$$$$
50147863
  -OEChem-04172616093D

 88 91  0     1  0  0  0  0  0999 V2000
    5.4268   10.4544  -21.9708 C   0  0  0  0  0  0  0  0  0  0  0  0
    5.5356    9.0521  -22.0607 C   0  0  0  0  0  0  0  0  0  0  0  0
    5.8639   11.1235  -20.8105 C   0  0  0  0  0  0  0  0  0  0  0  0
    6.0868    8.3186  -20.9919 C   0  0  0  0  0  0  0  0  0  0  0  0
    6.4126   10.3926  -19.7406 C   0  0  0  0  0  0  0  0  0  0  0  0
    6.7931   -0.1499  -16.7015 C   0  0  0  0  0  0  0  0  0  0  0  0
    8.4049    1.4091  -15.7407 C   0  0  0  0  0  0  0  0  0  0  0  0
    8.0672   -0.7774  -14.7168 C   0  0  0  0  0  0  0  0  0  0  0  0
    6.8373    1.0968  -21.3677 C   0  0  0  0  0  0  0  0  0  0  0  0
    5.0288   -0.4174  -20.7292 C   0  0  0  0  0  0  0  0  0  0  0  0
    7.1338   -1.3128  -21.5741 C   0  0  0  0  0  0  0  0  0  0  0  0
    7.4382    1.1042  -16.7238 C   0  0  0  0  0  0  0  0  0  0  0  0
    7.1285   -1.0990  -15.7153 C   0  0  0  0  0  0  0  0  0  0  0  0
    6.5296    8.9897  -19.8276 C   0  0  0  0  0  0  0  0  0  0  0  0
    8.6970    0.4814  -14.7212 C   0  0  0  0  0  0  0  0  0  0  0  0
    5.5310    0.8897  -20.8696 C   0  0  0  0  0  0  0  0  0  0  0  0
    7.6411   -0.0058  -21.7079 C   0  0  0  0  0  0  0  0  0  0  0  0
    5.8248   -1.5146  -21.0945 C   0  0  0  0  0  0  0  0  0  0  0  0
    6.1035    5.9415  -18.4868 C   0  0  0  0  0  0  0  0  0  0  0  0
    7.0996    2.0835  -17.7664 C   0  0  0  0  0  0  0  0  0  0  0  0
    6.5240   -2.4370  -15.7453 C   0  0  0  0  0  0  0  0  0  0  0  0
    4.9723    7.8721  -17.3889 C   0  0  0  0  0  0  0  0  0  0  0  0
    4.3204    6.8455  -16.4637 C   0  0  0  0  0  0  0  0  0  0  0  0
    5.0546    4.9583  -17.8716 C   0  0  2  0  0  0  0  0  0  0  0  0
    9.7488    0.8020  -13.6847 C   0  0  0  0  0  0  0  0  0  0  0  0
    3.5305   -3.6501  -17.3811 C   0  0  0  0  0  0  0  0  0  0  0  0
    9.4434   -4.4149  -17.0484 C   0  0  0  0  0  0  0  0  0  0  0  0
    4.6665    2.0604  -20.4740 C   0  0  0  0  0  0  0  0  0  0  0  0
    7.1209    8.2226  -18.6631 C   0  0  0  0  0  0  0  0  0  0  0  0
    4.7372   -4.3668  -17.9857 C   0  0  0  0  0  0  0  0  0  0  0  0
    8.6178   -4.0578  -18.2977 C   0  0  0  0  0  0  0  0  0  0  0  0
    5.8774   -4.5318  -16.9676 C   0  0  0  0  0  0  0  0  0  0  0  0
    7.6040   -2.9432  -17.9844 C   0  0  0  0  0  0  0  0  0  0  0  0
    4.4132    4.0092  -18.9052 C   0  0  2  0  0  0  0  0  0  0  0  0
    5.3784    2.9254  -19.4217 C   0  0  1  0  0  0  0  0  0  0  0  0
    6.1279    7.2882  -18.0957 N   0  0  0  0  0  0  0  0  0  0  0  0
    5.8186    2.0696  -18.3080 N   0  0  0  0  0  0  0  0  0  0  0  0
    6.6878   -3.2932  -16.8535 N   0  0  0  0  0  0  0  0  0  0  0  0
    3.9155    5.6927  -17.2731 N   0  3  0  0  0  0  0  0  0  0  0  0
    6.9871    5.5115  -19.2196 O   0  0  0  0  0  0  0  0  0  0  0  0
    7.9369    2.9016  -18.1315 O   0  0  0  0  0  0  0  0  0  0  0  0
    5.8907   -2.7973  -14.7590 O   0  0  0  0  0  0  0  0  0  0  0  0
    3.9054    4.7861  -19.9908 O   0  0  0  0  0  0  0  0  0  0  0  0
    8.8960    0.1910  -22.1705 F   0  0  0  0  0  0  0  0  0  0  0  0
    5.3272   -2.7637  -20.9947 F   0  0  0  0  0  0  0  0  0  0  0  0
    5.0078   11.0167  -22.7923 H   0  0  0  0  0  0  0  0  0  0  0  0
    5.1964    8.5399  -22.9490 H   0  0  0  0  0  0  0  0  0  0  0  0
    5.7779   12.1979  -20.7422 H   0  0  0  0  0  0  0  0  0  0  0  0
    6.1713    7.2441  -21.0610 H   0  0  0  0  0  0  0  0  0  0  0  0
    6.7447   10.9068  -18.8508 H   0  0  0  0  0  0  0  0  0  0  0  0
    6.0414   -0.3831  -17.4410 H   0  0  0  0  0  0  0  0  0  0  0  0
    8.9222    2.3567  -15.7703 H   0  0  0  0  0  0  0  0  0  0  0  0
    8.3043   -1.4968  -13.9469 H   0  0  0  0  0  0  0  0  0  0  0  0
    7.2177    2.1005  -21.4870 H   0  0  0  0  0  0  0  0  0  0  0  0
    4.0334   -0.5760  -20.3414 H   0  0  0  0  0  0  0  0  0  0  0  0
    7.7484   -2.1604  -21.8393 H   0  0  0  0  0  0  0  0  0  0  0  0
    4.2320    8.2110  -18.1286 H   0  0  0  0  0  0  0  0  0  0  0  0
    5.3125    8.7304  -16.7910 H   0  0  0  0  0  0  0  0  0  0  0  0
    5.0400    6.5268  -15.6952 H   0  0  0  0  0  0  0  0  0  0  0  0
    3.4381    7.2885  -15.9787 H   0  0  0  0  0  0  0  0  0  0  0  0
    5.5523    4.3553  -17.0979 H   0  0  0  0  0  0  0  0  0  0  0  0
    9.2741    1.2814  -12.8159 H   0  0  0  0  0  0  0  0  0  0  0  0
   10.2440   -0.1270  -13.3655 H   0  0  0  0  0  0  0  0  0  0  0  0
   10.4945    1.4847  -14.1181 H   0  0  0  0  0  0  0  0  0  0  0  0
    2.7416   -3.5540  -18.1416 H   0  0  0  0  0  0  0  0  0  0  0  0
    3.1488   -4.2306  -16.5283 H   0  0  0  0  0  0  0  0  0  0  0  0
    3.8326   -2.6496  -17.0379 H   0  0  0  0  0  0  0  0  0  0  0  0
   10.1594   -5.2121  -17.2970 H   0  0  0  0  0  0  0  0  0  0  0  0
    9.9907   -3.5251  -16.7040 H   0  0  0  0  0  0  0  0  0  0  0  0
    8.7700   -4.7626  -16.2511 H   0  0  0  0  0  0  0  0  0  0  0  0
    4.4570    2.6724  -21.3637 H   0  0  0  0  0  0  0  0  0  0  0  0
    3.7206    1.6865  -20.0552 H   0  0  0  0  0  0  0  0  0  0  0  0
    7.9946    7.6528  -19.0124 H   0  0  0  0  0  0  0  0  0  0  0  0
    7.4341    8.9334  -17.8843 H   0  0  0  0  0  0  0  0  0  0  0  0
    4.4226   -5.3626  -18.3313 H   0  0  0  0  0  0  0  0  0  0  0  0
    5.1064   -3.7816  -18.8408 H   0  0  0  0  0  0  0  0  0  0  0  0
    9.2967   -3.7145  -19.0923 H   0  0  0  0  0  0  0  0  0  0  0  0
    8.0760   -4.9521  -18.6393 H   0  0  0  0  0  0  0  0  0  0  0  0
    5.4466   -4.7691  -15.9837 H   0  0  0  0  0  0  0  0  0  0  0  0
    6.5290   -5.3568  -17.2912 H   0  0  0  0  0  0  0  0  0  0  0  0
    8.1567   -2.0298  -17.7193 H   0  0  0  0  0  0  0  0  0  0  0  0
    6.9976   -2.7569  -18.8831 H   0  0  0  0  0  0  0  0  0  0  0  0
    3.5752    3.4976  -18.4092 H   0  0  0  0  0  0  0  0  0  0  0  0
    6.2482    3.4126  -19.8864 H   0  0  0  0  0  0  0  0  0  0  0  0
    5.1524    1.4362  -17.9145 H   0  0  0  0  0  0  0  0  0  0  0  0
    3.4037    5.0615  -16.6903 H   0  0  0  0  0  0  0  0  0  0  0  0
    3.3251    6.0170  -18.0121 H   0  0  0  0  0  0  0  0  0  0  0  0
    3.5078    4.2107  -20.6337 H   0  0  0  0  0  0  0  0  0  0  0  0
  1  2  1  0  0  0  0
  1  3  2  0  0  0  0
  2  4  2  0  0  0  0
  3  5  1  0  0  0  0
  4 14  1  0  0  0  0
  5 14  2  0  0  0  0
  6 12  1  0  0  0  0
  6 13  2  0  0  0  0
  7 12  2  0  0  0  0
  7 15  1  0  0  0  0
  8 13  1  0  0  0  0
  8 15  2  0  0  0  0
  9 16  1  0  0  0  0
  9 17  2  0  0  0  0
 10 16  2  0  0  0  0
 10 18  1  0  0  0  0
 11 17  1  0  0  0  0
 11 18  2  0  0  0  0
 12 20  1  0  0  0  0
 13 21  1  0  0  0  0
 14 29  1  0  0  0  0
 15 25  1  0  0  0  0
 16 28  1  0  0  0  0
 17 44  1  0  0  0  0
 18 45  1  0  0  0  0
 19 24  1  0  0  0  0
 19 36  1  0  0  0  0
 19 40  2  0  0  0  0
 20 37  1  0  0  0  0
 20 41  2  0  0  0  0
 21 38  1  0  0  0  0
 21 42  2  0  0  0  0
 22 23  1  0  0  0  0
 22 36  1  0  0  0  0
 23 39  1  0  0  0  0
 24 34  1  0  0  0  0
 24 39  1  0  0  0  0
 26 30  1  0  0  0  0
 27 31  1  0  0  0  0
 28 35  1  0  0  0  0
 29 36  1  0  0  0  0
 30 32  1  0  0  0  0
 31 33  1  0  0  0  0
 32 38  1  0  0  0  0
 33 38  1  0  0  0  0
 34 35  1  0  0  0  0
 34 43  1  0  0  0  0
 35 37  1  0  0  0  0
  1 46  1  0  0  0  0
  2 47  1  0  0  0  0
  3 48  1  0  0  0  0
  4 49  1  0  0  0  0
  5 50  1  0  0  0  0
  6 51  1  0  0  0  0
  7 52  1  0  0  0  0
  8 53  1  0  0  0  0
  9 54  1  0  0  0  0
 10 55  1  0  0  0  0
 11 56  1  0  0  0  0
 22 57  1  0  0  0  0
 22 58  1  0  0  0  0
 23 59  1  0  0  0  0
 23 60  1  0  0  0  0
 24 61  1  0  0  0  0
 25 62  1  0  0  0  0
 25 63  1  0  0  0  0
 25 64  1  0  0  0  0
 26 65  1  0  0  0  0
 26 66  1  0  0  0  0
 26 67  1  0  0  0  0
 27 68  1  0  0  0  0
 27 69  1  0  0  0  0
 27 70  1  0  0  0  0
 28 71  1  0  0  0  0
 28 72  1  0  0  0  0
 29 73  1  0  0  0  0
 29 74  1  0  0  0  0
 30 75  1  0  0  0  0
 30 76  1  0  0  0  0
 31 77  1  0  0  0  0
 31 78  1  0  0  0  0
 32 79  1  0  0  0  0
 32 80  1  0  0  0  0
 33 81  1  0  0  0  0
 33 82  1  0  0  0  0
 34 83  1  0  0  0  0
 35 84  1  0  0  0  0
 37 85  1  0  0  0  0
 39 86  1  0  0  0  0
 39 87  1  0  0  0  0
 43 88  1  0  0  0  0
M  CHG  1  39   1
M  END
> <OMEGA_C>
HKitQDVFJ0FKxK/BpyOxQF7VEEFZfLDBVqW7QA36MUHae6bB+MbCQNMYBUFQ76fBvjPNQAFIJkGn
7J3BR2HZQCCAGb6tnIXBhnoGQVVetD+12XvBURMBQboAR7/td2vBaMvaQAFkjD8S8arBBeygQICv
1b5r1aXBWEjkQI8KqL/Ml6zBaAXuQLtVjT9iyoXB1xzkQNKsjL/hcXvBu/LQQL/VD0Hxnp7BBScL
QeJ+9j7yiWvBPf6wQJHFYz/e9KbBNIT0QJDfvLuyqa3BI2W6QJTfwb9xwajBw0/DQGQgvkD15JPB
NzDjQJ1YBUCuIY7B2cTQQH74G8DO7HvB9xyfQBXo+0CLHIvBykCKQIkO20CxtYPB6b6hQAKqnkAe
+Y7BDPsbQQpNTT9q9FrBKvRhQNyaacCLDIvBNhgXQSZHjcAtY4jBPVSVQB3eA0DHyqPBVd7jQM6P
A0EXTpXBYpeXQAK9i8Cy4o/BguIJQXnZgcC2YZLB3RO8QJwEkcCkvYfB0VPzQAtdPMAm4I/BljiN
QK5LgEDQPZfBthusQCU5O0CiX5vBpRfEQJM46UAPxJDB/zG6QBZ1BEDCdpLB1QLWQArDUsDy04bB
MJd6QEIqtkA1L4rBkJbfQC9esECowZnBJ/v9QKezOUBmDZHBX4C8QIwHM8DSJGzBZvF5QKInmUAh
7Z/BA1YOQZiOQz4jXbHBZHiqQNffMMA59afBQ0CgQEtEMEGTVrbBMUmmQJWjCEGSl7fBfOS4QMwq
Q0EM8KXBmHvFQKrP50D7fKjBt9TXQHKCLkGBzpbBwFLBQJAfxL4yh4vBNMEOQdfUFkAOU3zBPt4E
QYiWv7+1Jl/BovfmQBdvBkBX5avBghGBQEh1E79Hu6LBFvP3QIpDCsDxtq7BTWyHQB1gA0FcB5HB
ZgCqQJSvC0HnU4bBcUehQKbb0EByH3vBQglcQHA76UDGqH/Bm6yxQFhei0CMyIjBhmIUQWQFpD/4
DU3BOecjQSALAr4i2VXBTuknQWUKvj+y42HBL3YvQFF0Y8AFIpHBCIZJQO9gh8D4OYTBykh1QCST
KcCKTYjB8owiQdzJpsBUYIrB19kfQXqaYcDeoYXBCVIMQUtnmMBRAoLBJ6COQN4IK0Dq6KrBrh5u
QIHe1z8IcaDByNP/QPzj9EBeGZjBeOTtQD3vDkH2Eo/B9oWNQG2aq8B5ppLBV2ejQCEGcsALupbB
Kb8UQdy6bcDxvJjBWzcBQXx3nsBjHZXBrkquQG2cmMAkvX/B9O3QQFBrq8BUVIrBqYECQZXoAcAI
wY3BhezfQIdxMMCpEJfB889kQCTYX0AGRpPBjvHHQKpnWkBoF5/BJuCkQBfUtz/vUI/BvdVZQI33
oUCjhYXBrM5UQKOLwEDZGJDBKn9gQFG+hkDjEaXBLYasQIaLJkEtzK/BgUi6QMVrMUHPiqbBiGCw
QDsdEEFWcrDBEO3LQDTmJUEv753BKybCQM+NBEEu2qfBUA/ZQHbKBb6l6oTBON8GQT5btj9JVHvB
qCgBQRZtPL9EKWrBCyTbQApFhD+tkqrBmuOhQOCl8r7h6aTBC03lQLy3sL/TiavBS1TuQClijj87
Y4XBcKvjQAZ+iL+e0nnBmQzQQKt1D0Gaj57BM98LQcVrAD+3DGvBY4ixQLwXVT+hdabBYhH1QAk/
lr1gDK3Bia67QBENyr99fKfBDAbDQKmIvUB4upPBjJTjQKu0BECN4I3BKZLOQMiGGMB+Q3nBHQue
QFtf+0AHKYvBCouIQCaW2kDQ24PBki6hQDUZnkD37o7BK+gbQT3+XT8U61nBlJ5vQPHJWcCsX4zB
HQsWQYFAmcB+TI/BrNKVQPKqAEC2gKPBAxbjQHhdA0FEMpXBa8CWQMTbksBnwY3BegcPQapFX8DD
4YnBbky6QHA7ksCHPoXB6WDxQIpqRMAF4I3BXFSNQCwYf0ArQ5fBuXCsQPpsOUC0L5vBQXXDQKuz
6EBFpZDBcWi6QBdEBEAaHJLBJmvRQD6tUcBTVIXBZYx4QImPtUBHXYrBVrzfQAqwr0DecZnBm9j+
QLTKNkB0IZHB/UC8QH1eLcCUt2jBqap7QFUomECPE6DBsooOQZPH9T0T3LDBtHysQIcQNcDyAKbB
8AKfQPtnL0GzZrbBm0m3QLabQkHjDabBoLSlQArKB0FAiLfB2lTWQGBBLkFK1ZbB/SnFQAy95kDu
WqjBs47AQK13u74QtorBpBQPQWnxF0DF/nvBq7IEQch2t7/bcl3BLAXnQElHAkCT0KvBkRiCQJBc
IL/kwKHBLx/5QMvKDsDIfK3BG9OGQEYfA0GmMJHBgZaoQGhpC0HWUobBOP6eQLqI0ECxIHvBW9VX
QDfE6EDJKYDBwqiwQEb0ikDFpIjB0Z8TQS3arj/tmEzBhccjQVDUOL2HBlTBif4nQQL0xT8KqmDB
XsE9QKuyXMA7k5LBE6NRQCQIXcAJbITBxaKJQNRjHcB4Io3BAf8lQT1rosA/X4zBT4UKQePCssBX
aI3BuKYWQQp/lMBIA5jBbz2PQLC4JkCfuKrBIP9uQBN30j/xIKDBbjb/QKel9EAS8pfBF97sQMvX
DkFQ/Y7B4KOEQGTmsMCUBo3BHHWlQDwUkcADvZXBz3kOQcX8aMCkK4HBOJsaQRN1LMCVxovBO+qr
QIwfl8C4nHrBoRjRQOI0rMAf6obBT/HxQFdfAMDaIJDBhq7oQEJDa8B34pTBh1JkQG+iXkDXaJPB
xUrIQAE3WECI8p7B6tykQHJ7uj+ow47BZR9XQAtioUB0xYXBKrpTQFfKv0AjY5DBXxNjQOaZhUCY
QKXBRhymQArKJ0GVY6/B7Ly1QMRrMkGNP6bB2uSpQK9hEUE+PbDBXi3JQDqrJkE89Z3BpYG9QMWZ
BUF4+afBf/zaQHJHbr5IcIXBWhIJQf4OpT/Dyn3BYPwCQdKyVb/3sGvBh3zaQIy/jz//7qvBUUCm
QP1Z7L7hyKTBrnvoQCb7or/BzKzBT0bxQO40fj85SIbBR1nlQBzfkb+GYXrBMEDNQDI9EEEQzJ7B
7FYOQQeovz6tfW3BT9SyQNY+XT+H66bBTlr1QJx0Wz1/1K7BDt3AQMezw78+0KfBRqzDQH68vUCh
FZTBZY3lQEr6/D9rkY7B74zLQOQoFsBhR3fBtx2gQHPa+kCky4rBxuiMQH9k2UDxSIPBxVOjQJ6k
nUAg347Buu4eQf4XPT+D51zBTFVkQEGmnsB1qY7BFgkSQRjMcsDp/5fBzzeWQD9OAEBzjaPBAXbi
QGHTA0GR0pXBCReQQE3gd8AceYrB3kT6QFBiW8BlbZLBHS6yQNYnkMAIEIPBOun9QIMrcMDrd4bB
jiWOQNNWfUBF7pbBY/2sQGoTOECBKpvBey3EQIDu6ECe9JDBpp27QEsnAUAeS5LBbrzUQG6EYsB5
BYHBZKN+QCCltEDevInBSpDfQHRKsEBkG5rBlkMAQbvWMEB36pHBRtyrQDiyEMAazWvBkGB5QHP3
lkDukZ/BeqoNQStumT4moLPB4SK0QGIyM8BzAqbBbDmXQODQMEFWv7XBws2yQAKXQ0HqmaXB6MCd
QBY9CUGyOrfBsf/UQLrVLkHG8JbBt4TAQNng6EDRpajBpA7CQKLw8r7wGYvB86YRQVpUDkAlAX/B
kM0GQVK5w7+fBF/B8SrkQBn4CEBsiq3BRC+IQAleKL/e0qDBzv/8QMYSBsAqEa/BWUCHQKjqAkEM
Y5DB4qOrQL8PC0HzCIbBrhClQOsvz0A+1HrBcFxiQIcG50CmI37BQ3+0QNOzikCG0ojBHy8XQcxm
oj8pkk/BLZgmQXxVNb5e31bBORsrQQbYsT/JMWTB+/MzQLolkMBe7ZPBcsKEQHNrtsAaMZPBfltE
QGJvrsBC44fBVsgQQVv3Y8BOlKDBWzwfQVzATcAweZTBrysVQX/Jm8DT9pbB0GyOQKylJ0DblarB
Lx5xQN/FzD/1F6DB/g3+QHcF9kAoDZnBanXtQLoaD0HZpo/B6AugQMJRWMDDQJHBau56QKFZSMDr
8oXBpvvzQB6bFsCldJPBT9rfQOA2gMBI8pXBITCjQLc4mcA33HbBrpC/QBPOrMCl7YbBd8QDQfS6
mcDthIXB5x8LQQprRsCD1oLBmeZnQEVwXEAvu5LBCqLIQF2OV0AR757B7gimQCXrtj8lu47B/2pf
QBYmoEAr/oTBzixXQE4av0C2d4/BiyxfQLAxhEAXkqTB

> <OMEGA_E>
gMdpPXBYBT7kybQ+

> <OMEGA_NBR>
      7249

$$$$
50147878
  -OEChem-04172616093D

 85 88  0     1  0  0  0  0  0999 V2000
    6.7683   -0.2087  -16.6971 C   0  0  0  0  0  0  0  0  0  0  0  0
    8.3843    1.3496  -15.7367 C   0  0  0  0  0  0  0  0  0  0  0  0
    8.0412   -0.8343  -14.7115 C   0  0  0  0  0  0  0  0  0  0  0  0
    6.8140    1.0595  -21.3414 C   0  0  0  0  0  0  0  0  0  0  0  0
    5.0014   -0.4340  -20.6664 C   0  0  0  0  0  0  0  0  0  0  0  0
    7.0954   -1.3562  -21.5095 C   0  0  0  0  0  0  0  0  0  0  0  0
    7.4232    1.0419  -16.7245 C   0  0  0  0  0  0  0  0  0  0  0  0
    7.1048   -1.1609  -15.7119 C   0  0  0  0  0  0  0  0  0  0  0  0
    8.6677    0.4257  -14.7115 C   0  0  0  0  0  0  0  0  0  0  0  0
    5.5102    0.8680  -20.8323 C   0  0  0  0  0  0  0  0  0  0  0  0
    7.6094   -0.0531  -21.6686 C   0  0  0  0  0  0  0  0  0  0  0  0
    5.7879   -1.5435  -21.0158 C   0  0  0  0  0  0  0  0  0  0  0  0
    6.0792    5.9890  -18.5835 C   0  0  0  0  0  0  0  0  0  0  0  0
    7.1048    2.0147  -17.7805 C   0  0  0  0  0  0  0  0  0  0  0  0
    6.4707   -2.4898  -15.7003 C   0  0  0  0  0  0  0  0  0  0  0  0
    5.8362    8.8665  -21.1019 C   0  0  0  0  0  0  0  0  0  0  0  0
    5.5169   10.0434  -20.1612 C   0  0  0  0  0  0  0  0  0  0  0  0
    4.8393    7.9144  -17.5950 C   0  0  0  0  0  0  0  0  0  0  0  0
    4.3576    6.9158  -16.5417 C   0  0  0  0  0  0  0  0  0  0  0  0
    5.0824    4.9875  -17.8943 C   0  0  2  0  0  0  0  0  0  0  0  0
    6.8183    9.2464  -19.9868 C   0  0  0  0  0  0  0  0  0  0  0  0
    9.7022    0.7530  -13.6588 C   0  0  0  0  0  0  0  0  0  0  0  0
    3.7327   -3.4186  -17.6031 C   0  0  0  0  0  0  0  0  0  0  0  0
    9.3561   -4.3646  -16.9984 C   0  0  0  0  0  0  0  0  0  0  0  0
    4.6580    2.0510  -20.4463 C   0  0  0  0  0  0  0  0  0  0  0  0
    7.0761    8.3194  -18.7577 C   0  0  0  0  0  0  0  0  0  0  0  0
    4.6563   -4.6333  -17.8120 C   0  0  0  0  0  0  0  0  0  0  0  0
    8.4739   -4.1577  -18.2430 C   0  0  0  0  0  0  0  0  0  0  0  0
    5.7968   -4.6597  -16.7802 C   0  0  0  0  0  0  0  0  0  0  0  0
    7.4037   -3.0831  -17.9884 C   0  0  0  0  0  0  0  0  0  0  0  0
    4.4128    4.0058  -18.8790 C   0  0  2  0  0  0  0  0  0  0  0  0
    5.3741    2.9186  -19.3958 C   0  0  1  0  0  0  0  0  0  0  0  0
    5.9881    7.3772  -18.3495 N   0  0  0  0  0  0  0  0  0  0  0  0
    5.8062    2.0648  -18.2753 N   0  0  0  0  0  0  0  0  0  0  0  0
    6.5684   -3.3854  -16.7891 N   0  0  0  0  0  0  0  0  0  0  0  0
    3.9565    5.6925  -17.2397 N   0  3  0  0  0  0  0  0  0  0  0  0
    7.0297    5.5401  -19.2137 O   0  0  0  0  0  0  0  0  0  0  0  0
    7.9804    2.7578  -18.2111 O   0  0  0  0  0  0  0  0  0  0  0  0
    5.8890   -2.8201  -14.6725 O   0  0  0  0  0  0  0  0  0  0  0  0
    3.8621    4.7502  -19.9656 O   0  0  0  0  0  0  0  0  0  0  0  0
    8.8646    0.1309  -22.1366 F   0  0  0  0  0  0  0  0  0  0  0  0
    5.2840   -2.7891  -20.8749 F   0  0  0  0  0  0  0  0  0  0  0  0
    6.0092   -0.4366  -17.4308 H   0  0  0  0  0  0  0  0  0  0  0  0
    8.9037    2.2960  -15.7673 H   0  0  0  0  0  0  0  0  0  0  0  0
    8.2792   -1.5535  -13.9418 H   0  0  0  0  0  0  0  0  0  0  0  0
    7.1994    2.0590  -21.4790 H   0  0  0  0  0  0  0  0  0  0  0  0
    4.0070   -0.5794  -20.2708 H   0  0  0  0  0  0  0  0  0  0  0  0
    7.7032   -2.2113  -21.7659 H   0  0  0  0  0  0  0  0  0  0  0  0
    5.2579    7.9334  -21.0313 H   0  0  0  0  0  0  0  0  0  0  0  0
    6.0968    9.0577  -22.1533 H   0  0  0  0  0  0  0  0  0  0  0  0
    5.5501   11.0756  -20.5400 H   0  0  0  0  0  0  0  0  0  0  0  0
    4.7112    9.9512  -19.4181 H   0  0  0  0  0  0  0  0  0  0  0  0
    4.0165    8.1240  -18.2943 H   0  0  0  0  0  0  0  0  0  0  0  0
    5.1419    8.8462  -17.0949 H   0  0  0  0  0  0  0  0  0  0  0  0
    5.1712    6.6945  -15.8352 H   0  0  0  0  0  0  0  0  0  0  0  0
    3.4998    7.3332  -15.9940 H   0  0  0  0  0  0  0  0  0  0  0  0
    5.6389    4.4080  -17.1431 H   0  0  0  0  0  0  0  0  0  0  0  0
    7.7176    9.7724  -20.3397 H   0  0  0  0  0  0  0  0  0  0  0  0
    9.2119    1.2326  -12.7988 H   0  0  0  0  0  0  0  0  0  0  0  0
   10.1960   -0.1732  -13.3296 H   0  0  0  0  0  0  0  0  0  0  0  0
   10.4518    1.4378  -14.0820 H   0  0  0  0  0  0  0  0  0  0  0  0
    2.9315   -3.4326  -18.3566 H   0  0  0  0  0  0  0  0  0  0  0  0
    3.2905   -3.4631  -16.5969 H   0  0  0  0  0  0  0  0  0  0  0  0
    4.3167   -2.4921  -17.7063 H   0  0  0  0  0  0  0  0  0  0  0  0
   10.1112   -5.1366  -17.2077 H   0  0  0  0  0  0  0  0  0  0  0  0
    9.8586   -3.4197  -16.7441 H   0  0  0  0  0  0  0  0  0  0  0  0
    8.7287   -4.6851  -16.1536 H   0  0  0  0  0  0  0  0  0  0  0  0
    4.4579    2.6590  -21.3409 H   0  0  0  0  0  0  0  0  0  0  0  0
    3.7069    1.6896  -20.0283 H   0  0  0  0  0  0  0  0  0  0  0  0
    7.9654    7.7135  -18.9855 H   0  0  0  0  0  0  0  0  0  0  0  0
    7.2864    8.9697  -17.8958 H   0  0  0  0  0  0  0  0  0  0  0  0
    4.0632   -5.5543  -17.7126 H   0  0  0  0  0  0  0  0  0  0  0  0
    5.0894   -4.5833  -18.8220 H   0  0  0  0  0  0  0  0  0  0  0  0
    9.1079   -3.8415  -19.0845 H   0  0  0  0  0  0  0  0  0  0  0  0
    7.9779   -5.1069  -18.4940 H   0  0  0  0  0  0  0  0  0  0  0  0
    5.3693   -4.8121  -15.7782 H   0  0  0  0  0  0  0  0  0  0  0  0
    6.4763   -5.4911  -17.0192 H   0  0  0  0  0  0  0  0  0  0  0  0
    7.9039   -2.1154  -17.8357 H   0  0  0  0  0  0  0  0  0  0  0  0
    6.7479   -3.0219  -18.8694 H   0  0  0  0  0  0  0  0  0  0  0  0
    3.5975    3.5002  -18.3407 H   0  0  0  0  0  0  0  0  0  0  0  0
    6.2468    3.4006  -19.8605 H   0  0  0  0  0  0  0  0  0  0  0  0
    5.1192    1.4820  -17.8413 H   0  0  0  0  0  0  0  0  0  0  0  0
    3.5382    5.0724  -16.5761 H   0  0  0  0  0  0  0  0  0  0  0  0
    3.2846    5.9339  -17.9400 H   0  0  0  0  0  0  0  0  0  0  0  0
    3.4467    4.1555  -20.5790 H   0  0  0  0  0  0  0  0  0  0  0  0
  1  7  1  0  0  0  0
  1  8  2  0  0  0  0
  2  7  2  0  0  0  0
  2  9  1  0  0  0  0
  3  8  1  0  0  0  0
  3  9  2  0  0  0  0
  4 10  1  0  0  0  0
  4 11  2  0  0  0  0
  5 10  2  0  0  0  0
  5 12  1  0  0  0  0
  6 11  1  0  0  0  0
  6 12  2  0  0  0  0
  7 14  1  0  0  0  0
  8 15  1  0  0  0  0
  9 22  1  0  0  0  0
 10 25  1  0  0  0  0
 11 41  1  0  0  0  0
 12 42  1  0  0  0  0
 13 20  1  0  0  0  0
 13 33  1  0  0  0  0
 13 37  2  0  0  0  0
 14 34  1  0  0  0  0
 14 38  2  0  0  0  0
 15 35  1  0  0  0  0
 15 39  2  0  0  0  0
 16 17  1  0  0  0  0
 16 21  1  0  0  0  0
 17 21  1  0  0  0  0
 18 19  1  0  0  0  0
 18 33  1  0  0  0  0
 19 36  1  0  0  0  0
 20 31  1  0  0  0  0
 20 36  1  0  0  0  0
 21 26  1  0  0  0  0
 23 27  1  0  0  0  0
 24 28  1  0  0  0  0
 25 32  1  0  0  0  0
 26 33  1  0  0  0  0
 27 29  1  0  0  0  0
 28 30  1  0  0  0  0
 29 35  1  0  0  0  0
 30 35  1  0  0  0  0
 31 32  1  0  0  0  0
 31 40  1  0  0  0  0
 32 34  1  0  0  0  0
  1 43  1  0  0  0  0
  2 44  1  0  0  0  0
  3 45  1  0  0  0  0
  4 46  1  0  0  0  0
  5 47  1  0  0  0  0
  6 48  1  0  0  0  0
 16 49  1  0  0  0  0
 16 50  1  0  0  0  0
 17 51  1  0  0  0  0
 17 52  1  0  0  0  0
 18 53  1  0  0  0  0
 18 54  1  0  0  0  0
 19 55  1  0  0  0  0
 19 56  1  0  0  0  0
 20 57  1  0  0  0  0
 21 58  1  0  0  0  0
 22 59  1  0  0  0  0
 22 60  1  0  0  0  0
 22 61  1  0  0  0  0
 23 62  1  0  0  0  0
 23 63  1  0  0  0  0
 23 64  1  0  0  0  0
 24 65  1  0  0  0  0
 24 66  1  0  0  0  0
 24 67  1  0  0  0  0
 25 68  1  0  0  0  0
 25 69  1  0  0  0  0
 26 70  1  0  0  0  0
 26 71  1  0  0  0  0
 27 72  1  0  0  0  0
 27 73  1  0  0  0  0
 28 74  1  0  0  0  0
 28 75  1  0  0  0  0
 29 76  1  0  0  0  0
 29 77  1  0  0  0  0
 30 78  1  0  0  0  0
 30 79  1  0  0  0  0
 31 80  1  0  0  0  0
 32 81  1  0  0  0  0
 34 82  1  0  0  0  0
 36 83  1  0  0  0  0
 36 84  1  0  0  0  0
 40 85  1  0  0  0  0
M  CHG  1  36   1
M  END
> <OMEGA_C>
hpXYQO62Vb6/k4XBFiYGQXO/rD+ayXvB5KgAQS+UVb9GYmvBsQzaQOuehz8ju6rBaQugQBQ63r7N
VKXBiA3jQHmYrb+ME6zBeortQB5dhT/Ty4XB6FrjQFOYlL/aY3vBA68KQdPw2T4mYmvB6lOwQDoz
Xj+kqKbBkIDzQNGBWb1PWa3Bsza5QO+Rxb9cIKjBpojCQNOlv0AGq5TBhVrjQBPwAEBzPo7BFRDP
QIhYH8BaNHvBv8G6QDjdDUGd0KjBn4qwQLSxIEEkSqHBz9uaQHdC/UCRwozBo3GLQOlN3UBYVYTB
6aKiQNeZn0CUJ4/ByC/aQCDxE0H75J/BJTwbQYjGQD9ailrB6ORuQOTJWsA204zBdLIVQZyqi8Cf
/IfBRw6VQE9DA0AAkqPBG2/iQGMcBUHHD5bBeACVQABElMAHf47BQpUHQaULhcCa8ZHBkX+5QJ4c
lcDGPYbBtursQGNRRcA06I/BYDWNQKIvgEAoCJfBQPirQGPKOkCtKpvBQp6/QNYR7ECwy5LBesy5
QJclBEDGM5LB7y/SQCGrWMAsUIbBHDd9QCEptkD66onBEvPgQBpIsUCctZnBdF//QE2AMEBnsJHB
qXK8QMN8NMB6wmrBWix3QF8BmECLuZ/BjtUNQV4CBj7KF7HBRxapQLqAMsDL/6bBVUvAQG2F375c
covBgXUOQc7xEkCpRnzBdXcEQcTZxr9rEV/BhWHmQOXGA0AK1avBuDmAQNZVFL+GKqLB+4D2QBSG
DcCqIK7B5ECoQH3e/UAkQKjBPhnDQHjsEEHrObHBJ5qxQIM1MUH4UaTBzcGWQEk4H0EyWJvBKoeA
QPD7AUGyWpLBuIqkQBmKDUFkwojBj3qlQF451kDvXH3BYf1fQMOp6kB153/B/HG0QAkOjUADJYnB
6vb2QLNbHEHAt6LBz2MTQRrFnT+9x0zBwSIjQWtPMb4hRlXBvzonQSQJuD/wT2HB95w7QG2wW8Bl
2pLBEpdSQKujXcCGxoTBKCKKQH5+H8CEpo3BXschQd9epMBaqYnB7rwdQWfcWsDl84XBlqgLQQfs
lcCFOoHB6aaOQEAsKkAquqrBKD1tQMRD2D/yOaDBm+T+QOXU9kBb4pfBFyrpQNaDD0GJKo/BewWC
QBa9scBfs43BGdyiQICqksBek5bB4bkRQR3bdcAIrZjBE0v/QGJro8Co85PBRdGrQKH8mcBXc3zB
GT7PQA+3r8A+J4jBm+z8QIpiB8B1r47Bl+7XQE9mQcCM9JbBUT1mQPMDYEDMuZLB/uXHQA2kWUBP
4p7BINCjQOGyvT8Au47BHHFiQEBRokDDm4TBDzdSQH3ivUAKhY/B/JVcQAH6hEDgoaTBSkvbQMGn
x72xOoXB0zcHQWJnvT80RnvBc0gCQSQsNb8iz2rB8H3bQCyqgz8ms6rBaIehQJ5a6b5oGqXBqrLk
QLPXsb+fpavBoorvQC3KlD/qfoXBlMfmQCuShb+ExHrBOwMMQckKDz8u32rBUrmxQExfWD9jpqbB
Mgv1QN07tb1LHa3BTui6QGglyb/WqKfBdGDBQDmkwEDjbpTBqCbkQM++CEDu343BRj/SQPTdFsB+
OnrB7sDTQBE6JEFauqXBVoi9QMYxEEEpQKrBUJubQGQs+0B/gorBiOaKQJn510BDMIPB0JOiQA7q
nkASRI/B7hy9QPGoFEE7NJ7BO3QcQayzZT89AlrBd05cQLKXmcANFo/BGf4RQcrQl8CiRonByoGW
QKdvAkCrwaPB0gDZQJ+zBkEUv5bBYEqLQNbbbMBQ54rBZgkPQWV+U8BiXI3BfMO0QPk7isDfm4bB
FMPuQDW1P8DPfo/BIAWOQM8PgECMZpfBGkmtQJwmO0CRbpvBmNS+QDMH7EDsdJHBqou7QLdBBUAU
bpLBAuLTQA0fT8AX4YXBnRV8QF0GtEDG74nB3vLdQCuHtEBdcJrBDCr+QBMgP0BeqJDBoKy9QGl+
KcBsKmrB5TN6QLtImEB4H6DBkqUOQWNWtj3K0LDBFjGrQN1UNMB9OqbB/O/CQMjqrL67DIvBX2EP
QauVG0Dl03vBqUAGQY0vtr+ofV7BEMznQJanAUDw8KvBPaeBQLFsGL8A9aHByDX4QCLWD8BUlK3B
iuP2QENLJUHltqXBABLGQFssNEEYM6fBo/CfQMHNEUGL8q7BLcLQQKrsAkFZdq3BXjKBQJJBA0Eb
l4/Bk2qnQMLhCkGCjoXBUDykQFnUzUDiQnvBbXdeQDm640AxOH3Bkse0QLccjEBqYYnBsXieQAwf
GkGa15rBG30UQZ4xrz/sPkzBQIokQTqFvLw4wlTBfFAoQcjZyz/CvWDBYdQgQONXi8AeKpLBt998
QGD6qsCpkJXBkgtNQJbrr8BVjojBbxQjQQvtncCD0ofBZAYJQY0DnMDoxoHBFPsLQZhzrsC6To/B
y1GQQKdfKECaAavBbO1vQMPc1z8kaKDBDEnyQNLt/UARfpvBdKrnQNfwEEFLmZDB5OiSQFg1QMBi
b5HBo/11QMUXSsAObYTBXiYVQf+jJsBOTofBDhsYQRaES8Ag1pTBtz6vQFxPmMDqUn3BTFvAQLoj
o8BoHIzBrbXrQGVW+L+925HBklzjQBDiaMAeCpbBHx5nQF0gX0B6UZPBjvjIQJ9mWkDWNZ/BAaGm
QGK5tj9DZI/BHQxeQHZxnkB0YIXBgfNTQI7QvkDejY/Blb5gQMl1hUDeK6XBk6LaQILuj74fmoXB
uDUIQV3joT88ZH3BF/8CQcKMZr+iOmzBnovYQKqUgD/pEavBPuSfQPzn9L5AqqTBO1viQOXbtL9R
oavBjfTvQCdcdz8vLobBTNTlQP2um787L3vB7HANQXRysT7BJW3BlmqvQPkxUj/7oabBRRbyQGRt
5r0Cf63B3D65QPsGzL9IOKfBAEvCQCHtvkB5npTBmPLjQNQg/D/6Uo7BBdDMQPIfHcCWl3jBNlGk
QEf9DkFHvabBPvXEQBkaIUERxqXB3JCcQFBc+0Chc4vBLOSMQDSi2UD+h4PBDoujQJ78nUCeD4/B
AUjSQCn6CUGpEaPB+7geQQcoMD+mIF3ByIyBQGC8VMB25ozBj40UQWmle8AduJfBqJyUQGXkAEBv
jaPBWffcQGclBUGPM5fBvM2aQM+nlMDfhozBNrIBQSBsUsCk45HBze23QJo+mMCciILBF+8AQV1i
dcCqcIbBu7CNQM1RfUBl4pbB+ROsQEOHN0DoIpvBRtm/QBvH6kDoJZLBDV26QJYc/z8MTJLBhJTX
QJbCacBmhYHBxz9/QPT5s0AnpInBiu7eQNb8sUC6fprBxkT+QGNrM0BdP5HB4catQGiWGsCioWzB
Dhx3QOOclkDMf5/B4OAMQcAchD07krHBtxuqQPSuNcABZ6XB4sPBQPfOBL/LSovBsKsQQaUSDUAV
an7BoFQHQS/azr8aCGDBT17kQDgUAEAdmazBV4yAQFHrHb+sMqHB7dH1QAFfEcDSlK3BHq+JQCvn
DUHdAqHBRliZQEvDCUGbrq7BRXTRQC3jKEFwBa3BHcvBQA0HLUGyWZ/BBdKBQMNmAkHJqZDBLvyn
QC+5C0Eb+4bBdOOmQFX+0EDTAnzB3zNjQAo35kCw5X3B+xO2QIt/i0CvLYnB6MrmQJwAAkF9AanB
moMXQWArmD+GNk/Bhr4mQX5EcL6q41fBdn0qQefkrT8XoGTBmBJbQOlMU8AgI5TBxBNaQJbiT8A+
xoXBPQmYQCWWHsCpDY3BC1IVQQwtY8Ap9p/BN4EjQQ3ya8Abg5PBpmkSQYbBoMAY4ZfBfnmOQG0O
KEDIs6rBoglsQOU41T8zNaDB9Mr9QNKw/UA6y5bB8AnbQGMyFEFNqpLBK+6DQLpor8DdcozBhu2u
QILClsBIupPBDcwDQQaLDMDesZHB+GjlQAUcYsDbD5bBD3yjQFAomMB7vXbBon/JQJ+xtsDi+oLB
fbkEQRYPncBRnYbBDO4MQVyNU8CMlYHBvZlnQGUJXUDWfpLBXuvHQGxJVkD3557B2tWkQHvGsD+T
+I7BWlljQOVIn0AnooTBTQVVQIA3vUDnMI/B6vpbQPmlg0A3YKTB

> <OMEGA_E>
qCwUPixIoT4AZLI+

> <OMEGA_NBR>
     11492

$$$$
50147867
  -OEChem-04172616093D

 83 87  0     1  0  0  0  0  0999 V2000
    5.5343   10.4255  -21.8918 C   0  0  0  0  0  0  0  0  0  0  0  0
    5.6242    9.0229  -21.9950 C   0  0  0  0  0  0  0  0  0  0  0  0
    5.9670   11.0765  -20.7196 C   0  0  0  0  0  0  0  0  0  0  0  0
    6.1515    8.2708  -20.9271 C   0  0  0  0  0  0  0  0  0  0  0  0
    6.4926   10.3270  -19.6510 C   0  0  0  0  0  0  0  0  0  0  0  0
    6.7212   -0.0539  -16.6129 C   0  0  0  0  0  0  0  0  0  0  0  0
    6.7222    1.0090  -21.4024 C   0  0  0  0  0  0  0  0  0  0  0  0
    4.8691   -0.4545  -20.7722 C   0  0  0  0  0  0  0  0  0  0  0  0
    6.9383   -1.4070  -21.6405 C   0  0  0  0  0  0  0  0  0  0  0  0
    8.1152   -0.6840  -14.7289 C   0  0  0  0  0  0  0  0  0  0  0  0
    8.4650    1.3989  -15.7558 C   0  0  0  0  0  0  0  0  0  0  0  0
    7.0934   -0.9981  -15.6524 C   0  0  0  0  0  0  0  0  0  0  0  0
    7.4303    1.1514  -16.6917 C   0  0  0  0  0  0  0  0  0  0  0  0
    6.5899    8.9237  -19.7505 C   0  0  0  0  0  0  0  0  0  0  0  0
    5.4161    0.8370  -20.8931 C   0  0  0  0  0  0  0  0  0  0  0  0
    7.4860   -0.1143  -21.7644 C   0  0  0  0  0  0  0  0  0  0  0  0
    5.6272   -1.5741  -21.1509 C   0  0  0  0  0  0  0  0  0  0  0  0
    6.0956    5.8768  -18.4566 C   0  0  0  0  0  0  0  0  0  0  0  0
    6.4902   -2.3323  -15.6912 C   0  0  0  0  0  0  0  0  0  0  0  0
    7.0972    2.1064  -17.7608 C   0  0  0  0  0  0  0  0  0  0  0  0
    8.4049   -3.8870  -18.1179 C   0  0  0  0  0  0  0  0  0  0  0  0
    7.5837   -5.1163  -17.7618 C   0  0  0  0  0  0  0  0  0  0  0  0
    7.3793   -2.7788  -18.0509 C   0  0  0  0  0  0  0  0  0  0  0  0
    4.9869    7.8089  -17.3417 C   0  0  0  0  0  0  0  0  0  0  0  0
    4.2952    6.7813  -16.4469 C   0  0  0  0  0  0  0  0  0  0  0  0
    5.0252    4.9046  -17.8674 C   0  0  2  0  0  0  0  0  0  0  0  0
    6.4661   -4.5915  -16.8288 C   0  0  2  0  0  0  0  0  0  0  0  0
    3.5813   -3.3394  -18.0864 C   0  0  0  0  0  0  0  0  0  0  0  0
    4.5958    2.0273  -20.4726 C   0  0  0  0  0  0  0  0  0  0  0  0
    7.1562    8.1381  -18.5856 C   0  0  0  0  0  0  0  0  0  0  0  0
    5.0620   -5.0759  -17.2608 C   0  0  0  0  0  0  0  0  0  0  0  0
    4.3915    3.9742  -18.9183 C   0  0  2  0  0  0  0  0  0  0  0  0
    5.3531    2.8911  -19.4458 C   0  0  1  0  0  0  0  0  0  0  0  0
    8.7755    0.4984  -14.7889 N   0  0  0  0  0  0  0  0  0  0  0  0
    6.1428    7.2138  -18.0393 N   0  0  0  0  0  0  0  0  0  0  0  0
    6.5873   -3.1167  -16.8475 N   0  0  0  0  0  0  0  0  0  0  0  0
    5.8241    2.0489  -18.3320 N   0  0  0  0  0  0  0  0  0  0  0  0
    3.8861    5.6496  -17.2827 N   0  3  0  0  0  0  0  0  0  0  0  0
    6.9776    5.4442  -19.1895 O   0  0  0  0  0  0  0  0  0  0  0  0
    5.9715   -2.7819  -14.6760 O   0  0  0  0  0  0  0  0  0  0  0  0
    7.9439    2.8984  -18.1577 O   0  0  0  0  0  0  0  0  0  0  0  0
    3.8950    4.7678  -19.9977 O   0  0  0  0  0  0  0  0  0  0  0  0
    4.5540   -4.3583  -18.4119 O   0  0  0  0  0  0  0  0  0  0  0  0
    8.7444    0.0491  -22.2302 F   0  0  0  0  0  0  0  0  0  0  0  0
    5.0992   -2.8115  -21.0322 F   0  0  0  0  0  0  0  0  0  0  0  0
    5.1331   11.0021  -22.7122 H   0  0  0  0  0  0  0  0  0  0  0  0
    5.2890    8.5248  -22.8928 H   0  0  0  0  0  0  0  0  0  0  0  0
    5.8953   12.1512  -20.6412 H   0  0  0  0  0  0  0  0  0  0  0  0
    6.2211    7.1959  -21.0061 H   0  0  0  0  0  0  0  0  0  0  0  0
    6.8223   10.8276  -18.7526 H   0  0  0  0  0  0  0  0  0  0  0  0
    5.8987   -0.2507  -17.2846 H   0  0  0  0  0  0  0  0  0  0  0  0
    7.1333    2.0014  -21.5136 H   0  0  0  0  0  0  0  0  0  0  0  0
    3.8678   -0.5840  -20.3888 H   0  0  0  0  0  0  0  0  0  0  0  0
    7.5237   -2.2702  -21.9209 H   0  0  0  0  0  0  0  0  0  0  0  0
    8.3749   -1.3983  -13.9617 H   0  0  0  0  0  0  0  0  0  0  0  0
    9.0188    2.3243  -15.8130 H   0  0  0  0  0  0  0  0  0  0  0  0
    9.2138   -3.7247  -17.3904 H   0  0  0  0  0  0  0  0  0  0  0  0
    8.8319   -3.9730  -19.1280 H   0  0  0  0  0  0  0  0  0  0  0  0
    7.1519   -5.5689  -18.6666 H   0  0  0  0  0  0  0  0  0  0  0  0
    8.2054   -5.8595  -17.2411 H   0  0  0  0  0  0  0  0  0  0  0  0
    7.8658   -1.7985  -17.9394 H   0  0  0  0  0  0  0  0  0  0  0  0
    6.7460   -2.7736  -18.9502 H   0  0  0  0  0  0  0  0  0  0  0  0
    4.2677    8.1774  -18.0880 H   0  0  0  0  0  0  0  0  0  0  0  0
    5.3347    8.6486  -16.7220 H   0  0  0  0  0  0  0  0  0  0  0  0
    4.9914    6.4368  -15.6681 H   0  0  0  0  0  0  0  0  0  0  0  0
    3.4111    7.2340  -15.9742 H   0  0  0  0  0  0  0  0  0  0  0  0
    5.5015    4.2893  -17.0900 H   0  0  0  0  0  0  0  0  0  0  0  0
    6.6624   -4.9591  -15.8108 H   0  0  0  0  0  0  0  0  0  0  0  0
    3.2464   -2.8433  -19.0093 H   0  0  0  0  0  0  0  0  0  0  0  0
    2.7186   -3.8030  -17.5856 H   0  0  0  0  0  0  0  0  0  0  0  0
    4.0387   -2.5967  -17.4163 H   0  0  0  0  0  0  0  0  0  0  0  0
    4.3701    2.6386  -21.3587 H   0  0  0  0  0  0  0  0  0  0  0  0
    3.6566    1.6745  -20.0216 H   0  0  0  0  0  0  0  0  0  0  0  0
    8.0258    7.5587  -18.9292 H   0  0  0  0  0  0  0  0  0  0  0  0
    7.4701    8.8374  -17.7966 H   0  0  0  0  0  0  0  0  0  0  0  0
    5.1199   -6.1457  -17.5101 H   0  0  0  0  0  0  0  0  0  0  0  0
    4.3661   -4.9322  -16.4211 H   0  0  0  0  0  0  0  0  0  0  0  0
    3.5468    3.4594  -18.4371 H   0  0  0  0  0  0  0  0  0  0  0  0
    6.2073    3.3760  -19.9408 H   0  0  0  0  0  0  0  0  0  0  0  0
    5.1806    1.3828  -17.9550 H   0  0  0  0  0  0  0  0  0  0  0  0
    3.3502    5.0189  -16.7214 H   0  0  0  0  0  0  0  0  0  0  0  0
    3.3181    5.9963  -18.0291 H   0  0  0  0  0  0  0  0  0  0  0  0
    3.5016    4.2025  -20.6521 H   0  0  0  0  0  0  0  0  0  0  0  0
  1  2  1  0  0  0  0
  1  3  2  0  0  0  0
  2  4  2  0  0  0  0
  3  5  1  0  0  0  0
  4 14  1  0  0  0  0
  5 14  2  0  0  0  0
  6 12  1  0  0  0  0
  6 13  2  0  0  0  0
  7 15  1  0  0  0  0
  7 16  2  0  0  0  0
  8 15  2  0  0  0  0
  8 17  1  0  0  0  0
  9 16  1  0  0  0  0
  9 17  2  0  0  0  0
 10 12  2  0  0  0  0
 10 34  1  0  0  0  0
 11 13  1  0  0  0  0
 11 34  2  0  0  0  0
 12 19  1  0  0  0  0
 13 20  1  0  0  0  0
 14 30  1  0  0  0  0
 15 29  1  0  0  0  0
 16 44  1  0  0  0  0
 17 45  1  0  0  0  0
 18 26  1  0  0  0  0
 18 35  1  0  0  0  0
 18 39  2  0  0  0  0
 19 36  1  0  0  0  0
 19 40  2  0  0  0  0
 20 37  1  0  0  0  0
 20 41  2  0  0  0  0
 21 22  1  0  0  0  0
 21 23  1  0  0  0  0
 22 27  1  0  0  0  0
 23 36  1  0  0  0  0
 24 25  1  0  0  0  0
 24 35  1  0  0  0  0
 25 38  1  0  0  0  0
 26 32  1  0  0  0  0
 26 38  1  0  0  0  0
 27 31  1  0  0  0  0
 27 36  1  0  0  0  0
 28 43  1  0  0  0  0
 29 33  1  0  0  0  0
 30 35  1  0  0  0  0
 31 43  1  0  0  0  0
 32 33  1  0  0  0  0
 32 42  1  0  0  0  0
 33 37  1  0  0  0  0
  1 46  1  0  0  0  0
  2 47  1  0  0  0  0
  3 48  1  0  0  0  0
  4 49  1  0  0  0  0
  5 50  1  0  0  0  0
  6 51  1  0  0  0  0
  7 52  1  0  0  0  0
  8 53  1  0  0  0  0
  9 54  1  0  0  0  0
 10 55  1  0  0  0  0
 11 56  1  0  0  0  0
 21 57  1  0  0  0  0
 21 58  1  0  0  0  0
 22 59  1  0  0  0  0
 22 60  1  0  0  0  0
 23 61  1  0  0  0  0
 23 62  1  0  0  0  0
 24 63  1  0  0  0  0
 24 64  1  0  0  0  0
 25 65  1  0  0  0  0
 25 66  1  0  0  0  0
 26 67  1  0  0  0  0
 27 68  1  0  0  0  0
 28 69  1  0  0  0  0
 28 70  1  0  0  0  0
 28 71  1  0  0  0  0
 29 72  1  0  0  0  0
 29 73  1  0  0  0  0
 30 74  1  0  0  0  0
 30 75  1  0  0  0  0
 31 76  1  0  0  0  0
 31 77  1  0  0  0  0
 32 78  1  0  0  0  0
 33 79  1  0  0  0  0
 37 80  1  0  0  0  0
 38 81  1  0  0  0  0
 38 82  1  0  0  0  0
 42 83  1  0  0  0  0
M  CHG  1  38   1
M  END
> <OMEGA_C>
nxixQPbOJkFgIq/BtPmzQOBdEEHS9a/BzfG+QEQ5MUGrwaXBs9jEQARVBEGgaqfBV8PPQIc7JUFL
NZ3BExTXQEjjXL0m54TBXBzXQG4lgT8yOKvBac+bQDi36L50LabB4QbeQFQYtL+nH63B89cBQXAY
L7+yqWvBzXAHQZYNsz+hF3zBJ/3iQOGCf78wcHrBacXtQHphkz+uiIXBTeDSQFDHDkHuAJ7B5VCt
QJVCVj8gJafB9YzvQM4q6r1lHa7BVRK0QOR8yb/4NKnBgA/DQAAPvEA3p5PB8K/PQHVEFcA+D3vB
SRzjQJbPBkAdFo7BW3oGQQ/EeMCJ8ZDBAa7yQBq5o8AbGI7BRCPsQGvXMcAuaJDBzJSfQNzi+UDf
u4rB/nGJQFsA2UBFk4PBOs6gQMvynECI8I7BMurOQIftksBJoYbB8DNlQGu5VcDwsJDBKRGTQEC/
AUDQx6PB0P/kQI81AkFDr5TB6fuhQF1tosAqForBz4aMQIRYfkCqWJfBR0yrQDUHOUDmkJvBj2gM
Qcop/z5Zn2zBk5HEQF3X5kCHUJDBwsrSQK54R8CUx4bBZF+6QMQhA0ACqJLBHrZ4QELJtEACQ4rB
tUjfQIo2rkAShJnBNha/QCsLMsC/0GrBtzT+QM5+OUACQ5HBwEd5QIiRmEBM+5/BnrqRQIh3i8Cd
S5PBG+kLQfBAST1s17HBVCyjQBPwM8DrQajBa0KkQKkIMEGFsrXBxz+pQKZlCEFkJLfBJqa8QHxr
QkEiIaXBMxPHQOJE5kCVDKjBBlDaQAc+LUFkBZbBdMK8QFxYgL7jRorBEETkQLUXAEDfG6zBdol3
QGOAFb8pHKPBhsLwQGxKEcDuXa/Bk/8FQXT8sr8WY1/B3UwQQdTBFEAbAn3B2WsTQfhgbsChH4vB
dk8NQQxFfsArBpnBRtzkQBs0ssA3VZXBd0kDQWuBu8Cu7YnBdrT7QKI15r/Yg4/BGt/XQEWDMcAa
mpfB85CIQH/WAkFTtJDBPbaqQIZgCkGyxoXBpbmfQBf6zUCFsHrBd09aQBR950BCln/BnAywQDBC
iUBCuIjBdTLVQDyxnsDl+HzBN8RPQCv5NcD5EpjB6PwtQBdkc8BDr4zBbD2BQG8wJsCAVIvB/NeL
QIXfKECy3qrBHgZqQMZW1j8jLKDB3WkAQcHg8UD8bpfB/ArvQAFmDUGCX47B09WjQEGpxMDDFIzB
SbeLQDvUncByXoPBTP5iQCdnXUAof5PBM6LGQGcQWEDXhp/BXcelQHoAsT/no4/BV2pWQPyaoEBa
xYXBQ1xUQBfiv0CrO5DBehpgQBR7hkCGN6XBLfC2QOiNKUGIjqzB35i6QERlE0Fjca7BrSbDQHsp
MkGymKLBBaPKQGvWBUHoYKbBAQDTQF+jJEHrg5rBsbjaQGRYD76bzITBqkTVQJ4jmT+kBq3BX8mg
QPpH7b54OafBn0zjQD6Ylr+Vrq/Bf94DQdUdBL9eZWrBf/AHQZb7uz+h6X3BrZrnQNo7dr9JjnjB
CxXvQPBdjD/5MIbB7/zWQDJ4DkE/YpzBA6StQFMMYT88NqjBeUPwQIRlKz7Io7DBbWG7QCJ7vr8z
EqvBYjbCQKuYuUBHjpPBnOLRQAoiD8D4CnXBHVziQKLW/j9tAo/BhmrRQH4LhcCDE5TBfhG7QFFI
pMBKoozBKxHpQIHoTsCxcYzBYomhQMcd90BT2InBJTuJQO/t1UDyOIPB4SufQKXQmkAyCo/B4z2v
QK8nicCDzYLBTL85QGhTTsAr8JPB6u+QQFI7/D+gEKTB58LnQP0uAEEJipPB2qCAQN1AccBLVIPB
rKSKQBAse0CdkJfBa+GoQNStNEAZwpvBXrINQRnLLD8RT23BHcPFQBZ740Dhn4/BWBzNQJcXScCK
54LBPX64QLD8+j+T8JLBWHx2QGN7s0BXYorBf2ndQJ73q0DCvZnBune/QF7SGsD2+WPBF9L8QHE7
MUBDsJLBSId4QKe6l0DUPKDB5jh2QAIbNMAW6ovBYSwLQQ4s8T7BJ7XBzzquQN5XMcBofqrBzMKq
QBLyM0GkwLLBKBuxQNzODEHkEbbB+FjAQB0lQ0HeKaHBzn/NQK256UDu06fBkSHcQBM/K0GJ3ZLB
pZzBQNrQ6L7vLIrBOMzeQCaeDkBQ7a3BS4uCQM2UNL+MhKPBufb3QGPv+7+Se7LBJ2YIQah+kb+2
/1zB4xMQQSZKGkCUFoDBNOfnQMLLlcBXZZnBwhG6QBtSZsBn6ZjB2zGeQBqCscDRbZDB76zQQJmR
vsCTYYrB4zMEQZD4acCxS4rBrpPtQFNoD8CAEpDBGX2LQDHCAkEqr4/BRtutQEURCEGyeYTBSlqe
QGTTyECc+3nBYWlaQET35EAe537BdcWtQHulhkDB0YjB55qzQL4/nMBV+3bBxxs1QNCaHMAcJJrB
AjhPQO9WhcCNlpfBl0D1PwHIV8CPOZDBut2GQDcXJ0Blw6rB0iRpQHaNwj9iTaDB/T4BQW4b7UAf
o5bB7RbzQGsyCkEj4YzB2w9WQIfmk8Bbq4TBnChxQOY6UsB5YXfBhM9dQB98W0BP3pPBQ1TEQDNx
U0ALtJ/BoN2jQHXyqD8Rm4/BMlFRQLFln0CVPIbBLKZUQB5kwEDUW5DBmglfQD0yhkD2kKXBUk6w
QHWdJkHwPK/BbWa+QP0hMUGB6aXBUSyzQFQqEEHIAbDB4m3PQGg8JUFCW53BskjEQNg5BEGcdafB
1VrXQACvdL2e/4TBL7PWQD5wfj+ULqvBmoGbQFIW7b5A8KXBpWDdQLkwtr+qBK3B4soBQfBTM7/P
xmvBTnoHQZW/sT9383vBBgjjQLP8gL+2p3rB4fXtQHb6kj+YgoXBbYjSQPzFDkHlF57Bag+tQAqt
Uz+wAKfBkvDuQJSNB74BGq7BnZOzQEMBy7/S/KjBGDDDQGQ9vEAArpPBR8TPQJfIFcCgbHvBNCrj
QJFvB0BE9I3BxEwHQT3/eMBV2ZDB8NPzQInLo8DrTo7BiLjtQNUpMsDfbpDBcdGfQK0G+kDMtYrB
lomJQHUc2UD/lYPB3QWhQFwdnUAD8Y7BZnjQQDJEk8BksobBUqNlQDqpWMDsUpDBuAOTQC9kAUCj
p6PBKvfkQO1QAkEMxZTBvW+jQLEro8BH5InBPMSMQOd0fkAAUpfB6nirQAXwOEBigZvBUmUMQZEE
9j5BlWzBZ8LEQEz/5kBQUpDBt8XTQDQYSMDK6obBopC6QPY7A0DOlpLBRgx5QMbvtEBtSorBTjzf
QAFyrkCAmpnBqt2+QAvKMsCeSGvBwOv9QDmMO0Dy8JDB8Nh5QEp7mECb/J/BcWeSQBtZjMBWCJPB
wYYLQWCe2zxF8bHB2qiiQGKdNMBm86fBZkqjQHrEL0H+zbXBuiG8QA9WQkF/VKXB70CoQKQdCEH2
JbfBQCbaQIRTLUExNZbB34fGQPYL5kByDajBpEq9QG6mgr7qc4rBpOTjQKsU/j8EIqzBAyx3QKqx
Fr9iyKLBSffvQCt9EsBQR6/B09wFQYKttb8mil/B8VQQQTMnFEBmtnzBr+gTQRJOb8CJ1IrBTZcO
QS/KfcD81ZjBU7blQMolscBmpZXBCrEDQSFlvMADWIrB9i79QAPO5r9EdY/B7O7ZQPa/McD6tZfB
YteIQAEBA0F7qpDByQqrQGlhCkGDuIXBebWfQJ0KzkAsrHrBVmVaQE+a50AjqH/Bek2wQDyIiUC8
tIjB+IXXQCrLnsBzJH3BehRPQEIVOcCIqpfB7UIvQNxld8C8Q4zBuD+BQLnFKMAI+orBIbWLQCRA
KEAEw6rBW/9pQDpK1j+Y/p/BWGcAQW0o8kCYiZfByA7vQIeUDUEVf47BJlylQG1pxcDL34vB5qyN
QBqnnsBSEYPBrmhjQCyzXUDDdZPBqcfGQDawV0A/g5/BnhCmQHWBsD9unI/Bk51WQHy+oEDN0YXB
Kd5UQFEQwEBWRpDB4bFgQB9PhkCXNKXB

> <OMEGA_E>
KLa6PqQu8j5csLo+

> <OMEGA_NBR>
     15661

$$$$
50147888
  -OEChem-04172616093D

 75 77  0     1  0  0  0  0  0999 V2000
    6.8377   -0.1537  -16.6508 C   0  0  0  0  0  0  0  0  0  0  0  0
    8.3789    1.4569  -15.6644 C   0  0  0  0  0  0  0  0  0  0  0  0
    8.1166   -0.7468  -14.6590 C   0  0  0  0  0  0  0  0  0  0  0  0
    6.8562    1.0630  -21.3161 C   0  0  0  0  0  0  0  0  0  0  0  0
    5.0565   -0.4472  -20.6440 C   0  0  0  0  0  0  0  0  0  0  0  0
    7.1712   -1.3509  -21.4575 C   0  0  0  0  0  0  0  0  0  0  0  0
    7.4394    1.1212  -16.6639 C   0  0  0  0  0  0  0  0  0  0  0  0
    7.2097   -1.0999  -15.6736 C   0  0  0  0  0  0  0  0  0  0  0  0
    8.6898    0.5364  -14.6436 C   0  0  0  0  0  0  0  0  0  0  0  0
    5.5498    0.8618  -20.8172 C   0  0  0  0  0  0  0  0  0  0  0  0
    7.6680   -0.0430  -21.6273 C   0  0  0  0  0  0  0  0  0  0  0  0
    5.8641   -1.5513  -20.9698 C   0  0  0  0  0  0  0  0  0  0  0  0
    6.0915    5.9962  -18.5509 C   0  0  0  0  0  0  0  0  0  0  0  0
    7.0927    2.0907  -17.7152 C   0  0  0  0  0  0  0  0  0  0  0  0
    6.6182   -2.4390  -15.6744 C   0  0  0  0  0  0  0  0  0  0  0  0
    4.9340    7.9664  -17.5620 C   0  0  0  0  0  0  0  0  0  0  0  0
    4.2975    6.9780  -16.5760 C   0  0  0  0  0  0  0  0  0  0  0  0
    5.0639    5.0121  -17.8874 C   0  0  2  0  0  0  0  0  0  0  0  0
    9.7013    0.8929  -13.5803 C   0  0  0  0  0  0  0  0  0  0  0  0
    9.2021   -4.7769  -17.1434 C   0  0  0  0  0  0  0  0  0  0  0  0
    3.5054   -4.8342  -17.9797 C   0  0  0  0  0  0  0  0  0  0  0  0
    4.6835    2.0432  -20.4424 C   0  0  0  0  0  0  0  0  0  0  0  0
    9.0446   -3.3257  -17.6310 C   0  0  0  0  0  0  0  0  0  0  0  0
    4.4369   -3.7398  -17.4832 C   0  0  0  0  0  0  0  0  0  0  0  0
    7.5796   -3.0065  -17.9595 C   0  0  0  0  0  0  0  0  0  0  0  0
    5.7293   -4.3655  -16.9472 C   0  0  0  0  0  0  0  0  0  0  0  0
    4.4142    4.0087  -18.8729 C   0  0  2  0  0  0  0  0  0  0  0  0
    5.3832    2.9227  -19.3849 C   0  0  1  0  0  0  0  0  0  0  0  0
    6.0808    7.3471  -18.2310 N   0  0  0  0  0  0  0  0  0  0  0  0
    5.8152    2.0698  -18.2636 N   0  0  0  0  0  0  0  0  0  0  0  0
    6.6913   -3.2773  -16.8000 N   0  0  0  0  0  0  0  0  0  0  0  0
    3.9158    5.7555  -17.3021 N   0  3  0  0  0  0  0  0  0  0  0  0
    7.0226    5.5796  -19.2277 O   0  0  0  0  0  0  0  0  0  0  0  0
    7.9296    2.9038  -18.0919 O   0  0  0  0  0  0  0  0  0  0  0  0
    5.9912   -2.7860  -14.6783 O   0  0  0  0  0  0  0  0  0  0  0  0
    3.8548    4.7353  -19.9671 O   0  0  0  0  0  0  0  0  0  0  0  0
    8.9233    0.1516  -22.0903 F   0  0  0  0  0  0  0  0  0  0  0  0
    5.3834   -2.8045  -20.8149 F   0  0  0  0  0  0  0  0  0  0  0  0
    6.0914   -0.4059  -17.3897 H   0  0  0  0  0  0  0  0  0  0  0  0
    8.8612    2.4231  -15.6825 H   0  0  0  0  0  0  0  0  0  0  0  0
    8.3730   -1.4617  -13.8912 H   0  0  0  0  0  0  0  0  0  0  0  0
    7.2315    2.0656  -21.4586 H   0  0  0  0  0  0  0  0  0  0  0  0
    4.0586   -0.6021  -20.2611 H   0  0  0  0  0  0  0  0  0  0  0  0
    7.7924   -2.2001  -21.7012 H   0  0  0  0  0  0  0  0  0  0  0  0
    4.1880    8.2585  -18.3158 H   0  0  0  0  0  0  0  0  0  0  0  0
    5.2712    8.8590  -17.0148 H   0  0  0  0  0  0  0  0  0  0  0  0
    5.0212    6.7272  -15.7864 H   0  0  0  0  0  0  0  0  0  0  0  0
    3.4039    7.4324  -16.1234 H   0  0  0  0  0  0  0  0  0  0  0  0
    5.5802    4.4483  -17.0965 H   0  0  0  0  0  0  0  0  0  0  0  0
    9.1859    1.3445  -12.7198 H   0  0  0  0  0  0  0  0  0  0  0  0
   10.2281   -0.0166  -13.2559 H   0  0  0  0  0  0  0  0  0  0  0  0
   10.4271    1.6104  -13.9907 H   0  0  0  0  0  0  0  0  0  0  0  0
   10.2601   -4.9752  -16.9165 H   0  0  0  0  0  0  0  0  0  0  0  0
    8.5984   -4.9263  -16.2361 H   0  0  0  0  0  0  0  0  0  0  0  0
    8.8603   -5.4667  -17.9290 H   0  0  0  0  0  0  0  0  0  0  0  0
    2.5791   -4.3818  -18.3636 H   0  0  0  0  0  0  0  0  0  0  0  0
    3.9989   -5.3982  -18.7849 H   0  0  0  0  0  0  0  0  0  0  0  0
    3.2643   -5.5148  -17.1498 H   0  0  0  0  0  0  0  0  0  0  0  0
    4.4882    2.6466  -21.3411 H   0  0  0  0  0  0  0  0  0  0  0  0
    3.7308    1.6763  -20.0329 H   0  0  0  0  0  0  0  0  0  0  0  0
    9.3925   -2.6424  -16.8424 H   0  0  0  0  0  0  0  0  0  0  0  0
    9.6544   -3.1828  -18.5353 H   0  0  0  0  0  0  0  0  0  0  0  0
    4.6770   -3.0594  -18.3135 H   0  0  0  0  0  0  0  0  0  0  0  0
    3.9424   -3.1760  -16.6784 H   0  0  0  0  0  0  0  0  0  0  0  0
    7.4975   -1.9441  -18.2324 H   0  0  0  0  0  0  0  0  0  0  0  0
    7.2596   -3.6288  -18.8082 H   0  0  0  0  0  0  0  0  0  0  0  0
    5.5443   -4.8425  -15.9734 H   0  0  0  0  0  0  0  0  0  0  0  0
    6.1103   -5.1152  -17.6563 H   0  0  0  0  0  0  0  0  0  0  0  0
    3.6030    3.4980  -18.3333 H   0  0  0  0  0  0  0  0  0  0  0  0
    6.2563    3.4092  -19.8443 H   0  0  0  0  0  0  0  0  0  0  0  0
    6.8740    7.9102  -18.4625 H   0  0  0  0  0  0  0  0  0  0  0  0
    5.1476    1.4363  -17.8724 H   0  0  0  0  0  0  0  0  0  0  0  0
    3.4401    5.1481  -16.6658 H   0  0  0  0  0  0  0  0  0  0  0  0
    3.2965    6.0118  -18.0443 H   0  0  0  0  0  0  0  0  0  0  0  0
    3.4533    4.1289  -20.5783 H   0  0  0  0  0  0  0  0  0  0  0  0
  1  7  1  0  0  0  0
  1  8  2  0  0  0  0
  2  7  2  0  0  0  0
  2  9  1  0  0  0  0
  3  8  1  0  0  0  0
  3  9  2  0  0  0  0
  4 10  1  0  0  0  0
  4 11  2  0  0  0  0
  5 10  2  0  0  0  0
  5 12  1  0  0  0  0
  6 11  1  0  0  0  0
  6 12  2  0  0  0  0
  7 14  1  0  0  0  0
  8 15  1  0  0  0  0
  9 19  1  0  0  0  0
 10 22  1  0  0  0  0
 11 37  1  0  0  0  0
 12 38  1  0  0  0  0
 13 18  1  0  0  0  0
 13 29  1  0  0  0  0
 13 33  2  0  0  0  0
 14 30  1  0  0  0  0
 14 34  2  0  0  0  0
 15 31  1  0  0  0  0
 15 35  2  0  0  0  0
 16 17  1  0  0  0  0
 16 29  1  0  0  0  0
 17 32  1  0  0  0  0
 18 27  1  0  0  0  0
 18 32  1  0  0  0  0
 20 23  1  0  0  0  0
 21 24  1  0  0  0  0
 22 28  1  0  0  0  0
 23 25  1  0  0  0  0
 24 26  1  0  0  0  0
 25 31  1  0  0  0  0
 26 31  1  0  0  0  0
 27 28  1  0  0  0  0
 27 36  1  0  0  0  0
 28 30  1  0  0  0  0
  1 39  1  0  0  0  0
  2 40  1  0  0  0  0
  3 41  1  0  0  0  0
  4 42  1  0  0  0  0
  5 43  1  0  0  0  0
  6 44  1  0  0  0  0
 16 45  1  0  0  0  0
 16 46  1  0  0  0  0
 17 47  1  0  0  0  0
 17 48  1  0  0  0  0
 18 49  1  0  0  0  0
 19 50  1  0  0  0  0
 19 51  1  0  0  0  0
 19 52  1  0  0  0  0
 20 53  1  0  0  0  0
 20 54  1  0  0  0  0
 20 55  1  0  0  0  0
 21 56  1  0  0  0  0
 21 57  1  0  0  0  0
 21 58  1  0  0  0  0
 22 59  1  0  0  0  0
 22 60  1  0  0  0  0
 23 61  1  0  0  0  0
 23 62  1  0  0  0  0
 24 63  1  0  0  0  0
 24 64  1  0  0  0  0
 25 65  1  0  0  0  0
 25 66  1  0  0  0  0
 26 67  1  0  0  0  0
 26 68  1  0  0  0  0
 27 69  1  0  0  0  0
 28 70  1  0  0  0  0
 29 71  1  0  0  0  0
 30 72  1  0  0  0  0
 32 73  1  0  0  0  0
 32 74  1  0  0  0  0
 36 75  1  0  0  0  0
M  CHG  1  32   1
M  END
> <OMEGA_C>
O87aQE5pHb7dNIXBFRAGQed7uj9/oXrBqN0BQRIrP79Ai2rB+GXbQDQQiD9wh6rBIs+hQDDx5L7T
JqXBHHrlQHrrrL/wqKvBLw/uQIGEjz+UT4XBsLXmQDbJjL/exnrBSQkLQfhTCT9bTGrBFJixQDac
XD+PiabB3V/1QNxLML2zBK3B+Ka7QL2Pxr8/wqfBNu3CQADhv0BUaJTBhvfiQP/NBUCvuI3B/cfT
QOwXHMA9ynrB8OKdQKzs/kD8fozBeIWJQNlL30CRm4TBQwuiQDRjoEBVGY/BnjgbQaKXZD/PSFnB
/TsTQS/cmMCkJYnBMlhgQCaymsBv1o/Bht+VQD7EAkD2iaPBg7YQQRfYVMBdDI3BGvuNQE1Zb8CT
3YvB4YvyQHlqQMAWrY/Bgla3QNCxi8DVk4fBAUGNQFxHgECt+5bBWUOsQJ4NO0BBFJvBu5XCQBkb
60AV2ZHB9BW6QOJ3BEDBG5LBHR/WQEi/UcBXZobBrpt6QEUtuEChaorB17jgQPGLskBG0pnBHb/9
QBbXOUBFvJDBjbe/QA5NMsAd2mrBMrV2QOuHl0CvvJ/BwcUOQT5AGz77uLDBpkSsQA59M8DjhKbB
Ce3CQNXSz74SHovBrccNQUoTG0B/63rBpPcFQbcZu79gQl7BnGjnQOEyBEBEq6vBYOCBQGYiGr+t
FqLBDFv5QMzODMADnK3BHASGQPMiBEHDhpLB9q2oQIC+DUE8HojBwq2gQDNF10AdlXzBGdlZQIPW
7UCf/IDBH5GyQCFYjkClxYjBX/kSQSkarD9rhEvBeqYjQcDlh7wsGFTBftUmQcAizj+72V/BOikk
QXc0n8DpVIfBH5MJQQCkncB944HBl8MNQXLvrsCcbo/BLRAlQBY4jMCa6JLB8O1/QHS+rMB7R5bB
6upQQHV5sMDUMonBk5+PQF9iKUCduqrBdsVuQMuP1j9xQ6DB10cWQXkcKcAzvYbBT3gaQV2zS8BS
SJTB66mVQAXOQ8AWgpLB0VB8QAZES8BvbYXB2+vvQMfW+L8E3JHBT07oQPk+aMA1d5bBEmuxQLP1
msAhk3/BV4fDQFmvo8ARQI3BIZdmQGzfX0CpqpLBpjPIQEcwWkAdwZ7BAvjbQL4g/UAhs5PBSbmk
QFjXtz/E+o7BUypcQKC9pECQU4XBR/pSQENgwEC4WpDBuwJdQCkghEBioKTBWmHYQJmJWb7ik4XB
7BAGQSkcrD8axnvBwgABQU5RWr+XvWvBBVnZQKZDgz8XuKrByjOfQEzm6r5QQqXBDgriQPYysr+F
B6zBPQftQIKnhT+PuIXBip/jQCoJlr/DlnvB6PEKQWu10T6op2vBtZmvQOiRVz8uoqbBFaTyQAqs
u70KVK3BPzi4QNVYyb9FDajBrxLEQGRLvkAAQJTBCDTiQPEvAkBU/Y3BX1DPQIIKIMAQZXvBXEeh
QGaI/UCJ1IvBTO+LQAKr3UCIKYTBpIqiQDs/n0DdB4/B5L0bQVYcOz8wB1vBLxdvQDyzX8BR2IzB
ggkWQZqCi8CTGYjBc3eUQLcnAkCPk6PBPhCWQJr1lcCCgI7B5toHQQ0bhcDACpLBN4K6QPzqlcAF
O4bB1CvtQPP9RcD9/o/BZRaNQA/of0Ca/pbBqHarQAGuOUCGKZvBGzXFQDcv6UDrYZHBJiG5QKuj
AkDIPZLBYqPSQCKZWcC/YIbBXu18QMeyt0AvQ4rBLufgQGDPsEBT9ZnBuzf9QJjuNUAl9ZDBX6K8
QJ4HNcDO9GrB+IJ3QHvjl0BKs5/BlmMNQdhCrz0BHbHBWPanQItMNMBN66bBWf2/QF+J4L7obIvB
QkAOQf3oEkAqKHzBcAgFQbQxyr+NnF/BV9XlQHV1AUCa1qvBPNV+QOWFGb9oD6LBMVv1QHADEMDP
FK7BlaaJQLM3BEGdwZHBUxutQJ6TDEH2PofBvteiQIMm1EBy1nvBGKpfQJ6u7ED1a4DBpLSyQM2S
jECswojBAxUUQQ5QmT+oDU3Bvs8jQeTNSL4kEFbBqI8nQeJetj+s3mHBQfI7QF7eYcDb4pLBM7xS
QKtEY8B/zYTBYX6JQMp9I8DkqI3BLDYiQfkDpMAFyonBsvYdQXFLWsBXEobBihEMQcHvlcAJVYHB
pkCOQD8AKUDJv6rBMdtrQB7g1j8VP6DBVdCDQCPls8Czt43BnPCjQLMBlMAYk5bB2e4RQVKkdcBj
yJjBsQkAQTKco8AUC5TBmtSsQACwmsCoa3zBDafQQCtGsMB/EYjBKuz8QFbCB8AKzo7B0xXYQBCT
QsCLB5fB05JlQFnmX0B1upLB9oHHQLQVWEDq4Z7B/h7fQMiV+kAdJZPB6HyjQJwjtj+uCY/BdM1c
QOg+pEAvV4XBfUtWQAVBwUAgLZDBPwRdQNfwhECcoqTB

> <OMEGA_E>
sLjiPrg5mT4=

> <OMEGA_NBR>
     18351

$$$$
50147879
  -OEChem-04172616093D

 87 89  0     1  0  0  0  0  0999 V2000
    6.7518   -0.1771  -16.6871 C   0  0  0  0  0  0  0  0  0  0  0  0
    8.3820    1.3767  -15.7436 C   0  0  0  0  0  0  0  0  0  0  0  0
    8.0177   -0.7917  -14.6935 C   0  0  0  0  0  0  0  0  0  0  0  0
    6.8200    1.0335  -21.3572 C   0  0  0  0  0  0  0  0  0  0  0  0
    4.9936   -0.4430  -20.6816 C   0  0  0  0  0  0  0  0  0  0  0  0
    7.0856   -1.3852  -21.5075 C   0  0  0  0  0  0  0  0  0  0  0  0
    7.4170    1.0681  -16.7277 C   0  0  0  0  0  0  0  0  0  0  0  0
    7.0796   -1.1211  -15.6911 C   0  0  0  0  0  0  0  0  0  0  0  0
    8.6586    0.4607  -14.7094 C   0  0  0  0  0  0  0  0  0  0  0  0
    5.5117    0.8547  -20.8554 C   0  0  0  0  0  0  0  0  0  0  0  0
    7.6092   -0.0868  -21.6728 C   0  0  0  0  0  0  0  0  0  0  0  0
    5.7751   -1.5604  -21.0176 C   0  0  0  0  0  0  0  0  0  0  0  0
    6.0685    5.9832  -18.5658 C   0  0  0  0  0  0  0  0  0  0  0  0
    7.1036    2.0339  -17.7924 C   0  0  0  0  0  0  0  0  0  0  0  0
    6.4479   -2.4507  -15.6756 C   0  0  0  0  0  0  0  0  0  0  0  0
    4.9076    7.8441  -17.3536 C   0  0  0  0  0  0  0  0  0  0  0  0
    4.4103    6.7617  -16.4025 C   0  0  0  0  0  0  0  0  0  0  0  0
    5.0966    4.9484  -17.9027 C   0  0  2  0  0  0  0  0  0  0  0  0
    9.7078    0.7834  -13.6699 C   0  0  0  0  0  0  0  0  0  0  0  0
    3.7368   -3.3854  -17.6238 C   0  0  0  0  0  0  0  0  0  0  0  0
    9.3385   -4.3505  -16.9890 C   0  0  0  0  0  0  0  0  0  0  0  0
    5.9269    8.4125  -21.3606 C   0  0  0  0  0  0  0  0  0  0  0  0
    6.5047   10.5694  -20.1831 C   0  0  0  0  0  0  0  0  0  0  0  0
    4.6666    2.0471  -20.4817 C   0  0  0  0  0  0  0  0  0  0  0  0
    4.6588   -4.6063  -17.8026 C   0  0  0  0  0  0  0  0  0  0  0  0
    8.4481   -4.1324  -18.2258 C   0  0  0  0  0  0  0  0  0  0  0  0
    6.7889    8.3754  -18.9494 C   0  0  0  0  0  0  0  0  0  0  0  0
    5.7824   -4.6241  -16.7524 C   0  0  0  0  0  0  0  0  0  0  0  0
    7.3919   -3.0471  -17.9586 C   0  0  0  0  0  0  0  0  0  0  0  0
    4.4230    3.9966  -18.9114 C   0  0  2  0  0  0  0  0  0  0  0  0
    5.9407    9.1479  -20.0048 C   0  0  0  0  0  0  0  0  0  0  0  0
    5.3837    2.9138  -19.4321 C   0  0  1  0  0  0  0  0  0  0  0  0
    5.9847    7.3498  -18.2410 N   0  0  0  0  0  0  0  0  0  0  0  0
    5.8141    2.0603  -18.3113 N   0  0  0  0  0  0  0  0  0  0  0  0
    6.5542   -3.3501  -16.7605 N   0  0  0  0  0  0  0  0  0  0  0  0
    3.9780    5.6264  -17.2152 N   0  3  0  0  0  0  0  0  0  0  0  0
    6.9741    5.5825  -19.2889 O   0  0  0  0  0  0  0  0  0  0  0  0
    7.9717    2.7961  -18.2050 O   0  0  0  0  0  0  0  0  0  0  0  0
    5.8715   -2.7828  -14.6453 O   0  0  0  0  0  0  0  0  0  0  0  0
    3.8820    4.7608  -19.9900 O   0  0  0  0  0  0  0  0  0  0  0  0
    8.8676    0.0852  -22.1365 F   0  0  0  0  0  0  0  0  0  0  0  0
    5.2647   -2.8022  -20.8661 F   0  0  0  0  0  0  0  0  0  0  0  0
    5.9916   -0.4068  -17.4190 H   0  0  0  0  0  0  0  0  0  0  0  0
    8.9097    2.3181  -15.7841 H   0  0  0  0  0  0  0  0  0  0  0  0
    8.2458   -1.5030  -13.9135 H   0  0  0  0  0  0  0  0  0  0  0  0
    7.2136    2.0293  -21.4983 H   0  0  0  0  0  0  0  0  0  0  0  0
    3.9962   -0.5789  -20.2904 H   0  0  0  0  0  0  0  0  0  0  0  0
    7.6884   -2.2460  -21.7564 H   0  0  0  0  0  0  0  0  0  0  0  0
    4.0657    8.1863  -17.9735 H   0  0  0  0  0  0  0  0  0  0  0  0
    5.2937    8.6871  -16.7618 H   0  0  0  0  0  0  0  0  0  0  0  0
    5.2224    6.4528  -15.7278 H   0  0  0  0  0  0  0  0  0  0  0  0
    3.5656    7.1422  -15.8094 H   0  0  0  0  0  0  0  0  0  0  0  0
    5.6672    4.3496  -17.1776 H   0  0  0  0  0  0  0  0  0  0  0  0
    9.2327    1.2783  -12.8100 H   0  0  0  0  0  0  0  0  0  0  0  0
   10.1914   -0.1466  -13.3362 H   0  0  0  0  0  0  0  0  0  0  0  0
   10.4630    1.4531  -14.1070 H   0  0  0  0  0  0  0  0  0  0  0  0
    2.9477   -3.4059  -18.3898 H   0  0  0  0  0  0  0  0  0  0  0  0
    3.2784   -3.4156  -16.6243 H   0  0  0  0  0  0  0  0  0  0  0  0
    4.3261   -2.4626  -17.7292 H   0  0  0  0  0  0  0  0  0  0  0  0
   10.0838   -5.1299  -17.2059 H   0  0  0  0  0  0  0  0  0  0  0  0
    9.8529   -3.4113  -16.7374 H   0  0  0  0  0  0  0  0  0  0  0  0
    8.7149   -4.6660  -16.1395 H   0  0  0  0  0  0  0  0  0  0  0  0
    5.5229    7.3986  -21.2242 H   0  0  0  0  0  0  0  0  0  0  0  0
    5.2958    8.9661  -22.0714 H   0  0  0  0  0  0  0  0  0  0  0  0
    6.9524    8.3488  -21.7534 H   0  0  0  0  0  0  0  0  0  0  0  0
    6.5110   11.0864  -19.2122 H   0  0  0  0  0  0  0  0  0  0  0  0
    7.5314   10.5101  -20.5735 H   0  0  0  0  0  0  0  0  0  0  0  0
    5.8747   11.1274  -20.8915 H   0  0  0  0  0  0  0  0  0  0  0  0
    4.4772    2.6516  -21.3809 H   0  0  0  0  0  0  0  0  0  0  0  0
    3.7098    1.6961  -20.0676 H   0  0  0  0  0  0  0  0  0  0  0  0
    4.0604   -5.5238  -17.7011 H   0  0  0  0  0  0  0  0  0  0  0  0
    5.1082   -4.5708  -18.8060 H   0  0  0  0  0  0  0  0  0  0  0  0
    9.0779   -3.8211  -19.0723 H   0  0  0  0  0  0  0  0  0  0  0  0
    7.9400   -5.0758  -18.4744 H   0  0  0  0  0  0  0  0  0  0  0  0
    7.6278    7.8799  -19.4602 H   0  0  0  0  0  0  0  0  0  0  0  0
    7.1802    9.0925  -18.2128 H   0  0  0  0  0  0  0  0  0  0  0  0
    5.3387   -4.7674  -15.7561 H   0  0  0  0  0  0  0  0  0  0  0  0
    6.4653   -5.4577  -16.9731 H   0  0  0  0  0  0  0  0  0  0  0  0
    7.9047   -2.0874  -17.7975 H   0  0  0  0  0  0  0  0  0  0  0  0
    6.7356   -2.9690  -18.8379 H   0  0  0  0  0  0  0  0  0  0  0  0
    3.6012    3.4867  -18.3874 H   0  0  0  0  0  0  0  0  0  0  0  0
    4.9077    9.2223  -19.6344 H   0  0  0  0  0  0  0  0  0  0  0  0
    6.2562    3.3967  -19.8964 H   0  0  0  0  0  0  0  0  0  0  0  0
    5.1321    1.4588  -17.8953 H   0  0  0  0  0  0  0  0  0  0  0  0
    3.5215    4.9645  -16.6206 H   0  0  0  0  0  0  0  0  0  0  0  0
    3.3329    5.9555  -17.9047 H   0  0  0  0  0  0  0  0  0  0  0  0
    3.4658    4.1779  -20.6142 H   0  0  0  0  0  0  0  0  0  0  0  0
  1  7  1  0  0  0  0
  1  8  2  0  0  0  0
  2  7  2  0  0  0  0
  2  9  1  0  0  0  0
  3  8  1  0  0  0  0
  3  9  2  0  0  0  0
  4 10  1  0  0  0  0
  4 11  2  0  0  0  0
  5 10  2  0  0  0  0
  5 12  1  0  0  0  0
  6 11  1  0  0  0  0
  6 12  2  0  0  0  0
  7 14  1  0  0  0  0
  8 15  1  0  0  0  0
  9 19  1  0  0  0  0
 10 24  1  0  0  0  0
 11 41  1  0  0  0  0
 12 42  1  0  0  0  0
 13 18  1  0  0  0  0
 13 33  1  0  0  0  0
 13 37  2  0  0  0  0
 14 34  1  0  0  0  0
 14 38  2  0  0  0  0
 15 35  1  0  0  0  0
 15 39  2  0  0  0  0
 16 17  1  0  0  0  0
 16 33  1  0  0  0  0
 17 36  1  0  0  0  0
 18 30  1  0  0  0  0
 18 36  1  0  0  0  0
 20 25  1  0  0  0  0
 21 26  1  0  0  0  0
 22 31  1  0  0  0  0
 23 31  1  0  0  0  0
 24 32  1  0  0  0  0
 25 28  1  0  0  0  0
 26 29  1  0  0  0  0
 27 31  1  0  0  0  0
 27 33  1  0  0  0  0
 28 35  1  0  0  0  0
 29 35  1  0  0  0  0
 30 32  1  0  0  0  0
 30 40  1  0  0  0  0
 32 34  1  0  0  0  0
  1 43  1  0  0  0  0
  2 44  1  0  0  0  0
  3 45  1  0  0  0  0
  4 46  1  0  0  0  0
  5 47  1  0  0  0  0
  6 48  1  0  0  0  0
 16 49  1  0  0  0  0
 16 50  1  0  0  0  0
 17 51  1  0  0  0  0
 17 52  1  0  0  0  0
 18 53  1  0  0  0  0
 19 54  1  0  0  0  0
 19 55  1  0  0  0  0
 19 56  1  0  0  0  0
 20 57  1  0  0  0  0
 20 58  1  0  0  0  0
 20 59  1  0  0  0  0
 21 60  1  0  0  0  0
 21 61  1  0  0  0  0
 21 62  1  0  0  0  0
 22 63  1  0  0  0  0
 22 64  1  0  0  0  0
 22 65  1  0  0  0  0
 23 66  1  0  0  0  0
 23 67  1  0  0  0  0
 23 68  1  0  0  0  0
 24 69  1  0  0  0  0
 24 70  1  0  0  0  0
 25 71  1  0  0  0  0
 25 72  1  0  0  0  0
 26 73  1  0  0  0  0
 26 74  1  0  0  0  0
 27 75  1  0  0  0  0
 27 76  1  0  0  0  0
 28 77  1  0  0  0  0
 28 78  1  0  0  0  0
 29 79  1  0  0  0  0
 29 80  1  0  0  0  0
 30 81  1  0  0  0  0
 31 82  1  0  0  0  0
 32 83  1  0  0  0  0
 34 84  1  0  0  0  0
 36 85  1  0  0  0  0
 36 86  1  0  0  0  0
 40 87  1  0  0  0  0
M  CHG  1  36   1
M  END
> <OMEGA_C>
/Q7YQChRNb4bf4XBoBwGQZM2sD/q5XvBZEgAQV+tSr+TGGvBCT3aQEBKhD+B26rBc8ufQLDO4r7+
c6XB1LziQCxOsb9zD6zBF1jtQP+1iD870oXBZ4ziQMh+j7/fDnvBcIkKQSDe6z63WWvB61+wQNDK
Wj/h16bBUn7zQHTPsb3VYa3B+824QMe8x78HJKjBKzHCQJN2v0DOhpTBp1DjQAosAkDYVo7BO1XO
QNLYHMBlz3rBrQqdQIoC+0BG1IrBfiGNQMFf2EBBOIPBDBejQLBZnkDAOI/B9FIbQemLSD/At1rB
fihvQAqrWMB7/YzBjGoVQX03i8B06YfBg6m9QMiZBkFq4qrBMSbQQC0cKUESd6HBfVSVQF8DA0B2
2qPBvhSVQDBnk8C1a47BmSsHQZY8hMCFzpHB9D7ZQHYBBkFymJfBFgm5QJH4k8DrBIbBs4rsQMID
Q8BLq4/BV4mNQB3If0CmSpfBnhq+QLBdEkHuCaDBVkesQDB7OkDzdJvBpIK/QOcx60Ck7ZHBxwy6
QHncA0CVfZLB+rvRQPxnVsB9FYbBppd+QBULtEC7uInB6yvfQNijskCzT5rBaRj/QFnzMkDUo5HB
beO7QPsYMsBTU2rBjnJ4QCFYmEB+65/Bg+ENQeRwrj2fF7HBbnioQM1XM8Cx7abBWbu/QKtJ0L4R
WovBT44OQTxbFECQi3zB5O4DQbZjwL/TnV7BdNXmQO3fAUBw/KvBAcF/QP0vFL+6UqLBeAf2QBi/
D8AJDa7BcBqCQEL7AkGoyY/Bu2WpQCz+CkEuGIbBvh2nQKR9zkABpXvBQDNkQJ2M5EBl83zBDlq1
QBkwi0DNa4nBEbkTQeegoz/b9UzB6Q8jQQEUFr5AYVXBjmgnQWD+uT80tmHB0qY8QHH6WcBPHpPB
D9FRQBaZWsCa/oTBoG+KQCybHcBY1Y3BZ1chQSAopMDApYnBeKUdQfZSWsA45oXBYnALQcxPlcCy
HYHB1buwQPLA7EAmy6nB83apQAN1D0EhkrDBPHreQH2UBUH0Bq7BwlnQQLphMUGfspnB3wDxQHUp
KEGMlqTBl/27QPsJMkG5IafB+USPQGm0KUAeDKvBoW1tQMYa2T9piqDB5+6BQLLCsMDrm43B/3Wj
QL1DksCocpbBIT8RQeCMdMAPlJjBFRT+QMJsosCKy5PB2Rb0QBYo/EBprpvBEsTlQAh7EUHls5HB
7daqQMaOmMDpGHzB5ePOQF2lrsDRyIfBRvP8QGaXBcA8YY7BsonXQI4EPsD/s5bBHnpmQAkmX0Bh
GZPB0wudQLaOE0EzE53B1jLIQHpjWUC8K5/BEjqkQP66uj95KY/BQmBhQOLcnkAR94TBzE1VQJST
vkDlPI/BWtBdQESxhUDJ6aTBHCTaQISp7L2E84XBWqQIQbvPtD/8+H7BKL4CQUL2Nr9z42zB5ePX
QJqQjD9UjazBMmihQDG61b6cfaXBpCjjQBkFqL/dKa3B9GPwQGijjT9p2YbBvxXlQL/9g7/+rnvB
8/cNQUOh/z5/o27B66uvQDCOYz8Vs6fB+LzxQACRPLv7Nq/BE926QNY4wr/iWqjBqFfAQKTgvEAn
E5TBpPXkQJxnA0CeYY/B0PHNQGxRE8Ckq3nBHMCVQEGC9kDuDovBJPCMQDnS00Cgw4LBzXCjQKo0
mkBk747BPt0eQfLjWT8kR17BMyprQFdHWMAGBo7B8FATQQmCisBk3IXB21P/QFP1CEHv/YrBCBMB
QSEMH0HW2pvBcHaUQGb+A0AdeqTBwIWSQAvrk8AFR43BxtgEQRFjiMCyzI/B+PLHQOpABEHVFJrB
tuKyQF+1j8BtD4TBnvXoQKm1R8C8047BJHONQMRefUDMhpfBzwb3QL78CEHgN5fBvROsQAsXOkAa
GZzB6TK1QJQI6EBbF5PBuV+7QF7EAkAnW5PBvmDNQH2ZUMAHIIXBjz6AQL1JrUBum4jBMFveQPor
skA/z5nB7/3/QELINEBh6pLBBoC7QBO7IMCYrmjB3Mp6QKCTmUBj4Z/BKzwMQZyoSz4rwbPBLFKs
QBdEMcAYkqbBCbDAQFzSsr4RfYvB3CcRQVNXFkBjHoDBBZAGQeTjs79QKmDBLMjiQBGEBkA0N67B
fvOCQFS7Er8CmqHBFN72QLA2CsDYRq/BbUlvQNKr/kC0Io/BuFuiQBmECUEg+obBLPypQJ58zUDp
GnzBcPplQLz+3UBxx3rBoyq3QJaBhUCCzYnBXGEXQeqBsD90xVDBS4gmQf3Tjr1OdVjBt/sqQRYF
wD+ismXBILc9QBc4YMCWq5TBpaBHQCuMUMAdfYbBAGiJQAA5H8A9cY/BZdceQWbcpMA9xYbBpAMc
QQs2WMCt/YTB2XAJQcAQkMDAa33Ba1j3QJ9K8kDdrofBPaEQQVh9DEGadInB40XrQH45FUHRKIfB
1D38QJUKH0Gwh6TBZBjuQJFSK0FwB5jBfQoSQWuWIkE5U5rBYLeNQFySK0B7jqvBpV5sQGdT2T/F
EKHBYe58QB1QsMCX5YvB3g6kQIiml8C32ZTBu9MOQU/2gsCA65bB4YH4QAnspsCzo5DBW1W1QNwc
E0F3UZnB93DGQNoU/UB3ZaLBJVmhQONujsCv33jBaRnIQCfMq8BBGoTBk0n6QD6LCsB+XI7BBmjU
QGryR8Cc+JXBmS9lQKKPW0ABuJPBacgFQbOs+UB9+5rBqUzHQMmJWkC17Z/BtX2mQIEhtD+LD5DB
PvVrQNmJl0B5VIPBu8dQQDvntECYlo3Bxq1fQKx4iECvK6XB

> <OMEGA_E>
YC1TPhBGuT4=

> <OMEGA_NBR>
     21377

$$$$
248245
  -OEChem-04172616093D

 86 91  0     1  0  0  0  0  0999 V2000
    7.0692   -1.3245  -21.7609 C   0  0  0  0  0  0  0  0  0  0  0  0
    5.5362   10.6305  -21.6826 C   0  0  0  0  0  0  0  0  0  0  0  0
    7.5254   -0.0039  -21.9394 C   0  0  0  0  0  0  0  0  0  0  0  0
    5.8038   -1.5625  -21.1909 C   0  0  0  0  0  0  0  0  0  0  0  0
    5.6787    9.2445  -21.8961 C   0  0  0  0  0  0  0  0  0  0  0  0
    5.9165   11.1977  -20.4499 C   0  0  0  0  0  0  0  0  0  0  0  0
    8.8263    0.4087  -14.8610 C   0  0  0  0  0  0  0  0  0  0  0  0
    8.0744   -0.7775  -14.7412 C   0  0  0  0  0  0  0  0  0  0  0  0
    8.5383    1.3261  -15.8922 C   0  0  0  0  0  0  0  0  0  0  0  0
    6.7166    1.0772  -21.5442 C   0  0  0  0  0  0  0  0  0  0  0  0
    5.0046   -0.4863  -20.7682 C   0  0  0  0  0  0  0  0  0  0  0  0
    6.2110    8.4261  -20.8803 C   0  0  0  0  0  0  0  0  0  0  0  0
    6.4419   10.3809  -19.4313 C   0  0  0  0  0  0  0  0  0  0  0  0
    6.7646   -0.1421  -16.6967 C   0  0  0  0  0  0  0  0  0  0  0  0
   10.0009   -4.5562  -17.8243 C   0  0  0  0  0  0  0  0  0  0  0  0
    7.0405   -1.0583  -15.6658 C   0  0  0  0  0  0  0  0  0  0  0  0
    7.4959    1.0563  -16.8107 C   0  0  0  0  0  0  0  0  0  0  0  0
    5.4587    0.8358  -20.9466 C   0  0  0  0  0  0  0  0  0  0  0  0
    6.5981    8.9951  -19.6451 C   0  0  0  0  0  0  0  0  0  0  0  0
    9.4769   -4.4811  -16.5561 C   0  0  0  0  0  0  0  0  0  0  0  0
    7.7065   -3.6622  -17.7050 C   0  0  0  0  0  0  0  0  0  0  0  0
    6.0711    5.8740  -18.4854 C   0  0  0  0  0  0  0  0  0  0  0  0
    6.1672   -2.2398  -15.5019 C   0  0  0  0  0  0  0  0  0  0  0  0
    7.1326    2.0210  -17.8669 C   0  0  0  0  0  0  0  0  0  0  0  0
    4.1481   -4.2178  -17.9231 C   0  0  0  0  0  0  0  0  0  0  0  0
    5.5086   -4.3056  -18.5720 C   0  0  0  0  0  0  0  0  0  0  0  0
    4.5019   -3.8642  -16.4874 C   0  0  0  0  0  0  0  0  0  0  0  0
    4.9881    7.7802  -17.2969 C   0  0  0  0  0  0  0  0  0  0  0  0
    4.3065    6.7296  -16.4207 C   0  0  0  0  0  0  0  0  0  0  0  0
    6.2999   -3.1655  -17.9036 C   0  0  1  0  0  0  0  0  0  0  0  0
    5.0186    4.8845  -17.8916 C   0  0  2  0  0  0  0  0  0  0  0  0
   10.2220   -4.7431  -15.2754 C   0  0  0  0  0  0  0  0  0  0  0  0
    4.5961    1.9872  -20.4932 C   0  0  0  0  0  0  0  0  0  0  0  0
    7.1589    8.1314  -18.5356 C   0  0  0  0  0  0  0  0  0  0  0  0
    4.3820    3.9510  -18.9427 C   0  0  2  0  0  0  0  0  0  0  0  0
    5.3437    2.8639  -19.4697 C   0  0  1  0  0  0  0  0  0  0  0  0
    8.1629   -4.0686  -16.5475 N   0  0  0  0  0  0  0  0  0  0  0  0
    6.1309    7.1996  -18.0288 N   0  0  0  0  0  0  0  0  0  0  0  0
    5.5993   -2.8933  -16.6079 N   0  0  0  0  0  0  0  0  0  0  0  0
    5.8256    2.0214  -18.3587 N   0  0  0  0  0  0  0  0  0  0  0  0
    3.8855    5.6192  -17.2817 N   0  3  0  0  0  0  0  0  0  0  0  0
    6.9342    5.4579  -19.2498 O   0  0  0  0  0  0  0  0  0  0  0  0
    5.8922   -2.6242  -14.3708 O   0  0  0  0  0  0  0  0  0  0  0  0
    7.9730    2.8028  -18.2973 O   0  0  0  0  0  0  0  0  0  0  0  0
    3.8920    4.7457  -20.0245 O   0  0  0  0  0  0  0  0  0  0  0  0
    8.8582   -3.9395  -18.9761 S   0  0  0  0  0  0  0  0  0  0  0  0
    7.6905   -2.1553  -22.0614 H   0  0  0  0  0  0  0  0  0  0  0  0
    5.1352   11.2584  -22.4645 H   0  0  0  0  0  0  0  0  0  0  0  0
    8.4948    0.1784  -22.3791 H   0  0  0  0  0  0  0  0  0  0  0  0
    5.4461   -2.5753  -21.0781 H   0  0  0  0  0  0  0  0  0  0  0  0
    5.3798    8.8098  -22.8385 H   0  0  0  0  0  0  0  0  0  0  0  0
    5.8046   12.2594  -20.2867 H   0  0  0  0  0  0  0  0  0  0  0  0
    9.6237    0.6151  -14.1624 H   0  0  0  0  0  0  0  0  0  0  0  0
    8.2875   -1.4729  -13.9428 H   0  0  0  0  0  0  0  0  0  0  0  0
    9.1138    2.2356  -15.9813 H   0  0  0  0  0  0  0  0  0  0  0  0
    7.0565    2.0908  -21.6974 H   0  0  0  0  0  0  0  0  0  0  0  0
    4.0454   -0.6720  -20.3081 H   0  0  0  0  0  0  0  0  0  0  0  0
    6.3234    7.3647  -21.0450 H   0  0  0  0  0  0  0  0  0  0  0  0
    6.7260   10.8156  -18.4844 H   0  0  0  0  0  0  0  0  0  0  0  0
    5.9829   -0.3600  -17.4094 H   0  0  0  0  0  0  0  0  0  0  0  0
   10.9795   -4.9422  -18.0684 H   0  0  0  0  0  0  0  0  0  0  0  0
    3.5340   -3.4324  -18.3880 H   0  0  0  0  0  0  0  0  0  0  0  0
    3.6168   -5.1794  -17.9781 H   0  0  0  0  0  0  0  0  0  0  0  0
    5.9778   -5.2801  -18.3713 H   0  0  0  0  0  0  0  0  0  0  0  0
    5.4368   -4.1500  -19.6585 H   0  0  0  0  0  0  0  0  0  0  0  0
    3.6394   -3.4144  -15.9737 H   0  0  0  0  0  0  0  0  0  0  0  0
    4.8316   -4.7575  -15.9367 H   0  0  0  0  0  0  0  0  0  0  0  0
    4.2590    8.1722  -18.0212 H   0  0  0  0  0  0  0  0  0  0  0  0
    5.3490    8.6007  -16.6593 H   0  0  0  0  0  0  0  0  0  0  0  0
    5.0120    6.3643  -15.6600 H   0  0  0  0  0  0  0  0  0  0  0  0
    3.4288    7.1703  -15.9253 H   0  0  0  0  0  0  0  0  0  0  0  0
    6.2916   -2.2723  -18.5455 H   0  0  0  0  0  0  0  0  0  0  0  0
    5.5123    4.2686  -17.1254 H   0  0  0  0  0  0  0  0  0  0  0  0
    9.5582   -4.5533  -14.4191 H   0  0  0  0  0  0  0  0  0  0  0  0
   10.5574   -5.7905  -15.2542 H   0  0  0  0  0  0  0  0  0  0  0  0
   11.0955   -4.0771  -15.2168 H   0  0  0  0  0  0  0  0  0  0  0  0
    4.3274    2.6013  -21.3653 H   0  0  0  0  0  0  0  0  0  0  0  0
    3.6815    1.5908  -20.0280 H   0  0  0  0  0  0  0  0  0  0  0  0
    8.0105    7.5533  -18.9236 H   0  0  0  0  0  0  0  0  0  0  0  0
    7.4986    8.7769  -17.7122 H   0  0  0  0  0  0  0  0  0  0  0  0
    3.5351    3.4394  -18.4621 H   0  0  0  0  0  0  0  0  0  0  0  0
    6.1953    3.3502  -19.9680 H   0  0  0  0  0  0  0  0  0  0  0  0
    5.1678    1.4051  -17.9258 H   0  0  0  0  0  0  0  0  0  0  0  0
    3.3506    4.9774  -16.7323 H   0  0  0  0  0  0  0  0  0  0  0  0
    3.3142    5.9864  -18.0157 H   0  0  0  0  0  0  0  0  0  0  0  0
    3.4972    4.1815  -20.6790 H   0  0  0  0  0  0  0  0  0  0  0  0
  1  3  1  0  0  0  0
  1  4  2  0  0  0  0
  2  5  1  0  0  0  0
  2  6  2  0  0  0  0
  3 10  2  0  0  0  0
  4 11  1  0  0  0  0
  5 12  2  0  0  0  0
  6 13  1  0  0  0  0
  7  8  2  0  0  0  0
  7  9  1  0  0  0  0
  8 16  1  0  0  0  0
  9 17  2  0  0  0  0
 10 18  1  0  0  0  0
 11 18  2  0  0  0  0
 12 19  1  0  0  0  0
 13 19  2  0  0  0  0
 14 16  2  0  0  0  0
 14 17  1  0  0  0  0
 15 20  2  0  0  0  0
 15 46  1  0  0  0  0
 16 23  1  0  0  0  0
 17 24  1  0  0  0  0
 18 33  1  0  0  0  0
 19 34  1  0  0  0  0
 20 32  1  0  0  0  0
 20 37  1  0  0  0  0
 21 30  1  0  0  0  0
 21 37  2  0  0  0  0
 21 46  1  0  0  0  0
 22 31  1  0  0  0  0
 22 38  1  0  0  0  0
 22 42  2  0  0  0  0
 23 39  1  0  0  0  0
 23 43  2  0  0  0  0
 24 40  1  0  0  0  0
 24 44  2  0  0  0  0
 25 26  1  0  0  0  0
 25 27  1  0  0  0  0
 26 30  1  0  0  0  0
 27 39  1  0  0  0  0
 28 29  1  0  0  0  0
 28 38  1  0  0  0  0
 29 41  1  0  0  0  0
 30 39  1  0  0  0  0
 31 35  1  0  0  0  0
 31 41  1  0  0  0  0
 33 36  1  0  0  0  0
 34 38  1  0  0  0  0
 35 36  1  0  0  0  0
 35 45  1  0  0  0  0
 36 40  1  0  0  0  0
  1 47  1  0  0  0  0
  2 48  1  0  0  0  0
  3 49  1  0  0  0  0
  4 50  1  0  0  0  0
  5 51  1  0  0  0  0
  6 52  1  0  0  0  0
  7 53  1  0  0  0  0
  8 54  1  0  0  0  0
  9 55  1  0  0  0  0
 10 56  1  0  0  0  0
 11 57  1  0  0  0  0
 12 58  1  0  0  0  0
 13 59  1  0  0  0  0
 14 60  1  0  0  0  0
 15 61  1  0  0  0  0
 25 62  1  0  0  0  0
 25 63  1  0  0  0  0
 26 64  1  0  0  0  0
 26 65  1  0  0  0  0
 27 66  1  0  0  0  0
 27 67  1  0  0  0  0
 28 68  1  0  0  0  0
 28 69  1  0  0  0  0
 29 70  1  0  0  0  0
 29 71  1  0  0  0  0
 30 72  1  0  0  0  0
 31 73  1  0  0  0  0
 32 74  1  0  0  0  0
 32 75  1  0  0  0  0
 32 76  1  0  0  0  0
 33 77  1  0  0  0  0
 33 78  1  0  0  0  0
 34 79  1  0  0  0  0
 34 80  1  0  0  0  0
 35 81  1  0  0  0  0
 36 82  1  0  0  0  0
 40 83  1  0  0  0  0
 41 84  1  0  0  0  0
 41 85  1  0  0  0  0
 45 86  1  0  0  0  0
M  CHG  1  41   1
M  END
> <OMEGA_C>
CzfiQASKqb9TFq7BsSixQGoWKkHida3BsM/wQIBLgbvlg6/BnLi5QHr+x7/zhqnB9be1QE/pE0FG
K6/BkFO9QKApM0FcmaPBijgNQctF0T7Hxm3BmjABQQwJR7/g22vB6JwIQbC8qT+BRn7BCe7WQIDh
iT+UWqzB1SWgQI/7+L5NJabBicDGQF7RBkHlCqfBsyPOQA0YJkFcc5vB8nfYQEZ2Eb7tkoXBhAMg
Qa/MkcA7mI7BZUvhQOR0h780p3rBH97vQHozhz9KfIbBwK2uQJj5VT+NkqfBXyPTQArsD0EaKZ3B
kKEXQRFlj8DNcoTBi5v2QAdhasDjo43BgEbCQOH3u0Az4pPBXlnFQNhYD8CzB3jBmz7kQEtYAUB9
747BSb2EQAv4hsB5Yo/BgEawQDjHicBck5TBbg+QQKNOd8AY5oPBqJ6fQHT3+ED4X4rBt86JQO5Y
10CaXYPBuJjJQLWXSsCfOo/BbpigQKpNnEDoIY/BPY0jQSTHl8AyaHTBLxOTQARe/j/78aPB/xXl
QEcaAkHwSJTBoTmMQIjdfECmipfBXP+qQK1KN0DcwZvBVJsCQZsxgsBVYYTBgzDEQEpj5kAOO5DB
ei2zQEwsOcD83ITBeWu6QBJfAUCr3pLBdqx4QMLQs0D3QIrBKOXdQAmnrkCs/5nB54y8QHPzJ8DP
7mXBIyP/QE5gM0DIYJLB2hV5QNDcl0AWMqDBDrsNQTYgfMAZz5fBcxj2QKbvCcDSfbDBu1OkQDci
NEE3t7PBqOoHQRW6Nj5gCLPBo0auQO7QJMABoKjBXiesQPv0DEFVtbbBor+5QIEmREFDS6LBfPoZ
QRZ1HT9CmWLBopkEQRmHvL+8FV/BDtIRQXEUD0CNs3/BKs/hQDjPBUBXlK3Bh3OBQAkLLL/8dqLB
/ljKQG+r60AwXKjBJDvXQOMMLUET4JPBJ3S/QGhSuL5dRovBMKwvQdkmnsAnjJDBUC1iQL6sW8CG
GpPBHHlnQGG9pcAg04/B7km/QDb2qMBz+JLBHPqtQJXMhMCnRJ3Bn+toQCaGWsBRlH/Bo5yaQJU9
mMC9/H7Bc0mIQETBAkF0K5DBESurQKKcCUE/RoXBr2KgQHeoy0Aqj3rBT3FbQOxy5UDgzX7Bx1TJ
QLpsEcA9XZTBJ2WwQJyYiEDiAInBc+4YQXa0kcBwtGbB8OooQYpLucAnEXTBNIcxQY53gsDmd3PB
xXmKQD18JkAv7KrBeJ1rQJGgyz9eOaDBKysAQVK08UB4Y5fBvvTvQApuDEGYso3B2j9iQOMeXEBP
spPBiD/GQNRpVkB1vp/Bf16lQArasz8iaI/BhXBWQJtGn0C324XBaxtUQJSQv0AvIJDBC9JfQCXP
hUCDbqXBjPv1QI24cL9koq/BYCaSQEp4KkGUTK7BvHf3QAdOvz4KsrPBVmbXQLWQpL9C1afBcCWm
QNxkF0FDqbHB6l+XQO60MUG/sqPBzWIKQQ1y3j3hnWvB8ub4QIe5fb84fmnBYmQHQWhBhT+VSHzB
Ai/aQAGjqz+2/a/BSP65QClupb6iIqTBQJO/QFiaC0E3carBgMawQGDxJUHUeZzB2MfQQMZTY755
VYTB53kjQcXJnsBJRIXBDC7XQG07lb+dNXjB7HDsQD0lYz9/a4XBfv+6QPaFfT9WS6jBmlLFQDz2
EkEh2J/BVS8UQTFFrsBHuHzBaqb9QEH4gsAph4jBMtrAQDD8wkAoYJbBviK6QJJjFMD0hHbBxAfl
QDPR7z9YEI7BdBueQP7+ocCrZ47BLEO+QGdxiMDO8JTBHpWQQEzmgsCKk4XBwqOoQENm/EBszonB
0uOYQGJo2EBUb4LBVl/VQEBHWcAZl4zBJjCnQPa8oEAb54/BE7YYQQqbzcAR2mrB2K6bQO4iAkDY
N6TB8FLgQEFMBkHZ9ZfBFlGQQICafkBrHpfBqgWwQEb+OEBEPZvBsH7/QMn7ncA+dIDBPi3GQLxz
7EApMpLBgqq1QGniTMA52oPBkNS7QLe2AECkOZLBeJaGQEwJtkDAG4nB+q3TQK2AuEC5lZ7BKrKj
QN7uG8DfiGbBn2MBQaFyI0DLcpHBLN12QAnVlECtx5/BG/EXQQ2Id8DfV47B5yYGQV1g179qgbLB
Oql9QDiJM0G22LPBAoUHQWW3Iz8upbnBW33WQNmaEsCsraTByvuhQD/PEUFkxbnBqOiHQLBEQEGV
HKHBgmcXQRi4cz6ccWDBuV39QARg2b/Jn1zBrD0SQX0I8D9y8X3BsJPbQFhxFkBKCbPB5q6iQELQ
Fr80H57BDq3OQILe+UBEA63BGo20QElzK0FPV5TB94C2QFtQsr6w2onBaDo0QSQ6p8ApEIXBwoCC
QGReq8BEVpPBJROtQJ3GvsAZ/YrBI/PUQAzZncDrBJnBFuGtQO23aMAh5ZrBggppQNJ6YMBFHojB
V+2IQORzlMCVYnzBxc2MQKqnBUHKsY3BF3y5QJk2CkEm8oTBwN2zQFzGy0AWfnvBOz+AQKTg5EA7
9XnBhe3dQGZNG8DBLJDBJuC9QByPj0A3uYrBqMYJQUHH1MBMQmLBd00fQeZQ68B7m3HBx1okQYCG
v8AnsF/BV1ySQJYtLEB94arBY0Z+QFVcwz8rDKHBRvv5QHAS/EB9WJzBz33uQMRiEUGgHZLBSTZw
QMweXkD+L5LBML/MQGLTWEBXaJ7B8oKkQHJ/vD82147BQaVyQCYfoEBfUITBGTBgQFGlwkBt2I3B
y5yOQHjGqECG7aLB

> <OMEGA_E>
ABPjPqozMT8=

> <OMEGA_NBR>
     24382

$$$$
50147895
  -OEChem-04172616093D

 81 84  0     1  0  0  0  0  0999 V2000
    5.3087   10.4889  -22.0408 C   0  0  0  0  0  0  0  0  0  0  0  0
    5.8592   11.1721  -20.9385 C   0  0  0  0  0  0  0  0  0  0  0  0
    5.3439    9.0806  -22.0874 C   0  0  0  0  0  0  0  0  0  0  0  0
    6.4394   10.4486  -19.8797 C   0  0  0  0  0  0  0  0  0  0  0  0
    5.9316    8.3545  -21.0323 C   0  0  0  0  0  0  0  0  0  0  0  0
    6.7730    1.0868  -21.3969 C   0  0  0  0  0  0  0  0  0  0  0  0
    5.0974   -0.3905  -20.4066 C   0  0  0  0  0  0  0  0  0  0  0  0
    7.1369   -1.3244  -21.3641 C   0  0  0  0  0  0  0  0  0  0  0  0
    6.4778    9.0388  -19.9205 C   0  0  0  0  0  0  0  0  0  0  0  0
    5.5285    0.9041  -20.7600 C   0  0  0  0  0  0  0  0  0  0  0  0
    7.5754   -0.0271  -21.7009 C   0  0  0  0  0  0  0  0  0  0  0  0
    5.9009   -1.5043  -20.7097 C   0  0  0  0  0  0  0  0  0  0  0  0
    6.1113    6.0008  -18.5042 C   0  0  0  0  0  0  0  0  0  0  0  0
    7.9484   -0.8401  -15.2947 C   0  0  0  0  0  0  0  0  0  0  0  0
    6.8123    1.7153  -17.6350 C   0  0  0  0  0  0  0  0  0  0  0  0
    5.0257    7.9567  -17.3949 C   0  0  0  0  0  0  0  0  0  0  0  0
    6.7167   -0.7295  -17.2424 C   0  0  0  0  0  0  0  0  0  0  0  0
    4.3825    6.9404  -16.4511 C   0  0  0  0  0  0  0  0  0  0  0  0
    5.0657    5.0375  -17.8575 C   0  0  2  0  0  0  0  0  0  0  0  0
    6.7550    0.6141  -16.5794 C   0  0  1  0  0  0  0  0  0  0  0  0
    9.6235   -4.2215  -16.9903 C   0  0  0  0  0  0  0  0  0  0  0  0
    7.3051    1.6657  -13.5767 C   0  0  0  0  0  0  0  0  0  0  0  0
    9.7267    1.5850  -14.3417 C   0  0  0  0  0  0  0  0  0  0  0  0
    4.6809    2.1007  -20.4122 C   0  0  0  0  0  0  0  0  0  0  0  0
    7.1152    8.2812  -18.7714 C   0  0  0  0  0  0  0  0  0  0  0  0
    8.6732   -3.1021  -17.4145 C   0  0  0  0  0  0  0  0  0  0  0  0
    7.4650   -3.0118  -16.4507 C   0  0  0  0  0  0  0  0  0  0  0  0
    4.4116    4.0786  -18.8737 C   0  0  2  0  0  0  0  0  0  0  0  0
    8.2535    1.6349  -14.7957 C   0  0  0  0  0  0  0  0  0  0  0  0
    5.3547    2.9383  -19.3092 C   0  0  1  0  0  0  0  0  0  0  0  0
    6.1486    7.3569  -18.1428 N   0  0  0  0  0  0  0  0  0  0  0  0
    7.1725   -1.6051  -16.1815 N   0  0  0  0  0  0  0  0  0  0  0  0
    7.9034    0.5095  -15.6915 N   0  0  0  0  0  0  0  0  0  0  0  0
    5.5828    2.0882  -18.1446 N   0  0  0  0  0  0  0  0  0  0  0  0
    3.9453    5.7912  -17.2496 N   0  3  0  0  0  0  0  0  0  0  0  0
    6.9717    5.5485  -19.2519 O   0  0  0  0  0  0  0  0  0  0  0  0
    8.5149   -1.2917  -14.3054 O   0  0  0  0  0  0  0  0  0  0  0  0
    7.8717    2.1914  -18.0350 O   0  0  0  0  0  0  0  0  0  0  0  0
    3.9479    4.8266  -19.9968 O   0  0  0  0  0  0  0  0  0  0  0  0
    8.7702    0.1512  -22.3076 F   0  0  0  0  0  0  0  0  0  0  0  0
    5.4927   -2.7436  -20.3562 F   0  0  0  0  0  0  0  0  0  0  0  0
    4.8594   11.0446  -22.8506 H   0  0  0  0  0  0  0  0  0  0  0  0
    5.8360   12.2513  -20.9058 H   0  0  0  0  0  0  0  0  0  0  0  0
    4.9202    8.5578  -22.9321 H   0  0  0  0  0  0  0  0  0  0  0  0
    6.8566   10.9742  -19.0335 H   0  0  0  0  0  0  0  0  0  0  0  0
    5.9653    7.2757  -21.0722 H   0  0  0  0  0  0  0  0  0  0  0  0
    7.1097    2.0811  -21.6510 H   0  0  0  0  0  0  0  0  0  0  0  0
    4.1514   -0.5270  -19.9037 H   0  0  0  0  0  0  0  0  0  0  0  0
    7.7482   -2.1808  -21.6076 H   0  0  0  0  0  0  0  0  0  0  0  0
    4.2684    8.3121  -18.1091 H   0  0  0  0  0  0  0  0  0  0  0  0
    5.4008    8.8062  -16.8052 H   0  0  0  0  0  0  0  0  0  0  0  0
    5.6965   -0.9878  -17.5625 H   0  0  0  0  0  0  0  0  0  0  0  0
    7.3933   -0.7665  -18.1089 H   0  0  0  0  0  0  0  0  0  0  0  0
    5.1154    6.6144  -15.6985 H   0  0  0  0  0  0  0  0  0  0  0  0
    3.5170    7.3953  -15.9471 H   0  0  0  0  0  0  0  0  0  0  0  0
    5.5715    4.4414  -17.0837 H   0  0  0  0  0  0  0  0  0  0  0  0
    5.8395    0.7456  -15.9839 H   0  0  0  0  0  0  0  0  0  0  0  0
   10.4725   -4.2666  -17.6882 H   0  0  0  0  0  0  0  0  0  0  0  0
    9.9945   -4.0219  -15.9742 H   0  0  0  0  0  0  0  0  0  0  0  0
    9.0873   -5.1819  -17.0028 H   0  0  0  0  0  0  0  0  0  0  0  0
    6.2619    1.7011  -13.9240 H   0  0  0  0  0  0  0  0  0  0  0  0
    7.4589    0.7614  -12.9697 H   0  0  0  0  0  0  0  0  0  0  0  0
    7.5192    2.5567  -12.9682 H   0  0  0  0  0  0  0  0  0  0  0  0
   10.3824    1.5637  -15.2247 H   0  0  0  0  0  0  0  0  0  0  0  0
    9.9544    2.4755  -13.7375 H   0  0  0  0  0  0  0  0  0  0  0  0
    9.8940    0.6802  -13.7389 H   0  0  0  0  0  0  0  0  0  0  0  0
    4.5486    2.7234  -21.3093 H   0  0  0  0  0  0  0  0  0  0  0  0
    3.6985    1.7570  -20.0563 H   0  0  0  0  0  0  0  0  0  0  0  0
    7.9698    7.7029  -19.1524 H   0  0  0  0  0  0  0  0  0  0  0  0
    7.4665    9.0010  -18.0174 H   0  0  0  0  0  0  0  0  0  0  0  0
    9.2156   -2.1451  -17.4035 H   0  0  0  0  0  0  0  0  0  0  0  0
    8.3083   -3.3051  -18.4322 H   0  0  0  0  0  0  0  0  0  0  0  0
    6.5882   -3.4884  -16.9134 H   0  0  0  0  0  0  0  0  0  0  0  0
    7.7065   -3.5248  -15.5082 H   0  0  0  0  0  0  0  0  0  0  0  0
    3.5467    3.6154  -18.3761 H   0  0  0  0  0  0  0  0  0  0  0  0
    8.1097    2.5741  -15.3498 H   0  0  0  0  0  0  0  0  0  0  0  0
    6.3003    3.3579  -19.6830 H   0  0  0  0  0  0  0  0  0  0  0  0
    4.7728    1.7430  -17.6706 H   0  0  0  0  0  0  0  0  0  0  0  0
    3.4304    5.1712  -16.6576 H   0  0  0  0  0  0  0  0  0  0  0  0
    3.3511    6.1222  -17.9828 H   0  0  0  0  0  0  0  0  0  0  0  0
    3.5444    4.2388  -20.6246 H   0  0  0  0  0  0  0  0  0  0  0  0
  1  2  1  0  0  0  0
  1  3  2  0  0  0  0
  2  4  2  0  0  0  0
  3  5  1  0  0  0  0
  4  9  1  0  0  0  0
  5  9  2  0  0  0  0
  6 10  1  0  0  0  0
  6 11  2  0  0  0  0
  7 10  2  0  0  0  0
  7 12  1  0  0  0  0
  8 11  1  0  0  0  0
  8 12  2  0  0  0  0
  9 25  1  0  0  0  0
 10 24  1  0  0  0  0
 11 40  1  0  0  0  0
 12 41  1  0  0  0  0
 13 19  1  0  0  0  0
 13 31  1  0  0  0  0
 13 36  2  0  0  0  0
 14 32  1  0  0  0  0
 14 33  1  0  0  0  0
 14 37  2  0  0  0  0
 15 20  1  0  0  0  0
 15 34  1  0  0  0  0
 15 38  2  0  0  0  0
 16 18  1  0  0  0  0
 16 31  1  0  0  0  0
 17 20  1  0  0  0  0
 17 32  1  0  0  0  0
 18 35  1  0  0  0  0
 19 28  1  0  0  0  0
 19 35  1  0  0  0  0
 20 33  1  0  0  0  0
 21 26  1  0  0  0  0
 22 29  1  0  0  0  0
 23 29  1  0  0  0  0
 24 30  1  0  0  0  0
 25 31  1  0  0  0  0
 26 27  1  0  0  0  0
 27 32  1  0  0  0  0
 28 30  1  0  0  0  0
 28 39  1  0  0  0  0
 29 33  1  0  0  0  0
 30 34  1  0  0  0  0
  1 42  1  0  0  0  0
  2 43  1  0  0  0  0
  3 44  1  0  0  0  0
  4 45  1  0  0  0  0
  5 46  1  0  0  0  0
  6 47  1  0  0  0  0
  7 48  1  0  0  0  0
  8 49  1  0  0  0  0
 16 50  1  0  0  0  0
 16 51  1  0  0  0  0
 17 52  1  0  0  0  0
 17 53  1  0  0  0  0
 18 54  1  0  0  0  0
 18 55  1  0  0  0  0
 19 56  1  0  0  0  0
 20 57  1  0  0  0  0
 21 58  1  0  0  0  0
 21 59  1  0  0  0  0
 21 60  1  0  0  0  0
 22 61  1  0  0  0  0
 22 62  1  0  0  0  0
 22 63  1  0  0  0  0
 23 64  1  0  0  0  0
 23 65  1  0  0  0  0
 23 66  1  0  0  0  0
 24 67  1  0  0  0  0
 24 68  1  0  0  0  0
 25 69  1  0  0  0  0
 25 70  1  0  0  0  0
 26 71  1  0  0  0  0
 26 72  1  0  0  0  0
 27 73  1  0  0  0  0
 27 74  1  0  0  0  0
 28 75  1  0  0  0  0
 29 76  1  0  0  0  0
 30 77  1  0  0  0  0
 34 78  1  0  0  0  0
 35 79  1  0  0  0  0
 35 80  1  0  0  0  0
 39 81  1  0  0  0  0
M  CHG  1  35   1
M  END
> <OMEGA_C>
4uCpQHLSJ0F+U7DBmX67QLjAMkH1gafBUwGrQDBKEUHusrDB6w/OQHItJ0GvCZ/BCNC9QOarBUEm
QqjB07zYQFUdiz/uLKvBmR2jQH30x76lQKPBJGHkQOuEqb+36arBEUrPQPWeEEE8XZ/BNOmwQCJ1
Zz+TFKbBemnyQKA23rxhm63BRNS8QO6LwL+DraXBJZDDQEwGwECYCJTBkln+QDIQV79Jt3TBWf7Z
QHmP2z+QFI3B6tKgQB+d/kC7KIvBc+/WQL7DOr9t8InBQj2MQMIX3kDim4PB2RmiQGAzoUAn3I7B
6CjYQPc3HT+KooTBvPkZQYUWh8Ag7IfBCcPpQDo31T9VOlnBaqAbQefgyj/Jd2XBTMqVQClyBkA6
TKPB9a/jQN5/BEHSK5bBcMUKQXmIRsDnUIvBYuHuQOTAQMAim4PBhiuNQNKDgkBL/ZbBNQ4EQbVD
0T8Eu2zBdVmrQKYNPEBHeZrBt8HEQIxr60CLJJHBYIXlQMFyzb/Kc4HB4+j8QFZwAj+WEHvBnKay
QMOlBUAsKJHBEH98QJpRuUBC/4nBwhffQC2NsUDYA5rB4TwIQQtWpb8C42TBv+T7QCFADECVR5DB
cap8QMFzmkBl+Z/BjlIMQVDUGj4PdrLB/cOvQM+WL8Bw2aLBlYCbQJm2MEHzzbbBMsC6QFsFREEk
P6fBq3KdQKzsCEHsdLfBUGnbQGuWL0GfRJjBe+O+QMTS6EDVk6jBSoLjQJ0wBUA9Na3BLdiEQKrr
Br+4Op/B4fD3QK+RC8Bv3KzB4ZaIQEH+BEGC35DBwtOsQATmDEEgcYbB9Em2QGbjfL8DgIzBKJbs
QGM8RL8L35DBu7GjQMqo00D+LHvBWxZhQOWl7EBIJ3/BzUmyQFogjkBaq4jBV926QAHdPj/dvX/B
Uo8nQQmIiMCFgY3BeukfQaCzgMA1ln/BcmURQfTRpcDDBYjBcmHIQIa92T+LyF7B7q7uQKHsQj++
g0/BPp3wQP6gI0CqfU/BVh4mQZ0myD86mHPBHUUfQWpuHkCmzFvB9k0eQVAiLj+60lvBK46RQGhL
LkCEearBmrRsQJfl4D82c6DB8Aj/QCl+9kAuOJnB2O3uQCsEEEGwI5DB8HITQQlKCcBuOovB6e4E
QbCGU8AXdZPBtdLSQJBBX8C7TofBdpv2QHuWYcBkIXjBaP1iQHdjZ0BZApPBacEBQa++JED7mHXB
J5zJQM/nVkDTdp3BCruYQMEa3z9eXY3BN4tbQMN6pUC8QoXBznhWQPzow0Cu3I/BKdhiQEukh0A2
/6TBEA2oQAm1J0EHJbDBSJ2tQLpqEUFWLLHB79q1QLhGMkEUzqbBeibBQBWwBUGH36jBjUXJQEmW
JkFdf57Bf0baQGLdiD9m8arBLQGlQLqp2L58DKPB7dfmQMAfq7/7jarBMTDPQHVNEEHxhJ/Bh16y
QPraXz+H6aXB3HP0QJCXFL35R63B5DG/QBqkw7/1Y6XB9hDEQMwHv0AmHJTBxXQDQfn3QL/itnTB
I/3aQDZi2T9E14zBOuKgQJwC/kBWh4vBWDLcQB3VQb85aYnB57SMQBTw3UBXzIPBt7yiQCxYoED6
0I7B6G/aQC0XGj98UITBqVMWQUP7csBOy4jBIKfxQO6qvz/Hn1XBXHYbQXpJAEAxYGnBtNCWQIT9
A0CQK6PB0f7jQKgBBEEBeJbBjrb7QH8/b8B4sonB7IXnQFcDQcB0BIDBacqNQPZNgUDO25bBtWkD
QXBy3T85rWvB6AesQJmLOUDpS5rB3PXEQBWg6kBqapHB+E/sQMBGx7/mqoDB9x7/QDx2Fz8OOnrB
VHGzQKe2AkCo/ZDBvLF9QECQuEDt/InBlNDfQFpIsEC2+5nB5NEOQQjUk78yEmbBrHX8QKWhDUBv
74/BhMd9QJYAmUCK4Z/BJFkNQUDSHD7AGrLBHHCyQDRYMcBlkaLBVjGZQPqwMEGshbbBZ+eiQLJT
CUGoUrjBt4ixQFdZQ0GoBabB+2TFQHc46UAAqKnB1arTQISxLkHPUpfBOLfkQMU9BEA1/6zBZ7KG
QMl/Eb/9D5/B5s36QKT4C8BZbKzBRoCIQDdRBEEFS5HBT6SsQDTcDEGP94bBski8QBz2i79z+IvB
eyHyQEWpRb/qSpDBuV2kQBEl1EAZhXvBEPthQMWZ7EBKmX/BPQ6zQIyPjUB+l4jBr7a8QG17MD8h
Tn/BpfAcQZshisD0zo/Bq8gcQemMMcC5cYjBy8waQfnlisDZeoHBGEfPQJPlpj9QzlfB21QAQdSx
IT+Bx03B5vb1QAcKGUBPmEvBhYMiQSCWCkBmS3nB9OEdQWi9OUAYf1/BXDsjQas/kj9KrmHBOJ6S
QMjtK0A0V6rBcMZuQATt2j+JYaDBHv7+QGBZ9UA2ppnBG8vvQGxgD0ERb5DBFxPzQICoTMAYDZHB
VhvvQMVzmMA4ForBvTjFQAahUMAObX/BuTH3QOa9V8DSVXHBJFZkQMsjZUD11ZLB5hP4QFcdKEDL
tnLBy1HKQPOLVEB3P53B4aGZQH4X1j8rTY3BomBdQOrypEBWIIXBxh5XQNOOwkDA3I/BieVjQOMN
hkDH3aTB

> <OMEGA_E>
QPQIPwgICD8=

> <OMEGA_NBR>
     27247

$$$$
50147905
  -OEChem-04172616093D

 78 80  0     1  0  0  0  0  0999 V2000
    6.7327   -0.1977  -16.6575 C   0  0  0  0  0  0  0  0  0  0  0  0
    8.3822    1.3504  -15.7401 C   0  0  0  0  0  0  0  0  0  0  0  0
    8.0434   -0.8272  -14.6987 C   0  0  0  0  0  0  0  0  0  0  0  0
    6.7365    1.0113  -21.3244 C   0  0  0  0  0  0  0  0  0  0  0  0
    4.9139   -0.4632  -20.6350 C   0  0  0  0  0  0  0  0  0  0  0  0
    6.9909   -1.4064  -21.4986 C   0  0  0  0  0  0  0  0  0  0  0  0
    7.3970    1.0481  -16.7038 C   0  0  0  0  0  0  0  0  0  0  0  0
    7.0894   -1.1556  -15.6834 C   0  0  0  0  0  0  0  0  0  0  0  0
    8.6800    0.4290  -14.7182 C   0  0  0  0  0  0  0  0  0  0  0  0
    5.4360    0.8341  -20.8010 C   0  0  0  0  0  0  0  0  0  0  0  0
    7.5164   -0.1093  -21.6614 C   0  0  0  0  0  0  0  0  0  0  0  0
    5.6856   -1.5802  -20.9964 C   0  0  0  0  0  0  0  0  0  0  0  0
    6.1101    5.9652  -18.5796 C   0  0  0  0  0  0  0  0  0  0  0  0
    7.0708    2.0194  -17.7587 C   0  0  0  0  0  0  0  0  0  0  0  0
    6.4831   -2.5023  -15.6904 C   0  0  0  0  0  0  0  0  0  0  0  0
    4.9495    7.9236  -17.5531 C   0  0  0  0  0  0  0  0  0  0  0  0
    4.4196    6.9233  -16.5232 C   0  0  0  0  0  0  0  0  0  0  0  0
    5.1035    4.9840  -17.8827 C   0  0  2  0  0  0  0  0  0  0  0  0
    9.7536    0.7497  -13.7037 C   0  0  0  0  0  0  0  0  0  0  0  0
    9.3107   -4.2340  -16.8862 C   0  0  0  0  0  0  0  0  0  0  0  0
    3.7394   -3.4859  -17.8140 C   0  0  0  0  0  0  0  0  0  0  0  0
    6.8556    8.2724  -19.1684 C   0  0  0  0  0  0  0  0  0  0  0  0
    4.5991    2.0284  -20.4094 C   0  0  0  0  0  0  0  0  0  0  0  0
    8.5010   -4.0641  -18.1834 C   0  0  0  0  0  0  0  0  0  0  0  0
    4.2597   -4.4668  -16.7506 C   0  0  0  0  0  0  0  0  0  0  0  0
    7.3587   -3.0415  -18.0167 C   0  0  0  0  0  0  0  0  0  0  0  0
    5.7886   -4.6349  -16.8259 C   0  0  0  0  0  0  0  0  0  0  0  0
    4.4090    4.0110  -18.8631 C   0  0  2  0  0  0  0  0  0  0  0  0
    5.3424    2.9007  -19.3815 C   0  0  1  0  0  0  0  0  0  0  0  0
    6.0563    7.3482  -18.3390 N   0  0  0  0  0  0  0  0  0  0  0  0
    5.7758    2.0523  -18.2603 N   0  0  0  0  0  0  0  0  0  0  0  0
    6.5052   -3.3347  -16.8330 N   0  0  0  0  0  0  0  0  0  0  0  0
    3.9904    5.7190  -17.2380 N   0  3  0  0  0  0  0  0  0  0  0  0
    6.9965    5.5174  -19.2988 O   0  0  0  0  0  0  0  0  0  0  0  0
    7.9347    2.7833  -18.1770 O   0  0  0  0  0  0  0  0  0  0  0  0
    5.9857   -2.9064  -14.6445 O   0  0  0  0  0  0  0  0  0  0  0  0
    3.8679    4.7598  -19.9523 O   0  0  0  0  0  0  0  0  0  0  0  0
    8.7656    0.0612  -22.1498 F   0  0  0  0  0  0  0  0  0  0  0  0
    5.1691   -2.8212  -20.8675 F   0  0  0  0  0  0  0  0  0  0  0  0
    5.9502   -0.4180  -17.3686 H   0  0  0  0  0  0  0  0  0  0  0  0
    8.9097    2.2917  -15.7866 H   0  0  0  0  0  0  0  0  0  0  0  0
    8.2871   -1.5418  -13.9263 H   0  0  0  0  0  0  0  0  0  0  0  0
    7.1312    2.0066  -21.4656 H   0  0  0  0  0  0  0  0  0  0  0  0
    3.9218   -0.5993  -20.2306 H   0  0  0  0  0  0  0  0  0  0  0  0
    7.5884   -2.2676  -21.7587 H   0  0  0  0  0  0  0  0  0  0  0  0
    4.1328    8.2021  -18.2352 H   0  0  0  0  0  0  0  0  0  0  0  0
    5.3110    8.8203  -17.0285 H   0  0  0  0  0  0  0  0  0  0  0  0
    5.2150    6.6684  -15.8074 H   0  0  0  0  0  0  0  0  0  0  0  0
    3.5667    7.3604  -15.9834 H   0  0  0  0  0  0  0  0  0  0  0  0
    5.6494    4.3993  -17.1276 H   0  0  0  0  0  0  0  0  0  0  0  0
    9.2986    1.2391  -12.8299 H   0  0  0  0  0  0  0  0  0  0  0  0
   10.2479   -0.1805  -13.3868 H   0  0  0  0  0  0  0  0  0  0  0  0
   10.4958    1.4237  -14.1562 H   0  0  0  0  0  0  0  0  0  0  0  0
   10.1127   -4.9693  -17.0476 H   0  0  0  0  0  0  0  0  0  0  0  0
    9.7515   -3.2677  -16.6000 H   0  0  0  0  0  0  0  0  0  0  0  0
    8.6466   -4.5863  -16.0831 H   0  0  0  0  0  0  0  0  0  0  0  0
    2.6467   -3.3947  -17.7261 H   0  0  0  0  0  0  0  0  0  0  0  0
    4.2029   -2.5001  -17.6615 H   0  0  0  0  0  0  0  0  0  0  0  0
    3.9965   -3.8610  -18.8156 H   0  0  0  0  0  0  0  0  0  0  0  0
    6.6852    9.3065  -18.8342 H   0  0  0  0  0  0  0  0  0  0  0  0
    7.9228    8.0257  -19.0674 H   0  0  0  0  0  0  0  0  0  0  0  0
    6.5545    8.1733  -20.2217 H   0  0  0  0  0  0  0  0  0  0  0  0
    4.3857    2.6293  -21.3057 H   0  0  0  0  0  0  0  0  0  0  0  0
    3.6538    1.6782  -19.9692 H   0  0  0  0  0  0  0  0  0  0  0  0
    9.1750   -3.7179  -18.9808 H   0  0  0  0  0  0  0  0  0  0  0  0
    8.0701   -5.0365  -18.4639 H   0  0  0  0  0  0  0  0  0  0  0  0
    3.9921   -4.0860  -15.7539 H   0  0  0  0  0  0  0  0  0  0  0  0
    3.7856   -5.4468  -16.9081 H   0  0  0  0  0  0  0  0  0  0  0  0
    7.7960   -2.0392  -17.8978 H   0  0  0  0  0  0  0  0  0  0  0  0
    6.7306   -3.0628  -18.9195 H   0  0  0  0  0  0  0  0  0  0  0  0
    6.1226   -5.2167  -15.9541 H   0  0  0  0  0  0  0  0  0  0  0  0
    6.0383   -5.1801  -17.7481 H   0  0  0  0  0  0  0  0  0  0  0  0
    3.5858    3.5251  -18.3190 H   0  0  0  0  0  0  0  0  0  0  0  0
    6.2163    3.3616  -19.8651 H   0  0  0  0  0  0  0  0  0  0  0  0
    5.0934    1.4607  -17.8311 H   0  0  0  0  0  0  0  0  0  0  0  0
    3.5430    5.1069  -16.5861 H   0  0  0  0  0  0  0  0  0  0  0  0
    3.3369    5.9874  -17.9458 H   0  0  0  0  0  0  0  0  0  0  0  0
    3.4387    4.1696  -20.5606 H   0  0  0  0  0  0  0  0  0  0  0  0
  1  7  1  0  0  0  0
  1  8  2  0  0  0  0
  2  7  2  0  0  0  0
  2  9  1  0  0  0  0
  3  8  1  0  0  0  0
  3  9  2  0  0  0  0
  4 10  1  0  0  0  0
  4 11  2  0  0  0  0
  5 10  2  0  0  0  0
  5 12  1  0  0  0  0
  6 11  1  0  0  0  0
  6 12  2  0  0  0  0
  7 14  1  0  0  0  0
  8 15  1  0  0  0  0
  9 19  1  0  0  0  0
 10 23  1  0  0  0  0
 11 38  1  0  0  0  0
 12 39  1  0  0  0  0
 13 18  1  0  0  0  0
 13 30  1  0  0  0  0
 13 34  2  0  0  0  0
 14 31  1  0  0  0  0
 14 35  2  0  0  0  0
 15 32  1  0  0  0  0
 15 36  2  0  0  0  0
 16 17  1  0  0  0  0
 16 30  1  0  0  0  0
 17 33  1  0  0  0  0
 18 28  1  0  0  0  0
 18 33  1  0  0  0  0
 20 24  1  0  0  0  0
 21 25  1  0  0  0  0
 22 30  1  0  0  0  0
 23 29  1  0  0  0  0
 24 26  1  0  0  0  0
 25 27  1  0  0  0  0
 26 32  1  0  0  0  0
 27 32  1  0  0  0  0
 28 29  1  0  0  0  0
 28 37  1  0  0  0  0
 29 31  1  0  0  0  0
  1 40  1  0  0  0  0
  2 41  1  0  0  0  0
  3 42  1  0  0  0  0
  4 43  1  0  0  0  0
  5 44  1  0  0  0  0
  6 45  1  0  0  0  0
 16 46  1  0  0  0  0
 16 47  1  0  0  0  0
 17 48  1  0  0  0  0
 17 49  1  0  0  0  0
 18 50  1  0  0  0  0
 19 51  1  0  0  0  0
 19 52  1  0  0  0  0
 19 53  1  0  0  0  0
 20 54  1  0  0  0  0
 20 55  1  0  0  0  0
 20 56  1  0  0  0  0
 21 57  1  0  0  0  0
 21 58  1  0  0  0  0
 21 59  1  0  0  0  0
 22 60  1  0  0  0  0
 22 61  1  0  0  0  0
 22 62  1  0  0  0  0
 23 63  1  0  0  0  0
 23 64  1  0  0  0  0
 24 65  1  0  0  0  0
 24 66  1  0  0  0  0
 25 67  1  0  0  0  0
 25 68  1  0  0  0  0
 26 69  1  0  0  0  0
 26 70  1  0  0  0  0
 27 71  1  0  0  0  0
 27 72  1  0  0  0  0
 28 73  1  0  0  0  0
 29 74  1  0  0  0  0
 31 75  1  0  0  0  0
 33 76  1  0  0  0  0
 33 77  1  0  0  0  0
 37 78  1  0  0  0  0
M  CHG  1  33   1
M  END
> <OMEGA_C>
/HHXQE5+Sr6AQoXBjR0GQabYrD+D13vB7LEAQTLGU7+yLWvBYZHXQKlxgT9mmKrBwz6dQBcv7b6H
FKXBRbXfQF4EtL8Y/avBE7TsQG4nhj92oYXButziQIrqk79U73rBK+EKQcym2z62fWvBmvOtQAKK
VT9maKbBvobwQKzk372LSq3BffC1QOZEyr+c+KfBB4bDQArjvkAQo5TBOETiQGw9AUDXEY7B1HXP
QDUlIMDWC3vBtGKeQCCO/UDBbIzBvW2NQGWL3UCNL4TBNVCjQKF8n0DaD4/Bkg4cQQDqPz9yQlvB
h/gUQet8h8D3FofBp1FvQEMZX8Afg47BMmHbQLtbBEHUWJnBkiuTQAvSAUBlRqPBOwQIQckMgsCC
d5HBE0+IQKnvjsBHAYbBvXrrQJOoQsA8IpDBXDy5QCpRlMBom4bB7xaNQDhagEC055bBDPWqQNSk
OUBdDZvB+8zBQJIk60A7tpLBd9O4QGNZA0ABFZLBbirQQH9sVcD8qYbBXmN/QBACt0CG54nBaOPf
QMuOsEDnY5rBFOn9QHIhMkCXapHB5Yq/QPkCOsCvT2rBlot3QBJQmEBBnp/Buz8MQYSNej3MMrHB
HGmlQNWNNMCl8KbBOWi+QMQE1r7Y8orB8Y0OQZyqEkDUlXzB3JcEQaFYxb850l7BBzPkQBtsAECF
uavBrP56QEBtGb8y2KHBUtTyQFwgEcDHEa7BgD+EQOo7A0Gz4ZHB+POpQAsgDUFaOojBZeGmQNRj
1UDz6nzB+kRkQDSI60Dju3/Buse0QOLGjEBfBYnBP8cUQbKZnj9UR03BlPcjQd/MOL5fMFbB9+4n
Qcs6tj/Gf2LBlM0hQcUEn8CQYYjBPgYcQcMhUcDlzITBiVgKQavCksBDqoDBL2MpQJhCWcAVz43B
ZX6GQKwBIMCySo3B68V/QN8Zd8ByhpbBSO3VQDrnFEFjrJbByof9QEdpAEH3iZjBMb7RQMfFAkEI
xqHB5VeMQMlGKEAccqrBgtdpQGvO1j/0wJ/B4cwSQSvybcCt2JfBLB8BQd8qocALtpPBmH5/QCbA
gsAUEHzBuUdyQD9MrsDJQ4fBn3j5QFWCAsCmLo/BbmHXQDoFRMAsW5fBW+zDQE3vpsAZRH/B/TnB
QEfDpcAK/I3Bd31lQHKbYUA4jZLB1+vGQMMkV0DN657B7vyiQMT2uj8Jpo7BaMBiQIdro0A+sITB
VpBVQPmYv0D0kI/BmxNcQJ9thUAKfKTBNc3XQBCeRr4geIXB+BwGQQFyrT8R8nvBPl4AQXC3UL/u
M2vBGM7ZQI3PhD+txqrBT1+fQDLd4L68X6XBt0DiQPvQsL/4BqzBZxvtQO6Mhj+PyoXBX33iQGP/
kb/4EHvBdaMKQcVB3z64e2vBlfevQFnnWz+VvKbBwAPzQHXdqb38Vq3BXlm4QGlBx78mF6jB3BPD
QKo4v0BGZZTBZuviQM+OAUAyPI7B0YTOQAZIHsDp3XrBbXScQBn9/EChLYzBQKaLQO1f3ECREYTB
tumiQBAgn0CiDY/BAo4bQZ8qQT8d+1rBDK1vQEkSXcCO1ozB3ugVQTPJi8BqIojB/dvZQF7SBEGh
5ZjBJPSUQMFTA0DysKPByFqWQFSslMDQdo7B84MHQW9hhMDR9JHB81K6QPr3lMBTEIbBtlPtQPN2
Q8Bjp4/ByXmNQFg7gEC9F5fB3firQMuaOkDVRZvBiWnAQPxl60DyapLBQJy5QOStA0AKVpLBBprS
QHnkV8BgFYbBxXV9QKLltUCh7YnBPjfgQCWCsUDH/5nBo57+QFi1MkBkfZHBmgC8QFvZM8B5bWrB
WaJ4QACBmEDXxJ/B254NQXzNtT3IFLHBSAWoQOYdM8Bh46bBzFa/QOPN175uS4vBkZMOQRXtEkB1
nHzBORgEQUKzw796x17BF2vmQPEhAkD25KvBWOt+QFdWE7/5PaLBPYT1QHZ+D8C4Ca7BwGmCQBjd
AkFdrpHBhGWnQADXDEFE4IfB1PykQFJZ1EAgmXzBRfNfQGHD6UCtkH/Bc0K0QAg8jECeBonByxIU
QaO4nz95JE3BHFEjQcgYNb6AvlXBmpgnQXpVtj/8CmLBcjU9QJq5XsBY+JLBwGlSQIETYcCb2YTB
i+eJQNbnIMCxh43B0c0hQVaopMAS+4nB2CweQQClW8DiEobBoggMQX4plsD3U4HB5ZbTQDxGFUFw
MZbB8xj8QFgxAUE19ZfB8NnQQDFCA0E0XqHBkdmOQNQ8KkBJ3arBlrZsQAaY2T/+X6DBL/6DQH+W
ssCFzY3B2rCkQKqAksCce5bBynwRQeBEdMBwvZjBJ7H+QG55osCG/pPBqi2sQEHVmcAhMnzBK3bQ
QIphr8D42ofB7ND9QFJGBsB/Qo7BND3YQCWEPcAYqZbBfjBmQOs2YEDw4pLBmP3HQFsyWUAv+57B
67ejQMjIuj+I/47BBPZgQHzfoUAJzoTBQt9TQMZtvkBln4/BiCVeQIHAhUA8wKTB

> <OMEGA_E>
gJx0PrAYXj4=

> <OMEGA_NBR>
     30021

$$$$
50147880
  -OEChem-04172616093D

 84 86  0     1  0  0  0  0  0999 V2000
    6.7519   -0.1871  -16.6996 C   0  0  0  0  0  0  0  0  0  0  0  0
    8.3954    1.3471  -15.7468 C   0  0  0  0  0  0  0  0  0  0  0  0
    8.0324   -0.8333  -14.7246 C   0  0  0  0  0  0  0  0  0  0  0  0
    6.8630    1.0332  -21.3768 C   0  0  0  0  0  0  0  0  0  0  0  0
    5.0144   -0.4134  -20.6968 C   0  0  0  0  0  0  0  0  0  0  0  0
    7.0920   -1.3907  -21.5172 C   0  0  0  0  0  0  0  0  0  0  0  0
    7.4183    1.0594  -16.7248 C   0  0  0  0  0  0  0  0  0  0  0  0
    7.0810   -1.1436  -15.7147 C   0  0  0  0  0  0  0  0  0  0  0  0
    8.7038    0.4018  -14.7506 C   0  0  0  0  0  0  0  0  0  0  0  0
    5.5502    0.8758  -20.8803 C   0  0  0  0  0  0  0  0  0  0  0  0
    7.6341   -0.1009  -21.6911 C   0  0  0  0  0  0  0  0  0  0  0  0
    5.7799   -1.5441  -21.0245 C   0  0  0  0  0  0  0  0  0  0  0  0
    6.0167    6.0038  -18.6893 C   0  0  0  0  0  0  0  0  0  0  0  0
    7.0982    2.0529  -17.7630 C   0  0  0  0  0  0  0  0  0  0  0  0
    6.4380   -2.4672  -15.7004 C   0  0  0  0  0  0  0  0  0  0  0  0
    4.5924    7.8714  -17.8490 C   0  0  0  0  0  0  0  0  0  0  0  0
    4.4003    6.9333  -16.6500 C   0  0  0  0  0  0  0  0  0  0  0  0
    5.1546    4.9578  -17.9208 C   0  0  2  0  0  0  0  0  0  0  0  0
    9.7088    0.7373  -13.6733 C   0  0  0  0  0  0  0  0  0  0  0  0
    7.9864    8.9066  -18.7378 C   0  0  0  0  0  0  0  0  0  0  0  0
    3.7148   -3.3727  -17.6074 C   0  0  0  0  0  0  0  0  0  0  0  0
    9.3212   -4.3783  -16.9887 C   0  0  0  0  0  0  0  0  0  0  0  0
    4.7180    2.0824  -20.5208 C   0  0  0  0  0  0  0  0  0  0  0  0
    6.7713    9.3564  -19.5684 C   0  0  0  0  0  0  0  0  0  0  0  0
    4.6253   -4.5981  -17.8123 C   0  0  0  0  0  0  0  0  0  0  0  0
    8.4452   -4.1557  -18.2351 C   0  0  0  0  0  0  0  0  0  0  0  0
    5.9249    8.1481  -20.0040 C   0  0  0  0  0  0  0  0  0  0  0  0
    5.7630   -4.6364  -16.7779 C   0  0  0  0  0  0  0  0  0  0  0  0
    7.3862   -3.0702  -17.9787 C   0  0  0  0  0  0  0  0  0  0  0  0
    4.4508    3.9840  -18.8885 C   0  0  2  0  0  0  0  0  0  0  0  0
    5.4173    2.9238  -19.4389 C   0  0  1  0  0  0  0  0  0  0  0  0
    5.5329    7.3098  -18.8455 N   0  0  0  0  0  0  0  0  0  0  0  0
    5.8346    2.0414  -18.3375 N   0  0  0  0  0  0  0  0  0  0  0  0
    6.5439   -3.3684  -16.7831 N   0  0  0  0  0  0  0  0  0  0  0  0
    4.0567    5.6032  -17.1609 N   0  3  0  0  0  0  0  0  0  0  0  0
    7.0443    5.6462  -19.2556 O   0  0  0  0  0  0  0  0  0  0  0  0
    7.9359    2.8848  -18.0960 O   0  0  0  0  0  0  0  0  0  0  0  0
    5.8607   -2.7965  -14.6697 O   0  0  0  0  0  0  0  0  0  0  0  0
    3.8500    4.7262  -19.9534 O   0  0  0  0  0  0  0  0  0  0  0  0
    8.8903    0.0493  -22.1685 F   0  0  0  0  0  0  0  0  0  0  0  0
    5.2502   -2.7771  -20.8680 F   0  0  0  0  0  0  0  0  0  0  0  0
    5.9910   -0.4076  -17.4336 H   0  0  0  0  0  0  0  0  0  0  0  0
    8.9087    2.2972  -15.7632 H   0  0  0  0  0  0  0  0  0  0  0  0
    8.2474   -1.5464  -13.9424 H   0  0  0  0  0  0  0  0  0  0  0  0
    7.2742    2.0223  -21.5151 H   0  0  0  0  0  0  0  0  0  0  0  0
    4.0153   -0.5325  -20.3042 H   0  0  0  0  0  0  0  0  0  0  0  0
    7.6820   -2.2616  -21.7615 H   0  0  0  0  0  0  0  0  0  0  0  0
    3.6178    8.0345  -18.3325 H   0  0  0  0  0  0  0  0  0  0  0  0
    4.9882    8.8324  -17.4886 H   0  0  0  0  0  0  0  0  0  0  0  0
    5.3311    6.8792  -16.0665 H   0  0  0  0  0  0  0  0  0  0  0  0
    3.5877    7.3079  -16.0103 H   0  0  0  0  0  0  0  0  0  0  0  0
    5.8028    4.3880  -17.2388 H   0  0  0  0  0  0  0  0  0  0  0  0
    9.1945    1.2186  -12.8284 H   0  0  0  0  0  0  0  0  0  0  0  0
   10.1973   -0.1856  -13.3275 H   0  0  0  0  0  0  0  0  0  0  0  0
   10.4666    1.4231  -14.0798 H   0  0  0  0  0  0  0  0  0  0  0  0
    8.5737    9.7876  -18.4396 H   0  0  0  0  0  0  0  0  0  0  0  0
    7.6397    8.3758  -17.8389 H   0  0  0  0  0  0  0  0  0  0  0  0
    8.6144    8.2346  -19.3412 H   0  0  0  0  0  0  0  0  0  0  0  0
    2.9153   -3.3789  -18.3629 H   0  0  0  0  0  0  0  0  0  0  0  0
    3.2695   -3.4109  -16.6023 H   0  0  0  0  0  0  0  0  0  0  0  0
    4.3093   -2.4530  -17.7104 H   0  0  0  0  0  0  0  0  0  0  0  0
   10.0682   -5.1578  -17.1994 H   0  0  0  0  0  0  0  0  0  0  0  0
    9.8336   -3.4403  -16.7286 H   0  0  0  0  0  0  0  0  0  0  0  0
    8.6877   -4.6956  -16.1473 H   0  0  0  0  0  0  0  0  0  0  0  0
    4.5708    2.6999  -21.4192 H   0  0  0  0  0  0  0  0  0  0  0  0
    3.7412    1.7472  -20.1421 H   0  0  0  0  0  0  0  0  0  0  0  0
    6.1499   10.0309  -18.9611 H   0  0  0  0  0  0  0  0  0  0  0  0
    7.1246    9.8897  -20.4633 H   0  0  0  0  0  0  0  0  0  0  0  0
    4.0215   -5.5122  -17.7131 H   0  0  0  0  0  0  0  0  0  0  0  0
    5.0613   -4.5543  -18.8212 H   0  0  0  0  0  0  0  0  0  0  0  0
    9.0852   -3.8428  -19.0733 H   0  0  0  0  0  0  0  0  0  0  0  0
    7.9392   -5.0981  -18.4920 H   0  0  0  0  0  0  0  0  0  0  0  0
    5.0159    8.5113  -20.5057 H   0  0  0  0  0  0  0  0  0  0  0  0
    6.5110    7.5360  -20.7054 H   0  0  0  0  0  0  0  0  0  0  0  0
    5.3321   -4.7874  -15.7771 H   0  0  0  0  0  0  0  0  0  0  0  0
    6.4365   -5.4726  -17.0171 H   0  0  0  0  0  0  0  0  0  0  0  0
    7.8968   -2.1089  -17.8203 H   0  0  0  0  0  0  0  0  0  0  0  0
    6.7337   -2.9977  -18.8614 H   0  0  0  0  0  0  0  0  0  0  0  0
    3.6644    3.4613  -18.3242 H   0  0  0  0  0  0  0  0  0  0  0  0
    6.2936    3.4235  -19.8776 H   0  0  0  0  0  0  0  0  0  0  0  0
    5.1643    1.3913  -17.9797 H   0  0  0  0  0  0  0  0  0  0  0  0
    3.8221    5.0174  -16.3852 H   0  0  0  0  0  0  0  0  0  0  0  0
    3.2639    5.6912  -17.7640 H   0  0  0  0  0  0  0  0  0  0  0  0
    3.4159    4.1286  -20.5509 H   0  0  0  0  0  0  0  0  0  0  0  0
  1  7  2  0  0  0  0
  1  8  1  0  0  0  0
  2  7  1  0  0  0  0
  2  9  2  0  0  0  0
  3  8  2  0  0  0  0
  3  9  1  0  0  0  0
  4 10  1  0  0  0  0
  4 11  2  0  0  0  0
  5 10  2  0  0  0  0
  5 12  1  0  0  0  0
  6 11  1  0  0  0  0
  6 12  2  0  0  0  0
  7 14  1  0  0  0  0
  8 15  1  0  0  0  0
  9 19  1  0  0  0  0
 10 23  1  0  0  0  0
 11 40  1  0  0  0  0
 12 41  1  0  0  0  0
 13 18  1  0  0  0  0
 13 32  1  0  0  0  0
 13 36  2  0  0  0  0
 14 33  1  0  0  0  0
 14 37  2  0  0  0  0
 15 34  1  0  0  0  0
 15 38  2  0  0  0  0
 16 17  1  0  0  0  0
 16 32  1  0  0  0  0
 17 35  1  0  0  0  0
 18 30  1  0  0  0  0
 18 35  1  0  0  0  0
 20 24  1  0  0  0  0
 21 25  1  0  0  0  0
 22 26  1  0  0  0  0
 23 31  1  0  0  0  0
 24 27  1  0  0  0  0
 25 28  1  0  0  0  0
 26 29  1  0  0  0  0
 27 32  1  0  0  0  0
 28 34  1  0  0  0  0
 29 34  1  0  0  0  0
 30 31  1  0  0  0  0
 30 39  1  0  0  0  0
 31 33  1  0  0  0  0
  1 42  1  0  0  0  0
  2 43  1  0  0  0  0
  3 44  1  0  0  0  0
  4 45  1  0  0  0  0
  5 46  1  0  0  0  0
  6 47  1  0  0  0  0
 16 48  1  0  0  0  0
 16 49  1  0  0  0  0
 17 50  1  0  0  0  0
 17 51  1  0  0  0  0
 18 52  1  0  0  0  0
 19 53  1  0  0  0  0
 19 54  1  0  0  0  0
 19 55  1  0  0  0  0
 20 56  1  0  0  0  0
 20 57  1  0  0  0  0
 20 58  1  0  0  0  0
 21 59  1  0  0  0  0
 21 60  1  0  0  0  0
 21 61  1  0  0  0  0
 22 62  1  0  0  0  0
 22 63  1  0  0  0  0
 22 64  1  0  0  0  0
 23 65  1  0  0  0  0
 23 66  1  0  0  0  0
 24 67  1  0  0  0  0
 24 68  1  0  0  0  0
 25 69  1  0  0  0  0
 25 70  1  0  0  0  0
 26 71  1  0  0  0  0
 26 72  1  0  0  0  0
 27 73  1  0  0  0  0
 27 74  1  0  0  0  0
 28 75  1  0  0  0  0
 28 76  1  0  0  0  0
 29 77  1  0  0  0  0
 29 78  1  0  0  0  0
 30 79  1  0  0  0  0
 31 80  1  0  0  0  0
 33 81  1  0  0  0  0
 35 82  1  0  0  0  0
 35 83  1  0  0  0  0
 39 84  1  0  0  0  0
M  CHG  1  35   1
M  END
> <OMEGA_C>
Og/YQA2bP76/mIXBn1MGQYZsrD+18nvB5oQAQS5WVb/Ol2vBBp7bQDRAhD/HA6vBn3WgQHGq0771
kqXBj/HiQCQBsr8oI6zBHmPtQE+Zhz9KzIXB9JfiQPFgkr+Cb3vBlkILQQu6zT5RAmzBVJuxQPEz
YD/NCqfB3Er0QEKQzr1Vh63BKfW4QNajxb8dMqjBGYnAQMEewECeg5XBZSTjQOhhA0CJGo7BeQTO
QNPmHcCpNHvBjvSSQKji+0DIyo7BE8+MQE7d3UBHM4XBc/KkQHumnkC2XY/BGlcbQXTAPD/IxVrB
tJD/QKOBDkES55XBjb5tQOPaV8D324zBoSMVQSUbjMDw6IfB+/mWQHVFBUCjKqTBta7YQMKzFUEq
jJzBegKUQLkjk8CSf47BWR8HQaz7hMCN4ZHBJ5m9QHNeAkFDCKDBnWq4QFhdlMAWOYbBelvsQHx+
RMBw1I/BBW2OQED6fkCSG5fByVqtQPQeO0DdgpvBgw2xQAPq6UB8w5bB+rS6QLilAkAks5LBQWfR
QMeTV8DPQ4bBytCBQLxNs0COSYnBUGvhQKettECPC5rBpvL9QFCgOECnxJDBwIq7QKb6MsAit2rB
wmZ2QK48l0CioJ/Blj4OQT7CST0QWbHB+wGoQJO8McCs8abBLra/QKS20L4aeIvB7okOQbwEE0A2
NnzBSfUDQaPwxb8mFF/BVcboQMtsAUDfHqzBOn2AQNBSCL8Vb6LBTtP1QB2+EMCDF67BuopnQD2N
AEHrqJLBrJ+fQFRRDUG76IvBtJiqQD0i3EAZiIDBa5xlQJPa6UALFYDBuLC5QFxqjEAI6YnBlBwT
Qa/5mz/xQE3B+icjQbIQPr5UPVXBXHcnQasptj/fRmHB3C0JQS+aHEFChJPBm3j0QEUDBkElto7B
itQJQRXBA0HDuprBzJM6QFFAWMA955LBxT9RQB1MWsBw0YTBn+WJQMj9HMDpro3BUhchQc0MpcBi
mInBZlYdQasuXMAr1IXBpgALQUdClsC9LYHBmkOSQIvKLEBuWqvBQ29vQO6k3z/6IqHBGMzEQG5+
IEE7sJfBkPzjQD48HkHYtKPBgLCAQE1ksMButI3BPfahQCK9kcDnkZbB11wRQTDxdcAUlpjBMA7+
QIojo8Cm75PB64GgQEAuCEGVC6TBZFrQQLsm8UCTpKXBoqCqQHMymcASb3zBg/fNQIAfr8ALI4jB
wLL8QE74BsDtj47BcnrXQHPaP8AN5JbBOoZqQAeGXUD1l5LB72TJQGUaW0BiBZ/BlEGlQLYUsj9n
1o/BM510QL+OoEDZFIPBBORQQHAetkCmHI7BtZ1aQE0dhEAoaKTBU5TYQBNSRb7TkIXB85EGQYAh
rT80KHzBlBkBQTN/VL/2tWvBZIzZQHiHhD/a0qrB/FCfQNwD476cUaXBTQviQPYQsb/EFKzBusHt
QETghj+I2oXBkJjjQKrQkr8sdXvBPkkLQeFt2T5A3GvBe9GvQLnUWj8juabBEr/yQCKkrL0Eaq3B
8ji4QKqlx7/UFqjBT9/CQHGzvkDVbZTBxyTjQG/4AUA4PY7BSgTPQEkbHsCmLHvByDCcQI/K/EA/
RIzBKa6LQKsm3EBLIoTB/G+iQK3jnkDJFo/BgyYcQccZPj/qR1vBRie3QA1lDkH846jBSX1uQJ5N
W8DB1IzB4poVQVAwi8AACojBFceUQHblAkAdrKPBLZLJQMThFkFmSZ7BpyOVQHVNlMBAbo7B7mIH
QROshMAv9pHBYL/eQFP0BEGVhJfB0nu5QGuwlMAfIobB6ZjsQOB8RMDg5o/BlCONQNLzf0BSHZfB
2s6rQIdIOkAYRpvBgXO/QKsw60BEzpLBR8K5QEOKA0DUVJLBywbSQECqV8DrRYbBR8h8QAXgtUAb
/4nBKEnhQCFDsEDFdJnBJ7b+QHdAM0B2hpHBfnG8QNTYMsC9r2rBCSJ4QPREmEAkzJ/BX3ANQf4F
tj23NrHB5tenQI9KM8AC6abBQ+y/QHHL1L7uWYvBh/oOQdbmEkAgw3zBGQcFQUy4xr8ze1/BcBXm
QC8GAkC096vBzgx/QKuhFL/xHKLBkkn1QAKWD8A7Hq7BTLuBQNgGA0GtlpHBDtynQPyVDEGC9IfB
KEOlQCP000AI5XzBg4FgQDiP6UDdgX/BGqKzQHoCjEBRCInBu5YUQS62nD/aYU3BiAYkQSVPQL7l
KlbBNB0oQeQStj8bO2LBNJCoQKmqG0GzX63BvATRQI5CB0EUra3BwbeeQJAvAkFMM6fB/Gw7QCvR
XMDQ4pLBpO5RQJgfXsCay4TBEbSJQLu7H8Cyqo3BSakhQWTto8BRuonBM60dQSfgWcC4DIbBD6ML
Qb9ZlcD7PoHBtpKOQA6/KUBi2KrBtHZsQM6F2D94VqDBnMPhQKImI0E3FaDBoXavQKQTHkFvm5nB
KWSCQGHrscDwn43B6CCjQHO5ksAIf5bBTnURQSVLdcClupjBVNb+QD4Po8Do7JPBUeP0QGP390Dx
rpzBcMPwQPl4DEFr9ZDB66urQJFOmcBdPnzBQ1zPQLJIr8DE9IfBt6f8QJuRBsD8tY7BR33XQLKf
QMBz7ZbB/35lQNqWX0AH7ZLBG7THQO4bWUCCAp/BewekQGzmuT9R+47B9tFfQMj2oUDd4oTBnnZT
QEidvkCrs4/BZrxdQLaHhUA5yqTBxkTaQLzbFL7064TBKE8HQZmNtz/DvHvBvoYBQQUiM7+BvWnB
HM/ZQLPLhz83iavBOZ+kQBUIAL+PfqTB8knnQHVLq7/xHazBcV/vQBWsjD+1lYXBRy/kQM6Chb9L
KHnBn1cMQdHZBz8IKGvBeMyxQDwqUj90p6bBXqH0QDQFl7zeL67BuUO/QIP2yb97UKfBR2XCQOQ5
vkDJsZPBomTkQG7KAkCoMo7BFGvMQOpGE8B7LXfBmqOeQA9L+UCzhInBxe+JQA0Z1kAj1ILBfLah
QC5PnUDn/o7BWmEcQZi4aT9UI1rBIuTVQO7GI0HtQqLBpIk3QKX/h8A52ozBxfsXQfunkMAB+o/B
YY2VQFFN/T+vfKPBdyXHQEvtDEELrp/Bj0eEQDhuWsCTKozB08wGQRVHiMBtmIfB5EbdQDC1BEEw
Z5XBMLGlQB+/g8ApOYXBHxPsQNoXU8BbIYzBpK+NQBhmfkBRaZfBdJisQABLOEBhTpvB6mvCQP3g
6ECRGpDBudS6QBR9A0CjM5LBGrzJQLxUTMAXMYTB1AF6QIKls0CwD4rBhEDeQP8NskC65pnBnMf/
QOJrM0BOuZHBEim4QFIGIMDUrmbBRld9QKoXmEB4OqDBR5kNQQoAWT5LuLLBXGuyQJgfNsDVfKXB
OnjCQGmH0r6S0IrBDG4PQWKuGEAypHzBAhQFQXa+sL/wzlzB7M7jQEmnBECxO63BCiqGQBsmL7+t
r6DB8Mb7QGS4CsAYN67BE0uGQG6WA0HI147BdO+qQD0dCUEEH4TBqQmhQI3cyUAH33nB4XNbQNva
4kCZSH3B9SiyQEbUiUCX7YjBsB8UQWw/tz/W/kzBxyskQTPfxDs+71PB64coQWQvyj+4F2HBwd7F
QC1eKUHelKnB6aDNQNBvLkEakpvBQMD4QOTnI0HueqPBCB0IQC/WbsA23ZHBsqxGQO5Jp8BfaZDB
XDAdQP6ujMDKxoTBwQMkQYrApsAcs4zBXp0QQXT5nsAlH5fBabsfQVeTZMBHKpLBPLmNQJuAJEDi
pKrBmclvQMOvyz8Z55/BYEWkQN3cDEHlfJ7BtmTPQPFUAkG6ZabBQFKRQFYTUcCFQZTBKSh5QHbd
G8DwnojBQR/+QDWopsBvaIXBrC0OQdrwc8CRc4DBPlL8QHIi+0DDg5fBi2DiQPkyEkHK5Y/BrD2Y
QOQCi8DWl3rBSi2wQD6aocDzE4nBBXv6QH7XE8CQh43BfEzfQKlKbMB8s5PBtoRkQL9UXkBNn5PB
f1jIQL2OVkDTLZ/BaTWlQF1kuz/jq47Bm6BXQHdWnkBx64XBJ+VVQMggwEDu4Y/B3ZpkQO+8hUA8
cKXBoLraQLxudL4QhIXBMDQIQZ4ipT8WqnzBUK8BQeNoWL8mF2vB4EzdQIExlj+ov6vBZVGnQOUY
075Ae6XBNfjqQIu5nL9ttazBNaLwQK4afz/VCIbB+fjjQEvMkr9DaHrB4AUNQQC4uj5jWWzBbae0
QBL0aT97QqfBfYL4QOyn0z2Aa67B/EnCQKRtvb8XSKjBbBu/QOa2wEB5uZXBME7lQERM/z/NQo7B
B8XJQNTeFcBPmnfBY6eaQJRk/EDqz4vBFkaRQM7L2UARdYPBGC2lQBCjnkBYVY/BSREdQRf1Nj8h
K1vB0vMIQRkEAkEg45TBuYVeQAI0ncBbp47BcJEQQVozf8CRRZjB/e+XQGtXA0Br76PBPrTtQPbB
EUHhqZfBz2+OQJBUdsAjvYrBNdz2QETaaMBk15LBN4bGQFErBkGpW5zBF6WvQKKbj8CtHYPBo8H7
QNp6ccDxqYbBUI6OQPuVfEBMvpbB7NKtQLv0OEDsMJvBvke1QIhy7EA7wZTBQxG8QKcPAEC6d5LB
LZnSQJg0YsAXN4HBXc+CQI4/s0BVC4nBgfzaQFD0tEC/+JvBnbn/QBg2NUBVEZHBKRuqQJ/nD8DR
HWzBhvZzQOwhlUCMOJ/B3MoPQdJusz5WoLLBFRe1QEEJMMBBrKbBv/nCQNja+L64eIvBYLMQQYmu
DkAbZ33BTwsFQbuSxb+RV17BxHfnQAs7DECSIK3BcGCIQDLMG7+l96HBOMf/QJb5AsB9yq7B/DR4
QNEHBEFQEY/BDZ2rQNF3C0FX4ofBfX+uQKCv0kBXxX3BVD9wQCD35ECn8HvBLBO7QJhQjUCN+YnB
8+QUQRfznT8E+03B3YckQU4eU75NFlXBWHgpQft9rz/P7GHBaZ8WQZ7jCkGckJHBYSwDQUTH7EA+
8o7Bxf8NQVcF80CZKpzBs3MvQPKBjsCgEZTBpvaAQKZMtsAr9JLBBik9QN1lq8DSw4fB/cwOQV4B
ecAy/qDB+SAdQa1OU8BOdpXBGwUVQUe0oMD8RZbBm1SRQHErLEBM6arB0l5zQJ/P0j/m0KDBYvnj
QL8+GkEoWZDBKaD5QMldHUGDkZ3BlROfQG31WcCQopHB5GJ5QNonRMA3cobB4vXtQG+lJsBz15TB
J77dQKhfisAgp5XB6YOtQN8FEkEnJ57B9APQQNbx+0BtxqPBBiqgQCGdl8DI8HbB35K8QOflrMDc
xYbBAH4DQds3mcD2wYTBYawJQQ1pQsAG1IPBDHJsQN/lWkCR+pHBz5zJQCrmWUDTr57BQb6mQCxv
rj8eYo/BgBNwQKlOnkCsoIPBYQhWQPdBu0A7AY7BBeZXQN1zgUCT1KPB

> <OMEGA_E>
FCyYPvDvXT6UIOI+jD0ZPw==

> <OMEGA_NBR>
     35479

$$$$
50147921
  -OEChem-04172616093D

 81 83  0     1  0  0  0  0  0999 V2000
    6.7801   -0.1942  -16.7004 C   0  0  0  0  0  0  0  0  0  0  0  0
    8.4346    1.3438  -15.7733 C   0  0  0  0  0  0  0  0  0  0  0  0
    8.0849   -0.8358  -14.7410 C   0  0  0  0  0  0  0  0  0  0  0  0
    6.8205    1.0350  -21.3393 C   0  0  0  0  0  0  0  0  0  0  0  0
    4.9931   -0.4431  -20.6704 C   0  0  0  0  0  0  0  0  0  0  0  0
    7.0833   -1.3834  -21.5027 C   0  0  0  0  0  0  0  0  0  0  0  0
    7.4476    1.0494  -16.7398 C   0  0  0  0  0  0  0  0  0  0  0  0
    7.1247   -1.1506  -15.7226 C   0  0  0  0  0  0  0  0  0  0  0  0
    8.7276    0.4161  -14.7542 C   0  0  0  0  0  0  0  0  0  0  0  0
    5.5126    0.8547  -20.8366 C   0  0  0  0  0  0  0  0  0  0  0  0
    7.6085   -0.0847  -21.6610 C   0  0  0  0  0  0  0  0  0  0  0  0
    5.7725   -1.5594  -21.0140 C   0  0  0  0  0  0  0  0  0  0  0  0
    6.0890    5.9650  -18.5165 C   0  0  0  0  0  0  0  0  0  0  0  0
    7.1150    2.0285  -17.7857 C   0  0  0  0  0  0  0  0  0  0  0  0
    6.4743   -2.4715  -15.7010 C   0  0  0  0  0  0  0  0  0  0  0  0
    4.9074    7.8804  -17.4338 C   0  0  0  0  0  0  0  0  0  0  0  0
    4.3231    6.8441  -16.4743 C   0  0  0  0  0  0  0  0  0  0  0  0
    5.0710    4.9599  -17.8735 C   0  0  2  0  0  0  0  0  0  0  0  0
    9.7846    0.7318  -13.7205 C   0  0  0  0  0  0  0  0  0  0  0  0
    3.7132   -3.3933  -17.5987 C   0  0  0  0  0  0  0  0  0  0  0  0
    9.3314   -4.3619  -16.9951 C   0  0  0  0  0  0  0  0  0  0  0  0
    6.3147    8.8808  -20.1263 C   0  0  0  0  0  0  0  0  0  0  0  0
    4.6667    2.0449  -20.4580 C   0  0  0  0  0  0  0  0  0  0  0  0
    4.6278   -4.6166  -17.7971 C   0  0  0  0  0  0  0  0  0  0  0  0
    8.4497   -4.1609  -18.2408 C   0  0  0  0  0  0  0  0  0  0  0  0
    6.9537    8.3049  -18.8486 C   0  0  0  0  0  0  0  0  0  0  0  0
    5.7708   -4.6398  -16.7677 C   0  0  0  0  0  0  0  0  0  0  0  0
    7.3814   -3.0824  -17.9943 C   0  0  0  0  0  0  0  0  0  0  0  0
    4.4204    3.9957  -18.8892 C   0  0  2  0  0  0  0  0  0  0  0  0
    5.3831    2.9116  -19.4069 C   0  0  1  0  0  0  0  0  0  0  0  0
    6.0519    7.3324  -18.1866 N   0  0  0  0  0  0  0  0  0  0  0  0
    5.8186    2.0595  -18.2877 N   0  0  0  0  0  0  0  0  0  0  0  0
    6.5505   -3.3705  -16.7889 N   0  0  0  0  0  0  0  0  0  0  0  0
    3.9284    5.6715  -17.2567 N   0  3  0  0  0  0  0  0  0  0  0  0
    6.9950    5.5391  -19.2242 O   0  0  0  0  0  0  0  0  0  0  0  0
    7.9782    2.7921  -18.2053 O   0  0  0  0  0  0  0  0  0  0  0  0
    5.8965   -2.7909  -14.6677 O   0  0  0  0  0  0  0  0  0  0  0  0
    3.8929    4.7572  -19.9758 O   0  0  0  0  0  0  0  0  0  0  0  0
    8.8666    0.0882  -22.1252 F   0  0  0  0  0  0  0  0  0  0  0  0
    5.2582   -2.8009  -20.8734 F   0  0  0  0  0  0  0  0  0  0  0  0
    6.0049   -0.4134  -17.4197 H   0  0  0  0  0  0  0  0  0  0  0  0
    8.9664    2.2829  -15.8156 H   0  0  0  0  0  0  0  0  0  0  0  0
    8.3287   -1.5578  -13.9757 H   0  0  0  0  0  0  0  0  0  0  0  0
    7.2147    2.0311  -21.4763 H   0  0  0  0  0  0  0  0  0  0  0  0
    3.9959   -0.5800  -20.2790 H   0  0  0  0  0  0  0  0  0  0  0  0
    7.6851   -2.2436  -21.7560 H   0  0  0  0  0  0  0  0  0  0  0  0
    4.1270    8.1902  -18.1445 H   0  0  0  0  0  0  0  0  0  0  0  0
    5.2443    8.7535  -16.8557 H   0  0  0  0  0  0  0  0  0  0  0  0
    5.0798    6.5576  -15.7291 H   0  0  0  0  0  0  0  0  0  0  0  0
    3.4446    7.2636  -15.9622 H   0  0  0  0  0  0  0  0  0  0  0  0
    5.5971    4.3695  -17.1089 H   0  0  0  0  0  0  0  0  0  0  0  0
    9.3155    1.2172  -12.8520 H   0  0  0  0  0  0  0  0  0  0  0  0
   10.2736   -0.2000  -13.3998 H   0  0  0  0  0  0  0  0  0  0  0  0
   10.5344    1.4077  -14.1575 H   0  0  0  0  0  0  0  0  0  0  0  0
    2.9099   -3.4098  -18.3500 H   0  0  0  0  0  0  0  0  0  0  0  0
    3.2733   -3.4241  -16.5910 H   0  0  0  0  0  0  0  0  0  0  0  0
    4.3033   -2.4721  -17.7133 H   0  0  0  0  0  0  0  0  0  0  0  0
   10.0847   -5.1370  -17.1996 H   0  0  0  0  0  0  0  0  0  0  0  0
    9.8362   -3.4167  -16.7468 H   0  0  0  0  0  0  0  0  0  0  0  0
    8.7034   -4.6756  -16.1482 H   0  0  0  0  0  0  0  0  0  0  0  0
    7.0073    9.5971  -20.5924 H   0  0  0  0  0  0  0  0  0  0  0  0
    6.1038    8.0632  -20.8312 H   0  0  0  0  0  0  0  0  0  0  0  0
    5.3764    9.3934  -19.8678 H   0  0  0  0  0  0  0  0  0  0  0  0
    4.4749    2.6512  -21.3555 H   0  0  0  0  0  0  0  0  0  0  0  0
    3.7112    1.6911  -20.0434 H   0  0  0  0  0  0  0  0  0  0  0  0
    4.0285   -5.5323  -17.6863 H   0  0  0  0  0  0  0  0  0  0  0  0
    5.0585   -4.5803  -18.8086 H   0  0  0  0  0  0  0  0  0  0  0  0
    9.0845   -3.8517  -19.0842 H   0  0  0  0  0  0  0  0  0  0  0  0
    7.9517   -5.1106  -18.4856 H   0  0  0  0  0  0  0  0  0  0  0  0
    7.8933    7.7986  -19.1148 H   0  0  0  0  0  0  0  0  0  0  0  0
    7.1659    9.1288  -18.1514 H   0  0  0  0  0  0  0  0  0  0  0  0
    5.3447   -4.7808  -15.7635 H   0  0  0  0  0  0  0  0  0  0  0  0
    6.4448   -5.4773  -17.0009 H   0  0  0  0  0  0  0  0  0  0  0  0
    7.8831   -2.1135  -17.8544 H   0  0  0  0  0  0  0  0  0  0  0  0
    6.7224   -3.0304  -18.8736 H   0  0  0  0  0  0  0  0  0  0  0  0
    3.5922    3.4853  -18.3759 H   0  0  0  0  0  0  0  0  0  0  0  0
    6.2541    3.3959  -19.8725 H   0  0  0  0  0  0  0  0  0  0  0  0
    5.1377    1.4644  -17.8608 H   0  0  0  0  0  0  0  0  0  0  0  0
    3.4483    5.0353  -16.6528 H   0  0  0  0  0  0  0  0  0  0  0  0
    3.3113    5.9700  -17.9847 H   0  0  0  0  0  0  0  0  0  0  0  0
    3.4900    4.1724  -20.6068 H   0  0  0  0  0  0  0  0  0  0  0  0
  1  7  1  0  0  0  0
  1  8  2  0  0  0  0
  2  7  2  0  0  0  0
  2  9  1  0  0  0  0
  3  8  1  0  0  0  0
  3  9  2  0  0  0  0
  4 10  1  0  0  0  0
  4 11  2  0  0  0  0
  5 10  2  0  0  0  0
  5 12  1  0  0  0  0
  6 11  1  0  0  0  0
  6 12  2  0  0  0  0
  7 14  1  0  0  0  0
  8 15  1  0  0  0  0
  9 19  1  0  0  0  0
 10 23  1  0  0  0  0
 11 39  1  0  0  0  0
 12 40  1  0  0  0  0
 13 18  1  0  0  0  0
 13 31  1  0  0  0  0
 13 35  2  0  0  0  0
 14 32  1  0  0  0  0
 14 36  2  0  0  0  0
 15 33  1  0  0  0  0
 15 37  2  0  0  0  0
 16 17  1  0  0  0  0
 16 31  1  0  0  0  0
 17 34  1  0  0  0  0
 18 29  1  0  0  0  0
 18 34  1  0  0  0  0
 20 24  1  0  0  0  0
 21 25  1  0  0  0  0
 22 26  1  0  0  0  0
 23 30  1  0  0  0  0
 24 27  1  0  0  0  0
 25 28  1  0  0  0  0
 26 31  1  0  0  0  0
 27 33  1  0  0  0  0
 28 33  1  0  0  0  0
 29 30  1  0  0  0  0
 29 38  1  0  0  0  0
 30 32  1  0  0  0  0
  1 41  1  0  0  0  0
  2 42  1  0  0  0  0
  3 43  1  0  0  0  0
  4 44  1  0  0  0  0
  5 45  1  0  0  0  0
  6 46  1  0  0  0  0
 16 47  1  0  0  0  0
 16 48  1  0  0  0  0
 17 49  1  0  0  0  0
 17 50  1  0  0  0  0
 18 51  1  0  0  0  0
 19 52  1  0  0  0  0
 19 53  1  0  0  0  0
 19 54  1  0  0  0  0
 20 55  1  0  0  0  0
 20 56  1  0  0  0  0
 20 57  1  0  0  0  0
 21 58  1  0  0  0  0
 21 59  1  0  0  0  0
 21 60  1  0  0  0  0
 22 61  1  0  0  0  0
 22 62  1  0  0  0  0
 22 63  1  0  0  0  0
 23 64  1  0  0  0  0
 23 65  1  0  0  0  0
 24 66  1  0  0  0  0
 24 67  1  0  0  0  0
 25 68  1  0  0  0  0
 25 69  1  0  0  0  0
 26 70  1  0  0  0  0
 26 71  1  0  0  0  0
 27 72  1  0  0  0  0
 27 73  1  0  0  0  0
 28 74  1  0  0  0  0
 28 75  1  0  0  0  0
 29 76  1  0  0  0  0
 30 77  1  0  0  0  0
 32 78  1  0  0  0  0
 34 79  1  0  0  0  0
 34 80  1  0  0  0  0
 38 81  1  0  0  0  0
M  CHG  1  34   1
M  END
> <OMEGA_C>
lfbYQJriRr5emoXBSPQGQfoBrD91X3zBxlsBQS/5Vb8k22vBaUHaQHl5hD/OtqrBYcefQJPg4r4G
XaXBFKriQOERsb+eBazBHVPuQJhThj8I64XB0v3jQINFk7+2j3vBP6QLQQEJ1T5kEWzBbmewQL7M
Wj9fsabBk3jzQDh2rb3LSa3Bdri4QM6bx7+YHKjBr9jCQJnhvkDKIZTBz63jQC/SAUAFSY7BwS3P
QG0sHsA7N3vBKgmdQE8s/EBzeIvBLleKQMIC20BZy4PBrUWiQNa3nkDx/I7Bzo0cQbNVOz8eh1vB
PaVtQHMsWcA8yozBnU0VQQmVi8De9YfBMBLKQNsXDkGfAqHBs1WVQFTfAkABqqPBihaUQMu6k8Bd
YI7B7DEHQcUlhcAa7ZHBbYTeQOjgBEH7yZbBoKq4QGJ5lMBJJIbBezTsQEVGRcBs9I/BvXONQPC5
f0AUHZfB9UGsQD5XOkBqQZvBjanBQEGj6kA5fpHBvzG6QNnOA0AtTZLBC57RQCa2V8C/T4bBTWt7
QMh8tUCfDYrBSNffQJtAsUAZy5nBpU3/QDKxMkBhpJHB0K+8QIqeMsDKrmrB5SR5QEs7mEBzzp/B
jd0NQfGutD19ALHBZkOoQLRBM8DM/KbB2CfAQFWn0755W4vBSHYPQdYaEkCpDH3BKUIFQc9lx79F
nF/BpN7mQBb9AUBdz6vBLLx/QEB9FL9yO6LBVuz1QLOXD8AyDK7B/Q+EQOEKA0HWJ5HBRdGnQE0O
DEF92IbBBI6iQPvX0UBJqnvB03RcQGxv6EA4ZX/BUxuzQOzSi0AK34jBGgwVQbDMmz/PoU3BemAk
QTrCTL7EZVbB0YwoQd8vtD8ZhWLBhTs6QNE6WsDRzJLBAH5RQIUkW8BguoTBk7SJQNQ2HsDKtI3B
AlshQXhipMDImInBR2EdQYeqWsCD+YXBKUELQZ2elcB+L4HBxzvgQL2NGUFDvaTB9VHDQLoCAUFS
pqbBUwusQFxLFkFY8Z7BEDKPQNytKUAb2KrB5YRtQGZ22D/ZWKDBxOmAQPEIscCAfY3BV9+hQBiS
ksDqd5bBIloRQbOBdsB8rJjBCXT+QDOKo8B34pPBhJX8QECO+UAW65jB4k7lQMIPEkEcNpHBuger
QFH8mMAiN3zBFDzOQNpFr8DcAYjBcEL8QF9EB8DB1Y7B4h3XQKvyQcAK/ZbBSeZlQI4OX0DCAZPB
VSHIQPFWWUDX+p7Bs2ekQJVxuz/z4o7B2LBcQM8goUDYOIXB5OxTQIYKv0Cu4I/BQlxfQFaEhUC+
2qTBTHDdQB0TlL5lmIXBHP0HQTmIqT/UXHzBGf4DQQjgXb9PtWvBIavZQK0dhz+n4KrBHXWgQHXa
5L6HGKXBh3ziQM+Mrb8BfqzBqdnwQPkUfT+J7IXBX2TpQLY6nL+tP3vB9W4NQard0j4TFWzBH1Ww
QAxYWz8Ql6bBbuDyQPKkV70Zuq3BvnC5QAKmxr8zFajBO4TCQDOGv0DPgpTBQ43kQPqK/T/wIo7B
QxzSQJaLH8BBU3nBNVqdQAC//EBcoYvBePGLQHKn20DZwYPBPSOjQBYpn0Cy947BPe4dQegnSj9u
c1vBfI96QGEqZMC47ovBt+gFQXRwN8B6oJbBv23HQBPzD0GI5qDBKTqVQLEuAkDxWqPBZrGkQDzq
jcAVRI7B8oQKQdayhMAtTpDBaNDdQC5ZBUGeSJfBjhnAQAuml8BIM4TBELAGQVRne8DGRoTBhdON
QESgfkBXw5bB9HesQMiYOEC/5prBZmPBQI1c60B65pHBksy6QCyCAEB2C5LB/pnfQIsSa8CqwIHB
7sp9QCjYtUA/24nBDbbeQJbzsUBobZrBxQL/QI5BM0AgOJHB3fuvQHT5HcB5rG/B49N3QInwlkB9
eZ/BQ1oNQRvuCT6RrbHBN+epQLE9M8AHuabBpnLFQGC8Db+JcYvBxsQPQfxtEkD6An3Bn30IQe7N
yb+7fF/BC+DlQPKiA0C19qvByB2BQO7MGL9mqKHBmmj1QNE6DcDa7a7Bu5iDQDcgA0FJI5HBeW6o
QD52DEFeJIfBwfikQFHg0kB88XvBFnVgQA/v6EC+7n7Bsgu1QGQOjUBh5IjBd+sVQbzMoD8LrE3B
MnomQcls573jJVbBO2cpQUoSwD8pb2LBNfdWQBUNWcCJZZPB3ABRQDGPgsBFJYbBYJ+HQDZyJsCn
lIjB0sEIQQsHQ8BwMJ/B8kXqQIF1JMDIaJXBbYUQQY/2A8C80ZPB2V3dQBBwG0HTsKTBuVe+QCaY
A0HWvabBdpSqQGhiGEENI57BQ7OOQG7dKUBCcKrBd69tQEe41T+tAKDBusWZQKNzrMDyr5HBrOS4
QBs7esBUH5TBX8//QBxWnsDxKpPBI0obQaMWjsDlk5HBN7L6QK8O+kCwHJrB9O7mQJnREUHngZHB
RI+qQEdCm8AlmXrBCYLRQOHGtcCnh4XBg+oLQUF0msBz2X/BzTEQQZ8NRMCnooHBsadnQBd1XkC6
ZpLBA1zIQKVuV0Bno57BLEGlQNI+sz+DrI7BKUxgQIGNoUCp44TB6wdVQAoUv0Bfk4/BIk9dQIDD
g0AfWqTB

> <OMEGA_E>
oP42PmiPvz4=

> <OMEGA_NBR>
     38337

$$$$
50147899
  -OEChem-04172616093D

 78 81  0     1  0  0  0  0  0999 V2000
    5.1389   10.5230  -22.0675 C   0  0  0  0  0  0  0  0  0  0  0  0
    5.6621   11.2140  -20.9567 C   0  0  0  0  0  0  0  0  0  0  0  0
    5.2243    9.1174  -22.1290 C   0  0  0  0  0  0  0  0  0  0  0  0
    6.2664   10.5008  -19.9048 C   0  0  0  0  0  0  0  0  0  0  0  0
    5.8350    8.4016  -21.0800 C   0  0  0  0  0  0  0  0  0  0  0  0
    6.9067    1.1605  -21.3696 C   0  0  0  0  0  0  0  0  0  0  0  0
    5.2990   -0.3953  -20.3857 C   0  0  0  0  0  0  0  0  0  0  0  0
    7.3829   -1.2307  -21.3379 C   0  0  0  0  0  0  0  0  0  0  0  0
    6.3560    9.0940  -19.9618 C   0  0  0  0  0  0  0  0  0  0  0  0
    5.6702    0.9180  -20.7353 C   0  0  0  0  0  0  0  0  0  0  0  0
    7.7630    0.0862  -21.6693 C   0  0  0  0  0  0  0  0  0  0  0  0
    6.1517   -1.4696  -20.6933 C   0  0  0  0  0  0  0  0  0  0  0  0
    6.0764    6.0383  -18.5288 C   0  0  0  0  0  0  0  0  0  0  0  0
    8.4152   -0.1778  -14.9390 C   0  0  0  0  0  0  0  0  0  0  0  0
    6.9888    1.8696  -17.6044 C   0  0  0  0  0  0  0  0  0  0  0  0
    4.9176    7.9762  -17.4634 C   0  0  0  0  0  0  0  0  0  0  0  0
    7.2707   -0.5268  -16.9162 C   0  0  0  0  0  0  0  0  0  0  0  0
    4.3200    6.9597  -16.4913 C   0  0  0  0  0  0  0  0  0  0  0  0
    5.0686    5.0492  -17.8589 C   0  0  2  0  0  0  0  0  0  0  0  0
    7.0742    0.8861  -16.4298 C   0  0  1  0  0  0  0  0  0  0  0  0
    9.1951   -4.5007  -17.0725 C   0  0  0  0  0  0  0  0  0  0  0  0
    7.5514    2.5469  -13.7197 C   0  0  0  0  0  0  0  0  0  0  0  0
    4.7683    2.0705  -20.3803 C   0  0  0  0  0  0  0  0  0  0  0  0
    7.0125    8.3464  -18.8192 C   0  0  0  0  0  0  0  0  0  0  0  0
    8.1338   -3.4150  -16.8646 C   0  0  0  0  0  0  0  0  0  0  0  0
    8.5425    2.3087  -14.8695 C   0  0  0  0  0  0  0  0  0  0  0  0
    8.7383   -2.3684  -15.9324 C   0  0  0  0  0  0  0  0  0  0  0  0
    4.4416    4.0495  -18.8537 C   0  0  2  0  0  0  0  0  0  0  0  0
    5.4209    2.9381  -19.2896 C   0  0  1  0  0  0  0  0  0  0  0  0
    6.0644    7.4017  -18.1936 N   0  0  0  0  0  0  0  0  0  0  0  0
    7.9106   -1.1798  -15.7691 N   0  0  0  0  0  0  0  0  0  0  0  0
    8.2279    1.0539  -15.5586 N   0  0  0  0  0  0  0  0  0  0  0  0
    5.7235    2.0988  -18.1230 N   0  0  0  0  0  0  0  0  0  0  0  0
    3.9239    5.7740  -17.2583 N   0  3  0  0  0  0  0  0  0  0  0  0
    6.9548    5.6026  -19.2651 O   0  0  0  0  0  0  0  0  0  0  0  0
    9.0638   -0.3688  -13.9151 O   0  0  0  0  0  0  0  0  0  0  0  0
    7.9895    2.4136  -18.0632 O   0  0  0  0  0  0  0  0  0  0  0  0
    3.9414    4.7691  -19.9812 O   0  0  0  0  0  0  0  0  0  0  0  0
    8.9499    0.3201  -22.2729 F   0  0  0  0  0  0  0  0  0  0  0  0
    5.7900   -2.7291  -20.3621 F   0  0  0  0  0  0  0  0  0  0  0  0
    4.6718   11.0709  -22.8726 H   0  0  0  0  0  0  0  0  0  0  0  0
    5.5995   12.2913  -20.9126 H   0  0  0  0  0  0  0  0  0  0  0  0
    4.8216    8.5888  -22.9804 H   0  0  0  0  0  0  0  0  0  0  0  0
    6.6625   11.0316  -19.0518 H   0  0  0  0  0  0  0  0  0  0  0  0
    5.9053    7.3250  -21.1297 H   0  0  0  0  0  0  0  0  0  0  0  0
    7.1951    2.1696  -21.6246 H   0  0  0  0  0  0  0  0  0  0  0  0
    4.3609   -0.5764  -19.8822 H   0  0  0  0  0  0  0  0  0  0  0  0
    8.0353   -2.0571  -21.5782 H   0  0  0  0  0  0  0  0  0  0  0  0
    4.1459    8.2783  -18.1867 H   0  0  0  0  0  0  0  0  0  0  0  0
    5.2561    8.8574  -16.8987 H   0  0  0  0  0  0  0  0  0  0  0  0
    6.3075   -1.0010  -17.1553 H   0  0  0  0  0  0  0  0  0  0  0  0
    7.9226   -0.5538  -17.8018 H   0  0  0  0  0  0  0  0  0  0  0  0
    5.0692    6.6816  -15.7354 H   0  0  0  0  0  0  0  0  0  0  0  0
    3.4400    7.3927  -15.9933 H   0  0  0  0  0  0  0  0  0  0  0  0
    5.5991    4.4854  -17.0774 H   0  0  0  0  0  0  0  0  0  0  0  0
    6.1452    0.9451  -15.8437 H   0  0  0  0  0  0  0  0  0  0  0  0
    8.7985   -5.2785  -17.7417 H   0  0  0  0  0  0  0  0  0  0  0  0
   10.0938   -4.0535  -17.5225 H   0  0  0  0  0  0  0  0  0  0  0  0
    9.4552   -4.9495  -16.1025 H   0  0  0  0  0  0  0  0  0  0  0  0
    7.7985    3.4907  -13.2115 H   0  0  0  0  0  0  0  0  0  0  0  0
    6.5295    2.6041  -14.1226 H   0  0  0  0  0  0  0  0  0  0  0  0
    7.6165    1.7161  -13.0017 H   0  0  0  0  0  0  0  0  0  0  0  0
    4.5927    2.6841  -21.2762 H   0  0  0  0  0  0  0  0  0  0  0  0
    3.8091    1.6806  -20.0091 H   0  0  0  0  0  0  0  0  0  0  0  0
    7.8772    7.7864  -19.2049 H   0  0  0  0  0  0  0  0  0  0  0  0
    7.3518    9.0698  -18.0632 H   0  0  0  0  0  0  0  0  0  0  0  0
    7.8711   -2.9548  -17.8286 H   0  0  0  0  0  0  0  0  0  0  0  0
    7.2326   -3.8508  -16.4087 H   0  0  0  0  0  0  0  0  0  0  0  0
    8.4764    3.1421  -15.5845 H   0  0  0  0  0  0  0  0  0  0  0  0
    9.5634    2.2540  -14.4636 H   0  0  0  0  0  0  0  0  0  0  0  0
    8.8850   -2.8276  -14.9437 H   0  0  0  0  0  0  0  0  0  0  0  0
    9.7117   -2.0600  -16.3416 H   0  0  0  0  0  0  0  0  0  0  0  0
    3.5989    3.5619  -18.3418 H   0  0  0  0  0  0  0  0  0  0  0  0
    6.3406    3.3945  -19.6845 H   0  0  0  0  0  0  0  0  0  0  0  0
    4.9530    1.6559  -17.6645 H   0  0  0  0  0  0  0  0  0  0  0  0
    3.4390    5.1488  -16.6468 H   0  0  0  0  0  0  0  0  0  0  0  0
    3.3112    6.0630  -17.9939 H   0  0  0  0  0  0  0  0  0  0  0  0
    3.5534    4.1606  -20.5990 H   0  0  0  0  0  0  0  0  0  0  0  0
  1  2  1  0  0  0  0
  1  3  2  0  0  0  0
  2  4  2  0  0  0  0
  3  5  1  0  0  0  0
  4  9  1  0  0  0  0
  5  9  2  0  0  0  0
  6 10  1  0  0  0  0
  6 11  2  0  0  0  0
  7 10  2  0  0  0  0
  7 12  1  0  0  0  0
  8 11  1  0  0  0  0
  8 12  2  0  0  0  0
  9 24  1  0  0  0  0
 10 23  1  0  0  0  0
 11 39  1  0  0  0  0
 12 40  1  0  0  0  0
 13 19  1  0  0  0  0
 13 30  1  0  0  0  0
 13 35  2  0  0  0  0
 14 31  1  0  0  0  0
 14 32  1  0  0  0  0
 14 36  2  0  0  0  0
 15 20  1  0  0  0  0
 15 33  1  0  0  0  0
 15 37  2  0  0  0  0
 16 18  1  0  0  0  0
 16 30  1  0  0  0  0
 17 20  1  0  0  0  0
 17 31  1  0  0  0  0
 18 34  1  0  0  0  0
 19 28  1  0  0  0  0
 19 34  1  0  0  0  0
 20 32  1  0  0  0  0
 21 25  1  0  0  0  0
 22 26  1  0  0  0  0
 23 29  1  0  0  0  0
 24 30  1  0  0  0  0
 25 27  1  0  0  0  0
 26 32  1  0  0  0  0
 27 31  1  0  0  0  0
 28 29  1  0  0  0  0
 28 38  1  0  0  0  0
 29 33  1  0  0  0  0
  1 41  1  0  0  0  0
  2 42  1  0  0  0  0
  3 43  1  0  0  0  0
  4 44  1  0  0  0  0
  5 45  1  0  0  0  0
  6 46  1  0  0  0  0
  7 47  1  0  0  0  0
  8 48  1  0  0  0  0
 16 49  1  0  0  0  0
 16 50  1  0  0  0  0
 17 51  1  0  0  0  0
 17 52  1  0  0  0  0
 18 53  1  0  0  0  0
 18 54  1  0  0  0  0
 19 55  1  0  0  0  0
 20 56  1  0  0  0  0
 21 57  1  0  0  0  0
 21 58  1  0  0  0  0
 21 59  1  0  0  0  0
 22 60  1  0  0  0  0
 22 61  1  0  0  0  0
 22 62  1  0  0  0  0
 23 63  1  0  0  0  0
 23 64  1  0  0  0  0
 24 65  1  0  0  0  0
 24 66  1  0  0  0  0
 25 67  1  0  0  0  0
 25 68  1  0  0  0  0
 26 69  1  0  0  0  0
 26 70  1  0  0  0  0
 27 71  1  0  0  0  0
 27 72  1  0  0  0  0
 28 73  1  0  0  0  0
 29 74  1  0  0  0  0
 33 75  1  0  0  0  0
 34 76  1  0  0  0  0
 34 77  1  0  0  0  0
 38 78  1  0  0  0  0
M  CHG  1  34   1
M  END
> <OMEGA_C>
l3GkQGFeKEE+irDBHDC1QL5sM0Fdp6fBui2nQKvgEUE5CLHBC4bIQDQDKEELPZ/Bbbi6QO5sBkHc
o6jBXwPdQMWLlD/s9KrBn5GpQD9ryr7dFaPBlUDsQGWGnb8ftKrBFWTLQCSBEUHQsZ/BVXK1QI4C
az/y4aXBWmr4QKiIsD2oWq3BINvEQLwbvL/Yi6XBjHHCQKo5wUDyOpTBxaQGQeIJNr71BW/BS6Tf
QNBN7z/h1YzB/1ydQNI8/0AHtYvB0qnoQA7bBr9NVIfBgz2KQH+13kAe7oPB2jGiQKWSoUDy3o7B
nl/iQITVYj9RcIPBHR8TQQIGkMCMlIjBOKXxQDAAI0D4g1vBDZaYQNmDBEDFCqPBcGbgQMmKBUG7
jZbBMSQCQeuOWsDI6obBQq4IQVvCE0Cf6W3B888LQVmTF8A7637BniGOQLSVgUBw1JbBJXitQAwJ
PEAYUZrBYQ/CQNfa7EBqjJHB1SP9QIIDl79rTnzBVqUDQdTkhj8Q8HjBDCe3QIhSBkDU+5DBryF7
QIbEuEAREYrBc43eQNFIs0DVHprBVAURQVXXvL4RpF7Bx6n/QAt5GkBjgZDBiT98QFOcmEB32Z/B
rDIPQQXloz4AL7LBvEe5QMmoLsCO5aLBwH+VQEoiMUES+7bB8i6zQEWpREHpTKfB5UqaQKVrCUHb
17fB9DLVQJSBMEH/aZjBLPi8QKFm6kCOCanBOz7mQDLaCkAj/6zBgoyLQK6QE7+mDp/By5AAQUun
A8AhoKzBaauEQBl0BEFofpHB0TGoQAa4DUGiMIfBpdbJQC0hgL8bPonBFIb9QELFDb8Kao7B1Tai
QG3P1UANxHvBKShcQACR7ECQ5H/BsiuzQFWIj0BtnojBx6XEQK30cT+0f33BlsYMQanpqMDv7o3B
BYAhQY62gcD7LYzBr0gXQWlinsD30YDBBo35QBpnX0B5YlPBcvHQQEKqJkBc9mHBDrrzQM2n2z8g
B1DBMveSQALJK0CWNarBvsdzQL4d1z+XEqDB0xH8QBYq+UCao5nBx0HrQP8dEUF0gZDBVeD7QCAb
PcD3oI7Bq3HnQNZydsDzRIPBd58HQUkYSUD5WXnBxQMZQe1BEEC9amfB+SgOQZ/3NMBxGW/B8mIb
QTzWA8CIu4LBEVRmQLP2Y0ABvJLB7eXKQAY/WUDKeZ3BAX+eQFj00z/4UI3BoxhcQM7CpECsLIXB
X+pTQM8DwkB384/B7WpjQLYjhUDRyqTBoYqmQFtxJ0G3RbDB7c22QGGPMkFLWafBxX2pQFX1EEFY
vrDBufDJQA84J0Hd4Z7Bf9e8QCmUBUFMTajB3szaQFgKgj/BJarBCrymQCYU+76u7aHBetDoQJTG
sL87e6nBaBzNQES5EEGJVJ/BpGSzQL5fTz/E5qTB7X31QOBVor0QbqzBtnHBQOLeyr+6OKTBkAXD
QDggwECP6pPBIl0GQTvjNL8f73TBkDrhQDbi6j+exIzBSQCeQNV+/kDBhYvBA73XQCcKBr/ZQ4fB
2ZKJQNMc3kBd64PBM/mhQF34oEArv47BUT/jQLiMWz/qRoPBleYQQQdoXMCQh4vBJ9sYQTxF3z9G
IF3BSmOXQNpJ/j8dLaLBjL/hQJ/SBEFaH5bBK2TxQN/KYsAkdInByTMVQYga2T/hfXXB/LHjQNI0
NsA93n3Bu3KOQJYOgUA9yZbB+a+tQJExOkA/AprBnv7CQKm060BNL5HB5zzqQHY4sb/1Un7Bhm4G
QRz7Hj8HgHzB/Fa4QM8+CUCWWJDBfzZ6QJqFuEDzMorBCJzfQEW4sUBEl5nBS3kSQWgSmb+kp2fB
AcAAQfAzEkAuEJHBcQp/QKPYl0Cb9J/BBKkNQQT99j0LbbHB5mO1QGceNcDPS6HBi8yXQMMoMEEz
wrbBDpW0QG/KQ0HIAafBz+qcQP5zCEF3k7fBsTnWQIrBL0HhBpjB7kC/QAW36EAKrqjBK3bkQB/f
AECaaKzBoZOIQHRgJb+D5Z3B6kb9QI9BDsDOQKvBFQmGQIBcBEFlcJHB29eoQCwyDUH844bBY9W0
QFhnJ78quIfBZPXlQBrDN7/hKY/B/LqgQBvD1EB4b3vBP1RaQPlG7ED2HYDBNx+yQNvdjkDSXojB
mtbLQEXllT+HZ3rB2dIUQSYMfcBkE5PBZo4VQa6oGMByFYzBHaMZQbjuesBY6YTBeO8jQU4aJEBF
QlnBWn4JQfTm9D+Q+VTBtr4fQVwkSj8ovlfBzqWQQEGlI0CJgqnBWVVyQNeHzz8TvZ7BhnL9QMSJ
90AlH5nBxnvsQNNrEEF6EpDBzVfgQEuJRMDjKJDBPIHoQKtnk8DJ/IjBFoAOQU9kKkACk3rBcsAk
QdjzxD+aV33BqYfBQMcXQ8AwHnvBkJX2QB8cUcCLoHDBttllQMSlY0Bf1pLBr6PKQPkVVkCNmZ3B
W9ifQCFZ6D9K7IvBhnFZQLOgpEAIdYXBerdUQJ0rwkB/N5DB7exmQHtGhEDL7aTBsXeoQP0gJkEt
+a/BbnOuQH/WD0FaybDBUyu2QPkhMUEGwKbBL1TCQKuMBEEKZajBZdnJQMDeJUEtVZ7BNRrYQD4H
iz+KzqrBGlKmQHR4975TdaLB9zDoQOVFpr8JpqrB2jLQQGCUD0GCJJ/BJHuxQIKnVT+xU6XBQ3Tz
QECWpjxQcq3Bma3BQDFZxr+vIKXB8JLDQJb0vkAg55PBongFQZqmN78GHHXBHNvdQBHV5j93nYzB
u5+hQA8W/kCzEovBVa7VQJo2EL/KYIfB+nOLQDL33UBrtIPB+aehQJOxoEAzvY7BwpbfQIiSUT+A
LIPBLKEVQcBIdcAlO4nBaDcUQeJL5z+s+1vBteWUQIrq/T+tOaLBjebkQGCrA0Hp8ZXB8cX7QAph
X8BhtIrBb5cSQYO42z+SgHTBeILnQOoPOsDhW4DBKjONQGk8gUADw5bBRXSrQG7tOEBt/ZnBzq7F
QG4y6kB+45DB027qQEv3t78kZH/BrpAEQb6iHj/wDnzBz0C1QGzfBkD5X5DBJTZ7QPt5uUA0NYrB
B/feQIUEsEBg2pnBapsRQUAql7/xnWfBqVL+QA5tEEAuypDBYgV+QMRsmEB275/BAVMMQYojiD6r
mrLBM0G3QLjsM8B5QKLB6FyZQHXJLkFQbbbBlcujQHFpB0H+17fBSJGxQB43QkHRI6bBxfrGQDjy
5kBSBqnBoBvUQBdOLkHUPZfBDqfgQGs0BkAN+azBXdSIQEqSLL9XOJ7BBBb9QEaZB8B6vKzBzD6K
QJEcBUEI6ZDBCtmtQBtqDEFFPIbBpPSyQP7XPb+flIfBMBLjQP95NL/vb4/B2+ehQBMV00C+/nrB
hw5fQHEL7UC6y3/BQEWxQKgzjkBmWYjBtnDHQEemjT99ZnrBGxAcQUuxh8CHvpDBpoIeQcILO8CD
DofBSlgXQROQksAb1YLBndYeQdDwKEA+k1fBzzYEQZVs/T++MlXBXMEaQZemXT/fo1XBci2NQGK2
JEDRZanBj2puQAlnyz/atJ7Bgw8AQUOb9EBW+pjBwlTwQP1CD0HG+I/BGb34QPHiL8D1J5HBYWjq
QKr7jMCN7ozBuTIMQczNKkCJkHrBRr0iQU8Cxz+qAXvBQIjFQGpdTMCpIYDBCyH4QHyvVcAg03LB
GYViQOSXZUBFz5LB0t/IQNRuU0CsgZ3BuG2cQOmP4T8lJozBdyhYQDD7pUDCnoXBck1XQMxrxED8
PJDBg8FkQEk2hUAn6KTB94enQJ5OKEFqIrDBXpC3QAtKM0HRJKfBeEyqQH7SEUEUqbDB6jjKQHzP
J0FQqJ7BNi69QM1NBkH3MqjBPZ7bQOzRiT8PIKrBRbemQLKi6b7smKLBEHTpQGNZqb/Z86nBliHN
QFdPEUHFJZ/BtcmzQHC2Wj9qH6XBJG32QABhQby5iKzB7JPBQJOSxb8S+6TB7h7CQDocwUCS5ZPB
Cu0KQQbCW789ZIHBAW7gQIOu5z8c8YzB5CedQL5Q/0BcbIvBU/3PQMrXAr9JdobBVX+IQPLL3kAh
5IPBfzKhQLPKoUBBuo7B9LziQFfvVj9XYYPB8HPfQFCnXcCQv27Bmx0ZQX71lj9+vF3BXXmXQJBK
AUDVSKLBxjjhQKxGBUF755XBgyPSQI51ZMBPNYPBrt0VQVejuz+xq3XB8FrxQMSwM8CnnIrB+uCN
QETAgUCoxJbBA0utQFLVO0A6+ZnB0zPCQMqW7EBbE5HBdh71QC9rsL+UwofBtwYHQc7KAT/9qX/B
8Jy3QHZsCkCnUpDBDWd4QGlDuUC1N4rBmlreQGD5skDzuJnBaXEaQQfuvb9KKnzBLFoAQeS7EkC9
/5DBKxZ+QEiFmEC58p/BBFMOQS5UUD4OTLHBtBS1QKIUM8DHcaLB4BqZQJUgMUFOobbBNIi1QNOF
REEDxKbBwfGdQAZsCUHdjLfB+1fWQEY/MEHCwJfBKnq/QHAq6kBJn6jBqYLlQJ44BUA/GqzBNRWI
QKEmIL9e1Z7BmBL+QHYsCsDZyKvBLVKFQDvgBEGcWZHBQvynQJ+IDUFQvIbBwtu6QDazY7+2G4DB
7e69QCdQ374E/o3B13ifQIdd1UBKT3vBxvNXQLvo7EAdIYDBbGCxQKPQj0BtVYjBKz/QQIU0oT8j
YHnB9IDIQM+KgMA9xGTBCZ7/QLoFecBSrGzB1cHfQL76GcCM5mnBxkUkQWNh9T+X9FbBoqYJQbqm
nz+DZ1XBKr8fQWVbLD4ftlvBv8GQQAeOJkAyj6nBdYlyQBES0j8z757BygD9QN1q+EBT2JjBh7/r
QOXNEEE1zI/Bj77RQLIrlMDgiYXBW+KxQGhMScD9JoTBeVYPQSbIHkCJgnfBAG8lQQB1sz8k0X3B
ZpQIQfx4UcCdAorBRbrlQBqZOMAv5ZLB57RkQG3eZEA/15LB/2DKQMgWWEBkc53B5BKfQD+j7j8F
x4vBCnBXQGVNpUC/g4XBvy1TQO73wkCNQZDBFDJmQNPuhEAt76TBHUaoQIqeJ0Ehm7DBroqsQPIw
EUFqIbHBD7W2QBrQMkGxgqfB8GK/QKryBUEokqjBYX7JQJqcJ0FS8p7BgMDbQPkLjz+VvarBt0mh
QAg2pr5MxqTBKuTiQHQ9p7/106vB/wfOQNgsEUHic5/BW16yQEtWdj9ababBEuvzQKDkjrwkfK3B
5Jm5QK6wur/uc6fB81jDQHdTwUDp55PBsCH+QO7ro7+7JHrB8wjbQH9WzT91II3BUSaeQIHv/0CV
sovBD9HcQOCGZ7+IaY3BmmGJQGzY30B/FITBzyiiQNowokDHtY7BE8LaQKAzpD4FTYbBkKGhQNzA
ecDkAIvBqQQbQazTWD8AsWLBCHmYQFkKC0AqeKPBgEjiQKJnBUF8JJbBpOnKQHGFhMDSg4TByqgF
QYOpkD+6Im7BlZjxQOAiVsCq4IjBsV2OQGyCgkAXu5bBhzGtQBZ/PEDqH5rBM1jDQEv47EDBOZHB
NvvuQIxS9L99XIbBagj/QLQG2D0+K37BTZuzQDjPAUCnCJHBpVZ6QNv5uUDjRYrBiczfQDrvskAi
oJnBFg8EQfi17b9KkWnBzXX8QA6FC0DCcI/BH1N+QKUamkDyxJ/BVbINQeFqBj6AvbHBHGmpQOlP
LMC6u6XBa+2ZQGA7MEGKLrfBoV2hQLqfCEEiGLjBQVqzQCP+Q0FmHKfB+KXCQAiH6UDH+KjBBnbU
QNg1MEHF+JfBo9roQIrEBkD17qvB05aBQC4o4b45daHBbID1QGBsC8Ct6a3B5G6GQAf9BEE9spHB
ltGoQIL9DUHBGIfBfbm8QOtwmb/TJ5DBbZHxQDCXOr9cYZTBP0OgQNnD1kCClHvBlZ1ZQGEs7kAO
ZYDBySCyQGsckEAgTYjBJMe8QOpclT4EsoHBGFyHQJu/j8BxiIfBIVCZQExgNcA+wYrBgcemQKy7
hsBTWpPBKFceQaNM0z8SJVfBVvkZQacQ6r0GM1rBWv4nQfhJTT+Kj27B+DiWQGiRNUCudarBgmFw
QGj47D/EFKHBsh7+QPWi+EAOCZnBDr/sQFYYEUFKG5DBHC/FQDSZdcDWW3jBe6bSQCDYpsAAx4TB
O+zxQDWBlz+O+mHBIvsGQZ5jBkASV3bB9IMHQT0scMB1UIXBTcvyQG/WXcChnpHB2bhlQDu2ZkBV
wZLB1NvLQFUSWEDTupzBDmyZQDlC1z9nXY3BZ19ZQGBHpkBJgIXBix5VQOlWw0B0WJDBNqZlQG74
hkBDzqTB

> <OMEGA_E>
PKbsPviY/z6o+ek+CEwYP5onDT8=

> <OMEGA_NBR>
     44676

$$$$
50147914
  -OEChem-04172616093D

 74 77  0     1  0  0  0  0  0999 V2000
    5.3682   10.4375  -21.9662 C   0  0  0  0  0  0  0  0  0  0  0  0
    5.9005   11.1056  -20.8457 C   0  0  0  0  0  0  0  0  0  0  0  0
    5.4083    9.0304  -22.0341 C   0  0  0  0  0  0  0  0  0  0  0  0
    6.4689   10.3682  -19.7905 C   0  0  0  0  0  0  0  0  0  0  0  0
    5.9839    8.2905  -20.9825 C   0  0  0  0  0  0  0  0  0  0  0  0
    6.6968    1.0999  -21.4544 C   0  0  0  0  0  0  0  0  0  0  0  0
    5.1376   -0.4913  -20.4502 C   0  0  0  0  0  0  0  0  0  0  0  0
    7.2021   -1.2840  -21.4803 C   0  0  0  0  0  0  0  0  0  0  0  0
    6.5141    8.9598  -19.8542 C   0  0  0  0  0  0  0  0  0  0  0  0
    5.4878    0.8343  -20.7778 C   0  0  0  0  0  0  0  0  0  0  0  0
    7.5552    0.0424  -21.7998 C   0  0  0  0  0  0  0  0  0  0  0  0
    5.9940   -1.5496  -20.8044 C   0  0  0  0  0  0  0  0  0  0  0  0
    8.4963   -0.2695  -15.0707 C   0  0  0  0  0  0  0  0  0  0  0  0
    6.0945    5.9164  -18.4850 C   0  0  0  0  0  0  0  0  0  0  0  0
    7.0280    2.0695  -17.6574 C   0  0  0  0  0  0  0  0  0  0  0  0
    8.5312    1.1141  -15.7433 C   0  0  0  0  0  0  0  0  0  0  0  0
    5.0074    7.8723  -17.3797 C   0  0  0  0  0  0  0  0  0  0  0  0
    6.9662   -0.2657  -16.8467 C   0  0  0  0  0  0  0  0  0  0  0  0
    4.3447    6.8572  -16.4493 C   0  0  0  0  0  0  0  0  0  0  0  0
    5.0352    4.9572  -17.8578 C   0  0  2  0  0  0  0  0  0  0  0  0
    7.1759    1.1732  -16.4343 C   0  0  2  0  0  0  0  0  0  0  0  0
    5.7533   -4.6673  -17.2543 C   0  0  0  0  0  0  0  0  0  0  0  0
    4.5966    1.9759  -20.3596 C   0  0  0  0  0  0  0  0  0  0  0  0
    7.1292    8.1858  -18.7062 C   0  0  0  0  0  0  0  0  0  0  0  0
    7.2476   -2.4607  -15.5567 C   0  0  0  0  0  0  0  0  0  0  0  0
    7.6952   -3.2869  -16.7869 C   0  0  0  0  0  0  0  0  0  0  0  0
    4.3862    4.0041  -18.8845 C   0  0  2  0  0  0  0  0  0  0  0  0
    5.3379    2.8927  -19.3666 C   0  0  1  0  0  0  0  0  0  0  0  0
    6.1407    7.2670  -18.1069 N   0  0  0  0  0  0  0  0  0  0  0  0
    7.5221   -1.0321  -15.7390 N   0  0  0  0  0  0  0  0  0  0  0  0
    5.7555    2.1016  -18.2096 N   0  0  0  0  0  0  0  0  0  0  0  0
    3.9119    5.7138  -17.2585 N   0  3  0  0  0  0  0  0  0  0  0  0
    9.1617   -0.6003  -14.0967 O   0  0  0  0  0  0  0  0  0  0  0  0
    6.9653    5.4627  -19.2192 O   0  0  0  0  0  0  0  0  0  0  0  0
    7.9635    2.7248  -18.1053 O   0  0  0  0  0  0  0  0  0  0  0  0
    3.9049    4.7650  -19.9912 O   0  0  0  0  0  0  0  0  0  0  0  0
    7.1024   -4.6018  -16.7340 O   0  0  0  0  0  0  0  0  0  0  0  0
    8.7203    0.3028  -22.4334 F   0  0  0  0  0  0  0  0  0  0  0  0
    5.6649   -2.8192  -20.4802 F   0  0  0  0  0  0  0  0  0  0  0  0
    4.9289   11.0043  -22.7738 H   0  0  0  0  0  0  0  0  0  0  0  0
    5.8724   12.1841  -20.7967 H   0  0  0  0  0  0  0  0  0  0  0  0
    4.9978    8.5193  -22.8923 H   0  0  0  0  0  0  0  0  0  0  0  0
    6.8713   10.8818  -18.9298 H   0  0  0  0  0  0  0  0  0  0  0  0
    6.0206    7.2125  -21.0376 H   0  0  0  0  0  0  0  0  0  0  0  0
    6.9626    2.1158  -21.7070 H   0  0  0  0  0  0  0  0  0  0  0  0
    4.2139   -0.6939  -19.9285 H   0  0  0  0  0  0  0  0  0  0  0  0
    7.8577   -2.0976  -21.7535 H   0  0  0  0  0  0  0  0  0  0  0  0
    8.6337    1.9167  -14.9981 H   0  0  0  0  0  0  0  0  0  0  0  0
    9.3528    1.1825  -16.4714 H   0  0  0  0  0  0  0  0  0  0  0  0
    4.2645    8.2312  -18.1071 H   0  0  0  0  0  0  0  0  0  0  0  0
    5.3753    8.7198  -16.7828 H   0  0  0  0  0  0  0  0  0  0  0  0
    5.8958   -0.4839  -16.9753 H   0  0  0  0  0  0  0  0  0  0  0  0
    7.5005   -0.4864  -17.7825 H   0  0  0  0  0  0  0  0  0  0  0  0
    5.0647    6.5238  -15.6874 H   0  0  0  0  0  0  0  0  0  0  0  0
    3.4749    7.3157  -15.9560 H   0  0  0  0  0  0  0  0  0  0  0  0
    5.5279    4.3547  -17.0805 H   0  0  0  0  0  0  0  0  0  0  0  0
    6.4102    1.4502  -15.6947 H   0  0  0  0  0  0  0  0  0  0  0  0
    5.3795   -5.6989  -17.1766 H   0  0  0  0  0  0  0  0  0  0  0  0
    5.1032   -3.9971  -16.6727 H   0  0  0  0  0  0  0  0  0  0  0  0
    5.7518   -4.3553  -18.3091 H   0  0  0  0  0  0  0  0  0  0  0  0
    4.3107    2.5582  -21.2480 H   0  0  0  0  0  0  0  0  0  0  0  0
    3.6929    1.5741  -19.8781 H   0  0  0  0  0  0  0  0  0  0  0  0
    7.9835    7.6027  -19.0806 H   0  0  0  0  0  0  0  0  0  0  0  0
    7.4763    8.8933  -17.9387 H   0  0  0  0  0  0  0  0  0  0  0  0
    6.1669   -2.6005  -15.4065 H   0  0  0  0  0  0  0  0  0  0  0  0
    7.7905   -2.8184  -14.6694 H   0  0  0  0  0  0  0  0  0  0  0  0
    7.3720   -2.7772  -17.7065 H   0  0  0  0  0  0  0  0  0  0  0  0
    8.7913   -3.3800  -16.7851 H   0  0  0  0  0  0  0  0  0  0  0  0
    3.5336    3.5169  -18.3889 H   0  0  0  0  0  0  0  0  0  0  0  0
    6.2096    3.3441  -19.8628 H   0  0  0  0  0  0  0  0  0  0  0  0
    5.0587    1.5303  -17.7758 H   0  0  0  0  0  0  0  0  0  0  0  0
    3.3874    5.0933  -16.6754 H   0  0  0  0  0  0  0  0  0  0  0  0
    3.3277    6.0511  -17.9967 H   0  0  0  0  0  0  0  0  0  0  0  0
    3.5044    4.1828  -20.6261 H   0  0  0  0  0  0  0  0  0  0  0  0
  1  2  1  0  0  0  0
  1  3  2  0  0  0  0
  2  4  2  0  0  0  0
  3  5  1  0  0  0  0
  4  9  1  0  0  0  0
  5  9  2  0  0  0  0
  6 10  1  0  0  0  0
  6 11  2  0  0  0  0
  7 10  2  0  0  0  0
  7 12  1  0  0  0  0
  8 11  1  0  0  0  0
  8 12  2  0  0  0  0
  9 24  1  0  0  0  0
 10 23  1  0  0  0  0
 11 38  1  0  0  0  0
 12 39  1  0  0  0  0
 13 16  1  0  0  0  0
 13 30  1  0  0  0  0
 13 33  2  0  0  0  0
 14 20  1  0  0  0  0
 14 29  1  0  0  0  0
 14 34  2  0  0  0  0
 15 21  1  0  0  0  0
 15 31  1  0  0  0  0
 15 35  2  0  0  0  0
 16 21  1  0  0  0  0
 17 19  1  0  0  0  0
 17 29  1  0  0  0  0
 18 21  1  0  0  0  0
 18 30  1  0  0  0  0
 19 32  1  0  0  0  0
 20 27  1  0  0  0  0
 20 32  1  0  0  0  0
 22 37  1  0  0  0  0
 23 28  1  0  0  0  0
 24 29  1  0  0  0  0
 25 26  1  0  0  0  0
 25 30  1  0  0  0  0
 26 37  1  0  0  0  0
 27 28  1  0  0  0  0
 27 36  1  0  0  0  0
 28 31  1  0  0  0  0
  1 40  1  0  0  0  0
  2 41  1  0  0  0  0
  3 42  1  0  0  0  0
  4 43  1  0  0  0  0
  5 44  1  0  0  0  0
  6 45  1  0  0  0  0
  7 46  1  0  0  0  0
  8 47  1  0  0  0  0
 16 48  1  0  0  0  0
 16 49  1  0  0  0  0
 17 50  1  0  0  0  0
 17 51  1  0  0  0  0
 18 52  1  0  0  0  0
 18 53  1  0  0  0  0
 19 54  1  0  0  0  0
 19 55  1  0  0  0  0
 20 56  1  0  0  0  0
 21 57  1  0  0  0  0
 22 58  1  0  0  0  0
 22 59  1  0  0  0  0
 22 60  1  0  0  0  0
 23 61  1  0  0  0  0
 23 62  1  0  0  0  0
 24 63  1  0  0  0  0
 24 64  1  0  0  0  0
 25 65  1  0  0  0  0
 25 66  1  0  0  0  0
 26 67  1  0  0  0  0
 26 68  1  0  0  0  0
 27 69  1  0  0  0  0
 28 70  1  0  0  0  0
 31 71  1  0  0  0  0
 32 72  1  0  0  0  0
 32 73  1  0  0  0  0
 36 74  1  0  0  0  0
M  CHG  1  32   1
M  END
> <OMEGA_C>
M8irQCYAJ0Gvuq/BNtG8QI2wMUH7w6bBAxGtQHR8EEHERbDB2QDPQC/kJUHbUp7BYny/QLSlBEFB
3KfBb0zWQJvJjD+1oqvB12akQISK+77ymaPB73fmQFBapL+h16vBTnPQQH9bD0F31Z7BWZyvQGaV
VT/iOKbBW8TxQK6ULT3uZa7BNs+/QGJYxr9db6bBzPAHQe75ib6oIXHBvgXDQFdTvUA04ZPBU+Xg
QGZzBEBcQo3BmH8IQQ+ajj9x5HvBqjygQKTp+0CNCYvBQuveQEgDiL7yxYbBlgeLQGlu20AUmIPB
cyChQFihnkC+3I7BwqDlQBsrlj9feYPBNhu4QJtalcDPCIrBWxeTQJrr/D9f4KLBbiLkQBb5AkE/
ppXBcOznQEd8HcBT6HjBaT/2QBRcUsB6S4bBIVyMQP8hgEByE5fB0s+qQEAiOUC37prBZYDEQGGL
6EDk2pDBKrXwQHcchL8m03vB3iy4QKKABkAqrZHBQFx6QB7XtkCCEYrBKpYSQRCrGb8PjGHBj+Pe
QNnOrkDrwJnBGtX+QE1jLkCr15DBLul5QAp7mED57Z/B9UbjQChCk8Ap34XBfoYLQX4Hmz6hd7PB
KEe1QDBtNMCI16PB4rmdQKERMEGsMLbB3uq7QCzyQkGWX6bBou2fQApPCEF/I7fBsuHbQL8bLkFI
cJfBn6jAQKTM5kD1TKjBZs3eQNloB0Dyp63B+deGQLSkMb+RbZ/BMnL7QKI/BsA+B67BzCMKQbZX
9T9r+G/BP6UVQVpblz9jxYPBbXaIQOqyA0Fo25DBVQKsQH2EC0EdQ4bBXaq8QHDC976CzYfBaQTw
QHcJ+b6FQo7BGhKiQDnD0ECq/3rBgWReQNsZ6kDDS3/By+SwQF1Zi0DapIjBNyDNQLqguT9wHXvB
xCSsQIxdtsDEaYnBpE2jQLrQf8DEYYXBaw64QLpei8AXeZLBZvGJQG+5I0DQ+6nBEVhsQH16yT9t
Bp/B/Hj/QJFJ80D6pJjBnz3vQNdKDkFsgo/BdVfFQBpvJsACgXbBcEv5QOhgNMDMtWrBRefrQO68
McDapo3BIqkMQYVRWMD8R4bB6iZiQGMVYUBiHJPBbLXGQBYFVkAX557B5uChQIrhwz/UNI7BpctY
QKf8okBGZ4XBRfhUQKeiwUBB+Y/BJ0hgQEPZhUBKAqXBznmpQJp0J0Epna/BysGuQAkqEUG/t7DB
xEW3QKHXMUEpOabBJP7BQL9ABUG/cKjBXlPKQK/3JUFa7p3B4kXWQDP5jT++2qvBGjelQGSK+b6T
kKPBtubmQKHGor8DCqzB5OXPQF6tD0GCBJ/B8gSwQLu8Vj/GRabBtL7xQFo4Yz2Rsq7BuKfAQMln
xb+HdqbB0UgGQUj/wr6/MnHBkCXDQFqxvUC/GZTB8jriQNB3A0A1WI3Bb/sIQQikej/uoXzBIHyg
QDIk/ED6L4vBuvHZQGvqeL7lSYbBNd6LQOmp20BqooPBJuehQHDOnkCs5Y7BEC3mQECDlj8sa4PB
PvYPQa4gh8BQ8o7BzJ+TQNQK/T+70qLBqg7kQCAuA0Ez8pXB5rjaQJjaGcAzmXbBjA/lQCQPVMAk
5ITBeAiNQLHkf0DF/pbBsqSrQJowOUDi7JrBwJfEQDXp6ECtGJHBiNroQGyRgr/vYnrBHF25QDKd
BkAetJHBQ/x7QNvItkCiAYrB7jERQffjR7/tOGLBNK/eQMJNr0B8FprBqR0AQWPVLUBr0JDBobh5
QKgAmECz0J/BtVcJQaUUWMBeR4bBWVALQRAhpD5V7rPBnKO2QKr7M8AmvKPBtdaaQMiUMEEf+bXB
cA+kQLA2CUFg6LfB8zizQA/sQkHTY6XB3xzGQIhc6ECKSqnBILXUQBTwLUG/t5bBRHHeQMsJCEAq
8a3B7vGHQLBvMb+gRp/BE+r7QGxDBcC4Rq7Bg5YMQWUV5D90J3HBW6oVQfw5bz8taITBHFeIQACs
A0Ev8pDBt06sQHm4C0HYe4bBrha3QI0Brb4TQYfBbvfpQCUJEL8Gso3B7EWjQDdU0UBsLnvBmjZg
QBM46kDfQn/B4T6yQPDXi0DttYjBsubPQFYyxj8DlXrByYYhQV4Jh8D1gI/Bzk8KQSz1p8C2f43B
NB0JQcdLdsDIepbBbB2KQOriI0Bx5KnBDNFtQNM4yT+05Z7BkTH/QFi580DhD5nBP4rvQNZpDkFW
z4/Bh/C3QNseGsCw5XPBXhTrQBDWMsAFUmjBDH3YQKpaisCdY4PB9TjWQMHGOcDWKYzBRkhkQFxH
YED56pLBtlHHQHtnVkBL9J7B7QajQDAdxT/qKo7Bb1pbQD3hokClQIXBZLRVQONCwUCt24/BmOxf
QP8ohUAY1aTB3VisQLBaKEHGua7BEta8QHONMkGsjqXBCNetQNfhEUFVlq/BPszOQP5OJkFnPp3B
5Pq/QACZBUHAS6fBANDWQEARfj8tLavB4b2hQLfmAb++SaPB8FbjQK32tL/9+6rByIbQQDzRD0GO
FJ7BowyvQC9SSz+BD6bBlvbwQJZR472Im63Bd+O7QLwczr/9vqXBD1IJQdAMd70q5m/BG9XCQK42
vUDMxZPBipHgQEYwA0CUq43BDFQIQX+tpD9+p3vBxQ+gQMD6+kB3j4rBfiriQIAhg75aJIbBzVSK
QCbJ2UD7aIPBTLCgQHcxnkDQA4/BILLlQOSpmz8vjIPBSFwJQQfucsAUwJTBYF+TQBJG/T9HNKPB
+x/kQObzAkHvC5XB26nuQNvyFcCX6XTBY1cEQSD9TcBgOoLBwD2MQNVcgEBkcJfBwqiqQAU4OUDR
MZvBfmvEQGwW6ECJc5DBv+XzQBLrZ7/HTXnBZYK3QGwfB0Dm1JHB2j55QKoHtkD1LorBxPQUQUCN
m76mnGDBB7TeQKonr0Btt5nB6vP+QPTvJ0BH3JHBK8Z7QC4wmUB6UaDB6+z4QPwnRsBqCo3BGKQL
QSQspz3UYrLBqWKvQBTCNsBK7qLBXo2eQOHDMUFAGbXB3rC7QDvGQ0HB6KTBjxOhQOITCkG4mrbB
yEnbQKkmLkHdNJbBrEHBQPbD6EBE+afBsCXhQFbS/j/zOK3Bu4CDQF9bKL/yR5/BOiX3QILOEMBJ
/azBI8cIQZUfCECaTnDBqZAVQfVJsT+0koPBu5OIQKyrA0FiV5DBtdqrQPG1CkExjoXBkJbAQHk0
DL9EYYfB9ez0QHDBAb8WUI3BcwWhQDhPzkBHpnrBlsNcQNAm6EAJ5H7BiSuwQJ5eikDQ24jBoznM
QPx7vj/7wHvBAX8CQf9basBDyJzBy70ZQac1WcDUm5TBO7cJQf+9m8CqwZLBwhSMQEgiI0BTgarB
ZsxqQFpgzz8Xl5/Bw3L/QFaC80BIJpjBLjzvQMnyDUEEw47BuJjMQESSJsAjcnbBK235QMgMI8CF
emTBRDEVQf+/OcARAYLBGyEDQeGgiMCOaH/BEOJgQL/YYUBXqpPBrNLGQEPaVUAZE5/BwdKgQE73
yT8JJI7BJfNWQFLCoUDOt4XBG6JUQIiXwUD6EpDB6ppiQLThhkChgaXB+m2oQJriJkEm+K/BVJyu
QAWeEEGQ4LDBxfO0QA2pMUFDk6bBEq7BQOwjBUEzbajB5rzHQBw0JkHUGJ7BIbHXQJLakj+JbavB
Z0imQFHq7L5AcaPBB5zoQLSZnb+BsavBjIDOQLf2D0F1BZ/BUCexQIrqXT/2/6XBVIHzQMyuzD0I
Nq7BC/vBQLdywb+FT6bBOxgGQfUhyb6Xl3DB5dDCQNTVvkCf55PBFGziQAekAEDPVI3BlNQIQeBn
dD8fN3zBH1+fQHwi/UBRGYvBcA/aQBnukL74RIbBy3yKQBuK3EDOoIPBS2mhQMvYn0BrzY7B8wvm
QD+WkT9xVoPBRgCgQGIRkMA4MYjBQWKUQPV7/z8zmKLBwt3iQNfuA0Ed0ZXBKjfdQN7KHcAH/nbB
PfPjQDtYWMApU4XBthGNQNTagECN8ZbBQvOrQAzZOkDEqprB0M3DQCwf6kD27ZDBsdPrQKmLjL82
XHvBZBS5QOB1CUCSRZHBKD16QNKut0DhD4rB6BoQQYpLQr/CyWDBVcneQJV+sEDCxpnBC9cAQfF9
IUDwoJHBROx6QKm5mEAg3J/BZDjLQD/qksDbGoTB6GMMQfgcwD4JPLPBBMO3QBk6MsCpv6PBVxWa
QNyxL0HJerbBebqkQBdaCEEeDbjB5yGwQBO3QkGn4aXBkoDGQMos6ECOIanB/f7QQJR0LkED3pbB
wc/fQFmmCkBbca3B78CIQOUHLb84Sp/Bw939QChkAsCX463BWkQMQVEt4j8k23DBHaQVQY57Zz/b
IITBe3OHQEMsBEEk6pDBjOiqQNUzDEErV4bB2hS3QG7zyr6Bp4bBYSnoQCBBEL+XA47BK5uhQCRB
0kBwBXvB6uhcQJD06kB2bH/BYXqxQP0BjUAnjIjB1GLPQJYiwT8Bl3rBH4OPQHPErsAm84bBr6+O
QIgibcBJ8YPBL/CgQEWxiMAyy5DB+NyKQC3sJECPranBI2ZvQGajyj8ytZ7BNHX+QLOT9UAiz5jB
E7btQNxzD0G+vY/BkPS6QPdYHMD593LB9GPvQL21N8A2YmnBx47ZQG6HNsDAl4zBSgkDQXq6aMCE
A4bBqc9jQIVLYkCj9JLBsd/HQA/NV0Asnp7B2OuhQP3i1T/XR43B4RJZQD23o0D7YYXBYLJUQDUj
wkCR/Y/BzcZhQI3GhUBB56TBEPSlQAMWKEG/y7DB8pqqQMuvEUG0bbHBtkK0QPErM0HKp6fBML+9
QMddBkFT76jBIFrHQKflJ0EOKZ/BGCfdQPLYjT+CZKrBnDukQArnwr6vOKTBji3mQICXp79chqvB
pk7MQCl/EUFox5/BljW0QEBVaz8W56XBDBv2QABv4buFNq3Buju9QKJFv78xBqfBqpoFQUychr8S
RnfByK/CQIyawUArOZTB/LveQJIS6D9674vBPoQDQSMl7j61BXrBAPOcQLjK/0Ah/ovB+DnmQPHD
Lb98pYvBEVWJQNml30CQMYTBkp2iQEUWokDfw47BxGfhQD3CET9QtYTBYj+TQNfJfMDqKIvBMG6Z
QFbRBkDL4KLBWtbgQGmrBUGwiJbBF20DQUJVQsBIfojBvgzeQAuZdsCAXIbB0ByPQKiSgUD8l5bB
Ep+uQGeNO0Cb4JnBQirCQIJE7UBAm5HB+YMAQdIfz7+bjYXB4PC2QJPnA0BHkZDBqeZ6QJs/uUB4
OYrBMsUKQYa10b9i3WbBgsreQOqPs0AoGprBquL+QHcvHEAwg47BxzN+QAdCmEBFsp/BUme9QCD3
X8DPAo7ByqcOQaglMj77i7HB+OitQO5jL8DGXaXBTGiXQE3CMEEGU7fBMn+fQIozCUGNbLjBvpKw
QFNTREFaK6fBPEzBQMlo6kBWaqnBHzzSQGNpMEHPJpjBqU7pQMDTBkBDqavBcteEQIphBb9FyaDB
xV35QLqhCsCdrq3BG/b/QG+MdT80s2rBpx4SQSgnZj+DfIDBs6iEQIuGBEEX7ZHBiVanQFQjDkGt
hYfBRq7GQKXoj7+XPY3BbMj1QAeF2L42RZPB/s+gQKJQ10Bd9HvBRHhZQPmV7UBjbYDBt3mzQOy4
kEAcYIjBRXvDQJ7K+j41HoDBbq14QEQRacCiXpHB8jCTQLd8ocBjeYrBSfGJQG9mYMBIc4PB2kWV
QGbjL0AN86nBB+1zQFeo4D+7HKDBq638QE5X+UDmfZnBPlnrQGBREUGme5DBKqAQQfk/XcBHvoPB
WWcHQSFlRsDxDJHBrFvlQBqcncDrFYfBpmvSQPX3aMDQdnzBRSVoQNtFZEAffZLBk4/MQNAcWEB4
0pzBLKidQGK0zT/DRY3BKoFbQKlrpUClUoXBmmRUQE/wwUDRO5DBI9hlQAqNhEAPnqTBwzalQDkz
KEGu07DBSumzQBtnM0HGwqfBeaKpQDbIEUEYYLHBnRXHQD84KEH5Pp/Bium8QNWOBkHR3qjBunrd
QP3pjT/2carBB6WkQLsfvL5xCKTBveXlQOvJp78Fl6vBk8fLQIbLEUGwxp/B77S0QDSqbT+a1qXB
ag/2QGCISLztUq3BdSK9QCU6vr9F96bBK9IFQQwMWr8UsXLBOZvCQIxLwkDuQpTB5ozfQD7x5T/m
JozBkJIDQSx+IT8mo3jB89KcQHUnAEEA9YvBt4jpQNJiM79eDIrBUPiIQAQK4EBLOoTBicmiQHea
okAqxo7BOkfiQE6AHT8WPoTBzyyxQHAWhMCdhojB7wyaQEiwB0Az46LBxYrgQGMRBkGZhpbBpX0E
QVfLQMCf/IPBQjH5QLh7ZcCr147BEnOPQDa/gUCCjJbB4BWvQBIXPEBA25nBxh3CQF7m7UBCkZHB
RUb7QFuzzr/a4IHBR4a3QJbGA0CQmZDBntZ6QDKeuUBQSorBICMOQXfior+vQ2LBkpDeQKJstECc
NZrBfpT/QOMBG0Bb2I7BXxl+QLMumECTpp/BJmDLQCwSXsBLbpDBkX0OQYDLIj6t1rHBCTmtQKGS
LsCRdKXBs4uWQJ3MMEHUXLfBAHawQJKTREG8WKfBiz6eQFc1CUG8ULjBljrSQLnSMEFNSpjBUlbA
QInE6kAyS6nB2sjpQBWwBkAFwqvBJJOFQMgqAL8MZ6DBrMT4QJMEC8CNzq3BYVz/QKHDnj88g2rB
QEsSQdyUgT+FDYDB8qeEQDviBEHm5pHBTTCnQAJUDkHobYfBlSjLQH7ai7+qM43B6i0AQVhOEb+P
qZDB5jegQKG810DF6HvBLV5YQNDh7UCph4DBR72zQMaGkUDrWYjBCfvDQFw6Dj+Vk3/B6jCPQF6X
fsAne4rBT2y4QGeIpsBweojBL+63QCQAbcDilYDB0EWWQA3FMECe+KnBL9V0QOQ34z+TMKDBxHr8
QOFM+kAFfZnB4/HqQH/GEUHffZDBonv8QEijacCCEnvBWRUWQZ3FQsBZ7IPBr7cEQaK8QsB0VJXB
UvAAQWjSlMBlNY/BljNpQNFfZEAcZZLB0f/MQKrwWEDzxZzBJkeeQAZazj/fOY3BtVFbQKy1pUDh
a4XB5plUQP9CwkCiVJDB0uxlQFNOhEAQi6TB0JmiQMEmJ0GNxrDBCJaxQKOUMkGMz6fB9J2nQI3C
EEEaRLHB2KbFQHGnJ0FnV5/B+sS7QLHKBUHQzajB1nPcQOXxjD9xxarBZlGkQHWowb5tB6TBKqrl
QEOhqL8FlKvBxPDKQENCEUHRz5/BMumzQNo9az9QDKbBrEX1QHABkLwej63BrjS9QOyAv7/GyqbB
HZADQfijUL/3lnLBkFnDQFulwUAKNZTBNmPhQLYx8D8JoIzBABMGQafDHj8EOHvBFAyeQI1q/0DI
oYvBlBHfQAhlGr98DInBKlOKQIq83kC+/YPBTG2jQOTboUDRz47BEFbjQJsSRz/5F4TB56sNQVXS
c8A6AI7BzkuZQOwoB0CQEaPBQKHgQCzRBUG2mZbBptfTQEnnLsDgbnvBOl7SQM3Bb8DaD4fBHMSP
QB2WgUAVsZbBWlGvQFnLPEDkTJrBlOjCQNMx7UDxdJHBRPbrQMgPwb/sYoDB8jW5QKGlBUBCG5HB
faV8QAXWuED8MYrBtAcLQfJ4nb98uWHBZEPfQC3ts0AyMJrB3G8AQS2KIkB4Io/BIZh9QFZ5mEA2
o5/Bphr6QJJhj8AWCojBLP0NQYJnIT6ELbLBEDquQAVeL8DG1aTBpUGTQDOOL0EUR7fBzKutQLi7
Q0FecKfBUAOcQIECCEHfILjBdwfRQGBvMEEVd5jBZKK/QApG6UCJLqnBeGfoQPI/BkA/PqzBtlCF
QMZfA7/rXaDB5Ln4QGpXC8Dauq3BtN8GQWNQrT/bIW7BRGAUQaxWNz8troLBDaWFQGHBBEFLc5HB
rt2oQJyqDUEVAYfB6ti9QNL3S7/CgovBLmH0QKymNb8wAJDBrsahQDvd1UAuoXvBjIlbQOt57EAO
KYDBvGC0QNFGkEB8eYjBWofIQCiBbT90CX3BqQMcQcpHjsDsR47BWw0IQWlVZ8BiMZbBIZwRQdXT
NsCKEorB+5CUQFJKL0CXM6rBzR10QNws4j9tGKDBY5b8QFUM+kCxpJnBliPrQDewEUGYqJDB3dyy
QH/aHMB1QHfB0CjjQIzHTcAJmG3Bnie4QCmrjsDqooXB12/MQK/gTMCNj47BvXhqQDkaY0DghZLB
JpXMQMJMWkDngp3BJaCgQOGYzT+mvI3BrftcQLq7pEAwZIXB4VRWQKAIwkAsLZDBkBhlQDfYhEAs
kaTB

> <OMEGA_E>
MDbpPjT06T5sV/M+NIHmPgDzEj/Exww/fHwBPw==

> <OMEGA_NBR>
     53034

$$$$
50147892
  -OEChem-04172616093D

 84 87  0     1  0  0  0  0  0999 V2000
    5.2647   10.5018  -21.8624 C   0  0  0  0  0  0  0  0  0  0  0  0
    5.4487    9.1125  -22.0123 C   0  0  0  0  0  0  0  0  0  0  0  0
    5.6782   11.1450  -20.6786 C   0  0  0  0  0  0  0  0  0  0  0  0
    6.0577    8.3674  -20.9834 C   0  0  0  0  0  0  0  0  0  0  0  0
    6.2812   10.4012  -19.6467 C   0  0  0  0  0  0  0  0  0  0  0  0
    6.7656    1.0120  -21.3883 C   0  0  0  0  0  0  0  0  0  0  0  0
    5.1201   -0.4880  -20.3820 C   0  0  0  0  0  0  0  0  0  0  0  0
    7.1882   -1.3888  -21.3120 C   0  0  0  0  0  0  0  0  0  0  0  0
    6.4821    9.0127  -19.7989 C   0  0  0  0  0  0  0  0  0  0  0  0
    5.5194    0.8126  -20.7556 C   0  0  0  0  0  0  0  0  0  0  0  0
    7.5977   -0.0878  -21.6668 C   0  0  0  0  0  0  0  0  0  0  0  0
    5.9543   -1.5873  -20.6605 C   0  0  0  0  0  0  0  0  0  0  0  0
    6.1136    5.9414  -18.4930 C   0  0  0  0  0  0  0  0  0  0  0  0
    8.0682   -1.1488  -14.9454 C   0  0  0  0  0  0  0  0  0  0  0  0
    6.9698    1.8708  -17.8034 C   0  0  0  0  0  0  0  0  0  0  0  0
    5.0342    7.8669  -17.3258 C   0  0  0  0  0  0  0  0  0  0  0  0
    7.1629   -0.5661  -17.2039 C   0  0  0  0  0  0  0  0  0  0  0  0
    8.4052    1.1358  -15.8909 C   0  0  0  0  0  0  0  0  0  0  0  0
    4.3802    6.8260  -16.4186 C   0  0  0  0  0  0  0  0  0  0  0  0
    5.0565    4.9655  -17.8839 C   0  0  2  0  0  0  0  0  0  0  0  0
    7.1263    0.8721  -16.6658 C   0  0  0  0  0  0  0  0  0  0  0  0
    9.1910   -3.8110  -16.9381 C   0  0  0  0  0  0  0  0  0  0  0  0
   11.4766    0.7006  -14.3711 C   0  0  0  0  0  0  0  0  0  0  0  0
    4.6382    1.9996  -20.4262 C   0  0  0  0  0  0  0  0  0  0  0  0
    7.1303    8.2255  -18.6783 C   0  0  0  0  0  0  0  0  0  0  0  0
    7.7245   -3.6513  -17.3791 C   0  0  0  0  0  0  0  0  0  0  0  0
   10.3668    1.5195  -13.6938 C   0  0  0  0  0  0  0  0  0  0  0  0
    6.8680   -2.9190  -16.3171 C   0  0  0  0  0  0  0  0  0  0  0  0
    9.0841    0.6763  -13.4989 C   0  0  0  0  0  0  0  0  0  0  0  0
    4.3958    4.0340  -18.9288 C   0  0  2  0  0  0  0  0  0  0  0  0
    5.3334    2.9091  -19.3979 C   0  0  1  0  0  0  0  0  0  0  0  0
    6.1612    7.2840  -18.0815 N   0  0  0  0  0  0  0  0  0  0  0  0
    7.3223   -1.5206  -16.0894 N   0  0  0  0  0  0  0  0  0  0  0  0
    8.5158    0.1825  -14.7802 N   0  0  0  0  0  0  0  0  0  0  0  0
    5.6823    2.1026  -18.2340 N   0  0  0  0  0  0  0  0  0  0  0  0
    3.9398    5.7065  -17.2565 N   0  3  0  0  0  0  0  0  0  0  0  0
    6.9814    5.5029  -19.2402 O   0  0  0  0  0  0  0  0  0  0  0  0
    8.2651   -1.9699  -14.0557 O   0  0  0  0  0  0  0  0  0  0  0  0
    7.9329    2.4633  -18.2837 O   0  0  0  0  0  0  0  0  0  0  0  0
    3.9461    4.8071  -20.0380 O   0  0  0  0  0  0  0  0  0  0  0  0
    8.7924    0.1068  -22.2691 F   0  0  0  0  0  0  0  0  0  0  0  0
    5.5790   -2.8311  -20.2855 F   0  0  0  0  0  0  0  0  0  0  0  0
    4.8063   11.0740  -22.6554 H   0  0  0  0  0  0  0  0  0  0  0  0
    5.1228    8.6190  -22.9160 H   0  0  0  0  0  0  0  0  0  0  0  0
    5.5325   12.2088  -20.5631 H   0  0  0  0  0  0  0  0  0  0  0  0
    6.2005    7.3031  -21.0993 H   0  0  0  0  0  0  0  0  0  0  0  0
    6.5907   10.8941  -18.7369 H   0  0  0  0  0  0  0  0  0  0  0  0
    7.0803    2.0091  -21.6586 H   0  0  0  0  0  0  0  0  0  0  0  0
    4.1748   -0.6402  -19.8825 H   0  0  0  0  0  0  0  0  0  0  0  0
    7.8204   -2.2344  -21.5396 H   0  0  0  0  0  0  0  0  0  0  0  0
    4.2843    8.2462  -18.0356 H   0  0  0  0  0  0  0  0  0  0  0  0
    5.4075    8.6972  -16.7084 H   0  0  0  0  0  0  0  0  0  0  0  0
    6.2234   -0.7800  -17.7346 H   0  0  0  0  0  0  0  0  0  0  0  0
    8.0090   -0.6732  -17.8985 H   0  0  0  0  0  0  0  0  0  0  0  0
    9.2696    1.0184  -16.5610 H   0  0  0  0  0  0  0  0  0  0  0  0
    8.3866    2.1609  -15.4925 H   0  0  0  0  0  0  0  0  0  0  0  0
    5.1073    6.4709  -15.6734 H   0  0  0  0  0  0  0  0  0  0  0  0
    3.5152    7.2701  -15.9042 H   0  0  0  0  0  0  0  0  0  0  0  0
    5.5549    4.3435  -17.1259 H   0  0  0  0  0  0  0  0  0  0  0  0
    6.2689    0.9719  -15.9840 H   0  0  0  0  0  0  0  0  0  0  0  0
    9.7555   -4.3350  -17.7234 H   0  0  0  0  0  0  0  0  0  0  0  0
    9.6331   -2.8180  -16.7694 H   0  0  0  0  0  0  0  0  0  0  0  0
    9.2321   -4.3939  -16.0062 H   0  0  0  0  0  0  0  0  0  0  0  0
   12.3721    1.3273  -14.4946 H   0  0  0  0  0  0  0  0  0  0  0  0
   11.7224   -0.1708  -13.7464 H   0  0  0  0  0  0  0  0  0  0  0  0
   11.1297    0.3585  -15.3573 H   0  0  0  0  0  0  0  0  0  0  0  0
    4.4426    2.5728  -21.3445 H   0  0  0  0  0  0  0  0  0  0  0  0
    3.6861    1.6404  -20.0084 H   0  0  0  0  0  0  0  0  0  0  0  0
    7.9843    7.6602  -19.0797 H   0  0  0  0  0  0  0  0  0  0  0  0
    7.4831    8.9219  -17.9034 H   0  0  0  0  0  0  0  0  0  0  0  0
    7.6973   -3.0739  -18.3149 H   0  0  0  0  0  0  0  0  0  0  0  0
    7.2963   -4.6497  -17.5517 H   0  0  0  0  0  0  0  0  0  0  0  0
   10.7232    1.8618  -12.7110 H   0  0  0  0  0  0  0  0  0  0  0  0
   10.1305    2.3910  -14.3220 H   0  0  0  0  0  0  0  0  0  0  0  0
    5.8224   -2.8999  -16.6582 H   0  0  0  0  0  0  0  0  0  0  0  0
    6.9339   -3.4711  -15.3679 H   0  0  0  0  0  0  0  0  0  0  0  0
    9.3264   -0.1899  -12.8656 H   0  0  0  0  0  0  0  0  0  0  0  0
    8.3285    1.2980  -12.9964 H   0  0  0  0  0  0  0  0  0  0  0  0
    3.5273    3.5619  -18.4463 H   0  0  0  0  0  0  0  0  0  0  0  0
    6.2358    3.3481  -19.8483 H   0  0  0  0  0  0  0  0  0  0  0  0
    4.9355    1.6896  -17.7128 H   0  0  0  0  0  0  0  0  0  0  0  0
    3.4181    5.0709  -16.6874 H   0  0  0  0  0  0  0  0  0  0  0  0
    3.3512    6.0654  -17.9809 H   0  0  0  0  0  0  0  0  0  0  0  0
    3.5406    4.2354  -20.6793 H   0  0  0  0  0  0  0  0  0  0  0  0
  1  2  1  0  0  0  0
  1  3  2  0  0  0  0
  2  4  2  0  0  0  0
  3  5  1  0  0  0  0
  4  9  1  0  0  0  0
  5  9  2  0  0  0  0
  6 10  1  0  0  0  0
  6 11  2  0  0  0  0
  7 10  2  0  0  0  0
  7 12  1  0  0  0  0
  8 11  1  0  0  0  0
  8 12  2  0  0  0  0
  9 25  1  0  0  0  0
 10 24  1  0  0  0  0
 11 41  1  0  0  0  0
 12 42  1  0  0  0  0
 13 20  1  0  0  0  0
 13 32  1  0  0  0  0
 13 37  2  0  0  0  0
 14 33  1  0  0  0  0
 14 34  1  0  0  0  0
 14 38  2  0  0  0  0
 15 21  1  0  0  0  0
 15 35  1  0  0  0  0
 15 39  2  0  0  0  0
 16 19  1  0  0  0  0
 16 32  1  0  0  0  0
 17 21  1  0  0  0  0
 17 33  1  0  0  0  0
 18 21  1  0  0  0  0
 18 34  1  0  0  0  0
 19 36  1  0  0  0  0
 20 30  1  0  0  0  0
 20 36  1  0  0  0  0
 22 26  1  0  0  0  0
 23 27  1  0  0  0  0
 24 31  1  0  0  0  0
 25 32  1  0  0  0  0
 26 28  1  0  0  0  0
 27 29  1  0  0  0  0
 28 33  1  0  0  0  0
 29 34  1  0  0  0  0
 30 31  1  0  0  0  0
 30 40  1  0  0  0  0
 31 35  1  0  0  0  0
  1 43  1  0  0  0  0
  2 44  1  0  0  0  0
  3 45  1  0  0  0  0
  4 46  1  0  0  0  0
  5 47  1  0  0  0  0
  6 48  1  0  0  0  0
  7 49  1  0  0  0  0
  8 50  1  0  0  0  0
 16 51  1  0  0  0  0
 16 52  1  0  0  0  0
 17 53  1  0  0  0  0
 17 54  1  0  0  0  0
 18 55  1  0  0  0  0
 18 56  1  0  0  0  0
 19 57  1  0  0  0  0
 19 58  1  0  0  0  0
 20 59  1  0  0  0  0
 21 60  1  0  0  0  0
 22 61  1  0  0  0  0
 22 62  1  0  0  0  0
 22 63  1  0  0  0  0
 23 64  1  0  0  0  0
 23 65  1  0  0  0  0
 23 66  1  0  0  0  0
 24 67  1  0  0  0  0
 24 68  1  0  0  0  0
 25 69  1  0  0  0  0
 25 70  1  0  0  0  0
 26 71  1  0  0  0  0
 26 72  1  0  0  0  0
 27 73  1  0  0  0  0
 27 74  1  0  0  0  0
 28 75  1  0  0  0  0
 28 76  1  0  0  0  0
 29 77  1  0  0  0  0
 29 78  1  0  0  0  0
 30 79  1  0  0  0  0
 31 80  1  0  0  0  0
 35 81  1  0  0  0  0
 36 82  1  0  0  0  0
 36 83  1  0  0  0  0
 40 84  1  0  0  0  0
M  CHG  1  36   1
M  END
> <OMEGA_C>
CnioQHEHKEEo5q7BnFuuQK3MEUEtGbDBGrS1QL5RMkHUbaXBltjBQL3gBUH33afB6v/IQEFrJkFa
LJ3BZH/YQDaJgT8zG6vBHNijQNDe+b5aDqPBiAXmQPfEsb8Lf6rBFm3PQBg0EEEpZJ7Bxp6wQCgG
UD+DC6bBYiDzQHi+s72XVa3BiIm+QD0uy7+eSKXBiKLDQDcgvkCf8ZPBJhcBQeEMk79oIG/B6gjf
QLZ27z9obY7BchihQPS9+0BHm4rBaDblQBbqEL+FoYnBzXsGQWRhkT8aQX7ByCqMQKZu2kAyWYPB
lM6hQMTlnkBREo/BSgrkQC4/Xz+iU4XBLA4TQdjmc8BPgYfBIqA3QStZMz8D8GXBCGyUQDf0/z/R
aKPBXCvkQJ6bA0E5bZXBzi73QD6vacBXCIvBVN4lQcR/wj+aGVvBasbbQIDROsBdiYLBaVgRQegh
LT+K+1fBPaqMQO8WgUAWbpfBWquqQAwuOkDaLpvBkCjFQOsW6UDTppDBolDqQDmjwr8lt4DBokAI
QYDiOj7De2zBTNW1QPOQBkA035HB6SR8QH6btkBXDYrB/mffQAsYsEDd65nB+D0EQe8k/L8P5GDB
Dtr9QJKmHUAQRZLBe4x8QGLTmUDjTaDBoq0MQYC92j0gJ7LBFIeyQAQwNcDASKLBDs2ZQCcvMUFF
PrXB6u2jQJ7nCUEEVLfBeAqxQFxXQ0E5gaTBHWrGQE2z6UBTy6jB4ebSQBVOLkEb5ZXBbZHiQMWV
AEDQRK3Bp5eFQHLmI79aD5/BU0D6QN7/DsAzUazB5BiJQD/wA0HkSJDBYAqtQOYnC0G4qoXBXCbH
QL+vR79k4I3B/yQAQVZWLL82MI/Bc1AUQdtbgj/ifITBsS8GQbpMCkA94XfBBW+jQK8Rz0A5xnrB
KflgQEyk6ECOd37BhMGxQN79ikDWAYnBlprIQPnNeD9mvn/BrhYcQfK3isCXyY3BUyEaQexZNMCy
J4bBvbYTQYWajMCrDIDBGfRFQS7mqT/w6WfB7I47QZHiLr4P8VvBaRMyQcyNtz6qt3XB+SmOQAep
JEBwwarBZOlrQNv50T8zEaDBsH//QKYg9UA3o5jB4nXvQCbADkEwOo/BXlD2QFq6RMD3hJLBMnvp
QLzKlMDwaYzBK5IrQd1N7j8jYEvBqBYiQdEGGUC+JmXB7VC6QC2XOcAARIXBoeLdQLglXsDp4nXB
8zgVQcNpQr6V2U3BW0EFQVIkpj8w8U/Bjr5hQHj2Y0AIkpPB6YvHQJVHVkBRyZ7BTO+dQNhD2D/E
s43BsMFaQOhEokDHf4XBcnlWQOcXwkDe2I/BiphiQGCIh0BGb6XBXPKlQCGUJkH5vK/BkZ62QC+Z
MUHN1KbBRfKoQDIbEEFOSbDBWyPKQJ4qJkGicp7By7a8QIWkBEH176fBzg3bQG1Ylj/rbqvBrw2s
QM7Z975+MqPB4t7vQPFRlr9pKKvBS03NQN6sD0F4957BJZe0QEFdWj/KF6bBm534QHGmJj7D9a3B
mJPJQKSgv78dyqXB6y7DQInIvUCc8ZPBGAsDQR+4ZL/LWGzBIOngQKPc9D/Vc47B3rafQCpr+0AF
34rBGe3jQPIo8r6++YfBtfcIQQsSoT8pOn/B4GmMQP1M2kAcSYPBWNmhQPhVnkCc7Y7BtczmQOqc
gT+PyITBAb8LQU09csCYT4jBZshBQeXMhD/lVFXBK4qVQE0L+j/uEKPBvFXiQKqlA0Eb2pXBC7vm
QNYAZMCmKYjBWNUwQXQm+T47fGTBgf3XQEvrLMC1Gn3BJoIaQVGMXj9PTFzBuIGMQHdAgEDjN5fB
dv2qQFqUOUBcAZvBP9vDQMsL6UBl6pDB4SDrQAwhq78zDX3BW6oKQcTT3T6UDWzB+Fi3QE2WB0DY
rJHBsJJ8QD2ktUCVtYnBVVjfQMPJr0Cvz5nBxWsHQb9F0r+1bV3Bgzb/QG7QHkDJwpLBRgl7QFyv
mEAQFaDB8ZUOQfwe8z4hLbPBVCXBQLHvMcCgIaPBs9qWQKVcL0G1JrbBV2u0QEnTQkH9b6bBdhac
QISsB0G8G7fBRbjWQFWhLkFxmpfBLTW/QJnc5kBHYqjB+MbhQIvCDECclK3Bt+aOQAv/Or8D/57B
VkIDQWvj+b/LH63BifeGQHsQA0EIh5DB7yyrQEV2C0HAL4bB8vvDQNp8Lb9mSovBcGP8QJv7ML+t
Do7B0coVQTjMfT/QP4XBuWoKQTh7FEDV2nrB7qKkQOXqz0Bz53rBIOVhQHlC6EAyD37BSmiyQFiH
ikA78ojBN2/NQHZdnT8O3n3B3BMQQSDOjMD6Ro/BKO4TQe0MNMCH04jBNqYQQZSbicDC7oDBP8dR
Qd1CQz87NlvBMm1AQYiGCEAgk1TBNWA/QcFJHT/QQ0XBh3CMQJ4iIUD2RKrBepFxQJ5WwT/fbp/B
OwH+QIxn9UC18pjBqy3tQK4oD0G+xY/B2lfdQF9+Q8Bom4/B98fWQE1UkcCitofBpT4zQYDkaD8d
jXTBqTEyQd/rG7/NPWXBPPO0QJ2uJsC5t33BOUfhQK2tTcD1O27BnXMXQcxHvz4O40zBqIYZQWzc
+j9tNlrBtTNiQB6YYUC/RZPBB1bHQBLVVkAcup7B+QmgQJsI2j+SUI3B0mBdQElHoUAV7YTBQNhU
QIlDwEA0ZI/BF+hgQMEuhkDBJqXBLrupQO8TKEHQP6/B7CC6QGecMkFJKqbBQP6rQLOaEUGl/6/B
vLfMQHWyJkF70Z3BgMq+QDunBUFVrafBoP7YQKLngj+0u6rBvKykQFx1/r5wyKLBMmvnQBS8r78/
GKrBvTPPQBQ1EEEQi57BbgexQPb/Tj8lvaXB9Cb0QHRVib1s5KzBo9S/QO4Fy799+KTB09zCQJtO
vkAG25PBrHEBQR4ucb9TzG3B8DTgQNQcAUA5NY7B9ayfQFVF/EAL0orBUoHeQNBYt76m/4fBFIEK
QTcwlj/5nYDBoseKQAI220CZfIPBLL6gQIpDn0AWC4/BrxrnQDVLjD/csITBV1bBQByylcD/pIjB
ao8wQd3i7T9bpUXBZyaUQHHa/T9KKqPBqk3jQGmuA0FidpXB5/TfQBx6X8CoK4fBwLQbQerNwD8z
GFHBgczMQFDRIcAmpX3BZI0gQZyG6z6VOmLBo+OLQJBTgUB6bpfBmDqqQIQ3O0C2J5vBU//DQB10
6UASupDB+KnjQBCGnr8cS33BQKQNQZhAcT6zfm/BQa22QHbcCUDYwJHBtcJ5QGAWt0C9HYrBBxff
QE4VsED4qpnBi+oDQTlx179VV17BJ+T9QEbqKECsSpLB5xx7QAbpmUCHVaDBjUUNQaSqED6fmLHB
4yO0QLpqNcB/BqLBnWqbQJQ7MUHPpLXBQW64QIPVQ0GTm6XBj1CfQEuLCUHu87bBJxzZQHbKLkFy
15bBNazAQCTh6EA5RajBG7fiQEp8AUBi5azBcV+GQIotKb8p157BtQP8QImBDcD/4KvBgcSHQAv4
A0FHlZDBX1KrQDeYC0Fp9IXByKq9QGk/5L7XFovBJFT1QJCEJ7/MQ47BwooVQYcBaz/vKIfB3NAN
QZGKDECkqHvBWwSiQF8p0ECS9nrBbgVeQId/6UBI2n7B/WmwQJFli0AK7YjBbwTRQBcgsD8jbnzB
aKrOQJr1q8A8l47BCk29QENkpsCh9oDBfReiQNzvicASb4vBSV8tQZksJ0BZOjnBkUA3QcJAdD+H
MD7BRBM8QazOEECzR1HBvBKNQIdFIkA2karBcEVsQHpBzj/2qJ/BXr3+QM0X9UC/jJjBk1buQDjk
DkHAQ4/Bezj/QGPHdsCoXYTB7QLkQJXePcAa1o7BgCcQQamrjD90hkXBM/oUQVEUGkCgnVjBi/2q
QPEzFsC+y4DBUwjPQKV8P8A7uW3B68YtQf7BUD+tWmzBES4lQVvX976weFrBMUNgQOAKZEDdmpPB
147GQA/yV0Ct8p7BuZSfQFnt2D9wnI3BM1RYQI7jokCNh4XBVDdUQLJMwkAO9Y/BU41hQIuCh0Cl
eKXBqx6pQIwzJ0Hata/B6/SuQIvuEEFbv7DB/0O2QIXAMUFNTqbBSCDCQHQ1BUEHZajBM0bJQOQP
JkEk8J3BccHXQIoAkz+QPavBYIqnQJYU9L5cAqPB99rqQPJzm7/U86rB/nfPQNjLD0EX+J7Blh6x
QIqNWj8o4aXBcp/0QBRa7j09va3BM1fEQBRFwb9FlKXB/NTCQE0TvkD86JPB1icBQVOSeL8UdW3B
Xw3gQGoLAEDeBo7BSdifQKe7/EB3JovB2nzcQJqKtr72kofBxcUKQaw2jz+eqYDBNhqLQNxO3EDJ
nIPBf7SgQMNxn0AJ647BHRznQLJ+iz+Mb4TBLmW+QLVplcAfOIjBheYvQRxi9D9Z6EXBqAqTQP6W
/D8Px6LBfY/jQENzA0GU1ZXBMnLdQKCqX8AwuYbBwB8bQeIRvj8g5VDB2KDKQDdhIcDYynzBQF4g
QWwm2j7LwmHB9nmLQIVPgUB8LpfBV4apQK2xOkDI2prBNhLEQMhv6UBo/pDB/QriQHDmnr80inzB
2LcNQQ4QQz79Y2/B0FS2QKejCUDUcZHBzQd6QKaft0B8BIrBX/veQI9er0Cpq5nBe74DQfoi3L8+
Hl7BcNn9QGHjJUCeV5LBvZJ6QAC7mUAbIqDB0dsMQcJCzz69zbLBmT+7QH0qMsA2xaLBro6aQFwv
MEFtIbbBK7ykQIvaCEHx8bfB9sCxQMvPQkHahKXB55/GQMpM6EDcMKnBwSPTQNYmLkFytpbBdSPf
QGu6CkBjbK3BRiOKQNzbM7/2157BTHIAQdmNAMBO76zBs9KHQC/wA0Gu8pDBwo6rQBEKDEEycobB
cyK7QKQu0r6OWorBZgbyQCXlLb+6CY7BaE4VQTqLUj82TYfBU+AOQarRCEDUHXzBrXqiQLbD0UA2
K3vBaOFeQCj26kAgLX/BknWwQOTLi0AZxYjBGAzSQL+Psz94sHvByojLQP3Yq8DPJo7BSA26QE0L
psAwioDBMVWfQCxIicBfCYvBm2IsQUj7KkBqtznBBFI3QWpvhD/dOz7BG/M6QRTnFECP3lHB/saJ
QJpTIkBf+anBZpNsQM9ixj9W/57B99f+QH5O9ECj4pjBis/uQIDGDkGkto/BWIb8QAHAd8Cv5IPB
Qc7hQL85PsDfY47BewsQQfJIiD+P/ETBkawTQdjTFkBBn1jBseSoQAT7FMCdX4DB1q7MQAjgPsA4
2GzBxsotQZivRj+Hq2vBddskQX8aA79tvlnBPFBfQJ67ZEBXS5PBH8fFQDfwVkAXvZ7BCFGfQH4b
2j/hL43BgxBZQHDHo0CySIXBCfRTQOlRwkB73Y/BuHpgQAZIh0CiN6XBbbCqQH8oKEHJr67Bzcqw
QGnyEUEb6K/B2ke3QJFlMkEeJqXBG7fDQJv6BUH1m6fBN/7JQG5zJkH/05zBw6XZQAk3hj8yAKvB
A0SkQA/b7L5tZ6PB8IrnQHvOrL9qVKrBCILQQAg/EEFiDJ7B9yaxQDCzVz/xQqbBurz0QHT5Pb1X
C63B2Xu/QL1Ex782bqXBJiLDQClOvkBwwJPBmbv9QJE3lb8DY3HBQZbcQLS/+j/9dI7BjCmgQEvu
+0D2h4rB0+DfQNXY+b6Hg4rBmOAEQSNSjz/ALn/ByJeKQBCM2kA0aoPBTVOgQIpRn0ChOY/BIXzg
QHLfbT8SqYXBn8+UQN7HTMDaVYbB35k5QTxGZj9F91HBaE2UQL/NAUBa3KPBUEHkQLKWA0GO+JTB
kqe+QMxsacCO54DB0qEqQbz5pz4W5WLB3ivmQNNNPMD7uoXBxkcTQXSnAz9Gu1vBzX2LQCtWgkCo
2JfBFJypQCgTPUCwmZvB+5fEQCAy6UCdaZDBJ+vpQIqZwr8NcYLB4TQFQRZDKT5tlG3Bo/CzQOI3
CkCrQJLBoBp5QCUht0DJQorBubDfQKoasEBYd5nBjSICQVt4AcCduWPBLc77QHlFI0A+G5LBveV7
QHWrm0AyraDB/70NQTayHj5llLHBR3CzQOh5M8DyjaLBJFmcQMtWMUF0EbXBWvamQCsaCkHHM7fB
WpKyQEhqQ0EhOaTBYnPIQGzu6UDVjKjBhmHTQMFLLkEPf5XBb9fjQJcQA0BWD63BvYiFQO9OH7/g
qZ/BsCX8QJdADMBbAazBBaeIQPIfBEGyT5DBuNKrQOUvC0HfgYXBK92/QAF9L78s0I3BBcD3QIpC
Cr+q95DBepESQfxRcD+p7YTBwbkFQXlKCUAa33jBv3ShQMC/zkBq0XrBK6ddQO/U6ECXtH7BUm+v
QBqxikBNLYnBJlHFQBA0hD9zIIDBYDBzQB9kbsB/qYLBLsGQQC1VB8BOT4XB6DCWQO4iXMCi6o7B
oktKQaEARD9ZHFfBCEY2QYpZ/D+J10/BFwo3QRWTvz5nt0LBGnmOQLHEJUC6SKvBZVtrQPEG1T+8
pKDBCs//QMP49EAvBJjBmQfvQEyvDkGWsY7B89a8QL8pWsDMpnDBrUbCQMB7l8C67oHBYzMtQTR+
Wj9+JHLBc/ctQVZrPr9cBGXB0YoBQeeIXsBWG4PB3dHjQEUGP8AQgY7BiOcPQds6Eb6nA07BLJkQ
Qcnvxz8CF1fBKrFeQNo0ZkCfLpTBrbHGQFpWWUDWE5/B78SbQIpA3T/dTY7BC+JWQIi/okBl0YXB
EkFUQMgGw0AdFpDBMG5iQJnIiUDg7qXB3UKqQBvvJ0HuTa/BkW66QHGDMkE6NabBaYSsQLV0EUHF
BLDBPePMQDqlJkE/053BGSG/QMSMBUGup6fBpS3ZQJVagz9nsKrB1ZqkQCU8976lt6LB45nnQEYm
r7/Uz6nBYGfPQPMmEEHShJ7BPBGxQJ6hUT/KwaXBglz0QIg9iL3iuKzBjea/QDSLyb8euaTBKNjC
QE1ovkBYz5PBBMECQd7HgL/glW/B6OPeQOSwAEC0AI7B87OfQM11/EC9z4rB/8rrQDeCyr49MIrB
bqYFQbrZqj/tinzBvneKQAN620A3hIPB3oOgQO56n0B3DI/BTvPkQIKEfT/2MYXB2QK6QEqllcB0
iYXBC7o1QTwKKz8A+mHBiEiUQNjk/z9MR6PBlnPjQJitA0HeaJXBe97CQIzrT8BXr4HB8mEkQdtN
yT8zOljB0FjwQEAfNMA82YTBO9MOQQ6xUz/1LFbBzcKLQAWngUCyeZfBOxuqQEjLO0D/KpvBahjE
QEmG6UDDqpDBlLv2QDXosr97/4HBgfIGQdXPtD5RM2vB1MS1QILdCUCcxpHBxTp5QLdlt0DgKorB
nxffQDkesEAfm5nBRcEEQRx07L/Ob2HBemH9QCjIJkDz+JHBoj17QCFMmkBAYqDBdGkNQWDgCj7N
Z7HBxla0QDlKNMBQlaHBIyCcQJ4OMUEtvLXBvKm4QKy8Q0EOq6XBQ/qfQLNbCUFL+rbB4SbZQAPH
LkFv2JbBXPnAQJOp6ECpN6jBiv/iQBiKAUDu5qzBvB6GQFJXJL/m2Z7BmEL8QLdZDcBye6vBnv2H
QPwfBEHlm5DBa1erQNSnC0Hg64XBYzfOQESINL8rRI7BQgMDQa89rL6CCZDBuVcUQcwspj96G4PB
KbEDQW0CFkA60XXBYX2hQExX0EB18HrB0EZdQHDf6UAwA3/BRPuvQEOJi0AY6ojBuw/IQFCkdj8C
LIDBamWZQDMRn8AWNoPBiBG9QIwBl8ANTI7BsDfRQFmtq8DG3oHBydREQfUbnT9dN2PBohQ4QWUQ
Wb45r1fBqawwQUnQrj5LAXLB5MiNQESAI0CxsqrBI/NrQPAL0T/h5J/Bjeb+QMYJ9UDNeJjBbXTu
QGzsDkFtOY/BgYyrQAQbJMBfWoXBqbK/QJ9yTcAx2nHB5ZYpQTgM8z/UPkjB7C4iQSzxHEDlkGLB
xe0DQQjEW8AEkYDBpp/0QHZGPMATho3BjfkQQfh2I71DjkvBYecCQUs4wT++OE/Bn9BfQHi/ZECG
r5PBpbnGQL5aWEDG157BY02eQPlu2D9/y43B/31XQDI9o0DTmoXBOP9TQNqqwkBhCJDBRc9hQPjw
h0B3iqXB

> <OMEGA_E>
sOfnPgDf8T5mggA/0JkAP1QZAT8eTAY/

> <OMEGA_NBR>
     61011

$$$$
50147875
  -OEChem-04172616093D

 85 88  0     1  0  0  0  0  0999 V2000
    6.2373    9.4741  -22.4034 C   0  0  0  0  0  0  0  0  0  0  0  0
    7.4653    9.2776  -21.7391 C   0  0  0  0  0  0  0  0  0  0  0  0
    5.0235    9.3382  -21.7000 C   0  0  0  0  0  0  0  0  0  0  0  0
    7.4820    8.9494  -20.3697 C   0  0  0  0  0  0  0  0  0  0  0  0
    5.0379    9.0121  -20.3306 C   0  0  0  0  0  0  0  0  0  0  0  0
    6.7890   -0.0234  -16.6874 C   0  0  0  0  0  0  0  0  0  0  0  0
    8.3966    1.5657  -15.7634 C   0  0  0  0  0  0  0  0  0  0  0  0
    8.1168   -0.6208  -14.7282 C   0  0  0  0  0  0  0  0  0  0  0  0
    6.8010    1.1920  -21.3687 C   0  0  0  0  0  0  0  0  0  0  0  0
    5.0006   -0.3147  -20.6896 C   0  0  0  0  0  0  0  0  0  0  0  0
    7.1127   -1.2237  -21.5014 C   0  0  0  0  0  0  0  0  0  0  0  0
    7.4127    1.2429  -16.7237 C   0  0  0  0  0  0  0  0  0  0  0  0
    7.1532   -0.9591  -15.6983 C   0  0  0  0  0  0  0  0  0  0  0  0
    6.2684    8.8195  -19.6624 C   0  0  0  0  0  0  0  0  0  0  0  0
    8.7547    0.6330  -14.7725 C   0  0  0  0  0  0  0  0  0  0  0  0
    5.4934    0.9924  -20.8726 C   0  0  0  0  0  0  0  0  0  0  0  0
    7.6123    0.0832  -21.6740 C   0  0  0  0  0  0  0  0  0  0  0  0
    5.8054   -1.4204  -21.0119 C   0  0  0  0  0  0  0  0  0  0  0  0
    5.9808    5.9700  -18.3567 C   0  0  0  0  0  0  0  0  0  0  0  0
    7.0368    2.2216  -17.7530 C   0  0  0  0  0  0  0  0  0  0  0  0
    6.5248   -2.2869  -15.6604 C   0  0  0  0  0  0  0  0  0  0  0  0
    4.5101    7.0878  -16.9573 C   0  0  0  0  0  0  0  0  0  0  0  0
    4.9612    4.9643  -17.7861 C   0  0  2  0  0  0  0  0  0  0  0  0
    9.7704    1.0058  -13.7168 C   0  0  0  0  0  0  0  0  0  0  0  0
    3.8388   -3.3729  -17.4647 C   0  0  0  0  0  0  0  0  0  0  0  0
    9.4744   -4.2821  -17.0305 C   0  0  0  0  0  0  0  0  0  0  0  0
    4.6272    2.1725  -20.4972 C   0  0  0  0  0  0  0  0  0  0  0  0
    6.2800    8.4683  -18.1932 C   0  0  0  0  0  0  0  0  0  0  0  0
    4.8191   -4.5384  -17.6910 C   0  0  0  0  0  0  0  0  0  0  0  0
    8.5461   -4.0202  -18.2311 C   0  0  0  0  0  0  0  0  0  0  0  0
    5.9633   -4.5225  -16.6625 C   0  0  0  0  0  0  0  0  0  0  0  0
    7.5237   -2.9178  -17.9042 C   0  0  0  0  0  0  0  0  0  0  0  0
    4.3124    4.0572  -18.8494 C   0  0  2  0  0  0  0  0  0  0  0  0
    5.3067    3.0262  -19.4097 C   0  0  1  0  0  0  0  0  0  0  0  0
    5.5338    7.2302  -17.9832 N   0  0  0  0  0  0  0  0  0  0  0  0
    5.7709    2.1511  -18.3218 N   0  0  0  0  0  0  0  0  0  0  0  0
    6.7069   -3.2320  -16.6942 N   0  0  0  0  0  0  0  0  0  0  0  0
    3.8953    5.7888  -17.2053 N   0  3  0  0  0  0  0  0  0  0  0  0
    6.9561    5.7333  -19.0608 O   0  0  0  0  0  0  0  0  0  0  0  0
    7.8347    3.0904  -18.0870 O   0  0  0  0  0  0  0  0  0  0  0  0
    5.8775   -2.5699  -14.6582 O   0  0  0  0  0  0  0  0  0  0  0  0
    3.7889    4.8584  -19.9101 O   0  0  0  0  0  0  0  0  0  0  0  0
    8.8720    0.2730  -22.1275 F   0  0  0  0  0  0  0  0  0  0  0  0
    5.3249   -2.6713  -20.8371 F   0  0  0  0  0  0  0  0  0  0  0  0
    6.2267    9.7293  -23.4527 H   0  0  0  0  0  0  0  0  0  0  0  0
    8.3941    9.3788  -22.2810 H   0  0  0  0  0  0  0  0  0  0  0  0
    4.0833    9.4840  -22.2111 H   0  0  0  0  0  0  0  0  0  0  0  0
    8.4228    8.7974  -19.8615 H   0  0  0  0  0  0  0  0  0  0  0  0
    4.1084    8.9090  -19.7904 H   0  0  0  0  0  0  0  0  0  0  0  0
    6.0335   -0.2748  -17.4169 H   0  0  0  0  0  0  0  0  0  0  0  0
    8.8763    2.5329  -15.7897 H   0  0  0  0  0  0  0  0  0  0  0  0
    8.3667   -1.3252  -13.9486 H   0  0  0  0  0  0  0  0  0  0  0  0
    7.1774    2.1938  -21.5136 H   0  0  0  0  0  0  0  0  0  0  0  0
    4.0043   -0.4668  -20.3017 H   0  0  0  0  0  0  0  0  0  0  0  0
    7.7317   -2.0747  -21.7443 H   0  0  0  0  0  0  0  0  0  0  0  0
    4.9626    7.1149  -15.9550 H   0  0  0  0  0  0  0  0  0  0  0  0
    3.7632    7.8906  -17.0442 H   0  0  0  0  0  0  0  0  0  0  0  0
    5.4415    4.3462  -17.0133 H   0  0  0  0  0  0  0  0  0  0  0  0
    9.2582    1.4756  -12.8642 H   0  0  0  0  0  0  0  0  0  0  0  0
   10.2942    0.1005  -13.3762 H   0  0  0  0  0  0  0  0  0  0  0  0
   10.4983    1.7125  -14.1418 H   0  0  0  0  0  0  0  0  0  0  0  0
    3.0367   -3.4166  -18.2161 H   0  0  0  0  0  0  0  0  0  0  0  0
    3.4025   -3.4512  -16.4579 H   0  0  0  0  0  0  0  0  0  0  0  0
    4.3769   -2.4181  -17.5579 H   0  0  0  0  0  0  0  0  0  0  0  0
   10.1945   -5.0725  -17.2887 H   0  0  0  0  0  0  0  0  0  0  0  0
   10.0176   -3.3593  -16.7790 H   0  0  0  0  0  0  0  0  0  0  0  0
    8.8741   -4.6015  -16.1658 H   0  0  0  0  0  0  0  0  0  0  0  0
    4.4573    2.7933  -21.3893 H   0  0  0  0  0  0  0  0  0  0  0  0
    3.6625    1.8052  -20.1170 H   0  0  0  0  0  0  0  0  0  0  0  0
    7.3185    8.3323  -17.8569 H   0  0  0  0  0  0  0  0  0  0  0  0
    5.8118    9.2808  -17.6182 H   0  0  0  0  0  0  0  0  0  0  0  0
    4.2715   -5.4882  -17.6014 H   0  0  0  0  0  0  0  0  0  0  0  0
    5.2458   -4.4551  -18.7014 H   0  0  0  0  0  0  0  0  0  0  0  0
    9.1523   -3.7051  -19.0931 H   0  0  0  0  0  0  0  0  0  0  0  0
    8.0088   -4.9473  -18.4799 H   0  0  0  0  0  0  0  0  0  0  0  0
    5.5421   -4.6679  -15.6568 H   0  0  0  0  0  0  0  0  0  0  0  0
    6.6602   -5.3424  -16.8903 H   0  0  0  0  0  0  0  0  0  0  0  0
    8.0650   -1.9763  -17.7290 H   0  0  0  0  0  0  0  0  0  0  0  0
    6.8481   -2.7978  -18.7638 H   0  0  0  0  0  0  0  0  0  0  0  0
    3.4901    3.5074  -18.3682 H   0  0  0  0  0  0  0  0  0  0  0  0
    6.1615    3.5573  -19.8539 H   0  0  0  0  0  0  0  0  0  0  0  0
    5.1363    1.4630  -17.9700 H   0  0  0  0  0  0  0  0  0  0  0  0
    3.5673    5.3870  -16.3504 H   0  0  0  0  0  0  0  0  0  0  0  0
    3.1326    5.8783  -17.8458 H   0  0  0  0  0  0  0  0  0  0  0  0
    3.3895    4.2970  -20.5642 H   0  0  0  0  0  0  0  0  0  0  0  0
  1  2  1  0  0  0  0
  1  3  2  0  0  0  0
  2  4  2  0  0  0  0
  3  5  1  0  0  0  0
  4 14  1  0  0  0  0
  5 14  2  0  0  0  0
  6 12  1  0  0  0  0
  6 13  2  0  0  0  0
  7 12  2  0  0  0  0
  7 15  1  0  0  0  0
  8 13  1  0  0  0  0
  8 15  2  0  0  0  0
  9 16  1  0  0  0  0
  9 17  2  0  0  0  0
 10 16  2  0  0  0  0
 10 18  1  0  0  0  0
 11 17  1  0  0  0  0
 11 18  2  0  0  0  0
 12 20  1  0  0  0  0
 13 21  1  0  0  0  0
 14 28  1  0  0  0  0
 15 24  1  0  0  0  0
 16 27  1  0  0  0  0
 17 43  1  0  0  0  0
 18 44  1  0  0  0  0
 19 23  1  0  0  0  0
 19 35  1  0  0  0  0
 19 39  2  0  0  0  0
 20 36  1  0  0  0  0
 20 40  2  0  0  0  0
 21 37  1  0  0  0  0
 21 41  2  0  0  0  0
 22 35  1  0  0  0  0
 22 38  1  0  0  0  0
 23 33  1  0  0  0  0
 23 38  1  0  0  0  0
 25 29  1  0  0  0  0
 26 30  1  0  0  0  0
 27 34  1  0  0  0  0
 28 35  1  0  0  0  0
 29 31  1  0  0  0  0
 30 32  1  0  0  0  0
 31 37  1  0  0  0  0
 32 37  1  0  0  0  0
 33 34  1  0  0  0  0
 33 42  1  0  0  0  0
 34 36  1  0  0  0  0
  1 45  1  0  0  0  0
  2 46  1  0  0  0  0
  3 47  1  0  0  0  0
  4 48  1  0  0  0  0
  5 49  1  0  0  0  0
  6 50  1  0  0  0  0
  7 51  1  0  0  0  0
  8 52  1  0  0  0  0
  9 53  1  0  0  0  0
 10 54  1  0  0  0  0
 11 55  1  0  0  0  0
 22 56  1  0  0  0  0
 22 57  1  0  0  0  0
 23 58  1  0  0  0  0
 24 59  1  0  0  0  0
 24 60  1  0  0  0  0
 24 61  1  0  0  0  0
 25 62  1  0  0  0  0
 25 63  1  0  0  0  0
 25 64  1  0  0  0  0
 26 65  1  0  0  0  0
 26 66  1  0  0  0  0
 26 67  1  0  0  0  0
 27 68  1  0  0  0  0
 27 69  1  0  0  0  0
 28 70  1  0  0  0  0
 28 71  1  0  0  0  0
 29 72  1  0  0  0  0
 29 73  1  0  0  0  0
 30 74  1  0  0  0  0
 30 75  1  0  0  0  0
 31 76  1  0  0  0  0
 31 77  1  0  0  0  0
 32 78  1  0  0  0  0
 32 79  1  0  0  0  0
 33 80  1  0  0  0  0
 34 81  1  0  0  0  0
 36 82  1  0  0  0  0
 38 83  1  0  0  0  0
 38 84  1  0  0  0  0
 42 85  1  0  0  0  0
M  CHG  1  38   1
M  END
> <OMEGA_C>
2ZfHQAKWF0EXOrPBAeTuQOtwFEG16a3BHsCgQBZpFUGuma3BPWzvQMEwD0ES9aLBTDahQGkxEEEJ
paLB2j/ZQFrHv7y2f4XBSFgGQR9pyD/0NnzBdN4BQSTtHr+hpmvBeqHZQGeTmD8y86rBNgWgQKkh
ob5khKXB2ZrjQNqinL/RAqzB+TTtQLwVnz87yoXBKefkQFuFdb8+LHvBdpbIQIocDUGsTJ3BLRMM
QewMIj8pXGzBy8mvQP4Ofj8k+6bBTpjzQGVVqj1HZK3B2MW5QNvPtb9cGKjB62K/QKIKv0Bt2pLB
Hy3hQLcuDkAVBo7B98rQQNlcEsAlkXrBG1OQQPzO4kCBqIfB38GeQIjbnkDsSY7BgVMcQRu+gD/3
d1vB5651QBTeV8Cpt4vBB5cXQVwHicBePojBqBGUQFgKC0BX+qPBDfbIQFN+B0HGi5HBzDWaQJ06
kcA3h43BrrwIQdKlgMAz2ZHBQtO+QAO4kMDmTIXBhsLwQGy8OsCzO4/BWf+JQH/UgUCly5bBUNCp
QNatQUAdR5vB1BSxQN5d50CP3Y/Bhau4QGyrCUABk5LBO5/WQNPYTsCfjYXBT015QA0+uUCBpInB
r5jeQFF3t0CVfJjBHrb6QIHJRUAvspDBPRS8QMx5JMD7h2rB4HxyQFV4m0DeR5/BuPMNQVXBiz4z
BbHBQ2WqQLr2KsB3sqbBPUHHQBOrG0E2n7vBFk4GQWYPFkFzP7LBQKqCQFy+F0FnsLHBoMMGQSnC
DEFr5J7B1neDQGqLDkG1Up7BFhLBQBuwjL7pVYvBUgUOQdYbIkB1onzBI94FQVCfqb9QLV/BWK3l
QAVoDEDaG6zBCiOAQKwB777LaaLBOmr3QK/HBMBT9K3B7M2eQNys40DER3/BpddwQG1//EBtWojB
+SCuQF0Ui0AvG4jBtiEUQTDhvD+g003B4rQkQau9zT3SBFbBFvknQewz2z/8RGLBBFlCQBSpWsCq
upHBHsNZQBrgXMDVqYPBRw+MQFzBGsChdozBrhwjQVNSosA1T4rBA0ggQX3+VsBWO4bBKPwNQTg/
k8CDU4HB/qGOQBXGMkA0HavBtWZqQD8S5z+T76DB7TDqQPxQBUHs2o7Bnvq5QE1+FEEi8ozBDrCI
QHGfr8C/z4zBxt2nQBKQjsCLnJXB/W8SQaggbcCsvpjBIiQAQU1QnsDa1pPBJ1mxQJBflcBfgnrB
vCDVQE71qsBgH4fBCgoBQcP1/L8E1Y3BQyPbQGgPM8BVHJbBSF5fQKp5YEAO8pLBnirFQFerY0DM
1J7BLlykQKlEuz+Lwo/BW09kQOxhrECYzYLBX3xIQPQavEAxxI7BT+5YQGyBiUCEg6TB41PDQPCK
GEEUYLPBOirrQEOJFUFqTK7Bkw2dQCYDFkHQi63B5czsQHQOEEHmYKPBe52eQCOOEEHBoKLBGXbd
QOQz2r1/H4XBGWUIQSsVxj/pU33B210FQbLcGb9nTWvB0QDaQKSbmz81HqvBgjuhQPUWn77yeqXB
ZB3lQNsPmb8g/avBU5HwQBlBlj/vAYbBJ6jqQLcsfb8Hx3nBfIbGQJ+WDUFyhp3Bg60OQXWKLD/w
3WzBGWGwQAIngD81EafB3G/0QLz/7j0QgK3B1Hi7QBsttL8jAKjBJ9C/QD86v0B46JLBZ9XiQAJM
CUBOPo7BIznTQAIMD8Bux3XBwsiPQFwH40Cp7YfB+fafQHSankBALo7BjLgfQbi0jD/0Il3Bzj9r
QAnaicCz74/By4sXQU36ccAbepbB3KCUQFr4CkCU6qPB/hDIQGS5B0Fa0ZHBaWGXQKPeWcBB8YrB
ZLQCQW3OUcAOiJHBVzC2QGiQh8CL7oPBSEQCQRrmasAErIXBRwSLQKlLgUCumJbBDI6qQPvuP0D9
FZvB/72wQFOB50BoFpDB2qe5QBAgBkDWeZLBlqXaQNUZWcAf3IDBMDR7QHR0uEDrcYnBVQ/fQPXN
t0DTipjBUHj7QJh+QkAN7pDB0XW1QDOzDMBpBWnBKZ90QBv6mkBUGZ/BsEwOQbj1pD6gK7HBmLqs
QCSDKsC3hKbBZSPCQLPKHEGovrvBWDkEQeJvF0GkybLBAh19QBVCGEHqc7HBfqgFQTO/DUGjfZ/B
6E6BQLiiDkGIJp7Bk+zEQP1V0b7DtIrBBfYPQeLqIEBxw37BhIsKQftTpL+09F7B6ITlQG0uDkBv
YqzBG3qBQPJe8r43VKLBBU35QLSJAsBm463BuuCdQLbg5UDFyn/Bt/dtQNao+0Dn94jBf/yvQLEZ
i0D9C4jB7ioYQfr8yz/4WE/B+5soQc+JWz6YoVfBic0qQRJR5j84+mTBPss/QNcfbcB055TB61uF
QNMnosD28JTBqndGQEm9mcAHkonB6AwYQfhZYMAy/p7BkzQlQd7AVMCtTJLBymYYQWkCnMALs5XB
mTiPQKHTM0BA9KrBenxrQCsp5j+w7qDB35PpQMapBUFqVI/BWEG5QEaOFEE6EY3Btq2pQPQZOsBY
U5HBn42HQOBEKcBo9IXB89ABQfjAC8CBSJLBUwbqQOwEb8DfrpXBW1ylQHOVksCha3nBM7LBQKVm
o8A1fIjBALMFQUbal8BK84TBDpYOQa8sRsAoYYHBhkhhQDr0X0ARspLBwhDGQJK+YUDvlp7BRkCl
QLhdtT/lj4/BDgRpQCwXrEDfbILBzuFIQLvDuUCLYI7BvbZaQPAIiUBKT6TB

> <OMEGA_E>
gMzXPJRSmj4=

> <OMEGA_NBR>
      2973

$$$$
50147883
  -OEChem-04172616093D

 70 73  0     1  0  0  0  0  0999 V2000
    5.4984    9.4501  -22.4985 C   0  0  0  0  0  0  0  0  0  0  0  0
    6.8306    9.2281  -22.0942 C   0  0  0  0  0  0  0  0  0  0  0  0
    4.4520    9.3689  -21.5581 C   0  0  0  0  0  0  0  0  0  0  0  0
    7.1175    8.9205  -20.7499 C   0  0  0  0  0  0  0  0  0  0  0  0
    4.7369    9.0664  -20.2134 C   0  0  0  0  0  0  0  0  0  0  0  0
    6.7612    1.2450  -21.3649 C   0  0  0  0  0  0  0  0  0  0  0  0
    5.2639   -0.3685  -20.3039 C   0  0  0  0  0  0  0  0  0  0  0  0
    7.3272   -1.1258  -21.3619 C   0  0  0  0  0  0  0  0  0  0  0  0
    6.0707    8.8396  -19.8070 C   0  0  0  0  0  0  0  0  0  0  0  0
    5.5757    0.9599  -20.6588 C   0  0  0  0  0  0  0  0  0  0  0  0
    7.6369    0.2035  -21.7143 C   0  0  0  0  0  0  0  0  0  0  0  0
    6.1420   -1.4107  -20.6535 C   0  0  0  0  0  0  0  0  0  0  0  0
    6.5131   -1.1896  -15.5400 C   0  0  0  0  0  0  0  0  0  0  0  0
    6.0519    5.9886  -18.3425 C   0  0  0  0  0  0  0  0  0  0  0  0
    7.0017    1.9194  -17.5484 C   0  0  0  0  0  0  0  0  0  0  0  0
    6.0332   -0.1165  -16.4795 C   0  0  0  0  0  0  0  0  0  0  0  0
    8.3397    0.2047  -16.0945 C   0  0  0  0  0  0  0  0  0  0  0  0
    4.5318    7.2324  -17.0759 C   0  0  0  0  0  0  0  0  0  0  0  0
    5.0106    5.0408  -17.7285 C   0  0  2  0  0  0  0  0  0  0  0  0
    7.0566    0.9936  -16.3195 C   0  0  1  0  0  0  0  0  0  0  0  0
    9.4982   -4.1503  -17.0274 C   0  0  0  0  0  0  0  0  0  0  0  0
    4.6712    2.0864  -20.2404 C   0  0  0  0  0  0  0  0  0  0  0  0
    6.3699    8.4962  -18.3673 C   0  0  0  0  0  0  0  0  0  0  0  0
    8.5112   -2.9933  -16.8715 C   0  0  0  0  0  0  0  0  0  0  0  0
    8.7372   -2.2699  -15.5160 C   0  0  0  0  0  0  0  0  0  0  0  0
    4.3827    4.0842  -18.7540 C   0  0  2  0  0  0  0  0  0  0  0  0
    5.3721    2.9938  -19.2051 C   0  0  1  0  0  0  0  0  0  0  0  0
    7.9048   -1.0658  -15.4508 N   0  0  0  0  0  0  0  0  0  0  0  0
    5.6591    7.2734  -18.0024 N   0  0  0  0  0  0  0  0  0  0  0  0
    5.7248    2.2047  -18.0237 N   0  0  0  0  0  0  0  0  0  0  0  0
    3.9371    5.9065  -17.2239 N   0  3  0  0  0  0  0  0  0  0  0  0
    5.8493   -2.1724  -15.2311 O   0  0  0  0  0  0  0  0  0  0  0  0
    7.0047    5.6917  -19.0548 O   0  0  0  0  0  0  0  0  0  0  0  0
    8.0107    2.4384  -18.0160 O   0  0  0  0  0  0  0  0  0  0  0  0
    3.9071    4.8291  -19.8767 O   0  0  0  0  0  0  0  0  0  0  0  0
    8.7820    0.4839  -22.3751 F   0  0  0  0  0  0  0  0  0  0  0  0
    5.8594   -2.6810  -20.2879 F   0  0  0  0  0  0  0  0  0  0  0  0
    5.2795    9.6825  -23.5302 H   0  0  0  0  0  0  0  0  0  0  0  0
    7.6316    9.2941  -22.8156 H   0  0  0  0  0  0  0  0  0  0  0  0
    3.4318    9.5389  -21.8691 H   0  0  0  0  0  0  0  0  0  0  0  0
    8.1377    8.7466  -20.4411 H   0  0  0  0  0  0  0  0  0  0  0  0
    3.9355    9.0076  -19.4919 H   0  0  0  0  0  0  0  0  0  0  0  0
    6.9965    2.2633  -21.6372 H   0  0  0  0  0  0  0  0  0  0  0  0
    4.3534   -0.5855  -19.7651 H   0  0  0  0  0  0  0  0  0  0  0  0
    7.9984   -1.9267  -21.6348 H   0  0  0  0  0  0  0  0  0  0  0  0
    6.0135   -0.4841  -17.5161 H   0  0  0  0  0  0  0  0  0  0  0  0
    5.0296    0.2325  -16.1950 H   0  0  0  0  0  0  0  0  0  0  0  0
    8.8409    0.0007  -17.0522 H   0  0  0  0  0  0  0  0  0  0  0  0
    9.0229    0.7584  -15.4338 H   0  0  0  0  0  0  0  0  0  0  0  0
    4.8801    7.3820  -16.0433 H   0  0  0  0  0  0  0  0  0  0  0  0
    3.7982    8.0110  -17.3319 H   0  0  0  0  0  0  0  0  0  0  0  0
    5.4661    4.4646  -16.9097 H   0  0  0  0  0  0  0  0  0  0  0  0
    6.8246    1.5779  -15.4169 H   0  0  0  0  0  0  0  0  0  0  0  0
    9.3262   -4.6524  -17.9908 H   0  0  0  0  0  0  0  0  0  0  0  0
   10.5267   -3.7615  -16.9951 H   0  0  0  0  0  0  0  0  0  0  0  0
    9.3523   -4.8695  -16.2080 H   0  0  0  0  0  0  0  0  0  0  0  0
    4.4069    2.6847  -21.1248 H   0  0  0  0  0  0  0  0  0  0  0  0
    3.7568    1.6685  -19.7939 H   0  0  0  0  0  0  0  0  0  0  0  0
    7.4520    8.3424  -18.2439 H   0  0  0  0  0  0  0  0  0  0  0  0
    6.0402    9.3201  -17.7173 H   0  0  0  0  0  0  0  0  0  0  0  0
    8.6586   -2.2776  -17.6936 H   0  0  0  0  0  0  0  0  0  0  0  0
    7.4841   -3.3856  -16.9065 H   0  0  0  0  0  0  0  0  0  0  0  0
    8.4664   -2.9461  -14.6917 H   0  0  0  0  0  0  0  0  0  0  0  0
    9.7963   -1.9870  -15.4252 H   0  0  0  0  0  0  0  0  0  0  0  0
    3.5325    3.5833  -18.2679 H   0  0  0  0  0  0  0  0  0  0  0  0
    6.2638    3.4563  -19.6536 H   0  0  0  0  0  0  0  0  0  0  0  0
    4.9619    1.8278  -17.4985 H   0  0  0  0  0  0  0  0  0  0  0  0
    3.6065    5.5726  -16.3411 H   0  0  0  0  0  0  0  0  0  0  0  0
    3.1784    5.9357  -17.8746 H   0  0  0  0  0  0  0  0  0  0  0  0
    3.5193    4.2361  -20.5095 H   0  0  0  0  0  0  0  0  0  0  0  0
  1  2  1  0  0  0  0
  1  3  2  0  0  0  0
  2  4  2  0  0  0  0
  3  5  1  0  0  0  0
  4  9  1  0  0  0  0
  5  9  2  0  0  0  0
  6 10  1  0  0  0  0
  6 11  2  0  0  0  0
  7 10  2  0  0  0  0
  7 12  1  0  0  0  0
  8 11  1  0  0  0  0
  8 12  2  0  0  0  0
  9 23  1  0  0  0  0
 10 22  1  0  0  0  0
 11 36  1  0  0  0  0
 12 37  1  0  0  0  0
 13 16  1  0  0  0  0
 13 28  1  0  0  0  0
 13 32  2  0  0  0  0
 14 19  1  0  0  0  0
 14 29  1  0  0  0  0
 14 33  2  0  0  0  0
 15 20  1  0  0  0  0
 15 30  1  0  0  0  0
 15 34  2  0  0  0  0
 16 20  1  0  0  0  0
 17 20  1  0  0  0  0
 17 28  1  0  0  0  0
 18 29  1  0  0  0  0
 18 31  1  0  0  0  0
 19 26  1  0  0  0  0
 19 31  1  0  0  0  0
 21 24  1  0  0  0  0
 22 27  1  0  0  0  0
 23 29  1  0  0  0  0
 24 25  1  0  0  0  0
 25 28  1  0  0  0  0
 26 27  1  0  0  0  0
 26 35  1  0  0  0  0
 27 30  1  0  0  0  0
  1 38  1  0  0  0  0
  2 39  1  0  0  0  0
  3 40  1  0  0  0  0
  4 41  1  0  0  0  0
  5 42  1  0  0  0  0
  6 43  1  0  0  0  0
  7 44  1  0  0  0  0
  8 45  1  0  0  0  0
 16 46  1  0  0  0  0
 16 47  1  0  0  0  0
 17 48  1  0  0  0  0
 17 49  1  0  0  0  0
 18 50  1  0  0  0  0
 18 51  1  0  0  0  0
 19 52  1  0  0  0  0
 20 53  1  0  0  0  0
 21 54  1  0  0  0  0
 21 55  1  0  0  0  0
 21 56  1  0  0  0  0
 22 57  1  0  0  0  0
 22 58  1  0  0  0  0
 23 59  1  0  0  0  0
 23 60  1  0  0  0  0
 24 61  1  0  0  0  0
 24 62  1  0  0  0  0
 25 63  1  0  0  0  0
 25 64  1  0  0  0  0
 26 65  1  0  0  0  0
 27 66  1  0  0  0  0
 30 67  1  0  0  0  0
 31 68  1  0  0  0  0
 31 69  1  0  0  0  0
 35 70  1  0  0  0  0
M  CHG  1  31   1
M  END
> <OMEGA_C>
/PKvQHYzF0Ht/LPB4ZPaQH6mE0HiwLDBf3aOQDbnFUEBd6zBT8LjQDK6DkHI/6XB9JSXQAEQEUEV
taHB4VvYQLZdnz8/66rB3HGoQCKsvL5vbqLBvnjqQDAbkL815arBUEPCQO1uDUHMdJ7B3GuyQBK6
dT8zRaXBu2H0QNRiUD7wtq3BpIvEQM6QtL9rOqXBHWvQQNZFmL/Lo3jBNKnBQH2iv0BxvZLBxw3g
QDKu9T83Y4zBPhDBQNiT7r391YPBgm8FQaSSUT6JwYDBsQSRQKpv50CKm4jBF1egQGhOoUD8043B
jM/hQGdafj9YjoLB1PgXQQHPhMAHOIjBH3qVQByHBUBj7KHB39XLQGDwB0El8JLB+i0IQQCTP8DB
+IbBqssLQYxGEcBtQXjBBz+MQGOxgkA9CJbBieirQOiaP0AOpJnBOPT8QP5qiL9mNnfBnxe1QNq/
6EDbBJDBkTG3QAwaDUCRMJDBLvp7QLwBvUB8yonBLS27QD8JC8CKsnPBUCbgQIUitkAucJjBASwA
QQAPHEC/IJDBIA56QOCHmkBqA5/BD4MMQYi89z4hALPBKIC7QCmVK8CnTaLB+/GoQKTrGkHlPbzB
CDb0QJa0FEFChrbBIKJbQC+fGEH4867B6jMCQRPyC0Fdh6PBvt57QEcfEEFk75vBZOPfQFXaEEDp
GK3B/U6LQC/kFb8DH57BMfP/QLKe9r8ZFK3BSm7AQBra977kIIzBkPKgQNEbbj5jj4HBN3QNQRcp
Ozr6aojB+F0QQVcpQj/N8HbBuCmcQIQ57EC5WIDBxBVzQBwtAEHTp4rBq+quQDnejkD+RofB1GLa
QNz3yT+Aq3bBNTgVQW3glMA37Y/BjW0oQRy8cMAM9ofBEaMVQRXTm8DwqYHBbwWNQOPSK0CX/6jB
329wQDeR1T/qWZ7BG3fuQFl6BUF385HBDknBQEkfFUEXvY3Bf4kKQYnDEcCHjI3BBX7vQJitWMBq
QIfBZXYHQWOMPMAIEWvByr0cQSNW/r/KzXbBHBRiQGlVZUCoJJLBxHDIQHgzXUCTOp3BgseeQNf2
6T/d/IvBC9FmQN5SskCjuoLBGGtLQDzxvUA2/47BejxhQOWNh0BoE6TBsAnBQFHbFkEkD7XBw6zo
QJLKFEE4xa/B6oaaQGpEFEFZVa/Bc97pQJc4EEHrvaTBQKebQGO4D0EHTqTBOAHeQJd2nD/YhqrB
LfWlQKWOmL5rWaTBCq7oQIx1mL+veavBwFzDQGi9DUFC/J7Bpgu1QL1cgT+jGKbBB9T3QMwf9T2W
M63BqsG/QCrrsr8jB6fBpwUCQR8p8r7OH3DBHky/QM++wUCsIZPBgwXlQNt1CkD3eozBFukCQdx3
fD8f/XfBOhHcQE22qL65w4fBvHKOQOa85UAUhYjBmZqgQL8WoUAh+Y3B6IH5QASTYj9VwYfBt9UG
QdQSZ8CV7YzBsIuZQEt1C0CS86LBNXrEQOgaCUE+IZPBtCfgQFhXX8A+QYjBxW3fQBohJ8BqHnzB
AmWNQLVdgUAcAZbBCmyuQBCOQEBY7JnBoL7vQMMyn78e+n/BjG+uQOzt6UAV7pDB3mK8QHQeB0CZ
I5HB7Cd6QFK8ukCfvYnBZ+sIQRJ7Xr/J5V7BhpHeQM81ukDrv5jBj6D6QDzSS0B++YzBEKF4QA/W
mECs4Z7BhKIPQZ1yoz7KWLHBcVyxQEWuKcBRMqXB1C7AQJttGkGIgr3BdBIDQSy3FkEhLrTBT194
QPbEFUHNZrPBQh4EQRieDkEisqDBuVN8QNC+DUG/6J/Bl37pQIuKDkA23KvB/pSGQJpF6b4U9KDB
LXT8QMBmAsAlkK3BPefuQBmIzj9oLG/BlR0TQbw6sz/+LXbB2Iu7QCDGTb3EPoXBh9LaQGkQSr+5
wI/BP02dQLqE6UAOmYDBnS1qQCDR/UBVhonBOhSxQI62j0DdhYfBgSkLQTxPJT+jbozB32wGQaiv
h8AJJJTB29QMQRgMJ8BrBo/B6nsRQdcmgsAq84bBp8uUQAnJNEDW+anBMsR0QBQH5z8nKaDB4vDl
QHfkB0Hed5DB8H60QBwoFkGSyI7BIBPLQFtrQsDpTY7BPmHUQHjWj8CoOobBykG+QD2xIsAXVnbB
2G3zQKi+RcDO0m/BR79mQHvoX0CV+5HB5UjKQI2rYkAUM53BIJqnQAxRtz8QZ47BsMVmQDVAr0CB
rYLBZf5IQNvMukDd3I7BhqBgQJF5hUAV6qPBkAG4QFy0FUFvzrTBNELhQPTzEkGsd7DBXLSTQG3S
E0EcL67Blz7mQPxSDkFbgqXBCqOYQNlOD0F4NaPBGHjeQCnTlz9cfqrBN2+pQGbcsL6DBKPBePzt
QPL1mb+8aKnBIfnBQJt+DEEh1Z7BaI61QEXfdj/qBabBfYT6QDgV1T3AOKzBJ57FQOqetr8ZuaTB
txbnQLZhib/1K3/BeV/BQB3Tv0DPqJLBI9nbQK25CkAgkY3BCb/PQGz+Qr7VlYfBtlsEQacpfz9d
33/BUMCGQBiN5UCcSYzB/kSgQAy1n0A3Vo7BVCPdQEy6mz8FVITBVYorQexoDb5dUkjBbYGXQAgl
CUC0+aPBQNPHQFovCEFM+JLBeBIaQVdqxj4EA1fB2CgSQa3zPr8juGXBL66KQLM8hECsLpfBrGSq
QEQGRUDEYpvB8IIBQZQsdr4OvnPBJYCzQDM86EBenY/BqJO0QLlJEECMTpLB49h/QKlpuUAUxYjB
je/iQH9pEsC8m33BcM7hQIKot0AqyZfB6B76QG0SOUCj9Y/BQiZ3QChHnkCGtZ/BG8kQQcLtoz6j
jLDB0jC6QFZXK8D7vKHBTDW0QLpBGUFYNb3BdhH9QMdkFEHci7XBDSxoQBnXFUHehbHBWPECQUcr
DEGINKLB3pd5QMz+DUG/IZ7B20boQCcHDEC/l6zBroaKQIuvBL91aJ/BIaoBQcQdAsB72KrBs+rZ
QNYO1L5N0Y/B9+GsQFKBor6664bBRjMQQXLgXj8iXobBGkQJQcvF6T/NaHXBCYmAQMPl+0ARq4XB
BAVjQEgr7UCRCpPBTC+wQDEqikBzoIjBOMXHQJnFyT/E6HvBPCgxQUhJLD/h1z3BTCAlQSovdb/k
fT7Bxfo4QVehAr8/AFLB/ReTQBEtLUBgdKvBDsVwQGie4T9hNaHBIEXqQKpCB0F/N5HBHY+5QBV2
FUHXbI7BWaQMQTWKQj92Uk3B0X4gQQSMmj/Q1GDBXJYfQVhNj79gZm/Bk7QLQUpbyL/e6FvBwyJf
QNF7ZkABhJPBviDHQKvlZEDGip7B4vycQICi2T/cNo/BuL6DQHMbt0AY2YDBbQZFQKadr0AawYrB
fRldQAzAjEAS/6TBAtvKQOaQG0HGIbPBoYXxQJ3rF0Fdna3BIV+jQH3cGEGM2a3Bq8TwQBmQEUFW
z6LBXY2iQJuKEkEwCqPBmdbhQDDHpz9XfKvBWA+mQAzNI77n7qbB34/oQIwIjb93xK3BaUvJQOjV
DkG4gp3B5tm3QBemkD9VrafBAyH6QKayRj68lq7Bd36+QIRzo78K7anB20/RQCSA2L9ykXfBLS2/
QOdIwEDX85LBkPnZQHyhwz+LzovBNb7dQNbKTb7JrHjB22nLQDiCgr9tso3BsvqMQLOd5UCF44jB
VI+fQL0+oECK1Y3BNqvlQFs8mT1cNIjBxuMIQVGWfMA9UIzBmkmeQOj7E0ByGaTBYXbIQIJJCEHr
45HB+zrkQAcbg8A38ZDB3sLBQASIYsDbSInBlXuNQAbffUCxrJXBN8uuQAzCOUDEXpnBIbfLQF2h
CcD3PYbB6eavQNIS6UB8j5DBiwm0QAAE5j+vbpHBGpp2QCHcukA+XIrB8OzLQCHFFcCcJ2fBueTe
QPT2t0CfVpjBEzPzQEbMG0Cn1InBlld4QGr6lUAPoZ7BpDIRQb4BvD7FR7LBl+etQBIaIcBr0ajB
z3zLQH9wIEFxa7vBLd4HQUgBGkGErbHBl8aFQEqiG0EmF7LBEjIHQenGDkFSlZ7B2FKEQMyGEEGM
+Z7BNlHvQDtkE0AnBazBKbiFQHtklL7NEaTBplr7QEX5+r9cFbDBr5TDQFkA3D5Gm3LBmOj6QOcv
OryrTG/BgniqQEDfLL/NHo/B/jDaQCH/pr/1WZXBqguZQIqC6UDwrYDBf/JoQOoK/kCPgYrBereu
QLAnkEBW/IbBcd8DQVAOw72o8InB3JYUQRxgi8A1BJLBtVAMQY9xOMCp6orBQf4JQWDZj8C7tITB
KiagQAPYRUBmS6rBAIx5QFAiAEDtDqPBVG3pQCisBUFNGI/Bt4u5QM4VFUFJI43B1HbiQHg/Y8BI
kZjB69HdQFRApcBaW5LB13SiQLA7ZMB/TY3Bip3AQNw0hcDcCYLBr9JmQNOvW0CPlpHB+L3NQGpu
WUDnv5rB3sqaQN6fmj+3B5DBPmdeQPDYr0AmfIPBO9FIQJAsu0Aa84/BNlVhQF1OgkC9qKPBIR/B
QFBQFkFdsbPBr2fpQLB7EkHrAK/BYLabQMT3FEH8bq3BnU7sQAtJDUGgD6TBJJSeQHP1D0E7d6LB
0ULdQKpumj/BTarB3X+nQGX3rr5sZKPBpeLsQBxel7+AUanBge3GQMIKDEE4vZ3Bq9KzQLTfeD/5
J6bB0bH5QFzWBD7K4qvB1+XDQApbtb+kA6XB6wT2QI4MV78qj3vBtm3AQBIjvkDSPZLBTUvbQCbp
CUD86I3BKA3aQBSfJ77jIIbBQ6kGQRjgsj9ao37Bq8OGQIC65UDyI4zB2KidQJzqnkB8Ro7BGIjg
QDjVqD/m5oPBxSICQc0DpL4YAkfBfV2VQMe8CEDVEqTBeZjKQBAjB0Fc35HBstAVQZsw2D5dzE/B
AeAbQXwR+71U8mXBNHWIQGQAhECPSpfBadynQPpVQ0CvVZvB6XIKQTb2yD3SEHXBKyi0QO+45kDo
647BTd6yQK8zDkClKpLBDIJ6QJiXuUDmA4nBu/3yQI7mAMAuKXbBcyXhQME8tUBLLJfB2er4QIdi
NEBckpHB2kJ2QD2+nkC045/Bca0QQQWftT5v1K/Bze63QOQSK8DaWKLBq+q+QPdHGkF9FbzBGQkD
QViIE0EPzbPByKV5QArHF0GUC7HBDpkFQT8+CkEsf6DBRueBQDIcD0FtqZ3BECTnQEaSDUAtQ6zB
sjSIQP7gBb9GBqDBqT4BQVqSAMBipqrBbpvkQJwQ2L7hQ47Bwki4QD8a5b4KHoXBK2ISQUovzD+O
sIXB6acHQWcmDECXeHLBe0uAQKKk+0BNcoXBV2pmQMoE70AvFJPBwwasQGDwiEARaojB1FXJQPke
0z/LqnvBKf77QIFspT3EJjfBKBrpQGqKOL6i+FHBhcgFQUtMsr+KnkXBgiKRQNWrLUCBfavBlm1s
QCFX3z/fbqHBn6TsQKRvBUGtzo/BHbm8QP6CFEHgUo3Bdh4SQbFLvz/SIFHB51kjQc9CkD66xkTB
clAqQT+kyT7WsGvBMBcfQXfFmb9Nt2TB2f1YQLQ+Z0D12pPBELHEQLcWY0B1dJ7BCMebQIgN1j93
zI7B4Ud+QKhitkDKEYHBdOU/QLNRsUBUeYvBJo5cQG++jUAsT6XBJCnAQC/4F0GurbLBmCfpQGvP
E0Fsda7BucabQPxuFkHSDqzBAc7tQA8UDkE8n6PBtWGgQGLTEEFENKHBVkfaQO9zoD+cKavB1d2n
QH+sqb6wQ6PBdPjrQMeFj7/gbKrBiHPJQFKiDEGI9ZzB82uyQJwIfT9wRqbBvPL2QFzuSz7MQK3B
J47EQLU/sb8iXqXBffj7QDZCUL8ej3jBLMbAQOubvUB+R5LB+SDdQBhkAkAeNI7B+CXnQAHKoL6e
m4bBckwEQcNOwD8mhXvBbQeQQNWi5UAeMYjBwk+dQCGsn0CuHI7BKL3hQEiDlT+EUoTBOKY3QfuU
jT+HuGrB9zGUQL9dCECcoKPBhofOQCq0BkE+SZHBENglQR8Srj/4H1rBsDEUQa47iz5+71rBgNKI
QLTngkAm0JbBh0SoQKrMQUBW/JrBKK8IQVL5jz4zZG/Bcy+2QA6Q5kCo6o7Bjx20QHbJC0As+5HB
GEx3QPkivEDWCorBsSP6QOm++r/yqHHBgNbfQIYztEAgyZfB8Sn7QLDKK0CY3JHBdNpzQE2inECE
dJ/BeYoOQUXr6D488LHBpG+6QGZqKcCkbaLBUaC8QDFWHEG6/brBjYECQcIEFUFLibPBTLx4QGaO
GUGQTq/BMZoGQW7JCkHiaKDBe4OEQJC6D0G2H5zB4cXiQPYCEUBITK3BkcGJQCeQCL/9V5/BweIA
Qf499794IqzBkBT8QIev9r7ujY3ByBPIQA4dTb+S/YfBjugRQR/a4D+x9ILBs/kAQU/3FUBxq3DB
EfGYQGnz6EAncH/BplJ0QPW2/0A/cIrBWBOqQCKDi0B3pIfBvhzFQIiepj/7oH7BmcVDQec78z9S
j2nBkiw/QZ7KBj5vjWfBgbMwQWlyjT8q5HrB9ECOQD1vLkAY4arBWYJrQNNu3D9rp6DBvpPwQJLl
A0GSjI/B26bCQE7jE0H4RIzBb/0sQb7Qrj+JCkrBXoQeQeq0FUBEYV3BuqkbQeDmNr9SuVjB1rUI
QR8G6T6e7E3B/BxbQBdFZEARJ5PB07LEQLPBYUD5S57BE9ScQMKY1j+USo7BaFdfQLWhsEBFNIPB
rVdIQI4Av0BVbo/Bj85aQGnXikBMw6TBOmDBQK4ZGEElkbLBohLqQN/wE0EuKq7BrI+cQIDNFkFR
FqzBN/3tQGhZDkG4SqPB1mqgQCBLEUFYNqHBtnjXQA7ckz/eCKvBMtGlQFsb2L4YwaLBKk3pQHnh
m7/xQarBmyTJQLz+DEE3zZzBhC2wQKa0ZT8s3aXBfPrzQFxnzT2aNK3Bw2LCQH8svb959aTBEc7v
QAjaSb83FXnBwGHAQAhpvUByYpLBFZ3eQGufCkDNFI7B2QDYQPx3yb0GoIXBDiAIQa2Moj80lX/B
BfCQQCKN40CdsYfBgYadQIvUnkBUNY7BJG/jQCNJrj8G+IPBu3kZQc2U0z+2JEvBkmKSQJMsA0DF
I6PBO+7MQMqYBkF0MJHBK7EmQcxcWj+gelvBDLsZQZ/Xpr62z2TBjvqIQKmBgkBk/JbBORyoQGly
QECpIpvBCf8GQaLr/D378nDBq/mzQGBL5kCJW4/BjZu1QP8gDkBnApLB0uJ3QMy1ukBK3onBUbzq
QCSg+r+q1XPBvZnfQI9ntECY4JfBTun7QPQ7NkDSspHB0at1QIFtnEAzqp/BmuwMQeNntj4XA7LB
kOe4QEAxL8AYzqHBxWi+QG5JHEGs6rrBxyEDQeUKFUHVIbPBbNN6QJMIGkG8dq/BepMGQVMaC0Fy
7Z/BBjqEQPhZEEGNPJzBOq3fQIWDCkB6VK3BuACIQP0sH7/qr57BffL+QDXcAcAsD6zBKzDjQMEr
6r6OdY3BW0W1QLSCg77t9oTBBpMTQbLAij+vTobBG60MQVMCDEBYA3fBsFKdQLNA5ECz6n7BzNN0
QH8z/kBc2ojBjuuqQKBUikAF44fBCpHOQIhp5D+ke3vBiSwjQbHbHkDq10TB6BoLQd+ZA0Ax/lLB
wa8UQSIgfj8d6D3BKXuKQK9xJkCxfqrBsrxpQNFU0z8aj5/BnbbuQD+UA0E2O4/BO5vAQDqNE0Fa
F4zBKXsrQYrJwj8lm2jBAxA1QXOX6j4RhVPB7CskQVkkaL86gW/BqkwUQZIqd78QkFfBgLNaQMsP
ZECqaZPB7q3DQGqFX0Ah/Z7BrVSfQC5s1j/TRo7BfeVfQBxUrkDgIIPBYttIQLKKvkCINY/BOpRc
QM3PikCDAaXBCBS4QKDTF0G87LTBuNrgQDmpFEGYYbDBHiOTQFYMFkHFg67Bt7jkQP/FD0ExbaXB
ePeWQFJTEUHHh6PBf7DeQC68pD+Z0arBY4OqQKZhgr5pEaPBqDzuQE7rjL8EBarBD9i/QDE1DkGV
8p7B+pW2QK4Shz+S/6XBaHn6QMyRVj7v06zBclzGQCx3qr9AFaXBj7oIQUBKfL/gCX/BK92/QGwc
w0BHt5LBbJ/YQNE4uj/hMo7B4YnwQLw+c7+XlYjBOxvgQNHANj9kRXbBOA+EQC7T50DVqozBnE6g
QGhfokAHAI7BVwLUQFCziT55WIbBhCssQRptHEBRr1bB+R+aQERZDkDAPaPBLaTEQOnvCUHkD5PB
XlsdQZoe9T99OGjBTwQTQd3lGD8d3WDBCMeMQGByhECvfJbBFOysQBVWQkDHzZnBFM0EQcBT2j10
qHHB9+ywQLRX60Cszo/BLB6zQLAbCUDHlJDBBet7QDyyu0D5BYnBQwwXQeZx6L8XRX3B07PfQABU
u0ARG5jB/7r7QEl77j/MK5HBz/N9QCjJnECviJ/Bz5kQQbaV3z6USbHBdzm7QO1QJcBwE6LBTCC1
QASeG0FqUr3BhST9QLH7FUHoTLXBmsFnQEtOGEHGBbLBpv0BQSg3DUGi+KHBJVB1QKQWEEEQnZ7B
kRHoQIyiEkCW96zB9/OLQA073L4PSZ/B77cBQXvs9r/vpqvBTFYAQSs4V78rW5DBr1DdQFqS77+O
lojBW4HiQIO85z89kXXB2AzIQGacvD4qrGrBP8N5QDBh/kBkJ4bBkUNeQPiY7kCgiZPBsM+wQMMN
j0D26IfB42OyQN+Lab3lVIbBGIozQeu6WEDy/VvBFd0iQanhJ0APBkjBisM4QRsI2j8La1PBGT2X
QJxJOEC5RarBPZF0QGSr7D+4/aDBde7mQDJmCUGuF5HBI1W1QNgNF0FcnY7BxcUQQb4DKkDGe2vB
OqwmQUNM3j/D4HbBkpEfQfP5F77euF3BnMQJQeKoRT9IJ1LB2NZhQJ0baUBc3JLBV2bLQMe/X0Dg
OZzBAlSaQDk0AUCnnovBAByAQE8oukD6DIHBO69CQDvOsEAeWYvB+fJlQA4jikBtu6TB

> <OMEGA_E>
uHQAPxz0/z420Rg/LBsUP9yWEj8y0w0/BKcHP6J/PT8=

> <OMEGA_NBR>
     12070

$$$$
50147900
  -OEChem-04172616093D

 73 76  0     1  0  0  0  0  0999 V2000
    6.0301    9.3699  -22.5883 C   0  0  0  0  0  0  0  0  0  0  0  0
    7.2732    9.2372  -21.9360 C   0  0  0  0  0  0  0  0  0  0  0  0
    4.8310    9.2198  -21.8630 C   0  0  0  0  0  0  0  0  0  0  0  0
    7.3194    8.9620  -20.5558 C   0  0  0  0  0  0  0  0  0  0  0  0
    4.8749    8.9465  -20.4832 C   0  0  0  0  0  0  0  0  0  0  0  0
    6.9155    1.1704  -21.3424 C   0  0  0  0  0  0  0  0  0  0  0  0
    5.1460   -0.3163  -20.5478 C   0  0  0  0  0  0  0  0  0  0  0  0
    7.2228   -1.2484  -21.4209 C   0  0  0  0  0  0  0  0  0  0  0  0
    6.1200    8.8241  -19.8265 C   0  0  0  0  0  0  0  0  0  0  0  0
    5.6315    0.9853  -20.7898 C   0  0  0  0  0  0  0  0  0  0  0  0
    7.7112    0.0535  -21.6548 C   0  0  0  0  0  0  0  0  0  0  0  0
    5.9407   -1.4322  -20.8644 C   0  0  0  0  0  0  0  0  0  0  0  0
    8.1241   -0.2362  -14.9454 C   0  0  0  0  0  0  0  0  0  0  0  0
    5.9935    6.0346  -18.3979 C   0  0  0  0  0  0  0  0  0  0  0  0
    7.1669    2.2992  -17.6036 C   0  0  0  0  0  0  0  0  0  0  0  0
    8.3549    1.1601  -15.5654 C   0  0  0  0  0  0  0  0  0  0  0  0
    6.5051    0.1182  -16.5819 C   0  0  0  0  0  0  0  0  0  0  0  0
    4.4762    7.1300  -17.0313 C   0  0  0  0  0  0  0  0  0  0  0  0
    5.0387    5.0033  -17.7741 C   0  0  2  0  0  0  0  0  0  0  0  0
    7.6758    1.0230  -16.9215 C   0  0  1  0  0  0  0  0  0  0  0  0
    8.6818   -4.6907  -18.1094 C   0  0  0  0  0  0  0  0  0  0  0  0
    4.7841    2.1791  -20.4268 C   0  0  0  0  0  0  0  0  0  0  0  0
    6.1603    8.5413  -18.3449 C   0  0  0  0  0  0  0  0  0  0  0  0
    7.5491   -4.2178  -17.1919 C   0  0  0  0  0  0  0  0  0  0  0  0
    7.7489   -2.7302  -16.9147 C   0  0  0  0  0  0  0  0  0  0  0  0
    6.8325   -2.2576  -15.7799 C   0  0  0  0  0  0  0  0  0  0  0  0
    4.4254    4.0456  -18.8015 C   0  0  2  0  0  0  0  0  0  0  0  0
    5.4656    3.0589  -19.3521 C   0  0  1  0  0  0  0  0  0  0  0  0
    7.0279   -0.8206  -15.6056 N   0  0  0  0  0  0  0  0  0  0  0  0
    5.4763    7.2810  -18.0797 N   0  0  0  0  0  0  0  0  0  0  0  0
    5.9432    2.2011  -18.2668 N   0  0  0  0  0  0  0  0  0  0  0  0
    3.9395    5.7855  -17.1991 N   0  3  0  0  0  0  0  0  0  0  0  0
    8.8069   -0.7558  -14.0705 O   0  0  0  0  0  0  0  0  0  0  0  0
    6.9761    5.8188  -19.0992 O   0  0  0  0  0  0  0  0  0  0  0  0
    7.8865    3.2867  -17.6990 O   0  0  0  0  0  0  0  0  0  0  0  0
    3.8376    4.7933  -19.8690 O   0  0  0  0  0  0  0  0  0  0  0  0
    8.9462    0.2322  -22.1744 F   0  0  0  0  0  0  0  0  0  0  0  0
    5.4754   -2.6787  -20.6253 F   0  0  0  0  0  0  0  0  0  0  0  0
    5.9968    9.5870  -23.6457 H   0  0  0  0  0  0  0  0  0  0  0  0
    8.1905    9.3467  -22.4954 H   0  0  0  0  0  0  0  0  0  0  0  0
    3.8797    9.3143  -22.3655 H   0  0  0  0  0  0  0  0  0  0  0  0
    8.2713    8.8567  -20.0567 H   0  0  0  0  0  0  0  0  0  0  0  0
    3.9570    8.8302  -19.9263 H   0  0  0  0  0  0  0  0  0  0  0  0
    7.2872    2.1678  -21.5255 H   0  0  0  0  0  0  0  0  0  0  0  0
    4.1644   -0.4560  -20.1196 H   0  0  0  0  0  0  0  0  0  0  0  0
    7.8315   -2.1056  -21.6682 H   0  0  0  0  0  0  0  0  0  0  0  0
    7.8831    1.9485  -14.9606 H   0  0  0  0  0  0  0  0  0  0  0  0
    9.4279    1.3754  -15.6761 H   0  0  0  0  0  0  0  0  0  0  0  0
    5.6772    0.7016  -16.1528 H   0  0  0  0  0  0  0  0  0  0  0  0
    6.1534   -0.4124  -17.4790 H   0  0  0  0  0  0  0  0  0  0  0  0
    4.9391    7.2386  -16.0394 H   0  0  0  0  0  0  0  0  0  0  0  0
    3.6798    7.8797  -17.1483 H   0  0  0  0  0  0  0  0  0  0  0  0
    5.5631    4.4316  -16.9943 H   0  0  0  0  0  0  0  0  0  0  0  0
    8.3517    0.4951  -17.6104 H   0  0  0  0  0  0  0  0  0  0  0  0
    8.5579   -5.7626  -18.3231 H   0  0  0  0  0  0  0  0  0  0  0  0
    8.6517   -4.1233  -19.0512 H   0  0  0  0  0  0  0  0  0  0  0  0
    9.6492   -4.5254  -17.6125 H   0  0  0  0  0  0  0  0  0  0  0  0
    4.6162    2.7848  -21.3295 H   0  0  0  0  0  0  0  0  0  0  0  0
    3.8179    1.8254  -20.0377 H   0  0  0  0  0  0  0  0  0  0  0  0
    7.2063    8.4697  -18.0121 H   0  0  0  0  0  0  0  0  0  0  0  0
    5.6574    9.3546  -17.8011 H   0  0  0  0  0  0  0  0  0  0  0  0
    6.5791   -4.3775  -17.6854 H   0  0  0  0  0  0  0  0  0  0  0  0
    7.5765   -4.7796  -16.2466 H   0  0  0  0  0  0  0  0  0  0  0  0
    8.7964   -2.5546  -16.6287 H   0  0  0  0  0  0  0  0  0  0  0  0
    7.5171   -2.1597  -17.8262 H   0  0  0  0  0  0  0  0  0  0  0  0
    5.7832   -2.4623  -16.0385 H   0  0  0  0  0  0  0  0  0  0  0  0
    7.0902   -2.7843  -14.8491 H   0  0  0  0  0  0  0  0  0  0  0  0
    3.6429    3.4622  -18.2943 H   0  0  0  0  0  0  0  0  0  0  0  0
    6.3000    3.6141  -19.8056 H   0  0  0  0  0  0  0  0  0  0  0  0
    5.3294    1.4695  -17.9700 H   0  0  0  0  0  0  0  0  0  0  0  0
    3.6626    5.4055  -16.3166 H   0  0  0  0  0  0  0  0  0  0  0  0
    3.1546    5.7958  -17.8187 H   0  0  0  0  0  0  0  0  0  0  0  0
    3.4588    4.1961  -20.5033 H   0  0  0  0  0  0  0  0  0  0  0  0
  1  2  1  0  0  0  0
  1  3  2  0  0  0  0
  2  4  2  0  0  0  0
  3  5  1  0  0  0  0
  4  9  1  0  0  0  0
  5  9  2  0  0  0  0
  6 10  1  0  0  0  0
  6 11  2  0  0  0  0
  7 10  2  0  0  0  0
  7 12  1  0  0  0  0
  8 11  1  0  0  0  0
  8 12  2  0  0  0  0
  9 23  1  0  0  0  0
 10 22  1  0  0  0  0
 11 37  1  0  0  0  0
 12 38  1  0  0  0  0
 13 16  1  0  0  0  0
 13 29  1  0  0  0  0
 13 33  2  0  0  0  0
 14 19  1  0  0  0  0
 14 30  1  0  0  0  0
 14 34  2  0  0  0  0
 15 20  1  0  0  0  0
 15 31  1  0  0  0  0
 15 35  2  0  0  0  0
 16 20  1  0  0  0  0
 17 20  1  0  0  0  0
 17 29  1  0  0  0  0
 18 30  1  0  0  0  0
 18 32  1  0  0  0  0
 19 27  1  0  0  0  0
 19 32  1  0  0  0  0
 21 24  1  0  0  0  0
 22 28  1  0  0  0  0
 23 30  1  0  0  0  0
 24 25  1  0  0  0  0
 25 26  1  0  0  0  0
 26 29  1  0  0  0  0
 27 28  1  0  0  0  0
 27 36  1  0  0  0  0
 28 31  1  0  0  0  0
  1 39  1  0  0  0  0
  2 40  1  0  0  0  0
  3 41  1  0  0  0  0
  4 42  1  0  0  0  0
  5 43  1  0  0  0  0
  6 44  1  0  0  0  0
  7 45  1  0  0  0  0
  8 46  1  0  0  0  0
 16 47  1  0  0  0  0
 16 48  1  0  0  0  0
 17 49  1  0  0  0  0
 17 50  1  0  0  0  0
 18 51  1  0  0  0  0
 18 52  1  0  0  0  0
 19 53  1  0  0  0  0
 20 54  1  0  0  0  0
 21 55  1  0  0  0  0
 21 56  1  0  0  0  0
 21 57  1  0  0  0  0
 22 58  1  0  0  0  0
 22 59  1  0  0  0  0
 23 60  1  0  0  0  0
 23 61  1  0  0  0  0
 24 62  1  0  0  0  0
 24 63  1  0  0  0  0
 25 64  1  0  0  0  0
 25 65  1  0  0  0  0
 26 66  1  0  0  0  0
 26 67  1  0  0  0  0
 27 68  1  0  0  0  0
 28 69  1  0  0  0  0
 31 70  1  0  0  0  0
 32 71  1  0  0  0  0
 32 72  1  0  0  0  0
 36 73  1  0  0  0  0
M  CHG  1  32   1
M  END
> <OMEGA_C>
zvbAQCDrFUHHtLTBrb3oQJjLE0HifK/BoJeaQC2EE0F5567BNDjqQEhkD0FGcqTBlP+bQLEkD0Gf
3aPBLUzdQMbQlT9PvarBzqukQMHwob7VYaTBKCHnQPbMn7/oXavBFdfDQJ4vDUGmnJ7BFzW0QOY+
fD9tUabBWML2QKgvWz0ZPa3Blxq+QChRt7866qbBRvwBQfLjcb5EIG/Ba8q/QHobwUDhLpPBYVfl
QJslE0Aj1IzBeK0FQRh9lD8ADHnBByrQQOgR8j25p4TBXz2PQBwp5EAdQIjB8jyhQCsboEBJMY7B
RaD1QFTwgj8yX4fBougKQQ8alsD535DBOBeZQD52C0AYaqPB6yDFQFGpCEFawpLBXpLxQBn4hsAc
iYnBDvf3QBe8LsBhUYfBF6TaQEN9EMBQenzBLJ2NQNR1gUBzaZbBI+auQL/FQ0As0ZrBX+TgQNAV
Ur+DsHnB6D2vQPb96EAho5DBpy6+QCnfDEBdIpLBwiB8QOUiuUDVl4nBIukMQUZ7Qb/oIGHBFTzf
QIgzukAsy5jBL178QO9YUkCIl43BrJt1QHlimUCu857B0CMPQYq+bT40ZbHBYzavQJ5wK8CUAKXB
Lua/QGdkGUFkKr3BOAwDQUCMFUGA9rPBJE14QIwHFUGM7LLBL1cEQeC0DUEGdKDB4T59QI5IDUH+
aJ/BGDHpQEm9CkAkNKzBlkKFQO926b7f9KDBipv6QBDCBsCAWK3Bm0L8QAVo+T9uXm/BjNgWQeoN
sD9w0XrBjKu1QNmbMz/XOIHB2ujEQKIk07751IvBTQ2eQFCi50CbUIDBZIJrQJ0m/EC/L4nBSQWy
QNLPjUA69IfBgqAFQe6D/T4b4ozBW+0IQSdnuMCjlZLBUm0KQerxg8D1aJjB7GIaQdPPkMBa5ozB
QLiTQM46MkDcoqrBnlh0QMql6T8/TaDBwJnmQLqDB0HOGJDBYgm1QH2sFUGtaI7B0IfSQKsUjMC7
e43BBHPyQJPymMAg+YHBP74MQSF/I8CJB4XBSYzwQME3CsABnI7Bpg+5QCOXHcDyToDBuOLiQH4x
MsD8lW3B3yRpQLuUXUDLWpLBjpnJQEFNZ0DFcZ7BwIqqQNQZvD+Gwo/BTGdqQBr6rEBYiILBGuVJ
QEt3uUCrjI7BWF1dQI1GhkDYBqTBlbPBQOc0GEGqiLPBa1LqQKchE0H/VK/Bl1mdQFvRF0Eq3azB
P6TuQNmnDUFTdKTByZ6hQFNtEkE3/KHBNBjWQLNunT/WOKvBxPOiQEOnsr7+haPB8iHlQMTJlL/7
jqvB2UzKQP1lDUFowZ3Bq/quQCejeT9/9aXBFTrxQAoiJT72963BW/29QDFFtb/CWKbBvHD6QK7a
Zb4Q0W7B+snAQMp+v0An9JLBIUPkQL/nDUD4xo3BGA36QEU5mz8uZXfBI/vcQJ+ag77YsojBB92R
QH8V50DBX4jBVRKfQM1QoUAWFI7BFFn3QJNEgj9kt4fBDd5/QBM7csBzUYvBY7SSQKW5B0A4i6LB
TonOQGl2B0F9GZLBU9SdQFVgPsC4DYTBIg/NQP5sT8B0+obB7BvsQPLbIcCpXX7BJ1OKQHXdgkDC
O5bBqMypQP9WQUCTUZrBGSroQMYph786cX7BZye1QH+b6ECP/o/BCvi5QFBEDECpZZHBvYh6QBan
vUA8BorBpcUEQXQhE7/snV3B1SjfQDc9tkDftZjBZNr7QO09SkDw14/BBV90QJJFm0A0Cp/B9YML
QZZD0D4j2LLBDKeyQDTFK8CZ7aPBNHC+QP1lHEFB4LvBAhIDQUBxE0HNdLTB+Hh8QH6nG0FcGbDB
LdwGQQmpCUEQP6HBw8aFQLUiEkGF3pzBDS/fQPudD0BgI63BqwSFQOUcC7/Gfp/B9+L5QIDW/b9Y
ta3BpCLeQHg14j/WYHHBcMMLQQB43z+E8nLBUJa6QHeCvLzgu4jB3lblQFBaTL++EZDBc/qdQHip
6UAII4DB90F2QBmdAEHr7YnB2nGtQIC7jkB1hofBXdYLQZkgUz9w1orBV/E8QHBHZcB7HonB/j6F
QBq3X8AvtJPBT6eGQG5ym8C7V4rBYE+KQO8uLkASnKnBkblqQKTn2z9U557Bo1TwQD9HBEG4OJDB
NNzCQFC2FEGxGI3B8O6WQH6V87/zCYXBQVeYQIH4UMABW3fBignTQO1gisDKqYbB1gTTQFHqN8Bh
I4/Bk5PlQEgCOcCYEW7BG4kGQUmrMsAEcoHBF1FfQJ2wZEC1PZLBQsDEQG51YUART57BUGylQPPD
yT84vY3BKR5jQPNzskAnIIPBqi9LQE00wEByXo/BCqpaQAeXiEACGqTBhdK5QK1hF0FljrPByJHj
QET0E0EFpK/BJG+WQFWvFUGlnqzBbfvpQDzEDkG4yqTBrMecQA2QEEGkxKHBRoHaQLR+oj+XCavB
Q0KpQB6EsL5vEKPB+6btQI79i78NWarBI5bGQNYIDUFX1p3BGwCzQB5sez+3D6bB5733QAKzbj5e
Lq3BX4bGQMrPsL/uPKXBqcTvQOl+f7+m6HrBI5PBQJ1JvkCRqZLBweXbQHQrBkDiXY3Ba4vWQH56
hb65GIbBApYGQcKhkD8bNH/BLRaSQCaH5UCpKYjBQ/qeQNf3n0CNNY7B5zzgQCxjmT//soPB+jcN
QZB+urxwyjvBBGCUQAwgB0CbV6PBYTTNQGQxB0FpOZLBEO8VQWaMjz9D0UnBk0IlQWpwGD9VVVvB
fC8bQUneCL+b92jBUK6JQJVMg0C1ypbBqpaoQOJGQUB5yprBAwoHQZhNx73wkXLBDk61QDxd50C2
y4/B/ZezQOUODEAnqpHBxVJ7QEL8u0AfzYnBRFrrQKCiC8CyWHbBnOjgQNzmtEAiFJjBFG35QHka
NECKYZDBHoZ2QGXOnEBLhp/BY88OQWR3Az+U5rHB8lO9QNCeKcC7SqLBa/S0QN5PG0Gc4bvBeKj+
QJNOFUGb9rTB4O1sQBBQGEGQoK/BzvsEQe4dDEGuzKHBFK2BQB9UD0F0cZzBlEziQF5SEkDFM63B
+VyLQEeqEL+hGp/B4fQBQRj78b/HF6zBNbbhQBMhCr9lI47B2RO0QD9H775ia4XB/RASQezBiT8N
QobBEUYKQe09AEBvK3XByUOeQKwi6EAp3X/BWF52QJKL/0A6sonBqNisQPDAi0Dn5IfBlNbKQPzW
xj+soXrBnGoCQQSDxz4NkC/BpmQEQWN+PL/33UXBb6AaQRD2Cb8z7jPBpsCNQA7YLED1larB5ZZs
QL5j2D85QKDBlHfvQLh9BEHVuZDBw7TBQHZOFEFsG43Bu2kIQclB0T+yh1HBhaUeQfKF6j/tlz/B
7YgpQSUStz/C92XBk8ozQXTzUz7mllPBwWcmQUjcUL9PwnXBSB8YQQgAtL9DrV7B2EdcQNKAZkDq
DpPBg2bFQLDSX0CuGp7Bh0icQArx0j/OS47BusdlQItbsEAB2oLB1aBKQLSqvkD58o7B1X5cQHT4
ikCxv6TBykzCQDWUGEGoy7LBdMrqQC7NE0GObq7B1midQNVgF0E+VqzBxHLuQPnNDUFmm6PBCQSh
QI94EUFmgaHBQbrZQBiXnj84eqvBSsSmQAJMsb59zqPB6pXqQHdSkr9dFqvBVZPJQGu1DEFNHZ3B
pMmxQDYMej8bn6bB1g32QOswOD65tK3BuBDDQHnSs7+tE6bBPkX6QORHL7/OPHfBaKvAQE8EvUCH
XZLBKZHdQC5tBkCqO47Bz7ThQIb3O74ZboXB2v0FQW7Fxj/Fu3zBA/KQQG/240D174fBWKCdQOug
nkC0Jo7BqRHiQE2JqT8K5IPBq7RBQR3g1L/JyVzBrtWTQLLWB0AT3KPBNknNQDRoBkFpe5HB/ZZC
QbcUJ74yV2LBw48uQYaWkD5rg27B81MaQV7blj4AQmDBiNiIQLMygkBD4pbBAEioQKEHQUDdPpvB
e5wHQadS2D5rC27B4Cm0QHwb5kBtjo/BitO0QMzOCkDeUZLBjUR4QJLIukAv2YnBW2H7QOaX7L+n
HHHBQYTgQNOzs0BHmJfBvjj7QBhnMECa+5HBZOVyQII7nEBZaZ/BOjIOQQUp3j6DSrLBeHm4QGPx
KsCCWaPBVoy/QAYqHUHsGLvBS4MDQX69FEFfZLPBHMp8QMf8GkHIsa/BLrkGQZIMCkHAR6DBE8OE
QDWUEEHAjJzBkIziQMkrEEChe63BwpmIQOv9C79m6J/B5AsAQT16+r/U66zBTQ7yQKrf777k4YzB
583AQFoHE7+BhYXBY0gTQQJexj+fIoTBMucFQYJlIEDT83PB9iCdQA6h5UAwYn/BC6V0QAFd/kDs
T4nBSOuqQPg0ikDuzIfBD9HHQItazT8R8nzBwE1QQTRT+b9/E1TBUKEzQchC7r/KtVLB9YtAQQwV
EMCQnWvBIa2NQHIeLkAwFavB7O5qQFmn2z9a0qDBdAvvQPdSA0ENho/BwB/BQOl1E0E5bIzBGNVD
QWZg1T7Ub1PBvb9QQUwy3DyaV2zBGTsxQTscpj9svHTB7+MrQcJW0b7Y8HvBw1sZQealJL8+HFfB
lwcbQXqqkj+0IVXBvqdbQBFAYkA+MpPBcmXEQMCPYUAFo57BnEueQBKdzD9x747BAg5hQH3lrkDT
AoPBZ7FIQFwOvkD6Io/BpIVZQMudikBSu6TBhke4QG6GF0HXt7PBQibiQKDyE0FV66/BqzGVQIYM
FkFrrKzBOvvoQFPODkHDFKXBR/abQGv5EEE21aHBF7PaQJoYpD9J+6rBQ/ypQAoXqr4lzqLBnjTu
QEjrib/rNarBIuLFQLVIDUE4BZ7BknCzQBM4fj8a56XBnfn3QNwJfj7vJa3Bo1LHQM7jrr8o/aTB
A9rwQAjIjL8XunzBtWjBQMzQvkD5tpLBo6TcQAyUBEDsVo3BPNTbQAT4sb7akYfB+loFQUZhjT9V
+nzBlLqRQBlQ5kA4UojB4veeQKOOoECkLI7BKDDgQG1ujT8ZGITBxNYqQfNbCkA56VPBUNWUQFS2
B0DQLqPBdevMQBl4B0Hsa5LBBvojQajmgz+2oUTBQt0PQQmAmj5prUzBo3cUQR3dAr/3I2HB5t2J
QN91g0CwrZbBWh2pQBgVQkALqJrB/OoEQeBOLr6Kh3HBxw+1QGD050BL7Y/BnzK0QNMIDUCth5HB
BgJ7QFOavEDu2InBOVnsQPmsEsBYy3jBS8vgQKpMtUAcGZjB7dL6QNofMUBPQpDBxdJ1QGSTnEAM
bp/Bg8QOQVeVBz9yBLLBQGq+QKCUKMA99aHBzBWzQNRmG0GECbzBKgL9QIEmFUGvUrXB4ERqQCjP
GEESl6/BI4cEQfEHDEGhLaLBnBeBQJnmD0H6bJzB10fiQOsWE0BLNa3BFUWMQHGTDb9Pw57BHkMC
QV6u778f9qvBg73sQArAB7/iJY/BDgK6QAfhIb/4cIjB16QSQRjekT+PQITBWLAGQVDE+T/F0nHB
9MWdQBlh6UCFFoDBZ3Z1QOcSAEGC9InBR+2sQCiwjECvzYfBFOXGQENiqj/NfnzBhjw5QevvKUAf
k03BG1ouQW3L3j/5yGPBetIdQWxsOUCJSFXB2BqOQCBMLUBhbqrBQJxtQKKC2T9EEKDB2zrvQA7A
BEFIAJHBmaTBQBKaFEEwSY3BYiIxQX8BnD57S0PBwZogQcsNuz8KyzTBMjIKQYKgw75nHEDBO2AD
QabVhT8tKlDBIKckQX+fjb4m8mbBPV8TQa3xyr97hV3BYzVdQO5XZkAV4pLBRs/FQC7wYED9/J3B
fpmcQFhF2D9xBo7BlYxlQLY6sUAN3oLB905KQJjwvkBNAY/BuAVcQKhyikDRm6TBhTi0QODpFkEc
srLB7LveQBmOE0HKUq/BX1SSQLIuFUGETqvBQmPnQFZqDkG/kKTBEOqaQMwQEEHdi6DBjoncQNsu
lD/IoKrBH3KoQObHtr4PiaLB4ULsQIwcnb9ZRKnBmn7FQNWiDEFRJp3BlyC0QBt/cT+N26XBqG74
QKhRlD1pYKzBRHPEQDBeuL9OQqTBXmLvQPsmdb8Sx3vB/WvCQKQXvkCbZJLBX9ncQNAOB0BQ+43B
PAPZQHjhhL4YLYfBrvcEQblCmj+qjH7BK3SSQIwu5UDJ2IfBhCefQJDhn0C+Qo7BTkrfQCOImj/i
c4TBjl04QZmsPb+dNUXBf0uWQKy4B0A3vKPBCsnOQMQLB0Ewl5HBpwgyQWxpMD984UvBOroaQTUx
RD8oUlPBnTgWQS4TqL6XJWTBR2OKQDyNg0AODJfBntCpQPA9Q0CUOpvB/+4DQYAIhTy9GnHB1nu4
QBui5kBBoo7BDq+0QGnYDkA3JpLBWpF7QLr6u0Ck7YnByo7tQEAeCsA58HfBudvgQI9GtUBtLJjB
VRT7QBSBM0DP6pDBqhh3QOlgnUATpp/BZHoPQd5Sjj6ZBbHBMVK5QF60K8C3AqHBWJytQBbRGkHZ
8rrB+K74QCTsFEEg/bTB0YpjQLrHF0Gc5a3BCPwDQaTVC0Er/aHBB++AQAnDDkHb4prBpA/mQOrp
CUAg8KzB6P2JQJJdBb/Gqp7BjboAQXLkA8ATuarBbCboQPMzA7/Y247B8Na2QNhJBb9keYfB3tcR
QYm5jz/sPIXBBWIHQS0sB0D+4nTByJubQD6S50DIvX7B6lN5QFuY/0D/4onBb0isQKpCi0DN7YfB
yOLGQPgmwT87LX3BoSxJQWE7QL+T/j/BihAuQd9Oib+F9jfBPF82Qd/Ftb/c6FLBe4WRQJnCK0Aw
M6vB3pZuQPsp3z/x26DBLnLxQN7HBEEkjpDBxNHDQNgpFEFDZ4zBWS80QbQkrj80Gz7BCn48QbSt
gT+LDVnBPxQQQQHjHj/CgEXBl7kXQaqb4D9OcFrBP1EkQTap4L4niW7BbA8TQYXUo7+751vBezde
QKh7ZUCQZ5PBaGLGQMbeYkC6g57BGx6dQA6j2z9apo7B8QFkQOHJr0CkJIPByj9MQN6Gv0DHPY/B
AtxdQACwi0Ct9qTB

> <OMEGA_E>
MBf7PnzVzj4i+RE/CLQSPzT+FT9wbhc/

> <OMEGA_NBR>
     19215

$$$$
50147906
  -OEChem-04172616093D

 79 82  0     1  0  0  0  0  0999 V2000
    6.1985    9.4995  -22.5113 C   0  0  0  0  0  0  0  0  0  0  0  0
    7.4223    9.2547  -21.8555 C   0  0  0  0  0  0  0  0  0  0  0  0
    4.9858    9.4193  -21.7974 C   0  0  0  0  0  0  0  0  0  0  0  0
    7.4356    8.9311  -20.4850 C   0  0  0  0  0  0  0  0  0  0  0  0
    4.9976    9.1046  -20.4248 C   0  0  0  0  0  0  0  0  0  0  0  0
    6.7528    1.3529  -21.3831 C   0  0  0  0  0  0  0  0  0  0  0  0
    5.2053   -0.2975  -20.4587 C   0  0  0  0  0  0  0  0  0  0  0  0
    7.3222   -1.0164  -21.4343 C   0  0  0  0  0  0  0  0  0  0  0  0
    6.2241    8.8623  -19.7659 C   0  0  0  0  0  0  0  0  0  0  0  0
    5.5310    1.0423  -20.7516 C   0  0  0  0  0  0  0  0  0  0  0  0
    7.6495    0.3246  -21.7193 C   0  0  0  0  0  0  0  0  0  0  0  0
    6.0989   -1.3267  -20.8062 C   0  0  0  0  0  0  0  0  0  0  0  0
    8.6324   -0.2336  -15.0479 C   0  0  0  0  0  0  0  0  0  0  0  0
    5.9482    6.0230  -18.3132 C   0  0  0  0  0  0  0  0  0  0  0  0
    6.9189    1.9923  -17.6103 C   0  0  0  0  0  0  0  0  0  0  0  0
    7.4544   -0.4071  -17.0823 C   0  0  0  0  0  0  0  0  0  0  0  0
    4.4115    7.2270  -17.0643 C   0  0  0  0  0  0  0  0  0  0  0  0
    8.3473    1.1747  -15.5779 C   0  0  1  0  0  0  0  0  0  0  0  0
    4.8934    5.0542  -17.7438 C   0  0  2  0  0  0  0  0  0  0  0  0
    7.1338    0.9525  -16.4883 C   0  0  1  0  0  0  0  0  0  0  0  0
    7.7470    3.5714  -14.9382 C   0  0  0  0  0  0  0  0  0  0  0  0
    5.3375   -4.2720  -16.6056 C   0  0  0  0  0  0  0  0  0  0  0  0
    4.6028    2.1520  -20.3356 C   0  0  0  0  0  0  0  0  0  0  0  0
    6.2361    8.5328  -18.2921 C   0  0  0  0  0  0  0  0  0  0  0  0
    8.1094    2.1705  -14.4221 C   0  0  0  0  0  0  0  0  0  0  0  0
    6.4650   -3.5177  -15.8989 C   0  0  0  0  0  0  0  0  0  0  0  0
    7.7047   -3.4218  -16.8212 C   0  0  0  0  0  0  0  0  0  0  0  0
    8.7547   -2.4751  -16.2165 C   0  0  0  0  0  0  0  0  0  0  0  0
    4.2813    4.1158  -18.7988 C   0  0  2  0  0  0  0  0  0  0  0  0
    5.2664    3.0207  -19.2462 C   0  0  1  0  0  0  0  0  0  0  0  0
    8.1800   -1.1332  -16.0189 N   0  0  0  0  0  0  0  0  0  0  0  0
    5.4792    7.3060  -18.0516 N   0  0  0  0  0  0  0  0  0  0  0  0
    5.6261    2.1673  -18.0944 N   0  0  0  0  0  0  0  0  0  0  0  0
    3.8085    5.9128  -17.2509 N   0  3  0  0  0  0  0  0  0  0  0  0
    9.1512   -0.5139  -13.9725 O   0  0  0  0  0  0  0  0  0  0  0  0
    6.9580    5.7311  -18.9445 O   0  0  0  0  0  0  0  0  0  0  0  0
    7.8650    2.6150  -18.0824 O   0  0  0  0  0  0  0  0  0  0  0  0
    3.8565    4.8883  -19.9254 O   0  0  0  0  0  0  0  0  0  0  0  0
    8.8253    0.6261  -22.3136 F   0  0  0  0  0  0  0  0  0  0  0  0
    5.7886   -2.6115  -20.5236 F   0  0  0  0  0  0  0  0  0  0  0  0
    6.1901    9.7487  -23.5621 H   0  0  0  0  0  0  0  0  0  0  0  0
    8.3503    9.3153  -22.4047 H   0  0  0  0  0  0  0  0  0  0  0  0
    4.0483    9.5991  -22.3026 H   0  0  0  0  0  0  0  0  0  0  0  0
    8.3727    8.7359  -19.9848 H   0  0  0  0  0  0  0  0  0  0  0  0
    4.0693    9.0485  -19.8757 H   0  0  0  0  0  0  0  0  0  0  0  0
    6.9992    2.3800  -21.6083 H   0  0  0  0  0  0  0  0  0  0  0  0
    4.2721   -0.5332  -19.9688 H   0  0  0  0  0  0  0  0  0  0  0  0
    8.0093   -1.8070  -21.6974 H   0  0  0  0  0  0  0  0  0  0  0  0
    6.5295   -0.9387  -17.3504 H   0  0  0  0  0  0  0  0  0  0  0  0
    8.0869   -0.2983  -17.9757 H   0  0  0  0  0  0  0  0  0  0  0  0
    4.8198    7.3223  -16.0473 H   0  0  0  0  0  0  0  0  0  0  0  0
    3.6683    8.0194  -17.2368 H   0  0  0  0  0  0  0  0  0  0  0  0
    9.1999    1.5176  -16.1825 H   0  0  0  0  0  0  0  0  0  0  0  0
    5.3304    4.4638  -16.9250 H   0  0  0  0  0  0  0  0  0  0  0  0
    6.2228    0.8840  -15.8756 H   0  0  0  0  0  0  0  0  0  0  0  0
    7.5864    4.2469  -14.0850 H   0  0  0  0  0  0  0  0  0  0  0  0
    8.5680    3.9563  -15.5610 H   0  0  0  0  0  0  0  0  0  0  0  0
    6.8271    3.5142  -15.5386 H   0  0  0  0  0  0  0  0  0  0  0  0
    4.4634   -4.3332  -15.9405 H   0  0  0  0  0  0  0  0  0  0  0  0
    5.0605   -3.7384  -17.5267 H   0  0  0  0  0  0  0  0  0  0  0  0
    5.6777   -5.2872  -16.8581 H   0  0  0  0  0  0  0  0  0  0  0  0
    4.3712    2.7788  -21.2093 H   0  0  0  0  0  0  0  0  0  0  0  0
    3.6731    1.7185  -19.9384 H   0  0  0  0  0  0  0  0  0  0  0  0
    7.2747    8.3923  -17.9580 H   0  0  0  0  0  0  0  0  0  0  0  0
    5.7787    9.3600  -17.7295 H   0  0  0  0  0  0  0  0  0  0  0  0
    7.2853    1.7981  -13.7958 H   0  0  0  0  0  0  0  0  0  0  0  0
    9.0262    2.2401  -13.8182 H   0  0  0  0  0  0  0  0  0  0  0  0
    6.1211   -2.5039  -15.6460 H   0  0  0  0  0  0  0  0  0  0  0  0
    6.7383   -4.0526  -14.9774 H   0  0  0  0  0  0  0  0  0  0  0  0
    8.1455   -4.4226  -16.9401 H   0  0  0  0  0  0  0  0  0  0  0  0
    7.3952   -3.0383  -17.8047 H   0  0  0  0  0  0  0  0  0  0  0  0
    9.0872   -2.8739  -15.2467 H   0  0  0  0  0  0  0  0  0  0  0  0
    9.6151   -2.4045  -16.8983 H   0  0  0  0  0  0  0  0  0  0  0  0
    3.4088    3.6216  -18.3465 H   0  0  0  0  0  0  0  0  0  0  0  0
    6.1687    3.4934  -19.6614 H   0  0  0  0  0  0  0  0  0  0  0  0
    4.8868    1.6804  -17.6292 H   0  0  0  0  0  0  0  0  0  0  0  0
    3.4528    5.5644  -16.3837 H   0  0  0  0  0  0  0  0  0  0  0  0
    3.0673    5.9595  -17.9205 H   0  0  0  0  0  0  0  0  0  0  0  0
    3.4777    4.3131  -20.5797 H   0  0  0  0  0  0  0  0  0  0  0  0
  1  2  1  0  0  0  0
  1  3  2  0  0  0  0
  2  4  2  0  0  0  0
  3  5  1  0  0  0  0
  4  9  1  0  0  0  0
  5  9  2  0  0  0  0
  6 10  1  0  0  0  0
  6 11  2  0  0  0  0
  7 10  2  0  0  0  0
  7 12  1  0  0  0  0
  8 11  1  0  0  0  0
  8 12  2  0  0  0  0
  9 24  1  0  0  0  0
 10 23  1  0  0  0  0
 11 39  1  0  0  0  0
 12 40  1  0  0  0  0
 13 18  1  0  0  0  0
 13 31  1  0  0  0  0
 13 35  2  0  0  0  0
 14 19  1  0  0  0  0
 14 32  1  0  0  0  0
 14 36  2  0  0  0  0
 15 20  1  0  0  0  0
 15 33  1  0  0  0  0
 15 37  2  0  0  0  0
 16 20  1  0  0  0  0
 16 31  1  0  0  0  0
 17 32  1  0  0  0  0
 17 34  1  0  0  0  0
 18 20  1  0  0  0  0
 18 25  1  0  0  0  0
 19 29  1  0  0  0  0
 19 34  1  0  0  0  0
 21 25  1  0  0  0  0
 22 26  1  0  0  0  0
 23 30  1  0  0  0  0
 24 32  1  0  0  0  0
 26 27  1  0  0  0  0
 27 28  1  0  0  0  0
 28 31  1  0  0  0  0
 29 30  1  0  0  0  0
 29 38  1  0  0  0  0
 30 33  1  0  0  0  0
  1 41  1  0  0  0  0
  2 42  1  0  0  0  0
  3 43  1  0  0  0  0
  4 44  1  0  0  0  0
  5 45  1  0  0  0  0
  6 46  1  0  0  0  0
  7 47  1  0  0  0  0
  8 48  1  0  0  0  0
 16 49  1  0  0  0  0
 16 50  1  0  0  0  0
 17 51  1  0  0  0  0
 17 52  1  0  0  0  0
 18 53  1  0  0  0  0
 19 54  1  0  0  0  0
 20 55  1  0  0  0  0
 21 56  1  0  0  0  0
 21 57  1  0  0  0  0
 21 58  1  0  0  0  0
 22 59  1  0  0  0  0
 22 60  1  0  0  0  0
 22 61  1  0  0  0  0
 23 62  1  0  0  0  0
 23 63  1  0  0  0  0
 24 64  1  0  0  0  0
 24 65  1  0  0  0  0
 25 66  1  0  0  0  0
 25 67  1  0  0  0  0
 26 68  1  0  0  0  0
 26 69  1  0  0  0  0
 27 70  1  0  0  0  0
 27 71  1  0  0  0  0
 28 72  1  0  0  0  0
 28 73  1  0  0  0  0
 29 74  1  0  0  0  0
 30 75  1  0  0  0  0
 33 76  1  0  0  0  0
 34 77  1  0  0  0  0
 34 78  1  0  0  0  0
 38 79  1  0  0  0  0
M  CHG  1  34   1
M  END
> <OMEGA_C>
21nGQML9F0EdF7TBsYPtQBATFEEp2K7BUIufQGm1FkEHYa7BWfDtQOXlDkEy4aPBT+yfQHKsEUEH
ZqPB8hbYQEssrT+wEKvBMJKmQC5QmL5yq6PBgE/qQHIYgr9ueavBayvHQM/LDUF5IJ7Btf2wQOtq
hT8xA6bBF8n0QP4tpj4Xwa3BOCrDQATRqb8Ac6bBeR4KQQgvb75TxHDBS1e+QKy8wEBdgZLB32fd
QPgC/z/24YzBporuQEJt0L6eqIjBCyuNQI5D50Cwg4jBlI4FQYZdlj8KP3nByZacQAW8oUBc843B
dUjkQDDZcz8U6IPBSOf3QNiRZEDyAm/BosyqQHO0iMBD2ITBhUqTQLe5CUA5r6LBCo7HQGqGCEE6
VpLB6b8BQRPpCkDMwGbBZ+HOQC4hYcDoYX7Bh4z2QGv/WsDhkYbBbhMMQVpoHsBmu4HBggCJQGm0
g0DtY5bBRYaoQEdTQUBI+JnBMeECQSQOkb+fJoDB9VWvQCPL6UCyaZDB4gi0QL61CkBlwZDBJL9z
QIw1vUDkAYrBdGsSQTORA78wj1/BlqfeQEZlt0BwjpfB4K37QJ1bJ0DGqJDB59B2QEhtnEBFZ5/B
nzQNQTRHID9HgrLBJzy5QI4iJ8BZMKTBtRXGQN/6G0Enf7zB5poFQWILFUHOPLPBjouBQLuVGUGx
a7LBj/YFQTnGC0H04J/BwDeCQHrGEEFyAZ/BKfnfQLNSGEDW3azBc7WIQJp+CL8mwJ/BCSYAQZhL
579PlK3BmvHQQA9PcL+vzYrBB2QBQU27mL4/zo/BzjuaQOVP6kDxYIDBOsZqQKZPAEHm5InBnjIT
QfBBwj/MdYHBUJKqQK/XjkBWZofBjSHHQItQYj+UAn7BLcTyQJnmh0BIXGHBXBYJQWYzfUDw+XjB
N3faQNPoYEAcnnjBgNSOQKypisBrDH/Buu+hQHJBb8DCNozBiK+1QGYwqcB13YbB4+CLQPvXMUCf
rKnBZhRrQBX32z/ugZ/BHcroQNFGBkERqo/BH+u4QKbCFUEB1o3B3yDpQKkm5j+3u1zBMGsQQedd
D0CLF13BHuDDQCI/IMAlVnrB7Z/XQD6vgcCMo2/BylMCQROGjcBnhYfBw6XsQNxyQsDvb47BBWUR
QSjuN8Ca8nPBZNcZQcbjGcCxL4fBFypaQDLIZ0CwxZLBFGbFQGWTX0CmSp3BuGCcQJ8Y1z+0CI3B
XvtcQKAPskDHEYPBjU5EQIO0vkA9XY/BQpNeQOUEikBRo6TBFby/QAZ0GUHWu7PBeRroQHW0FUHi
D6/BnEqaQEi0F0G2ga3BiBjrQOs0EEFRKaTBqzudQO5OEkGIl6LB9ObaQE2/pD8lh6vBYLSjQCu/
X76VsaTBXIPmQN0EkL/atKvBua/FQE2MDkFF5p3B5w+yQEYtiz8+/6bB6RH1QOgkOT6L5K3BZ+q9
QDlnqb/IDqfBP3ADQUZJV79qv3fBB0/AQDITwUBchJLBi37aQF+f9j/bM43BqaziQBnmFb+ANYzB
R5ONQDMk50Aju4jBkDkDQR8cJz9ukn3BYYyeQBGOoUAvO47Bg5PeQLPgNT9+yoXBXn0UQS3Bvz/2
slrBYVONQJEufcBzBoXBVYuWQFKcEUAcIKTBztnIQGvBCEHrMJLBSfMBQT8d0z8sr2rB3I+5QAGD
YsAl6YDBLYLaQKfYasB9FYrBmBcCQaKtOsBqqIfB5/OKQGHrhECk+pbBWGuqQMRCRECOwZrBI5D7
QKfKv7/GSoXBdmqxQNLb6UDbKJDBo8OyQBIJCUDN2ZHB8nt3QOk7vEC5/YnB/50HQcgPsL+Om2bB
KnLgQLxtuEB0tpfBIzr5QOGbKUA9KI/Bdhl7QN3gnkAjyJ/BQSQOQWbxvj6cMbLBf1qwQFWrJMBW
t6TBUn69QH+rHUEDGLzB2GACQfUMF0GF2LPB17x2QP5/GkFWGrHBzQIFQdNCDUHdmKDBipGAQDcL
EUGSzp3BURPmQJ9uEkAfLq3BM56EQP9uvb5SHqHB4Hv6QF+4/L9RmK3BXeTCQKz/gL8m6Y3BU6zz
QAqDzr6XxpPBXLiYQKTt60BPeIDBx65qQI5v/0A0sYrBzGYRQSGwYj9AqIPBYZOsQCOWjUCi44fB
/fzBQKuxJj/ArYDB+KESQYXeDkDluU3BylUUQa/Q9j7F9FPBfMUjQYDu1T9u+mLBF4NrQKBfd8As
D33B1/WDQAddU8C9tIvBioKOQLL6n8DUy4fBeMKTQELcO0BIIavBxR9tQAX19T9Px6HBoqzqQO2K
BkEcBZDBUAy7QB+3FUHBVo3BED0CQSgGK0BtJnHBvZrlQPzRvT/EIGLBGm64QPW4H8BBSXzBzfrC
QKkohsBwd3TB3/HhQNp/l8BmRYvBLWjMQGqNUMBVcpHBmesJQTJKWMAQs4DBg74MQWvjPsCxpI7B
6MhdQD6GaUASh5PBa13IQO57YkC0bJ3BOOyZQJxZ0D/X7I7BCbBjQIzusEB57YLBslJGQFzCvECV
HI/BmOpiQDg6jUBMLqXBsn+9QPs0FkGtI7XBdJHlQMadFEEMBLDB1HyXQPaAE0GOOK/BhLLnQH9u
EEGV9aTBgIuZQJdVD0FNKqTBasvfQL7pmz9EHqrBqE6nQGKbib4+rqPBmljqQEBMmb9HV6rBbLDB
QA7gDUGLAp/BZoy2QIrtgz8W0qXBvp/5QLjC1D17aKzBADbBQDr0sL/08qXBCPX8QImjcr8KGXPB
UM6/QFK4wkC795LBED7gQGKJ8T85qozBZDDVQL09EL80JYnBdyCOQMVq5kDUeIjB96QEQVgj4j41
inzBngmhQEjeoUAP+43BYirgQBPRRz8UOYTBgbUfQeQGpD9ufmDBdi0RQfcUXMB3qIvBTDubQFBg
DkBpMKPBOMrDQFGiCUHKIZPBIhYKQVOMwz9xoWvBHo3+QESRjMAA+4fB6FnRQIvScMDse4jBdgnI
QM2bMsAbUH7BBvuNQKXLgkDkM5bBVgmvQA0cQ0C5AJrBGLjdQDocv7/5Y4DBaqKuQJ686kBMwJDB
uFi4QL/cCUA3CJHB6M56QOweu0AMpInB/l0EQSyyt7/hGWLBdk7fQGBeu0CphZjBar7/QNJAJUBA
hI7BbSh6QBRjmkBUC5/BvYoQQRJRkj5xlrDBUqGyQGUrKMBl3KPBm+27QG6AGUGcnL3BkVMBQe2b
FkE4k7TB36JxQEahFEHaKbPBlTIDQWUuD0E6CqHBBON4QCRADUF2n5/BqojrQILNDUAspqvBfc6H
QLoV0b5+TqDBgSz+QJ1vA8CmH6zBcWWzQKcsGr/KlovBabLpQEcfR7/AFpDB2mCcQGe+6kCgf4DB
1QVpQFwY/kCjponBOAESQYkeqT6+7YPBFGmxQFPyj0Cmm4fBn3bHQP31gj8FhnzBya0iQSQSBUD9
vlTBBVMfQTU1nj7lRljB0ZIsQavToz8+gWzBBrcgQb/WfMA9F4vBqkoOQcHPSMCB/5PB1E4RQU35
IsAvg4bBtHCYQM8dN0D2VKrB3392QHeR8D9Nw6DBgXTlQN3MCEGHmJDBgpmzQMGmFkHszo7BpqkK
QR5oIEBwpXPBttP6QN+JxD8Xa1/BkPz+QAsLqcAFJ43BcoICQdEflsBnVX/Be1zOQDFyTcA2DpDB
qoi5QMhQksDtRIjBE1GlQEN3J8CYhX3BQurSQIhTUMBGUG/BeopnQFGrYkCrRZLB8TLMQICSY0Ck
zJzBFV2fQEn61z9ctY3B8HRoQECGr0DVi4LBMyVJQKLQukCvr47BNJNiQKUeh0BeIaTB

> <OMEGA_E>
ss0SP8rnDj9M2Qc/

> <OMEGA_NBR>
     23226

$$$$
50214107
  -OEChem-04172616093D

 71 73  0     1  0  0  0  0  0999 V2000
    8.5855    7.4884  -18.4897 C   0  0  0  0  0  0  0  0  0  0  0  0
    8.1563    8.1843  -19.6301 C   0  0  0  0  0  0  0  0  0  0  0  0
    7.6404    6.9803  -17.5777 C   0  0  0  0  0  0  0  0  0  0  0  0
    5.8366    7.8443  -18.9586 C   0  0  0  0  0  0  0  0  0  0  0  0
    6.3687    0.7294  -21.5122 C   0  0  0  0  0  0  0  0  0  0  0  0
    4.6097   -0.7368  -20.6590 C   0  0  0  0  0  0  0  0  0  0  0  0
    6.6742   -1.6886  -21.5429 C   0  0  0  0  0  0  0  0  0  0  0  0
    6.7799    8.3360  -19.8685 C   0  0  0  0  0  0  0  0  0  0  0  0
    6.2497    7.2020  -17.7772 C   0  0  0  0  0  0  0  0  0  0  0  0
    5.0961    0.5582  -20.9239 C   0  0  0  0  0  0  0  0  0  0  0  0
    7.1620   -0.3933  -21.8081 C   0  0  0  0  0  0  0  0  0  0  0  0
    5.3942   -1.8588  -20.9774 C   0  0  0  0  0  0  0  0  0  0  0  0
    5.7009    8.0061  -21.9997 C   0  0  0  0  0  0  0  0  0  0  0  0
    6.3183    8.8811  -21.1295 C   0  0  0  0  0  0  0  0  0  0  0  0
    6.8504    1.5079  -18.0266 C   0  0  0  0  0  0  0  0  0  0  0  0
    5.3574    8.2684  -14.2743 C   0  0  0  0  0  0  0  0  0  0  0  0
    4.8306    8.8955  -15.5752 C   0  0  0  0  0  0  0  0  0  0  0  0
    6.3449    7.1237  -14.5587 C   0  0  0  0  0  0  0  0  0  0  0  0
    4.1661    7.8212  -16.4412 C   0  0  0  0  0  0  0  0  0  0  0  0
    5.7234    6.0614  -15.4957 C   0  0  0  0  0  0  0  0  0  0  0  0
    5.1620    6.6873  -16.8097 C   0  0  0  0  0  0  0  0  0  0  0  0
    5.3282    8.3564  -23.4169 C   0  0  0  0  0  0  0  0  0  0  0  0
    6.5431   10.3550  -21.4181 C   0  0  0  0  0  0  0  0  0  0  0  0
    7.1682    0.4880  -16.9376 C   0  0  0  0  0  0  0  0  0  0  0  0
    4.2861    1.7602  -20.5070 C   0  0  0  0  0  0  0  0  0  0  0  0
    5.0956    4.5240  -17.9733 C   0  0  0  0  0  0  0  0  0  0  0  0
    5.0800    2.5876  -19.4793 C   0  0  1  0  0  0  0  0  0  0  0  0
    4.2247    3.7165  -18.9209 C   0  0  2  0  0  0  0  0  0  0  0  0
    5.5193    1.7266  -18.3628 N   0  0  0  0  0  0  0  0  0  0  0  0
    4.3443    5.6906  -17.5174 N   0  3  0  0  0  0  0  0  0  0  0  0
    7.7656    1.9963  -18.6811 O   0  0  0  0  0  0  0  0  0  0  0  0
    3.7710    4.5504  -19.9878 O   0  0  0  0  0  0  0  0  0  0  0  0
    8.3933   -0.2271  -22.3412 F   0  0  0  0  0  0  0  0  0  0  0  0
    4.9194   -3.0999  -20.7323 F   0  0  0  0  0  0  0  0  0  0  0  0
    9.6406    7.3425  -18.3114 H   0  0  0  0  0  0  0  0  0  0  0  0
    8.8775    8.5996  -20.3185 H   0  0  0  0  0  0  0  0  0  0  0  0
    7.9746    6.4171  -16.7189 H   0  0  0  0  0  0  0  0  0  0  0  0
    4.7828    7.9591  -19.1654 H   0  0  0  0  0  0  0  0  0  0  0  0
    6.7322    1.7217  -21.7346 H   0  0  0  0  0  0  0  0  0  0  0  0
    3.6353   -0.8674  -20.2118 H   0  0  0  0  0  0  0  0  0  0  0  0
    7.2816   -2.5515  -21.7730 H   0  0  0  0  0  0  0  0  0  0  0  0
    5.4714    7.0124  -21.6442 H   0  0  0  0  0  0  0  0  0  0  0  0
    5.8693    9.0438  -13.6856 H   0  0  0  0  0  0  0  0  0  0  0  0
    4.5076    7.8724  -13.6989 H   0  0  0  0  0  0  0  0  0  0  0  0
    4.0935    9.6749  -15.3318 H   0  0  0  0  0  0  0  0  0  0  0  0
    5.6686    9.3436  -16.1293 H   0  0  0  0  0  0  0  0  0  0  0  0
    7.2455    7.5381  -15.0352 H   0  0  0  0  0  0  0  0  0  0  0  0
    6.6207    6.6445  -13.6077 H   0  0  0  0  0  0  0  0  0  0  0  0
    3.3210    7.3877  -15.8863 H   0  0  0  0  0  0  0  0  0  0  0  0
    3.7968    8.2868  -17.3668 H   0  0  0  0  0  0  0  0  0  0  0  0
    6.4970    5.3244  -15.7572 H   0  0  0  0  0  0  0  0  0  0  0  0
    4.9021    5.5582  -14.9644 H   0  0  0  0  0  0  0  0  0  0  0  0
    4.8507    7.4890  -23.8962 H   0  0  0  0  0  0  0  0  0  0  0  0
    4.6277    9.2046  -23.4128 H   0  0  0  0  0  0  0  0  0  0  0  0
    6.2341    8.6318  -23.9768 H   0  0  0  0  0  0  0  0  0  0  0  0
    6.1355   10.6014  -22.4097 H   0  0  0  0  0  0  0  0  0  0  0  0
    6.0354   10.9601  -20.6525 H   0  0  0  0  0  0  0  0  0  0  0  0
    7.6215   10.5716  -21.4010 H   0  0  0  0  0  0  0  0  0  0  0  0
    8.2552    0.3252  -16.8929 H   0  0  0  0  0  0  0  0  0  0  0  0
    6.8139    0.8656  -15.9671 H   0  0  0  0  0  0  0  0  0  0  0  0
    6.6644   -0.4625  -17.1674 H   0  0  0  0  0  0  0  0  0  0  0  0
    4.0716    2.3809  -21.3894 H   0  0  0  0  0  0  0  0  0  0  0  0
    3.3405    1.4256  -20.0554 H   0  0  0  0  0  0  0  0  0  0  0  0
    5.3744    3.9035  -17.1089 H   0  0  0  0  0  0  0  0  0  0  0  0
    6.0053    4.8525  -18.4974 H   0  0  0  0  0  0  0  0  0  0  0  0
    5.9597    3.0199  -19.9785 H   0  0  0  0  0  0  0  0  0  0  0  0
    3.3740    3.2927  -18.3671 H   0  0  0  0  0  0  0  0  0  0  0  0
    4.8162    1.2731  -17.8151 H   0  0  0  0  0  0  0  0  0  0  0  0
    3.6232    5.3786  -16.8988 H   0  0  0  0  0  0  0  0  0  0  0  0
    3.9319    6.1308  -18.3150 H   0  0  0  0  0  0  0  0  0  0  0  0
    3.2269    4.0424  -20.5780 H   0  0  0  0  0  0  0  0  0  0  0  0
  1  2  2  0  0  0  0
  1  3  1  0  0  0  0
  2  8  1  0  0  0  0
  3  9  2  0  0  0  0
  4  8  2  0  0  0  0
  4  9  1  0  0  0  0
  5 10  1  0  0  0  0
  5 11  2  0  0  0  0
  6 10  2  0  0  0  0
  6 12  1  0  0  0  0
  7 11  1  0  0  0  0
  7 12  2  0  0  0  0
  8 14  1  0  0  0  0
  9 21  1  0  0  0  0
 10 25  1  0  0  0  0
 11 33  1  0  0  0  0
 12 34  1  0  0  0  0
 13 14  2  0  0  0  0
 13 22  1  0  0  0  0
 14 23  1  0  0  0  0
 15 24  1  0  0  0  0
 15 29  1  0  0  0  0
 15 31  2  0  0  0  0
 16 17  1  0  0  0  0
 16 18  1  0  0  0  0
 17 19  1  0  0  0  0
 18 20  1  0  0  0  0
 19 21  1  0  0  0  0
 20 21  1  0  0  0  0
 21 30  1  0  0  0  0
 25 27  1  0  0  0  0
 26 28  1  0  0  0  0
 26 30  1  0  0  0  0
 27 28  1  0  0  0  0
 27 29  1  0  0  0  0
 28 32  1  0  0  0  0
  1 35  1  0  0  0  0
  2 36  1  0  0  0  0
  3 37  1  0  0  0  0
  4 38  1  0  0  0  0
  5 39  1  0  0  0  0
  6 40  1  0  0  0  0
  7 41  1  0  0  0  0
 13 42  1  0  0  0  0
 16 43  1  0  0  0  0
 16 44  1  0  0  0  0
 17 45  1  0  0  0  0
 17 46  1  0  0  0  0
 18 47  1  0  0  0  0
 18 48  1  0  0  0  0
 19 49  1  0  0  0  0
 19 50  1  0  0  0  0
 20 51  1  0  0  0  0
 20 52  1  0  0  0  0
 22 53  1  0  0  0  0
 22 54  1  0  0  0  0
 22 55  1  0  0  0  0
 23 56  1  0  0  0  0
 23 57  1  0  0  0  0
 23 58  1  0  0  0  0
 24 59  1  0  0  0  0
 24 60  1  0  0  0  0
 24 61  1  0  0  0  0
 25 62  1  0  0  0  0
 25 63  1  0  0  0  0
 26 64  1  0  0  0  0
 26 65  1  0  0  0  0
 27 66  1  0  0  0  0
 28 67  1  0  0  0  0
 29 68  1  0  0  0  0
 30 69  1  0  0  0  0
 30 70  1  0  0  0  0
 32 71  1  0  0  0  0
M  CHG  1  30   1
M  END
> <OMEGA_C>
Ol4JQfag70D96pPBXYACQczyAkGICp3B/n30QFde30Akn4zBasW6QKUE+0BHq5fBMMzLQDa3Oj//
GKzBSoKTQC6cPL+eRaXBZpPVQLEk2L/TV6zBJvXYQBhgBUG18p7Bav3HQAJ35kC9N47B5BKjQPji
Dj80ZKfBRC/lQFFeyb7sdq7BJJ2sQCXu7b/G0afBiG22QAIZAEFU/6/BpC/KQCEZDkFNCanB0Dbb
QNUCwT+FNpDB0m+rQDtLBEFbY2TBXpSaQBBUDkEWNHnBRgnLQPr040BP8GjB9FCFQCBH+kCMh4PB
UCa3QET3wUAw7nfBKi+lQHL+1UBPeobBlICqQOezBUHnVbvBNGHRQESuJUFZWKvB8mHlQP3Z+T5N
gIfB6CeJQKdN4T9QDqTBZg+jQH/EkEBdyY/BUI+iQOWaJUCy1ZvBsDCHQH7bbUDzXZfBLJ6wQFYB
3T8Y55LBegSLQJYZtkCmI4zBIoD4QOiG/z/TcpXBl1dxQDqdkUDt5p/B6UoGQa6NaL6yurLBqGud
QCllRsDZ26XBEUAaQZf16kDQfZLBRgoOQdmXCUFNjKLB/C//QH1YzUBiwIXBtAyZQKyw/kCwUpnB
1m3XQNxh3D994K3B2qhoQPMQXr/OsaHBlwLpQAZMI8AuL67BxhWvQNxl4EBPJ63BqtG7QIezEEEI
+FrBUT6QQADr+0B/LlvBIv6CQHbMGkEcT3XBHGW1QER/FUHdCIHBOdvnQFQ48UAukHDB79zTQJuf
1EA2uVnBqYtUQP9n7EBYLn7BBP9yQKuWBEFF74rBLufPQGNhqkBjHXzBHd6cQLLcsUBUbm/BEDmb
QCGm70BUK7/BUxaUQNdFE0FmTbvBIn7HQPwbCkFr0L/BAVbEQFCfKUEIR7PBOCLBQGBcL0FMOKXB
9eLzQDslKUFDNavBMhUEQe+Apj61JIfBcAvaQPOXXT9seX/Bm0LVQODJ7L7BVonB2UqCQAthGECG
HavBIctVQMZ5tj+McaDBt/qrQN/SeUDv3ojBISvAQE1Hm0C1+pPB6rW+QGFGQUAI1J/BEfBXQAW7
UkC775LBnB6aQKX1oj9GhY7BMOJnQE4drEDVMIfBMKR7QK8vxEAehZLB24VOQDBbgUC8n6TBHH4N
QQ284UD9b5DBSIwKQdvq+EDy65nBMLj3QP+M1kDrHYrB7DXIQEeI+EAq+ZbBkcfJQMCLMD/AkqzB
fGySQBL/O79HxqTBoDXSQPD83b+Ir6zBmGjrQBZdAkHwU53B9+PNQGgX40CmKY3BPxKiQDWMDD/3
T6fBH/HhQCjk5r4vL6/BQleqQGAB8L+SiKfBTy4DQfiQFkHiKq3BxQTkQP/RD0ESBKfBtjzaQDrh
wz8c8I/Bsl2oQDagBkG0VGXBUqyeQL9eEEF5ZXvBQjPEQMPO5ECsNmfB69aIQNtO/0CY14TBCSmw
QJnEw0C3vHbBuOOlQBh710Cbi4bBSlABQcYZJ0Hg57XBHxW2QBpQFkEv8anBeRrjQAUwBz/EAofB
SBGJQNEE4z8BCqTBpHSjQHkxkkCO9o/BVRujQPD2JkBw/ZvBaHeIQFzvcUAK4pfBaP+vQNzs4T/s
3JLB8h2MQIHruEDPyYzBhjP4QLIQ/z/WFZXB5rt5QMnWk0DAp6DBLhsEQXReoL72GbTBYhabQJS+
RsB9MKXBcGgdQdV32EAZ/43BKkIYQebvAEERrp7B1G78QOZDxEBv4YLBIjSoQFrH/0C4rpnB3ZnV
QL8X1j+ol67B3TZoQDV/V79tt6DB6rXkQPAPJ8A3uK7Bd7MSQcefD0G8n6vBDmq5QLuJEkHpklvB
owCKQOJmAkEzfl3BUVmJQFY8HkHScHnBNMK8QFGNFUHsdYHBTAfkQKLn7UCgMm3BHGTHQFMe1kCP
TFfB5pVVQGEY9UDrCIHBW8uBQBHqBkGjqYzBncXGQC0jqUBD5HjBwUuSQMiht0AUq2/BjBcRQZOt
KUHhlbnBmvrrQLtzIUGLBbzBoPv2QBg8NkEDfLLB0IC2QDsgIEEgP7HBhceiQEzcB0E2VavBFQ6o
QKmZH0E7V6PBZOECQZZGsz7obIbB/D3XQNkrbj+HwH7B/7DSQKap1r5yyojBVDyCQN+GGEB5KavB
UpRVQB8suz8nTqDBJtKpQETYfEC+24jB2PPBQIs6m0CJu5PBHMC/QIwBQED/CKDBaZNXQE5KWUC0
0JPBluyYQFnzqj9jg47B3eNlQBQnsECdXIjBu+aBQI+px0DfaZPBVgZYQDAHhEDOl6XBXz4HQWSU
80DzrJTB7YX9QJyPBUGERp3BVwHzQKV44UB+94zBram1QN65+kAtDpfBTHjJQDDcOj+BOa3Bj4KT
QJTDMb/I1aTB+1fTQEMa2L+ZwazBHMjQQETFB0E6VZ7ByfzFQCAP5kCP9o3BZBqiQMgAFj9j0KfB
vxniQCdv0L63qq/BRwGsQFhV6r+9W6fBY5KZQJDsIUFsVKPBk0y+QNnGFkEfKqbBJjXbQDeiwT+9
nJDBG8+sQC27AUGcK2LBjJ+aQMV5DEEcT3bBgUDNQAFO4EDmBGjB0zGFQPAy90AAPILB5865QDP8
vkCBgXfBvGSlQBAA1EDZ2YXBwvSIQEc+NUGlPKnBOBTWQOAAG0EAkrDBghXlQKs1Cz/lgofBMBGJ
QIte5z98haTBkIijQCgzkEBKwo/B1eCiQKcPJ0C0O5zBCcSHQCEpb0B3mJfBI7ewQBGZ3D8McJPB
lgaLQBoetECxdYvBpVf4QH0CCkB3s5TBY8FzQHNok0C+95/BovEDQXOaib67z7TBk9KdQMK1Q8CR
iqTBbFYYQV5d70AG+pPBR1QJQdHhDEF8DKPBph4AQcYL0EBwR4bBSJOTQOOb+kCaepjBR6vUQBEa
2z+lfK/BphZrQEx3Tb9enqDBMTHmQBrxI8DPqa7BhMeHQDBnHEHVdJzB1Nq8QMjkDUFATFjBuWGS
QGkV9UCzCFnBW+GCQDmZGEEQonHBnby0QIYwFEGmPX/B3C7pQEQ570CZtG/BWGzXQCLsz0CCS1nB
GThWQM8F6EDMaHvB4ABwQMx/A0F+X4nBdUfTQJwDqUDpsHzBUe2gQLHfrEBz9m7BngpXQKv9OkE2
XKXB4D+hQN/5QUF+FanBAPuBQLPcMEFelLHBGuPDQMyBJkGQb7XBcOT1QA+iIUFPyK7BjKrZQHXs
C0G6BLXBHcwDQXP9Dz/hyIXB8DLTQPT7Vz9VUoDBiZHbQCx38r553YnBmvyCQH3gG0ColavB789U
QHajvz+/+6DBW1KtQJHidUB/L4nBTCLAQDRNnEDV5pPBJBq/QMbDQkDPMKDBI2BYQFC6U0DrVZPB
lh+aQCJhnz9UQo/B7btqQC2kqEAaUYbBZBd4QLmowkDMhZHBawhRQO3jg0CH2qTBfXEMQX7K6EBs
HJHBI3IIQYPe/0DHh5rBHtP2QI372kDAoorBPkrEQOTE+kA5EJfBMHPHQBCxRz+j7KzBcy6VQLag
SL9EtKTBe6nUQKQyz7+C5q3BfXLmQC8kBEHWsp3BjPrLQPwm5UCzVY3BlJqhQDr4CT/HE6fBVSLh
QOr9l77gO7DBgZOuQP9L7r+KL6jBmhu2QJ0zD0E8LKzB+UjdQNxzEUGPMafBWSzcQNzgxj+PBpDB
ESOnQB84A0Gc0mLB9F+cQO+MDkHI/HfBMu7EQEoV4ECDlGbB5H+HQOOQ/UA81YPBOeexQKnHwEAk
LnfBVmulQIYe10B+XIbBU4aeQBUZIkHswrDBKFL8QMA4I0EBVKrBRXXnQCkuCz+kUYfBsSeHQH2a
2T9NHKPBc5qiQHEGkkCWx4/B5umhQGzuJECafZvBuviGQEAhb0DFRZfBhz+xQF1G4T8ccJLBaXeL
QLD4uEDBrYzBGMv4QI8LA0DMdJXB2pByQEeKkUD6BaDBbOkCQaY/d70lorXBz5WiQItYSMCI+KXB
srYcQXeY4UDS0o7BsqAVQZCWBUFUWZ/BCV79QEJvyEAGiIPB9LyjQKuPAEENfpnBXK7QQPNs5T9W
267BbnhwQNMleL81OaDBC0zoQOuQHMACfrDB5gGoQLfy/kDsyqzByQe3QKmkDkEwDFjB9lCJQEEW
+0AmZFvBlh2GQEjPG0HFz3TB6fa5QDjjFEHdG3/BEffjQFPO60C2dmzBspnJQAQOz0DIWlfBBWNT
QCxj8UDrRoDBeSOAQK49B0HbU4vBQsDJQIvNp0C2lnrBYg6VQC8FskA+TnDBkDiAQEmsHEHIUrTB
r82XQC2yLUH2W6rBJVOyQLy8KUE39LbBKHLwQHpkK0HpiLHBlun+QO3MLkGCu6PBOf8NQRdJHEG4
+avBSygFQSajyD6HJofB1LTcQDGRbD/5BX/BPXrXQOmL075NBInBkkp5QOeKE0D1+KnBYvhVQEmQ
qD+20J7BRhWqQJFVfkCUlojBl4DAQEnamkCu3ZPBLmu9QK7bPkCG7J/BCKVWQOurVUBa2pLBNl6b
QKLaqT8pvY3Bg/5jQEN9sEAKU4jBpLiBQJHZx0BHVJPBav5PQIsAgUB3tqTBvqvPQMbqB0EEH6DB
Cvb7QGV+CEEQH57BZs2zQKc7/UBfj5jBCnLwQBQP6kCXdI3BHnLMQELLPj8raqzBlIiSQMLrJr8z
g6XBjZnSQCWE179q/qzBSjcGQRmK/kDZopTBdA3EQACP6kDqBY/B0NKjQHxbHz86l6fB1ufjQBHN
0L4/Dq/BksepQHHt5r9TSqjBqB4mQTDE6UCTIorBN1kcQfZmA0G9AJHBHGTYQJE3rj8xw4/B9bys
QGXZ/0ASL2HBkzmdQD+ODEEIzXTBQjrNQG2z3UAd4GfBGtqGQCH++kBsXILBkOe6QIfvv0CoXHnB
gGilQImh10BigIbBkfw4QSJN9EBx94LBeUomQQsKGUHHrZPBLC/eQPN5nj75BofBhYGLQOtH7T8O
S6TBXaajQDoekkCYkI/BvpikQMUIKECvrZvBL5iJQL+vckATpJfBBQivQHsG3j90m5LBFAyLQEyh
t0BiBozBHKP3QMf03j8e3JTBSuJ9QIf6lEArVKDB8HMFQXUClL7vobPBxtGYQH2nQcD6dKbBMQbD
QJCWDkH7b6fBoacIQWDyD0F9zaPBzr+RQKEu/UDLCJrBMHb9QL+a2UDzlobBfn/ZQPGb3D9uE67B
sPVmQP5uPr/byqHBGaDkQIl2JMDQBK/BpNwfQUiRyUAZ44nBtOe7QNX9CkHEylXBqi+RQDk+8EAd
f1nB94+GQBv7GEFom2/Bq9S4QK4fFEEurHzBTwzqQJua7UBUHG7BTr/VQCleykBQzFnB++1WQGPG
60A8s3zBbsV2QKTwBkEbNonBAjzVQMkVrEBdhX/BGZyiQA5Gq0D+6XHBTZA9QUWy10AfwXzB1JRG
QfrA/kAs6IfBR380QWwNB0H81XrB+6o2QeO5GUFaeZDB9LwmQbEgG0HuaZzBHaIcQVLfJUGGFJDB
3A4AQVl/wTx7h4bBh8fTQLVcOT/Bmn7BIdLKQFayE79O9IjB5NGGQN4TIEBrT6vBaFpYQOtvxz+E
DaHBN7+qQKUbe0CHpYjBscnBQAqynEBnQ5PBGkPCQJQSQUDnO5/BwP1YQEjFWUCbypPB+cyWQIFJ
sD+uO47BNSNoQGjMrUB0B4fBCnF7QNNaxUAhcJLBjhJdQD2mhUDRc6XB

> <OMEGA_E>
0LiFPszfhT6kWoI+KOymPuA16j4=

> <OMEGA_NBR>
      5881

$$$$
50167944
  -OEChem-04172616093D

 67 69  0     1  0  0  0  0  0999 V2000
    7.4558    7.3190  -17.9430 C   0  0  0  0  0  0  0  0  0  0  0  0
    7.8999    8.0114  -19.1693 C   0  0  0  0  0  0  0  0  0  0  0  0
    4.5986   -0.6170  -20.8223 C   0  0  0  0  0  0  0  0  0  0  0  0
    6.4189    0.8285  -21.5765 C   0  0  0  0  0  0  0  0  0  0  0  0
    6.6659   -1.5947  -21.6704 C   0  0  0  0  0  0  0  0  0  0  0  0
    5.1230    0.6723  -21.0374 C   0  0  0  0  0  0  0  0  0  0  0  0
    5.3667   -1.7489  -21.1454 C   0  0  0  0  0  0  0  0  0  0  0  0
    7.1933   -0.3049  -21.8816 C   0  0  0  0  0  0  0  0  0  0  0  0
    6.0794    7.2934  -17.8306 C   0  0  0  0  0  0  0  0  0  0  0  0
    6.8373    8.4436  -19.9299 C   0  0  0  0  0  0  0  0  0  0  0  0
    6.7866    1.5000  -18.0020 C   0  0  0  0  0  0  0  0  0  0  0  0
    5.5261    8.1345  -14.1832 C   0  0  0  0  0  0  0  0  0  0  0  0
    4.8452    8.7939  -15.3919 C   0  0  0  0  0  0  0  0  0  0  0  0
    6.5780    7.1041  -14.6342 C   0  0  0  0  0  0  0  0  0  0  0  0
    4.1693    7.7193  -16.2460 C   0  0  0  0  0  0  0  0  0  0  0  0
    5.9711    6.0391  -15.5692 C   0  0  0  0  0  0  0  0  0  0  0  0
    5.1894    6.6710  -16.7577 C   0  0  0  0  0  0  0  0  0  0  0  0
    7.0388    0.4102  -16.9653 C   0  0  0  0  0  0  0  0  0  0  0  0
    5.9523   10.4136  -21.1745 C   0  0  0  0  0  0  0  0  0  0  0  0
    6.3934    8.2329  -22.3578 C   0  0  0  0  0  0  0  0  0  0  0  0
    4.3319    1.8818  -20.6066 C   0  0  0  0  0  0  0  0  0  0  0  0
    5.1258    4.5222  -17.9417 C   0  0  0  0  0  0  0  0  0  0  0  0
    6.8813    9.1793  -21.2440 C   0  0  0  0  0  0  0  0  0  0  0  0
    5.1085    2.6423  -19.5161 C   0  0  1  0  0  0  0  0  0  0  0  0
    4.2625    3.7677  -18.9373 C   0  0  2  0  0  0  0  0  0  0  0  0
    5.4812    1.7188  -18.4262 N   0  0  0  0  0  0  0  0  0  0  0  0
    4.3625    5.6502  -17.4149 N   0  3  0  0  0  0  0  0  0  0  0  0
    7.7391    2.0510  -18.5439 O   0  0  0  0  0  0  0  0  0  0  0  0
    3.8511    4.6515  -19.9808 O   0  0  0  0  0  0  0  0  0  0  0  0
    4.8608   -2.9842  -20.9355 F   0  0  0  0  0  0  0  0  0  0  0  0
    8.4463   -0.1547  -22.3670 F   0  0  0  0  0  0  0  0  0  0  0  0
    5.3309    8.0217  -19.2088 S   0  0  0  0  0  0  0  0  0  0  0  0
    8.1284    6.8837  -17.2188 H   0  0  0  0  0  0  0  0  0  0  0  0
    8.9354    8.1609  -19.4375 H   0  0  0  0  0  0  0  0  0  0  0  0
    3.6076   -0.7358  -20.4096 H   0  0  0  0  0  0  0  0  0  0  0  0
    6.8148    1.8175  -21.7543 H   0  0  0  0  0  0  0  0  0  0  0  0
    7.2576   -2.4656  -21.9109 H   0  0  0  0  0  0  0  0  0  0  0  0
    6.0193    8.9114  -13.5806 H   0  0  0  0  0  0  0  0  0  0  0  0
    4.7638    7.6268  -13.5741 H   0  0  0  0  0  0  0  0  0  0  0  0
    4.0895    9.5118  -15.0404 H   0  0  0  0  0  0  0  0  0  0  0  0
    5.5991    9.3210  -15.9950 H   0  0  0  0  0  0  0  0  0  0  0  0
    7.3845    7.6286  -15.1676 H   0  0  0  0  0  0  0  0  0  0  0  0
    6.9908    6.6043  -13.7455 H   0  0  0  0  0  0  0  0  0  0  0  0
    3.4068    7.2087  -15.6394 H   0  0  0  0  0  0  0  0  0  0  0  0
    3.6883    8.2007  -17.1103 H   0  0  0  0  0  0  0  0  0  0  0  0
    6.7843    5.4173  -15.9717 H   0  0  0  0  0  0  0  0  0  0  0  0
    5.2817    5.4095  -14.9875 H   0  0  0  0  0  0  0  0  0  0  0  0
    8.1221    0.2634  -16.8429 H   0  0  0  0  0  0  0  0  0  0  0  0
    6.5986    0.7107  -16.0031 H   0  0  0  0  0  0  0  0  0  0  0  0
    6.5773   -0.5299  -17.3020 H   0  0  0  0  0  0  0  0  0  0  0  0
    5.9839   10.9513  -22.1336 H   0  0  0  0  0  0  0  0  0  0  0  0
    4.9220   10.0859  -20.9717 H   0  0  0  0  0  0  0  0  0  0  0  0
    6.2900   11.0816  -20.3685 H   0  0  0  0  0  0  0  0  0  0  0  0
    6.4204    8.7581  -23.3239 H   0  0  0  0  0  0  0  0  0  0  0  0
    7.0485    7.3503  -22.4019 H   0  0  0  0  0  0  0  0  0  0  0  0
    5.3628    7.9142  -22.1426 H   0  0  0  0  0  0  0  0  0  0  0  0
    4.1726    2.5426  -21.4714 H   0  0  0  0  0  0  0  0  0  0  0  0
    3.3590    1.5600  -20.2068 H   0  0  0  0  0  0  0  0  0  0  0  0
    5.4110    3.8519  -17.1175 H   0  0  0  0  0  0  0  0  0  0  0  0
    6.0320    4.8917  -18.4441 H   0  0  0  0  0  0  0  0  0  0  0  0
    7.9096    9.5046  -21.4603 H   0  0  0  0  0  0  0  0  0  0  0  0
    6.0174    3.0714  -19.9631 H   0  0  0  0  0  0  0  0  0  0  0  0
    3.3906    3.3419  -18.4192 H   0  0  0  0  0  0  0  0  0  0  0  0
    4.7484    1.2193  -17.9640 H   0  0  0  0  0  0  0  0  0  0  0  0
    3.7038    5.3011  -16.7484 H   0  0  0  0  0  0  0  0  0  0  0  0
    3.8732    6.0811  -18.1731 H   0  0  0  0  0  0  0  0  0  0  0  0
    3.3112    4.1781  -20.6028 H   0  0  0  0  0  0  0  0  0  0  0  0
  1  2  1  0  0  0  0
  1  9  2  0  0  0  0
  2 10  2  0  0  0  0
  3  6  1  0  0  0  0
  3  7  2  0  0  0  0
  4  6  2  0  0  0  0
  4  8  1  0  0  0  0
  5  7  1  0  0  0  0
  5  8  2  0  0  0  0
  6 21  1  0  0  0  0
  7 30  1  0  0  0  0
  8 31  1  0  0  0  0
  9 17  1  0  0  0  0
  9 32  1  0  0  0  0
 10 23  1  0  0  0  0
 10 32  1  0  0  0  0
 11 18  1  0  0  0  0
 11 26  1  0  0  0  0
 11 28  2  0  0  0  0
 12 13  1  0  0  0  0
 12 14  1  0  0  0  0
 13 15  1  0  0  0  0
 14 16  1  0  0  0  0
 15 17  1  0  0  0  0
 16 17  1  0  0  0  0
 17 27  1  0  0  0  0
 19 23  1  0  0  0  0
 20 23  1  0  0  0  0
 21 24  1  0  0  0  0
 22 25  1  0  0  0  0
 22 27  1  0  0  0  0
 24 25  1  0  0  0  0
 24 26  1  0  0  0  0
 25 29  1  0  0  0  0
  1 33  1  0  0  0  0
  2 34  1  0  0  0  0
  3 35  1  0  0  0  0
  4 36  1  0  0  0  0
  5 37  1  0  0  0  0
 12 38  1  0  0  0  0
 12 39  1  0  0  0  0
 13 40  1  0  0  0  0
 13 41  1  0  0  0  0
 14 42  1  0  0  0  0
 14 43  1  0  0  0  0
 15 44  1  0  0  0  0
 15 45  1  0  0  0  0
 16 46  1  0  0  0  0
 16 47  1  0  0  0  0
 18 48  1  0  0  0  0
 18 49  1  0  0  0  0
 18 50  1  0  0  0  0
 19 51  1  0  0  0  0
 19 52  1  0  0  0  0
 19 53  1  0  0  0  0
 20 54  1  0  0  0  0
 20 55  1  0  0  0  0
 20 56  1  0  0  0  0
 21 57  1  0  0  0  0
 21 58  1  0  0  0  0
 22 59  1  0  0  0  0
 22 60  1  0  0  0  0
 23 61  1  0  0  0  0
 24 62  1  0  0  0  0
 25 63  1  0  0  0  0
 26 64  1  0  0  0  0
 27 65  1  0  0  0  0
 27 66  1  0  0  0  0
 29 67  1  0  0  0  0
M  CHG  1  27   1
M  END
> <OMEGA_C>
/pXuQKQ16kBQi4/BXsz8QK0uAEG3WpnBWSeTQGTzHb8ElKbBp2fNQC0YVD/BnKzBNU/VQIAezL/z
XK3BYu+jQEgeLD+eTKjB8LurQCXc37/LKanBjy/mQA8dnL6YDa/BVorCQM1j6UADpY7BccvaQM4Y
B0FwcJ/BryvZQAYAwD8rBJDBttWwQAsnAkGB7mLBiAubQOuzDEFIRXbBOX/SQApV40B7JWrB42qF
QK4E90DA94HBUBO/QE9AwUBfG3nBQg+mQDt51UDCD4bB0T3hQOgC0j7ouIfBg3m+QBKeJkFyZanB
mpbMQPK5A0G33LLBJJ+KQMje8D9S2qTB5QakQL21kECtiI/BkDPcQIjeEkHC86nBwHijQFYbKUD6
IJzBWWaIQMshcUCLf5fB62WvQJEB3D/HaJPB7JmLQBrOtEDEUYvBxKb3QFdEA0AAWpTBEnl2QMLY
lECb2J/BeYubQCD9PsD6e6fB2SMHQdJ1Hr6L77LBsZaqQO9YAEGGq5nBCA4CQQdH3EAywInBVvcO
QQiTAkHxf5vB7eJmQG9cPL/bRqPB2hLaQISi6D/hCK7BKD7oQE/MHcB7Sa/BHZ7AQCqVDkEJSlnB
yXCYQK0O9EBpL1nB69yCQHYwGEGWpXDB9iuzQOYiFUGK63/BrU3sQB8d9ECrrnLB2bTfQGdW00Bq
7VvBpwlaQOit5kDoOnrB1A1sQPg1A0HM4YjBYBnZQKZarUAbjH/BxwOpQNwarUC9zG/BAvQBQcXh
hj4+vobBrCfTQL3xNT9ABoDBSnnSQAelB79raorBwHu/QLY4L0GiEbHBUoGdQAVgIUETxqfBBkjJ
QD9OMUGp8qLBN3TNQCYhDEFil7rBEY3hQO8160AIN7PBCZyrQAdB/UD2I7HBt4WFQCG6IkB/xavB
cPlWQOKuxz+Rp6HB5SatQDWFdkCg8IjBJAbBQK+InEB5jZPBZhv9QAcTGEGnrqvBWo7AQOSRREBj
tJ/BHP9YQOHgVUCBWpPB6vKXQDgTnD9Zto/ByQptQMiiqUDK/IXByuF3QGiYwkB1YpHBHepTQCWz
hUBy0qTBesPrQIk27UBylJDBffb2QK7lAEG715rBE2bNQMp1Sj8TnKzBZS6TQL/FIr/fRabBqFnV
QIIy0b9t2KzBLOujQDLeJT9/R6jBkS7mQIxRs75y0a7BWcmrQEJG4796nKjBmkfAQAu95kDZoI/B
kIPTQH5dBEGgNKHBdVrZQD2Ntz+ZcZDBecSxQGcXA0Hib2TBhHqcQNg8DUHYGXjB2FPTQFfV5EBO
PmvBI/iFQJif90DtjYLB5iHAQFMZwkC95HnBGrKlQI7J1ECwbYbBPmThQPod2z5Af4fBO6b5QPe5
G0Hpu67BVvyqQNVQIEH0RKvBQ8mKQF3/7j8s+qTBZHOiQIBpjkBAFY/B5hTQQGDsD0FL2KvB4EKj
QIytJ0DQJJzBU7eHQKKkbkDab5fBqF+vQMgy2D/hfZPBe2OKQIoBs0Cx9YrBnXT3QLgsBEAqNZTB
IhV3QMBclEB3tp/BRiEHQQLhWb4QvbLB1aSbQEBXQMA+qabB/fWlQLcQ9UADRpvBxWwBQfFO5EBL
jIrBg5YLQYg2BUEEHJ3B+BPaQOE14z9MOa7BmPZmQAKBPr8t8aLB7k/oQEiyIMBHlK7BHYPBQMyu
D0F9/VrBDSaZQF9y9kBEn1rBaeWEQAc3GUHz4HLBuPq0QLwEFUFzB4HBRD/tQPs29UAf43PBmV3g
QKRs1UAV01zBv71aQMJ86EBmDHvBgWltQMU1A0GBkYnBB3LaQKzFrkCBPIDB/AarQGWWrUD/PHDB
uNoBQZ4z0j4li4XBDgTPQDhVOD9GXYDB3jzXQCOVEr/1IIrB5bb1QPHYI0GgerbBS3YAQXWhJ0FD
g6jBVgkKQTEmEEGzRq/Bjk6oQPnCKEH39bLB39aMQDfjF0FpkqnBlHSxQBrxK0Ea3aTBA3qGQL/N
IUCa7avBCpRWQM1hxz8+7aHBct+pQCK2cEAJe4jBzGjAQPStmUC6vpLBROXIQD03BEFIKrLBc0DA
QCEiREAvpZ/BZatWQEt9UkD0mZPBYvSXQGRMmz+vlo/BcCltQEOfqEDnPIXBv6ZyQMaNv0Dn9JDB
FbRVQL+vhUD45aTBWL7rQExu7UCKeZDByjn3QCjwAEHTuZrBrMaSQKZsIb+4TqbBj27NQK53ST9Q
hazBrifVQFLE0b8SpqzBhcGjQFl1Jj9dS6jBLV2rQLAI478qiqjBkDjmQAjxtr6dm67BuDjAQJIU
50Ask4/BnPLTQIBjBEFkJaHBZm/ZQMw0wD9FGpDBfGWwQAafA0FJkmTBNNCaQPloDUG/VXjBG6bS
QIBy5kBhNmvBciiFQEpb90C4ooLBmifAQDoLw0BIuHnBEpilQGj71EC3Z4bBefLhQDXZ3T5LqYfB
Gtj6QLFmG0FZr67BKVasQOWeIEHCM6vBr7uKQMSx7z8MBqXBYC2jQJDLjkAdN4/B3+TQQOTvD0Ht
yavBQ1yjQLD1J0DaNZzB/P2HQDrmbkBpcpfB2J+vQLHO2D/9kJPBwMGKQAjJskBR6orBGLD3QPEW
BEDpcZTBLVp2QDpOlEAitJ/BRv2aQC0GQMAWl6bBQEUHQUJrZr70YbLBEy6mQPZH9UAnRJvBb1YB
QdqD5EBAaIrBnMALQWg5BUGV8pzBe81lQMfrO7+bEqPBekDaQENx4j/sJa7BqBvoQKMoIcDuS67B
nZi/QE5vEEFVM1vBcgqYQFcs90AyulrBFK+CQI0pGUEzOnPBXQuzQFNkFUEnJoHBmD/sQOwv90A3
7HPBU/jfQIaR10AhuFzB43ZZQATp50A2OXvBH5BrQPjTAkHMsonBDtXaQCUFsEBYE4DBiU6rQMph
rkBaAXDBfVUCQXsnnz6VmIbBHmrTQIlBPT99B4DBlePTQPFlBb+MRIrBlSz3QMiHI0GWb7bBOD8B
QXpDJ0HIeKjBlXIKQeucD0G1N6/BHuKpQEIVKUHQ5LLBTe+NQGFvGEEkfqnBuDazQF8yLEHozKTB
WXqGQIAJIkDP/KvBq2tWQG6lyD8T9qHB+6GrQOR3cUAlsYjBupDAQJ21mkDvCJPB1E/JQMFHBEGE
GrLBfEzAQBhlREDAvZ/BKtBXQKWyUkChe5PBi26YQIDAlT96/I/B1gJvQFfQp0C+JIXBDS5yQA81
v0CN0ZDBu3FUQP95hUDFzqTBcs7oQFVD7ECHwZDBNlfzQDY/AkHih5rBT0CSQJbyIr/uPabBh8vL
QISjTj9zt6zBzwHUQNXEzr9CQa3B78GiQLjrJj+bKKjBx8GqQJRu4r9i26jB/YPkQGr4pr6jLa/B
oVO9QOBB60DC247BgDrPQNnUCUGxnZ/BT1baQK8UwT/MQpDB5lizQGPyAUGZ+GLBYhaaQIIaDEH7
cHXBXtzUQJbe40BOXmvBh5qDQI3l9ECVGIHBnLzAQKh5wUBV6HnBgVqkQDEq1UDY8oXBxaPjQIJy
0z4FFojBkL29QFuwBkFIxrLB8BT1QEDIIUFF6KzBIrqJQLmJ7j+dqaTBJOajQI+SkEBzgY/BuErL
QJBXFkFS46nBM1ijQBWAKEBuIJzB/3GIQAmgcECLdpfB2TSwQLh+2z9ucJPBIYqKQMuLs0BQAovB
sTL4QOa0BUDonZTBF8B2QMywlEAvzJ/BUL2aQABEQMCSEqfBeRAGQYz5M76DWrPBd3WhQB3RAkEr
4ZjBQCoAQWcb3UCIr4vBg8YJQVzfBEGwX53BhqhlQGASQb8exaLBMC7YQFbV5T9qT67BWvnmQPAi
H8DhJq/B/sHDQGWlDkFI9lnBDPmcQEL+8kDfVFjBvBeCQM85F0GT827BbySwQOveFEGl/X/B3Snt
QFt69UDPkHTB2CTkQA//00CwpF3BQslbQGhR40DOe3fBYxJiQPPLAUFlm4fBl4/aQNvKrkAesIDB
p82sQFw7rEAtB3DBxzkDQXvBlT5cNYfBqaLVQGLwMD9DU4DBKYfVQKnaCL9z1IrBcpy6QGxlD0HM
YbrBSxjWQHov9EDwnLPBvtSeQCHG/kBkrbDBrIPwQLeiKkE5bbTBD/r9QHQDLUHhgabB+VgHQfTj
FUHI8q3BXwOEQJ8YIUBnmKvBH8VVQC67xT8cRqHBdiauQH3HdUCHEInB/jnAQHCinUA1lZPBaACy
QLpvIkHs8KjBsQnAQKjzQ0Bn5Z/ByPlYQMd5VUDNVJPBoDKZQOH/mj8enI/BC39tQIxip0C5gYXB
+9tyQPjGwECq55DBqVRUQIOZhUCTzKTBbIXpQNhq7EBouZDBvFT0QCJdAkEYeJrBg9/MQOFPUj8C
sKzBT9CSQFviIL88m6bBYtLUQDLvzL9MiK3B8omjQF2dKT++TKjBiKblQFTJnr4+L6/BG1GrQG8Y
4b+uTKnBrvW9QDsz60BM7o7BuFPQQFHKCUHUqJ/BKAjaQNuSuD8Uk5DBPRWzQCeDAkENVGPBL8mZ
QL5qDEEU7HXBZuDUQE8c5UDwjGvBf7aDQBIv9UCCTIHBJuzAQFg1wkBl3XnBvbSkQOlh1UDuBIbB
MnDiQAe72T4SuIfBgN6+QKezBkEW07LBioj2QDWfIUF+8azBA06KQJRx7z9cxaTBnhKkQPOZkEB4
go/BR5fMQFRQFkGi7qnBHHejQKCaKEAyHJzBl2aIQABacEAGaJfB7OqvQK8l2z/4bJPBfNeKQIya
s0AAAYvBKwv4QJtLBEAQcpTB8YR1QP5tlECOtZ/BBdYGQVcbIb4sG7PBqgKbQPe1P8BCxqfBE16i
QFGZAkHWDJnBSnUAQeVa3UCBmYvBcFAKQcAfBUF+N53BdHHZQCPc5z/EH67BbG5mQLP5P7+NPqPB
4LznQHwbHsDBgq/BOkHDQMxYD0FMZ1rB/MWcQF0j9EA2pljBj4uBQFN6F0Gfjm/BNcWvQC81FUGQ
PoDBDf/sQMSy9kCT4HTB+FfkQL2y1UD2vl3B4dBbQAe240DX5HfBZJRiQKTHAUFD4YfBRNPaQPdT
r0C1kYDBFuysQHQ+rUDr3m/BFXICQcuYyj5p7oXBNLTQQKV2Nz/Ze4DBHsXXQF3gEb8sW4rBoOG7
QHNrD0G7brrBYhDXQBYO9EBUqLPBstufQKr//kAovLDB9hnyQCx9KkG2drTBmoz/QE3TLEGxiqbB
9/8HQVCmFUGo+q3BRdaEQIf/IUBprKvBPbBWQPrqxT9GfKHBGoOuQB0KdkDxEInB4kfAQMaenUCU
pZPBRHOzQN58IkHG/ajBs1HAQOVaREBbxJ/B+HRZQNvGVEADM5PB9p+YQCZ6oD+OWI/B3nNuQBCA
p0BYdIXBeRZzQJ21wEAO4pDBN99SQAkzhUDVqKTBc2LuQPXp6kAInI/B4z38QLShAEEycJnBRXvM
QHiJUD9gjKzBGmiSQP2NIb9waabBAWbUQC7ezb/vTa3BiCOjQEGJKD+oKKjB6DjlQMASo74XBa/B
Oe6qQAKk4b/tCanBnV3CQFeg6UBhrI7BzgXaQDR0B0Gqep/BVELZQATSvT/oDpDBfcmvQEinAUE5
m2LBh4maQJ9sDEHI9XXBqs3RQAi14kCy02nBPT+FQBC/9kAZ84HBKBu/QF34wECSMHnBaxOmQKFy
1UB+FIbB0MjhQDIwxz7e04fBzFm8QLjGJkFvWqnBACDMQMs4BEFb87LBDvOJQNwW7z/9qKTBtKCj
QGEPkEDIRo/BwPvaQABhE0HK9qnBxSmjQCVOKEALApzBsGWIQEbxcEB+bpfBCU2vQHzk2j88R5PB
15KLQCXstEDRXovBKYb3QKwDAkCsgZTB1DB5QOEklUAf05/B/ZwGQRfdK74n9bLBi86aQMzkP8AH
VafBWQ+qQHNvAEG2qpnB+hACQZUy3UAX1onBLqYOQbglA0Fmn5vBVxXZQJXc5j9pAa7BCJFlQAcH
QL8oD6PBoEnnQP+pHsBVQq/BBCm/QA75DUE9qVjBbyuXQBer8kCCK1nBMT6CQB/fF0GZYHDB3uyy
QGzvFEHaX3/BAMfrQIzi80BKCHLB6KjeQIlZ0kBWoVvBFHhZQA8h5kCsYnrBuRNsQME3A0FN2YjB
FYbZQLSvrUDysX/BLTCpQOgsrECtKHDBbD8CQdPPcz4HAYfBE0bUQCkpMD/YD4DB/7jSQAteDL+b
eorB+wK9QJx+L0H1/rDB1Z6bQKYiIUE1w6fBBKDGQC9/MUEy3aLBBbTMQAPEDEGPpLrB77PhQMWt
7EB5WbPB7lurQBl4/UAORrHB8Y2EQGHEIUBGkqvBRehVQFXrxT++YKHBejarQGE0dUA0kIjBUH7B
QEzvmkDnDpPBSKj7QFX8GEF9p6vB/DPAQFJIQ0DNqZ/BKLlXQNCAVkCPepPB/PGXQHpYnD82dI/B
JHhrQGOKqkByIYbBbqN5QHyYwkCSl5HBUB9XQIFnhkCg7aTBcSPqQF3M7UCJZ5HBOof4QNqSBkHZ
eJnBwvqLQC4GWL8yP6jBL4TKQBT+Fz8FXKrB5bLMQNjV2b+P0LDB4EqgQFNczT7MiabBLx+iQFUQ
8r+vZ63But3gQHWn6r5fQa/B0mfAQOOO9ECCKo7BK/zYQLMDFUGNJZzBPjLaQHIEvj86D47B6SG1
QNo//kCHPGDB2nqZQBnzCkFa4XDB1ULXQGo14kCqPWvBH4uEQBC+9UBiO4DBZsXCQBiJwkDUO3vB
6EmmQB+Y2UDXLIbBktjiQLiiUT9AP4PBBT7lQODtHkE5aK/B9ZD/QIg+N0GyiKDBvAyHQC7axj+y
qqHBi6OnQIQZl0BRWJHBbFHcQB9tJ0EECaTBuhWjQOsBIEBHq5rBQoiKQPpVckCwzZfBaQ+wQIl5
5T97yJDBmpGNQOFzuUDsb4zBGHT4QHCV6j81qZPBv597QLAKj0CKV6HBVHeOQPTrRMD8I6/BN8sE
QcQxhr6ykrLBDkuqQCPvD0EiGJXBfBP+QAZU1ECHXI7BtiAMQea0BkGs5ZzBBN9WQMZofr8XmaXB
iKTZQCSGxz9Pf6nB69PdQMioIMC7nrTBcy7FQHT1CkFK+VXBy2KgQI7D6UAXYFbBREaAQKv9E0H7
j2jBOsqtQEURFkEG/nnBcL7tQEsH90AL53PBFLDoQJv+z0Dw9F7BIR9eQPKn4EBWV3fBIc1jQAbT
A0GCNIbBbm3cQAwMsUAgw4HBALyuQFPKq0BJSXLBScoCQQ0jPj8H9YHBooDUQEIttj/rp3nBRKnU
QG5RQL7vLoPBSo7nQEJ0LEEoArXBZMQBQQ33FUH3ba/BLwDLQK1NFEFZ5LHB2sMAQfpzREExVKbB
08z3QIeuPUHDk5jBtj8PQeLeLkGUMqDBNKJxQEchCUDsMKjBbuhaQNNtkT/loZzBW9W3QL/AhEAD
BYvBpLG/QGZipUB+r5bBypq9QIEFMEGTJqTB78W/QPCLMUDYRZ/BUdNcQEeLYUCm8ZLBuvuYQPIe
wj9Qs4vBH5JwQAfNq0C6iIfBJkh8QNvXyEClS5LBnHNXQIsDekCodqXB

> <OMEGA_E>
4EQBPgCFQz6wwUY++KxgPrgWYz6ARvk9xEUEPw==

> <OMEGA_NBR>
     13614

$$$$
50167943
  -OEChem-04172616093D

 67 69  0     1  0  0  0  0  0999 V2000
    5.8462    7.9730  -19.0402 C   0  0  0  0  0  0  0  0  0  0  0  0
    4.6146   -0.6402  -20.7816 C   0  0  0  0  0  0  0  0  0  0  0  0
    6.3908    0.8301  -21.5917 C   0  0  0  0  0  0  0  0  0  0  0  0
    6.6849   -1.5888  -21.6549 C   0  0  0  0  0  0  0  0  0  0  0  0
    7.6549    7.1997  -17.7381 C   0  0  0  0  0  0  0  0  0  0  0  0
    6.2789    7.2886  -17.8123 C   0  0  0  0  0  0  0  0  0  0  0  0
    5.1096    0.6559  -21.0231 C   0  0  0  0  0  0  0  0  0  0  0  0
    5.3985   -1.7611  -21.1048 C   0  0  0  0  0  0  0  0  0  0  0  0
    7.1814   -0.2922  -21.8968 C   0  0  0  0  0  0  0  0  0  0  0  0
    6.8877    8.4326  -19.8046 C   0  0  0  0  0  0  0  0  0  0  0  0
    6.7949    1.4352  -18.0524 C   0  0  0  0  0  0  0  0  0  0  0  0
    5.3765    8.1138  -14.1892 C   0  0  0  0  0  0  0  0  0  0  0  0
    4.8459    8.8284  -15.4415 C   0  0  0  0  0  0  0  0  0  0  0  0
    6.4335    7.0619  -14.5657 C   0  0  0  0  0  0  0  0  0  0  0  0
    4.2272    7.8108  -16.4023 C   0  0  0  0  0  0  0  0  0  0  0  0
    5.8732    6.0388  -15.5715 C   0  0  0  0  0  0  0  0  0  0  0  0
    5.2421    6.7170  -16.8276 C   0  0  0  0  0  0  0  0  0  0  0  0
    7.0663    0.4318  -16.9349 C   0  0  0  0  0  0  0  0  0  0  0  0
    5.6431   10.2963  -20.9575 C   0  0  0  0  0  0  0  0  0  0  0  0
    6.2467    8.1888  -22.1987 C   0  0  0  0  0  0  0  0  0  0  0  0
    4.3081    1.8543  -20.5830 C   0  0  0  0  0  0  0  0  0  0  0  0
    5.1342    4.5376  -17.9665 C   0  0  0  0  0  0  0  0  0  0  0  0
    6.7020    9.1798  -21.1106 C   0  0  0  0  0  0  0  0  0  0  0  0
    5.0896    2.6202  -19.4989 C   0  0  1  0  0  0  0  0  0  0  0  0
    4.2508    3.7530  -18.9229 C   0  0  2  0  0  0  0  0  0  0  0  0
    5.4771    1.7034  -18.4066 N   0  0  0  0  0  0  0  0  0  0  0  0
    4.4135    5.7347  -17.5410 N   0  3  0  0  0  0  0  0  0  0  0  0
    7.7301    2.0561  -18.5467 O   0  0  0  0  0  0  0  0  0  0  0  0
    3.8090    4.6098  -19.9769 O   0  0  0  0  0  0  0  0  0  0  0  0
    4.9189   -3.0031  -20.8741 F   0  0  0  0  0  0  0  0  0  0  0  0
    8.4170   -0.1251  -22.4197 F   0  0  0  0  0  0  0  0  0  0  0  0
    8.4216    7.9907  -19.0978 S   0  0  0  0  0  0  0  0  0  0  0  0
    4.8092    8.1012  -19.3132 H   0  0  0  0  0  0  0  0  0  0  0  0
    3.6341   -0.7726  -20.3487 H   0  0  0  0  0  0  0  0  0  0  0  0
    6.7628    1.8240  -21.7920 H   0  0  0  0  0  0  0  0  0  0  0  0
    7.2906   -2.4512  -21.8912 H   0  0  0  0  0  0  0  0  0  0  0  0
    8.1903    6.7045  -16.9416 H   0  0  0  0  0  0  0  0  0  0  0  0
    5.8304    8.8558  -13.5159 H   0  0  0  0  0  0  0  0  0  0  0  0
    4.5400    7.6166  -13.6764 H   0  0  0  0  0  0  0  0  0  0  0  0
    4.0813    9.5619  -15.1459 H   0  0  0  0  0  0  0  0  0  0  0  0
    5.6759    9.3464  -15.9444 H   0  0  0  0  0  0  0  0  0  0  0  0
    7.2993    7.5694  -15.0160 H   0  0  0  0  0  0  0  0  0  0  0  0
    6.7515    6.5321  -13.6557 H   0  0  0  0  0  0  0  0  0  0  0  0
    3.3729    7.3279  -15.9054 H   0  0  0  0  0  0  0  0  0  0  0  0
    3.8777    8.3391  -17.3015 H   0  0  0  0  0  0  0  0  0  0  0  0
    6.6924    5.3821  -15.8997 H   0  0  0  0  0  0  0  0  0  0  0  0
    5.1003    5.4381  -15.0697 H   0  0  0  0  0  0  0  0  0  0  0  0
    8.1441    0.4079  -16.7167 H   0  0  0  0  0  0  0  0  0  0  0  0
    6.5159    0.7321  -16.0311 H   0  0  0  0  0  0  0  0  0  0  0  0
    6.7341   -0.5679  -17.2513 H   0  0  0  0  0  0  0  0  0  0  0  0
    5.5250   10.8242  -21.9153 H   0  0  0  0  0  0  0  0  0  0  0  0
    4.6812    9.8513  -20.6631 H   0  0  0  0  0  0  0  0  0  0  0  0
    5.9698   11.0077  -20.1847 H   0  0  0  0  0  0  0  0  0  0  0  0
    6.1100    8.7247  -23.1495 H   0  0  0  0  0  0  0  0  0  0  0  0
    7.0101    7.4069  -22.3251 H   0  0  0  0  0  0  0  0  0  0  0  0
    5.2947    7.7266  -21.8984 H   0  0  0  0  0  0  0  0  0  0  0  0
    4.1320    2.5150  -21.4447 H   0  0  0  0  0  0  0  0  0  0  0  0
    3.3433    1.5206  -20.1736 H   0  0  0  0  0  0  0  0  0  0  0  0
    5.3731    3.9177  -17.0898 H   0  0  0  0  0  0  0  0  0  0  0  0
    6.0654    4.8271  -18.4755 H   0  0  0  0  0  0  0  0  0  0  0  0
    7.6584    9.6315  -21.4127 H   0  0  0  0  0  0  0  0  0  0  0  0
    5.9949    3.0468  -19.9556 H   0  0  0  0  0  0  0  0  0  0  0  0
    3.3948    3.3340  -18.3737 H   0  0  0  0  0  0  0  0  0  0  0  0
    4.7494    1.2495  -17.8923 H   0  0  0  0  0  0  0  0  0  0  0  0
    3.6693    5.4535  -16.9351 H   0  0  0  0  0  0  0  0  0  0  0  0
    4.0330    6.1767  -18.3533 H   0  0  0  0  0  0  0  0  0  0  0  0
    3.2569    4.1189  -20.5743 H   0  0  0  0  0  0  0  0  0  0  0  0
  1  6  1  0  0  0  0
  1 10  2  0  0  0  0
  2  7  1  0  0  0  0
  2  8  2  0  0  0  0
  3  7  2  0  0  0  0
  3  9  1  0  0  0  0
  4  8  1  0  0  0  0
  4  9  2  0  0  0  0
  5  6  2  0  0  0  0
  5 32  1  0  0  0  0
  6 17  1  0  0  0  0
  7 21  1  0  0  0  0
  8 30  1  0  0  0  0
  9 31  1  0  0  0  0
 10 23  1  0  0  0  0
 10 32  1  0  0  0  0
 11 18  1  0  0  0  0
 11 26  1  0  0  0  0
 11 28  2  0  0  0  0
 12 13  1  0  0  0  0
 12 14  1  0  0  0  0
 13 15  1  0  0  0  0
 14 16  1  0  0  0  0
 15 17  1  0  0  0  0
 16 17  1  0  0  0  0
 17 27  1  0  0  0  0
 19 23  1  0  0  0  0
 20 23  1  0  0  0  0
 21 24  1  0  0  0  0
 22 25  1  0  0  0  0
 22 27  1  0  0  0  0
 24 25  1  0  0  0  0
 24 26  1  0  0  0  0
 25 29  1  0  0  0  0
  1 33  1  0  0  0  0
  2 34  1  0  0  0  0
  3 35  1  0  0  0  0
  4 36  1  0  0  0  0
  5 37  1  0  0  0  0
 12 38  1  0  0  0  0
 12 39  1  0  0  0  0
 13 40  1  0  0  0  0
 13 41  1  0  0  0  0
 14 42  1  0  0  0  0
 14 43  1  0  0  0  0
 15 44  1  0  0  0  0
 15 45  1  0  0  0  0
 16 46  1  0  0  0  0
 16 47  1  0  0  0  0
 18 48  1  0  0  0  0
 18 49  1  0  0  0  0
 18 50  1  0  0  0  0
 19 51  1  0  0  0  0
 19 52  1  0  0  0  0
 19 53  1  0  0  0  0
 20 54  1  0  0  0  0
 20 55  1  0  0  0  0
 20 56  1  0  0  0  0
 21 57  1  0  0  0  0
 21 58  1  0  0  0  0
 22 59  1  0  0  0  0
 22 60  1  0  0  0  0
 23 61  1  0  0  0  0
 24 62  1  0  0  0  0
 25 63  1  0  0  0  0
 26 64  1  0  0  0  0
 27 65  1  0  0  0  0
 27 66  1  0  0  0  0
 29 67  1  0  0  0  0
M  CHG  1  27   1
M  END
> <OMEGA_C>
DBS7QC8j/0BPUpjB7qqTQO3hI7/DQKbBOoHMQDKAVD/iu6zB7+rVQEVdy79PPa3BK/X0QLxj5kCk
543Ba+zIQHg86UB/f47BM4KjQBfmJz9jL6jBWsCsQP5q4b+n1qjBDc7lQLKclb6wLK/BI2jcQOzr
BkG5b57BFnDZQAu0tz88a5DBXgysQPLRAUEhB2PB5hGbQFJBDUFlEHfBT9/NQLn64UA3DWnBgEWH
QBHy+UDYN4PB9vC7QNM9wUD1JHnBer+nQHPx1kDznobB9h7iQOAY3T6meofBjpS0QJ29JEHrqKfB
zeTHQCwFA0HzlrHBTtyJQGlZ7T/9qaTBvkukQNszkUB2u4/B9HbWQEngEkGT4qjBHd6iQCSxJ0DU
/ZvBpAaIQKgxcEARYpfBUUSvQK8J2j/OQJPBajuNQGaCt0DxU4zB11z3QIqWA0CPX5TBVMZzQHeD
k0DH0J/BoGedQI4yQMA//qbB6qsGQdIiAL6CW7PB1L4GQbez/0BFyJjBmuSZQFGeAUFugZrB25Ro
QFHIRb8hyqLBlmjYQJ156T/+Va7BbEzpQFDgHMBFIa/BpAsDQeWK1kBPiIfBnpK6QEuxDUEmQVjB
cEeRQMi680Ca0lrBQZqCQJj9GEFrVXLBm6C1QPOKFUFgHH/BCpTpQMM48kCCQXDBagzYQOMG0UCV
fVrBpt1XQAt+6kBdfH7Bmyt4QBRtBUGGaYrB2SfWQF86rEAhZX7B3zWjQMsErkBUHXHBcE4CQV3U
0D65u4XBRoLQQHZrOz+YP4DBXX3XQJ5jEb+lAorBfsywQL4vLUGCUq/BZsyVQOqeHUEDTqXBjwi/
QLgfMEFYeqHBNIXDQHKYC0E+MrnBqFLgQLkF7UDFmbLBj26pQCdA90DVL6/BlDmEQCz1IEC2jqvB
2vdVQE2jwj9zY6HBEvCrQCu7ekDit4jBIxjCQO53mkDGzZPBgBH1QNAaGkE7TavB99W/QHr+QkAM
pZ/BXkRZQEtgVUA9/ZLBaPuXQM/wnz+AI4/BEdZqQF6DrkAAe4fBnQ6BQHCnxUCS05LBonFQQEnO
g0AZmKTBvoK7QADY/0DfKZjBLcPMQOBCTT9sdKzB3CiTQDUhKL99PKbBWsDVQDAxz7+n5azB/5L1
QFej50DVv43BQoDJQGbB6UDsZ47B3GWjQFjYIj+wF6jBGxHmQFuXpr6+va7BwzasQCUu5L8Xs6jB
8JzcQJrUB0GpKZ7Bgz3ZQPt8vz8p/o/BPferQKB5AUHrAGPBUBybQL4LDUH5/HbBy7vNQNc44UB1
CmnBaXCHQC+v+UCjPIPB9/27QHbKwECYV3nBpRmoQPfo1kDIr4bBnATiQCiI5T59ZYfBvAayQBKT
JEGdg6fBABzKQDyIA0FnYbHBdcWJQKdz6z8hqKTBQ6CkQPtkkUCX64/BdRnWQL+/E0FlmKjBGcmi
QFI3J0DxBpzBDQSIQPzNb0AgbJfBMjqvQLEa2j8mQJPBEL+NQBTct0Brk4zBK1/3QGldAkD6jZTB
7ZpyQCbmkkD33p/B9hEHQU3SKb7LnLLBg4qcQLZfQcAO5KbBUfAGQQ0bAUGcfJjBI06aQH6lAUHr
ZZrBZPDYQEKF5T84CK7BLf5mQN90SL+e7KLBMBbpQN0JH8B9s67ByWsDQQik10BdbIfBzIK6QHdG
DUF1KFjBtRyRQM4K80DK3VrB5ZmCQN6+GEFOOXLBX7W1QMRjFUFk8X7BXZ/pQKV48UD6D3DBTJnX
QET+z0DlgVrBr0tYQFcE6kBxln7BJmx4QMVeBUGgZ4rBxUHWQM7bq0BjnH7BmSSjQONurUCPfHHB
dmICQcc6oz4idIbBLxbUQJiHRz/ahX/BU4TTQE9JAr84xonBz+ytQK/9LEGkLK/Bv/GTQGiGHEGW
WaXBmo+6QB0rMEEcP6HBTkvFQKIADEH0/7jB5g/kQJ2P70DySLLB6misQKl09kDxIK/B6DGEQAqU
H0AamKvBT7tVQDhWwT9AXqHBu42sQAjPe0CO3YjBdkHCQJFwmkAvGZTBi/vzQKniG0E62arBObm/
QApqQkARtZ/BnNtZQJ8UVUAq55LB/wmYQAmpmj+ba4/B6ORqQOcCr0Aj3YfBe0GCQPBHxkA6HZPB
EuJOQDDsgkAfjKTBSyyzQJYeAUEosJfBrruTQAVuI7/nOKbBNHjMQEQyVT/evqzBrKDVQDcKy7+8
bK3B7hrxQHyM6ECq+o7BBgDFQODK6kCXho7B2qCjQNpxKD8pH6jBGJasQPwu4b8286jBY5vlQE0A
lL5hSq/Ba6fRQABOCUENXJ7BcfTZQE4Huz8rMpDBOQWvQNv6AEGqXWLBnpCaQARHDEENpnXBxv3Q
QL5l4UCwpmnBxNCFQF1l90DDLILBCkG+QPiJwECrb3nB1M6mQKE71kAFT4bBYb/iQE3yrD44PIjB
Zci6QNpxBEFTObHBZcjoQL4qJEGgNKzBayGKQNCh7T8VjKTBRSukQNjakEDeio/B5xPFQKH/FEF8
eqjBPz6jQATjJ0Dy5pvBoh2IQI6fb0ByOpfBbtivQCwl2j+QNZPBQ4CMQNFntkD56YvBowz4QJZx
AUAfnZTBtGNzQHNmk0A/mJ/BFSmdQGEdQMCBKqfBYJgGQZRD9r3zcLPBZIECQWHvAUFwJZrBpT+R
QLMSA0FmBJnBkAJpQFViRb8hraLBG2PYQDff6T9lU67B1dboQDm0HMCxbK/BwGICQQcR2EABMYnB
bUS+QNUCDUHiBljBTvWVQNgf8UBFUVnBwgyCQM2RF0Hj/W/BvluzQCcMFUHVi37BDFTrQPCj8kDG
hnHBhFbdQChe0EAFilvBi0dZQO185kAlanvB4gpvQBv8A0EoEYnBAHrYQOavrEAqtX/B+UunQHAl
rEDz1HDBLb0CQeb0OD5ijIfB2KLVQBJtHD/TXYDBRXXTQJ6mFr+lDIvBYZaxQAnHDEFcoLjB5jHX
QNYD9UCLvbLBhjWgQDds9EAGjq7Bta3eQA9oLEFXj7PBeTrvQGYOMEGZ66XBDwIDQQPmGkGaza3B
Z1uEQLUkIUDkbavBzaNWQNvkwj8GPKHBMXmsQOpTeUC5o4jBWp7BQEsAm0AwpJPBpR+oQGN+HkFg
5abBPwzAQFi3Q0Drkp/BWrRZQB8QVEAu25LBxaKYQPYJnT+3PY/BCtNqQL6mrEDG8IbB4ah+QJN3
xEApTZLBmEdQQJ61g0D0ZqTBJnSzQFEHAUGdvJfBZaHMQKPwVj9o1azBn9mTQEAUIr/WXKbBnvzV
QNojyr8jca3BtxnxQNPc50DX/47BrQPFQK1+6kAcj47BtqyjQCP3KT+DRajB1uPlQFIykL6lU6/B
VeKsQDRr4L/fAanB0CbSQF81CUGwWp7Bp+DZQJ5MvD8DPZDBOwyvQEeyAUGNtWLBtGWaQAOmDEFn
I3bBHwfRQE+n4kA9ymnBDLGFQD2Z90DOR4LB+DG+QAc1wUAORHnBubymQK5A1kAxTobBMMriQNrp
tD6qO4jBCGO7QOtlBEEuO7HB2PPpQGfnI0EuPazBmhyKQPJX7j/IsaTBqYikQNoDkUBgp4/BxevF
QM/vFEHmfqjBgzOjQBvrJ0BpApzB1DCIQMWFb0DiP5fBvM+vQJxM2T+4XZPB9n+MQOUAtkDSyovB
9uv3QAbUAkCOlJTBZGNyQOFEk0CRkJ/BXL8GQdwt5b0rdrPBupedQCDAP8BCKqfB8awCQdatAUHn
F5rBP5KRQIYGA0GgHZnB0IrYQJnG6j8NaK7B8A1pQIZSRL8936LBO03pQNA2HMByZa/Bt0gCQcYA
10DWPInBFlS+QO/pDUGOmljBNReWQLLQ8kCceFnBiNKBQH76F0Gyn3DBvRKzQBJUFUFSNH/BO0Pr
QEGt80AV3nHBpIfdQKcg0kAgkFvBgzRZQBLn5kB4d3vBDZVuQBrZA0GoOonBbF/YQIIYrUAbYH/B
XzynQCEprUA2dnDBicYCQR0WWD7CcYfBsjPVQNl6Hz8uaIDB/wfUQDl5FL82E4vB+3CyQNe+DEEO
prjB7JzXQG2f9EC7t7LBFpSgQDGf9EDRka7BOgngQFInLEFBm7PBNaDwQG/LL0Ej+KXByH8DQS16
GkGg0a3Bz3CEQLetIUCHkKvBw4BWQPmPwz+1aaHB39WtQJVneUB92ojB42jBQJzcm0Cv5JPBDCWp
QJ+VHkH/8KbBrwPAQJrfQ0B9qZ/BuHNaQKHEU0AmyJLBIqWYQAbumT/VhY/BclZsQImiq0CfrobB
i7J8QH/1w0DrD5LBt/FOQAJ9g0CqUKTBaTTwQJOQ+UB7SI7BUpaOQB94WL+m46fBel3LQARiJD8z
uarB0MDPQHMQ17/CZ7DBnbquQPwYBUFLypbBaf7AQIUK9UAUPo7BxumhQBgy1z47hqbBC1ClQHyv
8b9G86zB7tniQDky1L7bM6/Bntz+QN2XCUG1dZbBzXjVQD3ehT8OsI7Bv0qxQE9+/0B3x1/BrFCY
QO3VC0GeQXHBuHbUQJVd40DRtGnBmj2EQIMC+EC1q4DB7w3CQD1AxEA9rnrBY1umQDLo2kDKJ4bB
OG/dQIfP1z5/tIPBnVwkQRWt9kBVR5rBqIgfQW3eHEFRHI/BKKyIQHiSxz+aeaHBsKGoQASZl0B9
DpHBiKEWQbWVD0EciZjB8LikQHp1H0ARS5rB/COMQD2jckAYnJfBDFCwQOL75T/yPJDBQ/2NQDf7
uUB5TIzBeIXxQGaneD91hJXBmd1/QIoJj0BDN6HBonCSQNLGRcAwfK7B8s8FQXNCUL6KbLLBEeHU
QHJJEkHQg57Bv3YCQepc6kC9gYjBNslcQBb7gb+GDqXBswrZQNkV0T9ceqrB3ZPhQMNuH8A4+LPB
eteMQJAvBUFxfJjBBx7AQKZoC0EW4VTBZQSbQIoS60DgwFbBlH99QE5NFUEzuWnB9UuuQCSWFkGZ
0nnBnWLsQEsj+EBVYHHBZ9fjQMmd0EDZ8lzBu4paQCOO40A+yHjBFrtmQDUsBUHR4obBq+rcQIng
s0C/SYHBV+OtQDGKrEBwdnLBWHT9QOkpD73Li4PBVGzbQCuxmT84B3vBiiXFQNx7s74MJoLBXxE1
QWoCAEEDxJvBMZQjQXdb4kB8GpPBPjceQSPM5EBMNaHB4VAwQbQYIUEStpDBHAcWQYaRK0E1M47B
wZceQc9mE0EHtYfBBOx0QFKHCkAR6KfBhh5eQOd5kD9fhJzBUHu4QIF6hUDpoorBVfrAQDfopUBQ
T5bBaGgXQfNoGUGN05/BY/TBQA02MEDMuZ7B81tfQEUwYkB525LBkfmbQE1/7z8fF4rBu7ZxQEVj
rEBPWIfBCMt8QGnFyEDdOZLBz31cQMi0eUB0Z6XB

> <OMEGA_E>
wIJiPQCoZz0A29Y94MLcPYgLIT8=

> <OMEGA_NBR>
     19239

$$$$
50167942
  -OEChem-04172616093D

 67 69  0     1  0  0  0  0  0999 V2000
    8.6813    7.4205  -17.9799 C   0  0  0  0  0  0  0  0  0  0  0  0
    7.6305    7.0880  -17.1029 C   0  0  0  0  0  0  0  0  0  0  0  0
    8.3983    7.8111  -19.3017 C   0  0  0  0  0  0  0  0  0  0  0  0
    6.0156    7.6036  -18.8490 C   0  0  0  0  0  0  0  0  0  0  0  0
    6.4981    0.8188  -21.6051 C   0  0  0  0  0  0  0  0  0  0  0  0
    4.6754   -0.6229  -20.8530 C   0  0  0  0  0  0  0  0  0  0  0  0
    6.7456   -1.6083  -21.6899 C   0  0  0  0  0  0  0  0  0  0  0  0
    6.2909    7.2098  -17.5343 C   0  0  0  0  0  0  0  0  0  0  0  0
    7.0624    7.8374  -19.7486 C   0  0  0  0  0  0  0  0  0  0  0  0
    5.2009    0.6704  -21.0645 C   0  0  0  0  0  0  0  0  0  0  0  0
    7.2718   -0.3196  -21.9078 C   0  0  0  0  0  0  0  0  0  0  0  0
    5.4453   -1.7595  -21.1690 C   0  0  0  0  0  0  0  0  0  0  0  0
    6.8085    1.3778  -18.1286 C   0  0  0  0  0  0  0  0  0  0  0  0
    4.4358    7.7867  -15.8268 C   0  0  0  0  0  0  0  0  0  0  0  0
    5.2490    6.6522  -15.1717 C   0  0  0  0  0  0  0  0  0  0  0  0
    5.1291    6.7415  -16.6974 C   0  0  0  0  0  0  0  0  0  0  0  0
    7.0455    0.3232  -17.0527 C   0  0  0  0  0  0  0  0  0  0  0  0
    7.3581   10.1567  -21.9406 C   0  0  0  0  0  0  0  0  0  0  0  0
    5.0476    9.7501  -20.9916 C   0  0  0  0  0  0  0  0  0  0  0  0
    5.6743    8.7732  -23.2159 C   0  0  0  0  0  0  0  0  0  0  0  0
    6.7530    7.8133  -21.2209 C   0  0  0  0  0  0  0  0  0  0  0  0
    4.4026    1.8925  -20.6388 C   0  0  0  0  0  0  0  0  0  0  0  0
    5.0212    4.5516  -17.8449 C   0  0  0  0  0  0  0  0  0  0  0  0
    5.1277    2.6666  -19.5067 C   0  0  1  0  0  0  0  0  0  0  0  0
    4.2303    3.7674  -18.9082 C   0  0  2  0  0  0  0  0  0  0  0  0
    6.2090    9.1315  -21.8132 C   0  0  0  0  0  0  0  0  0  0  0  0
    5.4998    1.7293  -18.4341 N   0  0  0  0  0  0  0  0  0  0  0  0
    4.2747    5.7512  -17.3963 N   0  3  0  0  0  0  0  0  0  0  0  0
    7.7648    1.9624  -18.6270 O   0  0  0  0  0  0  0  0  0  0  0  0
    3.8201    4.6479  -19.9530 O   0  0  0  0  0  0  0  0  0  0  0  0
    8.5259   -0.1763  -22.3931 F   0  0  0  0  0  0  0  0  0  0  0  0
    4.9434   -2.9966  -20.9537 F   0  0  0  0  0  0  0  0  0  0  0  0
    9.7046    7.3756  -17.6377 H   0  0  0  0  0  0  0  0  0  0  0  0
    7.8482    6.7410  -16.1036 H   0  0  0  0  0  0  0  0  0  0  0  0
    9.2002    8.0891  -19.9696 H   0  0  0  0  0  0  0  0  0  0  0  0
    4.9920    7.7275  -19.1705 H   0  0  0  0  0  0  0  0  0  0  0  0
    6.8971    1.8059  -21.7864 H   0  0  0  0  0  0  0  0  0  0  0  0
    3.6812   -0.7410  -20.4481 H   0  0  0  0  0  0  0  0  0  0  0  0
    7.3390   -2.4802  -21.9221 H   0  0  0  0  0  0  0  0  0  0  0  0
    3.3388    7.7951  -15.7455 H   0  0  0  0  0  0  0  0  0  0  0  0
    4.8132    8.8196  -15.8014 H   0  0  0  0  0  0  0  0  0  0  0  0
    6.2078    6.8740  -14.6801 H   0  0  0  0  0  0  0  0  0  0  0  0
    4.7334    5.8494  -14.6242 H   0  0  0  0  0  0  0  0  0  0  0  0
    8.1248    0.2295  -16.8618 H   0  0  0  0  0  0  0  0  0  0  0  0
    6.5341    0.6233  -16.1263 H   0  0  0  0  0  0  0  0  0  0  0  0
    6.6484   -0.6442  -17.3939 H   0  0  0  0  0  0  0  0  0  0  0  0
    8.1804    9.7160  -22.5234 H   0  0  0  0  0  0  0  0  0  0  0  0
    6.9895   11.0588  -22.4509 H   0  0  0  0  0  0  0  0  0  0  0  0
    7.7224   10.4255  -20.9381 H   0  0  0  0  0  0  0  0  0  0  0  0
    4.2309    9.0187  -20.9021 H   0  0  0  0  0  0  0  0  0  0  0  0
    5.4107   10.0187  -19.9886 H   0  0  0  0  0  0  0  0  0  0  0  0
    4.6778   10.6520  -21.5013 H   0  0  0  0  0  0  0  0  0  0  0  0
    4.8566    8.0434  -23.1219 H   0  0  0  0  0  0  0  0  0  0  0  0
    5.2992    9.6824  -23.7085 H   0  0  0  0  0  0  0  0  0  0  0  0
    6.4861    8.3385  -23.8176 H   0  0  0  0  0  0  0  0  0  0  0  0
    7.6795    7.5592  -21.7567 H   0  0  0  0  0  0  0  0  0  0  0  0
    6.0016    7.0291  -21.3954 H   0  0  0  0  0  0  0  0  0  0  0  0
    4.2756    2.5583  -21.5051 H   0  0  0  0  0  0  0  0  0  0  0  0
    3.4154    1.5686  -20.2774 H   0  0  0  0  0  0  0  0  0  0  0  0
    5.2033    3.8981  -16.9790 H   0  0  0  0  0  0  0  0  0  0  0  0
    5.9833    4.8678  -18.2744 H   0  0  0  0  0  0  0  0  0  0  0  0
    6.0327    3.1336  -19.9225 H   0  0  0  0  0  0  0  0  0  0  0  0
    3.3569    3.2982  -18.4319 H   0  0  0  0  0  0  0  0  0  0  0  0
    4.7654    1.3205  -17.8923 H   0  0  0  0  0  0  0  0  0  0  0  0
    3.5498    5.4598  -16.7722 H   0  0  0  0  0  0  0  0  0  0  0  0
    3.8683    6.1909  -18.1972 H   0  0  0  0  0  0  0  0  0  0  0  0
    3.3328    4.1595  -20.6061 H   0  0  0  0  0  0  0  0  0  0  0  0
  1  2  2  0  0  0  0
  1  3  1  0  0  0  0
  2  8  1  0  0  0  0
  3  9  2  0  0  0  0
  4  8  2  0  0  0  0
  4  9  1  0  0  0  0
  5 10  1  0  0  0  0
  5 11  2  0  0  0  0
  6 10  2  0  0  0  0
  6 12  1  0  0  0  0
  7 11  1  0  0  0  0
  7 12  2  0  0  0  0
  8 16  1  0  0  0  0
  9 21  1  0  0  0  0
 10 22  1  0  0  0  0
 11 31  1  0  0  0  0
 12 32  1  0  0  0  0
 13 17  1  0  0  0  0
 13 27  1  0  0  0  0
 13 29  2  0  0  0  0
 14 15  1  0  0  0  0
 14 16  1  0  0  0  0
 15 16  1  0  0  0  0
 16 28  1  0  0  0  0
 18 26  1  0  0  0  0
 19 26  1  0  0  0  0
 20 26  1  0  0  0  0
 21 26  1  0  0  0  0
 22 24  1  0  0  0  0
 23 25  1  0  0  0  0
 23 28  1  0  0  0  0
 24 25  1  0  0  0  0
 24 27  1  0  0  0  0
 25 30  1  0  0  0  0
  1 33  1  0  0  0  0
  2 34  1  0  0  0  0
  3 35  1  0  0  0  0
  4 36  1  0  0  0  0
  5 37  1  0  0  0  0
  6 38  1  0  0  0  0
  7 39  1  0  0  0  0
 14 40  1  0  0  0  0
 14 41  1  0  0  0  0
 15 42  1  0  0  0  0
 15 43  1  0  0  0  0
 17 44  1  0  0  0  0
 17 45  1  0  0  0  0
 17 46  1  0  0  0  0
 18 47  1  0  0  0  0
 18 48  1  0  0  0  0
 18 49  1  0  0  0  0
 19 50  1  0  0  0  0
 19 51  1  0  0  0  0
 19 52  1  0  0  0  0
 20 53  1  0  0  0  0
 20 54  1  0  0  0  0
 20 55  1  0  0  0  0
 21 56  1  0  0  0  0
 21 57  1  0  0  0  0
 22 58  1  0  0  0  0
 22 59  1  0  0  0  0
 23 60  1  0  0  0  0
 23 61  1  0  0  0  0
 24 62  1  0  0  0  0
 25 63  1  0  0  0  0
 27 64  1  0  0  0  0
 28 65  1  0  0  0  0
 28 66  1  0  0  0  0
 30 67  1  0  0  0  0
M  CHG  1  28   1
M  END
> <OMEGA_C>
geYKQeB07UDT1o/Bvyz0QMbQ4kC40ojBTF8GQdn0+UDcaZrBlX/AQJ1Q80DOypbBhvDPQByeUT8t
16zBO52VQKl2H7/t0qbBs9vXQFnbzb/UhK3BZE/JQF225kBZRozByf7hQALM+kAj/Z3BIm6mQMWh
Kz8xhKjBYbLoQMaco744Q6/BJkCuQJY34b8JWqnBL9/ZQMZbsD9xB5HB6vGNQOAs+UBgOn3B//en
QK3e1EAxv3LBwSGkQCa610A0lIXBE3XhQF50pT4EbIjBZ3XrQL6BIkFihq/BG4ahQGcAHEHJ7qfB
4JO1QNdeDEE2urnBZRjYQM8G+kBhxKnBFeKMQP878j89HKXBEq6gQBenkUBMwo7BQBakQK6pKkCv
DZzB7V6HQModcUAGRJfBxq/GQHsaEkFega7Bjf6vQHtY3T8jeZPBtsqIQDoKuECcK4vBE3n4QFMw
+z8fBJXBtnt0QEu7lEC9n5/B/GkIQU6PNL4WJbPBMzCeQLfHP8A9oafBLkYbQU8F7EDuGY3BuST7
QAK210Az1IDB3zMTQRNtAUG0wZ/BZ76fQKhH90AhXZnBXbXcQCsn5z+LSq7B25hrQHyzPb+1laPB
L9nqQJO7HsB8YK/BLK9VQE5x+UCc7XvBxAWaQEAdDUGc0nzBB6bGQLj320DY4WrB2XeXQIYuu0DY
/GnBJv8BQRj/aj4M5YbBkBfRQJOQHz+VAoHBT7/UQE3sJL/FJovBvOICQcJ0G0H+L7TBTarfQM/w
MEFkm7PBnR33QKfOJkE2gafBKWOHQMBMEEGNN6fBIyStQGlMIEGS6J/B07CVQJFuKkHAAqzBhmmb
QLKxAEGQ+bjBX5OpQA7rGkH/qr3BUo7PQG9qBUFvir7BPr71QGDl8UCjDa7Beg3AQEzu4EDVKavB
pdGIQKq7I0BuCqzBM5ZaQAnJyD8UOKLBuIGmQAF6eUAN1YfBVHe/QDXFm0DiMZLBAQzBQFaMSEBU
YZ/Bq9ZWQAwWU0CUdJPBK36YQNoGqT+EI4/B9S9jQPW2rkBlLYbBx5F3QNobxkDpk5HBG0xVQOoa
hUBf2aTBVC0LQcVc9kDEbI3BU6LzQFqE6EBuK4fBYw4IQYXPAEGgNJjBT1XEQPJN8UBKe5bB3NjK
QBNJOz/tMq3BkB6UQNvXNr+1Y6XBLevTQKCL2L8gfK3BazvKQBWc5kDHqYvBnRrnQDtY/kCD0ZzB
KlejQFQDFD+u2qfBHyvjQL4Jzr639q/BxTisQCZ37L88SajBBODaQPCvtT8J6ZDBj12NQCWh9UAX
LHzB2mOmQH3ez0AChXLBxCGkQJ/s1UCNc4XBfQrkQKGF1D7KA4jBlqm8QLA2DEF/K7nBR6vhQCiI
J0Fmnq3BjCycQEThFkF0r6fBySbiQIf2/0Bs2KjBRRKKQAgz5j9QaaTBaNihQMS2kUCUS4/BDlGj
QL6nJ0AaCpzB7MSHQNa2cECsiJfBoh/HQKGwEkFjiq3BOI2wQMwF3j9pNZPBX3+JQOFdt0AEiovB
86/4QIZKAECMP5XBknR2QKzjk0C2F6DBp3sEQV1Kgr5PF7XBLhydQKR2RcAgI6bBgfUaQS5c+EAQ
8YnBP6D4QLVY30Dk3X3BqWAVQdpjBkEB85zBmMCkQJF770AQ9pnBRmrWQG0L3D/MKq/B7+1rQG+O
Vb9mR6HBSKnmQM/lI8D0ka/BumdUQGIO9kCNZHvBx6iZQDA4C0Eoe3rBKJvEQAuk1UAN92nBPSaV
QA9CtUBy4GrBFGIDQSuNtT58qIbB/RrUQCqbPT/1nIDBvdnXQIcOE79oW4rBmL+pQJe9+kD0KLnB
EC2qQMwLGUEYCL3BLp3aQDWdCUE7m73BbTbpQCE4LEFRWaXBcJL/QIDlJEEEErLBUiLPQBZUNEHg
frHBIJeiQI6KG0FEWp/BFMuKQG7WI0H6wavBSqqIQGE7CEFyy6fBejQBQesTAUH5UqzBaQfTQCXV
4UBlYKvB3b6DQNF1G0AvcqvBeBFXQPWqvD8i46DBDSOpQPndeUAkbojBU+G/QMqEnEBMAZPBp8S/
QAkrQ0A66p/BY/BWQKZNVUAVlJPBP7WZQA4nqz+PmI7BX2BjQD5IrUB004bBTJd6QE12xkA85pHB
oy1WQPYUhECnLaXBtVEIQaYv7kClLpLB+hXyQJHt3EBUH4vByMUBQSEVBUF2ZprB2kq5QL6BAEET
ApXBgGDLQPYvRz+eLa3B8CaVQIaOLr8wUaXBKkHVQN030r8HZK3BFnHGQKH35kA4jIzB16vXQLH3
CUFGtZvBt+ijQD86HT/t1KfBuR3kQLjcsr6m46/BFKWtQGV1579oLKjBIYTbQPlwwD+2zpDBQv2O
QOkD9UDYe3vBs3esQMlU0UCLvHLB1makQIuA1UB8YoXBzQrlQGm69D5mF4jBA+mpQHq4IEG5y7XB
nZ2+QPc89kAz7rDBWbb3QOxPF0G9DLTB6UDIQHZuGkH6qKPBnDuKQAbU6T82aKTB6GihQB+1kUCi
Jo/BiUWjQOIRKkAuE5zBLW6HQD6AckB3i5fBPHbKQHAUE0H+fK/BBwaxQPyH5D9dM5PBreqIQGQv
tkBg3orB9e74QO21+D8ZRZbBfu52QGZxlUDRBaDBUQkFQaJjRL617LTBsR+fQFgvQ8Dg56XBUwQZ
QewC5kAVTpHBGvj7QMotyEBzq4TBeYENQRQRDEECsp/B9p2XQNBEA0G8X5bBLJfWQG9W4j80MK/B
xBhuQIRPT7/YMqHBKzvoQM9qIMC3ea/Bi4BYQCpx80DcwHjBh4CZQFFMC0FdBnvBK//LQPR32UBL
DWzB6r6eQH1QtkDKx2nBRMgDQa8ihz6+8ofBQR3bQG4qYT+kSIDBiU7TQKL25b5VwYnBQsqxQAnG
MUGN3rTBXDqrQAJeHEHjUL7B3YGJQO28HUHHsrLBFn/VQF9B4kAnfKzBSB2eQKyg8EAp263Bx9W/
QNXi7UBGebnBK6YHQe6wDUFkoa/B0Xr4QJ7eEkEJkLzBCIf/QItjKEGPM7PB0cWmQNlUHkHKxKHB
5xrcQPDbKEFByKLB5aKDQJD9HECac6vBD6xXQGwpvz8u3KDBK4SpQHHFd0DTjIjBbwC/QEitnUAb
3JLBuH6/QDU2RkDl+5/BD9NVQI68VkB3upPBtl+aQMuJrz8jn47BhoFmQN8oq0BvqoXBhO1zQIDP
xEBT7JDBXrlWQKIdhkDONKXBiK7RQBQTCEEoGqDBDtS0QDOe+0CtEZnBodf8QNGHCkHZB53Baifw
QAiI50CUjo3BnvzHQF+WMT97/KzBlcCOQJhZKL8xMKXBLAfNQFOB3r+XI63B7DTEQM876EC6kY/B
0nQFQS98AUHnQ5PBES6gQHDqGT/yuqfBE4DeQAv1876Qoq/BO/ikQCvd6b88/6fB18TZQNSHrj9V
WJDBe4uSQOeJ8ECu+XzB8nSzQI2czUCaTHfBG9ulQBH21EC5X4fBDnPhQGqztz7XW4fB7GAiQabM
JEEXMHzBoAT7QAHFFUGT2XnBUzYGQZamMEGrOIvBkKIXQTBGC0E09IzBEE+JQGe07D8bUaTBkFGj
QA7ojkBbA4/BuimkQEgXJkD255vBJwuKQBqCcEBOnpfB+zMPQeE3HUGy64TBOtivQObW1z8IDpPB
C9eKQIuMtECD54vBxVz4QCKV9z9xdpTBI3GBQElplUBJKqDBsloCQU9rxr4KprTBdrCTQAc3QsDL
y6XBqcvGQO/6DUGTwKfBORiTQDy0+kDe7prBDXIJQWQ2E0GYEqLBakL9QO380UAPpofBsCLVQOuh
1D95+K7BpctgQPNOOb98F6HBVFjeQFzTKMDwKq/BuIhhQIJz7EDmdnjBNV2bQM1BCUGmqHvB88nT
QN2c1kAD/nHBGzGpQMSMsEBEzG7B6vsBQXTpkT5yvYXBMcTQQEaTMT9zFoDBxiPVQG9wIL/3xInB
21cvQT89KkEzY4PBpk4dQWYWMkE50nHB5CEoQX13F0FIPnLBt+HeQPcwEEHcaoHBYrkDQfufCEHE
7m/BSMzxQOQ+I0G1gm/BbBPxQPF6K0ESH5DBffQAQdwOPUF+j4XB7sYSQcsvN0EKcpDBoqcfQS0/
/UBTVYjBZB0jQXGKEkFEjJLBXWmEQGj5H0DGTqvB1TZUQHd8yj+V2aDBOLWnQBxRc0BlFYjBiMjC
QGmMmEDTIpLBoFHBQDTlPkBmvZ/B3f1XQDEXWEDXMpTBpTWYQNqzoz/hwY7BmstpQFz+q0ABfYbB
qXJ4QM50wEBdXpLBlhdjQJk4h0DzlaXBVRTTQMMWCUHEi5/BYay0QD5XAkHC6ZfB69P+QGJbBEFN
/53BB53tQBzO5EAETo3BXALNQDOeND8Pr6zBgoCSQPutJ78ApaXBGX/RQGBR3b/fU63BE2XCQOEE
7kBHv47B4hIGQVCN8kC+ppTBEZekQLqRHD9DtKfBy4jjQPm67b5Pba/BT9OoQKBk6b+GhKjBPcfZ
QDiYpD8rTZDBaqSPQA0L+EBTy3zBk16wQK2I1UAXN3bBOEWjQEEL20Bg6IbBpzffQDhQXz6Dr4fB
2qdAQYft+0DBaYvBKtAmQaibGkGyGZHBzAw4QaUKAkFI8p7Bbt4cQath5EB6aZLBSCKNQNeq7j+h
T6TBxcOjQMJqk0CJ/I7BRUOmQA/FKEBvmJvBMQaLQJFgc0B1X5fBDqAuQWFyA0E+hZPBqLawQKk3
3j+KoZLBjpyJQCuXuEC1n4vBqa/4QIqnzj+mv5XBAVGAQMQ2lUAKFaDBszEFQbUkv74KILTBvyiX
QKxJQsCErKbBEO3IQP/XEUGVjKbBHyKTQJnPBUEQEZnBQRALQfYnCUEH6aPBTZn3QMa20kAYYYbB
jKfaQOdZ1j+yY67BDAlnQBJlOr+73KHBStniQJETKMDgZ6/BzoFbQHdj9EBkZnjBlYCYQMMKDUGr
IXzBtpvQQDvl3kAZ7HDBCNylQCwzuUDSMG3Bkk4AQZFvBL6umIfBsQ3XQDXMJD8Aqn/BFeXJQPVG
Ib99aonBNoRGQSNL20Au7YzBrOdNQXRlCUHMWYzB+E86QXnx/UBSOIPBCgEaQfz1HkG0upbB7akg
QatmG0FS3YjBoUE0QWLTJUHM/pHBJYgrQTDfBUEJ1KTBgE1FQT2DDUFDvp/BmQU+QbV640AGZKDB
82YdQQIx2EAuKYrB6K8gQYVQykBUApjBweyIQHkLIUBVUqvBsS5bQDHUyj95HKHBRHuqQF8MfkBX
A4jByRbCQHK7nkAQcpLBotjDQNZgQkBUIZ/BWq5bQHNmWUAYrZPBO8KYQIDztj+57Y3BQXVoQAq8
rkC+NIbBRJZ0QCUdxECeB5LBIeFhQLh/hUCqVKXBelHWQMq9A0FCWaHBzCq8QAI370BUbJrBKjn0
QEQtEkHwBp3BKIPYQFrNCkHcJovBefjLQO6iLD+CcqzBkPmOQKqIIL9mA6bBC7XNQMha4b8fPq3B
PDu+QHAq9UB0J4/BWqH1QH9NFUFq1JHBxduiQPrMHT9i0afByH7hQHrSA7+vFa/BmEOkQHg/6L/9
zqjB/nDXQJpTnT+z0I/BHP6TQELJ7EC79XnBwIe5QOSKzUAsVHjBHyOmQK5U2EBNOofBEv/aQKbb
LT5SE4fBqHkyQZQdGkE2WoXB6KAdQYi+80Ccr4vBIuETQTQDDUFSoHTBfGwNQVV9IEF2jYzBqq2M
QKXc8D/teaTBLc2mQLjskUAqYo/BpmymQKdgJkBGpJvB83aMQFuhcUBUdJfB4tsbQRI3EEFiDIbB
8fuuQBd11z8Ap5LBv8yMQAB+tkBUAozBdGD3QFHDxT977ZTBWCaBQEL8k0DOLaDBH4EEQdiC674w
dbPBod2QQAVhQMB5O6fBXWPTQG70AUE96anBDVqmQFXf10CZt53BVPAEQbrHGkErNaLBK1HWQChF
D0Hc0oLBvuDaQJqo0D9R9q3BT+ReQCEDK793faLB50/eQIEsK8DzOq/B62NoQCJP40BFFXTBmhSZ
QHyGB0Fd1XbBVJLZQCld2UArEXTBsK+0QFOfrUATUXHBIz/8QLdDPr6ak4bBEoHRQK8rGz8xtX7B
U8rFQFvCLL84/ojBb4kxQSHTKUGFaYHBivY8QXN+D0GrsIDBdAc5QVESHEHydY3BeqYNQdco5UBC
QIzBQkYkQRDw90BKxJPBWDUoQVXI3kAC/4bBAMEDQZb2BUFN0HTBkeMeQVM+AkFjG2zBdGETQdqT
HEEcbWzBED8XQSwzKEEDwZLB0zsHQUO6LEGLCYfBG6+JQBgLI0DmcKvBkkNZQPdy0T8OaaHBz3Gu
QDlKe0D7cojBzqXEQBMrnUBfG5PBV7nEQEbbPUBtBp/BXwRfQGMyWUCzfZPB3Q2WQCIgrz/1UI7B
HppuQFBqrEBMpYbBWD17QLJFwkAHaJLBZmJhQNRHhEBtOKXB

> <OMEGA_E>
aNagPuiAnz7AHrg+BIMPP4CYEj8UwTM/

> <OMEGA_NBR>
     25918

$$$$
50167945
  -OEChem-04172616093D

 58 60  0     1  0  0  0  0  0999 V2000
    6.8429    8.5824  -19.8618 C   0  0  0  0  0  0  0  0  0  0  0  0
    5.7662    8.0461  -19.0112 C   0  0  0  0  0  0  0  0  0  0  0  0
    6.4420    0.8005  -21.5154 C   0  0  0  0  0  0  0  0  0  0  0  0
    4.5826   -0.6335  -20.8383 C   0  0  0  0  0  0  0  0  0  0  0  0
    6.6604   -1.6226  -21.6466 C   0  0  0  0  0  0  0  0  0  0  0  0
    8.0911    8.2871  -19.3735 C   0  0  0  0  0  0  0  0  0  0  0  0
    5.1310    0.6513  -21.0129 C   0  0  0  0  0  0  0  0  0  0  0  0
    7.2095   -0.3364  -21.8206 C   0  0  0  0  0  0  0  0  0  0  0  0
    5.3447   -1.7691  -21.1616 C   0  0  0  0  0  0  0  0  0  0  0  0
    6.2288    7.3846  -17.8889 C   0  0  0  0  0  0  0  0  0  0  0  0
    6.6820    1.3718  -17.9143 C   0  0  0  0  0  0  0  0  0  0  0  0
    5.4282    7.8182  -14.0735 C   0  0  0  0  0  0  0  0  0  0  0  0
    4.8804    8.6589  -15.2352 C   0  0  0  0  0  0  0  0  0  0  0  0
    6.5354    6.8811  -14.5769 C   0  0  0  0  0  0  0  0  0  0  0  0
    4.2671    7.7436  -16.2965 C   0  0  0  0  0  0  0  0  0  0  0  0
    6.0232    5.9591  -15.6933 C   0  0  0  0  0  0  0  0  0  0  0  0
    5.2880    6.7176  -16.8564 C   0  0  0  0  0  0  0  0  0  0  0  0
    6.8544    0.2199  -16.9275 C   0  0  0  0  0  0  0  0  0  0  0  0
    4.3442    1.8623  -20.5885 C   0  0  0  0  0  0  0  0  0  0  0  0
    5.1446    4.5354  -17.9774 C   0  0  0  0  0  0  0  0  0  0  0  0
    5.1033    2.6025  -19.4726 C   0  0  1  0  0  0  0  0  0  0  0  0
    4.2721    3.7624  -18.9429 C   0  0  2  0  0  0  0  0  0  0  0  0
    5.4004    1.6713  -18.3643 N   0  0  0  0  0  0  0  0  0  0  0  0
    4.4434    5.7518  -17.5738 N   0  3  0  0  0  0  0  0  0  0  0  0
    7.6746    1.9055  -18.3985 O   0  0  0  0  0  0  0  0  0  0  0  0
    3.8849    4.6192  -20.0174 O   0  0  0  0  0  0  0  0  0  0  0  0
    8.4742   -0.1925  -22.2760 F   0  0  0  0  0  0  0  0  0  0  0  0
    4.8159   -3.0009  -20.9922 F   0  0  0  0  0  0  0  0  0  0  0  0
    7.9865    7.3757  -17.8824 S   0  0  0  0  0  0  0  0  0  0  0  0
    6.6695    9.1446  -20.7675 H   0  0  0  0  0  0  0  0  0  0  0  0
    4.7172    8.1587  -19.2420 H   0  0  0  0  0  0  0  0  0  0  0  0
    6.8546    1.7874  -21.6649 H   0  0  0  0  0  0  0  0  0  0  0  0
    3.5785   -0.7462  -20.4566 H   0  0  0  0  0  0  0  0  0  0  0  0
    7.2480   -2.4968  -21.8850 H   0  0  0  0  0  0  0  0  0  0  0  0
    9.0168    8.5788  -19.8471 H   0  0  0  0  0  0  0  0  0  0  0  0
    5.8398    8.4868  -13.3031 H   0  0  0  0  0  0  0  0  0  0  0  0
    4.6129    7.2192  -13.6417 H   0  0  0  0  0  0  0  0  0  0  0  0
    4.1094    9.3459  -14.8564 H   0  0  0  0  0  0  0  0  0  0  0  0
    5.7002    9.2392  -15.6838 H   0  0  0  0  0  0  0  0  0  0  0  0
    7.3674    7.4863  -14.9659 H   0  0  0  0  0  0  0  0  0  0  0  0
    6.8912    6.2645  -13.7383 H   0  0  0  0  0  0  0  0  0  0  0  0
    3.4263    7.1953  -15.8465 H   0  0  0  0  0  0  0  0  0  0  0  0
    3.8981    8.3636  -17.1268 H   0  0  0  0  0  0  0  0  0  0  0  0
    6.8824    5.4204  -16.1194 H   0  0  0  0  0  0  0  0  0  0  0  0
    5.3204    5.2373  -15.2515 H   0  0  0  0  0  0  0  0  0  0  0  0
    7.9259    0.0188  -16.7813 H   0  0  0  0  0  0  0  0  0  0  0  0
    6.3976    0.4911  -15.9642 H   0  0  0  0  0  0  0  0  0  0  0  0
    6.3635   -0.6804  -17.3255 H   0  0  0  0  0  0  0  0  0  0  0  0
    4.2119    2.5339  -21.4496 H   0  0  0  0  0  0  0  0  0  0  0  0
    3.3589    1.5469  -20.2147 H   0  0  0  0  0  0  0  0  0  0  0  0
    5.3517    3.9176  -17.0912 H   0  0  0  0  0  0  0  0  0  0  0  0
    6.0923    4.8015  -18.4685 H   0  0  0  0  0  0  0  0  0  0  0  0
    6.0440    2.9958  -19.8855 H   0  0  0  0  0  0  0  0  0  0  0  0
    3.3899    3.3723  -18.4141 H   0  0  0  0  0  0  0  0  0  0  0  0
    4.6294    1.2273  -17.9079 H   0  0  0  0  0  0  0  0  0  0  0  0
    3.6839    5.4937  -16.9768 H   0  0  0  0  0  0  0  0  0  0  0  0
    4.0857    6.1960  -18.3952 H   0  0  0  0  0  0  0  0  0  0  0  0
    3.3369    4.1373  -20.6257 H   0  0  0  0  0  0  0  0  0  0  0  0
  1  2  1  0  0  0  0
  1  6  2  0  0  0  0
  2 10  2  0  0  0  0
  3  7  1  0  0  0  0
  3  8  2  0  0  0  0
  4  7  2  0  0  0  0
  4  9  1  0  0  0  0
  5  8  1  0  0  0  0
  5  9  2  0  0  0  0
  6 29  1  0  0  0  0
  7 19  1  0  0  0  0
  8 27  1  0  0  0  0
  9 28  1  0  0  0  0
 10 17  1  0  0  0  0
 10 29  1  0  0  0  0
 11 18  1  0  0  0  0
 11 23  1  0  0  0  0
 11 25  2  0  0  0  0
 12 13  1  0  0  0  0
 12 14  1  0  0  0  0
 13 15  1  0  0  0  0
 14 16  1  0  0  0  0
 15 17  1  0  0  0  0
 16 17  1  0  0  0  0
 17 24  1  0  0  0  0
 19 21  1  0  0  0  0
 20 22  1  0  0  0  0
 20 24  1  0  0  0  0
 21 22  1  0  0  0  0
 21 23  1  0  0  0  0
 22 26  1  0  0  0  0
  1 30  1  0  0  0  0
  2 31  1  0  0  0  0
  3 32  1  0  0  0  0
  4 33  1  0  0  0  0
  5 34  1  0  0  0  0
  6 35  1  0  0  0  0
 12 36  1  0  0  0  0
 12 37  1  0  0  0  0
 13 38  1  0  0  0  0
 13 39  1  0  0  0  0
 14 40  1  0  0  0  0
 14 41  1  0  0  0  0
 15 42  1  0  0  0  0
 15 43  1  0  0  0  0
 16 44  1  0  0  0  0
 16 45  1  0  0  0  0
 18 46  1  0  0  0  0
 18 47  1  0  0  0  0
 18 48  1  0  0  0  0
 19 49  1  0  0  0  0
 19 50  1  0  0  0  0
 20 51  1  0  0  0  0
 20 52  1  0  0  0  0
 21 53  1  0  0  0  0
 22 54  1  0  0  0  0
 23 55  1  0  0  0  0
 24 56  1  0  0  0  0
 24 57  1  0  0  0  0
 26 58  1  0  0  0  0
M  CHG  1  24   1
M  END
> <OMEGA_C>
qPjaQIpRCUH85J7B3oS4QLC8AEH2FpjBMCXOQHfuTD+AH6zBgKSSQKgvIr++tKbBISLVQBixz79N
LK3BIXUBQeiXBEHm/JrBKDGkQPu4Jj+AGqjBdrTmQEA+rL6qkK7BhwerQIBy4r/ySqnBolLHQFpO
7EB6HI/BFNPVQPyWrz+IUI/BHrStQL4u+kA6LWHBXyycQLCKCkGTw3PBxSHRQKsx3EDROmnBs4uI
QGTL90AuX4LB673AQJWwvkCfF3vBATepQKj21kD72YbBLFfbQMQyYT5ta4fBgQOLQEJh7j8vtaTB
wKCkQFgikUDH0Y/BhE6jQPSOJkDTx5vBrLSIQOrKcED2ipfBJNCsQIzt1T8t6pLBgjCOQNYOuEAw
l4zBGpb1QJ7o8z8yMJPBnKJ4QKzQk0CwI6DBepYHQQwkRb4rNbLB3RuaQHIOQMD376fBLJH/QMQF
7EA3D4/BRGzVQDxQEkHbI6bBXfOWQC6KAkGx75nBrFjbQObH5D/MUa3B3wZlQI4FP782p6PBp+/n
QCfMH8CPFK/B3EQQQcVCCUH0xp7Byd+6QLzJB0FR2VTBC52TQLMD50CRRFrBE4CDQLqIFUHls23B
AWi2QJTTE0Hv8HrB6cHrQBmQ70A9dG/B9YTcQId2yEAX0FvB6UdbQPc/5kBHi33BP3p5QDvRBUG2
A4nBqjzcQCR0rUCZ9IDBnkCqQMiXp0BXBnTBSKH9QEFOmjwoQIbBgbnMQEpt+z5bbX/Be6HLQLIs
Lr+xmorBjceGQDgrIkC/mKvBIvhWQB4Bxj+pt6HBz0CrQC25ekDYuojBL/TCQNylmUBnv5PBK2jB
QFC7P0B8FZ/BofNYQB3TV0AgUJPB1SOUQPoXnT9ZQ4/BnsRrQFPMr0Bw0IfBtr2CQGtFxkBzKZPB
RZBVQK5khEBXAaXBtxXaQPL8CUGQ+Z7Br/i3QObJAUG18JfBa3SSQID3Hr8rNKfBNR3PQEv4TD9H
/avBS/nUQMyYz789iK3BDRYBQSKBBEH5bZvBh8OkQIu5KD/4NKjBl3SqQM404b9/7KnBMVLnQOxf
rr7Uiq7BNSXHQJZQ7UAqKY/Bh3XVQMp8rD8JNo/BYtGsQF6A+kA6EWHB0BmbQKefCkHdqHPBC7/Q
QAYW3UBfG2nBwRaIQAbE90AyXYLBaALBQFJ/v0BHGXvB8U+pQHGE10BX4IbBOfHaQAzRQT5fYIfB
q6aLQP5v7z8ywqTBbdmkQAETkUCvr4/Bh3ejQHgUJkCjqZvB1OOIQNFWcEBqZpfBGoesQPpm0z8+
2ZLBu4iOQKVbuEAGoozBU0f1QCy08D+FD5PBKv54QG2Kk0BqAaDBq7OYQDIVP8C2+qjBRR0IQSwn
U75M5bHBN1//QERZ60Csjo/BjTLUQNlDE0ExHabBMlSWQBE9BEEofpnBTQhkQGhPOr8wWaTBBOLc
QIZn5D9O66zBeX/nQAfvH8AQhq/B/8oPQWLFCEHObp/BlZG5QBMACEHhrFTBdvGSQJHq5kC4P1rB
XQuCQOtqFUGfom3BwSK1QHUeFEGrvXrB1CjrQMvl8EAyNW/BG0TcQAdjyUDjtFvBCuZaQCi25UDK
mH3BTAR4QKDDBUGM/YjBVtrcQLS/rkAN74DBvcyqQJP+p0BGJXTBgjn9QO25d7w6O4bBQ2XMQI0w
6T5kTX/BrSXLQE8ZNb90mYrBR/CHQGtxI0DBl6vBispXQKslxz/O6qHBCBerQKc5e0CChYjB+13D
QHcnmUAnlJPBXsjBQANSP0AD1Z7BtV1ZQKJkV0CdKJPBnreTQBgpmj/sR4/BhNJrQMJysEDs64fB
D4uDQA9TxkAeSZPBaexVQDMXhECz3aTBbm7/QPkoA0EsCJrBIr3wQKYs70CoXJDBvq2RQA8XGb82
SqfBDJTPQJOfSD/j0qvBcBPUQO5C0r8OPK3B4D3eQO/oCkG5GqDBnNmkQOF/Kz9AQqjB0DGpQIpQ
4L/t1anBHEvnQOQXv76XMq7BVLrEQIJH7kBkao/BvmzUQALSqD88G4/BuhiuQKiZ+EBylGDB8pKb
QGf6CUG6vHLBcGPSQJth3EAtPWnBejeIQJb09kCQ9YHBrs/CQIBev0BUfnvBnFmpQKF110A7zobB
GHfYQIzUMT7CF4fB7FeMQPLm8j8j7qTBMDulQOYUkUApoo/BOgWkQOetJkC8uJvBKLmJQFedcUAj
jJfB3vGrQIih0z9345LBcIqOQKX9t0CFbYzBtOP0QDIu6T+m4JLBeVJ9QG2ulEA9KaDBMKaWQHXo
PcBM5qjBBkkIQXKgh77rUbHByi6tQCh7BEE1XZrBSF0QQWxHBUHWFpzBdxcDQQ+N4EBGqIrByulh
QNvsLr9JmKTB/gPeQL4U4T+duazBaTXmQMMLIsD5Ga/B4hTiQNnLE0Gwc6fB2q+6QLHTBkEx9VPB
zryUQIEn5EAW6VnBsJCCQByOFEEGS2zBJTm1QN21E0FB2XnBTjPsQMAP8UAUQ2/B4LLeQExEyEA6
LFzBQCBcQH1S5EDatXzB2Ml2QAKQBUFza4jBoefeQGMBsEDaZoHBOcWtQMO2pkA3oXTB/n76QLXQ
Vr2PwYXBoYnJQE3R7j5W837BEUPIQHPmN7+TRYrBYqCJQJJWJUADx6vBFVVYQCByzT/nPKLBXUOr
QPAHekD2j4jBVN/DQHGmmUDdZZPBub7CQMj8PkCIwZ7BisZZQFltWUCZgZPBh56SQJSXnD+waY/B
o/NsQJ2lr0C8lYfBRryCQDXaxUCyAZPBq8VaQEuyhUAjK6XBX8z+QBxPA0FkJZrBx4fwQLRx70C8
b5DB377PQPvvST9j+6vB/ymSQIxvF78iKKfBN4rUQCTk0b8MEq3BB1jdQHHlCkE8LqDBoB2lQCFH
LT8YWajBH47nQJ53vb4uPK7BacWpQDLF37/glanBao/EQGox7kAabo/BufXTQCgFqT9LFo/Bp1av
QMwN+EA8hGDBHvOcQMLXCUE+mnLBFxPTQMpN20AJTWnBQM6IQILv9kC41YHBc/fCQDK8vkAtnHvB
73GpQHBA10A1yobBd4zXQFxQMj41EofBX6eMQHg19D+YFqXB7h+lQDcpkUBjuY/BJRukQIsCJ0A3
0pvB2auJQDTHcUAZpJfB/6+rQJyp0z+UAZPBn2uOQID2t0DUaozBEZ70QOz+6T/btZLB+up8QOHF
lEBfPKDB014IQVTphr7RbrHBtWuXQH2rPcD7d6jB+YqsQJhQBEE0W5rBXwEQQU2NBUF0QZzBCh0D
QZcQ4UCuwIrB6wneQF224T9pB63BQxdjQELoLL+3YaTBAb/mQJHyIcBn2a7BON7gQKPAE0EOjKfB
jGy8QIx1BkEi8VPBUceVQCD840DZwFnBqGmEQFGiFEGSD2zBbMm2QBBaE0E/2HnB0DTtQA6b70AV
TW/BvBnfQJ/ZxkDkTFzBpGRdQDF/5EBITHzB1Zl3QIKgBUFBPojBadLeQG06r0AUiYHBgs6tQJYr
pkDDwXTBpID5QJZOR72wlYXBkwvIQFZ77T5TCX/BT6zHQGsNOL9KVYrB9lKKQG0GJkDk8KvBLaVY
QGZozz8keqLBxlurQB7peUBesIjBe6rDQBDvmUCKgpPBTe3CQFxkP0DLyJ7B/8pZQDxWWUC/mJPB
+TeSQN7rmz8zpI/B/f9sQK94r0C4i4fBIWuCQEj/xUBq85LBi2taQEzChUBRPqXBpt4GQTZaAUGK
N5PBZvDzQKwn7kDWy4rByhKPQM4mgr8qmqTBcn7AQBdtHj9OI6zBPmXHQHNf3b997LDB0lL1QOWQ
CEHgmpvBQCyeQGy8oD5gLaXBLlyjQAgdAsDllKrBFh3WQK7Uzb5vn7HBCpnIQE0E70B19IzBMpTm
QAdCqD8O75HBgLyfQGpYBEFNjWHByhiTQHDSD0HKbnbBZv/BQKpU5kBbyWXB0HmCQM0v/0CRioPB
6m+zQIsNxkDVIXfBWB2kQN/j20CvLobBMpf8QNAXVj/vtofBBkOHQGP0tT9BFp/BCAGoQPValkAp
JZDB7GOmQNQJH0AcQ5rB2oKMQPydbkCWvZbBkFK+QFfq9D9QI5HBqnWNQNSUu0C434zBvFP6QMFo
oj8MZ5rB0297QLVYjUD+FKDBJFCUQGZBU8C3PKrBeMn4QB7Ayb3ooLfBajm/QKGDA0G5bZnBIQ0Y
QeMGA0FZ1ZLBYL0AQTvs30AOsIPB8v9nQD3LoL/MlZ/BmSXKQLnF0j+8Pa3BO67XQAvvIMBIPbXB
pwEBQRlbEEF0oqLBmYKsQE8rEEHXL1bBEzeDQJVc+UApplrBuZhzQB6QG0Fx+3LBCEKvQB0eGEFB
93zBYI3fQOAc9kDhLmvBrUXIQN3d1EC61FbBIQZLQITB70DqW4DBKwl1QNQ5CEGO8orBrHzOQCvS
sEBn5HrBQtOYQCgCs0ACpnDBqZsOQTHn/j6Am4nB6Rj+QPYA1T997oHBdk3qQDhnKjsqPoTBnmhi
QKoT9z9Em6TByNtpQPN1dz/Mg5jBPx+0QDXlhUAR+4jBex/DQICCoUBoA5XBCA29QGWHMkA5iqDB
2nliQKB7WUAu2JHBbsGwQBe4+j/P5onBbOpoQE2asEDls4jBlwWDQOQqykDGf5PB3z1ZQC0wdUBD
RKTB

> <OMEGA_E>
yNqDPiB6iD7oCps+mC6dPkZsCz8=

> <OMEGA_NBR>
     30967

$$$$
50167984
  -OEChem-04172616093D

 73 75  0     1  0  0  0  0  0999 V2000
    8.5845    7.5541  -18.4923 C   0  0  0  0  0  0  0  0  0  0  0  0
    7.6565    7.0419  -17.5711 C   0  0  0  0  0  0  0  0  0  0  0  0
    8.1446    8.2389  -19.6368 C   0  0  0  0  0  0  0  0  0  0  0  0
    5.8378    7.8605  -18.9638 C   0  0  0  0  0  0  0  0  0  0  0  0
    6.4016    0.8075  -21.5715 C   0  0  0  0  0  0  0  0  0  0  0  0
    4.6115   -0.6557  -20.7802 C   0  0  0  0  0  0  0  0  0  0  0  0
    6.6834   -1.6128  -21.6418 C   0  0  0  0  0  0  0  0  0  0  0  0
    6.2658    7.2177  -17.7804 C   0  0  0  0  0  0  0  0  0  0  0  0
    6.7599    8.4193  -19.8773 C   0  0  0  0  0  0  0  0  0  0  0  0
    5.1138    0.6394  -21.0166 C   0  0  0  0  0  0  0  0  0  0  0  0
    7.1898   -0.3181  -21.8713 C   0  0  0  0  0  0  0  0  0  0  0  0
    5.3918   -1.7803  -21.1030 C   0  0  0  0  0  0  0  0  0  0  0  0
    6.7848    1.4483  -18.0508 C   0  0  0  0  0  0  0  0  0  0  0  0
    5.3773    8.1415  -14.1789 C   0  0  0  0  0  0  0  0  0  0  0  0
    4.8843    8.8375  -15.4571 C   0  0  0  0  0  0  0  0  0  0  0  0
    6.3735    7.0199  -14.5101 C   0  0  0  0  0  0  0  0  0  0  0  0
    4.2160    7.8172  -16.3838 C   0  0  0  0  0  0  0  0  0  0  0  0
    5.7694    6.0059  -15.5074 C   0  0  0  0  0  0  0  0  0  0  0  0
    5.1953    6.6841  -16.7962 C   0  0  0  0  0  0  0  0  0  0  0  0
    7.0526    0.4467  -16.9319 C   0  0  0  0  0  0  0  0  0  0  0  0
    5.8682    8.0356  -22.1892 C   0  0  0  0  0  0  0  0  0  0  0  0
    7.3135   10.0604  -21.7729 C   0  0  0  0  0  0  0  0  0  0  0  0
    4.9942    9.9896  -20.8468 C   0  0  0  0  0  0  0  0  0  0  0  0
    4.3101    1.8441  -20.5911 C   0  0  0  0  0  0  0  0  0  0  0  0
    5.0728    4.5020  -17.9239 C   0  0  0  0  0  0  0  0  0  0  0  0
    5.0802    2.6205  -19.5061 C   0  0  1  0  0  0  0  0  0  0  0  0
    4.2265    3.7469  -18.9364 C   0  0  2  0  0  0  0  0  0  0  0  0
    6.2458    9.1183  -21.1530 C   0  0  0  0  0  0  0  0  0  0  0  0
    5.4679    1.7084  -18.4119 N   0  0  0  0  0  0  0  0  0  0  0  0
    4.3571    5.7081  -17.5097 N   0  3  0  0  0  0  0  0  0  0  0  0
    7.7201    2.0726  -18.5407 O   0  0  0  0  0  0  0  0  0  0  0  0
    3.8376    4.6294  -19.9898 O   0  0  0  0  0  0  0  0  0  0  0  0
    8.4344   -0.1557  -22.3737 F   0  0  0  0  0  0  0  0  0  0  0  0
    4.9014   -3.0216  -20.8914 F   0  0  0  0  0  0  0  0  0  0  0  0
    9.6423    7.4207  -18.3197 H   0  0  0  0  0  0  0  0  0  0  0  0
    8.0047    6.5106  -16.6976 H   0  0  0  0  0  0  0  0  0  0  0  0
    8.8664    8.6306  -20.3383 H   0  0  0  0  0  0  0  0  0  0  0  0
    4.7807    7.9263  -19.1752 H   0  0  0  0  0  0  0  0  0  0  0  0
    6.7810    1.7999  -21.7655 H   0  0  0  0  0  0  0  0  0  0  0  0
    3.6286   -0.7846  -20.3517 H   0  0  0  0  0  0  0  0  0  0  0  0
    7.2854   -2.4775  -21.8790 H   0  0  0  0  0  0  0  0  0  0  0  0
    5.8719    8.8827  -13.5340 H   0  0  0  0  0  0  0  0  0  0  0  0
    4.5150    7.7113  -13.6484 H   0  0  0  0  0  0  0  0  0  0  0  0
    4.1569    9.6181  -15.1896 H   0  0  0  0  0  0  0  0  0  0  0  0
    5.7395    9.2955  -15.9756 H   0  0  0  0  0  0  0  0  0  0  0  0
    7.2771    7.4633  -14.9537 H   0  0  0  0  0  0  0  0  0  0  0  0
    6.6410    6.4933  -13.5822 H   0  0  0  0  0  0  0  0  0  0  0  0
    3.3560    7.3721  -15.8620 H   0  0  0  0  0  0  0  0  0  0  0  0
    3.8676    8.3340  -17.2901 H   0  0  0  0  0  0  0  0  0  0  0  0
    6.5554    5.2962  -15.8051 H   0  0  0  0  0  0  0  0  0  0  0  0
    4.9557    5.4623  -15.0050 H   0  0  0  0  0  0  0  0  0  0  0  0
    8.1293    0.4262  -16.7073 H   0  0  0  0  0  0  0  0  0  0  0  0
    6.4960    0.7455  -16.0314 H   0  0  0  0  0  0  0  0  0  0  0  0
    6.7255   -0.5543  -17.2499 H   0  0  0  0  0  0  0  0  0  0  0  0
    5.4991    8.5179  -23.1063 H   0  0  0  0  0  0  0  0  0  0  0  0
    6.7551    7.4292  -22.4254 H   0  0  0  0  0  0  0  0  0  0  0  0
    5.0819    7.3886  -21.7733 H   0  0  0  0  0  0  0  0  0  0  0  0
    6.9040   10.5350  -22.6768 H   0  0  0  0  0  0  0  0  0  0  0  0
    7.5857   10.8367  -21.0426 H   0  0  0  0  0  0  0  0  0  0  0  0
    8.2075    9.4769  -22.0382 H   0  0  0  0  0  0  0  0  0  0  0  0
    4.6496   10.4750  -21.7718 H   0  0  0  0  0  0  0  0  0  0  0  0
    4.1923    9.3515  -20.4471 H   0  0  0  0  0  0  0  0  0  0  0  0
    5.2554   10.7584  -20.1047 H   0  0  0  0  0  0  0  0  0  0  0  0
    4.1421    2.4978  -21.4597 H   0  0  0  0  0  0  0  0  0  0  0  0
    3.3414    1.5143  -20.1877 H   0  0  0  0  0  0  0  0  0  0  0  0
    5.2568    3.8632  -17.0476 H   0  0  0  0  0  0  0  0  0  0  0  0
    6.0330    4.7820  -18.3817 H   0  0  0  0  0  0  0  0  0  0  0  0
    5.9839    3.0543  -19.9592 H   0  0  0  0  0  0  0  0  0  0  0  0
    3.3444    3.3219  -18.4351 H   0  0  0  0  0  0  0  0  0  0  0  0
    4.7404    1.2508  -17.9006 H   0  0  0  0  0  0  0  0  0  0  0  0
    3.6068    5.4373  -16.9066 H   0  0  0  0  0  0  0  0  0  0  0  0
    3.9856    6.1497  -18.3263 H   0  0  0  0  0  0  0  0  0  0  0  0
    3.3090    4.1558  -20.6213 H   0  0  0  0  0  0  0  0  0  0  0  0
  1  2  2  0  0  0  0
  1  3  1  0  0  0  0
  2  8  1  0  0  0  0
  3  9  2  0  0  0  0
  4  8  2  0  0  0  0
  4  9  1  0  0  0  0
  5 10  1  0  0  0  0
  5 11  2  0  0  0  0
  6 10  2  0  0  0  0
  6 12  1  0  0  0  0
  7 11  1  0  0  0  0
  7 12  2  0  0  0  0
  8 19  1  0  0  0  0
  9 28  1  0  0  0  0
 10 24  1  0  0  0  0
 11 33  1  0  0  0  0
 12 34  1  0  0  0  0
 13 20  1  0  0  0  0
 13 29  1  0  0  0  0
 13 31  2  0  0  0  0
 14 15  1  0  0  0  0
 14 16  1  0  0  0  0
 15 17  1  0  0  0  0
 16 18  1  0  0  0  0
 17 19  1  0  0  0  0
 18 19  1  0  0  0  0
 19 30  1  0  0  0  0
 21 28  1  0  0  0  0
 22 28  1  0  0  0  0
 23 28  1  0  0  0  0
 24 26  1  0  0  0  0
 25 27  1  0  0  0  0
 25 30  1  0  0  0  0
 26 27  1  0  0  0  0
 26 29  1  0  0  0  0
 27 32  1  0  0  0  0
  1 35  1  0  0  0  0
  2 36  1  0  0  0  0
  3 37  1  0  0  0  0
  4 38  1  0  0  0  0
  5 39  1  0  0  0  0
  6 40  1  0  0  0  0
  7 41  1  0  0  0  0
 14 42  1  0  0  0  0
 14 43  1  0  0  0  0
 15 44  1  0  0  0  0
 15 45  1  0  0  0  0
 16 46  1  0  0  0  0
 16 47  1  0  0  0  0
 17 48  1  0  0  0  0
 17 49  1  0  0  0  0
 18 50  1  0  0  0  0
 18 51  1  0  0  0  0
 20 52  1  0  0  0  0
 20 53  1  0  0  0  0
 20 54  1  0  0  0  0
 21 55  1  0  0  0  0
 21 56  1  0  0  0  0
 21 57  1  0  0  0  0
 22 58  1  0  0  0  0
 22 59  1  0  0  0  0
 22 60  1  0  0  0  0
 23 61  1  0  0  0  0
 23 62  1  0  0  0  0
 23 63  1  0  0  0  0
 24 64  1  0  0  0  0
 24 65  1  0  0  0  0
 25 66  1  0  0  0  0
 25 67  1  0  0  0  0
 26 68  1  0  0  0  0
 27 69  1  0  0  0  0
 29 70  1  0  0  0  0
 30 71  1  0  0  0  0
 30 72  1  0  0  0  0
 32 73  1  0  0  0  0
M  CHG  1  30   1
M  END
> <OMEGA_C>
NFoJQWi78UBB8JPB+QH1QORW4UCDkYzBZFACQbjSA0FDGJ3BSs+6QGKJ+0DxtZfBI9rMQN+4Tj9q
kqzByZGTQMfdJ7/pPabBkd7VQMpwzr93Iq3BY4HIQBD35kAzPo7BXlHYQJm1BkGiBJ/BQ6SjQKGw
Iz8LIqjB4xLmQELbor5d+K7B74msQHHh47/k0qjBMh3ZQLBguT8JaJDBlBKsQMRDAkG13GLBGEyc
QI5mDUEpUHfBYPPLQAqj4EB9KWjBe+mGQEQm+kAIEoPBDp+4QFYwwEA9HnjBuj+mQBrk1UCuXobB
Oq/hQJSx5D6LdIfBpMi7QNmRAEF0g7HBLAjqQHb3IEHgLq7Bc9CfQDbVH0FQxqbBOuyJQPkM7D+g
uqTBE1SiQL4QkEA/ZI/B75CiQMa2J0B1DJzBtT+HQPbMb0CnfZfBUt3HQHzkEUFTOanBtfiuQCus
2j+iS5PBn22LQKiotkDOE4zB/wr3QIylBEBIU5TBfZp1QAAklEAj65/BKfMGQe5wH75b/bLB3tec
QKJiQcCYIafBrkYaQXx27UC0jpLBbhMAQfxW0ECylIXB7dwNQfEWCkHHtKLB1/uYQFek/UDnZpnB
8v3YQBBj5j/AH67B9jpoQHvaSL9Z0KLBLSLpQMWPHsBJCK/B9Oa7QLsfDkEii1jBl3qQQF/D9kAI
YFrB/wSFQMfjGUF/CHPB2qm3QGG6FEE0nH/BOt7oQDPT7kCOQm/BcIPUQAfJz0CjUFnBb8hWQOHn
60Dnyn3BsYZ3QDpYBUE6UorBhMXRQHx6qUCS4XzBz5SeQGzLrkCqFHDBhBECQQM62j6bqIXBLd/P
QPjZPj9lQIDBETfXQNbjDb/D/4nBovivQHJJCEG02bjByynYQF+87UBBZ7PBhZ6iQFBv7EC8L67B
tO3cQGSPKEEfarXB7L3yQAJjLUE4V6jByVEDQYehF0EoTrDBScmUQL2ZJ0GfLK7BPieGQLWfFUGQ
k6PBSSyoQDoiLEF+1qDBRoyEQI3cH0CIravBvdhVQM3VwT9VgKHBzjeoQIE+d0B6YYjBOg7BQGYG
mUDQDZPBvHu/QNV4Q0BerJ/BjgpWQESaVEAce5PBnrGXQE4aoD9mNI/B0NVmQDz+rUDDQIfBgxR/
QKzKxEBRnJLB4cVTQFf8hEBz+KTBaVUJQT9V8kDv5ZPBdOf0QKYB4kClh4zBx1YCQVE/BEF+B53B
oNS6QFGd/EBcpZfBUlKTQFJSKL8/KKbBr13MQHimTz8GjKzBSHzVQN/Qzb8lMK3BO2vIQKjZ50B1
Mo7BEmbYQC1FB0Hr7p7B+1ijQEFxIz9HBKjB5UCsQBfE479A0qjBJpDlQMF+n76wBq/Bn0bZQMhR
uz9MEpDB/piqQPaeAkE38WLBwoyaQNuXDUFKbnfBEw3LQJbM4UBTKGjBXgCGQIIm+kAhKoPBLUK4
QD7/wECOE3jBEw6mQGdo1kClZYbBhOrhQBpOuT6D6YfBw6u9QPr+AEFCj7HBg7DpQHQJIkGv6a3B
KAOfQJO0H0H34abBZcaJQEp46z8VhaTBYRSjQMp/kEBaao/BDtKiQFVNJ0AJ5pvBUcGHQPu+b0A4
XpfBDxHIQMhjEkE6K6nBzDWvQKX22T8sJJPB38yLQFPrtkB2KIzBfnT3QOcDAUDQhpTB0t11QPmt
k0AQ2p/Bsq+cQLFjQcBrGqfByqMGQbitE750GbPBVD8aQRzS7UDyiJLBIfz/QADm0EB0jYXBRukN
QR6ACkHkoaLBBgSZQKXX/kBdV5nBV+NnQCP8Sb8fsaLB9F/YQOkG5z8/G67BSsToQKkiHsBVIK/B
CAa6QOWfDkFDo1jBEi+PQBIZ90D3dlrBFLaCQPrUGUEYM3PBN6+1QIA2FUGMp3/BJsfnQMtg8EA5
QG/B8s/TQOsp0UBKR1nBCDBVQBxy60CmFn7BvZ11QCk9BUHrcIrBeKrRQO9yqkBGsHzBaj2eQGp3
r0CPGHDBjlECQVtrVj6OIofBbIzUQLWIJz9vHYDBnMjSQH2aEr+vmYrBB/SxQJCeCEEy7rjBN8Pa
QLd/70ARV7PB0eWkQFh17ECaYa7BN6vcQL6OKUEtLLXB5j/xQOh6LkG4+6fBG30DQScoGUH58K/B
VSiUQDhsJ0G6T67BlLKFQPwTFUF626PBniWmQPMHLEEM3KDBRwuEQIiwH0CQcKvBeuNVQLb+wD+g
NKHBt4KpQGnMeEBUX4jBsonBQMShmUCTMJPBTr2/QDaYQkDCk5/BVWNXQF7tVEAXP5PBJ+2XQMVI
nT+5LI/BE1xnQP8QrkC0Y4fBWQuAQIfuxEDuuJLBobZTQJ0/hEAg0aTB

> <OMEGA_E>
wPGvPACRtDw=

> <OMEGA_NBR>
     33598

$$$$
50167948
  -OEChem-04172616093D

 76 78  0     1  0  0  0  0  0999 V2000
    8.6759    7.4690  -18.2683 C   0  0  0  0  0  0  0  0  0  0  0  0
    7.6974    7.0583  -17.3428 C   0  0  0  0  0  0  0  0  0  0  0  0
    8.2964    7.8615  -19.5613 C   0  0  0  0  0  0  0  0  0  0  0  0
    5.9564    7.5531  -18.9617 C   0  0  0  0  0  0  0  0  0  0  0  0
    6.4065    0.7855  -21.5693 C   0  0  0  0  0  0  0  0  0  0  0  0
    4.6018   -0.6624  -20.7831 C   0  0  0  0  0  0  0  0  0  0  0  0
    6.6732   -1.6376  -21.6250 C   0  0  0  0  0  0  0  0  0  0  0  0
    6.3165    7.1377  -17.6697 C   0  0  0  0  0  0  0  0  0  0  0  0
    6.9358    7.8346  -19.9189 C   0  0  0  0  0  0  0  0  0  0  0  0
    5.1155    0.6286  -21.0178 C   0  0  0  0  0  0  0  0  0  0  0  0
    7.1889   -0.3473  -21.8595 C   0  0  0  0  0  0  0  0  0  0  0  0
    5.3766   -1.7937  -21.0947 C   0  0  0  0  0  0  0  0  0  0  0  0
    6.7936    1.4247  -18.0515 C   0  0  0  0  0  0  0  0  0  0  0  0
    5.2205    8.2149  -14.1749 C   0  0  0  0  0  0  0  0  0  0  0  0
    4.8432    8.8786  -15.5080 C   0  0  0  0  0  0  0  0  0  0  0  0
    6.2099    7.0598  -14.3856 C   0  0  0  0  0  0  0  0  0  0  0  0
    4.2137    7.8443  -16.4435 C   0  0  0  0  0  0  0  0  0  0  0  0
    5.6738    6.0247  -15.4033 C   0  0  0  0  0  0  0  0  0  0  0  0
    5.1837    6.6702  -16.7356 C   0  0  0  0  0  0  0  0  0  0  0  0
    7.0618    0.4206  -16.9348 C   0  0  0  0  0  0  0  0  0  0  0  0
    5.5678    9.3365  -23.1732 C   0  0  0  0  0  0  0  0  0  0  0  0
    7.4227   10.2984  -21.7576 C   0  0  0  0  0  0  0  0  0  0  0  0
    5.0858   10.0421  -20.8086 C   0  0  0  0  0  0  0  0  0  0  0  0
    6.5119    7.9717  -21.3522 C   0  0  0  0  0  0  0  0  0  0  0  0
    4.3205    1.8395  -20.5901 C   0  0  0  0  0  0  0  0  0  0  0  0
    5.0807    4.4852  -17.8942 C   0  0  0  0  0  0  0  0  0  0  0  0
    5.0904    2.6089  -19.4977 C   0  0  1  0  0  0  0  0  0  0  0  0
    4.2379    3.7346  -18.9202 C   0  0  2  0  0  0  0  0  0  0  0  0
    6.1511    9.4162  -21.7487 C   0  0  0  0  0  0  0  0  0  0  0  0
    5.4765    1.6900  -18.4087 N   0  0  0  0  0  0  0  0  0  0  0  0
    4.3550    5.6831  -17.4618 N   0  3  0  0  0  0  0  0  0  0  0  0
    7.7292    2.0484  -18.5415 O   0  0  0  0  0  0  0  0  0  0  0  0
    3.8493    4.6210  -19.9713 O   0  0  0  0  0  0  0  0  0  0  0  0
    8.4394   -0.1963  -22.3511 F   0  0  0  0  0  0  0  0  0  0  0  0
    4.8793   -3.0301  -20.8704 F   0  0  0  0  0  0  0  0  0  0  0  0
    9.7175    7.4820  -17.9834 H   0  0  0  0  0  0  0  0  0  0  0  0
    7.9985    6.6799  -16.3770 H   0  0  0  0  0  0  0  0  0  0  0  0
    9.0414    8.1811  -20.2749 H   0  0  0  0  0  0  0  0  0  0  0  0
    4.9125    7.6561  -19.2186 H   0  0  0  0  0  0  0  0  0  0  0  0
    6.7926    1.7744  -21.7682 H   0  0  0  0  0  0  0  0  0  0  0  0
    3.6137   -0.7828  -20.3641 H   0  0  0  0  0  0  0  0  0  0  0  0
    7.2718   -2.5074  -21.8518 H   0  0  0  0  0  0  0  0  0  0  0  0
    5.6827    8.9670  -13.5186 H   0  0  0  0  0  0  0  0  0  0  0  0
    4.3092    7.8235  -13.6991 H   0  0  0  0  0  0  0  0  0  0  0  0
    4.1224    9.6883  -15.3214 H   0  0  0  0  0  0  0  0  0  0  0  0
    5.7471    9.2934  -15.9780 H   0  0  0  0  0  0  0  0  0  0  0  0
    7.1602    7.4684  -14.7598 H   0  0  0  0  0  0  0  0  0  0  0  0
    6.3810    6.5569  -13.4223 H   0  0  0  0  0  0  0  0  0  0  0  0
    3.3029    7.4456  -15.9730 H   0  0  0  0  0  0  0  0  0  0  0  0
    3.9516    8.3347  -17.3926 H   0  0  0  0  0  0  0  0  0  0  0  0
    6.4796    5.3128  -15.6354 H   0  0  0  0  0  0  0  0  0  0  0  0
    4.8308    5.4873  -14.9444 H   0  0  0  0  0  0  0  0  0  0  0  0
    8.1387    0.3983  -16.7119 H   0  0  0  0  0  0  0  0  0  0  0  0
    6.5070    0.7186  -16.0329 H   0  0  0  0  0  0  0  0  0  0  0  0
    6.7327   -0.5793  -17.2541 H   0  0  0  0  0  0  0  0  0  0  0  0
    4.6642    8.7093  -23.1654 H   0  0  0  0  0  0  0  0  0  0  0  0
    5.3091   10.3477  -23.5204 H   0  0  0  0  0  0  0  0  0  0  0  0
    6.3140    8.8959  -23.8507 H   0  0  0  0  0  0  0  0  0  0  0  0
    7.8379   10.3543  -20.7405 H   0  0  0  0  0  0  0  0  0  0  0  0
    8.1695    9.8581  -22.4346 H   0  0  0  0  0  0  0  0  0  0  0  0
    7.1646   11.3099  -22.1043 H   0  0  0  0  0  0  0  0  0  0  0  0
    5.4892   10.1051  -19.7871 H   0  0  0  0  0  0  0  0  0  0  0  0
    4.8303   11.0510  -21.1646 H   0  0  0  0  0  0  0  0  0  0  0  0
    4.1829    9.4138  -20.8080 H   0  0  0  0  0  0  0  0  0  0  0  0
    7.3373    7.6300  -21.9941 H   0  0  0  0  0  0  0  0  0  0  0  0
    5.6307    7.3344  -21.5176 H   0  0  0  0  0  0  0  0  0  0  0  0
    4.1616    2.4973  -21.4574 H   0  0  0  0  0  0  0  0  0  0  0  0
    3.3473    1.5159  -20.1923 H   0  0  0  0  0  0  0  0  0  0  0  0
    5.2697    3.8358  -17.0267 H   0  0  0  0  0  0  0  0  0  0  0  0
    6.0387    4.7787  -18.3482 H   0  0  0  0  0  0  0  0  0  0  0  0
    5.9950    3.0444  -19.9472 H   0  0  0  0  0  0  0  0  0  0  0  0
    3.3543    3.3063  -18.4244 H   0  0  0  0  0  0  0  0  0  0  0  0
    4.7486    1.2319  -17.8984 H   0  0  0  0  0  0  0  0  0  0  0  0
    3.6097    5.3970  -16.8596 H   0  0  0  0  0  0  0  0  0  0  0  0
    3.9760    6.1290  -18.2727 H   0  0  0  0  0  0  0  0  0  0  0  0
    3.3250    4.1484  -20.6071 H   0  0  0  0  0  0  0  0  0  0  0  0
  1  2  2  0  0  0  0
  1  3  1  0  0  0  0
  2  8  1  0  0  0  0
  3  9  2  0  0  0  0
  4  8  2  0  0  0  0
  4  9  1  0  0  0  0
  5 10  1  0  0  0  0
  5 11  2  0  0  0  0
  6 10  2  0  0  0  0
  6 12  1  0  0  0  0
  7 11  1  0  0  0  0
  7 12  2  0  0  0  0
  8 19  1  0  0  0  0
  9 24  1  0  0  0  0
 10 25  1  0  0  0  0
 11 34  1  0  0  0  0
 12 35  1  0  0  0  0
 13 20  1  0  0  0  0
 13 30  1  0  0  0  0
 13 32  2  0  0  0  0
 14 15  1  0  0  0  0
 14 16  1  0  0  0  0
 15 17  1  0  0  0  0
 16 18  1  0  0  0  0
 17 19  1  0  0  0  0
 18 19  1  0  0  0  0
 19 31  1  0  0  0  0
 21 29  1  0  0  0  0
 22 29  1  0  0  0  0
 23 29  1  0  0  0  0
 24 29  1  0  0  0  0
 25 27  1  0  0  0  0
 26 28  1  0  0  0  0
 26 31  1  0  0  0  0
 27 28  1  0  0  0  0
 27 30  1  0  0  0  0
 28 33  1  0  0  0  0
  1 36  1  0  0  0  0
  2 37  1  0  0  0  0
  3 38  1  0  0  0  0
  4 39  1  0  0  0  0
  5 40  1  0  0  0  0
  6 41  1  0  0  0  0
  7 42  1  0  0  0  0
 14 43  1  0  0  0  0
 14 44  1  0  0  0  0
 15 45  1  0  0  0  0
 15 46  1  0  0  0  0
 16 47  1  0  0  0  0
 16 48  1  0  0  0  0
 17 49  1  0  0  0  0
 17 50  1  0  0  0  0
 18 51  1  0  0  0  0
 18 52  1  0  0  0  0
 20 53  1  0  0  0  0
 20 54  1  0  0  0  0
 20 55  1  0  0  0  0
 21 56  1  0  0  0  0
 21 57  1  0  0  0  0
 21 58  1  0  0  0  0
 22 59  1  0  0  0  0
 22 60  1  0  0  0  0
 22 61  1  0  0  0  0
 23 62  1  0  0  0  0
 23 63  1  0  0  0  0
 23 64  1  0  0  0  0
 24 65  1  0  0  0  0
 24 66  1  0  0  0  0
 25 67  1  0  0  0  0
 25 68  1  0  0  0  0
 26 69  1  0  0  0  0
 26 70  1  0  0  0  0
 27 71  1  0  0  0  0
 28 72  1  0  0  0  0
 30 73  1  0  0  0  0
 31 74  1  0  0  0  0
 31 75  1  0  0  0  0
 33 76  1  0  0  0  0
M  CHG  1  31   1
M  END
> <OMEGA_C>
WtAKQegB70BqJZLBHFH2QDfd4UD3vYrB370EQXKR+0CWfZzBl5q+QMWy8UCQsZfBxgHNQHsZST8G
jqzBLEKTQGyRKb/CQ6bBhorVQAac0b8DAK3BmSDKQCBo5ECEW43BIPLdQBW1+kDuWZ/BgrKjQO3p
ID9jJKjBwQvmQBnNsb434K7BwQysQDuX5b//wajBMmXZQKFbtj98aZDBnA6nQA5wA0E0zGLBQ/ua
QKkODkHhIHjBiLfGQBjq4UA3K2bBtNaGQGsE+0BGjIPBsI+1QBDKwEADdHbBPeGlQKNy1UBv4oXB
M/rhQP5c1z53eofBbyuyQGliFUGlYrnBkYbtQCPGJEGCD67BOb+iQHWsIEH/d6bBe2HQQJEY/0Bd
0arBX0GKQIR16z+auKTB0pSiQPyGj0BdJ4/ByuSiQBX4JkBW+5vBzpyHQJ8Db0ChXJfBv9XEQJKo
FkFc/a3BWj+vQGxQ2D/uRJPBZlyLQKzbtUDFsYvB6lX3QDoZA0DwVJTBlFt2QB/fk0A8xZ/BqgcH
QeIHSb4nz7LBGCOcQKLsQcCs9qbBEnsbQVxs70AP3o/B9vP/QBLC1UAwBIPBu6kQQa/lAkHmMqLB
zjKdQNz+9EDEv5nBulzZQI4e4z9QJa7BD0dnQC1nSL+/6aLBUrLoQK55IMBv0K7Bjti1QNB4D0EU
TFjBKuWJQMZZ+kCYL1vB7eqDQHADG0GbJHXBbOi3QJSxFEG5pX/BWiDlQNP87kAAKGzBAzHMQGTS
0UDJwVbB+mFTQFxC7kBIkX/Bk+Z8QCJbBUH4I4vBQVnPQKACqkC5KnrB/JWaQA+Yr0ApHG/BUTgC
QRnryz4QsoXBIjnQQKv3Nz9tQ4DBfnLXQEdKFL9XCIrBHkGVQDNZC0G+UrnBBOSpQEiQJUGyKbzB
agzKQM9VDkE+zr7Bu8/6QFSrJUF87KXBXbYCQeC6HUEderPBVETlQFn1NEGR1bDBTKevQIeuIUES
TJ7Bi5GaQP3QMEErUanBl9qFQPaeFkHddqbB7srqQJMo9EDR86/BzS60QMCz6kAQJKzBMyyFQBjU
H0CtqKvB8DpWQD4Kwj/BiaHBR6GoQOV9dUDCNojBxTzBQB7rmEAiyZLBL9e/QIXXQkDok5/B8KxW
QC2aU0A3ZZPBSPSXQNeunT//L4/BAAVnQNyzrECM4IbBq3Z+QH0gxEBtLpLBW8xUQLS/hEBK26TB
aWgLQZyc3EDxZpLBbmf0QFA30EAC4YvBxqcIQQ32/EAJA5rBcjvGQI+tAUEX7ZTBFWnJQEKrNz+s
vqzBV4eTQGkGP78GxKTBXITTQPKM2b/+7azBeY/LQFbD40AV9IzBOVvpQBiXCEHkDpvBIx2iQHkP
DD9rWqfBEjHiQGWBz77ceK/BOwmsQIE677/vpKfBmTjbQBIZwj9cBpDBvdOrQP+mA0FHVWPBgSmc
QH0VDkGTPnjBhsTIQIlW4EBrqWfB5B2GQNnD+kB7R4PBEE2yQBn+v0CGknbBH9ikQLI/1UCVFYbB
D4vlQI/d7z4UiIfBdNScQMNDJ0FYZ6jBhi6+QJ4pBUH7ea/Bml7dQG7aKEGFarTBWZXmQHbQHEHV
mKHBpaCIQFcs4D+y6KPBUsOiQMOykEDmvY/BdZqiQGjvJECozJvB2GCHQCn8bUATa5fBrY/HQNsf
HEGzU6vBGauwQLwm2z8J45LBETSLQHz8tkBnZYzBeoT4QFFSBECs15TBcpVzQOfRkUDTBKDBh/QD
QQj2db7gmLTBUZGdQHkHR8AsWqXBOcUaQXQqzUA5i5HBFwn5QL94t0Ca9YXBH9kVQXYwA0EpEp/B
0PimQP1+CEHSUpbBgm/UQC3E2j8Pxq7BeShrQBr2X782lKDBaIjmQHz8I8A8CK/BcgK+QBSOD0EH
F1rBpuGPQCnQ/EBxAVrBqESFQKHjGkFLZ3TBjLG3QAbnFEGyaoDBEZLmQEtE60B9RG/BYkrQQHON
0EAZY1jBRCNUQJTn7UCiFn7BcGh3QCMqBUEJu4rB01nIQKpjpUA67nnB8Y2VQHWfs0Dqg27B5jgE
Qfassj5K54bBHZ7YQOAUSz8Win/BUP/WQLEO/L5MzInBLV+jQPSGN0GAdqXBSFKIQNMkKEHSiq/B
lXOMQB0HHkGWIaLBmnbcQIJt+kDrjrHBjsetQF/m90DvMqnBQaapQOUQBkErnLbBTcb7QDgZIUEs
kbbBgDbIQNw5KUFecrvBl6PjQDRNOUGmtLHBUP/bQJLHKUFLRJzBEmkDQQFtIEFpoqTBIl6BQGPY
F0DY8KrB7yVVQFbJtT/QK6DBE1yqQLcuekA5r4jBXpzAQH1AmkCmv5PBgby+QE7rP0CQ35/BhVtX
QHF2U0AiHpPBDi+aQBlonj9ApY7BrWBkQPrBrUDw+IfB/b2AQKIPxkBF85LBf0JRQMG5gUDi1KTB
j70KQVUv5kDDmJHBLST0QGdY1kAIKYvBinwGQf/MAkERUJnBXz/BQM2YAUHPtJTB0k3GQPlKUT/e
a63BqiqVQHjjP78Z06TBbSbUQHEKyr/ZQ67BeI7JQFBs5UDYe4zBHffiQPlyCkEWoprBKPigQIWw
Ej+lY6fBcPrfQDg6g77MyrDBrKuuQAOM6b89UKjBYTPcQJLKxz98P5DBmwuqQMySAkH4l2HBiJya
QOBlDUFrUHbBH7LHQNng3kCMQ2bBGr+EQJO1+UA9a4LBio+yQLbcvkC84HXBAASkQM0B1UA+iYXB
NKLnQGT4Bj+zu4fBO0HOQOhjK0E6DbTBYLSYQJOcEUEESqzBmazhQBGHBEE+DLLB0sXaQMVeHUHC
zqHBWcGGQMHL3T8kU6PBM8SiQLVWkUDQj4/BMeChQD3MJUB1p5vBATSHQDuZb0ABQpfB9tHIQD5j
F0Hk8azBxUexQC004D9gvZLBcrSKQJ3wtkBG+ovBQMn4QNbrBUAtdZXBXPFzQJrEkkAd3p/BRAQC
QegJh7zwcLbBMWqjQKz0RcAR3aXBYNAaQbEl2kBLmJDBSff6QA16vkA5JoXBdEcTQWkBCUEhOZ7B
jq2gQC41BkHdcpbBYyjPQAFG6j8Lc6/BHDxxQIH1b79oMaDBVtDnQDLXGcDQ47DBIZ+7QJdeDkEi
7lfBcQqOQPO9+UBulVjBvKyDQAIjGkG0UXLBZzK2QMRaFEFwv37BZJblQJfF6kASaG3BmefOQIVV
zkAnJ1fB4VVSQPf460CkU3zBeEtzQP/fBEGAvonBNcDJQG+LpUCPwnnBk2yWQDqcsEBDEG7B20gF
Qf4wyz5Nd4fBvizcQFVeXz/bxH/BZmPYQI6v3b6jtYnBDF/wQFeaL0Eoj7TBtufBQHkBKEHdHbzB
AVq8QEfTOEEPjLDBDo2UQG1bA0GoO6fB3OiGQFIZH0HgzKjBknaMQIRHDkGvXrTBgADeQKhZ7EC4
Ca3BXOTUQKBPAUF9FrrBheQBQU20CEH1pLLBs5jDQAvzJ0FR0p3BVSX5QJT3JUFD86LBjaR4QLBh
FkCkIKrBhBNVQIfXrD+KC5/BjhmrQHG3ekBzn4jBizbAQJqpm0BaopPB/VO9QCj+P0BMFaDBVZ5W
QEfNVUCC95LBJHKbQBI1pT9BM47B9dtjQE3xrEAAk4fBe79/QGRtxkD0bpLBrm1RQLLXgkC2saTB
yCgJQRLs6kCsrpLBfh3zQA/o2ECL9ovBNxQDQYpDBEFQiJrB6z+7QIWP/UDP+ZXBMSPMQLXNVD/I
/azBl0yTQIMuHb8TKabB3kvVQCh+y78YDa3BTEDHQB7L40C+P43BvYbaQHoUCUGqEJzBmDKjQF6u
LD8QY6jBXUjlQE7Umb5HPa/B9jmsQNRf37/EjajBSZ7aQKpMxT/ChpDB3CiuQOmjBEF4hWPBtjic
QM0bDkFaYnjBeKTLQIqo4kAVw2fBUQmFQHUm+UBljoLBeIu1QE+IwEDE93XBVQOkQCsP1EATl4XB
PEHkQBSy7z4WMYjBXAikQBNDB0HfkrHBi1b0QMb7CUGQKrPBOz/HQE3lKkHWO7XBUm3NQE9EG0F/
OKPBgviJQFBw8T8q+6TBjFSiQLrVj0AQUo/BdgejQA+sKUDJT5zB2mWHQAMacEA/fpfBCGnLQF17
FUGfNK/BnGewQOAf3T+DtpPBKeWJQAVytECtT4vBGEb4QBH+B0CN8pTB3yB0QEDSlEDhuJ/BDnQG
QZzDF76MZ7PBN+OcQEezPsASZ6bBkcIZQU3/4UBDzZHB2oH8QB2nwkCfyIXBsxcPQej4C0HtZp/B
vNaZQB+0AEEL95fBWSHYQOTV6D/zyK7B0QFoQFmIO7+pnqLB9oboQEdnHcBJ0q7BGIzAQNYTEUE6
H1vBAU6TQETd/kCzZ1nB94+FQHIFG0EPjnTBFqq2QCeTFEGBBIHB0sPoQJ/n7UCS5G/BGlPUQCn4
00A8XljBwpdVQEs57EBwUnvBibxvQEqYA0GH7InB9uvMQHVqp0BT5XnB0b+aQJZsskDn/mzB54wD
QfwOuj5sRYfBLwrWQOAGQj9xe4DBuY/WQIpP+76qz4rBMN2GQNFdD0Hmxa7BYLmhQI5tBEFcPbrB
iICnQOy970D5ZK3BCDkIQTMKFEGwf7HBMLb3QKYt9UAu/K7BCO/xQGslB0GQ1LvBLFHjQFLzNEFl
hrPBX2DFQCbRJ0Gr4r3BvBCqQAA0M0FImLLB9YatQHbCIEEVtqDBMKfkQLdVKEGENKLBkMuEQLK2
IkCt7KvBAb5VQHO0yD9CvaHBFUCqQE2cdEBipYjB7ATAQKspm0ApG5PBh3m/QPnMRkA9AKDB3xpX
QGhEU0CcfpPBcK6ZQJMPmj8084/BxcNmQMGVqUDqUIbBau93QKb3wkAniJHBZnNSQEDRhUBw0aTB
w2gLQcJf70B6V5HBQdz2QD/84EDdQ4rBVtIFQWx4/UDloJvBW2HAQHY38kAAa5fBLrTMQD/DSD/N
i6zBtz+TQM5DKb/pDabBTpTVQHeg0b9RwKzB5erKQLH+40BsGI3BK3ngQBhb/EDMzJ7BU3KjQAbs
ID+SHKjB4tjlQJgxsr69yK7BMDisQKN/5b9WbKjBZl3ZQClcwD+WE5DBDOKmQCh2A0Hm3mLB4TOb
QOfsDUHOVHjByeXFQPhD4UDI5GXBZf6GQN6h+kCZmYPBT7W0QFQ0wEAaPHbBNfmlQK321EBv14XB
UF3iQJTZ1T4uzYfB6j3rQFGfJUEBTK7BshyhQKsJH0GSw6bBGAmzQOznEkHuY7nBX4rUQOE+/0B5
aarB8QKKQFXa6z/4x6TBPLqiQDeHj0DmQ4/Bx8WiQOViJ0D0FpzBnH6HQIsNb0CLaZfBpw/FQH/k
FUEtAa7BAF+vQL972T/aYpPBy5mLQDrKtUCxy4vB01/3QLCmBEAIdpTBRz51QNfek0Dfx5/BTd0G
QZu8SL6Oy7LBs6GcQLLSQcBVa6bBO/UbQUqQ70Dx2o7BHs//QNGN00AGoILB6fYRQVyGBEElDaHB
hC2fQKBc9UDirpnB6PHYQDPc4j/mN67B8mJnQAfDR7+HqaLB8M/oQHx9IMCngq7BZBG2QKmBD0Fl
hljBx3iJQK8k+0CfM1vBS0uEQMf9GkHyh3XBD0+4QD5jFEER1H/BlMDkQHyt7UDFqGvByInKQD5C
0UAvZFbBmY5TQLAP7kCkqH/BYm59QLgQBUGqOYvB2UDOQM0CqUD+t3nBrUSZQK55r0D0DW/BSpIC
QZq/lT5x4obB/k7UQMZ+NT/QE4DBTB/UQLX9B78ZeYrBFVECQcsSH0Hob7PBHIngQOEaNUGBg7HB
Obf3QDziJ0FiJabBzgiGQF3ME0HAlKbB4X+tQJxKIUG0mp7BxFGWQEGDLkHT+KnB9uOXQBW2B0Ek
J7nBlS6oQNFwIkEag7zBKS7MQEVwDEGZob7Bjs3wQOi19kBANK/BP766QEIc6ECJ9avBXPmEQCSm
H0CkwavBxLJVQAMMwz+slKHBhPeoQJmRdUAyVIjBZEjBQIjlmEAU9JLBkZa/QKh3Q0DauZ/Bsd5W
QMtcU0CPYZPBYEqYQGgdmD+DpI/BNu1mQMeYrECrEofBj75/QKhdxEA1SZLBdllTQNS1hEA706TB
tHHWQOxBB0GgJJ/Bev63QHprAEFIjJfBYQYBQbWNAkFglJ3BS5vwQES24ECC7IzBUvrHQNoiRT9f
E63BpL6TQCrGPL8M8qTBGxrSQMhL0r/RLq7BXwnFQGb06UDVQo7B9YcHQaDG7kBDSZTB5NehQBT3
ET/QQafBECngQIPVq77CfLDBhtKrQIvp6792cajBXzLbQGKRvD+FwY/BJR2uQAnoAUEc2WHBqLed
QOW8DUGv1XXBDDHMQNQU30CtBGjBF/2FQC5h/EBIbYLBhau2QNqmwEBfOHjBKOujQCIR2EBWR4bB
Gy/kQDxQ1T60OofBEek9QcoLAUG+nofBTr8iQfkDG0EUvo7BuQs7QcrSBkGLhZvBR6ceQW5+40B0
AJLB16CIQOvv4D8bV6PB5wCjQN6VkkBtk4/BCYGjQN0UJkAOdpvBzceIQDZpcUANcJfBzCUuQY1D
BUGI/ZDBkdewQDck4D+zW5LBrkaKQCCLuEDkOIzB4wf5QEzv+D9o5ZTBQAZ7QKJzk0BxP6DBNm4C
QWyUEL7D/LXBe16eQN43RsCyOKbBT1fMQO0REEH5IabB74GWQHvlA0FfypjBBrsMQbdxB0ErcqPB
P8r6QFlZzkC4D4bBI5fSQKfR4j+U6K7BIwptQAfiY7+jf6DBfqzkQHp/H8Ab0bDBrIS/QPpEDUH7
mlfBKaSSQIi69kAxAFnBsKyHQNiHGkEc33DBcA25QLzEFEHbaH7BG2HpQB937ECoOm/BWarUQP/u
zECLi1nBGIFVQKBE7kCnOHzB82F0QDEYB0HIa4nBB5nOQA0vqUCHmX3B01ScQOPsr0CNEnDBmGED
QaYyXD7b5YbBsDvZQFKTSD+6y37BdAXTQJeSAr9AP4nBpEBGQeiO40CS84jB1q9JQcAZDkEyN4fB
GPU0QYFGAEG2DYDBcGwXQV2DHkGPP5XB0gYaQe0FGkFlHYfBkMEuQS3ZJ0HhRo7BFw0wQQHQCUGS
OqLByJpGQVcLFEE18JrBbalDQZJx70BN45zBoy8fQeCM0UCIb4rByXQkQYsIz0BgjJjBWTp/QEmR
GECVNqrBmBxXQGmksz8SRJ/B2W+qQLyqfUBwiIjBTvbAQMninEBpaZPBCeW/QL63PkBrp5/B8OJX
QLbvWECnbJPBa++ZQCpBrT8PxI3BFl5kQCDfrkCJi4fBkeh8QC23xkD4wZLBhQ1aQIOFg0A2PaXB
pYHYQB3gCEETtZ7BeX+5QNLVAEEIipfBgB8CQbUNBUF8xZzBw1DxQMv+3kCuNY3BGajHQC5TRz8d
zKzBcwKUQBxMQL+ZsqTBhYjSQIqO0L92B67BwvDFQDRH6UB6bo7B2DoIQd2y8EBk75PBYLahQDLE
Dz8R8abBbiTgQOzOob5ASLDBvVKsQP9H7L/0S6jBFNXbQDPHvD/2zY/Bw16sQFrbAEG+ZWHBiXqe
QKQ9DUGzfnXBFKjJQKQt3EABQmfB3tuGQDOP/EA/kILBl8K1QNdNv0C3g3jBqlWkQNTZ10CkcIbB
g3nlQNDW3T5WM4fBwbw9QUl1/EAZXITBhqYYQbpZA0Gm8XrBjr0mQd4UHEGcs4vBNHIfQblx6kAB
4pDBzyCIQOUl3j9R+qLBKXaiQKJ+kkAblo/BliKjQPfFJUB5RZvBsS2IQKPkcEAMVZfBRcQmQfuk
BEGzqYfB2ESxQCrV4T9DH5LBpFyKQC0RuUDLdYzB8yz5QP5X9T+kR5XBdHp5QB7kkkB4L6DBU0cC
QfZR17043LXBAQKfQJbBRsDdPKbBaLfOQF7sEUFDpqXBeQCYQLL3A0GS+pjBJCAOQX3HC0G0/6HB
FeD6QF8NyUAp+obBT+HRQE6G5D/Fma7BHNRtQGuRar/XOaDBJWXlQBofHsBdsrDBA6y9QEfCC0G8
n1bBHMOPQJFS9UDjOVnB4wCJQARfGkFizHDBNfW6QB7dE0G9cH3BNyzoQFXr6EDVSW3BmJHPQFbw
yECk0VjBIstVQD+27kAz+3zBk094QD2cB0FZh4nBElLOQI5zqEDa133Bx+yaQJzCrUDcP3HBAvsD
Qa0YWj7MJofBL+LbQC8XUz+1qn7ByYPTQHbp+b7N6ojBqU5IQfjg/UAWY4vB8ZxDQdtVCUEzZXzB
P6E9QT2y20BiJIHBSRsIQQXQB0Fq9n7BrO0YQRrV5UC8pnTBXekeQUpnDkErw27Br2gWQSyoIEFw
DY7BPlcsQX24JkFmRoXBdHUxQcCCHUEUpZLBr60hQVczyUDHNo7BUHMpQUh18EAO95fBUo58QPaM
FkDZ1anByxpXQK5Frz+hwZ7BhGWpQIxnfkDTbojB263AQEgAnEBkbJPBwy+/QFOKPkDGl5/BtudW
QEZoWEA5RZPBmMmaQHLTsT+pSI3B2y5jQLUrsEDq6IfBTRF/QGRfx0CeFZPBDU9YQNDKgkBCH6XB

> <OMEGA_E>
MKQLPjAxHj6Q1Cw+SAlDPiCICj5od84+jDnSPg==

> <OMEGA_NBR>
     42123

$$$$
50167949
  -OEChem-04172616093D

 73 75  0     1  0  0  0  0  0999 V2000
    5.7170    8.1772  -18.8811 C   0  0  0  0  0  0  0  0  0  0  0  0
    7.6288    7.4814  -17.5458 C   0  0  0  0  0  0  0  0  0  0  0  0
    4.3135   -0.9229  -20.9689 C   0  0  0  0  0  0  0  0  0  0  0  0
    6.3253    0.4350  -21.2039 C   0  0  0  0  0  0  0  0  0  0  0  0
    7.9666    8.8596  -19.5261 C   0  0  0  0  0  0  0  0  0  0  0  0
    6.3613   -1.9021  -21.8770 C   0  0  0  0  0  0  0  0  0  0  0  0
    6.2271    7.5005  -17.7430 C   0  0  0  0  0  0  0  0  0  0  0  0
    6.5740    8.8555  -19.7862 C   0  0  0  0  0  0  0  0  0  0  0  0
    4.9846    0.3046  -20.7702 C   0  0  0  0  0  0  0  0  0  0  0  0
    4.9974   -2.0184  -21.5380 C   0  0  0  0  0  0  0  0  0  0  0  0
    7.0268   -0.6748  -21.6986 C   0  0  0  0  0  0  0  0  0  0  0  0
    8.4840    8.1771  -18.4136 C   0  0  0  0  0  0  0  0  0  0  0  0
    6.4186    0.8728  -17.6906 C   0  0  0  0  0  0  0  0  0  0  0  0
    5.4270    7.9313  -13.9892 C   0  0  0  0  0  0  0  0  0  0  0  0
    4.8144    8.7199  -15.1617 C   0  0  0  0  0  0  0  0  0  0  0  0
    6.4959    6.9460  -14.4873 C   0  0  0  0  0  0  0  0  0  0  0  0
    4.1989    7.7597  -16.2017 C   0  0  0  0  0  0  0  0  0  0  0  0
    5.9394    6.0067  -15.5926 C   0  0  0  0  0  0  0  0  0  0  0  0
    5.2486    6.7629  -16.7884 C   0  0  0  0  0  0  0  0  0  0  0  0
    6.5289    0.2551  -16.2968 C   0  0  0  0  0  0  0  0  0  0  0  0
    4.9735   10.6572  -20.5645 C   0  0  0  0  0  0  0  0  0  0  0  0
    5.2394    8.5243  -21.9121 C   0  0  0  0  0  0  0  0  0  0  0  0
    7.0539   10.2592  -21.9120 C   0  0  0  0  0  0  0  0  0  0  0  0
    4.2287    1.5017  -20.2102 C   0  0  0  0  0  0  0  0  0  0  0  0
    5.2822    4.6404  -18.1240 C   0  0  0  0  0  0  0  0  0  0  0  0
    5.0980    2.3900  -19.2622 C   0  0  1  0  0  0  0  0  0  0  0  0
    4.3938    3.7414  -18.9969 C   0  0  2  0  0  0  0  0  0  0  0  0
    5.9768    9.5654  -21.0257 C   0  0  0  0  0  0  0  0  0  0  0  0
    5.3247    1.6928  -17.9752 N   0  0  0  0  0  0  0  0  0  0  0  0
    4.4804    5.7748  -17.6032 N   0  3  0  0  0  0  0  0  0  0  0  0
    7.3467    0.7298  -18.4785 O   0  0  0  0  0  0  0  0  0  0  0  0
    4.1449    4.4258  -20.2289 O   0  0  0  0  0  0  0  0  0  0  0  0
    4.3462   -3.1834  -21.7580 F   0  0  0  0  0  0  0  0  0  0  0  0
    8.3370   -0.5516  -22.0120 F   0  0  0  0  0  0  0  0  0  0  0  0
   10.6240    8.1898  -18.0314 I   0  0  0  0  0  0  0  0  0  0  0  0
    4.6523    8.1761  -19.0626 H   0  0  0  0  0  0  0  0  0  0  0  0
    8.0443    6.9254  -16.7183 H   0  0  0  0  0  0  0  0  0  0  0  0
    3.2763   -1.0229  -20.6851 H   0  0  0  0  0  0  0  0  0  0  0  0
    6.8129    1.3973  -21.1535 H   0  0  0  0  0  0  0  0  0  0  0  0
    8.6344    9.3912  -20.1878 H   0  0  0  0  0  0  0  0  0  0  0  0
    6.8946   -2.7537  -22.2730 H   0  0  0  0  0  0  0  0  0  0  0  0
    5.8894    8.6372  -13.2835 H   0  0  0  0  0  0  0  0  0  0  0  0
    4.6309    7.3703  -13.4780 H   0  0  0  0  0  0  0  0  0  0  0  0
    4.0291    9.3872  -14.7770 H   0  0  0  0  0  0  0  0  0  0  0  0
    5.6008    9.3189  -15.6441 H   0  0  0  0  0  0  0  0  0  0  0  0
    7.3431    7.5158  -14.8967 H   0  0  0  0  0  0  0  0  0  0  0  0
    6.8402    6.3349  -13.6399 H   0  0  0  0  0  0  0  0  0  0  0  0
    3.3963    7.1832  -15.7184 H   0  0  0  0  0  0  0  0  0  0  0  0
    3.7779    8.3545  -17.0257 H   0  0  0  0  0  0  0  0  0  0  0  0
    6.7740    5.4134  -15.9945 H   0  0  0  0  0  0  0  0  0  0  0  0
    5.1989    5.3345  -15.1345 H   0  0  0  0  0  0  0  0  0  0  0  0
    7.4941   -0.2635  -16.2002 H   0  0  0  0  0  0  0  0  0  0  0  0
    6.4616    1.0486  -15.5379 H   0  0  0  0  0  0  0  0  0  0  0  0
    5.7099   -0.4642  -16.1488 H   0  0  0  0  0  0  0  0  0  0  0  0
    4.5492   11.1616  -21.4451 H   0  0  0  0  0  0  0  0  0  0  0  0
    4.1641   10.1897  -19.9845 H   0  0  0  0  0  0  0  0  0  0  0  0
    5.4963   11.3937  -19.9367 H   0  0  0  0  0  0  0  0  0  0  0  0
    4.8146    9.0275  -22.7932 H   0  0  0  0  0  0  0  0  0  0  0  0
    5.9508    7.7516  -22.2388 H   0  0  0  0  0  0  0  0  0  0  0  0
    4.4305    8.0562  -21.3318 H   0  0  0  0  0  0  0  0  0  0  0  0
    6.5664   10.7425  -22.7716 H   0  0  0  0  0  0  0  0  0  0  0  0
    7.5847   11.0175  -21.3177 H   0  0  0  0  0  0  0  0  0  0  0  0
    7.7715    9.5076  -22.2726 H   0  0  0  0  0  0  0  0  0  0  0  0
    3.8833    2.1214  -21.0508 H   0  0  0  0  0  0  0  0  0  0  0  0
    3.3599    1.1333  -19.6449 H   0  0  0  0  0  0  0  0  0  0  0  0
    5.6798    4.0554  -17.2815 H   0  0  0  0  0  0  0  0  0  0  0  0
    6.1164    5.0278  -18.7274 H   0  0  0  0  0  0  0  0  0  0  0  0
    6.0634    2.5843  -19.7523 H   0  0  0  0  0  0  0  0  0  0  0  0
    3.4490    3.5507  -18.4669 H   0  0  0  0  0  0  0  0  0  0  0  0
    4.6424    1.8190  -17.2552 H   0  0  0  0  0  0  0  0  0  0  0  0
    3.7489    5.4024  -17.0320 H   0  0  0  0  0  0  0  0  0  0  0  0
    4.0815    6.2576  -18.3828 H   0  0  0  0  0  0  0  0  0  0  0  0
    3.5957    3.8866  -20.7859 H   0  0  0  0  0  0  0  0  0  0  0  0
  1  7  1  0  0  0  0
  1  8  2  0  0  0  0
  2  7  2  0  0  0  0
  2 12  1  0  0  0  0
  3  9  1  0  0  0  0
  3 10  2  0  0  0  0
  4  9  2  0  0  0  0
  4 11  1  0  0  0  0
  5  8  1  0  0  0  0
  5 12  2  0  0  0  0
  6 10  1  0  0  0  0
  6 11  2  0  0  0  0
  7 19  1  0  0  0  0
  8 28  1  0  0  0  0
  9 24  1  0  0  0  0
 10 33  1  0  0  0  0
 11 34  1  0  0  0  0
 12 35  1  0  0  0  0
 13 20  1  0  0  0  0
 13 29  1  0  0  0  0
 13 31  2  0  0  0  0
 14 15  1  0  0  0  0
 14 16  1  0  0  0  0
 15 17  1  0  0  0  0
 16 18  1  0  0  0  0
 17 19  1  0  0  0  0
 18 19  1  0  0  0  0
 19 30  1  0  0  0  0
 21 28  1  0  0  0  0
 22 28  1  0  0  0  0
 23 28  1  0  0  0  0
 24 26  1  0  0  0  0
 25 27  1  0  0  0  0
 25 30  1  0  0  0  0
 26 27  1  0  0  0  0
 26 29  1  0  0  0  0
 27 32  1  0  0  0  0
  1 36  1  0  0  0  0
  2 37  1  0  0  0  0
  3 38  1  0  0  0  0
  4 39  1  0  0  0  0
  5 40  1  0  0  0  0
  6 41  1  0  0  0  0
 14 42  1  0  0  0  0
 14 43  1  0  0  0  0
 15 44  1  0  0  0  0
 15 45  1  0  0  0  0
 16 46  1  0  0  0  0
 16 47  1  0  0  0  0
 17 48  1  0  0  0  0
 17 49  1  0  0  0  0
 18 50  1  0  0  0  0
 18 51  1  0  0  0  0
 20 52  1  0  0  0  0
 20 53  1  0  0  0  0
 20 54  1  0  0  0  0
 21 55  1  0  0  0  0
 21 56  1  0  0  0  0
 21 57  1  0  0  0  0
 22 58  1  0  0  0  0
 22 59  1  0  0  0  0
 22 60  1  0  0  0  0
 23 61  1  0  0  0  0
 23 62  1  0  0  0  0
 23 63  1  0  0  0  0
 24 64  1  0  0  0  0
 24 65  1  0  0  0  0
 25 66  1  0  0  0  0
 25 67  1  0  0  0  0
 26 68  1  0  0  0  0
 27 69  1  0  0  0  0
 29 70  1  0  0  0  0
 30 71  1  0  0  0  0
 30 72  1  0  0  0  0
 32 73  1  0  0  0  0
M  CHG  1  30   1
M  END
> <OMEGA_C>
ffG2QPbVAkGADJfBJB/0QKxn70C3XYzBKQiKQIlCbL9VwKfBzWjKQES23j6GoanBPu7+QAHBDUGJ
NZzBApDLQJx2878eBK/BOETHQPQD8EDB8Y3B113SQASwDUEtSp7BcIGfQDbzmz5QKabB2OqfQC8t
AcDPTazBOdvgQO29LL/Llq3BqL4HQVTVAkEbT5PBFWXNQD5wXz9yho3BWKqtQIjN/UC901/BiA+a
QKaEC0FPlnLBYN7PQOJF3kDey2fBCF2GQDRP+EAVnYHB7A++QIA2wEAne3nBqPSnQGVp2ECxTobB
eOzQQMqegj6/X4LBwyafQNWDKkEMhKTB76inQIRjCEH6S6/Bb7nhQNslJEHOS6/Ba1GHQII2wD96
rqHBGQipQMx9lED4/ZDBkyKjQG32GED+GJrBMpqMQG9zb0CR+ZfB2UG/QPoLGUGhNKjBRWSqQIau
2D9FzY/BJV+PQDbLuEBY04zBVhjrQPjVOj/705PBo6KEQH+gjUDa1KHBcRSLQHK8S8B7EK7BdGQF
QZE3Db+CGLDB2vspQToJA0FYQJDB69+UQGHRAkElgJjBd7UAQdqc3UAsv4XBZ65RQNLsgr8Ee6XB
BwPaQC7csj92OqnBmSYKQT5CFkGvgKHBSaDcQP87MMAoL7LBwXW8QAIyCkE7iVTBKjCUQIrZ60C2
pVfBle6AQB8yFkGZbmzBgjmzQF0aFUFnTnrB2vrqQDWB8EC9WG7BJuPaQOO3ykAZPVrBVF1ZQKLc
5UB4fnvBAslxQBesBUGaNIjBZsTYQF86rUCf6X/BdF2mQBe0qkALJ3LBD9DvQHHjhr4ZmoHBFcXO
QEk3hj8Tm3jBxre2QJau7b6uMIHBIZORQN+VMkGmj6vBdkCFQAoJI0E34J/Bm+GvQMNMNkFGfp/B
1RCaQHRwEEGAWLbBSW2+QPcM+EAK6bHBBseNQEjmAEGZp6rB6h/SQELhK0EoLLbBo7XyQM1HMEGN
iqrBf7D4QBgfGEEvLrLBMod4QIrFB0D4Z6jBsghXQAwRkT/FKJ3B3sC1QAjGgUCIQIrBn7nDQNzj
oECj0ZXBbAfCQPxlJUCtBJ7B2rtcQCQ/Y0ApvJPBno6UQC3U6D+NCorBje1vQFXgrECcQYjBrpuC
QHY+yED+D5PBmR9mQMC+eEBySabBr7izQNllBEGYSpbBPL/yQOeZ8UAtb4zBxl20QGKe2z03Yq7B
zWGSQK5+Xb/ulp7BLHj6QNfNEEE7q5vBmr2/QPXUD8ByA6rBlbfFQMR08UB8qI3BFa3NQOZoEEFO
aJ3BIoKZQB44ej4HXaXBszTHQNzjkb8tv7DBOXClQKf2BsAD6qDBNVYGQWMTBUHTPJPBD87XQFU0
uj8zvI7BoIivQAlr90DopF7B7huaQAMfCUEKVHDBa/XRQI6+2UArCmjBbCmGQAT09EB5xYDBxc6/
QINYvUANVXrBLPqnQJMr10CSMIbBLNLdQA8xKD8RZoTBL1mYQMI9LUFKZqLBKQWhQNp/DEEIMq7B
acPZQFnsKEF5263BVEqFQL9Wyz9Xx6LB6eGpQImXlkBnKJLBknajQHDaHkDw+JvB3RqNQPaSdEAZ
NpnB3cK4QISfHEEm1KbBlV6uQBt24z8V7pHBOoyPQJh7uEBMCI3B/eL2QKrU2D/qapTB+BqDQOE6
kUD4x6LBGWbgQCcWo7+AfLnBV2KeQL3WSsCubJrBcrwoQdDFBUGPtJDBgX2RQJIhBEEQeZfBDaYA
QXCd3kDBMobBD3y6QGhVdT9RerPBoo18QPh2Qr/xnJfBBV8HQVovGkGE3KDBQi3OQKbuTMD006vB
JIG+QBuHBkH081LBDQuXQDLn40BBm1bBadeAQA8TE0FwLmnBe0WyQMt6E0Fq2HfBGTjsQIZl7UB1
bW7BOkLeQKfqxEDiQFvBTgBbQPTn4EAN+nnBiqtuQEGNBEFC9obBT4/aQO/Yq0Cu2YDBtRepQONn
pkBKUXPBpcb/QAJtyD6Bd4PBYIjTQPQioj/EFHvBBXjKQJaChb5dwYTBrH2JQOjqNUE5GKnBdtd+
QBLuJEHax53BbSupQDymOEGwLp3B2iSSQJwoFUG45LTBHf+3QHa8AEGPVbHBUxyIQEYuBEHjkqnB
quzIQF04MUGOYLTB/8zqQHa1NEF15qjBPuLwQNWGHUHgQbHBbuV7QFr8BkB4T6rBTwRPQD+OtT8n
Sp7BlwO5QMvSgkC974vB0svCQCqDpUCMIZfBCbXAQJUwLEDvk6DBGixfQC9FZkB0w5TB1k2WQBq4
wT/iGI3ByPxyQIA7qkCzdYjBUw2BQBkryUBE0ZLBkadiQPUagECUN6fB

> <OMEGA_E>
GMz/PjiLED8=

> <OMEGA_NBR>
     44754

$$$$
50167951
  -OEChem-04172616093D

 73 75  0     1  0  0  0  0  0999 V2000
    5.8299    7.8850  -18.9623 C   0  0  0  0  0  0  0  0  0  0  0  0
    7.6449    7.0613  -17.5688 C   0  0  0  0  0  0  0  0  0  0  0  0
    6.3860    0.8126  -21.5833 C   0  0  0  0  0  0  0  0  0  0  0  0
    4.5957   -0.6427  -20.7775 C   0  0  0  0  0  0  0  0  0  0  0  0
    8.1380    8.2666  -19.6279 C   0  0  0  0  0  0  0  0  0  0  0  0
    6.6695   -1.6080  -21.6241 C   0  0  0  0  0  0  0  0  0  0  0  0
    6.2551    7.2378  -17.7789 C   0  0  0  0  0  0  0  0  0  0  0  0
    6.7557    8.4446  -19.8735 C   0  0  0  0  0  0  0  0  0  0  0  0
    5.0991    0.6492  -21.0260 C   0  0  0  0  0  0  0  0  0  0  0  0
    7.1748   -0.3155  -21.8697 C   0  0  0  0  0  0  0  0  0  0  0  0
    5.3772   -1.7701  -21.0847 C   0  0  0  0  0  0  0  0  0  0  0  0
    8.5740    7.5773  -18.4863 C   0  0  0  0  0  0  0  0  0  0  0  0
    6.7854    1.4769  -18.0134 C   0  0  0  0  0  0  0  0  0  0  0  0
    5.3328    8.1712  -14.1921 C   0  0  0  0  0  0  0  0  0  0  0  0
    4.8203    8.8448  -15.4747 C   0  0  0  0  0  0  0  0  0  0  0  0
    6.3508    7.0658  -14.5147 C   0  0  0  0  0  0  0  0  0  0  0  0
    4.1804    7.8023  -16.3962 C   0  0  0  0  0  0  0  0  0  0  0  0
    5.7639    6.0312  -15.5015 C   0  0  0  0  0  0  0  0  0  0  0  0
    5.1866    6.6899  -16.7987 C   0  0  0  0  0  0  0  0  0  0  0  0
    7.0619    0.3710  -16.9997 C   0  0  0  0  0  0  0  0  0  0  0  0
    5.0268   10.0459  -20.8471 C   0  0  0  0  0  0  0  0  0  0  0  0
    5.8315    8.0462  -22.1690 C   0  0  0  0  0  0  0  0  0  0  0  0
    7.3332   10.0356  -21.8112 C   0  0  0  0  0  0  0  0  0  0  0  0
    4.3059    1.8558  -20.5938 C   0  0  0  0  0  0  0  0  0  0  0  0
    5.0932    4.5011  -17.9208 C   0  0  0  0  0  0  0  0  0  0  0  0
    5.0863    2.6163  -19.5042 C   0  0  1  0  0  0  0  0  0  0  0  0
    4.2412    3.7428  -18.9264 C   0  0  2  0  0  0  0  0  0  0  0  0
    6.2489    9.1363  -21.1559 C   0  0  0  0  0  0  0  0  0  0  0  0
    5.4728    1.6929  -18.4185 N   0  0  0  0  0  0  0  0  0  0  0  0
    4.3657    5.7001  -17.5099 N   0  3  0  0  0  0  0  0  0  0  0  0
    7.7259    2.0543  -18.5489 O   0  0  0  0  0  0  0  0  0  0  0  0
    3.8450    4.6243  -19.9785 O   0  0  0  0  0  0  0  0  0  0  0  0
    8.4217   -0.1570  -22.3675 F   0  0  0  0  0  0  0  0  0  0  0  0
    4.8921   -3.0081  -20.8435 F   0  0  0  0  0  0  0  0  0  0  0  0
   10.4383    7.3285  -18.1904 Br  0  0  0  0  0  0  0  0  0  0  0  0
    4.7733    7.9536  -19.1753 H   0  0  0  0  0  0  0  0  0  0  0  0
    7.9921    6.5264  -16.6972 H   0  0  0  0  0  0  0  0  0  0  0  0
    6.7641    1.8030  -21.7894 H   0  0  0  0  0  0  0  0  0  0  0  0
    3.6110   -0.7669  -20.3517 H   0  0  0  0  0  0  0  0  0  0  0  0
    8.8621    8.6640  -20.3238 H   0  0  0  0  0  0  0  0  0  0  0  0
    7.2729   -2.4750  -21.8492 H   0  0  0  0  0  0  0  0  0  0  0  0
    5.8149    8.9288  -13.5568 H   0  0  0  0  0  0  0  0  0  0  0  0
    4.4814    7.7292  -13.6539 H   0  0  0  0  0  0  0  0  0  0  0  0
    4.0715    9.6064  -15.2116 H   0  0  0  0  0  0  0  0  0  0  0  0
    5.6625    9.3233  -15.9960 H   0  0  0  0  0  0  0  0  0  0  0  0
    7.2449    7.5224  -14.9643 H   0  0  0  0  0  0  0  0  0  0  0  0
    6.6302    6.5531  -13.5825 H   0  0  0  0  0  0  0  0  0  0  0  0
    3.3296    7.3404  -15.8740 H   0  0  0  0  0  0  0  0  0  0  0  0
    3.8226    8.3047  -17.3071 H   0  0  0  0  0  0  0  0  0  0  0  0
    6.5600    5.3284  -15.7885 H   0  0  0  0  0  0  0  0  0  0  0  0
    4.9554    5.4827  -14.9960 H   0  0  0  0  0  0  0  0  0  0  0  0
    8.1482    0.2403  -16.8860 H   0  0  0  0  0  0  0  0  0  0  0  0
    6.6221    0.6449  -16.0293 H   0  0  0  0  0  0  0  0  0  0  0  0
    6.6144   -0.5699  -17.3526 H   0  0  0  0  0  0  0  0  0  0  0  0
    4.6837   10.5274  -21.7747 H   0  0  0  0  0  0  0  0  0  0  0  0
    4.2128    9.4363  -20.4278 H   0  0  0  0  0  0  0  0  0  0  0  0
    5.3189   10.8178  -20.1198 H   0  0  0  0  0  0  0  0  0  0  0  0
    5.4668    8.5222  -23.0912 H   0  0  0  0  0  0  0  0  0  0  0  0
    6.6990    7.4114  -22.4026 H   0  0  0  0  0  0  0  0  0  0  0  0
    5.0317    7.4286  -21.7343 H   0  0  0  0  0  0  0  0  0  0  0  0
    6.9230   10.5038  -22.7182 H   0  0  0  0  0  0  0  0  0  0  0  0
    7.6387   10.8180  -21.1010 H   0  0  0  0  0  0  0  0  0  0  0  0
    8.2061    9.4218  -22.0783 H   0  0  0  0  0  0  0  0  0  0  0  0
    4.1429    2.5168  -21.4578 H   0  0  0  0  0  0  0  0  0  0  0  0
    3.3346    1.5320  -20.1915 H   0  0  0  0  0  0  0  0  0  0  0  0
    5.2869    3.8655  -17.0442 H   0  0  0  0  0  0  0  0  0  0  0  0
    6.0487    4.7872  -18.3846 H   0  0  0  0  0  0  0  0  0  0  0  0
    5.9911    3.0477  -19.9573 H   0  0  0  0  0  0  0  0  0  0  0  0
    3.3622    3.3194  -18.4185 H   0  0  0  0  0  0  0  0  0  0  0  0
    4.7469    1.1929  -17.9463 H   0  0  0  0  0  0  0  0  0  0  0  0
    3.6179    5.4217  -16.9070 H   0  0  0  0  0  0  0  0  0  0  0  0
    3.9898    6.1346  -18.3284 H   0  0  0  0  0  0  0  0  0  0  0  0
    3.3128    4.1497  -20.6062 H   0  0  0  0  0  0  0  0  0  0  0  0
  1  7  1  0  0  0  0
  1  8  2  0  0  0  0
  2  7  2  0  0  0  0
  2 12  1  0  0  0  0
  3  9  1  0  0  0  0
  3 10  2  0  0  0  0
  4  9  2  0  0  0  0
  4 11  1  0  0  0  0
  5  8  1  0  0  0  0
  5 12  2  0  0  0  0
  6 10  1  0  0  0  0
  6 11  2  0  0  0  0
  7 19  1  0  0  0  0
  8 28  1  0  0  0  0
  9 24  1  0  0  0  0
 10 33  1  0  0  0  0
 11 34  1  0  0  0  0
 12 35  1  0  0  0  0
 13 20  1  0  0  0  0
 13 29  1  0  0  0  0
 13 31  2  0  0  0  0
 14 15  1  0  0  0  0
 14 16  1  0  0  0  0
 15 17  1  0  0  0  0
 16 18  1  0  0  0  0
 17 19  1  0  0  0  0
 18 19  1  0  0  0  0
 19 30  1  0  0  0  0
 21 28  1  0  0  0  0
 22 28  1  0  0  0  0
 23 28  1  0  0  0  0
 24 26  1  0  0  0  0
 25 27  1  0  0  0  0
 25 30  1  0  0  0  0
 26 27  1  0  0  0  0
 26 29  1  0  0  0  0
 27 32  1  0  0  0  0
  1 36  1  0  0  0  0
  2 37  1  0  0  0  0
  3 38  1  0  0  0  0
  4 39  1  0  0  0  0
  5 40  1  0  0  0  0
  6 41  1  0  0  0  0
 14 42  1  0  0  0  0
 14 43  1  0  0  0  0
 15 44  1  0  0  0  0
 15 45  1  0  0  0  0
 16 46  1  0  0  0  0
 16 47  1  0  0  0  0
 17 48  1  0  0  0  0
 17 49  1  0  0  0  0
 18 50  1  0  0  0  0
 18 51  1  0  0  0  0
 20 52  1  0  0  0  0
 20 53  1  0  0  0  0
 20 54  1  0  0  0  0
 21 55  1  0  0  0  0
 21 56  1  0  0  0  0
 21 57  1  0  0  0  0
 22 58  1  0  0  0  0
 22 59  1  0  0  0  0
 22 60  1  0  0  0  0
 23 61  1  0  0  0  0
 23 62  1  0  0  0  0
 23 63  1  0  0  0  0
 24 64  1  0  0  0  0
 24 65  1  0  0  0  0
 25 66  1  0  0  0  0
 25 67  1  0  0  0  0
 26 68  1  0  0  0  0
 27 69  1  0  0  0  0
 29 70  1  0  0  0  0
 30 71  1  0  0  0  0
 30 72  1  0  0  0  0
 32 73  1  0  0  0  0
M  CHG  1  30   1
M  END
> <OMEGA_C>
oY66QL1R/EDaspfBSKP0QET24UD8jIzBO1rMQIoEUD+pqqzBXBCTQLaIJL9rOKbBaTUCQRZEBEEK
Bp3B62zVQITTzb8f/qzBminIQK+b50BEO47BpS7YQOYcB0ED/Z7BzCujQAcvJj8sNajBGJjlQGaM
ob499a7BtBGsQMaS4r+LrajBPS8JQW958kDm45PBpyHZQGAMvT9nG5DBmKaqQFO9AkHPEmPB4D+a
QEKEDUF3mHfBoznLQPsa4kA0PGjB3sWFQMus+UCCK4PB63G4QFj/wED2BXjBcvilQKUT1kCqY4bB
5frhQNXxvT5d/4fBMtugQBm8IEHVxqbBhpu6QAm9AEExWrHB+anqQNmRIEFpfa7Bi8mJQLKK7T8p
wKTBgfuiQMwIkEDcXY/BHsOiQH5xJ0CQCJzB7beHQE6Kb0BbaZfBlvbHQCkuEkFfP6nBWyGvQOix
2D8kWZPBdrOLQOZmtkBAFIzB2jr3QOB4A0AOZJTBeRR2QOb5k0Dk05/BRb8GQbjAIL6M8LLB2Iuc
QGqEQMB0v6bBIwMnQeOC6kADhpHBNL+YQLOD/kD/ZpnBAr//QOTX0EDpk4XBVXPYQETJ5j/FUK7B
CxtnQMxRRL9g0KLBB8sNQcGfCkE9l6LBqrvoQJlmHsAly67BexO6QIHcDkFz6FjBnmePQMlV90A5
dlrBBEqCQPizGUGaYnPBJjO1QDIsFUGr73/BBdbnQGi38ECybW/BASvUQEKz0UC8UVnBjhhVQJLk
6kC6+33BEqV0QPvfBEHkdIrBMOvRQD2CqkDPnXzBQJKeQKZyr0Cr72/B1l4CQfQLdj6WFofBgujT
QBkWJT8NPIDBUqnTQBPlEb8H0orBpeCVQFFwKEGRMq7B8M6GQDn7FkEcbKPBDjSqQJoVLUFh9aDB
+++uQNlaCEHMurjB3F3WQN4p7UByOLPBnAOhQGu37UDS363BgondQHIPKEHVvrXBknD0QKoWLUHH
zqjBM0wDQZq/FkFroLDBapKEQJQTIUCeqavBTGpVQNIXxD9GiKHBWi6pQFdkd0B5WojBOo/BQLYw
mUCuE5PBJ7e/QMYMQ0B+qJ/BkC1XQFFwVEAvWZPB7uaXQKevmD/2kY/B34tnQN1+rUCjQYfBRVl/
QFxOxECOoJLBugRUQJLKhECI2aTB6gS7QGmB/EARoZfBxxX1QPC54UAAjIzBJvCTQMMNJb8oHKbB
Bw/NQPa1Tz8Ao6zBd2wCQUAvBEG2Ap3BgiTWQIYCzr8g+6zBXaLIQDmp50DQMY7BzprYQAQpB0Hs
7J7BYfajQL6yJT8lIajB8+OsQN7K4r/bmqjBakTmQEkjor5+9q7BYmgJQTwy8kCD5JPBgEfZQCqK
tj+CdZDBNPGrQMbmAUFVoGLBRhGcQONBDUEz8XbBzPTLQHop4EARImjBwtqGQKkq+kAqAIPBl7K4
QIEMwEDTRHjBFVqmQPox1kAYZIbBmpfhQIityj4dsofB5LSgQEmSIEFqpKbB7I27QIf4AEGiVrHB
YbnqQLoWIUFBN67BhWGKQHY37T88v6TB3CajQE8MkUDLtY/BuvaiQBQAKEAxCJzBYYmHQEL4b0Dv
fZfBxUfIQLRVEkHQIanB0jCvQJgI2z+hQpPBYMqLQHgYt0BMNozBI2n3QE39AkBgUZTBYFNzQL91
k0D675/BfFidQAKhQMCesKbBFwYHQV3FIb46BbPBXTsnQcon6kAnh5HBpDKZQP7g/kDMTZnBFBYA
QT9u0EBlmYXBxAtpQBDtRL8+pqLBPB7ZQFio5j+4S67Bhf8NQcN7CkGKmaLBgGfpQAd8HsDu0K7B
iq67QLCqDUGpKljBEGeQQI269UDXOFrBK6mEQIihGUFdgXLBsl63QPPCFEEWIn/BRtHoQB2d7kCf
J2/BoZfUQHP+zkA6Y1nBCa9WQBuf60AAx33B7HB3QNaDBUHENIrB0ODRQCh3qUA4JH3BtaeeQDZ1
rkBfV3DBugkCQdJZtT4a9oXB+BzQQHfsLj9laYDBxZHWQIDBF79WZYrBnq+VQKlaKEHjCa7BqtqG
QAOSFkF5YKPBOZSpQJXcLEEnv6DBVM2vQNanCEGasLjBKqDXQKYX7kALOrPBki2iQAKw7UB98K3B
VpvdQC2sKEG/crXBAvzzQCeHLUHSb6jBT34DQeiDF0GEXLDBzziFQMiOIEAHsqvBh45WQFF2wz/g
jqHBcLSqQP/feUAsvYjBcATBQCi+mkD7r5PBbPK/QAzLQ0CNnp/BsvxXQAGJVEDTN5PBlsuXQIe8
oj9zFo/BjednQIXMrUBiaIfBk0l/QAGMxUDyq5LBbMdQQBW3g0AbzKTB

> <OMEGA_E>
QM//PbijAj4=

> <OMEGA_NBR>
     47386

$$$$
50167941
  -OEChem-04172616093D

 63 65  0     1  0  0  0  0  0999 V2000
    8.1351    8.0810  -19.6391 C   0  0  0  0  0  0  0  0  0  0  0  0
    6.4786    0.8488  -21.5906 C   0  0  0  0  0  0  0  0  0  0  0  0
    4.6747   -0.6283  -20.8621 C   0  0  0  0  0  0  0  0  0  0  0  0
    5.8317    7.8725  -18.9635 C   0  0  0  0  0  0  0  0  0  0  0  0
    6.7663   -1.5723  -21.6931 C   0  0  0  0  0  0  0  0  0  0  0  0
    8.5076    7.4459  -18.4360 C   0  0  0  0  0  0  0  0  0  0  0  0
    6.7689    8.3373  -19.9047 C   0  0  0  0  0  0  0  0  0  0  0  0
    5.1814    0.6740  -21.0580 C   0  0  0  0  0  0  0  0  0  0  0  0
    7.2728   -0.2734  -21.8976 C   0  0  0  0  0  0  0  0  0  0  0  0
    5.4645   -1.7489  -21.1833 C   0  0  0  0  0  0  0  0  0  0  0  0
    6.2697    7.2629  -17.7734 C   0  0  0  0  0  0  0  0  0  0  0  0
    6.7946    1.4702  -18.0580 C   0  0  0  0  0  0  0  0  0  0  0  0
    4.6058    7.7643  -15.8540 C   0  0  0  0  0  0  0  0  0  0  0  0
    5.5304    6.6524  -15.3213 C   0  0  0  0  0  0  0  0  0  0  0  0
    5.2201    6.7505  -16.8195 C   0  0  0  0  0  0  0  0  0  0  0  0
    7.0567    0.3549  -17.0514 C   0  0  0  0  0  0  0  0  0  0  0  0
    7.3948    9.9389  -21.8015 C   0  0  0  0  0  0  0  0  0  0  0  0
    5.0393    9.8941  -20.9653 C   0  0  0  0  0  0  0  0  0  0  0  0
    5.9493    7.9178  -22.2421 C   0  0  0  0  0  0  0  0  0  0  0  0
    4.3635    1.8777  -20.6239 C   0  0  0  0  0  0  0  0  0  0  0  0
    5.0328    4.5378  -17.8629 C   0  0  0  0  0  0  0  0  0  0  0  0
    5.0985    2.6589  -19.5077 C   0  0  1  0  0  0  0  0  0  0  0  0
    4.2172    3.7702  -18.9147 C   0  0  2  0  0  0  0  0  0  0  0  0
    6.2981    9.0132  -21.2097 C   0  0  0  0  0  0  0  0  0  0  0  0
    7.5856    7.0578  -17.5260 N   0  0  0  0  0  0  0  0  0  0  0  0
    5.4813    1.7302  -18.4298 N   0  0  0  0  0  0  0  0  0  0  0  0
    4.3206    5.7517  -17.4230 N   0  3  0  0  0  0  0  0  0  0  0  0
    7.7410    2.0112  -18.6204 O   0  0  0  0  0  0  0  0  0  0  0  0
    3.8194    4.6562  -19.9608 O   0  0  0  0  0  0  0  0  0  0  0  0
    8.5262   -0.1045  -22.3764 F   0  0  0  0  0  0  0  0  0  0  0  0
    4.9782   -2.9950  -20.9866 F   0  0  0  0  0  0  0  0  0  0  0  0
    8.8899    8.3708  -20.3551 H   0  0  0  0  0  0  0  0  0  0  0  0
    6.8616    1.8438  -21.7624 H   0  0  0  0  0  0  0  0  0  0  0  0
    3.6797   -0.7658  -20.4653 H   0  0  0  0  0  0  0  0  0  0  0  0
    4.7747    7.9839  -19.1549 H   0  0  0  0  0  0  0  0  0  0  0  0
    7.3759   -2.4325  -21.9270 H   0  0  0  0  0  0  0  0  0  0  0  0
    9.5536    7.2653  -18.2370 H   0  0  0  0  0  0  0  0  0  0  0  0
    3.5278    7.7344  -15.6372 H   0  0  0  0  0  0  0  0  0  0  0  0
    4.9495    8.8092  -15.8612 H   0  0  0  0  0  0  0  0  0  0  0  0
    6.5349    6.9023  -14.9491 H   0  0  0  0  0  0  0  0  0  0  0  0
    5.1132    5.8275  -14.7251 H   0  0  0  0  0  0  0  0  0  0  0  0
    8.1399    0.1827  -16.9680 H   0  0  0  0  0  0  0  0  0  0  0  0
    6.6550    0.6456  -16.0695 H   0  0  0  0  0  0  0  0  0  0  0  0
    6.5638   -0.5682  -17.3906 H   0  0  0  0  0  0  0  0  0  0  0  0
    7.0240   10.4016  -22.7280 H   0  0  0  0  0  0  0  0  0  0  0  0
    7.6431   10.7250  -21.0732 H   0  0  0  0  0  0  0  0  0  0  0  0
    8.2947    9.3462  -22.0224 H   0  0  0  0  0  0  0  0  0  0  0  0
    4.7287   10.3611  -21.9115 H   0  0  0  0  0  0  0  0  0  0  0  0
    4.2219    9.2666  -20.5805 H   0  0  0  0  0  0  0  0  0  0  0  0
    5.2772   10.6774  -20.2306 H   0  0  0  0  0  0  0  0  0  0  0  0
    5.6120    8.3887  -23.1773 H   0  0  0  0  0  0  0  0  0  0  0  0
    6.8405    7.3046  -22.4412 H   0  0  0  0  0  0  0  0  0  0  0  0
    5.1469    7.2799  -21.8429 H   0  0  0  0  0  0  0  0  0  0  0  0
    4.2086    2.5407  -21.4879 H   0  0  0  0  0  0  0  0  0  0  0  0
    3.3892    1.5356  -20.2449 H   0  0  0  0  0  0  0  0  0  0  0  0
    5.2025    3.8856  -16.9934 H   0  0  0  0  0  0  0  0  0  0  0  0
    6.0004    4.8267  -18.2989 H   0  0  0  0  0  0  0  0  0  0  0  0
    6.0019    3.1166  -19.9372 H   0  0  0  0  0  0  0  0  0  0  0  0
    3.3387    3.3170  -18.4322 H   0  0  0  0  0  0  0  0  0  0  0  0
    4.7512    1.2582  -17.9356 H   0  0  0  0  0  0  0  0  0  0  0  0
    3.6318    5.4913  -16.7466 H   0  0  0  0  0  0  0  0  0  0  0  0
    3.8707    6.1636  -18.2154 H   0  0  0  0  0  0  0  0  0  0  0  0
    3.3158    4.1767  -20.6081 H   0  0  0  0  0  0  0  0  0  0  0  0
  1  6  2  0  0  0  0
  1  7  1  0  0  0  0
  2  8  1  0  0  0  0
  2  9  2  0  0  0  0
  3  8  2  0  0  0  0
  3 10  1  0  0  0  0
  4  7  2  0  0  0  0
  4 11  1  0  0  0  0
  5  9  1  0  0  0  0
  5 10  2  0  0  0  0
  6 25  1  0  0  0  0
  7 24  1  0  0  0  0
  8 20  1  0  0  0  0
  9 30  1  0  0  0  0
 10 31  1  0  0  0  0
 11 15  1  0  0  0  0
 11 25  2  0  0  0  0
 12 16  1  0  0  0  0
 12 26  1  0  0  0  0
 12 28  2  0  0  0  0
 13 14  1  0  0  0  0
 13 15  1  0  0  0  0
 14 15  1  0  0  0  0
 15 27  1  0  0  0  0
 17 24  1  0  0  0  0
 18 24  1  0  0  0  0
 19 24  1  0  0  0  0
 20 22  1  0  0  0  0
 21 23  1  0  0  0  0
 21 27  1  0  0  0  0
 22 23  1  0  0  0  0
 22 26  1  0  0  0  0
 23 29  1  0  0  0  0
  1 32  1  0  0  0  0
  2 33  1  0  0  0  0
  3 34  1  0  0  0  0
  4 35  1  0  0  0  0
  5 36  1  0  0  0  0
  6 37  1  0  0  0  0
 13 38  1  0  0  0  0
 13 39  1  0  0  0  0
 14 40  1  0  0  0  0
 14 41  1  0  0  0  0
 16 42  1  0  0  0  0
 16 43  1  0  0  0  0
 16 44  1  0  0  0  0
 17 45  1  0  0  0  0
 17 46  1  0  0  0  0
 17 47  1  0  0  0  0
 18 48  1  0  0  0  0
 18 49  1  0  0  0  0
 18 50  1  0  0  0  0
 19 51  1  0  0  0  0
 19 52  1  0  0  0  0
 19 53  1  0  0  0  0
 20 54  1  0  0  0  0
 20 55  1  0  0  0  0
 21 56  1  0  0  0  0
 21 57  1  0  0  0  0
 22 58  1  0  0  0  0
 23 59  1  0  0  0  0
 26 60  1  0  0  0  0
 27 61  1  0  0  0  0
 27 62  1  0  0  0  0
 29 63  1  0  0  0  0
M  CHG  1  27   1
M  END
> <OMEGA_C>
NCkCQedLAUHhHJ3BF1HPQNdHWT96uazB2ZaVQO/YIL+l5abBk526QJ7r+0BEtZfBr4XYQABAyb9p
i63BOx8IQbBE7kD3fJPB+ZrYQHtlBUHMPJ/Bu82lQKaMLD/KdqjB1broQIj6i741Lq/BXt2uQOLb
379xd6nBNqHIQBRq6EAGMI7BrG3ZQP8uvD/HdpDB82KTQA91+EDPqX3B3/iwQGbg1EAUJHXBLgun
QG4E2EBtjobBKdDhQL64tT5WaYjBAaLsQMkFH0Fraa7BRUKhQBBOHkHkuKfBT2C+QL1e/UDb77HB
A6KLQHxY8D+4/aTBZwyhQHI1kUAx547BuSajQDwsKkDKD5zBj/OGQHtKcUBgUZfBu4nJQOg1EEFo
ranB7bzyQCjZ4UAqNYzBg2avQEd43T9CcJPBvEKKQEQOuEBnYovBb7b3QMK3AECV9pTByXF0QFz/
lECvr5/BUWsIQUn51b3dArPBHk2fQPqtP8CX5KfB4zwOQcTuBUFS16LBepLbQP8C7D9fGa7Bfn9r
QFAKRL/4uKPBOsqYQOl7/0BPPZnBVQfsQMOuG8CVaq/BvdsYQVx96EBI5ZHB0sdhQNZ/90DJMXrB
aGKeQHfyDEFMx33Bxh3RQJzf3ECgL2/BRp+jQIR6ukAdmmvB8TwCQfYOOz5evofBq/XUQL9EJT9a
joDBngrSQHFyEb/iH4vBzcTgQNZsJkH80rXBLpT0QImZK0HYlajBLLcEQRKKFUHZLbDBYVGXQC7H
JUHCSq/BuxmHQNVDFEHypKTB2d6oQLTWKkE/2KHBw5WzQCQ4BkEVa7nBW+XaQAG/6UB7h7PB0LOk
QC/16EAtvq7B+KyGQFeaIkAq56vBpOhYQBSPxD939aHBh3qmQHaueECR8ofBjAPAQJ50mkAsZJLB
Ng/AQPd2R0BOf5/BPa1VQPtJVEAqdZPBJQqYQH0MoT8efI/Bs25oQJO4r0AG+YXBdLl3QHM8xUA7
uZHBMTZUQMOnhUBV3aTBd4QBQbgEAUH9R53BhonOQErkWT+z0qzBj4WVQMEVIr97rqbBkJq5QOv5
+0BjmpfBmCfYQNK7yL/pma3BwLIHQQ4k7kCTopPBn0TXQE8yBUHdSJ/B01alQJ/6Kz97ZKjBEgDo
QB7jiL6CV6/B99SuQMMZ4L+TVanBPA7IQMm06EDFFI7BH8nYQH19uT8fc5DBiVSTQLsb+ECIEX3B
xGGxQLGt1EDO0HTBGeCmQNP810AVXobBsOTgQPppoz4rgojBmUi/QI1B/EDqKrLBCwXqQC54H0GT
SK7B6UWeQE3kHEGdCqjBhi6LQDIc8D/356TB8xOhQF0zkUA5zY7BffWiQNgmKkDaBpzBaUSHQH+T
ckDpZZfBx/vHQOjED0HuyKnBPT/yQM8b4kAAOozBFdKuQP6E3T/FXJPBYSWKQMLYt0AoKovBLzb3
QPpA/j8G65TBAX94QE0UlkA705/B4+YHQcHIvb0sWbPB/KOfQFv+P8AarqfBs3UNQTFvBUFXH6PB
PIXaQPF+7D/KR67BTvdrQNdZRr/aVaPBLbeXQDO1/0DABJnBYa/rQCU/G8Cvia/B93cYQUJh6EBh
IZLBWdphQI7X9kCEZnnBlBCeQMrQDEFpJ33B+JjRQL7d3EA/Bm/BkHWkQLkTukBaRWvBjsABQcXU
CT5b4ofBvDvUQIY0Gj+2nYDBfMfQQJQ4GL/SS4vBrGC0QNSCBUEdrbnBo+DcQNIi6kAHpbPBZWem
QIZ65kAtJq/BBRreQE6uJkHJvLXBnz7wQHAkLEHsYKjBnOsDQdy1FkGV66/Bs1OUQDItJEEWqK/B
68+EQCk7EkHCH6XBnCykQJmMKUGKG6LBTwmGQPVdIkAb0qvByCxYQDBZxD+k0aHB1DOmQCWld0DM
7YfBkDHAQLWpmkAEK5LBhxbAQA5TRkDsfZ/BNsBUQBMCV0ACvZPBQ0iXQLtloz8rV4/Btc5oQMo5
r0BytIXBe712QIAKxUCPcpHBo5tYQJw+h0CxIKXB+CDxQHNPAkFIlaPBRmLSQPKlUz/DuKzBMD+U
QA1vAb/8f6fBQLbnQEvhAUHocZDBrBbVQK3Izb9d1a3BoFrOQDXG6EBPdqTBxBj4QHUpDEGlm5nB
ePanQN4ZQD8U5KjBqO3oQBi5tL5aLK/BNraqQIFe17/ABarBGqbEQFM/6EAYwZHBVoHTQAihoz/B
ZI/Bhw2eQMck+ECXs37BwhG/QIRv1UDqzHnBjLqqQBUA2EAbKIjBsh3VQCLXBj6bW4fB1hAMQe7K
LUHisaHBBJv/QIIsLkGZWI7B2lrJQOd2K0FiQp3BSFiQQD5pAEDNtqXB/RqiQHPjjkDiTo7BUtOl
QBtsKkBo6ZvByNqJQESKckD0fJfBfkT3QHiZJEEhppnB1H63QABw3UCJwZvBHemrQNz41D9hYpPB
IDCMQDJBtkDB7YrB+vT0QC9a3z816pLBUryAQIrXlkBK45/BpscIQTJRkL4v2LLB9puXQIGeOMAG
vqjB5vQCQc5nBUFwT6rB7IXhQNz05D89xa3B88lnQEdbEL9af6TBBrr1QM+DBEFsqIjB0V/mQOrK
IMCQuq/BMqfFQO4o3EDUNKzB1xN8QD6I9kDnbXfBziOoQHbjDEFr73/BUeHgQJgc3kABiHfBbse2
QOrdukB9Bm/Blaj2QH4ACb72vYXBlI7FQO/O4j4UvH/BYEjEQAPIPb/RqorBAmMLQXpgP0E/iqHB
nT0cQRZ4KEFxeJ/BJUAIQY0PKEEgy6nBTbH+QN++P0ETyo7B7MjmQA2KKEFIx4jBDp4PQQAAKUGK
eovBTT3HQLYHPUGQaJ3Bl+bCQOkeJUHCTqXBsJ+xQOoQJUEQmpfBa7WQQHW6LUCkcqzB2hxeQMco
4D/btaPBJumjQA9xcUDBfIfBTaTCQKrmlkDZAJHBGfXEQE3mREDSV57BogxYQLjtVkDrVpTBXNOR
QCYgnj8jRJDBvCl0QLHOr0BSiITBISlzQB+HwEC06JDBf3RjQAuXiEBZdKXB

> <OMEGA_E>
kLiMPmDHjT58JzA/

> <OMEGA_NBR>
     50743

$$$$
50167972
  -OEChem-04172616093D

 73 75  0     1  0  0  0  0  0999 V2000
    7.6413    7.4650  -17.5295 C   0  0  0  0  0  0  0  0  0  0  0  0
    8.4946    8.1508  -18.4033 C   0  0  0  0  0  0  0  0  0  0  0  0
    5.7363    8.1729  -18.8581 C   0  0  0  0  0  0  0  0  0  0  0  0
    4.3096   -0.9162  -20.9809 C   0  0  0  0  0  0  0  0  0  0  0  0
    6.3283    0.4340  -21.2004 C   0  0  0  0  0  0  0  0  0  0  0  0
    6.3607   -1.9032  -21.8734 C   0  0  0  0  0  0  0  0  0  0  0  0
    6.2423    7.4950  -17.7238 C   0  0  0  0  0  0  0  0  0  0  0  0
    6.5834    8.8540  -19.7799 C   0  0  0  0  0  0  0  0  0  0  0  0
    4.9839    0.3087  -20.7767 C   0  0  0  0  0  0  0  0  0  0  0  0
    4.9937   -2.0143  -21.5450 C   0  0  0  0  0  0  0  0  0  0  0  0
    7.0293   -0.6784  -21.6898 C   0  0  0  0  0  0  0  0  0  0  0  0
    7.9905    8.8461  -19.5168 C   0  0  0  0  0  0  0  0  0  0  0  0
    6.3970    0.8679  -17.6856 C   0  0  0  0  0  0  0  0  0  0  0  0
    5.4160    7.9283  -13.9808 C   0  0  0  0  0  0  0  0  0  0  0  0
    4.8095    8.7178  -15.1557 C   0  0  0  0  0  0  0  0  0  0  0  0
    6.4851    6.9402  -14.4741 C   0  0  0  0  0  0  0  0  0  0  0  0
    4.1989    7.7569  -16.1966 C   0  0  0  0  0  0  0  0  0  0  0  0
    5.9320    6.0004  -15.5800 C   0  0  0  0  0  0  0  0  0  0  0  0
    5.2524    6.7589  -16.7783 C   0  0  0  0  0  0  0  0  0  0  0  0
    6.4949    0.2494  -16.2912 C   0  0  0  0  0  0  0  0  0  0  0  0
    4.4129    9.3976  -21.0996 C   0  0  0  0  0  0  0  0  0  0  0  0
    6.5130    8.9183  -22.3463 C   0  0  0  0  0  0  0  0  0  0  0  0
    6.2346   11.0894  -21.0155 C   0  0  0  0  0  0  0  0  0  0  0  0
    4.2288    1.5086  -20.2211 C   0  0  0  0  0  0  0  0  0  0  0  0
    5.2842    4.6403  -18.1232 C   0  0  0  0  0  0  0  0  0  0  0  0
    5.0949    2.3922  -19.2655 C   0  0  1  0  0  0  0  0  0  0  0  0
    4.3957    3.7466  -19.0026 C   0  0  2  0  0  0  0  0  0  0  0  0
    5.9653    9.5556  -21.0350 C   0  0  0  0  0  0  0  0  0  0  0  0
    5.3088    1.6925  -17.9777 N   0  0  0  0  0  0  0  0  0  0  0  0
    4.4841    5.7746  -17.5996 N   0  3  0  0  0  0  0  0  0  0  0  0
    7.3302    0.7212  -18.4668 O   0  0  0  0  0  0  0  0  0  0  0  0
    4.1566    4.4332  -20.2355 O   0  0  0  0  0  0  0  0  0  0  0  0
    4.3398   -3.1768  -21.7702 F   0  0  0  0  0  0  0  0  0  0  0  0
    8.3424   -0.5603  -21.9932 F   0  0  0  0  0  0  0  0  0  0  0  0
    9.2945    9.7216  -20.6199 Br  0  0  0  0  0  0  0  0  0  0  0  0
    8.0557    6.9094  -16.7013 H   0  0  0  0  0  0  0  0  0  0  0  0
    9.5586    8.1454  -18.2186 H   0  0  0  0  0  0  0  0  0  0  0  0
    4.6703    8.1743  -19.0315 H   0  0  0  0  0  0  0  0  0  0  0  0
    3.2698   -1.0122  -20.7052 H   0  0  0  0  0  0  0  0  0  0  0  0
    6.8191    1.3946  -21.1465 H   0  0  0  0  0  0  0  0  0  0  0  0
    6.8937   -2.7568  -22.2653 H   0  0  0  0  0  0  0  0  0  0  0  0
    5.8770    8.6334  -13.2735 H   0  0  0  0  0  0  0  0  0  0  0  0
    4.6166    7.3691  -13.4725 H   0  0  0  0  0  0  0  0  0  0  0  0
    4.0229    9.3857  -14.7749 H   0  0  0  0  0  0  0  0  0  0  0  0
    5.5984    9.3161  -15.6349 H   0  0  0  0  0  0  0  0  0  0  0  0
    7.3348    7.5081  -14.8810 H   0  0  0  0  0  0  0  0  0  0  0  0
    6.8253    6.3296  -13.6248 H   0  0  0  0  0  0  0  0  0  0  0  0
    3.3945    7.1807  -15.7160 H   0  0  0  0  0  0  0  0  0  0  0  0
    3.7812    8.3507  -17.0229 H   0  0  0  0  0  0  0  0  0  0  0  0
    6.7665    5.4033  -15.9765 H   0  0  0  0  0  0  0  0  0  0  0  0
    5.1862    5.3318  -15.1254 H   0  0  0  0  0  0  0  0  0  0  0  0
    7.4573   -0.2732  -16.1880 H   0  0  0  0  0  0  0  0  0  0  0  0
    6.4254    1.0429  -15.5326 H   0  0  0  0  0  0  0  0  0  0  0  0
    5.6720   -0.4666  -16.1493 H   0  0  0  0  0  0  0  0  0  0  0  0
    4.0291    9.9062  -21.9963 H   0  0  0  0  0  0  0  0  0  0  0  0
    4.1548    8.3293  -21.1455 H   0  0  0  0  0  0  0  0  0  0  0  0
    3.9611    9.8458  -20.2024 H   0  0  0  0  0  0  0  0  0  0  0  0
    6.0670    9.4249  -23.2149 H   0  0  0  0  0  0  0  0  0  0  0  0
    7.6069    9.0297  -22.3789 H   0  0  0  0  0  0  0  0  0  0  0  0
    6.2523    7.8499  -22.3713 H   0  0  0  0  0  0  0  0  0  0  0  0
    5.7887   11.5519  -21.9084 H   0  0  0  0  0  0  0  0  0  0  0  0
    5.7859   11.5289  -20.1124 H   0  0  0  0  0  0  0  0  0  0  0  0
    7.3194   11.2711  -21.0116 H   0  0  0  0  0  0  0  0  0  0  0  0
    3.8924    2.1308  -21.0636 H   0  0  0  0  0  0  0  0  0  0  0  0
    3.3541    1.1435  -19.6629 H   0  0  0  0  0  0  0  0  0  0  0  0
    5.6781    4.0509  -17.2822 H   0  0  0  0  0  0  0  0  0  0  0  0
    6.1209    5.0283  -18.7228 H   0  0  0  0  0  0  0  0  0  0  0  0
    6.0649    2.5826  -19.7480 H   0  0  0  0  0  0  0  0  0  0  0  0
    3.4471    3.5599  -18.4779 H   0  0  0  0  0  0  0  0  0  0  0  0
    4.6213    1.8205  -17.2629 H   0  0  0  0  0  0  0  0  0  0  0  0
    3.7504    5.4014  -17.0318 H   0  0  0  0  0  0  0  0  0  0  0  0
    4.0882    6.2613  -18.3783 H   0  0  0  0  0  0  0  0  0  0  0  0
    3.6078    3.8972  -20.7958 H   0  0  0  0  0  0  0  0  0  0  0  0
  1  2  2  0  0  0  0
  1  7  1  0  0  0  0
  2 12  1  0  0  0  0
  3  7  2  0  0  0  0
  3  8  1  0  0  0  0
  4  9  1  0  0  0  0
  4 10  2  0  0  0  0
  5  9  2  0  0  0  0
  5 11  1  0  0  0  0
  6 10  1  0  0  0  0
  6 11  2  0  0  0  0
  7 19  1  0  0  0  0
  8 12  2  0  0  0  0
  8 28  1  0  0  0  0
  9 24  1  0  0  0  0
 10 33  1  0  0  0  0
 11 34  1  0  0  0  0
 12 35  1  0  0  0  0
 13 20  1  0  0  0  0
 13 29  1  0  0  0  0
 13 31  2  0  0  0  0
 14 15  1  0  0  0  0
 14 16  1  0  0  0  0
 15 17  1  0  0  0  0
 16 18  1  0  0  0  0
 17 19  1  0  0  0  0
 18 19  1  0  0  0  0
 19 30  1  0  0  0  0
 21 28  1  0  0  0  0
 22 28  1  0  0  0  0
 23 28  1  0  0  0  0
 24 26  1  0  0  0  0
 25 27  1  0  0  0  0
 25 30  1  0  0  0  0
 26 27  1  0  0  0  0
 26 29  1  0  0  0  0
 27 32  1  0  0  0  0
  1 36  1  0  0  0  0
  2 37  1  0  0  0  0
  3 38  1  0  0  0  0
  4 39  1  0  0  0  0
  5 40  1  0  0  0  0
  6 41  1  0  0  0  0
 14 42  1  0  0  0  0
 14 43  1  0  0  0  0
 15 44  1  0  0  0  0
 15 45  1  0  0  0  0
 16 46  1  0  0  0  0
 16 47  1  0  0  0  0
 17 48  1  0  0  0  0
 17 49  1  0  0  0  0
 18 50  1  0  0  0  0
 18 51  1  0  0  0  0
 20 52  1  0  0  0  0
 20 53  1  0  0  0  0
 20 54  1  0  0  0  0
 21 55  1  0  0  0  0
 21 56  1  0  0  0  0
 21 57  1  0  0  0  0
 22 58  1  0  0  0  0
 22 59  1  0  0  0  0
 22 60  1  0  0  0  0
 23 61  1  0  0  0  0
 23 62  1  0  0  0  0
 23 63  1  0  0  0  0
 24 64  1  0  0  0  0
 24 65  1  0  0  0  0
 25 66  1  0  0  0  0
 25 67  1  0  0  0  0
 26 68  1  0  0  0  0
 27 69  1  0  0  0  0
 29 70  1  0  0  0  0
 30 71  1  0  0  0  0
 30 72  1  0  0  0  0
 32 73  1  0  0  0  0
M  CHG  1  30   1
M  END
> <OMEGA_C>
NYX0QD/h7kBVPIzBvukHQZ5pAkHxOZPBf4+3QGTEAkFj3ZbBheiJQAWLar/62KfBdoHKQBw43j5e
mqnBgorLQASb87+w/K7BxcDHQN3W70Bqyo3BLKvSQCaqDUEoPZ7Bu3ufQA4Qnj6pNqbBjcyfQOLp
AMAPXKzBMvDgQIKsLb/EhK3BE7L/QLKJDUFsIpzBeLTMQHYrXj8ifI3BtE+tQIW0/UBPsV/BuueZ
QPN7C0G5fXLBD4bPQAsW3kATlmfBnV2GQHE4+ECJkoHBWdO9QHIDwEC3R3nBphOoQLJI2ED3OYbB
+NXPQN5cfz5yVILBTzaNQIZcFkEUzKjBkmrQQGaxDkFAxbLBi4HHQFduMUHAH6jB8FGHQNkawT/m
xKHBABipQLx9lEBq/JDBeQmjQIEZGUCsH5rBO6mMQPLIb0BnBZjBEeS+QL7jGEGZR6jBTOGpQPSk
2D9d0o/ByX2PQETJuEAOzIzBH5HqQGGeOD/7u5PBCQOFQBvdjUBC4qHBvd+KQFZQS8BQKa7BjXoF
QTBwD78E8q/BMrYUQcyLG0GI9aTBVOQAQbYZ3UAxnIXBLPAYQbRTAkGav5HB4XKVQAjKAkFyQJjB
OEVRQFePgb9DpKXBBzbaQKuAsj/2K6nBRpncQHZvMMA9H7LBHRC8QJEiCkFHYFTBU7uTQJ3P60B/
j1fBvLuAQAMsFkHfZWzBTiazQOAOFUFqKHrBY7bqQHBC8EC4GG7B4WjaQCeMykD6/lnBMUBZQE7I
5UCMdHvB1P9xQJacBUHyLojB0IbYQLTnrECtn3/BPfWlQC+eqkC7AXLBM6LuQKbfi74ZgYHBRJ3N
QG59hT+MhXjBpYC1QEDp7r63MYHBL+6AQLV/HkF5+K/B7vOEQLtEBUHnKanBHYN9QGSIHUGLnqHB
dSTCQEzMFkEXuLnBfmvzQId5EEEKCLPB4BLIQLwy+0B2+LLB1Dy5QGrUOEGARK/Beya5QFl2OEEq
5qDB5zjqQJNWNEHIF6jB2B15QFFfCEBPgqjBS6lWQGBekj+dTZ3BI7O1QAehgUDwQYrBDt7DQKbn
oEBVyJXBnxPCQP1IJUD4+53Bp5xcQM3VY0DV0pPBleGTQGAG6T9YGorBrQZwQI3YrEAWQYjBndKC
QOdcyEDDBpPBYeZmQCVreUC+XabBuuDyQMd18UDiWIzBvkYGQZ/qBEEGOJPBndizQJhhBEEhGZbB
1sa0QJT88T0Vda7BU4mSQC6nW792tp7B5BPAQBs0D8CTHKrBR+rFQGly8UAKg43BNkXNQDKGEEEF
W53Bi8SZQPOhgT6BdqXBtqjHQORrkL/O0bDB56ClQN14BsCACaHBlY76QMTREEGco5vB8bbXQPuQ
uj/TwI7BFzavQElA90AaeF7Bz76ZQH0GCUGXJHDBpr3RQEmr2UAL3WfBiP6FQIex9ECqroDBE7m/
QKA2vUCSJ3rBRAKoQOAM10CfGIbBnpHdQI5NKD9gbITBtOOFQHdoGUH5CafBjAHIQEnfE0GzybHB
K8O+QCcwNUFGE6bB2oOFQLZszD9F4KLBL/ypQOWulkC+J5LB1ZajQORAH0DYBZzB6zuNQFr0dEDO
P5nBdHW3QG6XHEHB36bBi1SuQDPd4z8J/JHBd56PQPVouEAa+ozBG+L2QFBe2T/8ZpTBzlaDQEyD
kUD+z6LB1gHhQEBXob9/iLnB2nieQPZySsAwkprBnxsRQeBvIEG0YaTBGccAQUSM3kCjHYbB0GMX
QTYtBUGWB5LBt5GRQKUQBEG4MJfBXvq6QLNueD9ViLPBIKV8QP8JQb8YwZfBuonOQKhHTMA97avB
pxu+QOxzBkEhw1LBDsKWQLOo40Azc1bBEWCAQJrrEkF6AWnBSNixQKtwE0H3oXfBDfLrQHNn7UCn
Pm7B3BfeQM/hxEDAElvB+9BaQJyG4EBL0XnB1jVuQNhjBEFf4IbB7YTaQDS6q0C6voDBUPyoQFlD
pkCbKnPBSoL/QOqHyD5YdoPBbSzTQJ/8oT/hIXvB5zjKQI89hb4I0ITB901wQAEtIkFL2q3BmAN9
QOlFCEF31afB0i5wQIaHH0FIi5/BSk+4QLWMHEGjXLjBNNfqQAowFkECTLLBnZDAQDC3AkHvabLB
BBSvQI0vPUH23KzBjRWxQFwqO0GqiZ7BeUrhQPuWOEEYQqbBK5t8QAeqB0ACaKrBhVBPQMaGtj+8
a57Bsym5QL3LgkD19ovB/dzCQFXCpUA6HJfBbujAQFSmLECDmKDBY1ZfQHqbZkCu0pTBzS+WQM3d
wT/jLo3BHz5zQLADqkBxaojBJw6BQMstyUB4vJLBUyxjQBtxgECJRKfB

> <OMEGA_E>
8MoCP5DSET8=

> <OMEGA_NBR>
     53375

$$$$
50167973
  -OEChem-04172616093D

 76 78  0     1  0  0  0  0  0999 V2000
    7.5953    7.0074  -17.5924 C   0  0  0  0  0  0  0  0  0  0  0  0
    5.7944    7.9025  -18.9604 C   0  0  0  0  0  0  0  0  0  0  0  0
    8.1089    8.2113  -19.6408 C   0  0  0  0  0  0  0  0  0  0  0  0
    6.3956    0.7915  -21.5721 C   0  0  0  0  0  0  0  0  0  0  0  0
    4.5838   -0.6471  -20.7844 C   0  0  0  0  0  0  0  0  0  0  0  0
    6.6422   -1.6325  -21.6450 C   0  0  0  0  0  0  0  0  0  0  0  0
    6.2147    7.2321  -17.7842 C   0  0  0  0  0  0  0  0  0  0  0  0
    8.5332    7.5190  -18.4982 C   0  0  0  0  0  0  0  0  0  0  0  0
    6.7345    8.4369  -19.8762 C   0  0  0  0  0  0  0  0  0  0  0  0
    5.1065    0.6402  -21.0163 C   0  0  0  0  0  0  0  0  0  0  0  0
    7.1667   -0.3447  -21.8746 C   0  0  0  0  0  0  0  0  0  0  0  0
    5.3483   -1.7821  -21.1057 C   0  0  0  0  0  0  0  0  0  0  0  0
    6.8111    1.4433  -18.0618 C   0  0  0  0  0  0  0  0  0  0  0  0
    5.4261    8.1908  -14.1929 C   0  0  0  0  0  0  0  0  0  0  0  0
    4.8971    8.8656  -15.4697 C   0  0  0  0  0  0  0  0  0  0  0  0
    6.3956    7.0483  -14.5285 C   0  0  0  0  0  0  0  0  0  0  0  0
    4.1934    7.8335  -16.3636 C   0  0  0  0  0  0  0  0  0  0  0  0
    5.7481    6.0302  -15.4958 C   0  0  0  0  0  0  0  0  0  0  0  0
    5.1600    6.6972  -16.7884 C   0  0  0  0  0  0  0  0  0  0  0  0
   10.0016    7.2558  -18.2820 C   0  0  0  0  0  0  0  0  0  0  0  0
    7.0784    0.4390  -16.9445 C   0  0  0  0  0  0  0  0  0  0  0  0
    5.0559   10.0829  -20.8592 C   0  0  0  0  0  0  0  0  0  0  0  0
    5.8579    8.0850  -22.1930 C   0  0  0  0  0  0  0  0  0  0  0  0
    7.3789   10.0491  -21.7744 C   0  0  0  0  0  0  0  0  0  0  0  0
    4.3209    1.8534  -20.5880 C   0  0  0  0  0  0  0  0  0  0  0  0
    5.0980    4.5291  -17.9465 C   0  0  0  0  0  0  0  0  0  0  0  0
    5.1042    2.6261  -19.5091 C   0  0  1  0  0  0  0  0  0  0  0  0
    4.2519    3.7535  -18.9393 C   0  0  2  0  0  0  0  0  0  0  0  0
    6.2651    9.1555  -21.1563 C   0  0  0  0  0  0  0  0  0  0  0  0
    5.4938    1.7143  -18.4146 N   0  0  0  0  0  0  0  0  0  0  0  0
    4.3410    5.7011  -17.4933 N   0  3  0  0  0  0  0  0  0  0  0  0
    7.7486    2.0580  -18.5596 O   0  0  0  0  0  0  0  0  0  0  0  0
    3.8422    4.6237  -19.9941 O   0  0  0  0  0  0  0  0  0  0  0  0
    8.4138   -0.1986  -22.3757 F   0  0  0  0  0  0  0  0  0  0  0  0
    4.8430   -3.0156  -20.8837 F   0  0  0  0  0  0  0  0  0  0  0  0
    7.9312    6.4361  -16.7397 H   0  0  0  0  0  0  0  0  0  0  0  0
    4.7387    8.0079  -19.1622 H   0  0  0  0  0  0  0  0  0  0  0  0
    8.8396    8.5757  -20.3477 H   0  0  0  0  0  0  0  0  0  0  0  0
    6.7889    1.7788  -21.7647 H   0  0  0  0  0  0  0  0  0  0  0  0
    3.5972   -0.7619  -20.3604 H   0  0  0  0  0  0  0  0  0  0  0  0
    7.2320   -2.5055  -21.8824 H   0  0  0  0  0  0  0  0  0  0  0  0
    5.9522    8.9400  -13.5829 H   0  0  0  0  0  0  0  0  0  0  0  0
    4.5770    7.7851  -13.6234 H   0  0  0  0  0  0  0  0  0  0  0  0
    4.1821    9.6547  -15.1939 H   0  0  0  0  0  0  0  0  0  0  0  0
    5.7388    9.3099  -16.0211 H   0  0  0  0  0  0  0  0  0  0  0  0
    7.2959    7.4688  -15.0003 H   0  0  0  0  0  0  0  0  0  0  0  0
    6.6762    6.5313  -13.5990 H   0  0  0  0  0  0  0  0  0  0  0  0
    3.3497    7.3967  -15.8094 H   0  0  0  0  0  0  0  0  0  0  0  0
    3.8175    8.3389  -17.2654 H   0  0  0  0  0  0  0  0  0  0  0  0
    6.5122    5.2982  -15.7964 H   0  0  0  0  0  0  0  0  0  0  0  0
    4.9336    5.5139  -14.9668 H   0  0  0  0  0  0  0  0  0  0  0  0
   10.2804    6.3091  -18.7679 H   0  0  0  0  0  0  0  0  0  0  0  0
   10.5892    8.0778  -18.7166 H   0  0  0  0  0  0  0  0  0  0  0  0
   10.2070    7.1886  -17.2034 H   0  0  0  0  0  0  0  0  0  0  0  0
    8.1566    0.4079  -16.7290 H   0  0  0  0  0  0  0  0  0  0  0  0
    6.5323    0.7436  -16.0395 H   0  0  0  0  0  0  0  0  0  0  0  0
    6.7385   -0.5587  -17.2594 H   0  0  0  0  0  0  0  0  0  0  0  0
    4.7403   10.5832  -21.7866 H   0  0  0  0  0  0  0  0  0  0  0  0
    4.2226    9.4834  -20.4641 H   0  0  0  0  0  0  0  0  0  0  0  0
    5.3481   10.8393  -20.1158 H   0  0  0  0  0  0  0  0  0  0  0  0
    5.5189    8.5780  -23.1161 H   0  0  0  0  0  0  0  0  0  0  0  0
    6.7230    7.4435  -22.4165 H   0  0  0  0  0  0  0  0  0  0  0  0
    5.0418    7.4709  -21.7845 H   0  0  0  0  0  0  0  0  0  0  0  0
    6.9958   10.5382  -22.6822 H   0  0  0  0  0  0  0  0  0  0  0  0
    7.6811   10.8151  -21.0451 H   0  0  0  0  0  0  0  0  0  0  0  0
    8.2477    9.4258  -22.0328 H   0  0  0  0  0  0  0  0  0  0  0  0
    4.1546    2.5068  -21.4572 H   0  0  0  0  0  0  0  0  0  0  0  0
    3.3512    1.5349  -20.1779 H   0  0  0  0  0  0  0  0  0  0  0  0
    5.3377    3.8883  -17.0851 H   0  0  0  0  0  0  0  0  0  0  0  0
    6.0300    4.8558  -18.4310 H   0  0  0  0  0  0  0  0  0  0  0  0
    6.0060    3.0572  -19.9682 H   0  0  0  0  0  0  0  0  0  0  0  0
    3.3789    3.3271  -18.4235 H   0  0  0  0  0  0  0  0  0  0  0  0
    4.7664    1.2648  -17.8961 H   0  0  0  0  0  0  0  0  0  0  0  0
    3.6193    5.3908  -16.8746 H   0  0  0  0  0  0  0  0  0  0  0  0
    3.9293    6.1393  -18.2924 H   0  0  0  0  0  0  0  0  0  0  0  0
    3.3124    4.1398  -20.6167 H   0  0  0  0  0  0  0  0  0  0  0  0
  1  7  2  0  0  0  0
  1  8  1  0  0  0  0
  2  7  1  0  0  0  0
  2  9  2  0  0  0  0
  3  8  2  0  0  0  0
  3  9  1  0  0  0  0
  4 10  1  0  0  0  0
  4 11  2  0  0  0  0
  5 10  2  0  0  0  0
  5 12  1  0  0  0  0
  6 11  1  0  0  0  0
  6 12  2  0  0  0  0
  7 19  1  0  0  0  0
  8 20  1  0  0  0  0
  9 29  1  0  0  0  0
 10 25  1  0  0  0  0
 11 34  1  0  0  0  0
 12 35  1  0  0  0  0
 13 21  1  0  0  0  0
 13 30  1  0  0  0  0
 13 32  2  0  0  0  0
 14 15  1  0  0  0  0
 14 16  1  0  0  0  0
 15 17  1  0  0  0  0
 16 18  1  0  0  0  0
 17 19  1  0  0  0  0
 18 19  1  0  0  0  0
 19 31  1  0  0  0  0
 22 29  1  0  0  0  0
 23 29  1  0  0  0  0
 24 29  1  0  0  0  0
 25 27  1  0  0  0  0
 26 28  1  0  0  0  0
 26 31  1  0  0  0  0
 27 28  1  0  0  0  0
 27 30  1  0  0  0  0
 28 33  1  0  0  0  0
  1 36  1  0  0  0  0
  2 37  1  0  0  0  0
  3 38  1  0  0  0  0
  4 39  1  0  0  0  0
  5 40  1  0  0  0  0
  6 41  1  0  0  0  0
 14 42  1  0  0  0  0
 14 43  1  0  0  0  0
 15 44  1  0  0  0  0
 15 45  1  0  0  0  0
 16 46  1  0  0  0  0
 16 47  1  0  0  0  0
 17 48  1  0  0  0  0
 17 49  1  0  0  0  0
 18 50  1  0  0  0  0
 18 51  1  0  0  0  0
 20 52  1  0  0  0  0
 20 53  1  0  0  0  0
 20 54  1  0  0  0  0
 21 55  1  0  0  0  0
 21 56  1  0  0  0  0
 21 57  1  0  0  0  0
 22 58  1  0  0  0  0
 22 59  1  0  0  0  0
 22 60  1  0  0  0  0
 23 61  1  0  0  0  0
 23 62  1  0  0  0  0
 23 63  1  0  0  0  0
 24 64  1  0  0  0  0
 24 65  1  0  0  0  0
 24 66  1  0  0  0  0
 25 67  1  0  0  0  0
 25 68  1  0  0  0  0
 26 69  1  0  0  0  0
 26 70  1  0  0  0  0
 27 71  1  0  0  0  0
 28 72  1  0  0  0  0
 30 73  1  0  0  0  0
 31 74  1  0  0  0  0
 31 75  1  0  0  0  0
 33 76  1  0  0  0  0
M  CHG  1  31   1
M  END
> <OMEGA_C>
/QzzQNc84EA9vYzB/Wu5QKLh/EDarpfB3L0BQZVhA0FRIJ3Bm6jMQAKgSj+vk6zBda6SQGGpJb94
RqbB7IzUQBv30L8CKa3Bft7GQLht50AcRo7BzocIQU6b8EBq/JPBY4HXQLD9BkFuAp/BMmijQOvk
Iz9aIajBg1XlQKx4sL5H/67B/iSrQG0c5L+S2KjBkfTZQAy+uD+ffpDB5qKtQKkNA0HrFWPBB7Wc
QGjZDUHOg3fBj6jMQFuL4UCvdGjBuTCGQEKs+kC36ILBtPC3QMP3wEDn7nfBoB6lQKdP1kCmTobB
eQYgQUAv6EB+QZLB6IHiQCzG4D5mjofBU8qhQJFTIUGT36bBwHO7QEpcAUE+i7HBTyDsQDPJIEEN
Mq7BjkSKQGY97T8ytKTBCCOjQCPukEBWko/BOVWjQIkSKEChEpzB+Q+IQK44cECWg5fBZHvIQO98
EkErQKnBBc2vQPRt2z8bUZPBQumKQG1vtkBY8ovBXvT3QHy2A0D5eZTBQOd1QEH1k0Dx85/B1Z4G
QcxeS75YAbPBLPqaQD4AQcDhEafBsMz9QFz0zUDe6oXBaKOXQIogAEEXTJnB4G4NQfM1CUELyKLB
WT7ZQCmu4z8CHq7BLjhmQO4MQ78K4qLB7WznQONaIMAkD6/BI3i+QDcKD0GEU1nBdnaSQFcf+UB+
+VnBv9OFQKR5GkEiGnPBiaS3QDX1FEFCK4DB5HfpQCsA70BEAXDBMqPVQHsA0UBUlVnBsmBWQGGx
7EBj83zBpFF0QA1sBUGiH4rB02PQQMiKqUDlvXzBAuCdQKFxsEDxd2/BjnwkQTnkyUCaJJbBYW0p
QdI+AUGcu5XBr08jQcMI5kCWoInBW4ECQSPS0D7w1IXBjwjRQDNePj/1UIDBI6LXQLkED79SE4rB
QLCXQLdUKUHiSq7BOh+HQPS7F0GNtqPB9SOrQK1tLUFC7aDBG5uwQII/CUG67bjBzyLXQNQw7kD8
VLPBQlahQNwR70CqRq7Btt3fQGecKEEldbXB9Mv1QM4KLUFtXKjBlfYDQRTQFkEbQ7DBP/KEQKdu
IEBVqKvBdnlWQDB3xD9FbKHBL86qQB7ZeEBKrojBmPXAQF1im0CWcpPBVDHAQL6pQ0Djvp/BeT9Y
QM7vVEBaY5PBkYaYQK3joT8jK4/BH6JnQMCBrEAY/4bBT3p7QAl1xEDkVpLBL/5TQBZ5hED37qTB
K2/yQFAh4EC314zBQly4QA/q/EA1nZfBLhoBQXafA0ERL53B+JiSQKciJ7/L+aXBJP3LQFXISD/G
nqzBHhrUQDLa0b/ZEK3BmTLGQBVL50CcQo7BpBIIQaTX8EAtHpTBqCXWQJwYB0HQ/p7BzQqjQKVQ
Ij/lAajB6ASrQDzq5L/Xj6jBj6LkQKkvtL59Da/BuFjZQFHVuz/8F5DBLe2uQCTEAkED22LBXqWd
QLauDUF7JnfBoFTNQO2S4EDobWjBWFqGQPid+kAYqYLBkAG4QHdkwEDj53fBWMykQDEa1kA/NobB
M5cfQTg06EBqj5LBX9vhQMm1sz4iC4jBcumfQKwYIUHS6KbBH725QPD8AEEacrHBORLqQByhIEG/
Xq7B1wKKQE3A7D9NmKTBIh2iQBFtkEBuTo/BLy6jQAD6J0DR/pvBUgeIQIMZcUDmnpfBv73GQNtY
EkEaRanB0FCvQGuh2z9ELpPBwkKKQJpxtkDW14vBg6D3QOtNAUA6gJTB/Z16QLsJlUDqI6DBkyab
QGZhQcBGnKbBWiYGQRfcUr4DNbPBI3f9QKiazUAhF4bBH4OWQLMjAEF3JJnBrLAMQQqoCUHA1qLB
qo9mQJBTRL/0b6LBbF/YQCWx4j9/R67BhevmQBbPIMDB/q7BcljAQFmlDkEzOVnB5tyTQC3k+EBN
i1nBnCuHQNdsGkGujnLBrnq4QFyoFEH1E4DB9DfqQNiz7UA7DHDB30jWQOPGz0Djn1nBGBlXQGPH
7EAlQHzBuOtzQCF9BUFRz4nBsC3QQJreqEDh8HzBcAmeQMbtr0CvVm/ByOYjQd8JykDrjJbBO/Io
QSBLAUE8CJbBGhgjQZyw5UCS9YnBJkcCQQvDQz6KTIfBSJrUQD43Ij8INoDBBonSQPmfE78u0YrB
lYmVQM3sKEEcWq7B0HGFQLV5F0GeqqPBzTqpQKBXLUGoCKHBqJyuQLerCEG327jBpIPVQPmL7UCW
N7PBJdWfQCNO7kAlFa7Br3vdQLxCKEENprXBDs/zQBIKLUHhn6jB7vMCQfCuFkHKcLDBlamEQNQJ
IECxj6vBYfxVQAJVxD8hSqHB3vinQJnrdkAaZIjBKeHAQLdDmkDHzZLBajbAQJ/CQkA7rZ/BsvlV
QEnrVkBf4JPBpuWXQFcooD9DMY/BlpxlQI8TrUA+7obBRSl7QCtqxED+TZLB6e5ZQKothkC5XKXB

> <OMEGA_E>
4C8WPYA2HD0=

> <OMEGA_NBR>
     56090

$$$$
50167974
  -OEChem-04172616093D

 75 77  0     1  0  0  0  0  0999 V2000
    5.8034    7.9069  -18.9535 C   0  0  0  0  0  0  0  0  0  0  0  0
    7.5994    6.9947  -17.5898 C   0  0  0  0  0  0  0  0  0  0  0  0
    8.1184    8.1870  -19.6455 C   0  0  0  0  0  0  0  0  0  0  0  0
    6.3979    0.7991  -21.5702 C   0  0  0  0  0  0  0  0  0  0  0  0
    4.5868   -0.6395  -20.7809 C   0  0  0  0  0  0  0  0  0  0  0  0
    6.6468   -1.6249  -21.6374 C   0  0  0  0  0  0  0  0  0  0  0  0
    6.2193    7.2344  -17.7776 C   0  0  0  0  0  0  0  0  0  0  0  0
    6.7456    8.4323  -19.8722 C   0  0  0  0  0  0  0  0  0  0  0  0
    5.1088    0.6475  -21.0147 C   0  0  0  0  0  0  0  0  0  0  0  0
    8.5352    7.4735  -18.5149 C   0  0  0  0  0  0  0  0  0  0  0  0
    7.1702   -0.3371  -21.8700 C   0  0  0  0  0  0  0  0  0  0  0  0
    5.3525   -1.7744  -21.0988 C   0  0  0  0  0  0  0  0  0  0  0  0
    6.8192    1.4993  -18.0184 C   0  0  0  0  0  0  0  0  0  0  0  0
    5.4076    8.1900  -14.1895 C   0  0  0  0  0  0  0  0  0  0  0  0
    4.8823    8.8666  -15.4668 C   0  0  0  0  0  0  0  0  0  0  0  0
    6.3803    7.0493  -14.5235 C   0  0  0  0  0  0  0  0  0  0  0  0
    4.1863    7.8354  -16.3661 C   0  0  0  0  0  0  0  0  0  0  0  0
    5.7377    6.0318  -15.4935 C   0  0  0  0  0  0  0  0  0  0  0  0
    5.1572    6.7014  -16.7874 C   0  0  0  0  0  0  0  0  0  0  0  0
    7.1002    0.4248  -16.9716 C   0  0  0  0  0  0  0  0  0  0  0  0
    5.0395   10.0453  -20.8667 C   0  0  0  0  0  0  0  0  0  0  0  0
    5.9174    8.0868  -22.2072 C   0  0  0  0  0  0  0  0  0  0  0  0
    7.3822   10.0837  -21.7341 C   0  0  0  0  0  0  0  0  0  0  0  0
    4.3235    1.8596  -20.5859 C   0  0  0  0  0  0  0  0  0  0  0  0
    5.0920    4.5313  -17.9407 C   0  0  0  0  0  0  0  0  0  0  0  0
    5.1058    2.6298  -19.5047 C   0  0  1  0  0  0  0  0  0  0  0  0
    4.2478    3.7513  -18.9311 C   0  0  2  0  0  0  0  0  0  0  0  0
    6.2791    9.1543  -21.1508 C   0  0  0  0  0  0  0  0  0  0  0  0
    9.8833    7.2343  -18.3136 N   0  0  0  0  0  0  0  0  0  0  0  0
    5.5031    1.7153  -18.4139 N   0  0  0  0  0  0  0  0  0  0  0  0
    4.3386    5.7091  -17.4983 N   0  3  0  0  0  0  0  0  0  0  0  0
    7.7578    2.0566  -18.5779 O   0  0  0  0  0  0  0  0  0  0  0  0
    3.8289    4.6193  -19.9845 O   0  0  0  0  0  0  0  0  0  0  0  0
    8.4179   -0.1914  -22.3698 F   0  0  0  0  0  0  0  0  0  0  0  0
    4.8493   -3.0076  -20.8712 F   0  0  0  0  0  0  0  0  0  0  0  0
    4.7482    8.0211  -19.1533 H   0  0  0  0  0  0  0  0  0  0  0  0
    7.9346    6.4384  -16.7268 H   0  0  0  0  0  0  0  0  0  0  0  0
    8.8516    8.5524  -20.3492 H   0  0  0  0  0  0  0  0  0  0  0  0
    6.7903    1.7863  -21.7646 H   0  0  0  0  0  0  0  0  0  0  0  0
    3.5997   -0.7542  -20.3579 H   0  0  0  0  0  0  0  0  0  0  0  0
    7.2377   -2.4979  -21.8719 H   0  0  0  0  0  0  0  0  0  0  0  0
    5.9302    8.9388  -13.5760 H   0  0  0  0  0  0  0  0  0  0  0  0
    4.5569    7.7819  -13.6240 H   0  0  0  0  0  0  0  0  0  0  0  0
    4.1636    9.6528  -15.1921 H   0  0  0  0  0  0  0  0  0  0  0  0
    5.7251    9.3150  -16.0132 H   0  0  0  0  0  0  0  0  0  0  0  0
    7.2813    7.4719  -14.9922 H   0  0  0  0  0  0  0  0  0  0  0  0
    6.6589    6.5318  -13.5938 H   0  0  0  0  0  0  0  0  0  0  0  0
    3.3401    7.3960  -15.8176 H   0  0  0  0  0  0  0  0  0  0  0  0
    3.8147    8.3416  -17.2693 H   0  0  0  0  0  0  0  0  0  0  0  0
    6.5028    5.2995  -15.7908 H   0  0  0  0  0  0  0  0  0  0  0  0
    4.9202    5.5155  -14.9690 H   0  0  0  0  0  0  0  0  0  0  0  0
    8.1869    0.2949  -16.8612 H   0  0  0  0  0  0  0  0  0  0  0  0
    6.6677    0.7304  -16.0074 H   0  0  0  0  0  0  0  0  0  0  0  0
    6.6481   -0.5257  -17.2914 H   0  0  0  0  0  0  0  0  0  0  0  0
    4.7281   10.5479  -21.7943 H   0  0  0  0  0  0  0  0  0  0  0  0
    4.2153    9.4189  -20.4948 H   0  0  0  0  0  0  0  0  0  0  0  0
    5.2967   10.8004  -20.1093 H   0  0  0  0  0  0  0  0  0  0  0  0
    5.5811    8.5824  -23.1299 H   0  0  0  0  0  0  0  0  0  0  0  0
    6.8027    7.4708  -22.4238 H   0  0  0  0  0  0  0  0  0  0  0  0
    5.1110    7.4466  -21.8202 H   0  0  0  0  0  0  0  0  0  0  0  0
    7.0050   10.5760  -22.6426 H   0  0  0  0  0  0  0  0  0  0  0  0
    7.6507   10.8466  -20.9885 H   0  0  0  0  0  0  0  0  0  0  0  0
    8.2712    9.4858  -21.9834 H   0  0  0  0  0  0  0  0  0  0  0  0
    4.1588    2.5145  -21.4543 H   0  0  0  0  0  0  0  0  0  0  0  0
    3.3530    1.5410  -20.1778 H   0  0  0  0  0  0  0  0  0  0  0  0
    5.3261    3.8957  -17.0740 H   0  0  0  0  0  0  0  0  0  0  0  0
    6.0270    4.8512  -18.4240 H   0  0  0  0  0  0  0  0  0  0  0  0
    6.0046    3.0673  -19.9637 H   0  0  0  0  0  0  0  0  0  0  0  0
    3.3792    3.3188  -18.4129 H   0  0  0  0  0  0  0  0  0  0  0  0
   10.4096    7.6408  -19.0605 H   0  0  0  0  0  0  0  0  0  0  0  0
   10.1679    7.6411  -17.4456 H   0  0  0  0  0  0  0  0  0  0  0  0
    4.7809    1.2210  -17.9300 H   0  0  0  0  0  0  0  0  0  0  0  0
    3.6086    5.4053  -16.8862 H   0  0  0  0  0  0  0  0  0  0  0  0
    3.9382    6.1482  -18.3026 H   0  0  0  0  0  0  0  0  0  0  0  0
    3.3001    4.1322  -20.6055 H   0  0  0  0  0  0  0  0  0  0  0  0
  1  7  1  0  0  0  0
  1  8  2  0  0  0  0
  2  7  2  0  0  0  0
  2 10  1  0  0  0  0
  3  8  1  0  0  0  0
  3 10  2  0  0  0  0
  4  9  1  0  0  0  0
  4 11  2  0  0  0  0
  5  9  2  0  0  0  0
  5 12  1  0  0  0  0
  6 11  1  0  0  0  0
  6 12  2  0  0  0  0
  7 19  1  0  0  0  0
  8 28  1  0  0  0  0
  9 24  1  0  0  0  0
 10 29  1  0  0  0  0
 11 34  1  0  0  0  0
 12 35  1  0  0  0  0
 13 20  1  0  0  0  0
 13 30  1  0  0  0  0
 13 32  2  0  0  0  0
 14 15  1  0  0  0  0
 14 16  1  0  0  0  0
 15 17  1  0  0  0  0
 16 18  1  0  0  0  0
 17 19  1  0  0  0  0
 18 19  1  0  0  0  0
 19 31  1  0  0  0  0
 21 28  1  0  0  0  0
 22 28  1  0  0  0  0
 23 28  1  0  0  0  0
 24 26  1  0  0  0  0
 25 27  1  0  0  0  0
 25 31  1  0  0  0  0
 26 27  1  0  0  0  0
 26 30  1  0  0  0  0
 27 33  1  0  0  0  0
  1 36  1  0  0  0  0
  2 37  1  0  0  0  0
  3 38  1  0  0  0  0
  4 39  1  0  0  0  0
  5 40  1  0  0  0  0
  6 41  1  0  0  0  0
 14 42  1  0  0  0  0
 14 43  1  0  0  0  0
 15 44  1  0  0  0  0
 15 45  1  0  0  0  0
 16 46  1  0  0  0  0
 16 47  1  0  0  0  0
 17 48  1  0  0  0  0
 17 49  1  0  0  0  0
 18 50  1  0  0  0  0
 18 51  1  0  0  0  0
 20 52  1  0  0  0  0
 20 53  1  0  0  0  0
 20 54  1  0  0  0  0
 21 55  1  0  0  0  0
 21 56  1  0  0  0  0
 21 57  1  0  0  0  0
 22 58  1  0  0  0  0
 22 59  1  0  0  0  0
 22 60  1  0  0  0  0
 23 61  1  0  0  0  0
 23 62  1  0  0  0  0
 23 63  1  0  0  0  0
 24 64  1  0  0  0  0
 24 65  1  0  0  0  0
 25 66  1  0  0  0  0
 25 67  1  0  0  0  0
 26 68  1  0  0  0  0
 27 69  1  0  0  0  0
 29 70  1  0  0  0  0
 29 71  1  0  0  0  0
 30 72  1  0  0  0  0
 31 73  1  0  0  0  0
 31 74  1  0  0  0  0
 33 75  1  0  0  0  0
M  CHG  1  31   1
M  END
> <OMEGA_C>
kLW5QA8F/UDOoJfBVS7zQIfU30DZt4zBz+QBQd/9AkHiKZ3B9bvMQDOPTD/Nj6zBXMeSQMq4I78+
P6bBT7LUQJn8z79NGa3BkgTHQP9/50B1OI7BRNzXQIPqBkFA+p7BWHujQJrAJT8aHqjBFpAIQbUm
70BqHpTBT3LlQDmcrL629a7BAEirQB4f479oyqjB8zbaQB/pvz+uJZDBVgutQGgKA0ENCGPB4Tuc
QLvdDUHmd3fBCSvMQPaT4UBgYGjBIvaFQDm7+kDe7YLBe5u3QKUEwUBZ5XfB8AelQCNy1kCETIbB
nDTjQEt62T7IxYfBUEOhQLa5IEEB76bBgVu9QKRjAUFiqLHBzDrsQO1WIUFy363BClqKQN8I7j/+
r6TBtvGiQM4AkUClho/BuWKjQPlNKECcCZzBqe2HQLYVcED1cpfBIO7IQB14EkHjNKnBCCIeQZR/
50BQgpLBLxmwQJuO2z+yT5PBEtaKQEuxtkCK/IvB1j/4QEqfA0CFn5TBCA11QKrRk0BA4J/Bkq8G
QZr1Q75g9bLBQS2bQNJ8QMAv+KbBfvGXQIhWAEENOpnBFOj9QL0HzkCS0IXBM6ANQaLWCEEWy6LB
bUrZQEil5D/4Ha7BKGJmQOkUQb8I3aLBO5vnQDTeH8CX+a7BhsS9QDgFD0F9N1nBT9KRQEwF+UAP
/FnBbDyFQNBxGkG/EnPBWDS3QFAKFUELG4DBAQDpQM0Z70Ds32/BFxbVQFAE0UABgFnBr8NVQPer
7EAMFX3B5CN0QEN3BUFwJ4rBOBfQQOSVqUAmp3zBgHKdQPZ+sED7gG/Bf/0CQff/lj6u44bB8F3V
QI/4Oj8xD4DBML3UQD2SBr/ZVIrB7UyXQE/EKEHGWq7BgOOGQNWzFkFv9aPBTX6pQITOLEHJ36DB
f5iyQLNRCUHyCbnBYa/ZQA8R70DtY7PBPY2jQJ9K7kC9j67BvCjgQB43KUEcJLXBc9L0QJuLLUFs
6KfBrVYEQaXFF0H63a/BRRWFQDruIEBXoqvBlJdWQBQ+xT8ZbKHBDG+qQOZTeUCSl4jB6NzAQBA9
m0BdZJPBryXAQKZOREC6tZ/BYURYQPdnVEC2TZPBjI0mQZqB9EDqe5jB6K8iQYyD9ECAkIvBOf2Y
QLlJnD+scI/Bm/JmQA34rED4FofB4Ap8QNK9xEC5a5LBZDVTQDo7hED/16TBP3S5QKtH/ECWp5fB
VzHzQCfd4EBnjYzBDb4BQSuRA0H4AZ3BKDyTQEWbJL8kFqbBVwHNQGdZSz88hazBS+7UQA2j0L8c
D63BFu3GQPhk50D5LY7BU23XQMjIBkFo+J7Byd6jQDniJD+rAqjB7IUIQc8R8UCF3JPBNqKrQLqr
478brqjB9qXlQAhUr77N8q7B5fnZQL6pvT+BK5DBXHetQHHHAkHavmLB1jedQM3XDUF1KnfBPh/M
QCiw4EDLGGjB5G2GQIwt+0Ax04LBx4W3QBGjwED94HfBR/qkQEeB1kAtPYbBJ33iQJK4xj4q7YfB
t2GhQAfkIEEnz6bBVLW6QOfFAEHgZrHBKnPrQKlBIEG8Wa7B6qyKQHTp7T9vpKTBJ2+iQEYskUAz
e4/BKnejQIjPKEBQ/5vBuNCHQPrVcEDghZfBDw/IQG4QEkH8OqnB0yoeQQJK60DnBpLBSuSvQMyQ
3T+kMpPBFn+KQE0Ct0Bj84vBpzr4QAQCAUBRvJTBkUR2QKJGlEBBAKDBg4GbQPvEQMAI36bB1LsG
QTL0Sb5HA7PB+aqXQD4T/0BAVZnBMxL+QChFz0B/oYXBQG4NQXKnCUGomKLBt5BnQD3NQb+8n6LB
zIjZQF/+4z+uGq7BLMbnQIM2IMCt967BQWi+QL+UDkE9z1jBu/KRQJDI+EAg0lnBBaqGQGeeGkHN
w3LBZYO4QF7LFEEp1n/BCVDpQGHt7UASX2/BiXbUQNm+z0B+PlnBXEZWQBlv7UDd6XzBZJR1QLXa
BUFYB4rBF/3PQGFMqUCQxXzB5VKdQOHur0CVm2/Bd5YCQVAIZT4eNofB8ILVQP9TMj+eIIDB6+fS
QFJgC78If4rB/O+WQL/FKEFJO67BqOSGQMtPF0HMi6PB0+iqQJcXLUF07qDBJZuvQIiCCEF6zbjB
20/WQJLr7EDWMrPB6LKgQK4N7kAWBq7BdNzeQN7pJ0FKn7XB/Fr1QH6lLEGynKjBPZYDQSM/FkHO
b7DBC36FQLOOIEBKn6vBKylXQK02xT9hZaHBQW6pQPBReUARjIjBCJ7AQARKm0CnPJPB4FPAQAmh
REBgpJ/B/1tXQPpeVUAygJPB/4kmQe+z+EBz9pfBrS4iQR7/+EAaFYvBT5SYQK40oj8QKo/Bowpm
QLFwrUCdEYfBv657QDwvxUAwY5LB1etUQPPJhEBQCqXB

> <OMEGA_E>
+MpPPqDdTz4=

> <OMEGA_NBR>
     58777

$$$$
50167934
  -OEChem-04172616093D

 81 83  0     1  0  0  0  0  0999 V2000
    5.7606    7.9992  -18.9235 C   0  0  0  0  0  0  0  0  0  0  0  0
    7.5840    7.0563  -17.6217 C   0  0  0  0  0  0  0  0  0  0  0  0
    8.0562    8.3170  -19.6485 C   0  0  0  0  0  0  0  0  0  0  0  0
    6.3434    0.6543  -21.5519 C   0  0  0  0  0  0  0  0  0  0  0  0
    4.5810   -0.7154  -20.5574 C   0  0  0  0  0  0  0  0  0  0  0  0
    6.5651   -1.7734  -21.5019 C   0  0  0  0  0  0  0  0  0  0  0  0
    6.2012    7.2858  -17.7797 C   0  0  0  0  0  0  0  0  0  0  0  0
    6.6829    8.5526  -19.8466 C   0  0  0  0  0  0  0  0  0  0  0  0
    5.0926    0.5503  -20.9072 C   0  0  0  0  0  0  0  0  0  0  0  0
    8.4969    7.6010  -18.5304 C   0  0  0  0  0  0  0  0  0  0  0  0
    7.0818   -0.5070  -21.8418 C   0  0  0  0  0  0  0  0  0  0  0  0
    5.3135   -1.8764  -20.8620 C   0  0  0  0  0  0  0  0  0  0  0  0
    6.8030    1.4561  -17.9884 C   0  0  0  0  0  0  0  0  0  0  0  0
    5.3872    8.0483  -14.1069 C   0  0  0  0  0  0  0  0  0  0  0  0
    4.8645    8.7926  -15.3464 C   0  0  0  0  0  0  0  0  0  0  0  0
    6.3855    6.9520  -14.5061 C   0  0  0  0  0  0  0  0  0  0  0  0
    4.1824    7.8071  -16.3067 C   0  0  0  0  0  0  0  0  0  0  0  0
    5.7685    5.9802  -15.5356 C   0  0  0  0  0  0  0  0  0  0  0  0
    5.1633    6.7055  -16.7909 C   0  0  0  0  0  0  0  0  0  0  0  0
    7.0317    0.4525  -16.8612 C   0  0  0  0  0  0  0  0  0  0  0  0
    5.0180   10.2603  -20.7250 C   0  0  0  0  0  0  0  0  0  0  0  0
    5.7313    8.2770  -22.1325 C   0  0  0  0  0  0  0  0  0  0  0  0
    7.3061   10.1999  -21.7273 C   0  0  0  0  0  0  0  0  0  0  0  0
    9.7893    9.1805  -15.8797 C   0  0  0  0  0  0  0  0  0  0  0  0
    4.3304    1.7958  -20.5326 C   0  0  0  0  0  0  0  0  0  0  0  0
    5.1285    4.5820  -18.0224 C   0  0  0  0  0  0  0  0  0  0  0  0
    5.1277    2.6137  -19.4999 C   0  0  1  0  0  0  0  0  0  0  0  0
    4.2857    3.7833  -18.9960 C   0  0  2  0  0  0  0  0  0  0  0  0
    6.1940    9.3160  -21.0891 C   0  0  0  0  0  0  0  0  0  0  0  0
    9.8381    7.5853  -18.2144 N   0  0  0  0  0  0  0  0  0  0  0  0
    5.4952    1.7615  -18.3498 N   0  0  0  0  0  0  0  0  0  0  0  0
    4.3551    5.7307  -17.5385 N   0  3  0  0  0  0  0  0  0  0  0  0
    7.7597    1.8555  -18.6436 O   0  0  0  0  0  0  0  0  0  0  0  0
   11.9260    8.8409  -17.4198 O   0  0  0  0  0  0  0  0  0  0  0  0
    9.9578   10.1767  -18.3267 O   0  0  0  0  0  0  0  0  0  0  0  0
    3.9058    4.6195  -20.0883 O   0  0  0  0  0  0  0  0  0  0  0  0
    8.2869   -0.4059  -22.4456 F   0  0  0  0  0  0  0  0  0  0  0  0
    4.8170   -3.0900  -20.5342 F   0  0  0  0  0  0  0  0  0  0  0  0
   10.4781    9.0376  -17.5537 S   0  0  0  0  0  0  0  0  0  0  0  0
    4.7015    8.1232  -19.0945 H   0  0  0  0  0  0  0  0  0  0  0  0
    7.9391    6.4576  -16.7959 H   0  0  0  0  0  0  0  0  0  0  0  0
    8.7738    8.6910  -20.3636 H   0  0  0  0  0  0  0  0  0  0  0  0
    6.7333    1.6245  -21.8224 H   0  0  0  0  0  0  0  0  0  0  0  0
    3.6276   -0.7935  -20.0561 H   0  0  0  0  0  0  0  0  0  0  0  0
    7.1286   -2.6656  -21.7319 H   0  0  0  0  0  0  0  0  0  0  0  0
    5.8881    8.7660  -13.4405 H   0  0  0  0  0  0  0  0  0  0  0  0
    4.5391    7.5880  -13.5790 H   0  0  0  0  0  0  0  0  0  0  0  0
    4.1377    9.5562  -15.0323 H   0  0  0  0  0  0  0  0  0  0  0  0
    5.7069    9.2779  -15.8611 H   0  0  0  0  0  0  0  0  0  0  0  0
    7.2771    7.4222  -14.9466 H   0  0  0  0  0  0  0  0  0  0  0  0
    6.6750    6.3866  -13.6081 H   0  0  0  0  0  0  0  0  0  0  0  0
    3.3384    7.3297  -15.7875 H   0  0  0  0  0  0  0  0  0  0  0  0
    3.8093    8.3613  -17.1805 H   0  0  0  0  0  0  0  0  0  0  0  0
    6.5531    5.2887  -15.8766 H   0  0  0  0  0  0  0  0  0  0  0  0
    4.9674    5.4109  -15.0415 H   0  0  0  0  0  0  0  0  0  0  0  0
    8.1033    0.2139  -16.7938 H   0  0  0  0  0  0  0  0  0  0  0  0
    6.6923    0.8869  -15.9093 H   0  0  0  0  0  0  0  0  0  0  0  0
    6.4638   -0.4666  -17.0679 H   0  0  0  0  0  0  0  0  0  0  0  0
    4.6843   10.7955  -21.6262 H   0  0  0  0  0  0  0  0  0  0  0  0
    4.1840    9.6679  -20.3205 H   0  0  0  0  0  0  0  0  0  0  0  0
    5.3518   10.9869  -19.9696 H   0  0  0  0  0  0  0  0  0  0  0  0
    5.3752    8.7960  -23.0346 H   0  0  0  0  0  0  0  0  0  0  0  0
    6.5744    7.6212  -22.3956 H   0  0  0  0  0  0  0  0  0  0  0  0
    4.9145    7.6728  -21.7108 H   0  0  0  0  0  0  0  0  0  0  0  0
    6.9015   10.7201  -22.6080 H   0  0  0  0  0  0  0  0  0  0  0  0
    7.6531   10.9404  -20.9915 H   0  0  0  0  0  0  0  0  0  0  0  0
    8.1497    9.5636  -22.0329 H   0  0  0  0  0  0  0  0  0  0  0  0
   10.1666   10.0980  -15.4045 H   0  0  0  0  0  0  0  0  0  0  0  0
    8.6916    9.2224  -15.9374 H   0  0  0  0  0  0  0  0  0  0  0  0
   10.0920    8.3075  -15.2830 H   0  0  0  0  0  0  0  0  0  0  0  0
    4.1668    2.4067  -21.4327 H   0  0  0  0  0  0  0  0  0  0  0  0
    3.3594    1.5119  -20.1007 H   0  0  0  0  0  0  0  0  0  0  0  0
    5.4101    3.9442  -17.1715 H   0  0  0  0  0  0  0  0  0  0  0  0
    6.0370    4.9385  -18.5299 H   0  0  0  0  0  0  0  0  0  0  0  0
    6.0373    3.0047  -19.9791 H   0  0  0  0  0  0  0  0  0  0  0  0
    3.3972    3.3942  -18.4772 H   0  0  0  0  0  0  0  0  0  0  0  0
    9.9860    6.8552  -17.5473 H   0  0  0  0  0  0  0  0  0  0  0  0
    4.7556    1.3796  -17.7956 H   0  0  0  0  0  0  0  0  0  0  0  0
    3.6293    5.3942  -16.9386 H   0  0  0  0  0  0  0  0  0  0  0  0
    3.9486    6.1937  -18.3262 H   0  0  0  0  0  0  0  0  0  0  0  0
    3.3772    4.1211  -20.7004 H   0  0  0  0  0  0  0  0  0  0  0  0
  1  7  1  0  0  0  0
  1  8  2  0  0  0  0
  2  7  2  0  0  0  0
  2 10  1  0  0  0  0
  3  8  1  0  0  0  0
  3 10  2  0  0  0  0
  4  9  1  0  0  0  0
  4 11  2  0  0  0  0
  5  9  2  0  0  0  0
  5 12  1  0  0  0  0
  6 11  1  0  0  0  0
  6 12  2  0  0  0  0
  7 19  1  0  0  0  0
  8 29  1  0  0  0  0
  9 25  1  0  0  0  0
 10 30  1  0  0  0  0
 11 37  1  0  0  0  0
 12 38  1  0  0  0  0
 13 20  1  0  0  0  0
 13 31  1  0  0  0  0
 13 33  2  0  0  0  0
 14 15  1  0  0  0  0
 14 16  1  0  0  0  0
 15 17  1  0  0  0  0
 16 18  1  0  0  0  0
 17 19  1  0  0  0  0
 18 19  1  0  0  0  0
 19 32  1  0  0  0  0
 21 29  1  0  0  0  0
 22 29  1  0  0  0  0
 23 29  1  0  0  0  0
 24 39  1  0  0  0  0
 25 27  1  0  0  0  0
 26 28  1  0  0  0  0
 26 32  1  0  0  0  0
 27 28  1  0  0  0  0
 27 31  1  0  0  0  0
 28 36  1  0  0  0  0
 30 39  1  0  0  0  0
 34 39  2  0  0  0  0
 35 39  2  0  0  0  0
  1 40  1  0  0  0  0
  2 41  1  0  0  0  0
  3 42  1  0  0  0  0
  4 43  1  0  0  0  0
  5 44  1  0  0  0  0
  6 45  1  0  0  0  0
 14 46  1  0  0  0  0
 14 47  1  0  0  0  0
 15 48  1  0  0  0  0
 15 49  1  0  0  0  0
 16 50  1  0  0  0  0
 16 51  1  0  0  0  0
 17 52  1  0  0  0  0
 17 53  1  0  0  0  0
 18 54  1  0  0  0  0
 18 55  1  0  0  0  0
 20 56  1  0  0  0  0
 20 57  1  0  0  0  0
 20 58  1  0  0  0  0
 21 59  1  0  0  0  0
 21 60  1  0  0  0  0
 21 61  1  0  0  0  0
 22 62  1  0  0  0  0
 22 63  1  0  0  0  0
 22 64  1  0  0  0  0
 23 65  1  0  0  0  0
 23 66  1  0  0  0  0
 23 67  1  0  0  0  0
 24 68  1  0  0  0  0
 24 69  1  0  0  0  0
 24 70  1  0  0  0  0
 25 71  1  0  0  0  0
 25 72  1  0  0  0  0
 26 73  1  0  0  0  0
 26 74  1  0  0  0  0
 27 75  1  0  0  0  0
 28 76  1  0  0  0  0
 30 77  1  0  0  0  0
 31 78  1  0  0  0  0
 32 79  1  0  0  0  0
 32 80  1  0  0  0  0
 36 81  1  0  0  0  0
M  CHG  1  32   1
M  END
> <OMEGA_C>
/Va4QGv5/0BJY5fBS7DyQPbM4UAp+YzBFeYAQWESBUEKMJ3BOv3KQB+BJz9aaqzBv5eSQNEiN7+g
daTBmRXSQCEA47/cA6zBL3DGQKgl6UC+PI7BjNrVQIvXCEHmxZ7BfvaiQJHfDD//QafBUfMHQY07
80AuPpTBX57iQO3NAb8NvK7BWgiqQEwv8L9k5abBK7LZQBRhuj8l6I/BWWSsQLHFAEH5tWHBU6qb
QFquDEGyinXBDVbMQO123kAPGWjBodaFQIzT+UAsdILBrJe4QKRdv0CwkXjBsDmlQC6T1kDWU4bB
VwPhQHS05z6544bBuJOgQDMqJEG3zKXB1ma3QJZuBEFZD7HBqMvpQLAyI0Fp0a3BxaAcQX3jEkFO
E37BUpKKQMfb5T/eQqTB1RykQHefkkDtLZDBGxakQEZHJ0C2/5vBsySJQE4hckDi95fBojXGQHoO
FUF+tqjB0WgdQbS68kAwt5HB19ivQEh44T9szJLBzVyLQCVit0DjTozBtU/4QPaB7T8sJpXBFdE+
QWN0DUHWW4vBI1MfQZrTIkELnZLB0/h5QEvTk0DUtKDBH5cEQQPRz76DkLPBoySaQD3CRcAXRqTB
YqYnQe+ZEEH4bYzBjXKWQKP4AUGUwZjB9wz+QJikzkD1XYbBmGEMQW4OC0G26KLBzXbXQITvzz9V
lK7BJStoQFAjS7/hcqDB3h3kQGOZKsDZ2q3B+Gq8QGpBDEFlDFfB5j+RQLbQ8kCjQ1nBOmiEQArm
GEEphHDBjZ62QBtyFEE/x33Bt93oQMaC7UBTJW/BtZnVQMBezEC/ulnBxKdVQNGM6kB7mXzBRMtz
QOvHBUHEcYnBBLPRQAk9qUBmBn7B/fSeQLklrUAHqnDBT6cBQXoOWz66WYbBWyfWQLQMYz9ZjH7B
UtfOQNvh7r4mi4jB3OWVQIq6LEFcAq3BpeOFQNWvGkF8kKLB/UGrQIvKL0G5wZ/B/wGsQH+8DEHp
RrjBN2HSQCrh80AqKrPBzEOdQJ+H9UC4r63B4tjcQF2FK0Ej3bTB7eX0QLALL0Ge7qfBUGUCQVoE
GUFTQ7DBU6oiQYORIUHJeHbBpRALQQaPE0Gk/37B43ghQXHrBEELh3TBW1aFQBsHGkAadqvBpf9W
QJCHwT82zqDBih+tQDRufEBSX4nBUS/BQDoInkAqPZTB0DHBQP1MQEBG1Z/B2mtZQOU6WUBf0ZPB
z8YfQcJd20DkYIzBAC6YQKSXsD9cXY7BC0ZoQAqdrEAygofBdbV8QJEyxkAOnJLBzSNYQD3gg0Ba
mqXB

> <OMEGA_E>
AAa5Pg==

> <OMEGA_NBR>
     60410

$$$$
50167976
  -OEChem-04172616093D

 78 80  0     1  0  0  0  0  0999 V2000
    7.5716    7.5678  -17.5543 C   0  0  0  0  0  0  0  0  0  0  0  0
    7.7918    9.0413  -19.4795 C   0  0  0  0  0  0  0  0  0  0  0  0
    5.5903    8.2623  -18.7849 C   0  0  0  0  0  0  0  0  0  0  0  0
    5.6342    0.1067  -21.7978 C   0  0  0  0  0  0  0  0  0  0  0  0
    4.5759   -0.8651  -19.8213 C   0  0  0  0  0  0  0  0  0  0  0  0
    5.9916   -2.2475  -21.2507 C   0  0  0  0  0  0  0  0  0  0  0  0
    8.3835    8.3332  -18.4128 C   0  0  0  0  0  0  0  0  0  0  0  0
    6.1654    7.5464  -17.7065 C   0  0  0  0  0  0  0  0  0  0  0  0
    6.3919    9.0108  -19.6842 C   0  0  0  0  0  0  0  0  0  0  0  0
    4.7966    0.2441  -20.6691 C   0  0  0  0  0  0  0  0  0  0  0  0
    6.2232   -1.1402  -22.0933 C   0  0  0  0  0  0  0  0  0  0  0  0
    5.1714   -2.1086  -20.1121 C   0  0  0  0  0  0  0  0  0  0  0  0
    9.8482    8.3971  -18.1888 C   0  0  0  0  0  0  0  0  0  0  0  0
    6.7466    1.4574  -17.8440 C   0  0  0  0  0  0  0  0  0  0  0  0
    5.4882    7.7364  -13.9125 C   0  0  0  0  0  0  0  0  0  0  0  0
    4.8138    8.5705  -15.0177 C   0  0  0  0  0  0  0  0  0  0  0  0
    6.5636    6.8089  -14.5000 C   0  0  0  0  0  0  0  0  0  0  0  0
    4.1876    7.6500  -16.0871 C   0  0  0  0  0  0  0  0  0  0  0  0
    5.9961    5.9188  -15.6417 C   0  0  0  0  0  0  0  0  0  0  0  0
    5.2448    6.7219  -16.7677 C   0  0  0  0  0  0  0  0  0  0  0  0
   10.4399    8.1607  -16.7868 C   0  0  0  0  0  0  0  0  0  0  0  0
    6.9375    0.6608  -16.5518 C   0  0  0  0  0  0  0  0  0  0  0  0
    6.3795    9.2630  -22.2029 C   0  0  0  0  0  0  0  0  0  0  0  0
    6.1108   11.3039  -20.7209 C   0  0  0  0  0  0  0  0  0  0  0  0
    4.2316    9.6569  -20.9653 C   0  0  0  0  0  0  0  0  0  0  0  0
    4.1644    1.5882  -20.3460 C   0  0  0  0  0  0  0  0  0  0  0  0
    5.3067    4.7063  -18.2679 C   0  0  0  0  0  0  0  0  0  0  0  0
    5.1075    2.4826  -19.4963 C   0  0  1  0  0  0  0  0  0  0  0  0
    4.4077    3.8211  -19.1497 C   0  0  2  0  0  0  0  0  0  0  0  0
    5.7799    9.7935  -20.8715 C   0  0  0  0  0  0  0  0  0  0  0  0
    5.4508    1.7780  -18.2416 N   0  0  0  0  0  0  0  0  0  0  0  0
    4.4813    5.7586  -17.6189 N   0  3  0  0  0  0  0  0  0  0  0  0
   10.6099    8.5494  -19.1376 O   0  0  0  0  0  0  0  0  0  0  0  0
    7.7165    1.6970  -18.5561 O   0  0  0  0  0  0  0  0  0  0  0  0
    4.0932    4.5381  -20.3453 O   0  0  0  0  0  0  0  0  0  0  0  0
    7.0091   -1.2747  -23.1867 F   0  0  0  0  0  0  0  0  0  0  0  0
    4.9528   -3.1688  -19.2999 F   0  0  0  0  0  0  0  0  0  0  0  0
    8.0296    6.9876  -16.7668 H   0  0  0  0  0  0  0  0  0  0  0  0
    8.4157    9.6146  -20.1493 H   0  0  0  0  0  0  0  0  0  0  0  0
    4.5197    8.2376  -18.9253 H   0  0  0  0  0  0  0  0  0  0  0  0
    5.8240    0.9574  -22.4354 H   0  0  0  0  0  0  0  0  0  0  0  0
    3.9490   -0.7592  -18.9482 H   0  0  0  0  0  0  0  0  0  0  0  0
    6.4426   -3.2022  -21.4778 H   0  0  0  0  0  0  0  0  0  0  0  0
    5.9573    8.4155  -13.1853 H   0  0  0  0  0  0  0  0  0  0  0  0
    4.7254    7.1269  -13.4059 H   0  0  0  0  0  0  0  0  0  0  0  0
    4.0253    9.1934  -14.5703 H   0  0  0  0  0  0  0  0  0  0  0  0
    5.5663    9.2169  -15.4929 H   0  0  0  0  0  0  0  0  0  0  0  0
    7.3833    7.4230  -14.9011 H   0  0  0  0  0  0  0  0  0  0  0  0
    6.9494    6.1595  -13.7003 H   0  0  0  0  0  0  0  0  0  0  0  0
    3.4223    7.0217  -15.6080 H   0  0  0  0  0  0  0  0  0  0  0  0
    3.7172    8.2756  -16.8599 H   0  0  0  0  0  0  0  0  0  0  0  0
    6.8328    5.3750  -16.1045 H   0  0  0  0  0  0  0  0  0  0  0  0
    5.2904    5.1993  -15.2007 H   0  0  0  0  0  0  0  0  0  0  0  0
   11.5383    8.1634  -16.8466 H   0  0  0  0  0  0  0  0  0  0  0  0
   10.1078    8.9609  -16.1091 H   0  0  0  0  0  0  0  0  0  0  0  0
   10.0961    7.1889  -16.4029 H   0  0  0  0  0  0  0  0  0  0  0  0
    7.9991    0.3964  -16.4369 H   0  0  0  0  0  0  0  0  0  0  0  0
    6.6169    1.2708  -15.6944 H   0  0  0  0  0  0  0  0  0  0  0  0
    6.3336   -0.2576  -16.5947 H   0  0  0  0  0  0  0  0  0  0  0  0
    5.9458    9.8179  -23.0479 H   0  0  0  0  0  0  0  0  0  0  0  0
    7.4707    9.4019  -22.1946 H   0  0  0  0  0  0  0  0  0  0  0  0
    6.1470    8.1931  -22.3091 H   0  0  0  0  0  0  0  0  0  0  0  0
    5.6763   11.8608  -21.5642 H   0  0  0  0  0  0  0  0  0  0  0  0
    5.6885   11.6794  -19.7772 H   0  0  0  0  0  0  0  0  0  0  0  0
    7.2022   11.4411  -20.7145 H   0  0  0  0  0  0  0  0  0  0  0  0
    3.8636   10.2344  -21.8261 H   0  0  0  0  0  0  0  0  0  0  0  0
    3.9642    8.5976  -21.0932 H   0  0  0  0  0  0  0  0  0  0  0  0
    3.7731   10.0420  -20.0426 H   0  0  0  0  0  0  0  0  0  0  0  0
    3.9339    2.1083  -21.2875 H   0  0  0  0  0  0  0  0  0  0  0  0
    3.2343    1.4177  -19.7840 H   0  0  0  0  0  0  0  0  0  0  0  0
    5.7860    4.0874  -17.4950 H   0  0  0  0  0  0  0  0  0  0  0  0
    6.0803    5.1791  -18.8909 H   0  0  0  0  0  0  0  0  0  0  0  0
    6.0203    2.6922  -20.0732 H   0  0  0  0  0  0  0  0  0  0  0  0
    3.4860    3.5961  -18.5930 H   0  0  0  0  0  0  0  0  0  0  0  0
    4.6999    1.5133  -17.6365 H   0  0  0  0  0  0  0  0  0  0  0  0
    3.7998    5.3074  -17.0427 H   0  0  0  0  0  0  0  0  0  0  0  0
    4.0190    6.2780  -18.3376 H   0  0  0  0  0  0  0  0  0  0  0  0
    3.5379    4.0025  -20.8996 H   0  0  0  0  0  0  0  0  0  0  0  0
  1  7  1  0  0  0  0
  1  8  2  0  0  0  0
  2  7  2  0  0  0  0
  2  9  1  0  0  0  0
  3  8  1  0  0  0  0
  3  9  2  0  0  0  0
  4 10  1  0  0  0  0
  4 11  2  0  0  0  0
  5 10  2  0  0  0  0
  5 12  1  0  0  0  0
  6 11  1  0  0  0  0
  6 12  2  0  0  0  0
  7 13  1  0  0  0  0
  8 20  1  0  0  0  0
  9 30  1  0  0  0  0
 10 26  1  0  0  0  0
 11 36  1  0  0  0  0
 12 37  1  0  0  0  0
 13 21  1  0  0  0  0
 13 33  2  0  0  0  0
 14 22  1  0  0  0  0
 14 31  1  0  0  0  0
 14 34  2  0  0  0  0
 15 16  1  0  0  0  0
 15 17  1  0  0  0  0
 16 18  1  0  0  0  0
 17 19  1  0  0  0  0
 18 20  1  0  0  0  0
 19 20  1  0  0  0  0
 20 32  1  0  0  0  0
 23 30  1  0  0  0  0
 24 30  1  0  0  0  0
 25 30  1  0  0  0  0
 26 28  1  0  0  0  0
 27 29  1  0  0  0  0
 27 32  1  0  0  0  0
 28 29  1  0  0  0  0
 28 31  1  0  0  0  0
 29 35  1  0  0  0  0
  1 38  1  0  0  0  0
  2 39  1  0  0  0  0
  3 40  1  0  0  0  0
  4 41  1  0  0  0  0
  5 42  1  0  0  0  0
  6 43  1  0  0  0  0
 15 44  1  0  0  0  0
 15 45  1  0  0  0  0
 16 46  1  0  0  0  0
 16 47  1  0  0  0  0
 17 48  1  0  0  0  0
 17 49  1  0  0  0  0
 18 50  1  0  0  0  0
 18 51  1  0  0  0  0
 19 52  1  0  0  0  0
 19 53  1  0  0  0  0
 21 54  1  0  0  0  0
 21 55  1  0  0  0  0
 21 56  1  0  0  0  0
 22 57  1  0  0  0  0
 22 58  1  0  0  0  0
 22 59  1  0  0  0  0
 23 60  1  0  0  0  0
 23 61  1  0  0  0  0
 23 62  1  0  0  0  0
 24 63  1  0  0  0  0
 24 64  1  0  0  0  0
 24 65  1  0  0  0  0
 25 66  1  0  0  0  0
 25 67  1  0  0  0  0
 25 68  1  0  0  0  0
 26 69  1  0  0  0  0
 26 70  1  0  0  0  0
 27 71  1  0  0  0  0
 27 72  1  0  0  0  0
 28 73  1  0  0  0  0
 29 74  1  0  0  0  0
 31 75  1  0  0  0  0
 32 76  1  0  0  0  0
 32 77  1  0  0  0  0
 35 78  1  0  0  0  0
M  CHG  1  32   1
M  END
> <OMEGA_C>
PUryQBgr8kAcb4zBqlb5QFCpEEEa1pvBceOyQDYyBEGPR5bBsEu0QLJs2j3rYa7BdG2SQEx2Xb8A
kp7BILu/QGTXD8B1AarB0yIGQbJUBUFwTZPB1krFQEJ88UDzpo3BlYrMQGwsEEEveZ3Bc32ZQJTq
eT5aWqXBtiTHQNvykb8Sv7DBUHylQJ/zBsCE5aDBU5IdQZNaBkG6gpHBPeTXQE2Luj+KwI7BmJ+v
QOSQ90CkmV7BngqaQLUgCUGVSHDBTgnSQDTi2UDU/2fB5wCGQPLM9EBSsoDB3t+/QGhmvUA4RHrB
B9WnQHEZ10AuJIbBAgonQTSSAkFbS4bBVQDeQJQrKT8GaoTB+yTMQCQ1FEGTn7HB/YvDQMbcNEF9
xKXBrWmHQKOCGkHwuKfBnUKFQIxJyz+MxKLBxtCpQLqZlkCjJJLBZnCjQD3jHkBy+JvBEQyNQD2M
dECJMpnBsvS4QCuyHEHW+KbBKm2uQCiU4z/E7pHBKmePQEpGuECF84zBBsIpQYTKCEHhGZnB7e32
QEU42T/jcpTBSvuCQF84kUAxw6LByUrgQDMpo79sfrnBAn2eQK/NSsAxZprBb3kAQdCa30B6IobB
m6YGQZDVGUG2MaHBfaGQQBLNA0EXZ5fBPF66QNwadT+/e7PBFL18QBlcQr/plZfBACrOQNTwTMB9
0qvBjKK+QNClBkH+9lLBjzaXQOsP5ECzflbBE8+AQC4YE0HTH2nBWh+yQIZ4E0H+4nfBUUTsQFSJ
7UDaam7B22HeQIQaxUBoNFvBGgdbQOux4EAtunnBQuZtQOhoBEEo4YbBXabaQEsArEAV1oDBJ0up
QGdgpkBFNnPB8Jw4QSWdAkHIxYbBj7khQe5fD0Fc34DBs4khQTkL5kA7OYPBfPj/QLTyyj64foPB
i73TQI6qoj9KHHvBzazKQM7dg77ewYTB9EO+QDsWHUEAYrjBtw/vQF9uFkF3jrHB0bPEQOcWA0Hx
eLLBn6S1QAHGPUFrg6zBYwi2QLXeOkGuN57BpnjmQNAON0FZt6XBuER3QOe/I0H0m67BAbZ9QLWP
CUHWvqjBD3txQAmsIEEoV6DBr8R7QJLtBkC2TKrBAv5OQIx4tT+hRZ7BHCe5QCvMgkDR9YvBfpHC
QOC6pUCHIJfBKKbAQItNLED6laDBsRpfQEknZkCJvpTB2GWWQCazwT+YF43BEzBzQJjWqUB+V4jB
9puAQCLlyEBjs5LBhmxiQB0UgEBLMqfB

> <OMEGA_E>
JCUaPw==

> <OMEGA_NBR>
     61995

$$$$
50167987
  -OEChem-04172616093D

 61 63  0     1  0  0  0  0  0999 V2000
    7.7018    8.7712  -19.9181 C   0  0  0  0  0  0  0  0  0  0  0  0
    6.2979    8.8244  -19.9578 C   0  0  0  0  0  0  0  0  0  0  0  0
    8.3424    8.0422  -18.8964 C   0  0  0  0  0  0  0  0  0  0  0  0
    5.5398    8.1574  -18.9733 C   0  0  0  0  0  0  0  0  0  0  0  0
    7.5852    7.3822  -17.9003 C   0  0  0  0  0  0  0  0  0  0  0  0
    4.5659   -0.6118  -20.9087 C   0  0  0  0  0  0  0  0  0  0  0  0
    6.4897    0.7809  -21.4844 C   0  0  0  0  0  0  0  0  0  0  0  0
    6.6484   -1.6456  -21.6458 C   0  0  0  0  0  0  0  0  0  0  0  0
    6.1655    7.4472  -17.9101 C   0  0  0  0  0  0  0  0  0  0  0  0
    5.1554    0.6602  -21.0376 C   0  0  0  0  0  0  0  0  0  0  0  0
    5.3093   -1.7629  -21.2208 C   0  0  0  0  0  0  0  0  0  0  0  0
    7.2394   -0.3727  -21.7737 C   0  0  0  0  0  0  0  0  0  0  0  0
    6.6375    1.3196  -17.8925 C   0  0  0  0  0  0  0  0  0  0  0  0
    5.4551    7.7621  -14.0207 C   0  0  0  0  0  0  0  0  0  0  0  0
    4.8612    8.6140  -15.1503 C   0  0  0  0  0  0  0  0  0  0  0  0
    6.5638    6.8574  -14.5747 C   0  0  0  0  0  0  0  0  0  0  0  0
    4.2420    7.7077  -16.2175 C   0  0  0  0  0  0  0  0  0  0  0  0
    6.0330    5.9525  -15.6977 C   0  0  0  0  0  0  0  0  0  0  0  0
    5.2737    6.7244  -16.8452 C   0  0  0  0  0  0  0  0  0  0  0  0
    6.7735    0.1721  -16.8947 C   0  0  0  0  0  0  0  0  0  0  0  0
    4.3825    1.8848  -20.6231 C   0  0  0  0  0  0  0  0  0  0  0  0
    5.1430    4.5256  -17.9576 C   0  0  0  0  0  0  0  0  0  0  0  0
    5.1154    2.5946  -19.4688 C   0  0  1  0  0  0  0  0  0  0  0  0
    4.2847    3.7587  -18.9425 C   0  0  2  0  0  0  0  0  0  0  0  0
    5.3701    1.6428  -18.3668 N   0  0  0  0  0  0  0  0  0  0  0  0
    4.4340    5.7426  -17.5552 N   0  3  0  0  0  0  0  0  0  0  0  0
    7.6481    1.8291  -18.3653 O   0  0  0  0  0  0  0  0  0  0  0  0
    3.9246    4.6260  -20.0172 O   0  0  0  0  0  0  0  0  0  0  0  0
    4.7390   -2.9817  -21.0997 F   0  0  0  0  0  0  0  0  0  0  0  0
    8.5284   -0.2583  -22.1651 F   0  0  0  0  0  0  0  0  0  0  0  0
    8.2862    9.2860  -20.6663 H   0  0  0  0  0  0  0  0  0  0  0  0
    5.8000    9.3757  -20.7417 H   0  0  0  0  0  0  0  0  0  0  0  0
    9.4207    7.9869  -18.8735 H   0  0  0  0  0  0  0  0  0  0  0  0
    4.4615    8.1861  -19.0272 H   0  0  0  0  0  0  0  0  0  0  0  0
    8.0902    6.8241  -17.1258 H   0  0  0  0  0  0  0  0  0  0  0  0
    3.5443   -0.7029  -20.5706 H   0  0  0  0  0  0  0  0  0  0  0  0
    6.9336    1.7582  -21.6037 H   0  0  0  0  0  0  0  0  0  0  0  0
    7.2217   -2.5321  -21.8737 H   0  0  0  0  0  0  0  0  0  0  0  0
    5.8758    8.4229  -13.2484 H   0  0  0  0  0  0  0  0  0  0  0  0
    4.6633    7.1394  -13.5788 H   0  0  0  0  0  0  0  0  0  0  0  0
    4.0847    9.2754  -14.7385 H   0  0  0  0  0  0  0  0  0  0  0  0
    5.6570    9.2220  -15.6054 H   0  0  0  0  0  0  0  0  0  0  0  0
    7.3741    7.4857  -14.9729 H   0  0  0  0  0  0  0  0  0  0  0  0
    6.9537    6.2283  -13.7610 H   0  0  0  0  0  0  0  0  0  0  0  0
    3.4338    7.1218  -15.7555 H   0  0  0  0  0  0  0  0  0  0  0  0
    3.8265    8.3389  -17.0169 H   0  0  0  0  0  0  0  0  0  0  0  0
    6.8860    5.4213  -16.1450 H   0  0  0  0  0  0  0  0  0  0  0  0
    5.3387    5.2235  -15.2543 H   0  0  0  0  0  0  0  0  0  0  0  0
    7.8387   -0.0486  -16.7318 H   0  0  0  0  0  0  0  0  0  0  0  0
    6.3085    0.4594  -15.9401 H   0  0  0  0  0  0  0  0  0  0  0  0
    6.2708   -0.7216  -17.2931 H   0  0  0  0  0  0  0  0  0  0  0  0
    4.2973    2.5707  -21.4789 H   0  0  0  0  0  0  0  0  0  0  0  0
    3.3771    1.5875  -20.2901 H   0  0  0  0  0  0  0  0  0  0  0  0
    5.3364    3.9016  -17.0727 H   0  0  0  0  0  0  0  0  0  0  0  0
    6.0981    4.7949  -18.4322 H   0  0  0  0  0  0  0  0  0  0  0  0
    6.0728    2.9831  -19.8462 H   0  0  0  0  0  0  0  0  0  0  0  0
    3.3902    3.3722  -18.4322 H   0  0  0  0  0  0  0  0  0  0  0  0
    4.5822    1.2038  -17.9351 H   0  0  0  0  0  0  0  0  0  0  0  0
    3.6797    5.4813  -16.9530 H   0  0  0  0  0  0  0  0  0  0  0  0
    4.0685    6.1789  -18.3774 H   0  0  0  0  0  0  0  0  0  0  0  0
    3.3857    4.1524  -20.6399 H   0  0  0  0  0  0  0  0  0  0  0  0
  1  2  1  0  0  0  0
  1  3  2  0  0  0  0
  2  4  2  0  0  0  0
  3  5  1  0  0  0  0
  4  9  1  0  0  0  0
  5  9  2  0  0  0  0
  6 10  1  0  0  0  0
  6 11  2  0  0  0  0
  7 10  2  0  0  0  0
  7 12  1  0  0  0  0
  8 11  1  0  0  0  0
  8 12  2  0  0  0  0
  9 19  1  0  0  0  0
 10 21  1  0  0  0  0
 11 29  1  0  0  0  0
 12 30  1  0  0  0  0
 13 20  1  0  0  0  0
 13 25  1  0  0  0  0
 13 27  2  0  0  0  0
 14 15  1  0  0  0  0
 14 16  1  0  0  0  0
 15 17  1  0  0  0  0
 16 18  1  0  0  0  0
 17 19  1  0  0  0  0
 18 19  1  0  0  0  0
 19 26  1  0  0  0  0
 21 23  1  0  0  0  0
 22 24  1  0  0  0  0
 22 26  1  0  0  0  0
 23 24  1  0  0  0  0
 23 25  1  0  0  0  0
 24 28  1  0  0  0  0
  1 31  1  0  0  0  0
  2 32  1  0  0  0  0
  3 33  1  0  0  0  0
  4 34  1  0  0  0  0
  5 35  1  0  0  0  0
  6 36  1  0  0  0  0
  7 37  1  0  0  0  0
  8 38  1  0  0  0  0
 14 39  1  0  0  0  0
 14 40  1  0  0  0  0
 15 41  1  0  0  0  0
 15 42  1  0  0  0  0
 16 43  1  0  0  0  0
 16 44  1  0  0  0  0
 17 45  1  0  0  0  0
 17 46  1  0  0  0  0
 18 47  1  0  0  0  0
 18 48  1  0  0  0  0
 20 49  1  0  0  0  0
 20 50  1  0  0  0  0
 20 51  1  0  0  0  0
 21 52  1  0  0  0  0
 21 53  1  0  0  0  0
 22 54  1  0  0  0  0
 22 55  1  0  0  0  0
 23 56  1  0  0  0  0
 24 57  1  0  0  0  0
 25 58  1  0  0  0  0
 26 59  1  0  0  0  0
 26 60  1  0  0  0  0
 28 61  1  0  0  0  0
M  CHG  1  26   1
M  END
> <OMEGA_C>
1XT2QM1WDEFTWJ/Bn4jJQJkwDUGBqZ/BbHoFQbKsAEHCK5fBtUWxQM6EAkFPyZfBn7nyQLo67EDl
M4/BFhySQKagHL8HRafB76vPQODqRz8S4KvBa7/UQLej0r+zKq3BnEvFQGBP7kDOR4/BLfmkQPYB
KT/3TKjBx+WpQD2l4b85xKnBbannQMzQvr59MK7Bz2bUQOHnqD/KI4/Bi5CuQEJj+EC4VGDBHI+b
QBDTCUHGZ3LBawrSQCRw20D8MWnBo76HQNKl9kCIvYHBGw7BQN96vkC2KXvBwMGoQDIu10AHw4bB
S8DYQPA2MD5eKIfBEj2MQJFC8T8Y/KTBcZOkQB7SkEA9qY/BKbGjQK4OJkACwJvBNxyJQEaPcEBI
ipfBMtirQKtI0j8l75LBouONQP7Ct0AScYzB9bz0QB0f6j8e7JLBJC17QPgHlEAnI6DBfKWXQP7T
PsAkzKjBenQIQW5EhL4MUrHBIJQEQZGTFEGpVKXB4pm5QL8CFkEE76XBT7sWQVaU/0AH/ZbBfcSO
QFT6AkGkN5jBjnEBQche2kC9AYnBRNViQCzuM7+SkKTBQ+DdQMMN4T901KzBLhjnQEsNIsBQ/a7B
jAa8QC3EBkFy+VPBxTmVQBF25EDuQlnBuLWCQOlnFEHW0GvBTAa1QDiNE0HNr3nB0fjrQAOL70At
kW/BzoTeQG5Ox0DvLFzBv8NbQObl40BzFnzBGuV0QDZsBUGUIojBWFrcQF97rUAOKYHBBdeqQNwm
p0CLEXTB09b6QEnyRr2m2oXB+t7JQEYz6z7ACn/BjKrIQNu3OL9aWIrBvoOJQKOFJEDM1KvBwiJY
QA0zyz8dUqLBhcOqQDKzeUDglIjB2SPDQCxwmUAmdZPBVFTCQP/qPkABxZ7B/fhYQLzRV0AfdZPB
/KCSQM0Vmj8qe4/BtH9rQC5nr0Csn4fBvzCCQIC5xUDcBJPBH7BYQE3ghECMHqXBxP31QLHnDEHo
Rp/B6hbJQAkRDkFfXp/BX2QFQWrOAEHTTpfBzCSxQNQ3A0HMf5fBhN3yQIg/7EBIUI/BzkfPQLwQ
SD/IzqvB1v2RQAoaH7/DLKfBHr3UQNxk0r8FH63BnHHFQOrV7kAXMI/BZKSkQHQzJz/RM6jBVm/n
QLgzvL4mJq7BRPGpQAVR4r/VsKnBuoHUQJhlqj9NG4/BlHSuQGLv9kClEWDB1SibQK88CUHL83HB
GDXSQDmM2kDNImnBFLGHQCq19UCumYHBqoTBQIDsvUBeTnvBJRWpQFb71kB5wIbBlBrZQNDDRD7j
DofBm7iLQDCr7z/A3aTBv9GkQOjskEAcx4/BbGmjQBTQJUDLuJvBlvyIQKyIcEAGi5fBy9arQMLp
0j+73JLBaFWOQPPut0ASlIzBzLn0QBIu6z8F+5LBOHp6QNvIk0AjK6DBDlIIQcCIe779S7HBY+qX
QFRVP8DDrqjBnDoEQaM7FUHbRqXB2+24QC1EF0EYd6XBl6IWQXxa/0AyTZfBpKCOQDPgA0GPyJfB
BqABQc7T2UA2QonBck7dQA9y4T+uw6zBZ6liQPTMN78gdaTBaDXnQOW6IcB09q7B9bu7QGXxBUHH
lFPBSVKVQHuV4kC0HlnBVROCQFCXE0GtOWvBIWi0QIEzE0ElGnnBtPPrQJ0R70AgXW/BKd7eQP8s
xkAgQVzByT5cQC9l4kBe6nvBNh90QHsKBUFo6ofBNvjcQGJXrUCzR4HBn3erQBg6pkA0ZHTBaDv7
QAFC2rwVzYXB/2/KQKRf+T4Q1H7BjvHIQCV5NL9rKIrB5IeIQHh5I0CruavBLXxXQG7DyD9nG6LB
Vz+rQDdEekAnrojBvD/DQLhhmUDUqZPBm/bBQNF4PkAN0p7BMvlYQHQjWEDqX5PB1bySQFzdmj8g
WY/BGbBrQM6nr0D63IfB6iODQAYqxkC+LJPBHYNXQEeIhEBaFKXB

> <OMEGA_E>
qKGPPiT4kj4=

> <OMEGA_NBR>
     64290

$$$$
50167977
  -OEChem-04172616093D

 73 75  0     1  0  0  0  0  0999 V2000
    5.8288    7.8697  -18.9568 C   0  0  0  0  0  0  0  0  0  0  0  0
    7.6431    7.0440  -17.5643 C   0  0  0  0  0  0  0  0  0  0  0  0
    8.1364    8.2417  -19.6288 C   0  0  0  0  0  0  0  0  0  0  0  0
    6.3758    0.8031  -21.5739 C   0  0  0  0  0  0  0  0  0  0  0  0
    4.5908   -0.6522  -20.7564 C   0  0  0  0  0  0  0  0  0  0  0  0
    6.6583   -1.6176  -21.6188 C   0  0  0  0  0  0  0  0  0  0  0  0
    6.2539    7.2270  -17.7723 C   0  0  0  0  0  0  0  0  0  0  0  0
    6.7531    8.4245  -19.8706 C   0  0  0  0  0  0  0  0  0  0  0  0
    5.0929    0.6399  -21.0070 C   0  0  0  0  0  0  0  0  0  0  0  0
    8.5732    7.5515  -18.4861 C   0  0  0  0  0  0  0  0  0  0  0  0
    7.1621   -0.3251  -21.8673 C   0  0  0  0  0  0  0  0  0  0  0  0
    5.3697   -1.7796  -21.0704 C   0  0  0  0  0  0  0  0  0  0  0  0
    6.7963    1.4488  -18.0606 C   0  0  0  0  0  0  0  0  0  0  0  0
    5.3503    8.1443  -14.1728 C   0  0  0  0  0  0  0  0  0  0  0  0
    4.8497    8.8381  -15.4498 C   0  0  0  0  0  0  0  0  0  0  0  0
    6.3549    7.0308  -14.5053 C   0  0  0  0  0  0  0  0  0  0  0  0
    4.1940    7.8148  -16.3825 C   0  0  0  0  0  0  0  0  0  0  0  0
    5.7552    6.0134  -15.5006 C   0  0  0  0  0  0  0  0  0  0  0  0
    5.1828    6.6888  -16.7915 C   0  0  0  0  0  0  0  0  0  0  0  0
    7.0707    0.4606  -16.9315 C   0  0  0  0  0  0  0  0  0  0  0  0
    5.0149   10.0217  -20.8364 C   0  0  0  0  0  0  0  0  0  0  0  0
    5.8213    8.0269  -22.1632 C   0  0  0  0  0  0  0  0  0  0  0  0
    7.3194   10.0200  -21.8065 C   0  0  0  0  0  0  0  0  0  0  0  0
    4.2978    1.8472  -20.5783 C   0  0  0  0  0  0  0  0  0  0  0  0
    5.0798    4.5082  -17.9227 C   0  0  0  0  0  0  0  0  0  0  0  0
    5.0823    2.6239  -19.5037 C   0  0  1  0  0  0  0  0  0  0  0  0
    4.2361    3.7559  -18.9377 C   0  0  2  0  0  0  0  0  0  0  0  0
    6.2399    9.1165  -21.1502 C   0  0  0  0  0  0  0  0  0  0  0  0
    5.4766    1.7175  -18.4066 N   0  0  0  0  0  0  0  0  0  0  0  0
    4.3545    5.7077  -17.5071 N   0  3  0  0  0  0  0  0  0  0  0  0
    7.7305    2.0598  -18.5689 O   0  0  0  0  0  0  0  0  0  0  0  0
    3.8598    4.6396  -19.9947 O   0  0  0  0  0  0  0  0  0  0  0  0
    9.8957    7.3638  -18.2788 F   0  0  0  0  0  0  0  0  0  0  0  0
    8.4041   -0.1668  -22.3774 F   0  0  0  0  0  0  0  0  0  0  0  0
    4.8845   -3.0179  -20.8307 F   0  0  0  0  0  0  0  0  0  0  0  0
    4.7721    7.9387  -19.1688 H   0  0  0  0  0  0  0  0  0  0  0  0
    7.9892    6.5108  -16.6912 H   0  0  0  0  0  0  0  0  0  0  0  0
    8.8600    8.6355  -20.3272 H   0  0  0  0  0  0  0  0  0  0  0  0
    6.7528    1.7935  -21.7819 H   0  0  0  0  0  0  0  0  0  0  0  0
    3.6092   -0.7765  -20.3236 H   0  0  0  0  0  0  0  0  0  0  0  0
    7.2598   -2.4846  -21.8486 H   0  0  0  0  0  0  0  0  0  0  0  0
    5.8398    8.8889  -13.5278 H   0  0  0  0  0  0  0  0  0  0  0  0
    4.4921    7.7069  -13.6416 H   0  0  0  0  0  0  0  0  0  0  0  0
    4.1129    9.6090  -15.1800 H   0  0  0  0  0  0  0  0  0  0  0  0
    5.7000    9.3081  -15.9656 H   0  0  0  0  0  0  0  0  0  0  0  0
    7.2542    7.4809  -14.9511 H   0  0  0  0  0  0  0  0  0  0  0  0
    6.6286    6.5064  -13.5780 H   0  0  0  0  0  0  0  0  0  0  0  0
    3.3338    7.3631  -15.8668 H   0  0  0  0  0  0  0  0  0  0  0  0
    3.8476    8.3312  -17.2900 H   0  0  0  0  0  0  0  0  0  0  0  0
    6.5430    5.3046  -15.7953 H   0  0  0  0  0  0  0  0  0  0  0  0
    4.9415    5.4694  -14.9988 H   0  0  0  0  0  0  0  0  0  0  0  0
    8.1497    0.4361  -16.7191 H   0  0  0  0  0  0  0  0  0  0  0  0
    6.5265    0.7751  -16.0288 H   0  0  0  0  0  0  0  0  0  0  0  0
    6.7335   -0.5424  -17.2321 H   0  0  0  0  0  0  0  0  0  0  0  0
    4.6675   10.5034  -21.7623 H   0  0  0  0  0  0  0  0  0  0  0  0
    4.2043    9.4086  -20.4158 H   0  0  0  0  0  0  0  0  0  0  0  0
    5.3063   10.7935  -20.1088 H   0  0  0  0  0  0  0  0  0  0  0  0
    5.4521    8.5034  -23.0833 H   0  0  0  0  0  0  0  0  0  0  0  0
    6.6893    7.3944  -22.4008 H   0  0  0  0  0  0  0  0  0  0  0  0
    5.0245    7.4070  -21.7263 H   0  0  0  0  0  0  0  0  0  0  0  0
    6.9054   10.4886  -22.7115 H   0  0  0  0  0  0  0  0  0  0  0  0
    7.6244   10.8021  -21.0956 H   0  0  0  0  0  0  0  0  0  0  0  0
    8.1935    9.4094  -22.0770 H   0  0  0  0  0  0  0  0  0  0  0  0
    4.1232    2.4986  -21.4473 H   0  0  0  0  0  0  0  0  0  0  0  0
    3.3322    1.5220  -20.1639 H   0  0  0  0  0  0  0  0  0  0  0  0
    5.2664    3.8670  -17.0486 H   0  0  0  0  0  0  0  0  0  0  0  0
    6.0390    4.7949  -18.3785 H   0  0  0  0  0  0  0  0  0  0  0  0
    5.9835    3.0516  -19.9673 H   0  0  0  0  0  0  0  0  0  0  0  0
    3.3479    3.3381  -18.4412 H   0  0  0  0  0  0  0  0  0  0  0  0
    4.7521    1.2706  -17.8818 H   0  0  0  0  0  0  0  0  0  0  0  0
    3.6057    5.4298  -16.9054 H   0  0  0  0  0  0  0  0  0  0  0  0
    3.9804    6.1477  -18.3234 H   0  0  0  0  0  0  0  0  0  0  0  0
    3.3323    4.1686  -20.6291 H   0  0  0  0  0  0  0  0  0  0  0  0
  1  7  1  0  0  0  0
  1  8  2  0  0  0  0
  2  7  2  0  0  0  0
  2 10  1  0  0  0  0
  3  8  1  0  0  0  0
  3 10  2  0  0  0  0
  4  9  1  0  0  0  0
  4 11  2  0  0  0  0
  5  9  2  0  0  0  0
  5 12  1  0  0  0  0
  6 11  1  0  0  0  0
  6 12  2  0  0  0  0
  7 19  1  0  0  0  0
  8 28  1  0  0  0  0
  9 24  1  0  0  0  0
 10 33  1  0  0  0  0
 11 34  1  0  0  0  0
 12 35  1  0  0  0  0
 13 20  1  0  0  0  0
 13 29  1  0  0  0  0
 13 31  2  0  0  0  0
 14 15  1  0  0  0  0
 14 16  1  0  0  0  0
 15 17  1  0  0  0  0
 16 18  1  0  0  0  0
 17 19  1  0  0  0  0
 18 19  1  0  0  0  0
 19 30  1  0  0  0  0
 21 28  1  0  0  0  0
 22 28  1  0  0  0  0
 23 28  1  0  0  0  0
 24 26  1  0  0  0  0
 25 27  1  0  0  0  0
 25 30  1  0  0  0  0
 26 27  1  0  0  0  0
 26 29  1  0  0  0  0
 27 32  1  0  0  0  0
  1 36  1  0  0  0  0
  2 37  1  0  0  0  0
  3 38  1  0  0  0  0
  4 39  1  0  0  0  0
  5 40  1  0  0  0  0
  6 41  1  0  0  0  0
 14 42  1  0  0  0  0
 14 43  1  0  0  0  0
 15 44  1  0  0  0  0
 15 45  1  0  0  0  0
 16 46  1  0  0  0  0
 16 47  1  0  0  0  0
 17 48  1  0  0  0  0
 17 49  1  0  0  0  0
 18 50  1  0  0  0  0
 18 51  1  0  0  0  0
 20 52  1  0  0  0  0
 20 53  1  0  0  0  0
 20 54  1  0  0  0  0
 21 55  1  0  0  0  0
 21 56  1  0  0  0  0
 21 57  1  0  0  0  0
 22 58  1  0  0  0  0
 22 59  1  0  0  0  0
 22 60  1  0  0  0  0
 23 61  1  0  0  0  0
 23 62  1  0  0  0  0
 23 63  1  0  0  0  0
 24 64  1  0  0  0  0
 24 65  1  0  0  0  0
 25 66  1  0  0  0  0
 25 67  1  0  0  0  0
 26 68  1  0  0  0  0
 27 69  1  0  0  0  0
 29 70  1  0  0  0  0
 30 71  1  0  0  0  0
 30 72  1  0  0  0  0
 32 73  1  0  0  0  0
M  CHG  1  30   1
M  END
> <OMEGA_C>
foW6QPvU+0CBp5fBD5T0QI5o4UCWg4zBsC4CQS7eA0G8B53BtwbMQM+VTT9Tl6zBBuiSQMv0Jr8H
DabBaxDVQDgMz79E86zB5B/IQJhD50CULY7BRBnYQNfKBkEJ957BqfiiQILRIz9jDqjBuSsJQTum
8UCP45PB/y/lQMRypr438K7BVNSrQELL479IkKjBcXvZQCRyuT8hfJDBhDWrQD5PAkGXw2LBpjCb
QLloDUE6MnfBtVvLQLP84EDWFWjB8TSGQBwT+kBrD4PB3iq4QCJuwECOAnjBhdmlQGwK1kD3VIbB
TEPiQLzO6z6xc4fBWnqgQAdZIEHzsKbB7Ee6QDpuAEErTrHB5DjqQBRSIEG+c67B1YeJQGRw7D9p
oKTB+Y2iQM9CkECtYY/BN6KiQEHuJ0CPB5zBT46HQBFgcEBbgJfBYK3HQEbdEUGcM6nBGkCvQGjV
2z/BQJPBSliLQFKltkB7DozBk2D3QIrUA0AvjZTBNAd3QDt3lEAs9Z/B7lQeQaCk60DlOpLBB3cG
QaDQKr79BLPB4E2cQCklQcBQpabBuLSYQJYJ/kDDWZnBmqf/QHVY0ECEh4XBY8INQeQqCkEsnqLB
AxfYQD+S5T9YQa7BifxmQM7FRr+ylqLBTFDoQF0DH8Dvya7B39+6QBw5DkEAcljB776PQOie9kAg
RFrBnJyDQGq+GUFB4XLBNGa2QN7tFEEqc3/BlyLoQMZj70DHN2/B3x3UQCc00EBYP1nBl1xVQG2e
60BK3n3BHz92QHlMBUHWUYrBpGDRQOe+qUB5uXzBaSCeQKoFr0AT+2/BVGUCQTdD3z65wIXBLdnQ
QDptRj/rOoDBfHjXQITYCr9u24nBg1yVQAEOKEE0Ga7BjImGQLCJFkF7U6PBYs2pQD2yLEHC3qDB
jHeuQMoNCEGnqrjB1g7WQPee7EDKNLPBucigQCIG7UB2z63B9/jcQEDRJ0EusbXBcPvzQG/VLEHf
w6jBYBgDQb6MFkHInbDBWPGDQH7pH0AUlKvBKkJVQOTPwj+6T6HBtYaoQJh8d0B/Y4jBWT/BQPdv
mUA/B5PB93i/QMFMQ0AIvZ/BzkNWQG+jVUCEh5PB0xCYQIWkoj/tDY/BwMNmQMnArUA6PofBWb9+
QPy5xEBflpLB5UNVQGRlhUBbCKXBFz+6QJKL+0B2spfBB6/0QCqL4UBLnozB5e8BQXkCBEFPKJ3B
n3STQKWEKL+C+qXBaCfMQEPUTT+DpKzBKY7VQCbMzr9P+6zBsSrIQI385kDcP47BNYnXQPvHBkHR
CJ/BgTyjQFbEIj/tC6jBeBgJQesU8kBEBpTBpnusQDEx5L+fg6jByWvlQORlpL4CBK/Ba+zYQG6W
vj/CA5DByZasQHqkAUE2d2LBPFydQFk0DUHJx3bByA/MQFI230Ci/mfBGliHQIKJ+kBn6YLBiH64
QMuGv0D5OXjBQxKmQC7u1UA0VobBKeThQJKAzD7+w4fB/EOfQE4fIEEOo6bB3ZO5QGByAEGCWrHB
P+PoQP6SIEGudq7BYKGJQLWU6z9AoaTB/5qhQC/9j0CsSI/BBHuiQCKXJ0Ap/5vBO0GHQE6EcEDB
l5fBULvGQITfEUEwOanBstauQKHn2j/0MZPBWPWKQIH1tkAgEozBDQT3QDcXA0Ayc5TB8eR4QKHJ
lEDVGaDBb00eQbyf7EBzZJLBHTOdQAd3QcB7jabB+YIGQQmPIb7cKrPBC2KYQMyI/UCOWZnB4wEA
QT2W0ECgpIXBlGkNQeddCkH3x6LBD1poQMxOSb9Gc6LBTQnYQMnf5T+MVa7BleDoQNm6HsDV2K7B
XJa8QAY6DUEK51fBArqQQGCU9UAALVrBcpeGQPHgGUG0XHLBaA25QDBZFEFr937BpzHpQMFI7UDE
7W7Bu1HUQMLKzUDYRFnBVDBXQFSM7EC9jn3BiOt4QCjUBUFqGorBS4TRQMneqEB1N33BIWqeQML5
rUCoTnDBmlQCQYjchj4q7obB7zbUQGCmMT/DAYDBjUDTQLxvC79paYrB69+TQI3ZJ0FAA67Bn5WF
QMwjFkE0RqPB42qoQNd0LEGNyqDBGH2tQD8TCEF/r7jBM4nVQH777EAFTrPBgligQIG57EBo263B
y1/bQBsUKEHMq7XBvHTyQJMTLUEWwKjBhYQCQdb6FkHgrbDBmBuEQECFH0DblKvBSmZVQBiEwT+E
WqHBnWKmQE65dkADQYjBrN7AQFiNmEDJtpLB9Ha/QC69QkDtqJ/BC5JUQLQ4VkCe05PBCZaXQFnu
nD+8S4/BSFdlQDKwrkA/SofBaPZ+QGodxUCQpZLB5uxXQOD5hUCmTaXB

> <OMEGA_E>
wMUPPcAPEz0=

> <OMEGA_NBR>
     66921

$$$$
50167978
  -OEChem-04172616093D

 74 76  0     1  0  0  0  0  0999 V2000
    5.8163    7.8911  -18.9552 C   0  0  0  0  0  0  0  0  0  0  0  0
    7.6149    6.9927  -17.5854 C   0  0  0  0  0  0  0  0  0  0  0  0
    8.1316    8.2189  -19.6234 C   0  0  0  0  0  0  0  0  0  0  0  0
    6.4021    0.8022  -21.5767 C   0  0  0  0  0  0  0  0  0  0  0  0
    4.6078   -0.6428  -20.7615 C   0  0  0  0  0  0  0  0  0  0  0  0
    6.6702   -1.6205  -21.6206 C   0  0  0  0  0  0  0  0  0  0  0  0
    6.2324    7.2184  -17.7808 C   0  0  0  0  0  0  0  0  0  0  0  0
    6.7550    8.4347  -19.8650 C   0  0  0  0  0  0  0  0  0  0  0  0
    5.1174    0.6461  -21.0129 C   0  0  0  0  0  0  0  0  0  0  0  0
    8.5520    7.5013  -18.4948 C   0  0  0  0  0  0  0  0  0  0  0  0
    7.1814   -0.3309  -21.8702 C   0  0  0  0  0  0  0  0  0  0  0  0
    5.3812   -1.7748  -21.0712 C   0  0  0  0  0  0  0  0  0  0  0  0
    6.8107    1.4907  -18.0228 C   0  0  0  0  0  0  0  0  0  0  0  0
    5.4294    8.1762  -14.1925 C   0  0  0  0  0  0  0  0  0  0  0  0
    4.9118    8.8596  -15.4692 C   0  0  0  0  0  0  0  0  0  0  0  0
    6.3914    7.0266  -14.5269 C   0  0  0  0  0  0  0  0  0  0  0  0
    4.2055    7.8359  -16.3686 C   0  0  0  0  0  0  0  0  0  0  0  0
    5.7427    6.0161  -15.5005 C   0  0  0  0  0  0  0  0  0  0  0  0
    5.1654    6.6925  -16.7916 C   0  0  0  0  0  0  0  0  0  0  0  0
    7.0887    0.3806  -17.0131 C   0  0  0  0  0  0  0  0  0  0  0  0
    5.0404   10.0414  -20.8575 C   0  0  0  0  0  0  0  0  0  0  0  0
    5.8946    8.0682  -22.1885 C   0  0  0  0  0  0  0  0  0  0  0  0
    7.3708   10.0640  -21.7579 C   0  0  0  0  0  0  0  0  0  0  0  0
    4.3262    1.8571  -20.5900 C   0  0  0  0  0  0  0  0  0  0  0  0
    5.0665    4.5175  -17.9280 C   0  0  0  0  0  0  0  0  0  0  0  0
    5.0988    2.6310  -19.5044 C   0  0  1  0  0  0  0  0  0  0  0  0
    4.2310    3.7470  -18.9333 C   0  0  2  0  0  0  0  0  0  0  0  0
    6.2753    9.1449  -21.1475 C   0  0  0  0  0  0  0  0  0  0  0  0
    5.4949    1.7167  -18.4134 N   0  0  0  0  0  0  0  0  0  0  0  0
    4.3322    5.7120  -17.5031 N   0  3  0  0  0  0  0  0  0  0  0  0
    7.7504    2.0583  -18.5700 O   0  0  0  0  0  0  0  0  0  0  0  0
    9.8752    7.2888  -18.2877 O   0  0  0  0  0  0  0  0  0  0  0  0
    3.8234    4.6213  -19.9861 O   0  0  0  0  0  0  0  0  0  0  0  0
    8.4240   -0.1802  -22.3808 F   0  0  0  0  0  0  0  0  0  0  0  0
    4.8903   -3.0098  -20.8260 F   0  0  0  0  0  0  0  0  0  0  0  0
    4.7609    7.9917  -19.1611 H   0  0  0  0  0  0  0  0  0  0  0  0
    7.9504    6.4250  -16.7302 H   0  0  0  0  0  0  0  0  0  0  0  0
    8.8645    8.6099  -20.3136 H   0  0  0  0  0  0  0  0  0  0  0  0
    6.7859    1.7905  -21.7825 H   0  0  0  0  0  0  0  0  0  0  0  0
    3.6242   -0.7610  -20.3313 H   0  0  0  0  0  0  0  0  0  0  0  0
    7.2666   -2.4911  -21.8505 H   0  0  0  0  0  0  0  0  0  0  0  0
    5.9585    8.9190  -13.5775 H   0  0  0  0  0  0  0  0  0  0  0  0
    4.5742    7.7754  -13.6286 H   0  0  0  0  0  0  0  0  0  0  0  0
    4.2014    9.6531  -15.1943 H   0  0  0  0  0  0  0  0  0  0  0  0
    5.7595    9.2994  -16.0152 H   0  0  0  0  0  0  0  0  0  0  0  0
    7.2974    7.4417  -14.9925 H   0  0  0  0  0  0  0  0  0  0  0  0
    6.6629    6.5049  -13.5974 H   0  0  0  0  0  0  0  0  0  0  0  0
    3.3556    7.4043  -15.8197 H   0  0  0  0  0  0  0  0  0  0  0  0
    3.8381    8.3464  -17.2710 H   0  0  0  0  0  0  0  0  0  0  0  0
    6.5037    5.2807  -15.8006 H   0  0  0  0  0  0  0  0  0  0  0  0
    4.9226    5.5025  -14.9774 H   0  0  0  0  0  0  0  0  0  0  0  0
    8.1750    0.2383  -16.9137 H   0  0  0  0  0  0  0  0  0  0  0  0
    6.6646    0.6584  -16.0369 H   0  0  0  0  0  0  0  0  0  0  0  0
    6.6267   -0.5552  -17.3607 H   0  0  0  0  0  0  0  0  0  0  0  0
    4.7189   10.5353  -21.7863 H   0  0  0  0  0  0  0  0  0  0  0  0
    4.2195    9.4204  -20.4695 H   0  0  0  0  0  0  0  0  0  0  0  0
    5.3080   10.8036  -20.1108 H   0  0  0  0  0  0  0  0  0  0  0  0
    5.5493    8.5561  -23.1119 H   0  0  0  0  0  0  0  0  0  0  0  0
    6.7738    7.4452  -22.4097 H   0  0  0  0  0  0  0  0  0  0  0  0
    5.0897    7.4363  -21.7847 H   0  0  0  0  0  0  0  0  0  0  0  0
    6.9813   10.5457  -22.6670 H   0  0  0  0  0  0  0  0  0  0  0  0
    7.6516   10.8356  -21.0259 H   0  0  0  0  0  0  0  0  0  0  0  0
    8.2549    9.4612  -22.0127 H   0  0  0  0  0  0  0  0  0  0  0  0
    4.1654    2.5106  -21.4601 H   0  0  0  0  0  0  0  0  0  0  0  0
    3.3539    1.5361  -20.1879 H   0  0  0  0  0  0  0  0  0  0  0  0
    5.2698    3.8808  -17.0543 H   0  0  0  0  0  0  0  0  0  0  0  0
    6.0175    4.8167  -18.3929 H   0  0  0  0  0  0  0  0  0  0  0  0
    5.9974    3.0741  -19.9584 H   0  0  0  0  0  0  0  0  0  0  0  0
    3.3575    3.3096  -18.4278 H   0  0  0  0  0  0  0  0  0  0  0  0
    4.7712    1.2294  -17.9249 H   0  0  0  0  0  0  0  0  0  0  0  0
    3.5902    5.4277  -16.8959 H   0  0  0  0  0  0  0  0  0  0  0  0
    3.9485    6.1527  -18.3146 H   0  0  0  0  0  0  0  0  0  0  0  0
   10.3746    7.6938  -18.9870 H   0  0  0  0  0  0  0  0  0  0  0  0
    3.3004    4.1381  -20.6150 H   0  0  0  0  0  0  0  0  0  0  0  0
  1  7  1  0  0  0  0
  1  8  2  0  0  0  0
  2  7  2  0  0  0  0
  2 10  1  0  0  0  0
  3  8  1  0  0  0  0
  3 10  2  0  0  0  0
  4  9  1  0  0  0  0
  4 11  2  0  0  0  0
  5  9  2  0  0  0  0
  5 12  1  0  0  0  0
  6 11  1  0  0  0  0
  6 12  2  0  0  0  0
  7 19  1  0  0  0  0
  8 28  1  0  0  0  0
  9 24  1  0  0  0  0
 10 32  1  0  0  0  0
 11 34  1  0  0  0  0
 12 35  1  0  0  0  0
 13 20  1  0  0  0  0
 13 29  1  0  0  0  0
 13 31  2  0  0  0  0
 14 15  1  0  0  0  0
 14 16  1  0  0  0  0
 15 17  1  0  0  0  0
 16 18  1  0  0  0  0
 17 19  1  0  0  0  0
 18 19  1  0  0  0  0
 19 30  1  0  0  0  0
 21 28  1  0  0  0  0
 22 28  1  0  0  0  0
 23 28  1  0  0  0  0
 24 26  1  0  0  0  0
 25 27  1  0  0  0  0
 25 30  1  0  0  0  0
 26 27  1  0  0  0  0
 26 29  1  0  0  0  0
 27 33  1  0  0  0  0
  1 36  1  0  0  0  0
  2 37  1  0  0  0  0
  3 38  1  0  0  0  0
  4 39  1  0  0  0  0
  5 40  1  0  0  0  0
  6 41  1  0  0  0  0
 14 42  1  0  0  0  0
 14 43  1  0  0  0  0
 15 44  1  0  0  0  0
 15 45  1  0  0  0  0
 16 46  1  0  0  0  0
 16 47  1  0  0  0  0
 17 48  1  0  0  0  0
 17 49  1  0  0  0  0
 18 50  1  0  0  0  0
 18 51  1  0  0  0  0
 20 52  1  0  0  0  0
 20 53  1  0  0  0  0
 20 54  1  0  0  0  0
 21 55  1  0  0  0  0
 21 56  1  0  0  0  0
 21 57  1  0  0  0  0
 22 58  1  0  0  0  0
 22 59  1  0  0  0  0
 22 60  1  0  0  0  0
 23 61  1  0  0  0  0
 23 62  1  0  0  0  0
 23 63  1  0  0  0  0
 24 64  1  0  0  0  0
 24 65  1  0  0  0  0
 25 66  1  0  0  0  0
 25 67  1  0  0  0  0
 26 68  1  0  0  0  0
 27 69  1  0  0  0  0
 29 70  1  0  0  0  0
 30 71  1  0  0  0  0
 30 72  1  0  0  0  0
 32 73  1  0  0  0  0
 33 74  1  0  0  0  0
M  CHG  1  30   1
M  END
> <OMEGA_C>
KR+6QAmE/EAwpJfBJa3zQGDE30D/rozB+BoCQbyAA0HL/JzB+N3MQHteTT8unazBuXKTQMWMJL90
F6bBfXLVQOdrz78A96zB5m/HQO/85kAjP47BBSnYQIH0BkGH657Bn8GjQEdpJT9vGqjB59QIQbIK
8EBL9ZPBC87lQEJtqb4c9q7BkjKsQPUt47/NkajBQPHZQB7Qvj+vLpDBZb2tQJvRAkGjFGPB3S2d
QN3ADUH2gXfBFobMQE3a4EA3bmjB3ZOGQJS/+kDf8oLBTMS3QBWEwEAWAnjBuUqlQNko1kBCVYbB
8NbiQNDiwj7OGojB3kqhQLmpIEEZ3KbBUaC8QEUXAUH4gbHBR93rQFcGIUFHEK7B9G+KQPaz7T9a
uKTBuyCiQEGPkECbbI/BPymjQH5hKEAECZzBrWSHQHbPb0Bzd5fB4M7IQHFREkEJLqnBodavQEO8
2z+5TpPBkKGKQI3ItkBRBozBYgP4QJi7A0Bmj5TBqwAeQX096UBOTZLBMLJ0QOThk0CQ45/B0cgG
QSOIOL7MC7PBDn2cQAqgQMCfm6bBXFmYQPO7/0AFSpnBo2n+QECZzUBq14XBMdUNQSbCCUE4gqLB
OCbZQDQw5T+DQq7BwvJnQFHPQr9/pqLBxIfoQL1tH8DEza7Bs6u+QFi0DkGWPVnBs1+SQEHQ+ECm
DlrBC3KGQCpzGkG7G3PBvU24QDLKFEEpH4DBkoTpQF0i7kBP4W/BaDbVQNIn0EDjjlnBX8FWQArw
7ECkHX3BG6R1QLqKBUEXK4rBaR7QQJL7qEAyz3zBJYadQHkUsEBqo2/BmswCQQkGdD45T4fBfkTV
QPGNKD+PS4DBPA7UQEUfDr+14orBmQGXQKuQKEFfSq7BYwaHQOe5FkGfwaPBP9upQF3bLEHf4qDB
f5OxQLTlCEEk5bjBmMLYQFU/7kAqR7PBIN+iQHb27UAWR67BbWbfQDq7KEHqVbXBy9n0QIdeLUER
NajB9RMEQflgF0H8GbDB1EqFQI+tIEBGrqvBlqZWQEiexD/KgKHBBKKoQJVfeEBFb4jBK4/AQCAi
mkC2JJPBx+q/QDa+REC9qp/BL+FWQBrRU0ALbJPBna2YQERcnT8cZo/BksZlQOSvrUDQKofB7bR8
QMXixEBShJLBd/4lQYIz9kBs5ZfBpTlTQGdrhECE66TBRR66QF8y/ED2oZfB28LzQPJP4ECukIzB
vxMCQW9KA0EsBp3BKK+TQNoPJr8YO6bBJB7NQCpATj/Am6zB1rbVQJDqzr+NLq3BV4LHQB4s50CG
LY7BfBLYQFSuBkF89J7BcvqjQPDCJD8nHajB0dcIQQwu8ED46JPB93GsQGV447/G0KjBNRTmQG0S
pr7cDa/Bi9jZQLh/uD9Dh5DBmHutQMLNAkGg2WLBuZqdQG7fDUEBVXfB/TjMQD+/4ED4H2jB6dqG
QDg4+0Dl54LBpbS3QJOdwECh5HfBf1+lQGxr1kBwRYbBqVriQPPu1z5ps4fBANehQHrYIEGEwqbB
nNq6QF29AEH0YLHBLNHrQLgqIEHjVq7BUXOKQEji7D9DsKTBVqiiQNItkUBalo/BfC6jQP5xKEA7
C5zBkJ6HQCtjcEAEg5fBNX3IQDX9EUFkNKnBwq+vQGio3D+7RJPBH86KQA/6tkCW/YvBw+D3QOWw
A0C9epTBIwUeQX6S6UCTOZLBXZ10QGbek0AV95/Bgb2cQKn2QMBm+qbB+u0GQXoSLb7sHrPBlFWY
QJcy/0CmSpnBh4/+QL29zkDioYXBMccNQfReCUGkm6LBqGhoQO65Rb8nzqLBp2bZQLDp5T+GKq7B
wc7oQA0BH8AJGK/Bj0O+QNCXDkHf1FjBh9GRQMTQ+ECgC1rBmx2HQDu2GkFtCHPBSBC5QOe8FEEa
8X/Bq23pQIv87UBOYm/Bd4XUQO7gz0DBPlnBzO9WQNqV7UBLG33Ba7d2QPjZBUFxIYrBtCzQQMM2
qUDatHzB3mqdQOz+r0CMpm/BL3ACQf+fwz4KA4bBFwrRQKXDNz8WaoDBQUXXQP/tEb9yT4rBVlGX
QHa3KEGdLa7BQ2CHQJ1IF0HGeKPBYnWrQBMOLUE/5aDBRJ+vQHCFCEFrwbjBslzWQADM7EDAObPB
NN+gQMYG7kAn+a3BvCbfQKrZJ0GFmLXBK9L1QDuJLEG1majBNr8DQREmFkFedLDBlPqEQJUmIEAG
pavBs/1WQO3pwj//a6HBSSqqQEKPeUBoqojBMJDAQI5cm0Dpd5PBdwPAQARbREBPsZ/B8pVXQKbQ
VEBXXpPB1WuYQAqOpD9jCo/BstJmQNlUrUDuF4fBsBV8QBZBxUBeZpLBDwAmQekx9kAI35fBM8ZS
QEc9hEDI7KTB

> <OMEGA_E>
sFhPPlDWTz4=

> <OMEGA_NBR>
     69580

$$$$
50167980
  -OEChem-04172616093D

 70 72  0     1  0  0  0  0  0999 V2000
    4.5834   -0.6378  -20.7829 C   0  0  0  0  0  0  0  0  0  0  0  0
    6.3779    0.8145  -21.5845 C   0  0  0  0  0  0  0  0  0  0  0  0
    6.6551   -1.6066  -21.6306 C   0  0  0  0  0  0  0  0  0  0  0  0
    7.5830    7.3885  -18.1068 C   0  0  0  0  0  0  0  0  0  0  0  0
    5.5637    7.9005  -19.0436 C   0  0  0  0  0  0  0  0  0  0  0  0
    6.1040    7.3262  -17.9314 C   0  0  0  0  0  0  0  0  0  0  0  0
    5.0904    0.6532  -21.0270 C   0  0  0  0  0  0  0  0  0  0  0  0
    5.3614   -1.7664  -21.0936 C   0  0  0  0  0  0  0  0  0  0  0  0
    7.1642   -0.3150  -21.8726 C   0  0  0  0  0  0  0  0  0  0  0  0
    6.7973    1.5047  -18.0106 C   0  0  0  0  0  0  0  0  0  0  0  0
    5.4715    8.1581  -14.2502 C   0  0  0  0  0  0  0  0  0  0  0  0
    4.8090    8.8199  -15.4662 C   0  0  0  0  0  0  0  0  0  0  0  0
    6.5677    7.1733  -14.6975 C   0  0  0  0  0  0  0  0  0  0  0  0
    4.1771    7.7449  -16.3493 C   0  0  0  0  0  0  0  0  0  0  0  0
    6.0170    6.0981  -15.6519 C   0  0  0  0  0  0  0  0  0  0  0  0
    5.2207    6.7073  -16.8434 C   0  0  0  0  0  0  0  0  0  0  0  0
    7.0837    0.4261  -16.9711 C   0  0  0  0  0  0  0  0  0  0  0  0
    5.2202   10.0557  -20.9534 C   0  0  0  0  0  0  0  0  0  0  0  0
    6.1222    8.0337  -22.1715 C   0  0  0  0  0  0  0  0  0  0  0  0
    7.6675    9.8998  -21.4570 C   0  0  0  0  0  0  0  0  0  0  0  0
    4.2997    1.8603  -20.5902 C   0  0  0  0  0  0  0  0  0  0  0  0
    5.1284    4.5032  -17.9313 C   0  0  0  0  0  0  0  0  0  0  0  0
    5.0900    2.6199  -19.5084 C   0  0  1  0  0  0  0  0  0  0  0  0
    4.2564    3.7494  -18.9227 C   0  0  2  0  0  0  0  0  0  0  0  0
    6.4208    9.0728  -21.0675 C   0  0  0  0  0  0  0  0  0  0  0  0
    7.8455    8.0238  -19.2348 N   0  0  0  0  0  0  0  0  0  0  0  0
    6.6306    8.3564  -19.7643 N   0  0  0  0  0  0  0  0  0  0  0  0
    5.4838    1.6979  -18.4239 N   0  0  0  0  0  0  0  0  0  0  0  0
    4.3883    5.6704  -17.4681 N   0  3  0  0  0  0  0  0  0  0  0  0
    7.7330    2.0793  -18.5573 O   0  0  0  0  0  0  0  0  0  0  0  0
    3.8506    4.6343  -19.9684 O   0  0  0  0  0  0  0  0  0  0  0  0
    4.8705   -3.0036  -20.8607 F   0  0  0  0  0  0  0  0  0  0  0  0
    8.4113   -0.1587  -22.3707 F   0  0  0  0  0  0  0  0  0  0  0  0
    3.5983   -0.7605  -20.3575 H   0  0  0  0  0  0  0  0  0  0  0  0
    6.7582    1.8044  -21.7892 H   0  0  0  0  0  0  0  0  0  0  0  0
    7.2565   -2.4748  -21.8566 H   0  0  0  0  0  0  0  0  0  0  0  0
    8.3166    6.9825  -17.4260 H   0  0  0  0  0  0  0  0  0  0  0  0
    4.5174    7.9781  -19.2997 H   0  0  0  0  0  0  0  0  0  0  0  0
    5.9216    8.9360  -13.6161 H   0  0  0  0  0  0  0  0  0  0  0  0
    4.7085    7.6126  -13.6755 H   0  0  0  0  0  0  0  0  0  0  0  0
    4.0307    9.5183  -15.1249 H   0  0  0  0  0  0  0  0  0  0  0  0
    5.5674    9.3694  -16.0432 H   0  0  0  0  0  0  0  0  0  0  0  0
    7.3611    7.7342  -15.2131 H   0  0  0  0  0  0  0  0  0  0  0  0
    6.9865    6.6792  -13.8084 H   0  0  0  0  0  0  0  0  0  0  0  0
    3.4024    7.2207  -15.7705 H   0  0  0  0  0  0  0  0  0  0  0  0
    3.7171    8.2291  -17.2233 H   0  0  0  0  0  0  0  0  0  0  0  0
    6.8607    5.5168  -16.0524 H   0  0  0  0  0  0  0  0  0  0  0  0
    5.3493    5.4325  -15.0853 H   0  0  0  0  0  0  0  0  0  0  0  0
    8.1711    0.3100  -16.8525 H   0  0  0  0  0  0  0  0  0  0  0  0
    6.6390    0.7177  -16.0082 H   0  0  0  0  0  0  0  0  0  0  0  0
    6.6472   -0.5276  -17.3027 H   0  0  0  0  0  0  0  0  0  0  0  0
    5.4268   10.7982  -20.1686 H   0  0  0  0  0  0  0  0  0  0  0  0
    5.0746   10.5695  -21.9151 H   0  0  0  0  0  0  0  0  0  0  0  0
    4.3100    9.4941  -20.6962 H   0  0  0  0  0  0  0  0  0  0  0  0
    6.9679    7.3355  -22.2571 H   0  0  0  0  0  0  0  0  0  0  0  0
    5.2106    7.4753  -21.9125 H   0  0  0  0  0  0  0  0  0  0  0  0
    5.9752    8.5507  -23.1313 H   0  0  0  0  0  0  0  0  0  0  0  0
    8.5376    9.2327  -21.5463 H   0  0  0  0  0  0  0  0  0  0  0  0
    7.4891   10.4003  -22.4202 H   0  0  0  0  0  0  0  0  0  0  0  0
    7.8630   10.6554  -20.6819 H   0  0  0  0  0  0  0  0  0  0  0  0
    4.1299    2.5207  -21.4534 H   0  0  0  0  0  0  0  0  0  0  0  0
    3.3318    1.5371  -20.1797 H   0  0  0  0  0  0  0  0  0  0  0  0
    5.3694    3.8525  -17.0778 H   0  0  0  0  0  0  0  0  0  0  0  0
    6.0591    4.8234  -18.4226 H   0  0  0  0  0  0  0  0  0  0  0  0
    5.9924    3.0477  -19.9695 H   0  0  0  0  0  0  0  0  0  0  0  0
    3.3827    3.3309  -18.4016 H   0  0  0  0  0  0  0  0  0  0  0  0
    4.7636    1.1823  -17.9598 H   0  0  0  0  0  0  0  0  0  0  0  0
    3.7119    5.3660  -16.7975 H   0  0  0  0  0  0  0  0  0  0  0  0
    3.9203    6.0759  -18.2533 H   0  0  0  0  0  0  0  0  0  0  0  0
    3.3056    4.1638  -20.5882 H   0  0  0  0  0  0  0  0  0  0  0  0
  1  7  1  0  0  0  0
  1  8  2  0  0  0  0
  2  7  2  0  0  0  0
  2  9  1  0  0  0  0
  3  8  1  0  0  0  0
  3  9  2  0  0  0  0
  4  6  1  0  0  0  0
  4 26  2  0  0  0  0
  5  6  2  0  0  0  0
  5 27  1  0  0  0  0
  6 16  1  0  0  0  0
  7 21  1  0  0  0  0
  8 32  1  0  0  0  0
  9 33  1  0  0  0  0
 10 17  1  0  0  0  0
 10 28  1  0  0  0  0
 10 30  2  0  0  0  0
 11 12  1  0  0  0  0
 11 13  1  0  0  0  0
 12 14  1  0  0  0  0
 13 15  1  0  0  0  0
 14 16  1  0  0  0  0
 15 16  1  0  0  0  0
 16 29  1  0  0  0  0
 18 25  1  0  0  0  0
 19 25  1  0  0  0  0
 20 25  1  0  0  0  0
 21 23  1  0  0  0  0
 22 24  1  0  0  0  0
 22 29  1  0  0  0  0
 23 24  1  0  0  0  0
 23 28  1  0  0  0  0
 24 31  1  0  0  0  0
 25 27  1  0  0  0  0
 26 27  1  0  0  0  0
  1 34  1  0  0  0  0
  2 35  1  0  0  0  0
  3 36  1  0  0  0  0
  4 37  1  0  0  0  0
  5 38  1  0  0  0  0
 11 39  1  0  0  0  0
 11 40  1  0  0  0  0
 12 41  1  0  0  0  0
 12 42  1  0  0  0  0
 13 43  1  0  0  0  0
 13 44  1  0  0  0  0
 14 45  1  0  0  0  0
 14 46  1  0  0  0  0
 15 47  1  0  0  0  0
 15 48  1  0  0  0  0
 17 49  1  0  0  0  0
 17 50  1  0  0  0  0
 17 51  1  0  0  0  0
 18 52  1  0  0  0  0
 18 53  1  0  0  0  0
 18 54  1  0  0  0  0
 19 55  1  0  0  0  0
 19 56  1  0  0  0  0
 19 57  1  0  0  0  0
 20 58  1  0  0  0  0
 20 59  1  0  0  0  0
 20 60  1  0  0  0  0
 21 61  1  0  0  0  0
 21 62  1  0  0  0  0
 22 63  1  0  0  0  0
 22 64  1  0  0  0  0
 23 65  1  0  0  0  0
 24 66  1  0  0  0  0
 28 67  1  0  0  0  0
 29 68  1  0  0  0  0
 29 69  1  0  0  0  0
 31 70  1  0  0  0  0
M  CHG  1  29   1
M  END
> <OMEGA_C>
5qqSQL1II79JQ6bBxxfMQPyDUD/+rKzBjPbUQFCmzb9xC63By6fyQJZu7ECp2pDB/gmyQH7Q/EBV
WZjB/lPDQGZw6kCWc4/BMuSiQOE5Jz9EN6jBp5CrQEEa4r+8v6jBFkHlQBJEob4g+67BTYPZQFCb
wD+cFZDBWBavQGmHAkHwAGTBduOZQEoeDUGMdXfBryrSQK6L5UDgKGvB7qqFQNnV90Bfy4LBdovA
QLMjw0BbbnrBsQ+nQO6h1kBKv4bBqa3iQBIm2j7VxIfB0AunQPPjIEGdoKfBIenDQDSKAEFUX7HB
bVz1QL5lHkEIqKvBh5eJQCIe7j/BuKTBuxukQA0akEBRc4/BSeGiQAStJ0AeEZzBWjSIQIr2b0Cp
YZfBanfNQAIqEUEuiqjBLg77QG5hAEH14JnBJy7UQOWzBUFOHZ7BZXuvQFxU2T81ZJPBRW2MQKdz
tUC8vovBsXT3QGsTBUBcdZTB0W92QNJLlEA3v5/B2tqbQC07QMCh4qbB1JQGQfuEIr5L97LB10lm
QBSxQr8v3KLB5ELYQHT25j9gUK7BLDXoQFpiHsBn2q7BpRAFQbhw30B4aIvBfo6QQJNM/0DFZZrB
wH29QPn5DkFw21nB9auWQE+a80DczlrBxPuAQBxLGEHG/3HBFCiyQA7pFUFwWIDBeI7rQKV+90DM
aHPBIJHfQJy71UA271zBVcBZQLcP50ANVHzBjeVtQFOqA0FmyYnBuorbQPeJsEBRa4DBVC2rQMPW
rUCIXXHB1rwCQQqynj7n0YbBzXLUQKG4Nz/BEIDBRLbUQHwSB7/+a4rBfKitQHvFLEFYWaHByGKi
QMgcKUEGUq/BKuuJQO3nF0HakaXB4vjeQIy86kCJDrLBL72mQNU170C4TK/BzTS/QMbPCEHkDLnB
35kIQSW5E0HYXqzBaqbvQLdnJkGSXLPB4J37QJ18KkGAdKXB2CeEQNJSIUB9oKvBcDtVQIi+xD8N
cKHBRNKrQCSPdkBNn4jBvePBQDZZmkBnYZPBvcG/QNINQ0CYwZ/By35YQM8sVUB2NpPBk2+YQFpU
lz+XrY/BPo9tQI62q0A/YYbBmOV6QI1twkC8BpLBXI9TQPQ9hUCrtKTBv+XMQMLBUj+JoKzByY6T
QNU2JL9LWabBZ/TVQA5TzL8zNK3BmsbyQARz7UBB15DB0gqyQIO5/UB4SZjBFHjDQB8y60AJbY/B
MK6jQLdOJz/YMqjBiiTmQMwImr6mB6/BsZSsQNbt4b/F6ajBAtrYQBx/uz9lAZDBPZ6vQNR9AkHP
22PBjjWaQDEpDUERN3fBpanSQP+T5UBRLGvB/+6FQFAF+EAQtILBH/TAQFVVw0APhHrBp1mnQPwD
10CDvobBOgzhQD7tuD5p1YfBw0WnQOCcIUGCfqfBW5rCQNLqAEH1PLHBiD/1QF54HkEL2avB2yGK
QEir7T9Mt6TBNQClQGcbkUDxxI/BDimjQPWoJ0BuB5zBVo+IQFRscECBbJfBOCrNQDuaEUGygajB
ggn7QHAEAUFn1pnBdhfUQOo6BkHCEJ7BigOvQNZ62T9rSJPB2+eMQHbItUCHy4vBNkf3QDJAAUAb
VZTByih1QKDQk0AY1Z/BNgUHQbmjCr4a/7LB7AmdQJtjQMDdHqfBrgTZQIp46D/LKq7BEA5oQMhf
Rb9k96LBDELpQNB3HcDJF6/BbSsFQWZw4EDua4vBjYeQQKobAEHGTZrBfhe+QDTmDkEwsFnBXE+X
QBJq80BapVrBHE2BQF5HGEGMpHHB5FyyQJwHFkFmOYDBwfrrQFik90CNanPBkC3gQGub1UD7BF3B
5o1aQKQQ50BzI3zBdRNuQC7SA0Gbp4nB+urbQKTPsEDFgYDBjaWrQJXtrUDgeXHBxNwBQfwIVz5p
7YbBmzHTQIebJj8xFYDB8R/SQALEEr+nmIrBPaKuQMiHLUEfSaHBgViiQB/DKUE0Mq/BdAeKQCje
GEFoSaXBvk/dQEka60B8/LHBKlOlQJRt8ECpBK/BOKS9QMEbCUF17bjBylkIQVaRE0FroqzB5kLv
QBJlJkG7j7PBGk38QEmcKkGzuaXBYrKEQIcZIUAHn6vB/VBWQJ6fwz/pdqHB82muQHT2eECsCYnB
ic/BQEk4nEBn/pPBTFPAQB10QkCZpJ/BmS1aQO/vVUB1B5PBPIGXQN9xmz8dfI/Bm4dvQOJIq0Cz
ZIbBh6N6QFf6wkBF9JHBpppRQDtHhEC0nqTBFu6IQE0+Bb8oMKzBTsrPQPDUiT2lfKXBb3rIQP41
zr/Ie7PBcITyQLyK9UDxZI7B0w63QMiOAkGtT5jBci3DQF/48UCQ347BqtCiQDJfhT4PWKXBx7Kb
QJcuub9MRrPBAXXiQMXGWr/6jqzB2wnFQEbwyD/RsIjB5cirQDSpA0H2o2LB0qWVQBF8DkEa1XXB
wF3PQKjW6EBJNmrBHdiCQEgz+0Dcm4LBiSe+QDxIx0BKSXrBVGSlQE1720AP0obB1ofsQMeEoT/v
6IHBm7jDQKiTKUGKB6fBn7HOQL7mBUF6XrDBMwoHQRF1G0FoKarB2AiNQEQlnz/evJ3BLnKpQEbl
lkBPFZHBCV+pQEb5HUCzm5rBU4KNQD6saEDUWZbBET7fQPn0FEGKbKfB/xsAQTEJBUHj5JbBovDc
QGKiCUGEzJzBIUnLQB9+BkA63JLBsNiNQMcAuUCBlIzBmk2hQNH9uj8Wu4TBeGFtQAJLh0AyD5/B
PbSCQDxOC8Ad57nBRL0GQR3WgL8Wr6zB+yNNQLRu0L4d/avBs9jjQEpnIj/GG6DBstfWQG5CFMCG
87jBqkEDQds06UDRDojBYRqXQEwuBEEhgJvBkdu5QMEMEEHMTljBKeeTQKb/9EBUhFnBJlF3QK3J
GEEe8G/BQDGtQIhGGEG4gn7Bwa3oQGGt+0BTA3LB57ncQDQZ2EC0PlzBDidUQLLp6ECar3zBN7ho
QFTiBUEceonBlWnZQJbntEDlSYDBQ0+oQAiisUC0uXHBr3riQDeidj+FpHPB3Lb+QE534j6In4XB
lWoAQfIgCkAQaIHB7rHPQNQmNEHsqaDBlLfFQK3jMUEfxa7B6jWiQKRSJUF1YKXBW2fiQMOm7kBm
lrDBbDWtQJ+QAUHrvK7BFrfQQKghDkGWIbjBnSIRQSIODUG7fKrBYmAHQeKQI0Fo+LHBfScNQYNZ
JkFc9qPBqqNfQKoczz/sn6HB52qEQBctND+xYJbBY328QCpoiEAaoYrB2gG/QNTNpECTG5fBVf24
QBSGNEA9+aHBtA5uQMBYT0BoXZDBX5DpQM4BEEDeKJXB/rlyQEh4q0DhcofB/Bh7QAZnxkBKmJLB
xoNKQKWJZECgZaLB

> <OMEGA_E>
2KU0PhAXNT7UUzo/

> <OMEGA_NBR>
     73217

$$$$
50168358
  -OEChem-04172616093D

 72 75  0     1  0  0  0  0  0999 V2000
    8.5437    7.4083  -18.5948 C   0  0  0  0  0  0  0  0  0  0  0  0
    8.1288    8.3051  -19.5927 C   0  0  0  0  0  0  0  0  0  0  0  0
    7.6118    6.8677  -17.6935 C   0  0  0  0  0  0  0  0  0  0  0  0
    5.8396    8.1113  -18.7982 C   0  0  0  0  0  0  0  0  0  0  0  0
    6.3308    0.7578  -21.5642 C   0  0  0  0  0  0  0  0  0  0  0  0
    4.5642   -0.6939  -20.7017 C   0  0  0  0  0  0  0  0  0  0  0  0
    6.6254   -1.6613  -21.5768 C   0  0  0  0  0  0  0  0  0  0  0  0
    6.7622    8.6601  -19.7135 C   0  0  0  0  0  0  0  0  0  0  0  0
    6.2447    7.2379  -17.7647 C   0  0  0  0  0  0  0  0  0  0  0  0
    5.0562    0.5963  -20.9787 C   0  0  0  0  0  0  0  0  0  0  0  0
    7.1193   -0.3700  -21.8508 C   0  0  0  0  0  0  0  0  0  0  0  0
    5.3449   -1.8217  -21.0085 C   0  0  0  0  0  0  0  0  0  0  0  0
    6.7992    1.4614  -18.0557 C   0  0  0  0  0  0  0  0  0  0  0  0
    5.4684    8.1580  -14.2074 C   0  0  0  0  0  0  0  0  0  0  0  0
    4.8685    8.8194  -15.4595 C   0  0  0  0  0  0  0  0  0  0  0  0
    6.4418    7.0232  -14.5777 C   0  0  0  0  0  0  0  0  0  0  0  0
    4.1758    7.7600  -16.3234 C   0  0  0  0  0  0  0  0  0  0  0  0
    5.7733    5.9933  -15.5144 C   0  0  0  0  0  0  0  0  0  0  0  0
    5.0165    9.2305  -21.4731 C   0  0  0  0  0  0  0  0  0  0  0  0
    5.5956    8.2366  -22.4863 C   0  0  0  0  0  0  0  0  0  0  0  0
    7.1913    9.8630  -21.9535 C   0  0  0  0  0  0  0  0  0  0  0  0
    6.2693    9.7064  -20.7376 C   0  0  2  0  0  0  0  0  0  0  0  0
    5.1766    6.6670  -16.7933 C   0  0  0  0  0  0  0  0  0  0  0  0
    7.0973    0.4800  -16.9262 C   0  0  0  0  0  0  0  0  0  0  0  0
    4.2627    1.8053  -20.5552 C   0  0  0  0  0  0  0  0  0  0  0  0
    5.0738    4.4956  -17.9398 C   0  0  0  0  0  0  0  0  0  0  0  0
    5.0634    2.5968  -19.5043 C   0  0  1  0  0  0  0  0  0  0  0  0
    4.2292    3.7446  -18.9541 C   0  0  2  0  0  0  0  0  0  0  0  0
    5.4732    1.7059  -18.3986 N   0  0  0  0  0  0  0  0  0  0  0  0
    4.3524    5.6972  -17.5259 N   0  3  0  0  0  0  0  0  0  0  0  0
    7.7203    2.0871  -18.5701 O   0  0  0  0  0  0  0  0  0  0  0  0
    6.9661    8.6643  -22.7350 O   0  0  0  0  0  0  0  0  0  0  0  0
    3.8782    4.6238  -20.0237 O   0  0  0  0  0  0  0  0  0  0  0  0
    8.3537   -0.2114  -22.3787 F   0  0  0  0  0  0  0  0  0  0  0  0
    4.8691   -3.0581  -20.7423 F   0  0  0  0  0  0  0  0  0  0  0  0
    9.5853    7.1327  -18.5199 H   0  0  0  0  0  0  0  0  0  0  0  0
    8.8552    8.7265  -20.2718 H   0  0  0  0  0  0  0  0  0  0  0  0
    7.9386    6.1653  -16.9411 H   0  0  0  0  0  0  0  0  0  0  0  0
    4.7941    8.3661  -18.8904 H   0  0  0  0  0  0  0  0  0  0  0  0
    6.6996    1.7471  -21.7916 H   0  0  0  0  0  0  0  0  0  0  0  0
    3.5889   -0.8165  -20.2544 H   0  0  0  0  0  0  0  0  0  0  0  0
    7.2281   -2.5286  -21.8023 H   0  0  0  0  0  0  0  0  0  0  0  0
    6.0110    8.9187  -13.6269 H   0  0  0  0  0  0  0  0  0  0  0  0
    4.6526    7.7437  -13.5968 H   0  0  0  0  0  0  0  0  0  0  0  0
    4.1342    9.5797  -15.1549 H   0  0  0  0  0  0  0  0  0  0  0  0
    5.6712    9.2970  -16.0406 H   0  0  0  0  0  0  0  0  0  0  0  0
    7.3175    7.4538  -15.0855 H   0  0  0  0  0  0  0  0  0  0  0  0
    6.7650    6.5140  -13.6578 H   0  0  0  0  0  0  0  0  0  0  0  0
    3.3773    7.2847  -15.7348 H   0  0  0  0  0  0  0  0  0  0  0  0
    3.7389    8.2486  -17.2068 H   0  0  0  0  0  0  0  0  0  0  0  0
    6.5253    5.2516  -15.8214 H   0  0  0  0  0  0  0  0  0  0  0  0
    4.9629    5.4891  -14.9674 H   0  0  0  0  0  0  0  0  0  0  0  0
    4.5089   10.0654  -21.9784 H   0  0  0  0  0  0  0  0  0  0  0  0
    4.3139    8.7361  -20.7860 H   0  0  0  0  0  0  0  0  0  0  0  0
    5.5830    7.2179  -22.0715 H   0  0  0  0  0  0  0  0  0  0  0  0
    5.0133    8.2599  -23.4193 H   0  0  0  0  0  0  0  0  0  0  0  0
    6.9240   10.7600  -22.5314 H   0  0  0  0  0  0  0  0  0  0  0  0
    8.2430    9.9299  -21.6381 H   0  0  0  0  0  0  0  0  0  0  0  0
    6.0948   10.6769  -20.2499 H   0  0  0  0  0  0  0  0  0  0  0  0
    8.1778    0.4745  -16.7201 H   0  0  0  0  0  0  0  0  0  0  0  0
    6.5530    0.7868  -16.0209 H   0  0  0  0  0  0  0  0  0  0  0  0
    6.7757   -0.5292  -17.2231 H   0  0  0  0  0  0  0  0  0  0  0  0
    4.0720    2.4445  -21.4299 H   0  0  0  0  0  0  0  0  0  0  0  0
    3.3049    1.4827  -20.1211 H   0  0  0  0  0  0  0  0  0  0  0  0
    5.2580    3.8549  -17.0649 H   0  0  0  0  0  0  0  0  0  0  0  0
    6.0341    4.7791  -18.3954 H   0  0  0  0  0  0  0  0  0  0  0  0
    5.9598    3.0118  -19.9883 H   0  0  0  0  0  0  0  0  0  0  0  0
    3.3299    3.3447  -18.4628 H   0  0  0  0  0  0  0  0  0  0  0  0
    4.7572    1.2535  -17.8669 H   0  0  0  0  0  0  0  0  0  0  0  0
    3.5935    5.4208  -16.9363 H   0  0  0  0  0  0  0  0  0  0  0  0
    3.9926    6.1453  -18.3443 H   0  0  0  0  0  0  0  0  0  0  0  0
    3.3498    4.1551  -20.6590 H   0  0  0  0  0  0  0  0  0  0  0  0
  1  2  1  0  0  0  0
  1  3  2  0  0  0  0
  2  8  2  0  0  0  0
  3  9  1  0  0  0  0
  4  8  1  0  0  0  0
  4  9  2  0  0  0  0
  5 10  1  0  0  0  0
  5 11  2  0  0  0  0
  6 10  2  0  0  0  0
  6 12  1  0  0  0  0
  7 11  1  0  0  0  0
  7 12  2  0  0  0  0
  8 22  1  0  0  0  0
  9 23  1  0  0  0  0
 10 25  1  0  0  0  0
 11 34  1  0  0  0  0
 12 35  1  0  0  0  0
 13 24  1  0  0  0  0
 13 29  1  0  0  0  0
 13 31  2  0  0  0  0
 14 15  1  0  0  0  0
 14 16  1  0  0  0  0
 15 17  1  0  0  0  0
 16 18  1  0  0  0  0
 17 23  1  0  0  0  0
 18 23  1  0  0  0  0
 19 20  1  0  0  0  0
 19 22  1  0  0  0  0
 20 32  1  0  0  0  0
 21 22  1  0  0  0  0
 21 32  1  0  0  0  0
 23 30  1  0  0  0  0
 25 27  1  0  0  0  0
 26 28  1  0  0  0  0
 26 30  1  0  0  0  0
 27 28  1  0  0  0  0
 27 29  1  0  0  0  0
 28 33  1  0  0  0  0
  1 36  1  0  0  0  0
  2 37  1  0  0  0  0
  3 38  1  0  0  0  0
  4 39  1  0  0  0  0
  5 40  1  0  0  0  0
  6 41  1  0  0  0  0
  7 42  1  0  0  0  0
 14 43  1  0  0  0  0
 14 44  1  0  0  0  0
 15 45  1  0  0  0  0
 15 46  1  0  0  0  0
 16 47  1  0  0  0  0
 16 48  1  0  0  0  0
 17 49  1  0  0  0  0
 17 50  1  0  0  0  0
 18 51  1  0  0  0  0
 18 52  1  0  0  0  0
 19 53  1  0  0  0  0
 19 54  1  0  0  0  0
 20 55  1  0  0  0  0
 20 56  1  0  0  0  0
 21 57  1  0  0  0  0
 21 58  1  0  0  0  0
 22 59  1  0  0  0  0
 24 60  1  0  0  0  0
 24 61  1  0  0  0  0
 24 62  1  0  0  0  0
 25 63  1  0  0  0  0
 25 64  1  0  0  0  0
 26 65  1  0  0  0  0
 26 66  1  0  0  0  0
 27 67  1  0  0  0  0
 28 68  1  0  0  0  0
 29 69  1  0  0  0  0
 30 70  1  0  0  0  0
 30 71  1  0  0  0  0
 33 72  1  0  0  0  0
M  CHG  1  30   1
M  END
> <OMEGA_C>
A7MIQfgQ7UAqwpTBxA8CQcLhBEHmvZzBkJPzQDDE20BEjI3Bzd26QNPHAUHFYpbB8JXKQDsAQj9j
g6zBDg6SQIukMb8TnaXBBgPUQJym1L9LnazBBmTYQOyPCkErtZ3BY9THQLic50AgHo7BNcyhQO2m
GD9X1KfBFNHjQDpsvb5Yzq7BxAmrQCMu6b9qEajBHJPZQOoNuz8VcpDBGv2uQFmHAkGPUWPBxcqb
QGkcDUEaWnfBRCPOQBO+4EB2PmnBeqCFQBVS+EBOloLBib64QD3Jv0DLOnjBxIagQPOvE0H0yKvB
4w6zQE7JA0Hr47PBwB7mQMLOHUG6oK/BcZ7IQJRNG0GS5qXB9KalQEtY1UCrWIbB+BzjQEa89T7W
aIfBcmiIQLcT5z8hcaTBrVyiQOvbj0C5hI/BYQeiQHgxJkDeCJzBlFWHQNGmb0AUopfBbySvQMBa
2j88MJPB/kaLQNRPtkASNYzB1gz3QLuTBUCTj5TBYOreQPmgCkE54bXBITV4QPD1k0B/MKDB4KgF
QQN0WL6LB7PB8c+bQD24Q8BQ8KXBOF0ZQUM/5EDJKJTBE68NQcqfC0GzLKLBVwn+QNVJxUBPh4fB
ZWmZQHfbBUGEH5fBg2PWQA+g3z8sVa7BP7BlQBgIUb/5CKLBrUznQGHVIcA1a67BClrAQB2zDkHx
B1rBQeKUQMbM90BujFnBOUuEQGNGGUFbenLBJnq1QJzAFEEYU4DBqijqQCqF7kBZXnHBCnvYQJ1y
0ECBhlrBZiZYQPkb6UC7wXvBgEpvQDn6A0GEp4nB/s7QQMcMqEB7JH3BM9CeQOKmr0CSem/BHEmQ
QMoLIUHM06/BgAuKQDnHC0HRSabB46eyQB755kCDkrDBDW2gQJwoBEGlWrvBCJHdQN4oLEE5QLTB
KOMDQdHgHkHnGq3BuwjDQG7UKkHU/6HBPNgCQYHx8j68woXBJLLRQDlpST+6KoDBStLYQCB7B7/S
yInBO06CQKVyHEB0cKvBH4RTQH3HvT/z96DBnUGoQCa2dkDThIjBNBfBQP/tmEC2KZPBfLa+QCLC
QEAG6J/Boh1VQOEOVkDUs5PBtjqYQK9xoD9+747BbfxlQFN3rUB6fYfBUYZ/QK2mxEAUwZLBFGNW
QPr2hECkRaXBYUwIQVO08UCZs5TBEk4AQZr2AEHQZ57Bl0T0QLT74kBexIzBZgu4QEF29UDyK5jB
VMDNQOQ5Sz8gi6zBRQSTQNZ2Hb99QabB1UXVQA7/0L87l6zBXtfTQHhpAUEjQaDBKGTHQJ/15UBo
WI7B7RekQJvrKT+jS6jB5GvmQAMftb5Jm67BgH2rQMWK4b85d6jB8EzYQPHavj+SApDBOs6rQOpe
BEHV8mPBs6WbQO1tDkF+3HjBkfPLQNqO5ECaX2jB1k6GQEOE+kBCVIPBgCq5QOJcwkBpnXfBHRDe
QC2FDkFrgbPBZorsQKB2JUEA3rDBscyqQI9DH0E2kKjB0QG/QH5ZCUHyjKrB9felQG0F1kDfOIbB
ELvfQGFJ1T6KjIfBJCKLQAVE8j8eHqXBGDajQMhfkECVcY/BCIGjQMR3KUAkRZzBTFyIQMfqcUAl
vpfBvLmuQBxw3D89gZPB406LQOeRtUBlmYvBRRr3QDZTAkCuP5TBZkLOQOD2LUFDGanBoGB5QGKr
lUDUJKDBaFYHQZ4/aL4hcLLBTf6aQL8sP8DJgabBFloZQbqL8EB3VpPBADELQczWBkEbcKTBcVkA
QWZi1UANdYXBEfCVQHAV90CRgZnB7qjaQBQO4z8DNa7BBlRmQBXVNr+k/6LB0yfoQPfsIMAaNa7B
eom7QLzKEEELRlrBsmOQQFOj+0CQEFvBt0aEQJ0OG0E0J3XBBsy2QEJkFUGF0YDB0dPoQJVO8kCd
uW/BUH7UQBgw1UB6IFnBoklWQMfd7EBmyX3BB0t1QE+uBEGwwYrBW83SQKnzq0A5E3zBNbmfQAbv
sEBmIW/BwRPOQMDeDUHHVrvBwV/5QMhqA0GadrPBMnwGQflDJUFYcq3B2FbsQF1WL0HUJrjB2e2S
QJv4IkFpwq7BsoqbQJrVH0Fdo6DBZaSmQOzP+0CfTq3BFygBQcwqjD7zXobBjfvQQCPlOj+97H/B
aT7RQM10B7/vNYrBujqHQLQYI0CeHazBWOlWQKL6yz8/HqLB+B6qQPWddUDhtIjBTHDBQDb4mkDR
F5PBGefAQG2eREBkuJ/BMnNXQGAOV0Br4ZPBtPWWQJmfnT8Z3I/BI01qQJtpq0B1aobBr+V5QLta
w0D33JHBn+FXQNDihkBlTKXB27ILQVq98EAbVpLBDHMGQcyZAUHuM5zBiAf3QNHq4UDtfIvBNQ7B
QLUt+UAfRpjBdTDMQDepVT/2q6zBix2UQIkgKb9oJKbB9aDWQKg6yr8yOa3BRebhQNIlA0HMa5/B
mjvLQHsC50D8Lo7B6V2jQNxhJD9kE6jB5PflQClijb5VIa/BGpmtQDic4r/MyajB4iXaQJ6Quj/t
epDByfimQM+EAkF5QWPBmFKaQD3fDUGUInjBUIjHQMVT4UDkjmfBmx6HQPG1+0AsAYTBm1O2QHst
wUCiQXjBz8bNQHcBJEFc0qnBLoqdQCLPI0G9w6fBCN+wQEUCA0EL0q/Bd8TYQChwDEERgqrBKrim
QC8H10D4uobBHuXjQA794T6ptIfBglGJQJAU6j9wfqTBqeeiQEymkEBwj4/Bq0iiQCXjJkC84pvB
VPCGQKtabkBaNpfBna6vQEg82T+LM5PB5WGMQIbxt0DPn4zBkHD3QAcbB0BIZZTByBGNQL8CEEGh
TqzBnHNwQMVUkkAEpJ/B/ccGQUBWub1+OrPBKsueQKI1QcCo8qbBS0QcQTjl7UC7/I/B+fcSQTWO
B0FOXKHBg5b/QGJt0kAUEYTBtPGfQG4V/UBsjJrBypfXQL+26j/LS67BUsVpQPWKTr+noaLBMVLq
QHHCG8BNKa/BITC1QPpCDkGDPVjB4DCKQOEV90AZ6FvBEYmCQAxZGkHak3TBVee2QJBBFUEXR3/B
1lXlQGGf70AInG3BERTOQMtA0ED0hFjBtwhUQCTP7UC6eoDB8px9QDBdBkEXbIvBFwnQQCd7qkBA
OXzBjD+bQPS8r0DtJ3HB6FTVQOtELEG+W7HBEAHfQD6/K0EDMqPB3iWXQIZSJEFeHZ/BwV+OQOGn
MUGYp6vBIOyzQIizA0GdlLjBHlmsQBuY5EBvTa3Ba7n0QFQcCkEZuq/B9DgDQfyr4T63BYbBtEHS
QO4MNj8CZ4DBCADaQOl/D7+FXYrB5BiDQEgcH0BPYKvBPXhVQFyUvT/8I6HBHkepQMAie0DUVojB
BV3BQPqymEBRfJPBzc2+QD5RQ0Czn5/BMapXQOiDUkCMzpLBKOWYQGronD/PCY/BdrhmQCYQsEAI
C4jBF/iBQL3uxUDzVJPBU4tNQGhPgkAkZ6TBy0fPQMbPCkEa457BoZL7QJsjB0Ej6Z3BlcyyQMkK
AkFjT5fBCwbuQKSD4EDhh47B2U/MQFvWNj+3XKzBueyRQC8pKb/GbKXB0WLRQGjY279F/6zBdZAF
QZzn80CCgpXBSWnCQFaK6kBGvo7BG7mjQEd0Gz+df6fBcTTjQCiX5b7HDq/Bp5ioQEw36b8uQajB
DffYQOy6sT/9wY/BOCyzQCWcAEFzp2HBLI+fQBWzDEGrvHTBRDPRQMut3UBIamnBy3qGQLpt+kDM
poHBOfS5QKZyv0BtBXnBMowjQZSc80Cy44fB7IYnQbD/EUFD9YfBFaEsQU0wBEEFQJnBxT4dQXsV
6kBmj5PByAakQOks10DFRIbB2yLfQNa3pT6hIofBWa+LQK6E7D+tR6TBSVmiQKLkkUARco/BGr2k
QEdgKEDtuJvBbVyJQOoGc0AGypfBP3evQDSl3z8MnpLBPbSJQDiRt0DY74vBJSH4QI7g5T8AwZTB
SQ4sQUm+F0HvBZPB+v9/QO5/lUCaf6DBmQkFQe7msL5UurPBTQ+XQOdaQsDSdabBWiPDQFFUFEGp
baXB+cwIQZlPDkEShaPBvOKQQNwMBUFDBZjBeIL5QNI1yUBQ1YjB+sbZQID31z8hA67BvtFlQEqT
Pb/AqqHBev/iQN0SJ8CuDa/BmmDFQA/tC0EntlfBgFCZQEby8kB4FFjBLLOJQDEdGUHHuG7Bz1a5
QBg+FEGJDH7B5MHsQLw07EAbnHHBxHfcQKAry0CJi1vBqrdZQEs/60Cm63nBBKpwQJlQBkFBTYjB
XGfRQBl+qECgY3/Bjg2hQPkarkAVGnDBSx4yQZ0Q4kBloIXBIYEWQRw560ClXYLBn0AZQdGOGkHk
GIXBfEI1QRL6FUF604LBE+U8Qc3w+kDHXZnBmkknQRwyB0HDf6HBl9ogQXSayEBXl5XBTZsAQV7e
ZD0OnYbByUrUQDrCNz9twn7BRlbMQDfcEb9aM4nBQB2HQOEnH0DjWavBN5tYQIjGxz+ZBaHBbXOo
QETseUB0iYjBvP/AQBpunEDw4JLB30fCQBqfQUCrUZ/Bc2xXQL4EWkDNOJTB91mXQMoqsT/MO47B
3bVkQODJrUAAC4fBObx5QOaNxUCAYJLBHIVgQH9qhkCUy6XB

> <OMEGA_E>
wH6WPuABmz7gUp8+GEv5Pg==

> <OMEGA_NBR>
     78054

$$$$
50167992
  -OEChem-04172616093D

 71 73  0     1  0  0  0  0  0999 V2000
    6.3573    0.8107  -21.5937 C   0  0  0  0  0  0  0  0  0  0  0  0
    4.5857   -0.6519  -20.7608 C   0  0  0  0  0  0  0  0  0  0  0  0
    6.6553   -1.6083  -21.6280 C   0  0  0  0  0  0  0  0  0  0  0  0
    5.7913    7.8431  -18.9813 C   0  0  0  0  0  0  0  0  0  0  0  0
    8.4458    7.6155  -18.4730 C   0  0  0  0  0  0  0  0  0  0  0  0
    5.0782    0.6422  -21.0198 C   0  0  0  0  0  0  0  0  0  0  0  0
    7.1496   -0.3138  -21.8851 C   0  0  0  0  0  0  0  0  0  0  0  0
    5.3706   -1.7759  -21.0722 C   0  0  0  0  0  0  0  0  0  0  0  0
    6.2349    7.2324  -17.7952 C   0  0  0  0  0  0  0  0  0  0  0  0
    6.7301    8.4052  -19.8636 C   0  0  0  0  0  0  0  0  0  0  0  0
    6.7899    1.4615  -18.0607 C   0  0  0  0  0  0  0  0  0  0  0  0
    5.3916    8.1382  -14.1999 C   0  0  0  0  0  0  0  0  0  0  0  0
    4.8525    8.8290  -15.4620 C   0  0  0  0  0  0  0  0  0  0  0  0
    6.4159    7.0482  -14.5593 C   0  0  0  0  0  0  0  0  0  0  0  0
    4.1947    7.7967  -16.3805 C   0  0  0  0  0  0  0  0  0  0  0  0
    5.8227    6.0176  -15.5405 C   0  0  0  0  0  0  0  0  0  0  0  0
    5.1902    6.6835  -16.8046 C   0  0  0  0  0  0  0  0  0  0  0  0
    7.0645    0.4643  -16.9398 C   0  0  0  0  0  0  0  0  0  0  0  0
    5.0032    9.9789  -20.8830 C   0  0  0  0  0  0  0  0  0  0  0  0
    5.8973    8.0133  -22.1951 C   0  0  0  0  0  0  0  0  0  0  0  0
    7.3634   10.0121  -21.7251 C   0  0  0  0  0  0  0  0  0  0  0  0
    4.2823    1.8465  -20.5843 C   0  0  0  0  0  0  0  0  0  0  0  0
    5.0835    4.5002  -17.9278 C   0  0  0  0  0  0  0  0  0  0  0  0
    5.0736    2.6215  -19.5134 C   0  0  1  0  0  0  0  0  0  0  0  0
    4.2331    3.7538  -18.9413 C   0  0  2  0  0  0  0  0  0  0  0  0
    6.2539    9.0946  -21.1505 C   0  0  0  0  0  0  0  0  0  0  0  0
    7.5665    7.1162  -17.5701 N   0  0  0  0  0  0  0  0  0  0  0  0
    8.0521    8.2605  -19.5986 N   0  0  0  0  0  0  0  0  0  0  0  0
    5.4705    1.7119  -18.4206 N   0  0  0  0  0  0  0  0  0  0  0  0
    4.3578    5.6937  -17.5014 N   0  3  0  0  0  0  0  0  0  0  0  0
    7.7210    2.0904  -18.5528 O   0  0  0  0  0  0  0  0  0  0  0  0
    3.8555    4.6419  -19.9943 O   0  0  0  0  0  0  0  0  0  0  0  0
    8.3890   -0.1498  -22.3994 F   0  0  0  0  0  0  0  0  0  0  0  0
    4.8965   -3.0158  -20.8197 F   0  0  0  0  0  0  0  0  0  0  0  0
    6.7269    1.8025  -21.8087 H   0  0  0  0  0  0  0  0  0  0  0  0
    3.6065   -0.7804  -20.3236 H   0  0  0  0  0  0  0  0  0  0  0  0
    7.2611   -2.4725  -21.8571 H   0  0  0  0  0  0  0  0  0  0  0  0
    4.7370    7.8801  -19.2128 H   0  0  0  0  0  0  0  0  0  0  0  0
    9.5029    7.4946  -18.2881 H   0  0  0  0  0  0  0  0  0  0  0  0
    5.8763    8.8891  -13.5587 H   0  0  0  0  0  0  0  0  0  0  0  0
    4.5532    7.6781  -13.6564 H   0  0  0  0  0  0  0  0  0  0  0  0
    4.1091    9.5868  -15.1737 H   0  0  0  0  0  0  0  0  0  0  0  0
    5.6832    9.3146  -15.9951 H   0  0  0  0  0  0  0  0  0  0  0  0
    7.2930    7.5214  -15.0249 H   0  0  0  0  0  0  0  0  0  0  0  0
    6.7240    6.5298  -13.6393 H   0  0  0  0  0  0  0  0  0  0  0  0
    3.3497    7.3348  -15.8490 H   0  0  0  0  0  0  0  0  0  0  0  0
    3.8259    8.3068  -17.2826 H   0  0  0  0  0  0  0  0  0  0  0  0
    6.6247    5.3381  -15.8646 H   0  0  0  0  0  0  0  0  0  0  0  0
    5.0437    5.4426  -15.0185 H   0  0  0  0  0  0  0  0  0  0  0  0
    8.1414    0.4509  -16.7159 H   0  0  0  0  0  0  0  0  0  0  0  0
    6.5068    0.7619  -16.0396 H   0  0  0  0  0  0  0  0  0  0  0  0
    6.7432   -0.5394  -17.2551 H   0  0  0  0  0  0  0  0  0  0  0  0
    4.6856   10.4589  -21.8204 H   0  0  0  0  0  0  0  0  0  0  0  0
    4.1862    9.3513  -20.4975 H   0  0  0  0  0  0  0  0  0  0  0  0
    5.2528   10.7522  -20.1416 H   0  0  0  0  0  0  0  0  0  0  0  0
    5.5547    8.4968  -23.1218 H   0  0  0  0  0  0  0  0  0  0  0  0
    6.7866    7.4018  -22.4079 H   0  0  0  0  0  0  0  0  0  0  0  0
    5.0969    7.3710  -21.7992 H   0  0  0  0  0  0  0  0  0  0  0  0
    7.0011   10.4946  -22.6448 H   0  0  0  0  0  0  0  0  0  0  0  0
    7.6218   10.7829  -20.9841 H   0  0  0  0  0  0  0  0  0  0  0  0
    8.2550    9.4099  -21.9540 H   0  0  0  0  0  0  0  0  0  0  0  0
    4.1004    2.4994  -21.4507 H   0  0  0  0  0  0  0  0  0  0  0  0
    3.3201    1.5184  -20.1641 H   0  0  0  0  0  0  0  0  0  0  0  0
    5.2776    3.8540  -17.0590 H   0  0  0  0  0  0  0  0  0  0  0  0
    6.0388    4.7919  -18.3885 H   0  0  0  0  0  0  0  0  0  0  0  0
    5.9734    3.0475  -19.9811 H   0  0  0  0  0  0  0  0  0  0  0  0
    3.3455    3.3375  -18.4424 H   0  0  0  0  0  0  0  0  0  0  0  0
    4.7474    1.2483  -17.9086 H   0  0  0  0  0  0  0  0  0  0  0  0
    3.6230    5.4111  -16.8847 H   0  0  0  0  0  0  0  0  0  0  0  0
    3.9643    6.1284  -18.3115 H   0  0  0  0  0  0  0  0  0  0  0  0
    3.3237    4.1746  -20.6279 H   0  0  0  0  0  0  0  0  0  0  0  0
  1  6  1  0  0  0  0
  1  7  2  0  0  0  0
  2  6  2  0  0  0  0
  2  8  1  0  0  0  0
  3  7  1  0  0  0  0
  3  8  2  0  0  0  0
  4  9  1  0  0  0  0
  4 10  2  0  0  0  0
  5 27  1  0  0  0  0
  5 28  2  0  0  0  0
  6 22  1  0  0  0  0
  7 33  1  0  0  0  0
  8 34  1  0  0  0  0
  9 17  1  0  0  0  0
  9 27  2  0  0  0  0
 10 26  1  0  0  0  0
 10 28  1  0  0  0  0
 11 18  1  0  0  0  0
 11 29  1  0  0  0  0
 11 31  2  0  0  0  0
 12 13  1  0  0  0  0
 12 14  1  0  0  0  0
 13 15  1  0  0  0  0
 14 16  1  0  0  0  0
 15 17  1  0  0  0  0
 16 17  1  0  0  0  0
 17 30  1  0  0  0  0
 19 26  1  0  0  0  0
 20 26  1  0  0  0  0
 21 26  1  0  0  0  0
 22 24  1  0  0  0  0
 23 25  1  0  0  0  0
 23 30  1  0  0  0  0
 24 25  1  0  0  0  0
 24 29  1  0  0  0  0
 25 32  1  0  0  0  0
  1 35  1  0  0  0  0
  2 36  1  0  0  0  0
  3 37  1  0  0  0  0
  4 38  1  0  0  0  0
  5 39  1  0  0  0  0
 12 40  1  0  0  0  0
 12 41  1  0  0  0  0
 13 42  1  0  0  0  0
 13 43  1  0  0  0  0
 14 44  1  0  0  0  0
 14 45  1  0  0  0  0
 15 46  1  0  0  0  0
 15 47  1  0  0  0  0
 16 48  1  0  0  0  0
 16 49  1  0  0  0  0
 18 50  1  0  0  0  0
 18 51  1  0  0  0  0
 18 52  1  0  0  0  0
 19 53  1  0  0  0  0
 19 54  1  0  0  0  0
 19 55  1  0  0  0  0
 20 56  1  0  0  0  0
 20 57  1  0  0  0  0
 20 58  1  0  0  0  0
 21 59  1  0  0  0  0
 21 60  1  0  0  0  0
 21 61  1  0  0  0  0
 22 62  1  0  0  0  0
 22 63  1  0  0  0  0
 23 64  1  0  0  0  0
 23 65  1  0  0  0  0
 24 66  1  0  0  0  0
 25 67  1  0  0  0  0
 29 68  1  0  0  0  0
 30 69  1  0  0  0  0
 30 70  1  0  0  0  0
 32 71  1  0  0  0  0
M  CHG  1  30   1
M  END
> <OMEGA_C>
aG/LQPOJTz/uv6zBsb2SQFniJr8UFqbBz/fUQIPbzb89Bq3BKVK5QNH6+kC92ZfB5iEHQXOy80C+
yJPBqICiQFhmJD+hKKjBJMnkQACqoL6hFK/BHNyrQMpP47/sk6jBaITHQOZv50B9XI7BslzXQIl7
BkG36J7BgUbZQH0Suz9TfJDBFYisQAs2AkHRMmPBhUebQLBDDUF2ZHfBHU/NQNqK4UDb8mjBVDuG
QHV++UBAC4PBrlO6QM6PwECwpXjB5RWmQFrf1UDOb4bBvxDiQFi27T6mhIfBIxqgQJipH0FyEKfB
9ra8QHc2AEGcj7HB2aDrQIIxIEEDza3BZgiJQI9a7D+UrKTB/quiQJIBkEAibI/BnVqiQATGJ0CE
G5zBKXWHQDs+cEDBh5fBFiDIQIeDEUFHNKnBtyDyQLG340Cfj4zBddUAQR0rBEHlyZzBcw6vQDgg
2z9SXZPBynKLQGMytkDYAozBlRL3QAvJBUAabJTBwsB2QEiKlEBr9J/BbDkGQVZvGb4IMrPBUbCc
QIwDQcCujqbBjELXQP635j8keK7B9tBmQAPIR7+vlqLBn1roQMY9HsBE267Bv5WXQNkp/EDWs5nB
CgwYQdnT70AYTpLBfAq8QNk5DkFB8FjBKbSRQKGy9UCUgFrBV32DQGNjGUFlx3LBt9y1QJ8IFUHI
63/BfmDpQCqv8EDVZXDBPyvXQH300ECbOlrB02BWQF626kCZlX3BO9t0QInoBEG4QorBx/3TQJ/R
qkCU1X3Bq2WhQGEprkC6S3DBYEMCQWrb5j5DuoXBWjfQQNgJQz8XUYDBb8jXQBgTCr+MCorBHPCV
QJNXJ0FCkK7BkfWFQOKeFUHJ+qPB4BaoQN0ILEHtIaHBBMCxQALzB0GD+bjB9SvZQLnb7EBiQ7PB
pBmjQF7f60DGZK7BmwjgQBTqJ0GPKLXBG+bzQK2GLEFy36fBaxQEQcuOFkG0oa/ByjaDQIz2H0D2
mqvBnHxUQGtawj8HUKHBFuKoQIaodkDXeIjBAT7BQJVXmUCiG5PBOSa/QPsKQ0BN2Z/BURxWQMyY
VUATipPBcOqXQD3Inz/ORI/Bf99nQF0nrUDlE4fBlrd9QJwbxEDjfZLBh7dUQIWWhUDdBaXBZsmT
QLqvJr+BJabBdcvMQF4yUD/1nazBbEXWQECIzb+g8azBuhG6QN4F/EDetpfB84EHQcC380CZypPB
76CjQHuqJD/TKKjB//6sQMsd479QmKjBKjbmQB0Nn75n667BkELIQJTc50AsTo7BLiHYQBj6BkGk
x57BorHYQC4VuT+JWpDBtlKtQAWkAUHU8WLBovWbQEzmDEF7AHfB6QXOQLxx4EAj6GjBfN+GQMgK
+UCY6oLBzgO7QA3hv0As03jB7cumQLbA1UAHdIbBM+DgQIev3D59eYfBWIWhQEuTIEGf2abBFz68
QBWnAEH9TbHBhKfsQKg1IEHb463BuNuJQBVO7D8eyaTBA8WjQCwNkUDu74/BhY6iQAm3J0AsHpzB
V3uHQJz6b0D1j5fBptbIQJ7/EUEgE6nBMOHyQMec40DalIzBIjcBQU50BEH1t5zBR62uQKjL2j8M
VJPBkjCMQN5ftkD6JIzBSML2QAULBUDNHZTBUFJyQF9Zk0D2+5/BRbSdQBHwQMCkpabB1gIHQT0I
Fb4y8bLBiaNoQHLKR78iuqLBSr7YQKQi5z+FQa7B3LDpQCYPHsBJw67BxUyYQDG5/UCCgJnBQWsY
QSx+70BcXZLBHPC8QD+MDUFymVjBBIiSQItv9ECuRVrBRSyEQEf3GEFrPHLBBn22QDXEFEGfe3/B
YyTqQFS070AcP3DBLNDXQIZ3z0BzSVrBOPlXQLLx6UAfWH3BLK91QAjUBEFVEYrBtanUQG1BqkCu
J37BuRGiQE9HrUDnmHDB3J0BQakF0j5qkYXByKrOQPKnNz/mTIDBzJ3WQGwMEb/DJorBoEGXQJtA
KEFqV67BxCaHQLPXFkERpKPBXlSqQCbyLEGb/aDB1TixQOdaCEHWuLjB+S3YQAUP7UBRDLPBl1yi
QPRw7UA5AK7By+jgQFPnJ0FlPbXBSdP1QPuRLEFrD6jBcVMEQfU8FkH7yK/BwnyEQA/xH0A0vavB
0LZVQFUhwj+QjqHBgJqsQBlyeUDZGYnBMenAQGh7m0DQIJTBaZe/QO0TQ0AQu5/BZ1tYQFH4VEDx
JpPBwT6XQG6ToD/uRY/BAF9qQFRerECBLYfBE9R9QIbbxECJdZLB7e1OQNaWg0C2vqTB

> <OMEGA_E>
QIFAPnB7Qz4=

> <OMEGA_NBR>
     80629

$$$$
50167981
  -OEChem-04172616093D

 73 75  0     1  0  0  0  0  0999 V2000
    6.2985    0.7779  -21.6099 C   0  0  0  0  0  0  0  0  0  0  0  0
    4.6565   -0.7133  -20.5846 C   0  0  0  0  0  0  0  0  0  0  0  0
    6.6623   -1.6323  -21.6255 C   0  0  0  0  0  0  0  0  0  0  0  0
    7.7293    6.9947  -17.6099 C   0  0  0  0  0  0  0  0  0  0  0  0
    6.0286    7.9877  -18.7646 C   0  0  0  0  0  0  0  0  0  0  0  0
    6.2634    7.2267  -17.6609 C   0  0  0  0  0  0  0  0  0  0  0  0
    5.0829    0.5876  -20.9188 C   0  0  0  0  0  0  0  0  0  0  0  0
    7.0911   -0.3308  -21.9546 C   0  0  0  0  0  0  0  0  0  0  0  0
    5.4425   -1.8227  -20.9449 C   0  0  0  0  0  0  0  0  0  0  0  0
    6.8828    1.5179  -18.0649 C   0  0  0  0  0  0  0  0  0  0  0  0
    5.3537    8.2200  -14.1957 C   0  0  0  0  0  0  0  0  0  0  0  0
    4.8157    8.8818  -15.4762 C   0  0  0  0  0  0  0  0  0  0  0  0
    6.3595    7.0993  -14.5197 C   0  0  0  0  0  0  0  0  0  0  0  0
    4.1665    7.8291  -16.3830 C   0  0  0  0  0  0  0  0  0  0  0  0
    5.7418    6.0478  -15.4647 C   0  0  0  0  0  0  0  0  0  0  0  0
    5.1618    6.6989  -16.7504 C   0  0  0  0  0  0  0  0  0  0  0  0
    7.2048    0.5256  -16.9516 C   0  0  0  0  0  0  0  0  0  0  0  0
    6.1753    8.0779  -22.1530 C   0  0  0  0  0  0  0  0  0  0  0  0
    5.1341   10.0572  -20.9247 C   0  0  0  0  0  0  0  0  0  0  0  0
    7.0755   10.4068  -22.4634 C   0  0  0  0  0  0  0  0  0  0  0  0
    4.2747    1.7805  -20.4747 C   0  0  0  0  0  0  0  0  0  0  0  0
    7.5445    9.2544  -20.3219 C   0  0  0  0  0  0  0  0  0  0  0  0
    5.1224    4.5726  -17.9825 C   0  0  0  0  0  0  0  0  0  0  0  0
    5.0929    2.6214  -19.4776 C   0  0  1  0  0  0  0  0  0  0  0  0
    4.2459    3.7587  -18.9189 C   0  0  2  0  0  0  0  0  0  0  0  0
    6.4641    9.4244  -21.4404 C   0  0  0  0  0  0  0  0  0  0  0  0
    8.2896    7.6369  -18.6098 N   0  0  0  0  0  0  0  0  0  0  0  0
    7.2726    8.2327  -19.2825 N   0  0  0  0  0  0  0  0  0  0  0  0
    5.5483    1.7748  -18.3572 N   0  0  0  0  0  0  0  0  0  0  0  0
    4.3611    5.7248  -17.5044 N   0  3  0  0  0  0  0  0  0  0  0  0
    7.7894    1.9554  -18.7658 O   0  0  0  0  0  0  0  0  0  0  0  0
    3.7830    4.5883  -19.9852 O   0  0  0  0  0  0  0  0  0  0  0  0
    8.2645   -0.1441  -22.5990 F   0  0  0  0  0  0  0  0  0  0  0  0
    5.0322   -3.0699  -20.6244 F   0  0  0  0  0  0  0  0  0  0  0  0
    6.6198    1.7747  -21.8737 H   0  0  0  0  0  0  0  0  0  0  0  0
    3.7278   -0.8583  -20.0528 H   0  0  0  0  0  0  0  0  0  0  0  0
    7.2686   -2.4845  -21.8949 H   0  0  0  0  0  0  0  0  0  0  0  0
    8.2480    6.3980  -16.8741 H   0  0  0  0  0  0  0  0  0  0  0  0
    5.0755    8.3230  -19.1461 H   0  0  0  0  0  0  0  0  0  0  0  0
    5.8543    8.9833  -13.5820 H   0  0  0  0  0  0  0  0  0  0  0  0
    4.5108    7.7921  -13.6331 H   0  0  0  0  0  0  0  0  0  0  0  0
    4.0666    9.6406  -15.2060 H   0  0  0  0  0  0  0  0  0  0  0  0
    5.6466    9.3619  -16.0139 H   0  0  0  0  0  0  0  0  0  0  0  0
    7.2437    7.5402  -15.0033 H   0  0  0  0  0  0  0  0  0  0  0  0
    6.6610    6.6067  -13.5836 H   0  0  0  0  0  0  0  0  0  0  0  0
    3.3049    7.3894  -15.8591 H   0  0  0  0  0  0  0  0  0  0  0  0
    3.8236    8.3170  -17.3073 H   0  0  0  0  0  0  0  0  0  0  0  0
    6.5203    5.3254  -15.7512 H   0  0  0  0  0  0  0  0  0  0  0  0
    4.9328    5.5240  -14.9345 H   0  0  0  0  0  0  0  0  0  0  0  0
    8.2871    0.3298  -16.9360 H   0  0  0  0  0  0  0  0  0  0  0  0
    6.8945    0.9469  -15.9840 H   0  0  0  0  0  0  0  0  0  0  0  0
    6.6646   -0.4155  -17.1318 H   0  0  0  0  0  0  0  0  0  0  0  0
    7.1196    7.6423  -22.5114 H   0  0  0  0  0  0  0  0  0  0  0  0
    5.6967    7.3843  -21.4460 H   0  0  0  0  0  0  0  0  0  0  0  0
    5.5043    8.2518  -23.0071 H   0  0  0  0  0  0  0  0  0  0  0  0
    5.3521   11.0109  -20.4217 H   0  0  0  0  0  0  0  0  0  0  0  0
    4.4600   10.2371  -21.7751 H   0  0  0  0  0  0  0  0  0  0  0  0
    4.6524    9.3696  -20.2140 H   0  0  0  0  0  0  0  0  0  0  0  0
    7.2853   11.3673  -21.9700 H   0  0  0  0  0  0  0  0  0  0  0  0
    8.0112    9.9868  -22.8609 H   0  0  0  0  0  0  0  0  0  0  0  0
    6.3654   10.5659  -23.2883 H   0  0  0  0  0  0  0  0  0  0  0  0
    4.0209    2.3964  -21.3501 H   0  0  0  0  0  0  0  0  0  0  0  0
    3.3501    1.4351  -19.9889 H   0  0  0  0  0  0  0  0  0  0  0  0
    8.4923    8.9871  -20.8121 H   0  0  0  0  0  0  0  0  0  0  0  0
    7.6546   10.2244  -19.8149 H   0  0  0  0  0  0  0  0  0  0  0  0
    5.4269    3.9507  -17.1278 H   0  0  0  0  0  0  0  0  0  0  0  0
    6.0169    4.9186  -18.5213 H   0  0  0  0  0  0  0  0  0  0  0  0
    5.9634    3.0450  -20.0000 H   0  0  0  0  0  0  0  0  0  0  0  0
    3.3989    3.3400  -18.3557 H   0  0  0  0  0  0  0  0  0  0  0  0
    4.8525    1.3597  -17.7711 H   0  0  0  0  0  0  0  0  0  0  0  0
    3.6283    5.3930  -16.9104 H   0  0  0  0  0  0  0  0  0  0  0  0
    3.9640    6.1896  -18.2958 H   0  0  0  0  0  0  0  0  0  0  0  0
    3.2351    4.0774  -20.5695 H   0  0  0  0  0  0  0  0  0  0  0  0
  1  7  1  0  0  0  0
  1  8  2  0  0  0  0
  2  7  2  0  0  0  0
  2  9  1  0  0  0  0
  3  8  1  0  0  0  0
  3  9  2  0  0  0  0
  4  6  1  0  0  0  0
  4 27  2  0  0  0  0
  5  6  2  0  0  0  0
  5 28  1  0  0  0  0
  6 16  1  0  0  0  0
  7 21  1  0  0  0  0
  8 33  1  0  0  0  0
  9 34  1  0  0  0  0
 10 17  1  0  0  0  0
 10 29  1  0  0  0  0
 10 31  2  0  0  0  0
 11 12  1  0  0  0  0
 11 13  1  0  0  0  0
 12 14  1  0  0  0  0
 13 15  1  0  0  0  0
 14 16  1  0  0  0  0
 15 16  1  0  0  0  0
 16 30  1  0  0  0  0
 18 26  1  0  0  0  0
 19 26  1  0  0  0  0
 20 26  1  0  0  0  0
 21 24  1  0  0  0  0
 22 26  1  0  0  0  0
 22 28  1  0  0  0  0
 23 25  1  0  0  0  0
 23 30  1  0  0  0  0
 24 25  1  0  0  0  0
 24 29  1  0  0  0  0
 25 32  1  0  0  0  0
 27 28  1  0  0  0  0
  1 35  1  0  0  0  0
  2 36  1  0  0  0  0
  3 37  1  0  0  0  0
  4 38  1  0  0  0  0
  5 39  1  0  0  0  0
 11 40  1  0  0  0  0
 11 41  1  0  0  0  0
 12 42  1  0  0  0  0
 12 43  1  0  0  0  0
 13 44  1  0  0  0  0
 13 45  1  0  0  0  0
 14 46  1  0  0  0  0
 14 47  1  0  0  0  0
 15 48  1  0  0  0  0
 15 49  1  0  0  0  0
 17 50  1  0  0  0  0
 17 51  1  0  0  0  0
 17 52  1  0  0  0  0
 18 53  1  0  0  0  0
 18 54  1  0  0  0  0
 18 55  1  0  0  0  0
 19 56  1  0  0  0  0
 19 57  1  0  0  0  0
 19 58  1  0  0  0  0
 20 59  1  0  0  0  0
 20 60  1  0  0  0  0
 20 61  1  0  0  0  0
 21 62  1  0  0  0  0
 21 63  1  0  0  0  0
 22 64  1  0  0  0  0
 22 65  1  0  0  0  0
 23 66  1  0  0  0  0
 23 67  1  0  0  0  0
 24 68  1  0  0  0  0
 25 69  1  0  0  0  0
 29 70  1  0  0  0  0
 30 71  1  0  0  0  0
 30 72  1  0  0  0  0
 32 73  1  0  0  0  0
M  CHG  1  30   1
M  END
> <OMEGA_C>
YI3JQGgkRz/74KzBLQKVQNOdNr9RraTBpTHVQA7w0L/6AK3Bs1b3QIjU30Ak4YzBJurAQNea/0DR
HZbBxG3IQLpA50CNSY3BwKaiQCtvFj/AWafB6eniQB5bqb4So6/BVSmuQK1M6b8Vj6fBnz/cQMZL
wj/3hJDBVFGrQO2EA0GDIWPBPxqaQLQbDkGannfBO4HLQMot40DKUGjBpVOFQO+H+kBMEIPBEr23
QKCHwUA8b3fB2y2lQL9d1kDAAIbBj43mQIuNBj/YnIfBSpzFQBg/AUFRObHBpEqkQHXqIEHiZafB
VWriQDaCJkEGtbPBLMqIQAno4z8hzKPBSWzxQBoSFEFTk6LB5uqjQGhSkkAk3I/BVfmiQDDFJ0AL
0pvBN96HQM+OcEDXWZfB0NnOQCnKFkHXhavBPqIEQRxh9EDs4JTB8rjoQAa5A0GcQprBCIyxQJss
4z9025LB+I2LQNcxt0AcCYzBtEL5QFFJ+j9FIJbBlRxyQAnTkkCg4Z/BYjsEQUiOE762yrTBbQeh
QHJ4RMDD/qTBItXTQBYp4z9F/a7BCJRuQEW6W78gbKDBt5joQAgCH8CoKK/ByvcDQcu8zEA5/obB
i2qiQN4qBUFPK5nBwVa7QIi7D0GuT1nBRliQQAJZ+UBGIVrBdyGCQOE/GkH2S3PB97C0QHXKFUFg
HIDBW8znQLpJ8UB+DXDBHCfVQC9q00A7VlnBIIRTQO917EDLvn3BFbV0QFYSBUFTdYrBHKbQQIpp
qkANBXzBN9mdQKbEsEDJ827B8JcEQXrWqD7dfIfB/Z/cQMBpcj9yvn/BKETVQG291L4FDonBF9Tj
QHON9EBzF7TBrku2QOpL7EBskavBkiOwQEcHBEGWDrjBYESrQIUsMEGbX6PBE7iOQF3LI0F8M67B
L+CUQArqFUFTtqHBhyHpQE7gNUGGwq/B1y0AQc7JH0Eo47bBdrHLQAcOKUFyTrrBi6uAQHdeGUDx
zKrBuGhWQGeytz9Y6Z/BU+AHQT/LD0Eef6bB4vL0QA2XI0EBhZ7BSamtQJfXfECzBYnBC4rAQNxk
nUCQK5TBD9S+QJTgQkD3/5/BAIdZQM/BVUBh2JLBYUebQOIJrj9HK47ByzVoQMCTrEB0SIfBdrF9
QD4RxkDbXZLBSQxPQE96gkA+jqTBfKrIQF43MT+++qzBLOyTQBjEP79YTKTB5KrTQCJB3L8dcazB
zFf2QCCl50CzX47BTPS7QLlT9EAy8pjBGMfGQIfD5kAI7o7BwM2hQOoWCT9wXqfBSKbhQDXb3r5T
eK/B8rSsQII38L+85abBYDbcQHjdxj+kPpDBZKmsQENIBEGYJmXB7hCbQD2PDkHSsnnBKunNQHXT
5UB8YGrB40mGQM38+kDT84PBMiS7QM1aw0A9UHnBVAamQFm91kCZ1YbBBjDnQLJsBz/yn4fB6lCm
QIZpIEGiOKjBxEjxQIsxLEGnEKPBdL3fQGNGI0GdK7bBzImIQNXh3z8cAqTBmP3kQDuiBUH/76jB
3N+jQMa2kEBW3o/BZt+iQNsGJUDP+5vBiOWHQGq2bUDcbJfBPNrWQPFGHUH2a6rB06ECQRDU9UBU
jJfBrkjiQIi7/EAsu53BXI+xQAa42z+EH5PBPqCLQBPrtUB1HYzBkiD5QLBiB0CaIJXBk3NyQCeh
kUA17Z/BcYUDQa35kL6PxLTBbCCfQPb1RsAJCKTBlzXTQGOj1j+bW6/BppNsQOYIXr9W9J/BWNHm
QK+OJcDxXq7BqLYEQdE03kBqkYfBdU2cQOSl90B/UJzBlde7QFa6EEH3SVvB/A+SQBEF+kD4NFzB
0AaDQFCxGkF/cnXBY3S1QGQzFkGsPoHBUpLpQEjT9EAPRHLBJlfYQEWS1kCyZVvB/rdVQIkU7UCp
V3/Bvy52QNgXBUE8YYvBWRLVQI27rUDDSn7B186iQLscsUCUc3DBOBQFQV333T5Q+YbB+wHaQGIg
XD/2z3/BlEzZQPT2475Mx4nBB7mTQKDGFUFWeK3BK2afQJeKHEEL0J/BT3adQKskMUEh0qnBKcwJ
QR/mKUE0qaTBHYzoQGnxPEEUqKTB+XvqQFVXKEH+pZrBGv8AQYYqIUH35rfB4NbMQLHfGEHad7vB
8rjWQKIRNEGxh7fBTU6BQBM7F0A5FavBJfFUQNjctj/ZN6DB7TrQQGfJ9kCa3a3B5ikDQZoJBEHF
pavB/yatQFSNeUBH/4jB9cXAQNN/m0CmG5TBEbO+QPZPQEAFKKDBDm9ZQFjEUkAq9pLBSHGbQOoD
nD9V7o7Byx1rQFbNq0Ag54bBa0t6QNpTw0CmaZLBY31PQJ1qgUBHpKTBTd7IQGhEKz9x2qzBDyuS
QKgtOr/7dqTBcEvRQEOc4L/1eKzBwzn3QLc330Can43BvQ7AQH3MAEFf+5XBinrIQOGf50B6eY3B
8IKhQP/XCz/xZqfBXMTgQKRg9r6sW6/BF/mpQOk38L+yCafBbNbaQKSgxj8XBZDB83OuQFslAUFK
O2LBsmmcQFaoDEFQB3bBzIrOQKAr30BAomjBmcuGQInx+EBQgILBizq6QN7nvkAzRXjBqlOmQMVq
1UCTD4bBZ1fkQFbtAz9wYIfBNnvhQDypJEETn7TBmXi6QEHWAkGk/6/BAYKmQPFFJkH1GKfBGOuI
QAkG5D+VMqTBZq/vQDioFEHz2qLBGLikQB4tkkAOQZDBvD2jQKvCJkA6I5zBqK+IQIQacUAS0pfB
y+bLQOI2GEGMaKvBuBcEQZL780BwtZXBvUnnQFZIBEFwjprBWZGwQAhy3z88IJPB4GqMQNnTtkBW
OIzB+5H4QMzyBUCcvZTB9ih2QAhQk0CfbaDBR0IDQW7uub4wjbTB4iebQLc6RsBTPaTBxJ/UQKmQ
0j9kGa/BoFNoQAQCUr8aPqDBD5XjQCrVKMBNba7BuzUEQfFUy0DLA4jBb2qhQAHyBkEniZjBg8K+
QPXmDEEs+1fBJ+OTQOCb80C7UVnBm8SEQNylGEFo6HDB4Ku2QPamFEGWmX7BvWLqQKEo7kCeXXDB
hPzYQIwSzkC5KVrB6WdXQHwX6kC/kXzBtgJ2QMnuBEHroYnB5RDTQDp6qEA3un3BY/KgQEMgrUAO
2W/Bv5UDQRU+yT4Oj4bBZdLWQPxcWj93bX/BMN/VQMf05L5ooInBPB7uQPvnM0EHkLHBhd/7QFoT
G0Gu7bfBFNLJQMzcJ0Hn77rBpOqqQO9S80D7kqnBdAyjQKY+BkHAV7bB5RnVQGjq8kCHVbPBpl2W
QGjeHUGZgKDBb0yzQHaXNUFaLKTBH3WPQF5KKUEsk63B3XyCQLURGUAlV6vB8d9UQAj/vT88fqDB
E4EGQUv1D0F2HqfBAfv0QA4AJEGUwJ7BrKCuQHile0Dig4nBLD3BQJWYnUDBjJTBWbC/QBFfQECf
NqDBR/JZQB2+V0DNapPBxbmZQLjloj+S/o7BxQ1qQJ/kq0COfofBbkR/QOc8xkDldZLBGg5TQA9O
g0CkK6XB

> <OMEGA_E>
kKdGPgyZlD449zs+

> <OMEGA_NBR>
     84386

$$$$
50168355
  -OEChem-04172616093D

 71 73  0     1  0  0  0  0  0999 V2000
    8.5859    7.5365  -18.4603 C   0  0  0  0  0  0  0  0  0  0  0  0
    7.6487    7.0590  -17.5283 C   0  0  0  0  0  0  0  0  0  0  0  0
    8.1590    8.2047  -19.6210 C   0  0  0  0  0  0  0  0  0  0  0  0
    5.8464    7.8671  -18.9500 C   0  0  0  0  0  0  0  0  0  0  0  0
    6.3820    0.7991  -21.5792 C   0  0  0  0  0  0  0  0  0  0  0  0
    4.5939   -0.6573  -20.7719 C   0  0  0  0  0  0  0  0  0  0  0  0
    6.6523   -1.6229  -21.6562 C   0  0  0  0  0  0  0  0  0  0  0  0
    6.2617    7.2412  -17.7517 C   0  0  0  0  0  0  0  0  0  0  0  0
    6.7777    8.4001  -19.8700 C   0  0  0  0  0  0  0  0  0  0  0  0
    5.1009    0.6362  -21.0074 C   0  0  0  0  0  0  0  0  0  0  0  0
    7.1606   -0.3300  -21.8924 C   0  0  0  0  0  0  0  0  0  0  0  0
    5.3664   -1.7851  -21.1024 C   0  0  0  0  0  0  0  0  0  0  0  0
    6.8042    1.4317  -18.0767 C   0  0  0  0  0  0  0  0  0  0  0  0
    4.2133    7.8599  -16.3592 C   0  0  0  0  0  0  0  0  0  0  0  0
    5.7284    6.0291  -15.4810 C   0  0  0  0  0  0  0  0  0  0  0  0
    4.8826    8.8104  -15.3586 C   0  0  0  0  0  0  0  0  0  0  0  0
    6.2758    7.0571  -14.4675 C   0  0  0  0  0  0  0  0  0  0  0  0
    5.1791    6.7143  -16.7780 C   0  0  0  0  0  0  0  0  0  0  0  0
    7.0774    0.4118  -16.9755 C   0  0  0  0  0  0  0  0  0  0  0  0
    5.8779    7.9996  -22.1805 C   0  0  0  0  0  0  0  0  0  0  0  0
    7.3571   10.0025  -21.7959 C   0  0  0  0  0  0  0  0  0  0  0  0
    5.0382    9.9857  -20.8649 C   0  0  0  0  0  0  0  0  0  0  0  0
    4.3058    1.8441  -20.5710 C   0  0  0  0  0  0  0  0  0  0  0  0
    5.0810    4.5384  -17.9314 C   0  0  0  0  0  0  0  0  0  0  0  0
    5.0870    2.6291  -19.4972 C   0  0  1  0  0  0  0  0  0  0  0  0
    4.2322    3.7571  -18.9245 C   0  0  2  0  0  0  0  0  0  0  0  0
    6.2750    9.0888  -21.1585 C   0  0  0  0  0  0  0  0  0  0  0  0
    5.4846    1.7220  -18.4031 N   0  0  0  0  0  0  0  0  0  0  0  0
    4.3512    5.7395  -17.5099 N   0  3  0  0  0  0  0  0  0  0  0  0
    7.7399    2.0435  -18.5813 O   0  0  0  0  0  0  0  0  0  0  0  0
    5.2836    8.0650  -14.1929 O   0  0  0  0  0  0  0  0  0  0  0  0
    3.8134    4.6215  -19.9812 O   0  0  0  0  0  0  0  0  0  0  0  0
    8.4004   -0.1729  -22.4084 F   0  0  0  0  0  0  0  0  0  0  0  0
    4.8787   -3.0241  -20.8711 F   0  0  0  0  0  0  0  0  0  0  0  0
    9.6411    7.3892  -18.2836 H   0  0  0  0  0  0  0  0  0  0  0  0
    7.9874    6.5507  -16.6376 H   0  0  0  0  0  0  0  0  0  0  0  0
    8.8886    8.5716  -20.3277 H   0  0  0  0  0  0  0  0  0  0  0  0
    4.7910    7.9397  -19.1675 H   0  0  0  0  0  0  0  0  0  0  0  0
    6.7637    1.7901  -21.7759 H   0  0  0  0  0  0  0  0  0  0  0  0
    3.6128   -0.7825  -20.3381 H   0  0  0  0  0  0  0  0  0  0  0  0
    7.2484   -2.4900  -21.8997 H   0  0  0  0  0  0  0  0  0  0  0  0
    3.3175    7.4222  -15.8945 H   0  0  0  0  0  0  0  0  0  0  0  0
    3.9214    8.4285  -17.2544 H   0  0  0  0  0  0  0  0  0  0  0  0
    6.5392    5.3401  -15.7602 H   0  0  0  0  0  0  0  0  0  0  0  0
    4.9132    5.4630  -15.0066 H   0  0  0  0  0  0  0  0  0  0  0  0
    5.7671    9.2706  -15.8233 H   0  0  0  0  0  0  0  0  0  0  0  0
    4.1713    9.5968  -15.0658 H   0  0  0  0  0  0  0  0  0  0  0  0
    6.5373    6.5408  -13.5320 H   0  0  0  0  0  0  0  0  0  0  0  0
    7.1737    7.5360  -14.8852 H   0  0  0  0  0  0  0  0  0  0  0  0
    8.1583    0.3675  -16.7760 H   0  0  0  0  0  0  0  0  0  0  0  0
    6.5476    0.7109  -16.0591 H   0  0  0  0  0  0  0  0  0  0  0  0
    6.7232   -0.5787  -17.2971 H   0  0  0  0  0  0  0  0  0  0  0  0
    5.5176    8.4765  -23.1039 H   0  0  0  0  0  0  0  0  0  0  0  0
    6.7537    7.3742  -22.4085 H   0  0  0  0  0  0  0  0  0  0  0  0
    5.0799    7.3724  -21.7564 H   0  0  0  0  0  0  0  0  0  0  0  0
    6.9538   10.4688  -22.7069 H   0  0  0  0  0  0  0  0  0  0  0  0
    7.6438   10.7861  -21.0792 H   0  0  0  0  0  0  0  0  0  0  0  0
    8.2406    9.3997  -22.0531 H   0  0  0  0  0  0  0  0  0  0  0  0
    4.7013   10.4631  -21.7969 H   0  0  0  0  0  0  0  0  0  0  0  0
    4.2259    9.3674  -20.4553 H   0  0  0  0  0  0  0  0  0  0  0  0
    5.3129   10.7611  -20.1345 H   0  0  0  0  0  0  0  0  0  0  0  0
    4.1256    2.4949  -21.4393 H   0  0  0  0  0  0  0  0  0  0  0  0
    3.3429    1.5150  -20.1533 H   0  0  0  0  0  0  0  0  0  0  0  0
    5.2920    3.9097  -17.0538 H   0  0  0  0  0  0  0  0  0  0  0  0
    6.0277    4.8320  -18.4083 H   0  0  0  0  0  0  0  0  0  0  0  0
    5.9851    3.0630  -19.9612 H   0  0  0  0  0  0  0  0  0  0  0  0
    3.3631    3.3279  -18.4045 H   0  0  0  0  0  0  0  0  0  0  0  0
    4.7612    1.2903  -17.8642 H   0  0  0  0  0  0  0  0  0  0  0  0
    3.5973    5.4579  -16.9163 H   0  0  0  0  0  0  0  0  0  0  0  0
    3.9840    6.1873  -18.3252 H   0  0  0  0  0  0  0  0  0  0  0  0
    3.2839    4.1325  -20.6000 H   0  0  0  0  0  0  0  0  0  0  0  0
  1  2  2  0  0  0  0
  1  3  1  0  0  0  0
  2  8  1  0  0  0  0
  3  9  2  0  0  0  0
  4  8  2  0  0  0  0
  4  9  1  0  0  0  0
  5 10  1  0  0  0  0
  5 11  2  0  0  0  0
  6 10  2  0  0  0  0
  6 12  1  0  0  0  0
  7 11  1  0  0  0  0
  7 12  2  0  0  0  0
  8 18  1  0  0  0  0
  9 27  1  0  0  0  0
 10 23  1  0  0  0  0
 11 33  1  0  0  0  0
 12 34  1  0  0  0  0
 13 19  1  0  0  0  0
 13 28  1  0  0  0  0
 13 30  2  0  0  0  0
 14 16  1  0  0  0  0
 14 18  1  0  0  0  0
 15 17  1  0  0  0  0
 15 18  1  0  0  0  0
 16 31  1  0  0  0  0
 17 31  1  0  0  0  0
 18 29  1  0  0  0  0
 20 27  1  0  0  0  0
 21 27  1  0  0  0  0
 22 27  1  0  0  0  0
 23 25  1  0  0  0  0
 24 26  1  0  0  0  0
 24 29  1  0  0  0  0
 25 26  1  0  0  0  0
 25 28  1  0  0  0  0
 26 32  1  0  0  0  0
  1 35  1  0  0  0  0
  2 36  1  0  0  0  0
  3 37  1  0  0  0  0
  4 38  1  0  0  0  0
  5 39  1  0  0  0  0
  6 40  1  0  0  0  0
  7 41  1  0  0  0  0
 14 42  1  0  0  0  0
 14 43  1  0  0  0  0
 15 44  1  0  0  0  0
 15 45  1  0  0  0  0
 16 46  1  0  0  0  0
 16 47  1  0  0  0  0
 17 48  1  0  0  0  0
 17 49  1  0  0  0  0
 19 50  1  0  0  0  0
 19 51  1  0  0  0  0
 19 52  1  0  0  0  0
 20 53  1  0  0  0  0
 20 54  1  0  0  0  0
 20 55  1  0  0  0  0
 21 56  1  0  0  0  0
 21 57  1  0  0  0  0
 21 58  1  0  0  0  0
 22 59  1  0  0  0  0
 22 60  1  0  0  0  0
 22 61  1  0  0  0  0
 23 62  1  0  0  0  0
 23 63  1  0  0  0  0
 24 64  1  0  0  0  0
 24 65  1  0  0  0  0
 25 66  1  0  0  0  0
 26 67  1  0  0  0  0
 28 68  1  0  0  0  0
 29 69  1  0  0  0  0
 29 70  1  0  0  0  0
 32 71  1  0  0  0  0
M  CHG  1  29   1
M  END
> <OMEGA_C>
sF8JQWgr8UCurpPBL8L0QEzj4UD6OYzBPIsCQW9GA0HP95zBdRW7QHe/+0CLmZfBOTnMQKiTTD8k
oqzBHAGTQEhGKL/uLKbB69/UQP+6z7/vP63BCGDIQB+450CJA47BA+PYQOBmBkHD9Z7BSjqjQAfh
Ij8bD6jBAyTlQKr1qL6TI6/BY7mrQP1+5L+q0ajB47vZQHNAtz8UnZDBXNOGQP6D+0C434LBJE+3
QCbuwEAqsnfBZT6cQHL3DEHsvHXBptPIQNLT4UDGemfBTbulQDjb1kBrOYbBW3riQO3Q0j7AzYfB
2he8QMz8/0CkcbHBe23rQDEKIEEXXq7BRDmhQKDFH0FN66bBCsmJQDwK7D9UkaTBf5eiQGw6kUCI
c4/Bh8iiQHdDKEBe+pvBz22HQBR0cEBkZZfBaMzIQLdrEUGFRKnBn4GvQJFq3D+GOZPBrzyLQNap
t0BPFIzBT633QOXHAkB7ppTBYhOpQBIKAUE2FmPBPQ90QHPjk0B92Z/BDmgGQaoDMb5wRLPBWR6c
QEiLQcAc+KbB0EEaQX507EC6RJLBMJn/QH6f0UDfGYXBtTcOQRwlCUE3n6LB5E+ZQNkR/kAfV5nB
knDYQOIg5T8NNa7BmThnQB5VSL9atKLB8fLnQH1bH8CjMq/BHFFUQPuC7UAQUH7ByPd6QDvbBkEc
CYrB/EDRQOHhqkCbKXzBHzmdQN7QrkAkG3DB/ou4QEFUFEFoLH3BoXuFQFeMGUGPDXHBLzHRQBRO
0UArg1jB7I7lQMgm8UDrKW7BXIgCQWoivD44NYbBiIXRQEj/NT8MeYDBMyTXQKMnFL9xYIrBHpCw
QJmfB0Hj1LjB8R3YQM/560CfRLPBt46iQA7r60ANDa7BQIXeQCuAJ0HDp7XB/Jn0QOGTLEEloqjB
ltkDQVllFkGubLDBA3GWQLVoJ0ENYK7BujqHQNfgFUFypKPB7QKqQFItLEF2E6HB7ASEQHasH0Ca
g6vBR/FVQPHqwT/tOaHBZlipQPY3ekA3bojBTOPAQAOgmkA2RJPBtIW/QHYHREB1sJ/BRTxXQMT7
VEBcPJPB9luYQJ0ppT/T6Y7BfjpmQAKnrkB+VIfBIfp+QEb+xUD/mZLBLStSQAw9hEDFzKTBdFsJ
QQo48UAI55PBGfH0QDTq4UBXZ4zBHWUCQfNiA0F5IZ3B/Oq6QJ1J/EAUl5fBYzaUQHL7J79qLabB
RgXNQCPcTj+ywKzB5PrVQKNwzr8GZK3BxIHIQGAE6ECWEI7BbI7YQK+mBkGGAZ/BYS6kQPTEIz8Y
G6jBv/usQNPw479D4qjBtADmQJepor6XUK/BmOLZQNeCtj/EmZDB0FWHQDCB+0DCu4LBFU+4QIEI
wUCo0XfBzTGdQPL7DEETnHXB7mfKQMHw4UBJwWfB3iamQGD31kDSN4bBzEPiQClTwz7v84fB0oi+
QHk7AEGQuLHBsCbqQLtdIUHH+K3BSzGfQN3kHkEyKKfBPZCKQAs17D+Ko6TBCU+jQHDUkUBiro/B
dFWjQO57KEDoBZzBEOCHQN6vcEAwd5fBtXLIQManEUHtTqnBrcSvQOSk3D/RQZPBko+LQCCmt0A5
B4zBD/f3QD9bA0AgbJTBXMeqQEUSAUFOE2PBsZlzQFaYk0D87Z/BvXidQNxsQcCAFqfB6LEGQQjh
Hr4OmbPB5kEaQRZj7EDdkJLB6Pr/QLtn0UArVYXB/fsNQW85CUEM1qLBXxeZQF/W/kDtPZnBKPdp
QCIbSb/on6LBFxLZQPl75j/OVq7Byx/pQDSLHsDcXq/Bd+xVQJBj7UBnzn3Bd+56QKrZBkHY2YnB
fg/SQFXqqkB4eXzBC2ueQMj+rkDxBHDBOy25QJZpFEGfR33BKn+GQJ6DGUHstnDBZlXTQEBr0UB1
3ljBbN/mQElM8UC7sm7BLmICQToNrD5oP4bBxODQQKFYKD+JoIDBUC7XQIA1Gr9Uv4rBfQGzQNbS
B0FhHrnBocjbQLke7kBOb7PBDcKlQFHO6kAHma7B/WbdQLzSKEEnR7XBx0/xQIbaLUHWCKjBBs8D
QTCMGEFX56/B9o6UQNuCJkGmoa7B99uFQOM8FEG8KqTBw/mlQOxLK0HiJaHBbdqEQCe7H0Aul6vB
7XJXQPS1wT+YVKHBe2mrQB9Ue0A7wojBu+HAQNERnECbtZPBKC3AQK03REAGsJ/B+s9YQMYjVUBd
LJPBknmYQFzvpT/L947BdSdoQKXvrUCiKofBoNd9QCQkxkAwbJLBw1xRQAimg0BTyKTB

> <OMEGA_E>
AObuPSDf7j0=

> <OMEGA_NBR>
     86961

$$$$
50168361
  -OEChem-04172616093D

 70 73  0     1  0  0  0  0  0999 V2000
    8.5258    7.5189  -18.5367 C   0  0  0  0  0  0  0  0  0  0  0  0
    8.0470    8.0072  -19.7672 C   0  0  0  0  0  0  0  0  0  0  0  0
    7.6242    7.0932  -17.5433 C   0  0  0  0  0  0  0  0  0  0  0  0
    5.7671    7.6638  -19.0053 C   0  0  0  0  0  0  0  0  0  0  0  0
    6.4196    0.7581  -21.5491 C   0  0  0  0  0  0  0  0  0  0  0  0
    4.5866   -0.6507  -20.7585 C   0  0  0  0  0  0  0  0  0  0  0  0
    6.6418   -1.6700  -21.5890 C   0  0  0  0  0  0  0  0  0  0  0  0
    6.6514    8.0506  -20.0152 C   0  0  0  0  0  0  0  0  0  0  0  0
    6.2270    7.1964  -17.7618 C   0  0  0  0  0  0  0  0  0  0  0  0
    5.1245    0.6296  -21.0008 C   0  0  0  0  0  0  0  0  0  0  0  0
    7.1810   -0.3909  -21.8318 C   0  0  0  0  0  0  0  0  0  0  0  0
    5.3423   -1.7987  -21.0586 C   0  0  0  0  0  0  0  0  0  0  0  0
    6.8042    1.4910  -18.0271 C   0  0  0  0  0  0  0  0  0  0  0  0
    6.9965    8.7736  -22.4553 C   0  0  0  0  0  0  0  0  0  0  0  0
    4.2179    7.8993  -16.3911 C   0  0  0  0  0  0  0  0  0  0  0  0
    5.7309    6.0930  -15.4445 C   0  0  0  0  0  0  0  0  0  0  0  0
    7.3827   10.2241  -22.1979 C   0  0  0  0  0  0  0  0  0  0  0  0
    4.9209    8.8943  -15.4606 C   0  0  0  0  0  0  0  0  0  0  0  0
    6.2812    7.1635  -14.4740 C   0  0  0  0  0  0  0  0  0  0  0  0
    5.3184    9.8614  -21.1394 C   0  0  0  0  0  0  0  0  0  0  0  0
    6.0178    8.4974  -21.3302 C   0  0  2  0  0  0  0  0  0  0  0  0
    5.1646    6.7208  -16.7565 C   0  0  0  0  0  0  0  0  0  0  0  0
    7.0551    0.4244  -16.9653 C   0  0  0  0  0  0  0  0  0  0  0  0
    4.3450    1.8609  -20.5979 C   0  0  0  0  0  0  0  0  0  0  0  0
    5.0854    4.5423  -17.9247 C   0  0  0  0  0  0  0  0  0  0  0  0
    5.1186    2.6492  -19.5200 C   0  0  1  0  0  0  0  0  0  0  0  0
    4.2637    3.7891  -18.9655 C   0  0  2  0  0  0  0  0  0  0  0  0
    5.4933    1.7477  -18.4129 N   0  0  0  0  0  0  0  0  0  0  0  0
    4.3299    5.7109  -17.4453 N   0  3  0  0  0  0  0  0  0  0  0  0
    7.7567    2.0020  -18.6069 O   0  0  0  0  0  0  0  0  0  0  0  0
    6.1674   10.8660  -21.7512 O   0  0  0  0  0  0  0  0  0  0  0  0
    5.3098    8.2065  -14.2569 O   0  0  0  0  0  0  0  0  0  0  0  0
    3.9025    4.6727  -20.0278 O   0  0  0  0  0  0  0  0  0  0  0  0
    8.4337   -0.2659  -22.3249 F   0  0  0  0  0  0  0  0  0  0  0  0
    4.8249   -3.0248  -20.8221 F   0  0  0  0  0  0  0  0  0  0  0  0
    9.5892    7.4708  -18.3543 H   0  0  0  0  0  0  0  0  0  0  0  0
    8.7413    8.3481  -20.5210 H   0  0  0  0  0  0  0  0  0  0  0  0
    7.9967    6.6877  -16.6141 H   0  0  0  0  0  0  0  0  0  0  0  0
    4.7038    7.7254  -19.1843 H   0  0  0  0  0  0  0  0  0  0  0  0
    6.8256    1.7382  -21.7515 H   0  0  0  0  0  0  0  0  0  0  0  0
    3.5948   -0.7502  -20.3426 H   0  0  0  0  0  0  0  0  0  0  0  0
    7.2245   -2.5521  -21.8095 H   0  0  0  0  0  0  0  0  0  0  0  0
    6.5170    8.6570  -23.4384 H   0  0  0  0  0  0  0  0  0  0  0  0
    7.8722    8.1108  -22.3936 H   0  0  0  0  0  0  0  0  0  0  0  0
    3.3255    7.5016  -15.8857 H   0  0  0  0  0  0  0  0  0  0  0  0
    3.9164    8.4186  -17.3127 H   0  0  0  0  0  0  0  0  0  0  0  0
    6.5444    5.4003  -15.7059 H   0  0  0  0  0  0  0  0  0  0  0  0
    4.9252    5.5389  -14.9407 H   0  0  0  0  0  0  0  0  0  0  0  0
    8.1590   10.2847  -21.4210 H   0  0  0  0  0  0  0  0  0  0  0  0
    7.7507   10.6951  -23.1214 H   0  0  0  0  0  0  0  0  0  0  0  0
    5.8133    9.3004  -15.9594 H   0  0  0  0  0  0  0  0  0  0  0  0
    4.2341    9.7166  -15.2114 H   0  0  0  0  0  0  0  0  0  0  0  0
    6.5211    6.6882  -13.5114 H   0  0  0  0  0  0  0  0  0  0  0  0
    7.1933    7.6041  -14.9028 H   0  0  0  0  0  0  0  0  0  0  0  0
    4.3331    9.8517  -21.6283 H   0  0  0  0  0  0  0  0  0  0  0  0
    5.1938   10.0747  -20.0675 H   0  0  0  0  0  0  0  0  0  0  0  0
    5.2784    7.7509  -21.6559 H   0  0  0  0  0  0  0  0  0  0  0  0
    8.1371    0.2539  -16.8646 H   0  0  0  0  0  0  0  0  0  0  0  0
    6.6461    0.7629  -16.0019 H   0  0  0  0  0  0  0  0  0  0  0  0
    6.5625   -0.5128  -17.2637 H   0  0  0  0  0  0  0  0  0  0  0  0
    4.1952    2.5013  -21.4796 H   0  0  0  0  0  0  0  0  0  0  0  0
    3.3676    1.5571  -20.1951 H   0  0  0  0  0  0  0  0  0  0  0  0
    5.3025    3.8749  -17.0777 H   0  0  0  0  0  0  0  0  0  0  0  0
    6.0296    4.8784  -18.3781 H   0  0  0  0  0  0  0  0  0  0  0  0
    6.0262    3.0727  -19.9750 H   0  0  0  0  0  0  0  0  0  0  0  0
    3.3664    3.3699  -18.4867 H   0  0  0  0  0  0  0  0  0  0  0  0
    4.7586    1.2934  -17.9090 H   0  0  0  0  0  0  0  0  0  0  0  0
    3.6290    5.3929  -16.8069 H   0  0  0  0  0  0  0  0  0  0  0  0
    3.8917    6.1471  -18.2312 H   0  0  0  0  0  0  0  0  0  0  0  0
    3.3909    4.1997  -20.6736 H   0  0  0  0  0  0  0  0  0  0  0  0
  1  2  1  0  0  0  0
  1  3  2  0  0  0  0
  2  8  2  0  0  0  0
  3  9  1  0  0  0  0
  4  8  1  0  0  0  0
  4  9  2  0  0  0  0
  5 10  1  0  0  0  0
  5 11  2  0  0  0  0
  6 10  2  0  0  0  0
  6 12  1  0  0  0  0
  7 11  1  0  0  0  0
  7 12  2  0  0  0  0
  8 21  1  0  0  0  0
  9 22  1  0  0  0  0
 10 24  1  0  0  0  0
 11 34  1  0  0  0  0
 12 35  1  0  0  0  0
 13 23  1  0  0  0  0
 13 28  1  0  0  0  0
 13 30  2  0  0  0  0
 14 17  1  0  0  0  0
 14 21  1  0  0  0  0
 15 18  1  0  0  0  0
 15 22  1  0  0  0  0
 16 19  1  0  0  0  0
 16 22  1  0  0  0  0
 17 31  1  0  0  0  0
 18 32  1  0  0  0  0
 19 32  1  0  0  0  0
 20 21  1  0  0  0  0
 20 31  1  0  0  0  0
 22 29  1  0  0  0  0
 24 26  1  0  0  0  0
 25 27  1  0  0  0  0
 25 29  1  0  0  0  0
 26 27  1  0  0  0  0
 26 28  1  0  0  0  0
 27 33  1  0  0  0  0
  1 36  1  0  0  0  0
  2 37  1  0  0  0  0
  3 38  1  0  0  0  0
  4 39  1  0  0  0  0
  5 40  1  0  0  0  0
  6 41  1  0  0  0  0
  7 42  1  0  0  0  0
 14 43  1  0  0  0  0
 14 44  1  0  0  0  0
 15 45  1  0  0  0  0
 15 46  1  0  0  0  0
 16 47  1  0  0  0  0
 16 48  1  0  0  0  0
 17 49  1  0  0  0  0
 17 50  1  0  0  0  0
 18 51  1  0  0  0  0
 18 52  1  0  0  0  0
 19 53  1  0  0  0  0
 19 54  1  0  0  0  0
 20 55  1  0  0  0  0
 20 56  1  0  0  0  0
 21 57  1  0  0  0  0
 23 58  1  0  0  0  0
 23 59  1  0  0  0  0
 23 60  1  0  0  0  0
 24 61  1  0  0  0  0
 24 62  1  0  0  0  0
 25 63  1  0  0  0  0
 25 64  1  0  0  0  0
 26 65  1  0  0  0  0
 27 66  1  0  0  0  0
 28 67  1  0  0  0  0
 29 68  1  0  0  0  0
 29 69  1  0  0  0  0
 33 70  1  0  0  0  0
M  CHG  1  29   1
M  END
> <OMEGA_C>
0mkIQTab8EA+S5TBm8AAQWodAEExI57BT/nzQHL74kCWWIzBNIy4QPE99UDiCpjBeG3NQMoTQj+d
ZKzBPcWSQM6UJr9SEabBW4nUQO3B1b9FtqzBjtjUQETPAEElH6DBw0PHQP9I5kAsGI7Bh/ujQH8w
IT+SAajB4crlQG8kyL59p67BwfOqQCs85r/8d6jBDbzZQDbYvj9/N5DBDePfQIxgDEFwpLPB9viG
QO3G/EAKIYPBPmO3QHj5wkDRHHfBRT/sQB6WI0FhlbHBFXidQC1PDkGkXnfBif/IQIw75UB2lWfB
XTCqQDLIHUGLHanBk5HAQH31B0E/pKrBAkSlQKkQ10BgDYbBFsPhQFtK2T4HuYfBYAqLQCIz7j9+
yKTBs7uiQDFakUDiZY/BxMujQC+NKUD9KJzBGXCIQKuAckBGuZfB9MivQGO03z+VTZPBbo6KQNq/
tkDjj4vB0Tb4QCYhAEDi2pTBD1vFQBXbLUFrAq7BjOmpQLNNA0EcHGTBH8J5QLmGlUDtOKDBb/AG
QVMqiL5/mbLBqGWaQGmWQcChk6bBd20ZQTQR70CW1ZLBTNwLQcORBUHwKqTB/uT/QAQC1kDG6YTB
yYWWQFE290B0eZnBOGvaQGB+3j8SA67BqxFmQB4OQL+ovaLBbS/nQOpVI8DNea7BLYvQQECDCkHe
gbvBNun7QOHFAUESJrPBWtVUQLsM8EC3K37B36V6QL+yBkF9gIrBz2vRQOnOrEBoS3vBOZudQGQ+
sUDyDG/Bc4sCQfONJEEsXqvB2gX4QP8eK0Gs+LjBUga6QFDOFEHOWX/BbH2HQEB3G0EDYnPBy6zQ
QAgG1kC/LljB7C/mQIBU80DscW7BdKiKQISgHUHJBq3BsDOmQB0yIUFOiqDB3uioQJcH+EBVP63B
iDECQer+gT7A6obB4azUQDtPQz/6A4DBTwDSQERIA78mHIrBKj+GQNMVIEBH1qvBKoZXQFRPxz99
j6HBUq6pQLb9d0Axn4jBefLAQAocnEBNBpPBbdbAQIqnREDNzJ/B+nJXQBqtV0Dc5JPBzEaYQIaM
pT+qRY/B20BoQE2SrEB5dIbBdhF5QBq1xECG2ZHB2gRZQN1jhkCPY6XBC2sLQUMj8EBUQJLBUUcG
QWmXAEGCSpzBRlL2QK/K4kAvQ4vBPJXAQFm5+EAFS5jB90/MQPOITD8haKzB1dyTQBvBLr9k46XB
NcXVQEQ4z79tL63B5pzhQFk4AkEsjJ/Bcp/KQNmj50C2DY7BRJijQCUVHj+auKfBUoXlQOJPo769
Ca/BENGsQMZL5r9Er6jB9B7bQHZPwD/sP5DBOYXRQE/OIkEtmKrBsWWHQAZV/UB8qoPBv3G1QJ2e
wUA+/nfBdZ6hQIp7JEHnS6jBY+WaQDVODUF6MXbBKjLFQE/f4UCKBmfBSX2vQHCAAkH00K/BlvjY
QLbZCkFCzqrBjhemQLYH2EC2kobB4BflQGBf2j6p9IfBP7OJQDb15z88LqTBF/6iQEYkkkCsrY/B
y9+iQIPEJ0DIxpvBOFiHQFnlb0BzQJfBmZiwQIBD3j/r9JLBusyLQPsBuUB5i4zBNJf4QOrOAkAF
EpXBk/ONQANJEUFPqqzB1fqkQLryAEG0YmPB5SJxQOaKkkDqxp/BLnYGQSzfE74gSLPBuoKdQKPg
QsAt+6bBW/gbQW9A7UCI4I/Bt+ESQW3xBUHNj6HBirL+QFKm1ECAqYPBTISfQGPY/EC5lZrBYRXY
QG7R5T/e963BRFZpQL9TUr/NVqLBTxfpQDSSHsANN6/BaonZQH4eKkEEWLLBWWrkQJ93KkH4O6TB
DXBSQMHw70BZnYDBgfWAQMwmCEHU5orB+NXPQGWsq0AY5XvBqY6aQLFRr0AkQ3HBdAScQPxfJUG/
np/BvEGUQGvLMkHFLazBMku4QJutFEFQd3zBxcqDQCTnGUH6/nHB8sPLQDrd0EB5+FfBCq7iQINa
8UBcumzBAWiyQOoSAkFWlbjBIlioQJ+u5EDE0qzBAi70QDQVB0G0D7DBifYDQam1jz6ddYfBiczY
QEi3PT9yGoDBZ7vVQEqTBL8vU4rBSPSCQIjrHEBVI6vBP8NWQNzduz/7qKDB9FWqQFInfkAng4jB
YPfAQEMKm0B7uJPBgDO/QKnLQ0C+pp/BjX9YQJVhVEB2z5LBKuyZQJWCoz8/q47BGRhmQHV8sECm
8YfB0vaAQORGx0BbLJPBsJpOQDgmgkCtgKTBw1gKQSAG60Czc5PBgzsEQRCKAUHjc5zBUpL1QNaP
3EBzI4zBUtq9QMc3+0CXSZfBheXMQAfpST+bYazBDmSUQA4tLr9mt6XB2YHWQGCl0L8HyqzBrNTc
QO+4BUHbXJ7BE57JQACk5UCF4Y3B4xSkQGbhHT+XuqfBJDnmQDzjqr5+z67BmnmtQFCv5r+TUKjB
T4/aQNwKvz/lYJDBq3agQAz5F0EmwajBp/aGQNHm/ECmaIPB31O1QMzPwkDvJXfBE/CfQKXrJEEo
/7LBCxudQBhxDkFj4XfB4d/HQLgM5UCJ5GfBR7rgQOqjEUGc5bHBNDXQQA0iFkGkrqbBiHKlQDEN
10BGRYbB4ozjQFMK4T7W1ofBvyeKQAAD6T+qXqTBG6WiQKLgkUB9qY/BQxCjQCXCKECe9pvBRm+H
QEkFcUAyg5fBRT2wQKZG4T8ADpPB9OyKQPK+t0D4E4zB+2/4QMAr/T+Wa5XBYcbGQFAnH0G2wbjB
/lGpQMqEA0E9iGTBBo9zQBevk0ABCqDBKtgGQV6+Kr5BCbPBhzSeQFDmQsArd6bB0wQbQcWb40Cu
I5LBcTwQQeiOB0H+46HBmzT/QGl+ykCfLYXBNFicQLpt/0BHH5nBI6nYQJEW5D/XEq7BcEdqQCMY
UL/QLqLB8unpQL+AH8Blq67BuxqQQLtwIEGSNqLBwbGRQOYoCEFO5KnBUZlUQCwr8EAq1H7BXQx7
QA+4BkFnz4rB/VrOQDIeq0BSunrBBT+aQM7ZskCAOm/BS4WDQGXpIEGZybfBiNSfQB0jNkGZK7HB
0L65QAP3FEGTw3/B5viGQFOSG0FUBXTB44XPQFAT1kA5bljByTLlQIl38kDI8m7Bk2IBQenoFUHE
kbLBNXTcQGSrAEFA+LPBUTfcQBLfJUHIIaTBqhgDQTZLgT6AZYfBowjYQHbzTD+TCoDBweXSQO/v
/L6U64nBq9SDQHrmHEDGZqvB6D5XQOMQvj/q6KDBWGGqQApfe0DXt4jBhmzAQEj+m0BDnZPBk5K/
QGOCREAZyZ/BN4NXQFKeVUBSSpPBHUWZQKZiqj+hqo7BladmQOkmrkB8PIfBqOF8QNErxkA1gJLB
n5xRQHO3g0Bo66TBsJ8IQU6T7UCvt5TBEM4BQcc2BEE3DZ3B+LjzQEAS3kDxLY3B6XK6QBmgAUGe
hJbBeqDMQFkIOz/IfazBAWCSQHJ4Lb8M7aXBxQ3UQKcr2b/LoKzBy+vXQDELCkG6553BgsfHQH4Z
6UCt7o3BRlujQD4rGj/1AajBuhLlQHzl1b4nta7BO6CqQFup6b94SajBzoDZQB6Psz8InZDBrSOn
QJNvDkHNrq3BcQWGQMhM+kDGaILBBnK4QDpywUDA33fBXGDEQK9QAkHscbXBtZicQHcXDUE/7nXB
ghHMQAgd40BaqmjB6H7oQOdSIEH6u67BwiLHQCCmGUGCa6bB256lQJDk1kBbNYbByj3hQOMtwz5U
wYfBDY+KQLzS6j8kwqTBr+mjQFz7kUBU3o/Bk5qjQAS1J0DqKZzBE4qIQADYcEBprJfBPJCvQO+n
2z9bVJPBqrKLQI96t0AIKozB0fH3QGIeAEDwiZTB+wLtQKrHDUF3l7XBIdisQAXKAUHVh2PBw+h1
QKaek0AoMaDBuoIGQdZjlb6rvLLBQVKaQHhFQ8DAPqbBjkoZQU3M5EAmGZTBETsNQXMcCkHm0qLB
eY3+QNWbyUDDw4bB0NqYQMc+BUEGb5fBfmzZQFzr2j8VOK7BpoplQDjdRr9mhaLB1cLmQHMGJcB/
XK7BI+6SQJQOGkF98bHBD7ySQM9bA0HmIKnBcppWQHBG60DlKnzBNzlzQP7CBUHLbYnBK3bRQPGN
qkClmHzBuK+eQMVhsEBtcW/BtjfJQOKX40DNqLLB4zK2QCwYAkG3f73BxkG3QMu9FEGygX7BzLOF
QMtlGUH6tHDBSonWQJ1H00Dw11nBOcLnQDMt8kB1f3DBAkPdQIY6LkEnV7PBNY4DQTY5JEGa2qrB
PKK4QBXJJ0E/oqLBWtkBQUxupT5zBIbBRO/PQDZcMD+af4DB5KjVQGPoGr+yXIrBzqmFQOdsHkAm
zqvBKadWQOo6xD95fqHB10ysQPiEe0BB+ojBi1XBQK+cnEAk55PB+aXAQByFQkDr1Z/BEpxZQE8b
VkBuaJPBuQiYQP7Ipj/jB4/BskFoQKpSrUDBYofBoVB+QLUYxkCNjZLBAcRTQD+3g0BiEKXB

> <OMEGA_E>
7JS8PvhEvT40esU+6HK2Pg==

> <OMEGA_NBR>
     91694

$$$$
50167990
  -OEChem-04172616093D

 64 66  0     1  0  0  0  0  0999 V2000
    8.5378    7.4483  -18.5012 C   0  0  0  0  0  0  0  0  0  0  0  0
    7.5978    7.0395  -17.5412 C   0  0  0  0  0  0  0  0  0  0  0  0
    8.1136    8.0937  -19.6784 C   0  0  0  0  0  0  0  0  0  0  0  0
    5.8007    7.9107  -18.9436 C   0  0  0  0  0  0  0  0  0  0  0  0
    6.4460    0.8350  -21.6019 C   0  0  0  0  0  0  0  0  0  0  0  0
    4.6537   -0.6379  -20.8366 C   0  0  0  0  0  0  0  0  0  0  0  0
    6.7237   -1.5866  -21.7148 C   0  0  0  0  0  0  0  0  0  0  0  0
    6.2262    7.2742  -17.7625 C   0  0  0  0  0  0  0  0  0  0  0  0
    6.7379    8.3610  -19.9036 C   0  0  0  0  0  0  0  0  0  0  0  0
    5.1596    0.6633  -21.0431 C   0  0  0  0  0  0  0  0  0  0  0  0
    7.2298   -0.2891  -21.9276 C   0  0  0  0  0  0  0  0  0  0  0  0
    5.4333   -1.7604  -21.1762 C   0  0  0  0  0  0  0  0  0  0  0  0
    6.7931    1.3804  -18.1125 C   0  0  0  0  0  0  0  0  0  0  0  0
    4.5514    7.7546  -15.8306 C   0  0  0  0  0  0  0  0  0  0  0  0
    5.4859    6.6441  -15.3034 C   0  0  0  0  0  0  0  0  0  0  0  0
    5.1800    6.7576  -16.8021 C   0  0  0  0  0  0  0  0  0  0  0  0
    7.0453    0.3235  -17.0422 C   0  0  0  0  0  0  0  0  0  0  0  0
    5.9927    7.9162  -22.2610 C   0  0  0  0  0  0  0  0  0  0  0  0
    7.3159   10.0102  -21.7809 C   0  0  0  0  0  0  0  0  0  0  0  0
    4.9501    9.8354  -21.0004 C   0  0  0  0  0  0  0  0  0  0  0  0
    4.3524    1.8699  -20.5990 C   0  0  0  0  0  0  0  0  0  0  0  0
    5.0249    4.5366  -17.8401 C   0  0  0  0  0  0  0  0  0  0  0  0
    5.1023    2.6515  -19.4921 C   0  0  1  0  0  0  0  0  0  0  0  0
    4.2309    3.7785  -18.9144 C   0  0  2  0  0  0  0  0  0  0  0  0
    6.2580    9.0227  -21.2154 C   0  0  0  0  0  0  0  0  0  0  0  0
    5.4802    1.7253  -18.4105 N   0  0  0  0  0  0  0  0  0  0  0  0
    4.2967    5.7473  -17.4100 N   0  3  0  0  0  0  0  0  0  0  0  0
    7.7426    1.9737  -18.6139 O   0  0  0  0  0  0  0  0  0  0  0  0
    3.8829    4.6732  -19.9707 O   0  0  0  0  0  0  0  0  0  0  0  0
    8.4727   -0.1234  -22.4340 F   0  0  0  0  0  0  0  0  0  0  0  0
    4.9487   -3.0058  -20.9710 F   0  0  0  0  0  0  0  0  0  0  0  0
    9.5896    7.2671  -18.3358 H   0  0  0  0  0  0  0  0  0  0  0  0
    7.9248    6.5474  -16.6372 H   0  0  0  0  0  0  0  0  0  0  0  0
    8.8430    8.3885  -20.4182 H   0  0  0  0  0  0  0  0  0  0  0  0
    4.7453    8.0573  -19.1196 H   0  0  0  0  0  0  0  0  0  0  0  0
    6.8288    1.8292  -21.7793 H   0  0  0  0  0  0  0  0  0  0  0  0
    3.6675   -0.7730  -20.4175 H   0  0  0  0  0  0  0  0  0  0  0  0
    7.3250   -2.4483  -21.9645 H   0  0  0  0  0  0  0  0  0  0  0  0
    3.4726    7.7119  -15.6198 H   0  0  0  0  0  0  0  0  0  0  0  0
    4.8848    8.8028  -15.8254 H   0  0  0  0  0  0  0  0  0  0  0  0
    6.4864    6.8995  -14.9240 H   0  0  0  0  0  0  0  0  0  0  0  0
    5.0742    5.8086  -14.7184 H   0  0  0  0  0  0  0  0  0  0  0  0
    8.1264    0.2376  -16.8585 H   0  0  0  0  0  0  0  0  0  0  0  0
    6.5375    0.6161  -16.1113 H   0  0  0  0  0  0  0  0  0  0  0  0
    6.6535   -0.6456  -17.3846 H   0  0  0  0  0  0  0  0  0  0  0  0
    5.6500    8.3737  -23.2008 H   0  0  0  0  0  0  0  0  0  0  0  0
    6.9206    7.3545  -22.4437 H   0  0  0  0  0  0  0  0  0  0  0  0
    5.2186    7.2324  -21.8826 H   0  0  0  0  0  0  0  0  0  0  0  0
    6.9385   10.4592  -22.7115 H   0  0  0  0  0  0  0  0  0  0  0  0
    7.5084   10.8031  -21.0432 H   0  0  0  0  0  0  0  0  0  0  0  0
    8.2500    9.4676  -21.9882 H   0  0  0  0  0  0  0  0  0  0  0  0
    4.6399   10.2905  -21.9526 H   0  0  0  0  0  0  0  0  0  0  0  0
    4.1569    9.1645  -20.6391 H   0  0  0  0  0  0  0  0  0  0  0  0
    5.1282   10.6264  -20.2570 H   0  0  0  0  0  0  0  0  0  0  0  0
    4.1888    2.5326  -21.4616 H   0  0  0  0  0  0  0  0  0  0  0  0
    3.3818    1.5311  -20.2076 H   0  0  0  0  0  0  0  0  0  0  0  0
    5.1765    3.8787  -16.9716 H   0  0  0  0  0  0  0  0  0  0  0  0
    6.0015    4.8300  -18.2527 H   0  0  0  0  0  0  0  0  0  0  0  0
    6.0086    3.0955  -19.9298 H   0  0  0  0  0  0  0  0  0  0  0  0
    3.3294    3.3426  -18.4591 H   0  0  0  0  0  0  0  0  0  0  0  0
    4.7502    1.3215  -17.8592 H   0  0  0  0  0  0  0  0  0  0  0  0
    3.6044    5.4825  -16.7387 H   0  0  0  0  0  0  0  0  0  0  0  0
    3.8497    6.1519  -18.2079 H   0  0  0  0  0  0  0  0  0  0  0  0
    3.3919    4.2039  -20.6349 H   0  0  0  0  0  0  0  0  0  0  0  0
  1  2  2  0  0  0  0
  1  3  1  0  0  0  0
  2  8  1  0  0  0  0
  3  9  2  0  0  0  0
  4  8  2  0  0  0  0
  4  9  1  0  0  0  0
  5 10  1  0  0  0  0
  5 11  2  0  0  0  0
  6 10  2  0  0  0  0
  6 12  1  0  0  0  0
  7 11  1  0  0  0  0
  7 12  2  0  0  0  0
  8 16  1  0  0  0  0
  9 25  1  0  0  0  0
 10 21  1  0  0  0  0
 11 30  1  0  0  0  0
 12 31  1  0  0  0  0
 13 17  1  0  0  0  0
 13 26  1  0  0  0  0
 13 28  2  0  0  0  0
 14 15  1  0  0  0  0
 14 16  1  0  0  0  0
 15 16  1  0  0  0  0
 16 27  1  0  0  0  0
 18 25  1  0  0  0  0
 19 25  1  0  0  0  0
 20 25  1  0  0  0  0
 21 23  1  0  0  0  0
 22 24  1  0  0  0  0
 22 27  1  0  0  0  0
 23 24  1  0  0  0  0
 23 26  1  0  0  0  0
 24 29  1  0  0  0  0
  1 32  1  0  0  0  0
  2 33  1  0  0  0  0
  3 34  1  0  0  0  0
  4 35  1  0  0  0  0
  5 36  1  0  0  0  0
  6 37  1  0  0  0  0
  7 38  1  0  0  0  0
 14 39  1  0  0  0  0
 14 40  1  0  0  0  0
 15 41  1  0  0  0  0
 15 42  1  0  0  0  0
 17 43  1  0  0  0  0
 17 44  1  0  0  0  0
 17 45  1  0  0  0  0
 18 46  1  0  0  0  0
 18 47  1  0  0  0  0
 18 48  1  0  0  0  0
 19 49  1  0  0  0  0
 19 50  1  0  0  0  0
 19 51  1  0  0  0  0
 20 52  1  0  0  0  0
 20 53  1  0  0  0  0
 20 54  1  0  0  0  0
 21 55  1  0  0  0  0
 21 56  1  0  0  0  0
 22 57  1  0  0  0  0
 22 58  1  0  0  0  0
 23 59  1  0  0  0  0
 24 60  1  0  0  0  0
 26 61  1  0  0  0  0
 27 62  1  0  0  0  0
 27 63  1  0  0  0  0
 29 64  1  0  0  0  0
M  CHG  1  27   1
M  END
> <OMEGA_C>
xpoIQbZY7kBdApTBRiHzQOlD4UBZVIzBMNEBQZ9/AUFHbZ3Btp+5QEkk/UCFjJfBzUXOQODAVT+k
0KzB1eqUQO1NI79QsabBryjXQCAWy7/rt63ByDzHQBrG6ECxGY7BKZ3XQJDGBUF+Op/BcRulQNrQ
KT9cWKjBOlrnQOH/k77Ta6/B5N2tQCVV4b/1aKnBamHZQAGysD9d5pDBraSRQKIl+EA3Sn3B4Iyv
QICc1EDt2nTBvMKlQGI+2EDDaobBC3PhQBSlpT5iVojBFcS/QI9R/UCFFrLBiBvqQNspIEFIP67B
nGeeQPpdHUG/AKjBHkeLQDVa7z+qyqTB7sugQKIrkUCPuI7BJkajQKqyKUDm75vBpWOHQILTcUCc
UJfBpUHIQAhdEEEQuanBKV6vQN/V3D/NSJPBQH6JQOfpt0C7R4vBRMP3QE2h/D8v6ZTBGIJ4QNCK
lUD8w5/BAJAHQUnJ/L3QeLPBbVueQOpeQMCExKfB0W4ZQeWL6EDKr5LBW5j9QJOE0UDjGIXB2nwN
QXw3BkGGWKPBmtmXQNLqAEHX9JjBL4XaQCIi6j8XPK7B9LdqQPPhRb8iV6PBs2bqQIGwHMBTt6/B
2T5eQCTI9kC26nnBNVCcQGHYDEELNX3BTJDPQF3I3EDUyG7Bg1+iQMDfuUB+fmvB6AUCQXpGcz4/
3obBJzPRQNG5HT/z44DBVenUQJFHJb+dE4vBHc20QKP6BUFQm7nBwHXdQORX60DGjLPBqv6mQKhv
50CmD6/BcgjeQN5YJ0EusbXB/0TwQJjZLEFxWKjB2f8DQR97F0HV56/B3nmUQMWlJEHZnq/BEQWF
QMGhEkHTHKXB2xmkQNQFKkE8DqLBDAuGQGYWIkBLsavBB3BYQCX8wz8sqaHBkKWlQCg9eEDmxYfB
9QvAQJiPmkB7BZLBGEbAQHgdRkBIcJ/BOhVVQG/sVUBNrJPBOwGYQN4nqT+0347BWq5mQD5wr0Dz
6IXB7WF2QF3cxEC2qZHBkxRZQIaGhkA9FKXBaugIQTvO7kDS9JPB1pzzQBmA4UARVYzBpDECQU3J
AUFBXp3BCju6QFUL/UCWo5fB9nDPQMRRWj8WvKzBFcyVQGT3H7/T3KbBHWTYQOixyL9uuq3BLbnH
QO/a6EBWJ47B31fYQD/cBUHPQZ/BDw2mQAx8LT/0Z6jBnanoQN6yib6sUK/B7+GuQDhj378Dj6nB
4R/ZQDMxtz9LbJDBKCKSQPhO+EBGYH3BfvKvQCWv1ECq9XTBpCqmQFBk2EB1eIbBFLPgQI1xkj6A
lojB8qXrQOyUH0H+gq7B50KgQG48HkGX3qfBfbK+QLub/UAO/bHBTPyLQF7b8D/y5qTBIVChQMmy
kUBl647BFoqjQEBNKkD29pvBvl6HQDPMcUDATJfBqArJQG19EEE6vqnBGkWvQOGE3T8zT5PB+tyJ
QI0RuEC1UIvBmMP3QBqh+j804ZTBj4B1QCsXlUAOtp/BrlQIQeHAy73lNrPBCUefQIF6P8C5CKjB
9boZQeEV6UAOmJLBWfv9QKaw0UCXGYXBtOwNQfm0BkE8N6PBJ3aYQMqxAEEcH5nB1MDbQI6P7D/4
EK7BLCtsQBs6Q78vnKPBwrzrQKFjG8BHta/BMzhfQOAF90DTAHrBYuOcQI7pDEFTRn3BBfvPQDDD
3EBV4m7BvbOiQPT1uUDVnGvBk5oBQTFEpj2gA4jBJ1PUQOXFED+rqIDBwATQQMxcHb9DcIvBYIvf
QCXOJkGo8bXB9R/zQLpILEHitqjBrmQEQTFXFkFBQLDBPDiWQNaPJUGId6/BzWSGQCr+E0EzzqTB
YE+nQFvhKkHdAaLBUsKzQMIvBkGMfrnBHZ3bQJqC6kBIiLPBjlulQJXA6ECLzq7BAQiHQKv5IkCN
zavBb5tZQCUmxT8g3qHBN1qnQLeaeUAvAIjBB/2/QK+Tm0CRdZLBpqLAQAodR0BPXZ/BBWFWQIEW
VUCvb5PBkZ6XQEWxpD+kQY/BuiBoQO01r0C85IXBSj92QKolxUBXnpHB2mdVQIymhUBx4qTBUGgI
QbKo7kBGFpTBVejyQFOH4UDbXozBOYEBQVWOAUGigp3B9hi5QJbM/ED9lZfBfszNQJzIWj/CzazB
RfqUQC9RI78crabB70/XQLQPyL9d263BOPLGQP276EAFHo7Ba+nWQCCrBUG8Sp/BPcakQMIuKz/Q
S6jB+yPnQGr1hL5Sfq/B6S6uQEwy4L9KfKnB7u3YQEkVrj8p25DBtaqRQJ1J+EBSOH3BuaqvQJPV
1EAXyXTBy6alQBpF2EDLX4bB4u3gQIaxlj5MW4jBy7edQGRnHUGS9qfBtCu+QFD0/ECzErLBvjHp
QHPUH0GXba7BqMyKQPj47j+gpqTBEpOgQD8JkUCUlo7BZQejQPV8KUD21JvBvXyHQB+NckBqUpfB
+0jHQJA3EEF/xanBUveuQCmo3D8cJJPBllGJQEHXt0BSK4vBwWf3QCwn+T/G4pTB/nJ7QNkxlkBv
0p/BLGwHQdhOoL2VirPBbCWfQLknQMCn1afBWUIZQUsM6UDEyZLBF479QKD50UDwIIXBVB0NQQ5T
BkHxcqPBWEaXQOeTAEHY/JjBhb3ZQPw17T9KMK7BphZrQE61SL/QR6PB97PqQMa7GsDy86/Br1te
QDXv9kBTw3nBllKcQADrDEGdOn3BrrvPQGAR3UBpzm7B8JaiQJYqukAfV2vBHcUBQUYISj4c9IbB
4frQQMUIFj/33YDBswbUQDVLK79eHovBPJCTQD2oJEGQka/BbUuEQMHLEkFd+qTB7OGjQJQWKkF7
D6LBkwKzQDDGBUFLlLnB8KjbQAy46kB0l7PB3lqlQHdS50A69a7B9encQNv8JkGw27XBetLvQNGM
LEGHk6jBC28DQdUBF0EwJbDBriSFQDIKIkBphKvBhOJXQFqQwj/2c6HBTtekQId5d0DiqYfBpxfA
QBNKmkA5wJHBjSfAQAsfRUCzXZ/BzhZUQGbCV0D02ZPBHJaXQEwmqz/Ao47B0oNmQEV2r0AgxIXB
uNB1QIWpxEBvjZHB3WZcQHGKh0CdO6XB

> <OMEGA_E>
WBNKPrC/TD7gtE8+

> <OMEGA_NBR>
     95091

$$$$
50168372
  -OEChem-04172616093D

 64 66  0     1  0  0  0  0  0999 V2000
    8.4967    7.4471  -18.6915 C   0  0  0  0  0  0  0  0  0  0  0  0
    7.5985    7.0284  -17.6965 C   0  0  0  0  0  0  0  0  0  0  0  0
    8.0196    8.0712  -19.8597 C   0  0  0  0  0  0  0  0  0  0  0  0
    5.7359    7.8295  -19.0541 C   0  0  0  0  0  0  0  0  0  0  0  0
    6.3929    0.7961  -21.6449 C   0  0  0  0  0  0  0  0  0  0  0  0
    4.6488   -0.6910  -20.7993 C   0  0  0  0  0  0  0  0  0  0  0  0
    6.7004   -1.6228  -21.7369 C   0  0  0  0  0  0  0  0  0  0  0  0
    6.2150    7.2276  -17.8752 C   0  0  0  0  0  0  0  0  0  0  0  0
    6.6305    8.2957  -20.0466 C   0  0  0  0  0  0  0  0  0  0  0  0
    5.1268    0.6139  -21.0449 C   0  0  0  0  0  0  0  0  0  0  0  0
    7.1809   -0.3213  -21.9828 C   0  0  0  0  0  0  0  0  0  0  0  0
    5.4324   -1.8070  -21.1505 C   0  0  0  0  0  0  0  0  0  0  0  0
    6.8189    1.4143  -18.0941 C   0  0  0  0  0  0  0  0  0  0  0  0
    4.6166    7.7283  -15.8840 C   0  0  0  0  0  0  0  0  0  0  0  0
    5.5808    6.6345  -15.3759 C   0  0  0  0  0  0  0  0  0  0  0  0
    5.2140    6.7194  -16.8629 C   0  0  0  0  0  0  0  0  0  0  0  0
    7.1261    0.3159  -17.0819 C   0  0  0  0  0  0  0  0  0  0  0  0
    7.1241    9.9239  -21.9769 C   0  0  0  0  0  0  0  0  0  0  0  0
    4.3189    1.8149  -20.5890 C   0  0  0  0  0  0  0  0  0  0  0  0
    5.0313    4.4747  -17.8367 C   0  0  0  0  0  0  0  0  0  0  0  0
    4.7948    9.7658  -21.0820 C   0  0  0  0  0  0  0  0  0  0  0  0
    5.7426    7.8312  -22.3652 C   0  0  0  0  0  0  0  0  0  0  0  0
    5.0834    2.5952  -19.4927 C   0  0  1  0  0  0  0  0  0  0  0  0
    4.2174    3.7122  -18.8914 C   0  0  2  0  0  0  0  0  0  0  0  0
    6.0905    8.9442  -21.3455 C   0  0  0  0  0  0  0  0  0  0  0  0
    5.4936    1.6615  -18.4296 N   0  0  0  0  0  0  0  0  0  0  0  0
    4.3147    5.6934  -17.4139 N   0  3  0  0  0  0  0  0  0  0  0  0
    7.7279    2.1242  -18.5114 O   0  0  0  0  0  0  0  0  0  0  0  0
    3.8374    4.6054  -19.9381 O   0  0  0  0  0  0  0  0  0  0  0  0
    8.4042   -0.1452  -22.5315 F   0  0  0  0  0  0  0  0  0  0  0  0
    4.9728   -3.0560  -20.9120 F   0  0  0  0  0  0  0  0  0  0  0  0
    4.9900   10.6775  -20.0916 F   0  0  0  0  0  0  0  0  0  0  0  0
    6.8353    7.0802  -22.6661 F   0  0  0  0  0  0  0  0  0  0  0  0
    9.5570    7.2897  -18.5601 H   0  0  0  0  0  0  0  0  0  0  0  0
    7.9665    6.5557  -16.7979 H   0  0  0  0  0  0  0  0  0  0  0  0
    8.7183    8.3826  -20.6221 H   0  0  0  0  0  0  0  0  0  0  0  0
    4.6717    7.9369  -19.2031 H   0  0  0  0  0  0  0  0  0  0  0  0
    6.7568    1.7932  -21.8446 H   0  0  0  0  0  0  0  0  0  0  0  0
    3.6811   -0.8338  -20.3416 H   0  0  0  0  0  0  0  0  0  0  0  0
    7.3040   -2.4794  -21.9980 H   0  0  0  0  0  0  0  0  0  0  0  0
    3.5476    7.6811  -15.6292 H   0  0  0  0  0  0  0  0  0  0  0  0
    4.9412    8.7790  -15.9103 H   0  0  0  0  0  0  0  0  0  0  0  0
    6.5935    6.9042  -15.0415 H   0  0  0  0  0  0  0  0  0  0  0  0
    5.1998    5.8063  -14.7604 H   0  0  0  0  0  0  0  0  0  0  0  0
    8.2021    0.3177  -16.8533 H   0  0  0  0  0  0  0  0  0  0  0  0
    6.5551    0.4974  -16.1594 H   0  0  0  0  0  0  0  0  0  0  0  0
    6.8425   -0.6601  -17.5026 H   0  0  0  0  0  0  0  0  0  0  0  0
    6.7027   10.3613  -22.8940 H   0  0  0  0  0  0  0  0  0  0  0  0
    7.3539   10.7262  -21.2603 H   0  0  0  0  0  0  0  0  0  0  0  0
    8.0460    9.3761  -22.2221 H   0  0  0  0  0  0  0  0  0  0  0  0
    4.1397    2.4783  -21.4479 H   0  0  0  0  0  0  0  0  0  0  0  0
    3.3557    1.4710  -20.1840 H   0  0  0  0  0  0  0  0  0  0  0  0
    5.1894    3.8259  -16.9625 H   0  0  0  0  0  0  0  0  0  0  0  0
    6.0046    4.7569  -18.2646 H   0  0  0  0  0  0  0  0  0  0  0  0
    4.5086   10.2922  -22.0045 H   0  0  0  0  0  0  0  0  0  0  0  0
    3.9876    9.0798  -20.7857 H   0  0  0  0  0  0  0  0  0  0  0  0
    4.9674    7.1801  -21.9349 H   0  0  0  0  0  0  0  0  0  0  0  0
    5.3616    8.2954  -23.2868 H   0  0  0  0  0  0  0  0  0  0  0  0
    5.9768    3.0490  -19.9465 H   0  0  0  0  0  0  0  0  0  0  0  0
    3.3308    3.2681  -18.4153 H   0  0  0  0  0  0  0  0  0  0  0  0
    4.7794    1.1795  -17.9221 H   0  0  0  0  0  0  0  0  0  0  0  0
    3.6461    5.4444  -16.7132 H   0  0  0  0  0  0  0  0  0  0  0  0
    3.8401    6.0764  -18.2064 H   0  0  0  0  0  0  0  0  0  0  0  0
    3.3337    4.1332  -20.5907 H   0  0  0  0  0  0  0  0  0  0  0  0
  1  2  2  0  0  0  0
  1  3  1  0  0  0  0
  2  8  1  0  0  0  0
  3  9  2  0  0  0  0
  4  8  2  0  0  0  0
  4  9  1  0  0  0  0
  5 10  1  0  0  0  0
  5 11  2  0  0  0  0
  6 10  2  0  0  0  0
  6 12  1  0  0  0  0
  7 11  1  0  0  0  0
  7 12  2  0  0  0  0
  8 16  1  0  0  0  0
  9 25  1  0  0  0  0
 10 19  1  0  0  0  0
 11 30  1  0  0  0  0
 12 31  1  0  0  0  0
 13 17  1  0  0  0  0
 13 26  1  0  0  0  0
 13 28  2  0  0  0  0
 14 15  1  0  0  0  0
 14 16  1  0  0  0  0
 15 16  1  0  0  0  0
 16 27  1  0  0  0  0
 18 25  1  0  0  0  0
 19 23  1  0  0  0  0
 20 24  1  0  0  0  0
 20 27  1  0  0  0  0
 21 25  1  0  0  0  0
 21 32  1  0  0  0  0
 22 25  1  0  0  0  0
 22 33  1  0  0  0  0
 23 24  1  0  0  0  0
 23 26  1  0  0  0  0
 24 29  1  0  0  0  0
  1 34  1  0  0  0  0
  2 35  1  0  0  0  0
  3 36  1  0  0  0  0
  4 37  1  0  0  0  0
  5 38  1  0  0  0  0
  6 39  1  0  0  0  0
  7 40  1  0  0  0  0
 14 41  1  0  0  0  0
 14 42  1  0  0  0  0
 15 43  1  0  0  0  0
 15 44  1  0  0  0  0
 17 45  1  0  0  0  0
 17 46  1  0  0  0  0
 17 47  1  0  0  0  0
 18 48  1  0  0  0  0
 18 49  1  0  0  0  0
 18 50  1  0  0  0  0
 19 51  1  0  0  0  0
 19 52  1  0  0  0  0
 20 53  1  0  0  0  0
 20 54  1  0  0  0  0
 21 55  1  0  0  0  0
 21 56  1  0  0  0  0
 22 57  1  0  0  0  0
 22 58  1  0  0  0  0
 23 59  1  0  0  0  0
 24 60  1  0  0  0  0
 26 61  1  0  0  0  0
 27 62  1  0  0  0  0
 27 63  1  0  0  0  0
 29 64  1  0  0  0  0
M  CHG  1  27   1
M  END
> <OMEGA_C>
TPIHQYtO7kA8iJXBgibzQPjo4EBiko3Bd1AAQZsjAUGe4J7Broy3QDWL+kDAbpjBipLMQPzNSz/A
KK3BN8OUQHzmML8KZabBfWnWQGm3z78s5a3BcOHGQJJI50ByAI/BOy3UQDi7BEFaX6DBAg+kQN0o
HT8OXKjBNcrlQOp/pL7E3K/Ba9atQDpN578wNKnBRTTaQGgItT/KwJDBW7uTQDNO90DdJH7BypWy
QBVO1ECjA3bB8dimQAsF10Ai54bBHwnkQJu7oT6mp4jBifjjQE3IHkGo0K/BeTSKQCpN6D8stqTB
cwChQN0wj0B2sY7BTm+ZQM5AHEHip6jBx8O3QOeY+kDi67LBJauiQIYYJkAi8ZvBV/WGQGmUbUCg
IZfBeuXCQJgbD0GGw6rBa8uvQGOs1D/sb5PBIBKKQPAvtkC0T4vBU0v3QEvzB0BYF5TBx5d1QJlf
k0AigZ/Bx3cGQTi0FL6MQLTBdSGfQJiVQ8CwS6fBCa6fQN3WKkGqu6DBHLvaQDKR4kA0VLXBg+kY
QStF6UASe5TB4+3+QJzI0UASYobBDX4LQUAfBkEb+qTBL36VQP36/UDgn5nBjTfYQCGG5T/Dwa7B
KpdrQC91Vb+gu6LBu7rpQOOuHsDV+6/BvQtjQGHL9UACEXrBlB6eQLN2DEGSkH7Bmv3SQO7u3EAh
qnDB5WSmQOnMuUCRKmzByDsDQeKsoj5404bBU8PRQJ+t/j5lRoHBafXaQBX7KL9YBYzBaXzWQLLH
JUH1JrfB71LrQHOeK0EGFarBObwAQZ4EFkHExrHBYniEQIicHkA2lavBuMNWQIBJvD/VeKHBYA+m
QAncdEBCs4fBUCXAQOw4mEDfHZLBQEaQQOSsJEEfCbDBSDV/QMtGEUEqSabBKvWeQEfD5UCyeq/B
A5KrQMq5BEFGS7rB3UG/QDYjQ0B/kp/BTSxVQFMoUUCMUpPB8vCYQNf6lj9cYI/BW1ppQDI4rkCf
tIXBnsN1QJpxwkCuppHBClxVQIRDhECpuaTBzG0JQbXX7EDkDJTB/QT0QKDM4ED6c4zB6CIDQbtk
AEG9pJ3Babi7QITv+0AYJpjB7HTPQGqqTj/ClKzBlSGVQE5aIr9ejabBvWbXQEo1z79oOq3BwFjI
QNaE6EA2f47BPX/aQDTMBEGatp/BjfilQP5kKD9MQajBXzboQMcNqb7g/q7BicStQEOW4r/FEqnB
jmvZQC3hrz+yxZDBFvaRQF7V+UCso37BlQqvQKIf1kCosHXBgRGmQJYi2UBD4obBU7fgQF5IrD4d
BIjBuKDDQH9G+kBUh7LB+3CMQIBe8D+G5qTBOvKgQOnBkUAn7Y7BNf3uQPlSHkEJGa/BQy2iQPVu
HEGyDqnBFvOjQMMXKkAJ9JvBeISHQPhtcUBaWpfB/yvMQFAxD0ETXKrBraKvQHQI3j/5PpPByLyJ
QNLQuECjs4vBdTT4QECi9z/145TBaTB2QCi2lEDq0Z/BJhsIQW44Pr5Z9LLBbZedQOtvQMD/aKfB
XU37QOJrLUG74KfBt1ilQNjBKkEL5KDBjioaQUDI5kAAh5LB+bv9QEyu0UCtEoXBXBcPQWC9BEHJ
faPB2BqaQCQ8AEHQzZnB4jLcQMqz5T+zCa7BTaFqQAlxQL/hT6PB/G7qQM5oH8ACD6/BzaReQE0a
+UA7iHvBaCWdQLWaDUEpvH7BdPvOQLv/3UDcbW/BcyihQJ7ku0DuOWzBzJ4BQffuaz5ihobB1qzQ
QNpnKT+zoIDB33vTQHyUIb9AlIrBw1+5QMwnBEFMLrrBkRzhQE+v50DCwbPBBlGqQNIb5UCVdq/B
nR6IQDteIkDI3KvB0+xZQKMRxz8r7aHBMdWlQOq7ekCm24fBsi3AQE7PmkC0S5LBGoYFQQG9FEFS
ZLHBKu3hQM5ZJkFKN7bBB9mbQN8kJUHgibDBdYSHQM5tEUGNZqfB9gfBQE8MR0B4V5/B9X5WQN6I
VEBUjZPB9giYQArxqz/H147Bqo9mQLjSsEBCXYbBX6V3QM5+xUDDK5LBFLhWQE8bhUDBBaXBHAcM
QSW75kBSdZPBlnT3QLTR3EA2I4zB9QYHQVe4+kDkO53BxKHCQAHo+kAoZJjBYC7QQMT6Kz+mzavB
dMeSQDPRLb8QYKbBaNvUQHDI4b++HKzBTKfMQFbp5kAkoI7BPDfjQAwGA0FwvJ/BSbClQDQWFj9Q
AKjBZtDnQLuTAL8Wxa3BqkuqQF7+7L9sdKjBDErWQEbSrT8Aw4/BIlCUQLdU+0BDMoDBwgivQCHE
1kBrgXbBQ26oQNpW2UCoY4fBnknbQBT8eT6ShIfBkseuQF57G0EQ3qnB7iuNQFhB7D9GGaXBM82h
QGS8kUCGU4/Bxn7QQLvf9kAA/7LB2Ff8QGIVHEG+vq7BtiCkQP6TJ0CkBZzBCI6IQHAAckA+3JfB
uMXXQGJZDUEgn6rBnEqtQIuJ2T96GJPB2K+LQGbkuUD6cYzByDT2QJAg6j+QDZTBHDN9QFvFlEDK
kqDBK28IQVZl1r7KH7HBYiyYQJryQ8AIzKbBaoqwQKP520DM6q/BDkUDQQQtK0EqU6fBaXIcQUX/
3kBplZHB+Sb/QLeGzUDZoYTBE6ETQVDCAEFf5aLBraahQEDrAEEhTprBCI7eQAyy0T/6M63BfHBk
QJt+P78NiKPBX/PmQJZ9KsAwpa3BHNhiQCQd/EBBGX7B2t2gQKIbDkHDPIDBFanOQBOL3UCyj2/B
STefQPRwvUBsL23BF2v9QLJtpjumh4bB1f7NQOY4Ez+Dn3/B3ArKQKS0Jr8ERIrBQdKnQMJ8IkEq
wLHB9JSTQLiPEUE1TKfBfgC0QN1eKEHSBKTB2N6KQJmAH0D+MazBqKpZQIrayD8da6LBGgKlQHNd
e0B2I4jBwsTBQP1imUCOeZLB3ePHQGvHAkH2srrBBD3uQG9q5EC767PBA2UMQehHEkFubrDBf9Tx
QLQSJEHsIbbBSUzCQGGjQUCxLJ/B+1RWQPojWEDrQJTBHX6UQGUDpj+dMo/BQAdoQD4Ms0BxV4fB
peF+QAvUxkBUF5PB1PddQAZohUC316XB

> <OMEGA_E>
CAO4PoTcvT4wca4+

> <OMEGA_NBR>
     98488

$$$$
50168374
  -OEChem-04172616093D

 67 69  0     1  0  0  0  0  0999 V2000
    8.6715    7.4664  -18.3745 C   0  0  0  0  0  0  0  0  0  0  0  0
    7.7128    7.0392  -17.4418 C   0  0  0  0  0  0  0  0  0  0  0  0
    8.2718    8.1306  -19.5478 C   0  0  0  0  0  0  0  0  0  0  0  0
    5.9456    7.9496  -18.8554 C   0  0  0  0  0  0  0  0  0  0  0  0
    6.4219    0.7952  -21.5614 C   0  0  0  0  0  0  0  0  0  0  0  0
    4.5870   -0.6301  -20.8049 C   0  0  0  0  0  0  0  0  0  0  0  0
    6.6552   -1.6312  -21.6237 C   0  0  0  0  0  0  0  0  0  0  0  0
    6.3436    7.2748  -17.6840 C   0  0  0  0  0  0  0  0  0  0  0  0
    6.9017    8.4134  -19.7903 C   0  0  0  0  0  0  0  0  0  0  0  0
    5.1214    0.6543  -21.0284 C   0  0  0  0  0  0  0  0  0  0  0  0
    7.1916   -0.3474  -21.8472 C   0  0  0  0  0  0  0  0  0  0  0  0
    5.3509   -1.7710  -21.1083 C   0  0  0  0  0  0  0  0  0  0  0  0
    6.7775    1.5005  -18.0253 C   0  0  0  0  0  0  0  0  0  0  0  0
    5.5748    6.2630  -15.3437 C   0  0  0  0  0  0  0  0  0  0  0  0
    4.6442    7.4480  -15.6516 C   0  0  2  0  0  0  0  0  0  0  0  0
    5.2709    6.6613  -16.8004 C   0  0  1  0  0  0  0  0  0  0  0  0
    7.0371    0.3834  -17.0186 C   0  0  0  0  0  0  0  0  0  0  0  0
    5.1367    8.8560  -15.3046 C   0  0  0  0  0  0  0  0  0  0  0  0
    6.1000    7.9852  -22.1237 C   0  0  0  0  0  0  0  0  0  0  0  0
    5.1757    9.9724  -20.8635 C   0  0  0  0  0  0  0  0  0  0  0  0
    4.3317    1.8747  -20.6179 C   0  0  0  0  0  0  0  0  0  0  0  0
    5.0860    4.5571  -17.9691 C   0  0  0  0  0  0  0  0  0  0  0  0
    5.0958    2.6533  -19.5284 C   0  0  1  0  0  0  0  0  0  0  0  0
    4.2401    3.7904  -18.9738 C   0  0  2  0  0  0  0  0  0  0  0  0
    7.5719    9.9993  -21.6914 C   0  0  0  0  0  0  0  0  0  0  0  0
    6.4440    9.0950  -21.1014 C   0  0  0  0  0  0  0  0  0  0  0  0
    5.4677    1.7429  -18.4260 N   0  0  0  0  0  0  0  0  0  0  0  0
    4.3873    5.7665  -17.5388 N   0  3  0  0  0  0  0  0  0  0  0  0
    7.7273    2.0581  -18.5651 O   0  0  0  0  0  0  0  0  0  0  0  0
    3.8522    4.6592  -20.0381 O   0  0  0  0  0  0  0  0  0  0  0  0
    8.4492   -0.2124  -22.3251 F   0  0  0  0  0  0  0  0  0  0  0  0
    4.8365   -3.0011  -20.8880 F   0  0  0  0  0  0  0  0  0  0  0  0
    7.9281   10.9591  -20.7941 F   0  0  0  0  0  0  0  0  0  0  0  0
    7.1670   10.6058  -22.8383 F   0  0  0  0  0  0  0  0  0  0  0  0
    9.7199    7.2841  -18.1900 H   0  0  0  0  0  0  0  0  0  0  0  0
    8.0233    6.5313  -16.5407 H   0  0  0  0  0  0  0  0  0  0  0  0
    9.0151    8.4288  -20.2724 H   0  0  0  0  0  0  0  0  0  0  0  0
    4.8950    8.1154  -19.0427 H   0  0  0  0  0  0  0  0  0  0  0  0
    6.8252    1.7793  -21.7493 H   0  0  0  0  0  0  0  0  0  0  0  0
    3.5913   -0.7383  -20.4009 H   0  0  0  0  0  0  0  0  0  0  0  0
    7.2439   -2.5085  -21.8476 H   0  0  0  0  0  0  0  0  0  0  0  0
    6.5740    6.4421  -14.9199 H   0  0  0  0  0  0  0  0  0  0  0  0
    5.1624    5.3312  -14.9293 H   0  0  0  0  0  0  0  0  0  0  0  0
    3.5735    7.2645  -15.4785 H   0  0  0  0  0  0  0  0  0  0  0  0
    8.1210    0.2277  -16.9144 H   0  0  0  0  0  0  0  0  0  0  0  0
    6.6115    0.6626  -16.0434 H   0  0  0  0  0  0  0  0  0  0  0  0
    6.5656   -0.5454  -17.3721 H   0  0  0  0  0  0  0  0  0  0  0  0
    4.3678    9.5925  -15.5809 H   0  0  0  0  0  0  0  0  0  0  0  0
    5.3336    8.9195  -14.2242 H   0  0  0  0  0  0  0  0  0  0  0  0
    6.0629    9.0674  -15.8591 H   0  0  0  0  0  0  0  0  0  0  0  0
    5.7708    8.4445  -23.0674 H   0  0  0  0  0  0  0  0  0  0  0  0
    6.9915    7.3676  -22.3080 H   0  0  0  0  0  0  0  0  0  0  0  0
    5.2934    7.3541  -21.7222 H   0  0  0  0  0  0  0  0  0  0  0  0
    4.8727   10.4441  -21.8099 H   0  0  0  0  0  0  0  0  0  0  0  0
    4.3569    9.3396  -20.4907 H   0  0  0  0  0  0  0  0  0  0  0  0
    5.4033   10.7521  -20.1217 H   0  0  0  0  0  0  0  0  0  0  0  0
    4.1827    2.5240  -21.4932 H   0  0  0  0  0  0  0  0  0  0  0  0
    3.3540    1.5606  -20.2236 H   0  0  0  0  0  0  0  0  0  0  0  0
    5.2790    3.9185  -17.0945 H   0  0  0  0  0  0  0  0  0  0  0  0
    6.0414    4.8366  -18.4371 H   0  0  0  0  0  0  0  0  0  0  0  0
    6.0063    3.0798  -19.9746 H   0  0  0  0  0  0  0  0  0  0  0  0
    3.3575    3.3717  -18.4681 H   0  0  0  0  0  0  0  0  0  0  0  0
    8.4334    9.3478  -21.8996 H   0  0  0  0  0  0  0  0  0  0  0  0
    4.7328    1.2721  -17.9379 H   0  0  0  0  0  0  0  0  0  0  0  0
    3.6218    5.5073  -16.9499 H   0  0  0  0  0  0  0  0  0  0  0  0
    4.0402    6.2454  -18.3452 H   0  0  0  0  0  0  0  0  0  0  0  0
    3.3240    4.1778  -20.6640 H   0  0  0  0  0  0  0  0  0  0  0  0
  1  2  2  0  0  0  0
  1  3  1  0  0  0  0
  2  8  1  0  0  0  0
  3  9  2  0  0  0  0
  4  8  2  0  0  0  0
  4  9  1  0  0  0  0
  5 10  1  0  0  0  0
  5 11  2  0  0  0  0
  6 10  2  0  0  0  0
  6 12  1  0  0  0  0
  7 11  1  0  0  0  0
  7 12  2  0  0  0  0
  8 16  1  0  0  0  0
  9 26  1  0  0  0  0
 10 21  1  0  0  0  0
 11 31  1  0  0  0  0
 12 32  1  0  0  0  0
 13 17  1  0  0  0  0
 13 27  1  0  0  0  0
 13 29  2  0  0  0  0
 14 15  1  0  0  0  0
 14 16  1  0  0  0  0
 15 16  1  0  0  0  0
 15 18  1  0  0  0  0
 16 28  1  0  0  0  0
 19 26  1  0  0  0  0
 20 26  1  0  0  0  0
 21 23  1  0  0  0  0
 22 24  1  0  0  0  0
 22 28  1  0  0  0  0
 23 24  1  0  0  0  0
 23 27  1  0  0  0  0
 24 30  1  0  0  0  0
 25 26  1  0  0  0  0
 25 33  1  0  0  0  0
 25 34  1  0  0  0  0
  1 35  1  0  0  0  0
  2 36  1  0  0  0  0
  3 37  1  0  0  0  0
  4 38  1  0  0  0  0
  5 39  1  0  0  0  0
  6 40  1  0  0  0  0
  7 41  1  0  0  0  0
 14 42  1  0  0  0  0
 14 43  1  0  0  0  0
 15 44  1  0  0  0  0
 17 45  1  0  0  0  0
 17 46  1  0  0  0  0
 17 47  1  0  0  0  0
 18 48  1  0  0  0  0
 18 49  1  0  0  0  0
 18 50  1  0  0  0  0
 19 51  1  0  0  0  0
 19 52  1  0  0  0  0
 19 53  1  0  0  0  0
 20 54  1  0  0  0  0
 20 55  1  0  0  0  0
 20 56  1  0  0  0  0
 21 57  1  0  0  0  0
 21 58  1  0  0  0  0
 22 59  1  0  0  0  0
 22 60  1  0  0  0  0
 23 61  1  0  0  0  0
 24 62  1  0  0  0  0
 25 63  1  0  0  0  0
 27 64  1  0  0  0  0
 28 65  1  0  0  0  0
 28 66  1  0  0  0  0
 30 67  1  0  0  0  0
M  CHG  1  28   1
M  END
> <OMEGA_C>
a74KQWvs7kDp/pLBRc/2QHhB4UDkiIvBZVkEQdsWAkH1YZzBZkK+QCxj/kDz15bBjYDNQC2RSz+v
fazB5siSQINQIb+JcKbBQ/fUQNDL0L9t/azBD//KQPDK6EDpeI3Bv9rcQGydBkGYUp7BKOKjQOeA
Jz8+OqjB2SHmQMDksb4Mx67BejqrQFex4r+23ajB6ODYQFERwD/VM5DBjmSyQFRqyECkf3XBJJ2U
QLNV7kABbXrBnauoQKwp1UAnZ4bB1y/hQDxTxD4YJojBLWCkQD2yDUF233TBgzPDQHSG/0BR/bDB
nZ+lQPyOH0FZ6KbBMp2KQH/27z9u8aTBOMCiQGPTkUDNwI/B4RCjQLHPKUAaOpzBlK6HQJ6VckBI
ypfB90zyQEH9H0H8h63BATXOQDGFEUGcz6jBXPeuQLYX3z9gaJPBomSMQICHuEB2T4zBM0b3QBm4
A0BghZTBRop2QC8YlUD2TaDB7S8HQRB3Wb65mbLB1sSaQMsSQMCLGqfBP7P9QIpYL0FWWqbBylfl
QH6xKUHotLbBt4QbQVoX6UAzhZHBel8AQYcA0UBsU4TBBT4QQUjcBkHQLaLBdaOcQJrYAUFdV5jB
ZWjaQCi/4z+U/q3BAdhlQLMBPb8ONaPB3s3nQA+MIMD4x67B0V3SQKslzkD6t27BpjKlQNeYqkB9
3m7BPLRkQKV26EDVp3fBpO8BQUkdaT69UIfBkJHTQCyiKT/1WIDBOBnSQOueC7/5+YrBZMWLQOV6
GUGES3nBCq2qQHC2DkFDlmPBawPCQAwUEUHcvn3BWKq4QIkcB0EXirjBBrrfQFHD60DSdrLB3GOp
QC1V60AAx63Bfu2bQA4bJ0Gaeq7BdGuLQM9uFUHv7KPBMuisQL0ILEE0+aDBetiFQMSIIUAq8qvB
hKdWQEDDxz/+yaHBt+2oQAvIekCewYjBN1PBQCDFmkA3f5PBfTPAQMgbRUD5y5/BjeBWQHDJV0Cy
vpPBDO8GQWuQFUFMMq/B/nKXQF/Toj/JgI/BGctnQHs7sEB2mYfBlUmBQIHax0DmwpLB4bxUQCqw
hUDPT6XBPDUIQcLo80CrrpPB/ufzQIhB5EBA7YvBP2sAQWFDBEEF55zBE/a3QJ6E/UDqr5bBET/M
QKT0Xz85Cq3BO6OUQBr9Ir/sgabBYuXWQE/bxL8I5K3BQXTHQIXu6EAwcI3BYT7UQL1VB0EKcJ7B
CqWjQKAKLD/CWajBw/jlQPYwa75VuK/BviKuQAK73r8BV6nB7JbaQBSxwz++dZDBi4azQKDXx0BF
z3TBbb+TQCpe7EA3PXnBXV+nQBvO00Dn94XBWeHkQJQw3D7pZIjB4tyhQIQbDUGFOnTBxb3kQPJE
IUE02K3B2MG3QBaaAEGmBrHB0HSJQI9U7T9QqKTBN+WhQN4OkECDLY/BYWSiQFy2KEB3DZzBqLmG
QBZ5b0CDP5fBzI+aQGxvIEE/r6bBUtPCQLIpEkH/vajBLi2wQFnx2z/WdpPBSxGLQAQptkBziovB
h+33QMa2B0Ap8ZTBmC1yQMsNlECfip/BaKAGQbBtC71g+bPByZWfQFKfP8BjmqfB0/uhQC4mLkFR
cZ7BR3ttQKjKFEHQmaTBijwZQTca8EBRkJLBXQAAQQ2x1EB91ITB2okLQSvoCUE64qLBxtmVQJoj
AEF85JfBponXQEpT8D9Cka7BrCxrQMvKSr9v7KLBC5bqQMO5GMAj+q/BT77TQKANz0CMtG7BBTCo
QJGVqUAe1G3BrA9kQDAK5UDbwXXBJuUDQczwoj5FtYfBdnfXQFnUMj/9i4DBXcvWQCrnBL8kHIvB
ENiHQD5EGEEyOnjBo4OpQHl0DkEzGmPBsWG+QHcREUElwX3BTGHXQFGlKEFEGrXBTWXtQD3bLUFB
FqjBy7cAQUb8F0EY86/B0mGrQM4aCEFLXLjBXLnUQCW17kBw7bLBYk2fQEC560D0rK3BROqCQOzn
IEA9gavBjhJWQIW6vz/oRKHBEKaoQNKFdkATSIjBJy/AQJSsmUBY9pLBla++QBDsRUDkzZ/BiSBW
QM3FUkDlJ5PBRnKVQFnCKUGvCa7BFaOZQJ7KmT9Cko/B5EpnQP4+rUDlkIbBTdx8QOP+xEDa4pHB
qUpQQPbAhEBnj6TBAWQJQXXV70CRwpTBJ+D1QNzb4UD544zBZ94BQYsOAkHZFZ7BvJu6QBLJ/EBF
ppfB2jrLQArVNT+KgazBFbKSQO2mPb9Um6XBy0vUQOMF278XzKzBXJHJQDMu6EDIVo7Be1zXQAHX
BUG2lJ/BpIqiQP4SDT8uwafBWC/kQJwl177o8q7B2HqrQB9k779yLKjBNljZQN77vD/M4Y/BaAy1
QKAwyEAJdnbBrRKWQEla7UAK63rBKACpQHQw1EDbzYbBlqniQPV0xz7Ro4fBklylQORrDUEq+XXB
wnydQBTKHUE/z6fB2F7nQEGrH0HyGK/ByxOJQP6u4T/NXKTBIXKiQACfj0DTjY/ByFiiQNA1JEBK
75vBJEaHQDSQbUCahJfB7tW6QEru/EDHU7LBSCrGQKgeEEHOBqrBKDOvQI+E1j8hE5PBeEeMQG61
tkDpS4zBoTX3QK92AkAOZJTBmcl1QPNHkkDJF6DB4sMFQZNciL50RrPBxDqcQErnRsB0GKbB4eSc
QOyW4UBDXK7B7ijeQLvp5UB8BrXB6VoaQdn96kD7pZPB8McAQa9P0kCpv4XB9xkNQXsCB0F7KqTB
UaGYQLOlAEE0wZjByC7XQEeK2T90Q67BohlnQLAOXb87/qHBW2jnQNIRJcA/sa7BTHbVQBC+zkBE
bnDBTxepQKZCqkCUYm/BP3FoQATY5kBWW3fBBrwCQRpmgz4I34bBQDTVQE43Lz9ot3/BzAXUQJpn
Dr/qPorBAuWLQJzlGEH19nnBUimtQP+0DkHq22TBXgbCQHYAEUGOin/B4AmSQLXcJEGfV6/B1VOE
QCCLE0EnZqTBgVelQMSfKkEHHqLBLwLaQJ+aJkGidrbB1b/uQCyPLEGWZanBfmoCQVHVFkGiA7HB
7f2CQGCWGUAtYKvBBddUQGcPuD+S6KDBIV+oQNc0d0ABeIjBoyPBQAsZmEAKTpPBRhG/QGoRP0Dw
wZ/BqgZWQNNMU0AJbZPBOB2uQG6ZBkEgdLnByC+YQF3klz+uII/BP45oQOj3rkA4X4fBen6AQNAi
xUAZzZLB6txTQMW5gkDoDqXB

> <OMEGA_E>
AJFePgCwaD4Aq1A+

> <OMEGA_NBR>
    102012

$$$$
50168380
  -OEChem-04172616093D

 67 69  0     1  0  0  0  0  0999 V2000
    8.5873    7.4861  -18.5148 C   0  0  0  0  0  0  0  0  0  0  0  0
    7.6651    7.0574  -17.5452 C   0  0  0  0  0  0  0  0  0  0  0  0
    8.1453    8.1541  -19.6706 C   0  0  0  0  0  0  0  0  0  0  0  0
    5.8472    7.9593  -18.8953 C   0  0  0  0  0  0  0  0  0  0  0  0
    6.4220    0.8559  -21.5748 C   0  0  0  0  0  0  0  0  0  0  0  0
    4.6332   -0.6138  -20.7945 C   0  0  0  0  0  0  0  0  0  0  0  0
    6.6907   -1.5654  -21.6986 C   0  0  0  0  0  0  0  0  0  0  0  0
    6.2847    7.3075  -17.7222 C   0  0  0  0  0  0  0  0  0  0  0  0
    6.7670    8.4188  -19.8693 C   0  0  0  0  0  0  0  0  0  0  0  0
    5.1406    0.6858  -21.0045 C   0  0  0  0  0  0  0  0  0  0  0  0
    7.1996   -0.2688  -21.9104 C   0  0  0  0  0  0  0  0  0  0  0  0
    5.4047   -1.7371  -21.1486 C   0  0  0  0  0  0  0  0  0  0  0  0
    6.7981    1.4692  -18.0209 C   0  0  0  0  0  0  0  0  0  0  0  0
    5.4321    7.8624  -14.9342 C   0  0  0  0  0  0  0  0  0  0  0  0
    5.6586    6.3942  -15.3134 C   0  0  0  0  0  0  0  0  0  0  0  0
    4.3915    7.8858  -16.0619 C   0  0  0  0  0  0  0  0  0  0  0  0
    5.2147    6.7738  -16.7571 C   0  0  0  0  0  0  0  0  0  0  0  0
    7.0523    0.3137  -17.0592 C   0  0  0  0  0  0  0  0  0  0  0  0
    5.9795    7.9718  -22.2124 C   0  0  0  0  0  0  0  0  0  0  0  0
    7.3147   10.0638  -21.7620 C   0  0  0  0  0  0  0  0  0  0  0  0
    4.9631    9.8957  -20.9370 C   0  0  0  0  0  0  0  0  0  0  0  0
    4.3398    1.8926  -20.5563 C   0  0  0  0  0  0  0  0  0  0  0  0
    5.1078    4.5831  -17.8695 C   0  0  0  0  0  0  0  0  0  0  0  0
    5.1096    2.6725  -19.4657 C   0  0  1  0  0  0  0  0  0  0  0  0
    4.2600    3.8046  -18.8798 C   0  0  2  0  0  0  0  0  0  0  0  0
    6.2650    9.0803  -21.1738 C   0  0  0  0  0  0  0  0  0  0  0  0
    5.4864    1.7500  -18.3808 N   0  0  0  0  0  0  0  0  0  0  0  0
    4.3618    5.7587  -17.3964 N   0  3  0  0  0  0  0  0  0  0  0  0
    7.7464    2.0057  -18.5841 O   0  0  0  0  0  0  0  0  0  0  0  0
    3.8503    4.6778  -19.9322 O   0  0  0  0  0  0  0  0  0  0  0  0
    8.4386   -0.1045  -22.4263 F   0  0  0  0  0  0  0  0  0  0  0  0
    4.9157   -2.9814  -20.9484 F   0  0  0  0  0  0  0  0  0  0  0  0
    9.6417    7.3015  -18.3715 H   0  0  0  0  0  0  0  0  0  0  0  0
    8.0107    6.5366  -16.6644 H   0  0  0  0  0  0  0  0  0  0  0  0
    8.8630    8.4684  -20.4139 H   0  0  0  0  0  0  0  0  0  0  0  0
    4.7896    8.1107  -19.0533 H   0  0  0  0  0  0  0  0  0  0  0  0
    6.8054    1.8496  -21.7535 H   0  0  0  0  0  0  0  0  0  0  0  0
    3.6527   -0.7470  -20.3618 H   0  0  0  0  0  0  0  0  0  0  0  0
    7.2864   -2.4281  -21.9580 H   0  0  0  0  0  0  0  0  0  0  0  0
    5.0259    8.0235  -13.9248 H   0  0  0  0  0  0  0  0  0  0  0  0
    6.2995    8.5208  -15.0897 H   0  0  0  0  0  0  0  0  0  0  0  0
    6.7009    6.0533  -15.2280 H   0  0  0  0  0  0  0  0  0  0  0  0
    4.9962    5.6803  -14.8020 H   0  0  0  0  0  0  0  0  0  0  0  0
    3.3787    7.5836  -15.7572 H   0  0  0  0  0  0  0  0  0  0  0  0
    4.3397    8.8334  -16.6181 H   0  0  0  0  0  0  0  0  0  0  0  0
    8.1323    0.1120  -17.0048 H   0  0  0  0  0  0  0  0  0  0  0  0
    6.6783    0.5797  -16.0595 H   0  0  0  0  0  0  0  0  0  0  0  0
    6.5294   -0.5846  -17.4193 H   0  0  0  0  0  0  0  0  0  0  0  0
    5.6211    8.4279  -23.1471 H   0  0  0  0  0  0  0  0  0  0  0  0
    6.9032    7.4082  -22.4103 H   0  0  0  0  0  0  0  0  0  0  0  0
    5.2111    7.2900  -21.8191 H   0  0  0  0  0  0  0  0  0  0  0  0
    6.9208   10.5119  -22.6861 H   0  0  0  0  0  0  0  0  0  0  0  0
    7.5237   10.8578  -21.0299 H   0  0  0  0  0  0  0  0  0  0  0  0
    8.2432    9.5181  -21.9861 H   0  0  0  0  0  0  0  0  0  0  0  0
    4.6371   10.3502  -21.8842 H   0  0  0  0  0  0  0  0  0  0  0  0
    4.1749    9.2268  -20.5610 H   0  0  0  0  0  0  0  0  0  0  0  0
    5.1557   10.6873  -20.1979 H   0  0  0  0  0  0  0  0  0  0  0  0
    4.1644    2.5525  -21.4187 H   0  0  0  0  0  0  0  0  0  0  0  0
    3.3746    1.5569  -20.1492 H   0  0  0  0  0  0  0  0  0  0  0  0
    5.3460    3.9331  -17.0146 H   0  0  0  0  0  0  0  0  0  0  0  0
    6.0405    4.9117  -18.3513 H   0  0  0  0  0  0  0  0  0  0  0  0
    6.0160    3.1043  -19.9151 H   0  0  0  0  0  0  0  0  0  0  0  0
    3.3866    3.3754  -18.3671 H   0  0  0  0  0  0  0  0  0  0  0  0
    4.7531    1.2985  -17.8725 H   0  0  0  0  0  0  0  0  0  0  0  0
    3.6789    5.4545  -16.7323 H   0  0  0  0  0  0  0  0  0  0  0  0
    3.9020    6.1783  -18.1791 H   0  0  0  0  0  0  0  0  0  0  0  0
    3.3244    4.1945  -20.5586 H   0  0  0  0  0  0  0  0  0  0  0  0
  1  2  2  0  0  0  0
  1  3  1  0  0  0  0
  2  8  1  0  0  0  0
  3  9  2  0  0  0  0
  4  8  2  0  0  0  0
  4  9  1  0  0  0  0
  5 10  1  0  0  0  0
  5 11  2  0  0  0  0
  6 10  2  0  0  0  0
  6 12  1  0  0  0  0
  7 11  1  0  0  0  0
  7 12  2  0  0  0  0
  8 17  1  0  0  0  0
  9 26  1  0  0  0  0
 10 22  1  0  0  0  0
 11 31  1  0  0  0  0
 12 32  1  0  0  0  0
 13 18  1  0  0  0  0
 13 27  1  0  0  0  0
 13 29  2  0  0  0  0
 14 15  1  0  0  0  0
 14 16  1  0  0  0  0
 15 17  1  0  0  0  0
 16 17  1  0  0  0  0
 17 28  1  0  0  0  0
 19 26  1  0  0  0  0
 20 26  1  0  0  0  0
 21 26  1  0  0  0  0
 22 24  1  0  0  0  0
 23 25  1  0  0  0  0
 23 28  1  0  0  0  0
 24 25  1  0  0  0  0
 24 27  1  0  0  0  0
 25 30  1  0  0  0  0
  1 33  1  0  0  0  0
  2 34  1  0  0  0  0
  3 35  1  0  0  0  0
  4 36  1  0  0  0  0
  5 37  1  0  0  0  0
  6 38  1  0  0  0  0
  7 39  1  0  0  0  0
 14 40  1  0  0  0  0
 14 41  1  0  0  0  0
 15 42  1  0  0  0  0
 15 43  1  0  0  0  0
 16 44  1  0  0  0  0
 16 45  1  0  0  0  0
 18 46  1  0  0  0  0
 18 47  1  0  0  0  0
 18 48  1  0  0  0  0
 19 49  1  0  0  0  0
 19 50  1  0  0  0  0
 19 51  1  0  0  0  0
 20 52  1  0  0  0  0
 20 53  1  0  0  0  0
 20 54  1  0  0  0  0
 21 55  1  0  0  0  0
 21 56  1  0  0  0  0
 21 57  1  0  0  0  0
 22 58  1  0  0  0  0
 22 59  1  0  0  0  0
 23 60  1  0  0  0  0
 23 61  1  0  0  0  0
 24 62  1  0  0  0  0
 25 63  1  0  0  0  0
 27 64  1  0  0  0  0
 28 65  1  0  0  0  0
 28 66  1  0  0  0  0
 30 67  1  0  0  0  0
M  CHG  1  28   1
M  END
> <OMEGA_C>
iGUJQSCO70BJHpTBRkj1QPfV4UCFXIzBWVMCQRp3AkFMXZ3B8xu7QPiy/kCWKZfB34DNQO4cWz84
mazBjkOUQN0gHb8JW6bB4RnWQNddyL/Llq3BoxzJQHDX6UAex43BEIvYQIyzBkFt9J7Bt3+kQFyP
Lz89CajBvGLmQJifib6CSK/Bl/OsQLdX3r9IMKnBGorZQOwOvD/GKpDB89OtQASZ+0Ca8m7BKRO1
QFqdzEDIA3XBQIeMQHhY/EDFfoDB8t6mQB/D2ECcDobBe6zhQEyYoD5HeYjB9Fe/QB4Z/0AYs7HB
aBLqQIYFIUGGGK7Bl9GeQNtUHkECf6fBet+KQG5B8j9Ac6TBUXOjQLSokkCp9I7BPoKjQN0JK0C9
uZvBKVKIQKF+c0DiCZfBy3rIQN1IEUHsY6nB6JCvQDMA4D/sC5PBKpSLQPpGuEDtK4vB4+L3QCBd
AEBKrJTBiGp2QHiwlUAjdZ/BhgQHQaIC1r0labPBuU2dQIbPPsBhlqfBbUQaQe2l6UDc+JLBxisA
Qbor0UC5UIXBrM4NQbN+B0G/T6PBF0SZQJTFAUErbZjBnMXZQMTA7D8oB67BtsVpQGw+P78L5aLB
EirpQFxlG8Dxqa/BHdSgQBdgAEHHy17Bp5XJQClVCEGXb3HB+G3WQEm0wUALpnPB++CfQNnEtUDz
1GzBCTxYQDGt8kB6HXzB1d6KQIhVDUHz8YTB4x0CQelr5T3dCYjBlLTVQFBnFD/0eYDB0/DQQJ2q
Fb+lWovBvt+zQKTYBkE2LbnBzubcQBAQ7UBRSLPBRcGmQPNH6UB3ja7B+3bdQKgwKEEvfbXBRcLw
QIm5LUEsPajB/uMDQS5KGEFz46/B7WKUQEmaJUHhEq/B8piFQBmhE0HtfKTBZvukQBT/KkE7laHB
30KFQJVbI0CWWavBP/lXQD5Hxz+pMaHBkBKrQKS4e0DaHYjBs0vBQJ8snUByz5LBOYPAQJatRkAq
Up/Bkr5YQBsGWEC575LBmRmYQKEzpj/3+o7BCnNrQKGLrkC824XBJrp5QDq0xUC4bpHBcsNUQDU5
hkAUeKTBNxYJQSHy70C3NpTB+OH0QFwD4kDjbozBrtwBQW+PAkH3dJ3B6k26QGo5/kAJNZfBRg+U
QEUXIb/3KabBPNzMQGPtWD+Pi6zBCArWQKxOyb/1Y63BPp/IQA6I6UBA1Y3BFIbXQHWYBkH8A5/B
avijQBMvLD/97afBxgStQEr037/h7KjBovrlQJc/jL6tLq/B1kTZQG9Auj/jN5DBcKqvQPiE+0A6
BG/BNne1QOBIzEBjCnXBXD+NQN6Q/EAPSIDBOqymQJix2EAZAobBzozhQHMUsT4JGojBipe+QPDf
/kC8xbHB/mPoQPMzIUEUDq7BCCqdQAjmHUFUhKfBQECKQGtU8D+2U6TBmjCiQCgokkADsY7BvAWj
QCuiKkCmqpvBLvuHQEYndEBNIpfBWjPHQB8qEUFLbKnBbC+vQKNR4D8X7ZLBYs6KQH1xuECaEIvB
0o73QOg0/D/O55TBL3Z6QBuflkBbo5/B1MmdQNq7P8DIKqfBHMoGQWZk1L1qU7PBm/0ZQVhc6kDN
FpPBjxYAQcaN0UBLYYXBnEINQQ+rB0FsbaPBCmeYQOhdAUFDc5jB5G9pQNE6RL87saLBJN3YQMPV
6z9hDa7BGUPpQOG0G8B6cK/BP82jQFOZAEH+sF7B0K7LQM76B0FMB3LBcJLWQCKEwECD+nPBrQGg
QFwOtkCjm2zBURtaQLMz80AbNHvBylWLQPZvDUEdu4TBBBICQQR9HD5XlIfBg3rVQGjOJz8ZN4DB
Ef7QQCUkEr/Ep4rBA/CyQI23BkFfPLnBSWjcQL1J7UB6XrPBeE6mQCqo6EBWp67BI6nbQI9fKEFB
b7XB7qTuQOngLUFKJ6jBOy8DQYu1GEGG2q/BzpOSQC0qJUETFa/BUDqEQAD+EkE9i6TBRe6iQCuN
KkGFkqHBiFKEQPkhIkA0PKvBJQpXQDXoxD/AAKHBa/6nQJLteUAN0YfBi/rAQHDwm0CgL5LBigzA
QKCoRUCvUp/BWOtVQEjXWUARZZPBSsqXQB4gqT86so7B1U1pQEljr0ApwYXB0Pl4QD7PxUAbZJHB
ZPlZQFDDh0Ab4aTBFh0JQbyw70BwS5TBiAn1QEfQ4UD4eYzB8tUBQXZnAkHziZ3BF1a6QD6//UAK
QZfBdd7MQFZBXD/jiKzB5P2TQAbFHr9NQKbBsRPWQMaJx79Lda3BJ8HIQKJO6UAW2Y3Bl27XQF1c
BkGFFp/BOfKjQHDDLj8U8qfBGQLmQKOmhL6MM6/BE/usQJeQ3r/IC6nBJgLZQJYMsj8sopDBxm2u
QDyM+kDBkG7BJmm1QO/My0BGE3XB3EmNQBZ9/EAqVIDBTsemQMCS2EB9AobB5xrhQOttrT73CYjB
u7zoQA8JIEGXhq7B0C+eQFucHkG2WKfBu7i7QO5J/kBon7HBAziKQB1e8T/nUKTBOiiiQPsLkkDs
n47BBP+iQNzXKkCYoZvBNASIQB5adEAgGpfBjtLGQJrpEEGgeqnBxAivQDlB4D+N6JLBkOGKQKN2
uECBEovBZG73QG3k+z9FxpTBExR7QGzYlkDbmZ/BnMsGQSd9sL2CWLPB/rOdQIUhP8DlYafBKgYa
QdsZ6kBJMpPBzDYAQeRt0UAWbIXBojQNQVSMB0Hgg6PBpGiYQEYGAUHQf5jBEuHYQCCe7T+q/63B
uDZpQAl1Qr9Tz6LB513pQEa8GsAJga/BzlGhQGUc/0BEZF7Bj2PKQPy8B0GQwnDBhcTWQB/IwEC7
9nPBS1WgQArAtECp9WzBZkRZQLx380Am4XvB3mSMQOOIDUFOroTBtN4BQQgKdj4XrobBZWDRQEj1
JD8+joDBbwfUQB+zIL8KrorBmbPbQB4xJ0ES4LXBWs/wQFPJLEE+zqjBXdwCQarVFkGyd7DBzkCT
QAzdJUFi4q7BXbyEQD1aFEFfFaTBnc+lQGdPK0FEj6HBotqvQJlzBkHvDrnBfozYQLpR60CwW7PB
Td2iQPxX6UDmPq7BQk+EQFLbIkCpNKvByfRWQOzIxT91AaHBWpmnQLO0eUBHu4fBFh/BQJ2Zm0C/
D5LBXBTAQODJRUDBRJ/BQsJVQJsqWkDDZ5PBM7WXQJ0Xrz8EYI7BNhppQE+Zr0C0yYXBAZN5QPDQ
xUCAbpHBzqVaQB8biEBg3qTBR5EJQYGw7UA4I5TBoEn1QDTC4EDsX4zBeMACQTaJAUHsbZ3BT8m7
QHNI/kDKSJfBSTqVQD5aFL+bmabByIfOQEZlZT9JtqzBwWbXQPQuw78NsK3BPk3JQDyj6UD30o3B
wJLZQI0fBkEdE5/BAWylQDLEOD+MOajBziOuQCes2b+5XKnBoI/nQHDUZ77/X6/BOGDaQJ+quj+e
YJDBE7qrQLWy+0C+k27BPEW0QA5DzUDxDnXBIIuMQL/G/UAbvIDBQp2mQNOC2UDOG4bB7ZbiQDuU
qD5IbojBImvsQK4pIEFZN67BXvugQJJbHkETp6fBYCzAQH1c/kCU07HBdb+LQAJf9j9AlKTB06ei
QHHIkkD2r47BRuujQMEaLEAdq5vBE/SHQD7SckC/x5bBKg3KQIjUEEF2hqnBnFGwQDiu3z/DJZPB
rROLQGEjuUAxMYvBxLH4QMZI/z9V5pTBBFtzQMtPlUC7FZ/BNZWeQAyOPMA7w6fBkpgHQYzmbL1x
gLPBTF8aQfsp50CW9ZLBSfP/QI4I0ECiTIXByFwOQT1MBkF4XqPBMAqaQGTEAUFem5jBrWRrQEY3
N78cPKPBPsXaQEsN8j/yGa7BoqTqQGWuGMDDta/BTNWcQOer/0AiwV7Bu4vHQBqNCEFw5m/BXdbV
QNskw0CZe3PBuGCfQJWjtUB/PW3BX7lWQBAl9UD5e33BhNeMQB0oDkF1HIXBBpoCQf97Ej482YfB
OhvWQMlYHT+dhoDBBl/SQEWRFb+zL4vBSzzgQL9zJ0HSn7XB453zQKnNLEEFXajBrt4EQQIWF0HE
+q/BOeeWQEC2JUF5Pa/BzUWHQEz1E0Emo6TBB7SnQLz5KkGWwKHBVhS1QMuVBkEDULnBQ1TdQNmo
60BoZLPBJRWnQAoe6UChrq7BUpWGQEY8JkDYa6vB7k1ZQEf+yj/AeKHBnHOpQI/zfEAAtIfBt/DA
QNiTnED4cZLBFLvAQNxxSUDeJZ/BoihZQFRoVUCApZLB7fmYQC/CpD+OGY/BKFlpQNkxsEB474XB
TRx6QDNUxkAklZHBq0BSQPGRhUCVGaTB

> <OMEGA_E>
wGa9PSA4vj0An8U9IOviPQ==

> <OMEGA_NBR>
    106583

$$$$
50168375
  -OEChem-04172616093D

 64 66  0     1  0  0  0  0  0999 V2000
    8.6106    7.4277  -18.4455 C   0  0  0  0  0  0  0  0  0  0  0  0
    7.6477    7.0229  -17.5087 C   0  0  0  0  0  0  0  0  0  0  0  0
    8.2176    8.0811  -19.6280 C   0  0  0  0  0  0  0  0  0  0  0  0
    5.8872    7.9038  -18.9511 C   0  0  0  0  0  0  0  0  0  0  0  0
    6.4530    0.8650  -21.5856 C   0  0  0  0  0  0  0  0  0  0  0  0
    4.6532   -0.6180  -20.8583 C   0  0  0  0  0  0  0  0  0  0  0  0
    6.7448   -1.5537  -21.7004 C   0  0  0  0  0  0  0  0  0  0  0  0
    6.2835    7.2679  -17.7593 C   0  0  0  0  0  0  0  0  0  0  0  0
    6.8478    8.3538  -19.8882 C   0  0  0  0  0  0  0  0  0  0  0  0
    5.1578    0.6865  -21.0507 C   0  0  0  0  0  0  0  0  0  0  0  0
    7.2494   -0.2532  -21.8963 C   0  0  0  0  0  0  0  0  0  0  0  0
    5.4450   -1.7360  -21.1879 C   0  0  0  0  0  0  0  0  0  0  0  0
    6.7291    1.4176  -18.0380 C   0  0  0  0  0  0  0  0  0  0  0  0
    4.6035    7.7887  -15.8470 C   0  0  0  0  0  0  0  0  0  0  0  0
    5.5010    6.6539  -15.3087 C   0  0  0  0  0  0  0  0  0  0  0  0
    5.2155    6.7744  -16.8116 C   0  0  0  0  0  0  0  0  0  0  0  0
    6.9433    0.3011  -17.0211 C   0  0  0  0  0  0  0  0  0  0  0  0
    5.1395    9.9219  -20.9714 C   0  0  0  0  0  0  0  0  0  0  0  0
    6.0447    7.9212  -22.2275 C   0  0  0  0  0  0  0  0  0  0  0  0
    4.3449    1.8915  -20.6129 C   0  0  0  0  0  0  0  0  0  0  0  0
    5.0230    4.5574  -17.8521 C   0  0  0  0  0  0  0  0  0  0  0  0
    7.5294    9.9268  -21.7933 C   0  0  0  0  0  0  0  0  0  0  0  0
    5.0913    2.6692  -19.5009 C   0  0  1  0  0  0  0  0  0  0  0  0
    4.2418    3.8286  -18.9566 C   0  0  2  0  0  0  0  0  0  0  0  0
    6.3969    9.0287  -21.2062 C   0  0  0  0  0  0  0  0  0  0  0  0
    5.4279    1.7451  -18.4029 N   0  0  0  0  0  0  0  0  0  0  0  0
    4.3159    5.7833  -17.4289 N   0  3  0  0  0  0  0  0  0  0  0  0
    7.6992    1.9169  -18.5987 O   0  0  0  0  0  0  0  0  0  0  0  0
    3.9731    4.7340  -20.0271 O   0  0  0  0  0  0  0  0  0  0  0  0
    8.5045   -0.0781  -22.3675 F   0  0  0  0  0  0  0  0  0  0  0  0
    4.9667   -2.9855  -20.9915 F   0  0  0  0  0  0  0  0  0  0  0  0
    7.1081   10.6151  -22.8863 F   0  0  0  0  0  0  0  0  0  0  0  0
    9.6571    7.2372  -18.2583 H   0  0  0  0  0  0  0  0  0  0  0  0
    7.9512    6.5255  -16.5994 H   0  0  0  0  0  0  0  0  0  0  0  0
    8.9666    8.3791  -20.3468 H   0  0  0  0  0  0  0  0  0  0  0  0
    4.8364    8.0503  -19.1530 H   0  0  0  0  0  0  0  0  0  0  0  0
    6.8329    1.8615  -21.7565 H   0  0  0  0  0  0  0  0  0  0  0  0
    3.6599   -0.7590  -20.4583 H   0  0  0  0  0  0  0  0  0  0  0  0
    7.3546   -2.4114  -21.9431 H   0  0  0  0  0  0  0  0  0  0  0  0
    3.5216    7.7757  -15.6484 H   0  0  0  0  0  0  0  0  0  0  0  0
    4.9653    8.8275  -15.8384 H   0  0  0  0  0  0  0  0  0  0  0  0
    6.5036    6.8822  -14.9179 H   0  0  0  0  0  0  0  0  0  0  0  0
    5.0599    5.8305  -14.7279 H   0  0  0  0  0  0  0  0  0  0  0  0
    8.0187    0.0884  -16.9304 H   0  0  0  0  0  0  0  0  0  0  0  0
    6.5480    0.6146  -16.0437 H   0  0  0  0  0  0  0  0  0  0  0  0
    6.4174   -0.6053  -17.3557 H   0  0  0  0  0  0  0  0  0  0  0  0
    4.8389   10.3896  -21.9206 H   0  0  0  0  0  0  0  0  0  0  0  0
    4.3147    9.3011  -20.5914 H   0  0  0  0  0  0  0  0  0  0  0  0
    5.3780   10.7047  -20.2364 H   0  0  0  0  0  0  0  0  0  0  0  0
    5.7214    8.3824  -23.1724 H   0  0  0  0  0  0  0  0  0  0  0  0
    6.9307    7.2952  -22.4095 H   0  0  0  0  0  0  0  0  0  0  0  0
    5.2316    7.2981  -21.8267 H   0  0  0  0  0  0  0  0  0  0  0  0
    4.1864    2.5550  -21.4757 H   0  0  0  0  0  0  0  0  0  0  0  0
    3.3721    1.5521  -20.2277 H   0  0  0  0  0  0  0  0  0  0  0  0
    5.1327    3.8876  -16.9864 H   0  0  0  0  0  0  0  0  0  0  0  0
    6.0182    4.8290  -18.2339 H   0  0  0  0  0  0  0  0  0  0  0  0
    7.8520   10.6430  -21.0233 H   0  0  0  0  0  0  0  0  0  0  0  0
    8.3786    9.2886  -22.0793 H   0  0  0  0  0  0  0  0  0  0  0  0
    6.0171    3.0830  -19.9271 H   0  0  0  0  0  0  0  0  0  0  0  0
    3.3065    3.4289  -18.5376 H   0  0  0  0  0  0  0  0  0  0  0  0
    4.6765    1.3294  -17.8905 H   0  0  0  0  0  0  0  0  0  0  0  0
    3.6115    5.5332  -16.7646 H   0  0  0  0  0  0  0  0  0  0  0  0
    3.8857    6.1975  -18.2309 H   0  0  0  0  0  0  0  0  0  0  0  0
    3.4901    4.2834  -20.7099 H   0  0  0  0  0  0  0  0  0  0  0  0
  1  2  2  0  0  0  0
  1  3  1  0  0  0  0
  2  8  1  0  0  0  0
  3  9  2  0  0  0  0
  4  8  2  0  0  0  0
  4  9  1  0  0  0  0
  5 10  1  0  0  0  0
  5 11  2  0  0  0  0
  6 10  2  0  0  0  0
  6 12  1  0  0  0  0
  7 11  1  0  0  0  0
  7 12  2  0  0  0  0
  8 16  1  0  0  0  0
  9 25  1  0  0  0  0
 10 20  1  0  0  0  0
 11 30  1  0  0  0  0
 12 31  1  0  0  0  0
 13 17  1  0  0  0  0
 13 26  1  0  0  0  0
 13 28  2  0  0  0  0
 14 15  1  0  0  0  0
 14 16  1  0  0  0  0
 15 16  1  0  0  0  0
 16 27  1  0  0  0  0
 18 25  1  0  0  0  0
 19 25  1  0  0  0  0
 20 23  1  0  0  0  0
 21 24  1  0  0  0  0
 21 27  1  0  0  0  0
 22 25  1  0  0  0  0
 22 32  1  0  0  0  0
 23 24  1  0  0  0  0
 23 26  1  0  0  0  0
 24 29  1  0  0  0  0
  1 33  1  0  0  0  0
  2 34  1  0  0  0  0
  3 35  1  0  0  0  0
  4 36  1  0  0  0  0
  5 37  1  0  0  0  0
  6 38  1  0  0  0  0
  7 39  1  0  0  0  0
 14 40  1  0  0  0  0
 14 41  1  0  0  0  0
 15 42  1  0  0  0  0
 15 43  1  0  0  0  0
 17 44  1  0  0  0  0
 17 45  1  0  0  0  0
 17 46  1  0  0  0  0
 18 47  1  0  0  0  0
 18 48  1  0  0  0  0
 18 49  1  0  0  0  0
 19 50  1  0  0  0  0
 19 51  1  0  0  0  0
 19 52  1  0  0  0  0
 20 53  1  0  0  0  0
 20 54  1  0  0  0  0
 21 55  1  0  0  0  0
 21 56  1  0  0  0  0
 22 57  1  0  0  0  0
 22 58  1  0  0  0  0
 23 59  1  0  0  0  0
 24 60  1  0  0  0  0
 26 61  1  0  0  0  0
 27 62  1  0  0  0  0
 27 63  1  0  0  0  0
 29 64  1  0  0  0  0
M  CHG  1  27   1
M  END
> <OMEGA_C>
OMUJQRCw7UBokJPBprn0QFG74EDJEYzBYXsDQSpMAUERBp3BTmS8QEHs/EDam5fBCX/OQFlyXT9h
r6zB2OaUQOYzHr/D3abBz9XXQJ/fxr9ymq3BEhLJQKqS6EASE47B9CDbQBipBUEUG5/BGQ2lQCC/
Lz/mZ6jBxvrnQBKegb6dK6/BQj2uQDg23r/cgKnBHVXXQHV1tT/ATZDBnk+TQEI9+UBkjX3Bfwiw
QA/t1EBh8HTBKuWmQPrH2EASfobBvC/eQLokmj47K4jBl3akQAXAHkF/xafBL27BQER6/UD80bHB
zgmLQF0b8j8k56TBW7ygQNrVkUAO0Y7BMPHwQAjUHkHCWK7BU+yiQKvTKkC+AZzBgbyHQBsIdUAF
p5fBDbPMQHt1EEFSpqnBabGtQLBg3z8fOZPBAByKQKkQuUBObovBsF/2QHtd9T8mypTByEZ+QAt9
l0B/N6DBnxIIQXLjn72d8LLBEO+eQLQSP8CS7qfBcHXjQGvXKUEQF7fBboMaQSCX50DuEJLBLnD+
QMrQ0EB6y4TBG3cPQZwQBkEvxqLBL8SaQCLOAEFfOZnBGafaQCxE7j9pDa7BbjxqQL5LQr+TqqPB
zVjrQOFUGsCKi6/BXGJhQGfS+EDWX3rBIOSeQEk9DUEean3Brh3QQFw73EDPr27BvOqhQDGTukCH
pWvBzEwAQYD9tD1rcYfB9ojRQLlYHT92WYDBU1vNQMLyGr+G2IrBYdiaQNE7JkFeXa/BIxKKQH/R
FEEau6TB5BisQIxGK0Ex5KHBtBW3QCweBkEUYbnBnMjdQHRy6UCwRrPBXGmnQNSJ6UArna7BVPeF
QOGFI0BIzqvBC9BXQL6rxj9M0qHByD6kQDXOeEAr5IfBAJXAQByHmkAO35HBv0P7QJpJKkGsL6jB
jA4GQReeFEFUorDBXIzAQBNPRUC+ap/BE55TQBFzW0DtTJTB+qWVQOsqqj+lH4/BlSJnQJ4PsUDy
HYbBia94QCNSxkD12JHBmV1fQIoRiUDMraXBR10HQZ0E8EBITpTB7YzxQBck4kAzgIzBOAAAQTta
AkE+mp3BkJG2QDbl/EC7aJfB8uvNQDh0aj92O63BKu2VQOcAGr9/BKfBSl/YQOK6v7/oWq7BrF7F
QMXA6EA1CY7Biq3TQM0mBkH+Lp/BCyilQMAmNj/doKjBYJnnQKJlQL4CA7DBm3OvQF0c2r/W6anB
7kbaQMr4sj+yMZHBUDiRQAwq90CaaXzBQwuwQDT+00CFcnTBG/CkQD2n10CuJIbBVkfjQEOioj77
4IjB/je4QC4S/0DGyLHBsSTlQIxUIEHLZq7BAu2KQMKr8j/y0aTBkDygQK6MkEB+ao7BpzmaQBec
HkFHYKfBUA+jQPqjKkAz7ZvB9e2GQFB3cUCZGJfBQx/DQLoLEUGofqnBV/qvQNjM3D+PcZPBXbCI
QBjrtkA+04rByCj4QMThAUDaEJXByNR2QG3vlUD5ZJ/BAokHQeDfHjxTJ7TBHOWgQLx+PcBlSajB
vFOhQAE9LUF+g5/BZ0sYQUbM6kCpK5PBEu38QK900kCtWIXBY1cLQeV0B0HrmaPBPJeUQClRAEGT
rpjBS2fZQNG09T8Yn67Bi1VtQOPXQr+Rj6PBOxHsQMcIFsBrfbDBmtNdQDVM9UCylXjB8W2bQPJs
DEGeZ3zBokDQQI6Q3EBZyW7BfryjQN8CuUBt92rB3/gCQbpjgj7Rb4fBJ9bSQHTpET9AXYHBNInX
QKSwJr9/1ovBXWOsQIsQB0EHK7nBwx7VQLlM7ECLk7PBGmOfQKzW6UBdgq7BSy/YQAC9J0F0srXB
FzLtQFXiLEFXkqjB3w8BQe8tF0GiZ7DB2wOFQN2fJEDGmavBdGVYQKR/xD9YpKHB9DqlQIQtdkCl
jYfB5Wu/QAJVmkAGr5HBqDGRQA8EJ0E8xa7BFAiAQAntE0EL7KTBEba/QCI+SEAudJ/BHYdUQFV4
VECDf5PB6f6YQOoBpj8JDo/BxXJmQCMarkACUYXBIhZzQA2lw0AAHZHB2oFXQL40h0B4xKTBaZsI
Qfo+60A3MZXBX6TzQNNf30DxRY3BGZEBQeh5/0Bsnp7BmKW5QHLE+0DVP5jB7xnNQJbsOj9lwKzB
yGCTQDzQNL9XTabBmdLUQMYy2b9mba3B7sLHQCWp50Ah0Y7ByiPXQO5uBEG0MKDBpg6kQOrIFT/A
J6jBDYTlQNzF0b6JUq/BzLGrQOQg7L/P9qjBg9jZQDLOsT/GrJDBzS+TQLpJ+ECdc37BpU2xQKXz
1EDE+XXB5LmmQALU10By8YbBKG3iQCr5nD63WojBC27pQOzSHUFVmK/Bq1WeQIKAHEH55KjB0teK
QPm25z/FtKTBAhahQEj/j0Cg0o7Bili9QGSf+UC99bLBgkWjQHl4JkCD+JvB2YmHQDPfbkBlV5fB
fSfHQBywDkHsuKrBp6+vQE8J1z+XUpPBXCCKQMs6t0BzkYvBzLf3QOZnA0BNLpTBG0R4QK/Jk0C9
0p/BE5EGQQzfib7EhrPBX8WbQHsnRcDgHKfB4EyfQIr33UBbL6/BtW4ZQWvW5EBFDJTBs3z+QKP1
z0D4B4bBswgNQXj5A0GsuaTBeN2XQDGjAEHKcZnBbMbZQLes2z/KS67BA91nQPxPUr+21qLB0Y7n
QBmBJMB+Za/BDY9hQHUd90DByHrBbu2dQPvmDEHfu37BKIjRQDc+3UBOPXDBQGKkQLaNukAxSmzB
rm0CQYPriz48i4bBSXrQQBiqCD+CAYHBwx/YQKMhK7+KgovBaRzdQMrWJEEbDrfBjcHwQL6tKkHE
3qnBZloDQVmsFEEPT7HBovuTQNV/I0EHi7DBKZ6EQO1eEkGcqaXBvI+lQCVlKUHoLqPBtcGFQK2M
HUCZrqvBf2hXQDm/vj/nf6HB1pqlQJS7dkBiyIfBGnzAQAfVmECBIZLBhnuxQMorBEENYrrBtfPa
QFfR50B1pbTBIh3AQF2qQkB6lJ/BwJhVQLsbU0BioZPBIm+YQOKAnj/QHI/BNiNoQNBnr0DHHIbB
tXZ3QGarw0AwAJLB6KxYQGCUhEBbFqXB

> <OMEGA_E>
oJF9PvwphT6wgFo+

> <OMEGA_NBR>
    109980

$$$$
50168363
  -OEChem-04172616093D

 66 67  0     1  0  0  0  0  0999 V2000
    8.5290    7.4124  -18.5065 C   0  0  0  0  0  0  0  0  0  0  0  0
    8.0942    8.0340  -19.6896 C   0  0  0  0  0  0  0  0  0  0  0  0
    7.6027    7.0285  -17.5234 C   0  0  0  0  0  0  0  0  0  0  0  0
    5.7895    7.8468  -18.9339 C   0  0  0  0  0  0  0  0  0  0  0  0
    6.4749    0.8486  -21.6009 C   0  0  0  0  0  0  0  0  0  0  0  0
    4.6684   -0.6182  -20.8582 C   0  0  0  0  0  0  0  0  0  0  0  0
    6.7446   -1.5742  -21.7145 C   0  0  0  0  0  0  0  0  0  0  0  0
    6.7183    8.2941  -19.9057 C   0  0  0  0  0  0  0  0  0  0  0  0
    6.2189    7.2470  -17.7250 C   0  0  0  0  0  0  0  0  0  0  0  0
    5.1817    0.6819  -21.0562 C   0  0  0  0  0  0  0  0  0  0  0  0
    7.2575   -0.2784  -21.9207 C   0  0  0  0  0  0  0  0  0  0  0  0
    5.4483   -1.7436  -21.1893 C   0  0  0  0  0  0  0  0  0  0  0  0
    6.7864    1.3785  -18.1154 C   0  0  0  0  0  0  0  0  0  0  0  0
    7.0241    0.3166  -17.0463 C   0  0  0  0  0  0  0  0  0  0  0  0
    5.9919    7.8645  -22.2755 C   0  0  0  0  0  0  0  0  0  0  0  0
    7.2842    9.9710  -21.7618 C   0  0  0  0  0  0  0  0  0  0  0  0
    4.9161    9.7581  -21.0042 C   0  0  0  0  0  0  0  0  0  0  0  0
    5.7588    6.1540  -15.4133 C   0  0  0  0  0  0  0  0  0  0  0  0
    4.2795    7.9705  -16.2776 C   0  0  0  0  0  0  0  0  0  0  0  0
    4.3744    1.8921  -20.6167 C   0  0  0  0  0  0  0  0  0  0  0  0
    5.0267    4.5575  -17.8479 C   0  0  0  0  0  0  0  0  0  0  0  0
    5.1126    2.6706  -19.4984 C   0  0  1  0  0  0  0  0  0  0  0  0
    4.2362    3.7993  -18.9243 C   0  0  2  0  0  0  0  0  0  0  0  0
    6.2350    8.9620  -21.2155 C   0  0  0  0  0  0  0  0  0  0  0  0
    5.1602    6.7717  -16.7103 C   0  0  0  0  0  0  0  0  0  0  0  0
    5.4781    1.7401  -18.4155 N   0  0  0  0  0  0  0  0  0  0  0  0
    4.2968    5.7680  -17.3929 N   0  3  0  0  0  0  0  0  0  0  0  0
    7.7442    1.9594  -18.6151 O   0  0  0  0  0  0  0  0  0  0  0  0
    3.8921    4.6953  -19.9796 O   0  0  0  0  0  0  0  0  0  0  0  0
    8.5072   -0.1173  -22.4115 F   0  0  0  0  0  0  0  0  0  0  0  0
    4.9598   -2.9878  -20.9849 F   0  0  0  0  0  0  0  0  0  0  0  0
    9.5821    7.2288  -18.3525 H   0  0  0  0  0  0  0  0  0  0  0  0
    8.8161    8.3162  -20.4417 H   0  0  0  0  0  0  0  0  0  0  0  0
    7.9473    6.5651  -16.6107 H   0  0  0  0  0  0  0  0  0  0  0  0
    4.7321    7.9656  -19.1189 H   0  0  0  0  0  0  0  0  0  0  0  0
    6.8639    1.8414  -21.7724 H   0  0  0  0  0  0  0  0  0  0  0  0
    3.6763   -0.7502  -20.4524 H   0  0  0  0  0  0  0  0  0  0  0  0
    7.3452   -2.4378  -21.9590 H   0  0  0  0  0  0  0  0  0  0  0  0
    8.1040    0.2161  -16.8624 H   0  0  0  0  0  0  0  0  0  0  0  0
    6.5199    0.6146  -16.1152 H   0  0  0  0  0  0  0  0  0  0  0  0
    6.6197   -0.6468  -17.3902 H   0  0  0  0  0  0  0  0  0  0  0  0
    5.6476    8.3281  -23.2117 H   0  0  0  0  0  0  0  0  0  0  0  0
    6.9290    7.3188  -22.4596 H   0  0  0  0  0  0  0  0  0  0  0  0
    5.2260    7.1649  -21.9096 H   0  0  0  0  0  0  0  0  0  0  0  0
    6.9082   10.4251  -22.6905 H   0  0  0  0  0  0  0  0  0  0  0  0
    7.4599   10.7582  -21.0139 H   0  0  0  0  0  0  0  0  0  0  0  0
    8.2274    9.4437  -21.9675 H   0  0  0  0  0  0  0  0  0  0  0  0
    4.6072   10.2160  -21.9555 H   0  0  0  0  0  0  0  0  0  0  0  0
    4.1282    9.0756  -20.6530 H   0  0  0  0  0  0  0  0  0  0  0  0
    5.0797   10.5461  -20.2543 H   0  0  0  0  0  0  0  0  0  0  0  0
    4.9428    5.8416  -14.7450 H   0  0  0  0  0  0  0  0  0  0  0  0
    6.3742    5.2803  -15.6737 H   0  0  0  0  0  0  0  0  0  0  0  0
    6.3827    6.9035  -14.9045 H   0  0  0  0  0  0  0  0  0  0  0  0
    3.5249    7.6293  -15.5537 H   0  0  0  0  0  0  0  0  0  0  0  0
    4.9120    8.7408  -15.8121 H   0  0  0  0  0  0  0  0  0  0  0  0
    3.7765    8.3931  -17.1598 H   0  0  0  0  0  0  0  0  0  0  0  0
    4.2233    2.5573  -21.4797 H   0  0  0  0  0  0  0  0  0  0  0  0
    3.3981    1.5558  -20.2377 H   0  0  0  0  0  0  0  0  0  0  0  0
    5.1883    3.8921  -16.9870 H   0  0  0  0  0  0  0  0  0  0  0  0
    5.9986    4.8608  -18.2644 H   0  0  0  0  0  0  0  0  0  0  0  0
    6.0241    3.1150  -19.9247 H   0  0  0  0  0  0  0  0  0  0  0  0
    3.3335    3.3626  -18.4721 H   0  0  0  0  0  0  0  0  0  0  0  0
    4.7424    1.3460  -17.8647 H   0  0  0  0  0  0  0  0  0  0  0  0
    3.8792    6.2025  -18.1909 H   0  0  0  0  0  0  0  0  0  0  0  0
    3.5808    5.4831  -16.7555 H   0  0  0  0  0  0  0  0  0  0  0  0
    3.4031    4.2273  -20.6462 H   0  0  0  0  0  0  0  0  0  0  0  0
  1  2  1  0  0  0  0
  1  3  2  0  0  0  0
  2  8  2  0  0  0  0
  3  9  1  0  0  0  0
  4  8  1  0  0  0  0
  4  9  2  0  0  0  0
  5 10  1  0  0  0  0
  5 11  2  0  0  0  0
  6 10  2  0  0  0  0
  6 12  1  0  0  0  0
  7 11  1  0  0  0  0
  7 12  2  0  0  0  0
  8 24  1  0  0  0  0
  9 25  1  0  0  0  0
 10 20  1  0  0  0  0
 11 30  1  0  0  0  0
 12 31  1  0  0  0  0
 13 14  1  0  0  0  0
 13 26  1  0  0  0  0
 13 28  2  0  0  0  0
 15 24  1  0  0  0  0
 16 24  1  0  0  0  0
 17 24  1  0  0  0  0
 18 25  1  0  0  0  0
 19 25  1  0  0  0  0
 20 22  1  0  0  0  0
 21 23  1  0  0  0  0
 21 27  1  0  0  0  0
 22 23  1  0  0  0  0
 22 26  1  0  0  0  0
 23 29  1  0  0  0  0
 25 27  1  0  0  0  0
  1 32  1  0  0  0  0
  2 33  1  0  0  0  0
  3 34  1  0  0  0  0
  4 35  1  0  0  0  0
  5 36  1  0  0  0  0
  6 37  1  0  0  0  0
  7 38  1  0  0  0  0
 14 39  1  0  0  0  0
 14 40  1  0  0  0  0
 14 41  1  0  0  0  0
 15 42  1  0  0  0  0
 15 43  1  0  0  0  0
 15 44  1  0  0  0  0
 16 45  1  0  0  0  0
 16 46  1  0  0  0  0
 16 47  1  0  0  0  0
 17 48  1  0  0  0  0
 17 49  1  0  0  0  0
 17 50  1  0  0  0  0
 18 51  1  0  0  0  0
 18 52  1  0  0  0  0
 18 53  1  0  0  0  0
 19 54  1  0  0  0  0
 19 55  1  0  0  0  0
 19 56  1  0  0  0  0
 20 57  1  0  0  0  0
 20 58  1  0  0  0  0
 21 59  1  0  0  0  0
 21 60  1  0  0  0  0
 22 61  1  0  0  0  0
 23 62  1  0  0  0  0
 26 63  1  0  0  0  0
 27 64  1  0  0  0  0
 27 65  1  0  0  0  0
 29 66  1  0  0  0  0
M  CHG  1  27   1
M  END
> <OMEGA_C>
pnYIQTMy7UBhDZTBxIEBQSaLAEFnhJ3Bl0nzQCnp4EDlL4zBwkO5QNsY+0CueJfBfDLPQMA+WT+9
zqzBmGOVQHtCHr+y3abBxtPXQCp/yb9Bt63BUfzWQMW0BEHTPp/B7ADHQJXn50DQzI3BNdClQMqS
Lj8nc6jBYj3oQHaHjr6OXa/BY1iuQPQu37+3g6nBICrZQA5xsD9C7JDBtcXgQMYYoj7WXojBcr2/
QFGq+0AiNLLBfBjpQFSJH0E9GK7Bu1CdQF8hHEGmCKjBsEe4QKTtxED+nHbB6/GIQIsO/0BzOILB
BPuLQMYv8j8Y76TBtdqgQEjXkUB9yI7BmZqjQLbrKkC1/JvB646HQM0nc0ANZZfBvoTHQI1kD0FK
uanBHiClQA6y2EDGroXB10yvQNu73j/3UpPBnn+JQH2TuECaJIvBMdD3QIzO+j/O65TB7hh5QANA
lkBS1p/Bhh0IQdtR8L25SrPBobaeQGc3P8AU4afBGFAZQZBS50D80ZLBxQ4NQQAPBUGfiKPBHVD+
QAgV0kDD4oTBq22XQErm/kCH85jBS6XbQM2z6z/dLa7B7EhrQDcNQL9tnqPB/wvrQGMFHMAQrK/B
4qkBQW9CXT4a5obB1aLQQExTHT/y64DBTNTTQP+TJb86H4vBWLm0QPg/BUGZsbnBurrdQNEz6kBF
rbPBDjunQJBG5UDvRq/BuA/dQDHNJkEehrXBL7fuQMYhLEFrHKjBf6MDQTIZF0Fova/BDG6TQK50
I0HjpK/BQxqEQKU1EUFlOaXB8YyiQMG8KEHMCKLByCueQCHuukB562vBp/nLQAv4qEBux3rBET/M
QLPp3EDQeG7BWZdhQEwj9EDD23jBRS+dQEHaC0Fb/nzBXLFxQDZKBkFAR4nBZiWHQEmrI0BY1qvB
+nlZQM0jxz/B5qHBjQamQGUYeUBq5YfBPPS/QAqMm0B9HZLBUMXAQDxcR0DdZZ/BL1hVQKg1V0Dx
xpPBXsGXQC1LrD/96o7BN0R4QNJ6xkDfhpHBlyxlQGJ1r0BaC4bBt8tZQEpGh0BoK6XBBbsIQXSv
7UA7x5PB9P0BQVCjAEH2UZ3B/HLzQIBi4UCAAYzBzue5QKGv+kDZkJfB3XXPQP5JWz+r0KzB3reV
QBiPHb+g6qbB4UvYQH9dyL+ou63BkvvXQB6TBEECPJ/ByzfHQGr450B1zI3BvA6mQM6WLz9reqjB
LKToQFw0ib5pWq/BmMKuQMmF3r9JkqnBycDZQJS3sz9p/JDB2rfhQFTLtz6vUojBsqTrQJZOHkEi
eq7BP0ugQKI+HUFA2afBai++QCGD+0CKBrLBDL+3QCuVxUDfj3bBq/eIQHW8/0BlaoLBMBSMQHZM
8j+896TB6yihQARmkkBt9o7BrKqjQIBTK0C7C5zB2mWHQNPWckCgXJfBFs7IQFRMD0Fou6nB5QGl
QEMQ2UDGu4XB58WvQE333z/5ZZPBJneJQBm6uEDnKIvBkjP4QHYn/j+zEpXBNsZ1QImVlUDTxp/B
+FgIQaje0r3aOrPBGiGfQEXzPsCA/KfBbI8ZQR0O6EA2apLBbLENQec1BUGqQKPBviX+QJ3a0kAU
o4TBzCGYQLr//UBpM5nBftDbQODf7D+IL67BE+5rQCsRQL9HrqPBZZvrQL1YG8Bkrq/BHSgCQa3Z
iT6w3YbBMpjRQBx7Kj9c5YDB9vrUQN20HL9H9YrBravfQKeYJUEV6LXBRT/zQLr2KkFMqqjBZVYE
QUD7FEEfN7DBRF2WQAWeJEGnca/BsD2GQNMgE0EIx6TBmpynQPfaKUEs/aHB5l6zQMFEBUGhgrnB
tvLaQMo36ECbmLPBQa2kQKvJ5kDl367BiW2dQDTJu0Bb82vBWXjLQOCHqUCmiHrBhJrLQB2o3UCD
a27BWA1hQCct9UCYUXnBgj2dQJkuDEGxY33BcHVyQMyRBkHLiYnBHBaHQAaTI0Dm4KvBbNNZQArF
xj+56aHBvKCnQCukekBMGojBGp+/QEu4nEDdiZLBfZ/AQEplSEBQfJ/B12NWQIMHVkAnhZPBAmKY
QA4prD+qAI/B0hV3QPmkxkCBd5HBV/VlQGskr0Au/4XBoelVQIAghkAv+KTB

> <OMEGA_E>
pAKVPszolT4=

> <OMEGA_NBR>
    112412

$$$$
50168364
  -OEChem-04172616093D

 60 61  0     1  0  0  0  0  0999 V2000
    8.4517    7.3302  -18.4091 C   0  0  0  0  0  0  0  0  0  0  0  0
    7.4785    7.0032  -17.4517 C   0  0  0  0  0  0  0  0  0  0  0  0
    8.0807    7.9713  -19.6067 C   0  0  0  0  0  0  0  0  0  0  0  0
    5.7498    7.9461  -18.8986 C   0  0  0  0  0  0  0  0  0  0  0  0
    6.4510    0.8090  -21.6119 C   0  0  0  0  0  0  0  0  0  0  0  0
    4.6344   -0.6131  -20.8090 C   0  0  0  0  0  0  0  0  0  0  0  0
    6.6730   -1.6201  -21.6952 C   0  0  0  0  0  0  0  0  0  0  0  0
    6.1284    7.3113  -17.6949 C   0  0  0  0  0  0  0  0  0  0  0  0
    6.7266    8.3133  -19.8620 C   0  0  0  0  0  0  0  0  0  0  0  0
    5.1676    0.6740  -21.0371 C   0  0  0  0  0  0  0  0  0  0  0  0
    7.2054   -0.3371  -21.9312 C   0  0  0  0  0  0  0  0  0  0  0  0
    5.3852   -1.7577  -21.1406 C   0  0  0  0  0  0  0  0  0  0  0  0
    6.8642    1.4245  -18.1497 C   0  0  0  0  0  0  0  0  0  0  0  0
    7.1250    0.3818  -17.0674 C   0  0  0  0  0  0  0  0  0  0  0  0
    6.0472    7.8403  -22.2439 C   0  0  0  0  0  0  0  0  0  0  0  0
    7.4331    9.8894  -21.7681 C   0  0  0  0  0  0  0  0  0  0  0  0
    5.0352    9.8254  -21.0706 C   0  0  0  0  0  0  0  0  0  0  0  0
    4.3897    1.9045  -20.6040 C   0  0  0  0  0  0  0  0  0  0  0  0
    5.0740    6.8172  -16.7339 C   0  0  0  0  0  0  0  0  0  0  0  0
    5.0708    4.6142  -17.8778 C   0  0  0  0  0  0  0  0  0  0  0  0
    5.1535    2.6941  -19.5092 C   0  0  1  0  0  0  0  0  0  0  0  0
    4.2723    3.8075  -18.9138 C   0  0  2  0  0  0  0  0  0  0  0  0
    6.3171    8.9591  -21.2120 C   0  0  0  0  0  0  0  0  0  0  0  0
    5.5493    1.7744  -18.4296 N   0  0  0  0  0  0  0  0  0  0  0  0
    4.2707    5.7709  -17.4028 N   0  3  0  0  0  0  0  0  0  0  0  0
    7.8094    1.9999  -18.6787 O   0  0  0  0  0  0  0  0  0  0  0  0
    3.8485    4.6748  -19.9646 O   0  0  0  0  0  0  0  0  0  0  0  0
    8.4469   -0.2067  -22.4510 F   0  0  0  0  0  0  0  0  0  0  0  0
    4.8762   -2.9893  -20.9109 F   0  0  0  0  0  0  0  0  0  0  0  0
    9.4886    7.0894  -18.2265 H   0  0  0  0  0  0  0  0  0  0  0  0
    7.7658    6.5166  -16.5314 H   0  0  0  0  0  0  0  0  0  0  0  0
    8.8367    8.2060  -20.3414 H   0  0  0  0  0  0  0  0  0  0  0  0
    4.7072    8.1544  -19.0882 H   0  0  0  0  0  0  0  0  0  0  0  0
    6.8541    1.7918  -21.8068 H   0  0  0  0  0  0  0  0  0  0  0  0
    3.6492   -0.7203  -20.3795 H   0  0  0  0  0  0  0  0  0  0  0  0
    7.2522   -2.4983  -21.9395 H   0  0  0  0  0  0  0  0  0  0  0  0
    8.2084    0.2869  -16.9024 H   0  0  0  0  0  0  0  0  0  0  0  0
    6.6378    0.6946  -16.1321 H   0  0  0  0  0  0  0  0  0  0  0  0
    6.7165   -0.5883  -17.3869 H   0  0  0  0  0  0  0  0  0  0  0  0
    5.7560    8.2895  -23.2048 H   0  0  0  0  0  0  0  0  0  0  0  0
    6.9590    7.2404  -22.3811 H   0  0  0  0  0  0  0  0  0  0  0  0
    5.2346    7.1943  -21.8801 H   0  0  0  0  0  0  0  0  0  0  0  0
    7.1051   10.3262  -22.7228 H   0  0  0  0  0  0  0  0  0  0  0  0
    7.6326   10.6947  -21.0458 H   0  0  0  0  0  0  0  0  0  0  0  0
    8.3512    9.3050  -21.9286 H   0  0  0  0  0  0  0  0  0  0  0  0
    4.7791   10.2640  -22.0463 H   0  0  0  0  0  0  0  0  0  0  0  0
    4.2036    9.1953  -20.7224 H   0  0  0  0  0  0  0  0  0  0  0  0
    5.2152   10.6303  -20.3428 H   0  0  0  0  0  0  0  0  0  0  0  0
    4.2361    2.5572  -21.4760 H   0  0  0  0  0  0  0  0  0  0  0  0
    3.4140    1.5901  -20.2049 H   0  0  0  0  0  0  0  0  0  0  0  0
    5.5571    6.3968  -15.8395 H   0  0  0  0  0  0  0  0  0  0  0  0
    4.4215    7.6525  -16.4398 H   0  0  0  0  0  0  0  0  0  0  0  0
    5.3161    3.9664  -17.0233 H   0  0  0  0  0  0  0  0  0  0  0  0
    5.9999    4.9798  -18.3394 H   0  0  0  0  0  0  0  0  0  0  0  0
    6.0483    3.1490  -19.9592 H   0  0  0  0  0  0  0  0  0  0  0  0
    3.4037    3.3491  -18.4184 H   0  0  0  0  0  0  0  0  0  0  0  0
    4.8272    1.3774  -17.8630 H   0  0  0  0  0  0  0  0  0  0  0  0
    3.5864    5.4363  -16.7549 H   0  0  0  0  0  0  0  0  0  0  0  0
    3.8113    6.1814  -18.1905 H   0  0  0  0  0  0  0  0  0  0  0  0
    3.3547    4.1779  -20.6063 H   0  0  0  0  0  0  0  0  0  0  0  0
  1  2  2  0  0  0  0
  1  3  1  0  0  0  0
  2  8  1  0  0  0  0
  3  9  2  0  0  0  0
  4  8  2  0  0  0  0
  4  9  1  0  0  0  0
  5 10  1  0  0  0  0
  5 11  2  0  0  0  0
  6 10  2  0  0  0  0
  6 12  1  0  0  0  0
  7 11  1  0  0  0  0
  7 12  2  0  0  0  0
  8 19  1  0  0  0  0
  9 23  1  0  0  0  0
 10 18  1  0  0  0  0
 11 28  1  0  0  0  0
 12 29  1  0  0  0  0
 13 14  1  0  0  0  0
 13 24  1  0  0  0  0
 13 26  2  0  0  0  0
 15 23  1  0  0  0  0
 16 23  1  0  0  0  0
 17 23  1  0  0  0  0
 18 21  1  0  0  0  0
 19 25  1  0  0  0  0
 20 22  1  0  0  0  0
 20 25  1  0  0  0  0
 21 22  1  0  0  0  0
 21 24  1  0  0  0  0
 22 27  1  0  0  0  0
  1 30  1  0  0  0  0
  2 31  1  0  0  0  0
  3 32  1  0  0  0  0
  4 33  1  0  0  0  0
  5 34  1  0  0  0  0
  6 35  1  0  0  0  0
  7 36  1  0  0  0  0
 14 37  1  0  0  0  0
 14 38  1  0  0  0  0
 14 39  1  0  0  0  0
 15 40  1  0  0  0  0
 15 41  1  0  0  0  0
 15 42  1  0  0  0  0
 16 43  1  0  0  0  0
 16 44  1  0  0  0  0
 16 45  1  0  0  0  0
 17 46  1  0  0  0  0
 17 47  1  0  0  0  0
 17 48  1  0  0  0  0
 18 49  1  0  0  0  0
 18 50  1  0  0  0  0
 19 51  1  0  0  0  0
 19 52  1  0  0  0  0
 20 53  1  0  0  0  0
 20 54  1  0  0  0  0
 21 55  1  0  0  0  0
 22 56  1  0  0  0  0
 24 57  1  0  0  0  0
 25 58  1  0  0  0  0
 25 59  1  0  0  0  0
 27 60  1  0  0  0  0
M  CHG  1  25   1
M  END
> <OMEGA_C>
RzoHQUSR6kDlRZPBh0/vQB8a4EAOnYvBjkoBQYoU/0CW2pzBcP63QMFG/kBQMJfBVW7OQNQbTz8x
5azBtUyUQPT0HL+7eKbBUYnVQOZgz7/Ej63BwhvEQOf16UAzj43BL0DXQCoDBUFJ5Z7B91ylQD6N
LD/pS6jB1JLmQF2brL4Xc6/BVlOsQBf94L/iH6nBMKfbQKtVtj+RMpHB5//jQMx9wz4BiojB4ILB
QGzj+kCC87HBINztQOU6HkEBJa7BpyChQL80HUGrkKjBT3iMQBTF8z/41KTBcV6iQF4m2kAL34XB
1kOiQImnk0C+BY/BNumkQOJsLEDkEpzBd7aIQFGtc0CPT5fBeCXKQGpYD0EWsqnBp5OxQFQg4z++
b5PBzqmIQI6ruEDjOIvBxOb5QFf+/z//bZXBeE52QDGYlUCVt5/BgCYHQZagU761m7PB7gmcQENQ
P8CaSafBKtEXQfjb4kDsz5HBsYH4QLCH0EA3QITBS2MNQdhLA0Efu6LBRKGWQI94AkGetJjBDlXb
QPVZ5T9VdK7B6YxpQDxjOL87CaPBXBLoQJjkH8AfhK/Bm1UDQZfnkj4nOIfBBmnUQMjSMT95DoHB
yu3WQAuYFr9wGIvBSDG4QMShBEF+o7nBabDeQKKx50BoDLPBJ4KnQFI35kBiCq/ByVzjQEc4JUFT
yLXBoz70QIkdK0HcXajBWJ4FQXbhFEG3ba/BcO6YQIU5JEHhXrDBlYOGQNofE0Fqx6XB6eKmQIcV
KkEBvqLBy42HQHyoI0DQzqvBtH9aQCSHyz+co6HB3dOxQMKyzECvbn3BIX2NQE3h9EDHhIPBrx2q
QEPafUCqL4jBG/+/QORan0ARt5LBRYvBQCKJSUBwrJ/Bs9VZQLRXVkDxWJPBd3iaQCxNsD9/547B
BYhlQGj2rUAACobB8exzQDzOxUAWhpHBmbJWQKqxhUCe2aTB+S0HQYp060AzFJPBdRPvQB/e4EAQ
d4vBr0kBQeNm/0AivZzBgcW3QAaa/UBIRJfBukHOQEpHUj9h1KzBX2qUQELmHL9JaqbBH37VQJ2O
zb9AuK3BKc/DQE/36UAxi43BXCfXQN7HBEFw6p7Bx0ylQJhvLT9YMajBWm/mQJR2o76RgK/Brm2s
QFVJ4L+bNqnBtsXbQJfvvD8Wx5DBBk3kQLtJrz6V5IjBSZ/uQKu2HEEknq7BJKiiQPPqHUH+bajB
Fpe+QLn5+UCtvrHBfUWMQCB68z94sKTBXwaiQO9B2kC52oXB3vihQFuyk0CL8I7Bj82kQFKKLEAt
+pvB252IQMoFdEAcSJfBsgHKQJj1DkEJvqnBW5OxQM7o4z+LT5PB2VeIQNK8uEBtL4vBoNb5QNOC
/j+ykpXB3jB3QNjRlUA4u5/Bcg0HQa4aOL61rLPBqEKcQAAtP8B1dKfB2MoXQdZF5EAxhZHB7Df4
QEvI0UAFCYTB5nENQQqKA0E/kqLBC12WQMbJAUH/5ZjBEQzbQNpO5z/KU67BeRdqQP79Ob+/56LB
SfznQNC6HsDazq/BPmoDQS16Bj44n4jB2S/ZQFJCIz9n4oDBTQbTQIxAD79RfIvBRfTjQIOaI0F6
Q7bBIfL2QIGvKUHXC6nBsW8FQTKUEkFU/a/B1TGaQL3aJEFaPLDB2WeHQIOnFEHqVaXBsn+qQJLW
KkH1yKLBDju1QNwaBEERcrnB35LaQKgm5UDr7LLBuNejQGv55kCsjq7BiAiHQCJzI0ALqKvB1Wda
QE55yj81caHBnHGxQNnizEB/Xn3BmiSNQPYF9UA1h4PBrYypQLHVfUAEGIjB/9m/QCFWn0C1kZLB
3mjBQHZ4SUDXnJ/B9yVZQLwCV0AEZJPBzm+aQNX8rD/o+o7BE9FkQCgarkCtAIbBNGBzQH7KxUAJ
gZHB+M5XQBUAhkDJ5qTBvykHQbrW6UAqWJPBRCTvQFOX30DfrIvBYUEBQWUV/kB99pzBLtu3QPQv
/UA/WJfBuYKUQGLhGb/1g6bBK4POQKBsVT/706zBbhLWQMz4y7+oja3B4O7DQDpM6UCiqI3BDC3X
QOZwBEFjCp/BBlqlQHuBMD9KTajBws+sQMq83r9GKanB2uPmQBMDnb7bZa/BDoPbQNoGvT8F6JDB
yVjkQFR0qT5cKYnBFY7AQO3R+UBeCbLB9S3uQClRHUFMZa7B4LGhQAMNHUEkm6jBZTCMQD4F9T9m
2KTBMjGiQLUF2kDn5YXBM5WhQA8Zk0CDz47BsHykQLyyLECdCpzBxlKIQGzQc0CaRJfBmR3KQPrJ
DkEh1anBKESxQHy24j+cdZPBPT2IQPluuEC7HYvB7nv5QLwCAUBHjJXBhGh3QIQtlkA7qJ/B1qqc
QPRmPsAxZafB80gHQaKQKr55kLPBfb8XQQoq4kAo3JHBOFH4QEdM0EBMRoTBiV4NQaG/AkHC1qLB
snmWQHPIAUEe6pjBTeZpQMAYN7+IHaPBLE7bQAPl6D/iUa7B4M7oQCntHcCVga/B+HwDQWd/DT7z
04jBerzYQJQ8Gj+gJIHBjLDTQCUJE78f7YvBhEK3QFcgBEEYuLnBA1bdQCES5kBLLLPBUESmQGit
5UAPDq/Bq6jjQHJSJEE2B7bBCjb1QIwzKkETqqjBZJcFQa2zE0E9uK/B7GiZQM0ZJEELZrDB59OG
QM8+E0EkuqXBSjioQM7nKUEi0qLBMVOHQHh8JEDzzavBveRZQAQszD85sqHBfqyxQJ7XzEDZbX3B
1HuNQPT59EB3nIPBNXqoQFE6fEBt9YfBgNO/QP1enkB4UpLBTSDBQOf3SUAvnp/BCTtYQKumVkB3
eJPBxSiaQH3bqT9uN4/BhrBkQKkfrkDK4YXBlxJzQMdRxUAQc5HBZyVYQOawhkCw5qTBKSkHQdU4
6kD3N5PBxOzuQEMu4EColovBsmUBQRtX/kBd4JzBzQK4QAHR/UCuXZfB+R6VQH2hFr/Ij6bB/dnO
QMsQWj8/9KzB3rLWQNaRyb/6oq3BRczDQMP46UB6po3BW4rXQAahBEEeCJ/B0NClQGwRND9pX6jB
dH6tQHbT3L8lOKnB4VrnQHyYkr7ega/BRLfbQMA6uj+K5ZDB9CnkQHNvnj5UHYnBC1fvQMsRHUHn
fK7Bxu+iQPedHUE1pKjB+mHAQJMz+kCIBLLBm7WMQLpc9j/P2KTB0NOhQDSu2kAm9oXB7NGhQCCr
k0DU2o7B5OqkQLLZLEBR+JvBTYaIQISVc0DxK5fBQsXKQIXzDkGC26nBZIyxQGZK4j/OZ5PBhTSI
QOX3uEBsO4vB/tr5QCAm/T/RlpXBjPR1QAGdlUCNkJ/BR4idQCCGPcB2Z6fBw4YHQSjvEb4op7PB
mLcXQeF84kDRrJHBot/3QIb70ECGKITBupcNQXrIAkGPuaLB6bGWQCEtAkEN+5jBaTxrQOd/NL85
IqPBgXPbQHZb6z8ygK7Bi4TpQHedHMDDlq/Bl1oDQVHmzz0+z4jBJ9DYQO8+Fz8zGIHBFg3TQDkL
F7/P04vBZgblQE0RJEG1I7bBHOj2QK72KUEKzqjBHPsFQY4pE0HVyq/B0M+aQEqlJEEKc7DBeryH
QLwcFEHitKXBzAuqQOh6KkF256LBbk63QF1YBEG/tbnBmbzcQFfX5UCoJrPBHLelQL6o5kBC/67B
t++HQH+eJUAixKvBy9laQHM4zT8lvaHBmhGxQAqczUCXd33B4fGMQE2W9UBVvYPBayapQIg/fkC3
8ofBC9W/QCEMn0Cvd5LBq5fBQKZrSkBQfZ/B1H9ZQOXcVUCaPpPBaViaQNugqj84Io/B20dkQBSd
rkBpDIbBI2tzQF3FxUAPm5HBY6FWQDy5hUAQuqTB

> <OMEGA_E>
+JqQPihmkz5ofZQ+XKCWPg==

> <OMEGA_NBR>
    116616

$$$$
50168373
  -OEChem-04172616093D

 64 66  0     1  0  0  0  0  0999 V2000
    8.6217    7.3841  -18.4176 C   0  0  0  0  0  0  0  0  0  0  0  0
    7.6416    7.0091  -17.4858 C   0  0  0  0  0  0  0  0  0  0  0  0
    8.2517    8.0308  -19.6105 C   0  0  0  0  0  0  0  0  0  0  0  0
    5.9123    7.9224  -18.9463 C   0  0  0  0  0  0  0  0  0  0  0  0
    6.5110    0.8744  -21.6045 C   0  0  0  0  0  0  0  0  0  0  0  0
    4.6657   -0.5646  -20.9028 C   0  0  0  0  0  0  0  0  0  0  0  0
    6.7470   -1.5521  -21.7080 C   0  0  0  0  0  0  0  0  0  0  0  0
    6.2845    7.2800  -17.7506 C   0  0  0  0  0  0  0  0  0  0  0  0
    6.8916    8.3403  -19.8783 C   0  0  0  0  0  0  0  0  0  0  0  0
    5.2027    0.7267  -21.0920 C   0  0  0  0  0  0  0  0  0  0  0  0
    7.2850   -0.2642  -21.9010 C   0  0  0  0  0  0  0  0  0  0  0  0
    5.4348   -1.7015  -21.2170 C   0  0  0  0  0  0  0  0  0  0  0  0
    6.7606    1.3858  -18.1055 C   0  0  0  0  0  0  0  0  0  0  0  0
    4.5605    7.8061  -15.8737 C   0  0  0  0  0  0  0  0  0  0  0  0
    5.4588    6.6820  -15.3133 C   0  0  0  0  0  0  0  0  0  0  0  0
    5.1985    6.7918  -16.8204 C   0  0  0  0  0  0  0  0  0  0  0  0
    6.9590    0.3226  -17.0297 C   0  0  0  0  0  0  0  0  0  0  0  0
    6.2380    7.9162  -22.2589 C   0  0  0  0  0  0  0  0  0  0  0  0
    5.1649    9.8481  -21.0354 C   0  0  0  0  0  0  0  0  0  0  0  0
    4.4070    1.9471  -20.6679 C   0  0  0  0  0  0  0  0  0  0  0  0
    5.0455    4.5783  -17.8731 C   0  0  0  0  0  0  0  0  0  0  0  0
    5.1300    2.6986  -19.5229 C   0  0  1  0  0  0  0  0  0  0  0  0
    4.2488    3.8156  -18.9404 C   0  0  2  0  0  0  0  0  0  0  0  0
    7.6073    9.9732  -21.7090 C   0  0  0  0  0  0  0  0  0  0  0  0
    6.4782    9.0213  -21.2038 C   0  0  0  0  0  0  0  0  0  0  0  0
    5.4638    1.7488  -18.4474 N   0  0  0  0  0  0  0  0  0  0  0  0
    4.3176    5.7898  -17.4445 N   0  3  0  0  0  0  0  0  0  0  0  0
    7.7350    1.9681  -18.5704 O   0  0  0  0  0  0  0  0  0  0  0  0
    3.8747    4.7085  -19.9890 O   0  0  0  0  0  0  0  0  0  0  0  0
    8.5495   -0.1219  -22.3584 F   0  0  0  0  0  0  0  0  0  0  0  0
    4.9183   -2.9374  -21.0330 F   0  0  0  0  0  0  0  0  0  0  0  0
    7.8920   10.9117  -20.7651 F   0  0  0  0  0  0  0  0  0  0  0  0
    7.2441   10.6036  -22.8569 F   0  0  0  0  0  0  0  0  0  0  0  0
    9.6624    7.1757  -18.2182 H   0  0  0  0  0  0  0  0  0  0  0  0
    7.9266    6.5145  -16.5690 H   0  0  0  0  0  0  0  0  0  0  0  0
    9.0109    8.2953  -20.3316 H   0  0  0  0  0  0  0  0  0  0  0  0
    4.8674    8.0984  -19.1548 H   0  0  0  0  0  0  0  0  0  0  0  0
    6.9178    1.8612  -21.7689 H   0  0  0  0  0  0  0  0  0  0  0  0
    3.6638   -0.6810  -20.5167 H   0  0  0  0  0  0  0  0  0  0  0  0
    7.3406   -2.4249  -21.9365 H   0  0  0  0  0  0  0  0  0  0  0  0
    3.4755    7.7844  -15.6941 H   0  0  0  0  0  0  0  0  0  0  0  0
    4.9129    8.8480  -15.8649 H   0  0  0  0  0  0  0  0  0  0  0  0
    6.4524    6.9214  -14.9065 H   0  0  0  0  0  0  0  0  0  0  0  0
    5.0150    5.8578  -14.7357 H   0  0  0  0  0  0  0  0  0  0  0  0
    8.0314    0.2217  -16.8066 H   0  0  0  0  0  0  0  0  0  0  0  0
    6.4211    0.6196  -16.1173 H   0  0  0  0  0  0  0  0  0  0  0  0
    6.5672   -0.6403  -17.3893 H   0  0  0  0  0  0  0  0  0  0  0  0
    5.9421    8.3774  -23.2127 H   0  0  0  0  0  0  0  0  0  0  0  0
    7.1634    7.3391  -22.4024 H   0  0  0  0  0  0  0  0  0  0  0  0
    5.4378    7.2459  -21.9121 H   0  0  0  0  0  0  0  0  0  0  0  0
    4.9010   10.3174  -21.9946 H   0  0  0  0  0  0  0  0  0  0  0  0
    4.3501    9.1812  -20.7171 H   0  0  0  0  0  0  0  0  0  0  0  0
    5.3180   10.6285  -20.2754 H   0  0  0  0  0  0  0  0  0  0  0  0
    4.2943    2.6223  -21.5289 H   0  0  0  0  0  0  0  0  0  0  0  0
    3.4135    1.6278  -20.3199 H   0  0  0  0  0  0  0  0  0  0  0  0
    5.2014    3.9240  -17.0027 H   0  0  0  0  0  0  0  0  0  0  0  0
    6.0200    4.8714  -18.2907 H   0  0  0  0  0  0  0  0  0  0  0  0
    6.0524    3.1456  -19.9221 H   0  0  0  0  0  0  0  0  0  0  0  0
    3.3584    3.3674  -18.4753 H   0  0  0  0  0  0  0  0  0  0  0  0
    8.4959    9.3513  -21.8926 H   0  0  0  0  0  0  0  0  0  0  0  0
    4.7107    1.3403  -17.9317 H   0  0  0  0  0  0  0  0  0  0  0  0
    3.6162    5.5243  -16.7831 H   0  0  0  0  0  0  0  0  0  0  0  0
    3.8820    6.2012  -18.2452 H   0  0  0  0  0  0  0  0  0  0  0  0
    3.3818    4.2344  -20.6484 H   0  0  0  0  0  0  0  0  0  0  0  0
  1  2  2  0  0  0  0
  1  3  1  0  0  0  0
  2  8  1  0  0  0  0
  3  9  2  0  0  0  0
  4  8  2  0  0  0  0
  4  9  1  0  0  0  0
  5 10  1  0  0  0  0
  5 11  2  0  0  0  0
  6 10  2  0  0  0  0
  6 12  1  0  0  0  0
  7 11  1  0  0  0  0
  7 12  2  0  0  0  0
  8 16  1  0  0  0  0
  9 25  1  0  0  0  0
 10 20  1  0  0  0  0
 11 30  1  0  0  0  0
 12 31  1  0  0  0  0
 13 17  1  0  0  0  0
 13 26  1  0  0  0  0
 13 28  2  0  0  0  0
 14 15  1  0  0  0  0
 14 16  1  0  0  0  0
 15 16  1  0  0  0  0
 16 27  1  0  0  0  0
 18 25  1  0  0  0  0
 19 25  1  0  0  0  0
 20 22  1  0  0  0  0
 21 23  1  0  0  0  0
 21 27  1  0  0  0  0
 22 23  1  0  0  0  0
 22 26  1  0  0  0  0
 23 29  1  0  0  0  0
 24 25  1  0  0  0  0
 24 32  1  0  0  0  0
 24 33  1  0  0  0  0
  1 34  1  0  0  0  0
  2 35  1  0  0  0  0
  3 36  1  0  0  0  0
  4 37  1  0  0  0  0
  5 38  1  0  0  0  0
  6 39  1  0  0  0  0
  7 40  1  0  0  0  0
 14 41  1  0  0  0  0
 14 42  1  0  0  0  0
 15 43  1  0  0  0  0
 15 44  1  0  0  0  0
 17 45  1  0  0  0  0
 17 46  1  0  0  0  0
 17 47  1  0  0  0  0
 18 48  1  0  0  0  0
 18 49  1  0  0  0  0
 18 50  1  0  0  0  0
 19 51  1  0  0  0  0
 19 52  1  0  0  0  0
 19 53  1  0  0  0  0
 20 54  1  0  0  0  0
 20 55  1  0  0  0  0
 21 56  1  0  0  0  0
 21 57  1  0  0  0  0
 22 58  1  0  0  0  0
 23 59  1  0  0  0  0
 24 60  1  0  0  0  0
 26 61  1  0  0  0  0
 27 62  1  0  0  0  0
 27 63  1  0  0  0  0
 29 64  1  0  0  0  0
M  CHG  1  27   1
M  END
> <OMEGA_C>
VvIJQeZK7EAxV5PB2Yf0QIRK4EDo4ovBzAYEQVp+AEFY4pzB7TG9QDKE/UDukZfBwVnQQDLWXz/s
1azBjU2VQLmMEL/2OKfBxOfXQLCpxr8Kqq3BexrJQL316EAzAY7BKYjcQOxxBUHABp/B0XymQE8G
Oj9xvKjBvR7pQO1Ih75XNa/BEOqtQPTL2b9qvKnBfVbYQFxhsT8X2JDBgO+RQErL+UDE+n3Bt66u
QPLS1UBkA3XB9FmmQElW2UBHkIbB86/eQH4xpT7sPIjBx53HQN5R/UBRErLBLUelQPyRHUGASKjB
vwWNQKo5+T/HV6XBl3ShQJCBkkAI/I7BviikQOC1LED5LpzBN/aHQHYzdED3hZfBO2/zQFqSH0Ei
rK3BQU3PQDNXEEFIoanBnteuQK3Y3z9BlJPBlSmKQAFGuUBnjovB44T3QB7q+z8YkJTBsvp3QPur
lkB36Z/BqMoIQYWr+b3q3bLB9mKdQEX+O8CsQ6jBYYv8QHqWLkH7HqbB38/nQDyoKUHk2rbBUZka
QWmf5UDSvpHBe6b9QCl30EA2jYTBtSwQQYy5BEEsp6LBqMGbQPuSAUEMPZnBpV7dQJM77j+xJq7B
a3xqQPhULr8dIqTBlubqQEUxG8D2fa/BBW5eQBga+UAPG3vBczadQJyRDUHJ1n3BK3rOQAJ83UAp
gW7BunqgQONyu0BvxWvBgYAAQXkGYz78c4bB3XnNQK+eHj9F8IDBaSbSQFPoI79hHYvBUSW+QNgJ
BkG1s7nBazrlQNTZ6kAiOLPBsgKuQFDe50DiS6/BxNScQA0UJUEB9a/BXDSLQDnmEkGovKXBYC2q
QHoOKkEYNKLB6WqJQOLTJ0ApO6zB2HZaQO5a0D8Oj6LB4nGmQG4ie0CIBYjBzKPAQKPim0BYU5LB
La3BQElSSUBfYJ/BifBWQG2DV0B1zZPBE+8HQfCeFUEfJK/BZL6WQFCNqz8UdI/BO29nQAXHsEC7
Q4bBOXN4QGdwxkAf9pHBB29YQGGAh0DpL6XBC+AHQWr770Ar+ZPBHv/xQFNK4kCBSIzBht8AQUVN
AkGNWZ3BZeC3QLTS/ECnfJfB3BvPQNbDZT99Ia3BeA6WQCRVGL9mIqfBKojYQFWywr/2Na7BzvPF
QO/w6EBKBY7BkIzVQCIeBkE/Ip/B2fGlQEo4Nj9VsqjBBHPoQICQX74Yz6/BFEivQAPA2r+266nB
rwjbQMQltj88U5HB6qmQQOrF90Da4HzBTjavQMWs1EDvkXTBWOekQHkW2EBPQIbBly7kQHc0qD6h
I4nBNUboQDtlIEFbNq7BAFK7QDIh/0DXzbHBRN2LQC4/9D9BB6XB2dugQJBUkUDtto7BBYujQM5y
K0CHDpzBiuGGQFy6cEDhDpfB1EScQPlpHkGRNKfB0KDFQGQhEUHQeanBZLKwQPjv3T/boZPB6u6I
QEdBt0Cs/orB7MX4QA1jBEDxHJXBVmJxQCnFlEAtRJ/BIhwIQRjfJb1R07PBhBegQOBwPcAjXqjB
PsSNQJ0kKEGcObDBxjukQD6eLUHoqp/BQcEYQeqq6kAFsJLBTdb8QFC30kDkD4XB+28MQSVdB0H2
P6PBvf6VQEUwAEHI8JjBrCfbQLGs8j/Nd67BLAptQH+rPb9pzKPBFPbrQKsSGMB9RrDB1HdcQNnz
9UDYVHnBaOGaQJm6DEGP33zBGjvPQHFM3UBHqm7BnZWiQBnLuUCRH2vBfmwDQS7/iT62r4fBxKDT
QIgvED97moHBUqjYQL8AI78OOYzBAObbQPftJ0HtibXB8BzwQBLbLEGBUKjB8KACQdMqF0FiH7DB
b+qvQCsPB0EIPbnBemDYQNJr7ED4ebPB9FaiQEva6UCBnq7BEqOGQF5CJUDr26vBbp5ZQIeBxz+p
+KHBZ4enQJ29eEAd2IfBxDe/QCjDm0AlU5LBygDAQPBKSkCLg5/BNPJWQLLqUUDqGZPBafeDQHos
E0ESN6TBDMuZQNscpT/GUY/Bt1JnQN7zrUA/fYXBjBRzQLAWxEBHO5HBA0BRQDc9hUBBa6TBtuAH
QTAm70CkfpTBtgTzQAVI4UDklIzBvj0AQWm6AUFYzJ3Bqoa3QE4++0AjZZfBnVDNQAVjaD/ojq3B
kUSVQGAmG79PUafB3YDXQFbiwL/Wva7B7MTGQMB+50B/C47BWwnUQE1nBUGHR5/B0pKkQIPaND9f
7qjBCtDmQCyTSr4HZrDBAKquQI7t2r8/P6rBF13aQNbcuj/oGJHBAeWSQCos9kCibXzBBIKxQOLR
0kCAcXTBuGymQLt81kD8IYbBvArkQFaJrj4BLInBt3LkQD8eIEGvRq7BRVu6QIxi/UCNFrLBznuK
QOhj8j8xFqXB+cygQOy2j0DqjI7BidSiQL4HKkAoMpzBbu+GQClvcECpMJfBQluZQCqbHUFbx6fB
sAPDQGI1EEEAnKnBRAKwQAzA2T8a3JPBs72JQCEqtkBI14rBMl73QH5UDEDGJ5TBhat1QMymlUCu
Yp/BJxYHQQAhRLs8nbTBzQ6gQOzcPcCbnKjBI0ueQB0BK0E2SZ/BcmFsQMAgEUG7PabBttkYQf83
6kCecJPBWcj+QHry0UBAa4XBdWwLQRvIBkGZ4aPB03WVQPCZ/kColZjBZOvYQBeT9D84667BwBhs
QGOAQ7831aPByBLrQK2wFsCo6rDBKidhQO2H9EClmXjBI1CdQM3lC0FEcnzBkMXRQBM020B6ym7B
AgmlQGXwt0Dc8WrB7SgDQabhsz4pLIfBGR7RQEXM+z7J2YHBKanbQOrCIL8QxozBCIvXQMaFJ0EZ
lLXBlV3rQKuhLEGfVajBGgsBQThzF0GgNrDBzkGuQGgoBkH5dbnB6kHYQHQs7EBh1bPBNWeiQC/A
5kAA/67BnpmEQNisJECA2avBtHlXQEOaxD/b5aHB5PSlQA0qdECluofB6+a/QFFWmUCK5ZHB71y/
QAnpR0Agv5/B9Q1VQA4XU0BqgpPBeLaUQHY6J0EaDq/BVyuZQO5EmT9794/BDatoQG1drUAHUYXB
ex11QEFAw0C0E5HBPK9VQE4Ph0COuKTBb9QIQeM17EA0F5XBL//zQO454EAcMo3Bis4BQcjQ/0DQ
m57Buv+5QPMy+0BxYZjBpgjOQFxpRj+rvKzB2aWUQIIvLr+jXqbBTqfWQCET078KWq3BXQvIQILJ
50AC247ByobXQEs5BEE3TKDBp+ykQL+EHT+oNqjBqfPmQNhutr6PO6/Bn2ytQNm357+g+KjB+0nZ
QJC3tz/8GJDBmh6TQFe9+ECFsn7B3xCxQMpy1UBSCXbButOmQPMb2EB2/obBeabhQCa/mD7aO4jB
2f+eQMGTHEHwzKjB34fpQCroHUGNr6/B3FKLQDwg6j8nwaTB6DKhQI9hkEDP4I7B6lGjQEb+JkCW
5ZvBhFuHQEDkbkA8QpfBV+K7QAET+kCVKLPBuWrHQDyWDkHL0arBsFyvQIZj1z+3PJPBdDiKQIOH
t0CHnIvBU6L3QAEcAEBGXZTB8i92QLh6k0A+u5/BEloHQdjhTr74UrPBus6dQLg1Q8BKI6fBNDif
QMa43UAJCq/Bx1XfQMEk5EAgQ7bBb64ZQTRe5kBY25PBy9P+QHZK0UDK44XBpFANQQcwBEEssKTB
vSyYQE4IAEHJq5nB0FzaQPr14T9RSK7B4EtqQLY4Tr999aLB7sPpQIsMIcCTRK/BYlJhQJ2l90Bg
JXvB3eidQJEeDUFiBX/BsznRQFjA3UBSNXDBCPqjQNQou0BPVWzBPysCQZhODT65dofB8zDUQJMn
Dz/2X4DB0XDSQOpLH7/RMIvBUVKUQNK0I0H5Y7DBjkiFQNKJEkE5f6XBDdSmQIlfKUGYFaPBXg7d
QHP0JEExH7fBVMDwQLK6KkE076nBqHMDQQfdFEEucLHBOW2GQPFIH0BfsKvB7zRYQNr/vz9vqKHB
pTumQBDxd0Dh0YfBWlvAQIBPmUB2T5LBDVHAQFSDQ0ANY5/BcAlWQGSgUkCcapPBN7utQMM2BUEB
GrrBleqXQOjjmT+KYY/BX2loQDiqr0ACJobBZ4t3QA76w0AaCZLBKjhWQHL8g0BD6KTB

> <OMEGA_E>
rFmGPpgzkD7YH5I+sFtwPg==

> <OMEGA_NBR>
    121031

$$$$
50168420
  -OEChem-04172616093D

 63 66  0     1  0  0  0  0  0999 V2000
    8.6513    7.4690  -18.3189 C   0  0  0  0  0  0  0  0  0  0  0  0
    8.3460    7.9759  -19.5914 C   0  0  0  0  0  0  0  0  0  0  0  0
    7.6212    7.0968  -17.4415 C   0  0  0  0  0  0  0  0  0  0  0  0
    5.9639    7.7478  -19.1124 C   0  0  0  0  0  0  0  0  0  0  0  0
    6.4106    0.7984  -21.5614 C   0  0  0  0  0  0  0  0  0  0  0  0
    4.6531   -0.6964  -20.7587 C   0  0  0  0  0  0  0  0  0  0  0  0
    6.7155   -1.6190  -21.6809 C   0  0  0  0  0  0  0  0  0  0  0  0
    7.0076    8.0862  -20.0156 C   0  0  0  0  0  0  0  0  0  0  0  0
    6.2718    7.2585  -17.8203 C   0  0  0  0  0  0  0  0  0  0  0  0
    5.1397    0.6101  -20.9743 C   0  0  0  0  0  0  0  0  0  0  0  0
    7.2013   -0.3151  -21.9033 C   0  0  0  0  0  0  0  0  0  0  0  0
    5.4389   -1.8088  -21.1149 C   0  0  0  0  0  0  0  0  0  0  0  0
    6.8420    1.4561  -18.0502 C   0  0  0  0  0  0  0  0  0  0  0  0
    4.5184    7.8258  -15.9522 C   0  0  0  0  0  0  0  0  0  0  0  0
    5.3888    6.6917  -15.3781 C   0  0  0  0  0  0  0  0  0  0  0  0
    6.4294   10.0928  -21.4140 C   0  0  0  0  0  0  0  0  0  0  0  0
    4.9172   10.1138  -21.1881 C   0  0  0  0  0  0  0  0  0  0  0  0
    5.5085    8.0127  -22.0921 C   0  0  0  0  0  0  0  0  0  0  0  0
    6.7519    8.6119  -21.4305 C   0  0  2  0  0  0  0  0  0  0  0  0
    5.1529    6.8020  -16.8953 C   0  0  0  0  0  0  0  0  0  0  0  0
    7.1474    0.3547  -17.0391 C   0  0  0  0  0  0  0  0  0  0  0  0
    4.3237    1.8047  -20.5228 C   0  0  0  0  0  0  0  0  0  0  0  0
    4.9956    4.5490  -17.8488 C   0  0  0  0  0  0  0  0  0  0  0  0
    5.0909    2.6214  -19.4547 C   0  0  1  0  0  0  0  0  0  0  0  0
    4.2108    3.7510  -18.8971 C   0  0  2  0  0  0  0  0  0  0  0  0
    5.5131    1.7280  -18.3596 N   0  0  0  0  0  0  0  0  0  0  0  0
    4.2754    5.7915  -17.5038 N   0  3  0  0  0  0  0  0  0  0  0  0
    7.7652    1.9926  -18.6539 O   0  0  0  0  0  0  0  0  0  0  0  0
    4.3946    8.8629  -21.7168 O   0  0  0  0  0  0  0  0  0  0  0  0
    3.8489    4.6134  -19.9761 O   0  0  0  0  0  0  0  0  0  0  0  0
    8.4311   -0.1327  -22.4349 F   0  0  0  0  0  0  0  0  0  0  0  0
    4.9743   -3.0595  -20.8971 F   0  0  0  0  0  0  0  0  0  0  0  0
    9.6821    7.3649  -18.0139 H   0  0  0  0  0  0  0  0  0  0  0  0
    9.1440    8.2840  -20.2507 H   0  0  0  0  0  0  0  0  0  0  0  0
    7.8623    6.6851  -16.4726 H   0  0  0  0  0  0  0  0  0  0  0  0
    4.9331    7.8644  -19.4127 H   0  0  0  0  0  0  0  0  0  0  0  0
    6.7761    1.7974  -21.7480 H   0  0  0  0  0  0  0  0  0  0  0  0
    3.6772   -0.8433  -20.3201 H   0  0  0  0  0  0  0  0  0  0  0  0
    7.3216   -2.4731  -21.9444 H   0  0  0  0  0  0  0  0  0  0  0  0
    3.4308    7.8210  -15.7874 H   0  0  0  0  0  0  0  0  0  0  0  0
    4.8868    8.8622  -15.9381 H   0  0  0  0  0  0  0  0  0  0  0  0
    6.3796    6.9167  -14.9565 H   0  0  0  0  0  0  0  0  0  0  0  0
    4.9236    5.8756  -14.8058 H   0  0  0  0  0  0  0  0  0  0  0  0
    6.6925   10.5653  -22.3718 H   0  0  0  0  0  0  0  0  0  0  0  0
    6.9583   10.6033  -20.5957 H   0  0  0  0  0  0  0  0  0  0  0  0
    4.6962   10.1922  -20.1134 H   0  0  0  0  0  0  0  0  0  0  0  0
    4.4672   10.9661  -21.7182 H   0  0  0  0  0  0  0  0  0  0  0  0
    5.6272    8.0020  -23.1856 H   0  0  0  0  0  0  0  0  0  0  0  0
    5.3425    6.9869  -21.7313 H   0  0  0  0  0  0  0  0  0  0  0  0
    7.6341    8.4268  -22.0609 H   0  0  0  0  0  0  0  0  0  0  0  0
    8.2338    0.1882  -16.9944 H   0  0  0  0  0  0  0  0  0  0  0  0
    6.7817    0.6565  -16.0466 H   0  0  0  0  0  0  0  0  0  0  0  0
    6.6466   -0.5749  -17.3474 H   0  0  0  0  0  0  0  0  0  0  0  0
    4.1171    2.4491  -21.3900 H   0  0  0  0  0  0  0  0  0  0  0  0
    3.3743    1.4517  -20.0938 H   0  0  0  0  0  0  0  0  0  0  0  0
    5.1169    3.9368  -16.9431 H   0  0  0  0  0  0  0  0  0  0  0  0
    5.9858    4.8044  -18.2541 H   0  0  0  0  0  0  0  0  0  0  0  0
    5.9786    3.0674  -19.9270 H   0  0  0  0  0  0  0  0  0  0  0  0
    3.3161    3.3160  -18.4279 H   0  0  0  0  0  0  0  0  0  0  0  0
    4.8025    1.2922  -17.8071 H   0  0  0  0  0  0  0  0  0  0  0  0
    3.5455    5.5698  -16.8573 H   0  0  0  0  0  0  0  0  0  0  0  0
    3.8774    6.1734  -18.3379 H   0  0  0  0  0  0  0  0  0  0  0  0
    3.3625    4.1206  -20.6265 H   0  0  0  0  0  0  0  0  0  0  0  0
  1  2  1  0  0  0  0
  1  3  2  0  0  0  0
  2  8  2  0  0  0  0
  3  9  1  0  0  0  0
  4  8  1  0  0  0  0
  4  9  2  0  0  0  0
  5 10  1  0  0  0  0
  5 11  2  0  0  0  0
  6 10  2  0  0  0  0
  6 12  1  0  0  0  0
  7 11  1  0  0  0  0
  7 12  2  0  0  0  0
  8 19  1  0  0  0  0
  9 20  1  0  0  0  0
 10 22  1  0  0  0  0
 11 31  1  0  0  0  0
 12 32  1  0  0  0  0
 13 21  1  0  0  0  0
 13 26  1  0  0  0  0
 13 28  2  0  0  0  0
 14 15  1  0  0  0  0
 14 20  1  0  0  0  0
 15 20  1  0  0  0  0
 16 17  1  0  0  0  0
 16 19  1  0  0  0  0
 17 29  1  0  0  0  0
 18 19  1  0  0  0  0
 18 29  1  0  0  0  0
 20 27  1  0  0  0  0
 22 24  1  0  0  0  0
 23 25  1  0  0  0  0
 23 27  1  0  0  0  0
 24 25  1  0  0  0  0
 24 26  1  0  0  0  0
 25 30  1  0  0  0  0
  1 33  1  0  0  0  0
  2 34  1  0  0  0  0
  3 35  1  0  0  0  0
  4 36  1  0  0  0  0
  5 37  1  0  0  0  0
  6 38  1  0  0  0  0
  7 39  1  0  0  0  0
 14 40  1  0  0  0  0
 14 41  1  0  0  0  0
 15 42  1  0  0  0  0
 15 43  1  0  0  0  0
 16 44  1  0  0  0  0
 16 45  1  0  0  0  0
 17 46  1  0  0  0  0
 17 47  1  0  0  0  0
 18 48  1  0  0  0  0
 18 49  1  0  0  0  0
 19 50  1  0  0  0  0
 21 51  1  0  0  0  0
 21 52  1  0  0  0  0
 21 53  1  0  0  0  0
 22 54  1  0  0  0  0
 22 55  1  0  0  0  0
 23 56  1  0  0  0  0
 23 57  1  0  0  0  0
 24 58  1  0  0  0  0
 25 59  1  0  0  0  0
 26 60  1  0  0  0  0
 27 61  1  0  0  0  0
 27 62  1  0  0  0  0
 30 63  1  0  0  0  0
M  CHG  1  27   1
M  END
> <OMEGA_C>
vGsKQe4B70AHjZLBS4kFQdQ6/0Abu5zB3+DzQFYZ40A2iIvBgti+QFXu90BL5pjB9SPNQARmTD+4
fazBK+aUQNhGMr/MEabBO+XWQEs6z7+Tcq3BjD7gQP1gAUEBIKDBurLIQM9F6EASkI7BXHikQEAu
HD91y6fBtXDmQPhXob4HOq/BzQuuQCCG579U66jB1vHaQPxhuj+8ZpDBoJaQQB5t+kBXPH/BNHGs
QEYi1kC3DHbBf73NQAt8IUHMT6vBGVqdQPLRIUE8ganBREWwQA80AEGsvLDBjA/YQDHKCUG8cavB
4uSkQLSp2UB+KYfBrLfkQFyWtT4fUIjByluKQGf/5j+mLqTB1dufQL+RkUBqyo7BUeiiQDvFJ0A1
o5vBAb+GQNMQcEBBLZfB7mqwQBUv3T9h4JLBbNCIQDxUuUDWB4zBfXz4QKMO/z9GO5XBcaCMQHHO
DUHou63BGVR2QC+hk0D7zp/Bx+UGQaDqB76terPBVy2fQH3PQ8BRLafB5ukaQZSt60BlHJDBuk0S
QXWLBEFvAaLB/Zf7QHLs1UDtx4PBqdudQNuo+0AsTZvB6NXYQB0S5j/4+63Br1ZrQPngV7+Dj6LB
2UrqQK5HHsAPjq/Bd5JbQMpF+kBFmXzBvmCcQInLDUF8An/BkCXMQNdV3UDkTW/BDo6dQI8EvECt
5GzBESnWQI0LKUF4+bLBo6reQEOnKUH/w6TB/kaWQDMTI0FC6KDBT/OOQBd1L0HZvq3B5xG0QEoI
AEE0fLnBwfWqQNSU30Cp2a3B0kr0QCbUBkHNfLDBzr0DQf3DQD599IfBWgPZQPIPKD9rX4DB9bDU
QKkvE79hx4rBXr+DQEm9HEC8HqvBavRXQKTQuT8ewKDBh72jQCf0e0Bmi4fBs4u/QPi9mUBlCJLB
qlC/QMFPREBuap/BNjpUQKI4VEBpbJPB8a2ZQNJmpT8FdY7B0ehiQCk8skDH24bB6iZ4QCCMxUAd
tJLB+zNXQNXbg0AaA6XBjDYIQTxd7kAi65TBxYgAQdie/ECe557BtH3zQEKH40Dmu4zBXgK4QOWh
9kB4apjBlenPQLwgQD8AWazBaj6UQL+gI79bX6bB2GvWQKZA178xiazBsFXUQMTw/0AxwqDBfCbH
QAgz6EB/go7ByfqlQHuEIz/mNqjBjiXoQAoN0b4rcq7B22OsQFr85b+rj6jBVsvYQMcduT/PVpDB
fHOSQFfE+kCbi37Bhh6wQMD810CGLnXBVgHgQEUoCUESkLTB9GfwQEMgIEHL77LBaHCtQEzQHEFv
sarBEmDAQG5PBkGYdqvBN06mQDUR2UAPmIbBtpHfQLz7tD4+/4fBNvKMQJpV8T+CKqXB23mhQMvU
kUA6AY/BYz2kQEffKkAkM5zB5TCIQLNhc0AZrpfBgDGvQHz03z9UapPB2tSJQMTtt0AoK4vB0NT3
QGar9z+O5pTBf3fRQNP5KkGmH6zB3ER6QPQ3lkCbJ6DBIEYIQTIOmb7POLLBMlqbQG42QcBYv6bB
jDkZQdrB60CTjJPBQq4LQTCFAkGRKaXBFCD/QHe610DlJoXBiAaWQHGg+kAEoZnBL2jdQG3h3D+V
5q3B9TRoQCW4Or+RR6PBZw3pQOlyJMBWHq7BV9xfQMkF+kDsH3vBxFydQHYYDkExYn/BcjXQQJSS
4EAHXG/B2saiQHBnvkDCGWvBeRjQQClxB0GbXbzBQVH6QM8N+0Dv97PBDf0HQezeH0ERDK/BJ9/y
QPtcKEFesLrB5nqVQOthH0HDArHBtYyeQA1ZH0EK0qLBCmGnQOiK9UDcuK3BPP0AQb1TEz5MNIfB
gc7SQDFiMD9cP4DBVczOQOqLD79khYrBQKuJQNMCIkDNPazBLQRaQJ6Nyz9hUaLBqyenQBtceECV
NojBeFXAQPEnnEBuXJLB2afBQJDfRkBdiJ/B3YhWQMuCV0B9EpTBPzGXQF9/qD/dao/BWSxqQM+w
rkA7iIXB+7JzQC2mxECnU5HB2RdbQD4fh0AteqXB0cAIQaMu6kDbApXBNzkCQZUBAkGHpp3BhYnz
QFG53EAsVY3Bn1S7QIZtAUEe75bBfpvOQADiOD8ee6zBTIeTQI6BLb/XSqbBJDLVQFbK2r/95KzB
uB/ZQK+iCEFWkZ7Bxk/IQPDT6ECGZI7BQgWlQCZgGj+aJKjBXb3mQD233b4Ux67BMYmrQE5l6r8n
s6jBCmDZQJNZtz88WJDBYpGSQD0c+UDgU37B6YuwQNbP1UCLm3XBglmmQCRXDkFh6a3BEdy/QNfz
AEHq9LXBKS7qQFmAHUFE6a/BdnvJQOlpGEGGJKfB18SmQOqs2EBkxobBJyThQFzCrz6wBYjB/wSM
QPj46z898aTBC8ehQHmikUD9LI/BK86jQDZ4KECwFZzBQuOHQGsUcUCviZfBtH2vQGew2z/wUZPB
NXOKQFZLuECvpIvBi/n3QAh/+T8G5JTBd77pQFIDC0FB5bbBYnN3QA1tlECQDaDBOHcHQUXgor5T
rrLBnsqaQJGdQ8A326bBmk4ZQbGz4EBfSZTBEL8NQZDkBkGFm6PBIZX9QBM3yUBeqIbByByaQOr3
BUGCqZfBvOjbQLmT2T+kCa7BLV1nQMz7Rb9YBqPBIbDnQFQKJsC9qq7BIRZgQHPU90D59HrBbzWd
QJ5UDUHRhn7BtI7QQK0x3kAdm2/BVWSjQORcu0BECWzB4iaTQIejGkEt/LHBOEORQKMxBEGUBanB
wT/DQMHd4ECTCrPBSZ+vQL/bAEGsw73BicPgQKr6K0GhU7TBJhgFQQjQH0HVb6zBYPy9QDFBJ0Gy
YqPBDN0BQWr5Jz6bO4fBDhTUQIA4Kj8uRIDBLzXRQPCrFb+YkIrBRAiIQA9hH0CK/avB4sNYQLo7
xT9P8KHBXqunQBHjeUDsNYjBfYbAQO9Lm0CrtpLBzvXAQNyIREDJjJ/B5vVWQFs9VUC+rZPBXtiX
QIfSoj+BRI/BIepoQJelr0DLP4bB1uZ3QClUxUCq/JHBG3VXQBHchEBxNqXBBEPVQDAJB0FUNaDB
9HwAQQkPBkH2b53B/D62QPr//UD1DJnBBMXuQD7V5EDQQ43Bm+nMQNnBOD9AjazBupuSQE6ZJ79/
maXBoOTRQBMC278iSa3BXbgGQasT+EDRuJPBTGrDQGMy6kDsa4/BGXSkQCquHT8OnafB4LXjQIgD
4r5hUa/B0iepQHl+6L8NhqjBogfaQGrTqz/EKpDBVfyQQMFR+UBgdn7BUAKwQCI01kB50HbBjb0Z
QZXsEkGOxobBUe0dQYjcJUEDOY7BoectQVHPBkGpsJXBNwkcQeVb/0D/Qo7BSrGjQBjR2UAxVYfB
fizgQA1/lT5EcofB7ZqMQAAn7j/2QqTBmFGiQBYLkkAM0o7B1p+lQJQDKUC/nJvBHvyJQPSzckCo
Z5fBXqCwQJPV3z+yoJLBOvaIQHy4t0Bln4vBhMb4QA422D92mZXBDPQrQWTrHUEwpZbBIs9/QNh2
lUA0DaDBFEEFQeSBrb77BrTBD4iXQOEWQsAJ1abBepXLQD7kDUHcwqfBSGsMQazjDEHzq6LBWZ6U
QG1nAEGc6prBKqf4QNqV0UAWh4bBjl/aQHTq2D8WNa7B00xnQNFpPL+O0KHBAXfjQJ+eJsDlYK/B
G8NdQJeP90AQMnrBK0ybQK98DUGlln7BdX/QQDS43kDyi3HB2BSkQGxOu0BeJ23BKpwlQd9QEkEB
SYDBRo8JQbW3E0EdVoPBNc4OQYWqK0FRqpHBWMMlQW3uMkHt0YnBXJA9QUCOAkE+SJLBLR0sQd9t
/kDrk53BwN8gQRzK4kDKuYnBVe0AQa1r3bzORofBaXTXQKbFOD8LSn/BkKHLQMZ9E78VIYnBTRiI
QIR7IEDkSavBdWRaQIdDyT+9BqHBlYynQCqdekCx1IfBXWLBQG2InECBBZLBkvfCQBpTQ0AMMZ/B
ghpZQAEyWEA25ZPBoMiYQN4RtT95Ao7Bq8hnQKjcrkAMBobBR5NyQGjKwkBQBpLBjnphQK8lhkA0
aaXB

> <OMEGA_E>
4FLnPniR6T70v+E+4A8gPw==

> <OMEGA_NBR>
    125400

$$$$
50168387
  -OEChem-04172616093D

 59 61  0     1  0  0  0  0  0999 V2000
    8.5448    7.4965  -18.5159 C   0  0  0  0  0  0  0  0  0  0  0  0
    8.1074    8.0438  -19.7349 C   0  0  0  0  0  0  0  0  0  0  0  0
    7.6045    7.0889  -17.5518 C   0  0  0  0  0  0  0  0  0  0  0  0
    5.7874    7.7738  -19.0316 C   0  0  0  0  0  0  0  0  0  0  0  0
    6.4368    0.7753  -21.5625 C   0  0  0  0  0  0  0  0  0  0  0  0
    4.6158   -0.6641  -20.8019 C   0  0  0  0  0  0  0  0  0  0  0  0
    6.6804   -1.6511  -21.6510 C   0  0  0  0  0  0  0  0  0  0  0  0
    6.7279    8.1600  -19.9980 C   0  0  0  0  0  0  0  0  0  0  0  0
    6.2231    7.2509  -17.8012 C   0  0  0  0  0  0  0  0  0  0  0  0
    5.1433    0.6279  -21.0133 C   0  0  0  0  0  0  0  0  0  0  0  0
    7.2072   -0.3629  -21.8707 C   0  0  0  0  0  0  0  0  0  0  0  0
    5.3822   -1.8011  -21.1240 C   0  0  0  0  0  0  0  0  0  0  0  0
    5.6458    7.8782  -22.1821 C   0  0  0  0  0  0  0  0  0  0  0  0
    6.2722    8.7032  -21.2741 C   0  0  0  0  0  0  0  0  0  0  0  0
    6.7907    1.4447  -18.0432 C   0  0  0  0  0  0  0  0  0  0  0  0
    4.5724    7.7887  -15.8684 C   0  0  0  0  0  0  0  0  0  0  0  0
    5.4943    6.6773  -15.3242 C   0  0  0  0  0  0  0  0  0  0  0  0
    5.1824    6.7642  -16.8241 C   0  0  0  0  0  0  0  0  0  0  0  0
    7.0443    0.3410  -17.0209 C   0  0  0  0  0  0  0  0  0  0  0  0
    4.3487    1.8509  -20.5895 C   0  0  0  0  0  0  0  0  0  0  0  0
    5.0192    4.5360  -17.8458 C   0  0  0  0  0  0  0  0  0  0  0  0
    5.1045    2.6450  -19.4954 C   0  0  1  0  0  0  0  0  0  0  0  0
    4.2409    3.7913  -18.9412 C   0  0  2  0  0  0  0  0  0  0  0  0
    6.5502   10.1491  -21.6126 C   0  0  0  0  0  0  0  0  0  0  0  0
    5.4774    1.7342  -18.3974 N   0  0  0  0  0  0  0  0  0  0  0  0
    4.2911    5.7469  -17.4109 N   0  3  0  0  0  0  0  0  0  0  0  0
    7.7410    1.9595  -18.6234 O   0  0  0  0  0  0  0  0  0  0  0  0
    3.9404    4.6904  -20.0088 O   0  0  0  0  0  0  0  0  0  0  0  0
    8.4575   -0.2194  -22.3653 F   0  0  0  0  0  0  0  0  0  0  0  0
    4.8774   -3.0374  -20.9118 F   0  0  0  0  0  0  0  0  0  0  0  0
    7.0295   10.8278  -20.5339 F   0  0  0  0  0  0  0  0  0  0  0  0
    7.4722   10.1929  -22.6076 F   0  0  0  0  0  0  0  0  0  0  0  0
    5.3927   10.7348  -22.0156 F   0  0  0  0  0  0  0  0  0  0  0  0
    9.6014    7.3892  -18.3197 H   0  0  0  0  0  0  0  0  0  0  0  0
    8.8276    8.3746  -20.4685 H   0  0  0  0  0  0  0  0  0  0  0  0
    7.9383    6.6525  -16.6219 H   0  0  0  0  0  0  0  0  0  0  0  0
    4.7313    7.8778  -19.2320 H   0  0  0  0  0  0  0  0  0  0  0  0
    6.8354    1.7621  -21.7462 H   0  0  0  0  0  0  0  0  0  0  0  0
    3.6232   -0.7810  -20.3926 H   0  0  0  0  0  0  0  0  0  0  0  0
    7.2717   -2.5236  -21.8866 H   0  0  0  0  0  0  0  0  0  0  0  0
    5.3486    8.2634  -23.1463 H   0  0  0  0  0  0  0  0  0  0  0  0
    5.4520    6.8461  -21.9298 H   0  0  0  0  0  0  0  0  0  0  0  0
    3.4944    7.7648  -15.6512 H   0  0  0  0  0  0  0  0  0  0  0  0
    4.9199    8.8323  -15.8857 H   0  0  0  0  0  0  0  0  0  0  0  0
    6.4999    6.9269  -14.9548 H   0  0  0  0  0  0  0  0  0  0  0  0
    5.0744    5.8593  -14.7203 H   0  0  0  0  0  0  0  0  0  0  0  0
    8.1252    0.1514  -16.9458 H   0  0  0  0  0  0  0  0  0  0  0  0
    6.6580    0.6543  -16.0398 H   0  0  0  0  0  0  0  0  0  0  0  0
    6.5322   -0.5788  -17.3399 H   0  0  0  0  0  0  0  0  0  0  0  0
    4.1924    2.5002  -21.4635 H   0  0  0  0  0  0  0  0  0  0  0  0
    3.3745    1.5285  -20.1933 H   0  0  0  0  0  0  0  0  0  0  0  0
    5.1544    3.8677  -16.9826 H   0  0  0  0  0  0  0  0  0  0  0  0
    6.0033    4.8297  -18.2398 H   0  0  0  0  0  0  0  0  0  0  0  0
    6.0142    3.0740  -19.9409 H   0  0  0  0  0  0  0  0  0  0  0  0
    3.3184    3.3744  -18.5109 H   0  0  0  0  0  0  0  0  0  0  0  0
    4.7427    1.2991  -17.8769 H   0  0  0  0  0  0  0  0  0  0  0  0
    3.6114    5.4833  -16.7263 H   0  0  0  0  0  0  0  0  0  0  0  0
    3.8290    6.1447  -18.2035 H   0  0  0  0  0  0  0  0  0  0  0  0
    3.4592    4.2293  -20.6857 H   0  0  0  0  0  0  0  0  0  0  0  0
  1  2  1  0  0  0  0
  1  3  2  0  0  0  0
  2  8  2  0  0  0  0
  3  9  1  0  0  0  0
  4  8  1  0  0  0  0
  4  9  2  0  0  0  0
  5 10  1  0  0  0  0
  5 11  2  0  0  0  0
  6 10  2  0  0  0  0
  6 12  1  0  0  0  0
  7 11  1  0  0  0  0
  7 12  2  0  0  0  0
  8 14  1  0  0  0  0
  9 18  1  0  0  0  0
 10 20  1  0  0  0  0
 11 29  1  0  0  0  0
 12 30  1  0  0  0  0
 13 14  2  0  0  0  0
 14 24  1  0  0  0  0
 15 19  1  0  0  0  0
 15 25  1  0  0  0  0
 15 27  2  0  0  0  0
 16 17  1  0  0  0  0
 16 18  1  0  0  0  0
 17 18  1  0  0  0  0
 18 26  1  0  0  0  0
 20 22  1  0  0  0  0
 21 23  1  0  0  0  0
 21 26  1  0  0  0  0
 22 23  1  0  0  0  0
 22 25  1  0  0  0  0
 23 28  1  0  0  0  0
 24 31  1  0  0  0  0
 24 32  1  0  0  0  0
 24 33  1  0  0  0  0
  1 34  1  0  0  0  0
  2 35  1  0  0  0  0
  3 36  1  0  0  0  0
  4 37  1  0  0  0  0
  5 38  1  0  0  0  0
  6 39  1  0  0  0  0
  7 40  1  0  0  0  0
 13 41  1  0  0  0  0
 13 42  1  0  0  0  0
 16 43  1  0  0  0  0
 16 44  1  0  0  0  0
 17 45  1  0  0  0  0
 17 46  1  0  0  0  0
 19 47  1  0  0  0  0
 19 48  1  0  0  0  0
 19 49  1  0  0  0  0
 20 50  1  0  0  0  0
 20 51  1  0  0  0  0
 21 52  1  0  0  0  0
 21 53  1  0  0  0  0
 22 54  1  0  0  0  0
 23 55  1  0  0  0  0
 25 56  1  0  0  0  0
 26 57  1  0  0  0  0
 26 58  1  0  0  0  0
 28 59  1  0  0  0  0
M  CHG  1  26   1
M  END
> <OMEGA_C>
gbcIQYjj70CKIJTB3bcBQUezAEH64J3BI1jzQAPY4kAGaozBVjK5QPvC+ECmQJjBavrNQAt5Rj/5
f6zBt7STQDUDKr85aqbBscXVQN9V0788Na3BLkvXQGmPAkHh+5/B2yPHQCUH6EDCaI7BIZakQBrB
ID83G6jBBaHmQKTLub4e967B3zqsQLuK5r/t/ajBq6q0QBca/EDodLHBz7XIQF1AC0FQMarBCk3Z
QOjsuD9mWJDBb1GSQDk9+UAM5X3BXdGvQGqs1UDPL3XBZdalQIF02EC6l4bBy2rhQACTrj7aKojB
kSiLQBTp7D9Ft6TBTp2gQOsmkUA2xI7BL1ijQMhHKUB+9pvBV7WHQHqlckCuh5fB2JrRQJJiIkGP
5qzBr0avQE773T/3LZPBZ1CJQGnmt0CBSYvBC7b3QBXQ+j+g/JTBki98QPgXlkD4EaDB8FEHQRGr
YL467LLBxBOcQDVlQsBiS6fBnvHgQJ0+LUFlRaTBbxzvQAMWI0Fy3LTBEpGsQMHBK0HpH7DBVJ8Z
QQJ07EDUjpLB5z0NQUj+BUF9v6PBrQb+QHXh1EC++YTBl2aXQC4X/EAz25nBp7vaQNGL4T9J+K3B
IONnQD7yR7/5I6PBebHoQFOCIcCtF6/B7yerQOE2BEGVK7nBZ3auQGcT20A4cK/Bz6NfQNV4+EA1
a3rBnW+dQPtQDUHpK37Blf/PQNao3UALR2/B32GiQLZ/u0BXhmvB5wACQYUHGz79kIfBoQ7VQHF9
Jz90UYDBZwfRQNErFL8suIrBDSiGQGYDIEBFtavBf/dXQDmnwz/Ii6HBr/CkQDyId0Bp3IfBUBvA
QCONmkAN65HBAXTAQFC8RED6hp/B+2BUQH71V0BkFpTBT8SXQLZIpj/6A4/BIiFnQIx3r0COz4XB
2A11QJKhxEC2oJHB0GJdQLRWh0BqfKXBLgUJQdaL7UB4FpTBOMACQTtkAUHUfp3BSkfzQAx14ED6
nIzB3fC6QBPg+kBZX5jBk5zNQO+7Rz/Gt6zBrWKVQDQxMb9096XBYVrXQK730b83J63BNanZQGWI
BUHEsJ/B1qHHQDpu50Deu47BoeikQHPZGz8H/6fB6ePmQCKur74iOK/Bg4GuQPVC6L9xlqjB0X7r
QJ7pHEGzb6/Bgb3MQDvCEkGWQqnBGdfaQJi/tD+V/ZDBmmqRQFMH+kBdRX/BvdKuQCoI10DJ6HXB
fImlQEmS2EAHAIfBDgjkQNZDxD6FSIjBN+2KQPyc6D+RkKTBrp2gQPYAkUAW847BnRujQPpLKEDe
7JvB4bqGQFBSb0DQO5fBmdudQDqoFEEU0azBSX2wQHxM3T94OZPBGy2JQDGvt0DUjovBPZ34QMGU
AECAPpXBRflyQFBqk0A0rZ/BORkHQaPONL6WirPBX5GfQHHQQ8A5oKbBX6qCQAi0GEFEmKTB9iWY
QDsiJUGIw7PBBxyTQKIQAkE0wrHBAcIZQRtL50BtnZLBnMoOQcF7BkFCJaPBygj9QJUa0UBTRIXB
CEyZQB2H/UDpO5rBaVvZQDkG4z9Eaa7Be2lsQBK5U788ZqLBo8HqQOQWIMC/Ea/BFx3iQKTEJUGb
ebbBnmoGQU/3G0FbNa3BjqVdQJ9F+UDuCXzBNWWcQJ65DUFj4n/B8crOQL5130Bj3m/BgzihQCJI
vUDuBWzBzmEDQRHRoj7584bBgCjUQL5PMD+G0YDBwsrXQGBbGb+4y4rB4iWFQCZsHUByj6vBfkJY
QC83vT8MR6HBqX6mQPg/eUAs7YfBBl+/QD6KmkAugZLBx3e/QG3BRUBfnZ/BM7VVQK4gUkAgSpPB
67eZQPkOqT84po7BDC5nQO5cr0DhB4bBfV10QB0IxEBp6pHBafNSQJqag0BdyaTBb/sIQY6x7EBu
L5TBh8YCQVDkAEHmoJ3B9CTzQOsH4EB7qozBSgC7QFl//EAqLJjBEobOQD7sUT/GsazBdgSWQGAk
K7+nU6bBj4TYQBKezL/GWq3Bf87ZQDxhBUG4t5/BAo7HQK0R6EAVpo7BkpKlQNkCIz9zI6jBYwzo
QOvcl75KOq/BomuvQKhY5L9y9ajBzXHqQEadGkGlUrDBt2PMQNIgEkErXKnBNH/aQMY0uT+DgJDB
alaRQPOh+UAa1n7BiOOuQCBV1kBk3HXBX3GlQD3R2EBw9IbBDV/jQHXBpD6+kYjBo2CLQDgH6z9x
n6TB82+gQMYUkUDQ0Y7BszajQCCJKEBr1JvBQ6aGQL8Kb0AIFpfBfuycQOjtFkHySavBYDywQIfv
2z+jMJPBjyOJQH4duEAunYvBd3L4QIR5/T8zMpXBRBtyQBc4k0BYgJ/BptIHQYG/870hWrPBx42g
QFwdQsBFIqfBtj+HQO04BEGfhKzBE/yMQIwOIkFn06LBIUyWQO/1IkHoL7TBD7MZQf425kBAt5LB
sswOQYGiBUHbXKPBtdX8QMgr0EC6YYXBsGSZQEO0AEHtxJnBiUTaQAid6D93PK7BwjBtQKrlT7/5
6qLBBR7sQKAYHcDZSa/B0z/gQOlqJEE297bBnwcGQXtsF0EKG6/B0IddQB2r+EANkHvBdzycQHmM
DUFvI3/BjuDOQK6X3kCJyW/B/2ehQNkpvEAnNmzBSQMDQbfiCj79KYjB547XQLVjHD/em4DBqevS
QMLGF783NovBxMyFQCF0H0BLjavBGPtYQB6Rvj8rcqHB++KlQJoMekCgt4fBv2a/QL0ymkBuVJLB
O7m/QOBjRkAvZZ/BE+pVQIlaUUBpHpPBqDSZQI64oT9F/o7BNftlQHkrsEA2MYbB26p1QHh1xEAP
EpLBwDRSQLZPg0DImqTBsADUQCXDBkF4dKDBNv3/QN41BkGV8p3Basq1QIfM/UCFCpnBhozvQO0B
6UAMGo3BHN7MQOgePD/ksqzBbr2SQDsiKL+v2aXBpFvSQMki2b8NhK3BU9sGQYkd+0AyCZTBCtPD
QI2u60B2R4/BbFWkQAFjHj92z6fBaPHjQAgs2L7efK/B5KepQOAD6L8bwKjB/qglQeff30CDuInB
JuAcQWQbAEGl4o/BLgHZQK7Ppz8iE5DBXD+RQFK890Akt33BOsCwQNKg1EDlnnbBaHSkQKaa2UDs
NofBwJ3eQN0TUz79xofB1lyMQJLH7T/GWaTBUtSiQMfckUB41o7BUkelQNfiJ0ATlpvBMgOKQC75
cUCFU5fBtTsnQTFCFkHjxI/BFLevQOhP2z8frpLB3riJQK3Bt0Ddr4vBii34QC/z2T+xJZXBsXx/
QNUGlUCY+J/BwnsFQfSHnr7fELTBfKSYQDYvQsDN6abBUTwkQXD8IEFgGJnBBjUeQQXMIUGNtYfB
qqA8Qc/EFEEc/Y3BiXbJQMYvDUHPB6jBSJcLQbBdDEGzkKPB6wOUQD+X/0Dn0JrBLkT6QJG82EAz
94XBlSzaQDUM2z+FTK7BO2FnQD4RP7/1H6LBqRTkQGNhJcBOqK/BlaozQRAb5kD/54TByYEeQS5q
wEDjuYnBh1NeQFYw9UAJgnnBdQ6bQNTDDEHHRn3BdhfRQAdI3UAPL3HBxTKlQLbwuEBRam3BdzAA
Qca00719hYfBePHUQM6hFD9yun/B/Y/KQHPbJ78c9onBW/OHQOwNIUCWT6vBKtFZQFAeyD+gLaHB
gS+oQLC3ekCuz4fBNdfBQCsUnEAtIJLBHeLCQOvIQUCZE5/B/VVZQBvmV0CSuJPBbZSXQFyNrj/z
O47BTldoQDn6rkAdMobBojt1QHIjw0DZI5LBV5VgQPi2hUCpR6XBVDTaQJzFB0Hu1Z/BcpgCQV9s
BUH2cpzBk524QMJcAEEJNJnByuvsQDx530C/mY3Bma7LQLwqPj8ctKzBdBeTQKCxKL+ZNKXBD9nR
QJju178lYq3B5QYHQYCe9EDlzJLB3r/CQCGu6UBZ0I/BUvujQFpKHj+QbafB6bHiQLDN0b6Lnq/B
iuGpQP26579xQKjBogguQQjLAEEmzpHB6ucaQePv+kBakozBlmLbQOgBrD+QYJDBIQ2PQBAq+0Am
x3/BAditQABL2EDxo3fBB9yhQE/n2kBtzIfBT7fiQJtHkz7LwYfBhAKMQJfQ7D/I6qPBGBahQJTy
kUB3jY7Bv4SlQG7nKEBiaZvBSpGJQK8CckCYNJfB8hwZQZ0AAEF2MoDBt6yxQDSy4D/GdZLBdI6H
QPkxuEDG2ovBH2T5QNW32D+rDZbB0XJ/QEwQlUDe4p/BR2sEQUNwlL48oLTBQE+ZQNovQsDfRabB
8ZgTQSDl2kA2WXbBEcYrQWGJBkFYgHfB99oJQZv1DkGA0nvBZxbTQPgsD0Heb6fBfXwPQTIGDEGG
KaHBLKqXQNt5A0H2SpvBSyH0QHHqxkBuy4fBIWTYQHFg3D9jgK7BUl9pQGHSQL8HK6HB0pLjQOiU
JMB+mq/BRSA8QfU8BUGFU43BTu0uQcXn/UBvYprBHcVZQES0+UCBm3vBm3uZQK9iDkFkHYDBj0nO
QE3u4EBHWnLBg7ChQDPdvUAAu23BnDICQdj0Ab0h5IfB3xXbQKBlNj/6u3/B+fDNQFNHFL8STInB
9YuGQAnIH0Ch56rBuBhaQKgzxj8Kf6DBavukQMyZe0ASZ4fB5L/AQJG/m0Deg5HBymHCQH/XQ0Bi
KJ/BpBVYQPwAV0AyzpPBO3+aQGhVtz9nlo3B0BxkQKZCsEBwRYbBx8NwQOU2wkACcJLBLRRiQDee
hUBHTqXB

> <OMEGA_E>
lPfIPhgKyT7wP8o+9A0WPwydGD8=

> <OMEGA_NBR>
    130513

$$$$
50212883
  -OEChem-04172616093D

 75 77  0     1  0  0  0  0  0999 V2000
    8.6096    7.6594  -18.4499 C   0  0  0  0  0  0  0  0  0  0  0  0
    7.6824    7.0920  -17.5589 C   0  0  0  0  0  0  0  0  0  0  0  0
    8.1655    8.3640  -19.5821 C   0  0  0  0  0  0  0  0  0  0  0  0
    5.8633    7.8709  -18.9724 C   0  0  0  0  0  0  0  0  0  0  0  0
    6.3192    0.7939  -21.5442 C   0  0  0  0  0  0  0  0  0  0  0  0
    4.5585   -0.6720  -20.6916 C   0  0  0  0  0  0  0  0  0  0  0  0
    6.6373   -1.6203  -21.5429 C   0  0  0  0  0  0  0  0  0  0  0  0
    6.2900    7.2049  -17.8073 C   0  0  0  0  0  0  0  0  0  0  0  0
    6.7787    8.5026  -19.8392 C   0  0  0  0  0  0  0  0  0  0  0  0
    5.0415    0.6193  -20.9708 C   0  0  0  0  0  0  0  0  0  0  0  0
    7.1224   -0.3250  -21.8151 C   0  0  0  0  0  0  0  0  0  0  0  0
    5.3523   -1.7917  -20.9873 C   0  0  0  0  0  0  0  0  0  0  0  0
    6.7883    1.4977  -18.0056 C   0  0  0  0  0  0  0  0  0  0  0  0
    4.8739    8.7338  -15.5051 C   0  0  0  0  0  0  0  0  0  0  0  0
    4.2086    7.7304  -16.4358 C   0  0  0  0  0  0  0  0  0  0  0  0
    5.8065    5.9346  -15.5935 C   0  0  0  0  0  0  0  0  0  0  0  0
    5.4245    7.9793  -14.2823 C   0  0  2  0  0  0  0  0  0  0  0  0
    5.2154    6.6280  -16.8569 C   0  0  2  0  0  0  0  0  0  0  0  0
    7.0837    0.5300  -16.8625 C   0  0  0  0  0  0  0  0  0  0  0  0
    6.1231    8.9585  -13.3513 C   0  0  0  0  0  0  0  0  0  0  0  0
    5.8673    8.1606  -22.1394 C   0  0  0  0  0  0  0  0  0  0  0  0
    7.2942   10.1931  -21.7030 C   0  0  0  0  0  0  0  0  0  0  0  0
    4.9900   10.0770  -20.7383 C   0  0  0  0  0  0  0  0  0  0  0  0
    4.2446    1.8160  -20.5443 C   0  0  0  0  0  0  0  0  0  0  0  0
    5.0983    4.4752  -17.9713 C   0  0  0  0  0  0  0  0  0  0  0  0
    5.0536    2.5924  -19.4958 C   0  0  1  0  0  0  0  0  0  0  0  0
    4.2220    3.7286  -18.9440 C   0  0  2  0  0  0  0  0  0  0  0  0
    6.2467    9.2276  -21.0880 C   0  0  0  0  0  0  0  0  0  0  0  0
    6.3921    6.9399  -14.6939 N   0  0  0  0  0  0  0  0  0  0  0  0
    5.4654    1.6988  -18.3892 N   0  0  0  0  0  0  0  0  0  0  0  0
    4.3863    5.6689  -17.5690 N   0  3  0  0  0  0  0  0  0  0  0  0
    7.7056    2.1433  -18.5021 O   0  0  0  0  0  0  0  0  0  0  0  0
    3.8299    4.6014  -20.0064 O   0  0  0  0  0  0  0  0  0  0  0  0
    8.3629   -0.1529  -22.3236 F   0  0  0  0  0  0  0  0  0  0  0  0
    4.8850   -3.0305  -20.7196 F   0  0  0  0  0  0  0  0  0  0  0  0
    9.6681    7.5536  -18.2636 H   0  0  0  0  0  0  0  0  0  0  0  0
    8.0312    6.5678  -16.6815 H   0  0  0  0  0  0  0  0  0  0  0  0
    8.8842    8.8016  -20.2591 H   0  0  0  0  0  0  0  0  0  0  0  0
    4.8096    7.8986  -19.2077 H   0  0  0  0  0  0  0  0  0  0  0  0
    6.6782    1.7862  -21.7742 H   0  0  0  0  0  0  0  0  0  0  0  0
    3.5808   -0.8016  -20.2515 H   0  0  0  0  0  0  0  0  0  0  0  0
    7.2504   -2.4825  -21.7601 H   0  0  0  0  0  0  0  0  0  0  0  0
    5.6980    9.2376  -16.0315 H   0  0  0  0  0  0  0  0  0  0  0  0
    4.1363    9.4814  -15.1780 H   0  0  0  0  0  0  0  0  0  0  0  0
    3.3579    7.2644  -15.9169 H   0  0  0  0  0  0  0  0  0  0  0  0
    3.8484    8.2535  -17.3339 H   0  0  0  0  0  0  0  0  0  0  0  0
    5.0056    5.3961  -15.0656 H   0  0  0  0  0  0  0  0  0  0  0  0
    6.5866    5.2224  -15.9005 H   0  0  0  0  0  0  0  0  0  0  0  0
    4.5854    7.5113  -13.7468 H   0  0  0  0  0  0  0  0  0  0  0  0
    8.1588    0.5526  -16.6308 H   0  0  0  0  0  0  0  0  0  0  0  0
    6.5106    0.8284  -15.9722 H   0  0  0  0  0  0  0  0  0  0  0  0
    6.7943   -0.4885  -17.1604 H   0  0  0  0  0  0  0  0  0  0  0  0
    6.5161    8.4178  -12.4777 H   0  0  0  0  0  0  0  0  0  0  0  0
    6.9529    9.4440  -13.8857 H   0  0  0  0  0  0  0  0  0  0  0  0
    5.4054    9.7222  -13.0172 H   0  0  0  0  0  0  0  0  0  0  0  0
    5.4834    8.6562  -23.0434 H   0  0  0  0  0  0  0  0  0  0  0  0
    6.7569    7.5670  -22.3966 H   0  0  0  0  0  0  0  0  0  0  0  0
    5.0916    7.4989  -21.7267 H   0  0  0  0  0  0  0  0  0  0  0  0
    6.8656   10.6839  -22.5892 H   0  0  0  0  0  0  0  0  0  0  0  0
    7.5709   10.9554  -20.9597 H   0  0  0  0  0  0  0  0  0  0  0  0
    8.1893    9.6246  -21.9958 H   0  0  0  0  0  0  0  0  0  0  0  0
    4.6270   10.5856  -21.6436 H   0  0  0  0  0  0  0  0  0  0  0  0
    4.2005    9.4192  -20.3459 H   0  0  0  0  0  0  0  0  0  0  0  0
    5.2543   10.8266  -19.9778 H   0  0  0  0  0  0  0  0  0  0  0  0
    4.0492    2.4606  -21.4139 H   0  0  0  0  0  0  0  0  0  0  0  0
    3.2892    1.4891  -20.1081 H   0  0  0  0  0  0  0  0  0  0  0  0
    5.3034    3.8465  -17.0923 H   0  0  0  0  0  0  0  0  0  0  0  0
    6.0472    4.7495  -18.4555 H   0  0  0  0  0  0  0  0  0  0  0  0
    5.9491    3.0085  -19.9804 H   0  0  0  0  0  0  0  0  0  0  0  0
    3.3423    3.3258  -18.4207 H   0  0  0  0  0  0  0  0  0  0  0  0
    6.7298    6.4764  -13.8747 H   0  0  0  0  0  0  0  0  0  0  0  0
    4.7508    1.2108  -17.8879 H   0  0  0  0  0  0  0  0  0  0  0  0
    3.6301    5.4002  -16.9725 H   0  0  0  0  0  0  0  0  0  0  0  0
    4.0232    6.1119  -18.3887 H   0  0  0  0  0  0  0  0  0  0  0  0
    3.2778    4.1285  -20.6179 H   0  0  0  0  0  0  0  0  0  0  0  0
  1  2  2  0  0  0  0
  1  3  1  0  0  0  0
  2  8  1  0  0  0  0
  3  9  2  0  0  0  0
  4  8  2  0  0  0  0
  4  9  1  0  0  0  0
  5 10  1  0  0  0  0
  5 11  2  0  0  0  0
  6 10  2  0  0  0  0
  6 12  1  0  0  0  0
  7 11  1  0  0  0  0
  7 12  2  0  0  0  0
  8 18  1  0  0  0  0
  9 28  1  0  0  0  0
 10 24  1  0  0  0  0
 11 34  1  0  0  0  0
 12 35  1  0  0  0  0
 13 19  1  0  0  0  0
 13 30  1  0  0  0  0
 13 32  2  0  0  0  0
 14 15  1  0  0  0  0
 14 17  1  0  0  0  0
 15 18  1  0  0  0  0
 16 18  1  0  0  0  0
 16 29  1  0  0  0  0
 17 20  1  0  0  0  0
 17 29  1  0  0  0  0
 18 31  1  0  0  0  0
 21 28  1  0  0  0  0
 22 28  1  0  0  0  0
 23 28  1  0  0  0  0
 24 26  1  0  0  0  0
 25 27  1  0  0  0  0
 25 31  1  0  0  0  0
 26 27  1  0  0  0  0
 26 30  1  0  0  0  0
 27 33  1  0  0  0  0
  1 36  1  0  0  0  0
  2 37  1  0  0  0  0
  3 38  1  0  0  0  0
  4 39  1  0  0  0  0
  5 40  1  0  0  0  0
  6 41  1  0  0  0  0
  7 42  1  0  0  0  0
 14 43  1  0  0  0  0
 14 44  1  0  0  0  0
 15 45  1  0  0  0  0
 15 46  1  0  0  0  0
 16 47  1  0  0  0  0
 16 48  1  0  0  0  0
 17 49  1  0  0  0  0
 19 50  1  0  0  0  0
 19 51  1  0  0  0  0
 19 52  1  0  0  0  0
 20 53  1  0  0  0  0
 20 54  1  0  0  0  0
 20 55  1  0  0  0  0
 21 56  1  0  0  0  0
 21 57  1  0  0  0  0
 21 58  1  0  0  0  0
 22 59  1  0  0  0  0
 22 60  1  0  0  0  0
 22 61  1  0  0  0  0
 23 62  1  0  0  0  0
 23 63  1  0  0  0  0
 23 64  1  0  0  0  0
 24 65  1  0  0  0  0
 24 66  1  0  0  0  0
 25 67  1  0  0  0  0
 25 68  1  0  0  0  0
 26 69  1  0  0  0  0
 27 70  1  0  0  0  0
 29 71  1  0  0  0  0
 30 72  1  0  0  0  0
 31 73  1  0  0  0  0
 31 74  1  0  0  0  0
 33 75  1  0  0  0  0
M  CHG  1  31   1
M  END
> <OMEGA_C>
6sAJQQQa9UBQmZPB6dX1QJHx4kC6eIzB/6UCQfHSBUErqJzBDqC7QK7e+0CHx5fB+jbKQD88Sz+Z
WqzBON+RQE4FLL9viKXBCGXUQOpkz7/hV6zB4kfJQEGO5kBpdY7B5urYQLcKCEGZtp7B11OhQPOL
Hj86xKfBDOvjQLBkpr5Pha7B2UWrQMBV5b/x5afB6jnZQN61vz9wC5DBY/ebQIu9C0HvFHjB7ayG
QCNf90CRfIPBvM65QAzovUADf3nB0pWtQIpW/0A5hGTB3+SmQIsY1EDc2obBsK3iQDyuBz9N5obB
PvDDQAZWD0HLnlXB+cC7QAWSAkGRHbHBZWrpQAQXI0Gnn63BT66fQHk7IUH056XB+9OHQJhy6D+2
WqTBOSWjQH80j0BRxY/Bs7ahQGjqJUBW95vBZxqHQGShbkBajZfBoOTHQEukE0EitKjB0YvMQJUT
3kBKGmvBROSuQLdx2T8pHZPB9VyMQK9ntUBcjYzB6JP2QC0rCUBKBJTBSR11QAk/k0ASDaDBn84F
QQyeHL7OlrLBCVKcQFD0QcDIwaXBsLAaQfy28UDXG5LB538AQUAr0kC7c4XBxyUOQXPTDEG2EqLB
MuiZQBzB/EBrqZnB2bPVQNuh5D94Ma7BzitlQFk0Tb8UA6LBQwPoQKrgHsCuFK7B1FW2QETNE0GW
QIDB7lyEQMizF0EM2XLBpOhWQNh16EDHq37Bs0t2QFsOBEHXq4rBRy6gQPGsrECWDHHBOcXSQOYd
p0CaaH7BYLuSQJ1c8EDI8lvBbYoCQYl0DT/eC4XBxVbQQMATVD9Fjn/BgmrZQPIh+r6OSInBJYTQ
QICvBkF5pEfBgX7eQJkaF0HWK17Bz/isQFaOG0GFRlDBFHivQJ9/CkHSWLjBmTjYQKYk8kBULLPB
be6iQLX270BW0K3BpbLbQB/xKkGltrTBFUXyQExJL0GKrafBMQcDQV7+GUFO96/BvRCUQKVeKUEG
Jq3Bu2qGQPe0FkFrxKLBHSOoQJ45LUF40p/BPpOBQA97HUC3T6vBvoFSQPiavj9x3aDBxLWpQM4s
dkATvYjBioLBQJn7l0DGpJPB4l6+QOyLQEDj15/BkOdVQMbZVECgXZPBm1rXQMw+z0DE/l3B2waY
QCz8mj9qGo/BEFNoQHjOrECtx4fB5L2AQASVw0ACHJPB4cZRQAgdhECI8aTBfsQJQcDB9UBShJPB
meT1QDxh40AEbIzBiqYCQVMXBkHzlpzBt6i7QDHp+0CsyJfBukXKQFRlSz9zQazB5hCSQGFpLL9W
ZKXBprbUQM4iz7+GKKzBllnJQA+y5kBkc47BquvYQEgXCEG2tZ7BW2mhQF4+Hj9cqafBhBvkQNMX
pb74X67BLJSrQC1a5b95uafB3e3YQAYxxj+Np4/BvE+cQDOGC0GXoXfBWP6GQB6I90DAaoPBKv65
QFx4vUBWpXnBRYGtQIsj/kDrNmTBDAOnQPUq1EC024bBG3riQM/Y/j7VIIfB44bDQBxkDkEr2lTB
RtzpQHFdIkHh763B4s2gQLD8IUFGw6XBObC5QJGWAkGB7LDBH9SHQDM+6D9jSqTBoROjQEl3j0Cf
0o/BuLOhQEQ1JkAu8ZvBowaHQLr5bkAYkpfBz8rHQA+pE0G8sqjB6JnMQI833UAxAmvBg9OuQM3E
2j82DZPBdGCMQIOxtUDzmIzBL7H2QC9IB0DjLZTBzNF0QPtMk0CdFaDByuQFQTs4F77fcbLBebKc
QIcCQsA2lKXBRrQaQW6i8kC+/ZHBaYgAQUqp0kAcZYXB2iMOQVg3DUGA+KHB6PKZQHGq/EDBrZnB
kKPVQOq65D8II67BRJNlQN3rTb+d3qHBynDoQIerHsBr263BOeW2QHOgE0HK13/BcM6EQKV7F0Hp
R3LB7A5XQAqc6EBXvX7B1qF3QNJjBEGjj4rBg2mgQAPoq0AlVnHBjQnTQD/ppkDJt37B3nmSQD3G
7kBL9lvBQagCQbdDyD6CM4bBx1jUQDitTz/i737BYKTUQM/x7r40kYnBT8XPQNttBUE+/0bBoUne
QIZVFkGFE13BFHSsQAiAGkE0X0/BBgXcQIw3KkELA7XBCRb0QN6XLkGtJajBfNICQTK2GEGFXbDB
kgeVQE0cKkE6/qzB4CuHQK36F0FeZaLBa6SqQDkALkEc0p/BgVCtQNuJCkHDI7jBGEbVQH0S8UC4
ErPBPHGgQAwS8UA8aa3BQn6BQGUWHUAQRavBapdSQLBevj+mx6DBwrepQGfMdkA0yYjBOGbBQIk4
mEAkuJPBflu+QPG6QEDl1J/Bg9FVQFo9VUCgXZPBpGnXQMwGzkBNAV7BpAaYQL6tmD8sQI/BESto
QDgjrUCE2YfBXOSAQCMAxEDuJpPB+nFRQGIYhEBm9aTB

> <OMEGA_E>
oIlRPlC5Uj4=

> <OMEGA_NBR>
    133206

$$$$
50212888
  -OEChem-04172616093D

 77 79  0     1  0  0  0  0  0999 V2000
    8.5956    7.5118  -18.4278 C   0  0  0  0  0  0  0  0  0  0  0  0
    7.6350    7.0304  -17.5172 C   0  0  0  0  0  0  0  0  0  0  0  0
    8.1936    8.2134  -19.5805 C   0  0  0  0  0  0  0  0  0  0  0  0
    5.8727    7.8592  -18.9638 C   0  0  0  0  0  0  0  0  0  0  0  0
    6.3169    0.8070  -21.6057 C   0  0  0  0  0  0  0  0  0  0  0  0
    4.5703   -0.6559  -20.7210 C   0  0  0  0  0  0  0  0  0  0  0  0
    6.5803   -1.6130  -21.7159 C   0  0  0  0  0  0  0  0  0  0  0  0
    6.2547    7.2301  -17.7649 C   0  0  0  0  0  0  0  0  0  0  0  0
    6.8162    8.4217  -19.8420 C   0  0  0  0  0  0  0  0  0  0  0  0
    5.0672    0.6369  -20.9733 C   0  0  0  0  0  0  0  0  0  0  0  0
    7.0781   -0.3180  -21.9655 C   0  0  0  0  0  0  0  0  0  0  0  0
    5.3229   -1.7800  -21.0999 C   0  0  0  0  0  0  0  0  0  0  0  0
    7.3823    7.1991  -14.0780 C   0  0  0  0  0  0  0  0  0  0  0  0
    6.8842    1.4432  -18.0604 C   0  0  0  0  0  0  0  0  0  0  0  0
    4.7701    8.9802  -15.6530 C   0  0  0  0  0  0  0  0  0  0  0  0
    4.1265    7.8957  -16.5279 C   0  0  0  0  0  0  0  0  0  0  0  0
    5.1855    8.3482  -14.3281 C   0  0  0  0  0  0  0  0  0  0  0  0
    5.6028    6.1384  -15.4683 C   0  0  0  0  0  0  0  0  0  0  0  0
    5.1299    6.7373  -16.8220 C   0  0  2  0  0  0  0  0  0  0  0  0
    8.1098    5.8699  -13.8451 C   0  0  0  0  0  0  0  0  0  0  0  0
    7.1928    0.3207  -17.0735 C   0  0  0  0  0  0  0  0  0  0  0  0
    5.9010    8.0997  -22.1481 C   0  0  0  0  0  0  0  0  0  0  0  0
    7.3880   10.0901  -21.7052 C   0  0  0  0  0  0  0  0  0  0  0  0
    5.0754   10.0450  -20.7595 C   0  0  0  0  0  0  0  0  0  0  0  0
    4.2955    1.8361  -20.4996 C   0  0  0  0  0  0  0  0  0  0  0  0
    5.1268    4.5334  -17.9057 C   0  0  0  0  0  0  0  0  0  0  0  0
    5.1217    2.6121  -19.4556 C   0  0  1  0  0  0  0  0  0  0  0  0
    4.2766    3.7338  -18.8730 C   0  0  2  0  0  0  0  0  0  0  0  0
    6.3103    9.1561  -21.0976 C   0  0  0  0  0  0  0  0  0  0  0  0
    6.0909    7.2166  -14.5927 N   0  0  0  0  0  0  0  0  0  0  0  0
    5.5541    1.7076  -18.3707 N   0  0  0  0  0  0  0  0  0  0  0  0
    4.3524    5.7142  -17.5181 N   0  3  0  0  0  0  0  0  0  0  0  0
    7.9538    8.2477  -13.8025 O   0  0  0  0  0  0  0  0  0  0  0  0
    7.8043    1.9825  -18.6663 O   0  0  0  0  0  0  0  0  0  0  0  0
    3.8320    4.5875  -19.9298 O   0  0  0  0  0  0  0  0  0  0  0  0
    8.2898   -0.1538  -22.5416 F   0  0  0  0  0  0  0  0  0  0  0  0
    4.8418   -3.0195  -20.8597 F   0  0  0  0  0  0  0  0  0  0  0  0
    9.6457    7.3419  -18.2410 H   0  0  0  0  0  0  0  0  0  0  0  0
    7.9519    6.5073  -16.6271 H   0  0  0  0  0  0  0  0  0  0  0  0
    8.9360    8.5936  -20.2666 H   0  0  0  0  0  0  0  0  0  0  0  0
    4.8242    7.9117  -19.2173 H   0  0  0  0  0  0  0  0  0  0  0  0
    6.6878    1.8000  -21.8128 H   0  0  0  0  0  0  0  0  0  0  0  0
    3.6130   -0.7832  -20.2374 H   0  0  0  0  0  0  0  0  0  0  0  0
    7.1626   -2.4782  -21.9967 H   0  0  0  0  0  0  0  0  0  0  0  0
    5.6546    9.3912  -16.1617 H   0  0  0  0  0  0  0  0  0  0  0  0
    4.0454    9.7869  -15.4685 H   0  0  0  0  0  0  0  0  0  0  0  0
    3.2497    7.4865  -16.0047 H   0  0  0  0  0  0  0  0  0  0  0  0
    3.8085    8.3451  -17.4802 H   0  0  0  0  0  0  0  0  0  0  0  0
    5.7031    9.0965  -13.7100 H   0  0  0  0  0  0  0  0  0  0  0  0
    4.2923    7.9880  -13.7965 H   0  0  0  0  0  0  0  0  0  0  0  0
    4.7606    5.6249  -14.9814 H   0  0  0  0  0  0  0  0  0  0  0  0
    6.4149    5.4192  -15.6504 H   0  0  0  0  0  0  0  0  0  0  0  0
    9.1114    6.0664  -13.4349 H   0  0  0  0  0  0  0  0  0  0  0  0
    7.5360    5.2577  -13.1337 H   0  0  0  0  0  0  0  0  0  0  0  0
    8.2039    5.3314  -14.7996 H   0  0  0  0  0  0  0  0  0  0  0  0
    8.2782    0.1441  -17.0460 H   0  0  0  0  0  0  0  0  0  0  0  0
    6.8426    0.6075  -16.0710 H   0  0  0  0  0  0  0  0  0  0  0  0
    6.6798   -0.5987  -17.3920 H   0  0  0  0  0  0  0  0  0  0  0  0
    5.5360    8.6053  -23.0544 H   0  0  0  0  0  0  0  0  0  0  0  0
    6.7722    7.4776  -22.4011 H   0  0  0  0  0  0  0  0  0  0  0  0
    5.1033    7.4637  -21.7368 H   0  0  0  0  0  0  0  0  0  0  0  0
    6.9805   10.5901  -22.5963 H   0  0  0  0  0  0  0  0  0  0  0  0
    7.6791   10.8465  -20.9615 H   0  0  0  0  0  0  0  0  0  0  0  0
    8.2696    9.4966  -21.9890 H   0  0  0  0  0  0  0  0  0  0  0  0
    4.7324   10.5586  -21.6698 H   0  0  0  0  0  0  0  0  0  0  0  0
    4.2649    9.4128  -20.3679 H   0  0  0  0  0  0  0  0  0  0  0  0
    5.3572   10.7910  -20.0018 H   0  0  0  0  0  0  0  0  0  0  0  0
    4.0801    2.4926  -21.3555 H   0  0  0  0  0  0  0  0  0  0  0  0
    3.3505    1.5052  -20.0443 H   0  0  0  0  0  0  0  0  0  0  0  0
    5.3580    3.9269  -17.0177 H   0  0  0  0  0  0  0  0  0  0  0  0
    6.0634    4.8412  -18.3936 H   0  0  0  0  0  0  0  0  0  0  0  0
    6.0033    3.0452  -19.9507 H   0  0  0  0  0  0  0  0  0  0  0  0
    3.4189    3.3028  -18.3358 H   0  0  0  0  0  0  0  0  0  0  0  0
    4.8469    1.2574  -17.8256 H   0  0  0  0  0  0  0  0  0  0  0  0
    3.6110    5.4192  -16.9153 H   0  0  0  0  0  0  0  0  0  0  0  0
    3.9668    6.1221  -18.3457 H   0  0  0  0  0  0  0  0  0  0  0  0
    3.2988    4.0886  -20.5375 H   0  0  0  0  0  0  0  0  0  0  0  0
  1  2  2  0  0  0  0
  1  3  1  0  0  0  0
  2  8  1  0  0  0  0
  3  9  2  0  0  0  0
  4  8  2  0  0  0  0
  4  9  1  0  0  0  0
  5 10  1  0  0  0  0
  5 11  2  0  0  0  0
  6 10  2  0  0  0  0
  6 12  1  0  0  0  0
  7 11  1  0  0  0  0
  7 12  2  0  0  0  0
  8 19  1  0  0  0  0
  9 29  1  0  0  0  0
 10 25  1  0  0  0  0
 11 36  1  0  0  0  0
 12 37  1  0  0  0  0
 13 20  1  0  0  0  0
 13 30  1  0  0  0  0
 13 33  2  0  0  0  0
 14 21  1  0  0  0  0
 14 31  1  0  0  0  0
 14 34  2  0  0  0  0
 15 16  1  0  0  0  0
 15 17  1  0  0  0  0
 16 19  1  0  0  0  0
 17 30  1  0  0  0  0
 18 19  1  0  0  0  0
 18 30  1  0  0  0  0
 19 32  1  0  0  0  0
 22 29  1  0  0  0  0
 23 29  1  0  0  0  0
 24 29  1  0  0  0  0
 25 27  1  0  0  0  0
 26 28  1  0  0  0  0
 26 32  1  0  0  0  0
 27 28  1  0  0  0  0
 27 31  1  0  0  0  0
 28 35  1  0  0  0  0
  1 38  1  0  0  0  0
  2 39  1  0  0  0  0
  3 40  1  0  0  0  0
  4 41  1  0  0  0  0
  5 42  1  0  0  0  0
  6 43  1  0  0  0  0
  7 44  1  0  0  0  0
 15 45  1  0  0  0  0
 15 46  1  0  0  0  0
 16 47  1  0  0  0  0
 16 48  1  0  0  0  0
 17 49  1  0  0  0  0
 17 50  1  0  0  0  0
 18 51  1  0  0  0  0
 18 52  1  0  0  0  0
 20 53  1  0  0  0  0
 20 54  1  0  0  0  0
 20 55  1  0  0  0  0
 21 56  1  0  0  0  0
 21 57  1  0  0  0  0
 21 58  1  0  0  0  0
 22 59  1  0  0  0  0
 22 60  1  0  0  0  0
 22 61  1  0  0  0  0
 23 62  1  0  0  0  0
 23 63  1  0  0  0  0
 23 64  1  0  0  0  0
 24 65  1  0  0  0  0
 24 66  1  0  0  0  0
 24 67  1  0  0  0  0
 25 68  1  0  0  0  0
 25 69  1  0  0  0  0
 26 70  1  0  0  0  0
 26 71  1  0  0  0  0
 27 72  1  0  0  0  0
 28 73  1  0  0  0  0
 31 74  1  0  0  0  0
 32 75  1  0  0  0  0
 32 76  1  0  0  0  0
 35 77  1  0  0  0  0
M  CHG  1  32   1
M  END
> <OMEGA_C>
mYcJQZxg8EAobJPB+1H0QDL54EBOI4zB5hgDQT9qA0HrpJzBRO27QFd++0D0tZfBTSTKQJCZTj94
2KzBmT+SQLzqJ7+TxKXBHJLSQHh3zr8euq3BiSbIQJpc50B4Ho7B/B3aQDS/BkF7vJ7BdyaiQLcI
Iz9SyafBZX/iQMXQor5lua/BklWqQJnX47+JzKjBEzzsQBJf5kBXP2HBbUvcQMm6uD/De5DBxKSY
QPmuD0GkcnrBRgyEQI+p/EArOYTBUu+lQDiSBUHQP2XB7kmzQLhtxEAqfnfB1yekQPyX10CCk4bB
0MEBQf3Vu0BthV3ByivmQJw1pD6DlojBttS8QGyYAUFhL7HBn2rsQCZxIUFZpK3BqGmiQHi4IEFw
E6bBInWJQK8E6z8z/6PBqg6kQAQSkUDzPo/BrOSjQAwsJ0AJpZvBStqIQEz3bkDg+5bB0+3JQHt/
EkHQx6jBgujCQHXu5kC5e2nBgLuxQOOR2j9E95LB0kaLQJ7atkAkJYzB34X+QI/2A0EP11zB9rz5
QB/E/T+UVJXBOD91QADNkkAwcJ/B+6IEQdR3Hb5LVbTB6u+aQOw/QcCo4KbBs1QaQRrx6kCZ7ZHB
/HX+QKo70EBZBIXB9fkOQU9/CUHzIaLBtF+aQIEs/UD6vJnBfALWQA5m5j+XgK7BFDtnQNd/SL9J
5qHBUjTlQDCaHsA7+a/BYvK0QE5CFkE0S4HB53OBQCqXHEHlfnfBn/pPQCaR70C3CYDBzr5zQLSF
BUF+14vBxX+2QGmLEUEVXFvBvlqJQIGd/0CUvlzBvFaYQCT/s0D0s2/BL0fNQBZqrUDqZ3rBMMgR
QeAfwkA/9VbBFSfxQEI/qEC0I1LBB0MDQXWaqkA9y2zBnXMEQUKSEz4iXojBsPbaQE+HGz9SkYDB
QMHVQGVGGb/GIovBOSexQDivCUFQb7jBw7XYQMpI70B1NbPBJE6jQGnW7kAL5a3B/V/fQBZxKUEp
xbTBd7v1QCmLLUEfsafBSlAEQQ/yF0GH6a/BL3CXQDHwKEGsW63B0XmIQOSaFkF38aLBEm6rQBOo
LEG0A6DBFZCCQMSGH0AT2KrBE25WQA6qwD+qWqDBvHSrQKlRe0BGJIjBpAfCQPnqmkASJpPBFhvA
QG/kQkD3mp/B0c9aQJVhU0C+r5LBLhqbQAjyoD/Dmo7BNxtnQB5qrUCZUofB4t99QCXow0ASxJLB
+x9TQGvVgkC1TKTBbLQJQcKs8UDYJJPBAHf0QI634UB2/4vBl2EDQU4ABEGaZZzB9UW8QMKI+0C1
xpfBWlDKQJSbTz/i0azBJtORQEg6Jr/wAKbBPKnSQPPxzb96rK3BfUHIQLNK50A1M47B67TaQOz3
BkHYqp7BEPOhQBBuJD9l8qfBcNTiQK0hob4BlK/B6RKqQKwa47/H7KjBu1jmQEwt30BRFFzB4fzb
QHFiuz9VZZDB7FaYQEm9D0GDHnzBL1SDQOY5+0CiYITB2uapQA8QB0GS/mbBZRK0QMwpxUA8CHjB
nimkQKE010AwwYbBEQT6QJpFskA2ZlrBcM7lQMEIrz5KfojBjBHuQNKzIEFF6a3BGgilQDQIIkEY
xKXBvwm7QMYIAkGt4rDBTEeJQES76z/ULaTB26SkQNvPkEDqdY/B28GjQOvoJkBLyZvBbdOIQBUe
bkBOApfBFrnKQFDOEkEyr6jB2SLFQGnT50DEZ2rBTIixQCby2D9IKpPBoYuLQPL7tUBAL4zBK8zy
QGbJ+kBmoE/BrIT5QHM1AkBg+ZTBIPtyQI85kkBsX5/BQwIFQfhFG77g9rPBuo6aQN3TQMC0CKfB
c38aQXfD7EDhhJHB5WH+QM0y0UA904TB31QPQQhSCkFYx6HBt86aQF4A/UDT5pnB71XWQJrW5j/8
bK7Blc5lQFlqRr8xR6LBUGHlQCplHsCw2q/BOLSyQCqUFkE+yILBvHaAQPM8HEFMzHjBfGlRQOjv
7UAYWn/BRQFuQA77A0EH+4vBhh69QE6YE0FmOV/BSe2OQJ2yAkFckFzBQ0iZQH1/tUDnuW/BsoPN
QDqarUClDnvBDecIQXPGsUDubU3BUKngQLHYmkCa9FbBctUEQQAEqkASnWnBAVEEQTofRz7D/4fB
+k/ZQHNIHD9KjYDBj4rWQAafFr8nO4vBXQbhQAbLKEFxA7XBg0L5QNW9LEFIIqjBMoMEQRtwFkGg
S7DBlPyZQIBdKkEyAq3BkIeKQFSiGEFkYaLBXfSvQM3ZLUE62J/BbHavQNY4CkEjHrjBTKTVQNWk
7kC8ArPBe9mgQG488UDlXK3Bp5iCQKUZIEC7BKvBJtpVQCq8wT/Vk6DBIS2tQF/cekBkbojB7vzB
QJ8wm0APkpPBBfm/QEPjQkCdt5/BYedbQLIcUkAXiJLBvNyaQJINmz9nDY/BLgNpQFMDrEBCOYfB
fJN8QPHTwkAwuJLBqRFQQNoagkAOHaTB

> <OMEGA_E>
sNBBPoAFRD4=

> <OMEGA_NBR>
    135952

$$$$
50212887
  -OEChem-04172616093D

 77 79  0     1  0  0  0  0  0999 V2000
    8.6359    7.6398  -18.4558 C   0  0  0  0  0  0  0  0  0  0  0  0
    7.7048    7.0483  -17.5842 C   0  0  0  0  0  0  0  0  0  0  0  0
    8.1972    8.3816  -19.5666 C   0  0  0  0  0  0  0  0  0  0  0  0
    5.8931    7.9001  -18.9614 C   0  0  0  0  0  0  0  0  0  0  0  0
    6.2822    0.7814  -21.5384 C   0  0  0  0  0  0  0  0  0  0  0  0
    4.5421   -0.6882  -20.6497 C   0  0  0  0  0  0  0  0  0  0  0  0
    6.6133   -1.6302  -21.5256 C   0  0  0  0  0  0  0  0  0  0  0  0
    6.3134    7.2029  -17.8118 C   0  0  0  0  0  0  0  0  0  0  0  0
    6.8113    8.5306  -19.8232 C   0  0  0  0  0  0  0  0  0  0  0  0
    5.0150    0.6030  -20.9437 C   0  0  0  0  0  0  0  0  0  0  0  0
    7.0875   -0.3341  -21.8130 C   0  0  0  0  0  0  0  0  0  0  0  0
    5.3371   -1.8051  -20.9505 C   0  0  0  0  0  0  0  0  0  0  0  0
    6.8136    1.5803  -17.9638 C   0  0  0  0  0  0  0  0  0  0  0  0
    4.8320    8.7307  -15.5594 C   0  0  0  0  0  0  0  0  0  0  0  0
    6.3350    6.9143  -14.5829 C   0  0  0  0  0  0  0  0  0  0  0  0
    4.2027    7.7104  -16.4823 C   0  0  0  0  0  0  0  0  0  0  0  0
    5.7848    5.9131  -15.5986 C   0  0  0  0  0  0  0  0  0  0  0  0
    5.2927    8.0142  -14.2844 C   0  0  1  0  0  0  0  0  0  0  0  0
    5.2291    6.6208  -16.8735 C   0  0  2  0  0  0  0  0  0  0  0  0
    7.1489    0.5440  -16.8947 C   0  0  0  0  0  0  0  0  0  0  0  0
    7.3514   10.1520  -21.7416 C   0  0  0  0  0  0  0  0  0  0  0  0
    5.0792   10.1807  -20.6960 C   0  0  0  0  0  0  0  0  0  0  0  0
    5.8037    8.1949  -22.0862 C   0  0  0  0  0  0  0  0  0  0  0  0
    4.2213    1.7965  -20.5107 C   0  0  0  0  0  0  0  0  0  0  0  0
    5.8935    9.0508  -13.3497 C   0  0  0  0  0  0  0  0  0  0  0  0
    5.1279    4.4841  -18.0049 C   0  0  0  0  0  0  0  0  0  0  0  0
    5.0511    2.5839  -19.4893 C   0  0  1  0  0  0  0  0  0  0  0  0
    4.2259    3.7185  -18.9325 C   0  0  2  0  0  0  0  0  0  0  0  0
    6.2766    9.2596  -21.0690 C   0  0  0  0  0  0  0  0  0  0  0  0
    5.4914    1.7031  -18.3824 N   0  0  0  0  0  0  0  0  0  0  0  0
    4.4126    5.6704  -17.6023 N   0  3  0  0  0  0  0  0  0  0  0  0
    7.7239    2.1720  -18.5347 O   0  0  0  0  0  0  0  0  0  0  0  0
    6.2223    8.4209  -12.1222 O   0  0  0  0  0  0  0  0  0  0  0  0
    3.7888    4.5728  -19.9928 O   0  0  0  0  0  0  0  0  0  0  0  0
    8.3195   -0.1576  -22.3399 F   0  0  0  0  0  0  0  0  0  0  0  0
    4.8807   -3.0443  -20.6670 F   0  0  0  0  0  0  0  0  0  0  0  0
    9.6937    7.5238  -18.2712 H   0  0  0  0  0  0  0  0  0  0  0  0
    8.0506    6.4736  -16.7377 H   0  0  0  0  0  0  0  0  0  0  0  0
    8.9188    8.8396  -20.2268 H   0  0  0  0  0  0  0  0  0  0  0  0
    4.8385    7.9525  -19.1880 H   0  0  0  0  0  0  0  0  0  0  0  0
    6.6312    1.7741  -21.7816 H   0  0  0  0  0  0  0  0  0  0  0  0
    3.5716   -0.8198  -20.1945 H   0  0  0  0  0  0  0  0  0  0  0  0
    7.2279   -2.4905  -21.7461 H   0  0  0  0  0  0  0  0  0  0  0  0
    5.6958    9.1971  -16.0557 H   0  0  0  0  0  0  0  0  0  0  0  0
    4.0938    9.5051  -15.3038 H   0  0  0  0  0  0  0  0  0  0  0  0
    6.5797    6.3854  -13.6500 H   0  0  0  0  0  0  0  0  0  0  0  0
    7.2448    7.3794  -14.9902 H   0  0  0  0  0  0  0  0  0  0  0  0
    3.3513    7.2375  -15.9709 H   0  0  0  0  0  0  0  0  0  0  0  0
    3.8486    8.2165  -17.3925 H   0  0  0  0  0  0  0  0  0  0  0  0
    6.5926    5.2283  -15.8959 H   0  0  0  0  0  0  0  0  0  0  0  0
    4.9726    5.3396  -15.1280 H   0  0  0  0  0  0  0  0  0  0  0  0
    4.4200    7.5534  -13.7985 H   0  0  0  0  0  0  0  0  0  0  0  0
    8.2408    0.4723  -16.7824 H   0  0  0  0  0  0  0  0  0  0  0  0
    6.7011    0.8474  -15.9369 H   0  0  0  0  0  0  0  0  0  0  0  0
    6.7462   -0.4349  -17.1940 H   0  0  0  0  0  0  0  0  0  0  0  0
    6.9181   10.6476  -22.6229 H   0  0  0  0  0  0  0  0  0  0  0  0
    7.6964   10.9128  -21.0259 H   0  0  0  0  0  0  0  0  0  0  0  0
    8.2027    9.5288  -22.0530 H   0  0  0  0  0  0  0  0  0  0  0  0
    4.7133   10.6910  -21.5992 H   0  0  0  0  0  0  0  0  0  0  0  0
    4.2698    9.5731  -20.2650 H   0  0  0  0  0  0  0  0  0  0  0  0
    5.4078   10.9291  -19.9599 H   0  0  0  0  0  0  0  0  0  0  0  0
    5.4166    8.6939  -22.9868 H   0  0  0  0  0  0  0  0  0  0  0  0
    6.6504    7.5486  -22.3607 H   0  0  0  0  0  0  0  0  0  0  0  0
    5.0078    7.5845  -21.6346 H   0  0  0  0  0  0  0  0  0  0  0  0
    4.0018    2.4326  -21.3809 H   0  0  0  0  0  0  0  0  0  0  0  0
    3.2782    1.4682  -20.0494 H   0  0  0  0  0  0  0  0  0  0  0  0
    6.8016    9.4753  -13.8026 H   0  0  0  0  0  0  0  0  0  0  0  0
    5.1637    9.8539  -13.1696 H   0  0  0  0  0  0  0  0  0  0  0  0
    5.3701    3.8720  -17.1235 H   0  0  0  0  0  0  0  0  0  0  0  0
    6.0566    4.7615  -18.5250 H   0  0  0  0  0  0  0  0  0  0  0  0
    5.9337    2.9992  -19.9978 H   0  0  0  0  0  0  0  0  0  0  0  0
    3.3686    3.3160  -18.3730 H   0  0  0  0  0  0  0  0  0  0  0  0
    4.7964    1.1638  -17.9069 H   0  0  0  0  0  0  0  0  0  0  0  0
    3.6489    5.3961  -17.0179 H   0  0  0  0  0  0  0  0  0  0  0  0
    4.0597    6.1204  -18.4226 H   0  0  0  0  0  0  0  0  0  0  0  0
    6.5993    9.0600  -11.5289 H   0  0  0  0  0  0  0  0  0  0  0  0
    3.2191    4.0867  -20.5774 H   0  0  0  0  0  0  0  0  0  0  0  0
  1  2  1  0  0  0  0
  1  3  2  0  0  0  0
  2  8  2  0  0  0  0
  3  9  1  0  0  0  0
  4  8  1  0  0  0  0
  4  9  2  0  0  0  0
  5 10  1  0  0  0  0
  5 11  2  0  0  0  0
  6 10  2  0  0  0  0
  6 12  1  0  0  0  0
  7 11  1  0  0  0  0
  7 12  2  0  0  0  0
  8 19  1  0  0  0  0
  9 29  1  0  0  0  0
 10 24  1  0  0  0  0
 11 35  1  0  0  0  0
 12 36  1  0  0  0  0
 13 20  1  0  0  0  0
 13 30  1  0  0  0  0
 13 32  2  0  0  0  0
 14 16  1  0  0  0  0
 14 18  1  0  0  0  0
 15 17  1  0  0  0  0
 15 18  1  0  0  0  0
 16 19  1  0  0  0  0
 17 19  1  0  0  0  0
 18 25  1  0  0  0  0
 19 31  1  0  0  0  0
 21 29  1  0  0  0  0
 22 29  1  0  0  0  0
 23 29  1  0  0  0  0
 24 27  1  0  0  0  0
 25 33  1  0  0  0  0
 26 28  1  0  0  0  0
 26 31  1  0  0  0  0
 27 28  1  0  0  0  0
 27 30  1  0  0  0  0
 28 34  1  0  0  0  0
  1 37  1  0  0  0  0
  2 38  1  0  0  0  0
  3 39  1  0  0  0  0
  4 40  1  0  0  0  0
  5 41  1  0  0  0  0
  6 42  1  0  0  0  0
  7 43  1  0  0  0  0
 14 44  1  0  0  0  0
 14 45  1  0  0  0  0
 15 46  1  0  0  0  0
 15 47  1  0  0  0  0
 16 48  1  0  0  0  0
 16 49  1  0  0  0  0
 17 50  1  0  0  0  0
 17 51  1  0  0  0  0
 18 52  1  0  0  0  0
 20 53  1  0  0  0  0
 20 54  1  0  0  0  0
 20 55  1  0  0  0  0
 21 56  1  0  0  0  0
 21 57  1  0  0  0  0
 21 58  1  0  0  0  0
 22 59  1  0  0  0  0
 22 60  1  0  0  0  0
 22 61  1  0  0  0  0
 23 62  1  0  0  0  0
 23 63  1  0  0  0  0
 23 64  1  0  0  0  0
 24 65  1  0  0  0  0
 24 66  1  0  0  0  0
 25 67  1  0  0  0  0
 25 68  1  0  0  0  0
 26 69  1  0  0  0  0
 26 70  1  0  0  0  0
 27 71  1  0  0  0  0
 28 72  1  0  0  0  0
 30 73  1  0  0  0  0
 31 74  1  0  0  0  0
 31 75  1  0  0  0  0
 33 76  1  0  0  0  0
 34 77  1  0  0  0  0
M  CHG  1  31   1
M  END
> <OMEGA_C>
ziwKQX159ECSpZPB3o32QFeL4UCArIzBkicDQSUbBkF+iJzBjZS8QI7N/EAIsZfBsQfJQOsHSD+s
TqzBD1mRQLYqML+fMqXB9Z/TQDiq0L9+NKzBdQfKQE9+5kCEfo7BL/bZQE19CEHnlZ7BFXugQLVe
Gj+vjKfB3sziQJQTq74Mga7BhsmqQGcM57+zmqfBAAnaQB9Iyj/ptY/BsZ+aQO6wC0Fc83jBDbjK
QENC3UC/U2nBanyGQE279kCv24PBxBy5QE44vUCzk3nBiF2pQD86AEEWjWTBg1SnQLnd00D9/IbB
+cPkQDBCCz9YKIfB9j7rQK5uIkG+7q3BlIiiQATkIkGBkaXB9re5QE0eA0GZsLDBgxSHQK/y5T/a
FaTBy5e8QPjPEEFWmFXBuRekQFp9j0DvCZDB8KKhQNVdJUAV6pvBojqHQOr7bUC1dZfBP9rIQHQn
FEE+jajBO7mvQJ3+2T85D5PBLTSNQAt0tUCJ0YzBFir3QPUBC0AAR5TBYx3HQC+8BkGT9EHBCHty
QL1UkkBM8Z/BzhwFQYVfIb4zuLLBFC+cQFrVQsDrVaXBWxkbQUXD8EBYK5LBEc8AQWAnz0DY5oXB
e7MOQQxvDUGU0KHByNSaQJZ6/kAggZnByjLUQNoU4z+vQK7BdZVkQOffUb9njqHBv0rnQOFjH8D0
963B0EO2QF0nE0ElcoDBJgCDQN8UGEFz3HTBzozSQHtVzEBvZlrBUdXnQHIk7EAO2G/BUHtWQJaZ
50DNiH/B6E92QM92A0HFI4vBrfbSQEtOp0CQVX7BJB+fQGHeqkA7DHLB7nCNQGu18UCbxlzBcdoD
QRbV8T5rQobBY2/WQHTtWD99/X7B9eDXQESt3r5XjYnBbWHdQJ5cKkGZ+7TBJUn2QL6aLkH8NKjB
Nz4DQSN2GEGjbLDBItOWQEIOK0Ety6zBN6KIQHIrGUHAHqLBYQytQG7dLkHXrZ/BiVStQFIaC0EL
5bfBQ9DUQL6N8UCf4rLBzD+gQF208kC0E63BGw+AQF2vG0D+C6vBdc1RQJfsuz8dZaDB2abZQMia
F0Gf11zBXT2lQISpHUHXtlLBz9erQFXPd0Dw/IjBbc/BQO5dmEBMM5TB4eC9QF7zP0Bx+5/BTJdX
QN45VEDR+5LBFnyZQBH2lD9HQY/BD4hpQCGtrECkJIjBIemBQJvaw0CQYZPB3C3TQKD1EEFldjjB
yQVOQHnGgkBtnqTB+hYKQXyu9EB+/pPB5Mf2QJYp4kAA2ozBMNECQZX+BUFS5ZzBYSy8QKak/EDg
xZfBcMzJQM16Sz9WQKzBPMORQN0ILb8iVqXBLjbUQBoNz7+TP6zBAyTKQPjG5kBLj47BLS/ZQHxp
CEFvxp7BGwyhQKK1HT9smqfBb5HjQO5GpL4Vcq7BMzSrQNZ/5b+BvqfBp/7YQFMdxj98mI/BI3ea
QCP3CkG0e3fBuNnLQGDM20C4MGnBGAyHQJiq9kCzmYPB9o66QFx7vECs3XnBEiypQMjw/EBCimPB
e+enQAr400BB84bBY83iQIq08j5qRYfB7MK7QDwjA0FGKLHBHN/oQP3TI0Hki63BlESfQA10IUE+
x6XBxIKHQOaq5z+/MKTBcR+6QP4HDkF8zVLBTdejQKSLj0DO/o/BUaShQC/YJUDq5ZvBOC6HQIPM
bkDViJfBzbjHQIAeFEFbrqjBl+KuQOP42T+fA5PBNWGNQETPtUA0y4zBnZz2QJw1CUCt7JPBN+Dc
QGoaGkEQSVvB8uFzQGbtkkCGDaDBm5AFQb2AE76PlLLBT2mcQBAcQsDOlKXByw0bQSr78EByopLB
px4BQeRT0EAfB4bB5zUOQfkhDUHHUqLBv1maQEr6/UAwhJnBESDVQMPk5D+JHa7B8C1lQB3gTr9a
wqHBfd7nQNCWHsAIBK7BkBG2QGoCE0HL3n7BtHGCQGb5FkFo3nLBKgHVQGUZykCNrlrBEAzoQCpc
7EAptG/BpZ1WQOUH50D6sn/B5Rh5QIgbBEFYw4rBvL7UQG9hp0AeEH/BpxGhQI0sqUAlgnLBRmmN
QDny60AM11zBGtQCQYoRxD7lR4bBLDbUQLsTQT9lKn/BvJjVQFFv+r7Y8onBJCmvQDkiC0H+VbjB
wWHYQE2n80CeS7PBDTujQPm38EB5363Bp+baQFrEK0G8lLTBJZXxQOLvL0EHi6fB8tICQVXrGkGx
9q/BMV6TQKyqKUFk+KzBrEWGQHu9FkEFqqLB/ZOnQK5fLUF9pZ/BRe+AQIbNHEDJJ6vBVzNSQPWl
vT/lnqDBgFGgQDkBGUEiBU7B+SzFQHb+BEFev0TB1viqQNeKd0DS74jBdeLBQLcZmEAtDZTBakK+
QEIVQEC01Z/B7sRWQLFiVUAuK5PBlyWYQHdAlz+qO4/BAp1pQE1arUAxIIjBHk6CQF5SxEBDXZPB
ySPnQJW7I0EftFDBha1PQNiTg0BEzaTB

> <OMEGA_E>
4O9tPlAqaz4=

> <OMEGA_NBR>
    138702

$$$$
50212894
  -OEChem-04172616093D

 76 78  0     1  0  0  0  0  0999 V2000
    8.6049    7.5846  -18.4334 C   0  0  0  0  0  0  0  0  0  0  0  0
    7.6546    7.0463  -17.5482 C   0  0  0  0  0  0  0  0  0  0  0  0
    8.1885    8.3003  -19.5693 C   0  0  0  0  0  0  0  0  0  0  0  0
    5.8697    7.8718  -18.9744 C   0  0  0  0  0  0  0  0  0  0  0  0
    6.3071    0.7938  -21.5784 C   0  0  0  0  0  0  0  0  0  0  0  0
    4.5471   -0.6673  -20.7161 C   0  0  0  0  0  0  0  0  0  0  0  0
    6.5902   -1.6245  -21.6402 C   0  0  0  0  0  0  0  0  0  0  0  0
    6.2676    7.2049  -17.8031 C   0  0  0  0  0  0  0  0  0  0  0  0
    6.8070    8.4754  -19.8345 C   0  0  0  0  0  0  0  0  0  0  0  0
    5.0411    0.6234  -20.9793 C   0  0  0  0  0  0  0  0  0  0  0  0
    7.0866   -0.3299  -21.8957 C   0  0  0  0  0  0  0  0  0  0  0  0
    5.3174   -1.7909  -21.0560 C   0  0  0  0  0  0  0  0  0  0  0  0
    6.8419    1.4717  -18.0437 C   0  0  0  0  0  0  0  0  0  0  0  0
    7.2310    6.6697  -13.7830 C   0  0  0  0  0  0  0  0  0  0  0  0
    4.8484    8.8726  -15.6549 C   0  0  0  0  0  0  0  0  0  0  0  0
    4.1585    7.7929  -16.4890 C   0  0  0  0  0  0  0  0  0  0  0  0
    5.4231    8.2429  -14.3829 C   0  0  0  0  0  0  0  0  0  0  0  0
    5.7031    6.0354  -15.5698 C   0  0  0  0  0  0  0  0  0  0  0  0
    5.1633    6.6705  -16.8629 C   0  0  2  0  0  0  0  0  0  0  0  0
    7.1518    0.4750  -16.9304 C   0  0  0  0  0  0  0  0  0  0  0  0
    5.8462    8.1788  -22.1216 C   0  0  0  0  0  0  0  0  0  0  0  0
    7.3793   10.1372  -21.7040 C   0  0  0  0  0  0  0  0  0  0  0  0
    5.0873   10.1346  -20.7045 C   0  0  0  0  0  0  0  0  0  0  0  0
    4.2604    1.8214  -20.5283 C   0  0  0  0  0  0  0  0  0  0  0  0
    5.1127    4.4848  -17.9433 C   0  0  0  0  0  0  0  0  0  0  0  0
    5.0840    2.5913  -19.4840 C   0  0  1  0  0  0  0  0  0  0  0  0
    4.2462    3.7122  -18.9066 C   0  0  2  0  0  0  0  0  0  0  0  0
    6.2948    9.2244  -21.0754 C   0  0  0  0  0  0  0  0  0  0  0  0
    6.2667    7.0676  -14.6959 N   0  0  0  0  0  0  0  0  0  0  0  0
    7.1781    7.1332  -12.4846 N   0  0  0  0  0  0  0  0  0  0  0  0
    5.5136    1.6874  -18.3958 N   0  0  0  0  0  0  0  0  0  0  0  0
    4.3641    5.6704  -17.5539 N   0  3  0  0  0  0  0  0  0  0  0  0
    7.7529    2.1249  -18.5417 O   0  0  0  0  0  0  0  0  0  0  0  0
    8.1610    5.9474  -14.1234 O   0  0  0  0  0  0  0  0  0  0  0  0
    3.8152    4.5782  -19.9592 O   0  0  0  0  0  0  0  0  0  0  0  0
    8.3139   -0.1637  -22.4367 F   0  0  0  0  0  0  0  0  0  0  0  0
    4.8381   -3.0291  -20.8068 F   0  0  0  0  0  0  0  0  0  0  0  0
    9.6586    7.4477  -18.2401 H   0  0  0  0  0  0  0  0  0  0  0  0
    7.9817    6.5095  -16.6699 H   0  0  0  0  0  0  0  0  0  0  0  0
    8.9231    8.7180  -20.2419 H   0  0  0  0  0  0  0  0  0  0  0  0
    4.8194    7.9226  -19.2208 H   0  0  0  0  0  0  0  0  0  0  0  0
    6.6755    1.7862  -21.7924 H   0  0  0  0  0  0  0  0  0  0  0  0
    3.5790   -0.7934  -20.2544 H   0  0  0  0  0  0  0  0  0  0  0  0
    7.1854   -2.4897  -21.8922 H   0  0  0  0  0  0  0  0  0  0  0  0
    5.6623    9.3248  -16.2407 H   0  0  0  0  0  0  0  0  0  0  0  0
    4.1178    9.6486  -15.3825 H   0  0  0  0  0  0  0  0  0  0  0  0
    3.3314    7.3595  -15.9075 H   0  0  0  0  0  0  0  0  0  0  0  0
    3.7617    8.2451  -17.4099 H   0  0  0  0  0  0  0  0  0  0  0  0
    6.0336    8.9919  -13.8571 H   0  0  0  0  0  0  0  0  0  0  0  0
    4.5933    7.9254  -13.7343 H   0  0  0  0  0  0  0  0  0  0  0  0
    4.8819    5.5244  -15.0457 H   0  0  0  0  0  0  0  0  0  0  0  0
    6.4866    5.3060  -15.8228 H   0  0  0  0  0  0  0  0  0  0  0  0
    8.2310    0.4860  -16.7176 H   0  0  0  0  0  0  0  0  0  0  0  0
    6.5964    0.7546  -16.0230 H   0  0  0  0  0  0  0  0  0  0  0  0
    6.8511   -0.5343  -17.2479 H   0  0  0  0  0  0  0  0  0  0  0  0
    5.4751    8.6941  -23.0199 H   0  0  0  0  0  0  0  0  0  0  0  0
    6.7004    7.5406  -22.3917 H   0  0  0  0  0  0  0  0  0  0  0  0
    5.0436    7.5572  -21.6978 H   0  0  0  0  0  0  0  0  0  0  0  0
    6.9636   10.6482  -22.5849 H   0  0  0  0  0  0  0  0  0  0  0  0
    7.7023   10.8851  -20.9649 H   0  0  0  0  0  0  0  0  0  0  0  0
    8.2418    9.5258  -22.0080 H   0  0  0  0  0  0  0  0  0  0  0  0
    4.7350   10.6616  -21.6034 H   0  0  0  0  0  0  0  0  0  0  0  0
    4.2729    9.5161  -20.2994 H   0  0  0  0  0  0  0  0  0  0  0  0
    5.4008   10.8693  -19.9482 H   0  0  0  0  0  0  0  0  0  0  0  0
    4.0551    2.4736  -21.3899 H   0  0  0  0  0  0  0  0  0  0  0  0
    3.3100    1.4951  -20.0808 H   0  0  0  0  0  0  0  0  0  0  0  0
    5.3342    3.8703  -17.0582 H   0  0  0  0  0  0  0  0  0  0  0  0
    6.0541    4.7762  -18.4322 H   0  0  0  0  0  0  0  0  0  0  0  0
    5.9687    3.0207  -19.9770 H   0  0  0  0  0  0  0  0  0  0  0  0
    3.3835    3.2894  -18.3709 H   0  0  0  0  0  0  0  0  0  0  0  0
    7.8933    6.8792  -11.8335 H   0  0  0  0  0  0  0  0  0  0  0  0
    6.4245    7.7232  -12.1947 H   0  0  0  0  0  0  0  0  0  0  0  0
    4.8065    1.2017  -17.8818 H   0  0  0  0  0  0  0  0  0  0  0  0
    3.6200    5.3883  -16.9482 H   0  0  0  0  0  0  0  0  0  0  0  0
    3.9825    6.0872  -18.3789 H   0  0  0  0  0  0  0  0  0  0  0  0
    3.2695    4.0922  -20.5662 H   0  0  0  0  0  0  0  0  0  0  0  0
  1  2  2  0  0  0  0
  1  3  1  0  0  0  0
  2  8  1  0  0  0  0
  3  9  2  0  0  0  0
  4  8  2  0  0  0  0
  4  9  1  0  0  0  0
  5 10  1  0  0  0  0
  5 11  2  0  0  0  0
  6 10  2  0  0  0  0
  6 12  1  0  0  0  0
  7 11  1  0  0  0  0
  7 12  2  0  0  0  0
  8 19  1  0  0  0  0
  9 28  1  0  0  0  0
 10 24  1  0  0  0  0
 11 36  1  0  0  0  0
 12 37  1  0  0  0  0
 13 20  1  0  0  0  0
 13 31  1  0  0  0  0
 13 33  2  0  0  0  0
 14 29  1  0  0  0  0
 14 30  1  0  0  0  0
 14 34  2  0  0  0  0
 15 16  1  0  0  0  0
 15 17  1  0  0  0  0
 16 19  1  0  0  0  0
 17 29  1  0  0  0  0
 18 19  1  0  0  0  0
 18 29  1  0  0  0  0
 19 32  1  0  0  0  0
 21 28  1  0  0  0  0
 22 28  1  0  0  0  0
 23 28  1  0  0  0  0
 24 26  1  0  0  0  0
 25 27  1  0  0  0  0
 25 32  1  0  0  0  0
 26 27  1  0  0  0  0
 26 31  1  0  0  0  0
 27 35  1  0  0  0  0
  1 38  1  0  0  0  0
  2 39  1  0  0  0  0
  3 40  1  0  0  0  0
  4 41  1  0  0  0  0
  5 42  1  0  0  0  0
  6 43  1  0  0  0  0
  7 44  1  0  0  0  0
 15 45  1  0  0  0  0
 15 46  1  0  0  0  0
 16 47  1  0  0  0  0
 16 48  1  0  0  0  0
 17 49  1  0  0  0  0
 17 50  1  0  0  0  0
 18 51  1  0  0  0  0
 18 52  1  0  0  0  0
 20 53  1  0  0  0  0
 20 54  1  0  0  0  0
 20 55  1  0  0  0  0
 21 56  1  0  0  0  0
 21 57  1  0  0  0  0
 21 58  1  0  0  0  0
 22 59  1  0  0  0  0
 22 60  1  0  0  0  0
 22 61  1  0  0  0  0
 23 62  1  0  0  0  0
 23 63  1  0  0  0  0
 23 64  1  0  0  0  0
 24 65  1  0  0  0  0
 24 66  1  0  0  0  0
 25 67  1  0  0  0  0
 25 68  1  0  0  0  0
 26 69  1  0  0  0  0
 27 70  1  0  0  0  0
 30 71  1  0  0  0  0
 30 72  1  0  0  0  0
 31 73  1  0  0  0  0
 32 74  1  0  0  0  0
 32 75  1  0  0  0  0
 35 76  1  0  0  0  0
M  CHG  1  32   1
M  END
> <OMEGA_C>
0q0JQca08kCld5PBmvL0QO964UChYozB/QMDQSzOBEEAjpzBsdS7QMDl+0CWy5fBXdPJQPQzSz+P
oKzBPYKRQPHUKr+kuqXBIePSQEruz783H63BBZDIQLmO5kDRbI7B4tLZQEKbB0ESrZ7B2VChQI6U
Hz+J1afBJMXiQHvpqL5uKq/BvSeqQAk95b+8cqjBLvHaQGtgvD9oWZDBsWTnQANu1UAth1zBvyWb
QFX2DUF9enrBYhKFQGBf+UBq6YPBA4qtQBXjA0FoIGbBdn+2QAkiwUDAHXnBuDmlQKV01UAe54bB
uNvkQGgz8z5ocYfBvRO7QHTcAkEe+bDBlSPsQN8xIkHLoa3BMcuiQE4nIkG+oqXBJlWIQAEj6T/d
OaTBlpujQIWDj0DRi4/BX7CiQKrXJUBQ35vBRuGHQGCUbUDHQJfBOm/JQPSWE0FcmqjBtYjIQAkq
4kB2ImvB+rLlQDZD5EAdwUfBo2+wQF381z+cKpPBkqaLQCJ0tUBNbozBHBj4QJz+B0BQVZTBVZMC
QSNRvkCP+WHB6Cx0QIyAkkBarJ/B4QUFQTyjJ75kfrPBU9GaQK7cQcBldKbBx4kaQYJT7kCu65HB
4Gn/QHhN0EAHXIXB3sQOQQd9C0Fe76HBxziaQJKF/UBJxJnB2Z3VQK+g5D/NVq7Bng5lQHUbS7/y
CKLBsO7lQOFXH8AyI6/BbzG1QC8yFUHj7IHBT8WDQLVgGkGyHnbBUDZVQNWA60AKhX7B1r9wQADs
A0FqR4vBCRPBQKHeD0HMtl3BpvySQOic/UDDv1vBvjicQPfHsEBBu3DBkpLPQB7LqUA4Kn3BH7ID
QYfV+D6bvYXBARbTQIowQT8VL4DBPjzbQFrKCL+j+4nBVjSvQPUaC0G7KLjB22nWQM5M8UA8IrPB
eGWhQPLU8UAyla3B/NXeQABfKkHwrbTBlnn2QFUpLkEUuKfBdN4DQcBpGEFQELDB4ISXQN2VKkHT
06zBWLuIQM1BGEETZaLBRtOsQHfoLUHSlZ/BwMOBQAtPHkCdHqvBuNZTQHxfvz9jpaDBj7GqQIOz
d0Ald4jB1LrBQH7WmEAYdZPBmf++QKZSQUDa0J/B44tYQAuFUkCx95LB7ZX8QKAi3EAPVj3BqZXN
QCAk90B5HUPBOc+ZQO3RmT8CDo/BFa5nQFBtrEAAlofB7OF+QB3KwkANCJPBej9RQKjzgkCbh6TB
lpwJQcnK8EC2LZPBg1v0QPwz4UAp84vBU0MDQcKtA0HyZZzBtiq8QI4J/EBtjpfBhcDKQNR4Sz9N
fKzBvxmTQLQaLr8uc6XBTMvTQMzIz79TU63BcjrIQFuv50Di+43B8n3aQHoBB0ETjJ7Bub6iQDq+
HT/0cafB3mzjQENwpr55VK/B44SrQABB5r8ycKjBOzbdQEQwvD9+j5DB0HnsQPTr4EDtoGDBomea
QGVWD0GWPnnBP9WEQCha/UCH44PBJ6qnQLB6BEGWU2TB1qyyQIgkw0BzwnfBIf+jQL3b10DkiYbB
/7bnQH1t1z5+FojBEvy+QMKgAUE4I7HBmObsQLr7IUEyR63BLEOiQGptIEGgKabBpIeJQI6a5z++
vKPBMFijQDDjkUDvb4/Bi8WjQEWbJ0ALj5vBJDeIQGc9b0AmBZfBGZzKQPiiEkFnpqjBeYbDQEgq
5EBiN2nB+voAQbFDukAH3mDB03CyQKqt3z9PvJLBpc+KQNTot0BnV4zBiib6QPT39z9YCZbB8Ob/
QA9/AEHX8lrBwe5yQE9GkkBfip/BLxcFQaLSHL7a7rPB0WOcQBmpQsDPhKbB2GYaQcto60BEpJHB
d1n+QOtG0EDe14TBHjIPQW3PCUH716HB+6KaQADq/UC3mJnBFWLWQJ8l5T9NJ67BDsxoQPRvUL+B
oaHBma/mQFEBH8ALia/BVd22QNrdFUFopIDBSc2DQIRiHEENz3XBcfZQQM1x8EAylX/B8PJ1QJJ2
BkHHYovByyG5QAX2D0GHPlrB/fqKQLDL/UCmyVvBGUSXQIcfs0BfKHDBf+TLQGF+q0ACEnvBnykF
QUKZYT66H4jB9iDeQGclSz+9KYDBnz/WQPMHAr+o3onB9oizQMidCUETcLjBiXnbQNwD8EAFB7PB
a6ulQBdK7kA+/a3BIjDgQLDpKUF6drTBdCf1QHAfLkHxP6fBadoEQS/OGEGMZ6/Bi5mXQAKMKEFE
gK3Bm3yIQHUHFkGMLqPBKDiqQIVwLEHVC6DBafaBQAGlHECZpqrBmEhXQIT3uz8N+Z/BshWrQBi6
fUBeSojBSSHBQO6em0AtcpPB1Zq/QJe3Q0BtpJ/BJiJaQGZtU0DaoJLB71gQQUruuEAsdlzBa8Xy
QBihn0AXcmXB5jycQPFiqj/zCI7BmR9lQJGhrkBIqofBtWt+QK2GxUCH+ZLB+tpQQNzZgUCZT6TB
saEJQTcF80C1f5PB8N70QDdg4UDYeIzBc/MCQTglBUE/h5zBv7+7QBDQ+0Dq35fBa3zJQNraSj8x
pKzB11mRQB5+LL+Ft6XBEKbSQLr/z7/0NK3BFHnIQJhi5kCuhI7BI67ZQJ3MB0G0rp7BgBChQMRW
Hj9Nz6fB8nXiQFJyqL7YOK/BqfupQGDN5b93gajBaqraQOBguT8+WJDBGM3nQO/H2EDe31zBcCya
QDBODkHAXnvB846EQORA+UCGK4TBSJasQHzBBEFSyGbB3me2QGsfwkAqBnnB3R2lQEZy1UAd+IbB
LXvkQMM/5D7meIfBPODrQH5ZIkGera3BfdeiQLyWIkFce6XBVSW6QO9EA0Hz6LDBdhmIQINP6D+S
KKTB8amjQEkkj0BocI/Bj5WiQMpMJUAO0ZvB2PyHQAptbUD/OpfB1yPJQFjlE0Fwj6jBDx7IQN0H
5EDiY2vB47LnQMhX6kASoEjBmSuwQADT1j+dGZPBUaeLQN8ItUDnXIzBzOv3QB0oBkAwVpTBogAC
QaBGv0CAsGHBYIt1QEGckkCHrZ/Bv9cEQQoqI74fkrPB7KaaQAJFQsAclqbBjH4aQY2u7kBT9JHB
+1r/QA/wz0D8fIXBY7EOQdMTDEHt1aHBzyuaQGYi/UCW5JnBxi/VQMqY5D+4Wa7B/O1kQIB9Tb/h
+qHB0rLlQPpEH8D0Q6/BbiW0QN90FUGJbYLBj4aCQCOzGkEdVHfBNXxUQFx660Bk5X7Bxm1vQOZ4
A0E1nYvB0Ly/QNwEEUEfjl7BzQ+SQC9q/0BFX1zBhTacQGfwsUBkfnDB+q/PQEzPqkBLx3zBO4UD
QSGI5T4zzYXBi+HSQD8COj+aMIDBLpbaQH5xD79SB4rBkWjeQNiZKkEir7TBqLH2QJZBLkH2yafB
m5cDQYhyGEEKMbDBU26XQIYbK0FuoqzBw7+IQATGGEHvMaLBlketQHxELkEKcJ/BRiiuQLiYC0FU
D7jBvjPVQGzf8UAaJbPBKmigQFfe8kCdd63B7miBQBsCHkC3CKvBrn9TQLhWvj/4jaDBXXGqQCuy
dkDAXIjB3PLBQJZrmEAhR5PByfm+QGZdQECmxJ/BLy5YQOHVUkBvBJPBS2v+QHE44kCYHT7Be+fQ
QEgy/0CsdETBQXWZQHgOmj/B747BLSFoQFkLrEBLcofBaUZ+QFAHwkBg+JLBPLZSQG4/g0ADlaTB
ZI0JQZGR7kB3r5TBkSn1QDv03UBQYo3BC7sCQTQtBEFYPZ3BgMS7QJm0/0CoapfBWP7GQIopIz/3
bqzBKQiTQE8cT7/6gaPBjrPRQKdm47/kLazBlBbJQBiN50B+do7BG3rZQAqtCEHHsJ7B9rugQODl
8z6RlKbBI47fQEA9+r6fLq/B+E6rQDO/97/5ZKbBJercQOUEyj+JAJDBYK7yQM3I3kDMB2bBFDSd
QIHyC0F0yXXBS5GHQACA+kCSIIPB2EepQG67/EAaTWLBJIu2QCP0vEAOcXnBSzimQFnU1UD91IbB
JPHoQBx/DT9td4fB7wPYQLxaDUFyt7LB/M7gQE95LUFZpqbBxMyZQE1DG0HoK6jBlVOHQBt41z/z
OqPB+YKjQHrDkUD8apDBVT6iQJx3I0BVqZvBWjKHQCBQbUCUdpfBhPLKQPtjF0Fd56fBzcXGQD2s
2kA1MGnBpCECQWISA0FFJWHBxeixQDWY3j/cl5LBzPOLQHvqt0DeA43BdET5QMzwB0AnMpXBbQoF
QfZRv0D2nWbBKNhvQLXzj0AZK6DBOB4CQS7Oqr6HxrTBfaCdQALkSsCKo6PBaVoaQZR750C0tpPB
itz/QEe7yUCD6IbB7lkOQUCxCkHyvaLB3P2ZQIlmAkH5upjB0GLRQMjhzz8VzK7BFuBrQFLDbb+q
8Z7BDITkQOQcKcDgT67BZSW6QAMeE0E4yHzBIfaGQGm0GEHr9HDBobZVQBM77EBT/X7BMIF8QFPS
BkGiIorBjga5QCx9CEEmP1bBL0iMQA9h7kD8XlvBFe6bQHdgqkD0oHLB4GrQQAoYp0D6On7BiPkF
QXDz4j76L4fBgzzdQH2DZD8/QH/BnUvaQHxk1b51b4nBbqjNQEnYF0F/SrnB5f76QMx3C0EM/bLB
G7TIQJYy+0CwkbPBcJvWQAwTOEH8Ma3B9pnXQNuTNEE6757BYeEBQcF2K0EL7abBKtORQDzYJUEu
6q7B5iiJQLXgC0GOJqnBgKSPQG3NIkHfoqDB0Dl9QFs0EUDMWqrBsyhUQDvPrT9HFZ/BciatQDFh
fkB8V4nB+SvAQPJzm0CL6pTBAKC9QIqKPUAAIaDBYsdYQP3NU0AUvJLBCs0RQaNQBEGqKF7BAKfx
QHgTEEGImGDBQjicQFMUoz9lCY7B8W5mQAG1rkDwfYjB7xWBQNQDx0A/hpPBmiZMQDfyfUBAn6TB

> <OMEGA_E>
YH2BPjAiij4YXIE+KEmlPg==

> <OMEGA_NBR>
    143744

$$$$
50212893
  -OEChem-04172616093D

 72 74  0     1  0  0  0  0  0999 V2000
    8.5756    7.5494  -18.4443 C   0  0  0  0  0  0  0  0  0  0  0  0
    7.6358    7.0656  -17.5183 C   0  0  0  0  0  0  0  0  0  0  0  0
    8.1498    8.2385  -19.5939 C   0  0  0  0  0  0  0  0  0  0  0  0
    5.8368    7.9200  -18.9174 C   0  0  0  0  0  0  0  0  0  0  0  0
    6.3776    0.7849  -21.5656 C   0  0  0  0  0  0  0  0  0  0  0  0
    4.6151   -0.6833  -20.7231 C   0  0  0  0  0  0  0  0  0  0  0  0
    6.6773   -1.6336  -21.6133 C   0  0  0  0  0  0  0  0  0  0  0  0
    6.2506    7.2638  -17.7411 C   0  0  0  0  0  0  0  0  0  0  0  0
    6.7689    8.4552  -19.8306 C   0  0  0  0  0  0  0  0  0  0  0  0
    5.1030    0.6117  -20.9839 C   0  0  0  0  0  0  0  0  0  0  0  0
    7.1683   -0.3374  -21.8689 C   0  0  0  0  0  0  0  0  0  0  0  0
    5.3985   -1.8049  -21.0449 C   0  0  0  0  0  0  0  0  0  0  0  0
    6.8137    1.4913  -18.0168 C   0  0  0  0  0  0  0  0  0  0  0  0
    4.9722    8.8186  -15.3768 C   0  0  0  0  0  0  0  0  0  0  0  0
    4.2282    7.8590  -16.3190 C   0  0  0  0  0  0  0  0  0  0  0  0
    5.5172    8.0371  -14.1713 C   0  0  0  0  0  0  0  0  0  0  0  0
    5.7424    5.9963  -15.5410 C   0  0  0  0  0  0  0  0  0  0  0  0
    5.1671    6.7171  -16.7911 C   0  0  2  0  0  0  0  0  0  0  0  0
    7.1095    0.3911  -17.0012 C   0  0  0  0  0  0  0  0  0  0  0  0
    5.9168    8.0572  -22.1498 C   0  0  0  0  0  0  0  0  0  0  0  0
    7.3235   10.1059  -21.7138 C   0  0  0  0  0  0  0  0  0  0  0  0
    4.9912    9.9986  -20.8240 C   0  0  0  0  0  0  0  0  0  0  0  0
    4.2983    1.8122  -20.5574 C   0  0  0  0  0  0  0  0  0  0  0  0
    5.0498    4.5265  -17.9350 C   0  0  0  0  0  0  0  0  0  0  0  0
    5.0798    2.6062  -19.4951 C   0  0  1  0  0  0  0  0  0  0  0  0
    4.2163    3.7393  -18.9371 C   0  0  2  0  0  0  0  0  0  0  0  0
    6.2624    9.1476  -21.1110 C   0  0  0  0  0  0  0  0  0  0  0  0
    5.4922    1.7046  -18.3980 N   0  0  0  0  0  0  0  0  0  0  0  0
    4.3371    5.7554  -17.5432 N   0  0  0  0  0  0  0  0  0  0  0  0
    6.4038    6.9438  -14.6192 N   0  3  0  0  0  0  0  0  0  0  0  0
    7.7444    2.0619  -18.5761 O   0  0  0  0  0  0  0  0  0  0  0  0
    3.8132    4.5959  -20.0069 O   0  0  0  0  0  0  0  0  0  0  0  0
    8.4018   -0.1695  -22.3962 F   0  0  0  0  0  0  0  0  0  0  0  0
    4.9267   -3.0460  -20.7941 F   0  0  0  0  0  0  0  0  0  0  0  0
    9.6300    7.3912  -18.2723 H   0  0  0  0  0  0  0  0  0  0  0  0
    7.9701    6.5417  -16.6350 H   0  0  0  0  0  0  0  0  0  0  0  0
    8.8794    8.6050  -20.3009 H   0  0  0  0  0  0  0  0  0  0  0  0
    4.7812    8.0154  -19.1245 H   0  0  0  0  0  0  0  0  0  0  0  0
    6.7449    1.7782  -21.7774 H   0  0  0  0  0  0  0  0  0  0  0  0
    3.6405   -0.8145  -20.2765 H   0  0  0  0  0  0  0  0  0  0  0  0
    7.2811   -2.4963  -21.8531 H   0  0  0  0  0  0  0  0  0  0  0  0
    5.8076    9.2878  -15.9171 H   0  0  0  0  0  0  0  0  0  0  0  0
    4.2792    9.5973  -15.0255 H   0  0  0  0  0  0  0  0  0  0  0  0
    3.3695    7.4237  -15.7869 H   0  0  0  0  0  0  0  0  0  0  0  0
    3.8708    8.4186  -17.1960 H   0  0  0  0  0  0  0  0  0  0  0  0
    6.0852    8.7212  -13.5237 H   0  0  0  0  0  0  0  0  0  0  0  0
    4.6752    7.6113  -13.6058 H   0  0  0  0  0  0  0  0  0  0  0  0
    4.9203    5.4959  -15.0083 H   0  0  0  0  0  0  0  0  0  0  0  0
    6.4772    5.2462  -15.8687 H   0  0  0  0  0  0  0  0  0  0  0  0
    8.1977    0.2583  -16.9102 H   0  0  0  0  0  0  0  0  0  0  0  0
    6.6916    0.6729  -16.0234 H   0  0  0  0  0  0  0  0  0  0  0  0
    6.6522   -0.5510  -17.3377 H   0  0  0  0  0  0  0  0  0  0  0  0
    5.5526    8.5317  -23.0729 H   0  0  0  0  0  0  0  0  0  0  0  0
    6.8165    7.4648  -22.3726 H   0  0  0  0  0  0  0  0  0  0  0  0
    5.1353    7.3983  -21.7434 H   0  0  0  0  0  0  0  0  0  0  0  0
    6.9197   10.5759  -22.6227 H   0  0  0  0  0  0  0  0  0  0  0  0
    7.5737   10.8849  -20.9786 H   0  0  0  0  0  0  0  0  0  0  0  0
    8.2298    9.5364  -21.9674 H   0  0  0  0  0  0  0  0  0  0  0  0
    4.6536   10.4794  -21.7539 H   0  0  0  0  0  0  0  0  0  0  0  0
    4.1935    9.3470  -20.4378 H   0  0  0  0  0  0  0  0  0  0  0  0
    5.2278   10.7706  -20.0771 H   0  0  0  0  0  0  0  0  0  0  0  0
    4.1096    2.4552  -21.4298 H   0  0  0  0  0  0  0  0  0  0  0  0
    3.3396    1.4787  -20.1336 H   0  0  0  0  0  0  0  0  0  0  0  0
    5.2272    3.9080  -17.0429 H   0  0  0  0  0  0  0  0  0  0  0  0
    6.0134    4.7943  -18.3931 H   0  0  0  0  0  0  0  0  0  0  0  0
    5.9730    3.0412  -19.9673 H   0  0  0  0  0  0  0  0  0  0  0  0
    3.3397    3.3122  -18.4282 H   0  0  0  0  0  0  0  0  0  0  0  0
    4.7762    1.2173  -17.8981 H   0  0  0  0  0  0  0  0  0  0  0  0
    3.5578    5.4984  -16.9718 H   0  0  0  0  0  0  0  0  0  0  0  0
    7.1911    7.3451  -15.0873 H   0  0  0  0  0  0  0  0  0  0  0  0
    6.7162    6.4386  -13.8147 H   0  0  0  0  0  0  0  0  0  0  0  0
    3.2935    4.1018  -20.6301 H   0  0  0  0  0  0  0  0  0  0  0  0
  1  2  2  0  0  0  0
  1  3  1  0  0  0  0
  2  8  1  0  0  0  0
  3  9  2  0  0  0  0
  4  8  2  0  0  0  0
  4  9  1  0  0  0  0
  5 10  1  0  0  0  0
  5 11  2  0  0  0  0
  6 10  2  0  0  0  0
  6 12  1  0  0  0  0
  7 11  1  0  0  0  0
  7 12  2  0  0  0  0
  8 18  1  0  0  0  0
  9 27  1  0  0  0  0
 10 23  1  0  0  0  0
 11 33  1  0  0  0  0
 12 34  1  0  0  0  0
 13 19  1  0  0  0  0
 13 28  1  0  0  0  0
 13 31  2  0  0  0  0
 14 15  1  0  0  0  0
 14 16  1  0  0  0  0
 15 18  1  0  0  0  0
 16 30  1  0  0  0  0
 17 18  1  0  0  0  0
 17 30  1  0  0  0  0
 18 29  1  0  0  0  0
 20 27  1  0  0  0  0
 21 27  1  0  0  0  0
 22 27  1  0  0  0  0
 23 25  1  0  0  0  0
 24 26  1  0  0  0  0
 24 29  1  0  0  0  0
 25 26  1  0  0  0  0
 25 28  1  0  0  0  0
 26 32  1  0  0  0  0
  1 35  1  0  0  0  0
  2 36  1  0  0  0  0
  3 37  1  0  0  0  0
  4 38  1  0  0  0  0
  5 39  1  0  0  0  0
  6 40  1  0  0  0  0
  7 41  1  0  0  0  0
 14 42  1  0  0  0  0
 14 43  1  0  0  0  0
 15 44  1  0  0  0  0
 15 45  1  0  0  0  0
 16 46  1  0  0  0  0
 16 47  1  0  0  0  0
 17 48  1  0  0  0  0
 17 49  1  0  0  0  0
 19 50  1  0  0  0  0
 19 51  1  0  0  0  0
 19 52  1  0  0  0  0
 20 53  1  0  0  0  0
 20 54  1  0  0  0  0
 20 55  1  0  0  0  0
 21 56  1  0  0  0  0
 21 57  1  0  0  0  0
 21 58  1  0  0  0  0
 22 59  1  0  0  0  0
 22 60  1  0  0  0  0
 22 61  1  0  0  0  0
 23 62  1  0  0  0  0
 23 63  1  0  0  0  0
 24 64  1  0  0  0  0
 24 65  1  0  0  0  0
 25 66  1  0  0  0  0
 26 67  1  0  0  0  0
 28 68  1  0  0  0  0
 29 69  1  0  0  0  0
 30 70  1  0  0  0  0
 30 71  1  0  0  0  0
 32 72  1  0  0  0  0
M  CHG  1  30   1
M  END
> <OMEGA_C>
ojUJQaqU8UDjjZPB2Fj0QIYZ4kB6JYzBj2UCQQHRA0FcwJzBNse6QLxw/UDCVpfBshXMQMnsSD9k
hqzBpK6TQPnvLr/byKXBbKzVQCMZ0b8S6KzBQAXIQC1x6EC27Y3B8prYQJxIB0EfpZ7BikujQC2Y
HD/z3qfBFGPlQLq5rL52867B2sCsQKEF57/tW6jBlgnaQKrivj9/IpDB/BufQOMYDUF/B3bBQk2H
QJh8+0BfjYLBlIywQAqYAEGxvWLBXMG3QGDhv0DOp3jBfFilQMfy1kA7VIbBYoHjQCw/yD5oAojB
Vla9QDjqAEHVMrHBclrqQPSxIUHjta3BlLefQBb6H0GGl6bBuouJQKX35z+ddaTB8pehQD7ZkEDu
eo/BVI2iQE7LJkD49ZvBAOyGQFhRb0A8f5fBqmXIQKFcEkE646jBdsCvQC4x2j8KL5PBWsmKQJAs
uECTWIzBsOvMQAM03kAh6GnBbtL3QLj1A0Drm5TBRgt0QEoRk0ARDqDB020GQfWSLb5YK7PBaKed
QP3wQsBTWqbBhxQaQQOF7ECbLZLB3wr/QFBV0UCLFIXB7xEOQemtCUFGaKLBSv+YQPA+AEHz/pjB
B9bXQHab4z8rOK7Bt/1oQNKAUL9YNqLB5/7oQGzDH8A3067B8te5QL2aFEFnrH7Bh++IQI6OGUFu
aHDBEqVXQFKP7UAbl3zBG7t3QI6yBkFrkYnBVbrCQO+JC0FAYVjBkJuVQMaP80AysVnBxHKdQCne
r0DeIXDB8ETPQKLgp0A+5n3BzSkDQUZFhD4USIfB+yHWQIdALD/+L4DB3d7UQPUPDb+Ms4rBs66x
QAuCCEFdlbjBxSDaQLjf7kAD+7LBW1SkQOS+7ECP8q3BK27dQOs2KUFB+7TBCVzyQKwoLkEa1KfB
Xa0DQTOVGEExva/BDOqUQMyrJ0EJCK7BzzCGQGaNFUGFgKPBOEqnQItULEHXnaDBHIKDQKQiHUAl
cKvBPLxVQNVGvT+DEaHBREWnQOsbekDWV4jBmm3AQB9rmUD5JJPBiCK/QGuiQkD3vJ/B4bxVQB77
U0DobJPB+9aYQCTQmz9bL4/By7JjQIDyr0AlxofBbB3mQMkK60CcZXHB8urWQBoJzkAdCV3Bf8lS
QAhCg0BmCqXBUTkJQYke8kAnjpPBxXr0QOdf4kBhJozBk1UCQUD3A0FBx5zBJ7u6QETk/EBaaJfB
wirMQKdzSj9akKzB7f2TQJUWLr/ZvaXBodjVQM1I0L8p+KzB7BrIQJs76ECh9o3BiGfYQBYaB0F3
t57BgnujQCuoHT8+3KfBznblQIwJqb6YBq/BnQStQOd45r/hX6jB2K/ZQPAMvj+ZFJDB0i+fQH0a
DUFbDXbBkICHQICL+0AQl4LByjiwQKGRAEGQtWLBi/G3QIjkv0CVonjB/H2lQPDk1kCvU4bBXr3i
QP7i0D6EuofBHlDqQOh8IEF7PK7BJ9CgQLfJIEEhVKbBhM+5QCm9AEEz+LDBUaqJQKZx6D9yeKTB
PSihQKWJkEAmVY/Br4eiQPH7JkBv8pvBNtSGQEeSb0AIhJfBVMjHQHcrEkG166jBEXqvQLqO2j8y
JpPB9LuKQHcuuEA/T4zBhtHMQDRK3kAB0GnBha73QA0pAkCco5TBDDl1QMGFk0AIE6DBlGgGQc/8
I748TrPBN+WdQEW8QsBYa6bBgR0aQTBy7UAyKJLBr0r/QBvK0UByEYXB0vcNQcH7CUH7aaLB9+6Y
QBSH/0B5FpnBS9jXQDpx5D/eRK7BuOBpQJP9T7+sGaLBYCvpQF9LH8A76q7Bnxq6QGGNFEG+mn7B
GweJQDWcGUGMhXDBIsdXQNy07UARvXzBuot4QHm8BkGrn4nBXx/CQHd+C0ELNVjBdR2VQJ1h80C0
1VnBKLGdQC6rr0BXK3DBUafPQBISqEBG3X3Bs8ECQZ2LiT6L8IbB0FLVQMSuNz8p9X/BoOXTQFHb
Cb/7PorBZvPcQDIBKEFHdbXB7WL0QKj8LEFkk6jBsgwDQR6gFkFUcbDBHoOVQEKBKEE+t63Bb+KG
QGoQF0Fa5aLBMX+qQGIgLUEAiqDBJtatQM1dCEFDULjBzFvVQN0A7UDW67LBokugQF7g7UCKZq3B
lbuDQAtmHUDUc6vBgN9VQO6yvT9mHKHB8d2lQBE7eUCDLIjBNnPAQNiimEAN0ZLB1DW/QB/BQkCh
r5/BSORUQOxKVEBdlZPBIW2YQJ8LnT/RJY/BzkFjQD1fsEDav4fBxwnmQDBA60B4OnHBtb7WQLUk
zkDM61zBCGxUQJjzg0A+J6XB

> <OMEGA_E>
eJY3PvhRQD4=

> <OMEGA_NBR>
    146350

$$$$
50212892
  -OEChem-04172616093D

 88 91  0     1  0  0  0  0  0999 V2000
   11.7917    8.3277  -15.6959 C   0  0  0  0  0  0  0  0  0  0  0  0
   11.2501    7.2565  -16.4295 C   0  0  0  0  0  0  0  0  0  0  0  0
   11.5438    8.4268  -14.3128 C   0  0  0  0  0  0  0  0  0  0  0  0
    8.5461    7.4473  -18.5243 C   0  0  0  0  0  0  0  0  0  0  0  0
    7.6035    6.9890  -17.5886 C   0  0  0  0  0  0  0  0  0  0  0  0
   10.4420    6.2933  -15.7884 C   0  0  0  0  0  0  0  0  0  0  0  0
   10.7489    7.4587  -13.6657 C   0  0  0  0  0  0  0  0  0  0  0  0
    8.1478    8.2099  -19.6278 C   0  0  0  0  0  0  0  0  0  0  0  0
    5.8334    7.9627  -18.9339 C   0  0  0  0  0  0  0  0  0  0  0  0
    6.3529    0.7809  -21.5496 C   0  0  0  0  0  0  0  0  0  0  0  0
    4.5716   -0.6684  -20.7127 C   0  0  0  0  0  0  0  0  0  0  0  0
    6.6021   -1.6410  -21.6484 C   0  0  0  0  0  0  0  0  0  0  0  0
    6.2300    7.2538  -17.7791 C   0  0  0  0  0  0  0  0  0  0  0  0
   10.1974    6.3854  -14.4000 C   0  0  0  0  0  0  0  0  0  0  0  0
    6.7809    8.4981  -19.8346 C   0  0  0  0  0  0  0  0  0  0  0  0
    5.0846    0.6200  -20.9523 C   0  0  0  0  0  0  0  0  0  0  0  0
    7.1162   -0.3500  -21.8853 C   0  0  0  0  0  0  0  0  0  0  0  0
    5.3267   -1.7981  -21.0678 C   0  0  0  0  0  0  0  0  0  0  0  0
    6.8665    1.4083  -18.0755 C   0  0  0  0  0  0  0  0  0  0  0  0
    7.3063    6.5792  -13.7885 C   0  0  0  0  0  0  0  0  0  0  0  0
    4.9281    8.8682  -15.5027 C   0  0  0  0  0  0  0  0  0  0  0  0
    4.1873    7.8641  -16.3953 C   0  0  0  0  0  0  0  0  0  0  0  0
    5.4229    8.1624  -14.2363 C   0  0  0  0  0  0  0  0  0  0  0  0
    5.6606    6.0128  -15.5473 C   0  0  0  0  0  0  0  0  0  0  0  0
    5.1390    6.7192  -16.8247 C   0  0  2  0  0  0  0  0  0  0  0  0
    7.1681    0.3796  -16.9880 C   0  0  0  0  0  0  0  0  0  0  0  0
    7.4191   10.1360  -21.7031 C   0  0  0  0  0  0  0  0  0  0  0  0
    5.1003   10.1677  -20.7686 C   0  0  0  0  0  0  0  0  0  0  0  0
    5.8794    8.1846  -22.1364 C   0  0  0  0  0  0  0  0  0  0  0  0
    4.3050    1.8231  -20.5050 C   0  0  0  0  0  0  0  0  0  0  0  0
    9.3494    5.3337  -13.6967 C   0  0  0  0  0  0  0  0  0  0  0  0
    5.0871    4.5391  -17.9406 C   0  0  0  0  0  0  0  0  0  0  0  0
    5.1106    2.6104  -19.4556 C   0  0  1  0  0  0  0  0  0  0  0  0
    4.2468    3.7323  -18.8988 C   0  0  2  0  0  0  0  0  0  0  0  0
    6.3053    9.2411  -21.0927 C   0  0  0  0  0  0  0  0  0  0  0  0
    6.2291    6.9703  -14.5842 N   0  0  0  0  0  0  0  0  0  0  0  0
    5.5382    1.7193  -18.3543 N   0  0  0  0  0  0  0  0  0  0  0  0
    4.3350    5.7392  -17.5553 N   0  3  0  0  0  0  0  0  0  0  0  0
    7.7928    1.9962  -18.6240 O   0  0  0  0  0  0  0  0  0  0  0  0
    7.5738    7.2340  -12.7852 O   0  0  0  0  0  0  0  0  0  0  0  0
    3.8115    4.5768  -19.9647 O   0  0  0  0  0  0  0  0  0  0  0  0
    7.9713    5.4251  -14.1216 O   0  0  0  0  0  0  0  0  0  0  0  0
    8.3453   -0.1954  -22.4264 F   0  0  0  0  0  0  0  0  0  0  0  0
    4.8301   -3.0333  -20.8377 F   0  0  0  0  0  0  0  0  0  0  0  0
   12.3962    9.0726  -16.1920 H   0  0  0  0  0  0  0  0  0  0  0  0
   11.4534    7.1709  -17.4867 H   0  0  0  0  0  0  0  0  0  0  0  0
   11.9633    9.2457  -13.7472 H   0  0  0  0  0  0  0  0  0  0  0  0
    9.5907    7.2080  -18.3901 H   0  0  0  0  0  0  0  0  0  0  0  0
    7.9302    6.4332  -16.7222 H   0  0  0  0  0  0  0  0  0  0  0  0
   10.0101    5.4849  -16.3598 H   0  0  0  0  0  0  0  0  0  0  0  0
   10.5612    7.5380  -12.6051 H   0  0  0  0  0  0  0  0  0  0  0  0
    8.8874    8.5788  -20.3230 H   0  0  0  0  0  0  0  0  0  0  0  0
    4.7808    8.0988  -19.1335 H   0  0  0  0  0  0  0  0  0  0  0  0
    6.7359    1.7710  -21.7483 H   0  0  0  0  0  0  0  0  0  0  0  0
    3.5998   -0.7882  -20.2569 H   0  0  0  0  0  0  0  0  0  0  0  0
    7.1856   -2.5108  -21.9118 H   0  0  0  0  0  0  0  0  0  0  0  0
    5.7876    9.2811  -16.0512 H   0  0  0  0  0  0  0  0  0  0  0  0
    4.2448    9.6839  -15.2240 H   0  0  0  0  0  0  0  0  0  0  0  0
    3.3389    7.4405  -15.8379 H   0  0  0  0  0  0  0  0  0  0  0  0
    3.8152    8.3816  -17.2918 H   0  0  0  0  0  0  0  0  0  0  0  0
    6.0420    8.8595  -13.6525 H   0  0  0  0  0  0  0  0  0  0  0  0
    4.5565    7.8497  -13.6349 H   0  0  0  0  0  0  0  0  0  0  0  0
    4.8252    5.4806  -15.0689 H   0  0  0  0  0  0  0  0  0  0  0  0
    6.4397    5.2908  -15.8331 H   0  0  0  0  0  0  0  0  0  0  0  0
    8.2560    0.3082  -16.8417 H   0  0  0  0  0  0  0  0  0  0  0  0
    6.6913    0.6906  -16.0468 H   0  0  0  0  0  0  0  0  0  0  0  0
    6.7740   -0.6014  -17.2920 H   0  0  0  0  0  0  0  0  0  0  0  0
    7.0318   10.6450  -22.5981 H   0  0  0  0  0  0  0  0  0  0  0  0
    7.7339   10.8858  -20.9624 H   0  0  0  0  0  0  0  0  0  0  0  0
    8.2805    9.5109  -21.9809 H   0  0  0  0  0  0  0  0  0  0  0  0
    4.7797   10.6869  -21.6839 H   0  0  0  0  0  0  0  0  0  0  0  0
    4.2677    9.5635  -20.3792 H   0  0  0  0  0  0  0  0  0  0  0  0
    5.4005   10.9086  -20.0130 H   0  0  0  0  0  0  0  0  0  0  0  0
    5.5334    8.6898  -23.0502 H   0  0  0  0  0  0  0  0  0  0  0  0
    6.7376    7.5399  -22.3767 H   0  0  0  0  0  0  0  0  0  0  0  0
    5.0639    7.5714  -21.7255 H   0  0  0  0  0  0  0  0  0  0  0  0
    4.1045    2.4704  -21.3715 H   0  0  0  0  0  0  0  0  0  0  0  0
    3.3521    1.4964  -20.0631 H   0  0  0  0  0  0  0  0  0  0  0  0
    9.7375    4.3338  -13.9408 H   0  0  0  0  0  0  0  0  0  0  0  0
    9.4040    5.4929  -12.6096 H   0  0  0  0  0  0  0  0  0  0  0  0
    5.3097    3.9382  -17.0465 H   0  0  0  0  0  0  0  0  0  0  0  0
    6.0281    4.8322  -18.4290 H   0  0  0  0  0  0  0  0  0  0  0  0
    5.9956    3.0466  -19.9420 H   0  0  0  0  0  0  0  0  0  0  0  0
    3.3866    3.3023  -18.3648 H   0  0  0  0  0  0  0  0  0  0  0  0
    4.8300    1.3157  -17.7750 H   0  0  0  0  0  0  0  0  0  0  0  0
    3.5698    5.4609  -16.9747 H   0  0  0  0  0  0  0  0  0  0  0  0
    3.9835    6.1729  -18.3849 H   0  0  0  0  0  0  0  0  0  0  0  0
    3.2815    4.0736  -20.5717 H   0  0  0  0  0  0  0  0  0  0  0  0
  1  2  1  0  0  0  0
  1  3  2  0  0  0  0
  2  6  2  0  0  0  0
  3  7  1  0  0  0  0
  4  5  2  0  0  0  0
  4  8  1  0  0  0  0
  5 13  1  0  0  0  0
  6 14  1  0  0  0  0
  7 14  2  0  0  0  0
  8 15  2  0  0  0  0
  9 13  2  0  0  0  0
  9 15  1  0  0  0  0
 10 16  1  0  0  0  0
 10 17  2  0  0  0  0
 11 16  2  0  0  0  0
 11 18  1  0  0  0  0
 12 17  1  0  0  0  0
 12 18  2  0  0  0  0
 13 25  1  0  0  0  0
 14 31  1  0  0  0  0
 15 35  1  0  0  0  0
 16 30  1  0  0  0  0
 17 43  1  0  0  0  0
 18 44  1  0  0  0  0
 19 26  1  0  0  0  0
 19 37  1  0  0  0  0
 19 39  2  0  0  0  0
 20 36  1  0  0  0  0
 20 40  2  0  0  0  0
 20 42  1  0  0  0  0
 21 22  1  0  0  0  0
 21 23  1  0  0  0  0
 22 25  1  0  0  0  0
 23 36  1  0  0  0  0
 24 25  1  0  0  0  0
 24 36  1  0  0  0  0
 25 38  1  0  0  0  0
 27 35  1  0  0  0  0
 28 35  1  0  0  0  0
 29 35  1  0  0  0  0
 30 33  1  0  0  0  0
 31 42  1  0  0  0  0
 32 34  1  0  0  0  0
 32 38  1  0  0  0  0
 33 34  1  0  0  0  0
 33 37  1  0  0  0  0
 34 41  1  0  0  0  0
  1 45  1  0  0  0  0
  2 46  1  0  0  0  0
  3 47  1  0  0  0  0
  4 48  1  0  0  0  0
  5 49  1  0  0  0  0
  6 50  1  0  0  0  0
  7 51  1  0  0  0  0
  8 52  1  0  0  0  0
  9 53  1  0  0  0  0
 10 54  1  0  0  0  0
 11 55  1  0  0  0  0
 12 56  1  0  0  0  0
 21 57  1  0  0  0  0
 21 58  1  0  0  0  0
 22 59  1  0  0  0  0
 22 60  1  0  0  0  0
 23 61  1  0  0  0  0
 23 62  1  0  0  0  0
 24 63  1  0  0  0  0
 24 64  1  0  0  0  0
 26 65  1  0  0  0  0
 26 66  1  0  0  0  0
 26 67  1  0  0  0  0
 27 68  1  0  0  0  0
 27 69  1  0  0  0  0
 27 70  1  0  0  0  0
 28 71  1  0  0  0  0
 28 72  1  0  0  0  0
 28 73  1  0  0  0  0
 29 74  1  0  0  0  0
 29 75  1  0  0  0  0
 29 76  1  0  0  0  0
 30 77  1  0  0  0  0
 30 78  1  0  0  0  0
 31 79  1  0  0  0  0
 31 80  1  0  0  0  0
 32 81  1  0  0  0  0
 32 82  1  0  0  0  0
 33 83  1  0  0  0  0
 34 84  1  0  0  0  0
 37 85  1  0  0  0  0
 38 86  1  0  0  0  0
 38 87  1  0  0  0  0
 41 88  1  0  0  0  0
M  CHG  1  38   1
M  END
> <OMEGA_C>
oqo8QW0+BUE3InvBXgA0QUg16ECXb4PBYLM4QTzUBkFYAWXB6bwIQQtQ7kC3MZTBpE/zQB6m30Bz
tYzBWBInQYFiyUBtnXzBovsrQdit7kDGplrBkF0CQZZbA0HOBZ3BZKu6QF3O/kCueJfBwkrLQAHs
Rz+rZazBb0qSQHUfK7+Is6XBNUTTQNQN0r/UL63BFlzHQIof6ECHO47BWygjQVlVzEB0ZmbB/vzY
QCn4B0E8rZ7B0bSiQM+1Hj9cnqfBDLjjQD00s74kFa/BH3SqQLYm5r/OiqjBDLrbQOBDtD+UmpDB
l83pQPiI0kCgnVzBHbOdQBbkDUEMC3jBWf6FQKOm+0ClKYPBYoitQBmZAkG5x2PBjiO1QNFowEDd
wXjBGHOkQIQD10DrmIbB3WDlQM5Wwj5z54fBG2ntQC8tIkEEoK3BxjWjQO2uIkEpJqbB2CO8QAX0
AkFwF7HBfsKJQFxb6T84CqTBH5cVQYOtqkCiJVvBNsmiQPM/kUBHho/BOIqjQHgQJ0AEpZvB4OWH
QNXdbkDPMJfBbcXJQG7bE0HzvajBilTHQGEM30DmWGnBWDmxQNAQ3D+s1ZLBs7iKQEqnt0AucYzB
eF75QOaD/z/k/ZTBl1zyQMJ850A2kEzB+O9zQNx0kkCxt5/BORX/QEWarUAz8mHBJYYFQfQdSL45
abPBjpCaQHQhQsCjs6bBwlZGQUcpEUE8iYHBGUE3QVN45UDP5IvBnmk/QTTuE0GQ9FvBknMZQUqo
5kABH5PBVMT9QAHdzUD5xoXBhikgQWSEr0Dg4ILBefooQUM38UCYrknB+TIOQeRCCUF/laLBIfyY
QLSUAUFTEZnBq4zXQB6w4j+I/K3BjGNmQIvFSb8QDqLBxPDlQPiwIMBGS6/BuDO5QFZ/FEHdaIDB
gtWHQEzxGkFdlXPBrrBVQE0Y7kDhZ33BUCx0QCkbBkGpVYrBUljBQG3ADUHTcFrB5c6RQBUx+0CX
KFrB7GeaQD1hr0A+GnHB6hHOQOFNqUBqVH3BZhgEQcLGnT7Eu4bB5R7WQK3NMD/VX4DBNMTYQDX0
Gb/+VYrBmQThQBZSKkHfyLTB1Xv3QFksLkH0sqfB7XwEQaUsGEHu2K/Bk/OYQFf9KkGheK3B3ZCI
QCAEGUGTCKPB+tCsQKiJLkGrGqDBRxGxQI8JC0HaZrjBwprXQING8UB3A7PBFguiQLZI8kC8za3B
XViDQBIbHkDO+KrBoYhWQNyJvz9KgaDB/cwbQXOuikBTDV/BnHYWQdbFr0AWwUnBNempQGkLfEAw
X4jB5+XAQFmhmkCgbpPB19u/QLn6QkAuiZ/Btb5YQJtYU0AY65LBoY+aQBpqqD9BM47BanhkQPS/
rkAuzIfBnfF+QEWIxUBJFJPBqARSQBNbgkDXkqTBi0JHQYfs9ECU/m/BjDVCQYdgzEArhHjBBwM7
QbXzAkEsDl/B3oEJQSMz80D4tJLBQBX0QDpb40DDjYvBWwExQSyqtEC1AXDBzOgpQVgX7kDYa1bB
6S8DQTOGBEFpCJzBG967QOhB/UAmW5fBVB7FQP8sSj/QKK3Bg56VQBoSSr/sIqTBYGrTQF8czb/5
Ia7BdOzHQGS46ED5y43BqAUlQaYcxUCzr17BMWfaQJ+oB0HUUZ7BfMSgQOb5CD8yyqbBm4XeQAQK
jr4exrDB8tiuQF7F7b/42qfBv27eQANoxT9zdZDBoEvnQBnO1kDm91vBf9yZQBV+DkFgV3jB3D+E
QGoG/EDkd4PBH02pQCaIA0GL1GPBZrezQAH8wUBYO3jBuuqjQNmo10CnfIbB+u/qQNRnCT8+0ofB
K53MQFhoAkEd2LHBwYjpQPr5JUFfe6vBo5ydQCEfHEF8tafBOZqGQJ+c1z93laLBG8ISQcb8qkCY
ZVXBTKSjQHJvkkCpzI/BKGKiQDijJECYTJvBxKWHQG5jbkAs95bBZ8XLQNjrEkEbq6jBZ7vEQM7I
4UA6BWnB7S6zQOWG4j8sU5LB1+SKQNABuED4eIzB3Sb6QH7JAEAVTZbBjizuQCFp7EAI8EvBSwtx
QCm4kEDspp/BZFL+QAq2skA9IGHBxb0AQaw96bxs0LbB/hSkQC42SMBHWaXBr4JUQYJ8A0FdcXbB
x4VLQZt7v0BxyILB6Ls+QcyUEkGZsVjBf00aQSeU7kAbCZHB+Pr9QOgV00AOWITBbPosQSDflUA6
vXbBnYUgQQsr+0ByeEnBBSsPQSyOCkHbeqHBjFqaQBQ6/0BQaJnBQmvNQFYE5z/LQa/Bw41zQKXa
e7+OQp/B+u3mQCIRG8BP67DBnF61QCmZFUFRW4DBvciCQO0hG0GAPHTBNy5RQCQk7kArjX7B5qdy
QCgFBkFO0IrBtsy7QFUJD0EAP1rBGGqNQIYh/ED1lVrBKtKYQCT1sEAYuHDBHSXNQHoAq0AwPXzB
3dcGQVutuj5wGIjBzRDiQHPwbj9I1n/BPhDaQBdC077nOInBmkTCQGgcCkFhUrnBx1XtQMdv+EAh
0bLB69e2QDE76kAf76/BoUbeQK+nLUEW4rLBHg3pQFOvMUGr6aTBxTEFQQYaIEGJpKzBGKuUQLH3
I0EcQ6/BFhKHQMoHD0ErBqbBz3ycQD7dJ0H0KKHBOVF1QBkYEkCFVqnBp7xWQKV+pT+5+J3Bk80W
QevIiECMXlbBfmYQQSEItEBNjUTB70utQJHJf0AsuIjBLFLAQPiznECHNZTBjhu9QAijPkDqA6DB
Dm5ZQOuqVEDGTJLBdRmeQP2Brj+5Qo3BvXtlQFoirkBV14fBhE5+QDAmxkBtBZPBjdlNQFCYf0BH
LqTB

> <OMEGA_E>
SATTPuzr4j4=

> <OMEGA_NBR>
    149407

$$$$
50212898
  -OEChem-04172616093D

 72 74  0     1  0  0  0  0  0999 V2000
    8.5800    7.5556  -18.5020 C   0  0  0  0  0  0  0  0  0  0  0  0
    7.6546    7.0384  -17.5802 C   0  0  0  0  0  0  0  0  0  0  0  0
    8.1378    8.2518  -19.6394 C   0  0  0  0  0  0  0  0  0  0  0  0
    5.8354    7.8829  -18.9534 C   0  0  0  0  0  0  0  0  0  0  0  0
    4.6127   -0.6638  -20.7437 C   0  0  0  0  0  0  0  0  0  0  0  0
    6.3840    0.8103  -21.5567 C   0  0  0  0  0  0  0  0  0  0  0  0
    6.6814   -1.6082  -21.6265 C   0  0  0  0  0  0  0  0  0  0  0  0
    6.2662    7.2359  -17.7719 C   0  0  0  0  0  0  0  0  0  0  0  0
    6.7529    8.4361  -19.8738 C   0  0  0  0  0  0  0  0  0  0  0  0
    5.1057    0.6340  -20.9827 C   0  0  0  0  0  0  0  0  0  0  0  0
    5.3971   -1.7834  -21.0722 C   0  0  0  0  0  0  0  0  0  0  0  0
    7.1754   -0.3102  -21.8663 C   0  0  0  0  0  0  0  0  0  0  0  0
    6.7942    1.4888  -18.0026 C   0  0  0  0  0  0  0  0  0  0  0  0
    4.8986    8.8143  -15.3937 C   0  0  0  0  0  0  0  0  0  0  0  0
    4.2269    7.8531  -16.3780 C   0  0  0  0  0  0  0  0  0  0  0  0
    5.2743    8.0380  -14.1213 C   0  0  0  0  0  0  0  0  0  0  0  0
    5.7352    5.9941  -15.4928 C   0  0  0  0  0  0  0  0  0  0  0  0
    5.1939    6.7067  -16.7875 C   0  0  2  0  0  0  0  0  0  0  0  0
    7.0691    0.4154  -16.9541 C   0  0  0  0  0  0  0  0  0  0  0  0
    5.8552    8.0357  -22.1810 C   0  0  0  0  0  0  0  0  0  0  0  0
    7.2963   10.0657  -21.7833 C   0  0  0  0  0  0  0  0  0  0  0  0
    4.9791    9.9960  -20.8494 C   0  0  0  0  0  0  0  0  0  0  0  0
    4.2997    1.8329  -20.5478 C   0  0  0  0  0  0  0  0  0  0  0  0
    5.0750    4.5294  -17.9223 C   0  0  0  0  0  0  0  0  0  0  0  0
    5.0821    2.6249  -19.4819 C   0  0  1  0  0  0  0  0  0  0  0  0
    4.2335    3.7645  -18.9303 C   0  0  2  0  0  0  0  0  0  0  0  0
    6.2327    9.1263  -21.1528 C   0  0  0  0  0  0  0  0  0  0  0  0
    6.2123    6.9287  -14.4282 N   0  0  1  0  0  0  0  0  0  0  0  0
    5.4761    1.7316  -18.3739 N   0  0  0  0  0  0  0  0  0  0  0  0
    4.3587    5.7414  -17.5190 N   0  3  0  0  0  0  0  0  0  0  0  0
    7.3899    7.2909  -14.5448 O   0  5  0  0  0  0  0  0  0  0  0  0
    7.7341    1.9958  -18.6061 O   0  0  0  0  0  0  0  0  0  0  0  0
    3.8600    4.6357  -19.9982 O   0  0  0  0  0  0  0  0  0  0  0  0
    4.9213   -3.0268  -20.8404 F   0  0  0  0  0  0  0  0  0  0  0  0
    8.4133   -0.1395  -22.3823 F   0  0  0  0  0  0  0  0  0  0  0  0
    9.6380    7.4173  -18.3352 H   0  0  0  0  0  0  0  0  0  0  0  0
    8.0046    6.4868  -16.7202 H   0  0  0  0  0  0  0  0  0  0  0  0
    8.8581    8.6488  -20.3394 H   0  0  0  0  0  0  0  0  0  0  0  0
    4.7773    7.9560  -19.1572 H   0  0  0  0  0  0  0  0  0  0  0  0
    3.6334   -0.7985  -20.3086 H   0  0  0  0  0  0  0  0  0  0  0  0
    6.7535    1.8050  -21.7577 H   0  0  0  0  0  0  0  0  0  0  0  0
    7.2872   -2.4692  -21.8675 H   0  0  0  0  0  0  0  0  0  0  0  0
    5.8058    9.2368  -15.8504 H   0  0  0  0  0  0  0  0  0  0  0  0
    4.2036    9.6278  -15.1387 H   0  0  0  0  0  0  0  0  0  0  0  0
    3.3346    7.4185  -15.9036 H   0  0  0  0  0  0  0  0  0  0  0  0
    3.9288    8.4107  -17.2781 H   0  0  0  0  0  0  0  0  0  0  0  0
    5.7528    8.7261  -13.4089 H   0  0  0  0  0  0  0  0  0  0  0  0
    4.3607    7.6217  -13.6718 H   0  0  0  0  0  0  0  0  0  0  0  0
    4.9246    5.3800  -15.0736 H   0  0  0  0  0  0  0  0  0  0  0  0
    6.5747    5.3451  -15.7825 H   0  0  0  0  0  0  0  0  0  0  0  0
    8.1525    0.2378  -16.8857 H   0  0  0  0  0  0  0  0  0  0  0  0
    6.6903    0.7514  -15.9776 H   0  0  0  0  0  0  0  0  0  0  0  0
    6.5623   -0.5173  -17.2429 H   0  0  0  0  0  0  0  0  0  0  0  0
    5.4818    8.5111  -23.1001 H   0  0  0  0  0  0  0  0  0  0  0  0
    6.7431    7.4304  -22.4161 H   0  0  0  0  0  0  0  0  0  0  0  0
    5.0719    7.3891  -21.7586 H   0  0  0  0  0  0  0  0  0  0  0  0
    6.8823   10.5336  -22.6887 H   0  0  0  0  0  0  0  0  0  0  0  0
    7.5702   10.8473  -21.0593 H   0  0  0  0  0  0  0  0  0  0  0  0
    8.1901    9.4819  -22.0483 H   0  0  0  0  0  0  0  0  0  0  0  0
    4.6311   10.4746  -21.7767 H   0  0  0  0  0  0  0  0  0  0  0  0
    4.1799    9.3583  -20.4438 H   0  0  0  0  0  0  0  0  0  0  0  0
    5.2397   10.7704  -20.1129 H   0  0  0  0  0  0  0  0  0  0  0  0
    4.1083    2.4797  -21.4167 H   0  0  0  0  0  0  0  0  0  0  0  0
    3.3424    1.4958  -20.1237 H   0  0  0  0  0  0  0  0  0  0  0  0
    5.2563    3.8982  -17.0399 H   0  0  0  0  0  0  0  0  0  0  0  0
    6.0367    4.8053  -18.3796 H   0  0  0  0  0  0  0  0  0  0  0  0
    5.9833    3.0476  -19.9499 H   0  0  0  0  0  0  0  0  0  0  0  0
    3.3443    3.3523  -18.4310 H   0  0  0  0  0  0  0  0  0  0  0  0
    4.7512    1.2735  -17.8594 H   0  0  0  0  0  0  0  0  0  0  0  0
    3.5948    5.4756  -16.9308 H   0  0  0  0  0  0  0  0  0  0  0  0
    4.0064    6.1883  -18.3413 H   0  0  0  0  0  0  0  0  0  0  0  0
    3.3339    4.1575  -20.6283 H   0  0  0  0  0  0  0  0  0  0  0  0
  1  2  2  0  0  0  0
  1  3  1  0  0  0  0
  2  8  1  0  0  0  0
  3  9  2  0  0  0  0
  4  8  2  0  0  0  0
  4  9  1  0  0  0  0
  5 10  1  0  0  0  0
  5 11  2  0  0  0  0
  6 10  2  0  0  0  0
  6 12  1  0  0  0  0
  7 11  1  0  0  0  0
  7 12  2  0  0  0  0
  8 18  1  0  0  0  0
  9 27  1  0  0  0  0
 10 23  1  0  0  0  0
 11 34  1  0  0  0  0
 12 35  1  0  0  0  0
 13 19  1  0  0  0  0
 13 29  1  0  0  0  0
 13 32  2  0  0  0  0
 14 15  1  0  0  0  0
 14 16  1  0  0  0  0
 15 18  1  0  0  0  0
 16 28  1  0  0  0  0
 17 18  1  0  0  0  0
 17 28  1  0  0  0  0
 18 30  1  0  0  0  0
 20 27  1  0  0  0  0
 21 27  1  0  0  0  0
 22 27  1  0  0  0  0
 23 25  1  0  0  0  0
 24 26  1  0  0  0  0
 24 30  1  0  0  0  0
 25 26  1  0  0  0  0
 25 29  1  0  0  0  0
 26 33  1  0  0  0  0
 28 31  1  0  0  0  0
  1 36  1  0  0  0  0
  2 37  1  0  0  0  0
  3 38  1  0  0  0  0
  4 39  1  0  0  0  0
  5 40  1  0  0  0  0
  6 41  1  0  0  0  0
  7 42  1  0  0  0  0
 14 43  1  0  0  0  0
 14 44  1  0  0  0  0
 15 45  1  0  0  0  0
 15 46  1  0  0  0  0
 16 47  1  0  0  0  0
 16 48  1  0  0  0  0
 17 49  1  0  0  0  0
 17 50  1  0  0  0  0
 19 51  1  0  0  0  0
 19 52  1  0  0  0  0
 19 53  1  0  0  0  0
 20 54  1  0  0  0  0
 20 55  1  0  0  0  0
 20 56  1  0  0  0  0
 21 57  1  0  0  0  0
 21 58  1  0  0  0  0
 21 59  1  0  0  0  0
 22 60  1  0  0  0  0
 22 61  1  0  0  0  0
 22 62  1  0  0  0  0
 23 63  1  0  0  0  0
 23 64  1  0  0  0  0
 24 65  1  0  0  0  0
 24 66  1  0  0  0  0
 25 67  1  0  0  0  0
 26 68  1  0  0  0  0
 29 69  1  0  0  0  0
 30 70  1  0  0  0  0
 30 71  1  0  0  0  0
 33 72  1  0  0  0  0
M  CHG  2  30   1  31  -1
M  END
> <OMEGA_C>
sEcJQcjH8UAOBJTBG/L0QIQ64UA5pIzBcTQCQT0HBEGWHZ3BP7u6QBJB/ECmoJfBJZuTQL7sKb8H
86XBU0nMQGRvTz8adKzBRc7VQJnYzb8SA63BlYTIQKKM50DlLI7BIhjYQDb6BkGh/Z7Br2GjQDhP
Ij+s3KfBSLWsQIRG5L/Lk6jBoJzlQHHWnr497q7BZmrZQBOSvj9kBZDBvcGcQGMHDUGVTHbBf0KH
QM9M+0ALBoPBQseoQH2bAEEE8WHBdoa3QADQv0Bx4nfBxjSmQBSd1kDZTIbB4zXiQN+t1D4XoofB
Z127QFCSAEG7crHB8HrpQEsNIUE0RK7B3lSfQM7vH0Gey6bBh5eJQAGe6j/2YaTBamaiQNzwkEDs
YI/BLKCiQKX9J0AC25vB1HiHQCbucEBUcZfBOHLHQC0FEkHvOKnBi8vGQOC33UDX2WbBKzyvQC6k
3T/F/ZLBYHqLQKm5t0DUJozB5HnsQFtP6UCgt2jB+H33QPt2/z8z2ZTBCgp3QNlXlEBC/J/BV3ud
QH23QcAxuabB/JwGQfDbDr4GD7PBZjUaQWBa7UB3rpLBsxIAQbuTz0DswoXBzroNQXFhCkEYt6LB
cN+YQG6X/kD+QZnBF4poQHdsTL//d6LBoxzYQCEK5z/BD67B0DDpQP4GHsC78K7BRsm5QMzJE0Ex
m33BlYOGQJkLGkEZOHLBgWpVQD5k7UA3dX7B73B7QDuSBkGGOYrB1Ba4QCueC0EEi1bBMouLQM/k
80C8v1rBDpadQM0orEBWLXHBnGPSQNoKq0BMhXzBmXACQWiEcz7tFYfBBBfWQHRZQD84pH/BXf7R
QMhqBL9d8YnB/mqvQFwtCEHzzLjBM8fXQDXG7UAeVLPBQU2iQG9z7ECgEa7BDjzcQLqJKEF4grXB
KD/yQJKOLUGLeajBcgoDQcm1F0H4YrDBmDGUQNuXJ0G1Nq7B7sGFQIi7FUHTjKPBB6ynQF9TLEEn
56DBN3eDQBC0HkB+VavBhepVQOF3vz9A/aDBhjOoQLJ7eUCzUYjBRSzBQKXEmUB9CZPBPne/QIkM
Q0BpmZ/BlwhWQHiMVkCkcpPBCwqYQEcBoz8R4I7BAhJmQGE4r0BRcofBlTSAQHAGxkDxupLB7F5V
QIUKhUDNBqXBi5oJQX+r8EC9QJTBD5T1QEz730A66YzBt4sCQdDMA0EuPp3BWlu7QAtZ/EAtrZfB
rw/NQNSZTz/otqzBybCTQMScJL/sS6bBfxnWQIIbzr/ZBq3B8SnJQL0I50AxT47B1szYQAEAB0ER
C5/BgcmjQHUhJj91TKjBRk3mQNfnor5v/q7BvLqsQNG04r8auKjBMv3YQJk2uz9AWJDBH06dQHjC
DEEVnHbBmcqHQLlF+kDADYPBqnCqQFePAEGeSGLBl964QD2Ev0BbGHjBe/+mQAbq1UBwZYbBO1/h
QBYm3j43lIfByYTqQLFBIUGLN67BgUigQJMkIEFb0qbBIUy8QDfbAEFaiLHBgjWKQAe+7T+166TB
NTmjQMmykECKsY/BBMOiQMDnJ0B6KZzBlHuHQJHJb0ByhpfBhVXIQB0zEkE4P6nB/7PIQCn03UDv
ZGfBgPuuQP2L2T9beJPBhh2MQG3itkCiKIzByRHuQHQi6kCq22nBgcP2QD1nCEDV2JPBHVtzQCqi
k0Bu65/BBxwHQW9AJb4k+bLBAzKdQOKPQMCvx6bBzYUaQcrW60AY+pLBsF8AQXifzUD3JIbB6hIO
QYE4CkFD0qLB2XyZQB41/0BZPZnB7TvZQHWK5j8CV67BD05oQCVFRL+X56LBuWTpQBGTHsAl0q7B
19q5QEy4E0EIMn7B0cWGQIecGUEoaHLBjU9XQJMT7EBiRH7BTy57QCLoBUGOPorBkOu5QDO+C0HX
HFfBKayNQIeG80CNwVrBYRmfQLwYrEAsEHHBVYzTQKeRqkBqzHzBjsgBQXX34D7SfYXBJU7OQDCk
Lz9WdoDBN0fYQCjaEL8bdorBDGbdQKjbKEHFcbXBD0nzQN+rLUGEYKjBAowDQYTnF0EGWbDBNFCV
QNfmJ0GjOq7BNpiGQMzwFUHKoaPBQJqoQGpzLEGY4qDBhniwQJaOCEFZ37jBdLPYQHxW7kAWa7PB
0CejQJv87EADNK7BLjqFQKH9IEBz3KvB0gtWQCw8xD81xaHBJpaqQLrXeEBjvYjBKC/BQFVAmkC+
pZPBQsK/QDnPQ0CSup/BFNZXQH9BVEAPRZPB0aWXQEOUmz/smY/BfMdoQH61rUAkTofBaqd/QEpb
xUA+mZLB+rJQQLoShEDpzaTBGHwJQYR08UAVBpTBVz71QC3F4ECBtIzBRXwCQZMDBEEdFZ3BRym7
QNRx/ECUopfBx2jMQF3YTj8CnqzBVTaTQFbEJL8oEabBkIrVQDBqzr9206zBg9TIQJlU50D7OI7B
6bTYQJYZB0Ft9p7BLUOjQGelJT/AIajBnqflQPODpL7W3q7ByDmsQL3a4r8He6jBn1rZQDQAwT9L
FJDBfnKcQES/DEGykXbBpyeHQHtL+kCIE4PBvyqpQN2HAEG3MGLBpBe4QIKCv0AjAnjBL4qmQAEO
1kDFXobB0lXiQALP3D74uYfB2fO9QCrRAEExmrHBw1nqQDi7IUE5963BsJOfQOylH0He9qbBetCJ
QNSH7T8lv6TBk9SiQAp4kED/e4/BoreiQNMJKEAIE5zB9XWHQJDmb0AVc5fBMnvIQAM2EkGDN6nB
2WfHQES/3UBdHGfBD1SvQGjG2j9EXJPBf+iLQC8bt0AgNYzByvjsQLOe6UCtIWnBXl/3QHYdBUAT
cZTB3md0QAfnk0Dt25/B3bwGQa8OKb636LLBx6+cQMCXQMBWhKbBiWYaQa/l7EAurZLBGCwAQTLM
zkD13YXBBA4OQX5iCkFlp6LBRVKZQFUQ/0BNQ5nBlHrYQHcT5j/LUK7B33lnQNcPRL+MoqLBTdzo
QErBHsD8lq7Bgyi5QLetE0EqB37BruSFQCSfGUFDd3LBcOJVQIIG7EBIan7BDTl6QOjtBUEAR4rB
c4a4QFizC0HU9lbBYTeMQPGW80C4yFrBF0aeQPLbq0ARL3HBh/vSQGLEqkAWo3zBLY4CQa6ioD6F
vYbBmv/TQH7yOT9BC4DBkFzUQIfOBb8IX4rBVFGyQDBzCEGZ+rjB7ffaQCwC70CoX7PBWhSlQH44
7EADbK7B3XjdQEREKUHMPLXBMgvyQB8sLkG1C6jB4sMDQc++GEGY+a/BwNWUQBxYJ0GqaK7BuyKG
QCscFUFj7aPBM9KmQMf+K0Hb9aDBUJOEQLykIECzsqvBQH5VQBtBxD83g6HBFxapQFigeEAAcYjB
pV7BQOximUD4P5PBZou/QBbwQ0AKup/BRTVXQFxqVEBXT5PBhzqYQLrrmT/mlo/B+ydnQPx2rkBA
e4fBNXiAQM9sxUD8w5LBiTZSQCJ9hEDE0qTB

> <OMEGA_E>
gBsBPhCfAz4ASgA+

> <OMEGA_NBR>
    153133

$$$$
50212902
  -OEChem-04172616093D

 73 75  0     1  0  0  0  0  0999 V2000
    8.5909    7.7168  -18.4066 C   0  0  0  0  0  0  0  0  0  0  0  0
    7.6692    7.1541  -17.5080 C   0  0  0  0  0  0  0  0  0  0  0  0
    8.1415    8.3814  -19.5609 C   0  0  0  0  0  0  0  0  0  0  0  0
    5.8430    7.8731  -18.9492 C   0  0  0  0  0  0  0  0  0  0  0  0
    6.3331    0.7921  -21.5258 C   0  0  0  0  0  0  0  0  0  0  0  0
    4.5774   -0.6842  -20.6812 C   0  0  0  0  0  0  0  0  0  0  0  0
    6.6597   -1.6206  -21.5377 C   0  0  0  0  0  0  0  0  0  0  0  0
    6.2800    7.2192  -17.7793 C   0  0  0  0  0  0  0  0  0  0  0  0
    6.7538    8.4976  -19.8272 C   0  0  0  0  0  0  0  0  0  0  0  0
    5.0552    0.6104  -20.9550 C   0  0  0  0  0  0  0  0  0  0  0  0
    7.1410   -0.3221  -21.8007 C   0  0  0  0  0  0  0  0  0  0  0  0
    5.3753   -1.7997  -20.9831 C   0  0  0  0  0  0  0  0  0  0  0  0
    5.8252    7.9908  -14.4184 C   0  0  0  0  0  0  0  0  0  0  0  0
    6.7635    1.5592  -17.9398 C   0  0  0  0  0  0  0  0  0  0  0  0
    5.0093    8.6951  -15.4888 C   0  0  0  0  0  0  0  0  0  0  0  0
    4.2499    7.6976  -16.3416 C   0  0  0  0  0  0  0  0  0  0  0  0
    5.8073    5.8630  -15.6112 C   0  0  0  0  0  0  0  0  0  0  0  0
    5.2182    6.6166  -16.8375 C   0  0  2  0  0  0  0  0  0  0  0  0
    6.1119    8.7424  -13.1564 C   0  0  0  0  0  0  0  0  0  0  0  0
    7.0563    0.5153  -16.8656 C   0  0  0  0  0  0  0  0  0  0  0  0
    5.7894    8.1209  -22.1071 C   0  0  0  0  0  0  0  0  0  0  0  0
    7.2807   10.1190  -21.7518 C   0  0  0  0  0  0  0  0  0  0  0  0
    4.9935   10.0942  -20.7402 C   0  0  0  0  0  0  0  0  0  0  0  0
    4.2474    1.8037  -20.5370 C   0  0  0  0  0  0  0  0  0  0  0  0
    5.0843    4.4969  -18.0016 C   0  0  0  0  0  0  0  0  0  0  0  0
    5.0483    2.5969  -19.4961 C   0  0  1  0  0  0  0  0  0  0  0  0
    4.2117    3.7427  -18.9674 C   0  0  2  0  0  0  0  0  0  0  0  0
    6.2187    9.2016  -21.0888 C   0  0  0  0  0  0  0  0  0  0  0  0
    6.2400    6.7422  -14.5025 N   0  0  0  0  0  0  0  0  0  0  0  0
    5.4508    1.7158  -18.3760 N   0  0  0  0  0  0  0  0  0  0  0  0
    4.3772    5.6898  -17.5824 N   0  3  0  0  0  0  0  0  0  0  0  0
    7.6965    2.1323  -18.4928 O   0  0  0  0  0  0  0  0  0  0  0  0
    3.8312    4.6062  -20.0402 O   0  0  0  0  0  0  0  0  0  0  0  0
    8.3828   -0.1424  -22.3034 F   0  0  0  0  0  0  0  0  0  0  0  0
    4.9124   -3.0421  -20.7243 F   0  0  0  0  0  0  0  0  0  0  0  0
    9.6499    7.6384  -18.2096 H   0  0  0  0  0  0  0  0  0  0  0  0
    8.0203    6.6707  -16.6083 H   0  0  0  0  0  0  0  0  0  0  0  0
    8.8575    8.8059  -20.2490 H   0  0  0  0  0  0  0  0  0  0  0  0
    4.7879    7.8967  -19.1783 H   0  0  0  0  0  0  0  0  0  0  0  0
    6.6887    1.7868  -21.7507 H   0  0  0  0  0  0  0  0  0  0  0  0
    3.6007   -0.8197  -20.2405 H   0  0  0  0  0  0  0  0  0  0  0  0
    7.2752   -2.4795  -21.7611 H   0  0  0  0  0  0  0  0  0  0  0  0
    4.2915    9.3738  -15.0048 H   0  0  0  0  0  0  0  0  0  0  0  0
    5.6864    9.2759  -16.1324 H   0  0  0  0  0  0  0  0  0  0  0  0
    3.4543    7.2315  -15.7417 H   0  0  0  0  0  0  0  0  0  0  0  0
    3.8038    8.2152  -17.2036 H   0  0  0  0  0  0  0  0  0  0  0  0
    5.0376    5.1778  -15.2264 H   0  0  0  0  0  0  0  0  0  0  0  0
    6.6783    5.2828  -15.9501 H   0  0  0  0  0  0  0  0  0  0  0  0
    6.6572    8.0915  -12.4571 H   0  0  0  0  0  0  0  0  0  0  0  0
    6.7242    9.6266  -13.3874 H   0  0  0  0  0  0  0  0  0  0  0  0
    5.1649    9.0620  -12.6969 H   0  0  0  0  0  0  0  0  0  0  0  0
    8.1441    0.4206  -16.7325 H   0  0  0  0  0  0  0  0  0  0  0  0
    6.5967    0.8274  -15.9163 H   0  0  0  0  0  0  0  0  0  0  0  0
    6.6389   -0.4547  -17.1737 H   0  0  0  0  0  0  0  0  0  0  0  0
    5.4038    8.6055  -23.0162 H   0  0  0  0  0  0  0  0  0  0  0  0
    6.6565    7.4951  -22.3649 H   0  0  0  0  0  0  0  0  0  0  0  0
    5.0023    7.4925  -21.6648 H   0  0  0  0  0  0  0  0  0  0  0  0
    6.8487   10.5952  -22.6443 H   0  0  0  0  0  0  0  0  0  0  0  0
    7.5925   10.8947  -21.0370 H   0  0  0  0  0  0  0  0  0  0  0  0
    8.1539    9.5172  -22.0439 H   0  0  0  0  0  0  0  0  0  0  0  0
    4.6269   10.5872  -21.6527 H   0  0  0  0  0  0  0  0  0  0  0  0
    4.1942    9.4696  -20.3147 H   0  0  0  0  0  0  0  0  0  0  0  0
    5.2927   10.8571  -20.0064 H   0  0  0  0  0  0  0  0  0  0  0  0
    4.0452    2.4391  -21.4118 H   0  0  0  0  0  0  0  0  0  0  0  0
    3.2955    1.4712  -20.0974 H   0  0  0  0  0  0  0  0  0  0  0  0
    5.3009    3.8666  -17.1264 H   0  0  0  0  0  0  0  0  0  0  0  0
    6.0271    4.7775  -18.4938 H   0  0  0  0  0  0  0  0  0  0  0  0
    5.9476    3.0053  -19.9803 H   0  0  0  0  0  0  0  0  0  0  0  0
    3.3276    3.3485  -18.4451 H   0  0  0  0  0  0  0  0  0  0  0  0
    4.7351    1.2013  -17.9036 H   0  0  0  0  0  0  0  0  0  0  0  0
    3.6099    5.4181  -17.0015 H   0  0  0  0  0  0  0  0  0  0  0  0
    4.0304    6.1572  -18.3956 H   0  0  0  0  0  0  0  0  0  0  0  0
    3.2801    4.1301  -20.6503 H   0  0  0  0  0  0  0  0  0  0  0  0
  1  2  2  0  0  0  0
  1  3  1  0  0  0  0
  2  8  1  0  0  0  0
  3  9  2  0  0  0  0
  4  8  2  0  0  0  0
  4  9  1  0  0  0  0
  5 10  1  0  0  0  0
  5 11  2  0  0  0  0
  6 10  2  0  0  0  0
  6 12  1  0  0  0  0
  7 11  1  0  0  0  0
  7 12  2  0  0  0  0
  8 18  1  0  0  0  0
  9 28  1  0  0  0  0
 10 24  1  0  0  0  0
 11 34  1  0  0  0  0
 12 35  1  0  0  0  0
 13 15  1  0  0  0  0
 13 19  1  0  0  0  0
 13 29  2  0  0  0  0
 14 20  1  0  0  0  0
 14 30  1  0  0  0  0
 14 32  2  0  0  0  0
 15 16  1  0  0  0  0
 16 18  1  0  0  0  0
 17 18  1  0  0  0  0
 17 29  1  0  0  0  0
 18 31  1  0  0  0  0
 21 28  1  0  0  0  0
 22 28  1  0  0  0  0
 23 28  1  0  0  0  0
 24 26  1  0  0  0  0
 25 27  1  0  0  0  0
 25 31  1  0  0  0  0
 26 27  1  0  0  0  0
 26 30  1  0  0  0  0
 27 33  1  0  0  0  0
  1 36  1  0  0  0  0
  2 37  1  0  0  0  0
  3 38  1  0  0  0  0
  4 39  1  0  0  0  0
  5 40  1  0  0  0  0
  6 41  1  0  0  0  0
  7 42  1  0  0  0  0
 15 43  1  0  0  0  0
 15 44  1  0  0  0  0
 16 45  1  0  0  0  0
 16 46  1  0  0  0  0
 17 47  1  0  0  0  0
 17 48  1  0  0  0  0
 19 49  1  0  0  0  0
 19 50  1  0  0  0  0
 19 51  1  0  0  0  0
 20 52  1  0  0  0  0
 20 53  1  0  0  0  0
 20 54  1  0  0  0  0
 21 55  1  0  0  0  0
 21 56  1  0  0  0  0
 21 57  1  0  0  0  0
 22 58  1  0  0  0  0
 22 59  1  0  0  0  0
 22 60  1  0  0  0  0
 23 61  1  0  0  0  0
 23 62  1  0  0  0  0
 23 63  1  0  0  0  0
 24 64  1  0  0  0  0
 24 65  1  0  0  0  0
 25 66  1  0  0  0  0
 25 67  1  0  0  0  0
 26 68  1  0  0  0  0
 27 69  1  0  0  0  0
 30 70  1  0  0  0  0
 31 71  1  0  0  0  0
 31 72  1  0  0  0  0
 33 73  1  0  0  0  0
M  CHG  1  31   1
M  END
> <OMEGA_C>
bnQJQQXw9kDCQJPBOWr1QDbu5EBtEIzBc0MCQQkaBkHPfJzB//m6QMbw+0Dsl5fB46jKQHrJSj/p
NKzB8nmSQJwpL78Hc6XBjxzVQNZvz78tTazBbfXIQGUD50AUPI7BMR/YQBr2B0ETnp7BRsShQFJD
HD/go6fBc4PkQOLtpL7HZ67BwwKsQFNc5r9j3afBIGi6QL+0/0CpsWbBqW7YQMGSxz+5hI/BbUyg
QD4fC0EM0nfBif+HQMlS9kCGu4LBSNW5QHSdu0Chx3nBY/umQCa700A3s4bB0ZTDQOHgC0FwgFLB
ds3hQDbpAz/O7IbBl0K5QBjvAUFg27DBTPvoQEDnIUGzA67BgcqfQPCBIUH666XBD+uHQE7e5j/Q
S6TBRLKiQFTmj0A1A5DB0ouhQOwyJkAH+JvBmcaGQASIb0A/vZfB9f/GQMY5E0HWtajBU67HQEvA
10AyCmjBn2yuQOye2z8WApPBABKMQAkTtkDNqIzBZEn2QD13CEBD8ZPBqjF1QN5lk0BiUqDB7h8G
QZbYEb5wbbLBZTKdQMexQsBvy6XBC2YaQSpu9EBRrZHBUVMAQat21UDO3YTBQrgNQfXkDEEK/qHB
QTaZQIqx/EBAbZnBhgnWQKG25D+HAa7BgnJmQMTVUb957KHBxc7oQFyvHsDJFq7BS1SJQAj7FUHS
E3DB9va1QBZqFEE3D4HByxNdQLFo50A13nvBlXFzQHVxA0HroInBtjOhQKawpUBnn3PBe7TVQP0M
qUCAM3/B7QfVQJl2AUFrUEfBmizXQHAGGkGZMlbBQEelQBP+EEGOJkvBW04CQUxT1z4s3IXB/BfT
QLDOUz/3qH7BDHLUQB/P6L65Y4nBRuysQBmwCUFCIbjBAALVQJDX70Bm67LBqhKgQNfC70B3Ua3B
YSjbQP+FKUGLJ7XBw/XyQNlQLkHOS6jBaHYCQUBGGEHTWbDBpw+UQFFlKUGvOK3ByDaGQKuDF0GN
hKLBbl2pQJC2LUEIDaDBTHKBQHEaHEBtS6vBeulSQDZPvD+Ax6DB3aCpQGd2d0D1AonBRN7AQOjg
mEA985PB6VK+QFpXQECS15/BnfZUQDZOVkB5j5PB94WXQGXFmT+UOo/BQwlnQDphrUAIA4jBE/mA
QHwHxUBHKpPBlu1RQJwphEDQM6XBDsYJQRU99kAyLJPB6Lz1QCFf5ECQC4zBsMUCQfbNBUFwbZzB
Xsq7QCJ4+0C5tpfBBQ2TQADVJ78hoqXBqabLQI8jTz9pVqzBpOrVQM10zb91NazBIVzJQFOY5kAC
UY7BcTnZQBvMB0E1op7BVoWiQNaQIj+z4qfBOp+sQBVE47/G3afBQ33lQC4Bn75lZK7BGWy5QFJg
AEHDD2fB2OLYQI4CyD/Dso/B4iigQN6DC0EQk3jBMv+HQMrU9kBvC4PBBHm5QKVAvECOxHnBbAGn
QGjb00A7zobBcajAQJlTDEFOplLBZIDiQAeF/z4NR4fBGxC+QMXwAUHCOLHBCQLqQCn1IkGpdq3B
lZOfQNZTIEFJRabBermIQLNv6j+JmqTBm6WiQEm3j0Dc+o/BQNWhQGTbJkB5EpzBaYOGQJZybkBx
mZfBjqTIQOImE0H7wKjBzs7GQITN2ECzGWjBp+2uQK552j8zQZPB9RCMQJL7tUBKrozBBZT2QGiD
CkC58ZPBkldxQF3NkkCnCKDBnqadQDfdQMB7s6XBh68GQY7rD76+WbLBw68aQSyL80DNiJHBy1QA
QXrn1EBN0YTBB1gOQWGJDEHy46HBCiCaQAYT/EA8qZnB9zdnQOPSSL+0MqLBcDjXQNqH5j/BKK7B
s6LpQFntHcAh3a3BVDCJQMiiFkHYNnHBpFu2QGiAFEE0boHB1pBcQAVR6EA5gnzBmiJ0QOOEA0GM
CYrBIsegQJFepkAko3PBwYjVQCWtqUCe7X7Byf3QQEXeAUFVFkfBA5zUQGd5GkFp01XBALGhQBpv
EUFQBUzBeqgCQZrT1j42JYbBGFfTQMX9Rz+OU3/BusTVQFDV8L4B9InBlCOyQDi4CUHth7jBASDb
QDt/8UCpGbPBuGSlQAEv7kAHEK7BFLjcQJyiKkHHprTBFa3xQDlEL0EMeafBiaQDQUwsGkEwmq/B
NmiUQMxCKEHknK3BfHCGQC6QFUEfRqPBvdimQAV5LEGkKqDB8xWDQP+FHkDGlqvBSLNTQO2FwD9v
SaHBudCpQCCsd0A78YjBNbDAQHiUmEDR/pPBdn6+QDqoQkAk0Z/BSAlWQM1kU0DKRJPBcDKYQCmU
lT9koI/ByytnQBdrrUCo/ofB7N2AQJm4xEDeNJPB19pNQIBCg0D706TB0VQJQTe990BRHJPBKxr1
QPz25UBk5YvBwy0CQXxuBkFDYJzBor+6QEIo/UB3bZfBSkjLQMXVSj+WDKzB5EqTQJg7LL+/CqXB
Pf3VQBBEz7+6w6vBzqbIQKA96EDdDo7BfPbXQG5gCEGjgJ7BSWyiQFAaHj+DcqfBuz/lQL08pr7T
E67BcO2sQDlM5b+aSafBWW+5QIjm/0ApVmbBBZbYQEXdwj8TtI/BToGeQM4iC0HqNHfBWwyHQF9l
9kCOnoLB2yy5QAYMvEBWonnBh5umQDho1EABn4bBIg3FQOxnDEGxslLBJQvhQHakCD+1pIbBLfLo
QCL+IUHUBq7B96SfQCW9IUH0/aXBc0+5QGvzAUEzvLDBaYeIQBts6D9GP6TBmkWjQCYMkUA8LZDB
WfahQPtpJ0Cs7ZvBUR+HQKHccEANwpfBcOzGQGBrE0Elq6jB6BLHQM0W2EB93mfBTnyuQEKs3z+y
25LB2TCMQFTItkDcuIzB8t72QCDz/j95sJTBW310QC2hk0BYXKDBWHkGQTrbGr7ZI7LBRj6eQGXn
QcCWA6XBREUaQcYo9UCfh5HBTCUAQaaJ1kA8sITBC6kNQfcZDUG456HBJ/eYQBM0/kD6OpnB44zW
QLBL5D+pAa7BDihoQMd2Tb9Te6HBcsPpQCy/HsAzbK3BBO2GQBJ1FUEqMW/BxYqzQHL9FEFQp4DB
gRdbQJjg5kDZ6XvBuM9xQO2VA0ElgInBpV6gQM5BpkBJiHPBO/bUQFRTqUCdB3/B71vYQFVRAkHp
+0fBnJ/XQO6gGkGeTlfBZrKnQIxsEUHBYUrBNtsBQX7Wvj7i1IXByD3UQExicD+MOn7B+ELRQDei
2L70c4jBbzHbQMJ0KUFqN7XBrdjyQIOHLkEtXqjBknYCQaxSGEHPSrDBIP+TQJ51KUEvWK3BJwuG
QFbOF0EejqLBQBypQAIULkEtLqDBrwmtQPmLCUF3DrjBJhrVQFLS70D4ubLB6hqgQFTq70B3Ka3B
WVOCQD5mHEDTTavBRt1TQPqfvj+SxKDB7yKrQHUNekACNonBGvPAQD+QmkBoRJTBzdu+QOdXQUDH
xJ/BsEZWQD6lV0Auc5PBeDaXQNycpT/IvI7BnEFnQG6QrUBAJIjByBSBQIT6xUAJMZPBOvJQQJQQ
hEDXJKXBx5wJQT9k9kCVPJPBcaP1QBdy5EA8D4zBc3kCQRHnBUHJdZzBtlG7QHLf+0D5kpfBpd6S
QHl0ML91YqXBhLzKQJ3VSj9pO6zB783VQF0Sz78JIKzBszHJQOHD5kBGO47B/I/YQPblB0EGlZ7B
5uKhQGtCGz+Jp6fBtrOsQJSX5r96s6fB7NzkQNL8or79V67BP1q7QOEn/0C3umbB2aLYQNrFyD88
lI/BefmgQOH4CkHVrHfB/GeIQFNN9kCnsILBCby5QOoeu0AD3nnBfRanQDCP00Dot4bBmkTGQFjB
C0EU1VLB5HPiQBEXAD8rNIfBKanpQCMHIkGt3q3B+V6gQLaSIUET2aXBrOe5QFgbAkEC27DBxeKH
QLgo5j+PV6TBWIWiQMn8j0DmIZDBOmihQEokJkCVBJzBG26GQLYmb0DpwpfBhpLHQKBLE0EapqjB
WxzIQCIK10DhJGjBLZWuQMh/2z9mE5PByv+LQPootkDFuIzB4z/2QKvXCkDa3ZPBCExzQAoBk0Bb
VKDBny+eQEbiQsAAi6XBOj4GQZJwCb7Ya7LBrIwaQY+480DRqJHByWUAQW3Z1EAc34TB3vYNQc+l
DEFG9qHBL4+ZQCfQ/EBRaJnB3jRnQI37U7/936HB7t/VQKvL5D9tG67BpMPpQNBRHsCg0K3BPSSK
QEbGFUEwwW/BKn+2QHpXFEFR/YDBksJdQKR550Ady3vBhWJ0QM2MA0ECj4nBldagQNCJpUCarHPB
L0zVQJYrqEBSWX/BwFbYQD1cAUH430fBINjZQEvEGUH3B1fB1qKoQGYXEUEG+UrBFKYCQVXv1T5U
JYbBtJDTQInIRz8BGn/B047VQLQc774D4YnB2PXbQK3AKUEg/7TBa5PzQE5bLkF8GajBf88CQeFq
GEF0NrDBzL+UQLSNKUEhIq3B07mGQCKPF0HUfaLBDOmpQDy0LUFe75/BS6itQGrzCUEhHbjBBKrV
QJc48EC87bLBy6qgQJwJ8EBBXa3Bi2OBQBCWG0CQWqvBLeBSQFBXuz9s1KDB59qpQAfad0BLI4nB
DnnAQIQImUAMKpTB1w++QOCzQEBR55/BE95UQKSJVUC4fpPBm9WXQJSTmD//T4/BddlmQJtxrUCJ
FYjBlPGAQKxQxUD2M5PBys9PQAaTg0CNJaXB

> <OMEGA_E>
kNEOPlAyET7QABQ+COUUPg==

> <OMEGA_NBR>
    158019

$$$$
50212901
  -OEChem-04172616093D

 73 75  0     1  0  0  0  0  0999 V2000
    8.5909    7.7370  -18.3744 C   0  0  0  0  0  0  0  0  0  0  0  0
    7.6607    7.2018  -17.4654 C   0  0  0  0  0  0  0  0  0  0  0  0
    8.1516    8.3901  -19.5400 C   0  0  0  0  0  0  0  0  0  0  0  0
    5.8462    7.9342  -18.9141 C   0  0  0  0  0  0  0  0  0  0  0  0
    6.3140    0.7873  -21.5179 C   0  0  0  0  0  0  0  0  0  0  0  0
    4.6071   -0.6943  -20.5874 C   0  0  0  0  0  0  0  0  0  0  0  0
    6.6865   -1.6184  -21.4653 C   0  0  0  0  0  0  0  0  0  0  0  0
    6.2720    7.2864  -17.7352 C   0  0  0  0  0  0  0  0  0  0  0  0
    6.7657    8.5270  -19.8062 C   0  0  0  0  0  0  0  0  0  0  0  0
    5.0552    0.6010  -20.9073 C   0  0  0  0  0  0  0  0  0  0  0  0
    7.1357   -0.3204  -21.7805 C   0  0  0  0  0  0  0  0  0  0  0  0
    5.4188   -1.8041  -20.8762 C   0  0  0  0  0  0  0  0  0  0  0  0
    5.6809    8.0215  -14.3728 C   0  0  0  0  0  0  0  0  0  0  0  0
    6.7997    1.5395  -17.9819 C   0  0  0  0  0  0  0  0  0  0  0  0
    4.8282    8.6876  -15.4290 C   0  0  0  0  0  0  0  0  0  0  0  0
    4.1710    7.6836  -16.3438 C   0  0  0  0  0  0  0  0  0  0  0  0
    5.7657    5.9021  -15.5777 C   0  0  0  0  0  0  0  0  0  0  0  0
    5.2014    6.6520  -16.8188 C   0  0  2  0  0  0  0  0  0  0  0  0
    7.0885    0.5883  -16.8241 C   0  0  0  0  0  0  0  0  0  0  0  0
    7.3115   10.1163  -21.7524 C   0  0  0  0  0  0  0  0  0  0  0  0
    5.0146   10.1109  -20.7659 C   0  0  0  0  0  0  0  0  0  0  0  0
    5.8195    8.1157  -22.0930 C   0  0  0  0  0  0  0  0  0  0  0  0
    4.2429    1.7941  -20.4921 C   0  0  0  0  0  0  0  0  0  0  0  0
    5.1311    4.5528  -18.0335 C   0  0  0  0  0  0  0  0  0  0  0  0
    5.0583    2.6133  -19.4812 C   0  0  1  0  0  0  0  0  0  0  0  0
    4.2321    3.7675  -18.9545 C   0  0  2  0  0  0  0  0  0  0  0  0
    6.2418    9.2105  -21.0861 C   0  0  0  0  0  0  0  0  0  0  0  0
    6.1646    6.7959  -14.4668 N   0  0  0  0  0  0  0  0  0  0  0  0
    6.0352    8.8090  -13.3003 N   0  0  0  0  0  0  0  0  0  0  0  0
    5.4752    1.7652  -18.3427 N   0  0  0  0  0  0  0  0  0  0  0  0
    4.3979    5.7193  -17.5942 N   0  3  0  0  0  0  0  0  0  0  0  0
    7.7300    1.9669  -18.6574 O   0  0  0  0  0  0  0  0  0  0  0  0
    3.8025    4.6030  -20.0308 O   0  0  0  0  0  0  0  0  0  0  0  0
    7.1653    8.5089  -12.5325 O   0  0  0  0  0  0  0  0  0  0  0  0
    8.3599   -0.1350  -22.3225 F   0  0  0  0  0  0  0  0  0  0  0  0
    4.9861   -3.0473  -20.5723 F   0  0  0  0  0  0  0  0  0  0  0  0
    9.6486    7.6459  -18.1763 H   0  0  0  0  0  0  0  0  0  0  0  0
    8.0055    6.7253  -16.5596 H   0  0  0  0  0  0  0  0  0  0  0  0
    8.8741    8.7897  -20.2362 H   0  0  0  0  0  0  0  0  0  0  0  0
    4.7908    7.9777  -19.1395 H   0  0  0  0  0  0  0  0  0  0  0  0
    6.6447    1.7807  -21.7829 H   0  0  0  0  0  0  0  0  0  0  0  0
    3.6429   -0.8346  -20.1215 H   0  0  0  0  0  0  0  0  0  0  0  0
    7.3140   -2.4721  -21.6751 H   0  0  0  0  0  0  0  0  0  0  0  0
    4.0459    9.2799  -14.9318 H   0  0  0  0  0  0  0  0  0  0  0  0
    5.4646    9.3528  -16.0312 H   0  0  0  0  0  0  0  0  0  0  0  0
    3.3647    7.1691  -15.8004 H   0  0  0  0  0  0  0  0  0  0  0  0
    3.7503    8.2060  -17.2156 H   0  0  0  0  0  0  0  0  0  0  0  0
    4.9917    5.2137  -15.2076 H   0  0  0  0  0  0  0  0  0  0  0  0
    6.6483    5.3261  -15.8929 H   0  0  0  0  0  0  0  0  0  0  0  0
    8.1718    0.4095  -16.7572 H   0  0  0  0  0  0  0  0  0  0  0  0
    6.7322    1.0358  -15.8845 H   0  0  0  0  0  0  0  0  0  0  0  0
    6.5694   -0.3662  -16.9957 H   0  0  0  0  0  0  0  0  0  0  0  0
    6.8894   10.5783  -22.6571 H   0  0  0  0  0  0  0  0  0  0  0  0
    7.6162   10.9034  -21.0470 H   0  0  0  0  0  0  0  0  0  0  0  0
    8.1873    9.5094  -22.0252 H   0  0  0  0  0  0  0  0  0  0  0  0
    4.6577   10.5877  -21.6908 H   0  0  0  0  0  0  0  0  0  0  0  0
    4.2102    9.4953  -20.3370 H   0  0  0  0  0  0  0  0  0  0  0  0
    5.3077   10.8867  -20.0432 H   0  0  0  0  0  0  0  0  0  0  0  0
    5.4430    8.5879  -23.0124 H   0  0  0  0  0  0  0  0  0  0  0  0
    6.6877    7.4847  -22.3340 H   0  0  0  0  0  0  0  0  0  0  0  0
    5.0272    7.4951  -21.6488 H   0  0  0  0  0  0  0  0  0  0  0  0
    4.0156    2.4124  -21.3730 H   0  0  0  0  0  0  0  0  0  0  0  0
    3.3040    1.4595  -20.0268 H   0  0  0  0  0  0  0  0  0  0  0  0
    5.4095    3.9364  -17.1660 H   0  0  0  0  0  0  0  0  0  0  0  0
    6.0401    4.8617  -18.5705 H   0  0  0  0  0  0  0  0  0  0  0  0
    5.9499    3.0123  -19.9871 H   0  0  0  0  0  0  0  0  0  0  0  0
    3.3707    3.3793  -18.3912 H   0  0  0  0  0  0  0  0  0  0  0  0
    5.4776    9.6057  -13.0673 H   0  0  0  0  0  0  0  0  0  0  0  0
    4.7600    1.3268  -17.7984 H   0  0  0  0  0  0  0  0  0  0  0  0
    3.6307    5.4165  -17.0287 H   0  0  0  0  0  0  0  0  0  0  0  0
    4.0494    6.1965  -18.4009 H   0  0  0  0  0  0  0  0  0  0  0  0
    3.2362    4.1074  -20.6105 H   0  0  0  0  0  0  0  0  0  0  0  0
    7.2578    9.1521  -11.8396 H   0  0  0  0  0  0  0  0  0  0  0  0
  1  2  2  0  0  0  0
  1  3  1  0  0  0  0
  2  8  1  0  0  0  0
  3  9  2  0  0  0  0
  4  8  2  0  0  0  0
  4  9  1  0  0  0  0
  5 10  1  0  0  0  0
  5 11  2  0  0  0  0
  6 10  2  0  0  0  0
  6 12  1  0  0  0  0
  7 11  1  0  0  0  0
  7 12  2  0  0  0  0
  8 18  1  0  0  0  0
  9 27  1  0  0  0  0
 10 23  1  0  0  0  0
 11 35  1  0  0  0  0
 12 36  1  0  0  0  0
 13 15  1  0  0  0  0
 13 28  2  0  0  0  0
 13 29  1  0  0  0  0
 14 19  1  0  0  0  0
 14 30  1  0  0  0  0
 14 32  2  0  0  0  0
 15 16  1  0  0  0  0
 16 18  1  0  0  0  0
 17 18  1  0  0  0  0
 17 28  1  0  0  0  0
 18 31  1  0  0  0  0
 20 27  1  0  0  0  0
 21 27  1  0  0  0  0
 22 27  1  0  0  0  0
 23 25  1  0  0  0  0
 24 26  1  0  0  0  0
 24 31  1  0  0  0  0
 25 26  1  0  0  0  0
 25 30  1  0  0  0  0
 26 33  1  0  0  0  0
 29 34  1  0  0  0  0
  1 37  1  0  0  0  0
  2 38  1  0  0  0  0
  3 39  1  0  0  0  0
  4 40  1  0  0  0  0
  5 41  1  0  0  0  0
  6 42  1  0  0  0  0
  7 43  1  0  0  0  0
 15 44  1  0  0  0  0
 15 45  1  0  0  0  0
 16 46  1  0  0  0  0
 16 47  1  0  0  0  0
 17 48  1  0  0  0  0
 17 49  1  0  0  0  0
 19 50  1  0  0  0  0
 19 51  1  0  0  0  0
 19 52  1  0  0  0  0
 20 53  1  0  0  0  0
 20 54  1  0  0  0  0
 20 55  1  0  0  0  0
 21 56  1  0  0  0  0
 21 57  1  0  0  0  0
 21 58  1  0  0  0  0
 22 59  1  0  0  0  0
 22 60  1  0  0  0  0
 22 61  1  0  0  0  0
 23 62  1  0  0  0  0
 23 63  1  0  0  0  0
 24 64  1  0  0  0  0
 24 65  1  0  0  0  0
 25 66  1  0  0  0  0
 26 67  1  0  0  0  0
 29 68  1  0  0  0  0
 30 69  1  0  0  0  0
 31 70  1  0  0  0  0
 31 71  1  0  0  0  0
 33 72  1  0  0  0  0
 34 73  1  0  0  0  0
M  CHG  1  31   1
M  END
> <OMEGA_C>
QXQJQXCV90C//pLBwiT1QGd15kASuYvB52wCQQE+BkHZUZzB0BO7QC7l/UAIUJfBRwzKQHCOST+/
JKzBeW2TQDu9Mb/nsqTBA/jVQDgpz7/nuKvBGrTIQA8q6UC54Y3BvoDYQJRuCEEFc57BOMShQIDZ
GT8NQqfBRlfkQAAMpL5lPq7BpWatQAbu5r+MAqfBB8q1QA5YAEHw9mXBV5fZQPQPxT/q2o/B3YCa
QJAAC0FY3XbB7niFQLPf9UALwILBeYC4QO7dvEBkPnnBzXGmQGnd1EDkjIbBG9XiQCadFj+2l4bB
i/fpQHXcIUHqBK7BNHegQFvGIUGdIKbB/Ti6QN/ZAUFovrDB48WHQNSj5T/j76PBNDKkQHiwkUCY
RJDBT92hQNxAJ0CX2ZvBwW2HQOkdcUDEopfBGL3HQBteE0FAsKjBMUTFQLJ32UAZeGfBwiDBQJTx
DEEDzlTB9TSvQFTz4T/OvZLBTbuMQOIEt0DcwIzBU1z3QBrE+z9XQpXBaVxzQChMk0AOP6DB40nl
QGUkCEErhUjBG8IFQWI/Cr6FlLLBDo6fQIMHQ8AZlKTB1WAaQSSr9EAFaZHBpBYAQek110AAeoTB
K/wNQbCiDEHE46HBlU6ZQCBJ/0CgHZnBO6HUQNHu4z9sQ67BLSVpQPinVb/i+KDBTwzqQBY2HsCj
Zq3BCXiBQG56FEHX6G7BUd6uQPakFUHeP4DByFdXQJhp5UBNznzBhQVwQONLA0GEuYnBurufQLrW
pkAkUnPBxL7UQM5vqkAeSX7By78CQaWv0T7FDobBDm7XQIiUhD/iJn7BcDjSQKF5u74h94fBR3bc
QIxAKUHEQbXBibfzQHx0LkE4YKjBYv8CQV4mGEGrM7DB+guVQCJnKUG8hq3B4LmGQLDsF0EmsqLB
ZNipQLovLkF4WKDBLy2uQCRoCUFUGbjBYgHWQOmC70AJrLLBEt+gQCfY70C+MK3Bun+AQBtlGkDx
+6rBn3RTQC/Suj/iNqDBWRqtQL/te0DvU4nBGEjBQCSTm0B8kJTBUmW+QO7JQECB5Z/BiLlXQC5H
WEAtIZPBIEivQMWwGUG1E1HBNFKYQM3TqT8RY47BtFxoQElUrUDgOojB1pSBQPVJxkAiNZPBiB1P
QIVvg0BL4qTB9z/oQCNvEkHhbj3B

> <OMEGA_E>
EMR4Pg==

> <OMEGA_NBR>
    159527

$$$$
50212897
  -OEChem-04172616093D

 70 72  0     1  0  0  0  0  0999 V2000
    8.5894    7.6001  -18.4449 C   0  0  0  0  0  0  0  0  0  0  0  0
    7.6595    7.1113  -17.5118 C   0  0  0  0  0  0  0  0  0  0  0  0
    8.1521    8.2509  -19.6114 C   0  0  0  0  0  0  0  0  0  0  0  0
    5.8434    7.8739  -18.9439 C   0  0  0  0  0  0  0  0  0  0  0  0
    6.3865    0.8234  -21.5779 C   0  0  0  0  0  0  0  0  0  0  0  0
    4.6018   -0.6376  -20.7706 C   0  0  0  0  0  0  0  0  0  0  0  0
    6.6598   -1.5981  -21.6611 C   0  0  0  0  0  0  0  0  0  0  0  0
    6.2701    7.2509  -17.7501 C   0  0  0  0  0  0  0  0  0  0  0  0
    6.7676    8.4232  -19.8618 C   0  0  0  0  0  0  0  0  0  0  0  0
    5.1069    0.6572  -21.0038 C   0  0  0  0  0  0  0  0  0  0  0  0
    7.1658   -0.3040  -21.8959 C   0  0  0  0  0  0  0  0  0  0  0  0
    5.3754   -1.7636  -21.1047 C   0  0  0  0  0  0  0  0  0  0  0  0
    6.8052    1.4308  -18.0619 C   0  0  0  0  0  0  0  0  0  0  0  0
    5.9922    7.3402  -14.5576 C   0  0  0  0  0  0  0  0  0  0  0  0
    5.1252    8.4852  -15.1266 C   0  0  0  0  0  0  0  0  0  0  0  0
    5.7251    6.1218  -15.4557 C   0  0  0  0  0  0  0  0  0  0  0  0
    4.3142    7.8680  -16.2702 C   0  0  0  0  0  0  0  0  0  0  0  0
    5.1942    6.7157  -16.7789 C   0  0  0  0  0  0  0  0  0  0  0  0
    7.0751    0.3897  -16.9798 C   0  0  0  0  0  0  0  0  0  0  0  0
    5.8324    8.0193  -22.1560 C   0  0  0  0  0  0  0  0  0  0  0  0
    7.3343   10.0101  -21.8063 C   0  0  0  0  0  0  0  0  0  0  0  0
    5.0302   10.0182  -20.8362 C   0  0  0  0  0  0  0  0  0  0  0  0
    4.3130    1.8629  -20.5603 C   0  0  0  0  0  0  0  0  0  0  0  0
    5.0795    4.5370  -17.8959 C   0  0  0  0  0  0  0  0  0  0  0  0
    5.0943    2.6394  -19.4801 C   0  0  1  0  0  0  0  0  0  0  0  0
    4.2408    3.7680  -18.9071 C   0  0  2  0  0  0  0  0  0  0  0  0
    6.2542    9.1101  -21.1460 C   0  0  0  0  0  0  0  0  0  0  0  0
    5.4866    1.7244  -18.3904 N   0  0  0  0  0  0  0  0  0  0  0  0
    4.3496    5.7389  -17.4792 N   0  3  0  0  0  0  0  0  0  0  0  0
    7.7422    2.0556  -18.5481 O   0  0  0  0  0  0  0  0  0  0  0  0
    3.8439    4.6440  -19.9632 O   0  0  0  0  0  0  0  0  0  0  0  0
    8.4035   -0.1441  -22.4160 F   0  0  0  0  0  0  0  0  0  0  0  0
    4.8897   -3.0039  -20.8760 F   0  0  0  0  0  0  0  0  0  0  0  0
    9.6469    7.4750  -18.2645 H   0  0  0  0  0  0  0  0  0  0  0  0
    8.0051    6.6277  -16.6101 H   0  0  0  0  0  0  0  0  0  0  0  0
    8.8759    8.6222  -20.3218 H   0  0  0  0  0  0  0  0  0  0  0  0
    4.7870    7.9318  -19.1604 H   0  0  0  0  0  0  0  0  0  0  0  0
    6.7666    1.8153  -21.7727 H   0  0  0  0  0  0  0  0  0  0  0  0
    3.6215   -0.7651  -20.3357 H   0  0  0  0  0  0  0  0  0  0  0  0
    7.2567   -2.4638  -21.9076 H   0  0  0  0  0  0  0  0  0  0  0  0
    7.0571    7.6139  -14.5912 H   0  0  0  0  0  0  0  0  0  0  0  0
    5.7026    7.1208  -13.5194 H   0  0  0  0  0  0  0  0  0  0  0  0
    4.4532    8.8788  -14.3498 H   0  0  0  0  0  0  0  0  0  0  0  0
    5.7637    9.2971  -15.5049 H   0  0  0  0  0  0  0  0  0  0  0  0
    6.6532    5.5574  -15.6291 H   0  0  0  0  0  0  0  0  0  0  0  0
    4.9740    5.4608  -14.9987 H   0  0  0  0  0  0  0  0  0  0  0  0
    3.3490    7.4888  -15.9033 H   0  0  0  0  0  0  0  0  0  0  0  0
    4.1394    8.6061  -17.0668 H   0  0  0  0  0  0  0  0  0  0  0  0
    8.1548    0.3448  -16.7746 H   0  0  0  0  0  0  0  0  0  0  0  0
    6.5386    0.6685  -16.0609 H   0  0  0  0  0  0  0  0  0  0  0  0
    6.7261   -0.5952  -17.3236 H   0  0  0  0  0  0  0  0  0  0  0  0
    5.4640    8.4944  -23.0771 H   0  0  0  0  0  0  0  0  0  0  0  0
    6.6988    7.3841  -22.3925 H   0  0  0  0  0  0  0  0  0  0  0  0
    5.0343    7.4024  -21.7173 H   0  0  0  0  0  0  0  0  0  0  0  0
    6.9207   10.4747  -22.7135 H   0  0  0  0  0  0  0  0  0  0  0  0
    7.6395   10.7954  -21.0989 H   0  0  0  0  0  0  0  0  0  0  0  0
    8.2081    9.3978  -22.0738 H   0  0  0  0  0  0  0  0  0  0  0  0
    4.6830   10.4956  -21.7644 H   0  0  0  0  0  0  0  0  0  0  0  0
    4.2191    9.4080  -20.4123 H   0  0  0  0  0  0  0  0  0  0  0  0
    5.3227   10.7932  -20.1126 H   0  0  0  0  0  0  0  0  0  0  0  0
    4.1347    2.5199  -21.4243 H   0  0  0  0  0  0  0  0  0  0  0  0
    3.3491    1.5323  -20.1460 H   0  0  0  0  0  0  0  0  0  0  0  0
    5.2730    3.9015  -17.0191 H   0  0  0  0  0  0  0  0  0  0  0  0
    6.0354    4.8280  -18.3560 H   0  0  0  0  0  0  0  0  0  0  0  0
    5.9951    3.0723  -19.9396 H   0  0  0  0  0  0  0  0  0  0  0  0
    3.3612    3.3407  -18.4034 H   0  0  0  0  0  0  0  0  0  0  0  0
    4.7610    1.2900  -17.8567 H   0  0  0  0  0  0  0  0  0  0  0  0
    3.6077    5.4640  -16.8676 H   0  0  0  0  0  0  0  0  0  0  0  0
    3.9662    6.1759  -18.2929 H   0  0  0  0  0  0  0  0  0  0  0  0
    3.3205    4.1636  -20.5939 H   0  0  0  0  0  0  0  0  0  0  0  0
  1  2  2  0  0  0  0
  1  3  1  0  0  0  0
  2  8  1  0  0  0  0
  3  9  2  0  0  0  0
  4  8  2  0  0  0  0
  4  9  1  0  0  0  0
  5 10  1  0  0  0  0
  5 11  2  0  0  0  0
  6 10  2  0  0  0  0
  6 12  1  0  0  0  0
  7 11  1  0  0  0  0
  7 12  2  0  0  0  0
  8 18  1  0  0  0  0
  9 27  1  0  0  0  0
 10 23  1  0  0  0  0
 11 32  1  0  0  0  0
 12 33  1  0  0  0  0
 13 19  1  0  0  0  0
 13 28  1  0  0  0  0
 13 30  2  0  0  0  0
 14 15  1  0  0  0  0
 14 16  1  0  0  0  0
 15 17  1  0  0  0  0
 16 18  1  0  0  0  0
 17 18  1  0  0  0  0
 18 29  1  0  0  0  0
 20 27  1  0  0  0  0
 21 27  1  0  0  0  0
 22 27  1  0  0  0  0
 23 25  1  0  0  0  0
 24 26  1  0  0  0  0
 24 29  1  0  0  0  0
 25 26  1  0  0  0  0
 25 28  1  0  0  0  0
 26 31  1  0  0  0  0
  1 34  1  0  0  0  0
  2 35  1  0  0  0  0
  3 36  1  0  0  0  0
  4 37  1  0  0  0  0
  5 38  1  0  0  0  0
  6 39  1  0  0  0  0
  7 40  1  0  0  0  0
 14 41  1  0  0  0  0
 14 42  1  0  0  0  0
 15 43  1  0  0  0  0
 15 44  1  0  0  0  0
 16 45  1  0  0  0  0
 16 46  1  0  0  0  0
 17 47  1  0  0  0  0
 17 48  1  0  0  0  0
 19 49  1  0  0  0  0
 19 50  1  0  0  0  0
 19 51  1  0  0  0  0
 20 52  1  0  0  0  0
 20 53  1  0  0  0  0
 20 54  1  0  0  0  0
 21 55  1  0  0  0  0
 21 56  1  0  0  0  0
 21 57  1  0  0  0  0
 22 58  1  0  0  0  0
 22 59  1  0  0  0  0
 22 60  1  0  0  0  0
 23 61  1  0  0  0  0
 23 62  1  0  0  0  0
 24 63  1  0  0  0  0
 24 64  1  0  0  0  0
 25 65  1  0  0  0  0
 26 66  1  0  0  0  0
 28 67  1  0  0  0  0
 29 68  1  0  0  0  0
 29 69  1  0  0  0  0
 31 70  1  0  0  0  0
M  CHG  1  29   1
M  END
> <OMEGA_C>
Km4JQQo080AOj5PBchr1QPGP40A0GIzB424CQa4DBEEn5JzBiv26QMH2+0AkjZfBNF7MQBjHUj+E
n6zBBkKTQCQ3I78/KqbBch3VQPSPzL/gSa3BXKTIQGsH6EBGAI7B8I/YQInFBkEO5Z7BtWujQGZA
KD/CB6jBEU7lQPalm77KKq/BAAOsQHO84b+C1qjBN8TZQLgltz/UfpDBQcC/QIbi6kAI7GjBgQGk
QEDDB0GKBnLBUzS3QOvlw0B5SnfBDw6KQIzG+0BRKYLBijamQCPn1kA5O4bBDGfiQMGCxz6n1ofB
JaO6QOBOAEF3P7HB2LLqQIwpIEE7c67BgvegQF5KIEGbsKbBtQOKQFJy7j9ve6TBP4uiQFgvkUDM
Ko/BvASjQHzrKEAu15vBuLSHQFkncUC2QZfBHCLIQODCEUHyKqnBO5KvQPK53D9xH5PBFzCLQCml
t0Bn1YvB/r/3QMuOA0B2YpTBwgF2QNmblECntJ/B4HQGQR+NE77pU7PBjnicQH0/QMD4AafBiVka
QeUy70DKHZLBuxQAQfUV1ECF4YTBjwMOQYH0CUEJk6LBtC6ZQHnR/UBwSJnBKIjYQKdb6D97Lq7B
qMZnQH/aQ7+Sr6LBDTfoQB+vHcCtQq/BsdPhQNGk80BvdWnBU3u2QFXd40BbT1jBboCOQHAPDkGW
mGXB8G+4QPzAFEHqE3jBUefUQGPWsUD3EHrBASufQPC+rkCN+m/B2FVWQIik70ABdH7BsHWEQJmy
CUHOiIjBLnoCQRqIsD5PMobBGjzRQIslKz+2fIDBCjzXQHJgGL+6lorBtNiuQDDpB0HmnbjBU1zW
QCRK7EDcI7PBNRmhQA7g7EDzvK3BRHbdQFaYJ0FFtbXB/Hb0QMK5LEGiyqjBeVQDQYRdFkEYl7DB
FtuVQPTtJ0F9Ha7BqwKHQCCHFkFQTKPBVFOqQBuxLEGB5qDBmE+EQEFGIUDuZKvB4FZWQPwhxD8F
K6HBcbyoQMuyeUAyJ4jBlyHBQOB+mkAT2ZLBz9e/QDKgREBmhJ/Bmx1XQDPOVUBBOpPB+VmYQA4f
pT+Q2o7BQuVmQHvZrkDT8IbBwtZ9QPmgxUDLV5LBYINUQAY8hUBVwKTB0lsJQYCB8UClv5PBL+70
QCi44kBNLYzBlmQCQSVCA0FCEJ3Bt+q6QB7E+0BLk5fBdd+TQOEYJb+vBqbBUqjMQPt1Uj/wkazB
5FXVQMCkzL8Nb63BRn/IQNTd50DDBI7B44nYQOZ/BkHj8p7B3vOjQMz0Jj8F26fBlXisQNBg4r/c
3KjBwWXlQB4em74MTK/BBAHaQNYNvT+ZG5DBEWy+QC4T7EBuuWjBNz+kQGZ8CEGCq3LBoJG2QDjX
xEAmDnfBQueJQA6c/ED3ToLB8+ilQNBV10DFNYbBkZPiQHjbsz6NJ4jB3n28QCqiAEH5hLHBH4Dq
QBgIIUHd+a3BoRagQE2uH0FitqbBJGeKQPin7T/cUaTBvXaiQNqVkUDDHo/BuE+jQPRoKUCAvpvB
WsuHQECccUAjNpfBA0fIQHjREUFpJKnB0d+vQEUH3z8i+JLBC+CKQBLXt0BluovBWyj4QFHtAEAX
sJTBTCF2QDSxlEAhr5/Bl+OcQCe5QMBqKafB/kIGQRLLDr4hubPB3EEaQUKy7EDsZpLBmfH/QPZl
00A28ITBZPoNQXnlCEEt0qLBnBuZQLnc/UDUSZnBHWNpQPqjRr8Yc6LBtsvYQNRh6D8LFa7BN1ro
QFuYHcCLgq/BQ6ngQD479EA1gGjBqXezQP+f5UDsT1jBIg6PQFSyD0Gdm2bBtLi5QILSFEEyLHnB
6YDUQPcGs0AzlnnBv42eQL+Or0Ap0m/BxCVWQDvU8EBUf37BfC2EQIvXCUFLzIjBL50CQatqLT4T
oYfBh0fWQDM2Iz+9O4DBlmTSQNegEL9H3YrBItSwQFB2CEF817jBcfbYQPz97UDZZ7PBn0qjQKtk
7EC/Rq7BkJDdQPK4KEFbM7XB8fPyQIxeLUEUEajBqp0DQQLHF0EaFbDB1jmVQPiJJ0GAGq7BhGOG
QOtlFUH6l6PBSjqoQHvoK0EHuKDBDG+EQDV2IEDeQavBO2FXQE7Vwj9/9KDBLOeoQMRtekBdIIjB
cu7AQOIxm0Cg0JLBtRTAQOAjRUDecZ/BOVFXQCokVkCVMJPBwp+YQApcpT+20Y7BJONmQFrYrkDy
w4bBXlx8QIKxxUAlNJLBUdlUQEkzhUCuuqTB

> <OMEGA_E>
QEozPQDYOD0=

> <OMEGA_NBR>
    162074

$$$$
50212896
  -OEChem-04172616093D

 74 76  0     1  0  0  0  0  0999 V2000
    8.5928    7.5974  -18.4829 C   0  0  0  0  0  0  0  0  0  0  0  0
    7.6662    7.0551  -17.5763 C   0  0  0  0  0  0  0  0  0  0  0  0
    8.1494    8.3047  -19.6130 C   0  0  0  0  0  0  0  0  0  0  0  0
    5.8459    7.8826  -18.9592 C   0  0  0  0  0  0  0  0  0  0  0  0
    4.5822   -0.6614  -20.7209 C   0  0  0  0  0  0  0  0  0  0  0  0
    6.3463    0.8061  -21.5628 C   0  0  0  0  0  0  0  0  0  0  0  0
    6.6471   -1.6110  -21.6048 C   0  0  0  0  0  0  0  0  0  0  0  0
    6.2744    7.2203  -17.7895 C   0  0  0  0  0  0  0  0  0  0  0  0
    6.7634    8.4745  -19.8528 C   0  0  0  0  0  0  0  0  0  0  0  0
    5.0712    0.6321  -20.9828 C   0  0  0  0  0  0  0  0  0  0  0  0
    5.3654   -1.7823  -21.0425 C   0  0  0  0  0  0  0  0  0  0  0  0
    7.1390   -0.3150  -21.8599 C   0  0  0  0  0  0  0  0  0  0  0  0
    6.7859    1.4953  -17.9867 C   0  0  0  0  0  0  0  0  0  0  0  0
    4.8548    8.8144  -15.5226 C   0  0  0  0  0  0  0  0  0  0  0  0
    6.3497    7.0038  -14.5397 C   0  0  0  0  0  0  0  0  0  0  0  0
    4.1965    7.7768  -16.4235 C   0  0  0  0  0  0  0  0  0  0  0  0
    5.7671    5.9854  -15.5348 C   0  0  0  0  0  0  0  0  0  0  0  0
    5.3466    8.1288  -14.2403 C   0  0  1  0  0  0  0  0  0  0  0  0
    5.2002    6.6648  -16.8226 C   0  0  2  0  0  0  0  0  0  0  0  0
    7.0724    0.3997  -16.9637 C   0  0  0  0  0  0  0  0  0  0  0  0
    5.8644    8.1176  -22.1603 C   0  0  0  0  0  0  0  0  0  0  0  0
    7.2931   10.1497  -21.7242 C   0  0  0  0  0  0  0  0  0  0  0  0
    4.9797   10.0443  -20.7830 C   0  0  0  0  0  0  0  0  0  0  0  0
    4.2743    1.8303  -20.5493 C   0  0  0  0  0  0  0  0  0  0  0  0
    5.1054    4.5023  -17.9546 C   0  0  0  0  0  0  0  0  0  0  0  0
    5.0738    2.6055  -19.4895 C   0  0  1  0  0  0  0  0  0  0  0  0
    4.2390    3.7443  -18.9354 C   0  0  2  0  0  0  0  0  0  0  0  0
    6.2379    9.1898  -21.1122 C   0  0  0  0  0  0  0  0  0  0  0  0
    5.4698    1.7033  -18.3869 N   0  0  0  0  0  0  0  0  0  0  0  0
    4.3783    5.6913  -17.5387 N   0  3  0  0  0  0  0  0  0  0  0  0
    7.7220    2.0646  -18.5384 O   0  0  0  0  0  0  0  0  0  0  0  0
    5.9860    9.0962  -13.4275 O   0  0  0  0  0  0  0  0  0  0  0  0
    3.8471    4.6145  -19.9991 O   0  0  0  0  0  0  0  0  0  0  0  0
    4.8885   -3.0230  -20.8014 F   0  0  0  0  0  0  0  0  0  0  0  0
    8.3741   -0.1459  -22.3825 F   0  0  0  0  0  0  0  0  0  0  0  0
    9.6512    7.4697  -18.3101 H   0  0  0  0  0  0  0  0  0  0  0  0
    8.0162    6.5096  -16.7124 H   0  0  0  0  0  0  0  0  0  0  0  0
    8.8689    8.7211  -20.3025 H   0  0  0  0  0  0  0  0  0  0  0  0
    4.7893    7.9379  -19.1759 H   0  0  0  0  0  0  0  0  0  0  0  0
    3.6077   -0.7918  -20.2741 H   0  0  0  0  0  0  0  0  0  0  0  0
    6.7119    1.7993  -21.7777 H   0  0  0  0  0  0  0  0  0  0  0  0
    7.2526   -2.4737  -21.8402 H   0  0  0  0  0  0  0  0  0  0  0  0
    5.7079    9.2692  -16.0472 H   0  0  0  0  0  0  0  0  0  0  0  0
    4.1239    9.5952  -15.2653 H   0  0  0  0  0  0  0  0  0  0  0  0
    6.5982    6.4862  -13.6015 H   0  0  0  0  0  0  0  0  0  0  0  0
    7.2624    7.4426  -14.9692 H   0  0  0  0  0  0  0  0  0  0  0  0
    3.3504    7.3214  -15.8881 H   0  0  0  0  0  0  0  0  0  0  0  0
    3.8298    8.2731  -17.3342 H   0  0  0  0  0  0  0  0  0  0  0  0
    6.5619    5.2833  -15.8269 H   0  0  0  0  0  0  0  0  0  0  0  0
    4.9542    5.4339  -15.0398 H   0  0  0  0  0  0  0  0  0  0  0  0
    4.4809    7.6991  -13.7150 H   0  0  0  0  0  0  0  0  0  0  0  0
    8.1597    0.2687  -16.8608 H   0  0  0  0  0  0  0  0  0  0  0  0
    6.6440    0.6849  -15.9916 H   0  0  0  0  0  0  0  0  0  0  0  0
    6.6198   -0.5443  -17.3012 H   0  0  0  0  0  0  0  0  0  0  0  0
    5.4861    8.6086  -23.0691 H   0  0  0  0  0  0  0  0  0  0  0  0
    6.7552    7.5223  -22.4091 H   0  0  0  0  0  0  0  0  0  0  0  0
    5.0859    7.4583  -21.7489 H   0  0  0  0  0  0  0  0  0  0  0  0
    6.8735   10.6352  -22.6175 H   0  0  0  0  0  0  0  0  0  0  0  0
    7.5644   10.9164  -20.9835 H   0  0  0  0  0  0  0  0  0  0  0  0
    8.1898    9.5777  -22.0049 H   0  0  0  0  0  0  0  0  0  0  0  0
    4.6253   10.5433  -21.6971 H   0  0  0  0  0  0  0  0  0  0  0  0
    4.1859    9.3919  -20.3904 H   0  0  0  0  0  0  0  0  0  0  0  0
    5.2382   10.8020  -20.0286 H   0  0  0  0  0  0  0  0  0  0  0  0
    4.0840    2.4801  -21.4161 H   0  0  0  0  0  0  0  0  0  0  0  0
    3.3163    1.5008  -20.1207 H   0  0  0  0  0  0  0  0  0  0  0  0
    5.3197    3.8706  -17.0799 H   0  0  0  0  0  0  0  0  0  0  0  0
    6.0502    4.7924  -18.4376 H   0  0  0  0  0  0  0  0  0  0  0  0
    5.9751    3.0216  -19.9633 H   0  0  0  0  0  0  0  0  0  0  0  0
    3.3585    3.3385  -18.4158 H   0  0  0  0  0  0  0  0  0  0  0  0
    4.7476    1.2129  -17.8991 H   0  0  0  0  0  0  0  0  0  0  0  0
    3.6293    5.4092  -16.9391 H   0  0  0  0  0  0  0  0  0  0  0  0
    4.0042    6.1334  -18.3539 H   0  0  0  0  0  0  0  0  0  0  0  0
    6.2959    8.6849  -12.6291 H   0  0  0  0  0  0  0  0  0  0  0  0
    3.3030    4.1376  -20.6148 H   0  0  0  0  0  0  0  0  0  0  0  0
  1  2  1  0  0  0  0
  1  3  2  0  0  0  0
  2  8  2  0  0  0  0
  3  9  1  0  0  0  0
  4  8  1  0  0  0  0
  4  9  2  0  0  0  0
  5 10  1  0  0  0  0
  5 11  2  0  0  0  0
  6 10  2  0  0  0  0
  6 12  1  0  0  0  0
  7 11  1  0  0  0  0
  7 12  2  0  0  0  0
  8 19  1  0  0  0  0
  9 28  1  0  0  0  0
 10 24  1  0  0  0  0
 11 34  1  0  0  0  0
 12 35  1  0  0  0  0
 13 20  1  0  0  0  0
 13 29  1  0  0  0  0
 13 31  2  0  0  0  0
 14 16  1  0  0  0  0
 14 18  1  0  0  0  0
 15 17  1  0  0  0  0
 15 18  1  0  0  0  0
 16 19  1  0  0  0  0
 17 19  1  0  0  0  0
 18 32  1  0  0  0  0
 19 30  1  0  0  0  0
 21 28  1  0  0  0  0
 22 28  1  0  0  0  0
 23 28  1  0  0  0  0
 24 26  1  0  0  0  0
 25 27  1  0  0  0  0
 25 30  1  0  0  0  0
 26 27  1  0  0  0  0
 26 29  1  0  0  0  0
 27 33  1  0  0  0  0
  1 36  1  0  0  0  0
  2 37  1  0  0  0  0
  3 38  1  0  0  0  0
  4 39  1  0  0  0  0
  5 40  1  0  0  0  0
  6 41  1  0  0  0  0
  7 42  1  0  0  0  0
 14 43  1  0  0  0  0
 14 44  1  0  0  0  0
 15 45  1  0  0  0  0
 15 46  1  0  0  0  0
 16 47  1  0  0  0  0
 16 48  1  0  0  0  0
 17 49  1  0  0  0  0
 17 50  1  0  0  0  0
 18 51  1  0  0  0  0
 20 52  1  0  0  0  0
 20 53  1  0  0  0  0
 20 54  1  0  0  0  0
 21 55  1  0  0  0  0
 21 56  1  0  0  0  0
 21 57  1  0  0  0  0
 22 58  1  0  0  0  0
 22 59  1  0  0  0  0
 22 60  1  0  0  0  0
 23 61  1  0  0  0  0
 23 62  1  0  0  0  0
 23 63  1  0  0  0  0
 24 64  1  0  0  0  0
 24 65  1  0  0  0  0
 25 66  1  0  0  0  0
 25 67  1  0  0  0  0
 26 68  1  0  0  0  0
 27 69  1  0  0  0  0
 29 70  1  0  0  0  0
 30 71  1  0  0  0  0
 30 72  1  0  0  0  0
 32 73  1  0  0  0  0
 33 74  1  0  0  0  0
M  CHG  1  30   1
M  END
> <OMEGA_C>
BXwJQYUd80Di3JPBi1H1QIzD4UA2nIzBJGQCQR3gBEFs55zBpRG7QEQ+/EBbrJfBuaGSQMBRKb98
xKXBRBXLQNdaTj+LgKzBVbXUQK0zzr+V1qzBBcjIQLkM50DQUI7Bb23YQLuXB0GP0p7Bg0eiQNLQ
IT/S3KfBtbGrQM8h5L8QV6jBYHLkQG5Hob4S4a7BXSbZQGxlvz/S5I/BPVqbQLEHDUFtXHjB8TDL
QFIf4EC+omjB10mGQJ7b+EBtY4PBb4y4QLGIv0BtjnjBpBerQJQPAkE32GPBYmimQOJF1UDGlIbB
YFHiQNyrzD7BtYfB4qi7QL/hAUFkSLHBeGHpQCNlIkEQy63BT1mfQKi1IEGmQ6bBUceIQFBG6j/f
ZKTByF+jQCYTkEAJo4/B81yiQLS/JkBp6pvBRKaHQHiib0DJe5fBfJzHQIgJE0Gx5ajBcwivQO0F
2j9LGJPBshqMQOYetkBGT4zBSxr3QBEjBECwTpTBm42/QDaKEUHm1lbBXzd2QOGpk0BA/p/Bam6c
QEF5QcAuaabBMfwFQeJjFb5gD7PBT2saQQsI70D+epLBYUIAQWxO0EAAs4XBDucNQcmJC0F0a6LB
IkKZQP0C/kBFaJnB5+RmQGq0Sr9GMaLBE8jWQK1Q5j+nOK7BbRXoQHFRHsC6uK7BIKe2QMJOFEG5
YIDB9vaDQOWFGUHWPnTBEiTTQNCOz0Chn1nB6mXoQHIp7kDsgW/BgG1WQO9I6kB4NX7B9Bp1QG9e
BEFjrIrB4PrRQHUQqUAOO33BNYmeQELirUAao3DBq2OPQCtf9kC+cFvBTo4CQbeUiT4B44bBdpvU
QIxWLz+F3X/BR9XTQG1XC7/daIrBPo6vQM68CUGNjbjB7irYQFy28EDpRbPB0r+iQEGq7kC5/a3B
zPPbQPMpKkG68LTBfg/yQMGpLkFG3qfBWwkDQRc+GUEMCrDBaQKUQGqxKEGZk63BuPKFQApFFkF/
H6PBX5+nQNDULEGNOqDBN7CCQCu6HkA/VKvB8z5UQDAZwD8g96DBmjqqQLO4d0Cso4jBPZvBQF1b
mUA7gJPBTTS/QIxhQUDStJ/BVPJWQMupVUCMU5PBV+yXQPs+mz9ZMY/BukZoQCIYrUBLg4fBCyKA
QJpExEDb1JLB5nfJQHP1CkH+EErB/mNTQKBnhEAa66TBXqQJQfGX8kCwx5PBhoT1QN1/4UD1g4zB
eZ4CQeKgBEFW1ZzB3XS7QGxE/EAjmJfBJgzLQEvhSz9JiazB9wqTQFloLb/JqKXBugvVQLNTz7+i
1qzBcQTJQGcL50B7O47Bp+rYQKiBB0GPvp7Bg26iQJ9XHj+szafBRn/kQPDmpL4k8q7ByTisQLXd
5b8OP6jByajZQA2PwT+Y/I/BbACcQKfoDEGf3XfB7yrLQHIb30A+bWjBsrOGQKQ0+UBwRoPBM1W4
QLAQv0BUkXjBclarQNycAUEdc2PBknKmQBxg1UC7iobB4yzjQMHT1D6y1YfBapq9QC/JAUEbVLHB
ELnpQIW9IkHfgK3BuDafQNokIEEwWKbBVsaIQBVo6D/3VqTBOiujQF2MkED8x4/B+VGiQPrkJkDG
8ZvBLViHQP+Yb0BNhJfBIULIQKbwEkEd1qjBkGqvQB+/2z+lF5PByvaLQEmTtkCJX4zBGGr3QME3
BUCae5TBrvW/QKjUEEFqMlbBQUd0QO49k0BZCqDBge8FQQxDGL75M7PBqFudQPd1QsBSMabBMpAa
QVNK7kDYZZLBk0wAQYUN0EA6l4XBxSsOQSotC0G9XKLB3aiZQDw3/kA9VZnB84rWQIM15T9xTa7B
ze1nQE27T78TCaLBDn/oQHW6HsAyvq7BG4e3QGUlFEEEDoDBeNeEQOh4GUHepHPB7evSQFMczkCQ
glnBmIPoQJkV7UBMLm/B87lWQOe/6kDkJH7BSqB2QFDLBEFfhorBlJvRQEiAqEDpVn3BlCSeQMxx
rUB8x3DB1XCPQIB99UCFM1vBMwADQa5akT5QHIfBrtLVQJFPMz+CBIDB64zUQJ8hB7+df4rBsp+x
QI+dCUFenrjBhaXaQCw18UC1PLPBbPSkQCLW7UDpLK7BE37cQAWCKkGErLTBP3TxQJj6LkFde6fB
y3kDQdnuGUEaqa/B3BOUQDAcKEFVrq3BQAqGQJxjFUHHW6PBgoOmQHVDLEHYOqDBJlSCQKNJHUA8
TavBFplUQKmovT/V1qDBnI6qQOH7eEAMyojBrx3BQLX8mUA1wpPBDPO+QATbQUB2zJ/BL/xWQPlB
VUCtQpPB43uYQPiRnT+rFo/BVdJnQEh2rUAynYfByx6AQLoLxUB73ZLB1Z/JQKkKCkEefEnBrllR
QHmmg0B446TB

> <OMEGA_E>
oJFJPrClSz4=

> <OMEGA_NBR>
    164740

$$$$
50212899
  -OEChem-04172616093D

 72 74  0     1  0  0  0  0  0999 V2000
    8.5708    7.5412  -18.4805 C   0  0  0  0  0  0  0  0  0  0  0  0
    7.6444    7.0404  -17.5499 C   0  0  0  0  0  0  0  0  0  0  0  0
    8.1296    8.2272  -19.6251 C   0  0  0  0  0  0  0  0  0  0  0  0
    5.8253    7.8720  -18.9346 C   0  0  0  0  0  0  0  0  0  0  0  0
    4.5904   -0.6711  -20.7007 C   0  0  0  0  0  0  0  0  0  0  0  0
    6.3529    0.7924  -21.5514 C   0  0  0  0  0  0  0  0  0  0  0  0
    6.6507   -1.6258  -21.5920 C   0  0  0  0  0  0  0  0  0  0  0  0
    6.2547    7.2260  -17.7532 C   0  0  0  0  0  0  0  0  0  0  0  0
    6.7449    8.4186  -19.8576 C   0  0  0  0  0  0  0  0  0  0  0  0
    5.0795    0.6230  -20.9651 C   0  0  0  0  0  0  0  0  0  0  0  0
    5.3718   -1.7944  -21.0233 C   0  0  0  0  0  0  0  0  0  0  0  0
    7.1422   -0.3311  -21.8524 C   0  0  0  0  0  0  0  0  0  0  0  0
    5.3992    8.1095  -14.2303 C   0  0  0  0  0  0  0  0  0  0  0  0
    6.8013    1.5228  -18.0157 C   0  0  0  0  0  0  0  0  0  0  0  0
    4.8326    8.8301  -15.4469 C   0  0  0  0  0  0  0  0  0  0  0  0
    6.3472    6.9381  -14.4623 C   0  0  0  0  0  0  0  0  0  0  0  0
    4.1844    7.7931  -16.3616 C   0  0  0  0  0  0  0  0  0  0  0  0
    5.7477    5.9655  -15.4975 C   0  0  0  0  0  0  0  0  0  0  0  0
    5.1840    6.6770  -16.7788 C   0  0  0  0  0  0  0  0  0  0  0  0
    7.0965    0.4393  -16.9833 C   0  0  0  0  0  0  0  0  0  0  0  0
    5.8441    8.0093  -22.1625 C   0  0  0  0  0  0  0  0  0  0  0  0
    7.2884   10.0377  -21.7786 C   0  0  0  0  0  0  0  0  0  0  0  0
    4.9734    9.9768  -20.8381 C   0  0  0  0  0  0  0  0  0  0  0  0
    4.2776    1.8273  -20.5429 C   0  0  0  0  0  0  0  0  0  0  0  0
    5.0873    4.5275  -17.9524 C   0  0  0  0  0  0  0  0  0  0  0  0
    5.0739    2.6294  -19.4989 C   0  0  1  0  0  0  0  0  0  0  0  0
    4.2361    3.7763  -18.9561 C   0  0  2  0  0  0  0  0  0  0  0  0
    6.2251    9.1037  -21.1397 C   0  0  0  0  0  0  0  0  0  0  0  0
    5.4794    1.7462  -18.3858 N   0  0  0  0  0  0  0  0  0  0  0  0
    4.3563    5.7099  -17.5098 N   0  3  0  0  0  0  0  0  0  0  0  0
    5.4190    8.6878  -13.1528 O   0  0  0  0  0  0  0  0  0  0  0  0
    7.7318    2.0618  -18.6059 O   0  0  0  0  0  0  0  0  0  0  0  0
    3.8757    4.6528  -20.0248 O   0  0  0  0  0  0  0  0  0  0  0  0
    4.8960   -3.0352  -20.7783 F   0  0  0  0  0  0  0  0  0  0  0  0
    8.3740   -0.1657  -22.3842 F   0  0  0  0  0  0  0  0  0  0  0  0
    9.6284    7.3979  -18.3151 H   0  0  0  0  0  0  0  0  0  0  0  0
    7.9936    6.5115  -16.6755 H   0  0  0  0  0  0  0  0  0  0  0  0
    8.8504    8.6109  -20.3319 H   0  0  0  0  0  0  0  0  0  0  0  0
    4.7673    7.9499  -19.1370 H   0  0  0  0  0  0  0  0  0  0  0  0
    3.6169   -0.8002  -20.2511 H   0  0  0  0  0  0  0  0  0  0  0  0
    6.7201    1.7846  -21.7683 H   0  0  0  0  0  0  0  0  0  0  0  0
    7.2543   -2.4897  -21.8284 H   0  0  0  0  0  0  0  0  0  0  0  0
    4.0798    9.5652  -15.1262 H   0  0  0  0  0  0  0  0  0  0  0  0
    5.6425    9.3452  -15.9843 H   0  0  0  0  0  0  0  0  0  0  0  0
    7.3098    7.3179  -14.8353 H   0  0  0  0  0  0  0  0  0  0  0  0
    6.5062    6.4058  -13.5129 H   0  0  0  0  0  0  0  0  0  0  0  0
    3.3382    7.3316  -15.8315 H   0  0  0  0  0  0  0  0  0  0  0  0
    3.8181    8.2983  -17.2674 H   0  0  0  0  0  0  0  0  0  0  0  0
    6.5335    5.2614  -15.8085 H   0  0  0  0  0  0  0  0  0  0  0  0
    4.9271    5.4110  -15.0187 H   0  0  0  0  0  0  0  0  0  0  0  0
    8.1834    0.2864  -16.9120 H   0  0  0  0  0  0  0  0  0  0  0  0
    6.7050    0.7502  -16.0035 H   0  0  0  0  0  0  0  0  0  0  0  0
    6.6135   -0.5003  -17.2898 H   0  0  0  0  0  0  0  0  0  0  0  0
    5.4712    8.4813  -23.0834 H   0  0  0  0  0  0  0  0  0  0  0  0
    6.7304    7.4008  -22.3954 H   0  0  0  0  0  0  0  0  0  0  0  0
    5.0597    7.3666  -21.7364 H   0  0  0  0  0  0  0  0  0  0  0  0
    6.8728   10.5009  -22.6856 H   0  0  0  0  0  0  0  0  0  0  0  0
    7.5656   10.8230  -21.0599 H   0  0  0  0  0  0  0  0  0  0  0  0
    8.1806    9.4508  -22.0425 H   0  0  0  0  0  0  0  0  0  0  0  0
    4.6247   10.4521  -21.7668 H   0  0  0  0  0  0  0  0  0  0  0  0
    4.1737    9.3420  -20.4286 H   0  0  0  0  0  0  0  0  0  0  0  0
    5.2363   10.7537  -20.1051 H   0  0  0  0  0  0  0  0  0  0  0  0
    4.0784    2.4615  -21.4193 H   0  0  0  0  0  0  0  0  0  0  0  0
    3.3242    1.4982  -20.1040 H   0  0  0  0  0  0  0  0  0  0  0  0
    5.3002    3.8796  -17.0893 H   0  0  0  0  0  0  0  0  0  0  0  0
    6.0331    4.8324  -18.4241 H   0  0  0  0  0  0  0  0  0  0  0  0
    5.9709    3.0427  -19.9831 H   0  0  0  0  0  0  0  0  0  0  0  0
    3.3412    3.3761  -18.4571 H   0  0  0  0  0  0  0  0  0  0  0  0
    4.7609    1.2817  -17.8680 H   0  0  0  0  0  0  0  0  0  0  0  0
    3.6122    5.4148  -16.9104 H   0  0  0  0  0  0  0  0  0  0  0  0
    3.9755    6.1651  -18.3146 H   0  0  0  0  0  0  0  0  0  0  0  0
    3.3419    4.1824  -20.6544 H   0  0  0  0  0  0  0  0  0  0  0  0
  1  2  2  0  0  0  0
  1  3  1  0  0  0  0
  2  8  1  0  0  0  0
  3  9  2  0  0  0  0
  4  8  2  0  0  0  0
  4  9  1  0  0  0  0
  5 10  1  0  0  0  0
  5 11  2  0  0  0  0
  6 10  2  0  0  0  0
  6 12  1  0  0  0  0
  7 11  1  0  0  0  0
  7 12  2  0  0  0  0
  8 19  1  0  0  0  0
  9 28  1  0  0  0  0
 10 24  1  0  0  0  0
 11 34  1  0  0  0  0
 12 35  1  0  0  0  0
 13 15  1  0  0  0  0
 13 16  1  0  0  0  0
 13 31  2  0  0  0  0
 14 20  1  0  0  0  0
 14 29  1  0  0  0  0
 14 32  2  0  0  0  0
 15 17  1  0  0  0  0
 16 18  1  0  0  0  0
 17 19  1  0  0  0  0
 18 19  1  0  0  0  0
 19 30  1  0  0  0  0
 21 28  1  0  0  0  0
 22 28  1  0  0  0  0
 23 28  1  0  0  0  0
 24 26  1  0  0  0  0
 25 27  1  0  0  0  0
 25 30  1  0  0  0  0
 26 27  1  0  0  0  0
 26 29  1  0  0  0  0
 27 33  1  0  0  0  0
  1 36  1  0  0  0  0
  2 37  1  0  0  0  0
  3 38  1  0  0  0  0
  4 39  1  0  0  0  0
  5 40  1  0  0  0  0
  6 41  1  0  0  0  0
  7 42  1  0  0  0  0
 15 43  1  0  0  0  0
 15 44  1  0  0  0  0
 16 45  1  0  0  0  0
 16 46  1  0  0  0  0
 17 47  1  0  0  0  0
 17 48  1  0  0  0  0
 18 49  1  0  0  0  0
 18 50  1  0  0  0  0
 20 51  1  0  0  0  0
 20 52  1  0  0  0  0
 20 53  1  0  0  0  0
 21 54  1  0  0  0  0
 21 55  1  0  0  0  0
 21 56  1  0  0  0  0
 22 57  1  0  0  0  0
 22 58  1  0  0  0  0
 22 59  1  0  0  0  0
 23 60  1  0  0  0  0
 23 61  1  0  0  0  0
 23 62  1  0  0  0  0
 24 63  1  0  0  0  0
 24 64  1  0  0  0  0
 25 65  1  0  0  0  0
 25 66  1  0  0  0  0
 26 67  1  0  0  0  0
 27 68  1  0  0  0  0
 29 69  1  0  0  0  0
 30 70  1  0  0  0  0
 30 71  1  0  0  0  0
 33 72  1  0  0  0  0
M  CHG  1  30   1
M  END
> <OMEGA_C>
2yEJQURR8UAb2JPBqZ70QDVL4UA/ZozBtxICQbCiA0FKAJ3Bs2i6QLLn+0D5eZfBX+SSQMTNK78U
m6XBwkrLQATaSj8yaazBlNLUQLIa0L9zvKzB5CbIQIM750B8Bo7BadbXQJGyBkFM3J7BpouiQP15
Hz+buKfBvuWrQJOv5b+hL6jB54zkQPp/qb620a7BJMasQIrAAUF9r2PBhKTZQD3swj85IJDB56Sa
QBhIDUFsJnfBXBzLQAAF3kB4ZWfBquaFQN1g+UCG5ILB5uy3QAHlvkC19XfBf+OlQFiq1UAGO4bB
QRbjQPjm4D7m3YfB+gK7QD4mAEG0TLHBzTrpQDiaIEF6Oq7BuiWfQP6gH0FZtKbBaeKIQI3m6T/X
V6TBNsuiQIrhkEB6no/BI12iQNVHKEDR/ZvB4I2HQFKvcUACppfBFTTHQNyoEUExHqnB8lavQNaC
3z8JFpPBwWaLQGe3tkD8E4zBlWitQGYBC0G5cVLBiGr3QAz1A0Di2JTBswp4QMTjlEC9MqDBGayc
QFFAQsDpOabBFPwFQTysKb7UErPBzA0aQdO77EBbhZLBdsv/QC9e0EBcZ4XBQpsNQVLGCUHSp6LB
i42YQJtl/kB+GJnB/XtnQOHYTL8+AqLBQQvXQFRt5D+KJa7B2yLoQPdWH8B9oK7Bfo2CQBQLGUH4
BHLBGY+0QB+GFUGUv3/BxunpQJgs6kCJXW3B4jLQQAb8zEDMNFjBQKVVQNqc6kCjTX3BIVt0QM3F
BEGvI4rBgBLRQAVdqEBr73zBw6qdQOYmrUCYTHDBaO8CQYOckj7SS4fBNo/WQO0KQD8yB4DBmqHT
QCUUAL+SUYrBqhOvQD+zB0HaqrjBO1/XQJTT7EC/KbPBAemhQBO760AQ5K3BUu7bQJcDKEEVfLXB
XRnyQAkrLUHGeqjBi+MCQVQ2F0EUV7DBff2TQMw7J0FgIq7BS4+FQN94FUHJbaPBKZCnQCQPLEEv
16DB9YGCQHuJHUDCWqvBRL9UQD3Gvz8R1aDB+pqpQLdKeED9tojBLg/BQOyimkCVZJPByBG/QDW8
QkBv3Z/BItZVQMcRWEALqJPBgVmYQLUOpD+b8Y7B2S1nQClGrUCFSIfBXW5+QIpIxUBLhJLBfuJV
QH3WhUAvPKXBiH0JQfHl8UAOuZPB6BX1QDnB4UDCW4zBqJUCQbL8A0HX45zB/j+7QLx9/EBKipfB
WxrMQA1dTj+Di6zBbyqTQOInJ7/U9KXBwBfVQN6Zzr9wBa3BHK3IQIiy50DxE47Boe3YQH8PB0HQ
1p7ByiqjQCK5Iz9a9KfB0ijlQHgcpL6R/q7BjAOsQJio47+0jKjBSUGsQJfqAUGx7mPB9tnZQDTH
wD9SGpDBJW+aQD9yDUEleHfB4avKQPdd3kAtg2fBovyFQPqu+UC/GIPBZdW3QDtCv0D9K3jBdymm
QJcJ1kBYX4bBD/HiQEtq0z4y5YfBEyO9QIKxAEH5Y7HBxsnqQLBDIUHrCK7BxFWgQIPwH0H0xqbB
0KaJQA7z6z8hh6TBk3ujQPorkUDOwo/BNteiQMkKKECi/5vBoqSHQFgdcECycpfBy63IQIwfEkFK
G6nBPLSvQL1t3D+JOJPB+/SLQL4Nt0CZR4zBjJCsQPgnC0GMrlLB9sz3QBGeBECJi5TBsDtzQAlv
k0BC5Z/BmVgGQYW0I76JMbPBLIOcQHcfQcAfqKbBtGMaQRpQ7UBwVJLBqwIAQfW70EB8WoXBjTYO
QYMqCkENfKLBmXOZQKX3/kAHPJnBPibYQNwb5j8cLK7BMrhnQNZpR78ccKLBlEToQAe6HsDB767B
FTqCQBIxGUFNcHLBpXm0QPq0FUEx9H/BxpTpQFmL6kBIVG3BwXnPQIBQzUDaTVjBZZpVQK/b6kDZ
0n3B2e50QFXrBEGHXYrBTBjRQILCqECiCX3BUXOdQI56rUAkpHDB4twCQTHTjj5/E4fB3UjVQCvK
Mz8/H4DBmVvUQCTiB7+rkYrB/nqxQC9QCEGyxLjB27fZQJYn7kC6MrPB5f+jQG2O7ECXGa7Bq8zd
QI3AKEGBTrXBhinzQF/DLUEkNKjBG8oDQUcBGEGAFbDBfXqVQHOdJ0FyN67BDLOGQHipFUEQn6PB
BUuoQNtPLEHY16DB1M+DQDVuH0AmfavBHL9VQCv6wT+aKKHB4FirQJtgekDUyYjBVS3BQP3xmkBE
zpPBPoq/QGaiQ0DAv5/BRF9YQB7wVEA+HZPBt6WYQJkWnj+iRY/Bz+hnQPeerUAdi4fBWgeAQGmZ
xUBgwJLBe1VQQCypg0DMtaTB

> <OMEGA_E>
AI38PUBxAD4=

> <OMEGA_NBR>
    167343

$$$$
50212922
  -OEChem-04172616093D

 76 78  0     1  0  0  0  0  0999 V2000
    8.6244    7.6493  -18.3844 C   0  0  0  0  0  0  0  0  0  0  0  0
    7.6742    7.1151  -17.4951 C   0  0  0  0  0  0  0  0  0  0  0  0
    8.2077    8.3450  -19.5351 C   0  0  0  0  0  0  0  0  0  0  0  0
    5.8920    7.9088  -18.9472 C   0  0  0  0  0  0  0  0  0  0  0  0
    6.2746    0.7662  -21.5314 C   0  0  0  0  0  0  0  0  0  0  0  0
    4.5462   -0.7023  -20.6187 C   0  0  0  0  0  0  0  0  0  0  0  0
    6.6098   -1.6450  -21.5119 C   0  0  0  0  0  0  0  0  0  0  0  0
    6.2898    7.2529  -17.7701 C   0  0  0  0  0  0  0  0  0  0  0  0
    6.8262    8.5106  -19.8088 C   0  0  0  0  0  0  0  0  0  0  0  0
    5.0137    0.5888  -20.9234 C   0  0  0  0  0  0  0  0  0  0  0  0
    7.0788   -0.3494  -21.8097 C   0  0  0  0  0  0  0  0  0  0  0  0
    5.3402   -1.8194  -20.9224 C   0  0  0  0  0  0  0  0  0  0  0  0
    7.0252    9.4773  -13.3644 C   0  0  0  0  0  0  0  0  0  0  0  0
    6.8666    1.5550  -18.0248 C   0  0  0  0  0  0  0  0  0  0  0  0
    4.8098    8.7451  -15.4665 C   0  0  0  0  0  0  0  0  0  0  0  0
    4.1756    7.7820  -16.4531 C   0  0  0  0  0  0  0  0  0  0  0  0
    5.7471    5.9490  -15.6133 C   0  0  0  0  0  0  0  0  0  0  0  0
    5.2797    7.9164  -14.2575 C   0  0  2  0  0  0  0  0  0  0  0  0
    5.1883    6.6781  -16.8616 C   0  0  2  0  0  0  0  0  0  0  0  0
    7.2246    0.5216  -16.9598 C   0  0  0  0  0  0  0  0  0  0  0  0
    5.9649    8.1552  -22.1274 C   0  0  0  0  0  0  0  0  0  0  0  0
    7.3662   10.2020  -21.6572 C   0  0  0  0  0  0  0  0  0  0  0  0
    5.0400   10.0664  -20.7529 C   0  0  0  0  0  0  0  0  0  0  0  0
    4.2210    1.7838  -20.4887 C   0  0  0  0  0  0  0  0  0  0  0  0
    5.0982    4.4968  -17.9639 C   0  0  0  0  0  0  0  0  0  0  0  0
    5.0565    2.5831  -19.4805 C   0  0  1  0  0  0  0  0  0  0  0  0
    4.2186    3.7121  -18.9088 C   0  0  2  0  0  0  0  0  0  0  0  0
    6.3137    9.2271  -21.0700 C   0  0  0  0  0  0  0  0  0  0  0  0
    5.8388    8.7671  -13.2221 N   0  0  0  0  0  0  0  0  0  0  0  0
    5.5297    1.7029  -18.3864 N   0  0  0  0  0  0  0  0  0  0  0  0
    4.3870    5.7174  -17.6081 N   0  0  0  0  0  0  0  0  0  0  0  0
    6.2767    6.9036  -14.6471 N   0  3  0  0  0  0  0  0  0  0  0  0
    7.6645    9.4876  -14.4110 O   0  0  0  0  0  0  0  0  0  0  0  0
    7.7639    2.1290  -18.6332 O   0  0  0  0  0  0  0  0  0  0  0  0
    3.7684    4.5603  -19.9687 O   0  0  0  0  0  0  0  0  0  0  0  0
    8.3047   -0.1734  -22.3508 F   0  0  0  0  0  0  0  0  0  0  0  0
    4.8886   -3.0584  -20.6302 F   0  0  0  0  0  0  0  0  0  0  0  0
    9.6783    7.5251  -18.1834 H   0  0  0  0  0  0  0  0  0  0  0  0
    7.9989    6.6001  -16.6031 H   0  0  0  0  0  0  0  0  0  0  0  0
    8.9430    8.7542  -20.2120 H   0  0  0  0  0  0  0  0  0  0  0  0
    4.8420    7.9518  -19.1967 H   0  0  0  0  0  0  0  0  0  0  0  0
    6.6199    1.7584  -21.7820 H   0  0  0  0  0  0  0  0  0  0  0  0
    3.5806   -0.8336  -20.1532 H   0  0  0  0  0  0  0  0  0  0  0  0
    7.2233   -2.5053  -21.7354 H   0  0  0  0  0  0  0  0  0  0  0  0
    7.3979   10.0410  -12.5220 H   0  0  0  0  0  0  0  0  0  0  0  0
    5.6681    9.2511  -15.9328 H   0  0  0  0  0  0  0  0  0  0  0  0
    4.0722    9.4952  -15.1452 H   0  0  0  0  0  0  0  0  0  0  0  0
    3.2967    7.3127  -15.9871 H   0  0  0  0  0  0  0  0  0  0  0  0
    3.8628    8.3364  -17.3503 H   0  0  0  0  0  0  0  0  0  0  0  0
    4.9387    5.3706  -15.1422 H   0  0  0  0  0  0  0  0  0  0  0  0
    6.5523    5.2674  -15.9248 H   0  0  0  0  0  0  0  0  0  0  0  0
    4.4000    7.3974  -13.8491 H   0  0  0  0  0  0  0  0  0  0  0  0
    8.3186    0.4341  -16.8861 H   0  0  0  0  0  0  0  0  0  0  0  0
    6.8160    0.8390  -15.9891 H   0  0  0  0  0  0  0  0  0  0  0  0
    6.7968   -0.4533  -17.2366 H   0  0  0  0  0  0  0  0  0  0  0  0
    5.5954    8.6461  -23.0398 H   0  0  0  0  0  0  0  0  0  0  0  0
    6.8645    7.5686  -22.3653 H   0  0  0  0  0  0  0  0  0  0  0  0
    5.1865    7.4875  -21.7295 H   0  0  0  0  0  0  0  0  0  0  0  0
    6.9557   10.6887  -22.5542 H   0  0  0  0  0  0  0  0  0  0  0  0
    7.6161   10.9667  -20.9071 H   0  0  0  0  0  0  0  0  0  0  0  0
    8.2740    9.6423  -21.9268 H   0  0  0  0  0  0  0  0  0  0  0  0
    4.6934   10.5679  -21.6685 H   0  0  0  0  0  0  0  0  0  0  0  0
    4.2478    9.4024  -20.3765 H   0  0  0  0  0  0  0  0  0  0  0  0
    5.2791   10.8213  -19.9895 H   0  0  0  0  0  0  0  0  0  0  0  0
    3.9906    2.4132  -21.3609 H   0  0  0  0  0  0  0  0  0  0  0  0
    3.2838    1.4551  -20.0158 H   0  0  0  0  0  0  0  0  0  0  0  0
    5.2998    3.9036  -17.0598 H   0  0  0  0  0  0  0  0  0  0  0  0
    6.0487    4.7473  -18.4577 H   0  0  0  0  0  0  0  0  0  0  0  0
    5.9235    3.0128  -20.0036 H   0  0  0  0  0  0  0  0  0  0  0  0
    3.3652    3.2926  -18.3559 H   0  0  0  0  0  0  0  0  0  0  0  0
    5.3423    8.8465  -12.3578 H   0  0  0  0  0  0  0  0  0  0  0  0
    4.8460    1.1820  -17.8753 H   0  0  0  0  0  0  0  0  0  0  0  0
    3.5955    5.4681  -17.0501 H   0  0  0  0  0  0  0  0  0  0  0  0
    6.5664    6.4062  -13.8293 H   0  0  0  0  0  0  0  0  0  0  0  0
    7.0649    7.3672  -15.0519 H   0  0  0  0  0  0  0  0  0  0  0  0
    3.2159    4.0628  -20.5601 H   0  0  0  0  0  0  0  0  0  0  0  0
  1  2  2  0  0  0  0
  1  3  1  0  0  0  0
  2  8  1  0  0  0  0
  3  9  2  0  0  0  0
  4  8  2  0  0  0  0
  4  9  1  0  0  0  0
  5 10  1  0  0  0  0
  5 11  2  0  0  0  0
  6 10  2  0  0  0  0
  6 12  1  0  0  0  0
  7 11  1  0  0  0  0
  7 12  2  0  0  0  0
  8 19  1  0  0  0  0
  9 28  1  0  0  0  0
 10 24  1  0  0  0  0
 11 36  1  0  0  0  0
 12 37  1  0  0  0  0
 13 29  1  0  0  0  0
 13 33  2  0  0  0  0
 14 20  1  0  0  0  0
 14 30  1  0  0  0  0
 14 34  2  0  0  0  0
 15 16  1  0  0  0  0
 15 18  1  0  0  0  0
 16 19  1  0  0  0  0
 17 19  1  0  0  0  0
 17 32  1  0  0  0  0
 18 29  1  0  0  0  0
 18 32  1  0  0  0  0
 19 31  1  0  0  0  0
 21 28  1  0  0  0  0
 22 28  1  0  0  0  0
 23 28  1  0  0  0  0
 24 26  1  0  0  0  0
 25 27  1  0  0  0  0
 25 31  1  0  0  0  0
 26 27  1  0  0  0  0
 26 30  1  0  0  0  0
 27 35  1  0  0  0  0
  1 38  1  0  0  0  0
  2 39  1  0  0  0  0
  3 40  1  0  0  0  0
  4 41  1  0  0  0  0
  5 42  1  0  0  0  0
  6 43  1  0  0  0  0
  7 44  1  0  0  0  0
 13 45  1  0  0  0  0
 15 46  1  0  0  0  0
 15 47  1  0  0  0  0
 16 48  1  0  0  0  0
 16 49  1  0  0  0  0
 17 50  1  0  0  0  0
 17 51  1  0  0  0  0
 18 52  1  0  0  0  0
 20 53  1  0  0  0  0
 20 54  1  0  0  0  0
 20 55  1  0  0  0  0
 21 56  1  0  0  0  0
 21 57  1  0  0  0  0
 21 58  1  0  0  0  0
 22 59  1  0  0  0  0
 22 60  1  0  0  0  0
 22 61  1  0  0  0  0
 23 62  1  0  0  0  0
 23 63  1  0  0  0  0
 23 64  1  0  0  0  0
 24 65  1  0  0  0  0
 24 66  1  0  0  0  0
 25 67  1  0  0  0  0
 25 68  1  0  0  0  0
 26 69  1  0  0  0  0
 27 70  1  0  0  0  0
 29 71  1  0  0  0  0
 30 72  1  0  0  0  0
 31 73  1  0  0  0  0
 32 74  1  0  0  0  0
 32 75  1  0  0  0  0
 35 76  1  0  0  0  0
M  CHG  1  32   1
M  END
> <OMEGA_C>
rP0JQd3G9EA3E5PByZL1QOuu40AO9ovBplIDQQCFBUHLR5zB74q8QMAU/UD3k5fB2snIQMEnRD9h
QKzBvXqRQIDHM78s86TBMoPTQPGP0r9sGKzB7EXJQBQY6EBBKY7BoHDaQI4rCEGEeJ7BUHCgQHK4
Fj8gY6fBgYXiQP3msr5Teq7B7uKqQDni6L8eYafBYs7gQP2iF0GF1FXB7brbQJ8Lxz/GMpDBHOqZ
QOzrC0HPdnfBwp6FQCgG+UAFoIPB5ue3QHZevkA30HnBf/OoQPxS/UDEHmTBigamQO6y1UB65IbB
1S/nQCqFBT+trYfBb+C+QKR7AkHUBLHBx7frQDM7I0HzQa3BS0ehQNIPIUH4BabBxhKHQAJT5D/k
6KPBIySjQAbmj0Ahto/B9M6hQI1RJUAC2JvB6/6GQGuTbUAgRZfBMgrKQB2iE0FSj6jBr9e6QOpF
DEHXjVPBh/OwQHT32T9DF5PBRGKMQEb1tkBx3YzB0NrIQAHq3ECDWmrBPEP1QATNF0FTk2bBPnL4
QHxBCEC1EJXB9i1xQNrtkUDfv5/BJOAEQSmYMb6DzrLBGm+cQBG9Q8CwCqXBNNoaQYfN8ECWd5HB
Fff/QO8z00Ax04TBkhYPQQIRDEEusqHB+PGaQAV1/kDKkpnBa9bTQDoT4T+JQa7B6ChlQOhlVb+y
OaHBUCXnQCtWIMAo4q3Bc7vsQB6oIEHuWUjBwWC1QI0EFEGP7H7BT0+CQEfsF0GuUnLB+fxSQG0B
6kAfy3/BaDh3QLlhBUFWzYrB/gmeQMjbq0BiRnLBXazRQIuOqEDHy37BGM2MQFm37ED2lV3BGhkF
QUVF3j6/FofB7xzaQHDFVj8u03/BRH/ZQFYX6L6S5InBvw2zQEdWCkF9UbjBNKrbQEIy8kAq7LLB
w/elQMKZ70D21a3B15TeQNMEK0H4brTBfbfzQL13L0HGQafBPmIEQfBGGkEtaq/BaTCWQFAWKUEd
Wa3BTO6HQC9wFkEOA6PBV+6oQC0kLUF16p/BUWV/QC9xGkAy46rBlypSQCNBuj9eIKDBPJipQC/U
eUCNeojBmY7BQCnql0BdqZPBR429QB3SQEBoB6DBn15XQDK6UkD12JLB6POqQDyLDUFouUXBDhKb
QABNlz+XAI/BTBxmQBP7rkCuZojBth/SQL3/zEDwRF3BUBPiQATA60Ck1HDB99FNQA0CgkD9eqTB

> <OMEGA_E>
1A27Pg==

> <OMEGA_NBR>
    168902

$$$$
50212920
  -OEChem-04172616093D

 75 77  0     1  0  0  0  0  0999 V2000
    8.6027    7.6896  -18.4486 C   0  0  0  0  0  0  0  0  0  0  0  0
    7.6797    7.1202  -17.5556 C   0  0  0  0  0  0  0  0  0  0  0  0
    8.1532    8.3871  -19.5825 C   0  0  0  0  0  0  0  0  0  0  0  0
    5.8542    7.8899  -18.9662 C   0  0  0  0  0  0  0  0  0  0  0  0
    6.3136    0.8053  -21.5249 C   0  0  0  0  0  0  0  0  0  0  0  0
    4.5756   -0.6746  -20.6494 C   0  0  0  0  0  0  0  0  0  0  0  0
    6.6522   -1.6054  -21.5251 C   0  0  0  0  0  0  0  0  0  0  0  0
    6.2863    7.2238  -17.8045 C   0  0  0  0  0  0  0  0  0  0  0  0
    6.7652    8.5201  -19.8363 C   0  0  0  0  0  0  0  0  0  0  0  0
    5.0447    0.6201  -20.9357 C   0  0  0  0  0  0  0  0  0  0  0  0
    7.1231   -0.3064  -21.8039 C   0  0  0  0  0  0  0  0  0  0  0  0
    5.3755   -1.7875  -20.9539 C   0  0  0  0  0  0  0  0  0  0  0  0
    6.7785    1.5249  -17.9513 C   0  0  0  0  0  0  0  0  0  0  0  0
    4.8570    8.7010  -15.4735 C   0  0  0  0  0  0  0  0  0  0  0  0
    4.2030    7.7252  -16.4298 C   0  0  0  0  0  0  0  0  0  0  0  0
    5.8178    5.9088  -15.6226 C   0  0  0  0  0  0  0  0  0  0  0  0
    5.3908    7.8915  -14.2747 C   0  0  2  0  0  0  0  0  0  0  0  0
    5.2157    6.6324  -16.8625 C   0  0  2  0  0  0  0  0  0  0  0  0
    7.0670    0.4854  -16.8717 C   0  0  0  0  0  0  0  0  0  0  0  0
    7.2829   10.1699  -21.7339 C   0  0  0  0  0  0  0  0  0  0  0  0
    5.0004   10.1296  -20.7117 C   0  0  0  0  0  0  0  0  0  0  0  0
    5.7909    8.1736  -22.1101 C   0  0  0  0  0  0  0  0  0  0  0  0
    4.2414    1.8103  -20.5079 C   0  0  0  0  0  0  0  0  0  0  0  0
    5.0986    4.4912  -17.9766 C   0  0  0  0  0  0  0  0  0  0  0  0
    5.0535    2.5982  -19.4724 C   0  0  1  0  0  0  0  0  0  0  0  0
    4.2233    3.7432  -18.9416 C   0  0  2  0  0  0  0  0  0  0  0  0
    6.2245    9.2426  -21.0814 C   0  0  0  0  0  0  0  0  0  0  0  0
    6.0277    8.8023  -13.2539 C   0  0  0  0  0  0  0  0  0  0  0  0
    6.3881    6.8968  -14.7123 N   0  0  0  0  0  0  0  0  0  0  0  0
    5.4593    1.7202  -18.3511 N   0  0  0  0  0  0  0  0  0  0  0  0
    4.3886    5.6854  -17.5830 N   0  3  0  0  0  0  0  0  0  0  0  0
    7.7137    2.0498  -18.5468 O   0  0  0  0  0  0  0  0  0  0  0  0
    3.8433    4.6088  -20.0140 O   0  0  0  0  0  0  0  0  0  0  0  0
    8.3558   -0.1239  -22.3274 F   0  0  0  0  0  0  0  0  0  0  0  0
    4.9220   -3.0304  -20.6814 F   0  0  0  0  0  0  0  0  0  0  0  0
    6.5411    8.0353  -12.2574 F   0  0  0  0  0  0  0  0  0  0  0  0
    5.0666    9.6197  -12.7555 F   0  0  0  0  0  0  0  0  0  0  0  0
    7.0194    9.5346  -13.8300 F   0  0  0  0  0  0  0  0  0  0  0  0
    9.6620    7.5907  -18.2629 H   0  0  0  0  0  0  0  0  0  0  0  0
    8.0319    6.6016  -16.6761 H   0  0  0  0  0  0  0  0  0  0  0  0
    8.8686    8.8238  -20.2637 H   0  0  0  0  0  0  0  0  0  0  0  0
    4.7993    7.9186  -19.1961 H   0  0  0  0  0  0  0  0  0  0  0  0
    6.6608    1.8005  -21.7605 H   0  0  0  0  0  0  0  0  0  0  0  0
    3.6044   -0.8120  -20.1974 H   0  0  0  0  0  0  0  0  0  0  0  0
    7.2699   -2.4625  -21.7491 H   0  0  0  0  0  0  0  0  0  0  0  0
    5.6872    9.2192  -15.9758 H   0  0  0  0  0  0  0  0  0  0  0  0
    4.1188    9.4398  -15.1284 H   0  0  0  0  0  0  0  0  0  0  0  0
    3.3459    7.2485  -15.9317 H   0  0  0  0  0  0  0  0  0  0  0  0
    3.8538    8.2689  -17.3200 H   0  0  0  0  0  0  0  0  0  0  0  0
    5.0257    5.3476  -15.1052 H   0  0  0  0  0  0  0  0  0  0  0  0
    6.6053    5.2142  -15.9501 H   0  0  0  0  0  0  0  0  0  0  0  0
    4.5436    7.3711  -13.8041 H   0  0  0  0  0  0  0  0  0  0  0  0
    8.1541    0.3468  -16.7765 H   0  0  0  0  0  0  0  0  0  0  0  0
    6.6560    0.8304  -15.9115 H   0  0  0  0  0  0  0  0  0  0  0  0
    6.5985   -0.4706  -17.1487 H   0  0  0  0  0  0  0  0  0  0  0  0
    6.8469   10.6605  -22.6167 H   0  0  0  0  0  0  0  0  0  0  0  0
    7.5980   10.9340  -21.0081 H   0  0  0  0  0  0  0  0  0  0  0  0
    8.1547    9.5728  -22.0396 H   0  0  0  0  0  0  0  0  0  0  0  0
    4.6287   10.6371  -21.6140 H   0  0  0  0  0  0  0  0  0  0  0  0
    4.2035    9.4981  -20.2918 H   0  0  0  0  0  0  0  0  0  0  0  0
    5.3035   10.8807  -19.9673 H   0  0  0  0  0  0  0  0  0  0  0  0
    5.3997    8.6684  -23.0113 H   0  0  0  0  0  0  0  0  0  0  0  0
    6.6573    7.5520  -22.3801 H   0  0  0  0  0  0  0  0  0  0  0  0
    5.0070    7.5390  -21.6709 H   0  0  0  0  0  0  0  0  0  0  0  0
    4.0314    2.4488  -21.3787 H   0  0  0  0  0  0  0  0  0  0  0  0
    3.2934    1.4769  -20.0606 H   0  0  0  0  0  0  0  0  0  0  0  0
    5.3031    3.8676  -17.0939 H   0  0  0  0  0  0  0  0  0  0  0  0
    6.0478    4.7615  -18.4624 H   0  0  0  0  0  0  0  0  0  0  0  0
    5.9511    3.0036  -19.9623 H   0  0  0  0  0  0  0  0  0  0  0  0
    3.3383    3.3513  -18.4189 H   0  0  0  0  0  0  0  0  0  0  0  0
    6.7463    6.4240  -13.9071 H   0  0  0  0  0  0  0  0  0  0  0  0
    4.7412    1.2376  -17.8498 H   0  0  0  0  0  0  0  0  0  0  0  0
    3.6237    5.4208  -16.9956 H   0  0  0  0  0  0  0  0  0  0  0  0
    4.0379    6.1321  -18.4061 H   0  0  0  0  0  0  0  0  0  0  0  0
    3.2899    4.1346  -20.6234 H   0  0  0  0  0  0  0  0  0  0  0  0
  1  2  2  0  0  0  0
  1  3  1  0  0  0  0
  2  8  1  0  0  0  0
  3  9  2  0  0  0  0
  4  8  2  0  0  0  0
  4  9  1  0  0  0  0
  5 10  1  0  0  0  0
  5 11  2  0  0  0  0
  6 10  2  0  0  0  0
  6 12  1  0  0  0  0
  7 11  1  0  0  0  0
  7 12  2  0  0  0  0
  8 18  1  0  0  0  0
  9 27  1  0  0  0  0
 10 23  1  0  0  0  0
 11 34  1  0  0  0  0
 12 35  1  0  0  0  0
 13 19  1  0  0  0  0
 13 30  1  0  0  0  0
 13 32  2  0  0  0  0
 14 15  1  0  0  0  0
 14 17  1  0  0  0  0
 15 18  1  0  0  0  0
 16 18  1  0  0  0  0
 16 29  1  0  0  0  0
 17 28  1  0  0  0  0
 17 29  1  0  0  0  0
 18 31  1  0  0  0  0
 20 27  1  0  0  0  0
 21 27  1  0  0  0  0
 22 27  1  0  0  0  0
 23 25  1  0  0  0  0
 24 26  1  0  0  0  0
 24 31  1  0  0  0  0
 25 26  1  0  0  0  0
 25 30  1  0  0  0  0
 26 33  1  0  0  0  0
 28 36  1  0  0  0  0
 28 37  1  0  0  0  0
 28 38  1  0  0  0  0
  1 39  1  0  0  0  0
  2 40  1  0  0  0  0
  3 41  1  0  0  0  0
  4 42  1  0  0  0  0
  5 43  1  0  0  0  0
  6 44  1  0  0  0  0
  7 45  1  0  0  0  0
 14 46  1  0  0  0  0
 14 47  1  0  0  0  0
 15 48  1  0  0  0  0
 15 49  1  0  0  0  0
 16 50  1  0  0  0  0
 16 51  1  0  0  0  0
 17 52  1  0  0  0  0
 19 53  1  0  0  0  0
 19 54  1  0  0  0  0
 19 55  1  0  0  0  0
 20 56  1  0  0  0  0
 20 57  1  0  0  0  0
 20 58  1  0  0  0  0
 21 59  1  0  0  0  0
 21 60  1  0  0  0  0
 21 61  1  0  0  0  0
 22 62  1  0  0  0  0
 22 63  1  0  0  0  0
 22 64  1  0  0  0  0
 23 65  1  0  0  0  0
 23 66  1  0  0  0  0
 24 67  1  0  0  0  0
 24 68  1  0  0  0  0
 25 69  1  0  0  0  0
 26 70  1  0  0  0  0
 29 71  1  0  0  0  0
 30 72  1  0  0  0  0
 31 73  1  0  0  0  0
 31 74  1  0  0  0  0
 33 75  1  0  0  0  0
M  CHG  1  31   1
M  END
> <OMEGA_C>
pKQJQeMQ9kDClpPBW8D1QMTY40DOcYzBinMCQZ0xBkEHqZzBPlW7QCZ6/EC8upfBoAjKQH4qTj/q
MqzBXGuSQMqvLL8KMqXBCd/UQOp9zb9iM6zBdinJQHsp50CEb47BXnzYQIJSCEHVsJ7BbW6hQEvB
Hj9RfKfBY/DjQKLfnL5Xbq7BzgOsQGXN5L+eoafBPunYQOouwz9anI/BUWybQCw3C0GIk3fBJn+G
QBY190BHcIPBHSu6QEEVvUBf9nnBH4GsQAuH/EAuZWTBZOemQGg81EB55obBtCTiQOt/+D46+YbB
Lw3pQOK3IkEY363B5AKgQP4SIkF2saXBvU65QOHGAkF54bDBSrmHQCm45z9HEKTB7iejQCS4j0Ac
0I/BFrahQGxIJkBvx5vBqiWHQBGRb0BViJfBty7HQIzhE0HNpqjBtuLAQDTWDEH3D1TBY2vMQIiy
3EBvZWvB8LKuQDAv3D/0zpLBh2+MQIzutUDqqYzBedb2QMAvA0DCX5TBIvh1QJ57k0CjHKDBMrEF
QbrH/b1snrLBKYGdQE/xQcB4c6XBfVDRQLOQAEFmHkTB1CGiQDTqGUGxFkzBIJ/gQKWNGEHYR13B
j5caQS3n8kBbGpLBvIIAQVtA00C2aIXBrOUNQVQuDUH/G6LB1pOZQHJl/UCKkZnBSyXVQNF15j+A
Fa7B2K5mQEncT79MlKHBX6PoQLaZHcBC/q3BSf21QKuBE0HAnH/B0MyDQJEJF0HsDXLB5iNWQPPz
50AR6H7Bx6R2QFlNBEFyj4rB0NKgQK8fq0AOr3HB7V7TQLrapkBuM3/BAWWRQNXf60Cl3VzBCHcC
QeSOsT5NNobB7f3UQAmWVD9klX7B8SbTQDTu8L6ZMInB1RnbQJmRKkHq7rTB4SLzQKXxLkGYEKjB
l3kCQVYqGUEjUbDBHB6UQK4xKkGO6azBWoOGQE34F0GhVaLBD7apQE8XLkEQvZ/BhcqsQPWxCkEN
F7jBwQjVQOKp8UB1CrPBQzmgQEc/8UAYXq3B0gCBQIS4HECmB6vBmcZSQHEKvT8XfKDBpLKpQGOG
d0A3wIjBxIfBQHdemEDwspPBD2++QC06QEDIsp/BdqdVQHN8VkDgWZPBd+HXQLGRzUCqg17BkLeX
QNZonj9QzI7BAutnQIx3rUAO94fBiDaBQNA5xECZP5PBMY1SQL9OhECq/KTBDsUJQfb19UDZr5PB
Th32QPOE40Bai4zB4YACQVEzBkHCupzBJ427QJAE/EB4y5fB6+nJQHODTD+8U6zBVdqRQOxqKr9U
V6XBUjTUQMOkzr+DPqzBHX/JQBG25kCGg47BnI7YQP46CEEPvp7B2SqhQK/PHz+XqqfBgp3jQA6j
o74mfq7BHzerQMaC5L9LuKfBP5bYQADUxD+VkI/Bz6KbQOUBC0F5uHfBPtGGQCW49kCRgIPB4KO6
QMu7vEABEnrBYMGsQEUv/EAYh2TBNkynQC3K00By9IbBlgHiQJZV8z5VH4fB3ai5QJTFAkHc+bDB
bYjoQMz/IkH3za3B/3yfQLS7IUHiraXBGbWHQBUE6T9GRqTBuVijQDs4j0Da1Y/BLbKhQM3/JUDS
6JvBmjiHQGgJb0CvkpfBswrHQFDVE0GDq6jBLwnBQN62DEF6NVTBfcfMQPBw3ECBhGvBaZKuQFiQ
2T/2B5PB5b+MQNB4tUAerozBumb2QNsDCEBk4pPBfvB1QCF8k0CmF6DBTJUFQRQrF77TpbLBk1Sc
QFJ9QcDAhqXBBqXRQO97AEFQSETBkC+iQIe3GUErM0zBO6DgQJ+AGEHgdV3B0LoaQfbg8kDeOJLB
FL8AQdDa0kCth4XB2uYNQcNNDUF9KqLBE8uZQHK3/EANo5nBWkrVQDc45T8BOa7BrmplQHVcS7+E
vaHB6M7nQIaCHsDr/K3BYyu2QC9TE0GZwX/BZPKDQN7NFkFAN3LBN9VWQO9r50BOCH/BfDx3QCEI
BEEuoYrBSVyhQC6yqkDPyHHBx+vTQGCWpkA2TX/B46+RQIF260C6/1zBjGgCQUvowz45DIbBfyzT
QEOGRD8T/H7Bpc7UQN0o+76DvYnBWgGtQNm5CkEMKbjBbqbVQP4R8kAhKbPBes2gQH/Q8EBFhK3B
3m7aQEDdKkH+17TB+zLyQEEzL0HV8KfBqV0CQZiwGUH3RLDBfnOTQCDjKUG036zBITiGQP1qF0F+
X6LBW9WoQB64LUF7rJ/BO3aBQBW8HUAZPKvBCUJSQJdqvz+jxqDBQsapQCVYdkBlyIjB5sXBQA7F
l0CttZPBVHq+QPEjQEDnx5/Be+RVQKHBVUAlZJPBwErYQBZgzUD9oF7BGayXQA4Ulz+FS4/BPKlo
QNoQrUDL9IfBAnOBQBa8w0DCQpPB7V5SQPR3hEAn+6TB

> <OMEGA_E>
EE6PPtCrjz4=

> <OMEGA_NBR>
    171595

$$$$
50212928
  -OEChem-04172616093D

 71 73  0     1  0  0  0  0  0999 V2000
    8.5756    7.5834  -18.4476 C   0  0  0  0  0  0  0  0  0  0  0  0
    7.6420    7.1031  -17.5138 C   0  0  0  0  0  0  0  0  0  0  0  0
    8.1420    8.2321  -19.6164 C   0  0  0  0  0  0  0  0  0  0  0  0
    5.8307    7.8718  -18.9489 C   0  0  0  0  0  0  0  0  0  0  0  0
    6.3983    0.8068  -21.5770 C   0  0  0  0  0  0  0  0  0  0  0  0
    4.6128   -0.6505  -20.7641 C   0  0  0  0  0  0  0  0  0  0  0  0
    6.6823   -1.6141  -21.6239 C   0  0  0  0  0  0  0  0  0  0  0  0
    6.2530    7.2432  -17.7564 C   0  0  0  0  0  0  0  0  0  0  0  0
    6.7590    8.4197  -19.8631 C   0  0  0  0  0  0  0  0  0  0  0  0
    5.1135    0.6425  -21.0143 C   0  0  0  0  0  0  0  0  0  0  0  0
    7.1856   -0.3210  -21.8706 C   0  0  0  0  0  0  0  0  0  0  0  0
    5.3942   -1.7774  -21.0748 C   0  0  0  0  0  0  0  0  0  0  0  0
    5.6113    8.1508  -14.3255 C   0  0  0  0  0  0  0  0  0  0  0  0
    6.7925    1.4400  -18.0608 C   0  0  0  0  0  0  0  0  0  0  0  0
    4.8661    8.8420  -15.4715 C   0  0  0  0  0  0  0  0  0  0  0  0
    4.1854    7.7944  -16.3556 C   0  0  0  0  0  0  0  0  0  0  0  0
    5.7509    5.9895  -15.5187 C   0  0  0  0  0  0  0  0  0  0  0  0
    5.1804    6.6864  -16.7935 C   0  0  2  0  0  0  0  0  0  0  0  0
    7.0616    0.4160  -16.9627 C   0  0  0  0  0  0  0  0  0  0  0  0
    7.3225   10.0705  -21.7475 C   0  0  0  0  0  0  0  0  0  0  0  0
    4.9921    9.9782  -20.8527 C   0  0  0  0  0  0  0  0  0  0  0  0
    5.9018    8.0340  -22.1872 C   0  0  0  0  0  0  0  0  0  0  0  0
    4.3141    1.8495  -20.5892 C   0  0  0  0  0  0  0  0  0  0  0  0
    5.0805    4.5138  -17.9333 C   0  0  0  0  0  0  0  0  0  0  0  0
    5.0856    2.6245  -19.5038 C   0  0  1  0  0  0  0  0  0  0  0  0
    4.2306    3.7485  -18.9329 C   0  0  2  0  0  0  0  0  0  0  0  0
    6.2550    9.1172  -21.1440 C   0  0  0  0  0  0  0  0  0  0  0  0
    6.2678    6.9510  -14.5433 N   0  0  0  0  0  0  0  0  0  0  0  0
    5.4747    1.7121  -18.4102 N   0  0  0  0  0  0  0  0  0  0  0  0
    4.3558    5.7142  -17.5219 N   0  3  0  0  0  0  0  0  0  0  0  0
    5.7839    8.7446  -13.2708 O   0  0  0  0  0  0  0  0  0  0  0  0
    7.7280    2.0685  -18.5451 O   0  0  0  0  0  0  0  0  0  0  0  0
    3.8250    4.6239  -19.9861 O   0  0  0  0  0  0  0  0  0  0  0  0
    8.4285   -0.1620  -22.3785 F   0  0  0  0  0  0  0  0  0  0  0  0
    4.9134   -3.0163  -20.8290 F   0  0  0  0  0  0  0  0  0  0  0  0
    9.6323    7.4535  -18.2661 H   0  0  0  0  0  0  0  0  0  0  0  0
    7.9844    6.6253  -16.6077 H   0  0  0  0  0  0  0  0  0  0  0  0
    8.8676    8.5900  -20.3317 H   0  0  0  0  0  0  0  0  0  0  0  0
    4.7749    7.9350  -19.1670 H   0  0  0  0  0  0  0  0  0  0  0  0
    6.7760    1.7977  -21.7816 H   0  0  0  0  0  0  0  0  0  0  0  0
    3.6301   -0.7759  -20.3341 H   0  0  0  0  0  0  0  0  0  0  0  0
    7.2838   -2.4806  -21.8557 H   0  0  0  0  0  0  0  0  0  0  0  0
    4.1052    9.5190  -15.0561 H   0  0  0  0  0  0  0  0  0  0  0  0
    5.5810    9.4202  -16.0753 H   0  0  0  0  0  0  0  0  0  0  0  0
    3.3612    7.3325  -15.7924 H   0  0  0  0  0  0  0  0  0  0  0  0
    3.7845    8.2896  -17.2523 H   0  0  0  0  0  0  0  0  0  0  0  0
    4.9483    5.4039  -15.0467 H   0  0  0  0  0  0  0  0  0  0  0  0
    6.5677    5.3167  -15.8190 H   0  0  0  0  0  0  0  0  0  0  0  0
    8.1395    0.3853  -16.7454 H   0  0  0  0  0  0  0  0  0  0  0  0
    6.5123    0.7010  -16.0532 H   0  0  0  0  0  0  0  0  0  0  0  0
    6.7267   -0.5769  -17.2973 H   0  0  0  0  0  0  0  0  0  0  0  0
    6.9208   10.5438  -22.6556 H   0  0  0  0  0  0  0  0  0  0  0  0
    7.5780   10.8473  -21.0118 H   0  0  0  0  0  0  0  0  0  0  0  0
    8.2251    9.4957  -22.0023 H   0  0  0  0  0  0  0  0  0  0  0  0
    4.6556   10.4624  -21.7813 H   0  0  0  0  0  0  0  0  0  0  0  0
    4.1903    9.3331  -20.4643 H   0  0  0  0  0  0  0  0  0  0  0  0
    5.2375   10.7478  -20.1061 H   0  0  0  0  0  0  0  0  0  0  0  0
    5.5402    8.5150  -23.1080 H   0  0  0  0  0  0  0  0  0  0  0  0
    6.7975    7.4368  -22.4131 H   0  0  0  0  0  0  0  0  0  0  0  0
    5.1163    7.3784  -21.7833 H   0  0  0  0  0  0  0  0  0  0  0  0
    4.1485    2.5035  -21.4581 H   0  0  0  0  0  0  0  0  0  0  0  0
    3.3442    1.5228  -20.1861 H   0  0  0  0  0  0  0  0  0  0  0  0
    5.2777    3.8816  -17.0550 H   0  0  0  0  0  0  0  0  0  0  0  0
    6.0342    4.7995  -18.4010 H   0  0  0  0  0  0  0  0  0  0  0  0
    5.9884    3.0597  -19.9572 H   0  0  0  0  0  0  0  0  0  0  0  0
    3.3560    3.3206  -18.4210 H   0  0  0  0  0  0  0  0  0  0  0  0
    7.1003    6.7401  -14.0310 H   0  0  0  0  0  0  0  0  0  0  0  0
    4.7478    1.2635  -17.8903 H   0  0  0  0  0  0  0  0  0  0  0  0
    3.5985    5.4377  -16.9302 H   0  0  0  0  0  0  0  0  0  0  0  0
    3.9936    6.1595  -18.3407 H   0  0  0  0  0  0  0  0  0  0  0  0
    3.2936    4.1439  -20.6105 H   0  0  0  0  0  0  0  0  0  0  0  0
  1  2  2  0  0  0  0
  1  3  1  0  0  0  0
  2  8  1  0  0  0  0
  3  9  2  0  0  0  0
  4  8  2  0  0  0  0
  4  9  1  0  0  0  0
  5 10  1  0  0  0  0
  5 11  2  0  0  0  0
  6 10  2  0  0  0  0
  6 12  1  0  0  0  0
  7 11  1  0  0  0  0
  7 12  2  0  0  0  0
  8 18  1  0  0  0  0
  9 27  1  0  0  0  0
 10 23  1  0  0  0  0
 11 34  1  0  0  0  0
 12 35  1  0  0  0  0
 13 15  1  0  0  0  0
 13 28  1  0  0  0  0
 13 31  2  0  0  0  0
 14 19  1  0  0  0  0
 14 29  1  0  0  0  0
 14 32  2  0  0  0  0
 15 16  1  0  0  0  0
 16 18  1  0  0  0  0
 17 18  1  0  0  0  0
 17 28  1  0  0  0  0
 18 30  1  0  0  0  0
 20 27  1  0  0  0  0
 21 27  1  0  0  0  0
 22 27  1  0  0  0  0
 23 25  1  0  0  0  0
 24 26  1  0  0  0  0
 24 30  1  0  0  0  0
 25 26  1  0  0  0  0
 25 29  1  0  0  0  0
 26 33  1  0  0  0  0
  1 36  1  0  0  0  0
  2 37  1  0  0  0  0
  3 38  1  0  0  0  0
  4 39  1  0  0  0  0
  5 40  1  0  0  0  0
  6 41  1  0  0  0  0
  7 42  1  0  0  0  0
 15 43  1  0  0  0  0
 15 44  1  0  0  0  0
 16 45  1  0  0  0  0
 16 46  1  0  0  0  0
 17 47  1  0  0  0  0
 17 48  1  0  0  0  0
 19 49  1  0  0  0  0
 19 50  1  0  0  0  0
 19 51  1  0  0  0  0
 20 52  1  0  0  0  0
 20 53  1  0  0  0  0
 20 54  1  0  0  0  0
 21 55  1  0  0  0  0
 21 56  1  0  0  0  0
 21 57  1  0  0  0  0
 22 58  1  0  0  0  0
 22 59  1  0  0  0  0
 22 60  1  0  0  0  0
 23 61  1  0  0  0  0
 23 62  1  0  0  0  0
 24 63  1  0  0  0  0
 24 64  1  0  0  0  0
 25 65  1  0  0  0  0
 26 66  1  0  0  0  0
 28 67  1  0  0  0  0
 29 68  1  0  0  0  0
 30 69  1  0  0  0  0
 30 70  1  0  0  0  0
 33 71  1  0  0  0  0
M  CHG  1  30   1
M  END
> <OMEGA_C>
pTUJQYur8kCylJPBY4v0QFlM40AxHIzBiEUCQYa2A0F17pzBa5W6QHzl+0Bal5fB377MQEaJTj+j
nazBLpyTQD+KJr/IHKbBCNXVQOyazr+5/azBvxjIQCPI50AdDY7B80nYQDa3BkGK557B5aGjQHR6
JD9UHajBgfDlQI9fpL7/9q7Bop2sQF6D478emajBF5CzQMFpAkFZNWXBH1zZQIlTuD+bfJDBareb
QLx4DUEvi3fBBe+FQBNs+UA/2ILBbwe4QAGqv0BzTHjBu8WlQPH21UADWYbBpPjhQHID1T6Is4fB
6lHqQPggIUHq+q3Bq7+fQJ+mH0FT0qbBctu8QBOLAEF6f7HB/QyKQGi97D+wtqTBHpOiQLBwkEBn
d4/BLr2iQAH4J0CwB5zB12CHQOXmb0B8dpfBjyjIQAjgEUH2JqnBLJLIQEtu3kB2sWjBIDGvQN8l
2z8CSJPBsWKLQP3atkDXLIzB4RW5QLrpC0FSVVTBzEv3QK9hBEBiXJTB68x0QKf2k0Ci45/BCdsG
QcLsJb42B7PBbDqdQHcLQcDhoabByR0aQcaC7kD4IJLBI4D/QG0C1ECe3ITB5OENQbdwCUFop6LB
0suYQOPr/UD5VZnB8NTYQCIa5j/FQK7ByFJoQFSkRr9ArKLBBxXpQMXBHsCE2K7Bkl2DQMxNGEGc
5XDBZJeyQEK5FkFDmoDBhh1XQLSj6kCWrXzBsTVyQAuiBEHDBIrBNlieQGHsrEAfv3DBayrSQHUi
qkDUGn3BWzsCQZlKxT6J9oXBC2XQQKx0Mz/5bIDBRUHXQJ6tE7/fYIrBHXfdQE2zKEHAPrXBQn/y
QLKOLUEjGKjB95kDQZDuF0HFBLDBBfuUQPFlJ0EbQK7B0xaGQDJUFUHvtqPB3pmnQCf3K0FL2aDB
80ixQFQ9CEE+3bjBO4XZQOT57UAbTrPBaLijQH0b7EBIRK7Bz8CEQE05IEAeqqvBrAZWQFvqwj8v
faHB4+KoQOtreECWcIjBDxjBQLaVmUA+NZPByKC/QEPSQ0BJqJ/B3chWQC2EVEAcXpPBCzbjQH6u
10ATf2DByu2XQJe6oT9GH4/Bik5mQEcBrkAacYfBdJZ/QJcaxUDbuZLBccpSQOuahEA44qTBrT0J
QfPm8kB6ZpPBzID0QOaA40BJ9YvBkF4CQWfTA0GjxJzBMrm6QOj0+0DPgpfBwAyTQM6pJ791C6bB
ijvMQKm3TT9pgKzBZGLVQMjtzr9y36zBmxfIQPbn50Bv843BpILYQF/DBkGezJ7BoBejQJxkIz/A
A6jB6RCsQLX1478Ti6jBkn7lQAaJpb6F067BwGSyQI+WAkHVMWXBLdPZQI8JuT8PqZDBeOOaQPJ7
DUGZuHfBdHWFQD8k+UDZ44LB27a3QKbNv0AtHHjB8KelQO3q1UAtTobBYuLiQB7e3z6OyofBfNK+
QNg6AEGMhbHBMyXqQLt1IUFgya3BBSufQMvlHkGgAKfBR4GJQHkK7D/YmaTB99GiQByRkECof4/B
QZOiQG0bKEB/CJzBNWiHQPYgcEC+cpfBl4bIQEm1EUHtH6nBTp/HQGHH3kBEaWjBX4GvQD5V3D8k
SJPBD4GLQH/KtkB0LIzBobK2QI0JDEEnNFTB8Iz3QGKbBEChp5TBnal0QBwBlECn4Z/BY4KcQLhL
QcCHsKbBLKkGQVMmJ77y2bLBQiMaQZbF7kAX6pHBBFv/QIRC1EC0sYTBEQYOQSiZCUH+dKLBd/aY
QGXo/UD7SpnBdyhnQJH/R7/CnqLBE0jYQKq55T9oJa7BPrXoQAvjHsC3sa7BnGKCQPJbGEGcSXHB
n+qxQPGpFkErroDBck9WQNM+6kA2w3zBaipxQCVZBEEcGYrB7xCeQJPNrEDBsHDBtivSQJ+KqkBK
xnzB37cCQYpL1D7YHobBmX/RQHkmOz9wgoDB+z3YQHK+D79cWIrBhmCzQHHEB0Hz8LjBZiPcQBMp
7kCnMbPBTgumQAjI6kBmaK7BPmndQIHaKEFHHLXBSCXxQAX+LUFw3KfBxtkDQcOwGEE+sK/Bz5CU
QIR9JkFkfK7B8tyFQCo2FEEpBqTBgtOlQERRK0Fc/qDBTcmDQO+CH0CikKvBF1ZVQNcTwj/PQ6HB
g2+pQNOseEBQfYjBBS/BQAXdmUCvS5PB+UO/QKPYQ0BhxZ/BlvFWQHfvVEDAT5PBUPrhQHgq2EDj
9V/Bq3mYQAXwoz81/Y7BcpBmQLy/rUCxdYfBssd/QDUaxUCitpLBvWNSQKyfhEDq16TB31EJQZZH
9EA6dJPB2tD0QAxC5EDCDIzB/1gCQQN5BEE40ZzBgs66QHL2+0DnoZfBWJ+TQISOJL8oMabBU7XM
QNRyUj/dm6zBYQ/WQKR2zL/cBK3BclzIQNwT6ED4D47BX2TYQL74BkEf6J7BKpGjQI7lJj+dI6jB
BcOsQNUP4r9Or6jBKQ3mQBiomr6G9a7BxWSyQEKhAkEASmXB58rYQOfYvD9/ApDBUhCbQMaDDUE9
3nfBIMaFQEEt+UBH+oLBdDm4QE33v0DxQXjBlg+mQGEC1kC4YYbB8kDhQGC8vj6O2IfBlobqQHUw
IEFeiq7BTfGgQOeMIEGMs6bBlR+6QL1sAEEtOrHBRO6JQLdU7T+LsKTBNSqjQOSGkEC/gY/BDr+i
QKvGJ0Cd/ZvBk6iHQE4BcEDIbZfBTu7HQNfoEUGJManBA8/HQAH23kDLfGjBgdyuQNwt2j/dPZPB
beSLQOPMtkD4NYzB3I62QGIYDEFJTFTBiRX3QNcJAkAJYpTBjBF1QJDmk0Cs3Z/BY2WdQIVsQMAT
yKbB/uwGQYJODL7T/LLB7zwaQVux8EDp8JHBmtL/QO381EDJzYTBcPINQfWLCkGcdKLBXwmZQMp0
/UBJbpnBlEFoQPi5Rb/wyaLByLLYQGlJ6D+KOK7B7nTpQAGGHcCX2q7BIoCCQJ1kGEFcf3HBDS2y
QFGwFkE2u4DBN+tWQBk56kA3+HzBtNxxQERcBEHbMIrBALSeQPC1rECq5HDBVuHSQOXzqkCB63zB
CPsBQXj6ZD5z/YbBAZDTQN5gKT9lE4DB6lPSQLkjEL99lYrBkD3dQK2UJ0GvzbXB7Hn0QBvJLEGi
66jBNTADQQhRFkH8rrDBmMaVQLIoKEEXIa7BD/SGQPnfFkFfQ6PBaoSqQDb5LEEc8qDBOlCuQPT/
B0HymbjBuLTVQFZW7EBvH7PBT4agQDxP7UC3rK3Bp4yEQCrQIEDTm6vBgt1VQJgcwz8XdqHBNMip
QAK+eEALfIjBaobBQIa8mUCVUZPB7ci/QB4tQ0DgmJ/BX3lXQPn7VEDMRJPBmxjiQIlt2EDz91/B
pXmXQOX7mz8XaI/B4WFnQAXWrUAfe4fB6D+AQK8DxUC7wpLBPKxSQGCBhEDOz6TB7DYJQfsr80D8
cJPBSnr0QHNR40AVDozBVFMCQb8QBEEsxZzBeJ66QMzb+0BNk5fBcGvMQCtnTj+vl6zBvkiTQHvb
Jr+BGabB06DVQFSSzr+Z6azBuArIQPOb50BRCo7BuGjYQPvhBkHt0p7B5UejQBgKJD/QG6jB8rPl
QB4vpL6r5a7BP1SsQBSQ47+ykajByKm0QFncAkEgumXB9ErZQDk9wj+vA5DB+4mbQGptDUEX8XfB
Ia+FQCPK+EAv24LB6Oe3QPiNv0B1PXjBS7ClQJaU1UACW4bBLF3iQNzJ4j7Kp4fBmay+QDOqAEFg
lLHBeU7qQBW8IUF9t63BZ0ifQHM8H0Fs8qbBza+JQIZE7D/ZtaTBeLmiQPhPkEDyi4/BCZiiQOu3
J0CRE5zBsFiHQDOob0DGfpfBp4PIQEn+EUFXHanB+rXIQI6i3kAa1mjBRUOvQCDt2j9uU5PBu2KL
QJ9wtkACLIzBOC69QCpNDUFWvlXBBEn3QDtGBUB9cpTBAnF0QFzPk0Dc6Z/BYsMGQVt+JL6k7LLB
7N6cQAMQQcCDpKbB7h0aQdM570Cm8JHB3V7/QO3K00AM1YTB9vgNQUAECkGpaqLBjNyYQPOz/UA+
XpnBE3PYQP4N5j/xP67BVqZnQO4NR7/KqqLBT/foQFa3HsB9uK7BgxmDQAkcGEGOInHBoKKxQIvH
FkER+oDBw3hXQOTy6UA4a3zB6ohwQI0RBEHCB4rBmSeeQGohrUAhjXDBbuPRQLHEqUAZ93zBP5MC
QW/loz6wvIbBx1PUQN1JPj8i53/BTyXUQGZ8Ar9/P4rBx0uzQBdXCEFe+LjBrerbQKD27kA/SbPB
Rs6lQCOo60A6gq7BqqrdQCBCKUGGBLXBO2fxQEQrLkE0v6fBveQDQTbsGEF7pK/BSryUQMfyJkGZ
Z67BeeSFQGeQFEFrAKTB/QymQDKQK0Hv5aDB3zmEQLfiH0C3qavBnXNVQIVrwj/qcKHBj3SpQG4F
eEC4jojBgAfBQCG7mUCoWpPBfma/QI2DQ0BYwJ/BOd5WQF9aVEA8XJPBDAXjQMuO10CLcWDBuTWY
QDrVmT+ZjY/BOrFmQHxSrUCyaIfB+wd/QGC9xEA6r5LB2S9SQJxxhEBY4aTB

> <OMEGA_E>
QOZLPrAWTD4gjkw+cDtNPg==

> <OMEGA_NBR>
    176377

$$$$
50212933
  -OEChem-04172616093D

 71 73  0     1  0  0  0  0  0999 V2000
    8.5682    7.6130  -18.4447 C   0  0  0  0  0  0  0  0  0  0  0  0
    7.6418    7.1214  -17.5085 C   0  0  0  0  0  0  0  0  0  0  0  0
    8.1260    8.2596  -19.6122 C   0  0  0  0  0  0  0  0  0  0  0  0
    5.8206    7.8696  -18.9411 C   0  0  0  0  0  0  0  0  0  0  0  0
    4.5800   -0.6562  -20.7269 C   0  0  0  0  0  0  0  0  0  0  0  0
    6.3513    0.7966  -21.5782 C   0  0  0  0  0  0  0  0  0  0  0  0
    6.6405   -1.6231  -21.6033 C   0  0  0  0  0  0  0  0  0  0  0  0
    6.2505    7.2435  -17.7489 C   0  0  0  0  0  0  0  0  0  0  0  0
    6.7405    8.4282  -19.8585 C   0  0  0  0  0  0  0  0  0  0  0  0
    5.0752    0.6343  -20.9966 C   0  0  0  0  0  0  0  0  0  0  0  0
    5.3589   -1.7840  -21.0384 C   0  0  0  0  0  0  0  0  0  0  0  0
    7.1378   -0.3315  -21.8690 C   0  0  0  0  0  0  0  0  0  0  0  0
    6.2109    6.9658  -14.4564 C   0  0  0  0  0  0  0  0  0  0  0  0
    6.7933    1.4442  -18.0569 C   0  0  0  0  0  0  0  0  0  0  0  0
    5.7544    5.9609  -15.5190 C   0  0  0  0  0  0  0  0  0  0  0  0
    4.1897    7.7752  -16.3328 C   0  0  0  0  0  0  0  0  0  0  0  0
    4.8967    8.8214  -15.4654 C   0  0  0  0  0  0  0  0  0  0  0  0
    5.1815    6.6724  -16.7846 C   0  0  1  0  0  0  0  0  0  0  0  0
    7.0684    0.4350  -16.9459 C   0  0  0  0  0  0  0  0  0  0  0  0
    5.8618    8.0183  -22.1745 C   0  0  0  0  0  0  0  0  0  0  0  0
    7.2789   10.0638  -21.7702 C   0  0  0  0  0  0  0  0  0  0  0  0
    4.9604    9.9697  -20.8481 C   0  0  0  0  0  0  0  0  0  0  0  0
    4.2846    1.8421  -20.5679 C   0  0  0  0  0  0  0  0  0  0  0  0
    5.0937    4.5160  -17.9460 C   0  0  0  0  0  0  0  0  0  0  0  0
    5.0801    2.6193  -19.5030 C   0  0  1  0  0  0  0  0  0  0  0  0
    4.2428    3.7608  -18.9477 C   0  0  2  0  0  0  0  0  0  0  0  0
    6.2233    9.1117  -21.1439 C   0  0  0  0  0  0  0  0  0  0  0  0
    5.5667    8.1870  -14.3275 N   0  0  0  0  0  0  0  0  0  0  0  0
    5.4733    1.7164  -18.4011 N   0  0  0  0  0  0  0  0  0  0  0  0
    4.3620    5.7071  -17.5235 N   0  3  0  0  0  0  0  0  0  0  0  0
    6.9545    6.5898  -13.5609 O   0  0  0  0  0  0  0  0  0  0  0  0
    7.7271    2.0645  -18.5548 O   0  0  0  0  0  0  0  0  0  0  0  0
    3.8689    4.6387  -20.0107 O   0  0  0  0  0  0  0  0  0  0  0  0
    4.8817   -3.0210  -20.7780 F   0  0  0  0  0  0  0  0  0  0  0  0
    8.3744   -0.1737  -22.3917 F   0  0  0  0  0  0  0  0  0  0  0  0
    9.6266    7.4931  -18.2660 H   0  0  0  0  0  0  0  0  0  0  0  0
    7.9917    6.6488  -16.6026 H   0  0  0  0  0  0  0  0  0  0  0  0
    8.8468    8.6303  -20.3259 H   0  0  0  0  0  0  0  0  0  0  0  0
    4.7637    7.9227  -19.1566 H   0  0  0  0  0  0  0  0  0  0  0  0
    3.6038   -0.7791  -20.2815 H   0  0  0  0  0  0  0  0  0  0  0  0
    6.7227    1.7863  -21.7994 H   0  0  0  0  0  0  0  0  0  0  0  0
    7.2418   -2.4904  -21.8326 H   0  0  0  0  0  0  0  0  0  0  0  0
    6.6143    5.3430  -15.8169 H   0  0  0  0  0  0  0  0  0  0  0  0
    4.9727    5.3181  -15.0880 H   0  0  0  0  0  0  0  0  0  0  0  0
    3.3779    7.3138  -15.7513 H   0  0  0  0  0  0  0  0  0  0  0  0
    3.7694    8.2683  -17.2217 H   0  0  0  0  0  0  0  0  0  0  0  0
    5.6442    9.3499  -16.0753 H   0  0  0  0  0  0  0  0  0  0  0  0
    4.1537    9.5411  -15.0910 H   0  0  0  0  0  0  0  0  0  0  0  0
    8.1476    0.4065  -16.7347 H   0  0  0  0  0  0  0  0  0  0  0  0
    6.5249    0.7330  -16.0372 H   0  0  0  0  0  0  0  0  0  0  0  0
    6.7308   -0.5622  -17.2647 H   0  0  0  0  0  0  0  0  0  0  0  0
    5.4915    8.4905  -23.0963 H   0  0  0  0  0  0  0  0  0  0  0  0
    6.7562    7.4200  -22.4029 H   0  0  0  0  0  0  0  0  0  0  0  0
    5.0807    7.3656  -21.7576 H   0  0  0  0  0  0  0  0  0  0  0  0
    6.8647   10.5243  -22.6792 H   0  0  0  0  0  0  0  0  0  0  0  0
    7.5383   10.8504  -21.0463 H   0  0  0  0  0  0  0  0  0  0  0  0
    8.1818    9.4909  -22.0283 H   0  0  0  0  0  0  0  0  0  0  0  0
    4.6130   10.4444  -21.7776 H   0  0  0  0  0  0  0  0  0  0  0  0
    4.1649    9.3248  -20.4464 H   0  0  0  0  0  0  0  0  0  0  0  0
    5.2097   10.7469  -20.1106 H   0  0  0  0  0  0  0  0  0  0  0  0
    4.1040    2.4908  -21.4377 H   0  0  0  0  0  0  0  0  0  0  0  0
    3.3218    1.5198  -20.1446 H   0  0  0  0  0  0  0  0  0  0  0  0
    5.2969    3.8764  -17.0745 H   0  0  0  0  0  0  0  0  0  0  0  0
    6.0445    4.8108  -18.4141 H   0  0  0  0  0  0  0  0  0  0  0  0
    5.9824    3.0366  -19.9739 H   0  0  0  0  0  0  0  0  0  0  0  0
    3.3534    3.3540  -18.4442 H   0  0  0  0  0  0  0  0  0  0  0  0
    5.5594    8.6447  -13.4384 H   0  0  0  0  0  0  0  0  0  0  0  0
    4.7482    1.2754  -17.8722 H   0  0  0  0  0  0  0  0  0  0  0  0
    3.6052    5.4206  -16.9359 H   0  0  0  0  0  0  0  0  0  0  0  0
    3.9987    6.1597  -18.3379 H   0  0  0  0  0  0  0  0  0  0  0  0
    3.3355    4.1665  -20.6392 H   0  0  0  0  0  0  0  0  0  0  0  0
  1  2  2  0  0  0  0
  1  3  1  0  0  0  0
  2  8  1  0  0  0  0
  3  9  2  0  0  0  0
  4  8  2  0  0  0  0
  4  9  1  0  0  0  0
  5 10  1  0  0  0  0
  5 11  2  0  0  0  0
  6 10  2  0  0  0  0
  6 12  1  0  0  0  0
  7 11  1  0  0  0  0
  7 12  2  0  0  0  0
  8 18  1  0  0  0  0
  9 27  1  0  0  0  0
 10 23  1  0  0  0  0
 11 34  1  0  0  0  0
 12 35  1  0  0  0  0
 13 15  1  0  0  0  0
 13 28  1  0  0  0  0
 13 31  2  0  0  0  0
 14 19  1  0  0  0  0
 14 29  1  0  0  0  0
 14 32  2  0  0  0  0
 15 18  1  0  0  0  0
 16 17  1  0  0  0  0
 16 18  1  0  0  0  0
 17 28  1  0  0  0  0
 18 30  1  0  0  0  0
 20 27  1  0  0  0  0
 21 27  1  0  0  0  0
 22 27  1  0  0  0  0
 23 25  1  0  0  0  0
 24 26  1  0  0  0  0
 24 30  1  0  0  0  0
 25 26  1  0  0  0  0
 25 29  1  0  0  0  0
 26 33  1  0  0  0  0
  1 36  1  0  0  0  0
  2 37  1  0  0  0  0
  3 38  1  0  0  0  0
  4 39  1  0  0  0  0
  5 40  1  0  0  0  0
  6 41  1  0  0  0  0
  7 42  1  0  0  0  0
 15 43  1  0  0  0  0
 15 44  1  0  0  0  0
 16 45  1  0  0  0  0
 16 46  1  0  0  0  0
 17 47  1  0  0  0  0
 17 48  1  0  0  0  0
 19 49  1  0  0  0  0
 19 50  1  0  0  0  0
 19 51  1  0  0  0  0
 20 52  1  0  0  0  0
 20 53  1  0  0  0  0
 20 54  1  0  0  0  0
 21 55  1  0  0  0  0
 21 56  1  0  0  0  0
 21 57  1  0  0  0  0
 22 58  1  0  0  0  0
 22 59  1  0  0  0  0
 22 60  1  0  0  0  0
 23 61  1  0  0  0  0
 23 62  1  0  0  0  0
 24 63  1  0  0  0  0
 24 64  1  0  0  0  0
 25 65  1  0  0  0  0
 26 66  1  0  0  0  0
 28 67  1  0  0  0  0
 29 68  1  0  0  0  0
 30 69  1  0  0  0  0
 30 70  1  0  0  0  0
 33 71  1  0  0  0  0
M  CHG  1  30   1
M  END
> <OMEGA_C>
fBcJQYqd80DMjpPBWIn0QDvi40BlEYzBDAQCQXQnBEG/5ZzBf0K6QBHU+0Beh5fBMo+SQPL/J7+d
0KXB3T3LQCfvSz8noKzBM3/UQIvAz79506zBRwTIQAHL50C6/Y3BibLXQODZBkFF3p7B/2eiQFxh
Ij8a+afB+XurQOhY5L+2TqjBImnkQDG0qb6e867BEsDGQHbn3kB5TWfB5mLZQIvcuD+PdJDBtyO4
QMW/vkC3TXjB4BGGQJnO+ECFqYLBYrGcQJUkDUFXcnfBEM+lQAiE1UDoRobBiDDiQOy63j42kYfB
PJS7QNRKAEFLZbHBG+3oQEEFIUFHKa7BVbueQAmEH0HryKbBjBuJQEjL6z/1iqTBy/+iQAODkEB0
kY/BL5CiQFujJ0AzBpzB8sSHQJixcEDUlJfBDSXHQKfJEUG3JqnBzyKyQAT+AkGXPWXBbSWvQH6y
2z96NZPBLpWLQKegtkAgMIzBioveQMLf0kCX+VjBv0T3QGchBEAkcJTBi5x3QERwlEDdFaDByDac
QHRXQcBLOabBqv0FQXLaMb47IrPBbwYaQZ3H70CxIJLBy7v/QOzC1EAh0oTBYYwNQegVCkGCm6LB
B3CYQBGH/UDGQJnBQaRmQGRzR7+NQKLBqiDXQN+l5D85Za7B5rznQNFiH8ASqa7B8afTQNH5qkAW
En3BZSCfQJ0tqkBMaHHBNzBYQIgK6kApBXzBRD5xQBBLBEEWxonB8Zy0QFyZFUEjmoDBceuEQD6o
GEGzdHHBg1wCQdEc0D654IXBwsvQQJ+mOz8tTIDBz2LXQG/qD78ZHorBArqvQD3ZB0E1xbjBlDLY
QFJw7UA5ObPBAJWiQKuy60CUD67BmavbQGpjKEH9brXBhDnxQFKbLUHYXqjBwOgCQcDaF0HhObDB
np2TQGEcJ0GQOK7BF0eFQGoyFUFIkqPBDbamQETzK0GZ4qDB81ODQIFpH0BegKvBpphUQCqJwj8s
KKHBZICpQHgWeECGmIjBlWzBQHLymUAKUJPBOXC/QHBXQkBzyp/BIp5WQDynVkDSjZPBA+exQIZQ
CkHQA1fBkPGXQPM/oz80+o7BDbxmQLN1rUC3fIfBN+t/QDccxUAAtJLBJHlVQPpThUACHaXBDjMJ
QUAO9EC2gpPBKbb0QIUx5EAFDozBmycCQUFiBEGZ2JzBt3a6QG8w/EDshpfBEh6TQD1gKr+7y6XB
/qzLQONZSz9MkqzBTCnVQF3sz79b0azBcDHIQBAL6EC5/o3BEPzXQFUJB0GI2Z7B49KiQK+UID/O
76fBZS2sQBwp5b9CS6jB1fTkQO5Lqb6R6q7BhzPHQCPy3kBYXGfBoRLZQC3JwD+H/Y/B3n24QEDI
vkDTXHjBOESGQLbB+EAvoYLB8vGcQIgmDUGPb3fBUwemQLSU1UAlSobBm9vhQKSY0z5pw4fBjS7q
QKBpIEEiaK7BHZ2gQKO9IEFdlqbB0sC5QMmxAEFANLHBVUiJQCig6j9wi6TBvI6jQHUgkUDy1I/B
aZyiQO2sJ0C5D5zB+s2HQPy/cEBxn5fB/4fHQDAVEkGCHKnB46eyQH4IA0HkSWXBqwyvQCyD3D+m
NJPBhNCLQGKptkCSNIzBfAHfQKXm0kDjCVnBBTP3QKD9A0Chb5TBtKN1QCD0k0DJIaDBrQydQDvg
QcD4N6bBP0MGQQOIK75bFrPBDiEaQY9N8EBVDpLBJN//QA4A1UA30ITBCbUNQfBcCkGViKLBQ6aY
QFD2/UCdQZnBb8JnQDPaSr/aPaLBcX3XQNiP5D9GUK7BN3joQFxTH8BAra7Bs/zTQNgGq0CiLX3B
M4efQP0wqkDFb3HBJ+FYQGPn6UDg4nvBwjlxQHRABEGiuInBWbS0QEClFUH4oIDBtyqFQHOgGEGZ
YHHBRk0CQVV1ij5m8IbBM0XUQC9hNT8+/n/BIAbTQEsBB7+fa4rBqvLcQPTjJ0FJp7XBSB70QB7x
LEFyv6jB9wMDQeWNFkFakbDBHniVQJZrKEHF/63BxJaGQIQQF0GjKqPBFz+qQJYbLUHCzqDBJvWt
QGFcCEFXjrjB51jVQA3v7ECnILPBxyagQFbA7UDLr63BplqDQL5+HkC+hqvBSRhVQIfewD/2I6HB
vISrQKJ7eUB48IjBXzTBQMJNm0D+1ZPB1IK/QORIQkCV05/BrapXQLKeVkAwZZPBHamyQBxmCkG7
FVfBSs+XQLbknj+cR4/BpyZoQNbYrEBPb4fBlQh/QLdcxUCYnJLBbttSQKp2hEBFBKXB50QJQbsE
9ECEgpPBw8T0QMBH5ECVDYzBAUYCQZhHBEFz4ZzBrqm6QPsF/ECUmJfB4RnMQCwjUT+Gr6zBdWaT
QBP1JL/LAKbB15PVQNoUzb8186zBtkXIQPEJ6EC3CI7B5T7YQKTvBkGy6J7BBCmjQI8TJj9yGqjB
b2zlQOy4nb43A6/BHX2sQOFm4r/dfKjBA3bGQDdE30DCUmfBEjzZQDBJtz89dJDBgzi4QAkNv0Af
YHjB6AqGQKbh+EBBxYLBFmGcQIY8DUGSoHfBbfylQFO11UAbV4bBM87hQDqK1D6/m4fBziDqQBXl
IEEkPK7B3eWfQNTtH0F406bBU+K7QOd8AEGPbbHBmqiJQOsb7T+uqKTBMjKjQB2PkEC+lI/BurKi
QCm/J0ApA5zBvaiHQFAKcEATd5fBye3HQDztEUHkMqnBnbGxQN0kA0EkWmXBZxSvQN+m2j/oP5PB
gNSLQB3AtkBQPozBuOvdQLNB00CK2ljB5jv3QFRYA0AeYZTBhxx1QILok0Cj55/BaYkGQWJFFL7H
IrPB70udQJaBQMBzcqbB+zAaQQlN8EAsB5LBwdr/QA1C1UBDyITBhdoNQaEvCkG0kqLBEN+YQIOz
/UDVW5nBYvPXQLh+5z+xZq7BsS5oQN2PRb9PfaLBiu3oQDbjHcAcyq7BK+fTQOlvq0AYEX3BXD+f
QJNVqkCCjXHB+hNYQDYG6kD3SnzBGlVxQFNKBEHS5onB7le0QMq5FUEWqoDBdHSEQJu2GEExt3HB
yCcCQbx9wz6m44XBN1bQQCuTNT8IV4DBAvDWQGs6FL+kN4rB6g7dQE5SKEFog7XBGs7yQMhyLUEM
dqjB1V8DQYmDF0F3S7DBiOuUQLqQJ0GyQ67BwzOGQJ/KFUGxlqPBf0CoQK5VLEGR8aDBazKwQL8Z
CEH7zbjBWT/YQIV07UCxQbPBeKKiQLdt7ECJFK7BEy2EQMaMIEBklqvB/GlVQKxBwz9mYqHBAwaq
QCbIeEDVkojBoHLBQOzlmUBMbZPBSqO/QKUZQ0BzrJ/B9XhXQMolVUDuSpPBVUKxQMZ8CkF0I1fB
NsaXQPujoT9dFY/BDxxnQJyrrUAejYfBtEqAQDUpxUAox5LB9JxSQA2HhECi16TBpHMJQUCf80Ah
YZPBBO70QNkH5EB59IvB+ZQCQSckBEH4wZzB+SG7QOUf/EDJi5fB5ELMQOL5Tz9+mKzBYmCTQPnX
Jr8SDabB5Y/VQCyzzb95A63BhHvIQKAP6EAM+o3BZevYQB/oBkH+057BzkOjQEJnJD+YCqjByIfl
QLjIn74M+67B7WGsQCg247+fm6jBKmvGQAQg30DvVmfBucPZQBa3uj8BdpDBKvm3QNf7vkA3YXjB
mRmGQP8H+UC4xoLBQH+cQKNCDUFimHfBZvelQNLI1UCUV4bB4KviQDqO5j66k4fBycu8QPloAEHs
W7HBuC7rQKXBIEFDLa7BwtugQHbyH0G30abBXaKJQNPt6z+ul6TBYYyjQFMykUAs0o/B+bqiQGHg
J0CdB5zBWpSHQHXrb0AtdZfBGtbIQO/fEUGyJKnBL9CxQHAdA0FpWGXBHoSvQGTc2z8mQpPBlNyL
QFXotkBMSozBHODdQIYA00CC5FjBuYb3QP+eBUALaZTBgZNyQCtFk0D945/B3pkGQaexF75GF7PB
/+6cQF74QMAHvKbBDloaQU+z70Ad3pHBNdH/QM3p1ECDrYTBWTwOQU0CCkEjbKLBvWCZQCf+/UAk
V5nByS/YQBsH5z+JPq7BXQxoQGnWR7+0kKLBhOPoQH8qHsAD4q7BGYPTQPImq0CYDX3Bx9OeQJd3
qkCJkHHBfAlYQJo66kBRVnzB/qRxQF9nBEGD6InB0ni0QIXCFUEBpIDB6JqEQIC8GEE5pnHBM5cC
Qa023D7A2YXBgBPRQPQYPj+lUoDBMSvYQCORDL+SJorB8USxQC0ACEHUwbjB0h7ZQBIv7UDSJbPB
pG2jQEFl7EA1Ba7BZz3eQKcpKEF9ebXB6+DzQCRULUE+aqjBy+EDQTdRF0EyNLDBKwiWQFOSJ0FD
Rq7BNA6HQH/cFUFBmKPBpzSpQM9cLEH68KDB+MyDQBmYH0ChiavBL7VVQAaHwT/XPqHBQMOrQNV6
ekBz3ojBpQzBQIkrm0Bb7JPBV3m/QBl/Q0B3wZ/B4YFYQIm0VEB5E5PBUX+xQIh0CkEZIVfBEWeY
QAbHoT9PFY/Bn8RnQFNJrUDjkYfBCsp/QOSQxUDYvZLBuYRPQD1wg0DOrKTB

> <OMEGA_E>
OJdMPiBwTT6wAE4+UGdRPg==

> <OMEGA_NBR>
    181160

$$$$
50212938
  -OEChem-04172616093D

 74 76  0     1  0  0  0  0  0999 V2000
    8.6087    7.6351  -18.4110 C   0  0  0  0  0  0  0  0  0  0  0  0
    7.6669    7.1021  -17.5132 C   0  0  0  0  0  0  0  0  0  0  0  0
    8.1822    8.3310  -19.5570 C   0  0  0  0  0  0  0  0  0  0  0  0
    5.8698    7.9110  -18.9396 C   0  0  0  0  0  0  0  0  0  0  0  0
    6.3146    0.7834  -21.5673 C   0  0  0  0  0  0  0  0  0  0  0  0
    4.5866   -0.6924  -20.6667 C   0  0  0  0  0  0  0  0  0  0  0  0
    6.6509   -1.6291  -21.5654 C   0  0  0  0  0  0  0  0  0  0  0  0
    6.2798    7.2512  -17.7671 C   0  0  0  0  0  0  0  0  0  0  0  0
    6.7988    8.4981  -19.8193 C   0  0  0  0  0  0  0  0  0  0  0  0
    5.0521    0.6021  -20.9635 C   0  0  0  0  0  0  0  0  0  0  0  0
    7.1190   -0.3312  -21.8544 C   0  0  0  0  0  0  0  0  0  0  0  0
    5.3820   -1.8079  -20.9763 C   0  0  0  0  0  0  0  0  0  0  0  0
    6.8309    1.4764  -18.0447 C   0  0  0  0  0  0  0  0  0  0  0  0
    4.9194    8.7596  -15.4273 C   0  0  0  0  0  0  0  0  0  0  0  0
    4.2179    7.8059  -16.3901 C   0  0  0  0  0  0  0  0  0  0  0  0
    5.7576    5.9470  -15.6024 C   0  0  0  0  0  0  0  0  0  0  0  0
    5.4262    7.9456  -14.2323 C   0  0  2  0  0  0  0  0  0  0  0  0
    5.1885    6.6829  -16.8406 C   0  0  2  0  0  0  0  0  0  0  0  0
    7.1477    0.5146  -16.9017 C   0  0  0  0  0  0  0  0  0  0  0  0
    7.3509   10.1166  -21.7329 C   0  0  0  0  0  0  0  0  0  0  0  0
    5.0505   10.0995  -20.7529 C   0  0  0  0  0  0  0  0  0  0  0  0
    5.8576    8.1206  -22.1053 C   0  0  0  0  0  0  0  0  0  0  0  0
    4.2522    1.7963  -20.5294 C   0  0  0  0  0  0  0  0  0  0  0  0
    5.0700    4.4968  -17.9506 C   0  0  0  0  0  0  0  0  0  0  0  0
    5.0614    2.5853  -19.4891 C   0  0  1  0  0  0  0  0  0  0  0  0
    4.2124    3.7175  -18.9256 C   0  0  2  0  0  0  0  0  0  0  0  0
    6.2790    9.2028  -21.0851 C   0  0  0  0  0  0  0  0  0  0  0  0
    5.4992    1.6911  -18.3917 N   0  0  0  0  0  0  0  0  0  0  0  0
    6.1258    8.8308  -13.3093 N   0  0  0  0  0  0  0  0  0  0  0  0
    4.3682    5.7296  -17.5896 N   0  0  0  0  0  0  0  0  0  0  0  0
    6.3637    6.8941  -14.6689 N   0  3  0  0  0  0  0  0  0  0  0  0
    6.4490    8.2662  -12.2582 O   0  5  0  0  0  0  0  0  0  0  0  0
    7.7411    2.1096  -18.5693 O   0  0  0  0  0  0  0  0  0  0  0  0
    3.7898    4.5747  -19.9885 O   0  0  0  0  0  0  0  0  0  0  0  0
    8.3454   -0.1525  -22.3938 F   0  0  0  0  0  0  0  0  0  0  0  0
    4.9328   -3.0495  -20.6903 F   0  0  0  0  0  0  0  0  0  0  0  0
    9.6642    7.5097  -18.2200 H   0  0  0  0  0  0  0  0  0  0  0  0
    8.0004    6.5786  -16.6294 H   0  0  0  0  0  0  0  0  0  0  0  0
    8.9120    8.7398  -20.2401 H   0  0  0  0  0  0  0  0  0  0  0  0
    4.8164    7.9685  -19.1707 H   0  0  0  0  0  0  0  0  0  0  0  0
    6.6615    1.7774  -21.8082 H   0  0  0  0  0  0  0  0  0  0  0  0
    3.6209   -0.8277  -20.2023 H   0  0  0  0  0  0  0  0  0  0  0  0
    7.2645   -2.4875  -21.7954 H   0  0  0  0  0  0  0  0  0  0  0  0
    5.7669    9.2440  -15.9343 H   0  0  0  0  0  0  0  0  0  0  0  0
    4.2115    9.5273  -15.0816 H   0  0  0  0  0  0  0  0  0  0  0  0
    3.3504    7.3548  -15.8860 H   0  0  0  0  0  0  0  0  0  0  0  0
    3.8779    8.3671  -17.2730 H   0  0  0  0  0  0  0  0  0  0  0  0
    4.9417    5.4119  -15.0944 H   0  0  0  0  0  0  0  0  0  0  0  0
    6.5205    5.2257  -15.9307 H   0  0  0  0  0  0  0  0  0  0  0  0
    4.5651    7.4846  -13.7264 H   0  0  0  0  0  0  0  0  0  0  0  0
    8.2286    0.5294  -16.6982 H   0  0  0  0  0  0  0  0  0  0  0  0
    6.6005    0.8248  -15.9993 H   0  0  0  0  0  0  0  0  0  0  0  0
    6.8418   -0.5036  -17.1841 H   0  0  0  0  0  0  0  0  0  0  0  0
    6.9316   10.5952  -22.6303 H   0  0  0  0  0  0  0  0  0  0  0  0
    7.6560   10.8907  -21.0134 H   0  0  0  0  0  0  0  0  0  0  0  0
    8.2259    9.5125  -22.0146 H   0  0  0  0  0  0  0  0  0  0  0  0
    4.6966   10.5921  -21.6706 H   0  0  0  0  0  0  0  0  0  0  0  0
    4.2444    9.4773  -20.3368 H   0  0  0  0  0  0  0  0  0  0  0  0
    5.3422   10.8626  -20.0164 H   0  0  0  0  0  0  0  0  0  0  0  0
    5.4822    8.6040  -23.0193 H   0  0  0  0  0  0  0  0  0  0  0  0
    6.7259    7.4925  -22.3530 H   0  0  0  0  0  0  0  0  0  0  0  0
    5.0648    7.4949  -21.6695 H   0  0  0  0  0  0  0  0  0  0  0  0
    4.0439    2.4372  -21.3988 H   0  0  0  0  0  0  0  0  0  0  0  0
    3.3032    1.4631  -20.0839 H   0  0  0  0  0  0  0  0  0  0  0  0
    5.2460    3.8931  -17.0480 H   0  0  0  0  0  0  0  0  0  0  0  0
    6.0336    4.7434  -18.4204 H   0  0  0  0  0  0  0  0  0  0  0  0
    5.9447    3.0161  -19.9832 H   0  0  0  0  0  0  0  0  0  0  0  0
    3.3449    3.2958  -18.3968 H   0  0  0  0  0  0  0  0  0  0  0  0
    4.7949    1.2121  -17.8678 H   0  0  0  0  0  0  0  0  0  0  0  0
    6.9528    9.1707  -13.7572 H   0  0  0  0  0  0  0  0  0  0  0  0
    3.5759    5.4881  -17.0294 H   0  0  0  0  0  0  0  0  0  0  0  0
    6.6783    6.3920  -13.8634 H   0  0  0  0  0  0  0  0  0  0  0  0
    7.1451    7.3287  -15.1169 H   0  0  0  0  0  0  0  0  0  0  0  0
    3.2522    4.0828  -20.5980 H   0  0  0  0  0  0  0  0  0  0  0  0
  1  2  2  0  0  0  0
  1  3  1  0  0  0  0
  2  8  1  0  0  0  0
  3  9  2  0  0  0  0
  4  8  2  0  0  0  0
  4  9  1  0  0  0  0
  5 10  1  0  0  0  0
  5 11  2  0  0  0  0
  6 10  2  0  0  0  0
  6 12  1  0  0  0  0
  7 11  1  0  0  0  0
  7 12  2  0  0  0  0
  8 18  1  0  0  0  0
  9 27  1  0  0  0  0
 10 23  1  0  0  0  0
 11 35  1  0  0  0  0
 12 36  1  0  0  0  0
 13 19  1  0  0  0  0
 13 28  1  0  0  0  0
 13 33  2  0  0  0  0
 14 15  1  0  0  0  0
 14 17  1  0  0  0  0
 15 18  1  0  0  0  0
 16 18  1  0  0  0  0
 16 31  1  0  0  0  0
 17 29  1  0  0  0  0
 17 31  1  0  0  0  0
 18 30  1  0  0  0  0
 20 27  1  0  0  0  0
 21 27  1  0  0  0  0
 22 27  1  0  0  0  0
 23 25  1  0  0  0  0
 24 26  1  0  0  0  0
 24 30  1  0  0  0  0
 25 26  1  0  0  0  0
 25 28  1  0  0  0  0
 26 34  1  0  0  0  0
 29 32  1  0  0  0  0
  1 37  1  0  0  0  0
  2 38  1  0  0  0  0
  3 39  1  0  0  0  0
  4 40  1  0  0  0  0
  5 41  1  0  0  0  0
  6 42  1  0  0  0  0
  7 43  1  0  0  0  0
 14 44  1  0  0  0  0
 14 45  1  0  0  0  0
 15 46  1  0  0  0  0
 15 47  1  0  0  0  0
 16 48  1  0  0  0  0
 16 49  1  0  0  0  0
 17 50  1  0  0  0  0
 19 51  1  0  0  0  0
 19 52  1  0  0  0  0
 19 53  1  0  0  0  0
 20 54  1  0  0  0  0
 20 55  1  0  0  0  0
 20 56  1  0  0  0  0
 21 57  1  0  0  0  0
 21 58  1  0  0  0  0
 21 59  1  0  0  0  0
 22 60  1  0  0  0  0
 22 61  1  0  0  0  0
 22 62  1  0  0  0  0
 23 63  1  0  0  0  0
 23 64  1  0  0  0  0
 24 65  1  0  0  0  0
 24 66  1  0  0  0  0
 25 67  1  0  0  0  0
 26 68  1  0  0  0  0
 28 69  1  0  0  0  0
 29 70  1  0  0  0  0
 30 71  1  0  0  0  0
 31 72  1  0  0  0  0
 31 73  1  0  0  0  0
 34 74  1  0  0  0  0
M  CHG  2  31   1  32  -1
M  END
> <OMEGA_C>
GL0JQZ1S9ECuSZPBg1f1QHxE40AWG4zBe+oCQcRLBUHEdJzBJdW7QLgm/UBThJfBQhHKQJ+LSD/g
iazBUcWSQB1BMb9XVaXBzNPUQLaG0L/vhazB6vPIQDkK6ED/Io7Byo/ZQDf4B0H1jZ7BxKqhQFUk
Gj89tafBHs/jQHSWqb7L1a7BOTmsQDVo5793z6fB0JbaQJn7vD+cW5DBsWudQF4nDEEV1nbBpfiG
QPLJ+UDqHoPBAz64QIJNvkCNo3nBZKOtQHhC/kCat2PB/gemQCHa1UCWuYbB6rnkQCi7Az+2NofB
WTrrQMXdIUEJ3a3Bh52hQGSXIUEJBqbBWHG7QCvuAUGm17DBthGIQE/t5T8/PKTBmj2iQG3lj0Dk
mo/B2fahQFp1JUC56ZvB2cuGQFzrbUCWZ5fBle3IQIs+E0FRrqjBfvmvQFx22D9CIpPBUAbEQOhK
DUEY81TBfsiLQMFYt0CTt4zBuaPLQNec3EDWs2rBO17OQERCBEG6IUTBOLf3QP4CB0DZjZTBBYxy
QBZkkkB36J/B7oYFQYwxHL6EJrPBStmdQIQrQ8DAhaXBpqAaQYhP8ECAwpHBgAEAQeKD0kAACYXB
tJcOQVbWC0HQ66HBnx+aQE3+/kCoXZnBuCrVQNmB4z8pd67BV71nQFbiU79fnqHBHXfoQOAzH8Dr
XK7Bkoq4QHjnE0HV8n7BlcSGQPNvGEE9TnHBvG1WQLda60DzLH7BPi94QKnfBUEML4rBliKeQFIu
rUCdgnHBLajQQFg5p0AO5H7BYhWSQOiB70Aln1vBX6gDQXWIBz/1lYXBjzfTQI8nUz8d/X/BRvDa
QG/tAL/2eInB9s/dQPiFKUHJCrXB7f30QDNALkFdG6jBQJ0DQTAzGEHwHbDBzkqWQEF5KUFmXa3B
U9KHQBWjF0GwsaLB9/KqQC3NLUGDIaDBOm6vQBiqCUGQJ7jBvjrXQCvC70D80rLBkxKiQJvW70AX
W63B2WeBQA77G0DSMKvBVmhTQNJFuz/Hq6DBJd+nQEMpeUBeYojBNBPBQJPJl0ALXZPBKTu+QDoH
QUCn3Z/BFxNWQPbtUkCPLJPB/G+ZQAImmz808Y7BOX3eQA+7EkFKHVzBD9tkQEOer0A/PIjBV7TV
QPGKzEBg0F3BcaTkQHWE6kDU3nHBJiRQQO2lgkCwyKTB1roJQf5M80DHXpPBW031QIR04kBMKIzB
JOoCQWnjBEEmg5zBJda7QCTh/ECOf5fBcgrKQBAVSD+Le6zBx5uSQBwBMb92TaXBP3fUQGrk0L/A
kazBSuzIQAur50D2Io7BE5DZQFHFB0E1jJ7BGaOhQGojGj/RpqfBHZrjQOlbq74+167BtuGrQAB7
57/s1qfB+X7aQFTNxD+u9o/BKkidQPxDDEGSLHfBtsmGQAKs+UAJL4PBRfu3QAhsvkAQhXnBFpet
QK7y/kDT7WPBJemlQBaz1UBFuIbBP9PkQEXU/z42Y4fBzsO7QLQWAkGp5bDBqQPrQFYqIkG7oq3B
dUChQLtZIUEG5KXBqBGIQMkE5j8TNKTBwC+iQMnIj0BYk4/B+wiiQKmcJUD+65vBgNWGQGz1bUCI
aZfB+d3IQFA9E0EWnKjBoRqwQGKr2D+DKZPBUB3EQE/cDUELclXB27OLQF8tt0D2sozBNnXLQDz6
3EA4tGrBNYTNQAVHBUG8Q0TBc9D3QB/jB0BAgZTBqdZyQMh/kkBr6Z/BMWgFQW0TIr48LrPBskud
QMwtQ8CFn6XBYZ0aQfr37kDx4pHBivL/QMOK0UC/G4XBwJcOQVVYC0FpAKLBYh6aQMXm/kBMU5nB
CEfVQMtD4z+sXK7BNX9nQAkfU7/jj6HB+fjnQPN5H8AWdK7BUly4QPPsE0EGaH/BKKWGQNybGEHm
wnHBxkRWQHlT60CcLH7BwH93QHqnBUErSIrBqsudQIuJrUCqVHHBJlTQQGAqp0Adp37Byw+SQISG
8EAXqlvBi90DQV9Z1z68cYbB6GfWQIyaTj/HfX/BlsXXQOAT9L6VyonBjLavQMT3CUGWKrjBg73X
QHBp8ECU7LLB6oSiQD3D70BRf63BAJ/dQIf4KUHlxrTBUGz0QHRsLkGLxqfBtJ4DQVWxGEFR66/B
9uOVQI9gKUFmMK3BgJaHQIkyF0FWpqLBBEuqQIVxLUHp6J/BmFuBQJTaG0D6K6vBvXRTQEeVuz+w
naDBCa+nQF/OeED8W4jBrhbBQOmul0BMTJPByz++QGg0QUBM5Z/BkgdWQDDlUkC+NpPBTrmZQIRC
lT/XS4/B3gnfQFfGEkGDj1zB9rdkQONvr0DdNojBo17VQLcgzUDOt13BMZLkQPmZ6kD96HHBdolQ
QK3OgkAyz6TB

> <OMEGA_E>
qEmxPuTWsD4=

> <OMEGA_NBR>
    183828

$$$$
50214043
  -OEChem-04172616093D

 68 71  0     1  0  0  0  0  0999 V2000
    8.6852    7.3730  -18.3151 C   0  0  0  0  0  0  0  0  0  0  0  0
    5.7690    9.5283  -22.9805 C   0  0  0  0  0  0  0  0  0  0  0  0
    8.3387    8.1358  -19.4378 C   0  0  0  0  0  0  0  0  0  0  0  0
    7.6786    6.8719  -17.4707 C   0  0  0  0  0  0  0  0  0  0  0  0
    5.6630    8.6340  -21.8440 C   0  0  0  0  0  0  0  0  0  0  0  0
    5.9750    7.8411  -18.9101 C   0  0  0  0  0  0  0  0  0  0  0  0
    6.3655    0.7728  -21.5675 C   0  0  0  0  0  0  0  0  0  0  0  0
    4.5989   -0.6802  -20.7067 C   0  0  0  0  0  0  0  0  0  0  0  0
    6.6635   -1.6465  -21.5738 C   0  0  0  0  0  0  0  0  0  0  0  0
    6.7690   10.4223  -22.6918 C   0  0  0  0  0  0  0  0  0  0  0  0
    6.9833    8.3421  -19.7421 C   0  0  0  0  0  0  0  0  0  0  0  0
    6.3093    7.1573  -17.7262 C   0  0  0  0  0  0  0  0  0  0  0  0
    5.0889    0.6105  -20.9860 C   0  0  0  0  0  0  0  0  0  0  0  0
    7.1565   -0.3552  -21.8487 C   0  0  0  0  0  0  0  0  0  0  0  0
    5.3822   -1.8076  -21.0089 C   0  0  0  0  0  0  0  0  0  0  0  0
    6.6291    9.0303  -20.9599 C   0  0  0  0  0  0  0  0  0  0  0  0
    6.8465    1.5031  -18.0891 C   0  0  0  0  0  0  0  0  0  0  0  0
    5.3566    8.2816  -14.2696 C   0  0  0  0  0  0  0  0  0  0  0  0
    4.8915    8.9164  -15.5906 C   0  0  0  0  0  0  0  0  0  0  0  0
    6.2950    7.0873  -14.5133 C   0  0  0  0  0  0  0  0  0  0  0  0
    4.2062    7.8613  -16.4674 C   0  0  0  0  0  0  0  0  0  0  0  0
    5.6551    6.0478  -15.4647 C   0  0  0  0  0  0  0  0  0  0  0  0
    5.1674    6.6871  -16.8019 C   0  0  0  0  0  0  0  0  0  0  0  0
    7.1639    0.5381  -16.9505 C   0  0  0  0  0  0  0  0  0  0  0  0
    4.2894    1.8186  -20.5690 C   0  0  0  0  0  0  0  0  0  0  0  0
    5.0804    4.5248  -17.9658 C   0  0  0  0  0  0  0  0  0  0  0  0
    5.0790    2.6196  -19.5165 C   0  0  1  0  0  0  0  0  0  0  0  0
    4.2204    3.7372  -18.9394 C   0  0  2  0  0  0  0  0  0  0  0  0
    5.5150    1.7314  -18.4194 N   0  0  0  0  0  0  0  0  0  0  0  0
    4.3466    5.7158  -17.5382 N   0  3  0  0  0  0  0  0  0  0  0  0
    7.7569    2.1275  -18.6237 O   0  0  0  0  0  0  0  0  0  0  0  0
    7.2802   10.1111  -21.4691 O   0  0  0  0  0  0  0  0  0  0  0  0
    3.7792    4.5923  -19.9946 O   0  0  0  0  0  0  0  0  0  0  0  0
    8.3934   -0.1980  -22.3713 F   0  0  0  0  0  0  0  0  0  0  0  0
    4.9076   -3.0446  -20.7433 F   0  0  0  0  0  0  0  0  0  0  0  0
    9.7237    7.1701  -18.0985 H   0  0  0  0  0  0  0  0  0  0  0  0
    5.1746    9.4967  -23.8817 H   0  0  0  0  0  0  0  0  0  0  0  0
    9.1081    8.5621  -20.0645 H   0  0  0  0  0  0  0  0  0  0  0  0
    7.9483    6.2643  -16.6196 H   0  0  0  0  0  0  0  0  0  0  0  0
    4.9635    7.8204  -21.7205 H   0  0  0  0  0  0  0  0  0  0  0  0
    4.9379    7.9796  -19.1775 H   0  0  0  0  0  0  0  0  0  0  0  0
    6.7337    1.7620  -21.7960 H   0  0  0  0  0  0  0  0  0  0  0  0
    3.6228   -0.8035  -20.2612 H   0  0  0  0  0  0  0  0  0  0  0  0
    7.2680   -2.5135  -21.7962 H   0  0  0  0  0  0  0  0  0  0  0  0
    7.0947   11.2337  -23.3258 H   0  0  0  0  0  0  0  0  0  0  0  0
    5.8905    9.0399  -13.6779 H   0  0  0  0  0  0  0  0  0  0  0  0
    4.4750    7.9344  -13.7107 H   0  0  0  0  0  0  0  0  0  0  0  0
    4.1807    9.7276  -15.3744 H   0  0  0  0  0  0  0  0  0  0  0  0
    5.7621    9.3244  -16.1250 H   0  0  0  0  0  0  0  0  0  0  0  0
    7.2305    7.4535  -14.9613 H   0  0  0  0  0  0  0  0  0  0  0  0
    6.5146    6.6030  -13.5504 H   0  0  0  0  0  0  0  0  0  0  0  0
    3.3309    7.4652  -15.9317 H   0  0  0  0  0  0  0  0  0  0  0  0
    3.8792    8.3338  -17.4054 H   0  0  0  0  0  0  0  0  0  0  0  0
    6.4012    5.2730  -15.6949 H   0  0  0  0  0  0  0  0  0  0  0  0
    4.7937    5.5882  -14.9579 H   0  0  0  0  0  0  0  0  0  0  0  0
    8.2468    0.5413  -16.7577 H   0  0  0  0  0  0  0  0  0  0  0  0
    6.6290    0.8539  -16.0426 H   0  0  0  0  0  0  0  0  0  0  0  0
    6.8443   -0.4766  -17.2301 H   0  0  0  0  0  0  0  0  0  0  0  0
    4.1002    2.4537  -21.4470 H   0  0  0  0  0  0  0  0  0  0  0  0
    3.3309    1.4930  -20.1386 H   0  0  0  0  0  0  0  0  0  0  0  0
    5.3126    3.9005  -17.0904 H   0  0  0  0  0  0  0  0  0  0  0  0
    6.0160    4.8256  -18.4601 H   0  0  0  0  0  0  0  0  0  0  0  0
    5.9611    3.0632  -20.0015 H   0  0  0  0  0  0  0  0  0  0  0  0
    3.3634    3.3023  -18.4042 H   0  0  0  0  0  0  0  0  0  0  0  0
    4.8109    1.2668  -17.8824 H   0  0  0  0  0  0  0  0  0  0  0  0
    3.5940    5.4267  -16.9466 H   0  0  0  0  0  0  0  0  0  0  0  0
    3.9775    6.1670  -18.3507 H   0  0  0  0  0  0  0  0  0  0  0  0
    3.2419    4.0962  -20.6011 H   0  0  0  0  0  0  0  0  0  0  0  0
  1  3  1  0  0  0  0
  1  4  2  0  0  0  0
  2  5  1  0  0  0  0
  2 10  2  0  0  0  0
  3 11  2  0  0  0  0
  4 12  1  0  0  0  0
  5 16  2  0  0  0  0
  6 11  1  0  0  0  0
  6 12  2  0  0  0  0
  7 13  1  0  0  0  0
  7 14  2  0  0  0  0
  8 13  2  0  0  0  0
  8 15  1  0  0  0  0
  9 14  1  0  0  0  0
  9 15  2  0  0  0  0
 10 32  1  0  0  0  0
 11 16  1  0  0  0  0
 12 23  1  0  0  0  0
 13 25  1  0  0  0  0
 14 34  1  0  0  0  0
 15 35  1  0  0  0  0
 16 32  1  0  0  0  0
 17 24  1  0  0  0  0
 17 29  1  0  0  0  0
 17 31  2  0  0  0  0
 18 19  1  0  0  0  0
 18 20  1  0  0  0  0
 19 21  1  0  0  0  0
 20 22  1  0  0  0  0
 21 23  1  0  0  0  0
 22 23  1  0  0  0  0
 23 30  1  0  0  0  0
 25 27  1  0  0  0  0
 26 28  1  0  0  0  0
 26 30  1  0  0  0  0
 27 28  1  0  0  0  0
 27 29  1  0  0  0  0
 28 33  1  0  0  0  0
  1 36  1  0  0  0  0
  2 37  1  0  0  0  0
  3 38  1  0  0  0  0
  4 39  1  0  0  0  0
  5 40  1  0  0  0  0
  6 41  1  0  0  0  0
  7 42  1  0  0  0  0
  8 43  1  0  0  0  0
  9 44  1  0  0  0  0
 10 45  1  0  0  0  0
 18 46  1  0  0  0  0
 18 47  1  0  0  0  0
 19 48  1  0  0  0  0
 19 49  1  0  0  0  0
 20 50  1  0  0  0  0
 20 51  1  0  0  0  0
 21 52  1  0  0  0  0
 21 53  1  0  0  0  0
 22 54  1  0  0  0  0
 22 55  1  0  0  0  0
 24 56  1  0  0  0  0
 24 57  1  0  0  0  0
 24 58  1  0  0  0  0
 25 59  1  0  0  0  0
 25 60  1  0  0  0  0
 26 61  1  0  0  0  0
 26 62  1  0  0  0  0
 27 63  1  0  0  0  0
 28 64  1  0  0  0  0
 29 65  1  0  0  0  0
 30 66  1  0  0  0  0
 30 67  1  0  0  0  0
 33 68  1  0  0  0  0
M  CHG  1  30   1
M  END
> <OMEGA_C>
wfYKQfHv60BohZLBgJu4QNFzGEEO2LfBdmsFQVksAkGGgJvBALf1QO7m20D2w4vB5Ta1QLkkCkGX
wK7BdDO/QAfq+kD4R5fByrHLQCbTRT9EiqzBNyqTQLsiLr9mp6XBqjvVQNzB0r87l6zBmZvYQN7B
JkHCiLXByXbfQF55BUHW753BIubJQIUI5UA6z43BidiiQMFJHD9A46fBWQLlQPritb4yyq7Bnzqs
QFxg578xEqjBXiHUQBp8EEHwrafBgBbbQBhkwD9utpDBRmmrQJqBBEEWUGTB6IacQIypDkEKc3nB
33DJQDDL4kCXNmjBfZmGQBWQ+0A4vYPBUPa0QHOHwUBab3fBh1ulQNr81UA5aobBWj7lQCvECT+d
mofBf0KJQKzG6D9ejaTB+5KiQBHLkED1uY/BRYeiQCinJ0DcIZzBeg2HQIYub0DZg5fB/3qwQISd
3T/bWpPBvBeLQPbntkA7TozBMjj4QKMpCEBa/ZTBBvfoQBHHIUGxwKvBHN5xQMXzkkAI9Z/BQEsG
QRi1Sr5n+LLBTAudQIjbQsA18qXBG5QbQb5x5UDIyZDBgZalQH7yF0GwDb/BuboRQTr+CEEdhKDB
Flj+QOR0yEDa9ITBLNWeQG5A+kCow63B4AKeQI5Y/0CCa5nBi3rXQJWI4T9AXq7Bw9xnQPCuTb/f
FqLBY5PoQMbcIMCuXq7BpgfjQF+9M0Evm7rB5368QGqjEEHT2FrBejOPQMvm/UAqX1vBlciFQHCk
G0Gg/XXBBWO4QJQwFUH6/4DBomDnQOqC7kCsYW/Br3fQQHtL00CBzljB2i1VQBHj7kBv6H7B+0R4
QDlXBUE9PovBwtbMQIi8qEBFHnvBt2WZQLnSskC5U2/B+/IDQX2PCj+uD4bBtSDUQMSYWj9OV4DB
MATbQKgA9L5X14nBojSDQAIKHUBek6vByCxVQNMavz/XG6HBsQCqQBSieUAOuYjBv4LAQH1rmkA6
rpPBRMG+QAkLREAAA6DBZEJXQB9YU0DOO5PB7fKZQJoloj8QD4/BwgRmQGCnrUClkofB349+QG5Y
xUA4zpLBM3tPQCMUg0AAz6TBSFEKQVE/8UAw7JHBuYzQQC4oIEGZjLfBTEkEQZnlA0EhIpvByhH1
QPgg4EDdIovBhInfQJelIEGZkqzBAna9QMXW+kAK/5bB9zzHQKE7Kz959KzB4JiSQEgIQb/1DKTB
S5HRQESg37/oaKzBJHC5QN6iDUFSv7jBbfbcQITNBUH2s53BbfDIQKyM5kBGYI3BJ7CgQADSBj+r
MKfBH9DfQGK97r7vea/B+dyqQFz88b/8vKbBKKLQQNxNDkHN8KfBJvbcQLjTwz+9/pDBvQqpQKTc
A0HwJ2PBsgibQO5dDkFOQnjB1oLHQLLb4UByD2fBoJKFQJ1T+0BCWIPB72m0QIoLwUA4AXfB2ryk
QCg01kABG4bBzDboQECjGz+ur4fBaNOHQKgr4D+B2KPBPL2jQNYckkBTDJDBXtmiQADvJkBeI5zB
rSuIQM3ScECsvpfBhxCyQDyK4z8DJ5PBzS2LQP4Qt0DmO4zBz535QL+BBkA95pXBEBi4QDCAA0Eh
IK/BvVp1QA82k0DsW6DBYpcCQdaqpr75zLTBphudQKOdR8AL0qPBiQwbQRcG7UDnCZDBjXLWQKIW
LEFhn73B6koQQZ4OC0FPNqDBXHD+QNX2zUBHK4TBMJHyQOz5LEFR1KjB8SWcQCx0/UCbM5nBwt3R
QHEO0z8Bbq/BA2tqQNHLXL9ylp/BvlHkQO+hJ8AlaK7B1taqQHgSCEFdEcDB4YC5QIvdD0GSQlnB
E36MQA4X/EBaqVrB3jeEQPRSG0Fj1XTB7zu3QM76FEGWOoDBMs3lQKgh7kC+mG3BjqjNQNCv0UCY
u1fBoABTQBwl7kAfXX7BzIt2QJJyBUEvzorBsSDNQIg3qUCu5HrBhRaZQIwGsUAJVG/BlZIFQY7q
FT+RnYbB6gfZQBwoez9ZVIDB1pHcQGjG0L5pZonBtZl/QMUZFkC5+arB8WNUQNFWuD/BzJ/BoeGs
QP/Se0CnNonBU7rAQFU8nUCaMZTBimS+QBYXQUAEiaDB/rxYQIjvVkDMbJPBYC2cQI8grz+NUo7B
iiBnQIZorEDtiYfBYmN9QHgJxkANlJLBBetSQK8ig0DEKaXBowgKQXR160B4mZPB7T/MQGqcLkFF
WbLBN58DQeevAEG725zBIkT1QPor3UDGMozBPL3lQM+zHEE+m67BVrm8QPWe+UABdZfBUW/KQBuK
QT/cCK3Biq2TQOnqLr+MJaXBBh3UQFnm1L8f4azB1RWlQMAbLUFAdq3B7lbbQOkmBEGdw57BBxLJ
QCJR5UBN7I3BdK6iQHVdGj8+0qfBQjHjQOK/wL5dhK/BqzqsQG9q6L8ZwafBFu3MQF1jEkE8NKfB
IanaQO9xwD8bhZDBL+eqQEhFBEHxzmPBDECbQFF8DkEexHjBmyjKQKWB40BbJ2jBtQOGQOr++kA+
coPBtku2QHXRwUC9U3fBCnWlQIsO1kAmQobByfHjQIYiCD+dZofBRG+JQO/q6D/LgqTBjUKjQDQs
kUDdyo/B8P+iQCL8J0CdLpzBKtyHQLyncED/rpfBSUuwQKHd3j9nUpPBsDeLQC5ztkAGBozB8jP4
QDbgB0AmqpTBx+CkQH8SG0G4b6fBlDR1QB7ok0DZK6DB2qsEQXxNab7ceLTBZnidQJwrQ8A+VaXB
U88aQRmL5UA5JpLBoz7WQIzROkEP7rfB3msPQRVsBkFEe6LBvk//QP3gy0DiJoXBBtMCQXhoGEHv
IrHBCSObQOz4/UB3LZnBDtXVQO/03j+eHa/BebxqQKOOTL+mGaHB9SDnQFUdIsA/ya7BHv2KQDhS
OEE6Ra7Buj27QPWEEEE6KlrBqCePQCEv/EAy6lrB9OiDQMYiG0EZFnXByKi2QBJ1FUE9qoDB0WDn
QMVq8EC7i2/B31HSQKkC1EAK41jBJLBUQECX7UDjUn7BHDp2QI0VBUGM54rBgtLOQL7UqUB0RHvB
G3GbQJYnskCKEm/Bzj4DQUpmBj+ntoXBIG7SQGJBWT9iM4DBoJjZQGVT9b44tonBuVODQPXAHEBA
kKvBAJNVQHVhwD9cAKHBmmerQKgXeUBd9YjBptDAQGnUm0DDwpPB6Xi/QBEzQ0CtFKDBIvFXQCTD
VUA+f5PBzGqZQEWUpD+xE4/B9T5oQJlCrEBOG4fBDxh8QP7dxEB/XJLBEfhSQLVHhEDGFqXBsaAL
QZkZ9kCv+o7BL8zPQMJMH0EI2rbB2lUHQbgyBkH5fpjBenL1QP/d5ED46ojBfyXZQP35DEEpBbDB
ASDCQJ1pAEHO05XBZcGkQPxeXz2oH67BGfucQIfZZr92PZzBmcW/QDQkDMCwXarBGeLMQNnLMEGk
QrDBcSPkQJehCEG3+5vBpDfKQPnS6kBZHYzB3yCWQKs4KD6xeKPBwkS5QJX4j7+mlbHBosGxQKHk
BMCHrp/BkSvbQEmvFEHwv6XB+x/nQP1Z5j9gCJPBv1ugQKdWAEHwO1/B+5KVQGIdDUFbm3PB+LDA
QEXe3EACEmTBIMaDQA1W/EDPkILBCP2wQMFev0C5eXbBZQSkQK8u2ECprYXBMWT9QFQ1kD+NkInB
1EaAQEE5uD9StJ/B27ClQF5GlUBC0JDBefygQPZzH0AnpJvBvf+IQPmVcEAeuZfBTq+6QL3a9D8M
3JLBhjmMQEMqukBY04zBzy78QF+oB0AY6prBC7vTQKEyKkG4+6XBG2t1QKElkECqzqDBg6/GQPUO
nr/t1rvB4Sm4QCUZRsCUvJjBNvEbQbor8kB0TozBDuvLQB8iH0HKb7/B6E8UQSThDEH3Hp3B+nD8
QMXk0kCUv4HBG5jdQBIy+UAjirLB9JKhQEeDAkGdiJjBJzqgQJf3Xz/MoLPBV0OSQFzLUL8WDpTB
bX7PQDDoRcADBq3BCE7GQKIAQUFqxLLBMSeuQHg9C0H6QlPB3NWCQIBi8kDq2FjBnuJ6QFdVGUG6
v2/BAsOyQOfzFEFejXnB41zfQMVn60Cyu2jBYz7FQB53yUAnkFXB+0VMQH937UBmOX/BOld5QCbA
B0HsuonBBd/KQJPnqEAXfXrBtfOUQOxirUChyHDBetsPQXlAgj+IT4vB9Tz5QONA3z9OW4LB6jvv
QMMGCT5DNojBCFNcQDFZ7z/LaqbBVldUQLpnmD+8JpnBgBqyQFvigkBZ+4nB75fAQPcVoUDrqJXB
mR62QEluMUBvT6LB6NNaQPA3XEDD4pLBczGrQJB0yj9oYYzB22NmQC+qrkD+wIjBR8iBQCi5ykBs
J5PBh+ZRQDIpfUCKI6XBILbIQOAtC0FZeJ7B4uQ5QTk5BUFSHovBMr30QNJACkFx/pvBwoWqQGVz
AUFIlZfBXK0oQQwgCUF0w5LBNxvkQJQY6UCWXIzBRm/ZQJymbT8ZkazBsuyrQMZ5R79YcaTBzjTu
QDSgtb+bYq3BW60xQT4S8UBKLYPBsQ0BQc7X/UDpy5LBnD+4QGrv7ECjOI7Bdji0QDKnEj+A2qbB
zHb2QJiPiL36ya/BLNfIQHAp47/0v6fBmhsXQVBF/UDD4I7Bt8XmQF0z1z8tcI/BpPaZQMCzAUG4
82HBZoiIQM+bDEFsQHbBtp68QJqV4kAsj2fB3LJrQCDT90Da7ILBagOsQFASwkCKMHjBikyYQD9A
10BGf4bBsKDyQBRcNT+5gYbBuaeVQJ080j8tMaPBXyShQP8vkkD2mI/B8tirQBRxJkBHS5vBSsKL
QGwmakDPopfBKLq7QLkl7D/i85HBTIWDQMf0tEBbnozB6Y8BQS6ICkDaA5XBBOwcQVi16EBNnIXB
FP58QIbyjUCjnKDBThENQVCCjT5bP7XBZsfAQBabRMA9fKXBGhW+QNNOE0HNnaXBVBJKQTQ2C0EV
oIvBGvUFQREaEkG5D6HBmtKIQJRdAkGAcZnBmp4pQU1tEkGWB5rBxRjvQGqW1UDEx4XBs57fQARn
+z/Odq7BBGyPQJZ0hr+YEKDBBEMCQeW5C8DW3K/BSTM6Qdm75UCSbnjBS7mnQGvxDUFrV1fB2BN/
QKcN80Atr1nBHnteQGz6F0Fwt3HBbbWiQKZDFUElOX7BEI3YQDRm80AKMm7BcxPGQIhf0UDp81jB
/GA3QDGO5kDS133BGJlSQHs2BEHABYrBbuHGQFmErUArDn3B+B2TQJhnrkAZkXDBtcUKQQgVEj8G
WYbB9uDnQByRjj9ej33BXv7iQMFOhb429IfBJnqKQCClDUA4LarBJUR0QBfWlT8QNp/BLa2pQKJj
f0CTa4jB4EW+QErxn0DXJJPBN7nGQEQURkAKYJ/BBlVgQL1sSkCT4JPBBhymQBUjtj+YHY3BbN5X
QDicqED9LYjBkYpuQBGGwUDfTpPBiAFiQFLRd0AXt6XB

> <OMEGA_E>
eGGnPpy0rD7MS6M+HiMyP/RPOD8=

> <OMEGA_NBR>
    189520

$$$$
50214042
  -OEChem-04172616093D

 68 71  0     1  0  0  0  0  0999 V2000
    8.6296    7.4135  -18.4668 C   0  0  0  0  0  0  0  0  0  0  0  0
    8.2199    8.0758  -19.6353 C   0  0  0  0  0  0  0  0  0  0  0  0
    7.6737    6.9562  -17.5401 C   0  0  0  0  0  0  0  0  0  0  0  0
    5.0378    9.6336  -21.1544 C   0  0  0  0  0  0  0  0  0  0  0  0
    5.8948    7.7668  -18.9808 C   0  0  0  0  0  0  0  0  0  0  0  0
    4.6238   -0.6444  -20.7526 C   0  0  0  0  0  0  0  0  0  0  0  0
    6.4073    0.8249  -21.5484 C   0  0  0  0  0  0  0  0  0  0  0  0
    6.7092   -1.5929  -21.5896 C   0  0  0  0  0  0  0  0  0  0  0  0
    5.1176   10.6293  -22.0838 C   0  0  0  0  0  0  0  0  0  0  0  0
    7.1745    9.7536  -21.9139 C   0  0  0  0  0  0  0  0  0  0  0  0
    6.8450    8.2591  -19.8896 C   0  0  0  0  0  0  0  0  0  0  0  0
    6.3921    9.1142  -20.9873 C   0  0  0  0  0  0  0  0  0  0  0  0
    6.2884    7.1631  -17.7732 C   0  0  0  0  0  0  0  0  0  0  0  0
    5.1192    0.6513  -20.9964 C   0  0  0  0  0  0  0  0  0  0  0  0
    5.4147   -1.7654  -21.0590 C   0  0  0  0  0  0  0  0  0  0  0  0
    7.2062   -0.2967  -21.8315 C   0  0  0  0  0  0  0  0  0  0  0  0
    6.7997    1.5125  -18.0133 C   0  0  0  0  0  0  0  0  0  0  0  0
    5.3131    8.2568  -14.2465 C   0  0  0  0  0  0  0  0  0  0  0  0
    4.8433    8.9043  -15.5580 C   0  0  0  0  0  0  0  0  0  0  0  0
    6.3088    7.1166  -14.5164 C   0  0  0  0  0  0  0  0  0  0  0  0
    4.1969    7.8495  -16.4588 C   0  0  0  0  0  0  0  0  0  0  0  0
    5.7114    6.0626  -15.4761 C   0  0  0  0  0  0  0  0  0  0  0  0
    5.1809    6.6940  -16.8010 C   0  0  0  0  0  0  0  0  0  0  0  0
    7.0847    0.4655  -16.9411 C   0  0  0  0  0  0  0  0  0  0  0  0
    4.3102    1.8514  -20.5765 C   0  0  0  0  0  0  0  0  0  0  0  0
    5.0688    4.5096  -17.9187 C   0  0  0  0  0  0  0  0  0  0  0  0
    5.0814    2.6326  -19.4972 C   0  0  1  0  0  0  0  0  0  0  0  0
    4.2240    3.7551  -18.9313 C   0  0  2  0  0  0  0  0  0  0  0  0
    5.4808    1.7299  -18.3977 N   0  0  0  0  0  0  0  0  0  0  0  0
    4.3476    5.7095  -17.5049 N   0  3  0  0  0  0  0  0  0  0  0  0
    7.7358    2.0334  -18.6109 O   0  0  0  0  0  0  0  0  0  0  0  0
    6.3992   10.6737  -22.5560 O   0  0  0  0  0  0  0  0  0  0  0  0
    3.8336    4.6343  -19.9878 O   0  0  0  0  0  0  0  0  0  0  0  0
    4.9324   -3.0077  -20.8361 F   0  0  0  0  0  0  0  0  0  0  0  0
    8.4523   -0.1288  -22.3282 F   0  0  0  0  0  0  0  0  0  0  0  0
    9.6811    7.2545  -18.2786 H   0  0  0  0  0  0  0  0  0  0  0  0
    8.9547    8.4433  -20.3363 H   0  0  0  0  0  0  0  0  0  0  0  0
    7.9963    6.4443  -16.6454 H   0  0  0  0  0  0  0  0  0  0  0  0
    4.1484    9.2962  -20.6430 H   0  0  0  0  0  0  0  0  0  0  0  0
    4.8436    7.8533  -19.2130 H   0  0  0  0  0  0  0  0  0  0  0  0
    3.6384   -0.7764  -20.3309 H   0  0  0  0  0  0  0  0  0  0  0  0
    6.7784    1.8183  -21.7528 H   0  0  0  0  0  0  0  0  0  0  0  0
    7.3208   -2.4552  -21.8109 H   0  0  0  0  0  0  0  0  0  0  0  0
    4.3068   11.2721  -22.3933 H   0  0  0  0  0  0  0  0  0  0  0  0
    8.2206    9.5624  -22.1023 H   0  0  0  0  0  0  0  0  0  0  0  0
    5.8020    9.0206  -13.6239 H   0  0  0  0  0  0  0  0  0  0  0  0
    4.4403    7.8525  -13.7128 H   0  0  0  0  0  0  0  0  0  0  0  0
    4.1085    9.6914  -15.3332 H   0  0  0  0  0  0  0  0  0  0  0  0
    5.7071    9.3463  -16.0762 H   0  0  0  0  0  0  0  0  0  0  0  0
    7.2200    7.5362  -14.9678 H   0  0  0  0  0  0  0  0  0  0  0  0
    6.5627    6.6297  -13.5632 H   0  0  0  0  0  0  0  0  0  0  0  0
    3.3215    7.4292  -15.9419 H   0  0  0  0  0  0  0  0  0  0  0  0
    3.8745    8.3304  -17.3941 H   0  0  0  0  0  0  0  0  0  0  0  0
    6.4918    5.3278  -15.7232 H   0  0  0  0  0  0  0  0  0  0  0  0
    4.8778    5.5554  -14.9684 H   0  0  0  0  0  0  0  0  0  0  0  0
    8.1710    0.3176  -16.8517 H   0  0  0  0  0  0  0  0  0  0  0  0
    6.6810    0.8087  -15.9771 H   0  0  0  0  0  0  0  0  0  0  0  0
    6.6072   -0.4852  -17.2209 H   0  0  0  0  0  0  0  0  0  0  0  0
    4.1375    2.5010  -21.4473 H   0  0  0  0  0  0  0  0  0  0  0  0
    3.3439    1.5190  -20.1695 H   0  0  0  0  0  0  0  0  0  0  0  0
    5.2555    3.8701  -17.0433 H   0  0  0  0  0  0  0  0  0  0  0  0
    6.0279    4.7940  -18.3761 H   0  0  0  0  0  0  0  0  0  0  0  0
    5.9805    3.0697  -19.9559 H   0  0  0  0  0  0  0  0  0  0  0  0
    3.3424    3.3282  -18.4307 H   0  0  0  0  0  0  0  0  0  0  0  0
    4.7602    1.2466  -17.9004 H   0  0  0  0  0  0  0  0  0  0  0  0
    3.6033    5.4348  -16.8961 H   0  0  0  0  0  0  0  0  0  0  0  0
    3.9674    6.1451  -18.3208 H   0  0  0  0  0  0  0  0  0  0  0  0
    3.3058    4.1580  -20.6180 H   0  0  0  0  0  0  0  0  0  0  0  0
  1  2  1  0  0  0  0
  1  3  2  0  0  0  0
  2 11  2  0  0  0  0
  3 13  1  0  0  0  0
  4  9  2  0  0  0  0
  4 12  1  0  0  0  0
  5 11  1  0  0  0  0
  5 13  2  0  0  0  0
  6 14  1  0  0  0  0
  6 15  2  0  0  0  0
  7 14  2  0  0  0  0
  7 16  1  0  0  0  0
  8 15  1  0  0  0  0
  8 16  2  0  0  0  0
  9 32  1  0  0  0  0
 10 12  2  0  0  0  0
 10 32  1  0  0  0  0
 11 12  1  0  0  0  0
 13 23  1  0  0  0  0
 14 25  1  0  0  0  0
 15 34  1  0  0  0  0
 16 35  1  0  0  0  0
 17 24  1  0  0  0  0
 17 29  1  0  0  0  0
 17 31  2  0  0  0  0
 18 19  1  0  0  0  0
 18 20  1  0  0  0  0
 19 21  1  0  0  0  0
 20 22  1  0  0  0  0
 21 23  1  0  0  0  0
 22 23  1  0  0  0  0
 23 30  1  0  0  0  0
 25 27  1  0  0  0  0
 26 28  1  0  0  0  0
 26 30  1  0  0  0  0
 27 28  1  0  0  0  0
 27 29  1  0  0  0  0
 28 33  1  0  0  0  0
  1 36  1  0  0  0  0
  2 37  1  0  0  0  0
  3 38  1  0  0  0  0
  4 39  1  0  0  0  0
  5 40  1  0  0  0  0
  6 41  1  0  0  0  0
  7 42  1  0  0  0  0
  8 43  1  0  0  0  0
  9 44  1  0  0  0  0
 10 45  1  0  0  0  0
 18 46  1  0  0  0  0
 18 47  1  0  0  0  0
 19 48  1  0  0  0  0
 19 49  1  0  0  0  0
 20 50  1  0  0  0  0
 20 51  1  0  0  0  0
 21 52  1  0  0  0  0
 21 53  1  0  0  0  0
 22 54  1  0  0  0  0
 22 55  1  0  0  0  0
 24 56  1  0  0  0  0
 24 57  1  0  0  0  0
 24 58  1  0  0  0  0
 25 59  1  0  0  0  0
 25 60  1  0  0  0  0
 26 61  1  0  0  0  0
 26 62  1  0  0  0  0
 27 63  1  0  0  0  0
 28 64  1  0  0  0  0
 29 65  1  0  0  0  0
 30 66  1  0  0  0  0
 30 67  1  0  0  0  0
 33 68  1  0  0  0  0
M  CHG  1  30   1
M  END
> <OMEGA_C>
xhIKQYU77UAJvJPBr4QDQZg2AUEUFZ3B5Y71QACZ3kAKUozB/zWhQEkjGkEhPKnBD6K8QNGJ+ECh
2JfBhfaTQCf4JL86BabB7QjNQJIpUz8GY6zBDLLWQLnly790t6zBT8OjQIMRKkGqq7DBSJXlQN8O
HEHBT6/BOgrbQFIlBEEAHp/BbozMQKzTEUEH5qfBsDrJQFc45UCBL47BUtCjQA65Jj+z+KfB1USt
QEL34b/oeKjBYJnmQO7tl77bpq7BKJfZQPmXwT9XG5DBkwSqQPYbBEF68WPBBPyaQCV4DkGq7XjB
GeLJQPG640D+QmjBxUyGQAQv+0CIq4PBEMS2QAYBwkApnnfB8MmlQEA11kCKaIbBhLXiQLpP7j5T
h4fBke2JQMH67D+tnKTBwTOiQFpOkEB3WY/BhpqiQK98KEAy+pvBByuHQL9TcEBXc5fB22KvQPxr
3T9lLpPBex+LQAK0tkDxCYzBVov3QHUjAkAM45TB/cXMQHTHKkGWcrTBkVl1QDJMlED05p/BWdad
QCF+QMBOsKbBkTwHQSXfA74XoLLByOUaQQsl6ECBOpLBi0YPQd4XB0GvsKLBd+H/QL43zkDgKYXB
i7+EQG+9FEHzJKXBwP6aQNdN+0BHtJnB7tpoQA7FRr+spaLB8+jYQI696D+kBa7B10PqQJwhHcCs
fK7BYdGJQIlaNEGQJbPBg4cDQZX/GEGG0bDBmKm5QI9UEEGF+1nBiBaOQM5H+0DRZ1vBoHiDQCYQ
G0HRVHXBSaC2QG6KFUESnIDB4AnnQOIo8UDue2/BSwHSQOUm1ECyAlnBkpNUQDm87UAdEn/BMvh3
QCVJBUEbJ4vBJ73PQI99qkAcknvBwhacQAnGsUCXfm/BdbwCQa2coj5g0IbBiMrVQNIJTz9Von/B
x23TQJNn+L5zxInBNGaEQAMQIED4k6vBFwJWQEZuwj8yW6HBuCyoQK2vd0C9WIjBfOTAQMhomUBN
ApPBkmC/QLh2RECXpZ/B9OlVQAMCVUArcpPBtFOYQIKRnz8YNI/B6ZtmQEDqrUBBK4fBOup9QGWk
xEDzkJLB8pJTQK4OhUCd8aTBDQIKQRE+7EB37JPBCHsDQfBnAUEQEJ3BmG/1QGhd3UB1jozBNY7o
QBWfHEGHyq/BW4i8QB4o+kDPspfBTnqTQP70Jb+4FabBOnXMQIaGUD/FmKzB1SnWQGI/zb/3v6zB
8WvPQJ+dKkG8X7XB4LSkQIrCGkE3Y6nBIQrbQEkABUHX757BhiTNQDS+EkG1xafBczDJQJA/5UCs
O47BJUijQL40JT9kJqjBZNesQOTC4r/TbajBqP/lQOJOnr7wza7BvEfZQBA1wz+AApDBCtOrQD7h
A0H0DWTBdgecQNg4DkFv6njBLTnLQLT34kARmmjBVqaGQMWp+kDGiYPBiVO3QDtnwUABz3fBWf6l
QD7Q1UCZc4bBJGviQHBI6D6qn4fByKSJQLCt7D+4wqTB22KiQPT/j0DOco/BjIqiQKnSJ0DDG5zB
bzqHQJWnb0BFhZfBsUSvQELR2j8AYJPBwlWLQH5utkDoHozBejv3QOhzBkDNXpTBw6CmQBpGKUEo
f7HBwPN0QBf7k0Ca8Z/BVLmdQBi3QMBiX6bBT/MGQXbaE76yxLLBBc4aQW9J5kCXi5LBg0APQRBU
B0HopqLBPK7/QKHOy0CzkYXBJhQFQTSBGUGsE7HBbeOaQBEQ/kCBapnB895nQOfeRr8CtaLBAlLY
QPg15z/nTK7B3rPpQKnqHcCzfK7BngLaQPP4NEF3w7vBiFKIQFNRFkG+/KTBlxS8QHwVEEH7UVrB
RyqQQMse+0DgMFvBTsCEQLLdGkElHnXBHGK3QFg5FUHdv4DBa0joQI4e8ECRC3DB5afTQEBT00DJ
aFnBHydWQLUn7UBMeH7Byih3QKcCBUEC9YrBuu7PQLSdqUCF7HvB0LKcQKh4sUDYf2/B3JoCQdDV
rz5onobBaffTQI7FPz8/6X/BN6jUQLoMAb/XP4rBATmEQJ8kIEDVtavBElRVQErFwj9ggaHBnneo
QModd0CUcojBDAXBQJsYmUCAI5PB7FO/QAS/Q0Anx5/BKUBWQGNAVEBEepPBMESYQH+pmD/Dp4/B
/eZmQKShrUC0RYfB4oV+QK14xEAxpZLB4gZTQJe6hECu96TBehkKQeUk60DS4JPBraMDQQA5AUGk
65zBTYf1QKkx3EDuiIzBi4zoQJsVHEGHzK/Ba9u8QBZG+kB4h5fBC6/MQFjWSz/Zi6zBGFuTQOgJ
Jr/x96XB6r3VQMH5z78enqzBo5rPQOwoKkGMYrXBtWelQJ+YG0G546jBq2bbQB0aBUFnuZ7Bl3rN
QNT2EkE3gKfBE13JQNHL5EDBJI7BdnOjQJu7Iz99GajBLO7lQGnaq74Qt67BYV+sQMHL47/+SqjB
xbvZQH4Jvz93bpDBZWmsQErPA0EaCGTBb62cQIIqDkF45njBaFbLQIxm4kAIjmjBlueGQMeh+kCS
e4PB1gW3QAL9wECvtHfB+felQJ6J1UBqZ4bBTbXiQOAMAz/VWofBheuJQB3a7D870qTBKkOiQKsI
kEDng4/BQaeiQHU2KEBKLZzBoSWHQKq/b0DPl5fBwX+vQPBE3D87a5PBpTeLQLFdtkCTHozBklz3
QCFGCECCXZTBwDinQEamKUHnMrHBaoN0QDgClEBaAaDBv+kGQVB/PL7zt7LBEsqcQDDlQMBTQKbB
L94aQRev5ECBjpLBtW8PQTgzB0FDe6LBVqL/QAcOykDRoIXBvukEQeFyGEGPQrHBpzybQDqP/kAq
OJnBGdDYQHBc5D94R67Bt6xnQC1cRL+qjaLBCgzpQOSqH8A5U67BFAvaQNMCNEF6/LvBD1iJQBPg
F0GuM6TBqAq9QMv0D0E2YlrBUq2QQLNj+0B0FVvBLaeFQE3tGkFuG3XBFhq4QB8EFUFbxoDBXoro
QOsn70C9B3DB/JvTQJG80kCGWFnB26NWQLRc7UCWRn7BR5p3QO79BEEz5orBG1PPQNTeqEDAynvB
MzKcQNZvsUBXYG/BkY4CQdtXBD8Kf4XBNH7QQLa1Tz9GN4DBnPrYQMXs/75azonBx8mEQL/cH0Ce
0avBKZtVQAHnwz+5maHBAHmoQHX7dkA8iojB9NTAQARFmUCNN5PBN2C/QIZsREDp15/BEjpWQOIN
VEAKjZPB1XKYQN0Inz+aZo/BRbJmQP5yrUChR4fBekB+QA+ZxECnnZLBdaRSQBK3hEDfBqXBR2jS
QF28CUHFJJ/Bhrf+QK+8BkGljZ3BZMu0QKAkAUESu5fBS7kvQRSr+UDdQpjBOgLvQBca4kCr3Y3B
x+rKQBZyOT/bjazBbOaRQF2/L7/KXaXBDj/RQAEE2r8zWK3BtCNBQfyE8EAq/pHBOGQkQUc54kCJ
DojBjGIGQasS9UBctJTBa/gcQQkS8EDi2JHB7lbDQDA46kCrxY7B5dSiQEKXFz95eafBATDiQMa/
2L6yb6/B9vGoQC+l6r+SYqjB38vZQNlctj+Lx4/BgLqxQCMdAEHHgGHBiXafQBV7DEFOwXTBDejP
QHui3EA8+WjBJdqGQGyy+kDo8oHBajy5QBnxvkDZFnnBekWkQLcZ10DwZ4bB5FbhQNTOqj5YcIfB
NHOKQBO16D8UFKTBGFuiQF6ekUBmgY/B7B6kQCIkJ0DKs5vBROiIQJ6vcUANr5fBWuKvQIVy3T8Q
qpLB1vuJQHG1t0AoJozBlHr4QH0n9D/BhpTBUBM6QWxu4kAxRYjBz4d9QPiMlEA0ZaDBbEYEQXpX
l77NUrTB1jeYQCDBQ8DCk6bBDBzHQKWTEkFFAqbBn8oKQVSsDUF/BqPBdu+SQOC7A0EX4ZjBQuwv
QVjSAkGGXaDBsSH6QA6PzEBwtYfBrrTXQG9V2j/OOa7BTI9mQGUdSb96cKHBwyfjQD1yJcAGi6/B
r61RQebj80CIWZTB1pQaQfvL2ECNWIHB5H7DQHNBC0FkLFfBPDCXQGT58UBBZljB9YyJQCz1GEGF
627B3vK5QL34E0E2mn3BlxDsQKwS60CdrnDB1S7aQA2+yUBiClvBm65YQLfR60CRBnvBo+JzQD+0
BkHrqojBo+TQQEoFqEBNS3/B99SfQOCErUCjknDBDecBQejz+j2+2YbB3VrVQB5RLD8CP3/BuUfQ
QCGvFL+Y1YnBcLGEQMwkHUDbGqvBtkJXQEy9wT8FmKDBmIOoQPBbekAhgojBPPrAQOWum0ChCpPB
PEDBQMiIQEDcfJ/B0C1XQDSWWEBy9ZPBuDaYQIDvqT9/WY7BXlVkQCFWrkDoWIfBtJN7QMy5xUCZ
qZLBQHNdQJg+hUBWmKXBkD4KQSQO8UB0N5PBpeUDQS9kBEGNLZzBGob1QHYC4EDdQozBdyOvQBku
B0ESlq/BRue8QFNM/UAicJfBzJXMQLAFST9CjqzBIn6TQKpDK7+P/KXBL7HVQB1W0b+i2azB60Kz
QGiYEUEQJbnBCwzjQI91IEE1Bq7BEf7bQKEVB0HVXp7BPTnPQDhKEEHRiKjBMDvJQPRz50CMC47B
j4KjQE50Hz9+B6jBmsvlQLnPr76x3K7BN3KsQO//5b+teKjBMmnZQP54vj+LGJDBHLSrQNxsA0Fz
kmPBU3WbQNQADkG6PXjBBT7LQGpX4kD9Z2jBYVSGQFl/+kCsWYPBfI63QOhEwUDZ+XfBQROmQKBc
1kBhdIbBDS7iQN/fzz71xYfByfKJQAdm6j99qqTBzI2jQNIqkUAx0o/B7tuiQOVMJ0AhEZzBo62H
QDuVb0DogpfBhF6vQJG92j8sRpPBOO6LQHoHt0DAT4zBvoj3QAvGAkDcjJTBXIbRQD9FIUE3AbjB
NuxyQP37kkA1+p/BzsUGQRqwPr4F8bLBQt6cQNA+QsBClKbBvAkbQePa60CEppHB4sMPQVFvC0GZ
YKHB+4H/QDQKzUDue4XBLYuYQN1c9UB/qq3BmV6bQKWHAEHgTZnBjKDYQBY94z+jPq7BfC5oQIH0
Sr9RhKLB2vfoQOUrIMAgqq7BaqahQCQQDkGvXcDBlRD8QA65KkHk/arBHPW7QH6OD0EZv1nBXTyQ
QDvY+UAxsVrBRumDQCdwGkFHLXTB9ZK2QHhRFUFBYIDBwVDoQMjc70Auq2/BRpzTQIMn0kAbWVnB
KPxVQMRQ7EBaLX7B5+l1QLsjBUE4r4rBslLQQDbPqUCZUHzBOgadQDbXsEBw1W/BvnYCQUuTiT5B
5YbBXWbUQBhuNT/UC4DBDobTQGopCr9eYIrBTnOEQBujHkBipavBrAJWQMDOwD+cX6HBnZarQLd1
ekA52ojBIijBQJMOm0DZ45PBTba/QE/NQkDnwJ/BcZdYQD9oVEDpJZPBvyeYQDy/nD+XXI/BmDpo
QNF/rUBnh4fBmXp/QLxtxUDqxZLBCRxQQIYPg0BJxaTB

> <OMEGA_E>
tLukPjgApT5gTqU+zJz3PkhfpD4=

> <OMEGA_NBR>
    195212

$$$$
50212924
  -OEChem-04172616093D

 74 76  0     1  0  0  0  0  0999 V2000
    8.5885    7.5427  -18.4984 C   0  0  0  0  0  0  0  0  0  0  0  0
    7.6559    7.0092  -17.5948 C   0  0  0  0  0  0  0  0  0  0  0  0
    8.1534    8.2640  -19.6218 C   0  0  0  0  0  0  0  0  0  0  0  0
    5.8441    7.8745  -18.9648 C   0  0  0  0  0  0  0  0  0  0  0  0
    6.4164    0.8311  -21.5823 C   0  0  0  0  0  0  0  0  0  0  0  0
    4.6330   -0.6444  -20.7987 C   0  0  0  0  0  0  0  0  0  0  0  0
    6.7120   -1.5873  -21.6584 C   0  0  0  0  0  0  0  0  0  0  0  0
    6.2663    7.2087  -17.7951 C   0  0  0  0  0  0  0  0  0  0  0  0
    6.7697    8.4524  -19.8605 C   0  0  0  0  0  0  0  0  0  0  0  0
    5.1290    0.6535  -21.0300 C   0  0  0  0  0  0  0  0  0  0  0  0
    7.2105   -0.2889  -21.8861 C   0  0  0  0  0  0  0  0  0  0  0  0
    5.4200   -1.7634  -21.1223 C   0  0  0  0  0  0  0  0  0  0  0  0
    6.7669    1.4706  -17.9978 C   0  0  0  0  0  0  0  0  0  0  0  0
    4.8810    8.8891  -15.5743 C   0  0  0  0  0  0  0  0  0  0  0  0
    6.4103    7.1095  -14.5741 C   0  0  0  0  0  0  0  0  0  0  0  0
    4.1999    7.8141  -16.4296 C   0  0  0  0  0  0  0  0  0  0  0  0
    5.7715    6.0513  -15.5076 C   0  0  0  0  0  0  0  0  0  0  0  0
    5.4488    8.2748  -14.2805 C   0  0  2  0  0  0  0  0  0  0  0  0
    5.1911    6.6827  -16.8133 C   0  0  2  0  0  0  0  0  0  0  0  0
    7.0304    0.3648  -16.9804 C   0  0  0  0  0  0  0  0  0  0  0  0
    5.9541    8.0873  -22.1951 C   0  0  0  0  0  0  0  0  0  0  0  0
    7.3046   10.1604  -21.6984 C   0  0  0  0  0  0  0  0  0  0  0  0
    4.9661    9.9766  -20.8373 C   0  0  0  0  0  0  0  0  0  0  0  0
    4.3200    1.8511  -20.5994 C   0  0  0  0  0  0  0  0  0  0  0  0
    5.0794    4.4927  -17.9208 C   0  0  0  0  0  0  0  0  0  0  0  0
    5.0828    2.6149  -19.5014 C   0  0  1  0  0  0  0  0  0  0  0  0
    4.2271    3.7349  -18.9262 C   0  0  2  0  0  0  0  0  0  0  0  0
    6.2601    9.1629  -21.1289 C   0  0  0  0  0  0  0  0  0  0  0  0
    5.4589    1.6911  -18.4131 N   0  0  0  0  0  0  0  0  0  0  0  0
    4.3579    5.6913  -17.5058 N   0  3  0  0  0  0  0  0  0  0  0  0
    7.7138    2.0430  -18.5272 O   0  0  0  0  0  0  0  0  0  0  0  0
    4.3774    7.7858  -13.4806 O   0  0  0  0  0  0  0  0  0  0  0  0
    3.8214    4.6150  -19.9761 O   0  0  0  0  0  0  0  0  0  0  0  0
    8.4527   -0.1172  -22.3913 F   0  0  0  0  0  0  0  0  0  0  0  0
    4.9367   -3.0072  -20.9089 F   0  0  0  0  0  0  0  0  0  0  0  0
    9.6452    7.3977  -18.3287 H   0  0  0  0  0  0  0  0  0  0  0  0
    7.9990    6.4431  -16.7414 H   0  0  0  0  0  0  0  0  0  0  0  0
    8.8777    8.6776  -20.3078 H   0  0  0  0  0  0  0  0  0  0  0  0
    4.7880    7.9437  -19.1802 H   0  0  0  0  0  0  0  0  0  0  0  0
    6.7907    1.8264  -21.7713 H   0  0  0  0  0  0  0  0  0  0  0  0
    3.6495   -0.7797  -20.3735 H   0  0  0  0  0  0  0  0  0  0  0  0
    7.3201   -2.4480  -21.8947 H   0  0  0  0  0  0  0  0  0  0  0  0
    5.7018    9.3422  -16.1497 H   0  0  0  0  0  0  0  0  0  0  0  0
    4.1447    9.6636  -15.3137 H   0  0  0  0  0  0  0  0  0  0  0  0
    6.6835    6.6266  -13.6243 H   0  0  0  0  0  0  0  0  0  0  0  0
    7.3150    7.5085  -15.0561 H   0  0  0  0  0  0  0  0  0  0  0  0
    3.3646    7.3802  -15.8604 H   0  0  0  0  0  0  0  0  0  0  0  0
    3.8147    8.2793  -17.3489 H   0  0  0  0  0  0  0  0  0  0  0  0
    6.5395    5.3134  -15.7829 H   0  0  0  0  0  0  0  0  0  0  0  0
    4.9570    5.5480  -14.9661 H   0  0  0  0  0  0  0  0  0  0  0  0
    6.0011    9.0552  -13.7365 H   0  0  0  0  0  0  0  0  0  0  0  0
    8.1151    0.2291  -16.8582 H   0  0  0  0  0  0  0  0  0  0  0  0
    6.5845    0.6422  -16.0138 H   0  0  0  0  0  0  0  0  0  0  0  0
    6.5811   -0.5745  -17.3353 H   0  0  0  0  0  0  0  0  0  0  0  0
    5.5879    8.5727  -23.1117 H   0  0  0  0  0  0  0  0  0  0  0  0
    6.8712    7.5232  -22.4203 H   0  0  0  0  0  0  0  0  0  0  0  0
    5.1855    7.3998  -21.8121 H   0  0  0  0  0  0  0  0  0  0  0  0
    6.8987   10.6422  -22.6001 H   0  0  0  0  0  0  0  0  0  0  0  0
    7.5291   10.9273  -20.9425 H   0  0  0  0  0  0  0  0  0  0  0  0
    8.2266    9.6184  -21.9559 H   0  0  0  0  0  0  0  0  0  0  0  0
    4.6276   10.4710  -21.7597 H   0  0  0  0  0  0  0  0  0  0  0  0
    4.1799    9.2976  -20.4756 H   0  0  0  0  0  0  0  0  0  0  0  0
    5.1760   10.7363  -20.0700 H   0  0  0  0  0  0  0  0  0  0  0  0
    4.1574    2.5137  -21.4622 H   0  0  0  0  0  0  0  0  0  0  0  0
    3.3488    1.5159  -20.2064 H   0  0  0  0  0  0  0  0  0  0  0  0
    5.2734    3.8556  -17.0453 H   0  0  0  0  0  0  0  0  0  0  0  0
    6.0347    4.7779  -18.3856 H   0  0  0  0  0  0  0  0  0  0  0  0
    5.9909    3.0515  -19.9425 H   0  0  0  0  0  0  0  0  0  0  0  0
    3.3525    3.3044  -18.4166 H   0  0  0  0  0  0  0  0  0  0  0  0
    4.7279    1.1935  -17.9462 H   0  0  0  0  0  0  0  0  0  0  0  0
    3.6198    5.4162  -16.8898 H   0  0  0  0  0  0  0  0  0  0  0  0
    3.9692    6.1218  -18.3204 H   0  0  0  0  0  0  0  0  0  0  0  0
    4.7253    7.4065  -12.6821 H   0  0  0  0  0  0  0  0  0  0  0  0
    3.2893    4.1379  -20.6020 H   0  0  0  0  0  0  0  0  0  0  0  0
  1  2  1  0  0  0  0
  1  3  2  0  0  0  0
  2  8  2  0  0  0  0
  3  9  1  0  0  0  0
  4  8  1  0  0  0  0
  4  9  2  0  0  0  0
  5 10  1  0  0  0  0
  5 11  2  0  0  0  0
  6 10  2  0  0  0  0
  6 12  1  0  0  0  0
  7 11  1  0  0  0  0
  7 12  2  0  0  0  0
  8 19  1  0  0  0  0
  9 28  1  0  0  0  0
 10 24  1  0  0  0  0
 11 34  1  0  0  0  0
 12 35  1  0  0  0  0
 13 20  1  0  0  0  0
 13 29  1  0  0  0  0
 13 31  2  0  0  0  0
 14 16  1  0  0  0  0
 14 18  1  0  0  0  0
 15 17  1  0  0  0  0
 15 18  1  0  0  0  0
 16 19  1  0  0  0  0
 17 19  1  0  0  0  0
 18 32  1  0  0  0  0
 19 30  1  0  0  0  0
 21 28  1  0  0  0  0
 22 28  1  0  0  0  0
 23 28  1  0  0  0  0
 24 26  1  0  0  0  0
 25 27  1  0  0  0  0
 25 30  1  0  0  0  0
 26 27  1  0  0  0  0
 26 29  1  0  0  0  0
 27 33  1  0  0  0  0
  1 36  1  0  0  0  0
  2 37  1  0  0  0  0
  3 38  1  0  0  0  0
  4 39  1  0  0  0  0
  5 40  1  0  0  0  0
  6 41  1  0  0  0  0
  7 42  1  0  0  0  0
 14 43  1  0  0  0  0
 14 44  1  0  0  0  0
 15 45  1  0  0  0  0
 15 46  1  0  0  0  0
 16 47  1  0  0  0  0
 16 48  1  0  0  0  0
 17 49  1  0  0  0  0
 17 50  1  0  0  0  0
 18 51  1  0  0  0  0
 20 52  1  0  0  0  0
 20 53  1  0  0  0  0
 20 54  1  0  0  0  0
 21 55  1  0  0  0  0
 21 56  1  0  0  0  0
 21 57  1  0  0  0  0
 22 58  1  0  0  0  0
 22 59  1  0  0  0  0
 22 60  1  0  0  0  0
 23 61  1  0  0  0  0
 23 62  1  0  0  0  0
 23 63  1  0  0  0  0
 24 64  1  0  0  0  0
 24 65  1  0  0  0  0
 25 66  1  0  0  0  0
 25 67  1  0  0  0  0
 26 68  1  0  0  0  0
 27 69  1  0  0  0  0
 29 70  1  0  0  0  0
 30 71  1  0  0  0  0
 30 72  1  0  0  0  0
 32 73  1  0  0  0  0
 33 74  1  0  0  0  0
M  CHG  1  30   1
M  END
> <OMEGA_C>
qWoJQdpd8UCu/JPB/Pz0QDJL4EAUwozBQXQCQVM5BEFo+ZzBvQK7QID7+0Dmt5fB0lLNQEnEVD+U
qKzBTEGUQCr5JL/MY6bBWMjWQNosy79ORK3BTIXIQJyt5kBaXI7BkKHYQOE8B0Fl4p7B1yCkQNZK
Jz9XPajBgbzmQH/ok77JFq/Bi3CtQJS44b9o+qjBfIrYQJI8vD9o+4/BHjGcQJ05DkFrMHnBAiHN
QFGB40CLL2nBvmWGQEIN+kDEb4PBWbC4QAqkwUAaH3jBg1yuQHxlBEEAfWTB3B2mQGTY1UCygYbB
2/jgQLzGuj7H14fBNoi+QJRlAUF5j7HBfb/pQM2QIkFKlq3BqOqeQPSfH0HFsqbBKj2KQBbw7D+U
y6TBeIqiQBzEj0C4XY/B5KWiQGVaJ0DTApzBX0SHQCsJb0DyaJfBvlLIQBybEkH/B6nB7q6uQKh1
2D8WTpPBHnSLQHQftkDkC4zBXtf2QPTAAkDCN5TBChSMQFwl+UC2sFfBl5J0QDmuk0Ajz5/BZT4H
QdAK8L1bIbPBjPmdQHd2QMBpRafB31IaQT+67EA1oZLB1ff/QI8tzkBz7oXBMgsOQWTXCkFudqLB
sjeZQOwy/kACcZnBvE3ZQJXG6T+bK67ByJBpQDmaR7/y/KLBED7qQKWrHMA/KK/B5nS2QIl5FUGF
MoHBRKGEQCyeGkHzBHXBBN/VQDoN1EAY/VnBYxTqQFpF8EDz5XDB01VXQHwq7EAsxH3BmyN0QB14
BEGOyorBVEPRQHMHqkD1hnzBYZ+eQJGJsUAVdW/BqAjAQPrhEEGSyFvBhNcBQX+Raj6c3YbBn7TS
QM9nJD84HIDBm5jSQNYPE7+ororB28+yQKYpCUHO5LjB5+DbQPC98EDTXLPBw++lQIDL7EA3f67B
0MHcQGFGKkHvzLTBsu7wQDbWLkE0iqfB/Z8DQfbkGUG4pa/BkhWUQGGJJ0HsE67BqcGFQNrCFEEd
zqPB5qGlQLnHK0FHj6DBqAmFQOXgIECosqvBSVJWQEwKwj+spqHBqb+oQJHCdkCtXIjBQhzBQFLk
mEC4FZPBsrW/QEtLQ0BLip/BoI9WQBF7U0AxVZPBvEqXQJXDmD/HkY/BZKpnQG5RrUBfHofBFgh+
QMHlw0BFkJLB/TWXQAYC7UAV6krBgIRSQNpphED20KTBWYMJQeYl8UDG8JPBcxH1QBIB4EDQwIzB
+p0CQfonBEHZ7JzB7T67QCnE+0A4wJfBNOiTQNytJL9wUKbBFhzNQObbUj+po6zBqozWQL40zL+3
CK3B6Z/IQNp05kDNYo7BXvjYQHohB0EN4p7BUtijQITiJj+xP6jBpyWtQOgB4r+axKjBDJDmQJxc
mb73767BiuPYQNgovj8XBpDBbjmcQGA1DkGtUHnBQRDNQPVz40D/Q2nBKnCGQBcK+kC9gYPB25i4
QDuUwUDELXjBSE+uQHRhBEHPmGTBsB2mQIjB1UDAi4bB+XnhQGJpxj5K1IfBVRG9QGh/AUEUbLHB
YNLqQGLxIUEdwq3BV2SgQL5aIEHzeqbB5B+KQKA07T8/1KTBYpSiQNfDj0Bza4/BVrGiQPp4J0D7
EJzBLj6HQK3UbkCga5fBJLHIQGifEkHB/ajBVwCvQPzG2D/VYJPBRXCLQMQKtkCBE4zBXRn3QNcg
BECcPpTBsvaLQP4p+UDz0lfB4M5zQHuCk0AezJ/Bd8OdQPFxQMDn56bB1D8HQY5nCL5L4LLB4mga
Qet/7ECRjZLBafD/QBHHzUAe74XBtz4OQdvVCkHeX6LBgnqZQM77/UBbgZnB77FoQLwWRr+G86LB
yhvZQKOL6D8KO67BOQPqQPNZHcBg2K7BdIi2QDlxFUE9QIHBlKyEQEidGkHwKnXBP8vVQBII1EAI
D1rB6wXqQLIu8EAZ/HDBfUFXQNo57EA28H3BIHN0QEZ2BEGm34rBoCLRQNfnqUA6jXzBGHueQOWN
sUAMhG/Ba/m/QArdEEEQ4lvBWRoCQehyhj75zIbBdPbSQBNkKj9+IIDBcHHTQBrEDr9CporBP1ex
QOphCUEZubjBDKHZQBHl70BmVbPB0vWjQMvu7UDtNa7B1tLdQJfEKUGO8LTBqEbzQCErLkGHyqfB
WMgDQQbAGEG666/BlniVQIFdKEEo063B88SGQH3zFUEmbKPBe3CoQIl0LEFJaqDBf/qEQGLmIEC+
vqvB1QhWQDzzwj9Dq6HBRwCpQILVdkC4a4jBcwrBQI78mEDVLZPBuJ+/QMCtQ0AioZ/BQtxWQI/2
UkBjTZPBob+XQJPPlz+ZrI/BLsVnQCorrUDNIofB69B9QPvTw0CnlJLB9wmXQGsG7UAxCUvBNqlR
QL8nhEAkx6TB

> <OMEGA_E>
EJhKPsDWSj4=

> <OMEGA_NBR>
    197877

$$$$
50212937
  -OEChem-04172616093D

 76 78  0     1  0  0  0  0  0999 V2000
    8.5958    7.6649  -18.4877 C   0  0  0  0  0  0  0  0  0  0  0  0
    7.6730    7.0842  -17.6011 C   0  0  0  0  0  0  0  0  0  0  0  0
    8.1461    8.4091  -19.5919 C   0  0  0  0  0  0  0  0  0  0  0  0
    5.8464    7.9468  -18.9535 C   0  0  0  0  0  0  0  0  0  0  0  0
    6.3152    0.8100  -21.5952 C   0  0  0  0  0  0  0  0  0  0  0  0
    4.6291   -0.6809  -20.6412 C   0  0  0  0  0  0  0  0  0  0  0  0
    6.6582   -1.6013  -21.6318 C   0  0  0  0  0  0  0  0  0  0  0  0
    6.2798    7.2482  -17.8089 C   0  0  0  0  0  0  0  0  0  0  0  0
    6.7588    8.5770  -19.8259 C   0  0  0  0  0  0  0  0  0  0  0  0
    5.0752    0.6174  -20.9507 C   0  0  0  0  0  0  0  0  0  0  0  0
    7.1099   -0.2992  -21.9277 C   0  0  0  0  0  0  0  0  0  0  0  0
    5.4157   -1.7903  -20.9919 C   0  0  0  0  0  0  0  0  0  0  0  0
    6.7700    1.4475  -17.9481 C   0  0  0  0  0  0  0  0  0  0  0  0
    5.4365    8.7794  -13.1773 C   0  0  0  0  0  0  0  0  0  0  0  0
    5.7793    5.9744  -15.5827 C   0  0  0  0  0  0  0  0  0  0  0  0
    4.1870    7.7456  -16.4378 C   0  0  0  0  0  0  0  0  0  0  0  0
    6.3653    6.9917  -14.6023 C   0  0  0  0  0  0  0  0  0  0  0  0
    4.8562    8.7867  -15.5669 C   0  0  0  0  0  0  0  0  0  0  0  0
    5.2078    6.6617  -16.8591 C   0  0  0  0  0  0  0  0  0  0  0  0
    7.0299    0.3815  -16.8870 C   0  0  0  0  0  0  0  0  0  0  0  0
    6.1069    8.2649  -22.2150 C   0  0  0  0  0  0  0  0  0  0  0  0
    7.2022   10.4349  -21.5308 C   0  0  0  0  0  0  0  0  0  0  0  0
    4.8497    9.9624  -20.8340 C   0  0  0  0  0  0  0  0  0  0  0  0
    4.2720    1.8042  -20.5077 C   0  0  0  0  0  0  0  0  0  0  0  0
    5.1242    4.5062  -17.9758 C   0  0  0  0  0  0  0  0  0  0  0  0
    5.0762    2.5822  -19.4575 C   0  0  1  0  0  0  0  0  0  0  0  0
    4.2440    3.7283  -18.9192 C   0  0  2  0  0  0  0  0  0  0  0  0
    6.2389    9.3043  -21.0809 C   0  0  0  0  0  0  0  0  0  0  0  0
    5.4254    8.1101  -14.3897 N   0  0  0  0  0  0  0  0  0  0  0  0
    6.4692    8.5752  -12.2831 N   0  0  0  0  0  0  0  0  0  0  0  0
    5.4577    1.6896  -18.3415 N   0  0  0  0  0  0  0  0  0  0  0  0
    4.3955    5.6951  -17.5794 N   0  3  0  0  0  0  0  0  0  0  0  0
    7.7192    1.9685  -18.5242 O   0  0  0  0  0  0  0  0  0  0  0  0
    4.5129    9.5199  -12.8626 O   0  0  0  0  0  0  0  0  0  0  0  0
    3.8254    4.5782  -19.9896 O   0  0  0  0  0  0  0  0  0  0  0  0
    8.3054   -0.1125  -22.5301 F   0  0  0  0  0  0  0  0  0  0  0  0
    4.9791   -3.0366  -20.7070 F   0  0  0  0  0  0  0  0  0  0  0  0
    9.6552    7.5389  -18.3198 H   0  0  0  0  0  0  0  0  0  0  0  0
    8.0266    6.5100  -16.7575 H   0  0  0  0  0  0  0  0  0  0  0  0
    8.8621    8.8555  -20.2660 H   0  0  0  0  0  0  0  0  0  0  0  0
    4.7894    8.0011  -19.1682 H   0  0  0  0  0  0  0  0  0  0  0  0
    6.6526    1.8081  -21.8325 H   0  0  0  0  0  0  0  0  0  0  0  0
    3.6854   -0.8237  -20.1358 H   0  0  0  0  0  0  0  0  0  0  0  0
    7.2644   -2.4554  -21.8955 H   0  0  0  0  0  0  0  0  0  0  0  0
    6.5708    5.2712  -15.8812 H   0  0  0  0  0  0  0  0  0  0  0  0
    4.9692    5.4236  -15.0822 H   0  0  0  0  0  0  0  0  0  0  0  0
    3.3681    7.2737  -15.8751 H   0  0  0  0  0  0  0  0  0  0  0  0
    3.7813    8.2314  -17.3375 H   0  0  0  0  0  0  0  0  0  0  0  0
    6.5602    6.4956  -13.6400 H   0  0  0  0  0  0  0  0  0  0  0  0
    7.3084    7.3847  -15.0098 H   0  0  0  0  0  0  0  0  0  0  0  0
    5.6572    9.2853  -16.1325 H   0  0  0  0  0  0  0  0  0  0  0  0
    4.1156    9.5334  -15.2445 H   0  0  0  0  0  0  0  0  0  0  0  0
    8.1134    0.2221  -16.7841 H   0  0  0  0  0  0  0  0  0  0  0  0
    6.6153    0.7142  -15.9239 H   0  0  0  0  0  0  0  0  0  0  0  0
    6.5478   -0.5604  -17.1879 H   0  0  0  0  0  0  0  0  0  0  0  0
    5.7364    8.7594  -23.1251 H   0  0  0  0  0  0  0  0  0  0  0  0
    7.0904    7.8154  -22.4166 H   0  0  0  0  0  0  0  0  0  0  0  0
    5.3998    7.4788  -21.9113 H   0  0  0  0  0  0  0  0  0  0  0  0
    6.7966   10.9280  -22.4265 H   0  0  0  0  0  0  0  0  0  0  0  0
    7.3051   11.1725  -20.7212 H   0  0  0  0  0  0  0  0  0  0  0  0
    8.1879   10.0057  -21.7632 H   0  0  0  0  0  0  0  0  0  0  0  0
    4.5154   10.4695  -21.7511 H   0  0  0  0  0  0  0  0  0  0  0  0
    4.1205    9.1866  -20.5575 H   0  0  0  0  0  0  0  0  0  0  0  0
    4.9314   10.6962  -20.0185 H   0  0  0  0  0  0  0  0  0  0  0  0
    4.0657    2.4539  -21.3711 H   0  0  0  0  0  0  0  0  0  0  0  0
    3.3221    1.4648  -20.0690 H   0  0  0  0  0  0  0  0  0  0  0  0
    5.3574    3.8962  -17.0906 H   0  0  0  0  0  0  0  0  0  0  0  0
    6.0587    4.7900  -18.4821 H   0  0  0  0  0  0  0  0  0  0  0  0
    5.9823    2.9872  -19.9320 H   0  0  0  0  0  0  0  0  0  0  0  0
    3.3759    3.3297  -18.3736 H   0  0  0  0  0  0  0  0  0  0  0  0
    6.4564    9.0293  -11.3922 H   0  0  0  0  0  0  0  0  0  0  0  0
    7.2298    7.9733  -12.5265 H   0  0  0  0  0  0  0  0  0  0  0  0
    4.7257    1.2309  -17.8377 H   0  0  0  0  0  0  0  0  0  0  0  0
    3.6361    5.4188  -16.9904 H   0  0  0  0  0  0  0  0  0  0  0  0
    4.0361    6.1349  -18.4025 H   0  0  0  0  0  0  0  0  0  0  0  0
    3.2703    4.0884  -20.5849 H   0  0  0  0  0  0  0  0  0  0  0  0
  1  2  2  0  0  0  0
  1  3  1  0  0  0  0
  2  8  1  0  0  0  0
  3  9  2  0  0  0  0
  4  8  2  0  0  0  0
  4  9  1  0  0  0  0
  5 10  1  0  0  0  0
  5 11  2  0  0  0  0
  6 10  2  0  0  0  0
  6 12  1  0  0  0  0
  7 11  1  0  0  0  0
  7 12  2  0  0  0  0
  8 19  1  0  0  0  0
  9 28  1  0  0  0  0
 10 24  1  0  0  0  0
 11 36  1  0  0  0  0
 12 37  1  0  0  0  0
 13 20  1  0  0  0  0
 13 31  1  0  0  0  0
 13 33  2  0  0  0  0
 14 29  1  0  0  0  0
 14 30  1  0  0  0  0
 14 34  2  0  0  0  0
 15 17  1  0  0  0  0
 15 19  1  0  0  0  0
 16 18  1  0  0  0  0
 16 19  1  0  0  0  0
 17 29  1  0  0  0  0
 18 29  1  0  0  0  0
 19 32  1  0  0  0  0
 21 28  1  0  0  0  0
 22 28  1  0  0  0  0
 23 28  1  0  0  0  0
 24 26  1  0  0  0  0
 25 27  1  0  0  0  0
 25 32  1  0  0  0  0
 26 27  1  0  0  0  0
 26 31  1  0  0  0  0
 27 35  1  0  0  0  0
  1 38  1  0  0  0  0
  2 39  1  0  0  0  0
  3 40  1  0  0  0  0
  4 41  1  0  0  0  0
  5 42  1  0  0  0  0
  6 43  1  0  0  0  0
  7 44  1  0  0  0  0
 15 45  1  0  0  0  0
 15 46  1  0  0  0  0
 16 47  1  0  0  0  0
 16 48  1  0  0  0  0
 17 49  1  0  0  0  0
 17 50  1  0  0  0  0
 18 51  1  0  0  0  0
 18 52  1  0  0  0  0
 20 53  1  0  0  0  0
 20 54  1  0  0  0  0
 20 55  1  0  0  0  0
 21 56  1  0  0  0  0
 21 57  1  0  0  0  0
 21 58  1  0  0  0  0
 22 59  1  0  0  0  0
 22 60  1  0  0  0  0
 22 61  1  0  0  0  0
 23 62  1  0  0  0  0
 23 63  1  0  0  0  0
 23 64  1  0  0  0  0
 24 65  1  0  0  0  0
 24 66  1  0  0  0  0
 25 67  1  0  0  0  0
 25 68  1  0  0  0  0
 26 69  1  0  0  0  0
 27 70  1  0  0  0  0
 30 71  1  0  0  0  0
 30 72  1  0  0  0  0
 31 73  1  0  0  0  0
 32 74  1  0  0  0  0
 32 75  1  0  0  0  0
 35 76  1  0  0  0  0
M  CHG  1  32   1
M  END
> <OMEGA_C>
jogJQRJH9UDa5pPBiYn1QGGx4kAlz4zBc1YCQYuLBkE9vJzB+xW7QOVL/kCtoJfBNxbKQGdZTz8P
w6zB+SGUQFdQLr8kIaXBqA/VQED4zL/sDa3B1vPIQKLx50CgeI7BMUjYQDM7CUGFm57B22eiQE8L
Hj/xmqfBD4TjQDYumb75a6/BiE2tQF4o5b9c76fBA6TYQGFIuT/BlY/B6fetQHN4DEEx1lLB4O+4
QO8tv0CmUnnB//uFQLfb90CxgIPBKLDLQES830DXomnBU2abQHiWDEEsEnnBXaamQLMs1UCJ34bB
tPTgQJZOwz59GIfBgWvDQO48BEFfuLHBBnjmQF/1JkEFP6zBpjCbQCZmH0ELrKbBJLSIQF/w5j/e
D6TBjPmjQAEzkEBvzo/BiXCiQGdDJUD1qJvBjc6HQNybbkB6WpfB9aTHQIveFEHGpajBIJ2tQMjC
AUFKPGbB/QPPQAw0CUFih0TBQKWuQLFD2D9bu5LBFKiMQE4+tkCaoozB0wP3QHz4+z+DMZTB1WmQ
QJRRGEFfzU3B8tN0QLeAkkCd6p/B1+IEQZx25r2iPbTBc1SfQM5XQsDwp6XB2XsaQX4+8UACj5LB
72wAQVRS0EBHD4bBVMsNQUiwDUG4IKLBxEKZQJIEAEGHWJnBPuLUQK9v5z/oqK7BvN1rQEbcUr8w
FqHBuXXoQKYkHcD2Ka/BykPSQN2tqECSGX7B9AOfQDyOrUCZUHHB3o5XQPzB6EBVAH7BewFyQJ2z
A0FEs4rB1OzRQODbz0CdPVrBGN7pQHNP7EBPKHDB7Ae1QIWQFEFoD4HBDLODQNGIGEGT6XPBg9AB
QSt6Yz7tRYbBlrDTQNXUNj9nyH7B34fRQDh2D7/CgInBqpC3QH8mDEErALnBteTiQPIX+kAxVbPB
f8usQKFS70BYSq/BF37ZQDnZLkGJabPB+sLpQHbCMkEGxaXBswEDQTwXIEEQG67BxH2QQASDJ0FS
Aq7BatuDQHb8EkG7daTBW86dQHAjK0H5JaDB1hmCQD4MHUAA+KrBgZ1UQJN9uz9HjaDBkm+rQCNb
eUCluYjBjODBQFhHmUBD25PBwG6/QPwtP0CvdJ/BHA9YQFQaVUAY/ZLBnprOQAp4EEFuRjbBQFrn
QAol/0CNbEjBBDmXQNeMnT+Ps47BerVoQDdnrUBP7IfB1CeBQM1QxEA/OJPB2ExRQGPUgkDoraTB

> <OMEGA_E>
IH2EPg==

> <OMEGA_NBR>
    199430

$$$$
50214045
  -OEChem-04172616093D

 68 71  0     1  0  0  0  0  0999 V2000
    8.5168    7.5586  -18.6026 C   0  0  0  0  0  0  0  0  0  0  0  0
    5.7567   10.3247  -22.9286 C   0  0  0  0  0  0  0  0  0  0  0  0
    8.0016    8.2636  -19.7036 C   0  0  0  0  0  0  0  0  0  0  0  0
    7.6426    7.0423  -17.6232 C   0  0  0  0  0  0  0  0  0  0  0  0
    6.4897    9.3239  -22.1505 C   0  0  0  0  0  0  0  0  0  0  0  0
    5.7459    7.9202  -18.8569 C   0  0  0  0  0  0  0  0  0  0  0  0
    6.3223    0.6868  -21.6163 C   0  0  0  0  0  0  0  0  0  0  0  0
    4.5766   -0.6788  -20.5874 C   0  0  0  0  0  0  0  0  0  0  0  0
    6.5656   -1.7377  -21.5206 C   0  0  0  0  0  0  0  0  0  0  0  0
    4.7699   10.9467  -22.2004 C   0  0  0  0  0  0  0  0  0  0  0  0
    6.6102    8.4452  -19.8137 C   0  0  0  0  0  0  0  0  0  0  0  0
    6.2392    7.2452  -17.7338 C   0  0  0  0  0  0  0  0  0  0  0  0
    5.0742    0.5843  -20.9659 C   0  0  0  0  0  0  0  0  0  0  0  0
    7.0684   -0.4738  -21.8898 C   0  0  0  0  0  0  0  0  0  0  0  0
    5.3180   -1.8391  -20.8724 C   0  0  0  0  0  0  0  0  0  0  0  0
    6.0340    9.2535  -20.8627 C   0  0  0  0  0  0  0  0  0  0  0  0
    6.7851    1.5458  -17.9902 C   0  0  0  0  0  0  0  0  0  0  0  0
    5.4344    8.0910  -14.1309 C   0  0  0  0  0  0  0  0  0  0  0  0
    4.8720    8.7948  -15.3750 C   0  0  0  0  0  0  0  0  0  0  0  0
    6.4385    6.9903  -14.5169 C   0  0  0  0  0  0  0  0  0  0  0  0
    4.1993    7.7643  -16.2859 C   0  0  0  0  0  0  0  0  0  0  0  0
    5.8193    5.9749  -15.5031 C   0  0  0  0  0  0  0  0  0  0  0  0
    5.2019    6.6677  -16.7537 C   0  0  0  0  0  0  0  0  0  0  0  0
    7.0306    0.5066  -16.9001 C   0  0  0  0  0  0  0  0  0  0  0  0
    4.3123    1.8320  -20.5944 C   0  0  0  0  0  0  0  0  0  0  0  0
    5.1528    4.5751  -18.0457 C   0  0  0  0  0  0  0  0  0  0  0  0
    5.1122    2.6337  -19.5518 C   0  0  1  0  0  0  0  0  0  0  0  0
    4.2828    3.7966  -19.0171 C   0  0  2  0  0  0  0  0  0  0  0  0
    5.4811    1.7564  -18.4225 N   0  0  0  0  0  0  0  0  0  0  0  0
    4.3847    5.6948  -17.5004 N   0  3  0  0  0  0  0  0  0  0  0  0
    7.7405    2.0737  -18.5495 O   0  0  0  0  0  0  0  0  0  0  0  0
    3.8821    4.6476  -20.0909 O   0  0  0  0  0  0  0  0  0  0  0  0
    8.2654   -0.3748  -22.5101 F   0  0  0  0  0  0  0  0  0  0  0  0
    4.8323   -3.0499  -20.5193 F   0  0  0  0  0  0  0  0  0  0  0  0
    4.6969   10.3379  -20.5797 S   0  0  0  0  0  0  0  0  0  0  0  0
    9.5825    7.4119  -18.5062 H   0  0  0  0  0  0  0  0  0  0  0  0
    5.9684   10.5502  -23.9634 H   0  0  0  0  0  0  0  0  0  0  0  0
    8.6657    8.6615  -20.4567 H   0  0  0  0  0  0  0  0  0  0  0  0
    8.0411    6.4900  -16.7849 H   0  0  0  0  0  0  0  0  0  0  0  0
    7.2909    8.7164  -22.5447 H   0  0  0  0  0  0  0  0  0  0  0  0
    4.6794    8.0353  -18.9827 H   0  0  0  0  0  0  0  0  0  0  0  0
    6.7043    1.6552  -21.9037 H   0  0  0  0  0  0  0  0  0  0  0  0
    3.6268   -0.7555  -20.0791 H   0  0  0  0  0  0  0  0  0  0  0  0
    7.1366   -2.6292  -21.7345 H   0  0  0  0  0  0  0  0  0  0  0  0
    4.1218   11.7179  -22.5898 H   0  0  0  0  0  0  0  0  0  0  0  0
    5.9424    8.8335  -13.4981 H   0  0  0  0  0  0  0  0  0  0  0  0
    4.6040    7.6376  -13.5697 H   0  0  0  0  0  0  0  0  0  0  0  0
    4.1330    9.5490  -15.0667 H   0  0  0  0  0  0  0  0  0  0  0  0
    5.6916    9.2859  -15.9201 H   0  0  0  0  0  0  0  0  0  0  0  0
    7.3155    7.4570  -14.9892 H   0  0  0  0  0  0  0  0  0  0  0  0
    6.7520    6.4581  -13.6067 H   0  0  0  0  0  0  0  0  0  0  0  0
    3.3773    7.2841  -15.7348 H   0  0  0  0  0  0  0  0  0  0  0  0
    3.7961    8.2794  -17.1703 H   0  0  0  0  0  0  0  0  0  0  0  0
    6.6047    5.2800  -15.8351 H   0  0  0  0  0  0  0  0  0  0  0  0
    5.0290    5.4136  -14.9832 H   0  0  0  0  0  0  0  0  0  0  0  0
    8.1130    0.3690  -16.7611 H   0  0  0  0  0  0  0  0  0  0  0  0
    6.5809    0.8513  -15.9572 H   0  0  0  0  0  0  0  0  0  0  0  0
    6.5744   -0.4496  -17.1959 H   0  0  0  0  0  0  0  0  0  0  0  0
    4.1597    2.4489  -21.4923 H   0  0  0  0  0  0  0  0  0  0  0  0
    3.3361    1.5527  -20.1713 H   0  0  0  0  0  0  0  0  0  0  0  0
    5.4711    3.9139  -17.2262 H   0  0  0  0  0  0  0  0  0  0  0  0
    6.0390    4.9590  -18.5723 H   0  0  0  0  0  0  0  0  0  0  0  0
    6.0217    3.0293  -20.0275 H   0  0  0  0  0  0  0  0  0  0  0  0
    3.4043    3.4024  -18.4853 H   0  0  0  0  0  0  0  0  0  0  0  0
    4.7453    1.2836  -17.9377 H   0  0  0  0  0  0  0  0  0  0  0  0
    3.6880    5.3286  -16.8835 H   0  0  0  0  0  0  0  0  0  0  0  0
    3.9408    6.1719  -18.2589 H   0  0  0  0  0  0  0  0  0  0  0  0
    3.3382    4.1585  -20.6971 H   0  0  0  0  0  0  0  0  0  0  0  0
  1  3  1  0  0  0  0
  1  4  2  0  0  0  0
  2  5  1  0  0  0  0
  2 10  2  0  0  0  0
  3 11  2  0  0  0  0
  4 12  1  0  0  0  0
  5 16  2  0  0  0  0
  6 11  1  0  0  0  0
  6 12  2  0  0  0  0
  7 13  1  0  0  0  0
  7 14  2  0  0  0  0
  8 13  2  0  0  0  0
  8 15  1  0  0  0  0
  9 14  1  0  0  0  0
  9 15  2  0  0  0  0
 10 35  1  0  0  0  0
 11 16  1  0  0  0  0
 12 23  1  0  0  0  0
 13 25  1  0  0  0  0
 14 33  1  0  0  0  0
 15 34  1  0  0  0  0
 16 35  1  0  0  0  0
 17 24  1  0  0  0  0
 17 29  1  0  0  0  0
 17 31  2  0  0  0  0
 18 19  1  0  0  0  0
 18 20  1  0  0  0  0
 19 21  1  0  0  0  0
 20 22  1  0  0  0  0
 21 23  1  0  0  0  0
 22 23  1  0  0  0  0
 23 30  1  0  0  0  0
 25 27  1  0  0  0  0
 26 28  1  0  0  0  0
 26 30  1  0  0  0  0
 27 28  1  0  0  0  0
 27 29  1  0  0  0  0
 28 32  1  0  0  0  0
  1 36  1  0  0  0  0
  2 37  1  0  0  0  0
  3 38  1  0  0  0  0
  4 39  1  0  0  0  0
  5 40  1  0  0  0  0
  6 41  1  0  0  0  0
  7 42  1  0  0  0  0
  8 43  1  0  0  0  0
  9 44  1  0  0  0  0
 10 45  1  0  0  0  0
 18 46  1  0  0  0  0
 18 47  1  0  0  0  0
 19 48  1  0  0  0  0
 19 49  1  0  0  0  0
 20 50  1  0  0  0  0
 20 51  1  0  0  0  0
 21 52  1  0  0  0  0
 21 53  1  0  0  0  0
 22 54  1  0  0  0  0
 22 55  1  0  0  0  0
 24 56  1  0  0  0  0
 24 57  1  0  0  0  0
 24 58  1  0  0  0  0
 25 59  1  0  0  0  0
 25 60  1  0  0  0  0
 26 61  1  0  0  0  0
 26 62  1  0  0  0  0
 27 63  1  0  0  0  0
 28 64  1  0  0  0  0
 29 65  1  0  0  0  0
 30 66  1  0  0  0  0
 30 67  1  0  0  0  0
 32 68  1  0  0  0  0
M  CHG  1  30   1
M  END
> <OMEGA_C>
3kQIQajf8UAh0pTB2Ta4QAUyJUHGbbfBuQYAQaQ3BEH6oJ3BT5D0QC1a4UA6/IzBQKvPQIouFUFH
NLHBE963QIxy/UDg2pbBiVDKQHnPLz8y7qzBK3OSQL3GLb8Ps6TBkBnSQA5u3r80KqzBGaOYQLYl
L0F7mrHBtobTQL4fB0F1gp7B0afHQAfZ50DN3o3Bs1+iQJCSFT8ouqfBpTDiQAib8r5gHq/B3iyq
QNBm67+t+qbBMxbBQHYOFEG95qbBeR/ZQCrexT/f64/BWuatQKF0AUFVGGLBc+ebQJa3DEEuAHbB
XgjOQFqw30BeRWjBp2CGQO90+ECHSYLBvze6QKcyv0CGDHjBu3WmQAle1UCSB4bBb/rgQHazAT9W
M4fBPf6JQPB/6j9UwaTBqOOkQN5mkkCYXZDBFJejQPyOKEAgapzB3AyJQFD7ckAbI5jBGGWvQCTT
4D89YZPBRE+MQHk7tkDWAIzBV7L3QL63BEBjZZTBhHR4QCS5lEA/uqDBBT8EQRrmv763FLTBHaKa
QKQxQ8CBJ6TBxUyWQCNoJUFGo6TBwVEZQT0u7UC8DJTBaP2+QHjNKEH5tL/Bu6YKQXCVCkE8p6PB
PKgAQeWtz0CMR4bBB0/pQE92C0GRW7TBrr2VQHmQAEGj3JfBQonWQFLe0z/YOq/BBx1oQMlmQb/x
oaDBKV/kQA1EKMAu4K3BY+WDQGd8O0Hgt7TBUSi+QDRWDUFF+FfBEVSTQIFn9EB+HVnBx0GEQNzI
GEE3EXHBryG2QB6TFEGnuH7B8RjqQMyf7kCX02/BEhDYQGqozkActVnBfSVYQBwX6UDHwXvB7vNy
QHB4BEG1XInB0FnTQCX2qECpXH3BK+2gQGA8rUAfu2/B/M4BQVTovD6zFobBepbSQBrsWT+qUH/B
2GHSQMc05r4okYnBYRyFQE+6HEA78KvB84JVQH29xj+8XqHB/BKvQGx9ekBDz4nBKD/BQDuwnkAF
lJTB+rHAQMPfQUBZOKDBY+BZQGXAWUDy4ZPBztmXQGVLpD9ZgI/B1AdsQDaEqkBsEYfBqzV8QPp/
xUA8EpLBl6RVQNYShUC1k6XBLMQKQTtg8EDNxZHBDpzUQHzrIUEQ8LfBKx8FQfr/AkHqL5vB62r1
QApT4ED5+orBidHkQJ7eHkF/D63B78q+QFOm+kAtKJfBJ5fGQOzFRT8/Ha3B7RCWQAqTR7+EIqTB
OujUQKKzz7/sjq3BneO3QKdWEkE05rrBc8veQIMHBUEi7p3BvIDJQLoH50DrZ43Bho2hQDjHCT/F
8KbBelTgQHGUnL65XbDBmKevQM8A7r9BfqfBS6zSQO1oDUEmPqjBTtfcQHkfxj8jUZDBWbenQAa4
BEHUeWPB1eCaQOU5D0FKwnjB1T3GQAKF40CCCWfB9b+FQNkt/UAPsYPBlnyzQMigwkDUAnfBGa6k
QFqM10AuN4bBHxDoQLjBFT/kRofBBjaHQOIw2j/pB6PBL2WjQFu0kkC+2Y/Bh1eiQP/ZJUA/kJvB
ILCHQD52cEBsW5fBReaxQKc25T9/c5LBniCLQB5XuED8VYzBHzb5QKWb+j+AQJbBgCV0QAI4kkBR
HaDBuvcBQdRLm73KN7bBrZakQFHpR8Af2qTBh1quQORtAEEkjrDBd2sbQckL7EC4vI/BJifeQIX4
LkHQEr3B6lkRQae1CUFhSaDB3jX+QCHGzkCO3oPBXDX8QPcfKUEKTKnBWJmdQL7U/UBPbZnBCivP
QNf34z+rV6/B+2FzQL/Idb8ia5/BsbToQBneHMAADrDBuxmpQC1dEUFqscLBg763QOexEEH5XlnB
8raKQKfh/UB+WFvBqCuEQA5OHEEMoXXBmZK3QPasFUGiU4DBZrzkQCep70BKZW3BmO3LQJSC00B0
n1fBPitSQIB08EBgZH/B0Nx4QIBeBkHSO4vBTSvMQOqTqkCBmHrBMMuXQIToskC1gm/BDFMFQZL/
wj7kYofB8T3fQF2chD+CHn/BhWHWQKF6tr4dXYjBuN54QBguE0Cg7KnBW2tWQPgEqj8yoZ7BXFSs
QJCcfkD+2ojB7X/AQM4QnUB2EZTBarS9QD0/P0A/GaDB7+9XQEpfV0CZ7pLBJCqcQI7ksj81fo3B
CeplQOlprkCzt4fBl9V+QLoGx0AP0JLB4olRQH+0gUAdzqTBmL4JQSzv8ECIpJPBaFOeQFpZK0HR
SbHBdM4CQUGcA0E5vZzBmIb1QAn24EDYQ4zBobqhQGmQG0HzsajBGZa7QCp4/ECOPpfBSuDJQKIr
ND8BBa3BkEKTQLNfMb+/maTBYPnSQA+7278RV6zBm7LEQJn8LkGjTrbBdHrZQPqpBkFjh57B4gXJ
QJBx50BA4I3BDlGiQKc8FD+4qqfBNDXiQPo4476xVK/BcHWrQNWD678A/qbBnebKQPYWFEFgbafB
QxjaQGZ6xz/oFZDBh0KrQLZkAUHlJGLBiPiaQP/dDEHJTnbBwanLQM6e30DA4GfBAmGGQNxf+UDu
yYLB8ZG4QCtzv0AlDnjBRV+mQE/L1UBBO4bBwiDjQEyCAD+/kofBdXiJQKwP6D8gkqTB0GSkQJc2
kkCRTZDBKyqjQBz9J0DxT5zBjFOIQLqCcUBH6ZfB6gewQAkR4D8YWpPB3jWMQGTbtkCeQIzBUA/4
QHMXB0DeoJTBc510QB+mk0Dwc6DBhRIEQayvpb61b7TB1MGcQGvNQ8DTH6TBRzDtQGlXH0Gt6LDB
NqMaQQYH7ED4TJLBZ9qAQOJFM0GXcrPB5VcOQTTYCUGhXaLBajoAQVqbz0CaT4XBwfuGQOhZFkFG
4qPBfcyZQPC3/0CA3pjBlXTVQC3w1j+uVq/BrlVqQMdSSb8Va6DB9pblQEdHJsCqJa7BPCTJQI0s
OkEzzLzBscu6QIkkDUE8l1fByvGPQG049EBBxFnBYRmDQEz1GEHGtnHBoPy1QBC8FEEFZX7BIjzo
QJGH7kDK9G7BCrvUQHFhzkDmN1nBkuJVQNVc6kA+gH3B+252QDgvBUHl+InBQtHRQH/zqEB98HzB
OoaeQB7ArUDiMHDBXfQCQb8wwT54qIbB9jPVQGtVUj8A0H/BOcbUQFbh6L44BIrBcNCDQLB/G0Aj
uKvBizNVQDQZwj8VEqHBqi6uQH95e0CMk4nBIPzAQDCZnUAkk5TBItC/QMFOQkD+OaDB+Z5ZQJVd
V0CUgJPBSv+YQLj7oT8DYY/BlUVqQB74q0CJbIfBHgV+QN4HxkCSeZLBTodRQBujg0BIMqXBD5gL
QVVS9UA2BI/BjDTAQFwCK0H1OrPBAV4HQeahBUGOlJjBwkf1QBnM5EAc44jBdIjAQPEdJEFZ9KfB
GQPCQAUZAUGKoJXBirmkQIJXaT2CLq7BzhOdQOkyZ7/oTpzBtcO/QEIMDMCzd6rBBXjaQJS4HkHl
kLnBPi3kQPfLCEFA7ZvB+BHKQMx760D/AIzBdy6WQEK6KD4uhaPBQjW5QM2Wj785q7HBWtOxQBzx
BMCkxp/Btu3bQJo7E0ENO6bBsjznQP8L5j9cGpPB6megQGAtAEGlEl/B/FuVQLYDDUFIYHPBQL3A
QIqc3EDjB2TBOoSDQNE2/EBSdoLBU+6wQNNIv0B9enbB3uijQAlV2EDupIXBnJD9QLN/jz9KqInB
rVeAQMI5uD/XuZ/Buc2lQARzlUAJ2JDBaw2hQAWEH0BNqpvBUxSJQDyncEA5upfB4M66QKno9D8J
5pLBdUuMQIpdukAk3IzBRjn8QNJ+B0Ae/5rBjTZ1QBobkED+zaDBnozGQKlqnb+K7rvBGki4QGM/
RsAX2ZjBy5P0QAYmC0EIF7LB3+YbQawe8UAGXIzBqmmtQKQ/OEGEMLbBoW0UQYalC0E0X53BZCr8
QKjJ0kB6t4HBonatQDJ5K0EjwqHBVW6hQIzfA0ESJ5jBvyegQCPfYD9qrLPB3GmSQK6hUb8VHpTB
23fPQN7GRcDrJK3BzmfeQDPrIEFCFMLB4EquQMoNC0GnGlPB/feCQMz78UCkoVjBhVl6QN8sGUFw
a2/BJXGyQFbtFEHiWXnBW2DfQMU060CNtGjBtmLFQHQUyUACk1XBBQpMQOsg7UCW+n7BKFZ4QIq7
B0HHmInBBcXKQPnSqEC3kXrBKeWUQINIrUC/zHDBFu4PQSFFgT/ebYvB94n5QPVt3j+jcILB/Vnv
QHQlBD4PTojBlVNcQCdw7z/KbKbBP5dUQIYymD8YKpnBNk6yQJMkg0AcAorBFqXAQG9CoUAotpXB
oiS2QH6OMUAPV6LBKipbQNQ6XEDQ3JLBcl6rQOu6yj/0Z4zBEExmQMTXrkBc1ojBgQiCQE4Cy0Bd
MZPBQa5RQNDyfEAnHqXB

> <OMEGA_E>
5EyCPtjYkD6Y44A+HMsmPw==

> <OMEGA_NBR>
    204056

$$$$
50214046
  -OEChem-04172616093D

 62 64  0     1  0  0  0  0  0999 V2000
    6.1269    9.2918  -21.0509 C   0  0  0  0  0  0  0  0  0  0  0  0
    8.5287    7.7195  -18.6524 C   0  0  0  0  0  0  0  0  0  0  0  0
    8.0259    8.4269  -19.7593 C   0  0  0  0  0  0  0  0  0  0  0  0
    7.6485    7.1662  -17.7005 C   0  0  0  0  0  0  0  0  0  0  0  0
    5.7522    8.0071  -18.9819 C   0  0  0  0  0  0  0  0  0  0  0  0
    4.5946   -0.6412  -20.8278 C   0  0  0  0  0  0  0  0  0  0  0  0
    6.4371    0.8028  -21.5294 C   0  0  0  0  0  0  0  0  0  0  0  0
    6.6679   -1.6200  -21.6597 C   0  0  0  0  0  0  0  0  0  0  0  0
    6.6361    8.5688  -19.9264 C   0  0  0  0  0  0  0  0  0  0  0  0
    6.2437    7.3210  -17.8387 C   0  0  0  0  0  0  0  0  0  0  0  0
    5.1331    0.6468  -21.0100 C   0  0  0  0  0  0  0  0  0  0  0  0
    5.3585   -1.7730  -21.1598 C   0  0  0  0  0  0  0  0  0  0  0  0
    7.2077   -0.3310  -21.8421 C   0  0  0  0  0  0  0  0  0  0  0  0
    6.7194    1.4077  -17.9378 C   0  0  0  0  0  0  0  0  0  0  0  0
    5.3963    7.9804  -14.1075 C   0  0  0  0  0  0  0  0  0  0  0  0
    4.8724    8.7513  -15.3286 C   0  0  0  0  0  0  0  0  0  0  0  0
    6.4384    6.9359  -14.5327 C   0  0  0  0  0  0  0  0  0  0  0  0
    4.2284    7.7823  -16.3248 C   0  0  0  0  0  0  0  0  0  0  0  0
    5.8661    5.9734  -15.5904 C   0  0  0  0  0  0  0  0  0  0  0  0
    5.2322    6.7089  -16.8265 C   0  0  0  0  0  0  0  0  0  0  0  0
    6.9266    0.2690  -16.9433 C   0  0  0  0  0  0  0  0  0  0  0  0
    4.3396    1.8535  -20.5814 C   0  0  0  0  0  0  0  0  0  0  0  0
    5.1217    4.5335  -17.9632 C   0  0  0  0  0  0  0  0  0  0  0  0
    5.0997    2.6061  -19.4742 C   0  0  1  0  0  0  0  0  0  0  0  0
    4.2575    3.7527  -18.9326 C   0  0  2  0  0  0  0  0  0  0  0  0
    5.7230    9.8887  -21.9675 N   0  0  0  0  0  0  0  0  0  0  0  0
    5.4263    1.6822  -18.3691 N   0  0  0  0  0  0  0  0  0  0  0  0
    4.4009    5.7371  -17.5508 N   0  3  0  0  0  0  0  0  0  0  0  0
    7.6949    1.9451  -18.4519 O   0  0  0  0  0  0  0  0  0  0  0  0
    3.8570    4.6083  -20.0028 O   0  0  0  0  0  0  0  0  0  0  0  0
    4.8363   -3.0072  -20.9877 F   0  0  0  0  0  0  0  0  0  0  0  0
    8.4677   -0.1818  -22.3091 F   0  0  0  0  0  0  0  0  0  0  0  0
    9.5951    7.5995  -18.5311 H   0  0  0  0  0  0  0  0  0  0  0  0
    8.7049    8.8600  -20.4789 H   0  0  0  0  0  0  0  0  0  0  0  0
    8.0463    6.6194  -16.8583 H   0  0  0  0  0  0  0  0  0  0  0  0
    4.6863    8.0997  -19.1297 H   0  0  0  0  0  0  0  0  0  0  0  0
    3.5961   -0.7592  -20.4334 H   0  0  0  0  0  0  0  0  0  0  0  0
    6.8420    1.7917  -21.6861 H   0  0  0  0  0  0  0  0  0  0  0  0
    7.2578   -2.4914  -21.9030 H   0  0  0  0  0  0  0  0  0  0  0  0
    5.8602    8.6885  -13.4050 H   0  0  0  0  0  0  0  0  0  0  0  0
    4.5555    7.4716  -13.6135 H   0  0  0  0  0  0  0  0  0  0  0  0
    4.1236    9.4873  -15.0007 H   0  0  0  0  0  0  0  0  0  0  0  0
    5.7093    9.2722  -15.8167 H   0  0  0  0  0  0  0  0  0  0  0  0
    7.3128    7.4531  -14.9546 H   0  0  0  0  0  0  0  0  0  0  0  0
    6.7460    6.3564  -13.6498 H   0  0  0  0  0  0  0  0  0  0  0  0
    3.3845    7.2765  -15.8328 H   0  0  0  0  0  0  0  0  0  0  0  0
    3.8597    8.3546  -17.1888 H   0  0  0  0  0  0  0  0  0  0  0  0
    6.6798    5.3262  -15.9495 H   0  0  0  0  0  0  0  0  0  0  0  0
    5.0890    5.3562  -15.1159 H   0  0  0  0  0  0  0  0  0  0  0  0
    8.0032    0.0795  -16.8212 H   0  0  0  0  0  0  0  0  0  0  0  0
    6.4908    0.5467  -15.9722 H   0  0  0  0  0  0  0  0  0  0  0  0
    6.4347   -0.6401  -17.3194 H   0  0  0  0  0  0  0  0  0  0  0  0
    4.1939    2.5208  -21.4437 H   0  0  0  0  0  0  0  0  0  0  0  0
    3.3604    1.5303  -20.1983 H   0  0  0  0  0  0  0  0  0  0  0  0
    5.3403    3.9134  -17.0813 H   0  0  0  0  0  0  0  0  0  0  0  0
    6.0640    4.8174  -18.4545 H   0  0  0  0  0  0  0  0  0  0  0  0
    6.0285    3.0148  -19.8988 H   0  0  0  0  0  0  0  0  0  0  0  0
    3.3815    3.3484  -18.4042 H   0  0  0  0  0  0  0  0  0  0  0  0
    4.6697    1.2253  -17.9015 H   0  0  0  0  0  0  0  0  0  0  0  0
    3.6453    5.4634  -16.9556 H   0  0  0  0  0  0  0  0  0  0  0  0
    4.0366    6.1820  -18.3689 H   0  0  0  0  0  0  0  0  0  0  0  0
    3.3149    4.1213  -20.6123 H   0  0  0  0  0  0  0  0  0  0  0  0
  1  9  1  0  0  0  0
  1 26  3  0  0  0  0
  2  3  1  0  0  0  0
  2  4  2  0  0  0  0
  3  9  2  0  0  0  0
  4 10  1  0  0  0  0
  5  9  1  0  0  0  0
  5 10  2  0  0  0  0
  6 11  1  0  0  0  0
  6 12  2  0  0  0  0
  7 11  2  0  0  0  0
  7 13  1  0  0  0  0
  8 12  1  0  0  0  0
  8 13  2  0  0  0  0
 10 20  1  0  0  0  0
 11 22  1  0  0  0  0
 12 31  1  0  0  0  0
 13 32  1  0  0  0  0
 14 21  1  0  0  0  0
 14 27  1  0  0  0  0
 14 29  2  0  0  0  0
 15 16  1  0  0  0  0
 15 17  1  0  0  0  0
 16 18  1  0  0  0  0
 17 19  1  0  0  0  0
 18 20  1  0  0  0  0
 19 20  1  0  0  0  0
 20 28  1  0  0  0  0
 22 24  1  0  0  0  0
 23 25  1  0  0  0  0
 23 28  1  0  0  0  0
 24 25  1  0  0  0  0
 24 27  1  0  0  0  0
 25 30  1  0  0  0  0
  2 33  1  0  0  0  0
  3 34  1  0  0  0  0
  4 35  1  0  0  0  0
  5 36  1  0  0  0  0
  6 37  1  0  0  0  0
  7 38  1  0  0  0  0
  8 39  1  0  0  0  0
 15 40  1  0  0  0  0
 15 41  1  0  0  0  0
 16 42  1  0  0  0  0
 16 43  1  0  0  0  0
 17 44  1  0  0  0  0
 17 45  1  0  0  0  0
 18 46  1  0  0  0  0
 18 47  1  0  0  0  0
 19 48  1  0  0  0  0
 19 49  1  0  0  0  0
 21 50  1  0  0  0  0
 21 51  1  0  0  0  0
 21 52  1  0  0  0  0
 22 53  1  0  0  0  0
 22 54  1  0  0  0  0
 23 55  1  0  0  0  0
 23 56  1  0  0  0  0
 24 57  1  0  0  0  0
 25 58  1  0  0  0  0
 27 59  1  0  0  0  0
 28 60  1  0  0  0  0
 28 61  1  0  0  0  0
 30 62  1  0  0  0  0
M  CHG  1  28   1
M  END
> <OMEGA_C>
UA/EQDCrFEEzaKjBX3UIQfkF90AQOJXBR2oAQZvUBkH3Ep7B3MD0QDBR5UCQmo3BuRG4QPIcAEH9
2pfBwQaTQGYmJL9Gn6bBB/3NQAyDTT81PKzBbF/VQC1dz78DR63BK1vUQK0ZCUFXaZ/BDczHQGtF
6kCYtY7BFUKkQBqUJT+OFKjB3nirQFjx4r9aR6nBlKXmQDJ0qb6tvK7BPgXXQMAwtD+rgI/Bfq6s
QLFf/0BXuGHBDeubQC8FDEEUQnXBxgfOQB/z3UAEhmjBKU+HQEUI+UA0mYLBt7a7QFQmv0BCcnnB
+m2nQJSv1kCpnIbBeqbdQIC/iT7Zi4fBr92KQJ8/7T+0pqTB2uSjQAYSkUCgtI/BGjGjQJjJJkAU
y5vBoj2IQNIrcED1dZfBLSO3QAI4HkFiva/BcKStQDtT1z/o85LBL9SMQDqWt0D2Z4zBbDz2QNf3
+D9knZPB6Nh2QCN3k0CrBaDBy8KaQOx1QMDc5qfB0XsHQWwsOr4QebLBi4UZQYMv80C3P5TBPUcL
QaDCDUG91KPBjr0AQXTS00C83YbBcPaVQFyYAUGKCZnBbyZmQARdQr+ld6PBZfHaQB1W5T87fa3B
qD/oQO5yH8A/Oa/BuYa7QAMEC0EDe1bBZ8aRQP8W70Dc0FnBc/SDQNDLF0HpAnDByLK2QAhbFEFL
EX3BjwLqQCmA7kAARm/BDN/XQKlny0CBZVrB3JtYQPDY6EBaU33ByQR3QIKsBUGagonB8cDVQI9w
qkAtMX/BstiiQENmq0CR2nHBLg0AQcnToj3EkYbB2bTPQBL1Cz8Xjn/B9ejNQDDgI78UjorBFTSG
QJ1UIUCfjKvBnxBXQDriwz8NlqHBo+OqQEF1ekB7pojBgAzCQMEnmkDZopPBrunAQIryQECrMJ/B
gWpYQMlMVkDbO5PB+W2VQA7VnD8/No/BkkxpQHXUrkAjpYfBeCuBQODSxUB285LBmCdUQJDhg0Do
5aTBgK3AQHPwFkGibafB+AIIQcyv9kBrr5XBJx//QPRZB0FJPJ7BS4z0QGRh5EDh+I3BnBS3QL1U
AEFEpJfBT2zOQKSeSD9YLKzBU3eSQE6kIb9NwabB3QDVQPNR0r+A9qzBsYPSQGzfCUGRLJ/B3ILH
QFbb6UBKvo7BbEakQPsYJj+mPajBMeLmQA6Cub4ybq7B5bqqQCRL4796K6nB7qPWQOkttD+ck4/B
IVGtQKAmAEE88GHB2N+bQMolDEEUhnXBhavOQNTQ3kA8vmjB1SuHQL6P+ECphoLB9x+8QFxfv0CC
UHnBjXunQORQ1kAhj4bBhfXcQFQUkj4fdofBKzuLQJJO7z9K8KTB0tWjQAqTkEDmno/BzVGjQBMG
J0Cm9pvBAm6IQEdWcEBtkpfBp5ixQMLgIUFh+a3BpmqtQJhx1j/cK5PBwsuMQMIHt0ApRYzBtwT2
QLwt+T+1mJPBjIB4QBQVlEBsFaDBSNAHQTRUbr7K6rHBdoiZQDslQMA8uafBBBkZQfE/8kCBBpXB
jiEKQaWUDkFXCaTBwe0AQUoW0kDFcIfBAN+UQFm3AUG4p5jBYtrbQGIM4j8Dcq3B0WpkQB3aO7+q
w6PBM7PnQA6EIcDRvq7Bol28QEeuC0GB+VbBlrmSQIce8EDZuFnBLtaDQJTlF0FkTXDBR022QMp6
FEGkoX3Be13qQOlS70Aqzm/BwgDZQIbAzEBcjFrBL0hZQLJG6EAr1nzBA1x1QGAoBUEMdInBJxnW
QMCJqkDmBX/BMXGjQH7Pq0BJdHHBPmH/QLzk2z0gS4bB4FLOQF+bEj8/l3/BAbjNQEkwIr9ScYrB
+XKHQMF5IkDz26vBcgFXQBURyD+bBaLBYlCqQCCYeEC7nIjBNEPCQB+zmUBmaZPBizHBQFc7QUD5
RJ/BqitYQMhhVkA8fJPB9xaVQCtZmj80lI/BQ7lpQGU0rkCscIfBKcuAQHQsxUD3yZLBhC1WQJ3d
hEBWEqXBs5obQfpM+UBOzZbBgk7JQFIJDUGge5/BuCX2QHkwC0FmTZ/B5YSwQMHdAkFhiJfBYinx
QF6J6kDsFo/BOt/OQAhtQz9Wu6vBtqeRQA4oIr9D7KbBWtrTQPW11L8WLa3B+e8EQQxL/kBdIJfB
pBTEQCY07kA+Fo/B+nOkQNKnIz9e96fBiK/mQIiaxr7RN67BIEKpQMkd5L/tlanBqo7VQBDyqj81
Po/BBsavQLor+EDPBmDB0AKdQDXbCUHzEXLBjhfSQGAM2kB+AmnBsaqHQN4I90D8bYHBuuy/QPzB
vUAT83rBy7OnQHoo10BVmIbBlnTaQGy/Uj6XHYfB77OLQLRd7j+io6TBPs+jQNJDkUD0o4/B6qyj
QKN3JkCVpJvBBvOIQDxicUAwm5fBkA8uQYh+9ECIPpbBzZ6sQCSg1j/4rZLBgd+MQDsXuEACY4zB
kpT1QCCQ5z9Hd5PBZK98QAZUlEDIS6DBgNYHQURJir6Gi7HBQxGXQMQaQMA5majBh9u5QNI5FkGO
sqXB1KcEQdbqEkGnXaXBxg+OQHoGBEHS25fByWsAQbJm2EDR3YjBnf/cQA/s3j85s6zBH09iQIAI
Or/OFKTBtRDmQFn7IsA3Ia/BQTm+QMGNBkG53FPBExOWQFEe5UBQr1jBrRSFQBHjFEEuXmvBc9O2
QGsbE0F/qHnB76LsQKVC7UBVcG/BaQHeQGxzxUBAClzBl8NbQJa95EADH3vBTB90QB6zBUEQwIfB
9p7aQO8nrEBLJ4HBHlKpQArspkAdw3PBXZD8QDhiG71FJ4bBPDDNQHNEBj88v37BpyHJQNvgLr+k
9onBiROIQLIeIkDHjavB6M9XQBSaxz+KvqHBp9mpQEBRekCyk4jBaXbCQMMlmkBgWpPBlQPCQIwu
P0Dx3J7B/tRXQHIZWUDyqZPBl7KTQNbFoj9B2Y7BQS5pQJuRr0DJoYfBK1+BQI1MxkD285LBWuRa
QCgshUAOWqXBUOoaQZlp+kBcWJfBF0XHQBGmDUH7cp/BVR/0QEXZC0FGfZ/BOR2vQGhEA0HVcZfB
sWTwQBDw6kD5aI/Bx3+RQGXFIr9r+6bBCbPOQOWTQj9z06vBIdjTQCI/1b8lIK3BvDwEQTM0/0Cv
fJfBMFTDQPWf7kDNKY/BW0GkQBcpIz91E6jBmzmpQAqZ5L/QjanBPZnmQGCuyL74O67BSyrVQIgC
qz/EMI/BF6ywQGt9+EBxHWDBst+cQAnQCUFMCXLBRwHTQJan2kBqWGnB42uHQKl+9kBeTYHBzZTA
QH0MvkC8GnvBBaSnQIQh10DQmYbBc/HZQDRfUD5IFofB8ZmLQKpt7j+6vKTBxSakQIctkUCFq4/B
aKujQO0ZJkDptpvBTDaJQDZUcUAhpZfBAWQtQU+19UAi6ZbB41isQPAF1T/1yJLBbvWMQPXIt0Bu
V4zBnUj1QIxg6T/3Q5PBinZ9QNZplEDzUaDBQDGXQCRrQMA1eKjB7NIHQV67jL4/hLHBtFK3QAT3
FkFiiaXBxmcDQTXDE0HplaXBrqKMQNdoBEEBmpfBVEcAQQZj2EDCV4nBJudhQHJ2Or8+LKTBX8jc
QGN63j+r16zBPiPmQIdJI8CGA6/BG1i/QOjcBkH2JVTBdH2XQNE35UCLeVjBZ9OEQJGsFEFLKmvB
RCK2QAA+E0EP3nnBdyLtQEcb7kCxA3DBP43fQFlCxkABclzBooBcQKDI40AmnXrB2v5xQOJHBUGd
kYfBiTfbQMGfrEBpT4HBaWGqQFMSp0Dot3PBGhL8QE9+7LzW/oXBCRDMQIBNAz/Lxn7BsCDJQE6T
ML+KCYrBeheIQJ9QIkDCo6vBlYFXQH8NyD+E26HB5XOqQNPieUDOpIjBTa3CQC9XmkDXZ5PB/xzC
QHlzPkB96p7BxjtYQJlUWUA0tJPBrVOTQGRDnz9sGY/B7eRpQLP7rkBpiIfB1w+BQC7oxUAR4JLB
mZdbQCRdhUA2Y6XBUkghQW/v9EDY7I/B5t7dQOhhB0HW5Z7B6MsEQRkDBkEKR5zBAsa+QH7s/UAb
5pfBxDv3QEfx5UCC3IvB08GKQKDtOz0aWbLBkonEQEBi4r0WTKXBRXfIQG//sb9d1bXBPB4LQTOq
90BFu5LB5O/KQHvR6UDuLY7B/NicQF4e5T78fKjB/YqgQGs8Xr+VALnBH2XaQERFgb9d96vBe1na
QCsD6D/8AI3BdHmrQMKKAUH072HBS5KcQL51DUFvLXbBBZzLQNKY30B2k2fB1TeIQBR9+0CxIYPB
SFy5QLx8wEBvsXjBhtWnQOV110AiqIbBtvPnQLSkZz9VxIPBzv2DQBzdtD+oUKHBVwOmQE8ekkC1
p5DBWlqhQAkYGEC8y5rBM6WIQKwZaUCvMpfBFkozQZe58kD3i43B0V6xQNR+1D9zPpHBjemNQC0Q
uECZ5ozBo5f0QHKCJECJE5HBfJ1zQA+1i0CgVaDB6x+PQNRxn78tcMLBfE8AQd0pwb9C0qjB3SHU
QMHmDkFFSabBVK8QQS6+DEFvkaHBLUudQBQsAEFz9JnBEKUAQdwu1UBavITBljtYQC6k4T7hy7TB
8RzSQC8EIz59pp3ByUXZQKBBBcB6+LrB3dW6QJIADUE8AlfB1YWPQGKy9EANBVrBQ8yEQCWiGUHS
rHHBuUS4QEJJFUGZtX3BKADpQB9g7kBA1m3B+SXTQPlYzUB9AVnBUSxYQJqW7ECqwH7BLUd8QMu8
BkGXQ4rB+P/SQLJlqkBpiH3B1gOfQAk7rkBDa3HBg/sEQdRpiT9P8oHBGo/UQD4wkT/bT3nBBBzj
QKweFr4gDYbBwmJdQPAlAUCfYabB525hQNPrUj9DqJvBnXGyQJp9gEBts4nB4N3AQEulnEAEs5XB
dGi8QAWYK0DL3p/BEANbQNFlVUD/KZLBXnqdQLIYgz/QlY3B2ctrQLXurUBjQojBcfyBQOkXx0Cf
TZPBlChPQKnOc0DKeqTB

> <OMEGA_E>
aL94PvBMez7g8MA+kAfEPuQ/JD8=

> <OMEGA_NBR>
    209361

$$$$
50214052
  -OEChem-04172616093D

 67 70  0     1  0  0  0  0  0999 V2000
    8.6103    7.3940  -18.4791 C   0  0  0  0  0  0  0  0  0  0  0  0
    8.1934    8.0262  -19.6585 C   0  0  0  0  0  0  0  0  0  0  0  0
    7.6599    6.9571  -17.5413 C   0  0  0  0  0  0  0  0  0  0  0  0
    5.8693    7.7656  -18.9788 C   0  0  0  0  0  0  0  0  0  0  0  0
    6.4001    0.8127  -21.5811 C   0  0  0  0  0  0  0  0  0  0  0  0
    4.6544   -0.6652  -20.7205 C   0  0  0  0  0  0  0  0  0  0  0  0
    6.7099   -1.6048  -21.6379 C   0  0  0  0  0  0  0  0  0  0  0  0
    5.2003    9.7161  -21.1056 C   0  0  0  0  0  0  0  0  0  0  0  0
    6.9273   10.5045  -22.6939 C   0  0  0  0  0  0  0  0  0  0  0  0
    6.8179    8.2176  -19.9092 C   0  0  0  0  0  0  0  0  0  0  0  0
    6.2749    7.1675  -17.7686 C   0  0  0  0  0  0  0  0  0  0  0  0
    5.1326    0.6334  -20.9853 C   0  0  0  0  0  0  0  0  0  0  0  0
    7.1917   -0.3059  -21.8976 C   0  0  0  0  0  0  0  0  0  0  0  0
    5.4387   -1.7830  -21.0552 C   0  0  0  0  0  0  0  0  0  0  0  0
    6.4021    9.0473  -21.0389 C   0  0  0  0  0  0  0  0  0  0  0  0
    6.8041    1.4618  -18.0507 C   0  0  0  0  0  0  0  0  0  0  0  0
    5.3953    8.2027  -14.1983 C   0  0  0  0  0  0  0  0  0  0  0  0
    4.9508    8.8933  -15.4970 C   0  0  0  0  0  0  0  0  0  0  0  0
    6.3450    7.0317  -14.4927 C   0  0  0  0  0  0  0  0  0  0  0  0
    4.2445    7.8827  -16.4088 C   0  0  0  0  0  0  0  0  0  0  0  0
    5.7151    6.0255  -15.4825 C   0  0  0  0  0  0  0  0  0  0  0  0
    5.1802    6.7011  -16.7874 C   0  0  0  0  0  0  0  0  0  0  0  0
    7.0724    0.4653  -16.9268 C   0  0  0  0  0  0  0  0  0  0  0  0
    4.3194    1.8315  -20.5621 C   0  0  0  0  0  0  0  0  0  0  0  0
    5.0621    4.5382  -17.9477 C   0  0  0  0  0  0  0  0  0  0  0  0
    5.0891    2.6347  -19.4973 C   0  0  1  0  0  0  0  0  0  0  0  0
    4.2226    3.7634  -18.9477 C   0  0  2  0  0  0  0  0  0  0  0  0
    7.3025    9.4459  -22.0242 N   0  0  0  0  0  0  0  0  0  0  0  0
    5.4854    1.7471  -18.3859 N   0  0  0  0  0  0  0  0  0  0  0  0
    4.3337    5.7307  -17.5036 N   0  3  0  0  0  0  0  0  0  0  0  0
    7.7431    2.0532  -18.5733 O   0  0  0  0  0  0  0  0  0  0  0  0
    3.8242    4.6244  -20.0145 O   0  0  0  0  0  0  0  0  0  0  0  0
    8.4134   -0.1328  -22.4501 F   0  0  0  0  0  0  0  0  0  0  0  0
    4.9734   -3.0274  -20.8076 F   0  0  0  0  0  0  0  0  0  0  0  0
    5.3163   10.9957  -22.2551 S   0  0  0  0  0  0  0  0  0  0  0  0
    9.6630    7.2427  -18.2911 H   0  0  0  0  0  0  0  0  0  0  0  0
    8.9252    8.3670  -20.3759 H   0  0  0  0  0  0  0  0  0  0  0  0
    7.9856    6.4574  -16.6409 H   0  0  0  0  0  0  0  0  0  0  0  0
    4.8166    7.8773  -19.1926 H   0  0  0  0  0  0  0  0  0  0  0  0
    6.7614    1.8080  -21.7936 H   0  0  0  0  0  0  0  0  0  0  0  0
    3.6866   -0.8018  -20.2610 H   0  0  0  0  0  0  0  0  0  0  0  0
    7.3152   -2.4642  -21.8856 H   0  0  0  0  0  0  0  0  0  0  0  0
    4.3206    9.4761  -20.5269 H   0  0  0  0  0  0  0  0  0  0  0  0
    7.5394   11.0099  -23.4263 H   0  0  0  0  0  0  0  0  0  0  0  0
    5.9137    8.9345  -13.5613 H   0  0  0  0  0  0  0  0  0  0  0  0
    4.5077    7.8219  -13.6718 H   0  0  0  0  0  0  0  0  0  0  0  0
    4.2584    9.7133  -15.2558 H   0  0  0  0  0  0  0  0  0  0  0  0
    5.8325    9.2984  -16.0152 H   0  0  0  0  0  0  0  0  0  0  0  0
    7.2749    7.4266  -14.9279 H   0  0  0  0  0  0  0  0  0  0  0  0
    6.5731    6.5112  -13.5508 H   0  0  0  0  0  0  0  0  0  0  0  0
    3.3623    7.4857  -15.8854 H   0  0  0  0  0  0  0  0  0  0  0  0
    3.9256    8.3943  -17.3289 H   0  0  0  0  0  0  0  0  0  0  0  0
    6.4781    5.2833  -15.7600 H   0  0  0  0  0  0  0  0  0  0  0  0
    4.8767    5.5196  -14.9813 H   0  0  0  0  0  0  0  0  0  0  0  0
    8.1535    0.4157  -16.7304 H   0  0  0  0  0  0  0  0  0  0  0  0
    6.5488    0.7907  -16.0157 H   0  0  0  0  0  0  0  0  0  0  0  0
    6.7078   -0.5291  -17.2238 H   0  0  0  0  0  0  0  0  0  0  0  0
    4.1302    2.4717  -21.4364 H   0  0  0  0  0  0  0  0  0  0  0  0
    3.3611    1.4924  -20.1418 H   0  0  0  0  0  0  0  0  0  0  0  0
    5.2784    3.8984  -17.0795 H   0  0  0  0  0  0  0  0  0  0  0  0
    6.0063    4.8432  -18.4227 H   0  0  0  0  0  0  0  0  0  0  0  0
    5.9873    3.0678  -19.9617 H   0  0  0  0  0  0  0  0  0  0  0  0
    3.3449    3.3374  -18.4397 H   0  0  0  0  0  0  0  0  0  0  0  0
    4.7608    1.3253  -17.8409 H   0  0  0  0  0  0  0  0  0  0  0  0
    3.5960    5.4424  -16.8931 H   0  0  0  0  0  0  0  0  0  0  0  0
    3.9445    6.1818  -18.3068 H   0  0  0  0  0  0  0  0  0  0  0  0
    3.2994    4.1356  -20.6375 H   0  0  0  0  0  0  0  0  0  0  0  0
  1  2  1  0  0  0  0
  1  3  2  0  0  0  0
  2 10  2  0  0  0  0
  3 11  1  0  0  0  0
  4 10  1  0  0  0  0
  4 11  2  0  0  0  0
  5 12  1  0  0  0  0
  5 13  2  0  0  0  0
  6 12  2  0  0  0  0
  6 14  1  0  0  0  0
  7 13  1  0  0  0  0
  7 14  2  0  0  0  0
  8 15  2  0  0  0  0
  8 35  1  0  0  0  0
  9 28  2  0  0  0  0
  9 35  1  0  0  0  0
 10 15  1  0  0  0  0
 11 22  1  0  0  0  0
 12 24  1  0  0  0  0
 13 33  1  0  0  0  0
 14 34  1  0  0  0  0
 15 28  1  0  0  0  0
 16 23  1  0  0  0  0
 16 29  1  0  0  0  0
 16 31  2  0  0  0  0
 17 18  1  0  0  0  0
 17 19  1  0  0  0  0
 18 20  1  0  0  0  0
 19 21  1  0  0  0  0
 20 22  1  0  0  0  0
 21 22  1  0  0  0  0
 22 30  1  0  0  0  0
 24 26  1  0  0  0  0
 25 27  1  0  0  0  0
 25 30  1  0  0  0  0
 26 27  1  0  0  0  0
 26 29  1  0  0  0  0
 27 32  1  0  0  0  0
  1 36  1  0  0  0  0
  2 37  1  0  0  0  0
  3 38  1  0  0  0  0
  4 39  1  0  0  0  0
  5 40  1  0  0  0  0
  6 41  1  0  0  0  0
  7 42  1  0  0  0  0
  8 43  1  0  0  0  0
  9 44  1  0  0  0  0
 17 45  1  0  0  0  0
 17 46  1  0  0  0  0
 18 47  1  0  0  0  0
 18 48  1  0  0  0  0
 19 49  1  0  0  0  0
 19 50  1  0  0  0  0
 20 51  1  0  0  0  0
 20 52  1  0  0  0  0
 21 53  1  0  0  0  0
 21 54  1  0  0  0  0
 23 55  1  0  0  0  0
 23 56  1  0  0  0  0
 23 57  1  0  0  0  0
 24 58  1  0  0  0  0
 24 59  1  0  0  0  0
 25 60  1  0  0  0  0
 25 61  1  0  0  0  0
 26 62  1  0  0  0  0
 27 63  1  0  0  0  0
 29 64  1  0  0  0  0
 30 65  1  0  0  0  0
 30 66  1  0  0  0  0
 32 67  1  0  0  0  0
M  CHG  1  30   1
M  END
> <OMEGA_C>
t8MJQb6b7EBA1ZPBGRgDQTtrAEGYRJ3Bvh31QEeg3kCeVIzBGtG7QJh/+ECv1JfBRs3MQPMNUD8K
pqzBefCUQCBKKr+Ww6XB2bfWQPNozb+DGq3BLGmmQDZ1G0Eu2KjBWqzdQHUSKEEdjbXBayzaQBt7
A0H5RZ/BYszIQCFc5UAiJo7B+z2kQMskIj/d4afBCyLmQMignL5ELq/BmAmuQEo55L8icajBG97M
QLXBEEGzT6jB47rZQNgauz/YZ5DBEqasQCM+A0FtLGPB9WyeQCZLDkHB83fBNArLQJwD4UAa4mfB
UdOHQFk//EA+RYPBceK2QJbQwEA7uHfBmMSlQItv1kCfTIbBxVDiQFo+7j4ZaofBaziKQJ9t6j9H
f6TB//yhQEA5kUDulI/B99miQEWfKEBl+pvB4x+HQDPbcED3lJfB6a3pQGoiF0GjMbDBXYivQGmg
3z9fFpPBS62KQAxit0BqB4zBKMf3QG1nA0ANlpTB4750QHL7k0CpHaDBep0GQc73B77OmbPBPyaf
QE7BQcD7dabBih+qQD/uL0FtCrLBh5saQevD50A+VJLBxs0OQWjfBUG+AaPBrYn/QEijzkCeIIXB
MCGaQJAS/EB9ipnBWF3YQP1t5z83Wa7BwfBrQD9ATb+HFqLBchbqQPm1HcC1Fa/BhEKKQByeF0ED
N6TBW0LxQGkoMEEMabvBoTy9QILzDkE8+1jB/D6QQChN+kDNv1rB00SIQNJpG0GXF3TB9qO6QGbG
FEEOH4DBocvoQGCm7UDb2G7B51bSQBBc0EBC0FjBZi9XQJeK70C5Kn7BxD17QBNPBkGfoYrBlkzP
QIUQqUAiKXzBTQ6cQKGgsEBPs2/B6HQCQaPc1D7M14XBDZDRQPxrSj88IIDBZ6bWQJFzB79lyonB
+iqEQL0vHkDRfavBJBxXQIIGvz9nIqHBpOioQPJ+eUDSoojBYzPAQNr7mkCeYZPB1Je/QBNXRECU
sZ/BfxJWQPaXVUCQhJPBcliYQDGiqT83uo7B5CRmQDIorkANJYfBY3J8QCDRxUBRdJLBvyhTQJlW
hECEGaXBIa4IQQW1+kAy8pLBdlEBQaE6CEEfA5zB2Q70QIFB50DJ84vBzwO5QGgY/0AzLJfBQj7K
QP2nLz/fq6zB0xCTQNBXNL92bKTBr5nSQNZr3r9ILazBUevbQCP5H0Glcq7BMMCvQLwMB0E8MrnB
8IXWQO7mCEErPJ7B1lHHQCKm6kBNwY3BlaOiQDAbET9TVKfBaEjiQIBh7r4kC6/BuemqQGiK7b9q
5qbBhOPIQF29D0EYx6jBy0/aQMyPuj8AOJDBBiarQFEtAUH9omHBlmmaQErLDEF0oXXBxHTLQOg4
30BPhWfBTYCFQIZp+UCZdYLBQgC5QGXIv0A8R3jBZ8mlQK3H1kDwK4bB50/iQNZ86z5+MYfBzP+J
QLu65j9pMqTBCQGlQJhNk0CrT5DBoN6jQH7fJ0APBJzB3imJQH6AckCp15fB5zauQAHXAkGd8a7B
IEawQDvV4j9D3JLBtDyMQBqzt0ATUIzB83T4QHO06z/nspXBiQt3QPqdk0DXhaDB/zQEQdYZs77E
ELTB3rubQKy8RMAfKaTBNqLPQMRVHUGX07vBJKEZQbzg+EC9U5HB1ocMQYYUEEEkSaHBq6z/QBWG
1UDmIIXB/zeXQLAsAEGl85jBQhTWQAOO1D9y767B5KxpQAJlS79BTKDBnv/kQFDTJ8AnBq7Bfo3v
QBV3LEHODKvB6VafQLDA+0DCQr/BgN66QD7gDEGEGFfBfvuPQIW080CbLFnB3Z+CQK7XGEFJ0nDB
bj61QPS6FEG1zX3BH2HoQItN7kDhIm7BctnTQCJAzUAn+1jBxltVQPu06UBoqHzBA9tyQPtRBUHI
g4nBCNPSQIJfqkDRnH3BDpWfQDzPrECmpXDBFEkCQTtRVz7y4YbBgXjYQDqzZz8VEH/BQKbPQFS3
6L4PqYjBUROEQPeWGkBPWqvB4oVWQBLqwD9inqDBejOvQHZbfkBojonBLFvBQE//nkBOoZTBwbbA
QMQbQUCc85/Bod9aQBBgWUBrbJPB4/GYQEcJsz9tRY7B/vlpQI6JrECgk4fBs4N+QG/YxkCEkZLB
NzRUQABYg0AoPaXBaBcKQYBE7UAB3ZPBoHsDQRSyAUGLEZ3BMLb1QOoT3kBWfYzBbJ+8QDJD+UAw
x5fB8UzNQJw3UT+0hazB/A2UQDZiJL8wHKbB5qrWQBggzb8XxazB5I3lQONXHEEROq/B5XSZQNl+
J0Fxra/BuOzaQG7DBEEKB5/BGGDJQA4o5UAFO47BEQekQMyiJj/1HajBBLnmQCtGnr65wK7B1UKt
QCk94r/CfqjBc9vLQM5QEkFE1qfBOhvZQPMcwT8eGJDBi26rQMAvBEEYHWTBWeebQBFqDkE0E3nB
0v3KQLyg40Cqe2jBT7iGQAvh+kAYmYPBzGq3QBHVwUALrXfBvB2mQA3w1UDEaobBeZXhQE971j5y
04fBGz+KQGWW7T8jy6TBL7eiQEWCkECAko/B1dGiQPGzKEBvIZzB+FuHQBFscEAFk5fB+OSgQN1g
GEElr6jBSymvQLwj3T9JWZPBuVuLQF9atkCL/4vBql33QOYUBEB7fpTB/2h0QDEylEDe/Z/B8lQH
QeQiGL6itLLBBdmdQCVoQMDVjKbBH+DHQCCdLkEperbBwusaQefj50Dfb5LBXjUPQSLUB0H9n6LB
GxEAQWjqzEAVdYXBEPOaQLlC/ECKkpnBqVPZQFh65z8lLa7BSfhoQD/KRL9avqLByRrqQJz1HcDk
hq7BeaIDQRdCGUGIVbDBufF0QIijLkFuDbHBc3u7QHlzEEG9XlrBRq2PQKW7+0BQU1vBkpKEQI8T
G0H9a3XBm1y3QA1fFUFLzoDBBxroQDfO8ECB3W/BPUjTQBEo1EA3OlnBZxdWQLJ47UCkoX7BFqZ3
QFEIBUEXDovBEzXQQHssqkAgs3vBVdScQIvKsUAeY2/BDSYCQb8yjT5S7IbBkLvTQPWVNz9/GIDB
ctPSQF+9Bb9nforBRfWEQIVbIECgxavBAWpWQI6hwz+fk6HBGr6pQOKud0A3q4jB793AQO9RmkDV
ZJPBAbi/QHKaREBHv5/BduZWQCveVEDKdpPBwN+XQGaYnj+Sf4/BOEhoQD/xrEBRBYfBhL58QPh0
xEBKZ5LBZT5SQMzPhEDi9qTB62fIQLRYCkGD6p/Bijz1QJlECkHF2J7BELKuQMV1AEGZDZjBGlHu
QGZR6UCFro7BW1vLQOasLD9cpKzB0S6QQL4HJb9obaXBXszOQCdu4b9U4qzB5VgkQYGE9kAiKIrB
7m45QQXdFkFgh5PBXBoEQW6A/0CuBZbBnJrBQFuh60DkLo/BGa+iQGkSGz+Qx6fBsGvhQA9yAr+F
K6/BZSmmQDjg6b/PBKjB/bsaQYBBA0G6RJPBEqfXQEEHtD8AeY/BWbKxQOIC/EBlpWDBRBGeQPHq
CkFYI3PBblbSQFvJ20AtRWnBJs6GQF/j90DhbYHBze69QGk+vkAmMHrBSJKlQAh11kCzaYbBxAbd
QErYnT5RFofB1qaLQBY57z9ir6TBBlOkQO/OkUAh14/BNfqkQL7hJ0B0BZzBDmOKQMVSc0BXB5jB
qq8nQQ8IEkFpl5jB1JGuQETH2z/A+pLBckmLQKlptkDA7IvBLHn3QFbx8j/AqJPByJmAQMG6lUCj
saDB7DcEQdy0476uzrPBfkaUQP+jQcDuyqXBDUA8QZUVCEG80YfBs6+5QOr1EUFYvqbB94EEQecu
EkE6uaTBrkaMQHn9AEH0yJjBzTP9QJUe1kBUiYjBt4TZQPQw0T9Pa67BVVNiQNDKMb+ko6HBpa7f
QGbpKsDF3K7BccgdQXhx3UDhMoXBIOFEQTWSIkFxSpbBy8HBQM0BCUHhf1XBZCSYQFS56kBaLFjB
oxOHQOiLFkGgoGzBpaq3QP53E0HJq3vBcSDtQEFJ7UCrmnDB2lPeQPcsyEDY8FvBEHFaQKzx5kB2
PHrBb3dxQJ2cBUH34ofB5HrXQH/JqkCwsoDBo+imQCUtqUAXDHLBokb/QEKszT2364XBMOHOQHqV
Iz+j837BeMjMQEMMG7/10onBsj+IQGTFIEAFxqvBaoZXQD2bzj/4kKHBEResQJL4eED8HInBzhrC
QPhgnUC2iJPBJPfCQBP1P0DTgp/B7sRZQIguW0C5S5TB1OSVQOJipj+eIY/BgTRqQF+hq0AJ1IbB
g+N5QBhlxEDrKZLBO35gQOLOhkAD56XB

> <OMEGA_E>
lPeiPsBLrT5wQ6E+tBsAPw==

> <OMEGA_NBR>
    213935

$$$$
50214048
  -OEChem-04172616093D

 71 73  0     1  0  0  0  0  0999 V2000
    5.8962    7.9907  -22.2073 C   0  0  0  0  0  0  0  0  0  0  0  0
    8.5714    7.5568  -18.5606 C   0  0  0  0  0  0  0  0  0  0  0  0
    7.6501    7.0506  -17.6288 C   0  0  0  0  0  0  0  0  0  0  0  0
    8.1233    8.2201  -19.7151 C   0  0  0  0  0  0  0  0  0  0  0  0
    5.8218    7.8289  -19.0322 C   0  0  0  0  0  0  0  0  0  0  0  0
    6.3727    0.7419  -21.5521 C   0  0  0  0  0  0  0  0  0  0  0  0
    4.6003   -0.7112  -20.7044 C   0  0  0  0  0  0  0  0  0  0  0  0
    6.6692   -1.6777  -21.5618 C   0  0  0  0  0  0  0  0  0  0  0  0
    6.2581    7.2098  -17.8386 C   0  0  0  0  0  0  0  0  0  0  0  0
    6.7368    8.3824  -19.9572 C   0  0  0  0  0  0  0  0  0  0  0  0
    5.0929    0.5800  -20.9780 C   0  0  0  0  0  0  0  0  0  0  0  0
    7.1643   -0.3862  -21.8321 C   0  0  0  0  0  0  0  0  0  0  0  0
    5.3849   -1.8388  -21.0034 C   0  0  0  0  0  0  0  0  0  0  0  0
    6.7807    1.4481  -17.9881 C   0  0  0  0  0  0  0  0  0  0  0  0
    5.3701    8.2085  -14.2618 C   0  0  0  0  0  0  0  0  0  0  0  0
    4.8796    8.8682  -15.5595 C   0  0  0  0  0  0  0  0  0  0  0  0
    6.3653    7.0751  -14.5582 C   0  0  0  0  0  0  0  0  0  0  0  0
    4.2093    7.8197  -16.4524 C   0  0  0  0  0  0  0  0  0  0  0  0
    5.7718    6.0375  -15.5383 C   0  0  0  0  0  0  0  0  0  0  0  0
    5.1948    6.6850  -16.8419 C   0  0  0  0  0  0  0  0  0  0  0  0
    7.0564    0.3629  -16.9518 C   0  0  0  0  0  0  0  0  0  0  0  0
    4.9363    9.8877  -20.9732 C   0  0  0  0  0  0  0  0  0  0  0  0
    7.2605   10.0042  -21.8849 C   0  0  0  0  0  0  0  0  0  0  0  0
    4.2955    1.7894  -20.5584 C   0  0  0  0  0  0  0  0  0  0  0  0
    5.0875    4.4819  -17.9327 C   0  0  0  0  0  0  0  0  0  0  0  0
    5.0787    2.5722  -19.4868 C   0  0  1  0  0  0  0  0  0  0  0  0
    4.2357    3.7114  -18.9286 C   0  0  2  0  0  0  0  0  0  0  0  0
    6.2163    9.0483  -21.2470 C   0  0  0  0  0  0  0  0  0  0  0  0
    5.6413    7.1453  -22.9683 N   0  0  0  0  0  0  0  0  0  0  0  0
    5.4664    1.6693  -18.3846 N   0  0  0  0  0  0  0  0  0  0  0  0
    4.3637    5.6889  -17.5338 N   0  3  0  0  0  0  0  0  0  0  0  0
    7.7215    2.0039  -18.5454 O   0  0  0  0  0  0  0  0  0  0  0  0
    3.8456    4.5793  -19.9939 O   0  0  0  0  0  0  0  0  0  0  0  0
    8.4039   -0.2283  -22.3480 F   0  0  0  0  0  0  0  0  0  0  0  0
    4.9107   -3.0758  -20.7366 F   0  0  0  0  0  0  0  0  0  0  0  0
    9.6306    7.4353  -18.3885 H   0  0  0  0  0  0  0  0  0  0  0  0
    8.0051    6.5373  -16.7474 H   0  0  0  0  0  0  0  0  0  0  0  0
    8.8406    8.6088  -20.4229 H   0  0  0  0  0  0  0  0  0  0  0  0
    4.7638    7.8803  -19.2427 H   0  0  0  0  0  0  0  0  0  0  0  0
    6.7434    1.7312  -21.7761 H   0  0  0  0  0  0  0  0  0  0  0  0
    3.6212   -0.8346  -20.2656 H   0  0  0  0  0  0  0  0  0  0  0  0
    7.2742   -2.5447  -21.7826 H   0  0  0  0  0  0  0  0  0  0  0  0
    5.8652    8.9672  -13.6381 H   0  0  0  0  0  0  0  0  0  0  0  0
    4.5063    7.7954  -13.7202 H   0  0  0  0  0  0  0  0  0  0  0  0
    4.1541    9.6584  -15.3161 H   0  0  0  0  0  0  0  0  0  0  0  0
    5.7358    9.3079  -16.0920 H   0  0  0  0  0  0  0  0  0  0  0  0
    7.2748    7.5059  -15.0023 H   0  0  0  0  0  0  0  0  0  0  0  0
    6.6216    6.5696  -13.6155 H   0  0  0  0  0  0  0  0  0  0  0  0
    3.3574    7.3822  -15.9112 H   0  0  0  0  0  0  0  0  0  0  0  0
    3.8489    8.3095  -17.3691 H   0  0  0  0  0  0  0  0  0  0  0  0
    6.5644    5.3289  -15.8204 H   0  0  0  0  0  0  0  0  0  0  0  0
    4.9614    5.4968  -15.0275 H   0  0  0  0  0  0  0  0  0  0  0  0
    8.1424    0.2243  -16.8454 H   0  0  0  0  0  0  0  0  0  0  0  0
    6.6286    0.6632  -15.9839 H   0  0  0  0  0  0  0  0  0  0  0  0
    6.5967   -0.5814  -17.2788 H   0  0  0  0  0  0  0  0  0  0  0  0
    5.1676   10.6854  -20.2521 H   0  0  0  0  0  0  0  0  0  0  0  0
    4.5832   10.3351  -21.9140 H   0  0  0  0  0  0  0  0  0  0  0  0
    4.1521    9.2362  -20.5601 H   0  0  0  0  0  0  0  0  0  0  0  0
    7.5095   10.8042  -21.1721 H   0  0  0  0  0  0  0  0  0  0  0  0
    8.1707    9.4390  -22.1341 H   0  0  0  0  0  0  0  0  0  0  0  0
    6.8413   10.4465  -22.8006 H   0  0  0  0  0  0  0  0  0  0  0  0
    4.1221    2.4357  -21.4315 H   0  0  0  0  0  0  0  0  0  0  0  0
    3.3292    1.4662  -20.1439 H   0  0  0  0  0  0  0  0  0  0  0  0
    5.2805    3.8566  -17.0485 H   0  0  0  0  0  0  0  0  0  0  0  0
    6.0433    4.7607  -18.4003 H   0  0  0  0  0  0  0  0  0  0  0  0
    5.9828    2.9935  -19.9505 H   0  0  0  0  0  0  0  0  0  0  0  0
    3.3538    3.2989  -18.4167 H   0  0  0  0  0  0  0  0  0  0  0  0
    4.7402    1.1880  -17.8938 H   0  0  0  0  0  0  0  0  0  0  0  0
    3.6194    5.4212  -16.9220 H   0  0  0  0  0  0  0  0  0  0  0  0
    3.9834    6.1132  -18.3556 H   0  0  0  0  0  0  0  0  0  0  0  0
    3.3133    4.0979  -20.6163 H   0  0  0  0  0  0  0  0  0  0  0  0
  1 28  1  0  0  0  0
  1 29  3  0  0  0  0
  2  3  2  0  0  0  0
  2  4  1  0  0  0  0
  3  9  1  0  0  0  0
  4 10  2  0  0  0  0
  5  9  2  0  0  0  0
  5 10  1  0  0  0  0
  6 11  1  0  0  0  0
  6 12  2  0  0  0  0
  7 11  2  0  0  0  0
  7 13  1  0  0  0  0
  8 12  1  0  0  0  0
  8 13  2  0  0  0  0
  9 20  1  0  0  0  0
 10 28  1  0  0  0  0
 11 24  1  0  0  0  0
 12 34  1  0  0  0  0
 13 35  1  0  0  0  0
 14 21  1  0  0  0  0
 14 30  1  0  0  0  0
 14 32  2  0  0  0  0
 15 16  1  0  0  0  0
 15 17  1  0  0  0  0
 16 18  1  0  0  0  0
 17 19  1  0  0  0  0
 18 20  1  0  0  0  0
 19 20  1  0  0  0  0
 20 31  1  0  0  0  0
 22 28  1  0  0  0  0
 23 28  1  0  0  0  0
 24 26  1  0  0  0  0
 25 27  1  0  0  0  0
 25 31  1  0  0  0  0
 26 27  1  0  0  0  0
 26 30  1  0  0  0  0
 27 33  1  0  0  0  0
  2 36  1  0  0  0  0
  3 37  1  0  0  0  0
  4 38  1  0  0  0  0
  5 39  1  0  0  0  0
  6 40  1  0  0  0  0
  7 41  1  0  0  0  0
  8 42  1  0  0  0  0
 15 43  1  0  0  0  0
 15 44  1  0  0  0  0
 16 45  1  0  0  0  0
 16 46  1  0  0  0  0
 17 47  1  0  0  0  0
 17 48  1  0  0  0  0
 18 49  1  0  0  0  0
 18 50  1  0  0  0  0
 19 51  1  0  0  0  0
 19 52  1  0  0  0  0
 21 53  1  0  0  0  0
 21 54  1  0  0  0  0
 21 55  1  0  0  0  0
 22 56  1  0  0  0  0
 22 57  1  0  0  0  0
 22 58  1  0  0  0  0
 23 59  1  0  0  0  0
 23 60  1  0  0  0  0
 23 61  1  0  0  0  0
 24 62  1  0  0  0  0
 24 63  1  0  0  0  0
 25 64  1  0  0  0  0
 25 65  1  0  0  0  0
 26 66  1  0  0  0  0
 27 67  1  0  0  0  0
 30 68  1  0  0  0  0
 31 69  1  0  0  0  0
 31 70  1  0  0  0  0
 33 71  1  0  0  0  0
M  CHG  1  31   1
M  END
> <OMEGA_C>
E668QCi0/0CAqLHBTSQJQSvR8UAufJTB8830QOGe4UDFB43BOvkBQWmFA0GduJ3BRky6QA2G+kDk
QZjBeO3LQILqPT/GaqzBSDWTQEcONr+moqXBUWrVQHPA1r+TfqzBrELIQIu25kBitY7BMpTXQE4e
BkFVqJ/B5viiQBd6FD/40qfB70HlQAS7xb4XqK7B41CsQH5d678MB6jBOPvYQItcuT+O54/Bdder
QNdVA0FFMGTB1CWcQAvkDUHi83jBULDLQDJn4kB+7mjBsrKGQOE6+kCbnoPBrbK4QFQzwUC2nHjB
tDumQLbr1UBKvIbB783hQK/RuT5SnYfB4fWdQOgzHkEoyafBKVboQEIRIEEzFK/BmXSJQL4L5T+m
d6TB1MyiQA9sj0ASdo/BxYSiQE6eJEDl5JvBPYuHQAOIbUC7bZfBnevGQK7FEEHp+anB7YW0QOWl
5ED7vrfBFO2uQMGr1T+YE5PBWaOLQHMLtkBERYzBfBb3QIc/AEAAXZTBih52QJaJkkB085/BiHYG
QY/Oab66yLLBhySdQFPZRMCB5KXB8xYaQart7UCUG5PBvRQAQSkx0UCs+oXB9XINQbm9CUEIYqPB
1nCYQGor/EAC8ZnB9snXQAaZ3T9nNa7BjMFnQPmnVb/gH6LBg8boQG3cIsDMQq7BBLC7QNR5D0F9
NVrBhTOQQAt0+UDzhVvBe+6EQKCIGkHUDnXB8Yu3QDTtFEFyvIDB4croQJEw8EByCXDB8+PTQEE6
0kD12FnBCeBWQBY77EBylH7BiFR2QLbzBEHY84rB8A/SQGGGqkBVIH3B3MOeQBPmr0B+cHDBVEcC
QQOxZT5Mw4bBWB3UQAvGKT8fvn/BzBfTQNjVFL/3OorBFV2lQHj3KkE1BKLBcamSQMBcJUHqT6/B
Kd6EQGvHE0EOe6TBsE3wQCfeLEGJYKnBObsCQUIGF0GhErHB2OvaQP4kJ0GpZ7bBh+iDQHviG0C6
c6vB5BFVQDSsuz+lJqHBN/qoQK3SdkBdY4jBr2LBQO5XmEDnM5PBUnO/QHyVP0Ccmp/BxKRWQLIh
U0BiVZPBhq+XQN4PmD92Jo/B4aNnQD96rUBDYIfBD/B+QGGfw0BM2JLBlQ1UQAYig0A37qTBhqfv
QMuYIkF4VazBcdsKQRdD8EAuRpPBZrf2QE+p4EAlIYzB1akEQYp8A0EodZzBbJG+QCQt/UCikZfB
xmTNQIhsVD9viazB7PaSQMBpHb+dmKbBJIjVQO7wy78kHa3Bb5PKQKOp50CbFo7BbG3dQC1aB0HB
lJ7BOMKjQLp4LD+UUqjBLmHmQJCDm74F1q7BYL2rQGaa378BDKnBt4/YQOkHuT/tUJDBSgGqQEhq
AkHL9WLBTn+bQP+6DUH0jHfB7TDKQIkA4UD96WfBYkiHQPMd+0D4doPBPKu3QCbJwEDAMnjBwfqm
QKzR1kB6iobBdHHgQMVv3j5VY4fBoDvHQLO5AkElt7HBXlqlQKVVIEHl2KbB7FmKQHvj8D8n7KTB
fFGjQDwrkUDGqY/BGueiQI3UKEBZHZzB6smHQCM6cUCulZfBBQLPQCxJE0EowqjBHckEQW28LkHb
MK/BeaKuQFFh2z+iXpPBs5aMQEoBuEBlfYzBStL2QAqEBEDGEJTBXH91QDtslEDRDKDB51EHQSVW
Hb7qm7LBeoObQEPQPsC4XKfBIJ8bQQPC6kDRsZHBV0oAQW40z0CfF4XBArAQQbxPCUHY76HBfwed
QEYmAEGFgJnBKQbaQDjE6D/d/a3BYi5mQMGtO7+vZKPByKboQLW5HcA66a7BqTK5QOAuDkGgTVjB
wOWNQOfv9kDc9VrBO9ODQFAeGkFkhnPB8Va3QIk2FUF2S3/BT3rnQIxB70B6lm7Bu/XRQAH9z0AQ
AVnBoSZWQFHS7ED8Mn/ByLJ6QPP4BUG+yIrBzuXQQIzVqUD3jHzBS+mcQKWhr0CaonDBNGIBQfGT
0T6JcoXBvivOQMlfOj8cPoDBIRDWQAcqEL9UCYrBDs2uQMFc7kDUGq/B8R28QKP7CkEM+bjBjT/l
QFht9EABdLPBzcOLQP2GFUFVJKTBEDSrQGWULEGmsqDBUZ2bQBYjKEGgWa7BNpGFQErnIkDW1qvB
9iRWQG66xz/xz6HB42epQC9sekBtk4jBZ+/BQA7EmUCab5PBISPAQMcnREBFoZ/BmKpXQKtVVkAI
bZPBKQiXQEeLoD+WaY/B3bZnQJGVr0DL3ofBILyBQJ1jxkDSGZPBQhlTQDv9hEDz/KTBy0GcQHhj
IEEK56XBd+EHQUId9EBmPpTBaCHzQFzY4kAmu4zBuTIAQSl8BUFBH53Br1u3QHob/kDRJ5fB19LL
QHiuWT+w2azBge6TQB/NI7/1J6bBwuDVQAhXyL9ahq3BZ2TGQISR6EDZ9I3BZdvTQB1eCEG0np7B
JjyjQE6OKT+CH6jBCj7lQO9thr47d6/BHSWtQK5O4L9t6ajBnhraQN4XuT/RqpDBMx2sQBD1AUEB
+2HB1/qZQAbvDEERCXbB/r3MQAAZ4UAM9mfBmvyEQFKp+EAmWILBQFG5QDZJwECNs3fBn1alQLLc
1UBg/IXBVUHjQNhJ2z423ofB5cXiQFmrIkHIC67Brpu0QCcFAkH5xLDB1XWJQKhf7T8JgqTBDfSi
QNqskEBSV4/BuL6iQNCgKEAy95vBTKCHQFWncEDMV5fBRPLBQIR3E0HWq6jBwWR8QLt+KkGZq6PB
psOvQPDs3D95PpPBSRqLQJoqtkCEsIvBYNb3QBwYBECbvZTBJ1R1QBSAlEDovJ/Bbz4GQaiDor0s
xrPBy2SeQPMGQMAnA6fBx+QYQdTJ70B5L5PBM0r/QBwU0UDo+IXB+1ULQQ8cDEFn1qLBzk+VQIg0
AEH2hZjB0FbXQFyf7D/ddK7BxsVpQCqJSL+hiaLB5FHpQNHqGsCQkq/BOPS7QJwHDkGL6lfBGKyR
QNst9UB//1jB6veBQAneGEG4N3HBXRu0QPDsFEGPtX7BXLLoQGVH8EAKf2/BjtjWQO9S0ED5VVnB
8j1VQFok6UAV/HvBmn1wQI+ABEEtdYnBMbbSQK83qkCJ4HzBZyWgQAU1rkAPW2/BJfECQUd3yD4T
UYbBTmLSQM5UOT8HhIDBChbYQHKOEL/gbIrBs5j/QNmUGUGdQLDBjn/UQFy6KUE6RrXB0n/rQEl8
L0FQbKjBD6jQQAyI8EAJ47LBrO+bQE1670AFK63BBbmnQGSiCUEWBbjB9xmDQPajIEC+ZKvBPuJV
QBd7wT9AFqHB31+qQKnYd0C8eojBMOfAQAXxmkDfL5PBrWG/QHlbREDyup/BdT9XQFZlVUDKPZPB
IsWYQEyWpD+4747BmsdnQN1HrEDHxIbBvy58QNpjxEA0E5LBFilTQFNDhUAYvaTBJ87HQG9lLUHe
hqLBOIAJQRaS8EDN9pPB+uj0QEKF30CjyYzBdMECQaq1BEGBspzBOG67QE2y/kDMV5fBbSrMQM+R
ST/NdqzBZuaSQMyDLL/PFqbB8C/VQNX+0L+P9azBEJrIQKhd50BvPI7BSF3ZQDNLCEFujp7BYgmj
QOSGHj+a+qfBIVzlQC5Zrb6F2q7BpNurQNg15r+coqjBtTTaQDhwuT/+eJDBJNKrQJQ7AkGQCGPB
KS6bQFpDDUHmYHfB3NXLQLzB4EC2hGjB4BuGQFqK+UCuD4PBgT+4QOMrwEBtTHjBRAqmQLvl1UDo
d4bBUHzjQGs35z6/hofB6jvpQEGlGEFl+rDBDUWdQK4jEkG3savBqHaJQDMH6T8Sg6TB+ymjQA+Y
kEA3tY/B1aGiQBGcJkBU+JvBBlSHQC5vbkCnXpfBrzrKQH0BGEFTS6fBd4rFQMhkPkGjuZ7BDtSv
QE1x2T8QOZPBwLSLQHumtkCdRYzBoMD3QEViBUB+dZTBSOtxQIF2kkAfz5/BPpYGQYXyNL4J4rLB
a0CcQDBnQsB7zabBMlgaQWaK6kCNwpLBnpj/QDROzEAgH4bBlXoOQdmUC0HVCKLBeqiZQL18AUE0
1ZjBpT/YQELF4z9nDq7ByshmQIMbTb8xsKLBhnjoQJHjH8BR0q7BCMu7QEMvDkHB4FjBJp2QQK6I
9kAgTlrBToaDQOWEGUEI8nLB+BS2QAjeFEEtzn/BpnToQPYb70Df1G/BQO3UQLUD0EAUuFnBEhxW
QE666kBApH3B6aV0QND1BEGPRYrBgTPRQJEzqUBaAn3BERieQDcWr0AkMHDBUwADQRHf4z5NzYXB
p8vRQG6ZPj/OSYDBb1bZQJPFDb/nCYrB8jzrQDWkCEHymrTBtETdQA4gJEGr8LbBjpgEQSShHUEP
Qq7BTVOeQCMcAkF/Ua/BgfCFQDo8EkHbGqXBfa6TQNHrHUG6xrHB04eDQD4VHkAgdavBiXZVQHac
vj9YI6HBUwGrQECPeUAgtIjBxt7AQBI9mkA7xJPBjDS/QBqXQkBZvJ/B9hZYQCvuUkDz/5LBT+eY
QGeLnj8AB4/BnaJnQLBirUC1eofByT5/QNz0xEBRwpLBeRNPQE+MgkDNmaTB

> <OMEGA_E>
EP0TPthtFz7wJxs+sGMpPg==

> <OMEGA_NBR>
    218714

$$$$
50212935
  -OEChem-04172616093D

 73 75  0     1  0  0  0  0  0999 V2000
    8.5531    7.5633  -18.4673 C   0  0  0  0  0  0  0  0  0  0  0  0
    7.6235    7.0566  -17.5437 C   0  0  0  0  0  0  0  0  0  0  0  0
    8.1153    8.2421  -19.6173 C   0  0  0  0  0  0  0  0  0  0  0  0
    5.8076    7.8596  -18.9508 C   0  0  0  0  0  0  0  0  0  0  0  0
    6.3526    0.7969  -21.5790 C   0  0  0  0  0  0  0  0  0  0  0  0
    4.5792   -0.6622  -20.7433 C   0  0  0  0  0  0  0  0  0  0  0  0
    6.6377   -1.6232  -21.6313 C   0  0  0  0  0  0  0  0  0  0  0  0
    6.2333    7.2201  -17.7647 C   0  0  0  0  0  0  0  0  0  0  0  0
    6.7312    8.4217  -19.8615 C   0  0  0  0  0  0  0  0  0  0  0  0
    5.0769    0.6310  -20.9978 C   0  0  0  0  0  0  0  0  0  0  0  0
    7.1369   -0.3296  -21.8828 C   0  0  0  0  0  0  0  0  0  0  0  0
    5.3563   -1.7881  -21.0672 C   0  0  0  0  0  0  0  0  0  0  0  0
    6.7919    1.4881  -18.0057 C   0  0  0  0  0  0  0  0  0  0  0  0
    4.1974    7.8246  -16.3624 C   0  0  0  0  0  0  0  0  0  0  0  0
    5.7379    6.0197  -15.4912 C   0  0  0  0  0  0  0  0  0  0  0  0
    4.9191    8.8334  -15.4670 C   0  0  0  0  0  0  0  0  0  0  0  0
    6.3755    7.0632  -14.5560 C   0  0  0  0  0  0  0  0  0  0  0  0
    5.1618    6.6837  -16.7846 C   0  0  0  0  0  0  0  0  0  0  0  0
    7.0771    0.3985  -16.9760 C   0  0  0  0  0  0  0  0  0  0  0  0
    5.8766    8.0296  -22.1853 C   0  0  0  0  0  0  0  0  0  0  0  0
    7.2751   10.0812  -21.7493 C   0  0  0  0  0  0  0  0  0  0  0  0
    4.9484    9.9630  -20.8489 C   0  0  0  0  0  0  0  0  0  0  0  0
    4.2857    1.8368  -20.5607 C   0  0  0  0  0  0  0  0  0  0  0  0
    5.0551    4.4974  -17.8993 C   0  0  0  0  0  0  0  0  0  0  0  0
    5.0781    2.6147  -19.4921 C   0  0  1  0  0  0  0  0  0  0  0  0
    4.2332    3.7554  -18.9382 C   0  0  2  0  0  0  0  0  0  0  0  0
    6.2200    9.1165  -21.1420 C   0  0  0  0  0  0  0  0  0  0  0  0
    5.4739    1.7090  -18.3935 N   0  0  0  0  0  0  0  0  0  0  0  0
    5.4137    8.1445  -14.2570 N   0  3  0  0  0  0  0  0  0  0  0  0
    4.3289    5.7018  -17.4926 N   0  3  0  0  0  0  0  0  0  0  0  0
    7.7287    2.0428  -18.5708 O   0  0  0  0  0  0  0  0  0  0  0  0
    3.8975    4.6480  -20.0016 O   0  0  0  0  0  0  0  0  0  0  0  0
    8.3737   -0.1683  -22.4041 F   0  0  0  0  0  0  0  0  0  0  0  0
    4.8779   -3.0274  -20.8194 F   0  0  0  0  0  0  0  0  0  0  0  0
    9.6105    7.4304  -18.2925 H   0  0  0  0  0  0  0  0  0  0  0  0
    7.9701    6.5399  -16.6609 H   0  0  0  0  0  0  0  0  0  0  0  0
    8.8387    8.6295  -20.3195 H   0  0  0  0  0  0  0  0  0  0  0  0
    4.7511    7.9203  -19.1667 H   0  0  0  0  0  0  0  0  0  0  0  0
    6.7256    1.7882  -21.7901 H   0  0  0  0  0  0  0  0  0  0  0  0
    3.6025   -0.7884  -20.3001 H   0  0  0  0  0  0  0  0  0  0  0  0
    7.2372   -2.4889  -21.8709 H   0  0  0  0  0  0  0  0  0  0  0  0
    3.3476    7.3949  -15.8117 H   0  0  0  0  0  0  0  0  0  0  0  0
    3.8288    8.3384  -17.2625 H   0  0  0  0  0  0  0  0  0  0  0  0
    6.5025    5.2828  -15.7782 H   0  0  0  0  0  0  0  0  0  0  0  0
    4.9218    5.5120  -14.9563 H   0  0  0  0  0  0  0  0  0  0  0  0
    5.7676    9.2698  -16.0143 H   0  0  0  0  0  0  0  0  0  0  0  0
    4.2208    9.6320  -15.1758 H   0  0  0  0  0  0  0  0  0  0  0  0
    6.6738    6.5739  -13.6170 H   0  0  0  0  0  0  0  0  0  0  0  0
    7.2631    7.4925  -15.0438 H   0  0  0  0  0  0  0  0  0  0  0  0
    8.1639    0.2573  -16.8822 H   0  0  0  0  0  0  0  0  0  0  0  0
    6.6608    0.6964  -16.0023 H   0  0  0  0  0  0  0  0  0  0  0  0
    6.6117   -0.5437  -17.3009 H   0  0  0  0  0  0  0  0  0  0  0  0
    5.5099    8.5072  -23.1059 H   0  0  0  0  0  0  0  0  0  0  0  0
    6.7779    7.4410  -22.4116 H   0  0  0  0  0  0  0  0  0  0  0  0
    5.0975    7.3666  -21.7810 H   0  0  0  0  0  0  0  0  0  0  0  0
    6.8652   10.5498  -22.6561 H   0  0  0  0  0  0  0  0  0  0  0  0
    7.5246   10.8609  -21.0146 H   0  0  0  0  0  0  0  0  0  0  0  0
    8.1830    9.5162  -22.0070 H   0  0  0  0  0  0  0  0  0  0  0  0
    4.6067   10.4455  -21.7765 H   0  0  0  0  0  0  0  0  0  0  0  0
    4.1535    9.3086  -20.4618 H   0  0  0  0  0  0  0  0  0  0  0  0
    5.1856   10.7337  -20.1007 H   0  0  0  0  0  0  0  0  0  0  0  0
    4.1028    2.4886  -21.4277 H   0  0  0  0  0  0  0  0  0  0  0  0
    3.3241    1.5103  -20.1381 H   0  0  0  0  0  0  0  0  0  0  0  0
    5.2161    3.8502  -17.0246 H   0  0  0  0  0  0  0  0  0  0  0  0
    6.0269    4.7800  -18.3302 H   0  0  0  0  0  0  0  0  0  0  0  0
    5.9793    3.0362  -19.9613 H   0  0  0  0  0  0  0  0  0  0  0  0
    3.3265    3.3467  -18.4682 H   0  0  0  0  0  0  0  0  0  0  0  0
    4.7513    1.2258  -17.8992 H   0  0  0  0  0  0  0  0  0  0  0  0
    5.8639    8.8172  -13.6698 H   0  0  0  0  0  0  0  0  0  0  0  0
    4.6321    7.7502  -13.7737 H   0  0  0  0  0  0  0  0  0  0  0  0
    3.5796    5.4297  -16.8888 H   0  0  0  0  0  0  0  0  0  0  0  0
    3.9555    6.1370  -18.3119 H   0  0  0  0  0  0  0  0  0  0  0  0
    3.3831    4.1860  -20.6530 H   0  0  0  0  0  0  0  0  0  0  0  0
  1  2  2  0  0  0  0
  1  3  1  0  0  0  0
  2  8  1  0  0  0  0
  3  9  2  0  0  0  0
  4  8  2  0  0  0  0
  4  9  1  0  0  0  0
  5 10  1  0  0  0  0
  5 11  2  0  0  0  0
  6 10  2  0  0  0  0
  6 12  1  0  0  0  0
  7 11  1  0  0  0  0
  7 12  2  0  0  0  0
  8 18  1  0  0  0  0
  9 27  1  0  0  0  0
 10 23  1  0  0  0  0
 11 33  1  0  0  0  0
 12 34  1  0  0  0  0
 13 19  1  0  0  0  0
 13 28  1  0  0  0  0
 13 31  2  0  0  0  0
 14 16  1  0  0  0  0
 14 18  1  0  0  0  0
 15 17  1  0  0  0  0
 15 18  1  0  0  0  0
 16 29  1  0  0  0  0
 17 29  1  0  0  0  0
 18 30  1  0  0  0  0
 20 27  1  0  0  0  0
 21 27  1  0  0  0  0
 22 27  1  0  0  0  0
 23 25  1  0  0  0  0
 24 26  1  0  0  0  0
 24 30  1  0  0  0  0
 25 26  1  0  0  0  0
 25 28  1  0  0  0  0
 26 32  1  0  0  0  0
  1 35  1  0  0  0  0
  2 36  1  0  0  0  0
  3 37  1  0  0  0  0
  4 38  1  0  0  0  0
  5 39  1  0  0  0  0
  6 40  1  0  0  0  0
  7 41  1  0  0  0  0
 14 42  1  0  0  0  0
 14 43  1  0  0  0  0
 15 44  1  0  0  0  0
 15 45  1  0  0  0  0
 16 46  1  0  0  0  0
 16 47  1  0  0  0  0
 17 48  1  0  0  0  0
 17 49  1  0  0  0  0
 19 50  1  0  0  0  0
 19 51  1  0  0  0  0
 19 52  1  0  0  0  0
 20 53  1  0  0  0  0
 20 54  1  0  0  0  0
 20 55  1  0  0  0  0
 21 56  1  0  0  0  0
 21 57  1  0  0  0  0
 21 58  1  0  0  0  0
 22 59  1  0  0  0  0
 22 60  1  0  0  0  0
 22 61  1  0  0  0  0
 23 62  1  0  0  0  0
 23 63  1  0  0  0  0
 24 64  1  0  0  0  0
 24 65  1  0  0  0  0
 25 66  1  0  0  0  0
 26 67  1  0  0  0  0
 28 68  1  0  0  0  0
 29 69  1  0  0  0  0
 29 70  1  0  0  0  0
 30 71  1  0  0  0  0
 30 72  1  0  0  0  0
 32 73  1  0  0  0  0
M  CHG  2  29   1  30   1
M  END
> <OMEGA_C>
Z9kIQdYG8kASvZPBfvPzQLfP4UB8WYzBU9gBQb3fA0Eu8JzB0Ne5QLyB+0Avm5fBTUjLQFcATD/H
oazBGYmSQFmEKb848qXBqmfUQAPFz7/cDK3BmnfHQCsL50AOHo7BX2bXQGu/BkFz5J7B0HWiQBKG
IT94+6fBj2HkQGC8qL7rD6/B32arQEnh5L+oiajBYlfZQKR6vj+iC5DBsVCGQMRi+kBL5oLBRJ23
QHyhwEDi23fB9midQKpVDUGyeHfBDQTMQNQF4kA95WjBWy2lQIHg1UDGRobBUXfiQDgLzD7KzofB
8Ay8QGx5AEFle7HBQs3oQJRMIUGL/q3BbVmeQJRoH0GZyqbB2CSJQLIb6z9kfKTBZsOhQAzrj0DE
MY/BjH+iQJJXJ0DX75vBLXaHQL9YcEBugZfB1wnHQPvcEUHYIqnBQSqvQBTA2j/1JZPB0DytQP1P
AkGmHGTB/4WKQCt1tkDX8IvBrVH3QNe9AkAJkZTB0HB5QLG8lEAxA6DBf/oFQQpVLL6TO7PBHhic
QJLBQcAbjqbBm8QZQZXF7UDyVpLBEgv/QP5G0UCTSYXBI2sNQUUSCkFgjqLBVQmYQElz/UBaVZnB
ZDjXQBzj5D8NUq7BDI9mQAPSSb+LZqLBOpfnQPFKH8CT967BSz9WQLGi7EDI/HzBJAt1QBJqBUGo
GYrBjxTQQGcMqUBPc3zBOX+dQDBisEAPTW/B/4+4QP1QFEFcHYDBLRGHQKscGkE50HLBhY/VQEBd
0kBh31nB7mroQLPC70A3s3DBb58CQbi8gz7BDofBQCXVQFNFMj+9BIDBC5PTQJ4xC79RaIrBc1Gw
QFodCEHW2LjBMOTYQMAc7kDbSrPB+R6jQCO760BqP67Biq/bQBbMKEHIP7XBucnwQCvGLUHYHajB
bu0CQS9CGEFmDrDB+WmTQO0gJ0FJNq7BremEQOnvFEHcsaPBlPClQFW9K0FVzqDBbkqDQKhFH0D0
a6vB471UQBJRwT/ZGqHBbuqmQGZpdkBYMojBu9zAQOj1mEA/pJLBL1a/QH9RQkDQsJ/BFuVUQPgw
VkDlvpPBRgqYQFTonD+dMY/BB6W7QC4TDUFdt1rBzDmUQLIB+EAIYVzBlhdlQFjArUBSHIfBYid9
QERixEC+fpLByIRYQIDzhUBcOaXBxSsJQVV58EAe0ZPBgoH0QJn74EDxWYzBIDsCQfAkA0HOBJ3B
F5a6QEmp+0CchZfB1wyUQONaKL8k66XBvKrMQD8aTz+rkKzBtSjWQL8ezr8o9azBXBTIQGT35kBL
EI7BwzvYQB2CBkHr3Z7Be8WjQLZKIz8b9qfBzh+tQKvi47/teajBrfblQFYZob7l+K7BaHfZQDGc
vz/BIZDBZHKHQB73+kB1wYLB9cW3QHoAwEA++nfB7lKfQF5ADUGwE3fBY9jMQImh4EAc1WjB/5Sl
QFAN1kDIQYbB/2ziQB0fxD76FojBe1+9QFSJAEH1hLHBVq/pQCtwIUGnwa3B/wKfQBwpH0GTvKbB
O/mJQPKY6z8ZlKTB2sahQNz3kEBhho/BNaaiQB9/KECc/pvBMgOHQCLLcEB5lJfBiPTHQKzIEUGu
EanBjU2vQLTY3T8xKpPBL82uQAHhAUHZ2GPBwomKQC8st0CcBYzBeYH3QImsA0DNlJTB32R1QJ1A
lEBWGKDBE++dQHViQcDZg6bBkcQGQcTHGL5MI7PBBhEaQW2X60AgepLBr3r/QARy0EAxR4XB2tMN
QXT/CEFot6LBcMWYQARJ/kBiLpnB7Y1pQGrDSb9pZKLB04LYQO2i5j+KPK7B/3/pQB9PHsA52a7B
Ny1YQLiL7UCLs3zB16V3QJT1BUFD5onB9svPQMwcqEC0wHzB5mydQDYAsEADe2/B07W6QN0FFEFg
0X/B2o+JQGc4GkFiQ3LBkBDWQDxx0EBI5lnBYYbpQOLz7UAnkHDB65YCQe5ubT67Y4fBDEPVQM6s
KT+6PYDBd0jTQAlrDL9N14rBFbOxQN1KCEEm3LjBt1/aQNh/7kDwVrPBSIOkQKaP60DWX67BD7rc
QJITKUER/rTBV1DxQCrKLUHgyKfBq3UDQcCJGEGmz6/BOzOUQGX8JkEbJK7BA56FQCiNFEG7vKPB
JUSmQNdmK0HwraDB30CEQK0ZH0Bej6vBlUhWQAb/wD9uRaHBCF6oQLTbeEAikojBICnAQOGVmkDk
QpPB9HK/QEk2RECjrp/Bs3lVQOCxVUB9lJPB5h2YQHjuoT8uHo/BhrC9QKlmDEHyXVrBcJOVQEaA
90B6JFzB1YRlQIENrkCXLYfBJaZ8QBinxUA1eJLBxONTQOnYhEA7IqXBv3EJQW8V8kC7mZPBnej0
QM/P4UCIR4zBOpUCQQPtA0EW0pzBHia7QGSL+0BOpZfBb16UQGM6KL+fGqbBWjHNQPdLTz+VoqzB
pKzWQAoPzr9NB63BcnvIQFUJ50DfI47BjOvYQNO+BkGl357BmySkQBePIz8lHajBYIetQIbY47/c
najBSovmQALeoL51Aa/Bno7ZQLzKuT+CeZDBPZOHQNPn+kBH8YLBcga4QAU6wEBeF3jBnhOfQDxN
DUHjY3fBZJ/MQGIS4UBK4mjBweqlQOUI1kA6XIbBnUHiQPRv3z79n4fBtHLrQCdRIEH5T67BTqyh
QOOJIEHOmKbBeSG7QDebAEFzQbHBN0+KQGLQ6z8Wu6TB9A2iQLyjkECehY/BLL6iQNcRKEBvDJzB
Wf+GQACrb0AOfpfBbbPIQGHuEUHIG6nBW1yvQNbh2z+cSJPB2UKuQIoAAkEYEWTBYO6KQHAFt0DK
GIzBP3P3QBfzBEArZZTBFFNzQPKck0Dh7J/BeVueQCVnQcDtqqbB7h8HQVbLGL6CF7PBPlcaQavW
7UBQIpLBccX/QD0+0UA3M4XBFT4OQYMuCkGnYKLBr2SZQCmN/UAGbpnB/PppQHi2Sb86o6LBNh3Z
QPu75j+FRa7BJA7qQF5GHsA05a7BTTdYQFJy7UDQLH3BbEp4QBfgBUEjH4rBK1HQQCyHqEB2w3zB
b7KdQDwHsEBArG/Ba5S6QCYYFEHdAoDBpCSJQHk/GkFJtnLBirHVQMoB0UAb5VnB9FfpQKaO7kAm
gXDB82ACQRZs0T7W5IXBR7LQQGVMOj/sXIDBoJPXQLpDD798PIrBOFveQJ3lJ0F3jLXBv0r1QCjE
LEF1majB3qkDQRx7FkGCebDBTraWQH9RKEHm/63BrZOHQA7NFkEpQaPB9x+rQNLTLEHUwaDBVHmv
QE1UCEFKm7jBTcnWQJzR7EAfKrPB2XmhQCd97UD+yq3BkOiEQEKTH0CzsavBtaZWQAVAwT/5gqHB
SbmoQNy4eEBfhojBXGTAQKwHmkBFUZPB2Yi/QDVjREABq5/BSGRWQOvHU0AkX5PBUiiYQLYzoj8m
Ho/BVc+8QPGTDEHYg1rBafKUQNGZ90CiflzBDSFmQDoYrkDuQYfBjq59QNhaxUBSlJLB5YFRQOkI
hEDJ5aTBMn4JQVV28kB5g5PBzvD0QG1L4kDJMYzBd6sCQYgJBEGvw5zBX0m7QDPL+0Bdn5fBJRXN
QML6UD/qlazBp0WUQL5mKL/nJqbBg6jWQKUPzb8MGq3BWInIQPpu50DvF47BDh3ZQHLXBkHb157B
ZAekQCrUIz+QFKjBb37mQCnFm77sAK/B1nytQJ2B47+WtqjB7YzZQJ5mvz/GFpDBv0+HQPT0+kCk
+ILBCNm3QOVlwEDtFnjBt4ieQHdWDUG3WXfBhR3MQK854UC4xWjBQealQLNA1kBoXYbBDnLiQHPO
xj5P/IfBJXvrQJOkIEESMq7BokyhQEknIEHRtKbBUnC8QL2DAEH/TrHBEieKQGdl6z9TpaTBpcGi
QKIokUDYro/B/9SiQO3sJ0DkA5zByEmHQLPCb0DEdZfBTf7IQJLsEUFyHKnBHnqvQGOh2z/8P5PB
NZGtQGQEAkERAmTBhDqLQPcht0A0JYzBdpz3QCwPBEBxd5TBoJxyQApBk0Cg6J/BcBwHQbEYCb7Z
D7PB/lOeQB1WQcBD1KbBHmIaQf1B7kCyBZLBdb3/QIXf0UBzFoXB9VkOQTA+CkHkUqLBeIyZQIO7
/UCZbpnBjPTYQM7O5z9HLK7BTrtpQFbjSr/8taLBgxTqQNWhHcAJAq/B5pxXQOVX7UCwUn3Bue93
QJ7oBUEfKIrBKEzQQKfVqEAPunzBYX2dQDkIsECxxm/BRxe6QPAxFEFc43/BrHWIQK48GkFYtXLB
DwrVQB0c0UBgxlnBPOToQPzZ7kD8RnDBWZoCQVDzfT7jK4fBFM3UQNb1Kj8aMIDBOLvTQPWTDL8p
wYrB6XjeQKEjKEGEdrXBBZv0QJwmLUGycKjBR+cDQbQQF0GhSLDBa2yWQNndJ0FeIq7BxGeHQEYo
FkEwdaPBt/6pQMF/LEG/0qDBh9uwQFQoCEEXsLjBSYvYQJYl7UCFJLPBg/qiQFbT7EAY7q3B5m6E
QHFbH0AVmKvBcKRWQAJawD9dXKHBXn6qQEokekBouIjB74bAQNQMm0CprJPBDZ2/QHnwQ0AqrZ/B
AZxXQFsdVED4LpPBWlCYQItJnT8kV4/Bxuy7QImYDEEzY1rBozSUQImB90AQh1zByxhnQEG8rUDy
TYfB9Ll9QISOxUAulZLBZkBQQDVpg0DtxKTB

> <OMEGA_E>
oN0+PkDUQT6A5kI+oOhDPg==

> <OMEGA_NBR>
    223600

$$$$
50214047
  -OEChem-04172616093D

 68 71  0     1  0  0  0  0  0999 V2000
    8.6473    7.5058  -18.4019 C   0  0  0  0  0  0  0  0  0  0  0  0
    8.2626    8.2597  -19.5176 C   0  0  0  0  0  0  0  0  0  0  0  0
    7.6719    6.9771  -17.5400 C   0  0  0  0  0  0  0  0  0  0  0  0
    5.4788    8.4924  -21.9325 C   0  0  0  0  0  0  0  0  0  0  0  0
    5.9160    7.9213  -18.9365 C   0  0  0  0  0  0  0  0  0  0  0  0
    4.6093   -0.6773  -20.7552 C   0  0  0  0  0  0  0  0  0  0  0  0
    6.3863    0.7892  -21.5698 C   0  0  0  0  0  0  0  0  0  0  0  0
    6.6767   -1.6302  -21.6316 C   0  0  0  0  0  0  0  0  0  0  0  0
    5.4476    9.1008  -23.1598 C   0  0  0  0  0  0  0  0  0  0  0  0
    7.1683   10.1280  -21.6312 C   0  0  0  0  0  0  0  0  0  0  0  0
    6.8967    8.4442  -19.7991 C   0  0  0  0  0  0  0  0  0  0  0  0
    6.5125    9.0645  -21.0589 C   0  0  0  0  0  0  0  0  0  0  0  0
    6.2915    7.2281  -17.7632 C   0  0  0  0  0  0  0  0  0  0  0  0
    5.1056    0.6182  -20.9999 C   0  0  0  0  0  0  0  0  0  0  0  0
    5.3918   -1.8002  -21.0771 C   0  0  0  0  0  0  0  0  0  0  0  0
    7.1752   -0.3344  -21.8736 C   0  0  0  0  0  0  0  0  0  0  0  0
    6.8007    1.4908  -18.0099 C   0  0  0  0  0  0  0  0  0  0  0  0
    5.3754    8.2043  -14.2181 C   0  0  0  0  0  0  0  0  0  0  0  0
    4.8725    8.8763  -15.5065 C   0  0  0  0  0  0  0  0  0  0  0  0
    6.3549    7.0614  -14.5290 C   0  0  0  0  0  0  0  0  0  0  0  0
    4.2062    7.8399  -16.4202 C   0  0  0  0  0  0  0  0  0  0  0  0
    5.7298    6.0370  -15.5041 C   0  0  0  0  0  0  0  0  0  0  0  0
    5.1887    6.7030  -16.8123 C   0  0  0  0  0  0  0  0  0  0  0  0
    7.0840    0.3892  -16.9927 C   0  0  0  0  0  0  0  0  0  0  0  0
    4.3033    1.8207  -20.5692 C   0  0  0  0  0  0  0  0  0  0  0  0
    5.1030    4.5358  -17.9734 C   0  0  0  0  0  0  0  0  0  0  0  0
    5.0859    2.6094  -19.5011 C   0  0  1  0  0  0  0  0  0  0  0  0
    4.2352    3.7395  -18.9338 C   0  0  2  0  0  0  0  0  0  0  0  0
    5.4845    1.7076  -18.4020 N   0  0  0  0  0  0  0  0  0  0  0  0
    4.3681    5.7262  -17.5439 N   0  3  0  0  0  0  0  0  0  0  0  0
    7.7371    2.0595  -18.5615 O   0  0  0  0  0  0  0  0  0  0  0  0
    3.7934    4.5870  -19.9947 O   0  0  0  0  0  0  0  0  0  0  0  0
    4.9144   -3.0415  -20.8376 F   0  0  0  0  0  0  0  0  0  0  0  0
    8.4150   -0.1686  -22.3865 F   0  0  0  0  0  0  0  0  0  0  0  0
    6.5886   10.4202  -23.2424 S   0  0  0  0  0  0  0  0  0  0  0  0
    9.6944    7.3308  -18.2040 H   0  0  0  0  0  0  0  0  0  0  0  0
    9.0121    8.6979  -20.1599 H   0  0  0  0  0  0  0  0  0  0  0  0
    7.9751    6.3728  -16.6977 H   0  0  0  0  0  0  0  0  0  0  0  0
    4.8208    7.6870  -21.6414 H   0  0  0  0  0  0  0  0  0  0  0  0
    4.8699    8.0503  -19.1721 H   0  0  0  0  0  0  0  0  0  0  0  0
    3.6291   -0.8078  -20.3209 H   0  0  0  0  0  0  0  0  0  0  0  0
    6.7596    1.7823  -21.7722 H   0  0  0  0  0  0  0  0  0  0  0  0
    7.2795   -2.4937  -21.8710 H   0  0  0  0  0  0  0  0  0  0  0  0
    4.8007    8.8026  -23.9716 H   0  0  0  0  0  0  0  0  0  0  0  0
    7.9407   10.7049  -21.1444 H   0  0  0  0  0  0  0  0  0  0  0  0
    5.8867    8.9556  -13.5983 H   0  0  0  0  0  0  0  0  0  0  0  0
    4.5146    7.7982  -13.6665 H   0  0  0  0  0  0  0  0  0  0  0  0
    4.1411    9.6561  -15.2478 H   0  0  0  0  0  0  0  0  0  0  0  0
    5.7233    9.3322  -16.0342 H   0  0  0  0  0  0  0  0  0  0  0  0
    7.2635    7.4819  -14.9847 H   0  0  0  0  0  0  0  0  0  0  0  0
    6.6181    6.5497  -13.5915 H   0  0  0  0  0  0  0  0  0  0  0  0
    3.3458    7.4014  -15.8935 H   0  0  0  0  0  0  0  0  0  0  0  0
    3.8590    8.3422  -17.3351 H   0  0  0  0  0  0  0  0  0  0  0  0
    6.4967    5.2971  -15.7769 H   0  0  0  0  0  0  0  0  0  0  0  0
    4.8960    5.5305  -14.9959 H   0  0  0  0  0  0  0  0  0  0  0  0
    8.1709    0.2527  -16.8925 H   0  0  0  0  0  0  0  0  0  0  0  0
    6.6587    0.6717  -16.0184 H   0  0  0  0  0  0  0  0  0  0  0  0
    6.6264   -0.5511  -17.3338 H   0  0  0  0  0  0  0  0  0  0  0  0
    4.1179    2.4677  -21.4392 H   0  0  0  0  0  0  0  0  0  0  0  0
    3.3430    1.4882  -20.1481 H   0  0  0  0  0  0  0  0  0  0  0  0
    5.3474    3.9171  -17.0973 H   0  0  0  0  0  0  0  0  0  0  0  0
    6.0318    4.8382  -18.4793 H   0  0  0  0  0  0  0  0  0  0  0  0
    5.9842    3.0394  -19.9682 H   0  0  0  0  0  0  0  0  0  0  0  0
    3.3785    3.3154  -18.3895 H   0  0  0  0  0  0  0  0  0  0  0  0
    4.7626    1.2223  -17.9087 H   0  0  0  0  0  0  0  0  0  0  0  0
    3.6191    5.4357  -16.9484 H   0  0  0  0  0  0  0  0  0  0  0  0
    3.9939    6.1748  -18.3556 H   0  0  0  0  0  0  0  0  0  0  0  0
    3.2511    4.0881  -20.5942 H   0  0  0  0  0  0  0  0  0  0  0  0
  1  2  1  0  0  0  0
  1  3  2  0  0  0  0
  2 11  2  0  0  0  0
  3 13  1  0  0  0  0
  4  9  2  0  0  0  0
  4 12  1  0  0  0  0
  5 11  1  0  0  0  0
  5 13  2  0  0  0  0
  6 14  1  0  0  0  0
  6 15  2  0  0  0  0
  7 14  2  0  0  0  0
  7 16  1  0  0  0  0
  8 15  1  0  0  0  0
  8 16  2  0  0  0  0
  9 35  1  0  0  0  0
 10 12  2  0  0  0  0
 10 35  1  0  0  0  0
 11 12  1  0  0  0  0
 13 23  1  0  0  0  0
 14 25  1  0  0  0  0
 15 33  1  0  0  0  0
 16 34  1  0  0  0  0
 17 24  1  0  0  0  0
 17 29  1  0  0  0  0
 17 31  2  0  0  0  0
 18 19  1  0  0  0  0
 18 20  1  0  0  0  0
 19 21  1  0  0  0  0
 20 22  1  0  0  0  0
 21 23  1  0  0  0  0
 22 23  1  0  0  0  0
 23 30  1  0  0  0  0
 25 27  1  0  0  0  0
 26 28  1  0  0  0  0
 26 30  1  0  0  0  0
 27 28  1  0  0  0  0
 27 29  1  0  0  0  0
 28 32  1  0  0  0  0
  1 36  1  0  0  0  0
  2 37  1  0  0  0  0
  3 38  1  0  0  0  0
  4 39  1  0  0  0  0
  5 40  1  0  0  0  0
  6 41  1  0  0  0  0
  7 42  1  0  0  0  0
  8 43  1  0  0  0  0
  9 44  1  0  0  0  0
 10 45  1  0  0  0  0
 18 46  1  0  0  0  0
 18 47  1  0  0  0  0
 19 48  1  0  0  0  0
 19 49  1  0  0  0  0
 20 50  1  0  0  0  0
 20 51  1  0  0  0  0
 21 52  1  0  0  0  0
 21 53  1  0  0  0  0
 22 54  1  0  0  0  0
 22 55  1  0  0  0  0
 24 56  1  0  0  0  0
 24 57  1  0  0  0  0
 24 58  1  0  0  0  0
 25 59  1  0  0  0  0
 25 60  1  0  0  0  0
 26 61  1  0  0  0  0
 26 62  1  0  0  0  0
 27 63  1  0  0  0  0
 28 64  1  0  0  0  0
 29 65  1  0  0  0  0
 30 66  1  0  0  0  0
 30 67  1  0  0  0  0
 32 68  1  0  0  0  0
M  CHG  1  30   1
M  END
> <OMEGA_C>
PVsKQc0v8EAwN5PBozMEQY0nBEEDJJzBPID1QI5E30DWUYzB/1GvQO3gB0Gyda/B10+9QDZ7/UDd
fZfBq3+TQLZmLb+eCqbBrFzMQB4LSj8Fj6zBQqfVQHmp0L9tDa3B4lKuQLicEUE8R7nBC2PlQHUM
IkGiDK3BJbLcQKMbB0GCZJ7BOWbQQCQIEUGTeKjBtVPJQEdM50ANG47BaWGjQPFCHj/T/6fBjoms
QCts5r/inajBBpvlQIs3q74r/a7BD5/ZQLbTvj9CFJDB/AKsQM9EA0FhfWPB4OubQFUFDkGeGnjB
hVvLQBL34UDvdmjBapmGQCTg+kB5XIPBY1q3QMQuwUDqEHjBiwmmQJx+1kCrf4bBHLDiQLxFxz4S
8YfB67SJQE8L6T+gjaTB7EujQJ8lkUBuyY/B7r+iQOz/JkAnApzB04aHQH9Tb0CDeJfBIoGvQMmR
2j9EN5PBrMeLQAg9t0DyWYzBmJb3QCnOA0D5fZTBw8ZyQI3IkkAO9Z/BaEKdQCuoQsBTs6bBCaQG
QX2gLL53F7PBc9XSQPO4JkFv8LnBbhwbQYSV6kDBoZHBwDEQQbEqC0FiR6HB0TP/QD/uy0D7lIXB
wUOaQNX79UCAIa3BndabQAHOAEGFYJnB+kNoQNLNTr8vkaLBRE7YQJUh5D9+La7B3/HoQBWYH8Dm
967BYJ+ZQKLXDEHRxb/BmBr+QGdHK0GlJ6nBhl+8QB5KD0G/klnB4HeQQOKK+UAnqlrBrIOEQDt/
GkH99nPB4CS3QIFQFUEXRoDBiG7oQO1r70CAwW/BGMfTQCKX0UDrdlnB5iBWQDfY7EDfS37BP/p2
QKl5BUFBrorB4eTPQHKBqUAZbnzB26ucQOT5sEBO72/B7LsCQZ5egT7KI4fB1hPVQLf1Kz+uJYDB
OwvUQHgXDb+Yq4rBwcWDQM3uHUBwg6vBA/RVQOB8vj9iL6HBDB6rQMmxekBSx4jBQATBQFjSmkCt
1ZPBdH6/QEaFQkDcvp/B6DlYQNQvVEC8HZPB/2aYQCB0nD8SRY/BZ59nQIXxrUBmlofBiZx/QMGX
xUAv2JLBLhJQQFfRgkAGwaTBdc8JQef47EAS7pPB3h4DQT9+AUH6Ip3BpVT1QJfX3UBZhIzBOyef
QFmjGkGaz6jBBA+8QJLL+EDUzZfBTg/MQCstSz8/nKzBW8mTQIGHKr9asKXB3f/VQCzjz7+qnqzB
2z2bQMpSKkH+YbDBouzlQDc2G0G3ka/BtyraQNmmBEHuFZ/BgH3LQGt4EkFE6qfBBAXJQN685EDH
P47BFD2jQFxxID/59afBcYrlQOpcqb6F2a7BNAqtQDsz5b/kFajBcJfZQErmwz9/JZDBEpqsQDsL
A0EVZWPBpQGeQN77DUH4KXjB7UPLQN7W4EAEJmjBYa+HQPBY+0DiV4PBAya3QI1ZwECt1XfB5++l
QPWz1UDeX4bBPQHjQIA/4z4b6IfBJYOJQHu+6j/jp6TBup2hQIQfkECfcY/BAGqiQGkjKECHH5zB
KuyGQJpAcEAoopfBP2mvQGhL3T9AUpPB4raKQLSltkB8CIzBwGX3QOGRBkA9mZTByeN1QN1jlEDL
GKDB9oUGQTmHK77FDrPBSh2eQK7mQcAi6qXB7D3LQKRcLkEkIrfBjacaQcaj50BiiZLBZ9MOQfGK
B0H/uaLB5eD/QNXgzEBpd4XBSdOEQMvaFEHMBKTB8FiaQFSP+0C+k5nBxLTXQPRi5D8Vcq7Byi5p
QHAOS7+hHKLBHHzpQOxAH8DYYq7B+Dl8QIgRM0Hi9rHBbn4DQWC+FkFvubDBDRi9QK/XDkGXRFnB
BmKQQKC0+UCG41rBd5WHQE78GkG9SXTB+AW6QPabFEEPQYDBBczoQFWu7UBOQW/BF/PSQI9f0EAo
E1nBuDFXQDhv7kAZRX7Bho96QDnHBUF+tYrBEZrPQM+YqEDzN3zBgGKcQDk1sEAYvW/B3+kCQVIh
pD7xFIfBzkDVQAmUOz+GJIDB5rXUQM9fAb+tjYrBbdeDQBVaHkBdq6vB4E5VQJD1wD/GUqHBtmCn
QADUdkCqeYjBbGnAQJRDmUCrCpPBxxC/QLT2Q0Cc3p/BOvFUQHoRVUDGuJPB8HaYQF/NnT93Z4/B
Qt5lQAjmrUCvJYfB5Ah9QITjxEARhJLBnYNUQGhEhUCsM6XB

> <OMEGA_E>
IO5/PlQsgD4=

> <OMEGA_NBR>
    226094

$$$$
50214053
  -OEChem-04172616093D

 74 76  0     1  0  0  0  0  0999 V2000
    8.6639    7.4985  -18.3986 C   0  0  0  0  0  0  0  0  0  0  0  0
    7.7003    7.0088  -17.5041 C   0  0  0  0  0  0  0  0  0  0  0  0
    8.2704    8.1978  -19.5495 C   0  0  0  0  0  0  0  0  0  0  0  0
    5.9386    7.8792  -18.9372 C   0  0  0  0  0  0  0  0  0  0  0  0
    6.4250    0.8308  -21.5800 C   0  0  0  0  0  0  0  0  0  0  0  0
    4.5972   -0.6012  -20.8179 C   0  0  0  0  0  0  0  0  0  0  0  0
    6.6728   -1.5938  -21.6282 C   0  0  0  0  0  0  0  0  0  0  0  0
    6.3208    7.2253  -17.7462 C   0  0  0  0  0  0  0  0  0  0  0  0
    6.8960    8.4151  -19.8264 C   0  0  0  0  0  0  0  0  0  0  0  0
    5.1240    0.6844  -21.0506 C   0  0  0  0  0  0  0  0  0  0  0  0
    7.2024   -0.3079  -21.8567 C   0  0  0  0  0  0  0  0  0  0  0  0
    5.3681   -1.7388  -21.1143 C   0  0  0  0  0  0  0  0  0  0  0  0
    6.7464    1.4491  -18.0441 C   0  0  0  0  0  0  0  0  0  0  0  0
    5.3462    8.1979  -14.1986 C   0  0  0  0  0  0  0  0  0  0  0  0
    4.8776    8.8775  -15.4947 C   0  0  0  0  0  0  0  0  0  0  0  0
    6.3367    7.0598  -14.4930 C   0  0  0  0  0  0  0  0  0  0  0  0
    4.2269    7.8463  -16.4210 C   0  0  0  0  0  0  0  0  0  0  0  0
    5.7414    6.0366  -15.4882 C   0  0  0  0  0  0  0  0  0  0  0  0
    5.2128    6.7069  -16.7980 C   0  0  0  0  0  0  0  0  0  0  0  0
    6.9679    0.4355  -16.9259 C   0  0  0  0  0  0  0  0  0  0  0  0
    5.1539    9.9817  -20.8492 C   0  0  0  0  0  0  0  0  0  0  0  0
    6.1047    8.0393  -22.1720 C   0  0  0  0  0  0  0  0  0  0  0  0
    4.3347    1.9017  -20.6387 C   0  0  0  0  0  0  0  0  0  0  0  0
    5.1168    4.5508  -17.9751 C   0  0  0  0  0  0  0  0  0  0  0  0
    7.5500   10.0593  -21.6655 C   0  0  0  0  0  0  0  0  0  0  0  0
    5.0988    2.6576  -19.5357 C   0  0  1  0  0  0  0  0  0  0  0  0
    4.2583    3.7973  -18.9772 C   0  0  2  0  0  0  0  0  0  0  0  0
    6.4317    9.1230  -21.1172 C   0  0  0  0  0  0  0  0  0  0  0  0
    5.4439    1.7348  -18.4359 N   0  0  0  0  0  0  0  0  0  0  0  0
    4.3881    5.7370  -17.5328 N   0  3  0  0  0  0  0  0  0  0  0  0
    7.7042    2.0611  -18.5052 O   0  0  0  0  0  0  0  0  0  0  0  0
    7.1131   10.7995  -22.7994 O   0  0  0  0  0  0  0  0  0  0  0  0
    3.8719    4.6752  -20.0355 O   0  0  0  0  0  0  0  0  0  0  0  0
    8.4606   -0.1660  -22.3304 F   0  0  0  0  0  0  0  0  0  0  0  0
    4.8591   -2.9705  -20.8906 F   0  0  0  0  0  0  0  0  0  0  0  0
    9.7131    7.3364  -18.2004 H   0  0  0  0  0  0  0  0  0  0  0  0
    8.0118    6.4635  -16.6255 H   0  0  0  0  0  0  0  0  0  0  0  0
    9.0199    8.5738  -20.2302 H   0  0  0  0  0  0  0  0  0  0  0  0
    4.8890    7.9718  -19.1743 H   0  0  0  0  0  0  0  0  0  0  0  0
    6.8226    1.8164  -21.7721 H   0  0  0  0  0  0  0  0  0  0  0  0
    3.6025   -0.7126  -20.4124 H   0  0  0  0  0  0  0  0  0  0  0  0
    7.2669   -2.4687  -21.8469 H   0  0  0  0  0  0  0  0  0  0  0  0
    5.8387    8.9456  -13.5595 H   0  0  0  0  0  0  0  0  0  0  0  0
    4.4719    7.7856  -13.6736 H   0  0  0  0  0  0  0  0  0  0  0  0
    4.1455    9.6614  -15.2509 H   0  0  0  0  0  0  0  0  0  0  0  0
    5.7427    9.3289  -16.0026 H   0  0  0  0  0  0  0  0  0  0  0  0
    7.2542    7.4865  -14.9245 H   0  0  0  0  0  0  0  0  0  0  0  0
    6.5794    6.5442  -13.5521 H   0  0  0  0  0  0  0  0  0  0  0  0
    3.3557    7.4092  -15.9112 H   0  0  0  0  0  0  0  0  0  0  0  0
    3.8979    8.3515  -17.3411 H   0  0  0  0  0  0  0  0  0  0  0  0
    6.5226    5.3097  -15.7552 H   0  0  0  0  0  0  0  0  0  0  0  0
    4.9064    5.5141  -14.9985 H   0  0  0  0  0  0  0  0  0  0  0  0
    8.0378    0.3952  -16.6734 H   0  0  0  0  0  0  0  0  0  0  0  0
    6.3929    0.7376  -16.0381 H   0  0  0  0  0  0  0  0  0  0  0  0
    6.6325   -0.5576  -17.2595 H   0  0  0  0  0  0  0  0  0  0  0  0
    4.8416   10.4760  -21.7810 H   0  0  0  0  0  0  0  0  0  0  0  0
    4.3433    9.3305  -20.4903 H   0  0  0  0  0  0  0  0  0  0  0  0
    5.3771   10.7432  -20.0874 H   0  0  0  0  0  0  0  0  0  0  0  0
    5.7709    8.5216  -23.1026 H   0  0  0  0  0  0  0  0  0  0  0  0
    7.0048    7.4395  -22.3724 H   0  0  0  0  0  0  0  0  0  0  0  0
    5.3061    7.3860  -21.7908 H   0  0  0  0  0  0  0  0  0  0  0  0
    4.1972    2.5614  -21.5081 H   0  0  0  0  0  0  0  0  0  0  0  0
    3.3517    1.5895  -20.2562 H   0  0  0  0  0  0  0  0  0  0  0  0
    5.3310    3.9044  -17.1112 H   0  0  0  0  0  0  0  0  0  0  0  0
    6.0618    4.8528  -18.4504 H   0  0  0  0  0  0  0  0  0  0  0  0
    7.8448   10.7632  -20.8733 H   0  0  0  0  0  0  0  0  0  0  0  0
    8.4173    9.4468  -21.9532 H   0  0  0  0  0  0  0  0  0  0  0  0
    6.0205    3.0740  -19.9683 H   0  0  0  0  0  0  0  0  0  0  0  0
    3.3743    3.3859  -18.4679 H   0  0  0  0  0  0  0  0  0  0  0  0
    4.6962    1.2890  -17.9438 H   0  0  0  0  0  0  0  0  0  0  0  0
    3.6418    5.4428  -16.9356 H   0  0  0  0  0  0  0  0  0  0  0  0
    4.0102    6.1925  -18.3388 H   0  0  0  0  0  0  0  0  0  0  0  0
    7.8187   11.3572  -23.1052 H   0  0  0  0  0  0  0  0  0  0  0  0
    3.3354    4.2017  -20.6604 H   0  0  0  0  0  0  0  0  0  0  0  0
  1  2  2  0  0  0  0
  1  3  1  0  0  0  0
  2  8  1  0  0  0  0
  3  9  2  0  0  0  0
  4  8  2  0  0  0  0
  4  9  1  0  0  0  0
  5 10  1  0  0  0  0
  5 11  2  0  0  0  0
  6 10  2  0  0  0  0
  6 12  1  0  0  0  0
  7 11  1  0  0  0  0
  7 12  2  0  0  0  0
  8 19  1  0  0  0  0
  9 28  1  0  0  0  0
 10 23  1  0  0  0  0
 11 34  1  0  0  0  0
 12 35  1  0  0  0  0
 13 20  1  0  0  0  0
 13 29  1  0  0  0  0
 13 31  2  0  0  0  0
 14 15  1  0  0  0  0
 14 16  1  0  0  0  0
 15 17  1  0  0  0  0
 16 18  1  0  0  0  0
 17 19  1  0  0  0  0
 18 19  1  0  0  0  0
 19 30  1  0  0  0  0
 21 28  1  0  0  0  0
 22 28  1  0  0  0  0
 23 26  1  0  0  0  0
 24 27  1  0  0  0  0
 24 30  1  0  0  0  0
 25 28  1  0  0  0  0
 25 32  1  0  0  0  0
 26 27  1  0  0  0  0
 26 29  1  0  0  0  0
 27 33  1  0  0  0  0
  1 36  1  0  0  0  0
  2 37  1  0  0  0  0
  3 38  1  0  0  0  0
  4 39  1  0  0  0  0
  5 40  1  0  0  0  0
  6 41  1  0  0  0  0
  7 42  1  0  0  0  0
 14 43  1  0  0  0  0
 14 44  1  0  0  0  0
 15 45  1  0  0  0  0
 15 46  1  0  0  0  0
 16 47  1  0  0  0  0
 16 48  1  0  0  0  0
 17 49  1  0  0  0  0
 17 50  1  0  0  0  0
 18 51  1  0  0  0  0
 18 52  1  0  0  0  0
 20 53  1  0  0  0  0
 20 54  1  0  0  0  0
 20 55  1  0  0  0  0
 21 56  1  0  0  0  0
 21 57  1  0  0  0  0
 21 58  1  0  0  0  0
 22 59  1  0  0  0  0
 22 60  1  0  0  0  0
 22 61  1  0  0  0  0
 23 62  1  0  0  0  0
 23 63  1  0  0  0  0
 24 64  1  0  0  0  0
 24 65  1  0  0  0  0
 25 66  1  0  0  0  0
 25 67  1  0  0  0  0
 26 68  1  0  0  0  0
 27 69  1  0  0  0  0
 29 70  1  0  0  0  0
 30 71  1  0  0  0  0
 30 72  1  0  0  0  0
 32 73  1  0  0  0  0
 33 74  1  0  0  0  0
M  CHG  1  30   1
M  END
> <OMEGA_C>
KZ8KQaPz70BEMJPBFWn2QH5I4EBVCIzBnVMEQV0qA0FeZZzB1wi+QCMi/EBuf5fBeJnNQJetVD/N
o6zBVByTQG3lGb8oi6bBTIfVQN8AzL9+Bq3BskPKQAI250Ae+I3BLKzcQEakBkFlnJ7B8fejQJwz
Lz+5Z6jBzHnmQBGhnb5y2q7BNMerQByR3r8G6qjBr+LXQPV6uT9lWpDBFhSrQK4qA0FWLWPBlBWc
QFYKDkE46nfBYcbKQJLp4UBK42fBxEKHQN8U+0A8XoPBMLm3QN8rwUCEz3fBSM+mQBGf1kBIYobB
cPneQC/03j4yaIfBv+ykQCe1H0FCy6bBEVrDQA2hAEFJYLHBoLWKQMFp8z8OHKXB2byjQICgkUD6
zI/B4ZnxQMLyIEH0Uq3BjCmjQOQWKkAUSZzBxkOIQIUGc0BQ0ZfBwNDNQP/3EUH676jBbzSuQKQO
3j/CfJPBAWuMQCyVt0AYQ4zBrYj2QNfoA0C5CpTBRZ7jQJ7KLEE6ZbbByMx3QPKalUC2SKDBuF4H
QSYAKr6ypLLB6n2bQE4cPsDgH6fBtGgbQZnD6kBSmpHBcDAAQQDVzkDuAIXBalEQQWouCUFr16HB
qnKcQA8Z/0DrZJnBXVLaQAB/6D9aLa7BkY5mQKtuNr+vTKPBaIroQMD/HcCGxq7By9a6QAQhD0GN
81jBDhqPQIwj+UDoxlrB7aeEQEKVGkF/A3TB2cO3QB9DFUFgBYDBIyLoQFGR70Cxym7Bg4rSQGlq
0UBE1VjBqcNWQE4Y7UAVlH7BwXd5QNifBUGJuorBHrnQQGjpqUB5FXzBBAGdQKJzsECx+W/B6poA
QRReyj4SY4XB25LMQJbQPD8aToDBmT3UQJa+Dr+ME4rBte6aQLedJ0GCP67BRvyKQLVJFUE17KPB
7hCsQPzjK0H9sqDBVau4QF5YCEEf0rjBOCfgQJ8Q7kDH+rLBmcupQMZZ7ECkU67BVk+GQE3uI0CL
EKzBDoJWQPB0yz+1DKLBypeqQGrieUDE44jB4PnBQBNKm0BdmpPBoAj7QOY1LEFx/KbBUq0GQTUm
F0EQoK/BJKjAQNu7REAKv5/BxvRXQP+xWEBRvpPB8UaWQNn+pD/2jI/B3BJpQLcrrkAzfIfB4FOA
QOEoxkDqtZLB2zL6QCe3NUFw17jBMndVQAJ0hkB+SKXBuFwIQdc08kDC6ZPBaonzQJav4UAEb4zB
ogQBQVpDBEFq8pzB+a24QKgf/EDNRZfBbqbMQKtGYz+hBK3BgkyVQMCNHr91SabBEIbXQKA1w7+n
pa3B5/XGQH+X50Dc443BIJjVQEQpB0HZqp7B3SCkQIf4Lz+5SKjBfXXmQPhCX75Lm6/BRt+uQOCy
3L+fBqnB8yfbQDjBxD9dhpDBD7CrQJO3AkGYS2LB/9yaQFaiDUH1qHbBcqHLQAmt4UBGwmfBK2eF
QEYn+kCbnILBr/G3QAjbwEB3bHfBZA2lQM431kBD/IXB9FvlQGJb2z7tiIjBvFS4QOR3AUG0GbHB
rjDmQAULIkFEmq3BHPSJQPpo7z8ppaTBWKKiQNBakUDCe4/Bj4KbQCvcH0FjrKXBgNCiQN/WKUD6
CZzBzvaGQPADcEBYNpfBNzbEQJKgEkGPsKjBM7OwQBi33j8vbpPBGqCKQPSStkDCrYvBBoT4QADh
B0DmC5XB8suNQAYOLUEMR67BoF5vQFGKk0B4fZ/BGNwGQaDDx7yW4LPBvZKgQFp6PsBEFafBkVMZ
QZC47UD0tZLBwiD/QJdk0ECCiYXBm18MQYisCkG1naLB+L+WQL/8/UAI2ZjBdtDXQOLV8T9Qpq7B
9qRsQIivRb//p6LBjTzrQCb7F8D0r6/BgsK7QBe5DkFQPljByo+QQHea90DudlnB9mODQNX6GUGR
O3LBrLe1QGgcFUG+PH/BAS/oQML170CrK2/BJ9rUQKIZ0UDO7ljBubNUQCWl60BFnHzBViBzQDgv
BUH91onBwv/QQI8YqkC/QHzBXCSeQGqRr0ACJG/BQCAEQRnqmz6j7ofB+FDYQDL4MT8RpYDB09rW
QI2PA78XRIvBLtarQNlTCUEGVLjBtPfUQN428EA/K7PBEL6fQFmG7UC1yK3BgbXYQHnqKUEIt7TB
EBHvQLg6LkFcp6fBo2IBQUjbGEEL56/B2oeDQDrQIUAig6vBqPJWQEUcwj9HRqHBw2OrQKYDekD4
pIjBxda/QM4bnEBPmJPBoIeBQFzAFEEpk6PBRPOiQAULKkG4vZ7Bkge/QLhnR0C5yJ/BEElYQCHI
UkDM1pLBMCaaQLwgnj+1cI/BvXNnQC5erEANtYbBzWd6QMrvxEC9/ZHBAypqQEfZNEExLqzBZ8xM
QKqbg0AUT6TBNDwJQSaX8UBeOJTBULn0QJxX4UB51ozBATYCQTOaA0Gha53BX5y6QP1a+0B8AJjB
7sDMQIpoPj87P6zBj86TQKoiNL9FgqXBgd/VQIm31r+UYazBezzIQBod50Cog47BkRrYQBtZBkGn
XJ/BKcmjQOD8FT+Zp6fBtenlQNhVxr4sg67BB7qsQMrD6r9t7qfBce/ZQOyWuD9sHJDBbfirQEpW
A0GO82PBtDScQIMYDkGcm3jBoY7LQJdP4kCA4GjBGIyGQLX++kBLhIPBlgO4QHZhwUCqhHjBstCl
QCRz1kCUqIbBgqPiQKByvD5MuIfBddvpQJwrHkHVeK/B/ASgQJToHkEInKfBPDSKQK7x5T/vXaTB
H2aiQJFekEDUio/BckC6QNGq+kAwHLHBLuWiQDTwJUCbzpvBIC+HQMHlbUCjWpfBgGDHQD8+EEHf
zanBEravQP4c2j8Y7pLBYCeLQKPftkDATYzBrv73QNgC+D+TBZXBqjmrQCDWBEHQKrvBI/FyQBkV
kkA44p/BJMwGQeGdb74ipLLBb0ydQDlzRMCg2qXBOSgaQZ1v7UDkz5LBIdH/QFxa0ED114XB1sAN
QS3ZCUF7CqPB88eYQDuj/UCHrJnBk8HYQGa03T+dBK7BQ+VoQCTeUr+3AaLBOh7pQFj7IsCKKK7B
awm8QGtcD0E361nB51OQQE19+UCERlvB7BiFQJ69GkECkHTBAJq3QAoqFUEsjYDB2ZroQET670C4
GHDBB/PTQJb80UD121nBtDFWQHkl7UDLdn7BrYd2QKV4BUFU1orBHwLRQDtTqkAoEX3B/9qdQMV3
sEBhUnDBI6ECQR6FNj4SP4fBWezWQDP2NT97xn/Bvf/RQHE2D79N+YnBaXfcQBvlJEEi4rbB2K/z
QL1DK0FMIarBqecCQQYzFEGaaLHBcaKUQM/LJUHlMK/B8EOGQC5oFUFg8qPBgV6pQFngK0FgI6LB
bLaEQIrpG0CeZKvB1YRWQBCBvD9fEaHBCkGpQCtXeUAgdIjB0aPAQD+LmUAJa5PBrSzWQITd5UCA
ZrLBcK2gQJBK6ECyLa3BfZe/QF3kQUBOhJ/BOB9XQE5jUkDEHpPBWJGYQH6koT/2rY7BKXBmQIEs
rkCqdYfB1kp+QAO4xECc3JLBX16jQLn+8UCigr/BpO5QQE0XgkCcwKTB

> <OMEGA_E>
0NFkPrgSdD5wQWE+

> <OMEGA_NBR>
    229891

$$$$
50214056
  -OEChem-04172616093D

 68 70  0     1  0  0  0  0  0999 V2000
    8.5611    7.5851  -18.5662 C   0  0  0  0  0  0  0  0  0  0  0  0
    8.0908    8.1972  -19.7410 C   0  0  0  0  0  0  0  0  0  0  0  0
    7.6502    7.0997  -17.6065 C   0  0  0  0  0  0  0  0  0  0  0  0
    5.7966    7.8705  -18.9829 C   0  0  0  0  0  0  0  0  0  0  0  0
    6.4395    0.8095  -21.5386 C   0  0  0  0  0  0  0  0  0  0  0  0
    4.6201   -0.6302  -20.7715 C   0  0  0  0  0  0  0  0  0  0  0  0
    6.7006   -1.6136  -21.5803 C   0  0  0  0  0  0  0  0  0  0  0  0
    6.7052    8.3241  -19.9519 C   0  0  0  0  0  0  0  0  0  0  0  0
    6.2502    7.2623  -17.7912 C   0  0  0  0  0  0  0  0  0  0  0  0
    5.1402    0.6574  -21.0068 C   0  0  0  0  0  0  0  0  0  0  0  0
    7.2235   -0.3256  -21.8115 C   0  0  0  0  0  0  0  0  0  0  0  0
    5.3965   -1.7644  -21.0667 C   0  0  0  0  0  0  0  0  0  0  0  0
    6.2918    8.1921  -22.3684 C   0  0  0  0  0  0  0  0  0  0  0  0
    6.1904    8.8998  -21.1930 C   0  0  0  0  0  0  0  0  0  0  0  0
    6.7625    1.4669  -17.9841 C   0  0  0  0  0  0  0  0  0  0  0  0
    5.3394    8.1462  -14.1700 C   0  0  0  0  0  0  0  0  0  0  0  0
    4.8321    8.8441  -15.4413 C   0  0  0  0  0  0  0  0  0  0  0  0
    6.3659    7.0548  -14.5122 C   0  0  0  0  0  0  0  0  0  0  0  0
    4.1920    7.8189  -16.3800 C   0  0  0  0  0  0  0  0  0  0  0  0
    5.7891    6.0349  -15.5172 C   0  0  0  0  0  0  0  0  0  0  0  0
    5.1965    6.7113  -16.7975 C   0  0  0  0  0  0  0  0  0  0  0  0
    5.5073   10.2479  -21.1540 C   0  0  0  0  0  0  0  0  0  0  0  0
    6.9875    0.4155  -16.9018 C   0  0  0  0  0  0  0  0  0  0  0  0
    4.3443    1.8709  -20.5976 C   0  0  0  0  0  0  0  0  0  0  0  0
    5.1087    4.5421  -17.9523 C   0  0  0  0  0  0  0  0  0  0  0  0
    5.1053    2.6389  -19.5002 C   0  0  1  0  0  0  0  0  0  0  0  0
    4.2537    3.7729  -18.9447 C   0  0  2  0  0  0  0  0  0  0  0  0
    5.4595    1.7295  -18.3918 N   0  0  0  0  0  0  0  0  0  0  0  0
    4.3709    5.7227  -17.5087 N   0  3  0  0  0  0  0  0  0  0  0  0
    7.7274    1.9431  -18.5728 O   0  0  0  0  0  0  0  0  0  0  0  0
    3.8504    4.6410  -20.0043 O   0  0  0  0  0  0  0  0  0  0  0  0
    8.4816   -0.1786  -22.2841 F   0  0  0  0  0  0  0  0  0  0  0  0
    4.8942   -2.9983  -20.8404 F   0  0  0  0  0  0  0  0  0  0  0  0
    9.6235    7.4864  -18.3986 H   0  0  0  0  0  0  0  0  0  0  0  0
    8.7886    8.5677  -20.4774 H   0  0  0  0  0  0  0  0  0  0  0  0
    8.0191    6.5999  -16.7230 H   0  0  0  0  0  0  0  0  0  0  0  0
    4.7362    7.9882  -19.1506 H   0  0  0  0  0  0  0  0  0  0  0  0
    6.8308    1.7966  -21.7357 H   0  0  0  0  0  0  0  0  0  0  0  0
    3.6263   -0.7461  -20.3650 H   0  0  0  0  0  0  0  0  0  0  0  0
    7.2994   -2.4859  -21.7967 H   0  0  0  0  0  0  0  0  0  0  0  0
    5.8802    8.5984  -23.2806 H   0  0  0  0  0  0  0  0  0  0  0  0
    6.7830    7.2303  -22.3791 H   0  0  0  0  0  0  0  0  0  0  0  0
    5.8128    8.8923  -13.5148 H   0  0  0  0  0  0  0  0  0  0  0  0
    4.4873    7.6873  -13.6473 H   0  0  0  0  0  0  0  0  0  0  0  0
    4.0848    9.6033  -15.1668 H   0  0  0  0  0  0  0  0  0  0  0  0
    5.6767    9.3290  -15.9526 H   0  0  0  0  0  0  0  0  0  0  0  0
    7.2568    7.5266  -14.9525 H   0  0  0  0  0  0  0  0  0  0  0  0
    6.6487    6.5273  -13.5893 H   0  0  0  0  0  0  0  0  0  0  0  0
    3.3390    7.3507  -15.8671 H   0  0  0  0  0  0  0  0  0  0  0  0
    3.8374    8.3366  -17.2836 H   0  0  0  0  0  0  0  0  0  0  0  0
    6.5933    5.3494  -15.8225 H   0  0  0  0  0  0  0  0  0  0  0  0
    4.9906    5.4649  -15.0197 H   0  0  0  0  0  0  0  0  0  0  0  0
    5.1852   10.5257  -22.1685 H   0  0  0  0  0  0  0  0  0  0  0  0
    4.6301   10.1953  -20.4924 H   0  0  0  0  0  0  0  0  0  0  0  0
    6.2095   11.0037  -20.7725 H   0  0  0  0  0  0  0  0  0  0  0  0
    8.0651    0.2210  -16.7972 H   0  0  0  0  0  0  0  0  0  0  0  0
    6.5867    0.7824  -15.9454 H   0  0  0  0  0  0  0  0  0  0  0  0
    6.4726   -0.5152  -17.1823 H   0  0  0  0  0  0  0  0  0  0  0  0
    4.1993    2.5254  -21.4697 H   0  0  0  0  0  0  0  0  0  0  0  0
    3.3648    1.5534  -20.2106 H   0  0  0  0  0  0  0  0  0  0  0  0
    5.3364    3.9022  -17.0870 H   0  0  0  0  0  0  0  0  0  0  0  0
    6.0467    4.8527  -18.4356 H   0  0  0  0  0  0  0  0  0  0  0  0
    6.0222    3.0619  -19.9367 H   0  0  0  0  0  0  0  0  0  0  0  0
    3.3777    3.3539  -18.4278 H   0  0  0  0  0  0  0  0  0  0  0  0
    4.7151    1.2740  -17.9036 H   0  0  0  0  0  0  0  0  0  0  0  0
    3.6393    5.4244  -16.8957 H   0  0  0  0  0  0  0  0  0  0  0  0
    3.9728    6.1651  -18.3123 H   0  0  0  0  0  0  0  0  0  0  0  0
    3.3159    4.1582  -20.6238 H   0  0  0  0  0  0  0  0  0  0  0  0
  1  2  2  0  0  0  0
  1  3  1  0  0  0  0
  2  8  1  0  0  0  0
  3  9  2  0  0  0  0
  4  8  2  0  0  0  0
  4  9  1  0  0  0  0
  5 10  1  0  0  0  0
  5 11  2  0  0  0  0
  6 10  2  0  0  0  0
  6 12  1  0  0  0  0
  7 11  1  0  0  0  0
  7 12  2  0  0  0  0
  8 14  1  0  0  0  0
  9 21  1  0  0  0  0
 10 24  1  0  0  0  0
 11 32  1  0  0  0  0
 12 33  1  0  0  0  0
 13 14  2  0  0  0  0
 14 22  1  0  0  0  0
 15 23  1  0  0  0  0
 15 28  1  0  0  0  0
 15 30  2  0  0  0  0
 16 17  1  0  0  0  0
 16 18  1  0  0  0  0
 17 19  1  0  0  0  0
 18 20  1  0  0  0  0
 19 21  1  0  0  0  0
 20 21  1  0  0  0  0
 21 29  1  0  0  0  0
 24 26  1  0  0  0  0
 25 27  1  0  0  0  0
 25 29  1  0  0  0  0
 26 27  1  0  0  0  0
 26 28  1  0  0  0  0
 27 31  1  0  0  0  0
  1 34  1  0  0  0  0
  2 35  1  0  0  0  0
  3 36  1  0  0  0  0
  4 37  1  0  0  0  0
  5 38  1  0  0  0  0
  6 39  1  0  0  0  0
  7 40  1  0  0  0  0
 13 41  1  0  0  0  0
 13 42  1  0  0  0  0
 16 43  1  0  0  0  0
 16 44  1  0  0  0  0
 17 45  1  0  0  0  0
 17 46  1  0  0  0  0
 18 47  1  0  0  0  0
 18 48  1  0  0  0  0
 19 49  1  0  0  0  0
 19 50  1  0  0  0  0
 20 51  1  0  0  0  0
 20 52  1  0  0  0  0
 22 53  1  0  0  0  0
 22 54  1  0  0  0  0
 22 55  1  0  0  0  0
 23 56  1  0  0  0  0
 23 57  1  0  0  0  0
 23 58  1  0  0  0  0
 24 59  1  0  0  0  0
 24 60  1  0  0  0  0
 25 61  1  0  0  0  0
 25 62  1  0  0  0  0
 26 63  1  0  0  0  0
 27 64  1  0  0  0  0
 28 65  1  0  0  0  0
 29 66  1  0  0  0  0
 29 67  1  0  0  0  0
 31 68  1  0  0  0  0
M  CHG  1  29   1
M  END
> <OMEGA_C>
V/oIQdS48kCmh5TBCnQBQZInA0Gl7Z3BLs70QIww40AM2ozBjH25QGnb+0Dk3JfBlhDOQB46Tz8j
T6zB+9eTQN1XIb8dLKbBJWvWQJSLzr9ipKzBBZHWQK8vBUFtnZ/BagHIQGpk6EBiVI7Bm3ykQC1O
KD/fDajBoCbnQEC4pr77fa7BGLCsQKfX4b+OiKjBylbJQOcSA0GR8rLBJhjGQI5lDkE2i6nBfmbY
QKbCuz+H34/BxdyqQPpWAkFAuGLBSaCaQHmBDUGHD3fBvLXLQODA4UAVMmjBKCWGQLQ0+kBUCoPB
6j+5QPwdwUBtRnjBVEmmQOHC1kBRYYbB4zuwQDr3I0F8O6nBwJnfQOq51D73NofBHgSLQC167z/R
x6TBIHqjQOFYkUBBno/B/F6jQFfkKEB6AJzBKB6IQJZ2cUDPjpfB6rOuQLVh3T9UIpPBw96LQPYf
t0DkEYzBFkf3QP+3+D8qlZTBfmx2QOGClEDQCKDBjLQHQRzWNr6+RbLBRJ2cQIbjP8ANuabBr/kZ
QeGQ70BMMJPBLJ4MQW8VCUGi0aPBDk4AQScy00C0yIXB0o6XQPSe/0BqNJnB2ZXaQHj45T+h4q3B
7xRoQPb/Pr+K66LB/pTpQL4ZH8ChX67B7Sq8QOKSCUGSPrrBtA7ZQPRe50BXCLPBnQK6QOlGDkGM
PFjBKZiPQPX99UBEW1rBD7eCQPamGUEsq3LBXqe1QMdDFUHzPX/BUzfoQMnZ8ECCPW/BLsLUQFjf
0EDdbVnBPLJVQAs560Cp333Buph1QJJiBUG2RIrBh/zSQFUuq0AQKX3B27KfQEvgrkCkUHDBIu2l
QERpKEEEWbHBsimUQNAfI0GG8KPBXrTGQE4PMEElLqbBvQoBQc9JYj65YIbBmcbSQH5LSD9qIH/B
jh/PQDTmA79EdYnBnmCGQECgIUD2wavBFlhXQMTVxj9Er6HB7cOqQDK9eUBEsojBbH7BQC5Jm0Az
fJPB8bXAQMf1Q0BPfp/B2yxYQNemVkAhbJPB3OGWQCERoz+HOo/B6OpoQOuUrUBjKofBH0N+QEZI
xUCtf5LB0zdUQNMPhUCD/aTB/qvQQILqB0GDjJ/BVP38QIg+B0EIn53B9yy0QNDL/UCGEpjBCC3w
QEC15kC6KY3BX4vJQDQSKT9BiazBDJCQQD0/NL+eyaTBFu3OQFjP4r++0azBPHgGQRoR+kB3UZTB
3tDDQJCt6UC5p47BFLehQLe8Dz/FSKfBvzXgQLecAb80P6/B8hCnQG5U779Gm6fBD4smQS4b4UDI
CorBtWkdQWqw/EBOZpHBdKDaQBrVuj8K+4/BNpOtQO6f/0DH+mDBVOWdQMZaDEEto3TBHNLMQFxN
3EAYpWfBaZOGQL6g+kBrI4LBJi25QJLDvkAp4HjB8Y+kQPzf1kCiTobBZuMqQcdTEEEC8pXBjbzi
QIxUzT5paofBjwOKQECK5z8nCKTBT7miQM6ekUAGh4/BojSkQM9zJ0AA1pvBpkqJQMlxckCiz5fB
tIewQJ5s4D+yvpLBekeKQFxxt0ASEozBuuz4QAwz9T/CCpXBMmZ/QGodlUB2hqDBQ0kDQYCq0r7Q
LbTBpXOWQDZRRcDBRqXBR4bEQN9SD0FhvabBJHAJQYeDDkHQO6PB/SCSQORE/0BmgpnBs3v8QMAx
1UA4YYbBCpzWQEK20D/VeK7BXVpkQCtOR7/+tqDByz3gQBi7KsCa9K7Bv/82QURs5UD3oofBzDYd
QW9Cx0BptIbBvtS9QMDaCkHd8VXB++uRQD4U8UDo31jBpsaHQPACGUEIa2/BRIS5QOaeE0GkxnzB
CgHqQGQi60AaHW7ByQLVQEsCyUBQgVnB2o1WQLbV60BE/HvBnsh1QAO3BkH6+ojBaZ7SQLitqUDF
8H7BCBugQGJTq0DJP3HBqmQ7QW7hDkEC+pLBKt8qQVNcD0Fou57BZi4kQVHNH0EVbpPBaZkCQYTf
Oz6o/IbB457XQM5YRj9LPX/BGznRQLidBL+vd4nBhFCEQBuCG0CfJ6vBZ1lWQNRuwz96cKDBStuo
QHeoeUATmIjBz1vBQN7nm0AwBJPBwhbBQNVyQEAUx5/BLnNXQDzOWUBlKZTBxyeZQGmDrT+tTY7B
J0VlQJDPrUBjP4fBHLB7QM2RxUBsipLBemlfQEEChkAyxaXBOd4IQRnd8EDPz5TBWEQBQaPTA0GV
vZ3BgdL0QO354EDPH43B65G5QL1l/0B4M5fBrGnNQAvzRT8qT6zBNrySQLLEJr8YOKbBVBLVQDx8
0781razBEUTWQOZ2B0En6Z7BmzHIQGu56EBQJ47BQcSjQGDZIT9vEajBISrmQFisvL5Eg67BAUar
QL9l5b/SlajBQbGnQBY/IkEMkqfBoBLFQDnoEUGygKjBcnTYQHEdvT8l5o/BWdqsQDokAkHquWLB
42ibQIA0DUHf33bB1B7NQCTy4EDwhGjBv0eGQFVL+UC6v4LBKqK5QM5ZwEBXUHjBWIOmQGJF1kDn
U4bBxy3RQARKCUGeZLPBpFfgQBNZwz4ApIfBN42KQKsq7T+7z6TBNOCjQCFRkUDLz4/BISqjQILt
J0A7F5zBAy+IQJXrcEDMo5fBALWuQDI62z+EQJPBKz+MQOP9tkBPL4zBXQ33QCFBAUDwQJTBQCB2
QFsAlEByJKDBezgHQTNbbb7JTrLBVM+aQHNpQcBF0abBp9QZQWyG60As2JPBDlcMQfvCCUE2rKPB
8FQAQcrHzkDUZobBvbCXQNVyAkEDNpjB2z3aQGzr4D/s263BxrxlQHlZQr/z/KLBCALoQK/iIcC1
Z67BiiWZQKL7KEG0pa7B9jafQGBQKEFhw5/B89i8QLweDkFqnFjBSwmSQI/29UCv2lnBB6KDQOVQ
GUHtNXLBTuW1QNj8FEFNd3/BS3DpQKK170DU62/BDa/WQD4Y0EBZ01nB7IRXQDP+6UCm0HzBwnlz
QO/PBEHf4onBmdHSQDLnqUC3VX3BuACgQPanrkD0HHDBtZrBQGnsEkHdpLnBWB30QMcdCkHzYrTB
E6LGQOEa8UBaErTBFH0BQVC6ZD7RtYbBpYPSQPX5Lj+K1X/BZDbRQMF7Db+YVorBbuSFQB03IEDD
z6vBKW1WQHlpxT/XqqHBP7erQLXceUAg6YjB0ZbBQPtqm0ALzJPBgHPAQH2xQkBgpZ/BNIpYQEWD
VkBbapPBwA2XQCExnj9aco/BBkVpQPI+rUDDXYfBno1/QA2HxUAEmJLBDoNTQJ9whEAUCKXB

> <OMEGA_E>
2IURPqQzlD5Q5Qk+

> <OMEGA_NBR>
    233448

$$$$
50214054
  -OEChem-04172616093D

 67 69  0     1  0  0  0  0  0999 V2000
    8.5637    7.6159  -18.5869 C   0  0  0  0  0  0  0  0  0  0  0  0
    7.6554    7.1359  -17.6243 C   0  0  0  0  0  0  0  0  0  0  0  0
    8.0954    8.1197  -19.8123 C   0  0  0  0  0  0  0  0  0  0  0  0
    5.8008    7.7128  -19.0960 C   0  0  0  0  0  0  0  0  0  0  0  0
    4.5897   -0.7048  -20.7415 C   0  0  0  0  0  0  0  0  0  0  0  0
    6.4149    0.7297  -21.5049 C   0  0  0  0  0  0  0  0  0  0  0  0
    6.6666   -1.6942  -21.5522 C   0  0  0  0  0  0  0  0  0  0  0  0
    6.2557    7.2119  -17.8507 C   0  0  0  0  0  0  0  0  0  0  0  0
    6.7141    8.1219  -20.0872 C   0  0  0  0  0  0  0  0  0  0  0  0
    5.1152    0.5816  -20.9728 C   0  0  0  0  0  0  0  0  0  0  0  0
    5.3619   -1.8413  -21.0393 C   0  0  0  0  0  0  0  0  0  0  0  0
    7.1943   -0.4077  -21.7806 C   0  0  0  0  0  0  0  0  0  0  0  0
    6.7552    1.4396  -17.9420 C   0  0  0  0  0  0  0  0  0  0  0  0
    5.3284    8.0846  -14.1809 C   0  0  0  0  0  0  0  0  0  0  0  0
    4.8586    8.8082  -15.4523 C   0  0  0  0  0  0  0  0  0  0  0  0
    6.3647    7.0052  -14.5209 C   0  0  0  0  0  0  0  0  0  0  0  0
    4.2245    7.8091  -16.4246 C   0  0  0  0  0  0  0  0  0  0  0  0
    5.8113    6.0011  -15.5541 C   0  0  0  0  0  0  0  0  0  0  0  0
    5.2117    6.6838  -16.8326 C   0  0  0  0  0  0  0  0  0  0  0  0
    6.9954    0.3692  -16.8815 C   0  0  0  0  0  0  0  0  0  0  0  0
    6.1534   10.1039  -21.4948 C   0  0  0  0  0  0  0  0  0  0  0  0
    6.2112    8.5741  -21.4409 C   0  0  0  0  0  0  0  0  0  0  0  0
    4.3223    1.7979  -20.5648 C   0  0  0  0  0  0  0  0  0  0  0  0
    5.0981    4.4900  -17.9417 C   0  0  0  0  0  0  0  0  0  0  0  0
    5.0914    2.5744  -19.4789 C   0  0  1  0  0  0  0  0  0  0  0  0
    4.2434    3.7149  -18.9295 C   0  0  2  0  0  0  0  0  0  0  0  0
    5.4522    1.6687  -18.3697 N   0  0  0  0  0  0  0  0  0  0  0  0
    4.3719    5.6885  -17.5208 N   0  3  0  0  0  0  0  0  0  0  0  0
    7.7146    1.9696  -18.4925 O   0  0  0  0  0  0  0  0  0  0  0  0
    3.8453    4.5763  -19.9963 O   0  0  0  0  0  0  0  0  0  0  0  0
    4.8544   -3.0741  -20.8185 F   0  0  0  0  0  0  0  0  0  0  0  0
    8.4524   -0.2643  -22.2541 F   0  0  0  0  0  0  0  0  0  0  0  0
    9.6241    7.5970  -18.3828 H   0  0  0  0  0  0  0  0  0  0  0  0
    8.0264    6.7061  -16.7057 H   0  0  0  0  0  0  0  0  0  0  0  0
    8.7930    8.5042  -20.5416 H   0  0  0  0  0  0  0  0  0  0  0  0
    4.7402    7.7818  -19.2874 H   0  0  0  0  0  0  0  0  0  0  0  0
    3.5951   -0.8178  -20.3359 H   0  0  0  0  0  0  0  0  0  0  0  0
    6.8100    1.7158  -21.6998 H   0  0  0  0  0  0  0  0  0  0  0  0
    7.2623   -2.5683  -21.7703 H   0  0  0  0  0  0  0  0  0  0  0  0
    5.7812    8.8164  -13.4958 H   0  0  0  0  0  0  0  0  0  0  0  0
    4.4626    7.6128  -13.6934 H   0  0  0  0  0  0  0  0  0  0  0  0
    4.1160    9.5733  -15.1817 H   0  0  0  0  0  0  0  0  0  0  0  0
    5.7211    9.2893  -15.9366 H   0  0  0  0  0  0  0  0  0  0  0  0
    7.2619    7.4880  -14.9356 H   0  0  0  0  0  0  0  0  0  0  0  0
    6.6318    6.4629  -13.6019 H   0  0  0  0  0  0  0  0  0  0  0  0
    3.3470    7.3534  -15.9427 H   0  0  0  0  0  0  0  0  0  0  0  0
    3.9073    8.3478  -17.3297 H   0  0  0  0  0  0  0  0  0  0  0  0
    6.6300    5.3362  -15.8663 H   0  0  0  0  0  0  0  0  0  0  0  0
    5.0199    5.4075  -15.0731 H   0  0  0  0  0  0  0  0  0  0  0  0
    8.0770    0.2152  -16.7536 H   0  0  0  0  0  0  0  0  0  0  0  0
    6.5560    0.6941  -15.9268 H   0  0  0  0  0  0  0  0  0  0  0  0
    6.5260   -0.5735  -17.1993 H   0  0  0  0  0  0  0  0  0  0  0  0
    5.7871   10.4230  -22.4817 H   0  0  0  0  0  0  0  0  0  0  0  0
    5.4719   10.4727  -20.7141 H   0  0  0  0  0  0  0  0  0  0  0  0
    7.1598   10.5149  -21.3270 H   0  0  0  0  0  0  0  0  0  0  0  0
    6.8921    8.2076  -22.2233 H   0  0  0  0  0  0  0  0  0  0  0  0
    5.2042    8.1654  -21.6104 H   0  0  0  0  0  0  0  0  0  0  0  0
    4.1698    2.4463  -21.4402 H   0  0  0  0  0  0  0  0  0  0  0  0
    3.3461    1.4826  -20.1677 H   0  0  0  0  0  0  0  0  0  0  0  0
    5.3107    3.8607  -17.0649 H   0  0  0  0  0  0  0  0  0  0  0  0
    6.0439    4.7815  -18.4218 H   0  0  0  0  0  0  0  0  0  0  0  0
    6.0058    2.9925  -19.9250 H   0  0  0  0  0  0  0  0  0  0  0  0
    3.3652    3.3021  -18.4113 H   0  0  0  0  0  0  0  0  0  0  0  0
    4.7127    1.1901  -17.8963 H   0  0  0  0  0  0  0  0  0  0  0  0
    3.6393    5.4109  -16.8993 H   0  0  0  0  0  0  0  0  0  0  0  0
    3.9756    6.1179  -18.3323 H   0  0  0  0  0  0  0  0  0  0  0  0
    3.3108    4.0906  -20.6135 H   0  0  0  0  0  0  0  0  0  0  0  0
  1  2  1  0  0  0  0
  1  3  2  0  0  0  0
  2  8  2  0  0  0  0
  3  9  1  0  0  0  0
  4  8  1  0  0  0  0
  4  9  2  0  0  0  0
  5 10  1  0  0  0  0
  5 11  2  0  0  0  0
  6 10  2  0  0  0  0
  6 12  1  0  0  0  0
  7 11  1  0  0  0  0
  7 12  2  0  0  0  0
  8 19  1  0  0  0  0
  9 22  1  0  0  0  0
 10 23  1  0  0  0  0
 11 31  1  0  0  0  0
 12 32  1  0  0  0  0
 13 20  1  0  0  0  0
 13 27  1  0  0  0  0
 13 29  2  0  0  0  0
 14 15  1  0  0  0  0
 14 16  1  0  0  0  0
 15 17  1  0  0  0  0
 16 18  1  0  0  0  0
 17 19  1  0  0  0  0
 18 19  1  0  0  0  0
 19 28  1  0  0  0  0
 21 22  1  0  0  0  0
 23 25  1  0  0  0  0
 24 26  1  0  0  0  0
 24 28  1  0  0  0  0
 25 26  1  0  0  0  0
 25 27  1  0  0  0  0
 26 30  1  0  0  0  0
  1 33  1  0  0  0  0
  2 34  1  0  0  0  0
  3 35  1  0  0  0  0
  4 36  1  0  0  0  0
  5 37  1  0  0  0  0
  6 38  1  0  0  0  0
  7 39  1  0  0  0  0
 14 40  1  0  0  0  0
 14 41  1  0  0  0  0
 15 42  1  0  0  0  0
 15 43  1  0  0  0  0
 16 44  1  0  0  0  0
 16 45  1  0  0  0  0
 17 46  1  0  0  0  0
 17 47  1  0  0  0  0
 18 48  1  0  0  0  0
 18 49  1  0  0  0  0
 20 50  1  0  0  0  0
 20 51  1  0  0  0  0
 20 52  1  0  0  0  0
 21 53  1  0  0  0  0
 21 54  1  0  0  0  0
 21 55  1  0  0  0  0
 22 56  1  0  0  0  0
 22 57  1  0  0  0  0
 23 58  1  0  0  0  0
 23 59  1  0  0  0  0
 24 60  1  0  0  0  0
 24 61  1  0  0  0  0
 25 62  1  0  0  0  0
 26 63  1  0  0  0  0
 27 64  1  0  0  0  0
 28 65  1  0  0  0  0
 28 66  1  0  0  0  0
 30 67  1  0  0  0  0
M  CHG  1  28   1
M  END
> <OMEGA_C>
7QQJQca180D/sZTBuvj0QFNZ5ECq/ozBr4YBQUzqAUGxf57BiKC5QHDP9kCFxJjB2t6SQGptNL+O
7qXB6kbNQPzNOj/zCazBwlTVQC/d2L/taqzB8C7IQO7H5kBHzo7BwtnWQE/zAUGEsqDBjq+jQFDi
FD9cyKfBkpSrQFmw67+IUKjBaDfmQOHB0L6WPq7BmirYQBJEuD8wiY/BpIKqQKdaAUEI5WLBQHmb
QFruDEGmPHfB2qvLQJgq4ECfVWjBMi+HQGLk+UCqZYPB6vW5QD4JwECz3XjBVsamQPXh1UAhqYbB
NtrfQMkMvT5NDYfBtOjEQI6pIUFj9avBiMLGQFcvCUEDh6vB4k+KQLQh5j/PhKTBeiOjQMqtj0Cf
iI/B9OyiQHvCJEDO1JvBGsqHQDDAbUCKb5fBGHiuQBmZ1T8d9ZLBVOaLQGoItkCTKozBNt72QEAa
/D+98JPBzRh2QG9xkkBV+J/BfFebQK6+RMBbjKbB7TwHQThVh75fCLLBN/wZQVQa80AKEJPBP2wA
QR+Y1kA7pYXBKbAMQV0RCEFBVaTBj6+XQE0E+UCBTJrB1RZmQMhbUb/4r6LBJ+vZQHqe2z82ma3B
02ToQOFeJMCoKa7B6P+4QBoQDUGZ7lfBqs2OQMyb80A1GFvBfLaDQGIsGUFe6HLBLxO3QCyhFEEw
/H7Bw2HoQFqd70Au+G7BUjfUQAXQzkBPoVnBGTVWQFBP60ArFX/B+hB6QJ2QBUFMo4rBQynUQOrB
qkBa3H3BPqOgQB0KrUCBK3HBeTsBQXVkXD5tB4bB38rRQMOtMT8r1H7Bt9TQQKjNEr8cmInB2y+5
QG3EJkGa2rPBhRmvQACQJ0F7tqXBcB3lQPg8KEGlnarBU4zcQE1SA0FOybHBaIimQFWlAkEk4qzB
9m6FQOmQHECUhavB8iZWQE/EvT9tV6HBKfGpQKYVd0DjhIjBW2fBQNUBmUDmX5PB5S/AQImFP0Bc
Zp/BP2BXQO9VU0BlSpPBZs6WQAJVmD+eK4/BMOpoQOwlrUDEMYfB83B+QC3Gw0CgqJLBKORTQIXm
gkBc6KTByUMJQXgj8kCv0JTBQTT1QGmX40AFE43BB+kBQdIsAUGcop7BJC26QEDh9kCP3JjBjnzN
QBXdOj/286vBXMmSQMG2Mr8N7KXBJxvVQEn72L9va6zB93PIQK605kAQ447BZ57XQOOsAUEFz6DB
+NKjQJz4FT83u6fBLjvmQEcb0r70Mq7BzUurQLMo67/6VajBMxLYQI45tj8ciI/BdmWqQLW+AUGP
N2PBroubQK41DUEPqHfBF3bLQP3B4ECYgGjBIj2HQNJO+kDEkIPBr6y5QEx8wEB47njB7smmQE0o
1kAswIbB4M3fQFEcsj6wFofBXUXDQN/eIUHQYavBl7jHQJt1CUFXjqvBbICKQCrO5j9If6TB8/+i
QB61j0DNfY/Bt/GiQH+/JEBlwpvBGsqHQMjkbUCgbJfBZFauQM8j1T+b4pLBleSLQBRKtkCEPIzB
/cH2QAHf+j+i5JPBUfd2QDZ+kkBlAaDBR0EHQe3eir6T/LHB57maQMdPRMAipqbBKzoaQefU8ED2
MpPBTW0AQZbw1UDKsIXBCi4NQY4BB0EPgKTBBkeYQKGu+UD7Y5rB4lPaQIeB2z9kdK3B495lQDWp
Tr9Jr6LBoAboQLCUJMCVL67BV+q4QF+ADUHCUFjB9JiOQB6Y9ECSZlvBZ9eDQO+EGUEqcXPBET23
QKTPFEE5a3/BU0DoQLoB8EChKm/BdOTTQM+Tz0AWu1nBbi9WQAXj60BCZ3/BhmB6QMawBUHe1orB
uMXTQOj1qkCRy33B2CugQPTFrUDRNXHBUzYBQfW9ST5vDYbB/6LRQCZvKj+/437BH+rQQKw9GL+I
ronBLbW3QHR3J0FnNbPBKlGsQCyJJkGvIaXBn5jiQJ8jKUGqranBM6reQF3PBEHRz7HBvmKoQOo0
AkHXQ63BvOSFQJgLHUCZf6vBjUhWQEDFvj9pYaHBd2GpQGRad0DpbojBT3vBQOO8mEDrRJPB9U7A
QGxtP0DaSJ/BTQFXQL2/U0DkVJPBUZqWQED3mD/YDo/BXIxoQDSwrUAZSYfBQOp+QHXlw0CYxpLB
fepUQFz9gkCv96TBk8TdQGZ0B0FU357B5b2+QPD2/UBt4JfBIsAEQfUABkF7S5zBi033QF/P5UAm
5IvBoseKQE5XOz0wWbLBB47EQD5N4b3SS6XB8X7IQK/+sb9Y1LXBl/rKQJrL6UCxLI7Bii8LQQMW
90Dl1ZLBxdycQOxC5T42fajBY5OgQMVBXr9FALnBfWraQPY9gb9A9qvBu1PaQLD85z+8/4zB/pir
QJmGAUH96WHBA6icQG1yDUEDJXbBkrfLQNuO30CFkmfBT0aIQAN3+0AEHIPB/3C5QOh0wECNrnjB
aOOnQPJx10DypIbBxe3nQIJpZz8qxIPBLiQpQWvcDUG1BYnB8LgiQV3E9ECp2o/B7P6DQIbrtD+s
UaHBNAKmQCAakkAlpZDBm1mhQOQaGECpy5rByKSIQModaUBoMpfBd1uxQDt21D+fPpHBPO+NQMEO
uEDu4ozB2pL0QKuEJEDJEJHBB69zQB68i0CFVaDBmiuPQBR0n780cMLBo1EAQYQiwb9x0KjBUPbT
QBAUD0FzOqbBqD+dQB0tAEHo65nB6JcQQc7lDEHxjqHBIa8AQXhN1UDPuoTBdkVYQOVh4T49zLTB
HyHSQL0EJD50pp3Bv07ZQKNCBcAC97rBSfy6QMH7DEEC/lbBDamPQMWq9ECF+1nBIeSEQKyeGUEk
oXHBl1a4QC1GFUF3sH3BRRnpQN5V7kBW2G3BpUfTQIdNzUDNAVnB+1NYQDyO7EBysX7BM1F8QMu5
BkERPYrBJRLTQNBdqkDTiH3BDhufQPsyrkBCZnHBXPgEQVNLiT+t8YHBI4jUQJ39kD8xT3nBThfj
QIjfFr5hDobB5TQ6QXbADEE68YbBh0cmQY2hHEHBlo3Bl4QfQcodDkHIp4HB9aYlQdtO10D/Q4vB
5GksQWJW9ED5MpfBIG1dQA0wAUBcY6bBYmhhQAIQUz8FqpvBKWqyQBVzgEAqsYnB9ODAQPOfnEAz
r5XBX2m8QEmcK0AU3p/BQvlaQPBpVUA7K5LBt3adQCMDgz83l43B8dlrQMfvrUDxPYjBYACCQJQY
x0BxSZPBADxPQOjjc0Dle6TB

> <OMEGA_E>
wMESPjCBFj6knSM/

> <OMEGA_NBR>
    236965

$$$$
50214050
  -OEChem-04172616093D

 67 69  0     1  0  0  0  0  0999 V2000
    8.5468    7.5000  -18.5910 C   0  0  0  0  0  0  0  0  0  0  0  0
    7.6437    7.0270  -17.6204 C   0  0  0  0  0  0  0  0  0  0  0  0
    8.0690    8.1452  -19.7444 C   0  0  0  0  0  0  0  0  0  0  0  0
    5.7845    7.8493  -18.9581 C   0  0  0  0  0  0  0  0  0  0  0  0
    6.4242    0.7892  -21.5496 C   0  0  0  0  0  0  0  0  0  0  0  0
    4.5990   -0.6412  -20.7786 C   0  0  0  0  0  0  0  0  0  0  0  0
    6.6691   -1.6359  -21.5995 C   0  0  0  0  0  0  0  0  0  0  0  0
    6.2465    7.2223  -17.7827 C   0  0  0  0  0  0  0  0  0  0  0  0
    5.1263    0.6439  -21.0124 C   0  0  0  0  0  0  0  0  0  0  0  0
    7.1988   -0.3505  -21.8310 C   0  0  0  0  0  0  0  0  0  0  0  0
    5.3666   -1.7796  -21.0802 C   0  0  0  0  0  0  0  0  0  0  0  0
    6.6826    8.3178  -19.9242 C   0  0  0  0  0  0  0  0  0  0  0  0
    6.7696    1.4349  -18.0358 C   0  0  0  0  0  0  0  0  0  0  0  0
    5.4308    8.1310  -14.1689 C   0  0  0  0  0  0  0  0  0  0  0  0
    4.9247    8.8357  -15.4369 C   0  0  0  0  0  0  0  0  0  0  0  0
    6.4130    7.0012  -14.5177 C   0  0  0  0  0  0  0  0  0  0  0  0
    4.2291    7.8214  -16.3499 C   0  0  0  0  0  0  0  0  0  0  0  0
    5.7914    5.9973  -15.5130 C   0  0  0  0  0  0  0  0  0  0  0  0
    5.1972    6.6881  -16.7844 C   0  0  0  0  0  0  0  0  0  0  0  0
    7.0072    0.4128  -16.9277 C   0  0  0  0  0  0  0  0  0  0  0  0
    7.2594   10.2705  -21.9889 C   0  0  0  0  0  0  0  0  0  0  0  0
    4.3350    1.8616  -20.6044 C   0  0  0  0  0  0  0  0  0  0  0  0
    5.0920    4.5333  -17.9598 C   0  0  0  0  0  0  0  0  0  0  0  0
    5.0991    2.6352  -19.5130 C   0  0  1  0  0  0  0  0  0  0  0  0
    4.2454    3.7717  -18.9633 C   0  0  2  0  0  0  0  0  0  0  0  0
    5.4611    1.7257  -18.4062 N   0  0  0  0  0  0  0  0  0  0  0  0
    4.3579    5.7137  -17.5013 N   0  3  0  0  0  0  0  0  0  0  0  0
    7.7224    2.0435  -18.5115 O   0  0  0  0  0  0  0  0  0  0  0  0
    5.9053    8.0360  -22.4182 O   0  0  0  0  0  0  0  0  0  0  0  0
    4.8444    9.8709  -20.9991 O   0  0  0  0  0  0  0  0  0  0  0  0
    3.8606    4.6439  -20.0262 O   0  0  0  0  0  0  0  0  0  0  0  0
    8.4545   -0.2109  -22.3124 F   0  0  0  0  0  0  0  0  0  0  0  0
    4.8561   -3.0109  -20.8577 F   0  0  0  0  0  0  0  0  0  0  0  0
    6.0241    9.0930  -21.4048 S   0  0  0  0  0  0  0  0  0  0  0  0
    9.6091    7.3669  -18.4490 H   0  0  0  0  0  0  0  0  0  0  0  0
    8.0157    6.5123  -16.7468 H   0  0  0  0  0  0  0  0  0  0  0  0
    8.7617    8.5071  -20.4897 H   0  0  0  0  0  0  0  0  0  0  0  0
    4.7228    7.9697  -19.1153 H   0  0  0  0  0  0  0  0  0  0  0  0
    6.8216    1.7745  -21.7442 H   0  0  0  0  0  0  0  0  0  0  0  0
    3.6062   -0.7518  -20.3680 H   0  0  0  0  0  0  0  0  0  0  0  0
    7.2617   -2.5114  -21.8202 H   0  0  0  0  0  0  0  0  0  0  0  0
    5.9412    8.8659  -13.5290 H   0  0  0  0  0  0  0  0  0  0  0  0
    4.5728    7.7065  -13.6271 H   0  0  0  0  0  0  0  0  0  0  0  0
    4.2111    9.6245  -15.1565 H   0  0  0  0  0  0  0  0  0  0  0  0
    5.7758    9.2840  -15.9703 H   0  0  0  0  0  0  0  0  0  0  0  0
    7.3158    7.4390  -14.9687 H   0  0  0  0  0  0  0  0  0  0  0  0
    6.6859    6.4675  -13.5953 H   0  0  0  0  0  0  0  0  0  0  0  0
    3.3797    7.3780  -15.8096 H   0  0  0  0  0  0  0  0  0  0  0  0
    3.8619    8.3412  -17.2471 H   0  0  0  0  0  0  0  0  0  0  0  0
    6.5712    5.2894  -15.8304 H   0  0  0  0  0  0  0  0  0  0  0  0
    4.9855    5.4501  -15.0020 H   0  0  0  0  0  0  0  0  0  0  0  0
    8.0816    0.3647  -16.6967 H   0  0  0  0  0  0  0  0  0  0  0  0
    6.4517    0.7129  -16.0269 H   0  0  0  0  0  0  0  0  0  0  0  0
    6.6592   -0.5762  -17.2605 H   0  0  0  0  0  0  0  0  0  0  0  0
    6.8914   10.7679  -22.8984 H   0  0  0  0  0  0  0  0  0  0  0  0
    7.4456   11.0235  -21.2090 H   0  0  0  0  0  0  0  0  0  0  0  0
    8.1950    9.7381  -22.2153 H   0  0  0  0  0  0  0  0  0  0  0  0
    4.1883    2.5123  -21.4791 H   0  0  0  0  0  0  0  0  0  0  0  0
    3.3563    1.5475  -20.2128 H   0  0  0  0  0  0  0  0  0  0  0  0
    5.3160    3.8838  -17.1008 H   0  0  0  0  0  0  0  0  0  0  0  0
    6.0320    4.8479  -18.4366 H   0  0  0  0  0  0  0  0  0  0  0  0
    6.0133    3.0580  -19.9552 H   0  0  0  0  0  0  0  0  0  0  0  0
    3.3611    3.3554  -18.4586 H   0  0  0  0  0  0  0  0  0  0  0  0
    4.7203    1.2931  -17.8924 H   0  0  0  0  0  0  0  0  0  0  0  0
    3.6279    5.4133  -16.8875 H   0  0  0  0  0  0  0  0  0  0  0  0
    3.9582    6.1666  -18.2982 H   0  0  0  0  0  0  0  0  0  0  0  0
    3.3309    4.1654  -20.6531 H   0  0  0  0  0  0  0  0  0  0  0  0
  1  2  2  0  0  0  0
  1  3  1  0  0  0  0
  2  8  1  0  0  0  0
  3 12  2  0  0  0  0
  4  8  2  0  0  0  0
  4 12  1  0  0  0  0
  5  9  1  0  0  0  0
  5 10  2  0  0  0  0
  6  9  2  0  0  0  0
  6 11  1  0  0  0  0
  7 10  1  0  0  0  0
  7 11  2  0  0  0  0
  8 19  1  0  0  0  0
  9 22  1  0  0  0  0
 10 32  1  0  0  0  0
 11 33  1  0  0  0  0
 12 34  1  0  0  0  0
 13 20  1  0  0  0  0
 13 26  1  0  0  0  0
 13 28  2  0  0  0  0
 14 15  1  0  0  0  0
 14 16  1  0  0  0  0
 15 17  1  0  0  0  0
 16 18  1  0  0  0  0
 17 19  1  0  0  0  0
 18 19  1  0  0  0  0
 19 27  1  0  0  0  0
 21 34  1  0  0  0  0
 22 24  1  0  0  0  0
 23 25  1  0  0  0  0
 23 27  1  0  0  0  0
 24 25  1  0  0  0  0
 24 26  1  0  0  0  0
 25 31  1  0  0  0  0
 29 34  2  0  0  0  0
 30 34  2  0  0  0  0
  1 35  1  0  0  0  0
  2 36  1  0  0  0  0
  3 37  1  0  0  0  0
  4 38  1  0  0  0  0
  5 39  1  0  0  0  0
  6 40  1  0  0  0  0
  7 41  1  0  0  0  0
 14 42  1  0  0  0  0
 14 43  1  0  0  0  0
 15 44  1  0  0  0  0
 15 45  1  0  0  0  0
 16 46  1  0  0  0  0
 16 47  1  0  0  0  0
 17 48  1  0  0  0  0
 17 49  1  0  0  0  0
 18 50  1  0  0  0  0
 18 51  1  0  0  0  0
 20 52  1  0  0  0  0
 20 53  1  0  0  0  0
 20 54  1  0  0  0  0
 21 55  1  0  0  0  0
 21 56  1  0  0  0  0
 21 57  1  0  0  0  0
 22 58  1  0  0  0  0
 22 59  1  0  0  0  0
 23 60  1  0  0  0  0
 23 61  1  0  0  0  0
 24 62  1  0  0  0  0
 25 63  1  0  0  0  0
 26 64  1  0  0  0  0
 27 65  1  0  0  0  0
 27 66  1  0  0  0  0
 31 67  1  0  0  0  0
M  CHG  1  27   1
M  END
> <OMEGA_C>
jr8IQVoA8EBkupTB9Zj0QDTd4ECB9ozBihoBQZdSAkFx9J3B2xq5QFAt+0BIqpfBT5PNQN0LSj+j
ZazB3yqTQJ8oJL+AOqbBlmnVQBRk0b/Sy6zBFOPHQCId50DnQo7BVAqkQI7YJD9YGajBxVzmQOZ4
s77ypa7B4bqrQIHL479ApKjBd9fVQJQVBUHGZJ/BQKDYQAaqtz85SZDBLcmtQKYYAkHFs2LBv5ad
QClfDUGW/XbBrzfNQLQJ4EBkSGjBwVSHQIBI+kCZzILBHVO5QKvpv0A1NXjBi0+mQMIE1kCIRobB
xzrgQLBY0z7pa4fBLU3oQMdTJEFB6a/BY7iKQFhK7j/e1aTBcfGiQKEQkUDDrY/B8SujQMamKECZ
GpzBYdqHQK9jcUDAtJfBO8GuQN3k3D/0P5PBQHSLQHPWtkC0AozBgR33QG/IAkB0F5TBCvi8QJ6T
AEF8WLPBFgWbQGTvHUEQ/qfBhBR3QCmblEDBNaDBmEUHQc3tV761f7LBG2WbQP2yQMB53KbBo8XA
QNN8EUH8PKvByL4ZQYG960CUl5PBRkAAQR1l0EBu+YXBGTAMQQQdCEHY6qPBcyGXQPcH/0Ai7JjB
nUraQEwh4z8Y9K3BuctmQIh3QL/E8aLB4V/oQPG6IMC7j67BoR6+QLXaDUHsdljB+lOSQFib9kDE
CFrBCsGGQP79GUESgXLBfdO4QHGLFEF5hn/BxhrqQHoM7kCmf2/B4/LVQJ31zkB7hlnBpExYQIwY
7EAe9HzBqil3QF11BUEV+onBl0fSQMdCqUBmSX3BAImfQAJnrkBjCHDBIk4BQRO9uj7ckoXBKHTO
QBeANj8qN4DBVhjVQHCDE7+UFYrBWIbcQDhJLEHYL7fBK0LuQGNgMEENrKnBwR4DQT3PG0H9uLHB
SQaGQFXKIEAx1avB+8xWQIoUxj/Ts6HB2RyqQDOQeEBqzojBOQbBQFsim0A0fpPB5WzAQAK2Q0Ap
pJ/BAhxXQG6/VkAyq5PBWQyXQCmFpT+iI4/BDy9oQFs5rUCnGYfBjFJ9QPRUxUC4YpLB2y1VQEZL
hUCPOaXBSJoJQSnF8EDpcJTBKVD1QMLs30BhJI3BqrACQdwbBUH9Bp3BHXS7QIpjAEEDQZfBuRLN
QN7iST9ScqzBMyCTQFCmJ7/nM6bBRHzVQBUw0b9f2KzB2OrIQIaL6EDqT47ByamjQEo8Ij9oGKjB
ThXmQBPCsL4suq7B7e6rQJzK5L92oajBMm/ZQB4xCUFqZZ7BvbnYQF7JtD8kT5DBSpmsQFylAUHP
12LBpISbQI/3DEF+8HbBf+bMQOEY4ECcvmjBNJmGQPRU+UBk+YLB81u5QLzqv0AItXjBDrqmQOk3
1kB+j4bBhMPgQA8Kvj6onYfB2rS7QAN7BUH3+rPB+UGKQOob7D97vKTBapSjQHvqkEDyyY/BW9+i
QIskJ0BF/5vB/LqHQKmZb0AWgJfBl72uQP082T/yM5PBKmaMQC46t0AqcYzBN/32QD43AkAOFpTB
6ROeQIyiIkEdn6bBtODqQCHxJUEjX63BN/5zQOMmk0CW+5/BfBIHQbbHSL7dobLBlfqbQKlrQcDJ
y6bBM//GQCW1GEFqoanB0m8aQY4Y6kCQbpPB7R4AQTg/zED9lYbBfzAOQZ+8C0FOj6LBk7OZQC7q
AkGbnZjBRYXZQNxr4z9cBa7BxNtmQOzNRb8F5KLBs53oQEhaIMAdoq7BD3S8QJV8DUE+g1jBGqCR
QDDH9EC8K1rBY62DQK8FGUGZNnLBqy62QN7bFEFHSn/BxEPpQAn57kCtC3DBAGPWQL3xzkA4IFrB
CGpXQDkD6kBKkH3BgTV1QAcSBUHVGYrBtWjSQGlHqUAMr33Bhm2fQBhjrkDWp3DBz5oBQQ/gpT75
14XBvyzPQLnZJj/MVIDBF7HVQLT1HL9gZ4rBcC2wQADYDUG6KrvBvwzZQA8k+UCP7LXBFv+iQIeM
9EAhLLHBjVOFQH8RIEBcsKvB2BdWQKMawz9mk6HBE+6qQNYtekDpwIjB3IvBQCEwmkAXyJPB7wfA
QA5mQkBbj5/BgkVYQDvFVED9L5PBijCXQKDkoD+DFo/BF09oQLg/rkBQuofB59KAQPihxUAk+ZLB
mSBRQB9pg0DAzqTBK4sJQZ4l8UCDZZTBkCT1QPRY4EB5G43BHq8CQRZvBUFx8JzBz2+7QOsAAUE8
G5fBdwqTQK3pKr8GNqbBuNXMQGG2SD88bKzBVWbVQMea0b+L8qzBcMvIQOhN6UDUO47Bu3yjQIKa
Hz+PDKjB5+OrQOD65b+it6jBSublQA8esb5Qxa7Bz3vZQOG8CUHGQJ7BB4PYQOIKuT/r6o/BkzGs
QEMLAkEM5GLB1daaQAo2DUHPA3fBdKjMQBb/4EDqvWjBzyOGQEp++UAY+ILB/jS5QBiRwEA0nHjB
MJOmQNye1kAsiobBvIHgQHEdqD4w2YfBqRq8QFvcBUHC1bPBNguKQJV06j+CpKTBpS6kQNRbkUAP
5o/Br/SiQM2gJkAm+pvBrxeIQLWgb0CyfZfB67OuQIFc2D9SLJPBC5SMQHBTt0ClcIzBCQj3QD1L
AEBrK5TBbyyeQKYXI0HhkKbB+hrrQN1jJkGfP63BgvdzQDLWkkC4/5/BywScQBMqQsD676bBLPYG
QQefQr7DrrLBLy3HQLwtGUEnhKnB3FsaQZM56kDAaZPBzv7/QBZvzEB5lobBSzMOQdn/C0FEe6LB
vLiZQIrDA0EQaZjBK8hmQLI4Sr+y4aLBGjHZQKQV4z949q3Bk5HoQOJjIMDGyq7Bs/y7QF/8DUFm
p1jBVVyRQLOF9UDHIVrBm86CQFwuGUGEUHLBxVS1QDovFUHJbH/B2+roQPfx70BlG3DBOUrWQKQH
0EC1F1rBgN5WQHD96UBbfX3BqdZzQGIJBUH1GorByU7SQOfrqUCJg33BmUyfQA0Ur0BrhHDBP5QB
QXufMD6G7obBj5bSQC9yGz9dFIDBCofRQOSwGb8Ct4rBfKawQLwnDkGIDLvBkYHZQL/r+UDou7XB
dWSjQP5P9UDHBrHBcbqEQDMaH0A4l6vBXAZWQBwFwT8IZaHBrV+sQNlIe0D55ojBULHBQD0dm0CG
B5TBMCXAQGJUQUDilp/B7VRZQCsyVUDxEpPBkxqXQF/tmz9HT4/BwCppQCjhrUD+s4fBaKKAQN+7
xUDh7ZLBPdVQQDzjgkAKwKTBoEkKQRAV8kAhjpPBK+z1QMcl4kARV4zB18cDQXJWA0Gs/JzBkO28
QFMR+0AlDpjB7qqTQAo+Kb8nRabBdKTMQGgXUj+ggKzB4xLWQO5czL/zR63Bf4PJQGt950DAVo7B
05KjQPNkIz8gBajBfcysQGJ5478d96jBSATmQODSl74WB6/B37DbQCJsBUFoSp/B7HbZQHYAuD+9
UpDBTNepQEecAUGUr2LBVhObQKo9DUFoD3fBs4TKQIQn4EA9CGjBZfeGQA+t+kDXYoPBrza4QL1D
wECrhHjBlJamQCOP1kBSl4bBVAPiQAC11D7+g4fBbfCdQDHTIkFCbajB8LeJQNln6j90fKTB6/Ki
QD/RkECIn4/BiqqiQH5JJ0BB55vBXVOHQGxib0AOYpfB/kmvQBeo2j+FH5PBi/6LQNN3t0DWZYzB
omj3QBxCBEAWMJTBsHTtQCOmH0EWW6/B+UO6QDR1AEFDhLLBdgtzQFoNk0B+3J/B9mWdQIZzQcBh
T6fBEOMGQXYO973TDbPBgaLKQGGwEUH3pKvBRR8bQYN07kBy1JHBISQAQb6q0UB3M4XB2ZIPQRmk
CUGfdaLB/1ObQCfy/UAB8pnBFHBoQEHBTL8a3aLByIvYQOig6D80/a3Bk37pQFokHcApQK/BAqq4
QMNBDUG4xFfBhe2NQFKS9EDg2lrBKEWDQLN5GUE2xXLBVsu2QEL1FEEdr37Bm3rnQKkY70B5r27B
lsXSQO/BzkCITFnBX1ZVQI0p7EB6On/ByV96QCMEBkEgpIrBZ8TRQB/wqUCDMn3BXvOdQBddrkBN
9HDBPT4CQfLMxT5+wIXBglfQQLuJMz+yQYDBHl3XQNwSFL/bL4rBVGKSQJexKkHDv6/BJAOEQOUu
GUGY76TBJS+oQA0KL0G5oaLB26CDQJ0IH0AGZqvBtiJWQNCzvj9TIaHBzcOpQKU4ekCQiIjBXzLB
QHq3mUAaiZPBO3a/QGDtQkANmp/Bd39XQGolVEBkGpPBnBGYQCCOoT+e7o7B91FnQFnkrkBmqofB
Jo+AQPimxUB5+ZLB2XlQQDFBg0BAtaTBQ18KQW4S8kAyhJPBGgL2QHVK4kDLTYzBGu0DQfQlA0FT
AZ3BgSe9QPd++kDkJ5jBlFnNQMPEUj8Wh6zBTCSUQHrNJb8WRabBS7HWQBxAzL8vFq3Bx57JQH1h
50BlXo7BZB2kQMwrJj8gH6jBvr/mQD7ymL6H6K7BzE6tQHhj4r+s0ajBQAbcQBAWBUGQYZ/B2BTZ
QHxHvj8/94/B+36pQBgeAkEF7GLBc9eaQJCFDUEmcXfB9UfKQFse4UDDCGjBkuyGQKHi+kDFg4PB
ZCu4QIXWwEC3Z3jBQ6GmQNWv1kA/mobB9pnhQGLPwj451YfBe/meQEKMIkHUwajBbUqKQHqi7D/2
r6TBGBWjQLzekEBlno/B4tiiQETWJ0DP+ZvBamOHQHt/b0DdYZfBlSevQBCK2j8mPJPBSQyMQBhl
t0CsWIzBAVT3QPqeA0AVP5TB01ruQLKdHkGusK/BWW+6QO0+/0BDi7LBkn9yQIovk0Cezp/BtFMH
QVq2Bb7V3LLBQNWdQLy7QMDIEqfB4jfLQDIDEUEV1qvBEDIbQbCb7kBevpHB/yQAQWAe0kAhHYXB
gcAPQalsCUG+d6LBXJabQMwX/UBeG5rBh17ZQHuh6D9ZEa7BIDhpQCXTR7+b5aLB4RvqQJhNHcAu
9q7BaTK4QJjjDUEHGVjBnY2NQM2x9UAeEVvBuPOCQCnGGUHOUnPBfZa2QLAwFUEGF3/BgUPnQFD8
70CXtG7BL3TSQJwI0EDpMlnBPy9VQGd67EB4d3/BdXR6QKL3BUFt0orBD9HRQB5+qkB17nzBFued
QPUCr0D3zHDBUCkCQbvsdz7z5obBW4bTQAXUKD8JFYDB1hbTQDTNDr8kporBfpOTQCE6KkERJbDB
TdOEQNcyGUEXLKXBxJCpQJbmLkFSE6PBT+GEQCtbIECGnavB655WQNTbwT8feqHB/w2qQPgvekD4
jIjB5T/BQCDpmUC9jJPBPMW/QEHYQ0A5kZ/BX/dXQCzMU0B0FJPBG9mXQF+Cmz9FbI/B+d1nQL+v
rkAuj4fB30uAQLd9xUBm5pLB6OFPQJhig0DepaTB9cMIQatq8ECDyJTBzpj0QB454UCzCI3B1SQB
Qct/AkGKBZ7B6B65QFJS+0AVx5fBFv2SQLZXHr9SaabBz8XNQK40TD/JkKzBX0LVQKJ80L/kzqzB
O9zHQKdP50COWo7BlhekQCGLKT8UV6jBmnerQGqe4b9ms6jBAHDmQAD9sb6Ztq7Be+zVQLc0BUGG
fp/BYTjYQPBdtj/FR5DBZ++sQAgcA0ERXGPBoO2bQIK8DUFR1XfBXgPNQFBo4kAznGjB5oOGQInf
+UD5CoPBSIm5QAIowUBGGnjB6FWmQOMV1kBDWIbBflnfQLjlzD5raYfBAdjoQFBCJEHYHbDBzRWL
QBps8T96FaXBaaejQA+7kEAdoo/Bo3KjQDCtKEClM5zBI1mIQEQjcUDKrJfBTYmuQGlp2j9DcpPB
2t2LQMA4tkDp74vB3tL2QPMHA0DM4JPB7MC8QNe2AEGYdLPBI4SbQM5NHkHAIKjBVol3QFLDlEAx
GaDBwP2aQF9WP8Ah0abBF10HQe8SXr7egrLBzPzAQAqlEUHbXqvBFMMZQZ8+7EAToJPBPD8AQevR
0EDxCIbBOz8MQaZPCEFe+KPBLiaXQC4P/0CiD5nBHDhmQNerOL+KLaPBU7LaQDXL4z90Ja7BwCDo
QEKOIMARf67B7/W8QIBGD0Gpe1nB2eWRQGKF+EDxaFrB2meEQCYbGkGDinPB/ay2QDgiFUHgR4DB
JYvpQFmf8ECdE3DBAT3WQIsy0kAUr1nBVWZXQHRh60B6SH3B/7B0QN/OBEFKTYrBIMPSQJyMqkBu
43zBTfGfQHHDr0C5tm/BIscAQW9Juj4dW4XBocLMQAhqMD80ToDBqtzUQHpbF7/YLYrBxCLdQLY1
LEHEZrfBjRvvQItVMEGs6KnBHEwDQZ2UG0FH7rHBERiHQOoMI0AcC6zBg+RWQHSEyj8EF6LBvv+q
QBupd0Bvy4jByaTBQAcEm0DcdJPBrujAQOrCQ0BvoJ/BelFYQNZGVkDWnJPBKqCWQL5RoD/6j4/B
huFpQLZXrECj7obBWPd8QAxRxEDXSpLBSWdVQG+ahUAbHqXBYqTdQJZAB0Fu657BIYG+QDPN/UAY
6pfBLakEQaLMBUHXTJzBwdH2QK2o5UC+5IvBWLSKQFJ9Sj3VV7LBeXrEQGhq373KSqXBrVHIQLQU
sr+w0bXBIKTKQK+06UDjMY7B2dGcQIDO5j5kfKjBg2+gQMrCXb8b/rjBv0XaQNJggb9G9KvBnfQK
QeYl90C3wZLB+lzaQAon6D96/4zB9NGrQGCgAUHG7GHBeeScQMyEDUGwLXbBv8HLQN2X30AdjmfB
xUGIQC2d+0D6F4PBZkm5QBKEwEAmo3jBba+nQPJ510D7oYbBuvLnQNqQZz+yxIPB1qMsQRpZEkFf
mYfBAgKEQCB2tT9QUaHB/fClQJckkkAOnpDBlmShQPxMGEAiy5rBL6yIQKxKaUDyMpfBl2KxQMfH
1D86PpHBx8SNQNoLuEAZ24zBj6D0QK+SJEAgEJHBU5kpQatJ0EDclYfBZKMzQeUK9kCQ8JjB5f5z
QBLji0CtVqDBlv+OQAgen7+MbcLB2zoAQYCUwb8HzqjBbvomQVJI9EDPC4/BL/TTQHPHDkFoT6bB
5wadQC8pAEEj95nBbJIQQS6ADEFZlqHB22UAQZ3k1EAJw4TB+StYQLQ95D4Ey7TBTRTSQNPaJD4c
pp3BrxPZQEppBcBx87rB01m7QOYVDUEnDlfBqtqPQOwJ9UAr8VnB2kaFQFjEGUHSq3HBw524QCVA
FUFqyH3BIDTpQJQz7kC42W3BRj/TQJJazUC9+VjBD0tYQOvW7EBZmH7BHzV8QMrJBkEoOYrB0dLS
QGpUqkCtgH3Bi+2eQEpdrkBGT3HBdfsEQRJDiT9c8oHBX4/UQLMVkT+eT3nBsxXjQFsLFr6dD4bB
t4Y9QSdhEkFWHoXBOX0pQe5cIEEIr4zBlVYiQQQCE0HDeIDB6oJdQA+EAUBKY6bBNV9hQL5jVD+r
qZvByEuyQIVygEBcqonB29nAQA+8nEBpopXB8XS8QA/MK0B/3Z/BqeNaQAqPVUBqMpLBlHmdQIVl
gz/Olo3BA6FrQNzfrUBgM4jB/MGBQJ0Kx0DnQJPB46VPQFtCdEDRgqTB

> <OMEGA_E>
MAaOPsxFjj7sFY8+MHeQPoBUkT5A240+TPc3Pw==

> <OMEGA_NBR>
    244697

$$$$
50214083
  -OEChem-04172616093D

 69 71  0     1  0  0  0  0  0999 V2000
    8.6111    7.5090  -18.5012 C   0  0  0  0  0  0  0  0  0  0  0  0
    7.6705    7.0201  -17.5801 C   0  0  0  0  0  0  0  0  0  0  0  0
    8.1895    8.1989  -19.6495 C   0  0  0  0  0  0  0  0  0  0  0  0
    5.8721    7.8818  -18.9752 C   0  0  0  0  0  0  0  0  0  0  0  0
    4.6107   -0.6524  -20.7633 C   0  0  0  0  0  0  0  0  0  0  0  0
    6.4088    0.8013  -21.5544 C   0  0  0  0  0  0  0  0  0  0  0  0
    6.6869   -1.6196  -21.6023 C   0  0  0  0  0  0  0  0  0  0  0  0
    6.2842    7.2269  -17.7907 C   0  0  0  0  0  0  0  0  0  0  0  0
    5.1178    0.6391  -21.0054 C   0  0  0  0  0  0  0  0  0  0  0  0
    6.8092    8.4026  -19.9013 C   0  0  0  0  0  0  0  0  0  0  0  0
    5.3917   -1.7804  -21.0696 C   0  0  0  0  0  0  0  0  0  0  0  0
    7.1962   -0.3276  -21.8416 C   0  0  0  0  0  0  0  0  0  0  0  0
    6.7852    1.4332  -18.0524 C   0  0  0  0  0  0  0  0  0  0  0  0
    5.3460    8.1514  -14.1909 C   0  0  0  0  0  0  0  0  0  0  0  0
    4.8540    8.8446  -15.4713 C   0  0  0  0  0  0  0  0  0  0  0  0
    6.3543    7.0382  -14.5173 C   0  0  0  0  0  0  0  0  0  0  0  0
    4.2083    7.8204  -16.4086 C   0  0  0  0  0  0  0  0  0  0  0  0
    5.7622    6.0203  -15.5167 C   0  0  0  0  0  0  0  0  0  0  0  0
    5.2020    6.6966  -16.8129 C   0  0  0  0  0  0  0  0  0  0  0  0
    7.0446    0.4304  -16.9322 C   0  0  0  0  0  0  0  0  0  0  0  0
    7.3657    9.8079  -21.9188 C   0  0  0  0  0  0  0  0  0  0  0  0
    4.9768    9.6760  -21.0691 C   0  0  0  0  0  0  0  0  0  0  0  0
    4.3167    1.8464  -20.5877 C   0  0  0  0  0  0  0  0  0  0  0  0
    5.1025    4.5273  -17.9628 C   0  0  0  0  0  0  0  0  0  0  0  0
    5.0878    2.6226  -19.5044 C   0  0  1  0  0  0  0  0  0  0  0  0
    4.2370    3.7512  -18.9397 C   0  0  2  0  0  0  0  0  0  0  0  0
    5.4699    1.7141  -18.4044 N   0  0  0  0  0  0  0  0  0  0  0  0
    6.3731    9.1512  -21.0220 N   0  0  0  0  0  0  0  0  0  0  0  0
    4.3736    5.7172  -17.5303 N   0  3  0  0  0  0  0  0  0  0  0  0
    7.7256    2.0505  -18.5412 O   0  0  0  0  0  0  0  0  0  0  0  0
    3.8143    4.6128  -19.9974 O   0  0  0  0  0  0  0  0  0  0  0  0
    4.9019   -3.0181  -20.8371 F   0  0  0  0  0  0  0  0  0  0  0  0
    8.4432   -0.1708  -22.3398 F   0  0  0  0  0  0  0  0  0  0  0  0
    9.6653    7.3534  -18.3253 H   0  0  0  0  0  0  0  0  0  0  0  0
    8.0057    6.4828  -16.7053 H   0  0  0  0  0  0  0  0  0  0  0  0
    8.9226    8.5773  -20.3464 H   0  0  0  0  0  0  0  0  0  0  0  0
    4.8167    7.9873  -19.1785 H   0  0  0  0  0  0  0  0  0  0  0  0
    3.6235   -0.7759  -20.3431 H   0  0  0  0  0  0  0  0  0  0  0  0
    6.7908    1.7917  -21.7536 H   0  0  0  0  0  0  0  0  0  0  0  0
    7.2895   -2.4873  -21.8271 H   0  0  0  0  0  0  0  0  0  0  0  0
    5.8305    8.8963  -13.5425 H   0  0  0  0  0  0  0  0  0  0  0  0
    4.4845    7.7132  -13.6658 H   0  0  0  0  0  0  0  0  0  0  0  0
    4.1133    9.6137  -15.2070 H   0  0  0  0  0  0  0  0  0  0  0  0
    5.7072    9.3167  -15.9804 H   0  0  0  0  0  0  0  0  0  0  0  0
    7.2561    7.4892  -14.9571 H   0  0  0  0  0  0  0  0  0  0  0  0
    6.6224    6.5138  -13.5882 H   0  0  0  0  0  0  0  0  0  0  0  0
    3.3460    7.3660  -15.8988 H   0  0  0  0  0  0  0  0  0  0  0  0
    3.8664    8.3366  -17.3178 H   0  0  0  0  0  0  0  0  0  0  0  0
    6.5517    5.3103  -15.8041 H   0  0  0  0  0  0  0  0  0  0  0  0
    4.9435    5.4776  -15.0216 H   0  0  0  0  0  0  0  0  0  0  0  0
    8.1208    0.4026  -16.7062 H   0  0  0  0  0  0  0  0  0  0  0  0
    6.4889    0.7337  -16.0326 H   0  0  0  0  0  0  0  0  0  0  0  0
    6.7109   -0.5685  -17.2498 H   0  0  0  0  0  0  0  0  0  0  0  0
    6.8377   10.3375  -22.7255 H   0  0  0  0  0  0  0  0  0  0  0  0
    7.9643   10.5261  -21.3393 H   0  0  0  0  0  0  0  0  0  0  0  0
    8.0281    9.0448  -22.3534 H   0  0  0  0  0  0  0  0  0  0  0  0
    4.8233   10.2274  -22.0085 H   0  0  0  0  0  0  0  0  0  0  0  0
    4.2678    8.8366  -21.0168 H   0  0  0  0  0  0  0  0  0  0  0  0
    4.8099   10.3506  -20.2165 H   0  0  0  0  0  0  0  0  0  0  0  0
    4.1528    2.4974  -21.4591 H   0  0  0  0  0  0  0  0  0  0  0  0
    3.3460    1.5213  -20.1852 H   0  0  0  0  0  0  0  0  0  0  0  0
    5.3320    3.8972  -17.0909 H   0  0  0  0  0  0  0  0  0  0  0  0
    6.0392    4.8265  -18.4558 H   0  0  0  0  0  0  0  0  0  0  0  0
    5.9938    3.0520  -19.9570 H   0  0  0  0  0  0  0  0  0  0  0  0
    3.3711    3.3285  -18.4092 H   0  0  0  0  0  0  0  0  0  0  0  0
    4.7391    1.2750  -17.8818 H   0  0  0  0  0  0  0  0  0  0  0  0
    3.6317    5.4289  -16.9249 H   0  0  0  0  0  0  0  0  0  0  0  0
    3.9897    6.1624  -18.3393 H   0  0  0  0  0  0  0  0  0  0  0  0
    3.2732    4.1248  -20.6069 H   0  0  0  0  0  0  0  0  0  0  0  0
  1  2  2  0  0  0  0
  1  3  1  0  0  0  0
  2  8  1  0  0  0  0
  3 10  2  0  0  0  0
  4  8  2  0  0  0  0
  4 10  1  0  0  0  0
  5  9  1  0  0  0  0
  5 11  2  0  0  0  0
  6  9  2  0  0  0  0
  6 12  1  0  0  0  0
  7 11  1  0  0  0  0
  7 12  2  0  0  0  0
  8 19  1  0  0  0  0
  9 23  1  0  0  0  0
 10 28  1  0  0  0  0
 11 32  1  0  0  0  0
 12 33  1  0  0  0  0
 13 20  1  0  0  0  0
 13 27  1  0  0  0  0
 13 30  2  0  0  0  0
 14 15  1  0  0  0  0
 14 16  1  0  0  0  0
 15 17  1  0  0  0  0
 16 18  1  0  0  0  0
 17 19  1  0  0  0  0
 18 19  1  0  0  0  0
 19 29  1  0  0  0  0
 21 28  1  0  0  0  0
 22 28  1  0  0  0  0
 23 25  1  0  0  0  0
 24 26  1  0  0  0  0
 24 29  1  0  0  0  0
 25 26  1  0  0  0  0
 25 27  1  0  0  0  0
 26 31  1  0  0  0  0
  1 34  1  0  0  0  0
  2 35  1  0  0  0  0
  3 36  1  0  0  0  0
  4 37  1  0  0  0  0
  5 38  1  0  0  0  0
  6 39  1  0  0  0  0
  7 40  1  0  0  0  0
 14 41  1  0  0  0  0
 14 42  1  0  0  0  0
 15 43  1  0  0  0  0
 15 44  1  0  0  0  0
 16 45  1  0  0  0  0
 16 46  1  0  0  0  0
 17 47  1  0  0  0  0
 17 48  1  0  0  0  0
 18 49  1  0  0  0  0
 18 50  1  0  0  0  0
 20 51  1  0  0  0  0
 20 52  1  0  0  0  0
 20 53  1  0  0  0  0
 21 54  1  0  0  0  0
 21 55  1  0  0  0  0
 21 56  1  0  0  0  0
 22 57  1  0  0  0  0
 22 58  1  0  0  0  0
 22 59  1  0  0  0  0
 23 60  1  0  0  0  0
 23 61  1  0  0  0  0
 24 62  1  0  0  0  0
 24 63  1  0  0  0  0
 25 64  1  0  0  0  0
 26 65  1  0  0  0  0
 27 66  1  0  0  0  0
 29 67  1  0  0  0  0
 29 68  1  0  0  0  0
 31 69  1  0  0  0  0
M  CHG  1  29   1
M  END
> <OMEGA_C>
+sYJQWxJ8EBcApTBk3T1QGGk4EAWpIzB/QcDQbEuA0EmMp3BNei7QIk3/EA7zZfBC4uTQFQEJ79I
G6bBfhTNQOIkTT9/b6zBd/vVQERPz7920azBUxjJQNNC50BiU47BrsSjQB6dIz/6CqjBGuXZQBlx
BkHPNZ/Ba4isQNbk47+ajqjBpUfmQC28p76yu67BJiDZQDVztz85a5DBRBKrQCZsAkHqDWPBllOb
QFyDDUFPinfB01bLQL444UDORmjBPKqGQPZA+kDSRIPBQ2S4QDumwEBNRHjBanamQG1K1kC5gIbB
qm3hQDhY3D4TdYfBaLPrQAztHEGqWa/BAEKfQL7QGkGajajBRiKKQHhV7D+ps6TBd0ejQObfkEDe
s4/Blc+iQE3ZJ0AbCZzBw5WHQFIUcEB4hJfBsAmvQExo2z80PJPBH/DLQDhrEkEgLajBOfSLQDfz
tkAdPozBETj3QOg6A0B1VJTBOh50QEeck0Ch+p/BOtycQBYpQcBJsqbBehcHQYPbLr7ct7LB6KQa
QVdP60BKmpLBbRcAQctyz0BxpIXB/8IOQcQ8CUFlxaLBGSKaQLOX/0CZbZnBEuhnQD+jRr+bvqLB
ik7ZQJxV5T9TB67BOEPpQIQvH8DZna7BR5O6QDhXDkEkrljBtoCPQIXS9kD6plrBJKCDQNrRGUEF
UHPBBqG2QAoRFUGOr3/BMDLoQC6n70AsUG/B3+rTQBZx0EBWaVnBOSRWQHm260BnYX7Bv3N3QOli
BUHiiorBnafRQMntqUCY3XzB5TCeQC1Ir0ClWHDB3u4BQR0ezj5IpoXBYqXPQN/VOz/TQoDBuL/W
QH2IEb+w/4nBd87aQEtmJUHTzbXBp9v+QMJqKEHgtqrBAXMAQZC3EEHc07LBhFiaQIqjI0FVEbDB
wJGIQKJiDUF5IqjBTuqZQDKcJUF1u6HBJOSEQOfUH0BLrKvBISRWQJG4wj9ee6HB4Z+qQCRreUA6
uojBLkHBQLlymkB9pZPBcc2/QLhUQ0Dpp5/Bsb9XQHoGVUADRpPBHaeXQNAyoz/nDY/BDW5oQPS5
rUAhZofBwFZ/QBIyxUDntpLBSXxRQDr+g0Dh2qTBe84JQfOa70Bx5ZPBXCb1QN4f4EA8nYzBT1ED
QVP7AkHVE53Byym8QIQ7/EBn4pfBYNrMQJfHTD/YY6zBQzGTQOqhJ79dJabBlpDVQOGRz7/65KzB
k+fIQCwc50CCYI7BJYijQO8NIz8fAKjBWJzaQGZlBkFWNp/BBfrlQBynqL5gva7BNhasQGMp5L9H
p6jB5HnZQG6xvj85D5DBK4WqQHKcAkGrNmPBd+maQI+pDUHWv3fBNtTKQFmg4UDCXGjBuVaGQJWL
+kBiZIPBaNW3QF72wECNRnjBKhWmQHpw1kDUjobBa5XiQD38yD5F5IfBjK3tQHsfHkFiz67Bz/mf
QIF1GUELTKnB6++JQP3H6z9AmaTBJ5GiQA1WkEBAbI/BY7qiQHePJ0C28pvB22WHQNSWb0AGapfB
rVivQO6q2j84MJPBx2rNQBZ0EkE/O6jBopOLQC4Mt0DMQ4zBxnP3QHJKA0CXhpTBrhp1QKuwk0BL
4Z/B+vkGQXpWMb6WrrLBHEecQOFJQcBX3qbBMaAaQYlI6kBbbZLB/YH/QMi+zkADnIXBxDQPQScK
CUFKkaLB7XmaQA3Q/0AOmJnBGCTZQJ4x5T+t8K3BJyZnQH9aR78nzaLBasjoQFhSH8Auu67BDPC5
QJWMDkF51FjBOOeOQLI090BE2VrBfS+DQNf5GUEClHPBrEa2QD40FUGb2n/BaqnnQJYG8ECccG/B
mnLTQG330EAmeFnBWi1VQFgi7EC5s37BJUt3QFWFBUEhsYrBpAbRQK8VqkCKxnzBxoWdQNvLr0A8
VnDBpq4CQQxpgT7TIIfBlCnVQIxvLj9uF4DB9MfTQIdCDL9qkIrB6XHdQId8JkGBZ7XBjoP+QJ/X
KUF3xanB53ACQZKlEkEaG7LB1QqcQBCOIkEpxLDBfv+KQFVUC0EcdKnBo1+XQASoI0FidKLBR4SE
QPWpH0AajavBW+pVQKTZwT80WKHBV4GoQH2feEDnVojBF0XBQJIZmUCYIJPBk5G/QLNXQ0Cam5/B
+LRWQAlhVEBeU5PBaDaYQEM4nD9HRo/B3almQN6SrkAffofBwAKAQJPyxEB43ZLBuSFTQBNHhEA5
3qTBEbXdQKdoB0FI1p7Bo5++QCEQ/kC+3JfBhLUEQSzyBUE8QZzBmgz3QGp75UBB7ovBmLCKQGxC
PD1+VbLBDIjEQOqw4b3aTKXB6FjIQAo2sr8N1LXBf9HKQHjH6UBLMo7BzdWcQDJx5T51e6jBf14L
QcAz90CDuJLBDm2gQK1yXr97/bjBEVXaQMFogb/596vBmHPaQOwt6D9DA43BgdyrQEiaAUFD8mHB
0eGcQMt9DUG2MXbB9sHLQJGC30Ahl2fBjUiIQP2L+0BXG4PBTCq5QKtxwEBfpHjBrMOnQJJx10Cj
pobBUxjoQCjwZz/Cx4PBXCUyQXBoA0G8FZfBGjYoQVQm4kDBcIXBYwSEQCYCtT+BTqHBBQCmQFoj
kkA3ppDBDGehQEAqGECsy5rBq62IQEonaUAoM5fBu3SxQMWo1D/EPpHBwlkhQRci9EC0/o/Bk9mN
QJANuECM44zBDq70QAmZJEAHF5HBqcJzQK/Ai0BCVqDBWPaOQOOOn7++a8LBN0cAQeVowb+S1KjB
LvnTQIP/DkE0NabBuCKdQLhXAEH55JnB5YEQQU7ADEFqkqHBV2wAQZNE1EC22YTBLxZYQKXU4T5a
xrTBFSjSQB1AJD4qqZ3BMBzZQMxuBcAN97rBr3G7QOMPDUF/GFfBHumPQFgF9UDf71nB+zqFQPa3
GUFVrXHB3ZO4QMU/FUFJzH3BhTHpQE4U7kDJ623BGErTQFFIzUArA1nBJ2FYQDi77EBAoH7Bpzh8
QHvBBkH8O4rBW5bSQO0WqkD9dn3BR66eQB96rkBjUHHBuA4FQYORiT/v94HBFbvUQL9PkT//U3nB
+T7jQO/oFL6PEIbB4AZCQXCIAEEUk5PBEUsxQfiw90ALBZ/BQ34vQYi7FEFm45fBTMc5QeWY4kA9
6oTBGG8hQVme9UDW4H3BjnUiQRUDwUA5tYTBkmpdQHs4AUDDXqbBeIJhQOlPUz/BpJvBXW+yQFF/
gECVsonBUNrAQF+1nEApsJXBM3C8QFKrK0BQ4J/BvghbQMBtVUC3LJLBWJOdQBRFgz/hlI3BzLhr
QEfkrUBSPojBS+OBQBoUx0CtSZPBzVhPQKTpc0BwfaTBprrjQCNcCEGkapzBX2TCQG6R/0CQMZbB
2EcHQSzjBUGdL5nBws32QDmW4kD8vonBh2eAQOOwib8MzaPBF+u/QAa+Lj66SKnBpQ+9QPSrD8A7
1qvB4WrLQDHd6EDwpYzBar6WQO1JGj6YjqTBaFwMQdak9ECJwo/BmYSTQOxLEcCbcafBfzzTQD8C
g79xvKzBFFPmQNOeCECADZLBa3GlQAza/EBbX1/BTc2ZQPicC0F8XXPB2QvFQDTd2ECv9mTBNYyG
QJE1+kClb4LBVemzQBJHvEDHanfB8/KlQDID1kCD9YXBFh39QNppvD/Fn4jBkdYzQWpUAUFYoZLB
JA8nQcjX2kA75YHBESaBQEdVuD+82aDBOaClQNffk0AyMpHBiR+hQMsdH0BaPZzBkJOIQHxCbkBU
BZjBiAi7QNco7j81sZPB7uAhQaiB70AQYozB+vuMQD28uEBwA43BXiX5QD9SP0DHTZfBZr1yQKdn
j0C98KDBHAR8QFZCXMCHu6bBZhL7QJTpfb/f9rDBwGncQHfhEEELtaPBL5qhQF3fAUE5t5jBf/MT
QSbZDEE/653BVzL+QAmPz0A7xoLBgzRBQMaKjL9jbKDBQJbQQMX2jT9iPqrBW+HLQElVSsAKg67B
qCu0QLQKCUHJa1PBzSCIQN2t7kC5r1jBhkGCQPHsF0E/8W7BLte2QLJaE0G4nHnBnqLjQM8w50CB
6mnBzyTKQNrdxECmtFbBSEJSQG9w60Bfo37B0Id9QEH+BkF1c4nBhEnNQAWwpUCDBXzBbAWYQFtj
qkAeenHBbMYOQfan8T8R2IfBzwfrQG/g1D8EO4HBdSj/QAlvxj5HAorBVCFDQawS+0BYtY7BltAz
QbNv9UAlyZrB0c0xQbzLEkHoAJPBjoQ4Qbn72UCozYDBqL0fQSVZ7UDVunbBmrggQaQBukDuzoHB
/QhhQCTu8T9nuKfBf21TQBY/mD8YmZrBOW6yQOI5gUAwdIrBwDzAQI6tn0CZJJbBZGG2QMb6M0A+
wKLB6CxbQBlIWECbFZPBkbysQChEmj8T0o7BdGRoQNZorUAT0ojBxyqCQIGqyUB2PZPBJqpOQPb1
e0BVPKXB3DTHQPLPD0EdHJ7BiKquQD8hBEHetJbBTezzQPoHEUGr+5zBdcPvQBn/80CHS43BvPeL
QOMWYL+UHajBrtnIQABgGz82MKvBAXnNQLGa3r9WQ7DBn43CQIOt8kACEY7BX0KfQAPfyT4P/6bB
fHAEQZwjBkG8hJTBysyiQO9g97+M7qzBc57gQInf8L6XRq/B9v3FQNSdFz98JY7BGG6wQFwW/kCY
Tl/Bdg+ZQOs9C0F6QXHBhPvSQC1i4EAUjWjBHsWEQEb29kAIroDBX0bAQKKxwUBZu3nByqimQEUK
2UD8BIbBhWLNQIuOxT2RwoLB+1YoQQ75E0Gq2JrBPL4lQcYl+0BOu4nB2uuGQMlwwz9fnKHBccKo
QClelUBq2pDBcJqjQI24GUCpDJrBS1qMQByRb0CppZfBd/arQFRr2z98uo/BBfgaQVVBB0FWRJPB
/kiOQBReuEC4Q4zBCiPaQPLucj1TX5XBbiGCQDvxjUBpVqHBkuOPQN7MSMBeSK7BvOsEQcc/kL4T
OLLBvqe3QHbhF0Hhr6TBvVSMQEhgA0GQnZfBQzgDQWlUGkHbmqLBpnn/QNsK4kBJC4fBznRXQI2v
hL9xSKXBHVPWQC/8zD+FPavBwHTfQFQRJMDVkbPBgJm/QHukCkFIdVTBMA+ZQFPO6kADWVbBdH1/
QAM2FUFlLGrBwxqwQH6EFUHTtHnBRzjsQBMB9EBD62/BKcLgQMg8zUCmfFvBlXJaQOIN40C23njB
SBFpQDS3BEHo+YbBB+naQGD7r0AGioDBxI+qQLYUq0ByunHBrS7lQA/JNr9Z1oLBqzTZQAvtbD+A
k3vB2hevQGMoj774337B5UM5QRXJEkHwgZjBwk4mQTGuDUFsAKPBTkwjQULUJEFYnprBLx03QdQs
AEEjSorBkJwfQW0hBUEzZoLBMWsiQRWY2EDofonBYtpyQDBOC0Dc26fBJZpZQDfqiz8y15zBd2m3
QPPUgkCQVIrBJAzCQM8qo0D06JXBvwbCQI9pJ0CrIZ7BveVdQO52YUBfJJPBnYmdQADPBUD+QInB
7gFxQKQ5q0BPaYfBF+t+QK1Ox0BcSpLBVBVhQMeeeEAZsqXBIrrjQC4mCUEY+JvBaNXBQKWmAEES
6ZXBQR0HQRrcBkHIcZjBwA31QHc+5UBDB4nBqpKkQJgdWj34HK7BXp+cQAUEZ79YO5zBlkW/QIl1
DMCfWqrBKvrJQEQj60B0PIzBhu+VQEONKD6HdqPBxb8LQfQi90Dl4I7BWu+4QNt4kL+PkrHBVj6x
QJYaBcAGrJ/BPg7nQNZH5T8MA5PBVs2gQKtoAEElTl/BpAKWQBUtDUHyr3PBrt/AQETO3EAmKGTB
iuODQIOE/ECnloLBSuawQNhyv0DslHbBTvijQNRT2EAawIXBYDT9QCbNjj9hiYnBG1gzQTKJAkGC
UJHBmsElQUxX3kDik4DBbjiAQFOKuD9es5/BdLylQGBVlUAF1ZDBvgWhQFtuH0BNo5vBVBeJQIyy
cEDFvpfBtKG6QCSz9D+U15LBoxYhQeRX8kCxNIvBWDiMQMREukA64YzBmCv8QPzbBkD05JrBW911
QJ8ukEAf2KDB4FzGQE3Dnr9g07vBHny3QMxfRsArupjBJhndQK93EUHNW6PBPEyhQDKXAkFjqJjB
kv8TQXTADUGTDp3BVcz7QESk0kDW8YHBNCugQELTXz/wnbPBmeWRQBWhUL9cDJTBQuDOQENbRsCU
Aq3BAdGuQLFLC0EVYlPBMD6DQOC68kDb2FjBdxt8QOx4GUHCzW/BST+zQPTqFEGosnnBl6TfQPMg
60AV02jBb07FQJNYyUDKqFXB+5RMQKi17UC/Ln/B5U15QM7bB0EmvYnBW6DKQHzSqECcnnrBhsWU
QL2jrUCZ3XDBg8EPQZYggD+IR4vBoiT5QDAG3j8/VYLBlOLuQBk4AD6wLYjB7G9CQULZ/UDnKY3B
h74zQZk390DWZpnBPk4xQfv6E0Er4pHBYyc3Qc6p3UD4g37BYhMeQV8v8UB5bXTB33YfQaF4vUD8
coDBVU9cQLva7z9laqbB4CpUQOsHmT/wJZnB8Q+yQJv7gkDj+4nBBLPAQBEYoUBCqpXBlDW2QGc7
MUDDTaLBcOBaQDR8XEAA7JLBKharQBzsyj/yWozBzlVmQJnPrkAzz4jBNtCBQBXCykAbOZPBkWNS
QJU+fUDPLqXB

> <OMEGA_E>
qFYMPpDKDD5kYxg/JLEePywLJj90oTA/

> <OMEGA_NBR>
    251528

$$$$
50214062
  -OEChem-04172616093D

 76 79  0     1  0  0  0  0  0999 V2000
    8.4781    7.5987  -18.6381 C   0  0  0  0  0  0  0  0  0  0  0  0
    7.9249    8.3105  -19.7172 C   0  0  0  0  0  0  0  0  0  0  0  0
    7.6327    7.0585  -17.6483 C   0  0  0  0  0  0  0  0  0  0  0  0
    5.6976    7.9115  -18.8394 C   0  0  0  0  0  0  0  0  0  0  0  0
    6.3448    0.7044  -21.5917 C   0  0  0  0  0  0  0  0  0  0  0  0
    4.5633   -0.6900  -20.6681 C   0  0  0  0  0  0  0  0  0  0  0  0
    6.5926   -1.7208  -21.5463 C   0  0  0  0  0  0  0  0  0  0  0  0
    6.5198    8.4745  -19.7985 C   0  0  0  0  0  0  0  0  0  0  0  0
    6.2256    7.2443  -17.7349 C   0  0  0  0  0  0  0  0  0  0  0  0
    5.0749    0.5843  -20.9870 C   0  0  0  0  0  0  0  0  0  0  0  0
    7.1058   -0.4469  -21.8626 C   0  0  0  0  0  0  0  0  0  0  0  0
    5.3179   -1.8415  -20.9567 C   0  0  0  0  0  0  0  0  0  0  0  0
    6.7727    1.4677  -18.0307 C   0  0  0  0  0  0  0  0  0  0  0  0
    5.4917    8.1498  -14.1682 C   0  0  0  0  0  0  0  0  0  0  0  0
    4.9061    8.8250  -15.4168 C   0  0  0  0  0  0  0  0  0  0  0  0
    6.4782    7.0278  -14.5428 C   0  0  0  0  0  0  0  0  0  0  0  0
    4.2090    7.7695  -16.2794 C   0  0  0  0  0  0  0  0  0  0  0  0
    5.8413    5.9939  -15.5009 C   0  0  0  0  0  0  0  0  0  0  0  0
    5.9518    8.2341  -22.1720 C   0  0  0  0  0  0  0  0  0  0  0  0
    5.9841    9.0050  -23.4791 C   0  0  0  0  0  0  0  0  0  0  0  0
    6.3271   10.6051  -21.0661 C   0  0  0  0  0  0  0  0  0  0  0  0
    7.6828   10.7274  -23.0524 C   0  0  0  0  0  0  0  0  0  0  0  0
    5.8267    9.1562  -20.9412 C   0  0  2  0  0  0  0  0  0  0  0  0
    5.2053    6.6659  -16.7494 C   0  0  0  0  0  0  0  0  0  0  0  0
    7.0121    0.5038  -16.8724 C   0  0  0  0  0  0  0  0  0  0  0  0
    4.3042    1.8231  -20.5976 C   0  0  0  0  0  0  0  0  0  0  0  0
    5.1437    4.5542  -18.0212 C   0  0  0  0  0  0  0  0  0  0  0  0
    5.1002    2.6171  -19.5435 C   0  0  1  0  0  0  0  0  0  0  0  0
    4.2761    3.7835  -19.0054 C   0  0  2  0  0  0  0  0  0  0  0  0
    5.4645    1.7295  -18.4207 N   0  0  0  0  0  0  0  0  0  0  0  0
    4.3833    5.6878  -17.4893 N   0  3  0  0  0  0  0  0  0  0  0  0
    7.7217    2.0669  -18.5254 O   0  0  0  0  0  0  0  0  0  0  0  0
    7.3248    9.4857  -23.7049 O   0  0  0  0  0  0  0  0  0  0  0  0
    7.6455   10.6728  -21.6149 O   0  0  0  0  0  0  0  0  0  0  0  0
    3.8927    4.6426  -20.0794 O   0  0  0  0  0  0  0  0  0  0  0  0
    8.3294   -0.3287  -22.4252 F   0  0  0  0  0  0  0  0  0  0  0  0
    4.8228   -3.0627  -20.6561 F   0  0  0  0  0  0  0  0  0  0  0  0
    9.5477    7.4663  -18.5680 H   0  0  0  0  0  0  0  0  0  0  0  0
    8.5663    8.7292  -20.4786 H   0  0  0  0  0  0  0  0  0  0  0  0
    8.0539    6.5030  -16.8234 H   0  0  0  0  0  0  0  0  0  0  0  0
    4.6260    7.9903  -18.9480 H   0  0  0  0  0  0  0  0  0  0  0  0
    6.7318    1.6800  -21.8462 H   0  0  0  0  0  0  0  0  0  0  0  0
    3.5930   -0.7821  -20.2028 H   0  0  0  0  0  0  0  0  0  0  0  0
    7.1762   -2.6050  -21.7559 H   0  0  0  0  0  0  0  0  0  0  0  0
    6.0205    8.9050  -13.5683 H   0  0  0  0  0  0  0  0  0  0  0  0
    4.6703    7.7203  -13.5758 H   0  0  0  0  0  0  0  0  0  0  0  0
    4.1779    9.5916  -15.1132 H   0  0  0  0  0  0  0  0  0  0  0  0
    5.7152    9.2962  -15.9941 H   0  0  0  0  0  0  0  0  0  0  0  0
    7.3549    7.4749  -15.0343 H   0  0  0  0  0  0  0  0  0  0  0  0
    6.7959    6.5126  -13.6243 H   0  0  0  0  0  0  0  0  0  0  0  0
    3.4071    7.2998  -15.6909 H   0  0  0  0  0  0  0  0  0  0  0  0
    3.7758    8.2599  -17.1636 H   0  0  0  0  0  0  0  0  0  0  0  0
    6.6205    5.2926  -15.8341 H   0  0  0  0  0  0  0  0  0  0  0  0
    5.0594    5.4425  -14.9582 H   0  0  0  0  0  0  0  0  0  0  0  0
    5.0908    7.5496  -22.1881 H   0  0  0  0  0  0  0  0  0  0  0  0
    6.8811    7.6524  -22.0832 H   0  0  0  0  0  0  0  0  0  0  0  0
    5.6850    8.3434  -24.3055 H   0  0  0  0  0  0  0  0  0  0  0  0
    5.2909    9.8572  -23.4225 H   0  0  0  0  0  0  0  0  0  0  0  0
    5.6411   11.1621  -21.7211 H   0  0  0  0  0  0  0  0  0  0  0  0
    6.3347   11.0652  -20.0669 H   0  0  0  0  0  0  0  0  0  0  0  0
    8.7039   10.9966  -23.3606 H   0  0  0  0  0  0  0  0  0  0  0  0
    6.9817   11.5066  -23.3859 H   0  0  0  0  0  0  0  0  0  0  0  0
    4.7570    9.2086  -20.6905 H   0  0  0  0  0  0  0  0  0  0  0  0
    8.0844    0.4826  -16.6279 H   0  0  0  0  0  0  0  0  0  0  0  0
    6.4423    0.8387  -15.9931 H   0  0  0  0  0  0  0  0  0  0  0  0
    6.6819   -0.5051  -17.1608 H   0  0  0  0  0  0  0  0  0  0  0  0
    4.1469    2.4510  -21.4870 H   0  0  0  0  0  0  0  0  0  0  0  0
    3.3302    1.5315  -20.1777 H   0  0  0  0  0  0  0  0  0  0  0  0
    5.4404    3.8909  -17.1954 H   0  0  0  0  0  0  0  0  0  0  0  0
    6.0429    4.9240  -18.5356 H   0  0  0  0  0  0  0  0  0  0  0  0
    6.0133    3.0116  -20.0132 H   0  0  0  0  0  0  0  0  0  0  0  0
    3.3899    3.3933  -18.4835 H   0  0  0  0  0  0  0  0  0  0  0  0
    4.7253    1.2903  -17.9101 H   0  0  0  0  0  0  0  0  0  0  0  0
    3.6822    5.3338  -16.8703 H   0  0  0  0  0  0  0  0  0  0  0  0
    3.9451    6.1597  -18.2543 H   0  0  0  0  0  0  0  0  0  0  0  0
    3.3511    4.1605  -20.6932 H   0  0  0  0  0  0  0  0  0  0  0  0
  1  2  1  0  0  0  0
  1  3  2  0  0  0  0
  2  8  2  0  0  0  0
  3  9  1  0  0  0  0
  4  8  1  0  0  0  0
  4  9  2  0  0  0  0
  5 10  1  0  0  0  0
  5 11  2  0  0  0  0
  6 10  2  0  0  0  0
  6 12  1  0  0  0  0
  7 11  1  0  0  0  0
  7 12  2  0  0  0  0
  8 23  1  0  0  0  0
  9 24  1  0  0  0  0
 10 26  1  0  0  0  0
 11 36  1  0  0  0  0
 12 37  1  0  0  0  0
 13 25  1  0  0  0  0
 13 30  1  0  0  0  0
 13 32  2  0  0  0  0
 14 15  1  0  0  0  0
 14 16  1  0  0  0  0
 15 17  1  0  0  0  0
 16 18  1  0  0  0  0
 17 24  1  0  0  0  0
 18 24  1  0  0  0  0
 19 20  1  0  0  0  0
 19 23  1  0  0  0  0
 20 33  1  0  0  0  0
 21 23  1  0  0  0  0
 21 34  1  0  0  0  0
 22 33  1  0  0  0  0
 22 34  1  0  0  0  0
 24 31  1  0  0  0  0
 26 28  1  0  0  0  0
 27 29  1  0  0  0  0
 27 31  1  0  0  0  0
 28 29  1  0  0  0  0
 28 30  1  0  0  0  0
 29 35  1  0  0  0  0
  1 38  1  0  0  0  0
  2 39  1  0  0  0  0
  3 40  1  0  0  0  0
  4 41  1  0  0  0  0
  5 42  1  0  0  0  0
  6 43  1  0  0  0  0
  7 44  1  0  0  0  0
 14 45  1  0  0  0  0
 14 46  1  0  0  0  0
 15 47  1  0  0  0  0
 15 48  1  0  0  0  0
 16 49  1  0  0  0  0
 16 50  1  0  0  0  0
 17 51  1  0  0  0  0
 17 52  1  0  0  0  0
 18 53  1  0  0  0  0
 18 54  1  0  0  0  0
 19 55  1  0  0  0  0
 19 56  1  0  0  0  0
 20 57  1  0  0  0  0
 20 58  1  0  0  0  0
 21 59  1  0  0  0  0
 21 60  1  0  0  0  0
 22 61  1  0  0  0  0
 22 62  1  0  0  0  0
 23 63  1  0  0  0  0
 25 64  1  0  0  0  0
 25 65  1  0  0  0  0
 25 66  1  0  0  0  0
 26 67  1  0  0  0  0
 26 68  1  0  0  0  0
 27 69  1  0  0  0  0
 27 70  1  0  0  0  0
 28 71  1  0  0  0  0
 29 72  1  0  0  0  0
 30 73  1  0  0  0  0
 31 74  1  0  0  0  0
 31 75  1  0  0  0  0
 35 76  1  0  0  0  0
M  CHG  1  31   1
M  END
> <OMEGA_C>
WqYHQWso80DmGpXBxZj9QL/3BEHhvJ3BSz/0QB3f4UCvL43B5VK2QCgr/UAIt5bBawjLQFhUND/E
u6zBbgaSQPyjML9OWKXBV/bSQB9D3L/kXqzBKaLQQHSXB0FdY57BzzfHQDfR50Aj4Y3BOGWiQN6S
FT9c5afBy2LjQLzU5L6c5q7BWCyqQNu3679Up6fBHrrYQJjduz/KPpDB4ruvQGdlAkEHsWLBdf6c
QGYzDUEhq3bBlU3PQL7j4EA9r2jB1K+GQMef+EA/PILBQOy6QF7Ov0CNA3jB93S+QA6/A0FSYLHB
3n2/QHEUEEFE1bvB43fKQGiuKUFOh6jB3dn1QGijK0FNa7jBpHS6QOl/EkGFh6fBN5KmQMpO1UDZ
/oXBDWPgQDb3AD+X+obBIryJQDxc6T/vx6TBKpmkQBy8kUB+K5DBqTSjQPB9J0AoWZzB0NWIQIYk
ckAWC5jBCd2uQLtg3T+WXZPBOESMQIkCtkAD6ovBUxj3QFZHBEDvM5TBZmTqQFvFF0Gao73BN6j0
QM/DKkFE66zBoCF5QO2PlECfoqDBCUUFQcBJqL63ZrPBUlSaQAwERMC+P6XBScMYQQ7s7kBbi5TB
mQ8JQcCqC0Ep1KPB0twAQdAY0EBGlobBIwiUQJiw/0CalZfB+GrXQG8L1z/2xK7BbfRlQI81SL9C
n6HBnKPlQLO4JsD8C67BNqjAQAV7DkHbF1nBa3OVQLsM90B5NlnBRLGFQDF3GUGmz3HBU+O2QCm9
FEGo53/BPFvrQEUy70BqjHDBnnfZQC5n0ED+/FnBWg1aQACY6UD3DXvBNKZxQIUoBEEmT4nB1drT
QLBcqUBsWH3BaOahQEcprkDJVG/BOOiiQLGW8UBHgbHBMzLcQHvg9EB2qrDBveu1QIl+BUGbccLB
TE+pQCW3HUE1YbvBE4S0QBmYMkHUxK3Br7XKQAULMUEbiaDBIEMLQSfyL0GA4rrBA2rfQPgaOEFj
FrvBHTmYQJtWE0EUhqXBnFkBQVwS9z73BYXB+ybOQFayVj+h43/BBtLVQN1LAb9hSYnBebOEQLDd
HEBh5avBdSJVQIAIxD8AbKHBjBeuQOYEeUAmkInBtV/BQMORnUD4SJTBkGzAQLC+QEATG6DBOvRY
QA4rWUA63pPBUjWXQNcppT/0R4/BwqhrQKKuqkBx9obBSH18QCscxUDfCJLBaXhWQMgihUDDi6XB
VbcLQZsB6UCOYZHBbE0HQfgC/EDrRZvBBNv1QMQ23UDUkIrBKFTCQPFL+EChgZfB9uvGQBCrST9b
DK3BWROWQC+3R7/lW6TBw0zVQIifzb9Tt63BgBHkQJHQAUH5hZ7BdM/KQLPU5UCuZo3Bt6yhQJD6
Cj/b+abB9N3gQJHAkb4/VLDB/cCvQJtS7b+yy6fBSozdQFNzyz++Y5DBEzumQAeDBEGVVWPB3Byb
QA9TD0GQuXjBUGPEQFHO4kCfqGbBGHeGQD9D/kBxA4TByrmxQFKQwkBN9HbBHZTzQFy7IUFicKrB
+0vVQB3LNEENbKvBCfuuQG2SCkEHQa7BvgiNQHTnKkHl46bBboXdQBdUC0FyuanBjqykQC7k10Dw
UYbBz9XpQHaZGT8Gn4fBSxuHQJbT2T+F/6LBNZ+iQEqMkkBBu4/BYBOiQOkQJkCCiZvBYA+HQPfi
b0DNPJfBGl+yQO1J5T80hJLB4t+KQH7xuEB1d4zBP4H5QKYSBECDI5bBzcW0QK4ZNEHUUqPBUEOO
QDrwE0E1g6fBSR5yQIbtkUAB9Z/BUG8CQbINNb3q/7XBV4KkQODjR8CdXKXBphYcQYNr40Ae/47B
qlcUQVp6AkGPe6DB9df8QJFpzUA9FYPBA5uhQKbZ/UD46ZnBxH/PQGZZ5j8PLa/B9xNzQK8ZeL/G
uZ/B5zbpQEqJG8BQQLDBaPC1QPZBEEFR11jB9o6IQO+2/UBsvVvBKZyEQN6JHEHQzHXBZ4i4QPOm
FUGTA4DB5FTjQOmS7kCFo2zBKCnJQAx70kDtP1fBBYhRQP0r8kBBYoDByOd9QNk2B0H/mYvBk/fJ
QF/hqUAXM3rBDTOVQHGPs0BE4W/BqlMEQR6zIUHGfLHBanMDQTb1I0ENK6PBm8HnQFKtQ0GFjKrB
FgHGQA91NEGvWLPBwMiuQGQmE0Ea8LXBg46mQGBj80Bzl6/B1ktnQK6QL0HaQaHBKp+FQDtIMUFG
4a7BUzzwQGkEAUFXG6/BflUGQVxR4j5GuYfBMjjgQERMgD9UlX/BuXfZQPhCt74qBonBcRF4QBD3
EkBt3anBM5dWQNZyqD/pkp7B4LuqQP0Bf0AonYjBDDDAQAAWnECD3pPB6Rm9QGpoQEA7HaDBTRtX
QIX7VUCFzZLBEgadQHrErj+KoI3BGz1kQOzQr0CX8IfB2QWAQOeHx0DKDJPBra9PQDtRgUCCpaTB
aKsLQW3u7EB3BpLBy2UGQSCUAkGVFpvBLc72QGvI3EBFX4vBdCbBQNJy+kDqPpfBluHKQD1jST/B
tKzBT+GTQDFEM79hhaXBbN7VQD8z0L9I2qzBVZbhQF4jBkGGqJ3Bsx7LQO3+5EDttY3BUJOiQIan
GT/p0afB3KPkQBDepr5vIa/B72WtQHv/578dGajBTPvaQOg5xT+FbZDBd6epQFDlBEF5omTBTxKc
QFvvDkEFCHrBD+rHQMmM40C9/mfBmNWGQA/0+0DiGITBYGG0QA4IwkBxY3fBSRqtQMN3HkHd/abB
KzukQIfPKkFjTrHBwuTUQP8D/kDecbDBi0eZQFIsCUERY7vBrLvWQFj4EEFLB6jBO8ilQK0p1kAL
gYbBJavlQNaQ7T5pNYjB9I+IQLer5T/mVqTBY5CiQAmQkECXp4/BHRKiQNPcJkAvCZzBAsaGQGGM
bkDfZJfBSWOwQKbK3D87RpPBd4SLQC8it0CRbIzBtA74QPNVB0AVKZXBekqKQDxzHkE/o7jB6/zG
QCaoBkEgo7rB9exwQMSAkkDB2J/BmdcFQWNIFL7tjrPB6DSfQMi/Q8DF4aXByj0cQfum5kCJJZDB
a+ISQTwmCUFmE6DBJyT/QIb7yUCrbYTBbyOgQA1T/UAcs5nBa+rVQAs55D9alK7BEBxqQH24V7+8
yKHBqpHpQKLSHsA8wK7BnSa6QKsTEUEb+VrB0eqMQKbB/kA+GVzB1D6FQPz7G0HN/nbBjXO4QKlX
FUF5HoHBrTrmQKU370Cgxm7BLxbOQKdD1EDGcVjB2LVUQDt770AW8X/B4GJ6QLVtBUFHsovBKI/M
QKFSqUCTs3rB+XuYQOxEs0BumG/BUr+wQGXhKUHUWqDB0waSQOS4E0EOVaXBL0aTQDO3OUHvUq/B
m93CQG6pLkFuMLXBVAb1QCIR8EApULHBWnq+QAM85UCara3B5SCKQJxE+0B17bXB14CPQGStBUF5
qMPBFAbxQA/cG0EJLKrBIU0EQVbxsT6tqYfBnOPYQOX+QT9pWoDBDjbXQNv0+r5GrorBWZeBQGJZ
G0BwUqvBAbhUQOnJuT9Hv6DBHZKpQEXVeUDnkIjBXLbAQEqJmUCxmpPB/R2+QKccQ0AJA6DBLOVW
QGbhUkCXDpPBORSaQOVUnT+mIY/BxABmQBxtrkAexIfBxFWAQJ91xUA8ApPBhUROQM+OgkAvp6TB
l6EKQbjo6ECEfZPB7eMFQaqxA0EtYJvBe9X0QPNI2UCzxIzBiN3AQE/hAkHfFZbBzUPMQPq9Sz/w
TazBTJqUQOa7Nb8ht6XB1YvWQNcQz7+vN63BWJHhQBk1C0EFvJzBfyXKQGUZ6ED60Y3B2MSjQMO4
GD9Si6fB9M7lQL5Kn767Ba/B19WtQJpe6L92oKjBurnaQMRDtz9Hk5DBDnmsQIxzAkEc5GLBuY+c
QOXMDUGnO3fB1J7KQEOL30BnW2jBZmqGQJdU+0BSCoPBjWW1QO4zwEBXL3jBlEyrQKRsJkEXZKXB
7DqKQPaZF0EF4arBC9zrQH6bGEGx6K/B3em1QJ3H+UDrprPBVP3ZQEnEHUE4n6TBJ4mlQAca10C+
hobBZYbkQGCc4D7ioofBw2CJQGOx4z/b/aPBO0iiQETzkUAZ14/Bw2OiQC/PJkB3sJvB8p2GQPX/
bkC3TpfBMzqwQMPv3j9fwZLB1miLQBH4uEBzw4zBl0T4QHUp/z+hN5XBXy2ZQALVDkG12rTBCpTi
QNv+AkHDX7PBRaxvQCGtkUDv55/BH4QGQSZA9b1aUrPB0veeQMxPRMCv+qbBEtMaQXln3UCClZLB
i4ESQXm6CUFqc6DBpXn8QAfAwUCRvIbBrzGgQMbtB0EGVpfBYJrXQGEU5j8L263BhEJrQA66XL/E
FKLB/g3qQEv4HcBhWq/BBca9QMoMDkHx3ljBM8CQQPJv+EDWA1rBPbGFQDtqGkEfxnLBkfO3QOT+
FEEjoH/BTwToQBhf7EDVm2/BZ7TSQIJFzkBdkFnBjC1WQIQK7UAAmH3B1s11QLsYBkFgNYrBHNPM
QPx4p0AKnnzBys6ZQP4ZsUAfSHDBaz6sQFqHNUHn5qnBewKgQMqLKUELNJ3BIdeCQL1MCkGva6XB
1vBZQDfhIEFpbqzBZp3dQN3UI0ElrbXBDGUHQVXEGkFJxq/B2SCuQDE06UACI6zBhgOxQKja40Aw
bbrBpk3tQKY0K0FJoKHBoK8DQfTKuT4kjYbBmLjVQDUiST+EJoDBOonXQA1vDL/gwonBJgSCQCRB
GkBt9arBB8dWQPPStT9rYqDBDq+pQA9JfkCwoojBnzfAQPSamkDc7pPB16S+QJ26QkD8m5/BuSBX
QNO8U0Bp05LBXK+ZQPeRrT8f/Y3BlP1jQK2qsEAXXojBjpaBQHnAx0CXa5PBzQpNQK4SgUD8kqTB

> <OMEGA_E>
KFLNPhCz3D5AbNo+aCPPPg==

> <OMEGA_NBR>
    256573

$$$$
50214060
  -OEChem-04172616093D

 66 69  0     1  0  0  0  0  0999 V2000
    8.5611    7.2405  -18.5362 C   0  0  0  0  0  0  0  0  0  0  0  0
    8.1210    7.9869  -19.6414 C   0  0  0  0  0  0  0  0  0  0  0  0
    7.6332    6.8427  -17.5566 C   0  0  0  0  0  0  0  0  0  0  0  0
    5.8360    7.9303  -18.7992 C   0  0  0  0  0  0  0  0  0  0  0  0
    6.3067    0.6554  -21.6206 C   0  0  0  0  0  0  0  0  0  0  0  0
    4.6069   -0.7426  -20.5605 C   0  0  0  0  0  0  0  0  0  0  0  0
    6.6020   -1.7649  -21.5250 C   0  0  0  0  0  0  0  0  0  0  0  0
    6.7579    8.3548  -19.7436 C   0  0  0  0  0  0  0  0  0  0  0  0
    6.2721    7.1906  -17.7051 C   0  0  0  0  0  0  0  0  0  0  0  0
    5.0744    0.5333  -20.9428 C   0  0  0  0  0  0  0  0  0  0  0  0
    7.0711   -0.4918  -21.9058 C   0  0  0  0  0  0  0  0  0  0  0  0
    5.3659   -1.8904  -20.8600 C   0  0  0  0  0  0  0  0  0  0  0  0
    6.8519    1.5953  -18.0594 C   0  0  0  0  0  0  0  0  0  0  0  0
    6.0178    9.4819  -23.2814 C   0  0  0  0  0  0  0  0  0  0  0  0
    7.1126   10.5656  -23.2192 C   0  0  0  0  0  0  0  0  0  0  0  0
    6.2238    8.4882  -22.1405 C   0  0  0  0  0  0  0  0  0  0  0  0
    4.5835    7.7330  -15.8585 C   0  0  0  0  0  0  0  0  0  0  0  0
    5.4895    6.6195  -15.2821 C   0  0  0  0  0  0  0  0  0  0  0  0
    7.0582   11.2883  -21.8653 C   0  0  0  0  0  0  0  0  0  0  0  0
    6.2915    9.2644  -20.8136 C   0  0  2  0  0  0  0  0  0  0  0  0
    5.2192    6.6989  -16.7817 C   0  0  0  0  0  0  0  0  0  0  0  0
    7.1712    0.5634  -16.9824 C   0  0  0  0  0  0  0  0  0  0  0  0
    4.2904    1.7746  -20.5629 C   0  0  0  0  0  0  0  0  0  0  0  0
    5.0748    4.5606  -17.9799 C   0  0  0  0  0  0  0  0  0  0  0  0
    5.0901    2.6277  -19.5531 C   0  0  1  0  0  0  0  0  0  0  0  0
    4.2401    3.7845  -19.0051 C   0  0  2  0  0  0  0  0  0  0  0  0
    5.5249    1.7752  -18.4308 N   0  0  0  0  0  0  0  0  0  0  0  0
    4.3324    5.7151  -17.4349 N   0  3  0  0  0  0  0  0  0  0  0  0
    7.7684    2.1344  -18.6709 O   0  0  0  0  0  0  0  0  0  0  0  0
    7.2504   10.3385  -20.8220 O   0  0  0  0  0  0  0  0  0  0  0  0
    3.8675    4.6437  -20.0829 O   0  0  0  0  0  0  0  0  0  0  0  0
    8.2547   -0.3708  -22.5478 F   0  0  0  0  0  0  0  0  0  0  0  0
    4.9078   -3.1133  -20.5092 F   0  0  0  0  0  0  0  0  0  0  0  0
    9.6032    6.9740  -18.4392 H   0  0  0  0  0  0  0  0  0  0  0  0
    8.8202    8.2793  -20.4109 H   0  0  0  0  0  0  0  0  0  0  0  0
    7.9590    6.2754  -16.6972 H   0  0  0  0  0  0  0  0  0  0  0  0
    4.7894    8.1716  -18.9121 H   0  0  0  0  0  0  0  0  0  0  0  0
    6.6633    1.6297  -21.9206 H   0  0  0  0  0  0  0  0  0  0  0  0
    3.6665   -0.8385  -20.0380 H   0  0  0  0  0  0  0  0  0  0  0  0
    7.1897   -2.6444  -21.7428 H   0  0  0  0  0  0  0  0  0  0  0  0
    5.0287    9.9532  -23.1836 H   0  0  0  0  0  0  0  0  0  0  0  0
    6.0786    8.9534  -24.2442 H   0  0  0  0  0  0  0  0  0  0  0  0
    8.0991   10.0946  -23.3415 H   0  0  0  0  0  0  0  0  0  0  0  0
    6.9512   11.2937  -24.0277 H   0  0  0  0  0  0  0  0  0  0  0  0
    5.3835    7.7790  -22.1116 H   0  0  0  0  0  0  0  0  0  0  0  0
    7.1634    7.9373  -22.2950 H   0  0  0  0  0  0  0  0  0  0  0  0
    3.4996    7.7132  -15.6722 H   0  0  0  0  0  0  0  0  0  0  0  0
    4.9339    8.7755  -15.8745 H   0  0  0  0  0  0  0  0  0  0  0  0
    6.4857    6.8684  -14.8874 H   0  0  0  0  0  0  0  0  0  0  0  0
    5.0514    5.8060  -14.6851 H   0  0  0  0  0  0  0  0  0  0  0  0
    7.8516   12.0489  -21.8217 H   0  0  0  0  0  0  0  0  0  0  0  0
    6.0782   11.7734  -21.7459 H   0  0  0  0  0  0  0  0  0  0  0  0
    5.2893    9.6461  -20.5690 H   0  0  0  0  0  0  0  0  0  0  0  0
    8.2614    0.4414  -16.9024 H   0  0  0  0  0  0  0  0  0  0  0  0
    6.7687    0.9046  -16.0172 H   0  0  0  0  0  0  0  0  0  0  0  0
    6.7132   -0.4001  -17.2506 H   0  0  0  0  0  0  0  0  0  0  0  0
    4.0949    2.3707  -21.4664 H   0  0  0  0  0  0  0  0  0  0  0  0
    3.3350    1.4747  -20.1076 H   0  0  0  0  0  0  0  0  0  0  0  0
    5.3422    3.8859  -17.1533 H   0  0  0  0  0  0  0  0  0  0  0  0
    5.9913    4.9240  -18.4678 H   0  0  0  0  0  0  0  0  0  0  0  0
    5.9708    3.0450  -20.0631 H   0  0  0  0  0  0  0  0  0  0  0  0
    3.3482    3.3739  -18.5092 H   0  0  0  0  0  0  0  0  0  0  0  0
    4.8215    1.2972  -17.9047 H   0  0  0  0  0  0  0  0  0  0  0  0
    3.6712    5.3828  -16.7622 H   0  0  0  0  0  0  0  0  0  0  0  0
    3.8476    6.1674  -18.1835 H   0  0  0  0  0  0  0  0  0  0  0  0
    3.3509    4.1558  -20.7134 H   0  0  0  0  0  0  0  0  0  0  0  0
  1  2  1  0  0  0  0
  1  3  2  0  0  0  0
  2  8  2  0  0  0  0
  3  9  1  0  0  0  0
  4  8  1  0  0  0  0
  4  9  2  0  0  0  0
  5 10  1  0  0  0  0
  5 11  2  0  0  0  0
  6 10  2  0  0  0  0
  6 12  1  0  0  0  0
  7 11  1  0  0  0  0
  7 12  2  0  0  0  0
  8 20  1  0  0  0  0
  9 21  1  0  0  0  0
 10 23  1  0  0  0  0
 11 32  1  0  0  0  0
 12 33  1  0  0  0  0
 13 22  1  0  0  0  0
 13 27  1  0  0  0  0
 13 29  2  0  0  0  0
 14 15  1  0  0  0  0
 14 16  1  0  0  0  0
 15 19  1  0  0  0  0
 16 20  1  0  0  0  0
 17 18  1  0  0  0  0
 17 21  1  0  0  0  0
 18 21  1  0  0  0  0
 19 30  1  0  0  0  0
 20 30  1  0  0  0  0
 21 28  1  0  0  0  0
 23 25  1  0  0  0  0
 24 26  1  0  0  0  0
 24 28  1  0  0  0  0
 25 26  1  0  0  0  0
 25 27  1  0  0  0  0
 26 31  1  0  0  0  0
  1 34  1  0  0  0  0
  2 35  1  0  0  0  0
  3 36  1  0  0  0  0
  4 37  1  0  0  0  0
  5 38  1  0  0  0  0
  6 39  1  0  0  0  0
  7 40  1  0  0  0  0
 14 41  1  0  0  0  0
 14 42  1  0  0  0  0
 15 43  1  0  0  0  0
 15 44  1  0  0  0  0
 16 45  1  0  0  0  0
 16 46  1  0  0  0  0
 17 47  1  0  0  0  0
 17 48  1  0  0  0  0
 18 49  1  0  0  0  0
 18 50  1  0  0  0  0
 19 51  1  0  0  0  0
 19 52  1  0  0  0  0
 20 53  1  0  0  0  0
 22 54  1  0  0  0  0
 22 55  1  0  0  0  0
 22 56  1  0  0  0  0
 23 57  1  0  0  0  0
 23 58  1  0  0  0  0
 24 59  1  0  0  0  0
 24 60  1  0  0  0  0
 25 61  1  0  0  0  0
 26 62  1  0  0  0  0
 27 63  1  0  0  0  0
 28 64  1  0  0  0  0
 28 65  1  0  0  0  0
 31 66  1  0  0  0  0
M  CHG  1  28   1
M  END
> <OMEGA_C>
GPoIQdix50AdSpTBkO8BQeSU/0CuIZ3B+UL0QGb32kDec4zB68C6QOLE/UDdZJbBpdDJQA3JJz8G
96zBYWuTQKIYPr/he6TBN0PTQFvo4b8kM6zB60DYQCitBUHO8p3BZrXIQMwZ5kD4o43BbWGiQBeG
CD/0iqfB1EbiQODR+74OP6/BkrWrQL/58b8+4abB2ELbQDQzzD+3eZDBDJLAQAW2F0E6QLrB0Jrj
QNIMKUHbwLnBmSnHQIfPB0HDH7HBQKySQFZ090CLvH3BLKqvQN/S00Bdg3TB89zhQOicNEEr7K7B
BFTJQNA6FEE9gqbB1gOnQAdd1kD5QIbBJnrlQAo9ED/t24fB5kqJQBIl4z/EgKTB/2SiQI7wkUDk
1o/BHOKiQHQrKEC0bJzBx66HQMI0ckBnCpjB9suwQN044z87cpPBrKKKQBDitkCceovBAZf4QGSa
CED4XZXB3wLoQJJqJUFck6bBq4R3QEWZlEC0qaDBLRMEQfjevb7XYbTB4wydQHZAR8DuEqTBmqYZ
QU0r30Bqg5PBix8NQQV4BEF2SaPB2K/+QG3QyEDsk4XB3EKZQLC+AkEATJfB7DnVQEKa0D9dXa/B
rKhqQDmpVr/OTaDBFBLmQMk9KcA28a3BVOugQH1AH0EXeLnBN4TCQC1BD0EF9MHBDZYBQXGDIUFp
u7rB/m/eQBizNEHUOMDBeUWsQDHt+ECV5LDBKzrlQKD+/UA9XLLBX/lfQK7S9kCAwXrBeeKdQJlo
DEEk/n3BvYrPQIzJ20D9Mm7B86ShQAfLuUBZ9mrBtUD7QHnIQEHJkq7B14DCQAFgPEGc963BvEGp
QGVWGkFfjaTB4i4EQQYE4j4kOIfBbZnYQDuSZz8iI4DBwdLWQAbWzL5QAYrBygmDQHK5F0BGu6vB
5G9VQNXDvD923KDBgvOqQNKyeEAAOonBCbm/QBCRnUAAvpPB3hC/QJ7hQkBMgaDBPEhWQHTtV0Dk
EpTBw0maQGwKpj/LPI/BKfRqQENArEAWGYbBrj92QBRbxUDfd5HB0XRWQBj8hEAAtaXBlPoIQZUR
8EB4GJTBvYkCQVil+EAlqp7BFk/zQIKo5kBBNYzBEZm6QBhX8EBjXpnB2F7OQHpETj8wkqzBuBKV
QAu/Jr/tLabBmUDXQA4Qz7/ZFa3B+DjZQHY3+EDVb6HB+VzHQIdd50CRzY7Buz2lQAYxJT+YD6jB
dmznQLYxpr5GAq/Bxf6tQCTr47/uuajB3pnZQLdnuj/xXZDBUl/bQB/kJUGpHK7BbyewQO8OJ0GC
EKjB2vLiQIXKD0GXUrPBfu6RQMHj+kCO9n7Bdp2uQMJc10BYrHXBAKmOQB+8F0FD/qzBizTLQPPd
+0BVLq3BrVWlQKov2UBD54bB4f7hQHbWpT5Td4jBIXeLQPUb7j8QsKTByXyfQJXkkED3iI7BGkuj
QBLrKUCK4ZvBcCGHQOY2ckCNaJfB3H6vQNr53j9nJJPBGoiIQMlFuEDSXIvBHtr3QDQF/j8Z+pTB
kEedQKCeAUH/Ga7B2dp6QP3xlUCv7Z/BHJUHQUPgLL4wGrPBYnyeQLdfQcDf36bBzcEZQYK38EDx
CJLBGmoOQTWZ/0DwsaTBcGD9QOzl3kB1LITB/vKYQCM28UDfU5vBZp3aQAPp5T+4Jq7BpRtrQGcV
R79gyKLBbHvqQML8HsDJ867Bw47bQJYsMkEParTB4G/1QJwTKUGGaqjB+WK1QIicIkGupp/BHOKj
QJOIN0GJeqjBdULXQL4yEEHpnrvBlbkCQVtNDEHKSrPBwK1eQJHG+kANtXvBRY2dQH8MDkE2hX/B
Qb7OQKgm30DboG/B3IegQDzUvUCy0GvBujZkQMTQF0HZ2KfBMCeGQP/CHUGj+7TB+ubSQKRX3UBK
HrHBEkwCQTrRBD4cAojBlgbWQNVEHD+qg4DBI2nRQCXWFb8NLYvBNX6GQGG4IEDXq6vBfZFYQOTc
wz+wkqHB4o6iQLKYd0BAiIfBDIa/QMuAmUBlepHBN0DAQB9SRkD7Z5/BNFdTQJCRVkDDDZTBVx6Y
QKetpj+U9o7BP1tlQCu2sEAx1YXBXMlzQCFZxEDczZHBDMJcQCofh0DiZKXBPRsJQXkO50ABepTB
rQwCQZry/kChUJ3B+5X0QPuI2kAgmozB1wu7QONT/UCqh5bBBqeRQEiZPL9woqXB4ZzMQA95Jj+N
E6zBAxvTQAPy47+6P6zBZ3/YQJdlBUFvG57BWg3JQPbI5UCUw43BKSijQOwdCj93pqfBwn6pQJeD
8r/+/6fBgqLkQGASAr87S67BDf/aQA0wzT+bb5DBDu/AQALyF0HiU7rBC5LjQDd5KUEKuLnBS9zH
QI7bB0FaTLHBTR+TQCkG+ECxGn7BJB6wQPGy1EDqmnTBsafhQE68NEGUzq7B0JbJQNEMFEGTnqbB
uWqnQGJx1kBsT4bBUgrlQIFEED/T3ofBuQqKQFez5D/3taTB63CiQDngkUBq24/BxwijQAauKEBW
fJzBPZuHQGYvckB/DpjBiKiwQB4T4z+HipPBCdiKQJbNtkB3bYvBsWz4QMZQCkCtJpXBIwnoQCNW
JUEKkKbBk8J2QBCglEAypaDBDWWYQARxR8A0NabBV0EGQWzhy75QZrLB4sMZQcde3kBBu5PBmzcN
QZofBEEUfKPBaAz/QER0yEAVuIXBy4yZQMGFAkH5bJfBR+FjQDVWU79FRqLByePZQJr9zz+7wq3B
YY/lQGXUKsAc8K3BYByhQB9JH0FfgbnBKxfDQMawD0G7FMLBm6YBQV0lIkEKw7rBuRfeQBpFNUHA
GsDBNEWtQFmo+EC5JrHB9irmQCmM/kBHkbLBEuNgQN+A90ATGXvBZFieQFOvDEEHpH7B0QLQQCrc
3EABYG7B9RuiQGP+ukAN1WrB9Nv6QL/9QEHqX67BrC3CQAZaPEGmzK3BGmSpQBIEGkEBr6TBxPYD
QYPl6D5oFofB5nrXQIVxYz9DLYDBx/LWQDA0zr6SKorBBoCEQH6pGEBi9qvB4TtWQF/evj9PPKHB
mBqrQHZjeECGRYnBpbS/QNaInUClyJPBxVu/QDfvQ0BxcqDB/nNWQE1vV0ALEZTBjw6aQD83pD9J
do/B1whsQH0mrEAF+IXBY+t1QBowxUBrXpHB4pVVQBf/hEDLrKXB0TUKQXgy40ASepLBwxQFQYYA
9kD4ZJzBatbzQMC72kBG/IrBfze/QD+O+EBoNZfBtceUQOiSNr+w8qTB48vMQC4cND/+g6zBrVbW
QIbc279q4avBOBrfQAQ2AEGYvZ7B0zvJQHGi5UCTfI3BX0ikQHoUEj/ynKfBd7itQExy7b8NHafB
4+HlQFiO4L5gkq7BQqTcQDJzyj+d/5DBadGeQDTWEEFPZbfB+ELFQEz0FkGbhr7BJoutQL5kAUHX
o67BBYWOQHGF/kCWloDBHH+oQDKE3EBxyXTByIXrQJQUH0G51bfBwDLSQIKJDEHndKjB61+kQJzf
2UBgjIbBJ0nnQJ4eED9LUIjB3KOKQP415z+zmKTBJ6CgQPYKk0AZco/BWUijQAy1KkCbVJzBCvOG
QL7FckCLxZfBXeKxQLOz5z/HdZPBroyIQNMKuUDqlovBbaf5QB5oBUBkPpbBMn/1QCjnD0E5lq/B
g0l0QFzElEDyVKDBj+aeQMxGRcD5fKTBQ44GQWj/nL6YA7PBwJ0aQfVH20D9npDBjoMRQVhu/ED4
LKLBn2z7QP8IzEA4ZoPBAH+eQIKeAEF68pjBTH5rQOPkUb8nPqHBwo3YQHtO1z+xsK7BjY/pQMbx
JcDMeK3BYoKRQJJZH0FZsbPBvhmGQIUTCUGkULzBQFzPQLjJCEHOGMPB3VC7QL6mI0HkFsTBe9mS
QLuv+0BzL6nBBi+5QAvd5EAkP7LBn95WQCtZ/0Ct0H/BetSaQOGtD0HbWIHBjVXHQPAZ5UBPd23B
YvCXQFkXxUBHlmrBFcIDQSwiIUH1Eb3BDzjjQEeHLkEpKrTB/R7GQEAzHEEH0KXBQhEFQZTx0z5h
+YfBI9nbQLTybj9fiYDBTorXQNRVyb5QKorB1b2EQDH/GUDs0qvB5MlXQIpBvz9eHaHBAMKnQAFX
fEB5lojBzb6+QCDUnUCiHZPBVhy/QCawR0DvUaDBrq5VQL0zVkD825PBiKmbQCrNrj/+7o7BX/Jl
QIBbr0BQM4bBrQNzQKhbxkAK0ZHBf6VUQNS/hEBZcKXB+/cLQRZf60CTNJDB0jUJQYz7+UA1u5rB
6i/0QH7T4UCT14nBw/DEQJBZ9kBGgpjB7MmWQJDdL78TnKXBUgrOQA7+Tj84iazBPPzYQFSxzb++
5KzBvxjpQDgV/kDGFJ/BO4DKQMw26EAr3Y3B7KKlQGajHj9hs6fB/mGwQFAr5r/ZO6jBes7nQOBp
m77/Cq/BQzHcQOj8vT8Ev5DBIta0QHzEJEF0uKrBGnKQQH+CFUGEPa7BIpHhQOzdG0EHYq3Bc5aN
QADH/UDxkYDBVqqmQAif2UCzA3bB+T+hQAaJAkHE77TBN/vkQPSQA0GW/qrBCcKjQOxq20DRR4fB
ThTmQKrMyD6Cl4jBzDWLQH9n6D9RPaTBfgmgQLJkk0DRJ4/B0U6jQEm0KUDutpvBLFGGQI8HcEDQ
EZfBeJSxQGzx4j8R85LBS6CIQD4ru0BsjozBDWn5QLQz/D9lBZbBesbBQEa97UCnL6/Bf1ZuQJY0
kkAgn5/BcziiQP8YQ8CRIabBEn0HQXBn9b0HZrPB1+MbQR1250Ab/ozBGwMXQSQPAUH+g5/BxJv4
QE+N1UBi14HB5hylQD5F+0CrpJvBzIVvQM21Vb8l/qHBUC7ZQDg85z/PT67B5L/sQPdqHcBl0a7B
zbuwQHUuNEGs167BraCyQFo5J0EwBqLBunWAQKQ2D0FZD6fBlY5yQBqUHkEkErPBhxfoQCyLHkEc
7bXBAYH5QBRqJEGfjKjBv+dUQCSb/kDdE4DB4CKaQOBUD0GFfYDBAifFQIOj4EBs8m3BAXiVQOeU
wEAbH23BXYCGQK1h70BZwrbBpe6uQGmqCEFfcbzBPFIBQQHg+0CDzq7BdVAEQRUJOj44nojBB1Tc
QCCiOj+/k4DBlGbUQP6XBb/AsorBarGEQBC2HED4P6vB5JRZQGUeuz+U1aDBnFWlQJoEgUB8xIfB
ORO/QDaom0B9wZLBpjm/QCn3R0ATg5/Bx8tWQNTxUUB005LBTjObQADbrT/bSo7BaqdgQOfps0BW
rYfBfkx6QLinx0AlV5PBS4lOQLIvgUB2gaTBNVUMQSOj6EDRTJDBgsUJQSbj+UCilZrBEbb0QJQQ
30BbBYrBBgLGQA8y+EDoV5jBE7jNQH4TTD89qqzBSyCWQA4NMb8V0KXBTj/YQGNjz7/TEa3BtFzq
QFhmAEHwy57BbTvLQCmn50Ag543BUjelQP4NHT993afBQU7nQKcvo75/L6/BYpGvQLky57/kcKjB
WjHcQPBVuT8CGJHBpmmqQD9PIkFeO6rBiWaNQMidEEFPAa/BQ0faQK8fHkGJVazB8V+OQKhL/UAB
koDB7HinQEDt2EDzLnbBe+mmQM8ZAEF3nbXBE4DmQHhMBkGokarB5FakQNIG20DGWofBsl/mQGXI
2j7VYojBbPqKQNgJ6D/6X6TBOTWgQA79kkDeNo/BVC+jQKgKKUC20ZvBv0KGQAggb0DIE5fBTpKx
QDVH4D/RIpPB/A2JQPb1ukCVpYzBIXf5QDAiA0AmhpXBMDfJQDcc7kCHYq/BOkxtQCbBkUC/k5/B
MEMHQc5bEL5Kh7PB9SihQASGQ8D1Y6bBxDEcQf214kBlNY3BeLAXQUn0AEHhS5/BpdH4QDwS0UAa
MILBOkqmQOhM/kCZapvBFxLZQAud5T8bZ67Bvg9uQI3oVb/3OKLBQOTrQAtvHsAH/67Bs56hQCC9
MUGt2a3BNB+lQKQEI0ECiqHB+0x6QB8/CEFhaqjBL9JqQHEpGEFUObTBF6fhQIaEIkFWp7TBGUzt
QD8ZKEFY3KbBv4BWQPIz/kAyCYDBlQKbQL8SD0HmdIDByg3GQFvE30DeKm7BlUuWQNDSv0B2U23B
mT6RQHBo5kDpKrjB8Gm0QFkMCEFJtLzBIRwDQWf4A0HRM67BxpwEQY5Jvj6eO4fBmgrXQLzrOz++
2oDBmS/aQJFVD79xyorB9piEQAXLHEB+XqvBZvhYQIA3uz+p/KDBonylQO28gEBhzofBIEC/QPEB
m0C52JLBdA2/QDqHR0B6nJ/BhShXQJHFUEAyxZLBkkubQKfQqz+0a47Bl0FhQKnos0DqyYfBjIx7
QMmAx0DscZPBczpNQNa0gEBubaTB

> <OMEGA_E>
2Ij1Pojp9z44D/U+7G0IP8jvAz/o0gI/

> <OMEGA_NBR>
    263182

$$$$
50214098
  -OEChem-04172616093D

 73 75  0     1  0  0  0  0  0999 V2000
    8.8879    7.1088  -18.0580 C   0  0  0  0  0  0  0  0  0  0  0  0
    7.7740    6.6887  -17.3168 C   0  0  0  0  0  0  0  0  0  0  0  0
    8.7321    8.0041  -19.1226 C   0  0  0  0  0  0  0  0  0  0  0  0
    6.3303    8.0677  -18.7107 C   0  0  0  0  0  0  0  0  0  0  0  0
    6.4215    0.8219  -21.5340 C   0  0  0  0  0  0  0  0  0  0  0  0
    4.5958   -0.6347  -20.8149 C   0  0  0  0  0  0  0  0  0  0  0  0
    6.6726   -1.5993  -21.6546 C   0  0  0  0  0  0  0  0  0  0  0  0
    6.4764    7.1803  -17.6079 C   0  0  0  0  0  0  0  0  0  0  0  0
    7.4571    8.4857  -19.4705 C   0  0  0  0  0  0  0  0  0  0  0  0
    5.1221    0.6571  -21.0058 C   0  0  0  0  0  0  0  0  0  0  0  0
    7.2005   -0.3065  -21.8450 C   0  0  0  0  0  0  0  0  0  0  0  0
    5.3675   -1.7614  -21.1464 C   0  0  0  0  0  0  0  0  0  0  0  0
    6.7414    1.4597  -17.9664 C   0  0  0  0  0  0  0  0  0  0  0  0
    5.2755    8.0563  -14.0987 C   0  0  0  0  0  0  0  0  0  0  0  0
    4.9350    8.8261  -15.3871 C   0  0  0  0  0  0  0  0  0  0  0  0
    6.2005    6.8658  -14.3915 C   0  0  0  0  0  0  0  0  0  0  0  0
    4.2936    7.8904  -16.4219 C   0  0  0  0  0  0  0  0  0  0  0  0
    5.5828    5.9451  -15.4616 C   0  0  0  0  0  0  0  0  0  0  0  0
    5.2329    6.7093  -16.7889 C   0  0  0  0  0  0  0  0  0  0  0  0
    6.9744    0.3421  -16.9529 C   0  0  0  0  0  0  0  0  0  0  0  0
    6.0124    8.0730  -22.1014 C   0  0  0  0  0  0  0  0  0  0  0  0
    4.9312   10.1165  -21.0140 C   0  0  0  0  0  0  0  0  0  0  0  0
    7.3962    9.5759  -20.5446 C   0  0  0  0  0  0  0  0  0  0  0  0
    4.3207    1.8591  -20.5779 C   0  0  0  0  0  0  0  0  0  0  0  0
    5.0935    4.5626  -17.9778 C   0  0  0  0  0  0  0  0  0  0  0  0
    6.2380    9.5057  -21.5706 C   0  0  0  0  0  0  0  0  0  0  0  0
    5.0850    2.6322  -19.4872 C   0  0  1  0  0  0  0  0  0  0  0  0
    4.2352    3.7793  -18.9525 C   0  0  2  0  0  0  0  0  0  0  0  0
    5.4380    1.7238  -18.3759 N   0  0  0  0  0  0  0  0  0  0  0  0
    4.4213    5.8165  -17.6290 N   0  3  0  0  0  0  0  0  0  0  0  0
    7.7045    2.0003  -18.5000 O   0  0  0  0  0  0  0  0  0  0  0  0
    3.8370    4.6271  -20.0299 O   0  0  0  0  0  0  0  0  0  0  0  0
    8.4570   -0.1482  -22.3182 F   0  0  0  0  0  0  0  0  0  0  0  0
    4.8572   -2.9992  -20.9646 F   0  0  0  0  0  0  0  0  0  0  0  0
    9.8711    6.7397  -17.8060 H   0  0  0  0  0  0  0  0  0  0  0  0
    7.9065    5.9803  -16.5125 H   0  0  0  0  0  0  0  0  0  0  0  0
    9.5978    8.3277  -19.6814 H   0  0  0  0  0  0  0  0  0  0  0  0
    5.3476    8.4297  -18.9747 H   0  0  0  0  0  0  0  0  0  0  0  0
    6.8163    1.8135  -21.6990 H   0  0  0  0  0  0  0  0  0  0  0  0
    3.6006   -0.7596  -20.4144 H   0  0  0  0  0  0  0  0  0  0  0  0
    7.2683   -2.4666  -21.8983 H   0  0  0  0  0  0  0  0  0  0  0  0
    5.7783    8.7372  -13.3961 H   0  0  0  0  0  0  0  0  0  0  0  0
    4.3444    7.6845  -13.6461 H   0  0  0  0  0  0  0  0  0  0  0  0
    4.2318    9.6375  -15.1484 H   0  0  0  0  0  0  0  0  0  0  0  0
    5.8576    9.2525  -15.8080 H   0  0  0  0  0  0  0  0  0  0  0  0
    7.1687    7.2417  -14.7541 H   0  0  0  0  0  0  0  0  0  0  0  0
    6.3535    6.2914  -13.4659 H   0  0  0  0  0  0  0  0  0  0  0  0
    3.3588    7.4865  -16.0061 H   0  0  0  0  0  0  0  0  0  0  0  0
    4.0713    8.4654  -17.3329 H   0  0  0  0  0  0  0  0  0  0  0  0
    6.3008    5.1451  -15.6947 H   0  0  0  0  0  0  0  0  0  0  0  0
    4.6605    5.5035  -15.0561 H   0  0  0  0  0  0  0  0  0  0  0  0
    8.0548    0.1695  -16.8385 H   0  0  0  0  0  0  0  0  0  0  0  0
    6.5447    0.6317  -15.9826 H   0  0  0  0  0  0  0  0  0  0  0  0
    6.4913   -0.5805  -17.3071 H   0  0  0  0  0  0  0  0  0  0  0  0
    6.9604    7.6712  -22.4883 H   0  0  0  0  0  0  0  0  0  0  0  0
    5.6491    7.4324  -21.2843 H   0  0  0  0  0  0  0  0  0  0  0  0
    5.2665    8.0947  -22.9096 H   0  0  0  0  0  0  0  0  0  0  0  0
    5.1292   11.1340  -20.6460 H   0  0  0  0  0  0  0  0  0  0  0  0
    4.1759   10.1561  -21.8127 H   0  0  0  0  0  0  0  0  0  0  0  0
    4.5585    9.4938  -20.1874 H   0  0  0  0  0  0  0  0  0  0  0  0
    7.3199   10.5438  -20.0275 H   0  0  0  0  0  0  0  0  0  0  0  0
    8.3394    9.5351  -21.1092 H   0  0  0  0  0  0  0  0  0  0  0  0
    4.1565    2.5163  -21.4447 H   0  0  0  0  0  0  0  0  0  0  0  0
    3.3502    1.5284  -20.1795 H   0  0  0  0  0  0  0  0  0  0  0  0
    5.2508    3.9660  -17.0672 H   0  0  0  0  0  0  0  0  0  0  0  0
    6.0652    4.7852  -18.4428 H   0  0  0  0  0  0  0  0  0  0  0  0
    6.5371   10.1219  -22.4313 H   0  0  0  0  0  0  0  0  0  0  0  0
    6.0039    3.0463  -19.9280 H   0  0  0  0  0  0  0  0  0  0  0  0
    3.3578    3.3730  -18.4280 H   0  0  0  0  0  0  0  0  0  0  0  0
    4.6928    1.2702  -17.8872 H   0  0  0  0  0  0  0  0  0  0  0  0
    3.5801    5.5968  -17.1350 H   0  0  0  0  0  0  0  0  0  0  0  0
    4.1947    6.2990  -18.4751 H   0  0  0  0  0  0  0  0  0  0  0  0
    3.2996    4.1346  -20.6391 H   0  0  0  0  0  0  0  0  0  0  0  0
  1  2  1  0  0  0  0
  1  3  2  0  0  0  0
  2  8  2  0  0  0  0
  3  9  1  0  0  0  0
  4  8  1  0  0  0  0
  4  9  2  0  0  0  0
  5 10  1  0  0  0  0
  5 11  2  0  0  0  0
  6 10  2  0  0  0  0
  6 12  1  0  0  0  0
  7 11  1  0  0  0  0
  7 12  2  0  0  0  0
  8 19  1  0  0  0  0
  9 23  1  0  0  0  0
 10 24  1  0  0  0  0
 11 33  1  0  0  0  0
 12 34  1  0  0  0  0
 13 20  1  0  0  0  0
 13 29  1  0  0  0  0
 13 31  2  0  0  0  0
 14 15  1  0  0  0  0
 14 16  1  0  0  0  0
 15 17  1  0  0  0  0
 16 18  1  0  0  0  0
 17 19  1  0  0  0  0
 18 19  1  0  0  0  0
 19 30  1  0  0  0  0
 21 26  1  0  0  0  0
 22 26  1  0  0  0  0
 23 26  1  0  0  0  0
 24 27  1  0  0  0  0
 25 28  1  0  0  0  0
 25 30  1  0  0  0  0
 27 28  1  0  0  0  0
 27 29  1  0  0  0  0
 28 32  1  0  0  0  0
  1 35  1  0  0  0  0
  2 36  1  0  0  0  0
  3 37  1  0  0  0  0
  4 38  1  0  0  0  0
  5 39  1  0  0  0  0
  6 40  1  0  0  0  0
  7 41  1  0  0  0  0
 14 42  1  0  0  0  0
 14 43  1  0  0  0  0
 15 44  1  0  0  0  0
 15 45  1  0  0  0  0
 16 46  1  0  0  0  0
 16 47  1  0  0  0  0
 17 48  1  0  0  0  0
 17 49  1  0  0  0  0
 18 50  1  0  0  0  0
 18 51  1  0  0  0  0
 20 52  1  0  0  0  0
 20 53  1  0  0  0  0
 20 54  1  0  0  0  0
 21 55  1  0  0  0  0
 21 56  1  0  0  0  0
 21 57  1  0  0  0  0
 22 58  1  0  0  0  0
 22 59  1  0  0  0  0
 22 60  1  0  0  0  0
 23 61  1  0  0  0  0
 23 62  1  0  0  0  0
 24 63  1  0  0  0  0
 24 64  1  0  0  0  0
 25 65  1  0  0  0  0
 25 66  1  0  0  0  0
 26 67  1  0  0  0  0
 27 68  1  0  0  0  0
 28 69  1  0  0  0  0
 29 70  1  0  0  0  0
 30 71  1  0  0  0  0
 30 72  1  0  0  0  0
 32 73  1  0  0  0  0
M  CHG  1  30   1
M  END
> <OMEGA_C>
7zQOQWJ740CvdpDBQMT4QPIJ1kDciIrBpbYLQaoQAEEE+5jBkpHKQGEVAUFvr5XBxHzNQPpkUj+4
RazBwBCTQOZ8Ir/0hKbBAobVQO+2zL+3PK3BfD7PQPHE5UAP3YzBqqDuQD7FB0Grw5vBPOijQEo5
KD/YC6jBMGrmQE7qnL6Hwq7BgMKrQER04b/sK6nByrnXQHDXuj9Fu4/BxtCoQKzmAEEXlGHB6uud
QLU3DUGZMXbBzmrGQNa020CEQ2bBRGWJQHx+/EAUYIPB6KWyQKg+vkCXYnfBFnSnQM2y1kC3T4bB
bC7fQBMjrz6Hn4fBPGXAQOYqAUGez7DBbsydQEbdIUG7HKjBnq3sQMU2GUFLW6TB9EKKQEv47T+h
n6TBtv2iQBsBkkCX0o/BwJ3HQCcXGEGjkKzBtLiiQMJ2KEC95ZvBloaHQHPfcUC4npfBWASuQAGm
3D/TAZPBmHuNQLYgukBECI3BpIv2QNsEAEAQAJTBp5B1QJcRlEAwPaDBBVAHQXDLF76hi7LBLG6b
QCnyP8B7t6fBBvAdQVyr10Cdco7BrgH9QJdev0CKGYTBgJAZQT8+BUFsc53Bch+rQPTfBkE3zJfB
GR/aQBAg6D98l63BlXBmQHd0Qr+iUKPBB5boQBHdHcCnL6/Blue4QG7LC0E5VlbBNQWLQGHn9UBx
VlrBnGqHQEIzGkGzX3LBV3G7QBUKFEGH7XzBv2XlQMC750CgEGzBQFDLQH5TyUBldFfBafZWQCuR
70B0DIDBa0iCQHNyB0HcqYrB6Z/JQJKkpECKHXvBBSOVQFscsEDE5XDBQuAAQX2NLT4rtYbBOG7R
QKO4IT/JuH/BGrnPQKidFL/wdIrB0rveQER69UAS6LPBOcW0QPTV7UAzRqrB1IaoQAiEAUHHRrfB
ICKkQAIlMkHqKqXBtqCFQIx/IkFwgK7BG9+RQH/mF0Hcf6HB6DzqQEGzKEFQOKDBBG4FQcOPGEGZ
36jBpwGFQLsKIUCqjqvBlGlWQHSiwz+Qb6HBhQaoQOLSfUCYiYjBLRbCQIUgmUDSipPByS/RQCTz
IUFlc7PB1R/AQJr2QkB5bJ/BleVWQDbfV0CQbJPBCSuWQGuVoj8QGY/BRSBlQJcYs0CUFInBITuG
QFiRyUAFzZPBDCxTQM1OhEDWHKXBVYsMQWoV5ECAH5HBTiD3QItR1UC4sYrBmZ4IQSCgAEGtcZnB
BF7FQGYyAEEw+5TBxmDNQHdGUz/8iqzBfnWSQIwCGr8goabBmt/UQGnQzL/bDK3BvKzMQCgd5EAg
bIzBUjfnQI+2B0EXXpvB6J2jQL+jLj9XYqjBwB7mQBidob60xK7BJvWqQH7l3r9OCanBevfXQDAv
vT+J/I/BGIKpQCS/AkFFEWLBNmabQBh2DUGVEXfBhIHHQCI930DEMGbB8ImGQOu9+UAu5YLBph+z
QP3gvkCB33XB8PilQMO01ECeqIXB+qrfQMyGxz6gpofBXsaqQG1iKEGueLDBKC7IQGAKA0EXTLPB
TtreQIxNGUHzW6PBKoeKQK0l8z+vCaXB5LaiQEA7kECuUo/BGJG5QK27E0Ho/qrB2vOiQO0vKUAf
JJzBmtSHQE2AcUCGl5fBWk2uQMvx2j+FbZPBijaMQEYkt0DNIYzBGqr2QC/FAUCkPJTBuUl4QGVm
lUBMAaDBAkUHQXKhNb4rdrLBpFqaQKwvPsAmX6fB8KEcQevv2EDdpY/BG2n9QH2IvkAMZITB/KcV
QeVcBkEHVp7BshylQLxiBUGwrpbBqkzaQEat5z88A67Bxg5lQMLINb+CcKPB78jnQGWFHsBiz67B
X2q6QO2YDkHeLFjB1vSMQCcd+kA+fVnBPjaEQCk3GkETgnPB3X+3QB1hFEF9GX/Bta3lQDET60Bq
Dm3BKBTOQF8Gz0Ac61bBkJBUQPhP7EBjuX3B3DN5QNjJBEH9WYrBsWXKQFFepUBCSXnB9nuWQM3u
sEBbYm7BsSQBQSNSeT74kYbB+DnRQLEdMT8g/3/BSAjRQP4SDb92X4rB4IqgQMn+M0FtX6rBQl3F
QJIoL0FvI7XBoMyPQFLTJEFc1rXB1prSQDLS6EBFKK/B+matQBR2/kCRrrjBnPfiQEmQCUGj+7fB
ctPWQNAOKEF7AJ/BtPz7QHXlG0HcH6jB71iGQKBFJEC79KvBWvJVQM9zyz9hB6LBCpOnQKc2d0DK
S4jBfu7BQPWimEDTzZLBq/CeQB4SDUFJTabBcVbAQIZ/REArlJ/B93FWQBOhVkDUt5PBD5qWQOey
mz8GyY/B0u9kQCO2rkCm34fBeuqCQPN/xkAhwZLBiLlWQP6VhkC1JaXBoO4JQWiQ7EAKRpPBfuP0
QIhH4EDjtovBC6ADQZrf+EBHlZ3BxX68QPQm70Dqn5jBtTHMQHbsQj8qQazBSauSQAqpLb/VuKXB
B/3UQNep1L8LW6zBv53IQAWm4kBFNo7Bk57bQN11+EBnWaDBF+uiQLgLHD8d0qfBF1DlQNBXv74v
cK7BgZarQMr857/NC6jBiNvYQDeKvz+P9Y/Bg0qoQKwIBEHU0mPBlnmcQJKRDkEnO3nBAGLHQCav
4kAIOmfBmjSHQARK/EBG/4PBVUm1QE1+wUBFNXfB5f+kQDir1UBeTobBWS7iQBi71D57q4fBXmTh
QC+6JkHZE7TBgvSbQICqI0GUqKnBAS/OQFgTBEGyIqvByGKJQPWM6T9rkaTBWjWgQGjljkB8847B
4x7LQOOxHEFjYarB4b6hQBXQJkC425vBJ8qFQEbTbUDkPZfBGrGuQDhC2T8CIZPBwIaJQODjtUB0
tovBNrb2QOa3A0DUeZTBe49yQLpKk0DZop/ByJwGQa+IaL7BcbLB8OObQDjyQsALBqbB06waQXuD
7EDqIpHBu9n+QKPx1EAN8YPB3ncPQcRRAUG/YaPBjf2aQNeQ8UDap5rB2XfYQOy/3z+2963B+jJm
QO5YS7+5VKLBnDboQGwfIsAaEK7BFXy3QL4EEEFGaVnBiwGLQPkI/EDKIVzBSimGQLXcG0HQTXbB
paS5QMu7FEE+dYDBMcXlQCw/70ARgm3BoR7NQPDU0kDKxlfBk5NTQL2M8EBkKIDBtC9+QNj4BUES
nYvBrLLOQOtXqkDY/nrBjWKaQEbHsEAQh2/BxH4CQVA2kj5m4IbBraHUQBTXNj+h0H/BcaLTQGlz
CL8BP4rB+3cBQf1rIUHXWLTBMPXQQG2zIUFLcbvBRkTgQG5EOEGKaLPB1/uMQKEwHEE4oKLBMD6a
QAYuNUGp5qjBGe+KQAWdHkFp77DBygfmQNn0/kC+L7HBB+CuQNWR+kCWSq3BooWEQE02HkDak6vB
2kpUQIu8wD9iaqHBKiylQLCpdEDy6ofBEmO/QGWIl0AWa5LBL7vbQH/uIUG3E6PBY2S+QFW3Q0A2
ep/B/yNTQMRrUUBUXJPBg7yXQJIKmT/1Qo/BteRjQFKqrUDktYbBSSJ6QIB4w0CtQJLBa6RRQHoU
hEBaxaTBmxcJQRX67ECWFpPBQnbzQAu82kAkQIzBzrECQZwaBUGI+JrBf926QPbh/0AF45XBwTDM
QNk1VD+pyKzBWUCTQE1XIL8yJabBPmzVQLqyy7+EB63BSnHHQIF75UBBUo3BcqXZQBPiCUFISZzB
BDCjQDpIKj/4OajBXm7lQHgMmb6YFa/B6kCsQF9x4L9SmqjBgU7aQMiguz8Eu5DBflatQOI7A0Eu
u2LBmBmbQI1dDUFSNnfBVf3LQAM24UCmz2fBM+KEQItY+ECPXoLBYaK2QMarv0A7knbBjpekQGhd
1EBhtYXBIGTjQMtu+j7DoofBAwuzQNfVA0HKjbPByOTXQFxqJ0H5pLbB8fbLQLy4GkFuGqTBzM2J
QAN97z/YxKTB62eiQN3mj0A4SI/BI8jVQEdzE0EBkK/BY96iQB/+KEAGIZzBOGKHQDEDcEC3apfB
oPivQF8F3T/zcJPBwIyKQPlLtUC9m4vBexD4QDw0BEC39pTBUat0QLqNlECDuZ/BF5YGQQZoD776
KbPBKuWcQKZpP8C+kabBg8MZQRB/5EASRZLBIV39QHJlxEDvI4bB+H4OQVqtDEEWBaDBNEiZQGhk
AkFuhJfBDCfYQJvb6D8ugK7BxbtnQJQWQL+VqqLB3rXoQEBUHcDj2K7BOOG+QLuID0GTs1nBiLSS
QLFR+kD09FjB3syDQLjTGUHS4XLB50y1QJKOFEEgQYDBpZroQBL97UCU02/Bo2XVQEua0UDpwFjB
VW9VQIQl6kAPWXvBNW9vQGarA0FwnonBDIvOQPtfp0A29nrBJzGcQOtWsECS123BoAADQf+t6z6a
DYbBXHDSQF1PUT+UYoDBOEXYQLXdA7+/6InBQDiyQEdX60DAVa7BrrCTQCPUC0EyYrPBvnC6QFi/
/UC7yrvBtN3wQOg/MkHpn7PBdonfQDKxIkFI577BZsm4QKqlL0G/frbBE12pQHOBHUERSKPBN1jd
QH6nKUHobKLBnVOEQPG6IUDZsqvBtLJVQC7axT9NfKHBUG6pQD+wdUDfc4jB9JHAQFg1mkDOA5PB
Kf/0QBBSC0Hksq/BmXG/QM2NRUA105/BWtBWQA3QU0CmZ5PBmP6YQE1Ioj8yQY/BreZlQAhOq0BI
0YbBwhx8QAj2w0AF/5HBo+FSQOR4hUB6y6TBWGQIQTsI9EDwC5PBNNvyQBiF30ATZYzBg4EBQdIz
CUE/lZrBrQO5QJheAkG4i5XBn2HJQOpyUD93Tq3BtnKTQLNZKr+iiqXBn2rTQAITzb9Y163B+JLG
QFgP6UAHRo3B4PXWQIRpDUFv2JvBRh6iQDwdIj8G7afBKhriQML+mr7CNLDBC+yrQPIm5L/XlajB
B0HbQOSfwj9Ra5DBnWKtQKQVAUGDE2HBUc+aQKpsDEE12HTB3qXMQPtY3kCXeGfBG7yEQGgg+ECk
vYHBcLy3QIyUvkBHRXfBJ7CkQPZs1UButYXBliXlQC+z3z4iLojBQT/0QNW+EkEi1rPB7i2tQI6O
AEH/dLDBDDvHQNn+HUEyz6PBsdWIQK9z6j/7Q6TBLayjQHwDkkCbyo/BCX/GQHSyFUGDda/BrwKj
QO1xKEBLBpzBoQCIQOgMcUDLcpfBtcqwQBW53j/oQJPBphWLQC20tkDg3ovBtMT4QEMbBUAkF5XB
06BzQOLWk0DX45/BdOIDQWjOAb6iVLXB0G+dQAnOQcBzeabBdzEZQaZu7ECZXJLBIaD9QEZZyEDE
k4bBTRQNQYqnEUEUaZ/BzDyXQGh6BEFICpfBRG7UQKOs5z8GMq/BlPBqQLd4Tb+QYqHB+m7mQDh2
HcChDrDB13u+QA7iDEEpNFfB7vySQPEz9ECKwlfBqFWDQDt6GEERrW/B3NO0QJRRFEExsH3Bquzo
QPW67EDOGG/B1IXWQFHlzECDAVnB04xVQF516EDUinrBwp9uQJp2BEEztYjB0BjQQOd5p0CkjnzB
e9GdQJOFrUCR9W7B6f8DQcgimz6YkYfBvEfYQCKEPD/uWIDBlUfWQNR6Ar+Rr4rBN/wCQbjgIUF6
FrPBkVkCQWgyBkGpPK/BArfyQL8MDkEPT7zBs56MQF/XAkFqUK3BDXWrQBWg90Cb67jBLHG9QGfr
50A12avBbJGmQKvFIkFyj6HB8H/cQEX/K0FoaqPBuZ6BQGw/HkCgL6vB54NVQD9cvz9FkqDBWSGt
QPtRe0AfA4nBD3nAQJBfnUCP+pPBOVi2QDPKIUGharTBTEC/QBCyQ0ABBqDBnShZQCQDVkB3FpPB
ACGaQE25oT8hFo/BshdnQP7Sq0DXLofBrP18QIDvxUC7KZLBDupQQC/6g0AMtaTBkX4IQQuU50CT
RJTBoADzQBNX3EBRYozBI7sBQexU/EBLoJ3BRjq6QOlM/EBoDJfBWXHKQOyfPj+IyazB+UKUQPiD
NL9nx6TBk0LUQD5V1r/H0azB1hPHQJXR5kC6ro3B2ArYQB3/A0Fg3J7BTA+jQB64FT+FaafBohnj
QB/OxL4IcK/BbbWsQMq96r8MjafBlFvcQPVTxj/oaZDBzO+rQDSLBEHNZWPBKAmbQFu/DkEtI3jB
J3rKQE+f40DtF2jBDb2EQNF/+0DM8YLBMG61QP86wkA6AnfB4P+jQADU1kAuAIbBQZzmQCxqAz94
04fBm1nQQCi8KUHGPLfBvEv8QGFGLkEbqKbBzULHQBrzDkG0yKjBM6OJQKr05T/WDKTBJQCjQLcz
kkCzu4/BHBjoQAmrHUHoWK7BA3SjQGZ2KEC29JvBZ/qHQOcgcUCQi5fBQrWxQMx94z+oAZPBUziK
QPAEt0AE3ovBGpL5QBHGAkB4pJXByN10QDyUk0DFHKDB43IEQagia741jLTBkSmeQAWLRMCOJ6XB
ujkZQWw+4EAdIJPBtmn9QI2dy0ADSYXBhhsNQcCyAUGT4qPBkNSYQHDuAUFjN5jBFaPVQHzP3T8L
3a7BRl1sQISiU78Ro6DBLzTnQEalIsDj2a7BvjG9QAHDEEFpH1rBC6yQQLIq/UDy/lnBJQ2EQF51
G0FZH3TBO/K1QP6iFUFok4DB+IPnQKse8EBa1W/BYCTTQIAG1EAH7FjBontTQD3/7UDN1XzBIHdx
QNxPBUFXTYrB12LNQKvaqUB+OHvBprOaQOf+skADdW7BsbAEQcADsT79iYfBP4LbQP0PYT83AYDB
slLWQKMq3b7gvYnB2sbBQMgsHkGJyLzBHy23QN/EM0HUrbPB4BLnQEfrM0Ggn7vBor0GQRrlJUFw
OKDBYmkJQXlwOEHpHavBBO3iQBBKOEEdLKPBYVO9QD6OAkFehK7BPFyrQGWsGEHNg6bBzIiCQOdP
GkANIavBkABXQFhBvD/tUqDB8/urQAWde0Du64jBshbAQGOYnUDWyZPB28wAQVjWE0FF5rHBeHa/
QNPZQ0BsCqDBU3NYQLIOVkD5UZPB8UibQE3Rqj/4h47Ba4lmQLA/rEBt/IbBQrN5QGN9xUDYK5LB
dhVTQFqEg0DE/aTB/IUJQXXl8ECaJJTBxC71QGM25EDfVozBRpwCQQ2k+0A4fp7BHUu7QB5p8EA0
ApnBI4fNQKTYQz/kUKzBhc6TQHKmLb+w8KXBV0nWQCAi1L/Xg6zBm6rIQH3V5ECBmo7BY1PZQILR
+UBLCqHBBiSkQJxMHD+/86fBz7DmQImivL4Zgq7BeMSsQG3K57/rR6jBfIHYQEvFuD9tyI/BH4Wo
QF1HA0HItmPBvPmaQOsHDkGXwnjBj1jJQPoA40Ai1WfBXfmGQHML+0CB64PBeTy4QFKuwUBM/XfB
FUCmQOX31UDBhYbBmHTgQEb0tD7beofBKWifQG22IUHIoqfB+ynrQCo7JUF8pK7BUyjKQGNHAEFB
dKzBNKGKQMV56T/Mq6TBC3WiQJwmj0BZM4/BO4jBQJn/F0HTI6/Bg/2iQEr0JUBI5JvB8JiHQIka
bkAMYZfBTbiuQPKe1j8rHJPBlUSLQBWatUD22ovBQw33QOzB/j/VH5TBnLF2QAM/k0BP1p/B71wH
QTIXYL4QbrLBqwSdQGbsQsAyVabB2lQaQdxf8kAALJLBwhoAQRfs2UDEkITBvRYOQW+jAkFBfKTB
AomZQOwM8kAZ0JrBEdnZQGFY4D/5963BVk1oQDDTS7+emqLBXIrpQPzLIcCbO67BMM+2QM5eD0Fm
G1nBmCGMQI6p+ECl91vBhmyDQGymGkFxUXXBSj63QBEkFUEnPIDBHcjmQFpf8UDiRm7B44nQQNfN
0kBvoFjBIWhUQKOv7UDvGoDBee97QB2JBUGnbIvB8IvSQIflq0BBPXzBAGueQItsr0DhQXDBOI0B
QfV2Tz67gIbB72rSQDkTKD/bkH/BOpHRQJ7KFb9GKorBEPCBQGsgGEGDEqjBO3urQOCxIUGrXp/B
GICYQIc9MkGHHqrBwJIBQfEiHkHsBLTBK4bkQHLFNUGKJrHBTYH3QMw5JUGuZqbBNeDiQHhr9EB4
77HBnF2sQLxo7kA4oa3Bm/SFQE6fHkCipavBv5pWQPe2wD8fkqHBU02oQDsgdUDCNojB/TbBQMpW
mECsz5LBRzO1QFDNGEFYX7fBsSrAQHqEQUB6aJ/BRn9WQObmUkBPbJPBwiaXQNPRmD/1UY/BLEto
QOXUrEAex4bBQ1N8QKj4wkDlV5LB7TJVQNwLhEBk6qTBGcDQQP7lCkEe557Bh0m0QPcNAkEuU5fB
ofP8QLAAB0Ee/53BW3LvQBZb4EARg47Ba0/LQJZHOD9ZjqzBhdiRQE5FLb/SaaXBFRrRQLjU2r8k
Ta3Bj8DDQFFr6kA1vY7BEA0GQYwB80Cqw5XBbRKjQET+GD9/iafBGWbiQOMs3r4YYa/BbKyoQBMp
6r8LZKjBrFfZQIMWtT93uI/BY7WwQIXI/kCE6GDBDsOfQGEYDEHeMnTBuqTOQEnI2kA/NmjBaziH
QNlY+kBUwYHBJZC5QFgevkBUMXnBwtakQFoN10BjV4bBLHTgQOm3oD5ycIfBB1ElQWpkHEGzKI7B
zoEbQXyFAUFF6H/BW7EdQQ/660Cx8pPB3tqKQAU06j8iNKTBlaWiQBrLkUD3kY/BHbkmQZ6cBEHe
5orBZUikQFBWJ0Adu5vBWw+JQG3ocUCdtJfBnJavQCmq3D87t5LBXXCKQDn6t0BlLozBF0f4QKN4
9D9ZR5TBz3t9QEeclEA+aaDBYnwEQTvVob6RLbTBq5mXQDc9Q8AhmabB6KLEQJWeFEFIX6XBx2CS
QHgQBUHaC5jBH4wJQTtFDkHci6PBWzn7QLnbyUC/pojBIlvYQKJU2T8IOq7B5VJmQNemRL9jgaHB
FNbiQOkjJsAYea/BAWDCQIJGCkHcQ1bBIoWVQEPP8ECyLljB9R+KQPPCGEFMhG7Bc9m6QONbE0GX
xnzBJszrQNsJ6UA3B2/BmynXQHcKx0DhRlrB1IpZQKkj60CIu3rBtXV0QGixBkEGaIjBvR/SQD9b
qECSj3/BIEGgQIZZq0C9WHHBSHQBQZsa3j3As4bBDM3TQFb9Iz8LT3/BXcPPQESxGb/B/onBOEAt
QdC0HkGn7ZXBT2oUQcohIUHBzI7BIEctQWxKJkFsEYjBp3IcQQYz4UAvKXvBVnwjQa53C0GRxnPB
hJ8KQQtPBkGdnoDBGk0gQfVVykDgtZHBP04mQRf58kCba5vB0KeFQLMVHkBePavBYYhXQH04xD/Y
06DBIO2oQO7FekDpkojB0zTBQGLMm0BtJpPB5Ls3QTabAEH824nBB5rBQGi1QEAubZ/B/qZXQEfK
WEAA8ZPB/7KXQFGpqD8jgI7BkOVkQCGjrkAJbofByPp8QPJBxkD9r5LB5TddQOVFhUBPlqXB

> <OMEGA_E>
AO4aPjAYIz4gRjc+CA4+PrCqQj4QAYU+oA8GPgCawj4=

> <OMEGA_NBR>
    272569

$$$$
50214103
  -OEChem-04172616093D

 61 63  0     1  0  0  0  0  0999 V2000
    8.5448    7.6285  -18.7399 C   0  0  0  0  0  0  0  0  0  0  0  0
    7.6803    7.0704  -17.7713 C   0  0  0  0  0  0  0  0  0  0  0  0
    8.0279    8.4060  -19.7948 C   0  0  0  0  0  0  0  0  0  0  0  0
    5.7746    8.0187  -18.9546 C   0  0  0  0  0  0  0  0  0  0  0  0
    4.5197   -0.6630  -20.8357 C   0  0  0  0  0  0  0  0  0  0  0  0
    6.4686    0.6838  -21.4360 C   0  0  0  0  0  0  0  0  0  0  0  0
    6.5879   -1.7484  -21.5378 C   0  0  0  0  0  0  0  0  0  0  0  0
    6.2774    7.2801  -17.8522 C   0  0  0  0  0  0  0  0  0  0  0  0
    5.1306    0.5956  -20.9929 C   0  0  0  0  0  0  0  0  0  0  0  0
    5.2457   -1.8333  -21.1150 C   0  0  0  0  0  0  0  0  0  0  0  0
    7.2001   -0.4887  -21.6949 C   0  0  0  0  0  0  0  0  0  0  0  0
    6.6396    8.6027  -19.8964 C   0  0  0  0  0  0  0  0  0  0  0  0
    6.6180    1.2552  -17.9118 C   0  0  0  0  0  0  0  0  0  0  0  0
    5.4135    7.9136  -14.0981 C   0  0  0  0  0  0  0  0  0  0  0  0
    4.9118    8.7024  -15.3159 C   0  0  0  0  0  0  0  0  0  0  0  0
    6.4531    6.8667  -14.5274 C   0  0  0  0  0  0  0  0  0  0  0  0
    4.2667    7.7465  -16.3224 C   0  0  0  0  0  0  0  0  0  0  0  0
    5.8888    5.9201  -15.6013 C   0  0  0  0  0  0  0  0  0  0  0  0
    5.2668    6.6711  -16.8347 C   0  0  0  0  0  0  0  0  0  0  0  0
    6.7247    0.1958  -16.8180 C   0  0  0  0  0  0  0  0  0  0  0  0
    4.3761    1.8423  -20.6117 C   0  0  0  0  0  0  0  0  0  0  0  0
    5.1332    4.4934  -17.9603 C   0  0  0  0  0  0  0  0  0  0  0  0
    5.1148    2.5682  -19.4718 C   0  0  1  0  0  0  0  0  0  0  0  0
    4.2928    3.7493  -18.9760 C   0  0  2  0  0  0  0  0  0  0  0  0
    5.3542    1.6396  -18.3474 N   0  0  0  0  0  0  0  0  0  0  0  0
    4.4295    5.7135  -17.5690 N   0  3  0  0  0  0  0  0  0  0  0  0
    7.6344    1.8032  -18.3253 O   0  0  0  0  0  0  0  0  0  0  0  0
    3.9880    4.6216  -20.0645 O   0  0  0  0  0  0  0  0  0  0  0  0
    4.6565   -3.0392  -20.9603 F   0  0  0  0  0  0  0  0  0  0  0  0
    8.4921   -0.4050  -22.0842 F   0  0  0  0  0  0  0  0  0  0  0  0
    5.8233    9.8523  -21.4580 I   0  0  0  0  0  0  0  0  0  0  0  0
    9.6089    7.4578  -18.6709 H   0  0  0  0  0  0  0  0  0  0  0  0
    8.0887    6.4804  -16.9641 H   0  0  0  0  0  0  0  0  0  0  0  0
    8.6940    8.8481  -20.5209 H   0  0  0  0  0  0  0  0  0  0  0  0
    4.7073    8.1345  -19.0722 H   0  0  0  0  0  0  0  0  0  0  0  0
    3.4950   -0.7290  -20.5011 H   0  0  0  0  0  0  0  0  0  0  0  0
    6.9294    1.6505  -21.5759 H   0  0  0  0  0  0  0  0  0  0  0  0
    7.1475   -2.6494  -21.7415 H   0  0  0  0  0  0  0  0  0  0  0  0
    5.8744    8.6088  -13.3810 H   0  0  0  0  0  0  0  0  0  0  0  0
    4.5630    7.4048  -13.6207 H   0  0  0  0  0  0  0  0  0  0  0  0
    4.1688    9.4449  -14.9893 H   0  0  0  0  0  0  0  0  0  0  0  0
    5.7594    9.2168  -15.7922 H   0  0  0  0  0  0  0  0  0  0  0  0
    7.3346    7.3840  -14.9341 H   0  0  0  0  0  0  0  0  0  0  0  0
    6.7485    6.2748  -13.6485 H   0  0  0  0  0  0  0  0  0  0  0  0
    3.4195    7.2399  -15.8371 H   0  0  0  0  0  0  0  0  0  0  0  0
    3.9024    8.3293  -17.1812 H   0  0  0  0  0  0  0  0  0  0  0  0
    6.7046    5.2758  -15.9611 H   0  0  0  0  0  0  0  0  0  0  0  0
    5.1064    5.2986  -15.1413 H   0  0  0  0  0  0  0  0  0  0  0  0
    7.7796    0.0652  -16.5350 H   0  0  0  0  0  0  0  0  0  0  0  0
    6.1465    0.5169  -15.9390 H   0  0  0  0  0  0  0  0  0  0  0  0
    6.3246   -0.7583  -17.1915 H   0  0  0  0  0  0  0  0  0  0  0  0
    4.3058    2.5083  -21.4843 H   0  0  0  0  0  0  0  0  0  0  0  0
    3.3647    1.5693  -20.2763 H   0  0  0  0  0  0  0  0  0  0  0  0
    5.2922    3.8587  -17.0760 H   0  0  0  0  0  0  0  0  0  0  0  0
    6.1054    4.7537  -18.4044 H   0  0  0  0  0  0  0  0  0  0  0  0
    6.0773    2.9385  -19.8545 H   0  0  0  0  0  0  0  0  0  0  0  0
    3.3727    3.3825  -18.4976 H   0  0  0  0  0  0  0  0  0  0  0  0
    4.5591    1.2648  -17.8706 H   0  0  0  0  0  0  0  0  0  0  0  0
    3.6570    5.4591  -16.9872 H   0  0  0  0  0  0  0  0  0  0  0  0
    4.0903    6.1609  -18.3965 H   0  0  0  0  0  0  0  0  0  0  0  0
    3.4605    4.1579  -20.7043 H   0  0  0  0  0  0  0  0  0  0  0  0
  1  2  2  0  0  0  0
  1  3  1  0  0  0  0
  2  8  1  0  0  0  0
  3 12  2  0  0  0  0
  4  8  2  0  0  0  0
  4 12  1  0  0  0  0
  5  9  1  0  0  0  0
  5 10  2  0  0  0  0
  6  9  2  0  0  0  0
  6 11  1  0  0  0  0
  7 10  1  0  0  0  0
  7 11  2  0  0  0  0
  8 19  1  0  0  0  0
  9 21  1  0  0  0  0
 10 29  1  0  0  0  0
 11 30  1  0  0  0  0
 12 31  1  0  0  0  0
 13 20  1  0  0  0  0
 13 25  1  0  0  0  0
 13 27  2  0  0  0  0
 14 15  1  0  0  0  0
 14 16  1  0  0  0  0
 15 17  1  0  0  0  0
 16 18  1  0  0  0  0
 17 19  1  0  0  0  0
 18 19  1  0  0  0  0
 19 26  1  0  0  0  0
 21 23  1  0  0  0  0
 22 24  1  0  0  0  0
 22 26  1  0  0  0  0
 23 24  1  0  0  0  0
 23 25  1  0  0  0  0
 24 28  1  0  0  0  0
  1 32  1  0  0  0  0
  2 33  1  0  0  0  0
  3 34  1  0  0  0  0
  4 35  1  0  0  0  0
  5 36  1  0  0  0  0
  6 37  1  0  0  0  0
  7 38  1  0  0  0  0
 14 39  1  0  0  0  0
 14 40  1  0  0  0  0
 15 41  1  0  0  0  0
 15 42  1  0  0  0  0
 16 43  1  0  0  0  0
 16 44  1  0  0  0  0
 17 45  1  0  0  0  0
 17 46  1  0  0  0  0
 18 47  1  0  0  0  0
 18 48  1  0  0  0  0
 20 49  1  0  0  0  0
 20 50  1  0  0  0  0
 20 51  1  0  0  0  0
 21 52  1  0  0  0  0
 21 53  1  0  0  0  0
 22 54  1  0  0  0  0
 22 55  1  0  0  0  0
 23 56  1  0  0  0  0
 24 57  1  0  0  0  0
 25 58  1  0  0  0  0
 26 59  1  0  0  0  0
 26 60  1  0  0  0  0
 28 61  1  0  0  0  0
M  CHG  1  26   1
M  END
> <OMEGA_C>
UbcIQbwc9EBZ65XBqMT1QFZA4kCJK47BeHIAQch+BkGtW57Bq8m4QMVMAEHtopfBbqGQQGa8Kb+W
r6bBDv/OQAUMLz//fKvBJtDSQCvK379wTazBEuDIQPT26EBk0Y7Bmi2kQJN7GD+J8afBi9ynQDWo
6r+S66jBTGfmQIgx+r4Sj63B7nfUQKWkCUHPK5/BSsbTQAeqoD9VS4/BPjutQOs7/UC2kWHBzi2d
QN88C0HODXXB7n/OQNG720AUcGjB6YiIQEPj90BDlILBAHG8QElxvUDsnnnB1omoQGp51UB5rYbB
3jDXQIF7SD4ti4bBOgmMQPvO6z+x5KTBiUOkQB7Kj0Cgro/BJqyjQNFdJEBHxpvBvF6JQCH1b0Dw
zpfBwFWrQInf0T9zx5LBZ76NQJ/UtkBpjYzBIk30QL/Q5j8xmpLB+Dt/QL7jk0AhhKDB6gGVQF6C
QsDDrqfBeN8HQY5Wz752rLDBr1i6QBqjHUEHqqvBQL4ZQWmm7kAYXpXBTmsBQY5fz0BstofBvhoL
Qc+RDUHCKqTBPqKWQNgmAkHtk5jBzq1fQPigOr86AqTBXL3dQPBD0z9hm6zBB7jkQBmPKcCd7q3B
2vq7QL29CUGTGFbBQwSSQG307EBG7lnBHmeFQCseF0FE1G/BQU24QBZ4E0EDrXzBtLTqQH9J7EA7
8m7BpfPXQPDKyEBAYFrBSNhaQCGt50DSZH3Bb8B5QMxEBUEnc4nB+IvWQJPTqEB6YH/BvWejQNSN
qUDEQnLB1fL4QPd2hT2rR4TBPLDEQBBTBD8hBn/B6mLKQP4iQr8piInBYMmJQPyHIEDK36vB2FZX
QCDeyD/rNaLBGVqpQHn1dkCym4jBI1/DQG0emEApPJPBVnnCQMsPPED11Z7BlNpXQJt7WEAk+5PB
YOSRQP/koT/69o7BpAxqQK+wrkC85YfBAuSCQG8mxUAYLJPBCnldQM8NhUBXoqXBNqwIQQiP9EAn
8ZXBeMz1QBib4kCoLo7BJ1YAQaOuBkE2YJ7B8Ki4QAd0AEHfmJfBkArPQFpzLT8xWKvBrMGQQAn9
K7/0habBeAvTQD6T4L8vF6zBCOTIQPsx6UAbzo7BijikQHxnFj/7zafB7ozmQALi/L5oX63ByhOo
QB6s6784uajBejzUQPvQCUHKJp/B1rHTQDZ/qD8E0I7BhB+tQE6I+0AyMWHB2mKdQFPGCkHcenTB
JJHOQA5v2kDpTWjB2MSIQIOk90C7c4LBksS8QObHvEC80XnByLKoQCNr1UCQrYbBBHzXQAXCUD6D
gIbBQvOLQEWa6j8kzaTBqCakQBH5j0CHwY/B9oujQIY6JEA6uZvBJjeJQBcJcEAx1ZfB7EarQPWE
0j+irJLBDtGNQNcdt0Dno4zB6kT0QE8e5T9Sw5LBwQZ/QAS5k0B+laDB8PUHQTQO0b4LdrDBqkSV
QHsQQ8BafafBCgm6QFXjHUGIk6vBFrYZQeU470DyZpXBzHwBQXq/z0ANvIfBr/IKQZy9DUHiNaTB
IX6WQEtRAkFxgJjBfrTdQDGN0j/jfazBa+pfQOgyPb+W2qPBWAflQB3pKcBWsK3BEaC7QCunCEGy
alXBhtCRQJ7e6kCY2VnBl6qFQBGdFkGQGW/B26i4QEoUE0GL4nvB9MbqQHNV60DilG7BpvPXQEz5
xkDQaFrB7hBbQAtA50BwWH3BYJV6QNtrBUEpP4nBFQvXQLaZqEDEw3/BF92jQLdoqEBjrnLB0XT5
QGYM9bzwJ4XBdN7IQODECD8D5H3B9NjGQMfLMb9OaonBqZiJQNqiH0DJzqvBiUBXQOFtxz9HGaLB
ekepQAKOd0DSqYjBMDzDQOMumEDJVpPBrFbCQCDPO0D+zZ7B0IZXQB7NWECk/JPBpd2RQBionT9l
G4/Bw79pQNYar0DKC4jBa06DQJOhxUCkRJPBky9dQOnKhEA0raXByE7JQHGtDEH1yp/B5C6xQEVa
AkH0ypfBIB72QI9SC0FIqp/BmJDyQPAB60AlXY/BUrXPQOuXST+18avBcCCSQO2cG7/sZ6fByLHU
QFis0b/hZK3Boj7FQMD97UA6So/B8gGlQOcmKj+sX6jBDqbnQMqrur5dV67ByN+pQAbx4L/296nB
ck4FQZgM/0BXi5fBqHzUQLRDoj8rfY/BWM2tQKxO+UCiZWDBOoGbQGshCkHxwHLBAirRQFS620DC
4WjB9qmHQGLm9kCs04HBWJDAQBirvkDJ6XrBMK6oQPIy10AyvYbBlnzYQBT7ST4a14bBDkiMQO6K
8T8o/qTBfKqkQEutkEDWlY/BnMajQHfiJUC/vJvBsECJQHlfcECFfpfBmN2rQMhI0T/b9ZLBGvWN
QNm1t0D3bIzBlK30QJ5X7D/HqZLB05d7QCsKlEDOE6DBFHQIQYQ2fr4xdrHBTKSXQOeAPsDs/6jB
628nQfLr+EA1xJfBIVW5QAufFUGMA6bBcq2OQPYRA0FEHpjB22MEQRtGE0EPwaXBpWQBQShY2UB/
JInB6PPdQOLx4T/61KzBNOJiQGpQM7+7sqTBlPvmQLl7IcAdS6/B8Dm7QNdRB0FxHFTBVRiUQJjZ
5UBCVVnBfc6CQEL5FEE3dGzBt1i1QJKTE0HsEnrBvJLrQEpq70A9Fm/BQ+rcQHugx0CxrlvBX4xb
QG5Z5EDlKHzBy850QKhmBUG1SIjBtAXcQACdrUDF8IDBay6qQG1lp0Cj53PBnkP6QMbFuD08hITB
I33FQIXW+z5Con/BCZTMQBgPQ78h9InBLn+JQL/wJEBTz6vBJ0VYQJovyz+8U6LBZ6KqQGl9eUC3
fIjBTlfDQG0tmUCWV5PBFm/CQIa5PkALv57BfS9ZQPCZV0AsbpPBc5qSQPIFnT8uS4/BUGprQJRv
r0AZoofBSmmCQKGWxUDuB5PBEy9ZQEzxhEAvFKXBgkLJQOXcDUH/bJ/BxgyxQHdAA0EUiJfBNgv2
QMlEDEEAX5/BkFHyQIBS60CiWY/BzduRQCQHHr9wSafBdk/PQGAGSD+u4KvBWmLUQE9V0r/xWK3B
EwvFQErE7kA5MY/BIrKkQNDkJz8WQKjBe52pQIns4b/j5KnBvkDnQATtvL4vUK7BMzYFQazv/0BS
bJfB/p3UQFsgqD9xH4/BPg+uQIwL+UDFTGDBDECbQMb/CUFgiHLB3GbRQGin20B792jBq1uHQGab
9kCntIHBD5/AQKWwvkBd/nrBtIyoQA5g10DbuYbBoi7ZQDQYLj7BG4fBmvaLQKU68D/S3KTBjBCl
QGYqkUAKvI/BVrijQMakJUCkr5vBJmGJQKqRcEBdf5fBavyrQM2B0T8e35LBbhKOQPbvt0DvfozB
mtv0QM3C6j/325LB2FN7QGLFk0DKIaDBjmuXQCYPP8Dl+qjBNjUIQW4wgL6ygLHBakUnQWZS+UAC
tJfBzFy5QKg1F0F6gqXB5I2OQHMkBEFH0JfBmWEEQTtrFEERYqXBnDwBQQbY2EB/RInBsm9iQOQw
Nr+6jKTBc3vdQJdE4T9jx6zB8bTmQHPAIcA3Qa/Blp67QMkyB0FRD1TBuZWUQDVw5UAsIVnB+nyC
QL64FEE/F2zB6NK0QLySE0Hn63nBBajrQNp570BtOm/BvWjdQMJ8x0Cn2VvB/ZxbQDG240DE13vB
rUtzQAU/BUFoG4jBEAHcQCCtrUC4B4HB906qQDZgp0D09nPBl1D7QNMWGb1xvYXBw/nJQFV46D4i
An/Bo4jJQBIJO79PTorBlN6IQFUIJEBXsqvBbuJXQDenyT+7HaLBIM+rQO/CekB2p4jBu1jDQJsE
mkAYo5PBJFbCQOUiPkDpw57BkrNZQNZBWEB0VZPBitKSQPRomT9wY4/BA69rQIdUr0Dhu4fB3HuC
QNv7xUADE5PBJIxYQKR5hEAXDqXBgNPdQNlgB0EN5p7B0sG+QC7r/UDS45fB58UEQTv4BUGDS5zB
QEL3QODd5UCL4YvBXcSKQMBjQD2wWrLBvYHEQBj74r04S6XBe3PIQG4Ksr9W1LXB9vXKQNDI6UAk
LY7BidecQL+D5T71fajBpoygQJoQXr9VAbnBVlvaQNxmgb869avBMBYLQd2G90COxJLB5U3aQKPX
5z91/ozBFrGrQGaHAUE162HBNsCcQOxyDUGQJnbBb8vLQE+N30AnlGfBfFOIQNV4+0C+G4PBOHu5
QC5zwEABrnjBZOenQFlu10C9pIbBIt3nQCYiZz/dwYPBxP2DQDEMtT/cUqHBjAumQGIbkkCdpZDB
jFyhQF4eGED9y5rBkK2IQNwoaUBnM5fByFWxQABy1D9NPpHB0fONQIcJuEBB4YzBwpP0QNRkJEBg
D5HBVM5zQI7Fi0CcVqDBIyaPQCNFn7/rccLB4EYAQQV3wb/szajBL9UsQW0h80DsjY7BjA/UQP7r
DkFPR6bBcUSdQJYuAEEZ75nBGKkQQfyxDEF1lqHBwK4AQUYe1UAdwoTBg0dYQAd/4j6bzrTB0RHS
QGV5Ij4fpZ3BLULZQLVKBcDu9rrB0Re7QFD8DEEvAFfBvcCPQK+v9ECZ+1nBjAKFQBWiGUFhonHB
UXC4QBJDFUFatH3B0SzpQH1Q7kCY3G3B1l3TQFdNzUBPA1nBkGxYQHqW7ECMrn7BFWt8QIq6BkHT
PIrBjRjTQAFZqkDOiX3BPSafQMI0rkCmYnHBLPAEQfgMiT9y7oHBlXXUQGv0kD8ZTHnBkgDjQPn0
F76AC4bBTXZdQABKAUDnZKbBY1phQLtsUz+9q5vBBniyQDdwgEDLsonBROfAQBmonEDHr5XBYnC8
QHqVK0Cr3Z/BnQNbQMt9VUDoLJLBPWudQJ0Rgz89l43BFfFrQDLkrUDgOojBHPuBQKcSx0C4RpPB
kFlPQIz9c0CnfaTB

> <OMEGA_E>
8IEtPgB2ND5wu7c+cBO6Ps5YHz8=

> <OMEGA_NBR>
    277810

$$$$
50214101
  -OEChem-04172616093D

 64 67  0     1  0  0  0  0  0999 V2000
    8.6284    7.5502  -18.3340 C   0  0  0  0  0  0  0  0  0  0  0  0
    8.3061    7.8870  -19.6576 C   0  0  0  0  0  0  0  0  0  0  0  0
    7.6141    7.2109  -17.4259 C   0  0  0  0  0  0  0  0  0  0  0  0
    5.9380    7.5972  -19.1595 C   0  0  0  0  0  0  0  0  0  0  0  0
    6.4240    0.8102  -21.5691 C   0  0  0  0  0  0  0  0  0  0  0  0
    4.6610   -0.6799  -20.7699 C   0  0  0  0  0  0  0  0  0  0  0  0
    6.7281   -1.6081  -21.6763 C   0  0  0  0  0  0  0  0  0  0  0  0
    6.9671    7.8714  -20.0981 C   0  0  0  0  0  0  0  0  0  0  0  0
    6.2608    7.2592  -17.8233 C   0  0  0  0  0  0  0  0  0  0  0  0
    5.1497    0.6256  -20.9883 C   0  0  0  0  0  0  0  0  0  0  0  0
    7.2152   -0.3055  -21.9032 C   0  0  0  0  0  0  0  0  0  0  0  0
    5.4482   -1.7946  -21.1168 C   0  0  0  0  0  0  0  0  0  0  0  0
    6.8283    1.4625  -18.0475 C   0  0  0  0  0  0  0  0  0  0  0  0
    4.5238    7.8310  -15.9436 C   0  0  0  0  0  0  0  0  0  0  0  0
    5.3946    6.7015  -15.3641 C   0  0  0  0  0  0  0  0  0  0  0  0
    5.1452   10.2310  -21.2594 C   0  0  0  0  0  0  0  0  0  0  0  0
    6.6449   10.4568  -21.5809 C   0  0  0  0  0  0  0  0  0  0  0  0
    5.2490    7.9345  -22.0939 C   0  0  0  0  0  0  0  0  0  0  0  0
    6.7258    8.0171  -21.6103 C   0  0  1  0  0  0  0  0  0  0  0  0
    5.1545    6.8009  -16.8823 C   0  0  0  0  0  0  0  0  0  0  0  0
    7.1188    0.3317  -17.0656 C   0  0  0  0  0  0  0  0  0  0  0  0
    4.3337    1.8236  -20.5431 C   0  0  0  0  0  0  0  0  0  0  0  0
    4.9965    4.5486  -17.8449 C   0  0  0  0  0  0  0  0  0  0  0  0
    5.0934    2.6348  -19.4650 C   0  0  1  0  0  0  0  0  0  0  0  0
    4.2124    3.7611  -18.9030 C   0  0  2  0  0  0  0  0  0  0  0  0
    5.5037    1.7353  -18.3716 N   0  0  0  0  0  0  0  0  0  0  0  0
    4.2733    5.7840  -17.4797 N   0  3  0  0  0  0  0  0  0  0  0  0
    7.7583    1.9999  -18.6401 O   0  0  0  0  0  0  0  0  0  0  0  0
    4.5882    9.2294  -22.1377 O   0  0  0  0  0  0  0  0  0  0  0  0
    7.2893    9.2589  -22.0907 O   0  0  0  0  0  0  0  0  0  0  0  0
    3.8538    4.6314  -19.9764 O   0  0  0  0  0  0  0  0  0  0  0  0
    8.4470   -0.1264  -22.4313 F   0  0  0  0  0  0  0  0  0  0  0  0
    4.9809   -3.0443  -20.8981 F   0  0  0  0  0  0  0  0  0  0  0  0
    9.6598    7.5522  -18.0136 H   0  0  0  0  0  0  0  0  0  0  0  0
    9.0920    8.1609  -20.3459 H   0  0  0  0  0  0  0  0  0  0  0  0
    7.8697    6.9120  -16.4201 H   0  0  0  0  0  0  0  0  0  0  0  0
    4.9037    7.6467  -19.4663 H   0  0  0  0  0  0  0  0  0  0  0  0
    6.7918    1.8081  -21.7571 H   0  0  0  0  0  0  0  0  0  0  0  0
    3.6825   -0.8243  -20.3362 H   0  0  0  0  0  0  0  0  0  0  0  0
    7.3357   -2.4637  -21.9312 H   0  0  0  0  0  0  0  0  0  0  0  0
    3.4367    7.8279  -15.7753 H   0  0  0  0  0  0  0  0  0  0  0  0
    4.8928    8.8673  -15.9376 H   0  0  0  0  0  0  0  0  0  0  0  0
    6.3867    6.9292  -14.9469 H   0  0  0  0  0  0  0  0  0  0  0  0
    4.9306    5.8898  -14.7846 H   0  0  0  0  0  0  0  0  0  0  0  0
    5.0445    9.8954  -20.2167 H   0  0  0  0  0  0  0  0  0  0  0  0
    4.5991   11.1762  -21.3948 H   0  0  0  0  0  0  0  0  0  0  0  0
    6.7282   11.2515  -22.3369 H   0  0  0  0  0  0  0  0  0  0  0  0
    7.1599   10.7705  -20.6609 H   0  0  0  0  0  0  0  0  0  0  0  0
    5.2357    7.5007  -23.1047 H   0  0  0  0  0  0  0  0  0  0  0  0
    4.6920    7.2806  -21.4069 H   0  0  0  0  0  0  0  0  0  0  0  0
    7.2629    7.1908  -22.0988 H   0  0  0  0  0  0  0  0  0  0  0  0
    8.2027    0.1475  -17.0280 H   0  0  0  0  0  0  0  0  0  0  0  0
    6.7600    0.6139  -16.0648 H   0  0  0  0  0  0  0  0  0  0  0  0
    6.6031   -0.5821  -17.3958 H   0  0  0  0  0  0  0  0  0  0  0  0
    4.1394    2.4706  -21.4113 H   0  0  0  0  0  0  0  0  0  0  0  0
    3.3781    1.4741  -20.1251 H   0  0  0  0  0  0  0  0  0  0  0  0
    5.1226    3.9241  -16.9482 H   0  0  0  0  0  0  0  0  0  0  0  0
    5.9847    4.8135  -18.2491 H   0  0  0  0  0  0  0  0  0  0  0  0
    5.9855    3.0822  -19.9275 H   0  0  0  0  0  0  0  0  0  0  0  0
    3.3160    3.3233  -18.4394 H   0  0  0  0  0  0  0  0  0  0  0  0
    4.7870    1.2951  -17.8308 H   0  0  0  0  0  0  0  0  0  0  0  0
    3.5578    5.5530  -16.8203 H   0  0  0  0  0  0  0  0  0  0  0  0
    3.8559    6.1663  -18.3041 H   0  0  0  0  0  0  0  0  0  0  0  0
    3.3683    4.1437  -20.6314 H   0  0  0  0  0  0  0  0  0  0  0  0
  1  2  1  0  0  0  0
  1  3  2  0  0  0  0
  2  8  2  0  0  0  0
  3  9  1  0  0  0  0
  4  8  1  0  0  0  0
  4  9  2  0  0  0  0
  5 10  1  0  0  0  0
  5 11  2  0  0  0  0
  6 10  2  0  0  0  0
  6 12  1  0  0  0  0
  7 11  1  0  0  0  0
  7 12  2  0  0  0  0
  8 19  1  0  0  0  0
  9 20  1  0  0  0  0
 10 22  1  0  0  0  0
 11 32  1  0  0  0  0
 12 33  1  0  0  0  0
 13 21  1  0  0  0  0
 13 26  1  0  0  0  0
 13 28  2  0  0  0  0
 14 15  1  0  0  0  0
 14 20  1  0  0  0  0
 15 20  1  0  0  0  0
 16 17  1  0  0  0  0
 16 29  1  0  0  0  0
 17 30  1  0  0  0  0
 18 19  1  0  0  0  0
 18 29  1  0  0  0  0
 19 30  1  0  0  0  0
 20 27  1  0  0  0  0
 22 24  1  0  0  0  0
 23 25  1  0  0  0  0
 23 27  1  0  0  0  0
 24 25  1  0  0  0  0
 24 26  1  0  0  0  0
 25 31  1  0  0  0  0
  1 34  1  0  0  0  0
  2 35  1  0  0  0  0
  3 36  1  0  0  0  0
  4 37  1  0  0  0  0
  5 38  1  0  0  0  0
  6 39  1  0  0  0  0
  7 40  1  0  0  0  0
 14 41  1  0  0  0  0
 14 42  1  0  0  0  0
 15 43  1  0  0  0  0
 15 44  1  0  0  0  0
 16 45  1  0  0  0  0
 16 46  1  0  0  0  0
 17 47  1  0  0  0  0
 17 48  1  0  0  0  0
 18 49  1  0  0  0  0
 18 50  1  0  0  0  0
 19 51  1  0  0  0  0
 21 52  1  0  0  0  0
 21 53  1  0  0  0  0
 21 54  1  0  0  0  0
 22 55  1  0  0  0  0
 22 56  1  0  0  0  0
 23 57  1  0  0  0  0
 23 58  1  0  0  0  0
 24 59  1  0  0  0  0
 25 60  1  0  0  0  0
 26 61  1  0  0  0  0
 27 62  1  0  0  0  0
 27 63  1  0  0  0  0
 31 64  1  0  0  0  0
M  CHG  1  27   1
M  END
> <OMEGA_C>
+g0KQVyb8UAirJLBwuUEQelh/EDKQp3BG6fzQAzA5kBQaIvBGwS+QG8c80CfRpnBmJHNQNBoTz+R
jazBCCeVQNgQLr+wKKbBPkzXQMzVzb8Raa3BTPLeQIji+0DpyKDByljIQK1L6EAflo7BGsqkQB8m
ID8S6KfB1+LmQEJvnL7WOa/Bi1euQH215b8376jBC4HaQIMzuz9aYZDB7cKQQLyX+kDVGH/BvaCs
QAZz1kA+03XBuKWkQC6yI0FYE6rBaaPUQD9PJ0HDpazB9PenQJ/n/UBmwLDBsjnXQBpGAEHN4azB
Y/GkQA2h2UADD4fBns3jQK7PqT5phojBo62KQM1r6T9bWKTBg+OfQECOkUBpwo7BDP2iQHSgKEBi
uJvBwcuGQH21cEBMOZfBaB6wQCAf3j8g+ZLBnL6IQCUWuUBn1ovBu0P4QCL7/z/UHpXBdNKSQKGr
E0EEGrHBGkLpQIskFEHMubDBz6R2QBM0lECYz5/BGScHQUJ7Ab5cc7PBsWOfQObVQsA8L6fBdI4a
QbOr8UDhG5DBv3gRQd+SAkFuxKLB9dT7QEQv3UBaXIPBDOucQASy9EAKu5vBiVbZQJVv5z9+Dq7B
4K1rQEIHU7+bsKLBPb7qQBSuHcAkc6/BkvNbQFR++kC2Z3zBw5GcQFTgDUF1AH/Bdl/MQM+73UBl
Jm/BfMedQHx5vECmjWzBVGyhQKhTHkHiu6HBbyuTQJ7RMkGmKKvBpE3XQE0GNEELsrLBPx7lQB5U
LEGgSaXBJ4unQL0F8EBr1rjBlCSWQGf66EBUQavBDmroQPca5kBNyrDBJj4DQQMQFz5GOYjBG1LY
QFsrHT/QhIDBYUzTQGkDFb+yKovB7XWEQAQeHkBOSqvBGTNYQMywvD85AKHBAuyjQLMke0DrlYfB
gYK/QCIImkA6/pHBgYm/QKFCRUCYa5/BoDlUQMmwVEDsg5PB4i6ZQObGpT94pY7BNbNjQHOysUD3
j4bB4sd2QDdSxUDQbpLB85JXQCaZhEACDaXBuU0LQR5f6kDqXZPBBhQGQTcfAEGv15zB8CL2QAPc
3UB1NYzBHZfAQHgg/UB99JfBXfjMQOt0ST8BPa3BY0aWQKVPM78B76XBjDfXQM7X0L+Oz63BqhLh
QAeSBEESN5/BswDLQNem50CXdo7BUhGlQEWvGj+BIajBsQHmQHc2qb4uD7DBvUSvQNVw6L8AzKjB
bM7ZQHJRvj/kB5DBQLqSQBEP+kA/cX/BBdKuQMji1UA3KnbBoCmMQAbQKUHR767BAYiyQDAwNUGe
36nBL7ayQJmLCEEmka/B0hPWQH/iEkFXb6jBnTmnQEch2UA+K4fB4uLiQAy+uz4vEIjBGvOKQOb7
5j//l6TBReahQMAhkkBpd4/B6RajQFEdJ0BT7JvBCg6HQOorb0CUUJfBmr6vQO442j+tLpPBr+CK
QLdFuUDWMozBgsP3QAOeBEDNTZTBeUScQDm0GEGFiLXBtjfIQHlFJkE1JqPBaOhwQIY0kkAY2J/B
pBEGQXVgH75V+rTB2fKgQIkhRMCFs6bB9tAbQTsl40CYkpHB+I4SQVQWBUE5R6LBpET+QFC+zEC/
+4TBL5WfQOhCAkHtuZnBaUrYQDJU5D9F+67BZXxvQI3vV7/6DKLBRoHqQNE1H8BL7q/BU9lfQAjL
+UBjz3zBmF+eQE+jDUHcVX/BgIPOQGJI3UCTdW/BkhCgQM7Mu0Aa72zBI7tuQMxCI0FLo6jBOrBz
QKcoNUFV3bPBh1LIQDXdOkHILLDBCWunQBviQkFaGKXBna/BQBJ0+kCdK7XBKN2bQJfl/0Bdb6rB
JrfyQGbhFUHcU63BC9YCQTgucD72OofBsAjVQORwID/OPoDBY33UQLm1Eb+U94rBLvmEQL4HHUAx
iqvBPIFYQHSAuj8TTqHBiL+oQJJzfUC5U4jBryXAQHU3m0AoWpPBts2/QAOrQ0BbjZ/BpatXQKK8
UkB7A5PBnJyYQKWrmz9LRo/BWxJoQAs5sUA/+IbBZe16QExoxkBUrZLBDLNPQJGtgUD3r6TB/pML
QeeT50B6WZLBf/gGQT0Y/UAw9ZvBw8r1QNbT20BpX4vBRObBQO0o+0BjkpfBNkaTQDiiPr95FabB
duTMQJyXNz/tN6zB5DDVQK5N2r9aMq3B/TnjQOI/A0GOoJ7B2xDLQH0M5kCp943BtsujQNadDT8r
sKfBRturQDSO778b5KjBP6nlQKJi0r7e4K7B+PvbQGtewj8cy5DBb2uRQMc0+kABln/BfkKsQN3W
1UB8l3XBu8iTQD+RKkEmZq/BVAS6QDbVNEH/sKnBFiK2QDwfCEGtLa/BVp3ZQFC6EUEe3afBpUGm
QAF02ECi8IbBgqvmQNrVBj/h6YfB3NOJQNXa4T+oTqTB+B2hQAQJkkDWjI/BY6yiQP9nJ0D5C5zB
CI+GQJB+b0BfgZfB5zixQNT/3z8XOZPBA/yJQIjuuED3JYzBTcr4QIZuCkAoBZXBPEKjQJC3GEHZ
m7XBjEbMQLNLJUHxraLBeT1xQChwkkAfGKDBtbqbQFtDR8BbeKfBFqIGQSiBgL7bCrPBQvIbQdIM
4EBUUZDB08gTQWYvA0E5RaHBROj8QLD/ykDzCYTB8SuhQMxlAUFOlpnBtX1nQHq3X78ns6LBQFHZ
QAPE2j9qpK3BTj/oQFWGJMAtNa/BmO9cQDOi+kCbgn3BFaadQFSbDUGPjH/BcaTLQMrj3EA1cW7B
J3acQFZPvEBBZ2zBl8B4QMLuJEEWdqnBi4iEQOFZNkFZtbTBDvjRQE3uOUFhna/BRjyvQK3JQkFA
DqXBx1DEQCDX90C/b7TBAEGdQFa5AEHbK6rBI7z2QPpdFEHKoKzB6rAEQVgECD8/dIbB6cfVQMnU
UD8OjIDB04rcQEz59r6/VYrBSO6CQNVZGEAnZKvB2i1XQLKDtj8vtaDBq/enQBeJfEAbeYjBkl6/
QP5zm0A6YpPBIY6+QBkkREBrCqDBZQtWQO86U0BoUJPBVv+aQAa5pj9It47Brg9mQKGEsECB/IbB
42p5QA6CxkBwlpLBBGRQQA4AgkCQ/qTBPRQLQac/5kB7DpLBATQGQf7i/kBuLJvBk0X1QDaI2UCo
CovBy/TAQMHy/EAXZJbB8Q/HQOxSND/6F63BI/OVQJTkUL/6+qPBjZrVQNOF2L9I4KzBU4PhQOsQ
BUE5Y53B7bHKQLln5UBkRY3BKX+hQGru/D7tD6fBvzXhQHz4xL7E6q/BceqvQI0y9L/m76bB4OPc
QNQP0T8MlJDBZjqQQCrU+UAZUn/BG3WqQKy01UCaqHTBQ/2wQCqOIUFwu7nBi9KbQGUWJkEq3a7B
rfLqQMHWDkHP87DBA8TWQJW8FEEAIqbBdtOlQGeG10Cue4bBmSXpQD7oKj/voofBDviGQN1L1z9e
eaPBmXKhQPKZkkCB34/BxJChQMYPJkAqBZzBtWqGQCaJcED1tpfBnMexQL+s5T8y/JLB4duJQDWH
uEC0AozB3//4QDoYCUBmFpbBkt3eQM1LH0EwdLjB3taoQMXDFUGXkqfB5rRyQNeHkkD+eKDBMdQC
QaBAMb6Ye7XBFfukQOxmSsDh+KPBIW4bQX4c3UBecpDB19kSQZ+WBEEGeKDB9J78QLfVxkDoAoTB
BhegQFWTAkF1GpjBqcHPQBgR2j8cjK/BS3ZyQDwwe7/4W5/BcZfpQO7GIcDBGK/BhFhaQPFh+kAY
wH3BXIScQCRoDUETZn/BdHLJQJXv3ECbIm3BWhqaQD+BvEChfGvBX8yjQDurEkHFEr3BRlGqQA7m
LkEJOb/BuxmmQArTNUFe4KvBcpdxQHTnJUE8u6/BZv8GQTYqDkHQNLDBfOLeQIpv/kBpqbPBnbzi
QD2cJEEsyqPB0RMGQY+eDj+RY4fBr8HdQGzxhz+w3H/B7lraQHMWoL42JInBy515QDdxEECPiKrB
HSpVQOAxqT8eJJ/BjPWpQO7NfEDJ/IjBt8u+QM02nUCL8ZPB5J28QCpjQEDSlqDB8tRUQGaQVkDy
e5PBmmOcQMxDqz9kSY7BnUZmQLrgrkCC64bBZYJ4QC0Nx0CJRpLBbUBRQDEUgkAvTqXBEiUJQVCy
70CYE5PBzGYCQffPAEFI3JzBR83zQGIQ4kABhYvBu4K6QFfu+EAYdpfBLQeQQFWQPr8MjaXBcszL
QKmTGj+fDqzBd3/QQHBt6r8UU6zBwIbYQMq8AkHgI5/BsNDHQAVv50DVtI3BfF2iQHJUBT//lafB
v/mmQIaJ9b+A/KfBlvXiQGEMEr/PUK7B4wvcQEZXzD9tjpDBQmOQQDuG90CU3H3BLFatQNgV1EAQ
i3TBfQT3QObQL0GV86zB01H1QEgkH0HR9rXB0bKwQDipIEE+lajBj5vHQI+dCkHky6nB05WlQD8E
10AuWIbB0z3mQEcoDj+oAojBWyaKQHqA5D+3oaTBPCmiQOa6kUBIoY/BoqWjQI95KEBXd5zBVx+I
QLrGcUAQ/ZfBX5yxQHbI4j+WjpPBB+CJQPXStkDWh4vBiV/5QJZ5CUBDXJXBK1HNQN3dMkFgKqjB
vWjpQPOACkEtwbHBanB4QAyvlEAzjaDBXzyVQHRHSMDFHabBEIgFQRJ++b7GUbLBKQIaQY9r7EDo
YJHB9hgOQXw2BkFwnqLBWP/9QDGY00BLGYTBNMaYQLjG/EAwEpnBSMFgQELzT7+5H6LBuLrZQALi
yD/Rvq3BOi3iQM3VLsCxH67BtDZbQEx39kC7NHvBiUGbQJCADEFG0n3B4N7MQFRC3EAd4G3BsTif
QIC4uUCSQmvB8cEGQYlTKkHcw6bBABYBQV8kP0FjQrDBqZXdQNsoJEFy9bvB0YEKQX73HUFBv7nB
bhWbQOHIIkFkcq/B6+WdQOxdIEENJaHBNP2uQGBO/kA2Y6zBfJEEQQHK4D4EU4fBfhnZQLFHYj8T
SIDBtNTXQOTv0L6iQorBwcSEQEFuGEDZ5qvBDUxWQMkNwT/sGaHBR96pQEmNeEC/7IjB0fi/QD4o
nUARVpPB08G/QH7jQ0BBgaDB4BVXQIyhVkCrIZTBuCObQMNGpD+PaY/BV/doQPRorEBILobBjDZ1
QIOxxECQpZHBtD9YQDAghUCSsaXB

> <OMEGA_E>
FG0GP0RjCD/csAk/qEgNP7bHBT8=

> <OMEGA_NBR>
    283250

$$$$
50214104
  -OEChem-04172616093D

 63 66  0     1  0  0  0  0  0999 V2000
    8.6506    7.2245  -18.4634 C   0  0  0  0  0  0  0  0  0  0  0  0
    8.3705    8.0914  -19.5339 C   0  0  0  0  0  0  0  0  0  0  0  0
    7.6214    6.8213  -17.5963 C   0  0  0  0  0  0  0  0  0  0  0  0
    6.0141    8.1181  -18.8982 C   0  0  0  0  0  0  0  0  0  0  0  0
    6.4298    0.7846  -21.5705 C   0  0  0  0  0  0  0  0  0  0  0  0
    4.6754   -0.7001  -20.7427 C   0  0  0  0  0  0  0  0  0  0  0  0
    6.7391   -1.6343  -21.6499 C   0  0  0  0  0  0  0  0  0  0  0  0
    7.0603    8.5687  -19.7418 C   0  0  0  0  0  0  0  0  0  0  0  0
    6.3018    7.2671  -17.8125 C   0  0  0  0  0  0  0  0  0  0  0  0
    5.1583    0.6038  -20.9821 C   0  0  0  0  0  0  0  0  0  0  0  0
    7.2226   -0.3334  -21.8939 C   0  0  0  0  0  0  0  0  0  0  0  0
    5.4630   -1.8169  -21.0809 C   0  0  0  0  0  0  0  0  0  0  0  0
    6.8215    1.4327  -18.0497 C   0  0  0  0  0  0  0  0  0  0  0  0
    5.3908    8.3966  -22.3305 C   0  0  0  0  0  0  0  0  0  0  0  0
    6.8172    8.8907  -22.2272 C   0  0  0  0  0  0  0  0  0  0  0  0
    4.5412    7.8165  -15.9663 C   0  0  0  0  0  0  0  0  0  0  0  0
    5.4331    6.6885  -15.3990 C   0  0  0  0  0  0  0  0  0  0  0  0
    4.5905    9.4857  -21.6012 C   0  0  0  0  0  0  0  0  0  0  0  0
    6.8232    9.5769  -20.8633 C   0  0  1  0  0  0  0  0  0  0  0  0
    5.1853    6.8002  -16.9070 C   0  0  0  0  0  0  0  0  0  0  0  0
    7.0966    0.3097  -17.0547 C   0  0  0  0  0  0  0  0  0  0  0  0
    4.3411    1.8048  -20.5470 C   0  0  0  0  0  0  0  0  0  0  0  0
    5.0222    4.5589  -17.8880 C   0  0  0  0  0  0  0  0  0  0  0  0
    5.0955    2.6189  -19.4676 C   0  0  1  0  0  0  0  0  0  0  0  0
    4.2114    3.7402  -18.9002 C   0  0  2  0  0  0  0  0  0  0  0  0
    5.5005    1.7229  -18.3702 N   0  0  0  0  0  0  0  0  0  0  0  0
    4.3083    5.8014  -17.5346 N   0  3  0  0  0  0  0  0  0  0  0  0
    7.7570    1.9441  -18.6562 O   0  0  0  0  0  0  0  0  0  0  0  0
    5.5255   10.2113  -20.7541 O   0  0  0  0  0  0  0  0  0  0  0  0
    3.7933    4.5835  -19.9731 O   0  0  0  0  0  0  0  0  0  0  0  0
    8.4527   -0.1583  -22.4275 F   0  0  0  0  0  0  0  0  0  0  0  0
    4.9992   -3.0649  -20.8458 F   0  0  0  0  0  0  0  0  0  0  0  0
    9.6581    6.8680  -18.3073 H   0  0  0  0  0  0  0  0  0  0  0  0
    9.1639    8.3937  -20.2013 H   0  0  0  0  0  0  0  0  0  0  0  0
    7.8414    6.1694  -16.7638 H   0  0  0  0  0  0  0  0  0  0  0  0
    4.9967    8.4269  -19.0876 H   0  0  0  0  0  0  0  0  0  0  0  0
    6.7941    1.7810  -21.7726 H   0  0  0  0  0  0  0  0  0  0  0  0
    3.7006   -0.8416  -20.2997 H   0  0  0  0  0  0  0  0  0  0  0  0
    7.3468   -2.4917  -21.8991 H   0  0  0  0  0  0  0  0  0  0  0  0
    5.0771    8.3131  -23.3815 H   0  0  0  0  0  0  0  0  0  0  0  0
    5.2739    7.4218  -21.8344 H   0  0  0  0  0  0  0  0  0  0  0  0
    7.5319    8.0550  -22.2563 H   0  0  0  0  0  0  0  0  0  0  0  0
    7.0521    9.6022  -23.0326 H   0  0  0  0  0  0  0  0  0  0  0  0
    3.4546    7.7975  -15.7959 H   0  0  0  0  0  0  0  0  0  0  0  0
    4.8961    8.8576  -15.9542 H   0  0  0  0  0  0  0  0  0  0  0  0
    6.4240    6.9251  -14.9840 H   0  0  0  0  0  0  0  0  0  0  0  0
    4.9826    5.8649  -14.8257 H   0  0  0  0  0  0  0  0  0  0  0  0
    4.1335   10.1702  -22.3310 H   0  0  0  0  0  0  0  0  0  0  0  0
    3.8027    9.0265  -20.9860 H   0  0  0  0  0  0  0  0  0  0  0  0
    7.6206   10.3343  -20.8432 H   0  0  0  0  0  0  0  0  0  0  0  0
    8.1768    0.1046  -17.0219 H   0  0  0  0  0  0  0  0  0  0  0  0
    6.7504    0.6125  -16.0554 H   0  0  0  0  0  0  0  0  0  0  0  0
    6.5605   -0.5980  -17.3690 H   0  0  0  0  0  0  0  0  0  0  0  0
    4.1532    2.4486  -21.4189 H   0  0  0  0  0  0  0  0  0  0  0  0
    3.3825    1.4584  -20.1335 H   0  0  0  0  0  0  0  0  0  0  0  0
    5.1764    3.9594  -16.9787 H   0  0  0  0  0  0  0  0  0  0  0  0
    5.9972    4.8149  -18.3282 H   0  0  0  0  0  0  0  0  0  0  0  0
    5.9883    3.0689  -19.9261 H   0  0  0  0  0  0  0  0  0  0  0  0
    3.3426    3.2948  -18.3935 H   0  0  0  0  0  0  0  0  0  0  0  0
    4.7804    1.2973  -17.8221 H   0  0  0  0  0  0  0  0  0  0  0  0
    3.5715    5.5767  -16.8969 H   0  0  0  0  0  0  0  0  0  0  0  0
    3.9196    6.1951  -18.3676 H   0  0  0  0  0  0  0  0  0  0  0  0
    3.2913    4.0749  -20.5991 H   0  0  0  0  0  0  0  0  0  0  0  0
  1  2  1  0  0  0  0
  1  3  2  0  0  0  0
  2  8  2  0  0  0  0
  3  9  1  0  0  0  0
  4  8  1  0  0  0  0
  4  9  2  0  0  0  0
  5 10  1  0  0  0  0
  5 11  2  0  0  0  0
  6 10  2  0  0  0  0
  6 12  1  0  0  0  0
  7 11  1  0  0  0  0
  7 12  2  0  0  0  0
  8 19  1  0  0  0  0
  9 20  1  0  0  0  0
 10 22  1  0  0  0  0
 11 31  1  0  0  0  0
 12 32  1  0  0  0  0
 13 21  1  0  0  0  0
 13 26  1  0  0  0  0
 13 28  2  0  0  0  0
 14 15  1  0  0  0  0
 14 18  1  0  0  0  0
 15 19  1  0  0  0  0
 16 17  1  0  0  0  0
 16 20  1  0  0  0  0
 17 20  1  0  0  0  0
 18 29  1  0  0  0  0
 19 29  1  0  0  0  0
 20 27  1  0  0  0  0
 22 24  1  0  0  0  0
 23 25  1  0  0  0  0
 23 27  1  0  0  0  0
 24 25  1  0  0  0  0
 24 26  1  0  0  0  0
 25 30  1  0  0  0  0
  1 33  1  0  0  0  0
  2 34  1  0  0  0  0
  3 35  1  0  0  0  0
  4 36  1  0  0  0  0
  5 37  1  0  0  0  0
  6 38  1  0  0  0  0
  7 39  1  0  0  0  0
 14 40  1  0  0  0  0
 14 41  1  0  0  0  0
 15 42  1  0  0  0  0
 15 43  1  0  0  0  0
 16 44  1  0  0  0  0
 16 45  1  0  0  0  0
 17 46  1  0  0  0  0
 17 47  1  0  0  0  0
 18 48  1  0  0  0  0
 18 49  1  0  0  0  0
 19 50  1  0  0  0  0
 21 51  1  0  0  0  0
 21 52  1  0  0  0  0
 21 53  1  0  0  0  0
 22 54  1  0  0  0  0
 22 55  1  0  0  0  0
 23 56  1  0  0  0  0
 23 57  1  0  0  0  0
 24 58  1  0  0  0  0
 25 59  1  0  0  0  0
 26 60  1  0  0  0  0
 27 61  1  0  0  0  0
 27 62  1  0  0  0  0
 30 63  1  0  0  0  0
M  CHG  1  27   1
M  END
> <OMEGA_C>
D2kKQfQu50D6tJPBk+0FQUp2AUFVRZzB4+LzQOZH2kBKxYzBgXPAQKDjAUGPL5fBq8DNQNfcSD93
kKzBeZyVQGg5M78f8aXBBqfXQDcx0b//Mq3BM+7hQDkZCUEe753BJajJQCuM6EAUgI7BuBClQOKT
Gj9r26fBlB/nQAe5qr6wJq/B/tCuQE6Q6L+2pajB1EnaQCZjtz/hZZDBuYGsQElYBkHWpLLBpCba
QGhADkFI0bHBh1GRQIUg+kDEdX/B7dutQHMI1kA2YnbBN+WSQGfFF0Exz6zBCljaQNI6GUEY6KbB
zO2lQIyb2UBxQYfBIRfjQL+Tnj4DcIjBdeqKQN4C5z86YKTBlLWgQLzikUCkGo/BVw6jQKybJ0CO
vZvBxsOGQMNfb0CzM5fByAOwQH6H3D8V9pLBRd2JQK2kuUDcRozBrzn4QOXY+D/4P5XBzdCwQIph
I0FbCKbBUMVyQMmrkkDmyJ/BNj4HQYIfIr57a7PBr/mfQDYnRMA8xKbBqIcaQQ3H20BXdZLBgp8S
QaZMBkE0nKHBv+z6QCBsxUA6HIbBteSfQJvUBkFds5jBNGnZQCn54z80Lq7BBNdsQHRwV7/AZaLB
NRnrQE53H8BFMa/BiXeiQIUCBUFJDbvBgsOoQAJ/7UDkrK7BFAXxQE/hAEHpDLLBbKrhQLKiGUGv
QrjB4RhdQLaE+UDlu3zBlKycQK64DUF/RH/BO5HNQC6a3UB7vm/BF3GfQIitu0DiNW3B7EWEQEu5
IkHQpbLB1l5zQGJsEEFM46fBPdzzQG9ZJUHPvqbBHdQCQUNH1j3ELIjBhQPYQPjKHD+FcYDB9e/R
QL4TGb+384rBseaEQDu1HEDhWavBInpYQMesuj9hEaHBzaSlQG1mfUB41IfBQOm/QJcTmkAZoJLB
jaC/QNpoREC9aJ/Bq+1VQJPdUkDTJZPBS/mYQEINpj+Rk47Bu5JkQDl0skDgLIfBWtt6QEU+xkDm
8JLB4aRSQGBlgkDmyqTBHcIIQb/V8ECnRZTB4toBQd+a+0Dio57Bm3XzQAaB5kAwUYzB1KO5QF87
80AcBpnBpKvOQDozSj9YhKzBss6UQPkBKL8QSqbBKwXXQNxP0b/uEK3BaX7XQAZn/EBTIaHBSVDH
QE1F6EA0qY7BEVelQDA6Iz/7GajBzZDnQAi+sL7i6q7BfpCtQC4q5b/7zqjBiD3ZQHR/uT8yUZDB
xUK5QF4gJkGLHq3BkdWiQOSdEEFIwq3BEEiSQKc9+kApcX7BP56vQB/f1kD5e3XBpJ/mQIxuIUEj
VbHBbRbIQGjVAEGLsazBSN6lQK0f2UAFxYbBQA7hQPcaoj5vYojBULCLQEzl7T8px6TBEcmgQCp6
kUDo1I7BPYmjQFzLKUBT+JvBHp2HQAVmckBXepfBaVGvQN6w3j+nNJPBLlmJQK0fuEC+UovBs8P3
QBgc/D/03pTB8anoQF+KCkFKRbPBQtV5QD2hlUAGAaDB98EHQbCESb635rLB17SdQLnTQcAjB6fB
/qIZQUSB8EAPbJLBSHoNQaanAUGZvKTBVx3+QMw83UBnboTBWdSXQCmg9EB/x5rBPTHbQEyU4z++
Da7BxUZqQFPeRr+f96LBYh3qQLVYIMAb6a7BawypQDUJMkGhLLLBTV+6QH3uK0EB0aTB9sGLQAKp
DkGuL6fB/kiSQC6oDkGwdrXB9IFfQPWX+UCwCHvBFnOdQD/ODUE23n7Bw8DPQKXy3kApi2/Bpw6i
QBzuvECjtWvBRF/sQHlCKkEEz7jBgqn+QHwbJkElWKvBI4++QE5W4kDL66/B4soBQQkC6T2t2IfB
IODUQEibGz+zdoDBXlXQQNHEFr+mHovBqeiGQDJ9IEAMyKvBBdVYQLZpxD81rqHBn62lQBqWeEA1
6YfBewTAQA4Tm0ADG5LBcaXAQA7FRUBJeJ/B1h5VQHbhVkCa5JPBmbmXQDe4pj/5FY/BBftnQH6g
r0DrwYXBiix0QHGRxEANoZHBybtaQAaFhkDCVKXBwpEHQQwn7EDd4ZXBdkv/QOpBAkGegp7BKDDz
QPpi3kCpw43BaYm3QAAyAEEfEpfBGkzPQGgoOT+RWqzB7RCTQK7HJL+uY6bBBCfVQDDr2r8IVqzB
vTLTQDPCB0Hj/p7BZFPHQFuf6EB+c47B2DalQK9nID9nSqjBslHnQHBW477WSa7BG/OqQByh57++
cqjBWi3YQA5otj9ASpDBUsfpQDTVD0E3qrfBYCbfQEiPIEEwJ6/BrXKTQDPQ+EC4AX7BalGyQLZM
1kAURnXB1iTHQHX+/EC8UbbB+ye/QM4bFUFM56fBdXSnQMkO2EDbjYbBRoneQNyktT4lvofBtJuM
QPm88D8yRqXBUsiiQFeskUARTI/BfjekQDbAKUD9TJzBBriIQIf3ckB0yZfB6rquQLYc3T9ogZPB
bBqLQABLt0AvQYvBEHP3QBPg8z+ozpTBjtCnQLJUB0EZEa/BQtF6QNDdlUApRaDBoQEIQeT2sr6m
47HBOI2ZQOSQQcB8i6bBhFoYQSIS5EAQgpXBiF4KQYVtB0H7xaTBlTP/QEgmzEBeEYfByrOVQDCN
A0HjmpfBww7dQOiy2D8/+q3B6J5lQC+7OL/FWaPBQZTnQK23JsDi0a3BC07oQEvnFkERt7/BCeoE
QZYUCUHJTrbBkPr7QEkyJUHbqqrBpq/QQNXbLkEFy7LBsTNiQB4u90BAPnrBpZWdQJc/DUEXqX7B
o3XSQPdf30ABt2/B1/mlQOcOvEArTGvBr0e4QHGi9UDFFL7BDC7VQJOv30DO77LB3IapQH4EIUFh
VaTBz3QAQTXFGj6Mx4bBWz/RQBFxNT8SGoDBKQbOQPZQEb9ULorBDqaJQOPPIUBoWazBzw9ZQBKQ
zD9KcaLBR5OpQPTvd0CclIjBbxPBQFR2nEBK4JLBmNnBQCfnRECAn5/BTtBXQDLmV0DeB5TB/oeW
QHEqpT8unI/B0/RsQLOGrUCBpYXBqfZ1QK1zxED7VJHBzZxaQAfHhkBZf6XB5CLJQHZ8CUFkTaDB
vuX1QJ9GB0FHZZ/BYU6uQCFpAUHLLJjBSH/sQBxE50COvI7BVvbMQLhkLz+vlKzB4T6RQA4zJL8B
w6XBFE3QQOcy4L/hFK3Bn9ADQUFX+kBqQJbBVlbAQEMH7UDhW4/BjxOkQOpdHT/o0KfB9CTjQLew
/r44JK/BvjmnQN1J6b+8dqjBornXQHuSoz+WEpDBOaA2QUL+FUHaMI/BE4gnQVxbEEGnP5jBG+qS
QLyy9UCK/nvBzG21QH8Q1EDHrnbBSaIpQY68D0GHZYXB26gbQYjN+EDXDJTBMKSkQL4c2UBk3IbB
sOrbQIp7ZT65TofBXAWNQNfn8D8Ll6TBrw2kQCb0kUD86I7BzwKmQLjNKED2yJvB8IeLQD+5dEAY
spfBBxCvQGqd3T/rwZLBRTmKQE1mtkCMFYvBglD3QAWGyz9xVZXBC3MfQeH090BkcYjBPIGDQA8W
l0DoWKDBez4FQX2j276rmrPBBOOUQAWaQcAKnqbBRnG7QOxVEUE8MqfB7EsFQXBADUEFo6XBIROM
QFqNA0HcsJjB0N35QD/t00BjZ4jBvDnbQGa10j//Qq7Bau1jQLZcMr+cHaLBPljhQLQlKsDdCq/B
noxFQXS3DEGgsI/Bq2U6QS4vJ0FKKY/BoEYcQbqEHUE60ZnB5nUwQYKkDEHlmZ/BR81jQEcy8UBq
UXbBxviaQJf6C0EvrXvBAyHWQFhG3kDionLB4Q6tQHKDt0AdR23Bshs0QUVUDUEM23zBpaIdQfIO
HEEth4PBDokiQcMU3EDVzJfBszP9QIv5Bb5Q8YbBlvjSQCFLKj/8H3/Bn5bGQIU2H7+mGInBZsOJ
QLkmIkAjoqvBgSJaQOmozz8BiqHBsVeqQIrmd0BBOYjBw5jCQJbInUASIpLB2S7EQP3OQECVLp/B
5HVaQHGeXEDlYZTBS2qWQHs/tj+vSY7Btl5tQM8jrEB+SoXBArFxQOulwUBNL5HB/YZoQKuNiEAM
1KXB

> <OMEGA_E>
8GPkPnh17z7wTOQ+lkonPw==

> <OMEGA_NBR>
    287620

$$$$
50214108
  -OEChem-04172616093D

 73 76  0     1  0  0  0  0  0999 V2000
    8.4730    7.5671  -18.6216 C   0  0  0  0  0  0  0  0  0  0  0  0
    7.9402    8.1446  -19.7884 C   0  0  0  0  0  0  0  0  0  0  0  0
    7.6109    7.0750  -17.6243 C   0  0  0  0  0  0  0  0  0  0  0  0
    5.6942    7.7637  -18.9534 C   0  0  0  0  0  0  0  0  0  0  0  0
    6.4372    0.7610  -21.5523 C   0  0  0  0  0  0  0  0  0  0  0  0
    4.5935   -0.6318  -20.7570 C   0  0  0  0  0  0  0  0  0  0  0  0
    6.6580   -1.6672  -21.5422 C   0  0  0  0  0  0  0  0  0  0  0  0
    6.5352    8.2032  -19.9696 C   0  0  0  0  0  0  0  0  0  0  0  0
    6.2046    7.2104  -17.7705 C   0  0  0  0  0  0  0  0  0  0  0  0
    5.1341    0.6429  -21.0205 C   0  0  0  0  0  0  0  0  0  0  0  0
    7.2010   -0.3934  -21.8036 C   0  0  0  0  0  0  0  0  0  0  0  0
    5.3517   -1.7853  -21.0262 C   0  0  0  0  0  0  0  0  0  0  0  0
    5.8699   10.2536  -21.2171 C   0  0  0  0  0  0  0  0  0  0  0  0
    6.7539    1.4164  -18.0619 C   0  0  0  0  0  0  0  0  0  0  0  0
    7.1812   10.6463  -21.8913 C   0  0  0  0  0  0  0  0  0  0  0  0
    7.5542    9.4709  -22.8191 C   0  0  0  0  0  0  0  0  0  0  0  0
    5.4289    8.3008  -14.2504 C   0  0  0  0  0  0  0  0  0  0  0  0
    4.8807    8.9101  -15.5486 C   0  0  0  0  0  0  0  0  0  0  0  0
    6.4156    7.1546  -14.5378 C   0  0  0  0  0  0  0  0  0  0  0  0
    6.5817    8.3263  -22.5009 C   0  0  0  0  0  0  0  0  0  0  0  0
    4.1866    7.8174  -16.3650 C   0  0  0  0  0  0  0  0  0  0  0  0
    5.8000    6.0774  -15.4643 C   0  0  0  0  0  0  0  0  0  0  0  0
    5.8618    8.7375  -21.2208 C   0  0  1  0  0  0  0  0  0  0  0  0
    5.1782    6.6861  -16.7555 C   0  0  0  0  0  0  0  0  0  0  0  0
    6.9644    0.4293  -16.9188 C   0  0  0  0  0  0  0  0  0  0  0  0
    4.3561    1.8809  -20.6395 C   0  0  0  0  0  0  0  0  0  0  0  0
    5.1138    4.5283  -17.9514 C   0  0  0  0  0  0  0  0  0  0  0  0
    5.1156    2.6499  -19.5409 C   0  0  1  0  0  0  0  0  0  0  0  0
    4.2723    3.7927  -18.9865 C   0  0  2  0  0  0  0  0  0  0  0  0
    5.4540    1.7374  -18.4318 N   0  0  0  0  0  0  0  0  0  0  0  0
    4.3525    5.6687  -17.4359 N   0  3  0  0  0  0  0  0  0  0  0  0
    5.1746   10.9693  -20.5064 O   0  0  0  0  0  0  0  0  0  0  0  0
    7.7219    1.9761  -18.5659 O   0  0  0  0  0  0  0  0  0  0  0  0
    3.9142    4.6852  -20.0424 O   0  0  0  0  0  0  0  0  0  0  0  0
    8.4571   -0.2791  -22.2908 F   0  0  0  0  0  0  0  0  0  0  0  0
    4.8279   -3.0063  -20.7789 F   0  0  0  0  0  0  0  0  0  0  0  0
    9.5431    7.5014  -18.4913 H   0  0  0  0  0  0  0  0  0  0  0  0
    8.6002    8.5427  -20.5450 H   0  0  0  0  0  0  0  0  0  0  0  0
    8.0187    6.5941  -16.7474 H   0  0  0  0  0  0  0  0  0  0  0  0
    4.6249    7.8504  -19.0778 H   0  0  0  0  0  0  0  0  0  0  0  0
    6.8471    1.7371  -21.7660 H   0  0  0  0  0  0  0  0  0  0  0  0
    3.5978   -0.7226  -20.3487 H   0  0  0  0  0  0  0  0  0  0  0  0
    7.2432   -2.5537  -21.7375 H   0  0  0  0  0  0  0  0  0  0  0  0
    7.0483   11.5678  -22.4771 H   0  0  0  0  0  0  0  0  0  0  0  0
    7.9668   10.8014  -21.1370 H   0  0  0  0  0  0  0  0  0  0  0  0
    7.4518    9.7728  -23.8719 H   0  0  0  0  0  0  0  0  0  0  0  0
    8.5895    9.1519  -22.6282 H   0  0  0  0  0  0  0  0  0  0  0  0
    5.9480    9.0845  -13.6791 H   0  0  0  0  0  0  0  0  0  0  0  0
    4.5895    7.9095  -13.6569 H   0  0  0  0  0  0  0  0  0  0  0  0
    4.1578    9.7030  -15.3061 H   0  0  0  0  0  0  0  0  0  0  0  0
    5.7093    9.3357  -16.1336 H   0  0  0  0  0  0  0  0  0  0  0  0
    7.3112    7.5702  -15.0227 H   0  0  0  0  0  0  0  0  0  0  0  0
    6.6996    6.6834  -13.5853 H   0  0  0  0  0  0  0  0  0  0  0  0
    5.8606    8.1969  -23.3214 H   0  0  0  0  0  0  0  0  0  0  0  0
    7.1329    7.3871  -22.3458 H   0  0  0  0  0  0  0  0  0  0  0  0
    3.3704    7.3871  -15.7662 H   0  0  0  0  0  0  0  0  0  0  0  0
    3.7732    8.2634  -17.2816 H   0  0  0  0  0  0  0  0  0  0  0  0
    6.5894    5.3680  -15.7534 H   0  0  0  0  0  0  0  0  0  0  0  0
    5.0127    5.5445  -14.9110 H   0  0  0  0  0  0  0  0  0  0  0  0
    4.8228    8.3781  -21.2573 H   0  0  0  0  0  0  0  0  0  0  0  0
    8.0381    0.3541  -16.6917 H   0  0  0  0  0  0  0  0  0  0  0  0
    6.4248    0.7806  -16.0270 H   0  0  0  0  0  0  0  0  0  0  0  0
    6.5819   -0.5592  -17.2131 H   0  0  0  0  0  0  0  0  0  0  0  0
    4.2380    2.5256  -21.5230 H   0  0  0  0  0  0  0  0  0  0  0  0
    3.3644    1.5891  -20.2635 H   0  0  0  0  0  0  0  0  0  0  0  0
    5.3597    3.8459  -17.1245 H   0  0  0  0  0  0  0  0  0  0  0  0
    6.0424    4.8870  -18.4194 H   0  0  0  0  0  0  0  0  0  0  0  0
    6.0385    3.0640  -19.9730 H   0  0  0  0  0  0  0  0  0  0  0  0
    3.3741    3.3819  -18.5021 H   0  0  0  0  0  0  0  0  0  0  0  0
    4.7029    1.3256  -17.9158 H   0  0  0  0  0  0  0  0  0  0  0  0
    3.6761    5.3259  -16.7839 H   0  0  0  0  0  0  0  0  0  0  0  0
    3.8839    6.1063  -18.2033 H   0  0  0  0  0  0  0  0  0  0  0  0
    3.3899    4.2221  -20.6850 H   0  0  0  0  0  0  0  0  0  0  0  0
  1  2  1  0  0  0  0
  1  3  2  0  0  0  0
  2  8  2  0  0  0  0
  3  9  1  0  0  0  0
  4  8  1  0  0  0  0
  4  9  2  0  0  0  0
  5 10  1  0  0  0  0
  5 11  2  0  0  0  0
  6 10  2  0  0  0  0
  6 12  1  0  0  0  0
  7 11  1  0  0  0  0
  7 12  2  0  0  0  0
  8 23  1  0  0  0  0
  9 24  1  0  0  0  0
 10 26  1  0  0  0  0
 11 35  1  0  0  0  0
 12 36  1  0  0  0  0
 13 15  1  0  0  0  0
 13 23  1  0  0  0  0
 13 32  2  0  0  0  0
 14 25  1  0  0  0  0
 14 30  1  0  0  0  0
 14 33  2  0  0  0  0
 15 16  1  0  0  0  0
 16 20  1  0  0  0  0
 17 18  1  0  0  0  0
 17 19  1  0  0  0  0
 18 21  1  0  0  0  0
 19 22  1  0  0  0  0
 20 23  1  0  0  0  0
 21 24  1  0  0  0  0
 22 24  1  0  0  0  0
 24 31  1  0  0  0  0
 26 28  1  0  0  0  0
 27 29  1  0  0  0  0
 27 31  1  0  0  0  0
 28 29  1  0  0  0  0
 28 30  1  0  0  0  0
 29 34  1  0  0  0  0
  1 37  1  0  0  0  0
  2 38  1  0  0  0  0
  3 39  1  0  0  0  0
  4 40  1  0  0  0  0
  5 41  1  0  0  0  0
  6 42  1  0  0  0  0
  7 43  1  0  0  0  0
 15 44  1  0  0  0  0
 15 45  1  0  0  0  0
 16 46  1  0  0  0  0
 16 47  1  0  0  0  0
 17 48  1  0  0  0  0
 17 49  1  0  0  0  0
 18 50  1  0  0  0  0
 18 51  1  0  0  0  0
 19 52  1  0  0  0  0
 19 53  1  0  0  0  0
 20 54  1  0  0  0  0
 20 55  1  0  0  0  0
 21 56  1  0  0  0  0
 21 57  1  0  0  0  0
 22 58  1  0  0  0  0
 22 59  1  0  0  0  0
 23 60  1  0  0  0  0
 25 61  1  0  0  0  0
 25 62  1  0  0  0  0
 25 63  1  0  0  0  0
 26 64  1  0  0  0  0
 26 65  1  0  0  0  0
 27 66  1  0  0  0  0
 27 67  1  0  0  0  0
 28 68  1  0  0  0  0
 29 69  1  0  0  0  0
 30 70  1  0  0  0  0
 31 71  1  0  0  0  0
 31 72  1  0  0  0  0
 34 73  1  0  0  0  0
M  CHG  1  31   1
M  END
> <OMEGA_C>
XZEHQYAl8kAF+ZTB2xX+QElQAkG6Tp7B24zzQCNm4kB3/ozB0ja2QG9w+EB+oJfBjv3NQCrTQj8j
a6zBIf6SQPK6Ib9UDqbBnw7VQBVo1b9/VqzBlyDRQElAA0HJwZ/BSYzGQOq75kDiKY7Bi0qkQLiW
JD/sKajB6m7mQFRwyb7cba7BcEGrQEGE5L+WNajBPNa7QLgOJEGbvKnB3R/YQBJOtT+tfpDBhMzl
QC1XKkFPIa/BA7zxQOmIF0GRjbbBNbmtQCDQBEHKAWTBTy6cQKCPDkE7x3jBXEzNQEjy5EDVmmjB
SZ3SQIE4BUHuAbTB1viFQB8o+kCB64LB2pm5QFF6wkCSbXfBu5O7QLrMC0EjxKnBG7SlQNj01UBc
C4bBkdzeQPPI2z6/WYfBCGWLQLTC8D/BHaXB6qOjQDjokEBsnI/BxrKjQISYKUDHU5zBV7aIQOq6
ckBy5JfBPIeuQLdk3j9XdJPBa0eLQPVltUCffIvBDZalQHCCL0EsDaTBKxr3QCLy/D/ihpTB8YJ6
QHDtlUDFVqDBHFAHQVTgjr6LU7LB+32aQMpnQMAwO6bBg7AYQdML8EBA7pPBaJoJQcGuCEEPXKTB
r0wAQRwD00Cf+oXBHP+TQHA2+0BXn5jBXRvbQPtZ3j+xIK7BdEJmQHb+OL8syqLBmsjnQOhvI8BU
5q3Bp4vhQKUVOUEK0bPBou/+QG7SLEGgGKnBMnXuQEJdHEG4+b7BdW4JQUxuEkF9BrXBoVW+QB5a
EUHK3VrBytySQI8a/UC8glrBvgyFQEo/G0HQ5XTBb7K2QC9fFUGcEYHBN/XpQEM/8kDvXHDBJmPW
QFve1UBFXVnBuom7QK4mA0FTkrrBEEHkQDtj7EAyxLLBGLRXQNBi7EBrQnzBi3xxQME2BEHEQIrB
RNzSQJzGq0D6DXzBJmigQChssUCIk27BSFSaQLcMBkH+DqrB/JsAQVhJtT6CiIXBA5jNQKnWRz9G
N4DBJ5/SQA8pD79jtInBAZ6HQLWjIUAIL6zBwVJXQDVmyz+XG6LB24KrQJcidkD+/ojBP1vBQDVi
nEDjWpPBoDvBQLUYRECvyJ/Bz/FXQOBwWEBmBJTBTH6WQIeuqT+JU4/B0ERrQP1tqkB8RYbBWZF4
QNBmw0BHoJHBd/NYQGEbh0D0eqXBcIUKQeEB7UBX3JLBfkkEQUxJ/kAewJzBwfb1QHX930DAaovB
igq+QEhW9UAyy5fBC9HKQOp1Qj8D9KzBz0WUQE6DL78TC6XBc9rUQL5J1L91wqzBSK7cQCWnAUHJ
PJ/Bf+HJQHX+5ECywo3BRxSjQDZAGj9CvKfB5cLjQA+Mvb7faK/B+PSsQF9f6L98pqfBfzSiQCTT
FUH19qnB4vTaQBp3yD8aR5DBJTaqQAIGLUHK+qzBivvSQKtBLEEqorPBZxapQLtQBEFXjmPBx6Kc
QJzhDkGK23jBJrDHQJDO4kCCH2fBY3buQMESHEGWz63BjzqHQEK8/ECWvYPBZhW1QM7fwUASGXfB
Oc3OQKeMCkFVFarBU5elQA6V1kC/N4bBE+TkQFifAj+j04fB+5GJQFeR6D/mdaTB/MWiQF15kUDs
u4/BI/CiQLKHKECSKJzB5I2HQCz4cEDUqJfBPZOwQOTN4D9vSpPB1fuKQJ0bt0A7A4zBYdt9QOSA
DkEavafBTnP4QMUpB0DxDpXBMY10QHvzk0ABKqDB8fAEQdB1X76mX7TBVUOeQNBGQ8CuRKXBUE0b
QcC26UBs+JDBBE0QQYvlA0HmfKLBdLT/QOMg0kDq4oPB2oScQO0390CC15nBPg/WQCCK3z/EDq/B
EwNsQMIITr+p+6DBXgLoQLKpIcAMpa7BXmuPQPhsM0F+tLHB1cquQJbpNkFtyqXBRCrMQMbzJkFw
2bvBS6XiQCYDPEHQ2LPBQe24QHZAEEGeVFnB6PaLQCj5/EBfklvBzDeGQFwYHEHwxXXBBYe5QK8n
FUFdW4DB7CfmQO0J70BNeG3Bk2bNQHLN0kC7tVfBB1gDQdtKFUF/OLPB5mr+QAiCI0FQ56bBdZlU
QNZ68EBti3/BuJN8QKwuBkFaTYvB4gXOQLQtqkBW03rBpbyZQLi9sUD6f2/BgEbOQAoa+0DIA7DB
+d8DQZKjwj6bL4fBoP/XQK9xVT/YDoDB8BPWQOi54774I4rBnFKDQIs8HEAsiavB4/xVQNNwvz9m
8KDBA5iqQKbYeUC/3IjBr4HAQDXdm0DPqZPBdUK/QH4kREAEFaDBOWBXQHzEVUCnfpPB9+yZQNZt
oj8JM4/BfWJnQOk3rUCQHYfBzyp8QL+ZxUDWX5LBKJhSQLk3hEA5F6XBy8QLQReM7ECgOJLBpLoG
QU3mAkFUIZvBQ8f2QKuO3EBjo4vBL4XBQIRW/ECJWpfBRz7LQKCmTD+mpqzBG+mTQNnoML8HrKXB
ewzWQAujzr8X8KzB2XTiQNohB0E4rZ3BHTTLQKS/5UCu4o3BiMaiQEU4HD8x2qfBXP7kQFL6n77f
Ga/ByWutQH2r5r+QRajBVWDRQKIBAkG/2rDBVObaQBd6xD/AXpDBeTKlQG25BkFTZLXBBo2dQNhZ
HkF42bLBR0mpQFcFBEHiNWTBgO+aQIhvDkEmUHnB7oLIQPfi4kBZOmjBifGwQN5IIUEazqfBbZqG
QG5e+0C9BoTBCBK1QD2gwUAMwHfB9PjYQFiyEkF/CajB4g6mQLlC1kDvn4bBA6rlQKJP6j4ZKYjB
hLKIQF145j/RV6TBZLWiQOKDkEAGqI/BSxSiQE/KJkDy+pvBWb2GQEJBbkAyUpfBh1GwQNHa2z8s
PpPBMt+LQBlOt0BHjYzBITLmQPlR40A8XLLBIvb3QIKqB0AfBZXBDxtwQO9DkkC5wZ/B0hUGQXTe
BL6Jc7PBpgqfQH4jQ8ATK6bBukYcQQBa5UBgaJDBal4TQZxjCUEtDKDBfdb+QBEQyUBgy4TBTpKg
QB35/0AqzJnBS2bWQK0B5j/Rb67BVehpQDXFVb/zAaLB4rzpQPkCHsBC267BApukQL/6A0E9Fb7B
p9WMQMJM+UDQhbHBWKStQE2pKEETvbjBmzt2QAz/IUFNwLLBTju5QLomEEEWQlrBKfiMQDzA+0C1
wFvB/VyDQD4KG0Eu2nXB3OG2QH+DFUFUq4DBATTmQByl70A/NG/BOMPPQLUk00DX6FjBXfy5QPkT
MkE7dKbBCHiaQBwlHEHtiaHB10NUQNkM7kClEIDBjCR6QNF7BUHui4vBemPNQGotqUCTSHvBbF6Z
QCl4skAV+W/BMd70QEh7HEFiPqrBuU4EQbNJtD5fi4fBXYbYQFxaPj/XUoDB65rXQITy/74RsYrB
E9SBQB4YHEDqTKvBY+JUQII1uj/0y6DB+5OpQG5KekAUg4jBlOvAQNcemUB7oJPBbC6+QOk2Q0B1
6Z/BlzdXQLdvUkBP7JLBx/yZQH7Imz/7JI/BAzJmQH3orkCk8YfB1hKBQECJxUBxMJPBnjRNQNI8
gkCxhKTBy78IQQfu7UDw5JTBgucBQWzeBUG3lJzBo+7zQMrh20Cxto3BMqa6QG3iAUHwSZbBK4DM
QIY5Qj/Dg6zBhYKSQBVbKL836KXBBpnUQBU41b+kcKzBxO7XQM6GC0GQQ53BzxLIQMmY50DyK47B
wiajQGJSHz/uGKjBRlDlQIQJxb4Smq7BRh2rQPt65r/gI6jByM/oQEOBI0GjCK3BuKLYQJXKvD9e
BJDBF4/mQHURE0FvLbbB2B+9QDUsBkGNWbTBEpKvQHSEA0FUEWTBl/ibQFKaDUEZQHjBOqnOQCtj
4kBro2nBnOSjQPRkE0GpRazBcdKFQMNy+EDPw4LBck65QI+vwEDwQXjBH/DGQDGPHEHX/aTBmBKm
QEhx1UCbaobB/cjgQPhewj4dxYfBOiiKQOxe7D/f4KTBlGKjQMxFkEB/s4/B9P2iQPYpJ0ArLJzB
vu2HQAqTb0C0pJfBz9iuQJ8k2T8XZJPB7u6LQE46tkDWP4zBaIkCQdHAMEGNj6vBmBP3QA5QAkAx
SZTBTtd1QNCkk0ABGaDBmKYGQSD9gL7RlrLBnwabQGK8QcDfCabBfGcZQRfb5EDef5TBdFoNQQUG
DUFG+aHBUqT+QPv9xEDv0YfBW/eYQNRWBUGrKJfByw7ZQAK93j/eSa7BHMllQFK9Qr9dhKLBSZXn
QLbbIsAqFK7Bd2flQNRFG0Eb9b3BvkYBQehoCEHl7bXBgB+rQJN1BEED3bvB2m7EQP917ECJGbHB
bhjBQC/sD0GjLFvBLaaVQL5H+kApA1rB6WeEQAzQGUF0k3PBLGq1QHQXFUGq6oDBKqrqQBbN70Cz
7XHBAQnZQBfA0kB3v1rB3/qRQNxEIEHvQ7DBtJmNQA5HCUFUtqfBKFNZQENs6UCMx3vBn6tuQOah
A0Hh4InBpm7RQFvcqEDl+3zBTH6fQCDJsECGUG/Btr26QJByKkE2h6DBHLsBQTYsdT6fwYbB/XvS
QGeyKz/PEoDBdkbSQMusD78hiIrBl6OFQOjHH0A/46vBFYFVQPmJxT8Vu6HBxl+qQNbAd0C8vojB
aI7BQMbomUBsipPB1B/AQMBUQkBfwp/BluBXQCGvVEC4f5PBnFuXQGZImj9zo4/BFAhoQNnfrEAD
eofBEMZ/QL6WxECyu5LBN4VTQFY8hECVDKXB

> <OMEGA_E>
uFqhPihYqj5QFq4+CLeePg==

> <OMEGA_NBR>
    292510

$$$$
50214105
  -OEChem-04172616093D

 66 69  0     1  0  0  0  0  0999 V2000
    8.5892    7.4159  -18.5318 C   0  0  0  0  0  0  0  0  0  0  0  0
    7.6325    7.0998  -17.5524 C   0  0  0  0  0  0  0  0  0  0  0  0
    8.1804    7.8674  -19.8005 C   0  0  0  0  0  0  0  0  0  0  0  0
    5.8530    7.7146  -19.1028 C   0  0  0  0  0  0  0  0  0  0  0  0
    6.4956    0.8002  -21.5579 C   0  0  0  0  0  0  0  0  0  0  0  0
    4.6567   -0.6338  -20.8303 C   0  0  0  0  0  0  0  0  0  0  0  0
    6.7386   -1.6268  -21.6278 C   0  0  0  0  0  0  0  0  0  0  0  0
    6.2598    7.2574  -17.8362 C   0  0  0  0  0  0  0  0  0  0  0  0
    6.8049    8.0299  -20.0965 C   0  0  0  0  0  0  0  0  0  0  0  0
    5.1896    0.6564  -21.0385 C   0  0  0  0  0  0  0  0  0  0  0  0
    7.2711   -0.3403  -21.8436 C   0  0  0  0  0  0  0  0  0  0  0  0
    5.4293   -1.7730  -21.1277 C   0  0  0  0  0  0  0  0  0  0  0  0
    6.7801    1.3855  -18.0860 C   0  0  0  0  0  0  0  0  0  0  0  0
    6.5938   10.7744  -21.4012 C   0  0  0  0  0  0  0  0  0  0  0  0
    4.5713    7.8382  -15.9406 C   0  0  0  0  0  0  0  0  0  0  0  0
    5.4791    6.7343  -15.3597 C   0  0  0  0  0  0  0  0  0  0  0  0
    7.1530    9.5657  -22.1218 C   0  0  0  0  0  0  0  0  0  0  0  0
    5.1298   10.3852  -21.1260 C   0  0  0  0  0  0  0  0  0  0  0  0
    5.1953    6.7954  -16.8666 C   0  0  0  0  0  0  0  0  0  0  0  0
    6.3326    8.4206  -21.5085 C   0  0  1  0  0  0  0  0  0  0  0  0
    7.0012    0.3490  -16.9893 C   0  0  0  0  0  0  0  0  0  0  0  0
    6.3296    7.1893  -22.4278 C   0  0  0  0  0  0  0  0  0  0  0  0
    4.3911    1.8810  -20.6287 C   0  0  0  0  0  0  0  0  0  0  0  0
    5.0388    4.5563  -17.8730 C   0  0  0  0  0  0  0  0  0  0  0  0
    5.1217    2.6585  -19.5058 C   0  0  1  0  0  0  0  0  0  0  0  0
    4.2399    3.7797  -18.9309 C   0  0  2  0  0  0  0  0  0  0  0  0
    5.4762    1.7300  -18.4187 N   0  0  0  0  0  0  0  0  0  0  0  0
    4.3075    5.7676  -17.4441 N   0  3  0  0  0  0  0  0  0  0  0  0
    7.7436    1.9656  -18.5758 O   0  0  0  0  0  0  0  0  0  0  0  0
    4.9990    8.9785  -21.4570 O   0  0  0  0  0  0  0  0  0  0  0  0
    3.8584    4.6581  -19.9890 O   0  0  0  0  0  0  0  0  0  0  0  0
    8.5318   -0.2007  -22.3122 F   0  0  0  0  0  0  0  0  0  0  0  0
    4.9204   -3.0073  -20.9145 F   0  0  0  0  0  0  0  0  0  0  0  0
    9.6412    7.3121  -18.3104 H   0  0  0  0  0  0  0  0  0  0  0  0
    7.9473    6.7373  -16.5850 H   0  0  0  0  0  0  0  0  0  0  0  0
    8.9210    8.0915  -20.5540 H   0  0  0  0  0  0  0  0  0  0  0  0
    4.8004    7.8258  -19.3175 H   0  0  0  0  0  0  0  0  0  0  0  0
    6.8997    1.7857  -21.7362 H   0  0  0  0  0  0  0  0  0  0  0  0
    3.6552   -0.7475  -20.4424 H   0  0  0  0  0  0  0  0  0  0  0  0
    7.3341   -2.5011  -21.8457 H   0  0  0  0  0  0  0  0  0  0  0  0
    7.1353   10.9567  -20.4612 H   0  0  0  0  0  0  0  0  0  0  0  0
    6.6494   11.6709  -22.0361 H   0  0  0  0  0  0  0  0  0  0  0  0
    3.4894    7.8212  -15.7430 H   0  0  0  0  0  0  0  0  0  0  0  0
    4.9224    8.8803  -15.9699 H   0  0  0  0  0  0  0  0  0  0  0  0
    6.4785    6.9875  -14.9763 H   0  0  0  0  0  0  0  0  0  0  0  0
    5.0454    5.9285  -14.7493 H   0  0  0  0  0  0  0  0  0  0  0  0
    6.9904    9.6370  -23.2074 H   0  0  0  0  0  0  0  0  0  0  0  0
    8.2269    9.4410  -21.9193 H   0  0  0  0  0  0  0  0  0  0  0  0
    4.8878   10.5484  -20.0655 H   0  0  0  0  0  0  0  0  0  0  0  0
    4.4544   10.9858  -21.7529 H   0  0  0  0  0  0  0  0  0  0  0  0
    8.0771    0.2627  -16.7772 H   0  0  0  0  0  0  0  0  0  0  0  0
    6.4718    0.6619  -16.0772 H   0  0  0  0  0  0  0  0  0  0  0  0
    6.6139   -0.6252  -17.3222 H   0  0  0  0  0  0  0  0  0  0  0  0
    5.9906    7.4820  -23.4324 H   0  0  0  0  0  0  0  0  0  0  0  0
    7.3472    6.7761  -22.4903 H   0  0  0  0  0  0  0  0  0  0  0  0
    5.6492    6.4280  -22.0186 H   0  0  0  0  0  0  0  0  0  0  0  0
    4.2655    2.5391  -21.5012 H   0  0  0  0  0  0  0  0  0  0  0  0
    3.4032    1.5629  -20.2642 H   0  0  0  0  0  0  0  0  0  0  0  0
    5.2055    3.9082  -17.0000 H   0  0  0  0  0  0  0  0  0  0  0  0
    6.0082    4.8530  -18.2999 H   0  0  0  0  0  0  0  0  0  0  0  0
    6.0357    3.1053  -19.9241 H   0  0  0  0  0  0  0  0  0  0  0  0
    3.3528    3.3336  -18.4575 H   0  0  0  0  0  0  0  0  0  0  0  0
    4.7329    1.3228  -17.8880 H   0  0  0  0  0  0  0  0  0  0  0  0
    3.6312    5.5058  -16.7556 H   0  0  0  0  0  0  0  0  0  0  0  0
    3.8411    6.1575  -18.2381 H   0  0  0  0  0  0  0  0  0  0  0  0
    3.3649    4.1741  -20.6406 H   0  0  0  0  0  0  0  0  0  0  0  0
  1  2  2  0  0  0  0
  1  3  1  0  0  0  0
  2  8  1  0  0  0  0
  3  9  2  0  0  0  0
  4  8  2  0  0  0  0
  4  9  1  0  0  0  0
  5 10  1  0  0  0  0
  5 11  2  0  0  0  0
  6 10  2  0  0  0  0
  6 12  1  0  0  0  0
  7 11  1  0  0  0  0
  7 12  2  0  0  0  0
  8 19  1  0  0  0  0
  9 20  1  0  0  0  0
 10 23  1  0  0  0  0
 11 32  1  0  0  0  0
 12 33  1  0  0  0  0
 13 21  1  0  0  0  0
 13 27  1  0  0  0  0
 13 29  2  0  0  0  0
 14 17  1  0  0  0  0
 14 18  1  0  0  0  0
 15 16  1  0  0  0  0
 15 19  1  0  0  0  0
 16 19  1  0  0  0  0
 17 20  1  0  0  0  0
 18 30  1  0  0  0  0
 19 28  1  0  0  0  0
 20 22  1  0  0  0  0
 20 30  1  0  0  0  0
 23 25  1  0  0  0  0
 24 26  1  0  0  0  0
 24 28  1  0  0  0  0
 25 26  1  0  0  0  0
 25 27  1  0  0  0  0
 26 31  1  0  0  0  0
  1 34  1  0  0  0  0
  2 35  1  0  0  0  0
  3 36  1  0  0  0  0
  4 37  1  0  0  0  0
  5 38  1  0  0  0  0
  6 39  1  0  0  0  0
  7 40  1  0  0  0  0
 14 41  1  0  0  0  0
 14 42  1  0  0  0  0
 15 43  1  0  0  0  0
 15 44  1  0  0  0  0
 16 45  1  0  0  0  0
 16 46  1  0  0  0  0
 17 47  1  0  0  0  0
 17 48  1  0  0  0  0
 18 49  1  0  0  0  0
 18 50  1  0  0  0  0
 21 51  1  0  0  0  0
 21 52  1  0  0  0  0
 21 53  1  0  0  0  0
 22 54  1  0  0  0  0
 22 55  1  0  0  0  0
 22 56  1  0  0  0  0
 23 57  1  0  0  0  0
 23 58  1  0  0  0  0
 24 59  1  0  0  0  0
 24 60  1  0  0  0  0
 25 61  1  0  0  0  0
 26 62  1  0  0  0  0
 27 63  1  0  0  0  0
 28 64  1  0  0  0  0
 28 65  1  0  0  0  0
 31 66  1  0  0  0  0
M  CHG  1  28   1
M  END
> <OMEGA_C>
kW0JQVlP7UAxQZTBPD30QPgx40BAa4zB++ICQYLB+0B9Z57BfEu7QE7e9kCR0pjBCNzPQKPXTD+q
dqzB0AOVQO4+Ir9hpKbB7qLXQIQ80L+9Ba3BolDIQKk86ECSsI7BrMHZQHd6AEG0xaDBzhCmQIwH
KD/ETqjBJK3oQLFArr6zv67B9rytQErw4r+EBanBrvbYQJFWsT8HsJDBtADTQOZjLEGWNavBWEiS
QJLS+kDFDH/BoFSvQL5/10B7wXXBBuXkQBcNGUFq+bDBsCekQJ4pJkEYAqnBCECmQDl02UDO7obB
fqTKQKO6BkFZEazBzAngQJO1sj4A6ofBeozKQBIP5kAUbLPBmIOMQJXE8D+sB6XBeD2hQFPNkUD5
+47B7OSjQIQlKkDqC5zBkq2HQOHlcUBwcpfBpjyvQLhv3T+WWZPBNteJQJGQuECBjYvBKsv3QFKZ
+z8jm5TBuPefQA+oD0EDqKvBr/B2QGEPlUBu6Z/BbIIIQfqQTb53f7LBFHSdQBR4QMDgUKfBVEIa
QRX96UCoe5LB+U/+QPGX10ADroTBVrwOQex2AUGXbqTBkJyZQJ9s+kAwiprBh8rcQI+S5D+z463B
Je9pQOJeP7/2iaPBjLDqQMgSIMAFxK7BM1TkQJ1OL0F2sKPB1MfUQA68OkH2SbDBs1FfQIBH+kBR
43vBWISdQJAVDkHNhH/B0k/PQP2Z30C6nm/BU3ShQF62vUA+/WvBYLHfQB8xGkGxqLnBi6EDQXAO
F0GiWq/BKWmcQELGKEEShqDBeIqOQOzFL0H1Ba7BxjsBQeR9hj6fN4bBphjPQJhvKT8dnoDB3aTT
QEQNIL/Ok4rBpbK/QNRs70ChdbvBDxzrQCbW2EAR7LPBg8a0QEyyzUAaJrDBOn+IQAWAIkB6AqzB
Zc1ZQCcOyD8dHaLBKJOmQAsgekAHAIjB7ULAQC5Mm0AdZpLBsiTBQHO9RkB+ZJ/B2pRWQMlZVUD1
qJPBrHOXQKpQqT+QGo/Bv2VoQOgvsEBoC4bB2NR1QIQKxUCk55HBH1tXQCWShUAIIKXB

> <OMEGA_E>
cLzoPg==

> <OMEGA_NBR>
    293910

$$$$
50214112
  -OEChem-04172616093D

 72 75  0     1  0  0  0  0  0999 V2000
    8.6703    7.5276  -18.3828 C   0  0  0  0  0  0  0  0  0  0  0  0
    8.2917    7.9930  -19.6503 C   0  0  0  0  0  0  0  0  0  0  0  0
    7.6950    7.1043  -17.4644 C   0  0  0  0  0  0  0  0  0  0  0  0
    5.9485    7.6626  -19.0651 C   0  0  0  0  0  0  0  0  0  0  0  0
    6.4202    0.8261  -21.5536 C   0  0  0  0  0  0  0  0  0  0  0  0
    4.6282   -0.6474  -20.7861 C   0  0  0  0  0  0  0  0  0  0  0  0
    6.7102   -1.5931  -21.6348 C   0  0  0  0  0  0  0  0  0  0  0  0
    6.9314    8.0390  -20.0119 C   0  0  0  0  0  0  0  0  0  0  0  0
    6.3150    7.1979  -17.7796 C   0  0  0  0  0  0  0  0  0  0  0  0
    5.1297    0.6501  -21.0066 C   0  0  0  0  0  0  0  0  0  0  0  0
    7.2137   -0.2955  -21.8553 C   0  0  0  0  0  0  0  0  0  0  0  0
    5.4150   -1.7673  -21.1064 C   0  0  0  0  0  0  0  0  0  0  0  0
    6.8035    1.5192  -18.0057 C   0  0  0  0  0  0  0  0  0  0  0  0
    5.2401    8.1673  -14.1838 C   0  0  0  0  0  0  0  0  0  0  0  0
    4.8413    8.8777  -15.4869 C   0  0  0  0  0  0  0  0  0  0  0  0
    6.2590    7.0543  -14.4582 C   0  0  0  0  0  0  0  0  0  0  0  0
    5.8233   10.6748  -21.0561 C   0  0  0  0  0  0  0  0  0  0  0  0
    6.9609    9.9071  -21.7008 C   0  0  0  0  0  0  0  0  0  0  0  0
    4.2278    7.8780  -16.4720 C   0  0  0  0  0  0  0  0  0  0  0  0
    5.7202    6.0448  -15.4970 C   0  0  0  0  0  0  0  0  0  0  0  0
    4.6133    9.7434  -21.2349 C   0  0  0  0  0  0  0  0  0  0  0  0
    6.5609    8.4558  -21.4358 C   0  0  2  0  0  0  0  0  0  0  0  0
    5.2012    6.7188  -16.8124 C   0  0  0  0  0  0  0  0  0  0  0  0
    7.0912    0.4340  -16.9727 C   0  0  0  0  0  0  0  0  0  0  0  0
    4.3181    1.8471  -20.5761 C   0  0  0  0  0  0  0  0  0  0  0  0
    5.0841    4.5335  -17.9428 C   0  0  0  0  0  0  0  0  0  0  0  0
    5.0863    2.6324  -19.4962 C   0  0  1  0  0  0  0  0  0  0  0  0
    4.2259    3.7536  -18.9260 C   0  0  2  0  0  0  0  0  0  0  0  0
    5.4864    1.7277  -18.3997 N   0  0  0  0  0  0  0  0  0  0  0  0
    4.3634    5.7358  -17.5234 N   0  3  0  0  0  0  0  0  0  0  0  0
    7.7385    2.0754  -18.5722 O   0  0  0  0  0  0  0  0  0  0  0  0
    5.1309    8.4487  -21.6558 O   0  0  0  0  0  0  0  0  0  0  0  0
    3.7990    4.6140  -19.9831 O   0  0  0  0  0  0  0  0  0  0  0  0
    8.4626   -0.1267  -22.3453 F   0  0  0  0  0  0  0  0  0  0  0  0
    4.9310   -3.0102  -20.8901 F   0  0  0  0  0  0  0  0  0  0  0  0
    9.7152    7.4944  -18.1117 H   0  0  0  0  0  0  0  0  0  0  0  0
    9.0462    8.3172  -20.3518 H   0  0  0  0  0  0  0  0  0  0  0  0
    7.9989    6.7036  -16.5087 H   0  0  0  0  0  0  0  0  0  0  0  0
    4.9032    7.7310  -19.3279 H   0  0  0  0  0  0  0  0  0  0  0  0
    6.7972    1.8208  -21.7400 H   0  0  0  0  0  0  0  0  0  0  0  0
    3.6401   -0.7817  -20.3712 H   0  0  0  0  0  0  0  0  0  0  0  0
    7.3171   -2.4547  -21.8707 H   0  0  0  0  0  0  0  0  0  0  0  0
    5.6845    8.9008  -13.4950 H   0  0  0  0  0  0  0  0  0  0  0  0
    4.3426    7.7287  -13.7233 H   0  0  0  0  0  0  0  0  0  0  0  0
    4.1049    9.6630  -15.2612 H   0  0  0  0  0  0  0  0  0  0  0  0
    5.7346    9.3321  -15.9404 H   0  0  0  0  0  0  0  0  0  0  0  0
    7.1863    7.5040  -14.8427 H   0  0  0  0  0  0  0  0  0  0  0  0
    6.4713    6.5230  -13.5187 H   0  0  0  0  0  0  0  0  0  0  0  0
    6.0258   10.8557  -19.9901 H   0  0  0  0  0  0  0  0  0  0  0  0
    5.6586   11.6353  -21.5662 H   0  0  0  0  0  0  0  0  0  0  0  0
    7.0208   10.1138  -22.7796 H   0  0  0  0  0  0  0  0  0  0  0  0
    7.9240   10.1484  -21.2272 H   0  0  0  0  0  0  0  0  0  0  0  0
    3.3156    7.4552  -16.0258 H   0  0  0  0  0  0  0  0  0  0  0  0
    3.9699    8.4084  -17.4006 H   0  0  0  0  0  0  0  0  0  0  0  0
    6.5307    5.3487  -15.7589 H   0  0  0  0  0  0  0  0  0  0  0  0
    4.8898    5.4858  -15.0411 H   0  0  0  0  0  0  0  0  0  0  0  0
    4.0707    9.6421  -20.2834 H   0  0  0  0  0  0  0  0  0  0  0  0
    3.9361   10.1469  -22.0020 H   0  0  0  0  0  0  0  0  0  0  0  0
    7.0683    7.7968  -22.1557 H   0  0  0  0  0  0  0  0  0  0  0  0
    8.1785    0.2964  -16.8778 H   0  0  0  0  0  0  0  0  0  0  0  0
    6.6734    0.7335  -16.0003 H   0  0  0  0  0  0  0  0  0  0  0  0
    6.6290   -0.5107  -17.2951 H   0  0  0  0  0  0  0  0  0  0  0  0
    4.1383    2.4986  -21.4440 H   0  0  0  0  0  0  0  0  0  0  0  0
    3.3551    1.5080  -20.1664 H   0  0  0  0  0  0  0  0  0  0  0  0
    5.2981    3.9074  -17.0640 H   0  0  0  0  0  0  0  0  0  0  0  0
    6.0291    4.8211  -18.4269 H   0  0  0  0  0  0  0  0  0  0  0  0
    5.9844    3.0723  -19.9542 H   0  0  0  0  0  0  0  0  0  0  0  0
    3.3622    3.3220  -18.3990 H   0  0  0  0  0  0  0  0  0  0  0  0
    4.7664    1.2351  -17.9109 H   0  0  0  0  0  0  0  0  0  0  0  0
    3.6181    5.4602  -16.9163 H   0  0  0  0  0  0  0  0  0  0  0  0
    3.9846    6.1757  -18.3377 H   0  0  0  0  0  0  0  0  0  0  0  0
    3.2632    4.1229  -20.5949 H   0  0  0  0  0  0  0  0  0  0  0  0
  1  2  1  0  0  0  0
  1  3  2  0  0  0  0
  2  8  2  0  0  0  0
  3  9  1  0  0  0  0
  4  8  1  0  0  0  0
  4  9  2  0  0  0  0
  5 10  1  0  0  0  0
  5 11  2  0  0  0  0
  6 10  2  0  0  0  0
  6 12  1  0  0  0  0
  7 11  1  0  0  0  0
  7 12  2  0  0  0  0
  8 22  1  0  0  0  0
  9 23  1  0  0  0  0
 10 25  1  0  0  0  0
 11 34  1  0  0  0  0
 12 35  1  0  0  0  0
 13 24  1  0  0  0  0
 13 29  1  0  0  0  0
 13 31  2  0  0  0  0
 14 15  1  0  0  0  0
 14 16  1  0  0  0  0
 15 19  1  0  0  0  0
 16 20  1  0  0  0  0
 17 18  1  0  0  0  0
 17 21  1  0  0  0  0
 18 22  1  0  0  0  0
 19 23  1  0  0  0  0
 20 23  1  0  0  0  0
 21 32  1  0  0  0  0
 22 32  1  0  0  0  0
 23 30  1  0  0  0  0
 25 27  1  0  0  0  0
 26 28  1  0  0  0  0
 26 30  1  0  0  0  0
 27 28  1  0  0  0  0
 27 29  1  0  0  0  0
 28 33  1  0  0  0  0
  1 36  1  0  0  0  0
  2 37  1  0  0  0  0
  3 38  1  0  0  0  0
  4 39  1  0  0  0  0
  5 40  1  0  0  0  0
  6 41  1  0  0  0  0
  7 42  1  0  0  0  0
 14 43  1  0  0  0  0
 14 44  1  0  0  0  0
 15 45  1  0  0  0  0
 15 46  1  0  0  0  0
 16 47  1  0  0  0  0
 16 48  1  0  0  0  0
 17 49  1  0  0  0  0
 17 50  1  0  0  0  0
 18 51  1  0  0  0  0
 18 52  1  0  0  0  0
 19 53  1  0  0  0  0
 19 54  1  0  0  0  0
 20 55  1  0  0  0  0
 20 56  1  0  0  0  0
 21 57  1  0  0  0  0
 21 58  1  0  0  0  0
 22 59  1  0  0  0  0
 24 60  1  0  0  0  0
 24 61  1  0  0  0  0
 24 62  1  0  0  0  0
 25 63  1  0  0  0  0
 25 64  1  0  0  0  0
 26 65  1  0  0  0  0
 26 66  1  0  0  0  0
 27 67  1  0  0  0  0
 28 68  1  0  0  0  0
 29 69  1  0  0  0  0
 30 70  1  0  0  0  0
 30 71  1  0  0  0  0
 33 72  1  0  0  0  0
M  CHG  1  30   1
M  END
> <OMEGA_C>
lbkKQdTh8EDzD5PB8qoEQUTG/0DYM53BST32QLBW40Aot4vBfFq+QOQz9UBqhZjBTXLNQBF6Uz/O
bazBKRqUQNW5Jb/XSabB4LnWQPrqy78AFK3BPc7dQNyfAEFNGKDBvxTKQFJV5kCoPI7BfCakQHVu
Jj+CDajB/tbmQPBJl76g167Bc0etQA824r/12ajBh7bZQOFzwj+VC5DBG6+nQECtAkH78GLBKuya
QAcLDkFuynfBo0nIQNK84UCrVGfBYFi6QOnLKkHNcqjBoL/eQFSDHkFJm63B9EmHQIgY/EDCxoPB
PAy3QBZvwUDR83fBFqCTQNTkG0EL4anBNfPRQNJKB0F9fKvBinCmQMAA10Dlf4bBXuviQJwz3j4r
yIfBwC2KQEZt7D/Om6TBRLGiQF4SkUDtio/BmcKiQPR5KEA5+JvBWDqHQNs6cECEaJfBj5CvQMMl
3T+bMpPB7qCLQPiLt0DnL4zBuaH3QOjTBEDpk5TBMjCkQOItB0EHP63BzyJzQLClk0By3Z/BuGYH
QRjGAb4aw7LBo8qdQOKmQMDoHqfBbnEbQRLS70Cq5JDBDr0QQVwTBUGB0KLBNvf/QAWE1kDMEYTB
SOecQKRk90CFn5rBrYLZQOEQ6T+X663B/PdoQH0eSL8/+KLBcCXqQIYaHcBD967BX+e1QLVpDkF+
61fBmfaKQGpR90C1klvBYluDQLWbGkHhLXTBy4G3QDJQFUG6C3/BS/blQIog8ECxe23BexTPQKS8
0EBmTFjBDtPAQAmxLUG465/BKBO1QEcqOkGQh6zBOqrgQP7RIUGNPLbBBJH9QK1fIkFd0anBijJU
QMOQ7kDfNIDBSBJ+QKOIBkFrNIvBlPvQQHEoq0BIJHzB4HicQPWLr0B+qHDBMEOCQN9FGkFkRKLB
WOh7QOFZIkEcBLDB0i/iQJN/+UD2PrHB9doCQb3Dlz61BYfBNIzVQHDJOz+YAIDB1CDUQL28Ar9n
XIrBVW2EQPXoH0A9javBwbpWQIAHwT/eVKHBtYmpQDITekApg4jBUe7AQGBGmkBcapPBfoC/QKOg
REBGop/BqS1XQMCbVEA0MZPBK4aYQK4Ynj+ISY/BKo9nQI25rkCXVIfBdAR/QIGfxUCMs5LBA9lQ
QMnug0BuwqTBCeQLQQIZ60BEEpLBykIHQSKlAkE/2prBQIn2QLyG20D5movBGj3CQL3P/UAzNpfB
am7LQOdKSz/KnazBUq6TQFU8ML8cvKXBSOPVQMyBz79+4KzBJuTjQG+0B0H4Zp3B6j/LQPoB5kBt
143BAtCiQM5GHD/i4qfBmhjlQHqapL5pAq/BShatQN3K5r8AS6jBziHbQB/hxT8aUJDB5JWpQDiP
A0HZ12PBRl+bQFlMDkHI0HjBPm3IQMfH4UAiHmjBpo2dQNuTGEHFdrLBsNOxQD4UIUG2R6jBzryG
QLKu+0B66YPB0pG0QNAuwUD313fBwtGxQJuNAkFdq7PB6IPcQMCDFEF+i6fBiN6lQJJ31kD7o4bB
MPzlQJ7/+z5z6IfB196IQE3U5j8lZaTBfrWiQAvpkEDRx4/B7DSiQMm1JkBG/pvBHrOGQCXubUCt
TpfBTI+wQNNb2z+9RZPBksCLQLK5t0DVqozBhin4QJtOCEBp+5TB1F3dQJi6BUEJcrDBmqZuQLm8
kUBvu5/B6jkGQQQSFL5bRbPBDHOeQD4RQ8CsOabBuUccQSPb4kCsRJDBsiEUQd7lCEE6sp/BAvn9
QAZTx0Cj2ITBSHGhQPBLAUESqZnBy8PWQEQc5T+aZK7BqjNpQMDoU7/kH6LBuoLpQOmgHsClwa7B
ucu5QJJ9D0H4wVnBpC2NQHHl+kDJb1vBwgCEQHvyGkF9LXXBLG63QANgFUFBX4DBmzvmQNdp7kBS
B2/BLI3PQA+N0UBo6VjB1zJ1QM5YF0GZoLHBykmlQBTbIkE6V7nB2bm3QMtjMkER36jBZ2idQLHO
HUEbTaHBvUZUQDFi7kA9AYDBx7t6QFfnBUEVYIvBSI7MQMd5qEAZfnvBJKOYQDA/skCuKnDBGOOh
QPem7UBfdK7BjiKwQNQl+kB+BbzBfOP2QNUKIEGfaKjBSXkEQUhdzT59MYfBQ3DYQJTJSj/6JYDB
zWHYQJDt876TUorBUDiCQIFlHEDAWqvB5wBVQLQLuz/v4qDB+BGqQJSte0DdnYjBXqnAQCqgmUB5
25PBwkO+QM11Q0BX6J/BK99XQPzFUUC5zZLB1k6aQJeXmT+xQI/BQ6BlQJBFr0A1H4jBjTKBQJ4h
xkA7TpPBUqpLQElpgUCMa6TBg0AIQZzN7kB2EJXBGt4AQVkABkFyyZzBD5TzQEBX3EDlw43BY864
QAxvAEHpopbBQVLMQLpvPj/OcqzBUriRQKqSJ7/A7qXBKavTQFFg17+EWqzBd4nVQE/UCkGNZp3B
b03HQOh+5kAkS47BkNGiQMbGHj/8GKjBL9jkQGxg0L5he67BSAiqQBEI57/eH6jByrXYQLBSuD+F
XZDBnViwQKI8BEHtlmTBPYycQG/nDUEn63jBAjPPQH1s40CC12nBp7vPQG7MCkFyp7XBU2GrQC5X
EEFOLq7BBO2FQEqG+EBy1ILBxKO5QLscwUBGEHjBihDvQFaGHUHPGLTBQgHDQGZSG0H3BKXBRdyl
QAb41ED+WIbBqkvgQGTR6D6xPYfBhxuKQGUW7T9a8KTB3ayjQAZJkEAxzY/BySejQJajJ0DoSZzB
1k6IQLyYcEAI1ZfBqteuQNPi2j9PcZPBiZWLQK8ytUDG8YvBsx73QODmAkCdPpTBYgvkQDndJ0Fe
DKrBCyJ4QH58lEBoSqDBH4AGQSStkr5xYrLBOoaZQF6zQcBMDKbBfQQZQQKK5kBqu5TBRgEMQbV/
DUHoOaLBXhT/QK1ixkB4vofBs9eWQDeOAkHm1JfB4DbZQKlV3D9cNq7BBfhjQPx8P78kmKLBWmvm
QKNNJMC79q3BVRzCQDHNEEHAC1zBHoOWQFdO/ECCTFrBLDyFQBNPGkEJcnTBTuy1QEUQFUGkZYHB
9TDrQCdc8EBIVHLBlKDZQPRk1EAbzlrBdKPeQJcC90BeZrPBX5jEQNXrCUGM/b3BBF+UQP08G0GL
ArLB5JiaQPvjAUHuaqvBIcVZQAgg6kALmnvB/3VuQEdcA0Hb/onBIMTRQK45qUDbtXzB0xmgQAFt
sUB91W7BTQ8IQYaCF0F5xbPBzvDrQAD2KEF/vbrBAqGsQD+6JUHOpqDBPk4BQej82T5sS4XBuRzO
QFGIRj8UKIDBMZ/VQGE3DL8ZsYnBf6+FQDPPH0B8+6vBulBVQKxzxz86w6HBDY+rQHJDdkCyDInB
XGDBQD8gm0Baq5PBF13AQP43QkDP55/BZuVXQDlUVkCXyJPB3DCXQMN1oT9VbI/BIf1pQDfMqkDx
6IbBJ4V7QPxtw0CdOJLBxt1VQPZmhUBST6XB

> <OMEGA_E>
RL2bPlAlpj6knJg+

> <OMEGA_NBR>
    297633

$$$$
50214110
  -OEChem-04172616093D

 76 78  0     1  0  0  0  0  0999 V2000
    8.6015    7.4947  -18.5245 C   0  0  0  0  0  0  0  0  0  0  0  0
    7.6592    6.9731  -17.6221 C   0  0  0  0  0  0  0  0  0  0  0  0
    8.1799    8.2492  -19.6308 C   0  0  0  0  0  0  0  0  0  0  0  0
    5.8673    7.9337  -18.9489 C   0  0  0  0  0  0  0  0  0  0  0  0
    6.3508    0.6939  -21.5273 C   0  0  0  0  0  0  0  0  0  0  0  0
    4.5922   -0.7609  -20.6535 C   0  0  0  0  0  0  0  0  0  0  0  0
    6.6483   -1.7254  -21.5440 C   0  0  0  0  0  0  0  0  0  0  0  0
    6.2757    7.2270  -17.8026 C   0  0  0  0  0  0  0  0  0  0  0  0
    6.8018    8.4858  -19.8496 C   0  0  0  0  0  0  0  0  0  0  0  0
    5.0805    0.5309  -20.9317 C   0  0  0  0  0  0  0  0  0  0  0  0
    7.1389   -0.4335  -21.8198 C   0  0  0  0  0  0  0  0  0  0  0  0
    5.3708   -1.8878  -20.9705 C   0  0  0  0  0  0  0  0  0  0  0  0
    6.8339    1.4402  -18.0570 C   0  0  0  0  0  0  0  0  0  0  0  0
    5.4130    8.2459  -14.2913 C   0  0  0  0  0  0  0  0  0  0  0  0
    4.8772    8.8858  -15.5825 C   0  0  0  0  0  0  0  0  0  0  0  0
    6.3844    7.0913  -14.5925 C   0  0  0  0  0  0  0  0  0  0  0  0
    4.1952    7.8205  -16.4481 C   0  0  0  0  0  0  0  0  0  0  0  0
    5.7470    6.0459  -15.5375 C   0  0  0  0  0  0  0  0  0  0  0  0
    5.1864    6.6907  -16.8442 C   0  0  0  0  0  0  0  0  0  0  0  0
    7.1402    0.4634  -16.9258 C   0  0  0  0  0  0  0  0  0  0  0  0
    5.4280    8.2184  -23.4387 C   0  0  0  0  0  0  0  0  0  0  0  0
    4.9664    9.8790  -20.9503 C   0  0  0  0  0  0  0  0  0  0  0  0
    7.3278   10.0945  -21.7709 C   0  0  0  0  0  0  0  0  0  0  0  0
    4.2776    1.7393  -20.5175 C   0  0  0  0  0  0  0  0  0  0  0  0
    6.0943    7.8706  -22.1039 C   0  0  0  0  0  0  0  0  0  0  0  0
    5.1156    4.5300  -18.0181 C   0  0  0  0  0  0  0  0  0  0  0  0
    5.0760    2.5637  -19.4896 C   0  0  1  0  0  0  0  0  0  0  0  0
    4.2298    3.7029  -18.9350 C   0  0  2  0  0  0  0  0  0  0  0  0
    6.3003    9.0952  -21.1639 C   0  0  0  0  0  0  0  0  0  0  0  0
    5.5050    1.6972  -18.3736 N   0  0  0  0  0  0  0  0  0  0  0  0
    4.3683    5.7027  -17.5653 N   0  3  0  0  0  0  0  0  0  0  0  0
    7.7522    2.0451  -18.6003 O   0  0  0  0  0  0  0  0  0  0  0  0
    3.7561    4.5190  -20.0065 O   0  0  0  0  0  0  0  0  0  0  0  0
    8.3685   -0.2753  -22.3591 F   0  0  0  0  0  0  0  0  0  0  0  0
    4.8930   -3.1262  -20.7173 F   0  0  0  0  0  0  0  0  0  0  0  0
    9.6545    7.3144  -18.3663 H   0  0  0  0  0  0  0  0  0  0  0  0
    7.9905    6.3752  -16.7859 H   0  0  0  0  0  0  0  0  0  0  0  0
    8.9102    8.6507  -20.3177 H   0  0  0  0  0  0  0  0  0  0  0  0
    4.8122    8.0563  -19.1438 H   0  0  0  0  0  0  0  0  0  0  0  0
    6.7166    1.6835  -21.7579 H   0  0  0  0  0  0  0  0  0  0  0  0
    3.6212   -0.8854  -20.1974 H   0  0  0  0  0  0  0  0  0  0  0  0
    7.2515   -2.5917  -21.7721 H   0  0  0  0  0  0  0  0  0  0  0  0
    5.9406    9.0127  -13.7052 H   0  0  0  0  0  0  0  0  0  0  0  0
    4.5658    7.8566  -13.7076 H   0  0  0  0  0  0  0  0  0  0  0  0
    4.1485    9.6690  -15.3264 H   0  0  0  0  0  0  0  0  0  0  0  0
    5.7125    9.3311  -16.1428 H   0  0  0  0  0  0  0  0  0  0  0  0
    7.2880    7.4996  -15.0687 H   0  0  0  0  0  0  0  0  0  0  0  0
    6.6583    6.5991  -13.6477 H   0  0  0  0  0  0  0  0  0  0  0  0
    3.3597    7.3815  -15.8830 H   0  0  0  0  0  0  0  0  0  0  0  0
    3.8100    8.2953  -17.3625 H   0  0  0  0  0  0  0  0  0  0  0  0
    6.5111    5.3028  -15.8095 H   0  0  0  0  0  0  0  0  0  0  0  0
    4.9223    5.5467  -15.0077 H   0  0  0  0  0  0  0  0  0  0  0  0
    8.2250    0.4395  -16.7451 H   0  0  0  0  0  0  0  0  0  0  0  0
    6.6232    0.7884  -16.0109 H   0  0  0  0  0  0  0  0  0  0  0  0
    6.7929   -0.5421  -17.2057 H   0  0  0  0  0  0  0  0  0  0  0  0
    5.3180    7.3059  -24.0430 H   0  0  0  0  0  0  0  0  0  0  0  0
    4.4361    8.6551  -23.2504 H   0  0  0  0  0  0  0  0  0  0  0  0
    6.0513    8.9444  -23.9813 H   0  0  0  0  0  0  0  0  0  0  0  0
    4.6325   10.3035  -21.9085 H   0  0  0  0  0  0  0  0  0  0  0  0
    4.1966    9.1943  -20.5646 H   0  0  0  0  0  0  0  0  0  0  0  0
    5.1303   10.6912  -20.2268 H   0  0  0  0  0  0  0  0  0  0  0  0
    6.9289   10.5065  -22.7095 H   0  0  0  0  0  0  0  0  0  0  0  0
    7.5077   10.9131  -21.0585 H   0  0  0  0  0  0  0  0  0  0  0  0
    8.2734    9.5702  -21.9734 H   0  0  0  0  0  0  0  0  0  0  0  0
    4.0684    2.3600  -21.4012 H   0  0  0  0  0  0  0  0  0  0  0  0
    3.3293    1.4116  -20.0667 H   0  0  0  0  0  0  0  0  0  0  0  0
    5.4629    7.1360  -21.5826 H   0  0  0  0  0  0  0  0  0  0  0  0
    7.0781    7.4253  -22.3135 H   0  0  0  0  0  0  0  0  0  0  0  0
    5.4142    3.9248  -17.1494 H   0  0  0  0  0  0  0  0  0  0  0  0
    6.0132    4.8534  -18.5656 H   0  0  0  0  0  0  0  0  0  0  0  0
    5.9607    2.9867  -19.9878 H   0  0  0  0  0  0  0  0  0  0  0  0
    3.3898    3.2883  -18.3584 H   0  0  0  0  0  0  0  0  0  0  0  0
    4.7969    1.2697  -17.8116 H   0  0  0  0  0  0  0  0  0  0  0  0
    3.6378    5.3942  -16.9560 H   0  0  0  0  0  0  0  0  0  0  0  0
    3.9684    6.1493  -18.3657 H   0  0  0  0  0  0  0  0  0  0  0  0
    3.2026    4.0009  -20.5789 H   0  0  0  0  0  0  0  0  0  0  0  0
  1  2  1  0  0  0  0
  1  3  2  0  0  0  0
  2  8  2  0  0  0  0
  3  9  1  0  0  0  0
  4  8  1  0  0  0  0
  4  9  2  0  0  0  0
  5 10  1  0  0  0  0
  5 11  2  0  0  0  0
  6 10  2  0  0  0  0
  6 12  1  0  0  0  0
  7 11  1  0  0  0  0
  7 12  2  0  0  0  0
  8 19  1  0  0  0  0
  9 29  1  0  0  0  0
 10 24  1  0  0  0  0
 11 34  1  0  0  0  0
 12 35  1  0  0  0  0
 13 20  1  0  0  0  0
 13 30  1  0  0  0  0
 13 32  2  0  0  0  0
 14 15  1  0  0  0  0
 14 16  1  0  0  0  0
 15 17  1  0  0  0  0
 16 18  1  0  0  0  0
 17 19  1  0  0  0  0
 18 19  1  0  0  0  0
 19 31  1  0  0  0  0
 21 25  1  0  0  0  0
 22 29  1  0  0  0  0
 23 29  1  0  0  0  0
 24 27  1  0  0  0  0
 25 29  1  0  0  0  0
 26 28  1  0  0  0  0
 26 31  1  0  0  0  0
 27 28  1  0  0  0  0
 27 30  1  0  0  0  0
 28 33  1  0  0  0  0
  1 36  1  0  0  0  0
  2 37  1  0  0  0  0
  3 38  1  0  0  0  0
  4 39  1  0  0  0  0
  5 40  1  0  0  0  0
  6 41  1  0  0  0  0
  7 42  1  0  0  0  0
 14 43  1  0  0  0  0
 14 44  1  0  0  0  0
 15 45  1  0  0  0  0
 15 46  1  0  0  0  0
 16 47  1  0  0  0  0
 16 48  1  0  0  0  0
 17 49  1  0  0  0  0
 17 50  1  0  0  0  0
 18 51  1  0  0  0  0
 18 52  1  0  0  0  0
 20 53  1  0  0  0  0
 20 54  1  0  0  0  0
 20 55  1  0  0  0  0
 21 56  1  0  0  0  0
 21 57  1  0  0  0  0
 21 58  1  0  0  0  0
 22 59  1  0  0  0  0
 22 60  1  0  0  0  0
 22 61  1  0  0  0  0
 23 62  1  0  0  0  0
 23 63  1  0  0  0  0
 23 64  1  0  0  0  0
 24 65  1  0  0  0  0
 24 66  1  0  0  0  0
 25 67  1  0  0  0  0
 25 68  1  0  0  0  0
 26 69  1  0  0  0  0
 26 70  1  0  0  0  0
 27 71  1  0  0  0  0
 28 72  1  0  0  0  0
 30 73  1  0  0  0  0
 31 74  1  0  0  0  0
 31 75  1  0  0  0  0
 33 76  1  0  0  0  0
M  CHG  1  31   1
M  END
> <OMEGA_C>
mJ8JQTfU70AXMpTB8Bf1QIEj30D5+YzB6OACQZj8A0HiC53BMMG7QIHg/UBTl5fBfTnLQE2iMT/q
N6zBlvOSQH/HQr9oOqXBub7UQCrZ3L8OWqzB3dLIQGtD50Cna47BNqjZQMPFB0EOzJ7BG5OiQBjq
Bz8ddKfByHHkQHbx3b72jq7B8d2rQHyj8b+Zw6fB6a7aQPJWuD+/dJDBMTetQDPvA0FUqWTB1xGc
QBosDkEGUnnB8EzMQDzs4kDvemnBvj6GQEFB+kCvlYPBEee3QNN3wUCwmXjBXvelQE8a1kD1wIbB
cHzkQJRF7T4MaIfB87GtQJh+A0F3grvBiOyeQE0QHkEsmqfBfH3qQDWDIUHBKq7Bb+KIQIih3j/q
I6TBQwTDQL7b+0DS1LDBHLOjQH/1kEAaJZDBam6iQDQTJECp6pvBeFqHQJT8bEDmepfBzpvJQOeF
EUGfT6nBvCiwQFw/2T8P/ZLB0siLQDZ8tkC9hYzB0RH4QGjjAkBgzZTBcmRwQJubkEBSDaDBeuUF
QXrwjL5a37LBOJOcQBUTSMAQvaXB1XgaQT0P6kA67pLBUrL/QKgBzECJSYbBR5AOQS9pCkGmiqLB
Rv2ZQI7mAEF9JpnB/+3WQDt+1z80EK7BKsJnQDqnYr9JlKHB4QvoQKveJcBHLa7BpRm+QBY0EEFs
SFvBKRuSQHtp+0BHUlvBx8CEQEO0GkHgOHXBmMy2QENMFUGEJIHBpjfpQHX870BvGXHB7xDVQI8r
00APXVrBWgVXQBg17EDXIH7BVtZzQJO5BEFl5orBj1rQQJawqUDq83zBU4OdQIF+sUB8H3DBfZkD
QfkA4T7d9YXBjvHTQB3WST87FoDBs1/ZQMbHCr8vpYnB/SyqQKzJ6UASWMDBYfSNQE57CkHgALrB
5aPBQGYcD0Gw2b/BFT2UQDTbJEGyRK/B6EqGQM8bE0FkhKTBnCukQDUPK0GG0KHBQbndQNEaKEEh
rbXBfD/wQEKcLkHKd6jBw18EQZgfGUF2ya/B8S+CQJEKF0C3NavBMRNVQOKvtD+UiKDBBdCuQDJa
5EAmqazBiX/iQGGc7UD2gbLBTUGtQHcwe0D/MYnB7GvAQPtOm0BvhpTBc76+QLomP0D25p/BCPJY
QCd0UkD73ZLB93+ZQEyEoj86fo7BRNFoQKydrEDepYfBJ/p9QOrGxEDz7JLByPZMQI4HgECioaTB
rDAKQTVy7kAPdpPBZ/H1QGVR3kCpQIzBVJwDQeb7AkH1dZzBYxe9QOUe+0DWZZfBBdTMQDv8ST/l
eqzBaIKRQLgmHL/6ZKbBLKPTQIjL0b/KsazB/MjJQGb/5UDR+Y3BSBrbQJ17BkGigp7BDQqjQBhr
Kj/DTKjB6z3lQDynub5cka7BPq2pQNBr4b+cqqjBe7DXQLIruj/sTJDBw3usQHocBEHw2mPB+Qed
QBZ1DkHKxnjBD0vLQDrQ4kAhOWjBM0CHQIcr+0DcaIPB3Eu3QOx7wUASj3fBaGimQCQp1kA3VIbB
a8feQHQ76j49PIfBJmAGQUc4HEG3pbTBnWnBQDJxAUEEW7HB43WgQGeZHkHpPqbBHlSKQIDe8j9U
GqXBTcHrQEzvI0GAVqzBqQGjQLnBkEBnjI/B2R+jQNbLKUC+VZzBJJSIQFK8c0CiAJjBvwrLQPBi
EkH2lqjBwQKuQLAq3j9ae5PBm+eLQIYUt0CTJ4zBN2H2QN6XA0CCE5TBYsF9QHvDlkBQhaDBOtYG
QXxqd76BSrLBEK2YQCvwPsCF4KbB3AIbQSHC6EAMFpLB3BgAQQEIzEA6YoXBpnMPQZZrCUFD3qHB
oWibQJy1/UCEOJnBaAbaQCwx4j94Eq7BcBljQNEZNL9bMaPB503mQDKMIcCIWK7BaCG9QDo/EEF5
M1rBNZqQQNgs/ECW9VrBaBOGQG5GG0FDEnXBJ5W4QA46FUG2sYDB5sToQGJy70Czem/B7A3TQA0N
00Dr+FjBJ29XQB3a7UCOG37BCyd4QII9BUEl04rB/cHPQMCFqUAIo3vBfW+cQKa3sUDrW2/B+4MA
QfUg1j46O4XBf3nMQIhURj/+KIDB4O7TQOslCr+qxonBYRURQZeFKUEjx7bB2tQPQaYHD0EUPrHB
aPr7QAqYFkHD2rvBIei1QIKCCUHeoLjBtsveQGz18EDKMrPBrbeoQFGp7EB7cq7Bm8eVQCDnJkHl
h63BZMSHQLAgE0G3taPBKNalQHheKkGt15/B2TqGQC89I0DbG6zB6ndVQLgozT9lBaLBeUD9QByt
KUEgQ6XBLZHZQIE9MUHO36/Bmu+nQOj1dkCqpYjBLjXCQPzgmUCL7JLBSLnAQAyNQ0A82J/BRi5W
QPWxWkAwW5TBUQmWQE5OpT8xjY/BgKpnQJkWrkAJY4fB5BaAQE50xUDEqZLBrblcQPBliEB4y6XB
C+MIQeB78kDPcZPBP0v0QOTU4UBlCYzBCbEBQZ12A0EuypzBxgy6QPWq9kBjv5fBeSjMQDtsaT8T
Fq3BrwGVQLvyG7+WcabBKofXQJrGv79fw63Beb3HQOU85UDj9o3BRvrWQAn1BEGq9Z7BaJ6jQOJ/
Mz9/YqjBZDjmQOozQL6srq/BC9iuQKaP2r+JMKnBYJLbQDjuzD/emJDBDPSoQLGvA0FoFGPB+X+Z
QP0KDkEr/HfBW57JQAW840AtkmfBf0iFQP4w+kApPoPBjzu3QDu1wUBvAnfBlCKlQEOO1UBxBobB
3d3mQDMVBD9YgIjBjJKMQLjNLkER4azBMvbmQJBuIEFTq63BBau4QBZUAEHNc7HB/z+JQDI58D/k
r6TBfHqcQKvDHUHFB6XBZOihQKz8j0DYJo/B8FGiQBpUKkDJI5zBcX+GQDXTb0AKM5fBHSPFQA3o
EEEgyqjBowKxQEq53z+HnZPBYWCKQOWBtUBSdIvBzFX4QCjsDUBaGZXBX1pwQIdslEDlY5/BoboG
QeBgdDyA8LPBY7igQAWnPcDiU6fBOdcZQfGL70Cb8ZHBJ6f/QP1h0kA+2YTBqxwNQUoyCkHUVKLB
9IGYQANM9UDuzJnBeiHXQJpG9T+Yr67BPv9rQMsLRb/k2aLBMHXrQIL1FcBlzK/BCQe4QDz+D0FY
AVnBlVGNQAWm+UDim1rBapuBQFhtGkF9SXTB4+C0QNRhFUF4IYDBxWPmQLv08UCwzG7BpTjSQGQr
1EDpYVjBfsxSQChe7EBXQ37BiKx1QMTMBEEktorBrt3QQHkTq0CfL3vB1kSdQMh/sEDvz27BuO4E
QcRM3z6Hz4fBiDPZQOeURj+OqYDBpqvZQE7J5L6vMIvB7n1gQOrQNkHGhqnBCwCmQNKqOkGTPK7B
awyEQAIsJ0FihLTBzB/ZQGykKEFdpLTBG1nwQHVWLEHGoKfBI6UBQSlFF0HaLbDBaeSrQGKxCEFs
gbjBlBzVQCUZ7kDaw7PB7CSgQIrr6kBgPa7BcmuCQBE0IkD5h6vBj/VVQHL/wT+WP6HBtVCkQAjB
JUElcJ3BFV2CQDdCEkH0t6PBVSqpQEAYdkCXUIjBlfC/QOkjmkDr+ZLBAjG+QLOASEAQ+J/BLltW
QEI5UkBnEJPBdASbQL3WmT9JyI/BcH5nQJ/Iq0DZWIbBdD15QJRjw0ADypHBHCtOQBEphUBbYqTB
PJIIQXFL5UDSe5XBbuPyQHVf2ECx2Y3BWpcCQS9UAEFR2Z3B+Ru8QAabAEEMKpfBFBDJQF+3MD+e
wqzBKT+UQOzbRb/PV6TB0xnUQDyO3L9xmKzB2dHHQNtl5kB5jY7BXMDaQLEmCEHpkZ7B/ieiQCje
BD9vMqfBqB3iQAkt3L5vZq/BNAmtQFZg8r9xH6fBOhDcQGtWxT9fFpDBlkmuQGZQBEGGx2TBcaWb
QPJnDkFvN3nBnerMQPmB40DVD2rB0EaFQFR4+kDlX4PBleK2QG30wUDBdXjBF9WkQLFX1kBWuIbB
/hvnQFLSAj+gg4fBH3QGQdKgMUE2JpzBaATnQFt2GUHw37DBSZifQHwXHUFeVajBjISIQHF83D8W
zaPB0q/dQEGOMEHF95/BDOyiQNHskEAx9o/BO5miQGorJEAU0pvBXzuHQMXobEDlaJfBFVjQQG5p
G0ET26XByFixQIp72z/24pLBYL2KQDSHtkC0aYzB3/X4QEg3BkC5BZXBZetwQBewkEClAKDBT8UD
QcEKh77ap7TBqlOfQKyFSMDbg6TBFuIYQcQe2kDB6ZTBgXn8QAWQw0DMYYfBQkEOQTPxBEG1yqPB
zgCbQMYwBUH9G5jBZJXTQIIf1z/O/K7B4i9tQH3uZr8EB6DBxE3nQCFeJcD8o67Bhey/QH+iEEHx
0lvByd+TQHtj/ECj4lrBDViEQJXUGkHByHTBc621QHmlFUH9S4HBRiDpQA1I8EAGbnLBpAvXQO0R
1EDYE1vBxyBWQDdg7EDjWX3BZk9wQITBBEF3n4rBe1nOQI8oqUDhv3zBD1WcQF1Ns0CRhm/B5wkF
QZAd0D5O84bB9lDaQAawVz9zg3/BluLYQE346r6xp4nBi1kJQXUKQUGiJ5jBIZEJQSl+JEG5gJbB
2y0RQREbMEGzFaPBAezeQLpoJ0Gm2LXBru4EQevUGEFQrK/BZ1PcQLHCCkE66LTBqreZQKL9KkE5
h63B0OSUQLJwDkHmaKzBTL+NQJQGH0F3z6DB3d6AQMRHFUDP3qrBYVhVQCvtsT/H95/BsQDJQBFg
MkHh55jBJTrYQPn8PUHcfKXBQAWsQHIWe0AN+ojBwe2/QINRm0BhN5TBF2a+QGF6P0CGAKDBvD9Y
QK0HUkCa6ZLBnDebQK7UnT+FlI7B1dBmQGa5rEBfhIfBQsN7QBiQxED/15LBjThOQK8fgEDoq6TB

> <OMEGA_E>
mNgfPhDxIz540Ds+QGNhPg==

> <OMEGA_NBR>
    302672

$$$$
50214111
  -OEChem-04172616093D

 77 80  0     1  0  0  0  0  0999 V2000
    8.7394    7.4596  -18.1882 C   0  0  0  0  0  0  0  0  0  0  0  0
    8.4409    7.9441  -19.4672 C   0  0  0  0  0  0  0  0  0  0  0  0
    7.7083    7.0428  -17.3349 C   0  0  0  0  0  0  0  0  0  0  0  0
    6.0655    7.6493  -19.0259 C   0  0  0  0  0  0  0  0  0  0  0  0
    6.3833    0.8159  -21.5590 C   0  0  0  0  0  0  0  0  0  0  0  0
    4.6487   -0.6836  -20.7143 C   0  0  0  0  0  0  0  0  0  0  0  0
    6.7152   -1.5979  -21.6336 C   0  0  0  0  0  0  0  0  0  0  0  0
    7.1064    8.0144  -19.9151 C   0  0  0  0  0  0  0  0  0  0  0  0
    6.3521    7.1737  -17.7235 C   0  0  0  0  0  0  0  0  0  0  0  0
    5.1182    0.6214  -20.9627 C   0  0  0  0  0  0  0  0  0  0  0  0
    7.1858   -0.2927  -21.8817 C   0  0  0  0  0  0  0  0  0  0  0  0
    5.4432   -1.7919  -21.0572 C   0  0  0  0  0  0  0  0  0  0  0  0
    6.8577    1.5244  -18.0525 C   0  0  0  0  0  0  0  0  0  0  0  0
    5.1013   10.5365  -20.8598 C   0  0  0  0  0  0  0  0  0  0  0  0
    5.1957    8.2457  -14.2167 C   0  0  0  0  0  0  0  0  0  0  0  0
    6.2799   10.8894  -21.7755 C   0  0  0  0  0  0  0  0  0  0  0  0
    4.4088    9.2575  -21.3703 C   0  0  0  0  0  0  0  0  0  0  0  0
    4.8782    8.9335  -15.5541 C   0  0  0  0  0  0  0  0  0  0  0  0
    6.1555    7.0656  -14.4151 C   0  0  0  0  0  0  0  0  0  0  0  0
    7.3935    9.8276  -21.6850 C   0  0  0  0  0  0  0  0  0  0  0  0
    5.4121    8.1893  -21.8899 C   0  0  0  0  0  0  0  0  0  0  0  0
    4.2401    7.9321  -16.5239 C   0  0  0  0  0  0  0  0  0  0  0  0
    5.6159    6.0624  -15.4630 C   0  0  0  0  0  0  0  0  0  0  0  0
    6.8715    8.3852  -21.3866 C   0  0  0  0  0  0  0  0  0  0  0  0
    5.1805    6.7334  -16.8105 C   0  0  0  0  0  0  0  0  0  0  0  0
    7.1732    0.4386  -17.0282 C   0  0  0  0  0  0  0  0  0  0  0  0
    4.2981    1.8093  -20.5232 C   0  0  0  0  0  0  0  0  0  0  0  0
    5.0764    4.5568  -17.9570 C   0  0  0  0  0  0  0  0  0  0  0  0
    5.0836    2.6317  -19.4829 C   0  0  1  0  0  0  0  0  0  0  0  0
    4.2147    3.7475  -18.9127 C   0  0  2  0  0  0  0  0  0  0  0  0
    5.5264    1.7568  -18.3794 N   0  0  0  0  0  0  0  0  0  0  0  0
    4.3522    5.7638  -17.5506 N   0  3  0  0  0  0  0  0  0  0  0  0
    7.7741    2.0568  -18.6701 O   0  0  0  0  0  0  0  0  0  0  0  0
    3.7502    4.5825  -19.9740 O   0  0  0  0  0  0  0  0  0  0  0  0
    8.4108   -0.1030  -22.4212 F   0  0  0  0  0  0  0  0  0  0  0  0
    4.9874   -3.0423  -20.8223 F   0  0  0  0  0  0  0  0  0  0  0  0
    9.7663    7.4068  -17.8581 H   0  0  0  0  0  0  0  0  0  0  0  0
    9.2409    8.2670  -20.1170 H   0  0  0  0  0  0  0  0  0  0  0  0
    7.9500    6.6178  -16.3720 H   0  0  0  0  0  0  0  0  0  0  0  0
    5.0377    7.7351  -19.3465 H   0  0  0  0  0  0  0  0  0  0  0  0
    6.7344    1.8158  -21.7671 H   0  0  0  0  0  0  0  0  0  0  0  0
    3.6797   -0.8324  -20.2611 H   0  0  0  0  0  0  0  0  0  0  0  0
    7.3293   -2.4499  -21.8853 H   0  0  0  0  0  0  0  0  0  0  0  0
    5.4706   10.3687  -19.8374 H   0  0  0  0  0  0  0  0  0  0  0  0
    4.3794   11.3665  -20.8574 H   0  0  0  0  0  0  0  0  0  0  0  0
    5.6607    8.9765  -13.5386 H   0  0  0  0  0  0  0  0  0  0  0  0
    4.2599    7.8764  -13.7718 H   0  0  0  0  0  0  0  0  0  0  0  0
    5.9225   10.9470  -22.8142 H   0  0  0  0  0  0  0  0  0  0  0  0
    6.6890   11.8649  -21.4738 H   0  0  0  0  0  0  0  0  0  0  0  0
    3.8277    8.8204  -20.5449 H   0  0  0  0  0  0  0  0  0  0  0  0
    3.7305    9.5303  -22.1921 H   0  0  0  0  0  0  0  0  0  0  0  0
    4.1800    9.7652  -15.3785 H   0  0  0  0  0  0  0  0  0  0  0  0
    5.8089    9.3224  -15.9930 H   0  0  0  0  0  0  0  0  0  0  0  0
    7.1280    7.4499  -14.7565 H   0  0  0  0  0  0  0  0  0  0  0  0
    6.2838    6.5444  -13.4549 H   0  0  0  0  0  0  0  0  0  0  0  0
    7.9328    9.8092  -22.6436 H   0  0  0  0  0  0  0  0  0  0  0  0
    8.0850   10.1189  -20.8807 H   0  0  0  0  0  0  0  0  0  0  0  0
    5.0635    7.1996  -21.5599 H   0  0  0  0  0  0  0  0  0  0  0  0
    5.4184    8.2281  -22.9892 H   0  0  0  0  0  0  0  0  0  0  0  0
    3.3056    7.5548  -16.0831 H   0  0  0  0  0  0  0  0  0  0  0  0
    4.0178    8.4453  -17.4711 H   0  0  0  0  0  0  0  0  0  0  0  0
    6.4056    5.3281  -15.6799 H   0  0  0  0  0  0  0  0  0  0  0  0
    4.7439    5.5471  -15.0339 H   0  0  0  0  0  0  0  0  0  0  0  0
    7.4963    7.7041  -21.9830 H   0  0  0  0  0  0  0  0  0  0  0  0
    8.2604    0.2768  -16.9877 H   0  0  0  0  0  0  0  0  0  0  0  0
    6.8122    0.7530  -16.0378 H   0  0  0  0  0  0  0  0  0  0  0  0
    6.6740   -0.4970  -17.3204 H   0  0  0  0  0  0  0  0  0  0  0  0
    4.0751    2.4416  -21.3953 H   0  0  0  0  0  0  0  0  0  0  0  0
    3.3570    1.4575  -20.0752 H   0  0  0  0  0  0  0  0  0  0  0  0
    5.3072    3.9509  -17.0684 H   0  0  0  0  0  0  0  0  0  0  0  0
    6.0125    4.8423  -18.4593 H   0  0  0  0  0  0  0  0  0  0  0  0
    5.9606    3.0779  -19.9745 H   0  0  0  0  0  0  0  0  0  0  0  0
    3.3695    3.3083  -18.3625 H   0  0  0  0  0  0  0  0  0  0  0  0
    4.8239    1.3021  -17.8319 H   0  0  0  0  0  0  0  0  0  0  0  0
    3.5878    5.4912  -16.9663 H   0  0  0  0  0  0  0  0  0  0  0  0
    4.0003    6.2121  -18.3723 H   0  0  0  0  0  0  0  0  0  0  0  0
    3.2126    4.0714  -20.5676 H   0  0  0  0  0  0  0  0  0  0  0  0
  1  2  1  0  0  0  0
  1  3  2  0  0  0  0
  2  8  2  0  0  0  0
  3  9  1  0  0  0  0
  4  8  1  0  0  0  0
  4  9  2  0  0  0  0
  5 10  1  0  0  0  0
  5 11  2  0  0  0  0
  6 10  2  0  0  0  0
  6 12  1  0  0  0  0
  7 11  1  0  0  0  0
  7 12  2  0  0  0  0
  8 24  1  0  0  0  0
  9 25  1  0  0  0  0
 10 27  1  0  0  0  0
 11 35  1  0  0  0  0
 12 36  1  0  0  0  0
 13 26  1  0  0  0  0
 13 31  1  0  0  0  0
 13 33  2  0  0  0  0
 14 16  1  0  0  0  0
 14 17  1  0  0  0  0
 15 18  1  0  0  0  0
 15 19  1  0  0  0  0
 16 20  1  0  0  0  0
 17 21  1  0  0  0  0
 18 22  1  0  0  0  0
 19 23  1  0  0  0  0
 20 24  1  0  0  0  0
 21 24  1  0  0  0  0
 22 25  1  0  0  0  0
 23 25  1  0  0  0  0
 25 32  1  0  0  0  0
 27 29  1  0  0  0  0
 28 30  1  0  0  0  0
 28 32  1  0  0  0  0
 29 30  1  0  0  0  0
 29 31  1  0  0  0  0
 30 34  1  0  0  0  0
  1 37  1  0  0  0  0
  2 38  1  0  0  0  0
  3 39  1  0  0  0  0
  4 40  1  0  0  0  0
  5 41  1  0  0  0  0
  6 42  1  0  0  0  0
  7 43  1  0  0  0  0
 14 44  1  0  0  0  0
 14 45  1  0  0  0  0
 15 46  1  0  0  0  0
 15 47  1  0  0  0  0
 16 48  1  0  0  0  0
 16 49  1  0  0  0  0
 17 50  1  0  0  0  0
 17 51  1  0  0  0  0
 18 52  1  0  0  0  0
 18 53  1  0  0  0  0
 19 54  1  0  0  0  0
 19 55  1  0  0  0  0
 20 56  1  0  0  0  0
 20 57  1  0  0  0  0
 21 58  1  0  0  0  0
 21 59  1  0  0  0  0
 22 60  1  0  0  0  0
 22 61  1  0  0  0  0
 23 62  1  0  0  0  0
 23 63  1  0  0  0  0
 24 64  1  0  0  0  0
 26 65  1  0  0  0  0
 26 66  1  0  0  0  0
 26 67  1  0  0  0  0
 27 68  1  0  0  0  0
 27 69  1  0  0  0  0
 28 70  1  0  0  0  0
 28 71  1  0  0  0  0
 29 72  1  0  0  0  0
 30 73  1  0  0  0  0
 31 74  1  0  0  0  0
 32 75  1  0  0  0  0
 32 76  1  0  0  0  0
 34 77  1  0  0  0  0
M  CHG  1  32   1
M  END
> <OMEGA_C>
b9QLQQi17kBkgZHBCg4HQbI1/kDpvJvBDar2QNNe4UDxrYrBfRjCQAbH9ED+NJjB2EPMQO3fUD/C
eKzBI8KUQDj+Lr/rtqXB3eLWQNWHzL+sEa3B3mfjQMg6AEEXUp/BN0TLQDCP5UCxyY3BMcijQEwR
Hz+Rs6fBBvLlQDfelb6qDa/BFi+uQM5c5b8ndajBNnLbQIggwz9ua5DBrz2jQIOVKEH54KbBkUOm
QDjuA0F8d2PB2/TIQPI6LkEoNK7BBBWNQLEeFEFP9qrBUhqcQIvvDkF03XjB/vnEQEgZ4kBApGbB
P5fsQPc9HUH5eq3B8y+tQHwHA0FzHq/BOK+HQOzT/UDoMITBNrWzQFH/wUCbaHfBV+PbQK8pBkGo
F6vBo8alQOd310DVe4bBi4rlQH6U4D7OOYjBpomJQJmY5z+BL6TBOnKiQJLRkUDwp4/BtqyiQMRt
KEDt3JvB9N6GQGTWb0AeTZfBe9iwQGPe4D/vCJPBU0WLQDZxuECvZ4zBDcX4QOGiA0B0XJXBqQJw
QNyjkkDYyp/Bz5IGQeD40r2iXrPBIJmfQG+1QsAglKbB3UIcQd0E7UBV3Y7Bq9oTQZ1FBEGa76DB
MGb+QObE00DG+YLBLzWhQAaG90CKxZrB9X/XQAZt6D8AI67BAoFrQPEaVb/NFqLBo4nqQIHLHMAJ
Fa/B/Q6vQC3mJUHxsp7BOSSMQDvdNUHo26bBhyS1QJSfD0E5nljBZVGIQHoL/EBSWVzBdYW9QL0m
L0GBg7bBBwzWQMLWPUFvyqvBdvh0QDEgDUEGXKTBDsBuQDJ8GEFuibHB1sKFQDc+HEGADnbBG+K5
QIgoFUFQ43/BxxjkQGxl7kCUGmzByhTJQLJr0UBvR1fBwdn9QFHyHEEAJrXBMFwBQfXmIUG4C6fB
WwiiQN9i5kC1eqzBlGOtQHymA0HP6bfBOo9TQNLA8UAvqoDBiJGAQNcfB0HPxIvB9vrMQKd/qkDY
4HrBFs6XQD+CsUDDinDB1uHvQOmH9kAk3a/BwioEQcG4jT7j5ofB8f3ZQGnFQD9zTYDBBJHVQGx4
/r4mkIrBNGeCQApDHECPKavBo9lWQOOPuj8DmqDB8dSpQG3bfEAijIjBI2bAQIT0mkC4rJPBib2+
QJ78REC2y5/BxKVXQGm6U0Bb5pLBWV2aQJurpj+4p47BpZ5lQCm4r0AVu4fBwQKAQMzJxkCJ+pLB
4JpNQNVIgkBgiqTBaIoLQYWv60D/NZLBwQkGQZfJAEHqnpvBctL2QN6w3ECKSIvB5anAQPRK90DX
bpfBd4LKQMycST+GxqzBoM6TQIDzM781f6XBJPLVQJDZz7+eyqzB16/gQPy1A0EOLZ7B9/vKQC30
40AyrY3B6EWiQJhDGT8u3KfB7HTkQJEepb5mJa/BXoqtQBgR6L9XA6jBiybbQPj+xz/Pe5DBwOeQ
QJ5nGkGZlbfBtlypQO2jBUF3+2TBMZykQPJhK0HZIbDBbXixQJSmCEFWN7rBSgScQK5GD0E8mHrB
npbHQDra5EAj5mfBp92zQBz9IEHbxqXBCfnAQPS6+0B/9q/BoNCGQNMf/EC2N4TBoja0QN2xwkBS
A3fByAPUQH+8DkEKT6jBX6mlQMoA1kBYZIbBA0nmQMfc/D57O4jBHz6IQBV35T8KXKTBL2CiQEA+
kEDnio/BTe6hQP/yJkDxGZzBCciGQObabkDucJfBkYGwQJQH3T/UXJPByz6LQPyntkDYMozB0f33
QKG2CUAnL5XBVlxyQPISk0C14p/BILwFQWgTDb58lLPB0KefQEfYQ8B2taXBuSocQelS5kCYRpDB
5lwSQW7nBkEG2aDBLX7/QJuMy0DdGYTBSIifQNTW+UDDzpnBWFnVQHxb5D+Ptq7Bn/5pQA8MWb8Z
wqHBBMzpQJiEHsA9pq7BY+tpQGY3E0HYnrPB8buGQDUnIkG5EL/BftC5QLv9EUHwhFvBb4aMQJNQ
AEGoaFzBfPO/QJ76MkEwK7TBdVyMQKiUN0GKQ67B9SiiQGNG+UBkYr/BYv7MQLa0D0Haar7B7zyF
QAJqHEEu3nfB1364QKp6FUGub4HBbfzlQBg48ED5tm7B7pTNQOAu1kDtLljBIq3DQGQZLUH/wqDB
rjSYQO9YGkHpdqHBIdylQEGz60C6CKzBW6rZQOXv40BG87HBm25UQHQb8EAOD4DBPbt6QPI0BUG3
54vBEXzMQLvzqUC7FXrB7FWYQHketEDTHW/BSJLwQPXCFUF5EazBcqIEQX+fyz66oofBSijZQF03
SD9LZoDB+XLYQFYj8L6qtYrBFBOBQHYgG0AoV6vBCElUQNh6uT/yt6DBHCmpQLhLeED8hIjBSaXA
QNlxmUB2ZpPBauG9QBQaQ0BYIaDBjDBWQMFlU0BbOpPBVWGaQBrHmz91RI/BJVFmQDW7rUCDbYfB
N+V+QNPfxEAGu5LBpvpPQOZxg0ByyaTBu58JQTVY60CzYJPBLuICQd5AAEHdq5zBPMj0QO5D3EBp
BYzBdY+7QFrV9UAFgJfB0r7JQOgmNz/0Aa3BqPqSQJhyNL+H6KTBEtnSQAZf2r+Ew6zBVX/ZQM43
AkGt357B5nvIQK5640BW0o3BEyWiQO+BEz9Qs6fBLijiQLRn2b5Ce6/B3R+rQGA57L9jiqfBFzXb
QDKVzz/dM5DB+tLYQAOtNUF62rTBZaysQMqJBUGcpWTB5D/VQI1VH0E++rnBeOK6QDZuN0HZJKvB
dwedQBQOD0Ex7XnBKp/KQHei5EAWQWjBRv7iQK01DkFR/rHB2JjHQDvrJkErzKLBFm2GQCRn+0AW
iIPBReC1QOVKwkBo13bBqnvIQD0jEEE7n6fBmgGlQK5x1UBTGobB5GnlQKZyGD9Ri4fB8xaJQK7A
5j81f6TB+LKiQL6zkEB1v4/BMQCjQI8xKEDvXZzBo82HQLnwcECv4JfB3/SwQEcd4T9DfZPBZn6K
QFKatUBFwYvBoYP4QITiDEBvzJTBat12QAF4lEDiXKDBVxIEQe6/k74LibTBXAucQAbNRMDCGaXB
QnoaQXGk5kAm4JHBMoYOQV7hBkE2IaLBQxT/QH4hy0Ak+YTBPtuZQFu0+EBxRZnBNkzVQO0x2T8G
K6/Bq7ppQMdyT78OwaDBjJDlQC85JcAyr67BDQT6QARaOEEuP7LBqujPQA7gQUG9yrrByhC+QPTy
EUFMslvBScyQQKw9AEHLS1vBtOGzQMpzHEFyYbzB8g3qQHWVHkHkEMHB4Ga9QP+OR0F4rafBsbSZ
QIWENEFcsq3BroeGQOUxHEGzrXbBD5C4QF05FUHxfoHBYE3oQCUB8EBg0W/B+CjSQOsR1kBgrljB
kOfdQOiX/ED8h7XBNI8CQedJEEFJGrDBDJ7nQNXaKkG3t5/BylWwQJdVJ0E9MpzBitdVQFxJ70Dv
5n3BNzp2QL29BEG7FYvBN+7NQFSrqUAChXrBs+2aQAOYs0AsOm7Bo1+nQNZWC0HyZqnBjScEQSPz
Az80lYbBpPnWQHvxaT/j3X/Bzk7YQGErxL653onBWq2CQH6WGkCmoKvBHjFVQONnvz9y2qDBhKiq
QODDdkDECInBXV3AQJnem0APk5PB8CG/QPlmQ0D6aqDBCfBWQMAKVkAM4pPB8JeaQOEUnj97l4/B
KCJoQFX6qkBQtIbB8e14QIIBxECF+pHBJU1VQLQkhUAWaaXB/YQJQZZU6UCqgZPB1hADQTZ9AEGT
f5zBKFf0QHr72kB5EozBchu8QGdH+0A6rJbBp23KQCrsPj+Bo6zBFF2SQN70ML+mUaXB8NDTQMNO
1r90eazB50naQNskBUF76Z3BhFjIQJv75EDRg43B0/2hQPxZGD/yvqfBnHbjQICexr73567BpSir
QAeU6b9svafB+nfbQIr/vj8G5pDBdSK+QKEcG0HG1L3Bdp6sQAhiBkEyImXB3K2fQIMeC0EzVLjB
m3bRQBBGK0FV07XBv8ObQFdqD0GxZXrBIivKQBvS5UCEgmjBdMi2QBdJ/0ADO6/BL6ToQCGAH0E/
z6zBphWFQLEx+0A/bYPByPO0QG0Kw0A4pnbBfHnIQIF9EEGDZKfBgWSkQBje1UDlC4bBl6DlQP6b
Bz/oxYfB1tSIQOX+5z88ZaTB3aCiQFTEkEAujo/BeMyiQOsUKEAILJzBsMOHQH7mcEDSr5fBAdSw
QNFr4D+dTpPBdnSKQNUXtkAz24vBbrj4QEaIBUA2ZZXBMFx3QGBzlEC2M6DB9lUFQcAydr58UrPB
7xycQG6pQ8D8YqXB8z4aQeck4kBcSpLB+bkOQebzBUF/QqLBCUn+QM9KyEA9PoXBr4yaQFV+AEGZ
KpjBcR/WQAWN3T9jo67BbMJmQFFuTr+cmqHBDf3mQO/mIsBRPa7BKlLYQKMnEkFwpMHB+S2sQDn3
I0F7+MPBMLC+QET7EkFdzVzBKTqRQI52AUE3PFvBqvKDQCvPE0HKFrXBI7GUQJaH/kCXOb7BV1To
QMCpNUGtCrrBcqW3QDAXNUEQaLLBzgyFQH12HEHAJnfBG7C2QPaVFUFU9IHBjM/nQBag8EB0UHDB
DtvRQGXS10Bb01jBXz6gQO8i6kD4BKvB+E/RQIEq7ECufLLBYrIBQXQoFkEEHLDBoPf0QGoaK0Ey
9KbB3O5UQNzD7kBaKH3Bl/9wQKg2BEEl84rB7aXMQBL0qUCbHnrBi9aZQB0KtUB34G3BdFCtQLVL
GkHtsKTBEDQEQUw8AT96bobBgXrVQEdiXj9mcIDBb0/aQLjy9L5A3onBDUyCQJb7G0Chc6vBmcxU
QOBvvz9+xaDBKeqpQASid0DyuIjB0KjAQIlVm0BET5PBzPu+QM1HQ0BtM6DBFKJWQGFOVkDytZPB
eVSaQF+MqT+gxI7BkWVmQOPrq0An/IbBffx6QJJsxECoO5LBLNZVQK0qhUD8QqXB

> <OMEGA_E>
1KWNPng8kD7wdJc+WJONPg==

> <OMEGA_NBR>
    307766

$$$$
50214113
  -OEChem-04172616093D

 74 77  0     1  0  0  0  0  0999 V2000
    8.5347    7.5923  -18.5344 C   0  0  0  0  0  0  0  0  0  0  0  0
    8.0550    8.0437  -19.7763 C   0  0  0  0  0  0  0  0  0  0  0  0
    7.6386    7.1239  -17.5578 C   0  0  0  0  0  0  0  0  0  0  0  0
    5.7820    7.5821  -19.0552 C   0  0  0  0  0  0  0  0  0  0  0  0
    6.3990    0.7839  -21.5743 C   0  0  0  0  0  0  0  0  0  0  0  0
    4.5812   -0.6366  -20.7685 C   0  0  0  0  0  0  0  0  0  0  0  0
    6.6502   -1.6410  -21.5817 C   0  0  0  0  0  0  0  0  0  0  0  0
    6.6645    8.0104  -20.0549 C   0  0  0  0  0  0  0  0  0  0  0  0
    6.2410    7.1611  -17.7956 C   0  0  0  0  0  0  0  0  0  0  0  0
    5.1040    0.6459  -21.0289 C   0  0  0  0  0  0  0  0  0  0  0  0
    7.1750   -0.3585  -21.8390 C   0  0  0  0  0  0  0  0  0  0  0  0
    5.3508   -1.7788  -21.0529 C   0  0  0  0  0  0  0  0  0  0  0  0
    6.7737    1.5316  -18.0006 C   0  0  0  0  0  0  0  0  0  0  0  0
    5.3283    8.2867  -14.2591 C   0  0  0  0  0  0  0  0  0  0  0  0
    7.1538   10.4091  -21.9933 C   0  0  0  0  0  0  0  0  0  0  0  0
    5.8276   10.7288  -21.2650 C   0  0  0  0  0  0  0  0  0  0  0  0
    4.8565    8.9093  -15.5811 C   0  0  0  0  0  0  0  0  0  0  0  0
    6.3373    7.1547  -14.5071 C   0  0  0  0  0  0  0  0  0  0  0  0
    7.0440    8.9385  -22.4295 C   0  0  0  0  0  0  0  0  0  0  0  0
    5.0048    9.4362  -21.3191 C   0  0  0  0  0  0  0  0  0  0  0  0
    4.2001    7.8350  -16.4506 C   0  0  0  0  0  0  0  0  0  0  0  0
    5.7715    6.0800  -15.4673 C   0  0  0  0  0  0  0  0  0  0  0  0
    6.0622    8.3224  -21.4297 C   0  0  0  0  0  0  0  0  0  0  0  0
    5.1843    6.6811  -16.7815 C   0  0  0  0  0  0  0  0  0  0  0  0
    7.0328    0.4700  -16.9370 C   0  0  0  0  0  0  0  0  0  0  0  0
    4.3207    1.8712  -20.6246 C   0  0  0  0  0  0  0  0  0  0  0  0
    5.0851    4.4923  -17.9146 C   0  0  0  0  0  0  0  0  0  0  0  0
    5.0965    2.6398  -19.5373 C   0  0  1  0  0  0  0  0  0  0  0  0
    4.2530    3.7746  -18.9697 C   0  0  2  0  0  0  0  0  0  0  0  0
    5.4693    1.7251  -18.4401 N   0  0  0  0  0  0  0  0  0  0  0  0
    4.3441    5.6602  -17.4381 N   0  3  0  0  0  0  0  0  0  0  0  0
    7.7233    2.0854  -18.5449 O   0  0  0  0  0  0  0  0  0  0  0  0
    3.9104    4.6819  -20.0188 O   0  0  0  0  0  0  0  0  0  0  0  0
    8.4278   -0.2230  -22.3287 F   0  0  0  0  0  0  0  0  0  0  0  0
    4.8453   -3.0076  -20.8056 F   0  0  0  0  0  0  0  0  0  0  0  0
    9.5950    7.6055  -18.3299 H   0  0  0  0  0  0  0  0  0  0  0  0
    8.7455    8.4161  -20.5186 H   0  0  0  0  0  0  0  0  0  0  0  0
    8.0157    6.7344  -16.6237 H   0  0  0  0  0  0  0  0  0  0  0  0
    4.7212    7.5751  -19.2578 H   0  0  0  0  0  0  0  0  0  0  0  0
    6.7933    1.7663  -21.7882 H   0  0  0  0  0  0  0  0  0  0  0  0
    3.5908   -0.7422  -20.3511 H   0  0  0  0  0  0  0  0  0  0  0  0
    7.2441   -2.5188  -21.7897 H   0  0  0  0  0  0  0  0  0  0  0  0
    5.8060    9.0652  -13.6461 H   0  0  0  0  0  0  0  0  0  0  0  0
    4.4579    7.8805  -13.7229 H   0  0  0  0  0  0  0  0  0  0  0  0
    7.2767   11.0613  -22.8705 H   0  0  0  0  0  0  0  0  0  0  0  0
    8.0075   10.5448  -21.3130 H   0  0  0  0  0  0  0  0  0  0  0  0
    6.0224   11.0165  -20.2213 H   0  0  0  0  0  0  0  0  0  0  0  0
    5.2954   11.5442  -21.7769 H   0  0  0  0  0  0  0  0  0  0  0  0
    4.1274    9.7056  -15.3708 H   0  0  0  0  0  0  0  0  0  0  0  0
    5.7199    9.3341  -16.1141 H   0  0  0  0  0  0  0  0  0  0  0  0
    7.2499    7.5816  -14.9487 H   0  0  0  0  0  0  0  0  0  0  0  0
    6.5827    6.6795  -13.5459 H   0  0  0  0  0  0  0  0  0  0  0  0
    6.6542    8.8639  -23.4554 H   0  0  0  0  0  0  0  0  0  0  0  0
    8.0231    8.4404  -22.3721 H   0  0  0  0  0  0  0  0  0  0  0  0
    4.4055    9.3162  -20.4045 H   0  0  0  0  0  0  0  0  0  0  0  0
    4.3406    9.4325  -22.1958 H   0  0  0  0  0  0  0  0  0  0  0  0
    3.3343    7.4214  -15.9127 H   0  0  0  0  0  0  0  0  0  0  0  0
    3.8619    8.2953  -17.3908 H   0  0  0  0  0  0  0  0  0  0  0  0
    6.5822    5.3853  -15.7319 H   0  0  0  0  0  0  0  0  0  0  0  0
    4.9733    5.5308  -14.9465 H   0  0  0  0  0  0  0  0  0  0  0  0
    5.6084    7.4158  -21.8566 H   0  0  0  0  0  0  0  0  0  0  0  0
    8.1170    0.3438  -16.8005 H   0  0  0  0  0  0  0  0  0  0  0  0
    6.5778    0.7849  -15.9863 H   0  0  0  0  0  0  0  0  0  0  0  0
    6.5901   -0.4849  -17.2568 H   0  0  0  0  0  0  0  0  0  0  0  0
    4.1769    2.5204  -21.5009 H   0  0  0  0  0  0  0  0  0  0  0  0
    3.3405    1.5661  -20.2295 H   0  0  0  0  0  0  0  0  0  0  0  0
    5.2811    3.8113  -17.0733 H   0  0  0  0  0  0  0  0  0  0  0  0
    6.0399    4.8156  -18.3548 H   0  0  0  0  0  0  0  0  0  0  0  0
    6.0064    3.0635  -19.9874 H   0  0  0  0  0  0  0  0  0  0  0  0
    3.3482    3.3593  -18.5019 H   0  0  0  0  0  0  0  0  0  0  0  0
    4.7396    1.2141  -17.9859 H   0  0  0  0  0  0  0  0  0  0  0  0
    3.6569    5.3495  -16.7814 H   0  0  0  0  0  0  0  0  0  0  0  0
    3.8892    6.0843  -18.2211 H   0  0  0  0  0  0  0  0  0  0  0  0
    3.3919    4.2287  -20.6733 H   0  0  0  0  0  0  0  0  0  0  0  0
  1  2  1  0  0  0  0
  1  3  2  0  0  0  0
  2  8  2  0  0  0  0
  3  9  1  0  0  0  0
  4  8  1  0  0  0  0
  4  9  2  0  0  0  0
  5 10  1  0  0  0  0
  5 11  2  0  0  0  0
  6 10  2  0  0  0  0
  6 12  1  0  0  0  0
  7 11  1  0  0  0  0
  7 12  2  0  0  0  0
  8 23  1  0  0  0  0
  9 24  1  0  0  0  0
 10 26  1  0  0  0  0
 11 34  1  0  0  0  0
 12 35  1  0  0  0  0
 13 25  1  0  0  0  0
 13 30  1  0  0  0  0
 13 32  2  0  0  0  0
 14 17  1  0  0  0  0
 14 18  1  0  0  0  0
 15 16  1  0  0  0  0
 15 19  1  0  0  0  0
 16 20  1  0  0  0  0
 17 21  1  0  0  0  0
 18 22  1  0  0  0  0
 19 23  1  0  0  0  0
 20 23  1  0  0  0  0
 21 24  1  0  0  0  0
 22 24  1  0  0  0  0
 24 31  1  0  0  0  0
 26 28  1  0  0  0  0
 27 29  1  0  0  0  0
 27 31  1  0  0  0  0
 28 29  1  0  0  0  0
 28 30  1  0  0  0  0
 29 33  1  0  0  0  0
  1 36  1  0  0  0  0
  2 37  1  0  0  0  0
  3 38  1  0  0  0  0
  4 39  1  0  0  0  0
  5 40  1  0  0  0  0
  6 41  1  0  0  0  0
  7 42  1  0  0  0  0
 14 43  1  0  0  0  0
 14 44  1  0  0  0  0
 15 45  1  0  0  0  0
 15 46  1  0  0  0  0
 16 47  1  0  0  0  0
 16 48  1  0  0  0  0
 17 49  1  0  0  0  0
 17 50  1  0  0  0  0
 18 51  1  0  0  0  0
 18 52  1  0  0  0  0
 19 53  1  0  0  0  0
 19 54  1  0  0  0  0
 20 55  1  0  0  0  0
 20 56  1  0  0  0  0
 21 57  1  0  0  0  0
 21 58  1  0  0  0  0
 22 59  1  0  0  0  0
 22 60  1  0  0  0  0
 23 61  1  0  0  0  0
 25 62  1  0  0  0  0
 25 63  1  0  0  0  0
 25 64  1  0  0  0  0
 26 65  1  0  0  0  0
 26 66  1  0  0  0  0
 27 67  1  0  0  0  0
 27 68  1  0  0  0  0
 28 69  1  0  0  0  0
 29 70  1  0  0  0  0
 30 71  1  0  0  0  0
 31 72  1  0  0  0  0
 31 73  1  0  0  0  0
 33 74  1  0  0  0  0
M  CHG  1  31   1
M  END
> <OMEGA_C>
8o0IQYP08kBzRpTBY+EAQS2zAEHeNZ7Bym/0QL3240BddozB9gW5QC6g8kAjcZjBPsTMQLCsSD9D
mKzBhZmSQLf2Ir/6JabBx87UQP4L0r9Qp6zB9EPVQHMqAEF2cKDBabbHQO4n5UBvXY7BnVOjQNtc
JT9HO6jBY5nlQCKTt75Otq7BZTmrQLKu479hbKjBgMLYQBgNxD8iAZDBbYGqQFSWBEEbJWTBHOzk
QLGLJkFK8q/BS3u6QC2pK0HDHqrBaWibQIqMDkFETHnB/srKQD3z5EApHWjBOWjhQPQDD0GGb7PB
nCegQLD6FkF2jarB1maGQHO4+kDumoPBu6+4QKmPwkD9eXfBWf3BQKAoBUEPcKvBjOWlQIfL1UCG
QIbBcwzhQDKi8D79fofBJkOKQGSD7z8q/6TB8LiiQPLAj0AIUY/BWRajQN3yKEB2TJzB+hiIQGiT
cUDgwZfBNgSvQPzQ3D9ghZPBOAOLQDYgtUAngYvB8iT3QPJ3BUD0W5TBcEN6QFbSlUCJJqDBJdgG
QUhbZL4jobLBowybQNp7QMDjcabBRoUZQW1g80Cqo5LBfu0LQWGoBkEbJqTBM0AAQZOA10BE/YTB
vxOXQG9n8kDrD5rB3WLZQIwW4j8jTq7Bxc9lQAL/Pb/6zqLBcc/nQF8zIcBmUa7Bdcq5QCMLEUFW
VlrBOqeOQDEt/EAXkVvBBdvoQCb7MEHV9rbBux4AQZC3KEEHgarBerfAQGZDMEFIxaHBMnSpQAu1
OEECN67BWxOEQElKG0HP7nXBcAm3QJ1YFUGn6YDBzf7nQHSc8kC3LW/BUaXSQMO+1UDfu1jBZe/U
QJ3SDUGipLvBgV4AQd0LB0EH+rLBLfqMQFEPFUFoPKPB3uWKQIvrFkEWkbHBfWRVQFl87UCWmn7B
ISp3QIq5BEFLIIvBrKHSQItUrECttXvBNCWfQPv7sEDIJG/BZHizQF5O7UBA2q7BC98BQWcMsD5w
Z4bBmn3SQFnwSD/dx3/BueHSQKk/+L7tDYrBHKmFQPNNIUDNAazBkspVQG52yD/31aHBr/6oQCfs
c0AJlojB/UbBQCsZmkCQ1pLBSzTAQDQQREA+5p/BukhWQEf/VkD8A5TBfKqXQFNmmz8S44/BSAtq
QPEuq0BLQIbBn+h4QDSywkDexJHBqBRZQLNRh0DRYqXBc9ELQUzT7kD4HJLBj8UGQddiAEGAEZzB
0vz2QHZk4EDjS4vBLJ7BQJAo90DySZjBP4zMQNgkWD+HoKzBBiKVQN8SKr9l8qXBAY7XQCCjyL9j
N63BgrTiQNTCAUFqcJ/Bm13LQBa95UBbGY7BLPSjQEptJD+n76fBKXbmQOUwhb5qLK/BXNKuQDVO
4r94pKjBg1naQBDrwT/tLJDBBOCnQN/5AkFiWGPBMq+sQMuqKEHLkKbBeNSPQBBjF0Him6vBFKKc
QGBNDkE5cHjBYe3GQCC64EAFN2fB2PTZQLYzI0HnT6rB2+KtQC4cBUFeNq/B5RWIQO7s/EDVC4TB
vxe1QCMFwUCq+HfBcjbaQCq8CkHio6rBaGSmQIYM10AvpobB/jvkQCFO0T5PI4jBaJaJQJ1+6T8a
ZKTBimWiQHhAkUBHp4/B82KiQDHNJ0Dn3ZvBKaOGQNj/bkB4Q5fBtPWvQMfI3D+CHZPB/aqLQIFD
uEBaiozBNeP3QJu+BUCBt5TBP2dvQLhdkkB6t5/BK+MGQRz0hL3CaLPBioqgQCROQcD/tabBd1Yc
QSYV7EA+rI/Bi2UTQQNHBkH+LaHBATP/QNUK0UAm1YPBoJigQPkS+0B3pJrBN67XQEBR7D/jQa7B
rytsQGtvUb9NW6LBP1rrQEGnGsDiOK/B3uK2QNaNDkFWa1jBuV2KQDV7+UBtDVzB5lSjQGutOEHq
X6nBc6qqQOsVKEHvyJ3B3FtxQJ1wEUEtr6XBiBp9QBP8HUGkh7LBMguGQBxmG0EPLHXBZPy5QLrc
FEFXmn/BDJPlQNeY7UCXAW3BLxjMQNGgz0CnDFjBKTXgQHDtKUHuSrLBn/fxQME9KUE3oaTB/8Oi
QHJk60A4AKzB7yuvQKlBBEED/7fBqxNVQIlE8EC7dYDB9E+AQCLsBkGpg4vBITzOQKWaqUCOzHvB
sG+ZQKVfsEDZ83DBbDvzQHYtBUHmK7DBm4sDQZ8+jT7HhofBFkHXQMMqLz+vQoDBTXnVQM0HCL+4
1IrBsf6CQOw1HkAnT6vBEmVWQMwSvD//+aDBL1upQJ4WfEC7fIjBt4/AQFDRmUDKppPBFcS+QKV7
REBDpJ/BKE9XQL7XUkCb15LBwDyZQKZvnj8wDI/ByeJlQNUNsEAh5YfBfNCAQCaHxkDvKpPBnrVM
QH4fgkDKdKTBTooJQVX160AVS5TBsmoDQVTxBEFWGpzBC3X0QChw2kCBU43Bif28QEOsAUGJTJbB
DVTMQGcvRz9DhazBIi2TQG4dLL/l7KXBmHHVQJs70r+utazBzETbQObXCkEORZ3BGvbIQM8Q50D6
DY7B+zSjQDYyHj/uBKjB7ovlQD8CtL7xxa7B3TOsQBaV5r/CUajBcTjZQMicvj9GFpDBWHmuQPPj
A0H6KGTBRpqtQFHpBUE4qLLB8UvcQHvyCkEE4bXBWaObQFLuDUGWjXjBblLNQFG64kBwYWnBhbWh
QLtaF0G9jKrB+VHpQEliHkGJC6/BLbOFQA0t+UCZ/ILBtO63QJAOwUAxA3jBncHMQJSdHEH8E6XB
GdylQKW21UD2b4bB0wbiQK8ozT4L04fBX7aJQGTy6T/rrqTB1/uiQGRlkEC5rY/BOqiiQLf4JkAx
FpzBSnOHQD0sb0CyjJfBjDCvQGwT2j8vTJPB6rSLQLmctkBTUozBEFH3QD88A0A+gZTBmxl0QIMw
k0DjBKDBca4GQZLRSL540LLBC9OcQORqQsDrQKbBkBcaQdhg4kCQpJPBnV8PQWj+C0GqP6HBJhX+
QMk/w0CQY4fBBpSbQGmaBUFmTpfBWGXYQO404j8wO67BLGxnQI48S7+MfKLBcrfoQA6wIMBSfq7B
LATAQMpEEEHnPFvBUCWUQDBz+0DbPFrB4GmYQCugBkHQrLnBjmqrQL/u60DX+K7Bvi7xQDtr+kAC
JrTBjDLeQK3eDkHHcb7BBRKEQJc6GkFvHnTB+nu1QJJOFUHq+YDBAa/pQGC070AVinHBeSPXQJI0
00DBXVrBrpaUQBKGJUFCnK7BLk2KQMxZEUH5s6TBnq4FQfaIHUFW2azBxiHjQBhrLUHFWbPBevtX
QBuE6kDXcXzBrudvQJT/A0HcMIrBis7PQKG1qED5YHzBCIKdQJvPsUCJO2/BWdvKQGQYLEHs6qDB
2GMCQY6ihz4G8obB9THUQIIeMj+OFYDBznHTQN4tC7/ee4rB90yEQDFfHkDTq6vBT3RVQI63wD/U
ZaHBnu2pQCKYeEB4qojBiizBQGrBmUAwjZPBGoC/QMF8QkDExp/BIFNXQPENVEAFWJPBxACYQD94
mz/LaY/BoP9mQP+GrUCum4fBkBKAQI/8xEC52ZLBMLRRQEWTg0D666TB

> <OMEGA_E>
sDN1PlC2fz5gtmc+

> <OMEGA_NBR>
    311566

$$$$
50212929
  -OEChem-04172616093D

 74 77  0     1  0  0  0  0  0999 V2000
    8.5308    7.3433  -18.4084 C   0  0  0  0  0  0  0  0  0  0  0  0
    7.5516    6.8055  -17.5566 C   0  0  0  0  0  0  0  0  0  0  0  0
    8.1564    8.0409  -19.5694 C   0  0  0  0  0  0  0  0  0  0  0  0
    5.8152    7.6228  -19.0546 C   0  0  0  0  0  0  0  0  0  0  0  0
    6.4112    0.4233  -21.5829 C   0  0  0  0  0  0  0  0  0  0  0  0
    4.5428   -0.9712  -20.8509 C   0  0  0  0  0  0  0  0  0  0  0  0
    6.6092   -2.0039  -21.6360 C   0  0  0  0  0  0  0  0  0  0  0  0
    6.9875    6.4836  -13.5187 C   0  0  0  0  0  0  0  0  0  0  0  0
    6.1755    6.9520  -17.8671 C   0  0  0  0  0  0  0  0  0  0  0  0
    6.0827    6.6744  -14.6681 C   0  0  0  0  0  0  0  0  0  0  0  0
    6.7869    8.2036  -19.8976 C   0  0  0  0  0  0  0  0  0  0  0  0
    5.1014    0.3043  -21.0737 C   0  0  0  0  0  0  0  0  0  0  0  0
    7.1685   -0.7282  -21.8496 C   0  0  0  0  0  0  0  0  0  0  0  0
    5.2926   -2.1245  -21.1463 C   0  0  0  0  0  0  0  0  0  0  0  0
    5.7560    8.0086  -14.7051 C   0  0  0  0  0  0  0  0  0  0  0  0
    6.6056    1.2135  -18.0024 C   0  0  0  0  0  0  0  0  0  0  0  0
    5.5519    5.6848  -15.6744 C   0  0  0  0  0  0  0  0  0  0  0  0
    4.8365    8.6289  -15.7353 C   0  0  0  0  0  0  0  0  0  0  0  0
    4.0911    7.5496  -16.5357 C   0  0  0  0  0  0  0  0  0  0  0  0
    5.0470    6.4075  -16.9612 C   0  0  1  0  0  0  0  0  0  0  0  0
    6.7571    0.1381  -16.9307 C   0  0  0  0  0  0  0  0  0  0  0  0
    7.4836    9.7072  -21.8683 C   0  0  0  0  0  0  0  0  0  0  0  0
    5.2238    9.9730  -20.8304 C   0  0  0  0  0  0  0  0  0  0  0  0
    5.7663    7.8962  -22.1704 C   0  0  0  0  0  0  0  0  0  0  0  0
    4.3166    1.5434  -20.7292 C   0  0  0  0  0  0  0  0  0  0  0  0
    4.9196    4.2350  -18.0642 C   0  0  0  0  0  0  0  0  0  0  0  0
    5.0742    2.3604  -19.6649 C   0  0  1  0  0  0  0  0  0  0  0  0
    4.3014    3.6337  -19.3087 C   0  0  1  0  0  0  0  0  0  0  0  0
    6.3296    8.9372  -21.1737 C   0  0  0  0  0  0  0  0  0  0  0  0
    7.1835    7.6505  -12.9439 N   0  0  0  0  0  0  0  0  0  0  0  0
    6.4559    8.5425  -13.6594 N   0  0  0  0  0  0  0  0  0  0  0  0
    5.3294    1.5130  -18.4764 N   0  0  0  0  0  0  0  0  0  0  0  0
    4.2316    5.4802  -17.7488 N   0  3  0  0  0  0  0  0  0  0  0  0
    7.6113    1.6798  -18.5279 O   0  0  0  0  0  0  0  0  0  0  0  0
    2.9186    3.3776  -19.0832 O   0  0  0  0  0  0  0  0  0  0  0  0
    8.4292   -0.6059  -22.3208 F   0  0  0  0  0  0  0  0  0  0  0  0
    4.7466   -3.3476  -20.9645 F   0  0  0  0  0  0  0  0  0  0  0  0
    9.5768    7.2199  -18.1697 H   0  0  0  0  0  0  0  0  0  0  0  0
    7.8479    6.2784  -16.6618 H   0  0  0  0  0  0  0  0  0  0  0  0
    8.9163    8.4555  -20.2152 H   0  0  0  0  0  0  0  0  0  0  0  0
    4.7720    7.6934  -19.3250 H   0  0  0  0  0  0  0  0  0  0  0  0
    6.8318    1.4008  -21.7676 H   0  0  0  0  0  0  0  0  0  0  0  0
    3.5423   -1.0625  -20.4547 H   0  0  0  0  0  0  0  0  0  0  0  0
    7.1896   -2.8898  -21.8474 H   0  0  0  0  0  0  0  0  0  0  0  0
    7.4167    5.5443  -13.2025 H   0  0  0  0  0  0  0  0  0  0  0  0
    6.3549    4.9844  -15.9475 H   0  0  0  0  0  0  0  0  0  0  0  0
    4.7169    5.1277  -15.2243 H   0  0  0  0  0  0  0  0  0  0  0  0
    4.1017    9.2670  -15.2226 H   0  0  0  0  0  0  0  0  0  0  0  0
    5.4338    9.2406  -16.4274 H   0  0  0  0  0  0  0  0  0  0  0  0
    3.2875    7.1312  -15.9120 H   0  0  0  0  0  0  0  0  0  0  0  0
    3.6558    8.0073  -17.4363 H   0  0  0  0  0  0  0  0  0  0  0  0
    7.8245   -0.0773  -16.7750 H   0  0  0  0  0  0  0  0  0  0  0  0
    6.3138    0.4941  -15.9890 H   0  0  0  0  0  0  0  0  0  0  0  0
    6.2418   -0.7779  -17.2554 H   0  0  0  0  0  0  0  0  0  0  0  0
    7.1003   10.2090  -22.7690 H   0  0  0  0  0  0  0  0  0  0  0  0
    7.8919   10.4583  -21.1760 H   0  0  0  0  0  0  0  0  0  0  0  0
    8.2773    9.0004  -22.1521 H   0  0  0  0  0  0  0  0  0  0  0  0
    4.9063   10.4892  -21.7484 H   0  0  0  0  0  0  0  0  0  0  0  0
    4.3620    9.4550  -20.3844 H   0  0  0  0  0  0  0  0  0  0  0  0
    5.6200   10.7085  -20.1147 H   0  0  0  0  0  0  0  0  0  0  0  0
    5.4358    8.4067  -23.0869 H   0  0  0  0  0  0  0  0  0  0  0  0
    6.5503    7.1660  -22.4199 H   0  0  0  0  0  0  0  0  0  0  0  0
    4.9124    7.3753  -21.7127 H   0  0  0  0  0  0  0  0  0  0  0  0
    4.1841    2.1553  -21.6337 H   0  0  0  0  0  0  0  0  0  0  0  0
    3.3313    1.2540  -20.3348 H   0  0  0  0  0  0  0  0  0  0  0  0
    4.8155    3.5326  -17.2241 H   0  0  0  0  0  0  0  0  0  0  0  0
    5.9860    4.4375  -18.2428 H   0  0  0  0  0  0  0  0  0  0  0  0
    6.0410    2.6601  -20.0955 H   0  0  0  0  0  0  0  0  0  0  0  0
    4.4159    4.3495  -20.1360 H   0  0  0  0  0  0  0  0  0  0  0  0
    6.4329    9.5176  -13.4390 H   0  0  0  0  0  0  0  0  0  0  0  0
    4.5430    1.1353  -17.9876 H   0  0  0  0  0  0  0  0  0  0  0  0
    3.4053    5.2636  -17.2289 H   0  0  0  0  0  0  0  0  0  0  0  0
    3.9782    5.9290  -18.6057 H   0  0  0  0  0  0  0  0  0  0  0  0
    2.5342    3.0005  -19.8659 H   0  0  0  0  0  0  0  0  0  0  0  0
  1  2  2  0  0  0  0
  1  3  1  0  0  0  0
  2  9  1  0  0  0  0
  3 11  2  0  0  0  0
  4  9  2  0  0  0  0
  4 11  1  0  0  0  0
  5 12  1  0  0  0  0
  5 13  2  0  0  0  0
  6 12  2  0  0  0  0
  6 14  1  0  0  0  0
  7 13  1  0  0  0  0
  7 14  2  0  0  0  0
  8 10  1  0  0  0  0
  8 30  2  0  0  0  0
  9 20  1  0  0  0  0
 10 15  2  0  0  0  0
 10 17  1  0  0  0  0
 11 29  1  0  0  0  0
 12 25  1  0  0  0  0
 13 36  1  0  0  0  0
 14 37  1  0  0  0  0
 15 18  1  0  0  0  0
 15 31  1  0  0  0  0
 16 21  1  0  0  0  0
 16 32  1  0  0  0  0
 16 34  2  0  0  0  0
 17 20  1  0  0  0  0
 18 19  1  0  0  0  0
 19 20  1  0  0  0  0
 20 33  1  0  0  0  0
 22 29  1  0  0  0  0
 23 29  1  0  0  0  0
 24 29  1  0  0  0  0
 25 27  1  0  0  0  0
 26 28  1  0  0  0  0
 26 33  1  0  0  0  0
 27 28  1  0  0  0  0
 27 32  1  0  0  0  0
 28 35  1  0  0  0  0
 30 31  1  0  0  0  0
  1 38  1  0  0  0  0
  2 39  1  0  0  0  0
  3 40  1  0  0  0  0
  4 41  1  0  0  0  0
  5 42  1  0  0  0  0
  6 43  1  0  0  0  0
  7 44  1  0  0  0  0
  8 45  1  0  0  0  0
 17 46  1  0  0  0  0
 17 47  1  0  0  0  0
 18 48  1  0  0  0  0
 18 49  1  0  0  0  0
 19 50  1  0  0  0  0
 19 51  1  0  0  0  0
 21 52  1  0  0  0  0
 21 53  1  0  0  0  0
 21 54  1  0  0  0  0
 22 55  1  0  0  0  0
 22 56  1  0  0  0  0
 22 57  1  0  0  0  0
 23 58  1  0  0  0  0
 23 59  1  0  0  0  0
 23 60  1  0  0  0  0
 24 61  1  0  0  0  0
 24 62  1  0  0  0  0
 24 63  1  0  0  0  0
 25 64  1  0  0  0  0
 25 65  1  0  0  0  0
 26 66  1  0  0  0  0
 26 67  1  0  0  0  0
 27 68  1  0  0  0  0
 28 69  1  0  0  0  0
 31 70  1  0  0  0  0
 32 71  1  0  0  0  0
 33 72  1  0  0  0  0
 33 73  1  0  0  0  0
 35 74  1  0  0  0  0
M  CHG  1  33   1
M  END
> <OMEGA_C>
/n0IQRv86kBoRJPBzqbxQLDG2UDwc4zBlIACQaynAEEIjpzBUBa6QJLt80Djb5jBvSjNQG7A2D6y
qazB8F6RQDCieL+wzqbB1X7TQH0/AMBvFq3BxpnfQIN5z0CaTFjB6Z3FQBV33kDm747BmqXCQIWU
1UCAsGrBki7ZQCJCA0FELp/BxD6jQKbMmz7/lqjBlWTlQK1rOr8MzK7BAl2pQDP4B8CbK6nBBjG4
QEQjAEEUSGvBeGHTQHZVmz/TBJDB0aixQKbptUBsynrBdcSaQPUPCkHcw3vBo+qCQHaW8UAwSYTB
+IChQIEKzUCesIfB5znYQOhuDT4ecofB03nvQNZQG0FC8q7BXymnQJaRH0GVpKbBloW4QG+t/EDo
XLHBNyGKQAqOxT9p1aXBr22dQPCEh0CUg5DBhl+iQHwRF0CpUZ3B+aSJQOeNaEAieJrBcIzKQJP+
DkHRY6nBA9/lQLzQ9EAcGk/B8JbOQPStCEHxjFrBWYqqQNuqwT+uz5PBJ2mHQG1dr0B0/Y3BIpDz
QDoF1z8SOZTBqMo6QHsqWEBxqpjBEd4GQSMeG7/1kLLBZuSXQAU/VsBat6fBlToZQRoJ50CbW5HB
/SH7QKToyEBES4XBEakOQcRJB0G0uKHBO7SYQF0w9kCVmZrBH57aQOpMsz8AJK7BX7ViQGsBiL8l
o6PBBxHmQJPyOMCNx67Ba1XtQPxqsUBlPVPBpVvLQGaAn0D7KH/B1vCWQHoWpEDulnPBG0GDQM9F
FEHZj3PBauGtQK3ZE0Ffa4PBQWZSQNoy5EBzl37BEPhpQAQeAEF3fYvB+mH6QNxWnr0bM4bBPgrK
QIf0/D4T03/BAb3HQC4mR7/1CorB5jXjQPFXI0H+JrbBHIr8QD1VJ0GAaKnBtG8EQcQBEEF+N7HB
sgCdQKnTJ0HC/K3BWZWLQH5HF0FTE6PB29azQP1VK0Hu6qDBBPKtQAOCBkEFsrjBwpvRQOxP5UD3
W7PBFjKdQGEC7ECYs63BF+SFQEDwCUC9Ea3BjDRVQNiCoD+ZraLBwBiaQMoWYkDqyonBII2/QD4A
jkBX8ZHBwE/BQFk/KkCZw6DBcE+NQEAvi0BxFqHBjtrNQBRIGEH+BVfBQWCRQKZQkT+u5o/B2u9Z
QBlvqEC71InBopp+QEm6vUB02JTB0zAiQBAIQEBP7Z7BuzsIQV5L60DHG5PBOSDxQHXl2UBYVIzB
H0ACQU3LAEFnZpzB4JG5QO8c9EBeTpjBqSORQMwBfb+1v6bBwPnMQMVv0j63f6zBJWXTQKYRAcBs
+qzBvVTgQCmGz0DZm1jBPRbFQDqM3kDA0o7BcH3CQC9r1UDiqWrB0q7YQDZcA0GJCp/B+euiQMav
kz6bhajBXkmpQK32CMABDanBRUrlQDZZPb8yoq7B29e3QKQJAEGxLWvB23bTQC6fmz/p54/B6Dax
QISxtUAirnrByg6aQLfsCUGohXvBxESCQFJA8UBrLITB1/agQKvUzEAtn4fBcifZQO+9KT7sKIfB
+py4QPGv/EBLSLHBg/HuQKqSG0HlvK7BoEimQNdtH0G+j6bB9p6JQAAPwz+pwqXBYu6dQIfah0Bo
xJDB+U2hQN1iFUAWHZ3B9uGGQCZ0Y0Da3ZnBxxfKQDAND0FTQ6nBI6nmQD/j9EA1cU/Bg7jOQMOj
CEEHpFrBiG6qQByfvD/EvZPBDhSHQOb7rkAP9o3BQD7zQH/l2T/UJpTBowI6QBJtS0BvgpbB9x6Y
QDRNV8CJbafBV+oGQX6QHb/rQ7LBUPcYQSuE50BJK5HBw5j6QL3nyEAjMIXBWGkOQfxxB0Eqj6HB
qS+YQINx9kDBdprByxhiQCh4ir9SoaPBn3raQNrcsT8M563BoPPlQBmxOcAuuK7By5PuQNGUsUAg
vVPBLMfKQEoon0A6Fn/BwH6WQN0CpEBuZHPBBIGCQKACFEHYMXPBc+KsQI7VE0EgToPBjk9RQJy3
40BgWX7BNmloQErp/0AvXIvBVnn7QC/wc7yt14XBW3zKQM3CBj/AZX/BtJfJQNduRb8PoonBVROu
QMB9BkHUn7jBX/vRQBmW5UB5P7PBi1qdQIW460AOra3Bhr3iQD+RI0Gv9bXBa5r7QO+hJ0ERKqnB
alAEQahlEEFg+LDBAyecQDmpJ0Fn6q3B4MiKQFP7FkGEDKPBb46yQJk9K0HWzaDBn72FQOQnCUAP
+KzBQeJTQGRinT9Qu6LB3wyfQG3vZEB/yInBI7q+QP/Xj0A1Q5PBNcG/QG3jK0AmhKDBMf+EQPa+
h0BRt6DBn9vNQC47GEEDE1fBqa+RQMjLhj/u8Y/BUzZaQEEZp0BVuYnBQUt8QCaovUD8tZTBBTMd
QKKqL0B0O5zBIl4IQWW06kASJJPBV3bxQHp12UAwUIzBD1UCQcBkAEEBdpzBK9C5QDEd80CtVpjB
jFyQQFite79fzqbB9SrMQKRx1T7akazBTb3SQLC1AMBg86zB7fHfQGCuz0CLUFjB+WjFQKPs3UBp
0I7Bs5PCQDJs1UAHk2rBVNDYQDbSAkGQG5/B+xKiQN1Nlj7/m6jBrpOoQHGbCMDeD6nBZ5LkQAjt
O7+mpq7BwBG4QMkNAEE7SWvBRMLTQD/rnT8484/B13uxQPJ+tUDCjXrBEmWaQEnXCUHfvHvBd5WC
QD3m8EAwNoTBYkuhQIlizED9lofBUanaQIJWJD6qcIfBVvDuQP9iGkHFEa/BS6GnQJqeH0HnXabB
80+2QMVA/ECeH7HB28mIQMh+wz8ax6XBlcaeQDjmh0CR+JDBHICgQEaQFEDrDp3BT3qFQLFiYEBN
apnBYevJQEiYDkG3R6nB9FzmQPgv9UDMTk/B48bOQCvACEEvvVrBQZqqQDhguD9a35PBi2iHQIdW
rkC83I3BCefyQN185D+F+ZPBiHI7QKp4REDhCZXBW2CXQDjuVsCLdKfBzo0GQQJzHL9wSrLBahwZ
Qa/55kDpN5HBa/76QKu+yEDXIoXB23UOQT0QB0EsoqHBsmuYQNU19UC4gJrBjoJgQPTWib+zsqPB
Y5/ZQIKesj8rAK7BwWPlQChVOcDRoK7Bv9XtQGa7sUD6M1PBAyTLQJz/nkCG337BU8aWQCTMo0An
RHPB0tuCQMQGFEErhXPBQU6tQIGhE0G5coPBoPRRQKOE40CeXn7BgAVpQCtW/0DYbIvB/Sf9QBEi
4DxUDIbBkxPLQHNx8D735H/BHLfMQFgHSr/MMIrBAXbiQJB2IkEqPbbBkgn9QBxRJkHepKnBassD
QXq+DkEzbrHBpDCdQCzwJ0Feq63BXP+LQL+zF0F0nqLBl2q1QHxGK0HnvqDB+5KrQMlhBkHAarjB
RJPOQAst5ECKObPBWdqaQCtm7EBJTa3BIguFQBb9CUD876zBcRlSQGCznT9ay6LBLjKjQHVeZkBF
8YnBMTm+QLzpkEApOJTBfYS+QCoYLUBye6DBIO9/QAGPhUCNRaDBVQrOQNNgGEGlU1fB1WWSQCg4
dz/JRZDBjy1cQA6hpUA2e4nB6td6QOgyvUAmfpTBNdgbQIy6JkCFXJrBwFcIQYkc6kDOWJPBwGrx
QJwM2UDufIzBC00CQc1TAEE0mJzBCba5QMTr80DkUpjBjwnMQMR7zj5KaKzBD4aQQFw5gL8OiabB
N7vSQDGKAcBa26zB9QngQBRPz0CTcljBGlfFQME43kBY347BuqfCQN071UCOr2rBab3YQOIfA0Et
IJ/BHBCiQL+FjT4gX6jBInjkQKDZPr9mi67B6ayoQMOnCcCV5qjBFwW4QJLj/0AoP2vByfLTQEmE
nj/cApDBtIOxQJV5tUATuXrBSUuaQLTLCUHTo3vBpoCCQKnr8EBqNITBDUOhQKOLzEBrpYfBKw3b
QJ6WFz56qIfBX3i3QG7V/EClQLHBosvuQEs+G0G64q7BdramQPGOH0GNbKbBtImIQBgcwT83naXB
p72eQLQyiECBEZHB+lOgQMyaFEBpCJ3BIliFQNCyYEDHd5nBauvJQOL1DkGWSKnBoFnmQIKz9EAr
Tk/BxLHOQNWOCEFzpFrBMaaqQDg9uj8IypPBP16HQDaWrkA68I3B4PzyQPQB5T+fF5TB1h07QOg5
RUD0EJXBMm0GQbV7Hr/uR7LB0WOXQEEKWMAoaKfBaxcZQVnh5UCzgJHBK/r6QDHux0CGX4XBGm4O
QXfkBkHFzKHBjkaYQOaT9kASaJrBqWDZQDwIsT9X2q3BZDJhQJ+XjL9wUaPB7l3lQHwQOsBgmK7B
agPuQF9TsUDYcVPB0yfLQF0Dn0CTHH/B79KWQPK2o0DDdHPB1b6CQKzsE0GJXHPBjiqtQJGnE0GF
YIPB0OVRQGlg40B8YH7BvLloQGGA/0BZZIvBJZb9QJgJQDu0aYbBFQLMQJke5T5NEoDBcavMQKrm
Sr95d4rBWsKsQLSrBkGJjLjBCV7QQBFd5UCpUbPBkCqcQAVC7EADjq3BKGTiQEJZI0ETDrbBdB/8
QFwxJ0GmWanBkAMEQXHlD0HZOLHBmV+cQG3oJ0ENuq3BwjKLQH5FF0EU06LBJqOzQEM/K0FysaDB
u2OEQF39B0Bt1KzBw/RRQBLsmj+AiKLBtl+jQEkUZ0C/CYrBURe+QN9GkUAvXZTBJkC+QPbaLEDp
iaDBWcp/QIuIhUDPXKDBYuPNQGUpGEFtIFfBBXySQKlWfz+eCJDBoBZcQILVpUCHkInB98Z6QAuF
vUA4j5TBX2obQIxOJ0BJXZrB

> <OMEGA_E>
vEOWPgQ4mj6owpo+WPmaPg==

> <OMEGA_NBR>
      4945

$$$$
50156294
  -OEChem-04172616093D

 85 87  0     1  0  0  0  0  0999 V2000
    0.4354   -5.2491  -15.5436 C   0  0  0  0  0  0  0  0  0  0  0  0
    0.5468   -4.0238  -16.2311 C   0  0  0  0  0  0  0  0  0  0  0  0
    1.4501   -6.2199  -15.6620 C   0  0  0  0  0  0  0  0  0  0  0  0
    1.6696   -3.7714  -17.0430 C   0  0  0  0  0  0  0  0  0  0  0  0
    2.5707   -5.9724  -16.4781 C   0  0  0  0  0  0  0  0  0  0  0  0
    5.8963   -0.7759  -17.1580 C   0  0  0  0  0  0  0  0  0  0  0  0
    6.7507   -1.7493  -15.0957 C   0  0  0  0  0  0  0  0  0  0  0  0
    7.1554    0.5985  -15.5918 C   0  0  0  0  0  0  0  0  0  0  0  0
    6.4556    0.8499  -21.4392 C   0  0  0  0  0  0  0  0  0  0  0  0
    5.5009   -1.2914  -20.7707 C   0  0  0  0  0  0  0  0  0  0  0  0
    7.7821   -1.1895  -21.6237 C   0  0  0  0  0  0  0  0  0  0  0  0
    6.0640   -1.8978  -16.3172 C   0  0  0  0  0  0  0  0  0  0  0  0
    6.4689    0.4622  -16.8094 C   0  0  0  0  0  0  0  0  0  0  0  0
    2.6824   -4.7506  -17.1768 C   0  0  0  0  0  0  0  0  0  0  0  0
    7.2620   -0.4925  -14.7028 C   0  0  0  0  0  0  0  0  0  0  0  0
    5.3710    0.1067  -20.9026 C   0  0  0  0  0  0  0  0  0  0  0  0
    7.6595    0.2040  -21.7779 C   0  0  0  0  0  0  0  0  0  0  0  0
    6.6981   -1.9390  -21.1301 C   0  0  0  0  0  0  0  0  0  0  0  0
    5.5252   -3.2145  -16.7094 C   0  0  0  0  0  0  0  0  0  0  0  0
    6.3507    1.6126  -17.7105 C   0  0  0  0  0  0  0  0  0  0  0  0
    3.4324   -4.3975  -19.5508 C   0  0  0  0  0  0  0  0  0  0  0  0
    9.0034    0.6725  -13.3347 C   0  0  0  0  0  0  0  0  0  0  0  0
    5.1120    8.9485  -21.3255 C   0  0  0  0  0  0  0  0  0  0  0  0
    4.5298    7.6734  -16.2541 C   0  0  0  0  0  0  0  0  0  0  0  0
    8.5730   -2.6588  -11.9980 C   0  0  0  0  0  0  0  0  0  0  0  0
    5.2570    5.0754  -18.2073 C   0  0  0  0  0  0  0  0  0  0  0  0
    4.0427    2.1190  -20.4755 C   0  0  0  0  0  0  0  0  0  0  0  0
    5.4212    7.1468  -19.7285 C   0  0  0  0  0  0  0  0  0  0  0  0
    3.8753   -4.5128  -18.0854 C   0  0  1  0  0  0  0  0  0  0  0  0
    4.9300    2.8211  -19.4068 C   0  0  1  0  0  0  0  0  0  0  0  0
    4.8880    6.5762  -18.3843 C   0  0  2  0  0  0  0  0  0  0  0  0
    4.2831    4.1687  -19.0080 C   0  0  1  0  0  0  0  0  0  0  0  0
    4.5577   -3.2776  -17.7014 N   0  0  0  0  0  0  0  0  0  0  0  0
    5.1117    1.9162  -18.2583 N   0  0  0  0  0  0  0  0  0  0  0  0
    7.9064   -0.3255  -13.4654 N   0  0  3  0  0  0  0  0  0  0  0  0
    5.9133   -4.2362  -16.1505 O   0  0  0  0  0  0  0  0  0  0  0  0
    7.3413    2.2916  -17.9598 O   0  0  0  0  0  0  0  0  0  0  0  0
    6.0933   -1.7549  -12.2158 O   0  0  0  0  0  0  0  0  0  0  0  0
    7.7723   -0.4063  -10.8791 O   0  0  0  0  0  0  0  0  0  0  0  0
    3.1007    3.9325  -18.2393 O   0  0  0  0  0  0  0  0  0  0  0  0
    4.1679    0.6685  -20.4922 O   0  0  0  0  0  0  0  0  0  0  0  0
    4.6204    8.2779  -20.1447 O   0  0  0  0  0  0  0  0  0  0  0  0
    5.4632    7.3393  -17.3002 O   0  0  0  0  0  0  0  0  0  0  0  0
    8.6969    0.9242  -22.2612 F   0  0  0  0  0  0  0  0  0  0  0  0
    6.8100   -3.2794  -20.9934 F   0  0  0  0  0  0  0  0  0  0  0  0
    7.4600   -1.2362  -12.0506 S   0  0  0  0  0  0  0  0  0  0  0  0
   -0.4284   -5.4442  -14.9255 H   0  0  0  0  0  0  0  0  0  0  0  0
   -0.2288   -3.2785  -16.1353 H   0  0  0  0  0  0  0  0  0  0  0  0
    1.3682   -7.1542  -15.1265 H   0  0  0  0  0  0  0  0  0  0  0  0
    1.7577   -2.8296  -17.5641 H   0  0  0  0  0  0  0  0  0  0  0  0
    3.3462   -6.7185  -16.5696 H   0  0  0  0  0  0  0  0  0  0  0  0
    5.3271   -0.8677  -18.0713 H   0  0  0  0  0  0  0  0  0  0  0  0
    6.8877   -2.6061  -14.4527 H   0  0  0  0  0  0  0  0  0  0  0  0
    7.6053    1.5457  -15.3336 H   0  0  0  0  0  0  0  0  0  0  0  0
    6.3563    1.9150  -21.5880 H   0  0  0  0  0  0  0  0  0  0  0  0
    4.6732   -1.8713  -20.3898 H   0  0  0  0  0  0  0  0  0  0  0  0
    8.7068   -1.6831  -21.8840 H   0  0  0  0  0  0  0  0  0  0  0  0
    4.3125   -4.2257  -20.1880 H   0  0  0  0  0  0  0  0  0  0  0  0
    2.9341   -5.3290  -19.8575 H   0  0  0  0  0  0  0  0  0  0  0  0
    2.7329   -3.5553  -19.6572 H   0  0  0  0  0  0  0  0  0  0  0  0
    9.3861    0.6645  -12.3035 H   0  0  0  0  0  0  0  0  0  0  0  0
    9.8168    0.4162  -14.0295 H   0  0  0  0  0  0  0  0  0  0  0  0
    8.6180    1.6744  -13.5749 H   0  0  0  0  0  0  0  0  0  0  0  0
    4.4493    9.7912  -21.5718 H   0  0  0  0  0  0  0  0  0  0  0  0
    6.1284    9.3244  -21.1372 H   0  0  0  0  0  0  0  0  0  0  0  0
    5.1329    8.2405  -22.1671 H   0  0  0  0  0  0  0  0  0  0  0  0
    5.0454    8.2508  -15.4726 H   0  0  0  0  0  0  0  0  0  0  0  0
    3.7095    8.2747  -16.6730 H   0  0  0  0  0  0  0  0  0  0  0  0
    4.1217    6.7496  -15.8182 H   0  0  0  0  0  0  0  0  0  0  0  0
    8.3378   -3.2767  -11.1189 H   0  0  0  0  0  0  0  0  0  0  0  0
    8.4456   -3.2578  -12.9118 H   0  0  0  0  0  0  0  0  0  0  0  0
    9.6134   -2.3079  -11.9317 H   0  0  0  0  0  0  0  0  0  0  0  0
    6.2825    4.9112  -18.5698 H   0  0  0  0  0  0  0  0  0  0  0  0
    5.1987    4.8133  -17.1406 H   0  0  0  0  0  0  0  0  0  0  0  0
    2.9917    2.3727  -20.2727 H   0  0  0  0  0  0  0  0  0  0  0  0
    4.3276    2.5017  -21.4666 H   0  0  0  0  0  0  0  0  0  0  0  0
    6.4648    7.4691  -19.5978 H   0  0  0  0  0  0  0  0  0  0  0  0
    5.3731    6.3641  -20.4999 H   0  0  0  0  0  0  0  0  0  0  0  0
    4.5683   -5.3620  -17.9928 H   0  0  0  0  0  0  0  0  0  0  0  0
    5.9101    3.0307  -19.8601 H   0  0  0  0  0  0  0  0  0  0  0  0
    3.7922    6.6714  -18.3729 H   0  0  0  0  0  0  0  0  0  0  0  0
    4.0153    4.6999  -19.9332 H   0  0  0  0  0  0  0  0  0  0  0  0
    4.3140   -2.4337  -18.1794 H   0  0  0  0  0  0  0  0  0  0  0  0
    4.2992    1.4984  -17.8516 H   0  0  0  0  0  0  0  0  0  0  0  0
    2.5076    3.3777  -18.7322 H   0  0  0  0  0  0  0  0  0  0  0  0
  1  2  1  0  0  0  0
  1  3  2  0  0  0  0
  2  4  2  0  0  0  0
  3  5  1  0  0  0  0
  4 14  1  0  0  0  0
  5 14  2  0  0  0  0
  6 12  1  0  0  0  0
  6 13  2  0  0  0  0
  7 12  2  0  0  0  0
  7 15  1  0  0  0  0
  8 13  1  0  0  0  0
  8 15  2  0  0  0  0
  9 16  1  0  0  0  0
  9 17  2  0  0  0  0
 10 16  2  0  0  0  0
 10 18  1  0  0  0  0
 11 17  1  0  0  0  0
 11 18  2  0  0  0  0
 12 19  1  0  0  0  0
 13 20  1  0  0  0  0
 14 29  1  0  0  0  0
 15 35  1  0  0  0  0
 16 41  1  0  0  0  0
 17 44  1  0  0  0  0
 18 45  1  0  0  0  0
 19 33  1  0  0  0  0
 19 36  2  0  0  0  0
 20 34  1  0  0  0  0
 20 37  2  0  0  0  0
 21 29  1  0  0  0  0
 22 35  1  0  0  0  0
 23 42  1  0  0  0  0
 24 43  1  0  0  0  0
 25 46  1  0  0  0  0
 26 31  1  0  0  0  0
 26 32  1  0  0  0  0
 27 30  1  0  0  0  0
 27 41  1  0  0  0  0
 28 31  1  0  0  0  0
 28 42  1  0  0  0  0
 29 33  1  0  0  0  0
 30 32  1  0  0  0  0
 30 34  1  0  0  0  0
 31 43  1  0  0  0  0
 32 40  1  0  0  0  0
 35 46  1  0  0  0  0
 38 46  2  0  0  0  0
 39 46  2  0  0  0  0
  1 47  1  0  0  0  0
  2 48  1  0  0  0  0
  3 49  1  0  0  0  0
  4 50  1  0  0  0  0
  5 51  1  0  0  0  0
  6 52  1  0  0  0  0
  7 53  1  0  0  0  0
  8 54  1  0  0  0  0
  9 55  1  0  0  0  0
 10 56  1  0  0  0  0
 11 57  1  0  0  0  0
 21 58  1  0  0  0  0
 21 59  1  0  0  0  0
 21 60  1  0  0  0  0
 22 61  1  0  0  0  0
 22 62  1  0  0  0  0
 22 63  1  0  0  0  0
 23 64  1  0  0  0  0
 23 65  1  0  0  0  0
 23 66  1  0  0  0  0
 24 67  1  0  0  0  0
 24 68  1  0  0  0  0
 24 69  1  0  0  0  0
 25 70  1  0  0  0  0
 25 71  1  0  0  0  0
 25 72  1  0  0  0  0
 26 73  1  0  0  0  0
 26 74  1  0  0  0  0
 27 75  1  0  0  0  0
 27 76  1  0  0  0  0
 28 77  1  0  0  0  0
 28 78  1  0  0  0  0
 29 79  1  0  0  0  0
 30 80  1  0  0  0  0
 31 81  1  0  0  0  0
 32 82  1  0  0  0  0
 33 83  1  0  0  0  0
 34 84  1  0  0  0  0
 40 85  1  0  0  0  0
M  END
> <OMEGA_C>
JPDePlr4p8CrsnjBn/0LP2HDgMA82YHBUp25PysJx8B2l3rBVLbVPxVfccAmWIjB8IYkQI4dv8Af
04PBR668QC+fRr+uQ4nBygXYQCrp378ciHHB2vjkQEk0GT/6d3nBa5TOQGWRWT+Fg6vBawewQEZM
pb9QKqbBpAb5QNhBmL9u/azBAgzCQCjs8r+MiYLBWQHPQIqo7D6meYbBsKwrQDkFmMAmaonBVGLo
QDcn/L6cPmvBEN+rQJh12j2XOKfBoBr1QOLuUD4eOa7BxFbWQOYv+L9yCqnBkc6wQBi6TcDOrIXB
MjnLQA5pzj8gr43BBa1bQGe4jMAZaJzBAQ4QQbsnLD8KW1XBIJWjQN8sD0GfmqrBVfSQQIqM9UBc
CILB6ioJQVEpKsDy9z/BHzmoQK9pokCnqJHBjF2BQGGdB0DezaPBqHqtQJSy5EDi053BmwR4QIFo
kMDWrpDBgsKdQNWMNEAPQZvB12qcQCBw0kATE5PB2A6JQA5mhUBJEJjB+tiRQPfDUcCKnI3B8JKj
QPZE9T/sEJLBYgH9QOaspr5hclfBmTm9QBePh8AxNIHB3evqQIGpEkCUrY/Bd/zCQNig4L/cc0PB
5Lb4QMAC0L7OEC7BsHFGQG2ue0AZ6pHBhF+FQGIjKz/y76PBbtqTQEByBEFsKKHBRNKuQKrb6kDL
ZorBXSYLQWmXbD/kFrLBaOvZQCXiUcCD8qfBGbjuQEI9nr9jz0DB3lnbvvI2rsDKzm7BxUdqviPS
UcAAFYHBkSKvPxrv5MAaBnLBM/3gP2QXNcBKg4zB0ydWQND91sChjoTBmXeqQNMjXr/9kZDBDmjc
QIfKJsAuPmfB0l7zQBraxT+gVnXBLGfLQEkd9T9MtKzBM4uVQCWI779hHqPB9E4LQWhu179aEq/B
SQCKQFg5h8DsgKHBcsg7QP+GqsAg3J7BcuguQFuJY8DzQZ3Biy0WQbIeKj8J20TBmhEdQQkZ1T7r
eGDBX+MJQU5R1j/9MlnBoGCOQLKoHEElk6zBGhzEQJIwFUHmGKnB20CkQAHZA0FEVrHBP3ShQFsD
BEG2j3fBeGhtQCRlBEFgYoXBNeWDQJn810BCF33BxWcFQd60UcDr5jHBDSEHQWCAUMCOlk7Be9AZ
QTe0E8Bx6D7BDArJQIconUD6jpTBE1ymQKIGmkD8H4nBKXg/QALaF0CVLqLBxnuKQEQcIECuu6vB
od/OQLcC70AzyJzBHfCrQOWmy0DE/6PBLS+SQHaVq8Ar8Y/BMR+9QKz3QUCD4Z7B77NyQGJ81UDG
+5LB9HyAQDxllkBGd5/BPgyKQDTCG8CBb5HBEpOJQHLLvz8s0I7BdHwgQH0sWECE25XB

> <OMEGA_E>
HKErPw==

> <OMEGA_NBR>
      1705

$$$$
50156296
  -OEChem-04172616093D

 92 95  0     1  0  0  0  0  0999 V2000
    0.4284   -5.2206  -15.5771 C   0  0  0  0  0  0  0  0  0  0  0  0
    0.5490   -3.9851  -16.2442 C   0  0  0  0  0  0  0  0  0  0  0  0
    1.4361   -6.1967  -15.7105 C   0  0  0  0  0  0  0  0  0  0  0  0
    1.6743   -3.7275  -17.0510 C   0  0  0  0  0  0  0  0  0  0  0  0
    2.5599   -5.9434  -16.5200 C   0  0  0  0  0  0  0  0  0  0  0  0
    5.8984   -0.7680  -17.1234 C   0  0  0  0  0  0  0  0  0  0  0  0
    6.7563   -1.7580  -15.0704 C   0  0  0  0  0  0  0  0  0  0  0  0
    7.1219    0.6051  -15.5283 C   0  0  0  0  0  0  0  0  0  0  0  0
    6.4729    0.9055  -21.4174 C   0  0  0  0  0  0  0  0  0  0  0  0
    5.5055   -1.2502  -20.8178 C   0  0  0  0  0  0  0  0  0  0  0  0
    7.8100   -1.1249  -21.6028 C   0  0  0  0  0  0  0  0  0  0  0  0
    6.0738   -1.8967  -16.2954 C   0  0  0  0  0  0  0  0  0  0  0  0
    6.4424    0.4742  -16.7517 C   0  0  0  0  0  0  0  0  0  0  0  0
    2.6805   -4.7116  -17.1987 C   0  0  0  0  0  0  0  0  0  0  0  0
    7.2542   -0.5007  -14.6604 C   0  0  0  0  0  0  0  0  0  0  0  0
    5.3758    0.1481  -20.9270 C   0  0  0  0  0  0  0  0  0  0  0  0
    7.6909    0.2722  -21.7240 C   0  0  0  0  0  0  0  0  0  0  0  0
    6.7118   -1.8874  -21.1621 C   0  0  0  0  0  0  0  0  0  0  0  0
    5.5402   -3.2070  -16.7086 C   0  0  0  0  0  0  0  0  0  0  0  0
    6.3142    1.6257  -17.6481 C   0  0  0  0  0  0  0  0  0  0  0  0
    8.8194    9.0519  -19.3042 C   0  0  0  0  0  0  0  0  0  0  0  0
    8.4154   10.3426  -20.0342 C   0  0  0  0  0  0  0  0  0  0  0  0
    7.3381    9.4329  -19.4273 C   0  0  0  0  0  0  0  0  0  0  0  0
    3.4338   -4.3228  -19.5651 C   0  0  0  0  0  0  0  0  0  0  0  0
    9.0133    0.6416  -13.2938 C   0  0  0  0  0  0  0  0  0  0  0  0
    4.6770    7.9264  -15.9520 C   0  0  0  0  0  0  0  0  0  0  0  0
    8.5578   -2.7154  -12.0005 C   0  0  0  0  0  0  0  0  0  0  0  0
    6.4567    8.5691  -20.3498 C   0  0  0  0  0  0  0  0  0  0  0  0
    5.2256    4.9426  -18.0538 C   0  0  0  0  0  0  0  0  0  0  0  0
    4.0376    2.1416  -20.4868 C   0  0  0  0  0  0  0  0  0  0  0  0
    4.8062    7.3168  -19.0544 C   0  0  0  0  0  0  0  0  0  0  0  0
    3.8753   -4.4692  -18.1017 C   0  0  1  0  0  0  0  0  0  0  0  0
    4.9140    2.8051  -19.3873 C   0  0  1  0  0  0  0  0  0  0  0  0
    4.6938    6.3742  -17.8107 C   0  0  2  0  0  0  0  0  0  0  0  0
    4.2683    4.1340  -18.9529 C   0  0  1  0  0  0  0  0  0  0  0  0
    4.5652   -3.2480  -17.6945 N   0  0  0  0  0  0  0  0  0  0  0  0
    5.0899    1.8727  -18.2582 N   0  0  0  0  0  0  0  0  0  0  0  0
    7.9099   -0.3486  -13.4270 N   0  0  3  0  0  0  0  0  0  0  0  0
    5.9354   -4.2384  -16.1732 O   0  0  0  0  0  0  0  0  0  0  0  0
    7.2914    2.3346  -17.8649 O   0  0  0  0  0  0  0  0  0  0  0  0
    6.0919   -1.7620  -12.1757 O   0  0  0  0  0  0  0  0  0  0  0  0
    7.8155   -0.4643  -10.8421 O   0  0  0  0  0  0  0  0  0  0  0  0
    3.0456    3.8751  -18.2573 O   0  0  0  0  0  0  0  0  0  0  0  0
    4.1605    0.6958  -20.5398 O   0  0  0  0  0  0  0  0  0  0  0  0
    5.4085    6.9199  -16.6848 O   0  0  0  0  0  0  0  0  0  0  0  0
    6.1255    7.3359  -19.6583 O   0  0  0  0  0  0  0  0  0  0  0  0
    8.7457    1.0091  -22.1400 F   0  0  0  0  0  0  0  0  0  0  0  0
    6.8181   -3.2310  -21.0597 F   0  0  0  0  0  0  0  0  0  0  0  0
    7.4701   -1.2717  -12.0201 S   0  0  0  0  0  0  0  0  0  0  0  0
   -0.4373   -5.4197  -14.9628 H   0  0  0  0  0  0  0  0  0  0  0  0
   -0.2214   -3.2358  -16.1368 H   0  0  0  0  0  0  0  0  0  0  0  0
    1.3464   -7.1395  -15.1915 H   0  0  0  0  0  0  0  0  0  0  0  0
    1.7693   -2.7783  -17.5573 H   0  0  0  0  0  0  0  0  0  0  0  0
    3.3309   -6.6928  -16.6219 H   0  0  0  0  0  0  0  0  0  0  0  0
    5.3442   -0.8583  -18.0459 H   0  0  0  0  0  0  0  0  0  0  0  0
    6.9003   -2.6217  -14.4382 H   0  0  0  0  0  0  0  0  0  0  0  0
    7.5460    1.5586  -15.2500 H   0  0  0  0  0  0  0  0  0  0  0  0
    6.3715    1.9718  -21.5553 H   0  0  0  0  0  0  0  0  0  0  0  0
    4.6710   -1.8389  -20.4665 H   0  0  0  0  0  0  0  0  0  0  0  0
    8.7427   -1.6113  -21.8475 H   0  0  0  0  0  0  0  0  0  0  0  0
    9.2173    8.1992  -19.8740 H   0  0  0  0  0  0  0  0  0  0  0  0
    9.3222    9.1067  -18.3274 H   0  0  0  0  0  0  0  0  0  0  0  0
    8.6287   11.3214  -19.5798 H   0  0  0  0  0  0  0  0  0  0  0  0
    8.5238   10.4139  -21.1265 H   0  0  0  0  0  0  0  0  0  0  0  0
    6.8566    9.8013  -18.5094 H   0  0  0  0  0  0  0  0  0  0  0  0
    4.3157   -4.1481  -20.1990 H   0  0  0  0  0  0  0  0  0  0  0  0
    2.9263   -5.2435  -19.8888 H   0  0  0  0  0  0  0  0  0  0  0  0
    2.7427   -3.4719  -19.6561 H   0  0  0  0  0  0  0  0  0  0  0  0
    9.4033    0.6207  -12.2655 H   0  0  0  0  0  0  0  0  0  0  0  0
    9.8202    0.3880  -13.9971 H   0  0  0  0  0  0  0  0  0  0  0  0
    8.6319    1.6481  -13.5208 H   0  0  0  0  0  0  0  0  0  0  0  0
    5.2904    8.2886  -15.1137 H   0  0  0  0  0  0  0  0  0  0  0  0
    4.4385    8.7662  -16.6212 H   0  0  0  0  0  0  0  0  0  0  0  0
    3.7446    7.4914  -15.5628 H   0  0  0  0  0  0  0  0  0  0  0  0
    8.3232   -3.3400  -11.1259 H   0  0  0  0  0  0  0  0  0  0  0  0
    8.4072   -3.3004  -12.9197 H   0  0  0  0  0  0  0  0  0  0  0  0
    9.6053   -2.3843  -11.9441 H   0  0  0  0  0  0  0  0  0  0  0  0
    5.5337    9.1144  -20.5964 H   0  0  0  0  0  0  0  0  0  0  0  0
    7.0046    8.3385  -21.2753 H   0  0  0  0  0  0  0  0  0  0  0  0
    6.2095    5.0040  -18.5419 H   0  0  0  0  0  0  0  0  0  0  0  0
    5.3277    4.4293  -17.0863 H   0  0  0  0  0  0  0  0  0  0  0  0
    2.9850    2.3934  -20.2904 H   0  0  0  0  0  0  0  0  0  0  0  0
    4.3366    2.5512  -21.4630 H   0  0  0  0  0  0  0  0  0  0  0  0
    4.0832    6.9793  -19.8116 H   0  0  0  0  0  0  0  0  0  0  0  0
    4.5550    8.3398  -18.7378 H   0  0  0  0  0  0  0  0  0  0  0  0
    4.5610   -5.3258  -18.0242 H   0  0  0  0  0  0  0  0  0  0  0  0
    5.8981    3.0281  -19.8251 H   0  0  0  0  0  0  0  0  0  0  0  0
    3.6274    6.2944  -17.5530 H   0  0  0  0  0  0  0  0  0  0  0  0
    4.0620    4.7273  -19.8559 H   0  0  0  0  0  0  0  0  0  0  0  0
    4.3209   -2.3931  -18.1522 H   0  0  0  0  0  0  0  0  0  0  0  0
    4.2841    1.3917  -17.9126 H   0  0  0  0  0  0  0  0  0  0  0  0
    2.4616    3.3771  -18.8170 H   0  0  0  0  0  0  0  0  0  0  0  0
  1  2  1  0  0  0  0
  1  3  2  0  0  0  0
  2  4  2  0  0  0  0
  3  5  1  0  0  0  0
  4 14  1  0  0  0  0
  5 14  2  0  0  0  0
  6 12  1  0  0  0  0
  6 13  2  0  0  0  0
  7 12  2  0  0  0  0
  7 15  1  0  0  0  0
  8 13  1  0  0  0  0
  8 15  2  0  0  0  0
  9 16  1  0  0  0  0
  9 17  2  0  0  0  0
 10 16  2  0  0  0  0
 10 18  1  0  0  0  0
 11 17  1  0  0  0  0
 11 18  2  0  0  0  0
 12 19  1  0  0  0  0
 13 20  1  0  0  0  0
 14 32  1  0  0  0  0
 15 38  1  0  0  0  0
 16 44  1  0  0  0  0
 17 47  1  0  0  0  0
 18 48  1  0  0  0  0
 19 36  1  0  0  0  0
 19 39  2  0  0  0  0
 20 37  1  0  0  0  0
 20 40  2  0  0  0  0
 21 22  1  0  0  0  0
 21 23  1  0  0  0  0
 22 23  1  0  0  0  0
 23 28  1  0  0  0  0
 24 32  1  0  0  0  0
 25 38  1  0  0  0  0
 26 45  1  0  0  0  0
 27 49  1  0  0  0  0
 28 46  1  0  0  0  0
 29 34  1  0  0  0  0
 29 35  1  0  0  0  0
 30 33  1  0  0  0  0
 30 44  1  0  0  0  0
 31 34  1  0  0  0  0
 31 46  1  0  0  0  0
 32 36  1  0  0  0  0
 33 35  1  0  0  0  0
 33 37  1  0  0  0  0
 34 45  1  0  0  0  0
 35 43  1  0  0  0  0
 38 49  1  0  0  0  0
 41 49  2  0  0  0  0
 42 49  2  0  0  0  0
  1 50  1  0  0  0  0
  2 51  1  0  0  0  0
  3 52  1  0  0  0  0
  4 53  1  0  0  0  0
  5 54  1  0  0  0  0
  6 55  1  0  0  0  0
  7 56  1  0  0  0  0
  8 57  1  0  0  0  0
  9 58  1  0  0  0  0
 10 59  1  0  0  0  0
 11 60  1  0  0  0  0
 21 61  1  0  0  0  0
 21 62  1  0  0  0  0
 22 63  1  0  0  0  0
 22 64  1  0  0  0  0
 23 65  1  0  0  0  0
 24 66  1  0  0  0  0
 24 67  1  0  0  0  0
 24 68  1  0  0  0  0
 25 69  1  0  0  0  0
 25 70  1  0  0  0  0
 25 71  1  0  0  0  0
 26 72  1  0  0  0  0
 26 73  1  0  0  0  0
 26 74  1  0  0  0  0
 27 75  1  0  0  0  0
 27 76  1  0  0  0  0
 27 77  1  0  0  0  0
 28 78  1  0  0  0  0
 28 79  1  0  0  0  0
 29 80  1  0  0  0  0
 29 81  1  0  0  0  0
 30 82  1  0  0  0  0
 30 83  1  0  0  0  0
 31 84  1  0  0  0  0
 31 85  1  0  0  0  0
 32 86  1  0  0  0  0
 33 87  1  0  0  0  0
 34 88  1  0  0  0  0
 35 89  1  0  0  0  0
 36 90  1  0  0  0  0
 37 91  1  0  0  0  0
 43 92  1  0  0  0  0
M  END
> <OMEGA_C>
BFnbPjkPp8CzO3nBIYwMPy0Lf8Ar9IHBMdO3PytLxsAmXnvB1E3WP5mPbsBuaIjBBtUjQB8wvsAB
KYTBhL+8QIacRL+i/IjBiTPYQF8H4b8yIHHBtubjQBDlGj/kc3jBPiLPQPrNZz/MVqvBMS2wQBUI
oL/aiqbBd+v5QDj8j79x0qzBXVzCQEXH8r8PXYLBiyjOQIvF8j6MA4bBCI0rQLzFlsDblonBVCLo
QCovAL8ckWrB3QasQAKpFz5zaqfBqBv2QPVjiz7Vyq3B1cbWQECW8b/hS6nBEUmxQM4/TcAeq4XB
wg3KQPUX0D9fL43BbRwNQW3UEEEDb5rBXqUGQTt7JUHyRaDBptHqQEPtFkEXa5vBc8NbQE9UisBg
hZzBbjYQQUI+JD+Ns1TBQqqVQFml/UBAO3/B4+wIQZrILcDqAUDBBJ3OQA4bCUF8zKLBODinQNIp
nkAnbpDBAzSBQCgQCUAP5aPBZ8yZQPwi6kBgb5jBlgR4QKoDj8BW0JDBIz+dQF+GM0AmGZvBxDOW
QBf5y0BMfI7BFJaIQGlJhECin5fB0hWSQK7eT8BHjo3BSeCiQN+z7z/kEJLBPh79QHZ4sr7c1FbB
wu69QOSgh8CxYoHB7VLpQMVqFUBV647B4/DCQImI4b+Kz0LBeBj6QJa67b4feS3B0utCQBECeEDc
DpLBICOFQOAfMj96UaTBMhKtQJpv3UCIeoXB1APEQAbA6kAtRJ3BZO4LQSoqgT/OHrHBwC3aQCzJ
TsBbeqjBAwvvQNfGor9nUkDBAOnfvtFtrcDRZ2/BhrJivsUXT8ApGIHBpVWsP/V25MA8EHPBhHni
PwbQMcBwdYzB0yxVQDsr1sCn+YTB1gOrQKe8W78SXpDBgM/cQLHKJ8DCAmfBgHjxQKh+xz8dAHTB
L+PLQMRk/D9TcazB7XiVQK5i679Vu6PB/uELQQRAzr+Yx67B6XkTQc4vA0Hv/Z7BwicVQQW1EUFx
npLBPQ8KQXokNUGHo5zBZGEIQUOfJkEFA6nBd2nbQBXSHEFIE5TBHRqKQI+9hMCFl6HBREk7QPXK
p8AsHJ/BVYgvQOIyXsC0P53B+XMWQaDkHj+MP0TBfh8dQYCmxj4z9F/BUBwKQfTz0j9EVVjBkEqp
QOidBEGp0XHBWAiOQG1CDEE4+ITBMqhvQMK570BuAXnBACwFQW3CVcDRAzLBtoMGQTo5U8BHt07B
Zq8ZQdKYGMDtGj/B1BOxQGPUEUFnxaTBECbgQJdqBUHpM6rB47PGQKsgoEDcVZTBm3yqQHC8jUC5
sIjBtAk/QDEtGUDQUqLBh8WKQKBHI0AitKvBhqmCQGtW30Amfp7BSsKRQPNvBUEB55XBWPORQE5t
qsCXMZDBdL28QC/NQUC3mZ7BdCdoQHxryUCObIzBKfyBQHFGl0Dl2J7Bi0SKQGEoGcCvN5HBoheJ
QD0jsj8bTY/Bz4odQAUiWEBCiZbB

> <OMEGA_E>
NM8NPw==

> <OMEGA_NBR>
      3525

$$$$
50197270
  -OEChem-04172616093D

 78 81  0     1  0  0  0  0  0999 V2000
    8.6970    8.5343  -17.8510 C   0  0  0  0  0  0  0  0  0  0  0  0
    7.8879    9.2918  -16.9823 C   0  0  0  0  0  0  0  0  0  0  0  0
    9.0411    0.7024  -14.9001 C   0  0  0  0  0  0  0  0  0  0  0  0
    8.6184    1.6472  -15.8546 C   0  0  0  0  0  0  0  0  0  0  0  0
    8.4683   -0.5830  -14.8814 C   0  0  0  0  0  0  0  0  0  0  0  0
    8.1689    7.3986  -18.4904 C   0  0  0  0  0  0  0  0  0  0  0  0
    6.5542    8.9064  -16.7420 C   0  0  0  0  0  0  0  0  0  0  0  0
    7.0346    0.0234  -16.7626 C   0  0  0  0  0  0  0  0  0  0  0  0
    6.7972    1.1667  -21.4475 C   0  0  0  0  0  0  0  0  0  0  0  0
    5.0540   -0.4070  -20.7712 C   0  0  0  0  0  0  0  0  0  0  0  0
    7.1627   -1.2304  -21.6783 C   0  0  0  0  0  0  0  0  0  0  0  0
    7.6079    1.3143  -16.7892 C   0  0  0  0  0  0  0  0  0  0  0  0
    7.4720   -0.9310  -15.8204 C   0  0  0  0  0  0  0  0  0  0  0  0
    6.8346    7.0125  -18.2492 C   0  0  0  0  0  0  0  0  0  0  0  0
    6.0243    7.7623  -17.3663 C   0  0  0  0  0  0  0  0  0  0  0  0
    5.5170    0.9153  -20.9050 C   0  0  0  0  0  0  0  0  0  0  0  0
    7.6267    0.0934  -21.8126 C   0  0  0  0  0  0  0  0  0  0  0  0
    5.8714   -1.4775  -21.1691 C   0  0  0  0  0  0  0  0  0  0  0  0
    7.1609    2.2968  -17.7970 C   0  0  0  0  0  0  0  0  0  0  0  0
    6.8251   -2.2573  -15.7527 C   0  0  0  0  0  0  0  0  0  0  0  0
    6.2447    5.8711  -19.0220 C   0  0  0  0  0  0  0  0  0  0  0  0
    4.6491    7.2698  -16.9479 C   0  0  0  0  0  0  0  0  0  0  0  0
    5.1416    5.1735  -18.1874 C   0  0  2  0  0  0  0  0  0  0  0  0
    9.5002   -4.2056  -17.0973 C   0  0  0  0  0  0  0  0  0  0  0  0
    3.8801   -3.1043  -17.8270 C   0  0  0  0  0  0  0  0  0  0  0  0
    4.6341    2.0557  -20.4735 C   0  0  0  0  0  0  0  0  0  0  0  0
    8.5649   -4.0496  -18.3100 C   0  0  0  0  0  0  0  0  0  0  0  0
    4.7785   -4.3526  -17.9031 C   0  0  0  0  0  0  0  0  0  0  0  0
    7.5482   -2.9098  -18.0938 C   0  0  0  0  0  0  0  0  0  0  0  0
    5.8593   -4.3364  -16.8045 C   0  0  0  0  0  0  0  0  0  0  0  0
    4.4135    4.0803  -18.9906 C   0  0  2  0  0  0  0  0  0  0  0  0
    5.3762    2.9808  -19.4872 C   0  0  1  0  0  0  0  0  0  0  0  0
    5.8849    2.1789  -18.3527 N   0  0  0  0  0  0  0  0  0  0  0  0
    6.7156   -3.1144  -16.8728 N   0  0  0  0  0  0  0  0  0  0  0  0
    4.1300    6.1890  -17.8111 N   0  3  0  0  0  0  0  0  0  0  0  0
    7.9286    3.1830  -18.1527 O   0  0  0  0  0  0  0  0  0  0  0  0
    6.3351   -2.5779  -14.6755 O   0  0  0  0  0  0  0  0  0  0  0  0
    3.7563    4.6891  -20.1075 O   0  0  0  0  0  0  0  0  0  0  0  0
    8.8675    0.3360  -22.2912 F   0  0  0  0  0  0  0  0  0  0  0  0
    5.4171   -2.7443  -21.0538 F   0  0  0  0  0  0  0  0  0  0  0  0
    9.7223    8.8252  -18.0260 H   0  0  0  0  0  0  0  0  0  0  0  0
    8.2904   10.1700  -16.4994 H   0  0  0  0  0  0  0  0  0  0  0  0
    9.8047    0.9640  -14.1825 H   0  0  0  0  0  0  0  0  0  0  0  0
    9.0667    2.6296  -15.8742 H   0  0  0  0  0  0  0  0  0  0  0  0
    8.7915   -1.3057  -14.1468 H   0  0  0  0  0  0  0  0  0  0  0  0
    8.7846    6.8228  -19.1655 H   0  0  0  0  0  0  0  0  0  0  0  0
    5.9366    9.4912  -16.0764 H   0  0  0  0  0  0  0  0  0  0  0  0
    6.2577   -0.2341  -17.4672 H   0  0  0  0  0  0  0  0  0  0  0  0
    7.1376    2.1828  -21.5813 H   0  0  0  0  0  0  0  0  0  0  0  0
    4.0723   -0.5980  -20.3634 H   0  0  0  0  0  0  0  0  0  0  0  0
    7.7966   -2.0562  -21.9657 H   0  0  0  0  0  0  0  0  0  0  0  0
    5.8070    6.2526  -19.9562 H   0  0  0  0  0  0  0  0  0  0  0  0
    7.0361    5.1445  -19.2578 H   0  0  0  0  0  0  0  0  0  0  0  0
    4.7116    6.8935  -15.9162 H   0  0  0  0  0  0  0  0  0  0  0  0
    3.9477    8.1162  -16.9877 H   0  0  0  0  0  0  0  0  0  0  0  0
    5.5908    4.7300  -17.2866 H   0  0  0  0  0  0  0  0  0  0  0  0
   10.2104   -5.0246  -17.2843 H   0  0  0  0  0  0  0  0  0  0  0  0
   10.0544   -3.2688  -16.9389 H   0  0  0  0  0  0  0  0  0  0  0  0
    8.9040   -4.4348  -16.2017 H   0  0  0  0  0  0  0  0  0  0  0  0
    3.1222   -3.1482  -18.6230 H   0  0  0  0  0  0  0  0  0  0  0  0
    3.3811   -3.0709  -16.8473 H   0  0  0  0  0  0  0  0  0  0  0  0
    4.4953   -2.2015  -17.9561 H   0  0  0  0  0  0  0  0  0  0  0  0
    4.3372    2.6368  -21.3590 H   0  0  0  0  0  0  0  0  0  0  0  0
    3.7367    1.6510  -19.9826 H   0  0  0  0  0  0  0  0  0  0  0  0
    9.1692   -3.8259  -19.2015 H   0  0  0  0  0  0  0  0  0  0  0  0
    8.0187   -4.9919  -18.4643 H   0  0  0  0  0  0  0  0  0  0  0  0
    4.1550   -5.2502  -17.7784 H   0  0  0  0  0  0  0  0  0  0  0  0
    5.2691   -4.3808  -18.8872 H   0  0  0  0  0  0  0  0  0  0  0  0
    8.0967   -1.9617  -17.9926 H   0  0  0  0  0  0  0  0  0  0  0  0
    6.8844   -2.8578  -18.9694 H   0  0  0  0  0  0  0  0  0  0  0  0
    5.3659   -4.3687  -15.8218 H   0  0  0  0  0  0  0  0  0  0  0  0
    6.4983   -5.2239  -16.9232 H   0  0  0  0  0  0  0  0  0  0  0  0
    3.6668    3.6108  -18.3334 H   0  0  0  0  0  0  0  0  0  0  0  0
    6.2182    3.4565  -20.0114 H   0  0  0  0  0  0  0  0  0  0  0  0
    5.2682    1.5006  -17.9533 H   0  0  0  0  0  0  0  0  0  0  0  0
    3.3884    5.7275  -17.3241 H   0  0  0  0  0  0  0  0  0  0  0  0
    3.7726    6.6013  -18.6492 H   0  0  0  0  0  0  0  0  0  0  0  0
    3.3033    4.0227  -20.6107 H   0  0  0  0  0  0  0  0  0  0  0  0
  1  2  1  0  0  0  0
  1  6  2  0  0  0  0
  2  7  2  0  0  0  0
  3  4  1  0  0  0  0
  3  5  2  0  0  0  0
  4 12  2  0  0  0  0
  5 13  1  0  0  0  0
  6 14  1  0  0  0  0
  7 15  1  0  0  0  0
  8 12  1  0  0  0  0
  8 13  2  0  0  0  0
  9 16  1  0  0  0  0
  9 17  2  0  0  0  0
 10 16  2  0  0  0  0
 10 18  1  0  0  0  0
 11 17  1  0  0  0  0
 11 18  2  0  0  0  0
 12 19  1  0  0  0  0
 13 20  1  0  0  0  0
 14 15  2  0  0  0  0
 14 21  1  0  0  0  0
 15 22  1  0  0  0  0
 16 26  1  0  0  0  0
 17 39  1  0  0  0  0
 18 40  1  0  0  0  0
 19 33  1  0  0  0  0
 19 36  2  0  0  0  0
 20 34  1  0  0  0  0
 20 37  2  0  0  0  0
 21 23  1  0  0  0  0
 22 35  1  0  0  0  0
 23 31  1  0  0  0  0
 23 35  1  0  0  0  0
 24 27  1  0  0  0  0
 25 28  1  0  0  0  0
 26 32  1  0  0  0  0
 27 29  1  0  0  0  0
 28 30  1  0  0  0  0
 29 34  1  0  0  0  0
 30 34  1  0  0  0  0
 31 32  1  0  0  0  0
 31 38  1  0  0  0  0
 32 33  1  0  0  0  0
  1 41  1  0  0  0  0
  2 42  1  0  0  0  0
  3 43  1  0  0  0  0
  4 44  1  0  0  0  0
  5 45  1  0  0  0  0
  6 46  1  0  0  0  0
  7 47  1  0  0  0  0
  8 48  1  0  0  0  0
  9 49  1  0  0  0  0
 10 50  1  0  0  0  0
 11 51  1  0  0  0  0
 21 52  1  0  0  0  0
 21 53  1  0  0  0  0
 22 54  1  0  0  0  0
 22 55  1  0  0  0  0
 23 56  1  0  0  0  0
 24 57  1  0  0  0  0
 24 58  1  0  0  0  0
 24 59  1  0  0  0  0
 25 60  1  0  0  0  0
 25 61  1  0  0  0  0
 25 62  1  0  0  0  0
 26 63  1  0  0  0  0
 26 64  1  0  0  0  0
 27 65  1  0  0  0  0
 27 66  1  0  0  0  0
 28 67  1  0  0  0  0
 28 68  1  0  0  0  0
 29 69  1  0  0  0  0
 29 70  1  0  0  0  0
 30 71  1  0  0  0  0
 30 72  1  0  0  0  0
 31 73  1  0  0  0  0
 32 74  1  0  0  0  0
 33 75  1  0  0  0  0
 35 76  1  0  0  0  0
 35 77  1  0  0  0  0
 38 78  1  0  0  0  0
M  CHG  1  35   1
M  END
> <OMEGA_C>
GCcLQUuMCEHYzo7BSGn8QFmrFEHI24fBa6gQQRLQMz/5Zm7BIuUJQRfX0j+grH3BO34HQetAFb9O
Gm7BnbMCQSDB7EBU7JPB/LvRQMeADkGc74XB0xvhQOD0vzzXGYbBkYLZQKtVlT92lKvBHrqhQKpf
0L5cK6bBdzTlQLZ9nb83ba3BknPzQAM7qD9ZUIbB0BrvQN5Sbr92IH3BR7XaQMZm4EBM/pHBUMfA
QL9k+EA87orBVouwQK5Saj9wPafBkw30QHBcvz0kgK7BXuK7QHEevb9AWqnB7CXlQPb9EkBHYI7B
EmfaQNx2EMA/C3zBydTHQDrgu0ADLZjBjcWUQEOi6EBdlYfBHYikQIiNpUDZf5HBsgAYQYeUhsBA
x4jBAFR4QE6sRsC6nY7Bm0qUQMyPA0C9yaPB6AkJQZCWgcDxepLBWemYQFRIi8CMOY/BQ4vxQMo6
OsAPwJDBCX+7QC3EisCHb4bBtzuNQK6RgkDZ7JfBrgmsQALGPkC05ZvBbFG8QGRyC0Bk0pLBkebW
QFJSR8Bw+4bBuSiEQFkMxkAufY7Barf9QNC2S0C+OJHBZrnKQNz8JMDjzmrBAWhwQAgNlkBB3KDB
UuENQaICrD55VLLBIFmtQBKjL8BDbqjBhY4bQQU0DUEpNZDBoaUEQTS4IkHK/oPB8d8cQdDIdj+z
62LBBBERQU5LKECH/H3BDaoMQWohp79MWWLB040MQWBU2kDaUpnBZvi9QMLbF0FrnIDBuD7IQOGr
b77BvIvBTGfkQMizC0CKpqzBY1CCQHQYGb9Q6KLBiX35QMqYA8DOua/BtNK5QEsVyEBipp/BHyjh
QGqfpED6D5rBUcWWQOuX3ECmqH7BWad8QCPcAUHQ5ofBiueyQFJcl0DeSorBwV0jQSTJoMAmRorB
6t4gQVczUcD0gofBsXYOQeXpjcAinYHBqNJHQKZ8ScD/+5TBk2RYQF6KRMA1x4bBhNmPQCbmDMAM
po/BLcqKQLHAKEBJ36rBIiZvQM5U0z923J/B97QSQd7adMDCnJnBvkwAQai9n8DxtpPBjPWEQHYB
qMApOo7Bx5yoQFovjMD/GJfBOowBQcsZ+7/F8I/BPE3cQGXlNsA7wZfBnrWrQKfMi8AsJn3BJ/LP
QN8pp8DJYofBFKxqQNQXZ0DiqpLBHfvGQHo3XUBTF6DBsZSoQPQSwD9yoI/B7ttYQOxHt0Dal4rB
CXJxQHI900CCMZXBlmlTQAq6gEDK4qTB+IAKQbseCUGSq47BCGT7QLtnFEExUYfBopYQQSmRPT+r
Lm7BatIJQW0f2D/5a33B34oHQYWRDL8MCm7BaB0CQfyC7kBAFJTBx/7QQOPUDUHfXYXBgn/hQFA2
cj3sHIbBY3vZQE5/jz++tavBUGmgQFu1zr7yPabB0PbiQOygpL/Fkq3BeaLzQDsfrT+9RIbBQ2bv
QIhJZb+tK33BiN/ZQCAy4UA2E5LBIRXAQJjR90C8s4rBEFWwQLCsZz+LW6fBoADzQPjLwzxAqK7B
uIy5QJiOv7/7bqnBrIPlQJELFUDwZo7Bea7aQKoiDsDbT3zBjD/HQMrovEAlY5jBMwCUQADM50DP
gYfBZzOlQEY+pUC9l5HBtud6QF58QsCpiY7BjDYYQexJiMDRo4jBOt+UQEFGBEDy/aPBpUqaQOz8
iMDOjI/Bq/AJQfD/gMDShJLB0vy8QLa5icBjzIbBTiL0QE+9N8D9tJDBMgiOQGBegkADDJjBBeqs
QMEZP0D4HpzBBDe9QNe0C0DMEpPByKfYQICDRcCsGIfBwQuEQCJMxEBKNo7B8dj9QH9kTkBtL5HB
bP7IQLxgIcBsemvBoPpwQJL2lUBH5KDBTnMNQdRJaj7dgLLB+9ypQKbwL8CMfqjB+MEaQZYtDkHT
J5DBaSMEQZUfIkG6KoPBzrYcQTVegD/jm2LB3twQQSsuK0A5lH3Bg7oMQWQmo78rVmLBaOILQe1M
3UCbwpnBtWW9QBuVFkEjgn/BXtPIQLeOTL4szIvBbE3lQOAkCEAcxazBYumAQFUyEb/H76LBEWr2
QLdJCMBx6q/B6i24QJuFyUA4sJ/Bwd7gQOhtpkB/lZrBnXuVQNqv3ECJVH7BW6N6QERNAUFFHojB
9qa0QLfLlkAdj4rBnjlKQKl+Q8DC5JTBdTBbQAXSQsB0robBnwyRQIpVCMD/T4/BPUwjQe7mosD1
NIrBp2ghQXkVVsCA9IbBDyAOQbsekMAjs4HBpuiLQKxwKUA2H6vB655vQCKM1z9uFaDBw2yGQN3k
pcADz47BJ+GpQKCmiMCOcJfBCSgUQdi3csDbbJnBcd8AQepvnsB9K5TByE+tQAKLi8BY3X3BrjjR
QBIlpsBg+IfBsS4DQVxG+L8joY/BzHHfQPbyMcAgypfBYdFsQJcDZkDqxZLBuLvHQMbaXUA6VKDB
o+CpQCqCvT9tEJDB/oRbQKZ4tEBiDYrBA6NtQDzX0EB/yZTBsB5UQDqkgEDk7qTBSEULQXL+CEG7
bpDBCSP+QOXZFEFLDInBAoATQelHID8tFnHB42gMQWyQyD9bJYDB0w8JQTPGHb87LW/B628CQTyG
7UABVJXBxiDUQOBuDkH5hIbBa3vhQGDtzDuYC4bBkQbWQOFejj8tt6vBfr6dQLL02b6+/KXBoYzf
QDMVpb+j3a3BAcz1QHoCoj8s7obBdTzvQIgabb8EonzBSenaQFyL4ECXwZLBxGPCQPM0+ECPUIvB
Zm+tQLbTYj8QEafBs0fvQNBVtjzf9K7BDKK2QEE7wb8af6nBykXmQIeAEEDG0o7BtUHWQNw8CsAu
OnnBHUzHQKF0u0D0lJjBdmqXQCwC6EDnVYfBCJulQHQJpUAzapHBiW6MQJAwTMDKq5HBIuEWQcfL
gcDIT5jB0jCSQFOYAkDpbqPBaeCMQNrmd8D/uIbBHL0CQV30WMDd2JPByTm6QNOGi8DNm4PBqoYC
QXrIZcCivYfB5yaNQPLigUBIfJfBoj+rQCVePUCfxJvBgL68QJWeCUCT3ZLBoeDaQArUUcBRRIPB
SaSFQPI4xUAs+Y3Bsiz+QGv+SUBpyZHBqfS7QAKoCsDysmrBJHRsQGEilUC1KaDBEjcLQfJkcT59
OLPB4/emQKLTMMCz2qjB3GUbQYTlDUG0VZLBz9MFQcrkIkHQUIXBy/IgQWaUWz9u42bB5lsUQR1t
IUBszoDBMGkOQXuUqr8yZ2PB0bcLQWh720B/DZvBtXjBQOqdF0Ef4YDBb0rHQJkZeL7oUYvBFJ3h
QPS/B0B5xqzBL1N9QCQ4Gb/FeKLBL+HyQIAvCMDRYbDBpbK3QP4Yx0D66Z/BqITgQEtppECqs5rB
0nCbQJYO3EBLPX7BDKSAQH1sAUEIV4fBLaC1QLD9lkDvaIrB6mZXQNojN8DUjpPBZeGhQLFhFMB1
hZHBz2eXQLCbecBCz5fBcmMXQW4te8B7C6HBgx8lQdf6ZcAdtJTBgJ0WQaAlpMAkZZbBYxWIQBLV
J0AEdqrBTpVrQKZJ0z/yRZ/BWKiBQDYWSsCGqIDBg11uQBuol8BT8obB+vACQW8pFMDMtpXB7t3o
QNd5dsDTZ5fBnHi4QCVbmsCIR3fBfIrEQHSNo8ATgInBTX8GQf5olMAT7oXBl4gOQZlvO8BnFYTB
bMtsQILcZUCn6JHBgJrFQI62W0AmM6DBRlypQGTovD8WfY/B+fJdQFxCtkBEvonB8CtxQOw60kBo
g5TBwPtNQAlff0CJ+KPB

> <OMEGA_E>
9FK5PtiNtj7qeQ8/

> <OMEGA_NBR>
      3975

$$$$
50162053
  -OEChem-04172616093D

 88 91  0     1  0  0  0  0  0999 V2000
    9.3867   11.0030  -16.3615 C   0  0  0  0  0  0  0  0  0  0  0  0
    9.1533    9.8513  -15.5819 C   0  0  0  0  0  0  0  0  0  0  0  0
    9.2011   10.9625  -17.7587 C   0  0  0  0  0  0  0  0  0  0  0  0
    8.7307    8.6584  -16.1983 C   0  0  0  0  0  0  0  0  0  0  0  0
    8.7817    9.7701  -18.3774 C   0  0  0  0  0  0  0  0  0  0  0  0
    7.0244    0.0203  -16.8791 C   0  0  0  0  0  0  0  0  0  0  0  0
    8.5780    1.6491  -15.9295 C   0  0  0  0  0  0  0  0  0  0  0  0
    8.3379   -0.5483  -14.9031 C   0  0  0  0  0  0  0  0  0  0  0  0
    6.8694    1.1318  -21.4626 C   0  0  0  0  0  0  0  0  0  0  0  0
    5.0601   -0.3644  -20.7838 C   0  0  0  0  0  0  0  0  0  0  0  0
    7.1565   -1.2832  -21.6230 C   0  0  0  0  0  0  0  0  0  0  0  0
    8.5456    8.6202  -17.5961 C   0  0  0  0  0  0  0  0  0  0  0  0
    7.6144    1.3056  -16.9031 C   0  0  0  0  0  0  0  0  0  0  0  0
    7.3986   -0.9134  -15.8887 C   0  0  0  0  0  0  0  0  0  0  0  0
    8.9188    0.7341  -14.9151 C   0  0  0  0  0  0  0  0  0  0  0  0
    5.5656    0.9377  -20.9534 C   0  0  0  0  0  0  0  0  0  0  0  0
    7.6694    0.0200  -21.7806 C   0  0  0  0  0  0  0  0  0  0  0  0
    5.8487   -1.4721  -21.1321 C   0  0  0  0  0  0  0  0  0  0  0  0
    8.0709    7.3945  -18.2367 C   0  0  0  0  0  0  0  0  0  0  0  0
    7.2051    2.2896  -17.9200 C   0  0  0  0  0  0  0  0  0  0  0  0
    6.7565   -2.2407  -15.8227 C   0  0  0  0  0  0  0  0  0  0  0  0
    5.6670    7.9914  -17.7157 C   0  0  0  0  0  0  0  0  0  0  0  0
    6.2017    5.9482  -19.0498 C   0  0  0  0  0  0  0  0  0  0  0  0
    4.6991    7.1701  -16.8545 C   0  0  0  0  0  0  0  0  0  0  0  0
    5.1784    5.1511  -18.1988 C   0  0  2  0  0  0  0  0  0  0  0  0
    9.9548    1.1056  -13.8780 C   0  0  0  0  0  0  0  0  0  0  0  0
    3.9063   -3.0654  -17.7838 C   0  0  0  0  0  0  0  0  0  0  0  0
    9.5096   -4.2330  -16.9587 C   0  0  0  0  0  0  0  0  0  0  0  0
    4.7040    2.1165  -20.5813 C   0  0  0  0  0  0  0  0  0  0  0  0
    4.7820   -4.3239  -17.9308 C   0  0  0  0  0  0  0  0  0  0  0  0
    8.6703   -4.0737  -18.2403 C   0  0  0  0  0  0  0  0  0  0  0  0
    5.8945   -4.3640  -16.8682 C   0  0  0  0  0  0  0  0  0  0  0  0
    7.6297   -2.9447  -18.0974 C   0  0  0  0  0  0  0  0  0  0  0  0
    4.4522    4.0893  -19.0385 C   0  0  2  0  0  0  0  0  0  0  0  0
    5.4271    3.0250  -19.5720 C   0  0  1  0  0  0  0  0  0  0  0  0
    6.7008    7.0875  -18.2727 N   0  0  0  0  0  0  0  0  0  0  0  0
    5.9254    2.2029  -18.4564 N   0  0  0  0  0  0  0  0  0  0  0  0
    6.7459   -3.1400  -16.9126 N   0  0  0  0  0  0  0  0  0  0  0  0
    4.1430    6.0581  -17.6476 N   0  3  0  0  0  0  0  0  0  0  0  0
    8.9014    6.6786  -18.7862 O   0  0  0  0  0  0  0  0  0  0  0  0
    7.9753    3.1833  -18.2554 O   0  0  0  0  0  0  0  0  0  0  0  0
    6.2179   -2.5436  -14.7634 O   0  0  0  0  0  0  0  0  0  0  0  0
    3.7810    4.7274  -20.1285 O   0  0  0  0  0  0  0  0  0  0  0  0
    8.9269    0.2040  -22.2420 F   0  0  0  0  0  0  0  0  0  0  0  0
    5.3448   -2.7176  -20.9992 F   0  0  0  0  0  0  0  0  0  0  0  0
    9.7083   11.9184  -15.8872 H   0  0  0  0  0  0  0  0  0  0  0  0
    9.2989    9.8844  -14.5122 H   0  0  0  0  0  0  0  0  0  0  0  0
    9.3807   11.8459  -18.3535 H   0  0  0  0  0  0  0  0  0  0  0  0
    8.5488    7.7758  -15.6031 H   0  0  0  0  0  0  0  0  0  0  0  0
    8.6411    9.7358  -19.4477 H   0  0  0  0  0  0  0  0  0  0  0  0
    6.2858   -0.2473  -17.6202 H   0  0  0  0  0  0  0  0  0  0  0  0
    9.0553    2.6173  -15.9632 H   0  0  0  0  0  0  0  0  0  0  0  0
    8.6133   -1.2557  -14.1350 H   0  0  0  0  0  0  0  0  0  0  0  0
    7.2506    2.1319  -21.6072 H   0  0  0  0  0  0  0  0  0  0  0  0
    4.0667   -0.5114  -20.3862 H   0  0  0  0  0  0  0  0  0  0  0  0
    7.7657   -2.1376  -21.8785 H   0  0  0  0  0  0  0  0  0  0  0  0
    5.1143    8.4706  -18.5372 H   0  0  0  0  0  0  0  0  0  0  0  0
    6.1469    8.7639  -17.0969 H   0  0  0  0  0  0  0  0  0  0  0  0
    7.0425    5.2929  -19.3212 H   0  0  0  0  0  0  0  0  0  0  0  0
    5.7121    6.3143  -19.9643 H   0  0  0  0  0  0  0  0  0  0  0  0
    5.2380    6.7647  -15.9855 H   0  0  0  0  0  0  0  0  0  0  0  0
    3.8796    7.8171  -16.5086 H   0  0  0  0  0  0  0  0  0  0  0  0
    5.7124    4.6535  -17.3758 H   0  0  0  0  0  0  0  0  0  0  0  0
    9.4580    1.5651  -13.0108 H   0  0  0  0  0  0  0  0  0  0  0  0
   10.4919    0.2012  -13.5561 H   0  0  0  0  0  0  0  0  0  0  0  0
   10.6687    1.8207  -14.3128 H   0  0  0  0  0  0  0  0  0  0  0  0
    3.1241   -3.0700  -18.5572 H   0  0  0  0  0  0  0  0  0  0  0  0
    3.4378   -3.0590  -16.7886 H   0  0  0  0  0  0  0  0  0  0  0  0
    4.5318   -2.1680  -17.9004 H   0  0  0  0  0  0  0  0  0  0  0  0
   10.2392   -5.0446  -17.0961 H   0  0  0  0  0  0  0  0  0  0  0  0
   10.0417   -3.2932  -16.7499 H   0  0  0  0  0  0  0  0  0  0  0  0
    8.8471   -4.4746  -16.1145 H   0  0  0  0  0  0  0  0  0  0  0  0
    4.4743    2.6957  -21.4878 H   0  0  0  0  0  0  0  0  0  0  0  0
    3.7683    1.7518  -20.1324 H   0  0  0  0  0  0  0  0  0  0  0  0
    4.1479   -5.2157  -17.8182 H   0  0  0  0  0  0  0  0  0  0  0  0
    5.2418   -4.3247  -18.9300 H   0  0  0  0  0  0  0  0  0  0  0  0
    9.3409   -3.8377  -19.0797 H   0  0  0  0  0  0  0  0  0  0  0  0
    8.1463   -5.0191  -18.4443 H   0  0  0  0  0  0  0  0  0  0  0  0
    5.4335   -4.4415  -15.8725 H   0  0  0  0  0  0  0  0  0  0  0  0
    6.5278   -5.2452  -17.0486 H   0  0  0  0  0  0  0  0  0  0  0  0
    8.1591   -1.9864  -17.9903 H   0  0  0  0  0  0  0  0  0  0  0  0
    7.0069   -2.9202  -19.0038 H   0  0  0  0  0  0  0  0  0  0  0  0
    3.7152    3.5871  -18.3946 H   0  0  0  0  0  0  0  0  0  0  0  0
    6.2672    3.5258  -20.0753 H   0  0  0  0  0  0  0  0  0  0  0  0
    5.2985    1.5345  -18.0560 H   0  0  0  0  0  0  0  0  0  0  0  0
    3.5339    5.5243  -17.0611 H   0  0  0  0  0  0  0  0  0  0  0  0
    3.6205    6.4422  -18.4089 H   0  0  0  0  0  0  0  0  0  0  0  0
    3.3307    4.0736  -20.6502 H   0  0  0  0  0  0  0  0  0  0  0  0
  1  2  1  0  0  0  0
  1  3  2  0  0  0  0
  2  4  2  0  0  0  0
  3  5  1  0  0  0  0
  4 12  1  0  0  0  0
  5 12  2  0  0  0  0
  6 13  1  0  0  0  0
  6 14  2  0  0  0  0
  7 13  2  0  0  0  0
  7 15  1  0  0  0  0
  8 14  1  0  0  0  0
  8 15  2  0  0  0  0
  9 16  1  0  0  0  0
  9 17  2  0  0  0  0
 10 16  2  0  0  0  0
 10 18  1  0  0  0  0
 11 17  1  0  0  0  0
 11 18  2  0  0  0  0
 12 19  1  0  0  0  0
 13 20  1  0  0  0  0
 14 21  1  0  0  0  0
 15 26  1  0  0  0  0
 16 29  1  0  0  0  0
 17 44  1  0  0  0  0
 18 45  1  0  0  0  0
 19 36  1  0  0  0  0
 19 40  2  0  0  0  0
 20 37  1  0  0  0  0
 20 41  2  0  0  0  0
 21 38  1  0  0  0  0
 21 42  2  0  0  0  0
 22 24  1  0  0  0  0
 22 36  1  0  0  0  0
 23 25  1  0  0  0  0
 23 36  1  0  0  0  0
 24 39  1  0  0  0  0
 25 34  1  0  0  0  0
 25 39  1  0  0  0  0
 27 30  1  0  0  0  0
 28 31  1  0  0  0  0
 29 35  1  0  0  0  0
 30 32  1  0  0  0  0
 31 33  1  0  0  0  0
 32 38  1  0  0  0  0
 33 38  1  0  0  0  0
 34 35  1  0  0  0  0
 34 43  1  0  0  0  0
 35 37  1  0  0  0  0
  1 46  1  0  0  0  0
  2 47  1  0  0  0  0
  3 48  1  0  0  0  0
  4 49  1  0  0  0  0
  5 50  1  0  0  0  0
  6 51  1  0  0  0  0
  7 52  1  0  0  0  0
  8 53  1  0  0  0  0
  9 54  1  0  0  0  0
 10 55  1  0  0  0  0
 11 56  1  0  0  0  0
 22 57  1  0  0  0  0
 22 58  1  0  0  0  0
 23 59  1  0  0  0  0
 23 60  1  0  0  0  0
 24 61  1  0  0  0  0
 24 62  1  0  0  0  0
 25 63  1  0  0  0  0
 26 64  1  0  0  0  0
 26 65  1  0  0  0  0
 26 66  1  0  0  0  0
 27 67  1  0  0  0  0
 27 68  1  0  0  0  0
 27 69  1  0  0  0  0
 28 70  1  0  0  0  0
 28 71  1  0  0  0  0
 28 72  1  0  0  0  0
 29 73  1  0  0  0  0
 29 74  1  0  0  0  0
 30 75  1  0  0  0  0
 30 76  1  0  0  0  0
 31 77  1  0  0  0  0
 31 78  1  0  0  0  0
 32 79  1  0  0  0  0
 32 80  1  0  0  0  0
 33 81  1  0  0  0  0
 33 82  1  0  0  0  0
 34 83  1  0  0  0  0
 35 84  1  0  0  0  0
 37 85  1  0  0  0  0
 39 86  1  0  0  0  0
 39 87  1  0  0  0  0
 43 88  1  0  0  0  0
M  CHG  1  39   1
M  END
> <OMEGA_C>
vi8WQTsMMEFh5ILBHXQSQceeHUFgT3nBrTcTQX1mL0G8EY7B8rALQf6ICkEYloHBx4EMQVZSHEH+
BJPBsMfgQKx5pjxiCIfBcz8JQSMU0z9P337BEGgFQRBbDL8fc27BLNLbQDzgkD9ps6vBFuyhQD2X
ur4wRabB2gHlQGo/pL/y+6zBsroIQVrsCUG3xIzBc6nzQCQepz+mOYfBP8HsQGDTab9FOH7Ba7MO
QZ3rOz9OpG7BohmyQJ8McD+DoKfBzGv1QOTpozzFPq7BuCi7QCVsvL+EDqnBVCIBQeqf7ECr5JHB
2I/mQKiIEkA8XI/BdjXYQINnD8DWKX3BGFi1QIi5/0DBuY3BpXTGQNtXvkD/ZZjB316WQFlx5UAZ
1obBerWlQLTVpEAel5HB/UYfQYWEjT9SDF7BSAF6QEIvRMBIRY7BJScYQXZ0h8B9q4fByIaWQO90
B0CNpqTB7gWZQJ1disA9co/BhrkKQcRbgsAl7JHBDaC8QDimi8Ac8obBiSb0QMF1PMCGx5DBq3iO
QDbbgkDrTpjBbKqtQPCYQUCOk5zByGzWQKTM4kCTLpLBkZy9QKv7DECvppPBB97XQJv1SMDtTIfB
G5OEQF3cwUBGLo3BIGwOQUO31UAsSpbBVjX/QHS6S0ACC5LBI/nGQGDKIsAKN2zBV/xxQDtHl0Az
B6HBgdQOQZzgUD6O77HB6girQI3tLcBV/qfBNFUbQbuxPkH0MX7BScgUQYwmHkEoMmjBNxcWQbqI
PUH105LBBMgIQQzT+EB7pnnBwUEKQeDFG0HglJvBFCXJQBtCfb4r9ozBcuIQQXOBJ0AmaX/BB9AJ
QUS8oL/UKGLBtwToQMNxCECN26zBkCKCQPrqAr/5FqPBqID4QOfNCMAtB6/BnaijQLWHB0E4TJTB
ULPEQBY5DEF8xojBS1zhQJpfqUDekZrBxcm2QLwOykDatp/Bmp2nQCt42EClxH/BkEp4QA4m+kCU
EYTBwcu2QNrplECdAYvBxVMXQc1TyD9RLFDB2t4nQQkPTj6f5VjB2bIqQU8N6T9KAWXBFPFHQFl6
RMAedZTBDgVcQJHGQ8AWT4bBRASRQCrBCsAQNI/Bs9MjQXJtocDgxIjB26ogQVXDUsDf/4XB2Y0N
QQ4wj8Br6oDBsy2PQNWGLEAb56vBiytxQDY84D8nD6HBcLuEQAXnpsC+i47BLb2nQFFkisC5cJfB
LnQVQYCcdcBHo5jBLFcCQaScoMDTjZPBod+tQKQgjsCu9X3BGeTQQGXYp8COY4jBy4sCQZpD/r81
7I/BSjjgQHrkOsC9B5jBxsVtQMCTZUAgKJPBLY3IQBKmYUBImqDBBI2pQJJqxD+6cpDBwipiQC7H
sEAPfYjBiLZnQOUmzkBYRZPB+SlVQKpagkCTM6XBlSAVQSDXMEFIQYLBjjIRQYRJHkHsSHjBMVQS
QcF6MEFyco3BmHoKQRdYC0G5N4HBarILQUWHHUEmi5LBshfjQCgctz3IJofB9rEJQbXL3T8wcn7B
TVkGQU3p+L6Pm27BocHfQBZSmD+blavBowWmQO+uqr5ni6bBDCrqQIETnL933qzBY88HQV78CkHx
aozBpDX1QEcmsT+oJ4fBqlTvQEaDWr+Qsn7BQi8PQbNaTz8uU27BrsW1QFkAej9KvqfBvBP6QMIC
uT2TAa7BRQbAQAa7tr9rP6nB250AQV3P7kD+sZHB1vHnQIuQF0AsRI/BvBjbQKXUC8BMI37Bzb2z
QHWeAEEgBY7BgX3GQC7/v0AYkJjBA+mUQHuL5kA2MIfBOtulQIEEpkDX1JHBkjQfQe+pmD95P13B
oAsXQeRnksBoU4nB5m1rQDYBWMBYxYrBGGiZQKUmCUBu6KTBBGcUQcbOSsB+KY7BKqSbQFV2gsBs
CpDBFub5QLz8NsDYD5HBGTTBQNPIiMA1PIjB+IiPQNGVg0ArmZjBJ42vQEcrREClwZzBCoPVQOrG
5EDdU5LBEWu/QDI4EEB+xJPBTVzcQLoWRMAC4ofBSQaEQAOKwkBfi43BLkIOQRzW10DuyZXBHh4A
QVmvUUBM1ZHBFRzIQBkBIMBHuG3B3jF0QP+Ml0CTY6HBHzkRQXAqlT7jibHBSzCwQLV0K8CknajB
cEsaQbddP0HMtHzBwVcTQZ6dHkFGJGfBukUVQd67PkGeGpLB7GAHQfZE+kCMGnnBbJcJQRkwHUEU
HpvBi8PLQE4QN754J43BvgwRQTBwLUCBrH7BtNYKQWC3mb/OdGLB3pnrQCWGDEBVqKzBuAWGQP8/
/r62jaPBCkr+QAUfBMBwxq7BsR2iQIcOCEH6qpTB2GvCQOMqDUFID4nB/NrhQLB3q0C0oprBdfu2
QDBay0Bi75/BLg6mQAj/2UAWLIDB02h0QE3X+kAbhYTBAOS2QJ91lkBVL4vBVb0WQeM/0D9+eE/B
IgooQcNfmD65FljBe34qQXhD9z9KxGPBXf0nQQf4l8AVZYfBwmcNQa3llMBa/YHBy58RQUyDqsAX
I4/BYYg3QIpwUMA2pJDBuoZUQK6SfsAJ/YPBjZR/QIKhGMD64YfBI0KSQF/YLUDKM6zB69N2QLPl
4T85b6HBgPoZQdY6G8BDTojBijIeQRR2RsD/c5XBCyCRQID7ocDX8ZLB9aamQNMFXsDI1pbBl673
QGvP579mrJPB4g3wQD5TYcDapZfBUYe0QPY1j8ApL4DBpJ7UQOklpMBk5YrBLgZwQLhAZkCtgZPB
dWHKQMomZUAHsKDBqpyrQHfvyD9zrJDBKEFhQCgysUBB44jBp7tmQNhuzkCfsZPBGoJYQBVXgkCG
l6XBXvQVQdBgL0Fg3YLBGMYSQerSLkGOB47BUIoSQavXHEFFU3nBLCgMQWi6G0EiAJPBte0LQW+7
CUHxnYHBo/fgQCj1CTz6DYfBHkUJQWU+0j878H7BKrYFQcZID78OoW7BubDbQPVrkD+2nqvBZgai
QMG9xL5cU6bBjm/lQJpGpL/QAq3BQ8cIQd0yCUE7yIzBDKDzQNMFpj/NO4fBET/tQPIcbb8PVn7B
MuEOQfrdOT9byG7Ba/GxQH8tbD8Wl6fBtZT1QPHjxTwhMa7ByY67QB4Avr9+JKnB3SkBQeck60D/
4ZHB3S3mQL8iEkDBUI/BVpXYQMIQEMCfJn3BLju1QG0iAEHDko7BhkHGQNz9vUC815jBTHKXQChz
5kDXQ4fBdg2mQAnXpEC3wpHBLF0fQQ8kjT8tH17BooF6QBg3RMBfUo7BFGcYQdFkh8Akx4fB3xCW
QNIHBkBmkqTBW/CYQEWtisACYI/B+KkKQTH6gsCg8ZHBR3W8QM7wi8BW2IbBxfHzQAHaPcBfzZDB
C0GOQKx4gkAHP5jBfjetQEB6QEARiZzBSk3WQPMX40Cl5ZLBMkS9QA8GDEB3nJPBi/DXQFbqScBG
Q4fBVDmFQOwSwkAwQ43B9JAOQfpU0kDSeJXB+Yf+QOHzS0Ac9ZHBJE7HQI/QIsAYK2zBqCVwQKZn
lkCd7aDB4uoOQZADYT751bHBvrirQIUEL8ASJqjBxAQbQUUJPkGAG37BeWkVQaMJPUE4w5LBjf8U
QaVPHUE3OmjBxKwJQd1DG0E8jJvB6EYJQUAM90Bkw3nBzUbJQNqXhb7x9ozBLdEQQSREJ0A4dX/B
gkIKQU9sor+samLBJq7nQKNvCEC2uKzBiDWCQPtqCr87MaPBXSn5QHhyCMA7Eq/BorSiQOQeB0HJ
MJXBs5XEQBwCDUEE9onB7S/hQLAFqUBm/prBiRO2QMLsyEAZKqDBlrSpQNpU2kDhYIDBtsR6QGIu
+0AaaoTBxra3QIlFlUD+N4vBwlAXQWr/xj+tPVDBNBEoQSqSTj49AFnBfLQqQden6T/LAWXBnZNI
QGyURMCAhpTBgFpcQJrkQsAbX4bB/4aRQBI3C8BWUI/BPBkkQTpUocDG34jBpuYgQYNSUsBlRobB
owUOQZDWjsBn64DB412OQA38KkB9z6vBpaRwQEJa3D9r7qDB82KEQM3+psCYao7BsrynQAkoi8DU
W5fBNC0VQYFrd8CBw5jBMEwCQQ9jocCDaJPBFZ2tQFsTjsB6xH3BfI7QQFVPqMB/OIjBqmgCQepf
AMBSCJDB5M3fQLLUPMCxBJjBajduQC1YZUDR65LBFRfIQM1QYEDZl6DBSVWpQDjzwT9xapDBHPBk
QPVKsUA+UojBRFFnQFqjzUDQSpPBcKhSQBVAgUAU9KTBv44VQTeOLkGzBYHB3DYSQWxoG0E/lnbB
smgSQYIXL0FmMIzB1KoLQXTJCEEpuYDB4eMLQQ58HEGeopHBR0DjQIg22j0+wIbBNYIMQWNW2z/m
0YDBKsUIQYrF2L5aN2/BivbYQNVckj9kCq3B/FukQBpV0L6MmKXBUPXlQPQpob/kra3BCYUIQTJZ
CUFf5YvBX4H3QC9crj8F4ofBPRTwQE2bRr9BI33BxSYTQVz9UD8Qi3HBy3axQLQ/aT9w4afBiULz
QKBVcD3u4K/B+oW+QOu8vr8piqjBl/8AQc9t7EBbhJHBlNnoQCzyE0BLJpDBsJvWQOWt/L9q0HjB
yfO0QFAA/0AeYI3Bwj3GQPqWvkD5bpjBNL+WQGXP40BdgYbBtQumQPMtpEBuqZHBFSMkQVoQnT8M
oWHBgY5gQJgph8AZzorBeJ8XQZQGcsCw3ZfBeH+VQE6bBEB7m6TBQH2cQFhLZsCZ74vBPMsCQZIp
U8Cl0ZLBbQG7QGJ8hMC0LYPBfgIEQcgRX8ChpIbBCauOQKlfgkDOc5jBfZqtQOilQED14ZzB2yLW
QDXI4kCRDpLBEjS/QNxiDUAsA5TB1q/eQFKgTMBYf4HBdeiEQGebwEDo/IzBfmAOQaLx1UCA+pXB
zowAQTLiS0AvZ5PBkNO2QMpF67/IhG3BNvdxQJAal0CPF6HBAJ8MQYqvkD47u7TB6OWxQC4tMMAb
YabBZ4oaQSLXPEH5sXnBwawUQcQGG0G7fGXBMv8UQenEPUHFj5DBBRAJQXs79EAGsnjBtnkJQYvc
HEE5MJrBCubJQAVmNb6XKozBmkIUQWEiK0Cdl4HB76gNQS9djb9YumLBG/niQADQCUB3zq7BH0WG
QDWpFb8tl6HBZgD6QBbsBcAv76/BS7eiQMBFB0Fd0pPB5T/EQMjKC0H8XojBp0PhQGIWqkDiyJrB
XyG2QEi7ykAUpZ/BiZeoQKRm1kDmZn/BWv54QNf590Azg4PB8p+3QGvsk0AVNovBvJEcQetC3j8A
/VPBhassQXjLqj7C61vBFIovQf559D/mZWnBBRU2QB4QdcCKEpHBPqplQCIdqsCZoYvB7A5GQPOc
fsBw5ILBD9MWQfacacACmKDBphIlQd6XTMA+p5TBnwAaQZkSm8Bi/ZXB1SKMQHrGKEAFyavBvltx
QAjm1z9vmqDB9pWpQH0EdsA73ZPBTciZQCxnIMASIIvBNGcAQScID8Bxr5TBWarqQHuVeMCUBZbB
Li+pQCNbiMCkTXfB6tnHQACoo8B0tYXB+I8IQfLNkMB044TBCDIQQZ1rM8A2ZYPBg1xuQKZHZEA0
TpPBe6nHQIWoYECFPaHBvNGrQLalxT+hhJDBnJFjQH/6rkDTU4jBKpVnQKlIzUBQ9ZLBZApVQNFS
gkCKTKXB

> <OMEGA_E>
QCXQPKBOxT2AS5c82Gm0Pg==

> <OMEGA_NBR>
      9660

$$$$
50162005
  -OEChem-04172616093D

 93 96  0     1  0  0  0  0  0999 V2000
    5.6589   10.6787  -20.7056 C   0  0  0  0  0  0  0  0  0  0  0  0
    5.6927   10.0961  -21.9860 C   0  0  0  0  0  0  0  0  0  0  0  0
    6.3516   10.0756  -19.6433 C   0  0  0  0  0  0  0  0  0  0  0  0
    7.0006    0.0462  -16.8603 C   0  0  0  0  0  0  0  0  0  0  0  0
    8.6254    1.6810  -16.0487 C   0  0  0  0  0  0  0  0  0  0  0  0
    8.4469   -0.4971  -14.9708 C   0  0  0  0  0  0  0  0  0  0  0  0
    6.7136    1.1198  -21.4536 C   0  0  0  0  0  0  0  0  0  0  0  0
    4.9788   -0.4180  -20.6803 C   0  0  0  0  0  0  0  0  0  0  0  0
    7.1226    8.3121  -21.1427 C   0  0  0  0  0  0  0  0  0  0  0  0
    7.0563   -1.2890  -21.6144 C   0  0  0  0  0  0  0  0  0  0  0  0
    7.5938    1.3283  -16.9468 C   0  0  0  0  0  0  0  0  0  0  0  0
    7.4424   -0.8761  -15.8852 C   0  0  0  0  0  0  0  0  0  0  0  0
    9.0308    0.7819  -15.0438 C   0  0  0  0  0  0  0  0  0  0  0  0
    5.4420    0.8977  -20.8821 C   0  0  0  0  0  0  0  0  0  0  0  0
    6.4321    8.9018  -22.2098 C   0  0  0  0  0  0  0  0  0  0  0  0
    7.5236    0.0265  -21.8090 C   0  0  0  0  0  0  0  0  0  0  0  0
    5.7809   -1.5092  -21.0561 C   0  0  0  0  0  0  0  0  0  0  0  0
    7.0817    8.8895  -19.8639 C   0  0  0  0  0  0  0  0  0  0  0  0
    7.1326    2.2963  -17.9593 C   0  0  0  0  0  0  0  0  0  0  0  0
    6.7974   -2.1984  -15.7453 C   0  0  0  0  0  0  0  0  0  0  0  0
    5.3163    7.8714  -17.2909 C   0  0  0  0  0  0  0  0  0  0  0  0
    5.9717    5.9587  -18.7919 C   0  0  0  0  0  0  0  0  0  0  0  0
    4.2876    6.9643  -16.6190 C   0  0  0  0  0  0  0  0  0  0  0  0
    4.9076    5.0937  -18.0768 C   0  0  2  0  0  0  0  0  0  0  0  0
   10.1345    1.1657  -14.0830 C   0  0  0  0  0  0  0  0  0  0  0  0
    9.6194   -3.9560  -16.9733 C   0  0  0  0  0  0  0  0  0  0  0  0
    3.8467   -3.0063  -17.7108 C   0  0  0  0  0  0  0  0  0  0  0  0
    5.7447    8.8136  -24.5145 C   0  0  0  0  0  0  0  0  0  0  0  0
    4.5614    2.0641  -20.5048 C   0  0  0  0  0  0  0  0  0  0  0  0
    8.6079   -4.0853  -18.1236 C   0  0  0  0  0  0  0  0  0  0  0  0
    4.6728   -4.3060  -17.7543 C   0  0  0  0  0  0  0  0  0  0  0  0
    7.5183   -2.9950  -18.0439 C   0  0  0  0  0  0  0  0  0  0  0  0
    5.7899   -4.3047  -16.6915 C   0  0  0  0  0  0  0  0  0  0  0  0
    4.2603    4.0535  -19.0037 C   0  0  2  0  0  0  0  0  0  0  0  0
    5.2746    3.0213  -19.5269 C   0  0  1  0  0  0  0  0  0  0  0  0
    6.4152    7.0661  -17.9018 N   0  0  1  0  0  0  0  0  0  0  0  0
    5.8155    2.2350  -18.4027 N   0  0  0  0  0  0  0  0  0  0  0  0
    6.6799   -3.1133  -16.8166 N   0  0  0  0  0  0  0  0  0  0  0  0
    3.8191    5.9552  -17.5758 N   0  3  0  0  0  0  0  0  0  0  0  0
    7.9067    3.1446  -18.3897 O   0  0  0  0  0  0  0  0  0  0  0  0
    6.3417   -2.4771  -14.6413 O   0  0  0  0  0  0  0  0  0  0  0  0
    8.1173    8.9505  -17.4364 O   0  0  0  0  0  0  0  0  0  0  0  0
    8.7580    7.0358  -18.9941 O   0  0  0  0  0  0  0  0  0  0  0  0
    3.6343    4.7207  -20.1020 O   0  0  0  0  0  0  0  0  0  0  0  0
    6.5079    8.2522  -23.4291 O   0  0  0  0  0  0  0  0  0  0  0  0
    8.7454    0.2411  -22.3463 F   0  0  0  0  0  0  0  0  0  0  0  0
    5.3212   -2.7686  -20.8886 F   0  0  0  0  0  0  0  0  0  0  0  0
    7.7542    7.9772  -18.4750 S   0  0  0  0  0  0  0  0  0  0  0  0
    5.1009   11.5884  -20.5400 H   0  0  0  0  0  0  0  0  0  0  0  0
    5.1555   10.5574  -22.8015 H   0  0  0  0  0  0  0  0  0  0  0  0
    6.3253   10.5195  -18.6591 H   0  0  0  0  0  0  0  0  0  0  0  0
    6.2084   -0.2280  -17.5412 H   0  0  0  0  0  0  0  0  0  0  0  0
    9.1055    2.6448  -16.1333 H   0  0  0  0  0  0  0  0  0  0  0  0
    8.7702   -1.1921  -14.2099 H   0  0  0  0  0  0  0  0  0  0  0  0
    7.0639    2.1281  -21.6178 H   0  0  0  0  0  0  0  0  0  0  0  0
    4.0086   -0.5875  -20.2374 H   0  0  0  0  0  0  0  0  0  0  0  0
    7.6899    7.4075  -21.3051 H   0  0  0  0  0  0  0  0  0  0  0  0
    7.6757   -2.1286  -21.8932 H   0  0  0  0  0  0  0  0  0  0  0  0
    4.8198    8.4589  -18.0772 H   0  0  0  0  0  0  0  0  0  0  0  0
    5.7429    8.5516  -16.5390 H   0  0  0  0  0  0  0  0  0  0  0  0
    6.8373    5.3307  -19.0497 H   0  0  0  0  0  0  0  0  0  0  0  0
    5.5390    6.3817  -19.7105 H   0  0  0  0  0  0  0  0  0  0  0  0
    4.7502    6.4631  -15.7559 H   0  0  0  0  0  0  0  0  0  0  0  0
    3.4343    7.5689  -16.2778 H   0  0  0  0  0  0  0  0  0  0  0  0
    5.3844    4.5717  -17.2342 H   0  0  0  0  0  0  0  0  0  0  0  0
    9.6974    1.6418  -13.1929 H   0  0  0  0  0  0  0  0  0  0  0  0
   10.6883    0.2642  -13.7819 H   0  0  0  0  0  0  0  0  0  0  0  0
   10.8208    1.8702  -14.5757 H   0  0  0  0  0  0  0  0  0  0  0  0
   10.3790   -4.7467  -17.0616 H   0  0  0  0  0  0  0  0  0  0  0  0
   10.1076   -2.9715  -17.0233 H   0  0  0  0  0  0  0  0  0  0  0  0
    9.0955   -4.0570  -16.0113 H   0  0  0  0  0  0  0  0  0  0  0  0
    3.0621   -3.0440  -18.4808 H   0  0  0  0  0  0  0  0  0  0  0  0
    3.3824   -2.9002  -16.7193 H   0  0  0  0  0  0  0  0  0  0  0  0
    4.5059   -2.1465  -17.9010 H   0  0  0  0  0  0  0  0  0  0  0  0
    5.8920    8.2062  -25.4197 H   0  0  0  0  0  0  0  0  0  0  0  0
    4.6776    8.8203  -24.2473 H   0  0  0  0  0  0  0  0  0  0  0  0
    6.0814    9.8433  -24.7052 H   0  0  0  0  0  0  0  0  0  0  0  0
    4.2940    2.6190  -21.4162 H   0  0  0  0  0  0  0  0  0  0  0  0
    3.6474    1.6815  -20.0271 H   0  0  0  0  0  0  0  0  0  0  0  0
    9.1410   -3.9886  -19.0809 H   0  0  0  0  0  0  0  0  0  0  0  0
    8.1289   -5.0740  -18.0689 H   0  0  0  0  0  0  0  0  0  0  0  0
    4.0047   -5.1600  -17.5689 H   0  0  0  0  0  0  0  0  0  0  0  0
    5.1282   -4.4063  -18.7506 H   0  0  0  0  0  0  0  0  0  0  0  0
    8.0055   -2.0088  -18.0443 H   0  0  0  0  0  0  0  0  0  0  0  0
    6.8667   -3.0824  -18.9258 H   0  0  0  0  0  0  0  0  0  0  0  0
    5.3295   -4.3006  -15.6925 H   0  0  0  0  0  0  0  0  0  0  0  0
    6.3959   -5.2148  -16.8122 H   0  0  0  0  0  0  0  0  0  0  0  0
    3.4973    3.5130  -18.4243 H   0  0  0  0  0  0  0  0  0  0  0  0
    6.0874    3.5422  -20.0542 H   0  0  0  0  0  0  0  0  0  0  0  0
    5.1923    1.6149  -17.9261 H   0  0  0  0  0  0  0  0  0  0  0  0
    3.1376    5.3791  -17.1246 H   0  0  0  0  0  0  0  0  0  0  0  0
    3.3983    6.4229  -18.3531 H   0  0  0  0  0  0  0  0  0  0  0  0
    3.2335    4.0787  -20.6762 H   0  0  0  0  0  0  0  0  0  0  0  0
  1  2  1  0  0  0  0
  1  3  2  0  0  0  0
  2 15  2  0  0  0  0
  3 18  1  0  0  0  0
  4 11  1  0  0  0  0
  4 12  2  0  0  0  0
  5 11  2  0  0  0  0
  5 13  1  0  0  0  0
  6 12  1  0  0  0  0
  6 13  2  0  0  0  0
  7 14  1  0  0  0  0
  7 16  2  0  0  0  0
  8 14  2  0  0  0  0
  8 17  1  0  0  0  0
  9 15  1  0  0  0  0
  9 18  2  0  0  0  0
 10 16  1  0  0  0  0
 10 17  2  0  0  0  0
 11 19  1  0  0  0  0
 12 20  1  0  0  0  0
 13 25  1  0  0  0  0
 14 29  1  0  0  0  0
 15 45  1  0  0  0  0
 16 46  1  0  0  0  0
 17 47  1  0  0  0  0
 18 48  1  0  0  0  0
 19 37  1  0  0  0  0
 19 40  2  0  0  0  0
 20 38  1  0  0  0  0
 20 41  2  0  0  0  0
 21 23  1  0  0  0  0
 21 36  1  0  0  0  0
 22 24  1  0  0  0  0
 22 36  1  0  0  0  0
 23 39  1  0  0  0  0
 24 34  1  0  0  0  0
 24 39  1  0  0  0  0
 26 30  1  0  0  0  0
 27 31  1  0  0  0  0
 28 45  1  0  0  0  0
 29 35  1  0  0  0  0
 30 32  1  0  0  0  0
 31 33  1  0  0  0  0
 32 38  1  0  0  0  0
 33 38  1  0  0  0  0
 34 35  1  0  0  0  0
 34 44  1  0  0  0  0
 35 37  1  0  0  0  0
 36 48  1  0  0  0  0
 42 48  2  0  0  0  0
 43 48  2  0  0  0  0
  1 49  1  0  0  0  0
  2 50  1  0  0  0  0
  3 51  1  0  0  0  0
  4 52  1  0  0  0  0
  5 53  1  0  0  0  0
  6 54  1  0  0  0  0
  7 55  1  0  0  0  0
  8 56  1  0  0  0  0
  9 57  1  0  0  0  0
 10 58  1  0  0  0  0
 21 59  1  0  0  0  0
 21 60  1  0  0  0  0
 22 61  1  0  0  0  0
 22 62  1  0  0  0  0
 23 63  1  0  0  0  0
 23 64  1  0  0  0  0
 24 65  1  0  0  0  0
 25 66  1  0  0  0  0
 25 67  1  0  0  0  0
 25 68  1  0  0  0  0
 26 69  1  0  0  0  0
 26 70  1  0  0  0  0
 26 71  1  0  0  0  0
 27 72  1  0  0  0  0
 27 73  1  0  0  0  0
 27 74  1  0  0  0  0
 28 75  1  0  0  0  0
 28 76  1  0  0  0  0
 28 77  1  0  0  0  0
 29 78  1  0  0  0  0
 29 79  1  0  0  0  0
 30 80  1  0  0  0  0
 30 81  1  0  0  0  0
 31 82  1  0  0  0  0
 31 83  1  0  0  0  0
 32 84  1  0  0  0  0
 32 85  1  0  0  0  0
 33 86  1  0  0  0  0
 33 87  1  0  0  0  0
 34 88  1  0  0  0  0
 35 89  1  0  0  0  0
 37 90  1  0  0  0  0
 39 91  1  0  0  0  0
 39 92  1  0  0  0  0
 44 93  1  0  0  0  0
M  CHG  1  39   1
M  END
> <OMEGA_C>
kxW1QMfbKkEHpaXBvyq2QMuJIUFC46/BbkDLQMY1IUGDJZ3BOgXgQIALPT3f4YbBwQEKQe0r1z/Q
Y4DBYSYHQZSC/r5AiG/BatXWQJ5Vjz8RoavBtVKfQBAA1r5LcaXBHezjQEX+BEFSJKnB4czhQKX9
pL9L6qzBPgDzQJcEqj8ik4fBvCfuQCpKYL+iKX7B+30QQT8pSD9fs3DB4SSuQGrSZT91DqfBI9TN
QJ5tDkG/rbHBAsHwQABd2TzaeK7BJv24QCcuwb/5cqjB+JziQF47DkEw6Z7BPj7kQCr2EkCdrI/B
h4TZQFCyDMDZ7HvBCx+qQE7i+0C2U4rBehi/QICtvkDEVZbBMDSJQLvb3kCj84TBwwqdQNr/okBR
nZDB/SYiQSg2lT8QVGHBHukZQYQvfcA8yYfBMjB2QPxnQMC7r43BMdS3QIwEDUHAHcTB2vaRQKYa
BEDqCaTB6bkJQf+6gsAU/ZDBxoeVQOTKicDnCI7BjpXwQMCtP8DYWZDBJEe5QGrAicAciIXBbFSI
QKG2gUCDB5jBPMmoQLJdQUAqN5zBeUnNQGgd4kDiNo/BeBi6QAwLD0C+OJPBb8HVQBZBR8BTiIbB
umx0QB6RvkBGm4zBCgT9QEBBSUARHpPBbu/KQBaIHsClQmrBjOABQVo1D0HCfYvBoCAMQXsl4UAE
9JfB6pdoQOgPl0DS0KDBdEDQQNMIBEGzbrvBA+0LQRbfdj5GxbLB9EaqQOQwMcDkG6fBUyL4QOlE
/0DkzJPBOzqjQABqOUHyUaTB0PmkQBLrKEFnabbB72jKQPJPKEHZRZXBmavGQEhsab53VIzBErAR
Qe5DKUDoEIHBjFIMQcSWmL/uW2PBKwviQEEzCEBR8azBHkaAQAZmFr8i5qHBVxP2QHkK7UDrcKrB
jJ/1QPk6CMA8Ja/BLzyaQM1XB0EenpDBqcW3QFXTCEHdT4TB58raQO6UqkDLZZjBsD+xQLw2zEAQ
r53B4QGYQO/RzkBdGHzB7stbQFU08kD3OILBSk2sQCJLkkCW34nBsCgbQVEl0j8VFlPBUQMrQUVK
hz7MglzBBiItQYNh7z8yNmnBchAmQR3ll8A7fojBmbghQdYtPsDRL4jB/oYRQbfSgcA8F4DBvPhD
QITRQsC62JPB83hYQAydOcAOwYXB7y+QQB1gCcAoNY/BiYu8QLNMA0GTW8vBCa+VQAQgDUGM+sHB
l5rCQCh+HUFEpMXBa2iJQB6dJ0B5VKvBFW9pQBY81z91N6DBdEESQXJFf8CrpZjB2Q8CQYVeosAV
jZDBwSaAQKsepcAxjYzBNxqkQDMAjcBLAZbBnxYAQQKQAMDBWpDB/bvbQIlGRcAQaJfBVIuqQOWe
icBWFHvBXqvMQKDfpsBYf4bBCdNfQLLVYEAPZZPB2cvCQMGzYkACb6DBoCemQLq1zj+3aI/BJM5I
QKkhrEA0/4jBtn1ZQJ6IzUAd05LB9vBOQOeEgkDRaKXBdnu1QFKpK0EWLqXBYfS0QOW3IkE4ga/B
BgHMQDhoIUHk7ZzBmDDgQMDzPj1s9YbBaGcJQdIy2T+DDoDBtloGQfzk974R/W7BrA3YQC5glD/n
vavB9NmgQKofy74BraXBysThQMFIBUGlVKnBkfrjQJB/n7+D8azBpb/yQKj2qj8YeYfBs4TtQPLd
Xr+xE37BYPAPQb60ST/ONHDBRT6vQJyHbD9PRqfBtErLQOlZD0G5obHBXovyQGAGmD2id67BUQq7
QFVhvb/FmKjBlCLiQM8zDkEaBJ/B90HkQCiHE0Blk4/BI+jYQDZyDMAXIHzByVurQBOy+0CbN4rB
aM2+QPxyvkDMWpbB4veJQHkS30Au2ITB8hydQLzpokDDfpDBy00gQdSAmj/8sF/Bdp93QK7cQMAy
TY7B/TEaQTRcfcBaQYfBXsG1QO/hD0HQHsTBe7WSQDc3BUAEN6TB7uiWQOiVicBbp47B6I8KQSR9
gsCes5DBHLW5QK6eicCJ6IXBKUjyQAwKP8AiRpDBCFaIQDtOgUA705fBWxGpQBqrQUA+NpzBNOXN
QDyb4UAVTY/Bznm6QMxHDkACV5PB6zzWQFjlRsAyq4bBTBN1QBbFvkAUdozBVcf8QF41S0CzxpLB
3TXJQGRNHsDXs2rBuOICQUl0DkHR3ovBgNcLQXP630ARrpjB0FdmQGFslkByeaDBs9TLQBtJBUGu
fbvBLPIMQasemj5ulLLBYcCsQNiXL8AyRKfB1pP4QOZW/kBdKpTBKpSkQF5mOkF0mqPBGYWjQISW
KkG417XB5GDMQPk4KEF//ZTBEMXHQHZXcr4Oo4zB7a4QQR0xK0D3fIDB0fgKQWN0lb9DbmLBv+ri
QPzxCkCJEK3BNrmBQKabE792NaLBFeTyQM4w7UAN4KrBXTL4QDQRBcB9G6/BHpmbQAOWB0EAZpDB
9q25QAhrCEH6KITBCinaQHsxqkA+mJjBl2WwQMA3zEDXm53B2oOYQBz2zkBp1XvBLshdQCLP8kD0
JYLB8KmsQJ13kkBuwYnBrx8YQXgH1j+9/1HBuDwpQdGSpT6YNVrB8nUrQRsa9z+z2mbBMc9GQNMe
Q8DnopTB+hZYQImsO8DfdYbB8aKQQO/+CMDVjY/BtVkmQT0JmMAy0ofB7REiQYZtPsAjfYfBAVoR
QQsOgsA+Y3/B65+4QLdEBkHXdMvBJsGTQGi5EUGYCcLB8QjEQFa/H0Gic8XBhnCKQFmBKUB8d6vB
yaZqQKwf2D8rh6DBhs2BQHBVpcCicI3B+mSmQKP+i8CXiJbBOo0TQbSBfsBKOZjBTtUCQSMYosDG
bZDBAxiqQB2kicD5CnzByD3NQP+ypsDsxIbB+fkAQakDAMCEHJDBsUveQMguRMBCfZfB50lhQBYP
X0D3EZPBofnCQOYzZEBHUaDBI9OmQIdByT+sxI/BvlxJQACIrECezojBaBJaQLHBzUDvq5LBiZpM
QDa6gUBuBKXB

> <OMEGA_E>
YDIfPgC1GD4=

> <OMEGA_NBR>
      3203

$$$$
50162051
  -OEChem-04172616093D

 89 92  0     1  0  0  0  0  0999 V2000
    5.7377   10.1264  -22.2943 C   0  0  0  0  0  0  0  0  0  0  0  0
    5.6301   10.7028  -21.0130 C   0  0  0  0  0  0  0  0  0  0  0  0
    6.4501    8.9229  -22.4691 C   0  0  0  0  0  0  0  0  0  0  0  0
    6.2409   10.0805  -19.9077 C   0  0  0  0  0  0  0  0  0  0  0  0
    7.0572    8.2962  -21.3633 C   0  0  0  0  0  0  0  0  0  0  0  0
    6.9767   -0.0085  -16.8264 C   0  0  0  0  0  0  0  0  0  0  0  0
    8.5437    1.6106  -15.8817 C   0  0  0  0  0  0  0  0  0  0  0  0
    8.3280   -0.6027  -14.8837 C   0  0  0  0  0  0  0  0  0  0  0  0
    6.8471    1.2226  -21.4059 C   0  0  0  0  0  0  0  0  0  0  0  0
    5.1009   -0.3527  -20.7419 C   0  0  0  0  0  0  0  0  0  0  0  0
    7.2192   -1.1775  -21.6249 C   0  0  0  0  0  0  0  0  0  0  0  0
    7.5629    1.2793  -16.8422 C   0  0  0  0  0  0  0  0  0  0  0  0
    7.3736   -0.9582  -15.8594 C   0  0  0  0  0  0  0  0  0  0  0  0
    8.9040    0.6822  -14.8860 C   0  0  0  0  0  0  0  0  0  0  0  0
    5.5578    0.9724  -20.8862 C   0  0  0  0  0  0  0  0  0  0  0  0
    7.6807    0.1471  -21.7633 C   0  0  0  0  0  0  0  0  0  0  0  0
    5.9262   -1.4250  -21.1213 C   0  0  0  0  0  0  0  0  0  0  0  0
    6.9631    8.8796  -20.0801 C   0  0  0  0  0  0  0  0  0  0  0  0
    7.1376    2.2765  -17.8414 C   0  0  0  0  0  0  0  0  0  0  0  0
    6.7258   -2.2848  -15.7928 C   0  0  0  0  0  0  0  0  0  0  0  0
    5.3456    7.9059  -17.2703 C   0  0  0  0  0  0  0  0  0  0  0  0
    5.9856    5.9653  -18.7522 C   0  0  0  0  0  0  0  0  0  0  0  0
    4.3641    6.9824  -16.5409 C   0  0  0  0  0  0  0  0  0  0  0  0
    4.9559    5.0981  -17.9906 C   0  0  2  0  0  0  0  0  0  0  0  0
    9.9495    1.0441  -13.8546 C   0  0  0  0  0  0  0  0  0  0  0  0
    9.5858   -4.0155  -16.9448 C   0  0  0  0  0  0  0  0  0  0  0  0
    3.8346   -3.0617  -17.9202 C   0  0  0  0  0  0  0  0  0  0  0  0
    4.6553    2.1178  -20.4914 C   0  0  0  0  0  0  0  0  0  0  0  0
    8.6302   -4.0975  -18.1464 C   0  0  0  0  0  0  0  0  0  0  0  0
    4.6955   -4.3380  -17.9735 C   0  0  0  0  0  0  0  0  0  0  0  0
    7.5429   -3.0029  -18.0833 C   0  0  0  0  0  0  0  0  0  0  0  0
    5.7545   -4.3533  -16.8531 C   0  0  0  0  0  0  0  0  0  0  0  0
    4.3031    4.0439  -18.9009 C   0  0  2  0  0  0  0  0  0  0  0  0
    5.3314    3.0363  -19.4527 C   0  0  1  0  0  0  0  0  0  0  0  0
    6.4287    7.1237  -17.9390 N   0  0  1  0  0  0  0  0  0  0  0  0
    5.8450    2.2075  -18.3486 N   0  0  0  0  0  0  0  0  0  0  0  0
    6.6440   -3.1557  -16.9032 N   0  0  0  0  0  0  0  0  0  0  0  0
    3.8737    5.9510  -17.4634 N   0  3  0  0  0  0  0  0  0  0  0  0
    7.9146    3.1545  -18.2017 O   0  0  0  0  0  0  0  0  0  0  0  0
    6.2317   -2.6060  -14.7172 O   0  0  0  0  0  0  0  0  0  0  0  0
    8.0691    9.0937  -17.6704 O   0  0  0  0  0  0  0  0  0  0  0  0
    8.7179    7.1155  -19.1336 O   0  0  0  0  0  0  0  0  0  0  0  0
    3.6319    4.7015  -19.9787 O   0  0  0  0  0  0  0  0  0  0  0  0
    8.9212    0.3871  -22.2447 F   0  0  0  0  0  0  0  0  0  0  0  0
    5.4726   -2.6925  -21.0076 F   0  0  0  0  0  0  0  0  0  0  0  0
    7.6985    8.0527  -18.6388 S   0  0  0  0  0  0  0  0  0  0  0  0
    5.2741   10.6072  -23.1430 H   0  0  0  0  0  0  0  0  0  0  0  0
    5.0790   11.6219  -20.8789 H   0  0  0  0  0  0  0  0  0  0  0  0
    6.5304    8.4810  -23.4513 H   0  0  0  0  0  0  0  0  0  0  0  0
    6.1569   10.5226  -18.9259 H   0  0  0  0  0  0  0  0  0  0  0  0
    7.5951    7.3692  -21.4966 H   0  0  0  0  0  0  0  0  0  0  0  0
    6.2233   -0.2660  -17.5561 H   0  0  0  0  0  0  0  0  0  0  0  0
    9.0194    2.5798  -15.9108 H   0  0  0  0  0  0  0  0  0  0  0  0
    8.6187   -1.3201  -14.1305 H   0  0  0  0  0  0  0  0  0  0  0  0
    7.1926    2.2385  -21.5288 H   0  0  0  0  0  0  0  0  0  0  0  0
    4.1169   -0.5442  -20.3399 H   0  0  0  0  0  0  0  0  0  0  0  0
    7.8566   -2.0032  -21.9049 H   0  0  0  0  0  0  0  0  0  0  0  0
    4.7982    8.4828  -18.0303 H   0  0  0  0  0  0  0  0  0  0  0  0
    5.7981    8.5952  -16.5423 H   0  0  0  0  0  0  0  0  0  0  0  0
    6.8607    5.3464  -18.9993 H   0  0  0  0  0  0  0  0  0  0  0  0
    5.5245    6.3353  -19.6798 H   0  0  0  0  0  0  0  0  0  0  0  0
    4.8754    6.5017  -15.6939 H   0  0  0  0  0  0  0  0  0  0  0  0
    3.5143    7.5734  -16.1687 H   0  0  0  0  0  0  0  0  0  0  0  0
    5.4660    4.5873  -17.1605 H   0  0  0  0  0  0  0  0  0  0  0  0
    9.4596    1.4880  -12.9754 H   0  0  0  0  0  0  0  0  0  0  0  0
   10.4948    0.1381  -13.5519 H   0  0  0  0  0  0  0  0  0  0  0  0
   10.6547    1.7695  -14.2865 H   0  0  0  0  0  0  0  0  0  0  0  0
   10.3442   -4.8083  -17.0241 H   0  0  0  0  0  0  0  0  0  0  0  0
   10.0814   -3.0335  -16.9371 H   0  0  0  0  0  0  0  0  0  0  0  0
    9.0154   -4.1456  -16.0133 H   0  0  0  0  0  0  0  0  0  0  0  0
    3.0924   -3.0852  -18.7316 H   0  0  0  0  0  0  0  0  0  0  0  0
    3.3168   -3.0090  -16.9511 H   0  0  0  0  0  0  0  0  0  0  0  0
    4.4801   -2.1790  -18.0394 H   0  0  0  0  0  0  0  0  0  0  0  0
    4.4139    2.7083  -21.3876 H   0  0  0  0  0  0  0  0  0  0  0  0
    3.7289    1.7109  -20.0599 H   0  0  0  0  0  0  0  0  0  0  0  0
    9.2098   -3.9720  -19.0728 H   0  0  0  0  0  0  0  0  0  0  0  0
    8.1438   -5.0841  -18.1490 H   0  0  0  0  0  0  0  0  0  0  0  0
    4.0415   -5.2151  -17.8590 H   0  0  0  0  0  0  0  0  0  0  0  0
    5.2049   -4.3850  -18.9473 H   0  0  0  0  0  0  0  0  0  0  0  0
    8.0347   -2.0206  -18.0269 H   0  0  0  0  0  0  0  0  0  0  0  0
    6.9352   -3.0567  -18.9986 H   0  0  0  0  0  0  0  0  0  0  0  0
    5.2412   -4.3732  -15.8804 H   0  0  0  0  0  0  0  0  0  0  0  0
    6.3713   -5.2577  -16.9607 H   0  0  0  0  0  0  0  0  0  0  0  0
    3.5697    3.4849  -18.3010 H   0  0  0  0  0  0  0  0  0  0  0  0
    6.1557    3.5838  -19.9332 H   0  0  0  0  0  0  0  0  0  0  0  0
    5.2186    1.5475  -17.9338 H   0  0  0  0  0  0  0  0  0  0  0  0
    3.2183    5.3726  -16.9775 H   0  0  0  0  0  0  0  0  0  0  0  0
    3.4168    6.3996  -18.2315 H   0  0  0  0  0  0  0  0  0  0  0  0
    3.2274    4.0531  -20.5431 H   0  0  0  0  0  0  0  0  0  0  0  0
  1  2  1  0  0  0  0
  1  3  2  0  0  0  0
  2  4  2  0  0  0  0
  3  5  1  0  0  0  0
  4 18  1  0  0  0  0
  5 18  2  0  0  0  0
  6 12  1  0  0  0  0
  6 13  2  0  0  0  0
  7 12  2  0  0  0  0
  7 14  1  0  0  0  0
  8 13  1  0  0  0  0
  8 14  2  0  0  0  0
  9 15  1  0  0  0  0
  9 16  2  0  0  0  0
 10 15  2  0  0  0  0
 10 17  1  0  0  0  0
 11 16  1  0  0  0  0
 11 17  2  0  0  0  0
 12 19  1  0  0  0  0
 13 20  1  0  0  0  0
 14 25  1  0  0  0  0
 15 28  1  0  0  0  0
 16 44  1  0  0  0  0
 17 45  1  0  0  0  0
 18 46  1  0  0  0  0
 19 36  1  0  0  0  0
 19 39  2  0  0  0  0
 20 37  1  0  0  0  0
 20 40  2  0  0  0  0
 21 23  1  0  0  0  0
 21 35  1  0  0  0  0
 22 24  1  0  0  0  0
 22 35  1  0  0  0  0
 23 38  1  0  0  0  0
 24 33  1  0  0  0  0
 24 38  1  0  0  0  0
 26 29  1  0  0  0  0
 27 30  1  0  0  0  0
 28 34  1  0  0  0  0
 29 31  1  0  0  0  0
 30 32  1  0  0  0  0
 31 37  1  0  0  0  0
 32 37  1  0  0  0  0
 33 34  1  0  0  0  0
 33 43  1  0  0  0  0
 34 36  1  0  0  0  0
 35 46  1  0  0  0  0
 41 46  2  0  0  0  0
 42 46  2  0  0  0  0
  1 47  1  0  0  0  0
  2 48  1  0  0  0  0
  3 49  1  0  0  0  0
  4 50  1  0  0  0  0
  5 51  1  0  0  0  0
  6 52  1  0  0  0  0
  7 53  1  0  0  0  0
  8 54  1  0  0  0  0
  9 55  1  0  0  0  0
 10 56  1  0  0  0  0
 11 57  1  0  0  0  0
 21 58  1  0  0  0  0
 21 59  1  0  0  0  0
 22 60  1  0  0  0  0
 22 61  1  0  0  0  0
 23 62  1  0  0  0  0
 23 63  1  0  0  0  0
 24 64  1  0  0  0  0
 25 65  1  0  0  0  0
 25 66  1  0  0  0  0
 25 67  1  0  0  0  0
 26 68  1  0  0  0  0
 26 69  1  0  0  0  0
 26 70  1  0  0  0  0
 27 71  1  0  0  0  0
 27 72  1  0  0  0  0
 27 73  1  0  0  0  0
 28 74  1  0  0  0  0
 28 75  1  0  0  0  0
 29 76  1  0  0  0  0
 29 77  1  0  0  0  0
 30 78  1  0  0  0  0
 30 79  1  0  0  0  0
 31 80  1  0  0  0  0
 31 81  1  0  0  0  0
 32 82  1  0  0  0  0
 32 83  1  0  0  0  0
 33 84  1  0  0  0  0
 34 85  1  0  0  0  0
 36 86  1  0  0  0  0
 38 87  1  0  0  0  0
 38 88  1  0  0  0  0
 43 89  1  0  0  0  0
M  CHG  1  38   1
M  END
> <OMEGA_C>
i5u3QKgFIkGuWrLBbym0QJI+K0GlGqjB32bOQDnEDkHGwLPBj7XHQK1JIUHzQp/B9tThQFS9BEEh
6KrBB0HfQBjjC7xsnIbBErMIQX8nzj9cG37Bgj8FQYFKGr+oI27BPRvbQD1/nD9XP6vBQTqjQBCV
tL5g76XBkQPnQKO5lr/Q/6zBUQPyQHnAoz/kvIbBkPTrQLdOdb/3v33Bo3YOQeeiLj8hLW7BG9mx
QO/weD8DF6fBBMj1QGipFj5UG67BiqO9QNZmtr9c+KjBntHeQPsSDkEEpKDBgGfkQLOxEUAgu47B
DTrXQMo6EsBtr3zBZQ+rQBX9/ECYKYrBoom/QFbjvkCUBJbBfqaLQNZv30DSU4TBGJeeQLQjo0Cp
7I/B8zAfQVimhT9orF3BXl8ZQaB+gMD/jofBlWp1QC/yQ8B5XI/BmfiUQC6KB0Bz7qPBKRUKQbIe
g8C/K5HBXkGWQNjQisCtyY/BgF/xQKsvQMCPqpDB1yS4QHxOi8Ac04bBoLKJQIFngUACNZfBN5uq
QGhSQkAan5vB+7fNQEf140Aqg4/Bcgq7QLJHDUDZyZLBopvUQML2ScDMOYfBCOp3QFNuvkDxtIvB
U0T9QOziSUAcnZHBdmrHQDXJJsDJeWvBIhsBQa1/EUH8XI3BrnwLQdux40CjEZnBFnFoQHhylkBj
1J/BMr0OQbouxj4t9bHBnh+vQIhRLMCJD6jBRFr2QL3XAEFZHJXBP8WoQPm2KUHIJLnB8YaiQCLz
OUHyB6fBA/nQQDSyB0FFnLvBXQXFQKRcKEFLaJfB8wrzQHfQ60D++KvBaiXHQBs0iL7zcozBYk8Q
Qa0aJUC1kn7BS+YJQar3qL+iFmLBFyrmQNJCD0D3OqzByb2DQAtPC78cuKLBK2n7QLk0AMApPa/B
5oqZQIS5B0H2PZDBa4q5QACGCUGJVoTBQovbQL8Vq0Ci/pfBbMiwQMK6ykBUcJ3BmwOcQPYN0EBF
GnvBmOpgQKtZ8kBqWYHBKOmuQAXLkkDGSInBkFoXQdZ2vj8Wm0/B0uonQVdkDT6h1FjBhnkqQTF/
4j9VlWTB2oElQTPdmcBDMYjBm00hQbYkQsAof4fBHD8QQfuohMA/G4DBPOlFQF90RcBc2pXB1kVU
QDiUQMDfm4fB71yPQPNzC8CXUJDB+T6NQDFULUDEGavBDqduQOX/2j+ieqDBbVsTQfY0fsAMlZjB
70wCQRuxosAiMZHBSlSBQOHhpsBU347BTo6mQL9RjMAMlJfB8o0AQelQAcAKN5DByOzdQAyhQ8AO
/ZfB7LenQA7xi8AQFn7BwuHLQHA/qMCAr4fBu3ZkQEkJX0B6aJLBGPvEQGtdZUAqd5/B8P6mQMMU
xj9qeI/BWvlNQEjsq0Du0YfBkq1aQObJzEAN2pHBzI1OQDizgUA/WKTBQUW3QM+yIUGHZbLBie6z
QBwqK0H9MqjBDhvOQKRtDkEfs7PBb5fHQM5sIUHrT5/BpqrhQAigBEGQz6rBU1zfQEiTtLv2hIbB
4+8IQTRnzj89PH7BF2gFQRa0F79w+23BqcLbQNgUnT/d/arBULajQHektL4C46XBh7nnQP3hlb8V
3azBIU3yQI+zoz+ovobBYRjsQKYyc7+tfH3B760OQS3fMD+MMm7BFFyyQFAleT8u76bBOIf2QL4Z
Hj5E3K3B9Dq+QPQEtr/17ajBPrTeQFovDkGsmKDBtarkQGZlEUDlw47BtJLXQLbYEcDJcHzBucOq
QMJL/UDHH4rBBLK/QO8Vv0DA75XB3RqLQCK530DWY4TBD1WeQPB4o0AZ7o/BnWofQQPHhz/twF3B
MjV3QN9xQsBG/I7Bw3cZQVdxg8CZ94fBiEGVQDRhB0Ag1KPBZHeXQNXBicDfx4/BXioKQZ7sgsAc
mZHBOoe5QAFKi8BW3IbBr53yQFM5PsC7h5DB5KGJQPGpgUA+O5fBR6WqQCWnQkAPipvB55XNQDVc
5ECDb4/BJwG7QJsZDkC4pZLBCRnWQF4TSsBSEYfBbjx3QEz0vkDB2YvBmrv9QF/DSECcyJHB3O/G
QE7+JcDxZGvBCscAQQfxEUG0SI3BbIwLQTeC5EDT4ZjBeSlpQMidlkCd7p/BhCMPQQyLyz7TqbHB
s7WvQBQuLMBVHqjB/yb2QKUnAUFWAZXBiFGoQG43KUEXOLnB8EqiQMLjOUGFM6fBApvQQCItB0Fe
hLvBM/3EQAuvKEGcf5fB6fDyQPyU60DNzavBGhfHQPWTh75bT4zBn6MQQQkGJUDj3n7BthQKQbk3
p7/V4mHBDtrmQMCbD0Dx46vBYB+EQLkiDL9Cv6LBjC/8QB1O/7+FHa/BNXqZQETzB0GtN5DBZRS5
QA2cCUEXPoTBb8rbQOkzq0Cdx5fBTmWxQNTDykDIbZ3BvTObQAkn0ECkM3vBw7ZfQKSi8kCCcYHB
xUOuQKUvk0DaOInBd5cXQZqwwT/Av0/B5x8oQT2FID4hyFjBrLYqQXgA5D9NxWTBtolHQPqRQsAG
dpXBc0BWQFJ0QcDQNYfBQQWQQOhkCcDyto/BhT8lQTtHncBK+4jBgdQhQVMVScCOcIfBrUUQQcPe
iMBploDB832NQK/ZLEByBavBzE1vQElB2j8kYaDBbMKCQIQWpsAXF4/Bc6enQM8OisA5mJfBTn4T
QZtLe8Bn8ZjBeu8BQef5ocBDF5LBcUGpQNKijMAmIX7BVyTNQNE0qMDi7IfBD6UBQRaNAMDYu4/B
jsveQA+RPcBQzZfB499jQFHLX0CveZLBOxLFQEiOZUCcYZ/BRLmmQPxmyj8iKY/BGHxMQNuSrEDE
EIjBiBBbQC99zUALDJLBqIVPQAfUgUAcdaTBenexQOqJI0GbqrHBNkyvQBJTLEG5TKfBPwfJQFOp
EEG1frPBdr3EQIVDIkETxJ7BLGzeQByMBkHZ9arBXqbdQKB+JTszqoXBwHAKQfNUxT9P2n7BO0wF
QWboGL8n2GzB3ancQGhkpD+GKqzBtiOpQIORtb5YgaXBFUjsQIjejL+AeK3BO1LzQBmrnj84nIbB
EznpQH1daL8jEnvB9VAQQRGLHz+IyW7Bvf60QAzOfD9jTafBE074QKfmdT56N6/BB7LEQJrGsr+J
n6jBfnbcQKJfD0E6kaDBIyPmQAyJDkDtxY7BvTvPQB/PBsCibHfB5pmrQBsB/UB8E4rBG5DAQA1J
v0DKEpbBnTONQFfC3kAmJoTBBC6gQPMBo0BV6o/BEiAhQTZlfz93eV7BqNFlQOe+j8CV34/BxWsW
QSoOccAsfJbBBjCXQDidBkCA8qPBD0qUQPquX8CO5YvBeLIAQTVxVcBDEJLBLIGyQEbuhcDW1IPB
300AQeJyZsCJ/IXBnVaLQNn8gEBmKJfB3GWsQAJ7QUCKkJvBQ1rOQMvI5ED2no/BjIe8QCEYDECL
tpLBTZLWQL7OUsAyUYHB9el6QDjTvUCQi4vBVn7/QAU6RUBv1pHBNDWwQPVeAMCKiWvBsR0BQWcz
EkEsjI3BhywLQUdo5kBCwZnBIANrQNfLlUC7wp/BzCsPQR4uBj8H2LPBNSu5QO2nK8By86bBbdr1
QMnLAUEcYZXB2BChQCFGK0H0NrjBmDCdQCTGOkFl5qXB8q7KQNLxCUHccbvBhQrDQHwCKUGn0pbB
FlXwQEUT8EAaXazBnTnEQO4se77HK4vBJNESQT3iHkCrGIDBEqoJQaDmpb/raWDBucnlQATyE0Bg
i63Bn+iKQGEbFb9cvKHBUbYAQeBh87+S2a/BAUyZQLahB0FFDJDBJxO6QAqaCUG8SITBu9jcQB3r
q0DEEpjBjHGxQPDFykCwe53BlmCeQD9ez0B6AHvBV+1jQNAZ8UDP+oDBAAmxQK/GkkBlV4nBMn4Z
QRXEwT9771DBdiQpQYoSsz0CsljB2PssQRoD1T8O62XBhPM6QKO3f8AenZXBQxKDQJC9qsC50ZPB
XD5AQJilm8BlDYnB4uoWQaMuZcDLJ5/BSyojQe0sTMCQiZLB0dIYQTTZmsB48ZTBJreOQAvZLEC9
BqvBsQl0QBow1T/Qe6DBUQmnQN/kR8C1uZLBOxaEQO+0KcBh9YfB2IP8QFHIEMDxk5PB5NTnQMxN
esDY+5XBe8egQOk7jcDu5njBmsS+QN/Mo8DjVYfBNAAEQVAolcBMjYTBzHwMQbQ8PsDbGoLBliZo
QDIdXkDKTpLBXenGQIemZEBxVJ/BKROoQB9Xxj+QS4/BwbVRQJH+qkDgoYfB99BcQBo5zEBsnpHB
EDhRQCTqgEDOPqTB

> <OMEGA_E>
ACqFPIDsUjzYi68+

> <OMEGA_NBR>
      7613

$$$$
50161998
  -OEChem-04172616093D

 89 92  0     1  0  0  0  0  0999 V2000
    8.7201    9.3245  -16.6924 C   0  0  0  0  0  0  0  0  0  0  0  0
    8.0520    9.3709  -19.0480 C   0  0  0  0  0  0  0  0  0  0  0  0
    8.6516   10.7270  -16.6584 C   0  0  0  0  0  0  0  0  0  0  0  0
    7.9412   10.7651  -18.9996 C   0  0  0  0  0  0  0  0  0  0  0  0
    7.0117    0.0684  -16.8635 C   0  0  0  0  0  0  0  0  0  0  0  0
    8.6440    1.6435  -15.9594 C   0  0  0  0  0  0  0  0  0  0  0  0
    8.3687   -0.5563  -14.9386 C   0  0  0  0  0  0  0  0  0  0  0  0
    6.8630    1.4219  -21.5623 C   0  0  0  0  0  0  0  0  0  0  0  0
    5.2715   -0.2708  -20.8033 C   0  0  0  0  0  0  0  0  0  0  0  0
    7.3945   -0.9470  -21.7907 C   0  0  0  0  0  0  0  0  0  0  0  0
    7.6314    1.3385  -16.8971 C   0  0  0  0  0  0  0  0  0  0  0  0
    7.3831   -0.8786  -15.8905 C   0  0  0  0  0  0  0  0  0  0  0  0
    9.0173    0.6927  -14.9860 C   0  0  0  0  0  0  0  0  0  0  0  0
    5.6227    1.0794  -20.9771 C   0  0  0  0  0  0  0  0  0  0  0  0
    7.7518    0.4063  -21.9610 C   0  0  0  0  0  0  0  0  0  0  0  0
    6.1499   -1.2820  -21.2194 C   0  0  0  0  0  0  0  0  0  0  0  0
    8.4163    8.6510  -17.8888 C   0  0  0  0  0  0  0  0  0  0  0  0
    8.2516   11.4435  -17.8064 C   0  0  0  0  0  0  0  0  0  0  0  0
    7.1810    2.3400  -17.8809 C   0  0  0  0  0  0  0  0  0  0  0  0
    6.6819   -2.1694  -15.8098 C   0  0  0  0  0  0  0  0  0  0  0  0
    5.4116    7.9467  -17.5383 C   0  0  0  0  0  0  0  0  0  0  0  0
    5.7383    6.0431  -19.1226 C   0  0  0  0  0  0  0  0  0  0  0  0
    4.5858    7.0515  -16.6112 C   0  0  0  0  0  0  0  0  0  0  0  0
    4.9945    5.1405  -18.1203 C   0  0  2  0  0  0  0  0  0  0  0  0
   10.0496    1.0424  -13.9381 C   0  0  0  0  0  0  0  0  0  0  0  0
    3.8903   -3.0280  -18.0241 C   0  0  0  0  0  0  0  0  0  0  0  0
    9.5672   -4.0322  -16.7843 C   0  0  0  0  0  0  0  0  0  0  0  0
    4.6656    2.1475  -20.5196 C   0  0  0  0  0  0  0  0  0  0  0  0
    4.7685   -4.2926  -18.0121 C   0  0  0  0  0  0  0  0  0  0  0  0
    8.6792   -4.0885  -18.0381 C   0  0  0  0  0  0  0  0  0  0  0  0
    5.7673   -4.2776  -16.8379 C   0  0  0  0  0  0  0  0  0  0  0  0
    7.6160   -2.9697  -18.0284 C   0  0  0  0  0  0  0  0  0  0  0  0
    4.2876    4.0078  -18.8524 C   0  0  2  0  0  0  0  0  0  0  0  0
    5.3253    3.0437  -19.4644 C   0  0  1  0  0  0  0  0  0  0  0  0
    6.3349    7.1079  -18.3599 N   0  0  2  0  0  0  0  0  0  0  0  0
    5.8925    2.2176  -18.3913 N   0  0  0  0  0  0  0  0  0  0  0  0
    6.6660   -3.0889  -16.8821 N   0  0  0  0  0  0  0  0  0  0  0  0
    3.9852    5.9502  -17.3923 N   0  3  0  0  0  0  0  0  0  0  0  0
    7.9216    3.2558  -18.2252 O   0  0  0  0  0  0  0  0  0  0  0  0
    6.0787   -2.4081  -14.7692 O   0  0  0  0  0  0  0  0  0  0  0  0
    7.9672    6.4554  -16.4817 O   0  0  0  0  0  0  0  0  0  0  0  0
    8.7241    6.2797  -18.9292 O   0  0  0  0  0  0  0  0  0  0  0  0
    3.4410    4.5642  -19.8606 O   0  0  0  0  0  0  0  0  0  0  0  0
    8.9432    0.7295  -22.5135 F   0  0  0  0  0  0  0  0  0  0  0  0
    5.7892   -2.5752  -21.0764 F   0  0  0  0  0  0  0  0  0  0  0  0
    7.9596    6.9498  -17.8662 S   0  0  0  0  0  0  0  0  0  0  0  0
    8.1667   13.1811  -17.7559 Cl  0  0  0  0  0  0  0  0  0  0  0  0
    9.0029    8.7698  -15.8099 H   0  0  0  0  0  0  0  0  0  0  0  0
    7.8591    8.8455  -19.9716 H   0  0  0  0  0  0  0  0  0  0  0  0
    8.9053   11.2577  -15.7526 H   0  0  0  0  0  0  0  0  0  0  0  0
    7.6199   11.3161  -19.8711 H   0  0  0  0  0  0  0  0  0  0  0  0
    6.2493   -0.1767  -17.5881 H   0  0  0  0  0  0  0  0  0  0  0  0
    9.1329    2.6061  -15.9880 H   0  0  0  0  0  0  0  0  0  0  0  0
    8.6281   -1.2689  -14.1696 H   0  0  0  0  0  0  0  0  0  0  0  0
    7.1276    2.4595  -21.7029 H   0  0  0  0  0  0  0  0  0  0  0  0
    4.3261   -0.5292  -20.3496 H   0  0  0  0  0  0  0  0  0  0  0  0
    8.0747   -1.7275  -22.0981 H   0  0  0  0  0  0  0  0  0  0  0  0
    4.7365    8.5054  -18.2033 H   0  0  0  0  0  0  0  0  0  0  0  0
    5.9998    8.6537  -16.9349 H   0  0  0  0  0  0  0  0  0  0  0  0
    6.5176    5.4680  -19.6440 H   0  0  0  0  0  0  0  0  0  0  0  0
    5.0317    6.4543  -19.8586 H   0  0  0  0  0  0  0  0  0  0  0  0
    5.2374    6.6334  -15.8299 H   0  0  0  0  0  0  0  0  0  0  0  0
    3.7875    7.6463  -16.1433 H   0  0  0  0  0  0  0  0  0  0  0  0
    5.7193    4.7184  -17.4086 H   0  0  0  0  0  0  0  0  0  0  0  0
    9.5523    1.5047  -13.0727 H   0  0  0  0  0  0  0  0  0  0  0  0
   10.5698    0.1280  -13.6166 H   0  0  0  0  0  0  0  0  0  0  0  0
   10.7782    1.7487  -14.3627 H   0  0  0  0  0  0  0  0  0  0  0  0
    3.1922   -3.0738  -18.8730 H   0  0  0  0  0  0  0  0  0  0  0  0
    3.3213   -2.9680  -17.0846 H   0  0  0  0  0  0  0  0  0  0  0  0
    4.5298   -2.1385  -18.1230 H   0  0  0  0  0  0  0  0  0  0  0  0
   10.3112   -4.8414  -16.8246 H   0  0  0  0  0  0  0  0  0  0  0  0
   10.0832   -3.0616  -16.7439 H   0  0  0  0  0  0  0  0  0  0  0  0
    8.9425   -4.1529  -15.8870 H   0  0  0  0  0  0  0  0  0  0  0  0
    4.3695    2.7621  -21.3825 H   0  0  0  0  0  0  0  0  0  0  0  0
    3.7739    1.6724  -20.0846 H   0  0  0  0  0  0  0  0  0  0  0  0
    4.1206   -5.1765  -17.9186 H   0  0  0  0  0  0  0  0  0  0  0  0
    5.3290   -4.3471  -18.9570 H   0  0  0  0  0  0  0  0  0  0  0  0
    9.3123   -3.9724  -18.9301 H   0  0  0  0  0  0  0  0  0  0  0  0
    8.1716   -5.0638  -18.0732 H   0  0  0  0  0  0  0  0  0  0  0  0
    5.2040   -4.2616  -15.8932 H   0  0  0  0  0  0  0  0  0  0  0  0
    6.3817   -5.1889  -16.8830 H   0  0  0  0  0  0  0  0  0  0  0  0
    8.1277   -1.9983  -17.9621 H   0  0  0  0  0  0  0  0  0  0  0  0
    7.0438   -3.0195  -18.9665 H   0  0  0  0  0  0  0  0  0  0  0  0
    3.6818    3.4464  -18.1258 H   0  0  0  0  0  0  0  0  0  0  0  0
    6.1210    3.6339  -19.9425 H   0  0  0  0  0  0  0  0  0  0  0  0
    5.3060    1.5107  -17.9958 H   0  0  0  0  0  0  0  0  0  0  0  0
    3.4861    5.3506  -16.7667 H   0  0  0  0  0  0  0  0  0  0  0  0
    3.3494    6.3410  -18.0579 H   0  0  0  0  0  0  0  0  0  0  0  0
    2.9956    3.8638  -20.3228 H   0  0  0  0  0  0  0  0  0  0  0  0
  1  3  2  0  0  0  0
  1 17  1  0  0  0  0
  2  4  1  0  0  0  0
  2 17  2  0  0  0  0
  3 18  1  0  0  0  0
  4 18  2  0  0  0  0
  5 11  1  0  0  0  0
  5 12  2  0  0  0  0
  6 11  2  0  0  0  0
  6 13  1  0  0  0  0
  7 12  1  0  0  0  0
  7 13  2  0  0  0  0
  8 14  1  0  0  0  0
  8 15  2  0  0  0  0
  9 14  2  0  0  0  0
  9 16  1  0  0  0  0
 10 15  1  0  0  0  0
 10 16  2  0  0  0  0
 11 19  1  0  0  0  0
 12 20  1  0  0  0  0
 13 25  1  0  0  0  0
 14 28  1  0  0  0  0
 15 44  1  0  0  0  0
 16 45  1  0  0  0  0
 17 46  1  0  0  0  0
 18 47  1  0  0  0  0
 19 36  1  0  0  0  0
 19 39  2  0  0  0  0
 20 37  1  0  0  0  0
 20 40  2  0  0  0  0
 21 23  1  0  0  0  0
 21 35  1  0  0  0  0
 22 24  1  0  0  0  0
 22 35  1  0  0  0  0
 23 38  1  0  0  0  0
 24 33  1  0  0  0  0
 24 38  1  0  0  0  0
 26 29  1  0  0  0  0
 27 30  1  0  0  0  0
 28 34  1  0  0  0  0
 29 31  1  0  0  0  0
 30 32  1  0  0  0  0
 31 37  1  0  0  0  0
 32 37  1  0  0  0  0
 33 34  1  0  0  0  0
 33 43  1  0  0  0  0
 34 36  1  0  0  0  0
 35 46  1  0  0  0  0
 41 46  2  0  0  0  0
 42 46  2  0  0  0  0
  1 48  1  0  0  0  0
  2 49  1  0  0  0  0
  3 50  1  0  0  0  0
  4 51  1  0  0  0  0
  5 52  1  0  0  0  0
  6 53  1  0  0  0  0
  7 54  1  0  0  0  0
  8 55  1  0  0  0  0
  9 56  1  0  0  0  0
 10 57  1  0  0  0  0
 21 58  1  0  0  0  0
 21 59  1  0  0  0  0
 22 60  1  0  0  0  0
 22 61  1  0  0  0  0
 23 62  1  0  0  0  0
 23 63  1  0  0  0  0
 24 64  1  0  0  0  0
 25 65  1  0  0  0  0
 25 66  1  0  0  0  0
 25 67  1  0  0  0  0
 26 68  1  0  0  0  0
 26 69  1  0  0  0  0
 26 70  1  0  0  0  0
 27 71  1  0  0  0  0
 27 72  1  0  0  0  0
 27 73  1  0  0  0  0
 28 74  1  0  0  0  0
 28 75  1  0  0  0  0
 29 76  1  0  0  0  0
 29 77  1  0  0  0  0
 30 78  1  0  0  0  0
 30 79  1  0  0  0  0
 31 80  1  0  0  0  0
 31 81  1  0  0  0  0
 32 82  1  0  0  0  0
 32 83  1  0  0  0  0
 33 84  1  0  0  0  0
 34 85  1  0  0  0  0
 36 86  1  0  0  0  0
 38 87  1  0  0  0  0
 38 88  1  0  0  0  0
 43 89  1  0  0  0  0
M  CHG  1  38   1
M  END
> <OMEGA_C>
poULQSQxFUHziYXBLdUAQUTvFUFJYpjB4GwKQfuhK0FZRIXBQR7+QN89LEEr/5fBsl/gQGwEjD1j
6IbBuE0KQbBd0j+kWX/BEuYFQbZmDr9UBG/BlJ3bQI7/tT+Wf6zBU7CoQFClir4SbabBgJ/sQKtw
cr9bU67BZzT0QJhUqz8rLYfBlELsQIvqYL+WP37B9kYQQSxXMT/Xxm/B/uyzQCgrij8k0afB6w74
QHsL0D44sK/B88vEQBoZpL8+wanBQKkGQXZqCkEwHI/BpgYEQZAYN0Foc47B7MrlQCTDFUD9C4/B
G9LVQD3YCsAQ9XzBbyutQBlL/kCETozBEqC3QLpgwUAN+5jBk76SQAGm4UDN44TBANOfQEl/pEBW
9pDBScsgQQNshT+jAl/B6fl4QDTLQcBiMZDBLxMZQaEHgcAvRobBRkyVQM1wCUASKKTBvJeYQLZc
icDWGJDB3d0KQT/VgsADTpDBe424QD/iiMD2s4bBYLbzQOIPPsAiOpDB4DOJQLM/gECr0ZbBN2mq
QEbMQkAFt5vBp7fKQJdz40D94JLBTI+8QC3tDUBIIZPBO1DVQJWwRcCBDofB+Q1/QCtovkCEI4vB
o339QDdfUEBDzZHBfYTCQMUdGsCpTmzBL/P+QMmSzkB12oPB+ZULQX/zyEASb5fBzzhcQN4NkkCY
4p7BdRcPQdS+Oj+RG7TBBEG5QKnQJMBwnKjBN7X+QCll3kAU7o7B7aoCQbflUkEeDI7B0AsQQUJR
DEEw9XzBfn37QE2HDUHtxZ/BB3wOQX4fNEGVCnzBfNbzQMUONUEX+J7BD/rHQMnwNL5qtIzBMCAS
QeLJJkC8zn/BkAwKQd9por+itmLBfhXkQKZnHUCUn63BTG+KQMl3B78FzKLB3DEBQVgg3b/7yLDB
b5GXQPAVCEFcoJHB+f2/QHx1CkGoeofBjJDQQMX5rkD3Jp3BDgShQE6JzkBl3p7BBZmnQKdE1EA5
R33BLWZyQNSu9ECIJYHBaQS3QD79lkDLRIvBaNYYQeKZwD/gKVHB5R0pQWUQAz7M3VnBo3MsQavU
3z+mzWXBYE1MQD25RMD2+5bBc5BUQH/zPcA9rYjB5/OQQGHdCMDg+5DBiPokQersmsC3mIbBwlQh
QZzwQ8CA84XBdhQPQe3khMDzMH7Bq9KLQKPFMEBbD6vBuodxQOwP1j9FraDBvduDQEmmpcBhWY/B
a4eqQDobi8AEqJfBCv8UQcQ7fsDecJfBv74CQYEKosDXlZDBM4emQEdfiMBlSn7B9jbMQGwLpsB3
EIfBMQsCQbHG/79pso/BJGfhQJ4/QcB7u5fBQqNrQF2SXECPAZHBXt/DQJ6RaEA5ip/BBcupQPlf
wT9Q94/BzBxfQCI4q0BNIobBJVxWQCzpykCjdpDBD7g/QPJHd0AGlaLB

> <OMEGA_E>
JvUXPw==

> <OMEGA_NBR>
      9385

$$$$
50162054
  -OEChem-04172616093D

 93 96  0     1  0  0  0  0  0999 V2000
    6.9968    0.0302  -16.8863 C   0  0  0  0  0  0  0  0  0  0  0  0
    8.5563    1.6688  -15.9630 C   0  0  0  0  0  0  0  0  0  0  0  0
    8.3513   -0.5326  -14.9375 C   0  0  0  0  0  0  0  0  0  0  0  0
    6.7970    1.2861  -21.4418 C   0  0  0  0  0  0  0  0  0  0  0  0
    5.0765   -0.3102  -20.7610 C   0  0  0  0  0  0  0  0  0  0  0  0
    7.1981   -1.1095  -21.6583 C   0  0  0  0  0  0  0  0  0  0  0  0
    7.3484    7.8092  -21.3759 C   0  0  0  0  0  0  0  0  0  0  0  0
    7.5757    1.3204  -16.9167 C   0  0  0  0  0  0  0  0  0  0  0  0
    7.4009   -0.9062  -15.9099 C   0  0  0  0  0  0  0  0  0  0  0  0
    8.9199    0.7555  -14.9555 C   0  0  0  0  0  0  0  0  0  0  0  0
    5.5143    1.0198  -20.9128 C   0  0  0  0  0  0  0  0  0  0  0  0
    7.6421    0.2206  -21.8020 C   0  0  0  0  0  0  0  0  0  0  0  0
    5.9123   -1.3722  -21.1442 C   0  0  0  0  0  0  0  0  0  0  0  0
    7.1923    8.4875  -20.1889 C   0  0  0  0  0  0  0  0  0  0  0  0
    6.1052    9.5960  -21.8711 C   0  0  0  0  0  0  0  0  0  0  0  0
    7.1341    2.3061  -17.9162 C   0  0  0  0  0  0  0  0  0  0  0  0
    6.7617   -2.2355  -15.8275 C   0  0  0  0  0  0  0  0  0  0  0  0
    5.3228    7.9089  -17.2957 C   0  0  0  0  0  0  0  0  0  0  0  0
    5.9468    5.9401  -18.7164 C   0  0  0  0  0  0  0  0  0  0  0  0
    4.3208    7.0205  -16.5502 C   0  0  0  0  0  0  0  0  0  0  0  0
    4.8957    5.0963  -17.9661 C   0  0  2  0  0  0  0  0  0  0  0  0
    9.9615    1.1384  -13.9285 C   0  0  0  0  0  0  0  0  0  0  0  0
    5.2637   10.6090  -22.6052 C   0  0  0  0  0  0  0  0  0  0  0  0
    3.8759   -2.9619  -17.8784 C   0  0  0  0  0  0  0  0  0  0  0  0
    9.6467   -3.9056  -16.9987 C   0  0  0  0  0  0  0  0  0  0  0  0
    6.0105   10.6510  -19.5948 C   0  0  0  0  0  0  0  0  0  0  0  0
    4.6015    2.1517  -20.5059 C   0  0  0  0  0  0  0  0  0  0  0  0
    4.6964   -4.2634  -17.9568 C   0  0  0  0  0  0  0  0  0  0  0  0
    8.6750   -4.0345  -18.1825 C   0  0  0  0  0  0  0  0  0  0  0  0
    5.7914   -4.3128  -16.8719 C   0  0  0  0  0  0  0  0  0  0  0  0
    7.5651   -2.9647  -18.1217 C   0  0  0  0  0  0  0  0  0  0  0  0
    4.2441    4.0563  -18.8925 C   0  0  2  0  0  0  0  0  0  0  0  0
    5.2785    3.0688  -19.4698 C   0  0  1  0  0  0  0  0  0  0  0  0
    6.4086    9.5656  -20.5294 N   0  0  0  0  0  0  0  0  0  0  0  0
    6.6860    8.5330  -22.3771 N   0  3  0  0  0  0  0  0  0  0  0  0
    6.4059    7.0804  -17.8987 N   0  0  1  0  0  0  0  0  0  0  0  0
    5.8251    2.2424  -18.3809 N   0  0  0  0  0  0  0  0  0  0  0  0
    6.6866   -3.1206  -16.9272 N   0  0  0  0  0  0  0  0  0  0  0  0
    3.8214    5.9710  -17.4513 N   0  3  0  0  0  0  0  0  0  0  0  0
    7.9079    3.1759  -18.3021 O   0  0  0  0  0  0  0  0  0  0  0  0
    6.2618   -2.5425  -14.7504 O   0  0  0  0  0  0  0  0  0  0  0  0
    8.0107    9.1047  -17.7306 O   0  0  0  0  0  0  0  0  0  0  0  0
    8.8167    6.9378  -18.7950 O   0  0  0  0  0  0  0  0  0  0  0  0
    3.5685    4.7296  -19.9579 O   0  0  0  0  0  0  0  0  0  0  0  0
    8.8763    0.4750  -22.2921 F   0  0  0  0  0  0  0  0  0  0  0  0
    5.4741   -2.6444  -21.0256 F   0  0  0  0  0  0  0  0  0  0  0  0
    7.7510    7.9235  -18.5644 S   0  0  0  0  0  0  0  0  0  0  0  0
    6.2437   -0.2394  -17.6119 H   0  0  0  0  0  0  0  0  0  0  0  0
    9.0290    2.6389  -16.0065 H   0  0  0  0  0  0  0  0  0  0  0  0
    8.6447   -1.2384  -14.1745 H   0  0  0  0  0  0  0  0  0  0  0  0
    7.1283    2.3061  -21.5694 H   0  0  0  0  0  0  0  0  0  0  0  0
    4.0986   -0.5134  -20.3501 H   0  0  0  0  0  0  0  0  0  0  0  0
    7.8434   -1.9277  -21.9422 H   0  0  0  0  0  0  0  0  0  0  0  0
    7.8864    6.8827  -21.5122 H   0  0  0  0  0  0  0  0  0  0  0  0
    4.7986    8.4558  -18.0932 H   0  0  0  0  0  0  0  0  0  0  0  0
    5.7662    8.6263  -16.5895 H   0  0  0  0  0  0  0  0  0  0  0  0
    6.8101    5.3031  -18.9590 H   0  0  0  0  0  0  0  0  0  0  0  0
    5.5008    6.3230  -19.6462 H   0  0  0  0  0  0  0  0  0  0  0  0
    4.8175    6.5546  -15.6864 H   0  0  0  0  0  0  0  0  0  0  0  0
    3.4773    7.6343  -16.2011 H   0  0  0  0  0  0  0  0  0  0  0  0
    5.3856    4.5754  -17.1303 H   0  0  0  0  0  0  0  0  0  0  0  0
    9.4678    1.5912  -13.0560 H   0  0  0  0  0  0  0  0  0  0  0  0
   10.5124    0.2402  -13.6127 H   0  0  0  0  0  0  0  0  0  0  0  0
   10.6625    1.8622  -14.3697 H   0  0  0  0  0  0  0  0  0  0  0  0
    5.9062   11.4222  -22.9738 H   0  0  0  0  0  0  0  0  0  0  0  0
    4.7636   10.1228  -23.4558 H   0  0  0  0  0  0  0  0  0  0  0  0
    4.5068   11.0211  -21.9217 H   0  0  0  0  0  0  0  0  0  0  0  0
    3.1077   -2.9642  -18.6657 H   0  0  0  0  0  0  0  0  0  0  0  0
    3.3912   -2.8929  -16.8934 H   0  0  0  0  0  0  0  0  0  0  0  0
    4.5432   -2.0988  -18.0199 H   0  0  0  0  0  0  0  0  0  0  0  0
   10.4225   -4.6819  -17.0743 H   0  0  0  0  0  0  0  0  0  0  0  0
   10.1190   -2.9123  -17.0186 H   0  0  0  0  0  0  0  0  0  0  0  0
    9.0943   -4.0301  -16.0557 H   0  0  0  0  0  0  0  0  0  0  0  0
    5.3859   11.3834  -20.1272 H   0  0  0  0  0  0  0  0  0  0  0  0
    5.4400   10.2227  -18.7574 H   0  0  0  0  0  0  0  0  0  0  0  0
    6.9111   11.1500  -19.2076 H   0  0  0  0  0  0  0  0  0  0  0  0
    4.3458    2.7442  -21.3967 H   0  0  0  0  0  0  0  0  0  0  0  0
    3.6834    1.7325  -20.0684 H   0  0  0  0  0  0  0  0  0  0  0  0
    4.0201   -5.1200  -17.8201 H   0  0  0  0  0  0  0  0  0  0  0  0
    5.1721   -4.3260  -18.9466 H   0  0  0  0  0  0  0  0  0  0  0  0
    9.2365   -3.9141  -19.1207 H   0  0  0  0  0  0  0  0  0  0  0  0
    8.2118   -5.0319  -18.1578 H   0  0  0  0  0  0  0  0  0  0  0  0
    5.3105   -4.3503  -15.8833 H   0  0  0  0  0  0  0  0  0  0  0  0
    6.3971   -5.2190  -17.0196 H   0  0  0  0  0  0  0  0  0  0  0  0
    8.0349   -1.9707  -18.0868 H   0  0  0  0  0  0  0  0  0  0  0  0
    6.9465   -3.0463  -19.0277 H   0  0  0  0  0  0  0  0  0  0  0  0
    3.5164    3.4807  -18.3016 H   0  0  0  0  0  0  0  0  0  0  0  0
    6.0855    3.6343  -19.9586 H   0  0  0  0  0  0  0  0  0  0  0  0
    6.6596    8.2753  -23.3430 H   0  0  0  0  0  0  0  0  0  0  0  0
    5.2096    1.5870  -17.9431 H   0  0  0  0  0  0  0  0  0  0  0  0
    3.1634    5.4078  -16.9515 H   0  0  0  0  0  0  0  0  0  0  0  0
    3.3654    6.4069  -18.2272 H   0  0  0  0  0  0  0  0  0  0  0  0
    3.1648    4.0894  -20.5321 H   0  0  0  0  0  0  0  0  0  0  0  0
  1  8  1  0  0  0  0
  1  9  2  0  0  0  0
  2  8  2  0  0  0  0
  2 10  1  0  0  0  0
  3  9  1  0  0  0  0
  3 10  2  0  0  0  0
  4 11  1  0  0  0  0
  4 12  2  0  0  0  0
  5 11  2  0  0  0  0
  5 13  1  0  0  0  0
  6 12  1  0  0  0  0
  6 13  2  0  0  0  0
  7 14  2  0  0  0  0
  7 35  1  0  0  0  0
  8 16  1  0  0  0  0
  9 17  1  0  0  0  0
 10 22  1  0  0  0  0
 11 27  1  0  0  0  0
 12 45  1  0  0  0  0
 13 46  1  0  0  0  0
 14 34  1  0  0  0  0
 14 47  1  0  0  0  0
 15 23  1  0  0  0  0
 15 34  1  0  0  0  0
 15 35  2  0  0  0  0
 16 37  1  0  0  0  0
 16 40  2  0  0  0  0
 17 38  1  0  0  0  0
 17 41  2  0  0  0  0
 18 20  1  0  0  0  0
 18 36  1  0  0  0  0
 19 21  1  0  0  0  0
 19 36  1  0  0  0  0
 20 39  1  0  0  0  0
 21 32  1  0  0  0  0
 21 39  1  0  0  0  0
 24 28  1  0  0  0  0
 25 29  1  0  0  0  0
 26 34  1  0  0  0  0
 27 33  1  0  0  0  0
 28 30  1  0  0  0  0
 29 31  1  0  0  0  0
 30 38  1  0  0  0  0
 31 38  1  0  0  0  0
 32 33  1  0  0  0  0
 32 44  1  0  0  0  0
 33 37  1  0  0  0  0
 36 47  1  0  0  0  0
 42 47  2  0  0  0  0
 43 47  2  0  0  0  0
  1 48  1  0  0  0  0
  2 49  1  0  0  0  0
  3 50  1  0  0  0  0
  4 51  1  0  0  0  0
  5 52  1  0  0  0  0
  6 53  1  0  0  0  0
  7 54  1  0  0  0  0
 18 55  1  0  0  0  0
 18 56  1  0  0  0  0
 19 57  1  0  0  0  0
 19 58  1  0  0  0  0
 20 59  1  0  0  0  0
 20 60  1  0  0  0  0
 21 61  1  0  0  0  0
 22 62  1  0  0  0  0
 22 63  1  0  0  0  0
 22 64  1  0  0  0  0
 23 65  1  0  0  0  0
 23 66  1  0  0  0  0
 23 67  1  0  0  0  0
 24 68  1  0  0  0  0
 24 69  1  0  0  0  0
 24 70  1  0  0  0  0
 25 71  1  0  0  0  0
 25 72  1  0  0  0  0
 25 73  1  0  0  0  0
 26 74  1  0  0  0  0
 26 75  1  0  0  0  0
 26 76  1  0  0  0  0
 27 77  1  0  0  0  0
 27 78  1  0  0  0  0
 28 79  1  0  0  0  0
 28 80  1  0  0  0  0
 29 81  1  0  0  0  0
 29 82  1  0  0  0  0
 30 83  1  0  0  0  0
 30 84  1  0  0  0  0
 31 85  1  0  0  0  0
 31 86  1  0  0  0  0
 32 87  1  0  0  0  0
 33 88  1  0  0  0  0
 35 89  1  0  0  0  0
 37 90  1  0  0  0  0
 39 91  1  0  0  0  0
 39 92  1  0  0  0  0
 44 93  1  0  0  0  0
M  CHG  2  35   1  39   1
M  END
> <OMEGA_C>
I+bfQBZF9zwoF4fBuOYIQZea1T+KaH/B4J4FQW5XCL/o/27B2YDZQDSfpD/EiKvBT3KiQFXQnr5x
FqbB+lbmQPQEjr8hRK3BfSbrQBbl+UDxAavBSWzyQPcBqT9eVYfBVtTsQJT/Z7/4jn7BBbgOQdZo
QT/BSW/BiXWwQJeJgj92TafBLIz0QCrbYT6Jaq7BgzG9QESkr788J6nBQSfmQN3MB0HQgqHBiV3D
QC+JGUEK+K7B9ErkQIiWE0B1VI/BM2DYQL4SD8BIPX3BglSqQJ0V/UCSXYrB80u+QBIVvkApu5XB
BkSKQCmo4EDaZoTBqamcQDwVo0CUuo/BTmIfQVe2kT8n217B/2+oQIO+KUF617TBPg94QBKPPcD1
Bo/BFVkaQbb1ecBZ/YfB6lXAQHpqKkENwpzBoT+TQOq0CUAoDKTBGEmWQGNtiMBwp4/BncwKQXIa
gcC6dZHB41K5QFgCisCh+YbBjBXyQDO+PcBT+ZDBos+HQOXMgUDcI5fBRumoQP5mREAvwpvB8RLN
QMUMGUFJPKTBx/PVQA+HCEFlBLPBhv3MQH+S4kB0MI/BaWe6QL6DD0ACDJPBRPjVQLK4R8DpaofB
R5F0QB4Sv0BFnIvBOg39QCdBS0C8apLBhWDIQPu3IsCNAWzBzCsAQdysEUE+2I3BGxENQRUC3kA/
XJbB+GFkQJhYl0C4qZ/BbwUOQbMz8z4oVrLBtCuvQAU+KcBmNKjBUgj4QPeM/UDLg5TBj8zHQLcj
db495YzBzXYQQVnjKEBUDYDBylAKQUiDnr+5ymLBrRrkQPiWE0AwjqzBXieDQKlwA78CzaLBdP36
QOm99r+Pia/Byl38QEE/3ED+GKzB7I2ZQNhKB0H1vpDBYIS4QFUFCkE1t4TBeuzZQNOyqUAXrJfB
8gawQF9WykBYK53BDimaQK6/0UBf+3rB4oxeQDRM9EDqm4HBGFesQJBpkkDWConBJXwXQaOsyz99
5VDBwjIoQVzsdT6tzVnBk5kqQQZe7j8n6mXB7/+8QELBNkFYyrfBqG+YQNr2IUGDpbvBXzeQQJJW
MEGSX6/BHORGQMm0PcBDU5XBzwhZQIYlOcCnJYfBi2GRQIVTBsDBKJDBc8ImQcbRlcAemIjBW+ch
QdxjOsAUJojBGYIRQdz2gMAUcoDBgVmsQGgiNkGEBKHBZBSuQE+QI0EzD5bB6yfdQEVmMkEtqZnB
1BCLQHShL0B3LKvBP71rQATD3T8hjKDBqaSAQF7Xo8CQj47BzIGlQF1uisCqkpfBpsgTQcCAesAi
95jBZGMDQU4FocAhQ5HBW++pQMw1i8D1IX7BKrXMQCkCp8AsKIjBzI4AQWw//L/OsZDBI0reQGX3
QsCoOJjB4QxhQBvDXkC1aZLBK7zCQJqYaEBGq5/BDhvVQHJnBEF5vrrBXrWmQN4jyz9vi4/BY3RK
QGcMrUCgnIfBHGNXQEEFzUBk0ZHBo4tKQGLcgkCxQaTBKGTfQMARzz3H/YXBaocJQeEF3D8cQn7B
OlsFQaQL5L5uvGzBC6DcQPKekT+k8arBPTKlQMTl2b6SIqXBninpQO34ob/y+qvB6njHQFD8JEHB
XZ3BehzzQFyKrz/lnobBiKfrQCr/UL8p93vBxBAPQVHvUj/NvW3BCnezQMC+ZT9ks6bBMY33QGBp
Zz0Zfq3BS++/QOOWwL9Z16fB+vDcQNYaEkFIHZ/BQCi/QJj9HUE+wq7BXbflQKItFUB27o7BWQrX
QJAfCcDAhnrBd+qoQOxJ/UDIwYrBk7++QCgOwEDDupbBaiaJQBVv30DjMIXBYwWeQDa1o0CUvJDB
Nx8gQVKsmT/ZrV3Bi1+xQOBJH0ESTbrBGXQXQRmDlsD/morB9Wt6QHBJQsCvL43BcAPpQNIH90Af
ma/BCUqWQGpUA0CY86PBqwgTQaiATMDD14rBHruaQN9OiMAPX47BKOf3QEhmOcDCmI7BCce9QDBm
icDXsIXBfiKKQK85gUBM9ZfBXpirQMamQUBu+5vBYerWQFE/DkGC1qnB0GW2QOrNK0FeJ6fB5UDM
QOmm5EC474/Bvym8QJQxEEAs25LB+nfYQO4JRMBVzoXBwD11QF9yvkAlt4zBPbz+QKThS0AkKZLB
8fPFQGhrHMBPiWnBzbcBQR0AEEGKUozBeSQKQR6N5kBjI5rBBbBqQJE/lUDh0qDBl40PQd6Lkz6J
dbHBaeSxQGpVMcDBi6bByGL1QHaiAUGf7pTBXNDGQHFALL6uq4vBpYYRQWIYK0DRdX/BntQJQcuP
kb9bPmDBYG3nQGunCUBWO6zBgMOFQJotHL9b3KHBLr/9QC8eBsCv/q3BHVPEQA0gLUEYyZXBuuiX
QHTsB0F76JDB76u2QHueCUFtzITBw/vaQCS1rECEyJjB7/qvQHlezEC/GZ7BzdiYQBwS0EDooHzB
g+xaQOEQ8kCdZILB3kKuQEj/k0A0/YnB66IYQaLM2D+U10/BIIUoQdRjlj40UljBIKArQf6u8T9m
MGXBPUGSQJ1LF0HxRbvBZXquQJgsMEHFrLzBwFbJQKBYF0GzYL/BqPYnQSIznMCY6IfB9zsMQaYc
psAfD4XBCVQVQT3ao8DqrZLBT5hJQEdjQ8A2hpPBB+5aQOggRMC2UYXBSkiQQKxdB8C/3Y3BeILf
QARa+ECcELjBeBAGQdam90AFAq/B/M3cQKtZ2UC9+6vBAGOOQARNJkA+VKvBnYlxQIUJ1D/cWaDB
A0UVQQ9IMsC7wILBFV0eQTzDLcCHX5DBXE2HQKqMpcDRu43Box6qQAwrh8DbR5bBaV72QPcx7r/F
h5HBvZ7vQP+TZcC8IJXBu3KuQCFijMDMm3vB44XSQAlFpcBOGofBhaRkQMg1X0B6NJPBMMTFQI76
Y0ByAqDBoNKlQDlUOUHrM6jBywKoQH7yzz8UNI/B5/NKQIOXq0DU/ojB2PVYQCbHzEAE75LBYBJS
QLbvf0ByS6XBVCHgQCB67TzzoobB+doJQZFZ0z9ef3/Bd2EGQZqQCL/SiG7BEBHZQBGCjT+Hb6vB
FhGhQNy3274Ne6XBs9XjQLfopr8mwqzBvALJQOB2JEEd/JzBYWHzQOSLpz/FKIfBvUDtQO6NZr+S
kX3BwOAPQR7vPT/9XW/BTiiwQPjCYj8V/KbBFAfzQAAgLzwdN67B1766QIHOwr9ycqjBaVTeQIKb
EUHF4p7BSJLAQDYMHkEQbK7BJF3lQAI0EkB5TI/BaxnYQIbeDcAioXvBTS+qQCNb/EAYkorBQfm+
QHBPv0AptpbBeGCKQMSt3kDG+ITBoFyeQIIOo0ATqpDB6D0hQUYSjj9gk1/BrrSxQPiWH0Hg3rnB
qtJ1QJLFQsDAc47BwBEZQejogMA9PYfBqiLpQBFV9kDeeK/BqQWUQK5yA0B+/aPBkK+VQNnHisDz
ao7B6FEJQc7eg8CJqJDBwQK4QCYSisBhj4XBs2TwQBSzQMAaGpDBzcSJQE/0gEDr25fBqo+qQI6A
QEDxE5zBLgnYQHsGDkGGn6nBhCC4QKGsK0EAt6bBixzNQAl240AS2Y/BpJG7QLLbDUCpFZPB4avU
QL4HSMDXbobBoaZ2QFTzvUDzf4zBhkH+QK4OSUDZjJLBd8jIQLi5H8AwH2rBtH0CQcIDD0H2JYzB
CogKQbTQ5EAlFprBvBlpQO9xlUBWmaDBTDoNQfREZD7QU7LBjtSrQPDyMcASMafBmIr2QArbAEHN
zZTByVLHQAFnc77cQozBbqARQTJFJ0DDRIDBPzELQckMnr9RTmLBuWrkQNI+B0B+tKzBMc2BQOXJ
GL9VDaLB4a/3QLZBCcBV8q7BF9fFQIFVLEFyVZXBhSKZQCmVB0GhqpDBp1a4QNYKCUG2noTBiOza
QKvQq0CE6pjBq+evQHESzEAX/53Bri2aQAsRz0BmSnzBseBdQPF88UBVGILB+s2uQMoPk0BX/YnB
DgAaQU6hyj/WblHB9uEpQRLHTj5krFrBnnosQe/85z/RImfBtWSSQNS3F0FysLrBS9GuQFqGMEG7
J7zBTRHJQJGnF0F7H7/B9alFQKUaRsCA25TBt4JVQAKHO8C7r4bBJAiQQJ2MC8C51Y/BYgMlQb2h
msAP5IfB0DEhQTdjQ8CAa4fBrUQQQZVGhMCIVH/BGZ/fQPsw+ECO7rfBDyEGQQ4I9kAP5a7BTTDc
QLrZ2EC06qvBfMyLQNw2J0ApSavBSzBtQG4C1j9RQKDB9EmAQOQ1psBlE43BvZClQLE4jsBkOZbB
OkMSQXelgMDcMZjBFlYBQXE6o8CgcJDB1vinQLBcicATdXvB0IjLQD5Ap8AtMYbBfEoAQSszAsCn
8I/BnRXcQAjnRMA1RZfBkyhkQMToXkAvCpPB0J7EQPhXYkCmNqDBd9+nQGpTOUFyqafBIpCnQGOx
yj+Ybo/B6XZMQDslq0AAv4jBKP1ZQM+CzEA+qJLBQpBPQNJpgEALEKXB

> <OMEGA_E>
kJ5uPmALhD5wwVA+

> <OMEGA_NBR>
     13958

$$$$
50162021
  -OEChem-04172616093D

 92 95  0     1  0  0  0  0  0999 V2000
    5.7012   10.5202  -20.9107 C   0  0  0  0  0  0  0  0  0  0  0  0
    6.5541    8.7347  -22.3466 C   0  0  0  0  0  0  0  0  0  0  0  0
    6.3468    9.9410  -19.8084 C   0  0  0  0  0  0  0  0  0  0  0  0
    7.1933    8.1496  -21.2417 C   0  0  0  0  0  0  0  0  0  0  0  0
    6.9812    0.0423  -16.8553 C   0  0  0  0  0  0  0  0  0  0  0  0
    8.5491    1.6962  -15.9721 C   0  0  0  0  0  0  0  0  0  0  0  0
    8.3706   -0.4946  -14.9224 C   0  0  0  0  0  0  0  0  0  0  0  0
    6.7741    1.2130  -21.4342 C   0  0  0  0  0  0  0  0  0  0  0  0
    5.0448   -0.3611  -20.7252 C   0  0  0  0  0  0  0  0  0  0  0  0
    7.1552   -1.1884  -21.6240 C   0  0  0  0  0  0  0  0  0  0  0  0
    7.5567    1.3349  -16.9089 C   0  0  0  0  0  0  0  0  0  0  0  0
    7.4069   -0.8842  -15.8753 C   0  0  0  0  0  0  0  0  0  0  0  0
    5.8170    9.9263  -22.1840 C   0  0  0  0  0  0  0  0  0  0  0  0
    8.9319    0.7949  -14.9614 C   0  0  0  0  0  0  0  0  0  0  0  0
    5.4925    0.9642  -20.8945 C   0  0  0  0  0  0  0  0  0  0  0  0
    7.6090    0.1362  -21.7855 C   0  0  0  0  0  0  0  0  0  0  0  0
    5.8700   -1.4347  -21.1011 C   0  0  0  0  0  0  0  0  0  0  0  0
    7.0950    8.7578  -19.9727 C   0  0  0  0  0  0  0  0  0  0  0  0
    7.1144    2.3076  -17.9236 C   0  0  0  0  0  0  0  0  0  0  0  0
    6.7973   -2.2286  -15.7753 C   0  0  0  0  0  0  0  0  0  0  0  0
    5.3548    7.8846  -17.2486 C   0  0  0  0  0  0  0  0  0  0  0  0
    5.9471    5.9551  -18.7525 C   0  0  0  0  0  0  0  0  0  0  0  0
    4.3012    6.9982  -16.5765 C   0  0  0  0  0  0  0  0  0  0  0  0
    4.8831    5.1080  -18.0254 C   0  0  2  0  0  0  0  0  0  0  0  0
    5.0785   10.5181  -23.3571 C   0  0  0  0  0  0  0  0  0  0  0  0
    9.9921    1.1873  -13.9575 C   0  0  0  0  0  0  0  0  0  0  0  0
    9.6091   -3.8996  -16.9514 C   0  0  0  0  0  0  0  0  0  0  0  0
    3.8439   -2.9830  -17.8602 C   0  0  0  0  0  0  0  0  0  0  0  0
    4.5862    2.1103  -20.5082 C   0  0  0  0  0  0  0  0  0  0  0  0
    8.6324   -4.0366  -18.1311 C   0  0  0  0  0  0  0  0  0  0  0  0
    4.6775   -4.2783  -17.8920 C   0  0  0  0  0  0  0  0  0  0  0  0
    7.5268   -2.9595  -18.0857 C   0  0  0  0  0  0  0  0  0  0  0  0
    5.7604   -4.2810  -16.7948 C   0  0  0  0  0  0  0  0  0  0  0  0
    4.2374    4.0632  -18.9515 C   0  0  2  0  0  0  0  0  0  0  0  0
    5.2678    3.0525  -19.4958 C   0  0  1  0  0  0  0  0  0  0  0  0
    6.4257    7.0586  -17.8856 N   0  0  1  0  0  0  0  0  0  0  0  0
    5.8034    2.2486  -18.3831 N   0  0  0  0  0  0  0  0  0  0  0  0
    6.6532   -3.0892  -16.8851 N   0  0  0  0  0  0  0  0  0  0  0  0
    3.8100    5.9910  -17.5281 N   0  3  0  0  0  0  0  0  0  0  0  0
    7.8943    3.1610  -18.3334 O   0  0  0  0  0  0  0  0  0  0  0  0
    6.4170   -2.5882  -14.6659 O   0  0  0  0  0  0  0  0  0  0  0  0
    8.1263    8.9727  -17.5505 O   0  0  0  0  0  0  0  0  0  0  0  0
    8.7645    6.9600  -18.9799 O   0  0  0  0  0  0  0  0  0  0  0  0
    3.5849    4.7276  -20.0357 O   0  0  0  0  0  0  0  0  0  0  0  0
    8.8424    0.3742  -22.2857 F   0  0  0  0  0  0  0  0  0  0  0  0
    5.4225   -2.7024  -20.9677 F   0  0  0  0  0  0  0  0  0  0  0  0
    7.7613    7.9330  -18.5223 S   0  0  0  0  0  0  0  0  0  0  0  0
    5.1165   11.4194  -20.7842 H   0  0  0  0  0  0  0  0  0  0  0  0
    6.6268    8.2727  -23.3202 H   0  0  0  0  0  0  0  0  0  0  0  0
    6.2706   10.4013  -18.8344 H   0  0  0  0  0  0  0  0  0  0  0  0
    7.7582    7.2371  -21.3630 H   0  0  0  0  0  0  0  0  0  0  0  0
    6.2157   -0.2367  -17.5642 H   0  0  0  0  0  0  0  0  0  0  0  0
    9.0163    2.6681  -16.0313 H   0  0  0  0  0  0  0  0  0  0  0  0
    8.6800   -1.1911  -14.1571 H   0  0  0  0  0  0  0  0  0  0  0  0
    7.1127    2.2286  -21.5770 H   0  0  0  0  0  0  0  0  0  0  0  0
    4.0676   -0.5517  -20.3065 H   0  0  0  0  0  0  0  0  0  0  0  0
    7.7928   -2.0149  -21.9011 H   0  0  0  0  0  0  0  0  0  0  0  0
    4.8680    8.4990  -18.0204 H   0  0  0  0  0  0  0  0  0  0  0  0
    5.8093    8.5399  -16.4910 H   0  0  0  0  0  0  0  0  0  0  0  0
    6.7985    5.3120  -19.0203 H   0  0  0  0  0  0  0  0  0  0  0  0
    5.5067    6.3799  -19.6665 H   0  0  0  0  0  0  0  0  0  0  0  0
    4.7508    6.4916  -15.7097 H   0  0  0  0  0  0  0  0  0  0  0  0
    3.4603    7.6227  -16.2407 H   0  0  0  0  0  0  0  0  0  0  0  0
    5.3587    4.5893  -17.1800 H   0  0  0  0  0  0  0  0  0  0  0  0
    5.7270   11.2422  -23.8719 H   0  0  0  0  0  0  0  0  0  0  0  0
    4.7976    9.7162  -24.0557 H   0  0  0  0  0  0  0  0  0  0  0  0
    4.1714   11.0276  -22.9999 H   0  0  0  0  0  0  0  0  0  0  0  0
    9.5143    1.6464  -13.0794 H   0  0  0  0  0  0  0  0  0  0  0  0
   10.5502    0.2924  -13.6451 H   0  0  0  0  0  0  0  0  0  0  0  0
   10.6834    1.9087  -14.4176 H   0  0  0  0  0  0  0  0  0  0  0  0
   10.3792   -4.6822  -17.0195 H   0  0  0  0  0  0  0  0  0  0  0  0
   10.0883   -2.9100  -16.9853 H   0  0  0  0  0  0  0  0  0  0  0  0
    9.0587   -4.0082  -16.0053 H   0  0  0  0  0  0  0  0  0  0  0  0
    3.0835   -3.0161  -18.6543 H   0  0  0  0  0  0  0  0  0  0  0  0
    3.3488   -2.8896  -16.8823 H   0  0  0  0  0  0  0  0  0  0  0  0
    4.5043   -2.1181  -18.0209 H   0  0  0  0  0  0  0  0  0  0  0  0
    4.3285    2.6824  -21.4116 H   0  0  0  0  0  0  0  0  0  0  0  0
    3.6688    1.7042  -20.0572 H   0  0  0  0  0  0  0  0  0  0  0  0
    9.1929   -3.9326  -19.0718 H   0  0  0  0  0  0  0  0  0  0  0  0
    8.1633   -5.0308  -18.0918 H   0  0  0  0  0  0  0  0  0  0  0  0
    4.0086   -5.1376  -17.7360 H   0  0  0  0  0  0  0  0  0  0  0  0
    5.1641   -4.3661  -18.8746 H   0  0  0  0  0  0  0  0  0  0  0  0
    8.0012   -1.9672  -18.0712 H   0  0  0  0  0  0  0  0  0  0  0  0
    6.9039   -3.0550  -18.9872 H   0  0  0  0  0  0  0  0  0  0  0  0
    5.2685   -4.2820  -15.8109 H   0  0  0  0  0  0  0  0  0  0  0  0
    6.3704   -5.1902  -16.9006 H   0  0  0  0  0  0  0  0  0  0  0  0
    3.4931    3.5045  -18.3651 H   0  0  0  0  0  0  0  0  0  0  0  0
    6.0812    3.5974  -19.9971 H   0  0  0  0  0  0  0  0  0  0  0  0
    5.1792    1.6152  -17.9256 H   0  0  0  0  0  0  0  0  0  0  0  0
    3.1192    5.4298  -17.0722 H   0  0  0  0  0  0  0  0  0  0  0  0
    3.3959    6.4617  -18.3072 H   0  0  0  0  0  0  0  0  0  0  0  0
    3.1857    4.0832  -20.6084 H   0  0  0  0  0  0  0  0  0  0  0  0
  1  3  2  0  0  0  0
  1 13  1  0  0  0  0
  2  4  1  0  0  0  0
  2 13  2  0  0  0  0
  3 18  1  0  0  0  0
  4 18  2  0  0  0  0
  5 11  1  0  0  0  0
  5 12  2  0  0  0  0
  6 11  2  0  0  0  0
  6 14  1  0  0  0  0
  7 12  1  0  0  0  0
  7 14  2  0  0  0  0
  8 15  1  0  0  0  0
  8 16  2  0  0  0  0
  9 15  2  0  0  0  0
  9 17  1  0  0  0  0
 10 16  1  0  0  0  0
 10 17  2  0  0  0  0
 11 19  1  0  0  0  0
 12 20  1  0  0  0  0
 13 25  1  0  0  0  0
 14 26  1  0  0  0  0
 15 29  1  0  0  0  0
 16 45  1  0  0  0  0
 17 46  1  0  0  0  0
 18 47  1  0  0  0  0
 19 37  1  0  0  0  0
 19 40  2  0  0  0  0
 20 38  1  0  0  0  0
 20 41  2  0  0  0  0
 21 23  1  0  0  0  0
 21 36  1  0  0  0  0
 22 24  1  0  0  0  0
 22 36  1  0  0  0  0
 23 39  1  0  0  0  0
 24 34  1  0  0  0  0
 24 39  1  0  0  0  0
 27 30  1  0  0  0  0
 28 31  1  0  0  0  0
 29 35  1  0  0  0  0
 30 32  1  0  0  0  0
 31 33  1  0  0  0  0
 32 38  1  0  0  0  0
 33 38  1  0  0  0  0
 34 35  1  0  0  0  0
 34 44  1  0  0  0  0
 35 37  1  0  0  0  0
 36 47  1  0  0  0  0
 42 47  2  0  0  0  0
 43 47  2  0  0  0  0
  1 48  1  0  0  0  0
  2 49  1  0  0  0  0
  3 50  1  0  0  0  0
  4 51  1  0  0  0  0
  5 52  1  0  0  0  0
  6 53  1  0  0  0  0
  7 54  1  0  0  0  0
  8 55  1  0  0  0  0
  9 56  1  0  0  0  0
 10 57  1  0  0  0  0
 21 58  1  0  0  0  0
 21 59  1  0  0  0  0
 22 60  1  0  0  0  0
 22 61  1  0  0  0  0
 23 62  1  0  0  0  0
 23 63  1  0  0  0  0
 24 64  1  0  0  0  0
 25 65  1  0  0  0  0
 25 66  1  0  0  0  0
 25 67  1  0  0  0  0
 26 68  1  0  0  0  0
 26 69  1  0  0  0  0
 26 70  1  0  0  0  0
 27 71  1  0  0  0  0
 27 72  1  0  0  0  0
 27 73  1  0  0  0  0
 28 74  1  0  0  0  0
 28 75  1  0  0  0  0
 28 76  1  0  0  0  0
 29 77  1  0  0  0  0
 29 78  1  0  0  0  0
 30 79  1  0  0  0  0
 30 80  1  0  0  0  0
 31 81  1  0  0  0  0
 31 82  1  0  0  0  0
 32 83  1  0  0  0  0
 32 84  1  0  0  0  0
 33 85  1  0  0  0  0
 33 86  1  0  0  0  0
 34 87  1  0  0  0  0
 35 88  1  0  0  0  0
 37 89  1  0  0  0  0
 39 90  1  0  0  0  0
 39 91  1  0  0  0  0
 44 92  1  0  0  0  0
M  CHG  1  39   1
M  END
> <OMEGA_C>
OXC2QMFSKEERSafBXrvRQDHBC0HuxbLBuhjLQEEOH0G0d57Bhy/mQI9kAkH57qnBVWbfQAhALT2d
14bB9sgIQZ4c2T+2jX/B8u0FQeo4/b4Swm7BNcXYQCxFmz9FeavB2W6hQLTbuL4ozaXBtvfkQJwc
mL8J/qzBVtDxQJ7fqj9rRYfBgwXtQHZZYr8YAX7BBiW6QC7SHkHCeLHB/+gOQeZ+Sz/SYW/BeMKv
QF/Wdj8JKKfB2nzzQBx2Cz7ISK7BqNa7QFCjt78Qz6jBYQrjQPEfDEH9x5/B1ajjQO6uE0CNY4/B
LoPZQEmhDsCXZ3zBKlqrQOhO/EAr/YnB406+QDSQvkAKBZbBpaOJQBLx30CvnITBK0KcQPx0o0AM
NJDB24KiQClKKEFJ27rBh98fQej6lz/oUV/BFL8ZQb+SecCQnIfBFgJ2QIDpPsCm4Y7BXsKSQHAO
B0DTEKTBaR4KQdArgcB1DJHBva2VQD7oiMDEIo/BV9vwQMdoPcBrr5DB4FS4QNb9iMCzW4bBn5iH
QOAFgkCcnJfB1pGoQANcQ0BX95vBFJ/NQNLf4UCrFY/BMrW5QIDoD0CAEJPBC+fUQLS1RcC7FIfB
htZzQEi2v0CgOYzBcZ78QARNSkDgqpLBD1jNQL+kJcB1p2rBYwUCQReQD0GCZ4zBPzsMQRy43kDH
1pfBjm9lQHRIl0A0SaDBiXoNQaeQvz4uSbLBCYWtQCn0LMDevafBqlz4QLra/UC8LZTBnLqjQOS1
NkEPRqbByw7UQCBdBEGyj7rBsqjIQKtrJkHprJbB40L4QBWW50Be56rBTefGQFtacr5+g4zB20IQ
Qa7BKkAjQIDBSeEKQVl0mL+pg2LBDJvjQIahDkCunazBMCqCQOU7Db/Cc6LBQl75QH70AMCMNa/B
xcabQOn7B0HCKZDBceW5QJ6jCEGO7YPB7YzZQDn8qUB/KZjBETewQHgozEAXVZ3BKwaYQCK7z0AP
W3vBP3VdQEDt80Dx7IHBRXqrQHbbkkCncInB1EO3QDbgM0GS+b7B4YWZQKV1G0EWcsDBAXyFQDdx
MEHP/7fBrzoYQTy90j9JRVHB0c0oQRS6lT5tUlrBZO8qQRZP9D+GrmbBChEmQWXUlcDoJ4jBp2kh
QXA9OsD74YfBd/AQQXdDgMDXCoDBaldFQPgHQcAQPJXB51JWQJfvOMADD4fBEiOQQBqPB8DJKpDB
soKKQMSsK0ALS6vBn81qQO0i2j8XdaDBNhYTQeyue8Aek5jBBp0CQTX8oMD7u5DBrUaAQFlnpMBW
443BS0ClQBu3i8Ac/5bBEgUAQZTN+7/ikZDBk+zcQNeFQ8Dj5ZfBfpeoQA8GicBV+XzBq9rLQMMV
psCFNIfBjY5fQFhJYEC+65LBk5nCQEM8ZkAb+p/BVLylQEW+zj+VZ4/BM6BHQDnBrUDkk4jBvVZZ
QJPGzkAvdZLBTeNLQKqpgkD63aTB

> <OMEGA_E>
gNWIPQ==

> <OMEGA_NBR>
     15777

$$$$
50162073
  -OEChem-04172616093D

 88 91  0     1  0  0  0  0  0999 V2000
    6.2080   10.0845  -19.9436 C   0  0  0  0  0  0  0  0  0  0  0  0
    7.0716    8.3492  -21.3916 C   0  0  0  0  0  0  0  0  0  0  0  0
    6.9678   -0.0386  -16.8431 C   0  0  0  0  0  0  0  0  0  0  0  0
    8.5360    1.5737  -15.8897 C   0  0  0  0  0  0  0  0  0  0  0  0
    8.3130   -0.6420  -14.8987 C   0  0  0  0  0  0  0  0  0  0  0  0
    6.8620    1.2233  -21.3962 C   0  0  0  0  0  0  0  0  0  0  0  0
    5.1052   -0.3506  -20.7576 C   0  0  0  0  0  0  0  0  0  0  0  0
    7.2338   -1.1764  -21.6152 C   0  0  0  0  0  0  0  0  0  0  0  0
    5.6297   10.6931  -21.0764 C   0  0  0  0  0  0  0  0  0  0  0  0
    6.4682    9.0104  -22.4820 C   0  0  0  0  0  0  0  0  0  0  0  0
    7.5557    1.2484  -16.8520 C   0  0  0  0  0  0  0  0  0  0  0  0
    7.3606   -0.9924  -15.8785 C   0  0  0  0  0  0  0  0  0  0  0  0
    8.8924    0.6420  -14.8968 C   0  0  0  0  0  0  0  0  0  0  0  0
    5.5660    0.9741  -20.8927 C   0  0  0  0  0  0  0  0  0  0  0  0
    7.6985    0.1476  -21.7455 C   0  0  0  0  0  0  0  0  0  0  0  0
    5.9342   -1.4230  -21.1292 C   0  0  0  0  0  0  0  0  0  0  0  0
    6.9482    8.8981  -20.1006 C   0  0  0  0  0  0  0  0  0  0  0  0
    7.1322    2.2536  -17.8427 C   0  0  0  0  0  0  0  0  0  0  0  0
    6.7096   -2.3178  -15.8224 C   0  0  0  0  0  0  0  0  0  0  0  0
    5.3504    7.8989  -17.2633 C   0  0  0  0  0  0  0  0  0  0  0  0
    5.9991    5.9617  -18.7504 C   0  0  0  0  0  0  0  0  0  0  0  0
    4.3844    6.9654  -16.5267 C   0  0  0  0  0  0  0  0  0  0  0  0
    4.9732    5.0889  -17.9857 C   0  0  2  0  0  0  0  0  0  0  0  0
    9.9399    1.0003  -13.8662 C   0  0  0  0  0  0  0  0  0  0  0  0
    9.6357   -3.9765  -16.9299 C   0  0  0  0  0  0  0  0  0  0  0  0
    3.8051   -3.0296  -17.8865 C   0  0  0  0  0  0  0  0  0  0  0  0
    4.6632    2.1204  -20.5006 C   0  0  0  0  0  0  0  0  0  0  0  0
    8.6775   -4.1171  -18.1235 C   0  0  0  0  0  0  0  0  0  0  0  0
    4.6664   -4.2993  -18.0175 C   0  0  0  0  0  0  0  0  0  0  0  0
    7.5731   -3.0377  -18.0966 C   0  0  0  0  0  0  0  0  0  0  0  0
    5.7433   -4.3734  -16.9158 C   0  0  0  0  0  0  0  0  0  0  0  0
    4.3135    4.0389  -18.8969 C   0  0  2  0  0  0  0  0  0  0  0  0
    5.3366    3.0297  -19.4526 C   0  0  1  0  0  0  0  0  0  0  0  0
    5.7667   10.1584  -22.3143 N   0  0  0  0  0  0  0  0  0  0  0  0
    6.4339    7.1298  -17.9452 N   0  0  1  0  0  0  0  0  0  0  0  0
    5.8419    2.1897  -18.3540 N   0  0  0  0  0  0  0  0  0  0  0  0
    6.6516   -3.1894  -16.9341 N   0  0  0  0  0  0  0  0  0  0  0  0
    3.8917    5.9360  -17.4488 N   0  3  0  0  0  0  0  0  0  0  0  0
    7.9044    3.1439  -18.1823 O   0  0  0  0  0  0  0  0  0  0  0  0
    6.1761   -2.6286  -14.7627 O   0  0  0  0  0  0  0  0  0  0  0  0
    8.0483    9.1209  -17.6877 O   0  0  0  0  0  0  0  0  0  0  0  0
    8.7184    7.1479  -19.1476 O   0  0  0  0  0  0  0  0  0  0  0  0
    3.6449    4.7024  -19.9724 O   0  0  0  0  0  0  0  0  0  0  0  0
    8.9433    0.3867  -22.2158 F   0  0  0  0  0  0  0  0  0  0  0  0
    5.4766   -2.6897  -21.0297 F   0  0  0  0  0  0  0  0  0  0  0  0
    7.6887    8.0744  -18.6545 S   0  0  0  0  0  0  0  0  0  0  0  0
    6.0840   10.5246  -18.9652 H   0  0  0  0  0  0  0  0  0  0  0  0
    7.6219    7.4327  -21.5452 H   0  0  0  0  0  0  0  0  0  0  0  0
    6.2164   -0.2924  -17.5762 H   0  0  0  0  0  0  0  0  0  0  0  0
    9.0144    2.5416  -15.9154 H   0  0  0  0  0  0  0  0  0  0  0  0
    8.5993   -1.3618  -14.1461 H   0  0  0  0  0  0  0  0  0  0  0  0
    7.2104    2.2389  -21.5130 H   0  0  0  0  0  0  0  0  0  0  0  0
    4.1158   -0.5418  -20.3689 H   0  0  0  0  0  0  0  0  0  0  0  0
    7.8738   -2.0024  -21.8879 H   0  0  0  0  0  0  0  0  0  0  0  0
    5.0651   11.6057  -20.9550 H   0  0  0  0  0  0  0  0  0  0  0  0
    6.5673    8.5926  -23.4729 H   0  0  0  0  0  0  0  0  0  0  0  0
    4.7901    8.4728  -18.0161 H   0  0  0  0  0  0  0  0  0  0  0  0
    5.8038    8.5903  -16.5378 H   0  0  0  0  0  0  0  0  0  0  0  0
    6.8793    5.3478  -18.9922 H   0  0  0  0  0  0  0  0  0  0  0  0
    5.5367    6.3224  -19.6810 H   0  0  0  0  0  0  0  0  0  0  0  0
    4.9090    6.4843  -15.6880 H   0  0  0  0  0  0  0  0  0  0  0  0
    3.5347    7.5484  -16.1418 H   0  0  0  0  0  0  0  0  0  0  0  0
    5.4886    4.5742  -17.1614 H   0  0  0  0  0  0  0  0  0  0  0  0
    9.4520    1.4439  -12.9857 H   0  0  0  0  0  0  0  0  0  0  0  0
   10.4837    0.0926  -13.5655 H   0  0  0  0  0  0  0  0  0  0  0  0
   10.6461    1.7248  -14.2979 H   0  0  0  0  0  0  0  0  0  0  0  0
   10.4060   -4.7599  -16.9832 H   0  0  0  0  0  0  0  0  0  0  0  0
   10.1161   -2.9874  -16.9600 H   0  0  0  0  0  0  0  0  0  0  0  0
    9.0706   -4.0813  -15.9920 H   0  0  0  0  0  0  0  0  0  0  0  0
    3.0512   -3.0131  -18.6873 H   0  0  0  0  0  0  0  0  0  0  0  0
    3.3012   -3.0278  -16.9086 H   0  0  0  0  0  0  0  0  0  0  0  0
    4.4476   -2.1407  -17.9695 H   0  0  0  0  0  0  0  0  0  0  0  0
    4.4308    2.7161  -21.3957 H   0  0  0  0  0  0  0  0  0  0  0  0
    3.7320    1.7150  -20.0780 H   0  0  0  0  0  0  0  0  0  0  0  0
    9.2520   -4.0167  -19.0562 H   0  0  0  0  0  0  0  0  0  0  0  0
    8.2066   -5.1105  -18.0881 H   0  0  0  0  0  0  0  0  0  0  0  0
    4.0147   -5.1820  -17.9392 H   0  0  0  0  0  0  0  0  0  0  0  0
    5.1610   -4.2948  -19.0000 H   0  0  0  0  0  0  0  0  0  0  0  0
    8.0493   -2.0476  -18.0418 H   0  0  0  0  0  0  0  0  0  0  0  0
    6.9858   -3.1113  -19.0237 H   0  0  0  0  0  0  0  0  0  0  0  0
    5.2452   -4.4225  -15.9363 H   0  0  0  0  0  0  0  0  0  0  0  0
    6.3436   -5.2826  -17.0678 H   0  0  0  0  0  0  0  0  0  0  0  0
    3.5786    3.4820  -18.2972 H   0  0  0  0  0  0  0  0  0  0  0  0
    6.1658    3.5762  -19.9256 H   0  0  0  0  0  0  0  0  0  0  0  0
    5.2127    1.5272  -17.9476 H   0  0  0  0  0  0  0  0  0  0  0  0
    3.2416    5.3537  -16.9606 H   0  0  0  0  0  0  0  0  0  0  0  0
    3.4283    6.3856  -18.2124 H   0  0  0  0  0  0  0  0  0  0  0  0
    3.2360    4.0575  -20.5376 H   0  0  0  0  0  0  0  0  0  0  0  0
  1  9  2  0  0  0  0
  1 17  1  0  0  0  0
  2 10  1  0  0  0  0
  2 17  2  0  0  0  0
  3 11  1  0  0  0  0
  3 12  2  0  0  0  0
  4 11  2  0  0  0  0
  4 13  1  0  0  0  0
  5 12  1  0  0  0  0
  5 13  2  0  0  0  0
  6 14  1  0  0  0  0
  6 15  2  0  0  0  0
  7 14  2  0  0  0  0
  7 16  1  0  0  0  0
  8 15  1  0  0  0  0
  8 16  2  0  0  0  0
  9 34  1  0  0  0  0
 10 34  2  0  0  0  0
 11 18  1  0  0  0  0
 12 19  1  0  0  0  0
 13 24  1  0  0  0  0
 14 27  1  0  0  0  0
 15 44  1  0  0  0  0
 16 45  1  0  0  0  0
 17 46  1  0  0  0  0
 18 36  1  0  0  0  0
 18 39  2  0  0  0  0
 19 37  1  0  0  0  0
 19 40  2  0  0  0  0
 20 22  1  0  0  0  0
 20 35  1  0  0  0  0
 21 23  1  0  0  0  0
 21 35  1  0  0  0  0
 22 38  1  0  0  0  0
 23 32  1  0  0  0  0
 23 38  1  0  0  0  0
 25 28  1  0  0  0  0
 26 29  1  0  0  0  0
 27 33  1  0  0  0  0
 28 30  1  0  0  0  0
 29 31  1  0  0  0  0
 30 37  1  0  0  0  0
 31 37  1  0  0  0  0
 32 33  1  0  0  0  0
 32 43  1  0  0  0  0
 33 36  1  0  0  0  0
 35 46  1  0  0  0  0
 41 46  2  0  0  0  0
 42 46  2  0  0  0  0
  1 47  1  0  0  0  0
  2 48  1  0  0  0  0
  3 49  1  0  0  0  0
  4 50  1  0  0  0  0
  5 51  1  0  0  0  0
  6 52  1  0  0  0  0
  7 53  1  0  0  0  0
  8 54  1  0  0  0  0
  9 55  1  0  0  0  0
 10 56  1  0  0  0  0
 20 57  1  0  0  0  0
 20 58  1  0  0  0  0
 21 59  1  0  0  0  0
 21 60  1  0  0  0  0
 22 61  1  0  0  0  0
 22 62  1  0  0  0  0
 23 63  1  0  0  0  0
 24 64  1  0  0  0  0
 24 65  1  0  0  0  0
 24 66  1  0  0  0  0
 25 67  1  0  0  0  0
 25 68  1  0  0  0  0
 25 69  1  0  0  0  0
 26 70  1  0  0  0  0
 26 71  1  0  0  0  0
 26 72  1  0  0  0  0
 27 73  1  0  0  0  0
 27 74  1  0  0  0  0
 28 75  1  0  0  0  0
 28 76  1  0  0  0  0
 29 77  1  0  0  0  0
 29 78  1  0  0  0  0
 30 79  1  0  0  0  0
 30 80  1  0  0  0  0
 31 81  1  0  0  0  0
 31 82  1  0  0  0  0
 32 83  1  0  0  0  0
 33 84  1  0  0  0  0
 36 85  1  0  0  0  0
 38 86  1  0  0  0  0
 38 87  1  0  0  0  0
 43 88  1  0  0  0  0
M  CHG  1  38   1
M  END
> <OMEGA_C>
jqfGQD9aIUGRjJ/BwUriQHOWBUH1IavB4/feQINBHr2vvobBTJMIQZVvyT8GPH7B6AEFQdpYJL/s
YG7Bo5XbQKOWnD98K6vBk12jQGiGs76LD6bBI3vnQPeTlr/v66zBtya0QOQWK0F0nKjBT/vOQLIq
EEEf27PBB8jxQCjLnz/O0IbB3InrQEAOfr83Dn7Bd0cOQR9YJD8XWW7BnByyQHBbeT8sJKfBPFr2
QIEnFz659q3BsOS9QMkjtr+YCKnBzFfeQHBeDkHyzaDBFDvkQCY7EEDTvY7B2bTWQCNWFMCeKH3B
fjarQLLD/EBOG4rBU/i/QPPFvkDQAJbB+0yMQLfk3kC1NoTBRCSfQOfXokC84o/BpAkfQWoIgD/x
213BqysaQep+fsBqcIfBmIZzQIrlQcB8F4/BrjiVQNO0B0AyAaTB/NYKQQW/g8D4/JDBCFOVQLqT
icDnI5DByFbyQHVpQsDExZDBdcm3QP7yi8CFU4fBPAiKQOQ+gUDaLJfBRcWqQKzmQUD6npvBzYi4
QMaIIkG3g7LBsuLNQHwn5EDcj4/BvfC6QJwkDEAJ1ZLB6NnUQNgeTMAjeYfBQRF5QGPzvUAWl4vB
OfH8QBU2SUBMdZHB/aLFQHo6KMDaM2zBzMUAQTLvEUF9gI3BjX4LQbm75EBELpnBgkVpQOV5lkCE
x5/B0hcPQXADxj75ubHBG0CvQBUkLMDaPKjBmAn2QOYwAUFSPJXBBrDCQLhkKEGvuJfBlebzQMDY
7UCAXKzBpuzGQLywlb4cnIzBATsQQdepIkCTpX7BzJYJQRlOrr+AVmLBa7vmQJxKD0CnGqzBC7WD
QCexCr9u86LBivb7QMgnAMB7Gq/B6BSiQNSwOUHVo6fBQCfSQB17CUGRyLvBgUiZQL+QB0H0IJDB
4ri5QOpxCUF8TYTB2yLcQIIhq0AW8JfBmSyxQP1QykDEcp3BLhadQF1/z0A/AnvB+jhiQH2M8UBO
IoHBiKKvQPJfkkCLSonBejsXQZbRuD+YxU/BRb0nQYW1vT0oDFnBP1YqQffE3D83xGTB/X4mQSpR
mMCK3YfBZNshQZgxP8AZrofBLCERQbqZgsAJ33/BZEZDQGXWQMCXf5XBrkdTQBDIQcDmRIfB1FKO
QKEACcCQwY/BRcmNQAbULUBeKqvBv9huQPiF2z/Qn6DBQggUQYiIgMAJc5jBCk4DQXeJo8B0tJDB
SXiAQLjSpcBig4/BRSelQABvicANAJjB/skAQVcMA8CiVZDBdYvfQGsfR8CaMJjBcNinQO+EjcAD
+37Bd/7KQAkLqcDpiojBHgdlQNfYXkCdYJLBRU7FQJzgZECqZ5/BKs6mQMB7wz/DlI/BwHVPQLlR
q0A6r4fBBWlbQLdWzED3spHBXRtPQMzWgUAOTaTBsLPFQNeNIUFhl5/BYzTiQIL0BUGZJKvBsOne
QLOFFb0aqYbBpp8IQWwXyT8rBn7Bu8sEQYHxI78QF27BbO7bQC3cmz+rH6vBF7+jQDpStL5p6aXB
9YDnQI9vl7+r8qzBNeOyQLcYK0GMqqjByKLOQPVbEEGl4bPBufzxQJ7Cnz/svobBLUDrQEaVfb9u
0X3BKScOQVjkIz85D27B7pCyQNu4eD8JBafBO3v2QOg9Dz4B/63BZQy+QEOgtr9A9ajBFO/dQMy7
DkHN0qDBtNvkQFQnEEDeu47BHZHWQJdsFMDg3XzBzNGqQFY4/UCuIorBGhrAQDJEv0C/ApbBFTSM
QJ0g30DFOITBgWGfQEw2o0CJ5o/BldkeQeORfj9Tfl3B9Z11QIkhQ8DVI4/B5lcZQZW6gcDugYfB
2b+VQIK3B0DE56PBLcWVQHy3isCx44/B4UIKQYYBhMC6NJHBbRm4QFh5jMCGCofBia3xQGcgQsBs
r5DBNnOKQA9/gUBWL5fBilKrQItwQkBvlJvB5Za3QFmLIkG1j7LB2a3NQE7Y5EAvlY/BiGi7QAUw
DUASvJLBR8TUQOCTTMAESofB9j15QCUavkALmYvBNw7+QEjUR0AWmZHBXFHGQNH6KMAQwmvBS3oA
Qe1wEkFOgY3BmGgLQXrM5UBwKJnBfehpQJeAlkBiz5/BKBkPQe2wwD672LHBTlKvQBxTLMDLHqjB
S7H1QOWmAUG1PJXBSI/BQKqdKEEoxpfBKEL0QG7X7kCfWqzBTuDGQLdbk762iIzBj14QQWRPIkAj
cX7BFkQJQfX1rb+Y/WHBJCvnQBHeDkBNDqzBfTKEQIZyCr9MuaLBZc37QJGrAMAANK/BflCgQBuL
OUEYtqfB6hfSQEuvCUHLzbvBKLaYQCGwB0EAKpDB+ye5QOzCCUHaWITBEW3cQFvJq0BN55fBuVax
QN6cykCRep3BtSydQPfWz0BfDXvBV9FhQHqS8UD5HoHBMPKvQHfRkkBATonBKQIXQduluD+Adk/B
CXEnQYmXrD0wm1jB1kAqQbxk2z9jXGTBfnBFQFvPQsB1jpXBMlBVQKPAQMCmU4fBusuPQEMIC8C9
/4/BhIQlQWQFm8D8JIjBJz0hQZyORMD9UYfBnRAQQXw/hsCWHYDBTziOQBt8LUDaFqvBAf9vQMPP
2z/Ge6DBnYOAQJCUpsD/EI/BPqelQGG4i8AXvZfBf64TQRxDf8DxjpjB9YECQbyZo8CLWpHB1hSo
QDjajcDbbH7BqJbLQIhwqcA4KojBS6wAQcA5A8DzKJDBzl7eQO05RcB5CJjB6vJlQClKX0CAYZLB
UtbFQD9PZUBQY5/BhAWnQETHxz+wXI/BZ+FPQO9Wq0DGsIfBnWFbQFdozEAOtJHBewJQQFi8gUCQ
UaTBRunFQGYLIkEoM57BwRbgQHo0B0FEhKrBMQHfQPb2BT4+i4XBl/oKQeTZ2T/FW3/BA7gFQRRt
yr5QHWzBmO/ZQCyTlz/zOKzBXRmmQAJlz74x+KTBETLoQHILm7+PGq3BBSqyQElsLEHV6KbBU6TL
QEtsEkHw3rLBAo70QLZ2rj850YbB5FXqQCi8PL/9SHrBInYQQbrXVD/pcW7B+IWyQHKabD9UHqfB
SM/0QPRd7z20Ka/B1dbAQEZOvL+2A6jBXHbdQLsyD0FqAaDBZAjnQII/E0CmSo/BrP3QQBGW+L/c
dHbBEFCrQDhi+0BYvYnBPOS/QFawvkC3EZbBBw6MQHQP3UDcGoTBDTyfQPEvokCbHJDBqi8iQVLd
mD/CD1/Bb4ZjQHZKjsB0Lo3B/ZUWQfo5fMAB0ZXBWYWVQJdDBEDy8aPBcTSWQAzxXcAtCovBqFcB
QR0pWcAZpZHBYoe1QE5AgsCuzYLBI5MBQUHJW8AgX4XB/6mKQEDQgED4jpfB7bOrQLNLQUCa9pvB
bky1QCqjJEGY/7DB+vfNQCw840BCWo/Bgyy9QLqKDkAVDZPBBcjYQOcSSMBP2IDBL+t4QFXYvECT
t4vBSQ8AQejoSECIv5LBr/uxQOar7L/biGrB4SwBQX8MEUF61ozBWjILQVbZ5EAWSJnBiUtrQNQq
lkCxM6DBMFkNQSNBvD6g+rPBCa+0QEKwL8BJGKbBu/71QDcFAUHx3JTBaP7CQMF+KEG4N5bBHozx
QBtS8UDzKazBDszFQHbcFL6qBovBq5ETQZtWKEDqs4DBkTEKQR13ib8kcF/BcnbjQJzoDEDH3q3B
UheIQFeyGr+o/aDBb7X8QCfzAcCaba/BUyOgQCPmOkEmg6XBddbNQMNcDEGA8brBE56ZQO9MB0FF
o4/BQN65QCpYCEH8wIPBOfvbQCNAq0BdMZjBifCwQJwly0DdZp3BAIScQBP6zEB95HrBH5thQCeE
70Ae/IDBrMSvQKlxkUAmkYnBc3QbQa153z9FZ1HBq/spQcaRjT5qSVnB2gcuQauF6T/0S2fB8SI3
QNpZgMBLDpPBr8t9QPhhrMB9WpDBBhRBQC29lMCWrYXBiZkWQQ6mesA9nZ7BN88jQdGvVMBzxJLB
g6UYQVlMn8CNEZPBQKmMQDF9KECGKKvBYv9wQFAX1D8lMqDBzV6nQPcQUcBQjZLB+QKJQGHHIcBo
4IfB7ID+QIu+FsCZXpTBhC3oQLVTgMCzq5TBW3ikQP1siMBDhnbBdY7CQOp2oMBC7oXBR2gGQX4V
jsDOwYLBpDENQVJ9LMB3aoLBVttlQHSIXUCy4ZLBH3fFQNg3ZEAWE6DB6mmpQM3tyj/laY/BxhdP
QLHUqUBX94fBu5xbQIvVy0ADw5HBtt5RQCuWgUAIzqTB

> <OMEGA_E>
YJydPXD0mj0wg8U+

> <OMEGA_NBR>
     20147

$$$$
50162074
  -OEChem-04172616093D

 88 91  0     1  0  0  0  0  0999 V2000
    6.9059   -0.0092  -16.6624 C   0  0  0  0  0  0  0  0  0  0  0  0
    8.4939    1.5751  -15.6947 C   0  0  0  0  0  0  0  0  0  0  0  0
    8.1451   -0.5995  -14.6466 C   0  0  0  0  0  0  0  0  0  0  0  0
    7.0008    1.0961  -21.2169 C   0  0  0  0  0  0  0  0  0  0  0  0
    5.2167   -0.4554  -20.5998 C   0  0  0  0  0  0  0  0  0  0  0  0
    7.3616   -1.3093  -21.3868 C   0  0  0  0  0  0  0  0  0  0  0  0
    6.0347   10.5040  -19.6764 C   0  0  0  0  0  0  0  0  0  0  0  0
    7.5370    1.2574  -16.6832 C   0  0  0  0  0  0  0  0  0  0  0  0
    7.2081   -0.9378  -15.6443 C   0  0  0  0  0  0  0  0  0  0  0  0
    8.8061    0.6439  -14.6844 C   0  0  0  0  0  0  0  0  0  0  0  0
    5.6899    0.8647  -20.7457 C   0  0  0  0  0  0  0  0  0  0  0  0
    7.8367    0.0095  -21.5307 C   0  0  0  0  0  0  0  0  0  0  0  0
    6.0516   -1.5403  -20.9220 C   0  0  0  0  0  0  0  0  0  0  0  0
    6.7419    9.2714  -20.0366 C   0  0  0  0  0  0  0  0  0  0  0  0
    6.6290    9.1448  -21.4037 C   0  0  0  0  0  0  0  0  0  0  0  0
    7.1675    2.2487  -17.7103 C   0  0  0  0  0  0  0  0  0  0  0  0
    6.4875   -2.2248  -15.5682 C   0  0  0  0  0  0  0  0  0  0  0  0
    5.3158    7.9322  -17.3585 C   0  0  0  0  0  0  0  0  0  0  0  0
    6.0186    5.9910  -18.8407 C   0  0  0  0  0  0  0  0  0  0  0  0
    4.3879    6.9734  -16.6085 C   0  0  0  0  0  0  0  0  0  0  0  0
    5.0184    5.1083  -18.0473 C   0  0  2  0  0  0  0  0  0  0  0  0
    9.7849    1.0132  -13.5924 C   0  0  0  0  0  0  0  0  0  0  0  0
    7.1404    8.0500  -22.3103 C   0  0  0  0  0  0  0  0  0  0  0  0
    3.7617   -3.0875  -17.8934 C   0  0  0  0  0  0  0  0  0  0  0  0
    9.7776   -4.3962  -17.8602 C   0  0  0  0  0  0  0  0  0  0  0  0
    4.7786    2.0259  -20.4204 C   0  0  0  0  0  0  0  0  0  0  0  0
    4.6344   -4.3543  -17.8359 C   0  0  0  0  0  0  0  0  0  0  0  0
    8.7971   -3.8001  -16.8551 C   0  0  0  0  0  0  0  0  0  0  0  0
    5.5786   -4.3221  -16.6210 C   0  0  0  0  0  0  0  0  0  0  0  0
    7.5972   -3.1637  -17.5862 C   0  0  0  0  0  0  0  0  0  0  0  0
    4.3824    4.0132  -18.9185 C   0  0  2  0  0  0  0  0  0  0  0  0
    5.4236    2.9860  -19.3979 C   0  0  1  0  0  0  0  0  0  0  0  0
    5.5809   11.0565  -20.7726 N   0  0  0  0  0  0  0  0  0  0  0  0
    6.4083    7.2062  -18.0756 N   0  0  1  0  0  0  0  0  0  0  0  0
    5.8867    2.1982  -18.2457 N   0  0  0  0  0  0  0  0  0  0  0  0
    6.4613   -3.1248  -16.6494 N   0  0  0  0  0  0  0  0  0  0  0  0
    3.9173    5.9356  -17.5282 N   0  3  0  0  0  0  0  0  0  0  0  0
    7.9723    3.1034  -18.0667 O   0  0  0  0  0  0  0  0  0  0  0  0
    5.9536   -2.5176  -14.5042 O   0  0  0  0  0  0  0  0  0  0  0  0
    8.1090    9.1033  -17.7603 O   0  0  0  0  0  0  0  0  0  0  0  0
    8.5444    7.3413  -19.5320 O   0  0  0  0  0  0  0  0  0  0  0  0
    5.9466   10.2343  -21.8581 O   0  0  0  0  0  0  0  0  0  0  0  0
    3.7283    4.6169  -20.0367 O   0  0  0  0  0  0  0  0  0  0  0  0
    9.0921    0.2334  -21.9796 F   0  0  0  0  0  0  0  0  0  0  0  0
    5.5937   -2.8040  -20.7896 F   0  0  0  0  0  0  0  0  0  0  0  0
    7.6040    8.2113  -18.8120 S   0  0  0  0  0  0  0  0  0  0  0  0
    6.1900   -0.2659  -17.4292 H   0  0  0  0  0  0  0  0  0  0  0  0
    8.9883    2.5351  -15.7130 H   0  0  0  0  0  0  0  0  0  0  0  0
    8.3571   -1.2969  -13.8497 H   0  0  0  0  0  0  0  0  0  0  0  0
    7.3613    2.1072  -21.3363 H   0  0  0  0  0  0  0  0  0  0  0  0
    4.2138   -0.6333  -20.2408 H   0  0  0  0  0  0  0  0  0  0  0  0
    8.0018   -2.1435  -21.6330 H   0  0  0  0  0  0  0  0  0  0  0  0
    5.9095   10.8907  -18.6758 H   0  0  0  0  0  0  0  0  0  0  0  0
    4.7236    8.4982  -18.0928 H   0  0  0  0  0  0  0  0  0  0  0  0
    5.7665    8.6285  -16.6360 H   0  0  0  0  0  0  0  0  0  0  0  0
    6.9215    5.4008  -19.0561 H   0  0  0  0  0  0  0  0  0  0  0  0
    5.5486    6.3005  -19.7859 H   0  0  0  0  0  0  0  0  0  0  0  0
    4.9365    6.5063  -15.7774 H   0  0  0  0  0  0  0  0  0  0  0  0
    3.5265    7.5308  -16.2120 H   0  0  0  0  0  0  0  0  0  0  0  0
    5.5530    4.6332  -17.2115 H   0  0  0  0  0  0  0  0  0  0  0  0
    9.2462    1.4983  -12.7651 H   0  0  0  0  0  0  0  0  0  0  0  0
   10.2820    0.1041  -13.2230 H   0  0  0  0  0  0  0  0  0  0  0  0
   10.5389    1.7056  -13.9949 H   0  0  0  0  0  0  0  0  0  0  0  0
    6.8744    8.2819  -23.3522 H   0  0  0  0  0  0  0  0  0  0  0  0
    8.2343    7.9792  -22.2185 H   0  0  0  0  0  0  0  0  0  0  0  0
    6.6852    7.0915  -22.0204 H   0  0  0  0  0  0  0  0  0  0  0  0
    3.0985   -3.1379  -18.7695 H   0  0  0  0  0  0  0  0  0  0  0  0
    3.1554   -3.0182  -16.9782 H   0  0  0  0  0  0  0  0  0  0  0  0
    4.4077   -2.2007  -17.9732 H   0  0  0  0  0  0  0  0  0  0  0  0
   10.6261   -4.8453  -17.3233 H   0  0  0  0  0  0  0  0  0  0  0  0
    9.2687   -5.1698  -18.4541 H   0  0  0  0  0  0  0  0  0  0  0  0
   10.1448   -3.6034  -18.5284 H   0  0  0  0  0  0  0  0  0  0  0  0
    4.5642    2.5812  -21.3454 H   0  0  0  0  0  0  0  0  0  0  0  0
    3.8396    1.6359  -20.0008 H   0  0  0  0  0  0  0  0  0  0  0  0
    3.9820   -5.2368  -17.7606 H   0  0  0  0  0  0  0  0  0  0  0  0
    5.2344   -4.4193  -18.7556 H   0  0  0  0  0  0  0  0  0  0  0  0
    8.4343   -4.5955  -16.1874 H   0  0  0  0  0  0  0  0  0  0  0  0
    9.3104   -3.0291  -16.2617 H   0  0  0  0  0  0  0  0  0  0  0  0
    4.9765   -4.3009  -15.7007 H   0  0  0  0  0  0  0  0  0  0  0  0
    6.2034   -5.2274  -16.6296 H   0  0  0  0  0  0  0  0  0  0  0  0
    7.8532   -2.1425  -17.9049 H   0  0  0  0  0  0  0  0  0  0  0  0
    7.3339   -3.7676  -18.4671 H   0  0  0  0  0  0  0  0  0  0  0  0
    3.6398    3.4814  -18.3056 H   0  0  0  0  0  0  0  0  0  0  0  0
    6.2676    3.5107  -19.8695 H   0  0  0  0  0  0  0  0  0  0  0  0
    5.2299    1.5793  -17.8150 H   0  0  0  0  0  0  0  0  0  0  0  0
    3.2721    5.3449  -17.0436 H   0  0  0  0  0  0  0  0  0  0  0  0
    3.4540    6.3742  -18.2982 H   0  0  0  0  0  0  0  0  0  0  0  0
    3.3346    3.9415  -20.5764 H   0  0  0  0  0  0  0  0  0  0  0  0
  1  8  1  0  0  0  0
  1  9  2  0  0  0  0
  2  8  2  0  0  0  0
  2 10  1  0  0  0  0
  3  9  1  0  0  0  0
  3 10  2  0  0  0  0
  4 11  1  0  0  0  0
  4 12  2  0  0  0  0
  5 11  2  0  0  0  0
  5 13  1  0  0  0  0
  6 12  1  0  0  0  0
  6 13  2  0  0  0  0
  7 14  1  0  0  0  0
  7 33  2  0  0  0  0
  8 16  1  0  0  0  0
  9 17  1  0  0  0  0
 10 22  1  0  0  0  0
 11 26  1  0  0  0  0
 12 44  1  0  0  0  0
 13 45  1  0  0  0  0
 14 15  2  0  0  0  0
 14 46  1  0  0  0  0
 15 23  1  0  0  0  0
 15 42  1  0  0  0  0
 16 35  1  0  0  0  0
 16 38  2  0  0  0  0
 17 36  1  0  0  0  0
 17 39  2  0  0  0  0
 18 20  1  0  0  0  0
 18 34  1  0  0  0  0
 19 21  1  0  0  0  0
 19 34  1  0  0  0  0
 20 37  1  0  0  0  0
 21 31  1  0  0  0  0
 21 37  1  0  0  0  0
 24 27  1  0  0  0  0
 25 28  1  0  0  0  0
 26 32  1  0  0  0  0
 27 29  1  0  0  0  0
 28 30  1  0  0  0  0
 29 36  1  0  0  0  0
 30 36  1  0  0  0  0
 31 32  1  0  0  0  0
 31 43  1  0  0  0  0
 32 35  1  0  0  0  0
 33 42  1  0  0  0  0
 34 46  1  0  0  0  0
 40 46  2  0  0  0  0
 41 46  2  0  0  0  0
  1 47  1  0  0  0  0
  2 48  1  0  0  0  0
  3 49  1  0  0  0  0
  4 50  1  0  0  0  0
  5 51  1  0  0  0  0
  6 52  1  0  0  0  0
  7 53  1  0  0  0  0
 18 54  1  0  0  0  0
 18 55  1  0  0  0  0
 19 56  1  0  0  0  0
 19 57  1  0  0  0  0
 20 58  1  0  0  0  0
 20 59  1  0  0  0  0
 21 60  1  0  0  0  0
 22 61  1  0  0  0  0
 22 62  1  0  0  0  0
 22 63  1  0  0  0  0
 23 64  1  0  0  0  0
 23 65  1  0  0  0  0
 23 66  1  0  0  0  0
 24 67  1  0  0  0  0
 24 68  1  0  0  0  0
 24 69  1  0  0  0  0
 25 70  1  0  0  0  0
 25 71  1  0  0  0  0
 25 72  1  0  0  0  0
 26 73  1  0  0  0  0
 26 74  1  0  0  0  0
 27 75  1  0  0  0  0
 27 76  1  0  0  0  0
 28 77  1  0  0  0  0
 28 78  1  0  0  0  0
 29 79  1  0  0  0  0
 29 80  1  0  0  0  0
 30 81  1  0  0  0  0
 30 82  1  0  0  0  0
 31 83  1  0  0  0  0
 32 84  1  0  0  0  0
 35 85  1  0  0  0  0
 37 86  1  0  0  0  0
 37 87  1  0  0  0  0
 43 88  1  0  0  0  0
M  CHG  1  37   1
M  END
> <OMEGA_C>
If3cQACEFryuTIXBN+cHQXqcyT9LHXvBfVICQa55Gb99WGrBnQbgQA5OjD87vKnBQO+mQHcl6b5c
zKTBAJLrQAKYp79BGKvBhxzBQEwQKEE6aZ3BIi/xQN/yoD8gd4XB4ajmQG4TcL80T3rBouUMQc3W
JD9g82rBlBO2QKRaXT8v96XBUMb6QMBkGzztPqzBmKbBQAMoxb9ZYKfBSb3XQJVXFEH8SqDBciDU
QC1REkGyOqvBjFzlQHzqD0C6ro3BWZnPQNxiDsB8F3nBqhqqQNvU/UBG3orBKpjAQFG2v0C4uZbB
b2mMQMgl30BN3oTB3ZagQJh3o0DgYJDB+44cQR2vgT+YelnBSn7kQPPMAEGXe7LB8r9wQCWZRcCq
JY/B7XAcQcGtjMCv4Y7BkOqYQAWoAUAHXaPBykyUQNRWi8Dsr47B8MAMQZY1c8Az14bBwYOyQP5O
isDf94TBChzzQFJ6SsCSsIzByTyMQIFsgEAUWZfB+Y2tQOUaP0DTLpvBzpayQErnMEE5LqbBbBDN
QDaZ5kDdmpDB/V+8QFevDEAg95HB+sLOQF79R8DvMYXBMLV6QCHwvUDMOYzB9hz/QFydRkCviJDB
soO+QKogIcAFEWjBcb4BQRanEUEjFY7BsLUIQQLs6kCcQZzBKEq+QJa/I0Fq3a7BxJxuQOG9k0As
S6DBG3kRQeQBbz4f1q/B0P+yQEB1M8AtUabBnlPzQE5hA0EAf5bBPxTGQGQjiL4Kb4vBIdAPQXM/
IkCLaHvB4rYFQUEBpr9MmF3BHZDrQKfbBkCpsKrBTNeGQBkgIr8g7aHBiAcAQX8vCcBMEK3Bixq9
QCpALkEDaJXBIiiXQIr4B0ECvpDBzYa4QF8OCkGBFoXB03zdQGrTrEDxcpjBbI6xQIedyUB3SZ7B
ovedQHsz0EAScHzBf7FhQDD88EAssoHB/7GxQHhDlEA4sYnBi/ATQebHvz/dPUzBJoMkQV4n1T2F
kVPBbp8oQapR2j/+6l/BvPrbQK2CBEFM0brBnL8DQW9V/0Bqv7HBkO3VQKLt4kDcKbDBDE5GQA/T
SMAAKJbBpfFJQHIqQcBg04fB+AuNQLTYDMAkyY/BrQQqQQ0Nm8A4lorBuUwUQadupcD6oZPBLVEi
QWKdZsAwOpTB2g2SQMUyJUBpw6rBa7t1QDVm0T+gAaDBWdl+QAiUp8CnFY7B0n+nQClrjcBrC5bB
w/IGQUoOk8DVf4HBN/cUQafcQcALGILB4T+fQN2gicDdNXvBdILGQOZGp8B7CYXBlk37QMgeCcBB
PY/BLa/qQOQfccC3vJPBn/JoQLLPXkDGcZLB6I/IQBevYECq9J7BHVunQEkmyj8LhY7Bl2pRQD0J
q0BWWYjBLg5dQKb5y0DGYpLB3GlVQA5BfEBlnKTBO+DdQMCs8Ds+J4bBVYoIQShbyj9m73zBQQwE
QYfYIb/QIm3BJJPdQHRPpD8AtarBQdWlQIy7n76vtKXB3TDqQDQijr/3oKzBPofqQL6M+0AuDq3B
Hb3xQCyXoz8gOobB7HzpQNvXdL9L3nzB5cMNQTmbIz88A23BxSO0QORogj8WuabBu6v4QDj/Xz7l
kK3Bvr7AQF/Xr79luajB/mDgQF9XCkFbfKPBeyLIQFBuG0F246bBVQ/lQOFUEkB3N47BuWvUQLvj
EcA5gXzBbQeoQKTo/0C0uYrB5/a/QKZwwEC/1JXBHryLQCxX4UDiP4TBo6ufQAZapEDWho/Bdn8e
QdC5eD92YFzB7ru0QExXLUGLY6DBXX12QKO0RMBzIo/B2OcWQZTHmcB3n47BGdWWQET8CUBSl6PB
RsGYQKJ5icDucpDBoKwRQV+rVsA3q4vBUcm6QN7gi8Bzh4fB8Tn2QP8sPcA3oY/BCc6KQMArgkBg
tpbBBuqrQA6UREBTKZvB64zZQF1NB0EDXLXBl6HLQBQ46EA+BZDBvta7QKQPD0DPWJLBO6bVQNNT
ScD9JofBcRh5QHzCvkC+NYvBeU3+QPZFSkBZ+JDB6fnCQNkSKMBS1GvB5Xj3QB87F0Hb24/BzDAM
QQqf6kCjaJfBsBzEQLfHGUH9t7HBiGRpQFTAlkAtT5/BlT0QQSJI8j7ERrHBmbSyQLJgKcA/66fB
LhHzQFVYA0EKB5bBtbHFQKslaL4ACYzB2YwQQc1oIkDVRH3BfFcIQQQ5rr89IWHBO3PoQNZoE0De
jqvBcTuGQJwMBL9ynKLBgN7+QIC+9r96567B9+T8QCZI3kDyOa3BZG+UQFjaB0Gk4JDB2pC1QFAY
DEHPU4XB7jbdQMqvrUCOPZfBnImxQGQ+yUDijJ3BlGmeQKmz00AgO3vBBE1gQJT78kAWBYHBfKuw
QARZlEDo8IjB57sWQadftj8+WE7BEtMmQe8xUj01hFfBKB4qQf0a1z84KmPBon+jQPVaOEFJu6XB
CU2eQB+gJkFDf5rB1kXOQKMWNkExM5zBhh9HQN3UQ8DZpJXBNTZVQHCTSMAYZYfB3X2OQJDOCcBp
bI/BMwInQW3mocBxtYvBEhoLQepCr8Cl6YrBJVsWQbmDncBxXpfB01OPQLoSMEAOwKrBgjhyQNy9
3j8fQKDBcSqFQDm0psCqM5DBNA2pQMlRh8D7OpjBZ1MSQVahT8BC64LBepQdQfUiLMAOYI/B6Iqq
QDbAj8CWkH/BAozPQF6up8BYAonBqpj2QD3k8r9NB5LBNMLtQI4YZcDpj5bB5IxnQBc9YEAs0pHB
k23GQAUPaEB94Z7Bl3inQFZbyj/ZFI/BE+RRQGHrq0Cw/YbBd/ZYQAOqy0CRVJHB1JVPQAC+gUBb
waPBD5PeQKhpmr1cfYbBCTgIQWT8wz8ITX3BTfMDQb6sLL8nQ23BBIfdQLgxlj+d9KrB9bGkQKT4
wr7i4qXBLLnoQLuQnb+Zm6zB34DBQKQlKUHsMJzB7MfxQER+mj+eh4bBKR/qQIk4g7/2QX3B8GAN
QSy2Gj/zJm3B0N+zQNlfcD8B/6bBdw74QEp1tD2Jpq3BC/W+QBtHu783x6jB9V/WQLJUFUFEqZ/B
WA3QQDrvE0Gvi6rBNDnlQIGHDUDVlI7BWAXVQMozFsCBYHzBXPiqQHJt/UCaf4rBNnTAQMMHwEBo
sJbBCPeNQBJe3kC0aYTBsfygQGxSo0C9SpDBCLQdQXrTdj/WPlzB64zeQBveAkFhS7LBoTAZQfls
gsAkpobB0KV1QDEyRMA+ao/BbzeXQMkvBkBzAKTBp10KQSqchcDjbZDBynSVQDqIi8Am6o/B0M7x
QKxhRcC/OZDBsPK2QMFjjcCa3YbByNWLQC36gEDAV5fBVZisQNatQEDHnJvBFLGwQAlvMkFClKTB
x3DNQFWN5kAmf5DBAfa7QFsnC0AutJLB3PjTQMjyTsDr/YbBiFx8QLl4vUCbxYvB0Zj+QNM9RUAg
VpHBf4PDQMWSKcANfmvB/HUCQcQhEUGN+I3BNPsHQevV60AvyJzBFXy5QPuVJUHela3B/BlsQDlS
lUBTBaDBeBQQQXGWoD4GSbHBO/KvQMtrLsAP66fBFSfzQG6PA0G2eJbBzwjHQGk4qL6Je4zBqQUQ
QUemH0DYon3BYyUIQVkEsr9QB2HB+QDpQMLXC0De6avBHOiEQGh6D7/e0KLBI/z8QCgbBMB5vq7B
DjfAQPgUL0FEFZTBLWuXQHvcB0HuNZDBYNu5QCnBCUFzvoTBvTTdQApHrUD/opjBNsewQNdiykB9
IZ7BrjugQI4fz0D62nvBk2plQGT870CSAYHBt7OyQFJ2k0CWzYnBuI0VQauUtT+zcU7BmikmQVgI
Yz2rEVfBXkYpQUgO1z8c7WLBuhPUQJ4XB0EPbbrBlNQAQQesAUFPGrLB4nrQQFfO5kA//6/B62Ql
QdO7m8ClEIfB5A8hQVfjRcDslYbBnbgPQZBPhsACl37Bo7dGQBHfQ8Bv+ZXB1OFTQDb3QMAstIfB
BSiQQLeODMApNZDBhUKQQOP3K0B3OKvB5FJyQGnu2T+graDBiPoTQUHegcC5vZfBQaMCQSY8pcBP
c5DB2bB/QFonp8B/KY/Bhw+mQBvzjMB7qpfBSbIAQa1lBsCks4/B6DnfQN8/ScATr5fBjjGmQDt2
jsAZQ37BQUfKQGOMqsCu1ofBiwdpQMccX0AWZZLBvH3HQAP0YkBGVp/B3TqnQLh2xD8mZI/BjytU
QJ1GqkBEzofBOB9dQNDIy0B+xJHBUd1RQG03gEASZqTB

> <OMEGA_E>
+B6QPhhBkj4IMVI+

> <OMEGA_NBR>
     24517

$$$$
50162079
  -OEChem-04172616093D

 86 89  0     1  0  0  0  0  0999 V2000
    5.7126   10.3391  -21.4025 C   0  0  0  0  0  0  0  0  0  0  0  0
    6.2309    9.9720  -20.0759 C   0  0  0  0  0  0  0  0  0  0  0  0
    6.9842   -0.0056  -16.8497 C   0  0  0  0  0  0  0  0  0  0  0  0
    8.5339    1.6199  -15.8868 C   0  0  0  0  0  0  0  0  0  0  0  0
    8.3116   -0.5930  -14.8893 C   0  0  0  0  0  0  0  0  0  0  0  0
    6.8519    1.2475  -21.3723 C   0  0  0  0  0  0  0  0  0  0  0  0
    5.1090   -0.3457  -20.7437 C   0  0  0  0  0  0  0  0  0  0  0  0
    7.2411   -1.1471  -21.6157 C   0  0  0  0  0  0  0  0  0  0  0  0
    6.0927    9.4506  -22.3799 C   0  0  0  0  0  0  0  0  0  0  0  0
    7.5626    1.2857  -16.8552 C   0  0  0  0  0  0  0  0  0  0  0  0
    7.3705   -0.9524  -15.8758 C   0  0  0  0  0  0  0  0  0  0  0  0
    8.9113    0.6810  -14.9079 C   0  0  0  0  0  0  0  0  0  0  0  0
    5.5591    0.9840  -20.8671 C   0  0  0  0  0  0  0  0  0  0  0  0
    7.6953    0.1815  -21.7347 C   0  0  0  0  0  0  0  0  0  0  0  0
    5.9455   -1.4083  -21.1267 C   0  0  0  0  0  0  0  0  0  0  0  0
    6.9898    8.8270  -20.1083 C   0  0  0  0  0  0  0  0  0  0  0  0
    7.1352    2.2846  -17.8492 C   0  0  0  0  0  0  0  0  0  0  0  0
    6.7286   -2.2818  -15.8169 C   0  0  0  0  0  0  0  0  0  0  0  0
    5.3357    7.9287  -17.2922 C   0  0  0  0  0  0  0  0  0  0  0  0
    5.9749    5.9663  -18.7420 C   0  0  0  0  0  0  0  0  0  0  0  0
    4.3457    7.0196  -16.5553 C   0  0  0  0  0  0  0  0  0  0  0  0
    4.9340    5.1131  -17.9799 C   0  0  2  0  0  0  0  0  0  0  0  0
    9.9032    1.0661  -13.8335 C   0  0  0  0  0  0  0  0  0  0  0  0
    3.8804   -3.0229  -17.9088 C   0  0  0  0  0  0  0  0  0  0  0  0
    9.6325   -4.0085  -16.9615 C   0  0  0  0  0  0  0  0  0  0  0  0
    4.6439    2.1201  -20.4713 C   0  0  0  0  0  0  0  0  0  0  0  0
    4.7282   -4.3056  -18.0029 C   0  0  0  0  0  0  0  0  0  0  0  0
    8.6844   -4.0814  -18.1693 C   0  0  0  0  0  0  0  0  0  0  0  0
    5.7992   -4.3612  -16.8950 C   0  0  0  0  0  0  0  0  0  0  0  0
    7.5932   -2.9929  -18.0952 C   0  0  0  0  0  0  0  0  0  0  0  0
    4.2827    4.0556  -18.8890 C   0  0  2  0  0  0  0  0  0  0  0  0
    5.3140    3.0492  -19.4386 C   0  0  1  0  0  0  0  0  0  0  0  0
    6.4194    7.1309  -17.9404 N   0  0  1  0  0  0  0  0  0  0  0  0
    5.8336    2.2287  -18.3327 N   0  0  0  0  0  0  0  0  0  0  0  0
    6.6908   -3.1651  -16.9203 N   0  0  0  0  0  0  0  0  0  0  0  0
    3.8537    5.9781  -17.4665 N   0  3  0  0  0  0  0  0  0  0  0  0
    7.9161    3.1543  -18.2210 O   0  0  0  0  0  0  0  0  0  0  0  0
    6.1998   -2.5944  -14.7554 O   0  0  0  0  0  0  0  0  0  0  0  0
    8.0558    9.1091  -17.7010 O   0  0  0  0  0  0  0  0  0  0  0  0
    8.7213    7.0927  -19.1122 O   0  0  0  0  0  0  0  0  0  0  0  0
    3.6147    4.7101  -19.9704 O   0  0  0  0  0  0  0  0  0  0  0  0
    8.9366    0.4345  -22.2070 F   0  0  0  0  0  0  0  0  0  0  0  0
    5.5007   -2.6800  -21.0304 F   0  0  0  0  0  0  0  0  0  0  0  0
    7.0846    8.1735  -21.7245 S   0  0  0  0  0  0  0  0  0  0  0  0
    7.6999    8.0413  -18.6451 S   0  0  0  0  0  0  0  0  0  0  0  0
    5.1013   11.2098  -21.5880 H   0  0  0  0  0  0  0  0  0  0  0  0
    6.0368   10.5387  -19.1773 H   0  0  0  0  0  0  0  0  0  0  0  0
    6.2453   -0.2678  -17.5925 H   0  0  0  0  0  0  0  0  0  0  0  0
    8.9891    2.5992  -15.8969 H   0  0  0  0  0  0  0  0  0  0  0  0
    8.5739   -1.2987  -14.1150 H   0  0  0  0  0  0  0  0  0  0  0  0
    7.1924    2.2667  -21.4802 H   0  0  0  0  0  0  0  0  0  0  0  0
    4.1219   -0.5481  -20.3551 H   0  0  0  0  0  0  0  0  0  0  0  0
    7.8862   -1.9655  -21.8993 H   0  0  0  0  0  0  0  0  0  0  0  0
    5.8134    9.5324  -23.4199 H   0  0  0  0  0  0  0  0  0  0  0  0
    4.7959    8.4958  -18.0649 H   0  0  0  0  0  0  0  0  0  0  0  0
    5.7860    8.6276  -16.5719 H   0  0  0  0  0  0  0  0  0  0  0  0
    6.8482    5.3394  -18.9751 H   0  0  0  0  0  0  0  0  0  0  0  0
    5.5234    6.3285  -19.6774 H   0  0  0  0  0  0  0  0  0  0  0  0
    4.8506    6.5475  -15.6997 H   0  0  0  0  0  0  0  0  0  0  0  0
    3.4974    7.6199  -16.1948 H   0  0  0  0  0  0  0  0  0  0  0  0
    5.4347    4.6052  -17.1425 H   0  0  0  0  0  0  0  0  0  0  0  0
    9.3672    1.5051  -12.9792 H   0  0  0  0  0  0  0  0  0  0  0  0
   10.4505    0.1712  -13.5021 H   0  0  0  0  0  0  0  0  0  0  0  0
   10.6141    1.8019  -14.2376 H   0  0  0  0  0  0  0  0  0  0  0  0
    3.1298   -3.0191  -18.7129 H   0  0  0  0  0  0  0  0  0  0  0  0
    3.3729   -2.9898  -16.9334 H   0  0  0  0  0  0  0  0  0  0  0  0
    4.5332   -2.1437  -18.0126 H   0  0  0  0  0  0  0  0  0  0  0  0
   10.3958   -4.7961  -17.0459 H   0  0  0  0  0  0  0  0  0  0  0  0
   10.1225   -3.0240  -16.9391 H   0  0  0  0  0  0  0  0  0  0  0  0
    9.0575   -4.1531  -16.0350 H   0  0  0  0  0  0  0  0  0  0  0  0
    4.3912    2.7050  -21.3680 H   0  0  0  0  0  0  0  0  0  0  0  0
    3.7245    1.7033  -20.0343 H   0  0  0  0  0  0  0  0  0  0  0  0
    4.0666   -5.1788  -17.9038 H   0  0  0  0  0  0  0  0  0  0  0  0
    5.2269   -4.3327  -18.9830 H   0  0  0  0  0  0  0  0  0  0  0  0
    9.2679   -3.9411  -19.0912 H   0  0  0  0  0  0  0  0  0  0  0  0
    8.2029   -5.0703  -18.1870 H   0  0  0  0  0  0  0  0  0  0  0  0
    5.2970   -4.4094  -15.9175 H   0  0  0  0  0  0  0  0  0  0  0  0
    6.4114   -5.2638  -17.0376 H   0  0  0  0  0  0  0  0  0  0  0  0
    8.0807   -2.0094  -18.0239 H   0  0  0  0  0  0  0  0  0  0  0  0
    6.9888   -3.0368  -19.0133 H   0  0  0  0  0  0  0  0  0  0  0  0
    3.5490    3.4968  -18.2896 H   0  0  0  0  0  0  0  0  0  0  0  0
    6.1347    3.5984  -19.9231 H   0  0  0  0  0  0  0  0  0  0  0  0
    5.2045    1.5843  -17.8979 H   0  0  0  0  0  0  0  0  0  0  0  0
    3.1942    5.4089  -16.9754 H   0  0  0  0  0  0  0  0  0  0  0  0
    3.4013    6.4190  -18.2417 H   0  0  0  0  0  0  0  0  0  0  0  0
    3.2113    4.0603  -20.5338 H   0  0  0  0  0  0  0  0  0  0  0  0
  1  2  1  0  0  0  0
  1  9  2  0  0  0  0
  2 16  2  0  0  0  0
  3 10  1  0  0  0  0
  3 11  2  0  0  0  0
  4 10  2  0  0  0  0
  4 12  1  0  0  0  0
  5 11  1  0  0  0  0
  5 12  2  0  0  0  0
  6 13  1  0  0  0  0
  6 14  2  0  0  0  0
  7 13  2  0  0  0  0
  7 15  1  0  0  0  0
  8 14  1  0  0  0  0
  8 15  2  0  0  0  0
  9 44  1  0  0  0  0
 10 17  1  0  0  0  0
 11 18  1  0  0  0  0
 12 23  1  0  0  0  0
 13 26  1  0  0  0  0
 14 42  1  0  0  0  0
 15 43  1  0  0  0  0
 16 44  1  0  0  0  0
 16 45  1  0  0  0  0
 17 34  1  0  0  0  0
 17 37  2  0  0  0  0
 18 35  1  0  0  0  0
 18 38  2  0  0  0  0
 19 21  1  0  0  0  0
 19 33  1  0  0  0  0
 20 22  1  0  0  0  0
 20 33  1  0  0  0  0
 21 36  1  0  0  0  0
 22 31  1  0  0  0  0
 22 36  1  0  0  0  0
 24 27  1  0  0  0  0
 25 28  1  0  0  0  0
 26 32  1  0  0  0  0
 27 29  1  0  0  0  0
 28 30  1  0  0  0  0
 29 35  1  0  0  0  0
 30 35  1  0  0  0  0
 31 32  1  0  0  0  0
 31 41  1  0  0  0  0
 32 34  1  0  0  0  0
 33 45  1  0  0  0  0
 39 45  2  0  0  0  0
 40 45  2  0  0  0  0
  1 46  1  0  0  0  0
  2 47  1  0  0  0  0
  3 48  1  0  0  0  0
  4 49  1  0  0  0  0
  5 50  1  0  0  0  0
  6 51  1  0  0  0  0
  7 52  1  0  0  0  0
  8 53  1  0  0  0  0
  9 54  1  0  0  0  0
 19 55  1  0  0  0  0
 19 56  1  0  0  0  0
 20 57  1  0  0  0  0
 20 58  1  0  0  0  0
 21 59  1  0  0  0  0
 21 60  1  0  0  0  0
 22 61  1  0  0  0  0
 23 62  1  0  0  0  0
 23 63  1  0  0  0  0
 23 64  1  0  0  0  0
 24 65  1  0  0  0  0
 24 66  1  0  0  0  0
 24 67  1  0  0  0  0
 25 68  1  0  0  0  0
 25 69  1  0  0  0  0
 25 70  1  0  0  0  0
 26 71  1  0  0  0  0
 26 72  1  0  0  0  0
 27 73  1  0  0  0  0
 27 74  1  0  0  0  0
 28 75  1  0  0  0  0
 28 76  1  0  0  0  0
 29 77  1  0  0  0  0
 29 78  1  0  0  0  0
 30 79  1  0  0  0  0
 30 80  1  0  0  0  0
 31 81  1  0  0  0  0
 32 82  1  0  0  0  0
 34 83  1  0  0  0  0
 36 84  1  0  0  0  0
 36 85  1  0  0  0  0
 41 86  1  0  0  0  0
M  CHG  1  36   1
M  END
> <OMEGA_C>
Yc22QMJsJUFlOKvBo2PHQC+NH0GGm6DBvn7fQC53trtEzIbB6YoIQepXzz9AMH7BJPwEQfTLF79i
Om7BekLbQAmunz95+qrBCn2jQDb7sL4g86XBd7fnQIDUkr/v7KzBs/fCQH41F0EMCrPBtwDyQI+S
pD9k14bBGNvrQJbNc78iA37BppQOQd5ULj+0hm7BLuSxQF7kez/R76bBlz/2QCriOT6m4K3BwUG+
QMlCtL94A6nB2azfQEw7DUHP3aDBlVPkQEI2EkAjy47Bl1DXQKgIEsAgEn3BHL6qQBe4/UBVVorB
czK/QPXrvkCN75XByQ+LQLOg4EBFcYTBj+OdQCeeo0Dg1o/BrXMeQbF0iD/qVV3BP1l4QPJ3QcA6
RY/BrR4aQepFgMA8sYfBipqUQIavB0BOxaPBuk2XQDfHicDjBZDBefMKQRebgsCyWpHBtZK5QJaO
i8D0KIfBa/vyQDOLP8AIw5DBDQyJQBTHgUC5HJfB5wuqQCQmQ0BMgpvBjmvNQIIw5EDghY/BnKy6
QFyiDkBtqZLBtBrWQKCRSsDRXIfBmKJ2QMlMv0Bvu4vBe1D9QK7fSUCxxJHBCGXGQBEKJsD+FWzB
fOQAQcm+EUGfm43Bn4oLQRH34kDU5ZjBLVdnQFO5lkBdw5/BO/wOQZZw3j7bp7HBZgWwQHmFK8BS
PqjBJLXiQLzGAkGzy63BVWX2QA6pAEFCKZXBfj2jQIpbM0FLtKzBhy3BQJ2eKEEoa5nBz9nHQFIi
ib5mvYzBfNMPQTJZJkCeWX7BtS4JQR07pr/h1mHBOijmQLIREUB/16vBiuaDQClQDL9E16LBC1z8
QGeW+7/UMa/BSge6QKaEGEEJXLvBUXiZQKjuB0HhhJDBRSe5QK8KCkFFk4TBxSTbQLHcqkDyzJfB
UL+wQK+CykA4a53BajibQNaE0UDpMXvBo9RfQG3W80DrjoHBZumtQINdk0DEI4nBCeAVQUqowD+a
qk/BQTUnQXBWLz7ICFjBLNMpQSWk5j8ozWPBHU9IQKU5QcAAtJXB/91XQCNYP8Czd4fBHhCRQPEx
CcDEGZDBV1UmQUp5mcD5XYjB2vUhQb6IQcBXg4fBnusQQUrmhMCkR4DBV4SMQHQeLUC08arBw11u
QKwG2j8vRqDBxCGCQFy4pcANO4/B40KnQEOlisAf3ZfBQEkUQVw7fMDCupjBBD8DQZk/osAPf5HB
+ICpQG0ZjcAQrn7BLyrNQFBxqMABTYjBukoBQRyaAMDxMJDBF6TfQFFaQsAjG5jBGSJjQD7LX0AC
UZLBkU/EQJBMZkB9Yp/BEoumQPLLyj/VLo/Bc25MQPYVrUCvzYfBpK5ZQKFozUAR75HBc4ZNQLTt
gUBTRaTBMSjEQHXcF0Hzk7HBZjbcQBAKCUGtrarBJErfQCCgWbwZn4bBLccIQSzczT/GSX7BKgwF
QW+XF7/X7m3BxX3bQMqelj/MBKvB7S2jQOIsxb4uvqXBoe3mQJD2nL9AtazBEJGzQPTmKEH1/6vB
njzyQCbYoj9C1IbB0LnrQNF/dL/+k33B0WAOQXp5MD/oKW7BKxeyQGfabz9T6abBu//1QDwtwj02
0a3Bwm+9QEJku78tuKjBwjTdQAaxD0E3M6DBuNXkQH/jEECb447BQQHXQKoHEsC1W3zBiiarQHbU
/EBzR4rBr7a/QIMAv0D/Q5bB3LmLQPEc30CAhYTBbrSeQF86o0BzMpDBPRwfQeRJhz+ys13B9p12
QMgARMDe/o7B708ZQfBFgcDQY4fBa0GVQIrIBUBg5qPBxGaWQHYoi8C1aI/BkB0KQfB6g8CNC5HB
qJq4QJfUi8ANhYbBI3nxQE/6QMCic5DB/+qJQE5qgUB/d5fBV9yqQGK9QUDIt5vBbsbNQNIZ5EBa
vI/Bxiu7QE3MDUBXxJLBhALVQN30SsDv9IbBBR14QP9+vkA8AIzBRwb+QFz4R0De7ZHBtrHGQDqS
JcDAMGvB+KMBQb8EEUG4UY3B8LUKQePm5EAWCprBMMhpQFJLlkD7LqDBPuYOQVKUpj66orHBb62u
QJqgLsCDyqfBPvnAQDWIJ0FofJ7Bx+71QHgvAUFQVpXBIAHAQL2YFUGNFLrBeFrrQG4s9UBjhq3B
30HHQBDMjL6Hd4zBpH0QQfa7JEDw5n7B84sJQRaSpr+hs2HB9cnmQD0mDECZAqzBcJeDQDe0Eb/P
j6LBiC77QMOhA8BM6q7B6KegQGCENUGUia/BqZuZQDvQB0EWSpDBV7W5QGxICUErZITBV8PbQJo5
q0BsOJjBgwyxQDjXykCssp3Bfw6cQNlpz0BrknvBjhhhQIzs8UDBfoHBOfuuQA/vkkDIionB7koX
QYHWwT8ZvE/BSbwnQQDCGj6Kq1jBynoqQYjl4j+AumTBqqpGQOJYRcDCb5XBxQdWQBbbP8BaNofB
KDyQQOMDDMBQCpDB8nYlQR+XmsB0EYjBQDohQcWuQ8DkN4fBFx4QQZjMhcCz8X/B14iNQEOXKkAT
JqvB4TZvQAl92D8zZKDB1jGBQKP2psBPZ47BHGqmQAkLjcBGO5fBeHITQewvfsDibJjBTlYCQSwN
o8DYLZHBeXeoQJaZjMAYZ33Bl1HMQAjAqMC+dIfBqpsAQe0bAsBEA5DBPMvdQAVKRMB3vJfBAVRk
QEKbX0BusZLBGEnFQMAuZEDjn5/BIcymQMvJyj9xOY/BGrpNQJT1q0AGM4jB7G5bQIAmzUCfJJLB
VwhQQKJ4gUBpsKTBnSDGQNE1FkEVErLBPLndQAfnB0G30arBRk3fQABmnLw4qIbBCeAIQcvTzD+Q
dH7B2zIFQcbQGb9OHm7Bg1bbQN3AmD8UG6vB1SGjQLG5vb4jzKXBS9nmQGbHmr9KzKzB+AK1QOiT
J0Ej26zB3kvyQEr2oT/M4IbB+uLrQOZXdr9ntX3B/YMOQUNpLj+EWm7BAPyxQGCncz+g+qbBGN31
QLxc5j2i6q3BtWS9QDxkub8yyqjBzeDdQOk5D0Gvc6DBcNXkQJN7EEBM6o7BlBHXQNdfEsCqenzB
ZWuqQAdd/UBofIrBy8W/QN32vkBpK5bBTm2LQL2030AVkoTBBseeQOw2o0AXEZDBET4fQXqThj/f
5l3BKoQZQdvugMAwcIfB8/N1QKR/QsBPGI/BYzSVQJWkBkBC66PB4h4KQaLYg8BRAJHBiNqVQJaK
isAVi4/BjX7xQJiZQcDSf5DBdAG4QB2ai8BJo4bBYvKJQEZagUBhU5fBbdSqQAnyQUDAqpvB1WTN
QEuD5ECTvY/Bziu7QAxqDUALyJLB2tLUQFgVS8AkCYfBW/R3QFFkvkCR44vBVwD+QK+cR0B985HB
0aLGQEu1JcCfU2vBsyoBQRKDEUHOY43BFe8KQfHs5EBRrZnBs1ppQMM/lkBnAKDBO84OQZ1ssD4x
w7HBhaSuQOGhLcA83qfBwHHBQHskJ0G9Qp/BDtL1QFhLAUGhTJXBsqTCQDphE0GgjLrBqyvtQAGa
8kAWW63BzB7HQFHKjr4teIzB7JsQQWUrJEAYG3/B18IJQR3bp79D7mHB+pXmQL0+DUBJGqzBFpaD
QLg8Dr8UmKLB+x37QAx/AsBaA6/BLUWiQLLoM0ESsLDBHq+YQAijB0HtoJDB15S4QK/0CUHvuoTB
pAXcQC5Nq0BjA5jB6DixQNNOykD4qZ3BTgucQM6n0ECwknvB6DBgQBBt8kCHmIHBHBOvQCP6kkAD
aInBfmoXQWAHwT/t7k/Bd+YnQUVQFj6Z3ljBppUqQVhb4j/s72TBO6UlQXRRmsAfD4jB/HEhQeAD
Q8D5dIfBcXkQQQXhhMD353/B+hlGQD5YQ8B6jJXB90JVQKJ4PsBMUYfBVw+QQBWyCsCXGJDBZpmN
QKTvK0D3IqvBTftuQJIT2j/rc6DBYU4TQfgKgMB8cpjB1lUCQQ1qo8B+8ZDBEHyAQFk/psAQlY7B
6+mlQBNcjMBbXJfBaqEAQcK+AsBWFZDBJffdQJsxRcCVzpfBTM2nQCdFjMCop33B3m7LQHG2qMBV
lIfBQ7dkQI09X0Beh5LBvT3FQM2uZEDWiZ/BndqmQI9PyT9KSI/B1UlOQJPYq0Cy94fB335aQAt6
zECDDpLBuYpPQCVugUCzgKTBtSa2QHzhJkHq8KnBv2jHQPNCIEG3gp/BywHgQFBYNz5uqoXB5VUL
QUJk4j9q5n/BeGsGQUT2pL5VZmzBbjfZQAzmnD/hV6zBB1imQH34xL6t9qTBRXnoQC70lL8VP63B
cebAQD7wGEFRArLBZjH1QJEytT9QBofBUpTrQNX/LL+KZ3rBlWERQTqMZD+1Pm/BqxmyQOAPcz+D
JqfBMHD0QNChLT5PV6/BMW/BQEhJuL8LD6jBhvneQHDADUGIKKDBtBznQEIBFkBPgY/BaV7SQNaa
8L8MTXbBLv6qQP7S+0DkzYnBL+e+QMbQvkA/CpbBYCOLQHoB3kBIL4TBDhWeQHKeokCTFZDBKWUi
QZxlpj9dWV/BeFNqQFa8jsBcZI3BHU4XQSegecD0mpXBcLiUQNARBUDv56PBsOOXQKAKXMBAzYrB
X+IBQa8aWMDYdpHBHzW3QJzHgMBmfYLB0FICQT5BWMC1L4XBYZmJQHg1gUBWiJfBA9uqQIi9QkCF
AJzB5XjNQPb34kAESo/B5wq9QGKtEEC0HZPB0lDaQJ6iRMBVoYDBhNZ2QGSdvUBbwIvB/fv/QChm
S0BjHpPBPmSzQD3y47/QX2rBbPwAQfj0EEHI74zB4l8LQfT84kA215jBPpVoQHyFlkCUI6DBswUN
QYYh3z7mPbTBOPO1QPv6LcBcEqbBvzfgQLPlA0H8Oa3B2j/2QD5oAEGRwJTBmSSjQGgdNUF6IavB
bCbCQO74KEFbKpjBsOTGQHSX4r1UIYvB2YUTQdOQLUAu7IDBHsoKQSqoe78bc1/BKD/iQJPQD0C4
A67BzpGIQMGfGL+T6qDBFz79QHK4/L+Bnq/BnTS3QI3FGkFXQLrBS8WZQIGNB0HDxo/BRaG5QJKN
CEFl04PBd7raQHwbq0CUOZjBc/WvQI+dy0A0Vp3BXCibQE7/zUBW5XrBVvRfQMni8ED8LIHBq26u
QOXrkUDkgInB2/IaQTzJ7D+HDFLBgWgqQRSQzT7xHFnBbDguQZPx+D+iUGfB7eU9QPAugcB2UZPB
LgCEQFLVq8A7rJDBaQBHQHjKlsAdDYbBsi8XQZvSecCxZ57B/kkkQZMHUMA3u5LB4d0ZQS6VncCc
qJLBHEWLQEb4KEAAGavBNSBwQKcn1D9/EaDBXYCpQN3zS8CdJpLBYwCJQCneIcB/h4fBvZT+QGKD
FsDOYpTBg7zpQBXTgMA0UJTBBSGmQLiahsA93nXBrFvEQC0dn8CLgoXB/mMHQUzui8CCZILBbNkN
Qf3WJ8DMbYLBWi1kQN7RXUCL2JLBpTjEQII3ZkBOMaDB5J6pQNgazz/kX4/BTMBMQN7TqkCE+YfB
LshZQNiAzECV1JHBX0RPQJ/ogUAIvqTBqKvBQLnHGkGqY7DBKyvaQOQOC0GBHKrBy/DeQNaCJT6P
JoXBHuMKQbly3j87o37BuZYFQSautL6aNWvBpMTaQA0tkj8t1qvB1yumQNeS2b4lnaTBR3PoQEUK
ob8bd6zBmWmyQFpQK0HOOKrBtF70QN2Usj94cobB6iTqQMNbM7/XZnnBf7EQQaLmWz+c8G3BHw6z
QETPZT8W1KbBo3z1QHkfgz3rnK7BLsPAQBUmwL8ZfKfBybTcQM6QEEEKfJ/BzsXmQJ0QFUC6847B
43DQQDzs8r/edXXBdFarQB6N+0AuG4rBw4S/QLLLvkCVbZbBFZmLQMac3UAThITBseueQEyHokCq
Z5DB3o8hQW2xoT/a3V3BKGVgQGqyi8DMkIvBJaYXQWi9e8C6YpTBRBWWQMMPA0B33qPBSgeYQEil
X8DUoYrBbY4CQS8JVsDeZ5DBuje2QNHygcDQ8oHBiAMCQdMDW8B1JITB0qKKQM6ygEC8vJfBjPar
QIjHQEAa75vBROLNQK0X40CTsY/B2i69QEMKD0Az45LB8EDZQLMFR8B/xn/BKyx4QDNbvUAcIIzB
67P/QNpCS0DdWJLBfc6vQEhh4r8YxGrB41UCQbTHD0FS3YzBDE4KQVPD5EAeb5rB33ZrQDpxlUAP
fqDBp8gNQcPFmD7eYrPBCxS0QFEyMcB4haXB44HBQDZfKEH05JzBBQ72QL/ZAEGsK5XBmEi8QOl3
GUEC5rjBWH7oQAKt+UDvd63BMOTFQLbq9r2SqIrBDDwTQUhEK0B3RIDBXMIJQZbzgb+jNl7B06Lk
QMHrCUAlia3BzeiHQJp/HL9lt6DB4eT8QO13BcBwo67BIX6fQCpxOEHdQK3B2PmZQKd/B0H3BJDB
7QK6QHNUCEFQGITBLnDbQBo6q0C5nZjBIGywQK9qy0CFuZ3Bs6KbQMaMzUBrlHvBv7dgQLFa8EBB
f4HBInGvQCI6kkD1yYnBYwEaQatd6D8Ap1DBNXUpQb/+uT46iVfB4YEtQerc8z+ZtmXB9d01QJMX
fcCSwpHBUC9zQCZ2rMBXw43BXZ4+QNA3jMB/2IPBtTAYQZJ1eMADLJ3BcRQlQUEFV8AYB5HBy98Y
QRx0n8Bf0pHBN6ONQEGMJkCLK6vBK6txQFjx0j+MKaDB2dSoQKugXsAeXZLBX4yOQAAkHsBGcojB
/E0BQRLUEsAq85LBqzLqQAm3esBxvpPB/wykQEEph8CVDHXBzq7DQDqKoMBotYTBG3kGQTMRjsB+
poHBFpgNQd/uLMC83YDBQLRlQMy6XUBUBpPB5tfFQJtkY0AyCqDBznGpQKVjyz9USo/Bt+1NQL19
qkCYZojBV2pbQIdNzEC8N5LBO1xSQMKIgEC5B6XB

> <OMEGA_E>
QP0SPcD1HD0AGQE9aJW6Prh0xz4=

> <OMEGA_NBR>
     31373

$$$$
50162097
  -OEChem-04172616093D

 82 84  0     1  0  0  0  0  0999 V2000
    6.9659   -0.0496  -16.8272 C   0  0  0  0  0  0  0  0  0  0  0  0
    8.5491    1.5492  -15.8744 C   0  0  0  0  0  0  0  0  0  0  0  0
    8.3087   -0.6647  -14.8835 C   0  0  0  0  0  0  0  0  0  0  0  0
    6.8664    1.2210  -21.3998 C   0  0  0  0  0  0  0  0  0  0  0  0
    5.1087   -0.3384  -20.7289 C   0  0  0  0  0  0  0  0  0  0  0  0
    7.2234   -1.1819  -21.6035 C   0  0  0  0  0  0  0  0  0  0  0  0
    7.5632    1.2351  -16.8368 C   0  0  0  0  0  0  0  0  0  0  0  0
    7.3531   -1.0072  -15.8610 C   0  0  0  0  0  0  0  0  0  0  0  0
    8.8991    0.6125  -14.8821 C   0  0  0  0  0  0  0  0  0  0  0  0
    5.5736    0.9822  -20.8853 C   0  0  0  0  0  0  0  0  0  0  0  0
    7.6951    0.1389  -21.7449 C   0  0  0  0  0  0  0  0  0  0  0  0
    5.9276   -1.4179  -21.1009 C   0  0  0  0  0  0  0  0  0  0  0  0
    7.1453    2.2503  -17.8274 C   0  0  0  0  0  0  0  0  0  0  0  0
    6.7009   -2.3321  -15.7978 C   0  0  0  0  0  0  0  0  0  0  0  0
    5.2045    8.0317  -17.4551 C   0  0  0  0  0  0  0  0  0  0  0  0
    6.0268    6.0335  -18.8126 C   0  0  0  0  0  0  0  0  0  0  0  0
    4.4520    7.0097  -16.5883 C   0  0  0  0  0  0  0  0  0  0  0  0
    5.0236    5.1250  -18.0308 C   0  0  2  0  0  0  0  0  0  0  0  0
    9.9531    0.9548  -13.8529 C   0  0  0  0  0  0  0  0  0  0  0  0
    3.8348   -3.0337  -17.8597 C   0  0  0  0  0  0  0  0  0  0  0  0
    9.6121   -4.0714  -16.9709 C   0  0  0  0  0  0  0  0  0  0  0  0
    8.2459    8.5681  -18.9743 C   0  0  0  0  0  0  0  0  0  0  0  0
    4.6826    2.1372  -20.4992 C   0  0  0  0  0  0  0  0  0  0  0  0
    4.6680   -4.3243  -17.9711 C   0  0  0  0  0  0  0  0  0  0  0  0
    8.6383   -4.1502  -18.1571 C   0  0  0  0  0  0  0  0  0  0  0  0
    5.7484   -4.4021  -16.8731 C   0  0  0  0  0  0  0  0  0  0  0  0
    7.5565   -3.0524  -18.0747 C   0  0  0  0  0  0  0  0  0  0  0  0
    4.3507    4.0711  -18.9204 C   0  0  2  0  0  0  0  0  0  0  0  0
    5.3668    3.0421  -19.4553 C   0  0  1  0  0  0  0  0  0  0  0  0
    5.6541    7.4797  -18.7715 N   0  0  2  0  0  0  0  0  0  0  0  0
    5.8559    2.1987  -18.3468 N   0  0  0  0  0  0  0  0  0  0  0  0
    6.6568   -3.2185  -16.8975 N   0  0  0  0  0  0  0  0  0  0  0  0
    3.9393    5.9138  -17.4127 N   0  3  0  0  0  0  0  0  0  0  0  0
    7.9187    3.1440  -18.1572 O   0  0  0  0  0  0  0  0  0  0  0  0
    6.1770   -2.6412  -14.7326 O   0  0  0  0  0  0  0  0  0  0  0  0
    6.0540    9.9000  -19.6090 O   0  0  0  0  0  0  0  0  0  0  0  0
    6.7671    7.9464  -21.0743 O   0  0  0  0  0  0  0  0  0  0  0  0
    3.6800    4.7354  -19.9937 O   0  0  0  0  0  0  0  0  0  0  0  0
    8.9412    0.3700  -22.2156 F   0  0  0  0  0  0  0  0  0  0  0  0
    5.4643   -2.6810  -20.9818 F   0  0  0  0  0  0  0  0  0  0  0  0
    6.6103    8.5451  -19.7405 S   0  0  0  0  0  0  0  0  0  0  0  0
    6.2126   -0.2984  -17.5600 H   0  0  0  0  0  0  0  0  0  0  0  0
    9.0368    2.5124  -15.8996 H   0  0  0  0  0  0  0  0  0  0  0  0
    8.5896   -1.3868  -14.1311 H   0  0  0  0  0  0  0  0  0  0  0  0
    7.2185    2.2339  -21.5282 H   0  0  0  0  0  0  0  0  0  0  0  0
    4.1243   -0.5208  -20.3237 H   0  0  0  0  0  0  0  0  0  0  0  0
    7.8548   -2.0132  -21.8802 H   0  0  0  0  0  0  0  0  0  0  0  0
    4.5377    8.8857  -17.6448 H   0  0  0  0  0  0  0  0  0  0  0  0
    6.0902    8.3743  -16.9001 H   0  0  0  0  0  0  0  0  0  0  0  0
    7.0264    5.9157  -18.3688 H   0  0  0  0  0  0  0  0  0  0  0  0
    6.0512    5.7069  -19.8628 H   0  0  0  0  0  0  0  0  0  0  0  0
    5.1385    6.6023  -15.8315 H   0  0  0  0  0  0  0  0  0  0  0  0
    3.6099    7.5103  -16.0879 H   0  0  0  0  0  0  0  0  0  0  0  0
    5.5834    4.6034  -17.2405 H   0  0  0  0  0  0  0  0  0  0  0  0
    9.4726    1.4012  -12.9697 H   0  0  0  0  0  0  0  0  0  0  0  0
   10.4868    0.0398  -13.5565 H   0  0  0  0  0  0  0  0  0  0  0  0
   10.6668    1.6724  -14.2837 H   0  0  0  0  0  0  0  0  0  0  0  0
    3.0776   -3.0154  -18.6575 H   0  0  0  0  0  0  0  0  0  0  0  0
    3.3357   -3.0030  -16.8799 H   0  0  0  0  0  0  0  0  0  0  0  0
    4.4960   -2.1605  -17.9619 H   0  0  0  0  0  0  0  0  0  0  0  0
   10.3671   -4.8662  -17.0622 H   0  0  0  0  0  0  0  0  0  0  0  0
   10.1105   -3.0907  -16.9703 H   0  0  0  0  0  0  0  0  0  0  0  0
    9.0558   -4.2005  -16.0308 H   0  0  0  0  0  0  0  0  0  0  0  0
    8.9100    9.2329  -19.5462 H   0  0  0  0  0  0  0  0  0  0  0  0
    8.1614    8.9351  -17.9408 H   0  0  0  0  0  0  0  0  0  0  0  0
    8.6626    7.5501  -18.9690 H   0  0  0  0  0  0  0  0  0  0  0  0
    4.4561    2.7317  -21.3965 H   0  0  0  0  0  0  0  0  0  0  0  0
    3.7473    1.7430  -20.0749 H   0  0  0  0  0  0  0  0  0  0  0  0
    3.9976   -5.1909  -17.8738 H   0  0  0  0  0  0  0  0  0  0  0  0
    5.1579   -4.3484  -18.9557 H   0  0  0  0  0  0  0  0  0  0  0  0
    9.2035   -4.0255  -19.0925 H   0  0  0  0  0  0  0  0  0  0  0  0
    8.1489   -5.1353  -18.1530 H   0  0  0  0  0  0  0  0  0  0  0  0
    5.2543   -4.4504  -15.8915 H   0  0  0  0  0  0  0  0  0  0  0  0
    6.3467   -5.3122  -17.0275 H   0  0  0  0  0  0  0  0  0  0  0  0
    8.0533   -2.0736  -18.0025 H   0  0  0  0  0  0  0  0  0  0  0  0
    6.9482   -3.0883  -18.9904 H   0  0  0  0  0  0  0  0  0  0  0  0
    3.6133    3.5311  -18.3084 H   0  0  0  0  0  0  0  0  0  0  0  0
    6.2066    3.5723  -19.9282 H   0  0  0  0  0  0  0  0  0  0  0  0
    5.2163    1.5455  -17.9414 H   0  0  0  0  0  0  0  0  0  0  0  0
    3.3887    5.3088  -16.8376 H   0  0  0  0  0  0  0  0  0  0  0  0
    3.3667    6.2970  -18.1374 H   0  0  0  0  0  0  0  0  0  0  0  0
    3.2593    4.0917  -20.5515 H   0  0  0  0  0  0  0  0  0  0  0  0
  1  7  1  0  0  0  0
  1  8  2  0  0  0  0
  2  7  2  0  0  0  0
  2  9  1  0  0  0  0
  3  8  1  0  0  0  0
  3  9  2  0  0  0  0
  4 10  1  0  0  0  0
  4 11  2  0  0  0  0
  5 10  2  0  0  0  0
  5 12  1  0  0  0  0
  6 11  1  0  0  0  0
  6 12  2  0  0  0  0
  7 13  1  0  0  0  0
  8 14  1  0  0  0  0
  9 19  1  0  0  0  0
 10 23  1  0  0  0  0
 11 39  1  0  0  0  0
 12 40  1  0  0  0  0
 13 31  1  0  0  0  0
 13 34  2  0  0  0  0
 14 32  1  0  0  0  0
 14 35  2  0  0  0  0
 15 17  1  0  0  0  0
 15 30  1  0  0  0  0
 16 18  1  0  0  0  0
 16 30  1  0  0  0  0
 17 33  1  0  0  0  0
 18 28  1  0  0  0  0
 18 33  1  0  0  0  0
 20 24  1  0  0  0  0
 21 25  1  0  0  0  0
 22 41  1  0  0  0  0
 23 29  1  0  0  0  0
 24 26  1  0  0  0  0
 25 27  1  0  0  0  0
 26 32  1  0  0  0  0
 27 32  1  0  0  0  0
 28 29  1  0  0  0  0
 28 38  1  0  0  0  0
 29 31  1  0  0  0  0
 30 41  1  0  0  0  0
 36 41  2  0  0  0  0
 37 41  2  0  0  0  0
  1 42  1  0  0  0  0
  2 43  1  0  0  0  0
  3 44  1  0  0  0  0
  4 45  1  0  0  0  0
  5 46  1  0  0  0  0
  6 47  1  0  0  0  0
 15 48  1  0  0  0  0
 15 49  1  0  0  0  0
 16 50  1  0  0  0  0
 16 51  1  0  0  0  0
 17 52  1  0  0  0  0
 17 53  1  0  0  0  0
 18 54  1  0  0  0  0
 19 55  1  0  0  0  0
 19 56  1  0  0  0  0
 19 57  1  0  0  0  0
 20 58  1  0  0  0  0
 20 59  1  0  0  0  0
 20 60  1  0  0  0  0
 21 61  1  0  0  0  0
 21 62  1  0  0  0  0
 21 63  1  0  0  0  0
 22 64  1  0  0  0  0
 22 65  1  0  0  0  0
 22 66  1  0  0  0  0
 23 67  1  0  0  0  0
 23 68  1  0  0  0  0
 24 69  1  0  0  0  0
 24 70  1  0  0  0  0
 25 71  1  0  0  0  0
 25 72  1  0  0  0  0
 26 73  1  0  0  0  0
 26 74  1  0  0  0  0
 27 75  1  0  0  0  0
 27 76  1  0  0  0  0
 28 77  1  0  0  0  0
 29 78  1  0  0  0  0
 31 79  1  0  0  0  0
 33 80  1  0  0  0  0
 33 81  1  0  0  0  0
 38 82  1  0  0  0  0
M  CHG  1  33   1
M  END
> <OMEGA_C>
/ejeQJwBS701nobB88gIQbNKxj9d/X3BgfAEQcIrKr/3Im7B37nbQJ5InD/QMqvBMXqjQApDrb7S
1KXBDCbnQB1Hl7/j06zBFQbyQGQYnj/RsYbBbEzrQEztgL/Gxn3BrmIOQbDPHD8tHW7Bj1qyQI50
ez8KFafBhz72QC5CDj599a3BvK69QNd8tb+hzqjBLabkQHYFEECPno7BBW7WQNpAFcC8w3zBAIum
QNuBAEEQpIvBwNvAQB4SwUBDgJbBc3aOQDhP4EDKtITBPMGgQPf/o0ALP5DBtD8fQfZvdD9KpV3B
q2x1QLYnQsCw4I7BOcsZQcZIgsBqxIfBU+8DQeUWCUFpy5fBfteVQGrHCEBM/qPB+1+VQG5gisDo
xI/BeDYKQXnOhMDGQZHByPK3QEjejMAi/IbBP8/xQFBaQ8DlmJDBDjmLQGJGgkDyXJfBkryrQN+x
QkBppJvBpe60QOtZ70D6K5bBI2O7QJi3DEAzxpLBMQTVQKH8TcAKLofBpR18QCI+vUAvTYvBomX9
QPg3SUDzQZHBBqrFQLIJKcDhuGvBZLrBQD1mHkFA35zByovYQDBJ/kAfmKjBCYVrQCeIl0AD85/B
Mw8PQTF1vT6LubHBOtuuQPuUK8C82qfBmofTQLW4CEGI7J3B1c3GQC/JmL76eozBkpYQQb3LIEDg
ZH7B724JQcyCsb8WGWLBQP7mQGz3DkDQOazBWvqDQFJVBb8Il6LBt1r7QB3YAMCkCq/BjTSRQPkr
DkGnKI3BAOPCQC39BUFSM4fBJdjgQG5NvUA885LBF6PBQPeetkDs5p7BXG6kQMxF00DITX3B1whn
QP9T8EAEtIDBl6uyQChPk0CX7InBoY8XQY1Zsz//g0/BAMonQT0DIz2O51jBIqsqQagR1j88imTB
nPdEQEH8QMB4QpXB03tVQNkxQMAVCofBA9+PQFBGCsDisY/Bp98lQYe3m8Bjf4jBcsQhQcXORcA7
w4fBm+QQQb9qhsAGP4DBQY8OQQq6E0GeXpzBMpUCQQn2DkG9ho/B0JkKQQqa8UCTwJfBwpiOQDTU
LkAcLKvBZdRvQHcb3z9cmaDBmdh/QDkcpsCF/Y7BZg2lQHQmi8BTpZfBqEETQS/RgMB5vZjB0WEC
QYtUpMBEOZHB4iKoQHRpjsCxQ37BGxjLQFv9qcBrOIjBOdoAQY61BMA1BZDBx1feQCamRcBn7JfB
uz9nQLv8YUCbd5LBFJzGQG2gZED7bJ/BP+ymQOHRxT8OiI/BfOBYQI/hqUBfs4bBY3dXQPeAyUB5
GZHBmJhQQPfugkB0aaTBCTPfQHtqJ71MnobBt8gIQWlwyD8T9n3BngoFQSPJJb8YEm7ByZ7bQHed
mz9KK6vB30+jQGb9rr6yzaXBvvfmQGH6l78my6zBmTDyQOltnz9Gs4bBH53rQND7fr8pv33BuGMO
QesGIj+yCm7BlD+yQLh+ej+fDKfB9xv2QFQbCD4V7K3BnHi9QIoKtr8oyqjB48vkQFpwEEBBpI7B
UcLWQNKbFMCYsnzBPHmlQOeeAEGfyovB9PzAQCYnwUDeY5bBgpKNQH+a4ECdzoTBN9mgQNfvo0Dc
LpDBgBsfQX76ez/IeF3BHTgZQbmAgsCKwofB0291QASCQsDmAY/BiMkDQf8QCUELtpfBx82VQJum
CECH9aPBXtYJQTt+hMCOV5HB11GVQOaqisDjsY/BACrxQNuQQsCtqJDBrMm3QCh9jMCw4IbBmm2L
QCJKgkDYWJfBNdirQIWzQkASpZvBiI+0QBZP70C1OZbBq427QMLYDEA3yZLB3afUQBXsTMAeL4fB
XqV7QJbpvEAmSYvBQID9QCGjSUByTpHBWHnGQIi1KMD0j2vBOZbBQP1hHkH96JzBZ6/YQLM6/kDj
lqjBojtsQIKzl0D07Z/B//oOQYDJuT7htLHBFpWuQNXZK8DX3qfBpmPTQLmyCEHh7Z3BuCnHQK38
lb5jfYzBHIUQQT0BIkARXn7ByZAJQXoOr78XA2LB6+jmQKqbDkBsNKzBws+DQP/tBb8cj6LBWyr7
QOo7AcBA/67BFNGPQKIXDkGOc43BUnnBQH1qBkGJUIfBQszgQBrivUA0tpLBZ2LCQN5htkDBwp7B
In+jQEQ31EATUX3BjJFkQFeB8ED164DBiKmyQGs3k0AS2YnBdEcXQRv7tj8HaU/Bb7UnQa49lj2+
o1jB838qQRlM2j/HUGTBaUclQSP4m8DVf4jBRDwhQX5XRsDinofBhiYQQTjvhsDFTIDBWBRFQMQy
QsAcZ5XBM2FVQM9UP8DKLofB9+6PQA3VCsCD8Y/BdHkOQRizE0GEQJzBP1MCQXDxDkHNco/BSnMK
QdGN8UDfpJfBAXmOQC+RLkDFJKvBddRvQHwV3z/Qh6DB2goTQaMzgMDuw5jBG/UBQRz3o8DRcZHB
/qZ/QJdPpsDky47B3BGlQLYPjMCejpfBq5AAQcv2A8DMIpDBoHzdQNz7RMAB85fBDuOnQF+ujcCU
EH7B9BrLQGmSqcBG/4fBvHNnQJ76YUCcfJLB9azGQIiJZEDQdZ/BiSinQLXTxT+Wio/BQyVZQDh9
qUA/nYbB731WQFKQyECyHJHBYGxRQPYvg0BWbaTB

> <OMEGA_E>
8NXZPkBb2j4=

> <OMEGA_NBR>
     34264

$$$$
50162077
  -OEChem-04172616093D

 89 92  0     1  0  0  0  0  0999 V2000
    6.9887    0.0328  -16.8794 C   0  0  0  0  0  0  0  0  0  0  0  0
    8.5527    1.6616  -15.9457 C   0  0  0  0  0  0  0  0  0  0  0  0
    8.3688   -0.5586  -14.9571 C   0  0  0  0  0  0  0  0  0  0  0  0
    6.7926    1.2677  -21.4293 C   0  0  0  0  0  0  0  0  0  0  0  0
    5.0666   -0.3241  -20.7524 C   0  0  0  0  0  0  0  0  0  0  0  0
    7.1906   -1.1288  -21.6401 C   0  0  0  0  0  0  0  0  0  0  0  0
    6.3912    9.7544  -20.2435 C   0  0  0  0  0  0  0  0  0  0  0  0
    6.5677    8.7155  -22.2722 C   0  0  0  0  0  0  0  0  0  0  0  0
    7.5606    1.3267  -16.8931 C   0  0  0  0  0  0  0  0  0  0  0  0
    7.4072   -0.9183  -15.9239 C   0  0  0  0  0  0  0  0  0  0  0  0
    8.9364    0.7304  -14.9620 C   0  0  0  0  0  0  0  0  0  0  0  0
    5.5090    1.0049  -20.9015 C   0  0  0  0  0  0  0  0  0  0  0  0
    7.6369    0.2003  -21.7855 C   0  0  0  0  0  0  0  0  0  0  0  0
    5.9011   -1.3882  -21.1333 C   0  0  0  0  0  0  0  0  0  0  0  0
    7.1422    8.6145  -20.1304 C   0  0  0  0  0  0  0  0  0  0  0  0
    7.1103    2.3247  -17.8781 C   0  0  0  0  0  0  0  0  0  0  0  0
    6.7769   -2.2532  -15.8612 C   0  0  0  0  0  0  0  0  0  0  0  0
    5.3320    7.9271  -17.3047 C   0  0  0  0  0  0  0  0  0  0  0  0
    5.9415    5.9619  -18.7454 C   0  0  0  0  0  0  0  0  0  0  0  0
    4.3121    7.0398  -16.5780 C   0  0  0  0  0  0  0  0  0  0  0  0
    4.8951    5.1148  -17.9898 C   0  0  2  0  0  0  0  0  0  0  0  0
   10.0048    1.0915  -13.9543 C   0  0  0  0  0  0  0  0  0  0  0  0
    3.8726   -3.0066  -17.8113 C   0  0  0  0  0  0  0  0  0  0  0  0
    9.6712   -3.9070  -17.0167 C   0  0  0  0  0  0  0  0  0  0  0  0
    5.1656   10.7960  -22.1440 C   0  0  0  0  0  0  0  0  0  0  0  0
    4.5980    2.1404  -20.4995 C   0  0  0  0  0  0  0  0  0  0  0  0
    4.7266   -4.2780  -17.9741 C   0  0  0  0  0  0  0  0  0  0  0  0
    8.7331   -3.9999  -18.2312 C   0  0  0  0  0  0  0  0  0  0  0  0
    5.8572   -4.3445  -16.9273 C   0  0  0  0  0  0  0  0  0  0  0  0
    7.6051   -2.9493  -18.1582 C   0  0  0  0  0  0  0  0  0  0  0  0
    4.2440    4.0625  -18.9040 C   0  0  2  0  0  0  0  0  0  0  0  0
    5.2755    3.0634  -19.4669 C   0  0  1  0  0  0  0  0  0  0  0  0
    7.2298    7.9947  -21.3935 N   0  0  0  0  0  0  0  0  0  0  0  0
    6.0709    9.7862  -21.5667 N   0  0  0  0  0  0  0  0  0  0  0  0
    6.4087    7.0956  -17.9182 N   0  0  1  0  0  0  0  0  0  0  0  0
    5.8125    2.2404  -18.3703 N   0  0  0  0  0  0  0  0  0  0  0  0
    6.7287   -3.1344  -16.9669 N   0  0  0  0  0  0  0  0  0  0  0  0
    3.8184    5.9905  -17.4830 N   0  3  0  0  0  0  0  0  0  0  0  0
    7.8715    3.2163  -18.2380 O   0  0  0  0  0  0  0  0  0  0  0  0
    6.2648   -2.5714  -14.7933 O   0  0  0  0  0  0  0  0  0  0  0  0
    8.0318    9.0926  -17.7008 O   0  0  0  0  0  0  0  0  0  0  0  0
    8.7923    6.9728  -18.9043 O   0  0  0  0  0  0  0  0  0  0  0  0
    3.5714    4.7239  -19.9783 O   0  0  0  0  0  0  0  0  0  0  0  0
    8.8707    0.4526  -22.2775 F   0  0  0  0  0  0  0  0  0  0  0  0
    5.4572   -2.6590  -21.0230 F   0  0  0  0  0  0  0  0  0  0  0  0
    7.7446    7.9515  -18.5806 S   0  0  0  0  0  0  0  0  0  0  0  0
    6.2298   -0.2282  -17.6021 H   0  0  0  0  0  0  0  0  0  0  0  0
    9.0188    2.6354  -15.9758 H   0  0  0  0  0  0  0  0  0  0  0  0
    8.6717   -1.2757  -14.2084 H   0  0  0  0  0  0  0  0  0  0  0  0
    7.1254    2.2869  -21.5592 H   0  0  0  0  0  0  0  0  0  0  0  0
    4.0865   -0.5250  -20.3456 H   0  0  0  0  0  0  0  0  0  0  0  0
    7.8368   -1.9486  -21.9170 H   0  0  0  0  0  0  0  0  0  0  0  0
    6.1189   10.4577  -19.4704 H   0  0  0  0  0  0  0  0  0  0  0  0
    6.4410    8.5100  -23.3248 H   0  0  0  0  0  0  0  0  0  0  0  0
    4.8191    8.4948  -18.0950 H   0  0  0  0  0  0  0  0  0  0  0  0
    5.7815    8.6261  -16.5840 H   0  0  0  0  0  0  0  0  0  0  0  0
    6.8017    5.3257  -19.0010 H   0  0  0  0  0  0  0  0  0  0  0  0
    5.4881    6.3535  -19.6679 H   0  0  0  0  0  0  0  0  0  0  0  0
    4.7931    6.5717  -15.7065 H   0  0  0  0  0  0  0  0  0  0  0  0
    3.4664    7.6579  -16.2422 H   0  0  0  0  0  0  0  0  0  0  0  0
    5.3879    4.6041  -17.1494 H   0  0  0  0  0  0  0  0  0  0  0  0
    9.5344    1.5285  -13.0611 H   0  0  0  0  0  0  0  0  0  0  0  0
   10.5613    0.1864  -13.6698 H   0  0  0  0  0  0  0  0  0  0  0  0
   10.6962    1.8224  -14.3991 H   0  0  0  0  0  0  0  0  0  0  0  0
    3.0799   -2.9966  -18.5738 H   0  0  0  0  0  0  0  0  0  0  0  0
    3.4180   -2.9962  -16.8097 H   0  0  0  0  0  0  0  0  0  0  0  0
    4.5102   -2.1186  -17.9338 H   0  0  0  0  0  0  0  0  0  0  0  0
   10.4602   -4.6685  -17.1030 H   0  0  0  0  0  0  0  0  0  0  0  0
   10.1288   -2.9073  -16.9827 H   0  0  0  0  0  0  0  0  0  0  0  0
    9.0956   -4.0783  -16.0951 H   0  0  0  0  0  0  0  0  0  0  0  0
    5.0598   10.6193  -23.2246 H   0  0  0  0  0  0  0  0  0  0  0  0
    4.1794   10.7224  -21.6623 H   0  0  0  0  0  0  0  0  0  0  0  0
    5.5817   11.8003  -21.9758 H   0  0  0  0  0  0  0  0  0  0  0  0
    4.3431    2.7289  -21.3932 H   0  0  0  0  0  0  0  0  0  0  0  0
    3.6794    1.7245  -20.0601 H   0  0  0  0  0  0  0  0  0  0  0  0
    4.0794   -5.1596  -17.8559 H   0  0  0  0  0  0  0  0  0  0  0  0
    5.1716   -4.2820  -18.9800 H   0  0  0  0  0  0  0  0  0  0  0  0
    9.3179   -3.8329  -19.1478 H   0  0  0  0  0  0  0  0  0  0  0  0
    8.2848   -5.0040  -18.2602 H   0  0  0  0  0  0  0  0  0  0  0  0
    5.4095   -4.4268  -15.9260 H   0  0  0  0  0  0  0  0  0  0  0  0
    6.4742   -5.2329  -17.1273 H   0  0  0  0  0  0  0  0  0  0  0  0
    8.0581   -1.9481  -18.1107 H   0  0  0  0  0  0  0  0  0  0  0  0
    6.9885   -3.0302  -19.0656 H   0  0  0  0  0  0  0  0  0  0  0  0
    3.5137    3.4970  -18.3067 H   0  0  0  0  0  0  0  0  0  0  0  0
    6.0883    3.6197  -19.9567 H   0  0  0  0  0  0  0  0  0  0  0  0
    5.1993    1.5722  -17.9489 H   0  0  0  0  0  0  0  0  0  0  0  0
    3.1560    5.4281  -16.9880 H   0  0  0  0  0  0  0  0  0  0  0  0
    3.3687    6.4270  -18.2623 H   0  0  0  0  0  0  0  0  0  0  0  0
    3.1678    4.0775  -20.5456 H   0  0  0  0  0  0  0  0  0  0  0  0
  1  9  1  0  0  0  0
  1 10  2  0  0  0  0
  2  9  2  0  0  0  0
  2 11  1  0  0  0  0
  3 10  1  0  0  0  0
  3 11  2  0  0  0  0
  4 12  1  0  0  0  0
  4 13  2  0  0  0  0
  5 12  2  0  0  0  0
  5 14  1  0  0  0  0
  6 13  1  0  0  0  0
  6 14  2  0  0  0  0
  7 15  2  0  0  0  0
  7 34  1  0  0  0  0
  8 33  2  0  0  0  0
  8 34  1  0  0  0  0
  9 16  1  0  0  0  0
 10 17  1  0  0  0  0
 11 22  1  0  0  0  0
 12 26  1  0  0  0  0
 13 44  1  0  0  0  0
 14 45  1  0  0  0  0
 15 33  1  0  0  0  0
 15 46  1  0  0  0  0
 16 36  1  0  0  0  0
 16 39  2  0  0  0  0
 17 37  1  0  0  0  0
 17 40  2  0  0  0  0
 18 20  1  0  0  0  0
 18 35  1  0  0  0  0
 19 21  1  0  0  0  0
 19 35  1  0  0  0  0
 20 38  1  0  0  0  0
 21 31  1  0  0  0  0
 21 38  1  0  0  0  0
 23 27  1  0  0  0  0
 24 28  1  0  0  0  0
 25 34  1  0  0  0  0
 26 32  1  0  0  0  0
 27 29  1  0  0  0  0
 28 30  1  0  0  0  0
 29 37  1  0  0  0  0
 30 37  1  0  0  0  0
 31 32  1  0  0  0  0
 31 43  1  0  0  0  0
 32 36  1  0  0  0  0
 35 46  1  0  0  0  0
 41 46  2  0  0  0  0
 42 46  2  0  0  0  0
  1 47  1  0  0  0  0
  2 48  1  0  0  0  0
  3 49  1  0  0  0  0
  4 50  1  0  0  0  0
  5 51  1  0  0  0  0
  6 52  1  0  0  0  0
  7 53  1  0  0  0  0
  8 54  1  0  0  0  0
 18 55  1  0  0  0  0
 18 56  1  0  0  0  0
 19 57  1  0  0  0  0
 19 58  1  0  0  0  0
 20 59  1  0  0  0  0
 20 60  1  0  0  0  0
 21 61  1  0  0  0  0
 22 62  1  0  0  0  0
 22 63  1  0  0  0  0
 22 64  1  0  0  0  0
 23 65  1  0  0  0  0
 23 66  1  0  0  0  0
 23 67  1  0  0  0  0
 24 68  1  0  0  0  0
 24 69  1  0  0  0  0
 24 70  1  0  0  0  0
 25 71  1  0  0  0  0
 25 72  1  0  0  0  0
 25 73  1  0  0  0  0
 26 74  1  0  0  0  0
 26 75  1  0  0  0  0
 27 76  1  0  0  0  0
 27 77  1  0  0  0  0
 28 78  1  0  0  0  0
 28 79  1  0  0  0  0
 29 80  1  0  0  0  0
 29 81  1  0  0  0  0
 30 82  1  0  0  0  0
 30 83  1  0  0  0  0
 31 84  1  0  0  0  0
 32 85  1  0  0  0  0
 36 86  1  0  0  0  0
 38 87  1  0  0  0  0
 38 88  1  0  0  0  0
 43 89  1  0  0  0  0
M  CHG  1  38   1
M  END
> <OMEGA_C>
yKPfQMkoBj0JCYfB+dcIQVuv1D+BIX/Bh+YFQZH+Dr8VUG/B31zZQOZEoj8vb6vBUyGiQGLxpb78
BKbBdRnmQP97kL/fHq3BiITMQBESHEG28qHBcCrSQMNyC0FgLbLBQPDxQGjSqT8eJYfBqwftQCsX
a782yH7Bc/sOQbD4Oj9uZG/BZUmwQPOhgD9GNqfBb2H0QJQhTT6fSK7BL9a8QF+vsb8IEanB14zk
QBPVCUEZC6HBq4fjQOzHFEBbBo/BP9zYQOozEMCEx33BDqCqQN+q/UAQcIrBJSG+QB3IvkCO9pXB
4fyJQARG4UDXn4TBaaScQFeso0Ac64/BxBMgQdy3iz+5RF/BPtl3QDZsQMB2fY7BDL0aQesLesA4
IojBjEylQG+8LEHzJrHBJSOTQAj9CEAD/6PBR0CXQJ7liMDlyo/B6LoLQQP/f8CP2ZHBdG67QOgF
i8Ata4fBr1zzQBzCPMACRJHB8c6HQEsAgkBoO5fBldCoQNYOREBEvJvBa1rnQDrU/0DvJavBAEXC
QBmUHEGBiKzBsBPNQMMO40CLWI/BAwC6QJliD0Bu9pLB3FHXQDeZSMAyvIfBQGB0QHOyv0Af3YvB
R+P7QAnYTUBt55HB9HjIQOqRJMBqsWzBR4IAQVJ7EUE0m43BRq0MQfkg30ABPJfBjpJkQFIql0Cg
05/BfO4NQdW25z48OLLBP6GuQAYtKsApL6jBKdT3QIFy/kAEpZTBq1rHQJylab400YzB7UwQQW6q
KEDOnH/BRb8KQSlJo7/KVWPBowPkQKJcEkBQeazBgMSCQKpkBr/Xw6LBNMf6QPRr+b8TVq/BUM7D
QNpSJ0F5w5vBvxzOQBApCEFBmbrB6jWaQNrqB0GUwpDBCgK5QFIECkH/q4TBUafZQN9rqkAcApjB
jp6vQP9Py0DiV53BxmCZQBtL0kDuTXvBStpdQFYN9UD074HBwmmsQBlVk0DhMYnBEI0YQYqmwz81
+lDBQvsoQX/YPj5dt1rBoyMrQcdD6T/MYmbBjhxFQIvIP8AVl5TBScBaQMfBP8AzeobBy1OQQOqX
B8BUeI/B9FwnQZ9klcD80ojBeA8iQaIQOsCM3IfBlIcRQaaBgsC/woDByemhQMToKUHry7nB9L2F
QMiOK0FZTK3BsJ2yQN7NPEGDzq/B0vqKQBqmLkBdJavBjntrQCu83D8Ge6DBE4qCQEAbpcD62I7B
un2lQFEGicAa15fBTxYVQddOdcCyLpnBa44EQcAgoMDlFJLBVRqtQF2ojcDG0H7BAC3PQAN0p8Ci
BInB9e0AQR5b+b/Q4pDB0aHfQLfuQcBMhpjB2d9gQADPX0AhdJLBctPCQIaoZ0BGp5/BymCmQDI/
yT9ol4/BoPxJQNOyrUB954fBh5hXQLOpzUAgGZLBPb1KQCV7gkBUXaTBeSXgQADOTTum24bBI3sJ
QXWj0j+u2n/BjkMGQYQzCb/Awm7BkTnZQCCpkD/fdKvBn4KhQOc72L6IoaXBTMbkQDhEo7/QyqzB
SkzdQEibCUFVmanBsUC4QHKxKEHB5KbBNfbyQCwEpT/8X4fBn1/tQDAaa7+I5X3BI4YPQRcrPz+H
mm/BKzSwQKa8ZT9AGqfBOp3zQAghMz1OM67BxqC7QG7UwL97j6jBf+XfQM+4D0HGF5/B+8fkQI/L
EEDvf4/B5rTYQJSND8CDA3zBrtuqQALL+0B8Z4rBMjK/QFWCvkDPiZbBynaKQD523kBU5ITBOtOd
QIKyokCymZDBsp0gQTWPkT9npl/Ba5R2QLxeQsB0CI7BcUQaQcrQgMC1QIfBUm+2QDSmGEGBSbnB
4aCTQK6fA0D1HKTBuX6WQGAzisCUqo7Bb4wKQXU4hMBorJDBYHS5QPkBi8C49IXBDoLyQCz/QcDd
LpDBAw2JQIXegEA13ZfBe86pQMZcQEA2HZzBQNXIQFjgIkESrp3BJBfFQLpaGUElF67BB5vNQOl9
4kB0oo/Bzcq6QMxGDUBBJ5PBRFDWQOUSSsB2nIbBezN2QKUfvkBtfYzBzqP9QDeqR0CkwpLB3avI
QDxVIcBlqWrB2HECQRoTD0G2N4zB4BELQSnq4kAMnpnB3RdoQCWtlUCNlqDBA4gNQYxYiT6SQrLB
TQytQFg+McCUXafBc0X3QDIkAEGuoJTBeJ3HQE6hjL4JhozBHB4RQVcsJ0BDd4DBOx4LQfCInb9D
dGLBb1PkQKQNCUC4razBJDaCQDy2Gb9qQaLB8vD4QBAHB8Dv9K7BCRTrQDpk90DmZK3B76+kQOOU
NkGveajBEkKaQEB1B0FEhJDBdR65QGufCEE0aITBsPLaQOOVqkCRqJjB066wQLmAy0Aw3p3B7d2Z
QHR2zkAFIXzBTHxeQOKd8UBwB4LBmcCtQAdmkkC85InBeRkZQS//zT+spFHBLGkpQRH/dD7yjFrB
X8YrQYlk7D+iJ2fBNZFFQK2FQ8AzWZTBgUlXQPjTPsCgKYbBYwOQQAsmCsAgIo/B+VEmQfdYmsBz
3ofB20IiQWPvQsCsd4fB03cRQXAvhMBCW3/BA4OjQJAPJ0HjDrvB11PSQGECGEFCpb7BmYaiQIZY
CkEXhbrBxICLQLSsJ0DHZKvBWlhsQKst1T8rc6DBfHyBQD8fpsCGmo3BH9ulQEjIi8AGk5bBJn8T
QQH/gMBQNZjBHrQCQb+2o8BFa5DBefipQNlVi8BiG3zBRLnMQK4zqMA48IbBUzYBQVw8A8C174/B
D5beQGJKRsANa5fBz39iQOawXkC3FZPB6+/DQOB0YkBKMKDBibOmQDePyj8TcY/B3BZLQDmhq0Dz
zYjBw4FaQIAIzUAPqpLBa19OQBrSgEA5FqXB

> <OMEGA_E>
UExUPhANQz4=

> <OMEGA_NBR>
     37354

$$$$
50162101
  -OEChem-04172616093D

 88 90  0     1  0  0  0  0  0999 V2000
    6.9509   -0.0557  -16.8174 C   0  0  0  0  0  0  0  0  0  0  0  0
    8.5393    1.5321  -15.8567 C   0  0  0  0  0  0  0  0  0  0  0  0
    8.2622   -0.6754  -14.8560 C   0  0  0  0  0  0  0  0  0  0  0  0
    6.8619    1.1886  -21.3155 C   0  0  0  0  0  0  0  0  0  0  0  0
    5.0898   -0.3778  -20.7018 C   0  0  0  0  0  0  0  0  0  0  0  0
    7.2099   -1.2097  -21.5768 C   0  0  0  0  0  0  0  0  0  0  0  0
    7.5619    1.2213  -16.8260 C   0  0  0  0  0  0  0  0  0  0  0  0
    7.3176   -1.0152  -15.8472 C   0  0  0  0  0  0  0  0  0  0  0  0
    8.8653    0.5987  -14.8538 C   0  0  0  0  0  0  0  0  0  0  0  0
    5.5642    0.9459  -20.8129 C   0  0  0  0  0  0  0  0  0  0  0  0
    7.6881    0.1103  -21.6809 C   0  0  0  0  0  0  0  0  0  0  0  0
    5.9066   -1.4513  -21.1030 C   0  0  0  0  0  0  0  0  0  0  0  0
    7.1580    2.2315  -17.8212 C   0  0  0  0  0  0  0  0  0  0  0  0
    6.6619   -2.3419  -15.8118 C   0  0  0  0  0  0  0  0  0  0  0  0
    5.3262    7.9489  -17.2780 C   0  0  0  0  0  0  0  0  0  0  0  0
    6.0031    6.0151  -18.7821 C   0  0  0  0  0  0  0  0  0  0  0  0
    4.4274    6.9837  -16.5044 C   0  0  0  0  0  0  0  0  0  0  0  0
    5.0121    5.1266  -17.9822 C   0  0  2  0  0  0  0  0  0  0  0  0
    9.9106    0.9416  -13.8158 C   0  0  0  0  0  0  0  0  0  0  0  0
    9.5791   -3.9435  -16.8082 C   0  0  0  0  0  0  0  0  0  0  0  0
    3.9325   -3.0713  -18.1327 C   0  0  0  0  0  0  0  0  0  0  0  0
    5.9940    9.7621  -22.2481 C   0  0  0  0  0  0  0  0  0  0  0  0
    4.6655    2.1008  -20.4268 C   0  0  0  0  0  0  0  0  0  0  0  0
    8.6852   -4.1057  -18.0483 C   0  0  0  0  0  0  0  0  0  0  0  0
    4.2571   -4.0485  -16.9914 C   0  0  0  0  0  0  0  0  0  0  0  0
    6.6665    8.7452  -21.3114 C   0  0  0  0  0  0  0  0  0  0  0  0
    7.5541   -3.0534  -18.0795 C   0  0  0  0  0  0  0  0  0  0  0  0
    5.7566   -4.4075  -16.9279 C   0  0  0  0  0  0  0  0  0  0  0  0
    6.8369    9.3596  -19.9084 C   0  0  0  0  0  0  0  0  0  0  0  0
    4.3380    4.0583  -18.8621 C   0  0  2  0  0  0  0  0  0  0  0  0
    5.3515    3.0347  -19.4064 C   0  0  1  0  0  0  0  0  0  0  0  0
    6.4061    7.2237  -18.0112 N   0  0  1  0  0  0  0  0  0  0  0  0
    5.8526    2.2123  -18.2941 N   0  0  0  0  0  0  0  0  0  0  0  0
    6.6274   -3.2055  -16.9299 N   0  0  0  0  0  0  0  0  0  0  0  0
    3.9296    5.9515  -17.4165 N   0  3  0  0  0  0  0  0  0  0  0  0
    7.9542    3.0876  -18.1929 O   0  0  0  0  0  0  0  0  0  0  0  0
    6.1038   -2.6677  -14.7691 O   0  0  0  0  0  0  0  0  0  0  0  0
    8.5507    7.3551  -19.4682 O   0  0  0  0  0  0  0  0  0  0  0  0
    8.1544    9.0662  -17.6341 O   0  0  0  0  0  0  0  0  0  0  0  0
    3.6499    4.6976  -19.9401 O   0  0  0  0  0  0  0  0  0  0  0  0
    8.9324    0.3433  -22.1543 F   0  0  0  0  0  0  0  0  0  0  0  0
    5.4315   -2.7142  -21.0655 F   0  0  0  0  0  0  0  0  0  0  0  0
    7.6315    8.2219  -18.7160 S   0  0  0  0  0  0  0  0  0  0  0  0
    6.2009   -0.2976  -17.5559 H   0  0  0  0  0  0  0  0  0  0  0  0
    9.0391    2.4891  -15.8841 H   0  0  0  0  0  0  0  0  0  0  0  0
    8.5246   -1.3952  -14.0947 H   0  0  0  0  0  0  0  0  0  0  0  0
    7.2199    2.2022  -21.4193 H   0  0  0  0  0  0  0  0  0  0  0  0
    4.1015   -0.5672  -20.3096 H   0  0  0  0  0  0  0  0  0  0  0  0
    7.8432   -2.0372  -21.8606 H   0  0  0  0  0  0  0  0  0  0  0  0
    4.7132    8.5046  -18.0029 H   0  0  0  0  0  0  0  0  0  0  0  0
    5.7862    8.6539  -16.5700 H   0  0  0  0  0  0  0  0  0  0  0  0
    6.9018    5.4253  -19.0155 H   0  0  0  0  0  0  0  0  0  0  0  0
    5.5204    6.3338  -19.7177 H   0  0  0  0  0  0  0  0  0  0  0  0
    5.0046    6.5122  -15.6953 H   0  0  0  0  0  0  0  0  0  0  0  0
    3.5783    7.5359  -16.0753 H   0  0  0  0  0  0  0  0  0  0  0  0
    5.5615    4.6260  -17.1713 H   0  0  0  0  0  0  0  0  0  0  0  0
    9.4240    1.3997  -12.9421 H   0  0  0  0  0  0  0  0  0  0  0  0
   10.4334    0.0249  -13.5054 H   0  0  0  0  0  0  0  0  0  0  0  0
   10.6350    1.6494  -14.2450 H   0  0  0  0  0  0  0  0  0  0  0  0
   10.3695   -4.7084  -16.8227 H   0  0  0  0  0  0  0  0  0  0  0  0
   10.0369   -2.9433  -16.8146 H   0  0  0  0  0  0  0  0  0  0  0  0
    8.9706   -4.0624  -15.8996 H   0  0  0  0  0  0  0  0  0  0  0  0
    2.8548   -2.8505  -18.1317 H   0  0  0  0  0  0  0  0  0  0  0  0
    4.4978   -2.1387  -17.9887 H   0  0  0  0  0  0  0  0  0  0  0  0
    4.2127   -3.5251  -19.0947 H   0  0  0  0  0  0  0  0  0  0  0  0
    5.8750    9.3181  -23.2474 H   0  0  0  0  0  0  0  0  0  0  0  0
    5.0060   10.0323  -21.8470 H   0  0  0  0  0  0  0  0  0  0  0  0
    6.6197   10.6640  -22.3198 H   0  0  0  0  0  0  0  0  0  0  0  0
    4.4177    2.6783  -21.3297 H   0  0  0  0  0  0  0  0  0  0  0  0
    3.7420    1.7019  -19.9818 H   0  0  0  0  0  0  0  0  0  0  0  0
    9.3035   -3.9911  -18.9508 H   0  0  0  0  0  0  0  0  0  0  0  0
    8.2372   -5.1102  -18.0358 H   0  0  0  0  0  0  0  0  0  0  0  0
    3.9646   -3.5858  -16.0373 H   0  0  0  0  0  0  0  0  0  0  0  0
    3.6796   -4.9723  -17.1433 H   0  0  0  0  0  0  0  0  0  0  0  0
    6.0401    7.8436  -21.2414 H   0  0  0  0  0  0  0  0  0  0  0  0
    7.6539    8.4753  -21.7141 H   0  0  0  0  0  0  0  0  0  0  0  0
    8.0013   -2.0490  -18.0458 H   0  0  0  0  0  0  0  0  0  0  0  0
    6.9849   -3.1702  -19.0135 H   0  0  0  0  0  0  0  0  0  0  0  0
    5.9443   -4.9780  -16.0063 H   0  0  0  0  0  0  0  0  0  0  0  0
    6.0085   -5.0276  -17.8008 H   0  0  0  0  0  0  0  0  0  0  0  0
    7.4572   10.2639  -19.9957 H   0  0  0  0  0  0  0  0  0  0  0  0
    5.8434    9.6323  -19.5229 H   0  0  0  0  0  0  0  0  0  0  0  0
    3.6123    3.5158  -18.2383 H   0  0  0  0  0  0  0  0  0  0  0  0
    6.1815    3.5651  -19.8961 H   0  0  0  0  0  0  0  0  0  0  0  0
    5.2062    1.5946  -17.8462 H   0  0  0  0  0  0  0  0  0  0  0  0
    3.3018    5.3562  -16.9149 H   0  0  0  0  0  0  0  0  0  0  0  0
    3.4398    6.3958  -18.1666 H   0  0  0  0  0  0  0  0  0  0  0  0
    3.2330    4.0401  -20.4845 H   0  0  0  0  0  0  0  0  0  0  0  0
  1  7  1  0  0  0  0
  1  8  2  0  0  0  0
  2  7  2  0  0  0  0
  2  9  1  0  0  0  0
  3  8  1  0  0  0  0
  3  9  2  0  0  0  0
  4 10  1  0  0  0  0
  4 11  2  0  0  0  0
  5 10  2  0  0  0  0
  5 12  1  0  0  0  0
  6 11  1  0  0  0  0
  6 12  2  0  0  0  0
  7 13  1  0  0  0  0
  8 14  1  0  0  0  0
  9 19  1  0  0  0  0
 10 23  1  0  0  0  0
 11 41  1  0  0  0  0
 12 42  1  0  0  0  0
 13 33  1  0  0  0  0
 13 36  2  0  0  0  0
 14 34  1  0  0  0  0
 14 37  2  0  0  0  0
 15 17  1  0  0  0  0
 15 32  1  0  0  0  0
 16 18  1  0  0  0  0
 16 32  1  0  0  0  0
 17 35  1  0  0  0  0
 18 30  1  0  0  0  0
 18 35  1  0  0  0  0
 20 24  1  0  0  0  0
 21 25  1  0  0  0  0
 22 26  1  0  0  0  0
 23 31  1  0  0  0  0
 24 27  1  0  0  0  0
 25 28  1  0  0  0  0
 26 29  1  0  0  0  0
 27 34  1  0  0  0  0
 28 34  1  0  0  0  0
 29 43  1  0  0  0  0
 30 31  1  0  0  0  0
 30 40  1  0  0  0  0
 31 33  1  0  0  0  0
 32 43  1  0  0  0  0
 38 43  2  0  0  0  0
 39 43  2  0  0  0  0
  1 44  1  0  0  0  0
  2 45  1  0  0  0  0
  3 46  1  0  0  0  0
  4 47  1  0  0  0  0
  5 48  1  0  0  0  0
  6 49  1  0  0  0  0
 15 50  1  0  0  0  0
 15 51  1  0  0  0  0
 16 52  1  0  0  0  0
 16 53  1  0  0  0  0
 17 54  1  0  0  0  0
 17 55  1  0  0  0  0
 18 56  1  0  0  0  0
 19 57  1  0  0  0  0
 19 58  1  0  0  0  0
 19 59  1  0  0  0  0
 20 60  1  0  0  0  0
 20 61  1  0  0  0  0
 20 62  1  0  0  0  0
 21 63  1  0  0  0  0
 21 64  1  0  0  0  0
 21 65  1  0  0  0  0
 22 66  1  0  0  0  0
 22 67  1  0  0  0  0
 22 68  1  0  0  0  0
 23 69  1  0  0  0  0
 23 70  1  0  0  0  0
 24 71  1  0  0  0  0
 24 72  1  0  0  0  0
 25 73  1  0  0  0  0
 25 74  1  0  0  0  0
 26 75  1  0  0  0  0
 26 76  1  0  0  0  0
 27 77  1  0  0  0  0
 27 78  1  0  0  0  0
 28 79  1  0  0  0  0
 28 80  1  0  0  0  0
 29 81  1  0  0  0  0
 29 82  1  0  0  0  0
 30 83  1  0  0  0  0
 31 84  1  0  0  0  0
 33 85  1  0  0  0  0
 35 86  1  0  0  0  0
 35 87  1  0  0  0  0
 40 88  1  0  0  0  0
M  CHG  1  35   1
M  END
> <OMEGA_C>
km3eQBArZL3+iYbBH6EIQfwcxD8VtX3BzDEEQYrmLL/6sW3B7pTbQHQimD8shqrBuN+iQMRywb5W
naXBobfmQCTWmr9FnazB5/rxQJ5SnD+Zm4bBpynqQIvzgb8Cjn3BRtgNQR5FGT9dqW3Bhg2yQNIj
cj/kgKbBygT2QKbq4T1ncq3BhwK9QLjEub/h0qjBlg7lQJ/QDkDHkY7BfC7VQFbhFcAP/XzB7W+q
QBJd/kBUOYrBXxnAQIB7wECtQZbBjq2NQNZ630DwCITBW2OgQF4NpECK24/By5EeQcYJcT+ADV3B
HEQZQWFifMAwd4bBjq17QM6PRMDVD5HB0s6/QLYxHEEK/LHBi0uVQL1zBkAwaqPBo/YKQaZhg8Du
YpDBVzqIQCiNgcB07ofBq1PVQC3sC0GwfarBMLvxQC1rQ8DEopDBtDW4QCYKjcBBbIfBOcjaQB7B
FUF2RJ/BuNCKQEDdgUB+5ZbBdz+rQMU4QkBWQJvB9/7MQNAo50DlFpDB1ki7QNSVDUBOWpLBnhPU
QKEmTcBocIfB8X17QFhyvkAAVYvB7oj+QK2bRUALi5HBJVLDQCO7KsBZTmzB3M8IQSJd60DlvpvB
bngCQfQOEUGwEo3BP5dpQNpSlkA7hZ/BF+sOQcfIrz4OPLHBys6tQAi2LcAkhqjBCzX0QP+MA0FH
upXBwW3GQONjmL54cozBNKAQQS9OH0BTJX7Bm2QIQcuUsr/7g2HBDwnnQDXxDECgWqvBwz+DQL0y
Eb8FeqLBtfv6QCxhAsBw4q7BltKWQNwSCEHcBZDBwSi5QIl2CkFtj4TBftvcQN+brUC2H5jBgKew
QGSuykDsvZ3BASagQEVk0EAdIHvB6QJlQAwm8UAymoDB6/exQCgIlEDXXonBuMgWQQApsz/YEk/B
PO8mQTukyzwyFljBBikqQfMe0z9s62PBbuklQYCrlsDplIbBIpcgQQxfPMBKhIbBgYcPQWj/gcDP
ZH7B1rU2QN5uNsDEDZHB8e2PQLfgCMDv6I/BwM6GQOibYcAFwpjBNAC8QAwXFUG1+rnBAjGgQGqE
IEG7xq7B3NTTQKKfKkHvjrLB712NQBhpK0A6o6rBiXxvQHPY2T/M2p/BU9sUQV1uf8BKm5fBsssD
QRCHo8BoSZDBZ7x9QF1+ZcBZTIDBBX5rQMccn8BwJYnBlUjBQOn++kBM7qnBcOz0QKyaB0F/tq3B
PAUAQXIiA8DKXZDBCITfQP/kSsCRG5jBvze+QAlMn8DyDIDB00XAQPjhoMAAaI7Bt6HuQNA4JEEe
95/BcP26QAQeGkH/LpzBhS9nQGMDYUDy55HB0M7FQA8qZEBKK5/BSpmmQIAczD/0xI7BYlFTQBBm
q0CiUYfBayVcQCCqzEBIVZHB0ehOQMRIgUA/4KPBeffeQBW/Mb1FpIbBMWYIQTZ5yD+8pX3B6UoE
QWRVJL/8qW3BDRXdQEd3mz8h9arBeHqkQA3Zsb6I4aXBTG7oQOoKmL9auqzBtAXyQJfmnj//qobB
H8bqQB+8fr83o33B8acNQWWIIz+2i23BIYOzQFt9eT8896bBZqH3QMtNCD62vK3Bece+QK6Ctr9r
2KjBKyvlQMHlD0AYqY7BOt/VQO2FFMBEw3zBpSeqQBNO/UD6xYnBvf6/QA2KwEA9JpbBrZGMQP0L
3kB/9IPBlASgQE6yo0BT/Y/BfBAeQSVNfz8Wt1zBdhJ2QGdrQ8C2co/BoikZQRUAgsCPRofBc8a+
QOEbHUGYUrHBGL+WQEg/CEDS76PBZtCVQJAKi8DB+4/BTjMKQSFUhMC5BJHBQarVQCvFDEHNHKrB
Fqu3QBuajMA6BIfBo5vxQKSpQsD6kJDBx7zZQB/dFUEdtZ7BCS2LQBXKgUCZO5fBlxisQC3pQkAa
kJvBsM/MQAeV5kB4wI/BR8q7QN1oDUC4spLBaGfUQJLpTMCeOIfBdCt6QG/lvUASjYvB9GL+QHPZ
R0CzbZHBSuDEQK9wKMDbyWvBjaUIQafq60Dda5vBqhcCQQnxEEH/k4zBVWNrQNCUlkDq45/B3NEP
QZZguj7kabHBe+SvQOkpLMCeBajB1a3zQGeNA0HpTZXBZVnHQLz4l75hnYzBZiwQQUjzIUDn/33B
14wIQfzVrb9Pc2HBXHvoQOqRDkAh4KvB5MWEQFsTCL84xqLBN7X8QOslAcA27q7B9hmXQCgZCEEp
eI/BGN64QJFoCUG324PBTMDcQGK7rUBhD5jBStewQEZ0y0DRm53BtUueQCUozkAV8nrBf21iQGSX
70DnkoDBQy+xQP5xk0AdeInB/PoVQSpquT9S2U7BD5MmQaottT00oFfBzZQpQQ+V2z+ybWPBxZlG
QGd0Q8BJ8pXB9u5UQAkgQMDnsYfBoTiQQE2hC8B2UZDB0VMlQcVUm8Al3IfBtxMhQZsjRcAcFYfB
McoPQbFshsDb0X/Bjea7QC+VFkGxdrnBRq6eQG1jIEEYGq7BbF/RQGgLLEGBjrHBxJuPQLz/LUCh
JavBwJVxQESD3T+3lqDBD1uAQMu+psDbJo/BNRymQG1/jMBqxpfBWLYTQd8LgMBDWJjB0mwCQcLm
o8AULJHBdQ/DQEOs+0Am4qnBnMD1QB1+CUGPVq3BODmnQJ3FjcCYe37B+C7LQIedqcCWB4jB2KgA
QeLQA8ApBZDB1oLeQGS/RcDX8pfBz6TsQNuwJEFzFJ/BdHS5QBp+GUGRtJvBr2JnQNANYEAVaZLB
LcvGQIGjZUCeT5/BMjSnQDLHyD8uWY/BM9ZQQCilqkBSyofBIFxcQG3TzED/kJHBFZdRQNazgUAX
YKTB

> <OMEGA_E>
YHRnPgDqSz4=

> <OMEGA_NBR>
     40414

$$$$
50162091
  -OEChem-04172616093D

 93 96  0     1  0  0  0  0  0999 V2000
    6.5029    8.9221  -22.2452 C   0  0  0  0  0  0  0  0  0  0  0  0
    5.7769   10.6921  -20.7232 C   0  0  0  0  0  0  0  0  0  0  0  0
    7.1648    8.2826  -21.1872 C   0  0  0  0  0  0  0  0  0  0  0  0
    6.4427   10.0549  -19.6694 C   0  0  0  0  0  0  0  0  0  0  0  0
    7.0614    0.0987  -16.8315 C   0  0  0  0  0  0  0  0  0  0  0  0
    8.6231    1.7848  -16.0097 C   0  0  0  0  0  0  0  0  0  0  0  0
    8.5248   -0.4034  -14.9411 C   0  0  0  0  0  0  0  0  0  0  0  0
    6.7129    1.1847  -21.4480 C   0  0  0  0  0  0  0  0  0  0  0  0
    4.9979   -0.3793  -20.6827 C   0  0  0  0  0  0  0  0  0  0  0  0
    7.0855   -1.2185  -21.6228 C   0  0  0  0  0  0  0  0  0  0  0  0
    7.6046    1.4017  -16.9106 C   0  0  0  0  0  0  0  0  0  0  0  0
    7.5387   -0.8095  -15.8591 C   0  0  0  0  0  0  0  0  0  0  0  0
    9.0606    0.8958  -15.0088 C   0  0  0  0  0  0  0  0  0  0  0  0
    5.4441    0.9436  -20.8769 C   0  0  0  0  0  0  0  0  0  0  0  0
    5.7940   10.1330  -22.0139 C   0  0  0  0  0  0  0  0  0  0  0  0
    7.5371    0.1033  -21.8080 C   0  0  0  0  0  0  0  0  0  0  0  0
    5.8134   -1.4584  -21.0667 C   0  0  0  0  0  0  0  0  0  0  0  0
    7.1347    8.8507  -19.8997 C   0  0  0  0  0  0  0  0  0  0  0  0
    7.1176    2.3581  -17.9231 C   0  0  0  0  0  0  0  0  0  0  0  0
    6.9489   -2.1509  -15.7435 C   0  0  0  0  0  0  0  0  0  0  0  0
    5.3542    7.9076  -17.2924 C   0  0  0  0  0  0  0  0  0  0  0  0
    5.9469    5.9854  -18.8000 C   0  0  0  0  0  0  0  0  0  0  0  0
    4.2988    7.0270  -16.6205 C   0  0  0  0  0  0  0  0  0  0  0  0
    4.8905    5.1340  -18.0645 C   0  0  2  0  0  0  0  0  0  0  0  0
   10.1487    1.3148  -14.0471 C   0  0  0  0  0  0  0  0  0  0  0  0
    3.3282   -3.9368  -17.7816 C   0  0  0  0  0  0  0  0  0  0  0  0
    9.8002   -3.9604  -16.9228 C   0  0  0  0  0  0  0  0  0  0  0  0
    4.9123   10.1217  -24.2521 C   0  0  0  0  0  0  0  0  0  0  0  0
    4.5501    2.0964  -20.4875 C   0  0  0  0  0  0  0  0  0  0  0  0
    4.5327   -3.0548  -17.4823 C   0  0  0  0  0  0  0  0  0  0  0  0
    8.7589   -4.0934  -18.0445 C   0  0  0  0  0  0  0  0  0  0  0  0
    5.7054   -3.9079  -16.9740 C   0  0  0  0  0  0  0  0  0  0  0  0
    7.7684   -2.9153  -18.0154 C   0  0  0  0  0  0  0  0  0  0  0  0
    4.2387    4.0813  -18.9743 C   0  0  2  0  0  0  0  0  0  0  0  0
    5.2564    3.0513  -19.5033 C   0  0  1  0  0  0  0  0  0  0  0  0
    6.4280    7.0733  -17.9130 N   0  0  1  0  0  0  0  0  0  0  0  0
    5.8075    2.2611  -18.3837 N   0  0  0  0  0  0  0  0  0  0  0  0
    6.8619   -3.0159  -16.8475 N   0  0  0  0  0  0  0  0  0  0  0  0
    3.8136    6.0134  -17.5676 N   0  3  0  0  0  0  0  0  0  0  0  0
    7.8693    3.2326  -18.3397 O   0  0  0  0  0  0  0  0  0  0  0  0
    6.3710   -2.4263  -14.6970 O   0  0  0  0  0  0  0  0  0  0  0  0
    8.1765    8.9204  -17.4799 O   0  0  0  0  0  0  0  0  0  0  0  0
    8.7659    6.9704  -19.0149 O   0  0  0  0  0  0  0  0  0  0  0  0
    3.5940    4.7377  -20.0684 O   0  0  0  0  0  0  0  0  0  0  0  0
    5.0919   10.8071  -22.9955 O   0  0  0  0  0  0  0  0  0  0  0  0
    8.7583    0.3342  -22.3398 F   0  0  0  0  0  0  0  0  0  0  0  0
    5.3726   -2.7260  -20.9077 F   0  0  0  0  0  0  0  0  0  0  0  0
    7.7869    7.9412  -18.5037 S   0  0  0  0  0  0  0  0  0  0  0  0
    6.5315    8.4946  -23.2366 H   0  0  0  0  0  0  0  0  0  0  0  0
    5.2480   11.6167  -20.5445 H   0  0  0  0  0  0  0  0  0  0  0  0
    7.6956    7.3580  -21.3596 H   0  0  0  0  0  0  0  0  0  0  0  0
    6.4255   10.4871  -18.6798 H   0  0  0  0  0  0  0  0  0  0  0  0
    6.2812   -0.2029  -17.5147 H   0  0  0  0  0  0  0  0  0  0  0  0
    9.0689    2.7653  -16.0890 H   0  0  0  0  0  0  0  0  0  0  0  0
    8.8711   -1.0904  -14.1831 H   0  0  0  0  0  0  0  0  0  0  0  0
    7.0500    2.1982  -21.6082 H   0  0  0  0  0  0  0  0  0  0  0  0
    4.0305   -0.5638  -20.2394 H   0  0  0  0  0  0  0  0  0  0  0  0
    7.7151   -2.0486  -21.9075 H   0  0  0  0  0  0  0  0  0  0  0  0
    4.8729    8.5144  -18.0735 H   0  0  0  0  0  0  0  0  0  0  0  0
    5.8037    8.5703  -16.5382 H   0  0  0  0  0  0  0  0  0  0  0  0
    6.7953    5.3463  -19.0859 H   0  0  0  0  0  0  0  0  0  0  0  0
    5.4972    6.4235  -19.7032 H   0  0  0  0  0  0  0  0  0  0  0  0
    4.7436    6.5268  -15.7476 H   0  0  0  0  0  0  0  0  0  0  0  0
    3.4557    7.6536  -16.2939 H   0  0  0  0  0  0  0  0  0  0  0  0
    5.3730    4.6237  -17.2178 H   0  0  0  0  0  0  0  0  0  0  0  0
    9.6946    1.7705  -13.1548 H   0  0  0  0  0  0  0  0  0  0  0  0
   10.7351    0.4328  -13.7501 H   0  0  0  0  0  0  0  0  0  0  0  0
   10.8088    2.0462  -14.5365 H   0  0  0  0  0  0  0  0  0  0  0  0
    2.4976   -3.3133  -18.1441 H   0  0  0  0  0  0  0  0  0  0  0  0
    3.5964   -4.6743  -18.5523 H   0  0  0  0  0  0  0  0  0  0  0  0
    3.0204   -4.4603  -16.8644 H   0  0  0  0  0  0  0  0  0  0  0  0
   10.4953   -4.8120  -16.9641 H   0  0  0  0  0  0  0  0  0  0  0  0
   10.3610   -3.0230  -17.0525 H   0  0  0  0  0  0  0  0  0  0  0  0
    9.2901   -3.9506  -15.9483 H   0  0  0  0  0  0  0  0  0  0  0  0
    4.3419   10.7619  -24.9413 H   0  0  0  0  0  0  0  0  0  0  0  0
    5.8956    9.8961  -24.6905 H   0  0  0  0  0  0  0  0  0  0  0  0
    4.3624    9.1841  -24.0829 H   0  0  0  0  0  0  0  0  0  0  0  0
    4.2741    2.6565  -21.3931 H   0  0  0  0  0  0  0  0  0  0  0  0
    3.6418    1.6993  -20.0109 H   0  0  0  0  0  0  0  0  0  0  0  0
    4.8362   -2.5313  -18.4009 H   0  0  0  0  0  0  0  0  0  0  0  0
    4.2602   -2.3173  -16.7130 H   0  0  0  0  0  0  0  0  0  0  0  0
    9.2751   -4.1063  -19.0158 H   0  0  0  0  0  0  0  0  0  0  0  0
    8.2042   -5.0340  -17.9116 H   0  0  0  0  0  0  0  0  0  0  0  0
    5.4576   -4.3460  -15.9959 H   0  0  0  0  0  0  0  0  0  0  0  0
    5.9257   -4.7125  -17.6910 H   0  0  0  0  0  0  0  0  0  0  0  0
    8.3317   -1.9725  -17.9541 H   0  0  0  0  0  0  0  0  0  0  0  0
    7.1696   -2.9253  -18.9381 H   0  0  0  0  0  0  0  0  0  0  0  0
    3.4874    3.5395  -18.3810 H   0  0  0  0  0  0  0  0  0  0  0  0
    6.0662    3.5788  -20.0286 H   0  0  0  0  0  0  0  0  0  0  0  0
    5.1988    1.6131  -17.9259 H   0  0  0  0  0  0  0  0  0  0  0  0
    3.1269    5.4498  -17.1086 H   0  0  0  0  0  0  0  0  0  0  0  0
    3.3956    6.4790  -18.3476 H   0  0  0  0  0  0  0  0  0  0  0  0
    3.1897    4.0897  -20.6333 H   0  0  0  0  0  0  0  0  0  0  0  0
  1  3  2  0  0  0  0
  1 15  1  0  0  0  0
  2  4  1  0  0  0  0
  2 15  2  0  0  0  0
  3 18  1  0  0  0  0
  4 18  2  0  0  0  0
  5 11  1  0  0  0  0
  5 12  2  0  0  0  0
  6 11  2  0  0  0  0
  6 13  1  0  0  0  0
  7 12  1  0  0  0  0
  7 13  2  0  0  0  0
  8 14  1  0  0  0  0
  8 16  2  0  0  0  0
  9 14  2  0  0  0  0
  9 17  1  0  0  0  0
 10 16  1  0  0  0  0
 10 17  2  0  0  0  0
 11 19  1  0  0  0  0
 12 20  1  0  0  0  0
 13 25  1  0  0  0  0
 14 29  1  0  0  0  0
 15 45  1  0  0  0  0
 16 46  1  0  0  0  0
 17 47  1  0  0  0  0
 18 48  1  0  0  0  0
 19 37  1  0  0  0  0
 19 40  2  0  0  0  0
 20 38  1  0  0  0  0
 20 41  2  0  0  0  0
 21 23  1  0  0  0  0
 21 36  1  0  0  0  0
 22 24  1  0  0  0  0
 22 36  1  0  0  0  0
 23 39  1  0  0  0  0
 24 34  1  0  0  0  0
 24 39  1  0  0  0  0
 26 30  1  0  0  0  0
 27 31  1  0  0  0  0
 28 45  1  0  0  0  0
 29 35  1  0  0  0  0
 30 32  1  0  0  0  0
 31 33  1  0  0  0  0
 32 38  1  0  0  0  0
 33 38  1  0  0  0  0
 34 35  1  0  0  0  0
 34 44  1  0  0  0  0
 35 37  1  0  0  0  0
 36 48  1  0  0  0  0
 42 48  2  0  0  0  0
 43 48  2  0  0  0  0
  1 49  1  0  0  0  0
  2 50  1  0  0  0  0
  3 51  1  0  0  0  0
  4 52  1  0  0  0  0
  5 53  1  0  0  0  0
  6 54  1  0  0  0  0
  7 55  1  0  0  0  0
  8 56  1  0  0  0  0
  9 57  1  0  0  0  0
 10 58  1  0  0  0  0
 21 59  1  0  0  0  0
 21 60  1  0  0  0  0
 22 61  1  0  0  0  0
 22 62  1  0  0  0  0
 23 63  1  0  0  0  0
 23 64  1  0  0  0  0
 24 65  1  0  0  0  0
 25 66  1  0  0  0  0
 25 67  1  0  0  0  0
 25 68  1  0  0  0  0
 26 69  1  0  0  0  0
 26 70  1  0  0  0  0
 26 71  1  0  0  0  0
 27 72  1  0  0  0  0
 27 73  1  0  0  0  0
 27 74  1  0  0  0  0
 28 75  1  0  0  0  0
 28 76  1  0  0  0  0
 28 77  1  0  0  0  0
 29 78  1  0  0  0  0
 29 79  1  0  0  0  0
 30 80  1  0  0  0  0
 30 81  1  0  0  0  0
 31 82  1  0  0  0  0
 31 83  1  0  0  0  0
 32 84  1  0  0  0  0
 32 85  1  0  0  0  0
 33 86  1  0  0  0  0
 33 87  1  0  0  0  0
 34 88  1  0  0  0  0
 35 89  1  0  0  0  0
 37 90  1  0  0  0  0
 39 91  1  0  0  0  0
 39 92  1  0  0  0  0
 44 93  1  0  0  0  0
M  CHG  1  39   1
M  END
> <OMEGA_C>
rRfQQNrADkE09rHBTty4QP4SK0ETyaXB8EXlQJWFBEF7f6nBqSrOQPTgIEHYWp3BQ/fhQPA7yj31
pobBIfgJQe505D/zE4DBxWUIQciNzr67Dm/BctDWQGmklz+alavBfO6fQJwtwr4udqXBQbziQG73
m7+X+6zBrFjzQDZssz/gSIfBND3xQOg5T7+2vn3BFfgQQSdQZT88JHDBGzauQOeRcT/sA6fBL2i5
QKIgIkGFHLDBHzDxQAiS0z3Pdq7BYQe6QHSrur+wiKjBEU/kQI6cDUGSMp/BxsPjQFrqFkCRYo/B
Ul3eQB2oCcBb5XvB/VWrQAoL/UDVVorBu0y+QBiIv0BcZpbBdI+JQHLd4EC+9oTBYX+cQIRJpEAi
hJDBHmEiQdRMqD+9wGDBegFVQNXze8CiQI7Bzs0cQbl2fcDSYYfBNzGdQHzyIUFiBMLBsJqRQK8r
BkB/5qPB9AuRQN6BQ8DY24vBiSQMQUL9gsAiW5DBqZK2QDsaesDEyofB5Jb4QMaUOsCSH5DBeKOH
QKmZgkBSy5fBDzSoQNFHQ0DPBpzBx7HNQOJY4kDMTY/BB9e5QC+1EEDOEZPB45TbQLQDQcCdx4bB
yRJ0QChuwEBhiozBqNH7QDzjTkCnt5LB897LQOlHG8C2JmvBy9ICQdW5DkHS1ovBMEEMQboN30CJ
HpjB8wNmQF+bl0AdjKDBQfGiQMzpLEHb9rfBBCIMQTMcqz74t7LBi+yrQBh3LsD3QqfBqi75QBAe
/kCVB5TBQALRQOLpB0GO5LnB6e+nQPDdOUEoW6TB9EH2QGB060Bt4KrB7J3NQDPLJ0EicJXB7P/I
QDzPT74JHozBURoRQZz6MEBOtoDBOvANQSSRi7/n7WLB+pnhQMGuDECp3azB2vmAQH5VEL846qHB
tuH2QJUbA8CKQq/Bte6bQA07CEF1lpDBsre5QM0fCUEiToTBFHPZQK8Uq0Dar5jBFOmvQLeNzUAk
oJ3BVMuXQLDb0EAk9nvBuSpdQJTq9EDbWYLBce+rQD31k0AivonBGR0bQdyf4j/2eVLB4cIrQdaZ
3T5RAFzBvvAsQSD0AkBNlWjB1NgfQC0NVMAEJ5HBkStmQOeTlcAva5TBTE5BQMC6jsBR6obBv+wn
QYX7mcB0tofBkMYlQQp4QcB2a4jBDaQUQeDWfMAuLH/B6/CKQJAwLEG5h8fBs6i8QGFWHkEghsXB
2JiLQDXyEkHYqcDBDsWIQPMDKkAmJavBSxNpQLKC2T87FqDBi8KaQAYBIsAiNZPB6FOIQLhOFMBE
tIXBAWcUQdpmg8BFIJjBfkQDQUUWocDmSo/BhqSuQBgSi8BN73/Bm5+9QKDMlsAZh43B004FQVN7
/L/5oY/BXG3lQHI4O8AygZfBODFfQGSGYkBTDJPBEB7CQPEKZUCPOqDBilymQLB4zj89aI/B5B5I
QNlkrkBd3ojBZFFZQMlTz0D3x5LBXCNMQNregkD/EKXB

> <OMEGA_E>
IJN2Pg==

> <OMEGA_NBR>
     42250

$$$$
50162125
  -OEChem-04172616093D

 86 89  0     1  0  0  0  0  0999 V2000
    6.3699    8.7763  -22.4604 C   0  0  0  0  0  0  0  0  0  0  0  0
    5.6219    9.9583  -22.2932 C   0  0  0  0  0  0  0  0  0  0  0  0
    7.0339    8.2018  -21.3590 C   0  0  0  0  0  0  0  0  0  0  0  0
    6.8241    0.0156  -16.9543 C   0  0  0  0  0  0  0  0  0  0  0  0
    8.4381    1.5604  -15.9783 C   0  0  0  0  0  0  0  0  0  0  0  0
    6.9330    1.2780  -21.4329 C   0  0  0  0  0  0  0  0  0  0  0  0
    5.3399   -0.3552  -20.5596 C   0  0  0  0  0  0  0  0  0  0  0  0
    6.2045    9.9942  -19.9252 C   0  0  0  0  0  0  0  0  0  0  0  0
    8.1920   -0.6916  -15.0752 C   0  0  0  0  0  0  0  0  0  0  0  0
    7.4741   -1.1017  -21.4784 C   0  0  0  0  0  0  0  0  0  0  0  0
    7.4489    1.2854  -16.9238 C   0  0  0  0  0  0  0  0  0  0  0  0
    5.5502   10.5752  -21.0260 C   0  0  0  0  0  0  0  0  0  0  0  0
    5.6812    0.9847  -20.8455 C   0  0  0  0  0  0  0  0  0  0  0  0
    7.1994   -0.9841  -16.0300 C   0  0  0  0  0  0  0  0  0  0  0  0
    8.8180    0.5770  -15.0680 C   0  0  0  0  0  0  0  0  0  0  0  0
    7.8260    0.2353  -21.7504 C   0  0  0  0  0  0  0  0  0  0  0  0
    6.2333   -1.3961  -20.8794 C   0  0  0  0  0  0  0  0  0  0  0  0
    6.9572    8.8167  -20.0892 C   0  0  0  0  0  0  0  0  0  0  0  0
    7.0779    2.3180  -17.8797 C   0  0  0  0  0  0  0  0  0  0  0  0
    5.3871    7.9039  -17.2217 C   0  0  0  0  0  0  0  0  0  0  0  0
    5.9831    5.9860  -18.7436 C   0  0  0  0  0  0  0  0  0  0  0  0
    4.4078    6.9753  -16.4945 C   0  0  0  0  0  0  0  0  0  0  0  0
    4.9471    5.1148  -17.9982 C   0  0  2  0  0  0  0  0  0  0  0  0
    4.7036   11.8089  -20.8234 C   0  0  0  0  0  0  0  0  0  0  0  0
    5.2917   -4.1682  -16.8687 C   0  0  0  0  0  0  0  0  0  0  0  0
    9.6781    1.7646  -13.0864 C   0  0  0  0  0  0  0  0  0  0  0  0
   11.1307   -1.3079  -12.9715 C   0  0  0  0  0  0  0  0  0  0  0  0
    4.7062    2.1049  -20.5083 C   0  0  0  0  0  0  0  0  0  0  0  0
    5.9142   -2.8158  -17.2301 C   0  0  0  0  0  0  0  0  0  0  0  0
    4.2843    4.0855  -18.9421 C   0  0  2  0  0  0  0  0  0  0  0  0
    5.3178    3.0823  -19.4859 C   0  0  1  0  0  0  0  0  0  0  0  0
    6.4535    7.1201  -17.9154 N   0  0  1  0  0  0  0  0  0  0  0  0
    6.6410   -2.2672  -16.0550 N   0  0  0  0  0  0  0  0  0  0  0  0
    5.7901    2.2940  -18.3617 N   0  0  0  0  0  0  0  0  0  0  0  0
    9.8862    0.8647  -14.2427 N   0  0  1  0  0  0  0  0  0  0  0  0
    3.8858    5.9689  -17.4321 N   0  3  0  0  0  0  0  0  0  0  0  0
    7.8842    3.1786  -18.2193 O   0  0  0  0  0  0  0  0  0  0  0  0
    8.0723    9.1164  -17.6987 O   0  0  0  0  0  0  0  0  0  0  0  0
    8.7415    7.1071  -19.1137 O   0  0  0  0  0  0  0  0  0  0  0  0
   12.4320    0.7554  -14.0129 O   0  0  0  0  0  0  0  0  0  0  0  0
   11.2533   -0.8620  -15.5826 O   0  0  0  0  0  0  0  0  0  0  0  0
    3.6439    4.7580  -20.0240 O   0  0  0  0  0  0  0  0  0  0  0  0
    9.0170    0.5163  -22.3265 F   0  0  0  0  0  0  0  0  0  0  0  0
    5.8984   -2.6790  -20.6147 F   0  0  0  0  0  0  0  0  0  0  0  0
    7.7135    8.0437  -18.6369 S   0  0  0  0  0  0  0  0  0  0  0  0
   11.2861   -0.1123  -14.3163 S   0  0  0  0  0  0  0  0  0  0  0  0
    6.4341    8.3107  -23.4328 H   0  0  0  0  0  0  0  0  0  0  0  0
    5.1033   10.3925  -23.1352 H   0  0  0  0  0  0  0  0  0  0  0  0
    7.6015    7.2916  -21.4851 H   0  0  0  0  0  0  0  0  0  0  0  0
    6.0576   -0.1895  -17.6871 H   0  0  0  0  0  0  0  0  0  0  0  0
    8.9076    2.5327  -15.9527 H   0  0  0  0  0  0  0  0  0  0  0  0
    7.2053    2.3026  -21.6387 H   0  0  0  0  0  0  0  0  0  0  0  0
    4.3919   -0.5825  -20.0949 H   0  0  0  0  0  0  0  0  0  0  0  0
    6.1290   10.4534  -18.9505 H   0  0  0  0  0  0  0  0  0  0  0  0
    8.4760   -1.4370  -14.3471 H   0  0  0  0  0  0  0  0  0  0  0  0
    8.1557   -1.9011  -21.7292 H   0  0  0  0  0  0  0  0  0  0  0  0
    4.8353    8.4972  -17.9656 H   0  0  0  0  0  0  0  0  0  0  0  0
    5.8551    8.5780  -16.4891 H   0  0  0  0  0  0  0  0  0  0  0  0
    6.8467    5.3596  -19.0114 H   0  0  0  0  0  0  0  0  0  0  0  0
    5.5201    6.3830  -19.6591 H   0  0  0  0  0  0  0  0  0  0  0  0
    4.9292    6.4693  -15.6686 H   0  0  0  0  0  0  0  0  0  0  0  0
    3.5727    7.5679  -16.0926 H   0  0  0  0  0  0  0  0  0  0  0  0
    5.4580    4.5735  -17.1882 H   0  0  0  0  0  0  0  0  0  0  0  0
    3.6770   11.5112  -20.5637 H   0  0  0  0  0  0  0  0  0  0  0  0
    5.1270   12.4142  -20.0084 H   0  0  0  0  0  0  0  0  0  0  0  0
    4.6902   12.4005  -21.7507 H   0  0  0  0  0  0  0  0  0  0  0  0
    4.7552   -4.5702  -17.7408 H   0  0  0  0  0  0  0  0  0  0  0  0
    6.0855   -4.8694  -16.5715 H   0  0  0  0  0  0  0  0  0  0  0  0
    4.5876   -4.0363  -16.0340 H   0  0  0  0  0  0  0  0  0  0  0  0
   10.6251    1.8852  -12.5399 H   0  0  0  0  0  0  0  0  0  0  0  0
    9.3332    2.7462  -13.4433 H   0  0  0  0  0  0  0  0  0  0  0  0
    8.9210    1.3313  -12.4164 H   0  0  0  0  0  0  0  0  0  0  0  0
   12.0085   -1.9708  -12.9662 H   0  0  0  0  0  0  0  0  0  0  0  0
   11.0687   -0.7741  -12.0117 H   0  0  0  0  0  0  0  0  0  0  0  0
   10.2198   -1.9071  -13.1172 H   0  0  0  0  0  0  0  0  0  0  0  0
    4.4588    2.6551  -21.4281 H   0  0  0  0  0  0  0  0  0  0  0  0
    3.7898    1.6683  -20.0845 H   0  0  0  0  0  0  0  0  0  0  0  0
    6.6176   -2.9488  -18.0653 H   0  0  0  0  0  0  0  0  0  0  0  0
    5.1197   -2.1157  -17.5278 H   0  0  0  0  0  0  0  0  0  0  0  0
    3.5364    3.5247  -18.3623 H   0  0  0  0  0  0  0  0  0  0  0  0
    6.1493    3.6295  -19.9540 H   0  0  0  0  0  0  0  0  0  0  0  0
    7.3962   -2.8989  -15.8798 H   0  0  0  0  0  0  0  0  0  0  0  0
    5.1337    1.6922  -17.9066 H   0  0  0  0  0  0  0  0  0  0  0  0
    3.2322    5.3880  -16.9469 H   0  0  0  0  0  0  0  0  0  0  0  0
    3.4206    6.4403  -18.1814 H   0  0  0  0  0  0  0  0  0  0  0  0
    3.2392    4.1195  -20.5993 H   0  0  0  0  0  0  0  0  0  0  0  0
  1  2  1  0  0  0  0
  1  3  2  0  0  0  0
  2 12  2  0  0  0  0
  3 18  1  0  0  0  0
  4 11  2  0  0  0  0
  4 14  1  0  0  0  0
  5 11  1  0  0  0  0
  5 15  2  0  0  0  0
  6 13  1  0  0  0  0
  6 16  2  0  0  0  0
  7 13  2  0  0  0  0
  7 17  1  0  0  0  0
  8 12  1  0  0  0  0
  8 18  2  0  0  0  0
  9 14  2  0  0  0  0
  9 15  1  0  0  0  0
 10 16  1  0  0  0  0
 10 17  2  0  0  0  0
 11 19  1  0  0  0  0
 12 24  1  0  0  0  0
 13 28  1  0  0  0  0
 14 33  1  0  0  0  0
 15 35  1  0  0  0  0
 16 43  1  0  0  0  0
 17 44  1  0  0  0  0
 18 45  1  0  0  0  0
 19 34  1  0  0  0  0
 19 37  2  0  0  0  0
 20 22  1  0  0  0  0
 20 32  1  0  0  0  0
 21 23  1  0  0  0  0
 21 32  1  0  0  0  0
 22 36  1  0  0  0  0
 23 30  1  0  0  0  0
 23 36  1  0  0  0  0
 25 29  1  0  0  0  0
 26 35  1  0  0  0  0
 27 46  1  0  0  0  0
 28 31  1  0  0  0  0
 29 33  1  0  0  0  0
 30 31  1  0  0  0  0
 30 42  1  0  0  0  0
 31 34  1  0  0  0  0
 32 45  1  0  0  0  0
 35 46  1  0  0  0  0
 38 45  2  0  0  0  0
 39 45  2  0  0  0  0
 40 46  2  0  0  0  0
 41 46  2  0  0  0  0
  1 47  1  0  0  0  0
  2 48  1  0  0  0  0
  3 49  1  0  0  0  0
  4 50  1  0  0  0  0
  5 51  1  0  0  0  0
  6 52  1  0  0  0  0
  7 53  1  0  0  0  0
  8 54  1  0  0  0  0
  9 55  1  0  0  0  0
 10 56  1  0  0  0  0
 20 57  1  0  0  0  0
 20 58  1  0  0  0  0
 21 59  1  0  0  0  0
 21 60  1  0  0  0  0
 22 61  1  0  0  0  0
 22 62  1  0  0  0  0
 23 63  1  0  0  0  0
 24 64  1  0  0  0  0
 24 65  1  0  0  0  0
 24 66  1  0  0  0  0
 25 67  1  0  0  0  0
 25 68  1  0  0  0  0
 25 69  1  0  0  0  0
 26 70  1  0  0  0  0
 26 71  1  0  0  0  0
 26 72  1  0  0  0  0
 27 73  1  0  0  0  0
 27 74  1  0  0  0  0
 27 75  1  0  0  0  0
 28 76  1  0  0  0  0
 28 77  1  0  0  0  0
 29 78  1  0  0  0  0
 29 79  1  0  0  0  0
 30 80  1  0  0  0  0
 31 81  1  0  0  0  0
 33 82  1  0  0  0  0
 34 83  1  0  0  0  0
 36 84  1  0  0  0  0
 36 85  1  0  0  0  0
 42 86  1  0  0  0  0
M  CHG  1  36   1
M  END
> <OMEGA_C>
5NXLQLVrDEHmrrPB3OazQBpVH0GTWLLBAhbhQIE6A0E736rB717aQHBPfzx0oofBowIHQRO6xz83
p3/BUNvdQKGUoz+sdqvBuuCqQFDetb4neqTBD4vGQF7oH0G3Zp/BahIDQdUKMb8UNHHBAizvQBMF
jb/Q06vBa13uQJWHpD8GZIfBAZuxQP8zKUE4NajBpsy1QPcTfD99w6bBOGHmQNPue79mPYDBaBYN
Qc22Ez+mFnHB5m76QN3zcD7dAK7BfnfHQNGxsr8dCafBlKHeQAERDUGptqDB433iQJZZFECQCY/B
bWOsQNjs/EATxonBWnW/QFyNv0De8pXBkgyNQLQ130DB9IPBf06eQGqso0A6/I/Bt4OWQEnxPEFq
lqbB3FWpQA1ihcAv84bBptkaQQbd4T/eYVHBOhcyQYlqp78yi0/BAZmWQFS2BkD7EKTBQUG9QDU2
NMAz14nBzhiJQKu8gkB2iZfBLiuqQMlDRUA545vBe4POQK/X40DCUo/BuoLUQIEaEcCscIDBOki5
QBbQEkCw5JLBDS4eQYdeXT8c4mPBBLF4QOgAv0DsdIvBZkv8QMhuS0AhwZHBDCgBQarcEUHtlo3B
Ud0LQXZt40Dz6JjBSelGQV5hQT+4NGDBWw00QamqXL9KUnnBKDZpQL9BmEAWMaDBfUUQQRIuBD+v
nLLBSb+8QPpzK8D26qTB7tT2QBCzAEFJGJXBvJM0Qe4F5r2QD2XBHOTNQLD4BEFRdrvB7U2jQK9H
JkHVFLnBqz/zQCxV6UB34avBO9jBQL0MQr4af43BkoUOQf4WIkAWPn/B/ZHmQBxeE0AoHK3Bk4qM
QC4dFb9LwqDB6SDEQPFAJ0GqmpfBmZ0HQT/ut7+2jWXBxH0CQXtW879T1a3BhLqaQJT0B0GmuY/B
2Fy7QE8/CUG66YPBhRjbQO+Bq0BJF5jB4aSwQDJBzEDGRZ3B1LudQJwEz0CZsnrB+6ZkQOgr8kC5
vYDBzKeuQCVakkB/gYnBjFNrQNMtOEGKgqTBHhCkQKigRkEoEaDB6BWWQJJoRkFvAa7BuCqYQE4/
ksA57Y3BULzCQOXRm8B+koTBZc2SQGYpgcCtRYDBjwAqQSRP8T+Go0jB9lQVQSvCL0C2F1fBO7wO
QcRmqj91qUbB0SJAQTpD/L+ldU/BmBkxQVEpRr8AMEDBM4QjQR0d9L8B4FHBnq6OQAXtKUDIbKvB
fotyQIaL1T8LraDBccPTQA65PMCvhZDBhtSjQBFoB8DeOIzB9lRiQNGUYUD15ZLBGMfEQMBJaEDR
oZ/Bba3sQB6HOcCtE37BpUekQIiZ2D+hQI/B5dxOQD9qrEBBk4fBe+taQI4WzkBqc5HB109PQMLS
g0BVy6TBhPGzQA/CKkGuYqfBrXK1QK4EIUHSiLHB3RTJQGc2IUFoqp7BMgjeQDDelD2n4obBziMI
QaRO3T8hC4DBIRjaQHr5nD95T6vBXq2oQOCQ276K9qPBEEzhQM8vBEGlPqrBdsEFQbgj8b5dY2/B
O77sQMI5kr+Fp6vB22rwQHSHrj/oTYfBUbDLQCWRDUHb7rLBrMKyQBJiaj/nUKbB7zfsQFpsXb/8
Y37BArwOQRAhUz9NenDBfBL3QLQaTD4G763BDYnFQC5jur+rrqbB9gbgQKX3DUE7GqDB0gvjQFC8
FEDwX4/BSfaqQAg0/UB7Z4rBwp+/QNC4vkAcCpbB32aLQEIn4EBOh4TBmaadQFJqo0DWHZDBRdrN
QJQlA0EW0L3BWDS0QNb4hMC0VYXBvvwaQdTFtj/0fkzBGes9QdwAUL8V9FzBl3+TQC2BAUD2aaPB
IZ7LQCHYN8BYoYjBPBqIQJA6gkDhiJfBh22oQCuPQkAiwJvB4+TNQKiN40DLZo/Bd+LcQEOYC8Am
9n3B+fa4QPXtEkAbopLB/WofQeJ1mj8za2PB8sx2QLgov0Bn4YvBSMv8QA5CSEC/CZPBdp0BQafj
EEFL2YzBy9YLQejR4kBfvJjB/4pHQTmS3z8RwmLB7kI4Qec51j7/+4DBl1NoQGKUl0AyTKDB1loO
Qeo5AD9xsrLB0Ju7QDafL8DwgqTBRUz3QCB6AEEduJTB3KU4QbqQOz9M9mrBupWiQCyKOUEeS6bB
ppKlQNNvKEHJQLjB8r/HQN+dKEG33ZbBUxPFQOXQSr64dIzBi1MPQahqLUA1eoDBpPDhQPw6EEBN
Hq3BWcyKQBCBK7+xEqDB8N7yQM3y6kDhWqvBNN4KQc9OlL9sFWPB2nABQScc97/0t63BNtSZQHd3
B0FSr5DBp/64QFX4CUHWrITB9HPbQNV6qkAZ5JfBw62xQPfnykD2hZ3BGaibQJK/0ECBenvBwcpg
QAxe80CSkIHBcFatQE9lkkCTfInBDczpQFlJCUEfMsLBvczQQCtt40A727zBVIewQIHXBkEIUcLB
IZqnQPwIlcDWgIzBCKDKQFJ0msCmMIHBJpaZQDnEecDy4n/BkNIpQRTj3D/bT0TBw/gOQRFZDkB0
vkrB3tsUQT5T/z77V0XBoAFOQbBglr/VHWHB2P48QYmBI79emUvBUfUxQQ1ZyL/0m2HBLXyJQNm+
IkCSwarBz6ZuQKV1yj86f5/B8i7mQAMvSMC+B47BESW1QJkKDcCRyIzBrn9fQAcjYkAB2ZLBWYXC
QJPsY0DZ7p/BmDP1QD+pL8AQx3jBT36kQLZP3T/neo7BVZVMQGfnrEBJ94fBC7dZQDyWzUC+BpLB
/OdNQEEZg0Ai16TB

> <OMEGA_E>
jvsOPwTzDT8=

> <OMEGA_NBR>
     45261

$$$$
50162134
  -OEChem-04172616093D

 88 91  0     1  0  0  0  0  0999 V2000
    5.6364   10.5817  -21.1766 C   0  0  0  0  0  0  0  0  0  0  0  0
    6.2050   10.0370  -20.0149 C   0  0  0  0  0  0  0  0  0  0  0  0
    6.9755   -0.0164  -16.8313 C   0  0  0  0  0  0  0  0  0  0  0  0
    8.5502    1.5888  -15.8736 C   0  0  0  0  0  0  0  0  0  0  0  0
    8.3221   -0.6304  -14.8923 C   0  0  0  0  0  0  0  0  0  0  0  0
    6.8663    1.2198  -21.3557 C   0  0  0  0  0  0  0  0  0  0  0  0
    5.0973   -0.3454  -20.7302 C   0  0  0  0  0  0  0  0  0  0  0  0
    7.2144   -1.1807  -21.6065 C   0  0  0  0  0  0  0  0  0  0  0  0
    5.8338    9.9296  -22.4118 C   0  0  0  0  0  0  0  0  0  0  0  0
    7.1078    8.2450  -21.3887 C   0  0  0  0  0  0  0  0  0  0  0  0
    7.5669    1.2697  -16.8347 C   0  0  0  0  0  0  0  0  0  0  0  0
    7.3661   -0.9749  -15.8702 C   0  0  0  0  0  0  0  0  0  0  0  0
    8.9305    0.6395  -14.9063 C   0  0  0  0  0  0  0  0  0  0  0  0
    5.5701    0.9765  -20.8506 C   0  0  0  0  0  0  0  0  0  0  0  0
    7.6896    0.1409  -21.7254 C   0  0  0  0  0  0  0  0  0  0  0  0
    5.9153   -1.4214  -21.1156 C   0  0  0  0  0  0  0  0  0  0  0  0
    6.9586    8.8539  -20.1215 C   0  0  0  0  0  0  0  0  0  0  0  0
    7.1479    2.2761  -17.8247 C   0  0  0  0  0  0  0  0  0  0  0  0
    6.7173   -2.3024  -15.8145 C   0  0  0  0  0  0  0  0  0  0  0  0
    5.3162    7.9333  -17.2828 C   0  0  0  0  0  0  0  0  0  0  0  0
    5.9971    5.9753  -18.7258 C   0  0  0  0  0  0  0  0  0  0  0  0
    4.3522    7.0058  -16.5381 C   0  0  0  0  0  0  0  0  0  0  0  0
    4.9614    5.1110  -17.9671 C   0  0  2  0  0  0  0  0  0  0  0  0
    9.9352    1.0098  -13.8386 C   0  0  0  0  0  0  0  0  0  0  0  0
    3.8440   -3.0466  -17.9260 C   0  0  0  0  0  0  0  0  0  0  0  0
    9.5689   -4.0504  -16.9910 C   0  0  0  0  0  0  0  0  0  0  0  0
    4.6704    2.1265  -20.4628 C   0  0  0  0  0  0  0  0  0  0  0  0
    4.6894   -4.3325  -17.9988 C   0  0  0  0  0  0  0  0  0  0  0  0
    8.6224   -4.0956  -18.2016 C   0  0  0  0  0  0  0  0  0  0  0  0
    5.7595   -4.3708  -16.8894 C   0  0  0  0  0  0  0  0  0  0  0  0
    7.5384   -3.0009  -18.1116 C   0  0  0  0  0  0  0  0  0  0  0  0
    4.3131    4.0558  -18.8798 C   0  0  2  0  0  0  0  0  0  0  0  0
    5.3432    3.0494  -19.4263 C   0  0  1  0  0  0  0  0  0  0  0  0
    6.5556    8.7855  -22.5017 N   0  0  0  0  0  0  0  0  0  0  0  0
    6.4144    7.1568  -17.9312 N   0  0  1  0  0  0  0  0  0  0  0  0
    5.8502    2.2260  -18.3176 N   0  0  0  0  0  0  0  0  0  0  0  0
    6.6487   -3.1725  -16.9271 N   0  0  0  0  0  0  0  0  0  0  0  0
    3.8723    5.9612  -17.4496 N   0  3  0  0  0  0  0  0  0  0  0  0
    7.9370    3.1388  -18.1961 O   0  0  0  0  0  0  0  0  0  0  0  0
    6.2227   -2.6318  -14.7417 O   0  0  0  0  0  0  0  0  0  0  0  0
    7.9983    9.1750  -17.6972 O   0  0  0  0  0  0  0  0  0  0  0  0
    8.7262    7.1621  -19.0756 O   0  0  0  0  0  0  0  0  0  0  0  0
    3.6472    4.7113  -19.9619 O   0  0  0  0  0  0  0  0  0  0  0  0
    8.9292    0.3756  -22.2112 F   0  0  0  0  0  0  0  0  0  0  0  0
    5.4462   -2.6852  -21.0267 F   0  0  0  0  0  0  0  0  0  0  0  0
    7.6755    8.0920  -18.6363 S   0  0  0  0  0  0  0  0  0  0  0  0
    5.0543   11.4899  -21.1254 H   0  0  0  0  0  0  0  0  0  0  0  0
    6.0667   10.5170  -19.0574 H   0  0  0  0  0  0  0  0  0  0  0  0
    6.2236   -0.2653  -17.5655 H   0  0  0  0  0  0  0  0  0  0  0  0
    9.0124    2.5648  -15.8803 H   0  0  0  0  0  0  0  0  0  0  0  0
    8.5894   -1.3451  -14.1279 H   0  0  0  0  0  0  0  0  0  0  0  0
    7.2251    2.2333  -21.4579 H   0  0  0  0  0  0  0  0  0  0  0  0
    4.1069   -0.5318  -20.3419 H   0  0  0  0  0  0  0  0  0  0  0  0
    7.8459   -2.0092  -21.8915 H   0  0  0  0  0  0  0  0  0  0  0  0
    5.4000   10.3514  -23.3064 H   0  0  0  0  0  0  0  0  0  0  0  0
    7.6743    7.3292  -21.4713 H   0  0  0  0  0  0  0  0  0  0  0  0
    4.7602    8.4837  -18.0560 H   0  0  0  0  0  0  0  0  0  0  0  0
    5.7534    8.6460  -16.5681 H   0  0  0  0  0  0  0  0  0  0  0  0
    6.8833    5.3609  -18.9430 H   0  0  0  0  0  0  0  0  0  0  0  0
    5.5501    6.3206  -19.6697 H   0  0  0  0  0  0  0  0  0  0  0  0
    4.8746    6.5397  -15.6896 H   0  0  0  0  0  0  0  0  0  0  0  0
    3.4967    7.5888  -16.1665 H   0  0  0  0  0  0  0  0  0  0  0  0
    5.4659    4.6015  -17.1329 H   0  0  0  0  0  0  0  0  0  0  0  0
    9.4103    1.4456  -12.9757 H   0  0  0  0  0  0  0  0  0  0  0  0
   10.4799    0.1089  -13.5196 H   0  0  0  0  0  0  0  0  0  0  0  0
   10.6469    1.7442  -14.2439 H   0  0  0  0  0  0  0  0  0  0  0  0
    3.0936   -3.0545  -18.7302 H   0  0  0  0  0  0  0  0  0  0  0  0
    3.3363   -2.9964  -16.9514 H   0  0  0  0  0  0  0  0  0  0  0  0
    4.4986   -2.1705  -18.0440 H   0  0  0  0  0  0  0  0  0  0  0  0
   10.3267   -4.8418  -17.0876 H   0  0  0  0  0  0  0  0  0  0  0  0
   10.0660   -3.0699  -16.9507 H   0  0  0  0  0  0  0  0  0  0  0  0
    8.9912   -4.2068  -16.0681 H   0  0  0  0  0  0  0  0  0  0  0  0
    4.4332    2.7133  -21.3625 H   0  0  0  0  0  0  0  0  0  0  0  0
    3.7416    1.7237  -20.0325 H   0  0  0  0  0  0  0  0  0  0  0  0
    4.0262   -5.2028  -17.8855 H   0  0  0  0  0  0  0  0  0  0  0  0
    5.1884   -4.3768  -18.9781 H   0  0  0  0  0  0  0  0  0  0  0  0
    9.2088   -3.9436  -19.1199 H   0  0  0  0  0  0  0  0  0  0  0  0
    8.1340   -5.0805  -18.2372 H   0  0  0  0  0  0  0  0  0  0  0  0
    5.2563   -4.4087  -15.9119 H   0  0  0  0  0  0  0  0  0  0  0  0
    6.3745   -5.2733  -17.0204 H   0  0  0  0  0  0  0  0  0  0  0  0
    8.0323   -2.0204  -18.0424 H   0  0  0  0  0  0  0  0  0  0  0  0
    6.9233   -3.0381  -19.0228 H   0  0  0  0  0  0  0  0  0  0  0  0
    3.5772    3.4971  -18.2829 H   0  0  0  0  0  0  0  0  0  0  0  0
    6.1688    3.5957  -19.9057 H   0  0  0  0  0  0  0  0  0  0  0  0
    5.2151    1.5842  -17.8879 H   0  0  0  0  0  0  0  0  0  0  0  0
    3.2211    5.3827  -16.9584 H   0  0  0  0  0  0  0  0  0  0  0  0
    3.4128    6.3980  -18.2229 H   0  0  0  0  0  0  0  0  0  0  0  0
    3.2458    4.0619  -20.5273 H   0  0  0  0  0  0  0  0  0  0  0  0
  1  2  2  0  0  0  0
  1  9  1  0  0  0  0
  2 17  1  0  0  0  0
  3 11  1  0  0  0  0
  3 12  2  0  0  0  0
  4 11  2  0  0  0  0
  4 13  1  0  0  0  0
  5 12  1  0  0  0  0
  5 13  2  0  0  0  0
  6 14  1  0  0  0  0
  6 15  2  0  0  0  0
  7 14  2  0  0  0  0
  7 16  1  0  0  0  0
  8 15  1  0  0  0  0
  8 16  2  0  0  0  0
  9 34  2  0  0  0  0
 10 17  2  0  0  0  0
 10 34  1  0  0  0  0
 11 18  1  0  0  0  0
 12 19  1  0  0  0  0
 13 24  1  0  0  0  0
 14 27  1  0  0  0  0
 15 44  1  0  0  0  0
 16 45  1  0  0  0  0
 17 46  1  0  0  0  0
 18 36  1  0  0  0  0
 18 39  2  0  0  0  0
 19 37  1  0  0  0  0
 19 40  2  0  0  0  0
 20 22  1  0  0  0  0
 20 35  1  0  0  0  0
 21 23  1  0  0  0  0
 21 35  1  0  0  0  0
 22 38  1  0  0  0  0
 23 32  1  0  0  0  0
 23 38  1  0  0  0  0
 25 28  1  0  0  0  0
 26 29  1  0  0  0  0
 27 33  1  0  0  0  0
 28 30  1  0  0  0  0
 29 31  1  0  0  0  0
 30 37  1  0  0  0  0
 31 37  1  0  0  0  0
 32 33  1  0  0  0  0
 32 43  1  0  0  0  0
 33 36  1  0  0  0  0
 35 46  1  0  0  0  0
 41 46  2  0  0  0  0
 42 46  2  0  0  0  0
  1 47  1  0  0  0  0
  2 48  1  0  0  0  0
  3 49  1  0  0  0  0
  4 50  1  0  0  0  0
  5 51  1  0  0  0  0
  6 52  1  0  0  0  0
  7 53  1  0  0  0  0
  8 54  1  0  0  0  0
  9 55  1  0  0  0  0
 10 56  1  0  0  0  0
 20 57  1  0  0  0  0
 20 58  1  0  0  0  0
 21 59  1  0  0  0  0
 21 60  1  0  0  0  0
 22 61  1  0  0  0  0
 22 62  1  0  0  0  0
 23 63  1  0  0  0  0
 24 64  1  0  0  0  0
 24 65  1  0  0  0  0
 24 66  1  0  0  0  0
 25 67  1  0  0  0  0
 25 68  1  0  0  0  0
 25 69  1  0  0  0  0
 26 70  1  0  0  0  0
 26 71  1  0  0  0  0
 26 72  1  0  0  0  0
 27 73  1  0  0  0  0
 27 74  1  0  0  0  0
 28 75  1  0  0  0  0
 28 76  1  0  0  0  0
 29 77  1  0  0  0  0
 29 78  1  0  0  0  0
 30 79  1  0  0  0  0
 30 80  1  0  0  0  0
 31 81  1  0  0  0  0
 31 82  1  0  0  0  0
 32 83  1  0  0  0  0
 33 84  1  0  0  0  0
 36 85  1  0  0  0  0
 38 86  1  0  0  0  0
 38 87  1  0  0  0  0
 43 88  1  0  0  0  0
M  CHG  1  38   1
M  END
> <OMEGA_C>
e120QLlOKUGYaanBUY/GQKuXIEGZHqDBNzffQFcehrxrpobBbM0IQaBcyz8R+n3BeycFQeJkIb/G
Rm7BrbjbQKginD9h2KrBaR2jQPfdsL5016XBP9zmQF0hl78R2qzBtq66QInfHkFqS7PBD3PjQKnr
A0EFHKvB3CPyQLiFoj+BrYbBM7frQB6Veb9G7H3BJ+MOQXC0Iz9DgG7B2z2yQIX9eT8TzqbBbRH2
QN5CED6tza3B2km9QPnutb/Y7KjBjazeQHmpDUHs+KDByLvkQNyrEUAQmY7B4PPWQPVZE8BHCH3B
Yx6qQDDd/UAyQ4rBgOi/QMI1v0B0zpXBnEWLQCIv4EAQToTBFMSeQEONo0C0vI/Bw/YeQXRAgT/m
al3BFAR2QED7QsBcaI/BRBoZQbycgcCI7YfBi3OVQHgYCEDcs6PBMw+WQOSjisCL/Y/BivUJQcIO
g8DynJHBCE64QE/di8BkHYfBdDrxQBgOQMCS5JDBSQWKQA3JgUDACZfBNvuqQCYqQ0AFaZvBYsfR
QFKRDEGLA7TBGEPNQD8E5UAbc4/BHzW7QCB3DkBbipLBNcLUQJQJS8CvaofBptN3QMbBvkDLmIvB
sfv9QJrhSECzkZHBFSDHQB1vKMDx3WvBV/L/QKLMEkHXk43Bjp4LQf4v5UDJmpjB32tpQO/ClkD+
sZ/BHd4OQe5RwD6bsLHBf0euQNDaK8C9NqjBTp31QLZ4AUEwF5XBa7yhQNLWN0HnAKnBZCLCQJVF
KEGGdZjBjSfHQPPah74NhozBszIQQScmJECyFX7BD24JQQMrrL/JC2LBHDTnQKvuDkC4qavBEWyD
QKciCL8uvKLBUhH7QJqWAMDSIa/BEs2sQGCfJUGFc7rBjpP1QBmJ6kBAxavBZFOYQDq9B0G2cpDB
8hu4QDdWCkGGi4TBBETcQDyMq0A0i5fBJZqxQAlCykCMW53BtfybQPdE0UDDCHvBbspfQMLX8kD7
VIHBkOiuQLk/k0ApEInBuZAWQd8HuT+GnE/BoK0nQUUG3z0uUFjBiFkqQdJB3z/b5mPBwfxFQB98
Q8Bm15XBuoZVQLPEP8B1nIfBRfSPQLLoCsAVWpDBUjolQR/wmsB2s4jBLQ4hQXZ5RMAEm4fBAtwP
QTOehsBhi4DB7NyNQGemLUBu5qrB7XZvQHWh3D93QqDBf9aAQB19psB6FY/BaAemQBwPjMAb05fB
HVcTQWRkfMB79ZjB8yQCQaqTosDX5ZHBiDOoQOITjcBWl37B6vvLQCy/qMDAKYjBZ4QAQcpOAcDc
VpDBtYvdQItvQsC3LpjBiPBkQEfQX0ByQ5LB/2bFQFcgZkDvPp/ByuGmQMLGyj9oGo/BViZOQAk/
rEC7qofBpmpaQJ28zEB8yJHBobtPQNH6gUDbN6TB5aLNQD+dEEHtcbPBlcLhQFkSBkFI5qrBiw7f
QCAvKjyZdIbB7cEIQapj0T9VQH7Bl2EFQfJJEb+d5m3BwHfaQE4zmD+xXqvB5IWiQDKpv74v4aXB
XF7mQEhWm7/HzqzBp/y1QNZpI0EubLHBGJDFQMyUIUEmFp/Bo+LxQKACpj/Vu4bB+uLrQK7Tbb+S
TX3B06YOQSI+Nz/IO27BlCyxQMXAcj8RNqfBOTL1QN8k3j0HC67Bx++8QDL3ub+QyKjBhu7dQCzD
DkGRjqDB90fkQGcLEkCu147BezHXQEtSEMD1BnzBWlOrQDFM/EAuBYrB+OK/QNMuv0AyOpbBhICM
QBcJ3kBFPITBNWqfQKy2okB/JZDBr6MfQcWWij/4BF7BLh8ZQbDUg8ACmYfBo/93QCSlQsA1R4/B
3JiUQEadBkCuHqTBoK8JQRnWg8C0LJHBNmWXQNVLisDOiY/BKBTyQF0WP8ALPpDBM6i4QKPGisDU
bIbBJDCKQARCgUA6dZfBprmqQEt+QUAo5JvB0S6yQLmEK0GzaKfBbfnNQMkN5EDOlo/B3zC7QEBq
DEBfDZPBZWzVQLtWScDXx4bBIot5QIBuvUAet4vBJev8QCm7SkCQsZHBv5LGQNyEI8D96GrBJLUA
QcT3EUFFT43BCIILQeOD5UCjOZnB8o9pQIWwlkDpB6DBNIQOQTQKrz630rHBTW2uQLH+LcAKvKfB
XP71QJ9jAUEDJJXBvjrQQMlmCkEue7vBYdHzQB8q70AuPKzB58nGQNsagr5HO4zB2lwQQZ+0JkBL
537Bph4KQUqmo7+HyWHBeITlQOv3DEA8f6zBvguDQG0YD7/7oaLBkML6QDrKAsAE8q7B44+mQCWI
K0HFALjBMVHCQAkxKEEhJZfBylWZQOWDB0G59Y/B3Ny5QAcICUHPIoTBPAHcQCXJq0DWWZjBSLiw
QDxXy0BZkJ3BA1adQMFRzkAYKXvBNo1iQBl28EAiF4HBgDKwQB8WkkBxn4nBQQgYQai4xD/X6E/B
114oQUtYNT4+KlnBv98qQaWE5j8OMmXB9L4kQVUCnsAHgojBuaghQU0nSsDZRYfBAQEQQbBkiMBY
KIDBCGhJQMcuRMBU35XBTMlVQM7aPsAOmofBlNeQQLxdCsASLJDBoeqMQLUKLEBUUqvBDsxtQLSn
2j/9m6DB8+4SQeLXfsCMlJjBOkcBQfu8osALd5HBvEiCQDRBpsAXr47BqjuoQKsCjMAcQZfBGo8B
QZC/AcAViI/BQVTeQG+sPsDLhpfBZbGnQOALi8D4bX3BlzvMQHLjp8AbJYfBzCtlQDEXX0AeqZLB
wh/FQIn2Y0Aezp/Bc1ynQP1pwj+n2Y/BkztQQHl8qkDk2ofB1o1bQM8ZzEC2wZHBDz1PQGApgkCz
kaTBylHOQJl+EEHtprPBeR3iQEL0BUFtDqvBZojfQIAnBr1/wobBK74IQeWvyj9NJ37Bk+YEQZnU
H79iGW7B9SzcQKlFmT8ow6rBvZejQIRtvb4uyaXBnIHnQN/4mb/7tqzBqs22QHJdI0G7srHBQubF
QF6dIUHMVZ/B6mLyQOOMoD+Q04bBvaLrQG/9er9k4n3BCp0OQXhkJT+Na27BdZyyQLjvcz/JxabB
36f2QG5T9D34qq3Bu+W9QJn2uL9R0ajBPBDeQBy1DkHzuqDBYOnkQBCLEEDpwY7BaLbWQCWAE8Dt
0nzB7fCqQNVG/UANK4rBX9a/QKsrv0DkC5bBic+LQIB130BbVoTB2OKeQGZfo0Dj8Y/ByVIeQTFP
hD8KGl3BZ4J2QJKQQ8DOLo/BXkgZQW/zgcB2q4fBx5yVQIqKBkDwvqPBphWWQDYUi8CXvY/B9xYK
Qa7zg8DyU5HBJGG4QFRfjMB24IbBC3rxQP3aQcCdsJDBVAmKQJpygUCZL5fBmPyqQI0oQkCZfpvB
ltqyQIKNK0GTtKfBVqrNQBOg5EB9mY/Bcjq7QEjLDUAcmJLBJ/LUQGM+TMABN4fB5mN4QHucvkBP
wovBav79QJMuSEB4sZHB0g7GQLYfJ8C2vmvB8ckAQRUTEkHhe43BUlELQVgm5UB9RJnBCZFpQGA2
lkBi4Z/BHzYPQYTYtT4SfbHByf+uQFhsLcA8EKjBEt71QNhqAUGPPpXBIhDRQKQ5CkGRrLvBaBf0
QJrX7kBTV6zBA9bHQJn4lL4zs4zBwioQQcvAI0DbXX7B6QYJQdFFqr98sGHBep3nQJ2HDUDUlKvB
FOCDQMHFDr9Us6LB5Mj7QFf3AcCZ+K7Bc5qnQHh4K0GuULjBQ4rCQKBLKEFPaZfBDzKZQJviB0Ew
M5DBjWa5QN+kCUFSVITBmQTcQN16q0DS75fBnzCxQM2nykD4g53Bul+cQLP7z0C8NXvBHCdhQIwn
8kBCTIHBPTmvQEgqk0A5SYnBgqAVQUAzvT+hjU/BIf0mQQNgDj4PpVfBlMopQQsF4j/ogWPBT2dG
QCX9Q8CPm5XB2iBWQID4P8DDYYfBqVeQQDm9C8CFKJDB62slQTdIm8AQYIjBCzchQVUURcBbdofB
LhUQQe+WhsAIQoDBdACOQMqoK0Aq+qrB5tZvQIZp2T+MS6DBiriAQFPNpsCZzY7Bxf+lQLCvjMBc
lJfBf2wTQc/mfsD6s5jBoUoCQSyAo8Cnf5HBh1OoQAd4jcCeGX7B7PPLQHBUqcBX64fBDKIAQZsP
A8BgMZDBMNfdQC64RMAR/JfBBOtkQAN9X0D7YJLBKG7FQGLrZEBOWZ/BPtOmQJPMyj+BD4/BhjxO
QGgUrEBn6ofB5nNbQHUSzUA06ZHBq8NPQAFUgUANXaTBzjawQMbvK0HmwafB3yrEQJ4dIkFR+57B
WBneQKD+QbxTx4XBq2oKQdbGxD9X3H7BGl4FQTHaGr+362zBZD7dQEipqT8aHqzBMRqqQLDQrb7V
r6XBc7TtQMKdhr9nm63BHim1QOXuIkHXB7LBtcjfQHIuB0EMNKvBSofzQN5mnT/mqobBO6XpQFr/
a7+1SnvB50MQQUsFHz9Bwm7BcpC1QO4YgT/nVqfBMlf5QBk3lz70M6/BSAvGQGYRr78M4KjBY3rc
QAx9D0HYtqDBekXmQKz9DUAVzo7BmL7PQIz4B8AExXfBw8+qQGxN/UA3RIrBwD/AQOlDv0CfEpbB
fwaNQGsL30CVJoTB1BegQG3zokBD1Y/BEuQgQcqfgD/VTl7B/WphQH+8j8CNEo/BzcwWQdkHccA2
sZbBpFeXQC4AB0Ao66PB7raUQDT4YcC0FozBjgQBQTPnVcD9SpLBJzKzQOSlhsA+AoTBUJ0AQQr6
ZsAnOIbB5DiLQOPggECUDJfB81msQCShQUBcfZvBGX/MQD/rEEGPm7PBAL/NQDgS5UBBuY/BC468
QM31C0A1rJLBIybXQCKwU8CUjoHBVJx6QPWOvUDYZYvBiJ//QO6oRECq4JHB6ICwQCWyAcAJBGzB
z9gAQQ9GEkHsoo3BC/YKQRV15kCAzJnB3X5qQBKtlUDkoZ/B8rEPQS5yGT/7vbPBHb26QLUuKsAa
aqfBJGb1QHjdAUFeeZXB9EidQOU5OkGZqKbBO+zAQCC8KEHDCpfBnN/EQL/ahr6/VIvBTrgSQYvJ
HkCzEoDBErcJQXy5pr+Cd2DBKwXmQJ7jFkApZ63BKOGLQLkaFb9p+aHBZpkBQXTM678dA7DBeAOm
QDGQKkF/y7jBJhLyQNqI8UAwjKzB1x6YQK1mB0EbTpDBCxW5QNIWCkHxm4TBq63cQCMMrEB1CJjB
aAKxQP9XykCLgZ3Bb62eQPAv0EBuAnvB1HhjQIBA8UDu9YDBfzKxQE7GkkBySonB6xMZQeQ1wj/q
1VDBpvsoQSjkyj0CdVjBP7gsQbG31j98qGXBczM2QKQpgMBa05TBGsV8QHm8rMA7tJLB5l49QJp9
mMBc1ofBbVEXQY8fZcCQXJ/B83kjQR3iS8CpupLBJkoZQbjPmsCOJpXBWKCOQByCLUCw9KrBg7B0
QHlE1D9ReaDBL7KmQAR5UMCvVJPBFf+GQEX7J8DQdojBI/r8QOpKEcAvzpPBiZroQD0Ie8AUOpbB
4pmhQJXgjcBvNXnBq5u/QO+GpMCPeYfBXl8EQbtllcAGyoTBrMAMQYOaPsAfVILBLytoQL65XUBy
LpLBttXGQFUfZUCBOJ/B6haoQCdlxj+POo/BWF9SQOmkqkD1WofBimpbQO58y0AJdJHB/6BQQDfJ
gECkG6TBmwnQQB4EDEGlT7PBLdfjQADZAkH4VarBX5jgQOzD6z0VFIbBi6ALQaMi2j8dWoDB7J4H
QTQv2L5vCW7Bv3vXQBmimD8lbqzB9cmjQOqrxL6W8KTB5j7lQO9rmr86Sa3BKzW4QH0HH0G9ErLB
Ze3GQLYCIEH6rJ/B5GX1QIsWrj+gVofBHWrtQErKQ7+YwnvBfTESQWfmTj8zinDBOl2wQCcZcT/D
KafBc/bxQFp58z13ca/BmR2+QCZ9ur8iDajB7m/fQHYQDUGGXKDBZ/jmQCl7E0Csq4/BKRDUQPjp
+r9gUnfBwHWqQCHX+0B1nonBg9q/QLr7vkBgzJXBgXWLQHZi3UBR94PB1eGeQB50okBO9Y/BpFAj
QbHFmj/tuGDBOjxuQIwcksBRy43BsAoVQYGhe8DPbJfB7teTQEnLBUBQ46PBrBCXQMP9X8C/RorB
13MAQb+4WcD+Y5LBkg+4QBCtg8CUe4LBKGcCQVkuXsDJJYbB0RKKQPuNgUDFfpfBDb2qQEqWQkAs
AJzBIvizQLelKEExaajBrX/NQJGi40BgB4/BRLK8QJOqD0DMJZPByKrbQOISS8C15YDBhBt4QN4L
vUCHj4vBagMAQYspSED7XZPBwgC1QF/E6r8vg2vBGP7+QNmHEkGNzYzB2CcMQU0B5UC9r5fBpjxq
QK1rl0DwEqDByMMLQYT/uD6jcLTBxbyxQBeRLsBDDabBmuv1QOcfAUH6X5TBFwLTQD2ZBEFHFLvB
MRf2QFZ+6EB4EavBIdzGQOS9Jb4KZ4vBlZETQe4SKkDTNIHB8oEMQWBRjb/zjmHB1xbhQN1GDUCs
Ja7Ba/eFQM1ZE7/h2aDB/3/5QB7wAcBopa/BIf6oQE0VJkGU+7jBmTnDQADIJ0GoA5jB0siYQAY+
B0F3oo/B7oW4QP3WCEEfroPBZxjcQMuTq0DEz5fBclOxQF1ky0BzMJ3BSw6cQJ5yzUDtnHrBYzRg
QEyu70A32IDB/SOvQLNVkUBebonBe+cbQW433T/hFlPByq4rQRPnnj7S+1rBUdQuQc+58D95lGjB
R4A/QJjmg8CRVZPBBD+IQNlArMDD15HBlKJMQPjLnsDKvYbB4r8TQa+ceMBzMaDB0aQiQeVRVMCS
xZTBApEXQT8yn8Ar75TB8amKQGsWKkAZEqvBs+5tQDUL2D+1BaDBa8+nQEelRsC5VpHBseGFQIa7
K8DAPIbBM9P7QJDvFsAH3pTBlqvlQBSBgMChB5XBhYyoQN8qisDpgHXBHmzEQI3BocCf2YXByI4H
QcZ2j8C72IPBXGgOQdNQL8D1e4PBVm5kQH8BX0DL25LBCk7EQEBDZUA9OKDBkQapQHWrzj9UWo/B
SnJOQO35qUCAzIfBAqlaQCrvy0A6nJHBCYhQQGceg0DJuqTB

> <OMEGA_E>
kIa4PRCvuD0AELA9qG/EPgBIyz4=

> <OMEGA_NBR>
     52245

$$$$
50162138
  -OEChem-04172616093D

 91 94  0     1  0  0  0  0  0999 V2000
    6.9816    0.0312  -16.8764 C   0  0  0  0  0  0  0  0  0  0  0  0
    8.6416    1.6004  -16.0090 C   0  0  0  0  0  0  0  0  0  0  0  0
    8.3723   -0.5892  -14.9700 C   0  0  0  0  0  0  0  0  0  0  0  0
    6.8496    1.4509  -21.5547 C   0  0  0  0  0  0  0  0  0  0  0  0
    5.2959   -0.2626  -20.7657 C   0  0  0  0  0  0  0  0  0  0  0  0
    7.4121   -0.9094  -21.7904 C   0  0  0  0  0  0  0  0  0  0  0  0
    7.6103    1.2998  -16.9263 C   0  0  0  0  0  0  0  0  0  0  0  0
    7.3698   -0.9159  -15.9033 C   0  0  0  0  0  0  0  0  0  0  0  0
    9.0280    0.6543  -15.0388 C   0  0  0  0  0  0  0  0  0  0  0  0
    5.6230    1.0939  -20.9510 C   0  0  0  0  0  0  0  0  0  0  0  0
    7.7460    0.4484  -21.9677 C   0  0  0  0  0  0  0  0  0  0  0  0
    6.1845   -1.2623  -21.1942 C   0  0  0  0  0  0  0  0  0  0  0  0
    8.2048    9.2139  -15.9034 C   0  0  0  0  0  0  0  0  0  0  0  0
    8.3316    8.6819  -17.1716 C   0  0  0  0  0  0  0  0  0  0  0  0
    9.2431   10.9602  -16.9487 C   0  0  0  0  0  0  0  0  0  0  0  0
    7.1706    2.3094  -17.9102 C   0  0  0  0  0  0  0  0  0  0  0  0
    6.6932   -2.2231  -15.8092 C   0  0  0  0  0  0  0  0  0  0  0  0
    5.2670    8.0598  -17.6194 C   0  0  0  0  0  0  0  0  0  0  0  0
    5.7154    6.1583  -19.1663 C   0  0  0  0  0  0  0  0  0  0  0  0
    4.5538    7.1122  -16.6451 C   0  0  0  0  0  0  0  0  0  0  0  0
    4.9986    5.2178  -18.1588 C   0  0  2  0  0  0  0  0  0  0  0  0
   10.0967    0.9990  -14.0263 C   0  0  0  0  0  0  0  0  0  0  0  0
    7.5446    8.5762  -14.6910 C   0  0  0  0  0  0  0  0  0  0  0  0
    9.9509   12.2825  -17.1015 C   0  0  0  0  0  0  0  0  0  0  0  0
    3.9007   -3.1135  -17.9461 C   0  0  0  0  0  0  0  0  0  0  0  0
    9.5846   -4.1121  -16.7732 C   0  0  0  0  0  0  0  0  0  0  0  0
    4.6561    2.1587  -20.4970 C   0  0  0  0  0  0  0  0  0  0  0  0
    4.7904   -4.3699  -17.9676 C   0  0  0  0  0  0  0  0  0  0  0  0
    8.7053   -4.1528  -18.0338 C   0  0  0  0  0  0  0  0  0  0  0  0
    5.8127   -4.3577  -16.8142 C   0  0  0  0  0  0  0  0  0  0  0  0
    7.6416   -3.0338  -18.0163 C   0  0  0  0  0  0  0  0  0  0  0  0
    4.2885    4.0701  -18.8781 C   0  0  2  0  0  0  0  0  0  0  0  0
    5.3181    3.0833  -19.4616 C   0  0  1  0  0  0  0  0  0  0  0  0
    8.7815   10.4830  -15.8150 N   0  0  0  0  0  0  0  0  0  0  0  0
    6.2609    7.3012  -18.4343 N   0  0  2  0  0  0  0  0  0  0  0  0
    5.8606    2.2581  -18.3706 N   0  0  0  0  0  0  0  0  0  0  0  0
    6.6975   -3.1584  -16.8677 N   0  0  0  0  0  0  0  0  0  0  0  0
    3.9813    5.9819  -17.4004 N   0  3  0  0  0  0  0  0  0  0  0  0
    7.9410    3.1868  -18.2881 O   0  0  0  0  0  0  0  0  0  0  0  0
    6.1294   -2.4828  -14.7515 O   0  0  0  0  0  0  0  0  0  0  0  0
    7.7263    6.1336  -16.6620 O   0  0  0  0  0  0  0  0  0  0  0  0
    8.7079    6.7696  -18.9213 O   0  0  0  0  0  0  0  0  0  0  0  0
    3.4508    4.6107  -19.9025 O   0  0  0  0  0  0  0  0  0  0  0  0
    8.9232    0.7888  -22.5395 F   0  0  0  0  0  0  0  0  0  0  0  0
    5.8492   -2.5618  -21.0453 F   0  0  0  0  0  0  0  0  0  0  0  0
    9.0227    9.8419  -18.2500 S   0  0  0  0  0  0  0  0  0  0  0  0
    7.8254    7.0745  -17.7859 S   0  0  0  0  0  0  0  0  0  0  0  0
    6.2033   -0.2123  -17.5845 H   0  0  0  0  0  0  0  0  0  0  0  0
    9.1361    2.5597  -16.0514 H   0  0  0  0  0  0  0  0  0  0  0  0
    8.6391   -1.2958  -14.1981 H   0  0  0  0  0  0  0  0  0  0  0  0
    7.0986    2.4919  -21.6988 H   0  0  0  0  0  0  0  0  0  0  0  0
    4.3628   -0.5344  -20.2946 H   0  0  0  0  0  0  0  0  0  0  0  0
    8.0973   -1.6800  -22.1115 H   0  0  0  0  0  0  0  0  0  0  0  0
    4.5249    8.5215  -18.2873 H   0  0  0  0  0  0  0  0  0  0  0  0
    5.7861    8.8447  -17.0497 H   0  0  0  0  0  0  0  0  0  0  0  0
    6.5314    5.6141  -19.6644 H   0  0  0  0  0  0  0  0  0  0  0  0
    4.9960    6.5106  -19.9200 H   0  0  0  0  0  0  0  0  0  0  0  0
    5.2750    6.7334  -15.9060 H   0  0  0  0  0  0  0  0  0  0  0  0
    3.7487    7.6543  -16.1274 H   0  0  0  0  0  0  0  0  0  0  0  0
    5.7458    4.8028  -17.4664 H   0  0  0  0  0  0  0  0  0  0  0  0
    9.6320    1.4718  -13.1485 H   0  0  0  0  0  0  0  0  0  0  0  0
   10.6171    0.0810  -13.7158 H   0  0  0  0  0  0  0  0  0  0  0  0
   10.8189    1.6949  -14.4782 H   0  0  0  0  0  0  0  0  0  0  0  0
    7.6160    9.2597  -13.8320 H   0  0  0  0  0  0  0  0  0  0  0  0
    6.4860    8.3760  -14.9130 H   0  0  0  0  0  0  0  0  0  0  0  0
    8.0540    7.6313  -14.4508 H   0  0  0  0  0  0  0  0  0  0  0  0
   10.0180   12.7783  -16.1219 H   0  0  0  0  0  0  0  0  0  0  0  0
   10.9634   12.1128  -17.4966 H   0  0  0  0  0  0  0  0  0  0  0  0
    9.3878   12.9213  -17.7978 H   0  0  0  0  0  0  0  0  0  0  0  0
    3.1853   -3.1558  -18.7806 H   0  0  0  0  0  0  0  0  0  0  0  0
    3.3512   -3.0697  -16.9942 H   0  0  0  0  0  0  0  0  0  0  0  0
    4.5299   -2.2170  -18.0479 H   0  0  0  0  0  0  0  0  0  0  0  0
   10.3292   -4.9205  -16.8187 H   0  0  0  0  0  0  0  0  0  0  0  0
   10.0999   -3.1419  -16.7169 H   0  0  0  0  0  0  0  0  0  0  0  0
    8.9537   -4.2446  -15.8819 H   0  0  0  0  0  0  0  0  0  0  0  0
    4.3410    2.7554  -21.3657 H   0  0  0  0  0  0  0  0  0  0  0  0
    3.7764    1.6788  -20.0432 H   0  0  0  0  0  0  0  0  0  0  0  0
    4.1528   -5.2610  -17.8708 H   0  0  0  0  0  0  0  0  0  0  0  0
    5.3315   -4.4083  -18.9245 H   0  0  0  0  0  0  0  0  0  0  0  0
    9.3444   -4.0249  -18.9200 H   0  0  0  0  0  0  0  0  0  0  0  0
    8.1982   -5.1276  -18.0850 H   0  0  0  0  0  0  0  0  0  0  0  0
    5.2696   -4.3566  -15.8576 H   0  0  0  0  0  0  0  0  0  0  0  0
    6.4352   -5.2621  -16.8812 H   0  0  0  0  0  0  0  0  0  0  0  0
    8.1531   -2.0623  -17.9482 H   0  0  0  0  0  0  0  0  0  0  0  0
    7.0657   -3.0802  -18.9524 H   0  0  0  0  0  0  0  0  0  0  0  0
    3.6731    3.5297  -18.1437 H   0  0  0  0  0  0  0  0  0  0  0  0
    6.1271    3.6494  -19.9463 H   0  0  0  0  0  0  0  0  0  0  0  0
    5.2396    1.6117  -17.9271 H   0  0  0  0  0  0  0  0  0  0  0  0
    3.5327    5.3627  -16.7560 H   0  0  0  0  0  0  0  0  0  0  0  0
    3.3053    6.3392  -18.0450 H   0  0  0  0  0  0  0  0  0  0  0  0
    3.0058    3.9035  -20.3544 H   0  0  0  0  0  0  0  0  0  0  0  0
  1  7  1  0  0  0  0
  1  8  2  0  0  0  0
  2  7  2  0  0  0  0
  2  9  1  0  0  0  0
  3  8  1  0  0  0  0
  3  9  2  0  0  0  0
  4 10  1  0  0  0  0
  4 11  2  0  0  0  0
  5 10  2  0  0  0  0
  5 12  1  0  0  0  0
  6 11  1  0  0  0  0
  6 12  2  0  0  0  0
  7 16  1  0  0  0  0
  8 17  1  0  0  0  0
  9 22  1  0  0  0  0
 10 27  1  0  0  0  0
 11 44  1  0  0  0  0
 12 45  1  0  0  0  0
 13 14  2  0  0  0  0
 13 23  1  0  0  0  0
 13 34  1  0  0  0  0
 14 46  1  0  0  0  0
 14 47  1  0  0  0  0
 15 24  1  0  0  0  0
 15 34  2  0  0  0  0
 15 46  1  0  0  0  0
 16 36  1  0  0  0  0
 16 39  2  0  0  0  0
 17 37  1  0  0  0  0
 17 40  2  0  0  0  0
 18 20  1  0  0  0  0
 18 35  1  0  0  0  0
 19 21  1  0  0  0  0
 19 35  1  0  0  0  0
 20 38  1  0  0  0  0
 21 32  1  0  0  0  0
 21 38  1  0  0  0  0
 25 28  1  0  0  0  0
 26 29  1  0  0  0  0
 27 33  1  0  0  0  0
 28 30  1  0  0  0  0
 29 31  1  0  0  0  0
 30 37  1  0  0  0  0
 31 37  1  0  0  0  0
 32 33  1  0  0  0  0
 32 43  1  0  0  0  0
 33 36  1  0  0  0  0
 35 47  1  0  0  0  0
 41 47  2  0  0  0  0
 42 47  2  0  0  0  0
  1 48  1  0  0  0  0
  2 49  1  0  0  0  0
  3 50  1  0  0  0  0
  4 51  1  0  0  0  0
  5 52  1  0  0  0  0
  6 53  1  0  0  0  0
 18 54  1  0  0  0  0
 18 55  1  0  0  0  0
 19 56  1  0  0  0  0
 19 57  1  0  0  0  0
 20 58  1  0  0  0  0
 20 59  1  0  0  0  0
 21 60  1  0  0  0  0
 22 61  1  0  0  0  0
 22 62  1  0  0  0  0
 22 63  1  0  0  0  0
 23 64  1  0  0  0  0
 23 65  1  0  0  0  0
 23 66  1  0  0  0  0
 24 67  1  0  0  0  0
 24 68  1  0  0  0  0
 24 69  1  0  0  0  0
 25 70  1  0  0  0  0
 25 71  1  0  0  0  0
 25 72  1  0  0  0  0
 26 73  1  0  0  0  0
 26 74  1  0  0  0  0
 26 75  1  0  0  0  0
 27 76  1  0  0  0  0
 27 77  1  0  0  0  0
 28 78  1  0  0  0  0
 28 79  1  0  0  0  0
 29 80  1  0  0  0  0
 29 81  1  0  0  0  0
 30 82  1  0  0  0  0
 30 83  1  0  0  0  0
 31 84  1  0  0  0  0
 31 85  1  0  0  0  0
 32 86  1  0  0  0  0
 33 87  1  0  0  0  0
 36 88  1  0  0  0  0
 38 89  1  0  0  0  0
 38 90  1  0  0  0  0
 43 91  1  0  0  0  0
M  CHG  1  38   1
M  END
> <OMEGA_C>
YWnfQCCk/zzkAofB/UMKQWTbzD9fEoDBvfQFQenVFr8ohW/B7C/bQIq4uT/zb6zBK3ipQC54hr4i
IKbBATDtQAPPaL+pUq7BgofzQGRepj/+aIfBG9XrQFN5ar8bdH7BwXIQQUB/Jz8Hn3DBv++zQKcF
jD+Ym6fB8N73QEGZ5T7Gva/BcOfFQA6Sob+3janB80YDQTNsE0EzdH7BI04FQevoCkFrX4nB1OMT
QdBcL0HvlofBTXXlQG7ME0AQSI/Bdy7WQNhHDsBW8nzB3YqoQBz1AEF19IzB8OS2QHIQxUB9VJnB
sbiRQIqX40A7KYXBfPSfQG34pkAgRZHBG4whQWu+fz/qa2DBb23xQEU4CUExDmvByzYfQQKFREHJ
z4jBqqR5QN1CR8CdkY/BcloZQaWWg8CRL4bB8P6UQN4nCkDC+aPBjkqZQO7Vi8CyvY/B7UgLQajj
hMBKRZDB2QG6QIdyi8Bng4bBpYf0QM4pQsBRIZDBQzuJQAs+gkBEBpfByy2qQElURUBisZvB7YAM
QS+6J0EbCn3BsFnIQKWj6UBgeZPB04m7QDWEEED49pLBClLWQHwjSsDz8IbB3M1+QMFrv0AZNIvB
eBz+QIL0S0AaTpLB6SPEQMflHsBEBmzBzz33QCJGxEDcS4XBsFMLQWig2EDWXpfBuNlcQCiLk0BV
OJ/BPsUOQWXxST/4ULTBpyy7QFL1I8DGXKjBz1wQQZl4HUENAJLBlmn6QH5i4kBySY7BuoHGQNpf
Wb4SrYzBXi0SQXzRI0A3aYDBtDkKQefcpb89K2PBByjjQF97H0Avl63BUZyLQAnMCL9fW6LBko4B
QbYJ179R5LDBq8uQQERYCEFgTJLBkie5QPGDDUHZZYjBKgHRQMmms0CqUJ3B596fQCZX0EA1XJ/B
jMyoQJx310Dlfn7BButvQDTw9ED9BIHBxt23QDmwmUAou4vB3hwaQVpjvD9cYFLBxN8pQR3rpT3D
c1vBJRotQeDy2D+tpmfBobbzQMcnFEEEUF3Bfo3PQBoEBkGnm27BJN0AQcQz9EClNmfB2EkgQQl0
TEGQ+YDB4mkvQQfOQUH2+IvBiTQWQZS9TkHmYY7BfNtLQD74ScCwPpbBqnpWQER1RMAI9IfBIPWQ
QMfiDcACYpDBXEQlQfh0ncCqjIbBB5khQVQVScAovIXBekIPQZ3Th8A1HH7Bz+mKQDRYMEDl7KrB
JbFxQE3i1j+QWKDBxuOEQFJaqMB7947BkZuqQBMRjcB2ZZfBhIIVQWHMgMAfXJfB9ysDQVQVpMAR
rpDBlKCoQNxoi8C4uH3Bf+3NQIhjqMDGDIfB8nICQWb9A8AAlo/BaBriQKQiRcBsnpfBwRNrQAbn
YUBFJpHBSxHEQCOQaUAYkp/BIqunQFxMzj/Fao/BKxhiQA2bq0A/DIbBR4pTQFnaykAPXJDBkl5A
QCbSeUDP1aLB

> <OMEGA_E>
MAocPw==

> <OMEGA_NBR>
     54048

$$$$
50162165
  -OEChem-04172616093D

 92 95  0     1  0  0  0  0  0999 V2000
    6.6682    8.4584  -22.5058 C   0  0  0  0  0  0  0  0  0  0  0  0
    5.9107    9.6447  -22.4609 C   0  0  0  0  0  0  0  0  0  0  0  0
    7.2610    7.9582  -21.3307 C   0  0  0  0  0  0  0  0  0  0  0  0
    7.0011    0.0335  -16.8659 C   0  0  0  0  0  0  0  0  0  0  0  0
    8.5647    1.6634  -15.9340 C   0  0  0  0  0  0  0  0  0  0  0  0
    8.3660   -0.5490  -14.9301 C   0  0  0  0  0  0  0  0  0  0  0  0
    6.8087    1.2718  -21.4190 C   0  0  0  0  0  0  0  0  0  0  0  0
    5.0817   -0.3200  -20.7445 C   0  0  0  0  0  0  0  0  0  0  0  0
    6.3422    9.8341  -20.0678 C   0  0  0  0  0  0  0  0  0  0  0  0
    7.2004   -1.1246  -21.6446 C   0  0  0  0  0  0  0  0  0  0  0  0
    7.5773    1.3251  -16.8850 C   0  0  0  0  0  0  0  0  0  0  0  0
    7.4057   -0.9106  -15.8975 C   0  0  0  0  0  0  0  0  0  0  0  0
    5.7584   10.3398  -21.2423 C   0  0  0  0  0  0  0  0  0  0  0  0
    8.9625    0.7264  -14.9612 C   0  0  0  0  0  0  0  0  0  0  0  0
    5.5255    1.0091  -20.8902 C   0  0  0  0  0  0  0  0  0  0  0  0
    7.6495    0.2042  -21.7833 C   0  0  0  0  0  0  0  0  0  0  0  0
    5.9132   -1.3841  -21.1323 C   0  0  0  0  0  0  0  0  0  0  0  0
    7.1023    8.6514  -20.1100 C   0  0  0  0  0  0  0  0  0  0  0  0
    7.1334    2.3180  -17.8774 C   0  0  0  0  0  0  0  0  0  0  0  0
    6.7602   -2.2372  -15.8221 C   0  0  0  0  0  0  0  0  0  0  0  0
    5.3292    7.9227  -17.2815 C   0  0  0  0  0  0  0  0  0  0  0  0
    5.9503    5.9563  -18.7159 C   0  0  0  0  0  0  0  0  0  0  0  0
    4.3176    7.0313  -16.5498 C   0  0  0  0  0  0  0  0  0  0  0  0
    4.9037    5.1084  -17.9638 C   0  0  2  0  0  0  0  0  0  0  0  0
    4.9021   11.5800  -21.1725 C   0  0  0  0  0  0  0  0  0  0  0  0
    9.9696    1.1156  -13.9023 C   0  0  0  0  0  0  0  0  0  0  0  0
    3.8706   -3.0098  -17.9174 C   0  0  0  0  0  0  0  0  0  0  0  0
    9.6385   -3.9475  -16.9886 C   0  0  0  0  0  0  0  0  0  0  0  0
    4.6149    2.1444  -20.4859 C   0  0  0  0  0  0  0  0  0  0  0  0
    4.7255   -4.2894  -17.9841 C   0  0  0  0  0  0  0  0  0  0  0  0
    8.6722   -4.0466  -18.1798 C   0  0  0  0  0  0  0  0  0  0  0  0
    5.7966   -4.3144  -16.8747 C   0  0  0  0  0  0  0  0  0  0  0  0
    7.5773   -2.9610  -18.1123 C   0  0  0  0  0  0  0  0  0  0  0  0
    4.2562    4.0610  -18.8858 C   0  0  2  0  0  0  0  0  0  0  0  0
    5.2911    3.0673  -19.4529 C   0  0  1  0  0  0  0  0  0  0  0  0
    6.4105    7.0962  -17.8952 N   0  0  1  0  0  0  0  0  0  0  0  0
    5.8303    2.2455  -18.3569 N   0  0  0  0  0  0  0  0  0  0  0  0
    6.6869   -3.1177  -16.9260 N   0  0  0  0  0  0  0  0  0  0  0  0
    3.8252    5.9807  -17.4540 N   0  3  0  0  0  0  0  0  0  0  0  0
    7.9062    3.1908  -18.2584 O   0  0  0  0  0  0  0  0  0  0  0  0
    6.2554   -2.5466  -14.7481 O   0  0  0  0  0  0  0  0  0  0  0  0
    8.0456    9.0797  -17.6690 O   0  0  0  0  0  0  0  0  0  0  0  0
    8.7792    6.9804  -18.9124 O   0  0  0  0  0  0  0  0  0  0  0  0
    3.5834    4.7272  -19.9572 O   0  0  0  0  0  0  0  0  0  0  0  0
    8.8836    0.4557  -22.2752 F   0  0  0  0  0  0  0  0  0  0  0  0
    5.4707   -2.6554  -21.0185 F   0  0  0  0  0  0  0  0  0  0  0  0
    7.7372    7.9587  -18.5677 S   0  0  0  0  0  0  0  0  0  0  0  0
    6.7942    7.9327  -23.4408 H   0  0  0  0  0  0  0  0  0  0  0  0
    5.4462   10.0228  -23.3596 H   0  0  0  0  0  0  0  0  0  0  0  0
    7.8367    7.0451  -21.3626 H   0  0  0  0  0  0  0  0  0  0  0  0
    6.2491   -0.2313  -17.5946 H   0  0  0  0  0  0  0  0  0  0  0  0
    9.0163    2.6442  -15.9529 H   0  0  0  0  0  0  0  0  0  0  0  0
    8.6454   -1.2540  -14.1612 H   0  0  0  0  0  0  0  0  0  0  0  0
    7.1440    2.2909  -21.5435 H   0  0  0  0  0  0  0  0  0  0  0  0
    4.1028   -0.5209  -20.3349 H   0  0  0  0  0  0  0  0  0  0  0  0
    6.2069   10.3546  -19.1312 H   0  0  0  0  0  0  0  0  0  0  0  0
    7.8428   -1.9442  -21.9309 H   0  0  0  0  0  0  0  0  0  0  0  0
    4.8105    8.4843  -18.0724 H   0  0  0  0  0  0  0  0  0  0  0  0
    5.7756    8.6271  -16.5642 H   0  0  0  0  0  0  0  0  0  0  0  0
    6.8140    5.3218  -18.9637 H   0  0  0  0  0  0  0  0  0  0  0  0
    5.5002    6.3412  -19.6428 H   0  0  0  0  0  0  0  0  0  0  0  0
    4.8050    6.5649  -15.6809 H   0  0  0  0  0  0  0  0  0  0  0  0
    3.4707    7.6452  -16.2095 H   0  0  0  0  0  0  0  0  0  0  0  0
    5.3956    4.5936  -17.1254 H   0  0  0  0  0  0  0  0  0  0  0  0
    3.8610   11.2959  -20.9595 H   0  0  0  0  0  0  0  0  0  0  0  0
    5.2736   12.2374  -20.3726 H   0  0  0  0  0  0  0  0  0  0  0  0
    4.9476   12.1114  -22.1346 H   0  0  0  0  0  0  0  0  0  0  0  0
    9.4453    1.5537  -13.0403 H   0  0  0  0  0  0  0  0  0  0  0  0
   10.5247    0.2228  -13.5787 H   0  0  0  0  0  0  0  0  0  0  0  0
   10.6718    1.8533  -14.3179 H   0  0  0  0  0  0  0  0  0  0  0  0
    3.1200   -3.0274  -18.7214 H   0  0  0  0  0  0  0  0  0  0  0  0
    3.3629   -2.9585  -16.9430 H   0  0  0  0  0  0  0  0  0  0  0  0
    4.5185   -2.1294  -18.0401 H   0  0  0  0  0  0  0  0  0  0  0  0
   10.4031   -4.7342  -17.0696 H   0  0  0  0  0  0  0  0  0  0  0  0
   10.1255   -2.9612  -16.9928 H   0  0  0  0  0  0  0  0  0  0  0  0
    9.0784   -4.0759  -16.0506 H   0  0  0  0  0  0  0  0  0  0  0  0
    4.3593    2.7335  -21.3790 H   0  0  0  0  0  0  0  0  0  0  0  0
    3.6967    1.7275  -20.0465 H   0  0  0  0  0  0  0  0  0  0  0  0
    4.0689   -5.1640  -17.8662 H   0  0  0  0  0  0  0  0  0  0  0  0
    5.2245   -4.3349  -18.9633 H   0  0  0  0  0  0  0  0  0  0  0  0
    9.2413   -3.9226  -19.1129 H   0  0  0  0  0  0  0  0  0  0  0  0
    8.1942   -5.0373  -18.1708 H   0  0  0  0  0  0  0  0  0  0  0  0
    5.2936   -4.3406  -15.8968 H   0  0  0  0  0  0  0  0  0  0  0  0
    6.4110   -5.2188  -16.9954 H   0  0  0  0  0  0  0  0  0  0  0  0
    8.0617   -1.9747  -18.0614 H   0  0  0  0  0  0  0  0  0  0  0  0
    6.9641   -3.0218  -19.0235 H   0  0  0  0  0  0  0  0  0  0  0  0
    3.5262    3.4901  -18.2932 H   0  0  0  0  0  0  0  0  0  0  0  0
    6.1015    3.6275  -19.9422 H   0  0  0  0  0  0  0  0  0  0  0  0
    5.2139    1.5866  -17.9256 H   0  0  0  0  0  0  0  0  0  0  0  0
    3.1659    5.4159  -16.9577 H   0  0  0  0  0  0  0  0  0  0  0  0
    3.3723    6.4159  -18.2321 H   0  0  0  0  0  0  0  0  0  0  0  0
    3.1822    4.0833  -20.5289 H   0  0  0  0  0  0  0  0  0  0  0  0
  1  2  1  0  0  0  0
  1  3  2  0  0  0  0
  2 13  2  0  0  0  0
  3 18  1  0  0  0  0
  4 11  1  0  0  0  0
  4 12  2  0  0  0  0
  5 11  2  0  0  0  0
  5 14  1  0  0  0  0
  6 12  1  0  0  0  0
  6 14  2  0  0  0  0
  7 15  1  0  0  0  0
  7 16  2  0  0  0  0
  8 15  2  0  0  0  0
  8 17  1  0  0  0  0
  9 13  1  0  0  0  0
  9 18  2  0  0  0  0
 10 16  1  0  0  0  0
 10 17  2  0  0  0  0
 11 19  1  0  0  0  0
 12 20  1  0  0  0  0
 13 25  1  0  0  0  0
 14 26  1  0  0  0  0
 15 29  1  0  0  0  0
 16 45  1  0  0  0  0
 17 46  1  0  0  0  0
 18 47  1  0  0  0  0
 19 37  1  0  0  0  0
 19 40  2  0  0  0  0
 20 38  1  0  0  0  0
 20 41  2  0  0  0  0
 21 23  1  0  0  0  0
 21 36  1  0  0  0  0
 22 24  1  0  0  0  0
 22 36  1  0  0  0  0
 23 39  1  0  0  0  0
 24 34  1  0  0  0  0
 24 39  1  0  0  0  0
 27 30  1  0  0  0  0
 28 31  1  0  0  0  0
 29 35  1  0  0  0  0
 30 32  1  0  0  0  0
 31 33  1  0  0  0  0
 32 38  1  0  0  0  0
 33 38  1  0  0  0  0
 34 35  1  0  0  0  0
 34 44  1  0  0  0  0
 35 37  1  0  0  0  0
 36 47  1  0  0  0  0
 42 47  2  0  0  0  0
 43 47  2  0  0  0  0
  1 48  1  0  0  0  0
  2 49  1  0  0  0  0
  3 50  1  0  0  0  0
  4 51  1  0  0  0  0
  5 52  1  0  0  0  0
  6 53  1  0  0  0  0
  7 54  1  0  0  0  0
  8 55  1  0  0  0  0
  9 56  1  0  0  0  0
 10 57  1  0  0  0  0
 21 58  1  0  0  0  0
 21 59  1  0  0  0  0
 22 60  1  0  0  0  0
 22 61  1  0  0  0  0
 23 62  1  0  0  0  0
 23 63  1  0  0  0  0
 24 64  1  0  0  0  0
 25 65  1  0  0  0  0
 25 66  1  0  0  0  0
 25 67  1  0  0  0  0
 26 68  1  0  0  0  0
 26 69  1  0  0  0  0
 26 70  1  0  0  0  0
 27 71  1  0  0  0  0
 27 72  1  0  0  0  0
 27 73  1  0  0  0  0
 28 74  1  0  0  0  0
 28 75  1  0  0  0  0
 28 76  1  0  0  0  0
 29 77  1  0  0  0  0
 29 78  1  0  0  0  0
 30 79  1  0  0  0  0
 30 80  1  0  0  0  0
 31 81  1  0  0  0  0
 31 82  1  0  0  0  0
 32 83  1  0  0  0  0
 32 84  1  0  0  0  0
 33 85  1  0  0  0  0
 33 86  1  0  0  0  0
 34 87  1  0  0  0  0
 35 88  1  0  0  0  0
 37 89  1  0  0  0  0
 39 90  1  0  0  0  0
 39 91  1  0  0  0  0
 44 92  1  0  0  0  0
M  CHG  1  39   1
M  END
> <OMEGA_C>
pmHVQJhVB0HhC7TB1CS9QMFQGkHxr7PB5lnoQM6p/kBgparBsAjgQIEeCT1y7YbB2wgJQezp1D/b
8X7B79oFQeaIDL/X4W7BJuHZQA/Loj8iWqvBhZ2iQNjZo7699KXBjvPKQFRYHUHHiqDBqmnmQOry
j78hKK3Bd3nyQCKdqT9pFIfBy/vsQG4aab8rXH7BzUS4QKhvJUEq8KnBWWYPQWDyOT8DYW/BuNCw
QPgpgT8tH6fBDMn0QFweUT4qRK7BTTm9QLkrsb8ND6nBHUbjQPVrCkFX4aDBCEXkQOVZFEDuBI/B
jFPYQLMuD8B/J33BHomqQPmG/UCQQIrBIWm+QD6avkAiupXBGSqKQFUA4UD+ZYTBu+qcQFd4o0DE
tY/BLd6cQMNHOUFGYanBZoMfQS3Mjj/2b17BNLh3QKGgQMDjVo/BVDcaQS+kfMC46IfBYa2TQBg9
CUAs46PBRjeXQPtCicBa34/BRsEKQfR9gcBCcJHBj325QLkPisBv/4bB6XjyQNWAPcDp5ZDB8TKI
QIbzgUAVFpfBXFCpQPZORECkn5vBHyPNQEYU40BLKY/BbpG6QAO2D0D42pLBHfvVQMSHR8BjaIfB
uNB0QKZhv0DMoYvBMf/8QL02TEAnEZLBOCzIQCj8IsA3+GvBtLoAQZJGEUERWo3BhHcMQYNf30CS
TJfB/lZlQI9Fl0BaqJ/BKiMOQbJN6T6LM7LBLxCvQHrxKcD8JajBipf3QIqt/kCbipTBUmrZQKnY
/UCthrvBVEeuQGRdIEF54LrBpsb6QCtx4UCh5qrB8vjHQEndbL6uwYzB3UIQQQg7KUAgP3/BoVMK
QeSBoL9AlGLBjJvkQPydEkAbWazBbkqDQIxaBb/HraLB/Z7GQJ2sJUHEDJnBIPj6QGnb+L+Vcq/B
ou+ZQK6/B0FdlJDBzdG4QLYICkF1g4TBfQzaQBpMqkCZtZfBegGwQDjrykCEJJ3BNcKZQKMT0kDy
5HrBjR9eQCGl9EACrYHBuqisQJP+kkC7AInBmRp3QBm8NEEhrafBicGoQFvMQ0ES+6LBrlKeQF7I
QUGQE7HBxB8XQU/gxj/7pFDBS2UoQU8uZD4xQlnBfb8qQXs67T8dFmXBe65HQLXAQcBVxZXBYjlX
QJpYPcAyi4fBq5eQQF1HCMAQUpDBCHMmQZB+l8CZjojBMwIiQaqEPcBM8YfBQ0ERQd9tgsC1Z4DB
NX+LQGLxLkAvCKvB6ZZsQKoe3T8jX6DBSzSCQOU/pcD47Y7BRC+nQEe3isDWtJfBYdwTQSIMe8BN
55jBcRsDQZsxocC3XZHBdGWpQOrlisA6WX7BlSbNQL8Ap8CD9ofBmPwAQf/C/L/KfZDB2dneQEJl
QcAYMJjBE65hQBVdX0BnWJLBsz/DQHcoaECmiZ/BmtimQM8Wyz+JZ4/B2p1KQBNPrUBtqYfBONRX
QDFPzUBW25HBhKlLQE6qgkA3O6TBo9CzQA4nLUHMF6bB2B61QFllJEExd7DB2sbIQH2qIkE/np3B
Av7fQACwwTgk24bBJIwJQQMe0D/2mX/BMfwFQXAuD7+1tm7BsVnZQBH+kD9DS6vB2j2hQN9o0b6p
hqXBmDvgQHqgBkEA4qnBW0jkQD0yo789uKzBdAbzQPNZpD+CRYfBTN3sQOQQbr+R8X3B6+DKQF33
EEGNVLLB/ssPQTbQND9yvG/B4UewQBBqaD9p8qbBlnPzQFgOKj0lFa7BBRS7QIfCv79bfqjB8kPf
QO5xD0Gihp/BewHlQONEEUDQUI/Bh+7XQCATEMDCKnzBYG6qQFZg/EC8PorBspu/QEctv0BtVJbB
NKOKQB6d3kBZrYTBU1+eQPkbo0A1bpDBHR/NQNG3B0FSd73BCBkgQQy3jT/IC1/B4V91QODeQsAB
R47BwGUZQbwQgcALfofBbfWTQGmpBEC59KPBpYWVQFrAisA0t47BNroJQS0khMDE8JDBaHO4QOsr
i8AqAYbB2eTwQNLhQcA9XpDBbayJQEKAgUD8w5fBXFSqQHxbQUDh+pvBPn/NQKSD40Cjd4/BDBO7
QCMsDkB4AZPBMxbVQFIgSsDouobBwPR2QFwvvkAbRYzB2wD+QFsdSEBghJLBTGLIQHBzIsBivmrB
5YcBQZ91EEFLTIzBuWgLQeQv5EDA9pjBwBdqQG2GlkA4hKDBdHYNQerFhD5UJrLBzymsQGCEMMCH
V6fBNb32QJXYAEHYhpTBcMCiQH7lO0E5pKTB23WlQM+NLEG2/7bBJanHQCNTKUF5ppXBR5PHQCXk
ib4BlIzBuw0RQcU+JkCDLIDBgWUKQRcPoL+ZMGLBorbkQHEVCUAUeqzBaeSBQD3BFL/wKKLBAGLx
QAHT70AlWKvB9Tz4QBU7B8AL6q7BMnGZQP2MB0EgXpDBymm4QAgXCUE/SYTBEaHbQN9/q0D7XpjB
MSuxQPjXy0BCtJ3BTXqaQNm/zkAVyXvBo4deQINh8UCtvoHBkF6uQMaikkDDwonBUUrpQJMuDkE/
o8HBo7fPQCRj7EAy+bzBlfuvQBUIDEEw6MHBn+MXQXlDyT9NX1HBkdMoQcUyXD6YlVnBQnErQdar
6T+YCmbB21ZEQIyJRMCWlpTBJyJWQCXXPcCaaobBkaqPQMI1C8Acg4/BYXYlQYmOmsAQJ4jBmGEh
QUlmQ8DDn4fBqI8QQY26hMDS33/BZN+LQFevKEDLPavBQO5sQNz91z/FRaDBRESAQMdlpsCxhI3B
wd2kQBUVjcAznZbBHrQSQbGdgMBfdZjBLuIBQRqlo8CFxZDBGveoQA5ei8A8NHzBlN/LQDxKqMD4
74bBlmYAQewaA8CmJpDBl7PcQN8jRsB5jpfBkTtjQNcaYEC2DJPBXJDEQKoXY0A+D6DBrNWmQOTH
zD8BT4/BflJMQLp2q0DEkYjBecVaQIcAzUBrbJLBQXhQQALKgUDqDqXB

> <OMEGA_E>
YGWXPWDXPD0=

> <OMEGA_NBR>
     57223

$$$$
50147865
  -OEChem-04172616093D

 73 76  0     1  0  0  0  0  0999 V2000
    4.9839   10.3216  -22.0650 C   0  0  0  0  0  0  0  0  0  0  0  0
    5.2320   10.9574  -20.8321 C   0  0  0  0  0  0  0  0  0  0  0  0
    5.4742    9.0217  -22.3003 C   0  0  0  0  0  0  0  0  0  0  0  0
    5.9715   10.2953  -19.8347 C   0  0  0  0  0  0  0  0  0  0  0  0
    6.2183    8.3595  -21.3051 C   0  0  0  0  0  0  0  0  0  0  0  0
    6.7846    1.0333  -21.3391 C   0  0  0  0  0  0  0  0  0  0  0  0
    5.0556   -0.4323  -20.4246 C   0  0  0  0  0  0  0  0  0  0  0  0
    7.1313   -1.3787  -21.2863 C   0  0  0  0  0  0  0  0  0  0  0  0
    6.4785    9.0003  -20.0716 C   0  0  0  0  0  0  0  0  0  0  0  0
    5.5172    0.8596  -20.7447 C   0  0  0  0  0  0  0  0  0  0  0  0
    7.5949   -0.0847  -21.5996 C   0  0  0  0  0  0  0  0  0  0  0  0
    5.8612   -1.5509  -20.6988 C   0  0  0  0  0  0  0  0  0  0  0  0
    8.4778   -0.4548  -15.2432 C   0  0  0  0  0  0  0  0  0  0  0  0
    6.1174    6.0568  -18.7389 C   0  0  0  0  0  0  0  0  0  0  0  0
    7.0476    2.1952  -17.5737 C   0  0  0  0  0  0  0  0  0  0  0  0
    8.5266    1.0124  -15.7358 C   0  0  0  0  0  0  0  0  0  0  0  0
    5.2576    7.9845  -17.4120 C   0  0  0  0  0  0  0  0  0  0  0  0
    7.0176   -0.2329  -17.0515 C   0  0  0  0  0  0  0  0  0  0  0  0
    4.5413    6.9579  -16.5320 C   0  0  0  0  0  0  0  0  0  0  0  0
    5.1296    5.1033  -18.0071 C   0  0  2  0  0  0  0  0  0  0  0  0
    7.1936    1.1529  -16.4598 C   0  0  2  0  0  0  0  0  0  0  0  0
    9.3231   -3.3080  -17.3999 C   0  0  0  0  0  0  0  0  0  0  0  0
    4.6789    2.0599  -20.3971 C   0  0  0  0  0  0  0  0  0  0  0  0
    7.2205    8.2801  -18.9650 C   0  0  0  0  0  0  0  0  0  0  0  0
    7.7862   -3.2573  -17.3434 C   0  0  0  0  0  0  0  0  0  0  0  0
    7.2693   -2.5853  -16.0435 C   0  0  0  0  0  0  0  0  0  0  0  0
    4.4515    4.0750  -18.9242 C   0  0  2  0  0  0  0  0  0  0  0  0
    5.4182    2.9662  -19.3904 C   0  0  1  0  0  0  0  0  0  0  0  0
    6.2957    7.3651  -18.2682 N   0  0  0  0  0  0  0  0  0  0  0  0
    7.5116   -1.1284  -16.0143 N   0  0  0  0  0  0  0  0  0  0  0  0
    5.8207    2.1662  -18.2306 N   0  0  0  0  0  0  0  0  0  0  0  0
    4.0408    5.8826  -17.3906 N   0  3  0  0  0  0  0  0  0  0  0  0
    9.1228   -0.9145  -14.3085 O   0  0  0  0  0  0  0  0  0  0  0  0
    6.8476    5.6262  -19.6245 O   0  0  0  0  0  0  0  0  0  0  0  0
    7.9194    3.0224  -17.8238 O   0  0  0  0  0  0  0  0  0  0  0  0
    3.8565    4.7534  -20.0310 O   0  0  0  0  0  0  0  0  0  0  0  0
    8.8244    0.0874  -22.1344 F   0  0  0  0  0  0  0  0  0  0  0  0
    5.4225   -2.7882  -20.3778 F   0  0  0  0  0  0  0  0  0  0  0  0
    4.4174   10.8313  -22.8303 H   0  0  0  0  0  0  0  0  0  0  0  0
    4.8543   11.9532  -20.6526 H   0  0  0  0  0  0  0  0  0  0  0  0
    5.2793    8.5334  -23.2437 H   0  0  0  0  0  0  0  0  0  0  0  0
    6.1513   10.7794  -18.8862 H   0  0  0  0  0  0  0  0  0  0  0  0
    6.5906    7.3616  -21.4839 H   0  0  0  0  0  0  0  0  0  0  0  0
    7.1315    2.0239  -21.5935 H   0  0  0  0  0  0  0  0  0  0  0  0
    4.0849   -0.5629  -19.9695 H   0  0  0  0  0  0  0  0  0  0  0  0
    7.7496   -2.2389  -21.4966 H   0  0  0  0  0  0  0  0  0  0  0  0
    8.5982    1.7144  -14.8920 H   0  0  0  0  0  0  0  0  0  0  0  0
    9.3717    1.1753  -16.4209 H   0  0  0  0  0  0  0  0  0  0  0  0
    4.5149    8.4770  -18.0568 H   0  0  0  0  0  0  0  0  0  0  0  0
    5.7349    8.7341  -16.7638 H   0  0  0  0  0  0  0  0  0  0  0  0
    5.9579   -0.4332  -17.2680 H   0  0  0  0  0  0  0  0  0  0  0  0
    7.6071   -0.3412  -17.9739 H   0  0  0  0  0  0  0  0  0  0  0  0
    5.2448    6.5465  -15.7932 H   0  0  0  0  0  0  0  0  0  0  0  0
    3.7006    7.4383  -16.0099 H   0  0  0  0  0  0  0  0  0  0  0  0
    5.6833    4.5647  -17.2240 H   0  0  0  0  0  0  0  0  0  0  0  0
    6.4030    1.3230  -15.7141 H   0  0  0  0  0  0  0  0  0  0  0  0
    9.6403   -3.7911  -18.3359 H   0  0  0  0  0  0  0  0  0  0  0  0
    9.7253   -2.2850  -17.3609 H   0  0  0  0  0  0  0  0  0  0  0  0
    9.7026   -3.8842  -16.5432 H   0  0  0  0  0  0  0  0  0  0  0  0
    4.4699    2.6323  -21.3129 H   0  0  0  0  0  0  0  0  0  0  0  0
    3.7315    1.7223  -19.9514 H   0  0  0  0  0  0  0  0  0  0  0  0
    8.0520    7.7032  -19.3960 H   0  0  0  0  0  0  0  0  0  0  0  0
    7.6166    9.0160  -18.2498 H   0  0  0  0  0  0  0  0  0  0  0  0
    7.4185   -2.6854  -18.2081 H   0  0  0  0  0  0  0  0  0  0  0  0
    7.3958   -4.2847  -17.3904 H   0  0  0  0  0  0  0  0  0  0  0  0
    6.1867   -2.7628  -15.9631 H   0  0  0  0  0  0  0  0  0  0  0  0
    7.7808   -3.0435  -15.1842 H   0  0  0  0  0  0  0  0  0  0  0  0
    3.6561    3.5893  -18.3399 H   0  0  0  0  0  0  0  0  0  0  0  0
    6.2955    3.4194  -19.8750 H   0  0  0  0  0  0  0  0  0  0  0  0
    5.1387    1.5291  -17.8714 H   0  0  0  0  0  0  0  0  0  0  0  0
    3.4776    5.2671  -16.8392 H   0  0  0  0  0  0  0  0  0  0  0  0
    3.4826    6.2846  -18.1164 H   0  0  0  0  0  0  0  0  0  0  0  0
    3.4356    4.1211  -20.6015 H   0  0  0  0  0  0  0  0  0  0  0  0
  1  2  1  0  0  0  0
  1  3  2  0  0  0  0
  2  4  2  0  0  0  0
  3  5  1  0  0  0  0
  4  9  1  0  0  0  0
  5  9  2  0  0  0  0
  6 10  1  0  0  0  0
  6 11  2  0  0  0  0
  7 10  2  0  0  0  0
  7 12  1  0  0  0  0
  8 11  1  0  0  0  0
  8 12  2  0  0  0  0
  9 24  1  0  0  0  0
 10 23  1  0  0  0  0
 11 37  1  0  0  0  0
 12 38  1  0  0  0  0
 13 16  1  0  0  0  0
 13 30  1  0  0  0  0
 13 33  2  0  0  0  0
 14 20  1  0  0  0  0
 14 29  1  0  0  0  0
 14 34  2  0  0  0  0
 15 21  1  0  0  0  0
 15 31  1  0  0  0  0
 15 35  2  0  0  0  0
 16 21  1  0  0  0  0
 17 19  1  0  0  0  0
 17 29  1  0  0  0  0
 18 21  1  0  0  0  0
 18 30  1  0  0  0  0
 19 32  1  0  0  0  0
 20 27  1  0  0  0  0
 20 32  1  0  0  0  0
 22 25  1  0  0  0  0
 23 28  1  0  0  0  0
 24 29  1  0  0  0  0
 25 26  1  0  0  0  0
 26 30  1  0  0  0  0
 27 28  1  0  0  0  0
 27 36  1  0  0  0  0
 28 31  1  0  0  0  0
  1 39  1  0  0  0  0
  2 40  1  0  0  0  0
  3 41  1  0  0  0  0
  4 42  1  0  0  0  0
  5 43  1  0  0  0  0
  6 44  1  0  0  0  0
  7 45  1  0  0  0  0
  8 46  1  0  0  0  0
 16 47  1  0  0  0  0
 16 48  1  0  0  0  0
 17 49  1  0  0  0  0
 17 50  1  0  0  0  0
 18 51  1  0  0  0  0
 18 52  1  0  0  0  0
 19 53  1  0  0  0  0
 19 54  1  0  0  0  0
 20 55  1  0  0  0  0
 21 56  1  0  0  0  0
 22 57  1  0  0  0  0
 22 58  1  0  0  0  0
 22 59  1  0  0  0  0
 23 60  1  0  0  0  0
 23 61  1  0  0  0  0
 24 62  1  0  0  0  0
 24 63  1  0  0  0  0
 25 64  1  0  0  0  0
 25 65  1  0  0  0  0
 26 66  1  0  0  0  0
 26 67  1  0  0  0  0
 27 68  1  0  0  0  0
 28 69  1  0  0  0  0
 31 70  1  0  0  0  0
 32 71  1  0  0  0  0
 32 72  1  0  0  0  0
 36 73  1  0  0  0  0
M  CHG  1  32   1
M  END
> <OMEGA_C>
YXyfQHMlJUEJhbDBQWynQHlRL0EhqKbB0iyvQNpYEEELZ7LBnBa/QJC5JEGDrZ7Bo/zGQIPABUHg
cKrBgRvZQMdChD9stqrBYMehQL5b3b6GZaPBmDPkQPd4sL9rSqrB7E/PQB0BEEGhkqDBy4ywQKwN
XD8T9aXBxgnzQFh0rb30y6zBx467QCuExr8el6XBMaUHQZra6L7843PBycHDQK7RwUBL6ZXBKobh
QN5+DEDrlozBGG0IQe6WgT/7xXvB9T2oQAyB/0CzS4vBdpDgQEB/br6MaYjBN1KRQGen3kCKQYTB
eyWkQBFOo0CWDpDBDjLmQLSRkz+hrYPBTisVQfq2U8AQM4vBermVQErVA0AqLaPBCg7nQH17BEFY
uJfBSSj5QNp3UMAzv4rBPJ7oQB52JcAeWYDB7HKOQBlmgkC6ZJfB5GGtQL7VPUByH5vB/HXJQASv
60BeJZLBs17wQNdwkL84HYDBC0O6QByjCkBA2JHBL06BQHo+vEDbH4vBCfcRQbQaar+B72TB4R/b
QJ8JtEDg/pzBpmv9QIhvQUAOl47BXNF2QP0bmEBrP6DBkjANQaT5sj0wE7HBPoWtQKpyMsDDBaPB
sFuNQN5MLUF9pLbBjVabQC1AP0GTOKXBGPCoQPiICEEk87nBmNfEQHR4LEHrFpfBeubSQC2S60Ad
36vBpzXkQHeHAUB9v6zBareCQOccEL+KwZ/BbPz3QOpJD8AM+avBJ5IJQUhx2z+BRW7BivIVQf9u
lj8EXoPB1XmQQM+hB0FjdJDBZYS3QA2/C0EqHIbBNae+QGLO3b7lJIrBmW3zQKKzrr6Qyo/BotWn
QDB90UAXsXzBHtdsQDMG7kBHFIDBUN21QLkRkkCzyonBuOXMQDlYqT/kbHvBtz4aQbehcsDhr5LB
rZobQaE8EsAX44rBwz0bQR2WeMBkWITBegmPQOx2KEDDgKrBj9FuQLd03D+QnJ/B7tQAQbuA9kDv
KpvBk7vzQH9BEEGG/5HBkmTtQF3eK8A5qpHBv6rsQOwbicCGH4vBivnFQGjSMMANaX/BRfz4QErJ
QsBv8nLBFP1pQMW3ZUAPuJLBFHXJQEfXWkD2/57BgHCkQNS5wz+J+I7BsJFeQHiMqECVtobBneNe
QJUbyUBq7pDBneBbQODfg0DGz6TBWLGjQD2JJ0EMxq/BMH+yQDKnEkGM37HBK/yqQFD4MEHCsqXB
JNHIQLE8B0FO66nBGCfBQIqOJUFwup3BmenVQIwahj92GKvBAo+gQKBo477aO6PBG1HiQDjprb/y
yKrByYvQQEHBEEGo15/BzyuuQDgYWz+k8qXB4QrwQGCCcL2rc63B/nu6QPhxxr9Gu6XBnB4IQQQt
Pb4HvHLBNnLCQGXywUA7tZXBXKrhQOkXDUDh0I3BKfgJQRJvkz98y37B4HinQGU6/0Ce1IrB4KHb
QOhGCb6/wYbByoWQQIUB3kC95oPBPi+iQLxfo0ACE5DBnkXnQGAepz+gBoTB75LAQNLMXcDU5YrB
L5SSQEnIAkCQIKPBb/3mQAxoBEEhDZfBPjTmQCIgV8BU/4LBuE3fQBuQD8CULXXBkRCMQOdcg0DE
ppfB8IiqQOUdP0B+cJvBX3DIQC6S60C3xpHBhfTuQKF7a78KTHzBa624QPUcDkCQGpLBYKh/QJpd
vEAV7orBj5ISQZcvAL/Y8WLB2kTaQLYotEAAspzBSj3+QDqHPEDGA5HBi0J0QCbmmUBzgqDB6BsL
QR7aAT68ULLBdAKtQAUWM8BuVKPB6L6SQLdQMEFG5LXBA7qsQAhnC0EAlbnBT5CfQJX1QEFnF6TB
nAfUQIJq7kDVhKvBZ2TGQP27LEGR+pXBRz3gQBrIAkDxOK3BhkSCQPMxF78TPp/Bvlb2QLpbDcB8
nazBd9oNQUMp/T/71nPBCR0WQeOrjD++wIXBH7ePQCm3B0Hd54/B+vW2QC9oC0HNkYXBVrK4QCgO
ib7e4YbBhwfpQGDj174BkI7BaCinQKoU0ED+QnzBRvNrQJBG7UBcIH/BVp2zQOoskUAO7onBdLXR
QM1s1D99WHvBCe3GQPCiiMD9r5DBUACjQB8nbMCReYbBrOO8QGS6IMBdLY/Bc2mKQPLXJUDheqrB
tCFqQIRc2D9vQJ/B6q8AQdUZ9kC3hZrBh9jzQPixD0EvHZHBobbpQEhUisA8oH3B/swBQdU7ScDq
g4fBU9i8QP2KCsChz3HBlWXwQF5fIcBoc2bBPg9kQEgWaEBDIpPB1xfGQDerW0BRl5/B5rCiQLK7
0z9jdo7B4mBbQAWIqEC0lobBFulbQKj2yUD+oJDBMflYQC0yhkB1L6XB+fKnQF0uJ0GgJa/BG4Wz
QNXoMEHzZaXBQuyxQKOEEUFCArHBbffIQGv8JEGnfp3B7cHHQKCfBUHfJ6nBVP3TQA5rdz8nE6vB
2lueQEt1/L7V86LBHLLfQN/MuL+4c6rBT43TQL9fD0EPYJ/BHkSsQO5FTD8v3aXBqa3tQHA1Hb5F
Wa3BeBK4QMRbzr8MPKXBPWAKQaDL072D3nTB5rnCQPCev0B1hZXBxZbdQHBrFUC1yozBBQ0HQdkF
rz9/DHvBJFCpQBwr/UDjhorBs7roQND7Sr1hpYnBXWOQQCVx3EC23oPBZg6hQOMBokCqH5DB3Szl
QLbOpT/AGITBixrWQL0+jMCMd4LBegWRQPsNAEB7KKPBoV3pQGicAkFHoZbBBOzbQO+eO8DPmH3B
0EoCQUYRFcBn0oPBfuOKQF28gkAt4ZfB2wKpQCznPEAwhJvBHPvJQGy56EB5bJHBBuIBQXw3X78s
0ILBYKK2QE48DUCcDZLBbz5+QKHju0BAIIvBMuATQQbzAb9r/WTBJ0naQMx/sUDxhZzBOLf5QKbb
RkDvv4/BX9d0QEvXmUAX0KDBkeMJQaA9MDxrTbLBT/mqQIgnNsAURaLBgmuXQCNXMEFjMrXBjOyr
QLOHQUF8/aPBidKoQMYJCkEtdbjBpVXRQAtmLEHF+ZXBBoTPQEAR6kBDmarBMqfeQOw5+j+NUK3B
ofB/QAZ2H7+H+J7BAFrzQC9xE8AkO6zB5vUEQe4JAEBtz2zByH8UQT+S3z99UoLB+6qSQO9iB0G8
oI/B+165QNbSCUG9EoXBUujIQK/OAb/Sg4rBFm/3QPPzjD3IlZHBzeClQJdPzUBHCHzBEQpsQBp7
7EDdRn/Bo2KxQDwuj0C16InBEIHJQOv+oz9CUX3B/vq4QDucmcBMpn3BoyvTQFEvjcC1O4vBQf7x
QCxGn8DK9H/BiCeJQOqYIkDKkarBw6pmQF2p1D+kSZ/Bl50BQU/k8UAeIprB/9P2QCKiDUHXppDB
fPS/QPbHFcD5SIHBGsfeQKz1OcBSD2zBTXcQQcthLsA1WX/B6wUDQV2PJsCMVozB6StgQAfIZ0Ar
jJPBBNDEQMR7WEBXq5/B9+6hQLBCxT/XE4/BD51XQDCBqECd+obBZL5cQFp5ykCj4pDBkoJZQB2Q
hkAYmKXB6r2gQFBgKkFn7a3BIt2tQIPCFUGNGrHB2JurQAwoMkHNs6PB5DDGQNn7CEEgF6rBRr3D
QGZfJUF0qpzBIqPUQCRXiD+/9avBHkOhQDaE8L6pz6PBaifjQCM1qr8Qs6vBKHrRQGjVEEFo3Z/B
HHytQPAjVz+jnqbBZIDvQJgrmbwJda7BSBS8QDLcxr92WqbBcTMKQYZDqj1QiXHBQhDCQAS8wEBo
x5bBTLXeQKCFEEB7ao3B/RoHQUQ3vj9n/XrBAFSuQMm4/EBbjYrBtovmQAbxu722cYfBUBiVQBrh
20Cr+oPB8CKjQJhlokD9qJDBGsnkQN9VrD9ewYPBNZoaQZyWesB7VYjB6nyRQNx4AECkg6PBPszp
QH7qAkF+A5jBkBERQVVqIMAXz4jB7IsBQQ4UEMCPvn7B5paLQITlgUBfz5fBxoOpQCy8O0Ajt5vB
ftDLQMfn6ED6bJLBQjb6QEa5T79VCn3B3F63QOa3CUCkdpLBQT+CQPQVvEACNYvBRnIWQduYQL5v
22LB0LXUQKJWtEDx1Z7BRoX6QCaSQkBMaZDBk4RwQBLXl0AckqDBx6YKQR93Tj7xabPBpIuwQFKr
M8AdhqPBwFaOQLs4NEHuVbPBc0SlQJzBD0FP6rjBR2uhQJruQUG6Q6HBVDrQQENd8kCOhqzBXMPL
QMtKK0HkzJTBd/PdQNJvBEBdIK7B/1aDQO0xJL82tp/Bw6P3QEN2CsDdrq3Bgo4FQcxmD0AjR27B
QHsUQQrA4D+UyoLBUnWXQD+JCEFS5Y7Bz0DBQGBGCEHwB4XBpSzGQPYp876CConBEi36QGsGPr7F
tY7BALuqQHTRy0A9onzBLwF3QEI57ECoDn/BzNC1QHehkED/qorBxYzJQI7TvD+ijXzBt4QlQaP5
gcALI4/BXn4jQbk/gcDWzYDB06QNQVkQlcCJt4jB/cmIQP66JECuvKrBepFoQPzY0D/doJ/B9tcA
QQS38kBOXZzBLw/6QCklDUFQHpLBgyIeQVSp4r/0dojB90gIQen1GMCnYJDBAv3kQFrJMsDnxoDB
yeIIQS3HJsDByW/BKrNkQJ/0ZUC18JLBOkTFQGwSWEAgz5/Bc7GiQJfTvT/JhY/BZuVeQGiJqEAU
9obBHmhhQB5Gy0A+t5DBAmpTQLrcg0Dn/qTB

> <OMEGA_E>
AL8TP0r4FD+WXCA/lOQJPw==

> <OMEGA_NBR>
      4892

$$$$
50147881
  -OEChem-04172616093D

 76 79  0     1  0  0  0  0  0999 V2000
    4.9826   10.3035  -22.0587 C   0  0  0  0  0  0  0  0  0  0  0  0
    5.2214   10.9432  -20.8260 C   0  0  0  0  0  0  0  0  0  0  0  0
    5.4782    9.0044  -22.2877 C   0  0  0  0  0  0  0  0  0  0  0  0
    5.9559   10.2855  -19.8220 C   0  0  0  0  0  0  0  0  0  0  0  0
    6.2181    8.3469  -21.2861 C   0  0  0  0  0  0  0  0  0  0  0  0
    6.8016    1.0287  -21.3152 C   0  0  0  0  0  0  0  0  0  0  0  0
    5.0876   -0.4547  -20.4016 C   0  0  0  0  0  0  0  0  0  0  0  0
    7.1719   -1.3800  -21.2662 C   0  0  0  0  0  0  0  0  0  0  0  0
    6.4682    8.9913  -20.0523 C   0  0  0  0  0  0  0  0  0  0  0  0
    5.5346    0.8425  -20.7215 C   0  0  0  0  0  0  0  0  0  0  0  0
    7.6226   -0.0815  -21.5786 C   0  0  0  0  0  0  0  0  0  0  0  0
    5.9041   -1.5651  -20.6781 C   0  0  0  0  0  0  0  0  0  0  0  0
    8.5197   -0.1804  -15.0970 C   0  0  0  0  0  0  0  0  0  0  0  0
    6.1098    6.0493  -18.7216 C   0  0  0  0  0  0  0  0  0  0  0  0
    7.0572    2.2675  -17.5893 C   0  0  0  0  0  0  0  0  0  0  0  0
    8.5611    1.2282  -15.7129 C   0  0  0  0  0  0  0  0  0  0  0  0
    5.2407    7.9711  -17.3914 C   0  0  0  0  0  0  0  0  0  0  0  0
    7.0389   -0.1285  -16.9168 C   0  0  0  0  0  0  0  0  0  0  0  0
    4.5237    6.9386  -16.5188 C   0  0  0  0  0  0  0  0  0  0  0  0
    5.1108    5.0941  -18.0067 C   0  0  2  0  0  0  0  0  0  0  0  0
    7.2179    1.2968  -16.4177 C   0  0  2  0  0  0  0  0  0  0  0  0
    9.4161   -3.6701  -17.3557 C   0  0  0  0  0  0  0  0  0  0  0  0
    4.6742    2.0341  -20.3863 C   0  0  0  0  0  0  0  0  0  0  0  0
    7.2063    8.2765  -18.9393 C   0  0  0  0  0  0  0  0  0  0  0  0
    8.0491   -3.2440  -17.9202 C   0  0  0  0  0  0  0  0  0  0  0  0
    6.9271   -3.2068  -16.8454 C   0  0  0  0  0  0  0  0  0  0  0  0
    7.2626   -2.3517  -15.5896 C   0  0  0  0  0  0  0  0  0  0  0  0
    4.4359    4.0748  -18.9395 C   0  0  2  0  0  0  0  0  0  0  0  0
    5.4057    2.9687  -19.4033 C   0  0  1  0  0  0  0  0  0  0  0  0
    6.2819    7.3572  -18.2474 N   0  0  0  0  0  0  0  0  0  0  0  0
    7.6918   -0.9734  -15.9111 N   0  0  0  0  0  0  0  0  0  0  0  0
    5.8295    2.1936  -18.2366 N   0  0  0  0  0  0  0  0  0  0  0  0
    4.0225    5.8707  -17.3866 N   0  3  0  0  0  0  0  0  0  0  0  0
    9.0952   -0.5285  -14.0729 O   0  0  0  0  0  0  0  0  0  0  0  0
    6.8555    5.6189  -19.5943 O   0  0  0  0  0  0  0  0  0  0  0  0
    7.9178    3.0916  -17.8844 O   0  0  0  0  0  0  0  0  0  0  0  0
    3.8558    4.7602  -20.0489 O   0  0  0  0  0  0  0  0  0  0  0  0
    8.8451    0.1005  -22.1259 F   0  0  0  0  0  0  0  0  0  0  0  0
    5.4741   -2.8081  -20.3677 F   0  0  0  0  0  0  0  0  0  0  0  0
    4.4192   10.8094  -22.8288 H   0  0  0  0  0  0  0  0  0  0  0  0
    4.8405   11.9387  -20.6518 H   0  0  0  0  0  0  0  0  0  0  0  0
    5.2906    8.5132  -23.2310 H   0  0  0  0  0  0  0  0  0  0  0  0
    6.1278   10.7723  -18.8734 H   0  0  0  0  0  0  0  0  0  0  0  0
    6.5948    7.3499  -21.4603 H   0  0  0  0  0  0  0  0  0  0  0  0
    7.1399    2.0231  -21.5667 H   0  0  0  0  0  0  0  0  0  0  0  0
    4.1192   -0.5959  -19.9447 H   0  0  0  0  0  0  0  0  0  0  0  0
    7.7985   -2.2339  -21.4775 H   0  0  0  0  0  0  0  0  0  0  0  0
    8.6463    2.0027  -14.9364 H   0  0  0  0  0  0  0  0  0  0  0  0
    9.3931    1.3300  -16.4251 H   0  0  0  0  0  0  0  0  0  0  0  0
    4.4991    8.4658  -18.0359 H   0  0  0  0  0  0  0  0  0  0  0  0
    5.7150    8.7182  -16.7380 H   0  0  0  0  0  0  0  0  0  0  0  0
    5.9705   -0.3782  -16.9955 H   0  0  0  0  0  0  0  0  0  0  0  0
    7.5186   -0.2565  -17.8983 H   0  0  0  0  0  0  0  0  0  0  0  0
    5.2269    6.5207  -15.7834 H   0  0  0  0  0  0  0  0  0  0  0  0
    3.6834    7.4154  -15.9929 H   0  0  0  0  0  0  0  0  0  0  0  0
    5.6572    4.5447  -17.2259 H   0  0  0  0  0  0  0  0  0  0  0  0
    6.4373    1.5118  -15.6730 H   0  0  0  0  0  0  0  0  0  0  0  0
   10.1617   -3.6756  -18.1644 H   0  0  0  0  0  0  0  0  0  0  0  0
    9.7275   -2.9605  -16.5749 H   0  0  0  0  0  0  0  0  0  0  0  0
    9.3362   -4.6786  -16.9239 H   0  0  0  0  0  0  0  0  0  0  0  0
    4.4459    2.5869  -21.3094 H   0  0  0  0  0  0  0  0  0  0  0  0
    3.7376    1.6863  -19.9260 H   0  0  0  0  0  0  0  0  0  0  0  0
    8.0439    7.7036  -19.3637 H   0  0  0  0  0  0  0  0  0  0  0  0
    7.5935    9.0155  -18.2224 H   0  0  0  0  0  0  0  0  0  0  0  0
    8.1488   -2.2391  -18.3563 H   0  0  0  0  0  0  0  0  0  0  0  0
    7.7575   -3.9572  -18.7053 H   0  0  0  0  0  0  0  0  0  0  0  0
    6.0201   -2.7929  -17.3102 H   0  0  0  0  0  0  0  0  0  0  0  0
    6.7325   -4.2383  -16.5164 H   0  0  0  0  0  0  0  0  0  0  0  0
    6.3655   -2.2979  -14.9553 H   0  0  0  0  0  0  0  0  0  0  0  0
    8.0734   -2.8486  -15.0366 H   0  0  0  0  0  0  0  0  0  0  0  0
    3.6335    3.5870  -18.3667 H   0  0  0  0  0  0  0  0  0  0  0  0
    6.2731    3.4244  -19.9032 H   0  0  0  0  0  0  0  0  0  0  0  0
    5.1665    1.5429  -17.8664 H   0  0  0  0  0  0  0  0  0  0  0  0
    3.4569    5.2523  -16.8411 H   0  0  0  0  0  0  0  0  0  0  0  0
    3.4666    6.2794  -18.1105 H   0  0  0  0  0  0  0  0  0  0  0  0
    3.4383    4.1322  -20.6266 H   0  0  0  0  0  0  0  0  0  0  0  0
  1  2  1  0  0  0  0
  1  3  2  0  0  0  0
  2  4  2  0  0  0  0
  3  5  1  0  0  0  0
  4  9  1  0  0  0  0
  5  9  2  0  0  0  0
  6 10  1  0  0  0  0
  6 11  2  0  0  0  0
  7 10  2  0  0  0  0
  7 12  1  0  0  0  0
  8 11  1  0  0  0  0
  8 12  2  0  0  0  0
  9 24  1  0  0  0  0
 10 23  1  0  0  0  0
 11 38  1  0  0  0  0
 12 39  1  0  0  0  0
 13 16  1  0  0  0  0
 13 31  1  0  0  0  0
 13 34  2  0  0  0  0
 14 20  1  0  0  0  0
 14 30  1  0  0  0  0
 14 35  2  0  0  0  0
 15 21  1  0  0  0  0
 15 32  1  0  0  0  0
 15 36  2  0  0  0  0
 16 21  1  0  0  0  0
 17 19  1  0  0  0  0
 17 30  1  0  0  0  0
 18 21  1  0  0  0  0
 18 31  1  0  0  0  0
 19 33  1  0  0  0  0
 20 28  1  0  0  0  0
 20 33  1  0  0  0  0
 22 25  1  0  0  0  0
 23 29  1  0  0  0  0
 24 30  1  0  0  0  0
 25 26  1  0  0  0  0
 26 27  1  0  0  0  0
 27 31  1  0  0  0  0
 28 29  1  0  0  0  0
 28 37  1  0  0  0  0
 29 32  1  0  0  0  0
  1 40  1  0  0  0  0
  2 41  1  0  0  0  0
  3 42  1  0  0  0  0
  4 43  1  0  0  0  0
  5 44  1  0  0  0  0
  6 45  1  0  0  0  0
  7 46  1  0  0  0  0
  8 47  1  0  0  0  0
 16 48  1  0  0  0  0
 16 49  1  0  0  0  0
 17 50  1  0  0  0  0
 17 51  1  0  0  0  0
 18 52  1  0  0  0  0
 18 53  1  0  0  0  0
 19 54  1  0  0  0  0
 19 55  1  0  0  0  0
 20 56  1  0  0  0  0
 21 57  1  0  0  0  0
 22 58  1  0  0  0  0
 22 59  1  0  0  0  0
 22 60  1  0  0  0  0
 23 61  1  0  0  0  0
 23 62  1  0  0  0  0
 24 63  1  0  0  0  0
 24 64  1  0  0  0  0
 25 65  1  0  0  0  0
 25 66  1  0  0  0  0
 26 67  1  0  0  0  0
 26 68  1  0  0  0  0
 27 69  1  0  0  0  0
 27 70  1  0  0  0  0
 28 71  1  0  0  0  0
 29 72  1  0  0  0  0
 32 73  1  0  0  0  0
 33 74  1  0  0  0  0
 33 75  1  0  0  0  0
 37 76  1  0  0  0  0
M  CHG  1  33   1
M  END
> <OMEGA_C>
ZHGfQEPbJEE5eLDBnhWnQFQXL0G0m6bBcU2vQDMSEEEcTbLB35a+QEKRJEF6k57BevrGQPyMBUH0
SarBrabZQOqtgz9uharBPs2iQAHU6L57NqPBdIDlQH+isL8ZIarBZfvOQF7cD0EXa6DBLhuxQByx
Vz+0xaXBCOzzQLz1pr3ioKzBme68QLJUyL+pbKXBpVAIQVrAOL5hjXHBhoPDQCmUwUDpxZXBidTh
QCsfEUDitozBNPoIQQs2nT/XZ3vBo7OnQF8T/0B/IYvBgz7hQPKTA76PVYfB4MGQQMgI3kCMJoTB
YYujQKsCo0C9DZDB3vjmQBH9pT9yV4PBbagWQS3iasBo2IrBBZOVQNUuAkAVF6PBF5rmQKlsBEHI
g5fBFckAQVmeT8B4XI/B7ardQDI8TcBpw4bBamfoQHuCFsD3bnnBJfONQMNkgkAWhJfBqPusQHP/
PUDdOZvBMAXJQBxu60Cx+pHBGSP2QKwyeb8LlH7BBou6QFFkDECB5JHBIriAQCzdu0DUF4vBvYUR
QQBJB79lKmHBEWDbQFvOs0AVwZzBXF79QCvdRUAnE4/BnsV2QNtTmEA5ZKDBuYUNQUDUzT3xAbHB
eCuvQFG3M8Ai8aLBs2mNQHnzLEFOobbBc+WaQMgEP0HTNqXB8UypQDM2CEEe2bnBDRfEQElbLEG7
/JbBkAjTQP0x60CrrqvBH3rkQPB5AUCRiKzBRdCDQAqKGL/Sjp/BE435QM73DsD50avBNVcKQews
AECV+27BTUoWQeU7qj+oZoPBx/iPQMlzB0F5SZDBjuG2QKd9C0Fo54XBWA6/QBaowb6+9ofBo5jw
QGVWg77IL4/BjEKnQMGp0ECmiHzBPL1rQE5L7UDw4n/BbAe1QHFukUCfzonBhv7NQHaBwT/IxHrB
fpYiQTY9a8CnUJHB36MbQVV5PcBgmYTBEWEVQRW3lcAUZIfByESOQHqQJUC/earB3zRvQPDX1z+M
aJ/B+7MAQcuD9kDz6JrB+v3yQJg/EEGLx5HBl2ECQeNND8Cp2ZLBkj34QLhCfcBdpJXBzKTAQP2+
MsBXe4rB0HDXQMSfh8CiIYTBPrLLQJMQE8AJSW/BeCwBQeVPNsDylXDB6YpoQOGRZUDn7pLBQ73I
QBIqW0DIOZ/BH1SlQAp9xT9l7o7BPT5dQKoSqECCuobBfd1dQPDwyEBl4pDBhgxcQNM6hEBKA6XB
qN2mQJ36JUFVb6/BFTK1QMj/EEHgerHBQAmvQEKfL0Gbc6XBj8TLQDyrBUF2jKnBQXvFQKxLJEHp
gJ3BWFbUQA41gj/izarBbcOaQIh42r7wWqTBmxjdQOHAs7+eBqvBuDTUQERaD0Eui5/BnRCrQOyh
XD/lXabBv3ztQED/670YA63BPqSzQH1ox786wqbBxdcIQWC7ajwZMHHBcXjDQLFawEA9lJXBN7He
QHYmEECecY3BtWcHQUuasz9ml3vB8BiqQLX+/UA+n4rBDpfkQAzaBL7xfIfBRSeRQOVv3UDY74PB
BOyhQJ21okB2HZDBis3kQDLUqD9c34PBQ96hQDJUh8A+L43BaZ6QQIWYBEC8gqPBdTHqQBn5AkGV
spbBKl/NQPSuYcBL+YvBU2HTQMZlRcBmRIDB8s/9QJiRFMD8O33BPlGLQChzg0AxxZfB2xipQGh7
PkB0o5vB/97KQMlv6UCkd5HBSV/3QMZyXL817XzBqve2QCx/C0DYaJLBNvN/QMe1vEB3JIvBlA8U
QSRcir5sxGHBQPLaQJc6skD7mJzBIDr6QELHQ0AOKZDBsMRzQOrFmkBvkaDB27MKQXg2FD1PALHB
Ka6jQHivMsAD86TBypmVQOetLkGGhrXBrt2uQOecCUEBIbnBMBGkQEW2P0FP5qPBaKbWQAwi60A8
G6vBF3LLQBqmK0EO1JXBGI/gQNVRAEDAf6zBcGJ2QIGVC7+I+KDBQ0/wQAuaEcA7xqzBGu8GQYuq
DEDAbm/BpusUQcclyj/pQIPBfXyTQFK5B0HNw4/BgRG6QP9PCkEHMYXBTLzDQD8J8r5rDYnBXRD4
QNEyhL4Mv47BXpqmQDV3zkC5GHzBY3ptQHKQ7UAdfX/BaFSyQMD/j0Az5InBIEPKQPbVvD8qdXzB
yIedQD5zkcD5ipXBBtigQPCKo8DE7YfBZRqIQGApYsAD8orBP3WJQC73KEBj1KrBAQ9lQEgc3z8K
x5/BtSsCQWO18kCbGZrBTUj3QPw3DkGQxZDBZCXnQD0Vh8DoNY7Bw2fOQPo9KcAoOpHB4qK4QLVb
G8DfAXzBJVzTQE59fsCYPHbBCP8FQVNsKMDN6G3B4OUJQdnFJMBHL4XBK+VhQDbmaEC1TpPBB/PE
QHqLWkASuJ/BMu6hQNY2wz8pbI/BQ19ZQPxlqUB394bBpmdeQB0ly0DX65DBMs5XQPuRh0ChT6XB
8TuoQC8cJ0EK9K/BGl+vQOK1MEEb6aXB16S2QLEbEkH16bHBNPnEQAVYJUHS1J3Bh2bMQEq9BkHS
2anBLI3VQMBTjT802KrBkEebQIafq74kuqTBeabdQMbnqL+LTqvBcPXTQPJqEEFNzZ/B6AmsQBiz
cz9Qj6bBZHjuQEDuAL2DHa3BN++zQJwVvL9eMKfBt2IFQTPSCL9Zj3bBnB/DQMx7wkBSpZXBonLa
QHgMCkAtpYzBZ5kDQfKadj85UnvBuASpQAtBAEED8YrBMgviQKp+o77O2orB4D2QQO8e4EDCKoTB
GoWhQHHxpEDoKJDBJnjfQKwVgD+brYTBitSMQLc8dsAkNorBzcKRQEiGCkAbvKPBTJPpQIsbBEFg
35bBBQ28QOnnacAlOI3BAN7XQGHwV8AXRoPBX+UAQQ3QKcDrcobBjjGLQBychUCzz5fBjP2oQKK2
QUCwUpvBriHKQH/R60DRp5HBGYf+QJoqmb+iqYTBImWzQI2cDEDL+5HB2rZ+QLP7vkDMSovB+DML
QY72hL9qq2XBLLXaQPU0tEDcn5zBYfb3QDENO0A+xI7B5ot1QOa6nEA/xqDBnEMLQVwt7T0xBrHB
nmijQJv6LMB7pKXBNrSXQEfbL0FgJ7bBgUKkQPbLQEHjaaTBmACxQKG7CkFcmbnBQRfKQC2nLEGI
G5bBClLXQK887UDEV6vBGCbiQAPaBUA4YKzBsRN3QMqS5r6Rb6HBjrzwQNxODMDJE63BclsBQbEY
xj9IlGzBY8ERQRnBqj+M94HBEF2SQNW1CEEhL5DBMaa4QDnQC0H+k4XBrxLCQD12Rb9YjIvBV0bv
QHbAF77F5JLBb72lQJKP0UBXc3zByGBrQFVE8EC5CIDBY9CxQMZmkkDX4onBIgPDQG9QeT+UAX/B
8wx0QOBwgcAJe5HBDNCJQG9elsBEsYTBlM6AQH7tO8BxTYbBEnGMQJ7uMEAq/arBXYZlQE5V6z8z
e6DBC+kBQXTj9EAhMprBonz2QPFpD0F/85DB3r3HQNUsksDkKJHBZby+QEqKM8AQxZLBY9HFQEc/
L8D+X3vB+MXfQPB5isAgtX7BGB8OQbRVQ8AEmYHBeiYEQZq7NcDE947Bw4VgQEpgbkCzcJPBDlHG
QK6VXEBh2J7BCi6cQFpJzT88MY/BjjlYQMHBq0BGFIfB5y5dQJ4PzUCGIJHBFd5ZQLF4iUB7h6XB
Wv+qQC8ZJkH+8K7BdL+4QCkWEUFrJrHB40OyQN0hL0FBxqTBIQvOQD0nBUE4N6nB81jHQJ4wI0E8
0ZzBnp/RQMhpiT/T8avBinifQFeRBb/GE6TB/MPhQOi1p79RP6zB/LrVQB9CDkG3CZ/BbtuqQDLA
Tj9niabBEiftQGS2jjzstq7B5uy6QNYfyr9+76bBxT0LQbgVmT5dKXHBUqfCQHTfvUBZc5XBhM3e
QK8bFUC1w43BSw8JQSuk0j/wr3zBPMOqQGsO+0CJJIrBXiTiQIKqqD0L5oXBbpyRQChY2kCMioPB
D82gQEhXoEDaDZDBGf3lQKarxj9EcoPBrcLeQA7bk8Bhx4jB4ECOQN6M+T+DF6PBGuHqQBtZAUHk
P5bB8NcGQVKvhMAU7IfBgm0IQRBCJ8BEK4fBLXj7QDlVA8DMsnnBPrKJQIyVgUAB0JfBRB2nQM9q
OkCvvZvBoO/KQEB55kBSJ5HBXfb4QFC6Fr+aenrB4tm2QH/yCkA7dZLBrAl/QMl4ukDI3YrB0YIX
QSIImD2KTWLBH5jZQMTxr0DkmZzB8z76QPfNREB+dZHB0RRyQDxUmUDZnaDBClUJQY65jz7iq7PB
/l2wQAh4NsDAZ6TBFN+aQNdJL0EbDLXBhPSyQM8iCkE37bjB+6anQEY6P0F3FqPBuIPYQBQS6kBg
56rBxobMQJQPKkEE/5TBBh/aQIa/BUAm9K3BtbeBQNeAOr88AaDB9872QJrWB8Bgba7Bzd4JQe/e
HkB6SnHBbZIVQUgi4j/JdITBnDaUQOiZBkGYJo/BnEe7QJ6HCEFSp4TBK1fAQBmbZb7cBYbBRPjw
QPH1GL5VqY3B6xqnQPGKykCumXvBK1tvQNKL6kBCXX7BIjGxQJwGjUC08YnBvorNQLpt6z/BF3vB
6OPdQLv7tsCWTInBgO3MQPpYicA4qYHBBQrQQIsHhsB9/I/BbCmDQJS6H0CiNarBwgFlQCIWxj+n
vJ7BDloCQZMh70CUsJnBikr4QFxFDEEDOJDBDhUOQb/UksABuYDBUaMPQVCDj8BGDI/BWWwZQRj3
FMDaK4fB13MAQUQSC8CMLY7BP/faQDfAHcAFR3jBr0MHQX+NFsAZtGvB+QJeQD6qZUDmapPBJA/C
QI0hVkBYOKDBZzWjQKQgvz+WOI/BMCtYQPYnp0Dwu4bBbn5dQAumyUB0hpDBL6BVQFx4hkBcZqXB
SvegQJgxJ0F7pbDBWvevQOtKEkFxm7LBINWoQN0PMUHps6bBAATHQC9JB0E9pKrB9Me/QO4RJkHv
uZ7BgjLYQKRejz9kF6vBEF2fQHIkp76jQqTBKFbhQBxopr+yKavBXlLPQG4+EUEPs6DBIkivQCC/
dT8dhabBolnxQEDVHrzdVK3Bmky4QJhtur+DoqbBuSQIQWchCL/OdHTBeqzCQByiw0DCEJbBUqjd
QCyGBUCxVozBPMEEQc78dD88xnnBcgGnQHvZAEF6nYvBUD3tQJgyvL6ProrBEAaQQLwk4UD7f4TB
oj6jQD8qpUBjGZDBbtLjQFIbaD/9ioTBhJm0QP7dXcAyv4XBeEKVQLiyCkDInqPB3HPmQCZWBUF2
35fBEMTWQEKahcBlj4zBQj79QF7fUcCXuY/BFfUJQYVlJcCCF4bBFHyNQFUShEAXWpfBPBysQJfh
P0D87JrBJlzIQPug7UBHYJLBJAUAQcj6pb/JzoLBcq62QHEnCEABw5HBRkOAQIA6vkAPP4vBeLIQ
QYO0c79zJWTBfpzZQCTNtUDYO53Bxvv5QLJtOkCj8I3BAQ52QHTqmUDLSqDBW34MQegKFz7XeLHB
GgKpQGUnLMAdbaTBdWyPQACoL0FrxbbBSsmpQJu3CkGqN7rBZz+dQEUQQUEDNKXBj1nSQAl47kCu
IKzBO4LFQM+WLUF+FJfBSyvkQKbzBkC43azBshOAQJdE475VtqDB7YT0QBHZCsC1+KzBo9oAQTit
xD8zVWvBOvoSQQOwsT+XwYDBtEqPQKeWCEGR15DBeSm2QBL6DEE/fIbB4ZLPQKduSb/DBo7B2AUC
QWepLb77MZHBn3KmQHxr1EB4BH3BEfFpQMup8ECLa4DBDQy1QDM6lEBZzInBSDDGQAGORT/81X/B
oqSaQAOChcCO4YPBKCrDQJD9RsDLhnzBeJCnQCUnJ8BUOYrBRLmQQIeIMkBsyarBC81rQF/I6z+8
laDBVGcAQbrn90DTVpvBaW3zQIflEEGLFZLB2wnjQNAJocDH+ofBK3DHQJsekcC18JPBR3UKQav5
ecDv4ZPBdZ7xQO/YH8BCMZXB3IQJQUpNUcDIbn7BF7AaQXLrGMCrVYjBsUxnQNgzakARsZLB6GXJ
QIowXEDWSZ7BfLmfQGgawT+JM4/Bl7hcQKquqkCYw4bBVKZcQPqlykA7GZHB+9ZaQLPIhUDs26TB
So+oQGCoJkE5Uq/BPj+3QKXDEUE3cLHBAz+vQODnL0FmLaXBlM7MQLwlBkGdbanBZpfEQAhHJEFh
JZ3BqNTUQHKQdj+k0arBawigQPBZ/L6RU6LBRPPhQObkt7/rkKnBpdLTQM1zD0ElRJ/BLxutQDkr
Sz87maXBLSzvQMRMG74zzqzBCni6QHiEzb/YSaTBNJQMQawpA75up3jBtFfCQKQUwECEe5XBbDXd
QDfPFEDSFY3BxpUIQd5nqj+tRX7BFAGpQMgr/UDWUorB6cPjQMRbq70Il4nBW0mQQLoo3EAdtYPB
ZbWgQBA4okCWIJDBnHflQNKhpT8EaITBksbqQCJSMMACo1nBRDCRQDg//z+MJqPB0C3pQB/ZAkGC
ZJbByKjJQE9NH8D1bGvBPSHYQK0CQsA3xIDBJTwBQe3OGMAJq4TBAWOKQL4Xg0CL7ZfBCGmoQM95
PUCKgZvBFKbJQI4H6UBwSJHB3LEAQSjWar8FjoPBqJq1QOSdDkCg+pHB98N9QEjeu0D6BIvB4aoZ
QfgG974vPGvBk+jZQKAxskAsg5zBAR75QJAeRkBaNZDB57R0QH4ymkAv5aDBZ5sKQUD8RDx8yrHB
jEWuQM5PNcDc7qDBcyqYQMKWL0F0erXBdvixQPqoCkEBNLnBD/2jQPrrP0GSkKPBYP3XQAU+7EBA
DKvBh1LJQHRPK0HWV5XBA//eQG9e+T9lSa3ByreBQP7KH78YUJ7BoxX2QHW3EsAAIavBxV0IQa+2
+j9A0W/BrtEUQSyA2j/hs4TBaDuSQB9sB0G/X4/BdA65QPDFCUGi14TBLSrDQBoo/b7+H4nBvLrt
QPYRvbwfBJLBQfClQLTTzEAj2XvBdQFsQFT/60D+yn7BFyqxQJQsj0Cy+YnBmHDMQJL+rj/0fXzB
DdveQCZwFsCjZErB7ervQFisdcD8CljBT5gEQVEBEcARyV3BxrWJQHZFIUCfpqrBcaRmQIt/0z+H
YZ/BlbcBQZR/8kDgwZnBVQz2QHf6DUH8YZDBQF6rQCR9PsAWAGfB8aPEQDuks78rvmzBo8XcQK/O
g8CMI4DBXei+QGtoNMApqobBUZEOQZI7MsD2w3/BZbIDQcYxKcAuI43BasxeQOvWaECHoZPB3GbE
QErwWEA9l5/BTkigQG1nzT+AtY7BiFtXQElOqEB25IbBb/pbQJWpykAJuJDBHUZZQKn5hkB5rqXB
bOGgQHAPJUHEZbDB/nKwQPA8EEFGR7LB7qeoQCMsL0HwgqbB5PLHQFeNBUG1SarBkQvAQFB/JEEI
gp7BCoDYQMgzhT+D1KrBwTiiQNTn6b5/cKPBKMjkQC7crr9mk6rBdxfQQPG8D0GxZKDBJTKwQPU5
WD/a+qXBcNvyQIg+gr0CEK3B9ny8QKzTx78IwKXBWvEHQfynR77qlnHBoIzDQDQpwUAPypXBObbh
QIChD0CX4ozBBQkJQY6zmT/G2nvBIeqnQIrt/kAFPovB86LgQJxYF77fYIfBDPeQQDAo3kCsL4TB
ao+jQNy1okAfBZDBSfXmQODBoz9lfIPB0xAXQQRsZsCgeIrB0LCUQEr4AUCfIKPBXU/nQDEVBEH3
fpfBkAMBQTXEUMAaQo/B5pbdQDWdTsAey4bBt3PnQLhfF8B2c3nBRrKNQHsqgkBPdpfBsnGsQEVD
PUAiQpvBVkzJQLkA60ADA5LBgV/1QMVffb9mmH7BZUW6QI0NC0BZ/5HBCNiAQBu1u0BwCYvBN9QQ
QSHwB7839mDBNzbbQFBIs0CVzJzBHAz9QFfYREAbOY/BKUZ2QM5TmECXTaDBrOcMQVLkAz66gbHB
wz+vQDqqM8CsMKPBb/iOQP1GLUEQirbBOVyqQAZ6CEGm2LnBA6mcQDEfP0GHE6XB08LTQPwh60Cg
t6vB+LjFQOo1LEFo6JbBoxPjQC5xAkD20qzBL2ODQDsZG79FuZ/BaeL4QAvLDcBwXqzBWb0KQcR7
/j/Orm/BfUoWQaPWoj8esIPBPDaQQJk/B0GVdJDB5gS3QMWKC0H0EobB3Fm+QLfQxb7C84fBfczv
QDBYlL4TPY/BSHunQID90EDgjXzBYjhsQBaa7UASAoDBrBO1QGMWkUBuyYnBEEPOQDHIwD9+93rB
BSgjQYTdZsCm3ZDB8V0bQSoCNsCJdITBw2wWQZnuksCMq4bB2f6MQMrjJUB7cqrBotdtQHmV1j88
Yp/BXfcAQXaQ9UDA45rB4OnzQDTID0HUuZHBrfsBQfuDEcBxF5PBABX6QIGvgMB0TpXBA7PAQLi0
NMCIo4rBy3TXQFFRiMCkJoTB2FDKQFm0E8A0nm/BPoIAQVTsNsARR3DBdgdoQKNQZUD+25LBJCPI
QNVUWkDbS5/BYCylQNhFwj8SC4/B19FdQM8FqEDEmYbBzbtdQK2QyEB20pDBfSpbQBhfhECF7aTB

> <OMEGA_E>
1N0BP8xLCj+sFhU/ODwWP8otJj8QvCY/MDX+Pg==

> <OMEGA_NBR>
     13426

$$$$
50162063
  -OEChem-04172616093D

 89 92  0     1  0  0  0  0  0999 V2000
    5.4662   10.2432  -21.8898 C   0  0  0  0  0  0  0  0  0  0  0  0
    5.9401    8.9419  -22.1498 C   0  0  0  0  0  0  0  0  0  0  0  0
    5.6645   10.8255  -20.6219 C   0  0  0  0  0  0  0  0  0  0  0  0
    6.6179    8.2251  -21.1441 C   0  0  0  0  0  0  0  0  0  0  0  0
    6.3299   10.1047  -19.6111 C   0  0  0  0  0  0  0  0  0  0  0  0
    6.9189    0.0213  -16.8098 C   0  0  0  0  0  0  0  0  0  0  0  0
    8.4683    1.6370  -15.8341 C   0  0  0  0  0  0  0  0  0  0  0  0
    8.2554   -0.5890  -14.8631 C   0  0  0  0  0  0  0  0  0  0  0  0
    6.7093    1.0685  -21.3976 C   0  0  0  0  0  0  0  0  0  0  0  0
    4.8686   -0.3645  -20.6691 C   0  0  0  0  0  0  0  0  0  0  0  0
    6.9353   -1.3576  -21.4976 C   0  0  0  0  0  0  0  0  0  0  0  0
    7.5023    1.3090  -16.8122 C   0  0  0  0  0  0  0  0  0  0  0  0
    7.3138   -0.9355  -15.8528 C   0  0  0  0  0  0  0  0  0  0  0  0
    6.8100    8.8010  -19.8667 C   0  0  0  0  0  0  0  0  0  0  0  0
    8.8217    0.6999  -14.8427 C   0  0  0  0  0  0  0  0  0  0  0  0
    5.4052    0.9213  -20.8767 C   0  0  0  0  0  0  0  0  0  0  0  0
    7.4768   -0.0717  -21.6976 C   0  0  0  0  0  0  0  0  0  0  0  0
    5.6292   -1.5016  -20.9874 C   0  0  0  0  0  0  0  0  0  0  0  0
    7.0828    2.3061  -17.8147 C   0  0  0  0  0  0  0  0  0  0  0  0
    6.6832   -2.2668  -15.8187 C   0  0  0  0  0  0  0  0  0  0  0  0
    5.4042    7.8966  -17.3250 C   0  0  0  0  0  0  0  0  0  0  0  0
    5.9871    5.9985  -18.8398 C   0  0  0  0  0  0  0  0  0  0  0  0
    4.5100    6.9524  -16.5146 C   0  0  0  0  0  0  0  0  0  0  0  0
    5.0337    5.0925  -18.0235 C   0  0  2  0  0  0  0  0  0  0  0  0
    9.8559    1.0543  -13.7972 C   0  0  0  0  0  0  0  0  0  0  0  0
    3.8993   -3.3872  -17.6163 C   0  0  0  0  0  0  0  0  0  0  0  0
    9.7203   -3.7902  -17.0886 C   0  0  0  0  0  0  0  0  0  0  0  0
    4.5840    2.1350  -20.5163 C   0  0  0  0  0  0  0  0  0  0  0  0
    7.4664    8.0015  -18.7469 C   0  0  0  0  0  0  0  0  0  0  0  0
    4.8827   -4.5558  -17.8151 C   0  0  0  0  0  0  0  0  0  0  0  0
    8.7623   -3.8689  -18.2884 C   0  0  0  0  0  0  0  0  0  0  0  0
    6.0550   -4.4924  -16.8170 C   0  0  0  0  0  0  0  0  0  0  0  0
    7.5727   -2.9069  -18.1171 C   0  0  0  0  0  0  0  0  0  0  0  0
    4.3288    4.0568  -18.9137 C   0  0  2  0  0  0  0  0  0  0  0  0
    5.3158    3.0250  -19.4888 C   0  0  1  0  0  0  0  0  0  0  0  0
    6.4864    7.1356  -18.0229 N   0  0  1  0  0  0  0  0  0  0  0  0
    5.8282    2.1767  -18.3996 N   0  0  0  0  0  0  0  0  0  0  0  0
    6.7767   -3.1901  -16.8875 N   0  0  0  0  0  0  0  0  0  0  0  0
    3.9756    5.9083  -17.3982 N   0  3  0  0  0  0  0  0  0  0  0  0
    7.8204    3.2435  -18.1002 O   0  0  0  0  0  0  0  0  0  0  0  0
    6.0706   -2.5576  -14.7968 O   0  0  0  0  0  0  0  0  0  0  0  0
    3.6443    4.7296  -19.9749 O   0  0  0  0  0  0  0  0  0  0  0  0
    8.7328    0.0682  -22.1777 F   0  0  0  0  0  0  0  0  0  0  0  0
    5.1034   -2.7319  -20.8011 F   0  0  0  0  0  0  0  0  0  0  0  0
    4.9510   10.7946  -22.6624 H   0  0  0  0  0  0  0  0  0  0  0  0
    5.7836    8.4940  -23.1201 H   0  0  0  0  0  0  0  0  0  0  0  0
    5.3059   11.8250  -20.4250 H   0  0  0  0  0  0  0  0  0  0  0  0
    6.9920    7.2329  -21.3492 H   0  0  0  0  0  0  0  0  0  0  0  0
    6.4736   10.5502  -18.6378 H   0  0  0  0  0  0  0  0  0  0  0  0
    6.1679   -0.2304  -17.5440 H   0  0  0  0  0  0  0  0  0  0  0  0
    8.9376    2.6096  -15.8465 H   0  0  0  0  0  0  0  0  0  0  0  0
    8.5438   -1.3150  -14.1173 H   0  0  0  0  0  0  0  0  0  0  0  0
    7.1168    2.0545  -21.5654 H   0  0  0  0  0  0  0  0  0  0  0  0
    3.8730   -0.4759  -20.2655 H   0  0  0  0  0  0  0  0  0  0  0  0
    7.5214   -2.2330  -21.7354 H   0  0  0  0  0  0  0  0  0  0  0  0
    4.7911    8.4198  -18.0736 H   0  0  0  0  0  0  0  0  0  0  0  0
    5.8607    8.6319  -16.6461 H   0  0  0  0  0  0  0  0  0  0  0  0
    6.8443    5.3999  -19.1818 H   0  0  0  0  0  0  0  0  0  0  0  0
    5.4455    6.3946  -19.7114 H   0  0  0  0  0  0  0  0  0  0  0  0
    5.1003    6.4868  -15.7117 H   0  0  0  0  0  0  0  0  0  0  0  0
    3.6781    7.5221  -16.0749 H   0  0  0  0  0  0  0  0  0  0  0  0
    5.6126    4.5687  -17.2486 H   0  0  0  0  0  0  0  0  0  0  0  0
    9.3559    1.4852  -12.9173 H   0  0  0  0  0  0  0  0  0  0  0  0
   10.4028    0.1472  -13.5004 H   0  0  0  0  0  0  0  0  0  0  0  0
   10.5616    1.7881  -14.2138 H   0  0  0  0  0  0  0  0  0  0  0  0
    3.0799   -3.4688  -18.3457 H   0  0  0  0  0  0  0  0  0  0  0  0
    3.4877   -3.4239  -16.5969 H   0  0  0  0  0  0  0  0  0  0  0  0
    4.4280   -2.4340  -17.7642 H   0  0  0  0  0  0  0  0  0  0  0  0
   10.5574   -4.4874  -17.2408 H   0  0  0  0  0  0  0  0  0  0  0  0
   10.1090   -2.7653  -16.9966 H   0  0  0  0  0  0  0  0  0  0  0  0
    9.1800   -4.0613  -16.1697 H   0  0  0  0  0  0  0  0  0  0  0  0
    4.3939    2.7218  -21.4271 H   0  0  0  0  0  0  0  0  0  0  0  0
    3.6268    1.8048  -20.0865 H   0  0  0  0  0  0  0  0  0  0  0  0
    8.2509    7.3634  -19.1798 H   0  0  0  0  0  0  0  0  0  0  0  0
    7.9182    8.7021  -18.0292 H   0  0  0  0  0  0  0  0  0  0  0  0
    4.3433   -5.5036  -17.6712 H   0  0  0  0  0  0  0  0  0  0  0  0
    5.2837   -4.5137  -18.8385 H   0  0  0  0  0  0  0  0  0  0  0  0
    9.3109   -3.6013  -19.2035 H   0  0  0  0  0  0  0  0  0  0  0  0
    8.3818   -4.8973  -18.3765 H   0  0  0  0  0  0  0  0  0  0  0  0
    5.6622   -4.6264  -15.7983 H   0  0  0  0  0  0  0  0  0  0  0  0
    6.7618   -5.3033  -17.0470 H   0  0  0  0  0  0  0  0  0  0  0  0
    7.9576   -1.8781  -18.0582 H   0  0  0  0  0  0  0  0  0  0  0  0
    6.9139   -3.0023  -18.9928 H   0  0  0  0  0  0  0  0  0  0  0  0
    3.5982    3.5173  -18.2931 H   0  0  0  0  0  0  0  0  0  0  0  0
    6.1447    3.5499  -19.9863 H   0  0  0  0  0  0  0  0  0  0  0  0
    5.2292    1.4539  -18.0550 H   0  0  0  0  0  0  0  0  0  0  0  0
    3.3839    5.3072  -16.8611 H   0  0  0  0  0  0  0  0  0  0  0  0
    3.4396    6.3448  -18.1209 H   0  0  0  0  0  0  0  0  0  0  0  0
    3.2080    4.0906  -20.5262 H   0  0  0  0  0  0  0  0  0  0  0  0
  1  2  1  0  0  0  0
  1  3  2  0  0  0  0
  2  4  2  0  0  0  0
  3  5  1  0  0  0  0
  4 14  1  0  0  0  0
  5 14  2  0  0  0  0
  6 12  1  0  0  0  0
  6 13  2  0  0  0  0
  7 12  2  0  0  0  0
  7 15  1  0  0  0  0
  8 13  1  0  0  0  0
  8 15  2  0  0  0  0
  9 16  1  0  0  0  0
  9 17  2  0  0  0  0
 10 16  2  0  0  0  0
 10 18  1  0  0  0  0
 11 17  1  0  0  0  0
 11 18  2  0  0  0  0
 12 19  1  0  0  0  0
 13 20  1  0  0  0  0
 14 29  1  0  0  0  0
 15 25  1  0  0  0  0
 16 28  1  0  0  0  0
 17 43  1  0  0  0  0
 18 44  1  0  0  0  0
 19 37  1  0  0  0  0
 19 40  2  0  0  0  0
 20 38  1  0  0  0  0
 20 41  2  0  0  0  0
 21 23  1  0  0  0  0
 21 36  1  0  0  0  0
 22 24  1  0  0  0  0
 22 36  1  0  0  0  0
 23 39  1  0  0  0  0
 24 34  1  0  0  0  0
 24 39  1  0  0  0  0
 26 30  1  0  0  0  0
 27 31  1  0  0  0  0
 28 35  1  0  0  0  0
 29 36  1  0  0  0  0
 30 32  1  0  0  0  0
 31 33  1  0  0  0  0
 32 38  1  0  0  0  0
 33 38  1  0  0  0  0
 34 35  1  0  0  0  0
 34 42  1  0  0  0  0
 35 37  1  0  0  0  0
  1 45  1  0  0  0  0
  2 46  1  0  0  0  0
  3 47  1  0  0  0  0
  4 48  1  0  0  0  0
  5 49  1  0  0  0  0
  6 50  1  0  0  0  0
  7 51  1  0  0  0  0
  8 52  1  0  0  0  0
  9 53  1  0  0  0  0
 10 54  1  0  0  0  0
 11 55  1  0  0  0  0
 21 56  1  0  0  0  0
 21 57  1  0  0  0  0
 22 58  1  0  0  0  0
 22 59  1  0  0  0  0
 23 60  1  0  0  0  0
 23 61  1  0  0  0  0
 24 62  1  0  0  0  0
 25 63  1  0  0  0  0
 25 64  1  0  0  0  0
 25 65  1  0  0  0  0
 26 66  1  0  0  0  0
 26 67  1  0  0  0  0
 26 68  1  0  0  0  0
 27 69  1  0  0  0  0
 27 70  1  0  0  0  0
 27 71  1  0  0  0  0
 28 72  1  0  0  0  0
 28 73  1  0  0  0  0
 29 74  1  0  0  0  0
 29 75  1  0  0  0  0
 30 76  1  0  0  0  0
 30 77  1  0  0  0  0
 31 78  1  0  0  0  0
 31 79  1  0  0  0  0
 32 80  1  0  0  0  0
 32 81  1  0  0  0  0
 33 82  1  0  0  0  0
 33 83  1  0  0  0  0
 34 84  1  0  0  0  0
 35 85  1  0  0  0  0
 37 86  1  0  0  0  0
 39 87  1  0  0  0  0
 39 88  1  0  0  0  0
 42 89  1  0  0  0  0
M  CHG  1  39   1
M  END
> <OMEGA_C>
SOuuQFTkI0FTHq/BFxW+QOoRD0HZMrHBOEO1QBE1LUGV+aTBG8bTQOGZA0EtJ6nB0Y7KQOusIUGi
45zB0GfdQPBwrjySeobBSH4HQZ2I0T9XWH3BLxYEQRvIFr8Xz23BXrLWQLvEiD9ILqvBTcubQCCj
ur5VWqXBy+3dQN7Erb8p+6vB/xLwQD6Opz9ef4bBxQrqQAR7b7/spH3BkevZQObQDEEG757BfyUN
QWotMz+Xe23BPvesQG7aaz94A6fBukHvQBTlkr2+lK3BYiK0QPszwL9I5qfB+KXiQPOXE0CMhI7B
ytzVQAwUEcB4GX3BCu+sQMWw/ECVmYrBNZa/QFrzv0D1t5bBh1GQQAl63kD4HYTBRhShQLj1okAa
MJDB8rEdQcHzhj93wVzBUI55QN7HWMBH7ozBg4YbQUeScsCEtYjBS7CSQMKjCEB8IaTBF+3uQFEG
AEGi+ZXBWT+cQMbIkcA/hY7BQTIMQcycd8CuTpLBpsLBQBfCj8BGiYbB4VPyQJIKOsDq75DBuoWK
QGHRgUAwT5fBVhuqQHqZQUAg6ZvBsJDPQCJX5EDQLpDBVIC6QPNOC0BYMpPBpNrYQFkqTMCUGYfB
dnB+QCcRvUCVL4vBwUD6QDaWT0AczZDBcELCQIevI8DRv2zB2jxpQLdYl0CozJ/BfLkLQbi/iz3s
a7HB706jQAPXLsCmaKbBjm6eQKO2LEGtTLXBPxO5QHPnB0Hd9bjBmMmpQCEzPUFoZqPBg77fQNNz
50Ajy6rBvCfPQHnNKEFKGpXBgV/FQMvya74rWozBZAAPQRsEJ0Asi33BU7MIQY9SqL+K4GHBlLzj
QP58A0DlhazB4N93QFOu8762H6LBMa/wQAvpDsAq4q3BqVCZQIS3BkGqlpDB7Iq7QE4cCkFAK4XB
JQTbQJjLrEBIdJnBJ0GuQFqgzEAKsZ3BCDajQCyUz0AnY3vBXmVrQGK18EBumYDBOZqzQG4ykkAJ
/YnBzrEVQWccvj9MrU7BBnImQajBFj7AAVjBdPwoQUzh5D+xa2PB7hxFQCMBXsDmw5LBUjZfQIkg
W8B/xoTBarKNQKnGG8AlHY7BSesoQbCYj8Aq7YnBqL4hQSH6MMAc+YfBKOESQcr1gcBzW4HBHJuM
QMYyLkC1aqvBNB5oQEwE5z8XsaDBrgMEQU+h60BVcJnBSmL9QLg7C0HAO5DBjfyKQEYdsMCpXo3B
zhOpQFZwkMBOtZbBifkUQfF7ZsC/oJnBCRwGQbK2nMAWA5PBWDC1QKkLlMAIxnzBrGDYQOe0qcBW
YIjB7qT+QCVm8L86d5DBeT7dQIAlQMBK8ZfBbEhmQHEbYUBQWJLBD6HEQAUyY0D745/BflWnQP4X
uj+ocJDBE5JYQDfUqUCf44bBLiJcQHsIy0CH95DBc1BNQDvmgkCRNaTB3latQGioJEFM9K7BHeKz
QMfULUEeyaTBEW68QBPcD0FcH7HBLErJQFAsIkHLwpzBnCnSQGxBBEFgIqnB+OvcQGz+ajydfobB
SlkHQcK80D9Wi33Bt7kDQWzyFb9EtG3B2efWQDZnhz8/ZavBulucQPcAvr54SqXB0FneQLs9r7+z
96vBiN3vQOw2pj/wl4bBc1bpQI75b78RiX3BjJfYQARWDUG15Z7B/EMNQZHEMD+K123BhVitQLkB
aj86HafB5nnvQFuZrL1ov63BNLi0QN5Kwb85x6fB0QLjQBtcEkBcuo7BVXXVQHadEcDWDn3Ba+is
QABn/EBkiorBpBzAQEz4v0DovZbBBTaRQCSk3UCg/YPBGNOhQIqhokBfOZDB6v4cQcuXiT+jgFzB
Rnt6QPM3V8BizYzB8YMbQa8ucsC+ZYjBUhuTQFtrCEA1QqTBOVPuQASCAEFIDpbBQgScQLSNkcDJ
dY7B5Y4MQYDMdsDOJJLBhwHCQCYRkMAinIbBbavyQFATOsBq3pDB9giLQIitgUBlX5fBxICqQN1t
QUCrCZzBCa7PQEit5EAFOZDB6bW6QF4hC0A0UpPBbP7YQLWkTMDPFIfB3wmAQDpavEBrE4vBbEj7
QMPMTED3M5HBcgjCQNgJJcCItmzB8sJpQDdSl0DVzJ/BPcALQXLxVz1vtLHB9hCkQHhSL8DaIKbB
SsGcQBKSLUERFrXBrXqoQDjPPUHcJKPBiFW3QOHQCEGZ6LjBUQTOQEQvKUH785TBFfTdQFa+6EBU
1arBBdzEQNNIdL5rW4zBIqIOQcQLJ0BFn33BD/YHQSIepr/8a2HB9tDjQOe7AkDU3KzBqT95QA0A
9r6W+6HBTCLxQIO6D8Bw0K3BkrSYQGhmBkGgd5DBmFa7QDsXCkHGJYXB+8fbQEYYrUC1cpnBr7au
QOpizEDRu53BCcakQH65zkCyZHvB8UZtQF9k70AATYDBjJi0QFylkUASHIrBK0wUQRljwT9U4k7B
wLwlQXynOD79KlfBmWUoQREV6D8z2WLBxlVFQHHCW8Cki5LBWvxgQIHhWMAvmoTBbpeOQJbQGsCz
Eo7BIg0pQdoaj8DfjonBKY8hQcBzMMCngIfBFaMSQVVIgsCqJ4HBiiCNQC/lLUB/jqvBm9loQH3u
5j/l1KDBfcIDQQgO7UCDpJnBlsX8QGu1C0H6TpDBzFCKQLGSr8C3OI3BDWqoQDyKkMA8sZbBq5IV
QXykZMBdWpnBl6YGQbRgnMBhAZPBdPC1QC/zlMAT3nzBw4nYQDTZqcCopojBh5j+QN7m779sY5DB
AdrdQIvDQMBW6pfBPY1nQOuoYEALZJLBjRDFQCYCY0DiAKDBJEOnQGI/uz/7fZDBqdlaQEXaqEDp
w4bBihJdQNliykDcx5DBXaVNQOzugkBCNaTBhJ6rQCMqJUFs8q7BuN+6QJZtEEECMrHBxCOyQNgz
LkGUv6TB3MTQQOi/BEEMQqnBgcrHQKV+IkHwyJzBSUHgQIjMB7zawIXBtP4JQVTW0D92jH7B8t0G
QZKrB7+Rz2zBndfXQO7gij+BjqvBxQqeQKC1vL4jX6XBTFbgQPNTq7/3HqzB1XPzQK7Poj+MlobB
zW3tQGNaZ7+gQHvBtU/XQDS7DUE/AZ/BKZ0QQXCPOz8tgm7BK3quQIJubD9eNKfBAtrwQMTSP73s
7a3BEuC2QAewv79K4qfBkvzkQAr6D0CdvY7BJO7VQAT0CcDEn3fBwQ6sQA7b/EBQtIrBKEHAQEoE
wEBXs5bB+fSQQK0G3kDcBoTBbnaiQPuBokD9EJDBT8YgQWyclT957l3B4Zx/QPNXjcB4FZLBhJga
QQafZMB+65bBHSCUQBFCCEAzKaTBI3ntQGfoAEHvOpbBUBqbQOp2XMBGnYvBtAAFQVXwScACPJLB
KGy7QKD4hsBcmoTBOHkEQRiAY8D0ZIbBdPaLQD7qgEAJGJfBkpCrQLwSQEAaz5vBozLPQBRc5UAV
UJDBSFG8QHJ2CECsL5PB1KzeQLsyVMDhpoHBOk6AQJ4EvEAG+orBB2j8QNaeS0A6SZHB/oe3QDY+
CMCkPmvBlIdqQBo8lkBhf5/Bc2YMQUOJ2T3p47HBduimQMwJL8AEOKbBr+2aQJghLkGECrXB7se1
QGN8CUEbAbnBvYemQEkdPkF2CaPBbpbcQLvJ6UCNAqvBJ4vMQF1pKUH69JTBT43HQO/tmb4bU4vB
TWoRQQ6tJkAPr3/BZM4LQeJdm7+sYWDBrkPkQGrOBEDID63Bc8t8QJl++742CqLBfXrzQOs/DcAB
/K3B/YiXQBFFBkHQrpDBxR26QG6aCkEIaYXBqj3cQHB4rUAqWJnBoaGuQGe7y0CRu53BB9OkQLzU
z0BoYHvBRjhsQPyI70CjY4DBRom1QIgWkkD66YnBeW8YQXzZ0j9wdFDBIqcpQdIalT7zHljBewEs
QYRW8T9GJ2XBYvJRQDKSdsD2B5fBP5mUQJCyoMDpR5fBF1RcQEJ/osDUmozBdkAbQRG8UsDAbJ/B
rIknQU0GRMCtkJLBVYkcQfMnlcB3I5bBEAeOQLnTLkD7XKvBcwJrQOIn5T9HxaDBVUcDQa7v7UCR
5JnBUh78QNsdDEGyhJDByqKsQFIuMsA6HpHBljOGQLbHNcAlcYbBgAMDQZ4+BMDg+pLBUAbwQDiI
asCqjZbBal6rQPGFksCXpXrBtCbIQH9iosAOHYnBQFoIQbb4k8DCsoXBR3YQQTSlPcCcBYLBWhpq
QKzxXkBcCJLBpwzGQAcxYkAZvJ/BUyapQNvitD8FXpDBdyVcQAl4qEBClIbBfgFdQOxpyUAauJDB
F5tOQPWjgUBG3aPB

> <OMEGA_E>
QAniPMDxvDzYdZ4+

> <OMEGA_NBR>
     17833

$$$$
50147908
  -OEChem-04172616093D

 74 78  0     1  0  0  0  0  0999 V2000
    5.1343   10.4854  -21.8949 C   0  0  0  0  0  0  0  0  0  0  0  0
    5.5102   11.0936  -20.6806 C   0  0  0  0  0  0  0  0  0  0  0  0
    5.4588    9.1362  -22.1383 C   0  0  0  0  0  0  0  0  0  0  0  0
    6.2084   10.3535  -19.7081 C   0  0  0  0  0  0  0  0  0  0  0  0
    6.1659    8.3970  -21.1708 C   0  0  0  0  0  0  0  0  0  0  0  0
    6.6152    1.0000  -21.4450 C   0  0  0  0  0  0  0  0  0  0  0  0
    5.0017   -0.4639  -20.3380 C   0  0  0  0  0  0  0  0  0  0  0  0
    7.0364   -1.3976  -21.3063 C   0  0  0  0  0  0  0  0  0  0  0  0
    6.5497    9.0071  -19.9535 C   0  0  0  0  0  0  0  0  0  0  0  0
    5.3951    0.8231  -20.7581 C   0  0  0  0  0  0  0  0  0  0  0  0
    7.4347   -0.1098  -21.7179 C   0  0  0  0  0  0  0  0  0  0  0  0
    5.8230   -1.5729  -20.6105 C   0  0  0  0  0  0  0  0  0  0  0  0
    8.5769   -0.0947  -15.1955 C   0  0  0  0  0  0  0  0  0  0  0  0
    6.0933    6.0135  -18.7124 C   0  0  0  0  0  0  0  0  0  0  0  0
    7.0137    2.2589  -17.7107 C   0  0  0  0  0  0  0  0  0  0  0  0
    8.5865    1.2873  -15.8678 C   0  0  0  0  0  0  0  0  0  0  0  0
    8.5548   -2.7765  -18.0163 C   0  0  0  0  0  0  0  0  0  0  0  0
    8.8807   -3.9395  -17.0888 C   0  0  0  0  0  0  0  0  0  0  0  0
    5.2835    7.9303  -17.3348 C   0  0  0  0  0  0  0  0  0  0  0  0
    6.9366   -0.0887  -16.8811 C   0  0  0  0  0  0  0  0  0  0  0  0
    4.5443    6.8958  -16.4822 C   0  0  0  0  0  0  0  0  0  0  0  0
    5.0674    5.0706  -18.0200 C   0  0  2  0  0  0  0  0  0  0  0  0
    7.2003    1.3580  -16.4899 C   0  0  2  0  0  0  0  0  0  0  0  0
    7.5477   -3.1822  -16.9181 C   0  0  0  0  0  0  0  0  0  0  0  0
    4.5423    2.0201  -20.4121 C   0  0  0  0  0  0  0  0  0  0  0  0
    7.2593    8.2128  -18.8760 C   0  0  0  0  0  0  0  0  0  0  0  0
    7.3725   -2.3202  -15.6362 C   0  0  0  0  0  0  0  0  0  0  0  0
    4.3665    4.0886  -18.9797 C   0  0  2  0  0  0  0  0  0  0  0  0
    5.3057    2.9620  -19.4609 C   0  0  1  0  0  0  0  0  0  0  0  0
    6.3011    7.3070  -18.2118 N   0  0  0  0  0  0  0  0  0  0  0  0
    7.6191   -0.8817  -15.8589 N   0  0  0  0  0  0  0  0  0  0  0  0
    5.7564    2.1980  -18.2972 N   0  0  0  0  0  0  0  0  0  0  0  0
    4.0059    5.8641  -17.3738 N   0  3  0  0  0  0  0  0  0  0  0  0
    9.2813   -0.4281  -14.2503 O   0  0  0  0  0  0  0  0  0  0  0  0
    6.8288    5.5788  -19.5916 O   0  0  0  0  0  0  0  0  0  0  0  0
    7.8864    3.0327  -18.0928 O   0  0  0  0  0  0  0  0  0  0  0  0
    3.8225    4.8100  -20.0836 O   0  0  0  0  0  0  0  0  0  0  0  0
    8.6057    0.0627  -22.3712 F   0  0  0  0  0  0  0  0  0  0  0  0
    5.4579   -2.8017  -20.1812 F   0  0  0  0  0  0  0  0  0  0  0  0
    4.5971   11.0540  -22.6395 H   0  0  0  0  0  0  0  0  0  0  0  0
    5.2623   12.1284  -20.4961 H   0  0  0  0  0  0  0  0  0  0  0  0
    5.1653    8.6691  -23.0668 H   0  0  0  0  0  0  0  0  0  0  0  0
    6.4833   10.8174  -18.7724 H   0  0  0  0  0  0  0  0  0  0  0  0
    6.4156    7.3631  -21.3582 H   0  0  0  0  0  0  0  0  0  0  0  0
    6.9194    1.9870  -21.7608 H   0  0  0  0  0  0  0  0  0  0  0  0
    4.0707   -0.5982  -19.8074 H   0  0  0  0  0  0  0  0  0  0  0  0
    7.6614   -2.2510  -21.5243 H   0  0  0  0  0  0  0  0  0  0  0  0
    8.7322    2.0885  -15.1283 H   0  0  0  0  0  0  0  0  0  0  0  0
    9.3711    1.3505  -16.6362 H   0  0  0  0  0  0  0  0  0  0  0  0
    9.1115   -1.8318  -17.9287 H   0  0  0  0  0  0  0  0  0  0  0  0
    8.3200   -2.9670  -19.0740 H   0  0  0  0  0  0  0  0  0  0  0  0
    8.8813   -4.9682  -17.4782 H   0  0  0  0  0  0  0  0  0  0  0  0
    9.6728   -3.8331  -16.3329 H   0  0  0  0  0  0  0  0  0  0  0  0
    4.5518    8.4604  -17.9622 H   0  0  0  0  0  0  0  0  0  0  0  0
    5.7826    8.6482  -16.6674 H   0  0  0  0  0  0  0  0  0  0  0  0
    5.8572   -0.3002  -16.8792 H   0  0  0  0  0  0  0  0  0  0  0  0
    7.3503   -0.3023  -17.8777 H   0  0  0  0  0  0  0  0  0  0  0  0
    5.2412    6.4397  -15.7637 H   0  0  0  0  0  0  0  0  0  0  0  0
    3.7220    7.3823  -15.9370 H   0  0  0  0  0  0  0  0  0  0  0  0
    5.5999    4.4867  -17.2548 H   0  0  0  0  0  0  0  0  0  0  0  0
    6.4772    1.6552  -15.7160 H   0  0  0  0  0  0  0  0  0  0  0  0
    6.6471   -3.7106  -17.2642 H   0  0  0  0  0  0  0  0  0  0  0  0
    4.2879    2.5634  -21.3342 H   0  0  0  0  0  0  0  0  0  0  0  0
    3.6191    1.6785  -19.9212 H   0  0  0  0  0  0  0  0  0  0  0  0
    8.0671    7.6205  -19.3307 H   0  0  0  0  0  0  0  0  0  0  0  0
    7.6846    8.9035  -18.1331 H   0  0  0  0  0  0  0  0  0  0  0  0
    6.3427   -2.4449  -15.2701 H   0  0  0  0  0  0  0  0  0  0  0  0
    8.0788   -2.6812  -14.8740 H   0  0  0  0  0  0  0  0  0  0  0  0
    3.5437    3.6156  -18.4236 H   0  0  0  0  0  0  0  0  0  0  0  0
    6.1638    3.4017  -19.9904 H   0  0  0  0  0  0  0  0  0  0  0  0
    5.0953    1.5716  -17.8844 H   0  0  0  0  0  0  0  0  0  0  0  0
    3.4251    5.2494  -16.8401 H   0  0  0  0  0  0  0  0  0  0  0  0
    3.4585    6.3069  -18.0839 H   0  0  0  0  0  0  0  0  0  0  0  0
    3.3904    4.2055  -20.6755 H   0  0  0  0  0  0  0  0  0  0  0  0
  1  2  1  0  0  0  0
  1  3  2  0  0  0  0
  2  4  2  0  0  0  0
  3  5  1  0  0  0  0
  4  9  1  0  0  0  0
  5  9  2  0  0  0  0
  6 10  1  0  0  0  0
  6 11  2  0  0  0  0
  7 10  2  0  0  0  0
  7 12  1  0  0  0  0
  8 11  1  0  0  0  0
  8 12  2  0  0  0  0
  9 26  1  0  0  0  0
 10 25  1  0  0  0  0
 11 38  1  0  0  0  0
 12 39  1  0  0  0  0
 13 16  1  0  0  0  0
 13 31  1  0  0  0  0
 13 34  2  0  0  0  0
 14 22  1  0  0  0  0
 14 30  1  0  0  0  0
 14 35  2  0  0  0  0
 15 23  1  0  0  0  0
 15 32  1  0  0  0  0
 15 36  2  0  0  0  0
 16 23  1  0  0  0  0
 17 18  1  0  0  0  0
 17 24  1  0  0  0  0
 18 24  1  0  0  0  0
 19 21  1  0  0  0  0
 19 30  1  0  0  0  0
 20 23  1  0  0  0  0
 20 31  1  0  0  0  0
 21 33  1  0  0  0  0
 22 28  1  0  0  0  0
 22 33  1  0  0  0  0
 24 27  1  0  0  0  0
 25 29  1  0  0  0  0
 26 30  1  0  0  0  0
 27 31  1  0  0  0  0
 28 29  1  0  0  0  0
 28 37  1  0  0  0  0
 29 32  1  0  0  0  0
  1 40  1  0  0  0  0
  2 41  1  0  0  0  0
  3 42  1  0  0  0  0
  4 43  1  0  0  0  0
  5 44  1  0  0  0  0
  6 45  1  0  0  0  0
  7 46  1  0  0  0  0
  8 47  1  0  0  0  0
 16 48  1  0  0  0  0
 16 49  1  0  0  0  0
 17 50  1  0  0  0  0
 17 51  1  0  0  0  0
 18 52  1  0  0  0  0
 18 53  1  0  0  0  0
 19 54  1  0  0  0  0
 19 55  1  0  0  0  0
 20 56  1  0  0  0  0
 20 57  1  0  0  0  0
 21 58  1  0  0  0  0
 21 59  1  0  0  0  0
 22 60  1  0  0  0  0
 23 61  1  0  0  0  0
 24 62  1  0  0  0  0
 25 63  1  0  0  0  0
 25 64  1  0  0  0  0
 26 65  1  0  0  0  0
 26 66  1  0  0  0  0
 27 67  1  0  0  0  0
 27 68  1  0  0  0  0
 28 69  1  0  0  0  0
 29 70  1  0  0  0  0
 32 71  1  0  0  0  0
 33 72  1  0  0  0  0
 33 73  1  0  0  0  0
 37 74  1  0  0  0  0
M  CHG  1  33   1
M  END
> <OMEGA_C>
kUykQFHEJ0HBKK/BglOwQFZ/MUHucaXBkK6uQPItEkFWG7HB56rGQBGoJUFJqp3BOU/FQBxaBkHH
XanBD7DTQAAAgD9Vj6vBIg6gQB6F7b4ntKLBNyrhQOHjsr9ic6rB3JbRQPQcEEHRoJ/BeaSsQPC1
Uj+REKbBVuntQPLP4L1Xvq3BqFW6QJZTyb9I4qTBATsJQbb+wb3cIHPBevzCQLluwEAVs5XB9G/g
QFiREECQr43BcGIJQUTGpD+14n3Bh+AIQbaxMcByIZDBXhcOQVEgfMDOtYjBWRKpQL7E/UDArYrB
0fjdQM6ftb2KDIfBCmuRQG6q3EB524PBhSiiQC9CokDsKJDB/2jmQGzUrT8764PB+obxQOapS8BY
WIfBnVqRQE9JAUAGTKPBSUzoQIdnA0EjApfBxOvrQF1+FMCvLXrBObqLQJXVgkBb1pfBpcipQM+R
PUDhr5vBrKLJQD/T6UCvsZHBB9DzQFO5Yb/rvX3BzDS4QEOsDECeYJLBHTCAQIGmu0CR/YrBB4AU
QaQz274NAWTBP4XaQPCFskCTu5zBJ138QGUYQkANvpDBIaR0QDrrmUAsq6DB17AJQVZggD0t+LLB
f6euQIBPM8Awc6HBrxuTQEzdMEHIHbXB5WSoQAgOQkHr96PB00mlQJq0CkHPiLjB9XbPQAcULUHV
LZbBjEzNQIee60CS3arBm2vdQABW/j8WFq7BHEOCQLckGb97dZ7Bbir1QLEPEMCtMazB97YLQRiq
BUC4DXLBF/AVQQjdrD8IF4XBvcgRQTV46r8Bbo/B4R4FQfPiPcB6l5jBxxkOQdz7nsBJ04vBo8Ma
QeBQdcDPqYLBcKiRQMddB0Giso/BKwu5QAJfCkHeVoXBxm27QGyymb6MCIfByTXrQLbFmr6YBY/B
TbinQJ0RzkAQOHzB2zVuQOs77EAZ/n7BszKzQMOSj0DXCYrBbUXPQOLe0z/adHvBTLXUQJx6bcAV
HYrBhTaJQDEOJEBXrKrBQZ9nQLXZ1j+jXp/BwhIBQUDb80BVpZrBl+j1QLB0DkGHEJHBqPfKQCF5
HMB4UnTBukIBQaSYK8Df+23BvctiQFFlZ0BvY5PBxD3FQGu1WUBv7J/BXAyjQJApyT8tE4/BETVb
QBD7p0ByuIbBz1ddQHzSyUDWq5DBwvtYQB2ThkBWZ6XBpuapQIBjJ0HdWa7Bfvy3QPeNEkFm1bDB
UVmxQCH7L0HAGKTBo6TNQANUBkGVEqnBT+HGQO3CI0ExUpzB4pHSQD1QeT8h+6vByBKcQJKb+r5G
RaTBjZ3dQLtGuL9yp6vBjXHVQAz6DkE6zZ7B6XWqQNijTT/g86bBWCXsQKqHFr4zTK7B36C1QE7y
zb+SnabB1eIKQdRLAj//527BRg/DQNpQvkBkpJXBuZ/dQL/UEkCN4Y3Br4oFQTvH6T8aF3rBetnw
QOCfQMBRkI7BCw0FQYWKgsCDcojB8v2qQEml+kCeEYrBNoLsQBT65Dwdg4bBXBCSQIpq2UDGk4PB
RLmhQFQfoECqSJDBZSrkQOWZvD/eu4PBupX0QLSWO8CXToLBn6OPQMNjAEDbAaTBeuvqQFi2AUEw
MZbBD0EJQbDR8r8H6XnBPNOKQC59gUAiHJjBZkyoQGCsOkB9OZzBFzfLQLit5kCaLpHB818AQSXQ
CL+W03nB3O62QJCWB0DvGpPB3TqAQMmyuUB9/YrByvkXQXiezD4Ra2DB+pLZQPQjsUBB95zBP3j4
QN2DRkCP+ZDBEEVzQPqTmUCuyqDBQ14JQaBomjwTAbPBevOnQHsWNsAw5qPByWGZQJ7HMEEpULTB
ciyyQNL2C0Hur7jByYemQCLzP0EWNKLB3k3YQIGq7EBH96rBPUTMQKZOKkFtcJTBwZjdQMFv+z/K
C67ByNt6QMXLHr9VaqDBMyHxQBxDE8Bqfa3BMroBQX4wJ0DZYW7Bo+ESQfYiCkBfIoLBnugAQVX0
EcDZmpPBNwbSQIP0UMBESpLBbWP9QK1Co8ACy4fBOpcWQZbCg8CXG4nBt0yUQNN9BkED/o7BjnO7
QBcyCEFYgYTBfVnOQJnP/L4DS4jBAAsBQV4WQ71IcI3B6KinQDaHyUAOwHvBYfhvQMQ26UAtXH7B
RnWyQKC7jEBLP4rBkUbHQLBhxT8LeX3B0ZrXQNl0TMDIjnvBtt6HQGSaJECrTKvB8cFjQGVl1T88
K6DBLVcCQYk58EB4yZnBT3j4QEFkDEGCEpDBkhUMQeI8DcD4QmnBAogYQd8j8b/GUoHB3rlgQGOj
ZEC3t5PBpczDQMUhV0DraKDB25WjQDVwsj8tdZDB9hBaQPb9pUBx54bBsH5eQPn5yECul5DBiwhX
QJPYhkBLoKXBUeagQNRqJUGM9K/B1aCwQJOsEEGl9rHBYKuoQIBRL0ENBKbBbj/IQIbZBUFdC6rB
ICzAQFqAJEEIFZ7BHGTWQDgqhz/NTKvBZwafQOms1L4IFaTBkyThQFXTrb/kMavBmWDQQLLSD0FP
GKDBL+GtQEpAYT/VgabBoB/wQPCDfb2Qjq3BzJO4QMpBxL93dqbBWhQHQZI6VL7Z3XLBY6jDQEdQ
wUAOyZXBteDgQMadEEBieI3BsyMIQQp7mj9vqXzBhpYLQcwOiMA6BIvBB2YAQd6DVMDXApPB/y+p
QMN7/kCn1IrBDofeQBz96L13tofBVhmSQFFT3UBF64PBlWWjQCTYokD2IpDBdFXlQOXFpz//9YPB
R3UIQamvMcARSYjBSAqTQMUUBUArmqPBl9/nQEgKBEHASZfB7EPvQO7tGMDbo3/BBv+MQPAig0AB
tJfBDmCrQJdzP0DMvZvBJ//JQDHH6kDH0JHByzXuQHxAbr/zu33BNXq5QFBiDEAEmZLBMDSBQF/i
u0Dm9YrBarkSQXL6Ir/Iq2TBfhrbQEmps0AQ3pzB9G78QA1yRUCYyI/BPmN0QGQOmkC4YqDB7acL
QRwT4z1k7LHBjkKqQEmHMcCaG6TBt96OQI68LUFfCrbBYJGqQHkUCUE2k7nBwpScQBg3P0GGfKTB
RCrUQH/W60DJkavBy9DFQEQLLEETcJbBl5rhQLIcA0AlO63BDg6AQEmUDL9qZqDBhcH0QN/vDcD1
Aq3BmMcJQZLe/D/mLXDBQ3cVQQK+pT8uCYTBSlQCQamqoMBRwYbB57IbQdZflMC0xIzBv3wIQVZT
QsAWfZrBRDzeQP3oWsCzeZTBoHqRQFpyB0Hb4I/B0Nm4QMXzCkFWjoXB22W8QFbSnb6mM4nBxujw
QAkdoL79C4/BZq+oQKM2z0BwVHzB409vQDix7ED9H3/Bg9W0QDJ/kEBwBYrBFaHMQGuqxz8OCXzB
c9gWQec3CcARm4jBcYWLQLdiKUBd56rB+0xqQKCX3j/t1Z/BiDIBQZeU9UDQw5rBT6X0QBumD0Ha
fpHBh5zPQCuBMMDmS4LBdeb3QORdNcAoIXDBDdBmQPTOZkCmHZPB6+jGQNewXEDc05/B04SkQDWr
wz9fuY/BBwdeQNURqEB2oIbB/a9eQHyiyUCeo5DB1q5YQLqGhkCCEaXBRMahQDq7JUGHZrDBDVup
QH68L0FEeqbBIR+xQM3eEEECS7LBZVbAQKfqJEE9c57BakLIQH8MBkE/SKrBCkjYQLbYiD/hd6rB
PE+fQJmv1L7BRqTB65nhQISMrL+wYKvBokLQQEIkEEEtW6DBhjWvQAy3Yj/k/qXBCJ3xQEhkQr3p
Ca3BMF64QLLgw7+MDqfBhCQIQUjpBb94J3jBeAfDQKAywkAzy5XBb7jeQI+tDkDsWYzB3DwHQTAr
fT+kJ3zBRlCvQMx0XMDnxonBECbMQA1KlMCU3IbBVy+oQDUFAEHPIYvBkErfQBLMYr7Mw4nBFqaQ
QINa30DaK4TBy6yiQIIZpEB6DZDBjQ3kQNCgjz9U/oPBFFnXQIPgTsAi2ILBvhmUQPQEBUC4FKPB
N2PnQLhrBEFod5fB8SL/QH9TI8A5rofB8sGMQFKrg0B+e5fBZXKrQPWMP0D7CpvB4T7JQI7k60AQ
+JHBKn3/QPjLjr8xSoXB1om3QI1ZDUCTo5HBZCiAQGR0vUCsIIvB9tcOQdPair8+FGjBEYPaQGsq
tEDm0pzBlzv7QFnqQUBpfo7BNH11QI+smUCFa6DB0aIMQXriBD7/HbHBnq6oQMi3McD2qqXByi6Q
QFoPLkHrj7bBFYadQIq2P0GICKXBpCOrQC8vCUGo4rnBNszFQNeHLEGv0JbBYObTQJ8R7EAsuKvB
LzrkQHQ+BEDc6avBm+B/QL9ODr9z1KDBJPL0QHMtDcD0aq3BSx0HQTvFxj9eC23BVrkUQVCzqT9X
DIPBU4euQM9hRMBLC5LBgkaPQMC2VsACNIbBS7nAQCC6rMBoNYHBHPrfQKePo8CwDI3BrMGQQGUi
CEH/S5DB27O3QAHXC0Ex5IXB9hS/QK7HIb/DaojBD6TkQHAnvL2NZpLBmd+mQGKf0UD5i3zBvulr
QMIG70BQ9n/BT+2zQMhqkkCzyInBgi3KQCVfmz8zJXzBBZPRQMStQsDKmHTBV/eMQM6/KUCUX6rB
OA9sQLMQ3T/geJ/BOe8AQQQR9kCL3prBhC30QLQVEEFGtJHBSAkOQUzpQMCfTITBluL+QBRPLMCN
aJDBLXllQO0jaUDn6ZLBLd3HQO60W0CP3J7BG0ahQLi7yz86so7BfGNbQAjxqUDZx4bBFVFdQC/P
ykAa75DBx1RaQOCshUBQB6XBJDCmQPTbJUGG26/BFJW0QLbiEEGb5rHB3rutQJ9hL0Gb0KXB7s3K
QAd7BUGq7anBqLnDQK32I0F30Z3BKGrTQIcTkD+C1avBKB6iQM99975dzaPBNTvkQIpLoL+KLqzB
wcTSQM0UD0Hw4J/BfgCtQKY8WT/OUKbB9BvvQIQCnz2Vrq7BT7e9QJ4YxL+MxqbB+oMIQXjsAL2g
6HHBwcTCQICzv0DVqZXBPHTgQKYgEkAojY3BMGoJQVcOqj9uXH3B0B/OQBwTjsAVgIXB+/CuQNHW
VcAQDInBmc2pQIlf/UB+qorB7XXcQPDor7ydZIbBeAaSQEqq3ECiwIPBu+KhQOXdoUCOAJDBmWXm
QLhCtj8ok4PBQwPeQAXXP8CJp4bBjzuQQFLe/T8O3aLBPAjpQBDCAkFtDJfB+uHoQADlDsBAa3jB
7feKQNlQgkBkkJfBtNuoQFODPECzc5vBBhzKQDH56ECoq5HBBizyQK4HUL8tenzBEh64QH6lDEDB
K5LBwUqAQA2ju0DWzYrBoMgTQWNBvb7gzmLBb7HZQFeqsUD5zZzB/2H8QNCnQkDg15DBA55yQPxI
mUCTYaDB+RoKQbc7sz5oyrPBfHqzQADFM8AiY6TBoluVQJOkLkF//rXBupKuQOSOCUF6lLnBU6Oi
QCxyP0EDQaTBC8XVQKnJ6kB9favB8hjJQIAzK0GiFpbBloTbQBU7CUBG3q3BBrKEQEfGMr/Dm5/B
Ym75QMq9A8AZaa7BHEoMQeZvCUCH93HBI+QVQXh3qz8D44TBkgLLQE15nMAoBHvBao3YQE+hpsC/
PYvB7BGjQGhwVMBoVJHBFIeVQGMgQMC9mIPB4W2SQNwqB0F5so/BTAW6QH40CkHoY4XBEsC5QB/W
Tr4vKYbBkc/oQLq4iL5hZY7BVlioQJoAzkD/CXzBXPVvQP+W7EBYvn7B6wSzQKRCj0DS4YnB5cfP
QBWI4T+Ry3rBH3LyQKMLMsAGnI3BDy+FQHEOIkDr+KnBhe5oQBakyT8OjZ7BDokBQbZD8kCNf5rB
pVT2QH4SDkFLL5HB03bNQD5nE8CNcG3ByYsCQfqrLMDO+XDBnqBhQPKgZkDoBZPBxurDQISUWEBi
2p/BCnejQByxxz//zY7B+l5bQAE3qEBAeIbBwGtdQB/TyUA/eJDB+FhWQN/nhUDdDKXB

> <OMEGA_E>
wGkOPw4LDz9MdRA/0sYaP5SHBT8=

> <OMEGA_NBR>
     23918

$$$$
50147896
  -OEChem-04172616093D

 82 85  0     1  0  0  0  0  0999 V2000
    5.0395   10.3237  -22.0081 C   0  0  0  0  0  0  0  0  0  0  0  0
    5.2989   10.9476  -20.7716 C   0  0  0  0  0  0  0  0  0  0  0  0
    5.5266    9.0256  -22.2598 C   0  0  0  0  0  0  0  0  0  0  0  0
    6.0437   10.2743  -19.7856 C   0  0  0  0  0  0  0  0  0  0  0  0
    6.2761    8.3522  -21.2761 C   0  0  0  0  0  0  0  0  0  0  0  0
    6.7089    1.0444  -21.3747 C   0  0  0  0  0  0  0  0  0  0  0  0
    4.9624   -0.4023  -20.4645 C   0  0  0  0  0  0  0  0  0  0  0  0
    7.0349   -1.3708  -21.3108 C   0  0  0  0  0  0  0  0  0  0  0  0
    6.5437    8.9791  -20.0370 C   0  0  0  0  0  0  0  0  0  0  0  0
    5.4344    0.8849  -20.7898 C   0  0  0  0  0  0  0  0  0  0  0  0
    7.5112   -0.0822  -21.6272 C   0  0  0  0  0  0  0  0  0  0  0  0
    5.7595   -1.5292  -20.7311 C   0  0  0  0  0  0  0  0  0  0  0  0
    8.0987   -0.7974  -15.4524 C   0  0  0  0  0  0  0  0  0  0  0  0
    6.1402    6.0343  -18.7285 C   0  0  0  0  0  0  0  0  0  0  0  0
    6.9138    2.0625  -17.6570 C   0  0  0  0  0  0  0  0  0  0  0  0
    5.3282    7.9603  -17.3687 C   0  0  0  0  0  0  0  0  0  0  0  0
    6.5523   -0.3362  -17.1494 C   0  0  0  0  0  0  0  0  0  0  0  0
    4.6019    6.9342  -16.4968 C   0  0  0  0  0  0  0  0  0  0  0  0
    8.3735    0.6296  -16.0065 C   0  0  1  0  0  0  0  0  0  0  0  0
    5.1220    5.0956  -18.0166 C   0  0  2  0  0  0  0  0  0  0  0  0
    7.0026    0.9903  -16.5684 C   0  0  1  0  0  0  0  0  0  0  0  0
   10.1787    1.3568  -14.2921 C   0  0  0  0  0  0  0  0  0  0  0  0
    9.7821   -3.4488  -17.1810 C   0  0  0  0  0  0  0  0  0  0  0  0
    4.6007    2.0964  -20.4544 C   0  0  0  0  0  0  0  0  0  0  0  0
    7.2807    8.2414  -18.9381 C   0  0  0  0  0  0  0  0  0  0  0  0
    8.8313    1.6848  -14.9603 C   0  0  0  0  0  0  0  0  0  0  0  0
    8.5381   -4.2281  -17.6337 C   0  0  0  0  0  0  0  0  0  0  0  0
    7.2847   -3.3379  -17.7512 C   0  0  0  0  0  0  0  0  0  0  0  0
    6.7737   -2.7829  -16.3883 C   0  0  0  0  0  0  0  0  0  0  0  0
    4.4044    4.1162  -18.9600 C   0  0  2  0  0  0  0  0  0  0  0  0
    5.3328    2.9797  -19.4262 C   0  0  1  0  0  0  0  0  0  0  0  0
    6.3458    7.3338  -18.2437 N   0  0  0  0  0  0  0  0  0  0  0  0
    7.0549   -1.3443  -16.2177 N   0  0  0  0  0  0  0  0  0  0  0  0
    5.6696    2.1667  -18.2617 N   0  0  0  0  0  0  0  0  0  0  0  0
    4.0631    5.8898  -17.3696 N   0  3  0  0  0  0  0  0  0  0  0  0
    8.6290   -1.3412  -14.4914 O   0  0  0  0  0  0  0  0  0  0  0  0
    6.8638    5.5968  -19.6163 O   0  0  0  0  0  0  0  0  0  0  0  0
    7.8468    2.8129  -17.9264 O   0  0  0  0  0  0  0  0  0  0  0  0
    3.8527    4.8342  -20.0621 O   0  0  0  0  0  0  0  0  0  0  0  0
    8.7410    0.0753  -22.1661 F   0  0  0  0  0  0  0  0  0  0  0  0
    5.3032   -2.7621  -20.4181 F   0  0  0  0  0  0  0  0  0  0  0  0
    4.4668   10.8409  -22.7637 H   0  0  0  0  0  0  0  0  0  0  0  0
    4.9258   11.9429  -20.5804 H   0  0  0  0  0  0  0  0  0  0  0  0
    5.3251    8.5474  -23.2070 H   0  0  0  0  0  0  0  0  0  0  0  0
    6.2331   10.7499  -18.8346 H   0  0  0  0  0  0  0  0  0  0  0  0
    6.6468    7.3562  -21.4680 H   0  0  0  0  0  0  0  0  0  0  0  0
    7.0677    2.0311  -21.6281 H   0  0  0  0  0  0  0  0  0  0  0  0
    3.9897   -0.5229  -20.0111 H   0  0  0  0  0  0  0  0  0  0  0  0
    7.6474   -2.2371  -21.5125 H   0  0  0  0  0  0  0  0  0  0  0  0
    4.5886    8.4759  -17.9989 H   0  0  0  0  0  0  0  0  0  0  0  0
    5.8258    8.6914  -16.7146 H   0  0  0  0  0  0  0  0  0  0  0  0
    5.4549   -0.3791  -17.2113 H   0  0  0  0  0  0  0  0  0  0  0  0
    6.9821   -0.4860  -18.1508 H   0  0  0  0  0  0  0  0  0  0  0  0
    5.3069    6.4912  -15.7779 H   0  0  0  0  0  0  0  0  0  0  0  0
    3.7813    7.4235  -15.9517 H   0  0  0  0  0  0  0  0  0  0  0  0
    9.1109    0.5734  -16.8208 H   0  0  0  0  0  0  0  0  0  0  0  0
    5.6615    4.5153  -17.2536 H   0  0  0  0  0  0  0  0  0  0  0  0
    6.3354    1.2665  -15.7386 H   0  0  0  0  0  0  0  0  0  0  0  0
   10.4318    2.1462  -13.5691 H   0  0  0  0  0  0  0  0  0  0  0  0
   10.1035    0.3917  -13.7697 H   0  0  0  0  0  0  0  0  0  0  0  0
   10.9640    1.2978  -15.0602 H   0  0  0  0  0  0  0  0  0  0  0  0
   10.6406   -4.1333  -17.1157 H   0  0  0  0  0  0  0  0  0  0  0  0
   10.0016   -2.6539  -17.9090 H   0  0  0  0  0  0  0  0  0  0  0  0
    9.5947   -3.0006  -16.1941 H   0  0  0  0  0  0  0  0  0  0  0  0
    4.4208    2.6784  -21.3704 H   0  0  0  0  0  0  0  0  0  0  0  0
    3.6386    1.7697  -20.0328 H   0  0  0  0  0  0  0  0  0  0  0  0
    8.1027    7.6563  -19.3764 H   0  0  0  0  0  0  0  0  0  0  0  0
    7.6896    8.9669  -18.2195 H   0  0  0  0  0  0  0  0  0  0  0  0
    8.9234    2.6571  -15.4665 H   0  0  0  0  0  0  0  0  0  0  0  0
    8.0628    1.7510  -14.1761 H   0  0  0  0  0  0  0  0  0  0  0  0
    8.7434   -4.6773  -18.6166 H   0  0  0  0  0  0  0  0  0  0  0  0
    8.3365   -5.0240  -16.9017 H   0  0  0  0  0  0  0  0  0  0  0  0
    7.5253   -2.4857  -18.4037 H   0  0  0  0  0  0  0  0  0  0  0  0
    6.4792   -3.9326  -18.2067 H   0  0  0  0  0  0  0  0  0  0  0  0
    5.6862   -2.9381  -16.3307 H   0  0  0  0  0  0  0  0  0  0  0  0
    7.2667   -3.3367  -15.5757 H   0  0  0  0  0  0  0  0  0  0  0  0
    3.5830    3.6556  -18.3915 H   0  0  0  0  0  0  0  0  0  0  0  0
    6.2393    3.4049  -19.8818 H   0  0  0  0  0  0  0  0  0  0  0  0
    4.9281    1.6303  -17.8588 H   0  0  0  0  0  0  0  0  0  0  0  0
    3.4916    5.2779  -16.8228 H   0  0  0  0  0  0  0  0  0  0  0  0
    3.5058    6.3207  -18.0794 H   0  0  0  0  0  0  0  0  0  0  0  0
    3.4093    4.2289  -20.6449 H   0  0  0  0  0  0  0  0  0  0  0  0
  1  2  1  0  0  0  0
  1  3  2  0  0  0  0
  2  4  2  0  0  0  0
  3  5  1  0  0  0  0
  4  9  1  0  0  0  0
  5  9  2  0  0  0  0
  6 10  1  0  0  0  0
  6 11  2  0  0  0  0
  7 10  2  0  0  0  0
  7 12  1  0  0  0  0
  8 11  1  0  0  0  0
  8 12  2  0  0  0  0
  9 25  1  0  0  0  0
 10 24  1  0  0  0  0
 11 40  1  0  0  0  0
 12 41  1  0  0  0  0
 13 19  1  0  0  0  0
 13 33  1  0  0  0  0
 13 36  2  0  0  0  0
 14 20  1  0  0  0  0
 14 32  1  0  0  0  0
 14 37  2  0  0  0  0
 15 21  1  0  0  0  0
 15 34  1  0  0  0  0
 15 38  2  0  0  0  0
 16 18  1  0  0  0  0
 16 32  1  0  0  0  0
 17 21  1  0  0  0  0
 17 33  1  0  0  0  0
 18 35  1  0  0  0  0
 19 21  1  0  0  0  0
 19 26  1  0  0  0  0
 20 30  1  0  0  0  0
 20 35  1  0  0  0  0
 22 26  1  0  0  0  0
 23 27  1  0  0  0  0
 24 31  1  0  0  0  0
 25 32  1  0  0  0  0
 27 28  1  0  0  0  0
 28 29  1  0  0  0  0
 29 33  1  0  0  0  0
 30 31  1  0  0  0  0
 30 39  1  0  0  0  0
 31 34  1  0  0  0  0
  1 42  1  0  0  0  0
  2 43  1  0  0  0  0
  3 44  1  0  0  0  0
  4 45  1  0  0  0  0
  5 46  1  0  0  0  0
  6 47  1  0  0  0  0
  7 48  1  0  0  0  0
  8 49  1  0  0  0  0
 16 50  1  0  0  0  0
 16 51  1  0  0  0  0
 17 52  1  0  0  0  0
 17 53  1  0  0  0  0
 18 54  1  0  0  0  0
 18 55  1  0  0  0  0
 19 56  1  0  0  0  0
 20 57  1  0  0  0  0
 21 58  1  0  0  0  0
 22 59  1  0  0  0  0
 22 60  1  0  0  0  0
 22 61  1  0  0  0  0
 23 62  1  0  0  0  0
 23 63  1  0  0  0  0
 23 64  1  0  0  0  0
 24 65  1  0  0  0  0
 24 66  1  0  0  0  0
 25 67  1  0  0  0  0
 25 68  1  0  0  0  0
 26 69  1  0  0  0  0
 26 70  1  0  0  0  0
 27 71  1  0  0  0  0
 27 72  1  0  0  0  0
 28 73  1  0  0  0  0
 28 74  1  0  0  0  0
 29 75  1  0  0  0  0
 29 76  1  0  0  0  0
 30 77  1  0  0  0  0
 31 78  1  0  0  0  0
 34 79  1  0  0  0  0
 35 80  1  0  0  0  0
 35 81  1  0  0  0  0
 39 82  1  0  0  0  0
M  CHG  1  35   1
M  END
> <OMEGA_C>
QUOhQPQtJUGiELDBQJCpQFopL0EqLKbBqNmwQANpEEEmFLLBZGbBQF5jJEHgSJ7BmNXIQKeiBUFi
NarBrK/WQDmvhT9Y/6rBQMyeQPnzzb5it6PBQB7hQPR1r79yfKrBtGXRQHiqD0GwS6DBs+atQNyL
Yj+WUabBlFvwQDxoqL1qBK3Bw024QN68w7822aXBWpQBQYYiTL8yPXfBnnzEQK0YwUDq05XBMj7d
QGD/A0COQY3Bw4CqQLS6/kAI84rBZazRQOkbrL4SMonBn0KTQP/k3UCC+YPBuvkFQXQqIT9aDYDB
NeejQBEPo0AOIpDBEhXgQCqEfT8ojITBDdwiQT+srT+OrGTBS4McQaK4XMC8conBlziTQHYrBkCo
oqPBsfvoQNLcA0FGgZfBFk0NQR2o1z9yXW/BH5wIQWhMh8DmEY3BiBzpQL+gVcBeAo7BN8LYQD4b
MsBKG4PBxvCMQPO3g0AMrpfBr6aqQJuzPkDgaJvBxxDLQG6u6kAw85HBGcLhQDQRrL/IvYHBhG21
QDirCkD0F5LBigSCQJ55vEDc9IrBlhAKQYitq7+U3GfBPaTbQNEYs0A87pzBXRn7QPUGNEBeaY/B
W5J2QL6xmkBIf6DBA9sLQWRJmj0sVLHB+rOpQJ3FMMBMWKPBnu+OQIR0LUEIHLbBiqCdQFAWP0Gx
pKTBl2eqQPfBCEHkp7nBiHXHQHX/K0FKrZbB6bLUQMZl60B+vqvBjiriQAn9AUBEBq3BIld/QEPe
Bb+4FqDBvrf0QBwtD8CtGazBLtaSQC2dB0HF/Y/BOG26QPEPC0Fmt4XBVo6uQEwbwr69sInBmW3f
QIXX+L7rNJHButGpQD24z0BycnzBrAByQH6N7UANOn/BHsYRQdLHEj8JkYbB1Sq1QO98kEB4B4rB
VbvKQE8boj9w0XvBx+gmQd9bCUAMG1nBzachQX2PyD68UFzBbmwvQdccpj959nDB4z8qQVZEhMAC
7YjBpQYgQf3YKcCYRY/BAIQZQdQJQMB7jYHBaXeNQD1qK0CM9qrBcN9oQG2F4j8jQ6DBjqQBQa8A
9UDaApvBcxH2QHZ4D0F+wZHBDMYOQYoNKkDddnfBagEBQR0i4D8f0WLB2OQLQUqslcDf7pTBM2IF
QbXEoMDCNofBJs/wQLkVH8DNOpPB3FXPQEOwe8BIp5HBsvW1QGsKPMA2pYLB/ojoQL+LVcAzNnnB
g1BlQFT1aUC0IZPBrajHQCLpWUDWDZ/BrbKdQBSt0D/E3o7BGHZfQKPkqEAUlYbBq19gQO9CykCn
opDByDJaQIdTh0DOKKXBnoKdQMfbJUGAZbDB1n6tQIwkEUGaWrLBb3WlQJLzL0Fwg6bB157FQOKN
BkG+cqrBDm+9QHxcJUHVlp7BHQPZQJARjT8K5qrBr06iQD1kxr6jm6PBxVblQIHopr9qZ6rBnPzN
QGu7EEGckKDB/22wQHZJaT8+MabBOYvzQEBOg7sY7qzBNrC8QN5Iv79+wqXBUXsDQXAhMb+dX3XB
O2zDQAjxwkBC8JXBk5HgQOhzAkCcmY3BnhaoQIguAEGUL4vB2+fYQLkuz76xX4nBAQWSQBI830Dr
EITBzJwHQSIpND+TSn/BnPajQAkypECXFJDBwebjQB4geD/m2YTBG4IjQaJyyj+nK2TBVt4ZQaRT
ZMCtHInBKA6VQA2cBkClbKPBqTLmQOM0BUGKypfBro4NQemS5z9l227BNeMFQftBWcCZMZDBEbfg
QOaHZsC3J4rBYNjaQJxGL8Ap83/BR66NQKzKg0DVepfB0zOsQG7tP0BLOJvBLQXJQOvZ7EAaK5LB
XSbpQKSJq7+nSYHBMPK3QEC7C0BJ8pHBrYOBQKPzvECR6IrBgpAKQW6qkb/simTB4LHaQBNJtUAF
D53BE2j+QNoGMkCF7o/BPwp2QLb5mUDJTqDBxmINQeL9PD7COrHByBivQBJNL8CtSKPB+SWLQCcC
LkEZerbB0T6nQJRjCUFf6rnByCWZQLDRP0EJBaXB9L3RQIhL7UBc76vBMyzDQJYJLUGL+5bBtK3j
QCQ5BkAn8KzBdkiDQE9JCL9T+5/BFJ35QPDmCcAaB6zBcNKPQAvyB0EIPpDBTHa3QHk/DEF5D4bB
Fx22QPb+A79DX4rBzdroQLzEEL/GHJHBwCepQCAC0kBHonzBC+puQOxa7kD5Zn/BBiQUQQzCIT+u
zIXBMvq1QAt5kkBW9InBn7TMQGwOmz81C33B/rkmQaVOGUBfxljBZmMjQWTIHj9SnlvByhAwQZ6G
yD/9f3DBMVYoQez2WcDW843BmGsZQVd3NcBwjILBwR0aQd+6ksBOxoXBOaqOQKXJK0B1uarBrDht
QO+w4D+N/p/BDGQAQU0r+ECBUpvB7fTyQG35EEHYE5LBQeUNQSbGMUCEMXfB3TcBQd9p6j/YT2LB
cAoGQesYGMA1hpPBmLwGQakLhMATwJbBA37GQLRBV8DbtI/BvqDeQN8dlcC0zIfBS7C4QDTzLsB3
snvBPl/tQJh+TMCI43LBD/pnQEETaUDt05LBY8zIQCtjXEAE657BN0mgQI3q1j+cYI7B09tfQOkX
qUD1bobBMT1eQP/tyUAPmJDBrXJaQGQNhkB+5aTB

> <OMEGA_E>
AtoSP5C5ED8=

> <OMEGA_NBR>
     26815

$$$$
50147894
  -OEChem-04172616093D

 90 93  0     1  0  0  0  0  0999 V2000
    6.2978   10.8969  -20.0904 C   0  0  0  0  0  0  0  0  0  0  0  0
    8.9592   10.4504  -17.4849 C   0  0  0  0  0  0  0  0  0  0  0  0
    9.2279    9.0728  -17.5899 C   0  0  0  0  0  0  0  0  0  0  0  0
    7.9802   11.0461  -18.3062 C   0  0  0  0  0  0  0  0  0  0  0  0
    8.4972    8.2843  -18.4937 C   0  0  0  0  0  0  0  0  0  0  0  0
    6.8861    0.0649  -16.6383 C   0  0  0  0  0  0  0  0  0  0  0  0
    8.5346    1.6339  -15.7634 C   0  0  0  0  0  0  0  0  0  0  0  0
    8.1791   -0.5110  -14.6534 C   0  0  0  0  0  0  0  0  0  0  0  0
    6.7810    1.1393  -21.4602 C   0  0  0  0  0  0  0  0  0  0  0  0
    5.1193   -0.4267  -20.5883 C   0  0  0  0  0  0  0  0  0  0  0  0
    7.2101   -1.2595  -21.5278 C   0  0  0  0  0  0  0  0  0  0  0  0
    7.2427   10.2608  -19.2167 C   0  0  0  0  0  0  0  0  0  0  0  0
    7.5400    1.3119  -16.7166 C   0  0  0  0  0  0  0  0  0  0  0  0
    7.2071   -0.8401  -15.6130 C   0  0  0  0  0  0  0  0  0  0  0  0
    7.4773    8.8616  -19.2836 C   0  0  0  0  0  0  0  0  0  0  0  0
    8.8371    0.7310  -14.7202 C   0  0  0  0  0  0  0  0  0  0  0  0
    5.5276    0.8949  -20.8554 C   0  0  0  0  0  0  0  0  0  0  0  0
    7.6241    0.0615  -21.7876 C   0  0  0  0  0  0  0  0  0  0  0  0
    5.9564   -1.5017  -20.9337 C   0  0  0  0  0  0  0  0  0  0  0  0
    7.1408    2.2730  -17.7620 C   0  0  0  0  0  0  0  0  0  0  0  0
    6.4658   -2.0938  -15.5081 C   0  0  0  0  0  0  0  0  0  0  0  0
    5.1660    7.9772  -17.8060 C   0  0  0  0  0  0  0  0  0  0  0  0
    6.1854    5.8457  -18.6520 C   0  0  0  0  0  0  0  0  0  0  0  0
    4.5977    7.0609  -16.7067 C   0  0  0  0  0  0  0  0  0  0  0  0
    5.0899    4.9924  -17.9426 C   0  0  2  0  0  0  0  0  0  0  0  0
    9.8974    1.0714  -13.6979 C   0  0  0  0  0  0  0  0  0  0  0  0
    3.3759   -4.7937  -17.4786 C   0  0  0  0  0  0  0  0  0  0  0  0
    9.9516   -4.0489  -17.8513 C   0  0  0  0  0  0  0  0  0  0  0  0
    4.6367    2.0454  -20.4522 C   0  0  0  0  0  0  0  0  0  0  0  0
    6.5051    7.9358  -19.9956 C   0  0  0  0  0  0  0  0  0  0  0  0
    4.4530   -3.7193  -17.4474 C   0  0  0  0  0  0  0  0  0  0  0  0
    8.8978   -3.7193  -16.7992 C   0  0  0  0  0  0  0  0  0  0  0  0
    5.6126   -4.1787  -16.5633 C   0  0  0  0  0  0  0  0  0  0  0  0
    7.6729   -3.0898  -17.4720 C   0  0  0  0  0  0  0  0  0  0  0  0
    4.3791    4.0074  -18.8841 C   0  0  2  0  0  0  0  0  0  0  0  0
    5.3598    2.9544  -19.4430 C   0  0  1  0  0  0  0  0  0  0  0  0
    5.5485   11.3898  -20.8356 N   0  0  0  0  0  0  0  0  0  0  0  0
    5.6734    7.1873  -18.9956 N   0  0  2  0  0  0  0  0  0  0  0  0
    5.8804    2.1334  -18.3392 N   0  0  0  0  0  0  0  0  0  0  0  0
    6.5739   -3.0795  -16.4976 N   0  0  0  0  0  0  0  0  0  0  0  0
    4.0480    5.8424  -17.3137 N   0  3  0  0  0  0  0  0  0  0  0  0
    7.8924    3.1861  -18.0873 O   0  0  0  0  0  0  0  0  0  0  0  0
    5.6690   -2.2110  -14.5835 O   0  0  0  0  0  0  0  0  0  0  0  0
    3.7493    4.7276  -19.9435 O   0  0  0  0  0  0  0  0  0  0  0  0
    8.8304    0.2939  -22.3521 F   0  0  0  0  0  0  0  0  0  0  0  0
    5.5554   -2.7686  -20.6993 F   0  0  0  0  0  0  0  0  0  0  0  0
    9.5044   11.0528  -16.7734 H   0  0  0  0  0  0  0  0  0  0  0  0
    9.9946    8.6228  -16.9765 H   0  0  0  0  0  0  0  0  0  0  0  0
    7.7942   12.1078  -18.2379 H   0  0  0  0  0  0  0  0  0  0  0  0
    8.7159    7.2306  -18.5856 H   0  0  0  0  0  0  0  0  0  0  0  0
    6.1353   -0.1955  -17.3697 H   0  0  0  0  0  0  0  0  0  0  0  0
    9.0639    2.5727  -15.8335 H   0  0  0  0  0  0  0  0  0  0  0  0
    8.4207   -1.2098  -13.8662 H   0  0  0  0  0  0  0  0  0  0  0  0
    7.0914    2.1520  -21.6708 H   0  0  0  0  0  0  0  0  0  0  0  0
    4.1648   -0.6135  -20.1189 H   0  0  0  0  0  0  0  0  0  0  0  0
    7.8545   -2.0873  -21.7845 H   0  0  0  0  0  0  0  0  0  0  0  0
    4.3728    8.6598  -18.1449 H   0  0  0  0  0  0  0  0  0  0  0  0
    5.9982    8.5616  -17.3864 H   0  0  0  0  0  0  0  0  0  0  0  0
    7.0495    5.9521  -17.9797 H   0  0  0  0  0  0  0  0  0  0  0  0
    6.4988    5.3338  -19.5738 H   0  0  0  0  0  0  0  0  0  0  0  0
    5.4006    6.7899  -16.0053 H   0  0  0  0  0  0  0  0  0  0  0  0
    3.8008    7.5911  -16.1647 H   0  0  0  0  0  0  0  0  0  0  0  0
    5.5847    4.4066  -17.1539 H   0  0  0  0  0  0  0  0  0  0  0  0
    9.4326    1.5867  -12.8444 H   0  0  0  0  0  0  0  0  0  0  0  0
   10.3805    0.1468  -13.3490 H   0  0  0  0  0  0  0  0  0  0  0  0
   10.6512    1.7284  -14.1564 H   0  0  0  0  0  0  0  0  0  0  0  0
    2.5431   -4.4604  -18.1153 H   0  0  0  0  0  0  0  0  0  0  0  0
    3.7983   -5.7245  -17.8850 H   0  0  0  0  0  0  0  0  0  0  0  0
    3.0077   -4.9732  -16.4577 H   0  0  0  0  0  0  0  0  0  0  0  0
   10.8284   -4.5002  -17.3641 H   0  0  0  0  0  0  0  0  0  0  0  0
    9.5322   -4.7576  -18.5806 H   0  0  0  0  0  0  0  0  0  0  0  0
   10.2540   -3.1264  -18.3686 H   0  0  0  0  0  0  0  0  0  0  0  0
    4.3748    2.6316  -21.3454 H   0  0  0  0  0  0  0  0  0  0  0  0
    3.7195    1.6497  -19.9914 H   0  0  0  0  0  0  0  0  0  0  0  0
    5.8451    8.5311  -20.6437 H   0  0  0  0  0  0  0  0  0  0  0  0
    7.0700    7.2177  -20.6082 H   0  0  0  0  0  0  0  0  0  0  0  0
    4.8205   -3.5400  -18.4686 H   0  0  0  0  0  0  0  0  0  0  0  0
    4.0298   -2.7887  -17.0414 H   0  0  0  0  0  0  0  0  0  0  0  0
    8.5966   -4.6423  -16.2821 H   0  0  0  0  0  0  0  0  0  0  0  0
    9.3185   -3.0112  -16.0701 H   0  0  0  0  0  0  0  0  0  0  0  0
    5.2447   -4.4173  -15.5544 H   0  0  0  0  0  0  0  0  0  0  0  0
    6.0887   -5.0690  -17.0000 H   0  0  0  0  0  0  0  0  0  0  0  0
    7.9056   -2.0606  -17.7828 H   0  0  0  0  0  0  0  0  0  0  0  0
    7.3851   -3.6826  -18.3528 H   0  0  0  0  0  0  0  0  0  0  0  0
    3.6128    3.4762  -18.3005 H   0  0  0  0  0  0  0  0  0  0  0  0
    6.1878    3.4697  -19.9518 H   0  0  0  0  0  0  0  0  0  0  0  0
    5.2830    1.4193  -17.9744 H   0  0  0  0  0  0  0  0  0  0  0  0
    3.5883    5.3106  -16.6024 H   0  0  0  0  0  0  0  0  0  0  0  0
    3.3847    6.1056  -18.0142 H   0  0  0  0  0  0  0  0  0  0  0  0
    3.3104    4.1175  -20.5247 H   0  0  0  0  0  0  0  0  0  0  0  0
  1 12  1  0  0  0  0
  1 37  3  0  0  0  0
  2  3  1  0  0  0  0
  2  4  2  0  0  0  0
  3  5  2  0  0  0  0
  4 12  1  0  0  0  0
  5 15  1  0  0  0  0
  6 13  1  0  0  0  0
  6 14  2  0  0  0  0
  7 13  2  0  0  0  0
  7 16  1  0  0  0  0
  8 14  1  0  0  0  0
  8 16  2  0  0  0  0
  9 17  1  0  0  0  0
  9 18  2  0  0  0  0
 10 17  2  0  0  0  0
 10 19  1  0  0  0  0
 11 18  1  0  0  0  0
 11 19  2  0  0  0  0
 12 15  2  0  0  0  0
 13 20  1  0  0  0  0
 14 21  1  0  0  0  0
 15 30  1  0  0  0  0
 16 26  1  0  0  0  0
 17 29  1  0  0  0  0
 18 45  1  0  0  0  0
 19 46  1  0  0  0  0
 20 39  1  0  0  0  0
 20 42  2  0  0  0  0
 21 40  1  0  0  0  0
 21 43  2  0  0  0  0
 22 24  1  0  0  0  0
 22 38  1  0  0  0  0
 23 25  1  0  0  0  0
 23 38  1  0  0  0  0
 24 41  1  0  0  0  0
 25 35  1  0  0  0  0
 25 41  1  0  0  0  0
 27 31  1  0  0  0  0
 28 32  1  0  0  0  0
 29 36  1  0  0  0  0
 30 38  1  0  0  0  0
 31 33  1  0  0  0  0
 32 34  1  0  0  0  0
 33 40  1  0  0  0  0
 34 40  1  0  0  0  0
 35 36  1  0  0  0  0
 35 44  1  0  0  0  0
 36 39  1  0  0  0  0
  2 47  1  0  0  0  0
  3 48  1  0  0  0  0
  4 49  1  0  0  0  0
  5 50  1  0  0  0  0
  6 51  1  0  0  0  0
  7 52  1  0  0  0  0
  8 53  1  0  0  0  0
  9 54  1  0  0  0  0
 10 55  1  0  0  0  0
 11 56  1  0  0  0  0
 22 57  1  0  0  0  0
 22 58  1  0  0  0  0
 23 59  1  0  0  0  0
 23 60  1  0  0  0  0
 24 61  1  0  0  0  0
 24 62  1  0  0  0  0
 25 63  1  0  0  0  0
 26 64  1  0  0  0  0
 26 65  1  0  0  0  0
 26 66  1  0  0  0  0
 27 67  1  0  0  0  0
 27 68  1  0  0  0  0
 27 69  1  0  0  0  0
 28 70  1  0  0  0  0
 28 71  1  0  0  0  0
 28 72  1  0  0  0  0
 29 73  1  0  0  0  0
 29 74  1  0  0  0  0
 30 75  1  0  0  0  0
 30 76  1  0  0  0  0
 31 77  1  0  0  0  0
 31 78  1  0  0  0  0
 32 79  1  0  0  0  0
 32 80  1  0  0  0  0
 33 81  1  0  0  0  0
 33 82  1  0  0  0  0
 34 83  1  0  0  0  0
 34 84  1  0  0  0  0
 35 85  1  0  0  0  0
 36 86  1  0  0  0  0
 39 87  1  0  0  0  0
 41 88  1  0  0  0  0
 41 89  1  0  0  0  0
 44 90  1  0  0  0  0
M  CHG  1  41   1
M  END
> <OMEGA_C>
1IfJQI9ZLkEMuaDB61gPQb40J0Es4YvBpKUTQQMqEUELuIzBpF3/QNu8MEERc5LBX/QHQVuMBEEU
85PBE1vcQBzjhD0mG4XBl40IQSEl0T+8NnzBit0CQbnRAr9sdGrBv/3YQAjTkT9xrqvBktGjQCR1
2r7atKTBHrnmQBI3ob8JOazBR8TnQCQsJEHNu5nBb0fxQNztpz+ou4XB0aDmQLYQV7+yznnBukXv
QCLJDUHfRJrB0WQNQfIgOz/JhWvBzOGwQBwZZT/w16bBsvjzQPDxez0QTa7BwZq+QFc3wL88eKfB
WIHkQAl5EUClGI7BhefOQIEBBsACIXjBQFClQA5F/0Coco7B7e7FQCAQu0BeN5XBwyCTQCrz4UBe
p4XBhOCiQMrBn0Bdio/B8lseQYAkiT+BKlvBvw5YQNplmcAj1IvBkzkfQWqQgcCKz47Bnl+UQGbo
AkARnqPBjynQQMbx/UAV95/BVn+OQMMIbsBglIvBcl0OQYkJbsC/ZIbBvpqzQEK4hcCLgYTBVIj1
QGe/RcCtxovBhCGMQLw8gEC9EpfB5IOrQC4UPUA9i5vB7oyxQIE8NkE1r6bBg4y1QFr+5UDq9pfB
Kiy8QDiKCECYtpLBAV3SQMgWRcAb+4PBWomBQLz0ukBbgorB7I78QDPpS0CxspDBG2i1QPeADcAK
VmnB9fRvQHhIl0BjjJ/BJkkNQfFzlj4A0bLBesWxQJYwMcAcmKXBLxIYQRXYMEH5L4bB++kfQS73
CUHxz4fB7Gn5QHG5QUEi55HBKXQLQWth50BLr5TBxFTEQBUrSL4S9YrBzgURQTenJED+VX3BO7sG
QTHbmr8G3F3BH+3iQE26CUDIXa3B+kWFQNkPHb+D86DBc1j7QPeVBcCbRq7BIe6LQHyOCkGtKJHB
HvG/QD38CEFrF4vBzJXhQKV3vkCD1o/BdvbPQBauqkAml5zB69GsQD9H2UDoCoDBB0BzQPPp8kBD
UYHBz7WyQDEDjUAWO4nBGuwWQdsZyz+qgk3BiBYmQR1VFj5YlVXBR2sqQZI73T/JgGLBy8IiQJS7
jsAr7JDBCxdzQBkvt8B7FI/BX31AQIckn8BoqYPBD0EtQf4BkMCW6YrB8oMYQRY+mMArpZTBlRAk
QVsXSMDu8pLBXf6LQLxsKEBSw6rBDA1uQFUp0z997p/Bdgu7QIV/CEFlJqXBLz3iQAv35kCV3aTB
SUGaQCGPYsDLv5PBc/SAQP15MsC4VIjBzosJQQaOlMDOQYLBchgVQTq3QMCRj4DBstSnQLFajcD5
3njBzNbCQIY1osD0/4fB/fr8QC/hA8A1Q47B4VLsQOava8CC0pLBfjhnQGZ6XkBkZ5LBpQLGQI4P
XkBFnZ/B9Q2pQD+rtT+Iy4/BNadlQEXwqUC10YTBPp9YQB5hw0AMHZDBMd5TQMjCg0CBMqTB

> <OMEGA_E>
zhglPw==

> <OMEGA_NBR>
     28602

$$$$
50147910
  -OEChem-04172616093D

 89 93  0     1  0  0  0  0  0999 V2000
    8.0479   -5.0107  -17.3421 C   0  0  0  0  0  0  0  0  0  0  0  0
    5.1733   10.3936  -21.8805 C   0  0  0  0  0  0  0  0  0  0  0  0
    9.1947   -4.2038  -17.4816 C   0  0  0  0  0  0  0  0  0  0  0  0
    6.7638   -4.4290  -17.3767 C   0  0  0  0  0  0  0  0  0  0  0  0
    5.6259    9.0896  -22.1647 C   0  0  0  0  0  0  0  0  0  0  0  0
    5.4227   10.9679  -20.6181 C   0  0  0  0  0  0  0  0  0  0  0  0
    9.0592   -2.8150  -17.6557 C   0  0  0  0  0  0  0  0  0  0  0  0
    6.6260   -3.0376  -17.5518 C   0  0  0  0  0  0  0  0  0  0  0  0
    6.3349    8.3621  -21.1894 C   0  0  0  0  0  0  0  0  0  0  0  0
    6.1273   10.2403  -19.6404 C   0  0  0  0  0  0  0  0  0  0  0  0
    6.6149    1.1564  -21.5333 C   0  0  0  0  0  0  0  0  0  0  0  0
    5.0733   -0.4743  -20.5672 C   0  0  0  0  0  0  0  0  0  0  0  0
    7.1824   -1.2137  -21.5521 C   0  0  0  0  0  0  0  0  0  0  0  0
    7.7767   -2.2265  -17.6912 C   0  0  0  0  0  0  0  0  0  0  0  0
    6.5987    8.9411  -19.9271 C   0  0  0  0  0  0  0  0  0  0  0  0
    5.3961    0.8631  -20.8809 C   0  0  0  0  0  0  0  0  0  0  0  0
    7.5081    0.1212  -21.8611 C   0  0  0  0  0  0  0  0  0  0  0  0
    5.9654   -1.5113  -20.9067 C   0  0  0  0  0  0  0  0  0  0  0  0
    7.9661   -0.4483  -15.2532 C   0  0  0  0  0  0  0  0  0  0  0  0
    6.1164    5.9568  -18.6977 C   0  0  0  0  0  0  0  0  0  0  0  0
    6.8983    2.1174  -17.8153 C   0  0  0  0  0  0  0  0  0  0  0  0
    5.3526    7.8697  -17.2859 C   0  0  0  0  0  0  0  0  0  0  0  0
    8.3763    1.7571  -15.8208 C   0  0  0  0  0  0  0  0  0  0  0  0
    4.6193    6.8337  -16.4330 C   0  0  0  0  0  0  0  0  0  0  0  0
    7.0765   -0.1141  -16.4774 C   0  0  1  0  0  0  0  0  0  0  0  0
    5.0723    5.0194  -18.0122 C   0  0  2  0  0  0  0  0  0  0  0  0
    7.0684    1.4276  -16.4687 C   0  0  2  0  0  0  0  0  0  0  0  0
   13.2593    1.0635  -13.8167 C   0  0  0  0  0  0  0  0  0  0  0  0
    7.6543   -0.7170  -17.7851 C   0  0  0  0  0  0  0  0  0  0  0  0
    4.4708    1.9907  -20.4624 C   0  0  0  0  0  0  0  0  0  0  0  0
    7.3092    8.1490  -18.8482 C   0  0  0  0  0  0  0  0  0  0  0  0
   11.8566    1.0977  -13.2033 C   0  0  0  0  0  0  0  0  0  0  0  0
   10.8265    0.9075  -14.3075 C   0  0  0  0  0  0  0  0  0  0  0  0
    9.4273    0.8958  -13.6965 C   0  0  0  0  0  0  0  0  0  0  0  0
    4.3196    4.0722  -18.9818 C   0  0  2  0  0  0  0  0  0  0  0  0
    5.2103    2.9176  -19.4839 C   0  0  1  0  0  0  0  0  0  0  0  0
    6.3496    7.2438  -18.1832 N   0  0  0  0  0  0  0  0  0  0  0  0
    8.4547    0.7676  -14.7631 N   0  0  0  0  0  0  0  0  0  0  0  0
    5.6238    2.1193  -18.3351 N   0  0  0  0  0  0  0  0  0  0  0  0
    4.0430    5.8256  -17.3290 N   0  3  0  0  0  0  0  0  0  0  0  0
    8.1647   -1.5575  -14.7693 O   0  0  0  0  0  0  0  0  0  0  0  0
    6.8413    5.5188  -19.5839 O   0  0  0  0  0  0  0  0  0  0  0  0
    7.7980    2.7927  -18.3092 O   0  0  0  0  0  0  0  0  0  0  0  0
    3.8076    4.8282  -20.0750 O   0  0  0  0  0  0  0  0  0  0  0  0
    8.6807    0.4110  -22.4684 F   0  0  0  0  0  0  0  0  0  0  0  0
    5.6700   -2.7895  -20.5826 F   0  0  0  0  0  0  0  0  0  0  0  0
    8.1527   -6.0773  -17.2085 H   0  0  0  0  0  0  0  0  0  0  0  0
    4.6349   10.9534  -22.6310 H   0  0  0  0  0  0  0  0  0  0  0  0
   10.1771   -4.6517  -17.4547 H   0  0  0  0  0  0  0  0  0  0  0  0
    5.8864   -5.0495  -17.2691 H   0  0  0  0  0  0  0  0  0  0  0  0
    5.4290    8.6482  -23.1305 H   0  0  0  0  0  0  0  0  0  0  0  0
    5.0732   11.9663  -20.4005 H   0  0  0  0  0  0  0  0  0  0  0  0
    9.9385   -2.1971  -17.7624 H   0  0  0  0  0  0  0  0  0  0  0  0
    5.6431   -2.5910  -17.5796 H   0  0  0  0  0  0  0  0  0  0  0  0
    6.6773    7.3609  -21.4060 H   0  0  0  0  0  0  0  0  0  0  0  0
    6.3076   10.6770  -18.6692 H   0  0  0  0  0  0  0  0  0  0  0  0
    6.8610    2.1784  -21.7807 H   0  0  0  0  0  0  0  0  0  0  0  0
    4.1436   -0.7031  -20.0675 H   0  0  0  0  0  0  0  0  0  0  0  0
    7.8655   -2.0095  -21.8098 H   0  0  0  0  0  0  0  0  0  0  0  0
    4.6161    8.4121  -17.8969 H   0  0  0  0  0  0  0  0  0  0  0  0
    5.8686    8.5769  -16.6200 H   0  0  0  0  0  0  0  0  0  0  0  0
    9.2104    1.6495  -16.5298 H   0  0  0  0  0  0  0  0  0  0  0  0
    8.3722    2.7782  -15.4117 H   0  0  0  0  0  0  0  0  0  0  0  0
    5.3264    6.3547  -15.7398 H   0  0  0  0  0  0  0  0  0  0  0  0
    3.8184    7.3233  -15.8596 H   0  0  0  0  0  0  0  0  0  0  0  0
    6.0576   -0.4942  -16.3116 H   0  0  0  0  0  0  0  0  0  0  0  0
    5.6012    4.4034  -17.2700 H   0  0  0  0  0  0  0  0  0  0  0  0
    6.2555    1.7599  -15.8062 H   0  0  0  0  0  0  0  0  0  0  0  0
   14.0100    1.2004  -13.0244 H   0  0  0  0  0  0  0  0  0  0  0  0
   13.4199    0.0936  -14.3102 H   0  0  0  0  0  0  0  0  0  0  0  0
   13.3556    1.8718  -14.5566 H   0  0  0  0  0  0  0  0  0  0  0  0
    8.6505   -0.2877  -17.9676 H   0  0  0  0  0  0  0  0  0  0  0  0
    6.9868   -0.4633  -18.6218 H   0  0  0  0  0  0  0  0  0  0  0  0
    4.1641    2.5632  -21.3502 H   0  0  0  0  0  0  0  0  0  0  0  0
    3.5805    1.5722  -19.9704 H   0  0  0  0  0  0  0  0  0  0  0  0
    8.1174    7.5564  -19.3017 H   0  0  0  0  0  0  0  0  0  0  0  0
    7.7340    8.8410  -18.1061 H   0  0  0  0  0  0  0  0  0  0  0  0
   11.7578    0.2893  -12.4639 H   0  0  0  0  0  0  0  0  0  0  0  0
   11.6935    2.0675  -12.7103 H   0  0  0  0  0  0  0  0  0  0  0  0
   10.9052    1.7336  -15.0295 H   0  0  0  0  0  0  0  0  0  0  0  0
   11.0110   -0.0474  -14.8213 H   0  0  0  0  0  0  0  0  0  0  0  0
    9.3325    0.0455  -13.0052 H   0  0  0  0  0  0  0  0  0  0  0  0
    9.2547    1.8343  -13.1493 H   0  0  0  0  0  0  0  0  0  0  0  0
    3.4806    3.6280  -18.4263 H   0  0  0  0  0  0  0  0  0  0  0  0
    6.0924    3.3399  -19.9875 H   0  0  0  0  0  0  0  0  0  0  0  0
    4.9384    1.5371  -17.8978 H   0  0  0  0  0  0  0  0  0  0  0  0
    3.4617    5.2143  -16.7919 H   0  0  0  0  0  0  0  0  0  0  0  0
    3.4892    6.2902  -18.0200 H   0  0  0  0  0  0  0  0  0  0  0  0
    3.3457    4.2507  -20.6713 H   0  0  0  0  0  0  0  0  0  0  0  0
  1  3  1  0  0  0  0
  1  4  2  0  0  0  0
  2  5  1  0  0  0  0
  2  6  2  0  0  0  0
  3  7  2  0  0  0  0
  4  8  1  0  0  0  0
  5  9  2  0  0  0  0
  6 10  1  0  0  0  0
  7 14  1  0  0  0  0
  8 14  2  0  0  0  0
  9 15  1  0  0  0  0
 10 15  2  0  0  0  0
 11 16  1  0  0  0  0
 11 17  2  0  0  0  0
 12 16  2  0  0  0  0
 12 18  1  0  0  0  0
 13 17  1  0  0  0  0
 13 18  2  0  0  0  0
 14 29  1  0  0  0  0
 15 31  1  0  0  0  0
 16 30  1  0  0  0  0
 17 45  1  0  0  0  0
 18 46  1  0  0  0  0
 19 25  1  0  0  0  0
 19 38  1  0  0  0  0
 19 41  2  0  0  0  0
 20 26  1  0  0  0  0
 20 37  1  0  0  0  0
 20 42  2  0  0  0  0
 21 27  1  0  0  0  0
 21 39  1  0  0  0  0
 21 43  2  0  0  0  0
 22 24  1  0  0  0  0
 22 37  1  0  0  0  0
 23 27  1  0  0  0  0
 23 38  1  0  0  0  0
 24 40  1  0  0  0  0
 25 27  1  0  0  0  0
 25 29  1  0  0  0  0
 26 35  1  0  0  0  0
 26 40  1  0  0  0  0
 28 32  1  0  0  0  0
 30 36  1  0  0  0  0
 31 37  1  0  0  0  0
 32 33  1  0  0  0  0
 33 34  1  0  0  0  0
 34 38  1  0  0  0  0
 35 36  1  0  0  0  0
 35 44  1  0  0  0  0
 36 39  1  0  0  0  0
  1 47  1  0  0  0  0
  2 48  1  0  0  0  0
  3 49  1  0  0  0  0
  4 50  1  0  0  0  0
  5 51  1  0  0  0  0
  6 52  1  0  0  0  0
  7 53  1  0  0  0  0
  8 54  1  0  0  0  0
  9 55  1  0  0  0  0
 10 56  1  0  0  0  0
 11 57  1  0  0  0  0
 12 58  1  0  0  0  0
 13 59  1  0  0  0  0
 22 60  1  0  0  0  0
 22 61  1  0  0  0  0
 23 62  1  0  0  0  0
 23 63  1  0  0  0  0
 24 64  1  0  0  0  0
 24 65  1  0  0  0  0
 25 66  1  0  0  0  0
 26 67  1  0  0  0  0
 27 68  1  0  0  0  0
 28 69  1  0  0  0  0
 28 70  1  0  0  0  0
 28 71  1  0  0  0  0
 29 72  1  0  0  0  0
 29 73  1  0  0  0  0
 30 74  1  0  0  0  0
 30 75  1  0  0  0  0
 31 76  1  0  0  0  0
 31 77  1  0  0  0  0
 32 78  1  0  0  0  0
 32 79  1  0  0  0  0
 33 80  1  0  0  0  0
 33 81  1  0  0  0  0
 34 82  1  0  0  0  0
 34 83  1  0  0  0  0
 35 84  1  0  0  0  0
 36 85  1  0  0  0  0
 39 86  1  0  0  0  0
 40 87  1  0  0  0  0
 40 88  1  0  0  0  0
 44 89  1  0  0  0  0
M  CHG  1  40   1
M  END
> <OMEGA_C>
SMQAQcRXoMC2vIrBuYulQGJMJkFaC6/Bex0TQWKFhsA42ovB33DYQAe6jcCKA4vBFge0QCJvEUFI
UbHBAIetQGR8L0HG8aTBTPIQQXwoNMDIPo3BgwjUQKxoQsAiaozBN7fKQPXKBUHUg6nBPBPEQFrY
I0GGH53Baa3TQGoDlD80RKzByliiQGLb8r6uiaTBatblQKJZm7+waqzBntr4QLN+DsCMh43ByCjT
QMUOD0Gwap/BfqysQCr1XD8mDKfBj0LwQDlK+D2S467BuuS+QHZxwb/oQKfBWur+QDaJ5b4vDXTB
TrnDQCievkDmlJXBOb/cQM6DB0C0hY7BJkirQHvU+0CcSYrBKwUGQT3q4D8lIn3BRdGTQE6t2kDO
doPBiHLiQOWd6b2+0YPBclCiQDufoEDmGJDBrzDiQLi8tj/Mv4PB9SVUQZAgiD9UEV3B6+/0QA2M
N7/YR47BHxGPQIzQ/j8As6PBJuXpQHZiAkEeyZbBg7Q9QQSDjD+wQFPBiTktQVNTaD9k62TBKtYW
QRRWZT/7JFvBkTqKQD1PgkDO2pfB67qmQKi5OkAa35vBTjDLQOrM50Amd5HBWUYHQRqARD+RNWzB
+fWzQPCiB0AyrpLBDGCBQP9qukDgoYrBxaICQZFcx7/uTmzBMuzaQMWZsEDkq5zBSIn5QDC7MkBG
eZLBL7BzQPiAmkCmmaDBKOQKQVBt0j40v7PB63C1QNqHMsAyqaTBhHECQQt5wsD9qonB1VCUQBZB
L0FFDLXBVdUiQW3alMA7o4vBeF28QEOVocAPJ4rB9rmtQBZfCkE/C7nB5VeiQBZ2P0E+NKPBFgQf
QXKdDMB9GY7BiZS0QEzSJcAJo4zBCqzVQKuM60BqP6vBx9fJQArVKkGGWpXB7ozbQHZrC0DvPq7B
wJiEQMz9M782iqDBPLL7QCGcAMB1eq7BvbaTQBiYBkHwLI/Bicu7QBc7CUGz9YTB0l0TQa8j0z8F
PYTBgPQFQYHOMUBllnbBtnGqQGNZy0AO1nvBamB0QHBY6kDxwH3BNNjBQIYD/b4ofoLB+DyzQELo
jEANKYrBPy3IQKdD4T9l5nzBzyhgQfimmT8kZFDB9rdWQTO/vz299mTBi7BVQZyW7z/H52jBWGgK
QcBLk76rvY/BpZPfQDMz7b5m+ZTBi0CFQAsLJEBIzarBpCZlQG48yT9ow5/BxOABQbbN8UDMaZrB
CX33QL10DUFC2ZDBEyA8QacflD46bEfBqBg7QUlRBEBFXUvB1nsuQYLn3T/peHDBBi0wQeo+Qr0y
JG3BCVIVQYRyOj00FVDBJBMUQTrL6j+MY1LBfsFeQN4xaED2aJPBA/XCQE3AVUBw5p/BJQeeQCW/
xD+hLo/B0YxdQNvbpkDBVYbBv09fQJJJyUAEKZDB+x9WQKcFiEDXXqXB

> <OMEGA_E>
jGQmPw==

> <OMEGA_NBR>
     30379

$$$$
50147916
  -OEChem-04172616093D

 77 81  0     1  0  0  0  0  0999 V2000
    6.9979   -4.3308  -18.5535 C   0  0  0  0  0  0  0  0  0  0  0  0
    5.2703   10.3939  -21.8643 C   0  0  0  0  0  0  0  0  0  0  0  0
    5.9061   -4.0768  -17.6992 C   0  0  0  0  0  0  0  0  0  0  0  0
    8.2934   -3.9068  -18.1947 C   0  0  0  0  0  0  0  0  0  0  0  0
    5.4942   10.9692  -20.5976 C   0  0  0  0  0  0  0  0  0  0  0  0
    5.7233    9.0878  -22.1366 C   0  0  0  0  0  0  0  0  0  0  0  0
    6.1028   -3.3599  -16.5045 C   0  0  0  0  0  0  0  0  0  0  0  0
    8.4939   -3.1969  -16.9952 C   0  0  0  0  0  0  0  0  0  0  0  0
    6.1712   10.2398  -19.6027 C   0  0  0  0  0  0  0  0  0  0  0  0
    6.4048    8.3581  -21.1437 C   0  0  0  0  0  0  0  0  0  0  0  0
    6.6647    1.0105  -21.3984 C   0  0  0  0  0  0  0  0  0  0  0  0
    4.8608   -0.4408  -20.6171 C   0  0  0  0  0  0  0  0  0  0  0  0
    6.9544   -1.4101  -21.4073 C   0  0  0  0  0  0  0  0  0  0  0  0
    7.3927   -2.8983  -16.1607 C   0  0  0  0  0  0  0  0  0  0  0  0
    6.6394    8.9372  -19.8748 C   0  0  0  0  0  0  0  0  0  0  0  0
    5.3655    0.8494  -20.8656 C   0  0  0  0  0  0  0  0  0  0  0  0
    7.4630   -0.1188  -21.6540 C   0  0  0  0  0  0  0  0  0  0  0  0
    5.6501   -1.5685  -20.8964 C   0  0  0  0  0  0  0  0  0  0  0  0
    8.6630    0.3614  -14.9586 C   0  0  0  0  0  0  0  0  0  0  0  0
    6.1042    5.9684  -18.6791 C   0  0  0  0  0  0  0  0  0  0  0  0
    7.0016    2.2575  -17.7772 C   0  0  0  0  0  0  0  0  0  0  0  0
    8.5708    1.6246  -15.8184 C   0  0  0  0  0  0  0  0  0  0  0  0
    5.3007    7.8679  -17.2804 C   0  0  0  0  0  0  0  0  0  0  0  0
    7.1007   -0.0148  -16.6818 C   0  0  0  0  0  0  0  0  0  0  0  0
    4.5283    6.8325  -16.4603 C   0  0  0  0  0  0  0  0  0  0  0  0
    5.0570    5.0244  -18.0165 C   0  0  2  0  0  0  0  0  0  0  0  0
    7.2049    1.4844  -16.4750 C   0  0  2  0  0  0  0  0  0  0  0  0
    4.5288    2.0534  -20.5078 C   0  0  0  0  0  0  0  0  0  0  0  0
    7.5628   -1.9471  -14.9934 C   0  0  0  0  0  0  0  0  0  0  0  0
    7.3132    8.1460  -18.7727 C   0  0  0  0  0  0  0  0  0  0  0  0
    4.3522    4.0637  -18.9948 C   0  0  2  0  0  0  0  0  0  0  0  0
    5.2870    2.9494  -19.5139 C   0  0  1  0  0  0  0  0  0  0  0  0
    7.7702   -0.5775  -15.4973 N   0  0  0  0  0  0  0  0  0  0  0  0
    6.3302    7.2433  -18.1417 N   0  0  0  0  0  0  0  0  0  0  0  0
    5.7541    2.1408  -18.3781 N   0  0  0  0  0  0  0  0  0  0  0  0
    3.9943    5.8219  -17.3773 N   0  3  0  0  0  0  0  0  0  0  0  0
    9.3946    0.2197  -13.9865 O   0  0  0  0  0  0  0  0  0  0  0  0
    6.8401    5.5481  -19.5645 O   0  0  0  0  0  0  0  0  0  0  0  0
    7.8337    3.0714  -18.1646 O   0  0  0  0  0  0  0  0  0  0  0  0
    3.7980    4.8155  -20.0736 O   0  0  0  0  0  0  0  0  0  0  0  0
    8.7186    0.0375  -22.1305 F   0  0  0  0  0  0  0  0  0  0  0  0
    5.1525   -2.8032  -20.6698 F   0  0  0  0  0  0  0  0  0  0  0  0
    6.8414   -4.8521  -19.4863 H   0  0  0  0  0  0  0  0  0  0  0  0
    4.7508   10.9547  -22.6272 H   0  0  0  0  0  0  0  0  0  0  0  0
    4.9203   -4.4318  -17.9610 H   0  0  0  0  0  0  0  0  0  0  0  0
    9.1317   -4.1263  -18.8393 H   0  0  0  0  0  0  0  0  0  0  0  0
    5.1461   11.9703  -20.3903 H   0  0  0  0  0  0  0  0  0  0  0  0
    5.5479    8.6464  -23.1066 H   0  0  0  0  0  0  0  0  0  0  0  0
    5.2668   -3.1623  -15.8500 H   0  0  0  0  0  0  0  0  0  0  0  0
    9.4874   -2.8811  -16.7133 H   0  0  0  0  0  0  0  0  0  0  0  0
    6.3327   10.6781  -18.6289 H   0  0  0  0  0  0  0  0  0  0  0  0
    6.7485    7.3556  -21.3512 H   0  0  0  0  0  0  0  0  0  0  0  0
    7.0439    1.9996  -21.6089 H   0  0  0  0  0  0  0  0  0  0  0  0
    3.8673   -0.5636  -20.2119 H   0  0  0  0  0  0  0  0  0  0  0  0
    7.5641   -2.2783  -21.6097 H   0  0  0  0  0  0  0  0  0  0  0  0
    8.6211    2.5313  -15.1976 H   0  0  0  0  0  0  0  0  0  0  0  0
    9.3720    1.6509  -16.5716 H   0  0  0  0  0  0  0  0  0  0  0  0
    4.5912    8.4165  -17.9172 H   0  0  0  0  0  0  0  0  0  0  0  0
    5.7934    8.5697  -16.5914 H   0  0  0  0  0  0  0  0  0  0  0  0
    6.0486   -0.3326  -16.7258 H   0  0  0  0  0  0  0  0  0  0  0  0
    7.6149   -0.3201  -17.6051 H   0  0  0  0  0  0  0  0  0  0  0  0
    5.2027    6.3557  -15.7337 H   0  0  0  0  0  0  0  0  0  0  0  0
    3.7015    7.3234  -15.9260 H   0  0  0  0  0  0  0  0  0  0  0  0
    5.5710    4.4247  -17.2509 H   0  0  0  0  0  0  0  0  0  0  0  0
    6.4335    1.7974  -15.7560 H   0  0  0  0  0  0  0  0  0  0  0  0
    4.3089    2.6273  -21.4200 H   0  0  0  0  0  0  0  0  0  0  0  0
    3.5867    1.7181  -20.0495 H   0  0  0  0  0  0  0  0  0  0  0  0
    6.6600   -1.9732  -14.3654 H   0  0  0  0  0  0  0  0  0  0  0  0
    8.4341   -2.2531  -14.3958 H   0  0  0  0  0  0  0  0  0  0  0  0
    8.1357    7.5523  -19.1981 H   0  0  0  0  0  0  0  0  0  0  0  0
    7.7133    8.8379  -18.0169 H   0  0  0  0  0  0  0  0  0  0  0  0
    3.5341    3.5759  -18.4445 H   0  0  0  0  0  0  0  0  0  0  0  0
    6.1444    3.4102  -20.0262 H   0  0  0  0  0  0  0  0  0  0  0  0
    5.1264    1.4548  -18.0102 H   0  0  0  0  0  0  0  0  0  0  0  0
    3.3961    5.2066  -16.8639 H   0  0  0  0  0  0  0  0  0  0  0  0
    3.4658    6.2826  -18.0903 H   0  0  0  0  0  0  0  0  0  0  0  0
    3.3625    4.2273  -20.6793 H   0  0  0  0  0  0  0  0  0  0  0  0
  1  3  1  0  0  0  0
  1  4  2  0  0  0  0
  2  5  1  0  0  0  0
  2  6  2  0  0  0  0
  3  7  2  0  0  0  0
  4  8  1  0  0  0  0
  5  9  2  0  0  0  0
  6 10  1  0  0  0  0
  7 14  1  0  0  0  0
  8 14  2  0  0  0  0
  9 15  1  0  0  0  0
 10 15  2  0  0  0  0
 11 16  1  0  0  0  0
 11 17  2  0  0  0  0
 12 16  2  0  0  0  0
 12 18  1  0  0  0  0
 13 17  1  0  0  0  0
 13 18  2  0  0  0  0
 14 29  1  0  0  0  0
 15 30  1  0  0  0  0
 16 28  1  0  0  0  0
 17 41  1  0  0  0  0
 18 42  1  0  0  0  0
 19 22  1  0  0  0  0
 19 33  1  0  0  0  0
 19 37  2  0  0  0  0
 20 26  1  0  0  0  0
 20 34  1  0  0  0  0
 20 38  2  0  0  0  0
 21 27  1  0  0  0  0
 21 35  1  0  0  0  0
 21 39  2  0  0  0  0
 22 27  1  0  0  0  0
 23 25  1  0  0  0  0
 23 34  1  0  0  0  0
 24 27  1  0  0  0  0
 24 33  1  0  0  0  0
 25 36  1  0  0  0  0
 26 31  1  0  0  0  0
 26 36  1  0  0  0  0
 28 32  1  0  0  0  0
 29 33  1  0  0  0  0
 30 34  1  0  0  0  0
 31 32  1  0  0  0  0
 31 40  1  0  0  0  0
 32 35  1  0  0  0  0
  1 43  1  0  0  0  0
  2 44  1  0  0  0  0
  3 45  1  0  0  0  0
  4 46  1  0  0  0  0
  5 47  1  0  0  0  0
  6 48  1  0  0  0  0
  7 49  1  0  0  0  0
  8 50  1  0  0  0  0
  9 51  1  0  0  0  0
 10 52  1  0  0  0  0
 11 53  1  0  0  0  0
 12 54  1  0  0  0  0
 13 55  1  0  0  0  0
 22 56  1  0  0  0  0
 22 57  1  0  0  0  0
 23 58  1  0  0  0  0
 23 59  1  0  0  0  0
 24 60  1  0  0  0  0
 24 61  1  0  0  0  0
 25 62  1  0  0  0  0
 25 63  1  0  0  0  0
 26 64  1  0  0  0  0
 27 65  1  0  0  0  0
 28 66  1  0  0  0  0
 28 67  1  0  0  0  0
 29 68  1  0  0  0  0
 29 69  1  0  0  0  0
 30 70  1  0  0  0  0
 30 71  1  0  0  0  0
 31 72  1  0  0  0  0
 32 73  1  0  0  0  0
 35 74  1  0  0  0  0
 36 75  1  0  0  0  0
 36 76  1  0  0  0  0
 40 77  1  0  0  0  0
M  CHG  1  36   1
M  END
> <OMEGA_C>
Ju/fQPyVisCTbZTB/KWoQIpNJkEK6q7B9f68QEh1gsDol43B5LEEQUQJesCxjpHBotCvQN2BL0Hm
x6TBXCW3QH9nEUG9F7HBMErDQB4IV8BRCYTB9uYHQc6aTMA29ofBv3rFQEjWI0E/0pzB3vPMQOa6
BUFBJqnB9UTVQKVZgT/aL6vBCYybQHG24b7k76TBKYreQOh+tL8ZQqvBHZHsQGB+OcAlSYHBF3bU
QNL+DkGI/57B9rGrQN5xWT/Z7KbBfdDuQJBk871dO63Bvs20QPjEyL/gK6fBf5sKQUAJuT5NVm/B
WFXDQDr9vkDVbpXBVQ3gQCB6EEC0N47B6SEJQSHyzz8OGH3BuJ+pQJfF+0A8PorBVTnjQBwxcrxr
dIXBD+iQQNSj2kDFroPBjNKhQCjIoEDUIZDBqI7mQDkAvj/fzIPB+OuQQBpqA0D9D6TBJwLyQCI6
+b/z5G/B5QXqQBJWAkFsLpbBM0WLQIoJgkBR9ZfBwC6pQFPCPECMHJzBY6X4QLvWE78M9XfBGJHK
QBfJ50AeIpHB0iG4QHsCCUBxBpPBPKN/QMRMukC8BIvBWVAWQYYCYT6VyF/BHuLaQF6KsUAYhJzB
3q36QACSREAVUZHBHhJzQOMYmkC7lqDBlH8LQVdpGT0yC7HB8OCkQNdnM8CuW6XB8+zaQHZEm8D8
45vBpQaYQJtGL0GGBLXBP3OdQKPRjcAbsI/BkBsSQVEKhMDRtpbBIa2kQHiGP0FHH6PBnYixQMNX
CkFB2rjBromoQDVjSsB7mX3BlMwXQUhkOMDKtIXBbaXKQJbZKkH6B5XBG/TXQKxg60Axz6rBwmfh
QI/z/z/x3qzB5IF3QPJKEL8FsqHBugzyQIXPEcCb4KzBHPAJQcsAIkB+KXPB1fMVQdFQ0z+TkoTB
FOuSQNapBkGDVo/BjGO5QIIdCUEqu4TB6Y3BQGVHqr58zoXBMK3zQEnlo75I14zBb3ymQDNiy0Bs
vXvBL+ZsQOZY6kD00H7Bj0WyQIKXjUDjAYrBh9/NQLYP5j+KGHzBQuKJQCgmKEBAXKvBq4xlQCHr
2z9PZaDByR7VQOGS/L/G2GXBF/IGQcMyEMAzVWbBxSsCQRes8UC7lZnBMtP2QCNoDUGTIpDBKy5i
QMrbZEBsjpPB4J7EQCNBWkClNaDBjwukQC82uj/oFJDBqllZQNycpkA76YbBns9dQBILyUD2uJDB
mzJXQE9Gh0Amb6XBNdKVQNWnhcBXFYrBawekQKXFJkEVd7DBpIy4QEFYlcC+G5DBghidQKXiUsBU
f4HBTh6zQE3fEUH3YbLBhvOqQGiIMEGGc6bBk0jiQLiJhsASC47BpuXGQMhoN8AxXn7BQV/JQGXF
BkEST6rB+QbBQKBtJUHNW57B92DXQGrGjT/GwKrBhbOfQFVCxL6c86PBWd3iQH/Cpr/1oqrBBjHp
QBUwUMAT54XBKsDQQGieEEG6S6DBfXquQKS3aj9XOKbBnKzxQABxk7qK36zBG9e5QK39vr+EMqbB
+NEJQYuUvr6Hn3TB64XCQDlxwkATxpXBpLrcQFckCUBNWIzBeVMEQTjniz8gO3nB6xWnQDtKAEGX
SovBLtXxQI9Qir46H4vBOZ6PQGAB4EBcSYTByhWiQHJNpED3B5DBdobkQNT+dT8MuYTB6VWTQAva
BkCZV6PBi9sJQXMlIsCjOYXBNRjnQH+YBEFGYZfBKheMQCfkg0C6d5fBMVKqQG7LPkBx8ZrB4QYG
QVf9ir+8xIPB+m7IQEhW7EDcBJLBM3y1QCuVCUC/npHBydZ+QPLEvUDHLovBL5UQQVqAUb8PqmPB
2AjaQElatEDpypzBIzT5QLFjPEDuhY7BWNp1QLMwmkDVeqDBLqYMQZwCPz5Z8bDBararQJowL8A9
9qPBgiprQGVKj8BbDozBwSSTQPVQL0EmrbbBpCSzQAPCrMB1UZbBl5aCQBC9PMBwY3nBEZ6tQGhe
CkELC7rBdlCfQKuJQEF2/KTBzOf8QLB0ksB0rZLBvNnMQEl1D8CmlXDBR87UQGF07UCMxKvBbfHF
QHbYLEEFp5bB2XXiQJavBkA6l6zBs12AQKofB7/afqDBzvX2QLf3CcArU6zBqdP9QHshzj9SrGrB
sBcSQShv0D/LCYDBJK6PQKw3CEHViJDB5VC2QAxFDEHPFobB8HPVQF9hVb8+uo3Bo1sCQbNY0Txn
KZLBmdKlQEua0kCFrHzBBYxpQCOt70A8KIDBVzezQIyqkkDRu4nBeZfGQIg3PT8ycoDB4FyNQGwq
LUB9kqrBu1xpQPcH4T/iCaDBTwsTQcj4OsD0x3zBFe4SQS2zLMBMpozB/sQAQTU/9kDsvZrBSNnz
QFcXEEFeh5HBKC9jQCqhakAD95LBcGXHQIJcWkDbgp7BkteeQJh/xD+c1I7BV+9ZQNxYqkCwzobB
BOhbQOXXykD5CJHB/X9aQPhohkAOIaXB3+2VQJFeh8CLG4vBFt2kQDZoJkFpNbDBbE65QBAdlMD8
VJHBOOabQISJWMD2PILB8AWsQIY0MEH1NqbBCcKzQJZ4EUHCHbLBKVPiQCC1g8AUGY/BiQrFQLgT
OsDtg3/B0SHCQFEaJUEhIZ7BqgDKQOZcBkHJC6rBEszWQKZAiD98xarBccidQOF4xr5hIKTB2TXg
QEJqrb+c0qrBePbnQAXOTcCshobBfZTRQH09EEH5C6DBbLatQI7DZj8mRqbB8ivwQGzggb238qzB
JPO2QCPXwb9LcqbBJwwKQUeno76icXTBR8HCQHnkwUB8sJXBN4vdQMbjDED8VIzB0IQFQQzukz/a
f3nBcUunQKvT/0BVK4vBgZzvQBo7Xb6srIrBTzGPQLBG30A6SoTBmh+iQNnDo0COCpDBUU3lQF2H
hj87bITBbE6TQJnDBkBAaKPBmAMJQUD/HsAmMIXB5rrnQNUxBEFpHJfBNmWMQD+Fg0Bui5fB+NCq
QK+3PkBPHJvBbrsEQbIphr8JaoPB3NvIQLaO60AE05HBKcS2QBDzCUD10ZHBYIx+QLQlvUAEQovB
TXARQeaXQr/UtWPBW1naQLHts0C/tJzBHzL5QL5gQkCNUo7BHAp2QDr/mUBYgaDB8PwLQdBdwz0a
/LDBf36nQLnrL8BAaaTBLGtsQD9oksAZJY3BMPGTQPbzLkHBabbBXPW0QKF+qsA705fB++aAQHhg
RsCSsHrB0omgQMI9QEF+wqTBQh2uQIbyCUHow7nBCV79QOsmjcCd7pPB2f7JQHWeE8BUX3HBr0jH
QHCQLEGMcZbBm0jVQKmT7ECifqvBc7fiQO9yA0B9iazBcpV8QPiBAr8ztKDBAZrzQII7DsBBjKzB
WC4BQdxy2z8J+WrBvV0TQfpJ0T+jmIDBi0iQQHb+B0F3dpDBHGy2QAbFC0HV4IXBxvzRQBiMPb+7
6IzB1PIAQSwQ5Dy475HBru6kQCC50UCIgnzB/kxoQGAL70ACRIDBWwKzQAUKkkDYt4nBZufHQJ3m
Yj8CiH/BzWKNQAHJLEAAqqrBezJpQEj74j+gBqDBgbARQZZLOcDJi3zBU8ASQT/+JsA9c4zB9R4B
QRhx9UBAcJrBJlv0QOSpD0G+OpHBaANkQAAvaUDnEpPB+4PHQNnGWkB5zp7BC/ugQJYIwD9VM4/B
WUxZQI+oqUCE8obBsxVcQAtPykAuJJHBGP5aQOpEhkA+MqXBrdCTQNvChsCl54rBizSlQG1oJkFO
KLDBu0qZQOFiUcC8ooLBhLS3QLr5lsBUZZDBxiGsQAw7MEG5KKbBtEe0QGx/EUEdC7LBHH7CQHfM
M8DwEoDBXNjgQBD5hsCwIo7B2iTCQJwqJUH0Cp7B1XvKQEVxBkEU86nBFlfXQEpviD+llKrBGi6e
QMJ4xb4HAaTBGuXgQLotrb++g6rBDwXmQPDiTcBITIbB58jRQO5UEEHc8J/B5RyuQIk5Zz84KqbB
JtPwQFBjfb3PrKzBNoW3QMqfwb8pNKbBOd0JQSYkqr4aw3TB/JvCQFErwkAYqpXBg87dQGsEDUAP
bozBvW4FQc6gkj/csXnBWiynQPn4/0C2FovBX/XvQKQUV75Y64rBQfKOQIdZ30DoQYTB8+6hQBID
pEBkDJDBPVzlQHIghj8dloTBpY2TQErnBkBwY6PBJTwIQZ73H8B1QoXBlcPnQB1NBEF1+ZbBNEeM
QHamg0BlipfB7NaqQGFNP0C/GpvBvoMEQaggh78umIPBxMbIQPe+60D+vZHBlr62QL0TC0CDx5HB
oBx+QJ1cvUBaRYvBQDYRQRexR790D2TBO2/aQFswtEAXoZzB/C/6QAsmQEAnuo7BFjJ1QC7dmUA7
f6DB31YMQfDZxj1drrDBoimoQFzRL8ABGaTBiiVoQGRrkcBlC43B1FKUQIDqLkGzYbbBlLp7QAUE
OsDsh3zBDKezQP+0r8BfWJbBXYugQGVBQEFeuaTBGM6uQPnzCUHlsbnBrg3HQFA1CcAGu3LBS1X8
QFkwk8DEY5LBWRLHQJCiLEF3WZbBhPLVQOjK7EAUY6vBeUjjQG2FA0DRWKzBtRh9QDDvAb+xqaDB
Bmf0QJwZDsDOKazBvAIBQX6E2T8zJWvBRFkTQdEh0D9Hn4DBlD6QQLUgCEGZYZDB6Ei2QLrJC0G1
w4XBx3LSQDvYOb84XY3B4HMBQRqEKz2DDpLBW5mkQLaq0UBDcXzBgsRnQDEY70BlPIDBf8myQOFS
kkChtonBcNXHQGQ5YD+y/n/Bp72NQCSRLEAGrqrBWZlpQDNP4z/qB6DBphkRQYsbOsCHynzBsZ4R
QetgKcBOnIzBQjABQYmv9UAcQ5rBjDj0QCrGD0GEEpHBYhlkQNgraUAcCpPBeYLHQAGRW0BIyp7B
+6+gQLWbxD/3BI/BSrBYQIDVqUC0/obBAthbQICkykDLJ5HBs09aQLr4hUC6KKXBrS2WQGpCiMCL
6orBKQqlQKYXJkFhSrDBwoabQOsWWcACJILBWvC5QNQQlcB7/pDBLmS0QKQ6EUGHKrLBfRWsQGcD
MEGLUqbBsXPEQNzROcDYK3/BCMLiQJ5ZhMCyrI7BFd7KQPVKBkFDFKrBS13CQBcRJUHeNp7B3AzX
QIaoiT9FBKvBKfqeQJThxb6dBKTBGzfgQM4mrL/ReqvBls7nQDASTsB0MIbBPh3SQOU+EEFKFaDB
RIiuQELqZz85OKbBMObvQIBdT72gn63B1sS3QBJTwb+MqqbBF/MJQTxmnb4o8nPB1IDCQDZFwkD+
tZXBzNrdQOyiDEDaTIzBiV4FQf0WlT8jK3nBrRinQHglAEECPovBOabvQCRUY77Sd4rBjv6OQFTe
30BXUoTBtwSiQN0mpEDXApDBU0HlQAy4hj+XUoTBbeeTQNG6BkCsTqPB8eYIQTwcH8Bgw4TBqfDn
QNZEBEGLE5fBK3CMQM6Gg0BdcpfBACKrQGsJP0DpBJvBM5kEQVIlhr97GYPBkMrIQMLf60DC05HB
qPi2QIpjCkDEuZHBHTt+QOeQvUC8P4vB3DARQTkjPb+OFmPBrQXaQE5GtEDHvJzBr9r5QDsdQUCy
Z47BxP90QMqkmUCEZKDB/WALQUjo4z0uMrLB1auoQMnfL8CCkqTBi0xtQNG3k8A//ozBktqTQEh9
LkEbgLbBPTiAQF6aRsBJwHrB3Am2QL28q8AdcZfBXeuuQB6hCUHczbnBKmGgQOgFQEGp56TBSejI
QFpWEsD0KXHBVxv+QOfzjcA6YZPB/5TWQJuU7EAAg6vBxGrHQF2eLEHki5bBQvLiQN5XBECQrqzB
nwuAQEhxA7/xTKDBXzPzQEZ2DcDVhq3Bn+QAQcwX3T+zuGrB4D8TQR5+0j/4ZYDB4B2QQNsdCEH8
lZDBiRi2QEAaDEEY/IXBYg3SQLsRP7+YuYzBlxcBQVbWTTzItZHBEbqkQE920kB1h3zBwdtnQCm0
70DRUoDBngOzQAuykkDcqInBI7THQP8RZT/7a3/BNsmNQD6+LED2jarBV5tqQGfe4T/P6p/BvGcR
Qf0AOcDYinvBP9ESQUyJJ8AF9YvBz0IBQel49UBtU5rBrGr0QCvHD0HLMZHBZLFkQG7SaEAh6JLB
XtDHQBdoW0DRr57BTAGhQO0ewj8DDY/BSxVZQCIfqkCD6YbBS65bQEOVykACJZHBUiVaQC6thUCZ
CaXBkqMLQcoLf8AmbJXB4rSgQI0tJkH236/BcHLqQEp+eMCUkJTB4LoYQSB/a8DZl4zBtAKwQIVj
EUGZ+LHBFtOoQOvnL0H16KXBYrfXQP6dWsDLCovBTXMPQaBPTcDhE4PBiJ/HQHBcBkGnHqrBIkjA
QMrgJEGaCp7BKgHXQLkMij+baKvBoPGdQHITxr7Q/aTBGqrfQD25q79uN6zBQCvyQL44QsCAaILB
iCDQQPwqEEELJqDBnA6uQL74Zz9j1qbBuvXvQLBZOr14/a3ByHu2QMkYwb8czKfBjp4HQX6wsL0E
jXDBAonDQISLwUBp55XBEhjiQBf0DED5zY3BZywJQc/cnz9i53zBhA6pQDOy/kBP8orBggrdQCpv
7L1M/oXB9TaSQMeJ3UB8+4PBRsijQPzaokBBI5DBIJPmQADeqz9lv4PB4oeTQO19BkCSwqPBsjng
QJwnC8DPM3PB8rHnQC4xBEFga5fBxmmNQBXGgkASmpfBVNurQALlPkAUuJvBBPrqQPFrRb+ANnjB
tNfJQMoK60CM8pHBfie6QHvcCUAFtZLBXHiBQPfLu0CC9YrBvKMTQRbb4r4EKWLBqJLaQJwZtEDr
F53BEhj9QImkQkB/NJDB7SR0QCqRmUCUP6DBF7MLQRik+D2BO7LBqAymQLWhL8DWX6bB58sSQfSP
icAK4JzBEryOQEWqLkGh6bXBKWrWQOo6hcDJPJvB1dopQbOsc8ChIY3BwaGpQJ3qCUG4mLnBnQmd
QAfVP0G9T6TBTFa1QMNcVsCCVorBdnAZQTmWPsA+i3jBLz/TQGjO7EDBtqvBjSrGQFNILEHqX5bB
qSDjQIudBEAx66zBcH19QJkfBL/ja6HBdbfyQPI0DcDzPa7B/eMLQUL2BUD683HBjAkWQVrYmz/Z
c4TBxjKRQIV3B0Ef/I/BmLO4QO4gC0EhtYXB6626QJy3jL4HaofBpV7vQPMc9b7d64zBje2oQPG1
z0DGbnzBBmhvQMfX7EDDRn/BqJG1QPvekECUBIrBqYLPQJRv2j+2invBxlWMQAQ8LECo96rBSO1q
QHsP4T9sGaDBeEe9QKTtEsCnYXLB8oLuQAd5HcBjyGPBngUBQYDd9UCZ+JrByLf0QI+vD0G8mpHB
ST1oQJ/YZUAb8JLB7XLHQFyxXECIt5/B5yulQDDivj+G0I/BU/1eQPfzp0Dvk4bBJddeQHxHyUDn
o5DBNl1YQH7thUA65aTBQxrJQAJ8i8DXcZHBkGGrQI8DJkGDi67BWhj1QKuHgcBtCZHBs0itQFoe
ecBTZonBVBGyQFAaL0E8XaTBHrO5QIUVEUFet7DBza8CQQZXUcDZjojBZne9QCE4R8Dz8IDB8QzH
QKpHI0HJWJzB7PHOQFlJBUFYuqjB+DLUQJCOfD8vIqvBgzSaQDAj7r5/C6XB3ALdQBW5t7/keqvB
mobpQMZCM8AMe4DBTfHVQNdrDkEuhp7BVJaqQFplUz/U4qbBiIXtQJlvE76JUK3BDUyzQFXxy7+Z
YafBuTwMQW5wAT/Kcm/BVwHDQLoNvkAFOZXBGTvfQLxXEkDFJ47BgOYIQU8x4z9yn3zBYqapQMWt
+kD68InBerLnQKgd9DwmnYXBxQWQQPyj2UCHkYPBdNugQIcYoECDGJDBV+nmQIU1wz+4v4PBndSP
QO3VAUD3+KPBJt/5QMlB7b+M2m/B4b7qQFyUAUErqZXBw3OKQOjGgUCZDZjBizOoQDaoO0BzGZzB
ZnH/QPawAL/DunjBHa7KQOaA5kDVxZDBQlu3QLLXCEB18JLBiNB9QLfcuUC0DYvBUgAYQRoz0D7M
2V/BhonaQEiosEDmUJzBVqf5QJDXRUDqfpHBErBzQH4vmkAbw6DBP+AKQYCqMTyeGbHBPU2jQO4D
NcD1n6XB67W8QJOZnsAk8ZfBKkObQDAaL0GksLTBxSgFQQn4jMAjOpfBCJ2LQB4+hMCRuInBLhWn
QJYmP0G/tqLB52C0QG4YCkFfgbjBbokTQdk9QsBuO4jBGiSoQI8fMMA5knXBv8LLQIEvKkHIg5TB
G+rZQL576kBnZKrB1YfgQB71/D+ss6zBxbZ0QNaIFr9a1qHBQ1TwQMt3E8AsN63BODEIQUl0KkDN
RHLBZrwVQVJf8z8zP4TBLYaTQGxqBkGKEI/BNXG5QLpPCEFYToTBRgPHQHJIwb6Z2YXBH0T4QHdF
V74GI43B5QClQCjRyUBpbXvB/hNrQFWR6UD/tX7BRMCwQG2QjEBl8onBFA3NQGXh4T+XMHzBBXKI
QBlaJkAfRKvBNbtjQIdz2D9AOqDBcbHiQHpi6L87n2LBv2gMQT7+DcDu1WnB54kCQVj270AG/ZjB
YGb3QAyHDEEuio/Ba2VfQIP4ZEDNzJPBnpzDQKqtWEDoQqDBf6GjQG3vuD8o9I/BjnVWQBxJpkCg
EofBSSFdQGsVyUB1yJDBigFYQDGhh0AzsKXB/CDlQIJNhsD7N5XBXq2nQK8LJkEsKq/BHvAGQVq+
cMDL35HBK4/BQFZFgsDdW47B4Me2QAE6EUHLRbHB32euQNJmL0H/C6XBUmUJQdpzScAp04fB21XG
QCqmXMBkWITBx8jMQJzKBUEHR6nBaDjEQAn1I0G+B53BC2fVQBy1hT85M6vBI0+cQIiK3L5u8qTB
UdjeQF7Pr7/nzqvBp6ruQOlvPMDkOYHB0djTQPUzD0FxJJ/BiCCsQGy2XT/fzqbB7eXuQFJsmb3c
lK3BenW1QEQ0xr+qiafBId0KQWX4mT63dW/BIVDDQHqFv0BCaZXBpBHgQPtwDkANF47BsBgJQd7p
yT/J4XzBk/6oQIOM/ECmZYrB5ZPjQMiThb2nd4XB9l+QQFaP20BXxYPBdfahQJJFoUBHD5DByZLm
QLCYtz8cvoPB+hmRQPq8A0CC1KPBcbjxQPSp/788qG/BKYnpQAq9AkGoRpbBXH6LQFhcgkDE2JfB
OFWpQLUJPUAQ45vBEUX4QNeoH7+ntXfBbDjKQLSF6EDjMZHBBNe3QD0xCUBZxJLB3ml/QMyoukB8
AYvBB/kWQXDpFD6BQWDB//baQEj3sUBGdpzBzQX7QIbKQUCcNpHBQCl0QBQ6mkDbjaDBJ10LQbQF
yT0lk7HBOaOlQNiGMsBA9aXBziLhQLIhlMDbEp3B8+yWQJrXLkFmT7XBBaUUQXWLecDrBJfBX7ei
QP53jsBqyZDBS3uxQP8KCkGnBLnB/tCiQLpcP0GZcaPB3QoZQW5LNcA3KYXBRTKrQHqoVsDUGH7B
m0fYQPuh60AB46rBEgLJQJ0SK0GOP5XBbFnhQM2NAkDHuazBUrp5QPDzEL+4h6HB7T/yQCUED8CT
uK3BK7QJQb5OHkBUsXLBnewVQeZP0D/qc4TB1kKSQPHaBkFAkY/B6X24QNOuCUEH7oTBqQDCQNnX
xr42BIbB0cD0QAZ4u77/wozBRO+lQNTNzEAvv3vBK2FrQAFK60CXLn/BcXqyQFxHjkBi6InB8cjN
QLM63j/Z9XvBpaeJQIS7KED/FKvBYVpmQFYH2z8aH6DBBfHTQM+bAsB3TGbB1m0GQTZREsDjcWXB
MgACQXeP8kAmo5nB8yb2QHzuDUEIQ5DBvkhiQM//ZUBXdJPBKvrEQLUHWkBO9J/BqyyjQIjivT+/
so/BvqFZQFDxpkCn1YbBgjFdQJPsyEDDv5DB5VtYQP1Ph0AsYqXBL2bSQGPii8BEK5PBdMSoQA8N
JkFxrK7ByiazQA9ngMAmkYvBYFn9QJCUfsCFvJHBKj23QPAlEUHx2LDBnv6vQFVGL0H+i6TBVMu+
QIzaT8CWkoLB1YwEQYzvTcAZtojBxx3NQMZ/BUEC6ajBtKzFQDudI0EolpzBarjUQA/KgD9DH6vB
Aw+bQBkg6r4mBaXBysTdQP32tL8Dp6vBtLvpQOYANsA1IYHBxKrUQD7GDkFww57Bnz+rQMc/Vj+X
0abB9iDuQDQF873oZq3B/yS0QNtKyr+Qg6fBYrAKQXJH4T7E6m7BDkzDQJebvkDOTZXB0uTfQGSr
EUC5LY7BUfYIQaMC2T/ZvHzBK5CpQEhC+0DRE4rB5dzjQLxR0zypT4XBLH+QQGog2kD3mIPBKY2h
QOZ1oEDdFZDBjHnmQIdVwz+frYPBMl6QQOJGAkBu4KPBjyD1QMrG87/VC3DBTSfqQCAYAkHA8ZXB
NQyLQGf+gUB++5fBPtaoQIxkPECUEJzB4A/7QN9qCb/6NXjBxJjKQLJI50Di8ZDBpOa3QGqmCUA3
65LBcAZ/QFbsuUCk+4rBqSMWQWbWoz6eIF/B3PTaQEQpsUCKXZzBGO76QGTFQ0D/jZHBteBzQIMz
mkC+qaDB/R4LQRzuPD2cPLHBQSCkQKppNMDN7qXB323JQKVinsAXHZrBzh2YQMUDL0GMxrTB9VWS
QBlcisB9o4zBSZ8KQVdKiMANj5fBGo2xQNMQCkFambjBreOkQAxNP0Hg5KLBhtamQJ4BPsBbhHnB
UQMVQcP0OsAtlofBTyXYQBHt6kAdkqrBHtjKQKahKkErzJTBI+LgQI3U/z9yqKzB0sF2QOAqFr/N
uaHBNCDxQNvWEcCSe63Bl28JQSTCJkDB3XLBINoVQXDW3T9nWoTBIBOTQFuEBkFKL4/Bjku5QMDC
CEGVgoTB41nCQIkcn76SVoXBwkjzQPQfiL6o3ozBJNSlQOW4ykAZgXvBpOxrQCTj6UAku37Btsux
QIQPjUDB94nB3WvNQHCJ6j+VAXzBSKyIQPCdJkD7KavBRSRlQJXT2D9PEqDB/CXbQKFO9L+qK2TB
m3oJQayvD8AAdWjBMEICQbM28UDLVZnBIuD2QCgkDUF04I/BAxZhQOEnZUAHqZPBJDHEQPNtWUBs
P6DBnN2jQFMnvD/O4I/B0Y9YQIgwpkBV6obBN2tdQGPGyECUsJDBFBZYQO6Ah0C9i6XB

> <OMEGA_E>
zFIGPySjID/Avxw/arMcP0A4Gz94Vw0/EN8GP4yaBj8QEwY/

> <OMEGA_NBR>
     41352

$$$$
50162110
  -OEChem-04172616093D

 91 95  0     1  0  0  0  0  0999 V2000
    5.7044   10.7363  -20.8702 C   0  0  0  0  0  0  0  0  0  0  0  0
    5.8260   10.2046  -22.1684 C   0  0  0  0  0  0  0  0  0  0  0  0
    6.3139   10.0839  -19.7832 C   0  0  0  0  0  0  0  0  0  0  0  0
    6.9032    0.1317  -16.7164 C   0  0  0  0  0  0  0  0  0  0  0  0
    8.1502   -0.3764  -14.6831 C   0  0  0  0  0  0  0  0  0  0  0  0
    8.3915    1.8036  -15.7458 C   0  0  0  0  0  0  0  0  0  0  0  0
    6.8589    1.2829  -21.5208 C   0  0  0  0  0  0  0  0  0  0  0  0
    5.1496   -0.3077  -20.7995 C   0  0  0  0  0  0  0  0  0  0  0  0
    7.1725    8.3660  -21.2921 C   0  0  0  0  0  0  0  0  0  0  0  0
    7.2521   -1.1145  -21.7348 C   0  0  0  0  0  0  0  0  0  0  0  0
    7.2571   -0.7716  -15.6954 C   0  0  0  0  0  0  0  0  0  0  0  0
    7.4721    1.4231  -16.7478 C   0  0  0  0  0  0  0  0  0  0  0  0
    6.5467    9.0094  -22.3800 C   0  0  0  0  0  0  0  0  0  0  0  0
    8.7087    0.9143  -14.7003 C   0  0  0  0  0  0  0  0  0  0  0  0
    5.5854    1.0205  -20.9694 C   0  0  0  0  0  0  0  0  0  0  0  0
    7.6940    0.2146  -21.8961 C   0  0  0  0  0  0  0  0  0  0  0  0
    5.9765   -1.3728  -21.1926 C   0  0  0  0  0  0  0  0  0  0  0  0
    7.0565    8.9025  -19.9915 C   0  0  0  0  0  0  0  0  0  0  0  0
    6.6964   -2.1245  -15.6775 C   0  0  0  0  0  0  0  0  0  0  0  0
    7.0918    2.3670  -17.8102 C   0  0  0  0  0  0  0  0  0  0  0  0
    7.7927   -4.0238  -18.7323 C   0  0  0  0  0  0  0  0  0  0  0  0
    7.2532   -5.0736  -17.7657 C   0  0  0  0  0  0  0  0  0  0  0  0
    7.6724   -2.6929  -17.9744 C   0  0  0  0  0  0  0  0  0  0  0  0
    5.4150    7.8515  -17.2047 C   0  0  0  0  0  0  0  0  0  0  0  0
    6.0037    5.9935  -18.7954 C   0  0  0  0  0  0  0  0  0  0  0  0
    4.4596    6.8962  -16.4825 C   0  0  0  0  0  0  0  0  0  0  0  0
    6.2565   -4.3046  -16.9005 C   0  0  2  0  0  0  0  0  0  0  0  0
    5.0061    5.0869  -18.0354 C   0  0  2  0  0  0  0  0  0  0  0  0
    6.7010    8.4527  -23.7785 C   0  0  0  0  0  0  0  0  0  0  0  0
    9.7024    1.3178  -13.6368 C   0  0  0  0  0  0  0  0  0  0  0  0
    2.6894   -3.2036  -17.2508 C   0  0  0  0  0  0  0  0  0  0  0  0
    4.6773    2.1562  -20.5666 C   0  0  0  0  0  0  0  0  0  0  0  0
    4.8723   -4.1771  -17.5684 C   0  0  0  0  0  0  0  0  0  0  0  0
    4.3322    4.0641  -18.9596 C   0  0  2  0  0  0  0  0  0  0  0  0
    5.3527    3.0581  -19.5189 C   0  0  1  0  0  0  0  0  0  0  0  0
    6.8631   -2.9753  -16.7687 N   0  0  0  0  0  0  0  0  0  0  0  0
    6.4799    7.0909  -17.9222 N   0  0  1  0  0  0  0  0  0  0  0  0
    5.8514    2.2195  -18.4186 N   0  0  0  0  0  0  0  0  0  0  0  0
    3.9397    5.9048  -17.4320 N   0  3  0  0  0  0  0  0  0  0  0  0
    6.1213   -2.5166  -14.6680 O   0  0  0  0  0  0  0  0  0  0  0  0
    7.8532    3.2738  -18.1291 O   0  0  0  0  0  0  0  0  0  0  0  0
    8.1281    9.0379  -17.5651 O   0  0  0  0  0  0  0  0  0  0  0  0
    8.7879    7.0979  -19.0750 O   0  0  0  0  0  0  0  0  0  0  0  0
    3.6682    4.7481  -20.0244 O   0  0  0  0  0  0  0  0  0  0  0  0
    4.0457   -3.2872  -16.7912 O   0  0  0  0  0  0  0  0  0  0  0  0
    8.9133    0.4660  -22.4241 F   0  0  0  0  0  0  0  0  0  0  0  0
    5.5363   -2.6426  -21.0598 F   0  0  0  0  0  0  0  0  0  0  0  0
    7.7675    8.0287  -18.5703 S   0  0  0  0  0  0  0  0  0  0  0  0
    5.1432   11.6448  -20.7091 H   0  0  0  0  0  0  0  0  0  0  0  0
    5.3669   10.7122  -23.0039 H   0  0  0  0  0  0  0  0  0  0  0  0
    6.2133   10.4883  -18.7868 H   0  0  0  0  0  0  0  0  0  0  0  0
    6.1955   -0.1642  -17.4766 H   0  0  0  0  0  0  0  0  0  0  0  0
    8.4073   -1.0649  -13.8917 H   0  0  0  0  0  0  0  0  0  0  0  0
    8.8529    2.7795  -15.7810 H   0  0  0  0  0  0  0  0  0  0  0  0
    7.1911    2.3018  -21.6541 H   0  0  0  0  0  0  0  0  0  0  0  0
    4.1803   -0.5072  -20.3672 H   0  0  0  0  0  0  0  0  0  0  0  0
    7.7410    7.4621  -21.4541 H   0  0  0  0  0  0  0  0  0  0  0  0
    7.8908   -1.9350  -22.0267 H   0  0  0  0  0  0  0  0  0  0  0  0
    8.8429   -4.2326  -18.9843 H   0  0  0  0  0  0  0  0  0  0  0  0
    7.1922   -4.0006  -19.6537 H   0  0  0  0  0  0  0  0  0  0  0  0
    6.7512   -5.8860  -18.3116 H   0  0  0  0  0  0  0  0  0  0  0  0
    8.0637   -5.4914  -17.1504 H   0  0  0  0  0  0  0  0  0  0  0  0
    8.6690   -2.3263  -17.6873 H   0  0  0  0  0  0  0  0  0  0  0  0
    7.1718   -1.9407  -18.6019 H   0  0  0  0  0  0  0  0  0  0  0  0
    4.8462    8.4495  -17.9320 H   0  0  0  0  0  0  0  0  0  0  0  0
    5.8833    8.5197  -16.4670 H   0  0  0  0  0  0  0  0  0  0  0  0
    6.8644    5.3908  -19.1207 H   0  0  0  0  0  0  0  0  0  0  0  0
    5.5033    6.4232  -19.6757 H   0  0  0  0  0  0  0  0  0  0  0  0
    4.9994    6.3807  -15.6746 H   0  0  0  0  0  0  0  0  0  0  0  0
    3.6224    7.4689  -16.0569 H   0  0  0  0  0  0  0  0  0  0  0  0
    6.1551   -4.7900  -15.9186 H   0  0  0  0  0  0  0  0  0  0  0  0
    5.5507    4.5479  -17.2461 H   0  0  0  0  0  0  0  0  0  0  0  0
    7.5970    8.8842  -24.2486 H   0  0  0  0  0  0  0  0  0  0  0  0
    6.8041    7.3587  -23.7282 H   0  0  0  0  0  0  0  0  0  0  0  0
    5.8137    8.7103  -24.3755 H   0  0  0  0  0  0  0  0  0  0  0  0
   10.7178    1.0463  -13.9611 H   0  0  0  0  0  0  0  0  0  0  0  0
    9.6470    2.4047  -13.4769 H   0  0  0  0  0  0  0  0  0  0  0  0
    9.4659    0.7965  -12.6975 H   0  0  0  0  0  0  0  0  0  0  0  0
    2.1267   -2.5090  -16.6098 H   0  0  0  0  0  0  0  0  0  0  0  0
    2.6758   -2.8378  -18.2881 H   0  0  0  0  0  0  0  0  0  0  0  0
    2.2255   -4.2001  -17.2072 H   0  0  0  0  0  0  0  0  0  0  0  0
    4.4361    2.7566  -21.4561 H   0  0  0  0  0  0  0  0  0  0  0  0
    3.7510    1.7424  -20.1414 H   0  0  0  0  0  0  0  0  0  0  0  0
    4.9911   -3.7738  -18.5849 H   0  0  0  0  0  0  0  0  0  0  0  0
    4.3972   -5.1679  -17.6203 H   0  0  0  0  0  0  0  0  0  0  0  0
    3.5932    3.5047  -18.3673 H   0  0  0  0  0  0  0  0  0  0  0  0
    6.1836    3.6044  -19.9892 H   0  0  0  0  0  0  0  0  0  0  0  0
    5.2546    1.4902  -18.0840 H   0  0  0  0  0  0  0  0  0  0  0  0
    3.3062    5.3001  -16.9493 H   0  0  0  0  0  0  0  0  0  0  0  0
    3.4521    6.3845  -18.1615 H   0  0  0  0  0  0  0  0  0  0  0  0
    3.2509    4.1148  -20.5966 H   0  0  0  0  0  0  0  0  0  0  0  0
  1  2  2  0  0  0  0
  1  3  1  0  0  0  0
  2 13  1  0  0  0  0
  3 18  2  0  0  0  0
  4 11  1  0  0  0  0
  4 12  2  0  0  0  0
  5 11  2  0  0  0  0
  5 14  1  0  0  0  0
  6 12  1  0  0  0  0
  6 14  2  0  0  0  0
  7 15  1  0  0  0  0
  7 16  2  0  0  0  0
  8 15  2  0  0  0  0
  8 17  1  0  0  0  0
  9 13  2  0  0  0  0
  9 18  1  0  0  0  0
 10 16  1  0  0  0  0
 10 17  2  0  0  0  0
 11 19  1  0  0  0  0
 12 20  1  0  0  0  0
 13 29  1  0  0  0  0
 14 30  1  0  0  0  0
 15 32  1  0  0  0  0
 16 46  1  0  0  0  0
 17 47  1  0  0  0  0
 18 48  1  0  0  0  0
 19 36  1  0  0  0  0
 19 40  2  0  0  0  0
 20 38  1  0  0  0  0
 20 41  2  0  0  0  0
 21 22  1  0  0  0  0
 21 23  1  0  0  0  0
 22 27  1  0  0  0  0
 23 36  1  0  0  0  0
 24 26  1  0  0  0  0
 24 37  1  0  0  0  0
 25 28  1  0  0  0  0
 25 37  1  0  0  0  0
 26 39  1  0  0  0  0
 27 33  1  0  0  0  0
 27 36  1  0  0  0  0
 28 34  1  0  0  0  0
 28 39  1  0  0  0  0
 31 45  1  0  0  0  0
 32 35  1  0  0  0  0
 33 45  1  0  0  0  0
 34 35  1  0  0  0  0
 34 44  1  0  0  0  0
 35 38  1  0  0  0  0
 37 48  1  0  0  0  0
 42 48  2  0  0  0  0
 43 48  2  0  0  0  0
  1 49  1  0  0  0  0
  2 50  1  0  0  0  0
  3 51  1  0  0  0  0
  4 52  1  0  0  0  0
  5 53  1  0  0  0  0
  6 54  1  0  0  0  0
  7 55  1  0  0  0  0
  8 56  1  0  0  0  0
  9 57  1  0  0  0  0
 10 58  1  0  0  0  0
 21 59  1  0  0  0  0
 21 60  1  0  0  0  0
 22 61  1  0  0  0  0
 22 62  1  0  0  0  0
 23 63  1  0  0  0  0
 23 64  1  0  0  0  0
 24 65  1  0  0  0  0
 24 66  1  0  0  0  0
 25 67  1  0  0  0  0
 25 68  1  0  0  0  0
 26 69  1  0  0  0  0
 26 70  1  0  0  0  0
 27 71  1  0  0  0  0
 28 72  1  0  0  0  0
 29 73  1  0  0  0  0
 29 74  1  0  0  0  0
 29 75  1  0  0  0  0
 30 76  1  0  0  0  0
 30 77  1  0  0  0  0
 30 78  1  0  0  0  0
 31 79  1  0  0  0  0
 31 80  1  0  0  0  0
 31 81  1  0  0  0  0
 32 82  1  0  0  0  0
 32 83  1  0  0  0  0
 33 84  1  0  0  0  0
 33 85  1  0  0  0  0
 34 86  1  0  0  0  0
 35 87  1  0  0  0  0
 38 88  1  0  0  0  0
 39 89  1  0  0  0  0
 39 90  1  0  0  0  0
 44 91  1  0  0  0  0
M  CHG  1  39   1
M  END
> <OMEGA_C>
YIq2QMbHK0Ek9qbBTm66QAVGI0H2WLHB2gvKQJlXIUHtQ57BbOfcQBHgBj47u4XBMWcCQXm5wL4D
7mrBkkMGQbbd5j+f7nvB/HvbQNk0pD+FKqzB2smkQFOJnb5uZabBbIXlQBLbBUEhVqrBAhHoQIuo
jr/m4K3BODroQCqJRb9zIHvBJxvvQLgptj+G+4XBPH7RQFkmEEE1CrPBzFYLQWQMaj+UNGvBxruy
QICggj9UwafBezX2QAPNWz4tK6/BfT+/QE62r7+FiqnBHc/hQJhwDkGF7p/B4kjWQCz3B8De1nrB
MPDiQHx9F0BSe47Bi135QBTDgMDQ25XBDRroQPVaosAeII7BQ4T1QK1XLMCUy4/BeUetQKc/+0BI
o4nB9B3AQOfKv0D4XJbBrbSOQKut3EA73IPBbzXIQEi/icAwNIfBHjKgQKfHokBsSJDBRG7WQG0+
B0FPOr7B9zwbQVutqD+BMFrBNh8sQKsHTcCUAYrBYKyVQLH+CUBiiKTBHeqbQPyqhcAujIzBN6GK
QHMNgkBbrZfBhUmrQM63Q0C3JpzBKJ7bQI1rPsA7JobBZFvPQEvo4kCeYI/B4j67QMQLDkA5WZPB
TSR8QDP0vEC/dIvB9+HDQMIPIcAfsGrBj037QH2FUUBUCJHBuwwCQWGbEEFihYzBL5sMQfoh40Ct
mZjB/MJqQDXwl0AGMqDBq3aBQNJhUsBlVIbBrpwOQUeS7j55ZLPBhSmxQBIgKcBveqjBYY/4QF11
AEHmj5TBIZWkQExROkEqrKXB/72rQExlK0H/B7jBCNPGQBjQJ0FoS5bBYkHGQMErKL4X0IvBa4QG
QcpNiL91RF7Be6UNQQnjMUDpfnzBfB3mQOxQE0CLO63BnsSFQLLaAb8g8KLBZLb3QLnJ7kASoqvB
s4H8QGKu97+kNrDBYXwNQUVxh8Do35fBICbmQNcEgMCxOp3B0wnYQFNavMAUfpLB7wQBQSe5r8AU
NInBKrQKQe/hFMCMf43BpX/lQCFq+L+10JTBARSbQA4xB0G/dI/BGUS8QL9QCEGCvIPBeanbQMGB
rEA595jBsBqwQCaLzUDYZ53BfPufQIwuzEAry3rBENVnQCIB70CIdIDBgPbEQLtHmcCWsn7BGp+x
QIOIkUDy94nBOhrzQLQlDkEr/cHBjrvZQNV660Bp073BrQm6QHJdC0HvAMPBOXwrQRjthT/PYF/B
EloaQYvmGUCQoVfBbXQXQXLlSz8SKUvBqRsIQHCTIMDM4ITBuz8rQOieNcABTpLBSW8OQNdmhsBe
qInB1vSNQI1sMEAupqvBrhBwQJgH3z9/IaHB2rafQDSFccDlrZTB17WMQBtfpcBl9ozBt/ZlQCNN
YEAn8JLBBeDFQE6vZkDQ6Z/BbyWoQD2/vj/+q5DBEJlTQHeaqUAmmIfBxO9cQAxOzEC2SpHBOA9Q
QIysg0DixaTBscHbQK3eB0H9dbTBexrEQFING0GTKrTBXfPsQKS6/kBC76rBr93cQCZpJT7L0oXB
/kgCQXANur5PI2vBFesFQXS36j+NoXvBT0TbQGLbsz+8W6zBMS6mQMimbb7fe6bBK7jOQNQwHUE2
3KDBJLvpQIMZe797L67BejfoQCpZQL8re3vBGLfuQCqJuj/K6IXBLsi9QL3CJUHbWKrB2w4LQbGt
bj8yF2vBqu2yQBiwjT/q16fBe7P2QHo5uD7dfa/Bt2HBQFQAo79Ht6nBI6bmQGMrCkH0HKHB+ZnW
QBrnBsAelnvBXWziQDsVGkDuU47BqZj8QNdLfcBVLZbB7brqQKvfoMDBs47BYx73QJCpKMBpFpDB
bd6sQKwd/UDs+YnBhuK+QKqdv0BfAJbBl52NQJ3n30D06oPBfyvKQMkPicDpyYfBQ62eQIqXo0DN
yY/B7BKiQLB9OUEDyKnBfd0aQZAzqj/H8lnBiEgwQIqWS8Cu4orBFCKVQAqmDUBbZ6TB1+udQFiF
hcARKo3ByDyJQJCkgkCOKpfBJ0WqQL9rRkBy3ZvBXb/cQMpoPMDjk4bBK6rOQNr04kAGS4/Bism6
QFwcEEC5NZPBKnx5QJqvvkD7IIvBN87DQPoIIcAQqGvBWbH6QGVpVEAs05DB/JsBQQsFEUHDZo3B
inINQUhm3kDWF5fB0ntmQL9wmEAulJ/B/W6CQMR1VsCboIbBP6IOQe2qJD9c2LPBjXi0QI52I8Dt
k6jBMZv5QIAX/kDElpTB5LbgQKlh/0Bc+LvBfNC2QL6PIUGdcrvBn+v+QCE44UD0IqvBu3PGQFVi
Bb7C+IvBV3AGQc7Ih79wnV7ByCENQe4nNEA27nvBDgflQLa0G0AeZ63BJXqHQKWs6r5q9KLBW1LJ
QG1CJUEOV5nBV7b+QPhS5L8OnLDB2kwPQU2xhMB44JfBjojqQH3re8Boup3B0BjbQE6FusBqSpPB
LycCQU+brsCpuYnB7D8LQTWUD8AXoI3BMNjmQCty8r/JKJXBXDebQBevB0EfEpDBpfS7QF2yCUFW
TYTBsiHaQKG2q0AdgpjBcwCvQOHzzECaHJ3BlHaeQP+N0EBTbHrBYNNlQAMx80Cq0IDBJgPHQLP0
mMAQ9H/BscavQHCWkkC4YInBT5OAQB7ENEHUd6jBd9OsQCutQ0GJIKPBk56kQNRsQkEhVrHB7igr
QcUYiT/uJ1/B/NMZQVV8GkApKFfB4x0XQbgySz/5CkvBsYkKQLjvIsCbd4XBczw0QMYKLcBuzJLB
/jgRQDE7hcB4qIvBV/2MQPcjNUACZqvB1JBvQC2x4j8QE6HBGm2hQCzGbcCkHpXBaNePQDCcpcAa
/43BlF5kQCZLYED8YpLBeonEQMjnakC6ip/B2hyoQNTFwD9Ao5DB4mNRQE0ErEBv/obBZalZQOr0
zEAoFZHB4uxLQNMahEBTJqTB

> <OMEGA_E>
4HkhPXAQAD4=

> <OMEGA_NBR>
      3151

$$$$
50162111
  -OEChem-04172616093D

 88 92  0     1  0  0  0  0  0999 V2000
    5.9043   10.1151  -22.3407 C   0  0  0  0  0  0  0  0  0  0  0  0
    5.7510   10.6813  -21.0592 C   0  0  0  0  0  0  0  0  0  0  0  0
    6.6272    8.9155  -22.5004 C   0  0  0  0  0  0  0  0  0  0  0  0
    6.3202   10.0502  -19.9367 C   0  0  0  0  0  0  0  0  0  0  0  0
    7.1978    8.2825  -21.3773 C   0  0  0  0  0  0  0  0  0  0  0  0
    6.8982    0.1137  -16.7113 C   0  0  0  0  0  0  0  0  0  0  0  0
    8.1172   -0.4139  -14.6667 C   0  0  0  0  0  0  0  0  0  0  0  0
    8.3711    1.7774  -15.7030 C   0  0  0  0  0  0  0  0  0  0  0  0
    6.9003    1.3518  -21.5202 C   0  0  0  0  0  0  0  0  0  0  0  0
    5.2263   -0.2725  -20.7917 C   0  0  0  0  0  0  0  0  0  0  0  0
    7.3441   -1.0377  -21.7273 C   0  0  0  0  0  0  0  0  0  0  0  0
    7.2365   -0.7984  -15.6935 C   0  0  0  0  0  0  0  0  0  0  0  0
    7.4662    1.4059  -16.7208 C   0  0  0  0  0  0  0  0  0  0  0  0
    8.6761    0.8769  -14.6639 C   0  0  0  0  0  0  0  0  0  0  0  0
    5.6323    1.0642  -20.9676 C   0  0  0  0  0  0  0  0  0  0  0  0
    7.7570    0.2998  -21.8950 C   0  0  0  0  0  0  0  0  0  0  0  0
    6.0764   -1.3209  -21.1798 C   0  0  0  0  0  0  0  0  0  0  0  0
    7.0517    8.8533  -20.0914 C   0  0  0  0  0  0  0  0  0  0  0  0
    6.6722   -2.1493  -15.6942 C   0  0  0  0  0  0  0  0  0  0  0  0
    7.0950    2.3616  -17.7737 C   0  0  0  0  0  0  0  0  0  0  0  0
    7.8723   -4.0358  -18.7171 C   0  0  0  0  0  0  0  0  0  0  0  0
    7.2543   -5.0917  -17.8021 C   0  0  0  0  0  0  0  0  0  0  0  0
    7.7010   -2.7053  -17.9679 C   0  0  0  0  0  0  0  0  0  0  0  0
    5.4044    7.8862  -17.2336 C   0  0  0  0  0  0  0  0  0  0  0  0
    6.0013    5.9830  -18.7634 C   0  0  0  0  0  0  0  0  0  0  0  0
    4.4653    6.9426  -16.4718 C   0  0  0  0  0  0  0  0  0  0  0  0
    6.2530   -4.3160  -16.9466 C   0  0  2  0  0  0  0  0  0  0  0  0
    5.0085    5.0891  -17.9817 C   0  0  2  0  0  0  0  0  0  0  0  0
    9.6577    1.2692  -13.5856 C   0  0  0  0  0  0  0  0  0  0  0  0
    2.6992   -3.1856  -17.3551 C   0  0  0  0  0  0  0  0  0  0  0  0
    4.7054    2.1813  -20.5522 C   0  0  0  0  0  0  0  0  0  0  0  0
    4.8898   -4.1495  -17.6493 C   0  0  0  0  0  0  0  0  0  0  0  0
    4.3351    4.0555  -18.8981 C   0  0  2  0  0  0  0  0  0  0  0  0
    5.3631    3.0671  -19.4800 C   0  0  1  0  0  0  0  0  0  0  0  0
    6.8880   -3.0062  -16.7716 N   0  0  0  0  0  0  0  0  0  0  0  0
    6.4699    7.1128  -17.9351 N   0  0  1  0  0  0  0  0  0  0  0  0
    5.8631    2.2121  -18.3962 N   0  0  0  0  0  0  0  0  0  0  0  0
    3.9429    5.9156  -17.3839 N   0  3  0  0  0  0  0  0  0  0  0  0
    6.0427   -2.5311  -14.7138 O   0  0  0  0  0  0  0  0  0  0  0  0
    7.8513    3.2813  -18.0665 O   0  0  0  0  0  0  0  0  0  0  0  0
    8.1095    9.0793  -17.6586 O   0  0  0  0  0  0  0  0  0  0  0  0
    8.7765    7.0843  -19.0887 O   0  0  0  0  0  0  0  0  0  0  0  0
    3.6467    4.7327  -19.9512 O   0  0  0  0  0  0  0  0  0  0  0  0
    4.0521   -3.2598  -16.8833 O   0  0  0  0  0  0  0  0  0  0  0  0
    8.9700    0.5739  -22.4262 F   0  0  0  0  0  0  0  0  0  0  0  0
    5.6674   -2.5994  -21.0337 F   0  0  0  0  0  0  0  0  0  0  0  0
    7.7521    8.0319  -18.6250 S   0  0  0  0  0  0  0  0  0  0  0  0
    5.4677   10.6006  -23.2009 H   0  0  0  0  0  0  0  0  0  0  0  0
    5.1965   11.6001  -20.9381 H   0  0  0  0  0  0  0  0  0  0  0  0
    6.7439    8.4817  -23.4825 H   0  0  0  0  0  0  0  0  0  0  0  0
    6.1967   10.4831  -18.9550 H   0  0  0  0  0  0  0  0  0  0  0  0
    7.7470    7.3606  -21.4990 H   0  0  0  0  0  0  0  0  0  0  0  0
    6.2032   -0.1757  -17.4857 H   0  0  0  0  0  0  0  0  0  0  0  0
    8.3648   -1.1106  -13.8795 H   0  0  0  0  0  0  0  0  0  0  0  0
    8.8307    2.7545  -15.7211 H   0  0  0  0  0  0  0  0  0  0  0  0
    7.2117    2.3771  -21.6549 H   0  0  0  0  0  0  0  0  0  0  0  0
    4.2615   -0.4915  -20.3585 H   0  0  0  0  0  0  0  0  0  0  0  0
    7.9992   -1.8455  -22.0184 H   0  0  0  0  0  0  0  0  0  0  0  0
    8.9381   -4.2484  -18.8872 H   0  0  0  0  0  0  0  0  0  0  0  0
    7.3458   -4.0057  -19.6825 H   0  0  0  0  0  0  0  0  0  0  0  0
    6.7436   -5.8669  -18.3921 H   0  0  0  0  0  0  0  0  0  0  0  0
    8.0249   -5.5591  -17.1715 H   0  0  0  0  0  0  0  0  0  0  0  0
    8.6820   -2.3057  -17.6714 H   0  0  0  0  0  0  0  0  0  0  0  0
    7.1842   -1.9727  -18.6054 H   0  0  0  0  0  0  0  0  0  0  0  0
    4.8229    8.4544  -17.9746 H   0  0  0  0  0  0  0  0  0  0  0  0
    5.8722    8.5827  -16.5222 H   0  0  0  0  0  0  0  0  0  0  0  0
    6.8677    5.3768  -19.0665 H   0  0  0  0  0  0  0  0  0  0  0  0
    5.4994    6.3786  -19.6587 H   0  0  0  0  0  0  0  0  0  0  0  0
    5.0193    6.4575  -15.6547 H   0  0  0  0  0  0  0  0  0  0  0  0
    3.6274    7.5203  -16.0542 H   0  0  0  0  0  0  0  0  0  0  0  0
    6.1152   -4.8188  -15.9780 H   0  0  0  0  0  0  0  0  0  0  0  0
    5.5571    4.5595  -17.1889 H   0  0  0  0  0  0  0  0  0  0  0  0
   10.6767    1.0009  -13.9014 H   0  0  0  0  0  0  0  0  0  0  0  0
    9.6006    2.3543  -13.4150 H   0  0  0  0  0  0  0  0  0  0  0  0
    9.4108    0.7381  -12.6544 H   0  0  0  0  0  0  0  0  0  0  0  0
    2.1273   -2.4907  -16.7226 H   0  0  0  0  0  0  0  0  0  0  0  0
    2.6927   -2.8251  -18.3944 H   0  0  0  0  0  0  0  0  0  0  0  0
    2.2402   -4.1842  -17.3106 H   0  0  0  0  0  0  0  0  0  0  0  0
    4.4661    2.7971  -21.4316 H   0  0  0  0  0  0  0  0  0  0  0  0
    3.7797    1.7489  -20.1445 H   0  0  0  0  0  0  0  0  0  0  0  0
    5.0455   -3.7300  -18.6542 H   0  0  0  0  0  0  0  0  0  0  0  0
    4.3998   -5.1307  -17.7334 H   0  0  0  0  0  0  0  0  0  0  0  0
    3.6142    3.4829  -18.2960 H   0  0  0  0  0  0  0  0  0  0  0  0
    6.1920    3.6307  -19.9331 H   0  0  0  0  0  0  0  0  0  0  0  0
    5.2731    1.4676  -18.0835 H   0  0  0  0  0  0  0  0  0  0  0  0
    3.3240    5.3189  -16.8730 H   0  0  0  0  0  0  0  0  0  0  0  0
    3.4383    6.3678  -18.1194 H   0  0  0  0  0  0  0  0  0  0  0  0
    3.2297    4.0952  -20.5189 H   0  0  0  0  0  0  0  0  0  0  0  0
  1  2  1  0  0  0  0
  1  3  2  0  0  0  0
  2  4  2  0  0  0  0
  3  5  1  0  0  0  0
  4 18  1  0  0  0  0
  5 18  2  0  0  0  0
  6 12  2  0  0  0  0
  6 13  1  0  0  0  0
  7 12  1  0  0  0  0
  7 14  2  0  0  0  0
  8 13  2  0  0  0  0
  8 14  1  0  0  0  0
  9 15  1  0  0  0  0
  9 16  2  0  0  0  0
 10 15  2  0  0  0  0
 10 17  1  0  0  0  0
 11 16  1  0  0  0  0
 11 17  2  0  0  0  0
 12 19  1  0  0  0  0
 13 20  1  0  0  0  0
 14 29  1  0  0  0  0
 15 31  1  0  0  0  0
 16 45  1  0  0  0  0
 17 46  1  0  0  0  0
 18 47  1  0  0  0  0
 19 35  1  0  0  0  0
 19 39  2  0  0  0  0
 20 37  1  0  0  0  0
 20 40  2  0  0  0  0
 21 22  1  0  0  0  0
 21 23  1  0  0  0  0
 22 27  1  0  0  0  0
 23 35  1  0  0  0  0
 24 26  1  0  0  0  0
 24 36  1  0  0  0  0
 25 28  1  0  0  0  0
 25 36  1  0  0  0  0
 26 38  1  0  0  0  0
 27 32  1  0  0  0  0
 27 35  1  0  0  0  0
 28 33  1  0  0  0  0
 28 38  1  0  0  0  0
 30 44  1  0  0  0  0
 31 34  1  0  0  0  0
 32 44  1  0  0  0  0
 33 34  1  0  0  0  0
 33 43  1  0  0  0  0
 34 37  1  0  0  0  0
 36 47  1  0  0  0  0
 41 47  2  0  0  0  0
 42 47  2  0  0  0  0
  1 48  1  0  0  0  0
  2 49  1  0  0  0  0
  3 50  1  0  0  0  0
  4 51  1  0  0  0  0
  5 52  1  0  0  0  0
  6 53  1  0  0  0  0
  7 54  1  0  0  0  0
  8 55  1  0  0  0  0
  9 56  1  0  0  0  0
 10 57  1  0  0  0  0
 11 58  1  0  0  0  0
 21 59  1  0  0  0  0
 21 60  1  0  0  0  0
 22 61  1  0  0  0  0
 22 62  1  0  0  0  0
 23 63  1  0  0  0  0
 23 64  1  0  0  0  0
 24 65  1  0  0  0  0
 24 66  1  0  0  0  0
 25 67  1  0  0  0  0
 25 68  1  0  0  0  0
 26 69  1  0  0  0  0
 26 70  1  0  0  0  0
 27 71  1  0  0  0  0
 28 72  1  0  0  0  0
 29 73  1  0  0  0  0
 29 74  1  0  0  0  0
 29 75  1  0  0  0  0
 30 76  1  0  0  0  0
 30 77  1  0  0  0  0
 30 78  1  0  0  0  0
 31 79  1  0  0  0  0
 31 80  1  0  0  0  0
 32 81  1  0  0  0  0
 32 82  1  0  0  0  0
 33 83  1  0  0  0  0
 34 84  1  0  0  0  0
 37 85  1  0  0  0  0
 38 86  1  0  0  0  0
 38 87  1  0  0  0  0
 43 88  1  0  0  0  0
M  CHG  1  38   1
M  END
> <OMEGA_C>
bPC8QEnXIUHDubLBigi4QJfmKkEmeajB+xHUQAOmDkHhALTB/D7KQLTNIEFkfp/B/1PmQCaFBEHQ
BKvB+L3cQLTJ6D2ysIXBJ+ABQU7s077gqmrBCvAFQV2A4z9MP3vBNc/cQC0GrT90KazBrD2nQNCG
i75iVabB9QLrQJjShL+N0a3BMZHnQHBhTL+2GHvBXuvuQO/1sz8zxIXBLdEKQQR9YD9dn2rBBjy0
QAI3iD+ivafBhDn4QJeEmT7uKK/B0HHCQCcSqb9HcKnBiafhQB+nDUE/u6DBTILVQGyNCcCJG3vB
dwrjQK0jF0B0MI7BNOr7QPQkgcC5vJXBoCPoQC7vosC6ao7BOG72QBgjLcBOvo/BEvGsQHJb/EB+
3onBfwrAQNZ0v0CEG5bBeuOOQPkp3kAtxoPBrRjIQIMcisCOkofBe0WgQDjaokBu2o/B8IUaQblz
oj9vXlnBi78sQEHgS8BU14rBXJKWQKaZC0DaaqTBJHmcQHnIhMC5MY3BR7mKQIzGgUBQL5fB1p6r
QPJKREAN15vB1mrcQDpmQMAnLIbBsQnPQPWb40Ahe4/BWp67QISSDUBeK5PBs1d8QHxMvUA9EovB
GV7BQE79IcCra2vBND77QH0AUkAxiJDBZsABQfREEUHdRI3BfWwMQZmy4kCatZjB5WJpQGZyl0Aa
nJ/BLauBQPSfUMD+EIfBRYUPQYjoEj/FaLPBe1u1QGpcJsD7RKjBNBH4QI2CAEEIAJXBO/euQPib
KUGCm7nBjUmmQASaOUE2gafB2M3XQOm0B0FA3LvBYkvGQLG6J0HRo5fBsOf3QB6K60D0/avB9IDG
QGfwM76t4ovBJNYFQTQnjr9AEl7BhkoNQQVKMECRiXvBN8bmQPQhGEBSPa3BT16IQPCm+74t3qLB
Xfn/QKQ47L+vJbDBcwIPQTXzh8ALGZfBFhHrQMougMDAdZ3BO8vXQOy9u8AMI5PBMGYAQTzkscAv
X4nBhOkKQWSRE8ARX43B4uTlQP+C/L/Z15TBVlWaQB5FB0Hsy4/B8+i7QKFSCUGRLYTBDcTbQMMO
rEA7iJjBs/qvQI8dzEAaRZ3Bgp6gQHKjzkCieXrB/idoQEKm8EANb4DBGrDDQMczmsDBpX/B/dOx
QGrnkUDbgonBp9MqQRMegD8FbF7B3JsZQaetFkDOo1bBw5IWQTH2PD9ieErBlCUIQAtoH8DXx4XB
/1QsQDLONMCwJ5PB6F4PQBvlhcAJfIrBL+qOQDIEM0D5c6vBo+ZxQMTb3z/nJ6HBznShQOm4bsDC
O5XBAsuMQLsupMAB3o3BdU9nQCDoXkBKXpLBxiTGQIxdaEAOd5/Bbb2oQFHbuz8Dq5DBlLxUQNA0
qkDY+4bB2QxcQO/Ey0B99JDBdLNOQOcLg0ClJqTBO5y8QI7eIUEtjLLBWR/UQMzODkEE4bPB55u3
QL/PKkHBRajBWKDmQGitBEGE7KrBtBHKQMe2IEHLUp/BIincQDRY5z1cloXB47ABQUiI0b5qgGrB
FpcFQSoc5D8wHHvB9G7cQMABrT8r96vBipemQO3bjb6tYKbBR0PqQOKWhL/r9K3B7TznQMR4TL9J
63rBykHuQJrvsz9QsIXBq4YKQbBeYj+UdmrB59GzQG+7hz8JlKfBBbD3QG3Lmj7mG6/BUZrBQHhJ
qb8vpanBmMzhQBKsDUHRm6DBsc7VQFsfCsA9CHvBVojiQHuqFkB8K47Bz5j8QKFRf8CB4ZXBYgzp
QMYcosDjso7BSSH1QAF5KsDc94/BTLCtQKEe/ED5konBSCPAQO2Av0BvCpbBKMWOQGgE3kAWuYPB
UeLIQCEkisD1sYfB17SfQFo9o0BU6I/Bd0IaQdi7oz96P1nBieItQPA0TMB/wIrBcgeWQHIeC0Cj
QKTBMeWcQE1FhcBFKY3BSyiKQERRgkAkR5fB/v6qQP2ARECvv5vBC5TcQBL0P8D0PYbBiXLPQEZp
40DnWI/BwaK6QO+XDkA89JLB8aJ7QHIwvkCWQIvBOs7CQFNCJMCvKWvBd3z7QFl4T0ADzJDBmukB
QRk7EUEcKY3BjpUMQTW24kAno5jB+dppQLkCmEC605/BpcOBQJ1qVMA0uobBwTsPQfxuFD98XbPB
TTS0QK9+JsBKuajB62D4QE16AEED5ZTBg2uuQFOgKUGiZ7nBiPbXQBj3B0EgwbvB95mlQOJrOUEw
Q6fBRoL4QPAP7EDz8KvBXA/GQOqOJ0EfdJfBrMrFQK3fNb7iv4vB27cFQahejb/r513BWuMMQfyx
MEC0bXvBwYvmQForGEC556zBn66HQGh6/77f8aLBFCP/QIm667/GYLDBS4UPQR9mhcBo/ZbBKqLs
QAWDfsAnuZ3BONDYQJilusDNh5PBiu4AQfRNscAIv4nBMPQJQZQJDcD+zI3B+sziQJ0l/L8pCJXB
M5qbQMSyB0GlYo/Bdwa9QHqyCEFitIPB36zbQCu9q0DhaZjB5oywQL1+zEA/O53Be+GfQDaTzUBe
cnrBxFNoQP+58EDVW4DBHCHFQCijmsDY9H/BKrqwQF8mkkCKf4nB8o8qQbPGgT/3V17Bi00ZQZRO
F0CVg1bBTF8WQdpPPz8pV0rB5bcIQKQuIsCPb4XBSrIvQONzMMAI1pLBpJgPQHTahcA8EovBdRSO
QCIfMkDJTavBuidxQGZa3j987qDB+SWhQJWJbcDfG5XBDfSNQB/0pMC4Bo7BVSllQDy+YEDuhpLB
n7fFQODaZ0DWZJ/ByCenQK+UwT8MN5DBni5SQGthq0DVX4fBaFxdQDh9zUAiLJHBuDdPQNmkg0DN
YaTB

> <OMEGA_E>
wAp3PSA+bz0=

> <OMEGA_NBR>
      6218

$$$$
50162114
  -OEChem-04172616093D

 88 92  0     1  0  0  0  0  0999 V2000
    5.7536   10.7205  -20.9806 C   0  0  0  0  0  0  0  0  0  0  0  0
    6.3345   10.0782  -19.8712 C   0  0  0  0  0  0  0  0  0  0  0  0
    5.8846   10.1613  -22.2670 C   0  0  0  0  0  0  0  0  0  0  0  0
    6.9019    0.1165  -16.7104 C   0  0  0  0  0  0  0  0  0  0  0  0
    8.1435   -0.4028  -14.6763 C   0  0  0  0  0  0  0  0  0  0  0  0
    8.3797    1.7867  -15.7202 C   0  0  0  0  0  0  0  0  0  0  0  0
    6.8825    1.3244  -21.5187 C   0  0  0  0  0  0  0  0  0  0  0  0
    5.1798   -0.2813  -20.8154 C   0  0  0  0  0  0  0  0  0  0  0  0
    7.2925   -1.0692  -21.7437 C   0  0  0  0  0  0  0  0  0  0  0  0
    7.1715    8.3091  -21.3336 C   0  0  0  0  0  0  0  0  0  0  0  0
    7.2538   -0.7929  -15.6934 C   0  0  0  0  0  0  0  0  0  0  0  0
    7.4657    1.4109  -16.7291 C   0  0  0  0  0  0  0  0  0  0  0  0
    8.6982    0.8896  -14.6818 C   0  0  0  0  0  0  0  0  0  0  0  0
    5.6078    1.0506  -20.9756 C   0  0  0  0  0  0  0  0  0  0  0  0
    7.7267    0.2637  -21.8955 C   0  0  0  0  0  0  0  0  0  0  0  0
    6.0158   -1.3388  -21.2094 C   0  0  0  0  0  0  0  0  0  0  0  0
    7.0505    8.8746  -20.0442 C   0  0  0  0  0  0  0  0  0  0  0  0
    6.5954    8.9573  -22.4442 C   0  0  0  0  0  0  0  0  0  0  0  0
    6.6937   -2.1467  -15.6832 C   0  0  0  0  0  0  0  0  0  0  0  0
    7.0877    2.3628  -17.7859 C   0  0  0  0  0  0  0  0  0  0  0  0
    7.8362   -4.0370  -18.7249 C   0  0  0  0  0  0  0  0  0  0  0  0
    7.2359   -5.0900  -17.7957 C   0  0  0  0  0  0  0  0  0  0  0  0
    7.6884   -2.7064  -17.9715 C   0  0  0  0  0  0  0  0  0  0  0  0
    5.4077    7.8685  -17.2123 C   0  0  0  0  0  0  0  0  0  0  0  0
    5.9999    5.9888  -18.7750 C   0  0  0  0  0  0  0  0  0  0  0  0
    4.4604    6.9167  -16.4720 C   0  0  0  0  0  0  0  0  0  0  0  0
    6.2460   -4.3120  -16.9301 C   0  0  2  0  0  0  0  0  0  0  0  0
    5.0035    5.0881  -18.0068 C   0  0  2  0  0  0  0  0  0  0  0  0
    9.6876    1.2880  -13.6119 C   0  0  0  0  0  0  0  0  0  0  0  0
    2.6870   -3.1885  -17.2956 C   0  0  0  0  0  0  0  0  0  0  0  0
    4.6922    2.1771  -20.5647 C   0  0  0  0  0  0  0  0  0  0  0  0
    4.8737   -4.1508  -17.6149 C   0  0  0  0  0  0  0  0  0  0  0  0
    4.3311    4.0631  -18.9310 C   0  0  2  0  0  0  0  0  0  0  0  0
    5.3569    3.0655  -19.4990 C   0  0  1  0  0  0  0  0  0  0  0  0
    6.8804   -2.9993  -16.7694 N   0  0  0  0  0  0  0  0  0  0  0  0
    6.4718    7.1032  -17.9251 N   0  0  1  0  0  0  0  0  0  0  0  0
    5.8531    2.2147  -18.4063 N   0  0  0  0  0  0  0  0  0  0  0  0
    3.9380    5.9098  -17.4052 N   0  3  0  0  0  0  0  0  0  0  0  0
    6.0996   -2.5372  -14.6843 O   0  0  0  0  0  0  0  0  0  0  0  0
    7.8463    3.2773  -18.0892 O   0  0  0  0  0  0  0  0  0  0  0  0
    8.1140    9.0640  -17.6152 O   0  0  0  0  0  0  0  0  0  0  0  0
    8.7775    7.0920  -19.0794 O   0  0  0  0  0  0  0  0  0  0  0  0
    3.6586    4.7471  -19.9911 O   0  0  0  0  0  0  0  0  0  0  0  0
    4.0431   -3.2686  -16.8332 O   0  0  0  0  0  0  0  0  0  0  0  0
    8.9487    0.5257  -22.4116 F   0  0  0  0  0  0  0  0  0  0  0  0
    5.5841   -2.6123  -21.0832 F   0  0  0  0  0  0  0  0  0  0  0  0
    7.7547    8.0319  -18.5972 S   0  0  0  0  0  0  0  0  0  0  0  0
    6.7619    8.2700  -24.0407 Cl  0  0  0  0  0  0  0  0  0  0  0  0
    5.2073   11.6423  -20.8457 H   0  0  0  0  0  0  0  0  0  0  0  0
    6.2321   10.5074  -18.8855 H   0  0  0  0  0  0  0  0  0  0  0  0
    5.4400   10.6557  -23.1180 H   0  0  0  0  0  0  0  0  0  0  0  0
    6.1997   -0.1769  -17.4767 H   0  0  0  0  0  0  0  0  0  0  0  0
    8.4012   -1.0968  -13.8899 H   0  0  0  0  0  0  0  0  0  0  0  0
    8.8360    2.7653  -15.7448 H   0  0  0  0  0  0  0  0  0  0  0  0
    7.2087    2.3463  -21.6447 H   0  0  0  0  0  0  0  0  0  0  0  0
    4.2093   -0.4895  -20.3899 H   0  0  0  0  0  0  0  0  0  0  0  0
    7.9380   -1.8840  -22.0368 H   0  0  0  0  0  0  0  0  0  0  0  0
    7.7056    7.3801  -21.4677 H   0  0  0  0  0  0  0  0  0  0  0  0
    8.8967   -4.2542  -18.9204 H   0  0  0  0  0  0  0  0  0  0  0  0
    7.2869   -4.0045  -19.6774 H   0  0  0  0  0  0  0  0  0  0  0  0
    6.7185   -5.8699  -18.3738 H   0  0  0  0  0  0  0  0  0  0  0  0
    8.0173   -5.5518  -17.1743 H   0  0  0  0  0  0  0  0  0  0  0  0
    8.6769   -2.3207  -17.6816 H   0  0  0  0  0  0  0  0  0  0  0  0
    7.1767   -1.9655  -18.6034 H   0  0  0  0  0  0  0  0  0  0  0  0
    4.8321    8.4541  -17.9443 H   0  0  0  0  0  0  0  0  0  0  0  0
    5.8767    8.5486  -16.4860 H   0  0  0  0  0  0  0  0  0  0  0  0
    6.8640    5.3840  -19.0875 H   0  0  0  0  0  0  0  0  0  0  0  0
    5.5002    6.4012  -19.6639 H   0  0  0  0  0  0  0  0  0  0  0  0
    5.0079    6.4140  -15.6612 H   0  0  0  0  0  0  0  0  0  0  0  0
    3.6233    7.4909  -16.0482 H   0  0  0  0  0  0  0  0  0  0  0  0
    6.1222   -4.8106  -15.9574 H   0  0  0  0  0  0  0  0  0  0  0  0
    5.5490    4.5514  -17.2166 H   0  0  0  0  0  0  0  0  0  0  0  0
   10.7049    1.0230  -13.9354 H   0  0  0  0  0  0  0  0  0  0  0  0
    9.6277    2.3733  -13.4431 H   0  0  0  0  0  0  0  0  0  0  0  0
    9.4503    0.7580  -12.6776 H   0  0  0  0  0  0  0  0  0  0  0  0
    2.1196   -2.5001  -16.6519 H   0  0  0  0  0  0  0  0  0  0  0  0
    2.6740   -2.8168  -18.3308 H   0  0  0  0  0  0  0  0  0  0  0  0
    2.2275   -4.1872  -17.2588 H   0  0  0  0  0  0  0  0  0  0  0  0
    4.4562    2.7894  -21.4475 H   0  0  0  0  0  0  0  0  0  0  0  0
    3.7639    1.7545  -20.1528 H   0  0  0  0  0  0  0  0  0  0  0  0
    5.0138   -3.7264  -18.6200 H   0  0  0  0  0  0  0  0  0  0  0  0
    4.3876   -5.1342  -17.6967 H   0  0  0  0  0  0  0  0  0  0  0  0
    3.5984    3.4970  -18.3372 H   0  0  0  0  0  0  0  0  0  0  0  0
    6.1891    3.6208  -19.9563 H   0  0  0  0  0  0  0  0  0  0  0  0
    5.2590    1.4764  -18.0869 H   0  0  0  0  0  0  0  0  0  0  0  0
    3.3110    5.3087  -16.9098 H   0  0  0  0  0  0  0  0  0  0  0  0
    3.4427    6.3778  -18.1371 H   0  0  0  0  0  0  0  0  0  0  0  0
    3.2423    4.1135  -20.5635 H   0  0  0  0  0  0  0  0  0  0  0  0
  1  2  2  0  0  0  0
  1  3  1  0  0  0  0
  2 17  1  0  0  0  0
  3 18  2  0  0  0  0
  4 11  2  0  0  0  0
  4 12  1  0  0  0  0
  5 11  1  0  0  0  0
  5 13  2  0  0  0  0
  6 12  2  0  0  0  0
  6 13  1  0  0  0  0
  7 14  1  0  0  0  0
  7 15  2  0  0  0  0
  8 14  2  0  0  0  0
  8 16  1  0  0  0  0
  9 15  1  0  0  0  0
  9 16  2  0  0  0  0
 10 17  2  0  0  0  0
 10 18  1  0  0  0  0
 11 19  1  0  0  0  0
 12 20  1  0  0  0  0
 13 29  1  0  0  0  0
 14 31  1  0  0  0  0
 15 45  1  0  0  0  0
 16 46  1  0  0  0  0
 17 47  1  0  0  0  0
 18 48  1  0  0  0  0
 19 35  1  0  0  0  0
 19 39  2  0  0  0  0
 20 37  1  0  0  0  0
 20 40  2  0  0  0  0
 21 22  1  0  0  0  0
 21 23  1  0  0  0  0
 22 27  1  0  0  0  0
 23 35  1  0  0  0  0
 24 26  1  0  0  0  0
 24 36  1  0  0  0  0
 25 28  1  0  0  0  0
 25 36  1  0  0  0  0
 26 38  1  0  0  0  0
 27 32  1  0  0  0  0
 27 35  1  0  0  0  0
 28 33  1  0  0  0  0
 28 38  1  0  0  0  0
 30 44  1  0  0  0  0
 31 34  1  0  0  0  0
 32 44  1  0  0  0  0
 33 34  1  0  0  0  0
 33 43  1  0  0  0  0
 34 37  1  0  0  0  0
 36 47  1  0  0  0  0
 41 47  2  0  0  0  0
 42 47  2  0  0  0  0
  1 49  1  0  0  0  0
  2 50  1  0  0  0  0
  3 51  1  0  0  0  0
  4 52  1  0  0  0  0
  5 53  1  0  0  0  0
  6 54  1  0  0  0  0
  7 55  1  0  0  0  0
  8 56  1  0  0  0  0
  9 57  1  0  0  0  0
 10 58  1  0  0  0  0
 21 59  1  0  0  0  0
 21 60  1  0  0  0  0
 22 61  1  0  0  0  0
 22 62  1  0  0  0  0
 23 63  1  0  0  0  0
 23 64  1  0  0  0  0
 24 65  1  0  0  0  0
 24 66  1  0  0  0  0
 25 67  1  0  0  0  0
 25 68  1  0  0  0  0
 26 69  1  0  0  0  0
 26 70  1  0  0  0  0
 27 71  1  0  0  0  0
 28 72  1  0  0  0  0
 29 73  1  0  0  0  0
 29 74  1  0  0  0  0
 29 75  1  0  0  0  0
 30 76  1  0  0  0  0
 30 77  1  0  0  0  0
 30 78  1  0  0  0  0
 31 79  1  0  0  0  0
 31 80  1  0  0  0  0
 32 81  1  0  0  0  0
 32 82  1  0  0  0  0
 33 83  1  0  0  0  0
 34 84  1  0  0  0  0
 37 85  1  0  0  0  0
 38 86  1  0  0  0  0
 38 87  1  0  0  0  0
 43 88  1  0  0  0  0
M  CHG  1  38   1
M  END
> <OMEGA_C>
ux24QDKHK0FO2KfBOLTKQG9AIUFD+J7Bz068QNqUIkHBIrLBJNzcQGSW7j3UroXB+ksCQY07zr4U
0mrBXhMGQe2z5D/IhXvBVj3cQASHqT9dJqzBKMGlQIACkL4AhqbB4FvpQMfciL8P863BTX3lQB3y
BEEmq6rBGR/oQOr6Sr8+GHvBHOfuQJWXtD9G1YXBACwLQbq8Yz+s6GrB03KzQKB4hj/yzafBuUD3
QIcChz7oKa/Bk4HAQD1cq7/RrKnBpZ3hQHn+DUGNWqDB5w3TQCJRD0G9jbPBIDPWQG5jCcBh7nrB
uc7iQNg4F0BwSY7BP8L6QGUvgcCVzJXBkIznQFLhosCiXY7BMwf2QPA0LcCwxY/BlQutQPLK+0DX
sonBO/+/QB6kv0AqM5bBNLuOQG1V3UCzxoPB597HQET8icDVcIfBnBygQB3SokDaDZDBNgAbQV3d
pD85ylnBHvcrQOgPTMBbXYrBQSaWQAtWC0BphKTB//SbQEzThMBd64zBQJiKQBkFgkDCcpfBIGyr
QGMwREAG/pvBNSzcQKb0P8DEJ4bB+RjPQAdN40CBZo/BRky7QJq9DUAZQJPB7gh8QGodvUDdPYvB
GDDDQCphIsC48mrBIxX7QDS/UUCWtpDB+NIBQTYGEUHZ64zBnHAMQbfx4kCVopjBTidqQEPol0C2
7Z/B+WCBQH8xUcBpqobBDi4PQZKWBj/7SrPB/rCyQLMvJ8BpqqjB0Sb4QKuCAEESx5TB5GHYQAlS
BEFYU8DBOKKmQO9GOkEUxKbB/mzHQF8eKEFxFZfBUhSuQMB9KkG68bjBT2TGQMsoNb5c0IvBL2sG
Qb1ijL/vPF7BZGANQbT6MECG6nvBVa3mQEkpFkBLKK3BY7KGQKSd+r6FHqPBGAT+QLMl8b9US7DB
jZT2QGQp7EDwvavB1FgOQZAiiMD8XJfBpS7pQL8kgMBKa53BK/7WQNvVu8B+/ZLB0UYAQZeoscD3
ZInBqNQKQWOGFMDnc43BPqflQCqV+7/F05TBQ6CaQBVEB0HjjY/B+w28QBfHCEFq44PBrKXbQBxK
rEA+s5jBswGwQHbWzEC8T53Bn0CgQBc/zUAtlHrBf+RnQJm170C0YoDBAOnDQEPwmcB8UX/BMJGx
QP6kkUCeu4nBYkcrQR3wgj+J917B9QoaQa7kF0D8FlfBbjQXQdkNQj+E10rBSagHQJ4BIMAjN4XB
ZCMrQApHNMCHpZLBaY8OQOf9hcAAEorBZ5mOQN6FMkB9lKvB9+JwQAGT4D/8OKHBQXGgQPB8bsDO
9ZTBWmeMQFVLpMDKko3BkExmQELOX0CIspLBHQ3GQL+7Z0B4pp/Bf0moQEH8vD/fsZDB++dTQIvg
qUA/R4fBEVVcQFMXzECuGJHBq4FPQHahg0D8gaTB

> <OMEGA_E>
oM09PQ==

> <OMEGA_NBR>
      7980

$$$$
50162118
  -OEChem-04172616093D

 80 83  0     1  0  0  0  0  0999 V2000
    5.6534   10.8097  -20.7816 C   0  0  0  0  0  0  0  0  0  0  0  0
    5.7171   10.2967  -22.0915 C   0  0  0  0  0  0  0  0  0  0  0  0
    6.2865   10.1268  -19.7273 C   0  0  0  0  0  0  0  0  0  0  0  0
    6.8672    1.2908  -21.6390 C   0  0  0  0  0  0  0  0  0  0  0  0
    5.2827   -0.3110  -20.6933 C   0  0  0  0  0  0  0  0  0  0  0  0
    7.0471    8.4122  -21.2915 C   0  0  0  0  0  0  0  0  0  0  0  0
    7.3657   -1.0971  -21.6901 C   0  0  0  0  0  0  0  0  0  0  0  0
    6.3976    9.0864  -22.3460 C   0  0  0  0  0  0  0  0  0  0  0  0
    5.6384    1.0190  -21.0002 C   0  0  0  0  0  0  0  0  0  0  0  0
    7.7286    0.2328  -21.9854 C   0  0  0  0  0  0  0  0  0  0  0  0
    6.1452   -1.3675  -21.0388 C   0  0  0  0  0  0  0  0  0  0  0  0
    6.9956    8.9336  -19.9808 C   0  0  0  0  0  0  0  0  0  0  0  0
    8.4403    0.2848  -14.9175 C   0  0  0  0  0  0  0  0  0  0  0  0
    6.9321    2.3500  -17.6631 C   0  0  0  0  0  0  0  0  0  0  0  0
    8.1811    1.6788  -15.4938 C   0  0  0  0  0  0  0  0  0  0  0  0
    5.4361    7.8366  -17.2007 C   0  0  0  0  0  0  0  0  0  0  0  0
    7.3046    0.0353  -16.9375 C   0  0  0  0  0  0  0  0  0  0  0  0
    6.0357    5.9650  -18.7765 C   0  0  0  0  0  0  0  0  0  0  0  0
    4.4932    6.8787  -16.4664 C   0  0  0  0  0  0  0  0  0  0  0  0
    7.0340    1.4356  -16.4529 C   0  0  2  0  0  0  0  0  0  0  0  0
    5.0293    5.0649  -18.0224 C   0  0  2  0  0  0  0  0  0  0  0  0
    6.4844    8.5453  -23.7563 C   0  0  0  0  0  0  0  0  0  0  0  0
    5.6404   -4.4015  -17.0544 C   0  0  0  0  0  0  0  0  0  0  0  0
    4.7202    2.1546  -20.6062 C   0  0  0  0  0  0  0  0  0  0  0  0
    6.3461   -3.3203  -16.2261 C   0  0  0  0  0  0  0  0  0  0  0  0
    7.6802   -2.9310  -16.8888 C   0  0  0  0  0  0  0  0  0  0  0  0
    8.4965   -1.9893  -15.9710 C   0  0  0  0  0  0  0  0  0  0  0  0
    4.3558    4.0510  -18.9641 C   0  0  2  0  0  0  0  0  0  0  0  0
    5.3753    3.0411  -19.5280 C   0  0  1  0  0  0  0  0  0  0  0  0
    7.8741   -0.6680  -15.7883 N   0  0  0  0  0  0  0  0  0  0  0  0
    6.5023    7.0820  -17.9230 N   0  0  1  0  0  0  0  0  0  0  0  0
    5.7894    2.1868  -18.4217 N   0  0  0  0  0  0  0  0  0  0  0  0
    3.9671    5.8836  -17.4105 N   0  3  0  0  0  0  0  0  0  0  0  0
    9.1493    0.0617  -13.9437 O   0  0  0  0  0  0  0  0  0  0  0  0
    7.8232    3.1353  -17.9709 O   0  0  0  0  0  0  0  0  0  0  0  0
    8.1620    9.0247  -17.5960 O   0  0  0  0  0  0  0  0  0  0  0  0
    8.7617    7.1160  -19.1698 O   0  0  0  0  0  0  0  0  0  0  0  0
    3.6944    4.7415  -20.0230 O   0  0  0  0  0  0  0  0  0  0  0  0
    8.9057    0.4940  -22.5973 F   0  0  0  0  0  0  0  0  0  0  0  0
    5.8056   -2.6403  -20.7347 F   0  0  0  0  0  0  0  0  0  0  0  0
    7.7617    8.0343  -18.6048 S   0  0  0  0  0  0  0  0  0  0  0  0
    5.1185   11.7275  -20.5865 H   0  0  0  0  0  0  0  0  0  0  0  0
    5.2444   10.8302  -22.9028 H   0  0  0  0  0  0  0  0  0  0  0  0
    6.2298   10.5166  -18.7217 H   0  0  0  0  0  0  0  0  0  0  0  0
    7.1465    2.3100  -21.8619 H   0  0  0  0  0  0  0  0  0  0  0  0
    4.3482   -0.5183  -20.1931 H   0  0  0  0  0  0  0  0  0  0  0  0
    7.5845    7.4960  -21.4868 H   0  0  0  0  0  0  0  0  0  0  0  0
    8.0234   -1.9092  -21.9629 H   0  0  0  0  0  0  0  0  0  0  0  0
    7.8935    2.3874  -14.7032 H   0  0  0  0  0  0  0  0  0  0  0  0
    9.0667    2.0599  -16.0233 H   0  0  0  0  0  0  0  0  0  0  0  0
    4.8571    8.4265  -17.9265 H   0  0  0  0  0  0  0  0  0  0  0  0
    5.9046    8.5121  -16.4697 H   0  0  0  0  0  0  0  0  0  0  0  0
    6.3707   -0.4477  -17.2607 H   0  0  0  0  0  0  0  0  0  0  0  0
    8.0191    0.0485  -17.7738 H   0  0  0  0  0  0  0  0  0  0  0  0
    6.9023    5.3586  -19.0788 H   0  0  0  0  0  0  0  0  0  0  0  0
    5.5469    6.3776  -19.6714 H   0  0  0  0  0  0  0  0  0  0  0  0
    5.0442    6.3663  -15.6640 H   0  0  0  0  0  0  0  0  0  0  0  0
    3.6583    7.4482  -16.0321 H   0  0  0  0  0  0  0  0  0  0  0  0
    6.0836    1.4562  -15.8994 H   0  0  0  0  0  0  0  0  0  0  0  0
    5.5691    4.5143  -17.2379 H   0  0  0  0  0  0  0  0  0  0  0  0
    7.3729    8.9601  -24.2547 H   0  0  0  0  0  0  0  0  0  0  0  0
    6.5608    7.4484  -23.7240 H   0  0  0  0  0  0  0  0  0  0  0  0
    5.5822    8.8337  -24.3157 H   0  0  0  0  0  0  0  0  0  0  0  0
    4.6895   -4.6715  -16.5718 H   0  0  0  0  0  0  0  0  0  0  0  0
    5.4420   -4.0172  -18.0658 H   0  0  0  0  0  0  0  0  0  0  0  0
    6.2838   -5.2913  -17.1199 H   0  0  0  0  0  0  0  0  0  0  0  0
    4.5034    2.7673  -21.4937 H   0  0  0  0  0  0  0  0  0  0  0  0
    3.7822    1.7387  -20.2097 H   0  0  0  0  0  0  0  0  0  0  0  0
    5.6999   -2.4326  -16.1609 H   0  0  0  0  0  0  0  0  0  0  0  0
    6.5416   -3.7067  -15.2149 H   0  0  0  0  0  0  0  0  0  0  0  0
    8.2656   -3.8418  -17.0829 H   0  0  0  0  0  0  0  0  0  0  0  0
    7.4741   -2.4179  -17.8397 H   0  0  0  0  0  0  0  0  0  0  0  0
    8.5990   -2.4659  -14.9849 H   0  0  0  0  0  0  0  0  0  0  0  0
    9.4929   -1.8472  -16.4149 H   0  0  0  0  0  0  0  0  0  0  0  0
    3.6141    3.4883  -18.3783 H   0  0  0  0  0  0  0  0  0  0  0  0
    6.2348    3.5774  -19.9566 H   0  0  0  0  0  0  0  0  0  0  0  0
    5.1949    1.4162  -18.1922 H   0  0  0  0  0  0  0  0  0  0  0  0
    3.3386    5.2790  -16.9212 H   0  0  0  0  0  0  0  0  0  0  0  0
    3.4726    6.3613  -18.1366 H   0  0  0  0  0  0  0  0  0  0  0  0
    3.2802    4.1123  -20.6018 H   0  0  0  0  0  0  0  0  0  0  0  0
  1  2  1  0  0  0  0
  1  3  2  0  0  0  0
  2  8  2  0  0  0  0
  3 12  1  0  0  0  0
  4  9  1  0  0  0  0
  4 10  2  0  0  0  0
  5  9  2  0  0  0  0
  5 11  1  0  0  0  0
  6  8  1  0  0  0  0
  6 12  2  0  0  0  0
  7 10  1  0  0  0  0
  7 11  2  0  0  0  0
  8 22  1  0  0  0  0
  9 24  1  0  0  0  0
 10 39  1  0  0  0  0
 11 40  1  0  0  0  0
 12 41  1  0  0  0  0
 13 15  1  0  0  0  0
 13 30  1  0  0  0  0
 13 34  2  0  0  0  0
 14 20  1  0  0  0  0
 14 32  1  0  0  0  0
 14 35  2  0  0  0  0
 15 20  1  0  0  0  0
 16 19  1  0  0  0  0
 16 31  1  0  0  0  0
 17 20  1  0  0  0  0
 17 30  1  0  0  0  0
 18 21  1  0  0  0  0
 18 31  1  0  0  0  0
 19 33  1  0  0  0  0
 21 28  1  0  0  0  0
 21 33  1  0  0  0  0
 23 25  1  0  0  0  0
 24 29  1  0  0  0  0
 25 26  1  0  0  0  0
 26 27  1  0  0  0  0
 27 30  1  0  0  0  0
 28 29  1  0  0  0  0
 28 38  1  0  0  0  0
 29 32  1  0  0  0  0
 31 41  1  0  0  0  0
 36 41  2  0  0  0  0
 37 41  2  0  0  0  0
  1 42  1  0  0  0  0
  2 43  1  0  0  0  0
  3 44  1  0  0  0  0
  4 45  1  0  0  0  0
  5 46  1  0  0  0  0
  6 47  1  0  0  0  0
  7 48  1  0  0  0  0
 15 49  1  0  0  0  0
 15 50  1  0  0  0  0
 16 51  1  0  0  0  0
 16 52  1  0  0  0  0
 17 53  1  0  0  0  0
 17 54  1  0  0  0  0
 18 55  1  0  0  0  0
 18 56  1  0  0  0  0
 19 57  1  0  0  0  0
 19 58  1  0  0  0  0
 20 59  1  0  0  0  0
 21 60  1  0  0  0  0
 22 61  1  0  0  0  0
 22 62  1  0  0  0  0
 22 63  1  0  0  0  0
 23 64  1  0  0  0  0
 23 65  1  0  0  0  0
 23 66  1  0  0  0  0
 24 67  1  0  0  0  0
 24 68  1  0  0  0  0
 25 69  1  0  0  0  0
 25 70  1  0  0  0  0
 26 71  1  0  0  0  0
 26 72  1  0  0  0  0
 27 73  1  0  0  0  0
 27 74  1  0  0  0  0
 28 75  1  0  0  0  0
 29 76  1  0  0  0  0
 32 77  1  0  0  0  0
 33 78  1  0  0  0  0
 33 79  1  0  0  0  0
 38 80  1  0  0  0  0
M  CHG  1  33   1
M  END
> <OMEGA_C>
1Oi0QJv0LEG5QKbBUvK2QCm/JEFMu7DBWivJQGcHIkF80Z3BJMDbQIw6pT+iHK3BhgupQDA5n77e
i6XB+oHhQFaYBkHtVKrBL7TrQEltjL9Gha3BDbnMQOFhEUGoxLLBJW60QHFugj9kAKjBUFD3QD5b
bj4v4q/BGKXEQEELr7+OT6jB5tvfQCHwDkG42J/BgAsHQZnSkT5Frm7BwNPdQL1lFkAZTo3B2uUC
Qc7h1j925nfBV/StQKTF+kDvmonBZb/pQMLJED0OgIfBTyTBQAXhvkBeNpbBGsiPQPId3EAju4PB
UxbhQLfCtz+Hn4PBCvCgQKMTokDYLZDB9X/PQIi5CEHqDL7BS360QELZjMBwb4jBIQyXQIvlCUB2
2aTBphPLQIiAVMAaz4HBKsT1QNKUO8A8HIfByvEHQeeh/r83iX/BEGOLQNChgUCOtpfBiwKsQBqi
QkBxOZzBUvj7QJX/Kr8CnXzB1xLQQBSg4kBYYo/BB0O5QJr0C0CRX5PBK+V9QKNGvECjSIvBZGMS
QZTgfD1qGV/B4Vf6QI2pSEB0xI/Bs5cCQfxkEEGaxIzB0S8MQSO240CpW5nB/nBsQD26l0AlL6DB
0n0OQSTn/D43x7TBZ8e5QIX6KMCR4KXB3l/4QKSMAEGU1pTBI8ujQKejO0EhsaTBxdGnQFtILUH6
OLfBNlrHQBlEKEEHxpXB56/kQJfXE0AU5a7BeSSLQNquBL9si6HBVbTyQBbf70AG5avBtV8AQQFg
9L8ItK/BjZf8QK/LGEAcQGvBWxERQcPUA0DJL4DBgm2bQAjTBkFvaY/Bm/K8QH0xCEEHwoPBmdzL
QGI45b7jFYrBEE4AQaScRj3MMI7Bfd/cQOV5q0BkoZjB3H+xQFgVzEAMX53B/mmhQIy4y0Cfn3rB
ByJqQLZX7kCkQYDBA63CQPlkuj/GY37BsjWyQPN0kEAi54nBH+/rQHVcD0GkCcLBrfHRQINZ7kC9
yr3BhKGyQN1WDUGVhsLBZhCWQMt8lcAek4TBKyWuQBqNgMDRhpDB1RTJQKVSqcCY9YjBIByQQJIb
MUAI86vBQhByQH+O3j95raHBLWW2QDWwG8BsSYHB11TRQEs7bcBlcHPBDEAEQYPfdcDQqYjB1Cvv
QBy/GsDJt47BkZUJQd3RHcBHwm/B8+IXQZ9v7L+pUYPB401nQHRAX0C1BpPBnoPHQB30ZEArp5/B
gTymQL9FtT+NiZHBeqtVQIDtqECeXofBzz9eQPGPy0DPF5HBO+5RQNiXg0CN0KTBB9TSQEzMDkFV
GbPBM+O7QKLsIUF5ZbHBCSHmQK4yBEG9YarB9I7aQCSIpT/y+KzBh0OpQJMFoL5n46TBqw/LQEu5
H0E0TZ7BI0jrQLCBi7/7Oq3Bunu4QAODKkGN+6bB3eyzQC4igj+3j6fBnjr2QAh0dT7SyK/BctvE
QDiurr9wwafB/FbiQJnIDEFu9J/BWw4JQeKJgz7dxHHB8JTiQOs6HkDVJY7BBjkJQeKB0D9E1nzB
z32sQEL6+kBtkInBs+XgQHToTT4r6YbB1ym/QEitvkAt9ZXBpl6NQFQI3UAVt4PBpE3nQCBe0z++
+YPB3LGeQOBGokCW/I/BOB+fQDCnPkFF8aTBap3UQCJyjcACJ43BrzeWQFcvCUBecaTBAPvLQJna
hMALNIHBOIrKQDVEKcB+c33BEZn3QCaxAMBE+X3BHvmJQBDSgUCropfBUZGrQDqeRUBFSpzBuSr0
QODnDb9saHzBH4jOQPrA4UBzGI/BMtO7QM45E0CGXpPBajR5QGjJvECUNYvBmGwUQWgfhb2pqGLB
aMn+QMQ5TkAxZpHBsSUCQZ+oD0HSj4zBD0oMQYS630A7PpjBMZBoQGS8l0D0DaDBRKwNQQItAT9k
67TBTYm6QIXXKMAjN6XBN2D4QCpq/kCWaZTBuZ7VQElFCEF9EbvBveysQNUAKkEhDrjBiML3QHoe
60ClqqvBjuHiQCL0E0D9867BEe2LQK/CBb9ApKDBLXHHQGkEJkFWTpbBAy4AQRgH87+deK/BmI8K
QVJvHEA9GXHBM2UWQRv42T+BOYTBRLiaQLPrBkHehI/BJ3a7QHFUCEGUuoPBi5i+QCFu/7wRlYfB
lerwQKYk6rw/h47BAZnaQNfzqkClbJjBWq6vQHhXzECUFZ3BVUaeQA/bzEAOSHrBD0llQOza70Cc
c4DBUYfOQOdZ+j/zb3zBMpivQL20kECQo4nBpQx7QOR5OkEXWqPBDICsQLYSR0Hk+Z3Bp9ygQLYY
SUEuA6zBB2bVQFYqsMCMlo7BlQe7QBfefcBv/JHBlJTzQDi4fsC2aY/BDraNQJPlLUDnpKvBPR1y
QNkU3D8g3qDBWhCtQLw4k8CNBn7BWZ3lQMylk8Ac4XjBjku2QMlXCcCgt4TBe7C8QDD6H8A7cG3B
jUAFQUcCGcAAbnDBMsUDQSC/EcCOiYbB24hlQJ6lXUAxB5PBM2PFQEz5aUDBLaDBIBmpQLyTxz8O
vZDBzsJQQEWoqUBkQ4fBAdhZQMfQy0CXFZHBlyNPQId4g0CCvqTBGAKzQOCaLUHjaabBv/60QHUf
JUGL1rDBvXzHQAP1IkEo7J3BrkTaQH74nD8je6zBGgGpQL4+sb7G+qPBlPvfQFJEB0ESRqrB+MDp
QMQJlb/Sr6zBmg7LQD7MEUHVxLLBDBe0QLpgeT+Q0abB1xz1QFUoIT4XZK/B48fDQJoMtb9K8abB
0lTeQC7dD0Fe15/BvCIGQe0lBb5UZXHBm2TjQIgkEECk3Y3BWWIJQRJWlz+pxX3B9VGsQBGk/EB4
w4nBOYbYQNirv7xqSIbBvFvBQBELwEBDCJbBMEyOQFj43UA14IPB2tjmQDHPsj+xxoPBLdegQLyJ
o0B9CZDBh0HOQOMBCUF4BL7BG6vvQPO1k8D7TZHB3S+XQIaZB0AfvqPBVQj2QIADVsCcpYrBO6PO
QGS8RcBVdYPBGDzZQO69B8DvVnTBvg6MQCWZgkCFg5fBAQutQDzTQ0B3oZvB/LjrQBIJWb8lzHvB
FibPQNGs5EDfU4/BdfO6QEaKEUCvapLBe4l8QEW1vUBCZ4vBY8MPQQL57L7GLGHBnaEAQehTO0Cf
QJHBkpUBQbnNEUGMtIzBBM4LQdqU5kCnMZnBSGBvQGTil0BTP6DB1fQMQYh4zT4durTBTyy5QO5v
K8BWNKTBJhL3QCvKAUHWwpTB+8KhQBZJPEHn76TB+5ulQGBrLUFUXrfBxrjFQJBoKUFc65XBf+Pi
QDRHD0C4lK7BRP+LQLBmCb9yiZ/BAEvxQDk28UCNwKvBdSn+QCYu/r+tBK/BProNQZB4AEDm+HLB
CrwVQdOKiT+WGIXB9deZQIRtB0HrtY/BUqa6QIxtCUH484PBR2u1QDvsyb20DIbBYyDkQKy7qr5R
No7BWI3dQMS3rEBRIpjBw16yQM9UzEDRYJ3BBdSfQI0NzkCaunrBi2xmQNME8EBjhoDB4HzRQDZ4
6D+URnvBpbmxQJdpkkB5nInB66bqQFi6D0GF/MHBvQfRQJPy7kCesr3B+maxQKdsDUFgjMLBN/oF
Qb8JmcC7XpbBEkvrQHo7r8Cr7YvByi3TQMETkMB6ZJbBVP+OQORCLECL+KrBVJZzQKhl2z+JJKDB
YEsJQUV6XcBDloXBd3n6QNIqH8ASDZDBgey0QDLFKcC7WIjB3srDQJOIgcAwGIDBsZi7QLbd87+Z
fmvBtlXwQPIIJ8DPm2nBebFnQL0BYkC44ZLBvB7IQOgLZUD7a5/BsuGkQEUD2D/JBI/Beu9TQBlq
qkCIiIfBXqVdQN+azECGVpHBNs9VQIlNg0B41qTBiQCxQCaMMUGCj6TBhC2rQO8EKUH55K7BPS7J
QKo5JkFK75zBaaLbQMGnnz/SCa7BJqC1QDqclr4bOaLBW8rVQOHMCUHw+qnBdejzQEJJiL8VRKzB
BRy9QLj8FEEclrHBzN+5QJdPfT8CzqbBHWX4QDqcXj6n1bDB65zSQEXLqL8r7qTBoeTbQGdlEkFB
p5/BUWsGQT0VLr8xH3bBFaXcQFsj/j/Pe4zBWwIGQY9WSj8h5XzBoJutQAte/0DuForBaTrUQJ8S
1b6uDofBe/vAQLwLwkDeXJbBwOaPQGgJ4UBs7YPB91jfQDHrez/YMYPBnRahQOBBpUDuHZDBOoS3
QNjzC0FuvrzBKizPQH1vqcAga1DBf66aQHT2BUA/yaPBuyrTQGNEmcDKlWfBHSnbQBF1UcB4tGfB
UILhQD1/MMDKuX7BIBKMQLkSg0AndpfBWpqsQPSlP0BbuZrB8UToQBUDp7/shH7BUOjPQHro5kA0
xo/BCdm0QMy9CkAqMZHBGO59QEfiv0ABO4vBR+IUQbPRmb8Z3GvBgGv8QHGAJUCmrY/BZ7IDQfDO
EUFzXY3BMMEKQZQD6UD9DZvB0o10QEpCl0DCuKDBYRwMQW9C6j5W7LfBx2/OQGPjIsD6eaDB3H33
QPLlAkFSi5XBoeiiQB/GQEE+fqLBH/WYQKvSMUEsxbTBB23NQIC1LEEi/5TBXWzfQPHyDkDebbHB
4RGcQAyO+77jn5zBKQ7kQB8+9UC5D6zBHv4EQT0U7b9JY67B92gIQRZ/uT+5AW/BMGwSQQhSfj98
eITB+bGaQE2uCEEi/o/BCoi8QMDnCkHibYTBdlixQHwNEL+/LofBokrhQL/QF7//Go/BCdzcQPG0
rkDrtJjBFAWxQLhgzkAWk53BmO6hQFuY0UAY3HrBj0FqQJ1n80BKh4DBLv3IQAp6pD9WrXnBEc2y
QCaZlEAKwYnBabHRQL2dEUGj5sHBHRa4QBW99EAVY7zBq7KYQJROEUEKDMDBAnbJQDcrzMBce1DB
5/LsQEWCosDIsUfByEC0QAoumcC4gkjBi3WUQAnALUCY4KrBQSh5QKtt0T8lD6HB1BLuQJKXqcDZ
d2/BtmC1QFZDoMDJSHDBgH2/QNnPMMAMg2DBDAr4QMFkQ8CrRl7BBJT9QLD7T8B47YLBZufEQKNq
P8DYI4TBOplkQK01Z0C24ZLBl2LKQAkZXkA5d53BiNybQFLo2T+k243BrqZWQOvHrEDXGIfB8zRd
QJdOzkCUFZHBCPNaQLM9gkD0LqXBBunOQKaPDkEcy7PBqES3QIGCIUFqNbLBNE7jQHmWBEHZC6vB
d7jfQDKTuj+9g6zBHg2uQHRVYb6DmaXBZAvIQDBrIEG8K5/Bdp7xQK6/ab9spK3BlD+0QHONKkGJ
4qfBkn24QNuNkD+3kafB7Tn8QGEo3z7/jq/BFpfKQKCqnr/aoajB7fnfQFCiDUF+tKDB1EIGQQxp
2L6FKXXBnE3eQGVfD0A7mIzBizwEQd22iT/LM3rB1j6sQODj/UA/GIrBWLPnQFsySb5dxorB6wzB
QCt0v0BprpXBPsONQFdX4EAt84PBjkHiQMp3jD8hlITBHN2fQDICpEBqn4/B8CCaQCuAPkFx96XB
LqiVQKLrgcD7kobBiciZQGUnDkArRKTBI2y+QJkHXcAzw4HBy2ThQBAFVcBhcIrB78cDQTvoH8D4
VIbBNkWLQOAAg0BnH5fB8fCsQCD8RUAHSpvBPGX6QPF5kb+yJYPBMgLPQNmr5EDTWI/BUU24QKf4
DkAWS5LBcvR6QBYHv0D2LYvBk0QOQTxAZb+K9GTB8xj8QDDIP0AUro7BK8MBQXXNEUGGhY3BxxgM
Qbpr40D285jBS+JsQGximEC2xp/B4OYQQXDSPz+pTLTBO5XAQOUGIsAQrqbBu6b3QI/cAEEyHJXB
w2fRQPivB0EisrvB3XinQC8bKUGc47jBO271QDgk7EAWPqzBAtznQFp1H0Ay9q3B6CSQQL0U8b5G
w6HBHN3EQPQYJ0H2PZfBHrUDQfA22b/QA7DB9SIBQfis1D9MoWvBObMSQdisuj++EoHB9xiaQB6l
B0H1QJDBzJy6QCFzCkGXfITB4IzIQMZIEL/9oY3Bmjv9QNeHQ71IopHBHR7dQBqEq0Cqg5fBsJ6y
QCjjykB9Lp3BSQmfQGhE0UBwi3rBM5tlQIIm80CazYDBsrPEQEdUhT+Fo3/BnDSwQLD6kkAQGInB
p7lxQBIHOkFDKKTBz6enQGlqR0GgLJ/BVNaaQHiaSEGSK63B9wB6QD2ehMBnVIDBAuWJQBpgWsCe
DI3B+9WcQI7gocA9zInBA9SSQOHPNkCaPKvBk+Z3QNqO4T84YaHBEiO3QJwuHcAZEX3BCxTKQM9H
g8BXkHbBlKrsQCKvisAzoYzBl7zTQC55NcDKhpHBfs4KQahxQMAcun7B6NEPQdMlG8A1uYzB1N9m
QBvQYUA2fZLBvhTJQIe/aEDeTJ7B0UKiQGa+yD+3/o/BnVNSQNhjrEAjHofBS/tbQB8izUAtOpHB
iYNTQPrUg0BGZKTBkmu9QFUeFUGCobHBhACrQGH2KEHJ4q7BCdvVQBrICUG2DarBc/HbQIIuoT+M
+a3BqUa1QJ89lr5HZKLBbFHJQGMeJkE/9ZzBC4rzQFTsh797dKzBaUixQFGdMUE7kaTBofm5QC8z
fz/Bz6bBbYT4QGD7aD4H2bDBFebRQKAdqb/ZPKXBFgDcQGxREkHAtZ/BbRsGQSjLN78sMnbBv6/c
QPg1/T8kcYzBvxUGQZlSQT9bDn3B75ytQMN1/0BDHYrBBhfTQLSh1b4b5obBoebAQCsRwkAiXpbB
fNqPQKYz4UBG8YPBsFbfQBA6ej+/H4PBhQyhQHBUpUDqGZDBvD6cQCmLRkG0c6HBTQX+QAastMCw
45LBl8yaQJNTBkBAxaPBfhvpQN6MnsBrNYnB4bv2QCQ6XsDqhIjB9zTfQJJkMcAEcX7BEROMQAkV
g0BebZfB16usQNy4P0AJrprBeRTnQJ4Eqb9zUH7BuODPQEjr5kCmy4/B0uC0QNGVCkCnJ5HBhtZ9
QAr+v0AKO4vB/zIUQWLEoL+4o2vBuXv8QPIXJUDLnI/BL7oDQdfDEUFTao3B1b4KQbvP6EAQFJvB
8G50QBQ3l0DEsKDBfjsMQbb08D7X5LfBV5HMQBACJMCRL6HBaIP3QDLWAkE2lZXB4si4QNybDkHO
jLnB1wqYQOSRMUELsLTBBeXjQMge9UApJ6zBQgjgQNUEEECkQLHBFKubQFp0/L5P0JzBfHTNQPh7
LEER/pTBJsAEQUzh7L/qnq7BROgIQY7ftD97PG/BnGMSQVaQcD8GpYTBHbqaQCS7CEF1BZDBm5O8
QFfzCkHGdYTBfR2wQJWdCr+04IbBe4DfQNLDGr8E/47BXcDcQOO0rkBquJjBUOSwQBZizkAjk53B
iNihQD7O0UD03HrBFilqQPSe80CSj4DBNZHJQCjHpT/kYnnBWceyQJ6+lECzuonBJGd4QLJYQ0Hq
LZ7BodivQA+jTkFuXZvB3WqZQNzZUEHBjKjB9dDzQI5W1sAQMpPBzib0QE5XpMDFSJrBM4YQQaAj
s8DeG5LB1Z2UQGhTLkBh2KrBsFt5QAQH0j/0EKHBJBrGQFROoMCrBYrBvf/yQKYar8DE2IHBP7sM
Qc2YWsB1KIfBaLzuQNHmPcCeE5DBfaC8QAS8PMDMDYDBV3PqQB2kTMDVN2/BVq1kQFsxZ0Cr1pLB
+nfKQEU/XkDfZZ3BAdubQBa62T8l1I3BrIxWQA3srEDTFofBqyBdQMlezkCtF5HBCt1aQLspgkAt
JaXBe1K9QFMcFUFgnrHBRNyqQCnxKEEe367BfMnVQC/JCUEAC6rB0b/bQIMZoD/PCK7BK9G1QE+r
lb7VN6LBszHJQAkcJkHj8ZzB3x70QOS4h78LRKzBuCGxQEyYMUF9jaTBCAG6QBfSfT+ZzKbBSI34
QDpoYz481bDB6NbSQFhpqL/b7aTBM+zbQHdSEkERs5/BGIUGQUnZLL8xHnbB/bvcQFKa/j9qeYzB
HBcGQeGRSz9K5HzBL5qtQEpo/0CVGYrBt2DUQDMO074zC4fBYenAQAILwkCLXZbBANePQMEe4UAS
8IPBmX3fQN70fD8KL4PBhwmhQBBJpUBtHJDBUQucQDmCRkFDb6HBuo7PQNNiqcDybVDBdsGaQA/9
BUBxx6PBbInTQNkumcBel2fBDHPbQBxDUcBgs2fBdcPhQMY/MMC5uH7B7Q2MQPwPg0Bpc5fBY6Ks
QIu2P0AXt5rB0HnoQKF/pr/lgX7BPt/PQEvm5kCtyY/BDO20QDXWCkC/LpHBT9J9QKLwv0B8PIvB
d/8UQY8cmb+M3WvB83n8QFfXJUBNq4/BhLMDQSLIEUGlaI3BGLwKQW3e6EBvE5vBh3F0QG80l0Bb
tqDBeC8MQdV47T6R67fB5LXOQHS1IsC/eaDBhnn3QH/ZAkF/k5XBsrK4QM+ZDkHFibnB5N+XQC6K
MUHtq7TBTtvjQAEl9UDZJKzBf37fQBovD0CvbLHBrEecQJkm+77cnZzB6FDNQCl5LEF++pTBOh0F
Qf9l7L+0Y67BMn8IQUkguj95AW/B4H0SQZOofz9qeYTBv7eaQOa3CEGGAJDB1I+8QDvpCkFAcITB
Rn+xQNsyD79fKIfB42bhQFe1Fr+sGI/BvMXcQCmwrkCftpjBfO2wQAhezkA2k53BGtShQDCy0UBX
3HrBeyBqQOOF80BajYDBCSbJQCn3pD+BpXnB+L+yQOKplED5vYnBUwV4QEpKQ0FGKZ7B4qCvQJ6c
TkHzWJvB2y+ZQDbRUEEFiKjBf+fJQPggzMAFgVDBVFHtQH1rosAXs0fBVZu0QFsvmcAwhUjBvYCU
QNPELUCF3qrBqll5QCdJ0T+ODaHBe3nuQH50qcCheW/BfMO1QFw4oMC6S3DBDcG/QEy4MMCdgGDB
t1H4QOMdQ8DMRV7B3tf9QJWqT8AJ7oLBmCjFQGM2P8DIIoTB7Z9kQLUfZ0AP3pLBomTKQMxAXkD/
dJ3BJ/ebQE/u2T8f2Y3BAYNWQMHbrEDpGYfBiSJdQFZYzkCWGJHBZ+JaQAUpgkCVK6XB

> <OMEGA_E>
PBvvPnh58j7clOU+kCkwP/igCz+8/yQ/diE0Pw==

> <OMEGA_NBR>
     16870

$$$$
50162119
  -OEChem-04172616093D

 60 62  0     1  0  0  0  0  0999 V2000
    5.6893   10.9048  -20.8268 C   0  0  0  0  0  0  0  0  0  0  0  0
    5.7571   10.3897  -22.1358 C   0  0  0  0  0  0  0  0  0  0  0  0
    6.2932   10.2076  -19.7644 C   0  0  0  0  0  0  0  0  0  0  0  0
    6.8591    1.3924  -21.6646 C   0  0  0  0  0  0  0  0  0  0  0  0
    5.2277   -0.2477  -20.8742 C   0  0  0  0  0  0  0  0  0  0  0  0
    7.0392    8.4788  -21.3198 C   0  0  0  0  0  0  0  0  0  0  0  0
    7.2987   -0.9918  -21.9233 C   0  0  0  0  0  0  0  0  0  0  0  0
    6.4178    9.1667  -22.3824 C   0  0  0  0  0  0  0  0  0  0  0  0
    5.6252    1.0914  -21.0512 C   0  0  0  0  0  0  0  0  0  0  0  0
    7.6960    0.3496  -22.0994 C   0  0  0  0  0  0  0  0  0  0  0  0
    6.0642   -1.2887  -21.3098 C   0  0  0  0  0  0  0  0  0  0  0  0
    6.9799    8.9992  -20.0094 C   0  0  0  0  0  0  0  0  0  0  0  0
    7.0195    2.1017  -17.6759 C   0  0  0  0  0  0  0  0  0  0  0  0
    5.3847    7.8883  -17.2672 C   0  0  0  0  0  0  0  0  0  0  0  0
    6.0525    5.9707  -18.7719 C   0  0  0  0  0  0  0  0  0  0  0  0
    4.4554    6.9353  -16.5139 C   0  0  0  0  0  0  0  0  0  0  0  0
    5.0444    5.0826  -17.9992 C   0  0  2  0  0  0  0  0  0  0  0  0
    6.5277    8.6340  -23.7942 C   0  0  0  0  0  0  0  0  0  0  0  0
    7.3414    0.9755  -16.6842 C   0  0  0  0  0  0  0  0  0  0  0  0
    4.7324    2.1995  -20.5731 C   0  0  0  0  0  0  0  0  0  0  0  0
    4.3820    4.0376  -18.9042 C   0  0  2  0  0  0  0  0  0  0  0  0
    5.3999    3.0045  -19.4373 C   0  0  1  0  0  0  0  0  0  0  0  0
    6.4750    7.1353  -17.9540 N   0  0  1  0  0  0  0  0  0  0  0  0
    5.7965    2.0792  -18.3460 N   0  0  0  0  0  0  0  0  0  0  0  0
    3.9607    5.9099  -17.4370 N   0  3  0  0  0  0  0  0  0  0  0  0
    7.8869    2.9213  -17.9572 O   0  0  0  0  0  0  0  0  0  0  0  0
    8.1214    9.0823  -17.6126 O   0  0  0  0  0  0  0  0  0  0  0  0
    8.7414    7.1820  -19.1877 O   0  0  0  0  0  0  0  0  0  0  0  0
    3.7201    4.7123  -19.9810 O   0  0  0  0  0  0  0  0  0  0  0  0
    8.8803    0.6367  -22.6846 F   0  0  0  0  0  0  0  0  0  0  0  0
    5.6838   -2.5729  -21.1305 F   0  0  0  0  0  0  0  0  0  0  0  0
    7.7331    8.0944  -18.6285 S   0  0  0  0  0  0  0  0  0  0  0  0
    5.1737   11.8349  -20.6386 H   0  0  0  0  0  0  0  0  0  0  0  0
    5.3028   10.9312  -22.9523 H   0  0  0  0  0  0  0  0  0  0  0  0
    6.2312   10.5980  -18.7593 H   0  0  0  0  0  0  0  0  0  0  0  0
    7.1601    2.4208  -21.7998 H   0  0  0  0  0  0  0  0  0  0  0  0
    4.2819   -0.4739  -20.4045 H   0  0  0  0  0  0  0  0  0  0  0  0
    7.5613    7.5524  -21.5092 H   0  0  0  0  0  0  0  0  0  0  0  0
    7.9407   -1.7929  -22.2586 H   0  0  0  0  0  0  0  0  0  0  0  0
    4.8014    8.4423  -18.0175 H   0  0  0  0  0  0  0  0  0  0  0  0
    5.8303    8.5965  -16.5532 H   0  0  0  0  0  0  0  0  0  0  0  0
    6.9382    5.3704  -19.0269 H   0  0  0  0  0  0  0  0  0  0  0  0
    5.5773    6.3336  -19.6953 H   0  0  0  0  0  0  0  0  0  0  0  0
    5.0086    6.4549  -15.6934 H   0  0  0  0  0  0  0  0  0  0  0  0
    3.6057    7.4997  -16.1021 H   0  0  0  0  0  0  0  0  0  0  0  0
    5.5775    4.5663  -17.1873 H   0  0  0  0  0  0  0  0  0  0  0  0
    7.4337    9.0380  -24.2696 H   0  0  0  0  0  0  0  0  0  0  0  0
    6.5862    7.5358  -23.7680 H   0  0  0  0  0  0  0  0  0  0  0  0
    5.6430    8.9404  -24.3715 H   0  0  0  0  0  0  0  0  0  0  0  0
    8.3825    1.0732  -16.3429 H   0  0  0  0  0  0  0  0  0  0  0  0
    6.6644    1.0436  -15.8199 H   0  0  0  0  0  0  0  0  0  0  0  0
    7.2076    0.0022  -17.1790 H   0  0  0  0  0  0  0  0  0  0  0  0
    4.5181    2.8756  -21.4140 H   0  0  0  0  0  0  0  0  0  0  0  0
    3.7917    1.7671  -20.2014 H   0  0  0  0  0  0  0  0  0  0  0  0
    3.6363    3.4951  -18.3046 H   0  0  0  0  0  0  0  0  0  0  0  0
    6.2826    3.5299  -19.8307 H   0  0  0  0  0  0  0  0  0  0  0  0
    5.1334    1.3838  -18.0692 H   0  0  0  0  0  0  0  0  0  0  0  0
    3.3261    5.3146  -16.9442 H   0  0  0  0  0  0  0  0  0  0  0  0
    3.4793    6.3609  -18.1885 H   0  0  0  0  0  0  0  0  0  0  0  0
    3.3057    4.0732  -20.5487 H   0  0  0  0  0  0  0  0  0  0  0  0
  1  2  2  0  0  0  0
  1  3  1  0  0  0  0
  2  8  1  0  0  0  0
  3 12  2  0  0  0  0
  4  9  1  0  0  0  0
  4 10  2  0  0  0  0
  5  9  2  0  0  0  0
  5 11  1  0  0  0  0
  6  8  2  0  0  0  0
  6 12  1  0  0  0  0
  7 10  1  0  0  0  0
  7 11  2  0  0  0  0
  8 18  1  0  0  0  0
  9 20  1  0  0  0  0
 10 30  1  0  0  0  0
 11 31  1  0  0  0  0
 12 32  1  0  0  0  0
 13 19  1  0  0  0  0
 13 24  1  0  0  0  0
 13 26  2  0  0  0  0
 14 16  1  0  0  0  0
 14 23  1  0  0  0  0
 15 17  1  0  0  0  0
 15 23  1  0  0  0  0
 16 25  1  0  0  0  0
 17 21  1  0  0  0  0
 17 25  1  0  0  0  0
 20 22  1  0  0  0  0
 21 22  1  0  0  0  0
 21 29  1  0  0  0  0
 22 24  1  0  0  0  0
 23 32  1  0  0  0  0
 27 32  2  0  0  0  0
 28 32  2  0  0  0  0
  1 33  1  0  0  0  0
  2 34  1  0  0  0  0
  3 35  1  0  0  0  0
  4 36  1  0  0  0  0
  5 37  1  0  0  0  0
  6 38  1  0  0  0  0
  7 39  1  0  0  0  0
 14 40  1  0  0  0  0
 14 41  1  0  0  0  0
 15 42  1  0  0  0  0
 15 43  1  0  0  0  0
 16 44  1  0  0  0  0
 16 45  1  0  0  0  0
 17 46  1  0  0  0  0
 18 47  1  0  0  0  0
 18 48  1  0  0  0  0
 18 49  1  0  0  0  0
 19 50  1  0  0  0  0
 19 51  1  0  0  0  0
 19 52  1  0  0  0  0
 20 53  1  0  0  0  0
 20 54  1  0  0  0  0
 21 55  1  0  0  0  0
 22 56  1  0  0  0  0
 24 57  1  0  0  0  0
 25 58  1  0  0  0  0
 25 59  1  0  0  0  0
 29 60  1  0  0  0  0
M  CHG  1  25   1
M  END
> <OMEGA_C>
mw62QPt5LkFdnabBEzq4QAo8JkEMFrHBNGLJQHhSI0F9HZ7Bkn3bQMo6sj8KUa3Bm0mnQD+efb5S
/qbBgUHhQPeoB0ENj6rB1I7pQGbpfb/RYq/BR17NQN+qEkE5D7PBvQG0QEayiz/uaKjBwEX2QEcF
sz6Fy7DB2w3CQAzzpL+QeqrBpFvfQJz8D0FZE6DBmJ/gQN2CBkBGaI3BKE+sQAxt/EA6I4rBrK3B
QBAQv0DvLJbBdZKOQMnt3UBmHITBjWuhQIakokBW/o/BQuPQQLskCkFzWr7BWezqQMq4eT9LeYXB
eG+XQF3EDEDElaTBqTmMQEQ0gUDYO5fBrMusQJRJQECAf5vBQzPPQDNU5EC5oY/BGH25QGMSBUCz
xJLBFHx9QM4dvUDyfovBh2H8QDT2OkBRqI/BGPEBQTtREUGX5ozBz9wLQTDT5UB2gJnBiBZuQFTL
lkAV2Z/ByxUOQQj+Ij8jerXBh+G1QDSrJMBCC6nBtnX3QNWCAUElB5XBB4+lQMtbPUHOG6XB0bCp
QCDmLkFnnrfBXWbHQHKRKUEbE5bBjx/lQMjtGkAKZq7BVwWJQGGk8r5hPKPB1PXxQIWt8UC+EqzB
Ohr+QBB/5b+bEbLBHKWZQIITB0HWI5DBopG6QGOLCUHfbITBEgbeQGnaq0AiN5jBMnmyQD+tykDg
j53BDkagQFCOzkAOGHvBtsNmQCr970Av0YDBRHuyQCofkkCPf4nBm+DtQNWbEEEZKMLBS8LSQI4l
8UDiJL7BjZO0QNoLD0Hn+MLBrR4GQaFdiT9OvoLBeELVQJ6ThT9THn3Br6TmQI8rDTt/bonBeJSQ
QLAJOEDGT6vBt6pyQFAw4j+OnKHBlrloQMGvX0DEb5LBwwrJQArqYUA2pZ7BjkSkQLwhsT+6jZDB
Hd5UQDIRqkCsjYfBlaxeQKWMy0AZgpHBKpFTQHtXgkC5Y6TBZiTQQL8iEUFeN7PBsDq6QKZ3JEFV
RLHBEpbjQC4OBkH6q6rBOn3ZQHT+tD/kxq3BwSapQKlHiL6wUabBZqLKQKx+IUGzQp7BGr3qQJIC
db8uUq/BSfa3QOTELEGqxqbBIWizQBuGij/XUqjBgTr1QP5zyT4EO7HBX8bEQKh4pL/k0anB4+/g
QNxYDkHIKqDBKpLkQBlFDkAFio7BBBysQL5W/EA4B4rBSu6/QLQJv0C5HZbBiqmNQHxg3kA4AITB
NeyfQMinokDi6o/Bh9qfQLsvQUG1eqTBHiHwQM94oT95b4XBDv+VQPK5CkBsZaTBn/mKQBA9gUCo
PpfB3umrQAnpQUAFvpvBDIrOQIZW40DZeY/BusO7QAP6CUAUBJPBzeV6QBhLvUBzUYvBdLr9QNQs
R0C8/5DBER4CQelwEEGN54zBm+4LQVpp4kCMA5nBnNhqQFLilkBAyJ/B8BcNQVb1NT8RP7bBizG7
QJrgJMACtafB+tL3QA1NAEHt3pTBcAnSQITRCkGGPrvB4S6rQDfsLEG/y7fBoHb0QGyJ7kBAJqzB
c1LhQH62HECuS6/BiRaMQE1RBL+QGKLB1tjHQBeRJ0GbM5bB1M3/QEPZ3r8tE7LBueSZQD0yB0FA
DpDBMMa6QKpgCUGzUYTBwcjbQG6Zq0AQbZjB7zmwQF6Hy0CgWJ3BiPCeQKULz0CkuHrBFkRlQG/3
8EBqz4DBRCGxQFYGkkDHdonBaVF8QDBrPUFHxKLBWS2uQPE3SUEUhJ3BV6mhQM/OS0FMe6vBbtkH
Qbuewz8mLoLBpezXQJvJqj9DJX7BCA3xQFs5bT76hIjBhwGNQHLhM0BHLKvBzSpyQG+M2j8F/KDB
av5mQAh1XkCGepLBsLfGQLMyZUDgW5/BWqynQJq3uz/yH5DB0LhSQJxQqkDlSIfBpG5bQDGby0Ca
S5HB0LNQQE9ygkCuXKTBp+S1QIGzLkEKp6bBTna4QNmbJkGyJbHBOgjJQL52I0EWJ57B/5ynQA6F
bL7uSKfBF3bcQH0AtD8nUK3B6SrhQBTrB0HtoKrBYlTpQJDweb8v76/BAaXNQKEPE0F2I7PBXO20
QD+YjT+sb6jBJcTBQKzIor9/DKvBfaj2QAVCuj7kD7HBExffQGEoEEFIIaDBUu/fQMvAAUAnMo3B
OFCsQBDK/EAvL4rB69TBQI09v0DBKZbBKYyOQIVT3kCHKITB1amhQK/cokDE8I/Bxa/RQOG6CkEV
db7BqLDpQDDHWD+8vIXBgIOYQKK0DUC0j6TBGqSMQEcbgUBYHJfBPlatQILaP0C7SJvBTj3PQGKv
5ED+qY/BeOa4QHpVA0CMmZLBgr59QHBnvUBkh4vB/e37QFPANkBZBo/B6vMBQXCCEUEO/IzBMs0L
QbE15kA5mJnBxOJuQKFtlkC7xJ/B3da0QLJ1I8A286nB0T0OQcaBJj8WyLXBAWD3QP+xAUEQGZXB
BzylQPeHPUHTIKXBVzOqQLBfL0Elr7fB9NbGQLCfKUFTGZbB+luJQFty6b4ehKPBp5XmQHO8G0Bz
Kq7BFrvxQIEe8kDdJazBYnL9QIZ847/S0LLBt6yZQL0+B0FGMpDBTYu6QPa8CUEzeYTBwjveQO4S
rEDZLZjBlpayQOenykBgkJ3BkS+gQIcQz0CVInvBV5JmQJli8EDE5oDBubuyQA6nkkDVZYnB7Nru
QD9BEUHmJcLB8onTQC1Q8kBfUb7BaZi1QHy3D0EvI8PBGXUFQVYxaz9t44LB+MPTQGdkXz8qtn3B
IF/lQEBvx70XH4rBdUeSQDr1OUDDOavBuDd0QKhK5D8FxaHBwo9pQCe6X0BHSZLBTAfKQBk3YUBr
N57BpOaiQElTsD+pcpDBBO1UQJZtqkDImIfBQjxfQDW8y0CQlJHB4IJUQJPTgUD3R6TBCDTSQPT7
DUEu4LPBAp+6QDz4IEHvXLLBMv3lQHTyA0ESEKvBZlWsQJgp3b1xQKnBqZ/fQHyI1T8qQK3BH97K
QK77H0HpSZ/BEPDxQL8SKL9b57DBNVu3QJwUKkHxDqjB4Fy3QDrVoD9CTKnBm4bJQJ4IiL8OFq3B
bAH9QPS0NT9k97DB8V/iQGoJDUGKvaDBTs/hQGpzDUBX4o3BlmSsQN8i/UCdT4rBbhPAQErLvkC6
/5XBrvONQI/M30CnFYTBze6fQNfhokBUr4/BTdqcQL7sPUGsNqbBvuPuQIbGiT8KTobBqRmYQH01
EUBVAaXBQseKQJE0gUAG65bB9yKsQLHTQ0CmrZvBmMLOQJl+40B1kI/BQfi6QDFlB0CXUpPBNi97
QKfvvUDbKYvB4jj7QHRgR0Ccu4/BpToCQbifEEHoXY3BXFsMQV3g4EBqxZjBwoRnQIXFlkAJO5/B
BLO+QIC6F8D6FK3BB+wRQaLojD+mkLTBw4D4QBXO/0DUEZXBSh7VQIshB0EMxrvBLw6rQIeLKEFI
FbnBBeH3QJOs6kASMqzBPHmNQBRb177eRabB6dDnQDjnLUDzaq3BFcvHQLvPJkGiY5fBCjgEQbVP
sr9+yLPBYjKaQPhBB0H8dpDBKw27QKIWCkEnwoTBGuTbQGMdq0BDNZjB/G2wQNHDykCoSp3BtUaf
QHAm0UBstnrBTvFlQMu+8kBGAIHBLhexQIl7kkCxL4nBRDV3QHZSOUF4d6TBTQOqQB3sRkFNZ5/B
raCdQFQASEELba3BNtIHQcVAoD8uZ4PBDcLYQOjahT+y7n7BQqXtQAik8D0gm4rBG0ePQDLlPUD/
b6vBIZR2QNzH3z+YI6LBhZxoQIYDXUBABJLBo3THQJLwaEA3uZ7B4qqnQGs4rT/VcZHBdGRTQAdS
q0De94bBujdbQCify0DTMJHB3gpNQBtEgkDmwqPB

> <OMEGA_E>
8OQfPzzyID9eVCM/UIouPw==

> <OMEGA_NBR>
     21084

$$$$
50162142
  -OEChem-04172616093D

 87 91  0     1  0  0  0  0  0999 V2000
    5.7855   10.5312  -21.1543 C   0  0  0  0  0  0  0  0  0  0  0  0
    6.0227    9.9201  -22.3968 C   0  0  0  0  0  0  0  0  0  0  0  0
    6.3237    9.9423  -20.0003 C   0  0  0  0  0  0  0  0  0  0  0  0
    6.8978    0.1407  -16.7051 C   0  0  0  0  0  0  0  0  0  0  0  0
    8.1318   -0.3828  -14.6687 C   0  0  0  0  0  0  0  0  0  0  0  0
    8.3560    1.8163  -15.6956 C   0  0  0  0  0  0  0  0  0  0  0  0
    6.9023    1.3783  -21.5048 C   0  0  0  0  0  0  0  0  0  0  0  0
    5.2087   -0.2568  -20.8497 C   0  0  0  0  0  0  0  0  0  0  0  0
    7.3469   -1.0069  -21.7501 C   0  0  0  0  0  0  0  0  0  0  0  0
    6.7873    8.7352  -22.4486 C   0  0  0  0  0  0  0  0  0  0  0  0
    7.2515   -0.7724  -15.6942 C   0  0  0  0  0  0  0  0  0  0  0  0
    7.4517    1.4386  -16.7124 C   0  0  0  0  0  0  0  0  0  0  0  0
    8.6752    0.9146  -14.6612 C   0  0  0  0  0  0  0  0  0  0  0  0
    5.6221    1.0817  -20.9853 C   0  0  0  0  0  0  0  0  0  0  0  0
    7.7677    0.3328  -21.8764 C   0  0  0  0  0  0  0  0  0  0  0  0
    6.0638   -1.2983  -21.2435 C   0  0  0  0  0  0  0  0  0  0  0  0
    7.0897    8.7615  -20.1161 C   0  0  0  0  0  0  0  0  0  0  0  0
    6.6992   -2.1282  -15.6998 C   0  0  0  0  0  0  0  0  0  0  0  0
    7.0710    2.3897  -17.7666 C   0  0  0  0  0  0  0  0  0  0  0  0
    7.8334   -3.9834  -18.7698 C   0  0  0  0  0  0  0  0  0  0  0  0
    7.2671   -5.0464  -17.8326 C   0  0  0  0  0  0  0  0  0  0  0  0
    7.7046   -2.6635  -17.9930 C   0  0  0  0  0  0  0  0  0  0  0  0
    5.4289    7.8623  -17.1892 C   0  0  0  0  0  0  0  0  0  0  0  0
    5.9775    5.9819  -18.7631 C   0  0  0  0  0  0  0  0  0  0  0  0
    4.4669    6.9210  -16.4490 C   0  0  0  0  0  0  0  0  0  0  0  0
    6.2663   -4.2840  -16.9660 C   0  0  2  0  0  0  0  0  0  0  0  0
    4.9863    5.0858  -17.9844 C   0  0  2  0  0  0  0  0  0  0  0  0
    9.6525    1.3148  -13.5812 C   0  0  0  0  0  0  0  0  0  0  0  0
    2.7064   -3.1628  -17.3503 C   0  0  0  0  0  0  0  0  0  0  0  0
    4.6881    2.1895  -20.5635 C   0  0  0  0  0  0  0  0  0  0  0  0
    4.8945   -4.1284  -17.6547 C   0  0  0  0  0  0  0  0  0  0  0  0
    4.3107    4.0568  -18.9041 C   0  0  2  0  0  0  0  0  0  0  0  0
    5.3415    3.0725  -19.4873 C   0  0  1  0  0  0  0  0  0  0  0  0
    7.3020    8.1771  -21.3248 N   0  0  0  0  0  0  0  0  0  0  0  0
    6.8875   -2.9662  -16.7974 N   0  0  0  0  0  0  0  0  0  0  0  0
    6.4739    7.0860  -17.9196 N   0  0  1  0  0  0  0  0  0  0  0  0
    5.8483    2.2185  -18.4044 N   0  0  0  0  0  0  0  0  0  0  0  0
    3.9300    5.9170  -17.3793 N   0  3  0  0  0  0  0  0  0  0  0  0
    6.0997   -2.5297  -14.7085 O   0  0  0  0  0  0  0  0  0  0  0  0
    7.8172    3.3189  -18.0551 O   0  0  0  0  0  0  0  0  0  0  0  0
    8.0961    9.0749  -17.6767 O   0  0  0  0  0  0  0  0  0  0  0  0
    8.8009    7.0394  -19.0330 O   0  0  0  0  0  0  0  0  0  0  0  0
    3.6239    4.7366  -19.9565 O   0  0  0  0  0  0  0  0  0  0  0  0
    4.0597   -3.2438  -16.8796 O   0  0  0  0  0  0  0  0  0  0  0  0
    8.9981    0.6155  -22.3612 F   0  0  0  0  0  0  0  0  0  0  0  0
    5.6444   -2.5777  -21.1418 F   0  0  0  0  0  0  0  0  0  0  0  0
    7.7634    7.9933  -18.6138 S   0  0  0  0  0  0  0  0  0  0  0  0
    5.2004   11.4366  -21.0888 H   0  0  0  0  0  0  0  0  0  0  0  0
    5.6242   10.3525  -23.3027 H   0  0  0  0  0  0  0  0  0  0  0  0
    6.1536   10.3882  -19.0314 H   0  0  0  0  0  0  0  0  0  0  0  0
    6.2013   -0.1524  -17.4766 H   0  0  0  0  0  0  0  0  0  0  0  0
    8.3908   -1.0806  -13.8861 H   0  0  0  0  0  0  0  0  0  0  0  0
    8.8040    2.7989  -15.7109 H   0  0  0  0  0  0  0  0  0  0  0  0
    7.2160    2.4057  -21.6165 H   0  0  0  0  0  0  0  0  0  0  0  0
    4.2341   -0.4826  -20.4430 H   0  0  0  0  0  0  0  0  0  0  0  0
    8.0075   -1.8101  -22.0415 H   0  0  0  0  0  0  0  0  0  0  0  0
    6.9664    8.2629  -23.4032 H   0  0  0  0  0  0  0  0  0  0  0  0
    8.8876   -4.1944  -19.0025 H   0  0  0  0  0  0  0  0  0  0  0  0
    7.2532   -3.9415  -19.7034 H   0  0  0  0  0  0  0  0  0  0  0  0
    6.7640   -5.8414  -18.4025 H   0  0  0  0  0  0  0  0  0  0  0  0
    8.0635   -5.4863  -17.2144 H   0  0  0  0  0  0  0  0  0  0  0  0
    8.6982   -2.2988  -17.6934 H   0  0  0  0  0  0  0  0  0  0  0  0
    7.2065   -1.9034  -18.6128 H   0  0  0  0  0  0  0  0  0  0  0  0
    4.8586    8.4663  -17.9103 H   0  0  0  0  0  0  0  0  0  0  0  0
    5.9166    8.5258  -16.4598 H   0  0  0  0  0  0  0  0  0  0  0  0
    6.8306    5.3709  -19.0931 H   0  0  0  0  0  0  0  0  0  0  0  0
    5.4667    6.4031  -19.6415 H   0  0  0  0  0  0  0  0  0  0  0  0
    5.0075    6.4127  -15.6369 H   0  0  0  0  0  0  0  0  0  0  0  0
    3.6371    7.5067  -16.0266 H   0  0  0  0  0  0  0  0  0  0  0  0
    6.1437   -4.7889  -15.9965 H   0  0  0  0  0  0  0  0  0  0  0  0
    5.5363    4.5518  -17.1955 H   0  0  0  0  0  0  0  0  0  0  0  0
   10.6747    1.0613  -13.8987 H   0  0  0  0  0  0  0  0  0  0  0  0
    9.5813    2.3983  -13.4055 H   0  0  0  0  0  0  0  0  0  0  0  0
    9.4130    0.7762  -12.6524 H   0  0  0  0  0  0  0  0  0  0  0  0
    2.1361   -2.4726  -16.7112 H   0  0  0  0  0  0  0  0  0  0  0  0
    2.7002   -2.7930  -18.3862 H   0  0  0  0  0  0  0  0  0  0  0  0
    2.2456   -4.1610  -17.3145 H   0  0  0  0  0  0  0  0  0  0  0  0
    4.4442    2.8089  -21.4392 H   0  0  0  0  0  0  0  0  0  0  0  0
    3.7656    1.7489  -20.1575 H   0  0  0  0  0  0  0  0  0  0  0  0
    5.0362   -3.7089  -18.6616 H   0  0  0  0  0  0  0  0  0  0  0  0
    4.4105   -5.1132  -17.7325 H   0  0  0  0  0  0  0  0  0  0  0  0
    3.5898    3.4819  -18.3043 H   0  0  0  0  0  0  0  0  0  0  0  0
    6.1679    3.6409  -19.9390 H   0  0  0  0  0  0  0  0  0  0  0  0
    5.2714    1.4588  -18.1045 H   0  0  0  0  0  0  0  0  0  0  0  0
    3.3001    5.3219  -16.8803 H   0  0  0  0  0  0  0  0  0  0  0  0
    3.4354    6.3885  -18.1094 H   0  0  0  0  0  0  0  0  0  0  0  0
    3.2062    4.1005  -20.5252 H   0  0  0  0  0  0  0  0  0  0  0  0
  1  2  1  0  0  0  0
  1  3  2  0  0  0  0
  2 10  2  0  0  0  0
  3 17  1  0  0  0  0
  4 11  2  0  0  0  0
  4 12  1  0  0  0  0
  5 11  1  0  0  0  0
  5 13  2  0  0  0  0
  6 12  2  0  0  0  0
  6 13  1  0  0  0  0
  7 14  1  0  0  0  0
  7 15  2  0  0  0  0
  8 14  2  0  0  0  0
  8 16  1  0  0  0  0
  9 15  1  0  0  0  0
  9 16  2  0  0  0  0
 10 34  1  0  0  0  0
 11 18  1  0  0  0  0
 12 19  1  0  0  0  0
 13 28  1  0  0  0  0
 14 30  1  0  0  0  0
 15 45  1  0  0  0  0
 16 46  1  0  0  0  0
 17 34  2  0  0  0  0
 17 47  1  0  0  0  0
 18 35  1  0  0  0  0
 18 39  2  0  0  0  0
 19 37  1  0  0  0  0
 19 40  2  0  0  0  0
 20 21  1  0  0  0  0
 20 22  1  0  0  0  0
 21 26  1  0  0  0  0
 22 35  1  0  0  0  0
 23 25  1  0  0  0  0
 23 36  1  0  0  0  0
 24 27  1  0  0  0  0
 24 36  1  0  0  0  0
 25 38  1  0  0  0  0
 26 31  1  0  0  0  0
 26 35  1  0  0  0  0
 27 32  1  0  0  0  0
 27 38  1  0  0  0  0
 29 44  1  0  0  0  0
 30 33  1  0  0  0  0
 31 44  1  0  0  0  0
 32 33  1  0  0  0  0
 32 43  1  0  0  0  0
 33 37  1  0  0  0  0
 36 47  1  0  0  0  0
 41 47  2  0  0  0  0
 42 47  2  0  0  0  0
  1 48  1  0  0  0  0
  2 49  1  0  0  0  0
  3 50  1  0  0  0  0
  4 51  1  0  0  0  0
  5 52  1  0  0  0  0
  6 53  1  0  0  0  0
  7 54  1  0  0  0  0
  8 55  1  0  0  0  0
  9 56  1  0  0  0  0
 10 57  1  0  0  0  0
 20 58  1  0  0  0  0
 20 59  1  0  0  0  0
 21 60  1  0  0  0  0
 21 61  1  0  0  0  0
 22 62  1  0  0  0  0
 22 63  1  0  0  0  0
 23 64  1  0  0  0  0
 23 65  1  0  0  0  0
 24 66  1  0  0  0  0
 24 67  1  0  0  0  0
 25 68  1  0  0  0  0
 25 69  1  0  0  0  0
 26 70  1  0  0  0  0
 27 71  1  0  0  0  0
 28 72  1  0  0  0  0
 28 73  1  0  0  0  0
 28 74  1  0  0  0  0
 29 75  1  0  0  0  0
 29 76  1  0  0  0  0
 29 77  1  0  0  0  0
 30 78  1  0  0  0  0
 30 79  1  0  0  0  0
 31 80  1  0  0  0  0
 31 81  1  0  0  0  0
 32 82  1  0  0  0  0
 33 83  1  0  0  0  0
 37 84  1  0  0  0  0
 38 85  1  0  0  0  0
 38 86  1  0  0  0  0
 43 87  1  0  0  0  0
M  CHG  1  38   1
M  END
> <OMEGA_C>
ByO5QNJ/KEERPKnBXLrAQLO4HkG6LLPBfVvKQKITH0GQAKDBCLvcQI4aED4FpIXB0BsCQUUDxL7S
smrBS7IFQfB76D8GIXvBdd/cQLZtsD/aCazBqK2mQEp7g75GzKbBlhnrQGnjgL85AK7BuzHZQHLD
C0HOlrPBBQzoQGS7Rb9wG3vBGXTuQKEiuD8Os4XBw80KQXokaj9wlGrB6eezQNh1ij/d4afB3ZD4
QKVkqj7oAq/BtwrCQHEupr+38qnB5N7iQBQvDEHV7aDB3l/WQA00CMBFMnvBtEXiQFDwGEAJIo7B
b6v6QAjwfsCWKJbB1YvoQDd8ocA2qY7BxYv2QMZ2KsCp8Y/BiLmtQPSX+0CBg4nB+Ue/QLJrv0Dq
GpbB/fCOQIl43UB/l4PBt4XIQEQWicBguofBYY+fQL++okD334/BpXAaQe9JqD9wTFnBVzYtQLhr
SsBbzYrBOQWWQI0hDED+gaTBlZ+cQBgchMDKPI3BT/GJQILRgUCDO5fBpO2qQFujREDz5ZvB6anp
QF/VAkEvmarBDmbcQO3WPcACYYbBUyrPQLLA4kBGW4/BnyW7QCv8DUA9PJPB14V7QBRYvUDXCIvB
uzDDQPrmIcDoVWvBHyb6QNFoVEDGcJDBeYkBQdcyEUHNaY3BkNAMQSFD4UCFQ5jBX+5nQNaRl0Dt
pp/Bb+mBQIOaT8B2CYfBM/gPQR6RHT+p47LBlJ60QOn4JMBSIqnBbW34QDTJ/0D76JTBgmmmQED8
NkHitajBkPmzQOajJUHta7rB8+nEQPU1JkFgQJjB4HDGQNMVHL4j0IvBlEAGQaVRir9dLV7BVt0M
QXkgM0DiX3vBaunmQHv3GUCL7qzBXX2HQAUc974zi6PBtB4AQdGx57/sVLDB1uzeQNE0BEHNObvB
vTMOQTw4hsAlBZjB5hnoQMNAfMCEoJ3BUHLYQCftusBhOJPBAgQBQZGPr8AAt4nBsCsLQVMfE8Ar
jI3BYJvmQI2h87/t5pTB7XmbQON1B0FYSI/BeVS9QJBpCEG/rYPBf5TaQC/eq0C1vpjBz+6uQBHm
zEDkIZ3Bvz2gQCw1zUDNMHrB6sZoQAw38ECSNoDBDpnEQHM+mcB38X/BhSmxQA+okUBykInBs8sq
QYbYhz/nYF7B+UwZQeN9GUAVfVbBx5sWQQS4Rj8YcErBJbYIQK4/HsCbsIXBgM8sQKHAMsD8FpPB
cLcPQMImhcAIhIrBqjaOQHTFM0Btg6vByf9wQOXb3z+pQqHBPyihQPpdbcD2SpXBMyONQDifo8BC
3I3Bg79lQB7XXkAjb5LBKV/FQJAEaUD/gp/BRa+oQFG5uj8R1pDB1DRTQOlMqkDfCofB8N1bQJdu
zEAT4JDBWjJNQEA3g0CnM6TBSz3TQJYnD0EAsrPBUaq9QKScIkFUFrLBRwflQOC2BEHLyqrBsijc
QLOs5z3hmYXBT4oBQTQeyb5FX2rB94wFQS8J5T9lRHvBOs7bQDNrqD9JT6zBr6ilQB84kL6BV6bB
It/oQNBMir+u6a3BWXu6QNAKK0FZpafBQR3nQBxbSr+W0HrBtlDuQF7asz8mx4XBqmQKQTBwZj8o
eGrB7jmzQCgmhj/C0qfBe6j2QE9mgD5wUa/BfknAQHz5q7/bdKnBDBzhQEAeDkFjiaDBIo3VQOBx
CcCSwnrBAfHiQNjnFUCCYI7BbXf6QPfigMAox5XBfLLoQOXGosBMMI7BARv2QMTuLMAVp4/Bueys
QNfS+0CQtonBuGjAQHxwv0ARJZbB+SaPQMwd3UA6tYPBoIXIQE9fisDgTIfB84ygQFyXokCv+o/B
wxcaQb2fpj81Q1nB6houQH8RS8ASoorBsCCWQOF8C0AFiqTBUIKcQO8OhsCwy4zBFeKKQADWgUBC
X5fBR4+rQATzQ0Bv/5vBWe3LQO7YIEG7I5/BsA7cQHDxP8AGEIbBSRfPQKek40Apc4/BrFK7QM85
DUDOSZPBaud8QIXMvECII4vBzALCQHx0IsAj8GrBR/X7QNSaTkDDAJHB21QBQbSeEUFZHY3BqG8M
QQwH5EBisJjBDFNqQCLDl0Dczp/BAYCCQKGpT8Dj/IbBcLwOQRzeAT9Jo7PBSpqyQG9eJ8BVOqjB
h7b3QKriAEEm55TBXxbWQBNeCEHnm7vBNKqvQCQHK0G7xbjBS4n1QLNQ60Atw6vBJtbFQHhGO77d
wYvBD3wFQQ1lir+0p13B0t0MQX8dMUCjr3vBnTXmQOaCFUD7ba3BmcqGQG05+L7pz6LBOmf9QKQF
878ZQLDBo8GpQOr1OUEPaabB8RwOQdZyh8A9p5fB88nnQEjlf8C3O53BmsfYQOyHvMB1rZLBkysB
QfZwsMC5OInBSesKQfYKFcD4SY3BkQDmQPyk+b/LqJTBjh6aQNQfB0HqjY/Bpde7QJ3tCEGz84PB
D0rcQHwwrEAoiJjBgYSwQCwhzEDXU53BRhahQPQszUDtiXrB/LBoQGI+70DEPoDBZNHEQF9AmsCz
AH/B4hCyQBhdkUBZrYnBgWYqQdQPhD8/R17BVyoZQcHYGEAwrFbBeiUWQaErRz8PTErBdd8KQD3M
G8Dd0oXB0xAtQGOyN8CnF5PBIrUPQM8ZhcA/yInB7L2OQMTXMkAkmavBgaJwQGOT4T9EQqHBEfig
QAtzdcBVDZXBh3+MQE1npcAk5ozBCR5nQGxQX0BQmZLB4jXGQFx/Z0ArpZ/B0iGoQO6vvD8utpDB
Mg5VQGWDqUBbJYfBgONcQHCty0CF+5DBn4ZPQFGCg0BAYaTB

> <OMEGA_E>
OBgPPoCp3T0=

> <OMEGA_NBR>
     24123

$$$$
50162153
  -OEChem-04172616093D

 88 92  0     1  0  0  0  0  0999 V2000
    6.9102    0.1739  -16.7200 C   0  0  0  0  0  0  0  0  0  0  0  0
    8.1711   -0.3285  -14.6946 C   0  0  0  0  0  0  0  0  0  0  0  0
    8.3815    1.8596  -15.7476 C   0  0  0  0  0  0  0  0  0  0  0  0
    6.8188    1.3726  -21.5621 C   0  0  0  0  0  0  0  0  0  0  0  0
    5.1652   -0.2628  -20.8119 C   0  0  0  0  0  0  0  0  0  0  0  0
    7.2739   -1.0137  -21.7780 C   0  0  0  0  0  0  0  0  0  0  0  0
    6.4786    9.6723  -20.2882 C   0  0  0  0  0  0  0  0  0  0  0  0
    6.7571    8.6763  -22.3284 C   0  0  0  0  0  0  0  0  0  0  0  0
    7.2779   -0.7285  -15.7048 C   0  0  0  0  0  0  0  0  0  0  0  0
    7.4619    1.4719  -16.7470 C   0  0  0  0  0  0  0  0  0  0  0  0
    8.7158    0.9684  -14.7087 C   0  0  0  0  0  0  0  0  0  0  0  0
    5.5613    1.0759  -20.9909 C   0  0  0  0  0  0  0  0  0  0  0  0
    7.6767    0.3267  -21.9496 C   0  0  0  0  0  0  0  0  0  0  0  0
    6.0152   -1.3052  -21.2137 C   0  0  0  0  0  0  0  0  0  0  0  0
    7.2249    8.5318  -20.1592 C   0  0  0  0  0  0  0  0  0  0  0  0
    6.7335   -2.0867  -15.6958 C   0  0  0  0  0  0  0  0  0  0  0  0
    7.0639    2.4122  -17.8042 C   0  0  0  0  0  0  0  0  0  0  0  0
    7.9009   -3.9600  -18.7380 C   0  0  0  0  0  0  0  0  0  0  0  0
    7.3141   -5.0199  -17.8076 C   0  0  0  0  0  0  0  0  0  0  0  0
    7.7323   -2.6303  -17.9874 C   0  0  0  0  0  0  0  0  0  0  0  0
    5.4361    7.8633  -17.2170 C   0  0  0  0  0  0  0  0  0  0  0  0
    5.9508    5.9664  -18.7683 C   0  0  0  0  0  0  0  0  0  0  0  0
    4.4405    6.9514  -16.4806 C   0  0  0  0  0  0  0  0  0  0  0  0
    6.3118   -4.2549  -16.9438 C   0  0  2  0  0  0  0  0  0  0  0  0
    4.9480    5.0868  -17.9936 C   0  0  2  0  0  0  0  0  0  0  0  0
    9.7140    1.3767  -13.6509 C   0  0  0  0  0  0  0  0  0  0  0  0
    5.4643   10.8325  -22.2406 C   0  0  0  0  0  0  0  0  0  0  0  0
    2.7504   -3.1375  -17.3350 C   0  0  0  0  0  0  0  0  0  0  0  0
    4.6330    2.1838  -20.5608 C   0  0  0  0  0  0  0  0  0  0  0  0
    4.9350   -4.1176  -17.6271 C   0  0  0  0  0  0  0  0  0  0  0  0
    4.2726    4.0631  -18.9178 C   0  0  2  0  0  0  0  0  0  0  0  0
    5.3020    3.0768  -19.5036 C   0  0  1  0  0  0  0  0  0  0  0  0
    7.3727    7.9352  -21.4312 N   0  0  0  0  0  0  0  0  0  0  0  0
    6.2049    9.7190  -21.6210 N   0  0  0  0  0  0  0  0  0  0  0  0
    6.9272   -2.9334  -16.7855 N   0  0  0  0  0  0  0  0  0  0  0  0
    6.4713    7.0454  -17.9129 N   0  0  1  0  0  0  0  0  0  0  0  0
    5.8297    2.2351  -18.4201 N   0  0  0  0  0  0  0  0  0  0  0  0
    3.8980    5.9374  -17.4008 N   0  3  0  0  0  0  0  0  0  0  0  0
    6.1325   -2.4805  -14.7024 O   0  0  0  0  0  0  0  0  0  0  0  0
    7.8075    3.3364  -18.1141 O   0  0  0  0  0  0  0  0  0  0  0  0
    8.0908    9.0449  -17.7225 O   0  0  0  0  0  0  0  0  0  0  0  0
    8.8570    6.9017  -18.8777 O   0  0  0  0  0  0  0  0  0  0  0  0
    3.5912    4.7485  -19.9706 O   0  0  0  0  0  0  0  0  0  0  0  0
    4.1158   -3.1814  -16.8958 O   0  0  0  0  0  0  0  0  0  0  0  0
    8.8812    0.6098  -22.4952 F   0  0  0  0  0  0  0  0  0  0  0  0
    5.6151   -2.5860  -21.0622 F   0  0  0  0  0  0  0  0  0  0  0  0
    7.8089    7.8896  -18.5852 S   0  0  0  0  0  0  0  0  0  0  0  0
    6.2044   -0.1279  -17.4797 H   0  0  0  0  0  0  0  0  0  0  0  0
    8.4389   -1.0177  -13.9073 H   0  0  0  0  0  0  0  0  0  0  0  0
    8.8297    2.8417  -15.7797 H   0  0  0  0  0  0  0  0  0  0  0  0
    7.1211    2.4001  -21.7012 H   0  0  0  0  0  0  0  0  0  0  0  0
    4.2078   -0.4878  -20.3656 H   0  0  0  0  0  0  0  0  0  0  0  0
    7.9298   -1.8173  -22.0789 H   0  0  0  0  0  0  0  0  0  0  0  0
    6.1791   10.3676  -19.5181 H   0  0  0  0  0  0  0  0  0  0  0  0
    6.6982    8.5027  -23.3927 H   0  0  0  0  0  0  0  0  0  0  0  0
    8.9648   -4.1621  -18.9311 H   0  0  0  0  0  0  0  0  0  0  0  0
    7.3531   -3.9372  -19.6916 H   0  0  0  0  0  0  0  0  0  0  0  0
    6.8084   -5.8078  -18.3852 H   0  0  0  0  0  0  0  0  0  0  0  0
    8.1012   -5.4698  -17.1846 H   0  0  0  0  0  0  0  0  0  0  0  0
    8.7146   -2.2292  -17.6971 H   0  0  0  0  0  0  0  0  0  0  0  0
    7.2102   -1.8983  -18.6213 H   0  0  0  0  0  0  0  0  0  0  0  0
    4.8937    8.4688  -17.9580 H   0  0  0  0  0  0  0  0  0  0  0  0
    5.9266    8.5269  -16.4896 H   0  0  0  0  0  0  0  0  0  0  0  0
    6.7890    5.3416  -19.1103 H   0  0  0  0  0  0  0  0  0  0  0  0
    5.4445    6.4091  -19.6387 H   0  0  0  0  0  0  0  0  0  0  0  0
    4.9559    6.4481  -15.6493 H   0  0  0  0  0  0  0  0  0  0  0  0
    3.6147    7.5608  -16.0847 H   0  0  0  0  0  0  0  0  0  0  0  0
    6.1967   -4.7533  -15.9700 H   0  0  0  0  0  0  0  0  0  0  0  0
    5.4856    4.5503  -17.1979 H   0  0  0  0  0  0  0  0  0  0  0  0
   10.7296    1.1174  -13.9848 H   0  0  0  0  0  0  0  0  0  0  0  0
    9.6488    2.4621  -13.4849 H   0  0  0  0  0  0  0  0  0  0  0  0
    9.4905    0.8481  -12.7125 H   0  0  0  0  0  0  0  0  0  0  0  0
    5.3654   10.6515  -23.3211 H   0  0  0  0  0  0  0  0  0  0  0  0
    4.4644   10.9045  -21.7880 H   0  0  0  0  0  0  0  0  0  0  0  0
    6.0103   11.7730  -22.0750 H   0  0  0  0  0  0  0  0  0  0  0  0
    2.1942   -2.4046  -16.7322 H   0  0  0  0  0  0  0  0  0  0  0  0
    2.7154   -2.8429  -18.3943 H   0  0  0  0  0  0  0  0  0  0  0  0
    2.2948   -4.1316  -17.2157 H   0  0  0  0  0  0  0  0  0  0  0  0
    4.3716    2.7957  -21.4367 H   0  0  0  0  0  0  0  0  0  0  0  0
    3.7192    1.7437  -20.1350 H   0  0  0  0  0  0  0  0  0  0  0  0
    5.0730   -3.7551  -18.6565 H   0  0  0  0  0  0  0  0  0  0  0  0
    4.4382   -5.0988  -17.6474 H   0  0  0  0  0  0  0  0  0  0  0  0
    3.5482    3.4881  -18.3222 H   0  0  0  0  0  0  0  0  0  0  0  0
    6.1186    3.6444  -19.9737 H   0  0  0  0  0  0  0  0  0  0  0  0
    5.2584    1.4786  -18.1020 H   0  0  0  0  0  0  0  0  0  0  0  0
    3.2615    5.3546  -16.8956 H   0  0  0  0  0  0  0  0  0  0  0  0
    3.4095    6.4035  -18.1385 H   0  0  0  0  0  0  0  0  0  0  0  0
    3.1732    4.1156  -20.5426 H   0  0  0  0  0  0  0  0  0  0  0  0
  1  9  2  0  0  0  0
  1 10  1  0  0  0  0
  2  9  1  0  0  0  0
  2 11  2  0  0  0  0
  3 10  2  0  0  0  0
  3 11  1  0  0  0  0
  4 12  1  0  0  0  0
  4 13  2  0  0  0  0
  5 12  2  0  0  0  0
  5 14  1  0  0  0  0
  6 13  1  0  0  0  0
  6 14  2  0  0  0  0
  7 15  2  0  0  0  0
  7 34  1  0  0  0  0
  8 33  2  0  0  0  0
  8 34  1  0  0  0  0
  9 16  1  0  0  0  0
 10 17  1  0  0  0  0
 11 26  1  0  0  0  0
 12 29  1  0  0  0  0
 13 45  1  0  0  0  0
 14 46  1  0  0  0  0
 15 33  1  0  0  0  0
 15 47  1  0  0  0  0
 16 35  1  0  0  0  0
 16 39  2  0  0  0  0
 17 37  1  0  0  0  0
 17 40  2  0  0  0  0
 18 19  1  0  0  0  0
 18 20  1  0  0  0  0
 19 24  1  0  0  0  0
 20 35  1  0  0  0  0
 21 23  1  0  0  0  0
 21 36  1  0  0  0  0
 22 25  1  0  0  0  0
 22 36  1  0  0  0  0
 23 38  1  0  0  0  0
 24 30  1  0  0  0  0
 24 35  1  0  0  0  0
 25 31  1  0  0  0  0
 25 38  1  0  0  0  0
 27 34  1  0  0  0  0
 28 44  1  0  0  0  0
 29 32  1  0  0  0  0
 30 44  1  0  0  0  0
 31 32  1  0  0  0  0
 31 43  1  0  0  0  0
 32 37  1  0  0  0  0
 36 47  1  0  0  0  0
 41 47  2  0  0  0  0
 42 47  2  0  0  0  0
  1 48  1  0  0  0  0
  2 49  1  0  0  0  0
  3 50  1  0  0  0  0
  4 51  1  0  0  0  0
  5 52  1  0  0  0  0
  6 53  1  0  0  0  0
  7 54  1  0  0  0  0
  8 55  1  0  0  0  0
 18 56  1  0  0  0  0
 18 57  1  0  0  0  0
 19 58  1  0  0  0  0
 19 59  1  0  0  0  0
 20 60  1  0  0  0  0
 20 61  1  0  0  0  0
 21 62  1  0  0  0  0
 21 63  1  0  0  0  0
 22 64  1  0  0  0  0
 22 65  1  0  0  0  0
 23 66  1  0  0  0  0
 23 67  1  0  0  0  0
 24 68  1  0  0  0  0
 25 69  1  0  0  0  0
 26 70  1  0  0  0  0
 26 71  1  0  0  0  0
 26 72  1  0  0  0  0
 27 73  1  0  0  0  0
 27 74  1  0  0  0  0
 27 75  1  0  0  0  0
 28 76  1  0  0  0  0
 28 77  1  0  0  0  0
 28 78  1  0  0  0  0
 29 79  1  0  0  0  0
 29 80  1  0  0  0  0
 30 81  1  0  0  0  0
 30 82  1  0  0  0  0
 31 83  1  0  0  0  0
 32 84  1  0  0  0  0
 37 85  1  0  0  0  0
 38 86  1  0  0  0  0
 38 87  1  0  0  0  0
 43 88  1  0  0  0  0
M  CHG  1  38   1
M  END
> <OMEGA_C>
XCDdQCYHMj6DwoXBrrwCQfQyqL76HGvBxxoGQSEH7j8C9nvB4zPaQHixrz9If6zBX0mlQGWJhr7I
fqbB+cPoQAXCgb9cOa7B/1DPQI/BGkFSTqLBQTrYQBjSCkGKoLLByeToQAx8Or+8RnvBqcfuQOxm
vD/p+YXB1HMLQRzqdz8CV2vBO/axQHq1iT9q7afBlqf1QOlApz7NmK/BqnzAQFoSp7+utanBuzLn
QGaCCEEARqHB6HjXQDmMBcD9IXvBkAviQONhGkACb47Bj9T8QNtvfcBq55XB6gzqQEujoMAJdo7B
5W73QAhWKMA95o/BcvStQGug+0BkvInBE22+QPXsvkBsJZbBLxiOQJJx3kA12IPBOvrJQBYoiMDe
jIfBnVWeQE7HokDx8o/Bu2wbQUQ4sD8valrBs9uuQPZRLUHY7LHBmgYwQM3MSMArrorBpUGUQDXD
C0BxfKTBRuudQBjDg8BNBI3BGLmIQKUEgkCPV5fBD6qpQMjqREB2B5zBWO3rQEzt/UAec6vBmY7G
QPCAG0Hh96zBqavdQKe8O8CqSIbB9xTPQA904UCcTY/B5oy6QIgMD0BMXJPB5Xh5QCD/vUDrNIvB
bz3EQGTAHsAKPWvB99b5QHCHVUCd6ZDB6nMBQfa3EEGux43BVbYNQcTa3ECfBZfBcNZlQA30l0C5
w5/BCrWDQFqcS8CxKofBZhkOQbAYHD9E9rPBvK6zQIuAJcB0f6jBYeL5QL53/EBprpTBm4rGQIT0
Ar591ovBzQUHQZ9Cgr95hF7BYUYNQWLeNUDCeXzBWeDjQLyaGUAAnK3BcqaGQMDG+b7X7KLB9cD9
QEKc6L+jobDBIrvFQJ3hJUH4JJzBalfWQAsLCEFIJLvB/m8PQZMvhcDYcpfBjUzrQDb7e8BgiJ3B
rt7ZQKHZucDcFJPBVJ4BQbwIr8AoeonB024LQVKrDsCUk43BCLrmQNj88r9T+JTB/picQF6AB0EN
qo/BD6e9QAhuCEG26oPBqz/ZQA3uqkDM4ZjBTDmuQEsXzUAbHJ3B+paeQKxWzkCWY3rB31ZnQP/x
8UCErYDB+0rGQAUbmMDzhH/BxomvQC2ckUBflYnBTqwrQVMGjz+rwV/BgWEaQd2THUD1wVfBP9kX
QUMeWT9tZkvBIrGrQIZsKkGskbrBE9yOQNB4LkHHTa7BsFTAQAhePEGxmbDBTG0MQK7kGcCE24XB
r8gtQHvyNcCAJ5PBSN4SQOA1hMCpuYnBXOSLQEDtMkBKfqvBEwduQPMx3z+NFKHBL1aiQOFTcMBs
QJXBvgWOQFEpo8DcLY3BzhVjQKo8X0Dtk5LBkcvDQIc+aUA8yp/BfUSoQLFBvT/j0JDBcbxQQBtZ
q0A6KofBzTRaQD3pzECZG5HB6xVLQFezg0A7V6TBjSDcQNIn6D1o54XBaGsCQWblyL6Zf2vBwjEG
QUAV5D8RpnzBuznZQBwEoj9YqqzBRp2iQDO7l752XqbBVenkQGrCkb9qJa7BjrbmQDDNBEGcmarB
gIW/QDSNI0FcyqvBwcznQITGSb/8eHvBB5HuQPSDsz8gQIbB/GsLQXMgZT/98mvBLNKwQEA9gz/4
/qfBFkrzQNzbOz6+tK/BuXy8QJwusL+Kg6nBL0/iQEHiDUHOraDBjyjWQE9ICcBl8nrBTYriQCkf
FkBExo7BqWP6QPJsgcAsu5XBbQ7oQARTo8D8Lo7B6hvzQDDiLMDAEJDB+LSrQO9D/EAy24nB/ZHA
QD2dwEDUZpbBDOKOQJ3D3EC03YPBa5vIQCrtisDMEYfBcu2gQOINo0BcUpDBF54bQWC/pT+zM1vB
WJPNQFTwDkGMz7zBxZ4tQDLtS8C2ronBKpiUQBp4C0DutqTBsMybQMoyh8A6KozBROeKQDaMgkDM
uJfBSveqQPU7REAyVZzBvgLKQGnTIEH4qqHBIZnQQHJEEkHsH7HBwvfbQFS5QMByFYbBmXfOQL7i
5ECwho/BYMW6QDOKDUDIm5PBizJ9QKqJvEBqWovB/HfEQDNdIsC7mGrB5Sj7QCGUT0AMYZHBqnX/
QARWE0Gk/ozBm+UMQfjY5kB425fBLLZqQOy6mECaJaDBlkOCQIXAUsCEGIbBlPUMQUdQ1D6uNrTB
hVWuQH0KKcB4H6jBBCP3QCv0AUHUoJTBQBbFQMcGOr5K5YvBmqkGQf0iir8W217BTJ4NQYllMEAY
Vn3B2hzkQNnbEUDa5q3B3dyDQEZb9b4mtaLBw9/4QDwh/L8+gLDBS7b3QC2/7EB4u6zBnFytQJOX
MEFwL6/BVmEOQeLohsBXC5fBl4zpQB4PgsAFdZ3BbGrXQPJyvMAlu5LB7M8AQdTVscANWInBCvkI
QckxDsAvQI7By9nfQMEgAsB3IpXBQXSYQO4JB0GfuY/BH/K5QIhkCUH/GoTB9NDcQPTlrUAUyZjB
HbGwQF9ZzUDMlJ3Bb2ehQHHkzEDiCnvBw7VnQLgr7kArSIDBwinGQLCTmsD6a37BzKyyQHCXkUDn
GYrBlMErQQkmgj84omDBV98aQRd6GEAtq1jBTQUYQcTnRj/oGEzB7y+6QLbFG0FnYsDBFNvtQH0u
D0FbUcDB5HC+QNrC/kAXbb7B4zQLQOZuHcCgqoTBDqosQEVUNsCqDpLBD1AOQOplhcDiE4nB8SSN
QJJWMkC3z6vBtX9tQOpT5D/fSKHBA+eeQIJzd8C7cpTBLzeMQLfCpsBMJYzBj6VmQOd9YUA18JLB
QavFQJunZkBgH6DBuIinQKDdvT/X+ZDBRiZWQPLEqEBmYofBz3BcQHxqy0DkIZHBcHtPQHWhhECq
uKTB

> <OMEGA_E>
eA6CPihTPD4=

> <OMEGA_NBR>
     27190

$$$$
50162154
  -OEChem-04172616093D

 81 84  0     1  0  0  0  0  0999 V2000
    6.8895    0.0603  -16.6768 C   0  0  0  0  0  0  0  0  0  0  0  0
    8.0629   -0.4934  -14.6123 C   0  0  0  0  0  0  0  0  0  0  0  0
    8.3637    1.7004  -15.6323 C   0  0  0  0  0  0  0  0  0  0  0  0
    6.9704    1.2956  -21.4561 C   0  0  0  0  0  0  0  0  0  0  0  0
    5.2429   -0.3038  -20.8011 C   0  0  0  0  0  0  0  0  0  0  0  0
    7.3614   -1.0982  -21.7107 C   0  0  0  0  0  0  0  0  0  0  0  0
    7.1970   -0.8620  -15.6580 C   0  0  0  0  0  0  0  0  0  0  0  0
    7.4720    1.3466  -16.6682 C   0  0  0  0  0  0  0  0  0  0  0  0
    8.6383    0.7905  -14.5923 C   0  0  0  0  0  0  0  0  0  0  0  0
    5.6861    1.0265  -20.9335 C   0  0  0  0  0  0  0  0  0  0  0  0
    7.8094    0.2325  -21.8377 C   0  0  0  0  0  0  0  0  0  0  0  0
    6.0750   -1.3635  -21.1988 C   0  0  0  0  0  0  0  0  0  0  0  0
    6.6117   -2.2050  -15.6760 C   0  0  0  0  0  0  0  0  0  0  0  0
    7.1259    2.3149  -17.7201 C   0  0  0  0  0  0  0  0  0  0  0  0
    7.8239   -4.0964  -18.6896 C   0  0  0  0  0  0  0  0  0  0  0  0
    7.1918   -5.1455  -17.7775 C   0  0  0  0  0  0  0  0  0  0  0  0
    7.6705   -2.7670  -17.9351 C   0  0  0  0  0  0  0  0  0  0  0  0
    5.3961    7.9126  -17.2779 C   0  0  0  0  0  0  0  0  0  0  0  0
    6.0562    6.0056  -18.7977 C   0  0  0  0  0  0  0  0  0  0  0  0
    4.5167    6.9367  -16.4898 C   0  0  0  0  0  0  0  0  0  0  0  0
    6.1785   -4.3608  -16.9456 C   0  0  2  0  0  0  0  0  0  0  0  0
    5.0816    5.0977  -17.9986 C   0  0  2  0  0  0  0  0  0  0  0  0
    9.6030    1.1666  -13.4921 C   0  0  0  0  0  0  0  0  0  0  0  0
    2.6425   -3.2075  -17.4074 C   0  0  0  0  0  0  0  0  0  0  0  0
    6.9189    9.0815  -20.1017 C   0  0  0  0  0  0  0  0  0  0  0  0
    4.7725    2.1573  -20.5266 C   0  0  0  0  0  0  0  0  0  0  0  0
    4.8304   -4.1862  -17.6741 C   0  0  0  0  0  0  0  0  0  0  0  0
    4.4062    4.0470  -18.8941 C   0  0  2  0  0  0  0  0  0  0  0  0
    5.4300    3.0434  -19.4527 C   0  0  1  0  0  0  0  0  0  0  0  0
    6.8176   -3.0531  -16.7625 N   0  0  0  0  0  0  0  0  0  0  0  0
    6.4772    7.1878  -18.0053 N   0  0  1  0  0  0  0  0  0  0  0  0
    5.8995    2.1859  -18.3571 N   0  0  0  0  0  0  0  0  0  0  0  0
    4.0058    5.9014  -17.3933 N   0  3  0  0  0  0  0  0  0  0  0  0
    5.9730   -2.5888  -14.7024 O   0  0  0  0  0  0  0  0  0  0  0  0
    7.8950    3.2287  -17.9989 O   0  0  0  0  0  0  0  0  0  0  0  0
    8.7041    7.2857  -19.3164 O   0  0  0  0  0  0  0  0  0  0  0  0
    8.0968    9.1744  -17.7269 O   0  0  0  0  0  0  0  0  0  0  0  0
    3.7170    4.7040  -19.9600 O   0  0  0  0  0  0  0  0  0  0  0  0
    3.9882   -3.2932  -16.9172 O   0  0  0  0  0  0  0  0  0  0  0  0
    9.0380    0.4903  -22.3402 F   0  0  0  0  0  0  0  0  0  0  0  0
    5.6302   -2.6350  -21.0999 F   0  0  0  0  0  0  0  0  0  0  0  0
    7.6946    8.1773  -18.7278 S   0  0  0  0  0  0  0  0  0  0  0  0
    6.2066   -0.2167  -17.4663 H   0  0  0  0  0  0  0  0  0  0  0  0
    8.2863   -1.1968  -13.8238 H   0  0  0  0  0  0  0  0  0  0  0  0
    8.8366    2.6713  -15.6371 H   0  0  0  0  0  0  0  0  0  0  0  0
    7.3079    2.3160  -21.5627 H   0  0  0  0  0  0  0  0  0  0  0  0
    4.2638   -0.5091  -20.3940 H   0  0  0  0  0  0  0  0  0  0  0  0
    8.0040   -1.9146  -22.0056 H   0  0  0  0  0  0  0  0  0  0  0  0
    8.8866   -4.3231  -18.8609 H   0  0  0  0  0  0  0  0  0  0  0  0
    7.2975   -4.0558  -19.6547 H   0  0  0  0  0  0  0  0  0  0  0  0
    6.6898   -5.9250  -18.3695 H   0  0  0  0  0  0  0  0  0  0  0  0
    7.9518   -5.6085  -17.1309 H   0  0  0  0  0  0  0  0  0  0  0  0
    8.6543   -2.3978  -17.6098 H   0  0  0  0  0  0  0  0  0  0  0  0
    7.1919   -2.0156  -18.5803 H   0  0  0  0  0  0  0  0  0  0  0  0
    4.7721    8.4524  -18.0054 H   0  0  0  0  0  0  0  0  0  0  0  0
    5.8509    8.6312  -16.5803 H   0  0  0  0  0  0  0  0  0  0  0  0
    6.9481    5.4210  -19.0676 H   0  0  0  0  0  0  0  0  0  0  0  0
    5.5531    6.3504  -19.7131 H   0  0  0  0  0  0  0  0  0  0  0  0
    5.1126    6.4670  -15.6934 H   0  0  0  0  0  0  0  0  0  0  0  0
    3.6727    7.4825  -16.0427 H   0  0  0  0  0  0  0  0  0  0  0  0
    6.0186   -4.8588  -15.9779 H   0  0  0  0  0  0  0  0  0  0  0  0
    5.6482    4.5815  -17.2096 H   0  0  0  0  0  0  0  0  0  0  0  0
   10.6250    0.8879  -13.7887 H   0  0  0  0  0  0  0  0  0  0  0  0
    9.5550    2.2516  -13.3176 H   0  0  0  0  0  0  0  0  0  0  0  0
    9.3313    0.6342  -12.5686 H   0  0  0  0  0  0  0  0  0  0  0  0
    2.0670   -2.5106  -16.7804 H   0  0  0  0  0  0  0  0  0  0  0  0
    2.6529   -2.8435  -18.4454 H   0  0  0  0  0  0  0  0  0  0  0  0
    2.1756   -4.2029  -17.3726 H   0  0  0  0  0  0  0  0  0  0  0  0
    7.6677    9.7246  -20.5872 H   0  0  0  0  0  0  0  0  0  0  0  0
    6.5214    8.3640  -20.8346 H   0  0  0  0  0  0  0  0  0  0  0  0
    6.0980    9.7029  -19.7144 H   0  0  0  0  0  0  0  0  0  0  0  0
    4.5466    2.7721  -21.4104 H   0  0  0  0  0  0  0  0  0  0  0  0
    3.8390    1.7375  -20.1237 H   0  0  0  0  0  0  0  0  0  0  0  0
    5.0060   -3.7648  -18.6749 H   0  0  0  0  0  0  0  0  0  0  0  0
    4.3357   -5.1641  -17.7697 H   0  0  0  0  0  0  0  0  0  0  0  0
    3.6838    3.4896  -18.2796 H   0  0  0  0  0  0  0  0  0  0  0  0
    6.2733    3.5916  -19.8980 H   0  0  0  0  0  0  0  0  0  0  0  0
    5.2910    1.4554  -18.0471 H   0  0  0  0  0  0  0  0  0  0  0  0
    3.4038    5.2932  -16.8759 H   0  0  0  0  0  0  0  0  0  0  0  0
    3.4854    6.3426  -18.1244 H   0  0  0  0  0  0  0  0  0  0  0  0
    3.2989    4.0557  -20.5145 H   0  0  0  0  0  0  0  0  0  0  0  0
  1  7  2  0  0  0  0
  1  8  1  0  0  0  0
  2  7  1  0  0  0  0
  2  9  2  0  0  0  0
  3  8  2  0  0  0  0
  3  9  1  0  0  0  0
  4 10  1  0  0  0  0
  4 11  2  0  0  0  0
  5 10  2  0  0  0  0
  5 12  1  0  0  0  0
  6 11  1  0  0  0  0
  6 12  2  0  0  0  0
  7 13  1  0  0  0  0
  8 14  1  0  0  0  0
  9 23  1  0  0  0  0
 10 26  1  0  0  0  0
 11 40  1  0  0  0  0
 12 41  1  0  0  0  0
 13 30  1  0  0  0  0
 13 34  2  0  0  0  0
 14 32  1  0  0  0  0
 14 35  2  0  0  0  0
 15 16  1  0  0  0  0
 15 17  1  0  0  0  0
 16 21  1  0  0  0  0
 17 30  1  0  0  0  0
 18 20  1  0  0  0  0
 18 31  1  0  0  0  0
 19 22  1  0  0  0  0
 19 31  1  0  0  0  0
 20 33  1  0  0  0  0
 21 27  1  0  0  0  0
 21 30  1  0  0  0  0
 22 28  1  0  0  0  0
 22 33  1  0  0  0  0
 24 39  1  0  0  0  0
 25 42  1  0  0  0  0
 26 29  1  0  0  0  0
 27 39  1  0  0  0  0
 28 29  1  0  0  0  0
 28 38  1  0  0  0  0
 29 32  1  0  0  0  0
 31 42  1  0  0  0  0
 36 42  2  0  0  0  0
 37 42  2  0  0  0  0
  1 43  1  0  0  0  0
  2 44  1  0  0  0  0
  3 45  1  0  0  0  0
  4 46  1  0  0  0  0
  5 47  1  0  0  0  0
  6 48  1  0  0  0  0
 15 49  1  0  0  0  0
 15 50  1  0  0  0  0
 16 51  1  0  0  0  0
 16 52  1  0  0  0  0
 17 53  1  0  0  0  0
 17 54  1  0  0  0  0
 18 55  1  0  0  0  0
 18 56  1  0  0  0  0
 19 57  1  0  0  0  0
 19 58  1  0  0  0  0
 20 59  1  0  0  0  0
 20 60  1  0  0  0  0
 21 61  1  0  0  0  0
 22 62  1  0  0  0  0
 23 63  1  0  0  0  0
 23 64  1  0  0  0  0
 23 65  1  0  0  0  0
 24 66  1  0  0  0  0
 24 67  1  0  0  0  0
 24 68  1  0  0  0  0
 25 69  1  0  0  0  0
 25 70  1  0  0  0  0
 25 71  1  0  0  0  0
 26 72  1  0  0  0  0
 26 73  1  0  0  0  0
 27 74  1  0  0  0  0
 27 75  1  0  0  0  0
 28 76  1  0  0  0  0
 29 77  1  0  0  0  0
 32 78  1  0  0  0  0
 33 79  1  0  0  0  0
 33 80  1  0  0  0  0
 38 81  1  0  0  0  0
M  CHG  1  33   1
M  END
> <OMEGA_C>
jXbcQDgWdz0BaoXBswEBQaqh/L7cy2nBnNEFQUym2T++HXrBcA3fQGjWpT8kpqvBzMWnQM+Om76q
aKbBtJDrQAqSjL91r63Bxk3mQKCpXL9Uh3rB3BrvQHBcrD9lWIXBiTYKQbBeSj8vemnBjvS1QO5i
gz/Fd6fBwub5QLATbj6ws67BNmbCQDCHrr8ul6nBGpPTQI4eDcAU0XrBgAfkQMAnFEC8wo3BPl36
QGEVg8BjhJXBJiPmQOKnpMBYOI7BDHX1QOcWMcAne4/BEq2sQKoz/UAsOYrBuMzBQOYtwEDDYZbB
roiQQEj53UAD64PBYbbFQICLi8CdkIfBG5yiQGwgo0AO/Y/B7aUZQQpSlT+y31fB/B0pQOFGTcBS
QovB4GfdQNtNEUE/0KDBUriYQC8RCkCSNqTBdZKaQKz1hcCkZI3Bdf+MQBSBgUAOJ5fBS8KtQJPG
QkAcn5vBrynaQB9mQ8ClGYbBQEXPQMoC5kDyCpDBosi8QLTlC0BL25LBmy+AQE7YvECBJYvBpyK/
QLWuJcDsPGvBqKP8QNmiTkDU/Y/BB0QLQWAk6UD+h5rBo4wBQX7KEkGl0I3B6+JtQDiHlkAQrp/B
1z5/QEzDUsBsVofB0psQQeQI+z64uLLBnyq0QLijKMCNzKjB2jn2QEzWAkGF0pXBnJzGQDXlXb77
uovBqJQEQRYymb8+Ll3Bj2INQUf3KkBvMXrBcNrpQK04FEBjgKzBXnGIQLtWAr8CJ6PBWRAAQT8S
9b9pC7DBWS8OQaVWisAM45bBGoXpQFzJgcDDPJ3B4hLWQIOZvcCl9JLBv3T+QMd4s8AcDInBE3gK
QSJ1GcDi4IzB7CPmQN//AMCFpJTBQrWYQAo9B0EAC5DBojq7QGwZCkFipITB8VbeQOJ4rUBhipjB
0rKxQKQ2y0B4tJ3BsZqjQHLxzkANGHvBew1rQD1w70CIV4DBIJjAQDl7m8CepX/B+b20QOSbkkA6
rYnBz/8pQVtMYz+InlzBVeEYQbAZEEC9FFXBIk0VQQReIj8YGUnBOUkEQPKsIMAvPobBiskpQCr7
NcAZkJPBwzwLQMB9hsAM+4rBMV71QNqXG0GcsqTBlq/QQPrSBUFLrabBsyLDQO4+G0Elt53BqX2R
QNRpMUB6SKvBhbJ1QBxn3j89/aDBhTGgQFXycMAzZpXBVr6KQDVApcBuKI7BHMRrQHZVX0C4PJLB
277IQALcZUAUL5/B9E+pQF5Juj9/YJDBV9hZQNhhqUDhAYfBzBBfQJX2ykDQ/pDBmyFTQHzIgUCr
HaTByw3cQJCUcj34d4XB+MUAQefI+b402mnBlJ8FQUq12T/OSHrBsdOnQN3zkr5UiKbBOG7fQLNF
pz92qqvBFcrrQG5Zi79Up63Bx9vlQAAGXL9okXrBVbPuQFQ6rD8Ca4XB1mQKQfR+SD8B4GnBsSa2
QCpVhT/jk6fB7nTCQNm5rL8jpanBG0j6QK5qdj7Lp67BAUzTQJ0ODcB4wHrBG7njQFkYFEAS1o3B
Mb/4QF71gsC+pJXBs6zmQHGhpMBnCo7Bw070QFbhMMCAk4/Bn7CsQKRP/UAIOorB6KbBQHROwEDD
ZJbBzlaQQLIq3kB68YPBFQjGQGEQjMDHU4fBOXiiQCU/o0DRApDBessYQZxkmD+ymlfBi8spQAn5
TcA5J4vBiRPeQLsSEUFD36DBz+aYQKMoC0CCX6TBbVOaQCfsh8DB+YzBsOmMQGi0gUBQNpfBZ7et
QC9eQ0AatJvB3GTZQAAhQ8DKHIbBID3PQE395UCfCJDBN4e8QOwbDEBE9JLBqgeAQDX4vECnKovB
JAjAQLBwJsC84WrBb4b8QKQyTkAdF5DB+GcLQVKq6ECpYprBqJUBQUq9EkExzY3B5M5tQDvVlkCN
up/ByAKAQBE8U8BlRofBHQm0QHKeJ8B04KjBft0QQbHh/D6xnLLB0XL2QDq1AkHbyJXBGkHGQJjN
Yb7YyYvBogQEQbD8lr8S/FzBeukMQRGGK0BxNHrBdV+IQJln+r6nVqPBlV3qQDfeFEDpfqzB1y0A
Qfsk9L8v9a/BdUUNQeWjicBRc5fB0kjmQDQfgsAOIp3ByRnXQM+bvsAyhpLBEAoAQVEEssBv84jB
ofoJQd6MGcCZD43B0tnkQFGWAMCIrpTBGtqYQKdZB0GIDZDBQEu7QPIbCkF9oYTBrCLeQA6SrUBB
lZjBY4OxQFl5y0Dosp3BBUGjQBwoz0ClFHvBAppqQFW570AFaYDBh+jBQOerm8C0A3/Bu5O0QCas
kkA4tInBAXQpQeNzbj+VfFvBuYQXQTCoEUDYCVXBzeYTQT9NKT/A+EjBoQcGQJujHsBgaobBi1gq
QH9ROsBgmpPBjN0KQGd4hsAXa4rBVTn2QEtIG0G3vKTB6n3RQM6JBUEXuqbBwMHDQG8WG0Eo3J3B
iA2SQAHGMkB7cavBZq51QCTk4D+kPaHBXTOfQAhwecB8OpXBKluKQJlJp8A8GY3BrpFrQDuPX0Ab
UpLBjMvIQIafZkDvMZ/BavioQHbDuj9ngpDB1JZZQIKAqUBOBYfBBbReQB4My0BgBJHBjB9TQJ4k
gkD0L6TB9t3bQOCndj3dcIXBKhUBQafZ+75ODWrB7kUFQYs92z+HInrBF9XdQEzCqD8+iKvBZPqm
QCV0mb5nZabBKxvrQAr9iL/hp63B82rmQAK+Xb9Fv3rBA+vtQK9VrT8KUoXB+PoJQVjZTD9RoWnB
+MC0QEaKhD+AX6fBDw75QOGmhz46m67BafHBQMS1rL83nqnBvX3UQA0fDsDuK3vBADfiQCzfFECf
pY3BnQz6QPlRgcAuL5bB+3npQArmo8CBpo7BrbD1QHD8LsD81Y/BFbaqQD3mAEE4bozB0rXEQMfO
vkDFIJbB7byTQGAb4kCp8ITBLLvIQAqsjMDcqofBj1qiQGHOo0AJB5DBQmoZQQN1lz/aEFjBNust
QIuXUsAxJYvBN5zFQDbSH0EkaaDBQRKXQAn9CUCDEKTBJ3qcQGi8icD7DI3B2/SLQDHkgkDAPpfB
IB6sQLLwQkDdhJvBaaraQLj5QsDBb4bBfmS7QCNs7UC4cJbBgMm6QB+NDEB8q5LBiiCBQP8Lv0DS
KYvBX6PBQEPyKMAXVGvBV4f6QAjgT0DT3Y/Bi7fiQCU890C4jajBShkCQaeiCUHhXZfBvsZuQL3E
mEBk2p/BxRWAQKzpYcCPZobBWioQQbozCT9PmbLB+/qzQLj2J8A/76jBLjbeQJb0BUGiC57B1+3F
QKwmYb7MuovBwOcEQQFOmb8pi13BmqIMQTcnLEA1KnrBwlLoQGfpFUDAWazBR66HQAJWBL9yK6PB
lvP/QFuO8L9BBbDBOtoNQcFHh8DBSZjBtafmQHEZgMCThZ3BjjraQJT4vcBtK5PBfs8BQQL0sMCa
vonBdK4KQTdqGMBOO43Bo1nmQMsL+78+yZTB3/uTQEOQDUEpro7Btc3FQBv/B0EhE4jBu8XjQLUn
ukC5J5LB65XGQAQCs0DTZ57BQeOqQLIC1UAOWn7BREt0QMLw8kC4moDB8dzFQJ69nMDRvX/BaOiy
QGA3kkBWoInBk84pQdYhbD+y7VzBdGUYQXMIEUBFJVXBO0cVQdvtIz8VVEnBDGAGQIuYLMCPoIXB
kiU2QFdXL8BhsZLBCjMOQN0NiMA1wYzBbD7bQLnKKUHJPaXBNjunQN6aHUEyt6TBYW2/QBnAJ0E8
tZjBa2OPQMo0MUCcHavBx+xyQFfP3D/PyKDBULafQA9XdMDn5pTBaFGPQCkbqsDkHI7BILxnQLnx
Y0CKa5LBHIDHQJWTZEBFHJ/BVRqnQDACvT8rF5DBUwxeQMIWrUB3VIbBpdddQKZgy0C8+ZDBavJS
QLeVhEDlWKTB02LcQHxIqT25lYXBZh4CQQYx5b47sWrB/v4FQTol3z8vSnvBDevbQDiFoj/TE6zB
UFClQMtunr4MEKbBYCToQNqvkL8Is63BiL3nQGYmVb+P+3rB8oruQPwmsD/7soXBKBMLQVZzVz9X
vGrB5k2zQJ38gT+Qj6fBsV72QHfiSD6SG6/BOYS/QO2fsL/DNqnBb9HVQBPnC8CZz3rB5YHiQPGI
FUAVHI7BNUv4QPWSgsDp7pXBcBTnQC1BpMBkN47BRc70QBAeMMCk0I/BX6WoQD0UAEHRv4vBjdbC
QJUbwED0jpbB16mSQNzZ3kANkYTBvYzHQL2ri8D9LYfBPRqiQORFo0B6a5DBmgsbQbwcnT8srlnB
XNcrQIPSTMBh2onBdkgFQbWvCEFnOJfBnmuWQHULCkBpY6TB4eaaQOqih8D2WIzBbcyLQMnBgkAc
tJfBNQCsQGYcQ0Dy8pvB0fjaQDEsQsCGKYbB3Xy3QIlt7kCYPZbBF+e6QCIWDUCFDZPBaYOAQP6r
vEAeIYvB/JLDQFZQJcD6pGrB1+n6QJPmT0DfhpDBwQvFQO3JHUHrBJ3BQcjdQE64/ECeYqjBjNhu
QNzgmED9TqDBzXOBQOg5U8BtUIbBUJQOQV5h4T7QfLPBEk6xQIhcKcC6BqjBgR3XQBkgCEEK0J3B
7cnFQFY7Ur7js4vBvS8GQXBtkr8eIF7BqmMNQVAHLkDCqnvBzqfmQMRWEkAiNK3BG3SGQESdAL8i
fqLBKlz8QKNF+r9ZDrDBdegMQWpeicAFA5jB8uPkQLWZgcCBRZ3B5rfWQHUKvsCvl5LBa40AQWnn
scBSX4nB8GYKQeMtGcB6h43BaOTkQEcp/7+Vy5TBVdCRQHwXDUGqVo3B5pHEQIh9BkHQdIfBeJri
QPfvu0DA6ZLBaujDQBW9tUC09p7BUkyqQBsy0UA8BX7BPeNxQPtm7kDf+H/BQMjEQD1Am8BQo37B
4PGzQP9ukUCcSIrBM0MrQQ/4dD93+V7BzjkaQU38E0C54lbB10YXQeK+MT8CwUrBAI4JQMz/HcAd
34TBcoEqQGfgN8C8QJLBbaoMQMnYhcDyJonBZDUQQac+E0F5qZvBzlQDQee8DkHDA4/BhfgLQR3U
8EDl95bBJh+PQJW/MEBRgqvBURhxQDYD4D+WD6HBJUqeQANkeMBioJTBORaLQGMVp8CkWYzBhSdn
QLt7Y0AB8ZLBCz3HQOSkZECfn5/Biz2nQNWavj8jZJDBR0BeQGVdqUCqdYbBi11bQJOpyUAjuZDB
bRhTQOjShECl2KTB

> <OMEGA_E>
sEZpPsCkZj5wleM+KGjkPg==

> <OMEGA_NBR>
     32502

$$$$
50162152
  -OEChem-04172616093D

 85 89  0     1  0  0  0  0  0999 V2000
    6.4014    9.7892  -20.4564 C   0  0  0  0  0  0  0  0  0  0  0  0
    6.1039    9.9542  -21.8908 C   0  0  0  0  0  0  0  0  0  0  0  0
    6.8964    0.1041  -16.7330 C   0  0  0  0  0  0  0  0  0  0  0  0
    8.1501   -0.4254  -14.7098 C   0  0  0  0  0  0  0  0  0  0  0  0
    8.3961    1.7620  -15.7546 C   0  0  0  0  0  0  0  0  0  0  0  0
    6.8193    1.3019  -21.5393 C   0  0  0  0  0  0  0  0  0  0  0  0
    5.1167   -0.2889  -20.8027 C   0  0  0  0  0  0  0  0  0  0  0  0
    7.1995   -1.0950  -21.7819 C   0  0  0  0  0  0  0  0  0  0  0  0
    7.2503   -0.8089  -15.7204 C   0  0  0  0  0  0  0  0  0  0  0  0
    7.4725    1.3930  -16.7560 C   0  0  0  0  0  0  0  0  0  0  0  0
    8.7140    0.8628  -14.7189 C   0  0  0  0  0  0  0  0  0  0  0  0
    5.5551    1.0397  -20.9677 C   0  0  0  0  0  0  0  0  0  0  0  0
    7.6428    0.2341  -21.9404 C   0  0  0  0  0  0  0  0  0  0  0  0
    5.9330   -1.3539  -21.2195 C   0  0  0  0  0  0  0  0  0  0  0  0
    7.1417    8.6573  -20.2088 C   0  0  0  0  0  0  0  0  0  0  0  0
    6.6193    8.9316  -22.6528 C   0  0  0  0  0  0  0  0  0  0  0  0
    6.6897   -2.1624  -15.7107 C   0  0  0  0  0  0  0  0  0  0  0  0
    7.0959    2.3475  -17.8080 C   0  0  0  0  0  0  0  0  0  0  0  0
    7.8326   -4.0301  -18.7562 C   0  0  0  0  0  0  0  0  0  0  0  0
    7.2182   -5.0941  -17.8439 C   0  0  0  0  0  0  0  0  0  0  0  0
    7.6033   -2.6926  -18.0379 C   0  0  0  0  0  0  0  0  0  0  0  0
    5.3847    7.8886  -17.2102 C   0  0  0  0  0  0  0  0  0  0  0  0
    6.0238    6.0007  -18.7570 C   0  0  0  0  0  0  0  0  0  0  0  0
    4.4791    6.9142  -16.4516 C   0  0  0  0  0  0  0  0  0  0  0  0
    6.2385   -4.3280  -16.9541 C   0  0  2  0  0  0  0  0  0  0  0  0
    5.0308    5.0914  -17.9886 C   0  0  2  0  0  0  0  0  0  0  0  0
    9.7174    1.2515  -13.6597 C   0  0  0  0  0  0  0  0  0  0  0  0
    2.6875   -3.1549  -17.2797 C   0  0  0  0  0  0  0  0  0  0  0  0
    4.6589    2.1771  -20.5420 C   0  0  0  0  0  0  0  0  0  0  0  0
    4.8481   -4.1780  -17.6063 C   0  0  0  0  0  0  0  0  0  0  0  0
    4.3432    4.0699  -18.9089 C   0  0  2  0  0  0  0  0  0  0  0  0
    5.3510    3.0667  -19.4927 C   0  0  1  0  0  0  0  0  0  0  0  0
    6.8670   -3.0125  -16.8006 N   0  0  0  0  0  0  0  0  0  0  0  0
    6.4628    7.1478  -17.9225 N   0  0  1  0  0  0  0  0  0  0  0  0
    5.8520    2.2133  -18.4081 N   0  0  0  0  0  0  0  0  0  0  0  0
    3.9626    5.9023  -17.3786 N   0  3  0  0  0  0  0  0  0  0  0  0
    6.1131   -2.5598  -14.7043 O   0  0  0  0  0  0  0  0  0  0  0  0
    7.8605    3.2536  -18.1212 O   0  0  0  0  0  0  0  0  0  0  0  0
    7.8993    9.2906  -17.7537 O   0  0  0  0  0  0  0  0  0  0  0  0
    8.8650    7.1991  -18.8437 O   0  0  0  0  0  0  0  0  0  0  0  0
    3.6596    4.7559  -19.9601 O   0  0  0  0  0  0  0  0  0  0  0  0
    4.0518   -3.2462  -16.8452 O   0  0  0  0  0  0  0  0  0  0  0  0
    8.8511    0.4859  -22.4924 F   0  0  0  0  0  0  0  0  0  0  0  0
    5.4935   -2.6247  -21.0875 F   0  0  0  0  0  0  0  0  0  0  0  0
    7.4501    7.7645  -21.6719 S   0  0  0  0  0  0  0  0  0  0  0  0
    7.7297    8.0988  -18.5965 S   0  0  0  0  0  0  0  0  0  0  0  0
    6.5073    8.8133  -24.3877 Cl  0  0  0  0  0  0  0  0  0  0  0  0
    6.0759   10.4769  -19.6899 H   0  0  0  0  0  0  0  0  0  0  0  0
    5.5447   10.7839  -22.2973 H   0  0  0  0  0  0  0  0  0  0  0  0
    6.1838   -0.1819  -17.4925 H   0  0  0  0  0  0  0  0  0  0  0  0
    8.4083   -1.1214  -13.9254 H   0  0  0  0  0  0  0  0  0  0  0  0
    8.8601    2.7368  -15.7828 H   0  0  0  0  0  0  0  0  0  0  0  0
    7.1537    2.3207  -21.6683 H   0  0  0  0  0  0  0  0  0  0  0  0
    4.1539   -0.4887  -20.3561 H   0  0  0  0  0  0  0  0  0  0  0  0
    7.8306   -1.9149  -22.0914 H   0  0  0  0  0  0  0  0  0  0  0  0
    8.9086   -4.2143  -18.8915 H   0  0  0  0  0  0  0  0  0  0  0  0
    7.3344   -4.0302  -19.7370 H   0  0  0  0  0  0  0  0  0  0  0  0
    6.6894   -5.8547  -18.4371 H   0  0  0  0  0  0  0  0  0  0  0  0
    7.9960   -5.5790  -17.2357 H   0  0  0  0  0  0  0  0  0  0  0  0
    8.5663   -2.2187  -17.7972 H   0  0  0  0  0  0  0  0  0  0  0  0
    7.0099   -2.0164  -18.6709 H   0  0  0  0  0  0  0  0  0  0  0  0
    4.7833    8.4467  -17.9429 H   0  0  0  0  0  0  0  0  0  0  0  0
    5.8386    8.5920  -16.4966 H   0  0  0  0  0  0  0  0  0  0  0  0
    6.9051    5.4075  -19.0426 H   0  0  0  0  0  0  0  0  0  0  0  0
    5.5310    6.3844  -19.6625 H   0  0  0  0  0  0  0  0  0  0  0  0
    5.0566    6.4212  -15.6557 H   0  0  0  0  0  0  0  0  0  0  0  0
    3.6383    7.4663  -16.0063 H   0  0  0  0  0  0  0  0  0  0  0  0
    6.1412   -4.8320  -15.9812 H   0  0  0  0  0  0  0  0  0  0  0  0
    5.5810    4.5508  -17.2044 H   0  0  0  0  0  0  0  0  0  0  0  0
   10.7289    0.9772  -13.9939 H   0  0  0  0  0  0  0  0  0  0  0  0
    9.6693    2.3373  -13.4901 H   0  0  0  0  0  0  0  0  0  0  0  0
    9.4850    0.7234  -12.7232 H   0  0  0  0  0  0  0  0  0  0  0  0
    2.1504   -2.4280  -16.6527 H   0  0  0  0  0  0  0  0  0  0  0  0
    2.6582   -2.8261  -18.3290 H   0  0  0  0  0  0  0  0  0  0  0  0
    2.2078   -4.1407  -17.1908 H   0  0  0  0  0  0  0  0  0  0  0  0
    4.4105    2.7876  -21.4227 H   0  0  0  0  0  0  0  0  0  0  0  0
    3.7354    1.7642  -20.1098 H   0  0  0  0  0  0  0  0  0  0  0  0
    4.9648   -3.8047  -18.6344 H   0  0  0  0  0  0  0  0  0  0  0  0
    4.3462   -5.1567  -17.6264 H   0  0  0  0  0  0  0  0  0  0  0  0
    3.6147    3.5073  -18.3066 H   0  0  0  0  0  0  0  0  0  0  0  0
    6.1803    3.6131  -19.9657 H   0  0  0  0  0  0  0  0  0  0  0  0
    5.2539    1.4829  -18.0782 H   0  0  0  0  0  0  0  0  0  0  0  0
    3.3461    5.2947  -16.8779 H   0  0  0  0  0  0  0  0  0  0  0  0
    3.4564    6.3644  -18.1068 H   0  0  0  0  0  0  0  0  0  0  0  0
    3.2352    4.1236  -20.5280 H   0  0  0  0  0  0  0  0  0  0  0  0
  1  2  1  0  0  0  0
  1 15  2  0  0  0  0
  2 16  2  0  0  0  0
  3  9  2  0  0  0  0
  3 10  1  0  0  0  0
  4  9  1  0  0  0  0
  4 11  2  0  0  0  0
  5 10  2  0  0  0  0
  5 11  1  0  0  0  0
  6 12  1  0  0  0  0
  6 13  2  0  0  0  0
  7 12  2  0  0  0  0
  7 14  1  0  0  0  0
  8 13  1  0  0  0  0
  8 14  2  0  0  0  0
  9 17  1  0  0  0  0
 10 18  1  0  0  0  0
 11 27  1  0  0  0  0
 12 29  1  0  0  0  0
 13 43  1  0  0  0  0
 14 44  1  0  0  0  0
 15 45  1  0  0  0  0
 15 46  1  0  0  0  0
 16 45  1  0  0  0  0
 16 47  1  0  0  0  0
 17 33  1  0  0  0  0
 17 37  2  0  0  0  0
 18 35  1  0  0  0  0
 18 38  2  0  0  0  0
 19 20  1  0  0  0  0
 19 21  1  0  0  0  0
 20 25  1  0  0  0  0
 21 33  1  0  0  0  0
 22 24  1  0  0  0  0
 22 34  1  0  0  0  0
 23 26  1  0  0  0  0
 23 34  1  0  0  0  0
 24 36  1  0  0  0  0
 25 30  1  0  0  0  0
 25 33  1  0  0  0  0
 26 31  1  0  0  0  0
 26 36  1  0  0  0  0
 28 42  1  0  0  0  0
 29 32  1  0  0  0  0
 30 42  1  0  0  0  0
 31 32  1  0  0  0  0
 31 41  1  0  0  0  0
 32 35  1  0  0  0  0
 34 46  1  0  0  0  0
 39 46  2  0  0  0  0
 40 46  2  0  0  0  0
  1 48  1  0  0  0  0
  2 49  1  0  0  0  0
  3 50  1  0  0  0  0
  4 51  1  0  0  0  0
  5 52  1  0  0  0  0
  6 53  1  0  0  0  0
  7 54  1  0  0  0  0
  8 55  1  0  0  0  0
 19 56  1  0  0  0  0
 19 57  1  0  0  0  0
 20 58  1  0  0  0  0
 20 59  1  0  0  0  0
 21 60  1  0  0  0  0
 21 61  1  0  0  0  0
 22 62  1  0  0  0  0
 22 63  1  0  0  0  0
 23 64  1  0  0  0  0
 23 65  1  0  0  0  0
 24 66  1  0  0  0  0
 24 67  1  0  0  0  0
 25 68  1  0  0  0  0
 26 69  1  0  0  0  0
 27 70  1  0  0  0  0
 27 71  1  0  0  0  0
 27 72  1  0  0  0  0
 28 73  1  0  0  0  0
 28 74  1  0  0  0  0
 28 75  1  0  0  0  0
 29 76  1  0  0  0  0
 29 77  1  0  0  0  0
 30 78  1  0  0  0  0
 30 79  1  0  0  0  0
 31 80  1  0  0  0  0
 32 81  1  0  0  0  0
 35 82  1  0  0  0  0
 36 83  1  0  0  0  0
 36 84  1  0  0  0  0
 41 85  1  0  0  0  0
M  CHG  1  36   1
M  END
> <OMEGA_C>
DdjMQL2gHEHOpqPBNlPDQHBEH0FUIK/BMa/cQJI/1T1E3YXBpGYCQd7O2b5BW2vBOVYGQRaJ4T/g
EnzBGzjaQLGkpj93UKzBOryjQKDqk77ka6bBkGLmQJMnjL9DQa7BJgLoQOMVT7/thnvBpB7vQIxO
sj9PDIbBqmwLQZDfXD/CgGvBjMOxQHwUhT/lvafBf5H0QGmvbz71ha/B/dq9QBlOrb+TwanBtojk
QHCECkGyq6HBEdHTQPPnDkHcOLXBBRLWQItkCsDUXnvBhRHjQKQ8FkC5do7Br6T6QEL2gMDJDJbB
bvvmQCEDo8BJwI7B2U3zQD5TLMC3TZDBL0+sQG5v/ECFronBGMPAQJ4FwEBtDpbBjlSPQNpA3UDV
nIPBwqHHQP1+isAJoofB9fugQMHsokCz6I/BjnobQdowoD9SjlrBnAAsQC7pScC/PIrBohWVQCNW
C0DxVaTBeSObQHSyhcC32YzBGvuKQNQ8gkB/RZfBNjurQCxEREAX8ZvBwb7bQJ3MQMCSZ4bBpM/O
QPC65EBFYY/B5kO7QKumDUDKQ5PBe5t9QAbgvEBoB4vBbp7DQBTTI8CiRGvB2Ij7QGo6UEAr+JDB
DMf8QCKmFEGRB47BGtcNQc9e5kDuv5bBHjdqQJQwmEBNrp/BDqiBQPjBT8AKw4bBRp4NQbLG+D5m
8LPBpcqvQKn6J8Ats6jBAmfuQOd2+EAKYK3BlFn3QNuUAUGIxZTB6TvQQC0DDUH+GcPBIG7CQGCh
J0HghJ3BK26xQAeLLEHNYLLBneHFQOxPOr6h8IvBaYgGQe2Jj79Kzl7BJ8MNQYsnL0B3hnzBMevk
QFKGFEDEWK3Bz+yEQNo1+r472aLBIpT6QAgd9b8eu7DBlIkOQafbhsDiIZfBbrPqQJj3gMBJ5Z3B
Vw/WQFlZu8BGf5PBdd//QH+HssDQ4onBow8JQSv/DcC8YI7BU1HgQAUMAcAZXpXBuBCZQJ4lB0Em
i4/BztW6QKp4CUEO+YPBXPbcQJEKrUBRV5jBr/2wQAJNzEDRTJ3Brc+hQGl6zUC2fXrBgtpoQBDs
7kDaDIDBv4TEQOufmsAms3/BY5eyQM+fkUCsoonBqakrQWIrej/t5l/BT7UaQayVFUBh11fBeMIX
QbIuOT9dkkvBcaAJQI1jG8CuOIXBqyAqQL3eNMC9oZLB5EsNQLaAhMCyhonBJyONQBtoMkCiYavB
gxFvQN/S4T/b4KDB19+eQLl/c8A/E5XB7xOLQE4DpcDVAo3B1ldnQAN3YEDkc5LB6MTFQFQ8Z0C6
uZ/BIyCoQB3RvT8hoJDBCidWQHluqUDaBYfBzDVdQEipy0C52pDBpQ1PQEP0g0BWOaTB

> <OMEGA_E>
wJoTPg==

> <OMEGA_NBR>
     34216

$$$$
50162157
  -OEChem-04172616093D

 85 89  0     1  0  0  0  0  0999 V2000
    6.8687    0.0444  -16.6748 C   0  0  0  0  0  0  0  0  0  0  0  0
    8.0214   -0.5182  -14.6015 C   0  0  0  0  0  0  0  0  0  0  0  0
    8.3502    1.6715  -15.6201 C   0  0  0  0  0  0  0  0  0  0  0  0
    7.0065    1.3067  -21.4972 C   0  0  0  0  0  0  0  0  0  0  0  0
    5.2711   -0.2752  -20.8204 C   0  0  0  0  0  0  0  0  0  0  0  0
    7.3903   -1.0928  -21.7068 C   0  0  0  0  0  0  0  0  0  0  0  0
    7.1598   -0.8793  -15.6535 C   0  0  0  0  0  0  0  0  0  0  0  0
    7.4651    1.3234  -16.6638 C   0  0  0  0  0  0  0  0  0  0  0  0
    8.6081    0.7604  -14.5774 C   0  0  0  0  0  0  0  0  0  0  0  0
    5.7186    1.0505  -20.9778 C   0  0  0  0  0  0  0  0  0  0  0  0
    7.8429    0.2342  -21.8575 C   0  0  0  0  0  0  0  0  0  0  0  0
    6.1022   -1.3444  -21.1918 C   0  0  0  0  0  0  0  0  0  0  0  0
    6.5640   -2.2173  -15.6773 C   0  0  0  0  0  0  0  0  0  0  0  0
    7.1436    2.2889  -17.7239 C   0  0  0  0  0  0  0  0  0  0  0  0
    7.7783   -4.1067  -18.6914 C   0  0  0  0  0  0  0  0  0  0  0  0
    6.7567   10.2013  -20.7708 C   0  0  0  0  0  0  0  0  0  0  0  0
    7.2394    9.0100  -21.6045 C   0  0  0  0  0  0  0  0  0  0  0  0
    7.1341   -5.1555  -17.7875 C   0  0  0  0  0  0  0  0  0  0  0  0
    7.6220   -2.7776  -17.9372 C   0  0  0  0  0  0  0  0  0  0  0  0
    5.4596    7.8401  -17.1633 C   0  0  0  0  0  0  0  0  0  0  0  0
    6.1351    5.9360  -18.6978 C   0  0  0  0  0  0  0  0  0  0  0  0
    4.5741    6.8492  -16.4073 C   0  0  0  0  0  0  0  0  0  0  0  0
    6.5575    8.7743  -20.2488 C   0  0  0  0  0  0  0  0  0  0  0  0
    6.1245   -4.3692  -16.9520 C   0  0  2  0  0  0  0  0  0  0  0  0
    5.1215    5.0415  -17.9426 C   0  0  2  0  0  0  0  0  0  0  0  0
    9.5688    1.1274  -13.4705 C   0  0  0  0  0  0  0  0  0  0  0  0
    2.6148   -3.1448  -17.4656 C   0  0  0  0  0  0  0  0  0  0  0  0
    4.8172    2.1900  -20.5725 C   0  0  0  0  0  0  0  0  0  0  0  0
    4.7773   -4.1876  -17.6798 C   0  0  0  0  0  0  0  0  0  0  0  0
    4.4477    4.0314  -18.8876 C   0  0  2  0  0  0  0  0  0  0  0  0
    5.4716    3.0417  -19.4696 C   0  0  1  0  0  0  0  0  0  0  0  0
    6.7683   -3.0643  -16.7651 N   0  0  0  0  0  0  0  0  0  0  0  0
    6.5346    7.1520  -17.9414 N   0  0  1  0  0  0  0  0  0  0  0  0
    5.9335    2.1580  -18.3920 N   0  0  0  0  0  0  0  0  0  0  0  0
    4.0537    5.8601  -17.3512 N   0  3  0  0  0  0  0  0  0  0  0  0
    5.9237   -2.6006  -14.7045 O   0  0  0  0  0  0  0  0  0  0  0  0
    7.9213    3.2003  -17.9841 O   0  0  0  0  0  0  0  0  0  0  0  0
    8.6724    7.3932  -19.3553 O   0  0  0  0  0  0  0  0  0  0  0  0
    7.8417    9.3695  -17.9780 O   0  0  0  0  0  0  0  0  0  0  0  0
    3.7791    4.7295  -19.9421 O   0  0  0  0  0  0  0  0  0  0  0  0
    3.9260   -3.3169  -16.9079 O   0  0  0  0  0  0  0  0  0  0  0  0
    9.0758    0.4791  -22.3560 F   0  0  0  0  0  0  0  0  0  0  0  0
    5.6565   -2.6121  -21.0580 F   0  0  0  0  0  0  0  0  0  0  0  0
    7.5641    8.2038  -18.8286 S   0  0  0  0  0  0  0  0  0  0  0  0
    6.1878   -0.2261  -17.4683 H   0  0  0  0  0  0  0  0  0  0  0  0
    8.2327   -1.2235  -13.8114 H   0  0  0  0  0  0  0  0  0  0  0  0
    8.8306    2.6388  -15.6214 H   0  0  0  0  0  0  0  0  0  0  0  0
    7.3488    2.3240  -21.6176 H   0  0  0  0  0  0  0  0  0  0  0  0
    4.2894   -0.4696  -20.4144 H   0  0  0  0  0  0  0  0  0  0  0  0
    8.0305   -1.9166  -21.9859 H   0  0  0  0  0  0  0  0  0  0  0  0
    8.8419   -4.3365  -18.8523 H   0  0  0  0  0  0  0  0  0  0  0  0
    7.2616   -4.0632  -19.6615 H   0  0  0  0  0  0  0  0  0  0  0  0
    7.4878   10.8661  -20.2876 H   0  0  0  0  0  0  0  0  0  0  0  0
    5.8898   10.7904  -21.1045 H   0  0  0  0  0  0  0  0  0  0  0  0
    6.7186    8.7434  -22.5360 H   0  0  0  0  0  0  0  0  0  0  0  0
    8.3166    8.8191  -21.7191 H   0  0  0  0  0  0  0  0  0  0  0  0
    6.6272   -5.9267  -18.3862 H   0  0  0  0  0  0  0  0  0  0  0  0
    7.8884   -5.6293  -17.1421 H   0  0  0  0  0  0  0  0  0  0  0  0
    8.6048   -2.4068  -17.6110 H   0  0  0  0  0  0  0  0  0  0  0  0
    7.1428   -2.0272  -18.5831 H   0  0  0  0  0  0  0  0  0  0  0  0
    4.8325    8.4175  -17.8586 H   0  0  0  0  0  0  0  0  0  0  0  0
    5.9275    8.5225  -16.4385 H   0  0  0  0  0  0  0  0  0  0  0  0
    7.0378    5.3420  -18.9032 H   0  0  0  0  0  0  0  0  0  0  0  0
    5.6798    6.2516  -19.6482 H   0  0  0  0  0  0  0  0  0  0  0  0
    5.1667    6.3425  -15.6314 H   0  0  0  0  0  0  0  0  0  0  0  0
    3.7373    7.3864  -15.9371 H   0  0  0  0  0  0  0  0  0  0  0  0
    5.5379    8.3615  -20.2494 H   0  0  0  0  0  0  0  0  0  0  0  0
    5.9630   -4.8698  -15.9860 H   0  0  0  0  0  0  0  0  0  0  0  0
    5.6531    4.4917  -17.1520 H   0  0  0  0  0  0  0  0  0  0  0  0
   10.5900    0.8387  -13.7599 H   0  0  0  0  0  0  0  0  0  0  0  0
    9.5302    2.2129  -13.2965 H   0  0  0  0  0  0  0  0  0  0  0  0
    9.2855    0.5980  -12.5488 H   0  0  0  0  0  0  0  0  0  0  0  0
    2.0282   -2.4712  -16.8236 H   0  0  0  0  0  0  0  0  0  0  0  0
    2.6990   -2.7103  -18.4726 H   0  0  0  0  0  0  0  0  0  0  0  0
    2.1121   -4.1212  -17.5284 H   0  0  0  0  0  0  0  0  0  0  0  0
    4.6221    2.8245  -21.4497 H   0  0  0  0  0  0  0  0  0  0  0  0
    3.8674    1.7818  -20.1967 H   0  0  0  0  0  0  0  0  0  0  0  0
    4.9532   -3.7437  -18.6708 H   0  0  0  0  0  0  0  0  0  0  0  0
    4.2897   -5.1665  -17.7978 H   0  0  0  0  0  0  0  0  0  0  0  0
    3.7125    3.4574  -18.3045 H   0  0  0  0  0  0  0  0  0  0  0  0
    6.3182    3.6007  -19.8948 H   0  0  0  0  0  0  0  0  0  0  0  0
    5.3325    1.4067  -18.1192 H   0  0  0  0  0  0  0  0  0  0  0  0
    3.4166    5.2589  -16.8690 H   0  0  0  0  0  0  0  0  0  0  0  0
    3.5706    6.3381  -18.0848 H   0  0  0  0  0  0  0  0  0  0  0  0
    3.3642    4.1033  -20.5237 H   0  0  0  0  0  0  0  0  0  0  0  0
  1  7  2  0  0  0  0
  1  8  1  0  0  0  0
  2  7  1  0  0  0  0
  2  9  2  0  0  0  0
  3  8  2  0  0  0  0
  3  9  1  0  0  0  0
  4 10  1  0  0  0  0
  4 11  2  0  0  0  0
  5 10  2  0  0  0  0
  5 12  1  0  0  0  0
  6 11  1  0  0  0  0
  6 12  2  0  0  0  0
  7 13  1  0  0  0  0
  8 14  1  0  0  0  0
  9 26  1  0  0  0  0
 10 28  1  0  0  0  0
 11 42  1  0  0  0  0
 12 43  1  0  0  0  0
 13 32  1  0  0  0  0
 13 36  2  0  0  0  0
 14 34  1  0  0  0  0
 14 37  2  0  0  0  0
 15 18  1  0  0  0  0
 15 19  1  0  0  0  0
 16 17  1  0  0  0  0
 16 23  1  0  0  0  0
 17 23  1  0  0  0  0
 18 24  1  0  0  0  0
 19 32  1  0  0  0  0
 20 22  1  0  0  0  0
 20 33  1  0  0  0  0
 21 25  1  0  0  0  0
 21 33  1  0  0  0  0
 22 35  1  0  0  0  0
 23 44  1  0  0  0  0
 24 29  1  0  0  0  0
 24 32  1  0  0  0  0
 25 30  1  0  0  0  0
 25 35  1  0  0  0  0
 27 41  1  0  0  0  0
 28 31  1  0  0  0  0
 29 41  1  0  0  0  0
 30 31  1  0  0  0  0
 30 40  1  0  0  0  0
 31 34  1  0  0  0  0
 33 44  1  0  0  0  0
 38 44  2  0  0  0  0
 39 44  2  0  0  0  0
  1 45  1  0  0  0  0
  2 46  1  0  0  0  0
  3 47  1  0  0  0  0
  4 48  1  0  0  0  0
  5 49  1  0  0  0  0
  6 50  1  0  0  0  0
 15 51  1  0  0  0  0
 15 52  1  0  0  0  0
 16 53  1  0  0  0  0
 16 54  1  0  0  0  0
 17 55  1  0  0  0  0
 17 56  1  0  0  0  0
 18 57  1  0  0  0  0
 18 58  1  0  0  0  0
 19 59  1  0  0  0  0
 19 60  1  0  0  0  0
 20 61  1  0  0  0  0
 20 62  1  0  0  0  0
 21 63  1  0  0  0  0
 21 64  1  0  0  0  0
 22 65  1  0  0  0  0
 22 66  1  0  0  0  0
 23 67  1  0  0  0  0
 24 68  1  0  0  0  0
 25 69  1  0  0  0  0
 26 70  1  0  0  0  0
 26 71  1  0  0  0  0
 26 72  1  0  0  0  0
 27 73  1  0  0  0  0
 27 74  1  0  0  0  0
 27 75  1  0  0  0  0
 28 76  1  0  0  0  0
 28 77  1  0  0  0  0
 29 78  1  0  0  0  0
 29 79  1  0  0  0  0
 30 80  1  0  0  0  0
 31 81  1  0  0  0  0
 34 82  1  0  0  0  0
 35 83  1  0  0  0  0
 35 84  1  0  0  0  0
 40 85  1  0  0  0  0
M  CHG  1  35   1
M  END
> <OMEGA_C>
eMzbQEy7NT38ZYXBgFcAQZ+oBL/vn2nBbJoFQUL01T8L7HnBFjXgQBRDpz84+qvBJq2oQJDmjL5D
kKbBXH3sQFfgi7+Mp63BtBzlQDMbYb/NdHrBSOLuQHRmqT+KT4XB6boJQYCpQj/0PGnB+/62QBl2
hj9/0qfBHPn6QInRbz483K7B+UTDQAgWrL/oiKnBIgzSQOznDcBB1nrBbJjkQMB8EkCayo3BuOf4
QAJqg8Dsh5XBHzfYQFI4I0GOKqbB0qjnQBQpEEEB1qzBgkrkQOj5pMDlTI7BBOfzQPjEMcBVf4/B
z7SuQGri+kB7TonBdlLEQBj0vUArlZXBQl+SQF0s20ArQoPBCtfRQFtjDEGK/aHBjPvDQGPQi8DL
nYfBgOOjQLpToUB5io/B7hkZQXROkD8hh1fBEFknQF1EScCTuYvBliaaQGooDECOlKTByt+YQH8A
hsBScI3BRlOOQIABgUDoGZfBbBevQJSrQkDGwZvBg5XYQBIdRMDqHobBYhvRQP7c5EDkh4/B/d69
QAgcCkDGIpPB7LeBQD2Gu0A7z4rBN4+9QMBvJsDGRWvB6nr9QO3RTEBh34/BLsIKQTKV7EDB15rB
3O76QIXpFUEB04/BiN1xQLhXl0B2iZ/BEEN7QIlIVMB3Q4fBcjYRQWpI9T4a2bLBtAG1QA4sJ8C9
dqjBRg3yQJVCA0HxoJbBTwLGQCCKZ779vovBErkDQXKanL92+1zBIkoNQezhKEAn8XnBKinrQKq7
FEDS8KzBCEOJQJdq8L6qUKPBHn0AQYpR9b8k46/Ba3gNQajEisCZ0ZbBXl/oQM8FgsDJSp3BWpzv
QJvbLUEPTaLBgHm8QIKlLEEP1qjBo/7WQBjlC0G/SbTBvhAFQTIbDUG/wK3BXBLUQKWnvcDaFpPB
uG38QNUitMAGI4nBdq0JQSMJGsBV44zBu5HkQB29AcAiqpTB8aOaQESuBkFk3o7BEK69QFtcCEEN
goPBbzXhQEPxqkC9OZfBr8C1QGQNyEBtL53B81WlQGz1ykAnGnrB2S9vQJld7ECC/n7BHzaxQOjI
BUG7/qHB+tC+QDrVm8B0xn/Bb+a0QPO7j0A1N4nB1HApQR6yVj99KFzBxHsYQaGfDUCqvlTBlZEU
QXAZGT/Vx0jBys4BQBwoHsCxlobBzLssQMZ0LcDzx5PBQy0HQOvgg8A7OozBR+iTQPnDNEDpmKvB
c4N3QMsS5D/IkqHBfYCeQPeYb8DgXZXBUUWJQPVTpcD0YY7BUJltQNFGXUClb5LBBy/KQFtxZkCV
KJ/BhaOqQIkPtD8J9JDB6KhaQLlIqECk84bBo4RkQOPRykCarZDBbE9XQEdOg0CaMKTBWkLdQOko
5j16o4XBSfkBQZd53L4XiGrBf7gGQUw14D9WSnvBqBTfQG65pT9WAqzB89GnQO96k74BcqbBrRrr
QHppjb9f2K3BLI7nQIagTb9k8nrBLCvwQEaSsj+QxIXBy1ILQdBpWT9ilmrBDRm2QAXZhD+2tKfB
kpn5QJ5CYz7LC6/BmBjCQCGfrb/QmanB8Y7UQPcmCcB123rBE5jkQLfIFkBtOI7BBvn3QIUWgsBN
vJXBPYIDQQl5B0FVPo7Bc4YPQdPV/0DaQZjB0S/lQCRRo8AAII7BOLf0QNvrLsChqI/BzpCaQJ2l
AUFldI7Bj8G+QFyzw0CzNZjBxWiUQAnH4UBeqYXBTO/8QDlvEUH1PJnB+H7FQKzuicADUYfBPaWj
QITWpEAKDJHBRRYbQZFCnT+5S1nBIcUoQCP+R8DXpIrBAu6YQAU5C0Ckk6TBwsCZQHuNhMB94IzB
TteMQFw4gkBAkJfBuMWtQDFTREAmBZzBHxLaQKEAQMBcHYbBStavQNSD8UDUQpjB7xq9QPQTDkC3
NJPBbUWDQGM8u0COoYrBeMfAQCz+IMAY/2rBqAH9QGJCUUCjmZDBy8OyQIDeHkGTlKDBOjXYQAZR
AEEeN6rBUaBpQF7klUC+8Z/Bsd5+QAw/T8A0wYbBE1QQQalu7j5eRrPBSoWzQC/YJ8B7s6jBgcbL
QGr1CkFrMaDBetXGQNI9K74H0ovBY7MFQWRakL/83l3Bt2gOQcD8LUDQqnvBZQvqQFT2E0CU96zB
p6iIQJh8974qDaPBCGz/QDrU9r9xLbDBkscMQRKeicDpk5fBlmrlQInDgMDDNJ3B+pbvQLPB+UBa
XIrBhOELQazwEEF4HojBFYggQXbxA0FyTJnBDnIMQUfD30BUipvBbLbUQDXDvMApmZLBUV3+QGWD
scBGGonBbFwKQfXrGMBSPY3BMIflQCQB/L+zuJTBHQR2QLz6B0GaupDBxnauQOayDkGXRovBHvnf
QDQRw0BZTZXBX6y9QJeyt0BYeqDBU06zQMSk2kBR14HBL7V7QKXQ7UDKOX/By/IDQdnmIUErs5rB
+TTBQNmFmcDx/37BbPW5QLuxlEAUkYvByFMrQbK0cD/LRF7BTnsaQfAvFEAmplbBe+0WQezbND+g
X0rBzd0EQH32GsAtlYXBFrMpQFJRMMA57pLBELsJQFuTg8AYZ4rB8fiRQJQiMkB3s6vBwtZ1QDKU
4T+uYKHBv5GeQEz/bsDQ9ZTB9c+JQDvbo8DNb43BUSluQMSNYUC5MZLBj5/IQA2sZ0AVm5/B6bap
QJ8ovz8+nZDBgKZxQMuIp0C35ITBW69VQLliw0BAYY/B1j1NQLN2gEDBAKTB

> <OMEGA_E>
IPZ0PnDE7D4=

> <OMEGA_NBR>
     37199

$$$$
50162127
  -OEChem-04172616093D

 87 90  0     1  0  0  0  0  0999 V2000
    5.7269   10.7571  -20.9061 C   0  0  0  0  0  0  0  0  0  0  0  0
    5.7967   10.2088  -22.2013 C   0  0  0  0  0  0  0  0  0  0  0  0
    6.3289   10.0876  -19.8254 C   0  0  0  0  0  0  0  0  0  0  0  0
    6.8030    1.2086  -21.4579 C   0  0  0  0  0  0  0  0  0  0  0  0
    5.1455   -0.4022  -20.6633 C   0  0  0  0  0  0  0  0  0  0  0  0
    7.0797    8.3208  -21.3354 C   0  0  0  0  0  0  0  0  0  0  0  0
    7.1942   -1.1837  -21.7273 C   0  0  0  0  0  0  0  0  0  0  0  0
    6.4589    8.9807  -22.4161 C   0  0  0  0  0  0  0  0  0  0  0  0
    5.5708    0.9298  -20.8275 C   0  0  0  0  0  0  0  0  0  0  0  0
    7.6169    0.1502  -21.9012 C   0  0  0  0  0  0  0  0  0  0  0  0
    5.9530   -1.4571  -21.1177 C   0  0  0  0  0  0  0  0  0  0  0  0
    7.0179    8.8752  -20.0388 C   0  0  0  0  0  0  0  0  0  0  0  0
    6.6933   -2.0511  -15.5566 C   0  0  0  0  0  0  0  0  0  0  0  0
    7.2121    2.4573  -17.6878 C   0  0  0  0  0  0  0  0  0  0  0  0
    8.0183   -3.9356  -18.4443 C   0  0  0  0  0  0  0  0  0  0  0  0
    6.8454   -4.8375  -18.1047 C   0  0  0  0  0  0  0  0  0  0  0  0
    7.5875   -2.5861  -17.8957 C   0  0  0  0  0  0  0  0  0  0  0  0
    5.4175    7.8566  -17.2328 C   0  0  0  0  0  0  0  0  0  0  0  0
    5.9844    5.9646  -18.7879 C   0  0  0  0  0  0  0  0  0  0  0  0
    4.4670    6.9196  -16.4787 C   0  0  0  0  0  0  0  0  0  0  0  0
    6.3004   -4.2741  -16.7775 C   0  0  2  0  0  0  0  0  0  0  0  0
    5.0191    5.0711  -17.9779 C   0  0  2  0  0  0  0  0  0  0  0  0
    6.5707    8.4125  -23.8140 C   0  0  0  0  0  0  0  0  0  0  0  0
    2.7841   -3.0657  -17.3755 C   0  0  0  0  0  0  0  0  0  0  0  0
    4.6739    2.0483  -20.3721 C   0  0  0  0  0  0  0  0  0  0  0  0
    7.4574   -0.7206  -15.4709 C   0  0  0  0  0  0  0  0  0  0  0  0
    7.6943    1.5693  -16.5289 C   0  0  0  0  0  0  0  0  0  0  0  0
    4.7572   -4.2974  -16.7656 C   0  0  0  0  0  0  0  0  0  0  0  0
    6.8280    0.3004  -16.4269 C   0  0  0  0  0  0  0  0  0  0  0  0
    4.3565    4.0023  -18.8489 C   0  0  2  0  0  0  0  0  0  0  0  0
    5.3900    2.9989  -19.3927 C   0  0  1  0  0  0  0  0  0  0  0  0
    6.8555   -2.9037  -16.6561 N   0  0  0  0  0  0  0  0  0  0  0  0
    6.4727    7.0793  -17.9477 N   0  0  1  0  0  0  0  0  0  0  0  0
    5.9613    2.2285  -18.2696 N   0  0  0  0  0  0  0  0  0  0  0  0
    3.9482    5.8965  -17.3945 N   0  3  0  0  0  0  0  0  0  0  0  0
    5.9507   -2.3656  -14.6336 O   0  0  0  0  0  0  0  0  0  0  0  0
    7.9438    3.3575  -18.0812 O   0  0  0  0  0  0  0  0  0  0  0  0
    8.1477    9.0078  -17.6385 O   0  0  0  0  0  0  0  0  0  0  0  0
    8.7501    7.0570  -19.1579 O   0  0  0  0  0  0  0  0  0  0  0  0
    3.6567    4.6350  -19.9241 O   0  0  0  0  0  0  0  0  0  0  0  0
    4.2013   -3.2306  -17.5632 O   0  0  0  0  0  0  0  0  0  0  0  0
    8.7963    0.4150  -22.5071 F   0  0  0  0  0  0  0  0  0  0  0  0
    5.5334   -2.7328  -20.9667 F   0  0  0  0  0  0  0  0  0  0  0  0
    7.7519    7.9997  -18.6313 S   0  0  0  0  0  0  0  0  0  0  0  0
    5.2111   11.6918  -20.7426 H   0  0  0  0  0  0  0  0  0  0  0  0
    5.3428   10.7288  -23.0319 H   0  0  0  0  0  0  0  0  0  0  0  0
    6.2635   10.5025  -18.8304 H   0  0  0  0  0  0  0  0  0  0  0  0
    7.1199    2.2313  -21.5993 H   0  0  0  0  0  0  0  0  0  0  0  0
    4.1987   -0.6124  -20.1880 H   0  0  0  0  0  0  0  0  0  0  0  0
    7.6029    7.3904  -21.5000 H   0  0  0  0  0  0  0  0  0  0  0  0
    7.8219   -1.9965  -22.0615 H   0  0  0  0  0  0  0  0  0  0  0  0
    8.9393   -4.2848  -17.9546 H   0  0  0  0  0  0  0  0  0  0  0  0
    8.1769   -3.8871  -19.5317 H   0  0  0  0  0  0  0  0  0  0  0  0
    6.0781   -4.7911  -18.8916 H   0  0  0  0  0  0  0  0  0  0  0  0
    7.1784   -5.8782  -17.9783 H   0  0  0  0  0  0  0  0  0  0  0  0
    8.4638   -1.9577  -17.6788 H   0  0  0  0  0  0  0  0  0  0  0  0
    6.9324   -2.0675  -18.6112 H   0  0  0  0  0  0  0  0  0  0  0  0
    4.8416    8.4410  -17.9655 H   0  0  0  0  0  0  0  0  0  0  0  0
    5.8963    8.5386  -16.5148 H   0  0  0  0  0  0  0  0  0  0  0  0
    6.8403    5.3621  -19.1259 H   0  0  0  0  0  0  0  0  0  0  0  0
    5.4553    6.3726  -19.6617 H   0  0  0  0  0  0  0  0  0  0  0  0
    5.0110    6.4318  -15.6564 H   0  0  0  0  0  0  0  0  0  0  0  0
    3.6286    7.5020  -16.0690 H   0  0  0  0  0  0  0  0  0  0  0  0
    6.6705   -4.8964  -15.9494 H   0  0  0  0  0  0  0  0  0  0  0  0
    5.5852    4.5765  -17.1748 H   0  0  0  0  0  0  0  0  0  0  0  0
    7.4767    8.8053  -24.2986 H   0  0  0  0  0  0  0  0  0  0  0  0
    6.6301    7.3155  -23.7601 H   0  0  0  0  0  0  0  0  0  0  0  0
    5.6862    8.7035  -24.3998 H   0  0  0  0  0  0  0  0  0  0  0  0
    2.4234   -2.2412  -18.0081 H   0  0  0  0  0  0  0  0  0  0  0  0
    2.2667   -3.9954  -17.6548 H   0  0  0  0  0  0  0  0  0  0  0  0
    2.5786   -2.8346  -16.3198 H   0  0  0  0  0  0  0  0  0  0  0  0
    4.3485    2.6233  -21.2515 H   0  0  0  0  0  0  0  0  0  0  0  0
    3.7951    1.6171  -19.8702 H   0  0  0  0  0  0  0  0  0  0  0  0
    7.4080   -0.3363  -14.4414 H   0  0  0  0  0  0  0  0  0  0  0  0
    8.5085   -0.8841  -15.7511 H   0  0  0  0  0  0  0  0  0  0  0  0
    8.7408    1.2802  -16.7054 H   0  0  0  0  0  0  0  0  0  0  0  0
    7.6234    2.1330  -15.5870 H   0  0  0  0  0  0  0  0  0  0  0  0
    4.4120   -5.2610  -17.1685 H   0  0  0  0  0  0  0  0  0  0  0  0
    4.4070   -4.1869  -15.7287 H   0  0  0  0  0  0  0  0  0  0  0  0
    6.7341   -0.1520  -17.4251 H   0  0  0  0  0  0  0  0  0  0  0  0
    5.8305    0.5752  -16.0535 H   0  0  0  0  0  0  0  0  0  0  0  0
    3.6412    3.4475  -18.2239 H   0  0  0  0  0  0  0  0  0  0  0  0
    6.1838    3.5431  -19.9254 H   0  0  0  0  0  0  0  0  0  0  0  0
    5.4093    1.4834  -17.8952 H   0  0  0  0  0  0  0  0  0  0  0  0
    3.3226    5.3014  -16.8901 H   0  0  0  0  0  0  0  0  0  0  0  0
    3.4525    6.3500  -18.1352 H   0  0  0  0  0  0  0  0  0  0  0  0
    3.2441    3.9734  -20.4668 H   0  0  0  0  0  0  0  0  0  0  0  0
  1  2  2  0  0  0  0
  1  3  1  0  0  0  0
  2  8  1  0  0  0  0
  3 12  2  0  0  0  0
  4  9  1  0  0  0  0
  4 10  2  0  0  0  0
  5  9  2  0  0  0  0
  5 11  1  0  0  0  0
  6  8  2  0  0  0  0
  6 12  1  0  0  0  0
  7 10  1  0  0  0  0
  7 11  2  0  0  0  0
  8 23  1  0  0  0  0
  9 25  1  0  0  0  0
 10 42  1  0  0  0  0
 11 43  1  0  0  0  0
 12 44  1  0  0  0  0
 13 26  1  0  0  0  0
 13 32  1  0  0  0  0
 13 36  2  0  0  0  0
 14 27  1  0  0  0  0
 14 34  1  0  0  0  0
 14 37  2  0  0  0  0
 15 16  1  0  0  0  0
 15 17  1  0  0  0  0
 16 21  1  0  0  0  0
 17 32  1  0  0  0  0
 18 20  1  0  0  0  0
 18 33  1  0  0  0  0
 19 22  1  0  0  0  0
 19 33  1  0  0  0  0
 20 35  1  0  0  0  0
 21 28  1  0  0  0  0
 21 32  1  0  0  0  0
 22 30  1  0  0  0  0
 22 35  1  0  0  0  0
 24 41  1  0  0  0  0
 25 31  1  0  0  0  0
 26 29  1  0  0  0  0
 27 29  1  0  0  0  0
 28 41  1  0  0  0  0
 30 31  1  0  0  0  0
 30 40  1  0  0  0  0
 31 34  1  0  0  0  0
 33 44  1  0  0  0  0
 38 44  2  0  0  0  0
 39 44  2  0  0  0  0
  1 45  1  0  0  0  0
  2 46  1  0  0  0  0
  3 47  1  0  0  0  0
  4 48  1  0  0  0  0
  5 49  1  0  0  0  0
  6 50  1  0  0  0  0
  7 51  1  0  0  0  0
 15 52  1  0  0  0  0
 15 53  1  0  0  0  0
 16 54  1  0  0  0  0
 16 55  1  0  0  0  0
 17 56  1  0  0  0  0
 17 57  1  0  0  0  0
 18 58  1  0  0  0  0
 18 59  1  0  0  0  0
 19 60  1  0  0  0  0
 19 61  1  0  0  0  0
 20 62  1  0  0  0  0
 20 63  1  0  0  0  0
 21 64  1  0  0  0  0
 22 65  1  0  0  0  0
 23 66  1  0  0  0  0
 23 67  1  0  0  0  0
 23 68  1  0  0  0  0
 24 69  1  0  0  0  0
 24 70  1  0  0  0  0
 24 71  1  0  0  0  0
 25 72  1  0  0  0  0
 25 73  1  0  0  0  0
 26 74  1  0  0  0  0
 26 75  1  0  0  0  0
 27 76  1  0  0  0  0
 27 77  1  0  0  0  0
 28 78  1  0  0  0  0
 28 79  1  0  0  0  0
 29 80  1  0  0  0  0
 29 81  1  0  0  0  0
 30 82  1  0  0  0  0
 31 83  1  0  0  0  0
 34 84  1  0  0  0  0
 35 85  1  0  0  0  0
 35 86  1  0  0  0  0
 40 87  1  0  0  0  0
M  CHG  1  35   1
M  END
> <OMEGA_C>
ekK3QDwdLEG/P6fBuH65QCNXI0FDnLHB+4XKQOhmIUFSmp7BkLLZQF+zmj+7qavB4KekQObqzb5a
TqXBr4ziQPYhBUEAr6rB9zbmQNiCl7+Z0a3B7a7OQMWwD0FFVLPB0kOyQC0Kbj+4nqbB6L3zQInR
GT66Na/B736+QDCDur8L8ajBZZLgQNMADkF7T6DBNS/WQBBFA8DD53jBwsnmQBhFHUCkgI3B7koA
QQLhe8DljZPBeQ3bQK3MmsB41pDBr8zyQCyDJcBvKo/BSVytQJlp+0Dd3InB+n+/QBDevkCdTZbB
XvGOQANt3UBi1IPBAZ3JQIzFiMBoOIbBXpygQIJGokCz0o/BIkPSQL+ZBkEgg77BmC4yQBo0RMAD
AYvBa5CVQMkWA0AH+qLBZqPuQId6OL/yiHfBfjf2QC7fyD9GO4TB0DqYQCaEicDgH4bBVX/aQMbP
mT5NaoPBi2iLQNgSgECNypbBPHusQJXuP0AxJJvBqWDbQArXOcDFP4XBIyDPQK2J4kDQlI/B/MK+
QGifDkAoKJLBLK98QPuvvEDhJ4vBeWy+QE5lF8BkI2rBnjP+QCjhVkBjppDB7VwCQewfEEGVG43B
kQAMQdjS4UBdQ5nBKAdqQEFSlECaZJ/BVXGGQNDCTsBygYzBrb0MQS951D6ZDrTB7BGxQOXlLsC2
u6fB3w/4QJ79/0DaDJXB/8CmQKERO0HU8KXBWfiqQEapK0FbQbjBRG7IQDcKKEGUpJbBG9bjQGvO
DkBVy6zBCFyGQGvHHL8RgaHBtErzQGR+7EAXAKzBIU36QB2O/7/7fbDBYQcPQWEdicAJo4/BntQC
QbTGeMDwQJzB6n/CQINQmcDuIZfBzLXlQDkavMCA04/Bz2sHQWyU+r8ubo3BTNbdQDtSBMC+45TB
XO6aQGEOB0FouY/Bwq68QEWeCEFHHoTB/OPaQASWq0DvAZnByJGuQLrsy0A4S53BE1qgQCvRzUDN
gHrB9DpoQLMQ8EBOjYDB83TVQF6vnMDdMH/B7LmyQNdykkAJZonBP0HvQK3iDEGTY8LBGyrUQEwY
6kDEFL7BvPW1QHtBC0G8MsPBUhkbQAtwD8COEJDBnRERQOCzf8AGPY3BCgglQJhqNcALj4LBnCaL
QGHkJ0AhA6rBGONyQDj9zj839p7B9Q3tQOUvrL4nEGfB4iIIQdRVYr+yBHzBctoLQSvdoz+YpIXB
zfLzQGKCCEBOZHnB+C6NQL9ZqMAbWYnB3wWNQHf7hcCfqHvB+X3XQOirG76yZovBY5O6QEc9Ez+h
bYDBIgppQFykXECOypHB7+HFQFLCYkAuZ5/BUxmtQIrfvT9kKY/B36RUQK6kqUDjHofBNPVcQOky
y0DMFJHBk59PQGlMfkASvKPB

> <OMEGA_E>
YL9zPg==

> <OMEGA_NBR>
     38941

$$$$
50162155
  -OEChem-04172616093D

 91 95  0     1  0  0  0  0  0999 V2000
    5.6917   10.4881  -22.4997 C   0  0  0  0  0  0  0  0  0  0  0  0
    6.3418    9.3713  -23.0559 C   0  0  0  0  0  0  0  0  0  0  0  0
    5.7482   10.7167  -21.1111 C   0  0  0  0  0  0  0  0  0  0  0  0
    7.0582    8.4928  -22.2246 C   0  0  0  0  0  0  0  0  0  0  0  0
    6.4674    9.8388  -20.2765 C   0  0  0  0  0  0  0  0  0  0  0  0
    6.9138    0.0871  -16.7136 C   0  0  0  0  0  0  0  0  0  0  0  0
    8.1344   -0.4693  -14.6775 C   0  0  0  0  0  0  0  0  0  0  0  0
    8.4077    1.7277  -15.6982 C   0  0  0  0  0  0  0  0  0  0  0  0
    6.9195    1.3386  -21.4958 C   0  0  0  0  0  0  0  0  0  0  0  0
    5.1961   -0.2607  -20.8295 C   0  0  0  0  0  0  0  0  0  0  0  0
    7.3035   -1.0556  -21.7627 C   0  0  0  0  0  0  0  0  0  0  0  0
    7.2469   -0.8378  -15.7061 C   0  0  0  0  0  0  0  0  0  0  0  0
    7.4938    1.3734  -16.7152 C   0  0  0  0  0  0  0  0  0  0  0  0
    7.1358    8.7178  -20.8316 C   0  0  0  0  0  0  0  0  0  0  0  0
    8.7077    0.8161  -14.6665 C   0  0  0  0  0  0  0  0  0  0  0  0
    5.6399    1.0690  -20.9613 C   0  0  0  0  0  0  0  0  0  0  0  0
    7.7529    0.2748  -21.8895 C   0  0  0  0  0  0  0  0  0  0  0  0
    6.0214   -1.3201  -21.2395 C   0  0  0  0  0  0  0  0  0  0  0  0
    6.6656   -2.1835  -15.7191 C   0  0  0  0  0  0  0  0  0  0  0  0
    7.1252    2.3391  -17.7610 C   0  0  0  0  0  0  0  0  0  0  0  0
    7.7554   -4.0373  -18.8052 C   0  0  0  0  0  0  0  0  0  0  0  0
    7.2164   -5.1009  -17.8550 C   0  0  0  0  0  0  0  0  0  0  0  0
    7.6470   -2.7206  -18.0217 C   0  0  0  0  0  0  0  0  0  0  0  0
    5.4534    7.8813  -17.1699 C   0  0  0  0  0  0  0  0  0  0  0  0
    6.0394    5.9585  -18.6815 C   0  0  0  0  0  0  0  0  0  0  0  0
    4.4460    6.9660  -16.4536 C   0  0  0  0  0  0  0  0  0  0  0  0
    6.2187   -4.3455  -16.9781 C   0  0  2  0  0  0  0  0  0  0  0  0
    5.0069    5.0825  -17.9399 C   0  0  2  0  0  0  0  0  0  0  0  0
    9.6989    1.1901  -13.5885 C   0  0  0  0  0  0  0  0  0  0  0  0
    2.6724   -3.1874  -17.3519 C   0  0  0  0  0  0  0  0  0  0  0  0
    4.7301    2.1964  -20.5388 C   0  0  0  0  0  0  0  0  0  0  0  0
    8.1232    7.8527  -20.0565 C   0  0  0  0  0  0  0  0  0  0  0  0
    4.8335   -4.2151  -17.6414 C   0  0  0  0  0  0  0  0  0  0  0  0
    4.3545    4.0634  -18.8862 C   0  0  2  0  0  0  0  0  0  0  0  0
    5.3892    3.0721  -19.4583 C   0  0  1  0  0  0  0  0  0  0  0  0
    6.8196   -3.0132  -16.8296 N   0  0  0  0  0  0  0  0  0  0  0  0
    6.5019    7.0465  -17.8099 N   0  0  1  0  0  0  0  0  0  0  0  0
    5.8835    2.2115  -18.3736 N   0  0  0  0  0  0  0  0  0  0  0  0
    3.9374    5.9355  -17.3787 N   0  3  0  0  0  0  0  0  0  0  0  0
    6.0837   -2.5889  -14.7190 O   0  0  0  0  0  0  0  0  0  0  0  0
    7.8962    3.2440  -18.0609 O   0  0  0  0  0  0  0  0  0  0  0  0
    9.0371    6.8054  -17.8296 O   0  0  0  0  0  0  0  0  0  0  0  0
    8.0523    9.1306  -17.6893 O   0  0  0  0  0  0  0  0  0  0  0  0
    3.7029    4.7607  -19.9498 O   0  0  0  0  0  0  0  0  0  0  0  0
    3.9880   -3.3899  -16.8157 O   0  0  0  0  0  0  0  0  0  0  0  0
    8.9779    0.5312  -22.4016 F   0  0  0  0  0  0  0  0  0  0  0  0
    5.5729   -2.5900  -21.1412 F   0  0  0  0  0  0  0  0  0  0  0  0
    8.0042    7.7670  -18.2337 S   0  0  0  0  0  0  0  0  0  0  0  0
    5.1492   11.1702  -23.1375 H   0  0  0  0  0  0  0  0  0  0  0  0
    6.2906    9.1894  -24.1192 H   0  0  0  0  0  0  0  0  0  0  0  0
    5.2384   11.5679  -20.6846 H   0  0  0  0  0  0  0  0  0  0  0  0
    7.5549    7.6360  -22.6554 H   0  0  0  0  0  0  0  0  0  0  0  0
    6.5099   10.0196  -19.2126 H   0  0  0  0  0  0  0  0  0  0  0  0
    6.2126   -0.1885  -17.4873 H   0  0  0  0  0  0  0  0  0  0  0  0
    8.3758   -1.1740  -13.8955 H   0  0  0  0  0  0  0  0  0  0  0  0
    8.8777    2.7000  -15.7114 H   0  0  0  0  0  0  0  0  0  0  0  0
    7.2575    2.3588  -21.6021 H   0  0  0  0  0  0  0  0  0  0  0  0
    4.2210   -0.4658  -20.4130 H   0  0  0  0  0  0  0  0  0  0  0  0
    7.9416   -1.8723  -22.0665 H   0  0  0  0  0  0  0  0  0  0  0  0
    8.8028   -4.2470  -19.0678 H   0  0  0  0  0  0  0  0  0  0  0  0
    7.1492   -3.9937  -19.7221 H   0  0  0  0  0  0  0  0  0  0  0  0
    6.7150   -5.9053  -18.4130 H   0  0  0  0  0  0  0  0  0  0  0  0
    8.0270   -5.5273  -17.2458 H   0  0  0  0  0  0  0  0  0  0  0  0
    8.6460   -2.3757  -17.7167 H   0  0  0  0  0  0  0  0  0  0  0  0
    7.1653   -1.9484  -18.6395 H   0  0  0  0  0  0  0  0  0  0  0  0
    4.9326    8.4713  -17.9385 H   0  0  0  0  0  0  0  0  0  0  0  0
    5.9182    8.5597  -16.4393 H   0  0  0  0  0  0  0  0  0  0  0  0
    6.8989    5.3375  -18.9745 H   0  0  0  0  0  0  0  0  0  0  0  0
    5.5731    6.3869  -19.5810 H   0  0  0  0  0  0  0  0  0  0  0  0
    4.9429    6.4760  -15.6034 H   0  0  0  0  0  0  0  0  0  0  0  0
    3.6038    7.5712  -16.0871 H   0  0  0  0  0  0  0  0  0  0  0  0
    6.1211   -4.8434  -16.0021 H   0  0  0  0  0  0  0  0  0  0  0  0
    5.5159    4.5423  -17.1282 H   0  0  0  0  0  0  0  0  0  0  0  0
   10.7137    0.9134  -13.9107 H   0  0  0  0  0  0  0  0  0  0  0  0
    9.6541    2.2745  -13.4095 H   0  0  0  0  0  0  0  0  0  0  0  0
    9.4503    0.6547  -12.6603 H   0  0  0  0  0  0  0  0  0  0  0  0
    2.0912   -2.5512  -16.6681 H   0  0  0  0  0  0  0  0  0  0  0  0
    2.7482   -2.6969  -18.3335 H   0  0  0  0  0  0  0  0  0  0  0  0
    2.1692   -4.1590  -17.4653 H   0  0  0  0  0  0  0  0  0  0  0  0
    4.5018    2.8203  -21.4155 H   0  0  0  0  0  0  0  0  0  0  0  0
    3.7976    1.7730  -20.1372 H   0  0  0  0  0  0  0  0  0  0  0  0
    8.0133    6.8251  -20.4333 H   0  0  0  0  0  0  0  0  0  0  0  0
    9.1307    8.2247  -20.2946 H   0  0  0  0  0  0  0  0  0  0  0  0
    4.9428   -3.7528  -18.6336 H   0  0  0  0  0  0  0  0  0  0  0  0
    4.3820   -5.2123  -17.7493 H   0  0  0  0  0  0  0  0  0  0  0  0
    3.6122    3.4890  -18.3126 H   0  0  0  0  0  0  0  0  0  0  0  0
    6.2214    3.6354  -19.9056 H   0  0  0  0  0  0  0  0  0  0  0  0
    5.2820    1.4800  -18.0526 H   0  0  0  0  0  0  0  0  0  0  0  0
    3.2927    5.3533  -16.8834 H   0  0  0  0  0  0  0  0  0  0  0  0
    3.4641    6.3904  -18.1330 H   0  0  0  0  0  0  0  0  0  0  0  0
    3.2976    4.1346  -20.5382 H   0  0  0  0  0  0  0  0  0  0  0  0
  1  2  1  0  0  0  0
  1  3  2  0  0  0  0
  2  4  2  0  0  0  0
  3  5  1  0  0  0  0
  4 14  1  0  0  0  0
  5 14  2  0  0  0  0
  6 12  2  0  0  0  0
  6 13  1  0  0  0  0
  7 12  1  0  0  0  0
  7 15  2  0  0  0  0
  8 13  2  0  0  0  0
  8 15  1  0  0  0  0
  9 16  1  0  0  0  0
  9 17  2  0  0  0  0
 10 16  2  0  0  0  0
 10 18  1  0  0  0  0
 11 17  1  0  0  0  0
 11 18  2  0  0  0  0
 12 19  1  0  0  0  0
 13 20  1  0  0  0  0
 14 32  1  0  0  0  0
 15 29  1  0  0  0  0
 16 31  1  0  0  0  0
 17 46  1  0  0  0  0
 18 47  1  0  0  0  0
 19 36  1  0  0  0  0
 19 40  2  0  0  0  0
 20 38  1  0  0  0  0
 20 41  2  0  0  0  0
 21 22  1  0  0  0  0
 21 23  1  0  0  0  0
 22 27  1  0  0  0  0
 23 36  1  0  0  0  0
 24 26  1  0  0  0  0
 24 37  1  0  0  0  0
 25 28  1  0  0  0  0
 25 37  1  0  0  0  0
 26 39  1  0  0  0  0
 27 33  1  0  0  0  0
 27 36  1  0  0  0  0
 28 34  1  0  0  0  0
 28 39  1  0  0  0  0
 30 45  1  0  0  0  0
 31 35  1  0  0  0  0
 32 48  1  0  0  0  0
 33 45  1  0  0  0  0
 34 35  1  0  0  0  0
 34 44  1  0  0  0  0
 35 38  1  0  0  0  0
 37 48  1  0  0  0  0
 42 48  2  0  0  0  0
 43 48  2  0  0  0  0
  1 49  1  0  0  0  0
  2 50  1  0  0  0  0
  3 51  1  0  0  0  0
  4 52  1  0  0  0  0
  5 53  1  0  0  0  0
  6 54  1  0  0  0  0
  7 55  1  0  0  0  0
  8 56  1  0  0  0  0
  9 57  1  0  0  0  0
 10 58  1  0  0  0  0
 11 59  1  0  0  0  0
 21 60  1  0  0  0  0
 21 61  1  0  0  0  0
 22 62  1  0  0  0  0
 22 63  1  0  0  0  0
 23 64  1  0  0  0  0
 23 65  1  0  0  0  0
 24 66  1  0  0  0  0
 24 67  1  0  0  0  0
 25 68  1  0  0  0  0
 25 69  1  0  0  0  0
 26 70  1  0  0  0  0
 26 71  1  0  0  0  0
 27 72  1  0  0  0  0
 28 73  1  0  0  0  0
 29 74  1  0  0  0  0
 29 75  1  0  0  0  0
 29 76  1  0  0  0  0
 30 77  1  0  0  0  0
 30 78  1  0  0  0  0
 30 79  1  0  0  0  0
 31 80  1  0  0  0  0
 31 81  1  0  0  0  0
 32 82  1  0  0  0  0
 32 83  1  0  0  0  0
 33 84  1  0  0  0  0
 33 85  1  0  0  0  0
 34 86  1  0  0  0  0
 35 87  1  0  0  0  0
 38 88  1  0  0  0  0
 39 89  1  0  0  0  0
 39 90  1  0  0  0  0
 44 91  1  0  0  0  0
M  CHG  1  39   1
M  END
> <OMEGA_C>
JCK2QGHPJ0FJ/7PB9u/KQPfwFUFrcrjBcvG3QIR3K0GA46jBmNzhQGLiB0Hsy7HBKvXOQKxrHUFA
NqLBCj7dQLJtsj1atYXBhSYCQUBD8L7s1mrBvYUGQXEl3T/TK3vBYmzdQEVWqz9d96vBcEamQDB6
hb7CoqbBBrbpQPMdh7/4Ga7BNubnQMV3Vr8CTHvB8MzvQGrLrz+luIXBhFjkQBN8C0EVp6bB7lIL
Qb3qUD8AqmrBOHq0QAnUiD/WsKfBCBj4QMS0jD6ZHa/BSK/AQHL3qL9+6qnBkkzVQG6+C8CegXvB
cAHkQF6zFUCZFo7B6iv4QKAxgcAjcZbBpuzmQGM6o8Dx1o7BVLT0QFoeLsCJLJDB7IGuQJAz/EDg
W4nBKkPBQOervkDQc5XB6EWOQGPp3kAToYPB2v/GQCUOi8Ay04fBSDigQAykokD7hI/B3C4bQR9U
mD9ealnBnwgrQDT+S8Ce0IrB4FyXQIeRDEB8T6TBxfgBQQJJ+0Cuc6DBPqyaQBjihsCuIY3BFliL
QBMHgkD3FpfBeHSsQO+cRECRqpvBNDraQH7YQMAUo4bB1A/QQIp84UDFeo7B3EW8QH+JDUAw/ZLB
P/57QNrvvUCCB4vBoK3CQLmvJcDtgGvBXK38QOOdT0DMfJDBI5gQQW/F2UATo47BN9YAQQ4XEkGz
g43B2ftsQPBXmEA6mZ/BNzt/QOb0WMB9hobBhaUPQVn9Bz+QNrPBYlWyQMDCJcBDIanBEBEAQY2L
+ECG3pHBL8akQEe5MkGbGbnBl0zJQK8HE0Ef9MDBP6GnQFAWOUEjeqXB6MHxQD9a9EBHPrXBFFHQ
QFJQIEFes5nBmc3GQNoIQb4E5ovBRQMGQYJElr/aU17BEQsOQSPMLEDHYXvBqj3oQDb2FkAV0azB
LRKHQB167r7ITaPBTyH+QIKm778hiLDBM9gMQbvnh8DLipjBSMbkQFuZf8Dqxp3BEuHWQGj4vMDj
TZPBp24AQeffsMB594nB7lUKQc8KGMC2u43B7knlQIFk+b+qHZXBHdidQEiKB0EEgo/BzmG9QIX0
CEG1g4PBbcPcQBHNqkDXy5fBr1ayQLxhzEDNpZzBEyyeQAQ7z0BTp3nBZKRmQANH8kBWsoDBCeDD
QPL8msBcBIDBbYKwQDVakUB2BonBJ2srQYXVaT8Qkl7BF3caQSyREUBhjVbBoTQXQb6YJz91kErB
h9UFQJZHI8BbWIXBluIvQHGZLMAKq5LB6NQKQD4WhcACuYvBZA6QQJN/NED5UqvBkgxzQOXw4j8I
GaHBeDYAQRJn2kBod6PBLxcSQVyYA0FIW6LBmyueQLotcMCREZXBhzmMQIzLpsCo/o3BfC1nQJZL
X0BAgJLBBRbHQKyqaECYPp/BMgapQGRxvT+ha5DBELtSQBlOq0AkEYfBcbNdQHt+zEBlEJHB0gtT
QEZOhEApTqTB

> <OMEGA_E>
AK5dPg==

> <OMEGA_NBR>
     40750

$$$$
50168357
  -OEChem-04172616093D

 68 71  0     1  0  0  0  0  0999 V2000
    8.4007    6.9638  -18.5765 C   0  0  0  0  0  0  0  0  0  0  0  0
    7.5055    6.5676  -17.5646 C   0  0  0  0  0  0  0  0  0  0  0  0
    7.9395    7.7035  -19.6797 C   0  0  0  0  0  0  0  0  0  0  0  0
    5.6583    9.3362  -22.8937 C   0  0  0  0  0  0  0  0  0  0  0  0
    5.6900    7.6760  -18.7454 C   0  0  0  0  0  0  0  0  0  0  0  0
    6.2318    0.6547  -21.6327 C   0  0  0  0  0  0  0  0  0  0  0  0
    4.5515   -0.8429  -20.6823 C   0  0  0  0  0  0  0  0  0  0  0  0
    6.6133   -1.7536  -21.6173 C   0  0  0  0  0  0  0  0  0  0  0  0
    4.8609   10.1417  -21.9407 C   0  0  0  0  0  0  0  0  0  0  0  0
    6.4403    8.4925  -22.1510 C   0  0  0  0  0  0  0  0  0  0  0  0
    6.1346    6.9344  -17.6295 C   0  0  0  0  0  0  0  0  0  0  0  0
    4.9830    0.4612  -21.0043 C   0  0  0  0  0  0  0  0  0  0  0  0
    6.5786    8.0661  -19.7615 C   0  0  0  0  0  0  0  0  0  0  0  0
    7.0484   -0.4507  -21.9318 C   0  0  0  0  0  0  0  0  0  0  0  0
    5.3636   -1.9491  -20.9952 C   0  0  0  0  0  0  0  0  0  0  0  0
    6.5793    1.1403  -17.9375 C   0  0  0  0  0  0  0  0  0  0  0  0
    5.4168    8.0267  -14.1114 C   0  0  0  0  0  0  0  0  0  0  0  0
    4.8151    8.6331  -15.3904 C   0  0  0  0  0  0  0  0  0  0  0  0
    6.3705    6.8589  -14.4298 C   0  0  0  0  0  0  0  0  0  0  0  0
    4.0990    7.5411  -16.1947 C   0  0  0  0  0  0  0  0  0  0  0  0
    5.6887    5.7943  -15.3185 C   0  0  0  0  0  0  0  0  0  0  0  0
    5.0843    6.4151  -16.6164 C   0  0  0  0  0  0  0  0  0  0  0  0
    6.7946   -0.0668  -17.0295 C   0  0  0  0  0  0  0  0  0  0  0  0
    4.1808    1.6588  -20.5468 C   0  0  0  0  0  0  0  0  0  0  0  0
    5.0089    4.2536  -17.8129 C   0  0  0  0  0  0  0  0  0  0  0  0
    4.9571    2.3877  -19.4294 C   0  0  1  0  0  0  0  0  0  0  0  0
    4.1365    3.5259  -18.8247 C   0  0  2  0  0  0  0  0  0  0  0  0
    5.1488    9.7539  -20.7186 N   0  0  0  0  0  0  0  0  0  0  0  0
    6.0829    8.7747  -20.8533 N   0  0  0  0  0  0  0  0  0  0  0  0
    5.2873    1.4235  -18.3620 N   0  0  0  0  0  0  0  0  0  0  0  0
    4.2570    5.4045  -17.2967 N   0  3  0  0  0  0  0  0  0  0  0  0
    7.5504    1.7228  -18.4082 O   0  0  0  0  0  0  0  0  0  0  0  0
    3.7425    4.4503  -19.8390 O   0  0  0  0  0  0  0  0  0  0  0  0
    8.2592   -0.2588  -22.5015 F   0  0  0  0  0  0  0  0  0  0  0  0
    4.9508   -3.1980  -20.6830 F   0  0  0  0  0  0  0  0  0  0  0  0
    9.4452    6.6986  -18.5051 H   0  0  0  0  0  0  0  0  0  0  0  0
    7.8640    5.9801  -16.7323 H   0  0  0  0  0  0  0  0  0  0  0  0
    8.6251    7.9933  -20.4623 H   0  0  0  0  0  0  0  0  0  0  0  0
    5.6287    9.4018  -23.9713 H   0  0  0  0  0  0  0  0  0  0  0  0
    4.6476    7.9485  -18.8195 H   0  0  0  0  0  0  0  0  0  0  0  0
    6.5605    1.6523  -21.8842 H   0  0  0  0  0  0  0  0  0  0  0  0
    3.5987   -0.9922  -20.1961 H   0  0  0  0  0  0  0  0  0  0  0  0
    7.2377   -2.6027  -21.8529 H   0  0  0  0  0  0  0  0  0  0  0  0
    4.1594   10.9188  -22.2060 H   0  0  0  0  0  0  0  0  0  0  0  0
    7.1667    7.7744  -22.5017 H   0  0  0  0  0  0  0  0  0  0  0  0
    5.9759    8.8078  -13.5752 H   0  0  0  0  0  0  0  0  0  0  0  0
    4.6004    7.6569  -13.4737 H   0  0  0  0  0  0  0  0  0  0  0  0
    4.0946    9.4184  -15.1184 H   0  0  0  0  0  0  0  0  0  0  0  0
    5.6193    9.0689  -16.0014 H   0  0  0  0  0  0  0  0  0  0  0  0
    7.2527    7.2518  -14.9565 H   0  0  0  0  0  0  0  0  0  0  0  0
    6.6858    6.3882  -13.4870 H   0  0  0  0  0  0  0  0  0  0  0  0
    3.3002    7.1058  -15.5764 H   0  0  0  0  0  0  0  0  0  0  0  0
    3.6600    7.9904  -17.0977 H   0  0  0  0  0  0  0  0  0  0  0  0
    6.4349    5.0372  -15.6013 H   0  0  0  0  0  0  0  0  0  0  0  0
    4.8813    5.3167  -14.7441 H   0  0  0  0  0  0  0  0  0  0  0  0
    7.8727   -0.2556  -16.9192 H   0  0  0  0  0  0  0  0  0  0  0  0
    6.3548    0.1345  -16.0416 H   0  0  0  0  0  0  0  0  0  0  0  0
    6.3114   -0.9498  -17.4730 H   0  0  0  0  0  0  0  0  0  0  0  0
    4.0243    2.3430  -21.3937 H   0  0  0  0  0  0  0  0  0  0  0  0
    3.2065    1.3242  -20.1608 H   0  0  0  0  0  0  0  0  0  0  0  0
    5.2638    3.5748  -16.9856 H   0  0  0  0  0  0  0  0  0  0  0  0
    5.9321    4.6009  -18.2998 H   0  0  0  0  0  0  0  0  0  0  0  0
    5.8837    2.8014  -19.8542 H   0  0  0  0  0  0  0  0  0  0  0  0
    3.2557    3.1085  -18.3148 H   0  0  0  0  0  0  0  0  0  0  0  0
    4.5323    0.9431  -17.9157 H   0  0  0  0  0  0  0  0  0  0  0  0
    3.5767    5.0674  -16.6458 H   0  0  0  0  0  0  0  0  0  0  0  0
    3.7933    5.8454  -18.0651 H   0  0  0  0  0  0  0  0  0  0  0  0
    3.1965    4.0068  -20.4776 H   0  0  0  0  0  0  0  0  0  0  0  0
  1  2  2  0  0  0  0
  1  3  1  0  0  0  0
  2 11  1  0  0  0  0
  3 13  2  0  0  0  0
  4  9  1  0  0  0  0
  4 10  2  0  0  0  0
  5 11  2  0  0  0  0
  5 13  1  0  0  0  0
  6 12  1  0  0  0  0
  6 14  2  0  0  0  0
  7 12  2  0  0  0  0
  7 15  1  0  0  0  0
  8 14  1  0  0  0  0
  8 15  2  0  0  0  0
  9 28  2  0  0  0  0
 10 29  1  0  0  0  0
 11 22  1  0  0  0  0
 12 24  1  0  0  0  0
 13 29  1  0  0  0  0
 14 34  1  0  0  0  0
 15 35  1  0  0  0  0
 16 23  1  0  0  0  0
 16 30  1  0  0  0  0
 16 32  2  0  0  0  0
 17 18  1  0  0  0  0
 17 19  1  0  0  0  0
 18 20  1  0  0  0  0
 19 21  1  0  0  0  0
 20 22  1  0  0  0  0
 21 22  1  0  0  0  0
 22 31  1  0  0  0  0
 24 26  1  0  0  0  0
 25 27  1  0  0  0  0
 25 31  1  0  0  0  0
 26 27  1  0  0  0  0
 26 30  1  0  0  0  0
 27 33  1  0  0  0  0
 28 29  1  0  0  0  0
  1 36  1  0  0  0  0
  2 37  1  0  0  0  0
  3 38  1  0  0  0  0
  4 39  1  0  0  0  0
  5 40  1  0  0  0  0
  6 41  1  0  0  0  0
  7 42  1  0  0  0  0
  8 43  1  0  0  0  0
  9 44  1  0  0  0  0
 10 45  1  0  0  0  0
 17 46  1  0  0  0  0
 17 47  1  0  0  0  0
 18 48  1  0  0  0  0
 18 49  1  0  0  0  0
 19 50  1  0  0  0  0
 19 51  1  0  0  0  0
 20 52  1  0  0  0  0
 20 53  1  0  0  0  0
 21 54  1  0  0  0  0
 21 55  1  0  0  0  0
 23 56  1  0  0  0  0
 23 57  1  0  0  0  0
 23 58  1  0  0  0  0
 24 59  1  0  0  0  0
 24 60  1  0  0  0  0
 25 61  1  0  0  0  0
 25 62  1  0  0  0  0
 26 63  1  0  0  0  0
 27 64  1  0  0  0  0
 30 65  1  0  0  0  0
 31 66  1  0  0  0  0
 31 67  1  0  0  0  0
 33 68  1  0  0  0  0
M  CHG  1  31   1
M  END
> <OMEGA_C>
dmkGQT3X3kClnJTBVi3wQPEp0kBWhIzBchD+QCmD9kAPcJ3BFRG1QBFhFUFZJrfBmBS2QLSh9UCY
9pXBs2rHQEOdJz/XD63B5aWRQOzFV79bdaXBJaDTQNh04L8i8KzB4YybQGdEIkGLhq/BpBbOQGXh
B0EyNbHB207EQNbm3UBECY3BHnWfQCkf7D7GCKjB0YPSQMsOAUGGF57BMozhQOrA5r5ddK/BBaOr
QMt8+b8b9qfBe4nSQO71kT/mf4/Bs1atQJFtAEEmyGHBchWaQPogCkERP3bBEtvLQD5820CY4GbB
8CqDQOJQ8UDKjoHBzAm2QPtquUCVGHXBUbKiQJ5IzUBv7oTBqG3ZQMrBiL2EPIjB18iFQCxS1D/A
X6TBPUmgQG8diEC6gI7B8KCeQO/PGECDb5vBDV6EQCWoYUAVmZbBC8OkQP0PHEGuv6XBv6bCQFVl
DEGH06bBmjGpQNw0tj9r5ZLBKDmIQMPxrECMX4rBB53xQD6G3D8LRJPBm4RvQCNpjkBUtp7BfSUE
QTZ8hL4jA7TBo2yeQIWrTMDedqXBuB8XQc1a1kBeCpTBfKX7QOlcv0DB24XBdgAKQffI/0C3sqPB
eh60QMptFkFFxb/BB7mUQA5a/kBKjpbB9+/RQDx+0z/AEq/BzVFmQNYAfr+0kaHB2prnQMSSJsDJ
0q7BrhmFQEazLkHXpbHB4FXlQDjI+EBwA7TBUTq/QJXsDEHmM1nBsjaTQC0F9UAUlFfBkgaDQOax
FkEh5XHBJdGzQCcaEUHyAoDB+BXoQNwO6EDNTW/BR/LVQPZrzECrylfBDzZTQFdi40DbOHnB8z1q
QGGx/0AxyIjBu+rNQNcwoUDynnnBSjOcQC4iqkDs52vBBO37QHrbgr6bWofBkFrLQE7FCT44VYDB
pfbJQMwnc7++yIvBv8aAQPbzFUBFJqvBCThNQDd/qT9RSaHBuXCoQOHJZECH4ofB49O9QMc6k0D6
ZZLBG0e8QNtJM0Bb1Z7BFV5QQI/xRkCkhJLB8giRQO9tcT9DU4/Bx+hkQAsookClKoXBrMRyQN4N
u0BehZDBRpNMQAI4gEAI0qPBur0FQRdM30AwrZTBfEDvQBoS00B6c4zB/hH8QPhW9UC1sJ3BAqGZ
QGR8H0GdILHBkjy0QJIU9EAbGpbB7t/HQCj0Ij+eT63B/7yQQIzkTL88kaXBQB3RQKqZ5L9oSq3B
IXa0QPc/EUHoz7fBs/ihQExnGkEIsabByh/DQIq73UCgAY3B296fQCp4+T6/NKjBOU7QQGjq/0BE
Zp7B2nngQN7L/76i1a/BJD6pQCy8978fKajBPRvTQDZAiT8QNpDBecisQBaO/kCL1WDBEIiZQLqH
CUHvB3XBMKrLQIzt2UARhWbBKq6CQMr48EDXPYHB7OC1QHh2uEA3CnXBZwKiQB8HzUAMxYTBzIfZ
QHggx72ji4jBPDGHQNHb2j/uoqTBHCKfQKNNh0CwBo7BW32fQOhoGkDeepvBjLGEQJCAYkAynpbB
tJrLQCD/BEFqgbHB1SXAQH5lCkElYqfBfK6pQIKZtj++E5PBPE6HQPjHrEDHKorBXR7yQMcI3T+5
KpPBEMhzQGXTj0Cjq57BooUDQTHTtb6VmLTBVpmaQHrHSsAdqaXBCY4WQci210BPD5TBVUH7QOxr
wUDgp4XBQtoIQR0n/kC1DqTB9aqDQJCSK0EB9LPBHrySQHo5/EDgspbBuJrTQOuizz+9R6/BhLFk
QHwyar+UjqHBAenjQHIXKsAhRq/B3/O0QLP4EEE8c8DBxSGUQPVSIUEekp/BUli+QDWSC0EhzlfB
/rOSQAHH8UCm41bBwWyCQKXxFUFPUnDB3kezQCbQEEGIkX7Bx5LnQKZC50AS7G7B8DzWQCY3ykAw
r1fBu5FRQIy94kAq63jBpCdqQAocAEE5aIjBbNzNQFmfoEA77XnB/kycQJiUqED262vBN7r7QEQZ
R74rnIbBTEvHQCjxqj2dKIHBRzHOQHchg792VozBoreDQIXOGUCWaavB26dOQJzbsz8UzaHBOdmk
QKweYkBtW4fBT/e9QFSVkUDAZ5HBQEq9QOWfNUD/sp7By01PQDVHR0AA/pLBWGORQIQHfT//OY/B
eRNiQDa3okCHAIXB8SxyQPqrukDEb5DBq7FSQNRXgkAtFaTB

> <OMEGA_E>
YCoTPahWVz4=

> <OMEGA_NBR>
      2494

$$$$
50212900
  -OEChem-04172616093D

 63 66  0     1  0  0  0  0  0999 V2000
    8.3539    6.9512  -18.6144 C   0  0  0  0  0  0  0  0  0  0  0  0
    7.4950    6.6117  -17.5550 C   0  0  0  0  0  0  0  0  0  0  0  0
    7.8580    7.6406  -19.7325 C   0  0  0  0  0  0  0  0  0  0  0  0
    5.6664    9.2694  -22.9536 C   0  0  0  0  0  0  0  0  0  0  0  0
    5.6364    7.6687  -18.7283 C   0  0  0  0  0  0  0  0  0  0  0  0
    6.3452    0.6851  -21.6431 C   0  0  0  0  0  0  0  0  0  0  0  0
    4.5712   -0.7433  -20.7597 C   0  0  0  0  0  0  0  0  0  0  0  0
    6.6117   -1.7416  -21.6505 C   0  0  0  0  0  0  0  0  0  0  0  0
    4.9000   10.1302  -22.0238 C   0  0  0  0  0  0  0  0  0  0  0  0
    6.3630    8.3749  -22.1875 C   0  0  0  0  0  0  0  0  0  0  0  0
    6.1207    6.9616  -17.6033 C   0  0  0  0  0  0  0  0  0  0  0  0
    5.0696    0.5450  -21.0534 C   0  0  0  0  0  0  0  0  0  0  0  0
    6.4982    8.0130  -19.7884 C   0  0  0  0  0  0  0  0  0  0  0  0
    7.1148   -0.4575  -21.9394 C   0  0  0  0  0  0  0  0  0  0  0  0
    5.3398   -1.8842  -21.0616 C   0  0  0  0  0  0  0  0  0  0  0  0
    6.5446    1.0466  -18.0120 C   0  0  0  0  0  0  0  0  0  0  0  0
    4.3101    7.6144  -15.9580 C   0  0  0  0  0  0  0  0  0  0  0  0
    5.1574    8.0455  -14.7462 C   0  0  0  0  0  0  0  0  0  0  0  0
    5.7245    5.8628  -15.2824 C   0  0  0  0  0  0  0  0  0  0  0  0
    5.1061    6.4515  -16.5609 C   0  0  2  0  0  0  0  0  0  0  0  0
    6.6877   -0.1365  -17.0590 C   0  0  0  0  0  0  0  0  0  0  0  0
    4.2916    1.7755  -20.6196 C   0  0  0  0  0  0  0  0  0  0  0  0
    4.9396    4.2782  -17.7197 C   0  0  0  0  0  0  0  0  0  0  0  0
    4.9967    2.4617  -19.4247 C   0  0  1  0  0  0  0  0  0  0  0  0
    4.1343    3.5840  -18.8177 C   0  0  2  0  0  0  0  0  0  0  0  0
    5.1259    9.7283  -20.7919 N   0  0  0  0  0  0  0  0  0  0  0  0
    6.0011    8.6942  -20.8983 N   0  0  0  0  0  0  0  0  0  0  0  0
    5.2687    1.4519  -18.3842 N   0  0  0  0  0  0  0  0  0  0  0  0
    4.2176    5.4681  -17.2172 N   0  3  0  0  0  0  0  0  0  0  0  0
    7.5418    1.6723  -18.3557 O   0  0  0  0  0  0  0  0  0  0  0  0
    6.1625    7.0157  -14.5436 O   0  0  0  0  0  0  0  0  0  0  0  0
    3.7983    4.5405  -19.8224 O   0  0  0  0  0  0  0  0  0  0  0  0
    8.3451   -0.3219  -22.4836 F   0  0  0  0  0  0  0  0  0  0  0  0
    4.8624   -3.1163  -20.7745 F   0  0  0  0  0  0  0  0  0  0  0  0
    9.3985    6.6809  -18.5683 H   0  0  0  0  0  0  0  0  0  0  0  0
    7.8835    6.0810  -16.6984 H   0  0  0  0  0  0  0  0  0  0  0  0
    8.5183    7.8863  -20.5510 H   0  0  0  0  0  0  0  0  0  0  0  0
    5.6740    9.3350  -24.0316 H   0  0  0  0  0  0  0  0  0  0  0  0
    4.5942    7.9478  -18.7754 H   0  0  0  0  0  0  0  0  0  0  0  0
    6.7310    1.6686  -21.8673 H   0  0  0  0  0  0  0  0  0  0  0  0
    3.5989   -0.8538  -20.3028 H   0  0  0  0  0  0  0  0  0  0  0  0
    7.2012   -2.6168  -21.8806 H   0  0  0  0  0  0  0  0  0  0  0  0
    4.2610   10.9525  -22.3100 H   0  0  0  0  0  0  0  0  0  0  0  0
    7.0388    7.5997  -22.5172 H   0  0  0  0  0  0  0  0  0  0  0  0
    3.3107    7.2828  -15.6401 H   0  0  0  0  0  0  0  0  0  0  0  0
    4.2107    8.4380  -16.6803 H   0  0  0  0  0  0  0  0  0  0  0  0
    5.6420    9.0120  -14.9485 H   0  0  0  0  0  0  0  0  0  0  0  0
    4.5216    8.1339  -13.8529 H   0  0  0  0  0  0  0  0  0  0  0  0
    4.9752    5.2945  -14.7118 H   0  0  0  0  0  0  0  0  0  0  0  0
    6.5745    5.2081  -15.5251 H   0  0  0  0  0  0  0  0  0  0  0  0
    7.7474   -0.2699  -16.7957 H   0  0  0  0  0  0  0  0  0  0  0  0
    6.1046    0.0554  -16.1463 H   0  0  0  0  0  0  0  0  0  0  0  0
    6.3140   -1.0483  -17.5480 H   0  0  0  0  0  0  0  0  0  0  0  0
    4.2316    2.4822  -21.4604 H   0  0  0  0  0  0  0  0  0  0  0  0
    3.2767    1.4761  -20.3191 H   0  0  0  0  0  0  0  0  0  0  0  0
    5.0995    3.5749  -16.8892 H   0  0  0  0  0  0  0  0  0  0  0  0
    5.9120    4.5911  -18.1277 H   0  0  0  0  0  0  0  0  0  0  0  0
    5.9448    2.8947  -19.7764 H   0  0  0  0  0  0  0  0  0  0  0  0
    3.2261    3.1442  -18.3796 H   0  0  0  0  0  0  0  0  0  0  0  0
    4.4882    1.0342  -17.9190 H   0  0  0  0  0  0  0  0  0  0  0  0
    3.5312    5.1676  -16.5549 H   0  0  0  0  0  0  0  0  0  0  0  0
    3.7638    5.9142  -17.9885 H   0  0  0  0  0  0  0  0  0  0  0  0
    3.2972    4.1163  -20.5091 H   0  0  0  0  0  0  0  0  0  0  0  0
  1  2  2  0  0  0  0
  1  3  1  0  0  0  0
  2 11  1  0  0  0  0
  3 13  2  0  0  0  0
  4  9  1  0  0  0  0
  4 10  2  0  0  0  0
  5 11  2  0  0  0  0
  5 13  1  0  0  0  0
  6 12  1  0  0  0  0
  6 14  2  0  0  0  0
  7 12  2  0  0  0  0
  7 15  1  0  0  0  0
  8 14  1  0  0  0  0
  8 15  2  0  0  0  0
  9 26  2  0  0  0  0
 10 27  1  0  0  0  0
 11 20  1  0  0  0  0
 12 22  1  0  0  0  0
 13 27  1  0  0  0  0
 14 33  1  0  0  0  0
 15 34  1  0  0  0  0
 16 21  1  0  0  0  0
 16 28  1  0  0  0  0
 16 30  2  0  0  0  0
 17 18  1  0  0  0  0
 17 20  1  0  0  0  0
 18 31  1  0  0  0  0
 19 20  1  0  0  0  0
 19 31  1  0  0  0  0
 20 29  1  0  0  0  0
 22 24  1  0  0  0  0
 23 25  1  0  0  0  0
 23 29  1  0  0  0  0
 24 25  1  0  0  0  0
 24 28  1  0  0  0  0
 25 32  1  0  0  0  0
 26 27  1  0  0  0  0
  1 35  1  0  0  0  0
  2 36  1  0  0  0  0
  3 37  1  0  0  0  0
  4 38  1  0  0  0  0
  5 39  1  0  0  0  0
  6 40  1  0  0  0  0
  7 41  1  0  0  0  0
  8 42  1  0  0  0  0
  9 43  1  0  0  0  0
 10 44  1  0  0  0  0
 17 45  1  0  0  0  0
 17 46  1  0  0  0  0
 18 47  1  0  0  0  0
 18 48  1  0  0  0  0
 19 49  1  0  0  0  0
 19 50  1  0  0  0  0
 21 51  1  0  0  0  0
 21 52  1  0  0  0  0
 21 53  1  0  0  0  0
 22 54  1  0  0  0  0
 22 55  1  0  0  0  0
 23 56  1  0  0  0  0
 23 57  1  0  0  0  0
 24 58  1  0  0  0  0
 25 59  1  0  0  0  0
 28 60  1  0  0  0  0
 29 61  1  0  0  0  0
 29 62  1  0  0  0  0
 32 63  1  0  0  0  0
M  CHG  1  29   1
M  END
> <OMEGA_C>
cakFQf1v3kBE6pTBqNbvQDyT00COcIzBZHT7QAmA9EAx3J3B9lK1QFpPFEH7oLfBVl20QLdl9UCd
05XB1QvLQMBfLz8nJa3BLkeSQKxHPr/WE6bBupLTQIjs3r82NK3B+cycQGUVIkHEMLDBpZ3LQML/
BUH2f7HB6dzDQFrF3kCJ04zBhTqiQJqGCz9KbajBAvHPQDc1AEGqTp7Bg6zjQMU76r7dg6/BBeCq
QAAs8b86fqjBR23RQA73hT+OGJDBt+yJQN+o80ARVH/BPAmlQC66AEE98GvBMC+3QAOcu0DHhHTB
JGWjQFlyzkCnfITBugHWQHzRC77leIjBEFWJQM5C4z//9KTB3BCeQD7niEADwo3BC+WfQEaNHUDY
ZZvBCEyEQEFgZUCgipbBEAekQEqnG0HXVabBqQjAQHIbC0HIL6fB6pioQBnYuT/dEpPB9vaGQE/6
rkDAvInBUlbxQBQP1j9z2JLBUDPFQE+A4EBnsmjBABdzQI9LkUBMlJ7BmYUFQRLMpL533rPBFJmb
QDVxR8A5MqbBLmAWQb/J1UDii5TB/UX8QNWXwkA8loXBJ0sIQYxc/EB4aKTBbZG1QFNcFUGsQMDB
VAOTQJRU/kDvM5bBtWTXQIOT1T8n8K7B+lNmQFeVWr8MbKLBR3DmQNV4J8BsC6/BHVqIQHA9L0Hr
erLB9j3hQNAw80AgI7TBu+FTQG0M6UD5PXrBBr6GQCQCB0FGcYXBcou0QBYxEEEALW/BC7GQQKUk
AkFQpV3BODWfQFRsqUB9Y2vBcmLSQBeppkD9ZnjBj+r3QNMqir6tXYbBuVjDQHzKYj2QK4HBTgzK
QFQuhr88YozBdmmHQOrbHkD/rqvBobVRQALwvD+bjaLBuS6jQL/LZEAMHYfBbi+9QB7qkkByBZHB
yDu+QFFCOUApNp7BJHlOQFM7SUB3CZPBf5+PQGZfhD8tWo/BzP9hQCtdpUBzcITBCOJwQIdBvUBo
6I/BBwVTQCK5g0CbEqTBn5cFQX0P4EB6oJTBqojvQL4W1UAjMIzBSR/7QNlf9ECqz53Bs9GZQBri
HUEa6LHBP46zQDGz80CjCJbBv3XJQN7VMz/kIq3BB5GSQJutRr92z6XBLB/UQGaA278AT63BzLq2
QJUXEEHJRbjBDv2fQHyqGEH0YqfB4zrDQGSt3kAm0IzBnCuhQGSiBj+6OKjBRzzPQFiE/kBWiJ7B
nfbiQL4a1b5Yn6/Bf/GrQPB98r9uZqjBuQzSQBqHjz8brY/B+ouIQAFd80DWnH/B3k6iQLOnAEFz
y2vBfou2QA0cvEBIUHTBOsSiQJZMzkCidITBdRTYQKza7r3fsojBB6OHQJYp3j93maTBTCqeQLij
iEBBtY3B6zWfQFWmHEBWU5vBYjWEQFdOZUDtfZbBlffMQHD9A0Gzs7HBviK/QOIWCUGEtqfBn+Ko
QGiJuj//6ZLBE7SGQCpRrkBWnonBw43xQDJv2D9IWJPB7n3DQHJu4UCUimjB7Rd0QAFkkUASjZ7B
WgEFQYiAeL6REbTBsvmdQK77SMAvD6bBcXMWQWXX2EB/C5TB2Bv8QINAxUB4LoXBjDMIQdk8/EA3
VKTBogKEQHHLKUEn+7TBpPmRQDGT+0DPk5bBcLvUQOgu2T+9/a7BKtNnQFgear8p+qHBIoznQKSo
JMBDTK/B3Se5QAH9D0Eh5MDBsyGQQEk7H0FscqDBsKRQQMmP6EBbCHvBJ/CFQPjdBkFAmYXBf86w
QHZ0EEHri27BUEaNQFdmAUG4s13BBMueQHN/qUBdQGvBDkfSQKe5p0CCAHjBH236QHsWrL4S6IfB
QlPKQF5rij3Lu4DBCtPHQMFUeb/KbIzBaPiDQCy8G0A4V6vBU7xPQFJ6tD/52KHBb56jQCHvY0C4
HYfBPCC9QBICk0D3/pDBKDq9QJjNN0DVbJ7BB8NNQJksSkBzAJPBLlGQQKf+fz/qUo/BllJiQE1X
pEARQYTBp0lvQK5VvEDyvo/BP8lTQMcJhEBsDqTB

> <OMEGA_E>
QDMiPphRoD4=

> <OMEGA_NBR>
      4851

$$$$
50168362
  -OEChem-04172616093D

 66 69  0     1  0  0  0  0  0999 V2000
    8.3595    6.9455  -18.6067 C   0  0  0  0  0  0  0  0  0  0  0  0
    7.4893    6.6045  -17.5542 C   0  0  0  0  0  0  0  0  0  0  0  0
    7.8789    7.6526  -19.7218 C   0  0  0  0  0  0  0  0  0  0  0  0
    5.6359    9.2857  -22.9334 C   0  0  0  0  0  0  0  0  0  0  0  0
    5.6577    7.7054  -18.7212 C   0  0  0  0  0  0  0  0  0  0  0  0
    6.2516    0.6301  -21.6502 C   0  0  0  0  0  0  0  0  0  0  0  0
    4.5154   -0.8023  -20.7001 C   0  0  0  0  0  0  0  0  0  0  0  0
    6.5404   -1.7923  -21.6343 C   0  0  0  0  0  0  0  0  0  0  0  0
    4.8663   10.1331  -21.9941 C   0  0  0  0  0  0  0  0  0  0  0  0
    6.3727    8.4153  -22.1762 C   0  0  0  0  0  0  0  0  0  0  0  0
    6.1200    6.9805  -17.5980 C   0  0  0  0  0  0  0  0  0  0  0  0
    4.9963    0.4851  -21.0215 C   0  0  0  0  0  0  0  0  0  0  0  0
    6.5247    8.0437  -19.7768 C   0  0  0  0  0  0  0  0  0  0  0  0
    7.0231   -0.5075  -21.9536 C   0  0  0  0  0  0  0  0  0  0  0  0
    5.2863   -1.9392  -21.0089 C   0  0  0  0  0  0  0  0  0  0  0  0
    6.5735    1.0989  -17.9520 C   0  0  0  0  0  0  0  0  0  0  0  0
    4.1072    7.5636  -16.1073 C   0  0  0  0  0  0  0  0  0  0  0  0
    5.6936    5.7802  -15.3039 C   0  0  0  0  0  0  0  0  0  0  0  0
    4.8192    8.5506  -15.1723 C   0  0  0  0  0  0  0  0  0  0  0  0
    6.3102    6.8334  -14.3623 C   0  0  0  0  0  0  0  0  0  0  0  0
    5.0821    6.4442  -16.5801 C   0  0  0  0  0  0  0  0  0  0  0  0
    6.7524   -0.1291  -17.0639 C   0  0  0  0  0  0  0  0  0  0  0  0
    4.2306    1.7123  -20.5739 C   0  0  0  0  0  0  0  0  0  0  0  0
    5.0123    4.2835  -17.7891 C   0  0  0  0  0  0  0  0  0  0  0  0
    4.9929    2.4163  -19.4278 C   0  0  1  0  0  0  0  0  0  0  0  0
    4.1669    3.5604  -18.8290 C   0  0  2  0  0  0  0  0  0  0  0  0
    5.1264    9.7442  -20.7654 N   0  0  0  0  0  0  0  0  0  0  0  0
    6.0231    8.7290  -20.8826 N   0  0  0  0  0  0  0  0  0  0  0  0
    5.2902    1.4338  -18.3673 N   0  0  0  0  0  0  0  0  0  0  0  0
    4.2564    5.4439  -17.2842 N   0  3  0  0  0  0  0  0  0  0  0  0
    7.5624    1.6608  -18.4107 O   0  0  0  0  0  0  0  0  0  0  0  0
    5.3263    7.8347  -14.0286 O   0  0  0  0  0  0  0  0  0  0  0  0
    3.8045    4.4893  -19.8502 O   0  0  0  0  0  0  0  0  0  0  0  0
    8.2367   -0.3650  -22.5318 F   0  0  0  0  0  0  0  0  0  0  0  0
    4.8313   -3.1709  -20.6870 F   0  0  0  0  0  0  0  0  0  0  0  0
    9.4006    6.6626  -18.5570 H   0  0  0  0  0  0  0  0  0  0  0  0
    7.8658    6.0522  -16.7059 H   0  0  0  0  0  0  0  0  0  0  0  0
    8.5455    7.8963  -20.5358 H   0  0  0  0  0  0  0  0  0  0  0  0
    5.6190    9.3434  -24.0118 H   0  0  0  0  0  0  0  0  0  0  0  0
    4.6210    8.0044  -18.7696 H   0  0  0  0  0  0  0  0  0  0  0  0
    6.6204    1.6143  -21.8987 H   0  0  0  0  0  0  0  0  0  0  0  0
    3.5560   -0.9153  -20.2173 H   0  0  0  0  0  0  0  0  0  0  0  0
    7.1320   -2.6648  -21.8690 H   0  0  0  0  0  0  0  0  0  0  0  0
    4.2015   10.9375  -22.2722 H   0  0  0  0  0  0  0  0  0  0  0  0
    7.0660    7.6596  -22.5147 H   0  0  0  0  0  0  0  0  0  0  0  0
    3.2639    7.1040  -15.5711 H   0  0  0  0  0  0  0  0  0  0  0  0
    3.7303    8.1077  -16.9859 H   0  0  0  0  0  0  0  0  0  0  0  0
    6.4771    5.0713  -15.6099 H   0  0  0  0  0  0  0  0  0  0  0  0
    4.9002    5.2403  -14.7663 H   0  0  0  0  0  0  0  0  0  0  0  0
    5.6532    9.0285  -15.7072 H   0  0  0  0  0  0  0  0  0  0  0  0
    4.1080    9.3208  -14.8392 H   0  0  0  0  0  0  0  0  0  0  0  0
    6.6553    6.3409  -13.4413 H   0  0  0  0  0  0  0  0  0  0  0  0
    7.1636    7.3142  -14.8629 H   0  0  0  0  0  0  0  0  0  0  0  0
    7.8243   -0.3503  -16.9547 H   0  0  0  0  0  0  0  0  0  0  0  0
    6.3161    0.0681  -16.0735 H   0  0  0  0  0  0  0  0  0  0  0  0
    6.2452   -0.9905  -17.5230 H   0  0  0  0  0  0  0  0  0  0  0  0
    4.1239    2.4054  -21.4213 H   0  0  0  0  0  0  0  0  0  0  0  0
    3.2339    1.4114  -20.2187 H   0  0  0  0  0  0  0  0  0  0  0  0
    5.2393    3.6002  -16.9574 H   0  0  0  0  0  0  0  0  0  0  0  0
    5.9510    4.6257  -18.2491 H   0  0  0  0  0  0  0  0  0  0  0  0
    5.9324    2.8259  -19.8273 H   0  0  0  0  0  0  0  0  0  0  0  0
    3.2705    3.1451  -18.3452 H   0  0  0  0  0  0  0  0  0  0  0  0
    4.5197    0.9805  -17.9192 H   0  0  0  0  0  0  0  0  0  0  0  0
    3.5580    5.1116  -16.6504 H   0  0  0  0  0  0  0  0  0  0  0  0
    3.8150    5.8927  -18.0612 H   0  0  0  0  0  0  0  0  0  0  0  0
    3.2761    4.0496  -20.5059 H   0  0  0  0  0  0  0  0  0  0  0  0
  1  2  2  0  0  0  0
  1  3  1  0  0  0  0
  2 11  1  0  0  0  0
  3 13  2  0  0  0  0
  4  9  1  0  0  0  0
  4 10  2  0  0  0  0
  5 11  2  0  0  0  0
  5 13  1  0  0  0  0
  6 12  1  0  0  0  0
  6 14  2  0  0  0  0
  7 12  2  0  0  0  0
  7 15  1  0  0  0  0
  8 14  1  0  0  0  0
  8 15  2  0  0  0  0
  9 27  2  0  0  0  0
 10 28  1  0  0  0  0
 11 21  1  0  0  0  0
 12 23  1  0  0  0  0
 13 28  1  0  0  0  0
 14 34  1  0  0  0  0
 15 35  1  0  0  0  0
 16 22  1  0  0  0  0
 16 29  1  0  0  0  0
 16 31  2  0  0  0  0
 17 19  1  0  0  0  0
 17 21  1  0  0  0  0
 18 20  1  0  0  0  0
 18 21  1  0  0  0  0
 19 32  1  0  0  0  0
 20 32  1  0  0  0  0
 21 30  1  0  0  0  0
 23 25  1  0  0  0  0
 24 26  1  0  0  0  0
 24 30  1  0  0  0  0
 25 26  1  0  0  0  0
 25 29  1  0  0  0  0
 26 33  1  0  0  0  0
 27 28  1  0  0  0  0
  1 36  1  0  0  0  0
  2 37  1  0  0  0  0
  3 38  1  0  0  0  0
  4 39  1  0  0  0  0
  5 40  1  0  0  0  0
  6 41  1  0  0  0  0
  7 42  1  0  0  0  0
  8 43  1  0  0  0  0
  9 44  1  0  0  0  0
 10 45  1  0  0  0  0
 17 46  1  0  0  0  0
 17 47  1  0  0  0  0
 18 48  1  0  0  0  0
 18 49  1  0  0  0  0
 19 50  1  0  0  0  0
 19 51  1  0  0  0  0
 20 52  1  0  0  0  0
 20 53  1  0  0  0  0
 22 54  1  0  0  0  0
 22 55  1  0  0  0  0
 22 56  1  0  0  0  0
 23 57  1  0  0  0  0
 23 58  1  0  0  0  0
 24 59  1  0  0  0  0
 24 60  1  0  0  0  0
 25 61  1  0  0  0  0
 26 62  1  0  0  0  0
 29 63  1  0  0  0  0
 30 64  1  0  0  0  0
 30 65  1  0  0  0  0
 33 66  1  0  0  0  0
M  CHG  1  30   1
M  END
> <OMEGA_C>
c8AFQYBB3kCA2pTBEKjvQDZY00DvbozBpB/8QPnh9EBIxp3B51i0QEmSFEGud7fBngu1QD6S9kAX
xZXBJg3IQN1OIT+1M63BG36QQK9hTb/jmaXBO0vRQOtp5b8TE63BBLmbQE4hIkHT86/BPu3LQDCl
BkHmaLHBWdfDQFVg30DHyIzBzeGfQApd+D4XLKjBbcrQQNOyAEHMNp7B/LzgQJPrAb/7oK/B+Cip
QCg3+L84EqjBOVrSQHGpjD+0nY/BE26DQC4J8kC+24DB7zG2QEH3uEC+3HTBrzaaQF/PCEHiwXLB
Zu3JQI+r2kD/y2XBOKCiQCw3zkD0o4TBVhPYQN01BL7WgojBumCHQP0r2z9Dl6TBvGSgQC0SiUD+
T47BhcWfQN+kGkAabJvBMleFQPXcY0DGoZbBVwukQE3oG0GJH6bB9rzAQPypC0GVD6fBtUmpQNKH
tz8q8JLBwDSIQJ80rkAWRorBj//xQBaU1D8aSZPB2XCqQD+2+kAEdWDBTHxzQGyoj0A/zZ7BqskD
QRzkur4fQbTBvpmaQDjwSsD8fqXBxWgWQbQz1UCwdJTBuLT7QPyrwUCfpYXBMroIQbWu/EBpSaTB
dc6zQKN+FUEXGMDBcd+TQAkSAEErKJbBJNrTQEiizj+CMK/B5ZRjQDxPar8OvaHBhTnkQK+MKsDJ
867BynKGQBwAL0FxLbLBtxziQBIb9UAKHrTBAeNQQMpT40ArI3nB6LxuQCy5AUEV44fBC0TPQLdH
okDzwXnBeM6cQGmwp0CiQmzBx+a0QJF0EEHfUHvBeHSDQBAiFUFFbW3Bh/jUQJjoykB2D1fBcTzl
QOwN6kBizm3B/2D6QHlgs75Ko4fBfx3KQK9ziz2bloDB2tjHQNSRfb8nL4zBSveDQIryGUDZXqvB
lfhOQEOntD/Uv6HBWKinQKppZkDPqIfB4m6+QM4FlEAq/pHB6dW9QAfbNEBJnp7BQFBRQAJJSUD0
wpLBMaGQQIIDez+ZWo/B/rZjQNeRo0DzM4XBZih0QL2QvEBifZDB1qpRQCCWgUAVDKTBs74FQR5y
30AbcpTBITPvQKSr1EDoGYzBSj/8QI1N9EATp53B6wOcQC4+H0GZg7HBrV20QCZ79EDsFJbBL6jG
QFHiLj9HT63BJd2RQEFaU78EbaXBCKHSQKD/3L+zna3BU821QJtEEEGXDbjB+O+jQKxoGkGxBqfB
0w3DQJQY30CWzozBymifQI509z679afB4ZvQQNJA/0C7cZ7BR1XgQJLz1r4HErDBBFurQDj09r+J
UajBnOjTQMrajT/p64/BIu+BQA8l8kAfLoHBsgi1QC5WukCfeXTBaAGYQLheCUFitnPBreTHQNoA
3UDfpGXBVbGhQK5czkBRoITBCL/aQIZD7L041ojBeP2FQFbG1j8SF6TBgBOgQPC+iEApEY7BPDyf
QI5OGkA1OZvBAd+EQJQKY0CZV5bB2fTLQDTSA0F0nrHBd9/AQCvSCUH2jKfBokyqQGAmuT8uvpLB
E5qHQB+wrUDEE4rBCeTyQIx91D/oBJTBIfenQKAM/UCY/GDBka5xQCY9j0D9ep7BCzsDQeHuY76i
7bTBsFWeQKe+S8AM7aXBcYYWQZGm10DqxJPBIC77QNZUxEAGGoXB7vYIQXvr+0APG6TBL/mGQP+d
K0GGdrTBTeiSQAay/ECUw5bBVv7QQIWB1z9aSa/BjPBnQL0De791RaHBlzvmQNevJMCvy6/BtlW2
QNWpD0HQr8DBVpyWQIfcIUGV+p/BxtdNQBCU40CuvXnBOwBsQG1UAUElW4jBk4/OQPLQo0BE9HjB
+KybQHMRqUDB2GvBNMayQJjmEEEvT3zBUuCAQAy6FUHf4W7BroPSQPkTzkB7nVbBGF7jQIg57EDf
lm3BECD9QKd+sL63YojBDXTOQBM8uz0uwoDBfpTJQPSveb+GQYzBlmGAQMplF0Be0KrBQjJOQBIj
qz8036DBoImnQPf+ZUBaZ4fBGwO+QJbQk0A0x5HBc6W8QMMSNUC+tp7BqsNQQEogSEApa5LBbFSS
QK0EgT8hxY7BakpjQFX6okD06ITBdfZxQASEu0AdTJDB/atPQNYagUAmsqPB

> <OMEGA_E>
gH3/PTDTkD4=

> <OMEGA_NBR>
      7289

$$$$
50168458
  -OEChem-04172616093D

 59 62  0     1  0  0  0  0  0999 V2000
    8.3673    6.8785  -18.5959 C   0  0  0  0  0  0  0  0  0  0  0  0
    7.4880    6.5602  -17.5458 C   0  0  0  0  0  0  0  0  0  0  0  0
    7.8962    7.5861  -19.7180 C   0  0  0  0  0  0  0  0  0  0  0  0
    5.7415    9.2533  -22.9575 C   0  0  0  0  0  0  0  0  0  0  0  0
    5.6758    7.7058  -18.7162 C   0  0  0  0  0  0  0  0  0  0  0  0
    6.3739    0.6991  -21.6907 C   0  0  0  0  0  0  0  0  0  0  0  0
    4.6048   -0.7680  -20.8646 C   0  0  0  0  0  0  0  0  0  0  0  0
    6.6568   -1.7251  -21.7774 C   0  0  0  0  0  0  0  0  0  0  0  0
    4.9519   10.1033  -22.0374 C   0  0  0  0  0  0  0  0  0  0  0  0
    6.4449    8.3713  -22.1828 C   0  0  0  0  0  0  0  0  0  0  0  0
    6.1390    6.9689  -17.6124 C   0  0  0  0  0  0  0  0  0  0  0  0
    5.0961    0.5344  -21.1099 C   0  0  0  0  0  0  0  0  0  0  0  0
    6.5470    8.0059  -19.7807 C   0  0  0  0  0  0  0  0  0  0  0  0
    7.1536   -0.4292  -22.0193 C   0  0  0  0  0  0  0  0  0  0  0  0
    5.3812   -1.8946  -21.2046 C   0  0  0  0  0  0  0  0  0  0  0  0
    6.5775    1.0239  -18.0814 C   0  0  0  0  0  0  0  0  0  0  0  0
    4.5346    7.4681  -15.6288 C   0  0  0  0  0  0  0  0  0  0  0  0
    5.5022    6.3703  -15.1300 C   0  0  0  0  0  0  0  0  0  0  0  0
    5.1329    6.4652  -16.6131 C   0  0  0  0  0  0  0  0  0  0  0  0
    6.7504   -0.1996  -17.1868 C   0  0  0  0  0  0  0  0  0  0  0  0
    4.2991    1.7511  -20.6498 C   0  0  0  0  0  0  0  0  0  0  0  0
    4.9581    4.2642  -17.7246 C   0  0  0  0  0  0  0  0  0  0  0  0
    4.9963    2.4395  -19.4464 C   0  0  1  0  0  0  0  0  0  0  0  0
    4.1265    3.5400  -18.7972 C   0  0  2  0  0  0  0  0  0  0  0  0
    5.1719    9.7073  -20.8029 N   0  0  0  0  0  0  0  0  0  0  0  0
    6.0648    8.6868  -20.8978 N   0  0  0  0  0  0  0  0  0  0  0  0
    5.2926    1.4150  -18.4313 N   0  0  0  0  0  0  0  0  0  0  0  0
    4.2335    5.4436  -17.1917 N   0  3  0  0  0  0  0  0  0  0  0  0
    7.5585    1.6865  -18.4021 O   0  0  0  0  0  0  0  0  0  0  0  0
    3.7167    4.4822  -19.7874 O   0  0  0  0  0  0  0  0  0  0  0  0
    8.3837   -0.2696  -22.5584 F   0  0  0  0  0  0  0  0  0  0  0  0
    4.9074   -3.1397  -20.9707 F   0  0  0  0  0  0  0  0  0  0  0  0
    9.4039    6.5801  -18.5417 H   0  0  0  0  0  0  0  0  0  0  0  0
    7.8440    6.0046  -16.6908 H   0  0  0  0  0  0  0  0  0  0  0  0
    8.5675    7.8093  -20.5340 H   0  0  0  0  0  0  0  0  0  0  0  0
    5.7591    9.3172  -24.0354 H   0  0  0  0  0  0  0  0  0  0  0  0
    4.6501    8.0423  -18.7478 H   0  0  0  0  0  0  0  0  0  0  0  0
    6.7542    1.6914  -21.8834 H   0  0  0  0  0  0  0  0  0  0  0  0
    3.6316   -0.9005  -20.4154 H   0  0  0  0  0  0  0  0  0  0  0  0
    7.2539   -2.5885  -22.0311 H   0  0  0  0  0  0  0  0  0  0  0  0
    4.3025   10.9145  -22.3316 H   0  0  0  0  0  0  0  0  0  0  0  0
    7.1365    7.6066  -22.5043 H   0  0  0  0  0  0  0  0  0  0  0  0
    3.4660    7.4180  -15.3729 H   0  0  0  0  0  0  0  0  0  0  0  0
    4.8579    8.5193  -15.6490 H   0  0  0  0  0  0  0  0  0  0  0  0
    6.5152    6.6386  -14.7959 H   0  0  0  0  0  0  0  0  0  0  0  0
    5.1233    5.5373  -14.5197 H   0  0  0  0  0  0  0  0  0  0  0  0
    7.8142   -0.3240  -16.9364 H   0  0  0  0  0  0  0  0  0  0  0  0
    6.1698   -0.0628  -16.2626 H   0  0  0  0  0  0  0  0  0  0  0  0
    6.3913   -1.0944  -17.7163 H   0  0  0  0  0  0  0  0  0  0  0  0
    4.2218    2.4677  -21.4808 H   0  0  0  0  0  0  0  0  0  0  0  0
    3.2913    1.4298  -20.3479 H   0  0  0  0  0  0  0  0  0  0  0  0
    5.1652    3.5670  -16.8994 H   0  0  0  0  0  0  0  0  0  0  0  0
    5.9071    4.5971  -18.1702 H   0  0  0  0  0  0  0  0  0  0  0  0
    5.9345    2.8939  -19.7977 H   0  0  0  0  0  0  0  0  0  0  0  0
    3.2525    3.0720  -18.3206 H   0  0  0  0  0  0  0  0  0  0  0  0
    4.5235    0.9756  -17.9670 H   0  0  0  0  0  0  0  0  0  0  0  0
    3.6031    5.1347  -16.4795 H   0  0  0  0  0  0  0  0  0  0  0  0
    3.7148    5.8620  -17.9373 H   0  0  0  0  0  0  0  0  0  0  0  0
    3.2025    4.0399  -20.4525 H   0  0  0  0  0  0  0  0  0  0  0  0
  1  2  2  0  0  0  0
  1  3  1  0  0  0  0
  2 11  1  0  0  0  0
  3 13  2  0  0  0  0
  4  9  1  0  0  0  0
  4 10  2  0  0  0  0
  5 11  2  0  0  0  0
  5 13  1  0  0  0  0
  6 12  1  0  0  0  0
  6 14  2  0  0  0  0
  7 12  2  0  0  0  0
  7 15  1  0  0  0  0
  8 14  1  0  0  0  0
  8 15  2  0  0  0  0
  9 25  2  0  0  0  0
 10 26  1  0  0  0  0
 11 19  1  0  0  0  0
 12 21  1  0  0  0  0
 13 26  1  0  0  0  0
 14 31  1  0  0  0  0
 15 32  1  0  0  0  0
 16 20  1  0  0  0  0
 16 27  1  0  0  0  0
 16 29  2  0  0  0  0
 17 18  1  0  0  0  0
 17 19  1  0  0  0  0
 18 19  1  0  0  0  0
 19 28  1  0  0  0  0
 21 23  1  0  0  0  0
 22 24  1  0  0  0  0
 22 28  1  0  0  0  0
 23 24  1  0  0  0  0
 23 27  1  0  0  0  0
 24 30  1  0  0  0  0
 25 26  1  0  0  0  0
  1 33  1  0  0  0  0
  2 34  1  0  0  0  0
  3 35  1  0  0  0  0
  4 36  1  0  0  0  0
  5 37  1  0  0  0  0
  6 38  1  0  0  0  0
  7 39  1  0  0  0  0
  8 40  1  0  0  0  0
  9 41  1  0  0  0  0
 10 42  1  0  0  0  0
 17 43  1  0  0  0  0
 17 44  1  0  0  0  0
 18 45  1  0  0  0  0
 18 46  1  0  0  0  0
 20 47  1  0  0  0  0
 20 48  1  0  0  0  0
 20 49  1  0  0  0  0
 21 50  1  0  0  0  0
 21 51  1  0  0  0  0
 22 52  1  0  0  0  0
 22 53  1  0  0  0  0
 23 54  1  0  0  0  0
 24 55  1  0  0  0  0
 27 56  1  0  0  0  0
 28 57  1  0  0  0  0
 28 58  1  0  0  0  0
 30 59  1  0  0  0  0
M  CHG  1  28   1
M  END
> <OMEGA_C>
guAFQaMc3EBzxJTBep3vQEnt0UC9XYzBdq38QK7B8kB6vp3Brrq3QHgNFEHfqLfBQKC1QECW9kDg
upXBEPfLQOT5Mj+Phq3BPlqTQKScRL+t6qbBfATVQJ7Q3L8LOK7BCXaeQPimIUGVTLDBiDzOQPnw
BUFQdrHBrXLEQHoB30Aq5ozBGxOjQGPNCD/84KjB6oDRQDcYAEHXPp7BSurkQDu+2757J7DBfTKs
QM2C8r/0oqnB9XrSQEMPgz/FppDBhRuRQL/67kCND3rBnxGwQNnZy0CkFHLBg0CkQPnizkCP54TB
3wLYQORWTL6lfonB1JGJQPUk4D/SMqXBGameQJZ0iEDxy43BwOGfQBohHEA/kpvBLwyEQGqPYkCT
YJbBToClQPFQG0FmbKbBoBLCQAP9CkG0LqfBklypQBIgtT9Ac5PB0HiHQE0yrkCDiInB7N7xQBHe
1z+aN5PB3t5tQItuj0CDTJ7BlSMGQWcHir6Fd7TBRAmdQBLxSMD8w6fBN3YWQXKQ0kBRVZTB8wH7
QN0lwEDEhoXBaxQJQRnm+UC8RaTBQ0q4QG8TFUGKSMDBOs2UQF2tAEGE+5XBiSLYQCuA2D85Ea/B
T2xoQCaKZr+pUqPBWSDoQB+qJcCgP7DBKK6JQNChLkEnp7LB6V3kQJRp80DECLTBhdJdQC9g7UA1
93XB6HObQDJPCEFKYnrB1nzQQKJv1EDWu2zBMPKjQG4xsUDBUGjBDg76QMnfpb7KfYfBDG/FQCOH
gL3DGYLByYXMQOMVjL/1uo3BYxmHQJ7uHUC72KvBWaRSQAMDtz+PyKLBTEmlQLpJZEDiMYfBXAe9
QIAbk0CUXJHBRee9QNk0OUC3YZ7BVShQQGecRECckJLBv8CQQBfDeT94vI/B7plmQB9PpED91YPB
v79tQHeVu0CPf4/By/VMQMNGgUCxnqPB84MFQcZy3EBEi5TBCsTuQBYs00DnGIzBeNH7QO7K8EDe
2p3BDtibQGNFHUE2HLLBFlK0QDYr9ECiFJbB2vnKQA+HLz9Zra3B/HGSQEirRb/J5KbBMoTTQEq1
3r8Lb67B5nq4QPhKD0G9crjBDu+hQOgZGEFclqfBxEXDQMXV3kD96IzBDmGiQBsMBz8n3qjB7FrQ
QGj2/EASpJ7BZHrjQPWZ5L5fcrDBvuqqQOCR87+QtqnBQB/TQDi9gj+nt5DBnLGPQJLy7kBTCXrB
3KOuQCXey0ASA3LBLPmiQOfdzkAz4oTBMCvZQLxYb76c8InBhlaJQDDY3z9oG6XBwFCeQOoRiEBs
mo3BsCygQP/iG0CAi5vBdHOEQK6vYkCjYZbB6nrOQKsbA0Gl27HBgszAQLBdCEH636fBKN6pQIBA
tD/Xc5PB+pyGQKO4rUBZcYnBlDnyQJwK2z+KBpPBQ+FwQCgBkECRS57BXS8FQcbYlb59B7XBbpGb
QCNQScDe1KfBKjcWQcb200Di45PBI1X6QFEpw0DmAYXBtLUIQXwc90BkaaTBv0KGQHpDKUGONLXB
8DSTQKLd/UD1kZbBNEXXQACI1j9aPK/B+OBmQJM5Zr8pN6PBpGfmQNfNJsB0grDBuOm6QOsfD0H8
EMHBDDSSQBnMHkE1qaDBmvNaQI9N7UCv/XXBSgCaQKxMCEEDWHrBsgPPQPB+1ECEnWzBNH2iQCcz
sUAwQ2jBNDz7QAxos75N7ofBMmHGQNVaEr6wiILBPj3OQCtzjr/sd47BC7CGQFfIHUAzwKvB6kpS
QDB4tz+vmKLBaTmkQGUZY0DTAIfBqQ69QKjFkkC/85DB/x++QMu9OED6b57BD91PQNkuRUBvxpLB
TGCRQD30dj/DuI/BHgJlQN3So0CXu4PBRdZrQOWvukDqco/B49VQQLtCgkCgw6PB

> <OMEGA_E>
8KVTPvhlwz4=

> <OMEGA_NBR>
      9531

$$$$
50212926
  -OEChem-04172616093D

 66 69  0     1  0  0  0  0  0999 V2000
    8.3696    7.0224  -18.5351 C   0  0  0  0  0  0  0  0  0  0  0  0
    7.4832    6.6533  -17.5065 C   0  0  0  0  0  0  0  0  0  0  0  0
    7.8894    7.6770  -19.6826 C   0  0  0  0  0  0  0  0  0  0  0  0
    4.8448    9.9362  -22.1810 C   0  0  0  0  0  0  0  0  0  0  0  0
    5.6336    7.6233  -18.7597 C   0  0  0  0  0  0  0  0  0  0  0  0
    6.2626    0.6962  -21.6450 C   0  0  0  0  0  0  0  0  0  0  0  0
    4.5823   -0.8120  -20.7114 C   0  0  0  0  0  0  0  0  0  0  0  0
    6.6526   -1.7114  -21.6387 C   0  0  0  0  0  0  0  0  0  0  0  0
    5.7262    9.0667  -22.9934 C   0  0  0  0  0  0  0  0  0  0  0  0
    5.0619    9.6097  -20.8705 C   0  0  0  0  0  0  0  0  0  0  0  0
    6.0983    6.9490  -17.6081 C   0  0  0  0  0  0  0  0  0  0  0  0
    5.0110    0.4959  -21.0235 C   0  0  0  0  0  0  0  0  0  0  0  0
    6.5187    7.9898  -19.7928 C   0  0  0  0  0  0  0  0  0  0  0  0
    7.0839   -0.4060  -21.9468 C   0  0  0  0  0  0  0  0  0  0  0  0
    5.4006   -1.9141  -21.0245 C   0  0  0  0  0  0  0  0  0  0  0  0
    6.5886    1.0764  -18.0320 C   0  0  0  0  0  0  0  0  0  0  0  0
    4.8541    8.5519  -15.2305 C   0  0  0  0  0  0  0  0  0  0  0  0
    4.1060    7.5409  -16.1127 C   0  0  0  0  0  0  0  0  0  0  0  0
    5.5408    7.8199  -14.0612 C   0  0  0  0  0  0  0  0  0  0  0  0
    5.6994    5.7678  -15.3222 C   0  0  0  0  0  0  0  0  0  0  0  0
    5.0642    6.4152  -16.5890 C   0  0  2  0  0  0  0  0  0  0  0  0
    6.7952   -0.0755  -17.0527 C   0  0  0  0  0  0  0  0  0  0  0  0
    4.2004    1.6890  -20.5630 C   0  0  0  0  0  0  0  0  0  0  0  0
    4.9754    4.2620  -17.7893 C   0  0  0  0  0  0  0  0  0  0  0  0
    4.9583    2.4128  -19.4286 C   0  0  1  0  0  0  0  0  0  0  0  0
    4.1212    3.5403  -18.8200 C   0  0  2  0  0  0  0  0  0  0  0  0
    6.4325    8.3054  -22.1857 N   0  0  0  0  0  0  0  0  0  0  0  0
    6.0252    8.6269  -20.9306 N   0  0  0  0  0  0  0  0  0  0  0  0
    5.2908    1.4372  -18.3722 N   0  0  0  0  0  0  0  0  0  0  0  0
    4.2259    5.4160  -17.2723 N   0  3  0  0  0  0  0  0  0  0  0  0
    7.5559    1.7208  -18.4236 O   0  0  0  0  0  0  0  0  0  0  0  0
    6.3990    6.7676  -14.5531 O   0  0  0  0  0  0  0  0  0  0  0  0
    3.7371    4.4709  -19.8322 O   0  0  0  0  0  0  0  0  0  0  0  0
    8.2961   -0.2092  -22.5120 F   0  0  0  0  0  0  0  0  0  0  0  0
    4.9909   -3.1665  -20.7222 F   0  0  0  0  0  0  0  0  0  0  0  0
    9.4228    6.8020  -18.4425 H   0  0  0  0  0  0  0  0  0  0  0  0
    7.8592    6.1411  -16.6331 H   0  0  0  0  0  0  0  0  0  0  0  0
    8.5695    7.9401  -20.4791 H   0  0  0  0  0  0  0  0  0  0  0  0
    4.1611   10.6852  -22.5523 H   0  0  0  0  0  0  0  0  0  0  0  0
    4.5839    7.8614  -18.8493 H   0  0  0  0  0  0  0  0  0  0  0  0
    6.5901    1.6960  -21.8890 H   0  0  0  0  0  0  0  0  0  0  0  0
    3.6269   -0.9674  -20.2325 H   0  0  0  0  0  0  0  0  0  0  0  0
    7.2818   -2.5572  -21.8735 H   0  0  0  0  0  0  0  0  0  0  0  0
    5.7804    9.0588  -24.0720 H   0  0  0  0  0  0  0  0  0  0  0  0
    4.5885   10.0255  -19.9934 H   0  0  0  0  0  0  0  0  0  0  0  0
    5.6145    9.0698  -15.8336 H   0  0  0  0  0  0  0  0  0  0  0  0
    4.1395    9.2869  -14.8315 H   0  0  0  0  0  0  0  0  0  0  0  0
    3.2840    7.0948  -15.5336 H   0  0  0  0  0  0  0  0  0  0  0  0
    3.6956    8.0615  -16.9906 H   0  0  0  0  0  0  0  0  0  0  0  0
    6.1438    8.5399  -13.4884 H   0  0  0  0  0  0  0  0  0  0  0  0
    4.7720    7.3831  -13.4070 H   0  0  0  0  0  0  0  0  0  0  0  0
    4.9058    5.3226  -14.7042 H   0  0  0  0  0  0  0  0  0  0  0  0
    6.4074    4.9842  -15.6301 H   0  0  0  0  0  0  0  0  0  0  0  0
    7.8659   -0.1713  -16.8191 H   0  0  0  0  0  0  0  0  0  0  0  0
    6.2348    0.1249  -16.1276 H   0  0  0  0  0  0  0  0  0  0  0  0
    6.4336   -1.0106  -17.5051 H   0  0  0  0  0  0  0  0  0  0  0  0
    4.0526    2.3804  -21.4057 H   0  0  0  0  0  0  0  0  0  0  0  0
    3.2224    1.3481  -20.1925 H   0  0  0  0  0  0  0  0  0  0  0  0
    5.2142    3.5766  -16.9627 H   0  0  0  0  0  0  0  0  0  0  0  0
    5.9077    4.6080  -18.2595 H   0  0  0  0  0  0  0  0  0  0  0  0
    5.8845    2.8401  -19.8404 H   0  0  0  0  0  0  0  0  0  0  0  0
    3.2361    3.1117  -18.3273 H   0  0  0  0  0  0  0  0  0  0  0  0
    4.5374    1.0106  -17.8718 H   0  0  0  0  0  0  0  0  0  0  0  0
    3.5421    5.0821  -16.6234 H   0  0  0  0  0  0  0  0  0  0  0  0
    3.7667    5.8626  -18.0401 H   0  0  0  0  0  0  0  0  0  0  0  0
    3.2024    4.0300  -20.4820 H   0  0  0  0  0  0  0  0  0  0  0  0
  1  2  2  0  0  0  0
  1  3  1  0  0  0  0
  2 11  1  0  0  0  0
  3 13  2  0  0  0  0
  4  9  1  0  0  0  0
  4 10  2  0  0  0  0
  5 11  2  0  0  0  0
  5 13  1  0  0  0  0
  6 12  1  0  0  0  0
  6 14  2  0  0  0  0
  7 12  2  0  0  0  0
  7 15  1  0  0  0  0
  8 14  1  0  0  0  0
  8 15  2  0  0  0  0
  9 27  2  0  0  0  0
 10 28  1  0  0  0  0
 11 21  1  0  0  0  0
 12 23  1  0  0  0  0
 13 28  1  0  0  0  0
 14 34  1  0  0  0  0
 15 35  1  0  0  0  0
 16 22  1  0  0  0  0
 16 29  1  0  0  0  0
 16 31  2  0  0  0  0
 17 18  1  0  0  0  0
 17 19  1  0  0  0  0
 18 21  1  0  0  0  0
 19 32  1  0  0  0  0
 20 21  1  0  0  0  0
 20 32  1  0  0  0  0
 21 30  1  0  0  0  0
 23 25  1  0  0  0  0
 24 26  1  0  0  0  0
 24 30  1  0  0  0  0
 25 26  1  0  0  0  0
 25 29  1  0  0  0  0
 26 33  1  0  0  0  0
 27 28  1  0  0  0  0
  1 36  1  0  0  0  0
  2 37  1  0  0  0  0
  3 38  1  0  0  0  0
  4 39  1  0  0  0  0
  5 40  1  0  0  0  0
  6 41  1  0  0  0  0
  7 42  1  0  0  0  0
  8 43  1  0  0  0  0
  9 44  1  0  0  0  0
 10 45  1  0  0  0  0
 17 46  1  0  0  0  0
 17 47  1  0  0  0  0
 18 48  1  0  0  0  0
 18 49  1  0  0  0  0
 19 50  1  0  0  0  0
 19 51  1  0  0  0  0
 20 52  1  0  0  0  0
 20 53  1  0  0  0  0
 22 54  1  0  0  0  0
 22 55  1  0  0  0  0
 22 56  1  0  0  0  0
 23 57  1  0  0  0  0
 23 58  1  0  0  0  0
 24 59  1  0  0  0  0
 24 60  1  0  0  0  0
 25 61  1  0  0  0  0
 26 62  1  0  0  0  0
 29 63  1  0  0  0  0
 30 64  1  0  0  0  0
 30 65  1  0  0  0  0
 33 66  1  0  0  0  0
M  CHG  1  30   1
M  END
> <OMEGA_C>
zOkFQaK34EDUR5TBUnbvQHrn1EBHDYzBpnX8QNup9UDidZ3BAgmbQLb6HkGkcrHBFka0QCry80De
E5bBemfIQNA3Mj/xKK3BaqKSQHjfT7/zsKXB8uHUQOAP278aHK3BcD23QEQREUF68rfBePuhQEjB
GUHh9qbBAyXDQOtd3kBv3YzB6VmgQOHi/T4gMKjBBpnQQKis/0CcV57BTa/iQHbdz74Ck6/B6dGs
QMsB9b8hMqjBKNbSQJfHiT+XQZDBCFWbQLHUCEErsHPBJGSDQAJP8UDa5oDBTE6xQPI8+kC4+mDB
p2G2QMSRuEDpJ3XBLw6iQPFIzUA1toTBkHLZQFSYmr3Va4jB/WmGQIky2D/0gKTBxzafQP5hiEBv
UI7BcqqeQN9qGkDCbZvBQeGDQOuTYkBxj5bBZ9fNQAHjBEFNfLHBus7AQN4HCkHRcafBRE6pQKX1
tz9d+pLBhzqHQO9PrUCdLYrB0MnxQFdD3D+WY5PBWMTMQJWQ2EB12WjB5StvQOgRj0BrqJ7B2rwE
Qd9BVr57GLTBSbWfQGqnSsAcx6XBw8MWQQ6q2UBUipPBXX77QBSExECjEIXBxBwJQWQV/kBJ1aPB
vCeFQKj2KkEWa7TBmK+SQFOQ+0BXy5bBJeLSQKkV2T+tHK/BUx5oQE6pd7883KHBowTpQE+pI8Df
/K7B1/i4QP7wEEF6k8DBEtWSQEBoIEF48p/BvamzQPIdEUFLVn3BDXeEQA6XFEHkTW3BgS1SQEUI
40CtiXjBJIVsQNr7AEGp7IfB3pnEQFOjCEF50FfBCLSYQChC7EDlglbBRPycQL9SqkB2RGvBognN
QPN+n0DwFHrBO7X7QJZzL76FjYbBcoPHQF/d/z1OBYHBRuDNQHxcgb+CCozBEK+BQBNYGEDiPqvB
GTxOQLCPrD8ziqHBdtqmQKTmZECSs4fB0wu9QLt0k0CNE5LBfU28QLHENUAyuZ7B4xtPQLYlR0BZ
npLBjTKRQNJbgT9w+Y7BX7JiQPGgokDC/ITBzRBxQMSau0AyUpDB3fRMQJD1gEA426PBArYFQRuK
30D+nJTB0VHvQF5v00CdW4zBmxX8QCuf9kAnd53BvXW0QED8FEG2QbfBTZ20QBLB9kDRqZXBZ/HJ
QGWiEj9Rv6zBbw6QQLtsTb8OkKXBrwvRQACd7b/KVKzBecubQB+eIkGex6/Bb7TLQGf+BkEoKbHB
zGDDQLvo3kDfy4zBl+KgQCxi7z5EHajBZZHQQFs8AUH4+p3ByvvhQI2uFr8o2K7BKQ6oQGo4+7/D
tafB1vHRQG5bjj8lmo/B+W6cQCLJCEHee3PBV96DQFBI8UAEs4DBf/+yQHP9+UAG/mDBCcO2QIRL
uECYSHXBHU6iQLFgzUDFtoTBLBnXQPDcx73FRYjBBa2IQAHm2z+48KTBKV2fQAeJiEAOa47B7RKg
QCUuG0AApZvBpd2EQDKBY0AH6ZbBluKjQCNrHEHn7qXBmYbAQEwmDEHP1KbBJSCpQEWxuD9TH5PB
XHOHQD+4rUDQV4rBQ9bxQGtA1z+jDpPBDdnNQOP/10B+FWnByrRyQOLCj0D1BZ/B7b8EQUb7+L7R
K7PB3OiXQAtmS8APPKXBB3AWQU4R10BJJZTBbz/7QKRIwUAqo4XBI8wIQYdJ/0Ab36PBxyi0QBvp
FUFL4r/BdmKTQPQOAEFAD5bBWunWQPCnxT/brq7Bp4BhQP9UYr8G9qHB/n3jQOrOL8Cv8q3BFaiG
QL2EL0GZCrLBWazhQKWK9UAG1bPBFXe0QCMLEUGeV33BcuGFQCSTFEEc4WzB2ghUQE/h4kA13nfB
PydsQGYDAUEroYfBDOHGQBlyCEHCDljBobWaQJFI7EALQVbBfGKdQERfqkDGRGvBqvfMQETtnkDr
V3rBhFX5QHp5mr5WCofBTNjHQJKR4j3DhIDB69HHQHFTeb9W+YvBWcyGQGJ/GUCz1qvBJ1VQQLrR
uD8aYKLBAwmmQImyZEACy4fBnLe9QIpkk0DF85HBpUK+QFMoNkD+qZ7Byz9QQKX5R0AzLJPByUKQ
QPRzfD9FqI/BKTBiQNYxo0CJQoXBurByQD9FvEDIiJDB0ZpRQA/KgUAmW6TB

> <OMEGA_E>
WAqOPkC29T0=

> <OMEGA_NBR>
     11972

$$$$
50214049
  -OEChem-04172616093D

 68 71  0     1  0  0  0  0  0999 V2000
    8.3786    6.9790  -18.5701 C   0  0  0  0  0  0  0  0  0  0  0  0
    7.5000    6.5855  -17.5443 C   0  0  0  0  0  0  0  0  0  0  0  0
    7.8997    7.7099  -19.6706 C   0  0  0  0  0  0  0  0  0  0  0  0
    5.6632    7.6889  -18.7038 C   0  0  0  0  0  0  0  0  0  0  0  0
    6.2529    0.6533  -21.6219 C   0  0  0  0  0  0  0  0  0  0  0  0
    4.5632   -0.8595  -20.7132 C   0  0  0  0  0  0  0  0  0  0  0  0
    6.6336   -1.7553  -21.6443 C   0  0  0  0  0  0  0  0  0  0  0  0
    5.6451    9.3648  -22.8747 C   0  0  0  0  0  0  0  0  0  0  0  0
    6.3697    8.4618  -22.1360 C   0  0  0  0  0  0  0  0  0  0  0  0
    5.1644    9.8257  -20.7516 C   0  0  0  0  0  0  0  0  0  0  0  0
    6.1263    6.9416  -17.5938 C   0  0  0  0  0  0  0  0  0  0  0  0
    4.9982    0.4500  -21.0077 C   0  0  0  0  0  0  0  0  0  0  0  0
    6.5386    8.0737  -19.7377 C   0  0  0  0  0  0  0  0  0  0  0  0
    7.0717   -0.4475  -21.9331 C   0  0  0  0  0  0  0  0  0  0  0  0
    5.3783   -1.9607  -21.0367 C   0  0  0  0  0  0  0  0  0  0  0  0
    6.5697    1.0898  -17.9362 C   0  0  0  0  0  0  0  0  0  0  0  0
    5.4432    7.8761  -13.9939 C   0  0  0  0  0  0  0  0  0  0  0  0
    4.8439    8.5483  -15.2409 C   0  0  0  0  0  0  0  0  0  0  0  0
    6.3990    6.7318  -14.3765 C   0  0  0  0  0  0  0  0  0  0  0  0
    4.1202    7.5042  -16.1022 C   0  0  0  0  0  0  0  0  0  0  0  0
    5.7135    5.7130  -15.3122 C   0  0  0  0  0  0  0  0  0  0  0  0
    5.0936    6.3900  -16.5781 C   0  0  0  0  0  0  0  0  0  0  0  0
    6.7767   -0.1260  -17.0371 C   0  0  0  0  0  0  0  0  0  0  0  0
    4.1881    1.6407  -20.5417 C   0  0  0  0  0  0  0  0  0  0  0  0
    5.0034    4.2374  -17.7972 C   0  0  0  0  0  0  0  0  0  0  0  0
    4.9555    2.3650  -19.4142 C   0  0  1  0  0  0  0  0  0  0  0  0
    4.1318    3.5036  -18.8074 C   0  0  2  0  0  0  0  0  0  0  0  0
    4.9312   10.1991  -21.9916 N   0  0  0  0  0  0  0  0  0  0  0  0
    6.0440    8.7698  -20.8421 N   0  0  0  0  0  0  0  0  0  0  0  0
    5.2789    1.3920  -18.3525 N   0  0  0  0  0  0  0  0  0  0  0  0
    4.2594    5.3986  -17.2833 N   0  3  0  0  0  0  0  0  0  0  0  0
    7.5450    1.6708  -18.4001 O   0  0  0  0  0  0  0  0  0  0  0  0
    3.7338    4.4264  -19.8210 O   0  0  0  0  0  0  0  0  0  0  0  0
    8.2873   -0.2467  -22.4896 F   0  0  0  0  0  0  0  0  0  0  0  0
    4.9625   -3.2143  -20.7485 F   0  0  0  0  0  0  0  0  0  0  0  0
    9.4251    6.7185  -18.5115 H   0  0  0  0  0  0  0  0  0  0  0  0
    7.8736    6.0076  -16.7119 H   0  0  0  0  0  0  0  0  0  0  0  0
    8.5740    7.9930  -20.4653 H   0  0  0  0  0  0  0  0  0  0  0  0
    4.6215    7.9684  -18.7585 H   0  0  0  0  0  0  0  0  0  0  0  0
    6.5844    1.6548  -21.8531 H   0  0  0  0  0  0  0  0  0  0  0  0
    3.6054   -1.0169  -20.2399 H   0  0  0  0  0  0  0  0  0  0  0  0
    7.2598   -2.6006  -21.8886 H   0  0  0  0  0  0  0  0  0  0  0  0
    5.6257    9.4254  -23.9528 H   0  0  0  0  0  0  0  0  0  0  0  0
    7.0380    7.6914  -22.4913 H   0  0  0  0  0  0  0  0  0  0  0  0
    4.7522   10.2570  -19.8513 H   0  0  0  0  0  0  0  0  0  0  0  0
    5.9991    8.6279  -13.4144 H   0  0  0  0  0  0  0  0  0  0  0  0
    4.6265    7.4697  -13.3792 H   0  0  0  0  0  0  0  0  0  0  0  0
    4.1280    9.3229  -14.9288 H   0  0  0  0  0  0  0  0  0  0  0  0
    5.6506    9.0103  -15.8291 H   0  0  0  0  0  0  0  0  0  0  0  0
    7.2759    7.1544  -14.8888 H   0  0  0  0  0  0  0  0  0  0  0  0
    6.7229    6.2151  -13.4610 H   0  0  0  0  0  0  0  0  0  0  0  0
    3.3148    7.0467  -15.5090 H   0  0  0  0  0  0  0  0  0  0  0  0
    3.6891    8.0031  -16.9827 H   0  0  0  0  0  0  0  0  0  0  0  0
    6.4602    4.9734  -15.6369 H   0  0  0  0  0  0  0  0  0  0  0  0
    4.9124    5.2050  -14.7552 H   0  0  0  0  0  0  0  0  0  0  0  0
    7.8535   -0.3213  -16.9258 H   0  0  0  0  0  0  0  0  0  0  0  0
    6.3357    0.0698  -16.0486 H   0  0  0  0  0  0  0  0  0  0  0  0
    6.2899   -1.0030  -17.4886 H   0  0  0  0  0  0  0  0  0  0  0  0
    4.0314    2.3315  -21.3832 H   0  0  0  0  0  0  0  0  0  0  0  0
    3.2141    1.2977  -20.1626 H   0  0  0  0  0  0  0  0  0  0  0  0
    5.2545    3.5620  -16.9660 H   0  0  0  0  0  0  0  0  0  0  0  0
    5.9285    4.5777  -18.2854 H   0  0  0  0  0  0  0  0  0  0  0  0
    5.8852    2.7804  -19.8303 H   0  0  0  0  0  0  0  0  0  0  0  0
    3.2533    3.0839  -18.2954 H   0  0  0  0  0  0  0  0  0  0  0  0
    4.5201    0.9199  -17.9038 H   0  0  0  0  0  0  0  0  0  0  0  0
    3.5618    5.0674  -16.6479 H   0  0  0  0  0  0  0  0  0  0  0  0
    3.8172    5.8541  -18.0560 H   0  0  0  0  0  0  0  0  0  0  0  0
    3.1886    3.9811  -20.4589 H   0  0  0  0  0  0  0  0  0  0  0  0
  1  2  2  0  0  0  0
  1  3  1  0  0  0  0
  2 11  1  0  0  0  0
  3 13  2  0  0  0  0
  4 11  2  0  0  0  0
  4 13  1  0  0  0  0
  5 12  1  0  0  0  0
  5 14  2  0  0  0  0
  6 12  2  0  0  0  0
  6 15  1  0  0  0  0
  7 14  1  0  0  0  0
  7 15  2  0  0  0  0
  8  9  2  0  0  0  0
  8 28  1  0  0  0  0
  9 29  1  0  0  0  0
 10 28  2  0  0  0  0
 10 29  1  0  0  0  0
 11 22  1  0  0  0  0
 12 24  1  0  0  0  0
 13 29  1  0  0  0  0
 14 34  1  0  0  0  0
 15 35  1  0  0  0  0
 16 23  1  0  0  0  0
 16 30  1  0  0  0  0
 16 32  2  0  0  0  0
 17 18  1  0  0  0  0
 17 19  1  0  0  0  0
 18 20  1  0  0  0  0
 19 21  1  0  0  0  0
 20 22  1  0  0  0  0
 21 22  1  0  0  0  0
 22 31  1  0  0  0  0
 24 26  1  0  0  0  0
 25 27  1  0  0  0  0
 25 31  1  0  0  0  0
 26 27  1  0  0  0  0
 26 30  1  0  0  0  0
 27 33  1  0  0  0  0
  1 36  1  0  0  0  0
  2 37  1  0  0  0  0
  3 38  1  0  0  0  0
  4 39  1  0  0  0  0
  5 40  1  0  0  0  0
  6 41  1  0  0  0  0
  7 42  1  0  0  0  0
  8 43  1  0  0  0  0
  9 44  1  0  0  0  0
 10 45  1  0  0  0  0
 17 46  1  0  0  0  0
 17 47  1  0  0  0  0
 18 48  1  0  0  0  0
 18 49  1  0  0  0  0
 19 50  1  0  0  0  0
 19 51  1  0  0  0  0
 20 52  1  0  0  0  0
 20 53  1  0  0  0  0
 21 54  1  0  0  0  0
 21 55  1  0  0  0  0
 23 56  1  0  0  0  0
 23 57  1  0  0  0  0
 23 58  1  0  0  0  0
 24 59  1  0  0  0  0
 24 60  1  0  0  0  0
 25 61  1  0  0  0  0
 25 62  1  0  0  0  0
 26 63  1  0  0  0  0
 27 64  1  0  0  0  0
 30 65  1  0  0  0  0
 31 66  1  0  0  0  0
 31 67  1  0  0  0  0
 33 68  1  0  0  0  0
M  CHG  1  31   1
M  END
> <OMEGA_C>
yQ4GQUhU30B3j5TBLwDwQIO80kCuWozBc8r8QB+39kB8XZ3BTTm1QHcL9kB4oZXBXxfIQDBAJz+0
+azB+QWSQOwFXL+5tKXBFUbUQJWt4L+BJ63B2KS0QDTWFUFm/7bB+dTLQGxjB0F/FrHBYUKlQEI2
HUFPA6bBegrEQIch3kAXwIzBMvGfQORi5j7WD6jBOjzRQMQtAUHg5p3BGkviQJMZ5b4Cd6/BQRus
QKz2+r8uS6jB0jrSQFl+iz9wfY/B5y6uQCkJ/EDV5l/BngGbQArGCEGR2nPBqMTMQPhq10D5BWbB
/tiDQLYi8EBb0YDB29S2QNzQtkCs/nTBAv+iQKl6zED8n4TBE9vYQDgIAb7kS4jBpQSGQO0B0j9W
VaTBKhygQHiYh0CgYI7BW5OeQKNcF0BXUJvBpTeEQH46YECCdZbBKcydQH4vI0HL7q/Bq2jBQAhR
DEGsvKbBsOyoQKUtsj/b0ZLBqkyIQPfArEBLRIrBZXDxQA7e1T9gM5PBJfduQAaljUBkkZ7BqpgE
QdCofL606rPBmsyeQLu2TcDl/KXBIM0WQRz+1kCEF5TBPvT7QP89wED6sYXBLy8JQcjG/0ACuaPB
LOOTQGz9/kBrEZbBgLPSQIfR0z8v067BIb5mQDMqgr8/66HBE1DoQK9wJsDCG6/B8AW0QFrOFkFm
n7/BnzfhQLUf9kA77rPBUhKYQNAcJEF7z57Bu/i/QAIMCkFloVbBogyUQOEH70AAEVbBPRiEQLEq
FUFG3G7BldG0QP4pEEHZQ33BONToQJjw5ECAOG7BJiLXQBXixkAyYFfB5SVUQKB+4UC5JHjB+Bls
QKQMAEGY3IfB0LnOQBEmn0CsMHrBfjKdQJ6PpkApFWzBLFD7QAN+pL74Z4fBqb3KQGLxjj16Y4DB
LUfJQLJigL+j6IvBQgGBQAk4FUDIEKvBI7NNQPQapj8STaHBNiWoQEP3Y0B1uofBoLa9QF98kkCC
SJLBYVO8QODyMUBspJ7BYDVQQCRfRUAPXZLB0aSQQBt9az/iOo/Bj/RjQFYookDxLoXBbkx0QPVU
u0CZcpDBGRJMQEPKfkDWq6PBb4gFQYOC30A7k5TBxeDuQAR400DNVIzBQ8r7QKIj9kB4gZ3B3xm0
QHTD9UAH0pXBMtLIQCeoHj9l1KzB80+QQFiyTb/IjqXBFTHRQIQa57+F36zBd3GbQDE2IEHrTbHB
IFOiQG02G0FKv6bB78HLQJMLBkGWfbHBuOXCQKTJ3kAcyozBfEygQMoK9j4U+KfB9CXQQGuuAEHj
KJ7BrEDhQFrYBb+3Qq/BVrCoQAj0+L+ECqjBPibTQCjhiz+gmY/Ba4+rQJ6D/UDBAWDBzU+YQFFO
CUHkDXTB3v/KQIOY2UCOBWbB/geCQGrc8EDv+4DBb5q1QLtpuEAK0nTBvsihQHFzzUA2noTBOhjZ
QLNDBb76cojBqM+HQPKc2j+qcqTBsRSgQGxiiECYLY7B/gygQDZPGkBPR5vBOyWFQAB4YkD2dpbB
Exa1QEy/EkFhrrfB4CrAQHooC0FOLqfBMPOpQBLitj+q0JLBV5uHQOkvrUDhKIrB76zyQKT60z8p
UpPBf/5xQKL9jkBqlZ7BQiYEQdK6xr6HyrPBwWSZQIgnS8C6rKXBfUkWQctT10BoCZTBY8z6QHhx
wUC6loXBX7oIQfjv/kAb3qPBlb2SQKqO/kA+VJbBNRPVQPcjzT/Irq7B87xiQNoYab9nzqHB7+7j
QAeoK8Bfv67BRviFQKprLEEuO7TBh7GTQElCIkHmwZ/BgaviQFA19ECR+rPBTqq8QFb3CkFgplbB
44iRQNvw70DdSlbBZtiAQBF6FUHEKG/BRAKyQAPyEEFCWH3Bt6/mQLui50CSUW7BI9jVQDyAyUCn
VlfBRSNQQEYI4kAArnjB7ippQFhJAEHqGojB/cvNQLngoEDM0HnBjAucQF4ZqEB24WvBsG77QF7M
sb4wmIfBCzfLQNPGkD34hYDBNunIQIbcfr/oEozB+ZCEQB2RGUA0PqvBhrJPQPlotD+ho6HBFoin
QJMcZUDTh4fBUQa+QAGRk0At3ZHBC/C9QEthNUBsd57BZ21RQJL7RkDCk5LBS3GRQL3jeT9VKY/B
MP5iQAtlokBfC4XBRFpyQGNJu0CPXpDBfDdQQOfTgEBb0aPB

> <OMEGA_E>
EKZyPgD+hz4=

> <OMEGA_NBR>
     14466

$$$$
50214055
  -OEChem-04172616093D

 67 70  0     1  0  0  0  0  0999 V2000
    8.3795    6.9657  -18.5625 C   0  0  0  0  0  0  0  0  0  0  0  0
    7.4880    6.5855  -17.5417 C   0  0  0  0  0  0  0  0  0  0  0  0
    7.9149    7.6900  -19.6734 C   0  0  0  0  0  0  0  0  0  0  0  0
    5.6708    7.6920  -18.7221 C   0  0  0  0  0  0  0  0  0  0  0  0
    4.5311   -0.7967  -20.6847 C   0  0  0  0  0  0  0  0  0  0  0  0
    6.2330    0.6746  -21.6382 C   0  0  0  0  0  0  0  0  0  0  0  0
    6.5784   -1.7394  -21.6186 C   0  0  0  0  0  0  0  0  0  0  0  0
    5.6709    9.1773  -22.8780 C   0  0  0  0  0  0  0  0  0  0  0  0
    4.8501   10.0319  -21.9908 C   0  0  0  0  0  0  0  0  0  0  0  0
    6.1178    6.9564  -17.6022 C   0  0  0  0  0  0  0  0  0  0  0  0
    4.9825    0.5001  -21.0081 C   0  0  0  0  0  0  0  0  0  0  0  0
    6.5567    8.0583  -19.7513 C   0  0  0  0  0  0  0  0  0  0  0  0
    5.3268   -1.9152  -20.9949 C   0  0  0  0  0  0  0  0  0  0  0  0
    7.0313   -0.4440  -21.9388 C   0  0  0  0  0  0  0  0  0  0  0  0
    6.5931    1.1312  -17.9747 C   0  0  0  0  0  0  0  0  0  0  0  0
    5.3983    7.9455  -14.0283 C   0  0  0  0  0  0  0  0  0  0  0  0
    4.8040    8.6034  -15.2855 C   0  0  0  0  0  0  0  0  0  0  0  0
    6.3603    6.8010  -14.3936 C   0  0  0  0  0  0  0  0  0  0  0  0
    4.0909    7.5498  -16.1419 C   0  0  0  0  0  0  0  0  0  0  0  0
    5.6754    5.7677  -15.3119 C   0  0  0  0  0  0  0  0  0  0  0  0
    5.0693    6.4284  -16.5907 C   0  0  0  0  0  0  0  0  0  0  0  0
    6.7998   -0.0849  -17.0759 C   0  0  0  0  0  0  0  0  0  0  0  0
    4.1964    1.7084  -20.5538 C   0  0  0  0  0  0  0  0  0  0  0  0
    4.9866    4.2719  -17.7858 C   0  0  0  0  0  0  0  0  0  0  0  0
    4.9697    2.4256  -19.4268 C   0  0  1  0  0  0  0  0  0  0  0  0
    4.1399    3.5606  -18.8268 C   0  0  2  0  0  0  0  0  0  0  0  0
    6.4191    8.4095  -22.1244 N   0  0  0  0  0  0  0  0  0  0  0  0
    5.1317    9.7147  -20.7522 N   0  0  0  0  0  0  0  0  0  0  0  0
    6.0651    8.7384  -20.8606 N   0  0  0  0  0  0  0  0  0  0  0  0
    5.2982    1.4537  -18.3643 N   0  0  0  0  0  0  0  0  0  0  0  0
    4.2388    5.4345  -17.2894 N   0  3  0  0  0  0  0  0  0  0  0  0
    7.5680    1.6942  -18.4612 O   0  0  0  0  0  0  0  0  0  0  0  0
    3.7788    4.4954  -19.8441 O   0  0  0  0  0  0  0  0  0  0  0  0
    4.8964   -3.1571  -20.6791 F   0  0  0  0  0  0  0  0  0  0  0  0
    8.2402   -0.2726  -22.5189 F   0  0  0  0  0  0  0  0  0  0  0  0
    9.4239    6.6998  -18.4918 H   0  0  0  0  0  0  0  0  0  0  0  0
    7.8490    6.0065  -16.7046 H   0  0  0  0  0  0  0  0  0  0  0  0
    8.5966    7.9638  -20.4651 H   0  0  0  0  0  0  0  0  0  0  0  0
    4.6315    7.9779  -18.7893 H   0  0  0  0  0  0  0  0  0  0  0  0
    3.5757   -0.9310  -20.1994 H   0  0  0  0  0  0  0  0  0  0  0  0
    6.5772    1.6669  -21.8897 H   0  0  0  0  0  0  0  0  0  0  0  0
    7.1908   -2.5980  -21.8512 H   0  0  0  0  0  0  0  0  0  0  0  0
    5.6558    9.1852  -23.9578 H   0  0  0  0  0  0  0  0  0  0  0  0
    4.1436   10.7842  -22.3090 H   0  0  0  0  0  0  0  0  0  0  0  0
    5.9480    8.7050  -13.4530 H   0  0  0  0  0  0  0  0  0  0  0  0
    4.5794    7.5423  -13.4145 H   0  0  0  0  0  0  0  0  0  0  0  0
    4.0826    9.3775  -14.9850 H   0  0  0  0  0  0  0  0  0  0  0  0
    5.6125    9.0635  -15.8725 H   0  0  0  0  0  0  0  0  0  0  0  0
    7.2345    7.2195  -14.9139 H   0  0  0  0  0  0  0  0  0  0  0  0
    6.6880    6.2996  -13.4711 H   0  0  0  0  0  0  0  0  0  0  0  0
    3.2773    7.1008  -15.5533 H   0  0  0  0  0  0  0  0  0  0  0  0
    3.6719    8.0377  -17.0343 H   0  0  0  0  0  0  0  0  0  0  0  0
    6.4193    5.0178  -15.6187 H   0  0  0  0  0  0  0  0  0  0  0  0
    4.8678    5.2748  -14.7507 H   0  0  0  0  0  0  0  0  0  0  0  0
    7.8754   -0.2974  -16.9871 H   0  0  0  0  0  0  0  0  0  0  0  0
    6.3834    0.1213  -16.0788 H   0  0  0  0  0  0  0  0  0  0  0  0
    6.2891   -0.9553  -17.5137 H   0  0  0  0  0  0  0  0  0  0  0  0
    4.0585    2.3967  -21.4006 H   0  0  0  0  0  0  0  0  0  0  0  0
    3.2135    1.3874  -20.1784 H   0  0  0  0  0  0  0  0  0  0  0  0
    5.2027    3.5869  -16.9527 H   0  0  0  0  0  0  0  0  0  0  0  0
    5.9309    4.6053  -18.2408 H   0  0  0  0  0  0  0  0  0  0  0  0
    5.8972    2.8438  -19.8449 H   0  0  0  0  0  0  0  0  0  0  0  0
    3.2435    3.1417  -18.3463 H   0  0  0  0  0  0  0  0  0  0  0  0
    4.5411    0.9987  -17.8954 H   0  0  0  0  0  0  0  0  0  0  0  0
    3.5374    5.1095  -16.6551 H   0  0  0  0  0  0  0  0  0  0  0  0
    3.8013    5.8829  -18.0689 H   0  0  0  0  0  0  0  0  0  0  0  0
    3.2484    4.0601  -20.5010 H   0  0  0  0  0  0  0  0  0  0  0  0
  1  2  2  0  0  0  0
  1  3  1  0  0  0  0
  2 10  1  0  0  0  0
  3 12  2  0  0  0  0
  4 10  2  0  0  0  0
  4 12  1  0  0  0  0
  5 11  1  0  0  0  0
  5 13  2  0  0  0  0
  6 11  2  0  0  0  0
  6 14  1  0  0  0  0
  7 13  1  0  0  0  0
  7 14  2  0  0  0  0
  8  9  1  0  0  0  0
  8 27  2  0  0  0  0
  9 28  2  0  0  0  0
 10 21  1  0  0  0  0
 11 23  1  0  0  0  0
 12 29  1  0  0  0  0
 13 34  1  0  0  0  0
 14 35  1  0  0  0  0
 15 22  1  0  0  0  0
 15 30  1  0  0  0  0
 15 32  2  0  0  0  0
 16 17  1  0  0  0  0
 16 18  1  0  0  0  0
 17 19  1  0  0  0  0
 18 20  1  0  0  0  0
 19 21  1  0  0  0  0
 20 21  1  0  0  0  0
 21 31  1  0  0  0  0
 23 25  1  0  0  0  0
 24 26  1  0  0  0  0
 24 31  1  0  0  0  0
 25 26  1  0  0  0  0
 25 30  1  0  0  0  0
 26 33  1  0  0  0  0
 27 29  1  0  0  0  0
 28 29  1  0  0  0  0
  1 36  1  0  0  0  0
  2 37  1  0  0  0  0
  3 38  1  0  0  0  0
  4 39  1  0  0  0  0
  5 40  1  0  0  0  0
  6 41  1  0  0  0  0
  7 42  1  0  0  0  0
  8 43  1  0  0  0  0
  9 44  1  0  0  0  0
 16 45  1  0  0  0  0
 16 46  1  0  0  0  0
 17 47  1  0  0  0  0
 17 48  1  0  0  0  0
 18 49  1  0  0  0  0
 18 50  1  0  0  0  0
 19 51  1  0  0  0  0
 19 52  1  0  0  0  0
 20 53  1  0  0  0  0
 20 54  1  0  0  0  0
 22 55  1  0  0  0  0
 22 56  1  0  0  0  0
 22 57  1  0  0  0  0
 23 58  1  0  0  0  0
 23 59  1  0  0  0  0
 24 60  1  0  0  0  0
 24 61  1  0  0  0  0
 25 62  1  0  0  0  0
 26 63  1  0  0  0  0
 30 64  1  0  0  0  0
 31 65  1  0  0  0  0
 31 66  1  0  0  0  0
 33 67  1  0  0  0  0
M  CHG  1  31   1
M  END
> <OMEGA_C>
bxIGQfvm3kAagJTBCJ7vQMu80kBzVYzBEUf9QNsU9kAPY53BGHe1QMok9kDnxpXBq/6QQHHzS78y
eqXBA3XHQEixLD8eG63BRoLSQKak3r/U8qzBQHi1QDrWEkEPBrfB9DObQH+CIEET7a/BNsXDQNCa
3kA10YzBvnCfQLgJAD+MEKjBYdDRQKjuAEGsAp7BNXWqQCAm9b+e9afBmwDhQHJR476+gq/BFPvS
QALKkD8yzI/Bt76sQLxB/kD3c2DBhbqZQFqnCUFGkXTBu4fLQCui2UBhTGbBB+mCQAOY8UCjIoHB
vpy1QGaRuEBm/XTByjeiQK21zUDAuYTBnJfZQOjprb1mm4jBzkiGQISr2j8vbqTB4ZGfQLqziEBN
SY7BYAefQL09G0AXapvBMHqEQPDgY0BCnZbBnGnNQFyNBkHJ/rDBCDekQIFvG0GVBKbB9RTCQFPQ
C0GH4qbB5oqpQOgRuj8Z6pLBN6SHQI/nrUCwUIrBdy3yQNjc2D+dsJPBcthxQKjaj0CewJ7Bmq+c
QFkOSsC6bqXBAtgDQSiPi761JrTBJMgWQbtk1kAz75PBMSv7QBQ1wEAGo4XBposJQYjX/kBzuKPB
JDWUQPxK/0BnUJbBeddkQJBVbr9UmKHBmnjSQKZc1T80Hq/B+xrmQGpGJsAvz67BTfy0QKz2EkGf
qb/BUpiEQPWLLEHgeLLBBVa+QNBHC0GXP1fBI4qSQEpa8UDOoVbBAaWCQGEKFkGnwm/BkJmzQDYE
EUHD9X3BEYHnQEUG50Bpn27BfgTWQECWyUCIiVfBFsBRQHo540B22njBo/9qQDyaAEFCRojBEmvN
QAaSoEBd5nnBa8WbQI/LqEDBAmzBHwP8QFVHmL6l5YfBqUTMQGBW+D1toYDBMUDJQNGNdL8FHIzB
dN+BQCZkGUCBNKvB/alNQJiVsT9sbaHBjnymQFyQZUAen4fBBcq9QL9ek0A37ZHByrW8QH0ANkBq
wp7B4JRPQOURSUAlxZLB3VCRQLKrfz/bKY/B8mRiQKyAo0CMPYXBUUhzQFBAvEAOjZDB2+VPQCPs
gUATAqTBKDQGQXD03kA7g5TBiNPvQLze0kA3WozB/5b9QHgE9kCKa53BILu1QGhD9kA005XB+rHH
QJZLNz+wXa3BMYqSQA3ISb/hkqXB/gvUQB+T2L8mWa3BpUy1QApoEkGcF7fBRPWbQFiNIEEBBLDB
bPvDQLTD3kDD2YzBrAqgQOZmBD9CNKjBKyfSQI3tAEGrDp7BZbvhQOBdxr7x46/BhXGsQE4i8r89
MqjBkvnSQIn9jj+B14/BrTGtQLBN/kA8aWDBxxyaQJi+CUFNeXTBhfbLQADG2UBUYWbB8zyDQGDq
8UDCIIHBa9+1QKzFuECzDXXBI2uiQDr0zUBiv4TBFcnZQDyR1L1Ht4jBXmaGQNzT2j8PdKTBsISf
QFreiEBqT47Bx9meQETfGkCzWZvB9BSEQCXwYkC0d5bBljTNQCQiBkHEDLHB5VKlQOyzG0FrGabB
Ko7CQPnIC0GW8qbBYH2pQFATuD/K7pLBIrOHQEwtrkB3VIrBBRfyQMqZ2T+clZPBhuJuQAT/jkAo
l57B4BkEQQw1Rb5plbTBXYmfQIIUScBZpaXBAOoWQUZ51kDL7JPB0VT7QDlfwEAYpYXBLbYJQfil
/kCswqPBLn6UQN54/0C/X5bB4g3SQG+K2z/aYK/BeLFoQH/KcL/sjKHBwuvnQJWFIsBuWa/B0EO0
QGM7EkFYur/BF62FQHq5LEGPlLLBWs2+QBpFC0GEK1fBYgiTQBFM8UAwmFbBuAqDQGIcFkErmW/B
8vWzQLwlEUHA2X3BeNPnQJA850CmxG7BTaPWQIOpyUCfq1fBeUVSQLyQ40DI4HjBeNFrQA7WAEG3
QYjBH5fNQIq2oEC7/nnBgwmcQNwQqUCWCmzBhUP8QN7Vmb4Y5ofBgenLQOm5sT3zxYDBJxTKQGVX
er+aVozBvcSBQCUZGkB4J6vBNBtOQK2hrz9Vf6HBJwCnQESbZkCCnIfBZG69QFiJk0D7GpLBMH+8
QGY+NkAco57B8NlPQHxtR0CUdZLB6lKRQNyTeT/OOI/B1YNiQC7Yo0DpPoXBJmdzQEGNvEDej5DB
34JMQBWvgEDlvKPB

> <OMEGA_E>
YGwEPqBcBT4=

> <OMEGA_NBR>
     16932

$$$$
50214064
  -OEChem-04172616093D

 66 70  0     1  0  0  0  0  0999 V2000
    8.3361    6.8639  -18.3274 C   0  0  0  0  0  0  0  0  0  0  0  0
    7.4424    6.4813  -17.3085 C   0  0  0  0  0  0  0  0  0  0  0  0
    7.8731    7.6116  -19.4306 C   0  0  0  0  0  0  0  0  0  0  0  0
    5.6317    7.6050  -18.4855 C   0  0  0  0  0  0  0  0  0  0  0  0
    6.3575    0.6944  -21.6607 C   0  0  0  0  0  0  0  0  0  0  0  0
    4.6014   -0.7757  -20.8126 C   0  0  0  0  0  0  0  0  0  0  0  0
    6.6613   -1.7276  -21.7140 C   0  0  0  0  0  0  0  0  0  0  0  0
    6.0881    6.8631  -17.3956 C   0  0  0  0  0  0  0  0  0  0  0  0
    5.0827    0.5276  -21.0749 C   0  0  0  0  0  0  0  0  0  0  0  0
    6.5068    7.9748  -19.5174 C   0  0  0  0  0  0  0  0  0  0  0  0
    7.1464   -0.4310  -21.9741 C   0  0  0  0  0  0  0  0  0  0  0  0
    5.3873   -1.9004  -21.1387 C   0  0  0  0  0  0  0  0  0  0  0  0
    6.5458    1.0149  -18.0523 C   0  0  0  0  0  0  0  0  0  0  0  0
    4.4097    7.3678  -15.4994 C   0  0  0  0  0  0  0  0  0  0  0  0
    5.3471    6.2704  -14.9441 C   0  0  0  0  0  0  0  0  0  0  0  0
    5.6979    8.3681  -22.8908 C   0  0  0  0  0  0  0  0  0  0  0  0
    4.5188    8.8202  -20.8907 C   0  0  0  0  0  0  0  0  0  0  0  0
    6.4363   10.4750  -22.1702 C   0  0  0  0  0  0  0  0  0  0  0  0
    6.6530    8.9752  -21.8982 C   0  0  1  0  0  0  0  0  0  0  0  0
    4.5291    9.1880  -22.3804 C   0  0  1  0  0  0  0  0  0  0  0  0
    5.0522    6.3519  -16.4414 C   0  0  0  0  0  0  0  0  0  0  0  0
    6.6886   -0.2189  -17.1660 C   0  0  0  0  0  0  0  0  0  0  0  0
    4.2834    1.7464  -20.6254 C   0  0  0  0  0  0  0  0  0  0  0  0
    4.8970    4.1971  -17.6385 C   0  0  0  0  0  0  0  0  0  0  0  0
    4.9868    2.4479  -19.4340 C   0  0  1  0  0  0  0  0  0  0  0  0
    4.1288    3.5748  -18.8161 C   0  0  2  0  0  0  0  0  0  0  0  0
    5.9841    8.6823  -20.5999 N   0  0  2  0  0  0  0  0  0  0  0  0
    5.2679    1.4422  -18.3931 N   0  0  0  0  0  0  0  0  0  0  0  0
    4.1627    5.3528  -17.0729 N   0  3  0  0  0  0  0  0  0  0  0  0
    7.5443    1.5037  -18.5703 O   0  0  0  0  0  0  0  0  0  0  0  0
    5.0104   10.5553  -22.4885 O   0  0  0  0  0  0  0  0  0  0  0  0
    3.8753    4.5850  -19.7937 O   0  0  0  0  0  0  0  0  0  0  0  0
    8.3753   -0.2670  -22.5141 F   0  0  0  0  0  0  0  0  0  0  0  0
    4.9249   -3.1469  -20.8894 F   0  0  0  0  0  0  0  0  0  0  0  0
    9.3775    6.5845  -18.2643 H   0  0  0  0  0  0  0  0  0  0  0  0
    7.7915    5.9005  -16.4676 H   0  0  0  0  0  0  0  0  0  0  0  0
    8.5607    7.9072  -20.2092 H   0  0  0  0  0  0  0  0  0  0  0  0
    4.5933    7.8977  -18.5352 H   0  0  0  0  0  0  0  0  0  0  0  0
    6.7286    1.6870  -21.8690 H   0  0  0  0  0  0  0  0  0  0  0  0
    3.6294   -0.9102  -20.3614 H   0  0  0  0  0  0  0  0  0  0  0  0
    7.2662   -2.5891  -21.9557 H   0  0  0  0  0  0  0  0  0  0  0  0
    3.3295    7.3244  -15.2961 H   0  0  0  0  0  0  0  0  0  0  0  0
    4.7382    8.4175  -15.5141 H   0  0  0  0  0  0  0  0  0  0  0  0
    6.3438    6.5378  -14.5633 H   0  0  0  0  0  0  0  0  0  0  0  0
    4.9351    5.4447  -14.3453 H   0  0  0  0  0  0  0  0  0  0  0  0
    5.9592    8.5824  -23.9376 H   0  0  0  0  0  0  0  0  0  0  0  0
    5.5621    7.2842  -22.7613 H   0  0  0  0  0  0  0  0  0  0  0  0
    4.0631    9.6168  -20.2843 H   0  0  0  0  0  0  0  0  0  0  0  0
    3.9847    7.8747  -20.7150 H   0  0  0  0  0  0  0  0  0  0  0  0
    6.6762   11.0758  -21.2806 H   0  0  0  0  0  0  0  0  0  0  0  0
    7.0493   10.8145  -23.0181 H   0  0  0  0  0  0  0  0  0  0  0  0
    7.6967    8.6381  -21.9824 H   0  0  0  0  0  0  0  0  0  0  0  0
    3.5784    8.9838  -22.8946 H   0  0  0  0  0  0  0  0  0  0  0  0
    7.7470   -0.5143  -17.1157 H   0  0  0  0  0  0  0  0  0  0  0  0
    6.3241    0.0125  -16.1543 H   0  0  0  0  0  0  0  0  0  0  0  0
    6.0973   -1.0444  -17.5889 H   0  0  0  0  0  0  0  0  0  0  0  0
    4.1995    2.4537  -21.4637 H   0  0  0  0  0  0  0  0  0  0  0  0
    3.2782    1.4256  -20.3144 H   0  0  0  0  0  0  0  0  0  0  0  0
    5.0294    3.4371  -16.8543 H   0  0  0  0  0  0  0  0  0  0  0  0
    5.8825    4.5355  -17.9912 H   0  0  0  0  0  0  0  0  0  0  0  0
    5.9322    2.8819  -19.7918 H   0  0  0  0  0  0  0  0  0  0  0  0
    3.1856    3.1465  -18.4461 H   0  0  0  0  0  0  0  0  0  0  0  0
    4.4927    1.0437  -17.9030 H   0  0  0  0  0  0  0  0  0  0  0  0
    3.5217    5.0161  -16.3832 H   0  0  0  0  0  0  0  0  0  0  0  0
    3.6552    5.7991  -17.8100 H   0  0  0  0  0  0  0  0  0  0  0  0
    3.4006    4.2070  -20.5246 H   0  0  0  0  0  0  0  0  0  0  0  0
  1  2  2  0  0  0  0
  1  3  1  0  0  0  0
  2  8  1  0  0  0  0
  3 10  2  0  0  0  0
  4  8  2  0  0  0  0
  4 10  1  0  0  0  0
  5  9  1  0  0  0  0
  5 11  2  0  0  0  0
  6  9  2  0  0  0  0
  6 12  1  0  0  0  0
  7 11  1  0  0  0  0
  7 12  2  0  0  0  0
  8 21  1  0  0  0  0
  9 23  1  0  0  0  0
 10 27  1  0  0  0  0
 11 33  1  0  0  0  0
 12 34  1  0  0  0  0
 13 22  1  0  0  0  0
 13 28  1  0  0  0  0
 13 30  2  0  0  0  0
 14 15  1  0  0  0  0
 14 21  1  0  0  0  0
 15 21  1  0  0  0  0
 16 19  1  0  0  0  0
 16 20  1  0  0  0  0
 17 20  1  0  0  0  0
 17 27  1  0  0  0  0
 18 19  1  0  0  0  0
 18 31  1  0  0  0  0
 19 27  1  0  0  0  0
 20 31  1  0  0  0  0
 21 29  1  0  0  0  0
 23 25  1  0  0  0  0
 24 26  1  0  0  0  0
 24 29  1  0  0  0  0
 25 26  1  0  0  0  0
 25 28  1  0  0  0  0
 26 32  1  0  0  0  0
  1 35  1  0  0  0  0
  2 36  1  0  0  0  0
  3 37  1  0  0  0  0
  4 38  1  0  0  0  0
  5 39  1  0  0  0  0
  6 40  1  0  0  0  0
  7 41  1  0  0  0  0
 14 42  1  0  0  0  0
 14 43  1  0  0  0  0
 15 44  1  0  0  0  0
 15 45  1  0  0  0  0
 16 46  1  0  0  0  0
 16 47  1  0  0  0  0
 17 48  1  0  0  0  0
 17 49  1  0  0  0  0
 18 50  1  0  0  0  0
 18 51  1  0  0  0  0
 19 52  1  0  0  0  0
 20 53  1  0  0  0  0
 22 54  1  0  0  0  0
 22 55  1  0  0  0  0
 22 56  1  0  0  0  0
 23 57  1  0  0  0  0
 23 58  1  0  0  0  0
 24 59  1  0  0  0  0
 24 60  1  0  0  0  0
 25 61  1  0  0  0  0
 26 62  1  0  0  0  0
 28 63  1  0  0  0  0
 29 64  1  0  0  0  0
 29 65  1  0  0  0  0
 32 66  1  0  0  0  0
M  CHG  1  29   1
M  END
> <OMEGA_C>
xmAFQRil20CZnpLBJyjuQMdmz0C+d4rBG/D7QHWS80DRcZvBDze0QP9b80Bm4pPBd3DLQP/FMT8l
Sa3BYT6TQMeRRr85gKbBninVQLoh3b9Utq3BtdHCQCme20BKKovBdKWiQFwRBz9omajBGDjQQOkx
/0CyI5zBb6/kQDym3L72yq/BrmSsQOJB87/9G6nBhnfRQMrmgT8ma5DBMByNQK7E60CT/XfBbxur
QCGnyEAcG2/B2VS2QJnjBUFWILfBEZqQQFkfDUESIKfBg/bNQHWZJ0GjXLHBdeXUQEeaD0GHL6/B
fe6QQCMCE0EHC7PBhKuhQIdCy0Dyh4PBDAnWQIshYL4FVInBPhGJQLaK3z/lAKXBf7ScQK1OhkCP
G43BJZSfQBaqHEDjeJvBOh+EQOLIZEBlh5bBmn2/QOXqCkGOzKTB1pKoQN6ZuD8dJZPB8zSFQNVJ
q0BhlYjBS2vxQGZ5wD/xj5TBMlWgQFviKEF46LPBzgR4QLC4kkCJWZ7BVgEGQd2xiL7LHLTBuZid
QJBmScCIHafBCgoWQWK00kBIHZLBJlT5QI/QvECLvYPBjvgIQb8H/UBirKHBkfySQNq5/EAoSJTB
olDXQO3w1z/F867B/0doQOADab8x5KLBcYToQFyzJcBapa/BwxZVQI9h6kDGvHTBU5+XQOitBkGp
OXjBoQDLQKE10UA4A2nBr+ydQGA7rkBVhmXB57G+QKFRCUEigL/BhPyxQAIY6UA7F7bB6ASCQGze
GUE7RqLB4wV/QGD9+0BhuKXBiqPVQEc2MUGWPqrBL5ThQDIILUEoJbjBfEv2QMA1CkHk26/BwQRl
QJ69D0E8KLfBS+f3QL+rA7/m7IjBCl/KQAEjTDz5O4HBMR3DQH2vhb8ntozBa2KGQAMJHUDAtavB
1s1RQBp6tj/8g6LB+vCgQPn5W0CW1YbBEj28QN4ikUD67Y/BRNS9QGpwOECnVZ7B++BLQO9fSUCG
kZPBQ8SPQMWXhT9POY/BfWNhQIqDoEDQEIPBGu9pQCGSuUDceo7B5aJZQAeghkB1MqTBX/gEQSSi
4kBjk5HBhWbsQK3p1ECSz4nBo6b7QMmC+UDDmJrB8RCyQFwJ80D6XZTBYPLGQGRPNT+8/63BSBOU
QJICUL/lgqXBY4/TQA+l2b9KZq7BQHbAQBOe3UD6MovBa6WgQKpTAD9CPqjBN5HPQHjOAEFv+ZvB
5VzgQEctyL4XDrHB/l2tQOOp9L/fp6jBd1jWQOspkz8c35DBpa2KQKtO60D0oXfBcYGpQJJYyEDc
YW/BlaqOQKQ3G0FnCLDBrmbWQIz+HkGRzanBu/20QI84+kAdILbBWH+eQBLnBUEXD6zBcKO6QBbD
IUFX77PBJ5WfQP8mzEB4pYPBSbreQIjiIr0JhonBzb2GQGO02D9kWKTB5FmdQEHTh0DVb43BTkOf
QFXGHECzcJvBwXqDQL/KYkD9OJbBooPAQC+qDEHfhKTBMC2sQKUjvj8DIpPBdWKEQMZ5q0B1wYjB
/lz0QB8b1z8PjpXBL5rFQBl5EEG1PrvB0l5uQEIpkEAgFp7B5H8CQXG7Qr4PlLbBWv2gQDXbSsBc
LKbBTsgVQa2f20BknpDBC0/3QP/Kw0CA0YLBCzIJQeZrAkEmdKDBaT+QQONM+EDikJXBGMjQQIH/
2j8rELDBjRZuQPOQeb/WAaHBUwbnQHi0IsBmxLDB+WpQQHYG6UCyQHTBSoKUQEqNBkG/aXfBN1PJ
QOMy0UCqS2nBagadQMQerUCeImbBPKttQLHpGUHoebbBdhuCQLKSJUHFpanBw733QDcWG0ES16vB
EbTVQJ5pLUFmwqTBdR3PQDxG5EAf9rPBiyqeQLqV6UCTYLvBuMOFQEyk9kDMtajBpga8QB3wMUGg
YrfB1pMAQSKtib4leYnBDzjUQAPsUj61W4HB29fMQKsQar9fcIzBO+qAQCwRGEBuFqvBLu1PQLhX
qz/zJqHBLCSlQBwyYUA1HofBTR67QDeIlEB15ZDBb9K7QODIOkDf9Z7BuSVOQIPPREA9n5LB1h2V
QI28hT+/2Y7Bqu5gQMiJn0BdQIPBYttmQJtouUDvk47B00ROQCVzgkAmjqPB

> <OMEGA_E>
qMgBP+ogCD8=

> <OMEGA_NBR>
     19376

$$$$
50214041
  -OEChem-04172616093D

 77 80  0     1  0  0  0  0  0999 V2000
    8.4420    6.8645  -18.3230 C   0  0  0  0  0  0  0  0  0  0  0  0
    7.4996    6.4782  -17.3546 C   0  0  0  0  0  0  0  0  0  0  0  0
    8.0342    7.5958  -19.4488 C   0  0  0  0  0  0  0  0  0  0  0  0
    5.7349    7.5188  -18.6572 C   0  0  0  0  0  0  0  0  0  0  0  0
    6.2133    0.6401  -21.6949 C   0  0  0  0  0  0  0  0  0  0  0  0
    4.5005   -0.7863  -20.6937 C   0  0  0  0  0  0  0  0  0  0  0  0
    6.5051   -1.7818  -21.6636 C   0  0  0  0  0  0  0  0  0  0  0  0
    6.1342    6.8411  -17.4941 C   0  0  0  0  0  0  0  0  0  0  0  0
    4.9715    0.4978  -21.0397 C   0  0  0  0  0  0  0  0  0  0  0  0
    6.6698    7.9157  -19.6274 C   0  0  0  0  0  0  0  0  0  0  0  0
    6.9784   -0.4994  -22.0066 C   0  0  0  0  0  0  0  0  0  0  0  0
    5.2665   -1.9244  -21.0067 C   0  0  0  0  0  0  0  0  0  0  0  0
    6.6349    1.1471  -18.0051 C   0  0  0  0  0  0  0  0  0  0  0  0
    5.3371    8.0402  -14.0489 C   0  0  0  0  0  0  0  0  0  0  0  0
    4.7760    8.6280  -15.3549 C   0  0  0  0  0  0  0  0  0  0  0  0
    6.2723    6.8460  -14.3162 C   0  0  0  0  0  0  0  0  0  0  0  0
    4.0631    7.5319  -16.1585 C   0  0  0  0  0  0  0  0  0  0  0  0
    5.5839    5.7716  -15.1913 C   0  0  0  0  0  0  0  0  0  0  0  0
    4.9069   10.5380  -21.7052 C   0  0  0  0  0  0  0  0  0  0  0  0
    4.9575    9.3751  -20.7092 C   0  0  0  0  0  0  0  0  0  0  0  0
    6.9036    8.2686  -22.0712 C   0  0  0  0  0  0  0  0  0  0  0  0
    4.5008   10.0642  -23.1084 C   0  0  0  0  0  0  0  0  0  0  0  0
    5.9166    8.0881  -23.2257 C   0  0  0  0  0  0  0  0  0  0  0  0
    5.0357    6.3705  -16.5186 C   0  0  0  0  0  0  0  0  0  0  0  0
    6.8698   -0.0911  -17.1443 C   0  0  0  0  0  0  0  0  0  0  0  0
    4.2139    1.7248  -20.5842 C   0  0  0  0  0  0  0  0  0  0  0  0
    4.9832    4.2238  -17.7463 C   0  0  0  0  0  0  0  0  0  0  0  0
    4.9912    2.4252  -19.4485 C   0  0  1  0  0  0  0  0  0  0  0  0
    4.1517    3.5394  -18.8198 C   0  0  2  0  0  0  0  0  0  0  0  0
    6.2266    8.5751  -20.7763 N   0  0  3  0  0  0  0  0  0  0  0  0
    5.3362    1.4358  -18.4079 N   0  0  0  0  0  0  0  0  0  0  0  0
    4.2173    5.3617  -17.2149 N   0  3  0  0  0  0  0  0  0  0  0  0
    7.5971    1.7607  -18.4545 O   0  0  0  0  0  0  0  0  0  0  0  0
    5.5660    9.3679  -23.7808 O   0  0  0  0  0  0  0  0  0  0  0  0
    3.7923    4.5002  -19.8141 O   0  0  0  0  0  0  0  0  0  0  0  0
    8.1766   -0.3613  -22.6173 F   0  0  0  0  0  0  0  0  0  0  0  0
    4.8216   -3.1527  -20.6592 F   0  0  0  0  0  0  0  0  0  0  0  0
    9.4814    6.5981  -18.2004 H   0  0  0  0  0  0  0  0  0  0  0  0
    7.8164    5.9013  -16.4983 H   0  0  0  0  0  0  0  0  0  0  0  0
    8.7635    7.9142  -20.1790 H   0  0  0  0  0  0  0  0  0  0  0  0
    4.6885    7.7392  -18.8088 H   0  0  0  0  0  0  0  0  0  0  0  0
    6.5763    1.6229  -21.9570 H   0  0  0  0  0  0  0  0  0  0  0  0
    3.5521   -0.8958  -20.1888 H   0  0  0  0  0  0  0  0  0  0  0  0
    7.0921   -2.6559  -21.9042 H   0  0  0  0  0  0  0  0  0  0  0  0
    5.9005    8.8224  -13.5192 H   0  0  0  0  0  0  0  0  0  0  0  0
    4.4992    7.7029  -13.4210 H   0  0  0  0  0  0  0  0  0  0  0  0
    4.0606    9.4288  -15.1165 H   0  0  0  0  0  0  0  0  0  0  0  0
    5.6017    9.0401  -15.9535 H   0  0  0  0  0  0  0  0  0  0  0  0
    7.1729    7.2064  -14.8350 H   0  0  0  0  0  0  0  0  0  0  0  0
    6.5590    6.3943  -13.3551 H   0  0  0  0  0  0  0  0  0  0  0  0
    3.2327    7.1309  -15.5589 H   0  0  0  0  0  0  0  0  0  0  0  0
    3.6673    7.9687  -17.0872 H   0  0  0  0  0  0  0  0  0  0  0  0
    6.3152    4.9856  -15.4308 H   0  0  0  0  0  0  0  0  0  0  0  0
    4.7477    5.3345  -14.6259 H   0  0  0  0  0  0  0  0  0  0  0  0
    4.1737   11.2783  -21.3524 H   0  0  0  0  0  0  0  0  0  0  0  0
    5.9016   11.0044  -21.7600 H   0  0  0  0  0  0  0  0  0  0  0  0
    4.8587    9.7843  -19.6929 H   0  0  0  0  0  0  0  0  0  0  0  0
    4.1122    8.7028  -20.9175 H   0  0  0  0  0  0  0  0  0  0  0  0
    7.4822    7.3403  -21.9546 H   0  0  0  0  0  0  0  0  0  0  0  0
    7.5847    9.0967  -22.3169 H   0  0  0  0  0  0  0  0  0  0  0  0
    3.6383    9.3875  -23.0172 H   0  0  0  0  0  0  0  0  0  0  0  0
    4.2170   10.9409  -23.7091 H   0  0  0  0  0  0  0  0  0  0  0  0
    6.3799    7.4673  -24.0068 H   0  0  0  0  0  0  0  0  0  0  0  0
    5.0083    7.5917  -22.8535 H   0  0  0  0  0  0  0  0  0  0  0  0
    7.9507   -0.2684  -17.0432 H   0  0  0  0  0  0  0  0  0  0  0  0
    6.4294    0.0657  -16.1486 H   0  0  0  0  0  0  0  0  0  0  0  0
    6.3983   -0.9634  -17.6205 H   0  0  0  0  0  0  0  0  0  0  0  0
    4.0989    2.4184  -21.4302 H   0  0  0  0  0  0  0  0  0  0  0  0
    3.2209    1.4260  -20.2173 H   0  0  0  0  0  0  0  0  0  0  0  0
    5.2006    3.5125  -16.9359 H   0  0  0  0  0  0  0  0  0  0  0  0
    5.9273    4.5834  -18.1816 H   0  0  0  0  0  0  0  0  0  0  0  0
    5.9110    2.8616  -19.8648 H   0  0  0  0  0  0  0  0  0  0  0  0
    3.2532    3.1011  -18.3608 H   0  0  0  0  0  0  0  0  0  0  0  0
    4.5879    0.9420  -17.9649 H   0  0  0  0  0  0  0  0  0  0  0  0
    3.5391    5.0091  -16.5701 H   0  0  0  0  0  0  0  0  0  0  0  0
    3.7508    5.8091  -17.9779 H   0  0  0  0  0  0  0  0  0  0  0  0
    3.2722    4.0792  -20.4885 H   0  0  0  0  0  0  0  0  0  0  0  0
  1  2  2  0  0  0  0
  1  3  1  0  0  0  0
  2  8  1  0  0  0  0
  3 10  2  0  0  0  0
  4  8  2  0  0  0  0
  4 10  1  0  0  0  0
  5  9  1  0  0  0  0
  5 11  2  0  0  0  0
  6  9  2  0  0  0  0
  6 12  1  0  0  0  0
  7 11  1  0  0  0  0
  7 12  2  0  0  0  0
  8 24  1  0  0  0  0
  9 26  1  0  0  0  0
 10 30  1  0  0  0  0
 11 36  1  0  0  0  0
 12 37  1  0  0  0  0
 13 25  1  0  0  0  0
 13 31  1  0  0  0  0
 13 33  2  0  0  0  0
 14 15  1  0  0  0  0
 14 16  1  0  0  0  0
 15 17  1  0  0  0  0
 16 18  1  0  0  0  0
 17 24  1  0  0  0  0
 18 24  1  0  0  0  0
 19 20  1  0  0  0  0
 19 22  1  0  0  0  0
 20 30  1  0  0  0  0
 21 23  1  0  0  0  0
 21 30  1  0  0  0  0
 22 34  1  0  0  0  0
 23 34  1  0  0  0  0
 24 32  1  0  0  0  0
 26 28  1  0  0  0  0
 27 29  1  0  0  0  0
 27 32  1  0  0  0  0
 28 29  1  0  0  0  0
 28 31  1  0  0  0  0
 29 35  1  0  0  0  0
  1 38  1  0  0  0  0
  2 39  1  0  0  0  0
  3 40  1  0  0  0  0
  4 41  1  0  0  0  0
  5 42  1  0  0  0  0
  6 43  1  0  0  0  0
  7 44  1  0  0  0  0
 14 45  1  0  0  0  0
 14 46  1  0  0  0  0
 15 47  1  0  0  0  0
 15 48  1  0  0  0  0
 16 49  1  0  0  0  0
 16 50  1  0  0  0  0
 17 51  1  0  0  0  0
 17 52  1  0  0  0  0
 18 53  1  0  0  0  0
 18 54  1  0  0  0  0
 19 55  1  0  0  0  0
 19 56  1  0  0  0  0
 20 57  1  0  0  0  0
 20 58  1  0  0  0  0
 21 59  1  0  0  0  0
 21 60  1  0  0  0  0
 22 61  1  0  0  0  0
 22 62  1  0  0  0  0
 23 63  1  0  0  0  0
 23 64  1  0  0  0  0
 25 65  1  0  0  0  0
 25 66  1  0  0  0  0
 25 67  1  0  0  0  0
 26 68  1  0  0  0  0
 26 69  1  0  0  0  0
 27 70  1  0  0  0  0
 27 71  1  0  0  0  0
 28 72  1  0  0  0  0
 29 73  1  0  0  0  0
 31 74  1  0  0  0  0
 32 75  1  0  0  0  0
 32 76  1  0  0  0  0
 35 77  1  0  0  0  0
M  CHG  1  32   1
M  END
> <OMEGA_C>
eBIHQeyp20BylZLBE/3vQIpNz0A81orBPYwAQcAQ80Aml5vB64O3QFua8EAIQpXBA9PGQPzcIz8f
j63BLgSQQPZMSb/LjKXB4ynQQIMS5L/1Tq3BKUvEQHrq2kAC9IvBfRafQEfl/j5QUajByW7VQL5N
/UDzBJ3BK0/fQOq1/76GDbDBdoeoQNZS9r+1DajBVFHUQDzUkj+ACpDBXcmqQHukAEFJyGDBA9WY
QB8MCkHVrXXBCbfIQFoS20AwD2XBMgWCQGMF8UCNRIHBaq+yQCOxuEB6D3PBNQWdQJWbKEEvpK3B
JKSeQI0AFkFcrKXBcurcQP1LBEHrkbDBTgaQQBAHIUH63bjBH1W9QLZoAUE0zrnBISShQCbby0AO
JoTBg9XbQNKnur2PJ4nBhtiGQKXG3D9lrKTBuHafQKsph0Bl+I3BibefQNU2G0BvlpvButqEQBCF
YkDjjpbBo0DHQMAzCUHnNabB7cGqQC3Htz9vQ5PB8POGQPqSq0AXuInBUBvzQJJf4T/OopPBbRyy
QPniFUH/Pr7BkLRyQHIBkEA0g57Ba9MCQWYCub4h8LTBT0qaQG7GScAYRqXB8rMXQYEj00BnmpHB
mR/6QEvXvECL/IPBYjcMQQVB/UCSbqHBMAiWQLen90B3eJbBRnHSQIq6zz/wp6/BHFZjQNZTZb+g
gqHBF/LiQML5KcDkO6/BDdG8QLgoDUGxTljBRPmPQId+9kCTvFbBuvCBQH/cFkEw3XHBcEGzQFqk
EEGOQX/BIIjlQHya5kBZXG3BL+PRQPCdzEBZrlXBl+ROQPwv5EAR8XjB/rRqQEf//kCcsojBNhbK
QBKKn0Cb5HbBEO2XQOuzqkDPA2rBKI+FQNNzNEG50arB1Nm8QBESMEGDFK7Bz3qbQHCMHEECi53B
QJeDQMA+C0EdV6fB+m3vQKHj6kAbo6/BxrXyQAaMEUH7iLLBuNpoQFMzFkEzI7jB2fGGQAQOL0FL
rL3BLSjMQE707kDUDcDB8kOgQOLu8kAO1LbBSWz+QOFrib59WIjBjL3NQMaahj1dMIHB3L7MQG6j
dr/Z9ozB8imDQNfGGkABcavB+yJOQIWHtj8XvaHBk2umQADMYEDKfIfBQqy9QPmqkkD/c5HBEye9
QD8lN0Ay657BfjRQQFt4RkD+4pLBINCSQNclcT8buI/BP4BiQG5KoECgj4TBjwxwQMjjuUDN0o/B
pmtRQAiJgkBj6KPBfpIGQRwe30DSFJPB+8HvQI+E0UDhRovBUcT+QB3b9UBADpzBaqK1QGA38kB2
WZXBrTjIQFkgFT/WAa3BODqPQJZKTr8DiqXBE8DPQBAz7L9ItqzBAZ/DQIbk20CqMYzBqKKfQAp1
7z6FJKjBqc3SQInb/kAVO53BQj3gQE3QEr9SSK/BTjCnQBL/+r/t3qfB6XjTQLwOiT9ORZDBJjes
QKmC/UDY9l/Bk+yZQM0BCUG9YXTBEWfKQHcE2ECdMWXBubqCQB0F8EDh44DBCXm0QMq4tkBf1nPB
A0u0QFB3A0HvELrBEQzTQK2D/0CBubDBuXa0QJtzH0EAt6XB8v60QHMlG0H0er3BljeNQDDFI0FK
yKzBsqChQGRry0CKP4TB0Y7ZQKSHk73hU4jBc6GHQHQS2z/OxKTBjwqfQDmThkBH9I3BjeefQMht
GkCVmJvB3N+EQOMHYkBYsZbBQFLDQITTCEGCe6bBmhyqQKzltj/MK5PBlQqHQCCaq0A+4InB+q/y
QLC72T/kbJPBusaXQP8bKUEZwbfBc1l0QPb7j0C2qJ7BSqEDQWWJ7L6G3bPBbk+XQLSOS8Dca6XB
TmMXQQAO2EAuKpLBvc/6QLoEv0C3hYTBPKUKQe44AEHVDKLBphaUQDGh+UDSSZbBL9jUQAxPxz+k
+67BqZBgQJfgZL/cwaHBETbiQODYLsAWdK7B8Ry+QILzCkHB91bB2peRQPiU8UCEHVbBBzWDQKyz
FUHD9G/B2zO0QHnsD0Gk1H3BBvnmQHaK5EAJWW3BxPbTQC5QyEB8L1bBl9ZQQCBq4kBkRXjBM1Br
QF0x/0B8IIjBPTPMQONwnkDJfHjBxlmaQHRZp0BW42rBbQ2+QG3c8kAI38DBzqqTQMMy/kBYlrfB
Y4rXQNvX3ECAs6/BPO7xQI9BB0GNqrLBHKPOQHURKkH7QKjBLQ+sQE7pIkGmWJ3BXqnVQD49IUG8
RLzB2NusQBfpG0GNCMbBXCByQD1XFUH00KzBoWF2QBIwMUHyTKnBA8D7QIx4NL4NaYbB443HQMTa
Ez5494DBAr/NQJMTgb/H4IvBxPuEQLFiGUAUn6vBMNdOQHRRtz/1AqLB99ekQPSOX0BbaIfB19W9
QExXkUCUQpHB5Ke9QPL+NUD3y57Bk4RPQBdORkAuKpPBhsaRQEtYfj8kUY/BjHxhQCT0oED3yoTB
ObZxQGAUukAIEZDBP6ZTQK68gkDaJKTB

> <OMEGA_E>
qJOPPrgKhT4=

> <OMEGA_NBR>
     22126

$$$$
50214106
  -OEChem-04172616093D

 70 73  0     1  0  0  0  0  0999 V2000
    8.3534    7.0171  -18.5503 C   0  0  0  0  0  0  0  0  0  0  0  0
    7.4706    6.6148  -17.5325 C   0  0  0  0  0  0  0  0  0  0  0  0
    7.8676    7.7026  -19.6746 C   0  0  0  0  0  0  0  0  0  0  0  0
    5.6156    7.6219  -18.7466 C   0  0  0  0  0  0  0  0  0  0  0  0
    6.2627    0.6839  -21.6602 C   0  0  0  0  0  0  0  0  0  0  0  0
    4.5661   -0.8033  -20.7225 C   0  0  0  0  0  0  0  0  0  0  0  0
    6.6108   -1.7303  -21.6778 C   0  0  0  0  0  0  0  0  0  0  0  0
    6.0887    6.9365  -17.6034 C   0  0  0  0  0  0  0  0  0  0  0  0
    5.0126    0.4988  -21.0322 C   0  0  0  0  0  0  0  0  0  0  0  0
    6.4900    7.9849  -19.7857 C   0  0  0  0  0  0  0  0  0  0  0  0
    7.0621   -0.4294  -21.9784 C   0  0  0  0  0  0  0  0  0  0  0  0
    5.3624   -1.9164  -21.0506 C   0  0  0  0  0  0  0  0  0  0  0  0
    6.3612    8.2988  -22.2469 C   0  0  0  0  0  0  0  0  0  0  0  0
    6.5904    1.1113  -17.9700 C   0  0  0  0  0  0  0  0  0  0  0  0
    5.4141    7.9606  -14.0312 C   0  0  0  0  0  0  0  0  0  0  0  0
    4.7967    8.5953  -15.2891 C   0  0  0  0  0  0  0  0  0  0  0  0
    6.3809    6.8199  -14.3934 C   0  0  0  0  0  0  0  0  0  0  0  0
    4.0816    7.5249  -16.1247 C   0  0  0  0  0  0  0  0  0  0  0  0
    5.6947    5.7682  -15.2933 C   0  0  0  0  0  0  0  0  0  0  0  0
    5.2654    9.8442  -20.9279 C   0  0  0  0  0  0  0  0  0  0  0  0
    4.8151    9.9736  -22.3607 C   0  0  0  0  0  0  0  0  0  0  0  0
    5.0618    6.4054  -16.5720 C   0  0  0  0  0  0  0  0  0  0  0  0
    6.7898   -0.1052  -17.0709 C   0  0  0  0  0  0  0  0  0  0  0  0
    4.2178    1.7002  -20.5699 C   0  0  0  0  0  0  0  0  0  0  0  0
    4.9823    4.2384  -17.7620 C   0  0  0  0  0  0  0  0  0  0  0  0
    4.9767    2.4090  -19.4280 C   0  0  1  0  0  0  0  0  0  0  0  0
    4.1360    3.5279  -18.8089 C   0  0  2  0  0  0  0  0  0  0  0  0
    5.9634    8.5738  -20.9343 N   0  0  0  0  0  0  0  0  0  0  0  0
    5.3002    1.4240  -18.3787 N   0  0  0  0  0  0  0  0  0  0  0  0
    4.2295    5.3924  -17.2475 N   0  3  0  0  0  0  0  0  0  0  0  0
    7.0920    7.3884  -22.6204 O   0  0  0  0  0  0  0  0  0  0  0  0
    7.5682    1.6942  -18.4262 O   0  0  0  0  0  0  0  0  0  0  0  0
    5.7505    9.1765  -23.1056 O   0  0  0  0  0  0  0  0  0  0  0  0
    3.7530    4.4718  -19.8093 O   0  0  0  0  0  0  0  0  0  0  0  0
    8.2721   -0.2476  -22.5531 F   0  0  0  0  0  0  0  0  0  0  0  0
    4.9342   -3.1630  -20.7501 F   0  0  0  0  0  0  0  0  0  0  0  0
    9.4076    6.7980  -18.4667 H   0  0  0  0  0  0  0  0  0  0  0  0
    7.8468    6.0559  -16.6884 H   0  0  0  0  0  0  0  0  0  0  0  0
    8.5478    8.0135  -20.4538 H   0  0  0  0  0  0  0  0  0  0  0  0
    4.5672    7.8700  -18.8223 H   0  0  0  0  0  0  0  0  0  0  0  0
    6.6059    1.6802  -21.8967 H   0  0  0  0  0  0  0  0  0  0  0  0
    3.6136   -0.9457  -20.2338 H   0  0  0  0  0  0  0  0  0  0  0  0
    7.2217   -2.5849  -21.9283 H   0  0  0  0  0  0  0  0  0  0  0  0
    5.9649    8.7330  -13.4744 H   0  0  0  0  0  0  0  0  0  0  0  0
    4.6074    7.5590  -13.4004 H   0  0  0  0  0  0  0  0  0  0  0  0
    4.0720    9.3665  -14.9889 H   0  0  0  0  0  0  0  0  0  0  0  0
    5.5931    9.0555  -15.8924 H   0  0  0  0  0  0  0  0  0  0  0  0
    7.2461    7.2393  -14.9279 H   0  0  0  0  0  0  0  0  0  0  0  0
    6.7225    6.3322  -13.4685 H   0  0  0  0  0  0  0  0  0  0  0  0
    3.2785    7.0771  -15.5208 H   0  0  0  0  0  0  0  0  0  0  0  0
    3.6481    7.9988  -17.0177 H   0  0  0  0  0  0  0  0  0  0  0  0
    6.4435    5.0241  -15.6023 H   0  0  0  0  0  0  0  0  0  0  0  0
    4.9012    5.2717  -14.7155 H   0  0  0  0  0  0  0  0  0  0  0  0
    5.9391   10.6670  -20.6466 H   0  0  0  0  0  0  0  0  0  0  0  0
    4.4063    9.8227  -20.2413 H   0  0  0  0  0  0  0  0  0  0  0  0
    3.7921    9.5883  -22.4830 H   0  0  0  0  0  0  0  0  0  0  0  0
    4.8530   11.0235  -22.6867 H   0  0  0  0  0  0  0  0  0  0  0  0
    7.8656   -0.3007  -16.9510 H   0  0  0  0  0  0  0  0  0  0  0  0
    6.3407    0.0895  -16.0858 H   0  0  0  0  0  0  0  0  0  0  0  0
    6.3066   -0.9816  -17.5274 H   0  0  0  0  0  0  0  0  0  0  0  0
    4.0846    2.3975  -21.4102 H   0  0  0  0  0  0  0  0  0  0  0  0
    3.2330    1.3710  -20.2070 H   0  0  0  0  0  0  0  0  0  0  0  0
    5.2078    3.5465  -16.9371 H   0  0  0  0  0  0  0  0  0  0  0  0
    5.9219    4.5835  -18.2182 H   0  0  0  0  0  0  0  0  0  0  0  0
    5.9047    2.8399  -19.8321 H   0  0  0  0  0  0  0  0  0  0  0  0
    3.2493    3.0910  -18.3262 H   0  0  0  0  0  0  0  0  0  0  0  0
    4.5409    0.9503  -17.9324 H   0  0  0  0  0  0  0  0  0  0  0  0
    3.5508    5.0578  -16.5938 H   0  0  0  0  0  0  0  0  0  0  0  0
    3.7640    5.8310  -18.0162 H   0  0  0  0  0  0  0  0  0  0  0  0
    3.2238    4.0382  -20.4684 H   0  0  0  0  0  0  0  0  0  0  0  0
  1  2  2  0  0  0  0
  1  3  1  0  0  0  0
  2  8  1  0  0  0  0
  3 10  2  0  0  0  0
  4  8  2  0  0  0  0
  4 10  1  0  0  0  0
  5  9  1  0  0  0  0
  5 11  2  0  0  0  0
  6  9  2  0  0  0  0
  6 12  1  0  0  0  0
  7 11  1  0  0  0  0
  7 12  2  0  0  0  0
  8 22  1  0  0  0  0
  9 24  1  0  0  0  0
 10 28  1  0  0  0  0
 11 35  1  0  0  0  0
 12 36  1  0  0  0  0
 13 28  1  0  0  0  0
 13 31  2  0  0  0  0
 13 33  1  0  0  0  0
 14 23  1  0  0  0  0
 14 29  1  0  0  0  0
 14 32  2  0  0  0  0
 15 16  1  0  0  0  0
 15 17  1  0  0  0  0
 16 18  1  0  0  0  0
 17 19  1  0  0  0  0
 18 22  1  0  0  0  0
 19 22  1  0  0  0  0
 20 21  1  0  0  0  0
 20 28  1  0  0  0  0
 21 33  1  0  0  0  0
 22 30  1  0  0  0  0
 24 26  1  0  0  0  0
 25 27  1  0  0  0  0
 25 30  1  0  0  0  0
 26 27  1  0  0  0  0
 26 29  1  0  0  0  0
 27 34  1  0  0  0  0
  1 37  1  0  0  0  0
  2 38  1  0  0  0  0
  3 39  1  0  0  0  0
  4 40  1  0  0  0  0
  5 41  1  0  0  0  0
  6 42  1  0  0  0  0
  7 43  1  0  0  0  0
 15 44  1  0  0  0  0
 15 45  1  0  0  0  0
 16 46  1  0  0  0  0
 16 47  1  0  0  0  0
 17 48  1  0  0  0  0
 17 49  1  0  0  0  0
 18 50  1  0  0  0  0
 18 51  1  0  0  0  0
 19 52  1  0  0  0  0
 19 53  1  0  0  0  0
 20 54  1  0  0  0  0
 20 55  1  0  0  0  0
 21 56  1  0  0  0  0
 21 57  1  0  0  0  0
 23 58  1  0  0  0  0
 23 59  1  0  0  0  0
 23 60  1  0  0  0  0
 24 61  1  0  0  0  0
 24 62  1  0  0  0  0
 25 63  1  0  0  0  0
 25 64  1  0  0  0  0
 26 65  1  0  0  0  0
 27 66  1  0  0  0  0
 29 67  1  0  0  0  0
 30 68  1  0  0  0  0
 30 69  1  0  0  0  0
 34 70  1  0  0  0  0
M  CHG  1  30   1
M  END
> <OMEGA_C>
fKcFQbmL4ED8ZpTBZg/vQLes00B2QozBqMP7QHJ79kCnZZ3BpbKzQI7m80Ag+ZXBV2jIQIIRLz8k
SK3BuB2SQOShTb+xx6XBW4vTQB153b85bK3Br9bCQJ/33UDX04zBAmegQAZn/z7/QajB5q3PQB6E
/0AxSZ7B/PzhQETd276v06/BipirQL1M9b+RZ6jB/Y7LQM3HBEGj+bHBUOTSQJE/jj+Hwo/BckCt
QIK9/kCjf2DBp36ZQG6GCUEroHTBmjDMQFQ82kBhS2bBJpyCQFnM8EBW/4DBvzq2QBSVuEBPsXTB
3X2oQLiBHUFhbKfBpxWaQOCTH0Gv4rLB+PmhQAP5zEB+k4TBRkbZQIRn170tkYjBIPiGQFWf2T8s
j6TBYm+fQOqgh0CQGI7BbkGfQC4tGkCXbJvB6lmEQFrIYUCUeJbBktS+QDcuCUF/eafB35qpQJhE
tj+EB5PBTViHQKiOrEDe+onBovHiQNZt7ECN9rTB3i7yQPPc2D/VaJPBuwO4QODSEkEu2LjBszFw
QJ4Yj0BxeZ7BqFoEQeyMfb7FbLTBteSdQOxuSsBGAKbBs4UWQWaJ2UDmu5PBYxn7QLrJwUDXgYXB
vcMIQXY3AEFeoaPBRSaSQA3X+0AnlJbB4GPTQOwQ1z9mLK/BfEVnQI0Zcr/V3qHBZxjnQLluJcAw
ba/BX+C+QIu6C0H1llfBcm+TQJrj8UAQaFbB/E2CQDfdFUG80m/Br/qyQFzjEEFZR37Byd/nQB2o
50B+2G7BAB/XQBShykD0flfBktNRQNl34kBeVXjBunlpQPX1/0BTJIjBbDHOQDLFoED7onnBT9ac
QPmxqEChcmvBxwy+QPWrKkFWLKXBIwCNQJ4pHUEe7qHB6bFyQMlpGUE13bPBtEubQDhgMEFqfrXB
ZLP7QPv5mb6vm4fB5ubKQMpQtz2/r4DBz8/JQCpIe780OIzB9bSCQP5vGUALSKvBr+hOQLJ8rz/X
p6HBQKamQPf5YkApf4fBDYC9QCqskkD3vpHBPPO8QGHANUAYqJ7BA/RPQH3TRUAjnJLBFE+RQJVI
cz91dY/B6D9jQBzZoUAiwITBBuZwQMaXukA3IZDBj1JOQJY4gUA/v6PBAfIEQTx9/kAij5LBOvnv
QHf95kBcjIvB45j3QAEAC0Gw8prBB7OwQPqE/0BHIpXBuvKsQImnSL56JK3BMLOLQITFk79uMp3B
cei3QOVeI8DexqjBptjCQGTh50AbkIzBObaSQKGQR724BKTBmZzKQGZLC0GTfJzBi0W/QLt2ub/V
jq/BQjyeQOHdGcB6k5/BkkbLQOOGI0GR5azB1MfSQNIpkz9+qo3Bi06uQCJa7kCnYFzBA5aYQKmm
BEFl7G3BRR/QQB5F0ED8AGbBYN6DQJQi7ED09H7BohG9QK3zs0BxFnjBYgaJQJipGEEak6bBJ+mE
QLG4IUFYtLHBJhilQKH7zUAsAIXBtDvZQPZltD41WIPB3xd+QLuopj+xYKHBrJmlQJpCjUAn9JDB
TOWdQFYYDEB9tJrBWBuIQEdGYkD135fBO0q3QBVVFkF7LqXBhz2pQDbgvT9FspDBefKLQBiCr0DR
wIvB00DxQLfXJ0H6Aa7Bk47xQChtsD+eepPB8w2tQIUILEHkoLPBaVp7QNYQiEDqaqHBnN7XQLLe
y7+0ZLjBl0mXQA+CXcCPCpnB/BcWQXF+/kCjfpHBEoz+QGYF1ED5T4XBFP8FQTvwE0GZTaDB+VqO
QG78/0BkF5bBjfyyQAPpJj+vRrLBASpwQBBIhb9OJJbBpfDFQHXEYMD2oarBtN+9QPLyAUH81lDB
W+GVQE8i20CMHVTBcWx/QBi6DkH2mmbB9LKwQO3jDkEFpHXBGl3qQH+c40C2pGzBrqLcQN5mu0A2
SVnBTHpWQAZb2EAaMXfBAsJpQJovAEFvoIXB2VvXQHIFokBMnH/BRD6mQKJjnUAq3HDBqD53QIi3
I0FOmqDBYaxxQDcVCUE/9aXBu9R+QB/hFEEkkLfBEvlUQDtSLUEjG7LBXSn7QPkfnT2jjILB5JbP
QB1udz9A6HjByZPFQD5BD7+hm4PBkcRuQBVO6T+X46jBugBDQLQYkj8fxZzB6+i0QJzWckAvxorB
M1u+QOLam0APCZbB3ua6QDHXGEDbbZ/B4aVVQHWSVEA8TZPBbWqRQBo1nT/hwovBV/JrQBqMoUDu
GYfBjq56QNtSwEBIf5HBWuxWQHgZbkClxKXB

> <OMEGA_E>
sNVvPtgrLz8=

> <OMEGA_NBR>
     24676

$$$$
50214061
  -OEChem-04172616093D

 76 79  0     1  0  0  0  0  0999 V2000
    8.4894    6.8078  -18.3614 C   0  0  0  0  0  0  0  0  0  0  0  0
    7.5379    6.4849  -17.3768 C   0  0  0  0  0  0  0  0  0  0  0  0
    8.0918    7.4635  -19.5355 C   0  0  0  0  0  0  0  0  0  0  0  0
    5.7895    7.4956  -18.7330 C   0  0  0  0  0  0  0  0  0  0  0  0
    6.2457    0.6906  -21.6411 C   0  0  0  0  0  0  0  0  0  0  0  0
    4.5608   -0.8088  -20.7015 C   0  0  0  0  0  0  0  0  0  0  0  0
    6.6259   -1.7182  -21.6303 C   0  0  0  0  0  0  0  0  0  0  0  0
    6.1735    6.8469  -17.5408 C   0  0  0  0  0  0  0  0  0  0  0  0
    4.9953    0.4965  -21.0164 C   0  0  0  0  0  0  0  0  0  0  0  0
    6.7379    7.7964  -19.7228 C   0  0  0  0  0  0  0  0  0  0  0  0
    7.0619   -0.4150  -21.9417 C   0  0  0  0  0  0  0  0  0  0  0  0
    5.3740   -1.9148  -21.0139 C   0  0  0  0  0  0  0  0  0  0  0  0
    6.4628    7.9713  -22.1350 C   0  0  0  0  0  0  0  0  0  0  0  0
    6.5745    1.0534  -18.0255 C   0  0  0  0  0  0  0  0  0  0  0  0
    6.0580    8.7947  -23.3633 C   0  0  0  0  0  0  0  0  0  0  0  0
    5.3339    7.9523  -14.0128 C   0  0  0  0  0  0  0  0  0  0  0  0
    4.8271    8.6084  -15.3087 C   0  0  0  0  0  0  0  0  0  0  0  0
    6.2742    6.7725  -14.3124 C   0  0  0  0  0  0  0  0  0  0  0  0
    4.1195    7.5683  -16.1869 C   0  0  0  0  0  0  0  0  0  0  0  0
    5.5983    5.7431  -15.2440 C   0  0  0  0  0  0  0  0  0  0  0  0
    4.4335   10.1016  -21.0521 C   0  0  0  0  0  0  0  0  0  0  0  0
    5.8918    9.8954  -20.6280 C   0  0  0  0  0  0  0  0  0  0  0  0
    4.3211   10.3145  -22.5697 C   0  0  0  0  0  0  0  0  0  0  0  0
    5.0688    6.3943  -16.5593 C   0  0  0  0  0  0  0  0  0  0  0  0
    6.7631   -0.0934  -17.0368 C   0  0  0  0  0  0  0  0  0  0  0  0
    4.1947    1.6941  -20.5544 C   0  0  0  0  0  0  0  0  0  0  0  0
    4.9680    4.2376  -17.7580 C   0  0  0  0  0  0  0  0  0  0  0  0
    4.9618    2.4120  -19.4229 C   0  0  1  0  0  0  0  0  0  0  0  0
    4.1336    3.5504  -18.8260 C   0  0  2  0  0  0  0  0  0  0  0  0
    6.3398    8.5089  -20.8461 N   0  0  0  0  0  0  0  0  0  0  0  0
    5.2819    1.4380  -18.3608 N   0  0  0  0  0  0  0  0  0  0  0  0
    4.2310    5.4119  -17.2678 N   0  3  0  0  0  0  0  0  0  0  0  0
    6.8696    6.8259  -22.3063 O   0  0  0  0  0  0  0  0  0  0  0  0
    7.5532    1.6711  -18.4316 O   0  0  0  0  0  0  0  0  0  0  0  0
    4.6517    9.1214  -23.3153 O   0  0  0  0  0  0  0  0  0  0  0  0
    3.8053    4.5018  -19.8397 O   0  0  0  0  0  0  0  0  0  0  0  0
    8.2737   -0.2234  -22.5091 F   0  0  0  0  0  0  0  0  0  0  0  0
    4.9606   -3.1649  -20.7070 F   0  0  0  0  0  0  0  0  0  0  0  0
    9.5277    6.5502  -18.2128 H   0  0  0  0  0  0  0  0  0  0  0  0
    7.8475    5.9566  -16.4872 H   0  0  0  0  0  0  0  0  0  0  0  0
    8.8213    7.7117  -20.2922 H   0  0  0  0  0  0  0  0  0  0  0  0
    4.7545    7.7637  -18.8858 H   0  0  0  0  0  0  0  0  0  0  0  0
    6.5763    1.6885  -21.8885 H   0  0  0  0  0  0  0  0  0  0  0  0
    3.6052   -0.9591  -20.2212 H   0  0  0  0  0  0  0  0  0  0  0  0
    7.2516   -2.5668  -21.8641 H   0  0  0  0  0  0  0  0  0  0  0  0
    6.6447    9.7250  -23.3843 H   0  0  0  0  0  0  0  0  0  0  0  0
    6.2629    8.2114  -24.2731 H   0  0  0  0  0  0  0  0  0  0  0  0
    5.8784    8.7027  -13.4209 H   0  0  0  0  0  0  0  0  0  0  0  0
    4.4718    7.5856  -13.4363 H   0  0  0  0  0  0  0  0  0  0  0  0
    4.1201    9.4125  -15.0565 H   0  0  0  0  0  0  0  0  0  0  0  0
    5.6803    9.0299  -15.8604 H   0  0  0  0  0  0  0  0  0  0  0  0
    7.1843    7.1535  -14.7987 H   0  0  0  0  0  0  0  0  0  0  0  0
    6.5429    6.2787  -13.3669 H   0  0  0  0  0  0  0  0  0  0  0  0
    3.2539    7.1676  -15.6390 H   0  0  0  0  0  0  0  0  0  0  0  0
    3.7750    8.0559  -17.1108 H   0  0  0  0  0  0  0  0  0  0  0  0
    6.3321    4.9661  -15.5043 H   0  0  0  0  0  0  0  0  0  0  0  0
    4.7526    5.2848  -14.7106 H   0  0  0  0  0  0  0  0  0  0  0  0
    3.8489    9.2135  -20.7701 H   0  0  0  0  0  0  0  0  0  0  0  0
    4.0309   10.9851  -20.5350 H   0  0  0  0  0  0  0  0  0  0  0  0
    6.5311   10.5716  -21.2146 H   0  0  0  0  0  0  0  0  0  0  0  0
    5.9879   10.1356  -19.5588 H   0  0  0  0  0  0  0  0  0  0  0  0
    3.2886   10.6078  -22.8105 H   0  0  0  0  0  0  0  0  0  0  0  0
    5.0095   11.1195  -22.8663 H   0  0  0  0  0  0  0  0  0  0  0  0
    7.8333   -0.2120  -16.8116 H   0  0  0  0  0  0  0  0  0  0  0  0
    6.2158    0.1289  -16.1088 H   0  0  0  0  0  0  0  0  0  0  0  0
    6.3758   -1.0242  -17.4769 H   0  0  0  0  0  0  0  0  0  0  0  0
    4.0489    2.3863  -21.3968 H   0  0  0  0  0  0  0  0  0  0  0  0
    3.2156    1.3600  -20.1806 H   0  0  0  0  0  0  0  0  0  0  0  0
    5.1510    3.5415  -16.9262 H   0  0  0  0  0  0  0  0  0  0  0  0
    5.9293    4.5564  -18.1874 H   0  0  0  0  0  0  0  0  0  0  0  0
    5.8929    2.8273  -19.8360 H   0  0  0  0  0  0  0  0  0  0  0  0
    3.2222    3.1371  -18.3694 H   0  0  0  0  0  0  0  0  0  0  0  0
    4.5233    1.0306  -17.8523 H   0  0  0  0  0  0  0  0  0  0  0  0
    3.5186    5.0965  -16.6410 H   0  0  0  0  0  0  0  0  0  0  0  0
    3.8080    5.8669  -18.0515 H   0  0  0  0  0  0  0  0  0  0  0  0
    3.2831    4.0809  -20.5125 H   0  0  0  0  0  0  0  0  0  0  0  0
  1  2  2  0  0  0  0
  1  3  1  0  0  0  0
  2  8  1  0  0  0  0
  3 10  2  0  0  0  0
  4  8  2  0  0  0  0
  4 10  1  0  0  0  0
  5  9  1  0  0  0  0
  5 11  2  0  0  0  0
  6  9  2  0  0  0  0
  6 12  1  0  0  0  0
  7 11  1  0  0  0  0
  7 12  2  0  0  0  0
  8 24  1  0  0  0  0
  9 26  1  0  0  0  0
 10 30  1  0  0  0  0
 11 37  1  0  0  0  0
 12 38  1  0  0  0  0
 13 15  1  0  0  0  0
 13 30  1  0  0  0  0
 13 33  2  0  0  0  0
 14 25  1  0  0  0  0
 14 31  1  0  0  0  0
 14 34  2  0  0  0  0
 15 35  1  0  0  0  0
 16 17  1  0  0  0  0
 16 18  1  0  0  0  0
 17 19  1  0  0  0  0
 18 20  1  0  0  0  0
 19 24  1  0  0  0  0
 20 24  1  0  0  0  0
 21 22  1  0  0  0  0
 21 23  1  0  0  0  0
 22 30  1  0  0  0  0
 23 35  1  0  0  0  0
 24 32  1  0  0  0  0
 26 28  1  0  0  0  0
 27 29  1  0  0  0  0
 27 32  1  0  0  0  0
 28 29  1  0  0  0  0
 28 31  1  0  0  0  0
 29 36  1  0  0  0  0
  1 39  1  0  0  0  0
  2 40  1  0  0  0  0
  3 41  1  0  0  0  0
  4 42  1  0  0  0  0
  5 43  1  0  0  0  0
  6 44  1  0  0  0  0
  7 45  1  0  0  0  0
 15 46  1  0  0  0  0
 15 47  1  0  0  0  0
 16 48  1  0  0  0  0
 16 49  1  0  0  0  0
 17 50  1  0  0  0  0
 17 51  1  0  0  0  0
 18 52  1  0  0  0  0
 18 53  1  0  0  0  0
 19 54  1  0  0  0  0
 19 55  1  0  0  0  0
 20 56  1  0  0  0  0
 20 57  1  0  0  0  0
 21 58  1  0  0  0  0
 21 59  1  0  0  0  0
 22 60  1  0  0  0  0
 22 61  1  0  0  0  0
 23 62  1  0  0  0  0
 23 63  1  0  0  0  0
 25 64  1  0  0  0  0
 25 65  1  0  0  0  0
 25 66  1  0  0  0  0
 26 67  1  0  0  0  0
 26 68  1  0  0  0  0
 27 69  1  0  0  0  0
 27 70  1  0  0  0  0
 28 71  1  0  0  0  0
 29 72  1  0  0  0  0
 31 73  1  0  0  0  0
 32 74  1  0  0  0  0
 32 75  1  0  0  0  0
 36 76  1  0  0  0  0
M  CHG  1  32   1
M  END
> <OMEGA_C>
gtQHQSjZ2UAb5JLBlzbxQIaEz0C0A4vB1HcBQRDV7kC7SJzBUkO5QFDc70A+3ZXBFd3HQAvKMD/x
IK3B0/GRQGMLT7+nnKXBiQfUQI3s27/cCq3BAI3FQPcZ20CJU4zBGtmfQNoy/j6CIajBtZzXQH98
+UA2yJ3BzPrhQNF91L6eiK/BmverQL0Y9b+AHKjBns/OQEcV/0BsFLHBe2LSQPjVhj8oNJDBX9vB
QDO3DEH857rBKq+qQDN5/kCPNGDBiHeaQNq7CUFi8HTB68XIQI+42ECJ/2TBP9ODQDMv8kDOfoHB
nCWzQNrHt0B653PBhN+NQBigIUG5aqjBTIm8QLpTHkEdBqXBFEaKQDYIJUHEjrTBOzOiQHCezECM
eYTBJWvYQIhiv71ES4jBNzuGQEnX2D9Yb6TBP/qeQDCah0B0EI7B+MaeQJteGkAoYpvBI0aEQE85
Y0Cmm5bBbN/KQGgkCEG/xKbBaAWpQPUQuD8C45LBfGSHQGkurUCLJIrBz9PbQKlt2kBBc7LBirPx
QK/m1T/2c5PBbdqUQCbxEUHPhbrB+IlzQFwOkECzt57BE2EEQfvMZL6QErTBcb2eQOuMSsD+p6XB
Q3EYQV6b0UDhs5HB2x77QE6cvkDL5YPBGyQNQe3F9kBpVqLBySSYQHZw+EA1FpfBFHHSQO0h2D+p
G6/BVbtmQCWIdb8SxaHBCA3oQBlHJMC66a7BlaHUQHaZG0EPE7vBgGnIQM9hA0FDL8LBtBu8QD0+
C0Hgu1bB/RiPQAi98kBK+1bB/9eDQIeZFkGV53DB2sS1QHF6EEEtxH3ByeXlQG7p5ECEx2zBel/R
QIDryEDM3lXBdEBQQB5d5UBVOXrBoplxQN/kAEHh4ojB3KDKQGXqnkC6EXjB7BSYQPYcqUCKXmvB
xFN2QLBqE0EcKabBZP2AQNHCL0G6R6TBxf7QQBYlKUGAt6nB0Zy/QHcrIkGAeJzBMHhSQIG5KUH1
e7bBNU6gQHvpMUEn7rbBCKr6QMIRWb5AfobBlOfGQPjxAz7j3oDBoQbMQKIZg7+Y0IvB+5CBQH+4
GECPLKvBKsxNQOgVrj/bcaHBmNSkQFqnYkDRaIfBnry9QCnOkUDcf5HBuZK8QOHxNEAHsJ7B0jdO
QH/FSEB59JLB/76QQCXsgz+V0Y7BVjBhQGMWo0DGIIXBG7ZzQG29u0BmaZDB6R1SQFqWgkCMGaTB
obQIQXwN20BuvZHBKT7xQN+I0EBbX4rBHpEDQZez8ECRNpvBZWW8QHYs80AhuJXBJ7/AQCMvFT+Y
6KzBx/yUQODBhL9xM6PBTVTTQJVZ5L+IVa3BVTfGQLcA3UAxLozBiFmdQC6/lj5VTKbBIG/cQA7c
/EDsWp3BWMzbQFc56L6AXrDBxuWvQO3XBMCSw6bBt83qQLA1F0EnZKzB1NLZQFM0nD/OUZDBYBLb
QGjpIUHBwLbB98ymQKC6/kBpdmDBC9yXQHMPCkGdWHXBbhrFQFwJ2UCg8mTBS02CQOQn80DdAoLB
HEqwQPyHuEBxZnTBMW+IQD6nFUHe16rBgRSnQLh9AkHM/6vBnceNQKaDJUHTMbTBYzShQEPmzUAZ
2oTBXjbmQMyJwz35rYjB9DaCQMyZtj+WBqLBd6qfQL6giUBe0Y7BbnGdQLYwFEBjlJrBa7aCQNDN
XEB01ZXBRTrRQPmxB0FhR6fB+ZuuQNHgvT+T15HBIlSHQM+xrkAe5YrBl8UEQWliH0Hf2qfBrGX1
QK2J3z9d5JXBiEu3QATNL0FCXLTBzmZjQEteiEAGNp7BrgH+QIY+Lb6mk7bBoRKoQOp8VsD4xKPB
6B0ZQYlu0kDuGpDBf1P5QJW/vkDZPoPBNAEQQQEl+EBE6qDBCMqbQP7u/EDBN5fBihLHQMXuzD9q
UK/BhP5zQLw8ob9QG57B1/7nQCIpJcAIC7DB2TH1QBJiK0HgRLrBkujQQPeHFUHcd7zBsqu3QNJG
C0HboFbBEqeKQJPg8kBctlfBl9yAQMLTFkFciHHBUK6zQDP5EEHOnn3BC8PiQNpM5UAiLWzBV6fM
QHvdyEAax1XBCB9MQEv/5UAH1XvBP39wQOSRAUEWcInBI8/HQGp4n0DEM3jBTGyUQLQJqkC1dGzB
ootOQCPBD0EpvqrBAFaPQO/4HUFhSKPBWXKZQDQe6UAY16fBRi2rQNFr/UBViLTB43uJQMPBHEGC
wLvBpwZqQHrxMUHvf7PB7WIEQaM4yL2OT4nBFFzeQEJgxz4QboDBuG3UQAwIUb94yYrBQl1sQNXp
AUCyvajBohNOQA24gT+Og53BW/2qQLEMbUB5/YfBK0a7QJe8lECJhJPBYfi3QNXEL0B9OZ/BMqpR
QMqWQUAp75DBeM2ZQJySij/ArYzBifxfQMMHpEAsHYbBzPB0QAyrvUAtMZHBUyI/QHwUb0C8oKLB

> <OMEGA_E>
1K+sPvgg4j4=

> <OMEGA_NBR>
     27394

$$$$
50214077
  -OEChem-04172616093D

 73 76  0     1  0  0  0  0  0999 V2000
    8.3708    6.9922  -18.5009 C   0  0  0  0  0  0  0  0  0  0  0  0
    7.4798    6.5839  -17.4919 C   0  0  0  0  0  0  0  0  0  0  0  0
    7.8908    7.6686  -19.6340 C   0  0  0  0  0  0  0  0  0  0  0  0
    5.6257    7.5335  -18.7488 C   0  0  0  0  0  0  0  0  0  0  0  0
    6.2498    0.6174  -21.6185 C   0  0  0  0  0  0  0  0  0  0  0  0
    4.4866   -0.8115  -20.7127 C   0  0  0  0  0  0  0  0  0  0  0  0
    6.5242   -1.8060  -21.6128 C   0  0  0  0  0  0  0  0  0  0  0  0
    6.0943    6.8814  -17.5884 C   0  0  0  0  0  0  0  0  0  0  0  0
    4.9821    0.4741  -21.0151 C   0  0  0  0  0  0  0  0  0  0  0  0
    6.5084    7.9215  -19.7699 C   0  0  0  0  0  0  0  0  0  0  0  0
    7.0218   -0.5218  -21.9114 C   0  0  0  0  0  0  0  0  0  0  0  0
    5.2547   -1.9502  -21.0179 C   0  0  0  0  0  0  0  0  0  0  0  0
    6.3549    8.1760  -22.1986 C   0  0  0  0  0  0  0  0  0  0  0  0
    6.5947    1.1096  -17.9513 C   0  0  0  0  0  0  0  0  0  0  0  0
    5.7861    8.9294  -23.4108 C   0  0  0  0  0  0  0  0  0  0  0  0
    5.3679    7.9234  -14.0159 C   0  0  0  0  0  0  0  0  0  0  0  0
    4.7811    8.5656  -15.2841 C   0  0  0  0  0  0  0  0  0  0  0  0
    6.3431    6.7864  -14.3652 C   0  0  0  0  0  0  0  0  0  0  0  0
    4.0775    7.5017  -16.1355 C   0  0  0  0  0  0  0  0  0  0  0  0
    5.6727    5.7349  -15.2755 C   0  0  0  0  0  0  0  0  0  0  0  0
    5.2978    9.8622  -20.6720 C   0  0  0  0  0  0  0  0  0  0  0  0
    4.5360   10.3304  -21.9173 C   0  0  0  0  0  0  0  0  0  0  0  0
    5.0567    6.3712  -16.5609 C   0  0  0  0  0  0  0  0  0  0  0  0
    6.8041   -0.1158  -17.0667 C   0  0  0  0  0  0  0  0  0  0  0  0
    4.2186    1.6995  -20.5683 C   0  0  0  0  0  0  0  0  0  0  0  0
    4.9756    4.2024  -17.7341 C   0  0  0  0  0  0  0  0  0  0  0  0
    4.9851    2.3959  -19.4237 C   0  0  1  0  0  0  0  0  0  0  0  0
    4.1510    3.5224  -18.8143 C   0  0  2  0  0  0  0  0  0  0  0  0
    5.9947    8.5717  -20.8962 N   0  0  0  0  0  0  0  0  0  0  0  0
    5.3044    1.4084  -18.3732 N   0  0  0  0  0  0  0  0  0  0  0  0
    4.2250    5.3628  -17.2367 N   0  3  0  0  0  0  0  0  0  0  0  0
    6.9395    7.1166  -22.4030 O   0  0  0  0  0  0  0  0  0  0  0  0
    7.5696    1.7015  -18.4024 O   0  0  0  0  0  0  0  0  0  0  0  0
    5.4227   10.2746  -23.0474 O   0  0  0  0  0  0  0  0  0  0  0  0
    3.8202    4.4820  -19.8192 O   0  0  0  0  0  0  0  0  0  0  0  0
    8.2481   -0.3816  -22.4630 F   0  0  0  0  0  0  0  0  0  0  0  0
    4.7783   -3.1816  -20.7278 F   0  0  0  0  0  0  0  0  0  0  0  0
    9.4263    6.7850  -18.4040 H   0  0  0  0  0  0  0  0  0  0  0  0
    7.8524    6.0396  -16.6367 H   0  0  0  0  0  0  0  0  0  0  0  0
    8.5781    7.9948  -20.4005 H   0  0  0  0  0  0  0  0  0  0  0  0
    4.5703    7.7377  -18.8534 H   0  0  0  0  0  0  0  0  0  0  0  0
    6.6272    1.6012  -21.8554 H   0  0  0  0  0  0  0  0  0  0  0  0
    3.5183   -0.9217  -20.2473 H   0  0  0  0  0  0  0  0  0  0  0  0
    7.1161   -2.6803  -21.8401 H   0  0  0  0  0  0  0  0  0  0  0  0
    6.5463    8.9624  -24.2050 H   0  0  0  0  0  0  0  0  0  0  0  0
    4.8942    8.4009  -23.7787 H   0  0  0  0  0  0  0  0  0  0  0  0
    5.9049    8.6919  -13.4407 H   0  0  0  0  0  0  0  0  0  0  0  0
    4.5467    7.5168  -13.4074 H   0  0  0  0  0  0  0  0  0  0  0  0
    4.0552    9.3407  -14.9971 H   0  0  0  0  0  0  0  0  0  0  0  0
    5.5927    9.0222  -15.8698 H   0  0  0  0  0  0  0  0  0  0  0  0
    7.2146    7.2088  -14.8868 H   0  0  0  0  0  0  0  0  0  0  0  0
    6.6728    6.2985  -13.4361 H   0  0  0  0  0  0  0  0  0  0  0  0
    3.2564    7.0616  -15.5505 H   0  0  0  0  0  0  0  0  0  0  0  0
    3.6694    7.9792  -17.0385 H   0  0  0  0  0  0  0  0  0  0  0  0
    6.4278    4.9931  -15.5749 H   0  0  0  0  0  0  0  0  0  0  0  0
    4.8725    5.2355  -14.7095 H   0  0  0  0  0  0  0  0  0  0  0  0
    6.0428   10.6258  -20.4041 H   0  0  0  0  0  0  0  0  0  0  0  0
    4.5835    9.7405  -19.8443 H   0  0  0  0  0  0  0  0  0  0  0  0
    3.6719    9.6726  -22.0919 H   0  0  0  0  0  0  0  0  0  0  0  0
    4.1870   11.3633  -21.7713 H   0  0  0  0  0  0  0  0  0  0  0  0
    7.8815   -0.3063  -16.9523 H   0  0  0  0  0  0  0  0  0  0  0  0
    6.3569    0.0650  -16.0781 H   0  0  0  0  0  0  0  0  0  0  0  0
    6.3247   -0.9898  -17.5318 H   0  0  0  0  0  0  0  0  0  0  0  0
    4.1131    2.3943  -21.4145 H   0  0  0  0  0  0  0  0  0  0  0  0
    3.2215    1.4005  -20.2128 H   0  0  0  0  0  0  0  0  0  0  0  0
    5.1598    3.4983  -16.9093 H   0  0  0  0  0  0  0  0  0  0  0  0
    5.9364    4.5344  -18.1544 H   0  0  0  0  0  0  0  0  0  0  0  0
    5.9163    2.8195  -19.8280 H   0  0  0  0  0  0  0  0  0  0  0  0
    3.2400    3.0986  -18.3664 H   0  0  0  0  0  0  0  0  0  0  0  0
    4.5450    0.9244  -17.9382 H   0  0  0  0  0  0  0  0  0  0  0  0
    3.5369    5.0373  -16.5882 H   0  0  0  0  0  0  0  0  0  0  0  0
    3.7709    5.7995  -18.0133 H   0  0  0  0  0  0  0  0  0  0  0  0
    3.3042    4.0645  -20.4988 H   0  0  0  0  0  0  0  0  0  0  0  0
  1  2  2  0  0  0  0
  1  3  1  0  0  0  0
  2  8  1  0  0  0  0
  3 10  2  0  0  0  0
  4  8  2  0  0  0  0
  4 10  1  0  0  0  0
  5  9  1  0  0  0  0
  5 11  2  0  0  0  0
  6  9  2  0  0  0  0
  6 12  1  0  0  0  0
  7 11  1  0  0  0  0
  7 12  2  0  0  0  0
  8 23  1  0  0  0  0
  9 25  1  0  0  0  0
 10 29  1  0  0  0  0
 11 36  1  0  0  0  0
 12 37  1  0  0  0  0
 13 15  1  0  0  0  0
 13 29  1  0  0  0  0
 13 32  2  0  0  0  0
 14 24  1  0  0  0  0
 14 30  1  0  0  0  0
 14 33  2  0  0  0  0
 15 34  1  0  0  0  0
 16 17  1  0  0  0  0
 16 18  1  0  0  0  0
 17 19  1  0  0  0  0
 18 20  1  0  0  0  0
 19 23  1  0  0  0  0
 20 23  1  0  0  0  0
 21 22  1  0  0  0  0
 21 29  1  0  0  0  0
 22 34  1  0  0  0  0
 23 31  1  0  0  0  0
 25 27  1  0  0  0  0
 26 28  1  0  0  0  0
 26 31  1  0  0  0  0
 27 28  1  0  0  0  0
 27 30  1  0  0  0  0
 28 35  1  0  0  0  0
  1 38  1  0  0  0  0
  2 39  1  0  0  0  0
  3 40  1  0  0  0  0
  4 41  1  0  0  0  0
  5 42  1  0  0  0  0
  6 43  1  0  0  0  0
  7 44  1  0  0  0  0
 15 45  1  0  0  0  0
 15 46  1  0  0  0  0
 16 47  1  0  0  0  0
 16 48  1  0  0  0  0
 17 49  1  0  0  0  0
 17 50  1  0  0  0  0
 18 51  1  0  0  0  0
 18 52  1  0  0  0  0
 19 53  1  0  0  0  0
 19 54  1  0  0  0  0
 20 55  1  0  0  0  0
 20 56  1  0  0  0  0
 21 57  1  0  0  0  0
 21 58  1  0  0  0  0
 22 59  1  0  0  0  0
 22 60  1  0  0  0  0
 24 61  1  0  0  0  0
 24 62  1  0  0  0  0
 24 63  1  0  0  0  0
 25 64  1  0  0  0  0
 25 65  1  0  0  0  0
 26 66  1  0  0  0  0
 26 67  1  0  0  0  0
 27 68  1  0  0  0  0
 28 69  1  0  0  0  0
 30 70  1  0  0  0  0
 31 71  1  0  0  0  0
 31 72  1  0  0  0  0
 35 73  1  0  0  0  0
M  CHG  1  31   1
M  END
> <OMEGA_C>
9O4FQdu/30DuAZTB4lrvQPyu0kBs74vBuIH8QOFk9UB/Ep3BoAW0QIYS8UCF/ZXBNP7HQBwOHj+1
8qzBSJKPQDa+T7+is6XBSMbQQMor578S56zBKATDQBg03EAitYzBlG2fQEO88j7YHqjBxkTQQDl9
/UC4KJ7BoLLgQPiTBb+cSq/BfCaoQGeg+b+WJKjBRlvLQOjQAkHIlrHBzgfTQJ0Ijj9UnI/BWie5
QKPeDkE5SbvByMWrQGeM/UBPQWDBLP+YQNAMCUHRi3TBnPrKQNwp2UAD2GXBznqCQIgN8ECPFYHB
Eoe1QPCDt0BGaHTBNIepQLbLHUFKYKXBQCeRQHJJJUG6Vq/BoNChQPvgy0CmfITBgrvZQIA67b2o
iIjB3P6GQLmI2T/Ni6TBBjifQHV6hkBr343BGIafQHFWGUCrY5vBsNSEQKVuYUC2g5bBdtS/QKsl
CUF+K6fBXL2pQHtFtD88/JLB4DKHQBqcq0DY5InBZhDeQIy740BcObPBLjryQGPL2T8kOJPBcIat
QJ1kJEEaYbjBSn50QMJsj0C3jZ7BE/gDQbVjw74ltLPBFuiYQKmeS8B20qXBRNIWQaQe2UBRO5PB
oUb7QLNEwUDiF4XBFkAJQcXV/0BRNKPBOECSQFCb90DH05bBrxHUQGL0zD/Y167BlSthQA30a793
+qHB/bbjQMeKK8BzuK7BmHvRQBdmD0Hno8HBI52cQEpqBkGwOr7B1vS8QDoSC0HxDFfBin6RQPiJ
8ECdhFbBmMSBQG1zFUFQ9G/BXPeyQMlaEEGT6n3BA97mQMWu5kAsMG7BiofVQFaNyUBH+lbBbmlQ
QOj44UDdznjBTNdqQNJV/0DeTojB4bDNQJXHn0CXMnnBw+ubQI+Jp0D0WWvB817BQFIDKkGIO6PB
WaySQA3ZG0EtwZ7BBQBrQOzCGkEsvLDB6vuFQCHQNUGlK67B8TT8QHbYnL5pnofBv2vLQGwLhT0L
oIDBBGTKQO5lfb8RQYzBpp6DQKQ7GUDwUKvBvSxOQMFEsz/Ls6HBWR2lQI3kX0BERofBG/e9QHIZ
kUAxPJHB7VG9QFtzNEDWn57BtFxPQBBQRkBV7pLBx3CRQAuobD9pgY/BT1xiQJIxoUCltITBu1Vx
QHOVuUBOG5DBO3hTQFMQgkCg/aPBFtQEQahh/kBLNZLByrjvQPD/5kD6JovBVjv3QCUVC0HEiprB
3lGwQBA7AEEyiJTB1lCuQLkOEr7nhq3BPKmMQCjAkL98wJ3BxlG5QORgIMDGZqnBQovCQFYW6EAN
HIzBqsuTQCTyUrzRb6TBmi3KQKr3C0Hez5vB+MzAQGvvsb/tC7DBNF2fQM0AGMC2O6DBEBfIQCrj
KkEzbajBmBvTQDWSkz9h2o3BeGm2QBeJNEEh5bLBJnitQIyp7EDphFvBjK6XQNX9A0FH5mzBZH7P
QFMFz0AUUWXBmj+DQOwp60AUKH7Bpq28QMgbs0CGm3fB0iiMQEKHEEEgVajBzJiDQMrBF0FI5LPB
2sKkQFCRzUB+r4TB8FTZQCUZrj71mYPBud1/QHh6qj+3r6HBlsKlQHeAjUBw35DBAoKeQBB/DUDV
3ZrBpoaIQMtIY0AX75fBXCu3QI1hF0ERdKTBpqGpQA27vj956ZDB8OGLQH1nr0BKmIvBPkzmQLMc
NEHELKTBTgXyQJwzsj/ll5PBgnOKQDJ1LkFqm7TBSJJ8QO0GiUCma6HBwKrZQKsvwr8E2rjBQE2Y
QA9kXMAg1JnBjf4VQZYS/kBKOJHBdlT+QEP800AY7oTBYMwFQVWoE0EDDaDBp/SNQKeYAEGmbpXB
mXK0QK/pNj8LjrLB2aNxQP8AhL/9uJbBW3rHQIOAXcAjVqvBKHO4QDsVRkH3cbLBLNPJQLjHLkHw
pbnBPt+8QMn7AEHF0E/B4huVQJ4W2UAwa1PBjUl9QPfiDUGneWXBfLWvQKBpDkFBcHTBoajpQMuu
4kBby2vBwBDcQIDfuUC4uljBe3RVQB391kDHj3bBVVZoQBSj/0DdKYXBABTXQCp3oUArNH/BE+Cl
QPdHnECJknDB9CNnQHuAF0HSFqPBk0GKQPTv/UCW+afBm5CZQMJqD0HcW7nBfrJEQGD/E0EaFrbB
80D7QCMOhT3/xoLB23jPQEdqcT82VXnB67vFQCGLEr/C/IPBAttwQImd7j+/J6nBzI1EQD2ZlD++
JZ3B5/u0QCHDckCYvIrBUJe+QARxnEBF3pXBY6G7QMPiGkB3hJ/BgUhWQJP1VECQbpPBS7KRQLP+
nD/oCYzBzp1rQEQhoUB1CIfBKM56QCmDwEAFTpHBTnlYQAFecED/2qXB

> <OMEGA_E>
aMSePtiMQD8=

> <OMEGA_NBR>
     30028

$$$$
50214109
  -OEChem-04172616093D

 71 74  0     1  0  0  0  0  0999 V2000
    8.4167    6.9733  -18.5033 C   0  0  0  0  0  0  0  0  0  0  0  0
    7.5066    6.5676  -17.5093 C   0  0  0  0  0  0  0  0  0  0  0  0
    7.9672    7.6971  -19.6208 C   0  0  0  0  0  0  0  0  0  0  0  0
    5.6959    7.6220  -18.7434 C   0  0  0  0  0  0  0  0  0  0  0  0
    6.2475    0.6427  -21.6461 C   0  0  0  0  0  0  0  0  0  0  0  0
    4.5499   -0.8310  -20.6889 C   0  0  0  0  0  0  0  0  0  0  0  0
    6.5871   -1.7727  -21.6463 C   0  0  0  0  0  0  0  0  0  0  0  0
    6.1317    6.9108  -17.6052 C   0  0  0  0  0  0  0  0  0  0  0  0
    4.9993    0.4674  -21.0114 C   0  0  0  0  0  0  0  0  0  0  0  0
    6.6005    8.0203  -19.7455 C   0  0  0  0  0  0  0  0  0  0  0  0
    7.0412   -0.4760  -21.9595 C   0  0  0  0  0  0  0  0  0  0  0  0
    5.3417   -1.9495  -21.0108 C   0  0  0  0  0  0  0  0  0  0  0  0
    6.3037    8.2736  -22.1815 C   0  0  0  0  0  0  0  0  0  0  0  0
    6.5949    1.1323  -17.9674 C   0  0  0  0  0  0  0  0  0  0  0  0
    5.3985    7.9433  -14.0376 C   0  0  0  0  0  0  0  0  0  0  0  0
    4.8236    8.5991  -15.3045 C   0  0  0  0  0  0  0  0  0  0  0  0
    6.3526    6.7887  -14.3891 C   0  0  0  0  0  0  0  0  0  0  0  0
    4.1066    7.5481  -16.1628 C   0  0  0  0  0  0  0  0  0  0  0  0
    5.6651    5.7535  -15.3060 C   0  0  0  0  0  0  0  0  0  0  0  0
    4.9376   10.1344  -22.2390 C   0  0  0  0  0  0  0  0  0  0  0  0
    4.9577    9.5863  -20.8385 C   0  0  0  0  0  0  0  0  0  0  0  0
    5.0710    6.4054  -16.5945 C   0  0  0  0  0  0  0  0  0  0  0  0
    6.8054   -0.0818  -17.0676 C   0  0  0  0  0  0  0  0  0  0  0  0
    4.2068    1.6763  -20.5630 C   0  0  0  0  0  0  0  0  0  0  0  0
    4.9599    4.2328  -17.7674 C   0  0  0  0  0  0  0  0  0  0  0  0
    4.9693    2.4040  -19.4354 C   0  0  1  0  0  0  0  0  0  0  0  0
    4.1269    3.5304  -18.8305 C   0  0  2  0  0  0  0  0  0  0  0  0
    5.4623    9.0178  -23.0078 N   0  0  0  0  0  0  0  0  0  0  0  0
    6.1334    8.7169  -20.8619 N   0  0  0  0  0  0  0  0  0  0  0  0
    5.3013    1.4337  -18.3749 N   0  0  0  0  0  0  0  0  0  0  0  0
    4.2269    5.4126  -17.2850 N   0  3  0  0  0  0  0  0  0  0  0  0
    7.0030    7.3424  -22.5635 O   0  0  0  0  0  0  0  0  0  0  0  0
    7.5678    1.7173  -18.4318 O   0  0  0  0  0  0  0  0  0  0  0  0
    3.7716    4.4769  -19.8390 O   0  0  0  0  0  0  0  0  0  0  0  0
    8.2489   -0.3033  -22.5418 F   0  0  0  0  0  0  0  0  0  0  0  0
    4.9133   -3.1925  -20.6956 F   0  0  0  0  0  0  0  0  0  0  0  0
    9.4640    6.7276  -18.4069 H   0  0  0  0  0  0  0  0  0  0  0  0
    7.8568    5.9903  -16.6664 H   0  0  0  0  0  0  0  0  0  0  0  0
    8.6675    8.0053  -20.3830 H   0  0  0  0  0  0  0  0  0  0  0  0
    4.6488    7.8652  -18.8476 H   0  0  0  0  0  0  0  0  0  0  0  0
    6.5936    1.6359  -21.8912 H   0  0  0  0  0  0  0  0  0  0  0  0
    3.5989   -0.9663  -20.1953 H   0  0  0  0  0  0  0  0  0  0  0  0
    7.1937   -2.6313  -21.8934 H   0  0  0  0  0  0  0  0  0  0  0  0
    5.9498    8.7006  -13.4609 H   0  0  0  0  0  0  0  0  0  0  0  0
    4.5699    7.5509  -13.4298 H   0  0  0  0  0  0  0  0  0  0  0  0
    4.1080    9.3830  -15.0158 H   0  0  0  0  0  0  0  0  0  0  0  0
    5.6429    9.0467  -15.8863 H   0  0  0  0  0  0  0  0  0  0  0  0
    7.2337    7.1964  -14.9062 H   0  0  0  0  0  0  0  0  0  0  0  0
    6.6699    6.2907  -13.4610 H   0  0  0  0  0  0  0  0  0  0  0  0
    3.2793    7.1160  -15.5807 H   0  0  0  0  0  0  0  0  0  0  0  0
    3.7056    8.0361  -17.0634 H   0  0  0  0  0  0  0  0  0  0  0  0
    6.4058    4.9960  -15.6020 H   0  0  0  0  0  0  0  0  0  0  0  0
    4.8506    5.2707  -14.7460 H   0  0  0  0  0  0  0  0  0  0  0  0
    3.9151   10.3906  -22.5533 H   0  0  0  0  0  0  0  0  0  0  0  0
    5.5824   11.0209  -22.3307 H   0  0  0  0  0  0  0  0  0  0  0  0
    5.0718   10.3909  -20.0973 H   0  0  0  0  0  0  0  0  0  0  0  0
    4.0435    9.0144  -20.6212 H   0  0  0  0  0  0  0  0  0  0  0  0
    7.8828   -0.2734  -16.9555 H   0  0  0  0  0  0  0  0  0  0  0  0
    6.3631    0.1132  -16.0795 H   0  0  0  0  0  0  0  0  0  0  0  0
    6.3218   -0.9607  -17.5188 H   0  0  0  0  0  0  0  0  0  0  0  0
    4.0697    2.3605  -21.4133 H   0  0  0  0  0  0  0  0  0  0  0  0
    3.2237    1.3524  -20.1907 H   0  0  0  0  0  0  0  0  0  0  0  0
    5.1436    3.5447  -16.9290 H   0  0  0  0  0  0  0  0  0  0  0  0
    5.9208    4.5476  -18.2006 H   0  0  0  0  0  0  0  0  0  0  0  0
    5.8939    2.8317  -19.8505 H   0  0  0  0  0  0  0  0  0  0  0  0
    3.2273    3.1013  -18.3650 H   0  0  0  0  0  0  0  0  0  0  0  0
    5.2553    8.8176  -23.9654 H   0  0  0  0  0  0  0  0  0  0  0  0
    4.5461    0.9622  -17.9196 H   0  0  0  0  0  0  0  0  0  0  0  0
    3.5201    5.1044  -16.6483 H   0  0  0  0  0  0  0  0  0  0  0  0
    3.7970    5.8579  -18.0703 H   0  0  0  0  0  0  0  0  0  0  0  0
    3.2509    4.0474  -20.5076 H   0  0  0  0  0  0  0  0  0  0  0  0
  1  2  2  0  0  0  0
  1  3  1  0  0  0  0
  2  8  1  0  0  0  0
  3 10  2  0  0  0  0
  4  8  2  0  0  0  0
  4 10  1  0  0  0  0
  5  9  1  0  0  0  0
  5 11  2  0  0  0  0
  6  9  2  0  0  0  0
  6 12  1  0  0  0  0
  7 11  1  0  0  0  0
  7 12  2  0  0  0  0
  8 22  1  0  0  0  0
  9 24  1  0  0  0  0
 10 29  1  0  0  0  0
 11 35  1  0  0  0  0
 12 36  1  0  0  0  0
 13 28  1  0  0  0  0
 13 29  1  0  0  0  0
 13 32  2  0  0  0  0
 14 23  1  0  0  0  0
 14 30  1  0  0  0  0
 14 33  2  0  0  0  0
 15 16  1  0  0  0  0
 15 17  1  0  0  0  0
 16 18  1  0  0  0  0
 17 19  1  0  0  0  0
 18 22  1  0  0  0  0
 19 22  1  0  0  0  0
 20 21  1  0  0  0  0
 20 28  1  0  0  0  0
 21 29  1  0  0  0  0
 22 31  1  0  0  0  0
 24 26  1  0  0  0  0
 25 27  1  0  0  0  0
 25 31  1  0  0  0  0
 26 27  1  0  0  0  0
 26 30  1  0  0  0  0
 27 34  1  0  0  0  0
  1 37  1  0  0  0  0
  2 38  1  0  0  0  0
  3 39  1  0  0  0  0
  4 40  1  0  0  0  0
  5 41  1  0  0  0  0
  6 42  1  0  0  0  0
  7 43  1  0  0  0  0
 15 44  1  0  0  0  0
 15 45  1  0  0  0  0
 16 46  1  0  0  0  0
 16 47  1  0  0  0  0
 17 48  1  0  0  0  0
 17 49  1  0  0  0  0
 18 50  1  0  0  0  0
 18 51  1  0  0  0  0
 19 52  1  0  0  0  0
 19 53  1  0  0  0  0
 20 54  1  0  0  0  0
 20 55  1  0  0  0  0
 21 56  1  0  0  0  0
 21 57  1  0  0  0  0
 23 58  1  0  0  0  0
 23 59  1  0  0  0  0
 23 60  1  0  0  0  0
 24 61  1  0  0  0  0
 24 62  1  0  0  0  0
 25 63  1  0  0  0  0
 25 64  1  0  0  0  0
 26 65  1  0  0  0  0
 27 66  1  0  0  0  0
 28 67  1  0  0  0  0
 30 68  1  0  0  0  0
 31 69  1  0  0  0  0
 31 70  1  0  0  0  0
 34 71  1  0  0  0  0
M  CHG  1  31   1
M  END
> <OMEGA_C>
1aoGQVUl30DPBpTBJTbwQLUp0kAWE4zBEfP+QIZO9kB595zB1kS2QIXn80CK8pXBjuvHQD6HJD8d
K63BGpmRQJS5VL/XgqXBZMnSQFnm4r+XK63BszbEQCUl3UBl14zBifqfQPRI7z5cF6jBbzfTQEpT
AEHh9p3Bw1HhQKKy874Qra/BEO+qQLSK+b8cFqjBArjJQJJgBEG0c7HBlAnTQFzwkD9BvY/B1MCs
QGsv/kAOmmDBV1uaQMiVCUEv33TBHEjLQMw82UCaOWbBQGmDQC6K8UBbTYHBaUi1QLocuEAv5XTB
yQCeQG8mIkGG6bHB4aWeQFZhGUFUtabB2EWiQPf4zECYwYTBz8XZQNWAp71riojBc56GQAyR1j/7
gKTB2beeQOhyh0CuI47BrQSfQLfaGUDHe5vBOQ+EQLvyYUDjpJbBQ8uuQOtIEEHrD7jB0UTEQF54
C0Ep5abBnaSpQDaDtz+z/5LBLEOHQLYzrUCgR4rBwhjgQL/06kAFgrTBGSvyQL3Q2z9KdJPBFmFx
QHRCj0BVtp7Ba/sDQbhLm76bVbTB+DmdQExSTMCwkKXBWWwXQVdI10BWQZPBgmr7QJiwv0DAVIXB
MK4KQZAVAEFvEKPBGMOUQP2v+0Dfx5bB6P7SQH5l0T9DIa/B31RmQOlgd7/pj6HBBDPmQOBnKMCW
Ja/B32S+QH41C0G0X1fB0jySQF+h8UBZ4FbB0XSDQKMgFkGUQHDBRJK0QFS/EEFWLn7BEnrnQPRI
5kC/f27B92/VQIdNyUA4YFfBr99RQIu240BrSnnBlyhtQLGTAEHUgYjBM/zMQJTfn0CZoXnBIjib
QLmpqECx72vBkpB6QBlAJkEvbbTB3KKyQHtVMEEspbLBgkyiQE9BJkE4x6DBnGSBQC07EEE8+KTB
mj/8QMj9i77upIfBTZ7LQAvY5z3OooDB4UvKQAPwdb+TJozB+jqCQE0SF0B5TqvBllFOQLIcrT+G
hqHBU5ikQADdYkCvbofBGHe9QN2FkUDjmpHBsJq8QA06NUDLzZ7BYYxOQH57RkCe65LBZSuoQOQU
DUEnub/BkXmRQLBSdj9GW4/BGUlhQORWo0C3L4XBfAFzQNpzu0AMkJDBDw9QQGSEgUCcD6TBw9sE
QWfm/kBHrpLB7dnvQMJh50B2oovBijX3QM0cC0EKE5vB4F6wQA3v/kD4UJXBPOisQAR9TL6WG63B
KNeLQHQklL+hIp3BTwu4QOmDI8B1uKjBsKnCQILF50D/rYzBNruSQOoBV70h+aPBHlHKQIo5C0EW
hpzBCkq/QOrZub+BhK/BBW+eQE4BGsBPgp/BOwTHQOKSKUFbrKnBzOjSQJ2pkz9rqY3B7U6uQMON
7kC8hFzBEZeYQFe5BEHeFW7BkCvQQGyB0EBnIGbBzd6DQDU87ED6GX/BJi29QP4btECIMnjBOHeL
QNZtH0FvjbPBQciMQDJAEkErZ6nBbg+lQG0AzkDTDoXBkX3ZQBqitz5WVYPBowN+QA8Rpj+eVqHB
/4SlQEM0jUAR95DB5tudQEH1C0DKsJrB5wOIQGcSYkBS3ZfBcR+qQBdvMEH8crHBYce3QNtZFkGa
LKXBtlKpQJTjvT8ErpDBq9yLQF5qr0A3wovBVevmQI7JM0HqHafBgqHxQDMYsT9UfZPBy/x6QIXs
h0BaaKHBsdTXQMRDzL/fXLjBopmXQGuYXcBn9ZjB4gIWQY4J/0CRopHBpoX+QHXG1EBQWIXBxrAF
QT4TFEHceKDBZxeOQOCg/kCtaZbBrNqyQJ7QJT/xQLLB2YpwQBqjhb9gEpbBnx7GQEThYMCJkqrB
3NS9QB4RAkFb+1DBW+SVQD5R20BtQlTBdW5/QJ3PDkFjyGbBgrSwQJ/zDkEO0XXBqGHqQDHg40Bj
xmzB07bcQPuvu0BRZVnB92tWQKGC2EBDU3fBnNRpQAg5AEGvtYXBs4TXQFlEokAnun/BZ3OmQK14
nUAl83DB6juVQETUFUEbg7rBNIdWQJv7JUGm7bTBVCdoQESPF0FyuaPBbVSIQIkmAUGmKavBG3L7
QOvKrz1WjILBPtfPQK8ueT9Q5HjB7OfFQKkKDr8ClIPBDoRuQGyA6D/32ajBLQNDQA5lkT8At5zB
Uei0QHPMckBcyorBnja+QJvSm0C3D5bBEdG6QNrBGEBTbp/ByotVQMNRVEAMR5PBfGyqQCzCPkEp
A7XBm4yRQD4OnT/Pu4vBJgdsQLJwoUCSEofBTzR6QLsiwEDZfpHBuYdWQELAbUAhv6XB

> <OMEGA_E>
CB+OPkBLOD8=

> <OMEGA_NBR>
     32606

$$$$
50214114
  -OEChem-04172616093D

 72 75  0     1  0  0  0  0  0999 V2000
    8.4223    6.9875  -18.4810 C   0  0  0  0  0  0  0  0  0  0  0  0
    7.5083    6.5861  -17.4897 C   0  0  0  0  0  0  0  0  0  0  0  0
    7.9780    7.7094  -19.6010 C   0  0  0  0  0  0  0  0  0  0  0  0
    5.7032    7.6432  -18.7310 C   0  0  0  0  0  0  0  0  0  0  0  0
    6.2235    0.6391  -21.6496 C   0  0  0  0  0  0  0  0  0  0  0  0
    4.5480   -0.8381  -20.6598 C   0  0  0  0  0  0  0  0  0  0  0  0
    6.5894   -1.7723  -21.6155 C   0  0  0  0  0  0  0  0  0  0  0  0
    6.1341    6.9308  -17.5910 C   0  0  0  0  0  0  0  0  0  0  0  0
    4.9832    0.4605  -20.9997 C   0  0  0  0  0  0  0  0  0  0  0  0
    6.6131    8.0365  -19.7307 C   0  0  0  0  0  0  0  0  0  0  0  0
    7.0272   -0.4760  -21.9520 C   0  0  0  0  0  0  0  0  0  0  0  0
    5.3490   -1.9530  -20.9718 C   0  0  0  0  0  0  0  0  0  0  0  0
    6.3290    8.2474  -22.1637 C   0  0  0  0  0  0  0  0  0  0  0  0
    6.6008    1.1290  -17.9667 C   0  0  0  0  0  0  0  0  0  0  0  0
    5.4084    9.0615  -23.0816 C   0  0  0  0  0  0  0  0  0  0  0  0
    4.9463   10.2177  -22.2147 C   0  0  0  0  0  0  0  0  0  0  0  0
    5.3646    7.9334  -14.0241 C   0  0  0  0  0  0  0  0  0  0  0  0
    4.7908    8.5921  -15.2902 C   0  0  0  0  0  0  0  0  0  0  0  0
    6.3315    6.7901  -14.3765 C   0  0  0  0  0  0  0  0  0  0  0  0
    4.0903    7.5412  -16.1612 C   0  0  0  0  0  0  0  0  0  0  0  0
    5.6576    5.7553  -15.3031 C   0  0  0  0  0  0  0  0  0  0  0  0
    4.9748    9.6063  -20.8330 C   0  0  0  0  0  0  0  0  0  0  0  0
    5.0695    6.4121  -16.5918 C   0  0  0  0  0  0  0  0  0  0  0  0
    6.8156   -0.0851  -17.0676 C   0  0  0  0  0  0  0  0  0  0  0  0
    4.1914    1.6674  -20.5439 C   0  0  0  0  0  0  0  0  0  0  0  0
    4.9925    4.2610  -17.7996 C   0  0  0  0  0  0  0  0  0  0  0  0
    4.9666    2.4000  -19.4270 C   0  0  1  0  0  0  0  0  0  0  0  0
    4.1363    3.5360  -18.8249 C   0  0  2  0  0  0  0  0  0  0  0  0
    6.1550    8.7246  -20.8553 N   0  0  0  0  0  0  0  0  0  0  0  0
    5.3040    1.4372  -18.3601 N   0  0  0  0  0  0  0  0  0  0  0  0
    4.2415    5.4184  -17.2952 N   0  3  0  0  0  0  0  0  0  0  0  0
    6.9672    7.2605  -22.5123 O   0  0  0  0  0  0  0  0  0  0  0  0
    7.5715    1.6976  -18.4553 O   0  0  0  0  0  0  0  0  0  0  0  0
    3.7531    4.4628  -19.8413 O   0  0  0  0  0  0  0  0  0  0  0  0
    8.2299   -0.3002  -22.5439 F   0  0  0  0  0  0  0  0  0  0  0  0
    4.9379   -3.1953  -20.6322 F   0  0  0  0  0  0  0  0  0  0  0  0
    9.4687    6.7399  -18.3805 H   0  0  0  0  0  0  0  0  0  0  0  0
    7.8546    6.0107  -16.6439 H   0  0  0  0  0  0  0  0  0  0  0  0
    8.6814    8.0134  -20.3621 H   0  0  0  0  0  0  0  0  0  0  0  0
    4.6575    7.8908  -18.8381 H   0  0  0  0  0  0  0  0  0  0  0  0
    6.5559    1.6318  -21.9150 H   0  0  0  0  0  0  0  0  0  0  0  0
    3.6004   -0.9767  -20.1605 H   0  0  0  0  0  0  0  0  0  0  0  0
    7.2049   -2.6279  -21.8512 H   0  0  0  0  0  0  0  0  0  0  0  0
    5.9592    9.4285  -23.9603 H   0  0  0  0  0  0  0  0  0  0  0  0
    4.5522    8.4554  -23.4125 H   0  0  0  0  0  0  0  0  0  0  0  0
    5.6352   11.0722  -22.2877 H   0  0  0  0  0  0  0  0  0  0  0  0
    3.9309   10.5410  -22.4877 H   0  0  0  0  0  0  0  0  0  0  0  0
    5.9053    8.6922  -13.4393 H   0  0  0  0  0  0  0  0  0  0  0  0
    4.5361    7.5295  -13.4237 H   0  0  0  0  0  0  0  0  0  0  0  0
    4.0652    9.3664  -15.0004 H   0  0  0  0  0  0  0  0  0  0  0  0
    5.6091    9.0525  -15.8634 H   0  0  0  0  0  0  0  0  0  0  0  0
    7.2118    7.2088  -14.8863 H   0  0  0  0  0  0  0  0  0  0  0  0
    6.6482    6.2894  -13.4497 H   0  0  0  0  0  0  0  0  0  0  0  0
    3.2624    7.0972  -15.5890 H   0  0  0  0  0  0  0  0  0  0  0  0
    3.6921    8.0315  -17.0618 H   0  0  0  0  0  0  0  0  0  0  0  0
    6.4050    5.0040  -15.5979 H   0  0  0  0  0  0  0  0  0  0  0  0
    4.8420    5.2644  -14.7519 H   0  0  0  0  0  0  0  0  0  0  0  0
    5.0834   10.3848  -20.0635 H   0  0  0  0  0  0  0  0  0  0  0  0
    4.0587    9.0279  -20.6429 H   0  0  0  0  0  0  0  0  0  0  0  0
    7.8926   -0.2914  -16.9803 H   0  0  0  0  0  0  0  0  0  0  0  0
    6.3996    0.1193  -16.0700 H   0  0  0  0  0  0  0  0  0  0  0  0
    6.3093   -0.9587  -17.5041 H   0  0  0  0  0  0  0  0  0  0  0  0
    4.0408    2.3494  -21.3937 H   0  0  0  0  0  0  0  0  0  0  0  0
    3.2143    1.3406  -20.1585 H   0  0  0  0  0  0  0  0  0  0  0  0
    5.2289    3.5816  -16.9674 H   0  0  0  0  0  0  0  0  0  0  0  0
    5.9260    4.6019  -18.2711 H   0  0  0  0  0  0  0  0  0  0  0  0
    5.8899    2.8193  -19.8532 H   0  0  0  0  0  0  0  0  0  0  0  0
    3.2499    3.1143  -18.3285 H   0  0  0  0  0  0  0  0  0  0  0  0
    4.5509    0.9770  -17.8900 H   0  0  0  0  0  0  0  0  0  0  0  0
    3.5423    5.0872  -16.6617 H   0  0  0  0  0  0  0  0  0  0  0  0
    3.8012    5.8695  -18.0715 H   0  0  0  0  0  0  0  0  0  0  0  0
    3.2168    4.0199  -20.4885 H   0  0  0  0  0  0  0  0  0  0  0  0
  1  2  2  0  0  0  0
  1  3  1  0  0  0  0
  2  8  1  0  0  0  0
  3 10  2  0  0  0  0
  4  8  2  0  0  0  0
  4 10  1  0  0  0  0
  5  9  1  0  0  0  0
  5 11  2  0  0  0  0
  6  9  2  0  0  0  0
  6 12  1  0  0  0  0
  7 11  1  0  0  0  0
  7 12  2  0  0  0  0
  8 23  1  0  0  0  0
  9 25  1  0  0  0  0
 10 29  1  0  0  0  0
 11 35  1  0  0  0  0
 12 36  1  0  0  0  0
 13 15  1  0  0  0  0
 13 29  1  0  0  0  0
 13 32  2  0  0  0  0
 14 24  1  0  0  0  0
 14 30  1  0  0  0  0
 14 33  2  0  0  0  0
 15 16  1  0  0  0  0
 16 22  1  0  0  0  0
 17 18  1  0  0  0  0
 17 19  1  0  0  0  0
 18 20  1  0  0  0  0
 19 21  1  0  0  0  0
 20 23  1  0  0  0  0
 21 23  1  0  0  0  0
 22 29  1  0  0  0  0
 23 31  1  0  0  0  0
 25 27  1  0  0  0  0
 26 28  1  0  0  0  0
 26 31  1  0  0  0  0
 27 28  1  0  0  0  0
 27 30  1  0  0  0  0
 28 34  1  0  0  0  0
  1 37  1  0  0  0  0
  2 38  1  0  0  0  0
  3 39  1  0  0  0  0
  4 40  1  0  0  0  0
  5 41  1  0  0  0  0
  6 42  1  0  0  0  0
  7 43  1  0  0  0  0
 15 44  1  0  0  0  0
 15 45  1  0  0  0  0
 16 46  1  0  0  0  0
 16 47  1  0  0  0  0
 17 48  1  0  0  0  0
 17 49  1  0  0  0  0
 18 50  1  0  0  0  0
 18 51  1  0  0  0  0
 19 52  1  0  0  0  0
 19 53  1  0  0  0  0
 20 54  1  0  0  0  0
 20 55  1  0  0  0  0
 21 56  1  0  0  0  0
 21 57  1  0  0  0  0
 22 58  1  0  0  0  0
 22 59  1  0  0  0  0
 24 60  1  0  0  0  0
 24 61  1  0  0  0  0
 24 62  1  0  0  0  0
 25 63  1  0  0  0  0
 25 64  1  0  0  0  0
 26 65  1  0  0  0  0
 26 66  1  0  0  0  0
 27 67  1  0  0  0  0
 28 68  1  0  0  0  0
 30 69  1  0  0  0  0
 31 70  1  0  0  0  0
 31 71  1  0  0  0  0
 34 72  1  0  0  0  0
M  CHG  1  31   1
M  END
> <OMEGA_C>
3MEGQfeZ30AU2ZPBnEPwQKXB0kDU6ovBCkz/QCSz9kDwzpzBBIG2QCyV9EAR2ZXB7ibHQHmbIz9p
Mq3B7YiRQKSNVr9bR6XBr9zSQGjb4r+e7KzBYErEQDPJ3UBWuozBqXafQPzL6z51/6fBrJ7TQKmV
AEFp2J3B597gQEq1876cna/B7CqrQN36+b8rxqfB7YbKQE/1A0EuT7HB1TnTQEKDkD/ku4/B/BGt
QOr7EEEzp7jBKUieQN17I0Gbt7HB1aqrQH7e/UChYmDBH06ZQB55CUHcpHTB1JvKQFRI2UAjBmbB
teOCQLtR8UAzSoHB4wq1QFAruECB2XTBvTGfQF6zGUEOqqbBRDmiQDYwzUACvITBuhnaQNBLrr1s
iojBkh+GQMBs1T/8WaTBxcKfQPxZiECTZY7BE+6eQAeaGUB5apvBwlyEQK1NYkBVmZbBa/XEQNeX
C0HB16bBlLqpQPz1tz954ZLBorqHQKljrUCqXIrBZPPeQExW6EArGbTBWknyQHBM2T97pJPBpDJw
QBbPjkANu57Bga0DQZaxmb7fWbTB+gKeQG5/TMDNDqXB+38XQYyt10A6C5PBAVn7QHZXwEDAJoXB
M+cKQb02AEGR5aLBHQqVQGaB/EB6tJbBjMnRQOvf0D/UUa/BX21mQMwGer+mSKHBcI7mQEYwKMA3
z67BarG+QCvbFkGsrr/BkauRQDNJB0G0TLvBaFO0QMInMUFJTbLBZpR7QMKnKEHD5rPB5Pe8QD4T
C0GAB1fB6yeRQJnx8EBtx1bBOBaCQKPcFUGsAXDBcH2zQPbWEEFJ0H3Bv8bmQCSu5kA/Lm7BXL7U
QH5CyUDrMVfBDMtQQFgc40CfbHnBGEtsQAKBAEGbfojBzvXMQMMgoEAYkXnBXPGaQBx2qEDOB2zB
6qqiQBYoJkETgqDBleCBQHRyEEGPJKXBFpD8QGw0lb6o14fBS8nMQJxp9D11j4DBt+XJQG1qdb9Z
CIzB2U2BQHtcFkBlJqvBZLdNQAKYqz+CRKHBd1OnQGk4ZUBMvYfBB6K9QCVDk0A3K5LB13m8QAtw
NEBl057Bp/5PQOlPR0CwoJLBmaCRQEEcej/PHo/BQrViQITKokAgS4XBzUZzQDXTu0B4kpDBpeBN
QOOigEBe6KPB9esEQYw8/0DbaZLBXfrvQKAW50CxiIvBmIL3QNq/C0EPqZrBtL+wQJJ0/0CtKJXB
qgitQMtVQr6kKa3BkM+LQJ80k79XOJ3Bygy4QLL4IsBKzqjBRuDCQPLI50B4l4zBtsqSQKG8M73l
CaTBbZLKQG/RC0ExUJzB+GK/QLOXuL8zla/BCWGeQC2KGcCCmp/BgSfMQJpHI0F6+azBytnSQHTf
kz9Jr43B9jGqQAnXKkED97TBwHeAQBrkKEEM667BClCuQHNn7kCaalzB3KSYQH+sBEH++m3BShrQ
QO9D0EDMBWbBWOmDQMcs7ECnAn/BQQ29QGrxs0AvHHjBXO+IQCFWFkG1YqfBEhulQHnzzUB3BYXB
Q1TZQMlGtz4hXYPBTy5+QE0opz8EZaHBiJelQJFRjUCr+JDBgeydQLtYDEDiuJrBNBmIQFlzYkCn
45fBDTS3QGKWF0HRxaTBPkypQH1lvj/etpDBTO+LQKOCr0BZw4vBdkzyQHT8JkE9R67Bvp3xQLlF
sT+tf5PBcEl7QAMuiEAybaHBjvvXQH3ayr9pa7jB3HSXQMk2XcCVEpnBeBIWQRkq/0CMW5HBB5L+
QLbE00BaXoXBFuwFQQsqFUGO0p/BgnqOQA8X/0CCRZbBtQ2zQHKeKD/WSrLBa2JwQHjShL8GKpbB
AhrGQIdXYMB9qqrByASwQPOHO0G5WLfBRf2pQMuWIEE1HrzB2r1yQL6hN0EPc6rBEJdLQKpJJUHh
XrTBr+S9QM35AUFL4lDB1tqVQLY620D8JlTBW5F/QCLFDkGqrWbBPMqwQJbkDkHksnXBOWHqQCKR
40Dup2zBXpHcQFRlu0AkS1nBk39WQHFw2EBFPnfB5eppQOU0AEGlqIXB6lfXQDj+oUCwnn/BRTWm
QONlnUAH4nDBqQ9rQHzsF0EjFqDBnoKBQLIKB0EAU6vBGUT7QCKxqj2tkYLB46rPQPXGeD/X8XjB
drPFQAT3Db+qoIPBI9FuQAnT6T9p56jBMBtDQH55kj8tyZzBGu60QNjtckCCzIrBSVO+QCzym0DW
DZbBouu6QDknGUCGcp/B+KdVQGWxVEBSUJPBzXuRQPyYnT+Kx4vBtv1rQGeGoUAFG4fBfJJ6QCxU
wEDxf5HBsdZWQFFZbkD8xqXB

> <OMEGA_E>
SERiPhRkMj8=

> <OMEGA_NBR>
     35212

$$$$
50214092
  -OEChem-04172616093D

 68 72  0     1  0  0  0  0  0999 V2000
    8.3065    6.8177  -18.4091 C   0  0  0  0  0  0  0  0  0  0  0  0
    7.4233    6.4660  -17.3727 C   0  0  0  0  0  0  0  0  0  0  0  0
    7.8383    7.5705  -19.5034 C   0  0  0  0  0  0  0  0  0  0  0  0
    5.6052    7.5987  -18.5369 C   0  0  0  0  0  0  0  0  0  0  0  0
    6.3237    0.7088  -21.7096 C   0  0  0  0  0  0  0  0  0  0  0  0
    4.5982   -0.7679  -20.8111 C   0  0  0  0  0  0  0  0  0  0  0  0
    6.6629   -1.7092  -21.7118 C   0  0  0  0  0  0  0  0  0  0  0  0
    6.0716    6.8591  -17.4512 C   0  0  0  0  0  0  0  0  0  0  0  0
    5.0584    0.5359  -21.1053 C   0  0  0  0  0  0  0  0  0  0  0  0
    6.4825    7.9761  -19.5579 C   0  0  0  0  0  0  0  0  0  0  0  0
    7.1241   -0.4119  -22.0102 C   0  0  0  0  0  0  0  0  0  0  0  0
    5.3983   -1.8877  -21.1174 C   0  0  0  0  0  0  0  0  0  0  0  0
    6.6037    1.1304  -18.0679 C   0  0  0  0  0  0  0  0  0  0  0  0
    4.9746    8.5546  -23.2853 C   0  0  0  0  0  0  0  0  0  0  0  0
    6.4304    8.1861  -22.8961 C   0  0  0  0  0  0  0  0  0  0  0  0
    4.4076    7.4211  -15.5728 C   0  0  0  0  0  0  0  0  0  0  0  0
    5.3701    6.3657  -14.9814 C   0  0  0  0  0  0  0  0  0  0  0  0
    5.9364   10.4314  -22.2001 C   0  0  0  0  0  0  0  0  0  0  0  0
    4.5539    9.0631  -20.8689 C   0  0  0  0  0  0  0  0  0  0  0  0
    4.6263    9.6800  -22.2801 C   0  0  2  0  0  0  0  0  0  0  0  0
    6.7396    9.2118  -21.7851 C   0  0  1  0  0  0  0  0  0  0  0  0
    5.0544    6.3727  -16.4766 C   0  0  0  0  0  0  0  0  0  0  0  0
    6.8182   -0.1048  -17.1985 C   0  0  0  0  0  0  0  0  0  0  0  0
    4.2561    1.7508  -20.6525 C   0  0  0  0  0  0  0  0  0  0  0  0
    4.9155    4.2065  -17.6773 C   0  0  0  0  0  0  0  0  0  0  0  0
    4.9749    2.4595  -19.4747 C   0  0  1  0  0  0  0  0  0  0  0  0
    4.1097    3.5578  -18.8170 C   0  0  2  0  0  0  0  0  0  0  0  0
    5.9996    8.7817  -20.5789 N   0  0  2  0  0  0  0  0  0  0  0  0
    5.3077    1.4520  -18.4508 N   0  0  0  0  0  0  0  0  0  0  0  0
    4.1718    5.3375  -17.0655 N   0  3  0  0  0  0  0  0  0  0  0  0
    7.5744    1.7107  -18.5424 O   0  0  0  0  0  0  0  0  0  0  0  0
    3.7705    4.5578  -19.7783 O   0  0  0  0  0  0  0  0  0  0  0  0
    8.3409   -0.2425  -22.5754 F   0  0  0  0  0  0  0  0  0  0  0  0
    4.9582   -3.1341  -20.8305 F   0  0  0  0  0  0  0  0  0  0  0  0
    9.3411    6.5112  -18.3659 H   0  0  0  0  0  0  0  0  0  0  0  0
    7.7774    5.8997  -16.5241 H   0  0  0  0  0  0  0  0  0  0  0  0
    8.5141    7.8389  -20.3020 H   0  0  0  0  0  0  0  0  0  0  0  0
    4.5640    7.8807  -18.5894 H   0  0  0  0  0  0  0  0  0  0  0  0
    6.6785    1.7021  -21.9418 H   0  0  0  0  0  0  0  0  0  0  0  0
    3.6312   -0.9066  -20.3506 H   0  0  0  0  0  0  0  0  0  0  0  0
    7.2788   -2.5668  -21.9387 H   0  0  0  0  0  0  0  0  0  0  0  0
    4.9214    8.9185  -24.3220 H   0  0  0  0  0  0  0  0  0  0  0  0
    4.3017    7.6928  -23.1643 H   0  0  0  0  0  0  0  0  0  0  0  0
    6.4933    7.1556  -22.5165 H   0  0  0  0  0  0  0  0  0  0  0  0
    7.1138    8.3046  -23.7499 H   0  0  0  0  0  0  0  0  0  0  0  0
    3.3311    7.3701  -15.3524 H   0  0  0  0  0  0  0  0  0  0  0  0
    4.7186    8.4741  -15.6401 H   0  0  0  0  0  0  0  0  0  0  0  0
    6.3672    6.6662  -14.6272 H   0  0  0  0  0  0  0  0  0  0  0  0
    4.9797    5.5622  -14.3395 H   0  0  0  0  0  0  0  0  0  0  0  0
    6.2543   10.8500  -23.1664 H   0  0  0  0  0  0  0  0  0  0  0  0
    5.9331   11.2261  -21.4396 H   0  0  0  0  0  0  0  0  0  0  0  0
    4.1313    9.7734  -20.1431 H   0  0  0  0  0  0  0  0  0  0  0  0
    3.9581    8.1384  -20.8667 H   0  0  0  0  0  0  0  0  0  0  0  0
    3.7541   10.2890  -22.5601 H   0  0  0  0  0  0  0  0  0  0  0  0
    7.8127    9.4012  -21.6343 H   0  0  0  0  0  0  0  0  0  0  0  0
    7.8951   -0.3133  -17.1160 H   0  0  0  0  0  0  0  0  0  0  0  0
    6.4020    0.0755  -16.1964 H   0  0  0  0  0  0  0  0  0  0  0  0
    6.3119   -0.9675  -17.6561 H   0  0  0  0  0  0  0  0  0  0  0  0
    4.1560    2.4537  -21.4928 H   0  0  0  0  0  0  0  0  0  0  0  0
    3.2575    1.4254  -20.3257 H   0  0  0  0  0  0  0  0  0  0  0  0
    5.1160    3.4498  -16.9046 H   0  0  0  0  0  0  0  0  0  0  0  0
    5.8684    4.5805  -18.0802 H   0  0  0  0  0  0  0  0  0  0  0  0
    5.8994    2.9195  -19.8538 H   0  0  0  0  0  0  0  0  0  0  0  0
    3.2022    3.0973  -18.3994 H   0  0  0  0  0  0  0  0  0  0  0  0
    4.5536    0.9704  -18.0042 H   0  0  0  0  0  0  0  0  0  0  0  0
    3.5823    4.9755  -16.3434 H   0  0  0  0  0  0  0  0  0  0  0  0
    3.6087    5.7657  -17.7722 H   0  0  0  0  0  0  0  0  0  0  0  0
    3.2728    4.1628  -20.4846 H   0  0  0  0  0  0  0  0  0  0  0  0
  1  2  2  0  0  0  0
  1  3  1  0  0  0  0
  2  8  1  0  0  0  0
  3 10  2  0  0  0  0
  4  8  2  0  0  0  0
  4 10  1  0  0  0  0
  5  9  1  0  0  0  0
  5 11  2  0  0  0  0
  6  9  2  0  0  0  0
  6 12  1  0  0  0  0
  7 11  1  0  0  0  0
  7 12  2  0  0  0  0
  8 22  1  0  0  0  0
  9 24  1  0  0  0  0
 10 28  1  0  0  0  0
 11 33  1  0  0  0  0
 12 34  1  0  0  0  0
 13 23  1  0  0  0  0
 13 29  1  0  0  0  0
 13 31  2  0  0  0  0
 14 15  1  0  0  0  0
 14 20  1  0  0  0  0
 15 21  1  0  0  0  0
 16 17  1  0  0  0  0
 16 22  1  0  0  0  0
 17 22  1  0  0  0  0
 18 20  1  0  0  0  0
 18 21  1  0  0  0  0
 19 20  1  0  0  0  0
 19 28  1  0  0  0  0
 21 28  1  0  0  0  0
 22 30  1  0  0  0  0
 24 26  1  0  0  0  0
 25 27  1  0  0  0  0
 25 30  1  0  0  0  0
 26 27  1  0  0  0  0
 26 29  1  0  0  0  0
 27 32  1  0  0  0  0
  1 35  1  0  0  0  0
  2 36  1  0  0  0  0
  3 37  1  0  0  0  0
  4 38  1  0  0  0  0
  5 39  1  0  0  0  0
  6 40  1  0  0  0  0
  7 41  1  0  0  0  0
 14 42  1  0  0  0  0
 14 43  1  0  0  0  0
 15 44  1  0  0  0  0
 15 45  1  0  0  0  0
 16 46  1  0  0  0  0
 16 47  1  0  0  0  0
 17 48  1  0  0  0  0
 17 49  1  0  0  0  0
 18 50  1  0  0  0  0
 18 51  1  0  0  0  0
 19 52  1  0  0  0  0
 19 53  1  0  0  0  0
 20 54  1  0  0  0  0
 21 55  1  0  0  0  0
 23 56  1  0  0  0  0
 23 57  1  0  0  0  0
 23 58  1  0  0  0  0
 24 59  1  0  0  0  0
 24 60  1  0  0  0  0
 25 61  1  0  0  0  0
 25 62  1  0  0  0  0
 26 63  1  0  0  0  0
 27 64  1  0  0  0  0
 29 65  1  0  0  0  0
 30 66  1  0  0  0  0
 30 67  1  0  0  0  0
 32 68  1  0  0  0  0
M  CHG  1  30   1
M  END
> <OMEGA_C>
PecEQVYq2kDARZPBoIvtQMTpzkBj+4rBlNP6QMtB8kAJB5zBKV6zQIUo80CVS5TBwFvKQJZ1NT9S
ra3BWSSTQCWWRL82fabBIDbVQJbF2r/Gsa3B0krCQNJ920ADnIvBqd6hQKIwCT+y16jB+HDPQOg7
/0CJdpzBuPjjQMzg0r79FLDBg76sQPCe8b9l8KjBf1HTQGKwkD8ai5DBhC+fQHLfCEFeSLrB/MXN
QGf6AkFAK7fBHQuNQMR57UACKnnBgderQMWzy0C/s2/B8fa9QAvnJkHXmbHB6bmRQIcCEUGQ86bB
1AqUQHzhGkGgPbLB+KrXQK9jE0HlR67Bwb2hQPzsy0Aq0IPB3y7aQEux1r2WlonBADKIQFMa4D9s
OKXBEkydQJubhkAxa43BpDKfQGloHUAyzJvB6oKDQEezY0AsiZbBs/y/QLGBDEGWoaTBvNipQF3c
uT8vm5PBjX+FQH3MqkAwhojBUGHyQET32j/rVpTBmFBxQCrZkUAPOp7BZXQFQZBHeL5imrTB46me
QBaVSMDWpKbBVnUVQWxb0EBE7ZLBs+D4QInKvEBEMYTBpDkIQTDY+kCOaqLBqAySQPgu/EAqt5TB
lLbVQBPe2T/diK/BhmVoQNIYaL8LzqLByuvoQERGJMCJgq/B7XudQEiyDkF6k8LBfaeJQGUr9kCH
ULnBz8jPQA775ECxIbTBHaTjQM/fBEHT/73B/zBVQKzX60Bho3XBhf6WQOOVB0HrPXrB+r/LQIpR
1UAaCWrB9VmfQHL9sUCQbmXBDiPIQHuZLUHXVLnBSdy9QCGeM0E5hKvBbjOEQMdfHEEAJaHBUFJ9
QA83AkEF76bBdEJwQI6fJEEGe7TBQAH6QDhrFkH6Eq3B/KT8QOdioL6e7YjBzNzMQBeSmj1HkoHB
OfvJQAyxd7+1P43Bj/2EQBAJHUAn8avBXnpQQO1ytj8Jm6LB/LWjQPjIXECJPIfBj8m7QGmTkkAp
pJDB+Me8QBrZOkCl1J7BGvFMQM86RkD2MZPBLbeRQHZueD+rCJDBK0RlQPw2n0Bcv4LBSvRmQOmA
uECFLY7Bz3RRQMA1hUBc4KPBtksGQTzz2UCbWZHBVuztQLnKz0DIhonBFhcAQXzE70DUsZrB6Jm2
QKII8kCATJTBKPzKQAlLQj+GxK3B1EuTQBgWOb/U4qbBJOrUQOy81L++Xa7BvfrCQHhD3EDiBIvB
JXyiQOdpFT8V8qjBMeDUQOgu+0DvR5zB1iPkQKBeub4SdbDBP26sQD7k67+noKnBiR/TQOBQjT9W
spDBL0mrQJarKEERvrPBZySQQI7RIEEeIKrBhyqLQGp+7kAB5njBcFioQLuqy0ARIm/B90igQHQ6
A0Gdk7XBcKrjQOiADUGr667BkmXCQDb8E0HOc7fB6tuaQE3GCEHK1anB1mWgQEImzUCDooPB9DbZ
QAgTKL4IFYrBavGIQOrb5T93MaXBtc2cQHjSh0DQP43BoLmfQNSLH0BmrJvBm9yDQHX/ZUBMfpbB
mLTHQCHlBkFn06XBBs2pQLjrvD8VhZPB6p6EQNxtrEBoq4jBFoPyQHDa1T/BdJTBrJNzQM/5kkAq
QZ7BBIEFQZCaQ74XA7XB3O6dQKblRcBdm6fBjNMWQUwE0UCMMJDBajT3QO2GvkAeaYLBB+cLQTjQ
90Dfq6DBtrWVQDHR+0AYU5XB2LTWQOuM4D/WZa/BMrhoQDQiXb/+M6PBqEfoQGpEIcBiZbDBSsqW
QDIhL0FaILrBOnDCQCXyNEFPPbHBpc2ZQObOKEFsqqLBqZZbQAt6I0FuhKvB89FQQPd57UCsKHbB
GOuVQLr/B0EBYHnBhOjHQBVU1EDzp2jBZWaaQJjOsUCecGXBNSKDQGHvBUHQUbrBY8KrQB6Y5UDc
4rbBCLP3QBklAEEDtLHB7zX4QOQXG0GmtazBkfXOQP2rFEFqqr/BLTSDQDze/UDtj6XB+3/7QPnU
z776mYnBhILMQMc5hrvQ+YHB4APIQMQzf78q5o3B9t+FQPCVIEAA2avBntxRQOPruz+5o6LB8zii
QHKsX0Da84bB2sm7QHpek0AuRJDBy4S9QIfJPEAym57BWvdMQAy9SEDxT5PB82mRQAxdgz8Iy4/B
be5gQNYxoUB0IIPB6ORnQFdZukBgi47Br71UQG5WhkD+/aPBJsYGQTPk2kBtKZHBoNDuQNlOz0DK
eonBmZQAQeUp8kDsSprBYYS3QJXh8kBe+ZPBjNuTQBxtNr+lAKfBIcjKQMLRSj8s9K3BRS/WQFy7
z7+oTq7B+trDQHWx20CQ7orBz0uiQC5SGT86KqnBP8jVQAWh/UCp0ZvBGb2tQKQK6b+ZlqnBe6rk
QA1xor4JgrDBTm3TQJb3kj83sZDBfBerQOiuJkHXT7XB+RqQQE87IUFFSavBifGLQI0I7kANEXnB
/r2oQLUhy0AKFm/B1PmhQE71AEHWk7TBPGXkQCjhDUHAiK7BJkvDQEOAEUF1gLfBIsKbQF2YCUGm
WanBOTmhQPtqzEAAoIPBNZfaQKRSwr3D2InB6VKIQA0N5j9bXKXBwvucQJF1h0BVaI3B2B6fQNAj
H0An0ZvBqjiDQBeUZED2dpbBmorIQPpBCUFNFKXBg+SpQGuBuz/NvpPBFi2FQNodrEDsvojBJF7y
QCEU3z8faJTBtotvQA4skkA4IJ7B7/SfQK/ARMDNcKfBP80FQeiMBL7P+7TBn1EXQcTx0UBjD5DB
Vg/4QKYNvUBQhILBu2wMQSRN+0CDJ6DBlZCWQE+S/EA07pTBr9FpQIrGXb/gW6PBhevVQCVk5T8z
qa/BbRfqQBk3HsDzPLDBQ3uWQPcGK0FkG7zBpInBQMnVM0GKqrPB5UaZQEtFK0F2bqTBSmFbQDci
I0HS3qzBNEVSQJ1A7UBLenbBt+eWQMy7B0EvlXnBTT7IQGGr00B6fmjBL3maQGZ0sUCWY2XBfuuE
QIfzAUEahbnBFliuQGD34EAIurTBd2X5QJo9AEG5XrDB/fX3QKxEHEGLNa3BFEPQQD0VEEHppr/B
9j6EQL7EAEECg6TBahv9QEZrlr60LYnBmx3NQFPIjj0N04HBNbTKQJEEdb+ZmY3B0vyEQOwMIUCf
96vBKN1QQOObuj+zz6LByxOjQFVVX0CLGofBhaK7QIoAk0CloZDBzau8QKQ7PUDMxJ7BI/FMQKBf
RkDzEZPBHteRQDBPeD/jQZDB8cthQFzdoEC4O4PBZU5pQKZpukA6l47Bba9PQAFdhUBSwKPB1xMF
QbF02kCLQZPB6vDtQFnmzkDX94rBLBH7QGyj8kB7/pvBg6ezQGYO80CiPZTBs86SQEhjQ79CXqbB
M1TKQGRHMD8pvK3BiVHUQBbg3b+Ioq3BeZ7CQOlJ20BrlIvB4t2hQLx7CD9G2KjBhJ/PQIRm/0Ao
aJzBfemrQJhm8r9oz6jBpoLjQAAJ4756GrDBoEbTQJMFkT9WgpDBsdCfQMycCEHgObrB/MXOQIuF
A0GnF7fBT1iNQGL/7ED+DXnBjsKrQBPHykDorW/Bunq8QGUXJ0FNd7HB+meRQDt5EEGV6qbBwluT
QElpGkHEL7LBfFvXQF72E0GlIq7BrO6hQEiSy0DVz4PBHQ3aQC3yzL3hhonBCoWIQJEC4T8YTKXB
lBadQNBihkAnZ43BRVufQIaAHUB41JvBqo+DQDq8Y0BXl5bBONe/QMqWDEHtiqTB2tupQC+1uT9v
pZPBmn2FQB/dqkATnIjBsWXyQMvH2z+ePJTBPjhyQKUIkkDTRZ7BnnGdQNOCSMDha6bBTjYFQTgW
lr5hrrTBJ6gVQbfO0ECU65LBhV75QOC0vEBZM4TBS1IIQVpv+0ALYKLBG06SQFX6+0BbpZTB5vNn
QPNMY78JmKLBgv3VQM2Q1j+Nqa/BW6jnQDReJsAzca/B6MWdQPpoDkHshMLB+z6LQMDq9EBGRbnB
nvHRQBoS5kCNHbTBbpPkQBvrBUF75b3B0rBVQPqT60BRonXBdpWXQJZQB0Ek73nBi67LQIwD1EAt
4GnBfvGeQFn2sEBak2XBR2bGQF//LUHCK7nBBmy7QDrCM0HCXKvBmCmDQGKgG0FHHaHB/U5+QKhs
AUEM76bBvMxtQI+3I0EAdrTBU3H5QEmJF0Ft26zB8IP8QMptm75syIjBgmbMQBDooj05i4HB8hzK
QHIwd7+rN43BmNeFQCV3HUAkCazBuK9QQAHhuD9iwqLBvuGiQIlLXEAtMIfBbeO7QIf2kUBwh5DB
aQC9QH//OkAD0Z7B5rZMQJFRRkBKVZPBVqyRQCnvdj9LI5DB3EdkQD6Qn0AH5oLByPdnQEvKuECA
VI7Bm6pSQEeNhUB++KPB

> <OMEGA_E>
GKTsPohI9z4wcfg+KA3rPg==

> <OMEGA_NBR>
     39844

$$$$
50214100
  -OEChem-04172616093D

 76 80  0     1  0  0  0  0  0999 V2000
    8.5217    6.9385  -18.2076 C   0  0  0  0  0  0  0  0  0  0  0  0
    7.5382    6.5615  -17.2775 C   0  0  0  0  0  0  0  0  0  0  0  0
    8.1548    7.5760  -19.4016 C   0  0  0  0  0  0  0  0  0  0  0  0
    5.8136    7.4503  -18.7386 C   0  0  0  0  0  0  0  0  0  0  0  0
    6.2229    0.6693  -21.6746 C   0  0  0  0  0  0  0  0  0  0  0  0
    4.5163   -0.7784  -20.6936 C   0  0  0  0  0  0  0  0  0  0  0  0
    6.5320   -1.7506  -21.6643 C   0  0  0  0  0  0  0  0  0  0  0  0
    6.1698    6.8563  -17.5123 C   0  0  0  0  0  0  0  0  0  0  0  0
    4.9794    0.5120  -21.0256 C   0  0  0  0  0  0  0  0  0  0  0  0
    6.7946    7.8145  -19.6814 C   0  0  0  0  0  0  0  0  0  0  0  0
    6.9989   -0.4617  -21.9911 C   0  0  0  0  0  0  0  0  0  0  0  0
    5.2892   -1.9082  -21.0187 C   0  0  0  0  0  0  0  0  0  0  0  0
    7.0307    9.4175  -21.5722 C   0  0  0  0  0  0  0  0  0  0  0  0
    6.6508    1.1617  -18.0314 C   0  0  0  0  0  0  0  0  0  0  0  0
    5.2400    8.0381  -14.0428 C   0  0  0  0  0  0  0  0  0  0  0  0
    4.7576    8.6546  -15.3667 C   0  0  0  0  0  0  0  0  0  0  0  0
    6.1916    6.8557  -14.2873 C   0  0  0  0  0  0  0  0  0  0  0  0
    4.8738   10.6138  -21.8776 C   0  0  0  0  0  0  0  0  0  0  0  0
    4.2403    9.4943  -21.0159 C   0  0  0  0  0  0  0  0  0  0  0  0
    4.0772    7.5869  -16.2327 C   0  0  0  0  0  0  0  0  0  0  0  0
    5.5463    5.7970  -15.2122 C   0  0  0  0  0  0  0  0  0  0  0  0
    5.3153    8.5253  -22.9263 C   0  0  0  0  0  0  0  0  0  0  0  0
    5.9851    9.8434  -22.6261 C   0  0  2  0  0  0  0  0  0  0  0  0
    5.0440    8.2459  -21.4721 C   0  0  1  0  0  0  0  0  0  0  0  0
    5.0412    6.4099  -16.5536 C   0  0  0  0  0  0  0  0  0  0  0  0
    6.8913   -0.0436  -17.1270 C   0  0  0  0  0  0  0  0  0  0  0  0
    4.2069    1.7289  -20.5682 C   0  0  0  0  0  0  0  0  0  0  0  0
    4.9650    4.2423  -17.7395 C   0  0  0  0  0  0  0  0  0  0  0  0
    4.9827    2.4430  -19.4414 C   0  0  1  0  0  0  0  0  0  0  0  0
    4.1364    3.5513  -18.8125 C   0  0  2  0  0  0  0  0  0  0  0  0
    6.4120    8.3344  -20.9161 N   0  0  0  0  0  0  0  0  0  0  0  0
    5.3447    1.4634  -18.3980 N   0  0  0  0  0  0  0  0  0  0  0  0
    4.2159    5.4087  -17.2518 N   0  3  0  0  0  0  0  0  0  0  0  0
    7.9697   10.0964  -21.1717 O   0  0  0  0  0  0  0  0  0  0  0  0
    7.6083    1.7470  -18.5263 O   0  0  0  0  0  0  0  0  0  0  0  0
    3.7691    4.5074  -19.8090 O   0  0  0  0  0  0  0  0  0  0  0  0
    8.1979   -0.3097  -22.5971 F   0  0  0  0  0  0  0  0  0  0  0  0
    4.8405   -3.1440  -20.7042 F   0  0  0  0  0  0  0  0  0  0  0  0
    9.5627    6.7370  -18.0025 H   0  0  0  0  0  0  0  0  0  0  0  0
    7.8263    6.0424  -16.3753 H   0  0  0  0  0  0  0  0  0  0  0  0
    8.9137    7.8836  -20.1057 H   0  0  0  0  0  0  0  0  0  0  0  0
    4.7717    7.6295  -18.9595 H   0  0  0  0  0  0  0  0  0  0  0  0
    6.5788    1.6569  -21.9284 H   0  0  0  0  0  0  0  0  0  0  0  0
    3.5686   -0.8991  -20.1900 H   0  0  0  0  0  0  0  0  0  0  0  0
    7.1269   -2.6182  -21.9088 H   0  0  0  0  0  0  0  0  0  0  0  0
    5.7682    8.8080  -13.4612 H   0  0  0  0  0  0  0  0  0  0  0  0
    4.3675    7.6834  -13.4745 H   0  0  0  0  0  0  0  0  0  0  0  0
    4.0396    9.4598  -15.1520 H   0  0  0  0  0  0  0  0  0  0  0  0
    5.6200    9.0677  -15.9104 H   0  0  0  0  0  0  0  0  0  0  0  0
    7.1131    7.2288  -14.7581 H   0  0  0  0  0  0  0  0  0  0  0  0
    6.4363    6.3873  -13.3226 H   0  0  0  0  0  0  0  0  0  0  0  0
    4.1421   11.0429  -22.5780 H   0  0  0  0  0  0  0  0  0  0  0  0
    5.2935   11.4137  -21.2501 H   0  0  0  0  0  0  0  0  0  0  0  0
    4.3789    9.6890  -19.9422 H   0  0  0  0  0  0  0  0  0  0  0  0
    3.1679    9.3809  -21.2326 H   0  0  0  0  0  0  0  0  0  0  0  0
    3.2022    7.1947  -15.6938 H   0  0  0  0  0  0  0  0  0  0  0  0
    3.7504    8.0479  -17.1764 H   0  0  0  0  0  0  0  0  0  0  0  0
    6.2935    5.0217  -15.4371 H   0  0  0  0  0  0  0  0  0  0  0  0
    4.6929    5.3426  -14.6877 H   0  0  0  0  0  0  0  0  0  0  0  0
    4.4016    8.6262  -23.5304 H   0  0  0  0  0  0  0  0  0  0  0  0
    5.9858    7.7903  -23.3955 H   0  0  0  0  0  0  0  0  0  0  0  0
    6.4003   10.3692  -23.4985 H   0  0  0  0  0  0  0  0  0  0  0  0
    4.5269    7.2942  -21.2803 H   0  0  0  0  0  0  0  0  0  0  0  0
    7.9722   -0.2290  -17.0421 H   0  0  0  0  0  0  0  0  0  0  0  0
    6.4745    0.1579  -16.1292 H   0  0  0  0  0  0  0  0  0  0  0  0
    6.4003   -0.9287  -17.5577 H   0  0  0  0  0  0  0  0  0  0  0  0
    4.0750    2.4182  -21.4153 H   0  0  0  0  0  0  0  0  0  0  0  0
    3.2212    1.4166  -20.1928 H   0  0  0  0  0  0  0  0  0  0  0  0
    5.1505    3.5463  -16.9082 H   0  0  0  0  0  0  0  0  0  0  0  0
    5.9251    4.5693  -18.1652 H   0  0  0  0  0  0  0  0  0  0  0  0
    5.8953    2.8869  -19.8656 H   0  0  0  0  0  0  0  0  0  0  0  0
    3.2414    3.1072  -18.3522 H   0  0  0  0  0  0  0  0  0  0  0  0
    4.6034    0.9869  -17.9253 H   0  0  0  0  0  0  0  0  0  0  0  0
    3.5119    5.0866  -16.6189 H   0  0  0  0  0  0  0  0  0  0  0  0
    3.7817    5.8523  -18.0358 H   0  0  0  0  0  0  0  0  0  0  0  0
    3.2513    4.0812  -20.4818 H   0  0  0  0  0  0  0  0  0  0  0  0
  1  2  2  0  0  0  0
  1  3  1  0  0  0  0
  2  8  1  0  0  0  0
  3 10  2  0  0  0  0
  4  8  2  0  0  0  0
  4 10  1  0  0  0  0
  5  9  1  0  0  0  0
  5 11  2  0  0  0  0
  6  9  2  0  0  0  0
  6 12  1  0  0  0  0
  7 11  1  0  0  0  0
  7 12  2  0  0  0  0
  8 25  1  0  0  0  0
  9 27  1  0  0  0  0
 10 31  1  0  0  0  0
 11 37  1  0  0  0  0
 12 38  1  0  0  0  0
 13 23  1  0  0  0  0
 13 31  1  0  0  0  0
 13 34  2  0  0  0  0
 14 26  1  0  0  0  0
 14 32  1  0  0  0  0
 14 35  2  0  0  0  0
 15 16  1  0  0  0  0
 15 17  1  0  0  0  0
 16 20  1  0  0  0  0
 17 21  1  0  0  0  0
 18 19  1  0  0  0  0
 18 23  1  0  0  0  0
 19 24  1  0  0  0  0
 20 25  1  0  0  0  0
 21 25  1  0  0  0  0
 22 23  1  0  0  0  0
 22 24  1  0  0  0  0
 24 31  1  0  0  0  0
 25 33  1  0  0  0  0
 27 29  1  0  0  0  0
 28 30  1  0  0  0  0
 28 33  1  0  0  0  0
 29 30  1  0  0  0  0
 29 32  1  0  0  0  0
 30 36  1  0  0  0  0
  1 39  1  0  0  0  0
  2 40  1  0  0  0  0
  3 41  1  0  0  0  0
  4 42  1  0  0  0  0
  5 43  1  0  0  0  0
  6 44  1  0  0  0  0
  7 45  1  0  0  0  0
 15 46  1  0  0  0  0
 15 47  1  0  0  0  0
 16 48  1  0  0  0  0
 16 49  1  0  0  0  0
 17 50  1  0  0  0  0
 17 51  1  0  0  0  0
 18 52  1  0  0  0  0
 18 53  1  0  0  0  0
 19 54  1  0  0  0  0
 19 55  1  0  0  0  0
 20 56  1  0  0  0  0
 20 57  1  0  0  0  0
 21 58  1  0  0  0  0
 21 59  1  0  0  0  0
 22 60  1  0  0  0  0
 22 61  1  0  0  0  0
 23 62  1  0  0  0  0
 24 63  1  0  0  0  0
 26 64  1  0  0  0  0
 26 65  1  0  0  0  0
 26 66  1  0  0  0  0
 27 67  1  0  0  0  0
 27 68  1  0  0  0  0
 28 69  1  0  0  0  0
 28 70  1  0  0  0  0
 29 71  1  0  0  0  0
 30 72  1  0  0  0  0
 32 73  1  0  0  0  0
 33 74  1  0  0  0  0
 33 75  1  0  0  0  0
 36 76  1  0  0  0  0
M  CHG  1  33   1
M  END
> <OMEGA_C>
2FgIQYoI3kA1qZHB8jjxQHL30UA+OIrB8XkCQVBu8kCJNpvBqAi6QDJp7kCZ6JXBtyHHQAdUKz+p
Za3BiIWQQMFDR7+PjKXB9wXRQOoU4L9/UK3BLG/FQIZm20AjGYzBP1efQHUTAz9pNKjBUW3ZQAAQ
+kBsc53BBvffQGhf7L607a/BxUCpQD5A9L9QJqjBfvvgQOKtFkHhk6zBs9PUQF+zlD9PQJDB7q2n
QPWbAEFhr2DBiD6YQDl5CkET3nXBdyHGQMhh20D2mGTBy/WbQAjSKUFsBa/B67CHQMjoF0GRIKjB
yniCQMTH8kCX3IHBl3uxQBCBuUA0ZXPBkxaqQIdnCEH2aLfB1IW/QGN+HUEwArXB12ihQEnvA0Hf
xqvBiVGhQBYezUC9bYTBu4XcQMBvMr0rBInBjp6GQNZL3T/Gi6TBIOGeQA7Bh0B76o3BAHKfQNlZ
HEDxh5vBPV2EQBZJY0D8f5bB3y7NQMtZBUEYVKfBcQerQK9Ruz8yL5PB7uiGQBgUrUC/A4rBfgf/
QMqKIUGYX6nBgnfzQASe3z/zNZTBODlxQIg8kEDVeJ7BZioDQWaLnr7TxrTBmeWaQN02ScA7oqXB
xAAZQTOV10AJBZDBHXH6QPdawUCUAIPBgp4OQZ5G/ECQ2KDBr7GYQAwl9EANrZfBIIXSQNET1D9S
ba/BiGNkQHAoZr8ahaHB3Q/kQHuQJ8AzRa/Bw5S4QGbtDEH4YFfBWMKLQKXe9UCol1fBJESBQC1b
F0GzbnLBO9ezQHAVEUEIkX7Bl57jQElS50APIWzBkPbNQH9kzEB9KVXBZ4yEQOevMEHVn7TBb2Sp
QLOeNkEjAKrBGiCMQFQGG0GUiZ/Bb75KQFgYFkFN3KnBOvBMQA475kDKGXvB5QVwQDbEAEFVaYnB
mmTJQKKxoEBi/nbBDCyWQGn2qkDXAGvBu9mMQMoECkFKPrzB94u/QIhK+UABKrvB9s7MQBfoJUHz
/LvBV9yQQBNq6UAXPqrBoRz/QNyEar4xVojB2i7PQIi0IT6kCIHBOM/MQLG+bb8YdozBomaCQCfD
GkCNUqvBDChOQNpTtT/ViqHB2NCkQA72YkDtQ4fBuJq9QJU3kkA/UpHBj6a8QLHDOECx7J7BxnNP
QIvcRkBi0ZLB7U6TQGeofD8LZ4/BQsJgQK3FokCZ84TBkwdyQEBGu0BfSZDBhBVQQNCYgkDL2qPB
BHwIQSbS3EDb1pHBRNnxQL7y0EBTR4rBCYUCQV7D8kBWLJvB5sy6QLKW8UADSZXBSHWTQKhrTb/F
oKXBBifHQGLdPz/ubq3B/jPVQLEY07+8sK3B3EfGQEs43ECFzYvBjvufQHI/BD+4IKjB5J3ZQLaq
/EDABJ3BUvqtQDAn8b+KdKjBO8vhQGgOqr6eKrDBYtbiQFxlFEEvxq3BXhjUQBk8kj8GDZDB2kep
QD63/kChs1/BiGaZQBzTCUG2gnTBjl7HQNnT2EBARGTBMe2hQHzTKkHJ9rDBzwiLQDXCHEERhKjB
aUKDQGo88kDwU4HBzDiyQJnwt0BvaXPBvlemQKyPBkGckbbBoP3AQNGiGkFTN7bBTkGfQMGSBkGh
qKrBwhuiQID/zEBrQ4TBHejbQESLpb2XBInBtauFQFbr1z/mL6TBFI2fQPzZiEDrQo7BZ3qeQGEB
G0A0RpvBfKmDQICMYkB3TZbB2PXLQGr+BkFzu6bB9DmqQGZZuj/n1pLB5q2HQIHYrUCgJ4rBrHwD
QYbPG0Gf56zBgKPyQMRr2z9TLZTBvCJsQCSjjkBfX57BW/yhQM9wScB5DKbB6t4DQUTO1r3YB7XB
khcZQU4H1UDgdZDBASz7QPEbv0BZQYPBf4gOQbsM/EDq7qDBRaaZQHOp+UDrqJbBvxVrQAhve78+
jKHBU63QQHwO4T9HZa/BhaDpQCWtHsBPzq/Bbp26QKdgC0G7NFbBQIWNQO8d80DEkFbBjI2CQNug
FkGimHDBvc+0QMykEEHuMX3BdtLkQA/w5EDnw2vB9VjPQLzyyED/ElXBpBmLQNBHMUGS1bbBSGuz
QKwVOEFmLK3ByNiRQHxQIkFjV6DBzHJQQIh9HEGi0KnBoyBPQCUf5UDW/nnBopRwQKzjAEFmu4jB
hc/JQF0Rn0BiaXfBgNWWQPhAqUCBJWvBO6aIQFZXCEHJNbvBOxC4QOD28EBOcbnBhDvOQIPRH0Fv
8r3B0+iLQCw88kDcsafBh2/+QJgMlL5/oojB77bPQAiy6T1L6YDBrjDLQLUOc7/Jb4zB3yt/QJxC
GEDj2qrBmgtOQD0aqT9v/6DBxMGnQKGZZkDnnIfBmw+9QCrXk0CsMZLB1KW7QCb6NkBTvp7BJetP
QCd7RkDUKJLBPZOSQJSPfz+E4o7BjrVhQD8eo0AMO4XBV1N0QCjivED+WpDBBzxJQEwfgECdbaPB

> <OMEGA_E>
NN/GPliuxz4=

> <OMEGA_NBR>
     42565

$$$$
50214102
  -OEChem-04172616093D

 75 78  0     1  0  0  0  0  0999 V2000
    8.2920    7.9474  -18.2580 C   0  0  0  0  0  0  0  0  0  0  0  0
    7.4837    7.2116  -17.3781 C   0  0  0  0  0  0  0  0  0  0  0  0
    7.7131    8.6934  -19.2958 C   0  0  0  0  0  0  0  0  0  0  0  0
    5.4988    8.0185  -18.5363 C   0  0  0  0  0  0  0  0  0  0  0  0
    5.4516   -0.1337  -21.7010 C   0  0  0  0  0  0  0  0  0  0  0  0
    4.4059   -1.1318  -19.7309 C   0  0  0  0  0  0  0  0  0  0  0  0
    5.8028   -2.4979  -21.1942 C   0  0  0  0  0  0  0  0  0  0  0  0
    6.0713    7.2484  -17.4917 C   0  0  0  0  0  0  0  0  0  0  0  0
    4.6244   -0.0102  -20.5628 C   0  0  0  0  0  0  0  0  0  0  0  0
    6.3053    8.7451  -19.4517 C   0  0  0  0  0  0  0  0  0  0  0  0
    6.0322   -1.3785  -22.0213 C   0  0  0  0  0  0  0  0  0  0  0  0
    4.9932   -2.3734  -20.0465 C   0  0  0  0  0  0  0  0  0  0  0  0
    6.2457   10.6659  -21.0370 C   0  0  0  0  0  0  0  0  0  0  0  0
    6.6032    1.1492  -17.7372 C   0  0  0  0  0  0  0  0  0  0  0  0
    5.5393   11.3207  -22.2322 C   0  0  0  0  0  0  0  0  0  0  0  0
    5.1936   10.2176  -23.2494 C   0  0  0  0  0  0  0  0  0  0  0  0
    5.4176    7.3740  -13.6992 C   0  0  0  0  0  0  0  0  0  0  0  0
    4.7308    8.2295  -14.7804 C   0  0  0  0  0  0  0  0  0  0  0  0
    6.4824    6.4534  -14.3176 C   0  0  0  0  0  0  0  0  0  0  0  0
    4.3319    9.0894  -22.6211 C   0  0  0  0  0  0  0  0  0  0  0  0
    4.0935    7.3305  -15.8609 C   0  0  0  0  0  0  0  0  0  0  0  0
    5.8939    5.5832  -15.4620 C   0  0  0  0  0  0  0  0  0  0  0  0
    4.3881    9.0447  -21.0698 C   0  0  0  0  0  0  0  0  0  0  0  0
    5.1431    6.4128  -16.5677 C   0  0  0  0  0  0  0  0  0  0  0  0
    6.8009    0.3301  -16.4600 C   0  0  0  0  0  0  0  0  0  0  0  0
    4.0010    1.3318  -20.2130 C   0  0  0  0  0  0  0  0  0  0  0  0
    5.1782    4.4168  -18.1001 C   0  0  0  0  0  0  0  0  0  0  0  0
    4.9553    2.2098  -19.3581 C   0  0  1  0  0  0  0  0  0  0  0  0
    4.2657    3.5473  -18.9853 C   0  0  2  0  0  0  0  0  0  0  0  0
    5.7145    9.4602  -20.5295 N   0  0  0  0  0  0  0  0  0  0  0  0
    5.3059    1.4846  -18.1172 N   0  0  0  0  0  0  0  0  0  0  0  0
    4.3676    5.4723  -17.4358 N   0  3  0  0  0  0  0  0  0  0  0  0
    7.1608   11.2761  -20.4920 O   0  0  0  0  0  0  0  0  0  0  0  0
    7.5680    1.3942  -18.4544 O   0  0  0  0  0  0  0  0  0  0  0  0
    3.9424    4.2819  -20.1679 O   0  0  0  0  0  0  0  0  0  0  0  0
    6.8079   -1.4995  -23.1236 F   0  0  0  0  0  0  0  0  0  0  0  0
    4.7768   -3.4454  -19.2493 F   0  0  0  0  0  0  0  0  0  0  0  0
    9.3650    7.9395  -18.1358 H   0  0  0  0  0  0  0  0  0  0  0  0
    7.9425    6.6111  -16.6065 H   0  0  0  0  0  0  0  0  0  0  0  0
    8.3470    9.2339  -19.9832 H   0  0  0  0  0  0  0  0  0  0  0  0
    4.4242    8.0530  -18.6379 H   0  0  0  0  0  0  0  0  0  0  0  0
    5.6398    0.7261  -22.3268 H   0  0  0  0  0  0  0  0  0  0  0  0
    3.7870   -1.0371  -18.8508 H   0  0  0  0  0  0  0  0  0  0  0  0
    6.2476   -3.4508  -21.4402 H   0  0  0  0  0  0  0  0  0  0  0  0
    4.6180   11.8174  -21.8939 H   0  0  0  0  0  0  0  0  0  0  0  0
    6.2054   12.0617  -22.6983 H   0  0  0  0  0  0  0  0  0  0  0  0
    4.6349   10.6673  -24.0834 H   0  0  0  0  0  0  0  0  0  0  0  0
    6.1288    9.7796  -23.6284 H   0  0  0  0  0  0  0  0  0  0  0  0
    5.8988    8.0388  -12.9666 H   0  0  0  0  0  0  0  0  0  0  0  0
    4.6598    6.7580  -13.1930 H   0  0  0  0  0  0  0  0  0  0  0  0
    3.9470    8.8430  -14.3121 H   0  0  0  0  0  0  0  0  0  0  0  0
    5.4780    8.8857  -15.2507 H   0  0  0  0  0  0  0  0  0  0  0  0
    7.2968    7.0719  -14.7227 H   0  0  0  0  0  0  0  0  0  0  0  0
    6.8797    5.7912  -13.5343 H   0  0  0  0  0  0  0  0  0  0  0  0
    3.2859    9.2422  -22.9255 H   0  0  0  0  0  0  0  0  0  0  0  0
    4.6892    8.1240  -23.0086 H   0  0  0  0  0  0  0  0  0  0  0  0
    3.3309    6.6950  -15.3869 H   0  0  0  0  0  0  0  0  0  0  0  0
    3.6178    7.9713  -16.6180 H   0  0  0  0  0  0  0  0  0  0  0  0
    6.7189    5.0348  -15.9402 H   0  0  0  0  0  0  0  0  0  0  0  0
    5.1834    4.8673  -15.0232 H   0  0  0  0  0  0  0  0  0  0  0  0
    3.6179    9.7207  -20.6702 H   0  0  0  0  0  0  0  0  0  0  0  0
    4.1803    8.0161  -20.7398 H   0  0  0  0  0  0  0  0  0  0  0  0
    7.8617    0.0568  -16.3596 H   0  0  0  0  0  0  0  0  0  0  0  0
    6.4925    0.9280  -15.5897 H   0  0  0  0  0  0  0  0  0  0  0  0
    6.1904   -0.5834  -16.5123 H   0  0  0  0  0  0  0  0  0  0  0  0
    3.7642    1.8672  -21.1443 H   0  0  0  0  0  0  0  0  0  0  0  0
    3.0752    1.1564  -19.6453 H   0  0  0  0  0  0  0  0  0  0  0  0
    5.6559    3.7863  -17.3358 H   0  0  0  0  0  0  0  0  0  0  0  0
    5.9526    4.8876  -18.7235 H   0  0  0  0  0  0  0  0  0  0  0  0
    5.8643    2.4234  -19.9396 H   0  0  0  0  0  0  0  0  0  0  0  0
    3.3487    3.3190  -18.4224 H   0  0  0  0  0  0  0  0  0  0  0  0
    4.5591    1.2165  -17.5085 H   0  0  0  0  0  0  0  0  0  0  0  0
    3.6784    5.0225  -16.8678 H   0  0  0  0  0  0  0  0  0  0  0  0
    3.9144    6.0092  -18.1474 H   0  0  0  0  0  0  0  0  0  0  0  0
    3.3791    3.7562  -20.7237 H   0  0  0  0  0  0  0  0  0  0  0  0
  1  2  2  0  0  0  0
  1  3  1  0  0  0  0
  2  8  1  0  0  0  0
  3 10  2  0  0  0  0
  4  8  2  0  0  0  0
  4 10  1  0  0  0  0
  5  9  1  0  0  0  0
  5 11  2  0  0  0  0
  6  9  2  0  0  0  0
  6 12  1  0  0  0  0
  7 11  1  0  0  0  0
  7 12  2  0  0  0  0
  8 24  1  0  0  0  0
  9 26  1  0  0  0  0
 10 30  1  0  0  0  0
 11 36  1  0  0  0  0
 12 37  1  0  0  0  0
 13 15  1  0  0  0  0
 13 30  1  0  0  0  0
 13 33  2  0  0  0  0
 14 25  1  0  0  0  0
 14 31  1  0  0  0  0
 14 34  2  0  0  0  0
 15 16  1  0  0  0  0
 16 20  1  0  0  0  0
 17 18  1  0  0  0  0
 17 19  1  0  0  0  0
 18 21  1  0  0  0  0
 19 22  1  0  0  0  0
 20 23  1  0  0  0  0
 21 24  1  0  0  0  0
 22 24  1  0  0  0  0
 23 30  1  0  0  0  0
 24 32  1  0  0  0  0
 26 28  1  0  0  0  0
 27 29  1  0  0  0  0
 27 32  1  0  0  0  0
 28 29  1  0  0  0  0
 28 31  1  0  0  0  0
 29 35  1  0  0  0  0
  1 38  1  0  0  0  0
  2 39  1  0  0  0  0
  3 40  1  0  0  0  0
  4 41  1  0  0  0  0
  5 42  1  0  0  0  0
  6 43  1  0  0  0  0
  7 44  1  0  0  0  0
 15 45  1  0  0  0  0
 15 46  1  0  0  0  0
 16 47  1  0  0  0  0
 16 48  1  0  0  0  0
 17 49  1  0  0  0  0
 17 50  1  0  0  0  0
 18 51  1  0  0  0  0
 18 52  1  0  0  0  0
 19 53  1  0  0  0  0
 19 54  1  0  0  0  0
 20 55  1  0  0  0  0
 20 56  1  0  0  0  0
 21 57  1  0  0  0  0
 21 58  1  0  0  0  0
 22 59  1  0  0  0  0
 22 60  1  0  0  0  0
 23 61  1  0  0  0  0
 23 62  1  0  0  0  0
 25 63  1  0  0  0  0
 25 64  1  0  0  0  0
 25 65  1  0  0  0  0
 26 66  1  0  0  0  0
 26 67  1  0  0  0  0
 27 68  1  0  0  0  0
 27 69  1  0  0  0  0
 28 70  1  0  0  0  0
 29 71  1  0  0  0  0
 31 72  1  0  0  0  0
 32 73  1  0  0  0  0
 32 74  1  0  0  0  0
 35 75  1  0  0  0  0
M  CHG  1  32   1
M  END
> <OMEGA_C>
8asEQUdR/kBtEJLByXrvQEDF5kBaBovB9NH2QCAYC0HmXZrBZ/avQJ9LAEFoSpTBgnOuQMrzCL6Z
m63B/PyMQFvgkL/U2J3B0rC5QHzdH8DOjanB3EfCQLvy50AU74vBa/uTQGjAJ7yvgKTBasXJQPbr
C0ENnZvBoQfBQNVzsL+bK7DBNcifQAzlF8AvX6DB5NzHQIqnKkG1S6jBpU3TQIUakz+95Y3BCEKx
QJwhNUF227HBEzKmQCB7I0HH/rnBLF2tQB3460C7L1vBEWOXQBOsA0FhfGzBbG/PQEiCzkAMFWXB
pp6KQFFuEUH597TBkP2CQIOT6kAhxn3Blpq8QMepskCAZHfBLGuMQOW2EEELj6jBEpSkQEE1zUCP
ioTBVqHZQNAFqT4broPB+QeAQKh3qj9ItKHBbLOlQGtWjUASzZDBz5GeQJZsDUBY3ZrBnICIQCYG
Y0Dp4ZfB/Ny2QA5dF0FVPKTB48mpQNwIvj/675DBx8OLQLEcr0CZfIvB/yTlQNxqNEG376PBGy3y
QLV1sj+nopPBHVB8QBwFiUDVV6HBitrZQMzuv78I/bjBnduYQP+AXMCl/pnBFdcVQbEQ/kAdFpHB
oij+QDeO00AO2oTBR40FQQS+E0Gi3Z/BzJKNQPDYAEFvGpXB8Hi0QHbiOT9FnbLB2V5yQHi/hL+G
zpbBHezHQKLaXMCEhavBfcaTQBIUPUGiJq/Bu5LGQLL8QEEHlrXBGFGUQCetKkHcqsDBzx7EQB15
HEEGB73BmMK8QNaeAEEyd0/BEB2VQIRB2ECDFlPBD5x8QM98DUFD/mTBgkuvQMgrDkH1AnTBX3/p
QFdN4kA+kGvBNybcQClRuUCejFjBo0xSQC/gE0FmZ7fBMw6WQNP7AUGqEbjBYS1VQKg91kCmMHbB
GIpnQIEU/0Cc8YTB8wDXQCQdoUD5Cn/BQN6lQIvAm0D4XnDB74pnQPGHG0GNXKXBpcSFQA5CAEER
66XBG5P7QJKsaD1+4ILBvsLPQN6PbT9ob3nB5BfGQMNZFb8hGYTBTuhwQN4A7z9+J6nBq9BEQC4G
lD+pKZ3B6vy0QNFSckClr4rBwXu+QCtnnEC0yZXB9ae7QOAYG0BKhJ/BUVBWQDJqVED7YJPBRuSR
QMK2mz+CEYzBO2trQKe4oEAo8YbBVoZ6QEVLwEDdLZHB70JYQC1mcEATyqXB

> <OMEGA_E>
aGQvPw==

> <OMEGA_NBR>
     44105

$$$$
50167950
  -OEChem-04172616093D

 64 66  0     1  0  0  0  0  0999 V2000
    6.3154    0.6924  -21.7147 C   0  0  0  0  0  0  0  0  0  0  0  0
    4.6731   -0.9449  -20.9401 C   0  0  0  0  0  0  0  0  0  0  0  0
    7.1668    7.4050  -17.8359 C   0  0  0  0  0  0  0  0  0  0  0  0
    6.7762   -1.6850  -21.9263 C   0  0  0  0  0  0  0  0  0  0  0  0
    6.8654    8.5283  -19.9019 C   0  0  0  0  0  0  0  0  0  0  0  0
    5.0722    0.3888  -21.1224 C   0  0  0  0  0  0  0  0  0  0  0  0
    7.7440    8.2564  -18.8827 C   0  0  0  0  0  0  0  0  0  0  0  0
    7.1735   -0.3442  -22.1018 C   0  0  0  0  0  0  0  0  0  0  0  0
    5.5215   -1.9823  -21.3534 C   0  0  0  0  0  0  0  0  0  0  0  0
    5.8421    7.1225  -18.0507 C   0  0  0  0  0  0  0  0  0  0  0  0
    6.5755    1.3116  -17.8912 C   0  0  0  0  0  0  0  0  0  0  0  0
    4.9117    7.4844  -14.3129 C   0  0  0  0  0  0  0  0  0  0  0  0
    4.4147    8.3080  -15.5091 C   0  0  0  0  0  0  0  0  0  0  0  0
    6.0459    6.5467  -14.7358 C   0  0  0  0  0  0  0  0  0  0  0  0
    3.8421    7.3736  -16.5738 C   0  0  0  0  0  0  0  0  0  0  0  0
    5.6163    5.6364  -15.8947 C   0  0  0  0  0  0  0  0  0  0  0  0
    4.9066    6.3870  -17.0842 C   0  0  0  0  0  0  0  0  0  0  0  0
    6.8000    0.3162  -16.7551 C   0  0  0  0  0  0  0  0  0  0  0  0
   10.1184    7.5563  -18.8209 C   0  0  0  0  0  0  0  0  0  0  0  0
    4.1953    1.4923  -20.6419 C   0  0  0  0  0  0  0  0  0  0  0  0
    9.1603    8.7562  -18.8170 C   0  0  0  0  0  0  0  0  0  0  0  0
    4.9133    4.2414  -18.1890 C   0  0  0  0  0  0  0  0  0  0  0  0
    4.9638    2.2936  -19.5894 C   0  0  1  0  0  0  0  0  0  0  0  0
    4.1103    3.4604  -19.1688 C   0  0  2  0  0  0  0  0  0  0  0  0
    5.2984    1.4271  -18.4357 N   0  0  0  0  0  0  0  0  0  0  0  0
    4.1466    5.4209  -17.8524 N   0  3  0  0  0  0  0  0  0  0  0  0
    7.4847    2.0664  -18.2210 O   0  0  0  0  0  0  0  0  0  0  0  0
    3.8353    4.2945  -20.2964 O   0  0  0  0  0  0  0  0  0  0  0  0
    8.3734   -0.0489  -22.6481 F   0  0  0  0  0  0  0  0  0  0  0  0
    5.1312   -3.2645  -21.1923 F   0  0  0  0  0  0  0  0  0  0  0  0
    5.3213    7.7876  -19.5963 S   0  0  0  0  0  0  0  0  0  0  0  0
    6.6047    1.7214  -21.8694 H   0  0  0  0  0  0  0  0  0  0  0  0
    3.7199   -1.1702  -20.4851 H   0  0  0  0  0  0  0  0  0  0  0  0
    7.7257    7.0398  -16.9869 H   0  0  0  0  0  0  0  0  0  0  0  0
    7.4332   -2.4863  -22.2309 H   0  0  0  0  0  0  0  0  0  0  0  0
    7.1006    9.1207  -20.7738 H   0  0  0  0  0  0  0  0  0  0  0  0
    5.2793    8.1668  -13.5324 H   0  0  0  0  0  0  0  0  0  0  0  0
    4.0785    6.8868  -13.9148 H   0  0  0  0  0  0  0  0  0  0  0  0
    3.6318    9.0043  -15.1740 H   0  0  0  0  0  0  0  0  0  0  0  0
    5.2539    8.8775  -15.9352 H   0  0  0  0  0  0  0  0  0  0  0  0
    6.9087    7.1497  -15.0551 H   0  0  0  0  0  0  0  0  0  0  0  0
    6.3328    5.9219  -13.8771 H   0  0  0  0  0  0  0  0  0  0  0  0
    3.0061    6.8056  -16.1397 H   0  0  0  0  0  0  0  0  0  0  0  0
    3.4767    7.9752  -17.4192 H   0  0  0  0  0  0  0  0  0  0  0  0
    6.5128    5.1362  -16.2897 H   0  0  0  0  0  0  0  0  0  0  0  0
    4.9197    4.8823  -15.4995 H   0  0  0  0  0  0  0  0  0  0  0  0
    7.8229    0.4276  -16.3661 H   0  0  0  0  0  0  0  0  0  0  0  0
    6.0779    0.5114  -15.9487 H   0  0  0  0  0  0  0  0  0  0  0  0
    6.6608   -0.7078  -17.1321 H   0  0  0  0  0  0  0  0  0  0  0  0
   11.1569    7.9156  -18.7729 H   0  0  0  0  0  0  0  0  0  0  0  0
    9.9105    6.9185  -17.9491 H   0  0  0  0  0  0  0  0  0  0  0  0
    9.9738    6.9749  -19.7434 H   0  0  0  0  0  0  0  0  0  0  0  0
    3.9259    2.1467  -21.4840 H   0  0  0  0  0  0  0  0  0  0  0  0
    3.2811    1.0734  -20.1959 H   0  0  0  0  0  0  0  0  0  0  0  0
    9.3662    9.3945  -19.6888 H   0  0  0  0  0  0  0  0  0  0  0  0
    9.3029    9.3382  -17.8945 H   0  0  0  0  0  0  0  0  0  0  0  0
    5.0956    3.6399  -17.2863 H   0  0  0  0  0  0  0  0  0  0  0  0
    5.8753    4.5321  -18.6363 H   0  0  0  0  0  0  0  0  0  0  0  0
    5.8919    2.6726  -20.0423 H   0  0  0  0  0  0  0  0  0  0  0  0
    3.1811    3.1010  -18.7026 H   0  0  0  0  0  0  0  0  0  0  0  0
    4.5620    0.8918  -18.0220 H   0  0  0  0  0  0  0  0  0  0  0  0
    3.3504    5.1415  -17.3156 H   0  0  0  0  0  0  0  0  0  0  0  0
    3.8414    5.8557  -18.6996 H   0  0  0  0  0  0  0  0  0  0  0  0
    3.3224    3.8093  -20.9321 H   0  0  0  0  0  0  0  0  0  0  0  0
  1  6  1  0  0  0  0
  1  8  2  0  0  0  0
  2  6  2  0  0  0  0
  2  9  1  0  0  0  0
  3  7  1  0  0  0  0
  3 10  2  0  0  0  0
  4  8  1  0  0  0  0
  4  9  2  0  0  0  0
  5  7  2  0  0  0  0
  5 31  1  0  0  0  0
  6 20  1  0  0  0  0
  7 21  1  0  0  0  0
  8 29  1  0  0  0  0
  9 30  1  0  0  0  0
 10 17  1  0  0  0  0
 10 31  1  0  0  0  0
 11 18  1  0  0  0  0
 11 25  1  0  0  0  0
 11 27  2  0  0  0  0
 12 13  1  0  0  0  0
 12 14  1  0  0  0  0
 13 15  1  0  0  0  0
 14 16  1  0  0  0  0
 15 17  1  0  0  0  0
 16 17  1  0  0  0  0
 17 26  1  0  0  0  0
 19 21  1  0  0  0  0
 20 23  1  0  0  0  0
 22 24  1  0  0  0  0
 22 26  1  0  0  0  0
 23 24  1  0  0  0  0
 23 25  1  0  0  0  0
 24 28  1  0  0  0  0
  1 32  1  0  0  0  0
  2 33  1  0  0  0  0
  3 34  1  0  0  0  0
  4 35  1  0  0  0  0
  5 36  1  0  0  0  0
 12 37  1  0  0  0  0
 12 38  1  0  0  0  0
 13 39  1  0  0  0  0
 13 40  1  0  0  0  0
 14 41  1  0  0  0  0
 14 42  1  0  0  0  0
 15 43  1  0  0  0  0
 15 44  1  0  0  0  0
 16 45  1  0  0  0  0
 16 46  1  0  0  0  0
 18 47  1  0  0  0  0
 18 48  1  0  0  0  0
 18 49  1  0  0  0  0
 19 50  1  0  0  0  0
 19 51  1  0  0  0  0
 19 52  1  0  0  0  0
 20 53  1  0  0  0  0
 20 54  1  0  0  0  0
 21 55  1  0  0  0  0
 21 56  1  0  0  0  0
 22 57  1  0  0  0  0
 22 58  1  0  0  0  0
 23 59  1  0  0  0  0
 24 60  1  0  0  0  0
 25 61  1  0  0  0  0
 26 62  1  0  0  0  0
 26 63  1  0  0  0  0
 28 64  1  0  0  0  0
M  CHG  1  26   1
M  END
> <OMEGA_C>
YhfKQC5CMT/At63BMYqVQCTkcb9chafBqFblQKb17EDer47BiNbYQHev178maa/BirHbQPpzCEEi
N5/BdE+iQIAOxz6T+qjBwM73QGUaBEGwD5fBZI3lQOQ/sL6M0LDBy6+wQKm6/b/L06rBRPK6QB3r
40DmZ5DBUmrSQAzipz85IY/BviydQFaA70CtAWXBe0WNQMXtBEFNJXjB7nfBQKZ+0UDJxWvBUuR1
QMb060A3l4TBU7izQHZdtECDUH7B7AKdQE1izEBerIjB7pnZQDTjoT54CobBw+QhQU7N8UAikZbB
2z+GQMgCvz+JIqXBiZASQU0ZDEEqiZbBtjmdQJm5h0ARg5HBpNeeQOzKEkAdt5zBvIeDQFJ3XUDJ
WZnB04ypQHSrtj9LfJPBkbCEQMN3rUCv0Y7BsILvQD5ABECjxJHB2nR1QC9siUAIX6LBWPkFQYAs
SL1cL7XBkzKkQHXtUMDaianBY0iqQAw0+UAsxZzB+VnTQMJV3D9+9K7BiBNuQG7Jlb9j4aPB3Tj3
QF9G4UAw5YfBq9ztQGgfH8De2LHB9TfjQGnuEUG+MKbBHfCoQBGrAkGChFjBxYKCQGpg3EDlol7B
nW9oQHUREEGGyHLB8h+oQD8KDkFq9n7BOhTdQDrK5ECZ4XDBdKbKQDiAvUC9CF7BM2RAQErH2UAD
HoHBSoJeQJg0/0CMWovB2mjQQCBcpEA/UYLBeW6dQGg7nEAi/nfBMlX6QDvz2j7B7YLB9H3CQDzr
Aj+0LX/BQSXVQGsxNb94DonByIIyQTlM/UDzLpbBfJEeQUBk3UC+l4/B2pQfQR4y30Bz8p3BA0J7
QGxjCUAx36vBqf1RQM1miT9IkaHBFtwVQQ5QFkGogp3BuNgUQSBpFUHzJ4/B3w6jQK3zaEBCSorB
PQK8QI8GkUA+F5XBPIq8QIAMK0CQVqDBQ5dLQJJ3RkDTnpXB8vuRQNZPZD8ELZDBGm1WQGmHpEBg
horBOtp1QCBiu0DSmJXB7aFUQPPLc0DvdKfBAZmVQHg+Xr+g4KjBe4TPQDr4Mj+w2azB1r/nQEwG
40AeMY/BrznaQEor2L9laK/BMCHjQDDLBEHueZ/BVWulQAyP4z7PTanBDBP+QGK6+kAOoZfBpdCv
QKJx978DEKzB9h7qQDB9vb72va/BfDy8QJAR4kC8n5DBpTTTQGjCrD8SQ4/BOJWcQP5S9kBSy2bB
twyOQH9zB0HJzHrB3Vq/QCCu1UDoeWzBNqN1QBLG70Anh4XB7sSvQJDOtkCt2H3Bq8CbQEbQzUDg
8IjB68vaQCC9nz6MgIbBGusbQSIDEEE1wo3B+HWJQG4GyT9vzKXBjMUWQaAzAUGYO5fBLTubQCTC
h0C8IpHBpPSfQET7FUAj3JzBHbCCQGXoXEBLLpnBGr2qQJr3tz/94ZPBFC6DQHxwrkDP4o7BwZzv
QFumCUAWdZHB72lwQMyMiUDeA6LBVPqfQDsaTMBM/6vBW1sJQahAAr7O7bLBG12uQDym+0BQsZzB
LtRqQNIxh7+GHKbBhTDbQB9f2z+TVa3Bx9r3QGPn00AkjIjBF4vuQEDcIMBSt7HBI0rtQJa7DUGj
a6bBpmepQCqRBkGeBVvBRfmAQExx5UCz3l/BPJ5rQNlfE0E4QHbBGrqpQKmaD0F3/4DBQc/bQETG
5kD4VHLBRL/HQGdLw0D6EF7BQiE+QGCy30AM54HBxdpgQB7kAEH4oIzBkybLQAmBo0C2n4HBrFiX
QJqzoUCG03bB2xr7QFNm4j4JK4PBPu/CQH9S4z6aHoDB/M7XQBSvMr9q6InBCUUtQUDiEkGvbI3B
mIMTQc5VH0G2zI7BSqYWQUxrCEEBRYbBRWiDQFaDD0CVmazBjcZVQBMLlj8Z0qLBHScfQVG640AY
M5bBagQcQavHCEHMup7Bii6fQM31aUAhwonBMuS6QIgVkECrXpTBp4K9QE48MkCuFKDB/mxLQEbC
QUBkg5XBI46TQIBHWj8J9pDB2ZZSQI2gpkB2m4rB7iR0QJh/u0BT05XB+RxRQDJZc0CnLqfBiLWR
QCkwVr9IPqrBWtDRQLtBDT+7qqvBaujlQP786kAI2JDBNhrWQCpW678zGK/BvovRQCPzB0G9mqDB
nKSlQLjo1T47g6nBqt/yQPx4A0EvwpnBXtKpQEAF+7/dKK3BEB7qQO2QFL+TR67BeKG6QMa74kAp
2JDBzmrPQLBKsj+afY7BxjyqQPQj7ECYnmTBSvGUQLdrA0FwR3bBwmfNQJSfz0BwBG7ByWl/QMc9
6UDwRoPB3nm7QAlSskArg3/BBl2gQK6YykCub4jBDFzVQHy+nD6XDIbBYOERQQhDHUF9laPBUmOL
QBIizj9rg6bBMP8PQTAXDEHJxprBKoGdQPbihkBjgpHBHP+gQMZ3FkAbTp3B2neEQNgrX0AmypnB
uEWpQFKptj9+QpTBFL+FQJsBrEBdJI7BOJztQJTnB0BRxZDBx0p4QNPei0BQhaLBAjuWQJ8ISsBt
M67Bl0gKQUIR6b7kErDBvIKiQHBw+EBtSJzB5+dfQEJmb78KkajBs9DgQHkHwz9STavBMuH7QCph
3kB794rBwbDoQLlxLcAANLHB6mjUQPKMEUGcwKfBqGe4QL/gAEGyq1jBwO+RQMXj10Av5lzBlDV5
QPDuDUFTIG/BJlOtQKs1DUFbXH7BvpHmQNv840Dt7XTByB3bQEvUu0DyLWHBlNlNQKdD1kAMa37B
17BhQAzI/EBslYnBLnLWQJxookCGxoPBSvKmQBAcmkAC6HfB71v2QD6lrD4o/4LBpd6+QHrP8z7W
1X7BdR/PQEq4Lb/EpYnB8n4iQZIAI0ERA6TBk0YNQXNMFkG/VKvBMjUHQYy8KkGhsaHBKZKIQOYM
EkBtcq3BWaJWQJUipD+XAqTBU8AUQfk0E0FHFpPBtdEaQcGJ/UBluZzB2wyjQEGMY0AVm4rBgG28
QDzukECX4ZTBUoy/QFXnMEBqKqDBkDNNQLj4RUAdXJbBBhKSQOonSj9CLJLBJwJcQKWaokAhUonB
4upyQEdQukDhmpTBdFBYQEB7ekC22afB3LZuQHbUOb/fM6/BFHy1QN6zI78yb6PBeo7nQOCv5UCI
B4zBbXaxQKLLFcD0T7HBm5LgQJkdCEG9n5vB9ZeNQFjm0L3utabBQdv8QMkIAEEzP5TB1FKJQDAy
679fgrTBuXTHQLyx3r8/wKjBOa67QAca5ED2UI3BulLWQDKZ3j/lUo/BSdubQHwZ6UBja1/B3WuK
QD23AkG7m3HBQ/++QPrUykA2smfBAi5xQB6c6UDi+IHBLDuvQJmJr0Ce13rBEeSaQGC7ykDGrIbB
KgzlQN3bkz9bpoTBUEccQaPBFkGkGo3B6qdxQJYKiz94AKHBIUsWQds3BEEKopTBNGWeQPkojECX
CJPBDXWZQGZAB0AhYpzB5wuDQHQXXkAqO5rBG52rQP44yj8TU5LBF5GDQH0MrkBLOY7BfQbvQFGT
G0C2lZTBMMR3QKeqhEDbJaTBTB9oQFADG8AfsbzBffPtQKnLDcClk6XB71msQLyTAEE+sJjB9Oww
QHwSs77Uo7HB/T3GQKvUSL4Ww5zBLXT4QL1f1UD1sIXBbk+/QAXkS8ClbbXBap/pQA7lEUHiYKLB
BE+pQDCu/UAi01LBtH+BQBLz1UCmwVjBG1lhQHXvDEH9UGvBAnCkQHrRDEHxz3fBuaXaQFUG3kDv
2GzBfbnIQPxOtUCJpVrBOHQ7QCuA1kBMxn3BqTtaQGvD/kD9ZIjBRKrKQE2/nUAVroDBkgaXQOzU
mEA6+nTBvCEDQToXuz/tE4PB9zvQQDhIwz8wZ3zBtD3jQHQCaz0M+4TBnaItQY2SGUHWe43BBcAT
QYNUJUHnlY/BWbkXQSyfEkHr24TB3CpIQNH4zT8ZwKbBlaRKQGw8Mz8bXJrB/+IeQcRi60DoIpLB
q+kaQblmCEHk3JzBx+GsQHe4cUCFoIzBxs+3QBcEm0CQ25fB6yazQO8WEUBbRaLBC8hIQPefUUBj
MpbBVDOYQGHciT8OZo3B+j1XQDgKoECXPIrBeytvQBr8v0AZIpTB2gZWQMA/ZkC4s6jBAUuSQGEn
eb58tbPBIfLHQJ8For6YjqXBCrnpQN095kABao3BqVnSQApxz79yy7XBoHDoQPmRA0G0fZ7Bm9Gg
QMT1Rj7wlKnBfxABQce++kBmIZbBTgerQCmckr+mzLnB3rvgQPUnmr8XqavBtDi+QNEg5UB0YY/B
nA/UQJNU1T+tKI3BFnOXQMTi/UDJ3mXBXo+JQMxVCkGSl3rBFzW6QCw63ECdemrBZ5xxQJj580Ad
iYXBoKqrQD26u0BCvnvB6MqaQA1P0UAkYYjBWajfQB68ST/rk4PBkuYeQWcLFUFLvo/BJc+EQPO3
kj8VC6PBhBcZQXWnAEEtAZbBWUaeQISLi0ATKJLBFwWfQDWaCUDnFZzBuPqDQJNOWUDAIJnB6bas
QA+Tuz97KpLBrNqDQE/JsEAL+Y7BbrbuQKV0HECyzJDBSYZuQDnTgkAhnKLBCwadQCRHx78Vf8PB
9SwDQR051L90t6fB/QCzQJN7+0DT8JvByTtoQDoD6z3Uy7bB987SQGo1nbwLtZ3B8k/4QLR42UAK
Q4bB3GnlQCFpE8A7f7rBUfPzQAgYC0Gat6XBmzGkQJbdCkG+mVrBywN3QOX37UCBtl7BMwpgQKPb
FUHE3HbBbCilQH/fEkEytIDBAz3XQFaf7ECdH3DBDWHBQFrQykAUnFvBq9I4QI8D5EAYM4LBZcRf
QDCRAkFo44zBehLHQD47p0DX3H/Bn9yRQGrzp0BA/3TBh2cAQXeZfj+jH4HBF+HJQN8VgT89yXnB
hp7cQPDuir5x0oXBnl8wQQgoF0E0vY/BTVAXQRj5IkG/jpPBeCkZQTmVE0HYdIfBrS9hQOxB3D8u
l6jB3MpgQBAhDD+/tZ3Bq78gQV+P5UD6LJLBgOYeQY8rAkHhRp7BHDipQKFQdUC874rBSiq6QM/O
lkBEupbBckK7QBpiHkDYpqDByWdPQKxUREARl5TBPmWYQE6nUD+c1I7BANBVQKMEpkBgv4rBQady
QMsfv0B9n5XBQOhNQHJqYEDZBafB

> <OMEGA_E>
SD8MPyRABT9ewRA/YD1mP8BERT8=

> <OMEGA_NBR>
      5433

$$$$
50167971
  -OEChem-04172616093D

 60 62  0     1  0  0  0  0  0999 V2000
    6.5994   10.0934  -21.8483 C   0  0  0  0  0  0  0  0  0  0  0  0
    6.6421    9.3251  -20.9093 C   0  0  0  0  0  0  0  0  0  0  0  0
    5.5517    7.7832  -19.1581 C   0  0  0  0  0  0  0  0  0  0  0  0
    4.7265   -0.9296  -21.1198 C   0  0  0  0  0  0  0  0  0  0  0  0
    6.4711    0.7164  -21.5897 C   0  0  0  0  0  0  0  0  0  0  0  0
    6.9220   -1.6536  -21.8959 C   0  0  0  0  0  0  0  0  0  0  0  0
    7.8918    8.1618  -19.1412 C   0  0  0  0  0  0  0  0  0  0  0  0
    6.7145    8.4416  -19.7873 C   0  0  0  0  0  0  0  0  0  0  0  0
    5.1624    0.4051  -21.1561 C   0  0  0  0  0  0  0  0  0  0  0  0
    5.6029   -1.9574  -21.4994 C   0  0  0  0  0  0  0  0  0  0  0  0
    7.3576   -0.3144  -21.9318 C   0  0  0  0  0  0  0  0  0  0  0  0
    5.8830    7.0931  -18.0084 C   0  0  0  0  0  0  0  0  0  0  0  0
    6.7022    1.4665  -18.0103 C   0  0  0  0  0  0  0  0  0  0  0  0
    4.8589    7.5052  -14.3259 C   0  0  0  0  0  0  0  0  0  0  0  0
    4.3245    8.3161  -15.5162 C   0  0  0  0  0  0  0  0  0  0  0  0
    5.9990    6.5805  -14.7666 C   0  0  0  0  0  0  0  0  0  0  0  0
    3.7834    7.3779  -16.5919 C   0  0  0  0  0  0  0  0  0  0  0  0
    5.5331    5.6398  -15.8826 C   0  0  0  0  0  0  0  0  0  0  0  0
    4.8626    6.3910  -17.0857 C   0  0  0  0  0  0  0  0  0  0  0  0
    7.0593    0.4684  -16.9120 C   0  0  0  0  0  0  0  0  0  0  0  0
    4.2393    1.4913  -20.6942 C   0  0  0  0  0  0  0  0  0  0  0  0
    4.8318    4.2339  -18.1864 C   0  0  0  0  0  0  0  0  0  0  0  0
    4.9491    2.3311  -19.6289 C   0  0  1  0  0  0  0  0  0  0  0  0
    4.0139    3.4039  -19.1243 C   0  0  2  0  0  0  0  0  0  0  0  0
    5.4039    1.4674  -18.5150 N   0  0  0  0  0  0  0  0  0  0  0  0
    4.0911    5.4321  -17.8649 N   0  3  0  0  0  0  0  0  0  0  0  0
    7.5204    2.3190  -18.3406 O   0  0  0  0  0  0  0  0  0  0  0  0
    3.5702    4.2194  -20.2109 O   0  0  0  0  0  0  0  0  0  0  0  0
    5.1780   -3.2385  -21.4715 F   0  0  0  0  0  0  0  0  0  0  0  0
    8.6286   -0.0167  -22.2827 F   0  0  0  0  0  0  0  0  0  0  0  0
    7.6192    7.1543  -17.7509 S   0  0  0  0  0  0  0  0  0  0  0  0
    6.5621   10.7643  -22.6681 H   0  0  0  0  0  0  0  0  0  0  0  0
    4.5486    7.8357  -19.5550 H   0  0  0  0  0  0  0  0  0  0  0  0
    3.7214   -1.1637  -20.8012 H   0  0  0  0  0  0  0  0  0  0  0  0
    6.7877    1.7468  -21.6574 H   0  0  0  0  0  0  0  0  0  0  0  0
    7.5987   -2.4486  -22.1723 H   0  0  0  0  0  0  0  0  0  0  0  0
    8.8609    8.5205  -19.4551 H   0  0  0  0  0  0  0  0  0  0  0  0
    5.2324    8.1971  -13.5566 H   0  0  0  0  0  0  0  0  0  0  0  0
    4.0428    6.8978  -13.9077 H   0  0  0  0  0  0  0  0  0  0  0  0
    3.5166    8.9782  -15.1715 H   0  0  0  0  0  0  0  0  0  0  0  0
    5.1398    8.9217  -15.9387 H   0  0  0  0  0  0  0  0  0  0  0  0
    6.8368    7.1907  -15.1350 H   0  0  0  0  0  0  0  0  0  0  0  0
    6.3319    5.9823  -13.9056 H   0  0  0  0  0  0  0  0  0  0  0  0
    2.9414    6.8058  -16.1750 H   0  0  0  0  0  0  0  0  0  0  0  0
    3.4326    7.9781  -17.4444 H   0  0  0  0  0  0  0  0  0  0  0  0
    6.4054    5.0855  -16.2591 H   0  0  0  0  0  0  0  0  0  0  0  0
    4.8032    4.9328  -15.4616 H   0  0  0  0  0  0  0  0  0  0  0  0
    8.0766    0.6727  -16.5468 H   0  0  0  0  0  0  0  0  0  0  0  0
    6.3450    0.5664  -16.0812 H   0  0  0  0  0  0  0  0  0  0  0  0
    7.0134   -0.5536  -17.3163 H   0  0  0  0  0  0  0  0  0  0  0  0
    3.9671    2.1309  -21.5467 H   0  0  0  0  0  0  0  0  0  0  0  0
    3.3299    1.0446  -20.2658 H   0  0  0  0  0  0  0  0  0  0  0  0
    5.0327    3.6646  -17.2668 H   0  0  0  0  0  0  0  0  0  0  0  0
    5.7843    4.5045  -18.6655 H   0  0  0  0  0  0  0  0  0  0  0  0
    5.8233    2.8132  -20.0908 H   0  0  0  0  0  0  0  0  0  0  0  0
    3.1657    2.9483  -18.5924 H   0  0  0  0  0  0  0  0  0  0  0  0
    4.7383    0.8471  -18.0999 H   0  0  0  0  0  0  0  0  0  0  0  0
    3.2809    5.1735  -17.3388 H   0  0  0  0  0  0  0  0  0  0  0  0
    3.8086    5.8699  -18.7184 H   0  0  0  0  0  0  0  0  0  0  0  0
    3.0502    3.6954  -20.8089 H   0  0  0  0  0  0  0  0  0  0  0  0
  1  2  3  0  0  0  0
  2  8  1  0  0  0  0
  3  8  1  0  0  0  0
  3 12  2  0  0  0  0
  4  9  1  0  0  0  0
  4 10  2  0  0  0  0
  5  9  2  0  0  0  0
  5 11  1  0  0  0  0
  6 10  1  0  0  0  0
  6 11  2  0  0  0  0
  7  8  2  0  0  0  0
  7 31  1  0  0  0  0
  9 21  1  0  0  0  0
 10 29  1  0  0  0  0
 11 30  1  0  0  0  0
 12 19  1  0  0  0  0
 12 31  1  0  0  0  0
 13 20  1  0  0  0  0
 13 25  1  0  0  0  0
 13 27  2  0  0  0  0
 14 15  1  0  0  0  0
 14 16  1  0  0  0  0
 15 17  1  0  0  0  0
 16 18  1  0  0  0  0
 17 19  1  0  0  0  0
 18 19  1  0  0  0  0
 19 26  1  0  0  0  0
 21 23  1  0  0  0  0
 22 24  1  0  0  0  0
 22 26  1  0  0  0  0
 23 24  1  0  0  0  0
 23 25  1  0  0  0  0
 24 28  1  0  0  0  0
  1 32  1  0  0  0  0
  3 33  1  0  0  0  0
  4 34  1  0  0  0  0
  5 35  1  0  0  0  0
  6 36  1  0  0  0  0
  7 37  1  0  0  0  0
 14 38  1  0  0  0  0
 14 39  1  0  0  0  0
 15 40  1  0  0  0  0
 15 41  1  0  0  0  0
 16 42  1  0  0  0  0
 16 43  1  0  0  0  0
 17 44  1  0  0  0  0
 17 45  1  0  0  0  0
 18 46  1  0  0  0  0
 18 47  1  0  0  0  0
 20 48  1  0  0  0  0
 20 49  1  0  0  0  0
 20 50  1  0  0  0  0
 21 51  1  0  0  0  0
 21 52  1  0  0  0  0
 22 53  1  0  0  0  0
 22 54  1  0  0  0  0
 23 55  1  0  0  0  0
 24 56  1  0  0  0  0
 25 57  1  0  0  0  0
 26 58  1  0  0  0  0
 26 59  1  0  0  0  0
 28 60  1  0  0  0  0
M  CHG  1  26   1
M  END
> <OMEGA_C>
9S3TQLp+IUFGya7B54vUQMgzFUE/RqfBQaexQJ8P+UDQQ5nBbj+XQFr7bb9e9ajBJxPPQKxnNz+s
t6zBq4DdQHKp07/JKq/BfYn8QPCWAkEvIZnBz9zWQPgQB0F4TJ7BTTKlQERuzz6jP6nBUEuzQJiM
+r/S/qvBrXHrQIj4oL5CdK/BX0G8QK/64kAcEZDBI3jWQOi0uz8OFZDBHHybQOEq8EAGN2XBXmKK
QLIOBUFdQnjBr/e/QMKT0kDRQ2zBCiNyQO8X7EA/vITBYw+xQIV5tED4Hn7BkJqbQAmDzECRr4jB
veXhQOTO7z68S4fBUKiHQGjhvj+7jaXBTZ6aQFF8h0CufZHBU1+eQHgwFUALCJ3BFXKAQOzYWUCK
/pjB3OysQJzTuz+pHpTBWOqCQMzTrUA/647BvabwQNJqFECNuZLB6n1kQCsFh0Dfr6HBMbKlQJZD
T8COxavBog4KQQDBiLzhQrLBsdDzQC7w5EDMAY7BZ/zRQHs6LEFdWLXBKI6RQL+9+kCbcJzBKCxu
QGjzlL/qaKbBqjTZQMeV3z9YQq3B4CjzQGm1HMDaYLHBccYNQdZTCEH9o5vBa2+nQFknA0Ho51jB
d16BQF+63ED4hV7BkA9hQMemD0FnvnLBFXmkQGC/DkETBX/BT8faQCka5kDSKHLBhp7KQNduv0A8
fV7BGUA8QHPJ2UBzZoHB/q5bQEFM/0ApjovBSPnMQHG8okC1EoLBmrOZQFDZnUCSYnfBqDkBQXU2
LD/DX4TBQwrLQGIAET9SpoDBum3gQDC3Db/eh4rBfOR9QPlfCEC0X6zBLx1VQAy2hT9eIKLBDwyh
QCyJakB8IorBwhi5QDElkEAIU5XBmVi6QOoLNEACuqDBD5pKQGqxPEA0vZTBkKCXQDrdWD+UzJDB
jPpRQH2NpUDltYrBPMBzQFzWu0BHv5XBmTZDQP2BbECTeKbBSKrTQHAxIkGE0q7BemzVQJT1FUHi
SqfBB3myQMkG+kDFiJnBK/bJQPL0WT9cSK7BhuKcQNokcr85TKfBQCThQEUPu7+Szq/BORv9QN6K
A0Fw85jB+8XXQPbUB0GbUZ7B91CkQJyC1z6DFKnBQK/oQJCls70JerHBjwK7QEKt8b+h0arBCny8
QP/040BUTZDBtJfVQDTWtT/6v4/B1NmWQEM080DCnWbBMSOHQPgSBkGzRnrBkFO8QEfT1UBmjmzB
ECxvQFEW7UAZtIXByWGvQLWztkDCVn7BFzKbQMqizUCmGonBTc7gQEi54z5Hy4bBMnaFQAAbtz/T
2KTBJVScQOtsiEB52pHBLUKdQMcxEkBLm5zB7oGAQOirWEBJnpjB79qrQAq8tz/1oZPBPr2DQGs0
rkBzUo/BtRXwQIgnEECLnJLB4rtgQIXJhEBCZ6HBh6kGQXgLqj47I7bBHUazQBMMTcAwYKnBo83z
QBNg5kDg7I3BKiHSQDrgLEHBZbXBg6qSQBBP+0AA5pzBKBPPQFqH8z9nzK/BySyAQIp9or97PqPB
X5X4QJMRDMBhWbLBrhYOQXCHCUG0Q5vB1mihQHr+BEFrSFrBgNV4QDyt30DnT2DB105ZQB6qEEHo
jnXB5pWhQIK7D0HvXIDBElXXQAl66UAgHXLBthPGQBV7w0A0WV7BbsY4QLu52kAuhYLBY2BaQAVx
/0CLv4zBcwfMQGsqpUA9zYHBjtaXQG/9n0BL13fBjsUAQWV3JD89+YPBiTTKQJT0Ej+UIIDBb77e
QP0BFr/g0onBc4NzQNM2BEBhaKvBGnpUQGspbD9/BqHBLVelQEEzb0CddYrB1mO5QIlVkUCSSpbB
ZEa5QKkcL0AuhaDBSqpMQGizPUDNy5PBaGqWQGDIVT+UI5DB2OZTQANLpUBnJIvBbvV0QM/gu0Cs
LJbBaVU9QLtYZkDovKXB/zkqQV9m+kDOSZXBlOgWQe1Z+0BwMZbB81noQHPu4kCVj47BSs+UQL3D
Y7+Rv6nBzLfQQIFaKD8z6avBDmbaQKLU2r/aoK/BNLHmQPbiBUFoh57B6CoAQZ8y+kA9v5bBy6Wl
QK6D0T6oF6nBQhGvQFIO+b8MH63BQD/rQOr3z75Q9q7BK/u8QNs640CeQZDBtDjUQEJdrT/pa4/B
jyKaQN2a9EDXTWbBylaMQMoBB0HwL3rBC0q9QOdg1EAg+WvBfD10QFeZ70DZh4XBcXKuQBg7tkBB
zX3B4YWbQL8bzkBT8IjBYfjcQPa3mT6R3YbBdzuJQARnwz++g6XBEzSbQJQ4iECVUpHB7oqfQKQ8
FUDauJzBWg6CQIHqW0CTEpnBdzCrQMr2uD+ss5PBJXKDQJM3r0BsM4/BQB/wQFXqCkAYq5HBMNds
QEEniEBL+6HBvYCeQA/6S8AwAK7BpmkKQaToMb5SRrHBPwaxQDdn/0AaHJzBiBs7QYuR+UBlf5TB
6Ej3QPMX00Ch2YfBZpdnQC+Qib9VqqfBJindQJob1T/PtqvBHLHuQP3dIcDuD7LBZBryQKpID0Hh
MaXB7FemQAZ4BUF2JVrBdqJ8QNtM40Da3V/BdmdnQK25EkFOo3XBHzioQKdvD0G2bIDB1eLZQAzU
5UBGYHHB0jbFQMlrwUDQrl3BlSY8QDAQ30BYL4LBrsNgQKogAUGxlYzBjgDKQNP+okAchYHBcZaV
QLv9oECzSHfBpoj9QO4t3j4ms4PBEKrFQKaz0T4zVIDBEQLaQBvtM7+aZorBM0mCQOLZC0CEWKzB
3URWQAROjj/yYaLBzbufQE+EbEAA14nBVZq6QPskkECJxZTB4MK8QArtMUBuEqDBd0pLQDWtQEAA
JpXBoDWUQI10YD/qfJDBx55RQGKjp0A7MYvBPjV3QJmpvEDSMJbBjMpMQC5cb0Dg9KbBxgcoQey2
A0FDYZfB6qgUQWmhAkEiq5fBiKPnQMTX5UCncY/BuuvMQLBqLj/dgK3BlfGWQGwWbr8mo6fB8l/a
QO5A2r9OOa/BPynfQIg0CkE3Qp7BufT7QP+LAEGnfpfBNmukQHyAyz6aD6nBGgnoQDDxvb4rgLDB
8sCxQPqb/b/O0arBUcO7QFTC5UDlC5DBm73RQCEfqz8S4Y7BXwahQDJa6kAEzWPBjgGOQNYwA0Gr
n3XBuoPFQKLQzkAulmzBFiR3QFBf6kBau4PBl2O1QIK2skAs637B/8idQNqPzEBJjojB543ZQLBY
cT7Ko4bBhRWIQGufwT+6g6XBsxWdQAdLiEDnwpHBj0efQL6jE0D405zBo/KCQB7ZXECKVZnBN5ip
QKX0tT9jrZPBakqFQEehrkChDI/B5LLvQGKoAkC1yJHB3LtvQHSsiEAgRKLBQHwHQdA3yb0XrLTB
ElSkQNJnUMDdp6nB1NuqQJ7sAkHf3ZrB1fQ4QWqpBEG3IJfBsWb5QMCX00BsmonBb//WQKtK2j9B
l67BizpwQFzrkb/EHKTBkQrvQLwZIcAVn7HBnKLnQPzKFEH7v6TBT2qtQA4I/0Dl+VbBN+CHQMNl
1UCcVF3BA8JoQBY3DUHG6G7BokSnQPh8DUFGRXzBazXfQJPB40BtgnLB7QTSQJVNukD8uF/BsvxC
QHLD1kDcbYDBB8xdQEwo/0CQForBRvXQQKwYokArBYPBB/CeQIIFm0A8VHjBa4L7QN5sbj4AUoTB
D6XFQCUQ1z56EX/BNiDRQIM4Pb9BIYrBteuAQIbgCkD+VqzBbiRUQBM+jT8zSaLBhXWjQIM6a0CJ
eYrBB5e7QBUikUAzjpXBGhO9QGi5LUB0MaDBdXVMQBX9Q0D6TZXBCi2SQGq0WD9awJDB1ytWQGUZ
pkC6+4rBkmx5QN5PvUCL05XB3U9OQDghcUCSLKfBYDcjQfieD0GDm5rBiKcQQWykCkEjMpnBzIjm
QL9e7UBW7Y7BwhaPQBmsrL4Gb7PBZ/zCQPX/4r7q5KTBCNDLQHKK77+bgbTBM73UQGjyC0FT+53B
An71QCvkBEE1kZfBfJ+dQN7iBT5OZanB3yymQAOJqr8V+rjB3iLaQHJotr9Rc6rBOJu6QO956EAI
3I7BGGPRQC4Y0T/BNI3B0suoQK7G7ECFFGHBnsiQQJV4A0HULHLBxhvMQJ490UC1VGvBQjd6QCAg
6UDBm4HBTCm6QD8QtEDoRH3BnWOfQP/fzEAMRIfBRZrZQMPcTD+1KYPBBViDQEjylz/xdaPBdROi
QOZEjUAoUZPB0BGfQD+FCkDwoZzBnGuGQJBLXkC1KZrBfCqqQOzNvz/+a5LBHyOHQGn0rUC9C47B
gUHuQO67FEDt65DB32R3QIL4hEDn16PBHDWYQI2/4r8rmcLBSSH+QBgp+L98DqbBlamjQFUtAkHb
mpnBYGwzQdL3E0EK15vBNqX7QDkJ3kDxQonBa1lkQCBMjT2637bBlsLNQMrz+L1QGZ3BfKHdQF0P
KMDbyrjBmOjYQBo5FkFr2aTBCmi3QLdpAUHCd1XBevGRQOO910BtzFjBwixuQKiuDEGGcGrB21Cn
QFGFDkH193nBtJXkQJ555kCqNHLBb7baQHsPvUBZ5V7BOz5LQO8P1EAHaXvBNs1ZQCDU/EDhq4fB
STPVQNtJpECZqILBGHelQJi2m0D343XBv8v6QB4jcz9OfYDB/IDDQLGyjj+vlXnBKWnUQJsSh75J
+oTBytBiQJxM4z/IY6nB9olZQDYzLD+bG57BytOyQBDpdECnK43BDa65QPVFnUC8eZjB6GG8QCYy
GkDhF6HB1HpSQFkmTkCarJXB8gyUQOSVaT+nCY/BaaNjQK7unkDxaInBRYpvQAFzvkA7uZPBGSVV
QAbGZUCPM6jB

> <OMEGA_E>
qNSVPijcpz78JQs/bBAPP3bsUz8=

> <OMEGA_NBR>
     10610

$$$$
50167937
  -OEChem-04172616093D

 67 69  0     1  0  0  0  0  0999 V2000
    5.7437    7.3646  -19.4224 C   0  0  0  0  0  0  0  0  0  0  0  0
    6.5080    0.6905  -21.6739 C   0  0  0  0  0  0  0  0  0  0  0  0
    4.8137   -0.9398  -21.0069 C   0  0  0  0  0  0  0  0  0  0  0  0
    6.9795   -1.6948  -21.8385 C   0  0  0  0  0  0  0  0  0  0  0  0
    7.2892    7.1839  -17.5538 C   0  0  0  0  0  0  0  0  0  0  0  0
    8.1006    7.9303  -19.6264 C   0  0  0  0  0  0  0  0  0  0  0  0
    5.9809    7.0316  -18.0665 C   0  0  0  0  0  0  0  0  0  0  0  0
    6.8237    7.8283  -20.2065 C   0  0  0  0  0  0  0  0  0  0  0  0
    5.2211    0.3990  -21.1711 C   0  0  0  0  0  0  0  0  0  0  0  0
    7.3889   -0.3558  -21.9978 C   0  0  0  0  0  0  0  0  0  0  0  0
    5.6902   -1.9855  -21.3480 C   0  0  0  0  0  0  0  0  0  0  0  0
    6.6187    1.3868  -17.9956 C   0  0  0  0  0  0  0  0  0  0  0  0
    4.2088    7.4025  -16.1559 C   0  0  0  0  0  0  0  0  0  0  0  0
    5.0776    6.2283  -15.6833 C   0  0  0  0  0  0  0  0  0  0  0  0
    4.8567    6.4807  -17.1886 C   0  0  0  0  0  0  0  0  0  0  0  0
    6.9223    0.2935  -16.9759 C   0  0  0  0  0  0  0  0  0  0  0  0
    7.4504   10.6761  -20.9684 C   0  0  0  0  0  0  0  0  0  0  0  0
    4.9822   10.1770  -21.1838 C   0  0  0  0  0  0  0  0  0  0  0  0
    6.4594   10.2274  -23.2229 C   0  0  0  0  0  0  0  0  0  0  0  0
    6.6376    8.2968  -21.6327 C   0  0  0  0  0  0  0  0  0  0  0  0
    4.3013    1.5206  -20.7570 C   0  0  0  0  0  0  0  0  0  0  0  0
    4.7294    4.2457  -18.0855 C   0  0  0  0  0  0  0  0  0  0  0  0
    4.9640    2.3519  -19.6434 C   0  0  1  0  0  0  0  0  0  0  0  0
    4.0119    3.4380  -19.1518 C   0  0  2  0  0  0  0  0  0  0  0  0
    6.3884    9.8353  -21.7315 C   0  0  0  0  0  0  0  0  0  0  0  0
    8.2960    7.6249  -18.3333 N   0  3  0  0  0  0  0  0  0  0  0  0
    5.3389    1.4587  -18.5320 N   0  0  0  0  0  0  0  0  0  0  0  0
    4.0104    5.4976  -17.8501 N   0  3  0  0  0  0  0  0  0  0  0  0
    9.4241    7.7645  -17.8480 O   0  5  0  0  0  0  0  0  0  0  0  0
    7.4715    2.2298  -18.2544 O   0  0  0  0  0  0  0  0  0  0  0  0
    3.6724    4.2909  -20.2469 O   0  0  0  0  0  0  0  0  0  0  0  0
    8.6257   -0.0742  -22.4657 F   0  0  0  0  0  0  0  0  0  0  0  0
    5.2952   -3.2695  -21.1991 F   0  0  0  0  0  0  0  0  0  0  0  0
    4.7564    7.2660  -19.8489 H   0  0  0  0  0  0  0  0  0  0  0  0
    6.8152    1.7169  -21.8096 H   0  0  0  0  0  0  0  0  0  0  0  0
    3.8303   -1.1626  -20.6198 H   0  0  0  0  0  0  0  0  0  0  0  0
    7.6540   -2.4990  -22.0926 H   0  0  0  0  0  0  0  0  0  0  0  0
    7.4853    6.9427  -16.5195 H   0  0  0  0  0  0  0  0  0  0  0  0
    8.9349    8.2585  -20.2286 H   0  0  0  0  0  0  0  0  0  0  0  0
    3.1198    7.3757  -16.0031 H   0  0  0  0  0  0  0  0  0  0  0  0
    4.5703    8.4347  -16.0384 H   0  0  0  0  0  0  0  0  0  0  0  0
    6.0623    6.4181  -15.2313 H   0  0  0  0  0  0  0  0  0  0  0  0
    4.6118    5.3591  -15.1959 H   0  0  0  0  0  0  0  0  0  0  0  0
    7.9426    0.4270  -16.5873 H   0  0  0  0  0  0  0  0  0  0  0  0
    6.2028    0.3562  -16.1462 H   0  0  0  0  0  0  0  0  0  0  0  0
    6.8400   -0.6913  -17.4590 H   0  0  0  0  0  0  0  0  0  0  0  0
    8.4530   10.4378  -21.3532 H   0  0  0  0  0  0  0  0  0  0  0  0
    7.2459   11.7467  -21.1166 H   0  0  0  0  0  0  0  0  0  0  0  0
    7.4037   10.4389  -19.8953 H   0  0  0  0  0  0  0  0  0  0  0  0
    4.2255    9.5852  -21.7197 H   0  0  0  0  0  0  0  0  0  0  0  0
    4.9396    9.9407  -20.1103 H   0  0  0  0  0  0  0  0  0  0  0  0
    4.7817   11.2484  -21.3316 H   0  0  0  0  0  0  0  0  0  0  0  0
    5.7171    9.6473  -23.7909 H   0  0  0  0  0  0  0  0  0  0  0  0
    6.2456   11.3011  -23.3302 H   0  0  0  0  0  0  0  0  0  0  0  0
    7.4664   10.0135  -23.6106 H   0  0  0  0  0  0  0  0  0  0  0  0
    7.5431    8.0490  -22.2059 H   0  0  0  0  0  0  0  0  0  0  0  0
    5.7739    7.7713  -22.0663 H   0  0  0  0  0  0  0  0  0  0  0  0
    4.0991    2.1665  -21.6242 H   0  0  0  0  0  0  0  0  0  0  0  0
    3.3557    1.0994  -20.3852 H   0  0  0  0  0  0  0  0  0  0  0  0
    4.7692    3.6655  -17.1518 H   0  0  0  0  0  0  0  0  0  0  0  0
    5.7525    4.4691  -18.4223 H   0  0  0  0  0  0  0  0  0  0  0  0
    5.8670    2.8297  -20.0512 H   0  0  0  0  0  0  0  0  0  0  0  0
    3.1126    2.9728  -18.7218 H   0  0  0  0  0  0  0  0  0  0  0  0
    4.6309    0.8703  -18.1414 H   0  0  0  0  0  0  0  0  0  0  0  0
    3.2150    5.3122  -17.2732 H   0  0  0  0  0  0  0  0  0  0  0  0
    3.7065    5.8681  -18.7278 H   0  0  0  0  0  0  0  0  0  0  0  0
    3.2232    3.7861  -20.9147 H   0  0  0  0  0  0  0  0  0  0  0  0
  1  7  1  0  0  0  0
  1  8  2  0  0  0  0
  2  9  1  0  0  0  0
  2 10  2  0  0  0  0
  3  9  2  0  0  0  0
  3 11  1  0  0  0  0
  4 10  1  0  0  0  0
  4 11  2  0  0  0  0
  5  7  2  0  0  0  0
  5 26  1  0  0  0  0
  6  8  1  0  0  0  0
  6 26  2  0  0  0  0
  7 15  1  0  0  0  0
  8 20  1  0  0  0  0
  9 21  1  0  0  0  0
 10 32  1  0  0  0  0
 11 33  1  0  0  0  0
 12 16  1  0  0  0  0
 12 27  1  0  0  0  0
 12 30  2  0  0  0  0
 13 14  1  0  0  0  0
 13 15  1  0  0  0  0
 14 15  1  0  0  0  0
 15 28  1  0  0  0  0
 17 25  1  0  0  0  0
 18 25  1  0  0  0  0
 19 25  1  0  0  0  0
 20 25  1  0  0  0  0
 21 23  1  0  0  0  0
 22 24  1  0  0  0  0
 22 28  1  0  0  0  0
 23 24  1  0  0  0  0
 23 27  1  0  0  0  0
 24 31  1  0  0  0  0
 26 29  1  0  0  0  0
  1 34  1  0  0  0  0
  2 35  1  0  0  0  0
  3 36  1  0  0  0  0
  4 37  1  0  0  0  0
  5 38  1  0  0  0  0
  6 39  1  0  0  0  0
 13 40  1  0  0  0  0
 13 41  1  0  0  0  0
 14 42  1  0  0  0  0
 14 43  1  0  0  0  0
 16 44  1  0  0  0  0
 16 45  1  0  0  0  0
 16 46  1  0  0  0  0
 17 47  1  0  0  0  0
 17 48  1  0  0  0  0
 17 49  1  0  0  0  0
 18 50  1  0  0  0  0
 18 51  1  0  0  0  0
 18 52  1  0  0  0  0
 19 53  1  0  0  0  0
 19 54  1  0  0  0  0
 19 55  1  0  0  0  0
 20 56  1  0  0  0  0
 20 57  1  0  0  0  0
 21 58  1  0  0  0  0
 21 59  1  0  0  0  0
 22 60  1  0  0  0  0
 22 61  1  0  0  0  0
 23 62  1  0  0  0  0
 24 63  1  0  0  0  0
 27 64  1  0  0  0  0
 28 65  1  0  0  0  0
 28 66  1  0  0  0  0
 31 67  1  0  0  0  0
M  CHG  3  26   1  28   1  29  -1
M  END
> <OMEGA_C>
xcy3QNCq60AfYZvBRkHQQBrEMD8tZK3BmAmaQDaZcL8LDqjBsVffQOrt2L9Vta7ByEDpQJXi5UA2
bozBCpwBQUPF/UDpAp3BPWO/QAgD4UAdiJDBqFvaQF+B+kDcpqHBWBOnQBRQzD5xXqnB/nHsQD0t
tr56+6/B5xW2QHYm/r+tyKrBUMzTQGSBsT/u9o/Bwa6GQOTg7EBPP4HBx3uiQExOx0DV7nrB22mb
QIVhz0AngonBNoPdQIhJlj64zofBymnuQBrRKkFZv6fBC26fQAjVIkFWeKnBdLPOQGqjI0GSyLnB
L2fUQIi/BEHDD63BjKSJQDmjwj9nDqbBdleXQADdh0Air5DB19ieQN+FFkC7JZ3BKGGAQKIHXED7
NpnBd23MQDBdHUES2q3BU7wEQSP/80CLqpLBgdiqQDe1uj90QZTBjVWAQAzsr0AXzY7BSckWQaN2
+EC7yI7BHxbvQPu0DkDzCJLBDwhrQBJPiUCY+aHBqgIKQYjvl73JubPBbXKpQCo/UcDGl6nBmjSY
QM6C6EB+yp7BfxbaQFnE2z8Ieq7BCCR1QF3PlL9Y9aTB7O30QKXvH8CRvbDBbIfvQGAq3kAAKITB
cPUOQfsiBEEa1KHBWqtHQJMF7EBDBoDBC0CSQIL0BkGvToDBaP7BQGFhzUBIs3PBCpSTQPB9q0Bx
InPB4Sn+QFaj2j6zsoTBo33GQAVgtj5iK4HBGOHaQAj5ML8CrIvBgj8HQRkBJ0FR06rBC97nQFHy
O0HJ7qjBR+vsQMMFJ0GaKZ/BtDeHQNtcGUHxwa3BzhCeQAkNH0Hg4aDBkwOZQJf5M0EPp6rB4fK2
QGlbGkG5U77B+9vHQDDRNEFIpLrBf+zuQGM3IEGC4rzBUGHxQKbIAEHIpbHBAMS4QNqu+EDIh7DB
IyyDQO6nCkBQ/qzBesNWQK+3jD/SFKPBaJ2YQGyXakD5NonBhxS4QO4Cj0DTYJPBeL67QCkZNUDn
aKDB9jRHQFtCPkAvxpXBtDCUQAPJXj+SIZHBTMJNQOz9qUBxL4rB8TdtQE3Hu0Cg0pXBiklOQCBP
ckA4UafBz7S3QFul60B9TJvB74LQQBQXLT9deq3BOECZQAHja78WLKjBdibeQCvh278Nxq7BbVfp
QNBp5kBNYIzByW4BQTm7/kCi+JzBAn6/QMQS4UANdJDBgADaQN3w+kDcl6HB+BmnQMOE0T6igKnB
UxPsQKcqxr4EDbDB6rK0QDnu/b+o3arBPK/RQMmrtD9NQY/B5d6GQLRw7EC7HYHBueqiQPr7xkDE
vnrBQbObQG4jz0CRZ4nBZobbQN54dz7i0IfBw/3MQA1HI0Ex87nBVfjrQPYcK0Ek5afB2VadQN5L
IkHxtqnBP8TTQIG4BEF1C63B0UWKQLopxj8DQ6bBFrqXQDK7h0CQo5DBzFmfQCHHFkBnM53B9y2B
QNwsXUCfW5nBfbHKQMk3HUGW/K3BBa8EQTHR9EBYo5LBhxKqQIUPuT+7TpTB2qWAQBKtr0BKsY7B
Pd0WQTN/+EAB247B1jnuQAbeDEBNmZHB2B9vQB55ikCdGKLB5O0JQd7TBL6xxLPBG0ynQE6jUMAG
qanB8yCYQKcU6EDmsZ7BlAHbQBEn2T+3iq7BC0FzQOj+j79IF6XBgELzQNQ7IsCByrDBisTvQIvS
3kAIGoTBNa0OQRXgBEH6yaHBjxNIQB5g60CLwH/BfkKSQIfDBkGGKYDBQWzCQFQzzUC8iXPBijOU
QGQMq0A793LBTWb9QGLbjT7TcIXB9TjHQNFFnj7CpYDBxwnVQNd0NL++/ovB/Le1QKurGUG6er7B
YHzFQNddNEF857rBN2rtQOAdIEE3/bzBaBHrQKAjJ0FHU5/BSBUGQR/lJ0FCEavBuTzkQBclPEGH
+6jB4HCbQIkFHkH7MKHBo8aWQNV6M0HPrarBCI2FQBgAGUEjPa7BSfHwQDr9AEHImbHBkYi4QGPg
90ACe7DBhtOEQAYeDUAzMK3BzfZWQAGykj9IdqPBIIKYQLxVaUBqPonB06O4QGv6jkDjLZPB8Mi8
QBFxNEA5SqDBYKlHQFAxQEDYHpbBpXKTQMaHUD+hwZHBC5hOQN6YqUCdDYrBc4NtQHmau0AusZXB
LuBSQNqcdUCjkafBH5arQPRD8EDXpJnBS+7LQKWcFD8r/a3Bdv2YQP/ogr/qiabBZgjcQG3Z5r8q
Wa7B8BXiQIOW6EBb54vBqKX0QNDTA0FWWJzBj5q3QMYz4kAZW4/BmRPKQLB3AkGlG6DB6ZmkQNBU
nT7c5ajBo6/nQApe8r6xqLDBB5m0QAT8BMADVqnBwMjYQNs2vj9R0pDBSA2BQAzp5kBtPH/B24yg
QNxaw0A4yXjBHv+WQBVOzEApQIjBaLbkQJrhBT8m14fB8ES6QLArKEEYqLjBZCoBQbBEG0EOwrLB
UmzTQFicMUHQPqbBuqe8QKDrCkF0CKvB6u2HQBb5uD//iaXBPoWYQDxGh0C6zpDBYGCfQK9eFUCX
X53BVzaBQE+RWkAOOJnB577TQBTMH0ES7K7BNQ3/QAr3+kBgZpLB47muQODsvz8IbpTBrP57QFHJ
q0CywY3BdZQRQXaTAUEK6Y7BuDzzQP4KE0DfDZTBpXpqQBu+iEBw2aHBmbQGQXpcVL5Sf7XBHlCp
QJWzVsC3L6fBYmSLQD0760DChZzBIrTUQFK4zD9l1a/BkvN1QLmZnb/+l6LBRFbxQP1DJ8B2a7DB
tnLrQH+g3kDo94PBsZ8GQV0SCkF2jKHB4DQ9QMnp4kCjOHzB9+WJQF5YBEFvBH3BIvW/QKmpy0DV
AnLBm6mUQLfipUAJN3HB6/gCQXUVNT+gV4XBvirPQA7nLT+r/oDBfZ7hQC43A7/KtIrBnhuZQJyM
K0GUPLbBzjvJQPPtNkGbp7vBk1a6QIP+G0G3Ar/BgrsKQZdCFUGYAqzB/OAAQQg1D0FJKrnBmlMI
QXckKkEtz7XB6VrlQCUjLEFIL5/BhnriQP8mQEG7eKnBbzOyQM0nNUGL8KPBIvfCQMiX/EBa9bDB
YRqaQNA6DkEvvarBHs5+QB3mAkBPmazBMFNVQPIohT854KHBLKeeQLNiZkCdvonBpRu3QAXGkkAp
FJTBw8K6QCcWNEAZWqHBwLJJQEdVPEBkoZXBX5SZQIpJaD9QvZDBwk1NQAitoUBu54jBJU5iQP6Z
uECoWJTBzDVNQHAzcUA3JqfBdxq1QFl1AUHjL5bBy+rLQHyuQD+PNa7BLMacQME/dr8DyqbB3N7f
QDl/zL+QYa/Bq9nlQPxZ1UBDLIzB+jkBQdddBEFi35fBWri7QFEm4kBlqI7BwTPZQLoADEHiYJrB
AsylQJiVyT5T46jBzQfpQAr0dr4xYrHBvrm5QG+C+r9LGKrBOXzXQFjrwT+hWZDBh/Z8QE6060AU
qIDBWG+bQEUox0A7HHnBFIOWQElfz0BDj4jBVaDjQKjA8z6j8IfBcvXXQOUfNEHJ4LHBssWiQOlD
FkEAea/BoM7xQIUeDkGCNbHB1MzUQDHUIEE5caDBfIuHQOLduz++HaXBjfKWQPKEiUAhwJDB9mie
QN7gF0C++JzBJep/QKxxXUDcEJnBHmDQQJcHHkGnrqzBld4DQVZm6EBN3ZDB7mCtQCqVxj9565PB
J+R7QBEWsED7k47BFxkWQeH730DTpY3BzG/zQNVPDUBfcZTB1c1oQEdKiUBo6KHBAOUGQZB+3j3o
V7bBTAGxQAOHUMDcJqjBsTKVQBzVBUGbr5jB1bbSQMhW5T+U16/B33F/QHw4nr/Ep6LBQBf2QJk1
F8Dn5bHBiwnrQPP/u0AlcobBaw0PQbKMC0Htm5vBfv42QLYe6UAU3H/BJC+IQKeeBkGMD3/BAs+5
QEyazkAmCHHBHR+NQLV7qkCu1HHBnjcDQZII/z6BpIbByRzTQJ9jND/+YoDBKRPaQH4SBr/yuYrB
smH4QGjAOUFV7K/BcZnUQLXBMkF1nLrBhEnAQGCbP0GDza7BXyadQG2GBkF9y6vBIjGLQITMIUHJ
ZqzBEIGfQNnyFEG7NbjBSOPsQHeH/EB4l63BlRDuQK/zDEGN8LnBdxsJQcrYE0HiT6/BnzK4QHMz
KUFpep3BfljxQFifKkHA2Z7BwSR6QASGBECu/qvBEw1XQNs5gD+sT6HBXY+aQKPQbUAGVonBX7u2
QOyUkkAxx5PBd/q5QE5DNkAQ6aDBUPVGQDO0P0BAeJXB7t+XQPUIfD+oG5DBQ/lHQLQKqEC5WorB
+OlpQLIdvUDch5XBLvVLQGk7cUD+I6fBGuStQMWL/UDIUpfBnC3OQM7PLz/WZq7Bsa6ZQPIXZ7/l
cqfBM8/cQElm2r8CDa/BswLlQMgA30C77ovBsIz4QI4dCUFOzpjBqoa5QDj/4kC5wI7BV5XNQAN2
C0H0IpzB5zCmQO0o2T45manB5HLpQBCywb6UH7HBxOy0QAjM+78TNqrB6qrWQHkktj/pzpDBjA5+
QB006UCWKoDB7R2eQFcvxkDndXjBCjOXQOWrzUAuNIjBtW/gQNmtxT45MojBV5q2QJbRI0E4y7fB
+O/UQB4jAEEhb7LBp54AQdUAIkGxnLDB+8vAQJ1JHEHERKTBgbyJQBaTyD80RKbBGkuZQADpiEAL
7JDBLiCgQLp2GUAZjp3Bbe+BQGlpXkBdYZnBBrjTQEJWGEEfn6/BJ5kBQX+29UBiJJHBrSCtQNBq
wT8etJTBac19QGqfrUAvBI7B4YwUQeH68UAudI7BPmDyQMZuDkD5eJPBLMxrQGntikAv9aHBENoH
QZSsAL7Av7XB+MuoQIJVT8BPMKjBxUGNQF5y/kCMKJrBwtLXQF822j9C/K/BbHV2QCMEjb/Ir6PB
D7PxQCGVIcAbLLHBaDfuQHuYyUBUjYXBVpMIQfXXEkEbb5zB5aA4QNwW5UDNRH7Bt1uHQKGXBUFb
Zn7BMKe8QN0mz0Dk8HDB7JuRQHgOqUBVz3DBa8MAQRkHBD9hYYXB3z3KQGqxBD/IcoHBSJPcQHWv
H796jIvB6lu1QEEBNUEp7LXBDo7DQNuTIUE85r/BtieWQNgLHUGwYbfBeo/pQChi70Dur6zBmlq0
QDEM80DBC7LB8sDhQDYc/EBNkLrBlF8LQQ4dGkHN3qrB3qUGQYOCH0EHybjBsvn/QOo/M0G84q7B
ea+dQPFvHEFj46TBPgXMQML1K0F2aaHBZyCDQIMtDUCUPK3B7upWQImclT+yGqPB6uGeQH21aUCP
04nB0Ca4QJ4LlECtHJTBwY28QHw+OECWCaHBzylLQAn/P0Cgz5XBfbCWQN9UcD89TZHBKXNNQBeW
o0A0aonBQ2tmQPjWukCnsJTBUHlOQAjhdUA3SKfB0iHQQJRRBkEryYrB3LHOQEgeGD9seq3B496V
QBj6br+o4qfBKBDZQA8k6L/M3q7BmRW9QOH66EDGTJvBgmbrQIZzEkG735vBXcW5QC/h60DW9I/B
joLpQBh6FEEEoZDBbEalQMexwD6cVKnBiKfoQJhdAL//L7DBqqWvQMXEAcDYu6rB7cLRQJd6mj/b
oI/BAV2GQAY34UB1vH7BU5qrQKwVwkAcgXvBiFadQFlRzkDbMInBnCXXQIKyDz5hAYfBWvYjQVLz
LUEPsIHBCJEbQe5bB0GezYXBhfMHQb8RG0FW0W3BFO4AQVzlJUH2wYrBtRKKQHKhxT9lDqbBNCed
QMpJiEC5JZHBJIegQMEVFEDvBp3B5iqEQFLKXEBuOJnBa7IRQcA9HUEwXILBiCTVQHvQAkHa56DB
v3OpQLLbsj9sDpTBoKSEQM/MrkBO9Y7BEjTVQK1bAkEw0arByObvQJZp+D/P35HBnDJyQKAsiUCe
EaLBOD0IQX0mlr5YEbTBzI+gQLAvUsDUfqnBEL7NQJ8FCEFrNYLBf2jaQOfxzD8nka7BkK5sQAJo
jL8NmaTBz93sQBcDKsBNCLHBbF2sQAfUz0D6f5/BJrL+QN5tHUHee6DBDgpLQCgj10Aj53rBhVqK
QPKhAUHgvnrBIFXKQFnIzUDDOHXBoX+lQJ6noUAGYXXBuNv3QKDyPD5NxoPBfAnAQPAhpD6shoDB
CGvRQC52Wr9Nf4rBHVYdQVKFPUEoiX7BItsvQSiyKEGhg3fBGKsrQdt+L0HDj4nBaNcOQQp+9kBq
VIbBDFEjQZ4aCUHhp43BFoEnQetNAkHbs3/BGL31QHZMD0F2F27BX20UQTy2FUGDnmLBs7EBQc6r
KkFjmmjBM4gJQdiaL0GUtJDB8pbqQKL+L0HYgIbB5FaFQPh6DUCP9KzBha5VQJcwlz8VOKPBwG2h
QKp4a0DjvonBG6u8QD7MkECGcJTB5ri+QO+hLkDDGaDBiJNOQFJvQkDyapXBB/qQQESaYT/H+JDB
pgpWQDD1pkDElYrBgzh2QB9+u0CR55XBJMBSQG4SckC6K6fB

> <OMEGA_E>
SCKGPphJhD6Q0qw+EMnWPri34z5gqjM/

> <OMEGA_NBR>
     17294

$$$$
50167975
  -OEChem-04172616093D

 66 68  0     1  0  0  0  0  0999 V2000
    5.7873    7.4072  -19.3792 C   0  0  0  0  0  0  0  0  0  0  0  0
    6.5169    0.6897  -21.6394 C   0  0  0  0  0  0  0  0  0  0  0  0
    4.8340   -0.9504  -20.9678 C   0  0  0  0  0  0  0  0  0  0  0  0
    7.0061   -1.6924  -21.7947 C   0  0  0  0  0  0  0  0  0  0  0  0
    7.2693    7.2749  -17.4581 C   0  0  0  0  0  0  0  0  0  0  0  0
    8.1311    8.0431  -19.4891 C   0  0  0  0  0  0  0  0  0  0  0  0
    5.9843    7.0832  -18.0182 C   0  0  0  0  0  0  0  0  0  0  0  0
    6.8802    7.8978  -20.1217 C   0  0  0  0  0  0  0  0  0  0  0  0
    5.2308    0.3907  -21.1382 C   0  0  0  0  0  0  0  0  0  0  0  0
    7.4076   -0.3512  -21.9540 C   0  0  0  0  0  0  0  0  0  0  0  0
    5.7181   -1.9908  -21.3054 C   0  0  0  0  0  0  0  0  0  0  0  0
    6.6233    1.3434  -18.0080 C   0  0  0  0  0  0  0  0  0  0  0  0
    4.1413    7.4176  -16.1725 C   0  0  0  0  0  0  0  0  0  0  0  0
    5.0054    6.2499  -15.6753 C   0  0  0  0  0  0  0  0  0  0  0  0
    4.8375    6.5090  -17.1853 C   0  0  0  0  0  0  0  0  0  0  0  0
    6.9011    0.2910  -16.9390 C   0  0  0  0  0  0  0  0  0  0  0  0
    7.4351   10.7485  -20.9903 C   0  0  0  0  0  0  0  0  0  0  0  0
    4.9851   10.1495  -21.1785 C   0  0  0  0  0  0  0  0  0  0  0  0
    6.4504   10.1872  -23.2252 C   0  0  0  0  0  0  0  0  0  0  0  0
    6.7273    8.3264  -21.5672 C   0  0  0  0  0  0  0  0  0  0  0  0
    4.3012    1.5067  -20.7302 C   0  0  0  0  0  0  0  0  0  0  0  0
    4.7435    4.2785  -18.1078 C   0  0  0  0  0  0  0  0  0  0  0  0
    4.9580    2.3493  -19.6214 C   0  0  1  0  0  0  0  0  0  0  0  0
    4.0072    3.4402  -19.1388 C   0  0  2  0  0  0  0  0  0  0  0  0
    6.4035    9.8454  -21.7197 C   0  0  0  0  0  0  0  0  0  0  0  0
    8.3049    7.7423  -18.1870 N   0  0  0  0  0  0  0  0  0  0  0  0
    5.3286    1.4700  -18.4968 N   0  0  0  0  0  0  0  0  0  0  0  0
    4.0180    5.5289  -17.8860 N   0  3  0  0  0  0  0  0  0  0  0  0
    7.5124    2.1212  -18.3385 O   0  0  0  0  0  0  0  0  0  0  0  0
    3.6363    4.2644  -20.2454 O   0  0  0  0  0  0  0  0  0  0  0  0
    8.6491   -0.0626  -22.4050 F   0  0  0  0  0  0  0  0  0  0  0  0
    5.3334   -3.2771  -21.1503 F   0  0  0  0  0  0  0  0  0  0  0  0
    4.8192    7.2816  -19.8411 H   0  0  0  0  0  0  0  0  0  0  0  0
    6.8159    1.7178  -21.7810 H   0  0  0  0  0  0  0  0  0  0  0  0
    3.8528   -1.1791  -20.5786 H   0  0  0  0  0  0  0  0  0  0  0  0
    7.6858   -2.4927  -22.0477 H   0  0  0  0  0  0  0  0  0  0  0  0
    7.4264    7.0402  -16.4157 H   0  0  0  0  0  0  0  0  0  0  0  0
    8.9719    8.4047  -20.0625 H   0  0  0  0  0  0  0  0  0  0  0  0
    3.0478    7.3779  -16.0603 H   0  0  0  0  0  0  0  0  0  0  0  0
    4.4866    8.4530  -16.0358 H   0  0  0  0  0  0  0  0  0  0  0  0
    5.9706    6.4477  -15.1861 H   0  0  0  0  0  0  0  0  0  0  0  0
    4.5318    5.3726  -15.2106 H   0  0  0  0  0  0  0  0  0  0  0  0
    7.9398    0.3875  -16.5900 H   0  0  0  0  0  0  0  0  0  0  0  0
    6.2147    0.4386  -16.0923 H   0  0  0  0  0  0  0  0  0  0  0  0
    6.7489   -0.7121  -17.3639 H   0  0  0  0  0  0  0  0  0  0  0  0
    8.4445   10.5354  -21.3721 H   0  0  0  0  0  0  0  0  0  0  0  0
    7.1901   11.8054  -21.1720 H   0  0  0  0  0  0  0  0  0  0  0  0
    7.4014   10.5448  -19.9099 H   0  0  0  0  0  0  0  0  0  0  0  0
    4.2513    9.5116  -21.6928 H   0  0  0  0  0  0  0  0  0  0  0  0
    4.9537    9.9464  -20.0979 H   0  0  0  0  0  0  0  0  0  0  0  0
    4.7425   11.2070  -21.3600 H   0  0  0  0  0  0  0  0  0  0  0  0
    5.7271    9.5598  -23.7668 H   0  0  0  0  0  0  0  0  0  0  0  0
    6.1954   11.2476  -23.3684 H   0  0  0  0  0  0  0  0  0  0  0  0
    7.4623    9.9978  -23.6127 H   0  0  0  0  0  0  0  0  0  0  0  0
    7.6669    8.1129  -22.0978 H   0  0  0  0  0  0  0  0  0  0  0  0
    5.9101    7.7462  -22.0206 H   0  0  0  0  0  0  0  0  0  0  0  0
    4.0931    2.1461  -21.6008 H   0  0  0  0  0  0  0  0  0  0  0  0
    3.3593    1.0796  -20.3555 H   0  0  0  0  0  0  0  0  0  0  0  0
    4.8100    3.7208  -17.1620 H   0  0  0  0  0  0  0  0  0  0  0  0
    5.7564    4.5025  -18.4734 H   0  0  0  0  0  0  0  0  0  0  0  0
    5.8628    2.8231  -20.0299 H   0  0  0  0  0  0  0  0  0  0  0  0
    3.1215    2.9794  -18.6770 H   0  0  0  0  0  0  0  0  0  0  0  0
    4.6061    0.9337  -18.0606 H   0  0  0  0  0  0  0  0  0  0  0  0
    3.2025    5.3382  -17.3396 H   0  0  0  0  0  0  0  0  0  0  0  0
    3.7456    5.9071  -18.7707 H   0  0  0  0  0  0  0  0  0  0  0  0
    3.1758    3.7407  -20.8905 H   0  0  0  0  0  0  0  0  0  0  0  0
  1  7  1  0  0  0  0
  1  8  2  0  0  0  0
  2  9  1  0  0  0  0
  2 10  2  0  0  0  0
  3  9  2  0  0  0  0
  3 11  1  0  0  0  0
  4 10  1  0  0  0  0
  4 11  2  0  0  0  0
  5  7  2  0  0  0  0
  5 26  1  0  0  0  0
  6  8  1  0  0  0  0
  6 26  2  0  0  0  0
  7 15  1  0  0  0  0
  8 20  1  0  0  0  0
  9 21  1  0  0  0  0
 10 31  1  0  0  0  0
 11 32  1  0  0  0  0
 12 16  1  0  0  0  0
 12 27  1  0  0  0  0
 12 29  2  0  0  0  0
 13 14  1  0  0  0  0
 13 15  1  0  0  0  0
 14 15  1  0  0  0  0
 15 28  1  0  0  0  0
 17 25  1  0  0  0  0
 18 25  1  0  0  0  0
 19 25  1  0  0  0  0
 20 25  1  0  0  0  0
 21 23  1  0  0  0  0
 22 24  1  0  0  0  0
 22 28  1  0  0  0  0
 23 24  1  0  0  0  0
 23 27  1  0  0  0  0
 24 30  1  0  0  0  0
  1 33  1  0  0  0  0
  2 34  1  0  0  0  0
  3 35  1  0  0  0  0
  4 36  1  0  0  0  0
  5 37  1  0  0  0  0
  6 38  1  0  0  0  0
 13 39  1  0  0  0  0
 13 40  1  0  0  0  0
 14 41  1  0  0  0  0
 14 42  1  0  0  0  0
 16 43  1  0  0  0  0
 16 44  1  0  0  0  0
 16 45  1  0  0  0  0
 17 46  1  0  0  0  0
 17 47  1  0  0  0  0
 17 48  1  0  0  0  0
 18 49  1  0  0  0  0
 18 50  1  0  0  0  0
 18 51  1  0  0  0  0
 19 52  1  0  0  0  0
 19 53  1  0  0  0  0
 19 54  1  0  0  0  0
 20 55  1  0  0  0  0
 20 56  1  0  0  0  0
 21 57  1  0  0  0  0
 21 58  1  0  0  0  0
 22 59  1  0  0  0  0
 22 60  1  0  0  0  0
 23 61  1  0  0  0  0
 24 62  1  0  0  0  0
 27 63  1  0  0  0  0
 28 64  1  0  0  0  0
 28 65  1  0  0  0  0
 30 66  1  0  0  0  0
M  CHG  1  28   1
M  END
> <OMEGA_C>
qzG5QB0I7UCZCJvBF4rQQAySMD+EHa3BEbCaQJBQc78AvqfBDTLgQOyh2L+FW67B453oQDvM6EAm
qovBERkCQYOwAEHA6ZvBvX+/QOup4kBZJZDB6SrcQLC6/EBD+aDBdmKnQDMQyD4DG6nBNwvtQPDT
s763oa/BFfu2QMbT/r+JcarBe/LTQMHzqz90EJDBs4WEQBRd7UBMYYHBYCygQHX/x0AHznrB08ya
QNdJ0EB5e4nBLNbcQHX+lD4sg4fBiOztQAb6K0Ei7KfB4IWfQGJkIkGJbanBnGnOQJf+IkEtzbnB
+UXXQOM4BUGHiazBP6OJQKLbwD9y16XBacqXQKPpiECx3JDByKeeQFpbFkCu+JzBtjqAQCIsXEAu
HJnB0OnMQJ6GHUHmwa3BBeEEQaTA90DwfpHBPoSqQE4qvD+D+ZPBxZOAQAXtsEB1Fo/BWmXwQFPC
B0AmtZLBlrloQAZ2iECT9qHBhGIKQRQlgL1oPbPBV6uqQIe7UcDaM6nBszaaQPcC6UCGup7Bjxva
QDTh2z91P67B75R2QAnulr8DoaTBNfL1QBaIH8CwYbDBsKTtQK5J4UBEU4PB5owPQdJ5BkHsf6DB
5Q5DQK4X7EBpe4DBDJKPQKQ/B0FKSYDBGQ+/QORTzkBO+nLBgASRQEvsq0CMXnPBCxP+QG1gxj5O
uITB197GQJGO4D7+vIDBDvfXQINONr9b6YrBkxwHQQ2RKEEX+qrBRxXmQOriPEE/YKnB99fsQJ+3
KEFhR5/BUgqIQF8vGEHaiq3BAYWeQGIkH0FpyKDBUMKXQKxPM0FG4arBp0S3QBf1GEFvIr7BiUDG
QP/1M0GE8rrBLsvuQAD3H0HZ5rzBRFf1QFXOAUE1yLDBxh+9QMfg90AvKrDB4PqCQLdZCUBdzqzB
hP5WQMguij8d2KLBvuuZQBYibkCuS4nBsjS4QIoUkECUyZPB5Ju7QBSuNEA+PaDBQsZHQIyuPkB+
apXBY2WTQMMGbz8YfJDBWvVMQErSqkCYt4rBcrhvQBsHvUBqKpbBokBLQE1ob0DTH6fBtoC1QBQF
AUG6rpbBU4nPQPglGz82oq3B44CXQHqHbL+9nafBbl3bQDOt5r+NOa7BbiLqQD3S1EDq+Y3BteIA
QaqEBEFZDJrB7RK/QNc44UAHd4/BgJLXQI4TDEEncJvB+iSmQH0bxz4Od6nBpCHqQDlj+r6e/a/B
bAmyQEkwAcCgDKrBiUPQQCeWrj+wWo/B8s2EQPh+6kBfu4DBw7KiQJ0zxkARyHnB5J2bQCgFzkA+
04jBhdXWQJkkgz4UIYfB8rG9QKIUOUHEtq/BejOfQPvZE0EDDq/BSlbuQCuNGUEdmLLB6LTPQEvi
IUFgRKDBk1aKQMI1yD/Wf6bBri+ZQDMniEAw8JDBFbGfQNg6F0DNcJ3B732CQAbBX0DnxpnBMcvG
QMS6IUG4YqzB/i4FQWDm50BMbZPBQryoQDb3uj+6YpTBvIGBQI9Dr0DgmI7BsNDuQHoyA0CmJ5LB
3h11QCMgjECciqLBe+QIQTwij76b+bPBGtijQMLEUcDkWqjB0byUQLcQBUH2ipjBN8baQIVtzj8W
A6/BKfBvQOhoi79QVqTBYLvvQEwwKcCFErDBDYPxQIWUu0DAXojBFtINQVEYDEGDWJ7BXP5DQGu9
50AsPH/BC3+OQFMPBkF1jn/B5bbBQEbvzUB4aXLBBzeVQAqOqUAvF3LBo6b4QH0kaj5QsoTBcq7C
QM9V5z4HFoDB2OXNQEEWNr8NrIrBB63ZQOYVQ0EI2a3BRz23QDm6OUHOW7jB86yhQEIRP0HhTqvB
Il6lQGQrA0EgtqzB4EGDQFXuGUGMpqrBNNKYQEyXFEF6s7fBvRf1QF7pCEETR7DBPejnQMRJGkEA
PbvBbxMFQd+jI0Glr7DBlOqzQAkLKUH+OJzB+i3sQFnRK0FY0Z7BtiOGQJisDUADhq3Bb9RVQGrA
mT9nzKPB78GaQLRBaEAutonBc865QAdWkEBOiZPByM69QI2kMkBVcaDBpsRIQM/lREA7sZbBXvCQ
QB3rYT8ns5HB0udPQFLpp0CCJYrBzMhvQCJrvECDe5XB/KxYQGP+eUC6F6jBT+y3QPD460C185rB
w4vPQLIpJD/oV63Bb7SYQKr5db8s3afBDx7eQKgN4L9uMK7B+UPoQEbU50AXwovBaWsBQSk2AEG2
G5zBv+m+QKOP4UBXF5DBQYjaQKKx+0CeBqHBUyemQK1Dvj5YW6nB4Z3rQAlQ1r7vpq/BuJi0QCtT
AcAoWarBQ4vTQCs4sj89CpDBCYSEQEyo7EBIQ4HBSnegQFGpx0AZX3rBc6maQLIjz0DZR4nB/4vc
QONGsD7ydYfBoI/MQO40IkHs97nBfdXtQA4uK0HbTKjB9OeeQE1wIkHEY6nBDArVQIOTBEH3mKzB
/CSJQGNjwT/YJ6bB61uXQKSNh0D+sZDByMOeQBA/FkDWVJ3BhMCAQKbZXEDtcpnBJbzLQKX6HEEA
5a3Bi4IEQRvi9kBltZHBQKKqQA1Huz/bXZTBIiqAQJGAr0CvvY7BaELvQGiDDUArXZLB+ZFuQPKB
ikBWKKLB7scJQQuaIL5BPbPBGJ+nQG0ZU8Bx96jB27aYQB7450Cphp7B7KLZQNW21D9cnq7Bjxhy
QGB6lb+V0aTBY5rzQPcpJMAtA7DBc8vtQL5X4ED2b4PBgbsOQRz/BUHHy6DBhB1DQNhM60BbSoDB
ZnSPQO/zBkFrVIDBN3O/QGNgzkBauXLBk42RQF7Fq0A6pXLBUSf9QAc/9z4oVoTBFVnFQK/46D7h
5oDB757ZQFc4Kb/99IrBHqe0QNxZGEG6JL7BlRHFQPo8M0FXKLvBCI/sQF/CHkGWNL3B3fPtQIzI
J0Frqp/Br8wGQX6rJ0FCqavB6xvmQBomPEEDnanBPfidQHrFHkE7yaDBmFKYQBiOM0EZnKrB246G
QDzfGEHwkq3BDZjyQJm5AEHu+LDBuiy6QOoV90BLDbDBiumCQHh7CUAqKK3BK3NVQB2jjT+4IaPB
KSeYQKHhaEDiTonBXES4QEbajkD4OpPBmsS7QFLrM0ARqqDB56pGQJYPQEBYOZbB7eaTQH89YT8T
N5HBDhtNQC4zqUAINorBU1NtQDiXu0DGwZXBjU1SQC/7dUDKp6fBjU69QB3lAUFYAJbBOHPRQKqD
Rj+vk63BdUGbQFfQYL80tqjBqyHhQJAwzb/1Na/BtzTrQJj/0UB9dYzBK1sFQUHMAUEOC5jBW93B
QEW64UDot47BHpziQL/rCkGKg5rBdg+oQOzh7j57xKnBEhDuQLaGhL5zMrDBLq63QISp9L8AgqvB
wUjSQDEMtz86tY/B2hCEQMRk60AssoDBCuafQBGSxUBSvHnBSoGbQNOBz0BC0IjBUfnbQMSVkT60
BojBrdiaQDzHIEGRfKvBIc/TQOI9BkGATrHBVbreQFWpLUElALTB6WHhQDgzH0GoQaHBMSeKQOmN
yT/WYqbBLa+XQF/5iEBkxpDBg8CeQMLmGECQSZ3BOUSAQIggXkDIQZnBLpfLQJSnHEFlY6zBCDsH
QZOR4kA5JJHB4iKqQO04vT9Vd5TBtqqBQMi2sUCkC4/B4Q/vQMJ1DECVYJLBsoFpQFlQikA7+KHB
iPgKQfA0ID0qprPBfDurQBLWTMBQlKrB7AKeQHzrB0EDF5jBDx7bQPgx5z8Req7BoVd3QJa7jr/B
wqXBP//2QGB2GcAtS7HBrMLuQCcCuEBz1YbBSpMTQbcwCEENxZvBDQRCQGaq6UDjCIDBI6WOQIk9
BkEvjH7BNVy+QAily0ChdHHBGbmQQFvUqEA3+nLBbQb+QEZrnj4uzoXBaDjIQF82yD7syoDBoKfU
QGmLLL918IvBPFGVQL+xMEFv/qfBPU6MQNEOIEEZfrPBikqMQJyBFEGDVabBQXr2QCxzA0HA6rHB
ZWDFQErT80CnKqzBGGTFQNp2BUE8U7nB87MAQbcRK0FsxrTBRpXPQI5JLEEm6rvBs8vYQAW6PUEK
urDBEs/PQOB/K0Gyv5zB/0EBQVyLJEEmjqLBv+KDQM0MD0AQP63Byq5XQA7tkT8RkqPB2mGYQCqg
bUAcPYnBm6G4QG8uj0C7dJPBSuO7QJvAN0AeX6DBLY5HQE4HQECLtpXBVJKTQJhPWz+4vJHB+qFM
QBknrEDVIYvBV2R2QMLrvkCIJpbBCkZMQBA0dEBgQqfBlGSxQNVU+0CHcpjBHWzMQPmJEz8a9q3B
jvqXQD7lf7+lyqbBbgfbQKii6L9qV67B3nXnQKXQ5UA8i4vBORX5QKmbDEGVWJjBY9C8QEsu5ECz
P4/BWtTPQJWLC0Hz7ZzBDIKkQJ92pT5qFKnB27jnQGOr/L5Ii7DBriizQNxrBMCndqnBTRXWQHvZ
sT8ShJDB+MyCQHm76EDUk4DBgg2hQNO1xEAgyXnBxYSaQDrTzUD614jBKQngQJ/EvT5Lx4fB3PnI
QBoFGkGJ1brBkD/dQAJL70BGkbHBSMwGQas/GEFmkbDB7xvFQJiEGEHozKbBCjOIQE10vD9ZzKXB
YiWaQPCIiEAARJHB60SfQBMeFUCuXJ3BKL6BQKrqW0DmX5nBKGPeQJR7EEH5x7DBRlACQXTf/0D6
GZDBgmqsQBKKvD9cVpTB9HyBQEjorkB+2I7B5+vxQGsYC0BvcJPBtdVqQLKFiEALJ6LBCxcHQcDP
fr7mF7XBPxWnQFeVVcDWQqfBIgqSQAPf90A/+pvBh/vVQOqhyz/4ta/BvBtzQESKmL8O/qLBW93v
QGz3KMBuZLDBru3wQH7D0UCz6oTBIwAIQVzeF0EMh5vB9/4/QMYr5UDFNX/BPsiLQN8yBUFCp37B
uq6/QO+ZzED/D3LB+OWTQPVfp0CBnnLBVbAAQQOV/D4hIoXBxWTKQDKRBz+s9IDBtYDbQMZVJb8A
8orBTZzJQGWXK0HnW7rBEnLaQJXDFEH2AcLBMZunQHF/FEGjTbvBunHsQH5c4UBHb6rBOtO7QMBt
5ECgD7LBHKruQAb25EDyw7jBGeIOQS6yEUGmeKnByw0PQX+4EkHj1LfBBS0HQVXVKUGlQLDBGJ2i
QPgmF0HnaajBoU7NQJFgKUHcUqXBdeWAQNrNBUDh16zBJIRUQMw9ij/pZaLBw+qeQPWha0C86InB
nm65QCmjkUBZmJTBBrW7QPlJMkC4DKHBpf5KQAhDP0DLiJXBqvqVQMkdaz96wJDB369PQIWrpkDB
horBovtvQIJUvEB1tZXBbztMQC3mb0BqP6fBJLKiQBajA0FxAZXBQMKpQPxylr6g767B0E+dQFBt
n7/wM53BV57FQKiaIMCsh6rBcr/cQPnc8kBvH4nBX97nQLIuFUGRWJXBEwGyQH+b7UBWjozB2kC+
QKHgEkGXrZnBHMGXQJ1OQ758m6TBuGXAQElSur+O6rHBwTG0QP3DGcDtKKDBgonhQIEOxD93vJLB
j7pzQIOq3ED9W3vBoqKeQNvSvEAkr3fBDKOUQEQuzUCbNYfB/1X1QGVjYj8r0ojBq6uzQPsyLUGH
3LXBGLDuQLJ/FkHycK7BklblQL91PUEneqjBHDmtQK1zIUE7lKLBoRR/QG9ViD95XKHBW5CcQPOC
i0B2IZLBpsOdQJnnCUCKvZzBHUKDQNifWUCma5nBYdHNQPZfKEF+k6vBqZX2QMtmCEEAdY3BZxq1
QBZHzj95bJPBdgeAQFy8rkDypY7BibT4QJEk7j/cNprBa4BtQFCTg0Do1aLBjBbRQLGgx7/p3rvB
NFu5QDhKWsBfDZnBBEmCQLLSAUFY3ZfB5y+mQLCoBD/Uj7TBtvuPQJ8Jlb/9QZXBXfjWQB+CWcCF
0azBwg3pQItp3kDL34LBeIH8QPGRIUGNdJjBAvUwQDES0kBtnXnBy7x5QIbi/UAzvHXB4Pa7QLJC
x0A2eG/B/JKXQF1ym0BvWXPBYBUMQXbBTD+i5YnB6YPuQDOkwD81woHBuo/nQCUM8b3eq4fBtwKc
QC/JOUGfLLTBlm3JQFqiMkEQObzBqw2jQGeXHkHUebjBcfgAQWiYEkFjVqfB2nfdQGMfCEG3IbHB
4usBQVYqHEHz4LTB+mH4QDPQOkEWMqHBr5n6QHVUQkHYDa/BXKPNQIYhSkHR/qbB4aGSQEACGUG5
gabBUyGhQJ8gMEHcxp7BSk1eQMlrvD+kb6jB/25PQFWXTD8EPpvBn0yoQF0AdEBJFYvBW+O3QODN
mECrkpbBz6y0QFXdHECa/KLBq3RNQMupQ0DiDpXBjOujQBDcoz+qN43BES1NQFj2oUCc/orBXuls
QDTavkDEIZXBpzBOQBoZYkC/aqfB

> <OMEGA_E>
sOM1PqRdhz5gixs+rMqkPijv4z7Axls/

> <OMEGA_NBR>
     23897

$$$$
50167947
  -OEChem-04172616093D

 64 66  0     1  0  0  0  0  0999 V2000
    6.5289    0.6707  -21.6950 C   0  0  0  0  0  0  0  0  0  0  0  0
    4.7791   -0.9038  -21.0371 C   0  0  0  0  0  0  0  0  0  0  0  0
    5.6769    7.4227  -19.4144 C   0  0  0  0  0  0  0  0  0  0  0  0
    6.9364   -1.7289  -21.8223 C   0  0  0  0  0  0  0  0  0  0  0  0
    8.0040    7.8464  -19.3378 C   0  0  0  0  0  0  0  0  0  0  0  0
    5.2262    0.4211  -21.2108 C   0  0  0  0  0  0  0  0  0  0  0  0
    6.8776    7.8920  -20.1235 C   0  0  0  0  0  0  0  0  0  0  0  0
    7.3849   -0.4040  -21.9934 C   0  0  0  0  0  0  0  0  0  0  0  0
    5.6315   -1.9776  -21.3504 C   0  0  0  0  0  0  0  0  0  0  0  0
    5.9420    7.0635  -18.1153 C   0  0  0  0  0  0  0  0  0  0  0  0
    6.5523    1.4313  -17.9127 C   0  0  0  0  0  0  0  0  0  0  0  0
    4.2448    7.4164  -16.1708 C   0  0  0  0  0  0  0  0  0  0  0  0
    5.2288    6.3339  -15.6906 C   0  0  0  0  0  0  0  0  0  0  0  0
    4.9043    6.4826  -17.1792 C   0  0  0  0  0  0  0  0  0  0  0  0
    6.8592    0.2686  -16.9750 C   0  0  0  0  0  0  0  0  0  0  0  0
    7.4722   10.7706  -21.0084 C   0  0  0  0  0  0  0  0  0  0  0  0
    5.0377   10.0966  -21.1841 C   0  0  0  0  0  0  0  0  0  0  0  0
    6.4842   10.1705  -23.2392 C   0  0  0  0  0  0  0  0  0  0  0  0
    4.3353    1.5720  -20.8137 C   0  0  0  0  0  0  0  0  0  0  0  0
    6.8819    8.3481  -21.5656 C   0  0  0  0  0  0  0  0  0  0  0  0
    4.8139    4.2536  -18.1073 C   0  0  0  0  0  0  0  0  0  0  0  0
    4.9974    2.3660  -19.6736 C   0  0  1  0  0  0  0  0  0  0  0  0
    4.0696    3.4682  -19.1736 C   0  0  2  0  0  0  0  0  0  0  0  0
    6.4655    9.8390  -21.7304 C   0  0  0  0  0  0  0  0  0  0  0  0
    5.3269    1.4469  -18.5679 N   0  0  0  0  0  0  0  0  0  0  0  0
    4.0597    5.4595  -17.7829 N   0  3  0  0  0  0  0  0  0  0  0  0
    7.4381    2.2325  -18.1919 O   0  0  0  0  0  0  0  0  0  0  0  0
    3.7350    4.3380  -20.2571 O   0  0  0  0  0  0  0  0  0  0  0  0
    8.6354   -0.1636  -22.4474 F   0  0  0  0  0  0  0  0  0  0  0  0
    5.1978   -3.2480  -21.1938 F   0  0  0  0  0  0  0  0  0  0  0  0
    7.6355    7.2651  -17.7404 S   0  0  0  0  0  0  0  0  0  0  0  0
    6.8675    1.6865  -21.8361 H   0  0  0  0  0  0  0  0  0  0  0  0
    3.7836   -1.0944  -20.6642 H   0  0  0  0  0  0  0  0  0  0  0  0
    4.6969    7.3669  -19.8648 H   0  0  0  0  0  0  0  0  0  0  0  0
    7.5932   -2.5547  -22.0530 H   0  0  0  0  0  0  0  0  0  0  0  0
    8.9907    8.1344  -19.6693 H   0  0  0  0  0  0  0  0  0  0  0  0
    3.1711    7.3200  -15.9520 H   0  0  0  0  0  0  0  0  0  0  0  0
    4.5329    8.4774  -16.1332 H   0  0  0  0  0  0  0  0  0  0  0  0
    6.2210    6.6199  -15.3114 H   0  0  0  0  0  0  0  0  0  0  0  0
    4.8593    5.4625  -15.1301 H   0  0  0  0  0  0  0  0  0  0  0  0
    7.9117    0.3194  -16.6594 H   0  0  0  0  0  0  0  0  0  0  0  0
    6.2080    0.3293  -16.0905 H   0  0  0  0  0  0  0  0  0  0  0  0
    6.6790   -0.6819  -17.4984 H   0  0  0  0  0  0  0  0  0  0  0  0
    8.4851   10.5875  -21.3962 H   0  0  0  0  0  0  0  0  0  0  0  0
    7.1948   11.8197  -21.1884 H   0  0  0  0  0  0  0  0  0  0  0  0
    7.4509   10.5659  -19.9278 H   0  0  0  0  0  0  0  0  0  0  0  0
    4.3236    9.4354  -21.6966 H   0  0  0  0  0  0  0  0  0  0  0  0
    5.0163    9.8920  -20.1035 H   0  0  0  0  0  0  0  0  0  0  0  0
    4.7602   11.1457  -21.3641 H   0  0  0  0  0  0  0  0  0  0  0  0
    5.7741    9.5173  -23.7675 H   0  0  0  0  0  0  0  0  0  0  0  0
    6.1953   11.2215  -23.3872 H   0  0  0  0  0  0  0  0  0  0  0  0
    7.4968   10.0090  -23.6375 H   0  0  0  0  0  0  0  0  0  0  0  0
    4.1827    2.2328  -21.6798 H   0  0  0  0  0  0  0  0  0  0  0  0
    3.3642    1.1832  -20.4736 H   0  0  0  0  0  0  0  0  0  0  0  0
    7.8964    8.2201  -21.9713 H   0  0  0  0  0  0  0  0  0  0  0  0
    6.1781    7.7222  -22.1339 H   0  0  0  0  0  0  0  0  0  0  0  0
    4.9237    3.6347  -17.2046 H   0  0  0  0  0  0  0  0  0  0  0  0
    5.8090    4.5326  -18.4839 H   0  0  0  0  0  0  0  0  0  0  0  0
    5.9207    2.8259  -20.0557 H   0  0  0  0  0  0  0  0  0  0  0  0
    3.1654    3.0185  -18.7374 H   0  0  0  0  0  0  0  0  0  0  0  0
    4.6271    0.7966  -18.2724 H   0  0  0  0  0  0  0  0  0  0  0  0
    3.3306    5.2220  -17.1410 H   0  0  0  0  0  0  0  0  0  0  0  0
    3.6584    5.8255  -18.6225 H   0  0  0  0  0  0  0  0  0  0  0  0
    3.2694    3.8481  -20.9248 H   0  0  0  0  0  0  0  0  0  0  0  0
  1  6  1  0  0  0  0
  1  8  2  0  0  0  0
  2  6  2  0  0  0  0
  2  9  1  0  0  0  0
  3  7  1  0  0  0  0
  3 10  2  0  0  0  0
  4  8  1  0  0  0  0
  4  9  2  0  0  0  0
  5  7  2  0  0  0  0
  5 31  1  0  0  0  0
  6 19  1  0  0  0  0
  7 20  1  0  0  0  0
  8 29  1  0  0  0  0
  9 30  1  0  0  0  0
 10 14  1  0  0  0  0
 10 31  1  0  0  0  0
 11 15  1  0  0  0  0
 11 25  1  0  0  0  0
 11 27  2  0  0  0  0
 12 13  1  0  0  0  0
 12 14  1  0  0  0  0
 13 14  1  0  0  0  0
 14 26  1  0  0  0  0
 16 24  1  0  0  0  0
 17 24  1  0  0  0  0
 18 24  1  0  0  0  0
 19 22  1  0  0  0  0
 20 24  1  0  0  0  0
 21 23  1  0  0  0  0
 21 26  1  0  0  0  0
 22 23  1  0  0  0  0
 22 25  1  0  0  0  0
 23 28  1  0  0  0  0
  1 32  1  0  0  0  0
  2 33  1  0  0  0  0
  3 34  1  0  0  0  0
  4 35  1  0  0  0  0
  5 36  1  0  0  0  0
 12 37  1  0  0  0  0
 12 38  1  0  0  0  0
 13 39  1  0  0  0  0
 13 40  1  0  0  0  0
 15 41  1  0  0  0  0
 15 42  1  0  0  0  0
 15 43  1  0  0  0  0
 16 44  1  0  0  0  0
 16 45  1  0  0  0  0
 16 46  1  0  0  0  0
 17 47  1  0  0  0  0
 17 48  1  0  0  0  0
 17 49  1  0  0  0  0
 18 50  1  0  0  0  0
 18 51  1  0  0  0  0
 18 52  1  0  0  0  0
 19 53  1  0  0  0  0
 19 54  1  0  0  0  0
 20 55  1  0  0  0  0
 20 56  1  0  0  0  0
 21 57  1  0  0  0  0
 21 58  1  0  0  0  0
 22 59  1  0  0  0  0
 23 60  1  0  0  0  0
 25 61  1  0  0  0  0
 26 62  1  0  0  0  0
 26 63  1  0  0  0  0
 28 64  1  0  0  0  0
M  CHG  1  26   1
M  END
> <OMEGA_C>
gezQQGexKz9ij63BOO6YQAphZ78VTKjBW6m1QL+G7UCsUJvBRvfdQAhM3b8clK7BXhAAQQ8W+0DA
s5rBsTynQJKY1z6qr6nBgxXcQDeL/EDU/KDBylDsQFTWzr6B8q/BbzW0QJAh/b+nzarBQSW+QJcI
4kA37JDBMqzRQFgztz85TY/Br9WHQItT7UC1XYHBTVKnQJevykCmDHvBCfCcQGhxz0AXb4nBo37b
QFqEiT62zIfB8BvvQDRULEEsEajBEDWhQNGLIUH5eKnBq37PQEG6IkH76bnBxLqKQF44yT+FgqbB
xzjcQNKRBUFkhqzBNwuaQEQdiEDQ25DBZ+qfQEBsF0B9Y53BATqCQJv3XUBwY5nBXeXOQHBsHUHG
163BMHaqQIY1uT8ki5TBAumBQBu0rkBaQ47BNgXuQCHhDkDwiJHB7AlvQKzQikCaDqLBsCoKQYSF
J75RlLPB+FOmQIneT8DNjKnBZFb0QBV86EBE7I3BhcLbQDHe1z9HsK7BeCZyQLQUjL8/UKXBKU2W
QD+960Af657BKPvyQJ9/I8B6bLDB4dkPQYImAkG2Wp3B3/NKQMI96kA0O3/BRA2RQHKjB0HPEIHB
UxLHQDHW00B++3TB/36bQA/NrkAVFXLB/Cz9QKSHoz5lRoXBG6jGQBSaqD5XuYDBMbrVQF2TLr/H
/IvBAMMHQVZmKUF5K6vBvTvmQGMdPUHuganBqG3uQBoOKUEebJ/BzFqKQEP3FkG1kq3BJ4WgQH1F
HkHz06DBPVOYQMZUMkHD6arBl8W4QLZGGEHpI77B0j/GQDKLM0EOGbvB2eXvQOMkIEGJGb3BdNiF
QPjmDkAtcK3Bk05XQAdzlz/YyaPB/q78QH6FA0Ekxa/BPrPFQCYc90AlErHB/46dQK6faEDyoonB
gOO5QDcLkUAI35PBR3a9QOLaNED9caDBDJZKQL8uQUBL5pXBTBGUQJ7wSz/RLZLBOSlVQGoap0Cv
IInB3iJqQNRqukDh+pTByD1RQKpHdkD8ZafBfuXPQD6+Lj9wsK3BRbuYQFNaaL9XMKjBz0u1QGlG
7UDDNZvB4qLdQNI3278nvK7BY6//QJtL+0AhoprBxYOmQMTt1z7gqqnBHZbbQKl7/ECE56DBm4Lr
QORkxL4EJrDB3jS0QC6g/L9vyqrBGfq9QO+g4UDl1ZDB/0vSQJayrj/M2Y/BpXOIQN/N7EBTHoHB
GqWnQLKkyUC13XrB3eecQOT+zkApT4nB3BDbQARCfj761IfBzTLRQGpdIkH4ArrBnznsQARJLEHD
v6fBNC+fQObCIEEGRqrBF+qJQBinyD8VaKbBosDbQAJWBUHXeKzBKrGYQJtPh0BRgpDBjVufQBFa
F0CsVZ3BH9uBQFGIXkDwZpnBAfTNQBgTHUFZ963Bdf2pQMb8uD+AgJTBjlyBQHGsrkALJI7BMJbt
QEZTDkCXcZHBCHRyQKf4i0DdCqLBv6kJQR6cBb4h3bPBN+OmQDbnT8AqcqnBmij0QINz6ED+3I3B
elbaQIDG2T9a4K7BfUxyQJ2/jb+/EKXBLeKVQL9360C0yJ7Bi8PyQHEPIsDdrLDBv5MPQbhqAkHG
Sp3BNz5MQMYP6kAzmX7B0RaSQFxQB0EPwYDBfZvHQL5K0kD25HTBx6ObQMy5rUAK/HHBsBr7QDAq
xD6kWYTB3erCQPWAjz44b4HBpn3ZQAZdOb9l7YvBB+O7QFi0F0ESjr7BT6XHQOcXM0EmWLvBw2Hy
QKARIEGttrzBxFLqQE29KEGDJJ/BEaUGQRDyKUEaiKrBro3iQFj4PEGSKanBvGKcQGgNHUEcs6HB
00+WQP6RMUF2pavB76aJQLZHFkEg267BL5uEQE+ZDkA4Ua3BRhBWQMselj+FmqPBkFH8QLJkA0Hr
qq/BaonFQP4y9kAL/bDB0v6ZQMdcZkAgTInBjWq5QFU4j0AKFJPBreu8QOBXNEBScqDB/R9IQE96
QkAdS5bB0uySQF+5WD/XtJHBmwhTQNPyp0DSE4nBEYRqQMtVukDP8pTBj+VVQF0JekA3nafBxorQ
QMYjPT/OAK7BJVmZQFHGXL+2uajB5S26QJ/5/UCIl5fBF2beQNWz0794Rq/BFucCQfc8/EDIjZfB
txKnQERa8D4PE6rBgGviQP8PCEHDypvBtEfsQJr2pL7Ig7DBh+G0QA4h9r9BbKvBnRDBQPY24UAb
go/Bln3RQH9VrD8tEpDBY8uHQDu+6kCmnYDBUIGlQC5exkBn13nBdqGdQJ8EzkCX2IjB3qzZQIhV
Vz6CMIjBie7aQDd5L0G44LPB0CybQHAuH0E5y6rBQSrTQCJvB0FfkLPB1UuKQAnYzT86xqbB9Z7m
QHEKHEEbp6LBlBaZQNvTh0BQxJDBlFCfQFa5GEBGjJ3BhMiBQNSjX0BjkpnBk6nLQM4zHEGgGa3B
ilmpQB+WuT8vyJTBY5KCQLunr0B3fo7BRRbtQBzVDEB1fJHBVS1xQCyCjEA8LqLBfxwKQSDjfL06
HLTBJ3unQJzNTMDgSarBGHr3QL1O10APxI3BO/PaQK1D4T8WFK/B+odzQDq+iL+9oKXBSteaQGM2
A0E8j5rB7JbzQD8MHsBeR7HBcSoTQdtZAUFz/JnBGCFKQPhT6ECioX7BiuORQEYjBkHUcn/Bpt7E
QHzbzUDJyHLBqAuYQOjoqUCY93HBgKL5QJo2qD7zn4TBjFPBQMIGcT5y1oHBMfXXQMeuQL/la4zB
10H9QMjCLUEPobXBWNjIQIj6L0FNbLvBEInVQIBhPkEQZq/BJ3mPQKuqEUGj+aXBrDOWQIAyLkEI
YKbB84KJQIjLH0FFZrLBvXLIQGEr80Av167Byu3AQIMoCEELFbvBkHX1QDvKBUF9XrXBL1WFQGAI
EkCrnq3BVY1WQKKqmj+eHaTBfbrcQEnXKUGAyJ3Biz4EQTfIHUEm46TB9hSaQNL9Z0AtgInBOe65
QCIEj0C0X5PBfRq9QJLTNUBagaDBQm9IQL9cQ0BTXJbBu/eRQARMWz9PFJLBKedRQEcvqUBl+4nB
VUByQCfBvECCZpXBPAFUQKsOe0CbsqfBoQnRQGXkQT+r8a3BEbuZQJrvWr+E+ajBVzS7QH3G/UAT
mZfBrj/fQOzy0L/cUq/BR2oDQf3a+0BoZZfBuWqnQDp29T7pJarBmKjjQEO2B0G71JvBhPrsQFmL
mL7VeLDBrZG1QLZ09L96n6vB4LfBQChQ4UBWbI/B5EjRQEadrT/fCJDB6BKIQMWg6kBhl4DBJIal
QKcDxkDU1XnBeP6dQHURzkD514jBx6/ZQESTXz7+LojBCXGcQJaKIUGtYarBnIPMQGd8BUGE/rLB
tTfdQBucLEHH07TBc1uKQBopzj+D0qbBA2/oQEQeG0G8EqPBUiaZQAMBiEBr1ZDBlCafQGHXGEDy
jp3BxI6BQE2VX0Dgj5nBFFHLQHRYG0H0K63B2TepQCqruT/GzJTBx+GCQHf6r0AYlI7Bzr7sQJXC
DUBIcZHBs9FvQLlMjEAFLaLBxnMKQaB98byoCrTBAU2oQAoiTMDFlarBzhD4QAiJ10BjgY3Bn2bb
QPbs4z+f567BSN5zQHSyiL9UDKbBFvmbQIQtA0G3nJrB7630QCRkHMDgR7HBZbwTQYkaAUG/v5nB
/JlKQHRT6EBDtH7BikqSQB0LBkF3PH/BztPEQL9BzUCipXLBQdaXQPl+qUBuHXLBcKf5QLjorT5F
oYTBDGHBQLRYcz4R0oHBcBPYQOtEPr8tcIzBYB6cQLUVMUEdQabBXomJQAqqIkGNyLHBdn6OQCtB
FUE3IqXBfdjtQOhTAUGh6bTBHr++QAUw8kBWx63BBsq5QOGABkGrbbrBhXL+QNqmKEFx87bB8pbJ
QFcoLUGEILzBd1bcQGJNPEFL2bDBikyFQPBbEkCYpa3B/85WQIr4mT8UMaTBwgLhQOJ0KUG+UZ7B
A/UEQaHSG0FdxKXB+kSaQJu4aEBniYnBNfK5QJkBj0D0gZPBWu+8QAIoNkBOfKDBPGBIQNAgQ0CR
Q5bB9u+RQPiTWT+nJZLBUhpSQIWoqUDlIIrBzZJzQJU9vUCzfpXBBk1SQC5aekCwo6fBEnXQQDSd
Oj+fwa3BsReaQFVqZr+dfKjBmUqoQLo+80CKVJnBbAHgQFDq078Luq7BsezwQKSTAkESQ5vB3AKn
QHWD4D5q5qnB6vrHQLEQBkFoFZ/B0gftQCRUor6QEbDBsYC2QCcV+b/y9qrB9RC5QBIG30AcpJDB
MVDUQNLnvj+cE5DB5OWIQEdr6UDlWYDBY0GqQFLTx0B/1XnBwSScQH4Hy0D6kojB3L3eQGzi1z7c
yIfBcd7zQPH7L0GsqanBtjO/QJ7iKUEkZrjBtY/0QGYUDUFvkLTBu6GJQIXoxz9ykqbB7Rq3QLvS
FEGCuafBVoaXQIZ7hEBdJZDBlhifQOX4F0BknZ3BmJKAQGeiW0CoPZnBnXfYQBKzHkGpXK/BbEas
QAV9uz8h65TBYMd/QHF/qkBu/ozBKFvwQFUgEUCrA5PBiBNtQHPfi0CqfaHBEoUKQfB2EL2pgrPB
RhSqQPutTsB7nKnByHzwQOeY40CaJZDBwjHaQFWd4D+q7a7BNuJ0QEinj7/TgaXBjRqHQGEA8UC0
rJvBD9f1QCZwHcAQlbDB878GQUVjCUGSup7BuINOQF3a5UCt1nvBUm2RQJvIBUFKdoDBuaXKQHHv
0UCHJ3XBQ3qgQJg4rECgEXDBpEcAQSY3AT9vb4XBH1DKQP7bDz/ptIDBtd3YQJzlEr+JOovBvikD
QXSIKEFPKaPBDfsEQVlLN0ENda/BoL7eQJhiPEGbVKbBil6rQMEKHkHvnbzBt4SqQDZWNkF+8bTB
MLzVQPc+MUHwEb7BDuLfQDo1AUGuf7jBYPYEQUthFEGxh7rB/OcDQRIoBUFHWq7BjV6DQP/MDUAr
ea3BIIBWQF96kj/Do6PB51OgQEigC0EwnKzBKzemQKAPIkHmv6PBlhCaQNhiXUCNQ4nBNcW3QJzO
jUChy5LBjHu7QJ0gOEBw66DBxd9GQNKPPEADMZbBuReXQLyPST8GWpLBS2tUQKFqokCld4fBCf9h
QB17tkDxaJPBYmNQQJA5e0AgKqfBEyXQQHFbPT/rya3BixWaQB/XY7+BV6jB3b+nQHKN80CAVpnB
rJbfQMaQ0r+y267BO3XwQAWPAkFHSZvBcuymQLuI5T4oy6nBk4PHQLgxBkHTEp/BwY3sQJ3CnL7m
OrDBbFS2QDHD978W7qrBVGy4QOhu30AcoJDBU4DUQFijvD8UEZDBdSGIQHGt6UCUUIDBE7epQLw8
yEAM1XnBXXybQD13y0BJj4jBIeveQNERxz5L5ofBDXO+QND7KUFKYbjBu1rzQBnqDEEZprTBqPbz
QHneL0EVzKnBPaCJQHDuyD9Ka6bB+Ki2QJsUFUFbqKfBsqSXQG8EhUDWHpDBwDOfQMBnGEAAep3B
C8yAQCJyXED6MJnBluXXQFq4HkGgZa/B1x+sQJK7vD9vvJTBYx9/QCe0qkDq9ozB7ODwQMyrDkDP
JJPB4Q9uQB3xi0ARiaHBBioKQXTAw7z61bPB+fipQIAATsDAhanBmODvQN+d40ACKZDBp9bZQGQF
4j/M967BxTh1QC5gjr9NP6XBmJiGQGVF8UDMtZvBt0f1QAPCHMBi0bDBGIwGQYg/CUHHx57BqA9N
QDTm5UBYvHvBnnaQQPnvBUGdaYDB1hHKQI6C0kA9LXXBDCOgQNGIrEBaFnDBrYMAQdnO4j5CxYXB
wlzLQOYHCj+nroDBmt7XQKNCGb9mWovBJpWqQFm+NkH357TBed7UQFn1MEECM77BQ8mpQH1DHkF5
brzBkPUCQaeQBEE4cq7Bi0TeQFBtAUH7urjB4awEQSwfFEGEf7rBVEUDQedWKEENV6PBtfoEQbUF
N0HNqa/BREnfQJtoPEFua6bB4jyDQORkDkAtTq3BsJlWQMFekz/LdaPBHF+fQGoODEH8eKzBilym
QMFvIkGpoKPBXYKaQNV5XkCQPonBJsC3QAi3jkCIypLBLra7QIseOEAryKDBuhZHQP/FPUAPJpbB
GYOWQEoXUj+6AZLBBQJUQCpfokBrbofBiwBhQKWGtkDkX5PBjHtRQKz2ekCgL6fB

> <OMEGA_E>
ALYMPYAgBD249CU+wIc1PtA5Sj7QY0s+

> <OMEGA_NBR>
     30348

$$$$
50167939
  -OEChem-04172616093D

 64 66  0     1  0  0  0  0  0999 V2000
    7.2621    7.4956  -18.0468 C   0  0  0  0  0  0  0  0  0  0  0  0
    6.5005    0.6891  -21.6370 C   0  0  0  0  0  0  0  0  0  0  0  0
    4.7921   -0.9240  -20.9638 C   0  0  0  0  0  0  0  0  0  0  0  0
    6.9449   -1.7008  -21.8086 C   0  0  0  0  0  0  0  0  0  0  0  0
    7.7809    7.9077  -19.2401 C   0  0  0  0  0  0  0  0  0  0  0  0
    5.2127    0.4107  -21.1294 C   0  0  0  0  0  0  0  0  0  0  0  0
    7.3690   -0.3661  -21.9655 C   0  0  0  0  0  0  0  0  0  0  0  0
    5.6554   -1.9786  -21.3111 C   0  0  0  0  0  0  0  0  0  0  0  0
    5.8566    7.0966  -18.2967 C   0  0  0  0  0  0  0  0  0  0  0  0
    6.6046    1.3885  -17.9397 C   0  0  0  0  0  0  0  0  0  0  0  0
    4.4023    7.4344  -16.1314 C   0  0  0  0  0  0  0  0  0  0  0  0
    5.3962    6.3087  -15.8290 C   0  0  0  0  0  0  0  0  0  0  0  0
    4.8925    6.5331  -17.2666 C   0  0  0  0  0  0  0  0  0  0  0  0
    6.8934    0.2600  -16.9542 C   0  0  0  0  0  0  0  0  0  0  0  0
    5.0960   10.1366  -21.1893 C   0  0  0  0  0  0  0  0  0  0  0  0
    7.5505   10.6552  -20.8430 C   0  0  0  0  0  0  0  0  0  0  0  0
    6.6786   10.1763  -23.1447 C   0  0  0  0  0  0  0  0  0  0  0  0
    4.3041    1.5413  -20.7172 C   0  0  0  0  0  0  0  0  0  0  0  0
    6.8163    8.2789  -21.5114 C   0  0  0  0  0  0  0  0  0  0  0  0
    4.7282    4.2560  -18.0347 C   0  0  0  0  0  0  0  0  0  0  0  0
    4.9732    2.3704  -19.6064 C   0  0  1  0  0  0  0  0  0  0  0  0
    4.0315    3.4734  -19.1325 C   0  0  2  0  0  0  0  0  0  0  0  0
    6.5359    9.8055  -21.6525 C   0  0  0  0  0  0  0  0  0  0  0  0
    5.5877    7.2916  -19.5733 N   0  0  0  0  0  0  0  0  0  0  0  0
    6.7282    7.7956  -20.1127 N   0  0  0  0  0  0  0  0  0  0  0  0
    5.3278    1.4836  -18.4818 N   0  0  0  0  0  0  0  0  0  0  0  0
    4.0022    5.5019  -17.7801 N   0  3  0  0  0  0  0  0  0  0  0  0
    7.5283    2.0856  -18.3465 O   0  0  0  0  0  0  0  0  0  0  0  0
    3.7500    4.3448  -20.2292 O   0  0  0  0  0  0  0  0  0  0  0  0
    8.6095   -0.0972  -22.4307 F   0  0  0  0  0  0  0  0  0  0  0  0
    5.2484   -3.2584  -21.1594 F   0  0  0  0  0  0  0  0  0  0  0  0
    7.7786    7.4657  -17.0988 H   0  0  0  0  0  0  0  0  0  0  0  0
    6.8180    1.7123  -21.7728 H   0  0  0  0  0  0  0  0  0  0  0  0
    3.8088   -1.1367  -20.5710 H   0  0  0  0  0  0  0  0  0  0  0  0
    7.6085   -2.5118  -22.0698 H   0  0  0  0  0  0  0  0  0  0  0  0
    8.7858    8.2437  -19.4487 H   0  0  0  0  0  0  0  0  0  0  0  0
    3.3629    7.3581  -15.7798 H   0  0  0  0  0  0  0  0  0  0  0  0
    4.7297    8.4834  -16.0830 H   0  0  0  0  0  0  0  0  0  0  0  0
    6.4370    6.5488  -15.5664 H   0  0  0  0  0  0  0  0  0  0  0  0
    5.0701    5.4235  -15.2632 H   0  0  0  0  0  0  0  0  0  0  0  0
    7.9707    0.2319  -16.7336 H   0  0  0  0  0  0  0  0  0  0  0  0
    6.3331    0.4337  -16.0237 H   0  0  0  0  0  0  0  0  0  0  0  0
    6.5843   -0.6993  -17.3948 H   0  0  0  0  0  0  0  0  0  0  0  0
    4.3776    9.5336  -21.7640 H   0  0  0  0  0  0  0  0  0  0  0  0
    4.9935    9.9069  -20.1185 H   0  0  0  0  0  0  0  0  0  0  0  0
    4.8939   11.2050  -21.3561 H   0  0  0  0  0  0  0  0  0  0  0  0
    8.5729   10.4191  -21.1729 H   0  0  0  0  0  0  0  0  0  0  0  0
    7.3491   11.7237  -21.0097 H   0  0  0  0  0  0  0  0  0  0  0  0
    7.4487   10.4257  -19.7720 H   0  0  0  0  0  0  0  0  0  0  0  0
    7.6989    9.9450  -23.4845 H   0  0  0  0  0  0  0  0  0  0  0  0
    5.9548    9.5974  -23.7371 H   0  0  0  0  0  0  0  0  0  0  0  0
    6.4835   11.2510  -23.2756 H   0  0  0  0  0  0  0  0  0  0  0  0
    4.1071    2.1866  -21.5860 H   0  0  0  0  0  0  0  0  0  0  0  0
    3.3549    1.1293  -20.3438 H   0  0  0  0  0  0  0  0  0  0  0  0
    6.0801    7.7308  -22.1177 H   0  0  0  0  0  0  0  0  0  0  0  0
    7.8286    8.0731  -21.8893 H   0  0  0  0  0  0  0  0  0  0  0  0
    4.7533    3.6529  -17.1151 H   0  0  0  0  0  0  0  0  0  0  0  0
    5.7564    4.4895  -18.3482 H   0  0  0  0  0  0  0  0  0  0  0  0
    5.8854    2.8320  -20.0122 H   0  0  0  0  0  0  0  0  0  0  0  0
    3.1074    3.0251  -18.7387 H   0  0  0  0  0  0  0  0  0  0  0  0
    4.6060    0.9164  -18.0854 H   0  0  0  0  0  0  0  0  0  0  0  0
    3.2820    5.3285  -17.1084 H   0  0  0  0  0  0  0  0  0  0  0  0
    3.5917    5.8209  -18.6343 H   0  0  0  0  0  0  0  0  0  0  0  0
    3.3138    3.8571  -20.9179 H   0  0  0  0  0  0  0  0  0  0  0  0
  1  5  2  0  0  0  0
  1  9  1  0  0  0  0
  2  6  1  0  0  0  0
  2  7  2  0  0  0  0
  3  6  2  0  0  0  0
  3  8  1  0  0  0  0
  4  7  1  0  0  0  0
  4  8  2  0  0  0  0
  5 25  1  0  0  0  0
  6 18  1  0  0  0  0
  7 30  1  0  0  0  0
  8 31  1  0  0  0  0
  9 13  1  0  0  0  0
  9 24  2  0  0  0  0
 10 14  1  0  0  0  0
 10 26  1  0  0  0  0
 10 28  2  0  0  0  0
 11 12  1  0  0  0  0
 11 13  1  0  0  0  0
 12 13  1  0  0  0  0
 13 27  1  0  0  0  0
 15 23  1  0  0  0  0
 16 23  1  0  0  0  0
 17 23  1  0  0  0  0
 18 21  1  0  0  0  0
 19 23  1  0  0  0  0
 19 25  1  0  0  0  0
 20 22  1  0  0  0  0
 20 27  1  0  0  0  0
 21 22  1  0  0  0  0
 21 26  1  0  0  0  0
 22 29  1  0  0  0  0
 24 25  1  0  0  0  0
  1 32  1  0  0  0  0
  2 33  1  0  0  0  0
  3 34  1  0  0  0  0
  4 35  1  0  0  0  0
  5 36  1  0  0  0  0
 11 37  1  0  0  0  0
 11 38  1  0  0  0  0
 12 39  1  0  0  0  0
 12 40  1  0  0  0  0
 14 41  1  0  0  0  0
 14 42  1  0  0  0  0
 14 43  1  0  0  0  0
 15 44  1  0  0  0  0
 15 45  1  0  0  0  0
 15 46  1  0  0  0  0
 16 47  1  0  0  0  0
 16 48  1  0  0  0  0
 16 49  1  0  0  0  0
 17 50  1  0  0  0  0
 17 51  1  0  0  0  0
 17 52  1  0  0  0  0
 18 53  1  0  0  0  0
 18 54  1  0  0  0  0
 19 55  1  0  0  0  0
 19 56  1  0  0  0  0
 20 57  1  0  0  0  0
 20 58  1  0  0  0  0
 21 59  1  0  0  0  0
 22 60  1  0  0  0  0
 26 61  1  0  0  0  0
 27 62  1  0  0  0  0
 27 63  1  0  0  0  0
 29 64  1  0  0  0  0
M  CHG  1  27   1
M  END
> <OMEGA_C>
PWPoQJTb70DcX5DB1wPQQHZmMD+YGK3B2ViZQKaKbL/btafBuDzeQDiz2b8EeK7B8/z4QJwL/UCq
65nBZs6mQO5D0j4OCanBnc7rQMNyu75Yua/BFPm0QNFB/b8qfarBEGm7QGcX40CsX5LBEFnTQNO5
sT9thI/B+N+MQJDm7UArDYHBk62sQJ/gyUCxQ33Bn4+cQCsP0UADIorB2ZbcQCAlhT5JoofBmhKj
QKQvIkG3g6nBbJ3xQOd7KkFqvqbBL7fVQE7SIkFCKLnB4bqJQLNJxT/ZvKXBDh/aQJB2BEFdF6zB
i02XQFoxiEAWR5DBGySfQDi0F0DZ2ZzB2QGBQL5LXkBOD5nB2CXRQIDjHEE9OK3BJs6yQLZU6UAN
lpzBPk3XQDh1+UDI5qDBtn2qQPvmvT/J2pPBbRKAQHgPsECMPY7BmOfwQLZ6BUCuxZLBwABwQJkI
i0Br1aHBqsAJQZT4xr0NcrPBSvOnQDiKUMBiRqnBL+r4QE3n7kBKyojBXS3aQC0u2z+2Lq7Bm8Nz
QGx+kb9RkaTBN3nzQJ/BIMDkjrDBypIMQTPmA0H+lpvB8ThXQKR160ARenzBElqXQBu8B0ECqoDB
MfzNQN6P0UD/D3nBmD6iQEyNrUAMNnTB9g//QPWAbT573oXB7ajKQHsM3j6GMIDByrLSQCgHM796
KIvBsBWMQHKJGEGhHK7Bv8qfQLCCHkGe8qDBk5qcQHpHM0Fd2arBnSoJQbu0JkEmYqnBsyvrQGeU
O0HXE6jB4FvuQJ3PJkEYLZ7BS132QLQeH0FR4LvB3Y2+QPWOGUGD5b3BsnjPQOUDNEFsNLrBUm2D
QKHxC0AbsKzBfLdWQI+MkD8kwKLBWZDCQN9i90AW8bDBNoT6QHgrAUE9Ha/B+RqYQEzJaUDK64jB
kDS4QNipj0AyyZLBIFW8QF8/NUAWGaDB3N5GQI6bQUDW6JXB8mOTQCSaaj/nrpDB0wtSQAyDqkD5
3YjBFd5lQHpEukD9EpXBuhRUQIfadkDcV6fB5YvtQL6n20B7g5DBX47PQMP8Oz+vBK7Bd7WYQD79
Yr8R6ajBNZzdQPqE07+dwK/BM1oAQS2j90ASaZfBLU+mQJZm5j4wAarBHUvrQELnob4Ky7DBbkK0
QJre97+a26vBCzC/QMM55UBInpDBloPSQKqdrD8SCpDBMjaKQClC6kAXgoDBOfWqQLHbxkCRqnvB
2oWeQMkB0ECdcInBCEjbQOxqXz5zJYjBGJzQQBeMBUHS/LHBUt2eQHMDIkGzdarBBM7iQFSJLEF3
zrPB5oOJQBrKyT9NcabBenLnQHh2G0EsuaHBMD2aQJCfiEAu3JDB7WKfQJl5F0CDYp3BODKCQB28
XkCDVZnBlCzOQKGlG0E4ZqzBsD64QCGFAkGZSZfBlXjfQN8dCEFLGpvBBCaqQMAkuD9YopTB4V2D
QGuEsECvs47BVcrtQIV2DUDli5HB3pxvQFkji0DjCKLBS4UJQUB8KL3sc7TBfRWnQAr2TcA55arB
+kj9QNonw0A43IvBNsrZQNAt4T+29K7BoGhyQH1kjb/f0KXBx9LyQE9xHcDO8LHBRBgRQf3f+UBo
eZnBd3BQQHvQ5UCIBX3BaeaSQIUPBkGK9n7BowfLQOZvz0BG0XXBdVmgQFghqUBE4HPBGVT7QINq
sT5hp4TBUiXDQJ4vdT4wvoHBD6/ZQMQ6P79JWYzBM1HyQCM6AUGnULPBMlfBQP/J8kDS5KzBkOO/
QElUBkGyuLnBtJidQC+2MUFVfqbBHPuNQIDjIkFEK7LBvm6PQDb0FUFkV6XB6VbhQLdXPEEO9K/B
AjUCQWY9KEFcTLXBsFrRQMUMLUHWcbvB8E2DQFPaD0BAPa3BNiJWQMrOlD+WhaPB3ekEQfs6HEGM
kqPBwC7eQMelKUGhDp3BfVKcQBA/a0ByeInBUqy6QFnsj0BswJPBqOi8QCdQNEDxiqDBY0JKQJ2w
QkD60ZXBCRWTQPXsVj9i2JHB36dUQKUwqkBn+onBFwJyQAOxvEDFoZXBeIZRQEIJd0BYXKfB6+/p
QNNG7UAnrpDBgJ/QQDreLz/ira3BqgGZQBRcZL/eP6jB4ljdQI8P278lB6/BwQ36QMTW+0CZKJrB
g0anQP0H3j5LnanBZrnrQLdLxb4LULDBE/ezQBZW+78RBKvB+Ba8QDFs40BxeJLB18rTQDL2qz/2
0I/B+FCMQH4Q7kCVWoHB+RCtQOUjy0BwV33BoWKdQAYY0UClPIrB2TvcQPqfYT4/1YfBKELVQEXp
IkH1arnB/yKjQPWXIkEYq6nB/LDxQE4cK0E2GafBjBKLQKJvyj/WQ6bBLoHaQNL9BEG+KKzB2UCa
QPFmiEBsopDBiKSgQNqTF0ASJ53BE8qCQGajXUBuG5nB0CbRQNJRHUFwba3BaLmyQNvr60DmiJzB
7ZfXQGS++kCW86DBRWGrQNWruD8sYJTBGOCBQH5Er0B2S47B2nrvQBwHDECqeJHB9GRvQGFxikDI
yKHBMMUJQeCxEL5IELTBcTOmQLMLT8D/wanB3FP7QI6f6UAYRYnBrW3bQMoW2j/hw67Bh+JyQEDY
ir8eFqXB5g7yQOZFIsCcHrHB4DANQQ7wAkGQ5pvBx/VVQPvR6kBlS33BCcSVQCr6B0H8E4HBOAPO
QFrz00Da+3jBEjqjQALRrkBGH3TBh3r8QLpGrD6VbYTBv1vEQCldhz5WYIHBQ/HZQOcFQL/S74vB
R9z1QGA5H0EwLbzBhA2+QAVxGUE9Cr7B1MbOQLUNNEFUlLrB4NifQDqrHkEjIaHB0sqcQKC8M0GI
36rBghGMQPAfGUFxVa7BP0XvQDZcJ0GchZ7BPSUJQYSZJ0F26qnB4pzqQMApPEEsXqjBQ+CFQHX1
D0DIIq3BIzxYQL5tmD+ieaPBcTfDQJAT+EDaAbHBswb7QJTLAUFqH6/BnWedQA05akDgUInBcz+6
QE8ZkUAFl5PBZBC+QKhINUA3PqDBWQ5MQGBbQEAQmJXBpTSUQHL5WT9siZHBpC5XQFmKqEAlzojB
PGFnQERfuUCPAZXBIvZRQCIUdUBxHafBS97ZQMNqAEG3NojB4wzHQMUnJT+XG67BJEOZQNtchL/g
saXBpwzaQCUu27/XIa/BIQ73QHp3B0Ewc4/BBVSiQHpQnz5gHqjBTRfjQCyVur5RhLHBegK1QLz0
AsDXRKnBIrG6QGBy5kBUHI7BY1HbQBJZwj9g75DBvPF6QD5l50AvAIDByw6cQPAEw0DLynnBz1iW
QFWHz0BysYjBfk/pQHOYGD8524fBLPXSQF5J90C2P7PBGO24QFLSGkHqJajBf+P7QChZHkFF8LLB
PX6FQIQjsz+CFaTBU23+QLi1BUF+DKPBI9KZQMj4ikDKSJHBZ/aeQDbDFUDBuJzBRrCBQEJTXUA6
+pjB9CDhQI2ODkEWJ6zB1fnEQKBC5kDRWpjB8Q/oQCfo/0BEBpnBoxuwQICNyT90k5PB0Kd/QDz1
sEChSI/B7Xr1QMamEUBtCZXB6EZqQFp6h0BhDaLBq1gDQRAYF727ELfBVjusQNaoVcDgAKfBKI/Z
QKHUA0EafX/B/JTNQBGn1j94EbDBSDp6QHPIpL8YHKHBl4LvQDFlH8BBzLHBhcAJQe3UEEGw/I3B
6F41QOzn4kBshX7BqLSFQJBcBEGhHHzBETq6QDZEykD2enHB3jSPQANzpEDA43PB5rwFQcdMQT+w
KYbBj3HWQH20UT8NpYDBgxbkQJDl5r5/N4rB6VfvQJ3c5UB9GLbB+ZW+QIiL4UAbkK7BldPAQGC9
AUH3JbrBvu3CQOhRKEHBFaPBftCmQPzkIEFQDq/B4pKkQGDtD0F0eKPBZAoDQSLfK0F66q3B9yAM
QZkTFkE7G7bB/FvoQDhTJEFOn7nBW4txQAw3/D+P5qrBz6tVQOYzdD+Uk5/B+U4HQSKZ7kB2EqbB
9jQLQYwEEkEvJqHBm3GfQHaDc0AGvYnBza+4QPRalEABzpTB4JO5QKKYMUCiT6HBOiFLQNzUQUAA
9JTBLXObQO+PiD8cA4/BzcpJQDgzqEAVj4vBsh5xQCiwvkAZR5bBrNFLQDS/a0DF8KbB

> <OMEGA_E>
QO4IPqBpcT5AswQ+JLP1Pg==

> <OMEGA_NBR>
     34763

$$$$
50167988
  -OEChem-04172616093D

 73 75  0     1  0  0  0  0  0999 V2000
    6.2974    0.6100  -21.7135 C   0  0  0  0  0  0  0  0  0  0  0  0
    4.7563   -1.0300  -20.7583 C   0  0  0  0  0  0  0  0  0  0  0  0
    5.7749    7.4584  -19.3574 C   0  0  0  0  0  0  0  0  0  0  0  0
    6.8619   -1.7565  -21.7499 C   0  0  0  0  0  0  0  0  0  0  0  0
    8.0449    8.0777  -19.1084 C   0  0  0  0  0  0  0  0  0  0  0  0
    5.0813    0.3019  -21.0669 C   0  0  0  0  0  0  0  0  0  0  0  0
    6.9740    8.0504  -19.9669 C   0  0  0  0  0  0  0  0  0  0  0  0
    7.1932   -0.4181  -22.0418 C   0  0  0  0  0  0  0  0  0  0  0  0
    5.6418   -2.0601  -21.1105 C   0  0  0  0  0  0  0  0  0  0  0  0
    5.9838    7.0406  -18.0629 C   0  0  0  0  0  0  0  0  0  0  0  0
    6.6709    1.4831  -17.9620 C   0  0  0  0  0  0  0  0  0  0  0  0
    4.6597    7.7157  -14.5322 C   0  0  0  0  0  0  0  0  0  0  0  0
    4.3036    8.4768  -15.8175 C   0  0  0  0  0  0  0  0  0  0  0  0
    5.7860    6.7043  -14.7834 C   0  0  0  0  0  0  0  0  0  0  0  0
    3.8112    7.4965  -16.8746 C   0  0  0  0  0  0  0  0  0  0  0  0
    5.4128    5.7258  -15.9039 C   0  0  0  0  0  0  0  0  0  0  0  0
    4.8762    6.4309  -17.1932 C   0  0  0  0  0  0  0  0  0  0  0  0
    7.0113    0.5392  -16.8123 C   0  0  0  0  0  0  0  0  0  0  0  0
    6.6244   10.3091  -23.1027 C   0  0  0  0  0  0  0  0  0  0  0  0
    7.4230   10.9802  -20.8166 C   0  0  0  0  0  0  0  0  0  0  0  0
    5.0556   10.1410  -21.1444 C   0  0  0  0  0  0  0  0  0  0  0  0
    4.1723    1.4052  -20.6272 C   0  0  0  0  0  0  0  0  0  0  0  0
    7.0369    8.5243  -21.4007 C   0  0  0  0  0  0  0  0  0  0  0  0
    4.8814    4.2564  -18.2636 C   0  0  0  0  0  0  0  0  0  0  0  0
    4.9327    2.2804  -19.6281 C   0  0  1  0  0  0  0  0  0  0  0  0
    4.0388    3.4040  -19.1622 C   0  0  2  0  0  0  0  0  0  0  0  0
    6.5300    9.9818  -21.5956 C   0  0  0  0  0  0  0  0  0  0  0  0
    5.3793    1.4611  -18.4800 N   0  0  0  0  0  0  0  0  0  0  0  0
    4.1298    5.4541  -17.9710 N   0  3  0  0  0  0  0  0  0  0  0  0
    7.4900    2.3254  -18.3154 O   0  0  0  0  0  0  0  0  0  0  0  0
    3.6017    4.1826  -20.2795 O   0  0  0  0  0  0  0  0  0  0  0  0
    8.3720   -0.1183  -22.6312 F   0  0  0  0  0  0  0  0  0  0  0  0
    5.3227   -3.3404  -20.8233 F   0  0  0  0  0  0  0  0  0  0  0  0
    7.6332    7.3793  -17.5730 S   0  0  0  0  0  0  0  0  0  0  0  0
    6.5375    1.6349  -21.9549 H   0  0  0  0  0  0  0  0  0  0  0  0
    3.8300   -1.2596  -20.2527 H   0  0  0  0  0  0  0  0  0  0  0  0
    4.8298    7.3616  -19.8710 H   0  0  0  0  0  0  0  0  0  0  0  0
    7.5433   -2.5510  -22.0162 H   0  0  0  0  0  0  0  0  0  0  0  0
    9.0160    8.4806  -19.3556 H   0  0  0  0  0  0  0  0  0  0  0  0
    4.9870    8.4353  -13.7674 H   0  0  0  0  0  0  0  0  0  0  0  0
    3.7687    7.1795  -14.1736 H   0  0  0  0  0  0  0  0  0  0  0  0
    3.5123    9.2096  -15.6013 H   0  0  0  0  0  0  0  0  0  0  0  0
    5.1958    9.0003  -16.1915 H   0  0  0  0  0  0  0  0  0  0  0  0
    6.6985    7.2474  -15.0705 H   0  0  0  0  0  0  0  0  0  0  0  0
    5.9721    6.1375  -13.8593 H   0  0  0  0  0  0  0  0  0  0  0  0
    2.9043    6.9964  -16.5039 H   0  0  0  0  0  0  0  0  0  0  0  0
    3.5740    8.0514  -17.7943 H   0  0  0  0  0  0  0  0  0  0  0  0
    6.3076    5.1447  -16.1713 H   0  0  0  0  0  0  0  0  0  0  0  0
    4.6333    5.0467  -15.5281 H   0  0  0  0  0  0  0  0  0  0  0  0
    8.0197    0.7670  -16.4365 H   0  0  0  0  0  0  0  0  0  0  0  0
    6.2797    0.6705  -16.0014 H   0  0  0  0  0  0  0  0  0  0  0  0
    6.9796   -0.5005  -17.1700 H   0  0  0  0  0  0  0  0  0  0  0  0
    5.9951    9.6082  -23.6708 H   0  0  0  0  0  0  0  0  0  0  0  0
    6.2764   11.3380  -23.2769 H   0  0  0  0  0  0  0  0  0  0  0  0
    7.6692   10.2144  -23.4336 H   0  0  0  0  0  0  0  0  0  0  0  0
    7.3669   10.7605  -19.7402 H   0  0  0  0  0  0  0  0  0  0  0  0
    8.4646   10.8829  -21.1567 H   0  0  0  0  0  0  0  0  0  0  0  0
    7.0718   12.0064  -21.0000 H   0  0  0  0  0  0  0  0  0  0  0  0
    4.9729    9.9108  -20.0719 H   0  0  0  0  0  0  0  0  0  0  0  0
    4.7270   11.1753  -21.3237 H   0  0  0  0  0  0  0  0  0  0  0  0
    4.4202    9.4498  -21.7176 H   0  0  0  0  0  0  0  0  0  0  0  0
    3.8706    2.0080  -21.4964 H   0  0  0  0  0  0  0  0  0  0  0  0
    3.2781    0.9818  -20.1464 H   0  0  0  0  0  0  0  0  0  0  0  0
    8.0821    8.4711  -21.7394 H   0  0  0  0  0  0  0  0  0  0  0  0
    6.4175    7.8552  -22.0160 H   0  0  0  0  0  0  0  0  0  0  0  0
    5.1029    3.7151  -17.3319 H   0  0  0  0  0  0  0  0  0  0  0  0
    5.8230    4.5178  -18.7685 H   0  0  0  0  0  0  0  0  0  0  0  0
    5.8110    2.7091  -20.1330 H   0  0  0  0  0  0  0  0  0  0  0  0
    3.1830    2.9963  -18.6041 H   0  0  0  0  0  0  0  0  0  0  0  0
    4.7116    0.8537  -18.0495 H   0  0  0  0  0  0  0  0  0  0  0  0
    3.3122    5.1970  -17.4559 H   0  0  0  0  0  0  0  0  0  0  0  0
    3.8595    5.8775  -18.8357 H   0  0  0  0  0  0  0  0  0  0  0  0
    3.0670    3.6445  -20.8513 H   0  0  0  0  0  0  0  0  0  0  0  0
  1  6  1  0  0  0  0
  1  8  2  0  0  0  0
  2  6  2  0  0  0  0
  2  9  1  0  0  0  0
  3  7  1  0  0  0  0
  3 10  2  0  0  0  0
  4  8  1  0  0  0  0
  4  9  2  0  0  0  0
  5  7  2  0  0  0  0
  5 34  1  0  0  0  0
  6 22  1  0  0  0  0
  7 23  1  0  0  0  0
  8 32  1  0  0  0  0
  9 33  1  0  0  0  0
 10 17  1  0  0  0  0
 10 34  1  0  0  0  0
 11 18  1  0  0  0  0
 11 28  1  0  0  0  0
 11 30  2  0  0  0  0
 12 13  1  0  0  0  0
 12 14  1  0  0  0  0
 13 15  1  0  0  0  0
 14 16  1  0  0  0  0
 15 17  1  0  0  0  0
 16 17  1  0  0  0  0
 17 29  1  0  0  0  0
 19 27  1  0  0  0  0
 20 27  1  0  0  0  0
 21 27  1  0  0  0  0
 22 25  1  0  0  0  0
 23 27  1  0  0  0  0
 24 26  1  0  0  0  0
 24 29  1  0  0  0  0
 25 26  1  0  0  0  0
 25 28  1  0  0  0  0
 26 31  1  0  0  0  0
  1 35  1  0  0  0  0
  2 36  1  0  0  0  0
  3 37  1  0  0  0  0
  4 38  1  0  0  0  0
  5 39  1  0  0  0  0
 12 40  1  0  0  0  0
 12 41  1  0  0  0  0
 13 42  1  0  0  0  0
 13 43  1  0  0  0  0
 14 44  1  0  0  0  0
 14 45  1  0  0  0  0
 15 46  1  0  0  0  0
 15 47  1  0  0  0  0
 16 48  1  0  0  0  0
 16 49  1  0  0  0  0
 18 50  1  0  0  0  0
 18 51  1  0  0  0  0
 18 52  1  0  0  0  0
 19 53  1  0  0  0  0
 19 54  1  0  0  0  0
 19 55  1  0  0  0  0
 20 56  1  0  0  0  0
 20 57  1  0  0  0  0
 20 58  1  0  0  0  0
 21 59  1  0  0  0  0
 21 60  1  0  0  0  0
 21 61  1  0  0  0  0
 22 62  1  0  0  0  0
 22 63  1  0  0  0  0
 23 64  1  0  0  0  0
 23 65  1  0  0  0  0
 24 66  1  0  0  0  0
 24 67  1  0  0  0  0
 25 68  1  0  0  0  0
 26 69  1  0  0  0  0
 28 70  1  0  0  0  0
 29 71  1  0  0  0  0
 29 72  1  0  0  0  0
 31 73  1  0  0  0  0
M  CHG  1  29   1
M  END
> <OMEGA_C>
/YPJQHkpHD9Jta3B7TOYQIDYg7/xEKbBUcy4QGSr7kDr25rB75TbQDDW4L/W/63B+LcAQSk+AUEN
3pjBaZqiQFWNmj4GiajBYyvfQEfOAEFAvJ/B5S7mQLsX1r6xVbDBkom0QB/YA8A/4qjBqXu/QFBM
4UDkgJDBAXjVQLrVvT8hso/BSxyVQLLm9kDSg2jBfreJQAKhB0FqFH3B2Sa5QKSJ1kDziGzBaupz
QJDj70Ao/4bBsDWtQOs5t0A+dn7BywmcQKfJzUDBi4nBeFzgQB4KCj+Ff4bBOfvTQAvyJEFr0rjB
f4ntQAevL0FkiKbBTMehQGRBIkGsJ6nB4IOFQCvcsz95BKXBJS7hQKxjCEGmNKvBHzScQC00iEDO
G5LBndidQPXxEUBtBp3Bnz2BQMfaWUAuTJnBtPXQQH+1H0HGw6zB3SKsQCQEuz8V15PBQyeEQOiH
rkCzxI/BSq7vQNnSFEDrhZLB4oJmQPzXhUBcPKLB0/MFQbxT8r2hDLXBTlOqQDfJVcAflqbBWUP0
QDUj7EBwlYzBkDPRQMFE0T+6o6/B4R51QDA8ob+LBaLB142aQCiS60C5957B0WLxQONDI8A5IbDB
V0EQQbSwB0FN2JrB35WfQCr3BkE8R1zBMzJxQBO+5UAdx2LBxchgQGZaE0G8nnnBR0SmQGIBEEFJ
iIHBCVrWQKTq50C4IHHBExu/QGNmxEB/v13BOOA5QC/i30D5B4TBtrtkQLPSAEGlWo7BPdjJQCqh
pEDYXoHBSkSUQIl+oUD+cnjBvlAAQWFYRD/ufYPBAPPIQJqkKz/gAoDBxljfQMkhAL8YXInB7de/
QCq7GUHXXb3BYtjIQEVoNUEbN7rBDWr1QGNuI0EOeLvBr73rQAwrLEH8653B724HQUUgLkEBQanB
NEziQCYaQEENAKjBGSKfQL2SHkE+k6DBmUOXQBnOMkHnlqrBNXKNQHAyF0Gmva3Btbh3QFyDAECg
+KvB28xRQFtXez/aK6HBLFABQYeJB0Ff6q3BClzNQJtd+0DAILDBGkujQLPEbUDIp4rB61W6QDmS
kEDuJZbBavO5QL5hLUBTEKHBhrZLQMXDP0Am1ZTBeMWWQNuNWj9KZZDBdPpTQOBNpkCopYvBqgJ3
QHkUvECVr5bBsklEQCY/aUBrz6bB

> <OMEGA_E>
sP1jPg==

> <OMEGA_NBR>
     36268

$$$$
50167979
  -OEChem-04172616093D

 64 66  0     1  0  0  0  0  0999 V2000
    7.0961    7.2618  -18.0874 C   0  0  0  0  0  0  0  0  0  0  0  0
    7.6791    7.7688  -19.3326 C   0  0  0  0  0  0  0  0  0  0  0  0
    6.4993    0.6923  -21.6991 C   0  0  0  0  0  0  0  0  0  0  0  0
    4.7757   -0.9035  -21.0236 C   0  0  0  0  0  0  0  0  0  0  0  0
    6.9359   -1.7015  -21.8294 C   0  0  0  0  0  0  0  0  0  0  0  0
    5.2050    0.4270  -21.2021 C   0  0  0  0  0  0  0  0  0  0  0  0
    7.3670   -0.3709  -22.0015 C   0  0  0  0  0  0  0  0  0  0  0  0
    5.6386   -1.9668  -21.3454 C   0  0  0  0  0  0  0  0  0  0  0  0
    5.7475    7.0203  -18.2037 C   0  0  0  0  0  0  0  0  0  0  0  0
    6.7476    7.8767  -20.3350 C   0  0  0  0  0  0  0  0  0  0  0  0
    6.6395    1.3933  -18.0191 C   0  0  0  0  0  0  0  0  0  0  0  0
    4.2674    7.3923  -16.1051 C   0  0  0  0  0  0  0  0  0  0  0  0
    5.3199    6.3481  -15.6899 C   0  0  0  0  0  0  0  0  0  0  0  0
    4.8476    6.4398  -17.1445 C   0  0  0  0  0  0  0  0  0  0  0  0
    6.9241    0.3206  -16.9734 C   0  0  0  0  0  0  0  0  0  0  0  0
    7.6857   10.7592  -20.9830 C   0  0  0  0  0  0  0  0  0  0  0  0
    5.2433   10.2381  -21.3889 C   0  0  0  0  0  0  0  0  0  0  0  0
    6.8528   10.3161  -23.3136 C   0  0  0  0  0  0  0  0  0  0  0  0
    4.3112    1.5688  -20.7868 C   0  0  0  0  0  0  0  0  0  0  0  0
    7.0284    8.4033  -21.7150 C   0  0  0  0  0  0  0  0  0  0  0  0
    4.7533    4.1880  -18.0103 C   0  0  0  0  0  0  0  0  0  0  0  0
    4.9941    2.3741  -19.6660 C   0  0  1  0  0  0  0  0  0  0  0  0
    4.0605    3.4644  -19.1541 C   0  0  2  0  0  0  0  0  0  0  0  0
    6.6972    9.9194  -21.8313 C   0  0  0  0  0  0  0  0  0  0  0  0
    5.3653    1.4618  -18.5690 N   0  0  0  0  0  0  0  0  0  0  0  0
    3.9851    5.3755  -17.6443 N   0  3  0  0  0  0  0  0  0  0  0  0
    7.4935    2.2375  -18.2707 O   0  0  0  0  0  0  0  0  0  0  0  0
    3.7997    4.3811  -20.2180 O   0  0  0  0  0  0  0  0  0  0  0  0
    8.6144   -0.1130  -22.4544 F   0  0  0  0  0  0  0  0  0  0  0  0
    5.2255   -3.2428  -21.1779 F   0  0  0  0  0  0  0  0  0  0  0  0
    5.1767    7.3556  -19.8092 S   0  0  0  0  0  0  0  0  0  0  0  0
    7.6611    7.0967  -17.1819 H   0  0  0  0  0  0  0  0  0  0  0  0
    8.7212    8.0276  -19.4483 H   0  0  0  0  0  0  0  0  0  0  0  0
    6.8227    1.7121  -21.8468 H   0  0  0  0  0  0  0  0  0  0  0  0
    3.7864   -1.1063  -20.6407 H   0  0  0  0  0  0  0  0  0  0  0  0
    7.6001   -2.5188  -22.0684 H   0  0  0  0  0  0  0  0  0  0  0  0
    3.2229    7.2802  -15.7788 H   0  0  0  0  0  0  0  0  0  0  0  0
    4.5315    8.4598  -16.1293 H   0  0  0  0  0  0  0  0  0  0  0  0
    6.3370    6.6679  -15.4192 H   0  0  0  0  0  0  0  0  0  0  0  0
    5.0284    5.4883  -15.0687 H   0  0  0  0  0  0  0  0  0  0  0  0
    7.9333    0.4680  -16.5614 H   0  0  0  0  0  0  0  0  0  0  0  0
    6.1833    0.3927  -16.1634 H   0  0  0  0  0  0  0  0  0  0  0  0
    6.8605   -0.6731  -17.4410 H   0  0  0  0  0  0  0  0  0  0  0  0
    8.7171   10.5363  -21.2934 H   0  0  0  0  0  0  0  0  0  0  0  0
    7.4807   11.8293  -21.1339 H   0  0  0  0  0  0  0  0  0  0  0  0
    7.5607   10.5083  -19.9193 H   0  0  0  0  0  0  0  0  0  0  0  0
    4.5384    9.6438  -21.9889 H   0  0  0  0  0  0  0  0  0  0  0  0
    5.1207    9.9877  -20.3249 H   0  0  0  0  0  0  0  0  0  0  0  0
    5.0407   11.3088  -21.5394 H   0  0  0  0  0  0  0  0  0  0  0  0
    6.1556    9.7262  -23.9267 H   0  0  0  0  0  0  0  0  0  0  0  0
    6.6294   11.3866  -23.4320 H   0  0  0  0  0  0  0  0  0  0  0  0
    7.8847   10.1186  -23.6395 H   0  0  0  0  0  0  0  0  0  0  0  0
    4.1291    2.2248  -21.6507 H   0  0  0  0  0  0  0  0  0  0  0  0
    3.3536    1.1703  -20.4206 H   0  0  0  0  0  0  0  0  0  0  0  0
    8.0937    8.2526  -21.9441 H   0  0  0  0  0  0  0  0  0  0  0  0
    6.4154    7.8479  -22.4400 H   0  0  0  0  0  0  0  0  0  0  0  0
    4.8249    3.5164  -17.1422 H   0  0  0  0  0  0  0  0  0  0  0  0
    5.7634    4.4884  -18.3257 H   0  0  0  0  0  0  0  0  0  0  0  0
    5.9004    2.8455  -20.0740 H   0  0  0  0  0  0  0  0  0  0  0  0
    3.1274    3.0090  -18.7908 H   0  0  0  0  0  0  0  0  0  0  0  0
    4.6595    0.8576  -18.1994 H   0  0  0  0  0  0  0  0  0  0  0  0
    3.3273    5.1297  -16.9324 H   0  0  0  0  0  0  0  0  0  0  0  0
    3.4953    5.7065  -18.4508 H   0  0  0  0  0  0  0  0  0  0  0  0
    3.3669    3.9253  -20.9304 H   0  0  0  0  0  0  0  0  0  0  0  0
  1  2  1  0  0  0  0
  1  9  2  0  0  0  0
  2 10  2  0  0  0  0
  3  6  1  0  0  0  0
  3  7  2  0  0  0  0
  4  6  2  0  0  0  0
  4  8  1  0  0  0  0
  5  7  1  0  0  0  0
  5  8  2  0  0  0  0
  6 19  1  0  0  0  0
  7 29  1  0  0  0  0
  8 30  1  0  0  0  0
  9 14  1  0  0  0  0
  9 31  1  0  0  0  0
 10 20  1  0  0  0  0
 10 31  1  0  0  0  0
 11 15  1  0  0  0  0
 11 25  1  0  0  0  0
 11 27  2  0  0  0  0
 12 13  1  0  0  0  0
 12 14  1  0  0  0  0
 13 14  1  0  0  0  0
 14 26  1  0  0  0  0
 16 24  1  0  0  0  0
 17 24  1  0  0  0  0
 18 24  1  0  0  0  0
 19 22  1  0  0  0  0
 20 24  1  0  0  0  0
 21 23  1  0  0  0  0
 21 26  1  0  0  0  0
 22 23  1  0  0  0  0
 22 25  1  0  0  0  0
 23 28  1  0  0  0  0
  1 32  1  0  0  0  0
  2 33  1  0  0  0  0
  3 34  1  0  0  0  0
  4 35  1  0  0  0  0
  5 36  1  0  0  0  0
 12 37  1  0  0  0  0
 12 38  1  0  0  0  0
 13 39  1  0  0  0  0
 13 40  1  0  0  0  0
 15 41  1  0  0  0  0
 15 42  1  0  0  0  0
 15 43  1  0  0  0  0
 16 44  1  0  0  0  0
 16 45  1  0  0  0  0
 16 46  1  0  0  0  0
 17 47  1  0  0  0  0
 17 48  1  0  0  0  0
 17 49  1  0  0  0  0
 18 50  1  0  0  0  0
 18 51  1  0  0  0  0
 18 52  1  0  0  0  0
 19 53  1  0  0  0  0
 19 54  1  0  0  0  0
 20 55  1  0  0  0  0
 20 56  1  0  0  0  0
 21 57  1  0  0  0  0
 21 58  1  0  0  0  0
 22 59  1  0  0  0  0
 23 60  1  0  0  0  0
 25 61  1  0  0  0  0
 26 62  1  0  0  0  0
 26 63  1  0  0  0  0
 28 64  1  0  0  0  0
M  CHG  1  26   1
M  END
> <OMEGA_C>
YxPjQKpg6EDuspDB5Lr1QPSZ+EAzqZrBXfrPQL86MT+9l63BUNKYQP9OZ79lMKjBTfPdQM7J2b+I
oq7BCY+mQNKi2j4AnqnBYr7rQNjkvb4WA7DBem+0QGLA+79cw6rBouu3QLSm4EAdoZHBluzXQB8O
/EAfrqLBHHfUQJNXsj8nJ5DBcI6IQHqN7EBJ14DBsTyqQIsjy0ClCXvBSR+bQJQSzkDgJ4nB3pHd
QJ4kpD6WyYfB//D1QK8lLEEy3afBMsmnQDHPI0GPHKvBTUrbQKsOJUFJgrrBwPWJQNrPyD9GS6bB
6OjgQAB0BkFbuK3BYRuYQGAEhkAsFZDB+c+fQKXxF0D+U53BOO+BQPq4XUCRO5nBQU/WQPa1HkGK
pq7B1rCrQHsduz9RjZTBMQx/QBYErEBtJ43BXsrvQAczD0B4KpLBHS5zQK0xjECPvqHBfdQJQYB8
572iorPBGzenQAiKT8BTbKnBd6elQMJg60BAeZ7BDCj1QCQY40CCdInBAooLQSFxAEELlpvBK1Pa
QLEm2z9Pxq7BqVRyQFWbjb8UIKXBTzTzQM00IcAkjLDBLEROQKr36EDEdXzBzwGRQHJbB0HYCIHB
oMjKQMRf1UAmtXbB5uigQIugr0A5GXHBat39QO6X7z7IfYTB2d3FQBMSyT6tToHBZInbQPlNLL8l
h4vBcHkLQZqUKEHtWKrBmGHvQANFPUEjEqnB+PDxQP0hKEHGWp/BRDqRQCVNGkE36a/BJt2jQKLN
H0FNmaLBxk2hQKfwNEGrUKzBv/rEQHOeG0H1ab/BNyTUQKcvNkGxdLvBq0/8QO7lIUGnHb3BQiGE
QKRjDkC8NK3BYKFWQGnNlT9QXaPB238BQdkKBEF4ja/Bp0rNQPgh+0AyhbPBeGWaQB4MYUAiI4nB
Bm64QE6hj0Adm5LBU9C8QAAcNkCbl6DBwyZIQGCTQECmU5bBUxqVQLyKWz9TmJHBwPFUQFAmpEB6
dYfBdbNfQO6btkA9m5PBZ3tXQIs3e0B1cafB0HLmQKhj50ApIo7BMXv9QEGk+0Ar+JbBBPrRQABx
PD/9Vq3B4OiZQJArXL9gkKjBVr/fQEIu1L/vhK7BefqnQC/x8D6awanBYe3tQJV9p740n6/B1q+1
QDYi9r/ACKvBPPO7QGrr4EDVapDBBb7jQLWiAUE+pZ/BV4XSQHTCqj++KpDBvwyGQMXg7ECd8oDB
BS2lQD1FykBZ1XnB1iybQClnzkAK4IjBPtXYQEXelz7BXofB05DvQHujK0HzKbbBKsnCQH8LLUHr
i6XBMYSwQLgfE0HRkbTBMAKLQOY/zj+2mqbBpU30QHHfDEHEgqnBILSYQKiEh0BedpDBLcefQP+m
GUC6Z53Bsc+BQJ9sX0ATYJnBJ1bVQBHwHUEgPq7BUv+pQFoPvT+wlJTBCUKAQL2yrUDPso3Bgc3v
QLFrBkCfb5LBE8twQA2YjECL66HBLC0LQYDmjb3s37LBnAKoQAq5TMDzA6rBWfSvQPQR8EDscJ3B
fDf1QN+B3kDvpIbB7YgPQdzZAUEPsZbBO57cQPDK4D+qU67BLL9zQJAXiL+OwqXB9x71QIVnHsCC
WLDBrD1HQJcf6kBngH7B3HyPQNpjB0F+wIDBc+TEQKRj00DvtXPBbQaZQIe7rkBatXDBg0r5QCqw
xz5NDITBMy3BQNrf7D6U/YDBX5PUQMEtNr9FuYrBkxj9QGBIIUGAbLzBrp3aQJGyN0Hu27nBctUE
QVKzM0GV2bHBfeqvQJmnI0Epyp/BlCzdQCYZNUHBVqHBXh+uQGUYOUEaWanBoESdQPQ8CUEeG6/B
1BqcQAeBH0HOL7jBRBC+QEP2CEEB6LrBZzGGQCCtEUDGgq3B/OBXQPhEmz9696PBpUIJQbvgFEG6
bKfBtVb6QMe6AEENs6/BvmmbQIJaZUAxZ4nBFN+4QHjZkEA6K5PBG2C9QIGFN0D3XKDBjLlIQFEq
QkArPJbB2UuSQP0+az+KlpHBNYRSQIyjpUCWg4jBc/FlQKCPuUA6WJTBFClUQD5Ke0CBfKfBd6Xk
QKv930ANi5DBmxj5QIZPAEGYRJfB94TQQDrTPj/Dwq3Bo+OYQPxTXb9b+KjB2I7eQHRy0r/kM6/B
LcKmQMhe8D5qDarBpIPsQAPdnr7+NrDB7rW0QGHE9b+UnKvB8Ue5QBVP5kABpI/BTTjcQDYSD0FM
C5vBISTTQGwHpz80epDBgnyFQO+250AbZn/BI2KoQJ/8xkBPlXnBE42bQHjozUAkdojBRGTaQAzV
bz45+ofBBsXrQFKGLUE5bbXB4KWkQOK/IUFcQK7BT47fQDqBBkFatbHBOfiJQDgFzT/mm6bBRbTn
QKZeIUGaW6LBtK+aQAHkh0Cvs5DBI62fQAd0GEDJep3B7nmCQGjkXkBZSpnBB6XVQB6YHUFhza3B
RVuqQNqTuT8FvpTBnbuBQCd1rUCHv43BawHwQFTJBUCqp5LBNtJvQJgAjEAF0qHBqW4KQaAGLL2e
eLPBt2enQFjDTMB3kqrBwWyoQHYcCUFR5pbBCrL1QF4LxkBjv4zBxXQNQdSrAEGwCpnBB/HaQF5W
4j/5ta7BKvNxQGK/ib+RHqbB3O/zQGstHcD9LbHBJbVHQKM84UDIVnvBmOWLQPQWBUHAzn3BZsfH
QP0D0kA82HPBYbyfQLkSqUBDYHHBbQX7QLH0pj5cwoTB8BXDQPMjuz5+d4HBgUnWQN3rQr9Uk4vB
TkgHQVrjKkHxPrXBedffQL4SK0Finb3BzK3kQGz7PUFA3LLB5iGUQHiMFkEa3ajB8vqdQA9HMkFg
uqvBnySZQGFeH0GCe7bBtAPQQOHG9UATXKzBd1DTQFFpBEF35LnBDi4BQSLgA0HOo7HBfk6EQKSa
EUAPbK3BVoNWQEwHmT87y6PBDy7aQFhFMEEsHp/B1l8FQaXFIkFxy6LBxUOfQFmpZkC9ponBbA66
QEnokUCFz5PBnzK9QDy5NUBLk6DBxO1KQI9EQkBc0pXBidWSQCxgYz8/tJHB6ZlUQPtrpEBSyojB
EABqQGEZukBPX5TBXoVRQOG7eUDuNqfBm97hQHYe3EAfiJDBSjP4QMUM6kDTJZrBVCfKQKm5Gz+A
Dq7BZcWYQDuFd7/roaXBKrDaQFzk4r+D363Bjq2jQGxWtD4OiqjBqrHlQAZo575srrDBNTi0QF7h
AcA1WqjBvmm2QBwi4UD1ZZHBjLHcQCbk+kCBmqHBNerWQD68uT8dT5DBSmWCQOeF8EBgtYHBayCj
QGOez0DdG3vBu/mWQNbH0EA2aInBzFXgQK4MAj+oAofBe4wBQQ6WL0HnXbDB6cAJQXggJEEglJ3B
bkTHQJi2LEFuFKPBraKHQOd7wD+zN6XBLn/rQDESC0HdvKrB/ruXQC6giEA4VpDBD8ufQNiOGECs
Hp3BfMWCQL6VYUCEhJnBrR3yQC+WIkE70abBIPqsQI0exz/U7JPBX7J6QPrirUCVpI3BFkLzQF4C
DEDfrpPB4215QNRnjUA5T6LBHV4FQSyHTL6w4bXBeNGpQJnkUsAAmKXBNpCnQCNh9UBIx53BKqzx
QJFYz0D4ionBgC4NQUtw50BfR5vBPHTSQNJRzz/sQ7DBpOR2QICglL8oVaHBp73vQHutJcCu86/B
nb9AQItU7UBAMX/BJvOKQP1QCUF7GILBkRfDQL8t2kCm93XBOYSYQFDgtEDw93DBBuUAQV4JIj9e
doTBQOfKQEf7PT8TSYDBqBjbQL4HCL+dk4nBHgrsQPq9LkGkALfBrrYDQSNfQEHE863Biv0QQYjx
KEFa+bLBBwcEQTDvGkFWpJbBiSUZQdaNHUGqTKDBrd4LQXL7NEEUR5vB75a6QOufI0EqPpzBhdHM
QD5oPUGqqaDBpwmwQFFJLEEisKnBX5N+QNSgBkABS6zBlXZUQO7ojj+WgKHBb/cEQVfGBEFY163B
SErTQF3PCkERILHBsUKaQPjTZkCuV4nB0+K3QL9Ck0DFvJLBdkO8QMyNM0AOC6HBLeNHQPwzR0Ad
15bB3WCWQE/ihD8yD5DBHHVPQPNHpUC3JojBPKBcQGvut0BHPpTBQyxfQPoRfUCPEajB

> <OMEGA_E>
QHfEPQCIpT0As1w+gBe9Pg==

> <OMEGA_NBR>
     40683

$$$$
50167938
  -OEChem-04172616093D

 63 65  0     1  0  0  0  0  0999 V2000
    6.4922    0.6843  -21.6559 C   0  0  0  0  0  0  0  0  0  0  0  0
    4.7925   -0.9314  -20.9678 C   0  0  0  0  0  0  0  0  0  0  0  0
    6.9570   -1.7043  -21.7868 C   0  0  0  0  0  0  0  0  0  0  0  0
    7.9432    7.8324  -19.3230 C   0  0  0  0  0  0  0  0  0  0  0  0
    5.2045    0.4040  -21.1487 C   0  0  0  0  0  0  0  0  0  0  0  0
    7.3711   -0.3689  -21.9626 C   0  0  0  0  0  0  0  0  0  0  0  0
    5.6658   -1.9844  -21.2949 C   0  0  0  0  0  0  0  0  0  0  0  0
    6.8062    7.8454  -20.0924 C   0  0  0  0  0  0  0  0  0  0  0  0
    5.8982    7.0960  -18.1419 C   0  0  0  0  0  0  0  0  0  0  0  0
    6.6013    1.4330  -17.9446 C   0  0  0  0  0  0  0  0  0  0  0  0
    4.2477    7.4353  -16.1521 C   0  0  0  0  0  0  0  0  0  0  0  0
    5.2235    6.3293  -15.7223 C   0  0  0  0  0  0  0  0  0  0  0  0
    4.8627    6.5149  -17.2030 C   0  0  0  0  0  0  0  0  0  0  0  0
    6.9030    0.3281  -16.9370 C   0  0  0  0  0  0  0  0  0  0  0  0
    6.5811   10.1468  -23.2047 C   0  0  0  0  0  0  0  0  0  0  0  0
    7.4895   10.6903  -20.9296 C   0  0  0  0  0  0  0  0  0  0  0  0
    5.0405   10.1084  -21.2143 C   0  0  0  0  0  0  0  0  0  0  0  0
    4.2927    1.5341  -20.7390 C   0  0  0  0  0  0  0  0  0  0  0  0
    6.8116    8.2911  -21.5369 C   0  0  0  0  0  0  0  0  0  0  0  0
    4.7465    4.2612  -18.0663 C   0  0  0  0  0  0  0  0  0  0  0  0
    4.9674    2.3677  -19.6341 C   0  0  1  0  0  0  0  0  0  0  0  0
    4.0323    3.4719  -19.1511 C   0  0  2  0  0  0  0  0  0  0  0  0
    6.4783    9.8026  -21.7023 C   0  0  0  0  0  0  0  0  0  0  0  0
    5.6757    7.3910  -19.4042 N   0  0  0  0  0  0  0  0  0  0  0  0
    5.3327    1.4847  -18.5105 N   0  0  0  0  0  0  0  0  0  0  0  0
    4.0089    5.4949  -17.7980 N   0  3  0  0  0  0  0  0  0  0  0  0
    7.5120    2.1509  -18.3447 O   0  0  0  0  0  0  0  0  0  0  0  0
    3.7330    4.3389  -20.2467 O   0  0  0  0  0  0  0  0  0  0  0  0
    8.6128   -0.0973  -22.4234 F   0  0  0  0  0  0  0  0  0  0  0  0
    5.2677   -3.2650  -21.1267 F   0  0  0  0  0  0  0  0  0  0  0  0
    7.5778    7.3013  -17.7274 S   0  0  0  0  0  0  0  0  0  0  0  0
    6.8018    1.7077  -21.8080 H   0  0  0  0  0  0  0  0  0  0  0  0
    3.8081   -1.1460  -20.5789 H   0  0  0  0  0  0  0  0  0  0  0  0
    7.6294   -2.5140  -22.0290 H   0  0  0  0  0  0  0  0  0  0  0  0
    8.9262    8.1150  -19.6696 H   0  0  0  0  0  0  0  0  0  0  0  0
    3.1790    7.3513  -15.9058 H   0  0  0  0  0  0  0  0  0  0  0  0
    4.5546    8.4902  -16.0983 H   0  0  0  0  0  0  0  0  0  0  0  0
    6.2298    6.5911  -15.3633 H   0  0  0  0  0  0  0  0  0  0  0  0
    4.8541    5.4522  -15.1708 H   0  0  0  0  0  0  0  0  0  0  0  0
    7.9761    0.3344  -16.6955 H   0  0  0  0  0  0  0  0  0  0  0  0
    6.3200    0.4991  -16.0200 H   0  0  0  0  0  0  0  0  0  0  0  0
    6.6301   -0.6462  -17.3687 H   0  0  0  0  0  0  0  0  0  0  0  0
    5.8711    9.5277  -23.7726 H   0  0  0  0  0  0  0  0  0  0  0  0
    6.3416   11.2100  -23.3544 H   0  0  0  0  0  0  0  0  0  0  0  0
    7.6040    9.9483  -23.5571 H   0  0  0  0  0  0  0  0  0  0  0  0
    7.4330   10.4612  -19.8552 H   0  0  0  0  0  0  0  0  0  0  0  0
    8.5075   10.4888  -21.2944 H   0  0  0  0  0  0  0  0  0  0  0  0
    7.2451   11.7505  -21.0917 H   0  0  0  0  0  0  0  0  0  0  0  0
    4.9566    9.8666  -20.1445 H   0  0  0  0  0  0  0  0  0  0  0  0
    4.8207   11.1754  -21.3672 H   0  0  0  0  0  0  0  0  0  0  0  0
    4.3227    9.5008  -21.7849 H   0  0  0  0  0  0  0  0  0  0  0  0
    4.0906    2.1754  -21.6095 H   0  0  0  0  0  0  0  0  0  0  0  0
    3.3461    1.1216  -20.3598 H   0  0  0  0  0  0  0  0  0  0  0  0
    7.8097    8.1029  -21.9592 H   0  0  0  0  0  0  0  0  0  0  0  0
    6.0631    7.7036  -22.0889 H   0  0  0  0  0  0  0  0  0  0  0  0
    4.7992    3.6580  -17.1480 H   0  0  0  0  0  0  0  0  0  0  0  0
    5.7645    4.5079  -18.4019 H   0  0  0  0  0  0  0  0  0  0  0  0
    5.8763    2.8290  -20.0480 H   0  0  0  0  0  0  0  0  0  0  0  0
    3.1149    3.0249  -18.7406 H   0  0  0  0  0  0  0  0  0  0  0  0
    4.6251    0.8872  -18.1332 H   0  0  0  0  0  0  0  0  0  0  0  0
    3.2582    5.2933  -17.1689 H   0  0  0  0  0  0  0  0  0  0  0  0
    3.6379    5.8443  -18.6584 H   0  0  0  0  0  0  0  0  0  0  0  0
    3.2864    3.8481  -20.9266 H   0  0  0  0  0  0  0  0  0  0  0  0
  1  5  1  0  0  0  0
  1  6  2  0  0  0  0
  2  5  2  0  0  0  0
  2  7  1  0  0  0  0
  3  6  1  0  0  0  0
  3  7  2  0  0  0  0
  4  8  2  0  0  0  0
  4 31  1  0  0  0  0
  5 18  1  0  0  0  0
  6 29  1  0  0  0  0
  7 30  1  0  0  0  0
  8 19  1  0  0  0  0
  8 24  1  0  0  0  0
  9 13  1  0  0  0  0
  9 24  2  0  0  0  0
  9 31  1  0  0  0  0
 10 14  1  0  0  0  0
 10 25  1  0  0  0  0
 10 27  2  0  0  0  0
 11 12  1  0  0  0  0
 11 13  1  0  0  0  0
 12 13  1  0  0  0  0
 13 26  1  0  0  0  0
 15 23  1  0  0  0  0
 16 23  1  0  0  0  0
 17 23  1  0  0  0  0
 18 21  1  0  0  0  0
 19 23  1  0  0  0  0
 20 22  1  0  0  0  0
 20 26  1  0  0  0  0
 21 22  1  0  0  0  0
 21 25  1  0  0  0  0
 22 28  1  0  0  0  0
  1 32  1  0  0  0  0
  2 33  1  0  0  0  0
  3 34  1  0  0  0  0
  4 35  1  0  0  0  0
 11 36  1  0  0  0  0
 11 37  1  0  0  0  0
 12 38  1  0  0  0  0
 12 39  1  0  0  0  0
 14 40  1  0  0  0  0
 14 41  1  0  0  0  0
 14 42  1  0  0  0  0
 15 43  1  0  0  0  0
 15 44  1  0  0  0  0
 15 45  1  0  0  0  0
 16 46  1  0  0  0  0
 16 47  1  0  0  0  0
 16 48  1  0  0  0  0
 17 49  1  0  0  0  0
 17 50  1  0  0  0  0
 17 51  1  0  0  0  0
 18 52  1  0  0  0  0
 18 53  1  0  0  0  0
 19 54  1  0  0  0  0
 19 55  1  0  0  0  0
 20 56  1  0  0  0  0
 20 57  1  0  0  0  0
 21 58  1  0  0  0  0
 22 59  1  0  0  0  0
 25 60  1  0  0  0  0
 26 61  1  0  0  0  0
 26 62  1  0  0  0  0
 28 63  1  0  0  0  0
M  CHG  1  26   1
M  END
> <OMEGA_C>
fsDPQNksLz80P63BaVyZQO1ybr8ovqfBlp/eQCUn2r9ES67BhS7+QPmi+kCalZrB44qmQLrUzj6R
MKnBQODrQPTlvL6As6/BlU61QGcC/r/iW6rBUczZQHUN+0A7vaDB6728QK0S40CEIpHBqD3TQB5s
tz+Bjo/BgO2HQMHt7UB3N4HBEienQMiJykCSjnvBJJubQGZ60EDEn4nBPuXcQNb8pz4Af4fBDZjS
QGxZIkE4o7nB4KnvQJELK0Hab6fBo0uhQDG8IUHotqnB3l2JQJBdxD9n6aXBPvjZQFSoBEGfS6zB
8OKXQN9biEDgh5DBUfWeQKeIF0CaEp3BxwiBQLUzXkB9NZnBME7PQJ7XHEFSnq3BPp+1QNyC7EDN
O5vBHKWqQLQJvj+CFZTBjkiAQDTWr0BgYo7BFmLwQIunCUDwwZLBWOluQOzXikA0+aHBGc4JQQRa
x70rY7PBz5CoQA32UMCEA6nBoH3yQGik6UCe0Y3Bd6jZQHmW2j+/dq7BQLhzQPCvkr+HoaTB1SP0
QIXlIMBrO7DB4tEOQRjXAUFkW53B9nNLQLs960BQfn7BWr+RQP7XB0FNyYDBSVrHQHXq0kDmz3XB
6lSbQDR4rkCcu3LBgTz/QKU0qz57kIXBCj3KQL6D/z4HKYDB9CnUQEFqJb8m84rB89+7QE1xGEFh
Lr7BAO7KQPhbM0HL1brB+VPzQCwsH0HmdLzBcNvtQDlhJ0F8157BwB4IQUrSJ0HZWqrBh9fnQBYC
PEG+u6jBR5yeQGbdHUH7J6HB6UKaQEbOMkEE8KrB2lOKQCYDGEF3R67BgOaCQNs5C0BX4KzBTCZW
QGKRjz/e4KLBv+j5QFqlAUGGrK/B/gTCQPeD9kAYtrDBw5KZQBcdakATL4nBLHe4QO5AkEAnN5PB
VQq8QOENNUA7YqDBTVpHQIaYQUC87JXBkwCUQJ0hYz+0EJHB2YVQQNliqUDfWYnBENRoQNEEu0CB
RJXBllRSQLJHdkCeaafBFzTQQIXKPz+vyq3BtK2ZQLY+Yr8ZtqjBKzvfQBBH0b/XPK/BIQkCQYx7
+UCLUZjBzdmmQG6B6T7o4anBxnPsQEpRl77LYbDBaMy1QMjG9r9gcavBsZzhQABsCUFB05rBVum/
QGyo4kD+DpDBFibTQEy3sj/VMJDBmhqHQO0r7EBgAoHBEAqmQI2pyEDMrnrBbvecQMqCz0D5O4nB
41HcQC6Umj5WAojBFRbfQDSvLUED2LPBYledQPpLH0Gey6rBvQ3WQETxBUGV5rHBJomJQATJyT+g
c6bBsi7mQC5mHUF7maHBlZ2YQKM+iEBtupDBE/CeQOqRGECmbZ3BJyWBQJPAXkA9YZnBSv/NQDnZ
G0G1bazBZne7QOxHAkG0KJbBGnWqQJJQvD/9oJTBAwCCQHdEsEBqpI7Bhn/uQF+UD0C6GJLB/wVu
QE1vi0DYC6LBPSAKQUC4Q7zi9rPBUBypQCOeTcAzWqrBS5T0QOh+0ED67Y/B9h7aQFBa4z97yq7B
Xh50QFDjjb8HuaXBq9z0QD0JHMAXRbHBtSMSQVh9/kDSMJvBihtJQBgA6UCNDH/BkHOQQAD+BkFV
SYDBuIDFQB4W0UB6AnTB7pqZQDYarEBdfHLBeq78QMaj4D6NuYTBoLvEQIPztz5AfoHBvCbaQIWV
Lr8r6IvBNtMAQZl5K0EYF7XBxXjOQCLoLEGUl7vByEvZQB1gPUFIIbDB+qGQQPW2EkGchqXBfdSX
QI8ML0G7HqfBegGNQJOUHkEHlbLBhxPKQDQK8kAiu6zBGDjFQCd4BUEdoLnB4JX4QC/NA0HQOrPB
Bj2DQNMxD0CyTq3BOlhWQE3fkz/NiqPB/l7ZQCoTK0F/FJ3BMS4EQeYGIEFiPqPB7tGZQPQeakAu
W4nBqWG5QFBJj0BHa5PBEB+8QBGGNkDhnqDBYwpIQLDMQUCvA5bB87KTQAxBXz/Rr5HBZCJRQN8X
qkD3CYrBR39wQHiavEAXnJXBs69QQBTdd0BXdafB+u3QQNjbPT/bv63BWPiZQPeYYb9awKjB5hTf
QMqb0r+4dq/BRzgDQdbI+UAKGpjBGH+nQJRn6T6m3KnBxMvsQIsanr5edbDB+qS1QDUW978foqvB
ojbkQK6mCUHztJrBnN3BQMh440A36o/BaG/SQPy2rT9tCpDBnnKIQFiU60Cp5YDBkLamQFQhx0CM
/nrBxEeeQCjpz0DPWInBRh3bQEC9bD5jGojBQsedQCURIkHIdanBWlTOQBBiBUETMLHB3lneQDpC
LEHbR7TBGkOKQDRXyj/TfabBIuroQG4sHUHo06HBVDGZQHraiEC86ZDB3iKfQPItGECnVp3BGCKB
QIMjXkCxS5nB8LbMQNP+G0FpEqzB0vC9QIjHAkEZ+pXBzPSpQI4juj/Ej5TBqlWDQC6FsUCtEY/B
sO/tQLlcDUBzqJHBURtrQAJLikAtA6LBQ1kKQSBdCr2SA7TBcnioQKeUTcAFr6rBXGv2QCz+0EBE
sY/BgTTbQAEl4j8bpK7BRNR0QGfNjL97saXB8Vb0QE7zHMBqo7HBeGITQfqN/kCu6ZrBTJdLQHOp
6EAlEX/BWziSQHCPBkFPpH/BZCLGQCKZzkCn/nPBr7WZQLUjqkB9a3PBR1P7QLpntD52sITBhzfD
QFwjiD7ZpYHBPw3ZQDu1PL/3PozBO+KcQAcaMkHK1qXBmMiKQK0OIkFt3rDBzFeQQNpYFkG60aPB
KLjvQDEvAUHPBLPBFvvAQFc580CMj6vB42u7QH9SBUFAnLjBs7L/QBI0KEGuPLbBKtTKQIyyK0EO
mbvBfRHdQP1zPEF92bDBr5mEQPDkD0BMV63BkDRXQDIIlT+XvKPB/pjfQHNuK0FlOZ3BeVAFQQiU
HkETQqTBc2+aQJlAbUAhZInBr/C5QKYRj0DXvZPB3Yy8QFBDNkAxYKDBb0VJQBnHQEAhqZXBVNOS
QCUDXT//sZHBrt5RQGIVrEDMwYrB9Gd2QL0nvkDfIZbB0Q1NQIFMdEA4PqfBTvvPQMtaOD+Xvq3B
QqqZQCUEZr+wPqjB3dneQKN+1b+S3a7B+AHwQLxPAUHKZJvBNcWmQCzQ3z4stKnBDCDsQETBqb65
N7DBj5K1QNyX+b9B6KrBp/jGQBmbBkFdj57BU123QKfR4UDFpZDBhKDVQIydvD+pOpDBLmiHQCf4
6UAWLYDBesmpQEnlyEDvL3rB5sGaQAPnzEDvrYjBj5jgQNIqxT5UI4jBNjnCQBleKkEaBLjBB9Tx
QDoRC0Hvf7TB8ID5QBALLkHEuanBGriJQBxByD/CUKbBZbq3QNn9FUHYIqfB5XiYQOEfhkBLQJDB
vKCfQJ9hGEDncJ3B+k+BQHJxXEC5GpnBbRPaQLkPHkHOG6/BKCaoQP7e+EBkeZjBIfusQL/uvD93
vZTBN1B/QJiaq0CXKo3BJYfxQO0cEEDiNpPBrj1tQARDi0BChaHBg/cJQQi9ab0T17PBlNCoQBLA
TsB4kqnBnMnuQE6E4EA1k5DBxN7ZQHxD3z8U767BWn10QPKgjr91FqXB2lD0QEyCHsDu3LDBR20G
QbYSB0FfLp/B4RVMQEBX5UAHPnvBxxqPQHwoBkGgG4DB8BXKQNmQ00D3qHXBGgahQCKXrEC+r3DB
aE8BQWG66j7h9YXBJM3MQAd2Az8l74DBBEXaQNMpGr9orovBW/OwQLv9N0HmfrTBD3PZQPhEMEH7
7r3BqEmrQDSaH0Hh9rvBTqEBQeviAUHcYq7BVXDaQKaZAEFke7jB3kwEQWlEEUF+c7rBIpYFQYHa
JUFhT6PBhBwIQVUWNEHIuq/Bz1znQB2CO0H0U6bBzjKDQPDODUCoN63Bjd9WQMBbkz9xSKPBzKGe
QPLeDUFbyKvBzweqQGUNJEGwGaPBNFmcQNTjYUAaSonBTyW4QKxNkEA2IJPBm/W7QGYkOEB11aDB
nudIQPajPUDg2pXBX3uXQC0qUz+P6pHBPelTQCn1okDmsofBSXlhQBAot0CjoJPBcUZQQFmGeEAg
DafBSS7QQPMsKj8RR63B22qZQDGycr8d9afBkOfeQE/F3L8GVq7B5+b+QEGY+0D+dJrB2MCmQGA2
xj5eWKnBIVbsQNSmx76Bq6/Bo2a1QJUrAMBBg6rBDb3aQNWv+0BysaDBM3C9QBLa4kDQLZHBmFbU
QOPfsz9dEZDBfASIQOHK7UBvaYHBdkinQIq4ykCYm3vBsjGcQKEY0ECBsonB5IfdQEpDuj7Zc4fB
YOvwQFV9K0H2iqfBs4CiQFMTIkETm6nBBh7TQIWdIkFEprnBtoyJQFiTwj9NGKbBszbbQP8HBUGa
QKzBzj+YQGy6h0CwnJDBKhufQKLNFkBUQp3BAQCBQMy0XEAXO5nBTmDQQNgyHUHym63BaYi2QGWQ
7ECMRpvBClyrQC0LvD/jWZTBn9yAQC1fr0B8dY7BNvfvQDNPDkDJd5LBU79sQPlGikBO46HB1CYK
QSyg9b1mNLPBeImoQLMTUsBsMKnBtP7yQMUT6kBIvo3BHDvaQAIG2D9ucq7BS4dzQIiglL/m76TB
m2v0QD5HIsB3PrDBMCoPQcySAkGsJJ3BrIFLQGwA60CxCn/BEqSRQEvPB0FBC4HBjFHHQI1k00BO
vnXBUG6bQGPGrkB9snLBNDH+QFRpAT+PX4TB6XPGQMYN9T4g34DBLJHaQLjiJL8o5orBVb0IQfYA
KEGEZarBE2/pQBBvPEFIA6nBVOruQB0rKEFb6p7BNXqLQAfuF0FH6q3BenagQALAHkG1+qDBOfua
QPUDM0GjE6vBZ0G8QKqkGEGjHL7B+U/LQAubM0Ed3LrBjb7zQGB1H0HsjLzB4SODQOs1CkDoEq3B
/nVWQPT2jT/kEKPBykr7QOQYAkGjkK/BjH/DQE4q90CZuLDBcBeaQKgZaUBMP4nBAca4QF1yj0CM
XpPBxuy7QB4aNUCgmqDBXShIQLpDP0B60pXBo9SUQL+8YD8TNJHBUaRRQBwBqUC6bInBzgxqQAiQ
ukBIWJXBErRPQCIodUAWSqfB

> <OMEGA_E>
sP4EPoAEfj4or4o+dCiUPtj+Az4=

> <OMEGA_NBR>
     46052

$$$$
50168376
  -OEChem-04172616093D

 64 66  0     1  0  0  0  0  0999 V2000
    6.5198    0.6842  -21.6653 C   0  0  0  0  0  0  0  0  0  0  0  0
    4.8138   -0.9401  -21.0138 C   0  0  0  0  0  0  0  0  0  0  0  0
    6.9932   -1.7026  -21.8029 C   0  0  0  0  0  0  0  0  0  0  0  0
    7.3667    7.4514  -18.0389 C   0  0  0  0  0  0  0  0  0  0  0  0
    5.6599    7.3698  -19.5630 C   0  0  0  0  0  0  0  0  0  0  0  0
    5.9495    7.0678  -18.2597 C   0  0  0  0  0  0  0  0  0  0  0  0
    5.2246    0.3980  -21.1798 C   0  0  0  0  0  0  0  0  0  0  0  0
    7.4060   -0.3652  -21.9654 C   0  0  0  0  0  0  0  0  0  0  0  0
    5.6961   -1.9889  -21.3313 C   0  0  0  0  0  0  0  0  0  0  0  0
    6.6293    1.3858  -18.0067 C   0  0  0  0  0  0  0  0  0  0  0  0
    4.4177    7.4158  -16.1641 C   0  0  0  0  0  0  0  0  0  0  0  0
    5.4062    6.2973  -15.8031 C   0  0  0  0  0  0  0  0  0  0  0  0
    4.9618    6.4987  -17.2578 C   0  0  0  0  0  0  0  0  0  0  0  0
    6.9123    0.3432  -16.9299 C   0  0  0  0  0  0  0  0  0  0  0  0
    6.6767   10.1587  -23.1557 C   0  0  0  0  0  0  0  0  0  0  0  0
    5.1213   10.1038  -21.1821 C   0  0  0  0  0  0  0  0  0  0  0  0
    7.5443   10.7671  -20.8769 C   0  0  0  0  0  0  0  0  0  0  0  0
    4.3055    1.5241  -20.7687 C   0  0  0  0  0  0  0  0  0  0  0  0
    6.9718    8.3463  -21.4541 C   0  0  0  0  0  0  0  0  0  0  0  0
    4.7650    4.2349  -18.0788 C   0  0  0  0  0  0  0  0  0  0  0  0
    4.9694    2.3508  -19.6514 C   0  0  1  0  0  0  0  0  0  0  0  0
    4.0238    3.4365  -19.1406 C   0  0  2  0  0  0  0  0  0  0  0  0
    6.5757    9.8384  -21.6479 C   0  0  0  0  0  0  0  0  0  0  0  0
    7.8563    7.9297  -19.1621 N   0  0  0  0  0  0  0  0  0  0  0  0
    6.8377    7.8737  -20.0558 N   0  0  0  0  0  0  0  0  0  0  0  0
    5.3504    1.4521  -18.5461 N   0  0  0  0  0  0  0  0  0  0  0  0
    4.0625    5.4889  -17.8079 N   0  3  0  0  0  0  0  0  0  0  0  0
    7.4875    2.2161  -18.2874 O   0  0  0  0  0  0  0  0  0  0  0  0
    3.6679    4.2964  -20.2248 O   0  0  0  0  0  0  0  0  0  0  0  0
    8.6542   -0.0882  -22.4050 F   0  0  0  0  0  0  0  0  0  0  0  0
    5.3023   -3.2717  -21.1695 F   0  0  0  0  0  0  0  0  0  0  0  0
    6.8295    1.7092  -21.8058 H   0  0  0  0  0  0  0  0  0  0  0  0
    3.8234   -1.1598  -20.6434 H   0  0  0  0  0  0  0  0  0  0  0  0
    7.6713   -2.5091  -22.0399 H   0  0  0  0  0  0  0  0  0  0  0  0
    7.9068    7.3537  -17.1088 H   0  0  0  0  0  0  0  0  0  0  0  0
    4.7221    7.2413  -20.0831 H   0  0  0  0  0  0  0  0  0  0  0  0
    3.3645    7.3391  -15.8561 H   0  0  0  0  0  0  0  0  0  0  0  0
    4.7373    8.4674  -16.1192 H   0  0  0  0  0  0  0  0  0  0  0  0
    6.4343    6.5467  -15.5015 H   0  0  0  0  0  0  0  0  0  0  0  0
    5.0615    5.4185  -15.2384 H   0  0  0  0  0  0  0  0  0  0  0  0
    7.9244    0.4966  -16.5273 H   0  0  0  0  0  0  0  0  0  0  0  0
    6.1760    0.4446  -16.1190 H   0  0  0  0  0  0  0  0  0  0  0  0
    6.8403   -0.6638  -17.3667 H   0  0  0  0  0  0  0  0  0  0  0  0
    7.7044    9.9751  -23.5020 H   0  0  0  0  0  0  0  0  0  0  0  0
    5.9811    9.5153  -23.7145 H   0  0  0  0  0  0  0  0  0  0  0  0
    6.4160   11.2140  -23.3244 H   0  0  0  0  0  0  0  0  0  0  0  0
    5.0329    9.8799  -20.1088 H   0  0  0  0  0  0  0  0  0  0  0  0
    4.8667   11.1592  -21.3586 H   0  0  0  0  0  0  0  0  0  0  0  0
    4.4318    9.4606  -21.7486 H   0  0  0  0  0  0  0  0  0  0  0  0
    7.4826   10.5495  -19.8004 H   0  0  0  0  0  0  0  0  0  0  0  0
    8.5729   10.5958  -21.2271 H   0  0  0  0  0  0  0  0  0  0  0  0
    7.2660   11.8162  -21.0553 H   0  0  0  0  0  0  0  0  0  0  0  0
    4.1093    2.1717  -21.6360 H   0  0  0  0  0  0  0  0  0  0  0  0
    3.3567    1.1066  -20.4008 H   0  0  0  0  0  0  0  0  0  0  0  0
    6.3242    7.7286  -22.0936 H   0  0  0  0  0  0  0  0  0  0  0  0
    8.0198    8.2216  -21.7644 H   0  0  0  0  0  0  0  0  0  0  0  0
    4.8224    3.6432  -17.1533 H   0  0  0  0  0  0  0  0  0  0  0  0
    5.7816    4.4576  -18.4353 H   0  0  0  0  0  0  0  0  0  0  0  0
    5.8708    2.8311  -20.0597 H   0  0  0  0  0  0  0  0  0  0  0  0
    3.1314    2.9701  -18.6977 H   0  0  0  0  0  0  0  0  0  0  0  0
    4.6464    0.8548  -18.1618 H   0  0  0  0  0  0  0  0  0  0  0  0
    3.3289    5.3148  -17.1510 H   0  0  0  0  0  0  0  0  0  0  0  0
    3.6711    5.8329  -18.6614 H   0  0  0  0  0  0  0  0  0  0  0  0
    3.2051    3.7967  -20.8871 H   0  0  0  0  0  0  0  0  0  0  0  0
  1  7  1  0  0  0  0
  1  8  2  0  0  0  0
  2  7  2  0  0  0  0
  2  9  1  0  0  0  0
  3  8  1  0  0  0  0
  3  9  2  0  0  0  0
  4  6  1  0  0  0  0
  4 24  2  0  0  0  0
  5  6  2  0  0  0  0
  5 25  1  0  0  0  0
  6 13  1  0  0  0  0
  7 18  1  0  0  0  0
  8 30  1  0  0  0  0
  9 31  1  0  0  0  0
 10 14  1  0  0  0  0
 10 26  1  0  0  0  0
 10 28  2  0  0  0  0
 11 12  1  0  0  0  0
 11 13  1  0  0  0  0
 12 13  1  0  0  0  0
 13 27  1  0  0  0  0
 15 23  1  0  0  0  0
 16 23  1  0  0  0  0
 17 23  1  0  0  0  0
 18 21  1  0  0  0  0
 19 23  1  0  0  0  0
 19 25  1  0  0  0  0
 20 22  1  0  0  0  0
 20 27  1  0  0  0  0
 21 22  1  0  0  0  0
 21 26  1  0  0  0  0
 22 29  1  0  0  0  0
 24 25  1  0  0  0  0
  1 32  1  0  0  0  0
  2 33  1  0  0  0  0
  3 34  1  0  0  0  0
  4 35  1  0  0  0  0
  5 36  1  0  0  0  0
 11 37  1  0  0  0  0
 11 38  1  0  0  0  0
 12 39  1  0  0  0  0
 12 40  1  0  0  0  0
 14 41  1  0  0  0  0
 14 42  1  0  0  0  0
 14 43  1  0  0  0  0
 15 44  1  0  0  0  0
 15 45  1  0  0  0  0
 15 46  1  0  0  0  0
 16 47  1  0  0  0  0
 16 48  1  0  0  0  0
 16 49  1  0  0  0  0
 17 50  1  0  0  0  0
 17 51  1  0  0  0  0
 17 52  1  0  0  0  0
 18 53  1  0  0  0  0
 18 54  1  0  0  0  0
 19 55  1  0  0  0  0
 19 56  1  0  0  0  0
 20 57  1  0  0  0  0
 20 58  1  0  0  0  0
 21 59  1  0  0  0  0
 22 60  1  0  0  0  0
 26 61  1  0  0  0  0
 27 62  1  0  0  0  0
 27 63  1  0  0  0  0
 29 64  1  0  0  0  0
M  CHG  1  27   1
M  END
> <OMEGA_C>
faLQQCImLz9xUq3BDwuaQMiocL8/HKjBssjfQK7v2b9gbK7By7vrQN5x7kC4T5DBFx61QP/U60Af
gZzBe2K+QJ0r4kD2E5LB4C+nQBPByz5PcKnBI/7sQPD+ur42ua/BXUa2QKiV/r9ppqrBQyPUQFNi
sT/LDZDBH16NQCVO7UAPUIHB//+sQDWDyUBh2XzBZMeeQHX1z0D2D4rBrjHdQEe4rz51cIfBRKfV
QAyKIkHOPrnBbOGjQAWpIUHzdKnBmWrxQN5FLEHaA6fB5MaJQPAVwz9eJqbBZBnfQFWKBUELoqvB
DHuYQLGEh0BpoZDBMgWfQOdyFkAlNp3BusKAQF7wW0DpH5nBxGvSQPFpHUHvLq3BjGb7QCHA/UAJ
TJnBsM7aQDP1+0AucqDBRjarQHTeuT9yXpTBWgCCQAWlr0CIdo7B+5nvQKvUDUCMTJLB2r5qQDN8
iUBXzKHBy3cKQSiOtL15PbPBTKypQN1jUcAfW6nB9YraQJXI2j9Wcq7B3rJ0QIp0lL/DJaXBnXv1
QDiVIMDOUbDBxQT9QNNR60De3ojBvRuXQFq450ArqqDBcFRXQDDa6kCAsn3B05eXQHR6B0Ek9IDB
leXNQMV+0UA4BnjB+/ehQAxkrUBx0HPB+5T9QM88/j7rN4TB76HFQAql4z6184DBs+PaQIrsKb8a
74rB2or2QPqZH0EdBLzBZWW/QLs+GEFCt73BClDNQGVsM0F4mLrBLQ2hQD8UHkG53qDB97ubQESM
MkFx3qrBUtGNQJleF0E6/a3BW3HvQN3KKEEoZ57BeSoJQXaIKUET0anBdoPoQD4PPUFbcajBcX+D
QND8CkCGFq3BVtRWQJijjT/KNKPBfl/KQIVQ90C4v7DBGlEAQZ2LA0FsHa7B+VCaQAEraUDuOYnB
nAK5QJikjkBue5PB9927QNkwNUAqeqDB42hIQIAWPkDtlJXBoa+UQJjTWj9gS5HB+wxVQC8TqkA7
NYnBHPNqQOamukB5SpXBwiBNQIz9ckDAGKfBW2zPQPgGLT/yo63BjKWZQFx1dL/NC6jBaVveQI7H
2r9pFq/B/Y/rQJ0G8ECrUpDBIBy1QHc860CAhZzByaa+QDIz4kBlEpLByoqmQNfqxD4ebqnBkGfr
QKt7vb64YbDB1G21QKoIAMDN9KrBs/vSQLMarj+axo/BSaOOQAUP7EBTEIHBzaiuQExQyEBj43zB
UaCfQItfz0A+AIrBf/rcQH7xcj7O6IfBbMihQEIVIUFSxqnBTLvuQEeDLEEADafBrWHUQMh+IkF1
X7nBUU2JQGkRwT9ABKbBXjzeQFKUBUGLuKvBDLCYQEnlhkBygJDB7uKeQDwHFUC7GZ3BRFSBQD9A
XEBhMZnBcbTQQKdTHUFEU63BKNL6QF1W/0CiWZnBtlfaQNE+/EACgaDBakuqQLmUtj9eOZTBxp2C
QLtGr0CRZY7Bq+rtQKdjDkDAipHBmitwQKwWikA/8KHBYl8JQWwNtL1bRrTBN9SoQC87UsCJw6nB
zDHZQMno2T8wwa7BYf50QI/Qlr/8waTBarvzQELXIMA+Q7HBfNz8QE3d7UDb3IjBPjiXQHso5kAt
q6DB2T1aQPg96UAx8HzBw66YQLPfBkHynYDBd6nPQL9b0EA9RnjBoRmkQFLaq0CJ+nPBZHL9QOkf
vz57sITBsLLFQJjHhD6xT4HB4P3aQE0yO79jDYzBKn+MQMBHFkGmPa7Bu8meQDbcHUHsJ6HBBMKY
QITHMUGmZ6vByQEIQRXTKUGzlKnByr3lQNw2PUEErqjBgcXrQI1LKUFJbp7Bj4n1QPXoH0HJB7zB
ntC+QIj4F0Ga673BbmbLQMZJM0EewLrBA8CCQGRJCkDy6KzBnhxWQHtkiz/cA6PBAsrJQIjq9kBa
yrDBVc3/QGvYA0GQOa7B13yZQBlaZ0DMIYnBUpm5QO+SjUCcI5PB3Ce8QG4vMkC+W6DBf6lHQIE/
QEDu55XBeYmTQCuHVD+FPpHBUwBWQIcIqkDoKInB859sQHxMukCWP5XBxvpSQK1OdUACYKfBZiPO
QLoIJz8Nv63BVAGYQK0aZr96CafBXpPbQPiu378YEq7BvneyQNMt4EB+/ZzBCInjQPBD7kBv1I/B
bi26QJhG4UBVUZHBTIilQGRi1j74ManB+DfpQBqo274WHrDByPayQMyk/b+liKnBVsvTQA6vsj+P
9o/Bk3CIQJXw70A8C4HB9gaoQOMRzUDS53rBH8yaQEmo0ECeOYnB1oXaQDII0D5O1YbB0ckXQRdW
K0HikaPBNoHhQOWsI0FAtaTB0RsCQRUtKkGMj5LB/8KJQJECyz/YEKbB5H8LQdHYB0EXmZzB43aY
QA2giECxVpDBa0+gQHsdGkBhTZ3BUiiDQPePYkCPm5nBzzkFQUv8H0F0yp3Bwu/VQEIG6kDj6qHB
JpHxQM019UAbF5rBNPWqQDpmwz8vPJTB8hJ/QOHWrkDhiI3BjAnxQDZNCUDbmJLBjM55QMjUjUBJ
YKLBvTIIQdRNTL5hT7TB2gemQEy3T8CLe6fBQ2rYQBTM1D+GaK/BDhFyQE/Nib8XeqPBR0DwQOwU
JcC/+q/BhW2UQJt+2EBMzqDBnd70QP4b8kDRaojBMhNNQGzc7UDmd33BzXOSQIPXCEHrIoHBHKrI
QJHS1UCg+XXB6L+cQPj/sUCxK3HBby77QIOSAz9EqoPBgELDQAgSHD+wboDBY/jVQOxlHr/q0InB
FaMmQZgrKUGr+J7BscgZQYtwJEG4mqvBMzQUQd6CPEHpQ6TB9PvFQOPQG0EH4aDBBUPbQELxNEEX
ZKXBAGzmQO/eHEHmuqzByLfpQKsdIkF3Zo7B5eQQQelZKEEI4I3Bcb38QPtHO0F6dJPBRSKEQD9A
DkBRGq3B1u5VQBGGmz+jAaPBM5gSQX5AAkFYJqTBaUoXQTA/BkEvHZbB5CiaQJNhZkAHX4nBZf64
QCs+kkBfsJLBotG9QIOnNUDepKDBNuRIQGO7R0Ct6pbB11qTQOFgfT8+9ZDBBFdTQFTnpkCLCojB
7qNhQJy4uUDOGJTBLzVfQFvtfUBwHKjB

> <OMEGA_E>
OAQDPkB9+D2gKf4+

> <OMEGA_NBR>
     49449

$$$$
50197324
  -OEChem-04172616093D

 86 89  0     1  0  0  0  0  0999 V2000
   12.9075    1.0737  -13.0723 C   0  0  0  0  0  0  0  0  0  0  0  0
   12.4992   -0.0514  -13.8166 C   0  0  0  0  0  0  0  0  0  0  0  0
   11.9888    2.1048  -12.7872 C   0  0  0  0  0  0  0  0  0  0  0  0
   11.1703   -0.1505  -14.2682 C   0  0  0  0  0  0  0  0  0  0  0  0
   10.6567    2.0046  -13.2336 C   0  0  0  0  0  0  0  0  0  0  0  0
    6.7640    1.0813  -21.1312 C   0  0  0  0  0  0  0  0  0  0  0  0
    4.9547   -0.4901  -20.6662 C   0  0  0  0  0  0  0  0  0  0  0  0
    7.0714   -1.2975  -21.5705 C   0  0  0  0  0  0  0  0  0  0  0  0
   10.2422    0.8646  -13.9549 C   0  0  0  0  0  0  0  0  0  0  0  0
    5.4561    0.8267  -20.6603 C   0  0  0  0  0  0  0  0  0  0  0  0
    7.5724    0.0186  -21.5746 C   0  0  0  0  0  0  0  0  0  0  0  0
    5.7589   -1.5498  -21.1273 C   0  0  0  0  0  0  0  0  0  0  0  0
    6.4227   -1.1695  -16.0344 C   0  0  0  0  0  0  0  0  0  0  0  0
    6.9828    2.1274  -17.5653 C   0  0  0  0  0  0  0  0  0  0  0  0
    7.1764   -2.1745  -18.0691 C   0  0  0  0  0  0  0  0  0  0  0  0
    6.1055    5.7500  -18.3176 C   0  0  0  0  0  0  0  0  0  0  0  0
    7.8427   -0.8301  -17.8757 C   0  0  0  0  0  0  0  0  0  0  0  0
    4.8573    6.9547  -16.6467 C   0  0  0  0  0  0  0  0  0  0  0  0
    6.7804   -2.5325  -16.6566 C   0  0  2  0  0  0  0  0  0  0  0  0
    5.9013    7.1613  -17.7320 C   0  0  2  0  0  0  0  0  0  0  0  0
    4.9444    4.9171  -17.7281 C   0  0  2  0  0  0  0  0  0  0  0  0
    6.1586    9.2460  -22.0944 C   0  0  0  0  0  0  0  0  0  0  0  0
    3.8562   -3.2783  -18.2121 C   0  0  0  0  0  0  0  0  0  0  0  0
    8.8237    0.7469  -14.4418 C   0  0  0  0  0  0  0  0  0  0  0  0
    4.5535    1.9645  -20.2329 C   0  0  0  0  0  0  0  0  0  0  0  0
    5.6647   -3.6082  -16.5831 C   0  0  0  0  0  0  0  0  0  0  0  0
    5.3210    9.0941  -20.8260 C   0  0  0  0  0  0  0  0  0  0  0  0
    8.6920    1.4326  -15.8064 C   0  0  0  0  0  0  0  0  0  0  0  0
    6.1911    8.5490  -19.6909 C   0  0  0  0  0  0  0  0  0  0  0  0
    7.2724    1.2150  -16.3753 C   0  0  2  0  0  0  0  0  0  0  0  0
    4.2553    3.9684  -18.7271 C   0  0  2  0  0  0  0  0  0  0  0  0
    5.2439    2.9008  -19.2226 C   0  0  1  0  0  0  0  0  0  0  0  0
    7.0593   -0.1846  -16.8072 N   0  0  0  0  0  0  0  0  0  0  0  0
    5.6957    2.1057  -18.0755 N   0  0  0  0  0  0  0  0  0  0  0  0
    3.9944    5.9027  -17.1949 N   0  3  0  0  0  0  0  0  0  0  0  0
    5.7723   -0.9878  -15.0119 O   0  0  0  0  0  0  0  0  0  0  0  0
    7.8645    2.8152  -18.0710 O   0  0  0  0  0  0  0  0  0  0  0  0
    3.7377    4.7020  -19.8372 O   0  0  0  0  0  0  0  0  0  0  0  0
    5.3031    8.0531  -18.6840 O   0  0  0  0  0  0  0  0  0  0  0  0
    4.3291   -3.1049  -16.8586 O   0  0  0  0  0  0  0  0  0  0  0  0
    8.8287    0.2630  -22.0085 F   0  0  0  0  0  0  0  0  0  0  0  0
    5.2845   -2.8158  -21.1102 F   0  0  0  0  0  0  0  0  0  0  0  0
   13.9258    1.1462  -12.7198 H   0  0  0  0  0  0  0  0  0  0  0  0
   13.2058   -0.8369  -14.0402 H   0  0  0  0  0  0  0  0  0  0  0  0
   12.3067    2.9713  -12.2264 H   0  0  0  0  0  0  0  0  0  0  0  0
   10.8610   -1.0032  -14.8544 H   0  0  0  0  0  0  0  0  0  0  0  0
    9.9545    2.7980  -13.0245 H   0  0  0  0  0  0  0  0  0  0  0  0
    7.1433    2.0923  -21.1506 H   0  0  0  0  0  0  0  0  0  0  0  0
    3.9520   -0.6868  -20.3165 H   0  0  0  0  0  0  0  0  0  0  0  0
    7.6938   -2.1133  -21.9073 H   0  0  0  0  0  0  0  0  0  0  0  0
    6.2958   -2.0940  -18.7233 H   0  0  0  0  0  0  0  0  0  0  0  0
    7.8775   -2.9119  -18.4871 H   0  0  0  0  0  0  0  0  0  0  0  0
    6.0498    5.7726  -19.4159 H   0  0  0  0  0  0  0  0  0  0  0  0
    7.0770    5.3371  -18.0081 H   0  0  0  0  0  0  0  0  0  0  0  0
    8.8914   -0.9557  -17.5682 H   0  0  0  0  0  0  0  0  0  0  0  0
    7.8006   -0.2377  -18.8016 H   0  0  0  0  0  0  0  0  0  0  0  0
    5.3267    6.6279  -15.7071 H   0  0  0  0  0  0  0  0  0  0  0  0
    4.2866    7.8783  -16.4696 H   0  0  0  0  0  0  0  0  0  0  0  0
    7.6656   -2.9250  -16.1348 H   0  0  0  0  0  0  0  0  0  0  0  0
    6.8399    7.5548  -17.3145 H   0  0  0  0  0  0  0  0  0  0  0  0
    5.3418    4.3137  -16.8987 H   0  0  0  0  0  0  0  0  0  0  0  0
    5.5280    9.6378  -22.9061 H   0  0  0  0  0  0  0  0  0  0  0  0
    6.9876    9.9437  -21.9048 H   0  0  0  0  0  0  0  0  0  0  0  0
    6.5638    8.2657  -22.3857 H   0  0  0  0  0  0  0  0  0  0  0  0
    2.8417   -2.8628  -18.3026 H   0  0  0  0  0  0  0  0  0  0  0  0
    4.5301   -2.7544  -18.9058 H   0  0  0  0  0  0  0  0  0  0  0  0
    3.8367   -4.3501  -18.4591 H   0  0  0  0  0  0  0  0  0  0  0  0
    8.5564   -0.3157  -14.5383 H   0  0  0  0  0  0  0  0  0  0  0  0
    8.1477    1.2311  -13.7216 H   0  0  0  0  0  0  0  0  0  0  0  0
    4.2716    2.5474  -21.1221 H   0  0  0  0  0  0  0  0  0  0  0  0
    3.6493    1.5449  -19.7677 H   0  0  0  0  0  0  0  0  0  0  0  0
    5.8949   -4.3940  -17.3175 H   0  0  0  0  0  0  0  0  0  0  0  0
    5.6682   -4.0395  -15.5712 H   0  0  0  0  0  0  0  0  0  0  0  0
    4.9158   10.0749  -20.5366 H   0  0  0  0  0  0  0  0  0  0  0  0
    4.4920    8.3969  -21.0174 H   0  0  0  0  0  0  0  0  0  0  0  0
    8.8763    2.5108  -15.6910 H   0  0  0  0  0  0  0  0  0  0  0  0
    9.4313    1.0064  -16.5005 H   0  0  0  0  0  0  0  0  0  0  0  0
    6.8319    7.7361  -20.0631 H   0  0  0  0  0  0  0  0  0  0  0  0
    6.8197    9.3517  -19.2780 H   0  0  0  0  0  0  0  0  0  0  0  0
    6.5503    1.4518  -15.5801 H   0  0  0  0  0  0  0  0  0  0  0  0
    3.4325    3.4586  -18.2044 H   0  0  0  0  0  0  0  0  0  0  0  0
    6.0997    3.3929  -19.7079 H   0  0  0  0  0  0  0  0  0  0  0  0
    5.0286    1.5072  -17.6319 H   0  0  0  0  0  0  0  0  0  0  0  0
    3.4255    5.4986  -16.4786 H   0  0  0  0  0  0  0  0  0  0  0  0
    3.4094    6.2635  -17.9212 H   0  0  0  0  0  0  0  0  0  0  0  0
    3.3163    4.1043  -20.4436 H   0  0  0  0  0  0  0  0  0  0  0  0
  1  2  1  0  0  0  0
  1  3  2  0  0  0  0
  2  4  2  0  0  0  0
  3  5  1  0  0  0  0
  4  9  1  0  0  0  0
  5  9  2  0  0  0  0
  6 10  1  0  0  0  0
  6 11  2  0  0  0  0
  7 10  2  0  0  0  0
  7 12  1  0  0  0  0
  8 11  1  0  0  0  0
  8 12  2  0  0  0  0
  9 24  1  0  0  0  0
 10 25  1  0  0  0  0
 11 41  1  0  0  0  0
 12 42  1  0  0  0  0
 13 19  1  0  0  0  0
 13 33  1  0  0  0  0
 13 36  2  0  0  0  0
 14 30  1  0  0  0  0
 14 34  1  0  0  0  0
 14 37  2  0  0  0  0
 15 17  1  0  0  0  0
 15 19  1  0  0  0  0
 16 20  1  0  0  0  0
 16 21  1  0  0  0  0
 17 33  1  0  0  0  0
 18 20  1  0  0  0  0
 18 35  1  0  0  0  0
 19 26  1  0  0  0  0
 20 39  1  0  0  0  0
 21 31  1  0  0  0  0
 21 35  1  0  0  0  0
 22 27  1  0  0  0  0
 23 40  1  0  0  0  0
 24 28  1  0  0  0  0
 25 32  1  0  0  0  0
 26 40  1  0  0  0  0
 27 29  1  0  0  0  0
 28 30  1  0  0  0  0
 29 39  1  0  0  0  0
 30 33  1  0  0  0  0
 31 32  1  0  0  0  0
 31 38  1  0  0  0  0
 32 34  1  0  0  0  0
  1 43  1  0  0  0  0
  2 44  1  0  0  0  0
  3 45  1  0  0  0  0
  4 46  1  0  0  0  0
  5 47  1  0  0  0  0
  6 48  1  0  0  0  0
  7 49  1  0  0  0  0
  8 50  1  0  0  0  0
 15 51  1  0  0  0  0
 15 52  1  0  0  0  0
 16 53  1  0  0  0  0
 16 54  1  0  0  0  0
 17 55  1  0  0  0  0
 17 56  1  0  0  0  0
 18 57  1  0  0  0  0
 18 58  1  0  0  0  0
 19 59  1  0  0  0  0
 20 60  1  0  0  0  0
 21 61  1  0  0  0  0
 22 62  1  0  0  0  0
 22 63  1  0  0  0  0
 22 64  1  0  0  0  0
 23 65  1  0  0  0  0
 23 66  1  0  0  0  0
 23 67  1  0  0  0  0
 24 68  1  0  0  0  0
 24 69  1  0  0  0  0
 25 70  1  0  0  0  0
 25 71  1  0  0  0  0
 26 72  1  0  0  0  0
 26 73  1  0  0  0  0
 27 74  1  0  0  0  0
 27 75  1  0  0  0  0
 28 76  1  0  0  0  0
 28 77  1  0  0  0  0
 29 78  1  0  0  0  0
 29 79  1  0  0  0  0
 30 80  1  0  0  0  0
 31 81  1  0  0  0  0
 32 82  1  0  0  0  0
 34 83  1  0  0  0  0
 35 84  1  0  0  0  0
 35 85  1  0  0  0  0
 38 86  1  0  0  0  0
M  CHG  1  35   1
M  END
> <OMEGA_C>
H4VOQe5uiT81KFHBi/xHQZCHUr3mEF3BVNI/QUC0BkBEmEzBa7kyQQwdGr6dSmTBCIIqQaxKAEDZ
vFPBynLYQLtnij+dDKnBv4yeQKzu+r5QVKXBhUjiQIETpr9akKzB5N8jQehWXT92R1/BlZiuQNqf
Uz9NSKXByVDyQLB0mDyymKzBL0m4QEZexr+nBKnBGofNQOSxlb9/RoDBN3PfQL4mCECnhYzBc6Xl
QHgqC8CWjZDBf2DDQFEAuEBdipLBmvf6QMKAVL97AY/B3m6bQDKN3kBzLIXBJfnYQAgUIsDJQIXB
m9e8QMYp5UAg243BTDieQNVYnUAa043BNRPFQI3vE0FYwbDBvMt2QFLQUcBcspHByi0NQXA1Pz+A
EWfBfraRQFtz+z/43KHB4ES1QB7sZsAtqoTBlUWqQFKBEUGxm6bBQhILQdVdtz/b5nzBRB3GQNLI
CEH0hp3Be7foQIWDmz+wAIPBLSuIQIT5fUAz0ZXBPs6nQDCnOUDux5nBL+bhQKQSPb4pdYbBDUO2
QCjDBkCumpDBSaR/QOfivEAZj4nBEre4QGjdfL+0MHDB0qn7QP4sNEB5kZDBvzVvQPt2lkCPsp7B
prKpQFXZAEHOeJXBTIiKQAy3RsB83obBYkINQVauhj6AEbDBuhqpQNo2NMC64ajB7M9eQXS3kj81
hEvBEktTQU9AVr+NpGDBLehEQToqPkB7n0PBi8YtQX5qgL9uq23BikUfQbMRM0A3ZFDBiZXkQLTo
BUCANKnBRO18QCPUL78fiKLBYjP2QO8/B8AsQq/B2nbJQEMEBsBKyZXBhhT8QLhcOsCV5ZPBW5jB
QC25uEDNU5vBjXbiQILJqkCKEJDBCUMOQQasdL+1i4zBjJ75QMdrc77BaZbBYHSqQOkX1EBUUHvB
+iuJQBUb/EDHwYPB0kz1QAM0O8AiFIHBTODaQP/A8UAehIrBK/CqQKkJikB2MIfBp+WwQJ80GkGu
P7fBU5rfQHcZH0EZPa/BSwrSQDpABEHmFbPBqt41QH84N8DIa5LB5faQQBtIMMAkP5fBWIx1QNsz
i8AmrJPB0+YIQcCoob7GnGjBE10CQQSVnT+4i1vBUbGIQEEII0Ah+qjBa45pQNa/xT9JJJ7BRKO8
QAOcjMBBiorBIGK1QK9DgcClI3nBR06dQNgyIUHsSqTBP76PQJtZBkG5I6jBJAUOQbCxIEAyDnvB
quYWQTTSgD/sAITB157aQD+O90AxgaDBPzvaQKWgFUFeOZrB0JvRQF/UuT/+R3nB+q1bQIRaXUCq
opHBBDHDQIwkWUDMqZ3Bo+qgQIjqwD8JDo3BDjxbQKT0r0AU1IPB4jNaQPZuyECpXo/B9j5UQMhW
g0COjKPBYVpOQUIecD/Y90/BrqFHQSD2I74eaVzBk/w/QXoV/j81SEvBHHgyQRC1X76K+mPBzsYq
QUFr9j9gwFLBnKTWQLRCjT9aKKnBtkmdQPVw9L59GqXBNa7gQF87o7+om6zBFfUjQSSUTz+uwF7B
MyytQKySVz+NKqXBEm/wQKNRNj3syazBxhK3QA9hxL+FzKjBdxzPQOtOkr97QYDBSJfgQGKMB0B1
ZYzBmhv3QCWNEMCQE47B9GTEQIJ3tkB8bZHB51L3QDlHQ7/i8I/BAk+XQC4d4kA4IIbBCWTRQJnl
HMBXeobBlGy8QNjt5ECD+Y3BxjSdQLZYnUBUM43Bef2gQEUmGEEj2qrBbll4QK27h8BpdJXBhW0N
QbTlPD/CvGbB2tKQQBiI/D+xcKHB6LKmQG9lJ8AiXIzBqbnIQLdNCkG9tqjB4dcLQf1iuT/qc3zB
q7nSQKPcCEF7tpzBzLzqQAdznD/X1YLBN1eIQHmofUDyWpXBCdKnQBpEOUCnXpnB5i/mQPokP75X
/4XBkP62QGIVBkAyRZDB73p7QEX9vUBO9YnBUYy4QKdVcL/+z3DBGXn8QGiEM0BWlZDBzhBxQBSv
lkCgQp7BAoCvQA4u/kBkD5fBmFamQGJZdsDzJpLBfR4MQXkKmD6FgLDB5emnQAwVM8DzsajBI49e
Qf05ej82AUrBTLhSQaaMdL+nH2DBzUNFQblINUBz9kHBilctQb5Dhr+Hw23BKsUfQSeuLkAHTk/B
RojiQGJ/B0Bba6nBkq56QK5LLb9WOKLBsoH0QACsBcDwY6/BxBLyQGWEM8AfnJXBmpkKQSPRJcBV
XYrBTG/GQDYhtECEMZrB9BziQAkyqkCW2I3BNQkMQbLKzr7XaZHBfdniQA1DAL81yZbBgwqjQHQZ
3EDS7nvBKmaEQA/N/0DvOIbB9xjXQF8zU8D3D4HBtQDZQC8w8kCyDIrBCyCnQM6wikCEKYbBj9Oa
QD/QGEGAgrPBxyiFQPIeEUGbxKbBvImmQFRtKEFuzqfBUOZ7QAgtpsCo2ZnBjmlPQKu9i8CtXY7B
ahddQDDMXcCcrZrBDrkIQfKvob4XlWjBgLMCQTNMnT+jNFvBIieHQOd1JEAKbajBmnVoQGY4xj9I
l53BC2mMQKhcJ8D/gYbBcWmiQNHN47+3+pHBn/TCQB0w9EDh0qvBlFXkQHFmEUG03KzBxacOQd2p
IUAKUnrBR+IXQWqrhD8NvIPBa7bvQM1O/kCsi5vBtx/YQNgNGUEMipnBXV/TQCyUuD9A/HjBzzNb
QOfbXEDCXJHB7fPCQJu9WEATXZ3BafShQBRQvz/3oIzBW9xVQHjRskCpHoTBZGxXQFzCxkCLMZDB
NGhXQE+8g0B5Q6PB3HhOQYiNgz9TsFDBTuxHQUzec70ydV3Bfcg/QXK/AkDxQkvBGJ0yQQDdEL5l
kGTBS3IqQYs1+z+mXFLBBZLXQFB0lT90FqnBK+qeQMwN4753PaXB9CvjQEc2mr+yg6zBesgjQWTc
Wj9JpF7BqQGuQD54Yj+SOaXBmyTyQDCo/D0EpqzBf4q5QNFpvr9c1qjBAJjMQAaTlr/osoDBUHrf
QGeCB0AGH4zB0lf4QM0jEMCoYY7Byf3GQIdRtkDwGJHBQ+b0QFpXQb8OGpDBWmiYQMO95kBbUojB
1pbXQEkdI8DLmIXBiU64QH+55EAffJHBd52fQDlZnUAAzIzBwsLFQL60IUEqzZ7BKDhiQLXxRsBN
8pTB7BcNQdm0QT88UGbBRvGQQIL0/z/CaaHBM52vQDqtUcD34YnBhTG5QAh9EkGv8afBYSwLQU9B
uT/pHHzBy+W9QPcK9kDIe6TBrWfpQNyhmT8UqILBclqJQDj/f0BOGZXBB8CnQP7tOUBZOJnBcTXl
QGESW75Z84XBV0S2QPGSBUBVL5DBF5aAQMIovkBVFInBVXe0QOQxfL91QHLBvRb7QAcaNkDe+o/B
MlR0QGF3mED8853B30eiQFx07UBRcZvBrfWWQKjBHMAgApHBpPwMQfiwyz4lP7DB3VqrQELeMMCY
sajB6MdeQXywij8bDEvBe0FTQWksVL+Bx2HBvuZEQZBxOEDNqEHBOZ0tQfNQd79Yim7BMzkfQUi+
L0D+a07BmuziQOP8C0C0TanBdsx9QO44Kb+jfaLBc533QBVsAMBIO6/BXmTwQMkLM8CzwpXBi2MM
Qd7AIcAFxIvBodXPQM/9qkB1IZnBk3jiQLSvskBkrIvBajMKQU7wqL68D5LBJEDeQP54CL98mZbB
JhKpQHkj6UDol4DBGcCCQPccAUGzRonBnbfmQIknS8DT2X7Btj/TQPe4+kD2IZDBTt6pQOipiUB6
94XBTSDCQF9gMkEmeaHBYuOwQBjTHkEM3ZfBBUPnQNTMHkFLhpzBSFE/QDOIG8DwU5rBZa10QKqG
gMCnWJnBXdw4QPF7WMDNK47BmJEIQYyLmr4k4WfBiGkCQQXonz/JwVrB7TGHQO/iJkCMVKjBBtho
QHeQxz/FpZ3BI9+5QF2yhcBaOI7BclebQFw4ZMCCEoPBULeXQG2DFUEuNKrB8xbOQCl9FUFu3a7B
1cQNQY/TIUCcLXrBzUEXQXjWhD9fjYPBxvK0QB8F4UB9LavBaVTfQCza70CtNKLBiPHRQO4ItD9J
nXjBEmVcQLSHYEAzHZHBJ2DDQGF2WECeHZ3BKiShQHA6vD/LwIzBuappQLkTtkAK64HBCilRQKj5
wEB3Uo7BPkJZQEEFhkAg9aLB

> <OMEGA_E>
eL7kPqS3qj60PgQ/

> <OMEGA_NBR>
      4292

$$$$
50197326
  -OEChem-04172616093D

 92 95  0     1  0  0  0  0  0999 V2000
   12.9129    1.0935  -13.0042 C   0  0  0  0  0  0  0  0  0  0  0  0
   12.5045   -0.0331  -13.7462 C   0  0  0  0  0  0  0  0  0  0  0  0
   11.9944    2.1252  -12.7203 C   0  0  0  0  0  0  0  0  0  0  0  0
   11.1760   -0.1323  -14.1983 C   0  0  0  0  0  0  0  0  0  0  0  0
   10.6628    2.0249  -13.1672 C   0  0  0  0  0  0  0  0  0  0  0  0
    6.7689    1.1147  -21.0833 C   0  0  0  0  0  0  0  0  0  0  0  0
    5.0372   -0.5201  -20.5441 C   0  0  0  0  0  0  0  0  0  0  0  0
    7.1614   -1.2550  -21.4938 C   0  0  0  0  0  0  0  0  0  0  0  0
   10.2493    0.8852  -13.8888 C   0  0  0  0  0  0  0  0  0  0  0  0
    5.4839    0.8171  -20.5751 C   0  0  0  0  0  0  0  0  0  0  0  0
    7.6087    0.0785  -21.5301 C   0  0  0  0  0  0  0  0  0  0  0  0
    5.8744   -1.5524  -21.0092 C   0  0  0  0  0  0  0  0  0  0  0  0
    6.5250   -1.1442  -16.0756 C   0  0  0  0  0  0  0  0  0  0  0  0
    7.0207    2.1444  -17.5263 C   0  0  0  0  0  0  0  0  0  0  0  0
    7.6976   -2.2399  -17.8686 C   0  0  0  0  0  0  0  0  0  0  0  0
    6.1348    5.6921  -18.1853 C   0  0  0  0  0  0  0  0  0  0  0  0
    8.0695   -0.7708  -17.8246 C   0  0  0  0  0  0  0  0  0  0  0  0
    4.7389    7.0918  -16.7957 C   0  0  0  0  0  0  0  0  0  0  0  0
    7.1691   -2.4783  -16.4557 C   0  0  2  0  0  0  0  0  0  0  0  0
    5.8874    7.1529  -17.7920 C   0  0  2  0  0  0  0  0  0  0  0  0
    4.9148    4.9159  -17.6320 C   0  0  2  0  0  0  0  0  0  0  0  0
    3.1829   -3.2826  -18.6682 C   0  0  0  0  0  0  0  0  0  0  0  0
    5.0220    9.5189  -21.3962 C   0  0  0  0  0  0  0  0  0  0  0  0
    8.8364    0.7755  -14.3882 C   0  0  0  0  0  0  0  0  0  0  0  0
    4.5543    1.9298  -20.1342 C   0  0  0  0  0  0  0  0  0  0  0  0
    4.3040   -2.8548  -17.7142 C   0  0  0  0  0  0  0  0  0  0  0  0
    6.2546    8.6345  -21.1526 C   0  0  0  0  0  0  0  0  0  0  0  0
    8.7120    1.5071  -15.7314 C   0  0  0  0  0  0  0  0  0  0  0  0
    5.2721   -4.0296  -17.4372 C   0  0  0  0  0  0  0  0  0  0  0  0
    6.5778    8.5213  -19.6569 C   0  0  0  0  0  0  0  0  0  0  0  0
    7.3239    1.2393  -16.3497 C   0  0  2  0  0  0  0  0  0  0  0  0
    6.2331   -3.7102  -16.2556 C   0  0  1  0  0  0  0  0  0  0  0  0
    4.2518    3.9472  -18.6364 C   0  0  2  0  0  0  0  0  0  0  0  0
    5.2440    2.8891  -19.1428 C   0  0  1  0  0  0  0  0  0  0  0  0
    7.1824   -0.1560  -16.8114 N   0  0  0  0  0  0  0  0  0  0  0  0
    5.7235    2.1142  -18.0020 N   0  0  0  0  0  0  0  0  0  0  0  0
    3.9380    5.9409  -17.2209 N   0  3  0  0  0  0  0  0  0  0  0  0
    5.7467   -0.9551  -15.1474 O   0  0  0  0  0  0  0  0  0  0  0  0
    7.8971    2.8178  -18.0595 O   0  0  0  0  0  0  0  0  0  0  0  0
    7.0485   -4.8471  -15.9854 O   0  0  0  0  0  0  0  0  0  0  0  0
    3.7321    4.6747  -19.7479 O   0  0  0  0  0  0  0  0  0  0  0  0
    5.4792    7.9087  -18.9484 O   0  0  0  0  0  0  0  0  0  0  0  0
    8.8422    0.3647  -22.0017 F   0  0  0  0  0  0  0  0  0  0  0  0
    5.4475   -2.8326  -20.9955 F   0  0  0  0  0  0  0  0  0  0  0  0
   13.9313    1.1668  -12.6523 H   0  0  0  0  0  0  0  0  0  0  0  0
   13.2109   -0.8196  -13.9675 H   0  0  0  0  0  0  0  0  0  0  0  0
   12.3123    2.9922  -12.1602 H   0  0  0  0  0  0  0  0  0  0  0  0
   10.8660   -0.9866  -14.7818 H   0  0  0  0  0  0  0  0  0  0  0  0
    9.9602    2.8180  -12.9582 H   0  0  0  0  0  0  0  0  0  0  0  0
    7.1066    2.1395  -21.1287 H   0  0  0  0  0  0  0  0  0  0  0  0
    4.0533   -0.7523  -20.1639 H   0  0  0  0  0  0  0  0  0  0  0  0
    7.8060   -2.0503  -21.8378 H   0  0  0  0  0  0  0  0  0  0  0  0
    6.9209   -2.4328  -18.6233 H   0  0  0  0  0  0  0  0  0  0  0  0
    8.5760   -2.8681  -18.0776 H   0  0  0  0  0  0  0  0  0  0  0  0
    6.1937    5.5909  -19.2791 H   0  0  0  0  0  0  0  0  0  0  0  0
    7.0663    5.3221  -17.7322 H   0  0  0  0  0  0  0  0  0  0  0  0
    9.1233   -0.6518  -17.5327 H   0  0  0  0  0  0  0  0  0  0  0  0
    7.9066   -0.3056  -18.8080 H   0  0  0  0  0  0  0  0  0  0  0  0
    5.1191    6.9436  -15.7742 H   0  0  0  0  0  0  0  0  0  0  0  0
    4.1423    8.0151  -16.8346 H   0  0  0  0  0  0  0  0  0  0  0  0
    8.0389   -2.6233  -15.7982 H   0  0  0  0  0  0  0  0  0  0  0  0
    6.7849    7.5804  -17.3211 H   0  0  0  0  0  0  0  0  0  0  0  0
    5.2365    4.3410  -16.7511 H   0  0  0  0  0  0  0  0  0  0  0  0
    2.5097   -2.4316  -18.8488 H   0  0  0  0  0  0  0  0  0  0  0  0
    3.6196   -3.6133  -19.6221 H   0  0  0  0  0  0  0  0  0  0  0  0
    2.6148   -4.1103  -18.2185 H   0  0  0  0  0  0  0  0  0  0  0  0
    4.8199    9.5776  -22.4759 H   0  0  0  0  0  0  0  0  0  0  0  0
    4.1515    9.0837  -20.8835 H   0  0  0  0  0  0  0  0  0  0  0  0
    5.2119   10.5286  -21.0034 H   0  0  0  0  0  0  0  0  0  0  0  0
    8.5759   -0.2848  -14.5224 H   0  0  0  0  0  0  0  0  0  0  0  0
    8.1523    1.2315  -13.6573 H   0  0  0  0  0  0  0  0  0  0  0  0
    4.2358    2.5001  -21.0193 H   0  0  0  0  0  0  0  0  0  0  0  0
    3.6733    1.4864  -19.6471 H   0  0  0  0  0  0  0  0  0  0  0  0
    4.8655   -2.0247  -18.1677 H   0  0  0  0  0  0  0  0  0  0  0  0
    3.8608   -2.5217  -16.7641 H   0  0  0  0  0  0  0  0  0  0  0  0
    6.0580    7.6290  -21.5530 H   0  0  0  0  0  0  0  0  0  0  0  0
    7.1184    9.0739  -21.6728 H   0  0  0  0  0  0  0  0  0  0  0  0
    8.8372    2.5881  -15.5708 H   0  0  0  0  0  0  0  0  0  0  0  0
    9.4925    1.1456  -16.4171 H   0  0  0  0  0  0  0  0  0  0  0  0
    4.6847   -4.9256  -17.1879 H   0  0  0  0  0  0  0  0  0  0  0  0
    5.8686   -4.2220  -18.3411 H   0  0  0  0  0  0  0  0  0  0  0  0
    7.4806    7.9064  -19.5270 H   0  0  0  0  0  0  0  0  0  0  0  0
    6.7570    9.5266  -19.2480 H   0  0  0  0  0  0  0  0  0  0  0  0
    6.5695    1.4280  -15.5718 H   0  0  0  0  0  0  0  0  0  0  0  0
    5.6081   -3.5034  -15.3744 H   0  0  0  0  0  0  0  0  0  0  0  0
    3.4316    3.4282  -18.1188 H   0  0  0  0  0  0  0  0  0  0  0  0
    6.0842    3.3892  -19.6467 H   0  0  0  0  0  0  0  0  0  0  0  0
    5.0688    1.5214  -17.5330 H   0  0  0  0  0  0  0  0  0  0  0  0
    3.3769    5.6061  -16.4639 H   0  0  0  0  0  0  0  0  0  0  0  0
    3.3476    6.1897  -17.9887 H   0  0  0  0  0  0  0  0  0  0  0  0
    6.4969   -5.6104  -15.8601 H   0  0  0  0  0  0  0  0  0  0  0  0
    3.3266    4.0718  -20.3599 H   0  0  0  0  0  0  0  0  0  0  0  0
  1  2  1  0  0  0  0
  1  3  2  0  0  0  0
  2  4  2  0  0  0  0
  3  5  1  0  0  0  0
  4  9  1  0  0  0  0
  5  9  2  0  0  0  0
  6 10  1  0  0  0  0
  6 11  2  0  0  0  0
  7 10  2  0  0  0  0
  7 12  1  0  0  0  0
  8 11  1  0  0  0  0
  8 12  2  0  0  0  0
  9 24  1  0  0  0  0
 10 25  1  0  0  0  0
 11 43  1  0  0  0  0
 12 44  1  0  0  0  0
 13 19  1  0  0  0  0
 13 35  1  0  0  0  0
 13 38  2  0  0  0  0
 14 31  1  0  0  0  0
 14 36  1  0  0  0  0
 14 39  2  0  0  0  0
 15 17  1  0  0  0  0
 15 19  1  0  0  0  0
 16 20  1  0  0  0  0
 16 21  1  0  0  0  0
 17 35  1  0  0  0  0
 18 20  1  0  0  0  0
 18 37  1  0  0  0  0
 19 32  1  0  0  0  0
 20 42  1  0  0  0  0
 21 33  1  0  0  0  0
 21 37  1  0  0  0  0
 22 26  1  0  0  0  0
 23 27  1  0  0  0  0
 24 28  1  0  0  0  0
 25 34  1  0  0  0  0
 26 29  1  0  0  0  0
 27 30  1  0  0  0  0
 28 31  1  0  0  0  0
 29 32  1  0  0  0  0
 30 42  1  0  0  0  0
 31 35  1  0  0  0  0
 32 40  1  0  0  0  0
 33 34  1  0  0  0  0
 33 41  1  0  0  0  0
 34 36  1  0  0  0  0
  1 45  1  0  0  0  0
  2 46  1  0  0  0  0
  3 47  1  0  0  0  0
  4 48  1  0  0  0  0
  5 49  1  0  0  0  0
  6 50  1  0  0  0  0
  7 51  1  0  0  0  0
  8 52  1  0  0  0  0
 15 53  1  0  0  0  0
 15 54  1  0  0  0  0
 16 55  1  0  0  0  0
 16 56  1  0  0  0  0
 17 57  1  0  0  0  0
 17 58  1  0  0  0  0
 18 59  1  0  0  0  0
 18 60  1  0  0  0  0
 19 61  1  0  0  0  0
 20 62  1  0  0  0  0
 21 63  1  0  0  0  0
 22 64  1  0  0  0  0
 22 65  1  0  0  0  0
 22 66  1  0  0  0  0
 23 67  1  0  0  0  0
 23 68  1  0  0  0  0
 23 69  1  0  0  0  0
 24 70  1  0  0  0  0
 24 71  1  0  0  0  0
 25 72  1  0  0  0  0
 25 73  1  0  0  0  0
 26 74  1  0  0  0  0
 26 75  1  0  0  0  0
 27 76  1  0  0  0  0
 27 77  1  0  0  0  0
 28 78  1  0  0  0  0
 28 79  1  0  0  0  0
 29 80  1  0  0  0  0
 29 81  1  0  0  0  0
 30 82  1  0  0  0  0
 30 83  1  0  0  0  0
 31 84  1  0  0  0  0
 32 85  1  0  0  0  0
 33 86  1  0  0  0  0
 34 87  1  0  0  0  0
 36 88  1  0  0  0  0
 37 89  1  0  0  0  0
 37 90  1  0  0  0  0
 40 91  1  0  0  0  0
 41 92  1  0  0  0  0
M  CHG  1  37   1
M  END
> <OMEGA_C>
JZtOQRT4iz8mEVDBexJIQUDDB71q8FvBQ+k/QbsCCEB8hkvBCNEyQbKDB75KLGPBBZsqQXWXAUDm
rFLBEZvYQHOtjj+xqqjBcjChQCoiBb9rWqTBSCrlQKejoL8386vBL/0jQVafYj9rOF7BHnyvQEYq
UT/EmaTBE3rzQMjDoD2qPazB6vq7QBK0xr/eEqjBBc3QQB51kr/smoDBjKngQJk9CUDiNYzBblL2
QAFbD8Db8o7B6U/EQF8ltkCPe5HBlxwBQUxQRb++mI7BPKWXQM/v4kCqXYbB42jlQM2bHsA6pYPB
/GW8QIrk5EDzVY7BGUadQMNOnUBfDo3BNLRLQCQWUsCIWJXBBLSgQExNGEGBK6vBzGENQTmHRj9B
NmbBobyRQL0C9z/dEqHBL7qJQGW0NsCdto3BVCXIQPAmCkF0OKnBeGQLQUrpwD/5s3vBrbSoQLDy
gMBLf4vBeH3SQFVXCEFbQZ3Bb13qQC+hnj9IzILBYXXHQDJzbcCLC4LBrg6IQEKffEBYF5XBFs+n
QD/nOEBeJJnBkdblQLa1H76yfYbB+Sa3QPVOB0AJBJDBjgd8QKsbvkBhxInBT+W3QIR+dL/pW3LB
9bT8QEpWNEDOeZDBAI3hQLIbm8BcxH/BbttuQDCXlUCu+53BfFWvQOoT/UA+lpfBr3kNQWC/uj5x
A7DBiFGuQD1JNcDa9qfBqeZeQVtZlT/eb0rBuF9TQdLQUb+7el/BGP9EQZd/P0BakELB99otQU2U
fL8kgmzBEV0fQd5ZNEDOVE/B8WjjQBvuCECZB6nB9bSBQCuWQL/DT6HBy8r5QIA4A8DFs67B7Hfd
QEKzG8B8/JTBSzcJQbWPN8DwnpDBaTLGQIToskCQO5rBER/iQGxOqkCB243BPPkRQTjaJr/xQozB
/gL9QFxynL69dpbBe8+jQM0x3kAnY3zBkY2EQM89AEE7rYbBS58AQfXkJ8A/xXzBPR7ZQNeS8kCW
kYrBEJGnQJHpikAsAobBtJ4gQEmfG8BeypbB46dnQGtAZ8AT+pzBalknQJuHg8CHv5HBaDyaQAU+
GUGuzrPB5tiEQM9WEUGCEafB08emQD51KEHzBqjB9TYJQWvMkb7SW2jBBnACQTWgnT98hFrBiYuH
QBIBIEB2J6jBlxZrQKtDvj9NLZ3BjrKbQAmVAcBqV5HBohZ3QNVjIcDdHIbBCdvBQNQg9ECBbKzB
9cnjQNkuEUHyYa3BAGUNQXejJUDQIXnBNOEXQZeikj9OVoPBuOiVQM+encDQgInBWMu7QLYah8Ce
upLBwGDvQP0A/UA1N5zBKznYQBhtGEHP+5nB+jjSQH7Jtj8iJnnBLHWzQMY3YMB//XXBl59bQEBn
W0BP85DBvbHCQGjpWECALJ3BvjOiQBi8wj+WQ4zB8h5YQMVks0D9tYPB4z5WQEwSxkDa6I/BTebP
QBKIs8DPwn3Bl+dUQA1MgkAQ4aLB

> <OMEGA_E>
LNa7Pg==

> <OMEGA_NBR>
      6120

$$$$
50197331
  -OEChem-04172616093D

 98101  0     1  0  0  0  0  0999 V2000
   12.9490    0.9255  -13.0882 C   0  0  0  0  0  0  0  0  0  0  0  0
   12.0521    1.9553  -12.7378 C   0  0  0  0  0  0  0  0  0  0  0  0
   12.5123   -0.1544  -13.8822 C   0  0  0  0  0  0  0  0  0  0  0  0
   10.7133    1.8984  -13.1681 C   0  0  0  0  0  0  0  0  0  0  0  0
   11.1741   -0.2133  -14.3125 C   0  0  0  0  0  0  0  0  0  0  0  0
    6.7875    1.1274  -21.0763 C   0  0  0  0  0  0  0  0  0  0  0  0
    4.9714   -0.4656  -20.7411 C   0  0  0  0  0  0  0  0  0  0  0  0
    7.1090   -1.2248  -21.6373 C   0  0  0  0  0  0  0  0  0  0  0  0
   10.2692    0.8007  -13.9337 C   0  0  0  0  0  0  0  0  0  0  0  0
    5.4737    0.8455  -20.6361 C   0  0  0  0  0  0  0  0  0  0  0  0
    7.6058    0.0908  -21.5625 C   0  0  0  0  0  0  0  0  0  0  0  0
    5.7856   -1.4987  -21.2449 C   0  0  0  0  0  0  0  0  0  0  0  0
    6.2874   -1.1529  -16.2201 C   0  0  0  0  0  0  0  0  0  0  0  0
    7.5672   -3.7133  -14.9370 C   0  0  0  0  0  0  0  0  0  0  0  0
    7.0161    2.0904  -17.5256 C   0  0  0  0  0  0  0  0  0  0  0  0
    7.7973   -2.2943  -17.7538 C   0  0  0  0  0  0  0  0  0  0  0  0
    6.1398    5.6932  -18.1941 C   0  0  0  0  0  0  0  0  0  0  0  0
    7.7784   -0.7974  -17.9945 C   0  0  0  0  0  0  0  0  0  0  0  0
    4.7683    7.0586  -16.7461 C   0  0  0  0  0  0  0  0  0  0  0  0
    5.9144    7.1434  -17.7435 C   0  0  2  0  0  0  0  0  0  0  0  0
    4.9254    4.9128  -17.6354 C   0  0  2  0  0  0  0  0  0  0  0  0
    6.5061   -2.5180  -16.9357 C   0  0  2  0  0  0  0  0  0  0  0  0
    7.6472   -5.0221  -14.1600 C   0  0  0  0  0  0  0  0  0  0  0  0
    5.0357    9.4577  -21.3754 C   0  0  0  0  0  0  0  0  0  0  0  0
    2.8558   -2.8760  -18.4909 C   0  0  0  0  0  0  0  0  0  0  0  0
    5.4214   -4.3890  -18.3678 C   0  0  0  0  0  0  0  0  0  0  0  0
    8.8455    0.7406  -14.4053 C   0  0  0  0  0  0  0  0  0  0  0  0
    4.5582    1.9509  -20.1540 C   0  0  0  0  0  0  0  0  0  0  0  0
    6.2760    8.5946  -21.0947 C   0  0  0  0  0  0  0  0  0  0  0  0
    3.9364   -2.5262  -17.4462 C   0  0  0  0  0  0  0  0  0  0  0  0
    8.7390    1.4096  -15.7782 C   0  0  0  0  0  0  0  0  0  0  0  0
    6.5983    8.5401  -19.5947 C   0  0  0  0  0  0  0  0  0  0  0  0
    7.3308    1.1725  -16.3500 C   0  0  2  0  0  0  0  0  0  0  0  0
    4.2593    3.9432  -18.6330 C   0  0  2  0  0  0  0  0  0  0  0  0
    5.3556   -2.8828  -17.9501 C   0  0  1  0  0  0  0  0  0  0  0  0
    5.2497    2.8820  -19.1374 C   0  0  1  0  0  0  0  0  0  0  0  0
    7.1784   -0.2333  -16.7804 N   0  0  0  0  0  0  0  0  0  0  0  0
    6.6258   -3.6162  -15.9559 N   0  0  0  0  0  0  0  0  0  0  0  0
    5.7159    2.0833  -18.0002 N   0  0  0  0  0  0  0  0  0  0  0  0
    3.9533    5.9390  -17.2212 N   0  3  0  0  0  0  0  0  0  0  0  0
    5.6069   -0.9636  -15.2173 O   0  0  0  0  0  0  0  0  0  0  0  0
    8.4167   -2.8508  -14.7462 O   0  0  0  0  0  0  0  0  0  0  0  0
    7.8903    2.7745  -18.0490 O   0  0  0  0  0  0  0  0  0  0  0  0
    3.7388    4.6726  -19.7440 O   0  0  0  0  0  0  0  0  0  0  0  0
    5.5015    7.9491  -18.8647 O   0  0  0  0  0  0  0  0  0  0  0  0
    8.8632    0.3630  -21.9752 F   0  0  0  0  0  0  0  0  0  0  0  0
    5.3005   -2.7576  -21.3367 F   0  0  0  0  0  0  0  0  0  0  0  0
   13.9731    0.9640  -12.7474 H   0  0  0  0  0  0  0  0  0  0  0  0
   12.3923    2.7876  -12.1395 H   0  0  0  0  0  0  0  0  0  0  0  0
   13.2043   -0.9357  -14.1598 H   0  0  0  0  0  0  0  0  0  0  0  0
   10.0281    2.6932  -12.9126 H   0  0  0  0  0  0  0  0  0  0  0  0
   10.8403   -1.0330  -14.9315 H   0  0  0  0  0  0  0  0  0  0  0  0
    7.1634    2.1392  -21.0394 H   0  0  0  0  0  0  0  0  0  0  0  0
    3.9583   -0.6799  -20.4344 H   0  0  0  0  0  0  0  0  0  0  0  0
    7.7429   -2.0226  -21.9954 H   0  0  0  0  0  0  0  0  0  0  0  0
    7.7679   -2.8499  -18.7027 H   0  0  0  0  0  0  0  0  0  0  0  0
    8.6875   -2.5936  -17.1811 H   0  0  0  0  0  0  0  0  0  0  0  0
    6.1703    5.6286  -19.2917 H   0  0  0  0  0  0  0  0  0  0  0  0
    7.0786    5.2993  -17.7774 H   0  0  0  0  0  0  0  0  0  0  0  0
    8.7997   -0.4142  -18.1367 H   0  0  0  0  0  0  0  0  0  0  0  0
    7.1693   -0.5540  -18.8776 H   0  0  0  0  0  0  0  0  0  0  0  0
    5.1481    6.8610  -15.7328 H   0  0  0  0  0  0  0  0  0  0  0  0
    4.1848    7.9911  -16.7436 H   0  0  0  0  0  0  0  0  0  0  0  0
    6.8196    7.5425  -17.2625 H   0  0  0  0  0  0  0  0  0  0  0  0
    5.2527    4.3402  -16.7550 H   0  0  0  0  0  0  0  0  0  0  0  0
    8.5207   -4.9996  -13.4918 H   0  0  0  0  0  0  0  0  0  0  0  0
    6.7322   -5.1505  -13.5630 H   0  0  0  0  0  0  0  0  0  0  0  0
    7.7460   -5.8611  -14.8644 H   0  0  0  0  0  0  0  0  0  0  0  0
    4.8363    9.4732  -22.4571 H   0  0  0  0  0  0  0  0  0  0  0  0
    4.1678    9.0343  -20.8487 H   0  0  0  0  0  0  0  0  0  0  0  0
    5.2152   10.4835  -21.0210 H   0  0  0  0  0  0  0  0  0  0  0  0
    1.8642   -2.6087  -18.0971 H   0  0  0  0  0  0  0  0  0  0  0  0
    3.0460   -2.3141  -19.4172 H   0  0  0  0  0  0  0  0  0  0  0  0
    2.8872   -3.9548  -18.7035 H   0  0  0  0  0  0  0  0  0  0  0  0
    4.6075   -4.6101  -19.0740 H   0  0  0  0  0  0  0  0  0  0  0  0
    6.3894   -4.5942  -18.8483 H   0  0  0  0  0  0  0  0  0  0  0  0
    5.3138   -5.0221  -17.4747 H   0  0  0  0  0  0  0  0  0  0  0  0
    8.5281   -0.3098  -14.4827 H   0  0  0  0  0  0  0  0  0  0  0  0
    8.1984    1.2674  -13.6886 H   0  0  0  0  0  0  0  0  0  0  0  0
    4.2383    2.5484  -21.0204 H   0  0  0  0  0  0  0  0  0  0  0  0
    3.6773    1.4974  -19.6761 H   0  0  0  0  0  0  0  0  0  0  0  0
    6.0895    7.5729  -21.4573 H   0  0  0  0  0  0  0  0  0  0  0  0
    7.1369    9.0220  -21.6296 H   0  0  0  0  0  0  0  0  0  0  0  0
    3.8932   -1.4473  -17.2361 H   0  0  0  0  0  0  0  0  0  0  0  0
    3.7344   -3.0880  -16.5223 H   0  0  0  0  0  0  0  0  0  0  0  0
    8.9169    2.4902  -15.6754 H   0  0  0  0  0  0  0  0  0  0  0  0
    9.4890    0.9774  -16.4570 H   0  0  0  0  0  0  0  0  0  0  0  0
    7.5039    7.9352  -19.4404 H   0  0  0  0  0  0  0  0  0  0  0  0
    6.7718    9.5611  -19.2240 H   0  0  0  0  0  0  0  0  0  0  0  0
    6.6023    1.3776  -15.5518 H   0  0  0  0  0  0  0  0  0  0  0  0
    3.4389    3.4273  -18.1126 H   0  0  0  0  0  0  0  0  0  0  0  0
    5.5344   -2.2903  -18.8595 H   0  0  0  0  0  0  0  0  0  0  0  0
    6.0997    3.3818  -19.6250 H   0  0  0  0  0  0  0  0  0  0  0  0
    5.9653   -4.3632  -16.0325 H   0  0  0  0  0  0  0  0  0  0  0  0
    5.0520    1.4956  -17.5376 H   0  0  0  0  0  0  0  0  0  0  0  0
    3.3679    5.5936  -16.4877 H   0  0  0  0  0  0  0  0  0  0  0  0
    3.3866    6.2199  -17.9957 H   0  0  0  0  0  0  0  0  0  0  0  0
    3.3299    4.0709  -20.3549 H   0  0  0  0  0  0  0  0  0  0  0  0
  1  2  1  0  0  0  0
  1  3  2  0  0  0  0
  2  4  2  0  0  0  0
  3  5  1  0  0  0  0
  4  9  1  0  0  0  0
  5  9  2  0  0  0  0
  6 10  1  0  0  0  0
  6 11  2  0  0  0  0
  7 10  2  0  0  0  0
  7 12  1  0  0  0  0
  8 11  1  0  0  0  0
  8 12  2  0  0  0  0
  9 27  1  0  0  0  0
 10 28  1  0  0  0  0
 11 46  1  0  0  0  0
 12 47  1  0  0  0  0
 13 22  1  0  0  0  0
 13 37  1  0  0  0  0
 13 41  2  0  0  0  0
 14 23  1  0  0  0  0
 14 38  1  0  0  0  0
 14 42  2  0  0  0  0
 15 33  1  0  0  0  0
 15 39  1  0  0  0  0
 15 43  2  0  0  0  0
 16 18  1  0  0  0  0
 16 22  1  0  0  0  0
 17 20  1  0  0  0  0
 17 21  1  0  0  0  0
 18 37  1  0  0  0  0
 19 20  1  0  0  0  0
 19 40  1  0  0  0  0
 20 45  1  0  0  0  0
 21 34  1  0  0  0  0
 21 40  1  0  0  0  0
 22 35  1  0  0  0  0
 22 38  1  0  0  0  0
 24 29  1  0  0  0  0
 25 30  1  0  0  0  0
 26 35  1  0  0  0  0
 27 31  1  0  0  0  0
 28 36  1  0  0  0  0
 29 32  1  0  0  0  0
 30 35  1  0  0  0  0
 31 33  1  0  0  0  0
 32 45  1  0  0  0  0
 33 37  1  0  0  0  0
 34 36  1  0  0  0  0
 34 44  1  0  0  0  0
 36 39  1  0  0  0  0
  1 48  1  0  0  0  0
  2 49  1  0  0  0  0
  3 50  1  0  0  0  0
  4 51  1  0  0  0  0
  5 52  1  0  0  0  0
  6 53  1  0  0  0  0
  7 54  1  0  0  0  0
  8 55  1  0  0  0  0
 16 56  1  0  0  0  0
 16 57  1  0  0  0  0
 17 58  1  0  0  0  0
 17 59  1  0  0  0  0
 18 60  1  0  0  0  0
 18 61  1  0  0  0  0
 19 62  1  0  0  0  0
 19 63  1  0  0  0  0
 20 64  1  0  0  0  0
 21 65  1  0  0  0  0
 23 66  1  0  0  0  0
 23 67  1  0  0  0  0
 23 68  1  0  0  0  0
 24 69  1  0  0  0  0
 24 70  1  0  0  0  0
 24 71  1  0  0  0  0
 25 72  1  0  0  0  0
 25 73  1  0  0  0  0
 25 74  1  0  0  0  0
 26 75  1  0  0  0  0
 26 76  1  0  0  0  0
 26 77  1  0  0  0  0
 27 78  1  0  0  0  0
 27 79  1  0  0  0  0
 28 80  1  0  0  0  0
 28 81  1  0  0  0  0
 29 82  1  0  0  0  0
 29 83  1  0  0  0  0
 30 84  1  0  0  0  0
 30 85  1  0  0  0  0
 31 86  1  0  0  0  0
 31 87  1  0  0  0  0
 32 88  1  0  0  0  0
 32 89  1  0  0  0  0
 33 90  1  0  0  0  0
 34 91  1  0  0  0  0
 35 92  1  0  0  0  0
 36 93  1  0  0  0  0
 38 94  1  0  0  0  0
 39 95  1  0  0  0  0
 40 96  1  0  0  0  0
 40 97  1  0  0  0  0
 44 98  1  0  0  0  0
M  CHG  1  40   1
M  END
> <OMEGA_C>
Ai9PQYfsbD8taVHBOtVAQTFI+j8ezkvBYzJIQUMbHr5THV7BlmkrQYb/8j9msFLBMskyQeFzWr4K
AGXBXDPZQKpPkD88nKjBvhWfQLpe7r7R7aXBG33jQD/HnL80Ga3BeE4kQdf6TD9k8F7B3iivQDZx
WD/MFqXBnWLzQBIIuj3nf6zB6iO5QIbUv7939anBUTLJQHCRk7+twoHBGybyQEGmbcAH/m7BIYTg
QDXJBUCCNIzBw4P5QCvWEsC6B47BOXnEQHoutkBrjZHB2+j4QDkfTL/U9I/Bt5WYQDzg4UD694XB
F0O9QMCW5EDG8o3BipydQGs1nUA8FY3BpDHQQFInIcBCfIfBnLX0QBy1oMA3j2LBhSShQJ9SF0HQ
AKvBJMY2QAUROMBY7ZPB73utQN9yjMBL8ZLBXocNQW+WPT8pfGbBddyRQPu1+T9vO6HBB9XIQF+D
CUEJwqjBe+57QAStIcDRkYvB9dILQcJttD+Xc3zB8CTTQC+kCEHZwZzBMpbqQLwUlj/bzILBFkyI
QN1dfEBeEJXBJ2GrQEp/OMDMmY/Bx/2nQGhzOEBgGZnBjbXlQF/obr5EPobBWAbUQIdwZ8BQS3/B
X+i2QMFUBUBpAJDBzwJ9QPoLvkAMxYnBbmuzQFuwdr80enPB26oGQehzNsBX8GvBin38QEaRMUBd
ZJDBdUhvQEKGlUDD853BTwywQLpe/kDS6pbByc8NQejZuT48za/B+p2pQA98MMCQsarBx5FfQVnK
dj999UvBq0ZGQdpnMkBSO0LB1ERTQYOKb7+bjmLB93IgQd5cLED5mU7B6XEtQfQ4hL9h527BdTrl
QFXpCECXUKjBxVR9QN8LLr+aeaPBlsX3QMdxAcCi9q/B6pL4QDJlNsAbn5XBMgALQSn9JcDfconB
CHPFQLEdtEB4VZrBhoPiQB+UqUAOOI7BlMsMQdYW1L4GGJHBnmrlQPjRDb85BZfB1bykQKWN20CR
uXvB2OmFQDm3/0Ds8oXBQDraQDxc8UClGYrBBhaoQOriikBHCobBuFQIQeT8n8BY3lfBcW7XQJDQ
pMDiAVnBo9/3QIGOu8Cc1G3BnMKaQB2SF0ELqLPBNl6FQLKMEEEQyqbBj+KmQDi8J0EUK6jB1Jzu
Pzj1JsDGxpDB3/FCQHEaFMB1VpvBo8c4QDkcfcC0oJXBW3CTQP+Fk8CEl5jBxHXMQL8Dk8BcyZbB
AQuqQBi1oMA2zIvBE3MIQXuanr4ruWfBpywDQbU4oj9tBFvBcaCHQNgYI0DaKajBy1hrQJSpvz+n
aJ3Bed3CQDBV8kBzqKvB0mHkQB5aEEF3Ca3B+yp5QDRBub+B44nBvwBvQGKiRcDBLYTBvasOQQRg
H0CBznrB+dIXQSE6ej/vp4PBWCDwQOPs/UDhhZvBNLLYQGH6GEHKypnBAEbTQAJWsD8y1HjBPRdc
QLZYW0Cf5pDB3hmxQJOUEsBH4JbB4DDDQHpvWED//5zBDOS+QFufi8CkQoDBRKqhQOpwvz8NTYzB
D4tXQKr+skDl5oPBZ71YQG0Jx0BE94/BlR1VQLREgkDs1qLBaYBPQQhtdz+IolHBs21IQd74Br60
4F3BKDNBQb9kAECZXkzBiP4yQRy3Sr6yq2TBN70rQbhd+D9IHlPBOHTZQD94jD9klajB9v6eQHla
+L4q9KXBzEbjQBi2oL/YHq3BNY8kQYpPUz+q7V7BeVKvQHCjUj+NFqXBG3fzQNzTZT1BeazBYt24
QGTIwr8n/6nBdKXJQN9yk7//u4HBnQzyQDdLb8C+DW/Bs+PgQE+3BUBFN4zBMW76QBh2EsCY5I3B
W2HEQObxtUCftJHBHpT5QBxXS78k44/BS4mYQKaR4UAdFobBDCC9QJ5V5EALF47B8cWdQEzXnECc
J43BpdbQQNQDIcBcd4fB/zL1QI9aosAuXmPB5WKhQKfnGEFIuqrBlMg4QI9SPcAI7JPBxJ6vQFH9
i8BsOpPBiMUNQdynQT+vbmbByyWSQOJY9z/rPqHBi/nHQBAlCkFY1qjBJlJ9QEiRJMAjk4vB5gUM
QVSWtT/DcXzBgv7SQHhyCEG45pzBcP7qQGmUlj/GyILBGHiIQHMWe0ClEpXBS2CsQM05OMAFqI/B
4UioQLF2N0AKI5nBpC3mQGaza779M4bBJEzUQPMQaMDMdn/Bylq3QDCABECGDJDB0SF9QKSTvUCB
1onB0uSzQDhLd7+/aHPBiysGQZAeN8CRQGvBkcT8QHPJMUCIZZDBKL1uQGaglEAF853BXNyvQAcd
/kDNDZfBgvANQbcXoz4lsa/BcSapQDfOMcAVtqrB4elfQQeBgT+TRkzBGHRTQQn2a7/nCWLBsrVG
QSOSNkBOKUPB7pktQRXsg79gQ27B280gQW9vL0DIQ0/Bua7lQIjVBkCtRKjB1A59QBOpMb9sgqPB
6mL3QFCYA8CmArDBvPz5QNxhNsDddZXBcmALQZUBJcDINYnBoBHFQDTfs0AUfZrBqJPiQHV0qUAx
b47B7BgNQUWuz74uBZHBqBrmQM4JD7+w+JbBBsykQHNp20D29nvB3byFQDFU/0C6FIbBZBzaQIwf
8UBJQYrBqICoQLK1ikDhGobBI1kIQfm5ocBlYljBZqrXQPvlp8CtM1rB2n/5QPxCvMA2Fm/BDHCa
QA28GUEyWLPBbVeFQNaFEkEleabBXr+oQP0GKUFJt6fBcaDxP/55LsA7wJDBLYxDQBDlGMDGVJvB
wS09QK0egcDwoZXBOtKVQEE2k8Co75jBYcrOQO6NkcCcEpfBGYqsQO3eoMCTL4zBDsMIQepTl74F
lmfBZGQDQe1XpD/W/lrBBvGHQPTHIUD1MKjBid9rQCe2vT+maJ3BHWXAQHYw9EA16avBDs3jQGKZ
EEFaJ63BAjV4QHFXv7/04YnBltZxQAIEScAeL4TBEtYOQbABIECT4XrBsQcYQbQgfD/po4PBxpfv
QHi+/EDY7ZvBlX7ZQOSIGEFHuZnBtarTQAQCsT8Uz3jBNexcQBbOWUDf2JDBJa+xQJLLEMAg05bB
Ol/DQHmrV0DcDp3BkyG/QGHZi8AYeYDBjEKiQAq+vD/nYIzBn+5XQF+CskAE8oPBk5pYQElpxkBC
BpDBQJhUQA4zgUDPy6LB

> <OMEGA_E>
+N1APpDCQD4=

> <OMEGA_NBR>
      9470

$$$$
50197336
  -OEChem-04172616093D

 88 91  0     1  0  0  0  0  0999 V2000
   12.9423    1.0088  -13.0890 C   0  0  0  0  0  0  0  0  0  0  0  0
   12.5240   -0.0836  -13.8754 C   0  0  0  0  0  0  0  0  0  0  0  0
   12.0287    2.0287  -12.7517 C   0  0  0  0  0  0  0  0  0  0  0  0
   11.1885   -0.1656  -14.3100 C   0  0  0  0  0  0  0  0  0  0  0  0
   10.6907    1.9473  -13.1849 C   0  0  0  0  0  0  0  0  0  0  0  0
    6.7839    1.1379  -21.0745 C   0  0  0  0  0  0  0  0  0  0  0  0
    4.9592   -0.4540  -20.7661 C   0  0  0  0  0  0  0  0  0  0  0  0
    7.1030   -1.2080  -21.6547 C   0  0  0  0  0  0  0  0  0  0  0  0
   10.2647    0.8346  -13.9418 C   0  0  0  0  0  0  0  0  0  0  0  0
    5.4622    0.8570  -20.6550 C   0  0  0  0  0  0  0  0  0  0  0  0
    7.6070    0.1029  -21.5534 C   0  0  0  0  0  0  0  0  0  0  0  0
    5.7744   -1.4815  -21.2772 C   0  0  0  0  0  0  0  0  0  0  0  0
    6.1286   -1.1294  -16.2256 C   0  0  0  0  0  0  0  0  0  0  0  0
    6.9937    2.0495  -17.5446 C   0  0  0  0  0  0  0  0  0  0  0  0
    7.6728   -2.3986  -17.5633 C   0  0  0  0  0  0  0  0  0  0  0  0
    6.1868    5.6153  -18.0981 C   0  0  0  0  0  0  0  0  0  0  0  0
    7.7649   -0.9157  -17.8843 C   0  0  0  0  0  0  0  0  0  0  0  0
    4.7820    7.0715  -16.7943 C   0  0  0  0  0  0  0  0  0  0  0  0
    6.2956   -2.5160  -16.9015 C   0  0  2  0  0  0  0  0  0  0  0  0
    5.9377    7.0901  -17.7810 C   0  0  2  0  0  0  0  0  0  0  0  0
    4.9158    4.8781  -17.6005 C   0  0  2  0  0  0  0  0  0  0  0  0
    4.9716    9.5224  -21.3093 C   0  0  0  0  0  0  0  0  0  0  0  0
    5.2090   -4.3712  -18.2805 C   0  0  0  0  0  0  0  0  0  0  0  0
    3.7845   -2.4174  -17.6230 C   0  0  0  0  0  0  0  0  0  0  0  0
    8.8386    0.7316  -14.4109 C   0  0  0  0  0  0  0  0  0  0  0  0
    4.5455    1.9627  -20.1760 C   0  0  0  0  0  0  0  0  0  0  0  0
    6.3027    8.7932  -21.0689 C   0  0  0  0  0  0  0  0  0  0  0  0
    8.7095    1.3926  -15.7863 C   0  0  0  0  0  0  0  0  0  0  0  0
    6.5707    8.5828  -19.5721 C   0  0  0  0  0  0  0  0  0  0  0  0
    7.2956    1.1486  -16.3500 C   0  0  2  0  0  0  0  0  0  0  0  0
    5.2161   -2.8516  -17.9881 C   0  0  0  0  0  0  0  0  0  0  0  0
    4.2546    3.9441  -18.6369 C   0  0  2  0  0  0  0  0  0  0  0  0
    5.2357    2.8762  -19.1462 C   0  0  1  0  0  0  0  0  0  0  0  0
    7.1116   -0.2715  -16.7395 N   0  0  0  0  0  0  0  0  0  0  0  0
    5.6919    2.0632  -18.0147 N   0  0  0  0  0  0  0  0  0  0  0  0
    3.9590    5.9355  -17.2171 N   0  3  0  0  0  0  0  0  0  0  0  0
    5.3803   -0.8849  -15.2869 O   0  0  0  0  0  0  0  0  0  0  0  0
    7.8737    2.7268  -18.0680 O   0  0  0  0  0  0  0  0  0  0  0  0
    3.7729    4.7116  -19.7394 O   0  0  0  0  0  0  0  0  0  0  0  0
    5.5297    7.7784  -18.9807 O   0  0  0  0  0  0  0  0  0  0  0  0
    8.8782    0.3708  -21.9269 F   0  0  0  0  0  0  0  0  0  0  0  0
    5.2865   -2.7388  -21.3783 F   0  0  0  0  0  0  0  0  0  0  0  0
   13.9642    1.0648  -12.7442 H   0  0  0  0  0  0  0  0  0  0  0  0
   13.2283   -0.8570  -14.1440 H   0  0  0  0  0  0  0  0  0  0  0  0
   12.3548    2.8721  -12.1613 H   0  0  0  0  0  0  0  0  0  0  0  0
   10.8708   -0.9943  -14.9255 H   0  0  0  0  0  0  0  0  0  0  0  0
    9.9929    2.7340  -12.9386 H   0  0  0  0  0  0  0  0  0  0  0  0
    7.1614    2.1486  -21.0268 H   0  0  0  0  0  0  0  0  0  0  0  0
    3.9469   -0.6712  -20.4587 H   0  0  0  0  0  0  0  0  0  0  0  0
    7.7350   -2.0032  -22.0216 H   0  0  0  0  0  0  0  0  0  0  0  0
    7.7260   -3.0065  -18.4785 H   0  0  0  0  0  0  0  0  0  0  0  0
    8.4721   -2.7051  -16.8726 H   0  0  0  0  0  0  0  0  0  0  0  0
    6.3196    5.4695  -19.1803 H   0  0  0  0  0  0  0  0  0  0  0  0
    7.0783    5.2507  -17.5669 H   0  0  0  0  0  0  0  0  0  0  0  0
    8.8144   -0.5967  -17.9678 H   0  0  0  0  0  0  0  0  0  0  0  0
    7.2355   -0.6832  -18.8201 H   0  0  0  0  0  0  0  0  0  0  0  0
    5.1491    6.9252  -15.7677 H   0  0  0  0  0  0  0  0  0  0  0  0
    4.2088    8.0088  -16.8486 H   0  0  0  0  0  0  0  0  0  0  0  0
    6.3090   -3.3061  -16.1363 H   0  0  0  0  0  0  0  0  0  0  0  0
    6.8305    7.5460  -17.3283 H   0  0  0  0  0  0  0  0  0  0  0  0
    5.1815    4.2849  -16.7131 H   0  0  0  0  0  0  0  0  0  0  0  0
    4.8152    9.6544  -22.3901 H   0  0  0  0  0  0  0  0  0  0  0  0
    4.1469    8.9279  -20.8895 H   0  0  0  0  0  0  0  0  0  0  0  0
    4.9997   10.5073  -20.8201 H   0  0  0  0  0  0  0  0  0  0  0  0
    4.4488   -4.5949  -19.0434 H   0  0  0  0  0  0  0  0  0  0  0  0
    6.1991   -4.6783  -18.6486 H   0  0  0  0  0  0  0  0  0  0  0  0
    4.9744   -4.9210  -17.3570 H   0  0  0  0  0  0  0  0  0  0  0  0
    3.0985   -2.6914  -18.4381 H   0  0  0  0  0  0  0  0  0  0  0  0
    3.4733   -2.9226  -16.6967 H   0  0  0  0  0  0  0  0  0  0  0  0
    3.7589   -1.3280  -17.4729 H   0  0  0  0  0  0  0  0  0  0  0  0
    8.5513   -0.3278  -14.4838 H   0  0  0  0  0  0  0  0  0  0  0  0
    8.1783    1.2421  -13.6944 H   0  0  0  0  0  0  0  0  0  0  0  0
    4.2389    2.5698  -21.0406 H   0  0  0  0  0  0  0  0  0  0  0  0
    3.6566    1.5112  -19.7113 H   0  0  0  0  0  0  0  0  0  0  0  0
    6.2673    7.8127  -21.5663 H   0  0  0  0  0  0  0  0  0  0  0  0
    7.1201    9.3921  -21.4969 H   0  0  0  0  0  0  0  0  0  0  0  0
    8.8828    2.4745  -15.6896 H   0  0  0  0  0  0  0  0  0  0  0  0
    9.4552    0.9615  -16.4705 H   0  0  0  0  0  0  0  0  0  0  0  0
    7.5375    8.0736  -19.4455 H   0  0  0  0  0  0  0  0  0  0  0  0
    6.6025    9.5605  -19.0691 H   0  0  0  0  0  0  0  0  0  0  0  0
    6.5731    1.3874  -15.5557 H   0  0  0  0  0  0  0  0  0  0  0  0
    5.5025   -2.3312  -18.9139 H   0  0  0  0  0  0  0  0  0  0  0  0
    3.4133    3.4317  -18.1474 H   0  0  0  0  0  0  0  0  0  0  0  0
    6.0929    3.3732  -19.6240 H   0  0  0  0  0  0  0  0  0  0  0  0
    5.0209    1.4824  -17.5538 H   0  0  0  0  0  0  0  0  0  0  0  0
    3.3779    5.6253  -16.4647 H   0  0  0  0  0  0  0  0  0  0  0  0
    3.3870    6.1892  -17.9972 H   0  0  0  0  0  0  0  0  0  0  0  0
    3.3669    4.1337  -20.3748 H   0  0  0  0  0  0  0  0  0  0  0  0
  1  2  1  0  0  0  0
  1  3  2  0  0  0  0
  2  4  2  0  0  0  0
  3  5  1  0  0  0  0
  4  9  1  0  0  0  0
  5  9  2  0  0  0  0
  6 10  1  0  0  0  0
  6 11  2  0  0  0  0
  7 10  2  0  0  0  0
  7 12  1  0  0  0  0
  8 11  1  0  0  0  0
  8 12  2  0  0  0  0
  9 25  1  0  0  0  0
 10 26  1  0  0  0  0
 11 41  1  0  0  0  0
 12 42  1  0  0  0  0
 13 19  1  0  0  0  0
 13 34  1  0  0  0  0
 13 37  2  0  0  0  0
 14 30  1  0  0  0  0
 14 35  1  0  0  0  0
 14 38  2  0  0  0  0
 15 17  1  0  0  0  0
 15 19  1  0  0  0  0
 16 20  1  0  0  0  0
 16 21  1  0  0  0  0
 17 34  1  0  0  0  0
 18 20  1  0  0  0  0
 18 36  1  0  0  0  0
 19 31  1  0  0  0  0
 20 40  1  0  0  0  0
 21 32  1  0  0  0  0
 21 36  1  0  0  0  0
 22 27  1  0  0  0  0
 23 31  1  0  0  0  0
 24 31  1  0  0  0  0
 25 28  1  0  0  0  0
 26 33  1  0  0  0  0
 27 29  1  0  0  0  0
 28 30  1  0  0  0  0
 29 40  1  0  0  0  0
 30 34  1  0  0  0  0
 32 33  1  0  0  0  0
 32 39  1  0  0  0  0
 33 35  1  0  0  0  0
  1 43  1  0  0  0  0
  2 44  1  0  0  0  0
  3 45  1  0  0  0  0
  4 46  1  0  0  0  0
  5 47  1  0  0  0  0
  6 48  1  0  0  0  0
  7 49  1  0  0  0  0
  8 50  1  0  0  0  0
 15 51  1  0  0  0  0
 15 52  1  0  0  0  0
 16 53  1  0  0  0  0
 16 54  1  0  0  0  0
 17 55  1  0  0  0  0
 17 56  1  0  0  0  0
 18 57  1  0  0  0  0
 18 58  1  0  0  0  0
 19 59  1  0  0  0  0
 20 60  1  0  0  0  0
 21 61  1  0  0  0  0
 22 62  1  0  0  0  0
 22 63  1  0  0  0  0
 22 64  1  0  0  0  0
 23 65  1  0  0  0  0
 23 66  1  0  0  0  0
 23 67  1  0  0  0  0
 24 68  1  0  0  0  0
 24 69  1  0  0  0  0
 24 70  1  0  0  0  0
 25 71  1  0  0  0  0
 25 72  1  0  0  0  0
 26 73  1  0  0  0  0
 26 74  1  0  0  0  0
 27 75  1  0  0  0  0
 27 76  1  0  0  0  0
 28 77  1  0  0  0  0
 28 78  1  0  0  0  0
 29 79  1  0  0  0  0
 29 80  1  0  0  0  0
 30 81  1  0  0  0  0
 31 82  1  0  0  0  0
 32 83  1  0  0  0  0
 33 84  1  0  0  0  0
 35 85  1  0  0  0  0
 36 86  1  0  0  0  0
 36 87  1  0  0  0  0
 39 88  1  0  0  0  0
M  CHG  1  36   1
M  END
> <OMEGA_C>
nBNPQfYfgT+QbFHBcGJIQZAdq71xAV7BdXVAQYjVAUAUB0zBNwQzQUmbKb7L9WTBHg0rQcpB+T9P
9VLB+hXZQLulkT96mKjB4bGeQMB26L7nIKbBmUvjQM2gmr+6PK3BPzwkQdGlVT96EV/BrsquQFti
Wz+HPaXB8GzzQBCo0j1ebazBLMi4QK+ivb+dN6rBmh3EQI2RkL8QzoHBoszfQG8qA0BjW4zBrof1
QC+CGcCvgYzBMvrFQJyws0D6yJDBRHr4QBhrar8lE4/BDgaZQMZJ4kCsWobBQnXJQHgFIcBANofB
zgG+QDLi4kCFP47BJ06dQL0ZnEDCzYzBnhefQPFbGEGDearBQLCmQDThi8BePpLB+jRyQGG3GsDd
+4zB/GoNQcxHOz/nkmbB6HSRQG46+z98aKHB/K/JQNywDEEWjajBMFoLQVA/sj+1lHzBFEPSQPNS
CUGlk5zB8nXpQNMDkz/YzILBR+qmQDeANsCp54/B6CWIQEhsfEBNGJXBrYqnQL0TOEBuK5nBaJLj
QNgEi76Z6oXBZiS2QN0KBEAHHpDBil99QKTvvUC1vInBYyusQGCGYr8yl3TBPPX7QCaELkBCi5DB
WHdxQDnFlkBH6p3BXfOwQPLo+EB32JfBAA0OQTzYvT43aq/BryqpQLtHL8DFBqvBdW1fQTNMiD8j
6EvB/aZTQeJlW78ATmLBIq1FQSDRN0CxlELBou4tQdOHfr+9zm7BAuMfQcT5LkCeBE/BGCrlQEuD
CUDNNqjB5Jl8QIvQK79yq6PBb4X3QLkzAMBPLLDBnjv3QMZpQMAS1JPBu40HQawgLcD8+obBkjrK
QDYGr0BDcZnBf4HiQMMFqEDpiIzBmwcNQRnEGL8Evo/Bc4nnQLjlLr+ej5bBucWkQGWb3UCZSHzB
2K6GQBwkAEH5yYbBDuPJQLuXU8A+F4HB3ZPaQDR58UBLoIrBfs6lQBEeiUBUtIXBZRaaQEp4GkH/
HrPBSbOEQHrYDkG6HafBVv2fQNQdKEGjj6bBR1yOQB0Jk8DIWJjBxF7GQKe0lcBDMJXBqC6fQDN5
ncA324rBmE5GQKE/LMBDgZPBP0peQMULO8DdkoXBJZFwQN/8qb+CyIvBS9IIQT3Pp76cvWfBSdoC
Qef7nj8nHFvBIqWHQI93JEAVU6jB7gVqQLluwT++sJ3BpI3IQKIB+kDBh6zBsdfjQCtGFkGr+avB
7x8OQWpeHkCzCHvBp0gXQbcjdj+Fw4PBYTPxQJEtAUFnkJvB+EfTQMn3GEGDjZjB2VbSQDSVsT9H
5HjBsRSwQDEyFcDBT5fB0HJaQKShW0DgLZHBuPjCQCPiV0Di/ZzBDKugQBC/vT82bozBcy9YQKQC
tEC5t4PBHsVYQL8NxkBY+o/BiXtXQP5GhECC/6LBbwNPQZ3qfz+etFHBiHxIQU7s3r32AV7BnzxA
QYb6AEA3jEzB5iIzQadYV76482TBLdgqQaAO9T99d1PBoL/aQFIpkD9aiqjBLbyfQKS55b6jgqbB
13XkQKafm7+Oaq3BgzMkQUtZST8cUl/BskCwQHRXWj88VaXBU9b0QMxfuT3HeqzBoL+5QFK+vb8r
i6rBtXXGQHO1l7+UaYHBLDfgQLGEA0CqWYzBabfkQAX/DcB9JpHBA1vEQF5ctkBFxpHBU2b+QK2Z
gL/3z43BHqaYQJq34UB+DobBF3HKQEDyIsC7PofBnTm9QP2k5EAiEI7BycWdQIwnnUDTPY3BaVKh
QIt+GEHgxqrBF8F9QMf6F8AJT5DBgKSlQKsWksD3+I/Bj28NQffeKj/F82bBnNWSQPgP+z8fjaHB
QZXIQJZBCkE4wKjBvGsLQe+dqz+B1nzBPi7TQDDZCEE5yJzBFHPpQLz9jz8D84LBo3GeQOueT8CL
xonBXnuIQFoXfEB2NpXBUGaoQMiUOECIRZnB0RziQAhkjb75c4bBo8G2QCB6BEDPN5DBIDx9QCPT
vUD52YnBfnSvQMKYc79MZnPBsEj8QG64MEAoQpDBFiFvQIFVlUDUE57BhAWwQOq9/kB3+ZbBl8EO
QQpBtT4LfK/BqD2qQMF2L8AWRqvBBFxfQTYiiT9WOEzBn95TQatLYb8LGmLBXlFFQVezN0BXS0PB
Uy8uQd6Uhr8LmG7BoI4fQZaqLEDLtk/B9zLnQE1lCEBk96fB0/J9QHfEJ7+eT6TBdqb4QLDQAMAV
VrDBi9PPQInr/b+q+pfB4+v5QPKSQ8CTRJPBauzEQH6QtEDXj5rB7pPiQMi5qUCtjY7B+QUOQUVl
p78YvInBMiwDQWycxL4CzZTBZO6kQOVd20CM7XvBWuCFQCx+/0BbAYbBBSjdQDhoTsBzJILB80Da
QGw78UDwNIrBhI+oQG3VikBkOobBfauaQHojGUGLabPBEnOFQPPMEUFVkqbB9LunQES9KEFey6fB
+VJCQHEJPMCAs5HBJSRvQCtQur8Q1YvB1XeNQDEtB8BpCZjB8ZGGQCkvocBuqZHBBTK2QAU/i8BP
jJfBY0q5QEfip8C7HIvB0RMJQXInyr5TUmjB9K8CQcqvlD+ueVvBsDiJQGMxJEBygKjB/JVsQHcq
wT/d4p3BDfXBQOsn9EBVy6vB7z3kQEcEEUFeBK3BX3QOQWHSGkAjJHvBXTkXQdSjZz/k74PBUPbv
QNzn/UBssZvBIDPZQOwHGUGiqpnBPXvSQJsHrj/ZGXnB7yOPQGBeX8BgGYLB5ctcQA22WkBMB5HB
sc/DQAz4WEBjBp3B0iuhQN5Pvj+qmIzBLiRYQD6dskAh94PBj5dYQF7UxkATA5DBFwFVQLsHgkDj
9KLB

> <OMEGA_E>
SBCqPkDsoz4=

> <OMEGA_NBR>
     12536

$$$$
50197338
  -OEChem-04172616093D

 91 94  0     1  0  0  0  0  0999 V2000
   12.9055    0.8610  -13.0406 C   0  0  0  0  0  0  0  0  0  0  0  0
   12.4634   -0.2288  -13.8177 C   0  0  0  0  0  0  0  0  0  0  0  0
   12.0252    1.9198  -12.7365 C   0  0  0  0  0  0  0  0  0  0  0  0
   11.1361   -0.2668  -14.2792 C   0  0  0  0  0  0  0  0  0  0  0  0
   10.6960    1.8818  -13.1943 C   0  0  0  0  0  0  0  0  0  0  0  0
    6.7658    1.1245  -21.0491 C   0  0  0  0  0  0  0  0  0  0  0  0
    4.8723   -0.4017  -20.8477 C   0  0  0  0  0  0  0  0  0  0  0  0
    7.0013   -1.2090  -21.7182 C   0  0  0  0  0  0  0  0  0  0  0  0
   10.2484    0.7765  -13.9443 C   0  0  0  0  0  0  0  0  0  0  0  0
    5.4269    0.8792  -20.6620 C   0  0  0  0  0  0  0  0  0  0  0  0
    7.5562    0.0744  -21.5534 C   0  0  0  0  0  0  0  0  0  0  0  0
    5.6507   -1.4366  -21.3953 C   0  0  0  0  0  0  0  0  0  0  0  0
    6.4416   -1.1156  -15.9621 C   0  0  0  0  0  0  0  0  0  0  0  0
    6.9989    2.1364  -17.5355 C   0  0  0  0  0  0  0  0  0  0  0  0
    7.4707   -2.2574  -17.7901 C   0  0  0  0  0  0  0  0  0  0  0  0
    6.1045    5.7045  -18.1821 C   0  0  0  0  0  0  0  0  0  0  0  0
    7.5919   -0.7640  -17.9976 C   0  0  0  0  0  0  0  0  0  0  0  0
    4.7378    7.0817  -16.7396 C   0  0  0  0  0  0  0  0  0  0  0  0
    6.2989   -2.3640  -16.8150 C   0  0  2  0  0  0  0  0  0  0  0  0
    5.9098    7.1529  -17.7105 C   0  0  2  0  0  0  0  0  0  0  0  0
    4.8821    4.9369  -17.6358 C   0  0  2  0  0  0  0  0  0  0  0  0
    5.0785    9.1886  -21.4683 C   0  0  0  0  0  0  0  0  0  0  0  0
    3.1235   -3.1904  -18.9467 C   0  0  0  0  0  0  0  0  0  0  0  0
    4.8286   -4.7622  -17.9651 C   0  0  0  0  0  0  0  0  0  0  0  0
    8.8373    0.7264  -14.4316 C   0  0  0  0  0  0  0  0  0  0  0  0
    4.5313    1.9983  -20.1774 C   0  0  0  0  0  0  0  0  0  0  0  0
    4.8976   -2.2595  -17.4675 C   0  0  0  0  0  0  0  0  0  0  0  0
    6.3038    9.5120  -20.5992 C   0  0  0  0  0  0  0  0  0  0  0  0
    8.7368    1.4332  -15.7912 C   0  0  0  0  0  0  0  0  0  0  0  0
    6.6641    8.3401  -19.6791 C   0  0  0  0  0  0  0  0  0  0  0  0
    7.3193    1.2360  -16.3440 C   0  0  2  0  0  0  0  0  0  0  0  0
    4.2287    3.9762  -18.6491 C   0  0  2  0  0  0  0  0  0  0  0  0
    4.5938   -3.3444  -18.5108 C   0  0  0  0  0  0  0  0  0  0  0  0
    5.2263    2.9186  -19.1548 C   0  0  1  0  0  0  0  0  0  0  0  0
    7.1370   -0.1729  -16.7259 N   0  0  0  0  0  0  0  0  0  0  0  0
    5.6998    2.1122  -18.0224 N   0  0  0  0  0  0  0  0  0  0  0  0
    3.9164    5.9731  -17.2331 N   0  3  0  0  0  0  0  0  0  0  0  0
    5.8360   -0.9035  -14.9181 O   0  0  0  0  0  0  0  0  0  0  0  0
    7.8626    2.8465  -18.0398 O   0  0  0  0  0  0  0  0  0  0  0  0
    3.7220    4.7175  -19.7603 O   0  0  0  0  0  0  0  0  0  0  0  0
    5.5569    8.0217  -18.8060 O   0  0  0  0  0  0  0  0  0  0  0  0
    8.8383    0.3065  -21.9119 F   0  0  0  0  0  0  0  0  0  0  0  0
    5.0842   -2.6327  -21.6687 F   0  0  0  0  0  0  0  0  0  0  0  0
   13.9222    0.8852  -12.6769 H   0  0  0  0  0  0  0  0  0  0  0  0
   13.1431   -1.0329  -14.0581 H   0  0  0  0  0  0  0  0  0  0  0  0
   12.3716    2.7594  -12.1521 H   0  0  0  0  0  0  0  0  0  0  0  0
   10.7975   -1.0922  -14.8879 H   0  0  0  0  0  0  0  0  0  0  0  0
   10.0220    2.6958  -12.9721 H   0  0  0  0  0  0  0  0  0  0  0  0
    7.1812    2.1172  -20.9576 H   0  0  0  0  0  0  0  0  0  0  0  0
    3.8460   -0.5896  -20.5688 H   0  0  0  0  0  0  0  0  0  0  0  0
    7.6116   -2.0179  -22.0920 H   0  0  0  0  0  0  0  0  0  0  0  0
    7.2484   -2.7731  -18.7360 H   0  0  0  0  0  0  0  0  0  0  0  0
    8.3903   -2.6736  -17.3529 H   0  0  0  0  0  0  0  0  0  0  0  0
    6.1315    5.6563  -19.2808 H   0  0  0  0  0  0  0  0  0  0  0  0
    7.0368    5.2873  -17.7738 H   0  0  0  0  0  0  0  0  0  0  0  0
    8.6355   -0.4843  -18.2044 H   0  0  0  0  0  0  0  0  0  0  0  0
    6.9523   -0.4345  -18.8296 H   0  0  0  0  0  0  0  0  0  0  0  0
    5.0915    6.8782  -15.7181 H   0  0  0  0  0  0  0  0  0  0  0  0
    4.1674    8.0222  -16.7496 H   0  0  0  0  0  0  0  0  0  0  0  0
    6.3764   -3.2745  -16.2027 H   0  0  0  0  0  0  0  0  0  0  0  0
    6.8132    7.5061  -17.1918 H   0  0  0  0  0  0  0  0  0  0  0  0
    5.1942    4.3597  -16.7530 H   0  0  0  0  0  0  0  0  0  0  0  0
    4.8490   10.0491  -22.1141 H   0  0  0  0  0  0  0  0  0  0  0  0
    5.2938    8.3089  -22.0926 H   0  0  0  0  0  0  0  0  0  0  0  0
    4.2153    8.9761  -20.8204 H   0  0  0  0  0  0  0  0  0  0  0  0
    2.9604   -2.1747  -19.3364 H   0  0  0  0  0  0  0  0  0  0  0  0
    2.8953   -3.9255  -19.7326 H   0  0  0  0  0  0  0  0  0  0  0  0
    2.4651   -3.3615  -18.0823 H   0  0  0  0  0  0  0  0  0  0  0  0
    5.8789   -4.8671  -17.6554 H   0  0  0  0  0  0  0  0  0  0  0  0
    4.1723   -4.9351  -17.0995 H   0  0  0  0  0  0  0  0  0  0  0  0
    4.6025   -5.4991  -18.7498 H   0  0  0  0  0  0  0  0  0  0  0  0
    8.5246   -0.3226  -14.5403 H   0  0  0  0  0  0  0  0  0  0  0  0
    8.1816    1.2314  -13.7071 H   0  0  0  0  0  0  0  0  0  0  0  0
    4.2249    2.6033  -21.0434 H   0  0  0  0  0  0  0  0  0  0  0  0
    3.6413    1.5568  -19.7051 H   0  0  0  0  0  0  0  0  0  0  0  0
    4.1424   -2.3292  -16.6707 H   0  0  0  0  0  0  0  0  0  0  0  0
    4.8212   -1.2790  -17.9603 H   0  0  0  0  0  0  0  0  0  0  0  0
    7.1602    9.7283  -21.2547 H   0  0  0  0  0  0  0  0  0  0  0  0
    6.0817   10.3954  -19.9826 H   0  0  0  0  0  0  0  0  0  0  0  0
    8.9392    2.5071  -15.6660 H   0  0  0  0  0  0  0  0  0  0  0  0
    9.4696    1.0008  -16.4883 H   0  0  0  0  0  0  0  0  0  0  0  0
    6.9059    7.4596  -20.2926 H   0  0  0  0  0  0  0  0  0  0  0  0
    7.5381    8.6138  -19.0699 H   0  0  0  0  0  0  0  0  0  0  0  0
    6.6086    1.4756  -15.5394 H   0  0  0  0  0  0  0  0  0  0  0  0
    3.4021    3.4551  -18.1439 H   0  0  0  0  0  0  0  0  0  0  0  0
    5.2416   -3.1882  -19.3860 H   0  0  0  0  0  0  0  0  0  0  0  0
    6.0738    3.4239  -19.6410 H   0  0  0  0  0  0  0  0  0  0  0  0
    5.0433    1.5063  -17.5730 H   0  0  0  0  0  0  0  0  0  0  0  0
    3.3149    5.6319  -16.5107 H   0  0  0  0  0  0  0  0  0  0  0  0
    3.3658    6.2641  -18.0155 H   0  0  0  0  0  0  0  0  0  0  0  0
    3.3203    4.1220  -20.3821 H   0  0  0  0  0  0  0  0  0  0  0  0
  1  2  1  0  0  0  0
  1  3  2  0  0  0  0
  2  4  2  0  0  0  0
  3  5  1  0  0  0  0
  4  9  1  0  0  0  0
  5  9  2  0  0  0  0
  6 10  1  0  0  0  0
  6 11  2  0  0  0  0
  7 10  2  0  0  0  0
  7 12  1  0  0  0  0
  8 11  1  0  0  0  0
  8 12  2  0  0  0  0
  9 25  1  0  0  0  0
 10 26  1  0  0  0  0
 11 42  1  0  0  0  0
 12 43  1  0  0  0  0
 13 19  1  0  0  0  0
 13 35  1  0  0  0  0
 13 38  2  0  0  0  0
 14 31  1  0  0  0  0
 14 36  1  0  0  0  0
 14 39  2  0  0  0  0
 15 17  1  0  0  0  0
 15 19  1  0  0  0  0
 16 20  1  0  0  0  0
 16 21  1  0  0  0  0
 17 35  1  0  0  0  0
 18 20  1  0  0  0  0
 18 37  1  0  0  0  0
 19 27  1  0  0  0  0
 20 41  1  0  0  0  0
 21 32  1  0  0  0  0
 21 37  1  0  0  0  0
 22 28  1  0  0  0  0
 23 33  1  0  0  0  0
 24 33  1  0  0  0  0
 25 29  1  0  0  0  0
 26 34  1  0  0  0  0
 27 33  1  0  0  0  0
 28 30  1  0  0  0  0
 29 31  1  0  0  0  0
 30 41  1  0  0  0  0
 31 35  1  0  0  0  0
 32 34  1  0  0  0  0
 32 40  1  0  0  0  0
 34 36  1  0  0  0  0
  1 44  1  0  0  0  0
  2 45  1  0  0  0  0
  3 46  1  0  0  0  0
  4 47  1  0  0  0  0
  5 48  1  0  0  0  0
  6 49  1  0  0  0  0
  7 50  1  0  0  0  0
  8 51  1  0  0  0  0
 15 52  1  0  0  0  0
 15 53  1  0  0  0  0
 16 54  1  0  0  0  0
 16 55  1  0  0  0  0
 17 56  1  0  0  0  0
 17 57  1  0  0  0  0
 18 58  1  0  0  0  0
 18 59  1  0  0  0  0
 19 60  1  0  0  0  0
 20 61  1  0  0  0  0
 21 62  1  0  0  0  0
 22 63  1  0  0  0  0
 22 64  1  0  0  0  0
 22 65  1  0  0  0  0
 23 66  1  0  0  0  0
 23 67  1  0  0  0  0
 23 68  1  0  0  0  0
 24 69  1  0  0  0  0
 24 70  1  0  0  0  0
 24 71  1  0  0  0  0
 25 72  1  0  0  0  0
 25 73  1  0  0  0  0
 26 74  1  0  0  0  0
 26 75  1  0  0  0  0
 27 76  1  0  0  0  0
 27 77  1  0  0  0  0
 28 78  1  0  0  0  0
 28 79  1  0  0  0  0
 29 80  1  0  0  0  0
 29 81  1  0  0  0  0
 30 82  1  0  0  0  0
 30 83  1  0  0  0  0
 31 84  1  0  0  0  0
 32 85  1  0  0  0  0
 33 86  1  0  0  0  0
 34 87  1  0  0  0  0
 36 88  1  0  0  0  0
 37 89  1  0  0  0  0
 37 90  1  0  0  0  0
 40 91  1  0  0  0  0
M  CHG  1  37   1
M  END
> <OMEGA_C>
Dn1OQSVqXD94plDBKGpHQVtIar50FV3BRWdAQXK69T+LyEvBqy0yQYagiL6Ad2TB/yIrQRbe8D8L
HFPByYHYQP7tjz+PZKjBwOmbQIKnzb4oyKbB+ArgQKjAmr/evq3BcvkjQfLJRj8GHF/BUamtQLYT
YT/CS6XBX8zxQOdomD1TbazBSNK0QLTit7+AKavBYiHOQNvLjr+4ZH/BQ/ffQB27CEDHSIzBDRDv
QIx5EMAsUo7B6FfDQDaLtkAGdZHBI/HyQAWWQ78g+4/B5ZuXQOmc4kCs6oXByJDJQLdLF8AihYbB
Hh29QJDk5EAtr43BizqcQP76nUAlFo3BHIOiQLQEE0Efv6vBXedHQOovTMDrkpfBP4SaQMxjmMB8
uI/Bx2UNQcL1OT/152bBogCRQEfI/z9Wa6HBzLicQNKbEMBqvYvBnLjJQAoxGEESy6TB48kLQV5z
tz+vqHzBPEDVQN9wBUHkbp3B3TfqQCU0nj+awILBR1GHQFp6fkBUMZXBZACTQEgKVsA4FpTBCD6n
QKPJOkABPZnBgGLkQKUGMb6yzoXBumS2QPMtB0DgLZDBF6Z6QF4jv0Bw3YnBfcC6QAxKZ7++sG7B
0Jr7QLItNkCWUZDBrjVuQLH1lkAwFZ7BvtGxQLNYAEHFcpbB22kNQQLsnD6jS6/B5bGiQGt9KMCC
Wa3BIsFeQZ2ZYj+h1ErBFEpSQXk3hL8h7mDB5fFFQQ+aMEApb0LBf8IsQanLi7/1NG7B7FkgQeSH
LEDZjU/Bw8zlQJJ/B0A8qafB1SR2QMzyFr/njKTB3pHzQBAlAcB1vLDBHvPnQOp5McBY45XBuz4G
QSUcK8DU0orBJzXEQBYAtUD6PprBLC3hQD0xqUCwMI7B9CoKQWPy976RopHB7XjeQDF43r4Xo5bB
bu2iQEca3EAyfXvBIVuFQLxaAEEz/4XB1QvMQFiRUcAHn4HB7wXaQNYx8EDKiInB7jamQFqCi0AQ
BobBQCubQAjJIEGg6bDB7mapQGzxBEGyvbDB/+OGQA2eD0FCkKbB9Hc9QP4uC8DesJrBUkw5QEI7
e8Bi3J3BAsQdQI0iV8CRqJDBLSC8QJ2/m8BQPo3BO4OFQIHsncC8y4jBY0eTQNz4r8CN/5XBkWQI
Qfsnpb4EpWjB6OcCQRSenT8XUFvBBTKHQPacJkD5WKjBpQtpQM5Gxz8ipJ3Bo46EQGQSFcCRXYXB
5EaaQJ63o7+mro/BLyDlQAinG0G5CarBQJ3CQKpTJkFK3J/BDQcPQR91IEDkp3rBZYMXQcoZgD8g
6IPBaP3cQPy07kAyV6LBXDjxQBLSCUE+j5jBs3nTQH/fvD9SoXjBDLxZQAggXUC8JpHBNLunQJIL
TMCcFpvBe1zCQJshW0DEIJ3B5GKhQBzOwD+NlYzBrSdUQJY4tED7FYTBSWlXQMRzyEDHH5DBiYBU
QLrng0CODqPBbEBOQYkkZT/TzFDBXDlHQZFwQL7saF3B1A5AQbOE+D+YlEvBN+4xQcs5bb4KnmTB
q7sqQQPr8j9uu1LBG5fYQIHgkD9S8ajB+USeQNhV6r79V6bB26PiQK7Nm79Bia3B/50jQaVXTD+D
5F7BlYWuQG3vWT8rb6XBWanyQGLMxD224qzB8k64QC7Avr/pYarBHjjOQAOAkb/NGIDB0BfgQO8R
B0BZbIzB8jD1QEDEEsBolI3B/sXDQHp0tkALuZHB10L5QBvSS79FbI/BobCXQETZ4UDoGobBODDM
QN+jGMCvAYfB3uS8QOG25EAA743BqJecQP2NnUD4aY3B4s6hQHboGEEmdqrBgbufQAxYl8BlvZLB
HD9AQAI3TcBgQpXBJQENQUChPj+3mWbBlluRQHCR+j+fjaHB4eijQOBvEMAGLI7BednIQIltCkEw
kqjBq2ILQQ8Wuz8IQHzBNdXTQCnECEGpoJzBoAPqQLnunD/vyILB3LOHQOwqfUADfJXBXpSHQK1n
YMApQY7BuomnQIL9OEAYbZnBf5XlQL03Pr5t24XB2H62QIUMBkDiSZDB4P96QAOFvkABKorBbAi5
QHmLcb8o/W/BIh78QDV2MkAgpZDBSENvQGX7lUBub57B1VmwQLRP/0BwzpbB8XMNQbS8uz7eMbDB
x8GoQHPWL8DuJKvBW5BeQYVqbD/YHUvBsy1SQaGKe7+WhmHBWI9FQfKtMUBlGELB6IwsQW2Khr8o
gW7BRN4fQcn/LECi607BubjkQL0ZCUBrmKjBjY17QH14K79f8KPB6dL2QNjsAMAOdLDB/RjyQN6H
NcBYMZXBfmIIQU/aK8B8GYnBTO/EQJ72tECXgprBq57hQHlbqUBXZo7BJYsNQYQTAb8iHJDB3gbo
QFnA/b6jtZbB4kSjQIjc2kAG9nvB+U+FQHfe/0AeCIbBrDPLQGNSU8C7JoLBvcXZQPXi8EAr7YnB
7KOmQKsji0D1WIbBqOOaQCy5GUGJFLPBMO+FQEZLEkG2OabBg6ioQDQSKUHTbafBjda7QKUJnsCG
to3BZl+KQI5Ss8DQvJLBIzSqQEKWkMBJ+JrBDBIeQH1eFcBxBpLBhwJVQFCQP8Atfp3BDlkVQHWE
gsC0QpXB/w0IQSbxm75bdGjBnYECQUb4nj+r7VrBixKHQA+II0C1eqjBC2RqQNGbwD+Ctp3B8bSQ
QJaItL/IP4vBd2SuQHOYA8D7apbBEcjBQHer9EA1qqvBZIHkQKkcEUFS3qzBVwYOQRKRIkABAnrB
hYcXQR7Nhz8coYPB2SXwQOMC/UA6n5vBCb7aQOXUGEHeeZnBA3bSQHPWuT/T/3jBblJaQDRAXEC3
bJHB+f55QAxzbsAXDIbBAcHCQMjVWEB3Vp3BhE6hQDRPwD8wnYzBZkpUQINds0CZb4TBIAFYQI8H
yEASbZDBVqBVQKXCgkDyX6PB

> <OMEGA_E>
eIJ1PtAmWj4=

> <OMEGA_NBR>
     15686

$$$$
50197340
  -OEChem-04172616093D

 75 77  0     1  0  0  0  0  0999 V2000
    6.7528    1.1131  -21.1374 C   0  0  0  0  0  0  0  0  0  0  0  0
    4.9085   -0.4389  -20.7499 C   0  0  0  0  0  0  0  0  0  0  0  0
    6.9831   -1.2351  -21.7546 C   0  0  0  0  0  0  0  0  0  0  0  0
    5.4520    0.8575  -20.6505 C   0  0  0  0  0  0  0  0  0  0  0  0
    7.5205    0.0646  -21.6752 C   0  0  0  0  0  0  0  0  0  0  0  0
    5.6704   -1.4815  -21.3101 C   0  0  0  0  0  0  0  0  0  0  0  0
    6.1193   -1.1969  -16.2628 C   0  0  0  0  0  0  0  0  0  0  0  0
    7.0400    2.0315  -17.4396 C   0  0  0  0  0  0  0  0  0  0  0  0
    7.6463   -2.4265  -17.6636 C   0  0  0  0  0  0  0  0  0  0  0  0
    6.1587    5.7422  -18.2381 C   0  0  0  0  0  0  0  0  0  0  0  0
    7.7375   -0.9336  -17.9313 C   0  0  0  0  0  0  0  0  0  0  0  0
    4.7763    7.1067  -16.7960 C   0  0  0  0  0  0  0  0  0  0  0  0
    6.2854   -2.5659  -16.9686 C   0  0  2  0  0  0  0  0  0  0  0  0
    5.8990    7.1975  -17.8199 C   0  0  2  0  0  0  0  0  0  0  0  0
    4.9780    4.9417  -17.6399 C   0  0  2  0  0  0  0  0  0  0  0  0
    4.9228    9.5285  -21.4397 C   0  0  0  0  0  0  0  0  0  0  0  0
    8.7605    1.1934  -15.7037 C   0  0  0  0  0  0  0  0  0  0  0  0
    5.1759   -4.4168  -18.3201 C   0  0  0  0  0  0  0  0  0  0  0  0
    3.7566   -2.4682  -17.6373 C   0  0  0  0  0  0  0  0  0  0  0  0
    4.5869    1.9826  -20.1394 C   0  0  0  0  0  0  0  0  0  0  0  0
    6.1473    8.6319  -21.2010 C   0  0  0  0  0  0  0  0  0  0  0  0
    6.5161    8.5666  -19.7124 C   0  0  0  0  0  0  0  0  0  0  0  0
    7.3344    1.0520  -16.2856 C   0  0  2  0  0  0  0  0  0  0  0  0
    5.1828   -2.8978  -18.0302 C   0  0  0  0  0  0  0  0  0  0  0  0
    4.3170    3.9525  -18.6139 C   0  0  2  0  0  0  0  0  0  0  0  0
    5.3085    2.8774  -19.1047 C   0  0  1  0  0  0  0  0  0  0  0  0
    7.1104   -0.3346  -16.7487 N   0  0  0  0  0  0  0  0  0  0  0  0
    5.7498    2.0481  -17.9648 N   0  0  0  0  0  0  0  0  0  0  0  0
    3.9862    5.9484  -17.2177 N   0  3  0  0  0  0  0  0  0  0  0  0
    5.3720   -0.9753  -15.3176 O   0  0  0  0  0  0  0  0  0  0  0  0
    7.9245    2.7493  -17.8959 O   0  0  0  0  0  0  0  0  0  0  0  0
    3.7804    4.6701  -19.7292 O   0  0  0  0  0  0  0  0  0  0  0  0
    5.4451    7.9663  -18.9520 O   0  0  0  0  0  0  0  0  0  0  0  0
    8.7667    0.3111  -22.1355 F   0  0  0  0  0  0  0  0  0  0  0  0
    5.1448   -2.7245  -21.4041 F   0  0  0  0  0  0  0  0  0  0  0  0
    7.1579    2.1134  -21.0968 H   0  0  0  0  0  0  0  0  0  0  0  0
    3.9067   -0.6327  -20.3959 H   0  0  0  0  0  0  0  0  0  0  0  0
    7.5779   -2.0420  -22.1563 H   0  0  0  0  0  0  0  0  0  0  0  0
    7.6721   -2.9994  -18.6023 H   0  0  0  0  0  0  0  0  0  0  0  0
    8.4625   -2.7617  -17.0069 H   0  0  0  0  0  0  0  0  0  0  0  0
    6.1728    5.6508  -19.3342 H   0  0  0  0  0  0  0  0  0  0  0  0
    7.1153    5.3862  -17.8281 H   0  0  0  0  0  0  0  0  0  0  0  0
    8.7860   -0.6143  -18.0245 H   0  0  0  0  0  0  0  0  0  0  0  0
    7.1894   -0.6640  -18.8461 H   0  0  0  0  0  0  0  0  0  0  0  0
    5.1833    6.9524  -15.7858 H   0  0  0  0  0  0  0  0  0  0  0  0
    4.1638    8.0203  -16.8090 H   0  0  0  0  0  0  0  0  0  0  0  0
    6.3273   -3.3689  -16.2180 H   0  0  0  0  0  0  0  0  0  0  0  0
    6.8017    7.6327  -17.3664 H   0  0  0  0  0  0  0  0  0  0  0  0
    5.3381    4.3866  -16.7611 H   0  0  0  0  0  0  0  0  0  0  0  0
    4.6884    9.5514  -22.5142 H   0  0  0  0  0  0  0  0  0  0  0  0
    4.0615    9.1280  -20.8851 H   0  0  0  0  0  0  0  0  0  0  0  0
    5.1417   10.5484  -21.0905 H   0  0  0  0  0  0  0  0  0  0  0  0
    8.8984    0.4671  -14.8890 H   0  0  0  0  0  0  0  0  0  0  0  0
    9.5000    1.0013  -16.4950 H   0  0  0  0  0  0  0  0  0  0  0  0
    8.8977    2.2126  -15.3132 H   0  0  0  0  0  0  0  0  0  0  0  0
    4.4002   -4.6448  -19.0659 H   0  0  0  0  0  0  0  0  0  0  0  0
    6.1590   -4.7202  -18.7092 H   0  0  0  0  0  0  0  0  0  0  0  0
    4.9638   -4.9663  -17.3910 H   0  0  0  0  0  0  0  0  0  0  0  0
    3.0564   -2.7417  -18.4404 H   0  0  0  0  0  0  0  0  0  0  0  0
    3.4638   -2.9768  -16.7069 H   0  0  0  0  0  0  0  0  0  0  0  0
    3.7309   -1.3793  -17.4838 H   0  0  0  0  0  0  0  0  0  0  0  0
    4.2842    2.6074  -20.9927 H   0  0  0  0  0  0  0  0  0  0  0  0
    3.6930    1.5503  -19.6662 H   0  0  0  0  0  0  0  0  0  0  0  0
    5.9214    7.6162  -21.5579 H   0  0  0  0  0  0  0  0  0  0  0  0
    7.0016    9.0366  -21.7633 H   0  0  0  0  0  0  0  0  0  0  0  0
    7.4281    7.9636  -19.5915 H   0  0  0  0  0  0  0  0  0  0  0  0
    6.6980    9.5854  -19.3395 H   0  0  0  0  0  0  0  0  0  0  0  0
    6.6220    1.2673  -15.4756 H   0  0  0  0  0  0  0  0  0  0  0  0
    5.4493   -2.3772  -18.9619 H   0  0  0  0  0  0  0  0  0  0  0  0
    3.5012    3.4431  -18.0801 H   0  0  0  0  0  0  0  0  0  0  0  0
    6.1720    3.3646  -19.5812 H   0  0  0  0  0  0  0  0  0  0  0  0
    5.0698    1.4526  -17.5370 H   0  0  0  0  0  0  0  0  0  0  0  0
    3.4364    5.6025  -16.4574 H   0  0  0  0  0  0  0  0  0  0  0  0
    3.3859    6.1912  -17.9798 H   0  0  0  0  0  0  0  0  0  0  0  0
    3.3716    4.0600  -20.3318 H   0  0  0  0  0  0  0  0  0  0  0  0
  1  4  1  0  0  0  0
  1  5  2  0  0  0  0
  2  4  2  0  0  0  0
  2  6  1  0  0  0  0
  3  5  1  0  0  0  0
  3  6  2  0  0  0  0
  4 20  1  0  0  0  0
  5 34  1  0  0  0  0
  6 35  1  0  0  0  0
  7 13  1  0  0  0  0
  7 27  1  0  0  0  0
  7 30  2  0  0  0  0
  8 23  1  0  0  0  0
  8 28  1  0  0  0  0
  8 31  2  0  0  0  0
  9 11  1  0  0  0  0
  9 13  1  0  0  0  0
 10 14  1  0  0  0  0
 10 15  1  0  0  0  0
 11 27  1  0  0  0  0
 12 14  1  0  0  0  0
 12 29  1  0  0  0  0
 13 24  1  0  0  0  0
 14 33  1  0  0  0  0
 15 25  1  0  0  0  0
 15 29  1  0  0  0  0
 16 21  1  0  0  0  0
 17 23  1  0  0  0  0
 18 24  1  0  0  0  0
 19 24  1  0  0  0  0
 20 26  1  0  0  0  0
 21 22  1  0  0  0  0
 22 33  1  0  0  0  0
 23 27  1  0  0  0  0
 25 26  1  0  0  0  0
 25 32  1  0  0  0  0
 26 28  1  0  0  0  0
  1 36  1  0  0  0  0
  2 37  1  0  0  0  0
  3 38  1  0  0  0  0
  9 39  1  0  0  0  0
  9 40  1  0  0  0  0
 10 41  1  0  0  0  0
 10 42  1  0  0  0  0
 11 43  1  0  0  0  0
 11 44  1  0  0  0  0
 12 45  1  0  0  0  0
 12 46  1  0  0  0  0
 13 47  1  0  0  0  0
 14 48  1  0  0  0  0
 15 49  1  0  0  0  0
 16 50  1  0  0  0  0
 16 51  1  0  0  0  0
 16 52  1  0  0  0  0
 17 53  1  0  0  0  0
 17 54  1  0  0  0  0
 17 55  1  0  0  0  0
 18 56  1  0  0  0  0
 18 57  1  0  0  0  0
 18 58  1  0  0  0  0
 19 59  1  0  0  0  0
 19 60  1  0  0  0  0
 19 61  1  0  0  0  0
 20 62  1  0  0  0  0
 20 63  1  0  0  0  0
 21 64  1  0  0  0  0
 21 65  1  0  0  0  0
 22 66  1  0  0  0  0
 22 67  1  0  0  0  0
 23 68  1  0  0  0  0
 24 69  1  0  0  0  0
 25 70  1  0  0  0  0
 26 71  1  0  0  0  0
 28 72  1  0  0  0  0
 29 73  1  0  0  0  0
 29 74  1  0  0  0  0
 32 75  1  0  0  0  0
M  CHG  1  29   1
M  END
> <OMEGA_C>
vRbYQAl5jj9sGanBoRKdQKS84L67/6XBv3XfQDYWnr9hCa7BknauQHiFWz8oNKXB7KfwQC44hD3S
Zq3B63O1QKWgvb8De6rBDdHDQKozmb8jGoLB8UfhQOIEAkBbhIvBNq70QFRLG8AUT43BBxTFQB/A
t0Cw55HBzpn3QJj/br9Mc4/BddeYQERq40BGXobBwCHJQAo3JMCmv4fBRsS8QPRR5kAwj47Bl0uf
QB4inkB8Ho3BzYedQNV0GEGPhKvBHisMQZLAmD8qQnvB8qClQGBWjcCDj5LBhmtwQLL3HcBFGY3B
58eSQNPF/T+VHaHBp7bEQBUcCkGVm6nB0YPQQOcQCUELs53BeLPqQLOnhj/gSILBitmlQHZ1OcDm
PZDBpiSKQJj1fEBS6ZTBLd+pQK4mOECD1pjBLYjjQERNq75e/YXBHf63QPQTA0Dst4/Bxx1/QARZ
vkDyvYnBQOerQPKueb/SFHXBg5X9QKb0L0DgKo/BXPFxQDFxlUBZ1Z3BUT6uQP7r/kC8nZfBlEQM
QVFJnz5xFbHBNqKkQLhdLsCGO6vBUQ3lQNFBB0BNxqjBzAd6QGb4Ib/nKqPBf37yQNewAsAMQLHB
woH1QIn2P8Bu0ZTBk2YHQUW/MMAJDojBwofFQCLTtECBrJrBxbDjQI9brEADoI7BiJMMQVhAHb9A
MpDBbQ/mQBn6Kb/MxJbBu92lQGR63kC0knzB9z2FQExTAEHOeIbBVHnKQAucV8B3voHBTafZQCw/
9EBU7orBT9GqQBFfjEC+FobBbgeWQKzSGEEcHbTBg/eBQCUMEkGxFKfBooikQDnGKEFSuajBt18O
QRku7z6EOW7BGwAYQWIpgD/E9YPBAV0OQZaaDUDnAnXBbM6MQNuhlMAOh5jBrBbFQJALl8CArJXB
uteeQJjrnsDWIIvBr5tDQFZ4L8D/hZPBVK9dQCuDPsC6p4XBqcduQIONsL+93ovBYRiJQPDfJkD7
8KfBaVlsQEhwxj9VVJ3BYXy9QOi380CodqzBgA3gQAiWEEFJG67BGLPtQCDW/kBju5zBwFXWQMBd
GUFet5rBj+fTQDY4oj/um3fBj2CuQM4kGMD4sZfBpBNgQAJbXEADpJDB1IDFQAVWV0A1ppzBGzyi
QCvtuT/FS4zBku1bQPpHs0DKqIPBz7JYQEMexkCZ1o/BZchXQEfrgUCbp6LBtoTZQDjykT9qD6nB
zfidQNM7z762j6bBmdvgQBw4mb9sU67BoaevQK5+YT8qXKXB8RvyQFTwyz0Mea3BA5S2QMYGub9U
/arBNfPEQDt7nL/IzIHBWW7hQHjcAkB0P4vBFyPjQH7aDcCpvpHB6MvFQE98t0AQspHB4Jf7QJjs
dr/jrI7Bms6YQKiL40Abe4bBCRvJQJH8I8Dg1YfBpA+9QF4m5kA7lI7BNW6fQIsnnkA4GI3BLMib
QChgGEESFqvBVy4MQd0nlD9/AXvBfu95QIooGMDxnJDBGxWkQBX4kcDTxpDBjdGTQAgw/z9OJ6HB
ZcTFQDoRDEHGT6nBQXbQQPf0CUEiX53B1pDqQK7EhT8eJILB2Q2dQIuNUMBIV4rBXrSKQGMvfUDY
9ZTBaqaqQCCFOEAAy5jB+D7iQAEIo77WOYbBx2a4QPd1A0BeoY/BXCh/QJqSvkD46YnBGN+sQD8n
gL8YinTBVOj9QGXPMECAzo7BLvZzQMmllUDz653BAKOuQPG7/UC6zZfBKBANQUpVsz70CLHBHiCm
QPxZLMB+t6vBEqbmQCzBCEDAgKjBRdl6QN3dF7/2E6TBcw70QK8EAMC/ibHBa/rNQFtUAcDcmZjB
/k75QI4hQsCTv5PB5EnHQGIPtEAjcprB5QHkQAFMrEBbJo7B98kNQYIDnb9zqIvBIsX+QD9bl76s
nZXBSXOlQJWh3kCauHzBeVeFQMFuAEESqIbBAQHcQJQGUMCi2oLBBbDZQJOg9EDZ9IrBRzyqQNto
jECp/YXB0TqVQDSNGUFgtrPBmF2BQLrYD0GnIafBx7GeQEKKKEGkrqfBYEIOQbKz1T7gJm7BpO0X
QU5qdz8M4IPBN6EOQf3LCkDUhnTBgIs+QHVNPMAj/5HBe4VrQCZjvL+L9IvBwxKLQErhBcBYWJjB
DvuEQF0KocAbcpLBaDi0QMBtisDjXZjBlQ64QDEXqMBNGIzBZPmJQN0TKEBT66fBPKRuQAxWxj9/
Z53BuZvCQLbw90Dxx6zB6O/fQOOpFEHuVK3BKnjuQA/vAEECeZzBPVnUQJ8DGkH05pnB5ufTQF2E
oD9RPHfBKDaOQP69YcAAqILB7sVgQO19XEB3yJDBlm7GQDPHV0CXhpzBb4+iQEjnuT/FT4zBm/Za
QI67s0D+5YPBj7pZQI1LxkD/G5DB6kpaQGcsgkDby6LBX93aQGf9jz+476jBdTKhQJQZ6r6FTaXB
AV7kQAbdnr9L+6zBloCxQLDGWj+T9aTBxkz0QI5ynj015azBd5+6QLCewL8oRKnB1mbvQK09bL8L
hI7BGH3iQAAIBkBeQYvBJnOrQAtE+L8CRovBsmjGQAiYt0AhWpHBwtWzQNQXVr+/CoPBmviXQJ6I
4kBWTIbBs+/XQNFiEcDFbo/BgSa8QAoN5kDpYo7B6dufQBKInUDbG43BDN2YQDZNF0GhGqvBBPgM
QSDXjz+P/3vBSJkPQamZWMAuC4vBIQvmQPtzYMBUEnrBkTOVQILZ/D+2IKHBLYnDQMCsC0EzOKnB
9hfOQFj4CUE+Qp3BRCXrQHdwjD8IGILB7mruQN1aXMDoQInBqtaLQJizfUDRSZXBmOqrQIE5OUBQ
+JjBjCzeQArCgr6hrIXBRqa5QDz8BUDHtI/B2fJ+QA8yvUAHz4nBP3wGQQgeC79HNpTB2wb/QEQf
NEARwo7B4kJ5QCJvlkAmUp7BZAOtQMCv/EAKsJfBxfkNQTrfrj6Ip7DBqEirQLBDMcBROqnBUPfm
QDS9CED376jBHh+BQDuNKL+JhKLBXyH4QLUhA8CH5K/B2pycQMRTNMCQfIfB7bqWQBKyyb/Hw5HB
VmbJQMQNtEBSE5rBYkDkQFcgrUDvfI3BA92aQEeWgr27j4PBwkK0QC47ob8/13XBTbKkQOec3UBL
X3zBp/ODQH57/0CFa4bB5q7VQLETI8CC7pfBhT/YQKSl9UCgy4rB20+qQIj3ikCQGobB2GmSQA81
GEFAvrPBoMx9QPtzDkEzI6fBq7maQLiRJ0EVx6fBQ9wOQY8yyD4xAm/Bs+AXQeKwXj92mYTBZsgQ
QZJJCEDe+XXBHVQXQVeuhsAkr4bBrhATQcOfXsBto5PBh84VQbsdG8BwFojB9lj3QK6fi8CbMnPB
tUvxQMz1JMBfh3LB/InDQDgKaMD4JnfBlnSLQDsaJUC3EKjBdFNxQARmxT8CUZ3Br23BQOrv9kBq
nKzBCkHdQLGVFEFNQK3BB77sQO6JAUGBR5zB0a3QQOUlGkGv2pnBiH7WQEY5sT9ysnbBksviQB5T
jMDavozBM55hQA37XEC5aJHBk5XHQAYnWEAnzJzBismjQJvLvz8dUozBxGJbQNy9sUAwzoPBYAVZ
QCrPxEAM94/Beo5gQENNg0D5WqPB

> <OMEGA_E>
yvwIP4x1CT8yaTg/

> <OMEGA_NBR>
     19535

$$$$
50197341
  -OEChem-04172616093D

 78 80  0     1  0  0  0  0  0999 V2000
    6.7218    1.1260  -21.1662 C   0  0  0  0  0  0  0  0  0  0  0  0
    4.8765   -0.4314  -20.8136 C   0  0  0  0  0  0  0  0  0  0  0  0
    6.9631   -1.2151  -21.8015 C   0  0  0  0  0  0  0  0  0  0  0  0
    5.4226    0.8606  -20.6817 C   0  0  0  0  0  0  0  0  0  0  0  0
    7.4939    0.0858  -21.7116 C   0  0  0  0  0  0  0  0  0  0  0  0
    5.6487   -1.4693  -21.3692 C   0  0  0  0  0  0  0  0  0  0  0  0
    6.4289   -1.1546  -16.0246 C   0  0  0  0  0  0  0  0  0  0  0  0
    7.0571    2.1129  -17.4284 C   0  0  0  0  0  0  0  0  0  0  0  0
    7.6542   -2.2708  -17.7435 C   0  0  0  0  0  0  0  0  0  0  0  0
    6.1563    5.7237  -18.1264 C   0  0  0  0  0  0  0  0  0  0  0  0
    7.8024   -0.7692  -17.9071 C   0  0  0  0  0  0  0  0  0  0  0  0
    4.6736    7.0884  -16.7982 C   0  0  0  0  0  0  0  0  0  0  0  0
    6.3637   -2.3771  -16.9372 C   0  0  2  0  0  0  0  0  0  0  0  0
    5.8358    7.1821  -17.7739 C   0  0  2  0  0  0  0  0  0  0  0  0
    4.9316    4.9193  -17.6283 C   0  0  2  0  0  0  0  0  0  0  0  0
    4.9380    9.5649  -21.3800 C   0  0  0  0  0  0  0  0  0  0  0  0
    8.8022    1.3971  -15.6496 C   0  0  0  0  0  0  0  0  0  0  0  0
    4.8718   -4.7016  -18.3715 C   0  0  0  0  0  0  0  0  0  0  0  0
    2.9398   -3.1105  -18.6792 C   0  0  0  0  0  0  0  0  0  0  0  0
    4.5627    1.9702  -20.1357 C   0  0  0  0  0  0  0  0  0  0  0  0
    5.1195   -2.2266  -17.8515 C   0  0  0  0  0  0  0  0  0  0  0  0
    6.1835    8.6995  -21.1349 C   0  0  0  0  0  0  0  0  0  0  0  0
    6.4915    8.5650  -19.6378 C   0  0  0  0  0  0  0  0  0  0  0  0
    7.3896    1.1863  -16.2346 C   0  0  2  0  0  0  0  0  0  0  0  0
    4.3185    3.9687  -18.6672 C   0  0  2  0  0  0  0  0  0  0  0  0
    4.1773   -3.4377  -17.8193 C   0  0  0  0  0  0  0  0  0  0  0  0
    5.3067    2.8776  -19.1238 C   0  0  1  0  0  0  0  0  0  0  0  0
    7.2559   -0.2162  -16.6518 N   0  0  0  0  0  0  0  0  0  0  0  0
    5.7671    2.0726  -17.9661 N   0  0  0  0  0  0  0  0  0  0  0  0
    3.9158    5.9202  -17.2464 N   0  3  0  0  0  0  0  0  0  0  0  0
    5.7235   -0.9704  -15.0399 O   0  0  0  0  0  0  0  0  0  0  0  0
    7.9256    2.8274  -17.9179 O   0  0  0  0  0  0  0  0  0  0  0  0
    3.8790    4.7247  -19.8006 O   0  0  0  0  0  0  0  0  0  0  0  0
    5.4121    7.8945  -18.9533 O   0  0  0  0  0  0  0  0  0  0  0  0
    8.7406    0.3409  -22.1647 F   0  0  0  0  0  0  0  0  0  0  0  0
    5.1342   -2.7147  -21.4719 F   0  0  0  0  0  0  0  0  0  0  0  0
    7.1223    2.1278  -21.1179 H   0  0  0  0  0  0  0  0  0  0  0  0
    3.8651   -0.6257  -20.4885 H   0  0  0  0  0  0  0  0  0  0  0  0
    7.5648   -2.0175  -22.2022 H   0  0  0  0  0  0  0  0  0  0  0  0
    7.5587   -2.7714  -18.7183 H   0  0  0  0  0  0  0  0  0  0  0  0
    8.5053   -2.6987  -17.1934 H   0  0  0  0  0  0  0  0  0  0  0  0
    6.2815    5.6060  -19.2129 H   0  0  0  0  0  0  0  0  0  0  0  0
    7.0717    5.3932  -17.6138 H   0  0  0  0  0  0  0  0  0  0  0  0
    8.8600   -0.4918  -18.0285 H   0  0  0  0  0  0  0  0  0  0  0  0
    7.2278   -0.4119  -18.7743 H   0  0  0  0  0  0  0  0  0  0  0  0
    5.0387    6.9448  -15.7706 H   0  0  0  0  0  0  0  0  0  0  0  0
    4.0532    7.9956  -16.8434 H   0  0  0  0  0  0  0  0  0  0  0  0
    6.3228   -3.3121  -16.3592 H   0  0  0  0  0  0  0  0  0  0  0  0
    6.7037    7.6612  -17.2973 H   0  0  0  0  0  0  0  0  0  0  0  0
    5.2279    4.3365  -16.7437 H   0  0  0  0  0  0  0  0  0  0  0  0
    4.7490    9.6385  -22.4611 H   0  0  0  0  0  0  0  0  0  0  0  0
    4.0692    9.1050  -20.8864 H   0  0  0  0  0  0  0  0  0  0  0  0
    5.1039   10.5711  -20.9676 H   0  0  0  0  0  0  0  0  0  0  0  0
    8.9590    0.7043  -14.8097 H   0  0  0  0  0  0  0  0  0  0  0  0
    9.5542    1.2045  -16.4289 H   0  0  0  0  0  0  0  0  0  0  0  0
    8.9006    2.4332  -15.2933 H   0  0  0  0  0  0  0  0  0  0  0  0
    5.7542   -4.9337  -17.7572 H   0  0  0  0  0  0  0  0  0  0  0  0
    4.1704   -5.5484  -18.3403 H   0  0  0  0  0  0  0  0  0  0  0  0
    5.1852   -4.5231  -19.4107 H   0  0  0  0  0  0  0  0  0  0  0  0
    2.4462   -2.2101  -18.2847 H   0  0  0  0  0  0  0  0  0  0  0  0
    3.2525   -2.9315  -19.7185 H   0  0  0  0  0  0  0  0  0  0  0  0
    2.2377   -3.9568  -18.6481 H   0  0  0  0  0  0  0  0  0  0  0  0
    4.2191    2.5918  -20.9757 H   0  0  0  0  0  0  0  0  0  0  0  0
    3.6936    1.5230  -19.6310 H   0  0  0  0  0  0  0  0  0  0  0  0
    4.5556   -1.3398  -17.5266 H   0  0  0  0  0  0  0  0  0  0  0  0
    5.4646   -2.0831  -18.8860 H   0  0  0  0  0  0  0  0  0  0  0  0
    6.0106    7.6978  -21.5553 H   0  0  0  0  0  0  0  0  0  0  0  0
    7.0453    9.1640  -21.6364 H   0  0  0  0  0  0  0  0  0  0  0  0
    7.4165    7.9834  -19.5102 H   0  0  0  0  0  0  0  0  0  0  0  0
    6.6261    9.5674  -19.2052 H   0  0  0  0  0  0  0  0  0  0  0  0
    6.6600    1.3900  -15.4369 H   0  0  0  0  0  0  0  0  0  0  0  0
    3.4542    3.4704  -18.2038 H   0  0  0  0  0  0  0  0  0  0  0  0
    3.8591   -3.6236  -16.7828 H   0  0  0  0  0  0  0  0  0  0  0  0
    6.1659    3.3494  -19.6231 H   0  0  0  0  0  0  0  0  0  0  0  0
    5.1062    1.4557  -17.5388 H   0  0  0  0  0  0  0  0  0  0  0  0
    3.3408    5.5708  -16.5066 H   0  0  0  0  0  0  0  0  0  0  0  0
    3.3427    6.1547  -18.0317 H   0  0  0  0  0  0  0  0  0  0  0  0
    3.4993    4.1387  -20.4448 H   0  0  0  0  0  0  0  0  0  0  0  0
  1  4  1  0  0  0  0
  1  5  2  0  0  0  0
  2  4  2  0  0  0  0
  2  6  1  0  0  0  0
  3  5  1  0  0  0  0
  3  6  2  0  0  0  0
  4 20  1  0  0  0  0
  5 35  1  0  0  0  0
  6 36  1  0  0  0  0
  7 13  1  0  0  0  0
  7 28  1  0  0  0  0
  7 31  2  0  0  0  0
  8 24  1  0  0  0  0
  8 29  1  0  0  0  0
  8 32  2  0  0  0  0
  9 11  1  0  0  0  0
  9 13  1  0  0  0  0
 10 14  1  0  0  0  0
 10 15  1  0  0  0  0
 11 28  1  0  0  0  0
 12 14  1  0  0  0  0
 12 30  1  0  0  0  0
 13 21  1  0  0  0  0
 14 34  1  0  0  0  0
 15 25  1  0  0  0  0
 15 30  1  0  0  0  0
 16 22  1  0  0  0  0
 17 24  1  0  0  0  0
 18 26  1  0  0  0  0
 19 26  1  0  0  0  0
 20 27  1  0  0  0  0
 21 26  1  0  0  0  0
 22 23  1  0  0  0  0
 23 34  1  0  0  0  0
 24 28  1  0  0  0  0
 25 27  1  0  0  0  0
 25 33  1  0  0  0  0
 27 29  1  0  0  0  0
  1 37  1  0  0  0  0
  2 38  1  0  0  0  0
  3 39  1  0  0  0  0
  9 40  1  0  0  0  0
  9 41  1  0  0  0  0
 10 42  1  0  0  0  0
 10 43  1  0  0  0  0
 11 44  1  0  0  0  0
 11 45  1  0  0  0  0
 12 46  1  0  0  0  0
 12 47  1  0  0  0  0
 13 48  1  0  0  0  0
 14 49  1  0  0  0  0
 15 50  1  0  0  0  0
 16 51  1  0  0  0  0
 16 52  1  0  0  0  0
 16 53  1  0  0  0  0
 17 54  1  0  0  0  0
 17 55  1  0  0  0  0
 17 56  1  0  0  0  0
 18 57  1  0  0  0  0
 18 58  1  0  0  0  0
 18 59  1  0  0  0  0
 19 60  1  0  0  0  0
 19 61  1  0  0  0  0
 19 62  1  0  0  0  0
 20 63  1  0  0  0  0
 20 64  1  0  0  0  0
 21 65  1  0  0  0  0
 21 66  1  0  0  0  0
 22 67  1  0  0  0  0
 22 68  1  0  0  0  0
 23 69  1  0  0  0  0
 23 70  1  0  0  0  0
 24 71  1  0  0  0  0
 25 72  1  0  0  0  0
 26 73  1  0  0  0  0
 27 74  1  0  0  0  0
 29 75  1  0  0  0  0
 30 76  1  0  0  0  0
 30 77  1  0  0  0  0
 33 78  1  0  0  0  0
M  CHG  1  30   1
M  END
> <OMEGA_C>
ZRnXQJkgkD93VKnBVQycQCXe3L5agqbBD9LeQPeHm795aa7BxYWtQNRNXD8adKXB1M3vQMCxrz1Y
sa3BwsG0QOQRvL8K9KrB17nNQN3Kk79vMoDB59PhQD45B0BPbYvBjO/0QGVUEcCW8o3BLgDFQHko
t0DmApHBq635QBboRL+pQY/B2I2VQE/U4kC4YobBfKPLQA0iGMBhf4fBgr66QPLT5UAMMY7BnM+d
QDdrnUC1Bo3BJwSeQNMJGUE0CqvB+dUMQSjVsj+sZHrBheWbQD1zlsDT+JLBIiU8QEUSR8D4bpXB
ggGSQLYv/D/3FaHBltKjQDCBDsDNz47B5t7FQDwxC0FEFKnBgbrPQAsKCUEmGp3BNXfsQFjZlz+C
4IHBdzGKQH3+fUBhVpXBjayFQMsCXMDdjY7BcNCpQAAqOECg/ZjBdDDoQFppXb7jNoXBGIy4QNml
BECquo/B8Jt6QAtyvUCs+InB0ya3QKxteL9qo3DBiZ79QMjzNEDwV4/B7EF4QIIwl0CpZ57B6y+t
QA6g/EBToJfBYtkLQb2Prj5SUbHBakukQCy+LcBfxqvB4+njQJUuCEBo8ajBzV13QFksIL986KPB
phLyQBIfAcAKnrHBt+DxQA5eMcAGv5XB4RUIQcm2LMAZjInBRwLJQCFks0AGtJnBdEviQOeUrEAm
6YzBXcINQY/K+75cOpDBz0nnQHTq0r7KMZbB1jyhQHY73kAzVHzBnrOBQFvc/0Bfv4bBVFTKQEH5
U8Cj34LBloTWQI0o9UDlYIrBE0unQJDEikAV84XBiveXQEE3GkFdsLPBtDaCQOGtEUFuF6fBwlKj
QCUjKUGPvafBIFgPQb1JND+r9GzBHN4YQUwtmj97boPBqWgOQQm5G0A3sXTBtCK4QAnhncDBDo7B
7nOFQG+MscD6uJLBNe2lQIW9kMAWSZvB640cQPRxDcASR5LBQSlQQJKdO8B1v53BszYPQGY7fcBZ
L5XBnAKHQGjfJUBIzqfBpGRsQInwwj9MDJ3BL8eRQNl9q7+PNozBod2uQC9RBcCRFpfB+VbAQKhU
9kBIcazBBnPhQJifEkFpF63BolPtQOZ3/0D5FJzB5gjUQOATGUFTpJnB6B7VQBfssT+3/XbBXRJd
QHAbXkBJoZHBA/x2QBbpZ8BAQ4bBtU7FQDlcVkAL/JzB32WjQDxVuj9zT4zB4c5VQC5EskCNDYTB
7e5VQAzzxEDcQJDBRPVfQAVwhEDqjqPBp5HYQAWSjD/vyajBP8SbQDCi0L5kmqbBqbveQMVLn7+i
/K3BlTauQH+oXT9XUKXBsebwQOxxHT2B/6zBptezQD2iur+nA6vBrq/NQPeMkr8i/H7BxHThQIBD
B0D7e4vBJDvuQGdzEMBdao7BTcDDQKLDt0CYBpLB0CLzQFVoQr9nmo/BFViXQPXk4kBrYIbBrtLI
QHMSGMBKl4bBc0+8QFr65UCwRo7BUsWdQFFInkCYVo3BJjChQDrdF0HfeqvBF1QMQX2EsT/HUnrB
ooBGQDY3TMBb0ZfBxbOWQDAKmcA+D4/ByKmSQN0U/z/ASKHBAgmcQKHvEMB924vBk57HQBA8CUEc
LKnB0JHSQPbhCEFYNJ3B9oLrQIOGmD+y4oHBUDKJQLqzfEArHpXBrrWRQFJRWMDQ8ZPBXIqpQEMF
OUASApnB4mzmQMf0W777GIXBKUq4QMbkBEDp04/BUuB7QHCivkBULYrBkuS4QMPYbb+xuW7BdXf9
QCmpNEBoXI/BTFJvQNQAlUDZDJ7BKVCvQAgnAEFkJ5fBNKoMQag7hj5jYbDBvyuhQBzTKcA55qzB
aD7mQBeZBUAVN6jBgwx2QA7iE787MqTBiLPxQDQSBMANBrHBA5XmQE6vLsAQIZbB87YFQUV7LcDH
GYvBA8bDQJ72tUBx0JrBNE7iQDJyq0AN7Y7BGEEKQeMg/r6qcpHB6A/eQPKTwb4b9ZXBCEijQFTw
3EBad3zBvT2EQLQ6AEHqcYbBJUXLQFwwU8AS2oHBGiHZQIaR8kDJUorBH92oQA3VjEB3N4bBHj+a
QHu8F0FfG7TBKxOFQPMMEkGzDafB97moQP5HKEHG7ajBHZ4OQel9Mj/WzWzBxmEYQfXwlj/uWoPB
ahgOQe8dG0Cwt3TB3Ts/QLEGDMDNUJvBYHg3QNHYfMCe5Z3Bg4AaQDUpU8DgAJHB6dO3QJZqncCn
SozBjq2AQBR9nMDQP4jBfCmPQOJUscCOJJXBJCaJQIJgJ0CNI6jBA+prQDQtyD9fhZ3BZcuDQB7T
EsAge4XBwzeaQFpOpr8wDZDBQN+/QOPC8UDtyKvBDYbjQH0cD0EBqa3BcibvQPfb/UBn7pvBoQnZ
QDlMGUEPeZrBiC/UQP0atT9jFXfBqLJeQAY9W0Bv2pDB2GWnQHdsUsAm1prB5trEQDMiWUB315zB
PiujQFXmuT+Qe4zByz5WQNlys0BvV4TBX+BXQMwpx0A5cJDBStZVQN8/gUCM3qLB

> <OMEGA_E>
rMPdPiQG3T4=

> <OMEGA_NBR>
     22318

$$$$
50197343
  -OEChem-04172616093D

 89 92  0     1  0  0  0  0  0999 V2000
   12.9222    0.9200  -13.0514 C   0  0  0  0  0  0  0  0  0  0  0  0
   12.0153    1.9357  -12.6852 C   0  0  0  0  0  0  0  0  0  0  0  0
   12.4941   -0.1550  -13.8565 C   0  0  0  0  0  0  0  0  0  0  0  0
   10.6758    1.8704  -13.1128 C   0  0  0  0  0  0  0  0  0  0  0  0
   11.1550   -0.2236  -14.2819 C   0  0  0  0  0  0  0  0  0  0  0  0
    6.7851    1.1421  -21.0349 C   0  0  0  0  0  0  0  0  0  0  0  0
    4.9847   -0.4762  -20.7402 C   0  0  0  0  0  0  0  0  0  0  0  0
    7.1326   -1.1920  -21.6512 C   0  0  0  0  0  0  0  0  0  0  0  0
   10.2407    0.7762  -13.8891 C   0  0  0  0  0  0  0  0  0  0  0  0
    5.4723    0.8385  -20.6037 C   0  0  0  0  0  0  0  0  0  0  0  0
    7.6166    0.1251  -21.5398 C   0  0  0  0  0  0  0  0  0  0  0  0
    5.8107   -1.4880  -21.2707 C   0  0  0  0  0  0  0  0  0  0  0  0
    6.3333   -1.2193  -16.2304 C   0  0  0  0  0  0  0  0  0  0  0  0
    7.6839   -3.8203  -15.0241 C   0  0  0  0  0  0  0  0  0  0  0  0
    6.9901    2.0810  -17.4710 C   0  0  0  0  0  0  0  0  0  0  0  0
    7.8974   -2.2986  -17.7480 C   0  0  0  0  0  0  0  0  0  0  0  0
    6.1352    5.7255  -18.2767 C   0  0  0  0  0  0  0  0  0  0  0  0
    7.8314   -0.8019  -17.9888 C   0  0  0  0  0  0  0  0  0  0  0  0
    4.7996    7.1622  -16.8598 C   0  0  0  0  0  0  0  0  0  0  0  0
    5.9343    7.1955  -17.8827 C   0  0  2  0  0  0  0  0  0  0  0  0
    4.9406    4.9638  -17.6459 C   0  0  2  0  0  0  0  0  0  0  0  0
    6.5938   -2.5654  -16.9645 C   0  0  2  0  0  0  0  0  0  0  0  0
    7.7310   -5.1262  -14.2405 C   0  0  0  0  0  0  0  0  0  0  0  0
    2.9813   -2.9967  -18.5882 C   0  0  0  0  0  0  0  0  0  0  0  0
    5.5565   -4.4436  -18.4191 C   0  0  0  0  0  0  0  0  0  0  0  0
    8.8186    0.7073  -14.3643 C   0  0  0  0  0  0  0  0  0  0  0  0
    4.5421    1.9285  -20.1032 C   0  0  0  0  0  0  0  0  0  0  0  0
    4.0431   -2.5759  -17.5497 C   0  0  0  0  0  0  0  0  0  0  0  0
    8.7142    1.3867  -15.7315 C   0  0  0  0  0  0  0  0  0  0  0  0
    7.3149    1.1361  -16.3197 C   0  0  2  0  0  0  0  0  0  0  0  0
    4.2500    3.9462  -18.5861 C   0  0  2  0  0  0  0  0  0  0  0  0
    5.4753   -2.9362  -18.0112 C   0  0  1  0  0  0  0  0  0  0  0  0
    5.2310    2.8692  -19.0892 C   0  0  1  0  0  0  0  0  0  0  0  0
    7.1895   -0.2624  -16.7838 N   0  0  0  0  0  0  0  0  0  0  0  0
    6.7144   -3.6836  -16.0086 N   0  0  0  0  0  0  0  0  0  0  0  0
    5.6947    2.0646  -17.9561 N   0  0  0  0  0  0  0  0  0  0  0  0
    3.9775    6.0074  -17.2459 N   0  3  0  0  0  0  0  0  0  0  0  0
    5.6623   -1.0704  -15.2148 O   0  0  0  0  0  0  0  0  0  0  0  0
    8.4245   -2.8979  -14.7041 O   0  0  0  0  0  0  0  0  0  0  0  0
    7.8467    2.8187  -17.9482 O   0  0  0  0  0  0  0  0  0  0  0  0
    5.5443    7.9719  -19.0181 O   0  0  0  0  0  0  0  0  0  0  0  0
    3.6903    4.6338  -19.7045 O   0  0  0  0  0  0  0  0  0  0  0  0
    8.8769    0.4171  -21.9300 F   0  0  0  0  0  0  0  0  0  0  0  0
    5.3425   -2.7510  -21.3915 F   0  0  0  0  0  0  0  0  0  0  0  0
   13.9472    0.9657  -12.7143 H   0  0  0  0  0  0  0  0  0  0  0  0
   12.3484    2.7635  -12.0767 H   0  0  0  0  0  0  0  0  0  0  0  0
   13.1936   -0.9251  -14.1465 H   0  0  0  0  0  0  0  0  0  0  0  0
    9.9835    2.6556  -12.8472 H   0  0  0  0  0  0  0  0  0  0  0  0
   10.8275   -1.0404  -14.9080 H   0  0  0  0  0  0  0  0  0  0  0  0
    7.1502    2.1568  -20.9764 H   0  0  0  0  0  0  0  0  0  0  0  0
    3.9746   -0.7097  -20.4374 H   0  0  0  0  0  0  0  0  0  0  0  0
    7.7749   -1.9742  -22.0281 H   0  0  0  0  0  0  0  0  0  0  0  0
    7.9121   -2.8543  -18.6972 H   0  0  0  0  0  0  0  0  0  0  0  0
    8.7821   -2.5673  -17.1521 H   0  0  0  0  0  0  0  0  0  0  0  0
    6.1270    5.6158  -19.3712 H   0  0  0  0  0  0  0  0  0  0  0  0
    7.0875    5.3466  -17.8773 H   0  0  0  0  0  0  0  0  0  0  0  0
    8.8411   -0.3831  -18.1119 H   0  0  0  0  0  0  0  0  0  0  0  0
    7.2303   -0.5782  -18.8825 H   0  0  0  0  0  0  0  0  0  0  0  0
    5.1986    7.0308  -15.8432 H   0  0  0  0  0  0  0  0  0  0  0  0
    4.2100    8.0897  -16.9053 H   0  0  0  0  0  0  0  0  0  0  0  0
    6.8505    7.5896  -17.4188 H   0  0  0  0  0  0  0  0  0  0  0  0
    5.2976    4.4302  -16.7527 H   0  0  0  0  0  0  0  0  0  0  0  0
    8.4804   -5.0468  -13.4392 H   0  0  0  0  0  0  0  0  0  0  0  0
    6.7429   -5.3251  -13.7999 H   0  0  0  0  0  0  0  0  0  0  0  0
    8.0034   -5.9498  -14.9168 H   0  0  0  0  0  0  0  0  0  0  0  0
    1.9808   -2.7231  -18.2218 H   0  0  0  0  0  0  0  0  0  0  0  0
    3.1762   -2.4822  -19.5407 H   0  0  0  0  0  0  0  0  0  0  0  0
    3.0303   -4.0847  -18.7423 H   0  0  0  0  0  0  0  0  0  0  0  0
    4.7648   -4.6698  -19.1486 H   0  0  0  0  0  0  0  0  0  0  0  0
    6.5390   -4.6493  -18.8690 H   0  0  0  0  0  0  0  0  0  0  0  0
    5.4230   -5.0725  -17.5266 H   0  0  0  0  0  0  0  0  0  0  0  0
    8.5099   -0.3449  -14.4513 H   0  0  0  0  0  0  0  0  0  0  0  0
    8.1647    1.2231  -13.6458 H   0  0  0  0  0  0  0  0  0  0  0  0
    4.2008    2.5242  -20.9627 H   0  0  0  0  0  0  0  0  0  0  0  0
    3.6755    1.4575  -19.6162 H   0  0  0  0  0  0  0  0  0  0  0  0
    3.9812   -1.4881  -17.3983 H   0  0  0  0  0  0  0  0  0  0  0  0
    3.8354   -3.0907  -16.6000 H   0  0  0  0  0  0  0  0  0  0  0  0
    8.8762    2.4687  -15.6172 H   0  0  0  0  0  0  0  0  0  0  0  0
    9.4763    0.9712  -16.4072 H   0  0  0  0  0  0  0  0  0  0  0  0
    6.5782    1.3077  -15.5210 H   0  0  0  0  0  0  0  0  0  0  0  0
    3.4506    3.4455  -18.0203 H   0  0  0  0  0  0  0  0  0  0  0  0
    5.6808   -2.3477  -18.9176 H   0  0  0  0  0  0  0  0  0  0  0  0
    6.0847    3.3608  -19.5787 H   0  0  0  0  0  0  0  0  0  0  0  0
    6.0329   -4.4123  -16.0766 H   0  0  0  0  0  0  0  0  0  0  0  0
    5.0330    1.4658  -17.5049 H   0  0  0  0  0  0  0  0  0  0  0  0
    3.4245    5.6966  -16.4729 H   0  0  0  0  0  0  0  0  0  0  0  0
    3.3784    6.2435  -18.0109 H   0  0  0  0  0  0  0  0  0  0  0  0
    5.4245    8.8774  -18.7570 H   0  0  0  0  0  0  0  0  0  0  0  0
    3.2666    4.0090  -20.2812 H   0  0  0  0  0  0  0  0  0  0  0  0
  1  2  1  0  0  0  0
  1  3  2  0  0  0  0
  2  4  2  0  0  0  0
  3  5  1  0  0  0  0
  4  9  1  0  0  0  0
  5  9  2  0  0  0  0
  6 10  1  0  0  0  0
  6 11  2  0  0  0  0
  7 10  2  0  0  0  0
  7 12  1  0  0  0  0
  8 11  1  0  0  0  0
  8 12  2  0  0  0  0
  9 26  1  0  0  0  0
 10 27  1  0  0  0  0
 11 43  1  0  0  0  0
 12 44  1  0  0  0  0
 13 22  1  0  0  0  0
 13 34  1  0  0  0  0
 13 38  2  0  0  0  0
 14 23  1  0  0  0  0
 14 35  1  0  0  0  0
 14 39  2  0  0  0  0
 15 30  1  0  0  0  0
 15 36  1  0  0  0  0
 15 40  2  0  0  0  0
 16 18  1  0  0  0  0
 16 22  1  0  0  0  0
 17 20  1  0  0  0  0
 17 21  1  0  0  0  0
 18 34  1  0  0  0  0
 19 20  1  0  0  0  0
 19 37  1  0  0  0  0
 20 41  1  0  0  0  0
 21 31  1  0  0  0  0
 21 37  1  0  0  0  0
 22 32  1  0  0  0  0
 22 35  1  0  0  0  0
 24 28  1  0  0  0  0
 25 32  1  0  0  0  0
 26 29  1  0  0  0  0
 27 33  1  0  0  0  0
 28 32  1  0  0  0  0
 29 30  1  0  0  0  0
 30 34  1  0  0  0  0
 31 33  1  0  0  0  0
 31 42  1  0  0  0  0
 33 36  1  0  0  0  0
  1 45  1  0  0  0  0
  2 46  1  0  0  0  0
  3 47  1  0  0  0  0
  4 48  1  0  0  0  0
  5 49  1  0  0  0  0
  6 50  1  0  0  0  0
  7 51  1  0  0  0  0
  8 52  1  0  0  0  0
 16 53  1  0  0  0  0
 16 54  1  0  0  0  0
 17 55  1  0  0  0  0
 17 56  1  0  0  0  0
 18 57  1  0  0  0  0
 18 58  1  0  0  0  0
 19 59  1  0  0  0  0
 19 60  1  0  0  0  0
 20 61  1  0  0  0  0
 21 62  1  0  0  0  0
 23 63  1  0  0  0  0
 23 64  1  0  0  0  0
 23 65  1  0  0  0  0
 24 66  1  0  0  0  0
 24 67  1  0  0  0  0
 24 68  1  0  0  0  0
 25 69  1  0  0  0  0
 25 70  1  0  0  0  0
 25 71  1  0  0  0  0
 26 72  1  0  0  0  0
 26 73  1  0  0  0  0
 27 74  1  0  0  0  0
 27 75  1  0  0  0  0
 28 76  1  0  0  0  0
 28 77  1  0  0  0  0
 29 78  1  0  0  0  0
 29 79  1  0  0  0  0
 30 80  1  0  0  0  0
 31 81  1  0  0  0  0
 32 82  1  0  0  0  0
 33 83  1  0  0  0  0
 35 84  1  0  0  0  0
 36 85  1  0  0  0  0
 37 86  1  0  0  0  0
 37 87  1  0  0  0  0
 41 88  1  0  0  0  0
 42 89  1  0  0  0  0
M  CHG  1  37   1
M  END
> <OMEGA_C>
RsFOQWWEaz+J0lDBxj5AQbLD9z9x9krB9OdHQXSxHr5XtF3BMNAqQexo7z/tzVHB0HoyQVoBZb6w
gmTB8R/ZQCQvkj95R6jBQYKfQGfV877u66XBTj7kQPaTmL+SNa3ByNkjQS24Rj/sOV7Bch2vQF+q
Vj9o1KTBZLvzQKolAD6LUazBUvG5QIx2vr9WKqrBi6rKQLYRnL/R14HBauL1QAyAdMCVYnDBOq/f
QGQvBUCNxIvBjbf8QGAcE8Dm+43BY1PEQLQ3t0CtNpLBepr6QK9HTb8p6Y/BW5aZQIsw5UDm4IbB
J+a9QFBB5kDbD4/B/hieQA/XnkDDKo3B0ADTQGkvJMBCt4fBNGT3QNsJpMAl2WPBOc0+QI7JP8CM
tJTBgM6xQCEyjsBVWpPBDhkNQfsQNT9Z1GXBzFiRQJ7Y9j9Z06DB7mCBQOHbJMC2ZYzBZm0LQSJ/
sT8ZtHvBYxPqQFRtkT+ojoLBNgCIQL2OfEA8sJTBADavQIvqO8AGF5DBXGSnQNGgN0C8tpjBLRDm
QFtWhr4fRYbBptzWQJbAa8CZEYDB2jq2QFIiBEAcpo/BJZB+QKE8wECF94nBKTG1QD4Cib/Db3PB
tsoGQUp3OcAnRGvB9Rf7QNxkNEDslY/B92qxQG8Z/0D8JJjBZS1sQPtHlEDbop3B6gcOQbqT1T6i
cK/BIvaqQCERMMDXIavBtSdfQcY6dz+YbUvB5pJFQdHcMEBCOkHB1hhTQSTTbL8yWGLBfbwfQbD1
KUA2jk3BUj0tQWwrhb9fh27BJ87kQHAJCkCyz6fB319+QOOxNb/Wf6PBHsz4QA6y/L9zObDBRjD9
QJmsNsDjk5XBi4MMQehNJMB1N4nBdhDEQG+0s0Ar+JrBrMziQI4Xq0CtBI/BC3UNQTgsxL4n5ZDB
UF7nQL8HFL9uD5fBolqmQKn84ECWfX3BJLiGQFdvAUEiPofBfDfbQPzd8kCdWYvB5IWpQA/EjUB4
BYbBi68HQUV/ocDlBlfB0cXXQIRnqsCCzFzBEw4AQQ1lvsBSq27BPIr9PwxILsBSxpHBJ0ZLQGHc
HsBaU5zBQPFBQPO1gsBT8JXBB3mYQKRulcA/MJnBRz/RQLvGlMCl85bBG4mtQChSosBgNozBkygI
QSuYsL65OGfBhKICQS6NnD8UVVrBy2yGQNWLIUCIs6fBHztrQLaPuj/17ZzBkct+QGJ7vr/HL4vB
qnZ1QDfNRcDAzITBxAQOQeb+HUDf33nBEp8XQbSieD/cQYPBRIDSQHZipz8RVnjBJ9ZcQIeCXEB8
KZDBf8m1QHFBFsBDV5fB0bXCQPMWV0AcoZzBmA3BQEAxjcDHnIDBkg6hQMeduz8CCozBeSpbQCZK
tkB9yIPBUjdYQN7Kx0BEFpDBS5WtQL8JDkFJDpbB7A9RQJFJgED/P6LBo3NOQfJFfT8R/k/B8fJH
QRRJ7b1sZFzB3a4/QUlNAEAazkrBLaIyQbGyWL7Nd2PBCVUqQZY19D9bzVHB1TefQNb58r60uqXB
6yLZQLEGkT+LG6jBq9TjQBdOmr/e/KzBDrsjQfCAST9bz13BJBGvQE5/Vj9ap6TBOH65QKgiv79J
7anB8Y3zQKAT4D0nIazB0cPJQFx6nL+mtoHBhij1QDLfcsBK+m/Byn/fQFqSBECYnovBk+36QDUE
E8AYLY7BG3HEQLRJt0DAAZLBpC/5QCcKTL8C2o/B/R2ZQE7P5UCc+IbBkpq9QNyE5kBiG4/Bx8+d
QJIon0CTFI3BQ9bRQJNdJMBDo4fBkFf4QL7Bo8C/9WPBekE7QLRRQsD8MJTBr0SxQNYWjsAuZJPB
7Q0NQTDrLz9cl2XBBHGRQBRk9z/1q6DBeTF/QI/wKcBUwIvBmj8LQU4QsD9fYnvBmaTpQGFkkD/Q
XYLBpP+HQH1vfUDMrJTBEW6tQCaOPMDdz4/BbmunQLMVOEBvkJjB0Y/lQMOxir5QD4bBFGzWQOm2
a8DW83/BVdy1QGRSBUAFY4/BJNl9QD6swEB//InByfyzQB/1iL8ASXPBByEIQZqMO8Cv4GzBM337
QMHoMEAntY/Box2xQMR0/kCeV5jBK5RtQNjLlEBTsp3BuEyqQIlIMMC61qrBTfwNQQ6CyD4kPa/B
U8heQbJ8hz8ddErBw1FTQQtvY78FdWDBNsBEQdHPNkBwd0HBh7AtQYwshr+nNm3BJwkfQVsiLEC0
/E3B5aJ9QP9oM78eVKPBQQLlQKNTCUBhqKfBTjz4QO3//r+6/a/Bi076QBZXNcCZ25XBA9gLQdiW
JcAYqonBaAXFQPAls0CcvprBXKLiQMh7q0D1k47BMckMQYJIxr6a65DBloblQCLfDL8K4ZbBGbWl
QK4D4kDUnX3BODmGQEW5AUFpc4fBj73aQCSt80CmbIvBSsOoQBwJjkBL5YXB9U0KQQ5Do8B+eVnB
YGHbQLNmqMDeOlrBP1P7QEMpvsC3gG/Bcwv2P6NGNMDfC5HBRB1GQGEKHcAqiJvB7D5AQDKCg8C+
ApbBSYKXQOujlcB3FZnBX3jQQBU8k8CbQZfB9oiuQOsFo8CJWYzBzIsIQTxAvr4YKWfB9E8CQYAS
lz+zGFrBpp+GQKm7IUCqkKfBn0drQLyQuz9+x5zBGoZ5QDKHyr8t84nBwqdzQJw9T8DBbYTBR9QN
QSs9HUC9cnnB5mUXQTQwdz9FJoPBZhTSQKcQpz8I+HfBbhBcQI3AXUAJP5DBAYCyQFAKFcDe+5bB
j+rCQM0dV0CHdJzBL1bBQNvMjcBwmIDBR0egQC7wwT8CnYvBoFRaQEn0tkBqyoPBl6BXQB7zx0DH
I5DBMQOtQDnKDUF7a5bBg8tSQKjegEDNW6LB9cNOQRREdj9Vb1DB3gZIQVTuFb6solzBHzFAQfnC
/j+tWkvBR6syQacEbr5DnmPBX88qQUXR8z/dS1LBxx/ZQII3kT9OWqjBsjyfQHH08r6e+6XBqfDj
QEcdmr/XMq3Bt/kjQd4cSD/6HV7BBwyvQAyMVj+86aTB95nzQNQE5T1jW6zBE5a5QJIQv78BJ6rB
Xq/KQCgbnL+RxYHBSuj1QO3MdMDLkHDB1pjfQB2GBUCVr4vBsFb8QFgiEsCAGI7BAljEQP1bt0Dc
VZLBrwb6QNCASb9J8I/B8aOZQDkb5UCW7obBzcq9QAlY5kDCKY/B22OeQP7EnkA1OY3BOuLSQIHq
I8CTvYfBq5v3QOsypMBrBWTBGJs9QFx/Q8AsMpTBqXKzQMLBjMDjAZTBUkYNQQTNMT/m22XBKXeR
QGdD9z/b5qDBAuCAQE+dK8DBxIvBsXwLQQAJsT+QpnvBQArqQK+7kT/Qe4LBzjyIQLtkfEDPuJTB
MMCuQDIQO8BxA5DB6ZanQCZpN0DywJjBg+DlQO3qg74VOYbBkQnXQMI8bMDMNIDBjVa2QMiQA0CM
s4/B5vN+QKH6v0A494nBeIC1QKvRib8pL3PBrNQGQULIOcD6gWvBZNH6QErONUCpX4/BVx6xQDIp
/0DQO5jBHpBsQHc5lECuqZ3BMgAOQUfWyj7kd6/BWWuqQBE9MMD/D6vBxyBfQfEDgz+o90rB/j9T
QSHQbb+anmDBhG5FQQz4NUDZI0LB04gtQeZfib/KK23B+qofQdKbLEAIlU7B5vPkQHp0CUCp56fB
gKN9QPOEM7+emaPBzGb4QDnP/r9/LbDBBpX8QItINcBbuJXBym0MQchjI8AEaYnBEtbDQC7gs0Bd
F5vBtPjiQB5fq0A9M4/BGiENQVDgur4P/ZDBCHfmQOQvD78rBpfB3ZmmQM4J4UCYoH3BApeGQAJW
AUHqSIfBjCHbQGYK80DXeovBuxiqQHW0jUDXGobBfd8HQfOgocCQRlfBcxXYQFmWqsA231zBVRsA
QfyNvsB13W7BzsH6P/W2N8BG6JDBwuVGQNA3HMDsZ5vBW/xDQHrLg8CYSJbBxdWZQM73k8CyxJnB
6r3SQNjNkMBD6JfBNBSxQFu0osAoJ43B3J0IQa88ub51aWfBOaECQeTGmD/6VlrBp7mGQDYKIkBF
xafBwjZrQKpyuz/ECJ3Bmqh6QI0dz7/rsonBM793QOvtUsCXk4TBmh0OQfmyHUDJuHnBYpsXQXeT
eD/qSYPBPpbSQMPIpz+9InjBulhdQMpnXEC3LpDBvkKzQBI8EcBYAJfBYPfCQOXVVkDupZzBc53B
QLW9jcDw3oDBW0ShQBaouD+QNYzBTxJcQF/utUAXv4PBqCBYQIJnx0BtDJDBWTOtQD0PDkFzI5bB
OlhRQPg+gEB0RaLB

> <OMEGA_E>
KKirPrAirD7YSKs+

> <OMEGA_NBR>
     26734

$$$$
50197361
  -OEChem-04172616093D

 98102  0     1  0  0  0  0  0999 V2000
   12.9620    0.9081  -13.1297 C   0  0  0  0  0  0  0  0  0  0  0  0
   12.4948   -0.2013  -13.8635 C   0  0  0  0  0  0  0  0  0  0  0  0
   12.0940    1.9800  -12.8373 C   0  0  0  0  0  0  0  0  0  0  0  0
    7.3984    8.8407  -21.4436 C   0  0  0  0  0  0  0  0  0  0  0  0
   11.1566   -0.2443  -14.2960 C   0  0  0  0  0  0  0  0  0  0  0  0
   10.7540    1.9372  -13.2663 C   0  0  0  0  0  0  0  0  0  0  0  0
    6.9545    8.4213  -20.1830 C   0  0  0  0  0  0  0  0  0  0  0  0
    6.8049    1.0267  -21.1337 C   0  0  0  0  0  0  0  0  0  0  0  0
    4.9247   -0.4870  -20.7794 C   0  0  0  0  0  0  0  0  0  0  0  0
    7.0388   -1.3476  -21.6410 C   0  0  0  0  0  0  0  0  0  0  0  0
    6.4677    9.3538  -22.3693 C   0  0  0  0  0  0  0  0  0  0  0  0
    4.7068    9.0619  -20.8547 C   0  0  0  0  0  0  0  0  0  0  0  0
   10.2801    0.8137  -13.9754 C   0  0  0  0  0  0  0  0  0  0  0  0
    5.4755    0.8075  -20.7057 C   0  0  0  0  0  0  0  0  0  0  0  0
    5.5726    8.4986  -19.8935 C   0  0  0  0  0  0  0  0  0  0  0  0
    7.5874   -0.0520  -21.5851 C   0  0  0  0  0  0  0  0  0  0  0  0
    5.7025   -1.5615  -21.2549 C   0  0  0  0  0  0  0  0  0  0  0  0
    6.2581   -1.0997  -16.2262 C   0  0  0  0  0  0  0  0  0  0  0  0
    7.4495   -3.6829  -14.8832 C   0  0  0  0  0  0  0  0  0  0  0  0
    7.0627    2.1078  -17.6033 C   0  0  0  0  0  0  0  0  0  0  0  0
    7.7502   -2.3167  -17.7144 C   0  0  0  0  0  0  0  0  0  0  0  0
    6.1513    5.8258  -18.4038 C   0  0  0  0  0  0  0  0  0  0  0  0
    7.7635   -0.8274  -18.0051 C   0  0  0  0  0  0  0  0  0  0  0  0
    4.9430    6.9309  -16.6501 C   0  0  0  0  0  0  0  0  0  0  0  0
    5.8301    7.2293  -17.8413 C   0  0  2  0  0  0  0  0  0  0  0  0
    5.0885    4.9035  -17.7577 C   0  0  2  0  0  0  0  0  0  0  0  0
    6.4440   -2.4860  -16.9090 C   0  0  2  0  0  0  0  0  0  0  0  0
    7.5178   -5.0027  -14.1233 C   0  0  0  0  0  0  0  0  0  0  0  0
    2.7964   -2.7878  -18.4859 C   0  0  0  0  0  0  0  0  0  0  0  0
    5.2879   -4.3660  -18.2699 C   0  0  0  0  0  0  0  0  0  0  0  0
    8.8573    0.7700  -14.4532 C   0  0  0  0  0  0  0  0  0  0  0  0
    4.6021    1.9626  -20.2597 C   0  0  0  0  0  0  0  0  0  0  0  0
    3.8888   -2.3810  -17.4741 C   0  0  0  0  0  0  0  0  0  0  0  0
    8.7712    1.4092  -15.8419 C   0  0  0  0  0  0  0  0  0  0  0  0
    7.3576    1.1985  -16.4131 C   0  0  2  0  0  0  0  0  0  0  0  0
    4.3613    3.9587  -18.7325 C   0  0  2  0  0  0  0  0  0  0  0  0
    5.2948   -2.8397  -17.9292 C   0  0  1  0  0  0  0  0  0  0  0  0
    5.3236    2.8832  -19.2550 C   0  0  1  0  0  0  0  0  0  0  0  0
    5.1552    9.4740  -22.0619 N   0  0  0  0  0  0  0  0  0  0  0  0
    7.1655   -0.2126  -16.8139 N   0  0  0  0  0  0  0  0  0  0  0  0
    6.5211   -3.5713  -15.9104 N   0  0  0  0  0  0  0  0  0  0  0  0
    5.7818    2.0677  -18.1247 N   0  0  0  0  0  0  0  0  0  0  0  0
    4.1249    5.8063  -17.1121 N   0  3  0  0  0  0  0  0  0  0  0  0
    5.5872   -0.8729  -15.2249 O   0  0  0  0  0  0  0  0  0  0  0  0
    8.2965   -2.8232  -14.6710 O   0  0  0  0  0  0  0  0  0  0  0  0
    7.9193    2.8574  -18.0619 O   0  0  0  0  0  0  0  0  0  0  0  0
    3.8111    4.6958  -19.8246 O   0  0  0  0  0  0  0  0  0  0  0  0
    5.0041    8.0215  -18.7300 O   0  0  0  0  0  0  0  0  0  0  0  0
    8.8639    0.1588  -21.9747 F   0  0  0  0  0  0  0  0  0  0  0  0
    5.1732   -2.8045  -21.3175 F   0  0  0  0  0  0  0  0  0  0  0  0
   13.9870    0.9369  -12.7907 H   0  0  0  0  0  0  0  0  0  0  0  0
   13.1636   -1.0175  -14.0936 H   0  0  0  0  0  0  0  0  0  0  0  0
   12.4571    2.8337  -12.2843 H   0  0  0  0  0  0  0  0  0  0  0  0
    8.4443    8.7714  -21.7039 H   0  0  0  0  0  0  0  0  0  0  0  0
   10.8010   -1.0856  -14.8723 H   0  0  0  0  0  0  0  0  0  0  0  0
   10.0905    2.7622  -13.0530 H   0  0  0  0  0  0  0  0  0  0  0  0
    7.6523    8.0473  -19.4485 H   0  0  0  0  0  0  0  0  0  0  0  0
    7.2203    2.0234  -21.1142 H   0  0  0  0  0  0  0  0  0  0  0  0
    3.9037   -0.6563  -20.4707 H   0  0  0  0  0  0  0  0  0  0  0  0
    7.6428   -2.1763  -21.9797 H   0  0  0  0  0  0  0  0  0  0  0  0
    6.8101    9.6583  -23.3473 H   0  0  0  0  0  0  0  0  0  0  0  0
    3.6578    9.1667  -20.6199 H   0  0  0  0  0  0  0  0  0  0  0  0
    7.7230   -2.9035  -18.6445 H   0  0  0  0  0  0  0  0  0  0  0  0
    8.6261   -2.6138  -17.1189 H   0  0  0  0  0  0  0  0  0  0  0  0
    6.0619    5.8154  -19.5001 H   0  0  0  0  0  0  0  0  0  0  0  0
    7.1658    5.5131  -18.1157 H   0  0  0  0  0  0  0  0  0  0  0  0
    8.7933   -0.4694  -18.1515 H   0  0  0  0  0  0  0  0  0  0  0  0
    7.1659   -0.6010  -18.9005 H   0  0  0  0  0  0  0  0  0  0  0  0
    5.5432    6.6474  -15.7730 H   0  0  0  0  0  0  0  0  0  0  0  0
    4.3147    7.7984  -16.3996 H   0  0  0  0  0  0  0  0  0  0  0  0
    6.7485    7.7539  -17.5391 H   0  0  0  0  0  0  0  0  0  0  0  0
    5.5844    4.2928  -16.9890 H   0  0  0  0  0  0  0  0  0  0  0  0
    8.3827   -4.9908  -13.4437 H   0  0  0  0  0  0  0  0  0  0  0  0
    6.5951   -5.1380  -13.5400 H   0  0  0  0  0  0  0  0  0  0  0  0
    7.6247   -5.8320  -14.8381 H   0  0  0  0  0  0  0  0  0  0  0  0
    1.8157   -2.4438  -18.1255 H   0  0  0  0  0  0  0  0  0  0  0  0
    3.0106   -2.3271  -19.4616 H   0  0  0  0  0  0  0  0  0  0  0  0
    2.7845   -3.8826  -18.5921 H   0  0  0  0  0  0  0  0  0  0  0  0
    4.4771   -4.5797  -18.9819 H   0  0  0  0  0  0  0  0  0  0  0  0
    6.2526   -4.6459  -18.7182 H   0  0  0  0  0  0  0  0  0  0  0  0
    5.1294   -4.9464  -17.3490 H   0  0  0  0  0  0  0  0  0  0  0  0
    8.5198   -0.2755  -14.5081 H   0  0  0  0  0  0  0  0  0  0  0  0
    8.2169    1.3257  -13.7523 H   0  0  0  0  0  0  0  0  0  0  0  0
    4.3191    2.5545  -21.1427 H   0  0  0  0  0  0  0  0  0  0  0  0
    3.6966    1.5589  -19.7833 H   0  0  0  0  0  0  0  0  0  0  0  0
    3.8880   -1.2858  -17.3707 H   0  0  0  0  0  0  0  0  0  0  0  0
    3.6619   -2.8413  -16.5012 H   0  0  0  0  0  0  0  0  0  0  0  0
    8.9790    2.4866  -15.7638 H   0  0  0  0  0  0  0  0  0  0  0  0
    9.5102    0.9406  -16.5083 H   0  0  0  0  0  0  0  0  0  0  0  0
    6.6355    1.4370  -15.6182 H   0  0  0  0  0  0  0  0  0  0  0  0
    3.5521    3.4565  -18.1819 H   0  0  0  0  0  0  0  0  0  0  0  0
    5.5232   -2.3045  -18.8627 H   0  0  0  0  0  0  0  0  0  0  0  0
    6.1785    3.3659  -19.7511 H   0  0  0  0  0  0  0  0  0  0  0  0
    5.8374   -4.2977  -15.9808 H   0  0  0  0  0  0  0  0  0  0  0  0
    5.1252    1.4419  -17.7036 H   0  0  0  0  0  0  0  0  0  0  0  0
    3.6759    5.3538  -16.3416 H   0  0  0  0  0  0  0  0  0  0  0  0
    3.4343    6.1148  -17.7661 H   0  0  0  0  0  0  0  0  0  0  0  0
    3.3663    4.1007  -20.4167 H   0  0  0  0  0  0  0  0  0  0  0  0
  1  2  1  0  0  0  0
  1  3  2  0  0  0  0
  2  5  2  0  0  0  0
  3  6  1  0  0  0  0
  4  7  2  0  0  0  0
  4 11  1  0  0  0  0
  5 13  1  0  0  0  0
  6 13  2  0  0  0  0
  7 15  1  0  0  0  0
  8 14  1  0  0  0  0
  8 16  2  0  0  0  0
  9 14  2  0  0  0  0
  9 17  1  0  0  0  0
 10 16  1  0  0  0  0
 10 17  2  0  0  0  0
 11 39  2  0  0  0  0
 12 15  2  0  0  0  0
 12 39  1  0  0  0  0
 13 31  1  0  0  0  0
 14 32  1  0  0  0  0
 15 48  1  0  0  0  0
 16 49  1  0  0  0  0
 17 50  1  0  0  0  0
 18 27  1  0  0  0  0
 18 40  1  0  0  0  0
 18 44  2  0  0  0  0
 19 28  1  0  0  0  0
 19 41  1  0  0  0  0
 19 45  2  0  0  0  0
 20 35  1  0  0  0  0
 20 42  1  0  0  0  0
 20 46  2  0  0  0  0
 21 23  1  0  0  0  0
 21 27  1  0  0  0  0
 22 25  1  0  0  0  0
 22 26  1  0  0  0  0
 23 40  1  0  0  0  0
 24 25  1  0  0  0  0
 24 43  1  0  0  0  0
 25 48  1  0  0  0  0
 26 36  1  0  0  0  0
 26 43  1  0  0  0  0
 27 37  1  0  0  0  0
 27 41  1  0  0  0  0
 29 33  1  0  0  0  0
 30 37  1  0  0  0  0
 31 34  1  0  0  0  0
 32 38  1  0  0  0  0
 33 37  1  0  0  0  0
 34 35  1  0  0  0  0
 35 40  1  0  0  0  0
 36 38  1  0  0  0  0
 36 47  1  0  0  0  0
 38 42  1  0  0  0  0
  1 51  1  0  0  0  0
  2 52  1  0  0  0  0
  3 53  1  0  0  0  0
  4 54  1  0  0  0  0
  5 55  1  0  0  0  0
  6 56  1  0  0  0  0
  7 57  1  0  0  0  0
  8 58  1  0  0  0  0
  9 59  1  0  0  0  0
 10 60  1  0  0  0  0
 11 61  1  0  0  0  0
 12 62  1  0  0  0  0
 21 63  1  0  0  0  0
 21 64  1  0  0  0  0
 22 65  1  0  0  0  0
 22 66  1  0  0  0  0
 23 67  1  0  0  0  0
 23 68  1  0  0  0  0
 24 69  1  0  0  0  0
 24 70  1  0  0  0  0
 25 71  1  0  0  0  0
 26 72  1  0  0  0  0
 28 73  1  0  0  0  0
 28 74  1  0  0  0  0
 28 75  1  0  0  0  0
 29 76  1  0  0  0  0
 29 77  1  0  0  0  0
 29 78  1  0  0  0  0
 30 79  1  0  0  0  0
 30 80  1  0  0  0  0
 30 81  1  0  0  0  0
 31 82  1  0  0  0  0
 31 83  1  0  0  0  0
 32 84  1  0  0  0  0
 32 85  1  0  0  0  0
 33 86  1  0  0  0  0
 33 87  1  0  0  0  0
 34 88  1  0  0  0  0
 34 89  1  0  0  0  0
 35 90  1  0  0  0  0
 36 91  1  0  0  0  0
 37 92  1  0  0  0  0
 38 93  1  0  0  0  0
 41 94  1  0  0  0  0
 42 95  1  0  0  0  0
 43 96  1  0  0  0  0
 43 97  1  0  0  0  0
 47 98  1  0  0  0  0
M  CHG  1  43   1
M  END
> <OMEGA_C>
VmRPQcB4aD8qE1LBxupHQTgaTr7y0F3B+4BBQfhw/T9+ZU3B/r/sQFFzDUGVjKvBa4EyQegder5E
vGTBRhAsQdj09z+oQlTBpoveQNO9BkHgdqHBY8HZQGhqgz/cEanB3padQOhb+b5APKbBmT3hQJt+
rL+4IK3BnffOQP6oFUFP9LLB852WQIX9EEFp1qbBc3skQUxOUD8pm1/BJTevQCG1Tj9VpaXBJFOy
QBX6B0HoJZ/BWszyQJAZVb1PrqzBf3q2QE/ex78MCqrBt0LIQJ/DjL8sz4HB+GHuQCi1a8BrIW7B
8gHiQODlBkCW04zBfQH4QHxFFMAQt43BQdfEQB5tukAJO5PBfm74QDjNU79xCpDB7SyeQPDJ3UBb
M4XBHpC6QAdW50Dquo7BvNSiQNjpnEDcD47B7DTOQNgZH8CURYfBxZHwQF4WoMA8+WHBkfgyQLZq
MsAi45PBczapQEO2i8C2KJLBVbcNQfkhRT8sQGfBq0STQIs2+z/ZE6LBxOJ4QKxhGMDxyovBtlYM
QcZgtD8+eH3BIXHrQIxpmT/5TYPBi4+LQJhbfUAW3JXB+W6pQG6+NcAYb4/BLFuqQDqGOEBJCprB
LPekQIqVF0HYfrDB8EvlQJi/Wb7kgobBt6zQQPKQZMAykX7BLAS5QFBVBEB7/5DBlv+DQOHMuUCU
5YjBTMqyQPB1X787mXPBXL4EQVavNMA/vGrBAmv9QEDfNkCxfpDBGOlzQJtDlkDUmJ7B4CGgQCxY
AEEj15XBXdINQRCbIj4qzK/B/IqlQKh8M8BCiqrB28pfQYPbbz/ZpkzBDJ5SQV09gr8+f2HBRlBH
QXpbNUCejETB7BsHQahXDEGboa3BC9EsQfX0ir/E9G3BtnIhQWnIMEBH2VDB4t/0QOTBAEFxlpvB
pAznQE5/AUDh6ajB09V5QEAGKL/8w6PB7JH0QPhIC8CE1q/BZuzZQEyIGkE2x7rBJhpqQN+qEkF3
9aTB1yL3QEvSOcDWJ5XBfgQKQfVHJ8Ca84jBrfrBQOIXukBHAJzBA07lQG5rsED57JDBNLEMQbVS
8L4xNpHB9k7lQIzdGb8gNJfBImKxQGi31EAPXnzBPhKKQG2M+UBTMoPBfPPXQE4g+EAsUIzBk7Oy
QE5eiUB26YfBVh8GQbW0n8CFGVfB2ArTQNpqpMDno1jBXP3zQP6fusDDaG3BH2noP7JmHMAXAZHB
8a1AQOjuFMBEsZvBlDUyQO97eMCKvJTBNESPQIqMksDa2pfBUxXIQNOqlMDyvpXBaCSkQKpInsC0
yorB/VAIQfAIjb4WIWjBZHgDQW+xqT+aCVzBcDaKQCF8I0ArJKnBnpRsQOKIxz8vRJ7BqtV4QEKW
pL8c94rBTF1qQCjYNcBiAoTB4akPQQkkH0CiOHzB2SkYQVTIcD8MEYTBK1bUQFrutz8v5HnBMFZj
QLc3XUCQdJHBab6wQEp9E8DR5pbBabbFQF1rV0BWAp7BKMy6QCOHicBjsX/BxQGkQOqQuD8FoY3B
hUFrQJFSq0Cju4LB6MpbQFesw0AJIY7B/nBXQPg4g0BiVaPB

> <OMEGA_E>
kI/SPg==

> <OMEGA_NBR>
     28661

$$$$
50197381
  -OEChem-04172616093D

 78 80  0     1  0  0  0  0  0999 V2000
    6.7117    1.1142  -21.1324 C   0  0  0  0  0  0  0  0  0  0  0  0
    4.8246   -0.4054  -20.8474 C   0  0  0  0  0  0  0  0  0  0  0  0
    6.9112   -1.2203  -21.8072 C   0  0  0  0  0  0  0  0  0  0  0  0
    5.4002    0.8686  -20.6717 C   0  0  0  0  0  0  0  0  0  0  0  0
    7.4680    0.0671  -21.6874 C   0  0  0  0  0  0  0  0  0  0  0  0
    5.5834   -1.4513  -21.4050 C   0  0  0  0  0  0  0  0  0  0  0  0
    6.3585   -1.1398  -16.0434 C   0  0  0  0  0  0  0  0  0  0  0  0
    7.0440    2.1214  -17.3752 C   0  0  0  0  0  0  0  0  0  0  0  0
    7.5869   -2.2359  -17.7615 C   0  0  0  0  0  0  0  0  0  0  0  0
    6.1423    5.7666  -18.2789 C   0  0  0  0  0  0  0  0  0  0  0  0
    7.8480   -0.7462  -17.8405 C   0  0  0  0  0  0  0  0  0  0  0  0
    4.7754    7.1310  -16.8178 C   0  0  0  0  0  0  0  0  0  0  0  0
    6.2416   -2.2830  -17.0493 C   0  0  2  0  0  0  0  0  0  0  0  0
    5.9096    7.2178  -17.8298 C   0  0  2  0  0  0  0  0  0  0  0  0
    4.9702    4.9724  -17.6597 C   0  0  2  0  0  0  0  0  0  0  0  0
    4.5247   -4.8612  -18.4943 C   0  0  0  0  0  0  0  0  0  0  0  0
    4.9903    9.5708  -21.4405 C   0  0  0  0  0  0  0  0  0  0  0  0
    8.7626    1.4196  -15.5618 C   0  0  0  0  0  0  0  0  0  0  0  0
    4.5550    1.9838  -20.1142 C   0  0  0  0  0  0  0  0  0  0  0  0
    5.0985   -1.9327  -18.0316 C   0  0  0  0  0  0  0  0  0  0  0  0
    3.4360   -3.7713  -18.5744 C   0  0  0  0  0  0  0  0  0  0  0  0
    6.1946    8.6478  -21.1980 C   0  0  0  0  0  0  0  0  0  0  0  0
    3.7466   -2.5615  -17.6672 C   0  0  0  0  0  0  0  0  0  0  0  0
    6.5642    8.5858  -19.7097 C   0  0  0  0  0  0  0  0  0  0  0  0
    7.3643    1.1929  -16.1743 C   0  0  2  0  0  0  0  0  0  0  0  0
    4.3091    3.9609  -18.6069 C   0  0  2  0  0  0  0  0  0  0  0  0
    5.3016    2.8807  -19.0919 C   0  0  1  0  0  0  0  0  0  0  0  0
    7.2552   -0.2116  -16.5954 N   0  0  0  0  0  0  0  0  0  0  0  0
    5.7665    2.0631  -17.9428 N   0  0  0  0  0  0  0  0  0  0  0  0
    3.9786    5.9859  -17.2585 N   0  3  0  0  0  0  0  0  0  0  0  0
    5.6363   -0.9731  -15.0679 O   0  0  0  0  0  0  0  0  0  0  0  0
    7.9108    2.8542  -17.8399 O   0  0  0  0  0  0  0  0  0  0  0  0
    3.7523    4.6605  -19.7253 O   0  0  0  0  0  0  0  0  0  0  0  0
    5.4782    8.0196  -18.9459 O   0  0  0  0  0  0  0  0  0  0  0  0
    8.7269    0.3018  -22.1170 F   0  0  0  0  0  0  0  0  0  0  0  0
    5.0478   -2.6876  -21.5187 F   0  0  0  0  0  0  0  0  0  0  0  0
    7.1337    2.1056  -21.0585 H   0  0  0  0  0  0  0  0  0  0  0  0
    3.7999   -0.5795  -20.5539 H   0  0  0  0  0  0  0  0  0  0  0  0
    7.5032   -2.0300  -22.2076 H   0  0  0  0  0  0  0  0  0  0  0  0
    7.5246   -2.6846  -18.7639 H   0  0  0  0  0  0  0  0  0  0  0  0
    8.3663   -2.7481  -17.1783 H   0  0  0  0  0  0  0  0  0  0  0  0
    6.1245    5.6924  -19.3763 H   0  0  0  0  0  0  0  0  0  0  0  0
    7.1059    5.3935  -17.9018 H   0  0  0  0  0  0  0  0  0  0  0  0
    8.9279   -0.5402  -17.8791 H   0  0  0  0  0  0  0  0  0  0  0  0
    7.3598   -0.3101  -18.7245 H   0  0  0  0  0  0  0  0  0  0  0  0
    5.1700    6.9634  -15.8048 H   0  0  0  0  0  0  0  0  0  0  0  0
    4.1730    8.0513  -16.8290 H   0  0  0  0  0  0  0  0  0  0  0  0
    6.0700   -3.2505  -16.5547 H   0  0  0  0  0  0  0  0  0  0  0  0
    6.8174    7.6244  -17.3602 H   0  0  0  0  0  0  0  0  0  0  0  0
    5.3359    4.4394  -16.7696 H   0  0  0  0  0  0  0  0  0  0  0  0
    4.2564   -5.6975  -19.1565 H   0  0  0  0  0  0  0  0  0  0  0  0
    5.4901   -4.4388  -18.8099 H   0  0  0  0  0  0  0  0  0  0  0  0
    4.6043   -5.2243  -17.4590 H   0  0  0  0  0  0  0  0  0  0  0  0
    4.7538    9.5913  -22.5146 H   0  0  0  0  0  0  0  0  0  0  0  0
    4.1214    9.1941  -20.8810 H   0  0  0  0  0  0  0  0  0  0  0  0
    5.2334   10.5878  -21.0992 H   0  0  0  0  0  0  0  0  0  0  0  0
    8.9117    0.7266  -14.7207 H   0  0  0  0  0  0  0  0  0  0  0  0
    9.5317    1.2381  -16.3271 H   0  0  0  0  0  0  0  0  0  0  0  0
    8.8413    2.4559  -15.2014 H   0  0  0  0  0  0  0  0  0  0  0  0
    4.2184    2.6154  -20.9496 H   0  0  0  0  0  0  0  0  0  0  0  0
    3.6811    1.5407  -19.6143 H   0  0  0  0  0  0  0  0  0  0  0  0
    4.9784   -0.8394  -18.0466 H   0  0  0  0  0  0  0  0  0  0  0  0
    5.3843   -2.2841  -19.0340 H   0  0  0  0  0  0  0  0  0  0  0  0
    3.3611   -3.4226  -19.6150 H   0  0  0  0  0  0  0  0  0  0  0  0
    2.4753   -4.2081  -18.2640 H   0  0  0  0  0  0  0  0  0  0  0  0
    5.9448    7.6349  -21.5468 H   0  0  0  0  0  0  0  0  0  0  0  0
    7.0569    9.0286  -21.7650 H   0  0  0  0  0  0  0  0  0  0  0  0
    3.7762   -2.8958  -16.6197 H   0  0  0  0  0  0  0  0  0  0  0  0
    2.9549   -1.8077  -17.7894 H   0  0  0  0  0  0  0  0  0  0  0  0
    7.4605    7.9605  -19.5843 H   0  0  0  0  0  0  0  0  0  0  0  0
    6.7726    9.6025  -19.3451 H   0  0  0  0  0  0  0  0  0  0  0  0
    6.6169    1.3871  -15.3909 H   0  0  0  0  0  0  0  0  0  0  0  0
    3.5028    3.4554  -18.0552 H   0  0  0  0  0  0  0  0  0  0  0  0
    6.1567    3.3643  -19.5867 H   0  0  0  0  0  0  0  0  0  0  0  0
    5.1143    1.4192  -17.5427 H   0  0  0  0  0  0  0  0  0  0  0  0
    3.4081    5.6448  -16.5113 H   0  0  0  0  0  0  0  0  0  0  0  0
    3.3981    6.2373  -18.0330 H   0  0  0  0  0  0  0  0  0  0  0  0
    3.3416    4.0395  -20.3153 H   0  0  0  0  0  0  0  0  0  0  0  0
  1  4  1  0  0  0  0
  1  5  2  0  0  0  0
  2  4  2  0  0  0  0
  2  6  1  0  0  0  0
  3  5  1  0  0  0  0
  3  6  2  0  0  0  0
  4 19  1  0  0  0  0
  5 35  1  0  0  0  0
  6 36  1  0  0  0  0
  7 13  1  0  0  0  0
  7 28  1  0  0  0  0
  7 31  2  0  0  0  0
  8 25  1  0  0  0  0
  8 29  1  0  0  0  0
  8 32  2  0  0  0  0
  9 11  1  0  0  0  0
  9 13  1  0  0  0  0
 10 14  1  0  0  0  0
 10 15  1  0  0  0  0
 11 28  1  0  0  0  0
 12 14  1  0  0  0  0
 12 30  1  0  0  0  0
 13 20  1  0  0  0  0
 14 34  1  0  0  0  0
 15 26  1  0  0  0  0
 15 30  1  0  0  0  0
 16 21  1  0  0  0  0
 17 22  1  0  0  0  0
 18 25  1  0  0  0  0
 19 27  1  0  0  0  0
 20 23  1  0  0  0  0
 21 23  1  0  0  0  0
 22 24  1  0  0  0  0
 24 34  1  0  0  0  0
 25 28  1  0  0  0  0
 26 27  1  0  0  0  0
 26 33  1  0  0  0  0
 27 29  1  0  0  0  0
  1 37  1  0  0  0  0
  2 38  1  0  0  0  0
  3 39  1  0  0  0  0
  9 40  1  0  0  0  0
  9 41  1  0  0  0  0
 10 42  1  0  0  0  0
 10 43  1  0  0  0  0
 11 44  1  0  0  0  0
 11 45  1  0  0  0  0
 12 46  1  0  0  0  0
 12 47  1  0  0  0  0
 13 48  1  0  0  0  0
 14 49  1  0  0  0  0
 15 50  1  0  0  0  0
 16 51  1  0  0  0  0
 16 52  1  0  0  0  0
 16 53  1  0  0  0  0
 17 54  1  0  0  0  0
 17 55  1  0  0  0  0
 17 56  1  0  0  0  0
 18 57  1  0  0  0  0
 18 58  1  0  0  0  0
 18 59  1  0  0  0  0
 19 60  1  0  0  0  0
 19 61  1  0  0  0  0
 20 62  1  0  0  0  0
 20 63  1  0  0  0  0
 21 64  1  0  0  0  0
 21 65  1  0  0  0  0
 22 66  1  0  0  0  0
 22 67  1  0  0  0  0
 23 68  1  0  0  0  0
 23 69  1  0  0  0  0
 24 70  1  0  0  0  0
 24 71  1  0  0  0  0
 25 72  1  0  0  0  0
 26 73  1  0  0  0  0
 27 74  1  0  0  0  0
 29 75  1  0  0  0  0
 30 76  1  0  0  0  0
 30 77  1  0  0  0  0
 33 78  1  0  0  0  0
M  CHG  1  30   1
M  END
> <OMEGA_C>
PMbWQESejj8TD6nBHGOaQIGUz76Fx6bB4yjdQBg0nL8Rda7BIM6sQI5ZXj+8X6XBCPruQEBqiT20
f63BOauyQKfDub9uPavBM3nLQNzkkb/ZWIDBP2jhQIjEB0BaAIvBucfyQMsYD8CeF47B2o3EQNyH
uEA4O5LBHCP7QPoFP79euY7B5M+YQAox5EDeiobB8rrHQJEcEsD4ZIjBnBu9QNX35kB+o47Bnguf
QOkdn0AFR43BQsqQQLWOm8A79JPByLCfQNEhGUEahqvBmDMMQeq0tT9T/XjBmcKRQNXt/T/l6aDB
xiajQFZk97+lQJDBH+dbQEBdccBamJTBSTrGQDFdCkGElanBu8hvQNjvI8CEVo3BRg7SQHlfCUGC
rZ3BDajrQB2ymD/+ZIHBX+SJQGF/fUDt2pTBT6apQB5eOEAvvJjBxCroQDqxWL5ww4TBGIe4QHwJ
BEDzio/BJKF+QJyMv0BbEYrBw1y0QMofeb/zFXHBeyX9QNGqNkAtuI7BvSVwQOsilUB0zZ3ByE2v
QBtQAEE7kZfBMqELQax/mj6Y77DB5YehQOABLMBfJqzBaUfkQPvBBkDKd6jBYDJzQNVcFL9NbqTB
gBrwQDnsAcAZqbHBYsnwQPLQK8B6HJbBONwFQSDhL8AebYnBnvvDQPIntkCXApvB2mPjQEGXrEDm
No/BoNgOQcpJCr9eCI/BLIPrQDjGnr7Dy5XB13ClQOrT3kCC4HzBBImFQCXSAEHJoYbBzj3CQHoH
UMAZcITBdSjaQMv680C74YrBsb+qQNMPjkA0KIbBwDSIQERStsBwQJnBra6vQKkKjsCzepbBUlaT
QKUtp8D/q4vBdB+YQAB2GUHSHbTBJ+KDQDEbE0E9DKfBYHinQKxnKUEXy6jBhpYOQWwDOj/wh2vB
34EYQX56nj/NnYLB9nUNQfssHUD4OHPBSv2GQNRiJ0CxmKfBCZdrQIY1xT8P6pzBRE+fQIbkVr97
X5DBzkusQF0uEsCoRZjBVhxXQBMMW8B065zBn2seQAaphsDAHJLBmju+QP1Q9EDtX6zB0tHhQPl0
EEHHHq7BhKxxQCBUOcAW9YTBYBw9QCpk57/GUI7BZLzuQG+8/kC8rJzB2bjYQOWjGUHdwprB7r3T
QAWNsT/6QHbBii5gQD4lXUANcZDB9APFQA5RV0CEsZzBd6ijQIeotT+DV4zBHB9aQAKitEAzF4TB
FHtZQECYx0COQ5DB49xVQEdDgUDRhaLB

> <OMEGA_E>
gh4IPw==

> <OMEGA_NBR>
     30258

$$$$
50197388
  -OEChem-04172616093D

 79 81  0     1  0  0  0  0  0999 V2000
    6.0303    0.5540  -21.2250 C   0  0  0  0  0  0  0  0  0  0  0  0
    4.9753   -0.6263  -19.3647 C   0  0  0  0  0  0  0  0  0  0  0  0
    6.6137   -1.7731  -20.7655 C   0  0  0  0  0  0  0  0  0  0  0  0
    5.1206    0.5407  -20.1442 C   0  0  0  0  0  0  0  0  0  0  0  0
    6.7752   -0.6027  -21.5365 C   0  0  0  0  0  0  0  0  0  0  0  0
    5.7000   -1.7867  -19.6907 C   0  0  0  0  0  0  0  0  0  0  0  0
    7.0925   -0.9287  -15.8697 C   0  0  0  0  0  0  0  0  0  0  0  0
    6.5648    2.3642  -16.9276 C   0  0  0  0  0  0  0  0  0  0  0  0
    9.2115   -0.9711  -17.0128 C   0  0  0  0  0  0  0  0  0  0  0  0
    6.0748    5.7016  -18.3966 C   0  0  0  0  0  0  0  0  0  0  0  0
    8.9848    0.3885  -16.3853 C   0  0  0  0  0  0  0  0  0  0  0  0
    4.8738    7.4082  -17.3014 C   0  0  0  0  0  0  0  0  0  0  0  0
    8.2742   -1.8666  -16.2033 C   0  0  2  0  0  0  0  0  0  0  0  0
    6.3013    6.8710  -17.4819 C   0  0  2  0  0  0  0  0  0  0  0  0
    4.8539    5.0518  -17.7393 C   0  0  2  0  0  0  0  0  0  0  0  0
    9.7961   -6.1614  -18.4856 C   0  0  0  0  0  0  0  0  0  0  0  0
    9.2998   10.7595  -17.0688 C   0  0  0  0  0  0  0  0  0  0  0  0
    7.5130    2.4166  -14.5581 C   0  0  0  0  0  0  0  0  0  0  0  0
    4.2875    1.7702  -19.8293 C   0  0  0  0  0  0  0  0  0  0  0  0
    8.5979   -5.2587  -18.1543 C   0  0  0  0  0  0  0  0  0  0  0  0
    8.7255    9.6638  -17.9790 C   0  0  0  0  0  0  0  0  0  0  0  0
    9.0462   -4.0639  -17.2793 C   0  0  0  0  0  0  0  0  0  0  0  0
    7.7176    8.7999  -17.2075 C   0  0  0  0  0  0  0  0  0  0  0  0
    6.7881    1.5822  -15.6394 C   0  0  2  0  0  0  0  0  0  0  0  0
    7.8543   -3.1264  -16.9952 C   0  0  1  0  0  0  0  0  0  0  0  0
    4.1381    4.0080  -18.6285 C   0  0  2  0  0  0  0  0  0  0  0  0
    5.0459    2.7793  -18.9255 C   0  0  1  0  0  0  0  0  0  0  0  0
    7.5626    0.3823  -15.9882 N   0  0  0  0  0  0  0  0  0  0  0  0
    5.4060    2.1123  -17.6581 N   0  0  0  0  0  0  0  0  0  0  0  0
    3.9785    6.2143  -17.4194 N   0  3  0  0  0  0  0  0  0  0  0  0
    5.9519   -1.2560  -15.5586 O   0  0  0  0  0  0  0  0  0  0  0  0
    7.4527    3.0950  -17.3476 O   0  0  0  0  0  0  0  0  0  0  0  0
    6.8396   -3.8468  -16.2854 O   0  0  0  0  0  0  0  0  0  0  0  0
    3.7381    4.6289  -19.8534 O   0  0  0  0  0  0  0  0  0  0  0  0
    7.2004    7.8007  -18.0996 O   0  0  0  0  0  0  0  0  0  0  0  0
    7.6217   -0.5978  -22.5927 F   0  0  0  0  0  0  0  0  0  0  0  0
    5.4685   -2.9287  -19.0056 F   0  0  0  0  0  0  0  0  0  0  0  0
    6.1556    1.4509  -21.8134 H   0  0  0  0  0  0  0  0  0  0  0  0
    4.3068   -0.6285  -18.5166 H   0  0  0  0  0  0  0  0  0  0  0  0
    7.1886   -2.6574  -20.9978 H   0  0  0  0  0  0  0  0  0  0  0  0
    8.9376   -0.9683  -18.0782 H   0  0  0  0  0  0  0  0  0  0  0  0
   10.2587   -1.2898  -16.9043 H   0  0  0  0  0  0  0  0  0  0  0  0
    5.8552    6.0283  -19.4238 H   0  0  0  0  0  0  0  0  0  0  0  0
    6.9394    5.0215  -18.4051 H   0  0  0  0  0  0  0  0  0  0  0  0
    9.6328    0.5238  -15.5068 H   0  0  0  0  0  0  0  0  0  0  0  0
    9.1814    1.1898  -17.1128 H   0  0  0  0  0  0  0  0  0  0  0  0
    4.7615    7.8765  -16.3124 H   0  0  0  0  0  0  0  0  0  0  0  0
    4.6382    8.1441  -18.0844 H   0  0  0  0  0  0  0  0  0  0  0  0
    8.7713   -2.1719  -15.2707 H   0  0  0  0  0  0  0  0  0  0  0  0
    6.6919    6.5245  -16.5137 H   0  0  0  0  0  0  0  0  0  0  0  0
    5.1695    4.5630  -16.8058 H   0  0  0  0  0  0  0  0  0  0  0  0
    9.4600   -7.0043  -19.1072 H   0  0  0  0  0  0  0  0  0  0  0  0
   10.5523   -5.5803  -19.0338 H   0  0  0  0  0  0  0  0  0  0  0  0
   10.2344   -6.5457  -17.5528 H   0  0  0  0  0  0  0  0  0  0  0  0
   10.0191   11.3685  -17.6362 H   0  0  0  0  0  0  0  0  0  0  0  0
    8.4827   11.4004  -16.7062 H   0  0  0  0  0  0  0  0  0  0  0  0
    9.8090   10.2946  -16.2118 H   0  0  0  0  0  0  0  0  0  0  0  0
    7.6481    1.8065  -13.6529 H   0  0  0  0  0  0  0  0  0  0  0  0
    8.4960    2.7329  -14.9370 H   0  0  0  0  0  0  0  0  0  0  0  0
    6.9107    3.3044  -14.3153 H   0  0  0  0  0  0  0  0  0  0  0  0
    4.0232    2.2698  -20.7730 H   0  0  0  0  0  0  0  0  0  0  0  0
    3.3697    1.4530  -19.3127 H   0  0  0  0  0  0  0  0  0  0  0  0
    8.1612   -4.8787  -19.0897 H   0  0  0  0  0  0  0  0  0  0  0  0
    7.8433   -5.8442  -17.6087 H   0  0  0  0  0  0  0  0  0  0  0  0
    8.2196   10.1328  -18.8358 H   0  0  0  0  0  0  0  0  0  0  0  0
    9.5459    9.0269  -18.3413 H   0  0  0  0  0  0  0  0  0  0  0  0
    9.4445   -4.4423  -16.3263 H   0  0  0  0  0  0  0  0  0  0  0  0
    9.8308   -3.5024  -17.8075 H   0  0  0  0  0  0  0  0  0  0  0  0
    8.2186    8.3148  -16.3568 H   0  0  0  0  0  0  0  0  0  0  0  0
    6.8949    9.4296  -16.8380 H   0  0  0  0  0  0  0  0  0  0  0  0
    5.8090    1.2782  -15.2409 H   0  0  0  0  0  0  0  0  0  0  0  0
    7.4511   -2.7941  -17.9632 H   0  0  0  0  0  0  0  0  0  0  0  0
    3.2492    3.6508  -18.0880 H   0  0  0  0  0  0  0  0  0  0  0  0
    5.9531    3.1194  -19.4464 H   0  0  0  0  0  0  0  0  0  0  0  0
    4.7708    1.4292  -17.2977 H   0  0  0  0  0  0  0  0  0  0  0  0
    3.4985    6.0569  -16.5564 H   0  0  0  0  0  0  0  0  0  0  0  0
    3.3114    6.3548  -18.1510 H   0  0  0  0  0  0  0  0  0  0  0  0
    6.2619   -3.2326  -15.8477 H   0  0  0  0  0  0  0  0  0  0  0  0
    3.2978    3.9914  -20.4031 H   0  0  0  0  0  0  0  0  0  0  0  0
  1  4  1  0  0  0  0
  1  5  2  0  0  0  0
  2  4  2  0  0  0  0
  2  6  1  0  0  0  0
  3  5  1  0  0  0  0
  3  6  2  0  0  0  0
  4 19  1  0  0  0  0
  5 36  1  0  0  0  0
  6 37  1  0  0  0  0
  7 13  1  0  0  0  0
  7 28  1  0  0  0  0
  7 31  2  0  0  0  0
  8 24  1  0  0  0  0
  8 29  1  0  0  0  0
  8 32  2  0  0  0  0
  9 11  1  0  0  0  0
  9 13  1  0  0  0  0
 10 14  1  0  0  0  0
 10 15  1  0  0  0  0
 11 28  1  0  0  0  0
 12 14  1  0  0  0  0
 12 30  1  0  0  0  0
 13 25  1  0  0  0  0
 14 35  1  0  0  0  0
 15 26  1  0  0  0  0
 15 30  1  0  0  0  0
 16 20  1  0  0  0  0
 17 21  1  0  0  0  0
 18 24  1  0  0  0  0
 19 27  1  0  0  0  0
 20 22  1  0  0  0  0
 21 23  1  0  0  0  0
 22 25  1  0  0  0  0
 23 35  1  0  0  0  0
 24 28  1  0  0  0  0
 25 33  1  0  0  0  0
 26 27  1  0  0  0  0
 26 34  1  0  0  0  0
 27 29  1  0  0  0  0
  1 38  1  0  0  0  0
  2 39  1  0  0  0  0
  3 40  1  0  0  0  0
  9 41  1  0  0  0  0
  9 42  1  0  0  0  0
 10 43  1  0  0  0  0
 10 44  1  0  0  0  0
 11 45  1  0  0  0  0
 11 46  1  0  0  0  0
 12 47  1  0  0  0  0
 12 48  1  0  0  0  0
 13 49  1  0  0  0  0
 14 50  1  0  0  0  0
 15 51  1  0  0  0  0
 16 52  1  0  0  0  0
 16 53  1  0  0  0  0
 16 54  1  0  0  0  0
 17 55  1  0  0  0  0
 17 56  1  0  0  0  0
 17 57  1  0  0  0  0
 18 58  1  0  0  0  0
 18 59  1  0  0  0  0
 18 60  1  0  0  0  0
 19 61  1  0  0  0  0
 19 62  1  0  0  0  0
 20 63  1  0  0  0  0
 20 64  1  0  0  0  0
 21 65  1  0  0  0  0
 21 66  1  0  0  0  0
 22 67  1  0  0  0  0
 22 68  1  0  0  0  0
 23 69  1  0  0  0  0
 23 70  1  0  0  0  0
 24 71  1  0  0  0  0
 25 72  1  0  0  0  0
 26 73  1  0  0  0  0
 27 74  1  0  0  0  0
 29 75  1  0  0  0  0
 30 76  1  0  0  0  0
 30 77  1  0  0  0  0
 33 78  1  0  0  0  0
 34 79  1  0  0  0  0
M  CHG  1  30   1
M  END
> <OMEGA_C>
YPjAQBjQDT+2zKnB7zWfQN5TIL/96prBF6PTQA/14r/JH6bB29ujQKFoCj9sJ6HBuc7YQOpJGr+u
SqzB/2W2QB+y5L+Qhp3B0fXiQFm/bb9Q6n3B7xLSQI9PF0Cqa4fBUmITQdeWeL9IGojBD2XCQHtz
tkBMLJPBr8EPQdPpxj4eFYPB4PWbQBAQ7UBNaYrBS2MEQaTr7r9zoIHB2KPJQA7f20Di2ovB4lKb
QAyooUAX6o3B17wcQe8pxcB+4pPBI8wUQRUnLEH8jIjBamrwQHOpGkAQ7mjBlDOJQGWX4j9Sop7B
0JAJQQNHqMARPJHBlpsLQbueGkEA1Y/BD70QQa8LgsD1O4rBg/b2QGPMDEH1qInBRTjZQKuGyj8r
O3rB1Vb7QGIXSMAp9ofBCWuEQORBgEBAB5XBEHihQCPgMUBgZ5fBMgHyQEHDwz6Jz3/BEP6sQF8w
B0DYQ43BSZ9+QFbbxkAAW4vB5nW+QCzGoL848HjBHHzuQK0URkDjx4rBqt3aQJQydsCISILBWT1v
QEcglEDL057Be2nmQD6f+UD/y5DBruTzQC0HGb/ivbTBNv6uQJtvO8B9C5jB7vrEQH+1uT/dga7B
FNGJQHPiIL/nIZTB2gjmQC4SKsCB+6fBfwAPQRjhd78hoJDBnyMkQW8Ypb/6O4fBiF27QKznwEDj
Y5vBaQ/eQGKwoEC9PZPBACAaQbkUBj/iG3jBJ+cSQWJKmD8Z54jBcV6YQBIM/EDRf4LBamyUQChO
AkHMrJDBDFcMQR4AC8DtVHTBpyPWQADJ0EADHITBcGylQPMDkkA5cobBJ1wXQXcj4MCi25jBHNYo
QaORssA9RZjBCcAjQbp20cAQbIzBIk4gQUblNUHwFo3BAbkHQTtoNkFmpoXBsPEcQX22JEG/sYHB
Nr30QH865z8cclrBv+8HQcXnLkAf/m7BESTdQFB7U0BGC2XBur2AQC5EEUABL6bB+ahXQOL6uT9U
gJrBE5QCQYwenMC6t5jB//v6QKIDu8CM3ozBWoMDQccfIkGzr5bBCbwYQQluEEELu5LBoBwXQWsn
jsBFnILB5UodQS4nYMDLdY7Bkn8DQZMJBUHC2oLBvKLcQMffFkEmtIbBLuO5QPOaoz/B2nPBJm/u
QCfTMsCLtI/Bi/JPQPylaUAltJDBpn++QGqkR0A5kpvBuaqYQArwtj+7YYrB8eZfQF/SwUB9c4TB
+e1TQNBay0BYNZHByWHIQPriTsBMkH3BVQ9TQChzf0CXOaPB0ffXQJodjz859KjBRMOfQFFw/b7p
uaTBEHPiQDdjn7+p5azBZiWvQEizVD9asKTBY7XxQH4hoT128KzBIWW5QPDOw7/336jBqGLRQHC+
mL/FFoDBClLgQFW5CkABE4vBdfT0QD8xDcAaOY/BB1DEQBUeuEBVtJHB+Gn+QEg4OL/+z47BAc+W
QOFe40CdbYbBgdblQAEoIMBL0oPB0oa7QDCR5kBfYY7B67WdQLWOnkAaUo3B5l1MQBuDUcC8aJXB
7CWdQPKlF0GugKvBOVoLQYdZsD+lpXnB3n+SQGBK+T9g3qDBNa2JQAdQN8Bymo3BKX3FQA9ECkHY
VanBlLmoQAZvgcCdnovBkh7QQN5rCUEWW53B78LpQNbDmT/n3IHBRGrIQJgDcMAYUILBlGyJQOJX
fkAdUZXBqFWpQAAcOUDN55jBtUrkQIpyK752/IXBiJa3QKNSB0B/j4/BeWp7QKjHvkADKYrBODa6
QLmUhr8ig3DBrnn8QEbGOEA4w47BjRjjQEhpnMB/qYDBkwB0QHwRlkCDb57BvpmtQCAL/0Dkf5fB
+XUMQRp3tT4u67DBEKCqQDwJM8CxHanBLGrjQL/BCEBhJ6nBAl6AQPlLN7+rk6HBIUP2QJrGAsA0
9K/B3LnbQDF1G8BPGJXB6vAIQaYSMsDoMZHBZCXGQEtdtUAqd5rBOlviQAuWrEB8I47BvU8QQXUc
Db+API3BYo/1QNnJeb6hbpbBC/eiQIa03UB+lXzBwm2DQG9gAEEpg4bBJ0QBQcO6KsA0zH3BEvvX
QM2l9EBblIrB1iWoQECPjEDuOIbB7fkgQLkQG8DHtpbBQgZpQLPEZMACFJ3BkSgoQLfDg8C/CZLB
o5CWQBTiF0GHJbTB/cWBQJyKEEE/Q6fB2DmiQO0ZKEG5pajBYHMNQelxJj9RnWzBAKsXQWn/mj+G
94LB2+UMQX5zGUBCPXPBXwWIQFw0IkDc1afB5tZsQN8WwT8U5JzB/Z6bQEAtAcBx/5DBSWB2QPvv
I8Av9YXBwy3AQDjB80CdQazBnqHgQOxvEUEXpK3Bsu+VQGAXnsCMm4nB4Si7QORch8Df95LBW5Dt
QF4RAEEnLpzB8/vUQATLGUEZXZrBMuXRQMg1sD/MGHfB3zG1QBgKZcB6I3bB9/dcQB1WXkDETpHB
K9TEQFh2V0Ba4ZzBMFKiQGflvz8RK4zBWCpWQAiPs0B2SoTBkhFXQBYIx0DRaZDBssvRQAQgtcCF
cn/BlPxaQJ6QgkAVW6PBLknWQNdRjD98N6nB+5WbQL215r7Qk6XBpufdQI2Vor+NfK3BrMGsQFzx
WT+mN6XBIu7uQJC/CT0/P63BbBG0QC0Iwb/FwqnBKDLRQLxyf7+/S33BZPvhQLOZDEAgBYzBfV7+
QI2mCcDYkYvBZAvEQFJft0CYvpHB3Zf1QMKEOL+R+Y7BbVuXQNzA4kDpRIbBGWXeQIcPGcB6YYLB
Ol+8QBis5UBSJo7Bcm+dQEcVnkC9S43Bg5p2QLNul8BpXJbBKWyhQNWPGEF8CavB6xwNQfD/vT9Y
xHvBYSmRQBVG/j8gUKHBKDhrQGAMUsDkiZLB96DIQP1WCkFV6ajBDIigQNWzJ8DxuY/B8ezSQFoH
CUGy7JzBZlvsQIF7qT9USILBnky2QHnOTMChiYXBZLyIQBusfUCIQ5XBtLqoQEsdOkBiU5nBb3Dl
QHM5l711NIXBJcO4QNREB0C3O5DBB6B7QEmavkD6FYrBDBy4QD+CP7/4xG7BWYD9QGU+OkBbD5DB
PxDEQEODkcDP3IbBMCtvQGQTlkDwIZ7B/YivQOZd/0DsJ5fBWVcLQbJvij4FD7HBZUijQBMbMMB0
Q6rBlRrjQGlZBkDTLanB5EJ3QCflIr8ipKLBnfDwQOuZBcAlh7DBJ4j4QHVONsDiNpLB98IPQe3R
EMCcwIjBeRrFQBxOtUB8hprBYi3iQD8Oq0B8ZY7BA48JQWuPbr5kwZHB7G7dQPltML+pXpXB8jWj
QPO73EDrPXzBZ2OEQKgzAEHyV4bB/uvuQIk7OsC0nnfBMxXZQPKV8kCCNorBpe6nQJUEjEC3NobB
OKs3QGg5pcB2RpjBUJ+PQKnnl8Cqi53BxoiKQP5hqsBe/4/B9AGbQNkgGUFfr7PBL2+FQCXoEUFZ
3abBYcGnQF7VKEGSFKjBJ00PQfNhUj+s423BXLYYQdvVmz/jJYTBeawPQYHQIUA82XbBWBOHQISM
JUBBPqjBRJJpQPl9yD8DVp3BlVJMQMnoLMCL8JjBgCVCQHPdUcA/ZIvBUhTCQJNF9EBT7qvBg2bk
QAIQEUGNJa3Bm3W2QFBjMMAphpbB9uOaQBf2xb8wcI7B35fvQCsq/kAOxJvBEwHZQGE6GUGR1pnB
hvPVQMzcyz9ysHfBATWfQPrySMCy033BDGBdQFT+W0BwGpHBm2fDQNI7WkAjbp3B7YikQGqhuz+h
1IzBAQFWQHpus0BhP4TBzZVXQJpIx0CZVJDBDVqsQC3YosDS0ojBu6VVQLetgkDVCaPB

> <OMEGA_E>
4qyTP2BjDz9GcRI/

> <OMEGA_NBR>
     34271

$$$$
50197392
  -OEChem-04172616093D

 90 93  0     1  0  0  0  0  0999 V2000
   12.9265    0.9628  -13.0445 C   0  0  0  0  0  0  0  0  0  0  0  0
   12.5137   -0.1193  -13.8481 C   0  0  0  0  0  0  0  0  0  0  0  0
   12.0059    1.9675  -12.6825 C   0  0  0  0  0  0  0  0  0  0  0  0
   11.1767   -0.2049  -14.2783 C   0  0  0  0  0  0  0  0  0  0  0  0
   10.6681    1.8837  -13.1124 C   0  0  0  0  0  0  0  0  0  0  0  0
    6.7855    1.1555  -21.0239 C   0  0  0  0  0  0  0  0  0  0  0  0
    5.0034   -0.4822  -20.7249 C   0  0  0  0  0  0  0  0  0  0  0  0
    7.1557   -1.1738  -21.6443 C   0  0  0  0  0  0  0  0  0  0  0  0
   10.2484    0.7840  -13.8895 C   0  0  0  0  0  0  0  0  0  0  0  0
    5.4779    0.8372  -20.5866 C   0  0  0  0  0  0  0  0  0  0  0  0
    7.6257    0.1484  -21.5338 C   0  0  0  0  0  0  0  0  0  0  0  0
    5.8386   -1.4845  -21.2590 C   0  0  0  0  0  0  0  0  0  0  0  0
    6.3294   -1.2222  -16.2133 C   0  0  0  0  0  0  0  0  0  0  0  0
    7.6491   -3.8033  -14.9773 C   0  0  0  0  0  0  0  0  0  0  0  0
    6.9792    2.0810  -17.4613 C   0  0  0  0  0  0  0  0  0  0  0  0
    7.8928   -2.2891  -17.7408 C   0  0  0  0  0  0  0  0  0  0  0  0
    6.1151    5.7452  -18.4071 C   0  0  0  0  0  0  0  0  0  0  0  0
    7.8192   -0.7921  -17.9760 C   0  0  0  0  0  0  0  0  0  0  0  0
    4.8332    7.2244  -16.9674 C   0  0  0  0  0  0  0  0  0  0  0  0
    5.9898    7.2127  -17.9726 C   0  0  2  0  0  0  0  0  0  0  0  0
    4.9503    5.0058  -17.7037 C   0  0  2  0  0  0  0  0  0  0  0  0
    6.5940   -2.5655  -16.9540 C   0  0  2  0  0  0  0  0  0  0  0  0
    7.7748   -5.1500  -14.2736 C   0  0  0  0  0  0  0  0  0  0  0  0
    2.9762   -3.0129  -18.5631 C   0  0  0  0  0  0  0  0  0  0  0  0
    5.5601   -4.4404  -18.4143 C   0  0  0  0  0  0  0  0  0  0  0  0
    8.8259    0.6964  -14.3639 C   0  0  0  0  0  0  0  0  0  0  0  0
    4.5360    1.9161  -20.0837 C   0  0  0  0  0  0  0  0  0  0  0  0
    4.0396   -2.5872  -17.5281 C   0  0  0  0  0  0  0  0  0  0  0  0
    8.7023    1.3951  -15.7202 C   0  0  0  0  0  0  0  0  0  0  0  0
    7.3012    1.1402  -16.3043 C   0  0  2  0  0  0  0  0  0  0  0  0
    4.2376    3.9550  -18.5889 C   0  0  2  0  0  0  0  0  0  0  0  0
    5.4722   -2.9356  -17.9978 C   0  0  1  0  0  0  0  0  0  0  0  0
    5.2180    2.8712  -19.0785 C   0  0  1  0  0  0  0  0  0  0  0  0
    7.1788   -0.2588  -16.7677 N   0  0  0  0  0  0  0  0  0  0  0  0
    5.6820    8.0833  -19.1338 N   0  0  0  0  0  0  0  0  0  0  0  0
    6.7231   -3.6910  -16.0063 N   0  0  0  0  0  0  0  0  0  0  0  0
    5.6775    2.0853  -17.9301 N   0  0  0  0  0  0  0  0  0  0  0  0
    4.0003    6.0626  -17.3131 N   0  3  0  0  0  0  0  0  0  0  0  0
    5.6524   -1.0777  -15.2009 O   0  0  0  0  0  0  0  0  0  0  0  0
    8.4463   -2.9107  -14.7144 O   0  0  0  0  0  0  0  0  0  0  0  0
    7.8508    2.7750  -17.9758 O   0  0  0  0  0  0  0  0  0  0  0  0
    3.6454    4.6047  -19.7142 O   0  0  0  0  0  0  0  0  0  0  0  0
    8.8805    0.4551  -21.9303 F   0  0  0  0  0  0  0  0  0  0  0  0
    5.3840   -2.7526  -21.3783 F   0  0  0  0  0  0  0  0  0  0  0  0
   13.9502    1.0224  -12.7054 H   0  0  0  0  0  0  0  0  0  0  0  0
   13.2231   -0.8821  -14.1334 H   0  0  0  0  0  0  0  0  0  0  0  0
   12.3270    2.8010  -12.0755 H   0  0  0  0  0  0  0  0  0  0  0  0
   10.8615   -1.0261  -14.9050 H   0  0  0  0  0  0  0  0  0  0  0  0
    9.9648    2.6595  -12.8479 H   0  0  0  0  0  0  0  0  0  0  0  0
    7.1396    2.1742  -20.9660 H   0  0  0  0  0  0  0  0  0  0  0  0
    3.9964   -0.7266  -20.4208 H   0  0  0  0  0  0  0  0  0  0  0  0
    7.8051   -1.9486  -22.0243 H   0  0  0  0  0  0  0  0  0  0  0  0
    7.9067   -2.8412  -18.6922 H   0  0  0  0  0  0  0  0  0  0  0  0
    8.7809   -2.5558  -17.1491 H   0  0  0  0  0  0  0  0  0  0  0  0
    6.0219    5.6582  -19.4997 H   0  0  0  0  0  0  0  0  0  0  0  0
    7.0826    5.3308  -18.0875 H   0  0  0  0  0  0  0  0  0  0  0  0
    8.8267   -0.3686  -18.1007 H   0  0  0  0  0  0  0  0  0  0  0  0
    7.2144   -0.5682  -18.8671 H   0  0  0  0  0  0  0  0  0  0  0  0
    5.2157    7.1313  -15.9403 H   0  0  0  0  0  0  0  0  0  0  0  0
    4.2531    8.1544  -17.0598 H   0  0  0  0  0  0  0  0  0  0  0  0
    6.9181    7.5378  -17.4801 H   0  0  0  0  0  0  0  0  0  0  0  0
    5.3402    4.5056  -16.8049 H   0  0  0  0  0  0  0  0  0  0  0  0
    8.6275   -5.1232  -13.5792 H   0  0  0  0  0  0  0  0  0  0  0  0
    6.8517   -5.3580  -13.7127 H   0  0  0  0  0  0  0  0  0  0  0  0
    7.9356   -5.9406  -15.0213 H   0  0  0  0  0  0  0  0  0  0  0  0
    1.9754   -2.7479  -18.1915 H   0  0  0  0  0  0  0  0  0  0  0  0
    3.1630   -2.4942  -19.5150 H   0  0  0  0  0  0  0  0  0  0  0  0
    3.0328   -4.1001  -18.7208 H   0  0  0  0  0  0  0  0  0  0  0  0
    4.7664   -4.6672  -19.1413 H   0  0  0  0  0  0  0  0  0  0  0  0
    6.5417   -4.6379  -18.8697 H   0  0  0  0  0  0  0  0  0  0  0  0
    5.4344   -5.0749  -17.5246 H   0  0  0  0  0  0  0  0  0  0  0  0
    8.5371   -0.3600  -14.4669 H   0  0  0  0  0  0  0  0  0  0  0  0
    8.1644    1.1881  -13.6354 H   0  0  0  0  0  0  0  0  0  0  0  0
    4.1801    2.5032  -20.9431 H   0  0  0  0  0  0  0  0  0  0  0  0
    3.6797    1.4348  -19.5885 H   0  0  0  0  0  0  0  0  0  0  0  0
    3.9704   -1.5003  -17.3732 H   0  0  0  0  0  0  0  0  0  0  0  0
    3.8402   -3.1062  -16.5790 H   0  0  0  0  0  0  0  0  0  0  0  0
    8.8540    2.4768  -15.5903 H   0  0  0  0  0  0  0  0  0  0  0  0
    9.4637    0.9980  -16.4076 H   0  0  0  0  0  0  0  0  0  0  0  0
    6.5641    1.3139  -15.5065 H   0  0  0  0  0  0  0  0  0  0  0  0
    3.4572    3.4684  -17.9853 H   0  0  0  0  0  0  0  0  0  0  0  0
    5.6702   -2.3409  -18.9017 H   0  0  0  0  0  0  0  0  0  0  0  0
    6.0737    3.3570  -19.5702 H   0  0  0  0  0  0  0  0  0  0  0  0
    5.6049    9.0324  -18.8283 H   0  0  0  0  0  0  0  0  0  0  0  0
    6.4154    8.0093  -19.8095 H   0  0  0  0  0  0  0  0  0  0  0  0
    6.0791   -4.4481  -16.1166 H   0  0  0  0  0  0  0  0  0  0  0  0
    5.0072    1.5154  -17.4548 H   0  0  0  0  0  0  0  0  0  0  0  0
    3.4588    5.7726  -16.5240 H   0  0  0  0  0  0  0  0  0  0  0  0
    3.3896    6.2832  -18.0736 H   0  0  0  0  0  0  0  0  0  0  0  0
    3.2076    3.9605  -20.2582 H   0  0  0  0  0  0  0  0  0  0  0  0
  1  2  1  0  0  0  0
  1  3  2  0  0  0  0
  2  4  2  0  0  0  0
  3  5  1  0  0  0  0
  4  9  1  0  0  0  0
  5  9  2  0  0  0  0
  6 10  1  0  0  0  0
  6 11  2  0  0  0  0
  7 10  2  0  0  0  0
  7 12  1  0  0  0  0
  8 11  1  0  0  0  0
  8 12  2  0  0  0  0
  9 26  1  0  0  0  0
 10 27  1  0  0  0  0
 11 43  1  0  0  0  0
 12 44  1  0  0  0  0
 13 22  1  0  0  0  0
 13 34  1  0  0  0  0
 13 39  2  0  0  0  0
 14 23  1  0  0  0  0
 14 36  1  0  0  0  0
 14 40  2  0  0  0  0
 15 30  1  0  0  0  0
 15 37  1  0  0  0  0
 15 41  2  0  0  0  0
 16 18  1  0  0  0  0
 16 22  1  0  0  0  0
 17 20  1  0  0  0  0
 17 21  1  0  0  0  0
 18 34  1  0  0  0  0
 19 20  1  0  0  0  0
 19 38  1  0  0  0  0
 20 35  1  0  0  0  0
 21 31  1  0  0  0  0
 21 38  1  0  0  0  0
 22 32  1  0  0  0  0
 22 36  1  0  0  0  0
 24 28  1  0  0  0  0
 25 32  1  0  0  0  0
 26 29  1  0  0  0  0
 27 33  1  0  0  0  0
 28 32  1  0  0  0  0
 29 30  1  0  0  0  0
 30 34  1  0  0  0  0
 31 33  1  0  0  0  0
 31 42  1  0  0  0  0
 33 37  1  0  0  0  0
  1 45  1  0  0  0  0
  2 46  1  0  0  0  0
  3 47  1  0  0  0  0
  4 48  1  0  0  0  0
  5 49  1  0  0  0  0
  6 50  1  0  0  0  0
  7 51  1  0  0  0  0
  8 52  1  0  0  0  0
 16 53  1  0  0  0  0
 16 54  1  0  0  0  0
 17 55  1  0  0  0  0
 17 56  1  0  0  0  0
 18 57  1  0  0  0  0
 18 58  1  0  0  0  0
 19 59  1  0  0  0  0
 19 60  1  0  0  0  0
 20 61  1  0  0  0  0
 21 62  1  0  0  0  0
 23 63  1  0  0  0  0
 23 64  1  0  0  0  0
 23 65  1  0  0  0  0
 24 66  1  0  0  0  0
 24 67  1  0  0  0  0
 24 68  1  0  0  0  0
 25 69  1  0  0  0  0
 25 70  1  0  0  0  0
 25 71  1  0  0  0  0
 26 72  1  0  0  0  0
 26 73  1  0  0  0  0
 27 74  1  0  0  0  0
 27 75  1  0  0  0  0
 28 76  1  0  0  0  0
 28 77  1  0  0  0  0
 29 78  1  0  0  0  0
 29 79  1  0  0  0  0
 30 80  1  0  0  0  0
 31 81  1  0  0  0  0
 32 82  1  0  0  0  0
 33 83  1  0  0  0  0
 35 84  1  0  0  0  0
 35 85  1  0  0  0  0
 36 86  1  0  0  0  0
 37 87  1  0  0  0  0
 38 88  1  0  0  0  0
 38 89  1  0  0  0  0
 42 90  1  0  0  0  0
M  CHG  1  38   1
M  END
> <OMEGA_C>
A9NOQZx6dj8itlDBGzhIQa5g9L3QkV3BDRhAQYvV+z9a60rBm9MyQRLXUb7fc2TBZbAqQfkd8T9l
zFHBkSLZQB3okz/cMKjBAxygQLng9r6wzKXBsfvkQBM/lr+SJ63BlvkjQV62SD9SO17ByUqvQNpV
Vj9ysaTBhQX0QG//Fz4qRazBM9a6QDcEvr9dEqrBEorKQHBynL/htIHBF8X0QEppc8A5o2/B21Xf
QKMvBUDRsIvBa5H8QEWBEsA57Y3BQK/DQNHYt0DIQZPBqTb6QGbHSr/Xzo/B4amaQJEu50BWvYfB
UKy/QMHO5kD7x4/B9mieQDgvoEApoY3BaALTQPIwJMDWoYfB7sr4QLDMpMDVYGTBnno+QPLSQMBO
gZTBX+yxQL0XjsBwUJPB2jYNQeJGMj+w0mXBFSeRQCFD9T9Zq6DBiESBQCWUJcCEOYzBrjwLQTiR
sj/ThXvBV6PpQEbzkT9Ob4LBa5qHQDkffUAAtpTB8RuvQPDgO8B8+4/BCfqmQE3CN0C1oJjBd7jl
QKOEhL5TJIbBkdK1QEBVAUEJEpnBiCPXQMY5bMDnDIDBMa61QDl1BUDmcI/B0QKAQHcAwkAqgYrB
1+C0QM7wib/FNnPB3yMHQbBIOsBDbmvBrzn7QDWaMUCFzo/B+E1pQAFak0DEtp3BuhYOQcAD6T5E
ca/BUkmsQAcqMMDPBqvB3jNfQRvfgj8mSUvBtZFTQT3QYb9VImLBSztFQQpEM0AWNUHB1sgtQVVY
g7+uem7B728fQRA2KkAJkU3BsHfkQJMlC0B3uqfBV8R/QHn/Ob/GXaPBVsP5QIRr+b/YMbDB4gP9
QJnVNcCZiZXBbn4MQTmSI8BcMYnBvrPAQFUQtUBn/5vBEKXiQI6VqkA2s5DBFDoNQXC2vL5EzpDB
eNzmQK92Eb/o75bBC+emQNYz5EBwC3/BCRmIQHt4AkFyeojB1WDdQMU18UA614vBFeOqQLwtkEB6
cIbBGgoKQZXxo8CNRFnB70DbQAR1q8BhZ1vBcfD9QLgZvsBEV3DBKtn8P2DeL8A7iJHB2G1KQDqg
H8C+HpzB7xhCQKAzg8AlxJXBR4aYQFNZlcBwIZnBs1XRQJ1plMA39ZbBYOatQKllosBPMozB2pcI
QfRSuL5feGfBXaECQRMSmD/MKlrBZMOFQPYzIECJi6fB/IBrQGmotz9OtZzBzxp+QLgKwL9V/IrB
5sV1QGPMRsC8oYTB6qkNQZGDHkDNcXnBXGsXQRl8fz/YQoPBJQ3SQFItqD+lGnjBZ0NdQOH6XUDy
4Y/BrHK1QH/QFcCqNpfBDFzCQNLYVkDGj5zBeVuzQKaEEEFhoJbB9krNQOclAEHfeZ7BZYjCQOhW
jsDW7oDBvzqgQLT5wT95o4vBRl1dQBq5uEAZMYTBXO9YQJ0PyUCklpDBCEpNQHh5fUDMEKLBc35O
QXu4gj+YulDB+Vc/QThgAEDsJUvBFWZIQbRrm70WhF3B8QcqQdqG8T8eKVLBOhszQQGmR74clGTB
RPDYQDi2kj+WUKjBE1mfQD798L4O3aXBfQHkQFN3mL//Ka3Bt9cjQVsgRj+Ajl7BzfOuQOo1WD+G
1KTByIHzQCCsAT4XVqzBMry5QH0Yvr9rFKrB7J3KQO7Vnb+krYHB5Ir1QOeHdsAzUXDBAyffQFcU
BUADx4vBqT38QAyPE8A47o3B4m/EQPqYt0BO9JLBa+X5QKwRT79k54/B9ICaQDJ450CP0IfBA7y/
QNDU5kCZxo/BxoOeQMYkoEA0iI3BBrDSQHrXJMAsnofBE1f2QIjxpMAvpmPBmGU9QITXPMC+hJTB
xEqwQEgvjsDxLJPB1jQNQZ+AJz8IWmbBKieRQKzT9z9t3KDBGwSBQAfZIsBTQYzB7BgLQauwsD87
ynvBW1npQATkkD94kYLBy92HQH10fUCnuZTBtJeuQCi7O8Bm9o/BBB6nQMImOEDdvZjBPiHlQB7o
h74UTYbBT8O1QP/RAEGoP5nBOIzWQKn1bMBnCIDB8q+1QODMBEAxpI/BJQeAQDwkwkDujIrB5b+1
QMqMi7+B5XLBe/MGQdBlPMChV2vB+Nr6QH0rM0BnrY/BO9tpQIbbk0ADrZ3BiOQNQUhM1T7eg6/B
pLSqQDjiL8BE/6rBO85eQa/IjT8ZMkvBhRdEQfh3NkDQfkHBJhBUQTQMU78842HB5HEeQW9ZKUAf
D07BfXUuQVRYg7/8lW7BFqHkQLxPCkBS46fBShd+QFzhM7+CaqPBo4b4QEDU/L9kKbDBQa38QIdY
N8AJgpXBv1QMQfxaJMCnLonBuLLCQA0NtEDgspvBjhbjQNO9qkCyDpDB1RMNQWOBxb4E4JDBMrrm
QEmbF78EFJfBY3qmQIXS5EDNIX/B1OmHQGuVAkFnqYjBji/dQFQC8kBW2YvB+kWqQEkCkEDRSIbB
KkEHQRy8osDB5lbBda3WQCuUqsCNflzBoWb+QE6av8BzaW7BFYz7P68IKsA2k5HBjklKQN11HMAY
KpzBdzc/QB1JgcBxtZXB9cSWQLkQlcCR/JjBHZLPQHtilcDUyZbBxb2rQH4cosDaAozBgBsJQa2o
0L7abWjBI0wCQRTxjT9lnFrBiVaGQHz8IUBtwKfBDLdqQCW3uz+s+5zBVWF/QKk9ur92FovBPU90
QDI7Q8DOoYTBwHQNQUhtHUDxWnnBG0QXQYQrgD+ee4PBvNHRQEhCpz8+WXjBZbJdQBb1XUC98o/B
Am61QH2SFsAePZfBpJDCQGZaV0AIopzBr9iyQH8aEEH9/pbB/WXNQLgL/0BDmp7ByrDAQCC7jcCD
oIDB006gQO1Yvj8v/ovBjPZcQO8ZuUDyQITBZmRZQK70yECfsZDBEQ5OQOnKfkD3F6LB

> <OMEGA_E>
cBHWPigH1T4=

> <OMEGA_NBR>
     37397

$$$$
50197395
  -OEChem-04172616093D

 76 78  0     1  0  0  0  0  0999 V2000
    6.6054    1.2720  -21.1922 C   0  0  0  0  0  0  0  0  0  0  0  0
    4.9972   -0.4802  -20.6486 C   0  0  0  0  0  0  0  0  0  0  0  0
    7.0926   -1.0422  -21.7674 C   0  0  0  0  0  0  0  0  0  0  0  0
    5.3845    0.8741  -20.6039 C   0  0  0  0  0  0  0  0  0  0  0  0
    7.4630    0.3131  -21.7550 C   0  0  0  0  0  0  0  0  0  0  0  0
    5.8533   -1.4349  -21.2344 C   0  0  0  0  0  0  0  0  0  0  0  0
    6.3277   -1.1798  -16.1756 C   0  0  0  0  0  0  0  0  0  0  0  0
    7.5927   -3.7190  -14.9139 C   0  0  0  0  0  0  0  0  0  0  0  0
    7.0039    2.0363  -17.4917 C   0  0  0  0  0  0  0  0  0  0  0  0
    7.7955   -2.3164  -17.7527 C   0  0  0  0  0  0  0  0  0  0  0  0
    6.1432    5.5974  -18.1121 C   0  0  0  0  0  0  0  0  0  0  0  0
    7.8115   -0.8152  -17.9603 C   0  0  0  0  0  0  0  0  0  0  0  0
    4.6739    7.3221  -17.4365 C   0  0  0  0  0  0  0  0  0  0  0  0
    6.1394    6.9233  -17.3835 C   0  0  1  0  0  0  0  0  0  0  0  0
    4.8486    4.9363  -17.6019 C   0  0  2  0  0  0  0  0  0  0  0  0
    6.5171   -2.5287  -16.9130 C   0  0  2  0  0  0  0  0  0  0  0  0
    7.6809   -5.0364  -14.1497 C   0  0  0  0  0  0  0  0  0  0  0  0
    4.1707   -4.7995  -19.1978 C   0  0  0  0  0  0  0  0  0  0  0  0
    8.7663    1.3699  -15.7300 C   0  0  0  0  0  0  0  0  0  0  0  0
    3.9290   -2.5329  -17.2776 C   0  0  0  0  0  0  0  0  0  0  0  0
    4.4479    1.9041  -20.0219 C   0  0  0  0  0  0  0  0  0  0  0  0
    5.3861   -4.3567  -18.3697 C   0  0  0  0  0  0  0  0  0  0  0  0
    7.3517    1.1328  -16.3003 C   0  0  2  0  0  0  0  0  0  0  0  0
    4.1978    3.9633  -18.6020 C   0  0  2  0  0  0  0  0  0  0  0  0
    5.3158   -2.8594  -17.8852 C   0  0  2  0  0  0  0  0  0  0  0  0
    5.1764    2.8653  -19.0520 C   0  0  1  0  0  0  0  0  0  0  0  0
    7.2212   -0.2657  -16.7307 N   0  0  0  0  0  0  0  0  0  0  0  0
    6.6576   -3.6286  -15.9369 N   0  0  0  0  0  0  0  0  0  0  0  0
    5.6683    2.1103  -17.8828 N   0  0  0  0  0  0  0  0  0  0  0  0
    3.9129    6.0550  -17.3025 N   0  3  0  0  0  0  0  0  0  0  0  0
    5.6688   -1.0031  -15.1560 O   0  0  0  0  0  0  0  0  0  0  0  0
    8.4236   -2.8413  -14.7064 O   0  0  0  0  0  0  0  0  0  0  0  0
    7.8941    2.5684  -18.1470 O   0  0  0  0  0  0  0  0  0  0  0  0
    6.5106    6.7390  -16.0195 O   0  0  0  0  0  0  0  0  0  0  0  0
    3.7524    4.6910  -19.7497 O   0  0  0  0  0  0  0  0  0  0  0  0
    8.6355    0.6979  -22.3027 F   0  0  0  0  0  0  0  0  0  0  0  0
    5.4923   -2.7326  -21.2893 F   0  0  0  0  0  0  0  0  0  0  0  0
    6.8800    2.3163  -21.2093 H   0  0  0  0  0  0  0  0  0  0  0  0
    4.0473   -0.7858  -20.2353 H   0  0  0  0  0  0  0  0  0  0  0  0
    7.7596   -1.7812  -22.1861 H   0  0  0  0  0  0  0  0  0  0  0  0
    7.7324   -2.8491  -18.7130 H   0  0  0  0  0  0  0  0  0  0  0  0
    8.6894   -2.6508  -17.2059 H   0  0  0  0  0  0  0  0  0  0  0  0
    6.1133    5.7421  -19.2021 H   0  0  0  0  0  0  0  0  0  0  0  0
    7.0271    4.9993  -17.8458 H   0  0  0  0  0  0  0  0  0  0  0  0
    8.8414   -0.4522  -18.0927 H   0  0  0  0  0  0  0  0  0  0  0  0
    7.2092   -0.5379  -18.8380 H   0  0  0  0  0  0  0  0  0  0  0  0
    4.4314    8.0055  -16.6095 H   0  0  0  0  0  0  0  0  0  0  0  0
    4.4427    7.8098  -18.3950 H   0  0  0  0  0  0  0  0  0  0  0  0
    6.7710    7.6627  -17.8978 H   0  0  0  0  0  0  0  0  0  0  0  0
    5.0735    4.3904  -16.6738 H   0  0  0  0  0  0  0  0  0  0  0  0
    8.5444   -5.0088  -13.4688 H   0  0  0  0  0  0  0  0  0  0  0  0
    6.7595   -5.1847  -13.5674 H   0  0  0  0  0  0  0  0  0  0  0  0
    7.8021   -5.8658  -14.8619 H   0  0  0  0  0  0  0  0  0  0  0  0
    4.2937   -5.8508  -19.4972 H   0  0  0  0  0  0  0  0  0  0  0  0
    3.2576   -4.6949  -18.5933 H   0  0  0  0  0  0  0  0  0  0  0  0
    4.0899   -4.1696  -20.0960 H   0  0  0  0  0  0  0  0  0  0  0  0
    8.9400    0.6888  -14.8839 H   0  0  0  0  0  0  0  0  0  0  0  0
    9.5143    1.1789  -16.5137 H   0  0  0  0  0  0  0  0  0  0  0  0
    8.8532    2.4112  -15.3862 H   0  0  0  0  0  0  0  0  0  0  0  0
    3.1416   -2.7857  -18.0029 H   0  0  0  0  0  0  0  0  0  0  0  0
    3.7837   -3.1205  -16.3591 H   0  0  0  0  0  0  0  0  0  0  0  0
    3.8768   -1.4604  -17.0388 H   0  0  0  0  0  0  0  0  0  0  0  0
    4.0109    2.4914  -20.8430 H   0  0  0  0  0  0  0  0  0  0  0  0
    3.6464    1.3866  -19.4743 H   0  0  0  0  0  0  0  0  0  0  0  0
    5.4564   -5.0047  -17.4837 H   0  0  0  0  0  0  0  0  0  0  0  0
    6.2887   -4.4793  -18.9863 H   0  0  0  0  0  0  0  0  0  0  0  0
    6.6246    1.3292  -15.4986 H   0  0  0  0  0  0  0  0  0  0  0  0
    3.3399    3.4825  -18.1092 H   0  0  0  0  0  0  0  0  0  0  0  0
    5.4403   -2.2264  -18.7761 H   0  0  0  0  0  0  0  0  0  0  0  0
    6.0218    3.3315  -19.5793 H   0  0  0  0  0  0  0  0  0  0  0  0
    6.0118   -4.3875  -16.0216 H   0  0  0  0  0  0  0  0  0  0  0  0
    4.9952    1.6168  -17.3320 H   0  0  0  0  0  0  0  0  0  0  0  0
    3.5608    5.9653  -16.3708 H   0  0  0  0  0  0  0  0  0  0  0  0
    3.1505    6.0447  -17.9494 H   0  0  0  0  0  0  0  0  0  0  0  0
    6.5045    7.5775  -15.5731 H   0  0  0  0  0  0  0  0  0  0  0  0
    3.3503    4.0925  -20.3683 H   0  0  0  0  0  0  0  0  0  0  0  0
  1  4  1  0  0  0  0
  1  5  2  0  0  0  0
  2  4  2  0  0  0  0
  2  6  1  0  0  0  0
  3  5  1  0  0  0  0
  3  6  2  0  0  0  0
  4 21  1  0  0  0  0
  5 36  1  0  0  0  0
  6 37  1  0  0  0  0
  7 16  1  0  0  0  0
  7 27  1  0  0  0  0
  7 31  2  0  0  0  0
  8 17  1  0  0  0  0
  8 28  1  0  0  0  0
  8 32  2  0  0  0  0
  9 23  1  0  0  0  0
  9 29  1  0  0  0  0
  9 33  2  0  0  0  0
 10 12  1  0  0  0  0
 10 16  1  0  0  0  0
 11 14  1  0  0  0  0
 11 15  1  0  0  0  0
 12 27  1  0  0  0  0
 13 14  1  0  0  0  0
 13 30  1  0  0  0  0
 14 34  1  0  0  0  0
 15 24  1  0  0  0  0
 15 30  1  0  0  0  0
 16 25  1  0  0  0  0
 16 28  1  0  0  0  0
 18 22  1  0  0  0  0
 19 23  1  0  0  0  0
 20 25  1  0  0  0  0
 21 26  1  0  0  0  0
 22 25  1  0  0  0  0
 23 27  1  0  0  0  0
 24 26  1  0  0  0  0
 24 35  1  0  0  0  0
 26 29  1  0  0  0  0
  1 38  1  0  0  0  0
  2 39  1  0  0  0  0
  3 40  1  0  0  0  0
 10 41  1  0  0  0  0
 10 42  1  0  0  0  0
 11 43  1  0  0  0  0
 11 44  1  0  0  0  0
 12 45  1  0  0  0  0
 12 46  1  0  0  0  0
 13 47  1  0  0  0  0
 13 48  1  0  0  0  0
 14 49  1  0  0  0  0
 15 50  1  0  0  0  0
 17 51  1  0  0  0  0
 17 52  1  0  0  0  0
 17 53  1  0  0  0  0
 18 54  1  0  0  0  0
 18 55  1  0  0  0  0
 18 56  1  0  0  0  0
 19 57  1  0  0  0  0
 19 58  1  0  0  0  0
 19 59  1  0  0  0  0
 20 60  1  0  0  0  0
 20 61  1  0  0  0  0
 20 62  1  0  0  0  0
 21 63  1  0  0  0  0
 21 64  1  0  0  0  0
 22 65  1  0  0  0  0
 22 66  1  0  0  0  0
 23 67  1  0  0  0  0
 24 68  1  0  0  0  0
 25 69  1  0  0  0  0
 26 70  1  0  0  0  0
 28 71  1  0  0  0  0
 29 72  1  0  0  0  0
 30 73  1  0  0  0  0
 30 74  1  0  0  0  0
 34 75  1  0  0  0  0
 35 76  1  0  0  0  0
M  CHG  1  30   1
M  END
> <OMEGA_C>
I1/TQIzPoj+rianB+uifQDDa9b5JMKXBQvbiQPVmhb+sI67B5U2sQE3GXz+01KTBzdDuQNhRoD5U
Cq7BGU67QFGpt78M4KnBUXzKQFkCl7+mZ4HBDvfyQOcDbsA0n27Bpx/gQH5SAkAA74vBfHT5QFE/
FMB0BY7B2pTEQKEds0Ce5ZDBkvf5QOOwUL+tro/BsZCVQHZO6kAFfovBU3bEQFGL3UBuEYvB6yeb
QEr2nUDD0IzB7ovQQI/WIcC+TYfBzcn1QMkpocAzZWLBKHaFQDOVmcARlZnB+EIMQX9Yrz86rnvB
MHV7QIMaIsCEOIrBF1WOQGW48z/cLKDB3VqsQLVpi8A89ZLBdkHrQJv/kD8cZ4LBoVSGQDKmfUDY
0JTB+RqqQOn/NsDZFI/BCqWlQHZgN0CQapjBwhPnQOIOiL6M2IXBqwrVQJ46aMCn/X7B3mK1QFoP
B0DvD4/B/mx6QNXCwUBta4rBx2a1QE5lgL8Jf3LBRccGQXzXNcB+TWvBopz8QAdgJEAlLZHBgVbQ
QIyl10D1J4DBgyZwQOEclkBq/53BNisKQbKsMj8AbLLBocCvQCPjLsCRUKrBjijcQME+FECQrKnB
3IOBQFQoSb/c4aHBrE74QOX+478vfbHB0W/3QBpXNsA6tJXB4QcLQeymKcCbpYnBDKDDQJG/t0D8
nZnBYN7gQJL6n0AbxI7BRHYNQUCI577qvZDBGbLmQJazCb9ItJbBrc2NQKcWAEEq4ITBfiqOQLPp
+UD8KJPBs6vYQJw09UCdLo/BR1qiQN59jEAGZIXBw7UIQb1HoMA+gFfBBU7YQErppcATFFnBsKr5
QN20u8CDym3B0WWJQFw5u8BP+pvBiXxQQPk8lsAhv5TBjuCCQB5thcCGxKDBVwoPQQVWMD9jJG7B
YjoYQcbnlj8gHITBlqYNQYFQGkD3LXbBYxBJQB5IMsD8BZDBFyhyQJ62R8CK34LBXR14QIntur9x
T4jBWlmAQItyH0BgvqbBTV9pQFJ7sT9Uy5vBIJuuQHEmoMCX3ovBaj3JQJZWj8D845fBFv3TQM0i
qj9b+nfBpsFVQIPgXkCZ35DB/BauQKx8DsCENZbBPrLAQBg3VUBhopzBEGHAQAtmjMA+LIDBjdif
QBfzzj/9p4rBpONjQBnkvkBs94LBBKFJQIBuwUBpmI/BQCXQQDZ78kCYK3nB6mtWQPT1gkBV8qLB

> <OMEGA_E>
dCYnPw==

> <OMEGA_NBR>
     38966

$$$$
50197393
  -OEChem-04172616093D

 90 93  0     1  0  0  0  0  0999 V2000
   12.8462    1.0954  -12.9832 C   0  0  0  0  0  0  0  0  0  0  0  0
   12.4526   -0.0219  -13.7474 C   0  0  0  0  0  0  0  0  0  0  0  0
   11.9154    2.1107  -12.6815 C   0  0  0  0  0  0  0  0  0  0  0  0
   11.1254   -0.1298  -14.2016 C   0  0  0  0  0  0  0  0  0  0  0  0
   10.5865    2.0029  -13.1326 C   0  0  0  0  0  0  0  0  0  0  0  0
    6.7715    1.1335  -21.0882 C   0  0  0  0  0  0  0  0  0  0  0  0
    4.9913   -0.5020  -20.7682 C   0  0  0  0  0  0  0  0  0  0  0  0
    7.1548   -1.2068  -21.6544 C   0  0  0  0  0  0  0  0  0  0  0  0
   10.1869    0.8706  -13.8725 C   0  0  0  0  0  0  0  0  0  0  0  0
    5.4596    0.8223  -20.6543 C   0  0  0  0  0  0  0  0  0  0  0  0
    7.6204    0.1182  -21.5671 C   0  0  0  0  0  0  0  0  0  0  0  0
    5.8339   -1.5117  -21.2780 C   0  0  0  0  0  0  0  0  0  0  0  0
    6.3095   -1.2030  -16.2489 C   0  0  0  0  0  0  0  0  0  0  0  0
    7.6763   -3.7760  -15.0027 C   0  0  0  0  0  0  0  0  0  0  0  0
    6.9705    2.0790  -17.5148 C   0  0  0  0  0  0  0  0  0  0  0  0
    7.8911   -2.2857  -17.7493 C   0  0  0  0  0  0  0  0  0  0  0  0
    6.1153    5.8028  -18.5598 C   0  0  0  0  0  0  0  0  0  0  0  0
    7.8198   -0.7907  -17.9962 C   0  0  0  0  0  0  0  0  0  0  0  0
    4.7487    7.2961  -17.3539 C   0  0  0  0  0  0  0  0  0  0  0  0
    5.4589    7.1657  -18.6921 C   0  0  1  0  0  0  0  0  0  0  0  0
    5.0835    4.9694  -17.7503 C   0  0  2  0  0  0  0  0  0  0  0  0
    6.5866   -2.5558  -16.9669 C   0  0  2  0  0  0  0  0  0  0  0  0
    7.7111   -5.0574  -14.1780 C   0  0  0  0  0  0  0  0  0  0  0  0
    2.9907   -3.0508  -18.6104 C   0  0  0  0  0  0  0  0  0  0  0  0
    5.5838   -4.4613  -18.4080 C   0  0  0  0  0  0  0  0  0  0  0  0
    8.7768    0.7597  -14.3744 C   0  0  0  0  0  0  0  0  0  0  0  0
    4.5185    1.9096  -20.1532 C   0  0  0  0  0  0  0  0  0  0  0  0
    4.0380   -2.6093  -17.5655 C   0  0  0  0  0  0  0  0  0  0  0  0
    8.6795    1.4246  -15.7487 C   0  0  0  0  0  0  0  0  0  0  0  0
    7.2882    1.1551  -16.3457 C   0  0  2  0  0  0  0  0  0  0  0  0
    4.2829    3.9495  -18.6084 C   0  0  2  0  0  0  0  0  0  0  0  0
    5.4783   -2.9512  -18.0152 C   0  0  1  0  0  0  0  0  0  0  0  0
    5.2181    2.8441  -19.1432 C   0  0  1  0  0  0  0  0  0  0  0  0
    7.1766   -0.2499  -16.7932 N   0  0  0  0  0  0  0  0  0  0  0  0
    6.4368    8.2439  -18.9416 N   0  0  0  0  0  0  0  0  0  0  0  0
    6.7126   -3.6617  -15.9961 N   0  0  0  0  0  0  0  0  0  0  0  0
    5.6826    2.0376  -18.0148 N   0  0  0  0  0  0  0  0  0  0  0  0
    4.1503    5.9592  -17.1413 N   0  3  0  0  0  0  0  0  0  0  0  0
    5.6146   -1.0459  -15.2506 O   0  0  0  0  0  0  0  0  0  0  0  0
    8.4223   -2.8496  -14.7081 O   0  0  0  0  0  0  0  0  0  0  0  0
    7.8264    2.8129  -18.0003 O   0  0  0  0  0  0  0  0  0  0  0  0
    3.6429    4.6120  -19.6981 O   0  0  0  0  0  0  0  0  0  0  0  0
    8.8783    0.4198  -21.9586 F   0  0  0  0  0  0  0  0  0  0  0  0
    5.3820   -2.7819  -21.3842 F   0  0  0  0  0  0  0  0  0  0  0  0
   13.8630    1.1739  -12.6279 H   0  0  0  0  0  0  0  0  0  0  0  0
   13.1693   -0.7944  -13.9841 H   0  0  0  0  0  0  0  0  0  0  0  0
   12.2220    2.9707  -12.1047 H   0  0  0  0  0  0  0  0  0  0  0  0
   10.8257   -0.9768  -14.8009 H   0  0  0  0  0  0  0  0  0  0  0  0
    9.8748    2.7849  -12.9127 H   0  0  0  0  0  0  0  0  0  0  0  0
    7.1219    2.1544  -21.0515 H   0  0  0  0  0  0  0  0  0  0  0  0
    3.9837   -0.7445  -20.4641 H   0  0  0  0  0  0  0  0  0  0  0  0
    7.8102   -1.9882  -22.0097 H   0  0  0  0  0  0  0  0  0  0  0  0
    7.9100   -2.8449  -18.6964 H   0  0  0  0  0  0  0  0  0  0  0  0
    8.7758   -2.5484  -17.1507 H   0  0  0  0  0  0  0  0  0  0  0  0
    6.2907    5.3548  -19.5490 H   0  0  0  0  0  0  0  0  0  0  0  0
    7.0693    5.8786  -18.0174 H   0  0  0  0  0  0  0  0  0  0  0  0
    8.8280   -0.3688  -18.1210 H   0  0  0  0  0  0  0  0  0  0  0  0
    7.2177   -0.5726  -18.8905 H   0  0  0  0  0  0  0  0  0  0  0  0
    5.4629    7.5378  -16.5529 H   0  0  0  0  0  0  0  0  0  0  0  0
    3.9700    8.0718  -17.3972 H   0  0  0  0  0  0  0  0  0  0  0  0
    4.7140    7.1373  -19.5011 H   0  0  0  0  0  0  0  0  0  0  0  0
    5.6138    4.4242  -16.9555 H   0  0  0  0  0  0  0  0  0  0  0  0
    8.4577   -4.9580  -13.3763 H   0  0  0  0  0  0  0  0  0  0  0  0
    6.7198   -5.2356  -13.7356 H   0  0  0  0  0  0  0  0  0  0  0  0
    7.9805   -5.9037  -14.8269 H   0  0  0  0  0  0  0  0  0  0  0  0
    1.9834   -2.7903  -18.2534 H   0  0  0  0  0  0  0  0  0  0  0  0
    3.1856   -2.5382  -19.5639 H   0  0  0  0  0  0  0  0  0  0  0  0
    3.0570   -4.1387  -18.7586 H   0  0  0  0  0  0  0  0  0  0  0  0
    4.7992   -4.7063  -19.1390 H   0  0  0  0  0  0  0  0  0  0  0  0
    6.5715   -4.6566  -18.8511 H   0  0  0  0  0  0  0  0  0  0  0  0
    5.4553   -5.0835  -17.5100 H   0  0  0  0  0  0  0  0  0  0  0  0
    8.4983   -0.3012  -14.4581 H   0  0  0  0  0  0  0  0  0  0  0  0
    8.0956    1.2633  -13.6727 H   0  0  0  0  0  0  0  0  0  0  0  0
    4.1724    2.5054  -21.0106 H   0  0  0  0  0  0  0  0  0  0  0  0
    3.6549    1.4364  -19.6629 H   0  0  0  0  0  0  0  0  0  0  0  0
    3.9592   -1.5218  -17.4201 H   0  0  0  0  0  0  0  0  0  0  0  0
    3.8306   -3.1223  -16.6148 H   0  0  0  0  0  0  0  0  0  0  0  0
    8.8307    2.5091  -15.6438 H   0  0  0  0  0  0  0  0  0  0  0  0
    9.4513    1.0093  -16.4133 H   0  0  0  0  0  0  0  0  0  0  0  0
    6.5418    1.3333  -15.5575 H   0  0  0  0  0  0  0  0  0  0  0  0
    3.5269    3.4785  -17.9628 H   0  0  0  0  0  0  0  0  0  0  0  0
    5.6800   -2.3685  -18.9260 H   0  0  0  0  0  0  0  0  0  0  0  0
    6.0773    3.3191  -19.6394 H   0  0  0  0  0  0  0  0  0  0  0  0
    5.9573    9.1178  -19.0208 H   0  0  0  0  0  0  0  0  0  0  0  0
    7.0857    8.2875  -18.1820 H   0  0  0  0  0  0  0  0  0  0  0  0
    6.0396   -4.3986  -16.0602 H   0  0  0  0  0  0  0  0  0  0  0  0
    5.0289    1.4190  -17.5789 H   0  0  0  0  0  0  0  0  0  0  0  0
    4.0477    5.7794  -16.1630 H   0  0  0  0  0  0  0  0  0  0  0  0
    3.2558    5.9077  -17.5853 H   0  0  0  0  0  0  0  0  0  0  0  0
    3.1579    3.9784  -20.2136 H   0  0  0  0  0  0  0  0  0  0  0  0
  1  2  1  0  0  0  0
  1  3  2  0  0  0  0
  2  4  2  0  0  0  0
  3  5  1  0  0  0  0
  4  9  1  0  0  0  0
  5  9  2  0  0  0  0
  6 10  1  0  0  0  0
  6 11  2  0  0  0  0
  7 10  2  0  0  0  0
  7 12  1  0  0  0  0
  8 11  1  0  0  0  0
  8 12  2  0  0  0  0
  9 26  1  0  0  0  0
 10 27  1  0  0  0  0
 11 43  1  0  0  0  0
 12 44  1  0  0  0  0
 13 22  1  0  0  0  0
 13 34  1  0  0  0  0
 13 39  2  0  0  0  0
 14 23  1  0  0  0  0
 14 36  1  0  0  0  0
 14 40  2  0  0  0  0
 15 30  1  0  0  0  0
 15 37  1  0  0  0  0
 15 41  2  0  0  0  0
 16 18  1  0  0  0  0
 16 22  1  0  0  0  0
 17 20  1  0  0  0  0
 17 21  1  0  0  0  0
 18 34  1  0  0  0  0
 19 20  1  0  0  0  0
 19 38  1  0  0  0  0
 20 35  1  0  0  0  0
 21 31  1  0  0  0  0
 21 38  1  0  0  0  0
 22 32  1  0  0  0  0
 22 36  1  0  0  0  0
 24 28  1  0  0  0  0
 25 32  1  0  0  0  0
 26 29  1  0  0  0  0
 27 33  1  0  0  0  0
 28 32  1  0  0  0  0
 29 30  1  0  0  0  0
 30 34  1  0  0  0  0
 31 33  1  0  0  0  0
 31 42  1  0  0  0  0
 33 37  1  0  0  0  0
  1 45  1  0  0  0  0
  2 46  1  0  0  0  0
  3 47  1  0  0  0  0
  4 48  1  0  0  0  0
  5 49  1  0  0  0  0
  6 50  1  0  0  0  0
  7 51  1  0  0  0  0
  8 52  1  0  0  0  0
 16 53  1  0  0  0  0
 16 54  1  0  0  0  0
 17 55  1  0  0  0  0
 17 56  1  0  0  0  0
 18 57  1  0  0  0  0
 18 58  1  0  0  0  0
 19 59  1  0  0  0  0
 19 60  1  0  0  0  0
 20 61  1  0  0  0  0
 21 62  1  0  0  0  0
 23 63  1  0  0  0  0
 23 64  1  0  0  0  0
 23 65  1  0  0  0  0
 24 66  1  0  0  0  0
 24 67  1  0  0  0  0
 24 68  1  0  0  0  0
 25 69  1  0  0  0  0
 25 70  1  0  0  0  0
 25 71  1  0  0  0  0
 26 72  1  0  0  0  0
 26 73  1  0  0  0  0
 27 74  1  0  0  0  0
 27 75  1  0  0  0  0
 28 76  1  0  0  0  0
 28 77  1  0  0  0  0
 29 78  1  0  0  0  0
 29 79  1  0  0  0  0
 30 80  1  0  0  0  0
 31 81  1  0  0  0  0
 32 82  1  0  0  0  0
 33 83  1  0  0  0  0
 35 84  1  0  0  0  0
 35 85  1  0  0  0  0
 36 86  1  0  0  0  0
 37 87  1  0  0  0  0
 38 88  1  0  0  0  0
 38 89  1  0  0  0  0
 42 90  1  0  0  0  0
M  CHG  1  38   1
M  END
> <OMEGA_C>
2olNQZo2jD8Vu0/Bxz1HQZCos7yC9VvBf6U+QagVB0CL50rBnQEyQbvtBL7OOWPBWmIpQW4vAED7
HlLBBbDYQMYWkT+3tKjBXbifQM9/AL8/JabBWvTkQEh3mr87PK3BrP0iQWTiXj/m9V3Bw7SuQEKB
Uj8CPKXB7NnzQDIZ8j1ZiazBAa+6QOqAwb9POarBGefJQFr9mb+3/YHBdqT1QMupccAaC3DB/w3f
QBAOBUBEHozB5IP8QHFJEsCe/o3B6rDDQCewuUBxepTBFjz6QGxrSr8g+I/BlvWXQGt56UC81IrB
A6+uQIRN5UCEiZXBMKyiQCIFn0CIAI7BDMXSQPuSI8ApvIfB/MD2QBjWocD/2GLBz2c/QHNAQ8AF
4pTB2q6yQDfDjsCDQ5PBwm0MQX15Qj9f/WXB0ZeQQGBs9D+rOaHBFjeBQAX+JsAahozBJN8KQfBX
tj+G+nvBmTjpQMTakz8HxILBTg2JQKXEfEDt3ZTB/k2vQCHhPMALH5DBvfqmQEUFNkBfJZnBbqbl
QGvmf75xWIbBgvrNQNTmA0F9iJfBTs3WQCBZasAT8H/BiNe1QFBoAkBoHpDBd8+EQCiyvkBuIYnB
jKqzQFnfhb+RAnTBz8EGQeRfNsBnVGvBFnL6QPsFNECIAJDBTyVpQDiVk0CdlZ3Bhw0OQcbp1j4k
q6/BZDmsQDgLMsDKEqvB6s5dQeRClj/RC0rBWrVSQbpfS7/Gvl/Be41DQccfPkCorEHBFDYtQakP
er+p0GzBYf8dQUs8MkBFmk7BwObjQOjhCUB5aajBePV+QDiWPr9ztqPBgO35QDZ8/r/pE7DB+R79
QMUSNsBCkpXBf2kMQW4ZI8CYNInBFU3JQNtaq0BzZJzBtjfiQLQdvECUI5DBcD8NQS3OvL7d95DB
UPfmQDWTEr+5H5fBb9CuQFk18UBwbITBEhV+QB4mAUFhLYvB/9iWQIZk5EAvApzBLqSzQDKTjUDn
pIfBn1IHQZCnnsBXBVbBnAjXQLWJp8AtxVvBVGD/QGzrvMDtOm3B4N/9P52TMsDyBpLBd+FLQFdy
IsDmgpzBOqZDQKJwhMC1EZbBVZOZQBCalsCeHJnB9UnSQAIDlcD/zpbBFJKuQAusosBtFIzB5/gH
QSI1mr5fVGfBuIcBQVK0oT9Jw1rBQYSFQBJYIECwFajBkuppQPnatz+4TZ3BS2N9QPXIwr9OXIvB
Dyh1QGjTR8Ad64TBc0oNQW+UIED+THrBuTgXQRIxgT+BToPBzFbRQCSpqj+P63jBErlhQC6gXkDe
s4/BncK1QJiVF8CMaJfBPXnCQHFrVECDHZ3B7KG+QG7iEUGwKpjBNL7iQIuZBEHDdJHBe0TBQETB
jMBYe4DBw+ygQH2itT+KoYzBCYeBQJHwuEDTTYHBtF5QQBMMvUC9rozBXxpKQKKdfkB2taHBlXhN
Qdq+lD+pr0/BY8Y9QXGnCEAcNUvBBjpIQdSw1zwr+1vBYMAoQT98+z/MxlLB5zwzQcA+Eb6RrGPB
garYQPN+jT8ex6jB0LCeQAIu/74hU6bBuLjjQB7xnr+cRq3BKWsjQWDTUD/Vtl7BI1+uQANSUT8G
aqXBEWPzQL0SmD0RiazBfTW5QJP+wr9sVarBRRjKQJuImr+O74HBak31QFFsdMA/QHDBIGXeQOTJ
BkDK74vBIdH8QDQIEsAP6Y3BfwXEQBvBuUDWy5TBllj6QHh6Sb8D+I/BuXOYQDyO6UCJH4vB07Gu
QPAx5UAv45XBdmGjQPQRn0DVMo7B7fPSQDGDI8B+uYfBBdf1QAGvo8DjbGPBHi0/QNjrQMAGwJTB
XFmyQAkmjsBDXpPBuRUNQe8YJT92D2fBFbuQQNvR9T/1d6HBuIKBQKcgJcDIe4zBIMIKQT8EtT9x
EnzBO8zoQNZFlD/Vv4LBg4iJQH+DfEDB9JTBx3OvQG+9O8AuJpDBtk2nQEO7NUBDUZnBX9fkQO7Y
db4Ve4bBJqDNQFvwA0FlC5jB5IPWQKcSa8BqDIDBSQq2QIvRAEChZZDB56CFQN25vkCQSInBkTi0
QPFCh79LwnPB08EGQUUrOsCBOGvBGnP4QLv1O0A0Eo/Bzf5oQDpVk0ChnJ3B5QQOQSMksz4Yf6/B
2CiqQMdgMsBYIqvBNI1dQaK5pD8kr0nBOuNBQVC1QECt+EHB2k5UQdXINr8Cfl/BbrocQauSLUCK
c0/BLkAvQb8tgL+/WG3BaHTkQAusB0BBdajBH4J8QNYQOb/K8aPBE034QLIzAsAuGbDBNMT9QG8v
NsAndZXBVIIMQRpJIsBHDYnBVHPJQKU5q0AlspzBEa7iQHyAvEAMh5DBpEsNQfTUt75W05DB55/n
QDxGFL+sO5fBMJCvQEid8UB9zITB5MB+QPQcAUFFcYvBoo6WQBzo40DWSJzB2a+0QBbJjUDE3ofB
79gGQZJAocBgilbBKQPWQPk/qcAucVzBNzH+QKt+vsCACW7B9yT+P1WlL8Co0pHBUltLQJtYIMC+
ZpzBP7tCQBNNg8Bf7JXBFzaZQFeSlcD3PZnBCuvRQKSjlMAN6JbB+fatQMoyosAEOIzBYecJQexm
2L7g3WnBFpkBQd6JhD/QR1vBKUyGQIKMIUDEWKjBPlFpQNMluz8XoZ3BtZh+QA7xvr+XVYvBovh1
QBO6RcA424TB4MsMQa1hH0CqDHnBbgUXQWVsiT/kuoPBzTHRQIjfqT9buXjBT1RjQClaXkBhs4/B
5wu2QCQdFsDeZpfBW+HCQNwlVECpP53BoQe+QJnZEUEDsZjBp6fiQNHRBEHYB5LBV47AQKOzjMDc
nYDBabqhQMSbqz/DWI3B8syCQO8suUC+b4HBBaVRQOrTvEAhvIzB7alJQLbzfUAtraHB

> <OMEGA_E>
5CrpPhxV6j4=

> <OMEGA_NBR>
     42093

$$$$
50197398
  -OEChem-04172616093D

 69 71  0     1  0  0  0  0  0999 V2000
    6.8215    1.1589  -21.1918 C   0  0  0  0  0  0  0  0  0  0  0  0
    5.0922   -0.3647  -20.3804 C   0  0  0  0  0  0  0  0  0  0  0  0
    7.2389   -1.2435  -21.1351 C   0  0  0  0  0  0  0  0  0  0  0  0
    5.5263    0.9449  -20.6752 C   0  0  0  0  0  0  0  0  0  0  0  0
    7.6761    0.0663  -21.4218 C   0  0  0  0  0  0  0  0  0  0  0  0
    5.9517   -1.4569  -20.5988 C   0  0  0  0  0  0  0  0  0  0  0  0
    8.7651    0.2456  -15.0042 C   0  0  0  0  0  0  0  0  0  0  0  0
    6.9949    1.7004  -17.9069 C   0  0  0  0  0  0  0  0  0  0  0  0
    8.3084    2.4313  -14.0612 C   0  0  0  0  0  0  0  0  0  0  0  0
    6.0458    5.8923  -18.3497 C   0  0  0  0  0  0  0  0  0  0  0  0
    7.2469    1.9970  -15.0157 C   0  0  0  0  0  0  0  0  0  0  0  0
    4.3570    7.3351  -17.4387 C   0  0  0  0  0  0  0  0  0  0  0  0
    8.9914    1.1140  -13.7390 C   0  0  2  0  0  0  0  0  0  0  0  0
    5.8535    7.2649  -17.7202 C   0  0  1  0  0  0  0  0  0  0  0  0
    4.9416    5.0190  -17.7109 C   0  0  2  0  0  0  0  0  0  0  0  0
   13.4525   -0.7910  -12.5841 C   0  0  0  0  0  0  0  0  0  0  0  0
    6.1047   -0.4247  -16.7147 C   0  0  0  0  0  0  0  0  0  0  0  0
    4.6454    2.1274  -20.3344 C   0  0  0  0  0  0  0  0  0  0  0  0
   10.4570    1.4133  -13.4277 C   0  0  0  0  0  0  0  0  0  0  0  0
   12.6588    0.5038  -12.7505 C   0  0  0  0  0  0  0  0  0  0  0  0
   11.1944    0.1541  -12.9933 C   0  0  0  0  0  0  0  0  0  0  0  0
    7.3280    0.4607  -17.0575 C   0  0  2  0  0  0  0  0  0  0  0  0
    4.2790    4.0330  -18.7005 C   0  0  2  0  0  0  0  0  0  0  0  0
    5.2803    2.9817  -19.2100 C   0  0  1  0  0  0  0  0  0  0  0  0
    7.9239    0.9799  -15.8342 N   0  0  0  0  0  0  0  0  0  0  0  0
    5.6750    2.0846  -18.1091 N   0  0  0  0  0  0  0  0  0  0  0  0
    3.9071    5.9480  -17.1872 N   0  3  0  0  0  0  0  0  0  0  0  0
    9.1739   -0.8902  -15.2214 O   0  0  0  0  0  0  0  0  0  0  0  0
    7.9080    2.4517  -18.2357 O   0  0  0  0  0  0  0  0  0  0  0  0
    6.5656    7.3581  -16.4933 O   0  0  0  0  0  0  0  0  0  0  0  0
    3.7391    4.7547  -19.8115 O   0  0  0  0  0  0  0  0  0  0  0  0
    8.9223    0.2793  -21.9010 F   0  0  0  0  0  0  0  0  0  0  0  0
    5.5561   -2.7027  -20.2492 F   0  0  0  0  0  0  0  0  0  0  0  0
    7.1567    2.1620  -21.4106 H   0  0  0  0  0  0  0  0  0  0  0  0
    4.0999   -0.5288  -19.9869 H   0  0  0  0  0  0  0  0  0  0  0  0
    7.8900   -2.0837  -21.3263 H   0  0  0  0  0  0  0  0  0  0  0  0
    9.0058    3.1396  -14.5324 H   0  0  0  0  0  0  0  0  0  0  0  0
    7.8743    2.8887  -13.1599 H   0  0  0  0  0  0  0  0  0  0  0  0
    5.9191    5.9433  -19.4412 H   0  0  0  0  0  0  0  0  0  0  0  0
    7.0432    5.4924  -18.1146 H   0  0  0  0  0  0  0  0  0  0  0  0
    6.3885    1.5649  -14.4806 H   0  0  0  0  0  0  0  0  0  0  0  0
    6.9061    2.8391  -15.6360 H   0  0  0  0  0  0  0  0  0  0  0  0
    4.1663    7.9618  -16.5551 H   0  0  0  0  0  0  0  0  0  0  0  0
    3.8271    7.7542  -18.3068 H   0  0  0  0  0  0  0  0  0  0  0  0
    8.5105    0.6391  -12.8711 H   0  0  0  0  0  0  0  0  0  0  0  0
    6.1477    8.0551  -18.4266 H   0  0  0  0  0  0  0  0  0  0  0  0
    5.3787    4.4468  -16.8793 H   0  0  0  0  0  0  0  0  0  0  0  0
   14.5118   -0.5523  -12.4081 H   0  0  0  0  0  0  0  0  0  0  0  0
   13.0568   -1.3559  -11.7271 H   0  0  0  0  0  0  0  0  0  0  0  0
   13.3602   -1.3975  -13.4971 H   0  0  0  0  0  0  0  0  0  0  0  0
    6.4309   -1.2832  -16.1092 H   0  0  0  0  0  0  0  0  0  0  0  0
    5.3715    0.1669  -16.1468 H   0  0  0  0  0  0  0  0  0  0  0  0
    5.6422   -0.7868  -17.6448 H   0  0  0  0  0  0  0  0  0  0  0  0
    4.5162    2.7509  -21.2314 H   0  0  0  0  0  0  0  0  0  0  0  0
    3.6643    1.7609  -19.9982 H   0  0  0  0  0  0  0  0  0  0  0  0
   10.9398    1.8194  -14.3288 H   0  0  0  0  0  0  0  0  0  0  0  0
   10.5076    2.1564  -12.6181 H   0  0  0  0  0  0  0  0  0  0  0  0
   12.7475    1.1118  -11.8381 H   0  0  0  0  0  0  0  0  0  0  0  0
   13.0508    1.0703  -13.6081 H   0  0  0  0  0  0  0  0  0  0  0  0
   10.7482   -0.2349  -12.0662 H   0  0  0  0  0  0  0  0  0  0  0  0
   11.1220   -0.6082  -13.7830 H   0  0  0  0  0  0  0  0  0  0  0  0
    8.0633   -0.1516  -17.5999 H   0  0  0  0  0  0  0  0  0  0  0  0
    3.4695    3.5090  -18.1712 H   0  0  0  0  0  0  0  0  0  0  0  0
    6.1668    3.4954  -19.6103 H   0  0  0  0  0  0  0  0  0  0  0  0
    4.9704    1.7415  -17.4879 H   0  0  0  0  0  0  0  0  0  0  0  0
    3.7895    5.8037  -16.2047 H   0  0  0  0  0  0  0  0  0  0  0  0
    3.0383    5.7844  -17.6546 H   0  0  0  0  0  0  0  0  0  0  0  0
    6.4344    8.2197  -16.1152 H   0  0  0  0  0  0  0  0  0  0  0  0
    3.3328    4.1464  -20.4176 H   0  0  0  0  0  0  0  0  0  0  0  0
  1  4  1  0  0  0  0
  1  5  2  0  0  0  0
  2  4  2  0  0  0  0
  2  6  1  0  0  0  0
  3  5  1  0  0  0  0
  3  6  2  0  0  0  0
  4 18  1  0  0  0  0
  5 32  1  0  0  0  0
  6 33  1  0  0  0  0
  7 13  1  0  0  0  0
  7 25  1  0  0  0  0
  7 28  2  0  0  0  0
  8 22  1  0  0  0  0
  8 26  1  0  0  0  0
  8 29  2  0  0  0  0
  9 11  1  0  0  0  0
  9 13  1  0  0  0  0
 10 14  1  0  0  0  0
 10 15  1  0  0  0  0
 11 25  1  0  0  0  0
 12 14  1  0  0  0  0
 12 27  1  0  0  0  0
 13 19  1  0  0  0  0
 14 30  1  0  0  0  0
 15 23  1  0  0  0  0
 15 27  1  0  0  0  0
 16 20  1  0  0  0  0
 17 22  1  0  0  0  0
 18 24  1  0  0  0  0
 19 21  1  0  0  0  0
 20 21  1  0  0  0  0
 22 25  1  0  0  0  0
 23 24  1  0  0  0  0
 23 31  1  0  0  0  0
 24 26  1  0  0  0  0
  1 34  1  0  0  0  0
  2 35  1  0  0  0  0
  3 36  1  0  0  0  0
  9 37  1  0  0  0  0
  9 38  1  0  0  0  0
 10 39  1  0  0  0  0
 10 40  1  0  0  0  0
 11 41  1  0  0  0  0
 11 42  1  0  0  0  0
 12 43  1  0  0  0  0
 12 44  1  0  0  0  0
 13 45  1  0  0  0  0
 14 46  1  0  0  0  0
 15 47  1  0  0  0  0
 16 48  1  0  0  0  0
 16 49  1  0  0  0  0
 16 50  1  0  0  0  0
 17 51  1  0  0  0  0
 17 52  1  0  0  0  0
 17 53  1  0  0  0  0
 18 54  1  0  0  0  0
 18 55  1  0  0  0  0
 19 56  1  0  0  0  0
 19 57  1  0  0  0  0
 20 58  1  0  0  0  0
 20 59  1  0  0  0  0
 21 60  1  0  0  0  0
 21 61  1  0  0  0  0
 22 62  1  0  0  0  0
 23 63  1  0  0  0  0
 24 64  1  0  0  0  0
 26 65  1  0  0  0  0
 27 66  1  0  0  0  0
 27 67  1  0  0  0  0
 30 68  1  0  0  0  0
 31 69  1  0  0  0  0
M  CHG  1  27   1
M  END
> <OMEGA_C>
+UnaQD5WlD/IiKnBN/OiQOK1ur4CC6PB96TnQDUrn7+yFKnBJdewQA3ocT/AZqXB2aL1QCDhhz3q
X6vBs3S+QNp8ur9oyqTBrj0MQRyLez5WEXDBSdbfQPql2T9gQY/BSu8EQVKaG0C5+mDBOXfBQKWN
vEAizJLBTebnQGqe/z9/QHDBkWyLQAu56kCMgovB0NwPQViXjj/T0lvBNVC7QMN56ED+wo3B3SGe
QL+boEDUr43BiD1XQVV/Sr9mWEnBbVnDQNl12b68t4XBZqeUQIknCEDSrKLB6E8nQQTotD+111bB
fopKQfH7AD8pAkzBUBwzQUjRHT6O5E/BuX7qQA7n6z6sdYjBT+2IQJYOgUCOmpXBD/ioQILUPkAc
rpnBt5D9QPXZej8AWX3BUZm1QMlpBUBm35DBWg56QKVVvkByf4nBVMgSQRLkY7/winPBPQ79QDnp
HECy4pHBTRnSQL5160A+8oPBNk5vQNwmmED4fZ7BisEOQWoDjz5CNa/BS8uxQK34LMBk/qHBigPl
QNJdCkDjSKvBSTKDQPlfB7895Z/Bn3r8QKRbBcApnKrBkBcQQbDvSECVhGjBbfr7QA7hOEAWj1LB
YGm9QHkvvkCBh5vB/2HhQK7Br0C26pDBUW7MQBpNyD+GsGfBmv7cQHq0NUAELXrBCFKFQAfH/kDP
cITBj+50QEoi+EBSdJLBACsIQUaaIz8W8E3B07nEQNPhAEGiaZPBeB6sQOBLjkDNCIfBWjBoQc1l
Db+5h0bBzOhQQcONrb9kojvBYMNVQezfsr9S9FfByMnNQPE+pL+g34DBlOOrQLXqKj69LIHB5Iy0
QK5tSb9+KI3B0oSQQHIOMEDa2anBEIRqQIRk4T85/J/BfgkvQU7h6D+1QmXBQR8oQfUBCkDl40nB
qvVLQcBQjj/0aD3BPtBQQZf+iD/julnBlvgrQR19cL7+DkHBmvMxQSSyG782h1zBVwMBQUBEG76h
zIzBUQxeQFqTYECRXpHBd1bFQJ+0X0DY4ZzBRw2fQGHq3j8654vBeoZyQMO3uUBAo4HBinNCQOcZ
uUCKPI3B9+bNQAaEA0H564DBxkxVQGSvhEAzV6PBcOTZQD4AkT+RrKnB8CqhQFCss74LVaPBomLk
QGJppL8e1anB/muwQPXGcj/ceaXBuNDzQGABiDxG36vBv0S7QLyeu795Z6XBUSIRQeg+Hr523XPB
viXgQDZB4z+fHY7B1LATQcCb/D/pt2HBDI/CQHt1ukBwHpLBdtH/QBIf8T8FHG/BbE2MQAA76kD5
HozB/r8ZQSWmAz8MK1/B7LO8QA4D5kAk74zBYG2dQNCpn0D7cY3Bng9OQbyCPsCtt2PBAJ7CQDx3
O75YB4PBjjSVQB0rCUB1qqLBJSIyQfIv5D5unVvBiQxHQfO5xb/e8GjBZOI5QXLWeL+mS1bBDvzq
QKIk9z6r0ofBoCWJQJ6LgECKjJXBFKCpQM9bPkDsjZnBZaUEQWPOTj/ycH7Blty1QPWvBEBltJDB
Eqt4QJahvkAiyonBnvUSQWjdqr9z5XjB0i39QETUIUDi1pDBeFfOQAQO5kDzb4LBAv1wQGoamEDE
b57BWOMNQeSZST7owa/BhlutQCoELcDew6LBs7jlQGlKCEC/MqvB222BQAew+r4aGaDBchD4QI4b
CcCXqavBBlogQRBtIkCT9WnBWlcQQVI2HEBDJFLBWQPAQIHDvEB+4JrBErbhQJODrECB94/BjOLj
QPdN0D98N2XBfdH5QMBNNUA2fHfBLJyDQFMpAEGzn4XBPNh9QKP89UAWtpPBDHoRQbZ+tD3ENVHB
XS3KQF15/0C3/ZHBJGWpQA9HjUA1kIbBGXhXQQJdWMBDHXHB++dXQW1DPsD7IFXBqtY/QVmxZsCO
J2HB3eDLQH7ei7/UT33BXuCyQFquBD9ZBHvBCmKsQCRc5b5vg4nBSL6RQEnqMUAnyqnBuvJqQOOm
5T9IE6DBijc6QdrqSD/bRmrBuF82QQh5jj9WSE7BjElVQZwga7+xg2vBOzg9QSZsxr9EinfB0edD
QZA2cL9N1kfB2/MrQaxEz78GZVPBpwD6QH9Ja761YI3BxuFdQLLtXkCKg5HBrxTGQKCIX0CaqJzB
FZaeQH3p0z85WYzBQuBuQLxPu0Bu7YHBA9JBQBV8uUDLtI3BRHnKQDu5AEGckn7BVQBYQOjfhEAa
baPBbkTZQOLbjj9DH6nBvd2gQESdBL/tvaXBVSTlQFlInr9KP63BqOavQLG1Tj+4Q6XBtvDzQIjG
vD2EAK3B4Gq7QOOUxL/AwqnBmYXTQDOGib8S/37B3gjhQMQqDEDrjIvBHZMAQWkvCcDmdIzBZSi+
QAimu0DojpTBguP9QAkXKL+YvY7BUYOOQMS550APyorBXRjaQLf8GMCZZIXBJFynQH6Y5kBMPJXB
lX2eQOjCnkAhR47BEnFKQBz6ZsB885bBbToMQYqfzT/uqnnB90ySQDy68j+BWKHBKTKyQKAaK8At
M4zB9FCMQOySkcCVMZbBQPCqQATxhcBcBY3BmEPsQJwmqD8WzoHBdBeIQFUweUDaO5XBc2+oQIqk
NUDtQJnBFKvqQMwVx70P8ITB23m4QNRDA0CGFJDBExt7QKrou0BKvInBGP66QPteZ79d8W/Binn7
QL3APUAjUI/BdGLEQFPHBEEHLpbB2CtmQHiwkEDbE57BGL8NQaAXxz6+q7DB4X2sQF/yMsDfiKrB
d2TkQKjeCED8FqnBYfCAQH7RQL98BaPBocj5QImiAcCMG7DBJWr/QPzVLsA24ZPBk3wPQV6QGMAt
MojBxCjEQNyfrkBImJzB4ancQCfAvkCWPJDBZN4OQfd8Zb4kLpDBu0XpQEBF8L7PtpXBBrSjQK2d
70CIC4TB2apoQG0z/0A+MYvB3ArgQKOfTcCne3/BWsuQQH0m5kAN/ZvBpeOvQNG5jkA2w4fBKmoh
QC0Ue8B2pZ3B88wlQBICasBQco/BxGpgQM/3JMA4TJjBPOAOQflIcD9w72vBrsUYQcvvtz8c24LB
sMwMQfbGKUCNRHTBAoGHQCtRH0CZP6jBQPhsQOgRtz8Vc53BIyOWQGoMDcA5cYjB7ci2QIJsEMAj
Q5TBo8WAQI1wssCs7ZTBjBSeQGvrj8CVx53B2ebJQLG2lcDfbI7BIzydQPBzkcB5cYXB2+fTQAYc
vz+lO3fBXYRgQCRUWEAhOpDBfjHDQBBlVkCtPp3BUtWkQO1Orz815IzBeelwQCj2tEDuB4LBfUNE
QBsTuUBFzI3BicO0QGDLEUFRk5bB4bxKQMkXd0DWU6LBh3/WQLZzgz/kyqjBP3ibQMhy976/gKTB
i1jcQAInrb9J2qzBBQ6tQJyXUD86oaTBQT3uQJCma73AzqzBfgOzQNhryL97n6jBMBjRQL51nr/j
goHBcRnaQCbhDUAbeYnBODn3QDCD1L938pHBcvjDQKQxuUCXT5TBhOcDQRJL4b5ueYzB3FKRQCUV
7EBf+43BpqveQMlCF8BbLYnBQQvBQJFM5kDx9I/BVXGgQIz9oEC1Mo7B9PvZQLUyosAHE3DBj84E
Qa64wT8q03LBk/ORQIiY/T/3FqHBYRi4QO5yR8AaAY7BFjHHQAtuqMARZoPBYZelQFXThcA+aYbB
FVXhQHzPnT/LOoDBIF2JQLutfkD0E5XBvZeoQGcrOEC0wZjBJs/kQHiboL07OIXB0Jq0QMlOBEBQ
Y4/BZiCBQAqzwUAelorBt4+3QMpnqb/QMXTBAQT3QJknPUDoeozBqDPXQAZc6UBoC4bBoMRrQCDA
k0DnGJ7B+Q0LQf1WFz55q7DBSKSiQDknNMBwF6jBkffjQCZgAUDn5KjBUcx3QMeOJb9yPaHBc0Lu
QBGWC8AkH7DBLA3iQFJasr80pZjBrs8IQYNbEsAD6JTB2PK9QOuwuEDy+pzBXJPjQDYvq0CYp5LB
kKESQb51Kb+a/ofBXQoHQTX7uj7LQpLBsuqLQGf3AUEOp4fBXTSBQLhz9kDuXJXBQ6TzQK2wRMAl
+ITBqbDMQCil/UBA3ZXB1bGuQNoRkUB6NIfB3nXxQKqVu8B/x2zBFcvpQP/OgsAfGW/BGwrAQO3D
o8CqNGTBpg0GQULXQj/AC2bB8hsTQVVSuz/wDH3BXpgDQZYCIUBBrWvB+CiKQOzrJUBAJKjBmoBo
QK7Tyz8TiZ3B6dGeQDu6GMB62Y/BonbCQBQgZ8BlbJXBaIjhQCYVp8DuOYnBbse3QBQKyMCzx4PB
442aQKL/a8AUGn7BoFWKQPiBlcCGXYrBmyvFQB3woD9t6HXBq/BgQDKFYEDhIJDByRPFQBCiVUCT
YpzBPjegQPYXrT8LFo3BV6l8QFTLwEDFnoLBnS9JQBMivEAH7o3BXCXVQCvjAkGSZIPBdUhPQAve
fUD3VqLBY7XPQNR7eT9inqnBxa6aQBIPJr++haPB63LaQAxvs79DEa3Bk92oQGXyLz95VKTBo6Do
QMeCi729363Bw2mzQLN72L8x6afBusrTQPSWh7/YjYHB6MrZQM++E0Cdm4nBN77+QF99ur/yTpHB
BGTBQDEWuUDnm5PBbmcHQaWXib6JPovBz/6PQByS6EDcnovBvO3jQHJIC8Aj+4jBKn+rQHLG40Cc
l5XBpLqeQG4tnkAN1Y3BwcbcQECdocAqBXLBU+YFQdn/6T/h5nLB8fyMQLIU6D8sOqDBETe/QDQT
PMCmdI7Bq7XLQMmopMBGmITBlDKrQAvLgMBvVofBXvLjQMjltD8X73/BLJ6HQEsRe0CyK5XBd6+l
QAfrMUC4vJjBUX/qQF1vrT0QYYTB+Gi0QN0jAkB9SI/BbVd9QKk7vUBLs4nBw0W2QA1VkL9eOnbB
rgH0QAIASEDq34zByEHJQKP/AkEwwpbB9mdtQHO5kkDIYJ7BxPoGQcx6XD621rLBCOqlQFksPsCU
EKfB6E7aQEq6/z/PZarBIrh5QNQ8X7/2iZ/Bk3jtQPXoDMCeZbDBGynrQG49k795MpjBlKwMQbuh
BcD4FZTBJNLKQNb8qUBdM5vBsMndQD0mvUBXgo7BDYoVQbdrB7+zbobBsWsLQc+XDj9Js5DBcHSj
QJw480C7yYTBX+RrQMuW/0ATAY3B2fr3QAZAOMDrbYTBhcCWQM1B4UB3rJzBNZqtQOjujEAzH4fB
F5fzQIrFu8DYFm/BxvjsQNawgsDOwW/B3OfBQDE0pMCquWbBJikIQYZrkD9Lg2XB+BcUQfQu5z9i
TX3BMaMDQSMgNkDLnGzBhMSAQOiNGEBUGqfBxvRjQFm6sD/hxJvB0x+mQHrnDcCgpJDB4MTLQM+j
WsA7vJXBu/DmQPJPosDkI4rB0d+7QE3Tw8DSn4XBMw6gQDr1Y8Cftn/BbNOPQDoHj8AGk4vBMxXI
QPgEtD8SLnXBc3daQOKKXkCBkJDBQSHBQOELTUCnFJ3BIUaiQOb2oj9gvozB0i50QKukuEDF3YHB
OsxFQAieuUANko3BDjK6QFn5D0HY+pfB+jpRQL/3fEB+0qLB

> <OMEGA_E>
CJWHP6jLhz/krTo/PO9cP7T8Vz8=

> <OMEGA_NBR>
     47859

$$$$
50197413
  -OEChem-04172616093D

 89 92  0     1  0  0  0  0  0999 V2000
   12.9326    0.9536  -13.0290 C   0  0  0  0  0  0  0  0  0  0  0  0
   12.4984   -0.1527  -13.7875 C   0  0  0  0  0  0  0  0  0  0  0  0
   12.0360    1.9974  -12.7219 C   0  0  0  0  0  0  0  0  0  0  0  0
   11.1644   -0.2212  -14.2294 C   0  0  0  0  0  0  0  0  0  0  0  0
   10.7004    1.9292  -13.1610 C   0  0  0  0  0  0  0  0  0  0  0  0
    6.8097    1.1289  -21.0533 C   0  0  0  0  0  0  0  0  0  0  0  0
    4.9820   -0.4608  -20.7676 C   0  0  0  0  0  0  0  0  0  0  0  0
    7.1284   -1.2152  -21.6474 C   0  0  0  0  0  0  0  0  0  0  0  0
   10.2596    0.8080  -13.8943 C   0  0  0  0  0  0  0  0  0  0  0  0
    5.4883    0.8459  -20.6345 C   0  0  0  0  0  0  0  0  0  0  0  0
    7.6318    0.0955  -21.5398 C   0  0  0  0  0  0  0  0  0  0  0  0
    5.7983   -1.4888  -21.2781 C   0  0  0  0  0  0  0  0  0  0  0  0
    6.3003   -1.1544  -16.2336 C   0  0  0  0  0  0  0  0  0  0  0  0
    7.5601   -3.7374  -14.9663 C   0  0  0  0  0  0  0  0  0  0  0  0
    7.0288    2.0987  -17.5055 C   0  0  0  0  0  0  0  0  0  0  0  0
    7.8306   -2.2820  -17.7553 C   0  0  0  0  0  0  0  0  0  0  0  0
    6.1124    5.7558  -18.4519 C   0  0  0  0  0  0  0  0  0  0  0  0
    7.8097   -0.7847  -17.9908 C   0  0  0  0  0  0  0  0  0  0  0  0
    4.5100    7.3076  -17.6248 C   0  0  0  0  0  0  0  0  0  0  0  0
    6.0028    7.1525  -17.8745 C   0  0  1  0  0  0  0  0  0  0  0  0
    5.0088    4.9661  -17.7098 C   0  0  2  0  0  0  0  0  0  0  0  0
    6.5272   -2.5125  -16.9590 C   0  0  2  0  0  0  0  0  0  0  0  0
    7.6670   -5.0754  -14.2444 C   0  0  0  0  0  0  0  0  0  0  0  0
    2.8946   -2.9118  -18.5444 C   0  0  0  0  0  0  0  0  0  0  0  0
    5.4665   -4.3729  -18.4137 C   0  0  0  0  0  0  0  0  0  0  0  0
    8.8416    0.7387  -14.3818 C   0  0  0  0  0  0  0  0  0  0  0  0
    4.5702    1.9451  -20.1415 C   0  0  0  0  0  0  0  0  0  0  0  0
    3.9652   -2.5198  -17.5031 C   0  0  0  0  0  0  0  0  0  0  0  0
    8.7461    1.4093  -15.7547 C   0  0  0  0  0  0  0  0  0  0  0  0
    7.3420    1.1731  -16.3368 C   0  0  2  0  0  0  0  0  0  0  0  0
    4.2827    3.9346  -18.5993 C   0  0  2  0  0  0  0  0  0  0  0  0
    5.3916   -2.8690  -17.9909 C   0  0  1  0  0  0  0  0  0  0  0  0
    5.2641    2.8760  -19.1259 C   0  0  1  0  0  0  0  0  0  0  0  0
    7.1937   -0.2288  -16.7806 N   0  0  0  0  0  0  0  0  0  0  0  0
    6.6336   -3.6253  -15.9951 N   0  0  0  0  0  0  0  0  0  0  0  0
    5.7350    2.0747  -17.9940 N   0  0  0  0  0  0  0  0  0  0  0  0
    4.0284    5.9686  -17.2171 N   0  3  0  0  0  0  0  0  0  0  0  0
    5.6238   -0.9787  -15.2258 O   0  0  0  0  0  0  0  0  0  0  0  0
    8.3794   -2.8583  -14.7259 O   0  0  0  0  0  0  0  0  0  0  0  0
    7.8982    2.8004  -18.0128 O   0  0  0  0  0  0  0  0  0  0  0  0
    6.6889    7.2252  -16.6307 O   0  0  0  0  0  0  0  0  0  0  0  0
    3.6548    4.5995  -19.6966 O   0  0  0  0  0  0  0  0  0  0  0  0
    8.9049    0.3627  -21.9055 F   0  0  0  0  0  0  0  0  0  0  0  0
    5.3125   -2.7460  -21.3849 F   0  0  0  0  0  0  0  0  0  0  0  0
   13.9544    1.0015  -12.6825 H   0  0  0  0  0  0  0  0  0  0  0  0
   13.1893   -0.9469  -14.0291 H   0  0  0  0  0  0  0  0  0  0  0  0
   12.3738    2.8490  -12.1499 H   0  0  0  0  0  0  0  0  0  0  0  0
   10.8337   -1.0599  -14.8240 H   0  0  0  0  0  0  0  0  0  0  0  0
   10.0151    2.7333  -12.9370 H   0  0  0  0  0  0  0  0  0  0  0  0
    7.1879    2.1391  -20.9996 H   0  0  0  0  0  0  0  0  0  0  0  0
    3.9642   -0.6758  -20.4773 H   0  0  0  0  0  0  0  0  0  0  0  0
    7.7623   -2.0095  -22.0130 H   0  0  0  0  0  0  0  0  0  0  0  0
    7.8184   -2.8344  -18.7065 H   0  0  0  0  0  0  0  0  0  0  0  0
    8.7125   -2.5802  -17.1694 H   0  0  0  0  0  0  0  0  0  0  0  0
    5.9277    5.7637  -19.5362 H   0  0  0  0  0  0  0  0  0  0  0  0
    7.1048    5.3253  -18.2521 H   0  0  0  0  0  0  0  0  0  0  0  0
    8.8312   -0.3975  -18.1197 H   0  0  0  0  0  0  0  0  0  0  0  0
    7.2099   -0.5397  -18.8797 H   0  0  0  0  0  0  0  0  0  0  0  0
    4.3295    8.0398  -16.8240 H   0  0  0  0  0  0  0  0  0  0  0  0
    4.0000    7.6350  -18.5428 H   0  0  0  0  0  0  0  0  0  0  0  0
    6.3594    7.9043  -18.5940 H   0  0  0  0  0  0  0  0  0  0  0  0
    5.4616    4.4420  -16.8552 H   0  0  0  0  0  0  0  0  0  0  0  0
    8.5288   -5.0562  -13.5612 H   0  0  0  0  0  0  0  0  0  0  0  0
    6.7470   -5.2560  -13.6691 H   0  0  0  0  0  0  0  0  0  0  0  0
    7.8020   -5.8801  -14.9822 H   0  0  0  0  0  0  0  0  0  0  0  0
    1.8972   -2.6486  -18.1625 H   0  0  0  0  0  0  0  0  0  0  0  0
    3.0817   -2.3711  -19.4839 H   0  0  0  0  0  0  0  0  0  0  0  0
    2.9423   -3.9951  -18.7291 H   0  0  0  0  0  0  0  0  0  0  0  0
    4.6636   -4.5926  -19.1328 H   0  0  0  0  0  0  0  0  0  0  0  0
    6.4419   -4.5743  -18.8806 H   0  0  0  0  0  0  0  0  0  0  0  0
    5.3469   -5.0100  -17.5250 H   0  0  0  0  0  0  0  0  0  0  0  0
    8.5323   -0.3137  -14.4644 H   0  0  0  0  0  0  0  0  0  0  0  0
    8.1828    1.2598  -13.6715 H   0  0  0  0  0  0  0  0  0  0  0  0
    4.2413    2.5443  -21.0033 H   0  0  0  0  0  0  0  0  0  0  0  0
    3.6950    1.4852  -19.6593 H   0  0  0  0  0  0  0  0  0  0  0  0
    3.9058   -1.4366  -17.3210 H   0  0  0  0  0  0  0  0  0  0  0  0
    3.7663   -3.0607  -16.5662 H   0  0  0  0  0  0  0  0  0  0  0  0
    8.9237    2.4897  -15.6495 H   0  0  0  0  0  0  0  0  0  0  0  0
    9.5009    0.9775  -16.4283 H   0  0  0  0  0  0  0  0  0  0  0  0
    6.6089    1.3692  -15.5405 H   0  0  0  0  0  0  0  0  0  0  0  0
    3.5223    3.4272  -17.9875 H   0  0  0  0  0  0  0  0  0  0  0  0
    5.5818   -2.2710  -18.8943 H   0  0  0  0  0  0  0  0  0  0  0  0
    6.1113    3.3782  -19.6158 H   0  0  0  0  0  0  0  0  0  0  0  0
    5.9745   -4.3711  -16.0921 H   0  0  0  0  0  0  0  0  0  0  0  0
    5.0774    1.4700  -17.5446 H   0  0  0  0  0  0  0  0  0  0  0  0
    3.9626    5.9192  -16.2205 H   0  0  0  0  0  0  0  0  0  0  0  0
    3.1301    5.7927  -17.6196 H   0  0  0  0  0  0  0  0  0  0  0  0
    6.6138    8.1041  -16.2780 H   0  0  0  0  0  0  0  0  0  0  0  0
    3.2093    3.9612  -20.2413 H   0  0  0  0  0  0  0  0  0  0  0  0
  1  2  1  0  0  0  0
  1  3  2  0  0  0  0
  2  4  2  0  0  0  0
  3  5  1  0  0  0  0
  4  9  1  0  0  0  0
  5  9  2  0  0  0  0
  6 10  1  0  0  0  0
  6 11  2  0  0  0  0
  7 10  2  0  0  0  0
  7 12  1  0  0  0  0
  8 11  1  0  0  0  0
  8 12  2  0  0  0  0
  9 26  1  0  0  0  0
 10 27  1  0  0  0  0
 11 43  1  0  0  0  0
 12 44  1  0  0  0  0
 13 22  1  0  0  0  0
 13 34  1  0  0  0  0
 13 38  2  0  0  0  0
 14 23  1  0  0  0  0
 14 35  1  0  0  0  0
 14 39  2  0  0  0  0
 15 30  1  0  0  0  0
 15 36  1  0  0  0  0
 15 40  2  0  0  0  0
 16 18  1  0  0  0  0
 16 22  1  0  0  0  0
 17 20  1  0  0  0  0
 17 21  1  0  0  0  0
 18 34  1  0  0  0  0
 19 20  1  0  0  0  0
 19 37  1  0  0  0  0
 20 41  1  0  0  0  0
 21 31  1  0  0  0  0
 21 37  1  0  0  0  0
 22 32  1  0  0  0  0
 22 35  1  0  0  0  0
 24 28  1  0  0  0  0
 25 32  1  0  0  0  0
 26 29  1  0  0  0  0
 27 33  1  0  0  0  0
 28 32  1  0  0  0  0
 29 30  1  0  0  0  0
 30 34  1  0  0  0  0
 31 33  1  0  0  0  0
 31 42  1  0  0  0  0
 33 36  1  0  0  0  0
  1 45  1  0  0  0  0
  2 46  1  0  0  0  0
  3 47  1  0  0  0  0
  4 48  1  0  0  0  0
  5 49  1  0  0  0  0
  6 50  1  0  0  0  0
  7 51  1  0  0  0  0
  8 52  1  0  0  0  0
 16 53  1  0  0  0  0
 16 54  1  0  0  0  0
 17 55  1  0  0  0  0
 17 56  1  0  0  0  0
 18 57  1  0  0  0  0
 18 58  1  0  0  0  0
 19 59  1  0  0  0  0
 19 60  1  0  0  0  0
 20 61  1  0  0  0  0
 21 62  1  0  0  0  0
 23 63  1  0  0  0  0
 23 64  1  0  0  0  0
 23 65  1  0  0  0  0
 24 66  1  0  0  0  0
 24 67  1  0  0  0  0
 24 68  1  0  0  0  0
 25 69  1  0  0  0  0
 25 70  1  0  0  0  0
 25 71  1  0  0  0  0
 26 72  1  0  0  0  0
 26 73  1  0  0  0  0
 27 74  1  0  0  0  0
 27 75  1  0  0  0  0
 28 76  1  0  0  0  0
 28 77  1  0  0  0  0
 29 78  1  0  0  0  0
 29 79  1  0  0  0  0
 30 80  1  0  0  0  0
 31 81  1  0  0  0  0
 32 82  1  0  0  0  0
 33 83  1  0  0  0  0
 35 84  1  0  0  0  0
 36 85  1  0  0  0  0
 37 86  1  0  0  0  0
 37 87  1  0  0  0  0
 41 88  1  0  0  0  0
 42 89  1  0  0  0  0
M  CHG  1  37   1
M  END
> <OMEGA_C>
/etOQTccdD/jdlDBpPlHQShRHL6JmVzBSZNAQfGq/z/WjEvBYaEyQWJ4Yr6uq2PB5TQrQUjw9j9n
k1LByOjZQDyBkD8mbajBemyfQKTv674MJKbBnhvkQF2Km7/oLa3BgickQdTaTj/rTl7BW6CvQJ2O
WD9qE6XBlTf0QKORwz12UazBRIu5QNSPvr+SOarB+JvJQJHEk79g3oHBh+zxQAsxb8DpdW/Bu+vg
QNlQBkAyC4zB/5P6QM4MEsDXCo7BA5nDQD0vuEBnnZPBXen5QMDjSL897Y/B21GQQPHX6UCX/4zB
kBbAQHHh5EDs/o7BKkigQIbqnkCdrY3BLN/QQNvMIMAgrIfB9lf1QO1posA46WPBI0E5QNpaOsD/
WpTBVO2uQB7vi8BRT5PBJ3cNQXkbPT/FG2bB1z6SQHf5+D/RIaHBQcZ9QCtEIcBvBozB2+8LQTtj
tD9fE3zBDfLqQBkplj+zsYLB5QuJQHrQe0Boy5TBDIisQOScN8BW7Y/BJXOoQCMROEDxAZnB+jLm
QKI9ar6ZPobBLkbUQE8FaMDb63/BzIS3QHbHBEDK84/BsuiAQIr+vkCkvInBT/azQCyJer/qnHPB
6BEGQYfuNsBZnWvB5738QBA5M0BIGpDBawvWQPI050CuC4XBtedpQCovk0C0kp3Bh3oOQaGyuT5+
Pq/Bmf+pQBa/L8A3FKvBHUVfQVUygD9d60rBRAdTQeFlcr88d2DB7PpFQWZVNkAWZkLB+FYtQQKs
h78NL23Bpj0gQcftLkDr/U7B/QLmQJbnCEA//6fBdrV9QCsBLb980aPBoWT4QEObAMCGGrDBaDD6
QApnNcDWppXBb2YLQY8hJcDmWonBqK+9QBtwuEAlSpzBgFrjQNdoqkBRBJLByUwNQVmLy74z9ZDB
KrfmQAonCr+lCZfBlYuKQC+jAEGOl4bBDACAQE9S9ECgV5TBfIDLQM/v/EBpwJTBdcWuQPMkjkB4
14bBDXYIQaDMocB/+ljBkefXQDgxqMCEtFrBxKn5QAgqvMDvtm/BxdbyPyKDKcC+TJHBAztFQN2/
F8AL35vBJk48QDiwf8BA1ZXBDDyVQH72ksAOEJnBECTOQLVgksCBC5fBrRmrQIVRoMAdM4zBW4QI
QfeboL4XbmfBz+wCQX9BoT+UvlrBariHQEXWIkDbBqjBt3psQOgbvj8sRp3BWPh5QL3it79TkYrB
fAtxQLnhQ8CIh4TBc8cOQcZXH0CEZHrBswMYQYo6ej85bYPBZnzTQKNBrz+4pXjBn21hQOtWW0Bg
5o/B6J2yQGZXEcCgJ5fBDZDDQGQ0WEAs7ZzBuC6/QOTfi8CpvIDBOnqiQB8pvD9LW4zBlZp9QG9q
vUCVw4HB3VJIQINduUAE9YzBcKTTQHiqAUFfOYLBqmRNQMmEfUAg7qHB4TVPQeP2cD9eAlHBLcJA
QRIl+z8TPUvB009IQXZICr7W1l3Bf1MrQY4g8z/bFFLBVeMyQVLbTL4lrGTBsmLaQAgLkz/KUajB
UTigQDLW5r7u9aXBhtPkQJq1mL9CIK3BGE4kQfrMTT+Lb17B7DiwQIblWz+Y6qTBubr0QNNP9j3m
SazBkma6QOKtvL/jGKrBtevJQHGCl7+Nw4HBDCPzQIXocMDkXm/BTM7gQLqnBEAz/YvBmlb7QD3Y
EsAl7Y3By3jEQADhtkDXfpLBIyv6QLgyTL+azI/BI+eQQBxM6kDESo3B5vjAQGeW40CV4I3ByZqe
QCXknkDFQI3Be6vRQB+AIsAWlIfBDfj2QEBpo8Bq+mPBOJE7QGApPcBzaZTBR26wQLD2jMDITJPB
FYANQZH6Oz/t6GXBIKSSQORE+j/nAKHBM3R/QOWdJMAR+4vB57ELQaROtD/0z3vBo5fqQNfLkz+b
k4LBBJSIQC1efEDGtJTBbIatQD7VOcDp3Y/BvWWoQObHOECEzpjBHlrmQFzRf772GYbBAGHVQLvX
acBoyX/BxB63QKalBUCis4/B31F+QL5OwEBqCYrBsq6zQBZtgb9jmHPBan8GQSwjOMCYYWvBpjP9
QLgzLkDzWZDBhfDRQJmj5EAYToPB6IBrQM/xk0AQlJ3B95gOQSb5yj4BZa/BqvqqQBbgLsA2/qrB
jJpfQWroez94lkvB0CFGQRytMkALkkHBCXZTQUiwaL8ga2LBWEogQRAILEAw4k3BrJ0tQTQpgr8g
rG7BvGDmQHY/CkBE36fBPIN/QA7xK7/OlKPBnSr5QGrq/b/eFrDBgTH7QLwmNsAhipXBC9ALQYdb
JcBaOonBqTLBQJdst0CaQZvBwizjQP8DqEDuUpDBBFwNQd+zzL7d15DBxdXmQEvLDr/15ZbBXwWJ
QLl7AUEDVYfBwDiEQEnc80AyJZXBXw7QQPJL+0BPLZPBIEuqQM8TjkBqGIbBvDsJQaKmosBB/1jB
ionZQF2qqcAv2FrB2aj7QLrtvMBa32/B5+f2PwUvLcAHYJHBDKlHQP6GGcBq2ZvBEzg/QFYjgcDD
BZbBA9yWQE4mlMAKE5nBUb3PQAMIk8BUBpfBHL+sQNKBocC2NozBMosIQezWor4dNmfBUhwDQQFj
oD9eYVrBFk6IQDKQI0DB6KfBPRZtQAbmvj/dN53BuhN7QJ8Hv7/cY4rBwaJyQH5DSMA1kITBvUEO
QahxH0BvC3rB7twXQbUkfj/4UoPBG+zSQBLKrD+6gXjBNBJfQJZfW0AcGZDB7nezQNcxE8BGEpfB
xqHDQIIiWUDtpJzB02nAQCbljMAVrIDB6qKhQEYqwj/R7IvBtqx1QKCfv0CoHILBs2BGQPo6u0Ct
tY3B943PQLZmAEG1gYDBBnhQQDKDf0B8JaLBCOtNQbeDjz9ZbVDB6ARIQajTurwSN1zBOrs+QUNO
CEBbNUzBA+AyQYO4KL5on2PBkZApQQVz/j+yjlPBMPfSQOOJjz8eganBy6uaQNJb575Bm6TBQCDc
QNnJoL/jGa3BfI4jQYl9VD9h917Bc7aqQDgTXT/Xx6TBa7rrQGDifz3+iq3BrWGzQNw+wb97xKjB
AO3JQBk0lr/lD4HBANDzQICgdcCCh3DBXALgQCbABkA/jIzB0bb1QO+wE8BrS47BlneQQPHv00BQ
aJDBx0f1QNWDT79yNpDBf+2tQBAGw0COSX/Bb9KnQKur6EDQMYfB84OoQJ9TqUBympHB0izOQB7B
IcDAFYfBjsTzQFeJo8BPGWPBo6kpQLk5OMAFJpDB/qmoQIglicDdE5PBfxENQf3WLz9gK2fBgwiP
QNgEAECX0qDBqN11QAGAKcA+hIjBPEgLQW9yrz+mDH3BaS/pQFw+lj8SFYPBPlSMQEfJhUDBU5bB
pUymQC6PNcDlV47BpDioQMIGPkD5hJnBQvLiQIsoar4jdYbB+BjTQF1jasDISX/BGe+1QONyDUB6
ApDBAlW3QLYRnkA7qYbBAKC4QDMIgL+zunDBzDwHQX/tPcBN8WzBaO78QNLELkB265DBh5PQQATm
90AduIrBT/puQFGYlkBbkZ/B8xoJQUlLoj5ZBbLB5QWkQIRdMcBhlqjBMRteQUDUnD+cnUrBkLdT
QXAsSr8fj1/BPFZDQeiyQEBfV0PBH2IuQUdKhL+O2mzBw/IdQcHhMEDmd1DBMLreQOyiCEAHA6rB
G9J2QLB8Jr81SKHB2mLvQIeYBMAKFbDBi5fyQK4PN8D53JXBap8JQfmFJ8B+MorBxRFdQF2ozkCU
eY7B+fOSQMVc50BGuJfBaf0KQTO/374ngpHBWlvhQPzXEL+yMpfBx8nIQEEFyUCRUHTBh5+QQKA/
vUBr+XXBgVyUQD/2AEHzdoPBbVjEQJo2rkDq2ZbB+tQGQRbzocBSNFfBatfUQGmopsDy1lrBr8H4
QI1lv8AIkG3BOqXaPy4rL8BEwovBLPwsQP83CsDly5bBLFssQEDLecCqVZPBvGOMQAYVj8DUGpjB
Qs3FQE5jjMCs8pfBrXipQKqHoMDDgIzB3RsJQQKhwr4XymjBouMBQZ15lD/V4FvBOc+CQBHSI0CS
wafBMAZoQDinyj+bRpzBwXlyQC7iz79sVoXBwdhxQFiEV8Aw4IHB3YMOQUSNHEDxQHvBywkXQYb3
bT+fCoTBSCDSQDPvsz8yZXnBuIhpQIE6d0DmTZDByBynQJ6HCMDQGpXBTnfEQIVFVUDc5J3BT6y8
QJf9i8CW5H/BzWWfQH+K3j+Mw4vBnMzWQIpCmEDpuYbBxcinQDcjhECNCoTBqiffQDl1AkHm5YTB
15tLQJomgUBFpaLB

> <OMEGA_E>
uOvkPhyh4z5aZR8/

> <OMEGA_NBR>
     52276

$$$$
50197429
  -OEChem-04172616093D

 82 85  0     1  0  0  0  0  0999 V2000
   12.7694    1.3985  -12.8884 C   0  0  0  0  0  0  0  0  0  0  0  0
   12.5885    0.2533  -13.6907 C   0  0  0  0  0  0  0  0  0  0  0  0
   11.6810    2.2517  -12.6158 C   0  0  0  0  0  0  0  0  0  0  0  0
   11.3167   -0.0445  -14.2142 C   0  0  0  0  0  0  0  0  0  0  0  0
   10.4081    1.9533  -13.1347 C   0  0  0  0  0  0  0  0  0  0  0  0
    6.7562    1.1030  -21.1584 C   0  0  0  0  0  0  0  0  0  0  0  0
    4.9811   -0.4817  -20.6066 C   0  0  0  0  0  0  0  0  0  0  0  0
    7.0629   -1.2751  -21.6001 C   0  0  0  0  0  0  0  0  0  0  0  0
   10.2231    0.7959  -13.9196 C   0  0  0  0  0  0  0  0  0  0  0  0
    5.4684    0.8398  -20.6405 C   0  0  0  0  0  0  0  0  0  0  0  0
    7.5573    0.0445  -21.6230 C   0  0  0  0  0  0  0  0  0  0  0  0
    5.7706   -1.5352  -21.0986 C   0  0  0  0  0  0  0  0  0  0  0  0
    7.7682   -0.8177  -17.9266 C   0  0  0  0  0  0  0  0  0  0  0  0
    7.0264    2.0681  -17.5477 C   0  0  0  0  0  0  0  0  0  0  0  0
    6.2719   -2.4501  -16.9116 C   0  0  0  0  0  0  0  0  0  0  0  0
    6.1572    5.7133  -18.2915 C   0  0  0  0  0  0  0  0  0  0  0  0
    5.9140   -1.0250  -16.5494 C   0  0  0  0  0  0  0  0  0  0  0  0
    4.5341    7.2621  -17.5138 C   0  0  0  0  0  0  0  0  0  0  0  0
    7.2872   -2.2610  -18.0340 C   0  0  2  0  0  0  0  0  0  0  0  0
    6.0378    7.0808  -17.6474 C   0  0  1  0  0  0  0  0  0  0  0  0
    4.9909    4.9176  -17.6627 C   0  0  2  0  0  0  0  0  0  0  0  0
    8.9854   -6.8706  -18.9956 C   0  0  0  0  0  0  0  0  0  0  0  0
    8.8775    0.5117  -14.5191 C   0  0  0  0  0  0  0  0  0  0  0  0
    4.5762    1.9719  -20.1853 C   0  0  0  0  0  0  0  0  0  0  0  0
    8.4795   -3.2067  -17.9138 C   0  0  0  0  0  0  0  0  0  0  0  0
    9.3222   -5.5026  -18.3894 C   0  0  0  0  0  0  0  0  0  0  0  0
    8.7226    1.3496  -15.7932 C   0  0  0  0  0  0  0  0  0  0  0  0
    8.0557   -4.6412  -18.2448 C   0  0  0  0  0  0  0  0  0  0  0  0
    7.3187    1.1313  -16.3788 C   0  0  2  0  0  0  0  0  0  0  0  0
    4.2998    3.9453  -18.6408 C   0  0  2  0  0  0  0  0  0  0  0  0
    5.2806    2.8874  -19.1650 C   0  0  1  0  0  0  0  0  0  0  0  0
    7.1415   -0.2647  -16.8103 N   0  0  0  0  0  0  0  0  0  0  0  0
    5.7323    2.0785  -18.0324 N   0  0  0  0  0  0  0  0  0  0  0  0
    4.0010    5.9203  -17.1889 N   0  3  0  0  0  0  0  0  0  0  0  0
    8.6736   -0.3256  -18.5918 O   0  0  0  0  0  0  0  0  0  0  0  0
    7.9214    2.7157  -18.0826 O   0  0  0  0  0  0  0  0  0  0  0  0
    6.6182    7.0693  -16.3473 O   0  0  0  0  0  0  0  0  0  0  0  0
    3.7457    4.6690  -19.7400 O   0  0  0  0  0  0  0  0  0  0  0  0
    8.8032    0.2959  -22.0840 F   0  0  0  0  0  0  0  0  0  0  0  0
    5.3117   -2.8058  -21.0253 F   0  0  0  0  0  0  0  0  0  0  0  0
   13.7444    1.6226  -12.4817 H   0  0  0  0  0  0  0  0  0  0  0  0
   13.4256   -0.3950  -13.9034 H   0  0  0  0  0  0  0  0  0  0  0  0
   11.8242    3.1336  -12.0091 H   0  0  0  0  0  0  0  0  0  0  0  0
   11.1785   -0.9141  -14.8397 H   0  0  0  0  0  0  0  0  0  0  0  0
    9.5741    2.6090  -12.9326 H   0  0  0  0  0  0  0  0  0  0  0  0
    7.1255    2.1171  -21.1976 H   0  0  0  0  0  0  0  0  0  0  0  0
    4.0005   -0.6853  -20.2024 H   0  0  0  0  0  0  0  0  0  0  0  0
    7.6735   -2.0870  -21.9665 H   0  0  0  0  0  0  0  0  0  0  0  0
    6.7190   -2.9773  -16.0559 H   0  0  0  0  0  0  0  0  0  0  0  0
    5.3893   -3.0044  -17.2633 H   0  0  0  0  0  0  0  0  0  0  0  0
    6.0435    5.7814  -19.3835 H   0  0  0  0  0  0  0  0  0  0  0  0
    7.1249    5.2485  -18.0519 H   0  0  0  0  0  0  0  0  0  0  0  0
    5.0883   -0.6591  -17.1774 H   0  0  0  0  0  0  0  0  0  0  0  0
    5.6286   -0.9523  -15.4896 H   0  0  0  0  0  0  0  0  0  0  0  0
    4.3029    7.9732  -16.7070 H   0  0  0  0  0  0  0  0  0  0  0  0
    4.1056    7.6275  -18.4587 H   0  0  0  0  0  0  0  0  0  0  0  0
    6.7941   -2.4131  -19.0055 H   0  0  0  0  0  0  0  0  0  0  0  0
    6.4711    7.8590  -18.2929 H   0  0  0  0  0  0  0  0  0  0  0  0
    5.3744    4.3453  -16.8052 H   0  0  0  0  0  0  0  0  0  0  0  0
    9.9047   -7.4673  -19.0890 H   0  0  0  0  0  0  0  0  0  0  0  0
    8.2726   -7.3955  -18.3426 H   0  0  0  0  0  0  0  0  0  0  0  0
    8.5368   -6.7304  -19.9901 H   0  0  0  0  0  0  0  0  0  0  0  0
    8.8006   -0.5572  -14.7670 H   0  0  0  0  0  0  0  0  0  0  0  0
    8.0881    0.7794  -13.8013 H   0  0  0  0  0  0  0  0  0  0  0  0
    4.2885    2.5717  -21.0614 H   0  0  0  0  0  0  0  0  0  0  0  0
    3.6745    1.5481  -19.7191 H   0  0  0  0  0  0  0  0  0  0  0  0
    9.2661   -2.8899  -18.6145 H   0  0  0  0  0  0  0  0  0  0  0  0
    8.8685   -3.1713  -16.8855 H   0  0  0  0  0  0  0  0  0  0  0  0
    9.7736   -5.6494  -17.3970 H   0  0  0  0  0  0  0  0  0  0  0  0
   10.0378   -4.9843  -19.0446 H   0  0  0  0  0  0  0  0  0  0  0  0
    8.8581    2.4141  -15.5514 H   0  0  0  0  0  0  0  0  0  0  0  0
    9.4795    1.0417  -16.5295 H   0  0  0  0  0  0  0  0  0  0  0  0
    7.4269   -5.0387  -17.4345 H   0  0  0  0  0  0  0  0  0  0  0  0
    7.4893   -4.6527  -19.1877 H   0  0  0  0  0  0  0  0  0  0  0  0
    6.5884    1.3463  -15.5848 H   0  0  0  0  0  0  0  0  0  0  0  0
    3.4956    3.4281  -18.0969 H   0  0  0  0  0  0  0  0  0  0  0  0
    6.1343    3.3850  -19.6481 H   0  0  0  0  0  0  0  0  0  0  0  0
    5.0594    1.4942  -17.5786 H   0  0  0  0  0  0  0  0  0  0  0  0
    3.8739    5.8337  -16.2008 H   0  0  0  0  0  0  0  0  0  0  0  0
    3.1254    5.7800  -17.6511 H   0  0  0  0  0  0  0  0  0  0  0  0
    6.5365    7.9311  -15.9559 H   0  0  0  0  0  0  0  0  0  0  0  0
    3.3223    4.0635  -20.3371 H   0  0  0  0  0  0  0  0  0  0  0  0
  1  2  1  0  0  0  0
  1  3  2  0  0  0  0
  2  4  2  0  0  0  0
  3  5  1  0  0  0  0
  4  9  1  0  0  0  0
  5  9  2  0  0  0  0
  6 10  1  0  0  0  0
  6 11  2  0  0  0  0
  7 10  2  0  0  0  0
  7 12  1  0  0  0  0
  8 11  1  0  0  0  0
  8 12  2  0  0  0  0
  9 23  1  0  0  0  0
 10 24  1  0  0  0  0
 11 39  1  0  0  0  0
 12 40  1  0  0  0  0
 13 19  1  0  0  0  0
 13 32  1  0  0  0  0
 13 35  2  0  0  0  0
 14 29  1  0  0  0  0
 14 33  1  0  0  0  0
 14 36  2  0  0  0  0
 15 17  1  0  0  0  0
 15 19  1  0  0  0  0
 16 20  1  0  0  0  0
 16 21  1  0  0  0  0
 17 32  1  0  0  0  0
 18 20  1  0  0  0  0
 18 34  1  0  0  0  0
 19 25  1  0  0  0  0
 20 37  1  0  0  0  0
 21 30  1  0  0  0  0
 21 34  1  0  0  0  0
 22 26  1  0  0  0  0
 23 27  1  0  0  0  0
 24 31  1  0  0  0  0
 25 28  1  0  0  0  0
 26 28  1  0  0  0  0
 27 29  1  0  0  0  0
 29 32  1  0  0  0  0
 30 31  1  0  0  0  0
 30 38  1  0  0  0  0
 31 33  1  0  0  0  0
  1 41  1  0  0  0  0
  2 42  1  0  0  0  0
  3 43  1  0  0  0  0
  4 44  1  0  0  0  0
  5 45  1  0  0  0  0
  6 46  1  0  0  0  0
  7 47  1  0  0  0  0
  8 48  1  0  0  0  0
 15 49  1  0  0  0  0
 15 50  1  0  0  0  0
 16 51  1  0  0  0  0
 16 52  1  0  0  0  0
 17 53  1  0  0  0  0
 17 54  1  0  0  0  0
 18 55  1  0  0  0  0
 18 56  1  0  0  0  0
 19 57  1  0  0  0  0
 20 58  1  0  0  0  0
 21 59  1  0  0  0  0
 22 60  1  0  0  0  0
 22 61  1  0  0  0  0
 22 62  1  0  0  0  0
 23 63  1  0  0  0  0
 23 64  1  0  0  0  0
 24 65  1  0  0  0  0
 24 66  1  0  0  0  0
 25 67  1  0  0  0  0
 25 68  1  0  0  0  0
 26 69  1  0  0  0  0
 26 70  1  0  0  0  0
 27 71  1  0  0  0  0
 27 72  1  0  0  0  0
 28 73  1  0  0  0  0
 28 74  1  0  0  0  0
 29 75  1  0  0  0  0
 30 76  1  0  0  0  0
 31 77  1  0  0  0  0
 33 78  1  0  0  0  0
 34 79  1  0  0  0  0
 34 80  1  0  0  0  0
 37 81  1  0  0  0  0
 38 82  1  0  0  0  0
M  CHG  1  34   1
M  END
> <OMEGA_C>
a09MQfAAsz8ON07BcWpJQQa2gT4nDVvBReU6QRIbEEBQ2knBSBE1QeBtNr1jbWPBfocmQWgF+j/T
J1LBjjLYQFQvjT9tRKnBWWWfQCim9r5h2qTBPAPiQNo2o78HzazBzpEjQVHASz/Utl7BH/2uQDcA
Vz+qH6XBP9XxQDAzNj3Y+6zBt6i4QLyBxL8EyqjBCZX4QJJTUb+6aY/BkdjgQPdaBEC4YYzBubPI
QDfOHMD+SofBiAfFQE7TtkAMVZLBkD+9QPgxg79BZYTBZheRQONi6EAzHIzBsDDpQOq0EMCvRZDB
nzXBQDSW4kDdLY3BdLWfQEldnUAyTY3BDMQPQSzc28D+9pfBTQoOQRP/Aj9KTmjBAHCSQGBn/D+H
e6HBDqwHQUI6TcB6T4/ByycVQWcVsMBwHZPBuY8LQYjArD8GsXzB+uMAQV2ElMBF9ZHBsTLqQEzP
kD/cB4PBqpeJQDOAfEBbIJXBT/qoQFnKOEDvUZnBjofkQAyCh756e4bBsW63QDMGBUBJQpDBCwiA
QApzvUDqgonBHMcKQSC4pr4BvJTB5nv9QF/OLUAWqZDB5cfTQLM34kAux4LB4bhvQEholUCB653B
x9kMQWp+lz4IrLDBh/mpQKmRM8DjM6jBROlbQSawzz8MtUfBa89WQdo7yr5odF7BDjA9QUSMSEAs
JUDBPNsyQdoBar81b23BVy8ZQen5JkD+607BEgTkQCx/B0DBlKnBNgSAQDBvL7+WnqHBoo31QC6S
BcB8u6/BbQLXQJ6LPsCVcoDBNXWsQD1IQMBCG4rBF2TBQNgAuUBxEZvBjf/jQBj0p0BMapDBgNOi
QIm5KL9ea4nBiR20QIDLc79j1XfBI7GJQEQk/0D1p4XBrWCDQIMU9EBRq5PBAmnZQOZvGsA2C5jB
FhPPQFJ9+0DRV5LBfPurQI8Mi0ALcYbB1XkeQRP07sBKtpjBaVwEQYun7MCNvZLBrJYIQWFf18DQ
65/BVM8MQQ2nDr+qRWzB3GgBQSeERz9U0lzBvjuJQKCWJEC/fajBQitrQBknxj+swJ3Bx0EUQXrz
OMB66pTBcOUNQZX2SsCAFYfBe2AcQbfHtMAcLYvBvpogQY5/n8BfW5jBzboNQeWAGkBl0njBO6wX
QepUhT9+PITBAKntQDI9ocDIeYvBKajvQKfilMBagJnBN9TSQH5TrD9lW3nBlbhfQChmW0BbxpDB
ZUzEQHGkWEBSL53BAuehQAVBvz8HoYzBSu53QOutukBEm4HBVQZIQN/1uECONY3B4SrRQFDL/UA8
S3/Bxp9UQPYHgkB3sqLBvVFOQaVylT+uvE7BYM1KQWAQcD04N1zBDFU9QeqrAkAVy0nBr0I2QSB5
PL5bnmTBZMAoQYXq5T8gFFLBKjPYQGTukT826anBdRyiQE9WAL9CwaTB9w3kQAZrnb8xbq3BfR8l
QV6dKz/NOl/BZDGwQOQbVj8JQaXBeUHyQPCw2j1P5q3BCuC7QIAOxL945KjBQKD0QLqUNb+MOpDB
GJnfQO4MCkD+JovBElC/QM1IEcA4torB4tfCQDRauUAoRZTBYwrFQJqHmr93GILB0NuXQP+L50AT
tYjBIHzpQIqmDMCPs5DBSPe/QFqq5kBovY/Bb0KhQEhzn0AV/o3BHWFBQRo9acCEXJPBYCQPQfTs
1D6YT2jBHU6TQL3Z+D/7UaHBmFAGQUB7QcDZGovBC8MsQSAac8DhvozB79sLQeMEpj8YGHzBHH0b
QQgZOMC9SpHBdsDpQJmZkT/lZ4LBRGyKQOZzekBt0JTB4t+pQBAFN0BOG5nBGwziQIqtVL4s34bB
xC64QIamAkC+G5DBYzCBQPvpvkDdcorBRaIGQZAV7L37MpbBYon6QGSXPUCrOo7ByvDjQFj270CN
NInBoABqQLeOkUC+ip3BkZMMQVDFyz6rBbLBA66uQChENMDFIajB2QxeQZ16rD/qMEjBjt5XQbvo
Gr8kGWDBWRlAQceMOUCNqD/BnqAzQc/1gr+3LG/BAb8bQZL+HUCXYE7B5sziQNShCkAxaarBLYaD
QFolPL+LMaHBHPD3QH10AcCki7DBKHS6QFr3UMCLKYfBQzikQITnAcCg/Y/Bulm7QP1GuUBS3pzB
awnjQLcIrECeA5PBhBqmQDSzP7+jDYDBf2TTQFmG0r+PuXXB8u2gQHyp6kCCPYDBW0WDQA9LAUHR
/4rBWoflQN6uIcCDCpnBabW8QG/n/UCYTJbBEI6wQAAYkEAAD4fBUdZNQQ7PicDiG5DBACc+QTeV
esBzvJvBEeNGQZByJsCT+JLBkLENQUOfJL+Y2WzBR/YCQRXMKD/sN1zBDD6JQOllI0AWNKjBOfdt
QIdrvz/MhZ3B8nUIQQwXKsDe34LBdZQBQZaigsAZ7IrBhj0nQQPwmsCgIo3Bl/kvQV+9YcDBXoTB
848OQfBXFkCvuXfB71cXQTgTgD+NR4TBBr8YQXSJSMDyvJnBbv4gQazI6r8UtpDBdW3TQPjdpj9d
d3fBErplQKPCWUDWtY/B9y/FQGcZV0AH8pzB/QOkQHJtrD8gVI3B+QpnQIEntUCWo4PBfXFVQJWW
wkAbEpDBR4ThQHAdBkG+eYbBYs5NQEcfeUBXwqHBcVpNQXMkuD89sU7BnWNKQZZZlT7reFvBqv87
QfIsE0DPekrBvQg2QQB9ALsT52PBg50nQX5bAEDl2VLBltPWQHDEjj8a4anBTLihQKHJB79ZTaTB
OYfkQIyUob/qgqzBVI4kQUjJVz+bUF/Bmw6vQHS1Tz/HIaXBqXHxQAA3pj2Kkq3Bv6e8QJu3yL/C
2qfBSxP0QEJ8gb8SOo7Baw3iQDKXBEBhwYzBz52wQFPaAsD754rBCrrEQLGOtkB5B5LBMAG2QMGT
VL9uoIPBg+6QQN/n5kBJJYvB4GDeQM7rGMCou43BBgrBQBol4UDZSYzB9nSfQGExnEBCS43B3ssv
Qbnrk8BFa3vBqOgOQbxADD+W0mjBc++RQFUy9j+0XqHBiXvwQLIFUMAWjYTBEAcYQa2yicApb3jB
L70MQZ0SpT/2M37BLC0QQXDzXsCnyYXBfVjrQOFXkz+AWYPB97+JQITEe0AkY5XBRA6pQIzQN0AU
hZnBD+bfQIAibb7aZYbBCVG4QDauBUCNbZDB5gF/QMGAu0CyRYnBtHQJQa4iNb/yypPBnDv+QNA/
MECr3ZDBxY7TQAt83kDT5oHBNphyQI6ylUB9OZ7ByqcLQSqUwz4rM7LBnlywQKzcNsA+tKbB0/Fc
QTc11D+dHkjB5rxXQe9Iub4CzF7BMFU+Qe3GS0Ah10DBbs4zQW6EX7/N3m3BK1UaQW/JKkByvk/B
wtXgQK87CUBcrarBTseCQAd0Q79d76DBMy35QEOmA8D+Q6/BvPOgQOv1N8DQqIbBcAOeQGss5b9F
GJLBJO7AQFSZukAluJrBh7PjQJ8+p0CAWZDBqh2cQIXf2b3RCoXB2q+1QPEAkr9nXnbBEp+JQBzy
+0DeVITBc12DQD6s9EATgJLBSobgQM18OsAhc5XBVwLPQAcV+0DPGpHBzbOrQAYTiUC1kYbBkos1
QWTFpsBRtm3BqP0xQdtrpsB+HYXBe+84QZDSa8D8dnzBtk4NQeDbCL/9gmvBklECQW/UYj9Yx13B
tSOHQKodIEAHWqjBWh9sQH6vvT/TUZ3BUpvqQNgdL8Cx0nnB+QngQFcih8AAiITBk9wOQTWtp8Dy
ZnfBZs4VQUNVbsDyomnBEnsQQfGrFkC31XvBMfQXQYG3Wz+i8ITBpUwTQZYZgcBSPo3B+ZMYQcgd
IcB2A4bBAufVQCf+uT/PmnnBv7BeQP7XWkDiRZHBbPDDQI0qV0DboZ3B3PaiQG7Fwj+mkIzBpi11
QC75tkDdcoHBHMFHQDj4t0AoNo3B5APRQJRb+UDQz3zBXAlYQAK9gkDBJqPBkNhNQclUwT8p0k/B
/c9KQUBfwT6q51zBJXU8QabOFkA2A0vBwlc2QeC1qD1DBWXBdPonQWT6A0DQGVPBqRDUQPeejj8J
b6rBXgahQIK7Fr96raTB8dTiQLDdnr8d063B9tokQf6faT9V0V/BUw6tQBChRD/1b6XBNw3vQBBo
5D1vg67BOq+7QP9+y78p+qjBxNDzQAPoRL9LE4/BGnLeQAScB0BSLIzBRdPHQP/JGMDZioXBnhvD
QMZOtkAXHpLBgJi8QDuhdL/33oLB7oiRQBzz5EDf54nBLynlQDhRD8CtMo/BStuuQAsd4kBYlpPB
u4aeQKbjmkA7To3BOqsuQRBhjMAog6PBsQcPQfLwGz+1rWjBCkiPQMEU7T9MW6HB1bYFQQBrTMAy
Uo7BXOkjQVTHiMChfpjBlY0LQR8Ttz8jHX3BMDsRQd5wUsBJKJnBIkvpQOmumj8luILBYx+IQJYE
ekARgpXBn3umQOBhM0C2ipnB4OfiQNAzS77g0YXBvqu1QE5MAUAuapDBXgN9QHPFuUBeCInBD6kG
QfDSd76qOZXBzYT5QIDcNkDHI5DB6cDNQAfOAUHZxpPBdiByQBUSlUB6c57BYkQKQeDd5j7uLLPB
ZCqwQBj+OMA8NajBj4ZdQaN+3T/0d0nBLDFYQZPQhr4vs2DBn9k+QUexTkAgIUHBGwg0QRcmR79G
NW/BJawaQTLFLUC1lE/BRi/dQM7ACUAfH6vBA2KDQDcgXL/0zKDBWnT3QGyyAMCdArHBT5DYQLLU
N8Dzr33BwQerQNHYPcAElYfBSLzNQFQnqUDi1ZnBh3jeQB3/t0ASmYzB68agQEDHHr9LjIfBZrG1
QAO/WL9lknTBgeOjQGzc7EBuqYLBeBNxQLM2/UDDKovB40XTQFOBHMB0mJbBgIGbQP5A4kAs8JrB
SHWrQJ9bh0CuvIbBeBk8QWMNo8BwDKPBhPEiQf7hl8BKaanBeKk0QZCLWcCD96XBluANQfAa7b4+
b2zB/sMCQRTGXz/kyVzBWlKDQDrQG0B6MqjB4GBoQEbNsD9LMJ3BXeoQQf05NMCDPojBaQQAQVYo
hsAY+IvBtukdQe5gqMDHCZbBqqEvQW6JesABmJLB3OkNQRrYH0BYkXnBuRgXQWtSjj8nsYTBadkF
QTJ3aMBnR5/Bc14XQXzfEsAAXpvB8RLTQMNDuT+cVXjBIt9ZQOgdW0C5d5HB+bHBQNI+UUAmsZ3B
yVWhQDLnrz87CI3BhhxwQG4Rs0DTYIHBpxVHQF0+uEDYUo3BCbG/QN4mD0EBtZTBzehWQI9qgkD1
ZKPBfeZNQahujj+dMk7BRKlIQYBpo7sW51rB9Ec+QbvCBUC3q0nBg8ozQdTLGL70BWPBIVwpQerj
+D9Dt1HBE+/bQN5OjT/0a6jB8SChQGYH8r4iA6bBN7bmQHsCor8WJazByQskQbxGUD/iJ17BFk6x
QNKlVj+/SKXBk432QMCwWD3a0qvByvK7QKZ2w79BPKnBKIv2QPLgY7/T7o7B4/riQEagCEAEhYzB
m9exQO+V7L91FIzBqy7DQM3duEC5E5TBD3K6QKT3VL+Ja4PBVu6OQL6X6EDq94zBtgDfQCfKDsCn
o4/Bcmu+QPik5UADlY/B32+hQMlfnkDb5o3BtVAAQUv3msDLHWbBo+sNQaSbKj8zUmfBef2TQMom
+j/3m6HBck/2QOKnTMCG84fBY+XVQAM3k8Bm7XHBtfoMQVHWrT83OH3B6r/cQH9Nj8ATKoXBPojs
QKt9mj9SN4PBqB+KQB6ZekAp/JTBPvqpQAHiOECbdZnBLIPiQDbaK74ToobB37G5QHTZBUBDgZDB
HOqBQPc9vUAXf4nBiBoMQe9OHr+IeZPBSYf+QBt7N0CRU5DBanTWQFLT6UBk+4XBjkBpQFZdkkAe
lJ3BwrwPQT+bnj5Fqq7B5f2sQOP0MsCuJ6nBHehdQb1BnD+J60fB+alUQYAgQL8lZ17BgVtCQWjI
PEAKCkDB9tUvQQQqf78M+mzBz2gdQTCNLECYYE7BfxDoQGtaB0CcNKjBkQaAQGc8K7/RFqTB/1L7
QMTVBMBtnq7BmHugQM8ELsCE54jBKoSfQJD3s78ttZLBQoe8QMp9uEDHt5zBwJXjQGVrrECLnZLB
RSOgQDva073r8oLB01C+QIP3qb8OQHfBJ4WJQNHb/0A4gYbBzmp5QMtJ8kC8GJTBTRffQHCxJ8DJ
3pfB92LHQLrE/UDmlZXBU2yxQJVzjUAUTYfBYqH6QNKXncDj0lTBzJ4HQRbKuMBX82vBzToLQf8I
gMA7K2nBtx8KQTVtzb5JM2nBFD0CQRPgkD8od1zBPkSKQLP8IkBPnajB3f1uQJBuwT+92Z3BE1AK
QS4LYMDEtYvBcQz9QLEoKsCod4DBtTXAQFMxrsBZum7Btm3HQHrgasA88mvByNAQQX06G0DxX3vB
a5kYQaYCZD9BD4TBRma9QP4AjsAdJ4nBY5DuQNZvq8A7BIjBLivWQEkavD+kgXnBPWtlQNJ8WEBF
/I/BzZPEQMySWkDrZJ3BABGlQGGyuz+v+4zBJcOBQM+eu0C/gYHBXV1JQNeJtkBTSYzBvTvTQBb/
AkExPYPBX8tMQP5+e0Bv4qHB

> <OMEGA_E>
DBRMP6wlSz/w1Ug/SvBDP44oPD8=

> <OMEGA_NBR>
     61420

$$$$
50197410
  -OEChem-04172616093D

 82 85  0     1  0  0  0  0  0999 V2000
   12.8665    0.8777  -13.0069 C   0  0  0  0  0  0  0  0  0  0  0  0
   12.4430   -0.2037  -13.8058 C   0  0  0  0  0  0  0  0  0  0  0  0
   11.9666    1.9127  -12.6789 C   0  0  0  0  0  0  0  0  0  0  0  0
   11.1157   -0.2563  -14.2672 C   0  0  0  0  0  0  0  0  0  0  0  0
   10.6374    1.8599  -13.1364 C   0  0  0  0  0  0  0  0  0  0  0  0
    6.7223    1.1660  -21.0897 C   0  0  0  0  0  0  0  0  0  0  0  0
    4.9227   -0.4420  -20.7257 C   0  0  0  0  0  0  0  0  0  0  0  0
    7.0506   -1.1797  -21.6665 C   0  0  0  0  0  0  0  0  0  0  0  0
   10.2087    0.7640  -13.9109 C   0  0  0  0  0  0  0  0  0  0  0  0
    5.4160    0.8754  -20.6314 C   0  0  0  0  0  0  0  0  0  0  0  0
    7.5402    0.1375  -21.5922 C   0  0  0  0  0  0  0  0  0  0  0  0
    5.7371   -1.4647  -21.2505 C   0  0  0  0  0  0  0  0  0  0  0  0
    6.5382   -1.1812  -15.9288 C   0  0  0  0  0  0  0  0  0  0  0  0
    6.9657    2.1164  -17.5149 C   0  0  0  0  0  0  0  0  0  0  0  0
    7.9658   -2.2285  -17.5998 C   0  0  0  0  0  0  0  0  0  0  0  0
    6.1287    5.7463  -18.2841 C   0  0  0  0  0  0  0  0  0  0  0  0
    7.6939   -0.7749  -17.9451 C   0  0  0  0  0  0  0  0  0  0  0  0
    4.8037    7.1828  -16.8571 C   0  0  0  0  0  0  0  0  0  0  0  0
    6.9778   -2.5438  -16.4693 C   0  0  2  0  0  0  0  0  0  0  0  0
    5.9435    7.2137  -17.8747 C   0  0  2  0  0  0  0  0  0  0  0  0
    4.9218    4.9940  -17.6676 C   0  0  2  0  0  0  0  0  0  0  0  0
    4.0950   -4.7867  -18.9972 C   0  0  0  0  0  0  0  0  0  0  0  0
    8.7954    0.6977  -14.3971 C   0  0  0  0  0  0  0  0  0  0  0  0
    4.5014    1.9803  -20.1394 C   0  0  0  0  0  0  0  0  0  0  0  0
    5.7514   -3.3518  -16.9318 C   0  0  0  0  0  0  0  0  0  0  0  0
    3.6964   -3.4009  -18.4573 C   0  0  0  0  0  0  0  0  0  0  0  0
    8.6757    1.4269  -15.7446 C   0  0  0  0  0  0  0  0  0  0  0  0
    4.9200   -2.6001  -17.9960 C   0  0  0  0  0  0  0  0  0  0  0  0
    7.2652    1.2131  -16.3231 C   0  0  2  0  0  0  0  0  0  0  0  0
    4.2265    3.9936  -18.6207 C   0  0  2  0  0  0  0  0  0  0  0  0
    5.2031    2.9164  -19.1304 C   0  0  1  0  0  0  0  0  0  0  0  0
    7.1023   -0.1901  -16.7330 N   0  0  0  0  0  0  0  0  0  0  0  0
    5.6660    2.1177  -17.9925 N   0  0  0  0  0  0  0  0  0  0  0  0
    3.9691    6.0436  -17.2609 N   0  3  0  0  0  0  0  0  0  0  0  0
    5.7918   -1.0042  -14.9732 O   0  0  0  0  0  0  0  0  0  0  0  0
    7.8495    2.7827  -18.0443 O   0  0  0  0  0  0  0  0  0  0  0  0
    5.5667    8.0058  -19.0036 O   0  0  0  0  0  0  0  0  0  0  0  0
    3.6689    4.6942  -19.7322 O   0  0  0  0  0  0  0  0  0  0  0  0
    8.7885    0.4197  -22.0262 F   0  0  0  0  0  0  0  0  0  0  0  0
    5.2607   -2.7252  -21.3467 F   0  0  0  0  0  0  0  0  0  0  0  0
   13.8834    0.9137  -12.6448 H   0  0  0  0  0  0  0  0  0  0  0  0
   13.1367   -0.9905  -14.0631 H   0  0  0  0  0  0  0  0  0  0  0  0
   12.2978    2.7457  -12.0766 H   0  0  0  0  0  0  0  0  0  0  0  0
   10.7916   -1.0751  -14.8924 H   0  0  0  0  0  0  0  0  0  0  0  0
    9.9487    2.6560  -12.8950 H   0  0  0  0  0  0  0  0  0  0  0  0
    7.0926    2.1799  -21.0539 H   0  0  0  0  0  0  0  0  0  0  0  0
    3.9195   -0.6673  -20.3953 H   0  0  0  0  0  0  0  0  0  0  0  0
    7.6824   -1.9709  -22.0424 H   0  0  0  0  0  0  0  0  0  0  0  0
    7.7816   -2.8761  -18.4696 H   0  0  0  0  0  0  0  0  0  0  0  0
    9.0031   -2.3598  -17.2580 H   0  0  0  0  0  0  0  0  0  0  0  0
    6.1246    5.6485  -19.3798 H   0  0  0  0  0  0  0  0  0  0  0  0
    7.0741    5.3511  -17.8842 H   0  0  0  0  0  0  0  0  0  0  0  0
    8.6304   -0.2591  -18.2038 H   0  0  0  0  0  0  0  0  0  0  0  0
    6.9915   -0.7046  -18.7887 H   0  0  0  0  0  0  0  0  0  0  0  0
    5.1962    7.0342  -15.8403 H   0  0  0  0  0  0  0  0  0  0  0  0
    4.2261    8.1183  -16.8940 H   0  0  0  0  0  0  0  0  0  0  0  0
    7.4990   -3.0994  -15.6757 H   0  0  0  0  0  0  0  0  0  0  0  0
    6.8622    7.5924  -17.4029 H   0  0  0  0  0  0  0  0  0  0  0  0
    5.2681    4.4473  -16.7780 H   0  0  0  0  0  0  0  0  0  0  0  0
    3.1933   -5.3294  -19.3173 H   0  0  0  0  0  0  0  0  0  0  0  0
    4.7731   -4.6648  -19.8547 H   0  0  0  0  0  0  0  0  0  0  0  0
    4.6038   -5.3561  -18.2055 H   0  0  0  0  0  0  0  0  0  0  0  0
    8.5014   -0.3547  -14.5237 H   0  0  0  0  0  0  0  0  0  0  0  0
    8.1329    1.1775  -13.6617 H   0  0  0  0  0  0  0  0  0  0  0  0
    4.1696    2.5757  -21.0028 H   0  0  0  0  0  0  0  0  0  0  0  0
    3.6275    1.5247  -19.6506 H   0  0  0  0  0  0  0  0  0  0  0  0
    6.0966   -4.3041  -17.3607 H   0  0  0  0  0  0  0  0  0  0  0  0
    5.1112   -3.5529  -16.0602 H   0  0  0  0  0  0  0  0  0  0  0  0
    3.1837   -2.8417  -19.2538 H   0  0  0  0  0  0  0  0  0  0  0  0
    3.0143   -3.5330  -17.6045 H   0  0  0  0  0  0  0  0  0  0  0  0
    8.8513    2.5026  -15.5957 H   0  0  0  0  0  0  0  0  0  0  0  0
    9.4234    1.0269  -16.4452 H   0  0  0  0  0  0  0  0  0  0  0  0
    4.5768   -1.6470  -17.5673 H   0  0  0  0  0  0  0  0  0  0  0  0
    5.5603   -2.4005  -18.8679 H   0  0  0  0  0  0  0  0  0  0  0  0
    6.5359    1.4385  -15.5310 H   0  0  0  0  0  0  0  0  0  0  0  0
    3.4242    3.4908  -18.0609 H   0  0  0  0  0  0  0  0  0  0  0  0
    6.0558    3.4053  -19.6243 H   0  0  0  0  0  0  0  0  0  0  0  0
    4.9984    1.5344  -17.5298 H   0  0  0  0  0  0  0  0  0  0  0  0
    3.4079    5.7305  -16.4947 H   0  0  0  0  0  0  0  0  0  0  0  0
    3.3771    6.2960  -18.0264 H   0  0  0  0  0  0  0  0  0  0  0  0
    5.4562    8.9099  -18.7339 H   0  0  0  0  0  0  0  0  0  0  0  0
    3.2429    4.0766  -20.3150 H   0  0  0  0  0  0  0  0  0  0  0  0
  1  2  1  0  0  0  0
  1  3  2  0  0  0  0
  2  4  2  0  0  0  0
  3  5  1  0  0  0  0
  4  9  1  0  0  0  0
  5  9  2  0  0  0  0
  6 10  1  0  0  0  0
  6 11  2  0  0  0  0
  7 10  2  0  0  0  0
  7 12  1  0  0  0  0
  8 11  1  0  0  0  0
  8 12  2  0  0  0  0
  9 23  1  0  0  0  0
 10 24  1  0  0  0  0
 11 39  1  0  0  0  0
 12 40  1  0  0  0  0
 13 19  1  0  0  0  0
 13 32  1  0  0  0  0
 13 35  2  0  0  0  0
 14 29  1  0  0  0  0
 14 33  1  0  0  0  0
 14 36  2  0  0  0  0
 15 17  1  0  0  0  0
 15 19  1  0  0  0  0
 16 20  1  0  0  0  0
 16 21  1  0  0  0  0
 17 32  1  0  0  0  0
 18 20  1  0  0  0  0
 18 34  1  0  0  0  0
 19 25  1  0  0  0  0
 20 37  1  0  0  0  0
 21 30  1  0  0  0  0
 21 34  1  0  0  0  0
 22 26  1  0  0  0  0
 23 27  1  0  0  0  0
 24 31  1  0  0  0  0
 25 28  1  0  0  0  0
 26 28  1  0  0  0  0
 27 29  1  0  0  0  0
 29 32  1  0  0  0  0
 30 31  1  0  0  0  0
 30 38  1  0  0  0  0
 31 33  1  0  0  0  0
  1 41  1  0  0  0  0
  2 42  1  0  0  0  0
  3 43  1  0  0  0  0
  4 44  1  0  0  0  0
  5 45  1  0  0  0  0
  6 46  1  0  0  0  0
  7 47  1  0  0  0  0
  8 48  1  0  0  0  0
 15 49  1  0  0  0  0
 15 50  1  0  0  0  0
 16 51  1  0  0  0  0
 16 52  1  0  0  0  0
 17 53  1  0  0  0  0
 17 54  1  0  0  0  0
 18 55  1  0  0  0  0
 18 56  1  0  0  0  0
 19 57  1  0  0  0  0
 20 58  1  0  0  0  0
 21 59  1  0  0  0  0
 22 60  1  0  0  0  0
 22 61  1  0  0  0  0
 22 62  1  0  0  0  0
 23 63  1  0  0  0  0
 23 64  1  0  0  0  0
 24 65  1  0  0  0  0
 24 66  1  0  0  0  0
 25 67  1  0  0  0  0
 25 68  1  0  0  0  0
 26 69  1  0  0  0  0
 26 70  1  0  0  0  0
 27 71  1  0  0  0  0
 27 72  1  0  0  0  0
 28 73  1  0  0  0  0
 28 74  1  0  0  0  0
 29 75  1  0  0  0  0
 30 76  1  0  0  0  0
 31 77  1  0  0  0  0
 33 78  1  0  0  0  0
 34 79  1  0  0  0  0
 34 80  1  0  0  0  0
 37 81  1  0  0  0  0
 38 82  1  0  0  0  0
M  CHG  1  34   1
M  END
> <OMEGA_C>
M91NQaivYD8SHFDBihZHQaygUL6J5FzBK3c/QTbS9D+u3ErB19kxQXE2g75lRmTBxjIqQXwR7j+d
LlLBvBzXQPBAlT+/t6jBFoedQEVP4r4yzqXB2Z7hQBcAl7/1VK3Bq1YjQdCSQz/tkl7BLFCtQEQd
YD8KDaXBR0nxQP7YDD7YvKzBqpa3QGB8u7/4AKrBtjjRQEEwl7+E3H7B1ObeQMxyB0B4HozBE+j+
QAOfDsBQzIzBBR7EQG/ht0DpRZLBwjT2QOBhRr+Yj4/BkbeZQMfZ5UBL24bBUErfQDnOIsAMwYPB
FzG+QLfW5kBi/47BwH+dQIbOn0AwV43BfgqDQKwsmcBb+pfB0LkMQZSZMj+eWmbBIQuQQHJ5/T9u
HaHBOAu4QD+EVsBadIfBiJJsQFuoWcCXqJPBj88KQT+ltj+v6XvBeHCdQHlnJsDp94/BLXzoQFFI
mz/GlYLBTT+HQPSXf0BK95TB7H+mQH2mOkAYC5nBLEbjQPKcQr4n3YXB5E+1QMSIB0Co8I/BggV+
QPJkwUBaForBpla5QMeKgL8ykm/Bdi/7QPMXMkC9WpDBjyKyQJoXAEFuB5jBnM9qQP42lkCQ253B
uZ0MQSfl1j6jNbDB81eoQDJpLsAIxqrBSSJeQcLlaT8TUUrB7y9SQRKRfb9dAmHB1sNEQR+5L0CS
OUHBT6osQeScib88R27Bty0fQfz7KUDVUU7BqPbiQOODC0BPbqjBadl6QG/XKr+DKaPBUdb1QLlF
/L/EVrDB1gL5QKYSOMCuwZPBtQwQQZ0GF8BVEIrBAP3DQOLAtEDKCZvBUF/iQBQ8q0DtEo/BOBYK
QaqnhL5WoZHBjbrfQBFjNL9MT5bBOEemQMcX4UDrcX3BVjyHQIbkAUHpJofB6PfvQMpcRsDIz3rB
F5fbQB318kAzOYvBDpSoQI9QjkBcOYbBDV9MQBaKqsDBiZrBj72YQEFGlcCH1p7Bh1KTQDVlq8DL
pJHBmAUIQa6gtb4eYWjBVyACQcq4lj9CllrBim2FQKLXJECsBajBQiloQAEqwz93NJ3BKRfDQIa7
icCn4orBvo6jQFliY8BEe4DBDMFLQLbeNcDDB5rB++pAQJ0cYsAI1ozB1Z4NQd4pIEDZh3nBNcYW
Qflvgz+2j4PBP3WSQLLP0r/RiYzBPe6xQHqhGcBz8ZbBaibRQBEguD//fnjBuCVbQGJpX0CofJDB
BsnBQPXwWUCJ/pzBNfOfQPpnxD/8PIzBbBtaQEVgt0Al9YPBHCNYQKl4yUD4NZDBHZmuQCePDkEe
35XBfYxPQMtzgkAehaLBBN1NQXpYvj+rVk/B0L1KQaCcrz7xJFzB3I48QTYzFkDh3ErBIkU2QQDM
Rz13SGTBgBEoQdJ7A0CA/1LBforWQIpfkT9H2qnBaZ2iQF1vDL86T6TBLo/lQDJznb9YuqzBKdck
QQ5OZD8vbV/ByQ6vQEZcTT/IEaXBoazxQCCR+T3hrq3BMAW+QJtRyL+iBajB2zr1QLqGeL/orY7B
DTnhQGZXBECzoIzBUb2zQA6mBsBJEIvB3VXEQIa9s0C5J5HB7AG4QPx5ZL/EtIPBICiXQKED4UAF
HobBFbDhQLkdGMDYMo7ByLq+QA704UCbVI3B+aicQDNlm0C+9ozBtx40QVKGj8B6AYDBkQwPQfx/
Fz88mGjBbzORQAwI8j9pNKHBCWP2QEnMTcALPIXBYmccQfnFhsA5q3vB8KoMQczMpz/GJH7BCx4T
Qaw2WcDLFIfBnETrQFwykj//T4PBj/iHQLaqeUB7MpXBVbunQHUhNkBqTJnBYAjhQGCad74HjYbB
s2C3QERTBEC7OpDB6Qd7QHmZvEAm4YnBmr0JQSquHr/IRJTBdA/9QD5jMEBp0pDBhMK3QL2J/UA7
Q5bBh1pwQBqylEB1F57BGJ4LQeg75j4lWrLBOXqyQNMuN8DZ+6bB54hdQV9B2j/N8kjBFg9YQWC5
nb5/tl/BUAI/QcCqTkACNEHBHOozQZ9aUr+QPG7BH9YaQUr7LUCuvE/BO+3fQK/1CkBYkqrB1vyD
QD8LTr8f36DBgpD6QO+RAMDEma/BBMWlQLKIPcDwzIbBqRGgQLAi778ZHZLBlZnFQFt7skCh8ZnB
KtLhQMbcpUAm1I3BxDSdQOSASr4v/oTBjnS4QH00m78+k3bBz4qgQDNm3EDqbXvBKPaEQN78/kDl
44bBUNvjQMzEOMDW+ZXBpuXaQCjo60AsrYjBNv6lQDrHiECE3oXBn+E6QcxVosC6wnLBycM1QYON
ocDlhIfBWsA8QT/vYcAqroDBglkNQc1o/L5A92rBMp0CQebmcT+vfl3B5/CFQBMTHkAXI6jBhFpr
QFSKtj/rK53B52vxQCM7LcB0EHvB7RPnQGOVhsAmBIXB4L8TQXhOpcBcVHrBcbwaQShxacDmpmzB
lyIQQTdmGEARB3zBE/4XQdFTYT8m3ITByMsVQdIje8C9rI7Bme8aQcgwGsBVZIfBupbVQNkNtT8j
dnnBIaxaQC48WEAgPpHBRnPCQEA6VkBgY53BiFKiQMQPvz+vVozBBvRUQIbqsUDJB4TBt2tXQNwf
xUAELZDBPVG0QFsPDUEu0pPBtgRXQBO+gUCWHqPBI2xOQZ5Uij9t707BArFJQaBX6rxvBlzBvlE+
QWgSAUAw6EnBGNk0QQzSUr7lCGTBLXApQUBy6z+Y4FHBJbPbQFimjT/NXqjBG/6hQDY6/b5+aKXB
uHzmQHxRoL94hazBR6UkQaNXNz9Zs17BAcWxQD+fUj9fy6TBaP31QOiWjz24M6zB6F68QMorxL8D
KanB+In2QPMTZ7+SfY/BPCjjQNXAB0AvI4zBtJyzQDio+79P3IvBcs/EQOwYt0CF85HBYJC8QIC/
b78JS4PBf22YQGLS40BEuobB0kfgQPi7EMCrPpDBAc+8QJ3l5UD44Y7BlOKeQKe3nUDwFo3B87H7
QNXMm8BJ5mfBopoOQZ3tCj9R5WfBlk2UQLZG9z8wEKHBMKP6QOJbUMAwhYnBvLLUQPt0lcCFwXbB
ZG8NQVREoj/7en3BSpriQGNtksBRN4fBVyXtQJZ1kj/zMYPBMLiJQNWOekBuyJTB3RyqQLOPOEB3
AZnBBs3iQMoBWr7X/4bBla65QNQtBkAh/o/BHmZ+QFwkvkBY0YnBmOELQSkJGr8AHZTBiYT+QLPR
N0CUy4/BI7+vQLPv/UAbDJjB4GVtQBM2k0CClp3BxQgPQVYWsj6ynK/BBKKtQL6BM8AzNKnBLGpe
QZlemz/3vkjBNBFWQewGPr9t51/BG/9BQRmeN0Bq8z/BBUQxQXoPhr/cQW7BQB4dQY7kI0DrME7B
VJLnQJi3B0AvKajBl4aBQHQ9Nb8T/aLBQ9r6QO1AA8CqVq/BAPCkQNmrN8CJcIjB856eQAlVx789
H5LBGmXFQAZ5s0AItJrBtVXjQK3gq0CAlY7BqlGhQPnsfb4LdILBGNbCQNqotr/0JXfBBDalQKwE
4EDfKn3BK7yEQHN6AEFnHYfBbXfeQEQrJsBenZjBHqLZQFmV80DYKovBh2aqQPdijEDh/YXBgs3w
QEnWncDFMVfBhTAGQTKKucDmQ2zBpdcIQX6KgMCvqWnB4koLQcwjB78/N2rBMbUCQUVIeD8x31zB
Tg2KQDMAIUBKEajBrEpwQKp8vT/pNZ3B/yEMQWx1X8B14Y3BrlMBQW/dMcCU2IHBm8y+QCjAsMCQ
2XTB2xrEQOqAb8BZP3LBPXcRQQsYFUA2R3vBE9AYQQR2Tz+rXoTBhfzFQJv9k8BWU4zBVtP3QPCB
rcA0E4nB+T7XQMsXsD9ZHnnBhq9hQC7wV0CQTpDBprnEQPD8WUBj+JzBA82kQMcpvz+IUozBFN9b
QFuVs0DenoPBTlxXQLA2xUDX54/BLeWqQChtDUFDCpbBio9TQGwZfkAsRaLBvFhPQSK/HD/psVDB
IqVIQcxEyr7K+l7Bp+JAQSsVzj+x/EnB2mgzQaQX0746ZmbB9qkrQSN3zD83dFHB3fXaQNetpz9F
pKnB1fmmQKg96r4dDqbBTKPrQMsIf794Uq7BXeMkQWLwEj+vYF/BjeayQK5EZz8Ef6XBOlX3QHCA
uD5L8K3BnlnDQC+Is79ggqrBgPjKQNwHer+9u3/BfZHiQMiMC0AOCYzBkQHqQP5JDcBzgI7BbOLE
QBU0t0BxbpHBEYD1QNc5Pr/8dI/By/uVQHNr5UBciIfB7kfFQBqgDsCnYobB2NC4QGdH5kDyFpDB
0HCeQGRlnUA55YzBpBuRQAVZu8Bh+JTBm3AOQXI8ED81jWfB06WTQPEW9z+vI6HB9f2XQCHXCsCD
bIvBXU+dQC1flsDRqY3BlxQNQYOasT9IWHzBEOuNQGTXV8D9mZLBkoHsQCHzoz8QkYLBb06JQIJA
fEB38JTB31KpQAwWOUCUF5nBberjQGCmyr3Py4XBTzO5QIZQB0DIBpDB1758QBtavUD0aInBC6y3
QOthOb+nJ2/BAiL+QGAbOUDwEpDBX3eoQDsr90Bu6JnBH0dwQCNmlUAkxZ3BqbUOQSCpQT9y9LHB
AMi3QA+zLMBiZ6vBRZ1fQceuHj9l3krBLs1TQTd5k7/XNmTBQBtGQWeNGEBKHj/BwjwuQZvGlr88
b3HB0pwgQT+YF0BriUzBrsjjQPGoFkBTganBsCiIQCEiRr8JE6PBdMwAQZX63L+ji7HB9X3fQHED
J8CSQpbBrrYCQbmkMsDXj4vBl9fJQL+Wr0Dk7pnBiDTiQC3mr0Dt6ozBfTkMQcghHr/6w4/BlRHn
QBionr5YspbBvESkQBKA5UDU+n7BEp2AQCOXAEEnY4jBG/HHQASHR8AlP4HBK5PUQEKq+EAMPI3B
CIWpQIz6ikAh7YXBFB+cQGmj2cDGbpHBSUFcQDw5vMBC7ZXB9j6gQNrptsBR1pzBP4UJQWEq8r4B
zmrBO8EDQXdPgD9HdVvBo8KGQEUnIUA22KfBfKxyQCvesz8bE53Blj6AQAqkCMAe74TBQ5aVQDl2
oL8GQ5DBMiyOQGHSmsABzIXBhErAQP+ClcAPtYzBJ+YQQUstHEB29XjBz3sYQUvBfT8SFITBGDJW
QM5HW8AQ0ZPBveOdQBnQTsClXJrBUWjWQJb2xT9EHHjByb1eQAJjWkAuwpDBNP3DQMT8WUBUGp3B
UsOkQEaXvj9ecIzBTzVgQK+vs0BZq4LBEahQQGyYwUBtHI/BsBuhQGU1CkFC9JjBEHtWQOwOgkDV
qqLBOI5LQS8cxj9FeE7Bn0pJQdrLyT5KPVvB+LQ5QaKQF0DIQkrB+yI1QYA4Xj02r2PBGYglQWq6
AUCinFLBUVXXQCWPjT93o6nB0sOfQFnJ+751laTBpEXiQEPYo7+QnqzBNjEjQQocXD8fE1/BDn2u
QD5NVj8JS6XBuF3xQBAHPT0WLq3BXGG5QBvzxb//WajBUkf5QB6mUb/Iy4/BD0PfQFx2A0B/f4zB
3AzQQMbXIsAbv4bBtvvCQHfqtkA6uJLBRoHAQPjQkr9tKYTBDqGUQEJJ6EAPwonBK2LtQNgTFMCo
UZDBC7zDQJcI4EApTYzBcjCeQLGpnUDlkI3Bvos1QZv4hMDWAaXBSc0NQfztBj9GomjBvp6RQBnp
+z8RwaHBKacKQXxeTcCrvo/BsSAqQaRThMDAGZrBG8MKQRlArz8j4XzB4jEWQbZaT8AaqZrBSfTo
QOq1jT+wNoPBBgiIQOKze0BJPZXBfqOnQHhEOEDAd5nBqxflQEAolr4iyIbBHfG1QJ7gA0DWbZDB
ZMJ9QDIbvkBL44nBhPoJQaRaeb7FUJXBwsP7QJzDLUCptJDBforVQN02AUFFU5LByPdqQMFqlECe
Bp7Bpn0MQdhBmj5sBbHB1D2rQCqGNMDHf6fBDQFbQeLV5j+I5UfB2gRXQZcKar44il7B0YQ7QZCB
UEBdokDBMWozQQEfUr9Mqm3By9oXQSYVKkDofE/BD5PiQFr2B0AHPqrBzcWAQJctM79rJKHBaAX2
QIvmBcBHda/BicbhQNWIPsBl9H/BvDK1QHsWTcCX3YjB+m68QBJXvUAqN5vBeHfhQHuSpUBC+JHB
+oykQH9gYr9TFInBxCO4QNqnh7/uSHfB44ORQPQh90Aw0YHBioWGQNB9/UAU1Y/BbOHbQO4QIcCC
x5fBaY7VQD8H20AI0YTBqKyqQMDfi0DCpIbBdclDQQGQmcAPhaTB+5cqQWWKkcAjI6vBkmo6Qf6G
SMDKKafBBToNQZy7Cr87vmzB9QwBQRX1QT/LE13Bh+mIQM6HJEBHyajBIARpQA15xT/LKZ7BXqEV
QV4ONMAgo4nBps8FQTFhh8Ckj43BN0wlQXQSpcAx9ZfBzh41QRuXb8DY+5PBPkMMQYTdG0Bm0njB
vxQXQRKejD8YV4TBUjULQRyYaMDMxKDBiQwbQaX3DcDF1pzB4yPRQEMRpT+vzHnBFoxdQLxSWkDj
v5DBVAvDQFqZWEA+O53B9mqgQPD6uz+O4IzBkFhpQErJtkClh4LBn99LQGL+vkD+5I7BCZXVQMHZ
DUH3GY7B1ttPQGargEDAtKLBOA9MQRaJoT/LFE3BODhJQYDaGz6Is1rBZrM6QcFTB0DYdUjBPfk0
QcDe5L32lmPBhHAmQUjl7D+GTFHBkJjZQBLSjj8iKKnBdW2gQMzW5r7+oKTBTdHiQL5lor8wiazB
KoYjQYTmOT+qmV7Bo0uwQKwQXj9mAKXBhP7yQCCTPT1Cy6zB1me5QKzWwb/xgKjBcAf6QA2XYr/b
L4/Beb/iQBHHAkDPrIzBph3EQHSWGcA5+YfB/r3FQAYXuUAz0JHBMmK7QOgpdL85R4XBDimYQLTm
5EDzvobBcjboQFsvE8AfJZDBflS6QGDX50Dsc4/BULGgQN5HnkDJ/IzBuMYJQcwp4MCGuZbB6xYO
QdDs8D6JjGjBsfOTQCurAEALa6HBXaYFQf/aVMCYE47BLBgQQdTBtsDy75DBIysMQYLGpz/O+HzB
9l36QO9el8DwpJDB6I7rQMBLjj9mSIPBz/GKQOeofkA185TBAnGqQPgoO0BmOZnBs8rkQMzOkL4y
oYbBZui4QHo6B0CsM5DB1JSAQLpFvUAHEonBdl0MQQx+5r7RNpTBHL//QEbtKUAJI5HBXEqpQO4g
/EBNyJjBDEZyQPa+lkAprZ3B7HENQeC5kD7Th7DBRnKqQMEBMsCLz6fB8JNbQdzSuj8pK0bBiJNW
QUhd/b4cT17BDfU8QSEJPkCpJD7Bds0yQb0OdL8GM27BSiYZQel9IECa6E3BgKvlQBUaCECBiqnB
WwmBQP3gJL+iXKHB/yD2QFKnBcDnbK/BvVrOQJt+PcCi2YDBYq+nQNROOMB6dovBjQPIQHO+s0Ad
fprBhVLkQCySsEDPAo7B7WijQIrAB79bworBPAawQHhnW79W+HnBjhOnQDg640Bzkn3BUKKCQJBb
AEEnGofBESfbQLGjHMAhO5jBUJfWQDbp+EDBZozBqUCtQFOdi0A3OIbBsYAXQU8w9sAD2pbB8qn4
QJxS78C/fpLBF/UEQYir2MCA+p7BtJQMQZq7GL+PimzB+l0BQSP8QD+JQ13BQh6LQCUTJ0BydKjB
g8BtQDcwzD8XvJ3B5oUTQb2+RsBGMpPByH8KQUD1UcD6n4XBnfEUQapsvsCtsojBu5EdQZbFp8Bu
LpXBHZAOQdjiF0D+F3nB71kYQbFPfT8wS4TBkYDjQAFYocB+b4rB6EnqQLYRl8DmeJjBOivUQPB4
rD8j93nB8HJiQDv5XEApqpDBE7TFQGtVW0C/Ep3BkACjQPD7yD8PT4zBMgdlQE07skCob4LBzMJU
QHyPwkCfrY7BEWeiQHmEDEHKLZfB2K9XQFN9g0A4h6LB

> <OMEGA_E>
yBzsPrQlMj+4HiM/4BgMP1YCSD/m5jk/

> <OMEGA_NBR>
     69254

$$$$
50197431
  -OEChem-04172616093D

 83 86  0     1  0  0  0  0  0999 V2000
   13.0531    0.8315  -13.1619 C   0  0  0  0  0  0  0  0  0  0  0  0
   12.5962   -0.2737  -13.9082 C   0  0  0  0  0  0  0  0  0  0  0  0
   12.1749    1.8910  -12.8550 C   0  0  0  0  0  0  0  0  0  0  0  0
   11.2572   -0.3253  -14.3371 C   0  0  0  0  0  0  0  0  0  0  0  0
   10.8338    1.8380  -13.2773 C   0  0  0  0  0  0  0  0  0  0  0  0
    6.7425    1.3008  -21.2735 C   0  0  0  0  0  0  0  0  0  0  0  0
    5.2012   -0.4868  -20.6503 C   0  0  0  0  0  0  0  0  0  0  0  0
    7.3061   -1.0154  -21.7651 C   0  0  0  0  0  0  0  0  0  0  0  0
   10.3707    0.7201  -13.9999 C   0  0  0  0  0  0  0  0  0  0  0  0
    5.5353    0.8805  -20.6753 C   0  0  0  0  0  0  0  0  0  0  0  0
    7.6344    0.3534  -21.7986 C   0  0  0  0  0  0  0  0  0  0  0  0
    6.0809   -1.4323  -21.2083 C   0  0  0  0  0  0  0  0  0  0  0  0
    6.4135   -1.0114  -15.8827 C   0  0  0  0  0  0  0  0  0  0  0  0
    7.0294    2.1607  -17.5009 C   0  0  0  0  0  0  0  0  0  0  0  0
    7.2807   -2.1062  -17.8746 C   0  0  0  0  0  0  0  0  0  0  0  0
    6.0819    5.6793  -18.1557 C   0  0  0  0  0  0  0  0  0  0  0  0
    7.9761   -0.8042  -17.6004 C   0  0  0  0  0  0  0  0  0  0  0  0
    4.4276    7.2012  -17.4035 C   0  0  0  0  0  0  0  0  0  0  0  0
    6.4306   -2.3547  -16.6264 C   0  0  2  0  0  0  0  0  0  0  0  0
    5.9332    6.9926  -17.4153 C   0  0  1  0  0  0  0  0  0  0  0  0
    4.8680    4.8667  -17.6562 C   0  0  2  0  0  0  0  0  0  0  0  0
    2.7134   -3.2885  -18.8680 C   0  0  0  0  0  0  0  0  0  0  0  0
    8.9402    0.6586  -14.4476 C   0  0  0  0  0  0  0  0  0  0  0  0
    4.5651    1.8971  -20.1362 C   0  0  0  0  0  0  0  0  0  0  0  0
    3.5394   -4.4447  -18.2656 C   0  0  0  0  0  0  0  0  0  0  0  0
    8.7573    1.4901  -15.7296 C   0  0  0  0  0  0  0  0  0  0  0  0
    4.9767   -4.0201  -17.9069 C   0  0  0  0  0  0  0  0  0  0  0  0
    7.3268    1.3048  -16.2783 C   0  0  2  0  0  0  0  0  0  0  0  0
    4.9959   -2.7478  -17.0268 C   0  0  1  0  0  0  0  0  0  0  0  0
    4.2541    3.9240  -18.7044 C   0  0  2  0  0  0  0  0  0  0  0  0
    5.2587    2.8678  -19.1586 C   0  0  1  0  0  0  0  0  0  0  0  0
    7.0891   -0.0881  -16.6769 N   0  0  0  0  0  0  0  0  0  0  0  0
    5.7322    2.1191  -17.9907 N   0  0  0  0  0  0  0  0  0  0  0  0
    3.8392    5.8534  -17.2496 N   0  3  0  0  0  0  0  0  0  0  0  0
    5.7860   -0.7610  -14.8593 O   0  0  0  0  0  0  0  0  0  0  0  0
    7.9233    2.7667  -18.0827 O   0  0  0  0  0  0  0  0  0  0  0  0
    6.3869    6.8618  -16.0709 O   0  0  0  0  0  0  0  0  0  0  0  0
    4.2106   -2.9884  -15.8615 O   0  0  0  0  0  0  0  0  0  0  0  0
    3.8141    4.6729  -19.8395 O   0  0  0  0  0  0  0  0  0  0  0  0
    8.7989    0.7629  -22.3484 F   0  0  0  0  0  0  0  0  0  0  0  0
    5.7613   -2.7445  -21.1848 F   0  0  0  0  0  0  0  0  0  0  0  0
   14.0783    0.8667  -12.8243 H   0  0  0  0  0  0  0  0  0  0  0  0
   13.2731   -1.0796  -14.1506 H   0  0  0  0  0  0  0  0  0  0  0  0
   12.5316    2.7433  -12.2957 H   0  0  0  0  0  0  0  0  0  0  0  0
   10.9084   -1.1630  -14.9228 H   0  0  0  0  0  0  0  0  0  0  0  0
   10.1613    2.6515  -13.0485 H   0  0  0  0  0  0  0  0  0  0  0  0
    6.9801    2.3529  -21.3272 H   0  0  0  0  0  0  0  0  0  0  0  0
    4.2720   -0.8091  -20.2040 H   0  0  0  0  0  0  0  0  0  0  0  0
    7.9933   -1.7456  -22.1662 H   0  0  0  0  0  0  0  0  0  0  0  0
    6.6451   -2.0270  -18.7689 H   0  0  0  0  0  0  0  0  0  0  0  0
    8.0119   -2.9159  -18.0150 H   0  0  0  0  0  0  0  0  0  0  0  0
    6.0368    5.8307  -19.2443 H   0  0  0  0  0  0  0  0  0  0  0  0
    7.0272    5.1814  -17.8937 H   0  0  0  0  0  0  0  0  0  0  0  0
    8.9575   -0.9802  -17.1357 H   0  0  0  0  0  0  0  0  0  0  0  0
    8.1083   -0.2328  -18.5310 H   0  0  0  0  0  0  0  0  0  0  0  0
    4.1360    7.8457  -16.5610 H   0  0  0  0  0  0  0  0  0  0  0  0
    4.0962    7.6591  -18.3472 H   0  0  0  0  0  0  0  0  0  0  0  0
    6.8829   -3.1371  -15.9994 H   0  0  0  0  0  0  0  0  0  0  0  0
    6.4395    7.8084  -17.9520 H   0  0  0  0  0  0  0  0  0  0  0  0
    5.1751    4.2737  -16.7822 H   0  0  0  0  0  0  0  0  0  0  0  0
    1.7002   -3.6454  -19.1046 H   0  0  0  0  0  0  0  0  0  0  0  0
    2.6516   -2.4648  -18.1415 H   0  0  0  0  0  0  0  0  0  0  0  0
    3.2000   -2.9307  -19.7874 H   0  0  0  0  0  0  0  0  0  0  0  0
    8.6654   -0.3874  -14.6487 H   0  0  0  0  0  0  0  0  0  0  0  0
    8.2923    1.0621  -13.6554 H   0  0  0  0  0  0  0  0  0  0  0  0
    4.1452    2.4719  -20.9748 H   0  0  0  0  0  0  0  0  0  0  0  0
    3.7544    1.3742  -19.6077 H   0  0  0  0  0  0  0  0  0  0  0  0
    3.0378   -4.7979  -17.3525 H   0  0  0  0  0  0  0  0  0  0  0  0
    3.5862   -5.2637  -18.9984 H   0  0  0  0  0  0  0  0  0  0  0  0
    8.9253    2.5530  -15.5016 H   0  0  0  0  0  0  0  0  0  0  0  0
    9.4836    1.1580  -16.4860 H   0  0  0  0  0  0  0  0  0  0  0  0
    5.4641   -4.8399  -17.3588 H   0  0  0  0  0  0  0  0  0  0  0  0
    5.5311   -3.8194  -18.8355 H   0  0  0  0  0  0  0  0  0  0  0  0
    6.6174    1.5774  -15.4831 H   0  0  0  0  0  0  0  0  0  0  0  0
    4.5600   -1.9211  -17.6070 H   0  0  0  0  0  0  0  0  0  0  0  0
    3.3964    3.4110  -18.2449 H   0  0  0  0  0  0  0  0  0  0  0  0
    6.1020    3.3570  -19.6680 H   0  0  0  0  0  0  0  0  0  0  0  0
    5.0737    1.5373  -17.5134 H   0  0  0  0  0  0  0  0  0  0  0  0
    3.5792    5.7016  -16.2960 H   0  0  0  0  0  0  0  0  0  0  0  0
    3.0322    5.7649  -17.8334 H   0  0  0  0  0  0  0  0  0  0  0  0
    6.2873    7.6923  -15.6204 H   0  0  0  0  0  0  0  0  0  0  0  0
    4.4537   -2.3705  -15.1821 H   0  0  0  0  0  0  0  0  0  0  0  0
    3.4366    4.0831  -20.4815 H   0  0  0  0  0  0  0  0  0  0  0  0
  1  2  1  0  0  0  0
  1  3  2  0  0  0  0
  2  4  2  0  0  0  0
  3  5  1  0  0  0  0
  4  9  1  0  0  0  0
  5  9  2  0  0  0  0
  6 10  1  0  0  0  0
  6 11  2  0  0  0  0
  7 10  2  0  0  0  0
  7 12  1  0  0  0  0
  8 11  1  0  0  0  0
  8 12  2  0  0  0  0
  9 23  1  0  0  0  0
 10 24  1  0  0  0  0
 11 40  1  0  0  0  0
 12 41  1  0  0  0  0
 13 19  1  0  0  0  0
 13 32  1  0  0  0  0
 13 35  2  0  0  0  0
 14 28  1  0  0  0  0
 14 33  1  0  0  0  0
 14 36  2  0  0  0  0
 15 17  1  0  0  0  0
 15 19  1  0  0  0  0
 16 20  1  0  0  0  0
 16 21  1  0  0  0  0
 17 32  1  0  0  0  0
 18 20  1  0  0  0  0
 18 34  1  0  0  0  0
 19 29  1  0  0  0  0
 20 37  1  0  0  0  0
 21 30  1  0  0  0  0
 21 34  1  0  0  0  0
 22 25  1  0  0  0  0
 23 26  1  0  0  0  0
 24 31  1  0  0  0  0
 25 27  1  0  0  0  0
 26 28  1  0  0  0  0
 27 29  1  0  0  0  0
 28 32  1  0  0  0  0
 29 38  1  0  0  0  0
 30 31  1  0  0  0  0
 30 39  1  0  0  0  0
 31 33  1  0  0  0  0
  1 42  1  0  0  0  0
  2 43  1  0  0  0  0
  3 44  1  0  0  0  0
  4 45  1  0  0  0  0
  5 46  1  0  0  0  0
  6 47  1  0  0  0  0
  7 48  1  0  0  0  0
  8 49  1  0  0  0  0
 15 50  1  0  0  0  0
 15 51  1  0  0  0  0
 16 52  1  0  0  0  0
 16 53  1  0  0  0  0
 17 54  1  0  0  0  0
 17 55  1  0  0  0  0
 18 56  1  0  0  0  0
 18 57  1  0  0  0  0
 19 58  1  0  0  0  0
 20 59  1  0  0  0  0
 21 60  1  0  0  0  0
 22 61  1  0  0  0  0
 22 62  1  0  0  0  0
 22 63  1  0  0  0  0
 23 64  1  0  0  0  0
 23 65  1  0  0  0  0
 24 66  1  0  0  0  0
 24 67  1  0  0  0  0
 25 68  1  0  0  0  0
 25 69  1  0  0  0  0
 26 70  1  0  0  0  0
 26 71  1  0  0  0  0
 27 72  1  0  0  0  0
 27 73  1  0  0  0  0
 28 74  1  0  0  0  0
 29 75  1  0  0  0  0
 30 76  1  0  0  0  0
 31 77  1  0  0  0  0
 33 78  1  0  0  0  0
 34 79  1  0  0  0  0
 34 80  1  0  0  0  0
 37 81  1  0  0  0  0
 38 82  1  0  0  0  0
 39 83  1  0  0  0  0
M  CHG  1  34   1
M  END
> <OMEGA_C>
XdlQQRzcVD8xl1LBLIpJQdYcjL4viF7BccxCQdwM8j8Qrk3BVR00QU6Tpr6yZGXBXVctQbJD6z8G
cFTBo8LXQH5/pj8dMKrB82+mQGZA+b7AM6XBZsvpQPj3gb/dHq7BdO4lQdZaOD+9/1/BMiGxQEhm
YT/qZqXBGU30QBLytD58Y67B15bCQORVt7+BqqnByjvNQPx1gb9zH37B3vDgQLNJCkDOAYzBfPvo
QFrLBsAx/47BOZ/CQBO9tUDzPpHBkjz/QGPeTb+RzYzBh66NQIlw5kBSOovBG8fNQBezFsDMAoXB
ady9QFXD30B+UovBfsabQPO7m0D6P43BJqktQF12UsC08ZbBAQsPQeqaKD81KWfBhBWSQPPU8j8C
F6HBP4ViQBA7jsDoH5LB5R0MQb67vj9qrHvB2UCfQNmkgMBgQY/BbXXqQDEEpz/6OYLBCN6fQN/b
L8DaNojBtSGIQDMje0CqopXB4UaoQLaJN0DRRJnBydniQNhjtL1SaoXBEW63QFCfB0AG7Y/BObZ1
QDBPu0Az/4nBlya5QDHQQr+hv23BW4v9QEYRMUBIqZDBamHMQA6U20BMkYDB6ryGQBlCP8C7yH3B
ixp0QAuIlUA5t57BZ8gMQWVOQz96ybLBQly4QMGlL8CMeqnB6EBhQTrgXT90ME3BvV5UQXEvir+s
aGLBnoFIQe2RL0BGu0TBooguQUrclL/1w27B4ZQiQV2yKUCkxlDB11zfQJyWFkASnqrBK7SIQB4g
T7+6oaHBXMn/QKBv379MVLHBl6TUQJS6AcCuJpbBwDAAQcWdOsChHpDBJC3BQHiVukBj9JnBb97g
QEHOpUBRJo/B6FEPQXXwer/aFYnBursBQVtbbr5xP5TBaFqEQJUP+0D0fITB+BODQKsX9UD3xpLB
AkHcQAnHSMCC/X/BkxDOQBHe+UDMnY/BbZqlQNbBiEDkQYbBUaDZP/VNacAl1pjBjrQpQNK/HcDX
IZHBgcxMQLOQO8CgTJ7BpKUKQWVTxr4jYWrBQa0EQcPxhz+mfFrBaaWEQCM0HkB2zKfBaUhwQBLm
rz+j3JzB1mtCQB6ImcDo0YrByYNlQI5wqMCw/JfBKM4OQcZkI0C2BnjB77wXQfo6lD9h44PBjtmu
QGbgmsDX3orBqP6wQJxwdMAsr5bBvMHTQBjnyT+eunfBRuuRQCXo9b8m24zBNV9ZQMxNWkB+9ZHB
iUPDQALZVkD6V53BcFuiQP7ExD+FG4zBFxFlQNpztkBCXoLBBQ9CQAl6uEDCqo7BvjHJQAwn9kBZ
7XnBvISOQLC2F8Db6XLBo/BbQAypgkAQ2qPBzj9OQagycD9iR1DB3WtHQQY7KL6Wj1zBldk/QV5g
/T/ZXEvBfSQyQR7KbL6jyWPBz4cqQa619D9Fg1LBNM7YQM4SlD/AmKjB3AKfQHVg5b4T2qXBRlbj
QLY5mL8PMq3BeJ8jQRB4Sz8GaF7B6dquQNL6XT8YC6XB1hDzQJQPAj7HjazBlC25QNqivL9496nB
65vRQON5mr8pLn/BbGLfQPFNB0C09YvB03r/QGJbDcDLMI3BYwLEQI/Jt0Bi75LBOq30QBDSRL8p
04/BA5GQQIr56kB6jI3BzWfhQHT6I8B/44PBUp7AQHJa5EA+PY7BR2OeQLCjn0Bkno3BfowtQObr
PcDzvZjBX/oMQUjVNj9nHWbB/muRQGoX/D+jMaHBAulvQL4jbcDf9ZHB2CELQS5ztD/d6XvB38ud
QAksMsDBZI/BBQHpQKhcmT+1gILBcTa7QPtYXcCBHYfBfgiIQKgvfkAtCpXB14GnQDjFOUAvD5nB
G8TjQNyjUL5g3IXBRQS2QGKzBkCH6o/BMxJ+QP3rwEBBSIrBKW25QOJhhb80+G/BDJb7QBv/MkDv
DpDBVOTRQDgX5UAMsoPBv8jKQOIYlsDCYovB7y1rQOHolECy9J3BYpQNQXdA0D6P7a/Bp+ipQGbt
LsA/3arBxI5eQQ5XfD/unUrBVoRSQTjYdL8iamDBHi9FQVEINUDSHELBTu4sQXB0iL/Fbm3BpoEf
QfuVLUAx507BTLLkQG/iCkCRRajB9IB9QD2aK78sUKPBxp/3QKWM/b94KrDBKnP5QEcZN8BbHZTB
7pIQQfVRE8C+u4rBFFrAQHKIuEB7r5vB3dPiQNnrqECQ3pDBs8EIQVvfZb4MYJLBg3HcQCT6OL9X
MpbB0taIQPnIAUGdjofBapmDQM+W9EBqXpXBGOPzQLt9RMASMnvByoXPQLc6/EAdhpPBMGiqQEG0
jkBsg4bBW4HvP9cSacCIgprBGPIVQH3SBcC1UZTB4zVLQHvfKMDPRqDBLUcIQbSfrr4TumfB6V8C
QR0dmz+6ilrBdSGHQAc3JEBPIKjB/o1qQHi4wT+rXp3By/RRQE0bgcDscYrBS5yDQMyhksAHZ5bB
fSYOQUYlH0Ck+HnBYfsWQU3Mez+if4PBRAKwQIx/JcBuwZbB972RQJ/i6r8XHozBENPRQIl8tT8+
PHjBfjOoQLovasAwxX/B6HddQLr+XUAwbpDBX+bCQC5PWUCt7pzB7p2gQGXdwT9STIzBQCV2QGUc
wECuWILBidFFQGXZu0B04Y3BqJXPQKCVAEEU14DBMU2zQP+zp8DEXY3BurhPQDDNgECrgaLBiNBO
QXlRiT8sZVDB85NIQeF8gb0pM1zBWs8/QbZyBUD1wUvBGVMzQWyOQb7HU2PBHYQqQdmy+j/6zlLB
zc/ZQIINjD+TZ6jBzm6hQBOsCL8su6TBHmrlQBvBob+fW6zBwDokQfsoUD9RYF7BSVewQMEJTD/U
jKTBs2j0QMd+gD21LqzBGdG7QN97x79Qv6jBarPRQM/qkr8WgIDBSwzgQKxpDEBit4vBi0b1QCwn
DMBCT4/BeyvBQIcnukDGlJTBdAQBQZ72Or+7m47BKDqZQEYI5kAGFYjBDMTmQHGpHcA724PBTh26
QEaJ6ECeF5HBgGSfQF0BoED7VY7B2nRQQHUjWMC3RpXBkLMNQdZ+Lz99cGbBBHeSQNs69D9aD6HB
h8GJQNhhPMAtC43BREMLQSukvz+eJ3vBl+GqQD1AgsB/OIvBI/vpQEoYoD/NhYLBa0vKQBlFbsDq
/oHBNWqIQJbne0CQJpXB90aoQKRIOEDVLpnB71jlQCbnCr44dobBSXS3QESxBkAmCZDBnieAQNl6
v0AKYYrBKhi5QPMffb8r8HHBScL6QHsbP0DvHY/BvLDgQLn9+kB8PY3Bl9LlQDGymsDNEYDBC25n
QN75kUCXBJ7BiQ8OQQTXsj4FzK/BOxKtQIbENMAsWanBfh9fQYiDlT/L40rB6BpUQfsVVr/KxF/B
oadEQcJHPUD0y0LB+pEuQf+Yhr+Ek2zBLgcfQSkeL0DzXk/B9RPlQKNeB0BtcqjBO82BQPNNRL+G
yqHBt9T5QAqSA8CLQ6/BawrbQOHPFcAZDZXBuEwIQcTBNMCxjJHBTEC8QOfItkAGQZ3BF67hQNqI
r0DRf5LB0NQRQdUMI78OHozBy479QF8scL45YpbB20CpQM4740BFR4DBgZSEQDhFAUHOGYjBS9kB
Qb+2JcBe5H3BvOusQLMa+0AmzZfBKyavQGsfkEC9iofBZfUhQJ0lJMDzd5bBhDlwQAO0ZsBV6pzB
JwQvQM7DiMA+XJLBHCAKQdy7vr51qWnBX4kCQdvsiD9JTVrBKiSIQL4fHkDpKqjBxb1sQEIzuz+T
Ip3ByFOaQETkAsBk+4/BMnJzQNy3LcBNbYXBlBQNQZ5VJEAHinfB9q0XQbc5mD+PToPBttGZQLb0
n8BdMonBEUu9QAD/hsBeoJLB5ATSQBC3tT9ycHjBUvq2QAdJYsAzlnXBSQZhQOfEW0BmF5DBYDHD
QItAWEAANZ3BBPuiQAk8uz9Kp4zBq8VjQM/DtEACvYPB+AhUQAuHxUBa9I/BVYXbQGvdC0E8IIvB
qBnVQGuos8AU033B+StLQH3HeUBPM6LB6x9MQX2GuD+DWk7BoXBJQZEflT4HHlvB1oc6QWbnEUAP
90nBOB81QeCM4bwuYWPBIDImQe/z+j89KFLB9WbYQJpDij/mSKnBkAyfQHIH8b6wjKTBeOvgQHeL
p7/ck6zB428jQWTuSz+vnV7BdCKvQFbyVz+OEqXB5l7xQABHHzsy9azByr+3QOiSxb/sWqjBMTT4
QJYpWL8vho/B/jLgQBLgAkDFMozBcWvJQCR1IcCJfofBfUTFQNAht0DwQZLBtZi9QIztjL/ucoTB
02mRQH776ECnJozBENvqQLT2FMBpSZDBrojBQI/c4kBrE43BhrWfQPnUnUBXS43BObM1QahRhMA5
jKPB5+QNQV2f+T7OC2jBDwuTQNM7/z87laHBp0YoQUMDicBWQ5nBrxcLQfcIqT9UaXzBC/UXQfjJ
SMB1mZjBGmDpQLXaij9h7oLBsZUIQSRDUsCY6o7B6daJQNYhfUBTIJXBt02pQNgvOUCTRJnBvW7k
QHp+or5zeIbBEwK3QDNjBECyNJDBReZ/QLEcvkBmoYnBABkJQet3iL7dOpXBmez8QKBsLUCMRpDB
Y4vTQBQ54kDXnILBZXETQZ9RQMBvFIXBsEpwQMiglUAv8Z3BNKMMQc7aZj63vbDBCpGoQHSWM8Cz
hKfB77JbQeEw1z9k7EfBufhWQXK4sL62jV7Bjqg8QQGhSkDHUkDB0xMzQWKZZr/4Vm3BBrgYQW+/
JkA56k7Ba8fkQHSWBUCZr6nBlWZ/QNpYJ79OOKHBZdjzQGKZCMAxha/BpgzXQFUMRMD9oIDBuWit
QMN4RMD+iIrB9tXBQA5suUA2/5rBCh7kQC4VqEC2TpDBT/iiQLHOPL+PaonB9om0QHzMhb/16XfB
ZdmJQEG5/0CrtIXB2iWEQBzX9EB1vpPBUO3bQFp1IMAjIJjBBNfPQNG7+0BjLJLBrKirQKSpi0Dk
X4bBxWFBQSiVnsA4AqTBmBYrQW+ChcDaj6rBaDQ+QSsDS8BAaaPB4+sMQbY7Fb8l+mvBAUUBQYFJ
Pj90fFzBn/SKQMN5JkAKo6jBXRZrQKtVyz8QC57BUMcfQVHVp8D8ZpnBH+UyQXjUh8BiQJLBWv4M
QenCGECNh3jBDkYXQW85gz/9GYTB1qggQermC8Aj1pfBQmwOQd4vSMD4/p/BNdDRQGFTpD8zLnnB
cXsCQS8lisBQ0o7BSB5gQN8RXEC4yZDBbPzEQEXqWEAd/JzB4iKhQNMXvj9VsozBU692QBVZu0B5
voHBM1BIQCDJuUDzcY3BcvvQQGnI/UCB8H7B/TUfQZJHZsBgSoTBLnxVQP8ugkBIuqLBvTJNQbQu
uT/0ME7Bon5KQQYrlD6jyVrBmro7QTeXE0CgZErB6UY2QUCHhbzUcWPB+X8nQYAXAEBbBVPBEGjW
QJh/jz+iXqnBg/qhQIjBDb+256PBgwzkQDQWn79otqzBU68kQVcHVD+sRl/BIvyuQJssSz/ehaTB
du3wQIh91j2Aaq3BTH+8QC4Vyb+Y+KfBXvb0QPoOZL+fw4/BbxbiQOEiBEDzlozBETi4QPx+CcD8
bYrBJZHFQOAHskANT5DB3e6/QEhfh7+CQoLBth2VQIeW50Cfw4rB9cHkQJv6FMD1M4/BPCjEQHyv
20CbJIrBoB+cQJGjm0AtqozBJ28AQf+Sv8CZrGfBYycPQT2OBT8D8GjBolCRQPBi8T8gp6DBtnwK
QRZFncDk9HXBpOQMQRbxoz9rJn7BbVnyQNmriMA2+4HB7NLrQFTdkD/NX4PBS64CQeF/RMCRBojB
1RaIQOxOe0AcGZXBRvenQLxiN0Ce+ZjBOdbhQNwQaL7WEYfBoa63QPcXCECHto/BEiZ7QI9/vkDo
8YnB4AkKQdMMBL+N7pTB/9f+QF6AJkBktpHB8AXPQOWw1EA3Z37BYtYTQTXQXsDNyY7BTXpzQOzS
lUCVFp7BskkLQQp72j7jEbLBNiSwQDNJN8CHM6fB7q1cQQhu1j/pcEfBF+9XQWPNub5IzF3BTtw9
QcujTEBa30DB/T00QfZeZb++Qm3BcCQaQUqJKkCgRFDBdzXgQDTbCUBl+KnB/5yDQMNFTr88TqDB
enj4QO2EAcDpza/B6+esQHa6RMAbm4bB/QKhQJYz6r8JiZDB3GLFQK/Jt0B8/ZjBZvfhQDYZn0Az
KI7BprKiQJcf776j9IDBdqrKQMUpvr+DOHXBLWOMQB3y/EBDHoTBlASOQFJz90C7apLBHizjQHgh
MsAHNJfBDk/YQMM29ED48Y3BxxqjQPDbiEDobYXBSOYMQTJFzsC5p13BEW/oQDbVsMDIXl3BFOfx
QGhJ2MCBunHBv9INQQ9AD7+H4mvBtnACQbuFVj9q3l3Bn3KFQD2jHEANnafBJlxsQDo9tj9scJzB
OvkRQX+VhMB442vBO7UWQbEJrMCYH4DBFGgQQTEmFkAOhnvBrDsYQVF/Xj+t8YTBgGfmQGRWoMBK
xYfBUcvXQJN1e8CMyXnB7d/VQEjhsD+BlXnB3rQIQdmqFsBjEILBJotZQFlQWkB0YpHBV5bCQEXE
VkB0MJ3Buz+iQBh70D/yTYvBQDtlQEWGukCgfoLBrgZKQD9OvkCeEo/BpQDOQE4V70CJ4HbBgj8e
QXxlfMCXqorB4+9aQLwZg0DrOqPB

> <OMEGA_E>
DEcrPzaQIj8ccBc/ytBYP+AlTz8=

> <OMEGA_NBR>
     75923

$$$$
50197266
  -OEChem-04172616093D

 75 78  0     1  0  0  0  0  0999 V2000
    7.5330    9.1746  -17.5374 C   0  0  0  0  0  0  0  0  0  0  0  0
    6.8799    9.4770  -16.3265 C   0  0  0  0  0  0  0  0  0  0  0  0
    7.2373    7.9787  -18.2192 C   0  0  0  0  0  0  0  0  0  0  0  0
    5.9205    8.5910  -15.8022 C   0  0  0  0  0  0  0  0  0  0  0  0
    6.7134    1.3038  -21.3337 C   0  0  0  0  0  0  0  0  0  0  0  0
    4.9546   -0.3648  -21.0533 C   0  0  0  0  0  0  0  0  0  0  0  0
    7.0483   -0.9664  -22.1473 C   0  0  0  0  0  0  0  0  0  0  0  0
    6.2884    7.0787  -17.6913 C   0  0  0  0  0  0  0  0  0  0  0  0
    5.6070    7.4029  -16.4886 C   0  0  0  0  0  0  0  0  0  0  0  0
    5.4398    0.9390  -20.8462 C   0  0  0  0  0  0  0  0  0  0  0  0
    7.5211    0.3484  -21.9689 C   0  0  0  0  0  0  0  0  0  0  0  0
    5.7616   -1.3196  -21.6947 C   0  0  0  0  0  0  0  0  0  0  0  0
    6.4648   -1.2150  -15.7242 C   0  0  0  0  0  0  0  0  0  0  0  0
    7.0394    1.9645  -17.4603 C   0  0  0  0  0  0  0  0  0  0  0  0
    5.9371    5.8317  -18.4830 C   0  0  0  0  0  0  0  0  0  0  0  0
    4.5965    6.4560  -15.8806 C   0  0  0  0  0  0  0  0  0  0  0  0
    7.7750   -2.4460  -17.2889 C   0  0  0  0  0  0  0  0  0  0  0  0
    7.8696   -0.9692  -17.6222 C   0  0  0  0  0  0  0  0  0  0  0  0
    6.4705   -2.5191  -16.4980 C   0  0  2  0  0  0  0  0  0  0  0  0
    5.0476    4.8491  -17.6633 C   0  0  2  0  0  0  0  0  0  0  0  0
    3.4940   -4.6205  -19.9732 C   0  0  0  0  0  0  0  0  0  0  0  0
    8.6579    1.3742  -15.5096 C   0  0  0  0  0  0  0  0  0  0  0  0
    4.5471    1.9596  -20.1999 C   0  0  0  0  0  0  0  0  0  0  0  0
    5.1976   -2.4547  -17.3582 C   0  0  0  0  0  0  0  0  0  0  0  0
    3.7212   -3.4536  -19.0258 C   0  0  0  0  0  0  0  0  0  0  0  0
    5.0541   -3.6332  -18.3015 C   0  0  0  0  0  0  0  0  0  0  0  0
    7.2937    1.1275  -16.1838 C   0  0  2  0  0  0  0  0  0  0  0  0
    4.3127    3.8275  -18.5457 C   0  0  2  0  0  0  0  0  0  0  0  0
    5.2922    2.7970  -19.1337 C   0  0  1  0  0  0  0  0  0  0  0  0
    7.1879   -0.2977  -16.4929 N   0  0  0  0  0  0  0  0  0  0  0  0
    5.7723    1.9082  -18.0463 N   0  0  0  0  0  0  0  0  0  0  0  0
    4.0197    5.5913  -16.9158 N   0  3  0  0  0  0  0  0  0  0  0  0
    5.6856   -0.9404  -14.8187 O   0  0  0  0  0  0  0  0  0  0  0  0
    7.9192    2.6854  -17.9185 O   0  0  0  0  0  0  0  0  0  0  0  0
    3.5984    4.5118  -19.5823 O   0  0  0  0  0  0  0  0  0  0  0  0
    8.7494    0.6981  -22.4102 F   0  0  0  0  0  0  0  0  0  0  0  0
    5.2984   -2.5730  -21.8843 F   0  0  0  0  0  0  0  0  0  0  0  0
    8.2615    9.8608  -17.9433 H   0  0  0  0  0  0  0  0  0  0  0  0
    7.1158   10.3899  -15.7999 H   0  0  0  0  0  0  0  0  0  0  0  0
    7.7382    7.7501  -19.1484 H   0  0  0  0  0  0  0  0  0  0  0  0
    5.4240    8.8230  -14.8716 H   0  0  0  0  0  0  0  0  0  0  0  0
    7.0660    2.3180  -21.2177 H   0  0  0  0  0  0  0  0  0  0  0  0
    3.9627   -0.6317  -20.7197 H   0  0  0  0  0  0  0  0  0  0  0  0
    7.6720   -1.7037  -22.6308 H   0  0  0  0  0  0  0  0  0  0  0  0
    5.3926    6.1297  -19.3912 H   0  0  0  0  0  0  0  0  0  0  0  0
    6.8672    5.3169  -18.7655 H   0  0  0  0  0  0  0  0  0  0  0  0
    5.0940    5.8324  -15.1231 H   0  0  0  0  0  0  0  0  0  0  0  0
    3.7934    7.0387  -15.4059 H   0  0  0  0  0  0  0  0  0  0  0  0
    7.7222   -3.0576  -18.2017 H   0  0  0  0  0  0  0  0  0  0  0  0
    8.6299   -2.7719  -16.6782 H   0  0  0  0  0  0  0  0  0  0  0  0
    8.9204   -0.6508  -17.6885 H   0  0  0  0  0  0  0  0  0  0  0  0
    7.3594   -0.7502  -18.5717 H   0  0  0  0  0  0  0  0  0  0  0  0
    6.4554   -3.3897  -15.8257 H   0  0  0  0  0  0  0  0  0  0  0  0
    5.6924    4.3044  -16.9579 H   0  0  0  0  0  0  0  0  0  0  0  0
    2.5339   -4.4893  -20.4937 H   0  0  0  0  0  0  0  0  0  0  0  0
    4.3089   -4.6575  -20.7112 H   0  0  0  0  0  0  0  0  0  0  0  0
    3.4752   -5.5594  -19.4004 H   0  0  0  0  0  0  0  0  0  0  0  0
    8.7464    0.7384  -14.6163 H   0  0  0  0  0  0  0  0  0  0  0  0
    9.4652    1.1290  -16.2154 H   0  0  0  0  0  0  0  0  0  0  0  0
    8.7359    2.4314  -15.2161 H   0  0  0  0  0  0  0  0  0  0  0  0
    4.1628    2.6367  -20.9770 H   0  0  0  0  0  0  0  0  0  0  0  0
    3.7060    1.4399  -19.7178 H   0  0  0  0  0  0  0  0  0  0  0  0
    4.3244   -2.4338  -16.6895 H   0  0  0  0  0  0  0  0  0  0  0  0
    5.2249   -1.5308  -17.9545 H   0  0  0  0  0  0  0  0  0  0  0  0
    3.7397   -2.5150  -19.5990 H   0  0  0  0  0  0  0  0  0  0  0  0
    2.9060   -3.4169  -18.2882 H   0  0  0  0  0  0  0  0  0  0  0  0
    5.8816   -3.6420  -19.0263 H   0  0  0  0  0  0  0  0  0  0  0  0
    5.0537   -4.5756  -17.7341 H   0  0  0  0  0  0  0  0  0  0  0  0
    6.5111    1.3875  -15.4558 H   0  0  0  0  0  0  0  0  0  0  0  0
    3.5966    3.2865  -17.9098 H   0  0  0  0  0  0  0  0  0  0  0  0
    6.1391    3.3190  -19.6030 H   0  0  0  0  0  0  0  0  0  0  0  0
    5.1384    1.2137  -17.7060 H   0  0  0  0  0  0  0  0  0  0  0  0
    3.4033    4.9356  -16.4797 H   0  0  0  0  0  0  0  0  0  0  0  0
    3.5032    6.1588  -17.5570 H   0  0  0  0  0  0  0  0  0  0  0  0
    3.1451    3.8786  -20.1263 H   0  0  0  0  0  0  0  0  0  0  0  0
  1  2  1  0  0  0  0
  1  3  2  0  0  0  0
  2  4  2  0  0  0  0
  3  8  1  0  0  0  0
  4  9  1  0  0  0  0
  5 10  1  0  0  0  0
  5 11  2  0  0  0  0
  6 10  2  0  0  0  0
  6 12  1  0  0  0  0
  7 11  1  0  0  0  0
  7 12  2  0  0  0  0
  8  9  2  0  0  0  0
  8 15  1  0  0  0  0
  9 16  1  0  0  0  0
 10 23  1  0  0  0  0
 11 36  1  0  0  0  0
 12 37  1  0  0  0  0
 13 19  1  0  0  0  0
 13 30  1  0  0  0  0
 13 33  2  0  0  0  0
 14 27  1  0  0  0  0
 14 31  1  0  0  0  0
 14 34  2  0  0  0  0
 15 20  1  0  0  0  0
 16 32  1  0  0  0  0
 17 18  1  0  0  0  0
 17 19  1  0  0  0  0
 18 30  1  0  0  0  0
 19 24  1  0  0  0  0
 20 28  1  0  0  0  0
 20 32  1  0  0  0  0
 21 25  1  0  0  0  0
 22 27  1  0  0  0  0
 23 29  1  0  0  0  0
 24 26  1  0  0  0  0
 25 26  1  0  0  0  0
 27 30  1  0  0  0  0
 28 29  1  0  0  0  0
 28 35  1  0  0  0  0
 29 31  1  0  0  0  0
  1 38  1  0  0  0  0
  2 39  1  0  0  0  0
  3 40  1  0  0  0  0
  4 41  1  0  0  0  0
  5 42  1  0  0  0  0
  6 43  1  0  0  0  0
  7 44  1  0  0  0  0
 15 45  1  0  0  0  0
 15 46  1  0  0  0  0
 16 47  1  0  0  0  0
 16 48  1  0  0  0  0
 17 49  1  0  0  0  0
 17 50  1  0  0  0  0
 18 51  1  0  0  0  0
 18 52  1  0  0  0  0
 19 53  1  0  0  0  0
 20 54  1  0  0  0  0
 21 55  1  0  0  0  0
 21 56  1  0  0  0  0
 21 57  1  0  0  0  0
 22 58  1  0  0  0  0
 22 59  1  0  0  0  0
 22 60  1  0  0  0  0
 23 61  1  0  0  0  0
 23 62  1  0  0  0  0
 24 63  1  0  0  0  0
 24 64  1  0  0  0  0
 25 65  1  0  0  0  0
 25 66  1  0  0  0  0
 26 67  1  0  0  0  0
 26 68  1  0  0  0  0
 27 69  1  0  0  0  0
 28 70  1  0  0  0  0
 29 71  1  0  0  0  0
 31 72  1  0  0  0  0
 32 73  1  0  0  0  0
 32 74  1  0  0  0  0
 35 75  1  0  0  0  0
M  CHG  1  32   1
M  END
> <OMEGA_C>
fA7xQADLEkGkTIzBTyjcQMuhF0G8nILBHpjnQIVR/0D0wJHB4nS9QKF0CUH41XzBQNTWQG7jpj9g
q6rBBoyeQLXAur4wbajBwovhQOpld7+SLbHBtjrJQGWE4kDMh43BhGyzQMvk7EC86IPBrhKuQCBi
cD8QxabBGq3wQB1csj5kwK/BYF+4QE7pqL+2jq3Bxt/OQPODm79qlnvB4ULhQNB0+z+arovBiPy9
QImdukBC3ZPBwhaTQDuXzkDeFn7BNM34QM+KHMC4T4rBgNP7QHAgeL8q+ozBpw7PQH45IcDW+4PB
pYWhQH8rm0BiTo3BCJ5fQEzbk8AmyZ/B4YYKQW7lrz9DJ3jB0oGRQBzV+j90maHBg1KmQB0aHcCS
3YrBzChuQHIIXcDENJjBc7uhQJiGaMCQaZLB0GXpQFZTkD9yeIHBAQKKQM/1dECSXZTBolmpQNIC
M0C8EZnBnwPmQEFnmL6O8YPB97a4QKI/9D/EXpDBE6GAQELsskB6U4fBkPC1QOrAcL9gGW3BvGn9
QHzdK0AQWY/B+ExmQN1gkEB2qJzBkf0LQdC5Mj8qSLPBTIypQJOsJMD2Eq/BAy8EQQHGHUH0i4/B
ULTjQCQ9JkFfzHzB+573QBQB+EDZL5nBWZGtQBYrDUE68m3BpxziQJNaFEDSvanB+5x9QJ64Ib/7
waXB7ID1QPYR2r/zC7XBb5CsQKUmxEA0IZvBZ8DbQCokqkCtH5bBzgGjQAyjukBc+HHBRcZyQOQ8
4UB9fnbB+hv3QIGvQ8ANnZHBBhQKQd9mMcDmbIXB2bkOQX6bJr8kgo3B0n/rQEMMQL/lkpTB3pLO
QKLwWMArNn3BKCi2QKS9iUDPqYfBmyoiQJqoj8AF86PBdeKJQDsKlcCIsKXBZGleQObmscAWNJvB
EPELQUsFPT993GnBqXEXQV6EkD8WuYHBasYLQcucG0A1dXPBmjWFQHfAKEDf0KfBTy9tQAZOuD8T
vp3Bc2GKQHTDG8AghIXBtjKnQETxw7/ioo/B91ZvQFv1IMCyypzBcfs5QLCuWsBATpLB1zW8QEYW
acDbNZjB57ehQBNrksB8343BvFrQQBGYsT8DS3fBKC5mQHRVUkA/R4/Bp3PEQDtqVED80pzB5W2k
QAVamz/UpY3Bls9ZQHzwnUCH1oPBuDNgQLEUxUDRdIzB5UlJQD46eECnAqHBOgP2QBgDEEEV0IrB
pvDgQImLFEGZHIHBulvrQMcI+0AXqJDBhOTAQJ+zBkF4kXrBmHXMQBqkQD9oNarBNIKVQIJZJr8v
+6HBfSLQQGGX1r9q36vB3prLQGvu3kC00IzByq+1QDas6EBKKYPBwS6mQLp5ID+DVaTBX1bhQPcq
zL6SA67BvIuqQDeb5r8MsaXBJmTQQG8Tmr82kYPB4r3ZQOmIC0C0HIrBjc++QPPtuEAFpJPBYsST
QMUJy0Amb33BM1gFQTaH6r9uLo7BSqQFQRcNrb5mBo3B0v7yQBtxD8AyGITBBqigQDECmkB5go3B
Kv4fQY3FuMDtJpDB1AMDQXfLxT9WiXLBybuNQIuV7T8fA6HBlbjiQBhra8DaCoTBgjQKQcs0osDg
zI/BBrEEQcdMlMBGQoTBhwHgQA9xnT/yzYDBXvGIQMuodUAL9pTBHC2nQLVmMEAtQJnBUD3mQHjl
Kb1oC4bBHQC1QJfZ+j8zGJDBMHeAQGbtsUAlY4fBKLqpQHHzrb8UcoLBKij3QDw+OEAeb43BlARq
QG8bkUDamZ3BRfcCQc2rjL6rsrPBOuqaQIN4QcD6JaPBdzAHQbG+GkEfxY3BiWTpQAOrIkE8NXnB
24n7QBks9ECRGJjBo+GwQJQtCkGGp2vBrbjZQPJ23T+kyKvBZxlxQCsNPr8CU53Bs7/fQO3FI8B7
967B2ziuQAGexEDK1JrBK9XbQDtrp0CrA5bBbHiiQC03tUCBvnHBgZR1QMMd3kBkgnXBjVL5QNEm
CcC9a5XB9aIVQbHbD8ALXI7BGKMUQWDJWbuXRonBtc0DQQxpGT7R25TB8UIEQfLLBsDWbnrBGEm0
QHcWh0CA8YfBJJcjQWFgwsDBbJjBxnksQQvMosA1RY3B/YkfQehS1cCoAovBIrIDQesTSz+qtWXB
XAcSQe3zwj+utnvB6NMAQW/MIkBhe2vB+u+FQIkbHEAcN6jBmvBfQMk+xT87DJ3B38fPQJ3UdsDY
hnnBM53OQJ+GdsB1IYvBYLsKQXHAhcBW+ZTBLZf7QE5HuMDJtpLBPp4SQTPxg8ANw4DBpOMAQSbm
sMDO/H7BE33CQMk5mj9fB3jBHzNgQACFVUCiMZDBP4jCQHPATUAgZp3BMm+iQOFjmD/e843BxjZX
QK00nUDHOoTBTy1iQCHNxUA0V4zBLTRNQONyekD+FKLBSev4QPPOD0EPL43Bf1njQDRtFkGW24PB
V77tQK7T+ECALJLBKnTCQCi2CUHsD3/B7gTTQNtZoD+YWarBry2fQAa2/r5wHqbBzujgQLgfhr9P
sq/BWBfNQNQF30CK0o3BL822QHfZ7EBYjoTB+/WrQDQrWj8kqqXBqaPtQJD9mj7iP6/BJZe5QHkJ
ub8HKqvBP7rRQFLprb+fcIDBcJPWQJxcBEDg94jBXC3AQMmqtkACtJPBLgWUQBKx0UCiLH/By4AD
QVrx8L8SK47Bd4cGQddRA7+8aInBlU3jQF8SIMCXaIfBBj6gQG3QmkAGIo3BhamQQIIovcDnDY/B
f/r/QPYpwD9QGW/BKZeOQM+h8D/uz6DBqYDBQKggRMBsFY/B9NJ+QOJvj8BDNZDBXiiZQBBvYcA/
MYnB/frbQAJLjz8e9H7BwceHQMpLdUD8K5TBQROmQEh7L0D9YpjB6GLkQLkZQ76QIITBPsWyQF8V
8D+Yao/ByH+AQHfztUCrtofB8Oe1QI2PuL8cF3PBx8jyQI5yN0BPW4vB3M5mQD2qkECR0pzBk5MJ
QTarMT+KobPBoi2tQDhLL8Bqn6vBRQcJQeagGUHsgZDBLxLsQG5IJUF5BYDBRzT+QEHQ7kC5WJnB
biKyQEXDDkEksXDBIW3cQECrEkDaKarBOSuBQFCsTb/tmaLBM0X1QGKs47/tgrPB+fCwQOqvv0AR
T5vBPxDdQEyko0AFVpXBJ/ShQHPBvUCpc3LBGaF2QHCr5kDMTnjBJFn9QKXx57+gnJbBo0kSQZFV
HsBLio3BeKsTQS6yBb8yjoPBwQwKQbusYj5guI/BQjPwQHFnU8B2UoLBmpOyQJvViEA0HYfBJ8R7
QOLo0sDyIpTBc2qyQAMFvsCqipHBvxGOQF5Wx8C/p4bBuqEAQbzdQj8KGGLBXmsPQXM/wj+Kj3fB
RHD5QKzNH0B5XmjBOXOCQLBJIkAtMafBuTVnQMXBrj9G8ZzB4q24QB8UEsCy3ZTB3kDPQNAfe8Bq
XpPBlf2BQP9hhcDknZjBwkk7QFqzjsD6uo3BCmGiQJIbgcDwwIHBDlyFQIBOKcCJQ4fBX529QJkh
iz8qEXbB7qVeQEk3VkDhLI/BtVvCQFZlTUBGDpzBozSgQG78ij8J043Bza5VQNQjo0AeK4TBrQZk
QJJOyEDDLI3BaLVIQBVgeUBwJKHB

> <OMEGA_E>
6q8bP2AsWD9gbTQ/

> <OMEGA_NBR>
      3849

$$$$
50197265
  -OEChem-04172616093D

 88 92  0     1  0  0  0  0  0999 V2000
   12.7286    1.3480  -12.9565 C   0  0  0  0  0  0  0  0  0  0  0  0
    7.5407    9.1620  -17.4988 C   0  0  0  0  0  0  0  0  0  0  0  0
    6.9133    9.4515  -16.2711 C   0  0  0  0  0  0  0  0  0  0  0  0
   12.5781    0.1695  -13.7164 C   0  0  0  0  0  0  0  0  0  0  0  0
   11.6179    2.1793  -12.7083 C   0  0  0  0  0  0  0  0  0  0  0  0
    7.2445    7.9640  -18.1779 C   0  0  0  0  0  0  0  0  0  0  0  0
    5.9802    8.5493  -15.7270 C   0  0  0  0  0  0  0  0  0  0  0  0
   11.3145   -0.1824  -14.2246 C   0  0  0  0  0  0  0  0  0  0  0  0
   10.3525    1.8231  -13.2044 C   0  0  0  0  0  0  0  0  0  0  0  0
    5.1495   -0.5144  -20.7887 C   0  0  0  0  0  0  0  0  0  0  0  0
    6.7776    1.2639  -21.1753 C   0  0  0  0  0  0  0  0  0  0  0  0
    7.2872   -1.0163  -21.8578 C   0  0  0  0  0  0  0  0  0  0  0  0
    6.3198    7.0486  -17.6320 C   0  0  0  0  0  0  0  0  0  0  0  0
    5.6667    7.3587  -16.4108 C   0  0  0  0  0  0  0  0  0  0  0  0
   10.1994    0.6342  -13.9469 C   0  0  0  0  0  0  0  0  0  0  0  0
    5.5231    0.8410  -20.6777 C   0  0  0  0  0  0  0  0  0  0  0  0
    6.0287   -1.4396  -21.3837 C   0  0  0  0  0  0  0  0  0  0  0  0
    7.6639    0.3355  -21.7436 C   0  0  0  0  0  0  0  0  0  0  0  0
    7.6678   -1.0875  -17.7891 C   0  0  0  0  0  0  0  0  0  0  0  0
    6.9925    1.8768  -17.5260 C   0  0  0  0  0  0  0  0  0  0  0  0
    5.9626    5.7987  -18.4233 C   0  0  0  0  0  0  0  0  0  0  0  0
    4.6824    6.3957  -15.7876 C   0  0  0  0  0  0  0  0  0  0  0  0
    6.3680   -2.6796  -16.4749 C   0  0  0  0  0  0  0  0  0  0  0  0
    5.9060   -1.2467  -16.2977 C   0  0  0  0  0  0  0  0  0  0  0  0
    7.3605   -2.5876  -17.6360 C   0  0  2  0  0  0  0  0  0  0  0  0
    5.0507    4.8201  -17.6186 C   0  0  2  0  0  0  0  0  0  0  0  0
   11.3606   -4.6798  -19.7743 C   0  0  0  0  0  0  0  0  0  0  0  0
    8.8633    0.3014  -14.5301 C   0  0  0  0  0  0  0  0  0  0  0  0
    4.5468    1.8493  -20.1051 C   0  0  0  0  0  0  0  0  0  0  0  0
    8.6423   -3.3882  -17.3117 C   0  0  0  0  0  0  0  0  0  0  0  0
   10.6248   -4.5316  -18.4292 C   0  0  0  0  0  0  0  0  0  0  0  0
    8.6802    1.1555  -15.7876 C   0  0  0  0  0  0  0  0  0  0  0  0
    9.5281   -3.4703  -18.5695 C   0  0  0  0  0  0  0  0  0  0  0  0
    7.2662    0.9586  -16.3395 C   0  0  2  0  0  0  0  0  0  0  0  0
    4.2790    3.8242  -18.5192 C   0  0  2  0  0  0  0  0  0  0  0  0
    5.2374    2.7746  -19.0808 C   0  0  1  0  0  0  0  0  0  0  0  0
    7.0591   -0.4497  -16.7143 N   0  0  0  0  0  0  0  0  0  0  0  0
    5.6886    1.9515  -17.9619 N   0  0  0  0  0  0  0  0  0  0  0  0
    4.0596    5.5647  -16.8267 N   0  3  0  0  0  0  0  0  0  0  0  0
    8.4398   -0.5780  -18.5935 O   0  0  0  0  0  0  0  0  0  0  0  0
    7.8979    2.4834  -18.0919 O   0  0  0  0  0  0  0  0  0  0  0  0
    3.6172    4.5065  -19.5840 O   0  0  0  0  0  0  0  0  0  0  0  0
    5.6645   -2.7361  -21.4976 F   0  0  0  0  0  0  0  0  0  0  0  0
    8.8739    0.7474  -22.1843 F   0  0  0  0  0  0  0  0  0  0  0  0
   13.6986    1.6145  -12.5635 H   0  0  0  0  0  0  0  0  0  0  0  0
    8.2496    9.8596  -17.9198 H   0  0  0  0  0  0  0  0  0  0  0  0
    7.1486   10.3662  -15.7472 H   0  0  0  0  0  0  0  0  0  0  0  0
   13.4326   -0.4626  -13.9080 H   0  0  0  0  0  0  0  0  0  0  0  0
   11.7392    3.0883  -12.1378 H   0  0  0  0  0  0  0  0  0  0  0  0
    7.7267    7.7455  -19.1193 H   0  0  0  0  0  0  0  0  0  0  0  0
    5.5036    8.7704  -14.7834 H   0  0  0  0  0  0  0  0  0  0  0  0
   11.1993   -1.0732  -14.8242 H   0  0  0  0  0  0  0  0  0  0  0  0
    9.4993    2.4584  -13.0176 H   0  0  0  0  0  0  0  0  0  0  0  0
    4.1898   -0.8425  -20.4177 H   0  0  0  0  0  0  0  0  0  0  0  0
    7.0550    2.3061  -21.1178 H   0  0  0  0  0  0  0  0  0  0  0  0
    7.9621   -1.7288  -22.3086 H   0  0  0  0  0  0  0  0  0  0  0  0
    5.4337    6.1006  -19.3393 H   0  0  0  0  0  0  0  0  0  0  0  0
    6.8914    5.2743  -18.6922 H   0  0  0  0  0  0  0  0  0  0  0  0
    5.2106    5.7481  -15.0724 H   0  0  0  0  0  0  0  0  0  0  0  0
    3.9019    6.9641  -15.2605 H   0  0  0  0  0  0  0  0  0  0  0  0
    6.8604   -3.0505  -15.5639 H   0  0  0  0  0  0  0  0  0  0  0  0
    5.5238   -3.3373  -16.7292 H   0  0  0  0  0  0  0  0  0  0  0  0
    5.0340   -1.0354  -16.9340 H   0  0  0  0  0  0  0  0  0  0  0  0
    5.6505   -1.0454  -15.2469 H   0  0  0  0  0  0  0  0  0  0  0  0
    6.9010   -2.9735  -18.5579 H   0  0  0  0  0  0  0  0  0  0  0  0
    5.6922    4.2401  -16.9390 H   0  0  0  0  0  0  0  0  0  0  0  0
   12.1493   -5.4406  -19.6796 H   0  0  0  0  0  0  0  0  0  0  0  0
   10.6454   -4.9880  -20.5512 H   0  0  0  0  0  0  0  0  0  0  0  0
   11.8122   -3.7163  -20.0531 H   0  0  0  0  0  0  0  0  0  0  0  0
    8.8243   -0.7660  -14.7930 H   0  0  0  0  0  0  0  0  0  0  0  0
    8.0697    0.5293  -13.8033 H   0  0  0  0  0  0  0  0  0  0  0  0
    4.1406    2.4607  -20.9244 H   0  0  0  0  0  0  0  0  0  0  0  0
    3.7264    1.3117  -19.6072 H   0  0  0  0  0  0  0  0  0  0  0  0
    9.1956   -2.8840  -16.5057 H   0  0  0  0  0  0  0  0  0  0  0  0
    8.3686   -4.4036  -16.9889 H   0  0  0  0  0  0  0  0  0  0  0  0
   10.1718   -5.4942  -18.1495 H   0  0  0  0  0  0  0  0  0  0  0  0
   11.3387   -4.2226  -17.6514 H   0  0  0  0  0  0  0  0  0  0  0  0
    8.8306    2.2156  -15.5354 H   0  0  0  0  0  0  0  0  0  0  0  0
    9.4155    0.8515  -16.5471 H   0  0  0  0  0  0  0  0  0  0  0  0
    8.8961   -3.7243  -19.4333 H   0  0  0  0  0  0  0  0  0  0  0  0
   10.0004   -2.4909  -18.7360 H   0  0  0  0  0  0  0  0  0  0  0  0
    6.5544    1.2166  -15.5415 H   0  0  0  0  0  0  0  0  0  0  0  0
    3.5345    3.3094  -17.8941 H   0  0  0  0  0  0  0  0  0  0  0  0
    6.0918    3.2751  -19.5598 H   0  0  0  0  0  0  0  0  0  0  0  0
    5.0039    1.4051  -17.4796 H   0  0  0  0  0  0  0  0  0  0  0  0
    3.4425    4.9113  -16.3883 H   0  0  0  0  0  0  0  0  0  0  0  0
    3.5371    6.1564  -17.4406 H   0  0  0  0  0  0  0  0  0  0  0  0
    3.1513    3.8777  -20.1225 H   0  0  0  0  0  0  0  0  0  0  0  0
  1  4  1  0  0  0  0
  1  5  2  0  0  0  0
  2  3  1  0  0  0  0
  2  6  2  0  0  0  0
  3  7  2  0  0  0  0
  4  8  2  0  0  0  0
  5  9  1  0  0  0  0
  6 13  1  0  0  0  0
  7 14  1  0  0  0  0
  8 15  1  0  0  0  0
  9 15  2  0  0  0  0
 10 16  1  0  0  0  0
 10 17  2  0  0  0  0
 11 16  2  0  0  0  0
 11 18  1  0  0  0  0
 12 17  1  0  0  0  0
 12 18  2  0  0  0  0
 13 14  2  0  0  0  0
 13 21  1  0  0  0  0
 14 22  1  0  0  0  0
 15 28  1  0  0  0  0
 16 29  1  0  0  0  0
 17 43  1  0  0  0  0
 18 44  1  0  0  0  0
 19 25  1  0  0  0  0
 19 37  1  0  0  0  0
 19 40  2  0  0  0  0
 20 34  1  0  0  0  0
 20 38  1  0  0  0  0
 20 41  2  0  0  0  0
 21 26  1  0  0  0  0
 22 39  1  0  0  0  0
 23 24  1  0  0  0  0
 23 25  1  0  0  0  0
 24 37  1  0  0  0  0
 25 30  1  0  0  0  0
 26 35  1  0  0  0  0
 26 39  1  0  0  0  0
 27 31  1  0  0  0  0
 28 32  1  0  0  0  0
 29 36  1  0  0  0  0
 30 33  1  0  0  0  0
 31 33  1  0  0  0  0
 32 34  1  0  0  0  0
 34 37  1  0  0  0  0
 35 36  1  0  0  0  0
 35 42  1  0  0  0  0
 36 38  1  0  0  0  0
  1 45  1  0  0  0  0
  2 46  1  0  0  0  0
  3 47  1  0  0  0  0
  4 48  1  0  0  0  0
  5 49  1  0  0  0  0
  6 50  1  0  0  0  0
  7 51  1  0  0  0  0
  8 52  1  0  0  0  0
  9 53  1  0  0  0  0
 10 54  1  0  0  0  0
 11 55  1  0  0  0  0
 12 56  1  0  0  0  0
 21 57  1  0  0  0  0
 21 58  1  0  0  0  0
 22 59  1  0  0  0  0
 22 60  1  0  0  0  0
 23 61  1  0  0  0  0
 23 62  1  0  0  0  0
 24 63  1  0  0  0  0
 24 64  1  0  0  0  0
 25 65  1  0  0  0  0
 26 66  1  0  0  0  0
 27 67  1  0  0  0  0
 27 68  1  0  0  0  0
 27 69  1  0  0  0  0
 28 70  1  0  0  0  0
 28 71  1  0  0  0  0
 29 72  1  0  0  0  0
 29 73  1  0  0  0  0
 30 74  1  0  0  0  0
 30 75  1  0  0  0  0
 31 76  1  0  0  0  0
 31 77  1  0  0  0  0
 32 78  1  0  0  0  0
 32 79  1  0  0  0  0
 33 80  1  0  0  0  0
 33 81  1  0  0  0  0
 34 82  1  0  0  0  0
 35 83  1  0  0  0  0
 36 84  1  0  0  0  0
 38 85  1  0  0  0  0
 39 86  1  0  0  0  0
 39 87  1  0  0  0  0
 42 88  1  0  0  0  0
M  CHG  1  39   1
M  END
> <OMEGA_C>
gahLQSGLrD8FTk/BIU3xQLGXEkF5/YvBHzrdQGE5F0FMK4LB1j9JQQiHLT5DdlvB9uI5QXN6C0AC
VUvBPtPnQDDZ/kBYbJHBZl2/QNLJCEHtoXvBMAg1QUTIOr4AmGPBA6QlQcBb6T9jRVPBA8mkQCmt
A79PT6bBSeLYQMzHoT8CZ6nBYjDpQE0Vgr/X3K7B2TvKQNKN4UBsDo3BrFW1QM5660A6SYPBjDAj
QUZYIj+wJl/BfL2wQNhNVz/ea6XBLevAQE1DuL/DEavBCj/1QELJqz778q3BPl71QLc0i78rUI7B
7cLfQFY88D86NYzBoM2+QNyOuUD2YpPB5NWVQPepzEASmnzB0sbLQMp9K8CizIPB9v28QA+Vn7+Z
YYLBPInrQKKaJcCTFo3B856hQKs+mkD68ozB1cQ1QcLAlcDTMZ7BOtANQURVmj5te2jBZ3+RQPy1
7D9J16DB00YKQdjYWMBGforBXv8pQeMCkcD8bpPBE+IKQcPnkz/VmXzBEnMYQVQZXsBHjpTBdITo
QGpkdT9Bt4LBeO2IQAjAdEBkJ5TBxZinQAWTMUBtpZjB+uPhQOA75r75toXBpgi2QDzM+T8Lso/B
feiBQGQSskAqnYbBWAkHQSb5E7+Mv5TBfrv8QM3wHkBGvJDBtYBnQG41kEAJrJzB/kO1QOscL8Aa
+6vBVvsNQWhTPz9kebHBnC1bQcKmzj8EBEnBWP4DQcTAHUHCW4/BI8HkQM/bJUG09HvBzOtWQXnf
7L7+hl7BmtM7QUmnRUBXNELBR0H3QN/a90A69JjBZx2wQJFTDEHriGzBUTAzQZNfib8ZMG3BUv0X
QdtVHUAVSFDB4hKGQFCtV798V6PBp8LhQAWXE0Ar8ajBIMn+QIJK3b/4d7LBzOCtQDE4w0D6tprB
j4bcQNvGqECLiZXBBL2mQKLwt0BuKHHBW7h5QNrZ3kAWK3TBw4jbQCo7Q8DMBXnBD8OwQNGWVcBS
1YXBYxahQAuJhL/VeIfBE9G0QCXOhb8h83PBX9XcQB9OPsCrdpTBgia2QNWuh0AEg4fBjWNCQaoZ
rsDKb53BnlMqQWqdn8DyaKTB9f48QU7YbcDTbKDBfjANQasXRL8fsGzBqB0BQbl/Bz9S2lzBoX+E
QIN8HUAVZafBKn1uQCHmpz+Q25zBJyETQdmSOMCtC4TB7+UFQUfqjMBW6YfB378iQWbQr8A4MpHB
Nms1QSMfh8AZNo3B80kNQVzMDUDRkHjBvaUWQdP4WT99YITBoVYOQVtabsBWd5vBzAEgQYdrH8Bt
45XB4r3RQPi5mz/QqXjBsjViQLnNU0AnJ4/B6u/CQNybUUCBepzBJCCgQOPYsz9D1ovBlVJcQKUp
nUAvG4PBxl9iQF4BxUByhovBZK9JQLoreEDh+qDBSDVLQQzZrz/NME7BjvjwQNW8EkH7xYvBq3Pc
QAJTF0FLAYLB+2JJQdg7TD7QjVrBGiE5QYK9C0Bpe0rB99XnQJ8j/0BTPpHBcn6+QOzWCEEoenvB
MXE1QXBgLr7MJmPBwColQX+z5z9S51LBAA7UQPNmnz88k6rBezelQBRrEb9Ru6TBZsnlQICuh78V
Aq/BCjPKQM214UD/9IzBGN+0QOyJ60AgPIPBNUsjQRoqID8f/l7BxNOuQKAVTz/MOKXB5KDvQAjW
oD5oX6/BEpjAQLgPwL/2rKnByvf3QBjth7/1TI7Bn0DgQFPV8T9vMIzB4h6/QDS4uUADVpPBjWSV
QCiOzEDHoHzBbqrMQGKXKsC2YYTBN2m9QHRdnr/lDIPBzQntQCbHI8Dngo3BUv2hQHU8mkCE84zB
/SU2QT13lcC81Z7BMzAOQe7TjT7hwmjByVOQQDGj6T9Nh6DBFq8KQdpaWcDeC4vBC4MqQXLHkMDF
CJTBixALQVMMlj8uaHzBtEwYQYzHYMCSRpXBSBTpQEZ7dz9RuoLBWHaJQDrbdEDhL5TBFL6nQJbU
MEA/qpjBnfniQIVB4L7s3IXBoIq2QEXZ+T/esI/B9O2BQK3asUBeqobBWyQJQVCOC78YSZTB1x79
QFYZIEBitZDBNu9oQPpdkEDFt5zBTbIJQVbVPj9oYbTBQze3QIJuNMArRKnBCoRaQTSr0z9ZikfB
Fd8DQV/vHUHwEo/BvrbjQID2JUGbk3vBBUxXQRjd1L6Ha13Bqp46QUKyRUA6L0HB6pD3QMFA+EDT
vZjBaduuQNFaDEEveWzB1Qo0QYh/h78+4WzBckgXQV14G0DCH1DBbFnbQI0vE0Ap+6rBZeyIQEYN
aL/kkqDBz7f6QCxS47+rz7LBNEuuQP1dw0DvrZrB7vjcQAsdqUCkdZXB0jemQGPwt0BxG3HBHlR4
QHyZ3kCOTnTBX/zbQFARQsB1C3rBrASyQIk0VcDXi4bBQZGiQPHNgr/XeYjBJYWzQGPEhb/3fXXB
83feQC+9OcB/CZXBHHW2QH+1h0D1fYfBtkVDQXixrMCZBZ7BQcoqQeLGoMDu7qTBtLA8QY2IbMDN
Q6HBQRsOQQ/RR79smm3B0kQBQWPL6D4AJ13BYHSCQNkqG0DoCqfBHTptQFAypj+6PpzBDxAUQdHL
OcAOu4TBI+wFQUvNjMB5WYjBSu8jQS/vr8DPl5HBvdU1QZNshcCu7I3BMxwNQcxtDkANwnfBovkW
QXUMaT+KVYTBe+4NQZU5dcBY6ZvBSDEfQVayIcBxHZfBzgHSQCfpmj9Xv3jBFtViQCVRVEAZNo/B
59TCQOHHT0CJvZzBus2gQHRxsz/4zYvBCHFcQILNnEChMoPBiXRiQIqvxEDzmovBFUFLQD2ZeECG
DqHBfm9NQe0D7z9gVUrBWCgFQa6kBkHnYIrB5zD2QAeNDUGe5oDBzKBMQcm4Zz+gz1rBrls6QbTQ
G0BCakLBjd74QFYQ60DlRpDBqZHQQJBgA0Glo3rBILw4QfwmAT+gTGPBYHUmQRw/AkAj4krBMA6Y
QMBHI7+xdajB5kDQQOqMhj/hhanBLx7aQGpMjb8jPrLBKF3TQMNT1kDcr4zB0ay+QBK75EA+PYPB
ZpMlQWpIhz9UKlvBWKenQAW0JD/TqqXB0zmxQFL6wL9Vv67B5ZLpQBh5ND7amq/BQSjMQCTulr85
3oDBvELcQEicBUAbKorBXke/QO/Cs0DAlJPBUNyWQNFXzkCx9n3BxYDxQPwlAcAqS5DBxEUDQY74
Pb/oaozByEHZQJvxHsCtXYbBT+ifQB91l0Af9ozBLYHpQP2j28A9143BVDUQQdnrJj8zm2TBSK6K
QGiWzj/poJ/B/X2yQM3pWMCFF4nBWyTfQCNcscDQKIjBVMAKQUZ+xz+k3XfBuua/QIEJlsDr8o7B
JhnpQIy/mT+KsYDBqXKGQFp8bkD6/JPB3qOjQLPfJUD7JpjBHBvoQPS7P75mjYTBMiq1QP+C6T+Q
Go/BMbKBQFvfs0BxSYfBeTevQDChhb8LqnTBS3v0QKFlPUANe43BQrxnQLKFjUDF2ZzBZA+iQNGL
LsCOgLHBjEgIQWFsFD9TBbPBQKxcQc3dCkCvxkPBXo4TQWN3DkHsHo3Bis0BQXWnGkFEwHjBT0Bb
QV5I8z7P7WDBwf46Qb06S0CW2zXBSRwEQYmm4EAckZfBfWHBQPqfCEEICGzB/yI4QdR3Zr7FBnDB
890XQdaNHkCc6kTBwpBxQDegc7+9xaXBGdLbQN7eAkCXw6fB5pHtQAhc47/F8LbBQZCtQCj1wkAb
K5rBTcHYQKdgn0Ar4pbBVyGgQFuSuUAfiHDBThqAQNmy5kD1TnjBHILbQKPp6L99+pbBqsEEQemi
MMBBx5LBY8ISQcOldb+vnYjBtK0FQWbaJ71OF5PBFjnvQGhvQsC6HIHBPauyQLk0hUDWE4fBKa7/
QB5+7sBN5IjB287LQKDg7cB7FI/BuXL4QNnc1MBLoJXBJwkRQZj2yb4J92nB/K4DQbbqQD89WVjB
V1dxQPlYDUB0gaXBE3ZoQKvegz9Vt5rBlByiQIVFasBxnIHBWGecQATvNMDNQo7BQE/QQMRSuMD7
XoDBHvP8QP1On8DK6obBtZIKQXXbJkBDjXLBHAoXQeTJtj9SJYLBUBSjQI4TqcA+pJDBGKzPQMJz
jcCPhJbBpATRQD5gqT//snTBPDZaQKjbUUDxCY/B/wC+QJKHQkDUwJzBSc2jQJrBhz8/TozBxopW
QKDboUAWyIPBjd5nQCxUx0A5oIzB7I9IQLffc0DnKaHBjAxKQQh8CECiDknBL0ABQa0bC0FE6IjB
VWLsQF12EUFTOn/BnN1KQXTgjT9bjFjB1DM2Qc8cLECpEkPBwabzQCM080DT9Y7BnS7HQKhtBkEv
1XjB+9I3QeGAIj8T+WHBQycjQQLjDUC/ekzB1BeTQI4uKr9YXaXB6SLTQDvXOj/rQqXBWQ7YQCBg
zb9ysKrBvMDOQFKK3EAPuYvB1s+3QMQX6kCZhILBGOQjQR6glj/JwFvBtr+mQKAFFT9oUaPBDKqr
QNdr4L/YFKnBp+DrQOjvu77al6jBKAvRQPBYqr9RAYLBVlvfQOB8+T+ZNIzBHHm+QC3+t0BgqpLB
rFyQQJ8F0kDrZX3BfBn9QJw0EcC+64/B0jYHQdeNa7/qf4zBj9LgQNoLK8Bfh4bBri2dQB6+m0DD
rYzBqKe3QNf548CgMpfBfnMPQXE/MT+EM2bB9k6LQGcj4j/Lwp/BAm67QD8tZsCC8InBPcamQNGP
usATDpLBkwYLQUbywD+GtXrBbkTMQLQMncCv847BoxrrQOWdij9iiYLBJmyFQNBKeEAtQZTBSnuj
QKV3MEAfS5jB0ebrQNIcp756B4bBWFW0QH0aAUDgAI/BN9V6QP6+t0DoW4fBhAayQN1mlr+MQXjB
Cj/7QCq+H0AXkZHB/uxnQNLbkkAsMJ3Bu66YQPVdPMCiE6vByFgLQV2gab6Hw6nBF6JYQR9oH0DY
xUHB6WsPQWeoE0FGZIvBdfD3QFXLHkH233XB6BRaQffTLz9cMV3Bk5k1QXaSXkBiRzfBXEcCQbmm
6UCFG5bBCF+2QM1KC0EsimrByHg4QWoBEr6G823Be/kTQU2nKUB3AUjB4kRiQIrlSL8RFKTBZBri
QK3N2D93LKTBr9nqQBsSHMCYhq3Bf1WvQEp3xUBV3JnB28PZQJLco0DhBZXB2XiZQFHrvECGEXDB
WMVwQL1G6UAH2HfBk0rqQL64C8DiU5fBG5YLQRGJP8AZHJHBwtUVQXlChb+MsofBFrMKQZEalr5n
hJPBHk30QLbqS8B6dYDBizSuQMHriEDOlIbBbIucQD2v+MC4XZnBshPKQHcK3MDhbZ7Bfm3MQLjR
9MDUeZHBRhwRQQE5vr6MWmrBGgkCQUqeUT95/VrBk7iAQJQUFEAI7KbBUXJeQF2dsD/hc5vBLwOo
QHS6dcCR3ILBjoCnQB+ARMDf2I/BQfaRQGjaqcDgypfBDVCUQKihwsDU1orBBkoKQWbgJEDmnHbB
bBQYQaomqz/4GIPBXwPfQLlplcC+JpbBGszgQC+ZrcBgH4nBadPRQOoGmj9O+njBGrlWQBhCWkDp
ro/BCgS+QAuRTUDayZzBylqfQKzUwz+HY4rBA8FMQBtnpUC9OoTBVHthQBtSy0BQ1ozB9QxLQMzA
fkCZxaHB

> <OMEGA_E>
OLMdP/xlHz/Mnyw/PjI7Pw==

> <OMEGA_NBR>
      9527

$$$$
50197271
  -OEChem-04172616093D

 96100  0     1  0  0  0  0  0999 V2000
   12.7779    2.2192  -12.7424 C   0  0  0  0  0  0  0  0  0  0  0  0
   12.7400    1.1112  -13.6140 C   0  0  0  0  0  0  0  0  0  0  0  0
   11.5842    2.8832  -12.3919 C   0  0  0  0  0  0  0  0  0  0  0  0
    5.2875    9.4684  -15.6707 C   0  0  0  0  0  0  0  0  0  0  0  0
    4.5177    8.4007  -16.1688 C   0  0  0  0  0  0  0  0  0  0  0  0
   11.5077    0.6625  -14.1306 C   0  0  0  0  0  0  0  0  0  0  0  0
   10.3513    2.4360  -12.9077 C   0  0  0  0  0  0  0  0  0  0  0  0
    6.6851    9.4693  -15.8421 C   0  0  0  0  0  0  0  0  0  0  0  0
    4.5951   -0.6013  -20.8562 C   0  0  0  0  0  0  0  0  0  0  0  0
    6.3981    1.0261  -21.0800 C   0  0  0  0  0  0  0  0  0  0  0  0
    6.6508   -1.1924  -22.0408 C   0  0  0  0  0  0  0  0  0  0  0  0
    5.1406    7.3237  -16.8347 C   0  0  0  0  0  0  0  0  0  0  0  0
    6.5470    7.3401  -17.0419 C   0  0  0  0  0  0  0  0  0  0  0  0
   10.3089    1.3151  -13.7662 C   0  0  0  0  0  0  0  0  0  0  0  0
    5.1192    0.6807  -20.5714 C   0  0  0  0  0  0  0  0  0  0  0  0
    7.3169    8.4079  -16.5224 C   0  0  0  0  0  0  0  0  0  0  0  0
    5.3574   -1.5289  -21.5999 C   0  0  0  0  0  0  0  0  0  0  0  0
    7.1690    0.0871  -21.7801 C   0  0  0  0  0  0  0  0  0  0  0  0
    6.3505   -1.1453  -15.9614 C   0  0  0  0  0  0  0  0  0  0  0  0
    7.2898   -3.7033  -14.4702 C   0  0  0  0  0  0  0  0  0  0  0  0
    6.9517    1.9332  -17.5217 C   0  0  0  0  0  0  0  0  0  0  0  0
    4.2701    6.2181  -17.4117 C   0  0  0  0  0  0  0  0  0  0  0  0
    7.2447    6.1792  -17.7397 C   0  0  0  0  0  0  0  0  0  0  0  0
    7.9551   -2.4003  -17.2750 C   0  0  0  0  0  0  0  0  0  0  0  0
    8.0341   -0.9244  -17.6044 C   0  0  0  0  0  0  0  0  0  0  0  0
    5.0944    4.9609  -17.7825 C   0  0  1  0  0  0  0  0  0  0  0  0
    6.5556   -2.5280  -16.6264 C   0  0  2  0  0  0  0  0  0  0  0  0
    7.0383   -4.8627  -13.5080 C   0  0  0  0  0  0  0  0  0  0  0  0
    4.4489   -4.5130  -19.3685 C   0  0  0  0  0  0  0  0  0  0  0  0
    4.0012   -2.7228  -17.0667 C   0  0  0  0  0  0  0  0  0  0  0  0
    8.9898    0.8553  -14.3466 C   0  0  0  0  0  0  0  0  0  0  0  0
    4.2424    1.7114  -19.8614 C   0  0  0  0  0  0  0  0  0  0  0  0
    5.6511   -4.0925  -18.5027 C   0  0  0  0  0  0  0  0  0  0  0  0
    8.7132    1.5838  -15.6815 C   0  0  0  0  0  0  0  0  0  0  0  0
    7.3297    1.1789  -16.2413 C   0  0  2  0  0  0  0  0  0  0  0  0
    4.2297    3.9603  -18.6036 C   0  0  2  0  0  0  0  0  0  0  0  0
    5.4234   -2.7539  -17.7122 C   0  0  2  0  0  0  0  0  0  0  0  0
    5.0647    2.7268  -19.0137 C   0  0  1  0  0  0  0  0  0  0  0  0
    7.2844   -0.2656  -16.5191 N   0  0  0  0  0  0  0  0  0  0  0  0
    6.5052   -3.6173  -15.6226 N   0  0  0  0  0  0  0  0  0  0  0  0
    5.5974    2.0484  -17.8203 N   0  0  0  0  0  0  0  0  0  0  0  0
    6.2954    5.3850  -18.5498 N   0  3  0  0  0  0  0  0  0  0  0  0
    5.5725   -0.8862  -15.0483 O   0  0  0  0  0  0  0  0  0  0  0  0
    8.1004   -2.8348  -14.1622 O   0  0  0  0  0  0  0  0  0  0  0  0
    7.8194    2.3404  -18.2893 O   0  0  0  0  0  0  0  0  0  0  0  0
    8.6706    8.4227  -16.6733 O   0  0  0  0  0  0  0  0  0  0  0  0
    3.7537    4.6048  -19.7906 O   0  0  0  0  0  0  0  0  0  0  0  0
    4.8408   -2.7332  -21.9267 F   0  0  0  0  0  0  0  0  0  0  0  0
    8.3983    0.4312  -22.2268 F   0  0  0  0  0  0  0  0  0  0  0  0
   13.7219    2.5594  -12.3430 H   0  0  0  0  0  0  0  0  0  0  0  0
   13.6552    0.6063  -13.8857 H   0  0  0  0  0  0  0  0  0  0  0  0
   11.6149    3.7346  -11.7282 H   0  0  0  0  0  0  0  0  0  0  0  0
    4.8061   10.2872  -15.1567 H   0  0  0  0  0  0  0  0  0  0  0  0
    3.4453    8.4056  -16.0409 H   0  0  0  0  0  0  0  0  0  0  0  0
   11.4799   -0.1804  -14.8051 H   0  0  0  0  0  0  0  0  0  0  0  0
    9.4384    2.9506  -12.6465 H   0  0  0  0  0  0  0  0  0  0  0  0
    7.2749   10.2852  -15.4514 H   0  0  0  0  0  0  0  0  0  0  0  0
    3.6103   -0.8715  -20.5045 H   0  0  0  0  0  0  0  0  0  0  0  0
    6.7822    2.0237  -20.9260 H   0  0  0  0  0  0  0  0  0  0  0  0
    7.2442   -1.9168  -22.5788 H   0  0  0  0  0  0  0  0  0  0  0  0
    3.5120    5.9378  -16.6656 H   0  0  0  0  0  0  0  0  0  0  0  0
    3.7717    6.5951  -18.3170 H   0  0  0  0  0  0  0  0  0  0  0  0
    8.0303    6.5779  -18.3983 H   0  0  0  0  0  0  0  0  0  0  0  0
    7.6994    5.5265  -16.9799 H   0  0  0  0  0  0  0  0  0  0  0  0
    8.0286   -3.0145  -18.1846 H   0  0  0  0  0  0  0  0  0  0  0  0
    8.7474   -2.6926  -16.5702 H   0  0  0  0  0  0  0  0  0  0  0  0
    9.0800   -0.5839  -17.6174 H   0  0  0  0  0  0  0  0  0  0  0  0
    7.5691   -0.7178  -18.5797 H   0  0  0  0  0  0  0  0  0  0  0  0
    5.4124    4.4649  -16.8536 H   0  0  0  0  0  0  0  0  0  0  0  0
    7.6669   -4.7406  -12.6136 H   0  0  0  0  0  0  0  0  0  0  0  0
    5.9786   -4.8708  -13.2130 H   0  0  0  0  0  0  0  0  0  0  0  0
    7.2879   -5.8119  -14.0046 H   0  0  0  0  0  0  0  0  0  0  0  0
    4.6821   -5.4538  -19.8886 H   0  0  0  0  0  0  0  0  0  0  0  0
    3.5676   -4.6579  -18.7263 H   0  0  0  0  0  0  0  0  0  0  0  0
    4.2378   -3.7274  -20.1089 H   0  0  0  0  0  0  0  0  0  0  0  0
    3.2409   -2.8823  -17.8455 H   0  0  0  0  0  0  0  0  0  0  0  0
    3.9242   -3.5184  -16.3109 H   0  0  0  0  0  0  0  0  0  0  0  0
    3.8369   -1.7458  -16.5887 H   0  0  0  0  0  0  0  0  0  0  0  0
    9.0296   -0.2293  -14.5257 H   0  0  0  0  0  0  0  0  0  0  0  0
    8.1814    1.0801  -13.6353 H   0  0  0  0  0  0  0  0  0  0  0  0
    3.6716    2.2682  -20.6192 H   0  0  0  0  0  0  0  0  0  0  0  0
    3.5465    1.1806  -19.1951 H   0  0  0  0  0  0  0  0  0  0  0  0
    5.8536   -4.8941  -17.7771 H   0  0  0  0  0  0  0  0  0  0  0  0
    6.5239   -3.9636  -19.1597 H   0  0  0  0  0  0  0  0  0  0  0  0
    8.7313    2.6705  -15.5116 H   0  0  0  0  0  0  0  0  0  0  0  0
    9.4920    1.3135  -16.4098 H   0  0  0  0  0  0  0  0  0  0  0  0
    6.5761    1.4141  -15.4753 H   0  0  0  0  0  0  0  0  0  0  0  0
    3.3856    3.6285  -17.9812 H   0  0  0  0  0  0  0  0  0  0  0  0
    5.4844   -1.9250  -18.4327 H   0  0  0  0  0  0  0  0  0  0  0  0
    5.9062    3.0763  -19.6300 H   0  0  0  0  0  0  0  0  0  0  0  0
    5.8514   -4.3564  -15.7848 H   0  0  0  0  0  0  0  0  0  0  0  0
    4.9425    1.6435  -17.1821 H   0  0  0  0  0  0  0  0  0  0  0  0
    5.9981    5.9391  -19.3273 H   0  0  0  0  0  0  0  0  0  0  0  0
    6.7660    4.5681  -18.8832 H   0  0  0  0  0  0  0  0  0  0  0  0
    8.9452    7.6472  -17.1484 H   0  0  0  0  0  0  0  0  0  0  0  0
    3.2257    3.9950  -20.2926 H   0  0  0  0  0  0  0  0  0  0  0  0
  1  2  1  0  0  0  0
  1  3  2  0  0  0  0
  2  6  2  0  0  0  0
  3  7  1  0  0  0  0
  4  5  2  0  0  0  0
  4  8  1  0  0  0  0
  5 12  1  0  0  0  0
  6 14  1  0  0  0  0
  7 14  2  0  0  0  0
  8 16  2  0  0  0  0
  9 15  1  0  0  0  0
  9 17  2  0  0  0  0
 10 15  2  0  0  0  0
 10 18  1  0  0  0  0
 11 17  1  0  0  0  0
 11 18  2  0  0  0  0
 12 13  2  0  0  0  0
 12 22  1  0  0  0  0
 13 16  1  0  0  0  0
 13 23  1  0  0  0  0
 14 31  1  0  0  0  0
 15 32  1  0  0  0  0
 16 46  1  0  0  0  0
 17 48  1  0  0  0  0
 18 49  1  0  0  0  0
 19 27  1  0  0  0  0
 19 39  1  0  0  0  0
 19 43  2  0  0  0  0
 20 28  1  0  0  0  0
 20 40  1  0  0  0  0
 20 44  2  0  0  0  0
 21 35  1  0  0  0  0
 21 41  1  0  0  0  0
 21 45  2  0  0  0  0
 22 26  1  0  0  0  0
 23 42  1  0  0  0  0
 24 25  1  0  0  0  0
 24 27  1  0  0  0  0
 25 39  1  0  0  0  0
 26 36  1  0  0  0  0
 26 42  1  0  0  0  0
 27 37  1  0  0  0  0
 27 40  1  0  0  0  0
 29 33  1  0  0  0  0
 30 37  1  0  0  0  0
 31 34  1  0  0  0  0
 32 38  1  0  0  0  0
 33 37  1  0  0  0  0
 34 35  1  0  0  0  0
 35 39  1  0  0  0  0
 36 38  1  0  0  0  0
 36 47  1  0  0  0  0
 38 41  1  0  0  0  0
  1 50  1  0  0  0  0
  2 51  1  0  0  0  0
  3 52  1  0  0  0  0
  4 53  1  0  0  0  0
  5 54  1  0  0  0  0
  6 55  1  0  0  0  0
  7 56  1  0  0  0  0
  8 57  1  0  0  0  0
  9 58  1  0  0  0  0
 10 59  1  0  0  0  0
 11 60  1  0  0  0  0
 22 61  1  0  0  0  0
 22 62  1  0  0  0  0
 23 63  1  0  0  0  0
 23 64  1  0  0  0  0
 24 65  1  0  0  0  0
 24 66  1  0  0  0  0
 25 67  1  0  0  0  0
 25 68  1  0  0  0  0
 26 69  1  0  0  0  0
 28 70  1  0  0  0  0
 28 71  1  0  0  0  0
 28 72  1  0  0  0  0
 29 73  1  0  0  0  0
 29 74  1  0  0  0  0
 29 75  1  0  0  0  0
 30 76  1  0  0  0  0
 30 77  1  0  0  0  0
 30 78  1  0  0  0  0
 31 79  1  0  0  0  0
 31 80  1  0  0  0  0
 32 81  1  0  0  0  0
 32 82  1  0  0  0  0
 33 83  1  0  0  0  0
 33 84  1  0  0  0  0
 34 85  1  0  0  0  0
 34 86  1  0  0  0  0
 35 87  1  0  0  0  0
 36 88  1  0  0  0  0
 37 89  1  0  0  0  0
 38 90  1  0  0  0  0
 40 91  1  0  0  0  0
 41 92  1  0  0  0  0
 42 93  1  0  0  0  0
 42 94  1  0  0  0  0
 46 95  1  0  0  0  0
 47 96  1  0  0  0  0
M  CHG  1  42   1
M  END
> <OMEGA_C>
SXJMQcEGDkDk4EvB5tZLQTo6jj//0lnBD1k5QamGOEBZRUbBNDOpQGJ+F0Eau3rB0ZCQQEFpBkHJ
WYHBhh84QQebKT/FFmLB+Z4lQTPnG0AThk7BH+zVQBGCF0FAeX3BtgqTQN3sGb982abBfr3MQNpW
gz/Oo6jBVtPUQHSfmL+HU7DBNICkQOVb6kCMrYbBpYDRQO3h6kDbVYjBEvEkQT1VqD9cQlzBtNCj
QMdCLj9RkqTBTCTqQLWGBkH3LYTBl2+rQNGzw7+UzKzBjGjlQCRtsj2oPa7BUDfLQGeZkr/rYX/B
b0bpQCYDbcD7hWfBMnTeQKpy9z9oLIzBe6SIQOD6xkAvS4vBPNTnQLW7xUDc6o3BH5D+QBieGcA/
M4rBm4sAQYmibL/X1YzBkgWjQMe/nkCcQo7BosfRQBLLIcDxAoXBuDnhQD6bm8DUIFjBS12OQFBq
kMCj8prBwAmAQMxCLsCJiIjBLtYPQRf4Wj/di2XBZsGHQM8P2z8Y5J7BAta0QPH1gsB+BZTBSmkL
QU67yj9S53rB2YzqQKHklj8u7oHBflmHQMZ0fUAs1JTB2YytQJlAMMB8so3BJBKiQPeDLkABHJjB
ABrpQCj9h74LJ4TBsyrQQHyCZ8BR9nnBiR2zQHMYA0D8j47B/3PJQBZSrEDxZZTB1lGyQJzcYr/Y
xXDBJZsBQTBtNcBwmGLBZTj6QILIFUB5UJLBr7oKQVnDBkEEY4XBBDxwQHtak0AiU57Bw+eaQOHs
LsDbaa/BYV8GQW/F3D6S0LHB3YxbQTXNI0DvfEXB2ntaQVM4Gz/zK17BpNY5QfYDb0CTpjvB3suZ
QIOYJEEKgnLBqn9cQIZ9BkHMU4DB1K03QULBOL7j4WzB2AMXQUfWPED0V0rB6svoQF6QJEHQOHfB
sg9nQA4aX78wCaTBrwfZQP2DAUB1aKfBoNDnQMxY9b9wobTB4cRgQFECvkAOU4XBRmNxQEUL00Ai
iZLBJ3wAQTN+0kCsL5PBrGH2QGnZsEDT1ofBDHUAQdLsQMAeepHBYPULQe1TLMDGj4TBokcRQfh5
Fb9m8IzBOzbyQFrBN78vo5TBATKtQDTgjkA21IbBLVf1QNayl8Bc0UnBAFG/QNXdm8BHaFPBpTbp
QGX7ucABE2DB2tOVQEGFrsDXG5/BoFNkQHANlcCLz5XBd5yHQCONbsAX36DBT2tPQCd4OMCNw47B
CSZ7QLAsYcCwfILBso91QAx337+htYTBFnkQQa3Aar5PaWjB8eYCQS1Cij9kKlrBGvxqQIspEUAl
9KTBePliQC8dlz+Dj5nBClG7QF2cnMB8N47BscPQQPuqfcAIR5nBa7MLQXXpKkClL3jBEd8XQR0i
qD9NR4PBjW/SQHQBtT/EmnfBS61YQO44aEBu2Y/BTYCvQOtn9r8zdpPBYv+8QErhREAyCp3BmT67
QKhni8CajnzB6CieQL1f0j/9dInBm/C/QCwNvkBlnprBaoPYQN0tkkC2EJfBhx8PQd219ED4L4nB
RXJOQN2uf0AzV6LB

> <OMEGA_E>
9kBOPw==

> <OMEGA_NBR>
     11419

$$$$
50216825
  -OEChem-04172616093D

 90 93  0     1  0  0  0  0  0999 V2000
    6.7476   -1.7727  -21.4699 C   0  0  0  0  0  0  0  0  0  0  0  0
    7.4009   -0.5382  -21.2849 C   0  0  0  0  0  0  0  0  0  0  0  0
    5.3576   -1.8724  -21.2653 C   0  0  0  0  0  0  0  0  0  0  0  0
    7.7753    8.1687  -18.2744 C   0  0  0  0  0  0  0  0  0  0  0  0
    6.6628    0.6003  -20.9064 C   0  0  0  0  0  0  0  0  0  0  0  0
    4.6199   -0.7398  -20.8742 C   0  0  0  0  0  0  0  0  0  0  0  0
    6.8844    7.5857  -17.3521 C   0  0  0  0  0  0  0  0  0  0  0  0
    7.3091    8.5938  -19.5357 C   0  0  0  0  0  0  0  0  0  0  0  0
    5.0537    7.8843  -18.9383 C   0  0  0  0  0  0  0  0  0  0  0  0
    5.2675    0.5005  -20.6892 C   0  0  0  0  0  0  0  0  0  0  0  0
    5.5221    7.4474  -17.6841 C   0  0  0  0  0  0  0  0  0  0  0  0
    5.9457    8.4247  -19.8841 C   0  0  0  0  0  0  0  0  0  0  0  0
    6.4932   -1.6093  -15.8949 C   0  0  0  0  0  0  0  0  0  0  0  0
    6.5364    1.8183  -17.3317 C   0  0  0  0  0  0  0  0  0  0  0  0
    7.9604   -5.0043  -15.9872 C   0  0  0  0  0  0  0  0  0  0  0  0
    8.1658   -3.5207  -15.7180 C   0  0  0  0  0  0  0  0  0  0  0  0
    7.7006   -2.2718  -17.8947 C   0  0  0  0  0  0  0  0  0  0  0  0
    7.9929   -0.8446  -17.5160 C   0  0  0  0  0  0  0  0  0  0  0  0
    6.4547   -5.0941  -16.1906 C   0  0  0  0  0  0  0  0  0  0  0  0
    7.1017   -2.8387  -16.6116 C   0  0  2  0  0  0  0  0  0  0  0  0
    2.7836   -3.4735  -18.5982 C   0  0  0  0  0  0  0  0  0  0  0  0
    6.3236    8.3685  -22.3934 C   0  0  0  0  0  0  0  0  0  0  0  0
    5.2105   10.3636  -21.2995 C   0  0  0  0  0  0  0  0  0  0  0  0
    7.8289    1.3015  -15.1760 C   0  0  0  0  0  0  0  0  0  0  0  0
    4.4348    1.7257  -20.3498 C   0  0  0  0  0  0  0  0  0  0  0  0
    4.5645    6.8001  -16.7115 C   0  0  0  0  0  0  0  0  0  0  0  0
    4.1554   -4.0948  -18.3526 C   0  0  0  0  0  0  0  0  0  0  0  0
    4.7311   -3.5362  -17.0594 C   0  0  0  0  0  0  0  0  0  0  0  0
    4.7635    4.5722  -17.7354 C   0  0  0  0  0  0  0  0  0  0  0  0
    5.4030    8.8386  -21.2480 C   0  0  0  0  0  0  0  0  0  0  0  0
    6.6814    0.8898  -16.1220 C   0  0  2  0  0  0  0  0  0  0  0  0
    5.0641    2.5848  -19.2325 C   0  0  1  0  0  0  0  0  0  0  0  0
    4.0908    3.6920  -18.7894 C   0  0  2  0  0  0  0  0  0  0  0  0
    6.8872   -0.4774  -16.6137 N   0  0  0  0  0  0  0  0  0  0  0  0
    5.3691    1.7273  -18.0773 N   0  0  0  0  0  0  0  0  0  0  0  0
    6.1520   -3.9151  -17.0160 N   0  3  2  0  0  0  0  0  0  0  0  0
    3.8652    5.6809  -17.3696 N   0  3  0  0  0  0  0  0  0  0  0  0
    5.7942   -1.6246  -14.8868 O   0  0  0  0  0  0  0  0  0  0  0  0
    7.4492    2.5683  -17.6638 O   0  0  0  0  0  0  0  0  0  0  0  0
    3.7340    4.5072  -19.9061 O   0  0  0  0  0  0  0  0  0  0  0  0
    7.3129   -2.6430  -21.7689 H   0  0  0  0  0  0  0  0  0  0  0  0
    8.4682   -0.4648  -21.4333 H   0  0  0  0  0  0  0  0  0  0  0  0
    4.8576   -2.8189  -21.4088 H   0  0  0  0  0  0  0  0  0  0  0  0
    8.8167    8.2903  -18.0154 H   0  0  0  0  0  0  0  0  0  0  0  0
    7.1618    1.5500  -20.7818 H   0  0  0  0  0  0  0  0  0  0  0  0
    3.5547   -0.8199  -20.7150 H   0  0  0  0  0  0  0  0  0  0  0  0
    7.2448    7.2456  -16.3925 H   0  0  0  0  0  0  0  0  0  0  0  0
    7.9922    9.0490  -20.2374 H   0  0  0  0  0  0  0  0  0  0  0  0
    4.0033    7.8043  -19.1763 H   0  0  0  0  0  0  0  0  0  0  0  0
    8.5035   -5.3241  -16.8887 H   0  0  0  0  0  0  0  0  0  0  0  0
    8.2831   -5.6128  -15.1295 H   0  0  0  0  0  0  0  0  0  0  0  0
    7.9960   -3.2868  -14.6566 H   0  0  0  0  0  0  0  0  0  0  0  0
    9.1800   -3.2061  -16.0050 H   0  0  0  0  0  0  0  0  0  0  0  0
    6.9815   -2.3232  -18.7255 H   0  0  0  0  0  0  0  0  0  0  0  0
    8.6213   -2.8056  -18.1732 H   0  0  0  0  0  0  0  0  0  0  0  0
    8.9606   -0.7685  -16.9985 H   0  0  0  0  0  0  0  0  0  0  0  0
    8.0013   -0.1984  -18.4061 H   0  0  0  0  0  0  0  0  0  0  0  0
    6.1829   -6.0221  -16.7149 H   0  0  0  0  0  0  0  0  0  0  0  0
    5.9239   -5.0477  -15.2283 H   0  0  0  0  0  0  0  0  0  0  0  0
    2.3614   -3.8731  -19.5320 H   0  0  0  0  0  0  0  0  0  0  0  0
    2.1151   -3.7179  -17.7596 H   0  0  0  0  0  0  0  0  0  0  0  0
    2.8853   -2.3812  -18.6798 H   0  0  0  0  0  0  0  0  0  0  0  0
    5.9001    8.6848  -23.3582 H   0  0  0  0  0  0  0  0  0  0  0  0
    7.3216    8.8136  -22.2677 H   0  0  0  0  0  0  0  0  0  0  0  0
    6.4057    7.2718  -22.3711 H   0  0  0  0  0  0  0  0  0  0  0  0
    4.8191   10.6511  -22.2865 H   0  0  0  0  0  0  0  0  0  0  0  0
    4.4981   10.6697  -20.5193 H   0  0  0  0  0  0  0  0  0  0  0  0
    6.1768   10.8609  -21.1293 H   0  0  0  0  0  0  0  0  0  0  0  0
    7.8794    0.5979  -14.3320 H   0  0  0  0  0  0  0  0  0  0  0  0
    8.7815    1.2833  -15.7258 H   0  0  0  0  0  0  0  0  0  0  0  0
    7.6442    2.3171  -14.7960 H   0  0  0  0  0  0  0  0  0  0  0  0
    4.3340    2.3439  -21.2541 H   0  0  0  0  0  0  0  0  0  0  0  0
    3.4393    1.3939  -20.0197 H   0  0  0  0  0  0  0  0  0  0  0  0
    5.1253    6.4210  -15.8444 H   0  0  0  0  0  0  0  0  0  0  0  0
    3.8275    7.5440  -16.3748 H   0  0  0  0  0  0  0  0  0  0  0  0
    4.0555   -5.1871  -18.2696 H   0  0  0  0  0  0  0  0  0  0  0  0
    4.8257   -3.8505  -19.1899 H   0  0  0  0  0  0  0  0  0  0  0  0
    4.6326   -2.4407  -17.0453 H   0  0  0  0  0  0  0  0  0  0  0  0
    4.2007   -3.9631  -16.1954 H   0  0  0  0  0  0  0  0  0  0  0  0
    4.9837    3.9697  -16.8419 H   0  0  0  0  0  0  0  0  0  0  0  0
    5.7005    4.9797  -18.1429 H   0  0  0  0  0  0  0  0  0  0  0  0
    4.4195    8.3654  -21.3855 H   0  0  0  0  0  0  0  0  0  0  0  0
    5.7422    0.9251  -15.5504 H   0  0  0  0  0  0  0  0  0  0  0  0
    5.9870    3.0476  -19.6122 H   0  0  0  0  0  0  0  0  0  0  0  0
    3.1958    3.2264  -18.3510 H   0  0  0  0  0  0  0  0  0  0  0  0
    4.6952    1.0373  -17.8131 H   0  0  0  0  0  0  0  0  0  0  0  0
    6.4014   -4.1615  -17.9526 H   0  0  0  0  0  0  0  0  0  0  0  0
    3.1663    5.3315  -16.7456 H   0  0  0  0  0  0  0  0  0  0  0  0
    3.4281    6.0239  -18.2012 H   0  0  0  0  0  0  0  0  0  0  0  0
    3.3145    3.9712  -20.5689 H   0  0  0  0  0  0  0  0  0  0  0  0
  1  2  1  0  0  0  0
  1  3  2  0  0  0  0
  2  5  2  0  0  0  0
  3  6  1  0  0  0  0
  4  7  2  0  0  0  0
  4  8  1  0  0  0  0
  5 10  1  0  0  0  0
  6 10  2  0  0  0  0
  7 11  1  0  0  0  0
  8 12  2  0  0  0  0
  9 11  2  0  0  0  0
  9 12  1  0  0  0  0
 10 25  1  0  0  0  0
 11 26  1  0  0  0  0
 12 30  1  0  0  0  0
 13 20  1  0  0  0  0
 13 34  1  0  0  0  0
 13 38  2  0  0  0  0
 14 31  1  0  0  0  0
 14 35  1  0  0  0  0
 14 39  2  0  0  0  0
 15 16  1  0  0  0  0
 15 19  1  0  0  0  0
 16 20  1  0  0  0  0
 17 18  1  0  0  0  0
 17 20  1  0  0  0  0
 18 34  1  0  0  0  0
 19 36  1  0  0  0  0
 20 36  1  0  0  0  0
 21 27  1  0  0  0  0
 22 30  1  0  0  0  0
 23 30  1  0  0  0  0
 24 31  1  0  0  0  0
 25 32  1  0  0  0  0
 26 37  1  0  0  0  0
 27 28  1  0  0  0  0
 28 36  1  0  0  0  0
 29 33  1  0  0  0  0
 29 37  1  0  0  0  0
 31 34  1  0  0  0  0
 32 33  1  0  0  0  0
 32 35  1  0  0  0  0
 33 40  1  0  0  0  0
  1 41  1  0  0  0  0
  2 42  1  0  0  0  0
  3 43  1  0  0  0  0
  4 44  1  0  0  0  0
  5 45  1  0  0  0  0
  6 46  1  0  0  0  0
  7 47  1  0  0  0  0
  8 48  1  0  0  0  0
  9 49  1  0  0  0  0
 15 50  1  0  0  0  0
 15 51  1  0  0  0  0
 16 52  1  0  0  0  0
 16 53  1  0  0  0  0
 17 54  1  0  0  0  0
 17 55  1  0  0  0  0
 18 56  1  0  0  0  0
 18 57  1  0  0  0  0
 19 58  1  0  0  0  0
 19 59  1  0  0  0  0
 21 60  1  0  0  0  0
 21 61  1  0  0  0  0
 21 62  1  0  0  0  0
 22 63  1  0  0  0  0
 22 64  1  0  0  0  0
 22 65  1  0  0  0  0
 23 66  1  0  0  0  0
 23 67  1  0  0  0  0
 23 68  1  0  0  0  0
 24 69  1  0  0  0  0
 24 70  1  0  0  0  0
 24 71  1  0  0  0  0
 25 72  1  0  0  0  0
 25 73  1  0  0  0  0
 26 74  1  0  0  0  0
 26 75  1  0  0  0  0
 27 76  1  0  0  0  0
 27 77  1  0  0  0  0
 28 78  1  0  0  0  0
 28 79  1  0  0  0  0
 29 80  1  0  0  0  0
 29 81  1  0  0  0  0
 30 82  1  0  0  0  0
 31 83  1  0  0  0  0
 32 84  1  0  0  0  0
 33 85  1  0  0  0  0
 35 86  1  0  0  0  0
 36 87  1  0  0  0  0
 37 88  1  0  0  0  0
 37 89  1  0  0  0  0
 40 90  1  0  0  0  0
M  CHG  2  36   1  37   1
M  END
> <OMEGA_C>
9+vXQBTn4r9xwqvBeNTsQJrGCb9uR6rBPXGrQMeq779nH6rBCc/4QO+yAkEAMpLBCjbVQEasGT9T
QKfBjdaTQFRjPb9c/qbBMU3cQG2+8kAQ0YrBzOPpQBeACUEMSZzBTrihQFJM/EC3gZfBQo+oQFch
AD9+g6XBCLWwQDZR7kASeY3BRUO+QLbLBkGYEp/B9cfPQEb9zb+1UX7BzynRQPe+6D9Ap4rBe7v+
QO8ioMBry3/BPKcCQVlTYcDGfHvBn2v2QHNlEcBwKI/B78X/QL44WL+xIIzBk4zOQJACo8BdhoHB
w0DjQPasNcCn5ITBHicyQHpNXsAZyZTBp1rKQIvlBUHFJbPBZrymQDXRJUFwZarBmYb6QFqXpj/2
0HLBy+mNQADl3D97zKLByhCSQHma2UAjsYXBH/mEQKMIg8AR0pLBO2WXQNZQYsCOeYjB826YQNZP
kkAt4o3BD+WsQBlrDUHm+6nBo83VQAPNYz/E+YDBTg2iQBRuJUA73JnBveeCQJRJbEC+UJbB+2Pc
QHRw9L7G6ITBjc+rQOMW3T9GnpDBHt3EQMiQesDKIIjB7l53QFXKtUAJ9YrBUmq5QC7yz79lMG7B
3V/uQHFfJEBfT43BpvluQDg7kEDKP5/B7wLqQAknKcCkJq7BoX0HQUX27b5Wd6vBOXGbQIhoNMAl
RavBGBENQeGkBEF4H5DBbC3lQPNlxj80QabB14BjQMHhUb9euKXBhtXnQK3b50DXI4PBYcD/QLDI
EEE25qHBRBuAQJW8+UD/aJnBdw4IQd9eqsD9G4fBaIcEQcWbs8BfEnLB5t7/QLhaUsCQgWrBbeES
QYcwTcBBCoDBfWjfQOeuFMDlzZXBv/AJQZ6OM8CoYpHBsF4PQS67RL/2/IfBKQUAQXoyS768P5PB
89nFQMe0wMA1uIXBYpC9QOyGocDwpnPBcCEXQObgd8CTQZzBgl0HQLPxbcCUE47BSag4QA1mGMA9
cJXB1828QPH0CkGD3brBs0rqQH0EDUEzJLLBRfvMQOWy6ED197LBIzaaQAtrKkHFSrLBF/CPQP62
KkGQJ6TB+qfFQGLGLUHICKnBqiP8QOgNGT/cT2XBEIEMQQNDpD/fnHvBq530QJVLFEBuvGzBgrCK
QC0CFkB6CKrBDh5cQM5rsj9yKKDBpwKkQDx5zUCrgn3Bk/V0QF1o8UCK/4LBWMaBQM38pcA0KJLB
u2uaQPVtdsDchJnBmj6UQEQ0HMDCXIjBbGyGQMCjfcApkIHB23qfQGEPfkAuvIbBjWq2QO5Zn0C+
JJHB7myNQInYBUF2FavB+b+3QHjSbD9GznjBQJW/QHkMQ0Dh5ZzBPYhMQNB8TkDYzpLB+z6WQCzF
hD9QgY7B89fMQKwqhcDVno/B36RKQGabqkDw9oXBemZbQGrDwED5m5HBESFUQKYofkAfjaTB4wnY
QFkq3r801avB70nsQPIy+r4udKrBscGrQMdZ7r8G/anBWBf+QMfC/0BmhpDBeDzUQFZiIj9TR6fB
HruTQC2wPr/0tabBGP/cQMWw7kDfNorBhsD0QEIOCUFIiZrBdgSpQEG9AEGyDJjBT9qnQOaAAT9P
RqXBC3iyQAGf70Ch7I3BFDPKQO7LCUHYVZ7BX57QQKUK0L/MIH7BHb7QQB7B5z8pbIrBXFf/QMWR
oMAwJ4DBkCYDQX9SYsDE8HvBhZL2QNHeEMCAPI/BMLv/QB9YVr/OI4zBhxDPQPUio8BZoYHBOerj
QFINNsDY9YTBCe8xQJ7bX8B+lJTBAm+ZQJHKIUEzcanBCDK9QOZ1AUFNvbHBzAj6QDVNpT8/WnLB
V8aMQJc12z9zXqLBA2aPQA1y3UCC6IbBCRWFQMVtg8AZspLB1O2XQMX/YcDydYjBIdSWQFTmk0DE
5Y3BQ5zBQDlqE0H7X6nBEo3VQMMxYD88y4DBVhWhQC5aJUB4gJnBRcuBQIxQbEDsFpbB1ZDcQD7c
+L7NzITBpOSqQH6q3j8aM5DBtVrFQL+XesABL4jBZoZ0QPTRuED5FIzBL5e6QLOq078V423BMmnu
QM3tIUCKS43BxtRrQGDqjkAYOZ/BL3vqQMgWJsBDTq7BsyIHQYOuyb4R1avBcDycQOZMNMAzF6vB
5VsPQQ7K/kCnr43Bd6vjQIQHzD9eX6bBTJVjQF4+WL8oSqXBajXkQKTW4EC+gYLBLycHQaWUD0El
Wp/BBIiIQJ6pAEFO/5rBsyUIQbrHqsAzbofBTPMEQb83tMDssHLBKrgAQR6dU8DI5mrBe1QTQa9v
TsDfYYDBClLfQC4QFMC+1JXB7QcKQSB9MsD1kJHB3m0PQUkTQr96FIjBfYj/QAU/PL79N5PBc/bF
QHi9wMDwz4XBBXe+QIGZocBtwnPBmloWQJBHesDw+JvB3ekHQMstb8DDyI3BJuc3QLT5GcAPV5XB
cY6UQOFTKEF1hbHBe6d6QG9GGEHPHKfB0sidQNUDL0HfvKPBoQa3QG+FCEG+prnB3PvaQGcz8ECh
BLLBjWyiQCTb7UDrha/BpMX7QLsaFT+J7GTBBEoMQeKbpD+iGXvBXcfzQJFdE0BxK2zBeoqIQC84
FUDrkKnBg71aQOUTrj+FkZ/BPm6dQOvd0kAOkX7B7fNuQIKF9kAmXoXBxSSCQO9epsBE7ZHBaiOa
QMeJd8CQe5nBSuqUQJDbG8C5eIjBHyuHQBhdfMCLdYHBcM2bQHebgkCLVYbBD9S1QAofn0Ap+5DB
V0XdQDNZHUGymavBiG63QG/+ZT+CfHjBtY++QJTIQkB+mZzBH8RKQHOoTkAec5LBBu2UQI5CiT8j
443BWCXNQCsZhcCWsY/BIhJEQBBRr0A/bYfBMqhdQJFxwkDnJ5PBjJhRQB3AeUAGY6TBy47QQGeq
0L96V6vBU57nQFrn2b6qYKrBGaOkQHzf1L9czqjB53r/QLMFAEEfZZDB67TSQBHuPz+9/qbB68OP
QPIS/L4FSqXBRD3fQJpb7EBwRIrBsVv1QIeKCUFQSprBTVeqQJwYAEF5x5fBpKemQCv+OD/hXKTB
Ise0QHqh60DWCI7BKLHKQFrPCUEuBJ7BZSzUQBNt3L/+eH7B7JPYQHwN4D+E84jBlAP4QF08pMBC
lX7Bk7IDQV7ja8CA833Bgnv4QKnfEsDe0Y/BXsIBQf/5Zr9PKozBX+jHQJLan8DF+IDBQsPlQGq7
OsAPuoXBuNEnQCIOaMBacpPBVwOZQL+TIUHT9qjBJd+6QK63AEFJMbHBnPAAQSS7jD9+OnDB/dyP
QKCQ/j+pcaDBeeCSQNdA1EBsnofBoJd1QKXCi8AY/Y7BxYGZQPHEVcCSXorBluyGQIbinkCjPJbB
iPbAQIIKE0G2EqnBvKjcQM8ERT+Men/BBVuoQGiiKUCq+5bBJFqOQF91akCcSpDBP53hQNI5EL8p
aYTBVhC1QOdlzz9GbI/B98DEQJJMesDV4IjBLj9nQGmDvkDFwo7Bk2q+QBvq478+J27B64L0QIEf
JUDx1orBGNlLQDNZR0AKZI3BN4fgQEzCIcCABa7BqK4EQQYhzr6LO6zB2+6SQHx+JcB3jqnB1AUQ
QU1HAEFPgY3BhF/kQHho1j+6aKbB4E5cQOgIBr9PS6PBCg/nQKLP3UB9rYLBijEHQXWuEEFgD5/B
moCJQMOFAEGodprB5HYDQVzDtcA484XBNBL/QNu0tMAlb2/BqA4EQbzLU8Dzam3BJ7kTQYQIZsAC
ioLBCc/gQGCZEcCPVJbB8JYKQRaiNcCle5LB35QRQYJBYr9kUIjB758BQY3ITb7T8ZLBBh66QL60
vcB/HITBIq+3QOgkl8CW8XLBkMH0P+87i8Ai15bBRH8IQJsaRMD0+IzBz548QLxpO8AZvJnBnj6T
QGjXJ0F6D7HB8h96QN5CGEGYVabBf0OeQFv8LkHLaqPBp+GzQH91B0GdIbnBFU/YQIQ07kB0mrHB
jhSgQJcG7UBXoq7B8IIBQYwAtT5eTmPBcxoQQYpgij+OKHnBSgP9QIFjBkBMU2nB2cqNQBI+LUD+
FqfBdtteQGF53D8hxZ3B33qiQC8svECKhYLB2cKBQN9u60BwkILB2zFhQEMOosCdrIjBs6iKQNS1
ncDDb5XBX5KbQG77HsAb34/BlkONQC0DQMB4lILB1pmlQPc6q0DNQJnB5iNiQChSmUBl/pzBloXc
QDa2HEH0o6vBKsq+QJ1bTD+NLXbBVd/EQPsLSkA8LZrBXMagQMK9eEAyAonBDHOjQNi9ST/V5I7B
rsXNQN9EicBA7o/B6pI8QMA7r0DjLorBJWpJQJLg1EDOGZPByz5UQGcRE0DYp4nB

> <OMEGA_E>
IJ2APQAvTz3QatI+

> <OMEGA_NBR>
      6038

$$$$
50161015
  -OEChem-04172616093D

 86 88  0     1  0  0  0  0  0999 V2000
    6.7519   -1.7965  -21.3022 C   0  0  0  0  0  0  0  0  0  0  0  0
    7.4298   -0.5650  -21.2008 C   0  0  0  0  0  0  0  0  0  0  0  0
    5.3661   -1.8612  -21.0591 C   0  0  0  0  0  0  0  0  0  0  0  0
    7.9104    7.9919  -18.1112 C   0  0  0  0  0  0  0  0  0  0  0  0
    6.7203    0.6064  -20.8708 C   0  0  0  0  0  0  0  0  0  0  0  0
    4.6561   -0.6933  -20.7222 C   0  0  0  0  0  0  0  0  0  0  0  0
    6.8950    7.4759  -17.2871 C   0  0  0  0  0  0  0  0  0  0  0  0
    7.5877    8.5479  -19.3635 C   0  0  0  0  0  0  0  0  0  0  0  0
    5.2287    8.0502  -18.9806 C   0  0  0  0  0  0  0  0  0  0  0  0
    5.3293    0.5455  -20.6263 C   0  0  0  0  0  0  0  0  0  0  0  0
    5.5545    7.5115  -17.7158 C   0  0  0  0  0  0  0  0  0  0  0  0
    6.2457    8.5946  -19.8030 C   0  0  0  0  0  0  0  0  0  0  0  0
    6.6546    1.7142  -17.4317 C   0  0  0  0  0  0  0  0  0  0  0  0
    4.4091   -3.6176  -17.3099 C   0  0  0  0  0  0  0  0  0  0  0  0
    7.8434   -0.4081  -14.4021 C   0  0  0  0  0  0  0  0  0  0  0  0
    7.8670    0.7789  -15.3841 C   0  0  0  0  0  0  0  0  0  0  0  0
    7.9885   -1.7675  -15.1339 C   0  0  0  0  0  0  0  0  0  0  0  0
    6.9883   -0.7398  -17.2023 C   0  0  0  0  0  0  0  0  0  0  0  0
    6.7636    0.5761  -16.4325 C   0  0  2  0  0  0  0  0  0  0  0  0
    6.8927   -1.9363  -16.2206 C   0  0  1  0  0  0  0  0  0  0  0  0
    3.2546   -3.5884  -18.3118 C   0  0  0  0  0  0  0  0  0  0  0  0
    4.6810   10.0584  -21.1833 C   0  0  0  0  0  0  0  0  0  0  0  0
    5.7778    8.0179  -22.2030 C   0  0  0  0  0  0  0  0  0  0  0  0
    7.1088   -4.5255  -15.9989 C   0  0  0  0  0  0  0  0  0  0  0  0
    8.1348   -3.3870  -17.9650 C   0  0  0  0  0  0  0  0  0  0  0  0
    4.5323    1.8075  -20.3388 C   0  0  0  0  0  0  0  0  0  0  0  0
    4.4786    6.9311  -16.8277 C   0  0  0  0  0  0  0  0  0  0  0  0
    4.7802    4.6715  -17.7450 C   0  0  0  0  0  0  0  0  0  0  0  0
    5.9401    9.1643  -21.1874 C   0  0  0  0  0  0  0  0  0  0  0  0
    5.1431    2.6732  -19.2096 C   0  0  1  0  0  0  0  0  0  0  0  0
    4.1442    3.7564  -18.7837 C   0  0  1  0  0  0  0  0  0  0  0  0
    6.9430   -3.3245  -16.9750 C   0  0  0  0  0  0  0  0  0  0  0  0
    5.4286    1.8258  -18.0572 N   0  0  0  0  0  0  0  0  0  0  0  0
    5.7157   -3.5074  -17.7934 N   0  0  0  0  0  0  0  0  0  0  0  0
    3.8484    5.7814  -17.4890 N   0  3  0  0  0  0  0  0  0  0  0  0
    7.6133    2.4240  -17.7220 O   0  0  0  0  0  0  0  0  0  0  0  0
    4.1540   -3.6026  -16.1108 O   0  0  0  0  0  0  0  0  0  0  0  0
    2.9747    3.1633  -18.2159 O   0  0  0  0  0  0  0  0  0  0  0  0
    7.2956   -2.6915  -21.5665 H   0  0  0  0  0  0  0  0  0  0  0  0
    8.4945   -0.5193  -21.3763 H   0  0  0  0  0  0  0  0  0  0  0  0
    4.8485   -2.8063  -21.1311 H   0  0  0  0  0  0  0  0  0  0  0  0
    8.9390    7.9616  -17.7833 H   0  0  0  0  0  0  0  0  0  0  0  0
    7.2392    1.5513  -20.8047 H   0  0  0  0  0  0  0  0  0  0  0  0
    3.5934   -0.7442  -20.5365 H   0  0  0  0  0  0  0  0  0  0  0  0
    7.1433    7.0522  -16.3251 H   0  0  0  0  0  0  0  0  0  0  0  0
    8.3718    8.9419  -19.9930 H   0  0  0  0  0  0  0  0  0  0  0  0
    4.2036    8.0470  -19.3207 H   0  0  0  0  0  0  0  0  0  0  0  0
    8.6746   -0.2971  -13.6902 H   0  0  0  0  0  0  0  0  0  0  0  0
    6.8888   -0.3986  -13.8557 H   0  0  0  0  0  0  0  0  0  0  0  0
    7.6884    1.7157  -14.8360 H   0  0  0  0  0  0  0  0  0  0  0  0
    8.8463    0.8268  -15.8827 H   0  0  0  0  0  0  0  0  0  0  0  0
    8.9783   -1.8148  -15.6114 H   0  0  0  0  0  0  0  0  0  0  0  0
    7.8958   -2.5821  -14.4005 H   0  0  0  0  0  0  0  0  0  0  0  0
    6.2201   -0.8437  -17.9828 H   0  0  0  0  0  0  0  0  0  0  0  0
    7.9848   -0.7265  -17.6681 H   0  0  0  0  0  0  0  0  0  0  0  0
    5.8038    0.4952  -15.9011 H   0  0  0  0  0  0  0  0  0  0  0  0
    5.9162   -1.8750  -15.7179 H   0  0  0  0  0  0  0  0  0  0  0  0
    2.2983   -3.5561  -17.7693 H   0  0  0  0  0  0  0  0  0  0  0  0
    3.3449   -2.6964  -18.9492 H   0  0  0  0  0  0  0  0  0  0  0  0
    3.2902   -4.4919  -18.9384 H   0  0  0  0  0  0  0  0  0  0  0  0
    4.5013   10.4443  -22.1976 H   0  0  0  0  0  0  0  0  0  0  0  0
    3.8126    9.4673  -20.8570 H   0  0  0  0  0  0  0  0  0  0  0  0
    4.8318   10.9007  -20.4921 H   0  0  0  0  0  0  0  0  0  0  0  0
    5.5581    8.4358  -23.1966 H   0  0  0  0  0  0  0  0  0  0  0  0
    6.7089    7.4340  -22.2487 H   0  0  0  0  0  0  0  0  0  0  0  0
    4.9503    7.3645  -21.8891 H   0  0  0  0  0  0  0  0  0  0  0  0
    7.1380   -5.4636  -16.5725 H   0  0  0  0  0  0  0  0  0  0  0  0
    8.0458   -4.4120  -15.4339 H   0  0  0  0  0  0  0  0  0  0  0  0
    6.2598   -4.5496  -15.2998 H   0  0  0  0  0  0  0  0  0  0  0  0
    8.1405   -4.3633  -18.4717 H   0  0  0  0  0  0  0  0  0  0  0  0
    8.0327   -2.5866  -18.7126 H   0  0  0  0  0  0  0  0  0  0  0  0
    9.0771   -3.2550  -17.4130 H   0  0  0  0  0  0  0  0  0  0  0  0
    4.4903    2.4110  -21.2576 H   0  0  0  0  0  0  0  0  0  0  0  0
    3.5130    1.5173  -20.0439 H   0  0  0  0  0  0  0  0  0  0  0  0
    4.9271    6.6043  -15.8779 H   0  0  0  0  0  0  0  0  0  0  0  0
    3.7170    7.6994  -16.6283 H   0  0  0  0  0  0  0  0  0  0  0  0
    4.9604    4.1127  -16.8149 H   0  0  0  0  0  0  0  0  0  0  0  0
    5.7338    5.0647  -18.1272 H   0  0  0  0  0  0  0  0  0  0  0  0
    6.7948    9.7810  -21.5023 H   0  0  0  0  0  0  0  0  0  0  0  0
    6.0649    3.1488  -19.5755 H   0  0  0  0  0  0  0  0  0  0  0  0
    3.8747    4.3546  -19.6667 H   0  0  0  0  0  0  0  0  0  0  0  0
    4.6747    1.2809  -17.6901 H   0  0  0  0  0  0  0  0  0  0  0  0
    5.8366   -3.5562  -18.7848 H   0  0  0  0  0  0  0  0  0  0  0  0
    3.1088    5.4462  -16.9054 H   0  0  0  0  0  0  0  0  0  0  0  0
    3.4708    6.0865  -18.3634 H   0  0  0  0  0  0  0  0  0  0  0  0
    2.5681    2.5895  -18.8545 H   0  0  0  0  0  0  0  0  0  0  0  0
  1  2  1  0  0  0  0
  1  3  2  0  0  0  0
  2  5  2  0  0  0  0
  3  6  1  0  0  0  0
  4  7  1  0  0  0  0
  4  8  2  0  0  0  0
  5 10  1  0  0  0  0
  6 10  2  0  0  0  0
  7 11  2  0  0  0  0
  8 12  1  0  0  0  0
  9 11  1  0  0  0  0
  9 12  2  0  0  0  0
 10 26  1  0  0  0  0
 11 27  1  0  0  0  0
 12 29  1  0  0  0  0
 13 19  1  0  0  0  0
 13 33  1  0  0  0  0
 13 36  2  0  0  0  0
 14 21  1  0  0  0  0
 14 34  1  0  0  0  0
 14 37  2  0  0  0  0
 15 16  1  0  0  0  0
 15 17  1  0  0  0  0
 16 19  1  0  0  0  0
 17 20  1  0  0  0  0
 18 19  1  0  0  0  0
 18 20  1  0  0  0  0
 20 32  1  0  0  0  0
 22 29  1  0  0  0  0
 23 29  1  0  0  0  0
 24 32  1  0  0  0  0
 25 32  1  0  0  0  0
 26 30  1  0  0  0  0
 27 35  1  0  0  0  0
 28 31  1  0  0  0  0
 28 35  1  0  0  0  0
 30 31  1  0  0  0  0
 30 33  1  0  0  0  0
 31 38  1  0  0  0  0
 32 34  1  0  0  0  0
  1 39  1  0  0  0  0
  2 40  1  0  0  0  0
  3 41  1  0  0  0  0
  4 42  1  0  0  0  0
  5 43  1  0  0  0  0
  6 44  1  0  0  0  0
  7 45  1  0  0  0  0
  8 46  1  0  0  0  0
  9 47  1  0  0  0  0
 15 48  1  0  0  0  0
 15 49  1  0  0  0  0
 16 50  1  0  0  0  0
 16 51  1  0  0  0  0
 17 52  1  0  0  0  0
 17 53  1  0  0  0  0
 18 54  1  0  0  0  0
 18 55  1  0  0  0  0
 19 56  1  0  0  0  0
 20 57  1  0  0  0  0
 21 58  1  0  0  0  0
 21 59  1  0  0  0  0
 21 60  1  0  0  0  0
 22 61  1  0  0  0  0
 22 62  1  0  0  0  0
 22 63  1  0  0  0  0
 23 64  1  0  0  0  0
 23 65  1  0  0  0  0
 23 66  1  0  0  0  0
 24 67  1  0  0  0  0
 24 68  1  0  0  0  0
 24 69  1  0  0  0  0
 25 70  1  0  0  0  0
 25 71  1  0  0  0  0
 25 72  1  0  0  0  0
 26 73  1  0  0  0  0
 26 74  1  0  0  0  0
 27 75  1  0  0  0  0
 27 76  1  0  0  0  0
 28 77  1  0  0  0  0
 28 78  1  0  0  0  0
 29 79  1  0  0  0  0
 30 80  1  0  0  0  0
 31 81  1  0  0  0  0
 33 82  1  0  0  0  0
 34 83  1  0  0  0  0
 35 84  1  0  0  0  0
 35 85  1  0  0  0  0
 38 86  1  0  0  0  0
M  CHG  1  35   1
M  END
> <OMEGA_C>
bA/YQPXz5b/aaqrB3cDtQN2hEL9Dm6nBeLerQBM77r8LeajBTyL9QEO9/0DJ45DBywzXQA5AGz94
96bBFf+UQP96Mb8ax6XB/aPcQF4670DjS4rBHc7yQFrECEFb6JrBL1GnQJLNAEEv2JfByomqQDul
Cz+UAqXBoL6xQDBe8EDkuY3Bz9zHQIaDCUFybJ7Bw/LUQABs2z8UdIvBdheNQCCGZ8C5eorBZv36
QPL20L4vb2bBa777QDBkRz9UJXbBuqH/QNM+4r+PJHLBNqDfQIFlPb9nnonBQG/YQKl6Ez+3dYPB
+pDcQAnZ97+0w4HBK0xQQPioZcCmfpLBecqVQGfvIEFzd6nBbeO4QCBJAEHVn7HBSnvjQAHRkMBV
+3/BSygCQWjEWMBEuI/BTwiRQHdd5z/ltaLBnlCPQKjL3UAPn4bBX/eYQPJ8lUDX9Y3BchW+QNSg
EkHff6nB/5OkQAUWK0AqrZnB4pyEQH9ocEARRZbBCS3eQNLEVMDQzIfB+batQJWy6T8odZDBMue2
QOB4YMDRWI7BeEt2QJIBuUCQ6YvB7Z/zQG0iG0Ccxo3Bre2EQMmQZsDV4oDByGA+QDB0SkATupHB
anXpQMBALMAtiKzBS+kHQZjxBL+6AqvB/SabQHyaM8CQDKnBKwYPQQXF/kA2RI7BhKfnQI+Rxj8B
cKbBBvtlQLCBPr+4SqTB85XkQMWr4UDmmYLBw/IFQQQSD0G88Z/BDoSGQE/AAEHAkJrBFssKQaoi
mL4LC1vBInHcQPQVzL7vsF3BkQf2QOeb2z8UYG3BkYoNQY2mUz+fH37BUacPQZtM6L8lyHnBrKr8
QNNBJcCmaGbBVwvHQPf+V7/I3I/BGIP/QPz7Ob8/WI3B5bi5QDaR/T4Na37BbFG9QFv/779/fHvB
oBcTQIiWY8B4J47BLBJWQGySLMDpl5fBo5JSQFy9j8DPgZfB5wqQQP4bJ0HBlLHBXQJ0QOl5F0EL
26bBNJ6aQGppLkHQ76PBCdyxQBX5BkGLkrnBZq/WQGDj7UBX/bHBOmmeQCOq60D1HK/BfmrkQAbW
rsCIlITBlrsAQVAvjcBX8XbBWFDIQGaWkcAkzHTBdD8CQT2gi8AGxpPB3IUAQb6KJcBjs5XB5DsR
QbRSUMDLTYvB37CPQB9NGkCHD6rBuNVgQHY3wj/0WaDByaqdQGRW00DsC37B/+JtQCth9kDMBoXB
n7ueQBybg0DRhIbBYXu3QMMRokB9BJHBMW/ZQPF+HEGsBKzBEBTCQHSGSUClmpzBqvt3QIVYi0BZ
VZ3BL5eVQCP0oz9MhY3BJcW6QHmZY8BYR5bB+vVGQHpHrkBGPofBUSJeQFzEwkAu6JLBSlskQDK6
JUAL1pbBDRDYQI1s0L8z2qzBluLpQM5frb7lCqzBRhetQIZP7L9b7qnB8BP/QOLL+0CFO5DBN6jQ
QLa2PD8hcKjB6tuTQB3eRb9oQKbBH6TdQDiq60B734nBHQT2QD9QB0ENNprBjeqpQOY3AEGQlZfB
VomlQFNCBj8zdaXBUxCzQIIx7kCZgI3BL2jLQLy0CEEz7Z3Bw/zQQFt96T+8qIvBpFfgQElVncDD
e3TBo0UBQVVWa76/7WjBxCr+QK9GdT8eVnjBfn4CQVWtyb86PHXBVbnZQFkAE78vgYnB0ZPWQByR
Pj9NRoPBNj/dQIcV5b9p/oHB2Wv/QCl8tMBn0WXByLGdQMQHI0GyXajBqnm4QBUGAUGRGrHBmLr8
QIe5QcAekZLBuEqxQO6jYcD4CI3B4BGJQOCp2D/FPqLBAYKPQExv3EB6nIbB6g6WQBnqlEAbhY7B
iKHCQAilEkHP3qjBFEaeQEgXKEAm6pnBVNl+QF/WbkCMbZbBDojeQHBFSMBhxIjB01WpQItT7D8B
fZDBDzvyQOPDhsBvnILBroNzQF9EuUD2MYzBHWPvQApIHkD8FY/B78C6QFJ4mcAQPm/Bij81QPgA
S0C+WJHBCVjrQOLPHMCKtq/BU3kFQUT5Mr6NMK7BxnqfQMaENcAKg6rBLd8PQdG8+UBqdY3BhEbe
QDwr3T9/8qfB481lQJEocb+8B6TBRp/kQOBW3UDSNILB1OYHQf+CDUGfDp/BbleJQHG4AEGidZrB
OPEPQQi21r3GaV/BHaTmQIeLf75CNF7BK3T6QOWq8T/IHm/BGXcNQSV0gz/5NYHBpQcRQU84yr+I
KH/BK0cDQWWJGcBtl2nBDPK8QIXUL7+/fY7Bojv2QAh6Cr/MqI7BJPG5QJ3bNj9AU3zBsonAQG3m
6L+o0HnBUnLuQNxmv8DvZVfBEn0GQRdC0MA8Pm7Bca4MQYyQnsBTMWHBI02YQALWKUFiXrDBj12A
QMQBG0GvnKXBxhmmQLjrL0FMwaLBkTeyQOVdCEFe8rjBr+fTQC0j7EDtvrHBFA2cQFMX8EBjf67B
AnL8QKaofsBD+ZbBTbnxQHLwDcD62pfB4LoOQe7nM8Aa1I/BkKuzQKGjjsBbrJHBFW2bQDI9a8B2
PobBcumkQJtALsBJMZLBAJaBQHL4EUBUcanBS5JWQM6LpT/Ez57BJBKdQANu0ECjIX7Bu49wQCX3
9UBV4oTBBwWdQDZfg0CAF4fBSiW0QA2ToEBJCZLBeq3fQKMSG0GwgavBYxm7QO4IRUBLcJ3BNNNr
QHYWikDGf53BIlWSQEHzoz/AQI3Bt/8HQRX/jsCKtITBoEhDQFrzrkDJnIfByz9cQMFtxEATG5PB
SokYQIIcJkC5NJbB1KnaQJHW5L/FiqvBkPPuQIveCL9ynKrBTL2uQFHv9L+xOKnBpjD9QAYa/0DI
0pDB+C7XQKpzGT+njKfB1PeWQPVsSL/sGqbBtTHdQF7f7UARMYrBTznyQPKNCEGoxprBbhunQNjw
/0CZk5fBtgirQNQv9T4dQaXBiCqyQHh17kBQho3B0CLHQNwLCUHpMJ7B2srWQCvo4T9KjYvBGEye
QPE6hsAv14/BzesGQSScj76nl2nBG0cDQZFMZj8l+HjBJQAIQaLS0L+WqnXB1FngQJDuLb/BH4nB
rdLdQO+sKz/NMoPBnwjmQPab7b92GIHBWk9eQNzAeMCC95HBkvmTQFJWIEFg/ajBp5a3QHYbAEET
aLHBRL7xQO/KjcDfnX/BOV/8QFFtUMC6fJHBfiuQQPfV2T+7kKLB0UmQQIwH20CaZYbB5uaZQDNw
k0AKLI7Bsqe8QEpQEkHhMqnB2Y2kQLdPJkBv2pnBVfGEQDoTbED/YJbBe0viQKAqUMDk4YbBt1uv
QKIu4z8rkZDBdZazQA96WMAimojB9gh4QPCYtkDo0ovB4HDzQJWiIkDcHo7BTQ+xQFg9oMBseZXB
K5o/QAd/RkBOrZHBxs7sQALCKcBvCa7BbmEIQUAk4741P6zBMk6fQFAeOMAe1anBRxsPQVmF/kCT
R47B3q/mQG/oxz8+9KbBHYhqQARdYb+sW6TBrJ/lQAYx4EDfioLBEngFQfoiD0EJ15/BGDWGQPx2
/0A5OJrBARQWQVKY/70mAGHB4U/zQKE9or47Cl7B13wBQUeu6T/to2/BOCERQcvvfT/j3IHBi4wV
QfLgzr/kcoDB9zYKQQGtHMCvFWrBMKzCQI64VL+tso3Bc8b7QL53Kb+Vo47B1BXCQLYSJj8UkXvB
SYnLQEsN5r/SpHbB9cNHQK6Kj8D9yZjBZ1g4QHVUhMDp04rBOfFWQGZQNMDrz5PBTLiNQDaiJkGj
DrHB/h9xQD2iFkEtW6bBlaiYQPO7LUF1Z6PBDg6wQNvpBkHhTLnB85rVQDTv7UD15bHBB32dQDDd
6kDF4a7BSmHuQKD6q8COQYTBUMQJQYjwiMARU3vBJUjeQKk2j8Dx93DBAlD5QHGhh8CoYZXBsPnv
QJVxHsCK2pbBjSIPQe68Q8B4uY/BhRGMQPUwE0A34anBnmNhQGd6rj+itJ/BrCqfQEf4z0Ae1X3B
Br5vQIZO80CukYTBKMagQFBwgUCqzobBEeO3QO9xoEBdcJHB3aDXQM9qHEHivKvBA4rBQCOOREB5
HZ3BM/F3QJ4QiUA9b53BbZSYQGh+lj+Boo3BYA2hQBHuM8DG8oPBQlZJQIFTq0CIIofBiv9eQGbp
wEBQuJLBu9wkQFmqIUBPt5bB6ATgQFKJsL+KPq7BEEvXQNpC+L3R2LLBjLTLQNX94L85oqTBzLz8
QKmb/0D5dZPBtSK6QO2MQT8B3q3B3GauQGcAYr8Sqp/B9r/eQMEN7EDypYzBD8zuQGUvDEFhNJzB
hpekQOIxBUERQpfBYTSlQNIRvz52UqTBPqqyQDDF8UAAeo7BPXnCQEKiDkHfZZ7BvMzRQNuwtT/U
fonBUhoMQeqglcAud4XBwZsBQauecT7F6VzBKsz+QGvyiD+xcHHBsSsDQVEMor/iK2LBppnZQC4u
Yb8d7IHBNgTXQId5Hj9ANX7BJvTeQGoZ4b8JbW/BQfcfQWCglMB5mYzBFx2HQIksFUEcQqzBjGvT
QDN6HEHqSrHBvqm5QOJHb8Be14DBeZrmQMIXhMAJXWDBTOCFQAFOqj94AZ/BZXSSQLW53EAYHYfB
IZCZQBdhk0Aqq47BESGzQHqdHEHm2KfBfxudQOkvE0BBQZfBi8J/QCL2X0DIW5TBn3fiQL53UsDr
Q3XBbZqoQGEwyT/0bI3B8H0EQT0TXsBIaIHBlQF6QCdZuEAUfozBHxPxQJCz6z+MYo7BXH0CQQdz
t8CZLoTBzSk7QNm7REBkj43BvkH2QBljA8DKE7LBsvLmQMRoLj4oMLrBVpfSQIz2LcCqE6HBHUcP
QaCg+0D2+5HB+8SzQGmm3D9FW7HBpPeeQOIelr9JSpjBFoXpQAys2EBXBYbB6gcDQcnmE0EfTKHB
ZbuCQMV2B0GBkJjBZCYQQVsXDD8LV1TBbRXnQMAz0T7Ks1LBZXH7QAtyCEAFLW3BYcYNQUE0bz/w
W3vBhdMRQevmuL8gfWvB5usDQfLJ6r/tHlPBKwm8QIxnlr+gEobB7y31QFW+hb9zOofBsYK6QCkf
SD9UN3TBqzTCQKVC0L9/fWXBngIjQbjYtMCnzI/BrlYdQYByfMBCQpPBF9gtQZQTisCz34fB3xd7
QNaPH0F98rLBeaKJQAaNBEFrFK/B8fRdQCsiFkHa3qXBTTDHQC+bJkGszrfBxHDyQLW4IkFzi67B
V4PXQMoADEEmN7TB+0S8QLPNmcDc24LB2T+dQFb0ZMCjnnfB1au2QISXScB8PIjBng3pQGs+psDI
cmTB0bkBQTJCdMBOmFfBuTnKQBm5fcC+SFbBiRZrQCFx9T9aOqXBGkRcQDR8Pz+seprBbxSjQJvx
0EBD4H/Bb290QBp29ED/w4TBmFSmQDz5hkCzE4fB7jC0QNitnUDY0JPBwcqvQCovLUHa/6TB5i66
QBx4K0CILZvBVqVlQOiDekCH05vB2MuQQOi2kz/iQInBrs8MQehmKcCUPIPBYw1KQBlYrkBr0ofB
bmNiQBe1wkBVdpPB0U4bQJoPGUD6CZHB

> <OMEGA_E>
VlNKP/KHVz8cQ0g/9iGFPw==

> <OMEGA_NBR>
     13266

$$$$
30276
  -OEChem-04172616093D

 85 87  0     1  0  0  0  0  0999 V2000
    6.4049   -1.2520  -21.3452 C   0  0  0  0  0  0  0  0  0  0  0  0
    7.1558   -0.1012  -21.0362 C   0  0  0  0  0  0  0  0  0  0  0  0
    4.9990   -1.1819  -21.4013 C   0  0  0  0  0  0  0  0  0  0  0  0
    6.5012    1.1195  -20.7844 C   0  0  0  0  0  0  0  0  0  0  0  0
    4.3406    0.0341  -21.1353 C   0  0  0  0  0  0  0  0  0  0  0  0
    1.8313   -3.4436  -17.1250 C   0  0  0  0  0  0  0  0  0  0  0  0
    2.7583   -5.5692  -16.3484 C   0  0  0  0  0  0  0  0  0  0  0  0
    0.6888   -3.6519  -16.3327 C   0  0  0  0  0  0  0  0  0  0  0  0
    1.6127   -5.7767  -15.5581 C   0  0  0  0  0  0  0  0  0  0  0  0
    5.8768   -0.3469  -17.0274 C   0  0  0  0  0  0  0  0  0  0  0  0
    7.0525   -1.4479  -15.2056 C   0  0  0  0  0  0  0  0  0  0  0  0
    7.0465    0.9729  -15.3444 C   0  0  0  0  0  0  0  0  0  0  0  0
    6.2591   -1.5275  -16.3593 C   0  0  0  0  0  0  0  0  0  0  0  0
    6.3208    0.9012  -16.5436 C   0  0  0  0  0  0  0  0  0  0  0  0
    5.0861    1.1888  -20.8141 C   0  0  0  0  0  0  0  0  0  0  0  0
    2.8649   -4.4087  -17.1442 C   0  0  0  0  0  0  0  0  0  0  0  0
    7.4018   -0.2016  -14.6544 C   0  0  0  0  0  0  0  0  0  0  0  0
    0.5756   -4.8221  -15.5566 C   0  0  0  0  0  0  0  0  0  0  0  0
    5.8463   -2.8430  -16.8538 C   0  0  0  0  0  0  0  0  0  0  0  0
    6.1025    2.1194  -17.3188 C   0  0  0  0  0  0  0  0  0  0  0  0
    5.6689    6.8494  -18.7504 C   0  0  0  0  0  0  0  0  0  0  0  0
    5.4638    9.2725  -21.5959 C   0  0  0  0  0  0  0  0  0  0  0  0
    3.7392   -4.1445  -19.4955 C   0  0  0  0  0  0  0  0  0  0  0  0
    5.2397    6.8784  -16.2602 C   0  0  0  0  0  0  0  0  0  0  0  0
    8.8095    1.1221  -13.0614 C   0  0  0  0  0  0  0  0  0  0  0  0
    7.9018   -0.5370  -10.6370 C   0  0  0  0  0  0  0  0  0  0  0  0
    4.3565    2.4947  -20.5100 C   0  0  0  0  0  0  0  0  0  0  0  0
    6.2549    8.5994  -20.4668 C   0  0  0  0  0  0  0  0  0  0  0  0
    4.0294    4.3289  -18.7942 C   0  0  0  0  0  0  0  0  0  0  0  0
    4.0899   -4.1990  -18.0058 C   0  0  1  0  0  0  0  0  0  0  0  0
    4.7159    6.3981  -17.6239 C   0  0  2  0  0  0  0  0  0  0  0  0
    4.9236    3.1771  -19.2531 C   0  0  1  0  0  0  0  0  0  0  0  0
    4.7082   -2.9330  -17.6296 N   0  0  0  0  0  0  0  0  0  0  0  0
    5.0312    2.1768  -18.1902 N   0  0  0  0  0  0  0  0  0  0  0  0
    5.3348    7.9718  -19.5026 N   0  0  0  0  0  0  0  0  0  0  0  0
    8.1239   -0.1420  -13.4550 N   0  0  1  0  0  0  0  0  0  0  0  0
    4.6097    4.9314  -17.5754 N   0  3  0  0  0  0  0  0  0  0  0  0
    6.4645   -3.8496  -16.5213 O   0  0  0  0  0  0  0  0  0  0  0  0
    6.9201    3.0331  -17.2567 O   0  0  0  0  0  0  0  0  0  0  0  0
    6.7312    6.2615  -18.9319 O   0  0  0  0  0  0  0  0  0  0  0  0
    9.0649   -2.2560  -12.2827 O   0  0  0  0  0  0  0  0  0  0  0  0
    6.5430   -1.9254  -12.3811 O   0  0  0  0  0  0  0  0  0  0  0  0
   -0.5307   -5.0288  -14.8092 F   0  0  0  0  0  0  0  0  0  0  0  0
    7.8963   -1.3658  -12.2353 S   0  0  0  0  0  0  0  0  0  0  0  0
    6.9070   -2.1883  -21.5391 H   0  0  0  0  0  0  0  0  0  0  0  0
    8.2335   -0.1551  -20.9926 H   0  0  0  0  0  0  0  0  0  0  0  0
    4.4249   -2.0626  -21.6489 H   0  0  0  0  0  0  0  0  0  0  0  0
    7.0792    2.0057  -20.5678 H   0  0  0  0  0  0  0  0  0  0  0  0
    3.2626    0.0833  -21.1771 H   0  0  0  0  0  0  0  0  0  0  0  0
    1.9198   -2.5461  -17.7192 H   0  0  0  0  0  0  0  0  0  0  0  0
    3.5556   -6.2977  -16.3458 H   0  0  0  0  0  0  0  0  0  0  0  0
   -0.1013   -2.9157  -16.3192 H   0  0  0  0  0  0  0  0  0  0  0  0
    1.5280   -6.6672  -14.9530 H   0  0  0  0  0  0  0  0  0  0  0  0
    5.2480   -0.3977  -17.9040 H   0  0  0  0  0  0  0  0  0  0  0  0
    7.4000   -2.3553  -14.7342 H   0  0  0  0  0  0  0  0  0  0  0  0
    7.3342    1.9356  -14.9483 H   0  0  0  0  0  0  0  0  0  0  0  0
    6.1624    9.7364  -22.3077 H   0  0  0  0  0  0  0  0  0  0  0  0
    4.8559    8.5186  -22.1175 H   0  0  0  0  0  0  0  0  0  0  0  0
    4.8054   10.0451  -21.1721 H   0  0  0  0  0  0  0  0  0  0  0  0
    4.6564   -3.9913  -20.0833 H   0  0  0  0  0  0  0  0  0  0  0  0
    3.2656   -5.0909  -19.7954 H   0  0  0  0  0  0  0  0  0  0  0  0
    3.0435   -3.3123  -19.6782 H   0  0  0  0  0  0  0  0  0  0  0  0
    4.5522    6.5506  -15.4666 H   0  0  0  0  0  0  0  0  0  0  0  0
    6.2376    6.4520  -16.0799 H   0  0  0  0  0  0  0  0  0  0  0  0
    5.3045    7.9765  -16.2585 H   0  0  0  0  0  0  0  0  0  0  0  0
    9.3204    0.9781  -12.0979 H   0  0  0  0  0  0  0  0  0  0  0  0
    9.5475    1.3936  -13.8306 H   0  0  0  0  0  0  0  0  0  0  0  0
    8.0665    1.9275  -12.9656 H   0  0  0  0  0  0  0  0  0  0  0  0
    7.7601   -1.2794   -9.8378 H   0  0  0  0  0  0  0  0  0  0  0  0
    8.8639   -0.0234  -10.4938 H   0  0  0  0  0  0  0  0  0  0  0  0
    7.0848    0.1988  -10.6029 H   0  0  0  0  0  0  0  0  0  0  0  0
    4.4683    3.1748  -21.3674 H   0  0  0  0  0  0  0  0  0  0  0  0
    3.2898    2.2794  -20.3495 H   0  0  0  0  0  0  0  0  0  0  0  0
    6.9136    7.8290  -20.8943 H   0  0  0  0  0  0  0  0  0  0  0  0
    6.8631    9.3556  -19.9489 H   0  0  0  0  0  0  0  0  0  0  0  0
    3.9689    5.0879  -19.5881 H   0  0  0  0  0  0  0  0  0  0  0  0
    3.0213    3.9480  -18.5735 H   0  0  0  0  0  0  0  0  0  0  0  0
    4.7960   -5.0251  -17.8360 H   0  0  0  0  0  0  0  0  0  0  0  0
    3.7234    6.8383  -17.8001 H   0  0  0  0  0  0  0  0  0  0  0  0
    5.9215    3.5755  -19.4888 H   0  0  0  0  0  0  0  0  0  0  0  0
    4.2854   -2.0855  -17.9504 H   0  0  0  0  0  0  0  0  0  0  0  0
    4.2972    1.5052  -18.0900 H   0  0  0  0  0  0  0  0  0  0  0  0
    4.4260    8.3716  -19.3828 H   0  0  0  0  0  0  0  0  0  0  0  0
    4.0328    4.6836  -16.7971 H   0  0  0  0  0  0  0  0  0  0  0  0
    5.5265    4.5541  -17.4443 H   0  0  0  0  0  0  0  0  0  0  0  0
  1  2  1  0  0  0  0
  1  3  2  0  0  0  0
  2  4  2  0  0  0  0
  3  5  1  0  0  0  0
  4 15  1  0  0  0  0
  5 15  2  0  0  0  0
  6  8  2  0  0  0  0
  6 16  1  0  0  0  0
  7  9  1  0  0  0  0
  7 16  2  0  0  0  0
  8 18  1  0  0  0  0
  9 18  2  0  0  0  0
 10 13  2  0  0  0  0
 10 14  1  0  0  0  0
 11 13  1  0  0  0  0
 11 17  2  0  0  0  0
 12 14  2  0  0  0  0
 12 17  1  0  0  0  0
 13 19  1  0  0  0  0
 14 20  1  0  0  0  0
 15 27  1  0  0  0  0
 16 30  1  0  0  0  0
 17 36  1  0  0  0  0
 18 43  1  0  0  0  0
 19 33  1  0  0  0  0
 19 38  2  0  0  0  0
 20 34  1  0  0  0  0
 20 39  2  0  0  0  0
 21 31  1  0  0  0  0
 21 35  1  0  0  0  0
 21 40  2  0  0  0  0
 22 28  1  0  0  0  0
 23 30  1  0  0  0  0
 24 31  1  0  0  0  0
 25 36  1  0  0  0  0
 26 44  1  0  0  0  0
 27 32  1  0  0  0  0
 28 35  1  0  0  0  0
 29 32  1  0  0  0  0
 29 37  1  0  0  0  0
 30 33  1  0  0  0  0
 31 37  1  0  0  0  0
 32 34  1  0  0  0  0
 36 44  1  0  0  0  0
 41 44  2  0  0  0  0
 42 44  2  0  0  0  0
  1 45  1  0  0  0  0
  2 46  1  0  0  0  0
  3 47  1  0  0  0  0
  4 48  1  0  0  0  0
  5 49  1  0  0  0  0
  6 50  1  0  0  0  0
  7 51  1  0  0  0  0
  8 52  1  0  0  0  0
  9 53  1  0  0  0  0
 10 54  1  0  0  0  0
 11 55  1  0  0  0  0
 12 56  1  0  0  0  0
 22 57  1  0  0  0  0
 22 58  1  0  0  0  0
 22 59  1  0  0  0  0
 23 60  1  0  0  0  0
 23 61  1  0  0  0  0
 23 62  1  0  0  0  0
 24 63  1  0  0  0  0
 24 64  1  0  0  0  0
 24 65  1  0  0  0  0
 25 66  1  0  0  0  0
 25 67  1  0  0  0  0
 25 68  1  0  0  0  0
 26 69  1  0  0  0  0
 26 70  1  0  0  0  0
 26 71  1  0  0  0  0
 27 72  1  0  0  0  0
 27 73  1  0  0  0  0
 28 74  1  0  0  0  0
 28 75  1  0  0  0  0
 29 76  1  0  0  0  0
 29 77  1  0  0  0  0
 30 78  1  0  0  0  0
 31 79  1  0  0  0  0
 32 80  1  0  0  0  0
 33 81  1  0  0  0  0
 34 82  1  0  0  0  0
 35 83  1  0  0  0  0
 37 84  1  0  0  0  0
 37 85  1  0  0  0  0
M  CHG  1  37   1
M  END
> <OMEGA_C>
E/XMQP8/oL/pwqrBBPzkQDQ1z701SqjBgfefQFRJl7/0NavBewnQQJRLjz9hRqbBlOaKQJSYCz0Y
FanBImnqPwtkXMADAInBPIgwQOU2ssByyYLBnlMwPx+5acByqYLBdm3OP/rauMAu7njB3w68QB2i
sb4POIjBYa7hQGlUub9PSnPBuXzhQJQQeT+6gnXBz0rIQIKFw7/m34LBtkPKQDy3Zj9HWYTBMMGi
QBksmD9Cg6bBB1o3QNwTjcBTJ4nBvtvsQHJ5Tr5oeGrBRl0TP1dOmsCx53jBwRS7QDz0NcCo1IbB
R0fDQMSkB0DjjIrBw2e1QGQu20DRAJbBhNeuQB1cFEFlxKzB0U9vQAOghMDd9pvB1qunQAAc3EDc
FILBvvMMQcGfjz9++1DBatv8QNR2Cb8yMSrBd2iLQHepH0CHFKTBYijIQAuXCUEAvKPBqfCAQGiG
ikCRWpbBlOCCQO1dhsDJC5DB4uiWQDK9zECn/YzBe46dQC5VS0BmBprBP6mWQMO1O8BWCY3Brf+g
QPlQC0CUhZHBX7aqQEMZ/0BgBZzBg/sBQSppEb6IR1fBxIKTQL3NnUB5mozB2tzOQChgdsCyK4TB
dHHdQDYeQkDDDYrBVmbXQNddyECYdJfBvgkRQdVhEMAehkTBBGDRQPJx9r8AGUbBzNsHvzvsoMBg
8mzBPq78QCHUrr/Rw0PBYQbdQKgMDMD6T6zBi7wDQTnYHr7A8KfBLJmNQMcBBMAHMa3BsojiQMBd
AEDwiqTBG85QQKaVqj3DaqnBd7v1P+XzIsAFwY3BlY9jQIaGycBDxILBj2/PveyaOsC1jYLBlpbD
PxRa1cB4P2/B2e+nQNKhy75cO4/Bf8zsQGu9FsAwv2vBFLLqQKjA9z9eLG/BczLFQG7IG0E9drLB
lWObQP5LCEGS8LDBMMaZQLW4IEFhYKnB4gCVQKZxf8CLqqDB5f5QQATposABXZ7BTslCQHz8U8Di
bJ3BoquRQFme0UAOd3fBGZrHQL12zkC2o4DBVL6pQJA//0BuEYLBNyAVQfBjej8TkUHBhMIYQVNh
sj8YSl3BaxABQRK59j/rck/BXFL4QHnEo7/UZx3Br9INQazGv7x45ifBiLbiQIKPSz5SpSnBOfyO
QI4vS0BZ8KrBH4xSQAThEUDAy6LBKDzdQGCH+kBwJ6fBw57bQGawFUE/l5/BrgF+QDHQokBvtJzB
Ml1BQFqsfEB4lpTBJnmZQPXNoMAYsI7BjktuQDnT2kCBZo7BFn29QH3UZED66JvBpCGJQCh4BcB/
mo/BWIKJQOGowD9fuJDBA6KNQCryBUHhD5vBuwyBQP/flUB4YIbB19iwQNm6kUDojYvB

> <OMEGA_E>
MObTPg==

> <OMEGA_NBR>
      1699

$$$$
30274
  -OEChem-04172616093D

 95 97  0     1  0  0  0  0  0999 V2000
    6.3221   -1.2758  -21.4857 C   0  0  0  0  0  0  0  0  0  0  0  0
    7.0996   -0.1418  -21.1780 C   0  0  0  0  0  0  0  0  0  0  0  0
    4.9170   -1.1810  -21.5211 C   0  0  0  0  0  0  0  0  0  0  0  0
    6.4720    1.0885  -20.9080 C   0  0  0  0  0  0  0  0  0  0  0  0
    4.2865    0.0424  -21.2353 C   0  0  0  0  0  0  0  0  0  0  0  0
    1.8793   -3.3522  -17.1604 C   0  0  0  0  0  0  0  0  0  0  0  0
    2.7624   -5.5224  -16.4607 C   0  0  0  0  0  0  0  0  0  0  0  0
    0.7383   -3.5597  -16.3646 C   0  0  0  0  0  0  0  0  0  0  0  0
    1.6204   -5.7276  -15.6649 C   0  0  0  0  0  0  0  0  0  0  0  0
    5.9755   -0.3576  -17.0588 C   0  0  0  0  0  0  0  0  0  0  0  0
    7.0737   -1.4062  -15.1540 C   0  0  0  0  0  0  0  0  0  0  0  0
    7.1411    1.0090  -15.4168 C   0  0  0  0  0  0  0  0  0  0  0  0
    6.3138   -1.5194  -16.3363 C   0  0  0  0  0  0  0  0  0  0  0  0
    6.4151    0.9028  -16.6125 C   0  0  0  0  0  0  0  0  0  0  0  0
    5.0594    1.1786  -20.9205 C   0  0  0  0  0  0  0  0  0  0  0  0
    2.8922   -4.3382  -17.2166 C   0  0  0  0  0  0  0  0  0  0  0  0
    7.4585   -0.1372  -14.6632 C   0  0  0  0  0  0  0  0  0  0  0  0
    0.6071   -4.7491  -15.6207 C   0  0  0  0  0  0  0  0  0  0  0  0
    5.8553   -2.8371  -16.8062 C   0  0  0  0  0  0  0  0  0  0  0  0
    6.1507    2.1043  -17.4049 C   0  0  0  0  0  0  0  0  0  0  0  0
    5.6519    6.7461  -18.7304 C   0  0  0  0  0  0  0  0  0  0  0  0
    3.7385   -4.0335  -19.5648 C   0  0  0  0  0  0  0  0  0  0  0  0
    6.6905    9.5562  -22.5417 C   0  0  0  0  0  0  0  0  0  0  0  0
    4.6223   10.0813  -21.2001 C   0  0  0  0  0  0  0  0  0  0  0  0
    8.9281    1.2318  -13.1607 C   0  0  0  0  0  0  0  0  0  0  0  0
    8.8877   -2.4381  -12.1546 C   0  0  0  0  0  0  0  0  0  0  0  0
    4.3566    2.4836  -20.6037 C   0  0  0  0  0  0  0  0  0  0  0  0
    4.8414    6.8589  -16.3502 C   0  0  0  0  0  0  0  0  0  0  0  0
    6.4491    8.6089  -20.2323 C   0  0  0  0  0  0  0  0  0  0  0  0
    3.9332    4.2030  -18.8607 C   0  0  0  0  0  0  0  0  0  0  0  0
    6.1049    6.2416  -15.7186 C   0  0  0  0  0  0  0  0  0  0  0  0
    4.1171   -4.1321  -18.0813 C   0  0  1  0  0  0  0  0  0  0  0  0
    4.5589    6.2941  -17.7483 C   0  0  2  0  0  0  0  0  0  0  0  0
    5.6899    9.0076  -21.5109 C   0  0  0  0  0  0  0  0  0  0  0  0
    4.9052    3.1285  -19.3258 C   0  0  1  0  0  0  0  0  0  0  0  0
    4.7778   -2.8932  -17.6781 N   0  0  0  0  0  0  0  0  0  0  0  0
    5.0764    2.1125  -18.2803 N   0  0  0  0  0  0  0  0  0  0  0  0
    5.5116    8.0059  -19.2834 N   0  0  0  0  0  0  0  0  0  0  0  0
    8.1324    0.0005  -13.4371 N   0  0  3  0  0  0  0  0  0  0  0  0
    4.4565    4.8337  -17.6488 N   0  3  0  0  0  0  0  0  0  0  0  0
    6.3996   -3.8624  -16.4095 O   0  0  0  0  0  0  0  0  0  0  0  0
    6.9110    3.0646  -17.3265 O   0  0  0  0  0  0  0  0  0  0  0  0
    6.6431    6.0552  -18.9494 O   0  0  0  0  0  0  0  0  0  0  0  0
    6.3882   -1.5570  -12.2783 O   0  0  0  0  0  0  0  0  0  0  0  0
    8.0656   -0.2873  -10.8633 O   0  0  0  0  0  0  0  0  0  0  0  0
    6.2884    6.8107  -14.4350 O   0  0  0  0  0  0  0  0  0  0  0  0
   -0.4935   -4.9523  -14.8636 F   0  0  0  0  0  0  0  0  0  0  0  0
    7.7488   -1.0307  -12.0904 S   0  0  0  0  0  0  0  0  0  0  0  0
    6.8041   -2.2194  -21.6948 H   0  0  0  0  0  0  0  0  0  0  0  0
    8.1766   -0.2167  -21.1493 H   0  0  0  0  0  0  0  0  0  0  0  0
    4.3238   -2.0490  -21.7680 H   0  0  0  0  0  0  0  0  0  0  0  0
    7.0675    1.9631  -20.6915 H   0  0  0  0  0  0  0  0  0  0  0  0
    3.2089    0.1120  -21.2569 H   0  0  0  0  0  0  0  0  0  0  0  0
    1.9822   -2.4396  -17.7289 H   0  0  0  0  0  0  0  0  0  0  0  0
    3.5397   -6.2714  -16.4929 H   0  0  0  0  0  0  0  0  0  0  0  0
   -0.0363   -2.8083  -16.3238 H   0  0  0  0  0  0  0  0  0  0  0  0
    1.5203   -6.6351  -15.0879 H   0  0  0  0  0  0  0  0  0  0  0  0
    5.3786   -0.4345  -17.9556 H   0  0  0  0  0  0  0  0  0  0  0  0
    7.3647   -2.2975  -14.6181 H   0  0  0  0  0  0  0  0  0  0  0  0
    7.4603    1.9809  -15.0705 H   0  0  0  0  0  0  0  0  0  0  0  0
    4.6471   -3.8842  -20.1665 H   0  0  0  0  0  0  0  0  0  0  0  0
    3.2397   -4.9624  -19.8783 H   0  0  0  0  0  0  0  0  0  0  0  0
    3.0567   -3.1831  -19.7133 H   0  0  0  0  0  0  0  0  0  0  0  0
    7.4489    8.7903  -22.7610 H   0  0  0  0  0  0  0  0  0  0  0  0
    6.1567    9.8189  -23.4669 H   0  0  0  0  0  0  0  0  0  0  0  0
    7.1817   10.4524  -22.1348 H   0  0  0  0  0  0  0  0  0  0  0  0
    3.9081    9.6863  -20.4627 H   0  0  0  0  0  0  0  0  0  0  0  0
    5.1121   10.9779  -20.7923 H   0  0  0  0  0  0  0  0  0  0  0  0
    4.0871   10.3443  -22.1244 H   0  0  0  0  0  0  0  0  0  0  0  0
    9.3794    1.1605  -12.1601 H   0  0  0  0  0  0  0  0  0  0  0  0
    9.7225    1.3318  -13.9149 H   0  0  0  0  0  0  0  0  0  0  0  0
    8.2690    2.1115  -13.2037 H   0  0  0  0  0  0  0  0  0  0  0  0
    8.6783   -3.1185  -11.3161 H   0  0  0  0  0  0  0  0  0  0  0  0
    8.7532   -2.9754  -13.1050 H   0  0  0  0  0  0  0  0  0  0  0  0
    9.9235   -2.0750  -12.0822 H   0  0  0  0  0  0  0  0  0  0  0  0
    4.5007    3.1789  -21.4438 H   0  0  0  0  0  0  0  0  0  0  0  0
    3.2826    2.2867  -20.4707 H   0  0  0  0  0  0  0  0  0  0  0  0
    3.9798    6.6451  -15.7007 H   0  0  0  0  0  0  0  0  0  0  0  0
    4.9800    7.9473  -16.4290 H   0  0  0  0  0  0  0  0  0  0  0  0
    7.2363    7.8827  -20.4833 H   0  0  0  0  0  0  0  0  0  0  0  0
    6.9049    9.5026  -19.7814 H   0  0  0  0  0  0  0  0  0  0  0  0
    3.8179    4.9610  -19.6494 H   0  0  0  0  0  0  0  0  0  0  0  0
    2.9559    3.7465  -18.6451 H   0  0  0  0  0  0  0  0  0  0  0  0
    5.9801    5.1525  -15.6275 H   0  0  0  0  0  0  0  0  0  0  0  0
    6.9794    6.4590  -16.3495 H   0  0  0  0  0  0  0  0  0  0  0  0
    4.8018   -4.9820  -17.9449 H   0  0  0  0  0  0  0  0  0  0  0  0
    3.5969    6.6993  -18.0951 H   0  0  0  0  0  0  0  0  0  0  0  0
    5.1940    8.1185  -21.9275 H   0  0  0  0  0  0  0  0  0  0  0  0
    5.8749    3.5961  -19.5516 H   0  0  0  0  0  0  0  0  0  0  0  0
    4.4323   -2.0331  -18.0535 H   0  0  0  0  0  0  0  0  0  0  0  0
    4.3864    1.3936  -18.1959 H   0  0  0  0  0  0  0  0  0  0  0  0
    4.7121    8.5437  -19.0158 H   0  0  0  0  0  0  0  0  0  0  0  0
    3.8483    4.6099  -16.8873 H   0  0  0  0  0  0  0  0  0  0  0  0
    5.3678    4.4639  -17.4674 H   0  0  0  0  0  0  0  0  0  0  0  0
    7.0645    6.4399  -14.0317 H   0  0  0  0  0  0  0  0  0  0  0  0
  1  2  1  0  0  0  0
  1  3  2  0  0  0  0
  2  4  2  0  0  0  0
  3  5  1  0  0  0  0
  4 15  1  0  0  0  0
  5 15  2  0  0  0  0
  6  8  2  0  0  0  0
  6 16  1  0  0  0  0
  7  9  1  0  0  0  0
  7 16  2  0  0  0  0
  8 18  1  0  0  0  0
  9 18  2  0  0  0  0
 10 13  1  0  0  0  0
 10 14  2  0  0  0  0
 11 13  2  0  0  0  0
 11 17  1  0  0  0  0
 12 14  1  0  0  0  0
 12 17  2  0  0  0  0
 13 19  1  0  0  0  0
 14 20  1  0  0  0  0
 15 27  1  0  0  0  0
 16 32  1  0  0  0  0
 17 39  1  0  0  0  0
 18 47  1  0  0  0  0
 19 36  1  0  0  0  0
 19 41  2  0  0  0  0
 20 37  1  0  0  0  0
 20 42  2  0  0  0  0
 21 33  1  0  0  0  0
 21 38  1  0  0  0  0
 21 43  2  0  0  0  0
 22 32  1  0  0  0  0
 23 34  1  0  0  0  0
 24 34  1  0  0  0  0
 25 39  1  0  0  0  0
 26 48  1  0  0  0  0
 27 35  1  0  0  0  0
 28 31  1  0  0  0  0
 28 33  1  0  0  0  0
 29 34  1  0  0  0  0
 29 38  1  0  0  0  0
 30 35  1  0  0  0  0
 30 40  1  0  0  0  0
 31 46  1  0  0  0  0
 32 36  1  0  0  0  0
 33 40  1  0  0  0  0
 35 37  1  0  0  0  0
 39 48  1  0  0  0  0
 44 48  2  0  0  0  0
 45 48  2  0  0  0  0
  1 49  1  0  0  0  0
  2 50  1  0  0  0  0
  3 51  1  0  0  0  0
  4 52  1  0  0  0  0
  5 53  1  0  0  0  0
  6 54  1  0  0  0  0
  7 55  1  0  0  0  0
  8 56  1  0  0  0  0
  9 57  1  0  0  0  0
 10 58  1  0  0  0  0
 11 59  1  0  0  0  0
 12 60  1  0  0  0  0
 22 61  1  0  0  0  0
 22 62  1  0  0  0  0
 22 63  1  0  0  0  0
 23 64  1  0  0  0  0
 23 65  1  0  0  0  0
 23 66  1  0  0  0  0
 24 67  1  0  0  0  0
 24 68  1  0  0  0  0
 24 69  1  0  0  0  0
 25 70  1  0  0  0  0
 25 71  1  0  0  0  0
 25 72  1  0  0  0  0
 26 73  1  0  0  0  0
 26 74  1  0  0  0  0
 26 75  1  0  0  0  0
 27 76  1  0  0  0  0
 27 77  1  0  0  0  0
 28 78  1  0  0  0  0
 28 79  1  0  0  0  0
 29 80  1  0  0  0  0
 29 81  1  0  0  0  0
 30 82  1  0  0  0  0
 30 83  1  0  0  0  0
 31 84  1  0  0  0  0
 31 85  1  0  0  0  0
 32 86  1  0  0  0  0
 33 87  1  0  0  0  0
 34 88  1  0  0  0  0
 35 89  1  0  0  0  0
 36 90  1  0  0  0  0
 37 91  1  0  0  0  0
 38 92  1  0  0  0  0
 40 93  1  0  0  0  0
 40 94  1  0  0  0  0
 46 95  1  0  0  0  0
M  CHG  1  40   1
M  END
> <OMEGA_C>
VE7KQJ9No7+/4qvBBjDjQNQzEb53bKnBTFidQK0ql787K6zBYBrPQJ1Tiz+TQ6fBtiqJQLrKLT3j
4anBpozwP6uJVsCZSInBwcowQB63sMCCr4PBiAE9PxzSY8DA6oLB9WjPP7VIt8Bbo3rBiDe/QMYc
t753eIjBylviQHv9s7/zdnLBTITkQGQmgT9Dq3bBiArKQAV7wr/DsILBekjNQMAfZz9N5oTBxOah
QP7alj9CXafBLho5QG/SisCcu4nB1KvuQDyJDL6pnGrBSmobP2v4l8BQ7nnBYl67QESSNcArc4bB
4tLEQECtBkAxPYvBoNy0QPff10DO15XBOkNvQDwSgcCthJzBshjWQFDmGEFtVbTBLuqTQBRNIUHf
manBUNkOQfCsnT9EklLBGzQOQT8KHMBeeULBoGmLQNzyHkBs1KTBxuyaQCx820AyzYLByl7OQOG9
CUHG26HB07l7QA5/hkCn4pbBKFvDQGS7x0Bhf3vBHr+DQNQ5hMCYppDBbOKRQP5oyUBv/I3B3hO2
QBsfEEFPFqzBWPecQCA5SEBUm5rB/uOYQHQqOcCzbI3BtHGiQGEzB0AmPpLB9F6wQF4YAEFpRJrB
IR4CQcCABzoq/lbB9JuOQAuumkDFMI3BRMnMQFMyd8CeRoPBIifdQNciREC6nIrBbpTUQFLEwUBp
mJfBVGzMQLZLx78XdETBoAwBQbgUk7400C3BSDrJQP/w2UCv9WbBKqf8vvt4nsBg0W3BUPb3QKHu
g78uckHBTLvZQP4JDsAIj63BedMCQTHoXb6zManBK1yKQNUiA8D2JK7BtCjiQOZF+z8ciKXBBl9N
QLZw5T0RDqrBPbj9PywjHMDO1I3B34piQGWvyMCF8YPBKOMUvbC6M8Awl4LBHJnCP3hS1MD0Z3HB
0B2sQNB63r4RpY/B56vrQB0KE8Cp42nBw7ruQIaN/T+bIHHBTbWUQIKXeMAFVaHBVVdPQCfMnsC9
Bp/BSqFDQPO3S8DttJ3Bwl3uQOekDEF2FrbBYwPFQAQaHUFHvLvBJtDlQCw9J0EJFLHBDx56QB/7
GkGas6PBI5ajQGOlL0GdVqbBYMmCQDqCJUHb/rDB/BEWQUWLlD/Mj0LBi48bQdx3qj9qo17Btk0E
QX0iB0ApQlPBXdoKQdKVR8CODjXB8gwMQZJtPsANrlHB0MYeQW/NBMCTUEHBegWQQNxyS0D7jKvB
URZSQC1ZEkD/w6PBV7R+QF2k1EAUNnvBS1yfQDpQ/kB+boPBoI/nQCY//EDY3aPBWPXcQNYKGEFR
QJ7B81d0QLPAnkD+MZ3Bfi09QCPHb0AeKZXBT12/QH/hpEAZCnrB9FbfQD6wzkC9y4LBq6iZQOts
n8AVj4/BzDJmQItg1kC1wpDB/DSmQGDlAUF2a6/BYP+7QLEmZkCaaZzBlNWNQBofAsB4bZDBuF2M
QO5gsj9EkZHBtsmWQCmzCEFIIJjBqkp2QK+Ek0AZGYfBwcSrQJzYjkBGvYvBkhDiQKkTzkD7gWDB

> <OMEGA_E>
QLigPg==

> <OMEGA_NBR>
      3557

$$$$
50220574
  -OEChem-04172616093D

 95 97  0     1  0  0  0  0  0999 V2000
    6.3214   -1.2327  -21.4875 C   0  0  0  0  0  0  0  0  0  0  0  0
    0.5859   -4.7401  -15.5946 C   0  0  0  0  0  0  0  0  0  0  0  0
    7.0810   -0.0811  -21.2031 C   0  0  0  0  0  0  0  0  0  0  0  0
    4.9144   -1.1646  -21.5069 C   0  0  0  0  0  0  0  0  0  0  0  0
    0.7049   -3.5574  -16.3515 C   0  0  0  0  0  0  0  0  0  0  0  0
    1.6068   -5.7106  -15.6346 C   0  0  0  0  0  0  0  0  0  0  0  0
    6.4332    1.1395  -20.9406 C   0  0  0  0  0  0  0  0  0  0  0  0
    4.2633    0.0493  -21.2251 C   0  0  0  0  0  0  0  0  0  0  0  0
    1.8435   -3.3463  -17.1518 C   0  0  0  0  0  0  0  0  0  0  0  0
    2.7469   -5.5015  -16.4331 C   0  0  0  0  0  0  0  0  0  0  0  0
    5.9719   -0.3269  -17.0757 C   0  0  0  0  0  0  0  0  0  0  0  0
    7.0780   -1.3595  -15.1682 C   0  0  0  0  0  0  0  0  0  0  0  0
    7.1279    1.0549  -15.4387 C   0  0  0  0  0  0  0  0  0  0  0  0
    6.3154   -1.4814  -16.3460 C   0  0  0  0  0  0  0  0  0  0  0  0
    6.4104    0.9361  -16.6393 C   0  0  0  0  0  0  0  0  0  0  0  0
    5.0183    1.2032  -20.9339 C   0  0  0  0  0  0  0  0  0  0  0  0
    2.8673   -4.3221  -17.1981 C   0  0  0  0  0  0  0  0  0  0  0  0
    7.4440   -0.0864  -14.6761 C   0  0  0  0  0  0  0  0  0  0  0  0
    5.8543   -2.8007  -16.8002 C   0  0  0  0  0  0  0  0  0  0  0  0
    6.1593    2.1236  -17.4523 C   0  0  0  0  0  0  0  0  0  0  0  0
    5.7377    6.6730  -18.6687 C   0  0  0  0  0  0  0  0  0  0  0  0
    3.7527   -4.0024  -19.5358 C   0  0  0  0  0  0  0  0  0  0  0  0
    6.6312    9.5753  -22.4878 C   0  0  0  0  0  0  0  0  0  0  0  0
    4.5342   10.0054  -21.1595 C   0  0  0  0  0  0  0  0  0  0  0  0
    5.3308    7.9801  -15.8956 C   0  0  0  0  0  0  0  0  0  0  0  0
    8.8835    1.2908  -13.1520 C   0  0  0  0  0  0  0  0  0  0  0  0
    8.9300   -2.3432  -12.1377 C   0  0  0  0  0  0  0  0  0  0  0  0
    4.2966    2.4971  -20.6101 C   0  0  0  0  0  0  0  0  0  0  0  0
    6.4019    8.5785  -20.1943 C   0  0  0  0  0  0  0  0  0  0  0  0
    3.9530    4.2625  -18.8795 C   0  0  0  0  0  0  0  0  0  0  0  0
    4.1024   -4.1043  -18.0464 C   0  0  1  0  0  0  0  0  0  0  0  0
    4.7432    6.1993  -17.5802 C   0  0  2  0  0  0  0  0  0  0  0  0
    5.6404    8.9742  -21.4746 C   0  0  0  0  0  0  0  0  0  0  0  0
    4.8815    3.1548  -19.3574 C   0  0  1  0  0  0  0  0  0  0  0  0
    5.2664    6.4750  -16.1594 C   0  0  1  0  0  0  0  0  0  0  0  0
    4.7466   -2.8621  -17.6309 N   0  0  0  0  0  0  0  0  0  0  0  0
    5.0623    2.1427  -18.3030 N   0  0  0  0  0  0  0  0  0  0  0  0
    5.4928    7.9049  -19.2586 N   0  0  0  0  0  0  0  0  0  0  0  0
    8.0990    0.0559  -13.4409 N   0  0  3  0  0  0  0  0  0  0  0  0
    4.4861    4.7629  -17.6140 N   0  3  0  0  0  0  0  0  0  0  0  0
    6.4176   -3.8215  -16.4188 O   0  0  0  0  0  0  0  0  0  0  0  0
    6.9547    3.0576  -17.4183 O   0  0  0  0  0  0  0  0  0  0  0  0
    6.7604    6.0395  -18.9147 O   0  0  0  0  0  0  0  0  0  0  0  0
    6.3955   -1.5880  -12.3290 O   0  0  0  0  0  0  0  0  0  0  0  0
    7.9645   -0.2359  -10.8700 O   0  0  0  0  0  0  0  0  0  0  0  0
    6.5544    5.8843  -15.9577 O   0  0  0  0  0  0  0  0  0  0  0  0
    7.7225   -0.9939  -12.1048 S   0  0  0  0  0  0  0  0  0  0  0  0
    6.8185   -2.1697  -21.6910 H   0  0  0  0  0  0  0  0  0  0  0  0
   -0.2892   -4.9029  -14.9829 H   0  0  0  0  0  0  0  0  0  0  0  0
    8.1595   -0.1353  -21.1866 H   0  0  0  0  0  0  0  0  0  0  0  0
    4.3350   -2.0460  -21.7386 H   0  0  0  0  0  0  0  0  0  0  0  0
   -0.0771   -2.8133  -16.3176 H   0  0  0  0  0  0  0  0  0  0  0  0
    1.5145   -6.6154  -15.0522 H   0  0  0  0  0  0  0  0  0  0  0  0
    7.0147    2.0282  -20.7443 H   0  0  0  0  0  0  0  0  0  0  0  0
    3.1844    0.0975  -21.2319 H   0  0  0  0  0  0  0  0  0  0  0  0
    1.9358   -2.4393  -17.7308 H   0  0  0  0  0  0  0  0  0  0  0  0
    3.5302   -6.2445  -16.4603 H   0  0  0  0  0  0  0  0  0  0  0  0
    5.3722   -0.4113  -17.9699 H   0  0  0  0  0  0  0  0  0  0  0  0
    7.3859   -2.2474  -14.6360 H   0  0  0  0  0  0  0  0  0  0  0  0
    7.4404    2.0304  -15.0965 H   0  0  0  0  0  0  0  0  0  0  0  0
    4.6721   -3.8449  -20.1189 H   0  0  0  0  0  0  0  0  0  0  0  0
    3.2663   -4.9333  -19.8627 H   0  0  0  0  0  0  0  0  0  0  0  0
    3.0685   -3.1559  -19.6946 H   0  0  0  0  0  0  0  0  0  0  0  0
    7.4186    8.8404  -22.7116 H   0  0  0  0  0  0  0  0  0  0  0  0
    6.0969    9.8335  -23.4139 H   0  0  0  0  0  0  0  0  0  0  0  0
    7.0861   10.4817  -22.0620 H   0  0  0  0  0  0  0  0  0  0  0  0
    3.8266    9.5751  -20.4355 H   0  0  0  0  0  0  0  0  0  0  0  0
    4.9887   10.9119  -20.7335 H   0  0  0  0  0  0  0  0  0  0  0  0
    3.9994   10.2637  -22.0854 H   0  0  0  0  0  0  0  0  0  0  0  0
    5.7062    8.1586  -14.8772 H   0  0  0  0  0  0  0  0  0  0  0  0
    6.0076    8.4512  -16.6236 H   0  0  0  0  0  0  0  0  0  0  0  0
    4.3247    8.4133  -15.9965 H   0  0  0  0  0  0  0  0  0  0  0  0
    9.3201    1.2213  -12.1447 H   0  0  0  0  0  0  0  0  0  0  0  0
    9.6887    1.3956  -13.8940 H   0  0  0  0  0  0  0  0  0  0  0  0
    8.2204    2.1669  -13.2043 H   0  0  0  0  0  0  0  0  0  0  0  0
    8.7299   -3.0355  -11.3066 H   0  0  0  0  0  0  0  0  0  0  0  0
    8.8497   -2.8838  -13.0924 H   0  0  0  0  0  0  0  0  0  0  0  0
    9.9442   -1.9301  -12.0345 H   0  0  0  0  0  0  0  0  0  0  0  0
    4.3988    3.1881  -21.4599 H   0  0  0  0  0  0  0  0  0  0  0  0
    3.2316    2.2815  -20.4389 H   0  0  0  0  0  0  0  0  0  0  0  0
    7.2257    7.8980  -20.4557 H   0  0  0  0  0  0  0  0  0  0  0  0
    6.8100    9.4825  -19.7188 H   0  0  0  0  0  0  0  0  0  0  0  0
    3.9221    5.0738  -19.6217 H   0  0  0  0  0  0  0  0  0  0  0  0
    2.9387    3.8644  -18.7291 H   0  0  0  0  0  0  0  0  0  0  0  0
    4.7921   -4.9488  -17.9007 H   0  0  0  0  0  0  0  0  0  0  0  0
    3.7975    6.7447  -17.7149 H   0  0  0  0  0  0  0  0  0  0  0  0
    5.1797    8.0758  -21.9112 H   0  0  0  0  0  0  0  0  0  0  0  0
    5.8564    3.5954  -19.6133 H   0  0  0  0  0  0  0  0  0  0  0  0
    4.5519    6.0368  -15.4470 H   0  0  0  0  0  0  0  0  0  0  0  0
    4.3646   -2.0012  -17.9669 H   0  0  0  0  0  0  0  0  0  0  0  0
    4.3625    1.4366  -18.1947 H   0  0  0  0  0  0  0  0  0  0  0  0
    4.6359    8.3669  -19.0301 H   0  0  0  0  0  0  0  0  0  0  0  0
    3.8273    4.5483  -16.8929 H   0  0  0  0  0  0  0  0  0  0  0  0
    5.3472    4.2888  -17.4307 H   0  0  0  0  0  0  0  0  0  0  0  0
    6.9828    5.7636  -16.7970 H   0  0  0  0  0  0  0  0  0  0  0  0
  1  3  1  0  0  0  0
  1  4  2  0  0  0  0
  2  5  1  0  0  0  0
  2  6  2  0  0  0  0
  3  7  2  0  0  0  0
  4  8  1  0  0  0  0
  5  9  2  0  0  0  0
  6 10  1  0  0  0  0
  7 16  1  0  0  0  0
  8 16  2  0  0  0  0
  9 17  1  0  0  0  0
 10 17  2  0  0  0  0
 11 14  1  0  0  0  0
 11 15  2  0  0  0  0
 12 14  2  0  0  0  0
 12 18  1  0  0  0  0
 13 15  1  0  0  0  0
 13 18  2  0  0  0  0
 14 19  1  0  0  0  0
 15 20  1  0  0  0  0
 16 28  1  0  0  0  0
 17 31  1  0  0  0  0
 18 39  1  0  0  0  0
 19 36  1  0  0  0  0
 19 41  2  0  0  0  0
 20 37  1  0  0  0  0
 20 42  2  0  0  0  0
 21 32  1  0  0  0  0
 21 38  1  0  0  0  0
 21 43  2  0  0  0  0
 22 31  1  0  0  0  0
 23 33  1  0  0  0  0
 24 33  1  0  0  0  0
 25 35  1  0  0  0  0
 26 39  1  0  0  0  0
 27 47  1  0  0  0  0
 28 34  1  0  0  0  0
 29 33  1  0  0  0  0
 29 38  1  0  0  0  0
 30 34  1  0  0  0  0
 30 40  1  0  0  0  0
 31 36  1  0  0  0  0
 32 35  1  0  0  0  0
 32 40  1  0  0  0  0
 34 37  1  0  0  0  0
 35 46  1  0  0  0  0
 39 47  1  0  0  0  0
 44 47  2  0  0  0  0
 45 47  2  0  0  0  0
  1 48  1  0  0  0  0
  2 49  1  0  0  0  0
  3 50  1  0  0  0  0
  4 51  1  0  0  0  0
  5 52  1  0  0  0  0
  6 53  1  0  0  0  0
  7 54  1  0  0  0  0
  8 55  1  0  0  0  0
  9 56  1  0  0  0  0
 10 57  1  0  0  0  0
 11 58  1  0  0  0  0
 12 59  1  0  0  0  0
 13 60  1  0  0  0  0
 22 61  1  0  0  0  0
 22 62  1  0  0  0  0
 22 63  1  0  0  0  0
 23 64  1  0  0  0  0
 23 65  1  0  0  0  0
 23 66  1  0  0  0  0
 24 67  1  0  0  0  0
 24 68  1  0  0  0  0
 24 69  1  0  0  0  0
 25 70  1  0  0  0  0
 25 71  1  0  0  0  0
 25 72  1  0  0  0  0
 26 73  1  0  0  0  0
 26 74  1  0  0  0  0
 26 75  1  0  0  0  0
 27 76  1  0  0  0  0
 27 77  1  0  0  0  0
 27 78  1  0  0  0  0
 28 79  1  0  0  0  0
 28 80  1  0  0  0  0
 29 81  1  0  0  0  0
 29 82  1  0  0  0  0
 30 83  1  0  0  0  0
 30 84  1  0  0  0  0
 31 85  1  0  0  0  0
 32 86  1  0  0  0  0
 33 87  1  0  0  0  0
 34 88  1  0  0  0  0
 35 89  1  0  0  0  0
 36 90  1  0  0  0  0
 37 91  1  0  0  0  0
 38 92  1  0  0  0  0
 40 93  1  0  0  0  0
 40 94  1  0  0  0  0
 46 95  1  0  0  0  0
M  CHG  1  40   1
M  END
> <OMEGA_C>
60jKQG7Jnb9j5qvBhvwVP5Oul8Bmg3nBzpfiQLUVpr3+n6nBYUKdQPsPlb8vDqzBonU0P2WsY8Df
z4LBPq3NP2W9tsA2J3rBzdzNQCXckT9yhqfBHm2IQIDZST0azanBGvnrP3cpVsD5NonBf80vQF8M
sMAAd4PBBRq/QOxYp77/mojB037iQMYCrr/FsHLBnhfkQLoGhz/3BHfBlBfKQOOdvb+cxILBMCLN
QFuhbz83HYXBA5agQAwCmj+HeKfBqII3QFBOisColYnBPjXuQC0Gsb1C0WrBGVa7QDY+M8C+ZobB
MRnFQGfoB0BXnovBmpu3QPyI1UB+WZXBBi1wQKgTgMBiSZzBqTLUQD00GUHz5rPB3ReRQP8VIEG+
RqnBoZWqQLlc/0BQVH7BwiIOQY86pT9zblLBS+EOQcD3FcAQNELBwH2JQNPQH0Bo4aTBVtzMQGFB
CUHVjaHBqP18QK5miEAuCZfBNUeDQNBWg8AUX5DBQciXQIZgxkBSpIzBjX60QEGWD0EUzKvBGzWc
QNDoSUAA3JrBIYaoQDEzz0B/RoHBEOSXQLosN8AqDI3BkP6hQMciCUB5bJLBTsWvQNL0/ECrEZrB
gpUBQcLdZD3PDVfB542PQL1pmECG6YzBq1zNQA2UdMDJWYPBkIzeQJSvQ0C/WIvBVFXYQK9DwUBL
UZfBKajMQIxCy7+dQ0XBj93+QIOKcb5T6y3BQb3RQIFMvEDZUn/BUh73QOtwfr87rUHBTDHaQI3b
CsAuh63BywuUvpXknMDTuW/Bf40CQYGECr47fqnBEriKQGTyAsCy6K3BKuOdvdcMNMBpioLBrdnB
P3+x08Cm1XDBTHjgQPrNAUBT9KXBgs1LQDOtxz302qnBMcf3P8ccHMCy2I3BNu9hQEDTx8C2roPB
vOirQCaV0r5Ewo/BcFnsQCzVD8AqLWrB/hfuQC/yAUBli3HB34GVQCwTdsCJ86DBzwtRQJrdncDJ
5p7BZ2JEQML5ScB9jp3Bz2TtQHlyDUFisbXBcRnDQDFWHUG8T7vBl8HiQC21J0HhfrDB4OZ0QKcz
GUHue6PBfKOfQEWXLkEl3qXBq/Z/QEk4JEEAr7DBNZm2QJyJAkHfCG7BGz7AQA04B0EV/YTBBWSK
QLycBkHV8X/BFx8VQQNTnD/JUELB2QQbQamisj8ETl7Bo4YDQS2vCkDbRFPBmK0LQd5EQsCy5zTB
RZgNQUyQOMBHelHBiRsfQc4M979ZjUDBUsOMQCMJTEDKravBqNJOQH0EEkDMgqPBnDjnQDi8/EBE
paPBn+vZQIG4F0EQwJ3BMgR7QNJcokAv+ZzB/hI8QKBRd0BF1ZXBuViZQONcnsCmNI/BowlzQHzU
10AJuI3B/r+lQFs2AUEVSq/BXWe7QHIbZkAP6JzBk6mRQCMtwUDoJnfB1qqLQAITAMAvvI/B7ZmL
QBPktz+3jpHBQFmUQMbeBUG5PZjBm/J0QGCLkUDAJIfBrByrQBo+iUD9cYvB9XLfQCFvuEA8YIbB

> <OMEGA_E>
+JeQPg==

> <OMEGA_NBR>
      5425

$$$$
50220579
  -OEChem-04172616093D

 94 96  0     1  0  0  0  0  0999 V2000
    6.3376   -1.2833  -21.4660 C   0  0  0  0  0  0  0  0  0  0  0  0
    0.6413   -4.8792  -15.5710 C   0  0  0  0  0  0  0  0  0  0  0  0
    7.1145   -0.1485  -21.1594 C   0  0  0  0  0  0  0  0  0  0  0  0
    4.9324   -1.1890  -21.4985 C   0  0  0  0  0  0  0  0  0  0  0  0
    0.7332   -3.6899  -16.3212 C   0  0  0  0  0  0  0  0  0  0  0  0
    1.6768   -5.8336  -15.6290 C   0  0  0  0  0  0  0  0  0  0  0  0
    6.4864    1.0811  -20.8852 C   0  0  0  0  0  0  0  0  0  0  0  0
    4.3015    0.0349  -21.2107 C   0  0  0  0  0  0  0  0  0  0  0  0
    1.8565   -3.4581  -17.1367 C   0  0  0  0  0  0  0  0  0  0  0  0
    2.8033   -5.6025  -16.4415 C   0  0  0  0  0  0  0  0  0  0  0  0
    5.9210   -0.3548  -17.0222 C   0  0  0  0  0  0  0  0  0  0  0  0
    6.9762   -1.4389  -15.1170 C   0  0  0  0  0  0  0  0  0  0  0  0
    7.2702    0.9420  -15.4606 C   0  0  0  0  0  0  0  0  0  0  0  0
    6.2186   -1.5243  -16.2978 C   0  0  0  0  0  0  0  0  0  0  0  0
    6.4383    0.8849  -16.5958 C   0  0  0  0  0  0  0  0  0  0  0  0
    5.0739    1.1718  -20.8929 C   0  0  0  0  0  0  0  0  0  0  0  0
    2.8930   -4.4182  -17.2044 C   0  0  0  0  0  0  0  0  0  0  0  0
    7.5606   -0.2208  -14.7095 C   0  0  0  0  0  0  0  0  0  0  0  0
    5.7687   -2.8406  -16.7741 C   0  0  0  0  0  0  0  0  0  0  0  0
    6.1773    2.1011  -17.3777 C   0  0  0  0  0  0  0  0  0  0  0  0
    5.6986    6.7236  -18.6601 C   0  0  0  0  0  0  0  0  0  0  0  0
    6.1169    6.2593  -15.6027 C   0  0  0  0  0  0  0  0  0  0  0  0
    3.7289   -4.1013  -19.5622 C   0  0  0  0  0  0  0  0  0  0  0  0
    4.4059    9.7380  -21.3342 C   0  0  0  0  0  0  0  0  0  0  0  0
    6.6115    9.6678  -22.5436 C   0  0  0  0  0  0  0  0  0  0  0  0
    8.6352    1.1956  -12.9409 C   0  0  0  0  0  0  0  0  0  0  0  0
    7.8616   -2.0411  -11.5444 C   0  0  0  0  0  0  0  0  0  0  0  0
    4.3718    2.4805  -20.5716 C   0  0  0  0  0  0  0  0  0  0  0  0
    4.8723    6.8799  -16.2738 C   0  0  0  0  0  0  0  0  0  0  0  0
    6.2678    8.1597  -20.5942 C   0  0  0  0  0  0  0  0  0  0  0  0
    3.9617    4.2202  -18.8251 C   0  0  0  0  0  0  0  0  0  0  0  0
    4.1057   -4.1777  -18.0789 C   0  0  1  0  0  0  0  0  0  0  0  0
    4.5967    6.3039  -17.6753 C   0  0  2  0  0  0  0  0  0  0  0  0
    5.9307    9.5456  -21.1684 C   0  0  0  0  0  0  0  0  0  0  0  0
    4.9289    3.1365  -19.2973 C   0  0  1  0  0  0  0  0  0  0  0  0
    4.7276   -2.9160  -17.6822 N   0  0  0  0  0  0  0  0  0  0  0  0
    5.0993    2.1217  -18.2509 N   0  0  0  0  0  0  0  0  0  0  0  0
    5.5185    7.8952  -19.3689 N   0  0  0  0  0  0  0  0  0  0  0  0
    8.4000   -0.1381  -13.5724 N   0  0  3  0  0  0  0  0  0  0  0  0
    4.4670    4.8392  -17.5895 N   0  3  0  0  0  0  0  0  0  0  0  0
    6.3241   -3.8597  -16.3750 O   0  0  0  0  0  0  0  0  0  0  0  0
    6.9408    3.0586  -17.2979 O   0  0  0  0  0  0  0  0  0  0  0  0
    6.6815    6.0149  -18.8585 O   0  0  0  0  0  0  0  0  0  0  0  0
   10.2683   -1.0894  -12.0144 O   0  0  0  0  0  0  0  0  0  0  0  0
    9.2460   -2.6542  -13.7084 O   0  0  0  0  0  0  0  0  0  0  0  0
    9.0873   -1.5384  -12.7638 S   0  0  0  0  0  0  0  0  0  0  0  0
    6.8199   -2.2264  -21.6763 H   0  0  0  0  0  0  0  0  0  0  0  0
   -0.2240   -5.0596  -14.9505 H   0  0  0  0  0  0  0  0  0  0  0  0
    8.1917   -0.2221  -21.1347 H   0  0  0  0  0  0  0  0  0  0  0  0
    4.3389   -2.0571  -21.7446 H   0  0  0  0  0  0  0  0  0  0  0  0
   -0.0581   -2.9567  -16.2704 H   0  0  0  0  0  0  0  0  0  0  0  0
    1.6062   -6.7425  -15.0500 H   0  0  0  0  0  0  0  0  0  0  0  0
    7.0824    1.9554  -20.6689 H   0  0  0  0  0  0  0  0  0  0  0  0
    3.2239    0.1042  -21.2331 H   0  0  0  0  0  0  0  0  0  0  0  0
    1.9272   -2.5463  -17.7113 H   0  0  0  0  0  0  0  0  0  0  0  0
    3.5990   -6.3317  -16.4811 H   0  0  0  0  0  0  0  0  0  0  0  0
    5.2979   -0.4073  -17.9027 H   0  0  0  0  0  0  0  0  0  0  0  0
    7.1137   -2.3218  -14.5104 H   0  0  0  0  0  0  0  0  0  0  0  0
    7.6931    1.8889  -15.1589 H   0  0  0  0  0  0  0  0  0  0  0  0
    6.2610    6.7089  -14.6092 H   0  0  0  0  0  0  0  0  0  0  0  0
    5.9732    5.1739  -15.4965 H   0  0  0  0  0  0  0  0  0  0  0  0
    7.0034    6.4527  -16.2246 H   0  0  0  0  0  0  0  0  0  0  0  0
    4.6339   -3.9263  -20.1624 H   0  0  0  0  0  0  0  0  0  0  0  0
    3.2617   -5.0481  -19.8709 H   0  0  0  0  0  0  0  0  0  0  0  0
    3.0200   -3.2747  -19.7182 H   0  0  0  0  0  0  0  0  0  0  0  0
    3.9160    9.6513  -20.3532 H   0  0  0  0  0  0  0  0  0  0  0  0
    4.2059   10.7336  -21.7570 H   0  0  0  0  0  0  0  0  0  0  0  0
    4.0105    8.9661  -22.0109 H   0  0  0  0  0  0  0  0  0  0  0  0
    7.6970    9.5314  -22.4293 H   0  0  0  0  0  0  0  0  0  0  0  0
    6.2142    8.8960  -23.2192 H   0  0  0  0  0  0  0  0  0  0  0  0
    6.4096   10.6635  -22.9653 H   0  0  0  0  0  0  0  0  0  0  0  0
    9.3054    1.0795  -12.0764 H   0  0  0  0  0  0  0  0  0  0  0  0
    9.0974    1.8723  -13.6747 H   0  0  0  0  0  0  0  0  0  0  0  0
    7.6757    1.6173  -12.6068 H   0  0  0  0  0  0  0  0  0  0  0  0
    8.2290   -2.9209  -10.9957 H   0  0  0  0  0  0  0  0  0  0  0  0
    7.6867   -1.2157  -10.8386 H   0  0  0  0  0  0  0  0  0  0  0  0
    6.9199   -2.2938  -12.0538 H   0  0  0  0  0  0  0  0  0  0  0  0
    4.5075    3.1727  -21.4156 H   0  0  0  0  0  0  0  0  0  0  0  0
    3.2993    2.2821  -20.4289 H   0  0  0  0  0  0  0  0  0  0  0  0
    3.9968    6.6864  -15.6365 H   0  0  0  0  0  0  0  0  0  0  0  0
    5.0270    7.9652  -16.3646 H   0  0  0  0  0  0  0  0  0  0  0  0
    6.0160    7.3920  -21.3407 H   0  0  0  0  0  0  0  0  0  0  0  0
    7.3442    8.1162  -20.3722 H   0  0  0  0  0  0  0  0  0  0  0  0
    3.8665    4.9893  -19.6057 H   0  0  0  0  0  0  0  0  0  0  0  0
    2.9767    3.7705  -18.6312 H   0  0  0  0  0  0  0  0  0  0  0  0
    4.8187   -5.0032  -17.9371 H   0  0  0  0  0  0  0  0  0  0  0  0
    3.6445    6.7233  -18.0325 H   0  0  0  0  0  0  0  0  0  0  0  0
    6.3234   10.3236  -20.4972 H   0  0  0  0  0  0  0  0  0  0  0  0
    5.8994    3.5989  -19.5301 H   0  0  0  0  0  0  0  0  0  0  0  0
    4.3847   -2.0678  -18.0859 H   0  0  0  0  0  0  0  0  0  0  0  0
    4.4033    1.4091  -18.1628 H   0  0  0  0  0  0  0  0  0  0  0  0
    4.8636    8.5743  -19.0372 H   0  0  0  0  0  0  0  0  0  0  0  0
    3.8360    4.6206  -16.8452 H   0  0  0  0  0  0  0  0  0  0  0  0
    5.3671    4.4532  -17.3875 H   0  0  0  0  0  0  0  0  0  0  0  0
  1  3  1  0  0  0  0
  1  4  2  0  0  0  0
  2  5  1  0  0  0  0
  2  6  2  0  0  0  0
  3  7  2  0  0  0  0
  4  8  1  0  0  0  0
  5  9  2  0  0  0  0
  6 10  1  0  0  0  0
  7 16  1  0  0  0  0
  8 16  2  0  0  0  0
  9 17  1  0  0  0  0
 10 17  2  0  0  0  0
 11 14  2  0  0  0  0
 11 15  1  0  0  0  0
 12 14  1  0  0  0  0
 12 18  2  0  0  0  0
 13 15  2  0  0  0  0
 13 18  1  0  0  0  0
 14 19  1  0  0  0  0
 15 20  1  0  0  0  0
 16 28  1  0  0  0  0
 17 32  1  0  0  0  0
 18 39  1  0  0  0  0
 19 36  1  0  0  0  0
 19 41  2  0  0  0  0
 20 37  1  0  0  0  0
 20 42  2  0  0  0  0
 21 33  1  0  0  0  0
 21 38  1  0  0  0  0
 21 43  2  0  0  0  0
 22 29  1  0  0  0  0
 23 32  1  0  0  0  0
 24 34  1  0  0  0  0
 25 34  1  0  0  0  0
 26 39  1  0  0  0  0
 27 46  1  0  0  0  0
 28 35  1  0  0  0  0
 29 33  1  0  0  0  0
 30 34  1  0  0  0  0
 30 38  1  0  0  0  0
 31 35  1  0  0  0  0
 31 40  1  0  0  0  0
 32 36  1  0  0  0  0
 33 40  1  0  0  0  0
 35 37  1  0  0  0  0
 39 46  1  0  0  0  0
 44 46  2  0  0  0  0
 45 46  2  0  0  0  0
  1 47  1  0  0  0  0
  2 48  1  0  0  0  0
  3 49  1  0  0  0  0
  4 50  1  0  0  0  0
  5 51  1  0  0  0  0
  6 52  1  0  0  0  0
  7 53  1  0  0  0  0
  8 54  1  0  0  0  0
  9 55  1  0  0  0  0
 10 56  1  0  0  0  0
 11 57  1  0  0  0  0
 12 58  1  0  0  0  0
 13 59  1  0  0  0  0
 22 60  1  0  0  0  0
 22 61  1  0  0  0  0
 22 62  1  0  0  0  0
 23 63  1  0  0  0  0
 23 64  1  0  0  0  0
 23 65  1  0  0  0  0
 24 66  1  0  0  0  0
 24 67  1  0  0  0  0
 24 68  1  0  0  0  0
 25 69  1  0  0  0  0
 25 70  1  0  0  0  0
 25 71  1  0  0  0  0
 26 72  1  0  0  0  0
 26 73  1  0  0  0  0
 26 74  1  0  0  0  0
 27 75  1  0  0  0  0
 27 76  1  0  0  0  0
 27 77  1  0  0  0  0
 28 78  1  0  0  0  0
 28 79  1  0  0  0  0
 29 80  1  0  0  0  0
 29 81  1  0  0  0  0
 30 82  1  0  0  0  0
 30 83  1  0  0  0  0
 31 84  1  0  0  0  0
 31 85  1  0  0  0  0
 32 86  1  0  0  0  0
 33 87  1  0  0  0  0
 34 88  1  0  0  0  0
 35 89  1  0  0  0  0
 36 90  1  0  0  0  0
 37 91  1  0  0  0  0
 38 92  1  0  0  0  0
 40 93  1  0  0  0  0
 40 94  1  0  0  0  0
M  CHG  1  40   1
M  END
> <OMEGA_C>
Sc3KQL9CpL9euqvBji0kPy4inMDNInnB36njQEoWGL5wRqnB89WdQEsxmL/5/KvBCrU7P9wnbMDd
kYLBlKLWP4WsusB9EHrB6pDPQM1iij/jFKfBu6WJQEDMDj2Ur6nBuKDtP/BQXcD3F4nB8mgzQN5H
s8A0iIPBHnm9QEKntb58LYjBOD3fQCEuuL8133HBgKXoQDcpcT+fXnfBc/7GQNAcw7/QYYLBLQbO
QAmKYj8lxITBWV2iQAP/lT/CJKfBVyY5QEZijcCaoonBZ/DxQPMkYr42WmvBC5m4QJPMNcBsMYbB
hqzFQMN3BkB7BYvB3Vq2QIwn10DxR5XB073DQFRMyEClpHnByKVuQOU9g8Bnf5zBFv2MQPfOG0GA
rKrBipHTQHyvGkFJWbTBsikKQVUKmT/YDU/BJpL7QDGiAsC9tTjBneWLQN+/HkCPkqTBv+mbQBIo
3ECrMILBb5HIQCCOAkEBwaTBw4x9QIILh0C7mZbB4WGDQGyvhcCNoZDBFBiTQIy5yUAdZ43BCci9
QNe6GEHVWKnBgbmdQDu8SEDRYJrBOUiXQGSfOsAzdY3Bwy2jQFjKB0DLAZLBoZewQGml/EBu85rB
e2YGQb1xDb5sKFnBvfGOQJ/amkA8t4zBXF/KQAMGd8ACAIPBMxveQOW/Q0AHYorBzs7VQL95wEBK
3pbB4EokQWJyi78oO0DBz+8TQe3dKcDFVVvBbGURQQ/pxL9/OEzBhTzaQON9DsAZaa3BmWZlvpjo
ocBFNW/BLhEDQWJxY771E6nBitiKQECoA8AB9a3Bicdtvec5PcDQKYLB9JjNP3/C18DazHDBZqPi
QKxL+j/nWaXBGFVOQCGA1T1b3anBHa32Pwr3IsCzsI3BMlZmQACdysA02YPBVoipQO2I0L7QOI/B
QaPjQLCYFMCKKmjBIC72QFHG8T+0inLBBFrIQJOv1kArv2nByyS/QMyQpUCg8XfB6BvgQKl8zkDx
y4HB70iUQBRIe8CtTKHBVcBQQE+KocCp957BS0hBQE2VUcDxvp3Bkp96QLhrGkFM06LBA5eGQP+8
K0FrDq7BC1aAQFh1D0FMFrDBBk72QKWAGEFEb7PBsdrGQBxWDkHowLnBqhvNQMSdKkEIubfB+eIU
QaUuij/3OEHBv44RQVWm7z/Fy1rBYJ/1QK0Czz9YtUnBy6kDQU3wOsBU7i/BYvn1QA2dm7/0ai3B
MnDdQPLMEsBD3EDBgD2QQHYNS0AiU6vBJydTQOgNEkBLbqPBAcx/QMT21UAKL3rBHt2gQKLi/kCm
6oLBI4PAQOOK7EC+uarB/gPrQP7bAUFS+qLBcnR3QBGon0B72JzBVoI+QP5PcUDEDJXBcDKaQJga
oMAsf4/BSkBpQPgk10CUQpDBkVnKQH8tJUFJ+qPBJci8QC1VZkCPPZzBJU+MQFpWBMDxr5DB++eM
QEJetD9cTZHB/6KbQDUwCUEpTJjBRoB1QN/bk0DowobBor+rQNWAjkCXGYvB

> <OMEGA_E>
zK38Pg==

> <OMEGA_NBR>
      7274

$$$$
50161012
  -OEChem-04172616093D

 83 84  0     1  0  0  0  0  0999 V2000
    6.3672   -1.9731  -21.2203 C   0  0  0  0  0  0  0  0  0  0  0  0
    7.1282   -0.7875  -21.2544 C   0  0  0  0  0  0  0  0  0  0  0  0
    4.9854   -1.9187  -20.9512 C   0  0  0  0  0  0  0  0  0  0  0  0
    6.5078    0.4541  -21.0205 C   0  0  0  0  0  0  0  0  0  0  0  0
    4.3652   -0.6804  -20.7042 C   0  0  0  0  0  0  0  0  0  0  0  0
    5.1252    0.5086  -20.7324 C   0  0  0  0  0  0  0  0  0  0  0  0
    6.5415    1.5281  -17.4544 C   0  0  0  0  0  0  0  0  0  0  0  0
    4.3791   -3.6625  -17.0627 C   0  0  0  0  0  0  0  0  0  0  0  0
    5.5119    6.7333  -18.6464 C   0  0  0  0  0  0  0  0  0  0  0  0
    7.9962   -0.4286  -14.4143 C   0  0  0  0  0  0  0  0  0  0  0  0
    7.8639    0.7014  -15.4429 C   0  0  0  0  0  0  0  0  0  0  0  0
    8.1164   -1.7894  -15.1191 C   0  0  0  0  0  0  0  0  0  0  0  0
    6.7621   -0.9002  -17.0698 C   0  0  0  0  0  0  0  0  0  0  0  0
    6.6450    0.4612  -16.3679 C   0  0  2  0  0  0  0  0  0  0  0  0
    6.8841   -2.0408  -16.0295 C   0  0  1  0  0  0  0  0  0  0  0  0
    3.2394   -3.6337  -18.0761 C   0  0  0  0  0  0  0  0  0  0  0  0
    6.5660    9.9956  -22.8529 C   0  0  0  0  0  0  0  0  0  0  0  0
    4.8444    6.5922  -16.2332 C   0  0  0  0  0  0  0  0  0  0  0  0
    7.0282   -4.5949  -15.6812 C   0  0  0  0  0  0  0  0  0  0  0  0
    8.0994   -3.6046  -17.7117 C   0  0  0  0  0  0  0  0  0  0  0  0
    4.4512    1.8312  -20.4378 C   0  0  0  0  0  0  0  0  0  0  0  0
    5.5565   10.5749  -21.8455 C   0  0  0  0  0  0  0  0  0  0  0  0
    4.7901    9.4711  -21.0945 C   0  0  0  0  0  0  0  0  0  0  0  0
    4.9695    4.4960  -17.6282 C   0  0  0  0  0  0  0  0  0  0  0  0
    5.7360    8.6225  -20.2396 C   0  0  0  0  0  0  0  0  0  0  0  0
    4.6282    5.9940  -17.6294 C   0  0  2  0  0  0  0  0  0  0  0  0
    5.1492    2.5714  -19.2746 C   0  0  1  0  0  0  0  0  0  0  0  0
    4.3605    3.8303  -18.8790 C   0  0  1  0  0  0  0  0  0  0  0  0
    6.9094   -3.4519  -16.7253 C   0  0  0  0  0  0  0  0  0  0  0  0
    5.3283    1.6745  -18.1186 N   0  0  0  0  0  0  0  0  0  0  0  0
    4.9373    7.7219  -19.4196 N   0  0  0  0  0  0  0  0  0  0  0  0
    5.6883   -3.6375  -17.5414 N   0  0  0  0  0  0  0  0  0  0  0  0
    7.5316    2.1735  -17.7859 O   0  0  0  0  0  0  0  0  0  0  0  0
    4.1174   -3.5634  -15.8690 O   0  0  0  0  0  0  0  0  0  0  0  0
    6.7209    6.5233  -18.6978 O   0  0  0  0  0  0  0  0  0  0  0  0
    2.9954    3.5281  -18.5912 O   0  0  0  0  0  0  0  0  0  0  0  0
    6.8441   -2.9252  -21.4008 H   0  0  0  0  0  0  0  0  0  0  0  0
    8.1875   -0.8316  -21.4600 H   0  0  0  0  0  0  0  0  0  0  0  0
    4.4023   -2.8276  -20.9346 H   0  0  0  0  0  0  0  0  0  0  0  0
    7.0878    1.3642  -21.0611 H   0  0  0  0  0  0  0  0  0  0  0  0
    3.3069   -0.6395  -20.4928 H   0  0  0  0  0  0  0  0  0  0  0  0
    8.8944   -0.2575  -13.8027 H   0  0  0  0  0  0  0  0  0  0  0  0
    7.1071   -0.4340  -13.7666 H   0  0  0  0  0  0  0  0  0  0  0  0
    7.7330    1.6571  -14.9142 H   0  0  0  0  0  0  0  0  0  0  0  0
    8.7779    0.7423  -16.0536 H   0  0  0  0  0  0  0  0  0  0  0  0
    9.0287   -1.7995  -15.7337 H   0  0  0  0  0  0  0  0  0  0  0  0
    8.1755   -2.5852  -14.3620 H   0  0  0  0  0  0  0  0  0  0  0  0
    5.8666   -1.0674  -17.6862 H   0  0  0  0  0  0  0  0  0  0  0  0
    7.6548   -0.9000  -17.7124 H   0  0  0  0  0  0  0  0  0  0  0  0
    5.7283    0.4743  -15.7599 H   0  0  0  0  0  0  0  0  0  0  0  0
    5.9884   -2.0064  -15.3920 H   0  0  0  0  0  0  0  0  0  0  0  0
    2.2812   -3.5200  -17.5479 H   0  0  0  0  0  0  0  0  0  0  0  0
    3.3816   -2.7869  -18.7637 H   0  0  0  0  0  0  0  0  0  0  0  0
    3.2335   -4.5733  -18.6479 H   0  0  0  0  0  0  0  0  0  0  0  0
    7.0880   10.8181  -23.3638 H   0  0  0  0  0  0  0  0  0  0  0  0
    7.2985    9.3715  -22.3201 H   0  0  0  0  0  0  0  0  0  0  0  0
    6.0330    9.3828  -23.5948 H   0  0  0  0  0  0  0  0  0  0  0  0
    4.2119    6.0631  -15.5051 H   0  0  0  0  0  0  0  0  0  0  0  0
    5.9011    6.4839  -15.9477 H   0  0  0  0  0  0  0  0  0  0  0  0
    4.5753    7.6587  -16.2457 H   0  0  0  0  0  0  0  0  0  0  0  0
    7.0432   -5.5652  -16.1991 H   0  0  0  0  0  0  0  0  0  0  0  0
    7.9582   -4.4715  -15.1069 H   0  0  0  0  0  0  0  0  0  0  0  0
    6.1674   -4.5576  -14.9974 H   0  0  0  0  0  0  0  0  0  0  0  0
    8.0711   -4.6045  -18.1692 H   0  0  0  0  0  0  0  0  0  0  0  0
    8.0240   -2.8393  -18.4983 H   0  0  0  0  0  0  0  0  0  0  0  0
    9.0462   -3.4777  -17.1663 H   0  0  0  0  0  0  0  0  0  0  0  0
    4.4905    2.4616  -21.3384 H   0  0  0  0  0  0  0  0  0  0  0  0
    3.4016    1.6456  -20.1657 H   0  0  0  0  0  0  0  0  0  0  0  0
    6.0994   11.1908  -21.1135 H   0  0  0  0  0  0  0  0  0  0  0  0
    4.8339   11.2021  -22.3882 H   0  0  0  0  0  0  0  0  0  0  0  0
    4.0378    9.9376  -20.4415 H   0  0  0  0  0  0  0  0  0  0  0  0
    4.2881    8.8214  -21.8265 H   0  0  0  0  0  0  0  0  0  0  0  0
    6.0620    4.3686  -17.6399 H   0  0  0  0  0  0  0  0  0  0  0  0
    4.5552    4.0260  -16.7240 H   0  0  0  0  0  0  0  0  0  0  0  0
    6.4015    8.0381  -20.8918 H   0  0  0  0  0  0  0  0  0  0  0  0
    6.3386    9.2769  -19.5925 H   0  0  0  0  0  0  0  0  0  0  0  0
    3.5731    6.1204  -17.9138 H   0  0  0  0  0  0  0  0  0  0  0  0
    6.1405    2.8917  -19.6278 H   0  0  0  0  0  0  0  0  0  0  0  0
    4.4150    4.5474  -19.7114 H   0  0  0  0  0  0  0  0  0  0  0  0
    4.5417    1.1472  -17.7973 H   0  0  0  0  0  0  0  0  0  0  0  0
    3.9424    7.8228  -19.4167 H   0  0  0  0  0  0  0  0  0  0  0  0
    5.8141   -3.7558  -18.5263 H   0  0  0  0  0  0  0  0  0  0  0  0
    2.5955    3.1158  -19.3480 H   0  0  0  0  0  0  0  0  0  0  0  0
  1  2  1  0  0  0  0
  1  3  2  0  0  0  0
  2  4  2  0  0  0  0
  3  5  1  0  0  0  0
  4  6  1  0  0  0  0
  5  6  2  0  0  0  0
  6 21  1  0  0  0  0
  7 14  1  0  0  0  0
  7 30  1  0  0  0  0
  7 33  2  0  0  0  0
  8 16  1  0  0  0  0
  8 32  1  0  0  0  0
  8 34  2  0  0  0  0
  9 26  1  0  0  0  0
  9 31  1  0  0  0  0
  9 35  2  0  0  0  0
 10 11  1  0  0  0  0
 10 12  1  0  0  0  0
 11 14  1  0  0  0  0
 12 15  1  0  0  0  0
 13 14  1  0  0  0  0
 13 15  1  0  0  0  0
 15 29  1  0  0  0  0
 17 22  1  0  0  0  0
 18 26  1  0  0  0  0
 19 29  1  0  0  0  0
 20 29  1  0  0  0  0
 21 27  1  0  0  0  0
 22 23  1  0  0  0  0
 23 25  1  0  0  0  0
 24 26  1  0  0  0  0
 24 28  1  0  0  0  0
 25 31  1  0  0  0  0
 27 28  1  0  0  0  0
 27 30  1  0  0  0  0
 28 36  1  0  0  0  0
 29 32  1  0  0  0  0
  1 37  1  0  0  0  0
  2 38  1  0  0  0  0
  3 39  1  0  0  0  0
  4 40  1  0  0  0  0
  5 41  1  0  0  0  0
 10 42  1  0  0  0  0
 10 43  1  0  0  0  0
 11 44  1  0  0  0  0
 11 45  1  0  0  0  0
 12 46  1  0  0  0  0
 12 47  1  0  0  0  0
 13 48  1  0  0  0  0
 13 49  1  0  0  0  0
 14 50  1  0  0  0  0
 15 51  1  0  0  0  0
 16 52  1  0  0  0  0
 16 53  1  0  0  0  0
 16 54  1  0  0  0  0
 17 55  1  0  0  0  0
 17 56  1  0  0  0  0
 17 57  1  0  0  0  0
 18 58  1  0  0  0  0
 18 59  1  0  0  0  0
 18 60  1  0  0  0  0
 19 61  1  0  0  0  0
 19 62  1  0  0  0  0
 19 63  1  0  0  0  0
 20 64  1  0  0  0  0
 20 65  1  0  0  0  0
 20 66  1  0  0  0  0
 21 67  1  0  0  0  0
 21 68  1  0  0  0  0
 22 69  1  0  0  0  0
 22 70  1  0  0  0  0
 23 71  1  0  0  0  0
 23 72  1  0  0  0  0
 24 73  1  0  0  0  0
 24 74  1  0  0  0  0
 25 75  1  0  0  0  0
 25 76  1  0  0  0  0
 26 77  1  0  0  0  0
 27 78  1  0  0  0  0
 28 79  1  0  0  0  0
 30 80  1  0  0  0  0
 31 81  1  0  0  0  0
 32 82  1  0  0  0  0
 36 83  1  0  0  0  0
M  END
> <OMEGA_C>
v7/LQKSP/L81w6nBBxrkQA+aSb8ACarBroifQOGX9b8fnKfBEUDQQFZ86D7oKajBCbCLQO4uLr8j
oqXBuwGkQKgxAj/c26XBsFPRQCWawz+soovB+yGMQN5lasBjgIjBKGGwQJR310DAK5XBHOH/QB5r
277moGbB7KT7QNmMMz//FXfB1NwBQYwL5b+853HBLmPYQJxyZr/hjojBkaPUQGoo7D5t8YLBikrc
QMibAsB3PIDBw1FPQMKNaMDXm5DB4RzSQA/uH0HE0rbBHgWbQDbz0kCO3YHB9ubgQD0Jk8AT5nrB
L5cBQWKxZsCbsY3B4m+OQL9k6j+ZgKPBos6xQLgyKUGbw67BqEiZQMuJF0F2wajBygWfQDPfj0CM
Bo3B9Iy3QNf1CUGg6qHB6xmUQPfOv0AECY3BQcakQFqRJEBMMprBkomLQBIjdUA+CJfBwxndQF7r
XMBUzYXBLoGqQPtU1j/k8pDBZP6dQPAZ90BPW5vB6Qa2QFnMaMCwVIzBoALxQOgaC0CHSY7BXMGD
QIMPZMBh533BdhHXQAq/0EAWlZXBsLQ/QKzMYUDZupTBswLbQOs1O8DdNKvBAwADQTTiVL8krqvB
jt+MQA73NMAVeqfB+87iQJyfrj8XfajBeKRTQPu4I79A8aPBV08OQfjSg76411zBpm3jQPMy3r4G
RFzBz3T3QNIb1D+6oG7BF3IMQdMHPj/BbYDBY3UQQUlW5r8LvXvB7c4CQYp0JcC7ymXB0bq7QH2f
iL9qfY3BdfT0QOllZr8Ss43BfE63QKjS8j6rKHzBqqC/QJtoAMCDRXbB+/4RQCNIYcAbYozBUmtY
QCFcMsD6G5bBoPFOQI5YksD8LpXB69DiQP4WLUEk6brBtY3pQNPxFUF7j7LBZw7BQBcgFkEjwrzB
JciGQC8FwkDaFHjBLNa8QFZ8z0ClKX/BMmmSQCUU9UAf94HBqWHhQCIWssDAl4HB6Kn+QMkWj8DS
tXHBAFvFQBzYkcBA9W/BMyMBQStYk8CcWpHBR2IAQYW3NcCE/JPBTb0QQQWTXsCeVInB6bGPQEyL
HUD0tKrBYLRZQLeh0j9WU6HBhy7DQGMNM0Fj6KjBOq+aQKc7M0ELG7PBVDWBQIsAH0E5iKPB9jeJ
QJMkDUGcnK7B2fvBQKrLi0B+Ho3B8MORQGTVgEDRyoXBYNnMQPibAEFwIqfB69XKQPttFEF/vZzB
3a1kQOrZw0CLT4/BnX7EQEgSOUC7BZ3BxUeNQPyDkUDlsJ3BRVWRQKLXkj/aYI7Bf1B8QKlU+kBf
VZvB9Qy6QK9ecMDvNZTBHB0mQOZpR0CcyJrBTUrKQNY/+r+KAKrBO/fgQLTHPr8WGqvBurKeQKAX
+L+cIafBhg/MQCLA9j6aWKnB3MyJQExkNr9ZRqXBT2mgQJaYAD8oXqbBs83RQOV8xj98N43BdlGM
QFGSZMDC5ofB33yzQE1t3ED0xpHBgzMBQRmBhb52+mjBGcP9QMheUD+qU3rB08sCQZQl1L+RJHPB
twzZQF5DXL8CS4nBGwvWQIKdCD8jMoTBpYndQJxV+b/WiYDBhgVPQHUOZ8Cb6I/BdLuTQN2ANEE4
8qrBJNmMQBH9yECauIDB8X7hQLaHj8AOhnnB3JYBQSmzZsBre43BLSGKQAfl6D/UAKTBSe2hQEwZ
HUE7UKvBYoa9QMsbGEEqfqHBCdahQJuqkEBKOo7Br73NQBkFAUGpD6LBmVCSQNsFv0AdsozBvUKi
QHTKJUCQKpvBGwGKQI6KdkAalZfB85TdQH8oWcDTh4XBD/upQMXa2T/V+ZHBq+6vQIt85UBel5zB
eRG2QB39ZsBD1YvBkkvxQKn8CUDPh5DBTl6EQJ5yV8AZ4HzBblPTQLEb50DirYzBgno/QBxWYkBd
DJTB9FbaQMRdOcBtXKvBWjIBQT5qQr/iSq3BV0uNQPFvN8CQWqbBQGHdQNFjtD9VRqrBFOVQQEiW
M79MA6PBk8MPQRZmgr14nF/BUVbmQKX3Z76fXl7BKzv6QAks5j9uq3LB+EUNQUoXUD+BOoLBCzAR
Qf4z2r/0Pn3BbO0DQc5xGsDCZ2bBEOu7QMW2hr/U/I3BhyL1QDDHZb/plo7BpUO5QH3lEz86SH7B
s1LBQEob8L/knXbBODMSQNjmW8C7s4vBlXxYQHv6NMDB+pXBLUpNQAILk8CX0pPBidd/QH8VOEEO
/7HBs/uAQC1VN0FMoqPB7xWwQOTuPkEF8arBEo5pQARZs0DAhnrBrpirQNBrxEBbL3nB5ESCQC1V
6kC5fH/Bm2zhQNlYr8CvhoDBro7/QFkFi8A7pnDB4kfGQBz9jMAbb27BW+cAQVUFlMBRvZDBNU4A
QcM4OMB5D5TBCuAQQcxnXcAgR4nBb1GJQBd8G0DXUqvBh3RSQMAxzz/cUaHBqpKFQF6rEkF2UavB
5qy0QBRFGkEwoLLBcADZQOoZI0EkSKHBqkGqQEwyGkHmM5rBUl3EQFrTkEAe8I/B2c2bQJzhfEAL
2obBc4zQQA9U+ECOfarB7UvtQFEAAEH5MZ7B0s9mQDwqw0DxxpDBZUrBQJoKOkD2dZ7Bhb2IQGzb
kUAUU57BplSRQPlVlz8JBY/B2DWYQI0M2ECjx6DB76W5QBgzc8CLopPBUr8gQCLJR0BFtJnBJFPP
QH456r+Mu6zBWMzZQNNMGr8poLHBQlmvQJ0T8L8mzaTB9EfEQM47FD/ImK7B8OCZQGkKMr+vu6HB
I+6jQOx/CT+As6bBD7PUQI9lvD+RUo3BpUEEQcGomMAXtY3BF/GpQPDM4ECWNpPB1UYAQZoGyL22
DWbBMCX/QI6JWD+uaXnBANr/QLHwyL8rS23BSmvVQPK+Zb8UQ4fBbsLWQDJMET+heIPBJrjXQMmO
8b/6UXvBBjYZQWKFmcAoBJTBG4iaQNnpPkE+6KrBF8mYQHlYzkBRpX/B7oitQLWRasBP+ofBs/PY
QJnSisBUcW/BIlWMQGQm6D8WdKPBpzytQOVKKEEDNazB3m+aQNL+GEFjvaPB5C6jQGYvk0Cmk43B
aW2sQPpFAkHmTqXB+VuSQK9twUAuq4vBJt+kQJWRJ0C/vprBRiyMQNFPeUA0IZfB+lDXQN+xWMBP
kIHBhnisQHDB4D/YbZHBebuZQML25kAed53BsGD9QO72ZcC8dYjB2Ij1QJaa7j88t5HB5NXzQA2+
ucCfqIzBaFTLQBcu8kD1YJDBlyVDQPrFY0Df35PBpsvfQPryLsDuD6/BelXyQCQYEb8gtLfBaUCn
QFM1NMDgD6HBwI/MQG5awj/1UrLB566BQKCIO78okpvBLQUPQc43uT3Q7FzBNJrkQPM+xD070FvB
4nz+QEWk8T8hyHPB3uQNQQ57Lz9zqIHBdG8OQUtG478PsnbBK2L/QMXTDcB9DV/B3Wq3QJ/SiL/I
p4vB3MXwQCR+ir+omYzBXmi6QDIrQj8A+HzBexy7QIKD3b9kYHHBETocQW8vusC27ZbBEwkYQYCL
g8CH3ZrBSnMmQQZxj8BNy47BcVGoQB6PSUE8ArHB1iRvQAdLPkG74qvBOlKiQF8QRUEy5aLBe8GH
QKict0A+QHXBFB+7QEnczUARx3vBzg2MQGjB7kDUEX3Bc1itQP3ElsDWsIrBvJ+RQIL6XsCx0ILB
aR2sQJLLP8BM9Y7BoKrYQPdBrMCq8XTBY2T2QMTAhMDiSGbBG/S8QO/8hMC4LmXBpWuIQDrEHEBR
karB3E9ZQJIjxT8ETaDBu3KlQG08IkGmPLTBijLQQMUBKUEdP6vB4vuiQB3GHkH6tJvBr8puQGuW
GEG5jKTB86zFQDSvlEC3So/BN9adQOY9gED8R4bB/62kQDJn+UCBba3BUGDPQB6gAkESRqTBjepf
QJ5FwkBWhY3BtMXDQCS4O0DEH57BcSqLQPMfk0Al5p3BmxGTQIaLrD8D0o3Biqh/QNdE1kDMnp/B
tXcIQS/pM8DsbonBLj8mQIlCSEDYm5nB

> <OMEGA_E>
wMrHPLB22z6wvE0/

> <OMEGA_NBR>
      4162

$$$$
50161015
  -OEChem-04172616093D

 86 88  0     1  0  0  0  0  0999 V2000
    6.3788   -1.9391  -21.2457 C   0  0  0  0  0  0  0  0  0  0  0  0
    7.1184   -0.7438  -21.3489 C   0  0  0  0  0  0  0  0  0  0  0  0
    5.0118   -1.9000  -20.9071 C   0  0  0  0  0  0  0  0  0  0  0  0
    7.5677    8.4028  -16.6296 C   0  0  0  0  0  0  0  0  0  0  0  0
    6.4914    0.4926  -21.1171 C   0  0  0  0  0  0  0  0  0  0  0  0
    4.3840   -0.6653  -20.6665 C   0  0  0  0  0  0  0  0  0  0  0  0
    6.5042    7.6249  -16.1486 C   0  0  0  0  0  0  0  0  0  0  0  0
    7.5325    8.9147  -17.9433 C   0  0  0  0  0  0  0  0  0  0  0  0
    5.3325    7.9260  -18.2784 C   0  0  0  0  0  0  0  0  0  0  0  0
    5.1240    0.5314  -20.7745 C   0  0  0  0  0  0  0  0  0  0  0  0
    5.3949    7.3816  -16.9708 C   0  0  0  0  0  0  0  0  0  0  0  0
    6.4237    8.6669  -18.7862 C   0  0  0  0  0  0  0  0  0  0  0  0
    6.5675    1.5756  -17.5323 C   0  0  0  0  0  0  0  0  0  0  0  0
    4.3383   -3.5792  -17.0571 C   0  0  0  0  0  0  0  0  0  0  0  0
    8.0561   -0.3642  -14.4935 C   0  0  0  0  0  0  0  0  0  0  0  0
    7.9268    0.7471  -15.5428 C   0  0  0  0  0  0  0  0  0  0  0  0
    8.1349   -1.7412  -15.1717 C   0  0  0  0  0  0  0  0  0  0  0  0
    6.7545   -0.8630  -17.1116 C   0  0  0  0  0  0  0  0  0  0  0  0
    6.6815    0.5164  -16.4334 C   0  0  2  0  0  0  0  0  0  0  0  0
    6.8806   -1.9890  -16.0527 C   0  0  1  0  0  0  0  0  0  0  0  0
    3.2005   -3.6078  -18.0729 C   0  0  0  0  0  0  0  0  0  0  0  0
    5.3989   10.0539  -20.6943 C   0  0  0  0  0  0  0  0  0  0  0  0
    6.4005    7.7851  -21.1314 C   0  0  0  0  0  0  0  0  0  0  0  0
    6.9681   -4.5409  -15.6541 C   0  0  0  0  0  0  0  0  0  0  0  0
    8.0589   -3.6137  -17.7044 C   0  0  0  0  0  0  0  0  0  0  0  0
    4.4528    1.8491  -20.5057 C   0  0  0  0  0  0  0  0  0  0  0  0
    4.2918    6.5229  -16.4336 C   0  0  0  0  0  0  0  0  0  0  0  0
    4.8932    4.5870  -17.8194 C   0  0  0  0  0  0  0  0  0  0  0  0
    6.4971    9.0579  -20.2678 C   0  0  0  0  0  0  0  0  0  0  0  0
    5.1411    2.6017  -19.3445 C   0  0  1  0  0  0  0  0  0  0  0  0
    4.2635    3.7802  -18.9432 C   0  0  1  0  0  0  0  0  0  0  0  0
    6.8732   -3.4160  -16.7203 C   0  0  0  0  0  0  0  0  0  0  0  0
    5.3511    1.7086  -18.1883 N   0  0  0  0  0  0  0  0  0  0  0  0
    5.6490   -3.5987  -17.5321 N   0  0  0  0  0  0  0  0  0  0  0  0
    3.8758    5.5859  -17.4637 N   0  3  0  0  0  0  0  0  0  0  0  0
    7.5473    2.2304  -17.8743 O   0  0  0  0  0  0  0  0  0  0  0  0
    4.0746   -3.4061  -15.8724 O   0  0  0  0  0  0  0  0  0  0  0  0
    2.9848    3.3096  -18.5056 O   0  0  0  0  0  0  0  0  0  0  0  0
    6.8615   -2.8881  -21.4268 H   0  0  0  0  0  0  0  0  0  0  0  0
    8.1668   -0.7779  -21.6060 H   0  0  0  0  0  0  0  0  0  0  0  0
    4.4469   -2.8174  -20.8323 H   0  0  0  0  0  0  0  0  0  0  0  0
    8.4151    8.6101  -15.9929 H   0  0  0  0  0  0  0  0  0  0  0  0
    7.0550    1.4100  -21.2012 H   0  0  0  0  0  0  0  0  0  0  0  0
    3.3380   -0.6328  -20.3998 H   0  0  0  0  0  0  0  0  0  0  0  0
    6.5397    7.2154  -15.1498 H   0  0  0  0  0  0  0  0  0  0  0  0
    8.3611    9.5025  -18.3098 H   0  0  0  0  0  0  0  0  0  0  0  0
    4.4524    7.7746  -18.8856 H   0  0  0  0  0  0  0  0  0  0  0  0
    8.9692   -0.1993  -13.9028 H   0  0  0  0  0  0  0  0  0  0  0  0
    7.1798   -0.3380  -13.8291 H   0  0  0  0  0  0  0  0  0  0  0  0
    7.8309    1.7166  -15.0321 H   0  0  0  0  0  0  0  0  0  0  0  0
    8.8268    0.7532  -16.1752 H   0  0  0  0  0  0  0  0  0  0  0  0
    9.0344   -1.7820  -15.8036 H   0  0  0  0  0  0  0  0  0  0  0  0
    8.1939   -2.5219  -14.3990 H   0  0  0  0  0  0  0  0  0  0  0  0
    5.8407   -1.0237  -17.7024 H   0  0  0  0  0  0  0  0  0  0  0  0
    7.6307   -0.8926  -17.7761 H   0  0  0  0  0  0  0  0  0  0  0  0
    5.7816    0.5563  -15.8019 H   0  0  0  0  0  0  0  0  0  0  0  0
    5.9985   -1.9297  -15.3982 H   0  0  0  0  0  0  0  0  0  0  0  0
    2.2418   -3.4579  -17.5547 H   0  0  0  0  0  0  0  0  0  0  0  0
    3.3477   -2.8054  -18.8107 H   0  0  0  0  0  0  0  0  0  0  0  0
    3.1916   -4.5807  -18.5860 H   0  0  0  0  0  0  0  0  0  0  0  0
    5.5114   10.2890  -21.7630 H   0  0  0  0  0  0  0  0  0  0  0  0
    4.4097    9.6057  -20.5198 H   0  0  0  0  0  0  0  0  0  0  0  0
    5.4924   10.9774  -20.1041 H   0  0  0  0  0  0  0  0  0  0  0  0
    6.4525    8.0587  -22.1956 H   0  0  0  0  0  0  0  0  0  0  0  0
    7.2340    7.1109  -20.8851 H   0  0  0  0  0  0  0  0  0  0  0  0
    5.4459    7.2770  -20.9298 H   0  0  0  0  0  0  0  0  0  0  0  0
    6.9605   -5.5212  -16.1529 H   0  0  0  0  0  0  0  0  0  0  0  0
    7.9016   -4.4272  -15.0834 H   0  0  0  0  0  0  0  0  0  0  0  0
    6.1094   -4.4709  -14.9701 H   0  0  0  0  0  0  0  0  0  0  0  0
    8.0086   -4.6216  -18.1421 H   0  0  0  0  0  0  0  0  0  0  0  0
    7.9991   -2.8626  -18.5059 H   0  0  0  0  0  0  0  0  0  0  0  0
    9.0087   -3.4965  -17.1622 H   0  0  0  0  0  0  0  0  0  0  0  0
    4.5020    2.4684  -21.4135 H   0  0  0  0  0  0  0  0  0  0  0  0
    3.4003    1.6682  -20.2419 H   0  0  0  0  0  0  0  0  0  0  0  0
    4.6513    5.9683  -15.5543 H   0  0  0  0  0  0  0  0  0  0  0  0
    3.4395    7.1556  -16.1449 H   0  0  0  0  0  0  0  0  0  0  0  0
    5.1208    3.9413  -16.9585 H   0  0  0  0  0  0  0  0  0  0  0  0
    5.8154    5.0779  -18.1636 H   0  0  0  0  0  0  0  0  0  0  0  0
    7.4753    9.5255  -20.4533 H   0  0  0  0  0  0  0  0  0  0  0  0
    6.1109    2.9823  -19.6974 H   0  0  0  0  0  0  0  0  0  0  0  0
    4.1387    4.4361  -19.8174 H   0  0  0  0  0  0  0  0  0  0  0  0
    4.5752    1.1702  -17.8596 H   0  0  0  0  0  0  0  0  0  0  0  0
    5.7736   -3.7503  -18.5127 H   0  0  0  0  0  0  0  0  0  0  0  0
    3.0631    5.1029  -17.1379 H   0  0  0  0  0  0  0  0  0  0  0  0
    3.6468    6.1063  -18.2864 H   0  0  0  0  0  0  0  0  0  0  0  0
    2.5790    2.8029  -19.1992 H   0  0  0  0  0  0  0  0  0  0  0  0
  1  2  1  0  0  0  0
  1  3  2  0  0  0  0
  2  5  2  0  0  0  0
  3  6  1  0  0  0  0
  4  7  1  0  0  0  0
  4  8  2  0  0  0  0
  5 10  1  0  0  0  0
  6 10  2  0  0  0  0
  7 11  2  0  0  0  0
  8 12  1  0  0  0  0
  9 11  1  0  0  0  0
  9 12  2  0  0  0  0
 10 26  1  0  0  0  0
 11 27  1  0  0  0  0
 12 29  1  0  0  0  0
 13 19  1  0  0  0  0
 13 33  1  0  0  0  0
 13 36  2  0  0  0  0
 14 21  1  0  0  0  0
 14 34  1  0  0  0  0
 14 37  2  0  0  0  0
 15 16  1  0  0  0  0
 15 17  1  0  0  0  0
 16 19  1  0  0  0  0
 17 20  1  0  0  0  0
 18 19  1  0  0  0  0
 18 20  1  0  0  0  0
 20 32  1  0  0  0  0
 22 29  1  0  0  0  0
 23 29  1  0  0  0  0
 24 32  1  0  0  0  0
 25 32  1  0  0  0  0
 26 30  1  0  0  0  0
 27 35  1  0  0  0  0
 28 31  1  0  0  0  0
 28 35  1  0  0  0  0
 30 31  1  0  0  0  0
 30 33  1  0  0  0  0
 31 38  1  0  0  0  0
 32 34  1  0  0  0  0
  1 39  1  0  0  0  0
  2 40  1  0  0  0  0
  3 41  1  0  0  0  0
  4 42  1  0  0  0  0
  5 43  1  0  0  0  0
  6 44  1  0  0  0  0
  7 45  1  0  0  0  0
  8 46  1  0  0  0  0
  9 47  1  0  0  0  0
 15 48  1  0  0  0  0
 15 49  1  0  0  0  0
 16 50  1  0  0  0  0
 16 51  1  0  0  0  0
 17 52  1  0  0  0  0
 17 53  1  0  0  0  0
 18 54  1  0  0  0  0
 18 55  1  0  0  0  0
 19 56  1  0  0  0  0
 20 57  1  0  0  0  0
 21 58  1  0  0  0  0
 21 59  1  0  0  0  0
 21 60  1  0  0  0  0
 22 61  1  0  0  0  0
 22 62  1  0  0  0  0
 22 63  1  0  0  0  0
 23 64  1  0  0  0  0
 23 65  1  0  0  0  0
 23 66  1  0  0  0  0
 24 67  1  0  0  0  0
 24 68  1  0  0  0  0
 24 69  1  0  0  0  0
 25 70  1  0  0  0  0
 25 71  1  0  0  0  0
 25 72  1  0  0  0  0
 26 73  1  0  0  0  0
 26 74  1  0  0  0  0
 27 75  1  0  0  0  0
 27 76  1  0  0  0  0
 28 77  1  0  0  0  0
 28 78  1  0  0  0  0
 29 79  1  0  0  0  0
 30 80  1  0  0  0  0
 31 81  1  0  0  0  0
 33 82  1  0  0  0  0
 34 83  1  0  0  0  0
 35 84  1  0  0  0  0
 35 85  1  0  0  0  0
 38 86  1  0  0  0  0
M  CHG  1  35   1
M  END
> <OMEGA_C>
0R7MQBE0+L8696nBssnjQLRoPr+PyqrBzWCgQK8y87+uQafB1yryQM9xBkFxCYXBJbnPQI42/D7l
76jBm0mMQMFQKr8SVaXBeyLQQA3/80BBMIHB3AnxQKqiDkHTi4/BLaSqQHCh/UAbOpLB0/ejQDQL
CD9BMqbBpaKsQDg27EAgxIfBQY/NQKWrCkEoSpbBvyjSQKeuyT82QozBZdOKQB4SZcDrdIjBzOUA
QQR8ur545WfBVaj9QMlDPz90r3jBqigCQXrf3r8qv3LBKSXYQMjtXL+L5IjBic7VQDgzBD+Pd4PB
oS3cQJGX/r8FbIDBOtVMQOrlZsA2lZDBD8SsQN7cIEH+jaXBstDMQOkf+UAzDanBkvreQKVOkcAd
d3rBGfEAQYBGZ8Cjoo3B+nyOQK+w7D+wC6TBsVaJQN670EAUeIPB65ScQNjIkkAyjo7BR+jPQETt
EEFoJKLBlYOkQJCCJkCAwZrBZW6IQObucUDDi5fBgvHbQMWfWsBAw4XB5zurQJe02j+igZHBSMS0
QFBRZsC7QYzBjw14QOu/skC5tYvBiYPxQG6+DkCg/o7B2GKCQLn9WcB/9X3BYgY/QAjRU0CHC5TB
QJHbQD/WOMAqaqvBD6sCQY8iR78m2azB5UyOQG1QNMCcqKbBMaQGQdHCCUHY4n/BisLhQFF7tD//
m6nBD6FVQAP8Ib+9MqPBPUXRQFrk5kDAZXLBBMcFQQoKGEFwepLBwXmOQLnJ+EDPFZfB7YEPQX8T
TL6qcV7B9MDlQDUMrb4jRF3B+pb6QOa62z94g3DBxToNQQnUQD/LZoHB1IwQQdoY5L9923zBYBoD
QXhmIcA6YmbBwea6QIwHg797no3BVy70QCKCZL9nNY7BHQO5QDRrDj/D1HzBgfO/QIsA978kX3bB
ZXoPQMxOXcAAcIzBc0BWQA6LM8BifJbBukNMQBmVksAzsJTBZF2wQKifJEGsGq7BJRyNQOmwGUFz
KKTBbsGvQJ+jL0Ey1aDB1XrOQGfwAEGhkLHBxHznQIOM40DFFKfBJ0WuQBXd6EBVcKfBd7zeQMyt
sMAmOYHBwNn8QGGrjcCkVXHBL4DDQPERj8C5hW/BWyMAQSTkk8AGI5HBn/j/QHM1N8AQDJTBtiMQ
QRLGX8AdTInBGRCQQM36HUDQTqvBip5ZQFeI1T9b76HB0deUQLT8vkCB3njBhyFcQFz65ECsKIHB
892jQLk+fEDyqofBFBi6QBd+okAhT5HBCDbvQHpoGEFRoKPBs4zDQA7ePkAxlJ3BnXCEQO/0jUAS
ip7BzGeSQNvHlT964I7BQ8G4QDAEcMDsGZTBXApEQJRKo0BsGonB22VpQNZmw0CJSpLBHg4lQD9i
M0D1l5nB8SXMQE4D9b/7GarB6uvjQDOIOL/W8arBypWgQELF778POKfBQrzZQKd2BkHjk5XBYCHQ
QHoTBD8Q8ajBssSMQH1zI7+DKKXBU7qzQFQq+EDLepLBJNP6QHeXCUGhAI7BDEnQQHL97kDva4DB
bYikQP41Dj+PEabBXJOvQPbx6ECi24fBlNz1QAM+AkE1T4PBqb3SQNg+yT+LGYzBj26KQAZ6ZMAH
RYjBx0MBQU/zyb6e3mfBuG3+QEBtOT+jinjBaFYCQYNH4r/N2nLB/nHYQNw/Xr9g3IjB+GjWQNmf
AT+bXIPBb2LcQPcRAMBIc4DBQhtLQJmQY8DUQ5DBKuUPQRPyHUEVw3HB06ogQc2r80AyWXrBeCDf
QN3LkcDJ2XrB/pgAQdB4Z8BQ443BmjWPQDZy7z9646PB7EKIQPNw0kB9DITBMnabQI8PkkAsII7B
b8ELQeTZBUHiMnXBHe+kQGsuJ0BBgprBcpOIQGUfckAPXJfBL7jbQNsHW8Ac34XBGaarQIXS2z+R
RJHBmCG0QD7HZcCvO4zBKtx2QItos0BDAIzB1zXyQPkDDkDP4I7B2JyCQBBKW8AcdH3B7jg+QPmB
VEAJPJTBK2PbQH1CN8DRq6vBSasCQSfNQb8sIa3BpnOOQI+DMsAemKbBtaLdQM4EDEFis53Bkz7i
QIdLtz/ImanBAeRWQDKJGr9m4qLBwP2ZQMLi80BbJZjBIvwLQcCYEUEvW5DBwprMQCf/4kDwvXDB
evAPQbk4dL6Eel7B25rmQPLiu77aKV3Bo5v7QER22D/zQ3DBsZENQb28Oj+9XIHBNbAQQSPS578k
BX3BrjwDQZFtI8AhkmbBUR67QEaTgr/Kko3BmWn0QJjtZb/5Mo7BJbe5QJLcCz+7jHzBr0DAQPRR
+L/9XXbBEF0OQKccWsDy+YvBa4dUQF4LL8BiAZbB3D5JQCFxkMD0lJTB0gUcQZoWIEFJMGXBEK0V
QQIaJUEcYoDBQu8AQUnUJUFz4mzBX2ksQQp6+UDBkG3BU2MdQckp0UD1fXvBlCAnQQ83/0Ca1YTB
lJHeQGsJscBVeoHBD0P9QB1kjsB96nHB7vbDQMGoj8AgtW/BEkn/QPPhk8DkcJHBvgD/QJwGN8DU
P5TB6esPQQ9qYMCEponB9SKRQJ3HH0DzG6vBLtxaQFyP2D923qHBDxGPQM4PwkAv5XjB7sVcQHXR
6UA52YLBoNqfQFPWekAuFYfBu1i6QItXoEDrYJDBeWcFQQOk/kDTI2bBXvnDQLD7P0B/RJ3BEZqF
QCSTjkDySJ7B+rqSQJP3lz9ZlY7BRJ63QNrPbsDcGpTBWTRBQOUxpUAceYnBzzlrQOntwkAc2JLB
5lwlQOLkNEAw75nB

> <OMEGA_E>
bMYxP8TdRD8=

> <OMEGA_NBR>
     21199

$$$$
50161014
  -OEChem-04172616093D

 86 87  0     1  0  0  0  0  0999 V2000
    6.5411   -1.9897  -21.4286 C   0  0  0  0  0  0  0  0  0  0  0  0
    6.9762   -0.7798  -22.0062 C   0  0  0  0  0  0  0  0  0  0  0  0
    5.4589   -1.9883  -20.5275 C   0  0  0  0  0  0  0  0  0  0  0  0
    6.3282    0.4318  -21.6843 C   0  0  0  0  0  0  0  0  0  0  0  0
    4.8145   -0.7779  -20.1970 C   0  0  0  0  0  0  0  0  0  0  0  0
    5.2360    0.4373  -20.7872 C   0  0  0  0  0  0  0  0  0  0  0  0
    6.5526    1.3432  -17.5002 C   0  0  0  0  0  0  0  0  0  0  0  0
    7.3133   -5.2796  -14.5957 C   0  0  0  0  0  0  0  0  0  0  0  0
    5.1825    6.8966  -18.6530 C   0  0  0  0  0  0  0  0  0  0  0  0
    7.6083   -0.2966  -14.1276 C   0  0  0  0  0  0  0  0  0  0  0  0
    7.6913    0.6600  -15.3267 C   0  0  0  0  0  0  0  0  0  0  0  0
    7.5451   -1.7618  -14.6033 C   0  0  0  0  0  0  0  0  0  0  0  0
    6.3944   -1.0124  -16.7428 C   0  0  0  0  0  0  0  0  0  0  0  0
    6.4817    0.4472  -16.2637 C   0  0  2  0  0  0  0  0  0  0  0  0
    6.3343   -2.0017  -15.5526 C   0  0  1  0  0  0  0  0  0  0  0  0
    7.1687   -6.1186  -13.3263 C   0  0  0  0  0  0  0  0  0  0  0  0
    3.9352    8.8902  -23.8729 C   0  0  0  0  0  0  0  0  0  0  0  0
    5.2294    6.5391  -16.1660 C   0  0  0  0  0  0  0  0  0  0  0  0
    5.1825   -5.2653  -17.5190 C   0  0  0  0  0  0  0  0  0  0  0  0
    3.7491   -3.4917  -16.4176 C   0  0  0  0  0  0  0  0  0  0  0  0
    4.5247    1.7453  -20.4444 C   0  0  0  0  0  0  0  0  0  0  0  0
    4.5035    9.3979  -22.5365 C   0  0  0  0  0  0  0  0  0  0  0  0
    4.1673    8.4172  -21.3940 C   0  0  0  0  0  0  0  0  0  0  0  0
    5.1798    4.5169  -17.6957 C   0  0  0  0  0  0  0  0  0  0  0  0
    4.7382    8.9396  -20.0623 C   0  0  0  0  0  0  0  0  0  0  0  0
    4.6999    5.9811  -17.5055 C   0  0  2  0  0  0  0  0  0  0  0  0
    6.3249   -3.4740  -16.0774 C   0  0  2  0  0  0  0  0  0  0  0  0
    5.1338   -3.7929  -17.0465 C   0  0  0  0  0  0  0  0  0  0  0  0
    5.2430    2.5215  -19.3063 C   0  0  1  0  0  0  0  0  0  0  0  0
    4.4985    3.8331  -18.9215 C   0  0  1  0  0  0  0  0  0  0  0  0
    5.3533    1.6613  -18.1214 N   0  0  0  0  0  0  0  0  0  0  0  0
    4.4193    8.0169  -18.9648 N   0  0  0  0  0  0  0  0  0  0  0  0
    6.2893   -4.3957  -14.9252 N   0  0  0  0  0  0  0  0  0  0  0  0
    7.6342    1.6902  -17.9669 O   0  0  0  0  0  0  0  0  0  0  0  0
    8.3625   -5.3180  -15.2309 O   0  0  0  0  0  0  0  0  0  0  0  0
    6.2392    6.6688  -19.2368 O   0  0  0  0  0  0  0  0  0  0  0  0
    3.1302    3.5636  -18.5975 O   0  0  0  0  0  0  0  0  0  0  0  0
    7.0369   -2.9165  -21.6768 H   0  0  0  0  0  0  0  0  0  0  0  0
    7.8070   -0.7800  -22.6963 H   0  0  0  0  0  0  0  0  0  0  0  0
    5.1218   -2.9157  -20.0886 H   0  0  0  0  0  0  0  0  0  0  0  0
    6.6679    1.3576  -22.1246 H   0  0  0  0  0  0  0  0  0  0  0  0
    3.9970   -0.7786  -19.4913 H   0  0  0  0  0  0  0  0  0  0  0  0
    8.4976   -0.1604  -13.4947 H   0  0  0  0  0  0  0  0  0  0  0  0
    6.7044   -0.0669  -13.5442 H   0  0  0  0  0  0  0  0  0  0  0  0
    7.6914    1.6984  -14.9638 H   0  0  0  0  0  0  0  0  0  0  0  0
    8.6203    0.4658  -15.8828 H   0  0  0  0  0  0  0  0  0  0  0  0
    8.4740   -2.0035  -15.1407 H   0  0  0  0  0  0  0  0  0  0  0  0
    7.4473   -2.4185  -13.7263 H   0  0  0  0  0  0  0  0  0  0  0  0
    5.4878   -1.1338  -17.3537 H   0  0  0  0  0  0  0  0  0  0  0  0
    7.2809   -1.2414  -17.3526 H   0  0  0  0  0  0  0  0  0  0  0  0
    5.5638    0.6877  -15.7072 H   0  0  0  0  0  0  0  0  0  0  0  0
    5.4056   -1.8236  -14.9907 H   0  0  0  0  0  0  0  0  0  0  0  0
    8.0978   -6.6804  -13.1497 H   0  0  0  0  0  0  0  0  0  0  0  0
    6.9723   -5.4567  -12.4699 H   0  0  0  0  0  0  0  0  0  0  0  0
    6.3317   -6.8223  -13.4454 H   0  0  0  0  0  0  0  0  0  0  0  0
    4.1856    9.6027  -24.6727 H   0  0  0  0  0  0  0  0  0  0  0  0
    4.3714    7.9080  -24.1072 H   0  0  0  0  0  0  0  0  0  0  0  0
    2.8420    8.7967  -23.7944 H   0  0  0  0  0  0  0  0  0  0  0  0
    4.8918    5.8948  -15.3408 H   0  0  0  0  0  0  0  0  0  0  0  0
    6.3289    6.5614  -16.1873 H   0  0  0  0  0  0  0  0  0  0  0  0
    4.8448    7.5587  -16.0160 H   0  0  0  0  0  0  0  0  0  0  0  0
    6.1659   -5.4757  -17.9645 H   0  0  0  0  0  0  0  0  0  0  0  0
    5.0195   -5.9318  -16.6591 H   0  0  0  0  0  0  0  0  0  0  0  0
    4.3962   -5.4357  -18.2691 H   0  0  0  0  0  0  0  0  0  0  0  0
    3.7178   -2.4443  -16.0828 H   0  0  0  0  0  0  0  0  0  0  0  0
    2.9617   -3.6607  -17.1669 H   0  0  0  0  0  0  0  0  0  0  0  0
    3.5850   -4.1567  -15.5569 H   0  0  0  0  0  0  0  0  0  0  0  0
    4.4963    2.3794  -21.3428 H   0  0  0  0  0  0  0  0  0  0  0  0
    3.4975    1.5169  -20.1242 H   0  0  0  0  0  0  0  0  0  0  0  0
    5.5961    9.4927  -22.6213 H   0  0  0  0  0  0  0  0  0  0  0  0
    4.0667   10.3814  -22.3085 H   0  0  0  0  0  0  0  0  0  0  0  0
    3.0750    8.3195  -21.3081 H   0  0  0  0  0  0  0  0  0  0  0  0
    4.6069    7.4340  -21.6174 H   0  0  0  0  0  0  0  0  0  0  0  0
    6.2690    4.5173  -17.8492 H   0  0  0  0  0  0  0  0  0  0  0  0
    4.9375    3.9431  -16.7890 H   0  0  0  0  0  0  0  0  0  0  0  0
    5.8307    9.0336  -20.1495 H   0  0  0  0  0  0  0  0  0  0  0  0
    4.3017    9.9254  -19.8439 H   0  0  0  0  0  0  0  0  0  0  0  0
    3.6001    5.9913  -17.4833 H   0  0  0  0  0  0  0  0  0  0  0  0
    7.2600   -3.6373  -16.6332 H   0  0  0  0  0  0  0  0  0  0  0  0
    5.2465   -3.1514  -17.9329 H   0  0  0  0  0  0  0  0  0  0  0  0
    6.2509    2.7894  -19.6561 H   0  0  0  0  0  0  0  0  0  0  0  0
    4.5528    4.5242  -19.7755 H   0  0  0  0  0  0  0  0  0  0  0  0
    4.5116    1.2810  -17.7382 H   0  0  0  0  0  0  0  0  0  0  0  0
    3.6082    8.2047  -18.4108 H   0  0  0  0  0  0  0  0  0  0  0  0
    5.4764   -4.3846  -14.3429 H   0  0  0  0  0  0  0  0  0  0  0  0
    2.7052    3.1467  -19.3378 H   0  0  0  0  0  0  0  0  0  0  0  0
  1  2  1  0  0  0  0
  1  3  2  0  0  0  0
  2  4  2  0  0  0  0
  3  5  1  0  0  0  0
  4  6  1  0  0  0  0
  5  6  2  0  0  0  0
  6 21  1  0  0  0  0
  7 14  1  0  0  0  0
  7 31  1  0  0  0  0
  7 34  2  0  0  0  0
  8 16  1  0  0  0  0
  8 33  1  0  0  0  0
  8 35  2  0  0  0  0
  9 26  1  0  0  0  0
  9 32  1  0  0  0  0
  9 36  2  0  0  0  0
 10 11  1  0  0  0  0
 10 12  1  0  0  0  0
 11 14  1  0  0  0  0
 12 15  1  0  0  0  0
 13 14  1  0  0  0  0
 13 15  1  0  0  0  0
 15 27  1  0  0  0  0
 17 22  1  0  0  0  0
 18 26  1  0  0  0  0
 19 28  1  0  0  0  0
 20 28  1  0  0  0  0
 21 29  1  0  0  0  0
 22 23  1  0  0  0  0
 23 25  1  0  0  0  0
 24 26  1  0  0  0  0
 24 30  1  0  0  0  0
 25 32  1  0  0  0  0
 27 28  1  0  0  0  0
 27 33  1  0  0  0  0
 29 30  1  0  0  0  0
 29 31  1  0  0  0  0
 30 37  1  0  0  0  0
  1 38  1  0  0  0  0
  2 39  1  0  0  0  0
  3 40  1  0  0  0  0
  4 41  1  0  0  0  0
  5 42  1  0  0  0  0
 10 43  1  0  0  0  0
 10 44  1  0  0  0  0
 11 45  1  0  0  0  0
 11 46  1  0  0  0  0
 12 47  1  0  0  0  0
 12 48  1  0  0  0  0
 13 49  1  0  0  0  0
 13 50  1  0  0  0  0
 14 51  1  0  0  0  0
 15 52  1  0  0  0  0
 16 53  1  0  0  0  0
 16 54  1  0  0  0  0
 16 55  1  0  0  0  0
 17 56  1  0  0  0  0
 17 57  1  0  0  0  0
 17 58  1  0  0  0  0
 18 59  1  0  0  0  0
 18 60  1  0  0  0  0
 18 61  1  0  0  0  0
 19 62  1  0  0  0  0
 19 63  1  0  0  0  0
 19 64  1  0  0  0  0
 20 65  1  0  0  0  0
 20 66  1  0  0  0  0
 20 67  1  0  0  0  0
 21 68  1  0  0  0  0
 21 69  1  0  0  0  0
 22 70  1  0  0  0  0
 22 71  1  0  0  0  0
 23 72  1  0  0  0  0
 23 73  1  0  0  0  0
 24 74  1  0  0  0  0
 24 75  1  0  0  0  0
 25 76  1  0  0  0  0
 25 77  1  0  0  0  0
 26 78  1  0  0  0  0
 27 79  1  0  0  0  0
 28 80  1  0  0  0  0
 29 81  1  0  0  0  0
 30 82  1  0  0  0  0
 31 83  1  0  0  0  0
 32 84  1  0  0  0  0
 33 85  1  0  0  0  0
 37 86  1  0  0  0  0
M  END
> <OMEGA_C>
2VDRQOmt/r/TbavBaz3fQKKhR7+7DLDBsq+uQHd//r9ROKTB4oDKQKQT3T5lea3BmhCaQAEnR79p
k6HBBo2nQIzg3z5ETKbBPq/RQP7tqz94AIzBKAbqQG3yqMDoh2nB0talQNyw3EBnOZXBHXfzQBnX
l757CmLBux72QNH3KD86OnXBZ3HxQLqC4b9Ep2nBUJ/MQOiXgb8x8YXBSGrPQKrx5D4KHILB2bLK
QI0bAMCG13jBGmblQDjLw8B0OFXBHtp7QGw+DkGm+77BF1enQA5A0UD8U4HBrNalQLt9qMDTJozB
XvFvQPB3X8A9V4PBf8qQQLhm3z8fjqPBiRyQQLldFkG0SrTBdFqFQNqsBkHpJqvBksClQFmKkEC3
kI3BLp+XQLIID0GGf6DBM2WWQGxlv0A2C4zBe2XKQE9WXsCenoDBI0ikQGG+csAsX4jBhcanQMhg
IUBPc5rBufOPQJlRdUAzX5fBO06rQF+m1D+Y+JDBJ2uNQFtFAEH4t5fBNELJQLupjMCAzW7BdUv0
QL5Y2D9HvI/B0swFQd4sqsD0sXPBOKfHQBhn1UAG5ZnBQVVIQI4RZECnx5TBry7hQK2nOsAXaq3B
39L5QPyuR78YkrXBzeWjQOqaOsCOtaDBo1/VQGLFrT89/7DBac5/QJdQR78l7pvBOPYHQbczJL4m
6lfBuorWQCESib0GtVjB4h/2QIpm2T+/a2/BjewJQcSC7j4FIH7BdJUHQQA6AMAmQHLBSlDuQOPI
GsD6nlvB/5uvQLogkb9m1IrBzfzoQEDmnr8P0orBDguyQJYOMD/eUHvBnPqsQLJq6b8I2m/BZpAB
QTbG1cBYZVLB3hzfQH2drsC3hEfBfJ3KQFtQ2sA+IFfBe/CFQKmkGUGnYcXBYuKLQC0O/UCC28DB
IuM1QC2/DEHqWr7BkImcQI2ivEDTc3XBvYbKQBv30UCmf4HBRAibQILg8UC4IIDBUU/FQPU4r8BV
t4/Bu5+gQBHRvcDfRYXBjq2MQKjxrcAoJ5LBD/FtQCRwHMCbqYDBMow9QFFIasDAVYnBi3BlQJED
hcDu6HjBmeGPQP1HGEASvqrBSdZfQDMpwj9P/qDBQhOzQAriF0F4+LTBcSKCQCAaJkHgd7LB/MxE
QJscBUEId6rBFmyTQPDi7UCJ8KzBj5vIQG+NkEApy47Bx/+dQI1cfEDGT4bB95S6QHmJEEE0MqHB
TKeJQH7OHkFXwJ7BcmhmQOS4v0C73YvBC1LoQNXIaMDaEIXBCeOnQDGwScCgdo/BWgfIQO6EMkC/
P53B1LCRQGPGkEBPNJ7BwV6QQAP5oz+9543Biu1mQGVGA0FrSZPBnD6vQGxOjMCifGXBKCItQABj
SUDTs5rB

> <OMEGA_E>
jtJcPw==

> <OMEGA_NBR>
     22920

$$$$
50161017
  -OEChem-04172616093D

 87 89  0     1  0  0  0  0  0999 V2000
    6.7548   -1.7396  -21.4315 C   0  0  0  0  0  0  0  0  0  0  0  0
    7.3696   -0.4739  -21.4984 C   0  0  0  0  0  0  0  0  0  0  0  0
    5.4009   -1.8479  -21.0557 C   0  0  0  0  0  0  0  0  0  0  0  0
    6.6300    0.6845  -21.1958 C   0  0  0  0  0  0  0  0  0  0  0  0
    4.6608   -0.6907  -20.7447 C   0  0  0  0  0  0  0  0  0  0  0  0
    5.2731    0.5802  -20.8128 C   0  0  0  0  0  0  0  0  0  0  0  0
    6.6013    1.5364  -17.5239 C   0  0  0  0  0  0  0  0  0  0  0  0
    4.2747   -3.5535  -17.1444 C   0  0  0  0  0  0  0  0  0  0  0  0
    5.5341    6.6830  -18.5674 C   0  0  0  0  0  0  0  0  0  0  0  0
    7.3190   -5.6663  -16.4141 C   0  0  0  0  0  0  0  0  0  0  0  0
    8.1338   -5.0638  -17.5807 C   0  0  0  0  0  0  0  0  0  0  0  0
    7.8495   -0.2345  -14.3181 C   0  0  0  0  0  0  0  0  0  0  0  0
    7.8576    0.8003  -15.4458 C   0  0  0  0  0  0  0  0  0  0  0  0
    7.9001   -1.6549  -14.8907 C   0  0  0  0  0  0  0  0  0  0  0  0
    6.8549   -4.4838  -15.5684 C   0  0  0  0  0  0  0  0  0  0  0  0
    8.0262   -3.5424  -17.4430 C   0  0  0  0  0  0  0  0  0  0  0  0
    6.7352   -0.8334  -17.0002 C   0  0  0  0  0  0  0  0  0  0  0  0
    6.6553    0.5549  -16.3780 C   0  0  2  0  0  0  0  0  0  0  0  0
    6.7321   -1.9083  -15.8989 C   0  0  1  0  0  0  0  0  0  0  0  0
    6.7697   -3.3161  -16.5720 C   0  0  0  0  0  0  0  0  0  0  0  0
    3.2416   -3.7167  -18.2563 C   0  0  0  0  0  0  0  0  0  0  0  0
    6.3221    9.8178  -22.9496 C   0  0  0  0  0  0  0  0  0  0  0  0
    4.9791    6.5053  -16.1321 C   0  0  0  0  0  0  0  0  0  0  0  0
    4.4826    1.8245  -20.4480 C   0  0  0  0  0  0  0  0  0  0  0  0
    5.4549   10.4384  -21.8417 C   0  0  0  0  0  0  0  0  0  0  0  0
    4.7161    9.3655  -21.0243 C   0  0  0  0  0  0  0  0  0  0  0  0
    5.0167    4.4407  -17.5802 C   0  0  0  0  0  0  0  0  0  0  0  0
    5.6867    8.5942  -20.1319 C   0  0  0  0  0  0  0  0  0  0  0  0
    4.6908    5.9365  -17.5277 C   0  0  2  0  0  0  0  0  0  0  0  0
    5.1762    2.5848  -19.2971 C   0  0  1  0  0  0  0  0  0  0  0  0
    4.3756    3.8132  -18.8411 C   0  0  1  0  0  0  0  0  0  0  0  0
    5.3832    1.6813  -18.1660 N   0  0  0  0  0  0  0  0  0  0  0  0
    5.6192   -3.5018  -17.4968 N   0  0  0  0  0  0  0  0  0  0  0  0
    4.9215    7.6616  -19.3197 N   0  0  0  0  0  0  0  0  0  0  0  0
    7.6214    2.0821  -17.9335 O   0  0  0  0  0  0  0  0  0  0  0  0
    3.8962   -3.3677  -15.9937 O   0  0  0  0  0  0  0  0  0  0  0  0
    6.7448    6.4925  -18.6508 O   0  0  0  0  0  0  0  0  0  0  0  0
    3.0267    3.4728  -18.5253 O   0  0  0  0  0  0  0  0  0  0  0  0
    7.3215   -2.6279  -21.6684 H   0  0  0  0  0  0  0  0  0  0  0  0
    8.4086   -0.3925  -21.7819 H   0  0  0  0  0  0  0  0  0  0  0  0
    4.9306   -2.8188  -21.0061 H   0  0  0  0  0  0  0  0  0  0  0  0
    7.0999    1.6551  -21.2563 H   0  0  0  0  0  0  0  0  0  0  0  0
    3.6241   -0.7753  -20.4539 H   0  0  0  0  0  0  0  0  0  0  0  0
    6.4525   -6.2227  -16.8008 H   0  0  0  0  0  0  0  0  0  0  0  0
    7.9498   -6.3398  -15.8154 H   0  0  0  0  0  0  0  0  0  0  0  0
    9.1856   -5.3786  -17.5125 H   0  0  0  0  0  0  0  0  0  0  0  0
    7.7155   -5.3891  -18.5447 H   0  0  0  0  0  0  0  0  0  0  0  0
    8.7257   -0.0731  -13.6728 H   0  0  0  0  0  0  0  0  0  0  0  0
    6.9307   -0.1160  -13.7251 H   0  0  0  0  0  0  0  0  0  0  0  0
    7.7884    1.8107  -15.0166 H   0  0  0  0  0  0  0  0  0  0  0  0
    8.7913    0.7091  -16.0202 H   0  0  0  0  0  0  0  0  0  0  0  0
    8.8587   -1.7965  -15.4114 H   0  0  0  0  0  0  0  0  0  0  0  0
    7.8218   -2.3765  -14.0642 H   0  0  0  0  0  0  0  0  0  0  0  0
    5.8710   -4.6863  -15.1201 H   0  0  0  0  0  0  0  0  0  0  0  0
    7.5819   -4.2631  -14.7729 H   0  0  0  0  0  0  0  0  0  0  0  0
    8.9198   -3.1333  -16.9488 H   0  0  0  0  0  0  0  0  0  0  0  0
    7.9046   -3.0710  -18.4294 H   0  0  0  0  0  0  0  0  0  0  0  0
    5.8688   -0.9865  -17.6604 H   0  0  0  0  0  0  0  0  0  0  0  0
    7.6622   -0.9163  -17.5867 H   0  0  0  0  0  0  0  0  0  0  0  0
    5.7287    0.6324  -15.7903 H   0  0  0  0  0  0  0  0  0  0  0  0
    5.7858   -1.8258  -15.3442 H   0  0  0  0  0  0  0  0  0  0  0  0
    2.2299   -3.6380  -17.8318 H   0  0  0  0  0  0  0  0  0  0  0  0
    3.3857   -2.9277  -19.0091 H   0  0  0  0  0  0  0  0  0  0  0  0
    3.3650   -4.7020  -18.7295 H   0  0  0  0  0  0  0  0  0  0  0  0
    6.8313   10.6169  -23.5083 H   0  0  0  0  0  0  0  0  0  0  0  0
    7.0717    9.1512  -22.4982 H   0  0  0  0  0  0  0  0  0  0  0  0
    5.6837    9.2409  -23.6349 H   0  0  0  0  0  0  0  0  0  0  0  0
    4.3743    5.9701  -15.3853 H   0  0  0  0  0  0  0  0  0  0  0  0
    6.0465    6.3790  -15.8982 H   0  0  0  0  0  0  0  0  0  0  0  0
    4.7235    7.5751  -16.1124 H   0  0  0  0  0  0  0  0  0  0  0  0
    4.4149    2.4817  -21.3275 H   0  0  0  0  0  0  0  0  0  0  0  0
    3.4710    1.5312  -20.1307 H   0  0  0  0  0  0  0  0  0  0  0  0
    6.1015   11.0178  -21.1662 H   0  0  0  0  0  0  0  0  0  0  0  0
    4.7135   11.1075  -22.3029 H   0  0  0  0  0  0  0  0  0  0  0  0
    3.9571    9.8522  -20.3942 H   0  0  0  0  0  0  0  0  0  0  0  0
    4.2248    8.6628  -21.7134 H   0  0  0  0  0  0  0  0  0  0  0  0
    6.1076    4.3049  -17.6181 H   0  0  0  0  0  0  0  0  0  0  0  0
    4.6167    3.9472  -16.6822 H   0  0  0  0  0  0  0  0  0  0  0  0
    6.4050    8.0414  -20.7551 H   0  0  0  0  0  0  0  0  0  0  0  0
    6.2296    9.2951  -19.4807 H   0  0  0  0  0  0  0  0  0  0  0  0
    3.6253    6.0801  -17.7601 H   0  0  0  0  0  0  0  0  0  0  0  0
    6.1544    2.9317  -19.6614 H   0  0  0  0  0  0  0  0  0  0  0  0
    4.3949    4.5610  -19.6476 H   0  0  0  0  0  0  0  0  0  0  0  0
    4.6069    1.1416  -17.8403 H   0  0  0  0  0  0  0  0  0  0  0  0
    5.8339   -3.5990  -18.4686 H   0  0  0  0  0  0  0  0  0  0  0  0
    3.9241    7.7324  -19.3068 H   0  0  0  0  0  0  0  0  0  0  0  0
    2.6111    3.0847  -19.2862 H   0  0  0  0  0  0  0  0  0  0  0  0
  1  2  1  0  0  0  0
  1  3  2  0  0  0  0
  2  4  2  0  0  0  0
  3  5  1  0  0  0  0
  4  6  1  0  0  0  0
  5  6  2  0  0  0  0
  6 24  1  0  0  0  0
  7 18  1  0  0  0  0
  7 32  1  0  0  0  0
  7 35  2  0  0  0  0
  8 21  1  0  0  0  0
  8 33  1  0  0  0  0
  8 36  2  0  0  0  0
  9 29  1  0  0  0  0
  9 34  1  0  0  0  0
  9 37  2  0  0  0  0
 10 11  1  0  0  0  0
 10 15  1  0  0  0  0
 11 16  1  0  0  0  0
 12 13  1  0  0  0  0
 12 14  1  0  0  0  0
 13 18  1  0  0  0  0
 14 19  1  0  0  0  0
 15 20  1  0  0  0  0
 16 20  1  0  0  0  0
 17 18  1  0  0  0  0
 17 19  1  0  0  0  0
 19 20  1  0  0  0  0
 20 33  1  0  0  0  0
 22 25  1  0  0  0  0
 23 29  1  0  0  0  0
 24 30  1  0  0  0  0
 25 26  1  0  0  0  0
 26 28  1  0  0  0  0
 27 29  1  0  0  0  0
 27 31  1  0  0  0  0
 28 34  1  0  0  0  0
 30 31  1  0  0  0  0
 30 32  1  0  0  0  0
 31 38  1  0  0  0  0
  1 39  1  0  0  0  0
  2 40  1  0  0  0  0
  3 41  1  0  0  0  0
  4 42  1  0  0  0  0
  5 43  1  0  0  0  0
 10 44  1  0  0  0  0
 10 45  1  0  0  0  0
 11 46  1  0  0  0  0
 11 47  1  0  0  0  0
 12 48  1  0  0  0  0
 12 49  1  0  0  0  0
 13 50  1  0  0  0  0
 13 51  1  0  0  0  0
 14 52  1  0  0  0  0
 14 53  1  0  0  0  0
 15 54  1  0  0  0  0
 15 55  1  0  0  0  0
 16 56  1  0  0  0  0
 16 57  1  0  0  0  0
 17 58  1  0  0  0  0
 17 59  1  0  0  0  0
 18 60  1  0  0  0  0
 19 61  1  0  0  0  0
 21 62  1  0  0  0  0
 21 63  1  0  0  0  0
 21 64  1  0  0  0  0
 22 65  1  0  0  0  0
 22 66  1  0  0  0  0
 22 67  1  0  0  0  0
 23 68  1  0  0  0  0
 23 69  1  0  0  0  0
 23 70  1  0  0  0  0
 24 71  1  0  0  0  0
 24 72  1  0  0  0  0
 25 73  1  0  0  0  0
 25 74  1  0  0  0  0
 26 75  1  0  0  0  0
 26 76  1  0  0  0  0
 27 77  1  0  0  0  0
 27 78  1  0  0  0  0
 28 79  1  0  0  0  0
 28 80  1  0  0  0  0
 29 81  1  0  0  0  0
 30 82  1  0  0  0  0
 31 83  1  0  0  0  0
 32 84  1  0  0  0  0
 33 85  1  0  0  0  0
 34 86  1  0  0  0  0
 38 87  1  0  0  0  0
M  END
> <OMEGA_C>
7CbYQGOs3r+mc6vB+tPrQJyh8r66/KvBfdSsQKuH7L8FcqjBECnUQOY8Lz8NkanBISWVQNrSML8t
9aXBLL2oQAaFFD+3gKbB3T3TQEKnxD8CMYzBssqIQKdsY8DIJ4nBZxexQCXb1UAZipTBIDXqQAlS
tcAZUIPB5iMCQQ4LosBIpYzBVy/7QFMWcL7vFmXBznH7QMjeTD8JInfB1838QErU07+AQG7BMFvb
QCt7j8AtGHnBYGsAQSW2YsA8i4vBHofXQJxYVb9/AIjBMPjUQFoPDj8XBoPBN23XQAxE9L/WYX7B
uqHYQIQ7VMCNk4TBJHdPQCTebcDPDJLB2k7KQMgVHUHImLfBAlWfQL0r0ECkDoHBS3GPQI2J6T93
laPBeo6uQMoDJ0HCu67BUOqWQA3ZFUGtMajBfoigQPoZjkBRpIzBbfm1QOqBCUEcDqHBFRuWQHv3
vUDBOIzBLqOlQA9tJUBxYJrB+ASMQMoLdECXupbBNEOsQJMz1z/vU5HBOdCzQOUcYMB2+YvBDn2d
QAEs9UDKjprBpuLzQL5ABUDJd4/BXFt5QOKIV8D+5X/BVdXXQJXCz0DKNJXBUrVBQAxDXkC6M5TB
6knqQKovKMDnWK3BgYkGQRD7yL5aQa7BusedQPFnNMB0DKjBETLjQL3Z0z/jDKrBbPFnQGZ3Rr+f
oaPBqHrOQJ0gx8D3Z4bB8GT+QGHfysDvC33BFPgSQWsdrMCgGYzBIuX2QFpzrMCCW5TBXZwLQfLO
lb3+w1rB7MfdQJWd7b0HmlvByjr5QGDF5z/2Q3DBPqkMQcyENT9gKYDBPr0NQTjy5b8vlXbB8Uv6
QMAYGMACB2HBLt+7QNn1lcD163HBj57yQDZriMDbXWzBXLcOQSOISMAbl4fB3vL8QPiLRMB6b5PB
Cc27QCKLfL96SI3BmzD1QOSPar+IsYzBKVG3QLflIT8opXzBDCW5QBO06b/MgXXBerYOQN3UaMCN
p47BDK9YQMlfO8CoEpjBCVxXQL92lsD81ZXBOZraQPDeKUH8ELzBe0viQGNrEkFQ/LPBF+G1QNza
E0FMFL3Ba/qLQFULv0A/KnbB8XzBQLggzEDjXn7BSSeXQNZm8kAy5oDBuEaNQCbUHkCunqrB3iRe
QAH9wz+5C6HBoD/DQMFIMEFrVKnBPNWWQDm4MUFmbLLBBEF9QKuiHUFEJ6PByjGHQOCaCkEAta3B
W3HDQGbBiUDu8YzBGLyTQBCffEARdYXBwvXMQHupAEF6CqbB3ljHQMe4FEGK2JvBOQRoQMyPwkCd
FI7Bv/DEQLKhO0CBSp3BXKOMQJLzkUBYLp3Bo2uTQMcfkj/auI7BFa+6QHdWZsDCv5PBkCR7QM5v
90BhdJrBzBsnQIBrRUA4SprB

> <OMEGA_E>
8GGFPg==

> <OMEGA_NBR>
     24657

$$$$
50024741
  -OEChem-04172616093D

 92 93  0     1  0  0  0  0  0999 V2000
    9.1610   -1.7267  -21.7926 C   0  0  0  0  0  0  0  0  0  0  0  0
    9.1458   -0.4524  -22.3955 C   0  0  0  0  0  0  0  0  0  0  0  0
    8.2054   -2.0511  -20.8075 C   0  0  0  0  0  0  0  0  0  0  0  0
    8.1717    0.4952  -22.0191 C   0  0  0  0  0  0  0  0  0  0  0  0
    7.2274   -1.1050  -20.4323 C   0  0  0  0  0  0  0  0  0  0  0  0
   10.7949   10.6453  -18.4600 C   0  0  0  0  0  0  0  0  0  0  0  0
   10.8517   12.4248  -20.1016 C   0  0  0  0  0  0  0  0  0  0  0  0
   12.1986   10.5508  -18.5682 C   0  0  0  0  0  0  0  0  0  0  0  0
   12.2534   12.2781  -20.1591 C   0  0  0  0  0  0  0  0  0  0  0  0
    7.1980    0.1692  -21.0478 C   0  0  0  0  0  0  0  0  0  0  0  0
   10.1115   11.6091  -19.2257 C   0  0  0  0  0  0  0  0  0  0  0  0
    6.4542    6.5013  -18.8698 C   0  0  0  0  0  0  0  0  0  0  0  0
    7.1429    9.6863  -19.3447 C   0  0  0  0  0  0  0  0  0  0  0  0
    7.6639    1.0512  -17.4090 C   0  0  0  0  0  0  0  0  0  0  0  0
    8.5414   -1.7334  -15.1808 C   0  0  0  0  0  0  0  0  0  0  0  0
    5.4745    6.1473  -16.5833 C   0  0  0  0  0  0  0  0  0  0  0  0
    7.1125    1.3455  -14.9639 C   0  0  0  0  0  0  0  0  0  0  0  0
    5.2657    8.1010  -22.4044 C   0  0  0  0  0  0  0  0  0  0  0  0
    4.5035    9.9592  -20.8589 C   0  0  0  0  0  0  0  0  0  0  0  0
    9.7531   -3.6308  -17.2622 C   0  0  0  0  0  0  0  0  0  0  0  0
   11.9873   -3.3175  -16.1045 C   0  0  0  0  0  0  0  0  0  0  0  0
    6.1449    1.2024  -20.6566 C   0  0  0  0  0  0  0  0  0  0  0  0
    8.6077   11.7375  -19.1418 C   0  0  0  0  0  0  0  0  0  0  0  0
    6.0975    4.1189  -17.9853 C   0  0  0  0  0  0  0  0  0  0  0  0
    5.5594    5.5779  -18.0145 C   0  0  2  0  0  0  0  0  0  0  0  0
    6.6101    8.5826  -20.2830 C   0  0  2  0  0  0  0  0  0  0  0  0
    7.4110    0.3303  -16.0813 C   0  0  2  0  0  0  0  0  0  0  0  0
    9.8812   -2.4578  -14.9565 C   0  0  2  0  0  0  0  0  0  0  0  0
    5.7327    9.1983  -21.4181 C   0  0  0  0  0  0  0  0  0  0  0  0
   10.5843   -2.7123  -16.3285 C   0  0  0  0  0  0  0  0  0  0  0  0
    6.6118    2.0789  -19.4629 C   0  0  1  0  0  0  0  0  0  0  0  0
    5.7288    3.3490  -19.2876 C   0  0  1  0  0  0  0  0  0  0  0  0
   12.9013   11.3595  -19.4002 N   0  0  0  0  0  0  0  0  0  0  0  0
    7.9882   10.6423  -19.8947 N   0  0  0  0  0  0  0  0  0  0  0  0
    5.8534    7.5661  -19.5298 N   0  0  0  0  0  0  0  0  0  0  0  0
    8.5907   -0.4622  -15.7320 N   0  0  0  0  0  0  0  0  0  0  0  0
    6.5704    1.2767  -18.2318 N   0  0  0  0  0  0  0  0  0  0  0  0
    9.6869   -3.7200  -14.1978 N   0  3  0  0  0  0  0  0  0  0  0  0
    7.6741    6.3567  -18.8888 O   0  0  0  0  0  0  0  0  0  0  0  0
    6.8450    9.7041  -18.1527 O   0  0  0  0  0  0  0  0  0  0  0  0
    8.7831    1.4711  -17.6939 O   0  0  0  0  0  0  0  0  0  0  0  0
    7.4731   -2.2584  -14.8771 O   0  0  0  0  0  0  0  0  0  0  0  0
    4.3438    2.9906  -19.2244 O   0  0  0  0  0  0  0  0  0  0  0  0
    9.9040   -2.4539  -22.0850 H   0  0  0  0  0  0  0  0  0  0  0  0
    9.8806   -0.2018  -23.1462 H   0  0  0  0  0  0  0  0  0  0  0  0
    8.2219   -3.0244  -20.3397 H   0  0  0  0  0  0  0  0  0  0  0  0
    8.1697    1.4742  -22.4749 H   0  0  0  0  0  0  0  0  0  0  0  0
    6.4998   -1.3540  -19.6740 H   0  0  0  0  0  0  0  0  0  0  0  0
   10.2517    9.9867  -17.7984 H   0  0  0  0  0  0  0  0  0  0  0  0
   10.3526   13.1543  -20.7223 H   0  0  0  0  0  0  0  0  0  0  0  0
   12.7254    9.8179  -17.9751 H   0  0  0  0  0  0  0  0  0  0  0  0
   12.8236   12.9116  -20.8223 H   0  0  0  0  0  0  0  0  0  0  0  0
    4.8387    5.4957  -15.9659 H   0  0  0  0  0  0  0  0  0  0  0  0
    6.4833    6.1948  -16.1472 H   0  0  0  0  0  0  0  0  0  0  0  0
    5.0413    7.1579  -16.6160 H   0  0  0  0  0  0  0  0  0  0  0  0
    6.9338    0.8103  -14.0197 H   0  0  0  0  0  0  0  0  0  0  0  0
    7.9714    2.0224  -14.8447 H   0  0  0  0  0  0  0  0  0  0  0  0
    6.2190    1.9299  -15.2288 H   0  0  0  0  0  0  0  0  0  0  0  0
    6.1415    7.5643  -22.7981 H   0  0  0  0  0  0  0  0  0  0  0  0
    4.6072    7.3930  -21.8800 H   0  0  0  0  0  0  0  0  0  0  0  0
    4.7162    8.5657  -23.2363 H   0  0  0  0  0  0  0  0  0  0  0  0
    4.8408   10.7377  -20.1588 H   0  0  0  0  0  0  0  0  0  0  0  0
    3.9529   10.4263  -21.6888 H   0  0  0  0  0  0  0  0  0  0  0  0
    3.8439    9.2536  -20.3325 H   0  0  0  0  0  0  0  0  0  0  0  0
    8.7561   -3.1923  -17.4161 H   0  0  0  0  0  0  0  0  0  0  0  0
   10.2645   -3.7275  -18.2313 H   0  0  0  0  0  0  0  0  0  0  0  0
    9.6495   -4.6243  -16.8015 H   0  0  0  0  0  0  0  0  0  0  0  0
   12.5692   -2.6600  -15.4418 H   0  0  0  0  0  0  0  0  0  0  0  0
   11.8886   -4.3103  -15.6413 H   0  0  0  0  0  0  0  0  0  0  0  0
   12.5037   -3.4135  -17.0711 H   0  0  0  0  0  0  0  0  0  0  0  0
    5.9471    1.8538  -21.5206 H   0  0  0  0  0  0  0  0  0  0  0  0
    5.2202    0.6783  -20.3732 H   0  0  0  0  0  0  0  0  0  0  0  0
    8.2920   11.6853  -18.0894 H   0  0  0  0  0  0  0  0  0  0  0  0
    8.2961   12.7013  -19.5707 H   0  0  0  0  0  0  0  0  0  0  0  0
    7.1924    4.1436  -17.8825 H   0  0  0  0  0  0  0  0  0  0  0  0
    5.6601    3.5937  -17.1235 H   0  0  0  0  0  0  0  0  0  0  0  0
    4.5489    5.5679  -18.4490 H   0  0  0  0  0  0  0  0  0  0  0  0
    7.4757    8.0975  -20.7577 H   0  0  0  0  0  0  0  0  0  0  0  0
    6.5405   -0.3320  -16.1979 H   0  0  0  0  0  0  0  0  0  0  0  0
   10.5304   -1.7925  -14.3684 H   0  0  0  0  0  0  0  0  0  0  0  0
    6.3537    9.9158  -21.9745 H   0  0  0  0  0  0  0  0  0  0  0  0
   10.7076   -1.7408  -16.8296 H   0  0  0  0  0  0  0  0  0  0  0  0
    7.6459    2.4014  -19.6542 H   0  0  0  0  0  0  0  0  0  0  0  0
    5.9063    4.0148  -20.1450 H   0  0  0  0  0  0  0  0  0  0  0  0
    8.1879   10.5790  -20.8725 H   0  0  0  0  0  0  0  0  0  0  0  0
    4.8574    7.6470  -19.4919 H   0  0  0  0  0  0  0  0  0  0  0  0
    9.4907   -0.0608  -15.9019 H   0  0  0  0  0  0  0  0  0  0  0  0
    5.6966    0.8667  -17.9704 H   0  0  0  0  0  0  0  0  0  0  0  0
   10.5703   -4.1696  -14.0661 H   0  0  0  0  0  0  0  0  0  0  0  0
    9.2816   -3.5143  -13.3070 H   0  0  0  0  0  0  0  0  0  0  0  0
    9.0776   -4.3258  -14.7093 H   0  0  0  0  0  0  0  0  0  0  0  0
    4.1020    2.5192  -20.0130 H   0  0  0  0  0  0  0  0  0  0  0  0
  1  2  1  0  0  0  0
  1  3  2  0  0  0  0
  2  4  2  0  0  0  0
  3  5  1  0  0  0  0
  4 10  1  0  0  0  0
  5 10  2  0  0  0  0
  6  8  2  0  0  0  0
  6 11  1  0  0  0  0
  7  9  1  0  0  0  0
  7 11  2  0  0  0  0
  8 33  1  0  0  0  0
  9 33  2  0  0  0  0
 10 22  1  0  0  0  0
 11 23  1  0  0  0  0
 12 25  1  0  0  0  0
 12 35  1  0  0  0  0
 12 39  2  0  0  0  0
 13 26  1  0  0  0  0
 13 34  1  0  0  0  0
 13 40  2  0  0  0  0
 14 27  1  0  0  0  0
 14 37  1  0  0  0  0
 14 41  2  0  0  0  0
 15 28  1  0  0  0  0
 15 36  1  0  0  0  0
 15 42  2  0  0  0  0
 16 25  1  0  0  0  0
 17 27  1  0  0  0  0
 18 29  1  0  0  0  0
 19 29  1  0  0  0  0
 20 30  1  0  0  0  0
 21 30  1  0  0  0  0
 22 31  1  0  0  0  0
 23 34  1  0  0  0  0
 24 25  1  0  0  0  0
 24 32  1  0  0  0  0
 26 29  1  0  0  0  0
 26 35  1  0  0  0  0
 27 36  1  0  0  0  0
 28 30  1  0  0  0  0
 28 38  1  0  0  0  0
 31 32  1  0  0  0  0
 31 37  1  0  0  0  0
 32 43  1  0  0  0  0
  1 44  1  0  0  0  0
  2 45  1  0  0  0  0
  3 46  1  0  0  0  0
  4 47  1  0  0  0  0
  5 48  1  0  0  0  0
  6 49  1  0  0  0  0
  7 50  1  0  0  0  0
  8 51  1  0  0  0  0
  9 52  1  0  0  0  0
 16 53  1  0  0  0  0
 16 54  1  0  0  0  0
 16 55  1  0  0  0  0
 17 56  1  0  0  0  0
 17 57  1  0  0  0  0
 17 58  1  0  0  0  0
 18 59  1  0  0  0  0
 18 60  1  0  0  0  0
 18 61  1  0  0  0  0
 19 62  1  0  0  0  0
 19 63  1  0  0  0  0
 19 64  1  0  0  0  0
 20 65  1  0  0  0  0
 20 66  1  0  0  0  0
 20 67  1  0  0  0  0
 21 68  1  0  0  0  0
 21 69  1  0  0  0  0
 21 70  1  0  0  0  0
 22 71  1  0  0  0  0
 22 72  1  0  0  0  0
 23 73  1  0  0  0  0
 23 74  1  0  0  0  0
 24 75  1  0  0  0  0
 24 76  1  0  0  0  0
 25 77  1  0  0  0  0
 26 78  1  0  0  0  0
 27 79  1  0  0  0  0
 28 80  1  0  0  0  0
 29 81  1  0  0  0  0
 30 82  1  0  0  0  0
 31 83  1  0  0  0  0
 32 84  1  0  0  0  0
 34 85  1  0  0  0  0
 35 86  1  0  0  0  0
 36 87  1  0  0  0  0
 37 88  1  0  0  0  0
 38 89  1  0  0  0  0
 38 90  1  0  0  0  0
 38 91  1  0  0  0  0
 43 92  1  0  0  0  0
M  CHG  1  38   1
M  END
> <OMEGA_C>
j5MSQX4E3b9CV67BA1USQeqi5770KbPBXEkDQb9FA8C8dabBT78CQbiE/T4KJ7DBtEbnQIJxjb9u
daPB47csQQJTKkEVrpPBq6AtQRfMRkEp0KDBSi1DQRTQKEGvi5TBvw1EQTNzREHARaHB4lXmQLhL
LT7gYajBhcghQQG/OUE8zpnBCInOQNAK0EBd9ZbB4pLkQAT7GkEIwprB9D71QHqMhj+vRYvBr6kI
QSrh3b9w5HLBdi+vQOK2xECJqoTBopnjQLM4rD9FbG/BwoCoQKidAUFFPLPBfhyQQAlZH0Ed36bB
0AwcQcReaMD+GIrBE8w/QTpRVMAT1oDB8KLEQKnmmT+0QKXBKLkJQbjMO0GBIpnB8B7DQPbNg0Dl
4Y/B2uaxQCB+skCaHZDBsoXTQC5SCUGjQ6LBlCbtQOwYqT6PpoDBOxkeQbRMHcCxTW/BSnK3QFAs
E0E6WKvBG1kpQUqWLcDWoILB2JPTQCoNBUD2s5vBplK3QExVVkDyTJrB3mtOQbDANUGiM5vBLJ//
QAdHKkFtKJ/B+k67QHod8kD4PJzBm3MJQY6i7L5dtnvB6EDSQOFpoz+v2pHBgP0aQa4TbsAhKmPB
nJL1QGRqy0BUHJfB6gnbQOpDG0GuOJHBwYcMQdtNvD8wjY3BuiPvQCqJEMCPCG7BqACLQMxlP0Cp
y5nB4HYeQWwNHcAArrDBChceQW6hTr5kK7nBDo0DQfqPQcCmt6LBErcCQamzvD+fzLPBvv7PQKFP
rb9PZJ3BKwckQarJH0EZY47BZqQlQdF3UkFSx6XBVZtLQUwWHUETzY/BTC1NQQmWTkEmlKbBaNaa
QPvcr0CFdH/BUnfPQI87xkCILYHBeVKhQHQN5UB87YTBhOHdQFRtTz+kUGDBVRX/QEduAUDlg23B
WQLHQN0H9z8IqXPBFYfEQKwO8kCDYrbByW2TQB6T7EBTCq/BzeqWQAgNCUH+47nB9eeaQHbNK0Ei
RaHB5Px8QEvSJkG6gq3B3AJ2QNEOFEEPqaLBAxkMQZROTMAfVIvBlzskQTOPbsCm2ZHBTWQaQTD6
k8CSaYbBlBtJQQk+KsC2EXfBsjc+QdbticDkQnrB/Q5IQX52WsCGkYjBfE6+QN5H7T87KqzB1wun
QIemLT89/KLBF6wEQdz2OkEft5DB97wEQZo4S0HbkJzBXyjmQMeYhEBCD4/BTh+1QKD+ZUDY/IjB
3ZCRQAUsskB5l5PBUDnvQDaPAUGzD6bBgkvRQNkAqr5ZlYHBcXwoQVRv5b/25GXBeVHLQB+nHkG+
y6/BgFIrQfjT3r/9oobBT6v0QJCwGUDeO53BqgC9QOR4gED8KKHByQEDQbZDKUH1+qbBwW+bQJi0
9EBq75vB/9kXQZHjeL1Vbn7Bgkq2QCjdXT9mw4/BDyApQXFthcCsDmHBboEUQQHqYMCc6VTB1D0R
QRZtisB0WWvBikODQMM5IUCMGqDBKIANQVfFEMBWNK7BxywQQQSlhL/jnLPBRdb7QBRVGMBZGabB
ZjgDQaJEjj2x9bDBOsThQH1Do7/8daPBUXYnQYcoJEFCqpDBtQMyQTW9O0GaGp/BBCs9QWN0HkHp
bI/BsmVHQXlXNUG9bJ3BxrLmQPhqQr1k9qjBL88hQUtCM0E6iJjBaHbVQFto00CdipjBvVLcQPBQ
HUG04ZvBXif8QAYQcT9RXIzBsxEGQclv6L9Gs3LBvvrHQJu2wkAxMYXBC6TtQAKsuD96wHHBVTOy
QLJ3JkGxarHB3/GQQN/NAUEZ+LDBI/0TQWj+fsACOonBYHs4QfaHfMBjXoDBpK7KQJwGlD/+PabB
f7cKQXXKOUGNG5rBebfXQHRkhUBz6ZHBWpDCQJo/skCrvpDBgj/JQEmYC0HTAKPB55LxQHBjrT53
ZoHBBZwZQfQJLsCuu27BmHSjQL0OFEGi9qnB2qUjQUyoScArSILBKiXeQLTaAEA7FZ3BhmzHQGRg
WUBF95vBmqhMQU8LJ0GkspXB3bj+QPTfKEEY7Z/B95S6QDGd80B+O5zB8K4JQbrBGb95v3zB2B7a
QIAzoj+//JLBL8oTQUNAecBMa2HBXcD7QA5B00BGxJrBDefMQA9IIUFvD5PBSakQQVcamD8X447B
KhDoQAH9CcDAGW3BeymaQOYvTUDhE5vBgGAXQT4JR8BFRLDBWigcQYmwcb9Ry7nB3un3QHBCVMAq
6KHBD3AFQatJgT/vDrXBaADKQDIDr78fO53BJlcbQQwIHUG1pIvBdh8uQXoCR0GDW6XBJ4xBQQ/9
EkEBWInBV9xTQaX6O0GlZ6LBVY66QF80q0COIn/BSjHqQApSx0AheYPB+A63QM5e4UCgS4TBsg3m
QP0gfT8HLWLBCgwGQZur/j/4lnDBSvfTQP/pCEDoTnbBmHK/QI2UM0EMkqzBaOrKQM9/IEEx7bbB
m7KWQCxiLEFeC7bB7k6GQDks6UCBzavBCixrQADhB0FFmbXB0s2pQEj990AXe7bBlTQFQUZIWsAe
jIrB0IEbQSGxhsAw+pDBfCYQQUmVncDXFIXBd3tDQXo+VsC74XbBeLk0QW5ZnMBiaHjBzBRAQUZ1
hcCKGYjBMVrHQFpu5D8Ea63Bn/SqQHImTD9qvKPB0B0DQWBAPEExRJLBsw0KQXy/SEHXu57BPJH6
QC6QiUC4k5LBuFTQQAjEZEBGvYrBiSmgQEH6rkBfa5LBSHjiQD3RBUFma6jBjNPSQDDnRL4v9YHB
z6olQewrCMBcFmbBkCOKQAEPGkHfoqTBdbsnQWY2D8AYvobBdxUAQXwQDEAy2p7Bp9TOQHzEf0An
G6PBd1cEQSxoJUELVKfBgKybQCWK8kCJLZrBz88YQZEss74pCYDBLtq8QJeWeT+dwJDB0rwgQUjW
jsA5Fl/BlywOQc0/ZcDMS1PBfIgIQfK8jcBd6GjBVwCQQCQfL0DtLKHB

> <OMEGA_E>
3HuIP4Cakj8=

> <OMEGA_NBR>
     67222

$$$$
50024727
  -OEChem-04172616093D

 90 91  0     1  0  0  0  0  0999 V2000
    9.1532   -1.7227  -21.7954 C   0  0  0  0  0  0  0  0  0  0  0  0
    9.1384   -0.4488  -22.3990 C   0  0  0  0  0  0  0  0  0  0  0  0
    8.1983   -2.0459  -20.8092 C   0  0  0  0  0  0  0  0  0  0  0  0
    8.1654    0.4997  -22.0223 C   0  0  0  0  0  0  0  0  0  0  0  0
    7.2211   -1.0990  -20.4340 C   0  0  0  0  0  0  0  0  0  0  0  0
   10.7961   10.6498  -18.4680 C   0  0  0  0  0  0  0  0  0  0  0  0
   10.8526   12.4289  -20.1102 C   0  0  0  0  0  0  0  0  0  0  0  0
   12.1997   10.5548  -18.5770 C   0  0  0  0  0  0  0  0  0  0  0  0
   12.2542   12.2817  -20.1684 C   0  0  0  0  0  0  0  0  0  0  0  0
    7.1921    0.1749  -21.0502 C   0  0  0  0  0  0  0  0  0  0  0  0
   10.1126   11.6137  -19.2335 C   0  0  0  0  0  0  0  0  0  0  0  0
    6.4527    6.5081  -18.8736 C   0  0  0  0  0  0  0  0  0  0  0  0
    7.1424    9.6928  -19.3495 C   0  0  0  0  0  0  0  0  0  0  0  0
    7.6615    1.0578  -17.4131 C   0  0  0  0  0  0  0  0  0  0  0  0
    8.5421   -1.7264  -15.1808 C   0  0  0  0  0  0  0  0  0  0  0  0
    5.4745    6.1546  -16.5863 C   0  0  0  0  0  0  0  0  0  0  0  0
    7.1127    1.3483  -14.9674 C   0  0  0  0  0  0  0  0  0  0  0  0
    5.2631    8.1081  -22.4079 C   0  0  0  0  0  0  0  0  0  0  0  0
    4.5016    9.9663  -20.8621 C   0  0  0  0  0  0  0  0  0  0  0  0
   12.0025   -3.3204  -16.0347 C   0  0  0  0  0  0  0  0  0  0  0  0
    9.7869   -3.6467  -17.2182 C   0  0  0  0  0  0  0  0  0  0  0  0
    6.1398    1.2089  -20.6590 C   0  0  0  0  0  0  0  0  0  0  0  0
    8.6090   11.7430  -19.1484 C   0  0  0  0  0  0  0  0  0  0  0  0
    6.0957    4.1261  -17.9885 C   0  0  0  0  0  0  0  0  0  0  0  0
    5.5581    5.5852  -18.0174 C   0  0  2  0  0  0  0  0  0  0  0  0
    6.6083    8.5892  -20.2871 C   0  0  2  0  0  0  0  0  0  0  0  0
    7.4101    0.3345  -16.0867 C   0  0  2  0  0  0  0  0  0  0  0  0
    9.8796   -2.4455  -14.9331 C   0  0  2  0  0  0  0  0  0  0  0  0
    5.7305    9.2052  -21.4217 C   0  0  0  0  0  0  0  0  0  0  0  0
   10.6055   -2.7119  -16.2899 C   0  0  0  0  0  0  0  0  0  0  0  0
    6.6078    2.0857  -19.4659 C   0  0  1  0  0  0  0  0  0  0  0  0
    5.7255    3.3560  -19.2902 C   0  0  1  0  0  0  0  0  0  0  0  0
   12.9023   11.3631  -19.4096 N   0  0  0  0  0  0  0  0  0  0  0  0
    7.9880   10.6480  -19.9003 N   0  0  0  0  0  0  0  0  0  0  0  0
    5.8518    7.5729  -19.5334 N   0  0  0  0  0  0  0  0  0  0  0  0
    8.5907   -0.4585  -15.7408 N   0  0  0  0  0  0  0  0  0  0  0  0
    6.5672    1.2839  -18.2346 N   0  0  0  0  0  0  0  0  0  0  0  0
    7.6725    6.3631  -18.8935 O   0  0  0  0  0  0  0  0  0  0  0  0
    6.8451    9.7112  -18.1573 O   0  0  0  0  0  0  0  0  0  0  0  0
    8.7802    1.4788  -17.6982 O   0  0  0  0  0  0  0  0  0  0  0  0
    7.4745   -2.2515  -14.8757 O   0  0  0  0  0  0  0  0  0  0  0  0
    9.6737   -3.6650  -14.2130 O   0  0  0  0  0  0  0  0  0  0  0  0
    4.3404    2.9981  -19.2259 O   0  0  0  0  0  0  0  0  0  0  0  0
    9.8954   -2.4507  -22.0880 H   0  0  0  0  0  0  0  0  0  0  0  0
    9.8728   -0.1991  -23.1504 H   0  0  0  0  0  0  0  0  0  0  0  0
    8.2147   -3.0188  -20.3407 H   0  0  0  0  0  0  0  0  0  0  0  0
    8.1638    1.4786  -22.4785 H   0  0  0  0  0  0  0  0  0  0  0  0
    6.4939   -1.3471  -19.6750 H   0  0  0  0  0  0  0  0  0  0  0  0
   10.2532    9.9916  -17.8059 H   0  0  0  0  0  0  0  0  0  0  0  0
   10.3534   13.1583  -20.7309 H   0  0  0  0  0  0  0  0  0  0  0  0
   12.7266    9.8219  -17.9841 H   0  0  0  0  0  0  0  0  0  0  0  0
   12.8242   12.9148  -20.8321 H   0  0  0  0  0  0  0  0  0  0  0  0
    4.8388    5.5034  -15.9685 H   0  0  0  0  0  0  0  0  0  0  0  0
    6.4836    6.2017  -16.1510 H   0  0  0  0  0  0  0  0  0  0  0  0
    5.0417    7.1654  -16.6187 H   0  0  0  0  0  0  0  0  0  0  0  0
    6.9350    0.8118  -14.0237 H   0  0  0  0  0  0  0  0  0  0  0  0
    7.9715    2.0251  -14.8482 H   0  0  0  0  0  0  0  0  0  0  0  0
    6.2188    1.9330  -15.2305 H   0  0  0  0  0  0  0  0  0  0  0  0
    6.1386    7.5713  -22.8018 H   0  0  0  0  0  0  0  0  0  0  0  0
    4.6046    7.4001  -21.8833 H   0  0  0  0  0  0  0  0  0  0  0  0
    4.7133    8.5728  -23.2396 H   0  0  0  0  0  0  0  0  0  0  0  0
    4.8393   10.7447  -20.1620 H   0  0  0  0  0  0  0  0  0  0  0  0
    3.9508   10.4336  -21.6918 H   0  0  0  0  0  0  0  0  0  0  0  0
    3.8421    9.2608  -20.3355 H   0  0  0  0  0  0  0  0  0  0  0  0
   12.5786   -2.6538  -15.3761 H   0  0  0  0  0  0  0  0  0  0  0  0
   11.8918   -4.3039  -15.5547 H   0  0  0  0  0  0  0  0  0  0  0  0
   12.5319   -3.4371  -16.9919 H   0  0  0  0  0  0  0  0  0  0  0  0
    8.7936   -3.2090  -17.3965 H   0  0  0  0  0  0  0  0  0  0  0  0
   10.3134   -3.7638  -18.1769 H   0  0  0  0  0  0  0  0  0  0  0  0
    9.6733   -4.6306  -16.7397 H   0  0  0  0  0  0  0  0  0  0  0  0
    5.9420    1.8600  -21.5232 H   0  0  0  0  0  0  0  0  0  0  0  0
    5.2149    0.6855  -20.3748 H   0  0  0  0  0  0  0  0  0  0  0  0
    8.2942   11.6914  -18.0957 H   0  0  0  0  0  0  0  0  0  0  0  0
    8.2976   12.7068  -19.5774 H   0  0  0  0  0  0  0  0  0  0  0  0
    7.1907    4.1505  -17.8867 H   0  0  0  0  0  0  0  0  0  0  0  0
    5.6589    3.6012  -17.1261 H   0  0  0  0  0  0  0  0  0  0  0  0
    4.5473    5.5755  -18.4512 H   0  0  0  0  0  0  0  0  0  0  0  0
    7.4734    8.1038  -20.7623 H   0  0  0  0  0  0  0  0  0  0  0  0
    6.5396   -0.3277  -16.2034 H   0  0  0  0  0  0  0  0  0  0  0  0
   10.5188   -1.7758  -14.3390 H   0  0  0  0  0  0  0  0  0  0  0  0
    6.3514    9.9226  -21.9783 H   0  0  0  0  0  0  0  0  0  0  0  0
   10.7371   -1.7475  -16.8022 H   0  0  0  0  0  0  0  0  0  0  0  0
    7.6418    2.4077  -19.6582 H   0  0  0  0  0  0  0  0  0  0  0  0
    5.9025    4.0215  -20.1480 H   0  0  0  0  0  0  0  0  0  0  0  0
    8.1871   10.5841  -20.8782 H   0  0  0  0  0  0  0  0  0  0  0  0
    4.8558    7.6541  -19.4952 H   0  0  0  0  0  0  0  0  0  0  0  0
    9.4904   -0.0604  -15.9198 H   0  0  0  0  0  0  0  0  0  0  0  0
    5.6933    0.8746  -17.9720 H   0  0  0  0  0  0  0  0  0  0  0  0
    8.7436   -3.7965  -14.0714 H   0  0  0  0  0  0  0  0  0  0  0  0
    4.0978    2.5265  -20.0141 H   0  0  0  0  0  0  0  0  0  0  0  0
  1  2  1  0  0  0  0
  1  3  2  0  0  0  0
  2  4  2  0  0  0  0
  3  5  1  0  0  0  0
  4 10  1  0  0  0  0
  5 10  2  0  0  0  0
  6  8  2  0  0  0  0
  6 11  1  0  0  0  0
  7  9  1  0  0  0  0
  7 11  2  0  0  0  0
  8 33  1  0  0  0  0
  9 33  2  0  0  0  0
 10 22  1  0  0  0  0
 11 23  1  0  0  0  0
 12 25  1  0  0  0  0
 12 35  1  0  0  0  0
 12 38  2  0  0  0  0
 13 26  1  0  0  0  0
 13 34  1  0  0  0  0
 13 39  2  0  0  0  0
 14 27  1  0  0  0  0
 14 37  1  0  0  0  0
 14 40  2  0  0  0  0
 15 28  1  0  0  0  0
 15 36  1  0  0  0  0
 15 41  2  0  0  0  0
 16 25  1  0  0  0  0
 17 27  1  0  0  0  0
 18 29  1  0  0  0  0
 19 29  1  0  0  0  0
 20 30  1  0  0  0  0
 21 30  1  0  0  0  0
 22 31  1  0  0  0  0
 23 34  1  0  0  0  0
 24 25  1  0  0  0  0
 24 32  1  0  0  0  0
 26 29  1  0  0  0  0
 26 35  1  0  0  0  0
 27 36  1  0  0  0  0
 28 30  1  0  0  0  0
 28 42  1  0  0  0  0
 31 32  1  0  0  0  0
 31 37  1  0  0  0  0
 32 43  1  0  0  0  0
  1 44  1  0  0  0  0
  2 45  1  0  0  0  0
  3 46  1  0  0  0  0
  4 47  1  0  0  0  0
  5 48  1  0  0  0  0
  6 49  1  0  0  0  0
  7 50  1  0  0  0  0
  8 51  1  0  0  0  0
  9 52  1  0  0  0  0
 16 53  1  0  0  0  0
 16 54  1  0  0  0  0
 16 55  1  0  0  0  0
 17 56  1  0  0  0  0
 17 57  1  0  0  0  0
 17 58  1  0  0  0  0
 18 59  1  0  0  0  0
 18 60  1  0  0  0  0
 18 61  1  0  0  0  0
 19 62  1  0  0  0  0
 19 63  1  0  0  0  0
 19 64  1  0  0  0  0
 20 65  1  0  0  0  0
 20 66  1  0  0  0  0
 20 67  1  0  0  0  0
 21 68  1  0  0  0  0
 21 69  1  0  0  0  0
 21 70  1  0  0  0  0
 22 71  1  0  0  0  0
 22 72  1  0  0  0  0
 23 73  1  0  0  0  0
 23 74  1  0  0  0  0
 24 75  1  0  0  0  0
 24 76  1  0  0  0  0
 25 77  1  0  0  0  0
 26 78  1  0  0  0  0
 27 79  1  0  0  0  0
 28 80  1  0  0  0  0
 29 81  1  0  0  0  0
 30 82  1  0  0  0  0
 31 83  1  0  0  0  0
 32 84  1  0  0  0  0
 34 85  1  0  0  0  0
 35 86  1  0  0  0  0
 36 87  1  0  0  0  0
 37 88  1  0  0  0  0
 42 89  1  0  0  0  0
 43 90  1  0  0  0  0
M  END
> <OMEGA_C>
tXMSQTyB3L/8XK7B6DYSQUDE5b4fMbPBOCwDQd3vAsBEeabBT6UCQUnb/z6cLbDBKhPnQPKrjL/L
eKPB+rwsQZ9lKkFnvpPBWKQtQcncRkGu4aDB1TFDQXfgKEGunZTBJhFEQdeBREHKWKHBXSXmQJ0j
Mz63ZqjBKc0hQdPROUE33pnBSXzOQJJC0EA6/ZbBTo7kQOEVG0G8y5rBsSr1QONkhz8bTovBaqwI
QX363L905HLBTS+vQNryxEDMsITB9ZrjQJSUrD+fem/BEmuoQKK6AUFLQ7PB9gyQQCF2H0Gg5abB
SgpAQbmBVMAWR4DBMZccQeliacDVvonBJXnEQJ67mj+IRaXBQ74JQTnjO0H8L5nB2Q/DQMsIhEBj
6I/B0NuxQK+5skCzI5DBH3fTQIRtCUH6S6LB1B/tQCc+qz6QsYDBARMeQfeCHMDj7W7BD2C3QJ9I
E0GlX6vB/K8pQVCQLcCpUYLB0HLTQIR7BUAnupvBbje3QA3IVkBjUprB1m9OQTrPNUHbRpvB3p3/
QEVeKkHZM5/B8kG7QJNV8kB/RJzBa3MJQU7E6r5G2nvBUibSQJRVpD9t4JHBWoX1QDWey0DjJZfB
TQvbQClhG0ETQpHBtnsMQTtKvT/4lY3BCS/vQBUZEMDfAm7BgscaQSeQasCQaGPB7uSKQEzgP0Cc
zpnBsFMeQZrXHMBKtLDBFfcdQYLfS74eNLnBfW8DQU80QcCruaLB154CQSVDvT8F1LPB/c3PQHxt
rL9rZp3B6AwkQczdH0Fmco7Bl6clQUiIUkHI2KXBJKBLQWImHUFf34/BDTBNQRyjTkE2qKbBsNea
QHMbsED8fn/BAXrPQA10xkBYNYHBwFWhQPdK5UAs84TBmOvdQNLPTz8xYWDB6Bb/QI6bAUA0km3B
uQDHQFJr9z9LsHPBzG/EQL9H8kAfarbBrViTQLDN7ED1EK/Be9OWQGMqCUGk6rnBgNuaQD/qK0HY
S6HBbNp8QNvvJkHTiK3B0OR1QFEsFEEkr6LBEUJJQYbYKcCEBHbB6UQ+Qcy5icDg33jBkYJIQUz5
W8Bb74fBtbIMQaxfTcAcLIvBmgMlQWjhcMBEapHB88UaQdotlMDZ6oXBliS+QKkT7j98L6zBjuCm
QGt9Lz+w/6LB2LQEQcoPO0H/w5DBAcMEQT9PS0GEnpzBIxrmQM3QhEDfF4/BbRW1QM95ZkBBAonB
MIORQDZqskANnJPBcSbvQBipAUFBGabBLETRQCbNp76KoIHBLE0oQQFO479ybGXBWD7LQCzDHkGT
06/BLcsrQeGs37/jaobB64n0QHMYGkDnQ53BheG8QO2vgEAVL6HBTf4CQZhYKUGXBqfB92KbQBru
9EAd9pvBp9gXQfWYd71/t37Byi+2QAnoXz+8xo/Bp+ULQeL5csBwJGHBOCGDQM+yIUDiHKDBjbMS
QZAcIsCemanBnioYQWC+qL9Hoa7Bc5z/QNLLJ8CheaPBi7YKQbPERr6KlK3BM43kQEjVv7+Vc6LB
MMsvQQSRMUEKcY7B7E0uQVp/N0GhkqHBkU5GQQgBMUEkO4/B4tpEQUKuNkETyqHB6yrvQAQjkL40
mKfBwI4jQRvzNEELvpfBlGbTQHjXzEBtAJnBPoDfQF3QGUE+5JvB5azqQLcQPD/LlYrB0jHnQIdK
AMDw9W3B5I+0QBVnvUAC3obBhh7LQE4soj/27nDBj4mKQEVhGkGc66jBkxnNQGuoIUHX47PBTSUn
QbSshsA0u27ByfwHQTWGh8AkU4TB/DTSQM4lcT/tm6bBpVsLQdfBNUH4OZfBgDvOQB9dfkB4PJLB
0165QPxprEDAY5LB6UrSQF5CCEE65qPB1gjWQLziGT5zfoDBkFMFQe3eOsDBLWXBUR+1QPTHEEHa
Fa3BYTQUQYQeWcDAxXfB4lndQIpz5j+WoJzBaBLHQO6ZTEDo6JzBiWxQQaSJM0E/v5jBttACQQh0
JEFX253BHx29QLUb7UDSRJ7ByJvzQH/OTb9hLHfB2sTPQOsOiT+4/JLBtbX6QNwmzEDT65jBSTvJ
QF4QHkFhE5TBcKgIQcEedT/B8IrBQlHBQGSOFMBnlmzBi6D4QBgzgcBHE1rBIRWaQIkMQkBvnZ7B
bvocQUNGWcDQb6rBJKwmQVrYn7/DSrPBgl33QDkvY8CSkJ/BOgwPQbTtPD8zXrHBva7HQOe0yL/x
u53BRAsoQVNtL0Ery4bBkF8lQfkLOkHP26jBmbRPQT5/LkEGF4jBCxdNQeqZOEH+UqnBI/6hQB5p
pkBQFoLBzG7UQHOOwUBXR4PBOtajQJpe3EBXBIfBDl28QJ6rUz8Ll2LBy5LoQKAi5j8lYmzB0p+0
QNO7/D9pW3jB4SVzQPxbDkERF6TBsWCRQGmEKEEv96PBbtxsQDsVH0H5v6/BHE7rQMzNGkHI1bbB
0Am5QKZdJkEdurrBSvzTQNTML0FS8a7BjL8vQTzPZsCyxmLB2hAhQU0IpMDyKGfBdRwyQcYxj8B6
0nvB7Qz1QA6QacDKg4fB7OgSQYsLkMBb44rBUd0BQRLipMCXjoDBFe3VQHzrxz+p0a3BNs2wQPjV
Gj8G9qXBhgsGQWKqM0EF547B4qkFQbRDRUESQ5rBydfwQDPGgkBO6JDBayzAQMk5WUBVo4vBNU2Z
QHKWqUDO8pXBUbXvQEUXAkHfnqfBzEe4QFqNur7aw4LBoR4PQRkUFcBTBFrBN0KtQGYxA0FHUrLB
wagaQcP1H8AmxH/B0BgAQScw+j/ma5zBaSjVQOYXckAXeaPBLFMLQV79H0HbQKTB8iCdQJYm7EBA
OJ7B2GEJQQFoE7+XGnfBYAyxQOt7TD8zdZLBtE3aQOQIgMAu+1rB0HWVQIzHI0CkGqXBA73pQBmD
JsCW4KzBu+7+QMYXur+CvLDBYIDDQJnxHcBQ/qbBYdjtQHp4L77av67B8UeyQGX/l7/tCqXBAGEv
QYhkK0H9vZHBzCQvQdI0REHMnqDBjO9FQXxeK0HuN5LBVbRFQZB2Q0FVo6DBNyjHQLYJBr2f/6jB
/8cjQa86OEFr9pjBEVDTQC7qyEBFqZXBbZThQJywGkGT3JrBt1DfQCrPCz9H/IzBzGXnQAp2J8Do
Y3zBGzjFQL1dvEAVI4LBAm/MQHT6Hj84xXLBIwWOQGSNFEGWK6jBGo/RQOuWF0FeSLPBDwMmQda/
lsCgDobBPSMDQcS7jsCKL5DB34e0QJIxrT920KbByZQLQb+AOEHUwZjBuLPDQFe3ekDU+47B3ue5
QFSzrUD2lY3Bo9HVQOUCBkFe36DBLVjRQPkNj76USoPBVmYGQXtzZsDliHnB8WS5QJXjCUGd7KrB
DwsSQWKsdMAcrYfBLxXHQHXP/T8YcJzBDCqzQJTwV0AA8JnBNq1QQT5KN0FMhpnBNb0DQePHJEEz
sp3B2HjAQMsV7kD3hZnBxD/xQHXMqL/3OYHBpFG/QE6Qij9BXJPBHoj3QBhEvkAhZ5jBpEnKQC7l
IUFyz5PBmK4CQffvRT8HsI7BGEvCQPLTPcCUHHnB1wn+QKXsmsAD1HDBIHSFQJSuUkCnjZnBKMz2
QI5KZcDwba7BUCUOQU06x79YOLXBU2SzQLEjVsCg+qPBgF7+QOfJND9AobHBdwiVQDsyi7+WgqDB
tRsnQY6vIUFu6YvBsLEmQWzZTUGxaabBbdlOQcKjIUHMo4zBh3BOQUbNTEEFc6bBcDSzQFQWqUDi
n3jB4LvnQBwmuECdxIDBI8q8QL9S3kAJLIHBxmPCQAuNQDwDAWXBND/rQFM3jT8lL2/B5ye0QHQy
sj+X9XXBQvp5QG/ACkGjOqLBNcOTQJKbJEEJ3aTB4gJ1QBTgFUHWdq/BaVHwQHDyD0EsNbXB7yK+
QKvqGEF9l7rBs2TXQCmmJ0Gx/a/BvYUwQeMjiMBaBIDBGAYhQfCxtsCDVIPBW7UuQZenmcBarI3B
DejpQN3DdMBkTpHBgckLQbmgkcDB0JfBfjT8QBKrrsDpeI3BMQ28QHivAED/nK3BipqRQLj5oT+S
+aXBxvAFQZJzOUFRb5DB0aYFQdBpRkGLQp3BIYbmQA0LcUB3i47BzQy0QLf7VkBAfYjBh4KXQJbo
skCq7Y7BJM/zQExE/UDzoaPBpjyyQCGvPr/rDIXBgPYRQXhUScAgcW7BmqCyQEl09ECgkK7BIlQX
QSL0NcC5rIrB/8LpQE5JB0D0hZ3B5xG9QOVvgkAzPqDBYJcMQcQnHkF6eqPBkqeiQEnl9EDFK5fB
fBAIQdLyib/YDYLBcwOhQGlCVz9Bq5HB/tLfQKj7mcDCN2/Bcf91QK2RPUARL6DBwsINQSaPEMBn
L67B4W8QQYU/hL+dmLPBwUz8QBUnGMAiGKbBZXUDQdFtkz0D9bDBXS7iQM/7or90eKPBtG0nQRA/
JEGkpJDBmwIyQebTO0GBE5/BeSI9QeqPHkEvYo/BtmRHQYt0NUEKYJ3BUx/nQLjfOb0Z+ajBG8oh
QUFWM0GIhJjBLIrVQF5300B2kpjBK1fcQN1YHUHU6ZvB61X8QA/FcT+JX4zBMi8GQZPk57+ZonLB
iu3HQNXMwkAqOoXB6qftQFGJuD/IyXHBdluyQJV7JkEYd7HBtzaRQKzKAUGVCrHByuY4QQmPfMA5
bH/Bp7UUQRcggMB20YjB7QzLQCA1lD92RabB8bEKQWXYOUHLHZrBQNLXQDF3hUA+75HB+JzCQCNN
skDMx5DB7VrJQISdC0G+CqPBp7bxQAlsrT6GbYHBerkZQVk2LcA6QG7BKJqjQD8OFEH2BarBtCgk
QZ23ScA/54HBhWjeQAgBAUCbGp3BjaHHQB56WUAf/5vB9KNMQVoqJ0FjpJXB08H+QMrpKEEy8Z/B
eqm6QGWm80AQR5zBfcUJQctuGb/xzHzBC1XaQDt/oj+iApPB2dj7QM1Y00AMx5rBWtTMQFBRIUFL
GpPBXsEQQTzBmD8l4Y7B/EvoQFnfCcCzE23Bes8TQWzGdcCIl2HBXF6aQIguTUA7IZvBjqgXQSzL
RsAIPLDBPXAcQWPTcL+nxLnBhl74QN8TVMDt5qHBfK0FQRqagT9xDrXBfV/KQLLHrr9SQJ3BqEsb
QcEcHUF7oYvBUCEuQXMWR0EZVqXBk4BBQbYZE0E0TInBgd5TQR4bPEHWV6LBYny6QLhKq0DaNX/B
rh/qQNtxx0A/foPBcvi2QFxx4UDGV4TB0gnmQC98fD8ROmLBeAkGQWK9/j/ilnDBSfXTQGbGCEAV
W3bBpoS/QEmaM0Hym6zBUCTLQLCJIEE39rbB0OCWQERhLEGNG7bBr5KGQDAg6UDw4avBMcFrQMvY
B0GBr7XBGSSqQG4C+EArirbB9ctDQVObVcD+nHXBXvk0QYr8m8Bk1nbBNbRAQU0phsBrWYfBa/kF
QU/EW8C5WorB2HYcQXYCiMDXd5DBALwQQbPVncCeiYTBLsTHQOyP5D9jc63B1E+rQFdSTD8YyKPB
CRADQQFOPEFoSJLB1AgKQUvMSEEEv57BTKz6QKqriUAVlZLBlmXQQDnoZEDQw4rBLjqgQH/+rkCC
eJLBlaHiQIjYBUHRcajBtf/SQAhoRr4pAYLBJZolQQzdBsA6fWXB2zeKQJsIGkGutaTB9lwoQfrR
D8BwcobBFzgAQUFKDEBX257BkBHPQK/if0AeIqPBJmUEQYhwJUFrVqfBCb2bQION8kANPZrBVeMY
Qehps77oGoDBIw69QB0Zej8HyZDBEtQEQb+7dMBWCl/Bo0WQQBEXL0B2O6HB

> <OMEGA_E>
RG2IP+mEmz9IA5k/gK6SPw==

> <OMEGA_NBR>
     72992

$$$$
54116
  -OEChem-04172616093D

 75 74  0     1  0  0  0  0  0999 V2000
    6.1359   -2.2068  -16.0348 C   0  0  0  0  0  0  0  0  0  0  0  0
    5.4797    6.5447  -18.8070 C   0  0  0  0  0  0  0  0  0  0  0  0
    6.6356    1.2514  -17.2232 C   0  0  0  0  0  0  0  0  0  0  0  0
    6.3885   10.0634  -22.9610 C   0  0  0  0  0  0  0  0  0  0  0  0
    4.6389    6.4010  -16.4531 C   0  0  0  0  0  0  0  0  0  0  0  0
    7.9587    0.3924  -15.1928 C   0  0  0  0  0  0  0  0  0  0  0  0
    2.7721   -3.3635  -18.6441 C   0  0  0  0  0  0  0  0  0  0  0  0
    4.9825   -3.8535  -19.7399 C   0  0  0  0  0  0  0  0  0  0  0  0
    6.7405    0.6037  -21.4742 C   0  0  0  0  0  0  0  0  0  0  0  0
    4.6368   -0.7484  -21.7104 C   0  0  0  0  0  0  0  0  0  0  0  0
    6.1677   -3.5653  -16.7451 C   0  0  0  0  0  0  0  0  0  0  0  0
    5.6004   10.5809  -21.7443 C   0  0  0  0  0  0  0  0  0  0  0  0
    4.7519   -3.9770  -17.2075 C   0  0  0  0  0  0  0  0  0  0  0  0
    4.7749    9.4705  -21.0618 C   0  0  0  0  0  0  0  0  0  0  0  0
    5.0722    4.2636  -17.7345 C   0  0  0  0  0  0  0  0  0  0  0  0
    4.5951    1.3093  -20.2634 C   0  0  0  0  0  0  0  0  0  0  0  0
    5.6730    8.3490  -20.5207 C   0  0  0  0  0  0  0  0  0  0  0  0
    4.5934    5.7355  -17.8375 C   0  0  2  0  0  0  0  0  0  0  0  0
    6.6957    0.2447  -16.0691 C   0  0  2  0  0  0  0  0  0  0  0  0
    4.3000   -3.2397  -18.4957 C   0  0  0  0  0  0  0  0  0  0  0  0
    5.4671    0.1185  -20.7463 C   0  0  0  0  0  0  0  0  0  0  0  0
    5.2780    2.1577  -19.1612 C   0  0  1  0  0  0  0  0  0  0  0  0
    4.4307    3.4147  -18.8502 C   0  0  1  0  0  0  0  0  0  0  0  0
    4.8898    7.4922  -19.6285 N   0  0  0  0  0  0  0  0  0  0  0  0
    6.6591   -1.0931  -16.6740 N   0  0  0  0  0  0  0  0  0  0  0  0
    5.4557    1.3270  -17.9571 N   0  0  0  0  0  0  0  0  0  0  0  0
    5.5748   -2.1057  -14.9489 O   0  0  0  0  0  0  0  0  0  0  0  0
    6.7022    6.4391  -18.7667 O   0  0  0  0  0  0  0  0  0  0  0  0
    7.6284    1.8970  -17.5443 O   0  0  0  0  0  0  0  0  0  0  0  0
    3.1117    3.0575  -18.4291 O   0  0  0  0  0  0  0  0  0  0  0  0
    6.9575   10.8913  -23.4091 H   0  0  0  0  0  0  0  0  0  0  0  0
    7.0828    9.2734  -22.6390 H   0  0  0  0  0  0  0  0  0  0  0  0
    5.6882    9.6554  -23.7047 H   0  0  0  0  0  0  0  0  0  0  0  0
    4.0102    5.8328  -15.7518 H   0  0  0  0  0  0  0  0  0  0  0  0
    5.6761    6.4147  -16.0870 H   0  0  0  0  0  0  0  0  0  0  0  0
    4.2634    7.4320  -16.5295 H   0  0  0  0  0  0  0  0  0  0  0  0
    7.9370   -0.3572  -14.3880 H   0  0  0  0  0  0  0  0  0  0  0  0
    8.8546    0.2393  -15.8123 H   0  0  0  0  0  0  0  0  0  0  0  0
    7.9844    1.4007  -14.7538 H   0  0  0  0  0  0  0  0  0  0  0  0
    2.2810   -2.9282  -17.7613 H   0  0  0  0  0  0  0  0  0  0  0  0
    2.4468   -2.8258  -19.5469 H   0  0  0  0  0  0  0  0  0  0  0  0
    2.4971   -4.4250  -18.7304 H   0  0  0  0  0  0  0  0  0  0  0  0
    6.0745   -3.7678  -19.6394 H   0  0  0  0  0  0  0  0  0  0  0  0
    4.7043   -4.9143  -19.8247 H   0  0  0  0  0  0  0  0  0  0  0  0
    4.6540   -3.3151  -20.6412 H   0  0  0  0  0  0  0  0  0  0  0  0
    7.3398    1.2242  -20.7917 H   0  0  0  0  0  0  0  0  0  0  0  0
    7.3332   -0.2658  -21.7948 H   0  0  0  0  0  0  0  0  0  0  0  0
    6.4554    1.1979  -22.3549 H   0  0  0  0  0  0  0  0  0  0  0  0
    3.7276   -1.0981  -21.1994 H   0  0  0  0  0  0  0  0  0  0  0  0
    4.3559   -0.1514  -22.5906 H   0  0  0  0  0  0  0  0  0  0  0  0
    5.2337   -1.6151  -22.0305 H   0  0  0  0  0  0  0  0  0  0  0  0
    6.8281   -3.4981  -17.6222 H   0  0  0  0  0  0  0  0  0  0  0  0
    6.5556   -4.3257  -16.0513 H   0  0  0  0  0  0  0  0  0  0  0  0
    6.3110   10.9929  -21.0126 H   0  0  0  0  0  0  0  0  0  0  0  0
    4.9163   11.3749  -22.0783 H   0  0  0  0  0  0  0  0  0  0  0  0
    4.7472   -5.0595  -17.4027 H   0  0  0  0  0  0  0  0  0  0  0  0
    4.0387   -3.7464  -16.4025 H   0  0  0  0  0  0  0  0  0  0  0  0
    4.2089    9.9088  -20.2266 H   0  0  0  0  0  0  0  0  0  0  0  0
    4.0748    9.0443  -21.7955 H   0  0  0  0  0  0  0  0  0  0  0  0
    6.1670    4.2299  -17.8363 H   0  0  0  0  0  0  0  0  0  0  0  0
    4.7823    3.8551  -16.7551 H   0  0  0  0  0  0  0  0  0  0  0  0
    4.3838    1.9599  -21.1249 H   0  0  0  0  0  0  0  0  0  0  0  0
    3.6506    0.9117  -19.8638 H   0  0  0  0  0  0  0  0  0  0  0  0
    6.0599    7.7510  -21.3589 H   0  0  0  0  0  0  0  0  0  0  0  0
    6.5143    8.7878  -19.9642 H   0  0  0  0  0  0  0  0  0  0  0  0
    3.5573    5.7469  -18.2069 H   0  0  0  0  0  0  0  0  0  0  0  0
    5.8097    0.3849  -15.4324 H   0  0  0  0  0  0  0  0  0  0  0  0
    4.5736   -2.1770  -18.4190 H   0  0  0  0  0  0  0  0  0  0  0  0
    5.7589   -0.4876  -19.8759 H   0  0  0  0  0  0  0  0  0  0  0  0
    6.2618    2.4826  -19.5308 H   0  0  0  0  0  0  0  0  0  0  0  0
    4.3770    4.0274  -19.7622 H   0  0  0  0  0  0  0  0  0  0  0  0
    3.8952    7.5941  -19.6114 H   0  0  0  0  0  0  0  0  0  0  0  0
    7.0311   -1.2068  -17.5953 H   0  0  0  0  0  0  0  0  0  0  0  0
    4.6770    0.7816  -17.6470 H   0  0  0  0  0  0  0  0  0  0  0  0
    2.6951    2.5325  -19.1024 H   0  0  0  0  0  0  0  0  0  0  0  0
  1 11  1  0  0  0  0
  1 25  1  0  0  0  0
  1 27  2  0  0  0  0
  2 18  1  0  0  0  0
  2 24  1  0  0  0  0
  2 28  2  0  0  0  0
  3 19  1  0  0  0  0
  3 26  1  0  0  0  0
  3 29  2  0  0  0  0
  4 12  1  0  0  0  0
  5 18  1  0  0  0  0
  6 19  1  0  0  0  0
  7 20  1  0  0  0  0
  8 20  1  0  0  0  0
  9 21  1  0  0  0  0
 10 21  1  0  0  0  0
 11 13  1  0  0  0  0
 12 14  1  0  0  0  0
 13 20  1  0  0  0  0
 14 17  1  0  0  0  0
 15 18  1  0  0  0  0
 15 23  1  0  0  0  0
 16 21  1  0  0  0  0
 16 22  1  0  0  0  0
 17 24  1  0  0  0  0
 19 25  1  0  0  0  0
 22 23  1  0  0  0  0
 22 26  1  0  0  0  0
 23 30  1  0  0  0  0
  4 31  1  0  0  0  0
  4 32  1  0  0  0  0
  4 33  1  0  0  0  0
  5 34  1  0  0  0  0
  5 35  1  0  0  0  0
  5 36  1  0  0  0  0
  6 37  1  0  0  0  0
  6 38  1  0  0  0  0
  6 39  1  0  0  0  0
  7 40  1  0  0  0  0
  7 41  1  0  0  0  0
  7 42  1  0  0  0  0
  8 43  1  0  0  0  0
  8 44  1  0  0  0  0
  8 45  1  0  0  0  0
  9 46  1  0  0  0  0
  9 47  1  0  0  0  0
  9 48  1  0  0  0  0
 10 49  1  0  0  0  0
 10 50  1  0  0  0  0
 10 51  1  0  0  0  0
 11 52  1  0  0  0  0
 11 53  1  0  0  0  0
 12 54  1  0  0  0  0
 12 55  1  0  0  0  0
 13 56  1  0  0  0  0
 13 57  1  0  0  0  0
 14 58  1  0  0  0  0
 14 59  1  0  0  0  0
 15 60  1  0  0  0  0
 15 61  1  0  0  0  0
 16 62  1  0  0  0  0
 16 63  1  0  0  0  0
 17 64  1  0  0  0  0
 17 65  1  0  0  0  0
 18 66  1  0  0  0  0
 19 67  1  0  0  0  0
 20 68  1  0  0  0  0
 21 69  1  0  0  0  0
 22 70  1  0  0  0  0
 23 71  1  0  0  0  0
 24 72  1  0  0  0  0
 25 73  1  0  0  0  0
 26 74  1  0  0  0  0
 30 75  1  0  0  0  0
M  END
> <OMEGA_C>
sVnEQHY7DcBdR4DBnlmvQPxt0UC4dJbBh1bUQOssoD8dyYnBSG7MQNsDIUEvsLfBM3KUQKvUzEAK
oIPBgq3+QA/syD6cFXPBgWoxQE1DV8AfJ5XBlnCfQBWfdsBR653BYLLXQIeJGj88y6vBkWCUQLeV
P7/lrq3Bgl3FQFMtZMDd9YXB0DazQGdLKUFE9K3BgA+YQOSGfsAMqYnBtMuYQCeHF0GgfqjBkE+i
QK9viEAo4I3BWguTQAaYpz98G6LBO4m1QKGVBUFnKqTB9fySQIyJt0Ars47BUEPWQBCVej6FjYDB
MZmJQM5WT8A395PBl/KuQM+o8j1e+KXBPuWoQIEXCkA0SpnBpciNQEGLWkA6zZbBPnmcQATA70A8
B53BrBfVQFbri79uZIXB0ZSuQCDaqT81qI/B1WSyQHvDBsCoLm/BInjWQOIMzkAsIpbBghv0QO/Q
8j+8WozB1iVHQJ+uQ0DYbpPBOqTeQOpCLkHBRbvBhabiQNhfFEG0HLXBbAW2QFt8GkE6o73BWlOA
QK+mukBSB3zB5aK1QFdFzUA9soDBdm2IQDLT7UB8PITBmvv9QNfitr5wNWbBmawNQaECdT4n/3zB
/3//QC9Lsz/BD2zB1/sRQJhnO8ArF47BKJgcQHnaNMAaYJzBGdAfQOiZjcDk15XBm2LCQJ0jccB3
HZ3BpomWQB1CncDomJ7Bru2UQOQqVMAeIaXBW9/qQGOynD9pVabBnKnqQCwViL7ZW67BaZLOQGhV
mT/P1rLBu5FuQCeOjL9JmKnBYmOLQMgFG757ubTBlXqnQGy7zr+FPrDBrH/aQFDhX8A0+ozBd8fR
QBpsisAeaYDBqfPJQBfjL0HNGajBkFKdQJr/NUFSoLDBXOmXQK7nocCiOIvBnzyBQKDFb8BFOIPB
ia+GQGWKHkER0KHBcWSCQJS1EEEiXa7ByFfFQCpbh0DGsI7BvAiZQC+6dkCBCobBE0iMQEbe+j+3
/6jBJKNpQJVkaT8K6Z7B8urBQPsH+EAV36rBR3XQQPKaDEHGtp/B+KpjQPjmt0Cip5HBQOm5QJ0V
xT4663bBnVqSQC9UC8AIWpPBSkm4QFep+b7wAZ/BlWDIQFDiHkATP5zBbRCMQGbggEALGZ7BQ0p5
QBsD80AT5JzBzP7gQJZ4mr8rw4zB4KmVQHcVSD/5LI3BUX0sQG4UIkDE0ZjBfubEQLaJ+79j84DB
nCSwQFcpzkB/LpXBCJLVQL3JrT9nl4rBOAOYQI75L0F4WrDBP6iUQOsPy0CJYoLBonL+QCaXPz9O
y3LBYBgKQeZItsCJoWvBXpIMQayZS8DaoWvBQurUQPQv9D4sS6vBSmyQQHCWVL988KzBtg3KQChH
VMD7a4bBcOSQQBJWGUF6CKzB/pvYQLtgjcCpL33B9Eu8QMawD0F47KjBbgSeQF6lhkAUFY3BzFeQ
QK5qpz/GLaLBZGC4QCg870ChPqfBRMWRQO6gtkDLh43BwCnYQEo76z6pyIDBJMsEQepkjcATcXjB
mEyrQFeihz0Uf6XBVLqmQOqFDEBnppnBYDSLQMQEXEDQw5bBViSfQODl5EDsrp3BVGDbQPumZL+m
A4XBAsOuQMgvsj+FBpDBer2uQPWS7b9ty3HBggfXQFXsykD+CJTBBrX1QKjY8z/EJY7Bk/NAQPzs
Q0CrBZTBfCByQPYKN0HEm7LBTCanQJLfOUF4I6rBRfSsQK5HL0EIa7fBYt59QCRKukC7v3nBp661
QM+TyEChzn7BjW6LQL/47EDN44LB9cr9QM+GZz2MHWXBRTYOQYeBHD90wXvBwIH8QI9h5D9h82zB
2aIEQS6L0sDMl3TBlnwbQV5LuMCYH2nBhfEBQVQmtcABC1zBM9wIQYz5EMBWpHTBEGoEQQS0ScBI
C1zBIfUdQRn+T8DfH2nBMjDoQNoBjz/xAKbBjk3nQDYn2b7eYK3BLubMQGPZgz+hobLBwn1lQDEB
kL8B1qjBR3iIQCZajb6NRrTBp9+iQLp53b/LBa/BSyOrQJz+ZsBB64nBMQ/iQAYyTsAS0IzBEP93
QAv9GUFp9aTBgc2BQChlD0H5PLLB13rHQG3eiMAV+m3B2wfQQMecrMCpCYLBcYbTQAXQEkFFWa/B
+X3HQOQsF0GVd6HBWRfBQBSzg0BJMI3Bcm2RQJ5ScUAupYXBp2OKQGmb9T8dWKnBXFZjQHZVdT8P
5J7BirWoQKgN4UBESK7BvZ7YQACV4UD0V6bBXJNhQMmUuUCtg5DBd3i6QKqPED82RHjBnHMNQfZ1
jsC14IPBYqKzQG6pAL8dQp7BrlzFQB/kIkBD9pzBCtaKQM+jg0DrtJ3BVK+AQNeX7kBeTJ3BF/fu
QFHahr9uNYvBHsOWQOtMVT/vMY3B4u0nQD95JUAZz5nB4q/YQFAU+b/ooojB6PiuQEwnz0AYFZfB
yBrXQA0+kz9Ee4rB7iTDQE7TLkFEsbLBTJWXQMNUzED694PB4+UCQXLFwj4+OnXB0As4QOy2XMBJ
yJTBANGiQAuQf8DYUp3BPpnUQOPIBz+isqzB6muRQDiaWr8UKa3BQF7NQAeDW8AoSofBEsOsQPje
GUEZw7XBKhCdQFp/a8APB4nBRQ+VQCDDD0GnMqzBrMqiQOvNhkDZ+Y3BS22SQHthnz96FKLBEEe0
QA6kBUHsNaTB5dqTQAwdtkDE4o7BlOzYQPvbuD6Ynn/BJqyMQEYXTsCmK5TBIqStQLj8Vj1UIabB
/ICpQBw5BkDoepnBb/2OQGHYV0AyE5fB5COcQDxT8EA6v5zBzmbKQHAOhb9z74DBsuqvQFmfpD+h
s4/BrlHuQDo2zL80U5DB9JPVQH2ZyEBy2ZfBMHT3QMh71z9gD47BeW9IQIVsQkDdCZTBh5PTQKxx
NUFwvLnBuD6rQBBhOkGqzK/BmaraQNavK0EsVqzBLmWEQBrVukBZDnzBBUu5QFG2zEDmb4HBYL2L
QF5g7UCcnoTBjosCQW2wRb5xNmbBj5AOQXw5kr1kH4DBDI8HQRS4tT+x1HHBaVgYQCuKOcA6RY7B
dPAfQGOaRcB7h5zB604qQNW7kMC4/JPBAJjFQFY3dcB855zB9uabQI0losDihZzBu7eWQNNtaMCl
EKXB/NboQD3Ulj+Ms6fBzkLnQKaurr6NWq/BAnPJQAYVjD9duLPBu0BrQMAmmb8agqjBAlaGQLXF
k76xLrTBziWkQByy3L/i0K/BDJXfQAiZgMAwKo3BpBfWQHX1b8AQUH7BQH6VQOwtHUGSJ7zBIurE
QLJ8DkEUsbjBdueWQKI/mMASNIjB/DSLQHRySMBp1oLBvICCQORBHEGzFqjBLHB+QCxSA0GzL6/B
AuTFQNx2hUBIjY7B0I+YQFRvc0CpN4bBhMeKQDg+8j/Z7qjBrT9pQAb0WT+HnZ7BFsvLQFae90BY
iajBCALFQF5NEkHUwJ/B4WJkQO+atkCrdJHBTQ3DQHWdXT/CcHTBtk6TQNtdCcBTHZXBvgy5QKs7
Br+GM5/BANHIQP3aGUADqpzBsWqOQBtXf0C5W57B6uB5QA0T9kDjs5vBw3O0QFW6rr9DdXfBpZyW
QLaCTj9EqIzB45UuQBA5IUBDhpnBnRzCQEIvCcCJb4fBvxqtQHyt0kCOiJXBdM7QQPLkgT+B5IrB
7bDLQAPSIkEfarnBUaSXQPyvx0BZhYLBtBzpQH1QSD9kMm/BIJYoQVz3McBOMJDBdeUaQTqamcBI
RYbB5E7aQI9RDT+oE6zBrd2UQO+sKr8IFq/BqDnYQE8hX8DDJInBmNzCQEJSI0HbYa3BLJcAQedl
UcC8CZDBdM6vQAPhDUEIvKnBLuOkQP+9hkAyHo7BOw2VQJa8sT/yc6PBUgGsQB4qDkEDk53BHROU
QFVItUA95Y3BNhTMQFA9Wj5ccoDBVsgVQX+fVcCkd4nBnz6vQAh5FD6e9KbBXE+qQJGQCkAFKJrB
XdaQQKzVXEAfnZfBGjeXQOWD9UDCq5nBDv/YQNZ0lr+Q7IHB3uSrQKxtpj8jo5DBowCgQIK1878Z
6IvB3zfUQDQP0ECnQZbB2eXzQKSJtz+Gw43Bh+9KQFjRSEB265TB21HZQFA+MkHq77vB9IDiQPLo
FUE7N7vB9pitQBvxH0Eiv73BOe+FQOAes0Bn1XnBFYK5QIn4yECdJIDBtgqKQOkl6ECXXYLBjxLl
QCTpQz4XfmDBSVkFQfXmOz+eaHTBOFHgQIck6j8ODGzBoiElQSXz3r/fgZLBHF03Qf/cM8AkaovB
+6AqQXA+WcCGa5fBeaINQaWepsC3fIHBbvocQQcOrcDUh43Bj7YpQU5dmsByhoHBZDXtQNHnkD8t
SKbB8STsQNQRtL5LYK7BTT3UQL4slT/kOLPBNV1sQHQpdb+2dKvB/9WOQPmGV73VOrbBpL2mQGvt
yL89YrHBkCvhQBSVesDbWoHBNlvCQMOLhcAlT43BZf7gQI86JkFdEqnBZxasQLhCMEFEmqvB8xoB
Qc6ogcDVPJbBPiH/QEccEsC125PBGvePQE6zC0EIU63BcuHEQBixAEHTOazBbenHQC8Kh0Ah/o7B
hDycQHg9bUCkmYbBzNSRQO0eBEBvWarBUUVqQEM9hz9W3KDBjzTMQBVLD0GEEJrBa/mYQNUlHEES
JJvBxWZkQLE1tUC9SZDBxJSqQOsehj4Zi3vBN/wTQYHLLsCaLoLBnJW1QN3s9b4w5J/BtPnKQCd8
HED6jJzBx6uRQHxQg0AwsZ7BSY9uQKP580ClAJrBNtb0QIE1ur8IWX3BZXyQQC3HYz9EIo7Bif8w
QMjDKkAZrZrB

> <OMEGA_E>
oD1CPloUKD94EQY/Ao09Pw==

> <OMEGA_NBR>
      4967

$$$$
54115
  -OEChem-04172616093D

 82 81  0     1  0  0  0  0  0999 V2000
    6.1639   -2.1229  -15.9975 C   0  0  0  0  0  0  0  0  0  0  0  0
    5.4786    6.4815  -18.7744 C   0  0  0  0  0  0  0  0  0  0  0  0
    6.6701    1.2473  -17.3629 C   0  0  0  0  0  0  0  0  0  0  0  0
    6.3788   10.0873  -22.8564 C   0  0  0  0  0  0  0  0  0  0  0  0
    4.7129    6.3908  -16.3902 C   0  0  0  0  0  0  0  0  0  0  0  0
    2.8431   -3.4389  -18.6162 C   0  0  0  0  0  0  0  0  0  0  0  0
    5.0943   -3.8902  -19.6399 C   0  0  0  0  0  0  0  0  0  0  0  0
    6.7147    0.5846  -21.4255 C   0  0  0  0  0  0  0  0  0  0  0  0
    4.6194   -0.7882  -21.6383 C   0  0  0  0  0  0  0  0  0  0  0  0
    9.4725   -0.7982  -11.7405 C   0  0  0  0  0  0  0  0  0  0  0  0
    6.2037   -3.5201  -16.6308 C   0  0  0  0  0  0  0  0  0  0  0  0
    5.7253   10.6007  -21.5603 C   0  0  0  0  0  0  0  0  0  0  0  0
    4.7987   -3.9555  -17.1088 C   0  0  0  0  0  0  0  0  0  0  0  0
    4.8597    9.5254  -20.8722 C   0  0  0  0  0  0  0  0  0  0  0  0
    8.0648    0.6204  -15.3571 C   0  0  0  0  0  0  0  0  0  0  0  0
    4.9951    4.2363  -17.6785 C   0  0  0  0  0  0  0  0  0  0  0  0
    4.5464    1.3140  -20.2609 C   0  0  0  0  0  0  0  0  0  0  0  0
    5.6958    8.3031  -20.4677 C   0  0  0  0  0  0  0  0  0  0  0  0
    8.0780   -0.1046  -14.0130 C   0  0  0  0  0  0  0  0  0  0  0  0
    4.5871    5.7247  -17.7695 C   0  0  2  0  0  0  0  0  0  0  0  0
    6.7758    0.3252  -16.1529 C   0  0  2  0  0  0  0  0  0  0  0  0
    4.3626   -3.2659  -18.4296 C   0  0  0  0  0  0  0  0  0  0  0  0
    5.4348    0.1146  -20.6975 C   0  0  0  0  0  0  0  0  0  0  0  0
    5.2185    2.1921  -19.1823 C   0  0  1  0  0  0  0  0  0  0  0  0
    4.3717    3.4398  -18.8476 C   0  0  1  0  0  0  0  0  0  0  0  0
    4.9055    7.4575  -19.5731 N   0  0  0  0  0  0  0  0  0  0  0  0
    6.7567   -1.0569  -16.6628 N   0  0  0  0  0  0  0  0  0  0  0  0
    5.4360    1.3793  -17.9779 N   0  0  0  0  0  0  0  0  0  0  0  0
    5.5518   -1.9541  -14.9480 O   0  0  0  0  0  0  0  0  0  0  0  0
    6.6941    6.3074  -18.7841 O   0  0  0  0  0  0  0  0  0  0  0  0
    7.6666    1.8064  -17.8120 O   0  0  0  0  0  0  0  0  0  0  0  0
    3.0397    3.0809  -18.4766 O   0  0  0  0  0  0  0  0  0  0  0  0
    9.5419    0.4510  -13.0735 S   0  0  0  0  0  0  0  0  0  0  0  0
    6.9826   10.8894  -23.3059 H   0  0  0  0  0  0  0  0  0  0  0  0
    7.0250    9.2276  -22.6254 H   0  0  0  0  0  0  0  0  0  0  0  0
    5.5956    9.7776  -23.5640 H   0  0  0  0  0  0  0  0  0  0  0  0
    4.0799    5.8574  -15.6658 H   0  0  0  0  0  0  0  0  0  0  0  0
    5.7611    6.3525  -16.0589 H   0  0  0  0  0  0  0  0  0  0  0  0
    4.3880    7.4395  -16.4585 H   0  0  0  0  0  0  0  0  0  0  0  0
    2.3151   -2.9969  -17.7584 H   0  0  0  0  0  0  0  0  0  0  0  0
    2.5275   -2.9335  -19.5409 H   0  0  0  0  0  0  0  0  0  0  0  0
    2.6016   -4.5100  -18.6829 H   0  0  0  0  0  0  0  0  0  0  0  0
    6.1805   -3.7706  -19.5140 H   0  0  0  0  0  0  0  0  0  0  0  0
    4.8485   -4.9604  -19.7047 H   0  0  0  0  0  0  0  0  0  0  0  0
    4.7744   -3.3840  -20.5626 H   0  0  0  0  0  0  0  0  0  0  0  0
    7.3015    1.2310  -20.7562 H   0  0  0  0  0  0  0  0  0  0  0  0
    7.3168   -0.2908  -21.7104 H   0  0  0  0  0  0  0  0  0  0  0  0
    6.4369    1.1481  -22.3284 H   0  0  0  0  0  0  0  0  0  0  0  0
    3.7071   -1.1253  -21.1243 H   0  0  0  0  0  0  0  0  0  0  0  0
    4.3439   -0.2231  -22.5410 H   0  0  0  0  0  0  0  0  0  0  0  0
    5.2239   -1.6620  -21.9229 H   0  0  0  0  0  0  0  0  0  0  0  0
   10.3032   -0.6328  -11.0386 H   0  0  0  0  0  0  0  0  0  0  0  0
    8.5162   -0.7092  -11.2042 H   0  0  0  0  0  0  0  0  0  0  0  0
    9.5561   -1.8046  -12.1766 H   0  0  0  0  0  0  0  0  0  0  0  0
    6.8874   -3.5046  -17.4923 H   0  0  0  0  0  0  0  0  0  0  0  0
    6.5692   -4.2419  -15.8855 H   0  0  0  0  0  0  0  0  0  0  0  0
    6.5181   10.9141  -20.8651 H   0  0  0  0  0  0  0  0  0  0  0  0
    5.0887   11.4641  -21.8037 H   0  0  0  0  0  0  0  0  0  0  0  0
    4.8050   -5.0439  -17.2680 H   0  0  0  0  0  0  0  0  0  0  0  0
    4.0689   -3.7037  -16.3252 H   0  0  0  0  0  0  0  0  0  0  0  0
    4.4011    9.9586  -19.9711 H   0  0  0  0  0  0  0  0  0  0  0  0
    4.0700    9.2039  -21.5672 H   0  0  0  0  0  0  0  0  0  0  0  0
    8.1330    1.7036  -15.1783 H   0  0  0  0  0  0  0  0  0  0  0  0
    8.9319    0.2909  -15.9482 H   0  0  0  0  0  0  0  0  0  0  0  0
    6.0911    4.1562  -17.7278 H   0  0  0  0  0  0  0  0  0  0  0  0
    4.6396    3.8197  -16.7245 H   0  0  0  0  0  0  0  0  0  0  0  0
    4.3385    1.9375  -21.1430 H   0  0  0  0  0  0  0  0  0  0  0  0
    3.6008    0.9229  -19.8573 H   0  0  0  0  0  0  0  0  0  0  0  0
    5.9718    7.7318  -21.3663 H   0  0  0  0  0  0  0  0  0  0  0  0
    6.6078    8.6356  -19.9502 H   0  0  0  0  0  0  0  0  0  0  0  0
    7.1630    0.1361  -13.4520 H   0  0  0  0  0  0  0  0  0  0  0  0
    8.1322   -1.1909  -14.1773 H   0  0  0  0  0  0  0  0  0  0  0  0
    3.5408    5.7872  -18.1032 H   0  0  0  0  0  0  0  0  0  0  0  0
    5.9082    0.4916  -15.4976 H   0  0  0  0  0  0  0  0  0  0  0  0
    4.6029   -2.1939  -18.3739 H   0  0  0  0  0  0  0  0  0  0  0  0
    5.7210   -0.4605  -19.8045 H   0  0  0  0  0  0  0  0  0  0  0  0
    6.1905    2.5302  -19.5707 H   0  0  0  0  0  0  0  0  0  0  0  0
    4.3496    4.0900  -19.7346 H   0  0  0  0  0  0  0  0  0  0  0  0
    3.9148    7.5889  -19.5367 H   0  0  0  0  0  0  0  0  0  0  0  0
    7.1975   -1.2390  -17.5417 H   0  0  0  0  0  0  0  0  0  0  0  0
    4.6541    0.8973  -17.5825 H   0  0  0  0  0  0  0  0  0  0  0  0
    2.6357    2.5893  -19.1819 H   0  0  0  0  0  0  0  0  0  0  0  0
  1 11  1  0  0  0  0
  1 27  1  0  0  0  0
  1 29  2  0  0  0  0
  2 20  1  0  0  0  0
  2 26  1  0  0  0  0
  2 30  2  0  0  0  0
  3 21  1  0  0  0  0
  3 28  1  0  0  0  0
  3 31  2  0  0  0  0
  4 12  1  0  0  0  0
  5 20  1  0  0  0  0
  6 22  1  0  0  0  0
  7 22  1  0  0  0  0
  8 23  1  0  0  0  0
  9 23  1  0  0  0  0
 10 33  1  0  0  0  0
 11 13  1  0  0  0  0
 12 14  1  0  0  0  0
 13 22  1  0  0  0  0
 14 18  1  0  0  0  0
 15 19  1  0  0  0  0
 15 21  1  0  0  0  0
 16 20  1  0  0  0  0
 16 25  1  0  0  0  0
 17 23  1  0  0  0  0
 17 24  1  0  0  0  0
 18 26  1  0  0  0  0
 19 33  1  0  0  0  0
 21 27  1  0  0  0  0
 24 25  1  0  0  0  0
 24 28  1  0  0  0  0
 25 32  1  0  0  0  0
  4 34  1  0  0  0  0
  4 35  1  0  0  0  0
  4 36  1  0  0  0  0
  5 37  1  0  0  0  0
  5 38  1  0  0  0  0
  5 39  1  0  0  0  0
  6 40  1  0  0  0  0
  6 41  1  0  0  0  0
  6 42  1  0  0  0  0
  7 43  1  0  0  0  0
  7 44  1  0  0  0  0
  7 45  1  0  0  0  0
  8 46  1  0  0  0  0
  8 47  1  0  0  0  0
  8 48  1  0  0  0  0
  9 49  1  0  0  0  0
  9 50  1  0  0  0  0
  9 51  1  0  0  0  0
 10 52  1  0  0  0  0
 10 53  1  0  0  0  0
 10 54  1  0  0  0  0
 11 55  1  0  0  0  0
 11 56  1  0  0  0  0
 12 57  1  0  0  0  0
 12 58  1  0  0  0  0
 13 59  1  0  0  0  0
 13 60  1  0  0  0  0
 14 61  1  0  0  0  0
 14 62  1  0  0  0  0
 15 63  1  0  0  0  0
 15 64  1  0  0  0  0
 16 65  1  0  0  0  0
 16 66  1  0  0  0  0
 17 67  1  0  0  0  0
 17 68  1  0  0  0  0
 18 69  1  0  0  0  0
 18 70  1  0  0  0  0
 19 71  1  0  0  0  0
 19 72  1  0  0  0  0
 20 73  1  0  0  0  0
 21 74  1  0  0  0  0
 22 75  1  0  0  0  0
 23 76  1  0  0  0  0
 24 77  1  0  0  0  0
 25 78  1  0  0  0  0
 26 79  1  0  0  0  0
 27 80  1  0  0  0  0
 28 81  1  0  0  0  0
 32 82  1  0  0  0  0
M  END
> <OMEGA_C>
Wz7FQJLdB8D29X/Bw1CvQNJoz0D+MZbBLXHVQOunnz8l54rB9B7MQKFlIUHm2bbBH9CWQDGBzEAS
H4PB0/U1QKQWXMD27ZTBtwSjQNn4eMCQHp3BNt/WQK6pFT9iZ6vBvtGTQBDHSb8yG63BdI8XQepX
TL8P2TvBi4TGQE9JYcDQC4XBqTW3QKOcKUGJe6zB646ZQIMmfcDe3ojBxIKbQNxnGEFU+qbBSwkB
QZDQHj9+tnXBHNifQJyPh0CIbY3B4HuRQNwwqD9DFqLBVES2QJvZBEHsvaPBfz8BQRs81r1xNWDB
U8mSQPcwt0D/J47BcNPYQGJ6pj4lOYHB05qLQCMEUcDEb5PBQuqtQJbH6j1hlKXBSf6mQCdLDEBB
dZnB5eSLQGkmXEDVx5bBsPmcQM+j7kCplZzBwzbYQLJJh79qTYXBwvOtQICLsD+10o/BlaixQI0f
+r8SK2/BrjXWQDDWyUDoRZbB6lT1QHk35z8Of47B/opCQEMuRUAY0JPBr6sYQb3n5j7yLFHBKXHf
QBQ7LkF/crrB5MzgQGmkE0HhALXBHA+zQDBxHEEZg7zBUI6CQNFvu0DrpnrBS1u4QLFHy0CoeIDB
oWqMQCkQ7kAJq4PBZisUQHXMP8AnEY7B08IhQDC/O8CyU5zBJIEmQKlRkMCidpXB5cbFQE1RccCq
HJzBxiabQKe7nsAzo53BnseYQCyTWMBDgKTBN6bpQMmPnT+0DKbBSSPqQHjklL7Orq3B6/rNQDj0
kj+coLLBMUFtQIsJkL+V/qjBiAGLQJd7ZL7nU7TB5imnQMm81L8ZYq/Bz9kkQQb9Ib8knjDBjUII
QaCQNb9dRDPBtuUYQZj95r9R00LBwmXcQOtLYMBB8IvBnjbSQMC9h8AQK37BCJTQQE+gLkHF66bB
P9aiQBZtN0H+ba7BjMKZQIBnocDLJIrBpDSCQIgJbcAImoLBztWMQGdWH0HhxJ/BUj2CQAhDE0Gd
iazB3yACQcUP2j932nLBN+kOQbDzlD7uK3/BUurCQL7/hECR0o3BzXeUQHd1dEDPy4XBYdWKQPL+
9z/JJKnBE3NmQCFEbD+p257Bvxi/QBhr90A/7qrBB3PTQForCkEPmp/BVTflQGZqCz48O1fBmh0C
QexvmL9l1mLBzJtiQI0wuUBP05DBrA+9QAS4+z4E9nfB5EqTQIVoDMCr/ZLBNxK3QHHH676kb57B
+RjGQLfuIUDGkJzBLDCLQArhgkCA4J3BSYx6QAPY8kBBS5zB11HmQFCXnr9/VYzBvu6UQIqyZT/d
qIzB5a4oQL+2JUCfdJnB

> <OMEGA_E>
AA6sPA==

> <OMEGA_NBR>
      8476

$$$$
54117
  -OEChem-04172616093D

 78 77  0     1  0  0  0  0  0999 V2000
    6.0208   -2.1698  -15.9594 C   0  0  0  0  0  0  0  0  0  0  0  0
    5.5304    6.4101  -18.7810 C   0  0  0  0  0  0  0  0  0  0  0  0
    6.6311    1.2995  -17.1718 C   0  0  0  0  0  0  0  0  0  0  0  0
    5.7096   11.0340  -22.9331 C   0  0  0  0  0  0  0  0  0  0  0  0
    4.7265    6.3657  -16.4278 C   0  0  0  0  0  0  0  0  0  0  0  0
    8.0625    0.3606  -15.2421 C   0  0  0  0  0  0  0  0  0  0  0  0
    4.9954   -3.9915  -19.5973 C   0  0  0  0  0  0  0  0  0  0  0  0
    2.7371   -3.3851  -18.6828 C   0  0  0  0  0  0  0  0  0  0  0  0
    6.6934    0.5028  -21.5186 C   0  0  0  0  0  0  0  0  0  0  0  0
    4.5471   -0.7995  -21.6854 C   0  0  0  0  0  0  0  0  0  0  0  0
    7.4969   -1.4438  -17.8294 C   0  0  0  0  0  0  0  0  0  0  0  0
    5.9757   -3.6217  -16.5148 C   0  0  0  0  0  0  0  0  0  0  0  0
    6.2298    9.7712  -22.2602 C   0  0  0  0  0  0  0  0  0  0  0  0
    4.5784   -3.9748  -17.0727 C   0  0  0  0  0  0  0  0  0  0  0  0
    5.2207    9.2499  -21.2250 C   0  0  0  0  0  0  0  0  0  0  0  0
    5.0244    4.1890  -17.6738 C   0  0  0  0  0  0  0  0  0  0  0  0
    4.5968    1.2820  -20.2732 C   0  0  0  0  0  0  0  0  0  0  0  0
    5.8711    8.0403  -20.5780 C   0  0  0  0  0  0  0  0  0  0  0  0
    4.6135    5.6764  -17.7941 C   0  0  2  0  0  0  0  0  0  0  0  0
    6.7499    0.2420  -16.0543 C   0  0  2  0  0  0  0  0  0  0  0  0
    4.2538   -3.2960  -18.4314 C   0  0  0  0  0  0  0  0  0  0  0  0
    5.4234    0.0638  -20.7581 C   0  0  0  0  0  0  0  0  0  0  0  0
    5.3009    2.1197  -19.1699 C   0  0  1  0  0  0  0  0  0  0  0  0
    4.4584    3.3831  -18.8615 C   0  0  1  0  0  0  0  0  0  0  0  0
    5.0140    7.4125  -19.5832 N   0  0  0  0  0  0  0  0  0  0  0  0
    5.4823    1.2915  -17.9620 N   0  0  0  0  0  0  0  0  0  0  0  0
    6.6523   -1.1205  -16.6557 N   0  0  0  0  0  0  0  0  0  0  0  0
    5.4449   -1.9517  -14.8982 O   0  0  0  0  0  0  0  0  0  0  0  0
    6.7360    6.1743  -18.7954 O   0  0  0  0  0  0  0  0  0  0  0  0
    7.5877    2.0162  -17.4514 O   0  0  0  0  0  0  0  0  0  0  0  0
    3.1109    3.0361  -18.5379 O   0  0  0  0  0  0  0  0  0  0  0  0
    6.4467   11.3885  -23.6686 H   0  0  0  0  0  0  0  0  0  0  0  0
    4.7602   10.8131  -23.4429 H   0  0  0  0  0  0  0  0  0  0  0  0
    5.5456   11.8128  -22.1738 H   0  0  0  0  0  0  0  0  0  0  0  0
    4.0754    5.8543  -15.7035 H   0  0  0  0  0  0  0  0  0  0  0  0
    5.7689    6.3204  -16.0794 H   0  0  0  0  0  0  0  0  0  0  0  0
    4.4163    7.4170  -16.5209 H   0  0  0  0  0  0  0  0  0  0  0  0
    8.0852   -0.4178  -14.4653 H   0  0  0  0  0  0  0  0  0  0  0  0
    8.9230    0.2319  -15.9152 H   0  0  0  0  0  0  0  0  0  0  0  0
    8.1124    1.3523  -14.7688 H   0  0  0  0  0  0  0  0  0  0  0  0
    6.0808   -3.9340  -19.4283 H   0  0  0  0  0  0  0  0  0  0  0  0
    4.6880   -5.0463  -19.6499 H   0  0  0  0  0  0  0  0  0  0  0  0
    4.7445   -3.4889  -20.5430 H   0  0  0  0  0  0  0  0  0  0  0  0
    2.1989   -2.8932  -17.8591 H   0  0  0  0  0  0  0  0  0  0  0  0
    2.4927   -2.8842  -19.6311 H   0  0  0  0  0  0  0  0  0  0  0  0
    2.4362   -4.4416  -18.7380 H   0  0  0  0  0  0  0  0  0  0  0  0
    7.3215    1.1196  -20.8591 H   0  0  0  0  0  0  0  0  0  0  0  0
    7.2574   -0.3872  -21.8347 H   0  0  0  0  0  0  0  0  0  0  0  0
    6.4063    1.0886  -22.4043 H   0  0  0  0  0  0  0  0  0  0  0  0
    3.6412   -1.1139  -21.1465 H   0  0  0  0  0  0  0  0  0  0  0  0
    4.2617   -0.2126  -22.5709 H   0  0  0  0  0  0  0  0  0  0  0  0
    5.1129   -1.6884  -22.0013 H   0  0  0  0  0  0  0  0  0  0  0  0
    7.9101   -0.5157  -18.2512 H   0  0  0  0  0  0  0  0  0  0  0  0
    8.3204   -2.1032  -17.5178 H   0  0  0  0  0  0  0  0  0  0  0  0
    6.8874   -1.9528  -18.5905 H   0  0  0  0  0  0  0  0  0  0  0  0
    6.7171   -3.7183  -17.3217 H   0  0  0  0  0  0  0  0  0  0  0  0
    6.2235   -4.3220  -15.7035 H   0  0  0  0  0  0  0  0  0  0  0  0
    6.3953    8.9973  -23.0242 H   0  0  0  0  0  0  0  0  0  0  0  0
    7.1806    9.9971  -21.7552 H   0  0  0  0  0  0  0  0  0  0  0  0
    4.5251   -5.0650  -17.2086 H   0  0  0  0  0  0  0  0  0  0  0  0
    3.8225   -3.6593  -16.3385 H   0  0  0  0  0  0  0  0  0  0  0  0
    5.0145   10.0226  -20.4697 H   0  0  0  0  0  0  0  0  0  0  0  0
    4.2816    8.9603  -21.7191 H   0  0  0  0  0  0  0  0  0  0  0  0
    6.1219    4.1140  -17.6736 H   0  0  0  0  0  0  0  0  0  0  0  0
    4.6286    3.7775  -16.7336 H   0  0  0  0  0  0  0  0  0  0  0  0
    4.4052    1.9366  -21.1362 H   0  0  0  0  0  0  0  0  0  0  0  0
    3.6406    0.9146  -19.8722 H   0  0  0  0  0  0  0  0  0  0  0  0
    6.1019    7.3028  -21.3608 H   0  0  0  0  0  0  0  0  0  0  0  0
    6.8033    8.3601  -20.0893 H   0  0  0  0  0  0  0  0  0  0  0  0
    3.5738    5.7367  -18.1482 H   0  0  0  0  0  0  0  0  0  0  0  0
    5.9075    0.3825  -15.3611 H   0  0  0  0  0  0  0  0  0  0  0  0
    4.5550   -2.2389  -18.3887 H   0  0  0  0  0  0  0  0  0  0  0  0
    5.7194   -0.5358  -19.8847 H   0  0  0  0  0  0  0  0  0  0  0  0
    6.2836    2.4383  -19.5477 H   0  0  0  0  0  0  0  0  0  0  0  0
    4.4716    4.0287  -19.7520 H   0  0  0  0  0  0  0  0  0  0  0  0
    4.0624    7.7024  -19.4806 H   0  0  0  0  0  0  0  0  0  0  0  0
    4.7335    0.6859  -17.6930 H   0  0  0  0  0  0  0  0  0  0  0  0
    2.7318    2.5370  -19.2518 H   0  0  0  0  0  0  0  0  0  0  0  0
  1 12  1  0  0  0  0
  1 27  1  0  0  0  0
  1 28  2  0  0  0  0
  2 19  1  0  0  0  0
  2 25  1  0  0  0  0
  2 29  2  0  0  0  0
  3 20  1  0  0  0  0
  3 26  1  0  0  0  0
  3 30  2  0  0  0  0
  4 13  1  0  0  0  0
  5 19  1  0  0  0  0
  6 20  1  0  0  0  0
  7 21  1  0  0  0  0
  8 21  1  0  0  0  0
  9 22  1  0  0  0  0
 10 22  1  0  0  0  0
 11 27  1  0  0  0  0
 12 14  1  0  0  0  0
 13 15  1  0  0  0  0
 14 21  1  0  0  0  0
 15 18  1  0  0  0  0
 16 19  1  0  0  0  0
 16 24  1  0  0  0  0
 17 22  1  0  0  0  0
 17 23  1  0  0  0  0
 18 25  1  0  0  0  0
 20 27  1  0  0  0  0
 23 24  1  0  0  0  0
 23 26  1  0  0  0  0
 24 31  1  0  0  0  0
  4 32  1  0  0  0  0
  4 33  1  0  0  0  0
  4 34  1  0  0  0  0
  5 35  1  0  0  0  0
  5 36  1  0  0  0  0
  5 37  1  0  0  0  0
  6 38  1  0  0  0  0
  6 39  1  0  0  0  0
  6 40  1  0  0  0  0
  7 41  1  0  0  0  0
  7 42  1  0  0  0  0
  7 43  1  0  0  0  0
  8 44  1  0  0  0  0
  8 45  1  0  0  0  0
  8 46  1  0  0  0  0
  9 47  1  0  0  0  0
  9 48  1  0  0  0  0
  9 49  1  0  0  0  0
 10 50  1  0  0  0  0
 10 51  1  0  0  0  0
 10 52  1  0  0  0  0
 11 53  1  0  0  0  0
 11 54  1  0  0  0  0
 11 55  1  0  0  0  0
 12 56  1  0  0  0  0
 12 57  1  0  0  0  0
 13 58  1  0  0  0  0
 13 59  1  0  0  0  0
 14 60  1  0  0  0  0
 14 61  1  0  0  0  0
 15 62  1  0  0  0  0
 15 63  1  0  0  0  0
 16 64  1  0  0  0  0
 16 65  1  0  0  0  0
 17 66  1  0  0  0  0
 17 67  1  0  0  0  0
 18 68  1  0  0  0  0
 18 69  1  0  0  0  0
 19 70  1  0  0  0  0
 20 71  1  0  0  0  0
 21 72  1  0  0  0  0
 22 73  1  0  0  0  0
 23 74  1  0  0  0  0
 24 75  1  0  0  0  0
 25 76  1  0  0  0  0
 26 77  1  0  0  0  0
 31 78  1  0  0  0  0
M  END
> <OMEGA_C>
yKrAQLPdCsC7WX/B9viwQFsfzUBkP5bBWjLUQOtVpj/kX4nB+rS2QBGLMEHqdrfBFj+XQDS0y0AR
bIPBFAABQT6guD6v33PBPNqfQH90f8A3x5zBCS0vQMikWMBIdpXBoDDWQBu4AD8cJqzBNIKRQNio
TL+4e63BxubvQE/NuL+Foo7BUDm/QAfKZ8BGHoTB0lrHQN9WHEHoFLLBnoKSQJNifsDPlIjB/g+n
QLn/E0HQzKnBPsigQI8MhkDZY43BxBiTQM0YpD9zL6LBTuC7QAClAEG4n6TBqqGTQPWktUBfWo7B
/v7XQNHOdz5Lb4DBAB+IQKzxUsCIc5PBdIytQKK7gj2uEKbBlKCpQGWpB0DfW5nB7KqOQPmDWEBo
5JbBpnKgQIoz7UB0qpzBaG+vQH1RpT8yso/BRN/UQHNsj7/cPoXBfDyuQHPQ+b/8Xm7BPI3XQJ2T
xUAIXZbBnM7yQOEJAUBsnIvBixlHQPBPQkC0TZTBq0vOQB83NkEyWb3BllOYQG4CLUH1irvBNnWx
QG0BPUEJZLHBxGmCQFRWu0COQXvBeZq4QBFBykCtooDBgVKNQCdY7UC1KoTBE10BQV3w1b6vcWfB
b8QOQTd2bT7CpH7BN8wBQcMYrT8TTWzBC5bCQNnGe8AwbZvB6AOWQKl7ocD2Mp3BN9OXQF9JX8AZ
WKTBL7sMQBQqOcBu347BnIgfQOqVOMB9DJ3B/ekbQO4hjsBa55XBHUrqQHZQjz9g36bBnjzoQOU5
xr5qra7BIwDNQGFWiz/3O7PBxQlpQMCVjr8VLKnBEmCIQOC5Wb5LkbTBjZyjQBYc2L++ArDBxB/9
QMsDBL9iApLBNSAFQV2bBsCGJIzBumXcQOv0+b9tuZTBE/LWQEv5bcDckorB2ybHQM5NisBzQXvB
66XMQPH0D0GWMbjBi8flQPDzH0GqCq7BQ82QQL0UosAnq4nBl6N0QHUyasA0tYLBi3agQJFcIEH+
waPBsQKJQDFdD0G5wK3BcObDQKSlg0CCY43Btx2UQNnBcUBd3oXBY/eMQJnj9z/eFqnBj/9oQG4j
aj9Z+p7BkkLDQFOw6UD54qrBdrTZQMbCBUHStqDBvLhkQD+Tt0CBL5HB1Qm9QHXXwz4Yx3XBQsKR
QB1KD8AAHJPB8gS3QBMrCb/0E5/B4xLJQIwNHEC8YZzBDRePQMPqgEAwBJ7Bif+BQAR69kBC2JvB
x3iXQAeVLz9Fi43BxdUuQKteIkDFA5rBf3vbQLOIBcDFL4DBifGsQKqC0UCBOZXBmr3OQFo6hz+f
oYrB3RS9QGaWNkFMQ6rBg4OaQLYGzUCixIHBN2PFQJMPsD+y6W3Blq9GQD9HZ8A7eZDBvwWeQJCy
aMBXRZ7BBHrZQOtPJj9YdKvBy5OUQHdUHb8k9q3Bn90GQZ7N476iYG/Buly0QPx9GsCiWofBqjaj
QInWIkEHAqfBv7+xQBYTesCVjorBlve/QJX8DkHTr6fBt32gQG/XiECOzYzB5laUQDjfvj/P26LB
8AulQItb9UDn16bBM12TQPmkuECixozB8hzHQMoDrT7jCIDBZ7mPQFAzhsBdWZPB2uSuQOFQeT7z
HqbB5RqpQH5uEkCBlJnBkS2PQH5XZEAJ+pbBRL+WQJbv7EDO55vBUDWqQNWCtj+FJ5DBS4LmQGDE
P7/50HvBVATwQI5gQMCJZXjBmP7SQAPCyUBnwpbBhm/yQKYEuz+5Jo3Bwy9GQHqEUEA4MZXBvaCo
QF/hREHCyqnBLILYQEF2OEHD06TBjbbIQCydNEF9grLBAzmIQOFFu0AAZnfBAsa8QPnuy0BXiH/B
UK+PQCSD7kAC8IHBS+S/QAn2XD82lV7BIOfjQKkI9j/ZO23BzSKrQI9WBUAU8XDBoQ0yQGRQgMDz
rYjBrshKQJcUIcAhDJDBhwkYQI2wecBEppbB/pq9QLx9gcBRWKDBx6SGQI4be8AXb6TBWgSgQJh/
IsD11J3B+U/sQMmZoT/B3aXB4a3rQNQogr4HkK3Bn83SQEV2nT+dvbLBsGZsQO+1Z7/bK6rBF++N
QB47Cb0hP7XBWs+mQFJKwr+LEbDBenEIQa7oJD+1eW3BH8cFQSrLar/lhF/BXe0UQWgkVr+o6HfB
1QyXQGGCCcDr94LBsX+2QHmh578HsI7BgpWXQAfIJEFUwp7B4smHQPHuIEEOcazBq0DRQDIbh8C5
kY3B95KpQGPWj8BIZ4PBpgvRQIMJD0GxYa/B9kjXQK1XD0HVGKHBQ5vDQJx2hkD5qozBkDmTQFs6
ckCyqYXBoWORQLHQCUDD2KnBjapoQGGLlD9cU6DBbMGIQKrQ+EDvAazB6Vq4QPYQ2kAVmanBAUxi
QDLPukA2xY7BvTenQCNa/b3bgIDBB3SMQPQdqcA3G5TBwta1QIzosr4z6p7B1snJQIPOJEB855vB
HjmSQL9hiEDVwp3BA594QFlW+0BzMZnBtUKOQDpdiT+Yd43BMXQvQEanNEAFUpvB

> <OMEGA_E>
OKPGPlx/KD8=

> <OMEGA_NBR>
     15088

$$$$
29109
  -OEChem-04172616093D

 93 93  0     1  0  0  0  0  0999 V2000
    5.4589    6.7027  -19.0780 C   0  0  0  0  0  0  0  0  0  0  0  0
    4.3754   -3.7460  -19.0194 C   0  0  0  0  0  0  0  0  0  0  0  0
    6.8365   -1.7602  -17.0688 C   0  0  0  0  0  0  0  0  0  0  0  0
    6.8520    1.3275  -17.3290 C   0  0  0  0  0  0  0  0  0  0  0  0
    4.8976    5.6032  -15.9470 C   0  0  0  0  0  0  0  0  0  0  0  0
    4.1450    6.4395  -16.9691 C   0  0  0  0  0  0  0  0  0  0  0  0
    4.8221    4.1875  -16.5171 C   0  0  0  0  0  0  0  0  0  0  0  0
    4.4840    5.7994  -18.3282 C   0  0  2  0  0  0  0  0  0  0  0  0
    5.0699    4.3923  -18.0256 C   0  0  2  0  0  0  0  0  0  0  0  0
    3.4267   -4.4612  -18.0358 C   0  0  0  0  0  0  0  0  0  0  0  0
    6.4937   10.2663  -22.9244 C   0  0  0  0  0  0  0  0  0  0  0  0
    8.2657   -3.8272  -14.8175 C   0  0  0  0  0  0  0  0  0  0  0  0
    6.5979   -5.6793  -14.5318 C   0  0  0  0  0  0  0  0  0  0  0  0
    6.9429    0.5697  -21.3787 C   0  0  0  0  0  0  0  0  0  0  0  0
    4.8860   -0.8403  -21.7006 C   0  0  0  0  0  0  0  0  0  0  0  0
   10.7683   -1.0349  -13.7564 C   0  0  0  0  0  0  0  0  0  0  0  0
    5.5074   10.8097  -21.8740 C   0  0  0  0  0  0  0  0  0  0  0  0
    4.7538    9.6777  -21.1654 C   0  0  0  0  0  0  0  0  0  0  0  0
    8.3329    0.6179  -15.3422 C   0  0  0  0  0  0  0  0  0  0  0  0
    6.6111   -4.3106  -16.6786 C   0  0  0  0  0  0  0  0  0  0  0  0
    4.7258    1.1933  -20.2585 C   0  0  0  0  0  0  0  0  0  0  0  0
    5.7038    8.8257  -20.3247 C   0  0  0  0  0  0  0  0  0  0  0  0
    8.2387    0.1054  -13.8952 C   0  0  0  0  0  0  0  0  0  0  0  0
    5.9529   -3.0117  -17.2037 C   0  0  2  0  0  0  0  0  0  0  0  0
    6.9376    0.5685  -15.9939 C   0  0  2  0  0  0  0  0  0  0  0  0
    4.4390    3.3403  -18.9802 C   0  0  1  0  0  0  0  0  0  0  0  0
    6.8290   -4.2793  -15.1411 C   0  0  0  0  0  0  0  0  0  0  0  0
    5.6567    0.0422  -20.7035 C   0  0  0  0  0  0  0  0  0  0  0  0
    5.3680    2.1286  -19.2115 C   0  0  1  0  0  0  0  0  0  0  0  0
    4.9068    7.7818  -19.7232 N   0  0  0  0  0  0  0  0  0  0  0  0
    5.5732   -3.1715  -18.6097 N   0  0  0  0  0  0  0  0  0  0  0  0
    6.4409   -0.8161  -16.1234 N   0  0  0  0  0  0  0  0  0  0  0  0
    5.6200    1.3754  -17.9724 N   0  0  0  0  0  0  0  0  0  0  0  0
    6.6763    6.5996  -18.9526 O   0  0  0  0  0  0  0  0  0  0  0  0
    4.1309   -3.7888  -20.2174 O   0  0  0  0  0  0  0  0  0  0  0  0
    7.8060   -1.5888  -17.8030 O   0  0  0  0  0  0  0  0  0  0  0  0
    7.8048    1.9830  -17.7388 O   0  0  0  0  0  0  0  0  0  0  0  0
    3.1506    2.9256  -18.5214 O   0  0  0  0  0  0  0  0  0  0  0  0
    9.8287    0.3637  -13.0312 S   0  0  0  0  0  0  0  0  0  0  0  0
    5.9423    5.9362  -15.8593 H   0  0  0  0  0  0  0  0  0  0  0  0
    4.4119    5.6563  -14.9615 H   0  0  0  0  0  0  0  0  0  0  0  0
    3.0620    6.3989  -16.7811 H   0  0  0  0  0  0  0  0  0  0  0  0
    4.4835    7.4857  -16.9385 H   0  0  0  0  0  0  0  0  0  0  0  0
    5.5971    3.5439  -16.0753 H   0  0  0  0  0  0  0  0  0  0  0  0
    3.8315    3.7440  -16.3382 H   0  0  0  0  0  0  0  0  0  0  0  0
    3.5617    5.6866  -18.9169 H   0  0  0  0  0  0  0  0  0  0  0  0
    6.1550    4.4197  -18.2038 H   0  0  0  0  0  0  0  0  0  0  0  0
    2.6099   -4.9399  -18.5959 H   0  0  0  0  0  0  0  0  0  0  0  0
    3.9862   -5.2265  -17.4779 H   0  0  0  0  0  0  0  0  0  0  0  0
    3.0074   -3.7274  -17.3318 H   0  0  0  0  0  0  0  0  0  0  0  0
    7.0132   11.1060  -23.4093 H   0  0  0  0  0  0  0  0  0  0  0  0
    7.2306    9.6143  -22.4326 H   0  0  0  0  0  0  0  0  0  0  0  0
    5.9420    9.6901  -23.6818 H   0  0  0  0  0  0  0  0  0  0  0  0
    8.4424   -2.8300  -15.2469 H   0  0  0  0  0  0  0  0  0  0  0  0
    8.3999   -3.7855  -13.7265 H   0  0  0  0  0  0  0  0  0  0  0  0
    8.9811   -4.5436  -15.2478 H   0  0  0  0  0  0  0  0  0  0  0  0
    5.5741   -6.0131  -14.7566 H   0  0  0  0  0  0  0  0  0  0  0  0
    7.3182   -6.3902  -14.9629 H   0  0  0  0  0  0  0  0  0  0  0  0
    6.7369   -5.6321  -13.4416 H   0  0  0  0  0  0  0  0  0  0  0  0
    7.4974    1.2015  -20.6692 H   0  0  0  0  0  0  0  0  0  0  0  0
    7.5722   -0.2798  -21.6824 H   0  0  0  0  0  0  0  0  0  0  0  0
    6.6746    1.1628  -22.2654 H   0  0  0  0  0  0  0  0  0  0  0  0
    3.9694   -1.2181  -21.2242 H   0  0  0  0  0  0  0  0  0  0  0  0
    4.6201   -0.2456  -22.5870 H   0  0  0  0  0  0  0  0  0  0  0  0
    5.5177   -1.6882  -22.0040 H   0  0  0  0  0  0  0  0  0  0  0  0
   11.7877   -1.0459  -13.3431 H   0  0  0  0  0  0  0  0  0  0  0  0
   10.2636   -1.9813  -13.5122 H   0  0  0  0  0  0  0  0  0  0  0  0
   10.8169   -0.9165  -14.8489 H   0  0  0  0  0  0  0  0  0  0  0  0
    6.0674   11.3888  -21.1250 H   0  0  0  0  0  0  0  0  0  0  0  0
    4.7788   11.4646  -22.3742 H   0  0  0  0  0  0  0  0  0  0  0  0
    3.9859   10.1131  -20.5091 H   0  0  0  0  0  0  0  0  0  0  0  0
    4.2718    9.0393  -21.9204 H   0  0  0  0  0  0  0  0  0  0  0  0
    8.7011    1.6544  -15.3412 H   0  0  0  0  0  0  0  0  0  0  0  0
    9.0269   -0.0173  -15.9122 H   0  0  0  0  0  0  0  0  0  0  0  0
    5.9607   -5.1624  -16.9267 H   0  0  0  0  0  0  0  0  0  0  0  0
    7.5860   -4.4379  -17.1719 H   0  0  0  0  0  0  0  0  0  0  0  0
    4.4609    1.7901  -21.1437 H   0  0  0  0  0  0  0  0  0  0  0  0
    3.8142    0.7570  -19.8242 H   0  0  0  0  0  0  0  0  0  0  0  0
    6.4839    8.3860  -20.9636 H   0  0  0  0  0  0  0  0  0  0  0  0
    6.1736    9.4413  -19.5434 H   0  0  0  0  0  0  0  0  0  0  0  0
    7.4444    0.6528  -13.3666 H   0  0  0  0  0  0  0  0  0  0  0  0
    8.0002   -0.9684  -13.9046 H   0  0  0  0  0  0  0  0  0  0  0  0
    5.0410   -2.8407  -16.6127 H   0  0  0  0  0  0  0  0  0  0  0  0
    6.2583    1.0879  -15.3020 H   0  0  0  0  0  0  0  0  0  0  0  0
    4.3133    3.8344  -19.9549 H   0  0  0  0  0  0  0  0  0  0  0  0
    6.1178   -3.5697  -14.6931 H   0  0  0  0  0  0  0  0  0  0  0  0
    5.9316   -0.5594  -19.8246 H   0  0  0  0  0  0  0  0  0  0  0  0
    6.3233    2.4961  -19.6144 H   0  0  0  0  0  0  0  0  0  0  0  0
    3.9106    7.8479  -19.7790 H   0  0  0  0  0  0  0  0  0  0  0  0
    6.2090   -2.8505  -19.3116 H   0  0  0  0  0  0  0  0  0  0  0  0
    5.7480   -1.1067  -15.4635 H   0  0  0  0  0  0  0  0  0  0  0  0
    4.8592    0.8673  -17.5687 H   0  0  0  0  0  0  0  0  0  0  0  0
    2.7910    2.2845  -19.1231 H   0  0  0  0  0  0  0  0  0  0  0  0
  1  8  1  0  0  0  0
  1 30  1  0  0  0  0
  1 34  2  0  0  0  0
  2 10  1  0  0  0  0
  2 31  1  0  0  0  0
  2 35  2  0  0  0  0
  3 24  1  0  0  0  0
  3 32  1  0  0  0  0
  3 36  2  0  0  0  0
  4 25  1  0  0  0  0
  4 33  1  0  0  0  0
  4 37  2  0  0  0  0
  5  6  1  0  0  0  0
  5  7  1  0  0  0  0
  6  8  1  0  0  0  0
  7  9  1  0  0  0  0
  8  9  1  0  0  0  0
  9 26  1  0  0  0  0
 11 17  1  0  0  0  0
 12 27  1  0  0  0  0
 13 27  1  0  0  0  0
 14 28  1  0  0  0  0
 15 28  1  0  0  0  0
 16 39  1  0  0  0  0
 17 18  1  0  0  0  0
 18 22  1  0  0  0  0
 19 23  1  0  0  0  0
 19 25  1  0  0  0  0
 20 24  1  0  0  0  0
 20 27  1  0  0  0  0
 21 28  1  0  0  0  0
 21 29  1  0  0  0  0
 22 30  1  0  0  0  0
 23 39  1  0  0  0  0
 24 31  1  0  0  0  0
 25 32  1  0  0  0  0
 26 29  1  0  0  0  0
 26 38  1  0  0  0  0
 29 33  1  0  0  0  0
  5 40  1  0  0  0  0
  5 41  1  0  0  0  0
  6 42  1  0  0  0  0
  6 43  1  0  0  0  0
  7 44  1  0  0  0  0
  7 45  1  0  0  0  0
  8 46  1  0  0  0  0
  9 47  1  0  0  0  0
 10 48  1  0  0  0  0
 10 49  1  0  0  0  0
 10 50  1  0  0  0  0
 11 51  1  0  0  0  0
 11 52  1  0  0  0  0
 11 53  1  0  0  0  0
 12 54  1  0  0  0  0
 12 55  1  0  0  0  0
 12 56  1  0  0  0  0
 13 57  1  0  0  0  0
 13 58  1  0  0  0  0
 13 59  1  0  0  0  0
 14 60  1  0  0  0  0
 14 61  1  0  0  0  0
 14 62  1  0  0  0  0
 15 63  1  0  0  0  0
 15 64  1  0  0  0  0
 15 65  1  0  0  0  0
 16 66  1  0  0  0  0
 16 67  1  0  0  0  0
 16 68  1  0  0  0  0
 17 69  1  0  0  0  0
 17 70  1  0  0  0  0
 18 71  1  0  0  0  0
 18 72  1  0  0  0  0
 19 73  1  0  0  0  0
 19 74  1  0  0  0  0
 20 75  1  0  0  0  0
 20 76  1  0  0  0  0
 21 77  1  0  0  0  0
 21 78  1  0  0  0  0
 22 79  1  0  0  0  0
 22 80  1  0  0  0  0
 23 81  1  0  0  0  0
 23 82  1  0  0  0  0
 24 83  1  0  0  0  0
 25 84  1  0  0  0  0
 26 85  1  0  0  0  0
 27 86  1  0  0  0  0
 28 87  1  0  0  0  0
 29 88  1  0  0  0  0
 30 89  1  0  0  0  0
 31 90  1  0  0  0  0
 32 91  1  0  0  0  0
 33 92  1  0  0  0  0
 38 93  1  0  0  0  0
M  END
> <OMEGA_C>
eK+uQN181kDRn5jB+wKMQHC+b8CsJ5jBlsTaQAhO4b/cjIjBp0PbQNbrqT+6oYrBd7mcQAJNs0Di
Jn/BCqSEQK4QzkDRwIfBp06aQM3/hUAdI4TBQH2PQNWUuUAwoJLBlzyiQNONjECBNJDBfE5bQGXC
jsBhSZDBgMzPQOhCJEE1ZbfBZUAEQVrxdMCAFG3BryHTQPO8tcAlgmjBCSzeQLvYET+QB6vBS1qc
QAQcV7/hmq3B+UosQY53hL8NGlzBhjywQHn0LEHz/a7BPR+YQMnXGkGqUqnBdlMFQbssHj+deXXB
6o3TQMLwicDObYXBDTqXQMi+mD9WEaLByoW2QCI2DUEMmaLBp9EDQSDH1z3fUl7B7X2+QOO/QMAg
oYnBAgHeQO2HET/h5n/BqQyOQKzHVUBm15fBkIfaQB7wiMAFQnLBywO1QADxLD3coKXBb8arQJ46
CEASsZnBvASdQOkE+UAhyZ3BYleyQEv6SsCw4JTBkhvOQFztUL+n/IDBBtezQDANsD98x4/BAKTV
QNgv00D1npfB/S+EQHd8csAqvaHB68r5QEpey7+HbI7BFsH5QD7T/T/26I3BgKNJQM09O0DZK5TB
UkIdQXQ0uj7df1DBkCe+QHz1vUCwv33BOC6NQFYAtUA+Ym/BX/dDQIPDzEDHP4bBlniPQBGL70D4
gYfBthuzQPDPYkBNmoDB8zZ1QBSeb0CotILBNvNjQEP4tUDhVZfB9PXEQClujUBroZHBCAgnQH4T
nsCAxJTBFh1/QLY/p8C40ovBz3lAQHqNbsBxp4rB72vgQDSyMUE/RrvB6GDnQDXUGUH0dbPByyS+
QMgKG0FIdL3BBxQHQX8fNcB283PB2WUGQYdFcsDMn1vBfLIPQQRlkcDJ9nPBNV+yQIFrwMDeGmzB
Sy7qQHZ8zMDhZ2/BBZXXQDU6tMDjEFfBuervQBLKmT+JWqXByk/yQMM+j76oda3BMpbVQNbWlD+N
H7LBLAp+QCzsm78zy6nBlteTQCN4e74csrTBLpGwQIwV2L83CLDBT5o8Qf/fhb9ufVXBrjckQQ+b
/b8SMljBNxItQU+far8KlW3B8ifCQJs4NkH6/6jB1euYQC5vN0FO/rLB9Rh/QHHPIUGkEqTBTLKI
QCShEEETXa/BvDcLQYzD0z/BdXXBUG4QQYiqjbwrmH7B8r2+QDEypcDcaYfBlsDyQDkDjsABYInB
17+OQCIi5T9UJqnBdRx0QKbHQT8BmJ7BHnzPQBUtBkFxtafBQI7FQG0PF0H7WJzBvDjuQM0bJz9r
3VXByQAAQUTrd79EeV7B40+hQCzONcDP5oTB2EPIQEBAiz/v1HTBiAaKQBFmdUCoo5/BasXDQJh2
ZMAGF2vBfc+9QB02D7/cmJ7BPVjKQMW/H0BC6pzB2UZ6QAQi+0ByO57BgrDGQIluNsAVfprBWe+3
QOqmjb9QanfBsn6bQHQEXj+mjIzBB58yQO40EkAo/JjB

> <OMEGA_E>
4CwpPw==

> <OMEGA_NBR>
      1823

$$$$
29105
  -OEChem-04172616093D

 89 89  0     1  0  0  0  0  0999 V2000
    5.5083    6.9479  -18.9432 C   0  0  0  0  0  0  0  0  0  0  0  0
    7.5252   -4.7643  -14.5731 C   0  0  0  0  0  0  0  0  0  0  0  0
    6.0914   -2.1534  -16.0857 C   0  0  0  0  0  0  0  0  0  0  0  0
    6.7182    1.1789  -17.4365 C   0  0  0  0  0  0  0  0  0  0  0  0
    4.8828   10.1646  -20.8525 C   0  0  0  0  0  0  0  0  0  0  0  0
    5.0228    5.6085  -15.8757 C   0  0  0  0  0  0  0  0  0  0  0  0
    4.2283    6.5122  -16.8120 C   0  0  0  0  0  0  0  0  0  0  0  0
    4.9359    4.2382  -16.5381 C   0  0  0  0  0  0  0  0  0  0  0  0
    4.5289    5.9861  -18.2316 C   0  0  2  0  0  0  0  0  0  0  0  0
    5.1087    4.5451  -18.0431 C   0  0  2  0  0  0  0  0  0  0  0  0
    7.4304   -5.9197  -13.5849 C   0  0  0  0  0  0  0  0  0  0  0  0
    6.4699    8.4210  -21.6327 C   0  0  0  0  0  0  0  0  0  0  0  0
    3.9838   -4.1747  -19.4908 C   0  0  0  0  0  0  0  0  0  0  0  0
    6.3472   -3.2945  -19.4824 C   0  0  0  0  0  0  0  0  0  0  0  0
    6.8143    0.6071  -21.3758 C   0  0  0  0  0  0  0  0  0  0  0  0
    4.6972   -0.7056  -21.7153 C   0  0  0  0  0  0  0  0  0  0  0  0
   10.5167   -0.9011  -13.6592 C   0  0  0  0  0  0  0  0  0  0  0  0
    7.9834    0.6078  -15.3153 C   0  0  0  0  0  0  0  0  0  0  0  0
    5.2774   -4.2002  -17.3684 C   0  0  0  0  0  0  0  0  0  0  0  0
    4.6176    1.3418  -20.2722 C   0  0  0  0  0  0  0  0  0  0  0  0
    7.8753   -0.1051  -13.9587 C   0  0  0  0  0  0  0  0  0  0  0  0
    6.3858   -3.6069  -16.4840 C   0  0  2  0  0  0  0  0  0  0  0  0
    6.7696    0.2755  -16.2045 C   0  0  2  0  0  0  0  0  0  0  0  0
    5.7813    9.0090  -20.3876 C   0  0  2  0  0  0  0  0  0  0  0  0
    4.4254    3.5278  -19.0048 C   0  0  1  0  0  0  0  0  0  0  0  0
    5.0423   -3.4185  -18.6697 C   0  0  0  0  0  0  0  0  0  0  0  0
    5.4994    0.1434  -20.7091 C   0  0  0  0  0  0  0  0  0  0  0  0
    5.2871    2.2557  -19.2179 C   0  0  1  0  0  0  0  0  0  0  0  0
    4.9737    7.9806  -19.7036 N   0  0  0  0  0  0  0  0  0  0  0  0
    6.3999   -4.4689  -15.3117 N   0  0  0  0  0  0  0  0  0  0  0  0
    6.8472   -1.1286  -16.6473 N   0  0  0  0  0  0  0  0  0  0  0  0
    5.4740    1.4921  -17.9717 N   0  0  0  0  0  0  0  0  0  0  0  0
    3.6495    9.9683  -21.0293 O   0  5  0  0  0  0  0  0  0  0  0  0
    6.7164    6.8866  -18.7354 O   0  0  0  0  0  0  0  0  0  0  0  0
    8.6051   -4.2306  -14.8039 O   0  0  0  0  0  0  0  0  0  0  0  0
    5.1624   -1.9091  -15.3232 O   0  0  0  0  0  0  0  0  0  0  0  0
    7.7536    1.6155  -17.9294 O   0  0  0  0  0  0  0  0  0  0  0  0
    5.4199   11.2693  -21.1326 O   0  0  0  0  0  0  0  0  0  0  0  0
    3.1129    3.1834  -18.5526 O   0  0  0  0  0  0  0  0  0  0  0  0
    9.3340    0.3045  -12.9357 S   0  0  0  0  0  0  0  0  0  0  0  0
    6.0681    5.9427  -15.8010 H   0  0  0  0  0  0  0  0  0  0  0  0
    4.5716    5.5889  -14.8727 H   0  0  0  0  0  0  0  0  0  0  0  0
    3.1522    6.4427  -16.5945 H   0  0  0  0  0  0  0  0  0  0  0  0
    4.5562    7.5572  -16.7102 H   0  0  0  0  0  0  0  0  0  0  0  0
    5.7382    3.5774  -16.1782 H   0  0  0  0  0  0  0  0  0  0  0  0
    3.9599    3.7698  -16.3431 H   0  0  0  0  0  0  0  0  0  0  0  0
    3.5927    5.9266  -18.8060 H   0  0  0  0  0  0  0  0  0  0  0  0
    6.1839    4.5723  -18.2734 H   0  0  0  0  0  0  0  0  0  0  0  0
    8.4288   -6.1373  -13.1775 H   0  0  0  0  0  0  0  0  0  0  0  0
    6.7514   -5.6453  -12.7641 H   0  0  0  0  0  0  0  0  0  0  0  0
    7.0422   -6.8112  -14.0994 H   0  0  0  0  0  0  0  0  0  0  0  0
    7.1228    7.5882  -21.3324 H   0  0  0  0  0  0  0  0  0  0  0  0
    5.7067    8.0538  -22.3346 H   0  0  0  0  0  0  0  0  0  0  0  0
    7.0722    9.2012  -22.1212 H   0  0  0  0  0  0  0  0  0  0  0  0
    3.0564   -4.2594  -18.9054 H   0  0  0  0  0  0  0  0  0  0  0  0
    3.7807   -3.6251  -20.4218 H   0  0  0  0  0  0  0  0  0  0  0  0
    4.3576   -5.1806  -19.7329 H   0  0  0  0  0  0  0  0  0  0  0  0
    7.0991   -2.7530  -18.8894 H   0  0  0  0  0  0  0  0  0  0  0  0
    6.7251   -4.2988  -19.7245 H   0  0  0  0  0  0  0  0  0  0  0  0
    6.1483   -2.7433  -20.4133 H   0  0  0  0  0  0  0  0  0  0  0  0
    7.3929    1.2139  -20.6638 H   0  0  0  0  0  0  0  0  0  0  0  0
    7.4048   -0.2723  -21.6725 H   0  0  0  0  0  0  0  0  0  0  0  0
    6.5812    1.2096  -22.2661 H   0  0  0  0  0  0  0  0  0  0  0  0
    3.7591   -1.0398  -21.2481 H   0  0  0  0  0  0  0  0  0  0  0  0
    4.4683   -0.1005  -22.6050 H   0  0  0  0  0  0  0  0  0  0  0  0
    5.2919   -1.5824  -22.0113 H   0  0  0  0  0  0  0  0  0  0  0  0
   11.4908   -0.8067  -13.1569 H   0  0  0  0  0  0  0  0  0  0  0  0
   10.1304   -1.9217  -13.5209 H   0  0  0  0  0  0  0  0  0  0  0  0
   10.6370   -0.6971  -14.7334 H   0  0  0  0  0  0  0  0  0  0  0  0
    8.0228    1.6946  -15.1498 H   0  0  0  0  0  0  0  0  0  0  0  0
    8.9029    0.2807  -15.8227 H   0  0  0  0  0  0  0  0  0  0  0  0
    5.5554   -5.2322  -17.6283 H   0  0  0  0  0  0  0  0  0  0  0  0
    4.3400   -4.2069  -16.7929 H   0  0  0  0  0  0  0  0  0  0  0  0
    4.3892    1.9473  -21.1617 H   0  0  0  0  0  0  0  0  0  0  0  0
    3.6827    0.9480  -19.8468 H   0  0  0  0  0  0  0  0  0  0  0  0
    6.9616    0.2251  -13.4429 H   0  0  0  0  0  0  0  0  0  0  0  0
    7.8335   -1.1926  -14.1186 H   0  0  0  0  0  0  0  0  0  0  0  0
    7.3476   -3.6564  -17.0154 H   0  0  0  0  0  0  0  0  0  0  0  0
    5.8519    0.4252  -15.6168 H   0  0  0  0  0  0  0  0  0  0  0  0
    6.5482    9.4008  -19.7033 H   0  0  0  0  0  0  0  0  0  0  0  0
    4.3373    4.0230  -19.9831 H   0  0  0  0  0  0  0  0  0  0  0  0
    4.6669   -2.4130  -18.4288 H   0  0  0  0  0  0  0  0  0  0  0  0
    5.7377   -0.4691  -19.8270 H   0  0  0  0  0  0  0  0  0  0  0  0
    6.2694    2.5658  -19.6039 H   0  0  0  0  0  0  0  0  0  0  0  0
    3.9789    8.0302  -19.7929 H   0  0  0  0  0  0  0  0  0  0  0  0
    5.5331   -4.8750  -15.0220 H   0  0  0  0  0  0  0  0  0  0  0  0
    7.4763   -1.3567  -17.3904 H   0  0  0  0  0  0  0  0  0  0  0  0
    4.6589    1.1813  -17.4828 H   0  0  0  0  0  0  0  0  0  0  0  0
    2.7218    2.5634  -19.1569 H   0  0  0  0  0  0  0  0  0  0  0  0
  1  9  1  0  0  0  0
  1 29  1  0  0  0  0
  1 34  2  0  0  0  0
  2 11  1  0  0  0  0
  2 30  1  0  0  0  0
  2 35  2  0  0  0  0
  3 22  1  0  0  0  0
  3 31  1  0  0  0  0
  3 36  2  0  0  0  0
  4 23  1  0  0  0  0
  4 32  1  0  0  0  0
  4 37  2  0  0  0  0
  5 24  1  0  0  0  0
  5 33  1  0  0  0  0
  5 38  2  0  0  0  0
  6  7  1  0  0  0  0
  6  8  1  0  0  0  0
  7  9  1  0  0  0  0
  8 10  1  0  0  0  0
  9 10  1  0  0  0  0
 10 25  1  0  0  0  0
 12 24  1  0  0  0  0
 13 26  1  0  0  0  0
 14 26  1  0  0  0  0
 15 27  1  0  0  0  0
 16 27  1  0  0  0  0
 17 40  1  0  0  0  0
 18 21  1  0  0  0  0
 18 23  1  0  0  0  0
 19 22  1  0  0  0  0
 19 26  1  0  0  0  0
 20 27  1  0  0  0  0
 20 28  1  0  0  0  0
 21 40  1  0  0  0  0
 22 30  1  0  0  0  0
 23 31  1  0  0  0  0
 24 29  1  0  0  0  0
 25 28  1  0  0  0  0
 25 39  1  0  0  0  0
 28 32  1  0  0  0  0
  6 41  1  0  0  0  0
  6 42  1  0  0  0  0
  7 43  1  0  0  0  0
  7 44  1  0  0  0  0
  8 45  1  0  0  0  0
  8 46  1  0  0  0  0
  9 47  1  0  0  0  0
 10 48  1  0  0  0  0
 11 49  1  0  0  0  0
 11 50  1  0  0  0  0
 11 51  1  0  0  0  0
 12 52  1  0  0  0  0
 12 53  1  0  0  0  0
 12 54  1  0  0  0  0
 13 55  1  0  0  0  0
 13 56  1  0  0  0  0
 13 57  1  0  0  0  0
 14 58  1  0  0  0  0
 14 59  1  0  0  0  0
 14 60  1  0  0  0  0
 15 61  1  0  0  0  0
 15 62  1  0  0  0  0
 15 63  1  0  0  0  0
 16 64  1  0  0  0  0
 16 65  1  0  0  0  0
 16 66  1  0  0  0  0
 17 67  1  0  0  0  0
 17 68  1  0  0  0  0
 17 69  1  0  0  0  0
 18 70  1  0  0  0  0
 18 71  1  0  0  0  0
 19 72  1  0  0  0  0
 19 73  1  0  0  0  0
 20 74  1  0  0  0  0
 20 75  1  0  0  0  0
 21 76  1  0  0  0  0
 21 77  1  0  0  0  0
 22 78  1  0  0  0  0
 23 79  1  0  0  0  0
 24 80  1  0  0  0  0
 25 81  1  0  0  0  0
 26 82  1  0  0  0  0
 27 83  1  0  0  0  0
 28 84  1  0  0  0  0
 29 85  1  0  0  0  0
 30 86  1  0  0  0  0
 31 87  1  0  0  0  0
 32 88  1  0  0  0  0
 39 89  1  0  0  0  0
M  CHG  1  33  -1
M  END
> <OMEGA_C>
5UOwQPBU3kCii5fBnM7wQDR1mMBtK2nBoOzCQLzQCcCMr4DBG/vWQKfklj/xfYvBH0CcQGOiIkHj
0abBvbqgQJ54s0DGAn7B8k2HQOhj0EASf4bB9fKdQLCfh0DuTYTBxuyQQHOOv0A42pHBHnqjQLBx
kUA0WJDB+MXtQHRuvcC4W1nBfgnPQJW8BkHCD63BSPd+QG2XhcA87ZvBlRzLQIzYUsDu25vB+Q7a
QOxqGz+zAavBPE+WQBKlNL8Dua3Bi0QoQQOxZr8rjFrB7nf/QNqaGz9vC3XBcuCoQNJnhsBi8orB
L8OTQHe/qz91LaLB0QL8QJAy173mVl/BeVjMQALXZsBH34PBqqDYQAANjT7NooHBYAC5QKkkEEHf
GaPB8JyNQJbHYUDWCZjBfFqhQLLIWsB2W5XBMvuvQAjQEj4krKXB+i+pQP5dEEBTvpnBhyifQFxh
/0DuoJ3BrcvMQFgBj8CY/HTBhxzbQL12kL+lLYXBtyqvQLP8vj8Gxo/BbpFpQBZ+H0EPPKjBvezW
QPZe3EAL4pXBr64JQfZgh8DI3GzBqDKlQCVe9L8DLHXBZR34QPfIzj9mb4/BtW+tQDFPNEGqD6nB
0DlHQCS9S0DPa5TB61cVQRzkmz6B+E7BCy7CQL4qvkDq0HzBVkqSQOnXskB59m3BCr5JQMkqzkCd
wYTBesyRQMTU8UCCroXBpZ+3QIDzZEDtbIHBNm99QN1EcUCXvoLBCO9lQA+nvUC6cpbBseLFQGxQ
kkD7L5LBLNwGQcZkxMDx1lLBmQvYQECmtMDmOUzBDVrhQPr02cAHl2HByO3jQMfS8kC2qKrBbZ22
QEPcAEE8rbLBhk/iQBA4E0En+LDBxpxDQPxMiMA3PpfBP/dxQFYCaMDYX6PBV3GLQDvHpcAN3Z3B
gyvjQJExMMCLHZfBWzTXQGCPicC1y53Bo77EQJ+SL8CATqPBCZPsQDpimz+ET6XBX/TsQMFmi75M
Ya3BMpnSQMDTmj8RIbLBF5VwQMoZhb8T/KnBFPyOQEDlzb371rTBQFepQMSLyr82F7DBIto3QYCB
Tr+IglLBRhYiQcX79b+OVVjBNTEqQS9zMr8PvGvBN10AQXno2D94ZXLBQHIOQW20jz7aKX3B9MWx
QE5up8DaBo3BHOGKQK+ehsDCV4bBh3SMQLA/+T80S6nBXLFrQFiycj86xp7BXMXeQDaKZj5RFlfB
LKz6QBCnmL+W5WHB7h/rQBUCasCbH4jBpEK7QNOt2T5v3nnBC4vRQM9pFkFyoJ3BdcuKQDy8gEBf
3Z/BYFeVQBVuGsA/bpPBfJu3QN8u8L6hnZ7B557IQLI2JEC11JzByaZ+QK97AEHmV57BYg+xQJj/
m8AiWnDBkD3vQEyprb+iH4vBlRWVQMYzlz+63IvBTzIuQG8PJEBsQZnB

> <OMEGA_E>
RB8iPw==

> <OMEGA_NBR>
      3588

$$$$
50161010
  -OEChem-04172616093D

 89 88  0     1  0  0  0  0  0999 V2000
    7.0794   -4.5704  -14.8772 C   0  0  0  0  0  0  0  0  0  0  0  0
    5.4577    6.5424  -18.8368 C   0  0  0  0  0  0  0  0  0  0  0  0
    6.1193   -1.7367  -15.8967 C   0  0  0  0  0  0  0  0  0  0  0  0
    6.8343    1.4646  -17.3364 C   0  0  0  0  0  0  0  0  0  0  0  0
    6.9133   -5.7156  -13.8816 C   0  0  0  0  0  0  0  0  0  0  0  0
    6.5290   10.1359  -22.7991 C   0  0  0  0  0  0  0  0  0  0  0  0
    4.6308    6.4567  -16.4814 C   0  0  0  0  0  0  0  0  0  0  0  0
    6.0339   -4.4312  -19.2579 C   0  0  0  0  0  0  0  0  0  0  0  0
    3.5843   -3.9581  -19.4950 C   0  0  0  0  0  0  0  0  0  0  0  0
    6.8864    0.4767  -21.2596 C   0  0  0  0  0  0  0  0  0  0  0  0
    4.7503   -0.7918  -21.6399 C   0  0  0  0  0  0  0  0  0  0  0  0
   10.7200   -0.9030  -13.7654 C   0  0  0  0  0  0  0  0  0  0  0  0
    5.0439    9.8863  -22.4858 C   0  0  0  0  0  0  0  0  0  0  0  0
    4.8059    9.5422  -21.0032 C   0  0  0  0  0  0  0  0  0  0  0  0
    8.2648    0.8957  -15.2973 C   0  0  0  0  0  0  0  0  0  0  0  0
    4.9938    4.2880  -17.7243 C   0  0  0  0  0  0  0  0  0  0  0  0
    4.7848   -3.0600  -17.4960 C   0  0  0  0  0  0  0  0  0  0  0  0
    4.6716    1.3031  -20.2600 C   0  0  0  0  0  0  0  0  0  0  0  0
    5.6140    8.3068  -20.5814 C   0  0  0  0  0  0  0  0  0  0  0  0
    8.1982    0.2320  -13.9135 C   0  0  0  0  0  0  0  0  0  0  0  0
    4.5582    5.7683  -17.8519 C   0  0  2  0  0  0  0  0  0  0  0  0
    6.0445   -3.0786  -16.6034 C   0  0  2  0  0  0  0  0  0  0  0  0
    6.9603    0.6303  -16.0676 C   0  0  2  0  0  0  0  0  0  0  0  0
    4.7108   -4.2425  -18.4849 C   0  0  0  0  0  0  0  0  0  0  0  0
    5.5353    0.0682  -20.6331 C   0  0  0  0  0  0  0  0  0  0  0  0
    5.3391    2.2298  -19.2143 C   0  0  1  0  0  0  0  0  0  0  0  0
    4.4481    3.4609  -18.9130 C   0  0  1  0  0  0  0  0  0  0  0  0
    4.9287    7.6476  -19.4757 N   0  0  0  0  0  0  0  0  0  0  0  0
    5.9904   -4.1936  -15.6542 N   0  0  0  0  0  0  0  0  0  0  0  0
    6.9105   -0.7682  -16.4886 N   0  0  0  0  0  0  0  0  0  0  0  0
    5.6075    1.4656  -17.9883 N   0  0  0  0  0  0  0  0  0  0  0  0
    8.1796   -4.0471  -15.0249 O   0  0  0  0  0  0  0  0  0  0  0  0
    6.6339    6.2326  -19.0052 O   0  0  0  0  0  0  0  0  0  0  0  0
    5.3799   -1.4832  -14.9511 O   0  0  0  0  0  0  0  0  0  0  0  0
    7.8008    2.0711  -17.7882 O   0  0  0  0  0  0  0  0  0  0  0  0
    3.1124    3.0671  -18.5930 O   0  0  0  0  0  0  0  0  0  0  0  0
    9.7751    0.4898  -13.0309 S   0  0  0  0  0  0  0  0  0  0  0  0
    7.8794   -5.9262  -13.3997 H   0  0  0  0  0  0  0  0  0  0  0  0
    6.1760   -5.4319  -13.1162 H   0  0  0  0  0  0  0  0  0  0  0  0
    6.5645   -6.6142  -14.4115 H   0  0  0  0  0  0  0  0  0  0  0  0
    6.6437   10.3767  -23.8663 H   0  0  0  0  0  0  0  0  0  0  0  0
    6.8953   10.9770  -22.1922 H   0  0  0  0  0  0  0  0  0  0  0  0
    7.1104    9.2325  -22.5626 H   0  0  0  0  0  0  0  0  0  0  0  0
    3.9940    5.9169  -15.7651 H   0  0  0  0  0  0  0  0  0  0  0  0
    5.6709    6.4518  -16.1234 H   0  0  0  0  0  0  0  0  0  0  0  0
    4.2798    7.4951  -16.5738 H   0  0  0  0  0  0  0  0  0  0  0  0
    6.8484   -4.6353  -18.5472 H   0  0  0  0  0  0  0  0  0  0  0  0
    5.9343   -5.2771  -19.9540 H   0  0  0  0  0  0  0  0  0  0  0  0
    6.2618   -3.5157  -19.8235 H   0  0  0  0  0  0  0  0  0  0  0  0
    2.6346   -3.8214  -18.9570 H   0  0  0  0  0  0  0  0  0  0  0  0
    3.8205   -3.0442  -20.0598 H   0  0  0  0  0  0  0  0  0  0  0  0
    3.4929   -4.8056  -20.1903 H   0  0  0  0  0  0  0  0  0  0  0  0
    7.4519    1.0918  -20.5441 H   0  0  0  0  0  0  0  0  0  0  0  0
    7.4650   -0.4263  -21.5042 H   0  0  0  0  0  0  0  0  0  0  0  0
    6.7049    1.0556  -22.1772 H   0  0  0  0  0  0  0  0  0  0  0  0
    3.7865   -1.0859  -21.1987 H   0  0  0  0  0  0  0  0  0  0  0  0
    4.5717   -0.2112  -22.5570 H   0  0  0  0  0  0  0  0  0  0  0  0
    5.3319   -1.6931  -21.8839 H   0  0  0  0  0  0  0  0  0  0  0  0
   11.7365   -0.9191  -13.3453 H   0  0  0  0  0  0  0  0  0  0  0  0
   10.2131   -1.8517  -13.5350 H   0  0  0  0  0  0  0  0  0  0  0  0
   10.7762   -0.7729  -14.8563 H   0  0  0  0  0  0  0  0  0  0  0  0
    4.4733   10.7935  -22.7338 H   0  0  0  0  0  0  0  0  0  0  0  0
    4.6883    9.0490  -23.1042 H   0  0  0  0  0  0  0  0  0  0  0  0
    5.1102   10.3983  -20.3832 H   0  0  0  0  0  0  0  0  0  0  0  0
    3.7357    9.3401  -20.8494 H   0  0  0  0  0  0  0  0  0  0  0  0
    8.4024    1.9802  -15.1756 H   0  0  0  0  0  0  0  0  0  0  0  0
    9.1126    0.4795  -15.8612 H   0  0  0  0  0  0  0  0  0  0  0  0
    6.0924    4.2327  -17.7183 H   0  0  0  0  0  0  0  0  0  0  0  0
    4.6007    3.8743  -16.7840 H   0  0  0  0  0  0  0  0  0  0  0  0
    3.8978   -3.0939  -16.8464 H   0  0  0  0  0  0  0  0  0  0  0  0
    4.7812   -2.1234  -18.0730 H   0  0  0  0  0  0  0  0  0  0  0  0
    4.4851    1.8865  -21.1737 H   0  0  0  0  0  0  0  0  0  0  0  0
    3.7147    0.9478  -19.8501 H   0  0  0  0  0  0  0  0  0  0  0  0
    5.6970    7.6125  -21.4305 H   0  0  0  0  0  0  0  0  0  0  0  0
    6.6198    8.6156  -20.2605 H   0  0  0  0  0  0  0  0  0  0  0  0
    7.3772    0.6782  -13.3331 H   0  0  0  0  0  0  0  0  0  0  0  0
    8.0185   -0.8466  -14.0335 H   0  0  0  0  0  0  0  0  0  0  0  0
    3.5204    5.8027  -18.2150 H   0  0  0  0  0  0  0  0  0  0  0  0
    6.9280   -3.1887  -17.2494 H   0  0  0  0  0  0  0  0  0  0  0  0
    6.1082    0.8516  -15.4081 H   0  0  0  0  0  0  0  0  0  0  0  0
    4.4792   -5.1645  -17.9316 H   0  0  0  0  0  0  0  0  0  0  0  0
    5.7247   -0.5229  -19.7249 H   0  0  0  0  0  0  0  0  0  0  0  0
    6.2910    2.5893  -19.6322 H   0  0  0  0  0  0  0  0  0  0  0  0
    4.4416    4.1052  -19.8046 H   0  0  0  0  0  0  0  0  0  0  0  0
    4.0471    8.0072  -19.1699 H   0  0  0  0  0  0  0  0  0  0  0  0
    5.1354   -4.7040  -15.5617 H   0  0  0  0  0  0  0  0  0  0  0  0
    7.4878   -1.0441  -17.2571 H   0  0  0  0  0  0  0  0  0  0  0  0
    4.8666    0.9161  -17.6021 H   0  0  0  0  0  0  0  0  0  0  0  0
    2.7524    2.5562  -19.3084 H   0  0  0  0  0  0  0  0  0  0  0  0
  1  5  1  0  0  0  0
  1 29  1  0  0  0  0
  1 32  2  0  0  0  0
  2 21  1  0  0  0  0
  2 28  1  0  0  0  0
  2 33  2  0  0  0  0
  3 22  1  0  0  0  0
  3 30  1  0  0  0  0
  3 34  2  0  0  0  0
  4 23  1  0  0  0  0
  4 31  1  0  0  0  0
  4 35  2  0  0  0  0
  6 13  1  0  0  0  0
  7 21  1  0  0  0  0
  8 24  1  0  0  0  0
  9 24  1  0  0  0  0
 10 25  1  0  0  0  0
 11 25  1  0  0  0  0
 12 37  1  0  0  0  0
 13 14  1  0  0  0  0
 14 19  1  0  0  0  0
 15 20  1  0  0  0  0
 15 23  1  0  0  0  0
 16 21  1  0  0  0  0
 16 27  1  0  0  0  0
 17 22  1  0  0  0  0
 17 24  1  0  0  0  0
 18 25  1  0  0  0  0
 18 26  1  0  0  0  0
 19 28  1  0  0  0  0
 20 37  1  0  0  0  0
 22 29  1  0  0  0  0
 23 30  1  0  0  0  0
 26 27  1  0  0  0  0
 26 31  1  0  0  0  0
 27 36  1  0  0  0  0
  5 38  1  0  0  0  0
  5 39  1  0  0  0  0
  5 40  1  0  0  0  0
  6 41  1  0  0  0  0
  6 42  1  0  0  0  0
  6 43  1  0  0  0  0
  7 44  1  0  0  0  0
  7 45  1  0  0  0  0
  7 46  1  0  0  0  0
  8 47  1  0  0  0  0
  8 48  1  0  0  0  0
  8 49  1  0  0  0  0
  9 50  1  0  0  0  0
  9 51  1  0  0  0  0
  9 52  1  0  0  0  0
 10 53  1  0  0  0  0
 10 54  1  0  0  0  0
 10 55  1  0  0  0  0
 11 56  1  0  0  0  0
 11 57  1  0  0  0  0
 11 58  1  0  0  0  0
 12 59  1  0  0  0  0
 12 60  1  0  0  0  0
 12 61  1  0  0  0  0
 13 62  1  0  0  0  0
 13 63  1  0  0  0  0
 14 64  1  0  0  0  0
 14 65  1  0  0  0  0
 15 66  1  0  0  0  0
 15 67  1  0  0  0  0
 16 68  1  0  0  0  0
 16 69  1  0  0  0  0
 17 70  1  0  0  0  0
 17 71  1  0  0  0  0
 18 72  1  0  0  0  0
 18 73  1  0  0  0  0
 19 74  1  0  0  0  0
 19 75  1  0  0  0  0
 20 76  1  0  0  0  0
 20 77  1  0  0  0  0
 21 78  1  0  0  0  0
 22 79  1  0  0  0  0
 23 80  1  0  0  0  0
 24 81  1  0  0  0  0
 25 82  1  0  0  0  0
 26 83  1  0  0  0  0
 27 84  1  0  0  0  0
 28 85  1  0  0  0  0
 29 86  1  0  0  0  0
 30 87  1  0  0  0  0
 31 88  1  0  0  0  0
 36 89  1  0  0  0  0
M  END
> <OMEGA_C>
FIriQFFAksAzCW7BO6WuQFdb0UDXsZbBN9HDQMtL3r/CWH7BjLLaQOR2uz/ksIrByTndQEjmtsAa
G17BrO3QQLksIkGMZLbB2C+UQK+dzkD42YPB5hXBQJfMjcAYEJrB9WRlQMBRfcC49ZvBqV3cQF4X
9D6iE6rBawKYQGq1Sr+BHq3BIIUrQWosZ79DP1zBomehQG0uHkHg4rPBQsqZQLasGEGGBqjBejwE
QXZLZT/SwXTBf82fQKU3iUBny43BLh2ZQCnXQ8Dm94vBxn2VQIbMpj99FKLBnaWzQKzoBEGjpqTB
7isDQWOSbT6YnV7B2tyRQAKWuEDD0I7B5mzBQIwHRcCw04TB9LreQPFaIT+MioDB1L6WQCvCh8Ap
4ZPBViGxQE6aiz2PEKXB0tmqQHK1DkDTtpnBkFaOQCt/XUDsTZfBm7edQGq59EBRzpvB/7C/QPkx
hsCOd3rBlCLdQNSoRL+Z6IPBDHGzQAyYuz8K6I/Bft8CQRKCgcABZnDBgEjUQB9xx0CQCpjBaSis
QK3avb/PN2/B1p/5QKiNBEAoTo7BYDJHQBVMRECEvpTBnWYcQcLI+j6+flDBSyT8QByjvcARZVbB
uqHFQObRrcDz21HBABDSQOin08BtlWbBUpnUQOEGJkEj7r7BpqbcQNOhL0GLibHBE4jjQHK4E0E6
gLTBa55/QF9XvUAEPnzBSni1QOB0zkC9/IDBTfSIQC7Y70Ail4TB8iXbQL5UlMC6YJTBtOW9QMjd
qMDLoZ/B7mDIQKUBYcB5lp7BqJ0oQIuRdMDmp5fBaoJ0QGDUQsBxeqDB9otfQCXHmcDDhaHBCHbu
QBjAiz9KWqTBp+HuQJ892r6BCKzBP47WQEUdhz/darHBQ1ZyQED9ir/hlqnBLkuSQFBOWL6mdLTB
lp6qQHe22L9LEq/BqMg7QUVIa794hlXB+mgjQUEE7b9ej1jBgWssQSzcRb9Ks23BXyWPQCOyLEHA
3rXBzAaWQMLIEEFv1bjBlIajQIpfJkG3EKPB6xRvQOJwFUGoy6bBQHAGQRZ4/T81z3LBO80RQXh+
9T5ox33BKPXCQHByh0ALv43B5ziTQAb0d0CYRYbB1HR5QJYCRsCExYbBvv+YQI7mB8BxlZDB1YWP
QAZ68T+7Y6nB+7xtQIilcj/4zJ7B2U22QP2Z80DDcavBW9XTQKTZCUGSFaLBBhLsQAmdLT9WVFXB
zEsAQf23WL86iWDBhE5hQH+vuUBLuJHBSLLdQMYTTMDC/onBvHbDQJ8FWj+zh3bBPFWPQFlDpcDZ
c4/BWjC3QLLdBb+fzJ3B4U/JQC23JUCuDp3BriGOQLVdg0DJb57BooGBQGIdAEH5W5nBMFWkQB+H
lsDl/HjBq5vvQBGmhb+CDorBgrubQMeGaj8c0YzBwCcwQOuYI0Czd5rB

> <OMEGA_E>
GJZaPg==

> <OMEGA_NBR>
      5347

$$$$
29148
  -OEChem-04172616093D

 85 84  0     1  0  0  0  0  0999 V2000
    7.0894   -4.7168  -14.9808 C   0  0  0  0  0  0  0  0  0  0  0  0
    5.4746    6.5993  -18.8485 C   0  0  0  0  0  0  0  0  0  0  0  0
    6.8020    1.4509  -17.1028 C   0  0  0  0  0  0  0  0  0  0  0  0
    6.0027   -1.8740  -15.8869 C   0  0  0  0  0  0  0  0  0  0  0  0
    7.0331   -5.7657  -13.8769 C   0  0  0  0  0  0  0  0  0  0  0  0
    6.2524    9.9626  -23.0749 C   0  0  0  0  0  0  0  0  0  0  0  0
    4.6802    6.5412  -16.4747 C   0  0  0  0  0  0  0  0  0  0  0  0
    8.1449    0.7257  -15.0127 C   0  0  0  0  0  0  0  0  0  0  0  0
    3.4321   -3.8842  -19.5643 C   0  0  0  0  0  0  0  0  0  0  0  0
    5.9226   -4.0392  -19.5125 C   0  0  0  0  0  0  0  0  0  0  0  0
    6.9344    0.6125  -21.3520 C   0  0  0  0  0  0  0  0  0  0  0  0
    4.7859   -0.6460  -21.6911 C   0  0  0  0  0  0  0  0  0  0  0  0
    7.8891   -1.2687  -17.4238 C   0  0  0  0  0  0  0  0  0  0  0  0
    5.3911   10.5551  -21.9439 C   0  0  0  0  0  0  0  0  0  0  0  0
    4.6581    9.4648  -21.1379 C   0  0  0  0  0  0  0  0  0  0  0  0
    5.1207    4.3556  -17.6773 C   0  0  0  0  0  0  0  0  0  0  0  0
    4.5895   -3.2567  -17.4402 C   0  0  0  0  0  0  0  0  0  0  0  0
    4.7790    1.3804  -20.2095 C   0  0  0  0  0  0  0  0  0  0  0  0
    5.6414    8.5590  -20.3835 C   0  0  0  0  0  0  0  0  0  0  0  0
    4.6214    5.8168  -17.8284 C   0  0  2  0  0  0  0  0  0  0  0  0
    6.8896    0.4941  -15.8900 C   0  0  2  0  0  0  0  0  0  0  0  0
    5.8807   -3.2480  -16.5881 C   0  0  2  0  0  0  0  0  0  0  0  0
    4.6391   -4.2083  -18.6636 C   0  0  0  0  0  0  0  0  0  0  0  0
    5.6178    0.1678  -20.6797 C   0  0  0  0  0  0  0  0  0  0  0  0
    5.4632    2.2408  -19.1114 C   0  0  1  0  0  0  0  0  0  0  0  0
    4.6007    3.5042  -18.8551 C   0  0  1  0  0  0  0  0  0  0  0  0
    4.8769    7.6271  -19.5575 N   0  0  0  0  0  0  0  0  0  0  0  0
    5.9085   -4.3400  -15.6164 N   0  0  0  0  0  0  0  0  0  0  0  0
    5.6446    1.4354  -17.8836 N   0  0  0  0  0  0  0  0  0  0  0  0
    6.8873   -0.9007  -16.3936 N   0  0  0  0  0  0  0  0  0  0  0  0
    8.1391   -4.1119  -15.1799 O   0  0  0  0  0  0  0  0  0  0  0  0
    6.6839    6.4062  -18.9375 O   0  0  0  0  0  0  0  0  0  0  0  0
    7.7701    2.1333  -17.4245 O   0  0  0  0  0  0  0  0  0  0  0  0
    5.2345   -1.6143  -14.9652 O   0  0  0  0  0  0  0  0  0  0  0  0
    3.2454    3.1503  -18.5733 O   0  0  0  0  0  0  0  0  0  0  0  0
    8.0139   -5.8324  -13.3833 H   0  0  0  0  0  0  0  0  0  0  0  0
    6.2697   -5.4799  -13.1383 H   0  0  0  0  0  0  0  0  0  0  0  0
    6.7747   -6.7424  -14.3121 H   0  0  0  0  0  0  0  0  0  0  0  0
    6.7538   10.7763  -23.6194 H   0  0  0  0  0  0  0  0  0  0  0  0
    7.0084    9.2888  -22.6453 H   0  0  0  0  0  0  0  0  0  0  0  0
    5.6103    9.3990  -23.7678 H   0  0  0  0  0  0  0  0  0  0  0  0
    4.0751    5.9924  -15.7380 H   0  0  0  0  0  0  0  0  0  0  0  0
    5.7235    6.5889  -16.1295 H   0  0  0  0  0  0  0  0  0  0  0  0
    4.2842    7.5612  -16.5874 H   0  0  0  0  0  0  0  0  0  0  0  0
    8.1425    0.0147  -14.1734 H   0  0  0  0  0  0  0  0  0  0  0  0
    9.0495    0.5733  -15.6196 H   0  0  0  0  0  0  0  0  0  0  0  0
    8.1344    1.7540  -14.6220 H   0  0  0  0  0  0  0  0  0  0  0  0
    2.5026   -3.9960  -18.9868 H   0  0  0  0  0  0  0  0  0  0  0  0
    3.5146   -2.8499  -19.9296 H   0  0  0  0  0  0  0  0  0  0  0  0
    3.4173   -4.5752  -20.4200 H   0  0  0  0  0  0  0  0  0  0  0  0
    6.8040   -4.2647  -18.8944 H   0  0  0  0  0  0  0  0  0  0  0  0
    5.8892   -4.7291  -20.3687 H   0  0  0  0  0  0  0  0  0  0  0  0
    5.9864   -3.0038  -19.8782 H   0  0  0  0  0  0  0  0  0  0  0  0
    7.5339    1.1942  -20.6363 H   0  0  0  0  0  0  0  0  0  0  0  0
    7.5017   -0.2748  -21.6695 H   0  0  0  0  0  0  0  0  0  0  0  0
    6.7057    1.2349  -22.2297 H   0  0  0  0  0  0  0  0  0  0  0  0
    3.8455   -0.9668  -21.2192 H   0  0  0  0  0  0  0  0  0  0  0  0
    4.5614   -0.0212  -22.5681 H   0  0  0  0  0  0  0  0  0  0  0  0
    5.3574   -1.5309  -22.0079 H   0  0  0  0  0  0  0  0  0  0  0  0
    8.4829   -0.3823  -17.6917 H   0  0  0  0  0  0  0  0  0  0  0  0
    8.5544   -2.0490  -17.0259 H   0  0  0  0  0  0  0  0  0  0  0  0
    7.3729   -1.6480  -18.3181 H   0  0  0  0  0  0  0  0  0  0  0  0
    6.0426   11.1217  -21.2623 H   0  0  0  0  0  0  0  0  0  0  0  0
    4.6445   11.2320  -22.3848 H   0  0  0  0  0  0  0  0  0  0  0  0
    3.9889    9.9481  -20.4109 H   0  0  0  0  0  0  0  0  0  0  0  0
    4.0645    8.8487  -21.8294 H   0  0  0  0  0  0  0  0  0  0  0  0
    6.2206    4.3434  -17.6748 H   0  0  0  0  0  0  0  0  0  0  0  0
    4.7472    3.9375  -16.7309 H   0  0  0  0  0  0  0  0  0  0  0  0
    3.7536   -3.5670  -16.7960 H   0  0  0  0  0  0  0  0  0  0  0  0
    4.4110   -2.2346  -17.8056 H   0  0  0  0  0  0  0  0  0  0  0  0
    4.5843    2.0236  -21.0803 H   0  0  0  0  0  0  0  0  0  0  0  0
    3.8252    1.0057  -19.8097 H   0  0  0  0  0  0  0  0  0  0  0  0
    6.2557    7.9982  -21.1033 H   0  0  0  0  0  0  0  0  0  0  0  0
    6.2937    9.1717  -19.7439 H   0  0  0  0  0  0  0  0  0  0  0  0
    3.5785    5.7989  -18.1778 H   0  0  0  0  0  0  0  0  0  0  0  0
    5.9991    0.6508  -15.2635 H   0  0  0  0  0  0  0  0  0  0  0  0
    6.7364   -3.3556  -17.2708 H   0  0  0  0  0  0  0  0  0  0  0  0
    4.5671   -5.2496  -18.3167 H   0  0  0  0  0  0  0  0  0  0  0  0
    5.8521   -0.4660  -19.8117 H   0  0  0  0  0  0  0  0  0  0  0  0
    6.4468    2.5616  -19.4851 H   0  0  0  0  0  0  0  0  0  0  0  0
    4.6352    4.1251  -19.7625 H   0  0  0  0  0  0  0  0  0  0  0  0
    3.8843    7.7359  -19.5024 H   0  0  0  0  0  0  0  0  0  0  0  0
    5.0614   -4.8270  -15.4035 H   0  0  0  0  0  0  0  0  0  0  0  0
    4.8920    0.8434  -17.5952 H   0  0  0  0  0  0  0  0  0  0  0  0
    2.9004    2.6242  -19.2851 H   0  0  0  0  0  0  0  0  0  0  0  0
  1  5  1  0  0  0  0
  1 28  1  0  0  0  0
  1 31  2  0  0  0  0
  2 20  1  0  0  0  0
  2 27  1  0  0  0  0
  2 32  2  0  0  0  0
  3 21  1  0  0  0  0
  3 29  1  0  0  0  0
  3 33  2  0  0  0  0
  4 22  1  0  0  0  0
  4 30  1  0  0  0  0
  4 34  2  0  0  0  0
  6 14  1  0  0  0  0
  7 20  1  0  0  0  0
  8 21  1  0  0  0  0
  9 23  1  0  0  0  0
 10 23  1  0  0  0  0
 11 24  1  0  0  0  0
 12 24  1  0  0  0  0
 13 30  1  0  0  0  0
 14 15  1  0  0  0  0
 15 19  1  0  0  0  0
 16 20  1  0  0  0  0
 16 26  1  0  0  0  0
 17 22  1  0  0  0  0
 17 23  1  0  0  0  0
 18 24  1  0  0  0  0
 18 25  1  0  0  0  0
 19 27  1  0  0  0  0
 21 30  1  0  0  0  0
 22 28  1  0  0  0  0
 25 26  1  0  0  0  0
 25 29  1  0  0  0  0
 26 35  1  0  0  0  0
  5 36  1  0  0  0  0
  5 37  1  0  0  0  0
  5 38  1  0  0  0  0
  6 39  1  0  0  0  0
  6 40  1  0  0  0  0
  6 41  1  0  0  0  0
  7 42  1  0  0  0  0
  7 43  1  0  0  0  0
  7 44  1  0  0  0  0
  8 45  1  0  0  0  0
  8 46  1  0  0  0  0
  8 47  1  0  0  0  0
  9 48  1  0  0  0  0
  9 49  1  0  0  0  0
  9 50  1  0  0  0  0
 10 51  1  0  0  0  0
 10 52  1  0  0  0  0
 10 53  1  0  0  0  0
 11 54  1  0  0  0  0
 11 55  1  0  0  0  0
 11 56  1  0  0  0  0
 12 57  1  0  0  0  0
 12 58  1  0  0  0  0
 12 59  1  0  0  0  0
 13 60  1  0  0  0  0
 13 61  1  0  0  0  0
 13 62  1  0  0  0  0
 14 63  1  0  0  0  0
 14 64  1  0  0  0  0
 15 65  1  0  0  0  0
 15 66  1  0  0  0  0
 16 67  1  0  0  0  0
 16 68  1  0  0  0  0
 17 69  1  0  0  0  0
 17 70  1  0  0  0  0
 18 71  1  0  0  0  0
 18 72  1  0  0  0  0
 19 73  1  0  0  0  0
 19 74  1  0  0  0  0
 20 75  1  0  0  0  0
 21 76  1  0  0  0  0
 22 77  1  0  0  0  0
 23 78  1  0  0  0  0
 24 79  1  0  0  0  0
 25 80  1  0  0  0  0
 26 81  1  0  0  0  0
 27 82  1  0  0  0  0
 28 83  1  0  0  0  0
 29 84  1  0  0  0  0
 35 85  1  0  0  0  0
M  END
> <OMEGA_C>
rNziQFLwlsBQsW/Bjy+vQJ0t00CoyZbBxanZQB+4uT+i0ojBRBbAQOHf77/GMH7BQg/hQPqAuMC7
B17BwBPIQLpmH0FRmbjB8MOVQD9R0UA8zIPBa1ECQTjKOT/wM3DBxKdbQGOWeMCrg5zBk4W9QINB
gcCvGZzBUebdQEbOHD/w0KrBDCaZQFZiJb9Ph63Bc3P8QGFjor/7Y4vBP4SsQLHhKEEfja/B+A6V
QLVvF0F+GqnBudyjQEZhi0Aia43BRN2SQFFtUMB6hYvBtO2YQFCvsD/+rKHBboa0QJnxCEFWEaPB
meKTQA8jukB6oI7B/3fcQL39/D6NPX7B0y68QPjeT8BZtITB1HOUQAWqhsAPT5XBTsWzQGrfKz4F
cKXBbdKuQItoD0Ak5JjBFzmTQMlEYEBB15bBKw+cQBsR9EDYdZzBXhK9QGnhisDu3HnB96C0QP65
tz+fEY/Bg2TcQKKVZr8gJoPB5DkCQZGUg8Cz4HLBX+LVQN3/zEDrf5fB2aT4QICHCEBOZYvBMoGn
QB2izr9GcW/BQbRPQEOfSUAXlpTB5zgAQdGiusD9IVbBm6HIQGZbr8BmNlLBTsrYQJLB18BX/mTB
2x7YQK5rLEGH9LzBhkTgQNWeFEGSKbXBgoezQHBiFkFbJL7BLGeCQKzBv0DwznvBACe3QEbY0kBI
CYHBJRiJQIz18UD4soTBvEcCQdtccTwVxmLB0soQQbXEEj8F6nnBbCYCQZuC4D/a82nBGCogQKq9
f8AL5ZfB3u5gQHBkNsDAb5/Bx7VaQNpnksA9XKPBwrrZQCZ4iMCiJ5fBLHS8QJtUl8Ac86LBt5C/
QPM9QMCgBp/B+hXxQLLamD85F6XB7A3wQIqwjL43W63BKJXWQNUSnj9n1rHB9xt2QLh+d7/WwKnB
JveRQMpKrbxqi7TB6m+rQCP0w787ELDB6rkHQcy5w76BiI3B/t4IQeYiA8D3NIjB7O7rQBLw0r9s
i5LBuFzBQJbyMUEzGarBtJ+UQDG2M0H8E7PBHUp/QHgrH0GGSaPBuhCCQDWUDUGnoq7BWA/HQEH9
ikABZo3BIOmXQFEAfEDh2IXBYztwQJhJZMAmXobBmSaNQCoED8DncY7BUbKSQMuCAUBkpKjBbc90
QC+7gD9Lep7BeC7IQOXw/0CM06jBG2bJQHW/EkGJ853B4AZlQDeQuUAibJHBCfm/QHWYJj9+N3TB
yJDXQKDBVsCvKorBmCWSQPz8p8CaiJLBz0S7QLeU7r5tfp7B8UvOQFnxI0Bj4ZvBjVOUQJQAhECP
GZ7Bn5h4QFWM90AABZzBU/ehQPB2msDUdHbBcoucQJDqVz8Iw4zBeKA5QPzyJ0DjR5rB

> <OMEGA_E>
uMrOPg==

> <OMEGA_NBR>
      7036

$$$$
29116
  -OEChem-04172616093D

 90 90  0     1  0  0  0  0  0999 V2000
    4.7529    5.4447  -15.5678 C   0  0  0  0  0  0  0  0  0  0  0  0
    4.7445    5.5879  -14.2061 C   0  0  0  0  0  0  0  0  0  0  0  0
    5.3737    6.7814  -18.9756 C   0  0  0  0  0  0  0  0  0  0  0  0
    7.3299   -4.8178  -14.6919 C   0  0  0  0  0  0  0  0  0  0  0  0
    6.1375   -2.1090  -16.1460 C   0  0  0  0  0  0  0  0  0  0  0  0
    6.8047    1.1999  -17.3418 C   0  0  0  0  0  0  0  0  0  0  0  0
    6.6256    9.7809  -19.4107 C   0  0  0  0  0  0  0  0  0  0  0  0
    4.7908    6.5794  -16.5586 C   0  0  0  0  0  0  0  0  0  0  0  0
    4.7452    4.1417  -16.3329 C   0  0  0  0  0  0  0  0  0  0  0  0
    4.5935    5.9554  -17.9384 C   0  0  2  0  0  0  0  0  0  0  0  0
    5.1082    4.5106  -17.7809 C   0  0  2  0  0  0  0  0  0  0  0  0
    7.1397   -6.0057  -13.7590 C   0  0  0  0  0  0  0  0  0  0  0  0
    4.5901    9.8548  -20.9466 C   0  0  0  0  0  0  0  0  0  0  0  0
    4.6373   -3.7689  -20.0644 C   0  0  0  0  0  0  0  0  0  0  0  0
    6.9627   -2.9299  -19.5261 C   0  0  0  0  0  0  0  0  0  0  0  0
    6.9597    0.8319  -21.3309 C   0  0  0  0  0  0  0  0  0  0  0  0
    4.8816   -0.5264  -21.7083 C   0  0  0  0  0  0  0  0  0  0  0  0
   10.6419   -0.7852  -13.6153 C   0  0  0  0  0  0  0  0  0  0  0  0
    8.0363    0.7163  -15.1854 C   0  0  0  0  0  0  0  0  0  0  0  0
    5.4814   -3.9941  -17.7399 C   0  0  0  0  0  0  0  0  0  0  0  0
    4.7469    1.4507  -20.1972 C   0  0  0  0  0  0  0  0  0  0  0  0
    7.9749   -0.0332  -13.8462 C   0  0  0  0  0  0  0  0  0  0  0  0
    6.4456   -3.5318  -16.6372 C   0  0  2  0  0  0  0  0  0  0  0  0
    6.8526    0.3214  -16.0899 C   0  0  2  0  0  0  0  0  0  0  0  0
    5.6058    8.9483  -20.2277 C   0  0  2  0  0  0  0  0  0  0  0  0
    4.5045    3.5763  -18.8684 C   0  0  1  0  0  0  0  0  0  0  0  0
    5.5188   -3.1019  -18.9926 C   0  0  0  0  0  0  0  0  0  0  0  0
    5.6638    0.3060  -20.6774 C   0  0  0  0  0  0  0  0  0  0  0  0
    5.3869    2.3295  -19.1020 C   0  0  1  0  0  0  0  0  0  0  0  0
    4.8603    8.0104  -19.3692 N   0  0  0  0  0  0  0  0  0  0  0  0
    6.3032   -4.4976  -15.5585 N   0  0  0  0  0  0  0  0  0  0  0  0
    7.0007   -1.0811  -16.5116 N   0  0  0  0  0  0  0  0  0  0  0  0
    5.5637    1.5317  -17.8741 N   0  0  0  0  0  0  0  0  0  0  0  0
    7.0930    9.3252  -18.3310 O   0  5  0  0  0  0  0  0  0  0  0  0
    6.5034    6.4458  -19.3182 O   0  0  0  0  0  0  0  0  0  0  0  0
    8.4148   -4.2480  -14.7488 O   0  0  0  0  0  0  0  0  0  0  0  0
    5.1136   -1.8871  -15.5084 O   0  0  0  0  0  0  0  0  0  0  0  0
    7.8454    1.6017  -17.8532 O   0  0  0  0  0  0  0  0  0  0  0  0
    7.0022   10.8991  -19.8536 O   0  0  0  0  0  0  0  0  0  0  0  0
    3.1625    3.1936  -18.5504 O   0  0  0  0  0  0  0  0  0  0  0  0
    9.4491    0.3824  -12.8438 S   0  0  0  0  0  0  0  0  0  0  0  0
    4.7310    4.7143  -13.5713 H   0  0  0  0  0  0  0  0  0  0  0  0
    4.7513    6.5745  -13.7668 H   0  0  0  0  0  0  0  0  0  0  0  0
    3.9840    7.2964  -16.3467 H   0  0  0  0  0  0  0  0  0  0  0  0
    5.7615    7.0946  -16.5096 H   0  0  0  0  0  0  0  0  0  0  0  0
    5.4890    3.4470  -15.9156 H   0  0  0  0  0  0  0  0  0  0  0  0
    3.7482    3.6788  -16.2929 H   0  0  0  0  0  0  0  0  0  0  0  0
    3.5244    5.9443  -18.1971 H   0  0  0  0  0  0  0  0  0  0  0  0
    6.2032    4.5102  -17.8848 H   0  0  0  0  0  0  0  0  0  0  0  0
    8.0786   -6.2044  -13.2214 H   0  0  0  0  0  0  0  0  0  0  0  0
    6.3435   -5.7791  -13.0347 H   0  0  0  0  0  0  0  0  0  0  0  0
    6.8593   -6.8921  -14.3469 H   0  0  0  0  0  0  0  0  0  0  0  0
    3.8825    9.2341  -21.5158 H   0  0  0  0  0  0  0  0  0  0  0  0
    4.0397   10.4501  -20.2032 H   0  0  0  0  0  0  0  0  0  0  0  0
    5.1224   10.5283  -21.6344 H   0  0  0  0  0  0  0  0  0  0  0  0
    3.6145   -3.8870  -19.6772 H   0  0  0  0  0  0  0  0  0  0  0  0
    4.6174   -3.1395  -20.9663 H   0  0  0  0  0  0  0  0  0  0  0  0
    5.0504   -4.7569  -20.3158 H   0  0  0  0  0  0  0  0  0  0  0  0
    7.5849   -2.4530  -18.7545 H   0  0  0  0  0  0  0  0  0  0  0  0
    7.3809   -3.9161  -19.7763 H   0  0  0  0  0  0  0  0  0  0  0  0
    6.9479   -2.2986  -20.4268 H   0  0  0  0  0  0  0  0  0  0  0  0
    7.5242    1.4283  -20.5990 H   0  0  0  0  0  0  0  0  0  0  0  0
    7.5739   -0.0182  -21.6628 H   0  0  0  0  0  0  0  0  0  0  0  0
    6.7046    1.4602  -22.1970 H   0  0  0  0  0  0  0  0  0  0  0  0
    3.9564   -0.9045  -21.2491 H   0  0  0  0  0  0  0  0  0  0  0  0
    4.6301    0.1043  -22.5738 H   0  0  0  0  0  0  0  0  0  0  0  0
    5.4994   -1.3741  -22.0396 H   0  0  0  0  0  0  0  0  0  0  0  0
   11.6235   -0.6814  -13.1298 H   0  0  0  0  0  0  0  0  0  0  0  0
   10.2786   -1.8160  -13.4907 H   0  0  0  0  0  0  0  0  0  0  0  0
   10.7372   -0.5570  -14.6871 H   0  0  0  0  0  0  0  0  0  0  0  0
    7.9985    1.7989  -14.9945 H   0  0  0  0  0  0  0  0  0  0  0  0
    8.9784    0.4665  -15.6953 H   0  0  0  0  0  0  0  0  0  0  0  0
    5.7516   -5.0193  -18.0329 H   0  0  0  0  0  0  0  0  0  0  0  0
    4.4584   -3.9858  -17.3355 H   0  0  0  0  0  0  0  0  0  0  0  0
    4.5053    2.0892  -21.0597 H   0  0  0  0  0  0  0  0  0  0  0  0
    3.8218    1.0115  -19.7956 H   0  0  0  0  0  0  0  0  0  0  0  0
    7.0662    0.2634  -13.3018 H   0  0  0  0  0  0  0  0  0  0  0  0
    7.9529   -1.1169  -14.0335 H   0  0  0  0  0  0  0  0  0  0  0  0
    7.4727   -3.5571  -17.0300 H   0  0  0  0  0  0  0  0  0  0  0  0
    5.9158    0.4458  -15.5270 H   0  0  0  0  0  0  0  0  0  0  0  0
    6.1593    8.3786  -20.9887 H   0  0  0  0  0  0  0  0  0  0  0  0
    4.4920    4.1449  -19.8100 H   0  0  0  0  0  0  0  0  0  0  0  0
    5.1050   -2.1128  -18.7465 H   0  0  0  0  0  0  0  0  0  0  0  0
    5.9248   -0.3316  -19.8198 H   0  0  0  0  0  0  0  0  0  0  0  0
    6.3713    2.6654  -19.4598 H   0  0  0  0  0  0  0  0  0  0  0  0
    3.9464    8.2699  -19.0571 H   0  0  0  0  0  0  0  0  0  0  0  0
    5.4201   -4.9513  -15.4388 H   0  0  0  0  0  0  0  0  0  0  0  0
    7.7750   -1.3108  -17.1013 H   0  0  0  0  0  0  0  0  0  0  0  0
    4.7450    1.2113  -17.3976 H   0  0  0  0  0  0  0  0  0  0  0  0
    2.8247    2.6252  -19.2325 H   0  0  0  0  0  0  0  0  0  0  0  0
  1  2  2  0  0  0  0
  1  8  1  0  0  0  0
  1  9  1  0  0  0  0
  3 10  1  0  0  0  0
  3 30  1  0  0  0  0
  3 35  2  0  0  0  0
  4 12  1  0  0  0  0
  4 31  1  0  0  0  0
  4 36  2  0  0  0  0
  5 23  1  0  0  0  0
  5 32  1  0  0  0  0
  5 37  2  0  0  0  0
  6 24  1  0  0  0  0
  6 33  1  0  0  0  0
  6 38  2  0  0  0  0
  7 25  1  0  0  0  0
  7 34  1  0  0  0  0
  7 39  2  0  0  0  0
  8 10  1  0  0  0  0
  9 11  1  0  0  0  0
 10 11  1  0  0  0  0
 11 26  1  0  0  0  0
 13 25  1  0  0  0  0
 14 27  1  0  0  0  0
 15 27  1  0  0  0  0
 16 28  1  0  0  0  0
 17 28  1  0  0  0  0
 18 41  1  0  0  0  0
 19 22  1  0  0  0  0
 19 24  1  0  0  0  0
 20 23  1  0  0  0  0
 20 27  1  0  0  0  0
 21 28  1  0  0  0  0
 21 29  1  0  0  0  0
 22 41  1  0  0  0  0
 23 31  1  0  0  0  0
 24 32  1  0  0  0  0
 25 30  1  0  0  0  0
 26 29  1  0  0  0  0
 26 40  1  0  0  0  0
 29 33  1  0  0  0  0
  2 42  1  0  0  0  0
  2 43  1  0  0  0  0
  8 44  1  0  0  0  0
  8 45  1  0  0  0  0
  9 46  1  0  0  0  0
  9 47  1  0  0  0  0
 10 48  1  0  0  0  0
 11 49  1  0  0  0  0
 12 50  1  0  0  0  0
 12 51  1  0  0  0  0
 12 52  1  0  0  0  0
 13 53  1  0  0  0  0
 13 54  1  0  0  0  0
 13 55  1  0  0  0  0
 14 56  1  0  0  0  0
 14 57  1  0  0  0  0
 14 58  1  0  0  0  0
 15 59  1  0  0  0  0
 15 60  1  0  0  0  0
 15 61  1  0  0  0  0
 16 62  1  0  0  0  0
 16 63  1  0  0  0  0
 16 64  1  0  0  0  0
 17 65  1  0  0  0  0
 17 66  1  0  0  0  0
 17 67  1  0  0  0  0
 18 68  1  0  0  0  0
 18 69  1  0  0  0  0
 18 70  1  0  0  0  0
 19 71  1  0  0  0  0
 19 72  1  0  0  0  0
 20 73  1  0  0  0  0
 20 74  1  0  0  0  0
 21 75  1  0  0  0  0
 21 76  1  0  0  0  0
 22 77  1  0  0  0  0
 22 78  1  0  0  0  0
 23 79  1  0  0  0  0
 24 80  1  0  0  0  0
 25 81  1  0  0  0  0
 26 82  1  0  0  0  0
 27 83  1  0  0  0  0
 28 84  1  0  0  0  0
 29 85  1  0  0  0  0
 30 86  1  0  0  0  0
 31 87  1  0  0  0  0
 32 88  1  0  0  0  0
 33 89  1  0  0  0  0
 40 90  1  0  0  0  0
M  CHG  1  34  -1
M  END
> <OMEGA_C>
gxeYQEY7rkCtFXnBp9KXQGPQskD+S2PBNfWrQIAB2UAIzpfB0I7qQCIrmsAlEmvBeWbEQA75BsD2
KoHB6L/ZQFGWmT/1u4rBnATUQKN+HEElSZvBaE6ZQBaK0kAJeITB2NiXQB+JhECzqYLB5P2SQIyS
vkDZgY/BE3ajQIlWkEBgP47BxXjkQFwuwMAIJVzB3OGSQDatHUGqkqfBoGSUQI41ccDqg6DBi87e
QJiDO8B7NZzB8bXeQDr3VD+kparBdTacQPvBBr+pqq3BbUUqQTEDSb8y2FnBk5QAQQ5dNz9L93LB
Z2evQLCef8A+643BleaXQKexuT/Yk6HBaDL/QODOB70Jil3BGULOQEIIYsDtGIXBSUjbQFyNpD4m
uIDBW2KzQDUsD0FV0qHBPCWQQKrhZECU8pbB05mwQMqERsDH8JfBwz21QLywnD47a6XBLmGsQG4W
FUDn0JjBmoebQL0qAEE19JrB9LPJQKLsj8CZ73jBHgbgQFRhir+3F4TBCgqyQKMNxD80/o7BCPri
QC40FUH3pZLBDxzQQK1DzkCpi5rB8qIGQXvvh8A2+2vBSKKjQPqN8b9aInjBXQ37QFkDzT9c047B
/RHgQLxiLkEj1J7By2VKQKxjTEAjZ5TBVi8XQYzOwz5JgE3Bl2SXQGbblkDvI1nBaAqYQKdi0kC2
RFzBlfl+QMJ76UD3xYLB1V24QO4G40C2E4TBQKavQFmcXEA2pn7BM+JvQGpxa0DPV4LB/Y9hQHs3
vkC/k5HBA4HGQMZTkEAZFI/BD0IBQRuKxsAGi1PBB/7KQBzuuMAijlDBPn/bQEGM3MC6jGXBFHp4
QOS+E0F0IKzB3USBQLozJ0E5oKHBpOqjQMxzKEFCE63BdlNnQDzEeMD5ap3Bx8GTQBTtSMADu6fB
q5yhQH04mMDPhqLByLfyQCf+HMAvCZbBJDDsQPWgesDyNZ7BQFXeQA8dE8AnaqPBNMbwQPTRtj+0
yqTBW13yQO7ZlLxhTa3BGIzWQFPouj9sk7HBSTV9QHmOZ78k/qnBAiqUQFiK1T0Zl7TBRfuvQBXj
r78OUbDBD/o5QdhwLr+tE1LBH3UkQW9x6L8I2lfBf8srQS6XDr94/mrBbvP/QAlD5j+R6W/BnqcP
QdDZ7j7BH3vBywy4QAyeoMB4Q5DBaKuOQOwXf8Acr4rBUCuQQKy1BUBReqjBlZh0QGp4gT9fXZ7B
kx7iQCLWhj4R1FTBQn7+QG71jr9WiWDBgCDvQMWnY8B2PYjB3U29QMg55D58bnjBvBjFQLEOBkHH
6KfBF76PQFSjhEDQep7B/1ujQCc4B8DX+JXB+Ze9QIjEqb4Nj57BleHLQIOWKkDErZvB35F8QJdR
BEHedJjBZXGtQLFwnsB3BXfB8cz4QOjHp79sz4jBFteXQF8Lmz9ULovBJ8c0QPUCKEAl3JnB

> <OMEGA_E>
RhkzPw==

> <OMEGA_NBR>
      8816

$$$$
29147
  -OEChem-04172616093D

 82 81  0     1  0  0  0  0  0999 V2000
    7.2787   -4.6235  -14.6782 C   0  0  0  0  0  0  0  0  0  0  0  0
    5.4522    6.6394  -18.7684 C   0  0  0  0  0  0  0  0  0  0  0  0
    6.0045   -2.0142  -16.1452 C   0  0  0  0  0  0  0  0  0  0  0  0
    6.7892    1.3204  -17.2384 C   0  0  0  0  0  0  0  0  0  0  0  0
    7.1143   -5.7062  -13.6214 C   0  0  0  0  0  0  0  0  0  0  0  0
    6.1850    9.8888  -23.1343 C   0  0  0  0  0  0  0  0  0  0  0  0
    4.7657    6.5215  -16.3653 C   0  0  0  0  0  0  0  0  0  0  0  0
    7.8910    0.7027  -15.0016 C   0  0  0  0  0  0  0  0  0  0  0  0
    4.3241   -3.7248  -19.9881 C   0  0  0  0  0  0  0  0  0  0  0  0
    6.6658   -2.9020  -19.5432 C   0  0  0  0  0  0  0  0  0  0  0  0
    7.0856    0.7414  -21.3259 C   0  0  0  0  0  0  0  0  0  0  0  0
    4.9238   -0.4270  -21.8759 C   0  0  0  0  0  0  0  0  0  0  0  0
    5.3606   10.4762  -21.9782 C   0  0  0  0  0  0  0  0  0  0  0  0
    4.6387    9.3822  -21.1666 C   0  0  0  0  0  0  0  0  0  0  0  0
    5.1255    4.3726  -17.6490 C   0  0  0  0  0  0  0  0  0  0  0  0
    5.2622   -3.9229  -17.6805 C   0  0  0  0  0  0  0  0  0  0  0  0
    4.8639    1.5498  -20.3408 C   0  0  0  0  0  0  0  0  0  0  0  0
    5.6003    8.6693  -20.2122 C   0  0  0  0  0  0  0  0  0  0  0  0
    4.6348    5.8395  -17.7351 C   0  0  2  0  0  0  0  0  0  0  0  0
    6.2909   -3.4409  -16.6393 C   0  0  2  0  0  0  0  0  0  0  0  0
    6.7656    0.3942  -16.0109 C   0  0  2  0  0  0  0  0  0  0  0  0
    5.2445   -3.0537  -18.9527 C   0  0  0  0  0  0  0  0  0  0  0  0
    5.7014    0.3302  -20.7818 C   0  0  0  0  0  0  0  0  0  0  0  0
    5.4932    2.3418  -19.1684 C   0  0  1  0  0  0  0  0  0  0  0  0
    4.6253    3.5898  -18.8797 C   0  0  1  0  0  0  0  0  0  0  0  0
    4.8449    7.7032  -19.4134 N   0  0  0  0  0  0  0  0  0  0  0  0
    6.2184   -4.3785  -15.5300 N   0  0  0  0  0  0  0  0  0  0  0  0
    6.8993   -0.9987  -16.4686 N   0  0  0  0  0  0  0  0  0  0  0  0
    5.6162    1.4723  -17.9780 N   0  0  0  0  0  0  0  0  0  0  0  0
    8.3641   -4.0720  -14.8306 O   0  0  0  0  0  0  0  0  0  0  0  0
    6.6510    6.4228  -18.9213 O   0  0  0  0  0  0  0  0  0  0  0  0
    4.9707   -1.7795  -15.5285 O   0  0  0  0  0  0  0  0  0  0  0  0
    7.8208    1.9041  -17.5563 O   0  0  0  0  0  0  0  0  0  0  0  0
    3.2603    3.2337  -18.6511 O   0  0  0  0  0  0  0  0  0  0  0  0
    8.0699   -5.8565  -13.0978 H   0  0  0  0  0  0  0  0  0  0  0  0
    6.3445   -5.3987  -12.8983 H   0  0  0  0  0  0  0  0  0  0  0  0
    6.8091   -6.6463  -14.1042 H   0  0  0  0  0  0  0  0  0  0  0  0
    6.6802   10.7034  -23.6831 H   0  0  0  0  0  0  0  0  0  0  0  0
    6.9450    9.2032  -22.7312 H   0  0  0  0  0  0  0  0  0  0  0  0
    5.5198    9.3388  -23.8163 H   0  0  0  0  0  0  0  0  0  0  0  0
    4.1860    5.9593  -15.6184 H   0  0  0  0  0  0  0  0  0  0  0  0
    5.8241    6.5439  -16.0667 H   0  0  0  0  0  0  0  0  0  0  0  0
    4.3809    7.5500  -16.4296 H   0  0  0  0  0  0  0  0  0  0  0  0
    7.8208    0.0098  -14.1502 H   0  0  0  0  0  0  0  0  0  0  0  0
    8.8676    0.5815  -15.4932 H   0  0  0  0  0  0  0  0  0  0  0  0
    7.7874    1.7371  -14.6420 H   0  0  0  0  0  0  0  0  0  0  0  0
    3.3137   -3.8319  -19.5664 H   0  0  0  0  0  0  0  0  0  0  0  0
    4.2788   -3.1040  -20.8951 H   0  0  0  0  0  0  0  0  0  0  0  0
    4.7220   -4.7181  -20.2431 H   0  0  0  0  0  0  0  0  0  0  0  0
    7.3220   -2.4223  -18.8021 H   0  0  0  0  0  0  0  0  0  0  0  0
    7.0648   -3.8949  -19.7980 H   0  0  0  0  0  0  0  0  0  0  0  0
    6.6216   -2.2809  -20.4500 H   0  0  0  0  0  0  0  0  0  0  0  0
    7.6411    1.2820  -20.5454 H   0  0  0  0  0  0  0  0  0  0  0  0
    7.6465   -0.1584  -21.6185 H   0  0  0  0  0  0  0  0  0  0  0  0
    6.9560    1.3938  -22.2020 H   0  0  0  0  0  0  0  0  0  0  0  0
    3.9369   -0.7204  -21.4887 H   0  0  0  0  0  0  0  0  0  0  0  0
    4.7946    0.2256  -22.7520 H   0  0  0  0  0  0  0  0  0  0  0  0
    5.4851   -1.3266  -22.1685 H   0  0  0  0  0  0  0  0  0  0  0  0
    6.0344   11.0292  -21.3072 H   0  0  0  0  0  0  0  0  0  0  0  0
    4.6093   11.1647  -22.3923 H   0  0  0  0  0  0  0  0  0  0  0  0
    3.8308    9.8452  -20.5810 H   0  0  0  0  0  0  0  0  0  0  0  0
    4.2113    8.6442  -21.8614 H   0  0  0  0  0  0  0  0  0  0  0  0
    6.2251    4.3548  -17.6253 H   0  0  0  0  0  0  0  0  0  0  0  0
    4.7314    3.9073  -16.7335 H   0  0  0  0  0  0  0  0  0  0  0  0
    5.5086   -4.9565  -17.9649 H   0  0  0  0  0  0  0  0  0  0  0  0
    4.2619   -3.8968  -17.2237 H   0  0  0  0  0  0  0  0  0  0  0  0
    4.7567    2.2276  -21.2006 H   0  0  0  0  0  0  0  0  0  0  0  0
    3.8709    1.1950  -20.0276 H   0  0  0  0  0  0  0  0  0  0  0  0
    6.3744    8.1447  -20.7915 H   0  0  0  0  0  0  0  0  0  0  0  0
    6.0757    9.4062  -19.5482 H   0  0  0  0  0  0  0  0  0  0  0  0
    3.5771    5.8428  -18.0371 H   0  0  0  0  0  0  0  0  0  0  0  0
    7.2936   -3.4676  -17.0908 H   0  0  0  0  0  0  0  0  0  0  0  0
    5.7990    0.5176  -15.5006 H   0  0  0  0  0  0  0  0  0  0  0  0
    4.8477   -2.0579  -18.7060 H   0  0  0  0  0  0  0  0  0  0  0  0
    5.8419   -0.3363  -19.9181 H   0  0  0  0  0  0  0  0  0  0  0  0
    6.4940    2.6791  -19.4760 H   0  0  0  0  0  0  0  0  0  0  0  0
    4.6886    4.2549  -19.7535 H   0  0  0  0  0  0  0  0  0  0  0  0
    3.8546    7.8155  -19.3306 H   0  0  0  0  0  0  0  0  0  0  0  0
    5.3608   -4.8692  -15.3763 H   0  0  0  0  0  0  0  0  0  0  0  0
    7.6813   -1.2292  -17.0477 H   0  0  0  0  0  0  0  0  0  0  0  0
    4.8079    0.9615  -17.6851 H   0  0  0  0  0  0  0  0  0  0  0  0
    2.9296    2.7491  -19.3983 H   0  0  0  0  0  0  0  0  0  0  0  0
  1  5  1  0  0  0  0
  1 27  1  0  0  0  0
  1 30  2  0  0  0  0
  2 19  1  0  0  0  0
  2 26  1  0  0  0  0
  2 31  2  0  0  0  0
  3 20  1  0  0  0  0
  3 28  1  0  0  0  0
  3 32  2  0  0  0  0
  4 21  1  0  0  0  0
  4 29  1  0  0  0  0
  4 33  2  0  0  0  0
  6 13  1  0  0  0  0
  7 19  1  0  0  0  0
  8 21  1  0  0  0  0
  9 22  1  0  0  0  0
 10 22  1  0  0  0  0
 11 23  1  0  0  0  0
 12 23  1  0  0  0  0
 13 14  1  0  0  0  0
 14 18  1  0  0  0  0
 15 19  1  0  0  0  0
 15 25  1  0  0  0  0
 16 20  1  0  0  0  0
 16 22  1  0  0  0  0
 17 23  1  0  0  0  0
 17 24  1  0  0  0  0
 18 26  1  0  0  0  0
 20 27  1  0  0  0  0
 21 28  1  0  0  0  0
 24 25  1  0  0  0  0
 24 29  1  0  0  0  0
 25 34  1  0  0  0  0
  5 35  1  0  0  0  0
  5 36  1  0  0  0  0
  5 37  1  0  0  0  0
  6 38  1  0  0  0  0
  6 39  1  0  0  0  0
  6 40  1  0  0  0  0
  7 41  1  0  0  0  0
  7 42  1  0  0  0  0
  7 43  1  0  0  0  0
  8 44  1  0  0  0  0
  8 45  1  0  0  0  0
  8 46  1  0  0  0  0
  9 47  1  0  0  0  0
  9 48  1  0  0  0  0
  9 49  1  0  0  0  0
 10 50  1  0  0  0  0
 10 51  1  0  0  0  0
 10 52  1  0  0  0  0
 11 53  1  0  0  0  0
 11 54  1  0  0  0  0
 11 55  1  0  0  0  0
 12 56  1  0  0  0  0
 12 57  1  0  0  0  0
 12 58  1  0  0  0  0
 13 59  1  0  0  0  0
 13 60  1  0  0  0  0
 14 61  1  0  0  0  0
 14 62  1  0  0  0  0
 15 63  1  0  0  0  0
 15 64  1  0  0  0  0
 16 65  1  0  0  0  0
 16 66  1  0  0  0  0
 17 67  1  0  0  0  0
 17 68  1  0  0  0  0
 18 69  1  0  0  0  0
 18 70  1  0  0  0  0
 19 71  1  0  0  0  0
 20 72  1  0  0  0  0
 21 73  1  0  0  0  0
 22 74  1  0  0  0  0
 23 75  1  0  0  0  0
 24 76  1  0  0  0  0
 25 77  1  0  0  0  0
 26 78  1  0  0  0  0
 27 79  1  0  0  0  0
 28 80  1  0  0  0  0
 29 81  1  0  0  0  0
 34 82  1  0  0  0  0
M  END
> <OMEGA_C>
ZOvoQIfzk8AN2mrBzXiuQAp21EC4JZbBfiTAQLToAMBZKYHB3kDZQGsCqT9V6InBFKjjQFqZtsA1
8VnBL+vFQGY4HkELE7nBcYCYQLiv0EAc7ILBIoP8QIfjMz+zBnDBpV6KQMJibsCf55/BGk7VQOe5
OcCIWJzBBb3iQFXOPT9xm6rB7I+dQEib2r7wAa/B/omrQGyeJ0FU06/B1W+UQFEdFkE0VanBdASk
QLHsi0BBMY3B1mOoQDAQe8CgcY3Bu6SbQCthxj/2uaLB9DWzQHC1CkGZsqHBD1CUQDLdukCE4Y3B
007JQNU3XMAxHYXB9n/YQHLOyT5HFoDB4NKnQH5wQ8A4n5fB+XG2QP4TqT45QabBM8ivQFLfFUDb
WJnBkAKUQOG+ZUCiCZfBDAmbQFyA9kCkTpvBWP3GQKscjMDsenjB6MbcQJ2nf7/Jv4PBqrezQIl0
vD/z0o/BYtMFQfNNgsBWSm3BLdXUQPKHzUDEXpfB8Q+fQMHG47+9dHjB0kP6QBK68z9Uc4zBcqlQ
QKb0TkCENZXBbR4BQQpou8CYkFHBXgbLQPnBrMBDX07BG+TZQKeu1MCyqmHBecTVQPRAK0Htdr3B
Jj3eQIBAE0GX2bXBgqKwQJVrFUHBh77BY/OFQIyyvkDJ5HnBTl+6QLRn0UCOiIDBsDCMQE6Z8UDX
b4PBl0P6QAcBITwSZ2LBjeENQTTcFD8t5HfBYTL5QDNY3j+rRWrBaxRUQIE9dcAIiJzBsuuIQL6o
RsAnKafBvBqXQGb6lsDI8aHBC07qQKcHG8CpapbB4hLiQNNFecBHYp7B2ePTQMT5EcCmmaPBAYT0
QGgXpD/1XKTBC7D0QOs6Ir698qzBnpfeQAJosj/InbHBvvZ7QFBrOL/Y6KvBP22ZQGL/Zj4bBLbB
rYWvQHPPqb8PWbHBvBnBQHt3MEEwdarBGH+TQI+iMkFaI7PBcit1QO2FHUHipaTBz8KGQLpOCkE9
5K7BXjTHQEtai0CqAI3B2meXQNsRekBI3oXBY0awQIqbnsApuI/BHWGIQIdlecAfyonBHDeYQJ6Q
DkDDmqnBNLx3QFr3mD+TOKDBMvvLQItQAkH2VKbBBmzCQP9/FkGnYpzBcu5kQDz4ukAQTJDB72Tp
QPXtXcDtuYjBRZG5QLaDBD+IAnjBcCCbQPW0A8DMpZXBn/C6QK4rrL5IWJ/Bvc7PQD92K0DJzpvB
9QiWQH0oiEAzB57Ba7J2QH4Y+kAGpZrBU4urQHPQm8BjBXbBDM31QGFWnb+6YYjBW9qZQOokdj8c
e43BM387QO3wL0DEL5vB4GzmQAvXmMD+eW7B0RWqQFBH00BCRpbBDS7EQLvW6L9Sj37BdvTYQOm/
uD8tOorB3vLcQGG9u8CsGl7BHbDNQED1NkEDL6/BqQybQNagzUBHrYLB+239QCYcZD/8j3DBWX/c
QAadk8DW/JjBP6mOQKL1i8DZG57BIUThQPhZIj8H7qrBhkqcQBZFDr9iGa/BptC6QLp7IEFo0K/B
ITyyQGvJF0EriqTB2YikQOzviUA0nI3BYaWoQOL0TsB5to3B7B+aQPUsvD+0LqPBsEidQOLuAUHD
xqXBZduTQCp9uEARmI3Bu+LJQPS8ScC4s4TBt2DYQKgEGT/VCoDBSjauQGGNj8Dws5TBAPy0QKDw
bD4kfabBntGuQKhFE0CPE5rB+RCTQPjLYkBbdpfBL76RQDvV8UBNcZvBAMrEQOuWiMA7e3rBKJvb
QGmqR786h4PBjDO0QH1ruj9thpDB2woFQZBviMDCDG/BE3rPQJGizECw0pjBZOKnQJ5D0r/IPnHB
UYH5QIB8AkBq84zBkndPQL4oS0C4S5XBmav5QBG2wcCVYFTBfZTCQG5gscDpqFPB2b7TQMJR2cAu
dmbBKq3TQE7+PEE4ULfB8QW3QL6fQUHPEqvByPnrQFt3NkHatKrBNzWLQA6ZukAu2HjBSpK9QBtX
z0AbA4HB14mNQFoh7kC1woLBqZf6QACdeD4famLBagwOQf8IMj9unXjBpRj8QAjz+D8akGvBf93y
QLkqlsALOZLBwxPfQAVksMCeA57Bv3PkQKBWbsBixp3BnLJbQMAVicBKAZvBRnqWQOIAX8C+56LB
ShqRQCa5qMD6JKPB7/ryQLwnmT97zKTBx1LzQG6air5mFq3B2AndQEG7oT/GEbLBaXV5QA0ZWL+b
9avBzh2YQD+bmD1OPLbBvGauQCnYur/uQLHB1ZKcQBQHIUEtT7TBrYbRQLHeFUE48bPBXIfQQMk6
FkFjIKDBB7WcQD+qIkGAMaDB2bbHQGg3ikCe5o3B9+SZQG2Ec0DoQobB5H+IQEsyUMCMIYrBX9ur
QBruFcBkz5LBQEWWQLScB0AYOarB7AZ1QP7wjz8DeaDBdTWAQNyeA0EaqqrB8suzQGof7kCczanB
vphiQDL0t0DDQo/BmAHqQHY5TMDESYjByd65QJ15Qj8tsnfB3mamQJEjrMA09I/BJoe5QMjK0r64
cJ/BmV/OQP94KUAG0ZzBWiCUQLsQh0CBZJ7BK89tQKwL/ECL6ZfBcNinQIXZlcC93XjBADfwQOum
fb9BaYnB4gOcQGAkWz9Gb47B18M4QGntLEBvP5vB

> <OMEGA_E>
4EvFPvj5Az8=

> <OMEGA_NBR>
     11688

$$$$
50161007
  -OEChem-04172616093D

 80 79  0     1  0  0  0  0  0999 V2000
    7.1467   -4.4563  -15.0900 C   0  0  0  0  0  0  0  0  0  0  0  0
    5.4616    6.5551  -18.8258 C   0  0  0  0  0  0  0  0  0  0  0  0
    6.0423   -1.8920  -16.3598 C   0  0  0  0  0  0  0  0  0  0  0  0
    6.8651    1.4052  -17.2278 C   0  0  0  0  0  0  0  0  0  0  0  0
    6.9579   -5.3950  -13.8981 C   0  0  0  0  0  0  0  0  0  0  0  0
    6.4773    9.8947  -22.9963 C   0  0  0  0  0  0  0  0  0  0  0  0
    4.6523    6.5299  -16.4586 C   0  0  0  0  0  0  0  0  0  0  0  0
    4.9233   -3.4971  -18.0005 C   0  0  0  0  0  0  0  0  0  0  0  0
    6.9857    0.5264  -21.1370 C   0  0  0  0  0  0  0  0  0  0  0  0
    4.8955   -0.8319  -21.4756 C   0  0  0  0  0  0  0  0  0  0  0  0
   10.7747   -0.7576  -13.5516 C   0  0  0  0  0  0  0  0  0  0  0  0
    5.4556   10.4542  -21.9895 C   0  0  0  0  0  0  0  0  0  0  0  0
    4.7172    9.3365  -21.2278 C   0  0  0  0  0  0  0  0  0  0  0  0
    8.2781    0.7248  -15.2275 C   0  0  0  0  0  0  0  0  0  0  0  0
    5.0437    4.3297  -17.6472 C   0  0  0  0  0  0  0  0  0  0  0  0
    4.7516    1.2984  -20.1381 C   0  0  0  0  0  0  0  0  0  0  0  0
    5.6738    8.5256  -20.3428 C   0  0  0  0  0  0  0  0  0  0  0  0
    8.1484    0.1044  -13.8313 C   0  0  0  0  0  0  0  0  0  0  0  0
    4.5822    5.7992  -17.8090 C   0  0  2  0  0  0  0  0  0  0  0  0
    6.1221   -3.2722  -17.0523 C   0  0  2  0  0  0  0  0  0  0  0  0
    7.0102    0.4370  -16.0584 C   0  0  2  0  0  0  0  0  0  0  0  0
    5.6530    0.0820  -20.4943 C   0  0  0  0  0  0  0  0  0  0  0  0
    5.3880    2.2391  -19.0848 C   0  0  1  0  0  0  0  0  0  0  0  0
    4.4887    3.4669  -18.8058 C   0  0  1  0  0  0  0  0  0  0  0  0
    4.8862    7.5837  -19.5512 N   0  0  0  0  0  0  0  0  0  0  0  0
    6.1201   -4.3218  -16.0223 N   0  0  0  0  0  0  0  0  0  0  0  0
    7.0282   -0.9379  -16.6115 N   0  0  0  0  0  0  0  0  0  0  0  0
    5.6317    1.4717  -17.8571 N   0  0  0  0  0  0  0  0  0  0  0  0
    8.1351   -3.7307  -15.1301 O   0  0  0  0  0  0  0  0  0  0  0  0
    6.6724    6.3576  -18.8809 O   0  0  0  0  0  0  0  0  0  0  0  0
    5.1633   -1.6816  -15.5307 O   0  0  0  0  0  0  0  0  0  0  0  0
    7.8178    2.0746  -17.6166 O   0  0  0  0  0  0  0  0  0  0  0  0
    3.1609    3.0686  -18.4625 O   0  0  0  0  0  0  0  0  0  0  0  0
    9.6381    0.4966  -12.8398 S   0  0  0  0  0  0  0  0  0  0  0  0
    7.7981   -5.2738  -13.1985 H   0  0  0  0  0  0  0  0  0  0  0  0
    6.0158   -5.1512  -13.3851 H   0  0  0  0  0  0  0  0  0  0  0  0
    6.9235   -6.4356  -14.2529 H   0  0  0  0  0  0  0  0  0  0  0  0
    6.9770   10.7271  -23.5134 H   0  0  0  0  0  0  0  0  0  0  0  0
    7.2268    9.2926  -22.4617 H   0  0  0  0  0  0  0  0  0  0  0  0
    5.9582    9.2641  -23.7332 H   0  0  0  0  0  0  0  0  0  0  0  0
    4.0290    6.0013  -15.7223 H   0  0  0  0  0  0  0  0  0  0  0  0
    5.6946    6.5524  -16.1076 H   0  0  0  0  0  0  0  0  0  0  0  0
    4.2838    7.5593  -16.5792 H   0  0  0  0  0  0  0  0  0  0  0  0
    5.0110   -4.4855  -18.4753 H   0  0  0  0  0  0  0  0  0  0  0  0
    3.9869   -3.4486  -17.4254 H   0  0  0  0  0  0  0  0  0  0  0  0
    4.9180   -2.7171  -18.7761 H   0  0  0  0  0  0  0  0  0  0  0  0
    7.5301    1.1796  -20.4391 H   0  0  0  0  0  0  0  0  0  0  0  0
    7.5973   -0.3597  -21.3624 H   0  0  0  0  0  0  0  0  0  0  0  0
    6.7788    1.0755  -22.0674 H   0  0  0  0  0  0  0  0  0  0  0  0
    3.9456   -1.1507  -21.0217 H   0  0  0  0  0  0  0  0  0  0  0  0
    4.6908   -0.2814  -22.4057 H   0  0  0  0  0  0  0  0  0  0  0  0
    5.5093   -1.7166  -21.7007 H   0  0  0  0  0  0  0  0  0  0  0  0
   11.7589   -0.6784  -13.0668 H   0  0  0  0  0  0  0  0  0  0  0  0
   10.3627   -1.7634  -13.3828 H   0  0  0  0  0  0  0  0  0  0  0  0
   10.8833   -0.5824  -14.6322 H   0  0  0  0  0  0  0  0  0  0  0  0
    5.9849   11.0881  -21.2629 H   0  0  0  0  0  0  0  0  0  0  0  0
    4.7164   11.0597  -22.5344 H   0  0  0  0  0  0  0  0  0  0  0  0
    3.9418    9.7898  -20.5928 H   0  0  0  0  0  0  0  0  0  0  0  0
    4.2456    8.6602  -21.9560 H   0  0  0  0  0  0  0  0  0  0  0  0
    8.4101    1.8126  -15.1309 H   0  0  0  0  0  0  0  0  0  0  0  0
    9.1522    0.2932  -15.7371 H   0  0  0  0  0  0  0  0  0  0  0  0
    6.1429    4.2903  -17.6586 H   0  0  0  0  0  0  0  0  0  0  0  0
    4.6725    3.9352  -16.6898 H   0  0  0  0  0  0  0  0  0  0  0  0
    4.5645    1.8759  -21.0555 H   0  0  0  0  0  0  0  0  0  0  0  0
    3.7974    0.9224  -19.7405 H   0  0  0  0  0  0  0  0  0  0  0  0
    6.3865    7.9747  -20.9741 H   0  0  0  0  0  0  0  0  0  0  0  0
    6.2244    9.2032  -19.6736 H   0  0  0  0  0  0  0  0  0  0  0  0
    7.2582    0.5132  -13.3309 H   0  0  0  0  0  0  0  0  0  0  0  0
    8.0481   -0.9871  -13.9242 H   0  0  0  0  0  0  0  0  0  0  0  0
    3.5414    5.8063  -18.1648 H   0  0  0  0  0  0  0  0  0  0  0  0
    7.0526   -3.3236  -17.6367 H   0  0  0  0  0  0  0  0  0  0  0  0
    6.1347    0.5488  -15.4020 H   0  0  0  0  0  0  0  0  0  0  0  0
    5.8698   -0.4808  -19.5744 H   0  0  0  0  0  0  0  0  0  0  0  0
    6.3479    2.5999  -19.4826 H   0  0  0  0  0  0  0  0  0  0  0  0
    4.4662    4.0875  -19.7138 H   0  0  0  0  0  0  0  0  0  0  0  0
    3.8916    7.6863  -19.5328 H   0  0  0  0  0  0  0  0  0  0  0  0
    5.3533   -4.9629  -15.9898 H   0  0  0  0  0  0  0  0  0  0  0  0
    7.7934   -1.1972  -17.2007 H   0  0  0  0  0  0  0  0  0  0  0  0
    4.8668    0.9700  -17.4532 H   0  0  0  0  0  0  0  0  0  0  0  0
    2.7989    2.5364  -19.1611 H   0  0  0  0  0  0  0  0  0  0  0  0
  1  5  1  0  0  0  0
  1 26  1  0  0  0  0
  1 29  2  0  0  0  0
  2 19  1  0  0  0  0
  2 25  1  0  0  0  0
  2 30  2  0  0  0  0
  3 20  1  0  0  0  0
  3 27  1  0  0  0  0
  3 31  2  0  0  0  0
  4 21  1  0  0  0  0
  4 28  1  0  0  0  0
  4 32  2  0  0  0  0
  6 12  1  0  0  0  0
  7 19  1  0  0  0  0
  8 20  1  0  0  0  0
  9 22  1  0  0  0  0
 10 22  1  0  0  0  0
 11 34  1  0  0  0  0
 12 13  1  0  0  0  0
 13 17  1  0  0  0  0
 14 18  1  0  0  0  0
 14 21  1  0  0  0  0
 15 19  1  0  0  0  0
 15 24  1  0  0  0  0
 16 22  1  0  0  0  0
 16 23  1  0  0  0  0
 17 25  1  0  0  0  0
 18 34  1  0  0  0  0
 20 26  1  0  0  0  0
 21 27  1  0  0  0  0
 23 24  1  0  0  0  0
 23 28  1  0  0  0  0
 24 33  1  0  0  0  0
  5 35  1  0  0  0  0
  5 36  1  0  0  0  0
  5 37  1  0  0  0  0
  6 38  1  0  0  0  0
  6 39  1  0  0  0  0
  6 40  1  0  0  0  0
  7 41  1  0  0  0  0
  7 42  1  0  0  0  0
  7 43  1  0  0  0  0
  8 44  1  0  0  0  0
  8 45  1  0  0  0  0
  8 46  1  0  0  0  0
  9 47  1  0  0  0  0
  9 48  1  0  0  0  0
  9 49  1  0  0  0  0
 10 50  1  0  0  0  0
 10 51  1  0  0  0  0
 10 52  1  0  0  0  0
 11 53  1  0  0  0  0
 11 54  1  0  0  0  0
 11 55  1  0  0  0  0
 12 56  1  0  0  0  0
 12 57  1  0  0  0  0
 13 58  1  0  0  0  0
 13 59  1  0  0  0  0
 14 60  1  0  0  0  0
 14 61  1  0  0  0  0
 15 62  1  0  0  0  0
 15 63  1  0  0  0  0
 16 64  1  0  0  0  0
 16 65  1  0  0  0  0
 17 66  1  0  0  0  0
 17 67  1  0  0  0  0
 18 68  1  0  0  0  0
 18 69  1  0  0  0  0
 19 70  1  0  0  0  0
 20 71  1  0  0  0  0
 21 72  1  0  0  0  0
 22 73  1  0  0  0  0
 23 74  1  0  0  0  0
 24 75  1  0  0  0  0
 25 76  1  0  0  0  0
 26 77  1  0  0  0  0
 27 78  1  0  0  0  0
 28 79  1  0  0  0  0
 33 80  1  0  0  0  0
M  END
> <OMEGA_C>
a7HkQCiajsBycHHBksWuQL/D0UBSm5bBgVrBQD4t8r/t4ILBua7bQI7dsz960onB+KbeQJujrMBs
Xl7BF0bPQI1QHkF0+LfBrN+UQO300EAvq4PBcYudQAfRX8AVAZDB5IrfQETABj+KGKnBAqicQD35
VL8HzqvBUmUsQZ7vQb+M01jBY5SuQFtEJ0GF6q/BjfOWQCdiFUGi0qnBGnMEQcuMOT/yo3PBEWah
QM2MikCQLY3BOQ2YQGYzpj/bGqHB4Y+1QAxpCEEDvqLB+l8CQaDB1T3oTF3BsKGSQEuTuUDqeI7B
f+jDQH1sUcAga4jB8lPgQDbE3z6zd4DBV+W0QGwDqD1a9KPBKWqsQGZND0CbrZjBvKOPQJ/hXUBS
cpbBbVucQPat8kDhaJzB29fDQJhMisCSLYDB8ebgQLsXcL9K5ITBLje0QGBhvD9l247BgSkCQQfD
bsD7FHLBeoTVQH9xy0D+C5fBqDmlQOg/17/efXjBZyv6QPvFBEC57ozBvExKQLhkREA8s5PBzTUa
QVFC/j6xb03BPYr5QNfCqMBBLVPBwYHAQGPWpMBjKVbBZ43dQH3wzcDEC2TBO0PfQDaiK0F8G7zB
l0HnQGKuFEGSsbPBxqm+QOk5FEGU3b3BP+2AQOUKwECzjnvB+Tm2QAat0UBz3IDBiRSJQJbl8UBE
ooTBM1qgQDaJj8B4zZPBJCl/QFm2XMAeZ4vBYmCdQNHkLcByNZbBYvbwQG78lj9dg6PBAx3zQGAr
uL5D5qrBNezYQCqqiT8DirDBVIR8QElKk795LKjBJBuWQPIQkL7GPrPB8kuwQD+5278Gm63BjCQ8
QcyuLb9wEVHBxM0lQbG34b/yH1bBMCIuQTcbFb9iHWrBWoS/QPpoMUFqGqrBieyWQIH0MEFsRrTB
KEd8QB2jHEEhvqTBQdyHQCaQCkH2pa/Bn48GQZoC6D9EGHLBaG8SQaYilj5Ly3vBAJPEQPZJiUDZ
RI3BgYWVQEXae0DOhIXBhBCSQE8e8D+QcajBhQhzQPsjbD+Z7J3B/13MQPUw/0AEy6fBjC7HQCxA
E0GPY53BTkPoQDdeAz84S1XBA8UAQWGyfL9WyV7BBaZiQPzMuUCIUZHBTq/hQH+2VMDtF43Bsk/E
QHJ8DD9nbnbBCNW7QLYw9r5vmJzBViLLQK1kJkBX3JvBSOuOQMnMgkDFtZ3BCxB5QBr29UAaQ5zB
cU6rQHLQnsAg1n/BnmP5QK4+mb//monBMb2bQCZQeD8SoIvBxCAzQM5TIkAJSpnBj7fkQO7xksA9
k27BSQWwQNXB0EDfepXBFmfHQG0N9b/6TILBr1/ZQCz1tT/WgorBpgLaQMp+tsDJr17BzuyWQOmz
NUHDHK3Bo32YQDLyz0B6VoLBFC2zQDdzXsDQU5HB+V/bQB7mDj/rCarB3siWQHS3OL+VmqzBh3wp
QYAuFr+q/ljB4MKNQIzGHkF+gKnBY0y4QBuyEkHgjKjBHswAQXq/ZT/0zXLB3bSfQL4CikBblozB
DTSVQCzVtD+72qHBaD2wQMi39UDKJKfBmcX9QFS5Dj7NiF3BdoiTQP38uUBZPo3BmlrQQLNvUcCC
jIfB/FPcQCigAz8FzYDB2mqwQDqfJz720KTBzI6qQE3TE0BWP5nBC7GOQAMVY0BAipbBuQqdQJ9n
7EDlsZzBNSrJQKZTi8DFo3/BQBXiQPpuWr8a04TB+R2yQGfTwD9Dn4/Ba0QDQT2ifsDvyGzBiE/W
QKVIyEB+GpbBASipQNOt478/QnjBRSD5QH9eAEAF6o3BAP1GQCf/SkCzYJTBWMoVQXSJCD8fgkzB
ECr0QBmoucCNA1PBTyS8QJePrsDaQlbBQQDWQPHh1MA+V2fB0EJxQOSMPkGe063BGJSrQPagPUGj
MKfBkCunQBFsNUH66rTBziGEQO+6v0CT03jBox26QDgwzkBqi3/Bu8mOQCWt8UDLAYPBffy5QIF9
jsCP/pTBYH+RQOxCXMBmyI7BEiy5QPBkK8CtMpfBOrztQHZimD+QfaTBN9LtQNYns76Y4avBZi3V
QG22jj/yd7HBlVJwQBF+gL8S5qjB4Z+QQIwLKL4/CLTBs0SpQNSB0L/mca7BMOw4QYdn+770rVDB
y9UjQb8f0L9t21fBqHwrQWp9oL7z7GnBdSN7QPb/HkFlsKHBZlJyQBHLFkG8aq/BzEDLQLlLFUHC
2a/BjhXKQNTCGEGOlqHB11cAQa9v/T9dtm/BoQgQQSbqIj+lj3rBkcDCQFsBh0BgQIzBJJyRQHwb
eEBeUYXBTUeQQOTRAEBTIKnB5SFsQPQ2iT9MyZ7BTmmaQPG56kAUeq3BVNrOQMaK5ECgzKfBZRXg
QF+j4D6uYVXBPQ39QIBQcb8Ar2DBmu9jQFCOvEC/0I/BfdzxQCypUsCTPYrBh0K+QD5MFD+wgnjB
Kve2QAhF0b5te53Bvl/JQOJ/KkAWa5zBz6aPQDx0h0A3bJ3BYmWBQNV4+kCxuprB94SvQP4fnsAU
uIDBbNP6QL/fg782sonBmJCZQFWefT+RkozBpWEwQG7ZLECTV5rB

> <OMEGA_E>
eI5mPth5vD4=

> <OMEGA_NBR>
     16393

$$$$
50163097
  -OEChem-04172616093D

 80 83  0     1  0  0  0  0  0999 V2000
    6.9538   -1.2368  -22.4222 C   0  0  0  0  0  0  0  0  0  0  0  0
    0.3714   -5.3508  -15.4019 C   0  0  0  0  0  0  0  0  0  0  0  0
    7.4490    0.0732  -22.2888 C   0  0  0  0  0  0  0  0  0  0  0  0
    5.6331   -1.5398  -22.0333 C   0  0  0  0  0  0  0  0  0  0  0  0
    1.3806   -6.3305  -15.4801 C   0  0  0  0  0  0  0  0  0  0  0  0
    0.5284   -4.1239  -16.0763 C   0  0  0  0  0  0  0  0  0  0  0  0
    6.6213    1.0813  -21.7748 C   0  0  0  0  0  0  0  0  0  0  0  0
    4.8140   -0.5393  -21.4807 C   0  0  0  0  0  0  0  0  0  0  0  0
    2.5409   -6.0901  -16.2417 C   0  0  0  0  0  0  0  0  0  0  0  0
    1.6896   -3.8797  -16.8361 C   0  0  0  0  0  0  0  0  0  0  0  0
    6.1950   -1.0195  -17.0679 C   0  0  0  0  0  0  0  0  0  0  0  0
    7.0477   -1.9092  -14.9738 C   0  0  0  0  0  0  0  0  0  0  0  0
    7.4608    0.4187  -15.5600 C   0  0  0  0  0  0  0  0  0  0  0  0
    6.3373   -2.0960  -16.1757 C   0  0  0  0  0  0  0  0  0  0  0  0
    6.7632    0.2322  -16.7661 C   0  0  0  0  0  0  0  0  0  0  0  0
    5.3106    0.7723  -21.3461 C   0  0  0  0  0  0  0  0  0  0  0  0
    2.6989   -4.8670  -16.9285 C   0  0  0  0  0  0  0  0  0  0  0  0
    7.6013   -0.6480  -14.6549 C   0  0  0  0  0  0  0  0  0  0  0  0
    5.7350   -3.3978  -16.5068 C   0  0  0  0  0  0  0  0  0  0  0  0
    6.6003    1.3396  -17.7008 C   0  0  0  0  0  0  0  0  0  0  0  0
    4.1334    7.3503  -17.0121 C   0  0  0  0  0  0  0  0  0  0  0  0
    4.2881    5.8802  -16.6020 C   0  0  0  0  0  0  0  0  0  0  0  0
    4.8617    6.3801  -17.9333 C   0  0  0  0  0  0  0  0  0  0  0  0
    3.5724   -4.4770  -19.2622 C   0  0  0  0  0  0  0  0  0  0  0  0
    8.0035    0.8032  -12.6609 C   0  0  0  0  0  0  0  0  0  0  0  0
    8.4944   -2.7274  -11.7738 C   0  0  0  0  0  0  0  0  0  0  0  0
    4.4667    1.8386  -20.6998 C   0  0  0  0  0  0  0  0  0  0  0  0
    4.6655    4.7589  -19.7628 C   0  0  0  0  0  0  0  0  0  0  0  0
    3.9379   -4.6360  -17.7772 C   0  0  1  0  0  0  0  0  0  0  0  0
    5.2356    2.4002  -19.4870 C   0  0  1  0  0  0  0  0  0  0  0  0
    4.5233    3.5599  -18.8142 C   0  0  2  0  0  0  0  0  0  0  0  0
    4.6241   -3.4198  -17.3412 N   0  0  0  0  0  0  0  0  0  0  0  0
    5.4891    1.3406  -18.5267 N   0  0  0  0  0  0  0  0  0  0  0  0
    8.2568   -0.4384  -13.4383 N   0  0  3  0  0  0  0  0  0  0  0  0
    4.1678    6.0040  -19.1727 N   0  3  0  0  0  0  0  0  0  0  0  0
    6.2209   -4.4348  -16.0674 O   0  0  0  0  0  0  0  0  0  0  0  0
    7.4125    2.2598  -17.7209 O   0  0  0  0  0  0  0  0  0  0  0  0
   10.3302   -0.8416  -11.9616 O   0  0  0  0  0  0  0  0  0  0  0  0
    9.9320   -2.3450  -13.9741 O   0  0  0  0  0  0  0  0  0  0  0  0
    3.1495    3.2681  -18.5523 O   0  0  0  0  0  0  0  0  0  0  0  0
    9.4054   -1.5771  -12.8352 S   0  0  0  0  0  0  0  0  0  0  0  0
    7.5878   -2.0133  -22.8240 H   0  0  0  0  0  0  0  0  0  0  0  0
   -0.5220   -5.5401  -14.8254 H   0  0  0  0  0  0  0  0  0  0  0  0
    8.4632    0.3016  -22.5814 H   0  0  0  0  0  0  0  0  0  0  0  0
    5.2499   -2.5415  -22.1599 H   0  0  0  0  0  0  0  0  0  0  0  0
    1.2644   -7.2674  -14.9554 H   0  0  0  0  0  0  0  0  0  0  0  0
   -0.2420   -3.3699  -16.0108 H   0  0  0  0  0  0  0  0  0  0  0  0
    6.9859    2.0956  -21.7063 H   0  0  0  0  0  0  0  0  0  0  0  0
    3.8096   -0.7750  -21.1611 H   0  0  0  0  0  0  0  0  0  0  0  0
    3.3121   -6.8438  -16.3004 H   0  0  0  0  0  0  0  0  0  0  0  0
    1.8096   -2.9368  -17.3490 H   0  0  0  0  0  0  0  0  0  0  0  0
    5.6473   -1.1534  -17.9891 H   0  0  0  0  0  0  0  0  0  0  0  0
    7.1704   -2.7363  -14.2902 H   0  0  0  0  0  0  0  0  0  0  0  0
    7.8893    1.3826  -15.3283 H   0  0  0  0  0  0  0  0  0  0  0  0
    3.1449    7.7404  -17.2960 H   0  0  0  0  0  0  0  0  0  0  0  0
    4.6969    8.1312  -16.4805 H   0  0  0  0  0  0  0  0  0  0  0  0
    4.9641    5.6058  -15.7788 H   0  0  0  0  0  0  0  0  0  0  0  0
    3.4121    5.2150  -16.5943 H   0  0  0  0  0  0  0  0  0  0  0  0
    5.9560    6.4823  -17.9796 H   0  0  0  0  0  0  0  0  0  0  0  0
    4.4875   -4.3115  -19.8498 H   0  0  0  0  0  0  0  0  0  0  0  0
    3.0698   -5.3893  -19.6157 H   0  0  0  0  0  0  0  0  0  0  0  0
    2.8982   -3.6163  -19.3836 H   0  0  0  0  0  0  0  0  0  0  0  0
    8.6048    0.7888  -11.7399 H   0  0  0  0  0  0  0  0  0  0  0  0
    8.2819    1.6781  -13.2667 H   0  0  0  0  0  0  0  0  0  0  0  0
    6.9363    0.8616  -12.4010 H   0  0  0  0  0  0  0  0  0  0  0  0
    9.1879   -3.4763  -11.3637 H   0  0  0  0  0  0  0  0  0  0  0  0
    8.0252   -2.1715  -10.9486 H   0  0  0  0  0  0  0  0  0  0  0  0
    7.7162   -3.2331  -12.3644 H   0  0  0  0  0  0  0  0  0  0  0  0
    4.2710    2.6455  -21.4214 H   0  0  0  0  0  0  0  0  0  0  0  0
    3.5122    1.4055  -20.3663 H   0  0  0  0  0  0  0  0  0  0  0  0
    5.7291    4.8873  -20.0120 H   0  0  0  0  0  0  0  0  0  0  0  0
    4.0962    4.5516  -20.6809 H   0  0  0  0  0  0  0  0  0  0  0  0
    4.6103   -5.4999  -17.6699 H   0  0  0  0  0  0  0  0  0  0  0  0
    6.2023    2.7730  -19.8563 H   0  0  0  0  0  0  0  0  0  0  0  0
    5.0428    3.7954  -17.8736 H   0  0  0  0  0  0  0  0  0  0  0  0
    4.2689   -2.5433  -17.6663 H   0  0  0  0  0  0  0  0  0  0  0  0
    4.8378    0.5847  -18.4595 H   0  0  0  0  0  0  0  0  0  0  0  0
    3.1950    5.8922  -18.9699 H   0  0  0  0  0  0  0  0  0  0  0  0
    4.2869    6.7404  -19.8387 H   0  0  0  0  0  0  0  0  0  0  0  0
    3.0898    2.5242  -17.9644 H   0  0  0  0  0  0  0  0  0  0  0  0
  1  3  1  0  0  0  0
  1  4  2  0  0  0  0
  2  5  1  0  0  0  0
  2  6  2  0  0  0  0
  3  7  2  0  0  0  0
  4  8  1  0  0  0  0
  5  9  2  0  0  0  0
  6 10  1  0  0  0  0
  7 16  1  0  0  0  0
  8 16  2  0  0  0  0
  9 17  1  0  0  0  0
 10 17  2  0  0  0  0
 11 14  1  0  0  0  0
 11 15  2  0  0  0  0
 12 14  2  0  0  0  0
 12 18  1  0  0  0  0
 13 15  1  0  0  0  0
 13 18  2  0  0  0  0
 14 19  1  0  0  0  0
 15 20  1  0  0  0  0
 16 27  1  0  0  0  0
 17 29  1  0  0  0  0
 18 34  1  0  0  0  0
 19 32  1  0  0  0  0
 19 36  2  0  0  0  0
 20 33  1  0  0  0  0
 20 37  2  0  0  0  0
 21 22  1  0  0  0  0
 21 23  1  0  0  0  0
 22 23  1  0  0  0  0
 23 35  1  0  0  0  0
 24 29  1  0  0  0  0
 25 34  1  0  0  0  0
 26 41  1  0  0  0  0
 27 30  1  0  0  0  0
 28 31  1  0  0  0  0
 28 35  1  0  0  0  0
 29 32  1  0  0  0  0
 30 31  1  0  0  0  0
 30 33  1  0  0  0  0
 31 40  1  0  0  0  0
 34 41  1  0  0  0  0
 38 41  2  0  0  0  0
 39 41  2  0  0  0  0
  1 42  1  0  0  0  0
  2 43  1  0  0  0  0
  3 44  1  0  0  0  0
  4 45  1  0  0  0  0
  5 46  1  0  0  0  0
  6 47  1  0  0  0  0
  7 48  1  0  0  0  0
  8 49  1  0  0  0  0
  9 50  1  0  0  0  0
 10 51  1  0  0  0  0
 11 52  1  0  0  0  0
 12 53  1  0  0  0  0
 13 54  1  0  0  0  0
 21 55  1  0  0  0  0
 21 56  1  0  0  0  0
 22 57  1  0  0  0  0
 22 58  1  0  0  0  0
 23 59  1  0  0  0  0
 24 60  1  0  0  0  0
 24 61  1  0  0  0  0
 24 62  1  0  0  0  0
 25 63  1  0  0  0  0
 25 64  1  0  0  0  0
 25 65  1  0  0  0  0
 26 66  1  0  0  0  0
 26 67  1  0  0  0  0
 26 68  1  0  0  0  0
 27 69  1  0  0  0  0
 27 70  1  0  0  0  0
 28 71  1  0  0  0  0
 28 72  1  0  0  0  0
 29 73  1  0  0  0  0
 30 74  1  0  0  0  0
 31 75  1  0  0  0  0
 32 76  1  0  0  0  0
 33 77  1  0  0  0  0
 35 78  1  0  0  0  0
 35 79  1  0  0  0  0
 40 80  1  0  0  0  0
M  CHG  1  35   1
M  END
> <OMEGA_C>
IoXeQJxQnr+jYLPBsiy+Ptw5q8BHbnbBBV7uQDAAlj1zT7LBD0K0QCQXxb8pRLDB37WwP8KTysCR
rnfBvEQHP0/3g8AunIDB0eHTQLRnij+6Mq7BIAyaQIMQCr9g2KvBup4iQMHhwsAW74HBj0XYP0lM
eMBIsIbBPj3GQHyAgr8ci4jBdIbhQNph9L+nlG/Bvr7uQIZj1j7E9XjB2crKQNskBsDbZ4HBEGzY
QLS/bT74IIbBTvCpQL21RT/YxKrB2LosQIi+m8CUbYfBMT7zQH/iJb+hemrBuIS3QEt1WcDWDYTB
szXTQOx4qz8xm43By0SEQJA160C8GIjB5zeJQPYqvEDg0ITBO5ObQKApzEB+d4/BwqJkQD5Dj8Dy
GJrBeQ4AQU2bTT8Ek0rB7ugHQaWNLsCDYTzBK++OQIRY6z9ImaXBYkuVQO9ImEA3Gp7BYAZ8QBla
lMC+N47Bx4mnQCucGUBM5ZvBNL+QQM7UY0Bjg5bBS/iTQPfdWsDGuorBT6avQDGYqz+YNpTBAxwE
QQZy4L4ZA1fBX16FQCQhwECaYZnBjhHHQL3pjcAcioDBVTPtQKagEEB9xI3BdkglQR1xV7+tYj/B
UukeQR8UFsAIll/B4pFJQL4oUUAPa5TBb3wWQcDdyb/HXE3BAc/yQFzaAMCfl7bBEaAFv4ZIscDM
NG3BUWkHQVxmmj6jprTBAf+nQGyoIsCSR7HBAtmhPyKO6MBxSW/BMNh3vqmsV8AcFoDB34zfQLQd
BkBopq3BMNFzQNdoRr/YSanBLfpTQNAA28AvZ4LBc5/nP8T0O8CzyorBl7a0QOeik7+h6Y/BBXTl
QF8fL8CcpGTBCXX8QBD6sD/NQHXBTUVJQHax90AdXorBS02WQGwZAkEI2IPBQ9qeQLJis0ALdnzB
PF9aQE/hpkAbwYTBa5e+QA1vz0BK1o/BTpmPQJv3icB1zJ7BDHdEQBZ1rMDw7JzBAHw5QCVyZ8CU
EZvBHq0JQVbtST9w1jvBeoIEQYjM1j9NRFTB3PXdQDyQXD+xakbBiAETQXB7XsCU0TXBUGcAQXn6
CsCRLS/BLOv2QGzqTsB81EXB5auIQHBPKUAhX6vBKMdgQKTmsz9E7qLBC1W3QGlknECfGKDByxOD
QJ6mkUCDcqXBu4eTQCv/r8D5W43BTXnGQIl4MUC52Z7BiF6hQAHockAU/Y7BNZuIQKjFIsCFVI3B
6c6aQPiwFT8drZPBK3pMQJmMvEBTwpfBUi6JQEex10CltZ7BEb9FQDKNIUAat4/BmMv0QFjqM79w
HLDB7P2pPnxwrcCsWHfBAMD+QChKKz95rK/BGDLLQDD8kr+Pl63BpAYHPwZkhcDCnYDBVjapP3he
zcAh83jBFi/fQEQtzD/EsKzBCrmrQICgZb6mYqrBEhnbP5mFesAIYYbBKVQgQEBcxcCxQYLBNlbG
QBh6eL8d5YjBJivfQDbz7r9avm/Big7vQGTJ4D4FNHnBLJbJQMkqA8DmooHBkIHZQPj1ij7faIbB
SNa1QDlLkz+z46nBMzQtQBpMncDrPIfBhuvxQMycIL/emmrBUN62QEtVV8ALKITB7mXWQP6Dsz/T
3I3BDpnOQMzhAUFDNaLBYIm7QMqX7ED48qvB8CanQIwR50Bd2aDBb5FmQEZvk8BG35nB6R0AQZwW
Rj+nTErBQZ4GQfPrLMACeDvBnkuWQHpDCUC+XqXBQN6GQHwSoUBKXpzBdRR9QHzslcAP8I3BEOeo
QDj1LUCm0ZrBkiOLQOlmcEAbg5XBrK6TQCupW8Dt5IrBNKawQEQfyz+Kg5PBmJsDQWSY6b7wJFfB
hiKsQFzkvUAyBpvBHvvFQCw1jMB5KIDBAovzQH42DkDOYY7BCrElQWQFcr8bMkHBdPobQT9jH8B9
+l/BZTdDQF5TTEDWOJTBpV8VQRoC07/31U3ByowGQQ1Etb8eYrLByp8Tv5eos8A5im7Brk4PQUAP
gT9IobHBUHjDQMa6DMBcH67BS3psvuDTWcB0+X/BgjiWP0gA7MAWT3HBrJDmQEuaKUAIiqzBif6L
QDa0EL9+UKjBpCfuPxsOPcCeJYrBja9QQFjt3cDq4YLBezi1QGwrjL+oVZDBpGLhQIr2K8AXjmTB
pHL9QP8Osj+cW3XB7KztQCmc+UCE8p7Bo3vLQMBZE0EieKHBxcGqQFru/kAXLrLBDvPMQAHX0UB5
qK/BErOIQFQP+ECcpp/BCJyQQGoZjsCdjZ7BiYBIQJuescBkZZzBMdI5QMuaccAFOZvBBc8JQSLe
OT/RoDvBGtwEQWGu0z8kvFPB9i7eQEVhWj+cBUbB7EYRQRHDXsDoEjXBSmwAQXLHBcByNy7BfF3y
QH4uS8B69EPBCTORQCd0PUATI6vBYE5vQCZT0j+svaPBZWaEQNvYl0Ca1qTBkmVTQK5BskCO9ZnB
3KeUQLnbsMB/s4zBA4jHQMlbTUDJqZzBKJqYQBABgUBMr43BUwyIQMvtJMCC2Y3B+1GZQB2caT9K
k5LB2DvGQLQCr0BUx53BDMqvQPIpxECVO5PB0g5HQFDVGUAABJDB

> <OMEGA_E>
KBCBP7JWfj8=

> <OMEGA_NBR>
      5804

$$$$
50163076
  -OEChem-04172616093D

 80 83  0     1  0  0  0  0  0999 V2000
    7.6323   -0.7108  -21.9502 C   0  0  0  0  0  0  0  0  0  0  0  0
    7.9559    0.6589  -21.9128 C   0  0  0  0  0  0  0  0  0  0  0  0
    6.3252   -1.1394  -21.6413 C   0  0  0  0  0  0  0  0  0  0  0  0
    6.9749    1.5998  -21.5626 C   0  0  0  0  0  0  0  0  0  0  0  0
    5.3472   -0.2003  -21.2631 C   0  0  0  0  0  0  0  0  0  0  0  0
    1.7197   -3.9352  -16.8034 C   0  0  0  0  0  0  0  0  0  0  0  0
    2.5225   -6.1901  -16.3104 C   0  0  0  0  0  0  0  0  0  0  0  0
    0.5381   -4.2002  -16.0838 C   0  0  0  0  0  0  0  0  0  0  0  0
    1.3435   -6.4506  -15.5858 C   0  0  0  0  0  0  0  0  0  0  0  0
    6.2068   -0.9806  -17.1203 C   0  0  0  0  0  0  0  0  0  0  0  0
    7.0003   -1.8705  -14.9942 C   0  0  0  0  0  0  0  0  0  0  0  0
    7.4754    0.4384  -15.5898 C   0  0  0  0  0  0  0  0  0  0  0  0
    6.3158   -2.0572  -16.2100 C   0  0  0  0  0  0  0  0  0  0  0  0
    6.8052    0.2630  -16.8164 C   0  0  0  0  0  0  0  0  0  0  0  0
    5.6753    1.1724  -21.2189 C   0  0  0  0  0  0  0  0  0  0  0  0
    2.7182   -4.9311  -16.9200 C   0  0  0  0  0  0  0  0  0  0  0  0
    7.5690   -0.6232  -14.6718 C   0  0  0  0  0  0  0  0  0  0  0  0
    0.3503   -5.4572  -15.4744 C   0  0  0  0  0  0  0  0  0  0  0  0
    5.7173   -3.3703  -16.5129 C   0  0  0  0  0  0  0  0  0  0  0  0
    6.7080    1.3910  -17.7518 C   0  0  0  0  0  0  0  0  0  0  0  0
    6.4565    8.1339  -20.2401 C   0  0  0  0  0  0  0  0  0  0  0  0
    5.8594    7.4095  -21.4570 C   0  0  0  0  0  0  0  0  0  0  0  0
    5.2213    7.2414  -20.0697 C   0  0  0  0  0  0  0  0  0  0  0  0
    3.6147   -4.5975  -19.2443 C   0  0  0  0  0  0  0  0  0  0  0  0
    7.9238    0.8000  -12.6505 C   0  0  0  0  0  0  0  0  0  0  0  0
    8.4089   -2.7035  -11.7361 C   0  0  0  0  0  0  0  0  0  0  0  0
    4.6984    2.1799  -20.6634 C   0  0  0  0  0  0  0  0  0  0  0  0
    4.2114    5.0546  -19.5177 C   0  0  0  0  0  0  0  0  0  0  0  0
    3.9657   -4.6872  -17.7530 C   0  0  1  0  0  0  0  0  0  0  0  0
    5.2756    2.7396  -19.3366 C   0  0  1  0  0  0  0  0  0  0  0  0
    4.3451    3.7738  -18.6676 C   0  0  2  0  0  0  0  0  0  0  0  0
    4.6218   -3.4354  -17.3613 N   0  0  0  0  0  0  0  0  0  0  0  0
    5.5146    1.6016  -18.4286 N   0  0  0  0  0  0  0  0  0  0  0  0
    8.1965   -0.4298  -13.4376 N   0  0  3  0  0  0  0  0  0  0  0  0
    5.3735    5.9554  -19.3409 N   0  3  0  0  0  0  0  0  0  0  0  0
    6.1716   -4.3868  -15.9960 O   0  0  0  0  0  0  0  0  0  0  0  0
    7.6364    2.1880  -17.8436 O   0  0  0  0  0  0  0  0  0  0  0  0
   10.2717   -0.8465  -11.9632 O   0  0  0  0  0  0  0  0  0  0  0  0
    9.8390   -2.3770  -13.9472 O   0  0  0  0  0  0  0  0  0  0  0  0
    3.0471    3.2101  -18.5099 O   0  0  0  0  0  0  0  0  0  0  0  0
   -0.7823   -5.7092  -14.7801 F   0  0  0  0  0  0  0  0  0  0  0  0
    9.3302   -1.5812  -12.8194 S   0  0  0  0  0  0  0  0  0  0  0  0
    8.3877   -1.4354  -22.2163 H   0  0  0  0  0  0  0  0  0  0  0  0
    8.9570    0.9851  -22.1532 H   0  0  0  0  0  0  0  0  0  0  0  0
    6.0743   -2.1885  -21.6948 H   0  0  0  0  0  0  0  0  0  0  0  0
    7.2155    2.6527  -21.5564 H   0  0  0  0  0  0  0  0  0  0  0  0
    4.3503   -0.5283  -21.0080 H   0  0  0  0  0  0  0  0  0  0  0  0
    1.8639   -2.9703  -17.2667 H   0  0  0  0  0  0  0  0  0  0  0  0
    3.2795   -6.9552  -16.4002 H   0  0  0  0  0  0  0  0  0  0  0  0
   -0.2243   -3.4399  -15.9991 H   0  0  0  0  0  0  0  0  0  0  0  0
    1.2004   -7.4122  -15.1153 H   0  0  0  0  0  0  0  0  0  0  0  0
    5.6668   -1.1086  -18.0468 H   0  0  0  0  0  0  0  0  0  0  0  0
    7.0904   -2.6934  -14.3006 H   0  0  0  0  0  0  0  0  0  0  0  0
    7.9200    1.3937  -15.3529 H   0  0  0  0  0  0  0  0  0  0  0  0
    7.4264    7.8143  -19.8313 H   0  0  0  0  0  0  0  0  0  0  0  0
    6.3624    9.2261  -20.1496 H   0  0  0  0  0  0  0  0  0  0  0  0
    5.3372    7.9828  -22.2371 H   0  0  0  0  0  0  0  0  0  0  0  0
    6.4012    6.5710  -21.9188 H   0  0  0  0  0  0  0  0  0  0  0  0
    4.2710    7.7752  -19.9211 H   0  0  0  0  0  0  0  0  0  0  0  0
    4.5307   -4.4210  -19.8272 H   0  0  0  0  0  0  0  0  0  0  0  0
    3.1497   -5.5401  -19.5688 H   0  0  0  0  0  0  0  0  0  0  0  0
    2.9117   -3.7671  -19.4061 H   0  0  0  0  0  0  0  0  0  0  0  0
    8.5037    0.7741  -11.7161 H   0  0  0  0  0  0  0  0  0  0  0  0
    8.2147    1.6833  -13.2380 H   0  0  0  0  0  0  0  0  0  0  0  0
    6.8508    0.8538  -12.4145 H   0  0  0  0  0  0  0  0  0  0  0  0
    9.0943   -3.4560  -11.3188 H   0  0  0  0  0  0  0  0  0  0  0  0
    7.9522   -2.1292  -10.9166 H   0  0  0  0  0  0  0  0  0  0  0  0
    7.6205   -3.2067  -12.3150 H   0  0  0  0  0  0  0  0  0  0  0  0
    4.5600    2.9997  -21.3837 H   0  0  0  0  0  0  0  0  0  0  0  0
    3.7309    1.6930  -20.4717 H   0  0  0  0  0  0  0  0  0  0  0  0
    4.1378    4.7721  -20.5783 H   0  0  0  0  0  0  0  0  0  0  0  0
    3.2980    5.5883  -19.2162 H   0  0  0  0  0  0  0  0  0  0  0  0
    4.6601   -5.5275  -17.6058 H   0  0  0  0  0  0  0  0  0  0  0  0
    6.2341    3.2312  -19.5595 H   0  0  0  0  0  0  0  0  0  0  0  0
    4.7657    4.0437  -17.6877 H   0  0  0  0  0  0  0  0  0  0  0  0
    4.2581   -2.5787  -17.7271 H   0  0  0  0  0  0  0  0  0  0  0  0
    4.7738    0.9438  -18.2929 H   0  0  0  0  0  0  0  0  0  0  0  0
    6.1920    5.4912  -19.6795 H   0  0  0  0  0  0  0  0  0  0  0  0
    5.4806    6.1512  -18.3661 H   0  0  0  0  0  0  0  0  0  0  0  0
    3.1063    2.4184  -17.9882 H   0  0  0  0  0  0  0  0  0  0  0  0
  1  2  1  0  0  0  0
  1  3  2  0  0  0  0
  2  4  2  0  0  0  0
  3  5  1  0  0  0  0
  4 15  1  0  0  0  0
  5 15  2  0  0  0  0
  6  8  2  0  0  0  0
  6 16  1  0  0  0  0
  7  9  1  0  0  0  0
  7 16  2  0  0  0  0
  8 18  1  0  0  0  0
  9 18  2  0  0  0  0
 10 13  1  0  0  0  0
 10 14  2  0  0  0  0
 11 13  2  0  0  0  0
 11 17  1  0  0  0  0
 12 14  1  0  0  0  0
 12 17  2  0  0  0  0
 13 19  1  0  0  0  0
 14 20  1  0  0  0  0
 15 27  1  0  0  0  0
 16 29  1  0  0  0  0
 17 34  1  0  0  0  0
 18 41  1  0  0  0  0
 19 32  1  0  0  0  0
 19 36  2  0  0  0  0
 20 33  1  0  0  0  0
 20 37  2  0  0  0  0
 21 22  1  0  0  0  0
 21 23  1  0  0  0  0
 22 23  1  0  0  0  0
 23 35  1  0  0  0  0
 24 29  1  0  0  0  0
 25 34  1  0  0  0  0
 26 42  1  0  0  0  0
 27 30  1  0  0  0  0
 28 31  1  0  0  0  0
 28 35  1  0  0  0  0
 29 32  1  0  0  0  0
 30 31  1  0  0  0  0
 30 33  1  0  0  0  0
 31 40  1  0  0  0  0
 34 42  1  0  0  0  0
 38 42  2  0  0  0  0
 39 42  2  0  0  0  0
  1 43  1  0  0  0  0
  2 44  1  0  0  0  0
  3 45  1  0  0  0  0
  4 46  1  0  0  0  0
  5 47  1  0  0  0  0
  6 48  1  0  0  0  0
  7 49  1  0  0  0  0
  8 50  1  0  0  0  0
  9 51  1  0  0  0  0
 10 52  1  0  0  0  0
 11 53  1  0  0  0  0
 12 54  1  0  0  0  0
 21 55  1  0  0  0  0
 21 56  1  0  0  0  0
 22 57  1  0  0  0  0
 22 58  1  0  0  0  0
 23 59  1  0  0  0  0
 24 60  1  0  0  0  0
 24 61  1  0  0  0  0
 24 62  1  0  0  0  0
 25 63  1  0  0  0  0
 25 64  1  0  0  0  0
 25 65  1  0  0  0  0
 26 66  1  0  0  0  0
 26 67  1  0  0  0  0
 26 68  1  0  0  0  0
 27 69  1  0  0  0  0
 27 70  1  0  0  0  0
 28 71  1  0  0  0  0
 28 72  1  0  0  0  0
 29 73  1  0  0  0  0
 30 74  1  0  0  0  0
 31 75  1  0  0  0  0
 32 76  1  0  0  0  0
 33 77  1  0  0  0  0
 35 78  1  0  0  0  0
 35 79  1  0  0  0  0
 40 80  1  0  0  0  0
M  CHG  1  35   1
M  END
> <OMEGA_C>
2jv0QHj4Nb8Emq/BfJb+QOSuKD92Ta/Ba2jKQEDYkb9WIa3BeDLfQHbHzD9AgKzBIxyrQGAlTb7e
GqrBvSDcP+LZe8BMbYbBTHEhQPIUxsCie4LB5r8JP/JnhsCyq4DBT/irP5FrzsBUX3nBYp7GQFwG
e79c9ojBwALgQABs779P6G/BlDbvQOh34D7Rb3nBOBvKQOapA8AcroHBO8TZQKimhj7wh4bBZJy1
QNMSlj9CwKnBLPYtQNLLncA0XIfBNDXyQEyJH7+Lv2rBgFezPgChrsAhl3fBAPS2QMiyV8BeGoTB
16fWQMoNsj+WA47BypvOQHwkAkGo66HB2X+7QIAa7UDcp6vBwhSnQKq550CojqDBHFdnQMEek8BS
9JnB/I/9QCrOTD9TaErBDYsGQTQGLcAJxzvBKFmWQBGEC0CkTqXBbsOGQF2/oUA+JJzBqM19QJ79
lcA8Bo7BidGoQOpVL0BmsZrBcQuLQDSFcUA6V5XBgOWTQAzdW8De44rB4HewQNgCzT/IbZPBDCUD
QXgQ3L5cAFfB5/OrQHySvkA0uprBtn3FQI1gjMB373/BWl30QCYIDECov47B/FgkQRC0WL9qaT/B
u2wdQZQgGMCeJ1/BLgNDQBRzTUBCFJTBIEZIv12xtsA8e2zBiUgVQRxkyr8THE3B7zMGQYu6t78P
u7HB408PQQQtfD+sObHBoWDCQDMQDMDkjq3Bo+XmQGLFKUBoc6zBtDWLQMM7B79SEKjBl5XuP/cZ
PsA+IorB3OJRQLWQ3sCPM4PBMq5lvsYnXMBh/H/BpKeZP3Aw7cAc2HHBwla1QHPljb/bX5DB4OTi
QM9gLMBXz2TB7nD9QP5ksj9spXXBbaXtQOQO+kB3pp7BJJnLQEOeE0FoMqHBMsqqQOpy/0Cn5bHB
etbMQEhF0kC2Wa/BA6yIQAvO+EBWXp/BzvuQQCl5jcACnp7BgZRJQJFIscDNjJzBf1g6QD8YccCj
P5vBSg8IQTMrRj8rdTvBjG8DQc911z/0zlPBjznbQNCPWj/WoUbBFYIRQR4vXcD7GTXBmHj+QGRF
CMBGqi7BWNvzQB47TcBMCkXBIeuRQIH7P0C+EavBScZuQNGy2D8cxqPB+2iEQP20mEBCoKTBJBJT
QLHTskDaupnBYR+VQHfhsMCz2IzBgn3HQEzLTkDieZzBeICYQDlmgUBUgI3BREKIQFEJJcAk0Y3B
KcOYQBaccT/WV5LBrCTGQOC3r0C0b53BP2GvQNjWxEDg7ZLBRs5GQM3HGkDG54/B

> <OMEGA_E>
rC5/Pw==

> <OMEGA_NBR>
      7431

$$$$
50163091
  -OEChem-04172616093D

 73 75  0     1  0  0  0  0  0999 V2000
    6.8448   -1.0553  -22.2726 C   0  0  0  0  0  0  0  0  0  0  0  0
    7.3717    0.2312  -22.0566 C   0  0  0  0  0  0  0  0  0  0  0  0
    5.5183   -1.3506  -21.8986 C   0  0  0  0  0  0  0  0  0  0  0  0
    6.5729    1.2221  -21.4680 C   0  0  0  0  0  0  0  0  0  0  0  0
    4.7234   -0.3659  -21.2846 C   0  0  0  0  0  0  0  0  0  0  0  0
    1.7554   -3.6012  -16.8154 C   0  0  0  0  0  0  0  0  0  0  0  0
    2.2898   -5.9446  -16.3719 C   0  0  0  0  0  0  0  0  0  0  0  0
    0.5450   -3.7448  -16.1099 C   0  0  0  0  0  0  0  0  0  0  0  0
    1.0805   -6.0853  -15.6650 C   0  0  0  0  0  0  0  0  0  0  0  0
    6.2857   -1.0078  -17.0728 C   0  0  0  0  0  0  0  0  0  0  0  0
    7.1029   -1.9823  -14.9938 C   0  0  0  0  0  0  0  0  0  0  0  0
    7.5511    0.3566  -15.4977 C   0  0  0  0  0  0  0  0  0  0  0  0
    6.4205   -2.1222  -16.2187 C   0  0  0  0  0  0  0  0  0  0  0  0
    6.8610    0.2290  -16.7192 C   0  0  0  0  0  0  0  0  0  0  0  0
    5.2551    0.9197  -21.0569 C   0  0  0  0  0  0  0  0  0  0  0  0
    2.6336   -4.7032  -16.9499 C   0  0  0  0  0  0  0  0  0  0  0  0
    7.6353   -0.7332  -14.6008 C   0  0  0  0  0  0  0  0  0  0  0  0
    0.2054   -4.9880  -15.5391 C   0  0  0  0  0  0  0  0  0  0  0  0
    5.7965   -3.4072  -16.5764 C   0  0  0  0  0  0  0  0  0  0  0  0
    6.6665    1.4043  -17.5814 C   0  0  0  0  0  0  0  0  0  0  0  0
    3.5877   -4.4704  -19.2637 C   0  0  0  0  0  0  0  0  0  0  0  0
    9.1811    0.5350  -13.0805 C   0  0  0  0  0  0  0  0  0  0  0  0
    8.3726   -2.9190  -11.7024 C   0  0  0  0  0  0  0  0  0  0  0  0
    4.4085    1.9850  -20.4055 C   0  0  0  0  0  0  0  0  0  0  0  0
    5.1931    4.4827  -17.5216 C   0  0  0  0  0  0  0  0  0  0  0  0
    3.9085   -4.5845  -17.7667 C   0  0  1  0  0  0  0  0  0  0  0  0
    5.1685    2.6188  -19.2171 C   0  0  1  0  0  0  0  0  0  0  0  0
    4.3567    3.7712  -18.5997 C   0  0  2  0  0  0  0  0  0  0  0  0
    4.6577   -3.3912  -17.3689 N   0  0  0  0  0  0  0  0  0  0  0  0
    5.4562    1.5470  -18.2498 N   0  0  0  0  0  0  0  0  0  0  0  0
    8.1979   -0.5583  -13.3195 N   0  0  3  0  0  0  0  0  0  0  0  0
    4.6364    5.8156  -17.2082 N   0  3  0  0  0  0  0  0  0  0  0  0
    6.2538   -4.4607  -16.1446 O   0  0  0  0  0  0  0  0  0  0  0  0
    7.5277    2.2760  -17.6386 O   0  0  0  0  0  0  0  0  0  0  0  0
    6.0988   -1.6466  -12.1984 O   0  0  0  0  0  0  0  0  0  0  0  0
    7.8441   -0.5190  -10.7454 O   0  0  0  0  0  0  0  0  0  0  0  0
    4.0588    4.7058  -19.6374 O   0  0  0  0  0  0  0  0  0  0  0  0
   -0.9658   -5.1322  -14.8793 F   0  0  0  0  0  0  0  0  0  0  0  0
    7.5097   -1.3400  -11.9178 S   0  0  0  0  0  0  0  0  0  0  0  0
    7.4588   -1.8191  -22.7266 H   0  0  0  0  0  0  0  0  0  0  0  0
    8.3887    0.4550  -22.3432 H   0  0  0  0  0  0  0  0  0  0  0  0
    5.1118   -2.3339  -22.0837 H   0  0  0  0  0  0  0  0  0  0  0  0
    6.9656    2.2185  -21.3286 H   0  0  0  0  0  0  0  0  0  0  0  0
    3.7100   -0.5938  -20.9889 H   0  0  0  0  0  0  0  0  0  0  0  0
    2.0140   -2.6489  -17.2544 H   0  0  0  0  0  0  0  0  0  0  0  0
    2.9563   -6.7885  -16.4723 H   0  0  0  0  0  0  0  0  0  0  0  0
   -0.1229   -2.9025  -16.0063 H   0  0  0  0  0  0  0  0  0  0  0  0
    0.8233   -7.0347  -15.2190 H   0  0  0  0  0  0  0  0  0  0  0  0
    5.7403   -1.1026  -18.0001 H   0  0  0  0  0  0  0  0  0  0  0  0
    7.2206   -2.8396  -14.3477 H   0  0  0  0  0  0  0  0  0  0  0  0
    8.0202    1.2957  -15.2439 H   0  0  0  0  0  0  0  0  0  0  0  0
    4.5243   -4.3857  -19.8345 H   0  0  0  0  0  0  0  0  0  0  0  0
    3.0392   -5.3662  -19.5904 H   0  0  0  0  0  0  0  0  0  0  0  0
    2.9696   -3.5776  -19.4391 H   0  0  0  0  0  0  0  0  0  0  0  0
    9.5059    0.5135  -12.0298 H   0  0  0  0  0  0  0  0  0  0  0  0
   10.0527    0.3939  -13.7365 H   0  0  0  0  0  0  0  0  0  0  0  0
    8.7109    1.5051  -13.2991 H   0  0  0  0  0  0  0  0  0  0  0  0
    7.9653   -3.4434  -10.8254 H   0  0  0  0  0  0  0  0  0  0  0  0
    8.2302   -3.5398  -12.5993 H   0  0  0  0  0  0  0  0  0  0  0  0
    9.4462   -2.7326  -11.5522 H   0  0  0  0  0  0  0  0  0  0  0  0
    4.1743    2.7653  -21.1446 H   0  0  0  0  0  0  0  0  0  0  0  0
    3.4742    1.5337  -20.0402 H   0  0  0  0  0  0  0  0  0  0  0  0
    5.1960    3.8708  -16.6076 H   0  0  0  0  0  0  0  0  0  0  0  0
    6.2239    4.6010  -17.8870 H   0  0  0  0  0  0  0  0  0  0  0  0
    4.5238   -5.4815  -17.6032 H   0  0  0  0  0  0  0  0  0  0  0  0
    6.1170    3.0282  -19.5949 H   0  0  0  0  0  0  0  0  0  0  0  0
    3.4362    3.3727  -18.1482 H   0  0  0  0  0  0  0  0  0  0  0  0
    4.3260   -2.5042  -17.6903 H   0  0  0  0  0  0  0  0  0  0  0  0
    4.7355    0.8797  -18.0618 H   0  0  0  0  0  0  0  0  0  0  0  0
    5.1974    6.2551  -16.5067 H   0  0  0  0  0  0  0  0  0  0  0  0
    4.6347    6.3787  -18.0346 H   0  0  0  0  0  0  0  0  0  0  0  0
    3.7002    5.7149  -16.8715 H   0  0  0  0  0  0  0  0  0  0  0  0
    3.5419    4.2784  -20.3103 H   0  0  0  0  0  0  0  0  0  0  0  0
  1  2  1  0  0  0  0
  1  3  2  0  0  0  0
  2  4  2  0  0  0  0
  3  5  1  0  0  0  0
  4 15  1  0  0  0  0
  5 15  2  0  0  0  0
  6  8  2  0  0  0  0
  6 16  1  0  0  0  0
  7  9  1  0  0  0  0
  7 16  2  0  0  0  0
  8 18  1  0  0  0  0
  9 18  2  0  0  0  0
 10 13  1  0  0  0  0
 10 14  2  0  0  0  0
 11 13  2  0  0  0  0
 11 17  1  0  0  0  0
 12 14  1  0  0  0  0
 12 17  2  0  0  0  0
 13 19  1  0  0  0  0
 14 20  1  0  0  0  0
 15 24  1  0  0  0  0
 16 26  1  0  0  0  0
 17 31  1  0  0  0  0
 18 38  1  0  0  0  0
 19 29  1  0  0  0  0
 19 33  2  0  0  0  0
 20 30  1  0  0  0  0
 20 34  2  0  0  0  0
 21 26  1  0  0  0  0
 22 31  1  0  0  0  0
 23 39  1  0  0  0  0
 24 27  1  0  0  0  0
 25 28  1  0  0  0  0
 25 32  1  0  0  0  0
 26 29  1  0  0  0  0
 27 28  1  0  0  0  0
 27 30  1  0  0  0  0
 28 37  1  0  0  0  0
 31 39  1  0  0  0  0
 35 39  2  0  0  0  0
 36 39  2  0  0  0  0
  1 40  1  0  0  0  0
  2 41  1  0  0  0  0
  3 42  1  0  0  0  0
  4 43  1  0  0  0  0
  5 44  1  0  0  0  0
  6 45  1  0  0  0  0
  7 46  1  0  0  0  0
  8 47  1  0  0  0  0
  9 48  1  0  0  0  0
 10 49  1  0  0  0  0
 11 50  1  0  0  0  0
 12 51  1  0  0  0  0
 21 52  1  0  0  0  0
 21 53  1  0  0  0  0
 21 54  1  0  0  0  0
 22 55  1  0  0  0  0
 22 56  1  0  0  0  0
 22 57  1  0  0  0  0
 23 58  1  0  0  0  0
 23 59  1  0  0  0  0
 23 60  1  0  0  0  0
 24 61  1  0  0  0  0
 24 62  1  0  0  0  0
 25 63  1  0  0  0  0
 25 64  1  0  0  0  0
 26 65  1  0  0  0  0
 27 66  1  0  0  0  0
 28 67  1  0  0  0  0
 29 68  1  0  0  0  0
 30 69  1  0  0  0  0
 32 70  1  0  0  0  0
 32 71  1  0  0  0  0
 32 72  1  0  0  0  0
 37 73  1  0  0  0  0
M  CHG  1  32   1
M  END
> <OMEGA_C>
AAnbQB8Uh79hLrLBMeXrQMDBbD7gc7DBKZawQOLfrL9rMK/BWFXSQHNunD+JvqvBViaXQNdTu77z
RqrB3LHgP4V5ZsABhobBKYwSQFg6vsCm+YLBUoYLPyyrb8An4YDB3EyKP5q6wsD8o3rBxCTJQMj+
gL8RlYjBNkvjQAK7/b/N5m/BcqLxQKaStj5s9nfB9HTNQJDRB8D1v4HBMI3bQGuAaj7XwIXBaCmo
QIRyaz+XdKjBc4woQLyAlsBdmYfBHFT0QOKzO78MnWnBiFpSPhien8BSoHjBlny5QKUPWsCGnITB
WVTVQOG+sz/EpozBrZ1lQIgNj8AbHJrByeUSQbTyCD/ESVHB+fUFQbfROsApPTvBcxKNQFwV/j+E
PqPBwy2mQGdyj0BVLIzBjyR6QDC0ksAjIo7BpmSlQD+aJ0CVvJnB1GmLQCFccUAmzJTBiguVQB4J
WcCN84rB1JiuQHcFxj+u/5HBfioDQdLpDr+4HFXBrl2UQEgZukBgqonB6R7IQGG+jsAhKIHBw+Lw
QI2qEUDFG43BTCnDQIjE0r/ULEPBtgL7QJrbBL8i7SvBW+GBQAGWlkBqGZ3BSjx3v5g6pMCqEW7B
ak/wQKuDq79Irz7Bja7uQObY6L/+z7XB8jcGQWb26D7uvrLBM5SjQLBeFcBoq7DBgubeQJ/7DUAJ
oarBBHFtQPsBGL9D6afBNOUAQJuHKcAdCYrBzTM9QFs72cBCx4PBO7v7vWvCOcDjDIDBH8NSP/ob
4cAjgXPBXbC3QIAjjb8qAJDBRw/nQLe7NcD+j2XB4VIAQa3YpT/n5nPBz8aQQGFXjMD+rJ7BcoJC
QLe3q8ASuZzBIQ0+QK/3ZMBXg5vBBBgYQUBzAz/peUDBA9ggQbWpyT7FyFvB2F8LQWimwD/9yFTB
6OP+QC1gXMCvNC3B/q4DQUKMYsDLlknBfyMXQYDiLsCt1TjBfZOFQBL7MEAwKKnB+1leQARRxD9G
UqDBbUWmQFK7d0BG3ITBEyrHQD87k0CGGI/B58KQQKxor8BT04zBtL7DQKTOQUBDwpzBLepbQFHa
V0CCL5HB+G6KQJxEIMC0hY3BG4mXQCs3YT+ZfpDBXFGmQHspyEClDYTBdE+UQGkezEDHRpDBo9Bs
QJvgtkC8+IbBBq9iQA/piEBze6LB

> <OMEGA_E>
sGp1Pw==

> <OMEGA_NBR>
      8942

$$$$
50163079
  -OEChem-04172616093D

 79 81  0     1  0  0  0  0  0999 V2000
    6.5404   -1.5221  -22.2927 C   0  0  0  0  0  0  0  0  0  0  0  0
    7.2351   -0.3126  -22.1009 C   0  0  0  0  0  0  0  0  0  0  0  0
    5.1724   -1.6145  -21.9675 C   0  0  0  0  0  0  0  0  0  0  0  0
    6.5596    0.8070  -21.5910 C   0  0  0  0  0  0  0  0  0  0  0  0
    4.4996   -0.5020  -21.4351 C   0  0  0  0  0  0  0  0  0  0  0  0
    1.7423   -3.8369  -16.7573 C   0  0  0  0  0  0  0  0  0  0  0  0
    2.4708   -6.1437  -16.4082 C   0  0  0  0  0  0  0  0  0  0  0  0
    0.5983   -4.0802  -15.9729 C   0  0  0  0  0  0  0  0  0  0  0  0
    1.3266   -6.3847  -15.6238 C   0  0  0  0  0  0  0  0  0  0  0  0
    6.2678   -1.0608  -17.1508 C   0  0  0  0  0  0  0  0  0  0  0  0
    7.0316   -1.9648  -15.0277 C   0  0  0  0  0  0  0  0  0  0  0  0
    7.4961    0.3560  -15.5927 C   0  0  0  0  0  0  0  0  0  0  0  0
    6.3733   -2.1428  -16.2606 C   0  0  0  0  0  0  0  0  0  0  0  0
    6.8391    0.1826  -16.8217 C   0  0  0  0  0  0  0  0  0  0  0  0
    5.1931    0.7083  -21.2415 C   0  0  0  0  0  0  0  0  0  0  0  0
    2.6869   -4.8683  -16.9739 C   0  0  0  0  0  0  0  0  0  0  0  0
    7.5614   -0.7025  -14.6644 C   0  0  0  0  0  0  0  0  0  0  0  0
    0.3911   -5.3534  -15.4053 C   0  0  0  0  0  0  0  0  0  0  0  0
    5.7529   -3.4322  -16.6041 C   0  0  0  0  0  0  0  0  0  0  0  0
    6.6741    1.3149  -17.7255 C   0  0  0  0  0  0  0  0  0  0  0  0
    4.5002    6.8025  -16.8615 C   0  0  0  0  0  0  0  0  0  0  0  0
    3.5043   -4.4405  -19.3139 C   0  0  0  0  0  0  0  0  0  0  0  0
    9.0576    0.6385  -13.1530 C   0  0  0  0  0  0  0  0  0  0  0  0
    8.2201   -2.7986  -11.7227 C   0  0  0  0  0  0  0  0  0  0  0  0
    4.4720    1.8920  -20.6512 C   0  0  0  0  0  0  0  0  0  0  0  0
    5.0538    6.4968  -18.2502 C   0  0  0  0  0  0  0  0  0  0  0  0
    4.3527    4.6881  -19.7290 C   0  0  0  0  0  0  0  0  0  0  0  0
    3.9084   -4.6308  -17.8443 C   0  0  1  0  0  0  0  0  0  0  0  0
    5.2606    2.4348  -19.4404 C   0  0  1  0  0  0  0  0  0  0  0  0
    4.5258    3.5551  -18.7154 C   0  0  2  0  0  0  0  0  0  0  0  0
    4.6194   -3.4278  -17.4070 N   0  0  0  0  0  0  0  0  0  0  0  0
    5.5399    1.3517  -18.5131 N   0  0  0  0  0  0  0  0  0  0  0  0
    8.0940   -0.4764  -13.3807 N   0  0  3  0  0  0  0  0  0  0  0  0
    3.9678    5.9240  -19.0591 N   0  3  0  0  0  0  0  0  0  0  0  0
    6.2248   -4.4803  -16.1761 O   0  0  0  0  0  0  0  0  0  0  0  0
    7.4882    2.2333  -17.7333 O   0  0  0  0  0  0  0  0  0  0  0  0
    5.9663   -1.5090  -12.2799 O   0  0  0  0  0  0  0  0  0  0  0  0
    7.7031   -0.3766  -10.8186 O   0  0  0  0  0  0  0  0  0  0  0  0
    3.2529    3.1335  -18.2226 O   0  0  0  0  0  0  0  0  0  0  0  0
   -0.7062   -5.5857  -14.6503 F   0  0  0  0  0  0  0  0  0  0  0  0
    7.3763   -1.2162  -11.9796 S   0  0  0  0  0  0  0  0  0  0  0  0
    7.0580   -2.3824  -22.6907 H   0  0  0  0  0  0  0  0  0  0  0  0
    8.2849   -0.2465  -22.3456 H   0  0  0  0  0  0  0  0  0  0  0  0
    4.6410   -2.5410  -22.1274 H   0  0  0  0  0  0  0  0  0  0  0  0
    7.0832    1.7433  -21.4655 H   0  0  0  0  0  0  0  0  0  0  0  0
    3.4538   -0.5746  -21.1752 H   0  0  0  0  0  0  0  0  0  0  0  0
    1.8990   -2.8618  -17.1942 H   0  0  0  0  0  0  0  0  0  0  0  0
    3.1846   -6.9363  -16.5776 H   0  0  0  0  0  0  0  0  0  0  0  0
   -0.1201   -3.2912  -15.8064 H   0  0  0  0  0  0  0  0  0  0  0  0
    1.1657   -7.3603  -15.1893 H   0  0  0  0  0  0  0  0  0  0  0  0
    5.7474   -1.1836  -18.0892 H   0  0  0  0  0  0  0  0  0  0  0  0
    7.1334   -2.8009  -14.3516 H   0  0  0  0  0  0  0  0  0  0  0  0
    7.9537    1.3056  -15.3576 H   0  0  0  0  0  0  0  0  0  0  0  0
    5.2958    7.2331  -16.2356 H   0  0  0  0  0  0  0  0  0  0  0  0
    3.6719    7.5212  -16.9472 H   0  0  0  0  0  0  0  0  0  0  0  0
    4.1335    5.8736  -16.4004 H   0  0  0  0  0  0  0  0  0  0  0  0
    4.4042   -4.2704  -19.9232 H   0  0  0  0  0  0  0  0  0  0  0  0
    2.9849   -5.3421  -19.6710 H   0  0  0  0  0  0  0  0  0  0  0  0
    2.8338   -3.5728  -19.4003 H   0  0  0  0  0  0  0  0  0  0  0  0
    9.3583    0.6537  -12.0949 H   0  0  0  0  0  0  0  0  0  0  0  0
    9.9460    0.4899  -13.7843 H   0  0  0  0  0  0  0  0  0  0  0  0
    8.5796    1.5948  -13.4119 H   0  0  0  0  0  0  0  0  0  0  0  0
    7.7952   -3.3025  -10.8421 H   0  0  0  0  0  0  0  0  0  0  0  0
    8.0845   -3.4345  -12.6100 H   0  0  0  0  0  0  0  0  0  0  0  0
    9.2932   -2.6196  -11.5605 H   0  0  0  0  0  0  0  0  0  0  0  0
    4.3821    2.6814  -21.4120 H   0  0  0  0  0  0  0  0  0  0  0  0
    3.4685    1.5821  -20.3240 H   0  0  0  0  0  0  0  0  0  0  0  0
    5.4188    7.4229  -18.7182 H   0  0  0  0  0  0  0  0  0  0  0  0
    5.8805    5.7753  -18.1714 H   0  0  0  0  0  0  0  0  0  0  0  0
    5.3030    4.8459  -20.2600 H   0  0  0  0  0  0  0  0  0  0  0  0
    3.5708    4.4102  -20.4512 H   0  0  0  0  0  0  0  0  0  0  0  0
    4.5749   -5.5028  -17.7709 H   0  0  0  0  0  0  0  0  0  0  0  0
    6.2131    2.8389  -19.8141 H   0  0  0  0  0  0  0  0  0  0  0  0
    5.1535    3.9142  -17.8865 H   0  0  0  0  0  0  0  0  0  0  0  0
    4.2646   -2.5422  -17.7069 H   0  0  0  0  0  0  0  0  0  0  0  0
    4.8831    0.6010  -18.4420 H   0  0  0  0  0  0  0  0  0  0  0  0
    3.1898    5.7338  -18.4603 H   0  0  0  0  0  0  0  0  0  0  0  0
    3.6992    6.5928  -19.7524 H   0  0  0  0  0  0  0  0  0  0  0  0
    3.3729    2.4306  -17.5949 H   0  0  0  0  0  0  0  0  0  0  0  0
  1  2  1  0  0  0  0
  1  3  2  0  0  0  0
  2  4  2  0  0  0  0
  3  5  1  0  0  0  0
  4 15  1  0  0  0  0
  5 15  2  0  0  0  0
  6  8  2  0  0  0  0
  6 16  1  0  0  0  0
  7  9  1  0  0  0  0
  7 16  2  0  0  0  0
  8 18  1  0  0  0  0
  9 18  2  0  0  0  0
 10 13  2  0  0  0  0
 10 14  1  0  0  0  0
 11 13  1  0  0  0  0
 11 17  2  0  0  0  0
 12 14  2  0  0  0  0
 12 17  1  0  0  0  0
 13 19  1  0  0  0  0
 14 20  1  0  0  0  0
 15 25  1  0  0  0  0
 16 28  1  0  0  0  0
 17 33  1  0  0  0  0
 18 40  1  0  0  0  0
 19 31  1  0  0  0  0
 19 35  2  0  0  0  0
 20 32  1  0  0  0  0
 20 36  2  0  0  0  0
 21 26  1  0  0  0  0
 22 28  1  0  0  0  0
 23 33  1  0  0  0  0
 24 41  1  0  0  0  0
 25 29  1  0  0  0  0
 26 34  1  0  0  0  0
 27 30  1  0  0  0  0
 27 34  1  0  0  0  0
 28 31  1  0  0  0  0
 29 30  1  0  0  0  0
 29 32  1  0  0  0  0
 30 39  1  0  0  0  0
 33 41  1  0  0  0  0
 37 41  2  0  0  0  0
 38 41  2  0  0  0  0
  1 42  1  0  0  0  0
  2 43  1  0  0  0  0
  3 44  1  0  0  0  0
  4 45  1  0  0  0  0
  5 46  1  0  0  0  0
  6 47  1  0  0  0  0
  7 48  1  0  0  0  0
  8 49  1  0  0  0  0
  9 50  1  0  0  0  0
 10 51  1  0  0  0  0
 11 52  1  0  0  0  0
 12 53  1  0  0  0  0
 21 54  1  0  0  0  0
 21 55  1  0  0  0  0
 21 56  1  0  0  0  0
 22 57  1  0  0  0  0
 22 58  1  0  0  0  0
 22 59  1  0  0  0  0
 23 60  1  0  0  0  0
 23 61  1  0  0  0  0
 23 62  1  0  0  0  0
 24 63  1  0  0  0  0
 24 64  1  0  0  0  0
 24 65  1  0  0  0  0
 25 66  1  0  0  0  0
 25 67  1  0  0  0  0
 26 68  1  0  0  0  0
 26 69  1  0  0  0  0
 27 70  1  0  0  0  0
 27 71  1  0  0  0  0
 28 72  1  0  0  0  0
 29 73  1  0  0  0  0
 30 74  1  0  0  0  0
 31 75  1  0  0  0  0
 32 76  1  0  0  0  0
 34 77  1  0  0  0  0
 34 78  1  0  0  0  0
 39 79  1  0  0  0  0
M  CHG  1  34   1
M  END
> <OMEGA_C>
HEvRQDnTwr+KV7LBlYXnQAAIoL6yzrDBdISlQAWnzr9ava/BiujRQKWaTj9JuqzBbPyPQEyAAL8m
e6vBlwLfPzyQdcDyDobB1CAeQJSZxMAWRIPBJSsZP/GQgsAhkX/B9sypP8hPzMAK+3nBjpHIQKDJ
h7/cNInBrgLhQGd/+79UcXDB69/vQE9Itj7Ie3nBJfLLQAgjCcCeFYLBFNraQD4AOz7vkobB4y2m
QKtRNT+q7qnBdvUrQDDJm8CdyofBK/fxQFrVM78uoWrB3D/IPglPq8D/e3bB0Re4QKCpW8BD1YTB
fJLVQApQqD/fzY3B7wGQQFOu2UBJ5IbB0EVgQL4YjsDzgprBEOwQQaB3Iz+CclLBhoUDQbYbM8Bh
kDvBVRqPQNws8j+PNaXBILmhQJ/lz0BTAJLB+EiLQLEElkDr1J3BqSN6QJwvlMAJwY7BOleoQPTT
G0D/hZvBStOQQB6GY0AduZXB7tGTQIhgW8CNQYvB90axQJ4ErT/UGpTBK4EBQfjt874sF1bB8/B9
QLKRvUD7eJjBvTHHQM9ej8CgaIHBH5/vQC7vDkDb3Y3Bteu+QBkowb9tekTBCYD2QKzVwL4wGS3B
9C9QQKSKSEDlx5HBmsc0v+a9ssCqZ2rBygrsQCWrm7+RrD/BL9vhQMl4GMCYhrXB+Y4EQXllfL65
w7LBy4KUQO2eIsACBbHB56niQGAj3z9quavBeQtdQBAcE7/fZqnB8hLzP0knN8DDjYnBDdFLQO71
3cDsnoTBGwb2vQijUsAM53zBWTWVP8mH68CFB3PBV+q3QCCAl7+atpDBt0TkQFRBM8AgoGXB94T+
QNAdpz/luHXBNnepQNB150CY4oHBDwBrQKCt8EDOk4fBxkWEQIH0u0D7M4PBQO+MQG+niMCsYp/B
Uwk/QH/yqsAeXp3BuFw1QCWoZMDPM5vBZrsVQYpbJz/ghEHB+yIfQRbT+j6ejFzB+UUJQeUhzD9Q
l1bBqHL5QI9cU8BHeS3BA1oBQYHPW8BlwknBILEUQd2nJ8Cj9zjBRTqMQGqbK0CxS6vBy/tdQJWD
yj+Hl6LB82atQG6I7UDwvpXBsSy8QE/PuEAdX5HB+LGpQLMRm0BzFKLBqIhkQHEgjUD1m6PBlGWS
QD0XsMC7Ko7BktHGQC6wNUAwg57Bl+mkQHOBekCYF4/BYXeIQBC0IsDOp43BlkKcQCHaGT82iZPB
8iVMQKx7t0C1rpPBN8BsQN330kDcBJ7B8NxXQD6OG0BQwozBZ+TUQMT5uL96LLLB50LsQM1gjr5R
0K/BG8qoQOWuwb8k5a/B2mHXQGg0VD+6UavBbfiTQCud1L52O6vBFsPbP/DWa8C0j4XBB40YQAGd
wMCVToPBQowRP0/eesCwn37B6iGeP1ENyMCbHHrB2hXIQKg1dr8hkojB6n7hQM+4+b8n32/BBdPw
QF3NxD7yxXfBkMfLQCoKBcAIwIHBSfvaQOTmiD5nuIXB/jKrQLiHQT/n96jB34soQCeBl8BbjIfB
8QfzQA7+Nb+peWnBvzmoPih6psAdGXbBk4m3QIDTVsCrsYTBfGzWQEfBtz/r0IzBzvORQCi3t0BL
c3PBwdJcQBBCicCCP5rB2LoSQaARBD+WDFHBeUQFQVCxPcA6JDzBRsCTQHxT+j/v0aTBrtKkQN0i
0EB8R4PBT5+qQIiukEBhyY7BXtN2QLtCkMCQiI7Ba1yrQHvDJUBWUJvBGiKRQIXKcUD8QpfByfaS
QEW1VMAV+4rBIZ2xQBeHxz/3ApPBcKwCQUxvDr8p/FTBy+GXQIyDu0B8R43BLCrGQHtkjcCKZoHB
eEbyQA0uE0AY/YzBlUTCQI8K0b+S2ELBK8b7QMhKFb97qSvByPWIQOyClUD885/B1JdFvxilrcD3
C2rBFcfvQEp7rr9mqz7BIdrkQIG3EsCov7XBohQHQVQocb6jdbHBmgOXQKlBGsDLvLHBIALpQO4B
3j/EqKnBMIBkQOYv8L5/Y6nBsvnyP7P1LMCo14jBR81EQH1s2sCZ3ITBLz4Dvs57R8CfknvBzlqG
P/SA58BwmHPBDLa2QLkvhr/oAZDB3MzkQLryM8DpkGXBugAAQejKqD/PlnPBksmbQMZcx0CpeGTB
V6ZdQIW7t0BalHTB0LadQEaKlkCtm3PBnDqLQNAYhMBSIp/BHGE6QNqdpcD8L53ByvkyQFEWWsAs
0ZrBi/oXQUPH9D7OQkDBVpggQTkcuz54nlvBq3oLQQiPvz9vXVTBvbr9QN0tYMCXMi7BLIQCQV7A
Y8CqsErBSIsWQeZRM8DiATrBnf2QQGu7LEA7RavBiSxnQJgL0z+YOKLBqA6ZQDlP8UBmL4PBTfLH
QPsd0EAPs4LBiGWpQNHDfUBnM4fB1xjMQOnNk0C8ZJHBjzmQQD6WrMBlEI7BFq3KQP8ePUBFE57B
Ev9lQPxxWkAMxpPBYO6HQBNrG8C6PY3BdeGZQAYaaD+WwZHBKwJwQKi4uEC/TY3BagmhQB0YzkCQ
YJPBzApyQEsUh0BZU6XB

> <OMEGA_E>
MM5ZP64Ncz8=

> <OMEGA_NBR>
     11747

$$$$
50146761
  -OEChem-04172616093D

 50 52  0     0  0  0  0  0  0999 V2000
    6.5776    8.4580  -24.4251 C   0  0  0  0  0  0  0  0  0  0  0  0
    5.6637    7.4844  -24.8775 C   0  0  0  0  0  0  0  0  0  0  0  0
    7.6811    8.0828  -23.6319 C   0  0  0  0  0  0  0  0  0  0  0  0
    5.8456    6.1360  -24.5256 C   0  0  0  0  0  0  0  0  0  0  0  0
    7.8745    6.7326  -23.2945 C   0  0  0  0  0  0  0  0  0  0  0  0
    6.0621    0.8730  -20.9080 C   0  0  0  0  0  0  0  0  0  0  0  0
    6.3011   -0.1720  -23.1088 C   0  0  0  0  0  0  0  0  0  0  0  0
    5.7367   -0.3657  -20.3582 C   0  0  0  0  0  0  0  0  0  0  0  0
    5.9310   -1.4058  -22.5651 C   0  0  0  0  0  0  0  0  0  0  0  0
    8.3337    3.6844  -23.7826 C   0  0  0  0  0  0  0  0  0  0  0  0
    8.1447    2.2825  -23.4064 C   0  0  0  0  0  0  0  0  0  0  0  0
    6.9490    5.7653  -23.7309 C   0  0  0  0  0  0  0  0  0  0  0  0
    6.3713    0.9588  -22.2758 C   0  0  0  0  0  0  0  0  0  0  0  0
    5.6656   -1.5043  -21.1879 C   0  0  0  0  0  0  0  0  0  0  0  0
    7.1912    4.3654  -23.4385 C   0  0  0  0  0  0  0  0  0  0  0  0
    6.9142    2.1799  -22.8099 C   0  0  0  0  0  0  0  0  0  0  0  0
    5.1844    4.1441  -20.7037 C   0  0  0  0  0  0  0  0  0  0  0  0
    3.8696    4.5482  -18.6815 C   0  0  0  0  0  0  0  0  0  0  0  0
    3.5332   -2.2010  -19.0912 C   0  0  0  0  0  0  0  0  0  0  0  0
    5.0508    3.7728  -22.1942 C   0  0  0  0  0  0  0  0  0  0  0  0
    3.9750   -2.9295  -20.3756 C   0  0  0  0  0  0  0  0  0  0  0  0
    6.3661    3.4395  -22.8360 N   0  0  0  0  0  0  0  0  0  0  0  0
    2.6686    4.7410  -18.2138 N   0  0  0  0  0  0  0  0  0  0  0  0
    4.0020    4.3004  -19.9663 N   0  0  0  0  0  0  0  0  0  0  0  0
    4.8694    4.5721  -17.8402 N   0  3  0  0  0  0  0  0  0  0  0  0
    6.2987    4.2876  -20.2076 O   0  0  0  0  0  0  0  0  0  0  0  0
    5.3743   -2.7287  -20.6592 O   0  0  0  0  0  0  0  0  0  0  0  0
    6.4317    9.4955  -24.6873 H   0  0  0  0  0  0  0  0  0  0  0  0
    4.8252    7.7743  -25.4935 H   0  0  0  0  0  0  0  0  0  0  0  0
    8.3767    8.8321  -23.2841 H   0  0  0  0  0  0  0  0  0  0  0  0
    5.1434    5.3876  -24.8623 H   0  0  0  0  0  0  0  0  0  0  0  0
    8.7290    6.4381  -22.7032 H   0  0  0  0  0  0  0  0  0  0  0  0
    6.0764    1.7579  -20.2889 H   0  0  0  0  0  0  0  0  0  0  0  0
    6.5314   -0.0880  -24.1607 H   0  0  0  0  0  0  0  0  0  0  0  0
    5.5395   -0.4535  -19.3000 H   0  0  0  0  0  0  0  0  0  0  0  0
    5.8497   -2.2769  -23.1984 H   0  0  0  0  0  0  0  0  0  0  0  0
    9.2125    4.1070  -24.2469 H   0  0  0  0  0  0  0  0  0  0  0  0
    8.8456    1.4770  -23.5687 H   0  0  0  0  0  0  0  0  0  0  0  0
    2.4625   -2.3823  -18.9159 H   0  0  0  0  0  0  0  0  0  0  0  0
    4.1137   -2.5796  -18.2369 H   0  0  0  0  0  0  0  0  0  0  0  0
    3.7085   -1.1209  -19.2037 H   0  0  0  0  0  0  0  0  0  0  0  0
    4.3878    2.8992  -22.2797 H   0  0  0  0  0  0  0  0  0  0  0  0
    4.6057    4.6247  -22.7291 H   0  0  0  0  0  0  0  0  0  0  0  0
    3.7887   -4.0068  -20.2542 H   0  0  0  0  0  0  0  0  0  0  0  0
    3.3835   -2.5481  -21.2210 H   0  0  0  0  0  0  0  0  0  0  0  0
    2.5326    4.9013  -17.2362 H   0  0  0  0  0  0  0  0  0  0  0  0
    1.8831    4.7285  -18.8326 H   0  0  0  0  0  0  0  0  0  0  0  0
    3.1507    4.2122  -20.4834 H   0  0  0  0  0  0  0  0  0  0  0  0
    5.7992    4.3956  -18.1634 H   0  0  0  0  0  0  0  0  0  0  0  0
    4.7048    4.7668  -16.8733 H   0  0  0  0  0  0  0  0  0  0  0  0
  1  2  1  0  0  0  0
  1  3  2  0  0  0  0
  2  4  2  0  0  0  0
  3  5  1  0  0  0  0
  4 12  1  0  0  0  0
  5 12  2  0  0  0  0
  6  8  2  0  0  0  0
  6 13  1  0  0  0  0
  7  9  1  0  0  0  0
  7 13  2  0  0  0  0
  8 14  1  0  0  0  0
  9 14  2  0  0  0  0
 10 11  1  0  0  0  0
 10 15  2  0  0  0  0
 11 16  2  0  0  0  0
 12 15  1  0  0  0  0
 13 16  1  0  0  0  0
 14 27  1  0  0  0  0
 15 22  1  0  0  0  0
 16 22  1  0  0  0  0
 17 20  1  0  0  0  0
 17 24  1  0  0  0  0
 17 26  2  0  0  0  0
 18 23  1  0  0  0  0
 18 24  1  0  0  0  0
 18 25  2  0  0  0  0
 19 21  1  0  0  0  0
 20 22  1  0  0  0  0
 21 27  1  0  0  0  0
  1 28  1  0  0  0  0
  2 29  1  0  0  0  0
  3 30  1  0  0  0  0
  4 31  1  0  0  0  0
  5 32  1  0  0  0  0
  6 33  1  0  0  0  0
  7 34  1  0  0  0  0
  8 35  1  0  0  0  0
  9 36  1  0  0  0  0
 10 37  1  0  0  0  0
 11 38  1  0  0  0  0
 19 39  1  0  0  0  0
 19 40  1  0  0  0  0
 19 41  1  0  0  0  0
 20 42  1  0  0  0  0
 20 43  1  0  0  0  0
 21 44  1  0  0  0  0
 21 45  1  0  0  0  0
 23 46  1  0  0  0  0
 23 47  1  0  0  0  0
 24 48  1  0  0  0  0
 25 49  1  0  0  0  0
 25 50  1  0  0  0  0
M  CHG  1  25   1
M  END
> <OMEGA_C>
gHvSQN1TB0GlZsPBvzy1QAGA70AwBcfBLsv1QBRTAUEfDr3B8w67QLdZxEBlNMTB7Pv7QB9x10AY
W7rBdvzBQOJ+Xz+HQ6fB7KLJQJwUML7o3rjBrZK3QOY2u76i3aLBDsu9QNXys79ThbTB61YFQerM
a0DLQr7B2lACQa4UEkBAQLvBkl7eQFZ9uEDb2L3B2OHLQP51dT/VNLLBRUy1QEmLwL/AgKnBoB7m
QHyxi0ASgrvBN0HdQGKDC0C0erbBiualQFWchEBGoaXBKad3QKqKkUDPc5XBlSBiQOjcDMCyupjB
jaChQMZ0cUDLjbHB9WV+QP58O8AxAaPB5LbLQNIgXEAzsLbBwsoqQPG1l0DxtZHBrxCAQOmciUD3
up/BfdKbQGROkkDPuI7By47JQNcziUASqaHBZfqrQOqiLsD9RaXBs9DNQG/tF0GVf8XBaWiaQPnG
+ECq8svB9gYGQVhQDUHMRbrBEpekQFZnrEAO5sbB1qkLQdAEzkA0oLXBlHHCQIcB4T+hT6LB9QDR
QCkttL0NScHBckOxQPMy6L5sZprBpjC7QB25EcA6lrnBbWYTQaxsg0CN+cHBpIcNQcwOvT+rjLzB
HJodQLR3GMDQU5fBoKODQO0XJcA/5ZHBmVdtQN14j78moZnBH2mMQHSMOUDpPLLBKGKTQD39k0BG
1bXBanpyQL83gMCbCKLBw4pYQP8TI8CDxKnBbxUiQMjXnEDA44nB+gnxP/5Pl0AYqZbB1aRJQFbK
hkAL3qPB05K5QLeojEC8TpHBX42WQNSJmECL/IbBdxjLQIlSBkEVr8PBVXWvQHty60CC7sbBIEHw
QJSgAUHMvL3BPta4QHrZwEDNK8TBIdr5QCyn2EB6C7vBFEvPQKh8971mt7fBerrBQOr4eD8kh6bB
KZS1QFz1mL/tkbTB9DanQHCBqr3Ce6PB2UsHQWXnbkB7Gr7BxOYFQXrbFUBrZLrBi+/dQIOPt0Ad
LL7BpJvTQJ4yfD9f37DB0VugQHIWk795nqrBpr/oQNR3i0AHjrvBxGflQPv2DECwNLXBjASoQLhh
g0A6nKXBKY95QPKOj0AQpJXB6v/CQISuRMAPJpzBqFylQJEUbEA7dLHBt8agQMAWWMBgw6TBuazQ
QEJ6WkDVPrbBEXssQD1sl0C8LpLB7byBQNbphUDIzZ/Bry2cQOIEkEDXu47BPgfLQPE+i0BQmqHB
Ne6HQPX6DMBlV6fBosbDQFexFkEwwsXBICCTQEG48kByiMvBqqoCQSBjDkGgQLvBWLejQG5Up0BO
osbBx0ULQeBR0UBnl7bBA6nfQM55EL4JU7/BoH/IQKEi4z9u/qDBWvyxQDN6A8DDubnBWRaYQK8V
qL0Qt5vB38gUQSDlhUCQHsLBQ8sRQVAcyT+fibvBWD7VQFo7f8BGZZrBtN/YQNzmEsAnHp/BPzWz
QJkXLsDuzpTBC8+RQDi+MUC7D7LBIwmWQBr9j0BLALbBPdewQHf1bsCDDazByCyLQBoThcBKvqHB
+KMiQC+XnUD1bYrBgFT2P3NKl0ALSJfB3ONNQPk9f0Co4qPBxOO5QOjGiEDqFpHBUX2WQBedl0D0
F4fBCdPOQI3LBkEu2sPBCQ3zQA6IAUG9q73B00OyQIFQ7UBnMMfB39j6QEM82EDg27rBpam5QBOG
wkCaPcTBZD7AQJDHYz9oF6fBHrbPQPCNJL6gVbjBiiasQJDnjr5/o6PBrG+7QFcsqr9J6rTBZ2EG
QXJXbkD4H77BJnIEQfP3FEATtLrBtebdQJYguEDcCb7B3urQQL8NdT+1iLHBkTupQDWpsb9ppqrB
8F3nQJy/i0Are7vBDCLiQCRiDECsrLXBfSqnQLYBhEBRgaXBhy14QCAOkUDqgJXB7ZKJQMVpi8Ad
xpvBrsGjQGRpbkARYrHB+biWQIJUOcBzw5zBnIHOQLREW0CFV7bBiawqQOkclkBD3pHBM/aAQILA
iEDhvp/BLNCbQCumk0B7uI7BN5DKQAiniEBkZaHByKOUQPjUIsDc4afBXezIQNg/F0FRCsbBvGQE
QU3xDUF1GbvBHr6WQMdx9UDVAMzBXXkLQbP3z0AXRrbBPrOjQKe9qUCvtsbBWfvCQBxl3j8qyKHB
nlzeQDyW7r3aJsDByuieQJ8Frb7+q5vB/cC5QJj0C8AbJ7rBNw8UQU5khUARB8LB7iMQQQULxj99
67vBANCKQEAllcCWUpPBU5ZRQN9yj8A+0Z7B15yfQE9tn8AxeKDBK4aPQOQENUCOAbLB4c2UQEiu
kUAi0bXBnLuAQA7IEMCpH5jBSY23QO68MMCcxpnBOBUhQDzMm0BYForBDJPxPzpPlED725bBjvRL
QCVlhUCM9qPBE965QIo2j0DdO5HB+AeWQNsRmkCNBIfBOHSzQIXP0L+OOqvBMubCQH2av7/ew7XB
8iOyQLTRA78KXaTBFiLRQPBbfL7HcLnBkhXAQN76PD/sDKjBUHm6QIKwv0ARucPBWLT2QMEL2UBi
3bjBspC1QJaD6EAMAcjBnpbwQH4/AUFD1rzBrwADQUI2FUB/mbvBKVQFQQq5cECG273B0GzPQL5m
Xz8rnbLBmMrbQMbut0CWcrzBOLPQQF/oBEGjl8TBCoTfQJieCUB6d7bB8FvmQE03jECjO7rBTmam
QP6fg0ATSqXB+5h3QKHSk0CIbpXBBbl+QNuNHUH7OsTBPECiQCBNa0BeBrHB1petQLruJUHADsPB
mNfMQAhtWUBTCrbBlj8qQN2OmUDS0JHBzIKAQN7Di0BNrp/BSYebQCZhlUCKoY7BhurJQJ+0hUBs
HKHBsszLQAHeGEG70cjBI5WoQA0CJsDxZ6jBbMrDQISzFsCDArvByW6mQAxXH7+pR5zB8FrdQIjO
Er7jesHBkBG/QD1hzD+L0KLBnuCkQMJBpkCq+cXBN94HQUiX0kBcIbPBLBadQA2f7kC26M3BChEC
QUBODkF3+7nBmV4OQWNhxz9hm73Ba9USQTCbh0BOq8HB/d1SQOn1J0Elub/BRohsQICSHUFHu8zB
mt96QEcnDUHyEsHBua+OQBLZMEB8YrHB+1qSQGxQj0AHjbXBMBuvQFRdNkHpL8bB2ka2QBvyJUGU
h7rBF64gQCX6nkDCBYrBSuLwP6GKmEBK1ZbB60JLQIBni0BBBaTBwXq5QEFGkEBUJJHBvtqVQPas
m0Cu6obBxNTPQOv7BkF9y8PBpYqyQPcH7kCP7cbBBnn0QOuIAUHtzr3B36y5QK00w0B4/cPBSuL7
QA402EAc9rrBFuLOQMgAKL4ZlbjBY22/QJTcXz+3TafB+u29QFh8r7/25rTBcIiuQGhHqb4pmaPB
GC4GQWgPbkBi873BzM0DQW17FEA8ubrBjjfeQBVwuEAJ8r3BUBPPQE4zdT9607HBd4CtQGgfu7+8
dqrBUxjnQMP4i0CWX7vBxHDgQDNoDECC4rXBM4umQJ74g0AigaXBpft3QBAnkUDfbJXBXdhtQMyj
hMBfvJvBQuKiQA6Kb0DwarHBsS+JQEetL8DhIJ3B+YLNQFPhW0BbabbBf+MqQBhel0BHxJHBiYOA
QNQ3iEBPpZ/B+eCbQFlWk0CYro7BNAfKQOQXiUDqeqHBLy6dQGCNK8BXdqfBDi3KQNN0F0FV/cXB
WKmWQAV19kAylMvB02gFQbrQDUG8abvBlkOjQCynqkA7WsbBTBwMQX+lz0CAgLbBdcbbQJ3Av701
lMDB13rAQCd33j8ZH6LB0nC9QBIPD8DXFLrBikiiQAl0zr5GipvBwxUUQZoWhUDnr8HBQFwPQcIG
xD/h7rvBpbtOQEkoh8Dw3ZPBA4o+QOLkisAJEKLBju6QQKRCnMAWRpzBuVCOQN2uNkDpHbLBnjeU
QCSfkkDNxLXBlqNeQOAXAMCAopzBWPugQGTTIsCM2JbBCt4hQMiYnUBPAIrBg33xP2volUB5uZbB
Pc9KQNTog0D6waPBM8e5QL0QjkC3NZHBsGCWQONHmkCi/obBVT3QQHooB0GqwsPBJp/0QPWRAUE6
tb3BGuuyQO2P7kCl/sbBDcf7QNEu2EBI6brBEbu5QFilw0CIFMTBH1XPQOSLJ75HnrjB36O/QHEt
Xj/8U6fBB4y+QIbir7/E97TBA+2uQMa1rr52pqPBDvYFQZMhbkAMKb7BRq0DQdivFEAd37rB2hDe
QPOauEAY/b3BVD/PQA8zdT+72rHB2u+tQCr+u78hjarBsNDmQKQOjEDAebvB7mTgQLGjDED87LXB
SZqmQLaXg0CCdqXBfuh3QHprkUAfb5XBlIRjQE4wg8BZqJzBTuWiQJnNb0AbaLHBeOGFQAsTLsBh
uJ3BO2zNQIYfXEDZb7bBsrQqQP2Jl0BZzZHBVIyAQBs9iEAlo5/B2M+bQJUclECNsY7BSxrKQDr7
h0BXZKHBBVedQAPaK8C6mafBLs7KQMqpF0Gb7cXBjnsFQe7HDUFGObvBz0KXQGwx90BytMvBD/sL
QYdoz0DvarbBHD2jQB1Aq0DvfsbBkVHcQPj+t710msDBNpbAQBNe3T+aH6LBQVS+QEU8D8DtJrrB
9MiiQOHC1r7NlZvBvsITQZEOhUApAsLBvzkPQfd6xD8VHbzBCBY/QFL0hMD6I5XB/T04QPLhiMB7
c6PBcRKLQOWlm8CbnZzBTi6OQAU4N0BCLbLBsFuUQOkBk0CNr7XBSXRZQICp+b+EzZ3Bl62bQKdc
IsCl95bB6YkhQOgUnkAwDorBDz/xP0+xlUDxwpbB2+pKQMQJhECpw6PBkcO5QIIPj0DlNZHBSzyW
QOs4m0DoBIfBG+LHQCrHCEHHysHBvK3uQEBSA0EvtLzBx56sQH468UD7tMXBaib6QLNa20BOcbvB
ixi4QBsBxkAwfcTBJhvsQGEh+z3C/6zBCGejQF1xVz9tELHB16zbQDP2gL/3rafB1AOTQJCxhr5d
j6vB0k4GQeHAb0DwB8DBle0DQYM/F0DwHrzByZ3eQN0Iu0B5PL/B0PDPQGteiD99mrHBc8quQE1M
mr+/9abB/HXoQCsLjkDGHL3BMQ3hQHkpEUAT5rbBedmoQFFVf0ABdqXBoZ14QGf9kUAF4JXBepbG
QB1rdcCGGJfB9femQLFif0CZw7HBd3GzQJ0TY8CnKqLBZ3bPQEHlYkDZcrfBxLUrQMPjnEDazpLB
d9qCQM0ni0DcI6DBWk2aQPznjkBQno7B8ATLQGrac0C006DBSyWcQLTTEsCi9qHBZw6/QGRjGUFu
sMLBrs0BQY7CD0GrxbnB+v+OQFyi+UCLocnBOvULQf/30kDPlbfBF3ejQD4qrUCokcfBTCMHQSGF
iT70jq3BkMKNQILdwz/E8LTBykXxQKjT3L/AI6TB+qRhQG+7yL7t16rBeM0TQXSShEBFZcTBnl0P
QUc3yD8JKb3BejHYQFgtmcCIUZfBYJbcQGBpQcAc4JTBL7SsQJaeecC8J5HB5+yMQDhJVED6N7TB
xqefQJ97oEDyY7TBMF/NQCL7XsCeGKjB/3ydQCuYi8A+YKTBXugfQJ6jokDlE4vBQkz5P6N7n0DY
MJjBKE1SQMCfjkB706TBdRm4QBr7hkBLwpDBCnCTQE15lED77YbBWNmvQNXvm7/ow6bBQVTcQDLz
gr9UvqfBLEeTQLlkmb5mZqvBlknsQNuV3j2FIq3BTyajQLhQUD++97DBOZf6QNqG2kDRhLvBxSe4
QI3fxUBPcMTBtLDvQBboAkGCyLzBkxWtQEog8UCCpMXBirwDQWesFkDFJbzBgCcGQZUsb0ABBsDB
nLXPQGFdhj/dn7HBgo/eQKybukA8Nr/BEWDIQJ+yCEGessHBTqDgQCpzEEAx77bBRSToQMmvjUDf
G73BdbaoQBiff0CieaXBnY14QJ4PkkDE3JXB0U24QERQJ0Gurq/BcpemQLiYfkBMx7HB+JfJQOwG
LUGW6LrBGRHPQPYxYkDjd7fB+6srQJHpnEB+xpLBEsSCQDdSi0A4IqDBtUqaQNbWjkBvnY7BBvPK
QANfdEAP3aDBA4m7QHfEHUFy9cLBy7KjQCS4BMBRdKLBGTzyQBMU378NWqTBhFtiQJWU5r5ZrarB
STMHQfbvgz7v1q3BEyaNQN2Jvz/0yLTBbzEMQaXK0UCIubfBIEqjQH43rUDwgsfBSKQCQT40D0EY
ArrBhJaPQGC2+UC5mcnB6ioPQY4Nxz8RM73B2asTQXFThEDhXMTBOKDDQEE0M0Eo2KnBDxyVQONR
J0H51q/BxdzDQC5YF0FBX63BuKeMQPXsUkDzJLTBpv+eQPrrn0DXe7TBpAa+QLYMPUEGH73BWsfs
QAETLUFOp7rBnusfQJGFokCVCYvB7Sf5P9Gbn0CHJpjBxBhSQFfkjkBOz6TBfxC4QObfhkCRxJDB
23eTQCpXlEDC64bB

> <OMEGA_E>
cPF1PmgQkz5gfH0+0IV8PlhjeD5wmXM+SP69PtAFvz4=

> <OMEGA_NBR>
      7080

$$$$
50146770
  -OEChem-04172616093D

 46 48  0     0  0  0  0  0  0999 V2000
    5.5271   -1.5833  -21.1719 C   0  0  0  0  0  0  0  0  0  0  0  0
    5.5027   -0.4279  -20.3666 C   0  0  0  0  0  0  0  0  0  0  0  0
    5.9997   -1.5094  -22.4967 C   0  0  0  0  0  0  0  0  0  0  0  0
    7.6638    8.0930  -23.4999 C   0  0  0  0  0  0  0  0  0  0  0  0
    5.9427    0.8035  -20.8882 C   0  0  0  0  0  0  0  0  0  0  0  0
    6.4539   -0.2826  -23.0144 C   0  0  0  0  0  0  0  0  0  0  0  0
    7.8722    6.7266  -23.2354 C   0  0  0  0  0  0  0  0  0  0  0  0
    6.5403    8.5012  -24.2438 C   0  0  0  0  0  0  0  0  0  0  0  0
    8.1522    2.2646  -23.4067 C   0  0  0  0  0  0  0  0  0  0  0  0
    8.3229    3.6723  -23.7970 C   0  0  0  0  0  0  0  0  0  0  0  0
    5.8207    6.1772  -24.4406 C   0  0  0  0  0  0  0  0  0  0  0  0
    6.4154    0.8818  -22.2187 C   0  0  0  0  0  0  0  0  0  0  0  0
    6.9418    5.7699  -23.6926 C   0  0  0  0  0  0  0  0  0  0  0  0
    5.6153    7.5433  -24.7111 C   0  0  0  0  0  0  0  0  0  0  0  0
    6.9361    2.1398  -22.7773 C   0  0  0  0  0  0  0  0  0  0  0  0
    7.1807    4.3477  -23.4460 C   0  0  0  0  0  0  0  0  0  0  0  0
    5.2012    4.1487  -20.7354 C   0  0  0  0  0  0  0  0  0  0  0  0
    3.8878    4.5750  -18.7217 C   0  0  0  0  0  0  0  0  0  0  0  0
    4.4581    7.9694  -25.5810 C   0  0  0  0  0  0  0  0  0  0  0  0
    5.0547    3.7368  -22.2087 C   0  0  0  0  0  0  0  0  0  0  0  0
    6.3682    3.4033  -22.8388 N   0  0  0  0  0  0  0  0  0  0  0  0
    2.6803    4.6357  -18.2365 N   0  0  0  0  0  0  0  0  0  0  0  0
    4.0227    4.3575  -20.0104 N   0  0  0  0  0  0  0  0  0  0  0  0
    4.8929    4.7156  -17.8983 N   0  3  0  0  0  0  0  0  0  0  0  0
    6.3176    4.2248  -20.2282 O   0  0  0  0  0  0  0  0  0  0  0  0
    5.1832   -2.5264  -20.7734 H   0  0  0  0  0  0  0  0  0  0  0  0
    5.1464   -0.4866  -19.3487 H   0  0  0  0  0  0  0  0  0  0  0  0
    6.0135   -2.3946  -23.1152 H   0  0  0  0  0  0  0  0  0  0  0  0
    8.3649    8.8277  -23.1327 H   0  0  0  0  0  0  0  0  0  0  0  0
    5.9192    1.6897  -20.2713 H   0  0  0  0  0  0  0  0  0  0  0  0
    6.8333   -0.2321  -24.0243 H   0  0  0  0  0  0  0  0  0  0  0  0
    8.7444    6.4105  -22.6825 H   0  0  0  0  0  0  0  0  0  0  0  0
    6.3861    9.5487  -24.4570 H   0  0  0  0  0  0  0  0  0  0  0  0
    8.8591    1.4676  -23.5836 H   0  0  0  0  0  0  0  0  0  0  0  0
    9.1925    4.0988  -24.2748 H   0  0  0  0  0  0  0  0  0  0  0  0
    5.1190    5.4422  -24.8064 H   0  0  0  0  0  0  0  0  0  0  0  0
    4.7693    7.9612  -26.6360 H   0  0  0  0  0  0  0  0  0  0  0  0
    3.6184    7.2727  -25.4411 H   0  0  0  0  0  0  0  0  0  0  0  0
    4.1426    8.9849  -25.2997 H   0  0  0  0  0  0  0  0  0  0  0  0
    4.4010    2.8539  -22.2657 H   0  0  0  0  0  0  0  0  0  0  0  0
    4.5969    4.5684  -22.7645 H   0  0  0  0  0  0  0  0  0  0  0  0
    2.5418    4.7865  -17.2577 H   0  0  0  0  0  0  0  0  0  0  0  0
    1.8920    4.5316  -18.8429 H   0  0  0  0  0  0  0  0  0  0  0  0
    3.1751    4.3387  -20.5408 H   0  0  0  0  0  0  0  0  0  0  0  0
    5.8309    4.6592  -18.2401 H   0  0  0  0  0  0  0  0  0  0  0  0
    4.7239    4.8795  -16.9264 H   0  0  0  0  0  0  0  0  0  0  0  0
  1  2  1  0  0  0  0
  1  3  2  0  0  0  0
  2  5  2  0  0  0  0
  3  6  1  0  0  0  0
  4  7  1  0  0  0  0
  4  8  2  0  0  0  0
  5 12  1  0  0  0  0
  6 12  2  0  0  0  0
  7 13  2  0  0  0  0
  8 14  1  0  0  0  0
  9 10  1  0  0  0  0
  9 15  2  0  0  0  0
 10 16  2  0  0  0  0
 11 13  1  0  0  0  0
 11 14  2  0  0  0  0
 12 15  1  0  0  0  0
 13 16  1  0  0  0  0
 14 19  1  0  0  0  0
 15 21  1  0  0  0  0
 16 21  1  0  0  0  0
 17 20  1  0  0  0  0
 17 23  1  0  0  0  0
 17 25  2  0  0  0  0
 18 22  1  0  0  0  0
 18 23  1  0  0  0  0
 18 24  2  0  0  0  0
 20 21  1  0  0  0  0
  1 26  1  0  0  0  0
  2 27  1  0  0  0  0
  3 28  1  0  0  0  0
  4 29  1  0  0  0  0
  5 30  1  0  0  0  0
  6 31  1  0  0  0  0
  7 32  1  0  0  0  0
  8 33  1  0  0  0  0
  9 34  1  0  0  0  0
 10 35  1  0  0  0  0
 11 36  1  0  0  0  0
 19 37  1  0  0  0  0
 19 38  1  0  0  0  0
 19 39  1  0  0  0  0
 20 40  1  0  0  0  0
 20 41  1  0  0  0  0
 22 42  1  0  0  0  0
 22 43  1  0  0  0  0
 23 44  1  0  0  0  0
 24 45  1  0  0  0  0
 24 46  1  0  0  0  0
M  CHG  1  24   1
M  END
> <OMEGA_C>
zN2wQFKqyr8fYKnBJhawQMgR27647qLB7v2/QNMzwb9B+bPBej31QNB8AUHY/7vBrSq+QMG0TT8E
G6fBjYbOQJuzkL5vHbjB/ej7QHFA10Aw4rnB7EnRQAIFCEE988HBRm8CQervEEDUQLvBxCoFQYQH
a0BDYL7BfEO6QF2rxUBNhsPBWUvNQBXAYT/rv7HBliPeQBWjuECBir3BSrCzQLRi8UBksMXBc/Td
QEPyCEDsN7bBZsjlQDMgi0CAkbvBUHCmQETChEAJ4qXBJtF4QCdmkkADxpXBu6iOQB8F/0DXpczB
0L+hQPwmb0CEq7HBUsjLQGvQWUDctbbBIoorQP9XlEBe5JHBBbqAQD9wi0BWFaDBaJKcQBzmlkCu
L4/BginKQGgxh0BP06HBctylQMivIcD2L6bBW6+kQKYp+b4vyprBwm7AQLlBGcD367jBx9YFQVc+
DUGsD7nB9Gm9QHtI2D+kK6LBnKraQBWkbb62McDB9OgLQcgizUC5dbXBVFvMQHHHGEHep8PB3r4N
QRfZuz83q7zBkxQTQYQpg0DkMsLBJc+jQIUmrkCKc8bBLZ6YQCbC/kCJFtXBXJRnQLy56EBgh8vB
e5CEQFrCD0HeZcrB+9SMQNqlNkAaILLBwxmTQO4vkkDCHbbBH6wiQFIrmUDFD4rBKCzyP9UCkUA2
vpbBkDVLQIDWikCFU6TBCZe6QJAYlUDJ65HBBSqXQBclnEBBaYfBOabVQI/eCEHoDsTBV4PYQJv9
80CJhMzB3NraQHcMAkFhZLnBQquFQEiTsj2vwKnBd13gQNd7yED8UsrBzLHiQCuv2EB3MLfBbv2Y
QEK0jT+iv6/B6B+fQCUcZL93zqTBIZwEQbe7Y0CNuMDBQDsAQV2yDkCSFLzBBH7fQO2kRj7FuavB
ZRHlQHvHukCGpb/BVRLGQIE9mT/jg7DBdxDMQPZWWL/I0qXBZZvpQI0ljUDJQr3BVbraQD2yE0An
XbbBaWypQNHziECoqqXBoFp5QKk4iUCPfJXB+S3nQNRd+b90DaHBnLGmQM5Dh0Dn97HBvQ3OQHvZ
aEBvNrfB/PsrQANZg0A+z5HBId2CQIInhkBp45/B6QObQECNkkC+qI7BTyPMQADQj0CaZaHBuHPP
QE2GGUHawsXBFK7UQCiX/kBur9TByNPYQH53DUFG7bLBgo5GQLK4XT278KjBqcXiQFu4sUAazNDB
G+jmQJUuzkCKBq/BsTyFQJR86j/L07PBUEeQQOMC17+fN6DB8dMRQeQhdEAN5cXBwxEKQbawrD+o
/rzBZO8AQdd2Yz4FlazBuQHrQO97MMA976bBkGgDQTYDxr+L6Z7ByG3XQDffFcAK15nBctyKQLFO
Z0CQM7TBo0qiQDANqEDC+bTBaXEgQNAEhkAW+InBEZj4P0FceEDM1ZbBPyVRQCgogUBBRqTBsdO4
QMbMl0D/QJHBmGOUQChvlEDB2IbBYmelQN29ob8VZqjBJFG5QI8Upr96hbLBwZulQPgGnL3zUKLB
N/i+QMWR7ECPUMrBGJLNQFD2E77/jrbBRWq5QIJTij+UY6bB/UDMQJ6XwkD/7MfB0yrEQC6xBkGC
rcLBzC8FQfZQGUCdc7jBBgEIQScgckAmL7zBiDfnQL4J20C0m7bBnU7NQPYvhj/fhbDBs+zfQE7T
uUBSBb7BdEPYQEdXAkGRyrjBVengQOvcEEA13rTBonHpQCW0jUCrAbvBE9mUQFz6mEDIyavB/o5p
QP7bokDNE5rBJY/aQN5pE0GzNbDB952eQFdJcEB0w7TBBMXNQM+uX0DUm7bBlkM+QNxtkECabZLB
aTqBQDc7i0A2RaLB4WN7QIGdy0DQB5nB0E2aQP4Lv0C9m63BF/iVQPWHCcD7TKXBowm5QPVDDcBE
LbfB3ZOWQCgXX73BiZrB/8ywQByk80CM/tHB5ELdQExoMb7bQL7Bz2S5QAgT/z8hw6HBNWPHQM81
qUB2qc3BxL64QMCiFkHhZMTBrToRQUF/zz8thLjBtZQWQSDghkB+SL/BPj74QHuT1EDdQ6/B4n+9
QFTEEkEaQavB7dD2QHieEEHVJqvBNQrdQPFBI0Gs/bPBCEuPQPtBM0BNoLLBzsGQQL46hEBgRLzB
yd4rQIhfoUACC4zBsHwvQKm6YkDl85LBRiN4QFKDV0BWn6HBBOWOQCme2kBTo57BmZlmQJe320DG
n5LB

> <OMEGA_E>
gMOGPZgx9j6EWTc/

> <OMEGA_NBR>
      9750

$$$$
50146772
  -OEChem-04172616093D

 54 57  0     0  0  0  0  0  0999 V2000
    7.0454   -4.2491  -17.4064 C   0  0  0  0  0  0  0  0  0  0  0  0
    6.9408   -2.8500  -17.4918 C   0  0  0  0  0  0  0  0  0  0  0  0
    6.4240   -5.0615  -18.3751 C   0  0  0  0  0  0  0  0  0  0  0  0
    7.5224    8.1323  -23.5930 C   0  0  0  0  0  0  0  0  0  0  0  0
    7.8118    6.7887  -23.2887 C   0  0  0  0  0  0  0  0  0  0  0  0
    6.6473   -0.2900  -22.9049 C   0  0  0  0  0  0  0  0  0  0  0  0
    5.7741    0.9415  -20.9915 C   0  0  0  0  0  0  0  0  0  0  0  0
    6.2258   -2.2633  -18.5504 C   0  0  0  0  0  0  0  0  0  0  0  0
    5.6985   -4.4780  -19.4316 C   0  0  0  0  0  0  0  0  0  0  0  0
    6.0913   -1.4723  -22.3827 C   0  0  0  0  0  0  0  0  0  0  0  0
    5.1461   -0.2059  -20.5253 C   0  0  0  0  0  0  0  0  0  0  0  0
    6.3846    8.4519  -24.3621 C   0  0  0  0  0  0  0  0  0  0  0  0
    8.2590    2.3039  -23.3650 C   0  0  0  0  0  0  0  0  0  0  0  0
    8.4101    3.7129  -23.7644 C   0  0  0  0  0  0  0  0  0  0  0  0
    5.8149    6.0872  -24.5108 C   0  0  0  0  0  0  0  0  0  0  0  0
    6.4855    0.9256  -22.2061 C   0  0  0  0  0  0  0  0  0  0  0  0
    6.9469    5.7682  -23.7328 C   0  0  0  0  0  0  0  0  0  0  0  0
    5.5983   -3.0783  -19.5427 C   0  0  0  0  0  0  0  0  0  0  0  0
    5.3574   -1.4283  -21.1788 C   0  0  0  0  0  0  0  0  0  0  0  0
    5.5361    7.4272  -24.8287 C   0  0  0  0  0  0  0  0  0  0  0  0
    7.0343    2.1675  -22.7557 C   0  0  0  0  0  0  0  0  0  0  0  0
    7.2505    4.3705  -23.4330 C   0  0  0  0  0  0  0  0  0  0  0  0
    5.2371    4.1747  -20.7195 C   0  0  0  0  0  0  0  0  0  0  0  0
    3.8907    4.5332  -18.7118 C   0  0  0  0  0  0  0  0  0  0  0  0
    5.1239    3.7605  -22.2008 C   0  0  0  0  0  0  0  0  0  0  0  0
    6.4528    3.4257  -22.8176 N   0  0  0  0  0  0  0  0  0  0  0  0
    2.6844    4.7453  -18.2674 N   0  0  0  0  0  0  0  0  0  0  0  0
    4.0439    4.2998  -19.9962 N   0  0  0  0  0  0  0  0  0  0  0  0
    4.8745    4.5305  -17.8514 N   0  3  0  0  0  0  0  0  0  0  0  0
    6.3445    4.2835  -20.1983 O   0  0  0  0  0  0  0  0  0  0  0  0
    4.8782   -2.5853  -20.6255 O   0  0  0  0  0  0  0  0  0  0  0  0
    4.4580    7.7273  -25.5870 F   0  0  0  0  0  0  0  0  0  0  0  0
    7.6018   -4.7011  -16.5986 H   0  0  0  0  0  0  0  0  0  0  0  0
    7.4092   -2.2263  -16.7448 H   0  0  0  0  0  0  0  0  0  0  0  0
    6.5045   -6.1363  -18.3073 H   0  0  0  0  0  0  0  0  0  0  0  0
    8.1719    8.9185  -23.2373 H   0  0  0  0  0  0  0  0  0  0  0  0
    8.6937    6.5406  -22.7167 H   0  0  0  0  0  0  0  0  0  0  0  0
    7.1950   -0.3125  -23.8355 H   0  0  0  0  0  0  0  0  0  0  0  0
    5.7163    1.8542  -20.4170 H   0  0  0  0  0  0  0  0  0  0  0  0
    6.1501   -1.1879  -18.6145 H   0  0  0  0  0  0  0  0  0  0  0  0
    5.2151   -5.1094  -20.1624 H   0  0  0  0  0  0  0  0  0  0  0  0
    6.2258   -2.4099  -22.9016 H   0  0  0  0  0  0  0  0  0  0  0  0
    4.4976   -0.1570  -19.6630 H   0  0  0  0  0  0  0  0  0  0  0  0
    6.1629    9.4831  -24.5942 H   0  0  0  0  0  0  0  0  0  0  0  0
    8.9819    1.5172  -23.5227 H   0  0  0  0  0  0  0  0  0  0  0  0
    9.2781    4.1514  -24.2343 H   0  0  0  0  0  0  0  0  0  0  0  0
    5.1623    5.3017  -24.8623 H   0  0  0  0  0  0  0  0  0  0  0  0
    4.4725    2.8768  -22.2694 H   0  0  0  0  0  0  0  0  0  0  0  0
    4.6749    4.5917  -22.7643 H   0  0  0  0  0  0  0  0  0  0  0  0
    2.5311    4.9003  -17.2915 H   0  0  0  0  0  0  0  0  0  0  0  0
    1.9119    4.7532  -18.9024 H   0  0  0  0  0  0  0  0  0  0  0  0
    3.2010    4.1986  -20.5246 H   0  0  0  0  0  0  0  0  0  0  0  0
    5.8073    4.3433  -18.1592 H   0  0  0  0  0  0  0  0  0  0  0  0
    4.6943    4.7155  -16.8853 H   0  0  0  0  0  0  0  0  0  0  0  0
  1  2  1  0  0  0  0
  1  3  2  0  0  0  0
  2  8  2  0  0  0  0
  3  9  1  0  0  0  0
  4  5  2  0  0  0  0
  4 12  1  0  0  0  0
  5 17  1  0  0  0  0
  6 10  2  0  0  0  0
  6 16  1  0  0  0  0
  7 11  1  0  0  0  0
  7 16  2  0  0  0  0
  8 18  1  0  0  0  0
  9 18  2  0  0  0  0
 10 19  1  0  0  0  0
 11 19  2  0  0  0  0
 12 20  2  0  0  0  0
 13 14  1  0  0  0  0
 13 21  2  0  0  0  0
 14 22  2  0  0  0  0
 15 17  2  0  0  0  0
 15 20  1  0  0  0  0
 16 21  1  0  0  0  0
 17 22  1  0  0  0  0
 18 31  1  0  0  0  0
 19 31  1  0  0  0  0
 20 32  1  0  0  0  0
 21 26  1  0  0  0  0
 22 26  1  0  0  0  0
 23 25  1  0  0  0  0
 23 28  1  0  0  0  0
 23 30  2  0  0  0  0
 24 27  1  0  0  0  0
 24 28  1  0  0  0  0
 24 29  2  0  0  0  0
 25 26  1  0  0  0  0
  1 33  1  0  0  0  0
  2 34  1  0  0  0  0
  3 35  1  0  0  0  0
  4 36  1  0  0  0  0
  5 37  1  0  0  0  0
  6 38  1  0  0  0  0
  7 39  1  0  0  0  0
  8 40  1  0  0  0  0
  9 41  1  0  0  0  0
 10 42  1  0  0  0  0
 11 43  1  0  0  0  0
 12 44  1  0  0  0  0
 13 45  1  0  0  0  0
 14 46  1  0  0  0  0
 15 47  1  0  0  0  0
 25 48  1  0  0  0  0
 25 49  1  0  0  0  0
 27 50  1  0  0  0  0
 27 51  1  0  0  0  0
 28 52  1  0  0  0  0
 29 53  1  0  0  0  0
 29 54  1  0  0  0  0
M  CHG  1  29   1
M  END
> <OMEGA_C>
uXPhQMD4h8BcQIvB2RreQOplNsA374vBuJHNQGr3ocBIAJPBVrfwQA4eAkF0vrzBcPr5QNw82UA1
T7rBprbUQN99lL5MPbfBnsW4QAcHcT+D7qfBrjnHQGbaEMBQZ5TBEFq2QKFLj8D2c5vBrevCQEh1
vL/OD7PB6KykQCLjUr7TM6TB4E7MQCw7B0Gj5cLBxyQEQSJzE0CJ67rBuI8GQX+gbUB/Hb7BsRO6
QPbJwkAfFsTBMonPQOnzbD8XprHBRk3eQLSUuEDX3L3BFCWzQK0CRcBoV5zB8G+rQPPStr8VbqnB
ySexQM6r7UAXocbBJBnhQFq4CkCaC7bB0APoQMjai0DBdrvBq5anQNmWhUCjwaXBwwF5QA0QkUC4
sZXBYPejQFqscEA2m7HB9nzOQI4+W0BdirbB7s0rQLrZl0C6I5LB5WeBQNqXiUA3+J/BhPubQHP5
kEC0z47BWQbLQJ0SiUAQlqHB9hmcQBZ2JcAbAaXBj6eOQNRF90BBsszBzkHzQAVvlsD0yYTBjhjt
QMp7DsBn9YXBjCTQQK5cxMBQdZLBCMACQRuyDkH65bnBdxkLQZdM0UDgu7XBGD3mQLEDoL4br77B
rOu2QOxX7T8TVqPBU83EQOIMmL936pTBQeKmQOx/o8CwTKHBoznHQO07GsCANrfBpuyPQILCIL7r
TZ3BOzbFQPi6F0HhwMTB3rUPQZgzwj+XLrzB5nIUQWrYhEDA38HBnDGlQEWnqUDt5cbB3h6PQLId
OEClJ7LBwJiVQAHvkkBDHbbBIf4hQDXPnED6VIrBUrn0P/AZmEALOJfBG91MQLZahkBkMqTBo9W5
QAL8ikD0RZHBuDeWQJnllkAxFYfB8C/EQI7zU8BC14fB1UTiQODkVcBUPpDBwVWYQO7IR8B2EYrB
WDnwQMILAkFAP73BWPr4QBSD2UCFUrrBRXTSQAAtZr5TX7jB5Bm+QCkwWT/Yj6fBEX7UQCBuS8Ba
35rBzW6KQFC/PcDStZTBYeW/QMFxtr+L5rTBf5CrQKh2r776GKTBsFTMQOu9BkGYqcPBW4YEQUCM
FUDbhLrBx50GQY7wb0Amk73BtXS5QF7SwUB+FMTBz6DQQFc7az/fzbHB4EvdQKZ8uECypL3Bd4So
QPBIP8CnGp3BcDesQPkSvr+BzKrBUySxQMBH7EDqJMfBgbXhQPtAC0Bvz7XBhHvnQFsjjEDQErvB
azanQKC9g0BdgKXBsYd4QEAXkkBVk5XBDJOjQOqNbUBKWrHBAEfOQPCmWkDjSbbBcn0rQGeXmUCN
DpLB2BKBQP2UiUCmzZ/BJ7ObQHb4kUD1rY7BBqfKQMdOh0CJV6HBe7KbQIqQK8BVT6fB03GPQFQL
9UApj83BR73OQPfMW8AkWH/Be+YBQYxkX8BthY7Be2qBQMErRsDEmoPBx34CQT7JDkE3lLrBkWkK
QVYo0kAKjLXBdh3iQPgBNb6UEMDBsz6+QAZ32z++ZqLBzHTrQISpTMDXU6HBqbVRQIPoNMBZbpbB
erfAQIs1E8CU9rnBW7WcQKQ8yr7LTpzBnaXFQBwWF0Eg6sXBBFcQQTgtyD9NwbvBpYMUQba1hkBp
JsHB4m2kQE5lqEDDpsbB226PQLMBNEBu77HBKHyUQG8ikUAizbXBRr8hQB0Nn0DPRIrBnjP0P4Hj
mUDmJJfBQS1MQGnyhkBgDaTBrm65QNIhi0DbF5HBFAWWQIu3mEBF/YbBq7rTQBDWZMCT0YTBQ2/o
QAgDJcDPzorB8kKuQEHDhcBgzYjBOuCsQCEJ70BID8XBnXS3QMekw0DZq8PBr4fHQJ4IOb4mm7fB
0CTIQGQhgj9Cn6bBitzXQCBoDMBuyZTBlJucQPV6cMDdnJLBklC1QD3Fpb/7brLBhE2zQKLaOb1g
qqHBIdDIQH6GB0H7SMHB388DQfzpEEC1wbzBfuMFQev9akD6KsDBmCr6QGI12EB+2LrByjzRQIiA
eT9eorHBQeHdQO85uEAYdL7BAZOwQDOBL8Dxo5jBwUCsQIIhn78HYKfBT3rvQAPRAUEzM7zBdZDi
QAFKCkBj4LbBVhnoQJQoi0BonrzBVgCpQIujgkCFq6XByqp4QA/1kEDj5JXBL+6lQJ9HbkBKsbHB
hiXQQKWoWkASErfB1ugrQJ+am0CsuJLBeFCCQPsOiUA9JKDB4mCaQLD6jECpq47BIRvMQKUbhkDX
VqHBVE6dQNU6GMBpTqLBXyEFQaYtEUEokrjBpobgQJg4eMCnVXrBooQCQWLvBsB5vofBbf+eQNQP
n8ARUoTBtGmPQB7M90BRAsnBwC+iQHALq0C2mMbBrgHOQHrrWL7eFsDBdGjRQLuh8D/O+aHBCgXp
QBjUvL9tmpnByiB/QKbghsDiiJXB+kSuQJ4wDMCg7rbBB5GoQLimPT1ffJnBIJ7AQFgxGEEsScLB
BdMOQUE7uz+xjL7BBAgTQQkIg0BSpMTBfPoLQZ5yz0CJDbfBmkGRQB2mNUAzerLBMzOXQNhXkkAb
5LXBT1MgQP97oEDd8orBkXf5P73fnkC1EJjByohPQHJnh0DZlqTBLLS3QMp/g0DG0pDBegOUQFdr
k0Bb/4bB

> <OMEGA_E>
NK30PsB68T48TwI/

> <OMEGA_NBR>
     12743

$$$$
50146778
  -OEChem-04172616093D

 54 57  0     0  0  0  0  0  0999 V2000
    6.1440   -3.4180  -17.0175 C   0  0  0  0  0  0  0  0  0  0  0  0
    7.1080   -3.2627  -18.0340 C   0  0  0  0  0  0  0  0  0  0  0  0
    4.7685   -3.3850  -17.3317 C   0  0  0  0  0  0  0  0  0  0  0  0
    7.5311    8.1243  -23.6977 C   0  0  0  0  0  0  0  0  0  0  0  0
    7.7914    6.7956  -23.3164 C   0  0  0  0  0  0  0  0  0  0  0  0
    6.5972   -0.2253  -23.0604 C   0  0  0  0  0  0  0  0  0  0  0  0
    5.9349    0.8321  -20.9586 C   0  0  0  0  0  0  0  0  0  0  0  0
    6.6955   -3.0710  -19.3640 C   0  0  0  0  0  0  0  0  0  0  0  0
    4.3524   -3.1939  -18.6633 C   0  0  0  0  0  0  0  0  0  0  0  0
    6.0257   -1.4328  -22.6365 C   0  0  0  0  0  0  0  0  0  0  0  0
    5.3639   -0.3671  -20.5352 C   0  0  0  0  0  0  0  0  0  0  0  0
    6.4011    8.4215  -24.4859 C   0  0  0  0  0  0  0  0  0  0  0  0
    8.2789    2.3455  -23.3119 C   0  0  0  0  0  0  0  0  0  0  0  0
    8.4050    3.7592  -23.6868 C   0  0  0  0  0  0  0  0  0  0  0  0
    5.7759    6.0653  -24.4903 C   0  0  0  0  0  0  0  0  0  0  0  0
    6.5219    0.9140  -22.2352 C   0  0  0  0  0  0  0  0  0  0  0  0
    6.9056    5.7693  -23.7015 C   0  0  0  0  0  0  0  0  0  0  0  0
    5.3141   -3.0296  -19.6784 C   0  0  0  0  0  0  0  0  0  0  0  0
    5.4027   -1.5040  -21.3790 C   0  0  0  0  0  0  0  0  0  0  0  0
    5.5285    7.3900  -24.8879 C   0  0  0  0  0  0  0  0  0  0  0  0
    7.0481    2.1766  -22.7288 C   0  0  0  0  0  0  0  0  0  0  0  0
    7.2210    4.3832  -23.3779 C   0  0  0  0  0  0  0  0  0  0  0  0
    5.2196    4.1015  -20.6791 C   0  0  0  0  0  0  0  0  0  0  0  0
    3.8821    4.5696  -18.6900 C   0  0  0  0  0  0  0  0  0  0  0  0
    5.1022    3.7027  -22.1619 C   0  0  0  0  0  0  0  0  0  0  0  0
    6.4356    3.4150  -22.7842 N   0  0  0  0  0  0  0  0  0  0  0  0
    2.6799    4.8147  -18.2519 N   0  0  0  0  0  0  0  0  0  0  0  0
    4.0294    4.2866  -19.9651 N   0  0  0  0  0  0  0  0  0  0  0  0
    4.8668    4.5817  -17.8308 N   0  3  0  0  0  0  0  0  0  0  0  0
    6.3282    4.2098  -20.1609 O   0  0  0  0  0  0  0  0  0  0  0  0
    4.9041   -2.7090  -20.9498 O   0  0  0  0  0  0  0  0  0  0  0  0
    4.1568    7.7459  -25.9036 Cl  0  0  0  0  0  0  0  0  0  0  0  0
    6.4590   -3.5627  -15.9947 H   0  0  0  0  0  0  0  0  0  0  0  0
    8.1601   -3.2909  -17.7917 H   0  0  0  0  0  0  0  0  0  0  0  0
    4.0338   -3.5066  -16.5495 H   0  0  0  0  0  0  0  0  0  0  0  0
    8.1965    8.9161  -23.3866 H   0  0  0  0  0  0  0  0  0  0  0  0
    8.6680    6.5625  -22.7301 H   0  0  0  0  0  0  0  0  0  0  0  0
    7.0941   -0.1684  -24.0176 H   0  0  0  0  0  0  0  0  0  0  0  0
    5.9270    1.6952  -20.3093 H   0  0  0  0  0  0  0  0  0  0  0  0
    7.4311   -2.9553  -20.1462 H   0  0  0  0  0  0  0  0  0  0  0  0
    3.3000   -3.1735  -18.9050 H   0  0  0  0  0  0  0  0  0  0  0  0
    6.0640   -2.3043  -23.2733 H   0  0  0  0  0  0  0  0  0  0  0  0
    4.8926   -0.4291  -19.5654 H   0  0  0  0  0  0  0  0  0  0  0  0
    6.2036    9.4410  -24.7823 H   0  0  0  0  0  0  0  0  0  0  0  0
    9.0213    1.5765  -23.4670 H   0  0  0  0  0  0  0  0  0  0  0  0
    9.2739    4.2255  -24.1271 H   0  0  0  0  0  0  0  0  0  0  0  0
    5.1020    5.2758  -24.7884 H   0  0  0  0  0  0  0  0  0  0  0  0
    4.4758    2.8016  -22.2367 H   0  0  0  0  0  0  0  0  0  0  0  0
    4.6260    4.5272  -22.7128 H   0  0  0  0  0  0  0  0  0  0  0  0
    2.5305    5.0053  -17.2817 H   0  0  0  0  0  0  0  0  0  0  0  0
    1.9065    4.8123  -18.8858 H   0  0  0  0  0  0  0  0  0  0  0  0
    3.1847    4.1913  -20.4918 H   0  0  0  0  0  0  0  0  0  0  0  0
    5.7960    4.3675  -18.1321 H   0  0  0  0  0  0  0  0  0  0  0  0
    4.6911    4.8053  -16.8721 H   0  0  0  0  0  0  0  0  0  0  0  0
  1  2  1  0  0  0  0
  1  3  2  0  0  0  0
  2  8  2  0  0  0  0
  3  9  1  0  0  0  0
  4  5  2  0  0  0  0
  4 12  1  0  0  0  0
  5 17  1  0  0  0  0
  6 10  2  0  0  0  0
  6 16  1  0  0  0  0
  7 11  1  0  0  0  0
  7 16  2  0  0  0  0
  8 18  1  0  0  0  0
  9 18  2  0  0  0  0
 10 19  1  0  0  0  0
 11 19  2  0  0  0  0
 12 20  2  0  0  0  0
 13 14  1  0  0  0  0
 13 21  2  0  0  0  0
 14 22  2  0  0  0  0
 15 17  2  0  0  0  0
 15 20  1  0  0  0  0
 16 21  1  0  0  0  0
 17 22  1  0  0  0  0
 18 31  1  0  0  0  0
 19 31  1  0  0  0  0
 20 32  1  0  0  0  0
 21 26  1  0  0  0  0
 22 26  1  0  0  0  0
 23 25  1  0  0  0  0
 23 28  1  0  0  0  0
 23 30  2  0  0  0  0
 24 27  1  0  0  0  0
 24 28  1  0  0  0  0
 24 29  2  0  0  0  0
 25 26  1  0  0  0  0
  1 33  1  0  0  0  0
  2 34  1  0  0  0  0
  3 35  1  0  0  0  0
  4 36  1  0  0  0  0
  5 37  1  0  0  0  0
  6 38  1  0  0  0  0
  7 39  1  0  0  0  0
  8 40  1  0  0  0  0
  9 41  1  0  0  0  0
 10 42  1  0  0  0  0
 11 43  1  0  0  0  0
 12 44  1  0  0  0  0
 13 45  1  0  0  0  0
 14 46  1  0  0  0  0
 15 47  1  0  0  0  0
 25 48  1  0  0  0  0
 25 49  1  0  0  0  0
 27 50  1  0  0  0  0
 27 51  1  0  0  0  0
 28 52  1  0  0  0  0
 29 53  1  0  0  0  0
 29 54  1  0  0  0  0
M  CHG  1  29   1
M  END
> <OMEGA_C>
uZvEQFrAWsDhI4jBenTjQOzPUMCNRZDB6ZeYQGCkWMBpp4rBnP7wQDT9AUHMlL3BZ1P5QMl12UAI
iLrB9hvTQPrBZr62e7jB5uq9QNwGVT8jq6fBkEHWQAiLRMBw6ZrBqkaLQDBpTMCDTpXB19LAQBBl
t7+YF7XBqaSrQLD0u74XSKTBJ9bMQFi+BkEQ48PBXnYEQQ4cFkCxfrrB2noGQbSWcECZfr3BLtS4
QEoXwkAb7MPBdbPQQPf7aT+t4bHBrPrcQFWeuECfnL3Bcg2qQDzkQcBObZ3B0uKsQM+CwL8vCKvB
PumwQJ967EBkGsfBqInhQCpOC0Ci1LXByhLnQBdDjED4BbvB1wanQOE/g0DGbqXB2nN4QCA6kkAu
hZXBmUWjQDr5bECdS7HBZfDNQKaOWkAjRrbBCoMrQFgSmkDgA5LBjPCAQGsriUBvuJ/B3bybQKid
kkB+pY7B6IDKQAy3hkCWSaHBZe6cQAhhLcAlmafB5QSFQHfe90CCOs/BX7DOQHIDZMAs6n/Bqo8C
Qe6dUsB0VY7BSxWBQDBsYMB0ZYTBvyQDQVioDkHSF7vB768KQQoA0kBD17XBFgPjQIh4LL4CJMDB
nKm9QK772D+HeaLBvMvtQEojPcBxK6HBdDJTQMwaS8BmPZfBrwzCQBp5E8CgL7rBRJCcQCG22773
hZzBiYPGQGYOF0E3QsbBFFcQQffLyT9RvLvBCGIUQZc3h0BaBMHBTUOjQLDTqEC7TsbBeDmPQCBO
M0Da5LHBHwiUQMHekEC3s7XBcPMhQG8roEDSQIrBFAj0P7L+mUAwFpfBv9FLQPkehkAl76PBdXi5
QKrCi0CRDpHBnx2WQM7EmUAC+obByYzlQI3mg8BW34nBejT2QCgcQcCseI/B0f+8QA9hlMAlkozB
Sg+6QIXW70DxpsjBLWvFQBKTxEBVRsfBap3WQPGYm74DOLbBrDK5QD5whD8hvqfBe33eQGepG8DQ
0JfBeRalQIepgcDE5ZTBXavEQPrvub8lfLHBwGumQKHFuL08MqPBR+HHQAlcB0G0LsHBQSsDQXoi
EEC3u7zBL3EFQSQ6aUDLfcDBgTLsQHsU10AN7LbBcl3QQIuzdT8LcLHBIqHeQGtbuED0bL7BHny1
QCblPMCsoZrB7mGsQGJjq79TAqjBifXgQHonAUFqUrjByLThQGchC0CllrbBvoXoQEdPi0Cbo7zB
5mmpQHC1hkAVz6XBXdd4QD6nkUBo55XB4k6mQGuNdUDP0rHB5FjQQB7zXEBm4bbBw6wrQHb4mkDE
oJLBgauCQGdzjEAmQKDBZHKaQGa6jEDrtY7BA13MQJ4qhkDZSqHBjNScQEg+HcBPAaPBjwbyQIMy
FEFCCq/BD933QOtlksAfgYPBT5kKQS2aJ8C1XI3B4TewQENtr8CgPojBBsumQHFb+UAsa8/BnN26
QBfWrEAX+czBghrpQJmZx75sfL3BWwK2QAGO/j/BxaPBymLrQGMEy7/2G5zBaviFQPZgjsBT55bB
93/JQFD2GsAsHLXBYGmTQHnJLborBJzBFEG/QPX0F0EAP8LBRvMNQZ7utz/2e77B9UISQXgVgUDm
X8XBZy3/QHJ+zUBpHLDBdC6QQCcsP0DDnrLBf2eZQDeClkCqLbbB08ofQNgmnkCzzorBovb4Px3s
nkDN8JfBfIhQQMeajEAvxaTBbQ24QJGThEAg9pDBBMmTQMcdkUCS9obB6QGlQDcAHMB46YDBqVrJ
QKytBsCtBofBlb18QJX+McCNDYbBlB+6QCvz70AIlsjBpn/FQKWsxECcPcfB0eDWQGalpL6XFbbB
kOC4QOedhT9B5qfB8RfHQMKRB8AER5LBc/x3QOnHMsCEUZHB10vFQGC8u79bJLHBVkymQFpojL2h
NaPBRO7HQIJfB0H1F8HBkhsDQZjPD0Cc0rzBuXAFQcgOaUAPhsDBk0PsQJT91kCJ37bB+FHQQMwQ
dD8ugbHBorjeQG5ZuEADZ77BrjagQPFHHcCRfpfBXTKtQJ/Eq79soafB7AHhQEEeAUHIPbjB1onh
QES0CkBas7bBqZLoQEVBi0CcprzBuWKpQPwCh0CZ2aXBWrB4QHh/kUBc7ZXBuEamQPrAdUBX3bHB
1UvQQAnFXEC97rbBzH0rQIeymkA8pJLBs5+CQLKUjEB1SKDBx1maQAZojEBnvI7BlU7MQK4+hkAJ
UqHB2iidQFS4HcBXlaLBbQzyQNAcFEF67q7Bn7ymQG6AG8DqkHDBq+rmQKdW67+OFoPBchRFQIBF
QsAHWoHBmtqmQMuK+UB8WM/BcPK6QKsArUDT9MzBL03pQHtV177uWb3Bok21QKJxAECsF6TB3gnj
QDBb77/s9JbBNcI8QDXhQ8DlOZXB3krKQDpAHMCNpbTB2I+SQFLKLj1HLJzBMky/QL/5F0EYIsLB
1N4NQcRBtz9/mL7BnkgSQcYGgUAEY8XBoDz/QHRUzUBCEbDBzRaQQPNxP0CrobLBAmyZQKiRlkCh
PrbBCpEfQEaqnUAV0YrBeqL4P7XFnkB185fB4nRQQMjXjEAlzqTBoPi3QHtXhEB9/pDBtKiTQJCU
kECU+4bB

> <OMEGA_E>
sLzxPrhzBj9Edwc/

> <OMEGA_NBR>
     15737

$$$$
50146776
  -OEChem-04172616093D

 55 58  0     0  0  0  0  0  0999 V2000
    4.1780    7.8253  -25.2492 C   0  0  0  0  0  0  0  0  0  0  0  0
    7.1261   -4.1471  -17.2636 C   0  0  0  0  0  0  0  0  0  0  0  0
    7.6538   -3.0448  -17.9616 C   0  0  0  0  0  0  0  0  0  0  0  0
    5.8557   -4.6533  -17.6020 C   0  0  0  0  0  0  0  0  0  0  0  0
    7.4966    8.1234  -23.5125 C   0  0  0  0  0  0  0  0  0  0  0  0
    6.2836    8.4802  -24.1389 C   0  0  0  0  0  0  0  0  0  0  0  0
    7.8341    6.7656  -23.3479 C   0  0  0  0  0  0  0  0  0  0  0  0
    6.6767   -0.3101  -22.8023 C   0  0  0  0  0  0  0  0  0  0  0  0
    5.7936    1.0204  -20.9690 C   0  0  0  0  0  0  0  0  0  0  0  0
    6.9169   -2.4537  -19.0041 C   0  0  0  0  0  0  0  0  0  0  0  0
    5.1121   -4.0618  -18.6418 C   0  0  0  0  0  0  0  0  0  0  0  0
    6.1072   -1.4575  -22.2156 C   0  0  0  0  0  0  0  0  0  0  0  0
    5.1922   -0.1004  -20.4092 C   0  0  0  0  0  0  0  0  0  0  0  0
    8.2085    2.2583  -23.5632 C   0  0  0  0  0  0  0  0  0  0  0  0
    8.3602    3.6597  -24.0011 C   0  0  0  0  0  0  0  0  0  0  0  0
    5.7539    6.1227  -24.4573 C   0  0  0  0  0  0  0  0  0  0  0  0
    5.4119    7.4771  -24.6144 C   0  0  0  0  0  0  0  0  0  0  0  0
    6.5007    0.9491  -22.1912 C   0  0  0  0  0  0  0  0  0  0  0  0
    6.9517    5.7656  -23.8038 C   0  0  0  0  0  0  0  0  0  0  0  0
    5.6318   -2.9637  -19.3569 C   0  0  0  0  0  0  0  0  0  0  0  0
    5.3573   -1.3452  -21.0247 C   0  0  0  0  0  0  0  0  0  0  0  0
    7.0443    2.1649  -22.8288 C   0  0  0  0  0  0  0  0  0  0  0  0
    7.2550    4.3539  -23.5665 C   0  0  0  0  0  0  0  0  0  0  0  0
    5.2879    4.1901  -20.7213 C   0  0  0  0  0  0  0  0  0  0  0  0
    3.8941    4.5508  -18.7287 C   0  0  0  0  0  0  0  0  0  0  0  0
    5.1736    3.7925  -22.2133 C   0  0  0  0  0  0  0  0  0  0  0  0
    3.1701    8.1008  -25.7668 N   0  0  0  0  0  0  0  0  0  0  0  0
    6.4863    3.4360  -22.8727 N   0  0  0  0  0  0  0  0  0  0  0  0
    2.6919    4.8516  -18.3162 N   0  0  0  0  0  0  0  0  0  0  0  0
    4.0825    4.3797  -20.0214 N   0  0  0  0  0  0  0  0  0  0  0  0
    4.8347    4.3911  -17.8332 N   0  3  0  0  0  0  0  0  0  0  0  0
    6.3848    4.1798  -20.1657 O   0  0  0  0  0  0  0  0  0  0  0  0
    4.8653   -2.4631  -20.4039 O   0  0  0  0  0  0  0  0  0  0  0  0
    7.6953   -4.6050  -16.4682 H   0  0  0  0  0  0  0  0  0  0  0  0
    8.6246   -2.6527  -17.6970 H   0  0  0  0  0  0  0  0  0  0  0  0
    5.4510   -5.4971  -17.0628 H   0  0  0  0  0  0  0  0  0  0  0  0
    8.1674    8.8924  -23.1587 H   0  0  0  0  0  0  0  0  0  0  0  0
    6.0219    9.5217  -24.2545 H   0  0  0  0  0  0  0  0  0  0  0  0
    8.7653    6.4920  -22.8742 H   0  0  0  0  0  0  0  0  0  0  0  0
    7.2457   -0.3943  -23.7163 H   0  0  0  0  0  0  0  0  0  0  0  0
    5.7189    1.9690  -20.4581 H   0  0  0  0  0  0  0  0  0  0  0  0
    7.3258   -1.6098  -19.5399 H   0  0  0  0  0  0  0  0  0  0  0  0
    4.1370   -4.4523  -18.8929 H   0  0  0  0  0  0  0  0  0  0  0  0
    6.2445   -2.4240  -22.6774 H   0  0  0  0  0  0  0  0  0  0  0  0
    4.6036   -0.0110  -19.5082 H   0  0  0  0  0  0  0  0  0  0  0  0
    8.8893    1.4483  -23.7797 H   0  0  0  0  0  0  0  0  0  0  0  0
    9.1890    4.0665  -24.5615 H   0  0  0  0  0  0  0  0  0  0  0  0
    5.0980    5.3538  -24.8380 H   0  0  0  0  0  0  0  0  0  0  0  0
    4.5057    2.9215  -22.2860 H   0  0  0  0  0  0  0  0  0  0  0  0
    4.7334    4.6388  -22.7610 H   0  0  0  0  0  0  0  0  0  0  0  0
    2.5098    4.9540  -17.3383 H   0  0  0  0  0  0  0  0  0  0  0  0
    1.9535    4.9795  -18.9784 H   0  0  0  0  0  0  0  0  0  0  0  0
    3.2546    4.3855  -20.5823 H   0  0  0  0  0  0  0  0  0  0  0  0
    5.7558    4.1250  -18.1175 H   0  0  0  0  0  0  0  0  0  0  0  0
    4.6326    4.5351  -16.8645 H   0  0  0  0  0  0  0  0  0  0  0  0
  1 17  1  0  0  0  0
  1 27  3  0  0  0  0
  2  3  1  0  0  0  0
  2  4  2  0  0  0  0
  3 10  2  0  0  0  0
  4 11  1  0  0  0  0
  5  6  1  0  0  0  0
  5  7  2  0  0  0  0
  6 17  2  0  0  0  0
  7 19  1  0  0  0  0
  8 12  2  0  0  0  0
  8 18  1  0  0  0  0
  9 13  1  0  0  0  0
  9 18  2  0  0  0  0
 10 20  1  0  0  0  0
 11 20  2  0  0  0  0
 12 21  1  0  0  0  0
 13 21  2  0  0  0  0
 14 15  1  0  0  0  0
 14 22  2  0  0  0  0
 15 23  2  0  0  0  0
 16 17  1  0  0  0  0
 16 19  2  0  0  0  0
 18 22  1  0  0  0  0
 19 23  1  0  0  0  0
 20 33  1  0  0  0  0
 21 33  1  0  0  0  0
 22 28  1  0  0  0  0
 23 28  1  0  0  0  0
 24 26  1  0  0  0  0
 24 30  1  0  0  0  0
 24 32  2  0  0  0  0
 25 29  1  0  0  0  0
 25 30  1  0  0  0  0
 25 31  2  0  0  0  0
 26 28  1  0  0  0  0
  2 34  1  0  0  0  0
  3 35  1  0  0  0  0
  4 36  1  0  0  0  0
  5 37  1  0  0  0  0
  6 38  1  0  0  0  0
  7 39  1  0  0  0  0
  8 40  1  0  0  0  0
  9 41  1  0  0  0  0
 10 42  1  0  0  0  0
 11 43  1  0  0  0  0
 12 44  1  0  0  0  0
 13 45  1  0  0  0  0
 14 46  1  0  0  0  0
 15 47  1  0  0  0  0
 16 48  1  0  0  0  0
 26 49  1  0  0  0  0
 26 50  1  0  0  0  0
 29 51  1  0  0  0  0
 29 52  1  0  0  0  0
 30 53  1  0  0  0  0
 31 54  1  0  0  0  0
 31 55  1  0  0  0  0
M  CHG  1  31   1
M  END
> <OMEGA_C>
QLKFQPBo+kB2/snB9gjkQKe0hMDeG4rBluv0QLbeQsBvsY/B7mG7QCPolMDk0IzBV+TvQIv5AUGN
GbzBERPJQBCvB0FwHMHBpbD6QLZ/2EB+yLrBKqfVQG7Enr4Oa7bB6GS5QOucgj+XwKfB7FbdQNkI
HcBjCJjBt5ajQDr6gcBQIpXB3G3DQECOur92ubHBzSamQKqMzb0YRqPBNlYDQTGHEEB3gbzBQMMF
QWE4akBSAsDBTiC4QGrtw0CcqMPBXi6tQHZE70Bi6sTBpwXQQKL6cj99h7HBa3TeQNV/uEAcbr7B
gze0QJusPcDa2prB1m6rQMYwrL+iMqjBHmvhQMWNCkBuobbBjSjoQMNSi0A0iLzBRzapQAYVhkAv
xaXByDh5QAigkUBP1JXBYo6lQOy3ckDitLHBqeJKQLCcAUFVIs7Bt4/PQOTnW0BE+7bBXEcsQBZA
m0Cfh5LBgaOCQIImjEDlK6DBMraaQKuDjEBZqo7BCFDMQEXBhUBZU6HBh7CbQO2jHcBBO6PB0z/2
QAFck8DRvoPBgf4JQTLGKcBuk43BUm6uQBnor8C3gIjBfa0CQVhHDkH+RLnBpLPAQL5YGEFDCcLB
oT4MQWm+z0Bs/rbB1tznQCffyb4Ju73BOgG3QPAG/D8kqqPB1WzqQDcOzr+3UZzBm2KEQP94jsC3
JJfBkdLHQHQjG8BKa7XBV1CTQBy2M7zGEJzBujoOQblguT+8PL7BBwYTQf8ggkDgfcTB5iKjQEpS
q0AqtMbB4S6QQKH5OkClSbLBNniXQP5wlECOFrbB9p8gQOOGnkDPtIrB0Qv6P9RXn0C405fBvkpQ
QKJVjECEqKTBcy+4QLj/g0Cv8JDB4T2UQL0fkUB26obBjGPvQFrMEEH91LDBO+PwQM9kpsAeX5bB
dawAQXRWgsA0uJvBhlrEQHkwq8CsFpXBog26QFrz70DhuMjBRQvIQGluB0HNR8HB6yjFQBmlxEAf
T8fBpdXEQKMQ9r1FuLfBRb/LQBZQej/WWabBEFnlQMI1RsAV0J/BYDKoQHr3i8BPKZnBMLexQLoe
nb+vsLLBYhC4QPm/5r1sWaHBbXkDQSmtEEDqCb3BiXQFQSstakD9tMDB9ATsQPcW10Al97bBQhLh
QAk1AUFAZrjBjFrRQLbLfT9wi7HBiDveQLxhuEBncb7BUDi4QMhrT8D9j57BETqrQCcjnL8ug6fB
j8XiQPNfC0CGyrbBMHboQC5ki0B5t7zBFTupQGk9gkA+o6XByaJ4QKk1kUCC75XBoKKmQBc2cUAe
xLHBJTP7QGdyHUEOparBmOLQQLEsXEDc8rbB9dorQMD3m0A5y5LBg32CQPmHiUDVMKDBLD+aQIY8
jUA4ro7B8zDMQBZZhEA+MKHBm5qaQJvsFMBWg6LBNjMDQaJjvsAzQJPBCr8RQb1HfcClrpzBbsW3
QJLaxsCT+ZDBhdemQDB8+UBHf8/BVpy/QKsLGEHCX8LBa4O6QFPnrEDj/szBLuPJQOkD+r1XRMDB
GbTWQLUf6D/UnKHBsBjyQDkDD8AP7KPBgxiGQNfRj8AFJJjBHwKoQNRMBcDMX7fBJ8KyQGYq1r3d
z5jBcUIOQR6cuT/B6r7BTR4SQeP2gUBOoMXBS/D+QFJ0zUDpJbDBsAmRQMNiOkBU6rLBeUOZQEXo
lECbyrXBliAgQNTsoEAPB4vBr535P+w+n0C1J5jB2S5QQGXJiEBbtaTBwKe3QMTtg0Awz5DBRrWT
QAuCk0AFAofB

> <OMEGA_E>
0DAZP4RaHz8=

> <OMEGA_NBR>
     17860

$$$$
50146792
  -OEChem-04172616093D

 43 45  0     0  0  0  0  0  0999 V2000
    5.4894   -1.5673  -21.2100 C   0  0  0  0  0  0  0  0  0  0  0  0
    6.0049   -1.4893  -22.5186 C   0  0  0  0  0  0  0  0  0  0  0  0
    5.4616   -0.4193  -20.3948 C   0  0  0  0  0  0  0  0  0  0  0  0
    6.4949   -0.2648  -23.0116 C   0  0  0  0  0  0  0  0  0  0  0  0
    5.9379    0.8089  -20.8916 C   0  0  0  0  0  0  0  0  0  0  0  0
    6.4178    8.4906  -24.3803 C   0  0  0  0  0  0  0  0  0  0  0  0
    7.5356    8.1613  -23.5905 C   0  0  0  0  0  0  0  0  0  0  0  0
    8.2084    2.3035  -23.3513 C   0  0  0  0  0  0  0  0  0  0  0  0
    8.3617    3.7134  -23.7500 C   0  0  0  0  0  0  0  0  0  0  0  0
    5.8058    6.1324  -24.4993 C   0  0  0  0  0  0  0  0  0  0  0  0
    6.4496    0.8946  -22.2076 C   0  0  0  0  0  0  0  0  0  0  0  0
    6.9239    5.7959  -23.7057 C   0  0  0  0  0  0  0  0  0  0  0  0
    5.5586    7.4751  -24.8418 C   0  0  0  0  0  0  0  0  0  0  0  0
    7.7993    6.8168  -23.2611 C   0  0  0  0  0  0  0  0  0  0  0  0
    6.9823    2.1609  -22.7461 C   0  0  0  0  0  0  0  0  0  0  0  0
    7.2069    4.3793  -23.4144 C   0  0  0  0  0  0  0  0  0  0  0  0
    5.2198    4.1300  -20.7146 C   0  0  0  0  0  0  0  0  0  0  0  0
    3.8901    4.5642  -18.7157 C   0  0  0  0  0  0  0  0  0  0  0  0
    5.0856    3.7372  -22.1928 C   0  0  0  0  0  0  0  0  0  0  0  0
    6.4045    3.4210  -22.8127 N   0  0  0  0  0  0  0  0  0  0  0  0
    2.6868    4.7880  -18.2700 N   0  0  0  0  0  0  0  0  0  0  0  0
    4.0343    4.3138  -19.9967 N   0  0  0  0  0  0  0  0  0  0  0  0
    4.8773    4.5576  -17.8595 N   0  3  0  0  0  0  0  0  0  0  0  0
    6.3324    4.2352  -20.2039 O   0  0  0  0  0  0  0  0  0  0  0  0
    4.1984    7.8783  -25.8567 Cl  0  0  0  0  0  0  0  0  0  0  0  0
    9.1980    6.4435  -22.2758 Cl  0  0  0  0  0  0  0  0  0  0  0  0
    5.1156   -2.5074  -20.8320 H   0  0  0  0  0  0  0  0  0  0  0  0
    6.0243   -2.3694  -23.1443 H   0  0  0  0  0  0  0  0  0  0  0  0
    5.0748   -0.4811  -19.3884 H   0  0  0  0  0  0  0  0  0  0  0  0
    6.9069   -0.2125  -24.0085 H   0  0  0  0  0  0  0  0  0  0  0  0
    5.9126    1.6887  -20.2657 H   0  0  0  0  0  0  0  0  0  0  0  0
    6.2193    9.5219  -24.6322 H   0  0  0  0  0  0  0  0  0  0  0  0
    8.1930    8.9414  -23.2361 H   0  0  0  0  0  0  0  0  0  0  0  0
    8.9334    1.5184  -23.5073 H   0  0  0  0  0  0  0  0  0  0  0  0
    9.2297    4.1479  -24.2235 H   0  0  0  0  0  0  0  0  0  0  0  0
    5.1380    5.3571  -24.8447 H   0  0  0  0  0  0  0  0  0  0  0  0
    4.4377    2.8513  -22.2667 H   0  0  0  0  0  0  0  0  0  0  0  0
    4.6275    4.5733  -22.7415 H   0  0  0  0  0  0  0  0  0  0  0  0
    2.5368    4.9492  -17.2945 H   0  0  0  0  0  0  0  0  0  0  0  0
    1.9129    4.7986  -18.9033 H   0  0  0  0  0  0  0  0  0  0  0  0
    3.1886    4.2459  -20.5260 H   0  0  0  0  0  0  0  0  0  0  0  0
    5.8062    4.3537  -18.1689 H   0  0  0  0  0  0  0  0  0  0  0  0
    4.7040    4.7566  -16.8949 H   0  0  0  0  0  0  0  0  0  0  0  0
  1  2  1  0  0  0  0
  1  3  2  0  0  0  0
  2  4  2  0  0  0  0
  3  5  1  0  0  0  0
  4 11  1  0  0  0  0
  5 11  2  0  0  0  0
  6  7  2  0  0  0  0
  6 13  1  0  0  0  0
  7 14  1  0  0  0  0
  8  9  1  0  0  0  0
  8 15  2  0  0  0  0
  9 16  2  0  0  0  0
 10 12  1  0  0  0  0
 10 13  2  0  0  0  0
 11 15  1  0  0  0  0
 12 14  2  0  0  0  0
 12 16  1  0  0  0  0
 13 25  1  0  0  0  0
 14 26  1  0  0  0  0
 15 20  1  0  0  0  0
 16 20  1  0  0  0  0
 17 19  1  0  0  0  0
 17 22  1  0  0  0  0
 17 24  2  0  0  0  0
 18 21  1  0  0  0  0
 18 22  1  0  0  0  0
 18 23  2  0  0  0  0
 19 20  1  0  0  0  0
  1 27  1  0  0  0  0
  2 28  1  0  0  0  0
  3 29  1  0  0  0  0
  4 30  1  0  0  0  0
  5 31  1  0  0  0  0
  6 32  1  0  0  0  0
  7 33  1  0  0  0  0
  8 34  1  0  0  0  0
  9 35  1  0  0  0  0
 10 36  1  0  0  0  0
 19 37  1  0  0  0  0
 19 38  1  0  0  0  0
 21 39  1  0  0  0  0
 21 40  1  0  0  0  0
 22 41  1  0  0  0  0
 23 42  1  0  0  0  0
 23 43  1  0  0  0  0
M  CHG  1  23   1
M  END
> <OMEGA_C>
H6mvQK+eyL8prqnBEijAQJGgvr8YJrTBWcWuQK6y1r6gKKPBDNbPQICZh761F7jBrgO+QLoWTz/r
IafBf17NQJ/ZB0HoCsPBYyPxQH6UAkFtubzBn1UDQVhtE0Bnz7rBVskFQXaobUAZAL7BRsm5QPA8
xECH/sPBLmPOQEYFZT87qbHBcpDdQCx4uUBRpb3Bvd+xQOYz70ABvMbBB5T5QG8j2kCkFrrBKm/f
QK5MCkAB+LXBD5/mQNEijECjULvBbAinQBAphECFt6XBRvd4QKINkkDUuZXBGb2iQGgub0DXirHB
tPHMQC7xWkBSgLbBDPQrQBQ3mUDyKJLB2BiBQFsKikAt+Z/BMxOcQAfYkUBA4I7BYKPKQHCGh0CB
oaHBVVmGQFwb/EBy2s7B7ioTQcowzkDZNLLBnbKjQGB5IMDsp6bBA8fAQL2jF8B2J7nBe2SiQBVW
9r5pG5vBYgXdQOGWWb5xEcDBWTS9QGso2D8eIKLB2QTHQNRZGEG9DsXBdhYDQckPD0F547nBEe8O
QSFawj/fDrzBwKwTQf67hECiycHBnGqkQHVtq0DqwcbB1gGOQNN7NkAtIrLBExSUQGNYkkCY7rXB
m1siQJtfnkAwW4rBW9r0PxSOmUDjOZfBcBFMQCjeh0ArNaTBDsy5QDBRi0DRWZHB8YaWQNk1mEDZ
KIfB

> <OMEGA_E>
gN+KPQ==

> <OMEGA_NBR>
     18880

$$$$
50146789
  -OEChem-04172616093D

 54 57  0     0  0  0  0  0  0999 V2000
    6.4382    8.4660  -24.3288 C   0  0  0  0  0  0  0  0  0  0  0  0
    4.2545   -2.1310  -16.3409 C   0  0  0  0  0  0  0  0  0  0  0  0
    5.6135    7.4568  -24.8648 C   0  0  0  0  0  0  0  0  0  0  0  0
    7.5320    8.1254  -23.5063 C   0  0  0  0  0  0  0  0  0  0  0  0
    5.5017   -1.7472  -16.8718 C   0  0  0  0  0  0  0  0  0  0  0  0
    3.2854   -2.7281  -17.1744 C   0  0  0  0  0  0  0  0  0  0  0  0
    5.8756    6.1078  -24.5681 C   0  0  0  0  0  0  0  0  0  0  0  0
    7.8029    6.7746  -23.2184 C   0  0  0  0  0  0  0  0  0  0  0  0
    6.6467   -0.3183  -22.8581 C   0  0  0  0  0  0  0  0  0  0  0  0
    5.6938    0.9747  -21.0335 C   0  0  0  0  0  0  0  0  0  0  0  0
    5.7787   -1.9623  -18.2353 C   0  0  0  0  0  0  0  0  0  0  0  0
    3.5499   -2.9196  -18.5462 C   0  0  0  0  0  0  0  0  0  0  0  0
    6.1347   -1.4983  -22.2792 C   0  0  0  0  0  0  0  0  0  0  0  0
    5.1289   -0.1704  -20.5014 C   0  0  0  0  0  0  0  0  0  0  0  0
    8.3925    3.6849  -23.7890 C   0  0  0  0  0  0  0  0  0  0  0  0
    8.2087    2.2772  -23.4006 C   0  0  0  0  0  0  0  0  0  0  0  0
    6.9663    5.7681  -23.7396 C   0  0  0  0  0  0  0  0  0  0  0  0
    6.4290    0.9270  -22.2272 C   0  0  0  0  0  0  0  0  0  0  0  0
    4.7870   -2.5195  -19.0896 C   0  0  0  0  0  0  0  0  0  0  0  0
    5.3995   -1.4330  -21.0763 C   0  0  0  0  0  0  0  0  0  0  0  0
    7.2478    4.3649  -23.4530 C   0  0  0  0  0  0  0  0  0  0  0  0
    6.9794    2.1621  -22.7950 C   0  0  0  0  0  0  0  0  0  0  0  0
    5.2375    4.2402  -20.7410 C   0  0  0  0  0  0  0  0  0  0  0  0
    3.8909    4.5355  -18.7185 C   0  0  0  0  0  0  0  0  0  0  0  0
    5.1121    3.8160  -22.2220 C   0  0  0  0  0  0  0  0  0  0  0  0
    6.4295    3.4379  -22.8420 N   0  0  0  0  0  0  0  0  0  0  0  0
    2.6761    4.6100  -18.2526 N   0  0  0  0  0  0  0  0  0  0  0  0
    4.0463    4.3784  -20.0147 N   0  0  0  0  0  0  0  0  0  0  0  0
    4.8816    4.5971  -17.8685 N   0  3  0  0  0  0  0  0  0  0  0  0
    6.3457    4.2889  -20.2122 O   0  0  0  0  0  0  0  0  0  0  0  0
    4.9788   -2.6035  -20.4633 O   0  0  0  0  0  0  0  0  0  0  0  0
    6.2321    9.5032  -24.5486 H   0  0  0  0  0  0  0  0  0  0  0  0
    4.0401   -1.9681  -15.2950 H   0  0  0  0  0  0  0  0  0  0  0  0
    4.7820    7.7191  -25.5021 H   0  0  0  0  0  0  0  0  0  0  0  0
    8.1619    8.9014  -23.0971 H   0  0  0  0  0  0  0  0  0  0  0  0
    6.2435   -1.2890  -16.2344 H   0  0  0  0  0  0  0  0  0  0  0  0
    2.3378   -3.0395  -16.7604 H   0  0  0  0  0  0  0  0  0  0  0  0
    5.2428    5.3322  -24.9737 H   0  0  0  0  0  0  0  0  0  0  0  0
    8.6486    6.5108  -22.6006 H   0  0  0  0  0  0  0  0  0  0  0  0
    7.2041   -0.3666  -23.7819 H   0  0  0  0  0  0  0  0  0  0  0  0
    5.5670    1.9180  -20.5232 H   0  0  0  0  0  0  0  0  0  0  0  0
    6.7482   -1.7032  -18.6344 H   0  0  0  0  0  0  0  0  0  0  0  0
    2.8035   -3.3736  -19.1811 H   0  0  0  0  0  0  0  0  0  0  0  0
    6.3054   -2.4519  -22.7566 H   0  0  0  0  0  0  0  0  0  0  0  0
    4.4780   -0.0994  -19.6425 H   0  0  0  0  0  0  0  0  0  0  0  0
    9.2705    4.1074  -24.2549 H   0  0  0  0  0  0  0  0  0  0  0  0
    8.9146    1.4761  -23.5626 H   0  0  0  0  0  0  0  0  0  0  0  0
    4.4360    2.9504  -22.2819 H   0  0  0  0  0  0  0  0  0  0  0  0
    4.6853    4.6548  -22.7913 H   0  0  0  0  0  0  0  0  0  0  0  0
    2.5229    4.7115  -17.2697 H   0  0  0  0  0  0  0  0  0  0  0  0
    1.8971    4.5658  -18.8781 H   0  0  0  0  0  0  0  0  0  0  0  0
    3.2040    4.3543  -20.5533 H   0  0  0  0  0  0  0  0  0  0  0  0
    5.8245    4.5236  -18.1934 H   0  0  0  0  0  0  0  0  0  0  0  0
    4.6968    4.7179  -16.8931 H   0  0  0  0  0  0  0  0  0  0  0  0
  1  3  1  0  0  0  0
  1  4  2  0  0  0  0
  2  5  1  0  0  0  0
  2  6  2  0  0  0  0
  3  7  2  0  0  0  0
  4  8  1  0  0  0  0
  5 11  2  0  0  0  0
  6 12  1  0  0  0  0
  7 17  1  0  0  0  0
  8 17  2  0  0  0  0
  9 13  2  0  0  0  0
  9 18  1  0  0  0  0
 10 14  1  0  0  0  0
 10 18  2  0  0  0  0
 11 19  1  0  0  0  0
 12 19  2  0  0  0  0
 13 20  1  0  0  0  0
 14 20  2  0  0  0  0
 15 16  1  0  0  0  0
 15 21  2  0  0  0  0
 16 22  2  0  0  0  0
 17 21  1  0  0  0  0
 18 22  1  0  0  0  0
 19 31  1  0  0  0  0
 20 31  1  0  0  0  0
 21 26  1  0  0  0  0
 22 26  1  0  0  0  0
 23 25  1  0  0  0  0
 23 28  1  0  0  0  0
 23 30  2  0  0  0  0
 24 27  1  0  0  0  0
 24 28  1  0  0  0  0
 24 29  2  0  0  0  0
 25 26  1  0  0  0  0
  1 32  1  0  0  0  0
  2 33  1  0  0  0  0
  3 34  1  0  0  0  0
  4 35  1  0  0  0  0
  5 36  1  0  0  0  0
  6 37  1  0  0  0  0
  7 38  1  0  0  0  0
  8 39  1  0  0  0  0
  9 40  1  0  0  0  0
 10 41  1  0  0  0  0
 11 42  1  0  0  0  0
 12 43  1  0  0  0  0
 13 44  1  0  0  0  0
 14 45  1  0  0  0  0
 15 46  1  0  0  0  0
 16 47  1  0  0  0  0
 25 48  1  0  0  0  0
 25 49  1  0  0  0  0
 27 50  1  0  0  0  0
 27 51  1  0  0  0  0
 28 52  1  0  0  0  0
 29 53  1  0  0  0  0
 29 54  1  0  0  0  0
M  CHG  1  29   1
M  END
> <OMEGA_C>
8gXOQOh0B0FwocLBJCWIQPliCMAfuoLB+6GzQFSe7kAh68bB2AXxQJ4BAkHWDLzBvQ2wQFmj379e
+YbBbkRSQEqZLsAZZYnBpwS8QM9yw0Bpi8TBwLH5QIbJ2EBBv7nBw7HUQOL1or5b3bbBczO2QNuF
eT+1RKjBy+q4QIMs+7/Y4ZHBszFjQF/bOsCSXpTBok/EQFfHv7/SO7LBGCCkQGaHLr7uAqTBqUcG
QQbWa0DhT77BsVYDQfi9EUBiNLvBHOzeQF2UuEDM6r3BN7rNQEdRbT9T0bHB+C6ZQLc+IcCLt5jB
bMisQB5tt79InKjBz+3nQJmti0C3n7vBXlffQI9fCkAoXLbB1pmnQAWwh0CP7aXBKQR5QHsikUBp
v5XBeJajQI44dECaxrHBRb7NQC8HXECBvLbBNUUrQFGFk0BjBZLB53qBQNEbjEAYHqDBNDacQJ4b
k0CZ8o7BtQ/LQFg+iUClsqHB/lGfQAqfJsDDtKPBdm3HQPgMGEF9Y8TBs0iBQLfr+79FuHTBLgaZ
QAkD90BdBMzBGJcCQQ9sDkHPxrjBb8rHQB7+pL8J4IHBSJ4VQMGHQsA/FYbBwMSnQMShqkAkysfB
nmAKQaZY0EDwzbTBDIjmQIm2u74/Qb7BOyWyQGaB9T9tL6TBRPHXQNoC2r8qE5XB5mszQO7oV8Dr
cpnBzsXJQK3rHMB+DbbB7EuPQCmVy73vI53B51MUQQlwg0D+CcLBNqIOQYPwvD8ngLzBefONQN/S
PEBhQbLBxO2VQPnzlECmVLbB9XYhQEvElkBCKIrBctXyPxIbkkBwBpfBiA5NQKFWi0ASbaTBQmK6
QPvAkEAGjJHBkUyWQMj4lkAcJYfBYdjIQK/YB0FtVsHBZMDwQGxupsAaWJbBsqHvQEQiAkGfUrzB
MrCsQDyv70AIBcXBDaAAQXhugsDXtJvBFzfEQL0qq8BZD5XBQTf6QHzQ2EDL7brB/Cm3QLNExEBG
msPBR8nEQKoP/71wwrfBzBHMQElteD8IY6bByEnlQF5lRsCh0J/BmheoQHvwi8D+JJnBKp2xQAZ6
nb8nt7LBvUa4QDaK772QX6HB2c0FQQkdbEA6LsDBN9YDQcQMEkATvLzBRLTdQJbLuEBQcb7B0IfR
QMv9ez9NlrHBOSe4QAd5T8Bjj57BpDyrQExvnL9EiKfB0ubnQNCki0DhnbzB17LiQCYyC0Bg07bB
HvKoQHzOgUBQoqXBRqB4QF08kUAu6ZXB3tilQG83bkDOsLHBIQ3QQHxLW0DFErfBEOorQBcRnEBo
wpLBz1SCQAVOiUDpJ6DBhlCaQNpNjUCnrI7BAwbMQMQLhEAxP6HB+pCaQA77FMBihqLB7bTAQBmE
GEGlW8LBQx4DQSpuvsCXNpPBmp0CQR9uDkGsjLnBSyGPQCF4+EDK68jBO7MRQRONfcAtq5zBAZq3
QNLKxsCU75DBhAsMQUUL0EDGLbfBBbmhQAWyq0BUdsbBdbPJQGoIAb7MT8DB7jrXQIvl5j8/p6HB
nBHyQOZMD8B58KPBvPyFQIG/j8AkH5jBysenQFhsBcCiZLfBdgqzQN1y3b1T1ZjBPOQSQcaig0DI
r8TB8+QOQdHPvT/dhr7B+CiRQBe4NUBlmLLBSCaXQLOWkkA8yLXB8E4gQMwdoUB2/orBmJf5P/RO
n0DBHJjBZrhPQNqBiEB/paTBkqi3QKfUg0As0JDB2uWTQN/Fk0BtAYfBIP7NQKJ9B0EyxsLBaafP
QE1PWsDD04bBej60QLWg7kDLRsfBjvLvQD8PAkF/3LvBxMTqQJHIS8DRpo/B4NGiQBcvWMCgJIjB
gVa8QIprw0DL1MTBE174QDPj2EBmf7nBILHMQBD7X74g2LfBKle/QLzIbT8V7KbBRAnZQJ8YO8BB
yZnBf/eQQKWPR8DGSZLBEPy5QDV0sb9KsbPBtIqsQEqfaL7ny6LBg0AGQc17bED5Wb7BNLkDQeWO
EkCbC7vBB2feQK+UuECn773Bpa/OQGZCcj/ig7HBCvirQL+ZOMBbH5vBTgWqQOFXsr+QKKnBSqjn
QMCpi0CopbvBIHvgQOkAC0DhDLbBzbanQA0DhUAT0KXBTFV5QAPBkEB8wZXBjNqjQPzkcEDMrrHB
iCPOQO1wW0CooLbBIaMrQKrKlEBQHJLBHJqBQIeSiUA4CqDBLlycQIMyk0BA9o7BZjLLQEgziUDG
taHBczmaQNjtI8Aa5qTB+LPHQDwTGEFkn8TBbjfdQOsXZ8DSFX7BaFSaQCj89kD0mMzBlsABQbp8
DkHKYLjBL4oGQcV0TcA3o47BbCOOQFBRY8C5XIHBoYCoQOCXqkBLOsjBUVQJQTmB0EDPS7TB+oPZ
QJQIW74K3r/B3R/CQMLP5z+k/KHBN8btQFsqMMC1j6DBkEpdQKVKRsAqSpPBW9u3QOukEcDWkLjB
4e6fQFV6bL6JwJrBDB0UQdLtg0BXNsLBSiQPQcRhvz8IUrzBA8mOQAO6OEBaUbLBx6uVQApkk0Am
GbbBI8EhQAOfmUCgTIrBJ8TzP7cPk0C7H5fBnj9NQP0Ih0CoS6TBHXq6QP+Ej0AugZHBg36WQKW+
mECBOIfBvuXLQMtAB0Gy1MLBRrjjQGXoiMCrfovBp63wQBwZAkF307zBPmmwQJPT7UASc8bB8t/f
QNJFOMB3C4zBdQjQQMPBosCATpPBSfz5QDkw2UAbarrB4XS5QMXiwkAl9sPBdPHUQO5WmL5qQrfB
kOm4QOC+bj8E9KfBpJzIQJptEsCAbpTBL3C4QNLxj8BRrJvBF4nDQErPvb9gCLPBUDylQCSAYL6y
KaTBn5gGQcTfbUDW+b3BcCgEQfSIE0Bz2rrBoQveQBKRuEA13L3B4H7PQEhNaz+gsrHBBaW0QOJP
RsCraJzBDySsQLd2uL/XYqnBFNXnQGvQi0Bic7vB6e3gQP5xCkAsF7bBmGKnQHNahUDgx6XB1wB5
QDgvkUDDs5XBTbSjQN4bcECdobHBOj7OQGDqWkCnlbbBewwsQLGzmEA5J5LBuUOBQLpbiUBL95/B
4vqbQL6jkEC90Y7Bg9nKQDEviUB9paHBbQOdQCxhJsBZ8aTBaMfEQA/DF0EMqcTBc8H1QFx5l8BQ
FoXBMdwCQWCnDkFUE7rBx3KUQEG+9UARIMvBk8buQB6XEMDkB4bBYgzTQGgkxcCS4JLBSTkLQec1
0UAP8LXBO2ikQPbKqUANuMbBRWDmQLMXo77Ct77BTd62QExn7D8EYqPBdtHFQGI6m7+E2JTBZSKp
QA8JpMAokqHBcRHIQG/0GsCSKLfBgLSQQFgDMr7eOJ3BKZQUQYQihUD6msHBC8cPQSarwj8BFrzB
fPGOQA5rN0BSKrLBdzeVQC6YkkD+IrbBBmsiQJHbnUCdWYrBPT31P8hQmUCQO5fBzHpMQMvPhUBL
KKTBYrS5QDn+iUCxRZHBIVeWQIvelkCdGYfB

> <OMEGA_E>
JHPzPvwJAD8g/e8+wCrwPg==

> <OMEGA_NBR>
     22771

$$$$
50209187
  -OEChem-04172616093D

 68 72  0     1  0  0  0  0  0999 V2000
    5.5278   -1.5978  -20.9936 C   0  0  0  0  0  0  0  0  0  0  0  0
    5.9355   -0.5245  -20.1780 C   0  0  0  0  0  0  0  0  0  0  0  0
    5.6337   -1.4980  -22.3954 C   0  0  0  0  0  0  0  0  0  0  0  0
    6.4407    0.6508  -20.7662 C   0  0  0  0  0  0  0  0  0  0  0  0
    6.1414   -0.3243  -22.9843 C   0  0  0  0  0  0  0  0  0  0  0  0
    8.0331    2.1434  -23.6935 C   0  0  0  0  0  0  0  0  0  0  0  0
    8.0938    3.5583  -24.1020 C   0  0  0  0  0  0  0  0  0  0  0  0
    6.5356    0.7590  -22.1746 C   0  0  0  0  0  0  0  0  0  0  0  0
    6.9904    2.0055  -22.8192 C   0  0  0  0  0  0  0  0  0  0  0  0
    7.0562    4.2496  -23.5000 C   0  0  0  0  0  0  0  0  0  0  0  0
    5.2479    3.9535  -20.7178 C   0  0  0  0  0  0  0  0  0  0  0  0
    3.9203    4.7548  -18.8703 C   0  0  0  0  0  0  0  0  0  0  0  0
    7.9085    8.5702  -23.3560 C   0  0  0  0  0  0  0  0  0  0  0  0
    6.2811    8.2400  -25.2618 C   0  0  0  0  0  0  0  0  0  0  0  0
    5.4418    8.3457  -22.8932 C   0  0  0  0  0  0  0  0  0  0  0  0
    7.8613    6.3922  -24.6040 C   0  0  0  0  0  0  0  0  0  0  0  0
    7.0300    6.4843  -22.2375 C   0  0  0  0  0  0  0  0  0  0  0  0
    5.3904    6.1567  -24.1450 C   0  0  0  0  0  0  0  0  0  0  0  0
    7.7025    7.9210  -24.7426 C   0  0  0  0  0  0  0  0  0  0  0  0
    6.8631    8.0214  -22.3612 C   0  0  0  0  0  0  0  0  0  0  0  0
    5.2260    7.6909  -24.2803 C   0  0  0  0  0  0  0  0  0  0  0  0
    6.8150    5.7835  -23.6121 C   0  0  0  0  0  0  0  0  0  0  0  0
    5.0861    3.4089  -22.1118 C   0  0  0  0  0  0  0  0  0  0  0  0
    4.9624    4.7658  -16.6981 C   0  0  0  0  0  0  0  0  0  0  0  0
    7.3722    4.0118  -17.0416 C   0  0  0  0  0  0  0  0  0  0  0  0
    6.4016    4.8629  -16.1920 C   0  0  2  0  0  0  0  0  0  0  0  0
    6.3807    3.2448  -22.8016 N   0  0  0  0  0  0  0  0  0  0  0  0
    4.0897    4.4306  -20.1222 N   0  0  0  0  0  0  0  0  0  0  0  0
    4.9051    5.1578  -18.1164 N   0  0  0  0  0  0  0  0  0  0  0  0
    2.7191    4.6515  -18.3746 N   0  3  0  0  0  0  0  0  0  0  0  0
    6.3220    3.8442  -20.1364 O   0  0  0  0  0  0  0  0  0  0  0  0
    7.9159    4.8065  -18.0926 O   0  0  0  0  0  0  0  0  0  0  0  0
    6.4227    4.3878  -14.8537 O   0  0  0  0  0  0  0  0  0  0  0  0
    5.1339   -2.4976  -20.5447 H   0  0  0  0  0  0  0  0  0  0  0  0
    5.8608   -0.6028  -19.1035 H   0  0  0  0  0  0  0  0  0  0  0  0
    5.3246   -2.3237  -23.0192 H   0  0  0  0  0  0  0  0  0  0  0  0
    6.7569    1.4726  -20.1408 H   0  0  0  0  0  0  0  0  0  0  0  0
    6.2288   -0.2544  -24.0584 H   0  0  0  0  0  0  0  0  0  0  0  0
    8.6938    1.3561  -24.0254 H   0  0  0  0  0  0  0  0  0  0  0  0
    8.8303    3.9874  -24.7652 H   0  0  0  0  0  0  0  0  0  0  0  0
    8.9190    8.3365  -22.9898 H   0  0  0  0  0  0  0  0  0  0  0  0
    7.7930    9.6607  -23.4426 H   0  0  0  0  0  0  0  0  0  0  0  0
    6.1624    9.3299  -25.3522 H   0  0  0  0  0  0  0  0  0  0  0  0
    6.1399    7.7728  -26.2476 H   0  0  0  0  0  0  0  0  0  0  0  0
    4.6926    7.9570  -22.1878 H   0  0  0  0  0  0  0  0  0  0  0  0
    5.3284    9.4360  -22.9848 H   0  0  0  0  0  0  0  0  0  0  0  0
    7.7250    5.9296  -25.5926 H   0  0  0  0  0  0  0  0  0  0  0  0
    8.8731    6.1722  -24.2326 H   0  0  0  0  0  0  0  0  0  0  0  0
    8.0444    6.2612  -21.8754 H   0  0  0  0  0  0  0  0  0  0  0  0
    6.2913    6.0996  -21.5189 H   0  0  0  0  0  0  0  0  0  0  0  0
    4.6338    5.7755  -23.4434 H   0  0  0  0  0  0  0  0  0  0  0  0
    5.2433    5.6919  -25.1311 H   0  0  0  0  0  0  0  0  0  0  0  0
    8.4509    8.3095  -25.4490 H   0  0  0  0  0  0  0  0  0  0  0  0
    7.0053    8.4898  -21.3761 H   0  0  0  0  0  0  0  0  0  0  0  0
    4.2163    7.9252  -24.6486 H   0  0  0  0  0  0  0  0  0  0  0  0
    4.5894    2.4291  -22.0536 H   0  0  0  0  0  0  0  0  0  0  0  0
    4.4610    4.1030  -22.6927 H   0  0  0  0  0  0  0  0  0  0  0  0
    4.6066    3.7304  -16.5908 H   0  0  0  0  0  0  0  0  0  0  0  0
    4.3214    5.4368  -16.1075 H   0  0  0  0  0  0  0  0  0  0  0  0
    8.1883    3.6419  -16.4035 H   0  0  0  0  0  0  0  0  0  0  0  0
    6.8283    3.1584  -17.4727 H   0  0  0  0  0  0  0  0  0  0  0  0
    6.7246    5.9137  -16.2324 H   0  0  0  0  0  0  0  0  0  0  0  0
    3.2952    4.5380  -20.7198 H   0  0  0  0  0  0  0  0  0  0  0  0
    5.6241    5.7354  -18.5029 H   0  0  0  0  0  0  0  0  0  0  0  0
    2.5524    4.8814  -17.4157 H   0  0  0  0  0  0  0  0  0  0  0  0
    1.9643    4.3424  -18.9531 H   0  0  0  0  0  0  0  0  0  0  0  0
    7.4709    4.6029  -18.9069 H   0  0  0  0  0  0  0  0  0  0  0  0
    7.3083    4.4374  -14.5135 H   0  0  0  0  0  0  0  0  0  0  0  0
  1  2  1  0  0  0  0
  1  3  2  0  0  0  0
  2  4  2  0  0  0  0
  3  5  1  0  0  0  0
  4  8  1  0  0  0  0
  5  8  2  0  0  0  0
  6  7  1  0  0  0  0
  6  9  2  0  0  0  0
  7 10  2  0  0  0  0
  8  9  1  0  0  0  0
  9 27  1  0  0  0  0
 10 22  1  0  0  0  0
 10 27  1  0  0  0  0
 11 23  1  0  0  0  0
 11 28  1  0  0  0  0
 11 31  2  0  0  0  0
 12 28  1  0  0  0  0
 12 29  1  0  0  0  0
 12 30  2  0  0  0  0
 13 19  1  0  0  0  0
 13 20  1  0  0  0  0
 14 19  1  0  0  0  0
 14 21  1  0  0  0  0
 15 20  1  0  0  0  0
 15 21  1  0  0  0  0
 16 19  1  0  0  0  0
 16 22  1  0  0  0  0
 17 20  1  0  0  0  0
 17 22  1  0  0  0  0
 18 21  1  0  0  0  0
 18 22  1  0  0  0  0
 23 27  1  0  0  0  0
 24 26  1  0  0  0  0
 24 29  1  0  0  0  0
 25 26  1  0  0  0  0
 25 32  1  0  0  0  0
 26 33  1  0  0  0  0
  1 34  1  0  0  0  0
  2 35  1  0  0  0  0
  3 36  1  0  0  0  0
  4 37  1  0  0  0  0
  5 38  1  0  0  0  0
  6 39  1  0  0  0  0
  7 40  1  0  0  0  0
 13 41  1  0  0  0  0
 13 42  1  0  0  0  0
 14 43  1  0  0  0  0
 14 44  1  0  0  0  0
 15 45  1  0  0  0  0
 15 46  1  0  0  0  0
 16 47  1  0  0  0  0
 16 48  1  0  0  0  0
 17 49  1  0  0  0  0
 17 50  1  0  0  0  0
 18 51  1  0  0  0  0
 18 52  1  0  0  0  0
 19 53  1  0  0  0  0
 20 54  1  0  0  0  0
 21 55  1  0  0  0  0
 23 56  1  0  0  0  0
 23 57  1  0  0  0  0
 24 58  1  0  0  0  0
 24 59  1  0  0  0  0
 25 60  1  0  0  0  0
 25 61  1  0  0  0  0
 26 62  1  0  0  0  0
 28 63  1  0  0  0  0
 29 64  1  0  0  0  0
 30 65  1  0  0  0  0
 30 66  1  0  0  0  0
 32 67  1  0  0  0  0
 33 68  1  0  0  0  0
M  CHG  1  30   1
M  END
> <OMEGA_C>
xeOwQL6DzL/u8qfBx++9QKZGBr+ibKHB8Ea0QNu+v7+5KbPBTRrOQL6bJj8eIabBaIbEQOwQpr7D
37fBc4cAQbgsCUBjjL3BNoABQXK6Y0D00MDBySPRQKBLQj99ZbHBN7HfQMhaAECrjbbBRszhQH/8
h0AGALzB++6nQOYGfUAfvqXBwOZ6QHEnmEBb9pbBPBL9QJQfCUEe2brBHP/IQCbXA0ErGMrBdiOu
QM6HBUFZJbfBDpD7QCuNzEDz1MTBa/XgQLF/z0Bb5rHBJH6sQK0DxUD2KMHB1Xr2QH14/UDf8MXB
gp7bQK5XAEG447LBZzunQP8b9kAlPsLBjxTaQNcSuUCH5bzBhcGiQAArWkAJ5bDB/8ueQAeBmEDN
lYXBGunrQJBggEAxVYjBLtrMQESdm0AuiYHBuS7MQCqrT0C4abbBvN6CQFbHjUBJ+qDBePacQBkN
pUBh7pDBAAUuQBDZlEAV/5LBik3KQHIHdkA/F6HBMk/9QCLPmUCfvZDB3YbNQB1pjECZqG3BtEik
QJXYH8CGW6TB8Iu7QIlSGr/s05jBO2OqQC23FMBTJ7jBTDjYQPB9vD9OIKHBl1LHQB1Bgr6vd8DB
1RkLQaOVrT/yM8DB6UgNQeIwf0AyH8bBarQOQSFiBUEg67fB/l/5QDiSGkFnirvBRzLFQBRHFUFW
0crBCnrEQIC6+EAA+9HBHiqWQOOf/kCPgLHBRYKqQK35FkHT4LfB8DL3QA6/vUCfvczBL/gNQamC
xUBW3MHB9LUAQRxcyEDYAK/BWVLJQCUww0CqJqzBW0iUQKPQuEALjLvB7cinQPkjtkBoDMnB1DYH
QbXzBEGAl8vBPivgQB/WB0E+AqvB6+uGQGub/UBOMMXBaNySQAJ3G0DPbbDBZsCOQI5Lg0CyirXB
mmmTQDC/bkD0uYTBNEmKQFP6rUAw3IDBQQMDQSQVaUBVOoPBTIHaQPUiSkAYyIvBFDDXQOU8vUD5
24HBv+NSQEI3kUA/wqXBz/izQK+It0DuBZTB/lkjQBk0nEBgU4vBLG37P8r0ikD/n5fB7BHvQBxL
k0A+QZfB4N3pQNn+jUA7N2jB

> <OMEGA_E>
QAtFPw==

> <OMEGA_NBR>
     24197

$$$$
50209201
  -OEChem-04172616093D

 67 71  0     1  0  0  0  0  0999 V2000
    5.5040   -1.6086  -21.0387 C   0  0  0  0  0  0  0  0  0  0  0  0
    5.8450   -0.5140  -20.2203 C   0  0  0  0  0  0  0  0  0  0  0  0
    5.6574   -1.5196  -22.4369 C   0  0  0  0  0  0  0  0  0  0  0  0
    6.3367    0.6702  -20.8012 C   0  0  0  0  0  0  0  0  0  0  0  0
    6.1606   -0.3405  -23.0181 C   0  0  0  0  0  0  0  0  0  0  0  0
    8.0305    2.1322  -23.6966 C   0  0  0  0  0  0  0  0  0  0  0  0
    8.1186    3.5515  -24.0852 C   0  0  0  0  0  0  0  0  0  0  0  0
    6.4960    0.7599  -22.2044 C   0  0  0  0  0  0  0  0  0  0  0  0
    6.9746    2.0009  -22.8363 C   0  0  0  0  0  0  0  0  0  0  0  0
    7.0820    4.2481  -23.4878 C   0  0  0  0  0  0  0  0  0  0  0  0
    5.2817    3.8962  -20.6679 C   0  0  0  0  0  0  0  0  0  0  0  0
    3.9010    4.6944  -18.8375 C   0  0  0  0  0  0  0  0  0  0  0  0
    7.7950    8.5809  -23.1610 C   0  0  0  0  0  0  0  0  0  0  0  0
    6.4873    8.2354  -25.2940 C   0  0  0  0  0  0  0  0  0  0  0  0
    5.2870    8.2911  -23.0888 C   0  0  0  0  0  0  0  0  0  0  0  0
    7.9991    6.4193  -24.4151 C   0  0  0  0  0  0  0  0  0  0  0  0
    6.7864    6.4692  -22.2128 C   0  0  0  0  0  0  0  0  0  0  0  0
    5.4990    6.1103  -24.3686 C   0  0  0  0  0  0  0  0  0  0  0  0
    7.8223    7.9439  -24.5652 C   0  0  0  0  0  0  0  0  0  0  0  0
    6.6181    8.0008  -22.3477 C   0  0  0  0  0  0  0  0  0  0  0  0
    5.3060    7.6441  -24.4965 C   0  0  0  0  0  0  0  0  0  0  0  0
    6.8259    5.7757  -23.6081 C   0  0  0  0  0  0  0  0  0  0  0  0
    7.4287    3.9708  -17.1468 C   0  0  0  0  0  0  0  0  0  0  0  0
    5.1148    3.4432  -22.0961 C   0  0  0  0  0  0  0  0  0  0  0  0
    4.9671    4.4021  -16.7205 C   0  0  0  0  0  0  0  0  0  0  0  0
    6.3845    4.5561  -16.1723 C   0  0  2  0  0  0  0  0  0  0  0  0
    6.3949    3.2515  -22.7969 N   0  0  0  0  0  0  0  0  0  0  0  0
    4.0907    4.2435  -20.0457 N   0  0  0  0  0  0  0  0  0  0  0  0
    4.8835    5.0256  -18.0525 N   0  0  0  0  0  0  0  0  0  0  0  0
    2.6779    4.7385  -18.3911 N   0  3  0  0  0  0  0  0  0  0  0  0
    6.3973    4.0152  -20.1650 O   0  0  0  0  0  0  0  0  0  0  0  0
    6.6525    5.9385  -15.9602 O   0  0  0  0  0  0  0  0  0  0  0  0
    5.1245   -2.5169  -20.5944 H   0  0  0  0  0  0  0  0  0  0  0  0
    5.7295   -0.5832  -19.1487 H   0  0  0  0  0  0  0  0  0  0  0  0
    5.3886   -2.3573  -23.0633 H   0  0  0  0  0  0  0  0  0  0  0  0
    6.5928    1.5119  -20.1748 H   0  0  0  0  0  0  0  0  0  0  0  0
    6.2898   -0.2791  -24.0886 H   0  0  0  0  0  0  0  0  0  0  0  0
    8.6823    1.3386  -24.0308 H   0  0  0  0  0  0  0  0  0  0  0  0
    8.8706    3.9790  -24.7318 H   0  0  0  0  0  0  0  0  0  0  0  0
    8.7402    8.3627  -22.6423 H   0  0  0  0  0  0  0  0  0  0  0  0
    7.6718    9.6698  -23.2560 H   0  0  0  0  0  0  0  0  0  0  0  0
    6.3543    9.3233  -25.3877 H   0  0  0  0  0  0  0  0  0  0  0  0
    6.5132    7.7815  -26.2956 H   0  0  0  0  0  0  0  0  0  0  0  0
    4.4500    7.8749  -22.5089 H   0  0  0  0  0  0  0  0  0  0  0  0
    5.1575    9.3787  -23.1905 H   0  0  0  0  0  0  0  0  0  0  0  0
    8.0343    5.9647  -25.4161 H   0  0  0  0  0  0  0  0  0  0  0  0
    8.9444    6.2207  -23.8888 H   0  0  0  0  0  0  0  0  0  0  0  0
    7.7262    6.2579  -21.6816 H   0  0  0  0  0  0  0  0  0  0  0  0
    5.9408    6.0657  -21.6366 H   0  0  0  0  0  0  0  0  0  0  0  0
    4.6492    5.6854  -23.8143 H   0  0  0  0  0  0  0  0  0  0  0  0
    5.5390    5.6672  -25.3746 H   0  0  0  0  0  0  0  0  0  0  0  0
    8.6591    8.3597  -25.1455 H   0  0  0  0  0  0  0  0  0  0  0  0
    6.5937    8.4609  -21.3489 H   0  0  0  0  0  0  0  0  0  0  0  0
    4.3605    7.8573  -25.0166 H   0  0  0  0  0  0  0  0  0  0  0  0
    8.4365    4.0968  -16.7242 H   0  0  0  0  0  0  0  0  0  0  0  0
    7.2270    2.9004  -17.3006 H   0  0  0  0  0  0  0  0  0  0  0  0
    7.3667    4.4977  -18.1103 H   0  0  0  0  0  0  0  0  0  0  0  0
    4.5685    2.4884  -22.0985 H   0  0  0  0  0  0  0  0  0  0  0  0
    4.5301    4.2016  -22.6373 H   0  0  0  0  0  0  0  0  0  0  0  0
    4.7192    3.3334  -16.8000 H   0  0  0  0  0  0  0  0  0  0  0  0
    4.2559    4.8938  -16.0405 H   0  0  0  0  0  0  0  0  0  0  0  0
    6.4535    4.0093  -15.2203 H   0  0  0  0  0  0  0  0  0  0  0  0
    3.2657    4.1328  -20.5998 H   0  0  0  0  0  0  0  0  0  0  0  0
    5.5693    5.6910  -18.3475 H   0  0  0  0  0  0  0  0  0  0  0  0
    2.4991    5.0257  -17.4500 H   0  0  0  0  0  0  0  0  0  0  0  0
    1.9178    4.4851  -18.9894 H   0  0  0  0  0  0  0  0  0  0  0  0
    6.0094    6.2978  -15.3604 H   0  0  0  0  0  0  0  0  0  0  0  0
  1  2  1  0  0  0  0
  1  3  2  0  0  0  0
  2  4  2  0  0  0  0
  3  5  1  0  0  0  0
  4  8  1  0  0  0  0
  5  8  2  0  0  0  0
  6  7  1  0  0  0  0
  6  9  2  0  0  0  0
  7 10  2  0  0  0  0
  8  9  1  0  0  0  0
  9 27  1  0  0  0  0
 10 22  1  0  0  0  0
 10 27  1  0  0  0  0
 11 24  1  0  0  0  0
 11 28  1  0  0  0  0
 11 31  2  0  0  0  0
 12 28  1  0  0  0  0
 12 29  1  0  0  0  0
 12 30  2  0  0  0  0
 13 19  1  0  0  0  0
 13 20  1  0  0  0  0
 14 19  1  0  0  0  0
 14 21  1  0  0  0  0
 15 20  1  0  0  0  0
 15 21  1  0  0  0  0
 16 19  1  0  0  0  0
 16 22  1  0  0  0  0
 17 20  1  0  0  0  0
 17 22  1  0  0  0  0
 18 21  1  0  0  0  0
 18 22  1  0  0  0  0
 23 26  1  0  0  0  0
 24 27  1  0  0  0  0
 25 26  1  0  0  0  0
 25 29  1  0  0  0  0
 26 32  1  0  0  0  0
  1 33  1  0  0  0  0
  2 34  1  0  0  0  0
  3 35  1  0  0  0  0
  4 36  1  0  0  0  0
  5 37  1  0  0  0  0
  6 38  1  0  0  0  0
  7 39  1  0  0  0  0
 13 40  1  0  0  0  0
 13 41  1  0  0  0  0
 14 42  1  0  0  0  0
 14 43  1  0  0  0  0
 15 44  1  0  0  0  0
 15 45  1  0  0  0  0
 16 46  1  0  0  0  0
 16 47  1  0  0  0  0
 17 48  1  0  0  0  0
 17 49  1  0  0  0  0
 18 50  1  0  0  0  0
 18 51  1  0  0  0  0
 19 52  1  0  0  0  0
 20 53  1  0  0  0  0
 21 54  1  0  0  0  0
 23 55  1  0  0  0  0
 23 56  1  0  0  0  0
 23 57  1  0  0  0  0
 24 58  1  0  0  0  0
 24 59  1  0  0  0  0
 25 60  1  0  0  0  0
 25 61  1  0  0  0  0
 26 62  1  0  0  0  0
 28 63  1  0  0  0  0
 29 64  1  0  0  0  0
 30 65  1  0  0  0  0
 30 66  1  0  0  0  0
 32 67  1  0  0  0  0
M  CHG  1  30   1
M  END
> <OMEGA_C>
jCCwQO3mzb9aT6jBigq7QMmTA78pw6HBrAm1QHGCwr/QfrPBMsbKQHyRKz/xaKbB5iPFQKxRrr4L
JbjBvXwAQQB2CECKkr3BnOUBQbJLY0CDrsDB5N7PQACIQj+LorHB9S/fQNgOAEDIsLbBgJ/iQC3w
h0AX57vBuwOpQMpaeUDDV6XB0al5QIY4lkA8s5bBhHD5QDxLCUGnSbnBnpfPQCzEA0EFWsrB6S6p
QF6oBEHYtbjBCPn/QCVrzUAYUsPBUirZQJIDz0Dns7HB8vevQMmHw0Du8sLB9E/6QFk0/kBvhcTB
h8fTQFgDAEEXyLLB48qpQDOc9EDj+MPBq23aQD3SuEBd3bzB0bftQN4gfkCRLInBtayjQGZdXEDM
xLDBlPKeQPPdjECBw4XBmE3MQGLLkUDFYIHB6aLMQLAYUEATYLbBGueCQAHLh0CEXaDBvkWcQA3S
oECUa5DBPGIrQJyhl0DjIJPBe7bMQG98gED6UaHBDOHUQA8IvkD8XH/BN/yjQNAUIcBTwaTB4Ve3
QE5LFb+XMJnBCG+sQBHeFsCqgbjBhPjSQGmEwT8NZqHBE0bJQKLnjr5otcDBjeoKQeFWqz8UP8DB
+u0NQeunfkC42sXBztcLQXLNBUF/I7XBp3/1QIq3GkFgDLrBEFbLQDEsFUEWGsvBOGzQQNUB+UBh
XdLBs2aOQOX++0A5ErTBIgqlQDAPFkE7hrnBZYwAQeLevkA6VMvBUBwPQZIPx0A1HL/B5Tz3QAtB
yEDuc63B1Bq+QEkawkCvF63BTcaUQNTutUCxg77BRj+xQAxatUBD/8rBl4sKQTnBBUEUKsnBf//S
QAlgB0F2yqrB9YiLQEVv+0D1IcjBtfsGQT8Zg0BCy4XBjkPnQCWgOUCRZ4rBrLvrQGXtj0Dx4ZDB
gzGSQKRCH0C4ybDBf/aQQF9zhkA9GbXBrwOXQKZVVUB8ZobBPTCIQEianEDvUoDBOoPOQPFLgEBM
hnPB9gBRQPQ/hEBlzKTBbTeyQLEctkDIx5LB+/EfQI7SoECimYvBHnn1P9OFj0BP6pfBtUzAQLCH
yUAWxHXB

> <OMEGA_E>
BCgmPw==

> <OMEGA_NBR>
     25608

$$$$
50209240
  -OEChem-04172616093D

 67 71  0     0  0  0  0  0  0999 V2000
    8.6262    3.7515  -17.0673 C   0  0  0  0  0  0  0  0  0  0  0  0
    5.4696   -1.6015  -21.0493 C   0  0  0  0  0  0  0  0  0  0  0  0
    5.8195   -0.5098  -20.2312 C   0  0  0  0  0  0  0  0  0  0  0  0
    5.6564   -1.5265  -22.4443 C   0  0  0  0  0  0  0  0  0  0  0  0
    6.3497    0.6584  -20.8100 C   0  0  0  0  0  0  0  0  0  0  0  0
    6.1942   -0.3615  -23.0236 C   0  0  0  0  0  0  0  0  0  0  0  0
    8.0204    2.1131  -23.7535 C   0  0  0  0  0  0  0  0  0  0  0  0
    8.0926    3.5306  -24.1484 C   0  0  0  0  0  0  0  0  0  0  0  0
    6.5339    0.7386  -22.2112 C   0  0  0  0  0  0  0  0  0  0  0  0
    7.0044    1.9834  -22.8461 C   0  0  0  0  0  0  0  0  0  0  0  0
    7.0815    4.2299  -23.5116 C   0  0  0  0  0  0  0  0  0  0  0  0
    5.3063    3.9849  -20.6665 C   0  0  0  0  0  0  0  0  0  0  0  0
    3.8977    4.7665  -18.8565 C   0  0  0  0  0  0  0  0  0  0  0  0
    7.9150    8.5535  -23.4686 C   0  0  0  0  0  0  0  0  0  0  0  0
    6.2107    8.1854  -25.2997 C   0  0  0  0  0  0  0  0  0  0  0  0
    5.4723    8.3191  -22.8982 C   0  0  0  0  0  0  0  0  0  0  0  0
    7.8303    6.3573  -24.6837 C   0  0  0  0  0  0  0  0  0  0  0  0
    7.1015    6.4791  -22.2851 C   0  0  0  0  0  0  0  0  0  0  0  0
    5.3830    6.1158  -24.1156 C   0  0  0  0  0  0  0  0  0  0  0  0
    7.6550    7.8831  -24.8365 C   0  0  0  0  0  0  0  0  0  0  0  0
    6.9175    8.0121  -22.4224 C   0  0  0  0  0  0  0  0  0  0  0  0
    5.2024    7.6449  -24.2668 C   0  0  0  0  0  0  0  0  0  0  0  0
    6.8317    5.7590  -23.6384 C   0  0  0  0  0  0  0  0  0  0  0  0
    7.5113    4.6826  -17.0863 C   0  0  0  0  0  0  0  0  0  0  0  0
    5.1516    3.4083  -22.0559 C   0  0  0  0  0  0  0  0  0  0  0  0
    6.2055    3.9464  -16.7262 C   0  0  0  0  0  0  0  0  0  0  0  0
    5.0491    4.9462  -16.7376 C   0  0  0  0  0  0  0  0  0  0  0  0
    9.5229    3.0082  -17.0398 N   0  0  0  0  0  0  0  0  0  0  0  0
    6.4262    3.2350  -22.7809 N   0  0  0  0  0  0  0  0  0  0  0  0
    4.1128    4.3803  -20.0826 N   0  0  0  0  0  0  0  0  0  0  0  0
    4.8027    5.3662  -18.1344 N   0  0  0  0  0  0  0  0  0  0  0  0
    2.6895    4.6297  -18.3883 N   0  3  0  0  0  0  0  0  0  0  0  0
    6.3884    3.9650  -20.0843 O   0  0  0  0  0  0  0  0  0  0  0  0
    5.0579   -2.4968  -20.6074 H   0  0  0  0  0  0  0  0  0  0  0  0
    5.6812   -0.5689  -19.1618 H   0  0  0  0  0  0  0  0  0  0  0  0
    5.3864   -2.3643  -23.0701 H   0  0  0  0  0  0  0  0  0  0  0  0
    6.6168    1.4963  -20.1831 H   0  0  0  0  0  0  0  0  0  0  0  0
    6.3466   -0.3110  -24.0916 H   0  0  0  0  0  0  0  0  0  0  0  0
    8.6559    1.3183  -24.1155 H   0  0  0  0  0  0  0  0  0  0  0  0
    8.8180    3.9561  -24.8260 H   0  0  0  0  0  0  0  0  0  0  0  0
    8.9420    8.3319  -23.1427 H   0  0  0  0  0  0  0  0  0  0  0  0
    7.7878    9.6418  -23.5654 H   0  0  0  0  0  0  0  0  0  0  0  0
    6.0807    9.2730  -25.4011 H   0  0  0  0  0  0  0  0  0  0  0  0
    6.0311    7.7025  -26.2716 H   0  0  0  0  0  0  0  0  0  0  0  0
    4.7567    7.9343  -22.1567 H   0  0  0  0  0  0  0  0  0  0  0  0
    5.3468    9.4072  -22.9986 H   0  0  0  0  0  0  0  0  0  0  0  0
    7.6540    5.8793  -25.6586 H   0  0  0  0  0  0  0  0  0  0  0  0
    8.8587    6.1484  -24.3536 H   0  0  0  0  0  0  0  0  0  0  0  0
    8.1327    6.2682  -21.9653 H   0  0  0  0  0  0  0  0  0  0  0  0
    6.3983    6.0991  -21.5295 H   0  0  0  0  0  0  0  0  0  0  0  0
    4.6597    5.7408  -23.3766 H   0  0  0  0  0  0  0  0  0  0  0  0
    5.1971    5.6350  -25.0873 H   0  0  0  0  0  0  0  0  0  0  0  0
    8.3702    8.2664  -25.5792 H   0  0  0  0  0  0  0  0  0  0  0  0
    7.0979    8.4956  -21.4510 H   0  0  0  0  0  0  0  0  0  0  0  0
    4.1763    7.8676  -24.5947 H   0  0  0  0  0  0  0  0  0  0  0  0
    7.6923    5.4832  -16.3539 H   0  0  0  0  0  0  0  0  0  0  0  0
    7.4182    5.1195  -18.0915 H   0  0  0  0  0  0  0  0  0  0  0  0
    4.6663    2.4249  -21.9699 H   0  0  0  0  0  0  0  0  0  0  0  0
    4.5101    4.0838  -22.6410 H   0  0  0  0  0  0  0  0  0  0  0  0
    6.0142    3.1533  -17.4639 H   0  0  0  0  0  0  0  0  0  0  0  0
    6.2978    3.5011  -15.7246 H   0  0  0  0  0  0  0  0  0  0  0  0
    4.1449    4.4719  -16.3282 H   0  0  0  0  0  0  0  0  0  0  0  0
    5.3113    5.8232  -16.1275 H   0  0  0  0  0  0  0  0  0  0  0  0
    3.3115    4.3676  -20.6808 H   0  0  0  0  0  0  0  0  0  0  0  0
    5.3346    6.1160  -18.5280 H   0  0  0  0  0  0  0  0  0  0  0  0
    2.4618    4.9835  -17.4812 H   0  0  0  0  0  0  0  0  0  0  0  0
    1.9900    4.1709  -18.9362 H   0  0  0  0  0  0  0  0  0  0  0  0
  1 24  1  0  0  0  0
  1 28  3  0  0  0  0
  2  3  1  0  0  0  0
  2  4  2  0  0  0  0
  3  5  2  0  0  0  0
  4  6  1  0  0  0  0
  5  9  1  0  0  0  0
  6  9  2  0  0  0  0
  7  8  1  0  0  0  0
  7 10  2  0  0  0  0
  8 11  2  0  0  0  0
  9 10  1  0  0  0  0
 10 29  1  0  0  0  0
 11 23  1  0  0  0  0
 11 29  1  0  0  0  0
 12 25  1  0  0  0  0
 12 30  1  0  0  0  0
 12 33  2  0  0  0  0
 13 30  1  0  0  0  0
 13 31  1  0  0  0  0
 13 32  2  0  0  0  0
 14 20  1  0  0  0  0
 14 21  1  0  0  0  0
 15 20  1  0  0  0  0
 15 22  1  0  0  0  0
 16 21  1  0  0  0  0
 16 22  1  0  0  0  0
 17 20  1  0  0  0  0
 17 23  1  0  0  0  0
 18 21  1  0  0  0  0
 18 23  1  0  0  0  0
 19 22  1  0  0  0  0
 19 23  1  0  0  0  0
 24 26  1  0  0  0  0
 25 29  1  0  0  0  0
 26 27  1  0  0  0  0
 27 31  1  0  0  0  0
  2 34  1  0  0  0  0
  3 35  1  0  0  0  0
  4 36  1  0  0  0  0
  5 37  1  0  0  0  0
  6 38  1  0  0  0  0
  7 39  1  0  0  0  0
  8 40  1  0  0  0  0
 14 41  1  0  0  0  0
 14 42  1  0  0  0  0
 15 43  1  0  0  0  0
 15 44  1  0  0  0  0
 16 45  1  0  0  0  0
 16 46  1  0  0  0  0
 17 47  1  0  0  0  0
 17 48  1  0  0  0  0
 18 49  1  0  0  0  0
 18 50  1  0  0  0  0
 19 51  1  0  0  0  0
 19 52  1  0  0  0  0
 20 53  1  0  0  0  0
 21 54  1  0  0  0  0
 22 55  1  0  0  0  0
 24 56  1  0  0  0  0
 24 57  1  0  0  0  0
 25 58  1  0  0  0  0
 25 59  1  0  0  0  0
 26 60  1  0  0  0  0
 26 61  1  0  0  0  0
 27 62  1  0  0  0  0
 27 63  1  0  0  0  0
 30 64  1  0  0  0  0
 31 65  1  0  0  0  0
 32 66  1  0  0  0  0
 32 67  1  0  0  0  0
M  CHG  1  32   1
M  END
> <OMEGA_C>
0AQKQSoZcEDgiYjBLAevQBr+zL8LZajBGjm6QAyAAr+N2aHBRAG1QNljw78AjrPBYDDLQCyOKD/s
eqbB9jbGQM4cub5uMLjBtVMAQVA8B0AyB77BMnsBQW71YUDmL8HBjxXRQKIXPT96sLHBCCTgQG3e
/T/CxLbBiJviQLZbh0DHF7zBms2pQMAIf0D9VKXBU3R5QCKHmEAY2pbBl0f9QDPbCEGvv7vBIb7G
QJj3AkHJZcrBeh2vQNgaBUF/L7fBLZL6QMduy0A4eMXBnz/jQL5Uz0DyR7LB60GsQJ20w0Cr7MDB
o/X0QBtC/EApscbBKlzdQI0xAEEjYbPBInqmQLOi9EBvIsLBGZ3aQAtKuEB5G73BN1zwQBnYlUC+
sIjBitmkQHYhWkB1crDBbJPGQPyRfEA7z4XB65GhQDJHnkCB5oXB1F0YQfaFQECWUYjBE6PNQDYK
T0BEP7bByZuDQJcrjEA6qaDBGrCZQOi3q0A2E5HBbiEsQKkmlEBSG5PBoW3MQBrCfUC5rKDBhtqh
QCfMH8AC3KTBAcy1QIOkEb9GS5nBjl2sQARRF8CAj7jBvLzTQMGGvz8Ld6HBWBfLQDI5n76xu8DB
aH4KQRG/qD+V7MDBZhYNQSUwfUCzm8bBYBIPQapPBUFRJLnBTjX5QPpEGkHYhbzBcZXCQE9eFEF8
NcvBt/7AQOh69kAlLNLBMTeYQKDl/UDdQLHB3RirQAuEFkE3/bfBXu30QAgjvEDMRM3BC70NQdm/
xEAx1MLBWh8CQUyVyEDxuK/BmL7MQJUrw0BbPKzBORyVQFK0t0A2A7vB8U6mQChStEDQssjBJOwF
QTdDBEEwoszBYiLjQMftB0Gcm6vBU6SFQHnD+0DswcTBZyf2QCJ2r0De1ILBkWHtQMbSo0B2u5DB
ZlKVQNwwG0Bjwq/BFVOQQCGugkC8ILXBA3TAQOnOSUArtovBMYfJQDURYEAHmHvBYKOEQGsZj0Al
oILBzvWpQJZXukAvBYHBp+9TQD7Di0BKcqXBtbSqQI+2w0BPOZTBHI4dQPd4n0Bu2YvB6bf+P2J4
hUBXfZfB

> <OMEGA_E>
dNssPw==

> <OMEGA_NBR>
     27016

$$$$
50146771
  -OEChem-04172616093D

 43 45  0     0  0  0  0  0  0999 V2000
    6.4502    2.5777  -23.2385 C   0  0  0  0  0  0  0  0  0  0  0  0
    8.7190    1.8498  -22.6833 C   0  0  0  0  0  0  0  0  0  0  0  0
    6.9604    3.7916  -23.7329 C   0  0  0  0  0  0  0  0  0  0  0  0
    9.2296    3.0602  -23.1878 C   0  0  0  0  0  0  0  0  0  0  0  0
    4.5740   -2.6094  -16.8072 C   0  0  0  0  0  0  0  0  0  0  0  0
    5.9129   -2.1859  -16.9223 C   0  0  0  0  0  0  0  0  0  0  0  0
    6.4943   -0.7901  -22.7787 C   0  0  0  0  0  0  0  0  0  0  0  0
    5.9586   -1.7244  -21.7699 C   0  0  0  0  0  0  0  0  0  0  0  0
    4.1975   -2.0798  -19.1576 C   0  0  0  0  0  0  0  0  0  0  0  0
    7.3305    1.6101  -22.7139 C   0  0  0  0  0  0  0  0  0  0  0  0
    5.5292   -1.6325  -19.2702 C   0  0  0  0  0  0  0  0  0  0  0  0
    8.3500    4.0315  -23.7105 C   0  0  0  0  0  0  0  0  0  0  0  0
    3.7192   -2.5634  -17.9270 C   0  0  0  0  0  0  0  0  0  0  0  0
    6.3995   -1.7053  -18.1532 C   0  0  0  0  0  0  0  0  0  0  0  0
    6.7956    0.3858  -22.1325 C   0  0  0  0  0  0  0  0  0  0  0  0
    5.9823   -1.0839  -20.5501 C   0  0  0  0  0  0  0  0  0  0  0  0
    5.4724    2.3175  -19.7610 C   0  0  0  0  0  0  0  0  0  0  0  0
    4.7263    4.3180  -18.5348 C   0  0  0  0  0  0  0  0  0  0  0  0
    6.6035    1.2703  -19.7686 C   0  0  0  0  0  0  0  0  0  0  0  0
    6.4749    0.1828  -20.8075 N   0  0  0  0  0  0  0  0  0  0  0  0
    4.9760    5.0935  -17.5133 N   0  0  0  0  0  0  0  0  0  0  0  0
    5.5395    3.3066  -18.7609 N   0  0  0  0  0  0  0  0  0  0  0  0
    3.6928    4.5962  -19.2867 N   0  3  0  0  0  0  0  0  0  0  0  0
    4.5684    2.2619  -20.5899 O   0  0  0  0  0  0  0  0  0  0  0  0
    8.8400    5.1957  -24.1922 F   0  0  0  0  0  0  0  0  0  0  0  0
    2.0639   -3.1007  -17.7907 Cl  0  0  0  0  0  0  0  0  0  0  0  0
    8.0929   -1.2527  -18.2815 Cl  0  0  0  0  0  0  0  0  0  0  0  0
    5.3873    2.3877  -23.2607 H   0  0  0  0  0  0  0  0  0  0  0  0
    9.3884    1.1075  -22.2742 H   0  0  0  0  0  0  0  0  0  0  0  0
    6.2890    4.5389  -24.1291 H   0  0  0  0  0  0  0  0  0  0  0  0
   10.2936    3.2453  -23.1748 H   0  0  0  0  0  0  0  0  0  0  0  0
    4.2020   -2.9697  -15.8594 H   0  0  0  0  0  0  0  0  0  0  0  0
    6.5675   -2.2300  -16.0644 H   0  0  0  0  0  0  0  0  0  0  0  0
    6.6257   -0.9926  -23.8314 H   0  0  0  0  0  0  0  0  0  0  0  0
    5.6104   -2.7299  -21.9546 H   0  0  0  0  0  0  0  0  0  0  0  0
    3.5440   -2.0510  -20.0170 H   0  0  0  0  0  0  0  0  0  0  0  0
    7.5525    1.7977  -19.9456 H   0  0  0  0  0  0  0  0  0  0  0  0
    6.6291    0.7918  -18.7784 H   0  0  0  0  0  0  0  0  0  0  0  0
    4.3834    5.8763  -17.3232 H   0  0  0  0  0  0  0  0  0  0  0  0
    5.7596    4.9043  -16.9216 H   0  0  0  0  0  0  0  0  0  0  0  0
    6.3144    3.2304  -18.1334 H   0  0  0  0  0  0  0  0  0  0  0  0
    3.4856    4.0270  -20.0824 H   0  0  0  0  0  0  0  0  0  0  0  0
    3.1098    5.3781  -19.0659 H   0  0  0  0  0  0  0  0  0  0  0  0
  1  3  1  0  0  0  0
  1 10  2  0  0  0  0
  2  4  2  0  0  0  0
  2 10  1  0  0  0  0
  3 12  2  0  0  0  0
  4 12  1  0  0  0  0
  5  6  2  0  0  0  0
  5 13  1  0  0  0  0
  6 14  1  0  0  0  0
  7  8  1  0  0  0  0
  7 15  2  0  0  0  0
  8 16  2  0  0  0  0
  9 11  1  0  0  0  0
  9 13  2  0  0  0  0
 10 15  1  0  0  0  0
 11 14  2  0  0  0  0
 11 16  1  0  0  0  0
 12 25  1  0  0  0  0
 13 26  1  0  0  0  0
 14 27  1  0  0  0  0
 15 20  1  0  0  0  0
 16 20  1  0  0  0  0
 17 19  1  0  0  0  0
 17 22  1  0  0  0  0
 17 24  2  0  0  0  0
 18 21  1  0  0  0  0
 18 22  1  0  0  0  0
 18 23  2  0  0  0  0
 19 20  1  0  0  0  0
  1 28  1  0  0  0  0
  2 29  1  0  0  0  0
  3 30  1  0  0  0  0
  4 31  1  0  0  0  0
  5 32  1  0  0  0  0
  6 33  1  0  0  0  0
  7 34  1  0  0  0  0
  8 35  1  0  0  0  0
  9 36  1  0  0  0  0
 19 37  1  0  0  0  0
 19 38  1  0  0  0  0
 21 39  1  0  0  0  0
 21 40  1  0  0  0  0
 22 41  1  0  0  0  0
 23 42  1  0  0  0  0
 23 43  1  0  0  0  0
M  CHG  1  23   1
M  END
> <OMEGA_C>
FGjOQLf4JEBZ6LnBB4ELQcrF7D9Od7XB3LveQDKpckDy3L3BlawTQRTaQ0CSgLnB112SQM7/JsAb
dYbBeja9QLflC8DWYIfBSdHPQNBASr/MOrbBx6y+QJO53L/QKK7Bz1GGQD8bBcC9QpnBqJPqQCsX
zj8YtrXBV++wQEP30L9HKZrBzZkFQXACgUAtr73B1QZuQPoOJMBoao/BWMjMQK1I2r/EOZHBMnXZ
QL6CxT5aD7HBCW+/QEi8ir+GZqTB9h2vQLhRFECEFp7BED6XQDstikA7R5TBw0/TQH+Zoj8UJp7B
kzLPQJo2Oz6/dabBAjufQAL+okAqG4zBtkOxQHCfU0BeFpbBH1ZsQEIUk0A2S5rBjTCSQKfCEEAK
uKTBr3ANQflCpkCoicHBLxYEQDhyRsBSU47BuHwBQVpYoL99QJLBnmSsQLLPGEDhFbrBAjcWQY/D
jT+SMbLBPT/JQN8+kUB0CMHBd7IkQTizT0AKZrnBI3eGQAUQPsBAwH3BOSnSQBm4DsD0g4DBVwXU
QDAYfr+wpr7BTIizQCO3LsD5oq/BFtFiQEpEA8DDIqDBvK3xQHIa5j+WkJ/BQCHUQF61Sj8/OpbB
qUSMQGcKvEDTlYrBc064QLTvnEBYX4fBXg/KQGm/TkAyEZHBqxNfQPrcgECrqKDB6QZHQM4ZrEAJ
h5jB51udQMBcDMAWDJLBEwVoQIy9L8AJE6LB65l9QL+JNsCIrYvBpeoqQI7VWcA4spvBuB/lQJ0t
jUA/dLjB9LAEQTNIZ0Dnc7bBRIzZQNyj7781/6jBZovsQNsLQL8c9a7B0Cy3QJkXIkCOFLTBdAyY
QIauCcDpPJ3BBh3bQJ1T3j/vgbHBWtM1QA5nXcC+gJDBP/S7QPeed0DFMbfBz2ICQegdEkB/5rLB
dRu2QHtWsr88x6PBRzDUQCIQwj4EFa3BIJueQDIVBkBa1pvBwuKBQNQUhEA3ZZPBzRSQQMTOUD/N
xKHBvsOzQEDcS72jNabBrQ4+QOeemUAFVJHBp9t8QOmaQEA/6JjBykymQDcvk0B634/BglXEQIZ6
D0AAWpnBToL2P3YIg8DTYIrBwH6OQGEKm0D/bLnBXrEZQQOusD9k5a/BMsO4QFxb3L8wYI7BFbxf
QCqZLMCgpKrBLtGCQF8nOcBGGoPBgH3nP0hed8BrXZ/BqfPoQF0KrkCj87rBZn4UQavHgEANprfB
WVrlQA3COMDwxajBj1sEQfEDTb8v8rPBPoWXQHuUBkDuorPBW896QJz1UT6yIZzBWBZ3QDtxjz97
fKjBsEhBQO/ftEC/J43BYHYFQBDbjkAu65PBCLhBQC7WMUBqWJvBB4HBQGxeg0CYU5HBFe6mQGGL
rkAYuovBDe2jQO0/LsDgRpTB3ylWQMn8B8Cb16DB6NaFQD6KWcBz343B3ywaQFeCM8AIdprBNqHm
QLDGi0B7irnBgSz7QPBCgEDJ7a/BYxbbQPyH5b8ZS6jB5N3vQH+IML9mKa7BuSTJQKeVB0CnDrvB
f26WQGNlBMDHr53BWLLdQD7g4D9xdbHBwtU0QEPlW8Ai8pDBjiHOQCmzWkAkLr/BpHz3QHqNLEBo
9KvB0l21QDz0p798E6TBmFLWQPYV2D4BF63BEoycQMs9BkC1OJzBR+CBQGGGhECQp5PB8LyPQI2f
dz9WDqTBiYSzQFgDpDylF6fBI/s+QPdgmkBQVJHBkMJ7QKtKRUAy3ZnBBrKmQMiTkkDXGZDBNli/
QA1KBEBgvJfB5wr2P+iZgsCaxorBfRe2QFwJdkBgT8vBp+QJQV5CEEByWaDBeT/FQM0YLcBT/ZHB
1OtBQBOZ0r+kKKjB1wCQQODxeMCQm4bBLJSvPwz8NcDb2JzBSKjpQEb3q0DRl7zB9eMGQeuvl0Be
mqvB00TnQJsZM8AsdKfBUtgGQfKvPr9NgbLBMZG1QDIQsz9hP7/BfTBsQGhpwT4YTaDBf5qDQJV2
tz9pbavBI3tDQOANtUBJ8ozBT9IFQPFvkECL7pPBC6RCQALKPUA/WZ3B473BQNVpg0AEFJLBs8Wn
QH15rEDNaIvBJ62hQN41ScCKcpbBqDxIQMGW8L/+7ZzBKC6GQPqFesCH/Y/B/+MRQEZsJ8CzOpbB
sU/TQEgalkBNz7XBGT31QNcOhEAN5q/B2WbTQNfbzr8q0qfBy6LlQE3h375XPa3BEGatQHUVJECb
QLXBodeQQLAZBsBHupzBZybPQI69/z+oSa/BleszQJ+CaMBvvY/BmmSvQCIRekByfLjB51XzQFXo
MUD5nazB3MytQDV0nb+M7qLBlqzKQArmHz9jXqvBo9GXQFb2DkAiTprBkoeTQETZlUBy8JnBojuH
QFbvgT+baaDBSTeqQMcxBj6V8aTB7AeGQC14t0ALJZ/BygGKQE/FX0BLzZ3Bnj+pQMWam0ChHJHB
z2quQC7sA0BMZJLBYnf+P41ai8BIaYnBSQ2FQKExk0BAtr/BI34OQU7GB0D31KTB1JDDQOC1VsD9
l5bBsZktQMwjkr/cSaLBmfeSQOYYl8B5OYvBBEucP4vFGcD2DZbB69rUQGcst0DySbjBWGIIQZhT
l0Aj4a3BGRThQDPmJsAns6fBEW8BQVzo0r4e2LHB4O+RQH4r+z/1VrfBj05nQIq10j6X65rBQ3lm
QF4+rz8CFKfBjV2MQDvL1ECCXJzB8LdqQETks0AU6qXBFnJsQOuMX0D2FqTBoYmzQAVbgkCE7IzB
yJCvQCdBuUDmjI7B

> <OMEGA_E>
Om6mP4JamD+F0Jo/iqKgPw==

> <OMEGA_NBR>
      3318

$$$$
50146773
  -OEChem-04172616093D

 63 66  0     0  0  0  0  0  0999 V2000
    7.7692    7.8247  -22.8489 C   0  0  0  0  0  0  0  0  0  0  0  0
    8.0266    6.4578  -22.6462 C   0  0  0  0  0  0  0  0  0  0  0  0
    6.0634    0.6672  -20.6742 C   0  0  0  0  0  0  0  0  0  0  0  0
    6.6669   -0.4928  -22.7384 C   0  0  0  0  0  0  0  0  0  0  0  0
    3.8629   -4.4167  -17.4043 C   0  0  0  0  0  0  0  0  0  0  0  0
    2.3758   -2.6701  -18.2434 C   0  0  0  0  0  0  0  0  0  0  0  0
    6.7925    8.2234  -23.7837 C   0  0  0  0  0  0  0  0  0  0  0  0
    5.6228   -0.5487  -20.1212 C   0  0  0  0  0  0  0  0  0  0  0  0
    6.2018   -1.6948  -22.2008 C   0  0  0  0  0  0  0  0  0  0  0  0
    4.7760   -4.1293  -18.4274 C   0  0  0  0  0  0  0  0  0  0  0  0
    3.2884   -2.3928  -19.2788 C   0  0  0  0  0  0  0  0  0  0  0  0
    8.3645    1.9696  -23.2296 C   0  0  0  0  0  0  0  0  0  0  0  0
    8.5972    3.3723  -23.5959 C   0  0  0  0  0  0  0  0  0  0  0  0
    6.3183    5.8912  -24.2975 C   0  0  0  0  0  0  0  0  0  0  0  0
    6.6001    0.6878  -21.9804 C   0  0  0  0  0  0  0  0  0  0  0  0
    7.2874    5.5009  -23.3658 C   0  0  0  0  0  0  0  0  0  0  0  0
    2.6473   -3.7013  -17.3092 C   0  0  0  0  0  0  0  0  0  0  0  0
    5.6841   -1.7387  -20.8960 C   0  0  0  0  0  0  0  0  0  0  0  0
    4.4997   -3.1219  -19.3656 C   0  0  0  0  0  0  0  0  0  0  0  0
    6.0673    7.2483  -24.5160 C   0  0  0  0  0  0  0  0  0  0  0  0
    7.1713    1.9031  -22.5465 C   0  0  0  0  0  0  0  0  0  0  0  0
    7.5147    4.0904  -23.1617 C   0  0  0  0  0  0  0  0  0  0  0  0
    1.6544   -4.0618  -16.2677 C   0  0  0  0  0  0  0  0  0  0  0  0
    5.4051    4.1643  -20.6255 C   0  0  0  0  0  0  0  0  0  0  0  0
    4.0870    4.5133  -18.6006 C   0  0  0  0  0  0  0  0  0  0  0  0
    1.8541   -5.3084  -15.3894 C   0  0  0  0  0  0  0  0  0  0  0  0
    4.2323    8.6443  -25.0870 C   0  0  0  0  0  0  0  0  0  0  0  0
    5.3217    3.5575  -22.0330 C   0  0  0  0  0  0  0  0  0  0  0  0
    6.6628    3.1819  -22.5778 N   0  0  0  0  0  0  0  0  0  0  0  0
    2.9005    4.4091  -18.0727 N   0  0  0  0  0  0  0  0  0  0  0  0
    4.2380    4.1492  -19.8537 N   0  0  0  0  0  0  0  0  0  0  0  0
    5.0646    4.9404  -17.8458 N   0  3  0  0  0  0  0  0  0  0  0  0
    0.6530   -3.3752  -16.0995 O   0  0  0  0  0  0  0  0  0  0  0  0
    6.4562    4.6644  -20.2345 O   0  0  0  0  0  0  0  0  0  0  0  0
    5.3805   -2.9956  -20.4154 O   0  0  0  0  0  0  0  0  0  0  0  0
    5.1158    7.5698  -25.4557 O   0  0  0  0  0  0  0  0  0  0  0  0
    8.3184    8.5677  -22.2897 H   0  0  0  0  0  0  0  0  0  0  0  0
    8.7853    6.1446  -21.9442 H   0  0  0  0  0  0  0  0  0  0  0  0
    5.9916    1.5808  -20.1027 H   0  0  0  0  0  0  0  0  0  0  0  0
    7.0779   -0.4709  -23.7369 H   0  0  0  0  0  0  0  0  0  0  0  0
    4.0890   -5.1892  -16.6842 H   0  0  0  0  0  0  0  0  0  0  0  0
    1.4654   -2.0951  -18.1604 H   0  0  0  0  0  0  0  0  0  0  0  0
    6.5958    9.2734  -23.9428 H   0  0  0  0  0  0  0  0  0  0  0  0
    5.2395   -0.5780  -19.1119 H   0  0  0  0  0  0  0  0  0  0  0  0
    6.2405   -2.5973  -22.7927 H   0  0  0  0  0  0  0  0  0  0  0  0
    5.6987   -4.6865  -18.4949 H   0  0  0  0  0  0  0  0  0  0  0  0
    3.0654   -1.6257  -20.0055 H   0  0  0  0  0  0  0  0  0  0  0  0
    9.0145    1.1373  -23.4559 H   0  0  0  0  0  0  0  0  0  0  0  0
    9.4611    3.7648  -24.1118 H   0  0  0  0  0  0  0  0  0  0  0  0
    5.7650    5.1440  -24.8470 H   0  0  0  0  0  0  0  0  0  0  0  0
    1.0091   -5.4053  -14.6918 H   0  0  0  0  0  0  0  0  0  0  0  0
    1.9063   -6.2024  -16.0282 H   0  0  0  0  0  0  0  0  0  0  0  0
    2.7900   -5.2095  -14.8200 H   0  0  0  0  0  0  0  0  0  0  0  0
    3.5130    8.8234  -25.8997 H   0  0  0  0  0  0  0  0  0  0  0  0
    3.6891    8.3737  -24.1696 H   0  0  0  0  0  0  0  0  0  0  0  0
    4.8197    9.5572  -24.9096 H   0  0  0  0  0  0  0  0  0  0  0  0
    4.6932    2.6556  -21.9911 H   0  0  0  0  0  0  0  0  0  0  0  0
    4.8611    4.2943  -22.7076 H   0  0  0  0  0  0  0  0  0  0  0  0
    2.7567    4.6532  -17.1137 H   0  0  0  0  0  0  0  0  0  0  0  0
    2.1336    4.0850  -18.6266 H   0  0  0  0  0  0  0  0  0  0  0  0
    3.4142    3.8193  -20.3147 H   0  0  0  0  0  0  0  0  0  0  0  0
    5.9912    5.0043  -18.2163 H   0  0  0  0  0  0  0  0  0  0  0  0
    4.8860    5.2034  -16.8976 H   0  0  0  0  0  0  0  0  0  0  0  0
  1  2  2  0  0  0  0
  1  7  1  0  0  0  0
  2 16  1  0  0  0  0
  3  8  2  0  0  0  0
  3 15  1  0  0  0  0
  4  9  1  0  0  0  0
  4 15  2  0  0  0  0
  5 10  2  0  0  0  0
  5 17  1  0  0  0  0
  6 11  1  0  0  0  0
  6 17  2  0  0  0  0
  7 20  2  0  0  0  0
  8 18  1  0  0  0  0
  9 18  2  0  0  0  0
 10 19  1  0  0  0  0
 11 19  2  0  0  0  0
 12 13  1  0  0  0  0
 12 21  2  0  0  0  0
 13 22  2  0  0  0  0
 14 16  2  0  0  0  0
 14 20  1  0  0  0  0
 15 21  1  0  0  0  0
 16 22  1  0  0  0  0
 17 23  1  0  0  0  0
 18 35  1  0  0  0  0
 19 35  1  0  0  0  0
 20 36  1  0  0  0  0
 21 29  1  0  0  0  0
 22 29  1  0  0  0  0
 23 26  1  0  0  0  0
 23 33  2  0  0  0  0
 24 28  1  0  0  0  0
 24 31  1  0  0  0  0
 24 34  2  0  0  0  0
 25 30  1  0  0  0  0
 25 31  1  0  0  0  0
 25 32  2  0  0  0  0
 27 36  1  0  0  0  0
 28 29  1  0  0  0  0
  1 37  1  0  0  0  0
  2 38  1  0  0  0  0
  3 39  1  0  0  0  0
  4 40  1  0  0  0  0
  5 41  1  0  0  0  0
  6 42  1  0  0  0  0
  7 43  1  0  0  0  0
  8 44  1  0  0  0  0
  9 45  1  0  0  0  0
 10 46  1  0  0  0  0
 11 47  1  0  0  0  0
 12 48  1  0  0  0  0
 13 49  1  0  0  0  0
 14 50  1  0  0  0  0
 26 51  1  0  0  0  0
 26 52  1  0  0  0  0
 26 53  1  0  0  0  0
 27 54  1  0  0  0  0
 27 55  1  0  0  0  0
 27 56  1  0  0  0  0
 28 57  1  0  0  0  0
 28 58  1  0  0  0  0
 30 59  1  0  0  0  0
 30 60  1  0  0  0  0
 31 61  1  0  0  0  0
 32 62  1  0  0  0  0
 32 63  1  0  0  0  0
M  CHG  1  32   1
M  END
> <OMEGA_C>
7pz4QORj+kCRyrbBJm0AQQCmzkBvK7XBSgfCQLnOKj+4ZKXBPFfVQOxJ/L5B6LXB0zl3QGZVjcAN
PIvBYg0YQFLjKsBx8pHBUlzZQBmTA0HyRL7BHu6zQOt2DL8r+KDBNnXGQKjv2L8mm7HB3NSYQDAj
hMBca5PBunVSQFgkGcDsOprBDdUFQYYc/D8n1rnBTI4JQSjUV0B/xLzBYi/KQMKEvEBFYcLBHDTT
QHkTMD/J16/BPDLpQJgHsEBB7brBKm0pQFfhbMA9eYrBVuS1QFSN3r/3KqfBvP2PQPHNR8Cp7JrB
fifCQFTy50C7IMTBbnvlQBqa8z9GX7TBOnjwQCzkgkAVS7nBJsTTP2D6gcBaJILB9PasQBZChUAc
AaXBzsiCQOxskED1zZTB6lLtP8TeqcADO3bBY2+HQABPCkFFssjB/EqqQOGtY0CZQ7DByDXVQHaj
S0Btn7TBu6E5QBoXjUDvlJDBCJ6HQCjGhEB11J7BEhGiQMQXnkAexI7Bsi0nPzEDWMDfy4DBTJnO
QA5DlUAz4KHBEC2sQLC3P8DAUqPBcrSjQBo88kBWpcvBHhgFQTYVCUFNUbLBn5AMQfagxEDBja/B
E7u/QB5Xyj890qDB333iQMAa8b425b3BVdmCQJkNpsBNeYXBFZK7PxsWBsCUSJHBsBDTQKVfFEHf
ir/B96mnQA72E78z5ZjBXbLHQFE6JsB1V7bBlVu2QNr3lcCB9ZPBKDBEQL4W0L9KC6DBXzsQQZmU
kT/GpbvBtmAXQYzycEDu5MDB43q4QIybpECixsbBtCqBPxb4rMCsEWvBfAH0Pwx6xsDbOYDBxY8y
QIm0psCiHm3Bp9RgQNcsDUGXMs/BmhlsQLL6BUFuW8HBJTuaQH7qGEHRRsfB7i6WQAb2KUDM7a/B
WY6bQMtqiUAdqbXBp20wQLPmlEDX6IjBQowIQCK4gkBDA5XBkYJaQBhvdEB9hKLB6Le/QNcioEAA
u5HBQ1qcQA2CpkBXLofBRca1QNbR4UCX4cXBAbK+QOc/t0CJ/MLBAEjEQJBvKT/UXKTBxGjaQBfZ
5L4D47TB67IVQJNUK8Bxg5LBd3JzQMUHjsB1uovBTezQQLB1AUFSXcLBzz61QGzWEL9wX6DBCI3K
QFx41L9bCLHBB3pRQBsFGcBzn5rBYZuXQJaShMAivpPBZuYHQXEWBUCmq7fB5tcJQVlQXUD7jLvB
zP/9QDHwzkALLrnB5AbXQKzLNj8kn67BkM3iQOwlrkBfmLzB4pwlQCEubsBEG4vBO8y3QPLS3b9s
1qbBwWaPQIEVSMCiNZvBpwj1QJk8+UAaA7zB3UXoQC6x+T8r9LLBrl3tQCKtgkAdornB6xzJP0D7
gsCI/YLBoCeuQEgohUBkVaTBcZSEQOqBkUACFZTBqEDgP5MXq8DDA3jBj8/7QA4gGEFAfK/Bx0Wq
QJ4bYUCOca/BIbfUQL8zS0BeK7TB+x89QC3PjkCP24/BIRaJQNCJhUCUFJ7BQDykQPNnnkBZEI7B
TSsRP0kNWsA+xIHBhSfQQFgTlUBMaKHBFAusQOSzP8BmgKPBUXkHQcpsDEEtKLjBYD2aQJYV6UDX
xsrBSQeqQO+pnUDIo8XB3H/BQHOSxz/Ump/B50PpQL6Mzb7lrbzBnQO3P0NSBsCr7pHBR3SAQGf8
psA0/oXBDCTKQDzYEUHWhcTB0s2nQBs/H78BbZjBW7fMQE0PI8Dz67XByWZEQEFkzr9KYqDBfyW1
QEhtlsCjLZTBadkTQbX6pj+fY7jBpsgXQTuReUDRPL/BDOQMQRCbx0AJYbTBX5FkP75VrsDQJG3B
cIXoP6uLx8CIKYHB6kUrQDYXqMCMlm7BIAkJQdOWJEEHuazBn/HdQHWgH0HlPrLBcMP0QBMcDUEi
2qjBEkGXQBElJkCFuq7BBdaZQCoVh0Ay0LTBv0I0QEOHlkBiLIjB3aALQOoEhUCrTJTBqehcQOSp
dkBEtaHB5u3BQASNn0AyCJHBOcWeQD8ip0BJfYbB8xb+QDr3+UATt7XB0RcBQd52zUBderTBbKfA
QHFiLj/NlqXBF4jVQFTJ/L4r5bXBFIIYQILjK8D5uJHBMj15QCbwjMBI6YrByhTiQJJIBUGye73B
ec+yQAUcCb98GKHBdfbGQD9K2b8VhrHBcC5SQHVNGsALF5rBa5OZQP2zg8ARLJPB0SEFQT4H/z8x
IbrB+rwIQTdIWUCfI73BEabMQOIawkCCbsLBMFrSQPDqMj8N/q/BBk7pQB+zsUAmzbrB7AsrQCa8
bMD1IorBcKG1QHQY3r/4J6fBri6QQBXIR8ALxJrBIITJQATN7kBn5MPBQiXkQBEY9j/to7TBRMHu
QFm2g0C2ubnBjzDYP359gcASr4HBk0KsQJSjhEDGKqXBivqBQGuCj0Df+pTBfkXuP2IIqsBQsXXB
8hKEQHs48UA7gcvBniepQEhVZUB6jrDBILjTQMULTUBF/LTBTNg3QORBjEADzpDBm+SGQIQXhEDF
A5/B8C2hQMYvnUAP647BIRUvP5w7V8CyaoDB2S3OQKWvk0Bm7qHB5xWsQLSOP8CFPaPBuqavQDYk
AEG4o8vBLTQIQQywB0FRtrDB0i8MQceVwEBWsK7BXsC9QMqszD/9F6HB6UHjQDzB9b7j0r3Bq5m7
P7rFB8ARFJHBZjqEQN5opcBNHYXBhGXfQKFhFkH8ib7BGxWmQBurDr+XEJnB/gzJQOvUJsBvKLbB
D89CQHpb1L+Z/J/BeVG3QCstlcBNs5PBrpgPQQbHlD9j6bvB3osWQYBUckC2SMHBnyi5QEuurEBG
JcfByFJ/PxmQrcBL8mrBV/P2P1MrxsAzG4DBKAUyQDBfp8B9I2zBONJjQFxwAEFg8tHB9qaDQE9c
zkBmuMzBWsZqQFrq+EAAvsPBdo+UQJA/LED0brDBkM2aQOAhi0CGxLXBI1guQCAklECPJInBTesG
QJXggUD5QpXB8RVZQKlYc0B1u6LBztS+QIdrn0C535HBq2ebQIprpUDSUofBOv+2QEhN20AfpsfB
/QPEQPRDskAfasTBmdHEQBhwND9l+6PBbenfQP270b4nALTBrQEcQCZ0Q8CnN5DBh+SIQJrxksCZ
e4zBPmHKQKez/0BwIcPBt0GxQPbB/b5kraDBPgvMQL0ZzL9Hz7DBnr9JQBqzIsBLDpnB556fQJNi
gsA4MJXB4ukKQU4MCUDCQrbBoIkMQfPFYED7gLrBl5L4QCXt0UA4VLjBPpnbQFO2Pz/zv63Bvdvk
QFDGrUAzxbzBTM0+QAzNg8AvE4rBNSa0QIvK0r+STKfBN32NQHvTRMBQn5vBc/vqQJ5o+0DuZrvB
eZ7tQBjK/j/k8LHB19XxQBxrg0BYMbnBHeMMQBRImcByf4HB2zGwQH8shUB6WaTBgDaEQJpFkkDT
jZTBmIhNP8PFicBEy3zBij4NQe/mDUEdhq7BCfStQBZ/YUCjga/BYEXZQLxVTEA0vrPBFBM7QF4P
kEDgtJDBLQuKQBKohkCOiZ7BXRGjQL6gnkD3NY7Be9QnQAxSusD1zXrBNDLSQL9+k0Ao8qDBxk2g
QCOONsDaW6XBYQv8QJZLEEFQJrfBZCqeQCXn3kAnl83Bx+a0QIk+lkCcxsfBGWvCQMB4yz9gEJ/B
C5TyQN+yxL7iRLvBCwq9P3CwKMCgH47BPi2XQCeAq8AMkIfBazPAQFSbD0FVmsXBmTOgQDFQCr/S
K5nBThLPQCy1HsBPs7XBE80uQCac379+1Z3Bdki/QNhHjsCC9pbBnEwXQS7GsT+rf7bBb5MaQe/I
fUA+AL7B9AkJQfgtzkAMk7LBjJi4PgMboMADLXHBKqNfP9N3U8Cll3XBMOAsPttQiMAvlIXB8boS
QX7IHUFr56vBipAFQeuaBUGRx6fBtgUbQaF9BEHVUrHB9fiaQNZWJkCjA6/BJU6eQP9Ih0DuBLXB
YwowQEm6l0AjEInBKroKQMOxhkB8ZZXBVnhfQORje0CdgKLBfjHBQBidn0C65ZDBE46cQBQZp0B/
q4bBfWH4QLfI+0B8HrjBPKsAQddG0ECuQLbBlTPFQOICJT+BDaXByULVQDN/+75j4bXBHw8ZQCS6
KsASupHBLS10QB0bkMACtIvB1wfWQOq+A0Eh077BMZO2QJbaEb96raDBSPPFQPWc2L/umrHBU15U
QOqEF8CS4JnBi7mXQOQ0hsAbvJPBIXQGQcyl/z+Go7nBbqUJQXoBWkBUqLzBeLHFQN5CvEBWz8HB
Ut/UQAbKLT/Opq/BsrjnQAiusEB+GLvB4wkoQDtBcMD2qorBSZi2QIKE379IC6fBVR+QQCqTSMB9
25rBPiK8QMXW50AgnsPBs7XmQD3U8z+/N7TBvwrwQMpng0BjS7nBDffRPwb2g8BaToLBtLmtQHL0
hED88KTB5tKDQOw+kkCI0pTBQszyPj5ITMBbJ3/BB5puQK8Z1kC/G8vBv6GqQC4LYUBxDrDBkYfV
QBMmS0DCjrTBGZ07QOX6j0BslZDBo2qIQCuWhUCJxZ7BjW2jQGu6n0A13Y7BoLjfP+bhpcDY33rB
Q6bPQPuslECN6aHBgHKsQBkwQMDpPqPB1ciZQHbI9EAD1MnBgekFQREbCkH5abTB1dYNQekxx0AP
JLHBhnHEQJ0Zxj9nUaDBlWHhQMcV7b7x973Bd/i/P2NfBMDe2ZDBm2OAQOg6qsBARYbBY37PQEl0
FEGWTcDBDmGrQABBG79EgpjBnO3FQHZ7JcDMdbbBIQRIQG4ax79VXJ/B3LG0QPvTmMBTdZTBWjUR
QYsRlz/FX7vBgl4XQX0cdEBlxcDBsLKyQDi8o0BDnsXBwmYLvkYyacCWa3LBKABeP2JUDsAvpXnB
NrsVvnZzQsAjvYbBBy88QIAG5EAUK9DByL+DQMbkuECR6M7BP9lTQN8czkChN8PBYoSXQFsfJkAW
da/BT6uaQPQgh0CXfrXB3MAyQHNzmEDx8ojBHBwKQBzFhUD49pTB78ZbQGQldkBjZKLB8hzBQEfO
oEDe1pHBhe2dQND3qEBMVIfBqBj0QKH9/EBTLrjB9eT9QHjD0UA8NbbBZGDFQKtqND8hLKXBJ9LV
QB3B5b6h5bXB8g1zQO3whsDayYrBl2YSQCSNJsB1G5PB+gPUQJ3nA0Fho7/Bs1+2QPRrAL85wqDB
+GrGQIqb0r8Lj7HB+BKYQAyMfcDNvJLBfrFPQHqPFsDwHpvBK7UGQY5pAkDY2bnBULgJQclZXEBA
Db3BY8vGQEEyvEBR9cLBkGfVQEZCOj/Tva/B9QjnQB+OsUDVm7vBhngjQBshY8Bd8YrBXOC2QI3a
17/1A6fBx4iPQBw1QsAj6JrB7zu9QASV50DaIcXBzU7nQBNr+T9nYbTBiizwQM+QhEAxrLnB2brG
P6ztdcBvj4LBa9auQCxxg0C0sqTBy2ODQMXqkECW0ZTBtoPmPkQnNcCv53/BBweLQErA0kDz7dLB
oIarQFRSZEAvJrDB0hXWQFfeTUDsxbTB8BA6QH/hjUDMzpDBqrWIQP84hkBR457B+U2iQIk6nkAF
no7BUsrMPwa4nMAnIHvB7NbRQBpajUA9+aDBvBKtQNPeO8CXB6PBTmmeQM4e9EATfMzBjZQCQUL0
CkH4+rPBH2MLQeteyUAZl7DByaTEQJ1Xzj89faDB3AjiQEeS275X+r3BqXSAQECvncCUhITBj3Cs
PyiPBMDjLpPBs87MQDiHFEEXKcHBWYaqQAS9Br8PpZjBW3nGQLLTIsBhWbbB1V62QBxkj8AslZLB
wC9CQLJG0r8haaHBTYkRQWtlnD9IgbvBk1EXQZJJdkCSSMHBcDS1QOomo0Df+MbB+m49vnx8TsDX
AXPBGAVoP+kW8b+Jt3rBVVQmvs/hKcDKH4fBGK1mQMgA4UBpYNjBJfOjQI56wkCeoNfB7zB2QK9y
u0AnrM3B8mCXQJaYKkAdFbDB64ycQIO8ikBhN7XBRagvQBanlUA9KInBsJYJQELHg0AuYZXB1AZc
QGhJfkCm7aLBJRLAQBS9oEBmfJHBwzKcQA/opUChAIfB

> <OMEGA_E>
QL81PsAUQD6oiEc+INTSPpgfpz5goqI+

> <OMEGA_NBR>
      9689

$$$$
50146775
  -OEChem-04172616093D

 58 61  0     0  0  0  0  0  0999 V2000
    2.6353   -3.7568  -17.2601 C   0  0  0  0  0  0  0  0  0  0  0  0
    2.3536   -2.7209  -18.1750 C   0  0  0  0  0  0  0  0  0  0  0  0
    3.8434   -4.4722  -17.3610 C   0  0  0  0  0  0  0  0  0  0  0  0
    7.8431    7.8662  -22.9012 C   0  0  0  0  0  0  0  0  0  0  0  0
    8.1299    6.4998  -22.7311 C   0  0  0  0  0  0  0  0  0  0  0  0
    6.6389   -0.4873  -22.7453 C   0  0  0  0  0  0  0  0  0  0  0  0
    6.0345    0.7061  -20.7048 C   0  0  0  0  0  0  0  0  0  0  0  0
    3.2740   -2.4053  -19.1985 C   0  0  0  0  0  0  0  0  0  0  0  0
    4.7668   -4.1522  -18.3749 C   0  0  0  0  0  0  0  0  0  0  0  0
    6.7704    8.2636  -23.7260 C   0  0  0  0  0  0  0  0  0  0  0  0
    6.1843   -1.6848  -22.1772 C   0  0  0  0  0  0  0  0  0  0  0  0
    5.5949   -0.5031  -20.1251 C   0  0  0  0  0  0  0  0  0  0  0  0
    8.3414    1.9832  -23.2830 C   0  0  0  0  0  0  0  0  0  0  0  0
    8.6095    3.3896  -23.6223 C   0  0  0  0  0  0  0  0  0  0  0  0
    6.2758    5.9340  -24.2144 C   0  0  0  0  0  0  0  0  0  0  0  0
    6.5669    0.7121  -22.0155 C   0  0  0  0  0  0  0  0  0  0  0  0
    7.3276    5.5419  -23.3789 C   0  0  0  0  0  0  0  0  0  0  0  0
    4.4975   -3.1163  -19.2950 C   0  0  0  0  0  0  0  0  0  0  0  0
    5.6614   -1.7111  -20.8696 C   0  0  0  0  0  0  0  0  0  0  0  0
    5.9820    7.2866  -24.3957 C   0  0  0  0  0  0  0  0  0  0  0  0
    7.1460    1.9273  -22.6008 C   0  0  0  0  0  0  0  0  0  0  0  0
    7.5424    4.1248  -23.1798 C   0  0  0  0  0  0  0  0  0  0  0  0
    5.4241    4.2287  -20.6691 C   0  0  0  0  0  0  0  0  0  0  0  0
    4.1248    4.5015  -18.6237 C   0  0  0  0  0  0  0  0  0  0  0  0
    4.6089    8.9622  -25.4367 C   0  0  0  0  0  0  0  0  0  0  0  0
    5.3318    3.6119  -22.0693 C   0  0  0  0  0  0  0  0  0  0  0  0
    6.6668    3.2203  -22.6169 N   0  0  0  0  0  0  0  0  0  0  0  0
    2.9759    4.2554  -18.0614 N   0  0  0  0  0  0  0  0  0  0  0  0
    4.2609    4.2044  -19.8949 N   0  0  0  0  0  0  0  0  0  0  0  0
    5.0804    5.0058  -17.8891 N   0  3  0  0  0  0  0  0  0  0  0  0
    6.4819    4.7119  -20.2739 O   0  0  0  0  0  0  0  0  0  0  0  0
    5.3835   -2.9688  -20.3510 O   0  0  0  0  0  0  0  0  0  0  0  0
    4.9163    7.5725  -25.2286 O   0  0  0  0  0  0  0  0  0  0  0  0
    1.9253   -4.0007  -16.4836 H   0  0  0  0  0  0  0  0  0  0  0  0
    1.4303   -2.1668  -18.0925 H   0  0  0  0  0  0  0  0  0  0  0  0
    4.0619   -5.2655  -16.6615 H   0  0  0  0  0  0  0  0  0  0  0  0
    8.4441    8.6108  -22.4005 H   0  0  0  0  0  0  0  0  0  0  0  0
    8.9570    6.1890  -22.1100 H   0  0  0  0  0  0  0  0  0  0  0  0
    7.0454   -0.4857  -23.7459 H   0  0  0  0  0  0  0  0  0  0  0  0
    5.9645    1.6283  -20.1470 H   0  0  0  0  0  0  0  0  0  0  0  0
    3.0464   -1.6230  -19.9074 H   0  0  0  0  0  0  0  0  0  0  0  0
    5.6913   -4.7056  -18.4493 H   0  0  0  0  0  0  0  0  0  0  0  0
    6.5466    9.3128  -23.8498 H   0  0  0  0  0  0  0  0  0  0  0  0
    6.2356   -2.5994  -22.7493 H   0  0  0  0  0  0  0  0  0  0  0  0
    5.2084   -0.5102  -19.1167 H   0  0  0  0  0  0  0  0  0  0  0  0
    8.9723    1.1411  -23.5264 H   0  0  0  0  0  0  0  0  0  0  0  0
    9.4850    3.7711  -24.1266 H   0  0  0  0  0  0  0  0  0  0  0  0
    5.6870    5.1848  -24.7227 H   0  0  0  0  0  0  0  0  0  0  0  0
    3.7467    9.0501  -26.1141 H   0  0  0  0  0  0  0  0  0  0  0  0
    4.3667    9.4324  -24.4722 H   0  0  0  0  0  0  0  0  0  0  0  0
    5.4784    9.4671  -25.8827 H   0  0  0  0  0  0  0  0  0  0  0  0
    4.6961    2.7157  -22.0177 H   0  0  0  0  0  0  0  0  0  0  0  0
    4.8749    4.3470  -22.7481 H   0  0  0  0  0  0  0  0  0  0  0  0
    2.8422    4.4525  -17.0902 H   0  0  0  0  0  0  0  0  0  0  0  0
    2.2276    3.8694  -18.6009 H   0  0  0  0  0  0  0  0  0  0  0  0
    3.4263    3.9252  -20.3698 H   0  0  0  0  0  0  0  0  0  0  0  0
    5.9779    5.1865  -18.2914 H   0  0  0  0  0  0  0  0  0  0  0  0
    4.9143    5.2110  -16.9246 H   0  0  0  0  0  0  0  0  0  0  0  0
  1  2  1  0  0  0  0
  1  3  2  0  0  0  0
  2  8  2  0  0  0  0
  3  9  1  0  0  0  0
  4  5  1  0  0  0  0
  4 10  2  0  0  0  0
  5 17  2  0  0  0  0
  6 11  2  0  0  0  0
  6 16  1  0  0  0  0
  7 12  1  0  0  0  0
  7 16  2  0  0  0  0
  8 18  1  0  0  0  0
  9 18  2  0  0  0  0
 10 20  1  0  0  0  0
 11 19  1  0  0  0  0
 12 19  2  0  0  0  0
 13 14  1  0  0  0  0
 13 21  2  0  0  0  0
 14 22  2  0  0  0  0
 15 17  1  0  0  0  0
 15 20  2  0  0  0  0
 16 21  1  0  0  0  0
 17 22  1  0  0  0  0
 18 32  1  0  0  0  0
 19 32  1  0  0  0  0
 20 33  1  0  0  0  0
 21 27  1  0  0  0  0
 22 27  1  0  0  0  0
 23 26  1  0  0  0  0
 23 29  1  0  0  0  0
 23 31  2  0  0  0  0
 24 28  1  0  0  0  0
 24 29  1  0  0  0  0
 24 30  2  0  0  0  0
 25 33  1  0  0  0  0
 26 27  1  0  0  0  0
  1 34  1  0  0  0  0
  2 35  1  0  0  0  0
  3 36  1  0  0  0  0
  4 37  1  0  0  0  0
  5 38  1  0  0  0  0
  6 39  1  0  0  0  0
  7 40  1  0  0  0  0
  8 41  1  0  0  0  0
  9 42  1  0  0  0  0
 10 43  1  0  0  0  0
 11 44  1  0  0  0  0
 12 45  1  0  0  0  0
 13 46  1  0  0  0  0
 14 47  1  0  0  0  0
 15 48  1  0  0  0  0
 25 49  1  0  0  0  0
 25 50  1  0  0  0  0
 25 51  1  0  0  0  0
 26 52  1  0  0  0  0
 26 53  1  0  0  0  0
 28 54  1  0  0  0  0
 28 55  1  0  0  0  0
 29 56  1  0  0  0  0
 30 57  1  0  0  0  0
 30 58  1  0  0  0  0
M  CHG  1  30   1
M  END
> <OMEGA_C>
G6goQDlvcMC0FIrBs6EWQFwjLsBxZpHBy/p1QBMcj8A944rBbPr6QNq3+0C4NbfBEBQCQcX+z0A4
2bXBm3HUQPp8+b539rXB5xrBQHfDND9mo6XBD4lRQBXxGcCLlpnBsYmYQCzfhMC7/5LB3KbYQIY3
BEHjzr3BxOXFQICm17/1arHBdAmzQCbOAL9IAKHBk3YFQUra/T+DQ7rBdsAJQTrvWECC+rzBP9PI
QJfjvUAYt8HBsiPSQF9LNj+vH7DBqXvqQBBXsUDoB7vBmuuPQB1yR8AmXJrB1Cm1QM4F27/79KbB
7Wy/QLQr6UBNKsPBPKzkQDCw9j9ezrTBJFvxQIf+g0ApcLnBbZKtQGBRh0BaWqXBcv6DQGgMkEBd
/ZTBznuTQBFlD0FVfsvBNZ6qQDopZ0DWjbDBEFbVQAsaTkBl77TBQXU+QGcsiEC1fZDBWlmIQFCK
hkDZKJ/BzJKiQJMvoEDiHI/BVGvPQAzIlkAIMaLBTEWsQNwAPsDTzqLBJFKdQCZS8kAx1MnB0nD2
P2MFgMB93oPBhhO3P9OsCsBmvZDBW/uBQCx/qMC5SoXB5xoHQdDFCUElNLPBrU8PQZ4MxkAv4bDB
nHPhQPiq+L6n973BHt2+QMtq0D8LLaHByfdCQCW/z79pQp/B5B62QH+UlsAWmJPBW33RQGQBFUFK
zL7Br4nHQNpbJsCg/rXBHKumQCGaAr/+7pjBno4PQWsQkj8fNrzBlcIXQWpZcUBcA8HBA/y1QMfp
pUAcyMXBIMlvQBjNEEGj6dDB0ruLQB/rFkERx8PB9E6vQF55F0HPD8/BMkaWQOnNLUA9JLDBPP+b
QKUai0Aj/LXBP+Y1QLh6jkCiuIjBaZEOQNCkd0CpzpTBPkhbQB42e0BE9aLBIEu/QC74pUC+VJLB
80GdQMnApkCPZYfBjJ0oQIo0cMA67YnBR9F2QEdSjsCfkIrBGf0VQAYKL8BfYZHBatr5QDpU/EBQ
8rXBS3L/QEUC0EC/frTBwsjUQMfS8r4s0bXBNijAQOEkPD/XrqXB4Q6ZQIEBhMDHppLBCEFRQKt7
GsDMhJnBj+TeQDKyBUHEJr7BjH/GQDj91b/zMLHB5F+yQHHV8r6f9aDBr68EQfV9AUA1l7rBmIsI
QQ1zW0D9hb3BffDNQDHmwUCAMcPBwK/RQANqPD8CILDBfyfpQEb+skChF7vBYTaQQC+aRsCkIJrB
m021QMh+2L/CxabB52zJQPIH7kAp2cTB44LjQOTO+j809rTBSRzvQEMphUBh1rnB2eysQEPPhkCG
aaXB1YeDQIJDj0AmCZXBfniGQFbMBEE4mMnBc2OpQDeJaUDexrDBeb/TQLcbUEAGMLXB/P49QGWT
hkDCg5DB2JWHQFzuhkCWRp/BNfmhQHaqn0CWKI/BW5fPQHVKk0D3/KHBYeesQD26PMCjgqLBQCew
QMAU/ECkDs3Br/b1P9b4f8BsvoPBmaqCQB8/p8CP3ITBn0m0P7KzDMD23JDBJBgFQSpbCUGIyLDB
kF0KQfRHxEAWWq7BeTbiQLdV9r4rx73Bgk69QBy/1D85T6HBjui2QCJQlcDOI5PBMUZCQA1Z0r/P
Rp/BZ6XaQHqvFkGbUb/BGbbIQAjjJcAkrrXBPp2lQKpH8r4S7pjBy+sOQQH0lz+FhLzBd0EWQcb4
c0Dpy8HBYIy8QNB/q0C0IcjB+J1nQM48CkHvitDBHNVrQF2g7kCuvcXBb8GJQBEFEkE22MPBRWuU
QEoBMUAvn7DBd1KbQGdbjUAUALbBook1QIh5jEAjuYjBb1sOQE0DdEDF1ZTBqyBZQEqNf0CDK6PB
bFW+QL2YpkAdb5LBIOmcQJJJpUCkYofBLxkrQDIsc8DCA4rBvlEYQIPSMMDrS5HBcX94QE9bkMCA
7IrBlnn5QIY8+0DVqbbBlZ4BQduKz0DsfbXBEH/BQJUFLz8wmaXBL4PUQL0cAL8C/rXBgplSQBw+
HMAbipnBhH2ZQMDqhcCAFpPBgAvXQHX6A0HDOr3BMVmzQNH4Br+UAKHB8eDFQFp+2b8FfbHBmLEF
QWi3/D/HIrrBf9AJQVp9WEBL4LzBUDrIQJ97vUAldcHBeXTSQLm2MT+yF7DB8wzqQF7osEBj1brB
WYSQQN1kScAiZ5rBMla1QPCj3b9fAqfBGUK+QEO46EA0ucLBIADlQBCH9D+yvbTBRz/xQJaGg0Dg
XbnBcoatQGPhhkAcXqXBfu2DQFpokUA7E5XBIr+RQPEdD0H35crBcomqQAgqZUC0grDBFlzVQCK6
TEDY5bTBxKA8QEjcjED1upDBqkSIQCzdhkAQL5/BeWajQJ7dnkD0EY/BHmHPQMSKlkA2RqLBUJGs
QKKCP8At56LBYRmcQLTQ8UBfX8nBYV38P1WBgcDJwIPBaEG6P9WcDcC/kJDBwICDQLjNqcC0XYXB
5ioGQQeECUFhibLBpeMOQZSaxUD3i7DBA2C/QDo6zT+CGaHBlWThQEIo/b50Ar7B0XJDQLRK1L/X
Lp/B2xu3QHOFl8CLwpPBXXnPQCrAFEH0Fr7BVAenQLXLCb8r7pjB80zHQLAQJ8DIHLbBE+8PQWKM
kT+NBrzBDcoXQbxIcUBP58DBULC1QNOLpUC4n8XBaVNsQKB/EEFBUtDBPsOJQPZkFkFvI8PB62at
QORzF0GbZs7BtYqWQA9gK0BI/a/BJImbQMasiUDv/bXBoSs0QEeek0CG+4jBiFULQKScgkCCJJXB
2xNbQCFRe0Cg7qLBmdXAQMicoUAHIpLB+AyeQPNqpkB6aYfBlzcsQFgmdcBS/YnBiX95QFhpkcCy
8orBxEgZQJHBMsAqQpHB+mT7QPwL+kA4DrbBULgBQQP0zUAIObXBptbAQN+/LT/KlqXBfuXTQGs1
AL+a/7XB8e6ZQEXlhsA/H5PBEnBTQLoGHsCogpnBGU/aQNN0BEGqvrzBRzuzQIPDCb/E+KDB28/F
QIgy2r+ZebHB7B4FQf4O/D+PMrrBcDMJQe/HV0DpF73B5fTIQDqRv0AHrMHBMI7RQKe6MT8nG7DB
1cDpQAPzsEDF9LrBo/mQQMwGS8BeZZrBRH21QIAP3780+qbB4/XAQCdz60ANrMLB2trjQGa+9D9p
zLTB1uXvQHlMg0Dht7nBFSqtQMjohkBRZKXBLrKDQAznkUDTFJXBJOiTQAzPEUHXccnBnLmpQCBG
ZkB/mLDB3DLUQBnpTEBJEbXB8jA8QKyAjUDst5DBZ/WHQB4vh0BrLp/B/S6jQHeRn0BNHI/BgUjP
QCbwlUBkSKLB7iytQMZwQMAY3KLByzGgQEYy90DOgMnBzAj/P2N1gsB4s4PBygGEQHb3qsDya4XB
DyC8P4SeD8DHgpDBPkcHQd1DCEFPkrHBQ5IOQRhnwkB4OLDBHHu+QHKCzD/bFqHBVZbgQFlX+77R
CL7BS3+3QBGRmMBw1ZPBdSBEQG/V1782JZ/B0SfUQMNpFUGNYL3B5R2nQP+fDb+B4ZjBPX7HQH1k
J8A1GbbBP2MPQWSikD/j/bvBeTMXQbM7cECqIcHBwsi1QKDjqEBtF8bBg3BzQNFXFEHgL8/BGB2J
QOJQFkGfYMHBMYKvQDi8G0ERucvBFUuVQCoRLUAGIrDBBv6aQLOzikAS/7XBhMkzQJ2GlEAJ/IjB
F94KQBIag0BsGpXB/FFaQM0XfEC+6KLBZJTAQNNZokCsMZLBGeKdQEM+p0A7dYfBo5gsQLq2LMBh
B4rBVcALQKbKKcASiJTBi5uCQJ03N8A5V4jBqKK+QBFF5ECkccPB+nLMQIWKuUB9x8LBYHvyQBNL
Z74eWajBl8C0QADnoTmdOrTBx35DQBR4McD3WZ3BkYOeQLbhPsD8JpHBbDjKQDbxAEE4c7vBlVjh
QNBQtr9iSKTB3r+jQBqPmb/2NLDBY30KQeM/+z+okbjBuC8MQbl4WEDYqrvBpwn1QHQXy0Cur7LB
XN7bQAN1/j4vN7DBNmXnQGTrrEDWV7rBMSuOQI7MO8B9rpvBPcy5QBAr9L/6JajBQxflQKIw9UD5
2LLBPPrsQOMb4j9BNbTBTG3yQPKRf0A7ArnBRh+tQETggkCgNqXB4SeCQOjxlECSdZXBy9DfQPWW
HUH4n6rB5iytQPY+UkCu1q/BhyrZQBB2QEBJeLTBTvtEQC51iECmZ4/BIDOJQMslgEBMe57BS/6X
QI2jtkAgc5LB6VfLQGwVmkDQ+qLB4lWpQG+tRcABSKTBvVDwQK3yB0HJaKrB3d0BQNrnJsDIRoPB
msaPP/KrIcDX0ZXBTiuPQBZkOcDWS4DBFharQGVu7kC9GcrBS2rCQPOHokC+t8jBgG8IQTyPDj4n
c6XBF+GjQEr4Cj8QZbrBE0IqQJdzL8AWZKXBC27AQLIeR8CY2Y/BZZ2+QJcyEUFs3bvBjnTyQI/E
/L/sM57BUdSFQG8yyr9BSLPBub4WQRsNmz+Ui7nBzNoZQc7EdkD8Wr/BCPcFQUbQwUC1pKzBXx3r
QJJQJkEHhqPBUynrQHW9JUHv47HBSKC8QOUoHUGJoKrBul6dQNF3FEB+W67Bt8OaQGOvdkAlzLXB
XR83QDh/mEDfs4jBJlQiQMG0XUAneJHBpFJkQAr6V0C0z6DBH36vQNPwwUA8FpfBNSqRQCEPxUDb
g4vBFWRCQI29RsCMIonBn2yHQEhGF8By0InBalonQDLdeMAR4ZHBGoKrQCfF4UCQT7zBOlC4QATD
tkD6vrzBZbzzQNhm476RcKrBVbawQDpZub3tJLTBRhWgQI6eGcAtPpPBNeBYQHrIe8BSTJvBV3TG
QPZJAEHhnbfB+vPjQDdu1b/eiqbBRM6gQH4sp79KK7DBu9oHQRf78z9v5bnB+tEIQY6fVkBlHrzB
Zqj7QKhSyUDS9bPBm+jZQFTWsz42JLHBf1XgQKCEqkDhjbjBwJeSQLvfS8CcFpzBpja6QNyuBcBa
Q6nBlePuQEKE9EC4WrPBmXzpQLtn0z8Az7TBRmLsQI2pekAjW7jBrNmuQO8UgEBXyqPBB7eBQA8r
oEDpyZXBErf9QNzHHkFDCq7BlwSsQCxXRUDSva3Bt4bVQLdPOEA6yLPBQOs1QEIAokCs5ZHBOEuI
QK1/iECJW57BMrufQNxgtkANDpHB0JDRQEvhjUDdvaDBzWCqQBHmUcA4aaXB/GgFQV6RCEHTf67B
730cQCe5RMD36YHBadWRQDsf4r/9GYPBpT/ZP+aJjsDGXJHBR/OMQCw760C1lL/BDISjQPkTn0Av
SsDBxsMJQfJS7L0pTqjBPXGdQJicAT8bf7nBK1m9QEEm6r8xv5PBfVFEQKhwkcCQ8aHBzFy8QKHM
EEGgP7fBVcD3QGw7EsDEd6HBmi2BQLsE0r9uZbLBgfUTQbSslj8q5rvB/MsVQRUaeEAp/7/BG0MN
QZ/Lv0Cu47DBHlILQTpBKEHrBKrBlvj4QDbgJEG7NbbBopHfQOsUIEEyi6nBtJigQM87BkCUFavB
J6GUQLF5YUB6TLPBSsUpQHIKtEBnd4vBWLwGQDldkUBcWZXBCX5cQEYfdUCpbqHBPJm9QN31tUC1
7JPBac6YQLLFx0AikYrB

> <OMEGA_E>
UA+oPkhwqj54fKo+wFuvPkYBLj/E7lI/

> <OMEGA_NBR>
     15680

$$$$
50146790
  -OEChem-04172616093D

 58 61  0     0  0  0  0  0  0999 V2000
    2.6028   -3.7717  -17.3222 C   0  0  0  0  0  0  0  0  0  0  0  0
    2.3142   -2.7394  -18.2390 C   0  0  0  0  0  0  0  0  0  0  0  0
    3.8165   -4.4784  -17.4206 C   0  0  0  0  0  0  0  0  0  0  0  0
    6.7570   -0.4428  -22.6672 C   0  0  0  0  0  0  0  0  0  0  0  0
    6.0870    0.7061  -20.6206 C   0  0  0  0  0  0  0  0  0  0  0  0
    6.1617    5.8477  -24.3647 C   0  0  0  0  0  0  0  0  0  0  0  0
    7.9683    6.5253  -22.8550 C   0  0  0  0  0  0  0  0  0  0  0  0
    3.2360   -2.4153  -19.2588 C   0  0  0  0  0  0  0  0  0  0  0  0
    4.7386   -4.1533  -18.4338 C   0  0  0  0  0  0  0  0  0  0  0  0
    6.2640   -1.6472  -22.1505 C   0  0  0  0  0  0  0  0  0  0  0  0
    5.6093   -0.5116  -20.0912 C   0  0  0  0  0  0  0  0  0  0  0  0
    5.9357    7.1871  -24.7002 C   0  0  0  0  0  0  0  0  0  0  0  0
    7.7277    7.8674  -23.1743 C   0  0  0  0  0  0  0  0  0  0  0  0
    8.4557    2.0715  -23.0845 C   0  0  0  0  0  0  0  0  0  0  0  0
    8.6357    3.4695  -23.5012 C   0  0  0  0  0  0  0  0  0  0  0  0
    6.6655    0.7372  -21.9102 C   0  0  0  0  0  0  0  0  0  0  0  0
    7.1921    5.5239  -23.4621 C   0  0  0  0  0  0  0  0  0  0  0  0
    4.4643   -3.1173  -19.3518 C   0  0  0  0  0  0  0  0  0  0  0  0
    5.6847   -1.6994  -20.8678 C   0  0  0  0  0  0  0  0  0  0  0  0
    6.7254    8.1942  -24.1165 C   0  0  0  0  0  0  0  0  0  0  0  0
    7.2277    1.9667  -22.4700 C   0  0  0  0  0  0  0  0  0  0  0  0
    7.4822    4.1381  -23.1854 C   0  0  0  0  0  0  0  0  0  0  0  0
    5.4423    4.2183  -20.6166 C   0  0  0  0  0  0  0  0  0  0  0  0
    4.1305    4.5208  -18.5866 C   0  0  0  0  0  0  0  0  0  0  0  0
    6.1131   10.3522  -23.4152 C   0  0  0  0  0  0  0  0  0  0  0  0
    5.3355    3.5876  -22.0110 C   0  0  0  0  0  0  0  0  0  0  0  0
    6.6670    3.2219  -22.5709 N   0  0  0  0  0  0  0  0  0  0  0  0
    2.9841    4.2461  -18.0325 N   0  0  0  0  0  0  0  0  0  0  0  0
    4.2670    4.2598  -19.8647 N   0  0  0  0  0  0  0  0  0  0  0  0
    5.0799    5.0229  -17.8424 N   0  3  0  0  0  0  0  0  0  0  0  0
    6.5222    4.6291  -20.1981 O   0  0  0  0  0  0  0  0  0  0  0  0
    5.3446   -2.9651  -20.4100 O   0  0  0  0  0  0  0  0  0  0  0  0
    6.5126    9.4910  -24.4953 O   0  0  0  0  0  0  0  0  0  0  0  0
    1.8940   -4.0196  -16.5459 H   0  0  0  0  0  0  0  0  0  0  0  0
    1.3848   -2.1948  -18.1609 H   0  0  0  0  0  0  0  0  0  0  0  0
    4.0400   -5.2691  -16.7198 H   0  0  0  0  0  0  0  0  0  0  0  0
    7.2079   -0.4209  -23.6483 H   0  0  0  0  0  0  0  0  0  0  0  0
    6.0107    1.6140  -20.0408 H   0  0  0  0  0  0  0  0  0  0  0  0
    5.5502    5.0683  -24.7949 H   0  0  0  0  0  0  0  0  0  0  0  0
    8.7425    6.2628  -22.1492 H   0  0  0  0  0  0  0  0  0  0  0  0
    3.0054   -1.6334  -19.9672 H   0  0  0  0  0  0  0  0  0  0  0  0
    5.6654   -4.7025  -18.5092 H   0  0  0  0  0  0  0  0  0  0  0  0
    6.3289   -2.5478  -22.7431 H   0  0  0  0  0  0  0  0  0  0  0  0
    5.1872   -0.5409  -19.0975 H   0  0  0  0  0  0  0  0  0  0  0  0
    5.1586    7.4465  -25.4040 H   0  0  0  0  0  0  0  0  0  0  0  0
    8.3050    8.6491  -22.7031 H   0  0  0  0  0  0  0  0  0  0  0  0
    9.1619    1.2681  -23.2339 H   0  0  0  0  0  0  0  0  0  0  0  0
    9.5132    3.8910  -23.9689 H   0  0  0  0  0  0  0  0  0  0  0  0
    5.9616   11.3729  -23.7962 H   0  0  0  0  0  0  0  0  0  0  0  0
    5.1743    9.9810  -22.9783 H   0  0  0  0  0  0  0  0  0  0  0  0
    6.8978   10.3614  -22.6443 H   0  0  0  0  0  0  0  0  0  0  0  0
    4.7194    2.6790  -21.9417 H   0  0  0  0  0  0  0  0  0  0  0  0
    4.8527    4.3073  -22.6885 H   0  0  0  0  0  0  0  0  0  0  0  0
    2.8455    4.4201  -17.0575 H   0  0  0  0  0  0  0  0  0  0  0  0
    2.2426    3.8611  -18.5820 H   0  0  0  0  0  0  0  0  0  0  0  0
    3.4223    4.0659  -20.3636 H   0  0  0  0  0  0  0  0  0  0  0  0
    5.9724    5.2303  -18.2431 H   0  0  0  0  0  0  0  0  0  0  0  0
    4.9140    5.1999  -16.8723 H   0  0  0  0  0  0  0  0  0  0  0  0
  1  2  1  0  0  0  0
  1  3  2  0  0  0  0
  2  8  2  0  0  0  0
  3  9  1  0  0  0  0
  4 10  2  0  0  0  0
  4 16  1  0  0  0  0
  5 11  1  0  0  0  0
  5 16  2  0  0  0  0
  6 12  2  0  0  0  0
  6 17  1  0  0  0  0
  7 13  1  0  0  0  0
  7 17  2  0  0  0  0
  8 18  1  0  0  0  0
  9 18  2  0  0  0  0
 10 19  1  0  0  0  0
 11 19  2  0  0  0  0
 12 20  1  0  0  0  0
 13 20  2  0  0  0  0
 14 15  1  0  0  0  0
 14 21  2  0  0  0  0
 15 22  2  0  0  0  0
 16 21  1  0  0  0  0
 17 22  1  0  0  0  0
 18 32  1  0  0  0  0
 19 32  1  0  0  0  0
 20 33  1  0  0  0  0
 21 27  1  0  0  0  0
 22 27  1  0  0  0  0
 23 26  1  0  0  0  0
 23 29  1  0  0  0  0
 23 31  2  0  0  0  0
 24 28  1  0  0  0  0
 24 29  1  0  0  0  0
 24 30  2  0  0  0  0
 25 33  1  0  0  0  0
 26 27  1  0  0  0  0
  1 34  1  0  0  0  0
  2 35  1  0  0  0  0
  3 36  1  0  0  0  0
  4 37  1  0  0  0  0
  5 38  1  0  0  0  0
  6 39  1  0  0  0  0
  7 40  1  0  0  0  0
  8 41  1  0  0  0  0
  9 42  1  0  0  0  0
 10 43  1  0  0  0  0
 11 44  1  0  0  0  0
 12 45  1  0  0  0  0
 13 46  1  0  0  0  0
 14 47  1  0  0  0  0
 15 48  1  0  0  0  0
 25 49  1  0  0  0  0
 25 50  1  0  0  0  0
 25 51  1  0  0  0  0
 26 52  1  0  0  0  0
 26 53  1  0  0  0  0
 28 54  1  0  0  0  0
 28 55  1  0  0  0  0
 29 56  1  0  0  0  0
 30 57  1  0  0  0  0
 30 58  1  0  0  0  0
M  CHG  1  30   1
M  END
> <OMEGA_C>
sZQmQCZkccDGk4rByxsUQE5SL8CM6ZHBWkF0QClPj8B3XYvBVTnYQLC04r5WVrXB9cjCQOTAND/8
9qTBQyzFQHggu0Db6sLBDfz+QGLP0EDy1rbBAxpPQB+UGsACEprBk6KXQIbnhMCAeJPBCXPIQNjY
0r8rNLHBu3+zQI75Ar/KuqDB7/C9QOr85UAWmsXBakn3QKDB+0DoZLnBiEoHQS+TBEAWrbjB2SsK
QXwMXkB7ArzB/UvVQG64PD8JSK/BACbmQM3DsEBJsrvBkduOQHKBR8Bn0JrBz+i1QPyF2b9Q8abB
vTbXQH4bA0GC7sDBNknnQB6++z+gwrPBOG7vQGVrhEC4e7nBFSeuQIr8hkDZ7qTBWC2EQJ6qkEBW
sZTBjp7DQLSiJUFGUrvBWryqQKSbZUB+FrDBR1jVQBkzTkBKkbTB6/s+QMHfh0B4QpDBiYuIQApQ
iED56p7Br46iQOK7oEBVvY7Bh7XQQKYhlECqlaHBqQarQHnDPcC7R6PBDGfQQAHbF0Fe9sPBqG7y
P7CggMAQXoTBZEKxP393DMCZSZHBxUeBQIucqMAOwoXBwqbmQKN81765L73B1FfAQEWYzj+BU6DB
NZuxQKAvokDeW8bBPeELQaVoyECdMbHBHlhAQH0S0b/UvJ/BWku1QON6lsDcEpTBsYbKQLUOI8Dq
8bXBuP2lQDp3Cr/Hx5jBiBOlQPVJ7kB6O8vBdeEEQbBiCkHpn7XBGpcSQQ1Soj//3rnBKDYYQYEF
eUBVwL/BlcW+QI33NUGmXr7B6JOlQAGyH0Gn07fBh7rcQHHIJUGQJ7XBWgWXQFt0K0CyiK/B6kib
QB3ViUD6gbXBbB02QDhxjUDIdYjBK4cPQKwcd0Dvp5TB9gZbQAYcgkCc6KLB5x2/QFNep0DJ8ZHB
2D+dQIZlpkB8+obBTpIsQK54dcDF+4nBhHJ6QGcQkcDq8YrBfaIYQCx3M8BFRJHBWsTWQJ9VAr90
pLXBZZ/BQIoQKz/yYKXB7iDHQDyyv0Dx18HBuB4BQf73y0BLZbXBlhqaQCxihsAOK5PBVEJSQMhV
HsCEj5nB0t3HQF8I278ZSLHB8UCzQDZXDL9F6KDBGhHAQJ/o60DsdMLBv8/6QA4P+ECf3LXBMs4F
QfvB/T+U07nB+iMJQUArWECbFb3BUYjTQG5JLz93xK/B0SDoQNMHsECZSbvBPYyQQDqoSsCKeprB
efK1QL/m37/586bBUtjZQFE2BEHdWbzBOCTlQEk19D8Ne7TBypDuQHWLgkAxILrB9S6tQLixhkCT
ZKXBgdODQAElkkBYEpXBEpOzQKmuIkGmMcPBfbGpQI4cZEC5hLDBkBrUQAhzS0DLFbXB7yk8QHl3
jkAyvpDBwiiIQPWghkAkHZ/BgXujQCBUn0DeFo/BM+jOQH8kl0CWd6LB6gasQHLVQMBoFaPB6pDU
QPwoGkFOWbzB0iwAQJDcgsBBroPBA++EQEVbqsCoYYXBYCK6P8ryEMBpf5DBBMjkQD+C/74sir3B
3e++QF3xyj8Z3qDBDmOzQCTbqUBwXsbBQPYNQZ57v0Cdh7DBaOO3QLOsl8Bo45PBSElCQA3q2L/w
Mp/BCyXKQA7CJ8A/5rXBITymQDXsEL+x55jBAhenQAZV+ECYjsfBezgHQUHQBkHOObHBAo4QQU9R
lD++WrvB7xQXQZSrcUBdEsHBV8GyQH42NEHIcMLBsGG6QE9PHkHki8vBR2iUQKsFHEHB0cDBNsOV
QAlQKkD836/Bn1OaQDMAiUCs+bXBLcMzQIKqlUDkBInB754KQLpxhEDlJJXBJARbQPv6eECivqLB
cAzBQCYToUBIHpLBRCSeQPWrp0B4e4fBD6B6QBKDTMBvmITBSVenQBXyNMCVZYfBtJ4/QNLfY8Br
nYzBTHzWQKh5Hr+fFLfB7kPKQLQs9D4F6KXB534CQd3rykCxaLTBVdXFQPoBukBbHb/BQtGzQFfM
NMBlNpLBUqtXQPrxYMB7eZfBm7vCQFjL5L8NLrPB7lW1QH07Kb/DLKLBsaz5QBhi9kA9ibTBjrK6
QF6D5UD+V7/BlC0KQfMC9D9l/bjBXeoMQUe6VUByW7vBKD/aQNJNAj90YrDBdd3qQJi+rEBJm7nB
IHuVQF0aR8CtXJrBPqCyQKJC6r+on6jBm1LUQIEKAkECDrrBCcLsQKfG3z9JWrTBqn30QBaffkB6
jbjBwOOsQPDehEC4faXBxY6AQKJslkCL3JXBEBjiQEjmJkGfOLXBCdutQIrSUkDg3K/BOljaQMt3
QEAxMrTBQnU+QEb0ikDLP5DBOhaJQKsagUD5uJ7BmQyXQGcXt0AqfJLBEmrJQI3pnkCcv6PBxouf
QG+2QMBYJaXBtIPHQNBEF0FKm7rBxVdnQN6wTMDTmHjBLvK9QIYGI8DWQYHB7bn/Pw8OeMA1borB
wq/iQDBuFr8JKb/BnC3OQBmtqj8qvKDBydcQQdStwECmVLDBOQuyQCy8okCcJ8PBJ5TUQH63JsCi
U5TBMzAqQHSJcsAFmZ3B4eK/QN7kKcDlR7jBEwenQPTfJ79pT5rBsbQGQcTABkFEbbDBDlyeQP+k
70B0l8PBg6AVQaK6jz/mmbrB6QQbQdt2c0CFsL7BB1DUQG3zNkEeTLbBAaXjQKMaI0ESo6zBMEMB
QaWDJkEQo7jB4jaeQPREFUAxJa7B9ribQM/9dEBXFLbBEycvQPL8mkBxmInBe7gaQCxGZED0mpLB
xX1mQAvaVkCf6qDBpFCwQJkuwUBespbBL/aOQGfzxUDHsYvBXIR7QEk1R8A2BoXBOExBQHg9KcCP
yozBYrWmQFTRY8C3IojBUgLyQAdEBr9LsKvB3mKsQK4sMj5JgbLB6EgCQdyeykBSnbTBtTTFQPSZ
uUANO7/BUO5YQDD9J8B6rZfB74eyQJ/BYsDDA5PBan/fQKcO3L/F7qfBAp6ZQAVFfb/iZ67BMFv5
QMMd9kAiyrTBwzi6QCwn5UChhr/BEPcJQVZ68z9nCrjBTboMQSLcVEBWtLrBXCjYQDSu5T75trDB
4T3qQPdVrEBJubnBHnyVQGexRMAszprBXg6zQJDR97+aD6nBGvLTQCrkAUFCSbrBN/DqQNQ83T9W
LrTB14DzQPmkfUDzfrjBdqysQIrbhkBIcaXB/TqAQGHIl0AbzZXBSJXhQOTBJkHebLXBS/asQNCU
VUC5k6/BZLDYQEbyP0CFO7TB96Y9QBwCjEBlQZDBoPiIQFXIgkBHq57BfKSWQEJjuEAiYZLBdFvJ
QH/AoEAnw6PBwKKgQGxYRsA4daXBGiXHQJEfF0Gl2rrBl1xpQM4+SMCWYHnB1J4CQIpAE8CmZorB
HQS9QEmMesD0LYLBp/QJQcWGtL5LuqrB6TuZQPguXj/ZE7fBbKwQQWVrwEAEkbDBBEqxQC5MokBY
OMPBzlQsQLIXEcAnoJ3BC9jRQPr2eMDpZJXBrkrzQD4cHsCQL6TB9GJvQJxNlL8sWa/BVZwGQfCj
BkHiu7DBSuqdQHpF70DsycPBz+QVQX6FkD/h8rjBlg8bQdNMckCV073BmNHTQJzONkFjhbbBQOzi
QFn1IkHZ1qzBmwwBQe1gJkFryrjBP+KcQHH1GEDJnK3BxqKaQARkd0D+ybXB8O4tQNDOm0DxlInB
RjcaQMhiZkDIrpLBAZNmQCT5WUAt46DBj+6vQH6UwkAjkZbB4HuOQPkdx0CUk4vBuW4NQJw8S8CX
T4/BrXspQLTB/L8qB5TBvQw7QCbZi8C3FZHBW8HsQMjljruuKabBmlvAQH4H6b5W5LXB5m71QK2C
yUADxbXBNv6vQHG6s0D44rzBYhxzQJiM+7/4hJrBF2WCQHGzi8CHk5fBI8HfQGXBnL+CoaHB2mSz
QFaX1r/RXrHBPnznQJou9EAUaLXBXCKiQG573kBUpLzBLEwGQfyK9j8YCrvBquMFQW5LV0A/o73B
LibdQNEsvz4WS7DBeKLZQDBOqUBzcLnBN9aQQFrSSsBOW5zBVf7CQCLHA8ApOafBcJC9QH8S/0D2
4bjBb17pQPNf1D+vzLTB8nLnQBt+eUAIHLnBYo6vQO2Jf0BDfqPBMaeEQHHHoEBALpXBSxLKQE3r
JEFu4LTBxcqrQHTlQEBUGK3BTP7TQIPrNkAItLPBCu49QIS3oUDeqZDB6xiKQHejh0D9ip3Bbbui
QDZGuUAIPZHBPy/SQCn9j0CuOKHBlHG1QPM0T8AKq6LBOtetQHdOFEEK0bjBbeKpP26US8AUVYrB
YHcGQAaVh78wqpLBNnolQNNQqcDjdo3BlE0BQZMBJD8V5qHBe0+0QDKwHL7znr3BsbsKQa9rwUAH
PLPBoMWaQKbmmkAZtr/BijOEQGJXhb9qH57BMr2TQDMeqcB355jBhL3rQIP9wr8z45nBi46dQAmF
FMC3pbXBbK78QJdqBkG0ebLBE0yCQHN35kC6WL/BQD4SQbk/mz+mkr3BaLMRQaKleUCmQcLBYKa5
QHN3NEEzRbXBiN/SQARzIUHkiKzBviPnQD10JUEU1bnBegSjQBeJAUDY8qnBNTeSQOFTWEBkYrLB
VYEzQBnLtEDDX4rBkqgOQLJbj0DVfpPBmvlfQETyb0DnAKDB+Me/QNyXuUDPl5TBZKucQK2sy0AC
34rBYqYNQJXCR8Cbqo/B1rgGQDd8V8AavprB37leQCAtOsAqAovBxffrQKB6u7umEabBAam/QERK
574Oz7XB1sz1QINyyUCivLXBZ2SwQP7cs0Db57zBFN5QQP7AWcA7KqHBmXaUQHJpPMDqa5HBcp/e
QHx7nL8LhaHB8lqyQAyt1b+RQ7HB8PLnQDko9ED5XrXBsKGiQP2m3kAuqbzB00MGQQaA9T/A97rB
pfoFQZfNVkAalL3BTp/cQDa+vj4sObDBTfjZQB9PqUB+brnBQBKRQNT5S8DqhZzBa7jBQH+BA8DU
GKfBAhe+QEwp/0Bo37jBDC/pQLr20z99wLTBS6TnQFZbeUDiFbnBDoivQBDUf0ANgqPBcZyEQIn4
oEBfNZXBGbPKQF7xJEGD1rTBYbqrQKlQQUAlHq3B//vTQITyNkBAsLPBzMg9QG74oUA0tZDBDw2K
QJjah0D6kp3BdLuiQCZcuUDQPpHB9i7SQJoNkEDJOKHBuWa1QEeKUMCQvqLBk3OuQCZeFEHlzrjB
z62pP6oeRsDNv4rBUjWRP9/KYcBbTp7B3PpjQCcPLsATh4LBu/EAQaTNIj+Ly6HBX7qzQBg7Gb6K
jL3BJ+UKQcxGwUAgL7PBsCObQCUam0BxwL/B54VLQFcJZsAkpKnBYIGzQG43MsAI2I3B+XnqQEee
wr/+wpnBU2ecQOzHE8Dji7XB4iv9QEFfBkEha7LB0tiCQA655kBUY7/BJy0SQVTCmT9ter3BcNwR
QcHoeEA5LsLBxFi6QAWCNEGMPLXB8GHTQHVyIUGsfazB8tTnQD51JUFExbnBYruiQKkHAkCX/KnB
GUuSQAUSWUBbbbLBxVwzQGwEtUClaYrB3nYOQE6wj0DdjpPBjtZfQN2IcEAgDaDByM6/QFibuUAC
lpTB5KycQFXAy0BK4IrBfaajQCYEYMDIN4LBgmGxQGsJEcCHXobBWOmVQFeekMCyMonB6s3zQOgr
gL7kGqnBSPuzQB6fWT3pJbTBxbIAQf+jzEC+p7XByCDBQPTluEA3n7/BPUSxQNcoA8B0eZHB1guX
QDU6isC/WpTBh7/iQNV3ub/EJKXBN12iQKkNkL/18K/B9wX1QLHI90CO/rXBgv60QL8e5ED/GMDB
FsEKQeno/j+/WLjB52gMQf5TWkD3UrvByArcQLNXAz9ndbDB0ULnQPMzrUAJYLrBwHWlQO0YRsCa
ppjBO/S4QOd87b9wI6jBr5nOQHP2AUE2RbvBpRztQJ1O5D+nSLTBhDDyQLYsgEB2CLnB7+SsQDdF
hkDTmaXBON+BQNBdmED/xpXBLuvaQO02J0Gw9LbBI0itQMPyUUD6oa/BHQnZQLckQUD2gbTByvFC
QMGWjEA/34/B/gOKQD1cgkDyi57B+t6XQLvquUC9xJLBxPLIQKMxoUBLR6TBdqqlQPAyPsBnw6PB
FK3AQIH+FkHQALzBxKKjQAquasDYXHPByAK8QN0dvr92BoHB7HmKQFaarsCu/YXBmH8JQQrCrT3H
hqbB+eSiQASkGz/BNLrBSHYPQSyUw0Brx7HBoUOtQPCsoEBxRcPBbzK6QGiGir/wmpTBV82MQLaE
o8AdqJnBZnn1QB8WBMA9zZ/BuoaDQHZuvL8Dr7LB1WAEQeDrB0ESPLLBpeOXQFQV7UCuLsTB5SYX
QVOTnz8vMrnByUYaQS+FeUBmsr7BkTvMQAMIN0GBJbjBEmndQJzcI0HmVq7Bmg37QBQRJ0H/i7rB
rFqfQM7pE0D9Wq3BVi2ZQEkrcEAkyrXBDDY0QEsSnUBRRInBEA8gQPgsZkCU9JHBZw5pQCLFV0DG
b6DBMGuwQMAsxEDDNpfBTiGQQHRKyUBBBozB

> <OMEGA_E>
SNagPuDBsT4kpjg/iGpKPy5ZSz8IX1E/SO9cPw==

> <OMEGA_NBR>
     22617

$$$$
50209171
  -OEChem-04172616093D

 66 68  0     0  0  0  0  0  0999 V2000
    7.5922    7.9541  -22.8682 C   0  0  0  0  0  0  0  0  0  0  0  0
    6.5588    8.3721  -23.7295 C   0  0  0  0  0  0  0  0  0  0  0  0
    7.8937    6.5848  -22.7435 C   0  0  0  0  0  0  0  0  0  0  0  0
    6.4309    0.8190  -20.5775 C   0  0  0  0  0  0  0  0  0  0  0  0
    6.7615   -0.4363  -22.6387 C   0  0  0  0  0  0  0  0  0  0  0  0
    5.9094   -0.3282  -19.9568 C   0  0  0  0  0  0  0  0  0  0  0  0
    6.2124   -1.5815  -22.0265 C   0  0  0  0  0  0  0  0  0  0  0  0
    5.8244    7.4207  -24.4648 C   0  0  0  0  0  0  0  0  0  0  0  0
    8.5169    2.1441  -23.2666 C   0  0  0  0  0  0  0  0  0  0  0  0
    8.6285    3.5583  -23.6880 C   0  0  0  0  0  0  0  0  0  0  0  0
    6.8366    0.7776  -21.9266 C   0  0  0  0  0  0  0  0  0  0  0  0
    7.1586    5.6286  -23.4753 C   0  0  0  0  0  0  0  0  0  0  0  0
    5.7577   -1.5371  -20.6897 C   0  0  0  0  0  0  0  0  0  0  0  0
    6.1193    6.0484  -24.3411 C   0  0  0  0  0  0  0  0  0  0  0  0
    7.3293    1.9976  -22.5898 C   0  0  0  0  0  0  0  0  0  0  0  0
    7.4765    4.2031  -23.3082 C   0  0  0  0  0  0  0  0  0  0  0  0
    7.6516    7.0447  -14.4094 C   0  0  0  0  0  0  0  0  0  0  0  0
    5.4792    4.1297  -20.7110 C   0  0  0  0  0  0  0  0  0  0  0  0
    4.1578    4.3444  -18.6861 C   0  0  0  0  0  0  0  0  0  0  0  0
    3.5262   -3.8861  -16.9492 C   0  0  0  0  0  0  0  0  0  0  0  0
    6.2782    6.6024  -14.9155 C   0  0  0  0  0  0  0  0  0  0  0  0
    5.3838    3.5271  -22.1039 C   0  0  0  0  0  0  0  0  0  0  0  0
    3.8353   -3.8365  -18.4562 C   0  0  0  0  0  0  0  0  0  0  0  0
    6.4218    5.7399  -16.1761 C   0  0  0  0  0  0  0  0  0  0  0  0
    5.0322    5.3090  -16.6355 C   0  0  0  0  0  0  0  0  0  0  0  0
    4.7353   -2.6376  -18.7793 C   0  0  0  0  0  0  0  0  0  0  0  0
    6.7183    3.2361  -22.6829 N   0  0  0  0  0  0  0  0  0  0  0  0
    8.2777    8.1405  -14.9777 N   0  0  0  0  0  0  0  0  0  0  0  0
    4.3023    4.1037  -19.9629 N   0  0  0  0  0  0  0  0  0  0  0  0
    5.1768    4.6180  -17.9172 N   0  0  0  0  0  0  0  0  0  0  0  0
    2.9632    4.2217  -18.1746 N   0  3  0  0  0  0  0  0  0  0  0  0
    8.2144    6.4085  -13.5269 O   0  0  0  0  0  0  0  0  0  0  0  0
    6.5411    4.5979  -20.3032 O   0  0  0  0  0  0  0  0  0  0  0  0
    5.1496   -2.6794  -20.1719 O   0  0  0  0  0  0  0  0  0  0  0  0
    5.2125    4.8895  -25.2953 Cl  0  0  0  0  0  0  0  0  0  0  0  0
    8.1531    8.6842  -22.3037 H   0  0  0  0  0  0  0  0  0  0  0  0
    6.3292    9.4230  -23.8262 H   0  0  0  0  0  0  0  0  0  0  0  0
    8.6892    6.2657  -22.0864 H   0  0  0  0  0  0  0  0  0  0  0  0
    6.5216    1.7381  -20.0177 H   0  0  0  0  0  0  0  0  0  0  0  0
    7.1251   -0.4894  -23.6542 H   0  0  0  0  0  0  0  0  0  0  0  0
    5.6219   -0.2917  -18.9164 H   0  0  0  0  0  0  0  0  0  0  0  0
    6.1385   -2.5026  -22.5856 H   0  0  0  0  0  0  0  0  0  0  0  0
    5.0332    7.7442  -25.1250 H   0  0  0  0  0  0  0  0  0  0  0  0
    9.2402    1.3651  -23.4571 H   0  0  0  0  0  0  0  0  0  0  0  0
    9.4667    4.0043  -24.2027 H   0  0  0  0  0  0  0  0  0  0  0  0
    2.8807   -4.7507  -16.7351 H   0  0  0  0  0  0  0  0  0  0  0  0
    4.4658   -3.9817  -16.3853 H   0  0  0  0  0  0  0  0  0  0  0  0
    3.0114   -2.9613  -16.6500 H   0  0  0  0  0  0  0  0  0  0  0  0
    5.7750    6.0171  -14.1318 H   0  0  0  0  0  0  0  0  0  0  0  0
    5.6761    7.4920  -15.1523 H   0  0  0  0  0  0  0  0  0  0  0  0
    4.8113    2.5896  -22.0454 H   0  0  0  0  0  0  0  0  0  0  0  0
    4.8598    4.2364  -22.7613 H   0  0  0  0  0  0  0  0  0  0  0  0
    4.3476   -4.7640  -18.7517 H   0  0  0  0  0  0  0  0  0  0  0  0
    2.8932   -3.7436  -19.0164 H   0  0  0  0  0  0  0  0  0  0  0  0
    6.9097    6.3238  -16.9704 H   0  0  0  0  0  0  0  0  0  0  0  0
    7.0287    4.8510  -15.9491 H   0  0  0  0  0  0  0  0  0  0  0  0
    4.5868    4.6304  -15.8931 H   0  0  0  0  0  0  0  0  0  0  0  0
    4.3883    6.1924  -16.7576 H   0  0  0  0  0  0  0  0  0  0  0  0
    4.1799   -1.7064  -18.5936 H   0  0  0  0  0  0  0  0  0  0  0  0
    5.6260   -2.6681  -18.1345 H   0  0  0  0  0  0  0  0  0  0  0  0
    9.1889    8.4122  -14.6679 H   0  0  0  0  0  0  0  0  0  0  0  0
    7.8189    8.6605  -15.6983 H   0  0  0  0  0  0  0  0  0  0  0  0
    3.4681    3.8729  -20.4638 H   0  0  0  0  0  0  0  0  0  0  0  0
    6.0912    4.3447  -18.2157 H   0  0  0  0  0  0  0  0  0  0  0  0
    2.8262    4.3373  -17.1907 H   0  0  0  0  0  0  0  0  0  0  0  0
    2.1849    4.0121  -18.7665 H   0  0  0  0  0  0  0  0  0  0  0  0
  1  2  1  0  0  0  0
  1  3  2  0  0  0  0
  2  8  2  0  0  0  0
  3 12  1  0  0  0  0
  4  6  2  0  0  0  0
  4 11  1  0  0  0  0
  5  7  1  0  0  0  0
  5 11  2  0  0  0  0
  6 13  1  0  0  0  0
  7 13  2  0  0  0  0
  8 14  1  0  0  0  0
  9 10  1  0  0  0  0
  9 15  2  0  0  0  0
 10 16  2  0  0  0  0
 11 15  1  0  0  0  0
 12 14  2  0  0  0  0
 12 16  1  0  0  0  0
 13 34  1  0  0  0  0
 14 35  1  0  0  0  0
 15 27  1  0  0  0  0
 16 27  1  0  0  0  0
 17 21  1  0  0  0  0
 17 28  1  0  0  0  0
 17 32  2  0  0  0  0
 18 22  1  0  0  0  0
 18 29  1  0  0  0  0
 18 33  2  0  0  0  0
 19 29  1  0  0  0  0
 19 30  1  0  0  0  0
 19 31  2  0  0  0  0
 20 23  1  0  0  0  0
 21 24  1  0  0  0  0
 22 27  1  0  0  0  0
 23 26  1  0  0  0  0
 24 25  1  0  0  0  0
 25 30  1  0  0  0  0
 26 34  1  0  0  0  0
  1 36  1  0  0  0  0
  2 37  1  0  0  0  0
  3 38  1  0  0  0  0
  4 39  1  0  0  0  0
  5 40  1  0  0  0  0
  6 41  1  0  0  0  0
  7 42  1  0  0  0  0
  8 43  1  0  0  0  0
  9 44  1  0  0  0  0
 10 45  1  0  0  0  0
 20 46  1  0  0  0  0
 20 47  1  0  0  0  0
 20 48  1  0  0  0  0
 21 49  1  0  0  0  0
 21 50  1  0  0  0  0
 22 51  1  0  0  0  0
 22 52  1  0  0  0  0
 23 53  1  0  0  0  0
 23 54  1  0  0  0  0
 24 55  1  0  0  0  0
 24 56  1  0  0  0  0
 25 57  1  0  0  0  0
 25 58  1  0  0  0  0
 26 59  1  0  0  0  0
 26 60  1  0  0  0  0
 28 61  1  0  0  0  0
 28 62  1  0  0  0  0
 29 63  1  0  0  0  0
 30 64  1  0  0  0  0
 31 65  1  0  0  0  0
 31 66  1  0  0  0  0
M  CHG  1  31   1
M  END
> <OMEGA_C>
K/PyQCyI/kAm8rbBleHRQBP0BUH11b3B3Jj8QAa30kC78rXBH8rNQCKoUT/NnqTBgV7YQMJj3777
G7XByxm9QDEKqL53p5/BrcvGQJ5vyr9KNrDBNWG6QKx27UDrt8PBIEUIQZI5CUAJIrrBVw4KQcu7
Y0AIgb3BDMXaQLITRz/Gaa/B9RLlQCIdtEBgzbvBuz64QIy/xL9vhKXBj9HDQFuMwUCSusLBRYnq
QLiy/z/Vt7TBgz/vQNZ/hkAZd7rBOtr0QDdu4UDSjGbBjFWvQOEmhEAWsKXBYQyFQKcFi0AJfZXB
JK1hQIK2eMAEmIfBvubIQEJH00C9pW7BdUisQGq7YUCy1LDBnHV1QGiJdcBdppPBcX/NQCqtt0CU
aIHB7AehQHzjqUB3FYXBToeXQN3NKMADPJbBlPzWQNYbT0B7drXBlHEEQYc/AkHWpG/BLayJQGpR
g0Dys5/BDqilQF7Gk0CCVo/B7qQ9QD8Yh0B/ZZHBUm4DQVcSzUBebljBz1DRQLIhk0DwbKLBbcmk
QBV7K8AZYKHBusymQBh3nEC/XMrBLXMCQYLyCkHtbbLBuYjKQG7EFkEcnL7BzgYLQeSAyEALsbDB
zbDQQJV43j8qJKDBwwDkQByQ+r7lO73BzeazQCRXlb68VJfBp27EQPgqIMA5r7TBPhChQEfQ90AP
AMnBD9gTQYa8rj8ZqLvBr3cXQQ0jgEAon8HB1Vw4QJgFmMBw4YXBwueOQHLTfsAPFYPBJbpAQCmF
PcA3M4XBdcy4QP+LwEDVG2LBNKK1QMS+70DKb3LBUvaZQFO8JUATXbDBlIObQIaQh0AoF7bBpR+L
QMhymMBrA5bB6yk5QEeXb8CSIZjBARzdQN1cykBqw4fB9urgQCw7m0BVL3/B9MaSQIYslEAtSn7B
0WyMQHEoxkCmD4bB9cGFQHdq2r+4v5TBzwe0QBHCKsB/E5HBigUTQXeYBkGQr2rBwjT6QF6RCkEL
LHvBSvVdQB/ed0DPtaPBc+vCQCUIi0DFuZHBN+E0QMbKikCkhonB+9ULQHJjgEDMIZbBOs/yQCwy
/kAEeLbBjmLRQNANBkFhLr3Bpkf8QKVF0kB8prXBKo/NQIzlRT9G26TBYIPZQAKa7b5/X7XBEkC8
QP9qwb67D6DBXhbIQB1Dz7/nk7DBYk25QJoV7kCoDMPBwSIIQWAZCUBZdrrBE6UJQW4JZEAQt73B
Cm7bQNThPj+9ma/B1DzkQA8QtEALgbvBrS+5QJRWy79C6KXBZonCQKYOwkDLO8LBasXqQGxS/T+a
2rTBqpfuQBdQhkAfarrBJroCQbnjfEBFhXDBohGwQD6egUDRV6XB0NuEQDnzjEDjb5XBhbs8QEZW
P8AipZHBgpvbQOPwgEDzbX3BAnusQI8fX0DJmLDBRPqGQIQxd8DtIJLBEFjLQJeEr0Az1n/BXvqe
QMg9sEDyEoXB2gmtQH+ZRMB0wpbBhOnWQKq/TUAaa7XB958KQdKtLUBqnGrBlCeKQNH3gUDvcJ/B
2DKjQGsYoEBqE5DBc9o/QM+ohEBgBpHBgagMQSTOnkD4k2vBPNrSQO2sjUAA2qHBiLqkQJ/PLcDI
4qHBpbukQLSZnUAj3MnBUZYCQdqcCkEa87HBqDbKQHLoFkFl1L3B4QELQcmrx0BLh7DB+0PQQHS7
1z94SKDBQ2flQFypAb9+er3BATqxQBqirb7s4JfBcx3GQLpYIsAZHLXBwa+fQBbW+EBbMMjBbbcT
Qa9jrz+MMLzBh9UWQdmigEBM78HBB44HQC0BZcDNUI7Bda5IQMheB8AYhYzBM/8rQH6/KcBwwZnB
Jz7hQKUOZ0BduobBdfbCQEfyW0BOL3XBxj6aQAP2IkDaRrDBAGabQJPJhkA3pbXB2hKPQE1ihsAQ
AIrBObuAQKiSl8BnPJfB347JQHV9vkDn7m/BO8vhQAmTwUBv+YTB7vuIQL+rm0CFhIDB2I2SQB0s
0UANMoXBd76xQLveCcBEDZLBRRbKQA03bMDgVZbBoE8YQVuUKUACY2LBhaYCQd778D+yj27BTZ9f
QHVbcUAXWKPBXma/QHgSpEAwuZPBZ/80QBj9jEC4a4nB4hwSQJH0a0CTP5XB8//zQIGx/UAE+rXB
/izTQHgdBkHAyrzBr+38QKek0UAKOrXB4VLYQO4O8763s7XBZkbLQPxvQz9rPqXBq2vHQKJy0b+O
5rDBwkm6QCm+xr6CdqDB1xe7QKO07kBA0cLBNMgHQZH6B0AQbrrBGK0JQeIrY0CQfL3Bn4jZQPBw
PD+f8K/Bo+TkQJX1s0CCPrvBVr63QKQ9zb/3TKbBb7vDQEWNwkDuDcLBHo/pQHis+z+aCbXBo6zu
QAMbhkAdQrrBJ4L6QNF/nkBYq3nBfNyvQCqdgEB3QKXBoN2EQFJfjkBKepXBFr9HQJL5d8BpM4rB
9BbXQL47fUD7F4DB8uyrQJZlX0BDoLDBOJd9QNSxgMDlcpTBKU2pQPvnj0CMRnzBdBieQIGatUBZ
n4XBEGyPQN6hKcBGC5jBgUnWQPltTUCxeLXBfjESQQAMlkD2Z3/BFmeKQOEtgEDwNp/B81GgQLp3
qEBE+JDBHKxCQNXRg0Asp5DBffzyQB3nvEA02W3BXabSQKWYjEBdwqHBiMWmQCWQMcCNCqLBzd2l
QKuknkBM1MnBTigDQfUrCkGsU7HBrXbMQMUFF0EoZr3BEx0LQYeMxkDsCLDBWVjkQDtRA7/0y73B
gXTNQOPr1j/YsaDBhHLGQL3ZI8BzXrXByxOvQNiTs76uS5jBbPGhQEjx+UD/CMjBCUkTQeN2rD8V
IrzBuRcXQWElgEA+icHBxzowQNecm8BqsYfB2oJvQCRtXMC2zoPB/AURQJqFTcBIx4vBSpvaQBLS
bkCMqYjBoTjbQIYlQkAv2HbBFiOZQLHfI0ApfrDBy06bQAS3h0DSibXBrxmaQPL4lcBt2pLBf7ZV
QCyFjsAA05rBikaSQGO2a0CLBn/BweKmQN7ZmkB2l2vBQfF6QMqywECg04PBGuW0QEjZz0BkPoTB
9l1oQBr4+79IL5nBjNikQPipD8Cv3JHBqgQeQX6cqECB7XnB9YMVQXq8ekBmhITB+FNhQLv5ZkAM
waLBBhm4QPEjtEBedZXBTnc1QGyvj0C2aInBVnYZQPG+X0DLM5TBRyryQMwD/kBa1LXBVN3QQFYC
BkGBkbzBh/77QCkh0kBiJbXBt4LOQLa5Qj98z6TBnXTXQH6u574Qj7XBkaC9QLWkyL7H95/B4rvF
QC8yzb8Mx7DBxUi5QOsg7kC9msLBdH4IQS5fCUAZELrBBCEKQRylZEANKr3BTd3aQNo8Pj9hqa/B
hHXkQMEMtEBCLLvBPQa4QG6fyr8xAqbBNOrCQAUmwkBt78HBIbbqQK15/D8007TBavDuQGNHhkAp
LbrBJqDdQOgRRkAWV2nBI+WvQPCugEBUdqXB/WiFQKIFjUAgipXB4IlgQPozf8BNa4jBnFnTQAc4
gUB8H3zBviesQK7CXUDsuLDBKLl1QB7fesC6bZTB3X6lQNqZk0BKlHrBDv2dQLjntUAl2oXBj2GX
QDhNLcDM1JbBFcTWQOwFTUDedrXBD0wDQcDIJUA6NWfBInyKQPUigEA4Z5/BULWiQI3Lo0CpqpDB
AkZCQBntg0C84ZDBBzXCQBjsMUB5PVzB4YPSQMnAjUA0G6LBodKkQIzzLsDc9KHBztalQN7hnUDm
ysnBfxQCQYt4CkG5L7HBGWfJQNDYFkHGG73BHc4KQbp0x0AY/6/BhA7SQOlT1T8WMaDBUWziQEXE
+b5Sv73BNty0QELUvr6mnJfBXZrCQPGnIMB0ZrXB+L+fQNXy+ECgwsfBtz8UQVWZsD8ho7vBipkX
QVlDgUB4FMHBh6k3QH+Qm8CZ2YbBZBiOQLd9gsBKzYPBsqA+QGeTRMCNBIbBYFXqQP3gm0B/BHzB
q2zWQEehXkBcmYXBWQCaQAp8IUBsc7DB/Q2bQAMphkBYwLXBb7qLQLvXmsAtzJbByOQ5QHBHdcBv
A5nBcE2OQFUIc0DL2nzBQ/OgQCfsoUDMqWrBTed6QCHZwkB29ITBzHO1QPnKz0BByITBD1KFQFBO
5L8pSZXBvsazQAU9L8DfopHBq8wGQT/p/D+9FFvBiZwOQYLCNUDiynHBQ+FgQI0FaUDIB6PBOiS+
QI9BqUBvjZTBMKc2QA5kjkBmdonBalQWQGX9ZEDPu5TBz770QCxo/kBSf7bB5b/TQD1qBkEIR73B
ZZn9QPBa0kCIr7XBaEvXQJTz4r53h7XBYnPLQOd1UD9VHKXBtozGQIaCzL8rlbDBG3+6QP+eqL4I
MqDBE3W7QGcy70CHN8PBSnYHQQ5pCEC/r7rBnnwJQRdAY0A75L3BOSfZQBvrRT+v2a/B8VDlQOaR
tEB9m7vB/oS3QG6Uxr9+7aXBtwrEQEoNw0B9ZcLBc03pQAgq/z/OFrXBW9PuQJq0hkBShbrBWdTn
QHGHd0BuYXHB7syvQMD2gUD0YKXBBayEQIZGjEC3aZXBTbFEQLvLcMClyInBdUjvQIgHnUC0i4HB
YBSsQNWIYkBsw7DBh498QLHie8CR1ZPBWxXLQGDXvkCvhIHBlLOfQJe0q0CGuoTBgtGOQOqOJMD3
nZfBNWbWQImJT0CjkrXBNpPqQCQIiECeJFzB6NyJQKoHgkCleJ/BpwCjQI8Sn0BYAJDBQYM/QD8d
hEDz+pDBVxDfQPxCLUDq5nXB07jSQEgwjUBozKHB9tmmQPfeLcC/fqHBtPGlQJT6nkDKEcrB8Z8D
QZ2SCkEF7LHBbxHNQNpRF0FR7L3BBYMLQWxYx0BihbDBQbTiQI1/+778rL3BawjOQPD93T+zoaDB
djPFQE6vIcBG+7TBA6SvQDV+j76NAJjBNjGiQDNY+kBvacjBvsESQa4BrD8+b7zBDc4WQZlif0B9
IMLByUgtQPnal8DgIYfByfhqQOd9U8DoXoPBSOYNQIo8R8B1qovBoBEHQbsQrUDgLYDBVt/vQCPI
jEDNWYnB8eeYQId/J0ANsLDBbeebQHKQiUCHrrXBDKCZQF/EksCk75HBli1WQLCjjMAyO5rBpljI
QLllzEAU2nLBOmDTQHli2EAJNYfBUYiYQFCWj0Ckfn/B7UKGQFu0w0Bsu4PBG/xmQLAg87+s/ZjB
9byjQPAiCcDcbJHBIGnlQF05ZUA9ilDBDbnxQERQpkBlZ1jBdu5eQHRUckC9aaPBoXO+QLdQpUBE
zpPBEf00QGNJjEC3W4nBcnURQBxga0CYNJXBEGXzQDkx/kC0r7bBgL/SQI0PBkGDor3BBnn8QBw+
0kDZurXB4DnZQA6G7b51TLXBEnrKQPmKTz9WG6XBYN3IQDjTz7+AWrDBbBC6QFIsrr72LaDBfPy6
QDcY7kAJlsPBN30HQaolCEA/irrBM3AJQaveYkDTx73B/G3ZQLdHQz+FvK/BHsTkQOwVtEBPrbvB
Pre4QHplyb+wzaXB8MvDQD8MwkDxnsLBQE7pQCRG/j9C97TBmpLuQCZghkCQeLrBYLz1QKE+3kC+
2mTBLBuvQOqyg0CqiaXBwq+EQB46jEDbbZXBDgxHQAAEdMALzYnBRHXKQL1bzkDlaW3BesCrQBM1
YkBawbDBb4R/QLaIfsBWz5PBNk/OQBeHtkAycIHBpiOiQGcTpkAfl4TBTJyPQJHGJsBxn5fBlkDW
QKUBT0CpebXBSvH2QBIX80BpWlHBiG2JQEk2g0ApkZ/BN36lQA6WkUB7GY/BLLU7QOfrjEDrlZHB
h4MLQRPf2EBC4m7B3EvRQCzukUC4M6LBnHyoQIewL8DVX6HB0k2mQBxvnUAcSMrBCboCQdmdCkEh
GLLBtezLQGDuFkGoZr7Bws8KQX2Yx0B5b7DB9pzlQPfrA7+oWr3BXKrLQNzL3j/3uKDBDa3IQB/I
I8DUq7TBMmGuQB+Zk74WD5jBUvWhQIze+ECL5sjBF9kSQWTFqz/KP7zBBsMWQT4jf0Bv/8HBT54w
QD6cmcAJIIfB7YxsQLjNVcDTYYPBrZ8PQLJ7S8BevovBsli8QKiEuEABjWHBBki1QDgf6kACo2/B
WQ+ZQJGgJkBPYrDBQDSbQFtSiECB6rXB2WubQJmTk8AU2pHBcupZQJZqjsCfNprByEzaQDSBzEDU
n4fBQInkQE9ym0ABloDB6uuWQOisjkAISn3BOHSLQPbwwECc/4TBHtdnQP4/+r8BLZnB5r6jQIj3
CcD/XZHBeGgJQZam/UA9iEvBF/HbQImb90CBEUnBA7FdQAv0dUA3hKPB5ivCQNs/h0BJiJHBUj0y
QPySkUB2wonBjK0JQAXNiECZd5bBreXhQGdS90BXJrPBvC3HQCfJAkHOgbvBZTbvQP9ZzEAj0rLB
wVfoQC75iT52RabBeITBQKZwc767wrbBZczYQJbgab/yo6HBuuKxQGAFtr8eIbLBN6+5QD/V6ECl
hsPBf1gIQXO6A0ALJbvBohoJQcIpX0DIF77BvLPcQEqDGj87zrDBPprhQJOSr0AHz7rBAga9QDdj
4b9mh6fBmL3GQI+0vUDeL8PB6q3rQFJh7T+qabXBM/vtQCyogkALCrrBMZziQAZixECtOVXB16iw
QIW9fEBRMKTB+bmDQF6KlkCcHZXBvhcvQM+NYMBbMprB3Oq8QBqpykD33mTBvVStQPu9U0C1dK/B
tzaCQJnbe8Dh/5TBpUzEQF1BtUDd53rBv8ecQCW2u0BWp4TBexKmQNhkPMBsx5fBKpHXQB8hRUBG
97TB3ZHfQIdH1UCS0kDBAg6KQMCFhUDRpJ7BZQ+jQAlUpUDFHY/BtjM4QKhXmEA5vpHBmIgBQfPw
sEAzc1rB0MfTQOToh0BjfKDBGxysQAL4OsDER6PBXki1QKItmkB0Ic3BMyHsQEOvBkH3Aa3BMwO9
QPVKE0FKxbvByOwBQQFqwUDgc6zBiiz9QH/Gaz9IwqHBBbm4QAxj0jyb2L7B0f3hQF7slr9LlpnB
sEmdQFTHBMC5srbBNVGlQOvm80An78nBZigUQa2ppz8PIL3BZ5gVQR1qfkCDm8LBmLb5P790h8Cj
F5jBL+0cQOa3IMAYQ5fBcas2QCGMXsAm8aLBaPefQA7NvEBopV3BbSq4QMst7UBHXmfBKCqdQAGN
FUDgoq7B7uuZQNw1fkDchrTBtV98QDD6fcDlQozB+w6LQDXnncD08JfBIG/gQAm+w0B1ToHBO97J
QCHNkkAEnnjBRGCAQPmLrkB+oYDBbxiYQE0d3kDtGYbBIjedQPoa+L8H+pTBmfXDQEmDUMB53pPB
67T3QJOX0UARezbBNDzFQB8u5UCdajzBXB1fQHCyeECYf6LBbgrBQBtUoUB1upHBvAUrQI79pEDf
lIrBO9oIQBMSjUAnVJbB

> <OMEGA_E>
OHsrP2R9Kz+cXy4/pLUuP9jhJz+kaCg/VlpMPw==

> <OMEGA_NBR>
     30256

$$$$
50209238
  -OEChem-04172616093D

 70 73  0     1  0  0  0  0  0999 V2000
    7.0953    7.7187  -22.3595 C   0  0  0  0  0  0  0  0  0  0  0  0
    6.2364    8.1632  -23.3844 C   0  0  0  0  0  0  0  0  0  0  0  0
    7.5249    6.3799  -22.3372 C   0  0  0  0  0  0  0  0  0  0  0  0
    6.6804   -0.5393  -22.8786 C   0  0  0  0  0  0  0  0  0  0  0  0
    6.6606    0.5250  -20.6781 C   0  0  0  0  0  0  0  0  0  0  0  0
    6.1706   -1.7200  -22.3098 C   0  0  0  0  0  0  0  0  0  0  0  0
    6.1675   -0.6571  -20.1068 C   0  0  0  0  0  0  0  0  0  0  0  0
    5.8051    7.2681  -24.3852 C   0  0  0  0  0  0  0  0  0  0  0  0
    8.5100    2.0317  -23.4033 C   0  0  0  0  0  0  0  0  0  0  0  0
    8.5738    3.4648  -23.7527 C   0  0  0  0  0  0  0  0  0  0  0  0
    6.9088    0.5862  -22.0632 C   0  0  0  0  0  0  0  0  0  0  0  0
    7.0755    5.4779  -23.3239 C   0  0  0  0  0  0  0  0  0  0  0  0
    5.8970   -1.7835  -20.9265 C   0  0  0  0  0  0  0  0  0  0  0  0
    6.2189    5.9218  -24.3553 C   0  0  0  0  0  0  0  0  0  0  0  0
    7.3709    1.8362  -22.6557 C   0  0  0  0  0  0  0  0  0  0  0  0
    7.4527    4.0688  -23.2326 C   0  0  0  0  0  0  0  0  0  0  0  0
    5.5014    3.9658  -20.5643 C   0  0  0  0  0  0  0  0  0  0  0  0
    4.1349    4.6949  -18.6359 C   0  0  0  0  0  0  0  0  0  0  0  0
    6.6974    4.8913  -15.9661 C   0  0  0  0  0  0  0  0  0  0  0  0
    5.7642    2.8282  -17.1096 C   0  0  0  0  0  0  0  0  0  0  0  0
    7.8796    4.0550  -15.4276 C   0  0  0  0  0  0  0  0  0  0  0  0
    6.9324    1.9850  -16.5830 C   0  0  0  0  0  0  0  0  0  0  0  0
    6.2030    4.3047  -17.3022 C   0  0  1  0  0  0  0  0  0  0  0  0
    7.4778    2.5691  -15.2640 C   0  0  1  0  0  0  0  0  0  0  0  0
    2.7141   -3.9112  -17.8950 C   0  0  0  0  0  0  0  0  0  0  0  0
    5.4030    3.2937  -21.9497 C   0  0  0  0  0  0  0  0  0  0  0  0
    3.6297   -4.0453  -19.1225 C   0  0  0  0  0  0  0  0  0  0  0  0
    4.5597   -2.8301  -19.2267 C   0  0  0  0  0  0  0  0  0  0  0  0
    6.7438    3.0651  -22.6046 N   0  0  0  0  0  0  0  0  0  0  0  0
    4.3235    4.1064  -19.8048 N   0  0  0  0  0  0  0  0  0  0  0  0
    5.0824    5.1478  -17.8407 N   0  0  0  0  0  0  0  0  0  0  0  0
    2.9017    4.8135  -18.2195 N   0  3  0  0  0  0  0  0  0  0  0  0
    6.5786    4.4241  -20.2093 O   0  0  0  0  0  0  0  0  0  0  0  0
    8.6135    1.8090  -14.8578 O   0  0  0  0  0  0  0  0  0  0  0  0
    5.3632   -2.9562  -20.4245 O   0  0  0  0  0  0  0  0  0  0  0  0
    5.6638    4.8161  -25.5977 Cl  0  0  0  0  0  0  0  0  0  0  0  0
    7.4231    8.4050  -21.5927 H   0  0  0  0  0  0  0  0  0  0  0  0
    5.9076    9.1918  -23.4035 H   0  0  0  0  0  0  0  0  0  0  0  0
    8.1992    6.0423  -21.5641 H   0  0  0  0  0  0  0  0  0  0  0  0
    6.8958   -0.4957  -23.9360 H   0  0  0  0  0  0  0  0  0  0  0  0
    6.8498    1.3877  -20.0565 H   0  0  0  0  0  0  0  0  0  0  0  0
    5.9877   -2.5821  -22.9341 H   0  0  0  0  0  0  0  0  0  0  0  0
    5.9936   -0.7103  -19.0422 H   0  0  0  0  0  0  0  0  0  0  0  0
    5.1566    7.6154  -25.1759 H   0  0  0  0  0  0  0  0  0  0  0  0
    9.2270    1.2742  -23.6835 H   0  0  0  0  0  0  0  0  0  0  0  0
    9.3580    3.9504  -24.3145 H   0  0  0  0  0  0  0  0  0  0  0  0
    5.8760    4.8744  -15.2345 H   0  0  0  0  0  0  0  0  0  0  0  0
    7.0269    5.9289  -16.1234 H   0  0  0  0  0  0  0  0  0  0  0  0
    5.4303    2.4209  -18.0754 H   0  0  0  0  0  0  0  0  0  0  0  0
    4.9348    2.7881  -16.3883 H   0  0  0  0  0  0  0  0  0  0  0  0
    8.7206    4.1248  -16.1332 H   0  0  0  0  0  0  0  0  0  0  0  0
    8.1871    4.4545  -14.4499 H   0  0  0  0  0  0  0  0  0  0  0  0
    6.5839    0.9569  -16.4054 H   0  0  0  0  0  0  0  0  0  0  0  0
    7.7370    1.9750  -17.3330 H   0  0  0  0  0  0  0  0  0  0  0  0
    7.0376    4.3243  -18.0185 H   0  0  0  0  0  0  0  0  0  0  0  0
    6.6880    2.5046  -14.5010 H   0  0  0  0  0  0  0  0  0  0  0  0
    2.0532   -4.7882  -17.8323 H   0  0  0  0  0  0  0  0  0  0  0  0
    3.3284   -3.8493  -16.9846 H   0  0  0  0  0  0  0  0  0  0  0  0
    2.1057   -2.9996  -17.9894 H   0  0  0  0  0  0  0  0  0  0  0  0
    4.9036    2.3209  -21.8300 H   0  0  0  0  0  0  0  0  0  0  0  0
    4.7997    3.9372  -22.6068 H   0  0  0  0  0  0  0  0  0  0  0  0
    4.2350   -4.9587  -19.0259 H   0  0  0  0  0  0  0  0  0  0  0  0
    3.0123   -4.1090  -20.0307 H   0  0  0  0  0  0  0  0  0  0  0  0
    3.9600   -1.9095  -19.2795 H   0  0  0  0  0  0  0  0  0  0  0  0
    5.2157   -2.7904  -18.3446 H   0  0  0  0  0  0  0  0  0  0  0  0
    3.5056    3.6994  -20.2115 H   0  0  0  0  0  0  0  0  0  0  0  0
    5.0540    6.1126  -17.5794 H   0  0  0  0  0  0  0  0  0  0  0  0
    2.7118    5.2335  -17.3321 H   0  0  0  0  0  0  0  0  0  0  0  0
    2.1480    4.4843  -18.7884 H   0  0  0  0  0  0  0  0  0  0  0  0
    8.3656    0.8974  -14.7577 H   0  0  0  0  0  0  0  0  0  0  0  0
  1  2  2  0  0  0  0
  1  3  1  0  0  0  0
  2  8  1  0  0  0  0
  3 12  2  0  0  0  0
  4  6  2  0  0  0  0
  4 11  1  0  0  0  0
  5  7  1  0  0  0  0
  5 11  2  0  0  0  0
  6 13  1  0  0  0  0
  7 13  2  0  0  0  0
  8 14  2  0  0  0  0
  9 10  1  0  0  0  0
  9 15  2  0  0  0  0
 10 16  2  0  0  0  0
 11 15  1  0  0  0  0
 12 14  1  0  0  0  0
 12 16  1  0  0  0  0
 13 35  1  0  0  0  0
 14 36  1  0  0  0  0
 15 29  1  0  0  0  0
 16 29  1  0  0  0  0
 17 26  1  0  0  0  0
 17 30  1  0  0  0  0
 17 33  2  0  0  0  0
 18 30  1  0  0  0  0
 18 31  1  0  0  0  0
 18 32  2  0  0  0  0
 19 21  1  0  0  0  0
 19 23  1  0  0  0  0
 20 22  1  0  0  0  0
 20 23  1  0  0  0  0
 21 24  1  0  0  0  0
 22 24  1  0  0  0  0
 23 31  1  0  0  0  0
 24 34  1  0  0  0  0
 25 27  1  0  0  0  0
 26 29  1  0  0  0  0
 27 28  1  0  0  0  0
 28 35  1  0  0  0  0
  1 37  1  0  0  0  0
  2 38  1  0  0  0  0
  3 39  1  0  0  0  0
  4 40  1  0  0  0  0
  5 41  1  0  0  0  0
  6 42  1  0  0  0  0
  7 43  1  0  0  0  0
  8 44  1  0  0  0  0
  9 45  1  0  0  0  0
 10 46  1  0  0  0  0
 19 47  1  0  0  0  0
 19 48  1  0  0  0  0
 20 49  1  0  0  0  0
 20 50  1  0  0  0  0
 21 51  1  0  0  0  0
 21 52  1  0  0  0  0
 22 53  1  0  0  0  0
 22 54  1  0  0  0  0
 23 55  1  0  0  0  0
 24 56  1  0  0  0  0
 25 57  1  0  0  0  0
 25 58  1  0  0  0  0
 25 59  1  0  0  0  0
 26 60  1  0  0  0  0
 26 61  1  0  0  0  0
 27 62  1  0  0  0  0
 27 63  1  0  0  0  0
 28 64  1  0  0  0  0
 28 65  1  0  0  0  0
 30 66  1  0  0  0  0
 31 67  1  0  0  0  0
 32 68  1  0  0  0  0
 32 69  1  0  0  0  0
 34 70  1  0  0  0  0
M  CHG  1  32   1
M  END
> <OMEGA_C>
3wzjQPf/9kBI4LLBzZDHQHycAkE5E7vBpMvwQEwozECJsrLBocXVQMsQCr9hB7fBXiPVQHFmBj+5
bKXBsXXFQNwp3L9jerLBYFzFQGs6KL+g2qDBhcO5QIOU6ED7FMPB5ygIQbEHAkD+ObvBXS4JQZm+
XUCeBb7BjBTdQKMQFj9pgbDB32riQOZKr0BCl7rBTrS8QDlL5L+IaafBIAHHQAp/vUDA18LBcd7r
QIoJ6z/aPrXBxHzuQMQzgkBo3LnBYguwQPbOfUCng6TBbVGEQGE8lkBMFpXBAlHWQLqFnEDxdH/B
sXS4QPIANUCO4IjBVCX8QOfCgUCH13bBPtbdQMYT/j8FqoTB+37GQFHAiUDPaorBLkrvQGZsJEAz
OXTBabQtQIZQesDuKI/BSeWsQCvLUkDmmK/BZkxoQDlzgcDn+pjBdemRQOMgNcBN0JnBE83XQF4r
REAq1rTBv1mKQIlng0BPcJ7BPKOiQGC6pEDBuY7B2LQ5QIMImkCZwZHBHYTSQB+SjUCYrKHBwdAJ
QTSO5z9/uW3BVp+rQB4zPcB6ZaPB2T21QHQdmkAsyMzB14ntQNZ6BkHKvazBcQu9QHoRE0FQOrvB
wC8DQSdawUAzg6zBUKrcQNvR/b7wfL/BWzHbQMGfsT+2c6DB2pq/QOBAJcABebfBksu/QF/VNb9f
VpjBewKlQBux80BQaMnBv6ETQZEZoz/Ld73BcboVQZrTfEAYhMLBkwi8QM/6m0CrwHPBa9zgQPK5
vUCw/IDB/cStQHTwGkBbmpDBr+mdQLBwMkAvG4PBcIcLQZT+g0DHEIHBTP4CQeOKjkDeMmfBUK/S
QLL1dD9DPoPBbJX3QADM/D8TqorB6TPhQJlgikDKJZDBcwTWQMFLIEAXBGjB6GYDQNw4mcCLqI7B
2gRVQGlbdsBt4IfBw8MGQPr5P8BE6o/BVuqcQBWJFEDso67BwJaZQOX6e0C92rTBSoWHQGKtnsAJ
NZjBfslAQKp8g8DgPqDBNnF9QKFq9L9uPJrBsuamQH6VMsCmwZLBMltgQC3CbEAqsaHBFLqhQDia
w0CDoozBho0tQAV5p0AeqIrBCnkJQMJ/j0CzTpbBk9kFQUC8ZT+YH2zBlDb0QIv8/UBaTrbBPnPT
QPIqBkHTKb3Bijj9QPz50UCzgbXBqqXYQJAr575PDLXBdEfKQCAKUz+F1aTBvtbHQLGWzb8oI7DB
em+5QO2vpb4t7p/BbIK7QBaq7kD+LcPBCMUHQd1HCEBrG7rBbskJQUfZYkBBar3BjEHZQP7aRT+g
d6/BTE/lQAAmtED0grvBhKG3QEnkxr8+maXBFDjEQEmMwkCvXcLBlmvpQDXK/j83urTBQODuQEtT
hkA5X7rBQrOuQNRmhEAy0aXBVAaFQA2Ei0DhmJXBzb+iQIVTjEBgxHjBnLDKQJ9IykAtHYXBnv6i
QGwjpEAXUmPBtBXLQD1Y4kAmy3TB0J2jQIt8rED5q4XBDtrJQHCdwkDhy2HBLXpGQAK/c8BXhInB
6oGrQHAaYkDf6rDBpVl8QA5WfcDfwZPBdOiOQGGlJcCtW5fBEDbWQAvsTkDtebXBzD6JQOQYg0DY
xJ/BNCamQDmmlEA1rY/BwTY+QLGHh0B3VZHBArDQQPSjk0CJnqLBsDLHQBMN2kC/R07BbMOmQJ8t
LsAAQ6HB4pqmQMV5nkALKMrBNDUDQf1fCkHLqbHBLKzMQBEQF0Foz73BDz4LQfQDx0BfSbDB3xPl
QD1FAb84Gb3BpsbLQEVa4D91b6DBxljHQM6QIsCDebTBosmtQGbyir5+zpfB42iiQNDE+UAgbsjB
bzwTQTMdrD9JpbvBIUkXQVMQf0AKf8HB9BS/QIMOb0A7vHnBCZ2FQGZocUCv5XnBFiXJQOOF4UBT
tovBjBroQOMqt0Ac14XBNF2FQMbptkAw22HBJ6mkQOyujEBEOVbBumboQBO39UCbv3PBdvKuQO1t
90AE93PBqz6GQKnev0AAeYXBXkjnQIFQr0DKF2LBv88uQCp3mcBVAYfBikNuQDY+WMBnH4PBjtoP
QL0vScCCGovBwfuYQMZcJkCAcLDBu/KaQBjLh0D1NLbBO26ZQKX/k8AkJ5LBeXNUQGh4jMBAIprB
PWhnQCJH9L9loJjBkfujQBZIC8CkIJHBdCZdQD2GdUD5qqPBCu/CQO67ikD+I5LBBHw2QH58i0BJ
dInBWNcLQCKFgEBz8pXBdPbeQI/i7EDGMk3B7qjhQFhE90CNJrPBu+vGQIGzAkEhhLvBSy7vQJdc
zEC80bLB0K7VQF+KBr8WJbfBXW7VQFwYCj9ojKXBhm7FQIFZ2r+8kLLBTLTFQIciJL809KDBqZa5
QMWb6EDdicPBd9cHQX+oAkBVnLvBxMMIQTVKXkDkdL7BJCbdQFXHGT9sorDB5MfhQC2Ir0AJ0brB
iOC8QN5G4r/1fKfBMtnGQHGLvUCuMsPBKeDrQKX/7D8pYbXB8z3uQNGggkAKCLrBtdawQBsxfUCw
GaTBwbeDQNuZlkDLEpXBQk2fQKRVmUD593bBoI6+QAce30Bi2ILBSy7NQP6ah0CtEHTBvDTsQBfr
zED7TIHB8smcQJ1mu0DQfITBz/7tQMvXq0BJNHDBTE4vQP1ceMBg/o7BvsGtQEOgVEDEYa/BiF1p
QPm4gMA225jBomySQAW+M8Bey5nBVjPYQBKCRUA3yLTBnTeKQLTwhEBChJ7BUc6iQFIDp0CLQY/B
7k04QMavl0Dso5HB4dTTQEjEiEBibaDBEUnlQBVxwED5NlzB+dCrQFQRPMD/baPBo2K1QL/omUBt
Hs3BYsDrQIWtBkHTAK3BjZ28QLovE0FsyLvBlugBQZeDwUD2cKzBEmjcQGI2977mnL/BaaDbQG9y
sz+hlaDBQXm/QJFhJMDdi7fBXE3AQJdrMb8jbpjBnDClQK2V80BT88nBiigTQZkBpD97/L3ByAwV
QbUbfUDCJ8PBRMmJQEhafUCVA3vB4+mUQMcHqEDF12fBCN21QDDO8UBcbHfBHHi+QBcd9ECG6InB
zZDNQKSXY0BtQGbBh1XWQL3ba0BVSoHBHWL2QLdNvUAMxIjBvRABQbpu50DB4X7B6rl5QJkuykC7
M4TBLxsHQbOsnUBH52/BUQIFQIo5mMAbao7BYgNXQNESdMAuv4fBUlkIQKsLPsCDwo/BFk2dQGyu
FkAloq7B5buaQK+Qf0B5e7TB0xCIQP/vncCbEpjBlndBQG3sgsDwFaDB9HJ+QIKn8b+7M5rBU6in
QBIAMcC6yJLBXc5fQIwXdUAaQaLB2H/AQJPNpUAOOZLBo8oqQFYGpUA6kYrBM2AJQH0ti0BTF5bB
8IT5QEap1kDH61nBygbzQPlO/EB1IrbBONnRQGE1BUFU5rzB8DH8QOlW0EASTbXBjq3PQKXbKj8/
GKXBrpTYQAE+A7+5ALbBfo+/QI5tAL8aXaDBaoHHQFwF17/HVbHB9LW5QF2M7ECizsLBJ64HQZl7
BUC537rBDh4JQb2yYECM7r3BHJjbQNN0LD9j9a/BNgjkQNBTskCuLbvBkhe6QECD179EiqbB1KDC
QNN4wEBu98HBJJvqQKaG9T9f+7TB3ETuQNijhEBIKrrBUP6vQAVTgUAB8qTB9/uDQBG7kED0UpXB
KDvTQM93YECcvojBZJbGQPg4t0AxvX7BalfmQC6YOkDL8nzBHJnZQBmrpEAE/2nBsjayQK5Xk0AJ
BIbBKE/6QN3HgEBY6G7BGGxqQJQ5hMAIzojBUq+sQJHzWkDmD7DBDpV7QHxNgcBY6JTBssyaQHcE
NsBuXpfBWgrXQMI4SkCeEbXBDtKJQHNZg0C1I5/B9kShQB+RpUCNA5DBNGI/QEDdh0Akq5DB2mfS
QP8Pj0CppaHBCVUEQeu+XEBpTFvB8gSnQKvwNcBcl6LBJsKkQCsXnEC1mMnBPrYCQRadCUGqlrHB
fufKQKkVFkErj73B5eIKQQSQxUArJ7DBtfTSQL6FyD8iYaDB+FrjQGQFB78bNr7BrEG3QFzpAL8Q
+pfBJKbEQDQdJcB/DrbBz0+gQEV290AJ/sfB4QwTQbsVqD9v6LzBAAQWQWAxfkAFWMLBKgvtQMd0
fEAimY3BwFvDQERVLUA1T43BzwuuQGogz0BjsnrBXSngQHWIxkDxDITBHOXMQDVKGkBh23PBYET/
QBntC0A6nYDBPsTpQP1ovkBOH2HBY5G/QA1tl0DbK2DB5QCYQH3jhEB5YoHBA7oKQRPhjkAtnnfB
DcBAQH7Rn8DnJ4fBKriTQFA2iMCsh4TB/NJKQIdyTcCPE4bBVVebQPnqHUAIZ6/BPKeaQL92g0Cv
P7XBYoaNQCfgnsBnnJfBa28+QDXGesBJKJnB9oyJQKTc9L+riJXBI8W3QAMAOsAxZZLBoTZfQNWR
ckDv+aLBLhysQE+swUBltpLB6R81QKgFkUB0HInBEQASQK7Rb0A1qJTBhH4KQUYAhEDTklLBXhP1
QChh+0DXkbXBOirTQM0hBUFe/bvBWP/9QBVIz0B0CLXBdKPNQKsQIj93HKXB1FLaQLOqEL83wLXB
ITK9QAMRCb+paaDB3WPJQExa3r/QGbHBzRa6QAwK7UAC2sHBzdgHQe/YA0CDl7rBu18JQT07X0Cn
lb3B7LHbQL8PIj/u0K/B5MXkQMDTsUCy07rBhbG6QMAW3r9KaKbBxLLCQOrRwEDbSsHBIp/qQIBs
8T/v07TBsn/uQH/Yg0Cy+LnB9uiuQJbkgkDCU6XBCXGEQJn9j0BMSZXBsL25QAvERUAO14TBFiLW
QOCgrUClaYHBqBbhQFX7MEDd3IvBQrr9QNnro0B9fYjBlu2uQFVmk0Dy+YTBaDgEQfUQZ0DeuojB
jvBEQPRVRsAJoZHB2DasQLfMWEAwILDBKN+JQCWSgMBfmpLBIyqwQE/8UMDWhJfByvLWQKlESEBa
+7TBEL+JQE0bgkCkFp/BXmCjQGfooUAL44/BkJU/QAXJiEBpoZDB5qHPQJYklkAIxaLB1oQLQTGl
TEDY2XzBOqCmQGD3N8AwgaLBRumjQJN5nUCC/sjBDR0EQSblCEFjD7HBWWDMQLMNFkGEa7zB0hwM
QRfxw0BNLLDB0ITPQEdNxT8WdqDB3zzmQAYDFr8G3L3B622yQCvWBL8pNJjBpaTHQI1GKcDLwrXB
0i2gQB+P+EB7ysbBqEcTQaoOpT9QlbzBGm8WQfvnfEBC28HB4wSeQK7MIUBl34fBjX7AQAAvMkCH
HXnB8LjdQCKfpUCxHHLBg3fOQCnmz0ClA4LBPg7pQOil2T+764rBbxHZQMQHPkBMRpTBbCf3QLrC
rkAfs5DBsbcMQRRytUBPSYXBhUGUQLx3mUAh4H7BPdYQQTF6XECauI7BAG4PQKFcasDLGo7ByZhU
QOp4D8A/eYzBx4syQFAsL8BdnZnBSsGbQIEyG0AlBq/B1JuZQMyZgEBZobXBQ8qSQJcijMCamIrB
wsOBQEr8m8C4vJfBxMy2QH5ZF8DlvpLBrmzMQJf0esCydpfB1dBfQEyaakBfjqLBbrKzQBAKukBv
MpPBHw83QDf6kECM+IjB7OgPQBwjdkBvuJTB3KQXQZKubUD+33jB6o/xQMa5/UBIiLbBTPfPQJOR
BUGsQb3BPn/7QOTr0UBip7XB2j7OQMJpOT+l2aTBbKHaQBwA9r5sfrXBEvO8QHD4374oMqDBME3J
QPFz0r+82bDBHim4QBC87EAJE8PBoBgIQVYqCEBhlLrB42QJQQgbY0B81b3BQjvcQJbVNz9el6/B
CKnjQPBXs0DNb7vBjv25QHOR0b/HN6bBfMrBQNfRwEDoLMLBTj7rQA/q+j8mwbTBImjuQGS9hUDc
SbrBTrSwQBNagEAN6qTBr8SEQOLEjkBGU5XBLBrSQLxjiEBZBIPBunCtQLYz0ECnUoDBOjjcQHcc
hkD29G3BQtm2QBM1zkAEjmjBbDKpQGfKokBO2YTB1oHfQAl1s0DGFWTB2ohuQIlfgMDPPIjBhgit
QII2XUAvNbDBfW9vQMzjYMAP45PB7jilQCLfRcBMPJfBpEfXQDp2TECQKLXBxpiKQIeRgUAnIZ/B
zCahQKo0pkCWZJDB1N8/QPy1hkCn1pDBznzTQNXxi0BnVKHBrizlQFTar0DIg03BtFmlQJxdMsBQ
o6LBphykQOfKm0C4qMnBx9kBQSyGCkHgDLLBU3PIQKdgFkHh873BvrUKQaq0x0DWirDBLdjQQJNp
0D/HKqDB9LLmQCvnAb9Jlr3B+eKxQL8E1b4oA5jBBLPHQAp6I8D9e7XBjXaeQH4b90CoPMjBMKAT
QWTOrT85c7zBUVgWQcc/gEDIN8LBYv3sQPWcl0CMO4fBcVvNQGyjT0DsIobBW2GPQIe74UD/pYHB
dcjHQPrd4EApaYTBnJfCQAShaEAZz2XBk9j6QKi4akCesWvBYaS7QNDi7kDyd2LBdnqbQA1xv0Bz
T2DBpyqOQJqhkkDo6oDBBRj7QO/pw0A+SGvBYRUtQDvUicArBYbBaL2MQNIWnMCEdIfBtDWCQJMs
TcCT6ILBLPWaQKPZIECP6a/BZK+bQPHmhUDLLbXBH01ZQG9PisD9LJnBtj1EQM2dKcAMoZTBxOau
QPTNDMCVr5LBPLu7QH1nesA9m5XBVxFhQDkYbkA69KLBAhyyQLdYu0CFpZTBSrMyQOSCkkBBlonB
yZgUQFN4aUDNppTBRjTnQC+dy0B2Z0fBcDv0QE0k/kCMY7bBOHbTQOYXBkGdSL3BVS/9QCcl0kDe
crXBOnXaQAvK5r6L+rTBQh7KQLaHRT8QoaTBZyjJQJ31zr9VarDBCZS4QKybyr6iDqDBgoa7QP46
7kBSNsPBB0YIQdbhCEBIsbnB8w4KQT1tY0DlC73BIlTaQKx9QT+AMq/BDDnlQAoBtEDWWbvBvN+3
QC/Gzb/7+6XBrDjEQFUjwkB6RMLBnlnqQDlJ/j/1W7TB7P/uQKYvhkA4I7rBAN2uQHWhgUBEgKXB
AxOFQLUrjUBNf5XBFV3aQNfjqkBSj4TBiGaVQBfS1kC7jYLBiivnQF9pt0C8RXLBxeyiQNEb40Bz
W27BOF6pQCziq0DI6YXBFDDUQEOF40DFX2zBW29LQGNNZMDSR4nBDZWrQOGzX0A6wrDBTMxbQHoc
RcA6ypTBYlGeQNDOQMAGGJfB4HnWQIDjTUD9S7XBDlKJQCq7gECGap/BDSahQHr2pkDqTZHBzHlF
QKw4gkBhOZDB0Z7RQEkijkB9EqLBnq3fQOjs7UDZ8FbBg5qlQIQ2M8AjeKLBbcOmQJC/nUDL/snB
VD4DQeaOCkEX07HB3a3MQNz4FkGuBr7B8zkLQapux0CeMrDBed7nQL+n9r4S8LzB0y7LQLmq1z94
BqDBlxjJQHo5IsDb97TB3ayrQAZ7vL6CC5jBMm+iQOcW+UBNf8jBWuoTQZRirj/hK7vBJo4XQV0a
gEA5EcHBzO3oQKyJwUBCOorBJg3mQF9hikBOP4bBlKhkQG0S1EDl24LB4vyfQLnn70CLIYjB0Azb
QLAwn0D2B2fBXyIFQc7vuEDvLHHBwnCWQOOSAUG4l2rBNK6VQGa3y0Ck/mLBasqaQEukkUBOUYHB
sQvhQDOW+0BBfnfBHBsGQDT0ZsCvyYfBvSNnQHE+ksBWPojBCmVpQBO/N8C7loPBngeZQGHlI0Ak
j7DBTCGbQCVTh0C23bXBM5M9QLy/ccApc5rBf9Q/QO0BBcCOy5XBzXesQL+RC8AAjZLBIGitQHdM
fcAPo5TBoyxeQGnaakCWBaPBMn2yQNTcuECPUpbB23A7QDqtjUBB3IjBz+IaQD3AXEALjJPBvgrU
QL6EBEG1RlPB

> <OMEGA_E>
4ANOP5BnNz/ArlA/OIs7P76IPD8IyD0/bJo8Pw==

> <OMEGA_NBR>
     38258

$$$$
50209239
  -OEChem-04172616093D

 69 71  0     0  0  0  0  0  0999 V2000
    7.6506    7.9343  -22.8081 C   0  0  0  0  0  0  0  0  0  0  0  0
    6.6056    8.3898  -23.6356 C   0  0  0  0  0  0  0  0  0  0  0  0
    7.9235    6.5566  -22.7130 C   0  0  0  0  0  0  0  0  0  0  0  0
    6.7263   -0.4613  -22.7162 C   0  0  0  0  0  0  0  0  0  0  0  0
    6.3814    0.7828  -20.6509 C   0  0  0  0  0  0  0  0  0  0  0  0
    6.2069   -1.6186  -22.1004 C   0  0  0  0  0  0  0  0  0  0  0  0
    5.8575   -0.3644  -20.0380 C   0  0  0  0  0  0  0  0  0  0  0  0
    5.8275    7.4675  -24.3627 C   0  0  0  0  0  0  0  0  0  0  0  0
    8.4501    2.1181  -23.3727 C   0  0  0  0  0  0  0  0  0  0  0  0
    8.5684    3.5402  -23.7655 C   0  0  0  0  0  0  0  0  0  0  0  0
    6.7939    0.7499  -21.9985 C   0  0  0  0  0  0  0  0  0  0  0  0
    7.1478    5.6295  -23.4400 C   0  0  0  0  0  0  0  0  0  0  0  0
    5.7526   -1.5807  -20.7631 C   0  0  0  0  0  0  0  0  0  0  0  0
    6.0922    6.0868  -24.2670 C   0  0  0  0  0  0  0  0  0  0  0  0
    7.2887    1.9751  -22.6508 C   0  0  0  0  0  0  0  0  0  0  0  0
    7.4481    4.1961  -23.3158 C   0  0  0  0  0  0  0  0  0  0  0  0
    5.5107    4.0420  -20.6447 C   0  0  0  0  0  0  0  0  0  0  0  0
    4.1428    4.4095  -18.6679 C   0  0  0  0  0  0  0  0  0  0  0  0
    3.2175   -3.8404  -17.1819 C   0  0  0  0  0  0  0  0  0  0  0  0
    7.2957    6.4108  -16.6830 C   0  0  0  0  0  0  0  0  0  0  0  0
    6.3536    5.6542  -14.4654 C   0  0  0  0  0  0  0  0  0  0  0  0
    5.3858    3.5154  -22.0652 C   0  0  0  0  0  0  0  0  0  0  0  0
    4.0242   -3.9904  -18.4843 C   0  0  0  0  0  0  0  0  0  0  0  0
    5.0110    5.3227  -16.5540 C   0  0  0  0  0  0  0  0  0  0  0  0
    4.5375   -2.6211  -18.9463 C   0  0  0  0  0  0  0  0  0  0  0  0
    7.1315    3.9372  -16.1799 C   0  0  0  0  0  0  0  0  0  0  0  0
    6.4438    5.3217  -15.9745 C   0  0  0  0  0  0  0  0  0  0  0  0
    6.6990    3.2255  -22.6869 N   0  0  0  0  0  0  0  0  0  0  0  0
    4.3238    4.0497  -19.9108 N   0  0  0  0  0  0  0  0  0  0  0  0
    5.0814    5.0103  -17.9910 N   0  0  0  0  0  0  0  0  0  0  0  0
    2.9693    4.1975  -18.1388 N   0  3  0  0  0  0  0  0  0  0  0  0
    6.6001    4.4041  -20.2017 O   0  0  0  0  0  0  0  0  0  0  0  0
    6.3447    2.8718  -15.6437 O   0  0  0  0  0  0  0  0  0  0  0  0
    5.2317   -2.7487  -20.2152 O   0  0  0  0  0  0  0  0  0  0  0  0
    5.1260    4.9651  -25.2074 Cl  0  0  0  0  0  0  0  0  0  0  0  0
    8.2425    8.6420  -22.2467 H   0  0  0  0  0  0  0  0  0  0  0  0
    6.4007    9.4474  -23.7128 H   0  0  0  0  0  0  0  0  0  0  0  0
    8.7282    6.2088  -22.0822 H   0  0  0  0  0  0  0  0  0  0  0  0
    7.0724   -0.5030  -23.7384 H   0  0  0  0  0  0  0  0  0  0  0  0
    6.4695    1.6991  -20.0860 H   0  0  0  0  0  0  0  0  0  0  0  0
    6.1558   -2.5430  -22.6565 H   0  0  0  0  0  0  0  0  0  0  0  0
    5.5321   -0.3227  -19.0090 H   0  0  0  0  0  0  0  0  0  0  0  0
    5.0259    7.8196  -24.9952 H   0  0  0  0  0  0  0  0  0  0  0  0
    9.1515    1.3322  -23.6110 H   0  0  0  0  0  0  0  0  0  0  0  0
    9.3896    3.9836  -24.3091 H   0  0  0  0  0  0  0  0  0  0  0  0
    2.8541   -4.8273  -16.8592 H   0  0  0  0  0  0  0  0  0  0  0  0
    3.8613   -3.4130  -16.3991 H   0  0  0  0  0  0  0  0  0  0  0  0
    2.3604   -3.1733  -17.3564 H   0  0  0  0  0  0  0  0  0  0  0  0
    7.3649    6.1821  -17.7567 H   0  0  0  0  0  0  0  0  0  0  0  0
    6.8205    7.3936  -16.5474 H   0  0  0  0  0  0  0  0  0  0  0  0
    8.3051    6.4283  -16.2461 H   0  0  0  0  0  0  0  0  0  0  0  0
    5.7517    4.8875  -13.9558 H   0  0  0  0  0  0  0  0  0  0  0  0
    7.3650    5.6733  -14.0332 H   0  0  0  0  0  0  0  0  0  0  0  0
    5.8804    6.6386  -14.3345 H   0  0  0  0  0  0  0  0  0  0  0  0
    4.7937    2.5885  -22.0458 H   0  0  0  0  0  0  0  0  0  0  0  0
    4.8667    4.2692  -22.6753 H   0  0  0  0  0  0  0  0  0  0  0  0
    4.8796   -4.6591  -18.3076 H   0  0  0  0  0  0  0  0  0  0  0  0
    3.3786   -4.4194  -19.2649 H   0  0  0  0  0  0  0  0  0  0  0  0
    4.4035    4.5635  -16.0397 H   0  0  0  0  0  0  0  0  0  0  0  0
    4.5556    6.3140  -16.4128 H   0  0  0  0  0  0  0  0  0  0  0  0
    3.6860   -1.9349  -19.0652 H   0  0  0  0  0  0  0  0  0  0  0  0
    5.2299   -2.2191  -18.1920 H   0  0  0  0  0  0  0  0  0  0  0  0
    7.2754    3.7669  -17.2571 H   0  0  0  0  0  0  0  0  0  0  0  0
    8.1094    3.9467  -15.6763 H   0  0  0  0  0  0  0  0  0  0  0  0
    3.5075    3.7404  -20.3986 H   0  0  0  0  0  0  0  0  0  0  0  0
    5.9093    5.2783  -18.4837 H   0  0  0  0  0  0  0  0  0  0  0  0
    2.7810    4.4968  -17.2034 H   0  0  0  0  0  0  0  0  0  0  0  0
    2.2580    3.7356  -18.6687 H   0  0  0  0  0  0  0  0  0  0  0  0
    6.7913    2.0454  -15.7853 H   0  0  0  0  0  0  0  0  0  0  0  0
  1  2  1  0  0  0  0
  1  3  2  0  0  0  0
  2  8  2  0  0  0  0
  3 12  1  0  0  0  0
  4  6  2  0  0  0  0
  4 11  1  0  0  0  0
  5  7  1  0  0  0  0
  5 11  2  0  0  0  0
  6 13  1  0  0  0  0
  7 13  2  0  0  0  0
  8 14  1  0  0  0  0
  9 10  1  0  0  0  0
  9 15  2  0  0  0  0
 10 16  2  0  0  0  0
 11 15  1  0  0  0  0
 12 14  2  0  0  0  0
 12 16  1  0  0  0  0
 13 34  1  0  0  0  0
 14 35  1  0  0  0  0
 15 28  1  0  0  0  0
 16 28  1  0  0  0  0
 17 22  1  0  0  0  0
 17 29  1  0  0  0  0
 17 32  2  0  0  0  0
 18 29  1  0  0  0  0
 18 30  1  0  0  0  0
 18 31  2  0  0  0  0
 19 23  1  0  0  0  0
 20 27  1  0  0  0  0
 21 27  1  0  0  0  0
 22 28  1  0  0  0  0
 23 25  1  0  0  0  0
 24 27  1  0  0  0  0
 24 30  1  0  0  0  0
 25 34  1  0  0  0  0
 26 27  1  0  0  0  0
 26 33  1  0  0  0  0
  1 36  1  0  0  0  0
  2 37  1  0  0  0  0
  3 38  1  0  0  0  0
  4 39  1  0  0  0  0
  5 40  1  0  0  0  0
  6 41  1  0  0  0  0
  7 42  1  0  0  0  0
  8 43  1  0  0  0  0
  9 44  1  0  0  0  0
 10 45  1  0  0  0  0
 19 46  1  0  0  0  0
 19 47  1  0  0  0  0
 19 48  1  0  0  0  0
 20 49  1  0  0  0  0
 20 50  1  0  0  0  0
 20 51  1  0  0  0  0
 21 52  1  0  0  0  0
 21 53  1  0  0  0  0
 21 54  1  0  0  0  0
 22 55  1  0  0  0  0
 22 56  1  0  0  0  0
 23 57  1  0  0  0  0
 23 58  1  0  0  0  0
 24 59  1  0  0  0  0
 24 60  1  0  0  0  0
 25 61  1  0  0  0  0
 25 62  1  0  0  0  0
 26 63  1  0  0  0  0
 26 64  1  0  0  0  0
 29 65  1  0  0  0  0
 30 66  1  0  0  0  0
 31 67  1  0  0  0  0
 31 68  1  0  0  0  0
 33 69  1  0  0  0  0
M  CHG  1  31   1
M  END
> <OMEGA_C>
+NH0QGnl/UASd7bBIWHTQKE8BkHIFb3Bbo39QMnP0UAxtLXBfz3XQGE17L7AurXBWDTMQLBnSD8A
NaXBr57GQJwtz7+hzbDByHC7QPGYur7CTaDBenq6QHH17kDo5sLBbzMHQZmOB0Bk+7rBWBgJQfCS
YkDGH77B3GfZQLj4Pz/W/K/Bi7rkQCwltEAehbvBchW4QJpVyr/HGqbBavPCQOrGwkDWIsLB1Dzp
QNLP/D/cNLXBrlbuQDFGhkDEhrrBhlewQBtYgUA/KKXBnZGEQKsajUDNV5XBuOpNQP7IdcB1dInB
J3bpQG4lzUC4doXBF1HLQGvvtEA+cmfBIFisQIz7YECUhbDBFMaAQHRjf8Dp35PBeVqgQM5TqkCN
boTBKjORQIbAJ8AakpfBAjXkQL77e0B0cIHBNTPOQKFLqkC9l3/BQF7WQJpuTkCtfrXB61yKQHCX
gUBpSZ/BHZuiQB9UoECN7Y/BlQg+QL5RhkBGHJHB5zPTQLTujEAEnaHBhwfLQD7MN0BlTHrBzWmn
QDbqL8DJuKHBewikQBvinkCuqMnBMOEDQahFCkFC+bHBSdLMQG4oF0HCs73B36YLQYauxkBrqLDB
UlHiQErHAL8n6L3BUgbPQFR72T8OsKDBFvzEQKLAIsB6QLXBKAexQHM7pb5uEpjBQ9SgQOs5+kAZ
9sfBa2wSQRuEqj9D47zB/zsWQTfzfkD0eMLBo6k2QNt4msC634bBDCB3QIFuWsBRMYPBhBAXQKoX
S8DS2YrB8KzrQIzTxUC2DY7BOkHaQCuY7EAtYYTBjeEEQVK0zUAX+IHBpA24QDdmnEDXSl/BR67r
QFSLtUAkiGDBaCy8QC1v1EBQWmXBKmaZQHepJUDFXbDBArybQLCdiEAQZ7XBfyWcQCEXlcD7dZLB
djtYQLZrjcB8HprBc+mMQHkIkkBCUYDBz8eRQJgMykCETYPBqudrQBes97+IhZjBLFunQHUFDsBM
iZHBGdDoQFkVcUB7DorB+r8BQdiWfEAc0nrBVHtgQG9ib0BjMKPBERm9QITnqEC03pPBq/wxQAvm
j0CXoInB4YIQQBsUb0BpWZXBMlLZQB/oAkCFkHzBgdLhQKY990D2LLPBTi7HQEG7AkFJjbvBHybv
QCNHzEDI1LLBcE3oQMXeiD70RqbBhKHBQPQld751ybbB9sXYQLmear/pp6HB2AKyQOuStr8nKrLB
fsS5QHqz6EDmksPB2FgIQe+UA0DdJbvBURsJQdgAX0BTGL7BH7jcQKDhGT+10LDBgJzhQHt6r0BV
0rrBVBK9QEHf4b++jqfBi9LGQLqTvUDbN8PBXLDrQBsb7T+5abXBh/3tQNmTgkAHCrrBmpmwQMu5
fECyLKTBkq6DQIKelkD6F5XBORcvQD3WYMBRRZrBoOPNQKjthkDC7nXBMsvsQPWwy0DsnYLBk1Gt
QK+fU0Dpca/BbiuCQGwafMCADJXBdwudQOHLu0DIj4TBag2mQPamPMCp0JfB78K7QPt5zkC5zmTB
mRfFQGQWt0CkWXrBsZPXQD4ARUBr9bTBx/yJQOqLhUBJn57BrQGjQAm6pUD7I4/BlDU4QMhDmECA
r5HB4LfTQODih0AJeKDBLCLfQHSpy0BZUVbBmSisQKU6O8B8UKPB/W61QJMAmkDcKM3BkvzrQFKn
BkHeB63BOAO9QMc8E0HQ07vBLd4BQQ5dwUBGc6zBYhP9QDVoaz8ywaHBp+a4QIWhsTyo4L7BNuzh
QDlJl79tmZnBznudQB0dBcCsvrbBynalQPC/80Ay/8nB7ScUQV9bpz97Ib3B05gVQeJAfkBFnMLB
TKX5P9WXh8DcLJjB794cQDT8IMDLWJfBU9A2QL3hXsClA6PB0LqxQLjxcEDKO27BM2bUQDvZbEAa
kYLBfcbpQBvOg0CBTmvBEXHmQCrB7UBsKoTB9VoEQeOiyEB7n3rBoFXzQGVBu0CWOYrB3CudQNlq
FUCpnq7BmeaZQHgIfkCFhbTBaiN8QO8rfsAEUIzBZwqLQLwInsDf+pfBxDSBQEm4rUAsfIDBmC+X
QPwE3kAvAobBiS+dQFud+L8ZBJXBC+rDQKPIUMDh5JPB0y61QHVo8EDBI2jB54efQBbJv0BnSV3B
mvVeQD21eEA3eKLBmOjAQHNDokDV2pHBixorQP4HpUD4iIrBydkIQF/BjECSO5bB3UzYQJw42kBO
a0nBLHv0QM10/kC8orbBgmrTQHVSBkHobL3BrVf9QHNx0kBGvbXBBEzPQLpRUj/IMKXBuLHXQH0S
6b7epLXBdFu+QOnnmr5dFqDB2zzGQLHEy7+fh7DBAhO7QEDR7kDtSsPBhvMHQc1QCUC15brBHasJ
QWNyZEC3/L3BL/zaQPb4Qz+3CLDBiQnlQH97tED1mLvBdVW4QJ8pwr9mxaXBoLjDQBC2wkBXZ8LB
sk7qQBtN/j+LV7XB3ffuQNO+hkAEi7rB+bSvQN+LgUBpZ6XB7muEQOd6i0B4ZJXBEUaPQHUUlcDH
hI/BMt/rQFCflEC1C4HBVGjfQAgl3UCJhonB2mWsQAp7YECow7DBZp9jQNqyYsBUnJPBbAagQNnG
rED274TBdfCLQEilFcDxbJfBzlXKQI76z0DnSmzBgDPNQL+3u0CUdIHB7uvWQMnKTkBqpLXB+K2J
QNxPgUAad5/BHlSjQLn3nEAx8o/BsMU+QGf+g0D98pDBNnDSQIaujUBY5aHBxpevQFQk9UAeR2zB
2mGkQLCsJ8DvIaHBRMalQDVmnkCHC8rBfYMDQYisCkF2HrLBP7fMQP82F0FpIr7BnGQLQVOYx0Aq
j7DBnXDTQMvE3j/8xKDBGoDiQPxMBb+F1b3B28C1QAoxfb4pu5fBBH/DQNd1IcBM27TBPrmhQMDK
+UAPfMjBTmwTQcNMrz8qsLzBf+AWQfbIgEAyNMLBzpp3QG1bsMDk04zBJKqkQOF0n8APApbBe3ui
QAIIicClyYjBn1jfQN2beUAKv3bBJTnuQGw1hkB3DYnB+OIFQUIsn0DB2HzBc+/JQBAA+UAx4onB
WFj/QGx850D04IbBjcvhQJaFzkALgpHBSOSZQGecJEDYl7DBAJ6bQPn0h0CWu7XBzzg9QMA8e8Bz
UZrBfds4QAJjTsAJGY3BHtOUQLICk0CPRX/BRnqJQDfFx0CDlYTB3dVrQNqQwL+sDJnBiVmiQK4u
A8BDC5HBDQG9QCBEuECAH2HBnKjqQM4g2UA+CWfBmateQI2KcEBvZ6PBELK/QAvbn0DKk5PB0wM1
QC+0i0AASInBu8MPQMoXbUBDNpXBOHauQGBnAEG+QF7B

> <OMEGA_E>
wH8yP/BwVT+gzzc/

> <OMEGA_NBR>
     41849

$$$$
50209255
  -OEChem-04172616093D

 64 66  0     1  0  0  0  0  0999 V2000
    7.5419    7.9559  -22.9444 C   0  0  0  0  0  0  0  0  0  0  0  0
    6.4912    8.3502  -23.7958 C   0  0  0  0  0  0  0  0  0  0  0  0
    7.8596    6.5921  -22.8043 C   0  0  0  0  0  0  0  0  0  0  0  0
    6.4556    0.8298  -20.5445 C   0  0  0  0  0  0  0  0  0  0  0  0
    6.8654   -0.4231  -22.5967 C   0  0  0  0  0  0  0  0  0  0  0  0
    5.8956   -0.3160  -19.9501 C   0  0  0  0  0  0  0  0  0  0  0  0
    6.3032   -1.5677  -22.0047 C   0  0  0  0  0  0  0  0  0  0  0  0
    5.7527    7.3803  -24.5023 C   0  0  0  0  0  0  0  0  0  0  0  0
    8.5414    2.1610  -23.2758 C   0  0  0  0  0  0  0  0  0  0  0  0
    8.6157    3.5662  -23.7322 C   0  0  0  0  0  0  0  0  0  0  0  0
    6.9082    0.7898  -21.8828 C   0  0  0  0  0  0  0  0  0  0  0  0
    7.1230    5.6177  -23.5093 C   0  0  0  0  0  0  0  0  0  0  0  0
    5.7973   -1.5202  -20.6894 C   0  0  0  0  0  0  0  0  0  0  0  0
    6.0619    6.0129  -24.3608 C   0  0  0  0  0  0  0  0  0  0  0  0
    7.3785    2.0115  -22.5576 C   0  0  0  0  0  0  0  0  0  0  0  0
    7.4660    4.2008  -23.3290 C   0  0  0  0  0  0  0  0  0  0  0  0
    5.5046    4.0971  -20.6778 C   0  0  0  0  0  0  0  0  0  0  0  0
    4.1455    4.3621  -18.6806 C   0  0  0  0  0  0  0  0  0  0  0  0
    3.9252   -4.1797  -17.0517 C   0  0  0  0  0  0  0  0  0  0  0  0
    5.4100    3.5088  -22.0758 C   0  0  0  0  0  0  0  0  0  0  0  0
    3.8602   -3.1605  -18.2004 C   0  0  0  0  0  0  0  0  0  0  0  0
    5.0335    5.3594  -16.6252 C   0  0  0  0  0  0  0  0  0  0  0  0
    5.2524   -2.9957  -18.8403 C   0  0  0  0  0  0  0  0  0  0  0  0
    7.5333    5.0183  -16.2688 C   0  0  0  0  0  0  0  0  0  0  0  0
    6.3796    6.0480  -16.3460 C   0  0  1  0  0  0  0  0  0  0  0  0
    6.7418    3.2347  -22.6656 N   0  0  0  0  0  0  0  0  0  0  0  0
    4.3141    4.0954  -19.9493 N   0  0  0  0  0  0  0  0  0  0  0  0
    5.1518    4.6334  -17.8995 N   0  0  0  0  0  0  0  0  0  0  0  0
    2.9432    4.2616  -18.1856 N   0  3  0  0  0  0  0  0  0  0  0  0
    6.5801    4.5053  -20.2409 O   0  0  0  0  0  0  0  0  0  0  0  0
    7.2325    3.9909  -15.3233 O   0  0  0  0  0  0  0  0  0  0  0  0
    6.6577    6.9785  -17.3962 O   0  0  0  0  0  0  0  0  0  0  0  0
    5.1027   -2.6254  -20.2333 O   0  0  0  0  0  0  0  0  0  0  0  0
    5.1430    4.8306  -25.2741 Cl  0  0  0  0  0  0  0  0  0  0  0  0
    8.1036    8.7001  -22.3993 H   0  0  0  0  0  0  0  0  0  0  0  0
    6.2513    9.3973  -23.9071 H   0  0  0  0  0  0  0  0  0  0  0  0
    8.6690    6.2911  -22.1557 H   0  0  0  0  0  0  0  0  0  0  0  0
    6.5400    1.7439  -19.9756 H   0  0  0  0  0  0  0  0  0  0  0  0
    7.2646   -0.4741  -23.5989 H   0  0  0  0  0  0  0  0  0  0  0  0
    5.5408   -0.2773  -18.9307 H   0  0  0  0  0  0  0  0  0  0  0  0
    6.2583   -2.4914  -22.5624 H   0  0  0  0  0  0  0  0  0  0  0  0
    4.9476    7.6858  -25.1540 H   0  0  0  0  0  0  0  0  0  0  0  0
    9.2711    1.3894  -23.4719 H   0  0  0  0  0  0  0  0  0  0  0  0
    9.4291    4.0135  -24.2842 H   0  0  0  0  0  0  0  0  0  0  0  0
    2.9275   -4.2901  -16.6019 H   0  0  0  0  0  0  0  0  0  0  0  0
    4.2607   -5.1516  -17.4425 H   0  0  0  0  0  0  0  0  0  0  0  0
    4.6344   -3.8269  -16.2884 H   0  0  0  0  0  0  0  0  0  0  0  0
    4.8456    2.5660  -22.0247 H   0  0  0  0  0  0  0  0  0  0  0  0
    4.8769    4.2207  -22.7231 H   0  0  0  0  0  0  0  0  0  0  0  0
    3.1494   -3.5148  -18.9615 H   0  0  0  0  0  0  0  0  0  0  0  0
    3.5231   -2.1900  -17.8073 H   0  0  0  0  0  0  0  0  0  0  0  0
    4.7991    4.6545  -15.8140 H   0  0  0  0  0  0  0  0  0  0  0  0
    4.2360    6.1135  -16.6976 H   0  0  0  0  0  0  0  0  0  0  0  0
    5.8092   -2.2093  -18.3096 H   0  0  0  0  0  0  0  0  0  0  0  0
    5.8029   -3.9455  -18.7704 H   0  0  0  0  0  0  0  0  0  0  0  0
    7.6791    4.5648  -17.2603 H   0  0  0  0  0  0  0  0  0  0  0  0
    8.4558    5.5326  -15.9615 H   0  0  0  0  0  0  0  0  0  0  0  0
    6.3137    6.5732  -15.3818 H   0  0  0  0  0  0  0  0  0  0  0  0
    3.4876    3.8610  -20.4612 H   0  0  0  0  0  0  0  0  0  0  0  0
    6.0612    4.3294  -18.1835 H   0  0  0  0  0  0  0  0  0  0  0  0
    2.7933    4.3928  -17.2057 H   0  0  0  0  0  0  0  0  0  0  0  0
    2.1711    4.0532  -18.7860 H   0  0  0  0  0  0  0  0  0  0  0  0
    7.9508    3.3701  -15.2904 H   0  0  0  0  0  0  0  0  0  0  0  0
    7.4888    7.4070  -17.2284 H   0  0  0  0  0  0  0  0  0  0  0  0
  1  2  1  0  0  0  0
  1  3  2  0  0  0  0
  2  8  2  0  0  0  0
  3 12  1  0  0  0  0
  4  6  2  0  0  0  0
  4 11  1  0  0  0  0
  5  7  1  0  0  0  0
  5 11  2  0  0  0  0
  6 13  1  0  0  0  0
  7 13  2  0  0  0  0
  8 14  1  0  0  0  0
  9 10  1  0  0  0  0
  9 15  2  0  0  0  0
 10 16  2  0  0  0  0
 11 15  1  0  0  0  0
 12 14  2  0  0  0  0
 12 16  1  0  0  0  0
 13 33  1  0  0  0  0
 14 34  1  0  0  0  0
 15 26  1  0  0  0  0
 16 26  1  0  0  0  0
 17 20  1  0  0  0  0
 17 27  1  0  0  0  0
 17 30  2  0  0  0  0
 18 27  1  0  0  0  0
 18 28  1  0  0  0  0
 18 29  2  0  0  0  0
 19 21  1  0  0  0  0
 20 26  1  0  0  0  0
 21 23  1  0  0  0  0
 22 25  1  0  0  0  0
 22 28  1  0  0  0  0
 23 33  1  0  0  0  0
 24 25  1  0  0  0  0
 24 31  1  0  0  0  0
 25 32  1  0  0  0  0
  1 35  1  0  0  0  0
  2 36  1  0  0  0  0
  3 37  1  0  0  0  0
  4 38  1  0  0  0  0
  5 39  1  0  0  0  0
  6 40  1  0  0  0  0
  7 41  1  0  0  0  0
  8 42  1  0  0  0  0
  9 43  1  0  0  0  0
 10 44  1  0  0  0  0
 19 45  1  0  0  0  0
 19 46  1  0  0  0  0
 19 47  1  0  0  0  0
 20 48  1  0  0  0  0
 20 49  1  0  0  0  0
 21 50  1  0  0  0  0
 21 51  1  0  0  0  0
 22 52  1  0  0  0  0
 22 53  1  0  0  0  0
 23 54  1  0  0  0  0
 23 55  1  0  0  0  0
 24 56  1  0  0  0  0
 24 57  1  0  0  0  0
 25 58  1  0  0  0  0
 27 59  1  0  0  0  0
 28 60  1  0  0  0  0
 29 61  1  0  0  0  0
 29 62  1  0  0  0  0
 31 63  1  0  0  0  0
 32 64  1  0  0  0  0
M  CHG  1  29   1
M  END
> <OMEGA_C>
fFfxQLeW/kAsjrfB67fPQGWaBUG3Xb7BPYL7QFzy0kAwb7bBeJTOQKNtVD81W6TBubHbQPaa2L73
xbTBcKi8QPrMob6+mZ/Bo7PJQOGoyL+bCbDBXRa4QHIr7ECzBMTBZqkIQc5NCkDKNLrBCNoJQZ08
ZECh273BoQ/dQLowSj/kD6/BWO/jQDLEs0AjE7zB24O5QEiVwr/pg6XBEfvBQJdpwED74sLBfxzs
QFK8AEDddbTBaenuQJZshkC0obrB6iWwQJ4bg0ArbKXBLaiEQD2Wi0DfcZXBSzd7QLm/hcDQaYjB
yx6tQIaQYEAvm7DBSg53QCZGSsBZmpHBqRKhQFiAq0CAAIXBDxSoQIW5P8DyuJbBbRDxQEKWoEB1
JoLBgiXMQFKJwUCmxILBvLzXQBgFT0ApU7XBFA2KQD4Ng0AZmJ/BsNukQNJElEA4Mo/Bzlw8QNxe
iEAufJHBDpDSQIArkEBu7aHBmXDnQNRqf0BJLHXB7AvVQNpP30CBK4vBn0mjQBcHKMDE3aHBUJOk
QG6UmkBqMcrBWqgBQYMzC0HUMbPB/grIQHBbFkGnQb/BYLQKQV9QyUDePrHB/kfRQO033z8Azp/B
U3foQMi/8r6QyrzBVk6xQMf/jb4hcpfBG0TIQOhzH8Czf7TBWFKeQOTx9UB6O8nBbVYUQQHXsT96
xrvBlN0WQQBvgEAkRsLBQlw7QGdIicCk0ITB5leIQOzZpMBKiovBDk2UQETrdMCRToLBUg+bQNs5
JECAMrDBbQ+cQNQPh0DoyLXBe5BJQFDyYMAQsZfBzHphQLspDMBXdY7BYpKZQI/xlEAfBn3BTI2H
QDKiw0CdlIXB+OS5QFJlDcAeepLBr7G5QK+CfMDdKZbB7br1QBATkkAKFYrBHEsHQdUKsUBhYn/B
IgrKQPhX0kCtG3bBdjVfQEsbd0CAsKPBX/XBQMOKikC+d5HBCMUyQDqSjEA+pYnBKfMKQCK0gUDU
SZbBTW3+QKivV0BapXTBfqTvQMoF7UDd04nByo/zQDV+/UBJxbXBFcvSQGcQBkEdl7zBA3X8QGpt
0UALDbXBrcPYQF7Q9b4+rbXBZYDLQGXePz8qL6XBxevHQDyK0r8T7LDBFXy6QDPMz77zc6DBZMS6
QG+w7kBzqMLB08IHQfcJCEACa7rB6oAJQXtBY0AQfL3BCd3ZQCFMOj+34K/Bg3jkQGXVs0A/HLvB
oxW4QDwZz7/KVqbBCGvDQGWGwkBc78HBu6jpQMQD+z9U+bTB/FTuQIL5hUBRMbrBS7SvQGpWgECs
PaXBLNmEQGr7jkAPgpXBHD1KQGr0e8DoTIrBOLirQBtEXkDQk7DBGuN9QBvagcAlvpTBAwSfQG0t
tkCaxYXB8duPQIWgK8DfI5jBdknWQFtQfkBHN4DBHaioQF5kkEA6jXzBBCDWQOXTTEC5arXBAzmK
QLhegEB5NZ/BgN6gQGmZqEBKDpHBViBCQAlehUBUrZDBR5rSQDcXjEDTw6HBqgTfQCnCOUBtDHLB
HFukQJc6n0C3HWfBPQ2nQM61MsDdKaLBx8+lQJ+4nkBMzMnBi+0CQbQJCkFpGLHBUBTMQLL5FkEf
K73BdtgKQQ9AxkC92a/BUtXkQLByA7+0xL3BEp/NQGDU1D9BmqDBWR3HQNNJJMA1arXBiCevQAcp
v75qS5jBgaehQB8A+kB+4MfBuU8TQWIPrT9BJrzBvtMWQUJPgEBMlcHBp1YyQGy4ncBw8ofB2aRz
QHdvYsAy8IPBmNITQBdtUMBnjYvBai6ZQJNwIkBDY7DBotqaQDXkhkDsg7XBvRaaQP6sl8B0eJPB
OFtUQM+rjsCpFZvBd6V9QGKQwkBuBITBs8q2QJSQz0Cla4TBI5NpQHHH/r8hK5nBfnKlQEPeEsCd
6pHBR+fYQOIYZ0Byf4jBIJXtQOAEmUA3z33B65KRQLE2bUBHxH/BR8hgQNNxZ0A6t6LBgeS4QFmR
s0DXkpXBt1o1QC2ckUDOdYnBTxgYQE2GY0DaMZTBSCH7QFnRJEDfgnTBOimqQBtviEC/fF3BPa7h
QNBB90AJGrPBr/bGQDK2AkHsd7vBxCvvQIBXzECkxbLBDdDVQJfBBr/hJLfBRXfVQDKiCT8Pi6XB
kpfFQBGO2r8/krLBDsXFQMzLJL+W9KDBtqG5QN6m6EDbfsPBA+IHQfvGAkBbkbvBoMoIQaFtXkB7
Zr7BvDTdQH6HGT/EoLDBJsThQBqJr0AVxrrBa/+8QPOT4r/7fqfBU+DGQC6VvUDOKMPBZ+TrQAT0
7D9LXbXBzzbuQGShgkBM/7nBt5qwQHnEfEALG6TB+p2DQJK3lkAcE5XBf2svQPS2eMAYCo/B9Jet
QEZaVEBrZa/BhohpQFDagMAU5pjBa2aeQHztukC6hYTBs4KSQCv+M8AS0ZnBebypQFyNrkCpWmHB
T6ahQPramEBeJnfBXiDYQC5nRUDexrTBrfiJQIC9hEB+fp7B0fOiQBRAp0C+YI/BoDU4QMijmECq
opHBvaPTQEyGiEClc6DB2d2tQF7pjkC7/VDBpMh1QBakgECGE3bBUvKrQDlAPMAacqPBcnS1QBb7
mUBvF83BiMfrQGKqBkGo86zB86y8QCkzE0F8u7vBluQBQVB4wUBrZKzBU5HcQBtO9749nL/B4Z7b
QC41sz9Ik6DB/K+/QKp8JMBAjrfBkVnAQD9GMr/HbpjBxz6lQASm80Bg6MnBwToTQf5mpD/R7r3B
RxgVQWpafUCAE8PBnBwFQHhmmMAEeY7BlxZXQAaBdMDcyYfBx3kIQDNiPsC5zI/BUCmdQPJdFkAv
q67BuZaaQJZTf0AIf7TBNCWIQMUSnsAWH5jBl61BQFsDg8DzIaDBex1+QG3OykAg/YPB8/C3QNi5
0kAkZYPBTaB+QNcl8r8BOZrBuLWnQPVOMcCzzJLBH1/HQOZ3wUARN2LBm7SOQD7Dw0Cyh13BM828
QEejg0AVvnrByERfQKU2dEDmLaLBlUfAQFabpkAYk5LBjSQrQEy7pkAcpIrBBuYIQFUEjECHAJbB
ENayQByJnEDVoUPBxEp6QG+gV0DGD2vB7SsAQXt//EA0IbbBwpvbQGN3B0GPvbrBojwDQXHfz0A2
jbbB2OjQQCLhVT96haXB+iTRQNhb7b47+bXBVrS/QNyygr7F7p/BgNW/QOe3yL95WLDBFiq9QMPH
9EBG27/Bnp8FQaZ8BEBoAb3BSxwIQQI5YEBi4r/BgbTYQPrdQT8NnLDBONvnQM9PtUANjrvBfOG1
QGR2u7+2UaXBtyrDQKoayEBTXMDB/0ToQBO++j90ZbbB7bnuQDtuhkAcbbvBoViyQHjsfkBziqXB
BZiFQP83hUCnx5XBBnuRQJJLjMBQ1IzBWOetQGpmYUDf8LDBwjFiQEgmXMA9NpLBnuadQClKrkBh
c4bBBoGHQFksDcBD+ZbBrqzjQAsRg0C8BonBoNm7QPEwi0CR74HBXgfXQOoBT0AlN7bBiH+OQJ5D
bkD3UZ/ByuKWQM0vqEAWCJLBfBhSQG6KYEDGQJDB6SzSQE4dk0ASf6LBh4v1QGAuqkBo54zBw13J
QFUKmECcKG/BqtuiQBTnIsDvFaDBvu2dQMFqqUBVicfBnesLQcBKCEEuRLLBv8jWQESPGEFpWrrB
12ARQevgwUA2B7PBLEjYQMOl3z/0RaHB0JLYQE0eDr82Yb7BfeG5QCpgMb4LcZfBmSu6QKjiH8Ci
gLTBGBGhQD6BAUHhacPB3sEPQU86oT9vo7/BftoUQWMse0A2psTB0oiAQG8lqMDNgonBSgapQCYl
l8BEyJLB0wqiQAhidsD7WIbBAXWaQPi4JkCkBbHB/nGdQH3jiUD7gbXBMyRBQNrhfsDPp5jBRS0z
QJf5RsCGOIzB9d19QDG5rEAISYLB+YqsQLHXzUBSGoXBgvBdQKjjvr+ZpZnBmlWbQOzC3r+tupDB
j/z7QHNMZEBvRYTBm0faQNw/XkAR44/BKpOpQHBdWkBJZ4HBHlFxQKKKR0C5maLByI+fQERTv0BB
HZfBW0hAQLXidUAYDInBTSQ4QOoTK0DOOJPB0OsGQY0bpEA1NpHBR9HbQLrigkDXUmnBN8vxQGMj
/kDKpbbBtkHQQDbQBUErYb3BD7X7QOtT0kDiy7XBlnPPQIRiRz/Jp6TBj8fYQFJZ6L75S7XBTxK/
QJL4v75etp/BQ1rHQPE9zb+wbrDB0Ye4QN1M7UAcPsPBBR8IQQwECUBgb7rBgJgJQXLIY0Apv73B
TKDbQLieQD/cgq/BNfTjQDHUs0ChoLvB+Xu5QOxjyb9RraXBqTHCQNJiwUB6Y8LBD8zqQBKb/T9s
zrTBoILuQK00hkDOcrrByrmvQJEMg0DsfaXBw7OEQK2NjEBgfZXBAzJkQONffcDP6IfBeWqsQFZH
X0BTmrDBKi51QK3FdsBvApTBup2hQCKWqUCK3YTBIfGZQAOsLcApX5bBhXXNQDcDwECe7GnBTurN
QIqsp0AcTX/B3erWQMfOTUCSYrXBLMOJQBODg0Aonp/BOlilQInqlECuVI/BDic8QH2KikC8jZHB
HQ3SQBgPkUD9LaLBd3auQF1erkCyoVvB5SjaQIAGeEACD3zB56alQC3SLcDsoaHBV+CkQHKDnEDY
AsrBOvMBQfWzCkG4I7LBF7nIQPKfFkEhDL7Bg8YKQUwKyEA7q7DBPbvSQL6A2D+vG6DBKPXjQO3O
/r7+dr3B+6y2QEPqs75UVZfBppLEQHkgIcDy+rTBA92eQCC990AGaMjBR7QTQTUjrz+sI7zBtcEW
QfVygEBXAMLBQCk3QF4FmcBpW4bBOGGQQIbvhMAttIPBqYlIQIjpQMBJBIXBXJGaQMDBIkCmDrDB
awabQIsKhkDG0LXB/VWIQFWzmcBQ35bBMnM4QCdxasBsL5jBHCKKQAh+mEDkyX/Bj4SXQIoUy0BR
14XBl7uKQKl34L/tXpTB3um2QDsPNsAifJHBV1HtQOXZvUCxhGLBhpvFQPLI4UBP9WzBm/jkQGBq
t0C2AoXBq1ZeQM0CeEAJp6PBAYfCQPHAjEDN5pHBvoYyQAtvj0BlvYnB+5QKQCcbhEDwWZbBM8Su
QCPkvUA4kE7BJqb1QML+dUCPlnXBpaTzQNo5/UD9ELXByRjTQLxMBkGM2bvBOGf8QPgT0UAvmbTB
qqXJQFiIQD8zKaXBmBfVQEpG6r6c37XBFo+6QD7+2L6mU6DBZb7FQAJP0b9jDLHBrxu7QDrP70Dx
HcLBHRsHQUSqB0CwDLrBHVUJQVfsYkDTA73BQdvWQKixPT8f96/Ba3DkQGIgtEAk3LrB7Da4QCDR
z78US6bB/I/DQAyQw0B1ocHBuXTnQJSU+z9s/rTBMajtQFoVhkB2FLrBe32uQEidgEC5gqXBfQSF
QJTsjUDMepXBQxkxQIBRasDJ4YzBtfmpQCeTX0CO1bDByfV6QHaUe8ARtZTBwd2jQGq0r0BhXYXB
JJOBQCLGMMDMlpzBbz2yQNQ4n0AfDWTBhVenQHTgi0Cn/nnBCWzUQN1QTUDElLXBSoWJQNnZf0Ai
RJ/BBKSlQGRWnUBCJZDBVDU9QPYAjUDWYpHBKUzRQG74jUAkWaLBhcSSQFLpvUDHyV3BV/V/QOlo
aUCKvnjBzC6rQHGSM8B3paHB/+WlQDyXoECntsnBWe8CQZmmCUHiObDBP4bMQOs+F0FDP7zBgsEK
QbZWxUAFcK/B7yjLQL2M1T9gmqDBDIbfQGD78b4QHL7B7rqwQDE+075EC5jBx1PEQE5OI8Azm7XB
CiuiQISw+0ACT8fBJKYSQRFuqz9+lbvB4A4XQXTuf0Biz8DBhHMrQPsLkMAgP4fBNfs9QA4HL8A/
a4jBcPPpP050Y8ABYZHB4f2WQBJNJECvsbDB9oGZQFXmh0Cwv7XBJ4WbQLc8gcC7M5DB0AhuQFhz
m8B9KZnBsleFQNK4wECpT4TBVI6+QARExkAcUITBN/pQQCzfNcCwuqLBX/B7QDvf57/xQJjBWG2z
QF96hUAdEFjBO6bRQH4Br0DQ92TBunDBQOZ3bECmuX7Biu9eQD6JZkC5qqLBYTjCQFWAnED4vJPB
hQwzQPw9mEANAYrB+4EMQGwPgUC9oZXB4ReaQJp0yUBTNlDBCX2CQFJNPUCuW27B

> <OMEGA_E>
AKI8P9yUPD9So1A/IhFgP0wEOj8M5jY/

> <OMEGA_NBR>
     48298

$$$$
50209257
  -OEChem-04172616093D

 64 66  0     0  0  0  0  0  0999 V2000
    7.6464    7.9260  -22.7662 C   0  0  0  0  0  0  0  0  0  0  0  0
    6.6058    8.3816  -23.5993 C   0  0  0  0  0  0  0  0  0  0  0  0
    7.9270    6.5493  -22.6792 C   0  0  0  0  0  0  0  0  0  0  0  0
    6.7269   -0.4679  -22.7213 C   0  0  0  0  0  0  0  0  0  0  0  0
    6.3685    0.7706  -20.6552 C   0  0  0  0  0  0  0  0  0  0  0  0
    6.1964   -1.6250  -22.1142 C   0  0  0  0  0  0  0  0  0  0  0  0
    5.8341   -0.3765  -20.0509 C   0  0  0  0  0  0  0  0  0  0  0  0
    5.8422    7.4604  -24.3432 C   0  0  0  0  0  0  0  0  0  0  0  0
    8.4722    2.1126  -23.3437 C   0  0  0  0  0  0  0  0  0  0  0  0
    8.5959    3.5363  -23.7307 C   0  0  0  0  0  0  0  0  0  0  0  0
    6.7928    0.7407  -21.9992 C   0  0  0  0  0  0  0  0  0  0  0  0
    7.1647    5.6233  -23.4217 C   0  0  0  0  0  0  0  0  0  0  0  0
    5.7296   -1.5899  -20.7810 C   0  0  0  0  0  0  0  0  0  0  0  0
    6.1158    6.0808  -24.2569 C   0  0  0  0  0  0  0  0  0  0  0  0
    7.2984    1.9665  -22.6425 C   0  0  0  0  0  0  0  0  0  0  0  0
    7.4666    4.1896  -23.2998 C   0  0  0  0  0  0  0  0  0  0  0  0
    5.5151    4.0344  -20.6502 C   0  0  0  0  0  0  0  0  0  0  0  0
    8.3609    4.1892  -15.4272 C   0  0  0  0  0  0  0  0  0  0  0  0
    4.1577    4.4251  -18.6797 C   0  0  0  0  0  0  0  0  0  0  0  0
    3.1911   -3.8552  -17.2037 C   0  0  0  0  0  0  0  0  0  0  0  0
    5.3928    3.5064  -22.0715 C   0  0  0  0  0  0  0  0  0  0  0  0
    7.3381    4.8069  -16.4009 C   0  0  0  0  0  0  0  0  0  0  0  0
    3.9919   -4.0031  -18.5103 C   0  0  0  0  0  0  0  0  0  0  0  0
    5.8794    4.6780  -15.8926 C   0  0  0  0  0  0  0  0  0  0  0  0
    4.9576    5.6185  -16.6768 C   0  0  0  0  0  0  0  0  0  0  0  0
    4.5092   -2.6338  -18.9687 C   0  0  0  0  0  0  0  0  0  0  0  0
    6.7093    3.2167  -22.6844 N   0  0  0  0  0  0  0  0  0  0  0  0
    4.3382    4.0182  -19.9076 N   0  0  0  0  0  0  0  0  0  0  0  0
    4.9699    5.2843  -18.1181 N   0  0  0  0  0  0  0  0  0  0  0  0
    3.0604    4.0476  -18.0828 N   0  3  0  0  0  0  0  0  0  0  0  0
    9.5864    4.3202  -15.6879 O   0  5  0  0  0  0  0  0  0  0  0  0
    6.6003    4.4023  -20.2030 O   0  0  0  0  0  0  0  0  0  0  0  0
    7.9771    3.6059  -14.3764 O   0  0  0  0  0  0  0  0  0  0  0  0
    5.1966   -2.7570  -20.2421 O   0  0  0  0  0  0  0  0  0  0  0  0
    5.1700    4.9603  -25.2191 Cl  0  0  0  0  0  0  0  0  0  0  0  0
    8.2289    8.6330  -22.1941 H   0  0  0  0  0  0  0  0  0  0  0  0
    6.3932    9.4382  -23.6680 H   0  0  0  0  0  0  0  0  0  0  0  0
    8.7273    6.2015  -22.0429 H   0  0  0  0  0  0  0  0  0  0  0  0
    7.0828   -0.5079  -23.7402 H   0  0  0  0  0  0  0  0  0  0  0  0
    6.4556    1.6845  -20.0863 H   0  0  0  0  0  0  0  0  0  0  0  0
    6.1464   -2.5473  -22.6739 H   0  0  0  0  0  0  0  0  0  0  0  0
    5.5002   -0.3368  -19.0246 H   0  0  0  0  0  0  0  0  0  0  0  0
    5.0450    7.8126  -24.9811 H   0  0  0  0  0  0  0  0  0  0  0  0
    9.1784    1.3280  -23.5717 H   0  0  0  0  0  0  0  0  0  0  0  0
    9.4264    3.9822  -24.2579 H   0  0  0  0  0  0  0  0  0  0  0  0
    2.8249   -4.8419  -16.8838 H   0  0  0  0  0  0  0  0  0  0  0  0
    3.8400   -3.4339  -16.4218 H   0  0  0  0  0  0  0  0  0  0  0  0
    2.3362   -3.1837  -17.3718 H   0  0  0  0  0  0  0  0  0  0  0  0
    4.8004    2.5796  -22.0536 H   0  0  0  0  0  0  0  0  0  0  0  0
    4.8765    4.2598  -22.6845 H   0  0  0  0  0  0  0  0  0  0  0  0
    7.5736    5.8737  -16.5295 H   0  0  0  0  0  0  0  0  0  0  0  0
    7.4202    4.2939  -17.3705 H   0  0  0  0  0  0  0  0  0  0  0  0
    4.8452   -4.6761  -18.3400 H   0  0  0  0  0  0  0  0  0  0  0  0
    3.3413   -4.4259  -19.2900 H   0  0  0  0  0  0  0  0  0  0  0  0
    5.5387    3.6407  -16.0269 H   0  0  0  0  0  0  0  0  0  0  0  0
    5.8426    4.9407  -14.8250 H   0  0  0  0  0  0  0  0  0  0  0  0
    3.9314    5.5210  -16.2927 H   0  0  0  0  0  0  0  0  0  0  0  0
    5.3019    6.6548  -16.5438 H   0  0  0  0  0  0  0  0  0  0  0  0
    3.6602   -1.9433  -19.0796 H   0  0  0  0  0  0  0  0  0  0  0  0
    5.2073   -2.2386  -18.2159 H   0  0  0  0  0  0  0  0  0  0  0  0
    3.5321    3.6499  -20.3708 H   0  0  0  0  0  0  0  0  0  0  0  0
    5.6411    5.7439  -18.6998 H   0  0  0  0  0  0  0  0  0  0  0  0
    2.8291    4.4157  -17.1822 H   0  0  0  0  0  0  0  0  0  0  0  0
    2.4508    3.3903  -18.5259 H   0  0  0  0  0  0  0  0  0  0  0  0
  1  2  1  0  0  0  0
  1  3  2  0  0  0  0
  2  8  2  0  0  0  0
  3 12  1  0  0  0  0
  4  6  2  0  0  0  0
  4 11  1  0  0  0  0
  5  7  1  0  0  0  0
  5 11  2  0  0  0  0
  6 13  1  0  0  0  0
  7 13  2  0  0  0  0
  8 14  1  0  0  0  0
  9 10  1  0  0  0  0
  9 15  2  0  0  0  0
 10 16  2  0  0  0  0
 11 15  1  0  0  0  0
 12 14  2  0  0  0  0
 12 16  1  0  0  0  0
 13 34  1  0  0  0  0
 14 35  1  0  0  0  0
 15 27  1  0  0  0  0
 16 27  1  0  0  0  0
 17 21  1  0  0  0  0
 17 28  1  0  0  0  0
 17 32  2  0  0  0  0
 18 22  1  0  0  0  0
 18 31  1  0  0  0  0
 18 33  2  0  0  0  0
 19 28  1  0  0  0  0
 19 29  1  0  0  0  0
 19 30  2  0  0  0  0
 20 23  1  0  0  0  0
 21 27  1  0  0  0  0
 22 24  1  0  0  0  0
 23 26  1  0  0  0  0
 24 25  1  0  0  0  0
 25 29  1  0  0  0  0
 26 34  1  0  0  0  0
  1 36  1  0  0  0  0
  2 37  1  0  0  0  0
  3 38  1  0  0  0  0
  4 39  1  0  0  0  0
  5 40  1  0  0  0  0
  6 41  1  0  0  0  0
  7 42  1  0  0  0  0
  8 43  1  0  0  0  0
  9 44  1  0  0  0  0
 10 45  1  0  0  0  0
 20 46  1  0  0  0  0
 20 47  1  0  0  0  0
 20 48  1  0  0  0  0
 21 49  1  0  0  0  0
 21 50  1  0  0  0  0
 22 51  1  0  0  0  0
 22 52  1  0  0  0  0
 23 53  1  0  0  0  0
 23 54  1  0  0  0  0
 24 55  1  0  0  0  0
 24 56  1  0  0  0  0
 25 57  1  0  0  0  0
 25 58  1  0  0  0  0
 26 59  1  0  0  0  0
 26 60  1  0  0  0  0
 28 61  1  0  0  0  0
 29 62  1  0  0  0  0
 30 63  1  0  0  0  0
 30 64  1  0  0  0  0
M  CHG  2  30   1  31  -1
M  END
> <OMEGA_C>
Bq/0QNqh/UAjIbbBrGLTQAUbBkF3y7zB4an9QBiU0UD/brXBd0LXQOiU775SxbXBfcrLQMlGRT/U
PaXB8kjGQM4A0L/z6bDB8rC6QP7AwL5DaKDBDvO6QMq77kDRvsLB7o0HQcU0B0Div7rB3ogJQWFT
YkBo2L3Bfl7ZQBGcPT9X/q/BV0XlQArys0CzX7vB91i3QDqAy79/P6bBxrTDQOqVwkAmDsLB24zp
QC63+z/xI7XBq+7uQPoQhkAQZrrBcXuwQBIagUCtM6XBVsYFQdUNhkDD1XbB1guFQKWajUAPcJXB
YztMQGW7dsA3oYnBiZGsQENoYEBfkrDB69HqQCLSmUAUNYPB2Ht/QEwZgMAtFZTBGSS8QOexlUD9
R37BYaSeQBXLs0AhaoXBsEuQQGqPKMDXv5fB8LLWQO7dTUCkebXBctKKQDKVgECzQp/BcwmfQGMZ
qUDL8ZDBTd1DQCeGgUB7qZDBwmEZQTQ/ikCtAXvBgzXTQHbfjEDVn6HBaUT/QJ3HZkCwBWbBfEqm
QNVyMMDO76HBVnClQNe6nkDDwMnBbqkDQcggCkGQjbHBzpTMQP8CF0EJWL3B96ILQXlyxkDJV7DB
NqbiQJQHAr/9673BrpTOQGuc1z+qsKDBsq/EQEUHI8A9ZLXBoAGwQJBwrL5bMpjB4nChQIUA+kBQ
2cfB7doSQYL8qT/RkrzBV9IWQebbfkA+EMLBY8s0QKLwmsAMEofBV8N1QNfEW8DVX4PBK4QVQHDC
S8By+YrBLZ2ZQLcYJUDfbbDB9AucQEdQiEDJebXB7FryQDj1u0BbPITB5nHtQGZniUDE9orB5Aub
QIWilcBjuJLBm9hVQFGhjcD/UZrB8jyxQJsBaUANN4DBrPa6QAgankBeM23By5x7QAessEBqV4LB
RampQMLz1EDLWYTBLkBqQNK8+L/3opjB46GmQO5FD8AuupHBkQ1iQDOYaUBO96LBj4O0QLLNt0Ap
mZXBiw81QDNNjUAadYnBS9ocQK36WEABNZTBFU3xQLHr/UAWKbbBFC7QQN7ABUHHAb3BKjz7QOQY
0kB0VLXBQ5jNQAFJQD88t6TBPdzaQH7i8L6FPLXBurK7QIPIzb4DE6DBAQ3JQApN0L/Hl7DBp8u4
QBJA7UAM+sLBurMIQbqBCUA1BbrBVv0JQSl0ZED7S73Bo0LcQIGqOz+JZq/BY+bjQEOns0AmSrvB
uvG4QHawzb+RCKbBym3CQJ5QwUAGIcLB0pLrQMY1/D/XlbTB/LnuQNP/hUDnMLrBnCOwQJtMgEAB
SaXBv8veQFDFQ0CfB2zBxDyFQCLxjUBZgZXBSjtqQKAdgMB/O4jBq4KsQAjDXEDJi7DBM7TTQLCa
gUAfF37BOhZsQP8gYsCJ85PBp0qmQJZ/lEABUXvB0nudQD3Bt0DQ7YXBVSWjQJoNQ8BwE5fBoiLX
QJNyTEBtTLXBk6yKQIazf0DHQJ/B1j+hQONIp0Cy85DBZg9DQCPWg0DotJDBElECQX17KEBtw2rB
fsXSQKcWjUAI36HBKcPCQDCJLUBDmV7BHZ2jQK+zL8Bce6LBxWelQBeKnEAm2MnB3YkBQdqOCkFR
jLHBhbTIQAuSFkE+rr3BMGQKQX7Ax0AdHrDBByTQQGw51D89EaDBenLnQKDAAb8aR73BGQOwQHB6
vb578pfBULHHQHe3IsBBK7XB4mifQFnA90AJOMjBZIcUQaCEsT8VnrvBBToXQcYxgUCdZsHBYVgp
QGAKi8AiL4bBuNmLQJSmmsBwK4fBVFh8QJbUSsDJ9oLBu4maQAZGIEAoQrDB4EGbQO+FhUALlbXB
KB3rQLnjm0Bs733B0V3VQNuMYUBYw4bBr7ZZQMfZi8ClLZnBk1s+QPs6LcD++JTBipiOQH2SdUDW
V33BLWijQJsfokARJ2vBpMt5QMQlxEDJtoTBVry0QErK0UC6y4TBHy2rQBofCcAdf5LBF7O6QPV3
dcA1VJXBGcxhQIyGZkCFzKLBXdi6QPwHsED9OZXBI1Q2QAx8j0BrbYnBBBgZQJjlYECCT5TBETz4
QKpL/UC2gbXB5OnTQC/aBkFEwrrBZjoAQdD40EBhnbXBPQ7XQMrJAb8d7rXBDTvLQAIXOj9BbaXB
+sDGQAoF1r8BArHBj6G6QPwX277aiKDBb+23QFzR8UCzLMDB+mUGQQa1BkAYkrvB5FIIQbi2YkC8
YL7B3tnYQHrwND/ENbDBoUDkQBixtECv6LrBeR24QJf40r9aTabBNvS/QEhqxUAQU8DBo3/oQBEf
+T8mebXB6CPtQP8vhkBQf7rB2F6wQOKYfUDvFqXB1i3KQJuI8D+ofX7BageDQKI3k0AuT5bB2dRk
QJrwhMBosojBhwusQCjTXEAyY7DBOlixQJImQEDMw4TB1qSLQFRKhsBvSJPBz+nIQD/Yi0CBiYTB
4H6qQFAqsUA6QIfBmemTQHKKMcCXhJfBcarVQBSvTECMibXBPxuKQERZgEAIcJ/Bw02dQCoysECN
l5LB6LtBQCRCiEDZ9pDBu4G5QCaDOz/+G37B5DXTQKM3ikCifKHBNDTuQIKmBkCeKXbBiCWpQBDk
NcC34aHBZH2dQMlSpEDJr8fBSecGQbdZCUFxZLHBfIXNQBHVF0E/orrBvT0OQX2KxECUoLHB0C7i
QI/TC7+iGr7BL5zNQIM60j/K4aDBunLFQGgQJsBefLXBgLuvQLvRxb6ZV5jBnS2cQAl//kDYO8TB
PFQRQcUTqT/r573Ba2IVQRfSf0C+tcLBftFZQHHEpcCw1YXBHNqEQOAeZsDLrYLBkPEmQBcIasCx
BIrBq82ZQEihIEBPObDBZYyaQIVThkBCI7XBQgisQD7uLUAeKY3BulCSQOyNR0DXtoDBaH2qQGlY
lsAM65HBJzhyQAVNmMDyQZnBnDrWQIr3kEAU/HjBEBDjQFI3i0ALbYrB79ONQCbQrkCxLYLBYPq6
QPOWz0DOooXBnn1qQEiuD8C/YZjB62moQMDHDsDa1ZHBt1tiQPmOYkD7v6LB79GoQIZjxkC3lZfB
D/00QHoSlkAV7YnBGyEaQHAYZEAw6JPBYnH6QKmz/UCX3bbB8PXVQMrLBkEXJbzBBzoBQY5Y0UB2
orbBnYrNQHTkQz/GlaTBB7bYQGJ/7r6eKLXBywO8QHYvyL7KwZ/BKwjHQNvMzr9xYLDB/r+5QI0o
8UDLTcHBQFkHQY6LBkBCH7vBJhcJQUZmYUDTdr7BzifbQIgWPj9BaK/BuuzlQHZ/tEA1oLvBMSm4
QDXty7+UtqXB4qjBQBq5xEAxJsHBL53qQDRE/D+e5rTBwpnuQFcBhkDvyrrBWgKwQK+igECpgqXB
SE4IQZoIYUC8kX/BBoWCQNmZj0CDTZbBNG5uQGY8b8DyyYbBjeisQKwYXkCntbDBcNDoQCAjjUAA
qX3BpyNwQOJyQMC9p5HBi/zTQMf+k0Bhs4nBhrGsQN/SsEB6mojBwGelQO44Q8D9l5bBqy/XQPCd
TUDGhrXBLEaKQHb4fEC/np/BvtGWQPeusUC2A5PBQ4dJQFwifUDRWpDB4AQUQcRQWUBkUm/BepnR
QLVMkEAQOKLB1uQMQRBLPEDbfYjBprqjQFdoL8D6+aHBZlqfQMH8okAJXsjBryYIQVHDCUGL/bLB
y53PQAjIF0HkPLzBmUoPQQxQxUDQnbLBKZbQQGFR1j/k+5/B7nLkQC7nAr/jRr3BLo2xQEG2t77J
hpfBLtHEQH7mIcDx8bTB0OidQH9v/UChZsXBBVQSQcKypz90Nb3B4hAWQfAyfUBx/cLBVm4tQIp5
bMAmbYPBxpeAQAM8mcB474fBUL2NQPgiUMBiQYHBgeSaQOWlIUCgdrDBfLibQPBNhkATurXBqJ/R
QJ+Pe0Cc33LByE3yQPhUrEB6B3fB3dZCQIyqX8BkJZfB8SFdQP2q+r9Nd5DBRinrQCgro0BvIY/B
dyfKQN3EaUDIAI3BrhSXQH30o0COcoLBKqe2QK1e0UDoW4bBcda5QBz9E8CAiJLB7PKyQArPgcCN
gZXB651kQMfBW0Cg6qLBLnqXQJgWzEDjh5fB5P06QAaai0AvR4nByG4qQEHxSEDd3pLBs+DhQCgQ
90B5D7PBfhDHQBGmAkGVZrvBxlXvQIUizECmwbLBdp3VQOSSB7/ILLfBTIvVQHrTBz9qjqXBWGTF
QLL+2r/Wm7LBrtrFQLK9Jr+Z+aDB25i5QHGU6EADbcPBIswHQVJYAkDjobvBcLgIQeQAXkA/db7B
XSjdQDozGD+TpbDBS8zhQAFjr0C7wbrBiPO8QLlR478Ih6fBUc3GQBF/vUBlHcPB09nrQN9M7D8N
YbXB9TXuQOV4gkAvALrBOr+wQM0ufUDeFKTB5SXdQO5OWEDwrYTB45uDQEzBlkBWDpXBuOIvQAdS
ecDKBI/B87qtQDU2VEAJWK/BGj3QQJbihkD0qnXB9LJpQGUWgcAs6JjBAlzGQLgqtkCEaHvBXQqd
QCwHu0BkcYTBc52SQGmANMDv1JnBzjDYQCEpRUBNwLTBPRWKQJJIhUDJhp7B8WWiQLSmqEDIb4/B
UYo4QAfUlkDfdpHBfWH9QHdsbkA9ForBzMLTQDGRiEBbZaDBsIXGQOusGEDGOofB1+mrQOKnPMDN
e6PBODC1QCL1mUB8Cs3BQRPsQCeMBkFH6azBXM68QIMkE0FVpbvBNQMCQa01wUDJZazBd0LcQGMD
+L5ipb/BD8rbQDYjsj+/lKDBC16/QPCZJMA4mrfByYnAQPSzNL/wcpjB5yKlQEyh80BE0cnBjBcT
QUdioz/mCL7Bb/wUQZvcfEBYKsPBf4wFQPiwmMDico7BQcVXQLNGdcDvyIfBfvcIQK7xPsCCvo/B
qWCdQJYvFkBnj67B1Z+aQOTafkCxdrTBbIWzQIUXcUCpcW7BcqjqQDw0hkDcCmrB2DaIQORUnsAB
KpjB7Z9BQGIqg8CVH6DBHJHCQA50yEBZfWzB4GfhQBEww0DeTILB1ryCQDk6qkCpX4DBxCyVQHg5
3UDTI4XBaeB+QOEV878PNZrBUOmnQEj2McAO1ZLB+GtfQEmudkCnUKLB53+/QBkYqkB8vpLBlhIr
QHCCpEBZborBQeQJQO0ziUDZwJXBW4HhQOQ790AXKLPBjMLGQIarAkEdhrvB5g3vQGBWzEDL0bLB
vcfVQJ72Br/AJrfB+nXVQLeHCT+XjaXBZ4/FQKml2r+Ek7LBb8jFQKDsJL9B9qDBnHS5QIqG6EBS
i8PBktkHQTquAkBFmrvBrcAIQa1QXkA2cr7BpjDdQG9fGT9no7DBCa/hQJp9r0DV0LrBMf+8QNWp
4r/of6fBWcLGQM15vUCGM8PBVeDrQBvf7D8pYbXByC3uQEeZgkBxB7rBgMGwQOsufUBiHKTBZGro
QHyN8EDk517BvLSDQBvRlkCWFpXByaYvQETMeMBCA4/BzbCtQI1yVEC1Yq/BIQ+/QIm43kDmIWnB
yq1pQL/jgMBC4ZjBC2jGQBN+y0D3uX/BQiScQA4uuUAcTITB2Y+SQCIKNMBGz5nB2ibYQFxmRUC/
yLTB2iOKQP0bhUBUiJ7BsdWiQM6NpkBzLY/BGEI4QLt8mEA0rJHBIC7mQGUsAEETX0zBYcLTQK25
iECMcKDBI7MFQUcC70DB9GjBFfarQChMPMDgcaPBKlu1QNnRmUCeH83B55TrQIqrBkH4Aq3B2W28
QK4mE0Ehy7vB89cBQf6CwUA/cKzB5YXcQAvV975Inr/BB5zbQAgvsz9OlqDB/qG/QA6HJMBVj7fB
SGPAQPlhMr8wcJjBXQulQJJ580Di9MnBIS8TQQYopD9j+b3B3wkVQcIxfUBcI8PBf2AFQLhzmMAv
cI7BP2JXQHKNdMCBxIfBvqsIQPN8PsDxxI/BZkmdQHB1FkCGn67B0qCaQDlBf0B7frTB+CqyQI6H
xUBJql7BWqynQMzl+ECKcmrBXTyIQJUZnsAtG5jBOcJBQFYRg8CdG6DBFCbSQAOv5EBjQ4XBo0ze
QMe5sUBmsn7BP26QQOsIoEBfwn3B1kmEQOT80kBUzITBSbJ+QBtI8r+jNprBIMqnQDVQMcBXzJLB
QJNfQKmmdUC/RaLBcpHAQCsCpkCzIZLBsRcrQH22pUCEk4rBofkIQIuJjEAjKZbBULniQENO90B0
/LLB/SLIQCblAkFdWLvBVfjvQPxOzECQtLLBu0fUQKMuBb/WS7fBHnrUQBR4DT9hv6XB69XDQKMS
2b89qbLB7YjEQL57Hr8wGqHBRqm6QCxB6UDMaMPBqLEHQb9YAkDHtLvBFt0IQT4fXkAddb7BJEDc
QOj1Gj8P0bDBTHTiQF3Ar0BDwLrBh+O7QDwO4b9Oi6fB/KbHQP8avkBLH8PBOGLrQNoF7T/KibXB
/ZHuQBjAgkDdBbrBPsawQGFxfUBmJKTB0BH7QD870EB6bXvBZ4mDQENVlkCNE5XBT2GNQFu5jcDP
kYjB6bKtQLWSVUAMeK/Bk+/mQD8No0DkSHvB/JiUQL/0i8B0u5TB5ty1QDCGo0DYaXfBxEOdQDPk
u0CrkITBh02lQHpqP8Cj75fBsyPYQF7lRUBr27TBfRiKQEw0hUDRlJ7BHZ6iQBagpkBcPY/Bzdo3
QKc/l0AkrpHB8FQNQYsW10Akv4PBDM3TQBt1iEBgaqDBOTbrQOmI7UADBXDB2PSrQLl2PMBWZqPB
iAK2QJvGmkDHF83B8+jsQHmZBkEPzqzB1w6+QOlqE0EGk7vBHj0CQacvwUC2VKzBEcHaQCp09r4Q
x7/BMdHaQFJytT+G0qDBj0G9QEOGI8CBobfB0ce+QLBdKL+olpjBIlymQHp+9EDnz8nBnesSQSHR
oj8SGb7B40EVQTDBfECGGsPBm2OBQO2VrcALVYbBe8yrQPCMh8BEa4TB5ZVrQEaUasCPQYbBQO6c
QJPpF0Byyq7BjfWaQI2WgED8i7TBUzTtQBDRk0BJa4XBdhz2QLw0kECHgG7BdCmsQFVvpMDvB5fB
109sQIgsksA73pjBN0aqQPlMgkCC7XbB/XevQP0Ws0B19GfBCRl2QP6jvEDbgYLBBJapQHjO3EDF
DYXBtceNQO9jDsAgopXBFsrDQA35MsBB0pPB7X9fQPnBdkB9ZqLByFHAQAumpEDnLJLBQBEqQGhn
pEAWmIrBLR4JQPnKikD0K5bBi6T0QLtn/kDlxbbBcWLTQPZUBkGPfr3BAZD9QHBi0kCe7bXBiHLX
QMzo4r7EZLXBBVbLQO5zVT9sE6XBPQXHQEouzL+DWbDBm/O6QHCjnr66CqDBFu66QOrn7kBPWsPB
fEoHQftJCEAjvrrBeFsJQTj8YkDK/L3Bs/7YQI7rRz8b0K/BER3lQEF8tECjxLvBuze4QFYZxb/Y
raXB753DQIHLwkDcgsLB5/3oQIye/z/TH7XByZ7uQP+thkA6oLrB/XavQFmXg0D9iaXBXZfsQOrN
ckCz2HTB02CEQGEkjEAXe5XBpBpMQFhIb8A98ojBMOGrQC1dY0Bz0LDBfH/yQMHEnEDX24LBEDuA
QICOesC3SJPBL5rNQBD3vUAacILB57mhQKTxqUCM3YTB/rKQQBB0I8B4JpfBazHWQNLeT0AKnbXB
vHiJQD7Cg0Bkpp/BnNykQDOylEAcUY/BNfs7QNwoiUBFdJHBLwvWQPUbMkAIL3nBlyzSQEvej0AQ
DKLBpVMAQWLdeECUb2PBA8+nQBn+LMAOKKHBtWOlQEaQnkBPHMrBvaUDQe6fCkHFRLLBvJ/MQOA5
F0FHKL7BXZQLQah8x0BNzbDB/NniQIdM/76gib3BVoHNQAyL4T9qsaDB2L3FQJHUIcAHr7TBh1mw
QJKOgr6I1JfBaHahQLrv+UBZgMjBTYwSQahxqz+yerzBXK4WQVrmfkC4PcLBmbk0QCEDl8BBOobB
mdt0QLLbUsBLtoLBlFAVQHfiRMDSgorBQemYQBQaKEBCibDBTn6bQI1ZiUDt4LXBuIAIQbhHrUB8
XYHBvy7zQOEOjkAD2orBCZWbQBmEksB0tJHBDJ9XQHuHi8D7gJnBqKbMQBEmzEBdxnTBcAHUQMwo
10AOX4jBr3qZQMdrkkDVTX3BGQuJQDsEw0CJIoXBwMlqQI428L9AXpjBTkCmQOJVCMD8EpHBwbtd
QJgmeUBot6PBdffBQGI1jECA4JHBk9syQFFyjUDXm4nBbj0KQACWgkBaNpbBrL7yQL8v/kAUfbbB
pjDRQO4GBkFgKr3BpE38QINH0kBAr7XBQDnNQBbKSD85uKTB6uHYQAlu6r5OO7XBWEW8QEDIvL6b
3Z/BLKjHQLtlzr/xZLDBihm5QJAB7kAOBsPBegsIQTfoCEBHTrrBu6gJQWi5Y0DLmb3B4vDaQPKy
QD8keq/B0kDkQC0KtEByh7vBDDa5QBF8yr9msKXBJnbCQCIAwkAVPMLBvmjqQG2r/T+aw7TBOIju
QABGhkDFaLrBt6yvQLsLg0AUjaXBzNUCQe64fkBhz27BSOOEQIF+jEDtgZXBkmw+QBtJPsABWJHB
KCqsQKHDX0BorLDBKMTbQBCQgEB/s3vBmLiHQBJvdsCr0JHBpCvMQMXwrkDRy3/BP0GgQK/IrkCT
RYXB5sWtQGJFRMCfhJbBmKXWQBfxTUAVbLXBMNGJQLxVg0ALop/BiOykQMmQmUAirI/B1jw+QLu2
hkAKTJHByrgKQe7HNkD9SmrBdjjSQGJ0kEDJOKLBsroLQaydoUDT42jB7h+lQMqfLcBHoKHBsbik
QCaInUB94MnBS5ICQZeeCkE3/LHBkezJQLnfFkFwy73BHw4LQc21x0DVlLDBqMPPQD2h2T98L6DB
0YTkQOJLAL8dXL3B3oaxQLHnqL7eqJfBbHzFQFroIcAG7LTBHmGfQGO5+ECBIsjBLZ8TQVqrrj99
9rvB+fAWQUpcgEDkxcHBYDUJQDSaY8Bl9o3BaLFKQJUYBsDNRIzBgYwtQDAPKcD6dpnBtReaQIZ8
I0D/KrDBpfeaQAeBhkDq3bXBMw/hQOp4YUBGmYXBtOrCQGp6XkCgvHLBaOWPQGLShcA7rYnB9FKB
QLBNl8Bo35bB9PTJQKT+v0CKcHDBKzrjQDtgv0BEIIXBBzGJQDgvnUDGSYDB2gCVQLXSz0DcaYbB
bcKyQPGECcAv1ZHBOL7KQH0lbMBDJJbB2WZeQE4rd0AOoaPBXIjCQH3SlEAtd5LBWO80QAFRjEDF
gYnBuKYNQNhceUBD3JXBWobxQL9o/kBPybbBiSzQQDjgBUHel73BoFz7QMaa0kD51rXBlK/NQNuK
Rj9dr6TBBIvZQHLb6r6JOLXBvdC8QOxUw76O3J/BSGbIQKf3zr+iarDBiHu4QPZF7UAWasPBuiUI
QUNSCUAyV7rBD5QJQbgZZEBurr3BooTbQJX2Pz+db6/Br7XjQO/vs0A4pbvBUvK5QEj9y7/ntaXB
1wjCQLlbwUCydMLBP9jqQO7k/T9DtLTB3mTuQDFOhkCdarrBLOWvQO3BgkAbaqXBRlD1QEfGv0DO
rV3BoN6EQG+ajEBwcZXB1ts9QF+MO8Cj3JHB8nasQDFgX0BRjbDBUpHKQMAPwUDe02nB9AaHQGAE
dcCe45HBq0/NQIqKqkC4nX/B9FihQKgjq0A4CYXBfvCtQMonRcAziZbBKujWQFHrTUBaVLXB+gSK
QBjogkAnhp/BWHOlQCa0lEB5PY/B0ic8QBqgi0BhlZHBf5H1QA0CzECefErBmQ/SQHVakUCVJ6LB
jGoLQaofskCLpGbBRRGmQMraLsCFsqHBbpukQDlOnEA//snBxcYBQSnkCkH3SrLBTsLIQHWvFkGz
Wb7BCIoKQVZyyEALqLDBKRLQQM5W2D/3IKDBFy/lQP/a/r6XWb3BE/6xQAVYsb40qZfBQkzGQCsN
IsCH+bTBmeyeQIOW90CQoMjBAsMTQe7trz9QCLzBUb0WQfGhgEA27sHBu20HQM1CX8Aag47B5gxK
QGFpAsCt84zBVt8uQCrwJ8B1GprBr4CaQIb1IkCBD7DBhSmbQCZNhkDRubXBffixQOYasUCYFmDB
9nfBQNSr4kB9aGzB8D+OQIxMhMCpoYnBKamAQPEPl8BxyJbBNWXkQMRgu0Cn8oTBPMTXQHU9iUB4
Vn3BPfGJQGq6mkA+zX/B3vaWQHxVzEDrY4bBwXmzQO5ZCsBV5pHBfl3KQLJ7bsDlCJbBrxdfQA8i
dUBegaPBfobCQPohi0CbkpHB7DQyQOMdkUAJzYnBJ6gKQIFihUCjaJbB

> <OMEGA_E>
BAQ7PwTnOz9kcEc/dv5MP/oGTT9uXk0/OHpSPzzrMj/8+zQ/hKU1Pw==

> <OMEGA_NBR>
     58819

$$$$
50146784
  -OEChem-04172616093D

 57 60  0     0  0  0  0  0  0999 V2000
    6.1974    8.3773  -24.6090 C   0  0  0  0  0  0  0  0  0  0  0  0
    5.5050    7.2949  -25.1885 C   0  0  0  0  0  0  0  0  0  0  0  0
    7.2230    8.1411  -23.6708 C   0  0  0  0  0  0  0  0  0  0  0  0
    5.8375    5.9758  -24.8291 C   0  0  0  0  0  0  0  0  0  0  0  0
    7.5680    6.8213  -23.3225 C   0  0  0  0  0  0  0  0  0  0  0  0
    6.3218    1.2759  -20.4942 C   0  0  0  0  0  0  0  0  0  0  0  0
    6.1140   -0.0680  -22.5259 C   0  0  0  0  0  0  0  0  0  0  0  0
    4.8002   -5.1807  -18.0771 C   0  0  0  0  0  0  0  0  0  0  0  0
    5.7167    0.2602  -19.7537 C   0  0  0  0  0  0  0  0  0  0  0  0
    5.5254   -1.1037  -21.7753 C   0  0  0  0  0  0  0  0  0  0  0  0
    4.2260   -5.9094  -17.0205 C   0  0  0  0  0  0  0  0  0  0  0  0
    8.4437    3.7546  -23.6623 C   0  0  0  0  0  0  0  0  0  0  0  0
    8.3258    2.3857  -23.1185 C   0  0  0  0  0  0  0  0  0  0  0  0
    2.3484   -4.3568  -16.9633 C   0  0  0  0  0  0  0  0  0  0  0  0
    6.8735    5.7392  -23.9007 C   0  0  0  0  0  0  0  0  0  0  0  0
    6.5064    1.1218  -21.8803 C   0  0  0  0  0  0  0  0  0  0  0  0
    4.1536   -4.0297  -18.5862 C   0  0  0  0  0  0  0  0  0  0  0  0
    5.3343   -0.9343  -20.3820 C   0  0  0  0  0  0  0  0  0  0  0  0
    2.9974   -5.5009  -16.4704 C   0  0  0  0  0  0  0  0  0  0  0  0
    2.9153   -3.6138  -18.0126 C   0  0  0  0  0  0  0  0  0  0  0  0
    7.2202    4.3682  -23.5271 C   0  0  0  0  0  0  0  0  0  0  0  0
    7.0464    2.2403  -22.6428 C   0  0  0  0  0  0  0  0  0  0  0  0
    4.8008   -3.2542  -19.6630 C   0  0  0  0  0  0  0  0  0  0  0  0
    5.1287    4.2445  -20.9341 C   0  0  0  0  0  0  0  0  0  0  0  0
    3.8781    4.2584  -18.8407 C   0  0  0  0  0  0  0  0  0  0  0  0
    5.0541    3.7519  -22.3865 C   0  0  0  0  0  0  0  0  0  0  0  0
    6.4146    3.4355  -22.9120 N   0  0  0  0  0  0  0  0  0  0  0  0
    2.7585    3.9168  -18.2695 N   0  0  0  0  0  0  0  0  0  0  0  0
    4.7226   -1.8752  -19.5737 N   0  0  0  0  0  0  0  0  0  0  0  0
    3.9944    4.0676  -20.1355 N   0  0  0  0  0  0  0  0  0  0  0  0
    4.8272    4.7513  -18.0900 N   0  3  0  0  0  0  0  0  0  0  0  0
    5.5516   -3.8067  -20.4615 O   0  0  0  0  0  0  0  0  0  0  0  0
    6.1712    4.7385  -20.5111 O   0  0  0  0  0  0  0  0  0  0  0  0
    2.2652   -6.4212  -15.1854 Cl  0  0  0  0  0  0  0  0  0  0  0  0
    2.0152   -2.2208  -18.5955 Cl  0  0  0  0  0  0  0  0  0  0  0  0
    5.9417    9.3898  -24.8844 H   0  0  0  0  0  0  0  0  0  0  0  0
    4.7201    7.4778  -25.9074 H   0  0  0  0  0  0  0  0  0  0  0  0
    7.7439    8.9725  -23.2193 H   0  0  0  0  0  0  0  0  0  0  0  0
    5.3005    5.1454  -25.2632 H   0  0  0  0  0  0  0  0  0  0  0  0
    8.3625    6.6383  -22.6143 H   0  0  0  0  0  0  0  0  0  0  0  0
    6.6485    2.1807  -20.0034 H   0  0  0  0  0  0  0  0  0  0  0  0
    6.2637   -0.1844  -23.5891 H   0  0  0  0  0  0  0  0  0  0  0  0
    5.7398   -5.5011  -18.5023 H   0  0  0  0  0  0  0  0  0  0  0  0
    5.5426    0.3935  -18.6962 H   0  0  0  0  0  0  0  0  0  0  0  0
    5.2219   -2.0208  -22.2584 H   0  0  0  0  0  0  0  0  0  0  0  0
    4.7282   -6.7828  -16.6313 H   0  0  0  0  0  0  0  0  0  0  0  0
    9.3324    4.1949  -24.0898 H   0  0  0  0  0  0  0  0  0  0  0  0
    9.1037    1.6368  -23.0989 H   0  0  0  0  0  0  0  0  0  0  0  0
    1.4077   -4.0463  -16.5331 H   0  0  0  0  0  0  0  0  0  0  0  0
    4.4322    2.8455  -22.4279 H   0  0  0  0  0  0  0  0  0  0  0  0
    4.6007    4.5365  -23.0100 H   0  0  0  0  0  0  0  0  0  0  0  0
    2.6442    4.0347  -17.2831 H   0  0  0  0  0  0  0  0  0  0  0  0
    2.0133    3.5366  -18.8174 H   0  0  0  0  0  0  0  0  0  0  0  0
    4.1542   -1.5150  -18.8339 H   0  0  0  0  0  0  0  0  0  0  0  0
    3.1697    3.7574  -20.6084 H   0  0  0  0  0  0  0  0  0  0  0  0
    5.7042    5.0075  -18.4966 H   0  0  0  0  0  0  0  0  0  0  0  0
    4.6766    4.8724  -17.1088 H   0  0  0  0  0  0  0  0  0  0  0  0
  1  2  1  0  0  0  0
  1  3  2  0  0  0  0
  2  4  2  0  0  0  0
  3  5  1  0  0  0  0
  4 15  1  0  0  0  0
  5 15  2  0  0  0  0
  6  9  2  0  0  0  0
  6 16  1  0  0  0  0
  7 10  1  0  0  0  0
  7 16  2  0  0  0  0
  8 11  2  0  0  0  0
  8 17  1  0  0  0  0
  9 18  1  0  0  0  0
 10 18  2  0  0  0  0
 11 19  1  0  0  0  0
 12 13  1  0  0  0  0
 12 21  2  0  0  0  0
 13 22  2  0  0  0  0
 14 19  2  0  0  0  0
 14 20  1  0  0  0  0
 15 21  1  0  0  0  0
 16 22  1  0  0  0  0
 17 20  2  0  0  0  0
 17 23  1  0  0  0  0
 18 29  1  0  0  0  0
 19 34  1  0  0  0  0
 20 35  1  0  0  0  0
 21 27  1  0  0  0  0
 22 27  1  0  0  0  0
 23 29  1  0  0  0  0
 23 32  2  0  0  0  0
 24 26  1  0  0  0  0
 24 30  1  0  0  0  0
 24 33  2  0  0  0  0
 25 28  1  0  0  0  0
 25 30  1  0  0  0  0
 25 31  2  0  0  0  0
 26 27  1  0  0  0  0
  1 36  1  0  0  0  0
  2 37  1  0  0  0  0
  3 38  1  0  0  0  0
  4 39  1  0  0  0  0
  5 40  1  0  0  0  0
  6 41  1  0  0  0  0
  7 42  1  0  0  0  0
  8 43  1  0  0  0  0
  9 44  1  0  0  0  0
 10 45  1  0  0  0  0
 11 46  1  0  0  0  0
 12 47  1  0  0  0  0
 13 48  1  0  0  0  0
 14 49  1  0  0  0  0
 26 50  1  0  0  0  0
 26 51  1  0  0  0  0
 28 52  1  0  0  0  0
 28 53  1  0  0  0  0
 29 54  1  0  0  0  0
 30 55  1  0  0  0  0
 31 56  1  0  0  0  0
 31 57  1  0  0  0  0
M  CHG  1  31   1
M  END
> <OMEGA_C>
xVDGQHUJBkFN38TBnCiwQH1v6UD2gcnBviLnQPBBAkG3Xb3B0cy6QIo5v0DvocbBqizyQGlI2kB/
lLrBFUzKQNRQoz839KPBsqXDQEI4i70DNbTBM5uZQO3HpcDdnZDBJO+2QDU1hT6BB57BRNCwQH1H
jb/LM67BNTuHQA4avcDwKYjBVhkHQeRKcEBqTL3BZTYFQZevGEC/8rjBCUwWQD9ri8DStIfBT/Pb
QNOnt0C7NL/BtjTQQHeWjz/cCq/BHOqEQHvzgMB6sJTBMLKqQKksb79fDqPB4NU/QI4HsMBXw4PB
bJQ6QLtIZ8DXGZDBGgznQPHHi0CVN7zBxXvhQDNhD0B5JLXBOKCZQGdEUMDXTZ3BcR6kQNfSh0D7
eKfBoDJ4QLxEiEDWuZbBOruhQI8fcECAF7PBqkTNQPbeW0CzS7fB6oswQHKsekD8J5LBux+XQBoF
8L/blpzB9qN/QHwpgkB1FaHBd3iaQAgLmEA/uJDB+aaxQLugc8AxsaPB03rFQK6hl0CqFqTB8PgQ
QDJ6zcBz93LBuvkAQP8gDsCcw5TBiyK+QNE8FkEyE8fBAguXQOtJ70BvQs/BAc73QFmPD0EXwbnB
vp2pQPOmpEAPG8rBzswFQUlt1EAG6rTBq8DUQNaQC0DkBqDB12/IQLrfPL57trzBjqy3QFsJsMCz
BJTBR12xQMR6yT66kZXBKxqnQFVUAcAhEbLBEE2XQJYM2cDjDIXBb1EVQWc8hkDtt8DBuqgRQeGC
0T+gyrjB2y+0P3J7gcC3Q4TBs9SNQFMdNkBWbLPBwDiTQC0rkUCIFLjBBTopQBkcgUDOQ4rBmdoA
QGZXYkD5iZbBUu+EQBDrwb/oq5bBANxKQIh5cEAJ3qTBloi2QGY9oEDx+JPBhaaVQBjrm0Dc3ojB
VonGQLK+BUH2/8TBSiGwQAjM6EBfiMnB1bznQOQCAkGAl73BSfC6QLyhvkDNqcbBlOfyQNvS2UB4
zbrB1azKQB0XpT92vKPBfhbDQNSGSL3G/LPBcJ4+QG9hZcClcpDBlLC2QAnGkT7+yp3B+5KvQDLu
iL8e/a3B/tcVQPE/icCYMYjB1hsHQXEmbkCBrr3Bdy4FQQHZFkC5ObnBwv+FQA40vMAm04fBjHPc
QI8mt0CjVb/Bfn3QQKWykD8L1a7BWw6HQKXlgMBjkpTBP6epQLjjZr8Z1qLB5kk8QNkjrsCW7oPB
hsKaQMTEpcA+GZDBVYPnQB9Pi0DRULzBqfjhQIs+D0BIBLXBxVebQEq1TsCVFJ3Ba6WkQP5gh0CK
XafB3qh4QOTGhkAYp5bB43CiQBBDcEBVArPBcu3NQG3KW0BMMLfBxrwvQDjQeUAxQJLBSSGWQAdF
7b+pb5zBYOqAQLkBf0At76DB21iaQIPSlkD7lJDBbJWxQIlecMDP/KPB3BvFQHktmUD2DaTBrUwJ
QMtRysDmfHPBMabNQG44t8AGGJTBB0K+QHvuFUGRNMfBdLKWQPmT7kCMM8/BmZn4QAxWD0G+DrrB
A5qpQLQDpEAZEcrBSEwGQfAI1EAwNbXBCarVQFcYDEBo0Z/BGcTHQDbKLL57frzBhCMhQJN7LMCk
r5PBT0axQDY+1z44VJXBkSSlQKcx/b8p3rHBAyKyPyGVfMCUH4XB8TIVQZmnhEDGWsHBC2oRQTIP
zD/YRbnBDr+UQJJh2MCNcYTBIVyOQH6LNkC4cLPBPDKUQEKJkUBf87fBldgmQMepgUAHa4rBAaMA
QJokYUAVtJbBhESCQDLzwb85x5bBgTdPQLBhZUAho6TBmM22QAFQnkDWuZPBY92UQMmcm0CwyojB
Ns/HQP7gBUFwbMXBA9noQNQ4AkE09r3BriCxQLD+6EC51cnBVXjzQBZT2kCD97rBImm7QHHrvkBm
xMbBdSrDQBAdYb2xFLTBOHnJQFA9pD/pyaPBx3A+QOmjZMDvp5DBxUewQNTqi78EIa7BixK2QK9p
hj6E553BY6kUQL+uh8BwSojBOQ8HQRE/b0BNTL3B4+8EQVXlF0A/57jBTmeEQNGyu8CJlofBR6Hc
QHSUt0BAWb/B2YfPQDIakT9h4a7BzNaGQCuBgcB0ppTBD/OpQPNFbr+T/KLBu885QNNbrMBvwoPB
0aCZQECLpsAEApDBGUPnQFHLi0CTLLzBqBDhQFfzD0DG97TBvu6bQG7dUMBkJJ3Bd+ajQGTgh0A3
W6fBr3R4QL0Oh0BtipbBkaehQGOqcUDuBrPBGzbNQMW9XEDXKrfBkykwQLX+eUBmAJLBA5yWQLCP
8b9hm5zBNGqAQKNxf0CR1qDBB2aaQJJql0DPkZDBDYayQIwAc8Ci8KPBjVzEQEjMmUAmF6TBUhQG
QN6XxsBDnXLBtNbLQP3jucBU/pPBBN6/QDMIFkGBw8fBhAH6QMSSD0Edi7rB6uGXQPKm7kA/kM/B
44QGQa+l1EBpVLXBL+OpQExCpEC/FsrBvibIQJqXLL4AlbzBWNPTQDr1C0Ah1J/BQ+4hQBb9K8Bp
F5TBKqumQNaJAMD0CLLB82SwQK9JyD60cZXBlCWwP/vsd8APV4XBAVQVQY1IhUBdxsDBszIRQX1k
zj8WzrjBJIeSQM7g18CfC4TB/GCNQKc+OEApgbPBJ6eTQN1qkkBE9LfBYBIoQNPagUDBKIrBz8AA
QIHVYEDzW5bBjZKCQJpCxr+v/JbB/SJOQM9aZUAWeaTBkaO2QIscn0CGzZPBej+VQJM9nEA7xIjB
LDrGQBypBUH/CsXBL3bnQBsIAkHWob3Bd/CvQBp96EBxi8nBCrzyQK/x2UDJy7rB9tS6QLBlvkD9
nsbB4anJQNAKpD+su6PBUq/DQFTQfb3GALTBnIs+QK/fZMCwkJDBQtK1QP/6iD4T3Z3B2lewQCDk
i79uEa7BYJIVQO/Sh8DoI4jB3U0HQXpFb0DdM73Bz2AFQU34F0B6wLjBkdGEQCLsu8CUpIfBm1Tc
QEIft0DKRb/BuDvQQKnojz85za7BBrqGQLWUgcBgq5TBNr6pQOJIbb878KLBfSM7QKmFrMB0rIPB
kqqZQHG1psBgHJDBcXnnQLldi0BlLLzB69rhQHw+D0Bo5bTB0ZabQNC1UMASK53BBCWkQCrih0A9
cqfB1ct4QPxXh0DgpZbBOQuiQEHeb0DQC7PBHK/NQNSEW0CnKrfBdbgwQJjdeUBhG5LBDFuWQK0z
8b+MkpzB9mSAQIqIgECG+KDBEqyaQHFbl0C5ppDBkDKyQGKXcsCa+6PB2bDEQICtmUCyL6TBD5UI
QImvxsDUPXLBRbTLQPkGusDUPJTBItW9QG/RFUE3RsfBgUX4QHhoD0GWIbrBPoiWQNoZ7kAtO8/B
RT0GQWxT1ECaNLXBwpGpQImto0CG/8nBx/bTQMnrC0BZx5/BKuHIQByTN74/frzB2KkhQBlCLMAO
9pPBrMWvQEHnzT7nbJXBnJOmQGNnAMCB+rHBqZGyP6U1eMA5GIXB4okVQVWPhUAepsDBccgRQfC+
zz8tkbjBewqTQNAx2MDqK4TBjimOQG7VNUDXYLPB0aaTQHrzkEB3FbjBouwoQAFFgUCrPYrBbi0B
QIw0YUCIfJbBBWeCQOgUxr+17ZbBk0ZNQOgvaUCQqaTBod+2QFwxn0B94pPB0qOVQObGm0AV1IjB
KEzGQDUSBkEd2sTBwNSwQLxz6UD3qcnBLrXmQHFRAkFKO73B0sC7QJU+v0BO2sbBVPnxQGpp2kDg
fbrBWqXDQA34bb2vIrTByiTKQJinpT897KPBMmyZQE1npcBgnpDBYqewQFZpi79UHa7BUqW2QK5q
kD5I+p3BGBGHQFEOvcAlOYjBwz0HQYgScEAJX73BSEMFQeyfGEDm+bjBqqwVQF2Qi8BssIfBpG3c
QA+9t0AlS7/BBC7QQFkkkT+dAK/BDq+EQHN3gMDOnpTBOleqQMrvab8I+6LBom4/QJo3sMDDzYPB
3fc5QJDZZsByBZDB2nDnQIjgi0DDR7zBipvhQMzeD0CfIbXBpmCZQKXdTsCFNJ3BiA+kQCn0h0BS
i6fBsyp5QKCshkCftJbBYO+hQH77cEAYMLPB4o3NQDB2XEC/UbfB7/QwQDsBeUClKZLBupaWQJ0t
7b+ShZzBroWAQBbtf0AQCaHBdgqbQKo/lkANspDBLJmxQEX0ccA2kqPBWnzEQMjzmUDER6TBJx8R
QJHQzcAgBnPBGloAQCpMDcCOj5TB3+a9QCJFFkG4AcfB8gaYQNhD70CRgM/BQeP2QMuiD0E/f7nB
YCWrQKWgpEAMesrBwoYFQYuZ1EAsurTB7ZPIQCEaOL6nobzBV5nUQInUDECIBKDBooa3QJZ7r8Cd
CJTBDfamQJZ+AMBi9bHBwwaxQK6x1j4OhpXBIC6XQKcU2cD4KoXBFHoVQS7uhUDr0sDBI6URQYTb
0D9k0bjBg5eyP1/fgcBiQITBVOONQL81N0AOmrPB27eTQAjMkUCKKrjBjVwpQCawgEDXSYrB4BwB
QLYDYUCTjJbBaRmEQHIOv7+/qZbB6tRNQIcxZ0BWtKTBU1W3QKfLnUAV7JPBIQ+WQCmfmkB53ojB
ZWDHQJ8dBkENCMXBuU/oQCk7AkFMkr3BJ8awQPu86UAbmsnB3/TyQHsr2kAVwbrBKgi7QOF2v0AK
ssbBjurDQDIve73xDLTBfwrKQP+XpT/516PBqdKZQJL/pMDIf5DBF+GwQFLKi78UC67BTXS2QOwP
kD7m6J3BI1eHQFyVvMA4HIjBUxUHQZA1cEB2T73B2S4FQYHfGEBc5LjBJe8TQMttjMBbDYjB4Drc
QFext0AsTL/BPTTQQM0BkT+i667BAYaEQA/UgMBkvZTB9UWqQLhrar+966LBwdk+QJVNsMAg6IPB
gzg4QG8iacDLb5DByQbnQJfKi0A6RbzB6HHhQCfcD0DYELXBJluZQK0xT8CAP53BpqKjQOjoh0Ao
k6fBATp5QMrNhkDaq5bBm3ehQPVKcEDTMbPBCCvNQH4hXEAqUbfBYKAxQA+feEAbBpLBG1+WQPfP
7b9PgpzBjDSAQMMSgEDnAqHBRyCbQDnOlkCcv5DBABiyQIDZccBahqPB3SbEQDbgmUDbW6TBL2QQ
QNHFzcCoM3PBPHz5PwbSEsBsiJXBf3K/QORWFkHDP8fB+F35QLp5D0ELBbrBYZuXQMbA70BMVM/B
tTwGQTUl1EAZILXBGoWpQIwCpUBNH8rBZBLJQPdNPb5ZibzBf3XUQOzMDEC37p/BY2+4QO2JrsAG
uZPBiVynQErJAMDb47HBDK2wQG2/1j6adpXB2ceXQOcf2MCl5ITB1k8VQTsXhkBCv8DBkp0RQTDI
0T+4tLjBzXStP+wjg8ANx4TBIZmNQIBANkAIjrPBUQ+TQNM8kUDcNLjBPJkqQPaUgEDuJIrBTq8B
QI73X0DhVZbBibCDQM89wL/zq5bBJeBMQFyuZ0A6o6TBdS63QFywnkCkDZTBGmyWQBsrm0Ax6YjB
TPTGQCHcBUGkQ8XBgoSwQGbN6EASrMnBT3joQGZNAkEB7L3BuIS7QEzJvkA7t8bBw8zzQM+H2kC3
CLvBcVTCQOwtVb2rKLTBN0vJQGrtoz+N3KPBmk8/QNPgZMBRZJDBM1OvQO0vi79cMa7Baba1QL7/
hj7K9p3BJgAXQLnih8BT7IfBejUHQR5pbkCRZb3Brt0EQbL5FkD6BrnBjXqFQP4KvMCfm4fBlSfd
QPSet0AfZr/BABPPQLMXkT+M967BevGGQAWNgcAdnJTBTyqpQF4Abb9/C6PBzN48QIeirMDChYPB
vfyZQH7MpsCXH5DBjtXnQCLVi0BbMrzBKu/gQI7ID0BxDrXBaXSbQKiAUMC8K53BUJikQNYviEBv
TafBzHt4QGXuhkC9mJbBaUSiQJ8Uc0AM/rLBpZrNQClFXUA6K7fBK9svQBv1eEC0M5LBjauVQMHq
8L+NrZzBd76AQFJagEDC6KDBei2aQEPslkA/fpDB5nqyQA8IcsDF7KPBfULFQC5mmUAt7KPB1CAL
QH7wxsBD23HB467LQPVousCgapTBTXe+QM3+FUFog8fBheqWQMNK7kC4T8/BE3b5QOG2D0HJgrrB
PzeqQCUApED8C8rBet8GQfQG1UCzfrXBEB7HQDeYKb7MqrzByv/TQNSGC0DD5Z/BPCkiQH0zLMBR
vJPBcH2lQNoHAMD1GLLByTmwQGLmyD74fpXBGPm1P9tVeMBGy4TBs4QVQa+PhEDI58DBUP4QQbd6
yz9Y+LjBR9GTQNZb2MBqMITBW5+NQHk4OkDfhrPBIpqUQDB1k0Ca3rfBohEnQKfDgEC6WYrBBOEA
QM9VYEDdrZbBykCBQKnnxb+pIpfBW4ZOQMJbaEDwq6TB3X+2QJbrnkCAopPBycSUQGEqm0AQrojB

> <OMEGA_E>
0JIePjAAID6gKiA++GUhPqCWIT4QKiU+cHsdPg==

> <OMEGA_NBR>
      6851

$$$$
50146781
  -OEChem-04172616093D

 57 60  0     0  0  0  0  0  0999 V2000
    6.1860    8.3720  -24.5838 C   0  0  0  0  0  0  0  0  0  0  0  0
    5.4885    7.2903  -25.1584 C   0  0  0  0  0  0  0  0  0  0  0  0
    7.2261    8.1340  -23.6621 C   0  0  0  0  0  0  0  0  0  0  0  0
    4.2055   -5.9137  -17.0289 C   0  0  0  0  0  0  0  0  0  0  0  0
    5.8301    5.9702  -24.8102 C   0  0  0  0  0  0  0  0  0  0  0  0
    7.5795    6.8135  -23.3249 C   0  0  0  0  0  0  0  0  0  0  0  0
    6.3205    1.2548  -20.4854 C   0  0  0  0  0  0  0  0  0  0  0  0
    6.1281   -0.0719  -22.5293 C   0  0  0  0  0  0  0  0  0  0  0  0
    4.7936   -5.2269  -18.1092 C   0  0  0  0  0  0  0  0  0  0  0  0
    5.6916    0.2383  -19.7604 C   0  0  0  0  0  0  0  0  0  0  0  0
    5.5163   -1.1061  -21.7957 C   0  0  0  0  0  0  0  0  0  0  0  0
    3.0062   -5.4414  -16.4582 C   0  0  0  0  0  0  0  0  0  0  0  0
    8.4527    3.7439  -23.6736 C   0  0  0  0  0  0  0  0  0  0  0  0
    8.3395    2.3757  -23.1242 C   0  0  0  0  0  0  0  0  0  0  0  0
    2.9839   -3.5858  -18.0351 C   0  0  0  0  0  0  0  0  0  0  0  0
    6.8797    5.7316  -23.8972 C   0  0  0  0  0  0  0  0  0  0  0  0
    6.5223    1.1104  -21.8714 C   0  0  0  0  0  0  0  0  0  0  0  0
    4.1873   -4.0538  -18.6132 C   0  0  0  0  0  0  0  0  0  0  0  0
    5.2980   -0.9456  -20.4062 C   0  0  0  0  0  0  0  0  0  0  0  0
    2.3929   -4.2800  -16.9670 C   0  0  0  0  0  0  0  0  0  0  0  0
    7.2316    4.3596  -23.5260 C   0  0  0  0  0  0  0  0  0  0  0  0
    7.0673    2.2344  -22.6276 C   0  0  0  0  0  0  0  0  0  0  0  0
    4.8248   -3.2704  -19.6834 C   0  0  0  0  0  0  0  0  0  0  0  0
    5.1462    4.2289  -20.9199 C   0  0  0  0  0  0  0  0  0  0  0  0
    3.8807    4.2602  -18.8355 C   0  0  0  0  0  0  0  0  0  0  0  0
    5.0748    3.7408  -22.3721 C   0  0  0  0  0  0  0  0  0  0  0  0
    6.4342    3.4289  -22.8970 N   0  0  0  0  0  0  0  0  0  0  0  0
    2.7119    4.0498  -18.3009 N   0  0  0  0  0  0  0  0  0  0  0  0
    4.6474   -1.8938  -19.6322 N   0  0  0  0  0  0  0  0  0  0  0  0
    4.0316    3.9895  -20.1114 N   0  0  0  0  0  0  0  0  0  0  0  0
    4.8436    4.6952  -18.0667 N   0  3  0  0  0  0  0  0  0  0  0  0
    5.6124   -3.7989  -20.4622 O   0  0  0  0  0  0  0  0  0  0  0  0
    6.1551    4.8023  -20.5158 O   0  0  0  0  0  0  0  0  0  0  0  0
    0.7621   -3.6396  -16.2129 Br  0  0  0  0  0  0  0  0  0  0  0  0
    5.9233    9.3852  -24.8501 H   0  0  0  0  0  0  0  0  0  0  0  0
    4.6928    7.4743  -25.8651 H   0  0  0  0  0  0  0  0  0  0  0  0
    7.7518    8.9646  -23.2148 H   0  0  0  0  0  0  0  0  0  0  0  0
    4.6746   -6.8041  -16.6371 H   0  0  0  0  0  0  0  0  0  0  0  0
    5.2896    5.1404  -25.2412 H   0  0  0  0  0  0  0  0  0  0  0  0
    8.3849    6.6297  -22.6293 H   0  0  0  0  0  0  0  0  0  0  0  0
    6.6518    2.1512  -19.9822 H   0  0  0  0  0  0  0  0  0  0  0  0
    6.2943   -0.1840  -23.5906 H   0  0  0  0  0  0  0  0  0  0  0  0
    5.7069   -5.5964  -18.5518 H   0  0  0  0  0  0  0  0  0  0  0  0
    5.5083    0.3632  -18.7034 H   0  0  0  0  0  0  0  0  0  0  0  0
    5.2149   -2.0175  -22.2906 H   0  0  0  0  0  0  0  0  0  0  0  0
    2.5575   -5.9703  -15.6304 H   0  0  0  0  0  0  0  0  0  0  0  0
    9.3369    4.1819  -24.1127 H   0  0  0  0  0  0  0  0  0  0  0  0
    9.1157    1.6248  -23.1152 H   0  0  0  0  0  0  0  0  0  0  0  0
    2.5172   -2.6899  -18.4173 H   0  0  0  0  0  0  0  0  0  0  0  0
    4.4548    2.8333  -22.4166 H   0  0  0  0  0  0  0  0  0  0  0  0
    4.6204    4.5262  -22.9938 H   0  0  0  0  0  0  0  0  0  0  0  0
    2.5698    4.2213  -17.3260 H   0  0  0  0  0  0  0  0  0  0  0  0
    1.9565    3.7169  -18.8653 H   0  0  0  0  0  0  0  0  0  0  0  0
    3.9819   -1.5516  -18.9689 H   0  0  0  0  0  0  0  0  0  0  0  0
    3.2502    3.5575  -20.5616 H   0  0  0  0  0  0  0  0  0  0  0  0
    5.7582    4.8397  -18.4443 H   0  0  0  0  0  0  0  0  0  0  0  0
    4.6658    4.8836  -17.1009 H   0  0  0  0  0  0  0  0  0  0  0  0
  1  2  1  0  0  0  0
  1  3  2  0  0  0  0
  2  5  2  0  0  0  0
  3  6  1  0  0  0  0
  4  9  2  0  0  0  0
  4 12  1  0  0  0  0
  5 16  1  0  0  0  0
  6 16  2  0  0  0  0
  7 10  2  0  0  0  0
  7 17  1  0  0  0  0
  8 11  1  0  0  0  0
  8 17  2  0  0  0  0
  9 18  1  0  0  0  0
 10 19  1  0  0  0  0
 11 19  2  0  0  0  0
 12 20  2  0  0  0  0
 13 14  1  0  0  0  0
 13 21  2  0  0  0  0
 14 22  2  0  0  0  0
 15 18  2  0  0  0  0
 15 20  1  0  0  0  0
 16 21  1  0  0  0  0
 17 22  1  0  0  0  0
 18 23  1  0  0  0  0
 19 29  1  0  0  0  0
 20 34  1  0  0  0  0
 21 27  1  0  0  0  0
 22 27  1  0  0  0  0
 23 29  1  0  0  0  0
 23 32  2  0  0  0  0
 24 26  1  0  0  0  0
 24 30  1  0  0  0  0
 24 33  2  0  0  0  0
 25 28  1  0  0  0  0
 25 30  1  0  0  0  0
 25 31  2  0  0  0  0
 26 27  1  0  0  0  0
  1 35  1  0  0  0  0
  2 36  1  0  0  0  0
  3 37  1  0  0  0  0
  4 38  1  0  0  0  0
  5 39  1  0  0  0  0
  6 40  1  0  0  0  0
  7 41  1  0  0  0  0
  8 42  1  0  0  0  0
  9 43  1  0  0  0  0
 10 44  1  0  0  0  0
 11 45  1  0  0  0  0
 12 46  1  0  0  0  0
 13 47  1  0  0  0  0
 14 48  1  0  0  0  0
 15 49  1  0  0  0  0
 26 50  1  0  0  0  0
 26 51  1  0  0  0  0
 28 52  1  0  0  0  0
 28 53  1  0  0  0  0
 29 54  1  0  0  0  0
 30 55  1  0  0  0  0
 31 56  1  0  0  0  0
 31 57  1  0  0  0  0
M  CHG  1  31   1
M  END
> <OMEGA_C>
xfPFQN7zBUGyq8TBl6GvQBhK6UBlRMnBNzznQLskAkESTL3B3JOGQKM8vcA4O4jB9Y+6QKkLv0BM
e8bB3IryQBUI2kB2mbrB2kHKQHqcoD8n4qPB/xjEQOM9k70UPLTBeWWZQOtCp8CQ35DBoiG2QHwC
dD5DFZ7BNYWwQLuTjb+rXa7BtGVAQLcfrsBWqoPBXz4HQUqcb0COY73BfW4FQcULGEBj/rjBhPc+
QOR9ZcD3R5DBjSbcQHtpt0BtLb/BrrbQQBwgjj+i+K7BmP6FQLi4gcDk55TBIImpQMYRcr/ZP6PB
qCQZQPv1iMCAvIfBSGnnQNyBi0BMNbzBKSfiQJ3/DkBcBbXBrmSaQNlNUcCVd53B962kQFtTh0Dt
W6fBul14QCtTiEANr5bB2GSiQEtpb0D6+bLBnOTNQHRzW0D9LLfBgI8tQFmYgUAzaJLBgreUQJNp
8r/YDp3BMgOBQMhUf0AS5KDBqP6aQAU/lkCriJDBtJizQGAhc8CksqPByPbEQDysmUBVIKTBqhpD
P1jvaMAOtIHBWIu9QLMpFkEKzcbBDSuWQJ4t70Ch687Big74QPluD0Hjt7nBf5aVQNq62cC2GIXB
O0SpQEZ+pED/7cnBiCgGQaEm1EDVCLXBTNvUQHasCUCg25/BQGvJQPRePL51ubzBnJ62QLcVs8AH
apTB1kOwQD34uT6XoJXBYuCmQFkeAcAzU7LBXK0jQHYMv8DrFXrBIWQVQdjRhUC25sDBzNkRQWX6
zz/667jB6hkhQNYnLMCdVpPB6o2OQCRUNUBBVbPB/tmTQMbWkEBc87fBmXckQNIUh0Cem4rB0W76
PxzibUAh7JbBvNd+QP6bxr9SwJfBaANQQDGuY0AifqTBg0O4QKremkDZjZPBdE6VQNlGnECWzojB
RSTFQFv7BUGt68TBreuuQLIs6UBBdsnBY3rmQKJOAkF3i73B+QKGQAOevMAo+ofBbwO6QCQJv0AM
n8bBof7xQMJy2kC3zbrB5Y7DQCprgr18LLTBSc3JQC5Voz8P5aPBAYWZQBaQpsBChJDB+jKwQI9C
jL/nO67BRLu1QPIjhz5aCJ7BFk4+QBWrrcCBoYPBxg8HQVcmcEAua73BajUFQX2nGEAZ/7jBndY+
QKFzZMA/OJDBw67bQPmkt0AOU7/BPCjQQIXXjz/w+q7BZVaGQN0QgcD+pJTBA1GpQLVLbb+KH6PB
WooXQJyRiMA6z4fBMgPnQB7Ii0AOTrzBlZrhQKaZD0BfFrXBPBCbQFcGUMDlKJ3BA36kQOb9h0Dd
eqfB0HF6QJ8bh0DgnpbBQfKhQPJfcEAwFLPBR2XNQAANXEAPSrfBhFsyQIu0eUD1D5LB5NOUQF0K
8L883pzBDfqAQAl1gECG86DBzLibQJHFlkCOo5DB1XC0QAHVccDqWKPBGSXFQJW5mUC3Q6TBweE1
P5juaMD4LYLBuZ68QIAnFkEVGMfB12iVQGfZ7kCHHc/BoC/3QFKqD0EJ/7nBq9yUQHMJ2cAfwYTB
ssSoQD5bpEANBsrB7+0FQaDH1EA/QLXB1rnIQP+lOb4nqrzBjHDUQMQ4C0Ds6p/BVBO3QKVJssDn
5pPBiKWmQEPDAMD8IrLBVcWvQEqYyz7vlpXBUH4gQCirvsBVMXrBtj4VQQAPhkAD58DBeaMRQaFM
0T+33bjB4HUhQB8NK8DaVJPB2QSOQDBlNkB1Y7PBcGmTQBtHkUBoEbjB9dgqQPkJgUDVL4rBzIMC
QFqVYUAOcJbBX69+QKNzxL84mpfBwVBOQIv5aED8m6TBju23QD9ynkDU5JPB8tuWQPcVm0BCzojB
ec7GQBpZBkGb6sTBO+DnQCFfAkE5gb3BOVqwQJlK6kBcksnBK66HQDUavMBPrIfBC8LyQAxc2kBb
zrrBmtq6QBjvv0A7ycbBWK/CQAjheb3MMbTB3zfJQGe0oz8M7qPBbLyaQBy4pcA4OJDBJYqvQMwo
jL+wOa7BqHa1QHSohj6aB57Bc2RAQAhPrsDOcoPBR8kGQaAzb0Crmr3BNK8EQXzaF0AvLLnBggU+
QCB5ZsDNKJDBayncQCHxt0Bmbb/BECfPQIWqkD8dCa/B1HeGQMYPgcAKfpTBtc2oQHM9bb9MG6PB
PpsXQDfzicAFvIfBMcrmQLPci0CybrzBTqDgQDbiD0BjL7XBmK2aQA7eT8AXFJ3B2KWkQBSOiEA+
gqfBo+p6QJHTh0B+pJbBdauhQH5zckBZIrPBVNzMQOziXECvYbfBRuQyQNYEe0A2FJLB+iOUQI3V
77/V2JzBAB6BQHVDgUCu+aDBZACcQO57l0CUrJDBL1G0QA5lccDvOKPBmZLFQOLEmUB6SaTBjzcw
P9TGbsDdNILBtKq+QOKZFkG+B8fB/dz4QLiTD0GO5bnB4RyXQGlt8EBeRc/ByFuXQGDj18D1WYTB
6y0GQf851EBMNbXBNW6pQOKOpUBAR8rB+8nHQDS0OL6ur7zB2u3TQN1nC0Dw9p/Bgc64QASPsMAr
gZPBSQmmQBrNAMBZHbLBBfCvQDlSyT6QkJXBVigjQPuev8BN2XnB3gUVQfMshUBgIsHB1PIQQXxU
zj+NFrnBayIfQHgiLsBaWJPBxDaNQF47OUDbfrPBnIyTQMnAkkAAD7jBI3ErQFKkgUBmM4rBkggD
QMHoYkDmc5bBBMJ8QDhBxL8Gp5fBc1tOQDsea0BZoqTBoCm4QCM4n0DJ8ZPBvjeXQKi7m0Dv1YjB
uWrFQEz/BUFGHcXBEaTmQLZ0AkFosL3BalmvQKEI6UBfnsnByu2FQFGdvMAH+YfBjSjyQLHV2kAm
2brB03S6QAABv0CCr8bBoJbJQGPSoj9I66PBFLLDQOfngr0fOrTBtY2ZQLCYpsCkf5DBq7q1QB7u
gT6gFZ7BFXuwQOD9jL/uUK7Bax8+QG6brcAEpoPBlxQHQSJTcECuWL3BtxoFQSCtGEDc/bjBUgQ/
QEteZMCEPpDBfvLbQGHct0BOU7/BzPLPQL8PkD9cAq/BS2yGQNgjgcD1qJTBtXWpQHapb79DNaPB
2poXQOxxiMDO0ofBjCPnQFMJjEDBObzBu2HhQLngD0APFrXB1jObQNqQUMD9NJ3BfEmkQNgRiEDs
cafBv/p5QN9oh0AUlpbBzcuhQIL/cED8EbPBPE/NQLSNXEDsQrfBaUUyQHu+eUA++ZHBUd2UQBE5
8b/N+pzBP5SAQNX6gEAu76DBvHubQCFEl0CCopDBnLO0QEiOcsA7WaPBGkTFQFD+mECqKqTBtQw3
P5ZjaMADJ4LBUd68QGkhFkFjWsfBIkT3QCPhD0GaLbrBnPGVQKB+7kCUUM/BXLOUQKkP2cAGvoTB
GvcFQcRe1UCXQbXBC1ipQCozpECGEcrBLA/UQH78CkA865/BGgTJQHc3N77etrzB/iu3QGxSssB8
2ZPBA9GvQNeRwz5FopXBfianQIcwAcDvPLLBoRggQA+evsARQ3rBHlAVQdIWhkBGy8DBencRQXHG
0D935rjB5sEhQFn0KsCWXpPBdceNQB8pN0AIbrPBHWaTQBW8kUDVCbjBIBkrQM//gEBcF4rB0GIC
QNNOYUB4UJbBJU9+QGqVxb8KxpfBAhZNQMEza0AwnaTBRYi3QDVFn0DB7JPBD8aWQPBlm0AlyojB
ZqbGQKnkBUFSLsXBj5PnQLlFAkE5r73BGXmwQL7y6EAJt8nBtpEWQJNkiMBe0IfBYavyQP5t2kCY
zLrB+zK7QFTcvkCNv8bB7c7DQK5RYL3VDLTBtcPJQCGOpD+ww6PBXJQ9QEX/Y8CxQJDBH6KwQOmK
i78XH67BLwS2QMJviT71553B1sw9QGpQrcCmpIPB3kcHQS1BcED4J73B4VAFQV79GEDYtLjB8z2Z
QFj7pcDthZDBrGfcQCmZt0BvUb/BhR3QQGUtkT9m2K7BO7aFQJ3VgMDptJTBFs+pQPR2bL/QAKPB
QPWFQNPju8DP8IfBBWfnQDDXi0DBL7zBWKHhQF0aEECB7bTBK0+aQHgJUMBhQp3BQxKkQAzSh0Cj
dKfBZgJ5QMbDhkCjopbBs96hQGTucEDWGbPBK33NQA5uXECDN7fBJrYwQJ5beUCiGpLB8ZeVQOWr
778atZzBF4aAQM6+f0BF9KDBXNuaQEyclkCVopDB3CKyQCLkcsB0vKPBIJHEQLKrmUD8LqTB+SWh
QMje7MC4+IHBlme+QAAMFkEjdMfBfEn4QJSmD0HgJ7rBi0aXQMaN7kC5dc/BoDG1PyiSesBhiYTB
rxUGQaXR1EB/I7XBTQiqQMUjpECqJ8rB8g7JQNb7Lr4HirzB9CfUQD8HDEB3yp/BBAogQHOnKsBf
W5PBoiynQIVvAMDsB7LBuCKwQGIxzD7LdJXBqQMgQAGDvsA9R3rBJ40VQcYOhkAvkMDBH70RQYP2
0T91eLjBZ+G2QMWOscA45ZPBGcuNQPU0N0Cuh7PBL6+TQBDTkUBjEbjBFd4oQDchgUAiPorBdgsB
QOf3YEB6fJbB92KBQFpgw7//J5fBDfBNQNXCZkB1nqTBTSC3QLA8nkDc3JPB6tCVQF0cm0DE0IjB
WlHGQJXnBUFODMXBGMWwQEPn6EDUu8nBBPnmQFZRAkHAeL3BUqcWQAFIiMDEsIfB2uC7QJ7UvkBy
2MbB/nryQI6F2kAeq7rBMqDJQIqzpD+8zKPBQC3DQBjSU73qFLTBTgA9QKjiY8BZMJDB0Mu1QD40
iz41653B9OmvQDq+ir+UIq7B9Pk9QExMrcBilYPBpVUHQTslb0DGWr3BbS0FQfPCF0BU8LjB8q+Y
QCozpsD6pZDByNncQCSet0CgWL/BIMTPQPpXkT/J5K7B0jyFQAnTgMDOvJTBHD6pQA7car9IA6PB
1LCFQJEcvMAAB4jBNtPnQMTKi0AAPbzBAobhQO3pD0CVAbXB7t+ZQFiST8BQQp3BLoKkQPIJiEBB
dafBuVV5QAaghkBOrpbBOkaiQHHmcUACHrPBGMjNQN7CXED3O7fBrwUxQIFieEBeNJLBwMiUQPfB
7r/LvpzBUNSAQLYbgEAFAqHBwtSaQK5/lkDzoJDBwp6yQPTGccDEkqPBFCXFQI1ymUCKH6TBYOCg
QMRe7cC7MYLBA869QBoOFkGbQ8fBHsOXQLpx7kC4iM/BOSr3QGO4D0Eu0bnBiTe2P2YbesCJUYTB
8yurQL8OpEAfXsrBHeYFQdX61EDj87TBJj3UQC/4C0A51Z/B4EfIQAoNLb5Gk7zB4jsfQNeQKsAP
RJPBjSCwQG3hzT6wdZXBhEOmQBPf/7/wCbLBD84gQHxhvsDmCHrBypwVQdQthUDL1cDBQ20RQaQI
zj/w07jBGBC2QP3xscBHIJTBU++NQFuROEBil7PB3lqUQIaKkkCKDrjBD90oQD1ogEARV4rBjqcB
QPPuX0C+oZbB5TCAQHSiwr8xR5fBfH5OQETfZ0BGuqTB3BK3QEhznkBf0pPBE62VQHGymkCjzYjB
t27GQEzeBUEUJMXB2qqwQNTj6EA1y8nBtP7mQMg9AkGti73BNjMVQA/vh8Cg2YfBHXS7QGbJvkDp
2cbB4jLyQOhZ2kD0sbrB3p3DQGQ2gL1dILTBz0XJQOF4oz+21KPBEmI8QNiyY8D8U5DBUTywQJ55
jL/LOa7Byju1QGLyhT6uAZ7BhAQ8QM3hrMAzooPBKzQHQSmSb0CrSr3BLjMFQUlIGEB/1rjBtEKY
QHtApsD2j5DBOl7cQLqBt0ASV7/BS93PQDI2kD8u6K7BJRuFQPTogMDNv5TB8gupQLDnbb9fIKPB
8diEQGnnu8Dk9YfBWGPnQFKzi0AYPLzBa37hQEO7D0AK+rTB6yuaQCMgUMDgPZ3BMkekQOfxh0A+
d6fBlsd5QOK3hkDynpbBYvihQMcscUBRGrPBb3/NQFtTXECKOrfBFp0xQM4DeUAtE5LB3WWUQKcp
8L8A55zBjgSBQNTTfkCz6qDBkBibQAMJl0Cyp5DBmn6zQKRTcsCoaaPBLYPEQLtvmkBlQaTBJqif
QJUh7cDNAoLBRCe+QNkGFkHDZcfBAb2XQJp/7kB4nM/BNVj3QPSeD0H06bnB98+yP+0hecDfk4TB
nY2qQCYQpEC/VsrBnrkFQcG91EAg97TBIRLJQCWlN75cm7zBybPTQOhaC0B01Z/BFP8eQFJ6KsBj
fZPBMOemQO3vAMBcJbLBRR6vQKoHyT5YkZXBI0MeQLXAvcDzJXrBmHMVQR6ThUASwsDB45ERQToV
0D+1p7jBbru1QGQsssBi85PBCseNQNqbN0DyhbPB1NyTQI3+kUB/EbjBA6IpQDs4gUCqOYrB9y4C
QPvoX0Adb5bB8ip+QJQvxL8bm5fBWYlPQFMlZEDLhqTB21O3QKC4nkD95JPBoPuVQGjWm0CC2YjB
NGzHQOz4BUFKzsTBX//nQKL4AUH2Qr3Bbi6xQC2W6UASjMnBEOkUQGZ3isDRJ4jBTK3yQJKO2UCt
ibrBWnG7QNI2v0BjusbBAuTIQD8Coj/v0qPBzRrDQBJWlL0UIbTB1X87QBl4Z8Bzk5DBs7m0QNq4
gD6X/53BHoavQOEqjb/OPa7BdGw9QODsrsC26YPBxPAGQfxkbkBVVL3BkuEEQV4QF0DS6bjBGSuZ
QBubpsBUtZDBhlHcQHI1t0C/QL/BeGHPQCPBjj/G6K7BmkOFQIapgcBA5pTB1zaoQCo5b7/oJqPB
8A6GQD7ivMAhLIjBzOvmQGc0i0DgQbzBC+vgQAbUDkDIAbXBw1SaQP82UMCgQ53Bp+6jQCgYiEAv
gafBP655QI2Eh0BMnZbBM3OhQPB7cECNG7PBe/LMQCFxW0C0QbfBOAIyQB41ekB0+ZHBaB6TQMcd
8b/DCp3BtWCAQO3RgEAO9KDBaHqbQJY7l0BBr5DBWpO1QChmcMD3FaPBSanEQBW4mUBcTaTB2d+h
QI2q7cC8RYLBxX6/QH07FkHS9MbBesD4QJ4pD0HLkrnBMUqYQM3G70B0Vs/By4ewPyfuf8CT8oTB
Z/gFQWxd00BY2bTBYC6qQFzcpEDXR8rBVnvTQOZ9CkDk0p/BqrHIQIHDQ742mrzBasEcQD4OL8A8
w5PBP8euQF9Wwj6cjJXBWBumQBo0AcDrKrLBly4gQCQ5wMAjxnrB+DQVQTn0hEDhyMDBeTERQfUm
zT9xyLjBkQa3QGa/scAaDZTBvk2NQC/QNkCQbrPBbTWTQNxqkUBuH7jBnBMrQCM3gUCUForBvukB
QDf+YUBWTJbBAEF5QHOlxr8sApjBbddMQEYdakCfl6TBf5m3QMrnnkA8/JPBA86WQFWWm0B52IjB
ojHIQF1UB0HmssXBF4C6QMHX7EDwV8zBac3gQNEDA0FwfLzB9RqGQHv+t8AbcovBIn7FQItfwkCk
ycnBYczrQEaS20Cq6rnBUgnbQLSDkz+7SaXBo1ezQIxypz4qwbTBHymcQIbMk8DERY/Bt0nJQBTO
Ej4F8p7Bp5OhQN9GMb/6Zq7BmvE4QKiNs8BvO4fBBc4FQfvwbEDPxcDBErQDQXTqFkBUBLzBpLM9
QMFwTcCEsIrBMkTeQKbjuUCEmsDBZDfQQM/Inj/NJbDBLH+IQDhmVsBq3o7BCWKsQLPnS7+gcqPB
47MRQCDqisDJ24bBMUfoQKrXjUDLv73B1YjhQCNWFUCJbLbBsS+fQKNyC8AT3JLBEManQBfkh0Ai
hKbB4V52QIWeh0CGQJbBDY2lQOkNfkCXsLLBBbvPQABOZUDynrfB30cqQF1XfkCjdpLBvaCZQGHk
67/7oZ3BptCBQA9QgkCqlaDBWZeYQHPllEAMlY/B+tG1QHtax7+3lozBdjXJQJIGlUC4h6LBzCIE
P/HOhMDhKoHB2dC/QMifF0Fuq8fBfJunQOqG80DvYdPBFDPrQOb9D0FIaLfBMQ+VQCMh18C0vIvB
LP26QHVjqEC9187BmoX+QDjY1EAW2rLBCA/xQOWB7j8V06HByeKqQLUH0T5PG73BKQm8QHcdl8C/
gZLBsJvRQFd/oD1dk5bBX46LQJgys78X6bHBdSkXQJ5Oz8BgSYTBOtQSQYKXgUBAucXBXPUOQbSp
xT+HybzBr7YfQDIzD8BObYrB97OOQEOcSUC3C7TBtf2ZQMEpnECasbbB5lAeQJjogkAEqYrBuQf4
PyvvaUAEXpfB6Y+FQKdmG8DfvqHBTJZQQJIFckA/0KTBqwC2QBKhm0BLP5LB6qeRQMVPmEC10YfB
Fn/AQLn7BUHMVcbBoTu0QGv56ECYxczBedjZQGqpAkFqJb3BWnkEQIABksAjkobBL2fBQBZPv0DZ
CMrBxRTnQFmw20AJaLrB49/qQF8JOT+s6KbBe8CqQCUfLj/ZF7LBl+cRQJKRXcAkZ43Be+PZQKDo
ob7ypKDBpOKZQBqkt76o4qvBKGhCQPmvssC624XBqOwFQdzBb0D2ScDBC90EQe89G0DwDbvB1feN
QJjbjMB/uJLBLATbQKrVuEBp5MDBn+XSQNS1nT93h6/BxQZeQM/fV8CwfpPBfwexQMQKWL+x+KLB
XgKHQK8ksMDl94vBdOfmQC6RjUCWv73BaDDjQH2CFkBRwrXBe0BuQCa4DcDsgprBDCKnQBWIhkAL
V6bBiHh1QAlnhUChDJbBH+mkQNimfEB+iLLBQUTPQPkxZEDXebfBgk0qQCQJd0DsMJLBPsuhQBhm
8L83ipzBbHSBQMKXf0CLXqDBroqXQFuSlEDGd4/BWxsyQOJgw79Vn53BPyfIQIPZlEAcZaLBa+6w
QId23MDPKIvB5nK2QK/3FUHPcsjB8cKgQMAk7kDFytPB8hbjQKEUEEGnN7jBtjqVPyj5k8Cs3oHB
C+23QBNrpEDZ6s7BT2f6QA561kDKXLPBiQ0FQbVckD+HH6XBpvSYQFl5hz902rjBgSjEP2DjK8C6
/Y3BYSXsQBJhNr9FB5rBsnZ2QHoISr9/5q3B3+Q3QIivzcCGoIDB2dcSQbykg0BHN8XBVv4QQTwg
1D/9U7vBXRirQFfaisALWJfBWwaOQJNwSEBW/LPBk3CZQC+wm0DjcrbBtB8eQAM8f0CJZ4rBven5
PzS1X0BtBpfBse63QMR8HMCV9pjBoY1QQK+SakC1jKTB8Ia0QJCfnED9MZLBsJKQQCsdmEDTtYfB

> <OMEGA_E>
oBQbPcAqGz1A/iU9QF8TPRDkXz5AJWA+sCNkPjALbD74UME+bO4FPw==

> <OMEGA_NBR>
     16504

$$$$
50146759
  -OEChem-04172616093D

 61 64  0     0  0  0  0  0  0999 V2000
    6.2861    8.3273  -24.6829 C   0  0  0  0  0  0  0  0  0  0  0  0
    5.6503    7.2438  -25.3224 C   0  0  0  0  0  0  0  0  0  0  0  0
    7.2326    8.0927  -23.6643 C   0  0  0  0  0  0  0  0  0  0  0  0
    4.1506   -5.9300  -17.0956 C   0  0  0  0  0  0  0  0  0  0  0  0
    5.9565    5.9255  -24.9393 C   0  0  0  0  0  0  0  0  0  0  0  0
    7.5533    6.7738  -23.2923 C   0  0  0  0  0  0  0  0  0  0  0  0
    6.0288   -0.0556  -22.5394 C   0  0  0  0  0  0  0  0  0  0  0  0
    6.2401    1.2658  -20.4891 C   0  0  0  0  0  0  0  0  0  0  0  0
    4.7792   -5.2465  -18.1533 C   0  0  0  0  0  0  0  0  0  0  0  0
    5.4246   -1.0881  -21.8066 C   0  0  0  0  0  0  0  0  0  0  0  0
    5.6120    0.2535  -19.7657 C   0  0  0  0  0  0  0  0  0  0  0  0
    2.9777   -5.4099  -16.5099 C   0  0  0  0  0  0  0  0  0  0  0  0
    8.4178    3.6632  -23.7084 C   0  0  0  0  0  0  0  0  0  0  0  0
    8.2645    2.3073  -23.1469 C   0  0  0  0  0  0  0  0  0  0  0  0
    3.0531   -3.5242  -18.0364 C   0  0  0  0  0  0  0  0  0  0  0  0
    6.9124    5.6930  -23.9295 C   0  0  0  0  0  0  0  0  0  0  0  0
    6.4311    1.1186  -21.8751 C   0  0  0  0  0  0  0  0  0  0  0  0
    4.2298   -4.0349  -18.6232 C   0  0  0  0  0  0  0  0  0  0  0  0
    5.2262   -0.9267  -20.4176 C   0  0  0  0  0  0  0  0  0  0  0  0
    2.4217   -4.1933  -16.9868 C   0  0  0  0  0  0  0  0  0  0  0  0
    7.2260    4.3260  -23.5328 C   0  0  0  0  0  0  0  0  0  0  0  0
    6.9988    2.2217  -22.6247 C   0  0  0  0  0  0  0  0  0  0  0  0
    4.8798   -3.2471  -19.6722 C   0  0  0  0  0  0  0  0  0  0  0  0
    5.1323    4.2482  -20.8903 C   0  0  0  0  0  0  0  0  0  0  0  0
    3.8760    4.2480  -18.7957 C   0  0  0  0  0  0  0  0  0  0  0  0
    0.5278   -4.3427  -15.5063 C   0  0  0  0  0  0  0  0  0  0  0  0
    5.0536    3.7969  -22.3567 C   0  0  0  0  0  0  0  0  0  0  0  0
    6.4041    3.4354  -22.8831 N   0  0  0  0  0  0  0  0  0  0  0  0
    2.7362    3.9537  -18.2376 N   0  0  0  0  0  0  0  0  0  0  0  0
    4.6183   -1.8868  -19.6477 N   0  0  0  0  0  0  0  0  0  0  0  0
    4.0079    4.0295  -20.0850 N   0  0  0  0  0  0  0  0  0  0  0  0
    4.8256    4.7314  -18.0395 N   0  3  0  0  0  0  0  0  0  0  0  0
    5.7136   -3.7467  -20.4214 O   0  0  0  0  0  0  0  0  0  0  0  0
    6.1661    4.7606  -20.4684 O   0  0  0  0  0  0  0  0  0  0  0  0
    1.2799   -3.5952  -16.4798 O   0  0  0  0  0  0  0  0  0  0  0  0
    6.0476    9.3397  -24.9738 H   0  0  0  0  0  0  0  0  0  0  0  0
    4.9290    7.4256  -26.1054 H   0  0  0  0  0  0  0  0  0  0  0  0
    7.7113    8.9250  -23.1698 H   0  0  0  0  0  0  0  0  0  0  0  0
    4.5682   -6.8568  -16.7309 H   0  0  0  0  0  0  0  0  0  0  0  0
    5.4607    5.0936  -25.4174 H   0  0  0  0  0  0  0  0  0  0  0  0
    8.2875    6.5910  -22.5216 H   0  0  0  0  0  0  0  0  0  0  0  0
    6.1838   -0.1605  -23.6030 H   0  0  0  0  0  0  0  0  0  0  0  0
    6.5790    2.1602  -19.9874 H   0  0  0  0  0  0  0  0  0  0  0  0
    5.6761   -5.6468  -18.6023 H   0  0  0  0  0  0  0  0  0  0  0  0
    5.1143   -1.9975  -22.2997 H   0  0  0  0  0  0  0  0  0  0  0  0
    5.4236    0.3773  -18.7095 H   0  0  0  0  0  0  0  0  0  0  0  0
    2.5015   -5.9380  -15.6971 H   0  0  0  0  0  0  0  0  0  0  0  0
    9.3065    4.0632  -24.1737 H   0  0  0  0  0  0  0  0  0  0  0  0
    9.0108    1.5267  -23.1471 H   0  0  0  0  0  0  0  0  0  0  0  0
    2.6337   -2.6000  -18.4055 H   0  0  0  0  0  0  0  0  0  0  0  0
   -0.3473   -3.7565  -15.1894 H   0  0  0  0  0  0  0  0  0  0  0  0
    0.1922   -5.2908  -15.9517 H   0  0  0  0  0  0  0  0  0  0  0  0
    1.1641   -4.5524  -14.6338 H   0  0  0  0  0  0  0  0  0  0  0  0
    4.3942    2.9193  -22.4272 H   0  0  0  0  0  0  0  0  0  0  0  0
    4.6396    4.6162  -22.9627 H   0  0  0  0  0  0  0  0  0  0  0  0
    2.6074    4.0995  -17.2567 H   0  0  0  0  0  0  0  0  0  0  0  0
    1.9901    3.5821  -18.7901 H   0  0  0  0  0  0  0  0  0  0  0  0
    3.9179   -1.5737  -19.0063 H   0  0  0  0  0  0  0  0  0  0  0  0
    3.2032    3.6601  -20.5498 H   0  0  0  0  0  0  0  0  0  0  0  0
    5.7149    4.9575  -18.4368 H   0  0  0  0  0  0  0  0  0  0  0  0
    4.6630    4.8751  -17.0633 H   0  0  0  0  0  0  0  0  0  0  0  0
  1  2  1  0  0  0  0
  1  3  2  0  0  0  0
  2  5  2  0  0  0  0
  3  6  1  0  0  0  0
  4  9  1  0  0  0  0
  4 12  2  0  0  0  0
  5 16  1  0  0  0  0
  6 16  2  0  0  0  0
  7 10  2  0  0  0  0
  7 17  1  0  0  0  0
  8 11  1  0  0  0  0
  8 17  2  0  0  0  0
  9 18  2  0  0  0  0
 10 19  1  0  0  0  0
 11 19  2  0  0  0  0
 12 20  1  0  0  0  0
 13 14  1  0  0  0  0
 13 21  2  0  0  0  0
 14 22  2  0  0  0  0
 15 18  1  0  0  0  0
 15 20  2  0  0  0  0
 16 21  1  0  0  0  0
 17 22  1  0  0  0  0
 18 23  1  0  0  0  0
 19 30  1  0  0  0  0
 20 35  1  0  0  0  0
 21 28  1  0  0  0  0
 22 28  1  0  0  0  0
 23 30  1  0  0  0  0
 23 33  2  0  0  0  0
 24 27  1  0  0  0  0
 24 31  1  0  0  0  0
 24 34  2  0  0  0  0
 25 29  1  0  0  0  0
 25 31  1  0  0  0  0
 25 32  2  0  0  0  0
 26 35  1  0  0  0  0
 27 28  1  0  0  0  0
  1 36  1  0  0  0  0
  2 37  1  0  0  0  0
  3 38  1  0  0  0  0
  4 39  1  0  0  0  0
  5 40  1  0  0  0  0
  6 41  1  0  0  0  0
  7 42  1  0  0  0  0
  8 43  1  0  0  0  0
  9 44  1  0  0  0  0
 10 45  1  0  0  0  0
 11 46  1  0  0  0  0
 12 47  1  0  0  0  0
 13 48  1  0  0  0  0
 14 49  1  0  0  0  0
 15 50  1  0  0  0  0
 26 51  1  0  0  0  0
 26 52  1  0  0  0  0
 26 53  1  0  0  0  0
 27 54  1  0  0  0  0
 27 55  1  0  0  0  0
 29 56  1  0  0  0  0
 29 57  1  0  0  0  0
 30 58  1  0  0  0  0
 31 59  1  0  0  0  0
 32 60  1  0  0  0  0
 32 61  1  0  0  0  0
M  CHG  1  32   1
M  END
> <OMEGA_C>
ayfJQIs8BUGVdsXB6c60QALN50BBlMrBRXHnQMl7AUGQUL3BhNGEQGzCvcDKw4jBipu+QEydvUCp
g8fBh7TxQO7C2ECPVrrBuevAQHilY72rULTB+67HQA0Hoj/B6aPB7O6YQPbip8AIOpHBepatQBlI
i7/mc67BopWzQKTOgT4bIJ7BYJM+QMIdrcBMFITBLa8GQTZyakC7qr3BZzsEQZurE0DuLLnBpWVD
QAaNYcB9SpDBhDLdQF4ttkCab7/BL8vNQC4ujz88AK/B2FqHQCoegcBk/JTB1jynQMg8bb9LV6PB
hv0aQD4vhsDe5IfBRDvnQJZuikA9Q7zBQfbfQGwwDkB5/7TBbSecQPfPT8CpYJ3BDzykQKbxh0Bk
H6fBORB4QIbvh0CoXZbBkyAHP0z3isDfGXjBL7ehQNT/ckBx2rLBre7MQHfdW0CVELfBix4vQDMK
fUCY5pHB6ciTQGKC8b+RLp3ByECAQF7xgEAerqDBTmuaQFBnl0DPUJDBjtW2QHXKb8D8XqPBi1DF
QNxWmEAyv6PBTtSjPwQXZsCy1oPBGobBQDpvFUFsysfBY7qdQNKe7UDg19DBIMP2QL/MDkHPW7nB
wi6SQN1q28Dk2IXB4b2uQKv+okDOVsvBkZkEQXrp0kA7LLTBhuHFQNFYJL4J07zBbofSQE9ACkBJ
5p/B7qK1QLOytMB50ZTBoqijQPet/7/bZbLBJY6tQKQnwT76rJXBYhggQLwDvsAtJ3vBiecUQQwG
gkCjY8HBISwQQYFpwz80LbnB1I0oQCdmJsB0PpPBB9WxvoNqcMCaB3PBvclEPnROqcAjOn/BjACV
PxOtkcAsJGrBMJ2MQCbVOkDVarPBy3eUQO+3k0Cjs7fBdOAmQFAvg0C3DYrB57z+PzhBZUALUpbB
SL96QJJuyb/aDJjBVwFNQDQ/akADZqTB1eC2QBqknkCkfpPBSDeVQP8AnECggYjB79rGQIhqBEFB
0sXBu4G0QKpW5UDNDsvBbDfkQHBNAUHFZb3BTRuMQIu4u8C+bojB03S/QPWYu0Ch28fBnY7vQCLe
2ECjQ7rBYh3MQEfTpD/lSqPBRH3CQCDiDLwBubPBoiSdQE3gpMDIIZHBUEq3QBMRlT4uc53BRwuu
QGIVgr/L2a3BdelKQFFvrsD+qoPBkZgHQevRa0D8jb3BFckFQV7DFUDlw7jBJ8FCQBdaZcAZFpDB
MzjdQD94tUAfhr/BJ2XRQI3PkT8baa7BP66HQLg9gMAa8pTBqOaoQLBRXr8prKLB6FMfQKKsicAT
kYfBs4boQJ46ikCHN7zBLDTjQCUOD0CqiLTB+3yZQDXkTMCckZ3BTcykQJz4hkDWJ6fBsSN3QCXi
hkCbj5bBGxYmP/golMDW0HbBgE+jQGPub0C02LLBogzPQNTyWkAu4bbBnOstQL0qekBROJLBilWV
QATz6b/Ab5zBrZyAQB/UfkBn1KDBfVmZQJABl0DqbZDBnu2uQD1ZbsCjpaTBNhzFQHm0mEBHvaPB
jAqlP4crdcAihYPBm2a+QMdwFEGkRMjB8RKeQKow6kB3hNHBov7xQNXtDkEwWrnBZqucQNyC18DF
ZIXBohuxQLtVoEDvxcvB9RsDQfr+00AI27PBJh7YQCHMCkDfS5/Ba8LGQMn35r2AQbzBdn66QF9S
r8A935TBnEWyQIil0j6w9JTBm0aiQGNV879l1rHByq4wQFc/wMAUD3rBJZYVQakQg0AmasHBTBAS
QftHyj+bnrjBLQAjQKFwLMAA95LBrnKTvqalhMAO0nHBxtTaPnEatMBQTn3BPbmoP81Cl8CX72jB
5g2PQP+GNkC0ZrPB+JOVQPuUkUB8z7fBLoskQKD0gUCOZorBLC/+P55gYUAGtZbBH12CQJ9MwL8O
i5bBQdFOQJBzZUBXmqTBdPK1QPBmnkCcgZPB/YqTQPPym0DqqIjBeYDCQG5+BUFZ6cTBO1OuQJPG
50CB1cnBbhvjQOEnAkFRS73B9rUMQPOZgsAOnIjBq8S6QP3gvUDkI8fBHeLvQI1p2kDoqrrBFGLF
QGgmQr2WJbTByATMQOGLpz918aPBk2k3QBOtWsAb7pDB/b+xQOhKiL8mJa7BSbq3QFE1nz5FBJ7B
g04wQDzXp8CrJ4TBTUEHQeLtb0Av9b3B1qcFQdfEGEDGb7nBTniUQJQDo8C9g5DBzZ7bQDY+t0BD
lL/BChvSQLQlkj8+BK/BRdiCQCcJe8Cb7pTB+daqQEoxYL83EKPBDIZ+QKU9uMBa/4fB15bnQHS6
i0CIi7zBTwbjQIRJEEBeMrXB3BWaQOXySsAIK53BBdOkQE42h0B3cKfBlkp7QI+Mg0DskJbBQQe3
QMKj7cApFofB3uuiQAEycEC0GrPBy4fOQNl2XECPTrfB7c0yQO79cUBVJZLBZ2yVQBHq5b9J1ZzB
kEyCQNTHeEDy2aDBhJubQJ6sk0BDfpDB04O0QLElbsA29aLBivDDQJ2fm0DbRKTBXTyPQC6C3MDf
B4PB1fa4QGSUFUG4+sbBK1qVQKn07EAcqs/BY0fyQDSsD0GWebnBPTWhPy68bMCyooXBlzKrQFPW
okCr2srBy48EQUY91UC56LTBOazKQNB6NL5hn7zB1gnXQIxZDUBaCaDB0mwcQNMCIcAkS5TBdQGo
QGkB/r/09rHBNPaxQOYs5z6DkpXBLG8PQE4OuMCvc3vBljQVQVzQhUBbs8HBvg0SQW0+0T/UdrnB
nCmyQJeir8CKnJPBSvS/QDQZBcFkc4LB9BWzQCdn9sBkjY/BmVTQQEJZ1cBtWIbBXhOPQJQrNkDA
kbPBdICUQKp1kUAsB7jBGCMqQCqdekALS4rBQ9MDQM0qWUDtmpbBiWqAQAd3t7/kipfBUA9UQCt/
WkDrb6TBUwa4QA9Om0BUo5PBsB+WQOVimEA4s4jBpl/DQErqBUE35sTBJa7lQFJCAkHxzb3BO5ms
QKsJ6UCGQ8nBDLoIQMfggsCzTInBonvxQPhi2kCoIbvBExO4QFftvkBxg8bBeODEQLBIa71qZLTB
VwDMQMYtpT9bJ6TBItg1QDoyW8DcaZHBWXOxQEYCir9fYa7B7LC3QGYelj4+O57BzR0rQMAJqMAi
q4TBjrIGQb24cEDbC77BuTgFQXUbGUA9q7nB+buTQG8Yo8AtcpDB25XaQHuft0C5d7/BpLPRQASY
kD8FP6/BVrSCQD9Re8CIC5XBC6SqQF7IY79iTKPBx7N6QOc3uMBIGojB/2PmQDTli0AIkLzBKDzi
QJfjD0AVarXBh/yaQKo0S8CuG53BOaCkQMOlhkA7U6fBy8x6QO+OhEBAcJbBCg+5QIRX58Bm0YTB
QROiQFkrb0CN/7LBuH3NQKIKXEDMZbfBXf0yQDtWc0DQ5ZHB/tOUQNgn57/iIZ3BAUCBQE2nfECA
yaDByaubQEV6lEBKbZDBonO3QKFXbcANX6LB7x3FQOGRmECaE6TBor2MQONT3MDA94LB9Ya6QOMV
FkGE/sbBcuf2QNefD0Gsa7rBmGCSQCmz7kANts7Bi16XP8NsbcDNnobBEAAGQRm41EBdxrXB432m
QMI3pEBvysnBs+zJQF6SOr6R4bzBFVfXQFzYC0ABO6DBZ7wbQJSfIcBQ6JTBx8ynQCPl/7+hMbLB
zQmyQGff3D6fx5XBb0UIQKVbuMCH13zBlZsUQbyHhkBawMHB1aoRQb1V0j9Xy7nBY9mxQJy8r8Bb
RZPB0hrBQNs6AsEPTYDB1CO+QKQT7cAuaI3BWanNQLjczMDjJ4LBu2SOQHLjNEDUZLPBbymTQGLi
kEB72bfBmF0rQPYoe0DdA4rB+3wDQFTLWkBoS5bBbc18QKkgub83NJjBSzhPQNAgZECSdqTBy7+3
QFyxnEAjq5PBEMOWQGRymECKlYjBJqnIQB9OBUG/WsXBrBDqQGxeAUEoCL7BiB6xQLVB6EC0r8nB
XieFQNv/u8DiUYjBtDb0QJ532EAgGrvBne+6QAEEvkBtrsbBGaPBQFgNZL3LPLTB5DXIQKXMoj8q
3KPB/HyZQBe6psBC2pDB/FSuQJsfi7+8Xa7BBx+0QI5qhT70D57BhNA9QE6Qq8DV8IPBL6EGQXok
a0D0rb3BdmgEQedjFEC4J7nB3pRCQF/5YMCXhZDBIZXcQCoutkBRa7/BrnLOQMNSjz+/8K7B6XeH
QNuzgMA58ZTBb/KnQMw/bL+ZQqPBiWwZQFNuhcCOIIjBM9/mQFFlikBUT7zBfFrgQM8+DkCS+bTB
yS6cQPjIT8ARZZ3BOEWkQIKnh0CiIafBrAp4QFyWh0DvY5bBqJ3XPkV3i8D2fnrBEquhQCGYcUCn
0LLBlOPMQGNcW0DIFrfBb78uQDbifEBO+5HBCKCUQEPn8L/lE53BU2OAQDpygEDzr6DBUmyaQHbb
lkBDUJDB+M+1QK7ScMBPlKPBzizFQCGRmEDxzaPBwhedP/pyZcC1f4TB3BbBQBeHFUGnpsfBHNv7
QJ6SDkFKrLrBTZWXQKVd7kDmTc/B7+GSQAoC2cA8HYXB2QIHQU9U0kCBkLXBQcKoQGako0AC7cnB
k6DGQP1XJr6BvrzBgvLSQD/MCkA13Z/BN6S2QFFrs8DzPJTB0HGkQBew/79zTLLBMfetQKxExj7/
npXBTOgeQPQBvMAmy3rBhMoUQW+igkCVZsHBFXkQQZDQxT9SI7nBiXsnQCiqJsAtsZPBXNnxvtT+
ccCaAnbBHdLpPXZqqcBhKoHB9amAP9DqksD+DWzBNvGMQLrQOECSSLPB+OuTQDqrkkBwsbfBqi0m
QEYng0BGJIrBphr+P0drZUDub5bB47B9QHYjyL+fzJfBZ4tNQGaXaECoZaTB3AG3QNPOnUBYdpPB
NRuVQMqXm0Cag4jBQpjIQDo5BkE5CMbBNcm6QEhW6kCOkczBZivhQJ8aAkGayrzB2KKDQNt/wsCe
f4rB/pvFQNf1v0BK4MnBtgvsQLbZ2UA9GLrB2p7lQPTILj8J66bBCRSlQPkwNz+J9bHBZHqeQCj8
pMD+sY/BF7fTQMz5qL6rlKDB7DqTQPpYmr7lp6vBC8E0QNs7tsCjLYfBotUFQWTTaEAWG8DBUoYD
QVxJFEDr/LrBotFMQHl9XcCAXY7BXGveQKbgt0CQrcDBJTjOQGarmj9ij6/B4vOPQLjTdcBOsZHB
6J6qQEWYV7/ZCaPBT+EWQJf4i8D4EInB7tfnQHPzi0DqmL3Bzi/gQORBE0AYzrXBSmarQGSpN8B3
VJfBUfWmQG6ch0BSWqbB1ONzQMpfiEBSKpbBQI94Pnt7m8APboDBmrekQGO/f0A4kbLB2n3OQCkc
Y0CbdLfB1nsnQF1hgEAOapLBpjWXQNBu7L/fB53Bu8KAQPO0gkCeeqDBXz6XQITalUCnfY/BgkXS
QGbTQsD7nZfBWYvIQHUNlEAMT6LBiR+NP1fhesAr9IXBi1TAQAB7FkGeG8jBO+6nQMm68EB9odPB
4aDrQHAwD0FsyrfBD7eOQIO34sAmDInBBPO6QPG/pUBG1s7BBMH+QItq00CoArPBAaICQeJlhz9K
K6XB0ViTQOdcjz/fobjBfza+QNd3rsCDKZLBDkXlQOw9OL+Z0pnBHQpnQA3HK7/nZ63BY/ILQMQS
zcDALIPB3SYTQeHrfUBZ8MTB2vwOQQ84wT/eQbvBe302QAtBHcD56I/BhRE2v6nWi8Br6HzBSKtX
PSRDt8CvnYXBBds7P6ctpsACDHLB/YWMQP0gTkDAHLTB7fKaQFXqnUAGc7bB7yAbQAWbhEDboorB
/rvyP0QTbEBjUpfBJXVuQGHf6r9oxZzBMXNOQM5Mc0BRvKTBn7W0QJp3nEALI5LB2CuQQOCKmUBN
vofBkcXCQG01BUHmvcfBLevaQKK/70Cwic7B8ia3QFge/ECfe73BdT4NQESijMBVzofBavXmQMV7
xkApJcvBDozDQDI100AYDbrBYpHKQNogMb09nLPBxsHOQJjArj9ps6PB6bklQA6GYsC2MZDB+Ni4
QLPAib+5aq3BOpq8QOOlrz4xiZ3B/E0+QKlDscCTc4XBgK0EQc9JaUBO8MDB9+4DQRlxFEATx7vB
+3aQQJYen8Bu5JPBZs3aQDWpt0Ak6MDB39/UQEezlz84xq7B+lpvQBtSdcBeQ5bBIu2wQLMjYL+E
XKLBNHyEQP7SusCogYvBJFLmQH3ei0CjhL3BelPkQNrIEkCUUbXB2V+FQAEYO8CUuZ7BG/GlQLm/
h0BBPqbBOtd0QDb2h0Ae3ZXBZJeRQNvU+sAnD4HBA8KkQCFRckARFbLBDEbQQEqdYEDbxrbBS/4p
QHLzfEBL3JHBvaefQKRD7r/PvpvBlrGAQCY1gUAMJqDB17OXQDg3l0AlbY/BL/dsQJ+cQ8DFvafB
HLDGQNinl0DWhKLB0EeeQC5F3sBfnonBdjC5QB7tFEFzasrB6DjkQLj6+kDyXtbB6LukQLdICEHC
QbjBE26pP1GPhcDGKIPBf3/5QN0nskDEX9DBIUG7QJqeyECbF7LBCUHQQKNBRL6pDLzBpxfYQO7P
EkBf9Z/BqzYAQIBAKsCe+pHBqT2xQOiYAcCoFLHBHY23QAay+j7LEZXBlhwrQLE1xsDXBX7B6tAQ
QdFIf0BscMbBuEcPQYUdwj9m4LzBNNSsQGrjpcCLh5jBMbCoQIakCsF1dYDBftyQQCUa6cAR63LB
0ydjQG7lA8EWwoLBYJiRQPRnN0BmmLLB62mVQOp8kkDG1rbBWq4eQPvsgkDDEIrBlwD4P1iGZUA0
l5bBrfumQGE15r9n+ZPB4PZOQDq5a0BTLaTB2MG0QHtvnkBfQJLB3gaRQGGnm0BzrofBq2nAQI7/
BUGlUsbBlx60QJgB6UCtwczBOdPZQMasAkEUJb3B8V4DQJo0kcAvmYbBv0zBQKhWv0ALBsrB0w/n
QD2220CraLrBWunqQPAROT946KbBedSqQKPyLT9/G7LBjHYRQKl0XMAIc43BX/TZQEPDor4qqKDB
JACaQF7xuL5b6qvB2J1AQJUXssBIzYXB8ekFQcvcb0CCSsDB7t4EQeJYG0D7DbvBKJSNQFrejMCj
qZLBMfTaQHzbuECd48DBrfDSQD7GnT9Ah6/Bk7JdQGuNV8AEgJPB9SCxQFTTWL/a/6LBn6KGQCU2
sMDp5IvBjt3mQNqWjUDuv73BHDjjQL2UFkCjwLXBW1luQG21DcCfjJrBXiOnQI6FhkAZVqbBPoB1
QFlXhUBkC5bBHtKeQCf888CHrITBX+ekQPOifEBMh7LBzELPQPA4ZED+eLfBDlcqQLfedkAVMJLB
+t6hQETh8L91k5zBlHeBQLCIf0CdXaDBy42XQPZ/lEDjdY/By18yQLQEw7+irJ3BHCnIQGvWlEAr
ZKLB2y2mQBqNz8BRl4vBKFe2QGL7FUEGbsjBAp6gQJot7kBzxdPByh3jQP0XEEG9OLjBjKKSPyfa
ksBW7YHBR8y3QExzpECA587BmWv6QFV/1kAJX7PBJw8FQVeFkD+nHKXBGQmZQMVzhz+13bjBFQfE
P4J0KsB2Fo7B4DTsQOLbNr9zCprBS8J2QA8DS7+U8a3BNUQ1QNrizMBQiIDBidMSQfa2g0ApOMXB
vgERQb1i1D/iVLvBjb2qQNn9isCMRpfBYCG6QEILBcEKN4XBZkWbQCXy6MDzunjBmXWBQNBMAsFb
L4fBXAeOQFpnSEDc+rPBZmqZQAStm0B0cbbBGikeQD8Ff0B/ZorBpv/5P5+OX0AVBpfB+fm3QIjj
HMAbA5nBTJNQQP6IakAUjKTBR4m0QIKRnEDQL5LB75WQQFQEmEC/s4fB4pbAQF/7BUHEVMbB80G0
QBP66EAjw8zBqf3ZQPemAkHyJr3BP9yHQLg9sMBlEozBS2PBQMtLv0ABB8rB5S3nQCyn20ACarrB
DNHqQKs2OT/x56bBXqiqQKiRLj+gFLLBg4KOQPb9jMDc05LB7dbZQGNkob6IpKDB/ceZQJZltr5s
3qvBv6lEQAAGs8B76YXBbeoFQeqlb0ARScDBjNcEQcYmG0B6DLvBlRoTQENyXsCNY43BuwnbQNnN
uECY5MDB2NPSQMvKnT/Pha/BF8xeQHZ3WMCaipPBBfmwQFuOV78Y96LBjJUFQEdXksCogIbBmeTm
QB6IjUC+v73BOCTjQL18FkAswbXBBnZuQLsHDsBqhprBAianQLCLhkBNVabBX3d1QBJwhUBjC5bB
Z88zP1gFt8AoA3PBeeekQAW6fEDahrLB6j3PQHwuZEA9ebfBGUMqQIMod0CnMZLBSNShQNRL8L9I
i5zBh3aBQAOyf0BLXaDBfoqXQD2SlEBedY/BtRwyQGQ2xL/amZ3B7C/IQADQlEDAYqLBlGJpPw/n
ksAAlIDBso22QDr4FUH6cMjB98KgQOwp7kADx9PBQU/jQJAREEEDO7jBM56fQE9FycDpmovBUNq3
QIZppEDM587BGof6QEBs1kAfYLPBjgYFQQVxkD9/H6XB/tqYQHi+hz+k1rjBCoCrQBzeisA8gJfB
kBvsQGdCNr/cB5rBpzJ2QJofSb8r363B9d46QKomzsBms4DBDtcSQX2Sg0AUNsXB2vYQQcrh0z/n
UbvBT3HGPw7QLMBh943BqieFvlJbs8CMsGrBQ1sxP1/D1MCgbHzBWQbCPxpguMATL2fBIfyNQGqT
SEAJ+7PBMneZQA6/m0BIcLbBDwweQBhXf0BsaIrBWNj5P+3iX0B9CJfBPAa4QExDHMBB9pjBQY1Q
QIjBakA1jKTBXYm0QDObnEChLpLBQJCQQFYamEB4s4fB

> <OMEGA_E>
ALpVPgAXWz4AroU+KBCHPgDwTz6oJ+o+TDMJP+o1CD/MIwc/

> <OMEGA_NBR>
     25669

$$$$
408871
  -OEChem-04172616093D

 45 48  0     1  0  0  0  0  0999 V2000
    4.4395    3.4539  -17.7325 C   0  0  0  0  0  0  0  0  0  0  0  0
    3.5293    3.3457  -18.7998 C   0  0  0  0  0  0  0  0  0  0  0  0
    5.7955    3.1349  -17.9283 C   0  0  0  0  0  0  0  0  0  0  0  0
    6.6675   -1.3714  -22.9021 C   0  0  0  0  0  0  0  0  0  0  0  0
    4.5673   -4.3313  -18.3443 C   0  0  0  0  0  0  0  0  0  0  0  0
    6.1006   -2.1747  -21.8939 C   0  0  0  0  0  0  0  0  0  0  0  0
    5.2480   -3.6106  -19.3427 C   0  0  0  0  0  0  0  0  0  0  0  0
    3.9795    2.9505  -20.0715 C   0  0  0  0  0  0  0  0  0  0  0  0
    6.2484    2.7296  -19.1960 C   0  0  0  0  0  0  0  0  0  0  0  0
    6.5473    0.0295  -22.8469 C   0  0  0  0  0  0  0  0  0  0  0  0
    5.2574   -0.1723  -20.7893 C   0  0  0  0  0  0  0  0  0  0  0  0
    3.3282   -3.8540  -17.8664 C   0  0  0  0  0  0  0  0  0  0  0  0
    3.4248   -2.0038  -19.3018 C   0  0  0  0  0  0  0  0  0  0  0  0
    5.3628   -1.5805  -20.8460 C   0  0  0  0  0  0  0  0  0  0  0  0
    4.6772   -2.4126  -19.8239 C   0  0  0  0  0  0  0  0  0  0  0  0
    5.3542    2.6757  -20.2952 C   0  0  0  0  0  0  0  0  0  0  0  0
    5.8838    0.6487  -21.7623 C   0  0  0  0  0  0  0  0  0  0  0  0
    7.1918    2.8067  -22.0386 C   0  0  0  0  0  0  0  0  0  0  0  0
    5.6011    3.7567  -23.3722 C   0  0  0  0  0  0  0  0  0  0  0  0
    5.8290    2.1846  -21.6743 C   0  0  2  0  0  0  0  0  0  0  0  0
    7.9667    4.5945  -23.6365 C   0  0  0  0  0  0  0  0  0  0  0  0
    2.7763   -2.7173  -18.3516 N   0  0  0  0  0  0  0  0  0  0  0  0
    4.9422    2.7208  -22.7208 N   0  0  0  0  0  0  0  0  0  0  0  0
    6.9697    3.6467  -23.1205 N   0  0  0  0  0  0  0  0  0  0  0  0
    5.0328    4.6659  -24.1219 N   0  3  0  0  0  0  0  0  0  0  0  0
    8.2877    2.5592  -21.5466 O   0  0  0  0  0  0  0  0  0  0  0  0
    4.0969    3.7820  -16.7623 H   0  0  0  0  0  0  0  0  0  0  0  0
    2.4839    3.5665  -18.6419 H   0  0  0  0  0  0  0  0  0  0  0  0
    6.4896    3.2016  -17.1036 H   0  0  0  0  0  0  0  0  0  0  0  0
    7.1975   -1.8331  -23.7221 H   0  0  0  0  0  0  0  0  0  0  0  0
    4.9897   -5.2424  -17.9468 H   0  0  0  0  0  0  0  0  0  0  0  0
    6.2301   -3.2465  -21.9219 H   0  0  0  0  0  0  0  0  0  0  0  0
    6.1894   -3.9674  -19.7336 H   0  0  0  0  0  0  0  0  0  0  0  0
    3.2745    2.8552  -20.8841 H   0  0  0  0  0  0  0  0  0  0  0  0
    7.2845    2.4573  -19.3335 H   0  0  0  0  0  0  0  0  0  0  0  0
    6.9642    0.6355  -23.6377 H   0  0  0  0  0  0  0  0  0  0  0  0
    4.6908    0.2864  -19.9924 H   0  0  0  0  0  0  0  0  0  0  0  0
    2.8095   -4.4073  -17.0975 H   0  0  0  0  0  0  0  0  0  0  0  0
    2.9740   -1.0954  -19.6733 H   0  0  0  0  0  0  0  0  0  0  0  0
    7.5459    5.1392  -24.4946 H   0  0  0  0  0  0  0  0  0  0  0  0
    8.2368    5.3093  -22.8453 H   0  0  0  0  0  0  0  0  0  0  0  0
    8.8643    4.0447  -23.9559 H   0  0  0  0  0  0  0  0  0  0  0  0
    4.0200    2.3942  -22.9280 H   0  0  0  0  0  0  0  0  0  0  0  0
    5.5909    5.3623  -24.5732 H   0  0  0  0  0  0  0  0  0  0  0  0
    4.0402    4.6645  -24.2437 H   0  0  0  0  0  0  0  0  0  0  0  0
  1  2  1  0  0  0  0
  1  3  2  0  0  0  0
  2  8  2  0  0  0  0
  3  9  1  0  0  0  0
  4  6  1  0  0  0  0
  4 10  2  0  0  0  0
  5  7  2  0  0  0  0
  5 12  1  0  0  0  0
  6 14  2  0  0  0  0
  7 15  1  0  0  0  0
  8 16  1  0  0  0  0
  9 16  2  0  0  0  0
 10 17  1  0  0  0  0
 11 14  1  0  0  0  0
 11 17  2  0  0  0  0
 12 22  2  0  0  0  0
 13 15  2  0  0  0  0
 13 22  1  0  0  0  0
 14 15  1  0  0  0  0
 16 20  1  0  0  0  0
 17 20  1  0  0  0  0
 18 20  1  0  0  0  0
 18 24  1  0  0  0  0
 18 26  2  0  0  0  0
 19 23  1  0  0  0  0
 19 24  1  0  0  0  0
 19 25  2  0  0  0  0
 20 23  1  0  0  0  0
 21 24  1  0  0  0  0
  1 27  1  0  0  0  0
  2 28  1  0  0  0  0
  3 29  1  0  0  0  0
  4 30  1  0  0  0  0
  5 31  1  0  0  0  0
  6 32  1  0  0  0  0
  7 33  1  0  0  0  0
  8 34  1  0  0  0  0
  9 35  1  0  0  0  0
 10 36  1  0  0  0  0
 11 37  1  0  0  0  0
 12 38  1  0  0  0  0
 13 39  1  0  0  0  0
 21 40  1  0  0  0  0
 21 41  1  0  0  0  0
 21 42  1  0  0  0  0
 23 43  1  0  0  0  0
 25 44  1  0  0  0  0
 25 45  1  0  0  0  0
M  CHG  1  25   1
M  END
> <OMEGA_C>
IBCOQKoMXUAt3I3B5d9hQEEgVkDtZZbBdHS5QPeiSEAbbY/BWVzVQNKJr7+DN7fBpieSQBCaisAW
wZLBEDjDQKEtC8C4Jq/BOu+nQMMUZ8DTvZrBUK9+QOTUPEBxkqDBN/PHQAOxLkBbkZnBboPRQAiZ
8TyKxrbBPzyoQCdvML59UKbB8QFVQCeodsB67o7Bpy9bQCQ+AMAaaprBF5yrQBZPyr+ZxKbBv6uV
QG5nGsBLl57ByFWrQA8+K0CrXKLB1Ue8QBYOJj8mGa7BhSPmQHuhM0ADT7DBkDyzQG1ucEA8+rrB
xIa6QD3QC0AGZa3BP+/+QDoGk0CfF73Brq8xQAXpLcAq0JLBJiaeQO8hLkAoxLXBxAffQNxiaUDc
9rjBcwyhQFNPlUCv+cDBlJoEQWPJI0B3X6zByRmDQNkMckAeGYbB4/geQBxBZECvIpXBp6rPQLbm
TEAU1IjBrlHmQEqi6r/gxr3BvqufQF7Bp8AMk4/BvFzHQLzGT8AWYK/Bkg/GQDzpfcB03p3B6pBR
QFy8NkCpEqfBbxrpQO9EHUATq5rB/treQN6yIj/4Gb3BtRqWQKqckj598J/Bsc4zQE0IjcDEx4jB
QVU+QFA2jL/eYp3B/XfxQG50pEDf9MPB0MkDQSnmqUAlw7bBLtQNQe1tgUCupb/B46OAQDU6GUCN
bLfBruiyQKOXq0DRlcTBc0mBQMVDlUAg88HB9D6OQKEjXUCm2Y3BSKG5QOvkSEAJeI/BtMxhQG10
VUBbVJbBpF3WQGu4sL8ZJLfBzACSQCxhisC2qZLBlr7DQIv4C8AFKK/BrrqnQKduZ8CQu5rBluTH
QBhRLkCVm5nB2iJ+QLOXO0ASgKDB0FvSQMCUqDxntLbBjPynQNBQQL6SbqbBjuNUQCG0dcDH147B
h95aQJ16AMAWg5rBYIurQDkvzL8/3abB7HGVQEQhG8AksJ7BbgurQHgpKkDSWKLBtHu8QPreIj/W
G67Buj/lQPhtNEDYYbDBGCOxQCHicEBOwrrB4hy6QBf6CkAyZ63Bio78QOwnlEBtMb3BK50xQEo6
LcDLzpLBfDKdQJRjLEBrtrXByAvdQFsZbECjyLjBqfSdQPMllUBErsDBOlgEQX22JECapqzBa3aD
QJiYckCSF4bB7APQQKrFTUAi6ojBY+seQMJvY0ARBpXBOs/nQC6C67/Fob3B036fQOttp8AJa4/B
t/jHQMGMUMC5X6/BNtPFQHGWfsBO153BygjpQCT1HEDLvprB369QQIfuNEDU9KbBQxDgQCH8ID/b
97zBvlKVQCtuiT5yJKDBMM4zQOg+jMB8oIjBKe09QCtdjb+Hkp3BQ+7tQCxmpkBgxcPB04ADQUFV
qkDY4LbBYSsMQSNHgkDjOsDBlRiAQLOeFUCSb7fB0w+vQLwPrECnRcTBHmF8QMEslEB/ncHBCiuP
QKZGa0B6347B1Fa6QE63U0D9H5DBNgFlQAY7Y0C2f5fBmqHXQLXQpL8mnbfBWv49QFZ9PcBK4pLB
mp3EQA5GBsBfxK/BUNlgQMyUBcB+jprBMxzJQJybNUBkDprBCyyBQLSHRUBbdaHBW5nTQNBo3D1Z
FbfBVXyoQBCJ5L2n3KbB1rBrQK/kg8Aq+o/BrCitQHogZsCh8JvBw1ysQGXuwr+1Z6fBh1aYQHbW
GcCLNZ/BAPmsQGbnMEAT7aLBumm9QNKFNz9BhK7BAYbpQPRXNUDPNrDBRUW5QKh9eEAfGrvBy+u8
QCQ7EEBLx63BYVEDQT69kUCK97zB4hWcQAVzjcBNepTB1dKiQAg4NUCaarbBvGfjQIqAeEA2UbfB
K5epQGv8lkCWI8LB3iAGQSYtGkB0JK3BIwOEQEHJgUDFR4fBRSPQQKbFWEBFc4nBI28iQCLjc0Dl
dpbBeGrpQJK93r/CE77BRtEAQE6lL8D2QI/Boo7IQA3iSsDuH7DBIxs/QE47mL+x2ZzBYg/qQFP3
IUBa7prB8/lVQGJiPkDlBajBTZDhQELPOD/hRb3BR4eVQK1OrT5amaDBCx1RQBcsmcDjCIrB1IjL
QJajdsC7gZ/BlZ/5QNcqq0AGHMLBg2IOQS7Rn0BRGbfBa/ELQdOcdEBE68HBS6uFQM1FIUA2k7jB
7Di8QFbMrUAeRMXBq/mKQDCclEDPY8TBBPiLQBeTbUCNnI7BjKFgQBnRY0BTaJfBQGy3QHE6V0DA
i4/BZxzWQAZTn78mrLfBqbg/QNCvPcAel5LBXyHDQMhhBMC+6a/B9ORhQGwKBcB+OZrB1kiAQITB
RUBpOKHB9H7HQOGuOEATVZnBiwbTQCwIGj7O1LbB1dqoQMABwb2VeqbBctpsQOeMhMDSA5DBvtKs
QLUIZ8BnOJzBpvCrQPC8wL/ST6fBTT+YQBekGcCzKp/BlGWsQLx9MkDzZaLBUY+9QO3xPj84Fq7B
wIfqQCfsNUCsd6/BGpq7QJhjd0CQ27rBWnG9QAP7EUCqLq3B+a0EQetNkUDdQrzBthOcQH9HjsCN
y5TBJ8ajQA+KN0Du5rXBwqDmQJsYbEB+NrjBnEWsQE80mUDROMHB1zIGQa3JIECpRKvB26h/QJUf
g0ALIofBs5gdQP1vc0AZnpbBbHXMQEGMXUCGvIjB3SLnQCTm17/aTr7BPX0DQESPL8DDvI7BuUbG
QOoKScCHhbDBUo1AQGKAlb9/RZzB76pVQFBCPUAw6afBqqfoQC3WJUDQ8pnBMS7hQBenRj+267zB
962WQANfsT7tB6DB68tSQI4gmsCGGorBQbvKQDnKd8BgAqDBdPb9QASLo0BJOsPBpcEJQcacp0Dv
8bXBa04SQUJSekDFo77BXxWGQCr0JUCL67fBJAXAQAdErkD9q8TBZc+MQPOwmkCNosLB

> <OMEGA_E>
qvx0P3gQdT828ng/Wv95Pw==

> <OMEGA_NBR>
      3416

$$$$
408873
  -OEChem-04172616093D

 50 53  0     1  0  0  0  0  0999 V2000
    7.0052    5.1330  -23.8736 C   0  0  0  0  0  0  0  0  0  0  0  0
    5.6264    4.8898  -23.7341 C   0  0  0  0  0  0  0  0  0  0  0  0
    7.9254    4.4613  -23.0484 C   0  0  0  0  0  0  0  0  0  0  0  0
    6.6221   -0.9118  -22.7541 C   0  0  0  0  0  0  0  0  0  0  0  0
    4.9273   -4.5771  -18.5864 C   0  0  0  0  0  0  0  0  0  0  0  0
    6.0769   -1.8951  -21.9072 C   0  0  0  0  0  0  0  0  0  0  0  0
    5.4424   -3.6897  -19.5480 C   0  0  0  0  0  0  0  0  0  0  0  0
    5.1644    3.9816  -22.7645 C   0  0  0  0  0  0  0  0  0  0  0  0
    7.4683    3.5591  -22.0717 C   0  0  0  0  0  0  0  0  0  0  0  0
    6.4338    0.4545  -22.4694 C   0  0  0  0  0  0  0  0  0  0  0  0
    3.7074   -4.2956  -17.9404 C   0  0  0  0  0  0  0  0  0  0  0  0
    5.1320   -0.1450  -20.5032 C   0  0  0  0  0  0  0  0  0  0  0  0
    3.5055   -2.2391  -19.2256 C   0  0  0  0  0  0  0  0  0  0  0  0
    5.3141   -1.5109  -20.7830 C   0  0  0  0  0  0  0  0  0  0  0  0
    4.7397   -2.5065  -19.8607 C   0  0  0  0  0  0  0  0  0  0  0  0
    6.0799    3.3237  -21.9034 C   0  0  0  0  0  0  0  0  0  0  0  0
    5.6934    0.8481  -21.3263 C   0  0  0  0  0  0  0  0  0  0  0  0
    2.9831   -3.1165  -18.2612 C   0  0  0  0  0  0  0  0  0  0  0  0
    6.3236    2.4566  -19.5350 C   0  0  0  0  0  0  0  0  0  0  0  0
    4.1448    3.0962  -19.2011 C   0  0  0  0  0  0  0  0  0  0  0  0
    5.5809    2.3040  -20.8685 C   0  0  1  0  0  0  0  0  0  0  0  0
    5.7038    3.2031  -17.2082 C   0  0  0  0  0  0  0  0  0  0  0  0
    1.2876   -3.6033  -16.6057 C   0  0  0  0  0  0  0  0  0  0  0  0
    4.1859    2.6042  -20.4989 N   0  0  0  0  0  0  0  0  0  0  0  0
    5.4261    3.0229  -18.6401 N   0  0  0  0  0  0  0  0  0  0  0  0
    3.0662    3.5471  -18.6137 N   0  3  0  0  0  0  0  0  0  0  0  0
    7.4570    2.0689  -19.2697 O   0  0  0  0  0  0  0  0  0  0  0  0
    1.7800   -2.7563  -17.6677 O   0  0  0  0  0  0  0  0  0  0  0  0
    7.3571    5.8356  -24.6145 H   0  0  0  0  0  0  0  0  0  0  0  0
    4.9215    5.4014  -24.3726 H   0  0  0  0  0  0  0  0  0  0  0  0
    8.9843    4.6390  -23.1652 H   0  0  0  0  0  0  0  0  0  0  0  0
    7.1873   -1.2064  -23.6260 H   0  0  0  0  0  0  0  0  0  0  0  0
    5.4694   -5.4786  -18.3419 H   0  0  0  0  0  0  0  0  0  0  0  0
    6.2418   -2.9417  -22.1170 H   0  0  0  0  0  0  0  0  0  0  0  0
    6.3741   -3.9133  -20.0464 H   0  0  0  0  0  0  0  0  0  0  0  0
    4.1065    3.7839  -22.6751 H   0  0  0  0  0  0  0  0  0  0  0  0
    8.1797    3.0415  -21.4452 H   0  0  0  0  0  0  0  0  0  0  0  0
    6.8543    1.2041  -23.1234 H   0  0  0  0  0  0  0  0  0  0  0  0
    3.3213   -4.9788  -17.1984 H   0  0  0  0  0  0  0  0  0  0  0  0
    4.5509    0.1468  -19.6409 H   0  0  0  0  0  0  0  0  0  0  0  0
    2.9558   -1.3467  -19.4859 H   0  0  0  0  0  0  0  0  0  0  0  0
    4.8357    3.6720  -16.7219 H   0  0  0  0  0  0  0  0  0  0  0  0
    5.8979    2.2237  -16.7465 H   0  0  0  0  0  0  0  0  0  0  0  0
    6.5861    3.8482  -17.0843 H   0  0  0  0  0  0  0  0  0  0  0  0
    0.3343   -3.2037  -16.2295 H   0  0  0  0  0  0  0  0  0  0  0  0
    1.1315   -4.6215  -16.9915 H   0  0  0  0  0  0  0  0  0  0  0  0
    2.0223   -3.6298  -15.7875 H   0  0  0  0  0  0  0  0  0  0  0  0
    3.3913    2.4735  -21.0917 H   0  0  0  0  0  0  0  0  0  0  0  0
    3.1125    3.8827  -17.6728 H   0  0  0  0  0  0  0  0  0  0  0  0
    2.1956    3.5562  -19.1055 H   0  0  0  0  0  0  0  0  0  0  0  0
  1  2  1  0  0  0  0
  1  3  2  0  0  0  0
  2  8  2  0  0  0  0
  3  9  1  0  0  0  0
  4  6  1  0  0  0  0
  4 10  2  0  0  0  0
  5  7  2  0  0  0  0
  5 11  1  0  0  0  0
  6 14  2  0  0  0  0
  7 15  1  0  0  0  0
  8 16  1  0  0  0  0
  9 16  2  0  0  0  0
 10 17  1  0  0  0  0
 11 18  2  0  0  0  0
 12 14  1  0  0  0  0
 12 17  2  0  0  0  0
 13 15  2  0  0  0  0
 13 18  1  0  0  0  0
 14 15  1  0  0  0  0
 16 21  1  0  0  0  0
 17 21  1  0  0  0  0
 18 28  1  0  0  0  0
 19 21  1  0  0  0  0
 19 25  1  0  0  0  0
 19 27  2  0  0  0  0
 20 24  1  0  0  0  0
 20 25  1  0  0  0  0
 20 26  2  0  0  0  0
 21 24  1  0  0  0  0
 22 25  1  0  0  0  0
 23 28  1  0  0  0  0
  1 29  1  0  0  0  0
  2 30  1  0  0  0  0
  3 31  1  0  0  0  0
  4 32  1  0  0  0  0
  5 33  1  0  0  0  0
  6 34  1  0  0  0  0
  7 35  1  0  0  0  0
  8 36  1  0  0  0  0
  9 37  1  0  0  0  0
 10 38  1  0  0  0  0
 11 39  1  0  0  0  0
 12 40  1  0  0  0  0
 13 41  1  0  0  0  0
 22 42  1  0  0  0  0
 22 43  1  0  0  0  0
 22 44  1  0  0  0  0
 23 45  1  0  0  0  0
 23 46  1  0  0  0  0
 23 47  1  0  0  0  0
 24 48  1  0  0  0  0
 26 49  1  0  0  0  0
 26 50  1  0  0  0  0
M  CHG  1  26   1
M  END
> <OMEGA_C>
YirgQIhBpEAc/b7BZQu0QEh5nEBp373BAp39QD3DjkANY7jBFujTQDxrab9dCLbBTqydQEV3ksDl
sJTB33XCQDiU8r/0Qa/B9ieuQOIjbMBYYpzBDkOlQHHSfkDAHbbBlvzuQPzHY0DxkrDBXeHNQMW2
6D5WwbPBSEVtQD51icDuhY/BlDmkQDeFFL52BqTBEVpgQBhOD8APzpnBtAyqQO1lwb+AQ6bBrquX
QPlpIMCr4p7Bg47CQOG3VEAYOq/BhjC2QDAfWT89nKrBees+QCR1R8ABF5LB8lrKQJY4HUDCR5zB
+aGEQOInRkDZm5nBc5ayQER0E0DE8qbBqoW2QEH/TEBtqonB8M+kP26cZsB52ITBR/OFQI+qJkCv
/aPBYaKtQKB3QUACH5XB0DxEQDAEY0DD6JTBZ5/uQBJoBEBqKJrBE9jjP85mMMCMV43BxG3rQAG9
ukBv6sTB1HydQIHYrEAs+8LBpb8PQVtylEA7UrnBCv7lQEtrmr/6Ab3BeQWvQG5Qr8AyvJLB6LzH
QBNEPMCr77DBP/jLQJBzesAEX6DBGmiDQCgrckCmZrXB4t8CQbinQkDbj6vBNlbbQDcgmj+u/LjB
8pBUQKNSn8BblonBoaCRQIBeFj6cIJ3BJiw9QLJfrL8h45vB3L2aQN0Ba0CMxoXBzru8QNtRDkC7
+IXBZ8HSQEJJdkCsrIjBwSmrPpUJTcDr1YHBB9SQP5Ljk8CO7ofBDm4BQEdPaMCemXzBggpZQFRO
HkDAu6jBZjJHQCp+eEDXYY3BoYQMQFKZY0Ah2JjBXezfQGxio0AzEr/BM3P9QPfBjUCLhLjBR8qz
QOn0m0Dr173Bn1PTQOfxbL+T9rXBwTmfQMGykcByIZTBggbCQPA79L+bKa/BFjevQBYxa8DX9ZvB
xeTuQDFRYkBqobDBzBWlQHEffkARCrbBh1vNQKCm4T7arrPB2E9vQGFdicCQI4/B0NujQPdsIL7L
6qPBz4xfQJylEcA23JnBlMSpQILvwr/uJqbBDM2XQIE3IcDnup7BDXXCQN7UU0D8L6/BDtO1QKEd
Vj82hKrBvsk+QNyAScBtEZLBcXPKQCSjHEDQN5zBXOuEQKTZRkC7h5nBUYGyQO/TEkAY3abBfeu2
QHVWTUCrm4nBtAGnP3s2ZsAkl4TBKveFQDSFJkA036PBJ+OtQN5DQUAcDJXBJkRFQCv/ZEB92pTB
HsfuQIz7A0CeIZrBurrfPzSlNMB4rY3BpCLrQC2xuUCXC8XBy6sPQT0gk0Cji7nBqCmdQDh5rEAr
58LBjELlQDlAnL8b9rzB81mxQE7IrcBg75HB/EzHQGgaPcDi1bDBEFnNQOGgeMD115/BQtsCQekt
QUDJoqvBlTeDQOLccUD9QbXB+r7aQG5DmD/A7rjBH3xXQPzgnsCHEYnBITuRQMOFCj5JBp3Btvo6
QHXrs79+KZzBIjObQLCVa0A9uIXBdia9QMHUDkD63oXBvC7TQDugdkB/q4jBcu2jPr/+TsDv8oHB
ti2dP3IBlcAr4YbBudgBQI9mX8C+CnzBA9hYQOHqHUCykajBWZVIQIjnekAkWY3BAIkNQMAhZkC3
yJjBe9DiQHRznkCHjL/BgID/QIc1iUC5sbjB+Wu2QHYrmUCmM77BbpjHQKZ7R79qSrjBcserQNl+
icAcVJLB4nu+QE0i6L9yHLHB6BqdQGgTVMDliJnBudjvQO4HXkACbbDBG5mmQMjefUD99LXBAvfC
QDY3Dj8GDrXBruzXQIzHjMAo6I/BFAyqQBQIO76KhaPBu/XmQA4GJMCO85vB/rWwQAHQwb8iq6bB
TVG7QPiFHsA1fp7B7iPDQCBBVEA31q7BEoG0QIFZXj8hlarBmrL1QDrIX8Cwa5TBFNbJQIJyHUBW
4pvBj1uEQHaOSEANapnBJCGyQDjYE0DHkqbBRVW2QAxaU0AagonBMjIcQaK4EsAcFJLB5Z+FQK4a
J0DdsKPBEU6tQMoXREAq4pTBXs5DQNwkZ0Do3ZTBmC/uQPRjBUCttZnB/yMQQVpjYsAoNZHBMNzu
QN/QskC52MXBkskQQasEjUApyLnBNnGgQNdMqUD1gsPBtSzSQNUKgb85T8DBIUOVQOsrn8AspI7B
HAbCQIPpNcDnlbPBYcB2QDouTcByNZvBLQIDQWn5PEBfPqvB9YCEQF07dUB0C7XBunbKQJscrT+h
k7rBivTiQH2WpcCaj4rB0/ScQA/qFD1CuJvBX3r9QGWR87+u1Z/BwZ+aQJm4ckCXwYXBuYi8QFjs
FUCpf4XBAJ3SQDrUfEAxwIjBC7IsQVMvHcAMT4/B3mkcQT0/+78weZrBmZAUQR6Lwr98HI3BaGJY
QFKZHUAMZqjBrbBGQGBffkDLa43BGD0MQPVMZ0D+1ZjBQNTiQDXbnkAaUr/BWZW2QLxml0D8Zr7B
bV7/QI9ni0BZG7jB4n7GQGpiRr98eLjBTl+fQIeihsCrzZHBtqm8QGnL6L/OdLHBUSmVQMIQSsDd
6pjB2sWmQOKDeUBFPLbBAbbvQFC6YUAZ56/B6cHCQO+kDT93CLXBrETKQGiXlMBPsJDBExepQODY
Vr7xmaPBPtLgQOIXQMBbyJ3B8yivQGn/xL+O8qbBMDS2QIzVJMCCA5/BLRLDQFa3U0C8uK7BLiG0
QNxNWj/bjKrBajzrQC+ugMAunpbBRV/JQJUuG0B6u5vBDhCEQFrfR0DNaZnB+/axQLrQEkBTfKbB
n0m2QHQPV0B4nYnBHugVQQBvfsCakIzBMW2FQL7oJkAbtaPBIHqrQEgcOUDia5TBB/FEQP41bEBg
IZXBhw3uQFLTBEAQoZnBnqcKQWvYjcB3+ZXBHd/uQK+As0Crj8XB3LOgQEYqpkC1+sPBOK4QQSja
kEDy3bjBNvPQQE/dfb9zhcDBCVyGQF3BlcBYMY3BT26/QKn0NcDkGrTBzDlpQICfM8Cjq5nBgdSE
QMFJbUCBrrXB7+oCQWJgQ0DWdKrBDBbLQBbDrT8xabrBjM3RQLiDrsBPS4vB+ROcQNqvl7rrxZvB
98n5QHomIsBPcKLBePKYQAxGa0AndoXB9YvFQPXOIkAfHoXBRXrMQIrDhkAoLIrBx3MmQYYyi8A2
vYzBmgsWQXQLOMCobIzBj8kNQaRIi8AUXYXBsTlYQCk1HkCeeqjBRwBHQExHgEC+jI3BCoUPQEml
c0DKb5nBHmvqQPTxnEC5H7/Bz08BQZOndkATsLrBFzzAQLU2pEB3nLvBq8GsQPSYUb8cl7jBl5uo
QL5Em8AccZfBj6GwQNGn7L/f/bDBp9OkQKrEdsAqVJ/BMKvwQMD4QUCsubLB8SSuQID4iUBqqbPB
GpKtQBwCBz/zT7XBimDAQExbk8DmEY7B8hi1QJRyPL4jyKLBNA/RQCB1F8CWf5TBw860QFCWxL+4
A6bB7Oq4QE2UJsC94J3BIDrGQCAaUEC0Hq/Bdf6yQK6kWz95XarBHsvUQAojV8DhfYzBIlTKQB09
IUAV75vBP4iDQFvwREDbWJnBZ7SyQBmOFEB/oqbB/0i0QC9ISkDOHYnBngEAQaEB8b9/eIHB8kKG
QIqWK0Dj/qPBRVSsQLvKQEAmrZTBBxtAQPNVXUCHp5TB9OLvQAc4EEB8/5nBdtnrQNc+S8D4FYPB
vzj4QNUosUArOcXB0HsRQSl+a0C3ZL3BZ7etQED/vUDpBr/BzSWpQL/Yh78I9sDB9T+ZQGnlucC3
kpjBMmqwQDxaOMA2jLPBFY6SQBmNgcCkf6bBc6sBQY17DkDcV6/BWMKNQPetj0ASAbHBAQuqQAkf
qD/OK7vBYv/CQMT2q8DpCYjBZfW2QOPJZj0SX5rBatngQGQltb98bZPB14+XQBlzZEB/OIXBP967
QIlkC0A2pYXBTmDPQJMUdkBe2ofBOn8IQb2S8L9khnPBl3ULQSmz2L9B+ofBe2XnQMlcjL92c4HB
bFFbQChYKUCGGqnBgfVAQIBmb0D++ozBNiAJQHHhXUC1v5jBtIPnQA3jnUA6kr/B1xu7QN7alkAo
6b7Bsp4BQWTUiUDGQbjBG22tQJAnUb/ki7jB4guqQGKMm8CPsZfBGX6xQNH067/k77DB1iimQAdV
dsBYbZ/BGUqqQH0KeUB2zbbBg6DyQJjHXUCnQLDBmHWuQDZ6Bz+5TbXBze7BQGlklMB4U47BQF22
QD9hNL6ewaLBNUzSQO40GMCJZ5TBZQi2QBOXw7+596XBDDi6QI9FJsD32J3Buc3FQJesUUDQOK/B
yvqzQBS3XT/vXKrBmVrWQOfGWMCdmYzBoaXKQOW3IUBu1JvBMOeDQDaeRUDaW5nBn1+zQOo1FUDR
oqbBfV60QE2aS0DbF4nBz6vyQIhuhMBwKHfBYd+GQJV+LEBTA6TBZqCsQDUyQkDdqZTB5ZJAQCov
XUDEqZTB1YvvQFmRDUCgl5nBpYruQOAkRsByj4PBKU30QGarskCOsMXB7ualQJGxpUDcosTBw6kS
QQ8fj0CiybjByH+pQDP/h78h58DBt6CaQOIRusAx8pjBUCaxQCkNOMD4eLPB6seTQPThgMBtmqbB
GC+IQPp8bkD9V7bBKBUEQcxaPUCj2KrBLgarQLsLqD/DL7vB2cHEQAlyrcCkaojBMnm4QH9ohz1h
WprBIcDhQFJYtr/9K5PB/7yXQFueZkDmPoXBX227QK+MDEB3mYXBqbvPQHOndkDty4fB8T0DQZqU
ccBz02nBB8TSQLgpjcDmI3HBWPIAQVuvoMBEY37BILhcQG2EKkBFJqnBxjFBQN0Hb0Aa+4zBFp8J
QApQXUCNw5jB

> <OMEGA_E>
AAAAAAAAAACgBzM/qFosPzYNQD8A8j0/

> <OMEGA_NBR>
      8789

$$$$
408841
  -OEChem-04172616093D

 57 60  0     0  0  0  0  0  0999 V2000
    5.9995    4.2105  -24.1646 C   0  0  0  0  0  0  0  0  0  0  0  0
    6.3086   -0.9240  -22.8079 C   0  0  0  0  0  0  0  0  0  0  0  0
    5.4928    3.3845  -23.1479 C   0  0  0  0  0  0  0  0  0  0  0  0
    6.2751    0.4388  -22.4674 C   0  0  0  0  0  0  0  0  0  0  0  0
    7.1364    5.0050  -23.9311 C   0  0  0  0  0  0  0  0  0  0  0  0
    5.8011   -1.8874  -21.9176 C   0  0  0  0  0  0  0  0  0  0  0  0
    7.2728    4.1402  -21.6601 C   0  0  0  0  0  0  0  0  0  0  0  0
    5.1867   -0.1200  -20.3576 C   0  0  0  0  0  0  0  0  0  0  0  0
    6.1403    3.3152  -21.8927 C   0  0  0  0  0  0  0  0  0  0  0  0
    5.6830    0.8595  -21.2476 C   0  0  0  0  0  0  0  0  0  0  0  0
    7.7760    4.9829  -22.6649 C   0  0  0  0  0  0  0  0  0  0  0  0
    5.2556   -1.4984  -20.6766 C   0  0  0  0  0  0  0  0  0  0  0  0
    6.3277    2.4892  -19.5020 C   0  0  0  0  0  0  0  0  0  0  0  0
    4.1214    3.0581  -19.1647 C   0  0  0  0  0  0  0  0  0  0  0  0
    8.5160    2.9172  -16.2826 C   0  0  0  0  0  0  0  0  0  0  0  0
    8.0770    4.1508  -17.1131 C   0  0  0  0  0  0  0  0  0  0  0  0
    7.5973    1.6717  -16.4028 C   0  0  0  0  0  0  0  0  0  0  0  0
    6.5782    4.4713  -16.9369 C   0  0  0  0  0  0  0  0  0  0  0  0
    6.0925    2.0153  -16.3005 C   0  0  0  0  0  0  0  0  0  0  0  0
    5.6430    3.2506  -17.1260 C   0  0  0  0  0  0  0  0  0  0  0  0
    5.6048    2.3407  -20.8298 C   0  0  1  0  0  0  0  0  0  0  0  0
    9.3864    6.6492  -23.3669 C   0  0  0  0  0  0  0  0  0  0  0  0
    4.3275   -2.0910  -18.5136 C   0  0  0  0  0  0  0  0  0  0  0  0
    4.2182    2.7042  -20.5068 N   0  0  0  0  0  0  0  0  0  0  0  0
    5.3902    2.9403  -18.5625 N   0  0  0  0  0  0  0  0  0  0  0  0
    2.9996    3.4234  -18.5906 N   0  3  0  0  0  0  0  0  0  0  0  0
    7.4982    2.1645  -19.3538 O   0  0  0  0  0  0  0  0  0  0  0  0
    8.8871    5.7543  -22.3459 O   0  0  0  0  0  0  0  0  0  0  0  0
    4.8094   -2.4985  -19.8205 O   0  0  0  0  0  0  0  0  0  0  0  0
    5.5144    4.2356  -25.1292 H   0  0  0  0  0  0  0  0  0  0  0  0
    6.7249   -1.2325  -23.7554 H   0  0  0  0  0  0  0  0  0  0  0  0
    4.6031    2.7986  -23.3259 H   0  0  0  0  0  0  0  0  0  0  0  0
    6.7021    1.1704  -23.1374 H   0  0  0  0  0  0  0  0  0  0  0  0
    7.5240    5.6343  -24.7186 H   0  0  0  0  0  0  0  0  0  0  0  0
    5.8294   -2.9330  -22.1864 H   0  0  0  0  0  0  0  0  0  0  0  0
    7.7553    4.1192  -20.6941 H   0  0  0  0  0  0  0  0  0  0  0  0
    4.7482    0.1874  -19.4197 H   0  0  0  0  0  0  0  0  0  0  0  0
    9.5247    2.6277  -16.6123 H   0  0  0  0  0  0  0  0  0  0  0  0
    8.5475    3.2146  -15.2240 H   0  0  0  0  0  0  0  0  0  0  0  0
    8.6655    5.0223  -16.7903 H   0  0  0  0  0  0  0  0  0  0  0  0
    8.2732    3.9494  -18.1766 H   0  0  0  0  0  0  0  0  0  0  0  0
    7.7818    1.1933  -17.3760 H   0  0  0  0  0  0  0  0  0  0  0  0
    7.8518    0.9698  -15.5950 H   0  0  0  0  0  0  0  0  0  0  0  0
    6.4269    4.8682  -15.9222 H   0  0  0  0  0  0  0  0  0  0  0  0
    6.2997    5.2373  -17.6756 H   0  0  0  0  0  0  0  0  0  0  0  0
    5.5193    1.1441  -16.6506 H   0  0  0  0  0  0  0  0  0  0  0  0
    5.8578    2.2078  -15.2432 H   0  0  0  0  0  0  0  0  0  0  0  0
    4.6739    3.5522  -16.7018 H   0  0  0  0  0  0  0  0  0  0  0  0
   10.2613    7.1936  -22.9820 H   0  0  0  0  0  0  0  0  0  0  0  0
    9.6778    6.0673  -24.2537 H   0  0  0  0  0  0  0  0  0  0  0  0
    8.5997    7.3672  -23.6417 H   0  0  0  0  0  0  0  0  0  0  0  0
    4.0089   -2.9783  -17.9468 H   0  0  0  0  0  0  0  0  0  0  0  0
    5.1340   -1.5783  -17.9690 H   0  0  0  0  0  0  0  0  0  0  0  0
    3.4743   -1.4073  -18.6344 H   0  0  0  0  0  0  0  0  0  0  0  0
    3.4571    2.6981  -21.1553 H   0  0  0  0  0  0  0  0  0  0  0  0
    2.9881    3.6552  -17.6179 H   0  0  0  0  0  0  0  0  0  0  0  0
    2.1561    3.4699  -19.1257 H   0  0  0  0  0  0  0  0  0  0  0  0
  1  3  1  0  0  0  0
  1  5  2  0  0  0  0
  2  4  2  0  0  0  0
  2  6  1  0  0  0  0
  3  9  2  0  0  0  0
  4 10  1  0  0  0  0
  5 11  1  0  0  0  0
  6 12  2  0  0  0  0
  7  9  1  0  0  0  0
  7 11  2  0  0  0  0
  8 10  2  0  0  0  0
  8 12  1  0  0  0  0
  9 21  1  0  0  0  0
 10 21  1  0  0  0  0
 11 28  1  0  0  0  0
 12 29  1  0  0  0  0
 13 21  1  0  0  0  0
 13 25  1  0  0  0  0
 13 27  2  0  0  0  0
 14 24  1  0  0  0  0
 14 25  1  0  0  0  0
 14 26  2  0  0  0  0
 15 16  1  0  0  0  0
 15 17  1  0  0  0  0
 16 18  1  0  0  0  0
 17 19  1  0  0  0  0
 18 20  1  0  0  0  0
 19 20  1  0  0  0  0
 20 25  1  0  0  0  0
 21 24  1  0  0  0  0
 22 28  1  0  0  0  0
 23 29  1  0  0  0  0
  1 30  1  0  0  0  0
  2 31  1  0  0  0  0
  3 32  1  0  0  0  0
  4 33  1  0  0  0  0
  5 34  1  0  0  0  0
  6 35  1  0  0  0  0
  7 36  1  0  0  0  0
  8 37  1  0  0  0  0
 15 38  1  0  0  0  0
 15 39  1  0  0  0  0
 16 40  1  0  0  0  0
 16 41  1  0  0  0  0
 17 42  1  0  0  0  0
 17 43  1  0  0  0  0
 18 44  1  0  0  0  0
 18 45  1  0  0  0  0
 19 46  1  0  0  0  0
 19 47  1  0  0  0  0
 20 48  1  0  0  0  0
 22 49  1  0  0  0  0
 22 50  1  0  0  0  0
 22 51  1  0  0  0  0
 23 52  1  0  0  0  0
 23 53  1  0  0  0  0
 23 54  1  0  0  0  0
 24 55  1  0  0  0  0
 26 56  1  0  0  0  0
 26 57  1  0  0  0  0
M  CHG  1  26   1
M  END
> <OMEGA_C>
5Pu/QC28hkASUcHBwt/JQC+NbL+GdrbBBsWvQICbWEDtLrnBP83IQFKw4D47vbPBs13kQD8poEDc
cr/B4qK5QJqW8b81V6/BubroQHh8hEDRR63BpPmlQDC09b1K3KLBOH3EQHYsVEBLJK/BZNu1QA8K
XD8n+6nBT9X4QBV0n0C/UbXBFy6oQBLMv7+XaaXBgXzKQKFOH0AXBJzBlOKDQGi4Q0BYUZnBlUEI
Qb6yOkDDQoLBhTsBQXzThECg54jBJx3zQNb71T/uOIPBTYDSQJsUj0DIfofBJ/bCQPD5AEBtZ4LB
I5O0QF4KUEAWAonBx1qzQJjNFUBWo6bB0C4WQUrG1EBh77rB2HqKQL3TBcDhG5TBivuGQKcRLUDU
DaTBMHysQIAtPEAXgJTBLPo/QEQYW0CNuZTBYPHvQOuHCkB81JrBXDEOQdUiuEB2xLLB/+aZQITn
H8BzkJ7B6nWwQEWKh0CPCMnBwjLXQNTCnb8fC77B80yTQNAcM0Bzm7rBZHfWQPXOlT9pGbnBR8Tw
QFJMtEDCv8XB0Yq6QAa3O8CqfbHBOSv4QJzQg0BvjaXB4/CXQIPaPz6GW5vBSGUYQZAsKEAJ5oTB
psIIQcy7TUCslXPB/aUKQaK2oECHUobBB18EQcfDfECdaZHBMAT5QDO/mD8GAovB9UH7QKhDeD9F
hXnBIKnNQEjIm0B2wX7BIpfJQPaXp0CZZ43BQZ6wQIFzkj94NIXBI3O7QIpMDUBE5HPBbpCVQLZW
Y0BKnYXBXS4kQVYy5kAX27fBcdgaQbUnwkCrB8LBR5gJQQ/A60ApIr3Bn0iAQMqbPsDyko/B+Emk
QKwFyr+JwI/BxVpeQLcjtL8yE5XBfUBdQOGtLEARPqnBxz0/QD7uaUB68YzBPv4JQCQTXkByAZnB
RGX+QCg9kEBah7fByQ7RQMGRgb/wCrXBgqPvQBubX0AWsrDBG4zLQJjFuz4oQ7PBTQHhQODpqUAa
Gb3B363AQFMr+r9Js63BcvqlQDqtgkDaALXBjtyjQIwrFb6i8qLBFQ/DQBsKU0BPHK/Bz+e0QEjY
Tj/PIqrB/me0QOKhokD+87vB+eGpQB5Wwr9yhqTBWwDKQOWjG0DAn5zBPoKEQOFlRUD0xpnB9lEI
QSPmRkCaJoPBfy//QKojiEBLOorBB8r2QFyq5D9Ap4PBRxrPQLw3j0AeaIjBR/PFQHUfAEAP/ILB
WYa0QEMjTECsm4nBueexQFu4EUB+AafBp16jQEKi1ECz7snBZI6qQKqxbMBaNZzB83iFQOSjJUDP
FKTBFWSsQIJRN0Cw+5TB/HJFQDcWaEAwXZXB9SDvQKlMBEBQi5vBjzCVQHpPuUCpW8HB/+yYQJtl
F8BL0JzBKysQQWJzlUDRgLjBiu/hQA0Jrb9uE7zB0SkDQcv0NkAznazBsY7YQIDBij/H17jBzFfs
QEM3w0B9QcLBtoLFQNqkQMC+Ea/BdAiEQFlgekBCI7TBPNCRQNFSRT5FGJzBEc8YQbYdOUBms4XB
g2IIQeUiXUBQmnXBkzYIQSTQpUBcRYjBzUYCQXgGgEBXr5LBcif+QFLyoz+lP4vBAFgAQX7ckj8v
3XnBanLKQPnPm0CrRYDBL5TDQPLJpkDtRY7BGi22QOrjij841IXB4JC9QKkfC0A1GXXBxByVQCoV
W0CeGobBOZmHQHS65EBsi83B16G5QDnG7EB9w8bBArmzQAdFwUD9CdDBuWCaQI5QiMAT0JXB/rql
QOHLhsDx5KPBAADNQEbXaMCPdZrB6fBXQBd9HUAfzqjBJK9HQODDe0C2wY3Bj5UPQCbqbkBkmZnB
hIkAQc+0jUAxK7jBp07GQPrfX7+KD7fBaJbxQJzSZUCNC7DBMEHFQGMC9z4BK7TBUN3kQDwNn0Cl
v7/B8xm4QEz+7b/F3q/BaDKpQPkGdUDjFbfBM5enQKZiAr5VxaLBTy7FQFPbU0B3MK/BJ/C1QIJx
Xz+M86nB0o64QDc4lUAWUr/BZoeoQFbnvr+jnaXBGjbLQCsPI0Bd55vBkQWEQK/tQ0DBPZnBCGrf
QMZGnUBjFG/BUiKxQPrtpkAaDnbB+kPqQN6xW0CC0nLBiSSqQMoMm0Ce3obB8CPjQMIyQ0AOKIXB
CYi0QJo7VkDu8ojBO9ezQAZpFkClj6bBK9+qQOdzwEDWCM/ByciaQKrTc8DhGqHBsj6HQEo/LEBU
66PB+tusQIPSQEDneZTBJnI/QFOAWEDJpJTBmn7wQNwWDkDcUJrBa/2aQAx/pECFr8bB0uKZQD48
GsAjHZ7By2cRQREDlUCGl7jBsxfSQLLIlL942b7BNNQDQSnwSUAdYqrBeyrQQIjHnT+swLnBlunw
QCH3s0C87sXB+Qi5QCWhOcC6J7LBOZWHQCgkZUAcyrbBPLybQIOzIz6y/JrBPIn1QKdJsUBabHjB
0fTiQIGvpEAg913BqvSaQHE/lEAGFGzBnrmqQPtEyUAF5HPB//0FQat+UEAVnm7BMZ/VQIvWM0Ci
oGjBYomIQLcloUCK/4jBLiC/QHj6rkAy4YvBEYn5QArqZ0DWKIrBpn3pQNDA/D+mHIbB17CeQMWZ
L0DKBITBsT6QQCkVykA2Q9TBmU65QOsS3UAZZsvB5CLDQPJur0AvyNPBNmWOQB9rjcBvd5rB876G
QKWufcD4O6jB7+W7QL98g8BG46LBcJRdQFFOKkC9EqnBr1Y+QMdNaECD5IzBBjQJQEViWEC245jB

> <OMEGA_E>
eJ9OP2hKRT/YBks/

> <OMEGA_NBR>
     13006

$$$$
408874
  -OEChem-04172616093D

 63 67  0     1  0  0  0  0  0999 V2000
    6.9978    5.3023  -23.7151 C   0  0  0  0  0  0  0  0  0  0  0  0
    5.6356    4.9545  -23.6730 C   0  0  0  0  0  0  0  0  0  0  0  0
    7.9129    4.6629  -22.8608 C   0  0  0  0  0  0  0  0  0  0  0  0
    6.7194   -0.9109  -22.6869 C   0  0  0  0  0  0  0  0  0  0  0  0
    4.8936   -4.5972  -18.5805 C   0  0  0  0  0  0  0  0  0  0  0  0
    6.1600   -1.8941  -21.8457 C   0  0  0  0  0  0  0  0  0  0  0  0
    5.4357   -3.7083  -19.5269 C   0  0  0  0  0  0  0  0  0  0  0  0
    5.1824    3.9800  -22.7672 C   0  0  0  0  0  0  0  0  0  0  0  0
    7.4657    3.6843  -21.9559 C   0  0  0  0  0  0  0  0  0  0  0  0
    6.4977    0.4567  -22.4317 C   0  0  0  0  0  0  0  0  0  0  0  0
    3.6810   -4.2934  -17.9310 C   0  0  0  0  0  0  0  0  0  0  0  0
    5.1394   -0.1446  -20.5041 C   0  0  0  0  0  0  0  0  0  0  0  0
    3.5355   -2.2154  -19.1872 C   0  0  0  0  0  0  0  0  0  0  0  0
    5.3572   -1.5106  -20.7484 C   0  0  0  0  0  0  0  0  0  0  0  0
    4.7652   -2.5021  -19.8256 C   0  0  0  0  0  0  0  0  0  0  0  0
    6.0859    3.3514  -21.8763 C   0  0  0  0  0  0  0  0  0  0  0  0
    5.6971    0.8472  -21.3339 C   0  0  0  0  0  0  0  0  0  0  0  0
    2.9888   -3.0919  -18.2361 C   0  0  0  0  0  0  0  0  0  0  0  0
    6.2971    2.3992  -19.5577 C   0  0  0  0  0  0  0  0  0  0  0  0
    4.1201    3.0363  -19.2151 C   0  0  0  0  0  0  0  0  0  0  0  0
    8.5190    3.7406  -16.5315 C   0  0  0  0  0  0  0  0  0  0  0  0
    7.7755    4.6383  -17.5410 C   0  0  0  0  0  0  0  0  0  0  0  0
    7.9508    2.3050  -16.4290 C   0  0  0  0  0  0  0  0  0  0  0  0
    6.2737    4.6739  -17.2211 C   0  0  0  0  0  0  0  0  0  0  0  0
    6.4039    2.2489  -16.3410 C   0  0  0  0  0  0  0  0  0  0  0  0
    5.6386    3.2710  -17.2203 C   0  0  0  0  0  0  0  0  0  0  0  0
    5.5674    2.2983  -20.8819 C   0  0  1  0  0  0  0  0  0  0  0  0
    1.2561   -3.5764  -16.6181 C   0  0  0  0  0  0  0  0  0  0  0  0
    4.1720    2.5906  -20.5236 N   0  0  0  0  0  0  0  0  0  0  0  0
    5.3628    2.8166  -18.6049 N   0  0  0  0  0  0  0  0  0  0  0  0
    3.0544    3.5539  -18.6581 N   0  3  0  0  0  0  0  0  0  0  0  0
    7.4342    1.9786  -19.3902 O   0  0  0  0  0  0  0  0  0  0  0  0
    1.7899   -2.7122  -17.6458 O   0  0  0  0  0  0  0  0  0  0  0  0
    7.3406    6.0605  -24.4037 H   0  0  0  0  0  0  0  0  0  0  0  0
    4.9358    5.4377  -24.3387 H   0  0  0  0  0  0  0  0  0  0  0  0
    8.9602    4.9236  -22.8996 H   0  0  0  0  0  0  0  0  0  0  0  0
    7.3217   -1.2081  -23.5326 H   0  0  0  0  0  0  0  0  0  0  0  0
    5.4100   -5.5175  -18.3507 H   0  0  0  0  0  0  0  0  0  0  0  0
    6.3452   -2.9402  -22.0399 H   0  0  0  0  0  0  0  0  0  0  0  0
    6.3637   -3.9483  -20.0244 H   0  0  0  0  0  0  0  0  0  0  0  0
    4.1371    3.7086  -22.7505 H   0  0  0  0  0  0  0  0  0  0  0  0
    8.1759    3.1816  -21.3161 H   0  0  0  0  0  0  0  0  0  0  0  0
    6.9385    1.2052  -23.0734 H   0  0  0  0  0  0  0  0  0  0  0  0
    3.2767   -4.9766  -17.1988 H   0  0  0  0  0  0  0  0  0  0  0  0
    4.5313    0.1513  -19.6621 H   0  0  0  0  0  0  0  0  0  0  0  0
    3.0079   -1.3064  -19.4359 H   0  0  0  0  0  0  0  0  0  0  0  0
    9.5733    3.6744  -16.8383 H   0  0  0  0  0  0  0  0  0  0  0  0
    8.4548    4.2098  -15.5386 H   0  0  0  0  0  0  0  0  0  0  0  0
    8.1821    5.6589  -17.4865 H   0  0  0  0  0  0  0  0  0  0  0  0
    7.9206    4.2396  -18.5559 H   0  0  0  0  0  0  0  0  0  0  0  0
    8.2682    1.7422  -17.3192 H   0  0  0  0  0  0  0  0  0  0  0  0
    8.3669    1.8309  -15.5279 H   0  0  0  0  0  0  0  0  0  0  0  0
    6.1351    5.1247  -16.2273 H   0  0  0  0  0  0  0  0  0  0  0  0
    5.7663    5.2907  -17.9775 H   0  0  0  0  0  0  0  0  0  0  0  0
    6.0855    1.2400  -16.6423 H   0  0  0  0  0  0  0  0  0  0  0  0
    6.1193    2.4257  -15.2933 H   0  0  0  0  0  0  0  0  0  0  0  0
    4.6573    3.3932  -16.7384 H   0  0  0  0  0  0  0  0  0  0  0  0
    0.3112   -3.1582  -16.2409 H   0  0  0  0  0  0  0  0  0  0  0  0
    1.0724   -4.5761  -17.0388 H   0  0  0  0  0  0  0  0  0  0  0  0
    1.9785   -3.6533  -15.7921 H   0  0  0  0  0  0  0  0  0  0  0  0
    3.3843    2.4841  -21.1303 H   0  0  0  0  0  0  0  0  0  0  0  0
    3.0790    3.8379  -17.6996 H   0  0  0  0  0  0  0  0  0  0  0  0
    2.2157    3.6652  -19.1912 H   0  0  0  0  0  0  0  0  0  0  0  0
  1  2  1  0  0  0  0
  1  3  2  0  0  0  0
  2  8  2  0  0  0  0
  3  9  1  0  0  0  0
  4  6  2  0  0  0  0
  4 10  1  0  0  0  0
  5  7  1  0  0  0  0
  5 11  2  0  0  0  0
  6 14  1  0  0  0  0
  7 15  2  0  0  0  0
  8 16  1  0  0  0  0
  9 16  2  0  0  0  0
 10 17  2  0  0  0  0
 11 18  1  0  0  0  0
 12 14  2  0  0  0  0
 12 17  1  0  0  0  0
 13 15  1  0  0  0  0
 13 18  2  0  0  0  0
 14 15  1  0  0  0  0
 16 27  1  0  0  0  0
 17 27  1  0  0  0  0
 18 33  1  0  0  0  0
 19 27  1  0  0  0  0
 19 30  1  0  0  0  0
 19 32  2  0  0  0  0
 20 29  1  0  0  0  0
 20 30  1  0  0  0  0
 20 31  2  0  0  0  0
 21 22  1  0  0  0  0
 21 23  1  0  0  0  0
 22 24  1  0  0  0  0
 23 25  1  0  0  0  0
 24 26  1  0  0  0  0
 25 26  1  0  0  0  0
 26 30  1  0  0  0  0
 27 29  1  0  0  0  0
 28 33  1  0  0  0  0
  1 34  1  0  0  0  0
  2 35  1  0  0  0  0
  3 36  1  0  0  0  0
  4 37  1  0  0  0  0
  5 38  1  0  0  0  0
  6 39  1  0  0  0  0
  7 40  1  0  0  0  0
  8 41  1  0  0  0  0
  9 42  1  0  0  0  0
 10 43  1  0  0  0  0
 11 44  1  0  0  0  0
 12 45  1  0  0  0  0
 13 46  1  0  0  0  0
 21 47  1  0  0  0  0
 21 48  1  0  0  0  0
 22 49  1  0  0  0  0
 22 50  1  0  0  0  0
 23 51  1  0  0  0  0
 23 52  1  0  0  0  0
 24 53  1  0  0  0  0
 24 54  1  0  0  0  0
 25 55  1  0  0  0  0
 25 56  1  0  0  0  0
 26 57  1  0  0  0  0
 28 58  1  0  0  0  0
 28 59  1  0  0  0  0
 28 60  1  0  0  0  0
 29 61  1  0  0  0  0
 31 62  1  0  0  0  0
 31 63  1  0  0  0  0
M  CHG  1  31   1
M  END
> <OMEGA_C>
pe3fQLCsqUCRuL3B81a0QGGLnkA+Yr3BMzb9QGg2lUDY4rbB+ATXQB0zab/cfrXBjZicQEYck8Db
pJTBiB7FQH5w8r/lw67B7fCtQFVUbcAeN5zB0dWlQFW4fkArI7bBuubuQAHMa0CXpa/BW+3PQDjO
6T4zdLPBnZVrQHJjicC7co/B2nWkQLwZFL5yCKTB10RiQKPIDcB3f5nB2G2rQMhbwb/O/KXBYXyY
QB0iIMDomp7BlL/CQP18VkDBAq/B6E62QNvjWD/sq6rBMEg/QLbhRcB445HBNoLJQOeMGUAUdpzB
5deDQIRSQkBzuJnB1U0IQZVmb0BtQITBJtH4QMJslEAEVIzBHG3+QJmFE0CnboPBLsLIQOWQlUDa
xInBA+3MQDLuD0BquoLBOm+0QJpYUUAvw4nBFyiyQB8YE0AkDqfBtcegP2bkZMDi8YTBaoGFQA/N
JUBIMKTBUJyrQJFCNEDb1pTBGXtDQJtyY0DPQ5XBq+TtQBxE/T8UH5vBwBvlPx+ULcCbKo3BHObq
QFDvwUC4OsPB4PGdQNIBrkCQtcLBCF0PQfKNnUBdMrfBxUvqQMyjmr/YQrzB/x6tQDOPsMA8zpLB
pQvLQMcrPMDNUbDBdqPLQGGxfMABMqDBZmOEQCpabUD/ALbBYtACQWifS0Blh6rBUwjeQE9Emj9g
lrjBy7RRQPE/n8AWl4nBrQCRQGzzGj7iS53BMYJAQJI2p7+xfJvBHiwZQZcpa0DFtIbBBUcHQaS2
hkAYnnjBuekCQQ4WtUBS5IvBNnX9QJuqh0CEcpTBXkoEQdP+3j/LjYrBot4FQf1a6j8WcnjB1FLE
QKD9o0CY0YHBH4W4QEtNqUDs0Y/BkbzCQOi4nj9YI4XB59DDQOA+G0BnsXTB1AiVQJ8qWUBG6IXB
wVWfPnUgSsBi7YHB/USJPzdvksB8T4jBbT/9P9zPacCZrHzBcJhYQEH7HkDXCqnBFQ9FQBGgdUDN
mI3Bj80NQMOSakCGh5nB2nrlQLPzqUCaT73Bthu5QDYpo0AZgrzBHPEAQbcrkUCLLbfBoPTTQEhA
ab/LF7bB4PeVQBG0lcDri5bBPPvAQHJT8b+weq/BgGSnQH8OccAn553B4PmoQC0OhEABd7XBlPPx
QIWmY0BoLrDBeBXPQF4X6j7ZxrPBjuljQAGEisAnZ5DBNCekQJzFAr5/NaTBByBgQFfACcBfHZnB
TpqoQJBqv7/GeabB7s6UQNxdH8AfNJ/BTCrFQLPzVkC1C6/BDOy2QLOQWz/ExqrB03I9QFZaQ8Bu
n5HBUGTJQLFzGkBEdZzBL1CCQDaAOEDz6ZnBApvlQLuFdEDjmG/BNJjFQCm4mEDwkXrBhkDWQDm6
FkDY3XDBiEG/QFHyi0CO/IjBdPLPQKrq9z+wGITBhm+wQL85OkDHpYnBVkCzQPTyE0CzOafBOlOr
P//uYcCNvoPBci6GQNPhJkActKTBPCCpQKleJUCc4ZTBIis/QNVxVUDRTZXBmFLvQDE2C0BG0prB
mGHuP1beJ8CguovBe7zxQJk5wkDDpMLB5l6jQMjotUDIUcHBrvsRQeg7lkCA2LfBP1zmQCq3m79V
/LzB6E+kQBrrtMAjmpXBjRHFQLK/O8CvSrHBKBXDQKlegcCZk6LBqOCGQDisfUAJ8LTBm/gDQe2+
PECOn6vBXcbdQKmKmT+A3bjB7clJQMIYocBYvIrB/fKRQMEWNT7XR53BsUhCQNwhmL8sP5rBSW0C
QRL9eUBYlXfBz97oQM91g0D9r17BdK6mQM0Xl0AfMXLBqATSQBefuUBk1nnB/1LuQBTS2T/1aGnB
4LO3QFVtEEA1RGjBBOamQC3AoEB6oozBB6/dQHuRj0A2UY3BnezuQC04+z9DRYjBdd/CQD+Jaj9b
YYTBwLmRQJWhNUCqYoXBV6D0PvsuRMBTcH/BO2iCP0/ajsCQoIfBZroHQEsUcMCnoXvBu0FcQBr4
JkDf+qnB1nI+QF3sX0CWaY3BSNcKQEkSYUC9rJnB

> <OMEGA_E>
qJiEPixklj4=

> <OMEGA_NBR>
     15354

$$$$
408877
  -OEChem-04172616093D

 60 64  0     1  0  0  0  0  0999 V2000
    6.6181   -0.8908  -22.6794 C   0  0  0  0  0  0  0  0  0  0  0  0
    4.7973   -4.7050  -18.7594 C   0  0  0  0  0  0  0  0  0  0  0  0
    6.0374   -1.8651  -21.8500 C   0  0  0  0  0  0  0  0  0  0  0  0
    5.3437   -3.7506  -19.6344 C   0  0  0  0  0  0  0  0  0  0  0  0
    6.4683    0.4740  -22.3822 C   0  0  0  0  0  0  0  0  0  0  0  0
    3.6060   -4.4287  -18.0641 C   0  0  0  0  0  0  0  0  0  0  0  0
    5.1322   -0.1081  -20.4269 C   0  0  0  0  0  0  0  0  0  0  0  0
    3.4995   -2.2362  -19.1248 C   0  0  0  0  0  0  0  0  0  0  0  0
    5.2932   -1.4812  -20.7123 C   0  0  0  0  0  0  0  0  0  0  0  0
    4.7032   -2.5034  -19.8176 C   0  0  0  0  0  0  0  0  0  0  0  0
    5.7075    0.8794  -21.2615 C   0  0  0  0  0  0  0  0  0  0  0  0
    2.9442   -3.1851  -18.2456 C   0  0  0  0  0  0  0  0  0  0  0  0
    6.3298    2.5017  -19.5316 C   0  0  0  0  0  0  0  0  0  0  0  0
    4.1202    3.0334  -19.1974 C   0  0  0  0  0  0  0  0  0  0  0  0
    8.2169    2.4863  -15.9385 C   0  0  0  0  0  0  0  0  0  0  0  0
    7.8387    3.7929  -16.6702 C   0  0  0  0  0  0  0  0  0  0  0  0
    7.4187    1.2524  -16.4162 C   0  0  0  0  0  0  0  0  0  0  0  0
    6.3606    4.8112  -21.6261 C   0  0  0  0  0  0  0  0  0  0  0  0
    7.5064    3.8870  -22.0737 C   0  0  0  0  0  0  0  0  0  0  0  0
    6.3252    4.0491  -16.6200 C   0  0  0  0  0  0  0  0  0  0  0  0
    5.9011    1.5097  -16.4231 C   0  0  0  0  0  0  0  0  0  0  0  0
    6.0650    3.3481  -21.9744 C   0  0  0  0  0  0  0  0  0  0  0  0
    5.4838    2.8454  -17.0820 C   0  0  0  0  0  0  0  0  0  0  0  0
    5.6006    2.3523  -20.8602 C   0  0  1  0  0  0  0  0  0  0  0  0
    1.2581   -3.7574  -16.6064 C   0  0  0  0  0  0  0  0  0  0  0  0
    4.2157    2.6969  -20.5385 N   0  0  0  0  0  0  0  0  0  0  0  0
    5.3447    2.7757  -18.5663 N   0  0  0  0  0  0  0  0  0  0  0  0
    3.0296    3.4845  -18.6305 N   0  3  0  0  0  0  0  0  0  0  0  0
    7.5089    2.2057  -19.3897 O   0  0  0  0  0  0  0  0  0  0  0  0
    1.7646   -2.8367  -17.6000 O   0  0  0  0  0  0  0  0  0  0  0  0
    7.1823   -1.1926  -23.5494 H   0  0  0  0  0  0  0  0  0  0  0  0
    5.2938   -5.6539  -18.6203 H   0  0  0  0  0  0  0  0  0  0  0  0
    6.1606   -2.9124  -22.0834 H   0  0  0  0  0  0  0  0  0  0  0  0
    6.2561   -3.9706  -20.1689 H   0  0  0  0  0  0  0  0  0  0  0  0
    6.9360    1.2163  -23.0121 H   0  0  0  0  0  0  0  0  0  0  0  0
    3.1932   -5.1646  -17.3901 H   0  0  0  0  0  0  0  0  0  0  0  0
    4.5624    0.1928  -19.5602 H   0  0  0  0  0  0  0  0  0  0  0  0
    2.9991   -1.2905  -19.2725 H   0  0  0  0  0  0  0  0  0  0  0  0
    9.2870    2.2930  -16.1042 H   0  0  0  0  0  0  0  0  0  0  0  0
    8.0315    2.6246  -14.8631 H   0  0  0  0  0  0  0  0  0  0  0  0
    8.3597    4.6347  -16.1906 H   0  0  0  0  0  0  0  0  0  0  0  0
    8.1537    3.7178  -17.7214 H   0  0  0  0  0  0  0  0  0  0  0  0
    7.7394    0.9962  -17.4368 H   0  0  0  0  0  0  0  0  0  0  0  0
    7.6322    0.4096  -15.7424 H   0  0  0  0  0  0  0  0  0  0  0  0
    6.3040    5.1492  -20.5808 H   0  0  0  0  0  0  0  0  0  0  0  0
    6.0119    5.6153  -22.2908 H   0  0  0  0  0  0  0  0  0  0  0  0
    7.9751    4.0281  -23.0588 H   0  0  0  0  0  0  0  0  0  0  0  0
    8.2673    3.5620  -21.3488 H   0  0  0  0  0  0  0  0  0  0  0  0
    6.0470    4.2913  -15.5836 H   0  0  0  0  0  0  0  0  0  0  0  0
    6.0950    4.9054  -17.2710 H   0  0  0  0  0  0  0  0  0  0  0  0
    5.4152    0.6889  -16.9711 H   0  0  0  0  0  0  0  0  0  0  0  0
    5.5479    1.5145  -15.3814 H   0  0  0  0  0  0  0  0  0  0  0  0
    5.5668    3.2001  -22.9439 H   0  0  0  0  0  0  0  0  0  0  0  0
    4.4709    3.0440  -16.7017 H   0  0  0  0  0  0  0  0  0  0  0  0
    0.3261   -3.3595  -16.1785 H   0  0  0  0  0  0  0  0  0  0  0  0
    1.0588   -4.7314  -17.0771 H   0  0  0  0  0  0  0  0  0  0  0  0
    2.0043   -3.8819  -15.8079 H   0  0  0  0  0  0  0  0  0  0  0  0
    3.4544    2.6907  -21.1869 H   0  0  0  0  0  0  0  0  0  0  0  0
    3.0200    3.6800  -17.6499 H   0  0  0  0  0  0  0  0  0  0  0  0
    2.2063    3.6335  -19.1782 H   0  0  0  0  0  0  0  0  0  0  0  0
  1  3  2  0  0  0  0
  1  5  1  0  0  0  0
  2  4  1  0  0  0  0
  2  6  2  0  0  0  0
  3  9  1  0  0  0  0
  4 10  2  0  0  0  0
  5 11  2  0  0  0  0
  6 12  1  0  0  0  0
  7  9  2  0  0  0  0
  7 11  1  0  0  0  0
  8 10  1  0  0  0  0
  8 12  2  0  0  0  0
  9 10  1  0  0  0  0
 11 24  1  0  0  0  0
 12 30  1  0  0  0  0
 13 24  1  0  0  0  0
 13 27  1  0  0  0  0
 13 29  2  0  0  0  0
 14 26  1  0  0  0  0
 14 27  1  0  0  0  0
 14 28  2  0  0  0  0
 15 16  1  0  0  0  0
 15 17  1  0  0  0  0
 16 20  1  0  0  0  0
 17 21  1  0  0  0  0
 18 19  1  0  0  0  0
 18 22  1  0  0  0  0
 19 22  1  0  0  0  0
 20 23  1  0  0  0  0
 21 23  1  0  0  0  0
 22 24  1  0  0  0  0
 23 27  1  0  0  0  0
 24 26  1  0  0  0  0
 25 30  1  0  0  0  0
  1 31  1  0  0  0  0
  2 32  1  0  0  0  0
  3 33  1  0  0  0  0
  4 34  1  0  0  0  0
  5 35  1  0  0  0  0
  6 36  1  0  0  0  0
  7 37  1  0  0  0  0
  8 38  1  0  0  0  0
 15 39  1  0  0  0  0
 15 40  1  0  0  0  0
 16 41  1  0  0  0  0
 16 42  1  0  0  0  0
 17 43  1  0  0  0  0
 17 44  1  0  0  0  0
 18 45  1  0  0  0  0
 18 46  1  0  0  0  0
 19 47  1  0  0  0  0
 19 48  1  0  0  0  0
 20 49  1  0  0  0  0
 20 50  1  0  0  0  0
 21 51  1  0  0  0  0
 21 52  1  0  0  0  0
 22 53  1  0  0  0  0
 23 54  1  0  0  0  0
 25 55  1  0  0  0  0
 25 56  1  0  0  0  0
 25 57  1  0  0  0  0
 26 58  1  0  0  0  0
 28 59  1  0  0  0  0
 28 60  1  0  0  0  0
M  CHG  1  28   1
M  END
> <OMEGA_C>
sMfTQFoMZL9Xb7XByIOZQCKPlsBME5bBcDLBQFu77r/GzK7Byv+qQFwKcMBSE53BgvzOQMy18j7C
DrPBLslmQIS3jcBVg5DBzTqkQFBW3b1CaqPB9PdfQHkdD8Cv/5jBGGKpQH6Wvb+3sqXBX4CWQGY4
IMBuip7B76O2QHYeYT95F6rBKG48QP7XS8D19pHBw43KQOAbIECoQJzBFdmDQHQiQkBGlJnBWHgD
QUogH0AEBH/Bxdb6QBC/ckCEXIXBDGbtQEdOoD9iVIPBvonLQFP1mUApAq3BlDTwQMzEeED6lrDB
rWfKQFSSgUCw9YTBg9W8QLM8wT+NYoPBThTCQFhHVkCFy6/BBXuvQO4aNkDWp4jBejizQJqLFkDD
4abBSAmhPyh5cMD32YTB2eaGQEqaLEDOTqTBKQirQKilMUCwh5TBqOVBQFIBX0BMC5XB/0jwQDgq
DUACHpvBpN/hPwyNNcDLzIzBitXlQLWomL8zZbzB6GapQBvttMBL9pTBUSPFQPxjOsDLqrDB2DHI
QEIefsDVWaHBVvPdQCaxmz+xGLjBL15MQI5EpcDYHovB2/6RQJNrRT48e5zB8/E/QDwwpb8QLprB
jZcUQRXAEkBY1YDB54AAQav5J0Akz23BWMEFQThPlEBMhoHBnXUCQbPvbUB6xY3BKqn3QPUIfz98
fovBLjv0QIKz0T6v4HvBUrrJQPrFpEB2paTBSmHAQGWws0CGU7LBWzT/QGPmgEBteLjBskYEQfD3
Y0BdyqrBaoHBQDtSiUCEVnnBZQrDQNH4nEAFK4rBikmtQJJcMD/nxIfBuIixQKzbwT8FGnbBiiOy
QH7OTEAUjbfBchGPQErRQkAMnYXB6PqmPsUCV8B6bYHBxYWHP9Vnl8DonYjBNkYAQO5weMAF7XzB
hBVdQEU0LEDPfqnBcUdBQPaEa0DtMo3BhzQNQJGKaED0bJnBAq7QQBoZYb+8LLbBc8mUQMHel8Ai
hZfBeDi+QKmo7L8Beq/BRyqnQMDbccD0P57Bi9jNQCFW9z68hrPBxzlhQITCjcDeU5HBNCOmQF4M
vr3DXqPBP/lhQNS0CsBSmpjBWsuoQE08u79R/6XB7WuVQLnCHsAQ3p7BEDu4QBToYz8OG6rBnrA8
QH9lSMDp0ZHBmVTLQIaFIkCxBJzBtA2EQGk3Q0Cby5nBWI/uQFLetkDBDIfBFmbAQB+yu0CkNovB
Uh8AQYPeiUA9R4nBWjXZQJdtlkBil6zBVEX2QKzvZUCRFbHBETKjQNgMmUDOU4bBr5nhQMIFTUD4
9oTBuwnGQKilVUCylq/Blr+yQCMLVkCEJ4nBHB61QOg/F0BGz6bB2padP6zib8ApDoXBFn2IQJvD
LUAxiKTB076sQFPbQ0Ar35TByr09QCrZUkBBVZXBEhDwQJe7CkCCS5rBrUbqPwH+L8BS9IvBvxjh
QO1Sl7+RYb3BOX6iQDCNt8CPGZfBJWbAQAM9OcAtk7HBQvrCQF3ogMCM+aLByzPcQAybnD8gsbjB
nU1FQEy4pcDeK4zBdA2WQNX+VD6KHJzBwKFGQNuhlr+uB5nBCoYBQayZzkD6DIvBQd3uQJmevECf
vHzBLSq0QFp920CJ/4jB71fAQOlzuEDb+ZPB9wgCQQe/hUAZ95HBwscPQTGNhkCyWIXBHsbbQJbP
n0BPIqTBCPPRQAjNskAnebHB6N8BQVrra0DYLbnBc8kGQXbwRUAA16vBWQujQLe5nECuJnvBVYmC
QPJinUAKbYnBYQvuQMA+DkCMc4fBmhzhQLusUEDXWnjBolizQLc9VUCWC7fBT9WeQBTIKEBunITB
q3O5Pr4WVMBY7YDBNgpoP2lyk8DJ5InB7y78P6magsDHNn7BjYphQMKyLUAC56nBeIk6QLxCYUB/
jI3BDUIIQBBaUEA4t5nBjwLQQNzgZ794NbbB32OTQIKnmMDDoZfBgFm9QM+87795hq/BHwGmQGiE
c8CcVZ7BzLHNQPqM6T49gbPBgpteQC1ajsCJbZHBWzemQMGc7L3+TaPBzX5gQLqrC8DQopjBFEWo
QCQYvr+nAKbBuJqUQMAbIMB/6J7BsIG4QKK/XT/HBqrBcLo6QFRHScBL4ZHBuNjLQIrWIkC6ApzB
3BSEQDOWQED3tJnBIdnaQGd/nEDvr27BLaOsQK4LpUCEH3bB4CbnQDHmWkCXj3LBxjTZQNyqlUCQ
vazB7vf1QJNpZEBpX7HB5fimQNdqmUAb94bB4WvhQJAOQ0BFGoXBA9jFQIkMVEDJpK/Bd+iyQM2/
U0CAHYnB0Wm1QOfsFUDBxabBVmCZPzY7cMCIG4XBDaqIQIz6K0B+eKTBHIysQFv2PkDCtpTB1jQ+
QAUBUkCiPZXBgrnxQKy/EkCGbZrBAtDmP2R8MMDm/ovBuS7gQCvemr9Mcr3B+tigQMRyuMDrPZfB
9Bq/QPu8OsDmqrHBqLzBQF7kgcB8EqPBxiHcQNLomD+YrLjB9VBCQFdHpsAWS4zBSHOWQL88Pj7z
AJzBfKRFQNcemL//CJnBmtHwQLZOsUBkrXfB9W/dQCWeo0Dvf13BPouWQAiakUDrd2zBIzmlQKkp
x0DF4XPB8mcEQUlUUUCCAG7BLZrSQK99MUD7tWjBZWncQNcPn0AxTKTBDozRQDMHskCmlrHB22gB
QQBmakDzh7nBhtcGQUd3REB+PazBgmKFQBOinkCxQInBW8a7QMwkrkBI0YvBzbL3QJ6CaUB/7onB
K9roQGdy/T/oHYbBCJuyQCalU0BPA7fBTTadQJRxK0B/W4TBIYCqPpMeVMB99oDBHuJdPzOBk8AY
9YnB6Mr3P0b+gsBnWH7BTfVhQOgmLECe2anBHlQ7QC4hYEBDco3B27UIQJ8nUUB+oZnBeVTbQD6s
cL9q2rPBwKaZQNYzk8BLSZTBf93HQDaE8b8BH63BgdasQFGJasAAKZvBps7SQDP92z5Xf7LBvF1i
QPftisCs0o/BoNyjQMQXuL2cfqPBuqddQOfRDMD3IpnBNQCsQC3Iu7+c3KTBVqCXQOQoHcChpZ3B
/DK2QIBLXj+hcKrBk6o2QC2GSMDHOZLBmxHMQBSgPkCJ66DBv4OIQB50REAAdZnB6o/dQBlJhECf
r23BkfH+QEqna0CdU37BHiG9QFdPo0CL03fBM1uxQJbok0BCZbTBIWTRQJrhaUCMobnB3SzpQHP2
QUAI8YjBDnunQDOjjkB5pIXBrKKpQJPmRkAz07PBgY3IQLwLgED7PI7BOX6sQIQbF0B35qjBNMx6
P2zSccDMEIfB2e+CQJYVI0DopqPBwXa0QJBtV0Bk5JfB6ENPQIvSTkBmEZPBgNDyQCb2RUDuMqLB
YAXNP+4ENMCVIY7BlOPwQKEAor9qFbrBMwyqQEaysMDMa5LBmDTOQAAYPMAGQq7BnezLQBGud8Ag
j57B6i7iQJKNkz/xorfBs0tFQDwZosCYiorBK1ePQF3lcj7NDZ3BW+c8QOmvo7/IBJvBonbMQLMd
UECVkGfB1//tQLl8lECzZWDBZbMIQY/UkUCU1YHByFIKQZfoPECP4XbBWZikQDqdq0CN6GvB5OXN
QOODwECP8nzBgHG6QLOopUDVJK3Bn66cQG8WqEBRbLnBNprTQDjjZUBDZsLBF13xQMAHYUDHHrbB
AukAQd6+MEA72I7BQEDYQHzbB0A6VobBITGVQK4eZUCM8oLBGpKRQIEIpkCFR4nBbkCQQKA3L0CW
J7nBPUfaQB2WnEAV3ZDB7AUyOtqHWcBQcYTBzO5XP8Bbl8BOWIvBT7jPP38pfMBdC4DB9D5NQJov
FUAy86bB6K5XQLnVZ0Cgx4vBs7MUQGC3PUAEfJXB5/rbQPI+dL+Ml7PBhi+ZQKnRk8CONpTBDU7I
QI55878r6azBWqKsQIG2a8BUCJvBNGDTQJt81D7wPLLB+SdhQMmHi8Cc1I/BM++jQFSs3L3sVqPB
GDVdQNfnDcBiHpnB4yWsQA/2vb/8tKTBiImXQAVIHsASjJ3Bknu2QFTLWT/CO6rBC7Q1QPukScAM
Q5LBFnXMQJRRO0CZbaDBTlaIQP1cRUBrX5nBqYXRQAjIyEDz3HzBTSK9QJ//nUDCJHbBdu7xQGLk
wUDpkIfBBeyyQKfHk0CM3LPB8X/TQO0OakAE97jB1tenQIExiEBxsoTB9KHcQFf1q0DrQpHBZS2r
QPyiRkCEeLPBD/XHQA6ZgEAyDI7BBROtQD7cFUDRmqjB06RzPz32csDkPofB2UGDQCWMIkABgqPB
oUO0QCiJV0CrqpfBXpZOQBCjT0DJCJPBTY7zQCRePUCTR6HBBJzKP08WNcCWP47B9sHxQLOXo7+o
x7nBJnypQIlYscDUU5LBhLTOQOgNPcA2C67BydTLQMLbeMAMXp7BEObiQM/gkT/QVbfB7q5DQCC4
osDilorBejGPQEs5Xz5K8JzBHKY8QBq8pb/MBZvBRz+4QDyz3kDvKoHB/RviQMLg1kA0CG/BoRvW
QHrViECmrG/BGN2kQNwEpEC0wWnB1Lr+QA4b4UD3E4rBaR8GQdmerUBtp4TBxDy7QM05pUCrgazB
VMaeQKEqqEBF+LjBfKHWQFfKZkBzuMHB7BfzQK/oYEDZQbXBwNyaQLFFUkCRH4LBNJyNQHShnEAN
lYfBL6/DQJItwUBdfJTBigX1QLkmpkA+cJfBTVqSQPZWL0AC/bjBa5XhQPNbV0AxCovBolXxvDSf
WsDSroTB55NRPwLhl8CajYvB4CLLP8CBfcD5LoDBRzZOQEYoFEAJ3KbBwbtWQI/dZ0A5s4vBJgwU
QBo+P0AHiZXBwj7dQFaedL8ETLPBTmeaQGiYk8CU25PBS8XJQBjW87/9l6zB6NGtQOs1a8DYrJrB
l4DTQONd0T7vJrLBUKxiQN/Ui8CQr4/BQGWjQOQR9b2TZ6PBdqZdQL2CD8AGMJnBf7WsQK32vr+M
kqTBKTeYQDXQHsAZZ53ByK61QEKfVj/vVarBlz02QK5BS8AlVJLBcIrLQPnqOkAC5KDBhfiHQFnf
R0DDlpnBORP+QAlZhEB/uXXBa/QCQeyUoUCwloTBw0jOQHducUBJ0XPBZAqxQJDqkkDARrTBNVHR
QBUvaEBXdrnBEJf1QItRjEDV3o7BOtu9QGylRkBIQITBo1KpQOvfREBGwrPBByrFQD66gEC2HI7B
YJWrQMrkFEA606jBVG1yP+ybdcBPhofBCQiCQDavIUCxhaPBsdyzQOzHWECPEZjBjx5RQHlzWEDp
8JLBMFjyQE0tPEDEUaLBVuDJP363N8Boh47B4LzzQHEso7/JVrnBUBSrQOC8sMCaz5HBAgTRQPMM
PcCdka3BVGDNQFmFd8Ar2J3BZ9riQJhQkT8xRLfBGT9FQDAKo8AscorBYQCOQKmzTz7yIJ3B2E88
QMSMqr9rQpvB5m8IQQqoTUBMnHfBLyAEQRwVlUDIGWfBsu30QMwJwEAxY4PBxzYUQW3Ap0BuW4XB
FvrJQITyREDvWGbBKL+7QBUMlkBP23DBRNW5QPeUpEA5/azBkoicQDsjp0ADVrnBBN3TQAlzZEAP
OsLBtinxQIBWX0BF4bXBIlP6QMV8okBImpXBkwEEQfK6XUDGSZDB9RPPQKMICkC/eYXBHGqbQJux
OUBnbYPBgiyQQL1RLUCYKrnBp3mzQH+hnkAQs4zBS4Q9vc8fXsACJIXBOw9XP6B5mcDiwYvB1c/I
P0/FfsBTW4DBEFlLQIBNEUC5nKbB0mJdQMYmdEDj5IvBrfcUQDFjSUC565TB1WXdQCSgcb/jTrPB
hVKaQOCeksA7v5PB497JQFPP8b9Tk6zB1MatQLaQacDSmZrB0K/TQIb81z7NN7LBMYBiQKjAisAh
l4/B6H2jQDXhx71HeKPBpZtdQKi7DcD6LZnBYcWsQHJKvL+VlKTBnDWYQCM6HcDmYJ3Bwdu1QL50
Wz/5bKrBRxw2QH0yScCMSZLBr27LQObiPUB3MqHBFESIQJxFRUBEkZnBJ3LyQDrDykACZIPBBk3B
QAUTx0CPNIPBu44DQVVDnkA0a4TBW72wQOgqk0AKpLTBtf7QQLBjaEAxyLnBqbawQO0asEB1TY3B
FKf2QEkQh0AabI7B1hOpQNJeRUAFA7TBSOzEQLbcgkCHfI7B6ourQHJCFkAGB6nBGodxP5kOc8Al
d4fBxwSCQFDGIkCisqPBw82zQHSVWkCMTZjBYMpSQGuRT0BEkpLBmD3yQPQQP0A+oaLBso7JP795
NcDngY7B6ujzQHwyor/0VLnBLPqqQNG6r8AMqZHBThvRQFQUPMAzgq3B1VTNQLoPdsB+wp3BiRPj
QISAkj+qW7fBQwlFQKDXocA8UorBZw2OQJBNaj50N53BO088QEYgp788SpvBziT8QCiZ3kCEPorB
z1z9QBXf2UD/2XfBL423QF3NtEDnLXjBeFmzQAlc50Cf2ILB7wUVQVLtoUA5AIXBbzH/QJMsi0Az
l3rBAZi5QMIYpUAJZq3BmyecQIcwp0DpurnBP3LTQCcNZEA7i8LBpeLwQJ3dX0BbNrbBGryNQPrZ
rEAxv4zBvO64QNFXw0A6YZTBlFIAQV4lmUARjJXBk2ACQdynTUAqrY7BPeCPQB9aLUA4X7nBOpi7
QMXJX0Akc4fBkGFMvU9zW8B5GoXBKDBWP81JmMBbqIvBRUTIP33se8CeSYDBUhhLQACTFECu46bB
OXdfQDohaUALaYvBVg4XQKDaPUBiZpTB

> <OMEGA_E>
jEbnPqjr+D5stPw+hJUsP4K/Kz/0hys/nm82Pw==

> <OMEGA_NBR>
     22458

$$$$
408985
  -OEChem-04172616093D

 53 57  0     1  0  0  0  0  0999 V2000
    6.3076   -1.0519  -22.6945 C   0  0  0  0  0  0  0  0  0  0  0  0
    4.3187   -4.6955  -18.6899 C   0  0  0  0  0  0  0  0  0  0  0  0
    5.7153   -1.9746  -21.8153 C   0  0  0  0  0  0  0  0  0  0  0  0
    4.9443   -3.8159  -19.5865 C   0  0  0  0  0  0  0  0  0  0  0  0
    6.2864    0.3218  -22.3973 C   0  0  0  0  0  0  0  0  0  0  0  0
    5.0800   -0.1477  -20.3302 C   0  0  0  0  0  0  0  0  0  0  0  0
    3.2284   -4.2386  -17.9219 C   0  0  0  0  0  0  0  0  0  0  0  0
    3.3642   -2.1055  -18.8852 C   0  0  0  0  0  0  0  0  0  0  0  0
    5.0948   -1.5286  -20.6249 C   0  0  0  0  0  0  0  0  0  0  0  0
    4.4639   -2.4931  -19.6925 C   0  0  0  0  0  0  0  0  0  0  0  0
    5.6660    0.7889  -21.2107 C   0  0  0  0  0  0  0  0  0  0  0  0
    6.3553    2.5011  -19.5172 C   0  0  0  0  0  0  0  0  0  0  0  0
    4.1396    3.0737  -19.2106 C   0  0  0  0  0  0  0  0  0  0  0  0
    6.7940    4.5543  -21.6910 C   0  0  0  0  0  0  0  0  0  0  0  0
    7.6498    3.4000  -22.2452 C   0  0  0  0  0  0  0  0  0  0  0  0
    6.1802    2.0938  -16.3990 C   0  0  0  0  0  0  0  0  0  0  0  0
    6.6905    4.5090  -17.1048 C   0  0  0  0  0  0  0  0  0  0  0  0
    6.5860    2.5032  -14.9706 C   0  0  0  0  0  0  0  0  0  0  0  0
    7.0622    4.7824  -15.6357 C   0  0  0  0  0  0  0  0  0  0  0  0
    6.1439    3.1976  -21.9963 C   0  0  0  0  0  0  0  0  0  0  0  0
    5.6830    3.3328  -17.1937 C   0  0  0  0  0  0  0  0  0  0  0  0
    5.6249    2.2789  -20.8467 C   0  0  1  0  0  0  0  0  0  0  0  0
    2.7707   -2.9683  -18.0272 N   0  0  0  0  0  0  0  0  0  0  0  0
    4.2405    2.6792  -20.5424 N   0  0  0  0  0  0  0  0  0  0  0  0
    5.4072    2.9863  -18.6095 N   0  0  0  0  0  0  0  0  0  0  0  0
    3.0220    3.4544  -18.6391 N   0  3  0  0  0  0  0  0  0  0  0  0
    7.5378    2.2637  -19.2935 O   0  0  0  0  0  0  0  0  0  0  0  0
    7.5599    3.5723  -15.0187 O   0  0  0  0  0  0  0  0  0  0  0  0
    6.7806   -1.3993  -23.6011 H   0  0  0  0  0  0  0  0  0  0  0  0
    4.6688   -5.7122  -18.5893 H   0  0  0  0  0  0  0  0  0  0  0  0
    5.7339   -3.0287  -22.0496 H   0  0  0  0  0  0  0  0  0  0  0  0
    5.7801   -4.1458  -20.1858 H   0  0  0  0  0  0  0  0  0  0  0  0
    6.7451    1.0253  -23.0763 H   0  0  0  0  0  0  0  0  0  0  0  0
    4.6142    0.1973  -19.4189 H   0  0  0  0  0  0  0  0  0  0  0  0
    2.7469   -4.9174  -17.2335 H   0  0  0  0  0  0  0  0  0  0  0  0
    2.9902   -1.0949  -18.9568 H   0  0  0  0  0  0  0  0  0  0  0  0
    6.9206    4.8811  -20.6483 H   0  0  0  0  0  0  0  0  0  0  0  0
    6.5705    5.4259  -22.3238 H   0  0  0  0  0  0  0  0  0  0  0  0
    8.0365    3.4460  -23.2739 H   0  0  0  0  0  0  0  0  0  0  0  0
    8.3866    2.9012  -21.5984 H   0  0  0  0  0  0  0  0  0  0  0  0
    7.0500    1.6582  -16.9126 H   0  0  0  0  0  0  0  0  0  0  0  0
    5.3734    1.3479  -16.3475 H   0  0  0  0  0  0  0  0  0  0  0  0
    6.2343    5.4114  -17.5380 H   0  0  0  0  0  0  0  0  0  0  0  0
    7.5999    4.2516  -17.6677 H   0  0  0  0  0  0  0  0  0  0  0  0
    5.6955    2.8463  -14.4235 H   0  0  0  0  0  0  0  0  0  0  0  0
    7.0225    1.6360  -14.4535 H   0  0  0  0  0  0  0  0  0  0  0  0
    7.8404    5.5588  -15.5951 H   0  0  0  0  0  0  0  0  0  0  0  0
    6.1705    5.1283  -15.0924 H   0  0  0  0  0  0  0  0  0  0  0  0
    5.5266    3.1770  -22.9065 H   0  0  0  0  0  0  0  0  0  0  0  0
    4.7431    3.6669  -16.7301 H   0  0  0  0  0  0  0  0  0  0  0  0
    3.4839    2.6691  -21.1963 H   0  0  0  0  0  0  0  0  0  0  0  0
    3.0188    3.7209  -17.6753 H   0  0  0  0  0  0  0  0  0  0  0  0
    2.1732    3.4783  -19.1673 H   0  0  0  0  0  0  0  0  0  0  0  0
  1  3  1  0  0  0  0
  1  5  2  0  0  0  0
  2  4  2  0  0  0  0
  2  7  1  0  0  0  0
  3  9  2  0  0  0  0
  4 10  1  0  0  0  0
  5 11  1  0  0  0  0
  6  9  1  0  0  0  0
  6 11  2  0  0  0  0
  7 23  2  0  0  0  0
  8 10  2  0  0  0  0
  8 23  1  0  0  0  0
  9 10  1  0  0  0  0
 11 22  1  0  0  0  0
 12 22  1  0  0  0  0
 12 25  1  0  0  0  0
 12 27  2  0  0  0  0
 13 24  1  0  0  0  0
 13 25  1  0  0  0  0
 13 26  2  0  0  0  0
 14 15  1  0  0  0  0
 14 20  1  0  0  0  0
 15 20  1  0  0  0  0
 16 18  1  0  0  0  0
 16 21  1  0  0  0  0
 17 19  1  0  0  0  0
 17 21  1  0  0  0  0
 18 28  1  0  0  0  0
 19 28  1  0  0  0  0
 20 22  1  0  0  0  0
 21 25  1  0  0  0  0
 22 24  1  0  0  0  0
  1 29  1  0  0  0  0
  2 30  1  0  0  0  0
  3 31  1  0  0  0  0
  4 32  1  0  0  0  0
  5 33  1  0  0  0  0
  6 34  1  0  0  0  0
  7 35  1  0  0  0  0
  8 36  1  0  0  0  0
 14 37  1  0  0  0  0
 14 38  1  0  0  0  0
 15 39  1  0  0  0  0
 15 40  1  0  0  0  0
 16 41  1  0  0  0  0
 16 42  1  0  0  0  0
 17 43  1  0  0  0  0
 17 44  1  0  0  0  0
 18 45  1  0  0  0  0
 18 46  1  0  0  0  0
 19 47  1  0  0  0  0
 19 48  1  0  0  0  0
 20 49  1  0  0  0  0
 21 50  1  0  0  0  0
 24 51  1  0  0  0  0
 26 52  1  0  0  0  0
 26 53  1  0  0  0  0
M  CHG  1  26   1
M  END
> <OMEGA_C>
Q9jJQEWkhr8+jrXBbjKKQIdBlsD3hJXB2OO2QBbA/L/Iha7BFzieQC83dMAosZzBVirJQBi+pD64
LbPBW4+iQIBKF75DpKLBh51OQPKih8D4X4/Buk9XQIXABsDmFJfBcQijQNqnw7+y/6TBaNiOQG+O
H8BGip3BtE+1QG7yST9ur6nBtl7LQE0RIEAxI5zBT3eEQNS2REBgr5nBx2jZQPC8kUAvh63BG8v0
QBGZWUAZ9rHBl8TFQAwABkAwMYPBnBjWQAFKkEC11ojBNsDSQJ00IEDGh2/B2/3hQJIJmUDUK3rB
bprEQMakTEBg+K/BQ9u1QK9MVUC5jInBjP+zQCTZEUAgxqbBclMxQAr4PcC1N5DB+7GHQE93K0Du
VqTBpQetQBUgP0BZ4JTBo2hBQK8VXUD3HJXB/zXxQLbgEED+WJrBnOrxQOqfZEChTHDBm/rYQFsd
s78Oz7zB7WaVQEjKtsDotpTBc3y3QMDWQcCSZbDBWva4QF+qhMBwfKHBedfXQFc9gz9dnLjBX6eT
QDj8ST4CWpvBiMwvQDdbncAu3onBkV8/QLkkjL+Kp5fB53XdQMsxnEDDL6XBnUHSQJygrUAul7LB
iJUAQa2KXED9MLrBrS8GQQutOUCSyazBmpnhQEk/1D8WTYfBA/OrQIyGrD+bx4LBxn/HQGEqrUDJ
TYzBIDLzQBQNiEBkV43BhUG2QDAqNkDBxmbBcLjgQLBp0T+SQWfB2+T6QKPhsUB/hXnBqHTFQFUb
pECoenHB7dmwQDRTS0CYQLfBSceXQMitakBF14XBi/heQMPSKkAEkqnBnzRBQMsjbkAJZ43BjRUL
QO6bXkCaVpnBtFfLQFZbgb8OarXBW9+LQPMHlcDqYJXBZn+4QGDH97+XYa7BesmfQLOVccAUjJzB
ye3JQDSMuj7sHrPBn72iQKWN372WrKLBRWxRQE6phsCgS4/BpRxZQMH3BMBOD5fBRAGkQKTbvr//
76TBdACQQFlHHcBOdp3BU1i1QD5JVD/2uanBHjLLQI3rIEDcK5zBXpKEQFkXRkAxspnBwpTZQBok
k0CmW63BOz/1QGCqXEDVt7HBwkTkQKE3UUAniIXBQqKnQPuHnEDcCofBNhQBQbk/i0ApdorBR8vG
QPZpvECAU4zBVPLEQNV6T0CY5q/BbQ21QNjeWkAkaYnBXuWzQFpJFEAAy6bBNGczQNhTPMDrMJDB
f82HQAX6LUB8X6TBwqStQC1GRUCt+5TB2SFAQOMsWUBrGJXBROLvQKlKCED+kprBGprxQM5ntUA+
VIjBzPXaQMnFrb/AmrzB4V2XQE5ytcC+h5TB7Kq5QKltP8D3MbDBdcK6QEwmg8C5SaHB1pbYQKfw
iD8eirjBtVWTQHqQcT4Uc5vBeMUyQIV0nMDWyonBZ41AQIMZib9xrpfBVSjdQNKBnUD0/qTBrqzS
QFcUr0DJbLLBJgoBQRzZX0Ag57nB+UcGQRC0PEBLeazBLxTwQOeUEUC83YfBhwvlQKwsV0D3h3nB
UrSnQA68oUChrXzBZzyHQEMGokB7MorB7SARQfxMiEAb7YbB1RYCQUtkhkCpKZPBU2/GQEq5t0AY
DJXBsL+8QA9N3UAicorBtZyxQK1ITkC9QLfBI/+gQAGhMEAVeITBYU5fQG8gLkAqn6nB2ck+QHKA
aUClXI3BmdIJQF1lV0BtUpnBBlOwQBS0TL80ZrjBUa97QKJgVMCWAY3BQruoQDax6L8/4LDBhtSE
QDwiEsC8YJTBDgi0QNB2CT/CC7XBJIWnQGSsIr5anqLBAJaNQIJ1k8CoRo/BYGWqQP6geMA/m5/B
CPejQItIwL/56KXB2IybQM4XJMDa5Z3BkvSwQD20XT8nDarBCu7IQAK4FUCm75rBvo2EQJ5sTEAN
/JnBvs/2QCA8gUCysarBAAf+QH4BMEC/G7HBVBbZQPBSLUBSNIPB1JimQEdklECnWYXB3m3+QB7m
akAWOIbBduHMQDDRr0Dq/ojBICfQQH7RS0BBOa7B3KOtQEz7SEBoTYjB6Lm1QJo+FEB9L6bBbFqj
QIDlm8ADaJjBGkOLQBwQOkAtvKTBBIWqQI50PECBMJTBg7o/QOoHaECyOZbBQtXqQCv05D8JsJjB
skvzQJwMoUBDwIPB9FCzQOfNhb+Bx8DBLC9ZQMtASMCprIXBw4emQJwZNsBde7PB5BFyQPDJpL8K
zpLB+T+5QI2KqD874brBOPiiQPEsvD3BSprBXiuIQP70rMBlmonBu827QNqLg8Ad2abB/eX/QHeh
gkAXM6LBFaX8QBWKoEDHca7BlYcEQVmNM0AJdLnBCSgGQTh47z9ZNa3BcQ7hQPwc2T8UBYbBCIzV
QEm7LEAM5nTBlfeiQJpDl0DVQHnB52GJQNoBoEDbTonB0ZcNQcfjWEC2q4HBCoICQXpqZUAg1o7B
NLvQQJz8rEDbtpHBoxfHQB190UDE4IbBnXe9QON8ZkAT5bTB5B+UQJSGI0CYc4TB7m9sQJYMRUB4
mqrBrEw5QDkvdECEaY7B6joOQB/rcEBlLJvB7v7NQEaker8ZsrXBSKx9QNMITsC9FYzBOqW7QLt1
9r8Sw67BiMqRQABOEMAtuJLBKDXMQP7rxz4JNLPBRwamQCalB75KtKLBZx5dQJbgjMDBq5DBMQ2D
QPCTbcD42aHBa5enQMMVwb92LqXBpxOUQOXyH8Bm1p3BzNO3QMISVD+isKnBGY3MQGOIJEDySZzB
5+qEQBvvQEDOa5nBcpOqQPqUZ0A/JLnBiEi2QGf7lUDHwLDBghjlQLQ5SUAJqYXBQiqqQHK0m0Ap
YofBmgbsQCAZaEDaSnTBnxG0QOLMqED6gnfBfOHGQP0lUEA5i6/B7PW1QKj0V0DVUYnB+cm0QPoO
FEA8tabBDJ9hQBcxlMBDVpvB4hOIQGA1KUCXHKTBMAiuQA9JQEBZwpTBLiJBQIcbVEAmwZTBGhzz
QGKQGEBXOpvBen/gQHahoECqs3LBmoTdQCkQp78E9rzBh3t5QA+mQ8Agj4PB3ty8QJ5vPsAQwrDB
7G2eQAaOq7+TYY/B8WraQKBnjj+OjrjBvgCXQNP9Qj5GXZvBKuc/QI2bpMB4j4vBk6qEQLwwesA4
VqrBvJ2JQK0uT0DsobnBOHa4QECpakABOMHBtYXMQEn1r0Ah17LBOq2dQAA4okAMQavBSav6QNO2
bEDYA4vBKG/sQJ13BECxHIbBh9KHQBhGoECH8IjBDtu8QLftr0Bb3YzBbO7XQAhKQkC7XGnB9PAG
QZQPYEBy6m/Bc1+tQGQcy0Bnc3XB0MifQL0rlkAajWzBdwTpQG0WR0ANXrHB5CWhQA+LMEASNoTB
OURfQNfcJkAhRKnBUEhAQHmTZEBNBo3Bno4KQL9BUkAy7ZjBs9raQNYZnr/sIbDB6s1/QF26kcAK
9ZHBYkbCQHHJBsA5y6nBYZ+ZQBr4bsAtaZjBPILUQKEWHj7AeK/BS1CdQO0sRr7U+6HBfPksQO7a
g8AAIY/Bmpc+QFv2B8AetJjBNE2jQJBsy78Vp6LBckCJQHWJH8AR4ZvB4f60QIR4MD8siajB2C3M
QIQ4MUBfCZ/BQLuGQIurRkByUpnBBci9QBy3jEBfXbPBrHTdQN2PVUDcdLfBM6/dQEL3PEBaRIbB
jBXbQGZwp0Bws4/BsFfxQIaya0ARMnnBxcHuQHWoukDOeoXBQRqyQMseOkBjs7LBAyHCQLTQe0DL
/ozBRjeuQC0eDUA6m6fBYs4NQCNwO8DXfJLBPkeDQDJ7IUDqZqPB0T2yQCNUUkBd5pbB9NdLQB4K
W0C8SpPBEGnzQNdmL0CeOJ/B5H8EQaEDm0C+KIDBI6nyQPIu0b9bhbXBV7eLQMVAsMAdL4/BaA7H
QAwVS8DmYKrBxGq5QIKGgcAkr5rBscrnQJiUUT/0SLTBW06GQJUXUz6kYpzBmncFQIUdmMAZK4rB
DfAkQB+Qlr9DUZvB3u/EQI67nkAGBazBPRitQEeqoUAtE7nBA2TjQBfbTkADF8DBpDv7QKX9SEDc
CLPBAYP3QCcQI0AiS4vBgmHJQNM2CEB+Z4PBwA3FQBnRvkCkTJPBQcr0QFbun0B+aZXBJ57XQJ0M
gECWUW7BUIwDQf//P0AgtHDBiU4BQXBv1kBInofB4PbUQHDlxEDZEIDBeWiaQEzLJEAvo7jBFlym
QHIOh0BQGIjBIoJPQH03FkBkO6fBaV5VQDPqdUA4IYzBV0sQQEyxT0Bs25XBq9rhQKIOg79YerHB
Mp0hQN4lTMBesJTBi2nKQGJr+78IhKvBEBlOQLAbD8C4wZrBNlDZQFwHsz6VXrDBMDiiQHVRHb5t
LKPBALxKQEipjMA47JHBlQCkQCfgb8BI3prBd12qQHVRxL9pTqTBSoqRQE/YIMAo753BRLy4QI9j
TD/UWanBFzzMQLDfNkAuFZ/Byx+GQKB7Q0CwdpnBmxi8QA4+kkBF4bLB243dQO0/ZUDvPLfBtnzc
QKmlO0AFOYbBz5jWQC4lqECk3Y7BXZruQC7XaEDUgnjBNefoQOaAukDxY4TBpr6yQGEDREA9wrLB
QKe/QPv6eUBIr4zBs4mvQOHmEkAT7afBWBeOQCcBlcAo/5TBhPyDQB6UIUCnvqPBqjKxQEV4UkBV
2ZbBFztJQKR6UkCDbZPBknfzQMr4OEB7KZ/BmUACQXpLm0BNsX7BpXr6QEa6rb8I7LbB+zXBPwYk
QMCRKpLBJeXQQCcyQcCHcazBpeIvQDwCp78Z95zB/bXrQIWkiD8Y5rTB8m6KQBnMOD4AgZ3B04Ao
QN4hpMDuPY3BOGrEQOMnfsDrRp3BTxTCQARNo0A/VKvBnp6qQLFSp0DXaLjBePnjQLAdYkCs4b/B
KW/7QFcSWkAUzbLBbRz3QBUZJkBpT4vBdWrJQLoCBEBUtIPBr46/QJQCv0AeRZLBWdvwQLXuokBE
lJTBfjTUQF7BeEDMkW3BxaECQdPnPUBsYHDB4Wr7QI2V10AUK4bBuW7OQFh7wkAY433BVNSbQPp6
LkBQ37jBxUajQDTig0BvxYfBY9lRQNECFUD4tqfBidpQQHI1a0BlHIzBeYQOQH4uRUCsJJbBaR3V
QHr9t7/HXa/BpSt/QCczjcBAE47Bm7e9QL7jDsDbK6jBOi2YQMqvasBhVZXBA/zOQIC7N72nl6/B
zoCaQIB8cb6UQaHBXLUtQFAgfMAQCovBZVU8QN4OA8Dw9JXBuzqgQNpO0b8sCqHBgmOHQKxjHcDE
YpnBt96wQKiXET9asKjBKW7KQGwDL0ArJKHBtraGQAQlSkAnpJrB6fy3QLqYhEBoLbbBq3PVQDZe
QUDIQbrBAUK2QEiBVkC6fITBsPX1QEIJhkCny47BP3TOQM7LAUA7y4LB3K8GQdoVN0D/zIvBz5Sr
QLIpK0BEVbTBAjnEQHIrgUARH4/BL2CqQMDLBUANwKjBw7gNQPLvMcDf9Y7B+MKAQG2xHUC5JqTB
L/GyQOL/UkByppjBrdVNQIZ/ZkCfxpTBTwvxQPIzMEDYyaLBwr/7QK7hEkAJMILBldrrQLnX8r+0
u7TBvL2LQLbcqsDA2IrBAUXCQHRnU8CRFqjB0W63QNZigMDRxpfBU17hQFW+Dz+5EbXBDbmEQHnL
aD4BqpvBG/EHQAF7kMD3dIXBeAsiQIf7j78yA5nBKwnCQAmZmEC8Yq/Buc6lQK4wmEBH57vBh0vY
QF4hNUDP5MLB+IX0QBTyNUBEYLbB5bGTQHRmSUBfy4TBjSa9QLHhgEADhnvBxzj+QCuHnkBu0ojB
6IcAQeJnkEDZu5bBGbPDQIl7xz+tm3bBVgDIQJ7krD+UiYnBJtUEQf0ACUCBY5LBncgXQQV1REAJ
jIrBaMKRQJjAE0B8jLnBpYC2QN2VoUANKI/Bv6ZIQOr1D0DiZKfBgslZQNpJg0A6BI7Bs2gRQBkI
XEB7EJfBRLaxQJhqS786hrjBtOmgQDWBm8AN/pfB8SipQIgv6L85ErHBz6upQHC6eMCMx5/Bnuu1
QMsBCj8pHbXBln6nQGy4JL47yKLBwOuJQNDij8BKvI7B+zWEQP6/EcAomZTBHvSjQOdmwL80HKbB
KRybQJJAJMBkIJ7BPMOxQFm6XT/zI6rBUd7IQN8sFUBM65rBXYeEQGf8S0DW/JnBVv3qQCGAjEBf
+6nBBDoAQYkkSUAq0a7BOO/YQI0tLED8MIPBG4emQM7jk0CmRYXBhVP+QM+aaUBfNYbBz+HMQGJv
r0Ak0ojBP1/PQC9+TkBqEq7B84itQNsXSEBBSojB5sm1QGEuFEAYMKbBYiJ4QJGgTsBOK43BCA+L
QJGNOECPtqTBunmqQAn/O0ApL5TBLNc/QA83aEBlQZbB2ZTqQLTi4j8woJjBQVrzQPxZoECTpYPB
kg+1QOPBhL/f5sDB5K6rQLMNvMDOFJnB3o6mQCenNcDUurPBnka7QAeXhMCn7KbBbVm8QDGVqD8l
47rBxEiiQIqxtD0DeprBIzODQPDmp8AJwYjB8/BxQPKZor/UPJPB9GPtQOnGkkABWKHBbYzrQEkE
q0ChXa7ByCkIQbcbTUDmp7bBjBUJQfagHEBGoqnBW9PgQLLB1j9KAobBkmXVQN+VK0BY33TBy7ui
QACIlkC6GHnB/mWJQKyin0DAPonB2JMNQcMpV0BMt4HBJVsCQS+OZEDk1o7ByK/QQAAarUDCjJHB
+ibHQEv90ECUlIbB1hK/QFueWkAcubXB/vuTQFaHIkBueITBJG9rQKgGQkApjqrBLH45QPnrdEB4
dI7BXmAOQN4GcUACNpvBA9LMQL0mfb+58rXBOg6AQEltT8D8F4zB7dq6QNwJ+L/a+K7BZ52SQJeU
EcDvx5LB9D3LQMRlwj5OaLPBxQGmQAhzGL5OyaLBjidfQCeRjcAJo5DBxhuDQN25bsDy4KHB92Kn
QPkTw79aTqXBikyUQCQWIcDs6J3BOXi3QHBvUD89zanBbVfMQCB3I0C7VJzBCOWEQLypQUBfeJnB
cKapQNdJZkCzNbnBPGe1QF93lUBx3LDBn43IQKsTBUC9aoPB2ADWQAK1kECKtIjBPmXVQMRUHkBd
4m/Bg//hQLf9mECE3nnBa0PGQItJT0BEpK/B/P62QC4rVECLhInBLIW0QPgOE0CTxqbBEYViQLDS
lMDhT5vB57qHQFUqKECUHaTB9eitQKXzPkDD25TBajJCQLP9V0CLwpTBNeXyQNyJGUCz85rB4Fjz
QJzvZECtZnDBg+HbQPL1p78mSL3BI9R8QBQjRcBRj4PBm+u7QIcsP8AWALHBEWifQPsirr+oeY/B
/CXZQENFjT9Ly7jBoGOXQLB/Lz5rY5vBxoxCQHpXpcBDfIvBy0WEQOs/e8DmXqrBTbyIQJuTTUCO
pLnBtFS3QEJWaUAZT8HBZ3fLQIyGr0Dm/7LBAN+cQDiloUBcVavBJcHkQOsG2D9gpofBsaevQIPD
pj+yFoPBalnGQFFUrUCXAozB7jPzQDLBiUBSTY3Btai4QMSUMUBu7mbBKG/kQIZdzj9B8GfBahX6
QAGdskAUF3nBI0LFQDvOokB4+HDB2V/oQP+FRkBfhLHBMseYQO7qZkAgqYXB2jBeQA2rJEDnM6nB
+4tCQF2EaUDdEI3B/EALQMd9V0C23JjBykHOQIkndb9isrXBuDCAQAtTTMDu74vBPkC8QOnl87+6
tq7Bl9iSQGSbDsDRoJLBbwbMQGhg0z5WQ7PBTQGmQLL75b0EvqLBwx1gQOcyjMB7dpDBvSGEQMie
bMDrsKHB6xioQEKIvr98JaXB2vqUQFWnHsB5vZ3BUHe3QLhOWT8GxqnBMy/MQET/I0ArUpzBCfSE
QHYPQ0A4e5nBloWqQEhmaUDFIbnBYB22QGrClkAHs7DBv23lQBfIUUBKm4XBpqqnQHPZm0Db8YbB
Ek4BQbC6jECiSorBSSbGQI1PvEADO4zBLbbGQDqoUUA2ha/B7wG2QFc0WkDgX4nBPHS0QCMnFUDY
wKbBCVpkQE+yk8CFH5vBMN6HQI6RKkD7I6TBnU6uQDR9REDb65TBSfNAQCarVEDmx5TBzurxQJm5
EEBKI5vBX9rwQPdQtkDKF4jBu9ndQNxNpL/y87zB5218QOWnQcBCaoPBqtC9QJc2PcDiqbDBMl6f
QFKcp7+TVo/BLwXaQAFwkT/8o7jBwdaWQEohWD4bbJvBdVhDQEnro8BkT4vBI6aFQNGIecCkK6rB
CpKJQKwBUUBxqbnBLoO4QBG+bEA3MsHBGWDMQMvFsEAtvrLB9m6dQJnnokBoNavBL9nxQKhCE0AP
M4jBu1TmQKCbVUAfpXnBiMKnQHHvoEBoeXzB9x+HQO/CoEAUEYrBDEcRQfN1ikC0o4bB6KYCQRxt
iEDh/5LBQULGQOFWt0A48ZTBFUW7QKAD3UBAcYrBgN/oQCunSECyUbHBh4OiQI4gL0C1Z4TB5aZe
QELpJ0B6Q6nB9AJAQP11ZUDhD43BS0QKQAFNUUB/6pjB

> <OMEGA_E>
tBIxPzAXMT/0xGU/gn9NP6jyVD9ML2A/bA9hP8KRYj+QDUw/0NhKPw==

> <OMEGA_NBR>
     31591

$$$$
408990
  -OEChem-04172616093D

 56 60  0     1  0  0  0  0  0999 V2000
    1.9247   -3.3255  -17.3555 C   0  0  0  0  0  0  0  0  0  0  0  0
    6.4712   -0.9134  -22.7113 C   0  0  0  0  0  0  0  0  0  0  0  0
    5.9207   -1.8798  -21.8580 C   0  0  0  0  0  0  0  0  0  0  0  0
    6.3406    0.4489  -22.4125 C   0  0  0  0  0  0  0  0  0  0  0  0
    3.5160   -2.3743  -19.0112 C   0  0  0  0  0  0  0  0  0  0  0  0
    5.0883   -0.1208  -20.3898 C   0  0  0  0  0  0  0  0  0  0  0  0
    3.8293   -4.6321  -18.1476 C   0  0  0  0  0  0  0  0  0  0  0  0
    5.3765   -3.7911  -19.6836 C   0  0  0  0  0  0  0  0  0  0  0  0
    3.0861   -3.4356  -18.1833 C   0  0  0  0  0  0  0  0  0  0  0  0
    5.2182   -1.4990  -20.6913 C   0  0  0  0  0  0  0  0  0  0  0  0
    4.6881   -2.5554  -19.7844 C   0  0  0  0  0  0  0  0  0  0  0  0
    5.6685    0.8655  -21.2391 C   0  0  0  0  0  0  0  0  0  0  0  0
    6.3261    2.4362  -19.4739 C   0  0  0  0  0  0  0  0  0  0  0  0
    4.1298    3.0592  -19.2124 C   0  0  0  0  0  0  0  0  0  0  0  0
    8.2269    2.6825  -16.0016 C   0  0  0  0  0  0  0  0  0  0  0  0
    7.7605    3.9615  -16.7369 C   0  0  0  0  0  0  0  0  0  0  0  0
    7.4459    1.3996  -16.3782 C   0  0  0  0  0  0  0  0  0  0  0  0
    5.6925    4.2608  -22.7273 C   0  0  0  0  0  0  0  0  0  0  0  0
    6.4319    4.8217  -21.5034 C   0  0  0  0  0  0  0  0  0  0  0  0
    6.2383    4.1472  -16.6466 C   0  0  0  0  0  0  0  0  0  0  0  0
    5.9211    1.6089  -16.3543 C   0  0  0  0  0  0  0  0  0  0  0  0
    6.4420    3.3129  -21.7763 C   0  0  0  0  0  0  0  0  0  0  0  0
    5.4451    2.8952  -17.0637 C   0  0  0  0  0  0  0  0  0  0  0  0
    5.6581    2.3457  -20.8198 C   0  0  1  0  0  0  0  0  0  0  0  0
    0.9907   -3.2741  -16.6593 N   0  0  0  0  0  0  0  0  0  0  0  0
    4.9485   -4.7917  -18.8842 N   0  0  0  0  0  0  0  0  0  0  0  0
    4.2847    2.7935  -20.5652 N   0  0  0  0  0  0  0  0  0  0  0  0
    5.3252    2.7590  -18.5421 N   0  0  0  0  0  0  0  0  0  0  0  0
    3.0279    3.5176  -18.6729 N   0  3  0  0  0  0  0  0  0  0  0  0
    7.5281    2.2431  -19.3450 O   0  0  0  0  0  0  0  0  0  0  0  0
    6.9981   -1.2205  -23.6027 H   0  0  0  0  0  0  0  0  0  0  0  0
    6.0345   -2.9274  -22.0944 H   0  0  0  0  0  0  0  0  0  0  0  0
    6.7560    1.1868  -23.0828 H   0  0  0  0  0  0  0  0  0  0  0  0
    2.9637   -1.4471  -19.0532 H   0  0  0  0  0  0  0  0  0  0  0  0
    4.5446    0.1851  -19.5082 H   0  0  0  0  0  0  0  0  0  0  0  0
    3.4950   -5.4413  -17.5151 H   0  0  0  0  0  0  0  0  0  0  0  0
    6.2741   -3.9369  -20.2663 H   0  0  0  0  0  0  0  0  0  0  0  0
    9.2888    2.5192  -16.2379 H   0  0  0  0  0  0  0  0  0  0  0  0
    8.1132    2.8481  -14.9201 H   0  0  0  0  0  0  0  0  0  0  0  0
    8.2534    4.8335  -16.2824 H   0  0  0  0  0  0  0  0  0  0  0  0
    8.0483    3.8884  -17.7961 H   0  0  0  0  0  0  0  0  0  0  0  0
    7.7436    1.0900  -17.3909 H   0  0  0  0  0  0  0  0  0  0  0  0
    7.7043    0.6062  -15.6614 H   0  0  0  0  0  0  0  0  0  0  0  0
    4.5928    4.2586  -22.7527 H   0  0  0  0  0  0  0  0  0  0  0  0
    6.0823    4.4469  -23.7389 H   0  0  0  0  0  0  0  0  0  0  0  0
    7.3509    5.4109  -21.6389 H   0  0  0  0  0  0  0  0  0  0  0  0
    5.8614    5.2226  -20.6527 H   0  0  0  0  0  0  0  0  0  0  0  0
    5.9781    4.3949  -15.6069 H   0  0  0  0  0  0  0  0  0  0  0  0
    5.9487    4.9793  -17.3052 H   0  0  0  0  0  0  0  0  0  0  0  0
    5.4473    0.7476  -16.8481 H   0  0  0  0  0  0  0  0  0  0  0  0
    5.5959    1.6540  -15.3044 H   0  0  0  0  0  0  0  0  0  0  0  0
    7.3893    2.9098  -22.1639 H   0  0  0  0  0  0  0  0  0  0  0  0
    4.4225    3.0654  -16.6957 H   0  0  0  0  0  0  0  0  0  0  0  0
    3.5711    2.8920  -21.2588 H   0  0  0  0  0  0  0  0  0  0  0  0
    2.9860    3.6865  -17.6882 H   0  0  0  0  0  0  0  0  0  0  0  0
    2.2285    3.6987  -19.2457 H   0  0  0  0  0  0  0  0  0  0  0  0
  1  9  1  0  0  0  0
  1 25  3  0  0  0  0
  2  3  1  0  0  0  0
  2  4  2  0  0  0  0
  3 10  2  0  0  0  0
  4 12  1  0  0  0  0
  5  9  2  0  0  0  0
  5 11  1  0  0  0  0
  6 10  1  0  0  0  0
  6 12  2  0  0  0  0
  7  9  1  0  0  0  0
  7 26  2  0  0  0  0
  8 11  2  0  0  0  0
  8 26  1  0  0  0  0
 10 11  1  0  0  0  0
 12 24  1  0  0  0  0
 13 24  1  0  0  0  0
 13 28  1  0  0  0  0
 13 30  2  0  0  0  0
 14 27  1  0  0  0  0
 14 28  1  0  0  0  0
 14 29  2  0  0  0  0
 15 16  1  0  0  0  0
 15 17  1  0  0  0  0
 16 20  1  0  0  0  0
 17 21  1  0  0  0  0
 18 19  1  0  0  0  0
 18 22  1  0  0  0  0
 19 22  1  0  0  0  0
 20 23  1  0  0  0  0
 21 23  1  0  0  0  0
 22 24  1  0  0  0  0
 23 28  1  0  0  0  0
 24 27  1  0  0  0  0
  2 31  1  0  0  0  0
  3 32  1  0  0  0  0
  4 33  1  0  0  0  0
  5 34  1  0  0  0  0
  6 35  1  0  0  0  0
  7 36  1  0  0  0  0
  8 37  1  0  0  0  0
 15 38  1  0  0  0  0
 15 39  1  0  0  0  0
 16 40  1  0  0  0  0
 16 41  1  0  0  0  0
 17 42  1  0  0  0  0
 17 43  1  0  0  0  0
 18 44  1  0  0  0  0
 18 45  1  0  0  0  0
 19 46  1  0  0  0  0
 19 47  1  0  0  0  0
 20 48  1  0  0  0  0
 20 49  1  0  0  0  0
 21 50  1  0  0  0  0
 21 51  1  0  0  0  0
 22 52  1  0  0  0  0
 23 53  1  0  0  0  0
 27 54  1  0  0  0  0
 29 55  1  0  0  0  0
 29 56  1  0  0  0  0
M  CHG  1  29   1
M  END
> <OMEGA_C>
Olz2P3vUVMAP2IrB+hPPQMLWab+6sLXBxXa9QOqc8L8x3a7BJObKQODS5T7RTLPBQgZhQM7zF8D6
FpjBddOiQPBg970/HqPBzxJ1QHY6lMAzLpHBbgysQFOhcsAPeJ3BnYJFQGLhW8B3d5HBefumQLzd
v7/Qh6XBRwWWQJyLI8CFRp7BumS1QKyRXT+i6anBCW/KQNXqG0B/ypvBCSeEQFHJQ0D2spnBhqED
QfmtK0BVA4DBQFb4QPuIfUA65YXB5UTuQB4msz+LBoPBvyi2QBpYiEB70bXBLdLNQKJLmkD9BqzB
hKDHQB62hEBALIXBTHm9QHrvzT+T1YLB7STOQMMFVEDPNa7BFT6uQEFKOUB+gojBaw+1QMEgFkAB
j6bB8519P5iLUcBGRoXBBlqeQLhVmcDhEpfBaRyJQM3IMkB6haTB52eqQOOTMEBKVpTBK8lBQI0g
YUAWYpXBJObwQOmOD0B+wprBSPDfQOs3nL870rzB8hrBQEJbO8BEwbDBEDHYQFHolz+oqbjBjK09
QJM6ub/dbJjBVm2RQPiPPT7DEJzB5a1fQM8ersD6HozBO8XIQPX2e8BjIaLB054UQf05IUAw54HB
oc8BQZBGNkDTuG7B/A0EQSqsmkBIQoLBuMUAQU3ceEBvXo7BQMv3QEmEiz+HIIvBjYn2QKgxGz8X
lXrB+PeSQLRGiECFBbbB0qHCQGdNjkBP6b3BQzrrQHAmrUBvHK3BaZC7QL0fp0ClOKXBwEy/QK2i
jEDqtXnBc1u+QFBWn0AWcYrBj1CuQBVlPz/tyIbB4hGzQFq30z/U3nTBCXXsQFI6OkCTT7HBQ4WN
QLQuREDjkIXBN41kQMMVOUD6EarBzho/QOTva0BWgY3Bk58OQEa4bEA795nBXUT2P/PQOMCAMovB
bKjRQHxBYL/cJLbB0cK/QFvm7L/QYq/Bg2POQPxo+T42hbPBQIdmQG5JC8CTYJjBBH+nQFawyr0U
RaPBL8pqQOpBjsDRe5HB6s2oQAh9csAbGp7Bt11EQJ3SSsCCsJHBvHCqQCTgu79W46XBK0+XQF8L
H8DvuZ7BrvC4QMp1Yz+oDqrB3x7MQLunJECtNJzBF46EQABoQUBrkJnBZpnvQLtrt0BbFIfBTovB
QIfDu0BjU4vBduQAQbWnikDiVInBRaSrQOMDbkBM9bjBXii2QGmKmEAsT7DB9KOkQPIamUD3WobB
oXXjQGNqTUCWJ4XB1m/HQCuVVUBBTa/BAF20QAtPVkBdLonBuCG1QMIGF0CgxabB6Mh9P3f1KcAq
6oXBgPSXQLGCl8CymZfBz0KIQGe6KkDlRKTBYKStQEmHQ0DL2ZTB1UU/QAjYUEAK9pTBG8XxQCdN
EUCJ5prBd/jhQC90lr/fX73B+03CQBVdOcDBdLHBg0TcQFCanT+gu7jBMiVKQBKcmL/cqZjBT6qX
QHqcSj5H95vBPoBQQBaypsBdVYzBPVPEQAohgcAt8aLB1/gBQZpyz0DmA4vBW5XvQN8DvUBhyHzB
iAO1QGSQ20D5OInBla7BQHEXuEDgE5TBwvsCQcTRhkA3BJLBjH8QQbyXh0DkVYXBZO6KQBGoVECv
rbnBNhe6QKAmc0D49MDBwRvMQP4Ss0DhIbLB8PKcQLbTo0CY2qrBxLukQFvknEB+NnvBi96DQEY/
nUBlZYnBrQXwQHxLD0BL2ofB4FPjQMpzT0B9t3jB+cXpQML6TUBo/bDBccugQNgPKUDXioTBzBJg
QFkxKECbfKnBahM9QBVDYECaM43BjSwJQB8yTUAMNpnB

> <OMEGA_E>
ZpErP046LD8=

> <OMEGA_NBR>
     33743

$$$$
50161552
  -OEChem-04172616093D

 49 52  0     1  0  0  0  0  0999 V2000
    6.6131   -0.9231  -22.7309 C   0  0  0  0  0  0  0  0  0  0  0  0
    4.9742   -4.5402  -18.5178 C   0  0  0  0  0  0  0  0  0  0  0  0
    6.0538   -1.8997  -21.8861 C   0  0  0  0  0  0  0  0  0  0  0  0
    5.4641   -3.6547  -19.4937 C   0  0  0  0  0  0  0  0  0  0  0  0
    6.4327    0.4452  -22.4516 C   0  0  0  0  0  0  0  0  0  0  0  0
    3.7394   -4.2903  -17.8880 C   0  0  0  0  0  0  0  0  0  0  0  0
    7.4743    3.5882  -22.0621 C   0  0  0  0  0  0  0  0  0  0  0  0
    5.1984    3.9541  -22.7942 C   0  0  0  0  0  0  0  0  0  0  0  0
    5.0927   -0.1401  -20.5045 C   0  0  0  0  0  0  0  0  0  0  0  0
    3.4747   -2.2672  -19.2183 C   0  0  0  0  0  0  0  0  0  0  0  0
    7.8998    4.4978  -23.0491 C   0  0  0  0  0  0  0  0  0  0  0  0
    5.6942    4.8586  -23.7542 C   0  0  0  0  0  0  0  0  0  0  0  0
    5.2805   -1.5086  -20.7716 C   0  0  0  0  0  0  0  0  0  0  0  0
    4.7236   -2.5032  -19.8366 C   0  0  0  0  0  0  0  0  0  0  0  0
    5.6757    0.8483  -21.3233 C   0  0  0  0  0  0  0  0  0  0  0  0
    6.0952    3.3187  -21.9059 C   0  0  0  0  0  0  0  0  0  0  0  0
    2.9729   -3.1483  -18.2438 C   0  0  0  0  0  0  0  0  0  0  0  0
    6.3447    2.4446  -19.5424 C   0  0  0  0  0  0  0  0  0  0  0  0
    4.1672    3.0816  -19.2392 C   0  0  0  0  0  0  0  0  0  0  0  0
    5.5936    2.3064  -20.8611 C   0  0  2  0  0  0  0  0  0  0  0  0
    5.6942    3.1639  -17.2191 C   0  0  0  0  0  0  0  0  0  0  0  0
    1.2900   -3.6499  -16.5776 C   0  0  0  0  0  0  0  0  0  0  0  0
    7.0180    5.1190  -23.8663 N   0  0  0  0  0  0  0  0  0  0  0  0
    5.4413    3.0066  -18.6577 N   0  0  0  0  0  0  0  0  0  0  0  0
    4.2067    2.6321  -20.4727 N   0  3  0  0  0  0  0  0  0  0  0  0
    3.0201    3.5472  -18.6131 N   0  0  0  0  0  0  0  0  0  0  0  0
    7.4732    2.0427  -19.2779 O   0  0  0  0  0  0  0  0  0  0  0  0
    1.7421   -2.8334  -17.6816 O   0  0  0  0  0  0  0  0  0  0  0  0
    7.1833   -1.2243  -23.5972 H   0  0  0  0  0  0  0  0  0  0  0  0
    5.5470   -5.4157  -18.2499 H   0  0  0  0  0  0  0  0  0  0  0  0
    6.2161   -2.9478  -22.0901 H   0  0  0  0  0  0  0  0  0  0  0  0
    6.4068   -3.8556  -19.9808 H   0  0  0  0  0  0  0  0  0  0  0  0
    6.8724    1.1895  -23.0990 H   0  0  0  0  0  0  0  0  0  0  0  0
    3.3739   -4.9693  -17.1318 H   0  0  0  0  0  0  0  0  0  0  0  0
    8.1981    3.0986  -21.4274 H   0  0  0  0  0  0  0  0  0  0  0  0
    4.1398    3.7477  -22.7377 H   0  0  0  0  0  0  0  0  0  0  0  0
    4.4918    0.1581  -19.6580 H   0  0  0  0  0  0  0  0  0  0  0  0
    2.8978   -1.3982  -19.4981 H   0  0  0  0  0  0  0  0  0  0  0  0
    8.9543    4.7046  -23.1565 H   0  0  0  0  0  0  0  0  0  0  0  0
    5.0014    5.3563  -24.4166 H   0  0  0  0  0  0  0  0  0  0  0  0
    4.8225    3.6359  -16.7424 H   0  0  0  0  0  0  0  0  0  0  0  0
    5.8688    2.1761  -16.7675 H   0  0  0  0  0  0  0  0  0  0  0  0
    6.5812    3.7971  -17.0699 H   0  0  0  0  0  0  0  0  0  0  0  0
    0.3089   -3.2910  -16.2331 H   0  0  0  0  0  0  0  0  0  0  0  0
    1.2028   -4.6958  -16.9069 H   0  0  0  0  0  0  0  0  0  0  0  0
    2.0145   -3.5844  -15.7525 H   0  0  0  0  0  0  0  0  0  0  0  0
    3.4089    2.5253  -21.0660 H   0  0  0  0  0  0  0  0  0  0  0  0
    2.1497    3.5544  -19.1053 H   0  0  0  0  0  0  0  0  0  0  0  0
    3.0637    3.8755  -17.6695 H   0  0  0  0  0  0  0  0  0  0  0  0
  1  3  1  0  0  0  0
  1  5  2  0  0  0  0
  2  4  2  0  0  0  0
  2  6  1  0  0  0  0
  3 13  2  0  0  0  0
  4 14  1  0  0  0  0
  5 15  1  0  0  0  0
  6 17  2  0  0  0  0
  7 11  2  0  0  0  0
  7 16  1  0  0  0  0
  8 12  1  0  0  0  0
  8 16  2  0  0  0  0
  9 13  1  0  0  0  0
  9 15  2  0  0  0  0
 10 14  2  0  0  0  0
 10 17  1  0  0  0  0
 11 23  1  0  0  0  0
 12 23  2  0  0  0  0
 13 14  1  0  0  0  0
 15 20  1  0  0  0  0
 16 20  1  0  0  0  0
 17 28  1  0  0  0  0
 18 20  1  0  0  0  0
 18 24  1  0  0  0  0
 18 27  2  0  0  0  0
 19 24  1  0  0  0  0
 19 25  2  0  0  0  0
 19 26  1  0  0  0  0
 20 25  1  0  0  0  0
 21 24  1  0  0  0  0
 22 28  1  0  0  0  0
  1 29  1  0  0  0  0
  2 30  1  0  0  0  0
  3 31  1  0  0  0  0
  4 32  1  0  0  0  0
  5 33  1  0  0  0  0
  6 34  1  0  0  0  0
  7 35  1  0  0  0  0
  8 36  1  0  0  0  0
  9 37  1  0  0  0  0
 10 38  1  0  0  0  0
 11 39  1  0  0  0  0
 12 40  1  0  0  0  0
 21 41  1  0  0  0  0
 21 42  1  0  0  0  0
 21 43  1  0  0  0  0
 22 44  1  0  0  0  0
 22 45  1  0  0  0  0
 22 46  1  0  0  0  0
 25 47  1  0  0  0  0
 26 48  1  0  0  0  0
 26 49  1  0  0  0  0
M  CHG  1  25   1
M  END
> <OMEGA_C>
357TQI5ObL/S2LXBdiyfQG9JkcBdJJTBDLnBQFIp87+nFq/Bx9muQOzmacAE85vB5NjNQAvv4z7n
nLPBGFJvQEpKicCbGo/Byy3vQBqlZUAzf7DBLFmmQHYPfUCLWrbBJveiQHeDD74rCaTB8GFeQIca
EcAVv5nB3sr8QDnuj0CZZLjBQje2QMx5m0CdCL7BEvqoQPIZwb9OLKbBbieXQKY0IMBJsZ7BBZ+1
QMEoWT8JlqrBMwzDQDxmVEAxP6/BZEM+QOZ9ScBU85HBggfLQJ9zHEC+VpzB3VmFQE45RUDh6ZnB
pP6yQMacE0Cg46bBSDe2QIV8SkCnwInB0B2lP6iXacDUnoTBq5PgQHTOo0Az7r7BLB+uQNNsQEAD
Q5XBbJ2GQAB0KEAsyKPB2ElBQMgEY0CI55TBUCTvQEK8AkAKOZrBTP3eP51VNcDic43Ba93lQDe3
nL8hx7zBSoGxQF9NrcC0/5HBSurGQAGoPMCeuLDBoQTNQM/BdsCy2J/BzurbQG9BmD+xyrjBYu5X
QMgEn8D+DYnBcisDQelPRkBHa6vBPHmEQLnZb0DU5rXBEb2PQEzZIT6nQ53BfHU5QPr3sr8n/JvB
90QPQR+MlkBpQLnBtwugQIJmq0AuVcPB8lGaQBOzaEB28IXB7sy7QFNFC0DcI4bBgpnSQJkDc0As
j4jBFCKePjagUsBw3YHBHfSZPwdElsA9QYfBte0AQIBnZcAcCnzBwipaQPqdIUBFh6jBh5QJQKd7
Y0CY15jBEBREQPwHeEAfW43B8ZzUQMWGar/I3bXBSDieQO5pkcANSpTB/+TCQPDT8r+/HK/Bh8qu
QAtqasDyA5zBMZLOQKNB5z5voLPBKTxtQPXIiMBCWo/Bo3GlQPjwfEBjOLbBF6PuQMpmZkDplrDB
/QmkQB8uEr7GCKTBBI5fQEWXD8DC8JnBgr+0QA5Um0Be/L3BC677QAs2kECEkbjBHR2qQFwhwb9D
M6bBqcWXQJ73H8D6yp7BBly2QNJMWT+IlKrBX6LCQIeoVEB1NK/BGQc+QGk/R8CWLpLBh0bLQJ6O
HEAMTZzB2WuFQOJSREDL3pnBwTazQLppE0CJ2KbBT1m2QG+0SkChtYnB3tOkP2SfY8DIvoTB5wTf
QNHLo0C2Cr/BpySuQKF1P0AbMpXBLLeGQIfzJkAgtaPBkXdBQOT8YkC18JTB1pvvQCTuA0CKOJrB
as3fPzT5MMCsro3Bf+zmQHJRm78YzLzBHO2vQGHPrcCKIZLBuUDIQBhvPMBCv7DBkhLNQE8LeMCh
0J/B2mrcQNl9mT9l0LjBYlNUQGKAnsBoZYnBn56DQH2Pb0CbobXBxRADQWufR0D9javBwveQQLTn
Gj5BOZ3BFao7QGTfrr9uO5zBhzeeQDETq0D8OMPB06sOQa79lkCKi7nBsCaaQB22Z0B+44XB1tS8
QEYLDEBICobBeDjSQKfFdEDkmIjBXZmhPuEmS8DF/IHBOeCWPwFek8CUQYfBqikBQOeSX8DAXnzB
oU1aQNzvHkACaqjBUO4JQHqiY0BZ6pjB2BlEQABzeEAhaY3B7RrEQKDuTb9bTLjBisGaQPg+hsDx
nJHBtTa7QGKs6r9jELHB+CCSQKcWSMCnqpjBTETAQP4fCD+iDrXBPhLFQOKOlcDTWpDBeFzwQDvj
V0B62rDBhWioQICMgUAQgLXBNl2oQBAFR76KX6PBkF7eQHViQcB+Ep3BNbD/QLjLhkBADbnBKv+5
QFrhm0Cdh73B4yiuQEjyw78fkKbB/yi0QJcNJMAhiJ7BpfeyQG2FWj+YgqrB4+HDQK7ZUkAg2a7B
dyLnQGAvgsAS+ZXBufvJQN4hHEBJ+5vB5LyEQMdISECiypnBrwGyQK1RE0CqiqbBuRi2QP41VEC4
wInB5oUVQXGBcsB4s43BZcDkQHI6nkAoLb/BwYGtQJvfQ0ApH5XB29OFQDQZKUBIiqPBimFAQI6W
aEAW+JTBk03uQKzAA0At15nBQDkIQXRLkcCSA5XBl+nNQCvxhL9UXsDBOfWAQCnJlMCoKI3BdV6+
QEVCN8D4ibPBYPJjQE7FL8C0jZnBAYDHQK6FqT/Zo7rBtFXLQKwusMDAEovB8D0DQX2xMkCjHazB
XieGQCmkf0BDcLTB3eObQPjb/zw0hZvB4TT4QOfpI8DJeKHBttsQQRe6iEB+e7rBJtakQIOnrkBC
fsLB6VyaQD13dEC7IYbBe9m7QPoeF0Bdn4XB8YXSQJtGfUCo/IjBcZwlQUF9h8CMcY3BdqoWQfvB
L8CKcJDBMWgOQQYudMC3p4XBrYdYQHRFIUCKQKjB4+UIQFwLaUDL9JjBviVDQP5tf0ADgY3BMu3E
QAsbSr9cTLjBSUWlQJ/1iMBp+ZHBsau6QOzv6L9lMbHBJzKYQFarTsA5y5jBikHCQJl1Cz/X8bTB
uj7RQJVjk8CP8pDBFrynQIRDeUAobbbB0iPwQPPNYkCuNrDBEjypQFBEPr7hXaPB0R7jQMmoNsD1
i53BpEu4QPcml0DbjL7B4nP+QO9DjECxh7jBljOuQKDhwr/3oqbBVpW3QMtVIsAir57Bj0m0QP9E
XT/0cqrBTM/DQOzZU0Bl467BSXPwQC+td8ClsJbBEZXKQGWCHEBy1ZvBy7GEQPvlREDJrpnBtfWy
QHv5E0AaeqbBmbC1QLfgU0DMn4nBoE4XQa7thMAgwIvB3sjiQGO2nkDadr/B5/+rQBpSN0BYjpTB
hY6GQD3zKED8kaPBLKBAQBt4Z0C3BpXBylHvQBuEBkAtvZnB7OsNQXdxhMDdTJbBxOTOQBa8gr9J
XMDB5KONQCzPmsA9hY3BYFG8QOhBNsCGz7PBD6FtQOqePcCEeZnB4ejKQN40qz8GZrrBWvfaQCNT
rcC2x4vBncCFQIA+bUDN9bXBIXUDQXArRUDR36rB8QmdQAXRHz01fJvBkKv6QL5FE8DTEKLBgI+i
QO7LpUCsLsTB3icQQZlGkkADZLnBUs+XQOWdZUDviIXB8GvFQNK1H0DONoXBbxvLQHHYhUDA74nB
lX8oQfwJjMAYYYzBcBwVQansSsBO9ofBC3YPQcamncD13YbBvbhaQF/HIkD+cKjBKooKQJxJbEC0
QpnBJD5CQFaUe0Ajb43B

> <OMEGA_E>
cKkBPnDK8T3EzTY/5qQ8Pw==

> <OMEGA_NBR>
     37377

$$$$
408836
  -OEChem-04172616093D

 55 58  0     1  0  0  0  0  0999 V2000
    7.1951    5.0084  -23.8913 C   0  0  0  0  0  0  0  0  0  0  0  0
    5.8587   -1.8712  -21.9916 C   0  0  0  0  0  0  0  0  0  0  0  0
    9.7071    5.6873  -19.0971 C   0  0  0  0  0  0  0  0  0  0  0  0
    8.0117    4.0113  -23.3241 C   0  0  0  0  0  0  0  0  0  0  0  0
    5.8608    5.1505  -23.4659 C   0  0  0  0  0  0  0  0  0  0  0  0
    5.6829   -0.8759  -22.9724 C   0  0  0  0  0  0  0  0  0  0  0  0
    5.9198   -1.5167  -20.6318 C   0  0  0  0  0  0  0  0  0  0  0  0
    8.4115    6.1461  -18.7866 C   0  0  0  0  0  0  0  0  0  0  0  0
   10.1738    4.4732  -18.5568 C   0  0  0  0  0  0  0  0  0  0  0  0
    7.4935    3.1544  -22.3332 C   0  0  0  0  0  0  0  0  0  0  0  0
    5.3394    4.2988  -22.4738 C   0  0  0  0  0  0  0  0  0  0  0  0
    5.5890    0.4783  -22.5988 C   0  0  0  0  0  0  0  0  0  0  0  0
    5.8160   -0.1674  -20.2533 C   0  0  0  0  0  0  0  0  0  0  0  0
    7.5716    5.3828  -17.9529 C   0  0  0  0  0  0  0  0  0  0  0  0
    9.3444    3.7171  -17.7067 C   0  0  0  0  0  0  0  0  0  0  0  0
    6.1501    3.2882  -21.8946 C   0  0  0  0  0  0  0  0  0  0  0  0
    5.6908    0.8523  -21.2365 C   0  0  0  0  0  0  0  0  0  0  0  0
    8.0258    4.1501  -17.4225 C   0  0  0  0  0  0  0  0  0  0  0  0
    6.3299    2.5563  -19.5184 C   0  0  0  0  0  0  0  0  0  0  0  0
    4.1168    3.0837  -19.1653 C   0  0  0  0  0  0  0  0  0  0  0  0
    5.5861    2.3298  -20.8232 C   0  0  0  0  0  0  0  0  0  0  0  0
    6.8082    4.9109  -14.6837 C   0  0  0  0  0  0  0  0  0  0  0  0
    7.2062    3.4809  -15.1099 C   0  0  0  0  0  0  0  0  0  0  0  0
    5.6065    3.2718  -17.1250 C   0  0  0  0  0  0  0  0  0  0  0  0
    7.0915    3.2183  -16.6349 C   0  0  1  0  0  0  0  0  0  0  0  0
    4.1917    2.6353  -20.4791 N   0  0  0  0  0  0  0  0  0  0  0  0
    5.3966    3.0401  -18.5850 N   0  0  0  0  0  0  0  0  0  0  0  0
    3.0036    3.4546  -18.5797 N   0  3  0  0  0  0  0  0  0  0  0  0
    7.4931    2.2070  -19.3577 O   0  0  0  0  0  0  0  0  0  0  0  0
    7.5923    5.6638  -24.6522 H   0  0  0  0  0  0  0  0  0  0  0  0
    5.9466   -2.9073  -22.2837 H   0  0  0  0  0  0  0  0  0  0  0  0
   10.3427    6.2671  -19.7500 H   0  0  0  0  0  0  0  0  0  0  0  0
    9.0360    3.9034  -23.6490 H   0  0  0  0  0  0  0  0  0  0  0  0
    5.2353    5.9153  -23.9019 H   0  0  0  0  0  0  0  0  0  0  0  0
    5.6199   -1.1524  -24.0145 H   0  0  0  0  0  0  0  0  0  0  0  0
    6.0465   -2.2808  -19.8792 H   0  0  0  0  0  0  0  0  0  0  0  0
    8.0618    7.0853  -19.1889 H   0  0  0  0  0  0  0  0  0  0  0  0
   11.1672    4.1224  -18.7945 H   0  0  0  0  0  0  0  0  0  0  0  0
    8.1235    2.3896  -21.9037 H   0  0  0  0  0  0  0  0  0  0  0  0
    4.3153    4.4151  -22.1513 H   0  0  0  0  0  0  0  0  0  0  0  0
    5.4388    1.2352  -23.3543 H   0  0  0  0  0  0  0  0  0  0  0  0
    5.8314    0.0975  -19.2064 H   0  0  0  0  0  0  0  0  0  0  0  0
    6.5792    5.7378  -17.7174 H   0  0  0  0  0  0  0  0  0  0  0  0
    9.7154    2.8022  -17.2689 H   0  0  0  0  0  0  0  0  0  0  0  0
    6.9173    5.0130  -13.5939 H   0  0  0  0  0  0  0  0  0  0  0  0
    7.4616    5.6386  -15.1873 H   0  0  0  0  0  0  0  0  0  0  0  0
    5.7622    5.1000  -14.9668 H   0  0  0  0  0  0  0  0  0  0  0  0
    8.2495    3.3082  -14.8073 H   0  0  0  0  0  0  0  0  0  0  0  0
    6.5501    2.7696  -14.5867 H   0  0  0  0  0  0  0  0  0  0  0  0
    5.0419    2.5035  -16.5765 H   0  0  0  0  0  0  0  0  0  0  0  0
    5.2057    4.2664  -16.8798 H   0  0  0  0  0  0  0  0  0  0  0  0
    7.4434    2.1905  -16.8077 H   0  0  0  0  0  0  0  0  0  0  0  0
    3.4121    2.5356  -21.0975 H   0  0  0  0  0  0  0  0  0  0  0  0
    3.0146    3.7448  -17.6228 H   0  0  0  0  0  0  0  0  0  0  0  0
    2.1436    3.4471  -19.0900 H   0  0  0  0  0  0  0  0  0  0  0  0
  1  4  1  0  0  0  0
  1  5  2  0  0  0  0
  2  6  1  0  0  0  0
  2  7  2  0  0  0  0
  3  8  1  0  0  0  0
  3  9  2  0  0  0  0
  4 10  2  0  0  0  0
  5 11  1  0  0  0  0
  6 12  2  0  0  0  0
  7 13  1  0  0  0  0
  8 14  2  0  0  0  0
  9 15  1  0  0  0  0
 10 16  1  0  0  0  0
 11 16  2  0  0  0  0
 12 17  1  0  0  0  0
 13 17  2  0  0  0  0
 14 18  1  0  0  0  0
 15 18  2  0  0  0  0
 16 21  1  0  0  0  0
 17 21  1  0  0  0  0
 18 25  1  0  0  0  0
 19 21  1  0  0  0  0
 19 27  1  0  0  0  0
 19 29  2  0  0  0  0
 20 26  1  0  0  0  0
 20 27  1  0  0  0  0
 20 28  2  0  0  0  0
 21 26  1  0  0  0  0
 22 23  1  0  0  0  0
 23 25  1  0  0  0  0
 24 25  1  0  0  0  0
 24 27  1  0  0  0  0
  1 30  1  0  0  0  0
  2 31  1  0  0  0  0
  3 32  1  0  0  0  0
  4 33  1  0  0  0  0
  5 34  1  0  0  0  0
  6 35  1  0  0  0  0
  7 36  1  0  0  0  0
  8 37  1  0  0  0  0
  9 38  1  0  0  0  0
 10 39  1  0  0  0  0
 11 40  1  0  0  0  0
 12 41  1  0  0  0  0
 13 42  1  0  0  0  0
 14 43  1  0  0  0  0
 15 44  1  0  0  0  0
 22 45  1  0  0  0  0
 22 46  1  0  0  0  0
 22 47  1  0  0  0  0
 23 48  1  0  0  0  0
 23 49  1  0  0  0  0
 24 50  1  0  0  0  0
 24 51  1  0  0  0  0
 25 52  1  0  0  0  0
 26 53  1  0  0  0  0
 28 54  1  0  0  0  0
 28 55  1  0  0  0  0
M  CHG  1  28   1
M  END
> <OMEGA_C>
Zz7mQL5EoEBMIb/BUXq7QHCE77/A7q/BMlAbQSr+tUDrxpjB1i8AQepcgEDTl7rB8Yu7QATRpEAb
urvBLNq1QAA9YL+Bx7fBSG+9QMMhwr/9DaXBcpUGQYSsxEDrSpbB2cciQT4kj0BkdJTBFsvvQFLi
SUBUqrLBbdyqQGqPiUBqyrPBcNmyQEbe9D5VyrTBnRy6QHxsK77NBqLBvUryQOo/rECYn4/BoIIV
QX/lbUBEp43Bsc3EQCNyUkAWKK/BVRu2QIQtWj9T5KnBx2kAQczNhEA0YYvBu47KQOCaI0CdJZzB
Gb2DQAxbRUCRUpnBQcGyQLIbFUDmlabBA93ZQOglnUCi8GrB8JjmQMPGXkAJwnHB2GizQMZlUUAG
AInBlu3iQCT4TUBeFIXBGSKGQDqoKEAk1aPB5LCsQNqQQkAMrpTBPTpAQH4XXUA5o5TB1MfvQHw/
DUCn3JrBGPTyQL89tUDON8XBY0q+QJAQOsDvRLLB2XslQbyLyEDs/53BWZMQQS7ReUA9Mb3BjYen
QH1KvUAlN7/B19WzQGSBk7/AHcDB+XzBQEH5EcC0CJ/B//wAQQy74kDegpnB2qwyQbHqg0ArW5bB
C/oBQW/uGEDHOq/BxxaKQJ1IjUDgNbHBbwquQOgbnj+m1brBoZq6QOOvxz3DppnBzojSQESct0BR
vY3BNnIbQVhXM0CkJorBV1rdQI9qoEDJgFnBc8XuQD9vtEAh/3LBDWS4QN4yo0Dfd2/BFv4DQVa5
U0CR6mzBxZrRQJRAMUBQY2nBolehQH45IECcnITBxZSmQHSGiEDrCYfBQzDuQOMwDEAUdobBp2Ba
QEhHIkCjx6jBOO9AQDarb0CH+4zB9jAJQCydXEBluJjBqS7kQIJPoEBbk7/Bkj+8QLD17b8PDrDB
NpgoQQeSZUBqApXBPQf/QJkfgUCk+rrB45O5QNNmpEAnEbzB8iG2QGFOXb+W4rfB1G2+QFKlwL9U
LqXBX8EiQYy7S0BsnIrB/LAaQazBjECeC5vBEknvQCr3S0Bq4LLBkbGpQKxUiUCO/LPBGv2yQD54
+j4c47TB2tO6QNQ8Ib6KJKLBhdEOQUdgZED2T4bBTfMGQVztmUBYspbBX2DEQDBoU0AqSq/BtYa2
QDroXD8N/qnBsaMAQT0njEC6T4zBn/3KQENCJECVNZzBnTuEQERNRkCIVpnB1A6zQFewFUBcqKbB
BAOVQPB2yUD5VIfBlAW/QBL1vEDb9ozBrWK3QKYvV0CNdonBOu7TQFdElEAc+IfByWWGQMCpKEA1
0aPBu2+tQG7PQ0A90pTBxyRBQFDMXUDbqZTBxFjvQBGeCkAZYJrBnkbwQFYRtUBxycXBv0O/QFE5
OcA1Z7LBvbk3QdaLUUApWZjB1dwPQQ//e0CPqr3B2gWlQFVdvED3lL/Bw9izQDMPkr+jN8DBV97C
QAcwEcABLJ/B7JAtQTj8JEBr7IXBGikfQQCalkAuBaPBSwYCQUZZHEBzX6/BePaIQJSkjEDlVrHB
7dutQBhynz8467rBflS7QF6N2T3hw5nB/VQKQal9T0BwxnzBARv5QHGXrkCeRZvBGp6HQHQ65kBj
JIvBY+17QDf9rkDB/IfBb3GbQDsa0EBvrn3BbzO4QAKntkDPc5XBLK7VQAbE10BFTozBQUvIQCr7
H0B9AYbBqxeZQKo9YUBFKYXBh8LWQOb1mUC5oH7B6ZlaQIlYIUAJsqjBBcpBQB+xcEA+BY3B8xUK
QHXUXECDvZjB0pnjQOhuoECyrL/BXD27QN4L8L9Umq/ByLYqQTCFgkBrcY3BKzW4QPZqlEDXcL/B
fvD/QHK2kEAt4LfBPeXYQFG+dL+k0LPBJGKbQDrMt79sdqjBCn8ZQQi8nkDRtYvBQygoQQXPLED3
hIvBd/2oQKrgcUAuX7fBXNfwQLACa0Crwa/BlW/WQBCszz4yALHBJ9qYQNCUnL2hnKXBcaAFQTTi
jkCTMIjBWFkUQb/kDEAJ6YfBc9XEQDSqU0DPQq/Bp7q1QHJjXj+vCarBF8ACQXLFREBbbYbBenvK
QPAOIUC/+pvBjbODQAMdQ0CMM5nBH2GzQM5BFkASnabBdznUQIBrckAJTWPBEnnUQGYCGkClTG7B
2ymzQFwmTkDK2YjBP6fZQJF6HkBtfIPBNfyGQPSELkAs+qPBW7+rQN4xOEAYTpTBKCZAQMRUW0Bo
jpTBkqzvQHBPC0AxoprB2R7vQP+3tUCW18XB7+28QOiuOsAT2bHBjOE5QRy0jkBCP5DB7YOiQGhS
oED9eMXBGqsQQeyLmUBjH7jBRpbxQHzRpb9RN7nBhtaEQAYoCcAcKqXB8okbQdObwEDHFY3BWmQ1
QVSWAUDmz4zBZc6HQDSRXkCiXLfBPmwDQTqlUkC91KnB4ZntQJ4qjT+TKbTBB7iAQB8WgD6kAaDB
lgHxQPuwpECg0obBUZISQVrTkj+vQ4bBI3XQQNgLakB77VHBj5TyQK3DiUBmmWbBrnW5QF1ejEDf
iWnB6y/vQFPe6D/pu2fBChG2QBFJ8z9irGrBf/qVQNtDPkByWYTBIDK5QKWwiUDXUojBPS3ZQJqN
uD8aeobBSoBdQCjuL0DRMqnB24A/QAodaEDGt4zBQnYKQPcDYUBJ2pjB

> <OMEGA_E>
jvddPygiXj8Iolk/

> <OMEGA_NBR>
     40403

$$$$
50161570
  -OEChem-04172616093D

 49 52  0     1  0  0  0  0  0999 V2000
    6.5521   -0.9120  -22.7777 C   0  0  0  0  0  0  0  0  0  0  0  0
    4.9706   -4.5630  -18.5662 C   0  0  0  0  0  0  0  0  0  0  0  0
    6.0106   -1.8956  -21.9305 C   0  0  0  0  0  0  0  0  0  0  0  0
    5.4588   -3.6768  -19.5418 C   0  0  0  0  0  0  0  0  0  0  0  0
    6.3936    0.4538  -22.4735 C   0  0  0  0  0  0  0  0  0  0  0  0
    3.7473   -4.3012  -17.9209 C   0  0  0  0  0  0  0  0  0  0  0  0
    7.4719    3.5780  -22.0759 C   0  0  0  0  0  0  0  0  0  0  0  0
    5.1864    3.9559  -22.7699 C   0  0  0  0  0  0  0  0  0  0  0  0
    5.1143   -0.1465  -20.4925 C   0  0  0  0  0  0  0  0  0  0  0  0
    3.4930   -2.2664  -19.2301 C   0  0  0  0  0  0  0  0  0  0  0  0
    7.8860    4.4742  -23.0802 C   0  0  0  0  0  0  0  0  0  0  0  0
    5.6713    4.8464  -23.7480 C   0  0  0  0  0  0  0  0  0  0  0  0
    5.2787   -1.5121  -20.7880 C   0  0  0  0  0  0  0  0  0  0  0  0
    4.7291   -2.5123  -19.8613 C   0  0  0  0  0  0  0  0  0  0  0  0
    5.6800    0.8485  -21.3142 C   0  0  0  0  0  0  0  0  0  0  0  0
    6.0937    3.3199  -21.8919 C   0  0  0  0  0  0  0  0  0  0  0  0
    2.9904   -3.1458  -18.2608 C   0  0  0  0  0  0  0  0  0  0  0  0
    6.3479    2.4415  -19.5191 C   0  0  0  0  0  0  0  0  0  0  0  0
    4.1619    3.0449  -19.2212 C   0  0  0  0  0  0  0  0  0  0  0  0
    5.6008    2.3049  -20.8440 C   0  0  2  0  0  0  0  0  0  0  0  0
    5.6958    3.2147  -17.2105 C   0  0  0  0  0  0  0  0  0  0  0  0
    1.2799   -3.5574  -16.5713 C   0  0  0  0  0  0  0  0  0  0  0  0
    6.9945    5.0938  -23.8878 N   0  0  0  0  0  0  0  0  0  0  0  0
    5.3902    2.8100  -18.5894 N   0  0  0  0  0  0  0  0  0  0  0  0
    4.2093    2.6165  -20.4610 N   0  3  0  0  0  0  0  0  0  0  0  0
    3.0376    3.6009  -18.6294 N   0  0  0  0  0  0  0  0  0  0  0  0
    7.5105    2.1344  -19.2776 O   0  0  0  0  0  0  0  0  0  0  0  0
    1.7641   -2.8019  -17.7042 O   0  0  0  0  0  0  0  0  0  0  0  0
    0.9979   -4.8410  -16.9239 F   0  0  0  0  0  0  0  0  0  0  0  0
    0.1294   -2.9736  -16.1571 F   0  0  0  0  0  0  0  0  0  0  0  0
    2.1685   -3.5177  -15.5408 F   0  0  0  0  0  0  0  0  0  0  0  0
    7.0920   -1.2057  -23.6657 H   0  0  0  0  0  0  0  0  0  0  0  0
    5.5356   -5.4473  -18.3110 H   0  0  0  0  0  0  0  0  0  0  0  0
    6.1552   -2.9422  -22.1546 H   0  0  0  0  0  0  0  0  0  0  0  0
    6.3906   -3.8868  -20.0458 H   0  0  0  0  0  0  0  0  0  0  0  0
    6.8173    1.2031  -23.1258 H   0  0  0  0  0  0  0  0  0  0  0  0
    3.3820   -4.9803  -17.1648 H   0  0  0  0  0  0  0  0  0  0  0  0
    8.2035    3.0900  -21.4490 H   0  0  0  0  0  0  0  0  0  0  0  0
    4.1272    3.7601  -22.6912 H   0  0  0  0  0  0  0  0  0  0  0  0
    4.5453    0.1438  -19.6216 H   0  0  0  0  0  0  0  0  0  0  0  0
    2.9247   -1.3876  -19.4970 H   0  0  0  0  0  0  0  0  0  0  0  0
    8.9400    4.6716  -23.2088 H   0  0  0  0  0  0  0  0  0  0  0  0
    4.9702    5.3436  -24.4019 H   0  0  0  0  0  0  0  0  0  0  0  0
    4.7612    3.4559  -16.6830 H   0  0  0  0  0  0  0  0  0  0  0  0
    6.2075    2.3908  -16.6915 H   0  0  0  0  0  0  0  0  0  0  0  0
    6.3479    4.1005  -17.2245 H   0  0  0  0  0  0  0  0  0  0  0  0
    3.4156    2.5155  -21.0609 H   0  0  0  0  0  0  0  0  0  0  0  0
    2.1916    3.6958  -19.1540 H   0  0  0  0  0  0  0  0  0  0  0  0
    3.0730    3.9068  -17.6779 H   0  0  0  0  0  0  0  0  0  0  0  0
  1  3  1  0  0  0  0
  1  5  2  0  0  0  0
  2  4  2  0  0  0  0
  2  6  1  0  0  0  0
  3 13  2  0  0  0  0
  4 14  1  0  0  0  0
  5 15  1  0  0  0  0
  6 17  2  0  0  0  0
  7 11  2  0  0  0  0
  7 16  1  0  0  0  0
  8 12  1  0  0  0  0
  8 16  2  0  0  0  0
  9 13  1  0  0  0  0
  9 15  2  0  0  0  0
 10 14  2  0  0  0  0
 10 17  1  0  0  0  0
 11 23  1  0  0  0  0
 12 23  2  0  0  0  0
 13 14  1  0  0  0  0
 15 20  1  0  0  0  0
 16 20  1  0  0  0  0
 17 28  1  0  0  0  0
 18 20  1  0  0  0  0
 18 24  1  0  0  0  0
 18 27  2  0  0  0  0
 19 24  1  0  0  0  0
 19 25  2  0  0  0  0
 19 26  1  0  0  0  0
 20 25  1  0  0  0  0
 21 24  1  0  0  0  0
 22 28  1  0  0  0  0
 22 29  1  0  0  0  0
 22 30  1  0  0  0  0
 22 31  1  0  0  0  0
  1 32  1  0  0  0  0
  2 33  1  0  0  0  0
  3 34  1  0  0  0  0
  4 35  1  0  0  0  0
  5 36  1  0  0  0  0
  6 37  1  0  0  0  0
  7 38  1  0  0  0  0
  8 39  1  0  0  0  0
  9 40  1  0  0  0  0
 10 41  1  0  0  0  0
 11 42  1  0  0  0  0
 12 43  1  0  0  0  0
 21 44  1  0  0  0  0
 21 45  1  0  0  0  0
 21 46  1  0  0  0  0
 25 47  1  0  0  0  0
 26 48  1  0  0  0  0
 26 49  1  0  0  0  0
M  CHG  1  25   1
M  END
> <OMEGA_C>
uKrRQIZ7ab+iOLbBPA+fQOsDksCsh5TBClfAQLmj8r+bca/B1a6uQPJQa8CXVZzBfpjMQNZe6D6y
ybPB2NNvQLajicABXo/BrhnvQHH9ZEBem7DB0falQNUsfUC6KLbBbqijQGQLFr6O8KPBjIxfQPQL
EcAl15nBJVr8QJssj0BGpLjB9Xq1QJIVm0DQ+73BOeuoQEiNwb/NTabBAVWXQDfJIMDp457BvsK1
QCQ4WT+Qg6rB7f/CQM55VECmIq/B0mI/QLFUScAGFpLByyHLQFVCHEAsJ5zBFC6FQBngQkAcxZnB
8TmzQDSEE0B0wKbByUO2QP29TUAjr4nBytSjP1qsY8AfkoTBItPfQLsAo0BBGr/BpnysQNLWM0Ao
t5TBOLKGQDJ1J0AQsKPBcGhCQJJ0ZkDtCJXBu1XwQFCaCEB0OJrBPc7hPwNSM8Anoo3BW3d/P2jp
msAbZIfBnn4EPjFPPsCrQYHBKMgKQAAiYcAyp3jBo/HiQJFUmr9kU73B5COxQDNQrsD0fJLBAPfE
QMhMPMCIPLHBIIDMQM7BeMDYXaDBGyfaQGUAmj+VAbnBJXJYQPBen8BvUYnBp0EDQSPCRUCNl6vB
9BGEQNKkcECth7XBIXORQBtJEz4f+ZzB5S07QFOdsb/p+ZvBOgoPQWp9lUC2q7nBhgufQKL+qkAZ
N8PBWFuYQKotXUC5doXBtKPGQCYDGUBGiIXBzCHLQCM3g0C0y4nBl5laQO39IEDEfKjBPUMMQKWI
bEBbO5nB4atEQEUIekBwbI3BsD3TQKuaZ78+H7bBIm2eQDqkksAO05TB0fLBQL8K8r/DW6/BgqOu
QNAObMCkfZzBQVDNQI3c6z7cybPBk+FuQPDlicA5oI/Bs93uQDKEZUDndrDBguulQP7XfECSPLbB
IryjQIOQFb7GEaTBDNpgQLsYEMAW15nB8lb8QPiHj0ALc7jBQqe1QLcHm0AEAr7B+LepQBBdwb+w
VabBxtaXQFOhIMDT8Z7BN7e1QBzdWT/fnqrBX8DCQG+OVEACIa/Bh/c/QP1rSMDMI5LBD7jKQF6I
G0CBM5zBeOOEQIM5Q0DY0ZnB0NeyQENxE0C0zqbBhQ62QBiMTUAHvYnBQF6lPxvLYsCQmITB4gHg
QJQ2o0C+/b7BxDesQPUhNEB1yJTBG02GQD2IJ0Bfu6PB1e1BQJaXZkBbB5XB7ojvQB1lBUDXOJrB
YRrlP0TyMMBXfo3BQzgrPlMgPMAt9YDBqV0MQKbmZMCk3njBo1V2P+6imcD+zIfBjiTlQKUVmb+4
Ir3BVPCvQJNwr8Aa6pLBAzbHQKHyO8AQErHBuXvMQLHHecDhfqDB2MjaQNUumz+h/7jBEo9WQFDp
n8Ads4nB/g4DQcZ6RkBVYqvBbAqEQE3Zb0C4trXBdAORQKxCET6OLp3BjEs9QIhPrr/d5ZvB5wkP
QeMLlkAFYLnBLmOfQAXQqkD2TsPBWjqYQLUCXkAxi4XBnePFQMMvGEDAlIXB7G7LQMy8gkCy0YnB
DLtZQFz5IEA1hKjB94ILQIVXbEB8LZnBiY1EQIdWekAUbY3BYO7SQHdKab+gCbbBBqefQMs8kcCS
R5TB9prBQKMN8r8BOa/BblevQFbIacCsEpzB/RbNQLRk6T4GxbPBUmRwQIAticCdPY/BMPWlQLli
fUAmWLbB0uvuQBOWZUBMnbDBKU6jQJqVC74BCaTB46dfQLu5EMCE0pnB6rC1QD+Am0BtEr7BDWX8
QAnJj0BYjbjBKFKpQNBpwL+HOqbBFbKXQG7zH8A2xZ7BfnW1QCLaWj/soarBcMzCQGOzVEC7Rq/B
hoo/QOfnSMBBCZLBDRjLQFKwHEB2XpzB43uFQLDaRUCP5ZnBe+SyQELwE0AY56bBaqa2QEOHS0Cg
xonBA6ipP8NcYMDlE4TBrwzgQP2yo0BKDL/BTT+uQIpnQECpQZXBz46GQFq7KEAKwKPB6OhBQHGa
ZECT5pTBmFfvQO5+A0BwTZrBIIHhP+mQM8CAmY3BjP5FPru3OcDslIDBz2MQQIE5W8AsTHjBGoSD
P3qwmcDdUIbB7MrkQHu/mr9WCr3Bge6xQGxNrcAsJpLBXeLGQEcMPMBq37DBlXTNQJyzdsAc/p/B
T6jaQBfymT8tArnBq9JYQMb9nsC0OInBkxOEQHVmcECA07XB2hYDQQkqRkCykqvBH3iQQPijIT4k
L53BmdE6QL0Wsr8lD5zBdmufQG9tq0AZWMPBdBEPQd5HlkBIernBHq+aQEdLaUCZ8IXB8sO8QN27
DEBXGobB1M3SQMfgdEAPsIjBYd1ZQEaiIUBzdajBQDIKQCaJZUAC1pjBwPNEQN7WeUAPXY3B

> <OMEGA_E>
yDo2PqBwNj6AhzY+

> <OMEGA_NBR>
     43199

$$$$
50215908
  -OEChem-04172616093D

 50 53  0     1  0  0  0  0  0999 V2000
    6.9881    5.1266  -23.8931 C   0  0  0  0  0  0  0  0  0  0  0  0
    5.6104    4.8841  -23.7387 C   0  0  0  0  0  0  0  0  0  0  0  0
    7.9168    4.4533  -23.0789 C   0  0  0  0  0  0  0  0  0  0  0  0
    6.6026   -0.9129  -22.7655 C   0  0  0  0  0  0  0  0  0  0  0  0
    4.9265   -4.5562  -18.5652 C   0  0  0  0  0  0  0  0  0  0  0  0
    6.0601   -1.8945  -21.9149 C   0  0  0  0  0  0  0  0  0  0  0  0
    5.4384   -3.6781  -19.5375 C   0  0  0  0  0  0  0  0  0  0  0  0
    5.1580    3.9757  -22.7644 C   0  0  0  0  0  0  0  0  0  0  0  0
    7.4693    3.5525  -22.0969 C   0  0  0  0  0  0  0  0  0  0  0  0
    6.4229    0.4543  -22.4783 C   0  0  0  0  0  0  0  0  0  0  0  0
    3.7056   -4.2715  -17.9217 C   0  0  0  0  0  0  0  0  0  0  0  0
    5.1326   -0.1408  -20.5036 C   0  0  0  0  0  0  0  0  0  0  0  0
    3.4970   -2.2308  -19.2305 C   0  0  0  0  0  0  0  0  0  0  0  0
    5.3063   -1.5072  -20.7861 C   0  0  0  0  0  0  0  0  0  0  0  0
    4.7330   -2.4994  -19.8604 C   0  0  0  0  0  0  0  0  0  0  0  0
    6.0826    3.3190  -21.9125 C   0  0  0  0  0  0  0  0  0  0  0  0
    5.6932    0.8512  -21.3290 C   0  0  0  0  0  0  0  0  0  0  0  0
    2.9752   -3.1010  -18.2595 C   0  0  0  0  0  0  0  0  0  0  0  0
    6.3514    2.4628  -19.5477 C   0  0  0  0  0  0  0  0  0  0  0  0
    4.1656    3.0653  -19.2365 C   0  0  0  0  0  0  0  0  0  0  0  0
    5.5969    2.3072  -20.8636 C   0  0  1  0  0  0  0  0  0  0  0  0
    5.7071    3.2129  -17.2319 C   0  0  0  0  0  0  0  0  0  0  0  0
    1.2768   -3.5718  -16.6022 C   0  0  0  0  0  0  0  0  0  0  0  0
    5.4455    3.0249  -18.6651 N   0  0  0  0  0  0  0  0  0  0  0  0
    4.2072    2.6138  -20.4689 N   0  3  0  0  0  0  0  0  0  0  0  0
    3.0105    3.5008  -18.6039 N   0  0  0  0  0  0  0  0  0  0  0  0
    7.4870    2.0807  -19.2845 O   0  0  0  0  0  0  0  0  0  0  0  0
    1.7635   -2.7443  -17.6819 O   0  0  0  0  0  0  0  0  0  0  0  0
    7.3324    5.8299  -24.6368 H   0  0  0  0  0  0  0  0  0  0  0  0
    4.8991    5.3963  -24.3696 H   0  0  0  0  0  0  0  0  0  0  0  0
    8.9746    4.6286  -23.2084 H   0  0  0  0  0  0  0  0  0  0  0  0
    7.1591   -1.2094  -23.6422 H   0  0  0  0  0  0  0  0  0  0  0  0
    5.4718   -5.4530  -18.3107 H   0  0  0  0  0  0  0  0  0  0  0  0
    6.2203   -2.9416  -22.1254 H   0  0  0  0  0  0  0  0  0  0  0  0
    6.3692   -3.9055  -20.0357 H   0  0  0  0  0  0  0  0  0  0  0  0
    4.1010    3.7774  -22.6645 H   0  0  0  0  0  0  0  0  0  0  0  0
    8.1869    3.0341  -21.4783 H   0  0  0  0  0  0  0  0  0  0  0  0
    6.8419    1.2022  -23.1351 H   0  0  0  0  0  0  0  0  0  0  0  0
    3.3239   -4.9455  -17.1691 H   0  0  0  0  0  0  0  0  0  0  0  0
    4.5584    0.1526  -19.6372 H   0  0  0  0  0  0  0  0  0  0  0  0
    2.9450   -1.3425  -19.4999 H   0  0  0  0  0  0  0  0  0  0  0  0
    4.8309    3.6780  -16.7566 H   0  0  0  0  0  0  0  0  0  0  0  0
    5.9029    2.2368  -16.7639 H   0  0  0  0  0  0  0  0  0  0  0  0
    6.5838    3.8644  -17.1016 H   0  0  0  0  0  0  0  0  0  0  0  0
    0.3155   -3.1770  -16.2415 H   0  0  0  0  0  0  0  0  0  0  0  0
    1.1378   -4.6015  -16.9635 H   0  0  0  0  0  0  0  0  0  0  0  0
    2.0068   -3.5674  -15.7793 H   0  0  0  0  0  0  0  0  0  0  0  0
    3.4085    2.4941  -21.0585 H   0  0  0  0  0  0  0  0  0  0  0  0
    2.1368    3.4826  -19.0901 H   0  0  0  0  0  0  0  0  0  0  0  0
    3.0514    3.8330  -17.6615 H   0  0  0  0  0  0  0  0  0  0  0  0
  1  2  1  0  0  0  0
  1  3  2  0  0  0  0
  2  8  2  0  0  0  0
  3  9  1  0  0  0  0
  4  6  1  0  0  0  0
  4 10  2  0  0  0  0
  5  7  2  0  0  0  0
  5 11  1  0  0  0  0
  6 14  2  0  0  0  0
  7 15  1  0  0  0  0
  8 16  1  0  0  0  0
  9 16  2  0  0  0  0
 10 17  1  0  0  0  0
 11 18  2  0  0  0  0
 12 14  1  0  0  0  0
 12 17  2  0  0  0  0
 13 15  2  0  0  0  0
 13 18  1  0  0  0  0
 14 15  1  0  0  0  0
 16 21  1  0  0  0  0
 17 21  1  0  0  0  0
 18 28  1  0  0  0  0
 19 21  1  0  0  0  0
 19 24  1  0  0  0  0
 19 27  2  0  0  0  0
 20 24  1  0  0  0  0
 20 25  2  0  0  0  0
 20 26  1  0  0  0  0
 21 25  1  0  0  0  0
 22 24  1  0  0  0  0
 23 28  1  0  0  0  0
  1 29  1  0  0  0  0
  2 30  1  0  0  0  0
  3 31  1  0  0  0  0
  4 32  1  0  0  0  0
  5 33  1  0  0  0  0
  6 34  1  0  0  0  0
  7 35  1  0  0  0  0
  8 36  1  0  0  0  0
  9 37  1  0  0  0  0
 10 38  1  0  0  0  0
 11 39  1  0  0  0  0
 12 40  1  0  0  0  0
 13 41  1  0  0  0  0
 22 42  1  0  0  0  0
 22 43  1  0  0  0  0
 22 44  1  0  0  0  0
 23 45  1  0  0  0  0
 23 46  1  0  0  0  0
 23 47  1  0  0  0  0
 25 48  1  0  0  0  0
 26 49  1  0  0  0  0
 26 50  1  0  0  0  0
M  CHG  1  25   1
M  END
> <OMEGA_C>
NJ7fQCINpED4JL/BvYizQDBKnEDx6L3BQFb9QIWBjkCeobjBIUjTQGKxab+pH7bBt6WdQH3MkcCO
hZTBJuzBQMB+8r+pUa/BTQeuQNVla8DBTJzB9g2lQO5xfkBpHbbBogTvQF1bY0CNxrDBBYjNQFiZ
6D6R07PBVShtQDewiMCWX4/BFT6kQBk0EL5dB6TBNc9fQP3FDsD615nB5cypQHrswL/pSabB1nSX
QFv2H8AL4p7BcqTCQEBrVEDfTK/Bhi62QPvmWT/koarBYmo+QNF2RsCNE5LBsz7LQBKfHUCsYZzB
ZUyFQFYuREBw5JnB4xmzQFypE0C16KbBbKC2QGefTUDZ2onBv26jP76YZMA10YTBvUGuQHWYQUAe
UpXBh6GGQIBIJ0BQwKPBa6tAQNINYEC51JTBjpXvQIYqBUCpRprBw7rhP1OiL8CNdI3BraLqQM+O
ukA0GMXBb8WcQGaurED99MLByJcPQeMdlEDHqrnBUBflQP3Lmr9TI73BxBivQBp/rsA6fJLBZAzH
QOhCPMDrALHBodDLQDLzecAwSaDBqTuDQGbAcUDRULXBsv0CQWIvQkB606vBt/DaQLfimT+5FLnB
D7tUQMZBnsA8WonBad6RQDBIHD4GGZ3BC3s8QMrXq7++/5vBgZaaQNJka0CHDYbBJuS8QHMnD0CG
HIbBOa7SQKBRd0AS0IjBO4yhPlxUS8Co7oHBpqSRPyI/k8AmtYfB3m4AQPlPZMDXd3zBMyRaQGqf
H0Ded6jBvcEIQDLjXkCIuJjB7UlDQF5QdUDXSo3BxkPfQAXMo0CpDr/BIhH9QAKQjkDYgLjBOjiz
QPLSm0Be073B6BTUQB69ab+RDbbBI46eQAK0kcDpa5TBo5nCQAkS878PT6/BI8quQLNza8D6PpzB
097uQGamY0BznLDBqt+kQLSJfUCNA7bB7BHOQIrN5z5JvbPBI6huQATCiMAUVI/BCk2kQCUEHL74
DKTBx0JgQAH2D8CV+ZnBpyCqQFYqwr+NU6bBwNqXQPy4IMCA8Z7B6YjCQP4XVECoKa/BJ1O2QB79
Vz9pl6rBo1I/QBs2R8DXIpLBzSvLQCphHEC/QZzBrW2FQC36REBR3ZnBUxizQOr3EkDqzabB4GW2
QCFQTECCuYnBbHWlPyQQZcAv3YTBtCWuQFkoQEB0MZXB0JWGQHFfJkDrpKPBpbhBQKOUZEBx+JTB
oIbvQMYDBEDsJprB4ZXjP+hPMMBIhY3B4zDqQMs5ukBECcXB0nEPQZZXlEAMibnB4WKcQAMLrEA6
48LBOC/mQGk8mr9SCL3BTjuwQKkrrsCSTpLBmebHQGt6PMDsALHBOLvMQMKmecDLLaDBovICQdMa
Q0BZnavBsBaDQHVocECKOrXBjZTbQC0gmj838rjBVHBWQDA4nsBDRYnB/6SRQP2ZCz52J53BHlA8
QA+Pr7/5PZzBZEaaQDPpaUC+8IXBar28QGTpDUDJ+IXBqV7SQDg2dkDzq4jB/p6pPhnES8AD/IHB
3rqTP4SEk8CSuofBfnkBQLCWZMCAkXzBxuJZQGl0HUBnTKjB9xoKQMb9ZEC87ZjBP5xEQEv0ekDk
e43BgXvjQEc6nkA8P7/Bk/D/QB2RhkAP2LjBIB23QFtgm0D7dr3Bl+TEQAdYR79bk7jBjTecQOno
hsCIFpLBloK7QLJC6b9ThrHBbxeTQLWSScB1H5nB7RnwQLyGWEDanbDB6RWnQPT5gECIRbXB9DvB
QBDDDD9dIbXBJa3GQC7/lcAh85DBn8uoQCz3Wb4nmaPBmRbfQHBxQsAZyZ3Bk3SuQG5Cxb/c/KbB
OMa0QIdmJcAFGJ/B33PDQGYAU0Dcoq7BPpGzQDuAWT/ej6rB/FzoQCiOgsBJspbB287JQGhxGkB/
xZvBVIGEQF5rRkAvtJnBrRCyQC13EkBbZabB6fi1QNUSV0B7xYnBjjQWQZl/csB7h47BeaCrQGWl
N0CCiZTBVKaFQIigJkD3aaPBMd9BQCS2bUAFP5XBsdfuQLAHBkCfwZnBLesIQaNMkcC02JXBHK7v
QM+TskCIh8XBnP0QQeWYiEDsPrrBP0uhQA+BrUBZZsLBH/DOQD3Kfr+zqMDBDLSCQOeQlcBQjo3B
EUi+QPk0NsCLKrTBarNlQDOAMcAy6pnB/QwDQToCNEAyw6vBRviEQFAmfUAyB7TBAuPIQN9arT9t
kbrBi1bNQG+AsMBAqYvBhUmcQJqhmLvVt5vBrZz4QLv3JMAsTKLBmF2YQONbakDTqoXBCcLFQPjw
I0DyL4XBS47LQDQ7h0DtZIrBiV0mQVwth8AfXI7BSSUXQeSFL8ALM5HBtTUPQVwBdcDWdYbBvjhY
QFV0HUCLGKjBsesLQLMpc0DPfpnBsYVEQC5MgkBLyI3BKA/hQOfNnkA7i7/BkUu1QOidlEAW2r7B
rAD+QEQFjkClBLjBLNnHQPbtRL/Za7jBxNmnQNbaisARE5PBNuW8QKOY5799dbHBTbuZQDBmVcB1
KJrBWk+mQM5ddEARjbbBbTTvQJzWZkAgu6/BQHnEQNPhDz+o/7TBUOzTQIjujsB9oJDBNvaoQMQe
Qr4bv6PB+PDjQNLiJsCTWZzBKKSuQEF4wr/jCafBv2y4QOz2H8AJ8p7B1/TCQBIDVEBMva7BC+S0
QD3gXT8hm6rBVi/yQF4+ZMBS+ZTBcHjKQLZTG0B9vZvBY9+EQPKlRUCls5nBleSyQDA7E0CrZ6bB
kfK1QNo4VkC5sInBy+0aQTJAGsASt5LBYgKsQNCNN0Dog5TBvFqGQKaKJkD6cKPB5uFBQEaEa0D9
O5XB8jTvQA5vBUD4n5nBY2MOQSi4aMD/yZHBJW3sQHaBs0AO2sXBrymfQAweoUCvtMTBrdIPQYuS
lUCjmrjBKOHSQLWufb86asDBP/mQQIN1oMBOgI/BomG/QPZ2NcBNFbTBsC5wQBdjTcCn3ZvBcb2E
QLdMZEDIH7bB4NYCQeEdTECpFKrBSc3NQGVlrj9IT7rBEYXeQO1KqMCmY4vBWnybQEZ6yjww+pvB
d8f6QNXe+L/QE6DBsCmYQAHIaEBOnYXBOMXFQO3qIkD6JIXBtl3LQCL4hkD6M4rBql8rQdU9JsAA
9o/BSTsbQZJxBcDhHpvB8qATQX/Tz79Lw43BNd9ZQBJNHUB3KajB/PQLQA1hcEDvf5nBgftDQGP7
gEBFv43B

> <OMEGA_E>
gAcWPAAAAAAE5Co/fBgxPw==

> <OMEGA_NBR>
     46886

$$$$
50215525
  -OEChem-04172616093D

 47 50  0     1  0  0  0  0  0999 V2000
    6.7008   -0.9161  -22.6727 C   0  0  0  0  0  0  0  0  0  0  0  0
    4.9162   -4.5449  -18.5361 C   0  0  0  0  0  0  0  0  0  0  0  0
    6.1137   -1.8826  -21.8383 C   0  0  0  0  0  0  0  0  0  0  0  0
    5.4429   -3.6464  -19.4822 C   0  0  0  0  0  0  0  0  0  0  0  0
    6.5137    0.4571  -22.4212 C   0  0  0  0  0  0  0  0  0  0  0  0
    3.6741   -4.2858  -17.9255 C   0  0  0  0  0  0  0  0  0  0  0  0
    5.0979   -0.1028  -20.5291 C   0  0  0  0  0  0  0  0  0  0  0  0
    3.4768   -2.2270  -19.2146 C   0  0  0  0  0  0  0  0  0  0  0  0
    5.3095   -1.4791  -20.7536 C   0  0  0  0  0  0  0  0  0  0  0  0
    4.7306   -2.4728  -19.8196 C   0  0  0  0  0  0  0  0  0  0  0  0
    5.6891    0.8906  -21.3525 C   0  0  0  0  0  0  0  0  0  0  0  0
    2.9423   -3.1168  -18.2647 C   0  0  0  0  0  0  0  0  0  0  0  0
    6.3478    2.4885  -19.5918 C   0  0  0  0  0  0  0  0  0  0  0  0
    4.1588    3.0376  -19.2061 C   0  0  0  0  0  0  0  0  0  0  0  0
    7.2646    3.7336  -22.5114 C   0  0  0  0  0  0  0  0  0  0  0  0
    5.9506    3.5692  -23.3138 C   0  0  0  0  0  0  0  0  0  0  0  0
    5.9244    3.5998  -21.7840 C   0  0  0  0  0  0  0  0  0  0  0  0
    5.5615    2.3653  -20.8780 C   0  0  1  0  0  0  0  0  0  0  0  0
    5.7450    3.1286  -17.2301 C   0  0  0  0  0  0  0  0  0  0  0  0
    1.2738   -3.5573  -16.5691 C   0  0  0  0  0  0  0  0  0  0  0  0
    5.4530    2.9914  -18.6628 N   0  0  0  0  0  0  0  0  0  0  0  0
    4.1741    2.6013  -20.4459 N   0  3  0  0  0  0  0  0  0  0  0  0
    3.0212    3.4796  -18.5479 N   0  0  0  0  0  0  0  0  0  0  0  0
    7.5205    2.1771  -19.4122 O   0  0  0  0  0  0  0  0  0  0  0  0
    1.7134   -2.7848  -17.7093 O   0  0  0  0  0  0  0  0  0  0  0  0
    7.3008   -1.2292  -23.5143 H   0  0  0  0  0  0  0  0  0  0  0  0
    5.4670   -5.4371  -18.2771 H   0  0  0  0  0  0  0  0  0  0  0  0
    6.2786   -2.9329  -22.0280 H   0  0  0  0  0  0  0  0  0  0  0  0
    6.3932   -3.8537  -19.9516 H   0  0  0  0  0  0  0  0  0  0  0  0
    7.0034    1.1870  -23.0487 H   0  0  0  0  0  0  0  0  0  0  0  0
    3.2770   -4.9777  -17.1975 H   0  0  0  0  0  0  0  0  0  0  0  0
    4.4681    0.2039  -19.7072 H   0  0  0  0  0  0  0  0  0  0  0  0
    2.9202   -1.3420  -19.4858 H   0  0  0  0  0  0  0  0  0  0  0  0
    7.9952    2.9121  -22.4761 H   0  0  0  0  0  0  0  0  0  0  0  0
    7.7957    4.6969  -22.5152 H   0  0  0  0  0  0  0  0  0  0  0  0
    5.5465    4.4153  -23.8889 H   0  0  0  0  0  0  0  0  0  0  0  0
    5.7460    2.6306  -23.8498 H   0  0  0  0  0  0  0  0  0  0  0  0
    5.5544    4.5507  -21.3731 H   0  0  0  0  0  0  0  0  0  0  0  0
    4.8697    3.5520  -16.7158 H   0  0  0  0  0  0  0  0  0  0  0  0
    5.9760    2.1399  -16.8068 H   0  0  0  0  0  0  0  0  0  0  0  0
    6.6085    3.7964  -17.0943 H   0  0  0  0  0  0  0  0  0  0  0  0
    0.2926   -3.1904  -16.2333 H   0  0  0  0  0  0  0  0  0  0  0  0
    1.1912   -4.6166  -16.8538 H   0  0  0  0  0  0  0  0  0  0  0  0
    2.0033   -3.4529  -15.7524 H   0  0  0  0  0  0  0  0  0  0  0  0
    3.3633    2.4518  -21.0118 H   0  0  0  0  0  0  0  0  0  0  0  0
    2.1391    3.4791  -19.0190 H   0  0  0  0  0  0  0  0  0  0  0  0
    3.0828    3.7987  -17.6022 H   0  0  0  0  0  0  0  0  0  0  0  0
  1  3  1  0  0  0  0
  1  5  2  0  0  0  0
  2  4  2  0  0  0  0
  2  6  1  0  0  0  0
  3  9  2  0  0  0  0
  4 10  1  0  0  0  0
  5 11  1  0  0  0  0
  6 12  2  0  0  0  0
  7  9  1  0  0  0  0
  7 11  2  0  0  0  0
  8 10  2  0  0  0  0
  8 12  1  0  0  0  0
  9 10  1  0  0  0  0
 11 18  1  0  0  0  0
 12 25  1  0  0  0  0
 13 18  1  0  0  0  0
 13 21  1  0  0  0  0
 13 24  2  0  0  0  0
 14 21  1  0  0  0  0
 14 22  2  0  0  0  0
 14 23  1  0  0  0  0
 15 16  1  0  0  0  0
 15 17  1  0  0  0  0
 16 17  1  0  0  0  0
 17 18  1  0  0  0  0
 18 22  1  0  0  0  0
 19 21  1  0  0  0  0
 20 25  1  0  0  0  0
  1 26  1  0  0  0  0
  2 27  1  0  0  0  0
  3 28  1  0  0  0  0
  4 29  1  0  0  0  0
  5 30  1  0  0  0  0
  6 31  1  0  0  0  0
  7 32  1  0  0  0  0
  8 33  1  0  0  0  0
 15 34  1  0  0  0  0
 15 35  1  0  0  0  0
 16 36  1  0  0  0  0
 16 37  1  0  0  0  0
 17 38  1  0  0  0  0
 19 39  1  0  0  0  0
 19 40  1  0  0  0  0
 19 41  1  0  0  0  0
 20 42  1  0  0  0  0
 20 43  1  0  0  0  0
 20 44  1  0  0  0  0
 22 45  1  0  0  0  0
 23 46  1  0  0  0  0
 23 47  1  0  0  0  0
M  CHG  1  22   1
M  END
> <OMEGA_C>
Am3WQL+Iar+jYbXB0FGdQORvkcDgSZTBzaPDQNb48L/dtK7BaCyuQA5eacCR25vBiXDQQDsE6j6Z
XrPBuCRrQCglicBnZ4/BZyKjQIV00r2qO6TBNYNeQK+GDsBut5nBe+epQEBTvb9jB6bB6GCXQNpB
HsCOjp7BCQ22QF/+Yz/y0arBCU88QFx6R8ANHpLBlSHLQHZDH0D0u5zBEBWFQAJoQkAWppnBTHfo
QOvzbkBdF7TBO2u+QDhtZEDBgrrBhZS9QNdiZkCwRa7BpvexQNBhF0AzBqfBH9e3QJs6SEAr14nB
2AqjP2SqY8BwjYTBq36uQExzP0BlTZXBBZKFQPF7JkAgkaPB0VpBQPmwXkAlYpTBs6fwQGNWC0BC
TJvBv0/bP6c6MsC/rI3Bc6DpQP1Unb9bHbzBrPGuQKH8rcB5N5LBhurIQD+1O8BnObDBcpXMQKyi
dsDXnJ/BshvgQMrwlz/GY7jBzLlRQOxIn8BylInBqvqOQHPUUD5IqJ3BBeU6QKbHq7/f4pvB9dj/
QF5gOkAGz7PBqnb5QN1MlkAsH7TBOH2xQIJKjUCHHL/Bg9+3QKhbKEBgzL7B3L2xQKKfkUA1/KrB
b9SbQMNUY0DyuYXBbzu/QDL0CEBJdIbBpnjTQD74ckAcwYjBH9KVPugvTMC13YHB9XiYPwa7k8CA
1IbBRjUAQPD7XMDICXzBAUBXQEjqHEAeGKjBUeYIQAOqXkDXJpjBQE1FQOIdc0Bc0YzBVn2vQNi3
Vb8Ys7jBq4V0QMWRl8C+UpnB/vymQPcS7b/MPrHB2EWCQCCAb8AJBqHBPKy0QCjd/D6ZQLXBKG6K
QOUpk8Ax3I7BL5mnQEGKTr5f4aLBaQ+rQCJuHsCszJPBwRajQFhFxb8VQ6bBop+aQPt8JsC+SZ7B
3JqxQDY+Uj8QPKrBEu2iQBMBXsAi/IvBVxTKQIWhFUAlHJvBsYiFQDpFSkBfWJrBguy6QPuXc0B5
wrfBm7vLQP38lEDxZq7BJtbQQPlVSEC7J67BWQO2QHEfEUAmPabBxMOuQBqQQUCq2ojB6KbKQCeB
DcAnRn3B/4yrQHUaPEBYmZTBAN2KQITwNECwc6TBXYY/QNtWa0CkKJbBmYLtQE7U9j/ucJjBCxWy
QEnmWMAEioHBGg2yQNF2ib/PGcHBM1ZPQAlzs8CWb5vBr22jQCbkN8Dr6bPBR5xrQEtudsD6CKnB
uwm7QGu1oj80CbvB4AWEQHquq8A+/IjBIFKjQKhMMj3GiJrBpgy+QFs/zr+ouJHB+kOYQPsnbEAV
/LjB/yPLQGK6dUDKkL/BdPXnQAqKqUAaha/BbxW1QNbApEBm8KjBU27xQCSnMED5qa/B5IeSQAz6
YkAnqoXBB1CwQKWqAEAXd4XBK9zLQPUbZUB3qobBInvUQJodEsDZaWzBzjznQBRECcClvoPB79m2
QHIAqL/0hn/BnltpQC4KPEAQJqrBEtsMQP5EdECz6prB0N87QPwvekDzY47B

> <OMEGA_E>
kDNhPqTAQj8=

> <OMEGA_NBR>
     48789

$$$$
50215762
  -OEChem-04172616093D

 46 49  0     1  0  0  0  0  0999 V2000
    3.6846   -4.3773  -17.9152 C   0  0  0  0  0  0  0  0  0  0  0  0
    6.9611    5.1788  -23.8653 C   0  0  0  0  0  0  0  0  0  0  0  0
    2.9555   -3.2069  -18.2008 C   0  0  0  0  0  0  0  0  0  0  0  0
    4.8991   -4.6307  -18.5821 C   0  0  0  0  0  0  0  0  0  0  0  0
    5.5883    4.9037  -23.7248 C   0  0  0  0  0  0  0  0  0  0  0  0
    7.8986    4.5064  -23.0604 C   0  0  0  0  0  0  0  0  0  0  0  0
    6.5952   -0.9492  -22.7019 C   0  0  0  0  0  0  0  0  0  0  0  0
    3.4494   -2.2814  -19.1421 C   0  0  0  0  0  0  0  0  0  0  0  0
    5.3898   -3.7137  -19.5312 C   0  0  0  0  0  0  0  0  0  0  0  0
    6.0090   -1.9171  -21.8649 C   0  0  0  0  0  0  0  0  0  0  0  0
    5.1492    3.9654  -22.7720 C   0  0  0  0  0  0  0  0  0  0  0  0
    7.4642    3.5744  -22.1006 C   0  0  0  0  0  0  0  0  0  0  0  0
    6.4405    0.4205  -22.4207 C   0  0  0  0  0  0  0  0  0  0  0  0
    5.0824   -0.1462  -20.4754 C   0  0  0  0  0  0  0  0  0  0  0  0
    4.6759   -2.5247  -19.8111 C   0  0  0  0  0  0  0  0  0  0  0  0
    5.2423   -1.5205  -20.7451 C   0  0  0  0  0  0  0  0  0  0  0  0
    6.0811    3.3109  -21.9252 C   0  0  0  0  0  0  0  0  0  0  0  0
    5.6832    0.8354  -21.2979 C   0  0  0  0  0  0  0  0  0  0  0  0
    6.3640    2.4814  -19.5535 C   0  0  0  0  0  0  0  0  0  0  0  0
    4.1851    3.1041  -19.2480 C   0  0  0  0  0  0  0  0  0  0  0  0
    5.6029    2.3035  -20.8614 C   0  0  1  0  0  0  0  0  0  0  0  0
    5.7211    3.2365  -17.2421 C   0  0  0  0  0  0  0  0  0  0  0  0
    5.4667    3.0699  -18.6793 N   0  0  0  0  0  0  0  0  0  0  0  0
    4.2183    2.6209  -20.4675 N   0  3  0  0  0  0  0  0  0  0  0  0
    3.0325    3.5584  -18.6254 N   0  0  0  0  0  0  0  0  0  0  0  0
    7.5003    2.1016  -19.2898 O   0  0  0  0  0  0  0  0  0  0  0  0
    3.3126   -5.0806  -17.1848 H   0  0  0  0  0  0  0  0  0  0  0  0
    7.2950    5.9058  -24.5908 H   0  0  0  0  0  0  0  0  0  0  0  0
    2.0181   -3.0185  -17.6986 H   0  0  0  0  0  0  0  0  0  0  0  0
    5.4553   -5.5307  -18.3649 H   0  0  0  0  0  0  0  0  0  0  0  0
    4.8699    5.4137  -24.3495 H   0  0  0  0  0  0  0  0  0  0  0  0
    8.9532    4.7060  -23.1795 H   0  0  0  0  0  0  0  0  0  0  0  0
    7.1666   -1.2596  -23.5642 H   0  0  0  0  0  0  0  0  0  0  0  0
    2.8906   -1.3820  -19.3550 H   0  0  0  0  0  0  0  0  0  0  0  0
    6.3156   -3.9190  -20.0481 H   0  0  0  0  0  0  0  0  0  0  0  0
    6.1454   -2.9669  -22.0788 H   0  0  0  0  0  0  0  0  0  0  0  0
    4.0961    3.7421  -22.6848 H   0  0  0  0  0  0  0  0  0  0  0  0
    8.1897    3.0549  -21.4920 H   0  0  0  0  0  0  0  0  0  0  0  0
    6.9002    1.1574  -23.0626 H   0  0  0  0  0  0  0  0  0  0  0  0
    4.4910    0.1626  -19.6261 H   0  0  0  0  0  0  0  0  0  0  0  0
    4.8578    3.7295  -16.7712 H   0  0  0  0  0  0  0  0  0  0  0  0
    5.8765    2.2501  -16.7807 H   0  0  0  0  0  0  0  0  0  0  0  0
    6.6196    3.8544  -17.0981 H   0  0  0  0  0  0  0  0  0  0  0  0
    3.4158    2.4867  -21.0489 H   0  0  0  0  0  0  0  0  0  0  0  0
    2.1579    3.5289  -19.1094 H   0  0  0  0  0  0  0  0  0  0  0  0
    3.0758    3.9155  -17.6923 H   0  0  0  0  0  0  0  0  0  0  0  0
  1  3  1  0  0  0  0
  1  4  2  0  0  0  0
  2  5  1  0  0  0  0
  2  6  2  0  0  0  0
  3  8  2  0  0  0  0
  4  9  1  0  0  0  0
  5 11  2  0  0  0  0
  6 12  1  0  0  0  0
  7 10  1  0  0  0  0
  7 13  2  0  0  0  0
  8 15  1  0  0  0  0
  9 15  2  0  0  0  0
 10 16  2  0  0  0  0
 11 17  1  0  0  0  0
 12 17  2  0  0  0  0
 13 18  1  0  0  0  0
 14 16  1  0  0  0  0
 14 18  2  0  0  0  0
 15 16  1  0  0  0  0
 17 21  1  0  0  0  0
 18 21  1  0  0  0  0
 19 21  1  0  0  0  0
 19 23  1  0  0  0  0
 19 26  2  0  0  0  0
 20 23  1  0  0  0  0
 20 24  2  0  0  0  0
 20 25  1  0  0  0  0
 21 24  1  0  0  0  0
 22 23  1  0  0  0  0
  1 27  1  0  0  0  0
  2 28  1  0  0  0  0
  3 29  1  0  0  0  0
  4 30  1  0  0  0  0
  5 31  1  0  0  0  0
  6 32  1  0  0  0  0
  7 33  1  0  0  0  0
  8 34  1  0  0  0  0
  9 35  1  0  0  0  0
 10 36  1  0  0  0  0
 11 37  1  0  0  0  0
 12 38  1  0  0  0  0
 13 39  1  0  0  0  0
 14 40  1  0  0  0  0
 22 41  1  0  0  0  0
 22 42  1  0  0  0  0
 22 43  1  0  0  0  0
 24 44  1  0  0  0  0
 25 45  1  0  0  0  0
 25 46  1  0  0  0  0
M  CHG  1  24   1
M  END
> <OMEGA_C>
IdFrQCITjMA7Uo/BqsHeQHu4pUAh7L7Bric9QFU+TcArm5HBh8WcQPkulMAcqJTB/NKyQP7qnEBw
zL3BE8H8QCo0kECge7jB5AvTQMABc79rnbXBTsJcQHQCEsDvIpnBiXmsQK+tbcD2P5zBr0nAQNdi
9b9B667BE8akQInJfUAWLbbBINvuQK3CZED2zbDBaBjOQK9K1z6dXbPBLqOiQCq5Fb6FzaPB96CV
QEeUIcAmfZ7BvcCnQAKgwr8D9qXBpZjCQJXmU0C6Zq/B8ty1QPzdVT8GYqrB7KXLQMjOHkCObZzB
UeyFQD6pRkD/+5nB2UqzQG9sE0Ab5KbB4RK3QIwiT0Dm74nBle+uQJZ5REBOb5XBXPyGQCe9J0B5
vaPBkxRCQLu8Y0DJAJXBgALwQJyABkCVUZrBRgJUQFmUosB1eonBQHDpQI/8vED1ucTBECkBQJsv
QcDClo3B/5GuQCT7sMBQ65LBLtabQM08rUDcy8LBgUAPQaeXlkCcb7nBuVTlQDk7ob9ug7zBMQA5
QPblsL8G15rBxBnKQG7QesCBYqDBBqfEQPPgPcBjobDBixODQPt9b0BverXB2QgDQfKDQ0Ch76vB
aM7cQBEnlD8cgLjBrLaPQEOCJj4nAp3BRHObQA2wbkB0K4bBiAy8QCACEEDbPobB49PTQMiudkDq
yIjBNp1aQMklH0AzZKjBfRsKQAjaYUD/35jBZtpEQLSXekDjiY3B

> <OMEGA_E>
wDA4Pg==

> <OMEGA_NBR>
     49862

$$$$
50215905
  -OEChem-04172616093D

 50 53  0     1  0  0  0  0  0999 V2000
    7.2469    4.7206  -23.9254 C   0  0  0  0  0  0  0  0  0  0  0  0
    5.8623    4.7345  -23.6689 C   0  0  0  0  0  0  0  0  0  0  0  0
    8.1042    3.9168  -23.1510 C   0  0  0  0  0  0  0  0  0  0  0  0
    4.7131   -0.6515  -23.0644 C   0  0  0  0  0  0  0  0  0  0  0  0
    5.4965   -1.6915  -22.5376 C   0  0  0  0  0  0  0  0  0  0  0  0
    6.9032   -2.6916  -19.3693 C   0  0  0  0  0  0  0  0  0  0  0  0
    8.0132   -3.2256  -21.4794 C   0  0  0  0  0  0  0  0  0  0  0  0
    5.3350    3.9681  -22.6189 C   0  0  0  0  0  0  0  0  0  0  0  0
    7.5766    3.1245  -22.1213 C   0  0  0  0  0  0  0  0  0  0  0  0
    4.7335    0.6159  -22.4550 C   0  0  0  0  0  0  0  0  0  0  0  0
    7.7837   -3.5252  -18.6829 C   0  0  0  0  0  0  0  0  0  0  0  0
    8.9103   -4.0593  -20.7859 C   0  0  0  0  0  0  0  0  0  0  0  0
    6.2918   -0.1903  -20.7745 C   0  0  0  0  0  0  0  0  0  0  0  0
    7.0375   -2.5129  -20.7559 C   0  0  0  0  0  0  0  0  0  0  0  0
    6.2622   -1.4591  -21.3790 C   0  0  0  0  0  0  0  0  0  0  0  0
    6.1949    3.1744  -21.8196 C   0  0  0  0  0  0  0  0  0  0  0  0
    5.5474    0.8605  -21.3183 C   0  0  0  0  0  0  0  0  0  0  0  0
    8.8224   -4.1912  -19.3807 C   0  0  0  0  0  0  0  0  0  0  0  0
    6.3690    2.4425  -19.4031 C   0  0  0  0  0  0  0  0  0  0  0  0
    4.1627    2.8889  -19.1325 C   0  0  0  0  0  0  0  0  0  0  0  0
    5.6312    2.2654  -20.7442 C   0  0  1  0  0  0  0  0  0  0  0  0
    5.6339    2.9143  -17.0621 C   0  0  0  0  0  0  0  0  0  0  0  0
    9.6827   -5.0486  -17.2917 C   0  0  0  0  0  0  0  0  0  0  0  0
    5.3635    2.5743  -18.4660 N   0  0  0  0  0  0  0  0  0  0  0  0
    4.2620    2.6082  -20.4010 N   0  3  0  0  0  0  0  0  0  0  0  0
    3.0106    3.4582  -18.6258 N   0  0  0  0  0  0  0  0  0  0  0  0
    7.5534    2.6914  -19.1933 O   0  0  0  0  0  0  0  0  0  0  0  0
    9.7823   -4.9535  -18.7355 O   0  0  0  0  0  0  0  0  0  0  0  0
    7.6527    5.3295  -24.7198 H   0  0  0  0  0  0  0  0  0  0  0  0
    5.2061    5.3355  -24.2808 H   0  0  0  0  0  0  0  0  0  0  0  0
    9.1658    3.9102  -23.3493 H   0  0  0  0  0  0  0  0  0  0  0  0
    4.0970   -0.8245  -23.9344 H   0  0  0  0  0  0  0  0  0  0  0  0
    5.5114   -2.6596  -23.0162 H   0  0  0  0  0  0  0  0  0  0  0  0
    6.1158   -2.1818  -18.8340 H   0  0  0  0  0  0  0  0  0  0  0  0
    8.0723   -3.1336  -22.5539 H   0  0  0  0  0  0  0  0  0  0  0  0
    4.2736    3.9830  -22.4197 H   0  0  0  0  0  0  0  0  0  0  0  0
    8.2274    2.4736  -21.5562 H   0  0  0  0  0  0  0  0  0  0  0  0
    4.1234    1.4116  -22.8564 H   0  0  0  0  0  0  0  0  0  0  0  0
    7.6747   -3.6641  -17.6175 H   0  0  0  0  0  0  0  0  0  0  0  0
    9.6700   -4.6011  -21.3297 H   0  0  0  0  0  0  0  0  0  0  0  0
    6.8897   -0.0273  -19.8899 H   0  0  0  0  0  0  0  0  0  0  0  0
    4.6854    2.9640  -16.5071 H   0  0  0  0  0  0  0  0  0  0  0  0
    6.2796    2.1435  -16.6161 H   0  0  0  0  0  0  0  0  0  0  0  0
    6.1394    3.8900  -17.0120 H   0  0  0  0  0  0  0  0  0  0  0  0
   10.4992   -5.6780  -16.9080 H   0  0  0  0  0  0  0  0  0  0  0  0
    9.7574   -4.0430  -16.8521 H   0  0  0  0  0  0  0  0  0  0  0  0
    8.7156   -5.4967  -17.0198 H   0  0  0  0  0  0  0  0  0  0  0  0
    3.5005    2.6264  -21.0490 H   0  0  0  0  0  0  0  0  0  0  0  0
    2.2426    3.6589  -19.2341 H   0  0  0  0  0  0  0  0  0  0  0  0
    2.9445    3.6698  -17.6507 H   0  0  0  0  0  0  0  0  0  0  0  0
  1  2  1  0  0  0  0
  1  3  2  0  0  0  0
  2  8  2  0  0  0  0
  3  9  1  0  0  0  0
  4  5  1  0  0  0  0
  4 10  2  0  0  0  0
  5 15  2  0  0  0  0
  6 11  2  0  0  0  0
  6 14  1  0  0  0  0
  7 12  1  0  0  0  0
  7 14  2  0  0  0  0
  8 16  1  0  0  0  0
  9 16  2  0  0  0  0
 10 17  1  0  0  0  0
 11 18  1  0  0  0  0
 12 18  2  0  0  0  0
 13 15  1  0  0  0  0
 13 17  2  0  0  0  0
 14 15  1  0  0  0  0
 16 21  1  0  0  0  0
 17 21  1  0  0  0  0
 18 28  1  0  0  0  0
 19 21  1  0  0  0  0
 19 24  1  0  0  0  0
 19 27  2  0  0  0  0
 20 24  1  0  0  0  0
 20 25  2  0  0  0  0
 20 26  1  0  0  0  0
 21 25  1  0  0  0  0
 22 24  1  0  0  0  0
 23 28  1  0  0  0  0
  1 29  1  0  0  0  0
  2 30  1  0  0  0  0
  3 31  1  0  0  0  0
  4 32  1  0  0  0  0
  5 33  1  0  0  0  0
  6 34  1  0  0  0  0
  7 35  1  0  0  0  0
  8 36  1  0  0  0  0
  9 37  1  0  0  0  0
 10 38  1  0  0  0  0
 11 39  1  0  0  0  0
 12 40  1  0  0  0  0
 13 41  1  0  0  0  0
 22 42  1  0  0  0  0
 22 43  1  0  0  0  0
 22 44  1  0  0  0  0
 23 45  1  0  0  0  0
 23 46  1  0  0  0  0
 23 47  1  0  0  0  0
 25 48  1  0  0  0  0
 26 49  1  0  0  0  0
 26 50  1  0  0  0  0
M  CHG  1  25   1
M  END
> <OMEGA_C>
fubnQIUPl0A5Z7/BUJi7QCiBl0DZWb3BoaoBQUWtekBENbnBWNGWQO3IJr/Mg7jBNOOvQHCE2L/4
TLTByObcQOlCLMA89JrBCDYAQQZxTsDb1avBCLiqQOz1fUCO87TB1HPyQLr3R0Bi+LDBJHmXQFeu
HT/go7PBSBT5QL6cYcCfdpXByZAOQbrlgcBySabB0FbJQFzYQr4eMqbBDDPhQIvTIMAsDKbBPGTI
QIDDur88CKvBrDzGQCUpS0CSjq7BBISxQFdLXD/si6rBgygNQS4ehsCUC5vBBM/LQHtSHECmOZvB
jDSFQI/jOEBxD5nBaDK0QBz8EEAu9KXB4Ei0QOiDOkAgf4jBUuwaQSaOocByVYrBMKKrQB/BJEB0
upPB7GGIQG/tJkBWNaPBSK1AQLZTXUCeAZXBFLXxQGNALED6i5nBZIQcQSiDnsBb4pXBhOL0QO+K
qkAxwsXBUZimQMm8qkAnP8LB/aYSQUtBekB3y7rBqRqDQEQSU7+feb/BLF2wQDQ2KsBHIbjBjrTD
QJmiC8Duq5bBISgBQdKMSMBSbrTBVsGIQHzpfkCRW7PBb6MDQRVQHkAjc6zBKfODQPKutD/u2bbB
G5f1QGyBasCQ8IzBNrgaQW48k8BGo6rBiHjcQDD937yVHp/BNO+VQAKyPUCRDoTBc/LIQAwvCUCu
7YTB/HXEQIL1eECgGIjBmPwnQf+xtcCLQ4fBYB4cQXpggcAt0YbBMnMLQSrlr8B7KIjBbwhgQJsW
KEBoZKjBc4cPQMUqakBp35nB0nI8QFndakCJNI3BcCrpQJ8Al0BiE7/Bh1oBQQuGcECi4bnBHPC9
QBtZnEAsKbzBkMGYQBfsLb83b7jBJPmxQLr62b+W+7PBbl7+QPPSVMD0WqvBGJLjQL2IIcD2JprB
yg3xQPgAPkDLu7HBsEGsQJ12g0A47rPBFEWYQK0lGD9oqbPBd2sNQVvGhcA+7KXBpsv/QLtpV8C8
xpTB4FLJQJw5Mr5O5qXBNFPjQOuFHsB2aKXB7JLJQJaVub+SlKrBiAPGQIAHSkAJka7BgFqxQJlG
Wz9ic6rBRBgOQfM2hsBHm5rBoKfLQIMWHUAvYZvB9BmFQB6HOUCUEpnBQJKzQNfQEECc+qXBuPK0
QOuYPECSn4jB0GAeQbGXncCbDYrBwNGrQD4aJkBYzpPBHM2HQMhBJkBeMqPBaMxAQDJjXkCG/ZTB
YM3xQIgvLEBM8JnBAb0cQTzfoMCMnZXB6sX2QNqXqkDxU8XBTOQRQQ5PaEBjKrzBS2OqQICis0Ck
RMDBrNGFQEvyXr9nf7/BEkGzQE8zK8AIvLfBVkX9QMh4VMCm/bPBLrvNQN+c87//qJXBvi4CQafD
DUDs3K3BlB6LQDiHh0CAsrHBu6mEQOJKsD9aCbfBqeMXQdOOmsBFbKrBLgQAQbXFWMBgI4zBMMTb
QK3tLzxpvp7BYcmWQFokQECyG4TB+7vJQNt2C0CtDoXBvCvFQP4He0DGVIjBZHsqQUZPtMCbIIfB
oxcjQdStecCa2ofBWMwOQc8ipcCFa4bB62leQG1BJkCaUKjBYDEPQLaEakD3z5nBskE9QMDxbEBt
No3BiWvgQHYkm0D7O8DBBXe0QCrjkkCV777BdAn+QCirikD907jBB++4QChEKb+DtrnBQC+zQKwT
4L/O8bLBLMn6QMo+M8DCQajB/j3MQEzHSMBJwpjBAQWmQKzVdEDGMrbBl8/vQH6sY0AuI7DBTka8
QNCNHz8odLXBV4YNQTyzY8BLjKPBg+3sQPy1esB6B5TB4TC1QBC6i76TZKPBFczTQNJpI8DB06LB
mH23QLSzyb9/16fBZorDQOGtU0BHnK7BAt23QIovWj8iT6rBVoYKQeKFgsAJMpnBlsDLQBAjIUCf
ipvBiqmFQHYTSEDKwZnBd4q0QGrHEkBVFabBzKK2QL5jZEBzBYrB9ugvQdlxgsBmvpTBBaauQEak
TEAxNJXByK+HQAwAI0C7KaPBRBFAQPQnZUDgH5XBnGfwQAqhDEAEJpnB6g4bQbX6lsCe5pPBsmnr
QD0drkCp6cbBS8KdQFFan0DWp8TB4uEPQcgXkUBw0LnBwM66QL9hT7/yQcLBNHurQO00LsBhMbbB
+4v/QOJMGcAYLbDByQyuQNuBP8Cst5TBHTyEQG1jaEAcQbXBs2YDQd59SUAelKrBQlLCQO+Suj82
urrBj0EcQRimb8Bmz6fB2kvnQBmkjMDBaIzBZnaxQD0HDb4k35rBlJeaQM8ng0COz4bBLnq8QD5F
KkBcRoXBUtbSQMcwh0BMmInBsdE7QZ42lcB6RpDBIKc0QTmlgMDNNJ3B+gEvQa/oQ8BaY5HBeclc
QIX1E0BJsKfB1nQIQLJeXkD+/ZjBBG5BQMVzgEDl6o3B

> <OMEGA_E>
0J93P+jEdz+KClY/

> <OMEGA_NBR>
     52699

$$$$
50216006
  -OEChem-04172616093D

 50 53  0     1  0  0  0  0  0999 V2000
    6.9881    5.1266  -23.8931 C   0  0  0  0  0  0  0  0  0  0  0  0
    5.6104    4.8841  -23.7387 C   0  0  0  0  0  0  0  0  0  0  0  0
    7.9168    4.4533  -23.0789 C   0  0  0  0  0  0  0  0  0  0  0  0
    6.6026   -0.9129  -22.7655 C   0  0  0  0  0  0  0  0  0  0  0  0
    4.9265   -4.5562  -18.5652 C   0  0  0  0  0  0  0  0  0  0  0  0
    6.0601   -1.8945  -21.9149 C   0  0  0  0  0  0  0  0  0  0  0  0
    5.4384   -3.6781  -19.5375 C   0  0  0  0  0  0  0  0  0  0  0  0
    5.1580    3.9757  -22.7644 C   0  0  0  0  0  0  0  0  0  0  0  0
    7.4693    3.5525  -22.0969 C   0  0  0  0  0  0  0  0  0  0  0  0
    6.4229    0.4543  -22.4783 C   0  0  0  0  0  0  0  0  0  0  0  0
    3.7056   -4.2715  -17.9217 C   0  0  0  0  0  0  0  0  0  0  0  0
    5.1326   -0.1408  -20.5036 C   0  0  0  0  0  0  0  0  0  0  0  0
    3.4970   -2.2308  -19.2305 C   0  0  0  0  0  0  0  0  0  0  0  0
    5.3063   -1.5072  -20.7861 C   0  0  0  0  0  0  0  0  0  0  0  0
    4.7330   -2.4994  -19.8604 C   0  0  0  0  0  0  0  0  0  0  0  0
    6.0826    3.3190  -21.9125 C   0  0  0  0  0  0  0  0  0  0  0  0
    5.6932    0.8512  -21.3290 C   0  0  0  0  0  0  0  0  0  0  0  0
    2.9752   -3.1010  -18.2595 C   0  0  0  0  0  0  0  0  0  0  0  0
    6.3514    2.4628  -19.5477 C   0  0  0  0  0  0  0  0  0  0  0  0
    4.1656    3.0653  -19.2365 C   0  0  0  0  0  0  0  0  0  0  0  0
    5.5969    2.3072  -20.8636 C   0  0  1  0  0  0  0  0  0  0  0  0
    5.7071    3.2129  -17.2319 C   0  0  0  0  0  0  0  0  0  0  0  0
    1.2768   -3.5718  -16.6022 C   0  0  0  0  0  0  0  0  0  0  0  0
    5.4455    3.0249  -18.6651 N   0  0  0  0  0  0  0  0  0  0  0  0
    4.2072    2.6138  -20.4689 N   0  3  0  0  0  0  0  0  0  0  0  0
    3.0105    3.5008  -18.6039 N   0  0  0  0  0  0  0  0  0  0  0  0
    7.4870    2.0807  -19.2845 O   0  0  0  0  0  0  0  0  0  0  0  0
    1.7635   -2.7443  -17.6819 O   0  0  0  0  0  0  0  0  0  0  0  0
    7.3324    5.8299  -24.6368 H   0  0  0  0  0  0  0  0  0  0  0  0
    4.8991    5.3963  -24.3696 H   0  0  0  0  0  0  0  0  0  0  0  0
    8.9746    4.6286  -23.2084 H   0  0  0  0  0  0  0  0  0  0  0  0
    7.1591   -1.2094  -23.6422 H   0  0  0  0  0  0  0  0  0  0  0  0
    5.4718   -5.4530  -18.3107 H   0  0  0  0  0  0  0  0  0  0  0  0
    6.2203   -2.9416  -22.1254 H   0  0  0  0  0  0  0  0  0  0  0  0
    6.3692   -3.9055  -20.0357 H   0  0  0  0  0  0  0  0  0  0  0  0
    4.1010    3.7774  -22.6645 H   0  0  0  0  0  0  0  0  0  0  0  0
    8.1869    3.0341  -21.4783 H   0  0  0  0  0  0  0  0  0  0  0  0
    6.8419    1.2022  -23.1351 H   0  0  0  0  0  0  0  0  0  0  0  0
    3.3239   -4.9455  -17.1691 H   0  0  0  0  0  0  0  0  0  0  0  0
    4.5584    0.1526  -19.6372 H   0  0  0  0  0  0  0  0  0  0  0  0
    2.9450   -1.3425  -19.4999 H   0  0  0  0  0  0  0  0  0  0  0  0
    4.8309    3.6780  -16.7566 H   0  0  0  0  0  0  0  0  0  0  0  0
    5.9029    2.2368  -16.7639 H   0  0  0  0  0  0  0  0  0  0  0  0
    6.5838    3.8644  -17.1016 H   0  0  0  0  0  0  0  0  0  0  0  0
    0.3155   -3.1770  -16.2415 H   0  0  0  0  0  0  0  0  0  0  0  0
    1.1378   -4.6015  -16.9635 H   0  0  0  0  0  0  0  0  0  0  0  0
    2.0068   -3.5674  -15.7793 H   0  0  0  0  0  0  0  0  0  0  0  0
    3.4085    2.4941  -21.0585 H   0  0  0  0  0  0  0  0  0  0  0  0
    2.1368    3.4826  -19.0901 H   0  0  0  0  0  0  0  0  0  0  0  0
    3.0514    3.8330  -17.6615 H   0  0  0  0  0  0  0  0  0  0  0  0
  1  2  1  0  0  0  0
  1  3  2  0  0  0  0
  2  8  2  0  0  0  0
  3  9  1  0  0  0  0
  4  6  1  0  0  0  0
  4 10  2  0  0  0  0
  5  7  2  0  0  0  0
  5 11  1  0  0  0  0
  6 14  2  0  0  0  0
  7 15  1  0  0  0  0
  8 16  1  0  0  0  0
  9 16  2  0  0  0  0
 10 17  1  0  0  0  0
 11 18  2  0  0  0  0
 12 14  1  0  0  0  0
 12 17  2  0  0  0  0
 13 15  2  0  0  0  0
 13 18  1  0  0  0  0
 14 15  1  0  0  0  0
 16 21  1  0  0  0  0
 17 21  1  0  0  0  0
 18 28  1  0  0  0  0
 19 21  1  0  0  0  0
 19 24  1  0  0  0  0
 19 27  2  0  0  0  0
 20 24  1  0  0  0  0
 20 25  2  0  0  0  0
 20 26  1  0  0  0  0
 21 25  1  0  0  0  0
 22 24  1  0  0  0  0
 23 28  1  0  0  0  0
  1 29  1  0  0  0  0
  2 30  1  0  0  0  0
  3 31  1  0  0  0  0
  4 32  1  0  0  0  0
  5 33  1  0  0  0  0
  6 34  1  0  0  0  0
  7 35  1  0  0  0  0
  8 36  1  0  0  0  0
  9 37  1  0  0  0  0
 10 38  1  0  0  0  0
 11 39  1  0  0  0  0
 12 40  1  0  0  0  0
 13 41  1  0  0  0  0
 22 42  1  0  0  0  0
 22 43  1  0  0  0  0
 22 44  1  0  0  0  0
 23 45  1  0  0  0  0
 23 46  1  0  0  0  0
 23 47  1  0  0  0  0
 25 48  1  0  0  0  0
 26 49  1  0  0  0  0
 26 50  1  0  0  0  0
M  CHG  1  25   1
M  END
> <OMEGA_C>
NJ7fQCINpED4JL/BvYizQDBKnEDx6L3BQFb9QIWBjkCeobjBIUjTQGKxab+pH7bBt6WdQH3MkcCO
hZTBJuzBQMB+8r+pUa/BTQeuQNVla8DBTJzB9g2lQO5xfkBpHbbBogTvQF1bY0CNxrDBBYjNQFiZ
6D6R07PBVShtQDewiMCWX4/BFT6kQBk0EL5dB6TBNc9fQP3FDsD615nB5cypQHrswL/pSabB1nSX
QFv2H8AL4p7BcqTCQEBrVEDfTK/Bhi62QPvmWT/koarBYmo+QNF2RsCNE5LBsz7LQBKfHUCsYZzB
ZUyFQFYuREBw5JnB4xmzQFypE0C16KbBbKC2QGefTUDZ2onBv26jP76YZMA10YTBvUGuQHWYQUAe
UpXBh6GGQIBIJ0BQwKPBa6tAQNINYEC51JTBjpXvQIYqBUCpRprBw7rhP1OiL8CNdI3BraLqQM+O
ukA0GMXBb8WcQGaurED99MLByJcPQeMdlEDHqrnBUBflQP3Lmr9TI73BxBivQBp/rsA6fJLBZAzH
QOhCPMDrALHBodDLQDLzecAwSaDBqTuDQGbAcUDRULXBsv0CQWIvQkB606vBt/DaQLfimT+5FLnB
D7tUQMZBnsA8WonBad6RQDBIHD4GGZ3BC3s8QMrXq7++/5vBgZaaQNJka0CHDYbBJuS8QHMnD0CG
HIbBOa7SQKBRd0AS0IjBO4yhPlxUS8Co7oHBpqSRPyI/k8AmtYfB3m4AQPlPZMDXd3zBMyRaQGqf
H0Ded6jBvcEIQDLjXkCIuJjB7UlDQF5QdUDXSo3BxkPfQAXMo0CpDr/BIhH9QAKQjkDYgLjBOjiz
QPLSm0Be073B6BTUQB69ab+RDbbBI46eQAK0kcDpa5TBo5nCQAkS878PT6/BI8quQLNza8D6PpzB
097uQGamY0BznLDBqt+kQLSJfUCNA7bB7BHOQIrN5z5JvbPBI6huQATCiMAUVI/BCk2kQCUEHL74
DKTBx0JgQAH2D8CV+ZnBpyCqQFYqwr+NU6bBwNqXQPy4IMCA8Z7B6YjCQP4XVECoKa/BJ1O2QB79
Vz9pl6rBo1I/QBs2R8DXIpLBzSvLQCphHEC/QZzBrW2FQC36REBR3ZnBUxizQOr3EkDqzabB4GW2
QCFQTECCuYnBbHWlPyQQZcAv3YTBtCWuQFkoQEB0MZXB0JWGQHFfJkDrpKPBpbhBQKOUZEBx+JTB
oIbvQMYDBEDsJprB4ZXjP+hPMMBIhY3B4zDqQMs5ukBECcXB0nEPQZZXlEAMibnB4WKcQAMLrEA6
48LBOC/mQGk8mr9SCL3BTjuwQKkrrsCSTpLBmebHQGt6PMDsALHBOLvMQMKmecDLLaDBovICQdMa
Q0BZnavBsBaDQHVocECKOrXBjZTbQC0gmj838rjBVHBWQDA4nsBDRYnB/6SRQP2ZCz52J53BHlA8
QA+Pr7/5PZzBZEaaQDPpaUC+8IXBar28QGTpDUDJ+IXBqV7SQDg2dkDzq4jB/p6pPhnES8AD/IHB
3rqTP4SEk8CSuofBfnkBQLCWZMCAkXzBxuJZQGl0HUBnTKjB9xoKQMb9ZEC87ZjBP5xEQEv0ekDk
e43BgXvjQEc6nkA8P7/Bk/D/QB2RhkAP2LjBIB23QFtgm0D7dr3Bl+TEQAdYR79bk7jBjTecQOno
hsCIFpLBloK7QLJC6b9ThrHBbxeTQLWSScB1H5nB7RnwQLyGWEDanbDB6RWnQPT5gECIRbXB9DvB
QBDDDD9dIbXBJa3GQC7/lcAh85DBn8uoQCz3Wb4nmaPBmRbfQHBxQsAZyZ3Bk3SuQG5Cxb/c/KbB
OMa0QIdmJcAFGJ/B33PDQGYAU0Dcoq7BPpGzQDuAWT/ej6rB/FzoQCiOgsBJspbB287JQGhxGkB/
xZvBVIGEQF5rRkAvtJnBrRCyQC13EkBbZabB6fi1QNUSV0B7xYnBjjQWQZl/csB7h47BeaCrQGWl
N0CCiZTBVKaFQIigJkD3aaPBMd9BQCS2bUAFP5XBsdfuQLAHBkCfwZnBLesIQaNMkcC02JXBHK7v
QM+TskCIh8XBnP0QQeWYiEDsPrrBP0uhQA+BrUBZZsLBH/DOQD3Kfr+zqMDBDLSCQOeQlcBQjo3B
EUi+QPk0NsCLKrTBarNlQDOAMcAy6pnB/QwDQToCNEAyw6vBRviEQFAmfUAyB7TBAuPIQN9arT9t
kbrBi1bNQG+AsMBAqYvBhUmcQJqhmLvVt5vBrZz4QLv3JMAsTKLBmF2YQONbakDTqoXBCcLFQPjw
I0DyL4XBS47LQDQ7h0DtZIrBiV0mQVwth8AfXI7BSSUXQeSFL8ALM5HBtTUPQVwBdcDWdYbBvjhY
QFV0HUCLGKjBsesLQLMpc0DPfpnBsYVEQC5MgkBLyI3BKA/hQOfNnkA7i7/BkUu1QOidlEAW2r7B
rAD+QEQFjkClBLjBLNnHQPbtRL/Za7jBxNmnQNbaisARE5PBNuW8QKOY5799dbHBTbuZQDBmVcB1
KJrBWk+mQM5ddEARjbbBbTTvQJzWZkAgu6/BQHnEQNPhDz+o/7TBUOzTQIjujsB9oJDBNvaoQMQe
Qr4bv6PB+PDjQNLiJsCTWZzBKKSuQEF4wr/jCafBv2y4QOz2H8AJ8p7B1/TCQBIDVEBMva7BC+S0
QD3gXT8hm6rBVi/yQF4+ZMBS+ZTBcHjKQLZTG0B9vZvBY9+EQPKlRUCls5nBleSyQDA7E0CrZ6bB
kfK1QNo4VkC5sInBy+0aQTJAGsASt5LBYgKsQNCNN0Dog5TBvFqGQKaKJkD6cKPB5uFBQEaEa0D9
O5XB8jTvQA5vBUD4n5nBY2MOQSi4aMD/yZHBJW3sQHaBs0AO2sXBrymfQAweoUCvtMTBrdIPQYuS
lUCjmrjBKOHSQLWufb86asDBP/mQQIN1oMBOgI/BomG/QPZ2NcBNFbTBsC5wQBdjTcCn3ZvBcb2E
QLdMZEDIH7bB4NYCQeEdTECpFKrBSc3NQGVlrj9IT7rBEYXeQO1KqMCmY4vBWnybQEZ6yjww+pvB
d8f6QNXe+L/QE6DBsCmYQAHIaEBOnYXBOMXFQO3qIkD6JIXBtl3LQCL4hkD6M4rBql8rQdU9JsAA
9o/BSTsbQZJxBcDhHpvB8qATQX/Tz79Lw43BNd9ZQBJNHUB3KajB/PQLQA1hcEDvf5nBgftDQGP7
gEBFv43B

> <OMEGA_E>
gAcWPAAAAAAE5Co/fBgxPw==

> <OMEGA_NBR>
     56386

$$$$
50215526
  -OEChem-04172616093D

 50 53  0     1  0  0  0  0  0999 V2000
    4.2608    3.4757  -17.7076 C   0  0  0  0  0  0  0  0  0  0  0  0
    5.6215    3.1392  -17.8286 C   0  0  0  0  0  0  0  0  0  0  0  0
    3.4056    3.3644  -18.8192 C   0  0  0  0  0  0  0  0  0  0  0  0
    6.6756   -1.2541  -22.9794 C   0  0  0  0  0  0  0  0  0  0  0  0
    4.9731   -4.4933  -18.5397 C   0  0  0  0  0  0  0  0  0  0  0  0
    6.1078   -2.1070  -22.0206 C   0  0  0  0  0  0  0  0  0  0  0  0
    5.5000   -3.6507  -19.5324 C   0  0  0  0  0  0  0  0  0  0  0  0
    6.1363    2.7209  -19.0683 C   0  0  0  0  0  0  0  0  0  0  0  0
    3.9175    2.9543  -20.0624 C   0  0  0  0  0  0  0  0  0  0  0  0
    6.5596    0.1373  -22.8402 C   0  0  0  0  0  0  0  0  0  0  0  0
    3.7456   -4.1832  -17.9272 C   0  0  0  0  0  0  0  0  0  0  0  0
    5.2657   -0.1715  -20.7936 C   0  0  0  0  0  0  0  0  0  0  0  0
    3.5691   -2.1754  -19.3030 C   0  0  0  0  0  0  0  0  0  0  0  0
    5.3889   -1.5737  -20.9284 C   0  0  0  0  0  0  0  0  0  0  0  0
    4.8069   -2.4797  -19.9143 C   0  0  0  0  0  0  0  0  0  0  0  0
    5.3003    2.6735  -20.2122 C   0  0  0  0  0  0  0  0  0  0  0  0
    5.8860    0.6969  -21.7290 C   0  0  0  0  0  0  0  0  0  0  0  0
    3.0289   -3.0172  -18.3093 C   0  0  0  0  0  0  0  0  0  0  0  0
    7.2396    2.8160  -21.8439 C   0  0  0  0  0  0  0  0  0  0  0  0
    5.7180    3.7793  -23.2376 C   0  0  0  0  0  0  0  0  0  0  0  0
    5.8524    2.2238  -21.5741 C   0  0  2  0  0  0  0  0  0  0  0  0
    8.1204    4.5318  -23.4639 C   0  0  0  0  0  0  0  0  0  0  0  0
    1.3234   -3.4339  -16.6412 C   0  0  0  0  0  0  0  0  0  0  0  0
    7.0768    3.6412  -22.9418 N   0  0  0  0  0  0  0  0  0  0  0  0
    5.0416    2.8153  -22.6562 N   0  3  0  0  0  0  0  0  0  0  0  0
    5.1727    4.7517  -24.0626 N   0  0  0  0  0  0  0  0  0  0  0  0
    8.3087    2.5073  -21.3278 O   0  0  0  0  0  0  0  0  0  0  0  0
    1.8093   -2.6481  -17.7551 O   0  0  0  0  0  0  0  0  0  0  0  0
    3.8723    3.8199  -16.7604 H   0  0  0  0  0  0  0  0  0  0  0  0
    6.2714    3.2023  -16.9683 H   0  0  0  0  0  0  0  0  0  0  0  0
    2.3552    3.5941  -18.7173 H   0  0  0  0  0  0  0  0  0  0  0  0
    7.2026   -1.6692  -23.8258 H   0  0  0  0  0  0  0  0  0  0  0  0
    5.5121   -5.3819  -18.2458 H   0  0  0  0  0  0  0  0  0  0  0  0
    6.2211   -3.1765  -22.1184 H   0  0  0  0  0  0  0  0  0  0  0  0
    6.4385   -3.8987  -20.0058 H   0  0  0  0  0  0  0  0  0  0  0  0
    7.1744    2.4341  -19.1495 H   0  0  0  0  0  0  0  0  0  0  0  0
    3.2544    2.8522  -20.9087 H   0  0  0  0  0  0  0  0  0  0  0  0
    6.9887    0.7873  -23.5884 H   0  0  0  0  0  0  0  0  0  0  0  0
    3.3461   -4.8338  -17.1633 H   0  0  0  0  0  0  0  0  0  0  0  0
    4.6961    0.2410  -19.9740 H   0  0  0  0  0  0  0  0  0  0  0  0
    3.0309   -1.2877  -19.6007 H   0  0  0  0  0  0  0  0  0  0  0  0
    7.7350    5.0758  -24.3388 H   0  0  0  0  0  0  0  0  0  0  0  0
    8.4121    5.2511  -22.6844 H   0  0  0  0  0  0  0  0  0  0  0  0
    8.9966    3.9360  -23.7594 H   0  0  0  0  0  0  0  0  0  0  0  0
    0.3558   -3.0339  -16.3040 H   0  0  0  0  0  0  0  0  0  0  0  0
    1.1974   -4.4798  -16.9578 H   0  0  0  0  0  0  0  0  0  0  0  0
    2.0479   -3.3858  -15.8149 H   0  0  0  0  0  0  0  0  0  0  0  0
    4.1181    2.5262  -22.9083 H   0  0  0  0  0  0  0  0  0  0  0  0
    4.1911    4.7523  -24.2536 H   0  0  0  0  0  0  0  0  0  0  0  0
    5.7611    5.4523  -24.4663 H   0  0  0  0  0  0  0  0  0  0  0  0
  1  2  1  0  0  0  0
  1  3  2  0  0  0  0
  2  8  2  0  0  0  0
  3  9  1  0  0  0  0
  4  6  1  0  0  0  0
  4 10  2  0  0  0  0
  5  7  2  0  0  0  0
  5 11  1  0  0  0  0
  6 14  2  0  0  0  0
  7 15  1  0  0  0  0
  8 16  1  0  0  0  0
  9 16  2  0  0  0  0
 10 17  1  0  0  0  0
 11 18  2  0  0  0  0
 12 14  1  0  0  0  0
 12 17  2  0  0  0  0
 13 15  2  0  0  0  0
 13 18  1  0  0  0  0
 14 15  1  0  0  0  0
 16 21  1  0  0  0  0
 17 21  1  0  0  0  0
 18 28  1  0  0  0  0
 19 21  1  0  0  0  0
 19 24  1  0  0  0  0
 19 27  2  0  0  0  0
 20 24  1  0  0  0  0
 20 25  2  0  0  0  0
 20 26  1  0  0  0  0
 21 25  1  0  0  0  0
 22 24  1  0  0  0  0
 23 28  1  0  0  0  0
  1 29  1  0  0  0  0
  2 30  1  0  0  0  0
  3 31  1  0  0  0  0
  4 32  1  0  0  0  0
  5 33  1  0  0  0  0
  6 34  1  0  0  0  0
  7 35  1  0  0  0  0
  8 36  1  0  0  0  0
  9 37  1  0  0  0  0
 10 38  1  0  0  0  0
 11 39  1  0  0  0  0
 12 40  1  0  0  0  0
 13 41  1  0  0  0  0
 22 42  1  0  0  0  0
 22 43  1  0  0  0  0
 22 44  1  0  0  0  0
 23 45  1  0  0  0  0
 23 46  1  0  0  0  0
 23 47  1  0  0  0  0
 25 48  1  0  0  0  0
 26 49  1  0  0  0  0
 26 50  1  0  0  0  0
M  CHG  1  25   1
M  END
> <OMEGA_C>
UViIQGJyXkAVqY3Bq+OzQPzoSEDtoI7BF/VZQKVRV0DSjZbBS57VQIiFoL/n1bfBcyOfQDvJj8A4
UZTBx3LDQITYBsAmKrDB7P+vQDSlacBqQpzBulzEQA4jLkDhi5jBtrh6QHASPUDHf6DBVOjRQHiT
DD6nuLbBOLdvQG/chcDZao/BpYCoQIyoL75ZWabBumtkQPY5C8CGbJrB/XGsQO5tyb9qbafB69GZ
QB6zHsBtUJ/BMJypQGsaK0CFsqHBUlq8QOpmMj8K1a3BHdlBQH8ZQcCFeZLBr6rnQNc4NEBDwK7B
NPq2QAXgcUCx5rnBoUa7QA9TDkDPl6zBQO0BQZ8EkUD7tbvBH2WpP9DFW8AkIYXBhnXiQB4JaUDE
iLfBAVWhQP4tNED4P7XBuIalQPANmEAkgMDBTfAEQd12IEBEn6rBopfnP/15KcBsCo7BFdR3QKJ4
dEBYFYbBHa/IQKTyTEACv4fBK7wWQLsFZkAdvZXBenvmQPWo1b9Am77BMGOwQDw4rMB/95HBcBPH
QFFMS8CJ8rDBLgjOQHWEecDrC6DBbZTlQCrIG0BHMpnBukdQQMeKNkABRafBPaPfQAOLST/5tLzB
6SVWQICumsB7TonB1EaWQCW8dj6syp/BuPlBQL7RpL8qzpzB34T3QLpsokDgtcLBCJgGQccIqECd
ebXBEvIPQQzoe0BRE77BxCe2PgAsQsCaboLB0EOZP79aj8CbqYfBNBEDQDywWMDWCX3BnMeDQAWt
IUA0RLfBoB2GQHcSmEBtB8LBmVq4QCB5rkACu8PBe/CJQGY1YUDRYo3Bg/RbQAz7WkCdLJbBiiW1
QBSGSUAQf47B4CHVQMNgn7/EzbfB+4SfQO6qj8AjLJTBx5XDQEaPBsA7E7DBHnKwQIxgacAzG5zB
hth6QNJGP0AiJ6DBKrbEQNyYLUDTdJjBG+TQQJiMFD6qtLbBgvlvQFv3hcAZXY/B7x+oQBCmMb7/
QKbB/XdkQMjeC8BTbprB54OsQMuDyb+9VKfBPQyaQGLiHsAhO5/BzWKpQBBMK0BMgaHB3o67QJYB
Mz/Zwa3Bzc1BQMSzQcBnf5LByXbmQFKaNEC8yq7BlEe1QBDHb0D6EbrBEkq6QMRoDkCneqzBie0A
QS4WkUB+47vB1UWoP5pGXMDqOoXBZsfgQLD4aEAYmLfBL72fQMbiM0C7CbXBbq6jQBQnlUB5J8HB
9nYEQUb+IED8yKrBj7/mP3hSKsA9KI7B43J8QGEweEAzyIXBXz4ZQHB/a0C8QJXBWWHKQLTLTEAT
sYfBcOvlQFbt07++mr7BkuewQNHuq8AuwpHBUL7HQFnrSsCG0bDBn6jOQHHfeMDN05/BhGZPQM4p
OUBG1KbBLq7lQNXHGUDEN5nBPwneQEZsTD+/v7zB50VWQDvPmsA4RInBDd+VQAZ2bz5Frp/BvsJB
QCXDpr+w35zBBCj1QHNGokCS4cLBMKYFQW1JqECztLXBTPQOQc1BfECWS77BTyGvPiDvQsAOnILB
dlGZP920j8AqtYfBfx4CQOF8WMC9Kn3BPMCBQOlGIkBpwbbBlVWEQGJhlEAawMLBX1a2QFQHq0Cn
qsTB

> <OMEGA_E>
sCNWP5oMVz8=

> <OMEGA_NBR>
     58372

$$$$
50215928
  -OEChem-04172616093D

 53 56  0     1  0  0  0  0  0999 V2000
    6.9368    5.0327  -23.9461 C   0  0  0  0  0  0  0  0  0  0  0  0
    5.5625    4.7790  -23.7807 C   0  0  0  0  0  0  0  0  0  0  0  0
    7.8747    4.4126  -23.1006 C   0  0  0  0  0  0  0  0  0  0  0  0
    6.5884   -0.8971  -22.7884 C   0  0  0  0  0  0  0  0  0  0  0  0
    4.9608   -4.5455  -18.5648 C   0  0  0  0  0  0  0  0  0  0  0  0
    6.0729   -1.8878  -21.9327 C   0  0  0  0  0  0  0  0  0  0  0  0
    5.4904   -3.6687  -19.5278 C   0  0  0  0  0  0  0  0  0  0  0  0
    5.1227    3.9089  -22.7673 C   0  0  0  0  0  0  0  0  0  0  0  0
    7.4396    3.5527  -22.0779 C   0  0  0  0  0  0  0  0  0  0  0  0
    6.4058    0.4668  -22.4857 C   0  0  0  0  0  0  0  0  0  0  0  0
    3.7242   -4.2614  -17.9506 C   0  0  0  0  0  0  0  0  0  0  0  0
    5.1758   -0.1486  -20.4835 C   0  0  0  0  0  0  0  0  0  0  0  0
    3.5482   -2.2179  -19.2493 C   0  0  0  0  0  0  0  0  0  0  0  0
    5.3496   -1.5080  -20.7840 C   0  0  0  0  0  0  0  0  0  0  0  0
    4.7850   -2.4955  -19.8634 C   0  0  0  0  0  0  0  0  0  0  0  0
    6.0567    3.3050  -21.8881 C   0  0  0  0  0  0  0  0  0  0  0  0
    5.7024    0.8497  -21.3141 C   0  0  0  0  0  0  0  0  0  0  0  0
    3.0089   -3.0805  -18.2918 C   0  0  0  0  0  0  0  0  0  0  0  0
    6.3464    2.4511  -19.5198 C   0  0  0  0  0  0  0  0  0  0  0  0
    4.1654    3.0756  -19.2131 C   0  0  0  0  0  0  0  0  0  0  0  0
    5.5889    2.2964  -20.8345 C   0  0  1  0  0  0  0  0  0  0  0  0
    1.7240   -3.5361  -15.4422 C   0  0  0  0  0  0  0  0  0  0  0  0
    5.7091    3.2278  -17.2087 C   0  0  0  0  0  0  0  0  0  0  0  0
    1.1232   -3.6096  -16.8552 C   0  0  0  0  0  0  0  0  0  0  0  0
    5.4427    3.0174  -18.6379 N   0  0  0  0  0  0  0  0  0  0  0  0
    4.1970    2.5868  -20.4318 N   0  3  0  0  0  0  0  0  0  0  0  0
    3.0240    3.5676  -18.5973 N   0  0  0  0  0  0  0  0  0  0  0  0
    7.4775    2.0573  -19.2546 O   0  0  0  0  0  0  0  0  0  0  0  0
    1.7884   -2.6962  -17.7531 O   0  0  0  0  0  0  0  0  0  0  0  0
    7.2718    5.7041  -24.7228 H   0  0  0  0  0  0  0  0  0  0  0  0
    4.8443    5.2533  -24.4332 H   0  0  0  0  0  0  0  0  0  0  0  0
    8.9299    4.5976  -23.2376 H   0  0  0  0  0  0  0  0  0  0  0  0
    7.1260   -1.1830  -23.6803 H   0  0  0  0  0  0  0  0  0  0  0  0
    5.5031   -5.4395  -18.2947 H   0  0  0  0  0  0  0  0  0  0  0  0
    6.2304   -2.9329  -22.1546 H   0  0  0  0  0  0  0  0  0  0  0  0
    6.4318   -3.8926  -20.0073 H   0  0  0  0  0  0  0  0  0  0  0  0
    4.0688    3.6998  -22.6582 H   0  0  0  0  0  0  0  0  0  0  0  0
    8.1633    3.0774  -21.4323 H   0  0  0  0  0  0  0  0  0  0  0  0
    6.8022    1.2230  -23.1471 H   0  0  0  0  0  0  0  0  0  0  0  0
    3.3183   -4.9433  -17.2180 H   0  0  0  0  0  0  0  0  0  0  0  0
    4.6270    0.1332  -19.5970 H   0  0  0  0  0  0  0  0  0  0  0  0
    3.0081   -1.3236  -19.5230 H   0  0  0  0  0  0  0  0  0  0  0  0
    1.1978   -4.2416  -14.7823 H   0  0  0  0  0  0  0  0  0  0  0  0
    2.7912   -3.7993  -15.4835 H   0  0  0  0  0  0  0  0  0  0  0  0
    1.6131   -2.5146  -15.0495 H   0  0  0  0  0  0  0  0  0  0  0  0
    4.8310    3.6922  -16.7361 H   0  0  0  0  0  0  0  0  0  0  0  0
    5.9153    2.2602  -16.7279 H   0  0  0  0  0  0  0  0  0  0  0  0
    6.5807    3.8886  -17.0917 H   0  0  0  0  0  0  0  0  0  0  0  0
    1.2335   -4.6345  -17.2392 H   0  0  0  0  0  0  0  0  0  0  0  0
    0.0555   -3.3498  -16.8052 H   0  0  0  0  0  0  0  0  0  0  0  0
    3.3928    2.4329  -21.0060 H   0  0  0  0  0  0  0  0  0  0  0  0
    2.1514    3.5644  -19.0858 H   0  0  0  0  0  0  0  0  0  0  0  0
    3.0736    3.9255  -17.6649 H   0  0  0  0  0  0  0  0  0  0  0  0
  1  2  1  0  0  0  0
  1  3  2  0  0  0  0
  2  8  2  0  0  0  0
  3  9  1  0  0  0  0
  4  6  2  0  0  0  0
  4 10  1  0  0  0  0
  5  7  1  0  0  0  0
  5 11  2  0  0  0  0
  6 14  1  0  0  0  0
  7 15  2  0  0  0  0
  8 16  1  0  0  0  0
  9 16  2  0  0  0  0
 10 17  2  0  0  0  0
 11 18  1  0  0  0  0
 12 14  2  0  0  0  0
 12 17  1  0  0  0  0
 13 15  1  0  0  0  0
 13 18  2  0  0  0  0
 14 15  1  0  0  0  0
 16 21  1  0  0  0  0
 17 21  1  0  0  0  0
 18 29  1  0  0  0  0
 19 21  1  0  0  0  0
 19 25  1  0  0  0  0
 19 28  2  0  0  0  0
 20 25  1  0  0  0  0
 20 26  2  0  0  0  0
 20 27  1  0  0  0  0
 21 26  1  0  0  0  0
 22 24  1  0  0  0  0
 23 25  1  0  0  0  0
 24 29  1  0  0  0  0
  1 30  1  0  0  0  0
  2 31  1  0  0  0  0
  3 32  1  0  0  0  0
  4 33  1  0  0  0  0
  5 34  1  0  0  0  0
  6 35  1  0  0  0  0
  7 36  1  0  0  0  0
  8 37  1  0  0  0  0
  9 38  1  0  0  0  0
 10 39  1  0  0  0  0
 11 40  1  0  0  0  0
 12 41  1  0  0  0  0
 13 42  1  0  0  0  0
 22 43  1  0  0  0  0
 22 44  1  0  0  0  0
 22 45  1  0  0  0  0
 23 46  1  0  0  0  0
 23 47  1  0  0  0  0
 23 48  1  0  0  0  0
 24 49  1  0  0  0  0
 24 50  1  0  0  0  0
 26 51  1  0  0  0  0
 27 52  1  0  0  0  0
 27 53  1  0  0  0  0
M  CHG  1  26   1
M  END
> <OMEGA_C>
TPrdQOsLoUCKkb/Bu/+xQIPtmEDjPr7BZ/37QBk0jUD9zbjBStTSQNymZb+STrbBjr6eQIF0kcCe
hJTBSVXCQH6i8b8qdq/BjbGvQEfLasDwOJzBTu2jQK0rekBtI7bBRhHuQMFeY0B5n7DBPvzMQNsG
7z684rPBq1luQJZdiMDZmo/BT6ClQGYjGL4q3qPBhRZjQLjxDcCM/pnB9S+rQHwGwb+bRabBoR6Z
QHm2H8BI6J7BU9DBQPGEU0DnGq/Bqnm2QCCJWT9Zg6rBUJJAQM8mRcCMVZLB6BXLQHneHECAKJzB
skqFQJnWREBstJnBltiyQBb4EkAjrabBdarcP0lPYsA3E3fBjLC2QPCUTkBxq4nBE8SPP3UDZ8CF
14bB5CquQMQcQUBjGpXBhk2GQDOOJUBYdKPBZohBQHxTZEBCx5TBwUfvQDCqA0BkCZrBE+rkP62O
LMBlBo7BnbLoQEGItkBZyMXB3QSbQAcbqEArd8PBuuAOQYEfk0CT5rnBRgjkQApul79Ucb3BURmw
QJsQrsB+W5LBn1/HQPS0O8CwPLHBp9HNQBwhecAKD6DBfjOCQIzJbEAIRLXBE50CQUz0REBhdavB
16vZQFGLnD9RLbnB0F9UQLovnsCFvonBYRCUQHVuCD66xpzBQYRAQMpsqb8qL5zBE1CZP926h8Bj
hGzBG6MyQDInc8B+vHfBZXvOP9buIMCbynDBnpeaQIZNbEB+44XB60m9QE2nEEDF0oXB9pTSQFne
eEDNu4jBYuSdP4NNlMDv6YnBOjJjPatiVsD+cIbBGCRZQAG1G0BGDKjBX7AJQPIeZECyr5jBkrZE
QEA7e0CgUY3B+andQNo9oUA6mr/B3L37QHaajECMArnBI6exQDC9mUDsI77Bml7RQCeTa78DHbbB
mf6gQLokkMCVlZPBLm/BQPRD87+xGK/BiFyxQD0DaMA5WpvB5tztQGe7YUA03rDBMZyjQDWMe0D+
DbbBqXTLQJLn5D5D1LPBJedwQFOiiMBxAo/BdI2kQHgsFb7Gq6PBA/FhQCuVEMAkxJnBR5eqQIYV
wb+D5aXBgGuZQLxrH8AeXJ7BLJLBQNQ5U0AoL6/BZEq1QKhBWD/zcarBq8s/QIMBScCHM5LBYUbL
QJh3HEChOZzBv92FQJT/RUCtnJnBN3eyQG0ZE0BgsKbBYm7hPw4wU8BmsnbBMpK4QMm9U0Cm34nB
5jCTPxdIasBHP4bBz5WtQCKON0DCvZTByCiGQG0IJ0B+YKPB6C5FQOmfa0AnypTBEjbwQOxvBkDB
XprBG73bP4MENsDuno7BV1voQE3ctkBgysXBqsMOQYITkkCvNLrBFZ2aQGJ8qUCuPMPByTLiQKC5
m78RR73BBIqzQLCVq8C8HZHBG63GQPSoPMAGwLDBlBfQQAdVdMA//p7B/osCQVXrQUB426vBi9SB
QCg9b0CKErXBjtXXQMz4mD8cPbnBxP1XQFljnsDSD4nBQcKSQCYPFT7io5zBrbQ9QGyesb8gHpzB
U22oPzK1e8AsMWrBRUk2QHPIXcCkL3fBB1zHP+qDD8BVGnPBTTebQB7VZUB8k4XBUJbIQHdBH0CU
loXBsibOQJGfhUDoUIrBI0OtP4oFl8Cp/YfBBMqAPYvGX8AC84XBhFtYQG42HkBW6qfBrgEOQP2I
cEDdy5jBCYBJQHPrgEB2To3B8evkQD1koEC07L7BrHsAQQ68iUCmMLjBqmi4QJQ8m0B60b3Bn+nK
QL78Y7/Z2bbBZ2BIQGPPXcCIKJLBwUm6QG1P8L+OCrDBIbVdQKblH8B17JnBGo/wQOCnXEBlQ7DB
xNSnQO5qf0D47bXBLzDHQBvv7j43HLTB8lKCQDVfjsBsN4/Bwk+gQN7oGL6y56PBL/O0QFOZYsCW
IpzBq8OkQOkcwb8Uk6bBjVmXQBidIsCM857B27XDQEAHU0Bs5q7BZk+yQDDmWT/agqrB5vKqQLEf
j8CaJZTBq0TJQM/gGUAo9ZvByVuEQENcSEDG2pnBNK+xQLxwE0DNnqbBc1UHQVfNpsDBk4fBpTm1
QHFVUUDdtInB4zXeQMg2n8CL04bBRCWrQHWqNkC3r5TB54KFQFAPK0C3sKPBtxdCQPedb0ASQ5XB
6LTtQFH0AUA93pnBcizKQAYUq8BZ2pDBcovxQJK8tUBJ8cTBhZERQZJijUA0G7nBSeiiQHdzrEBy
CcPB2JbaQARelr8sNb7B/eQJQBwHXcARd47BOvu9QPD3OsCIDbLBSE0wQIgf3b+/BZzBaSIDQUWT
OUD2KqvBkaaFQGTodkAfObXBNkzUQNBynD+FV7nBF6h0QNTapcBoM4nB0wqPQDIHBz5jxJzBHITT
QE3CZcDNJaDBl/AOQVPMncBB73/BtWkKQWbUyMCaOInB+AEOQR84k8B2FY7BFK6XQHFPZUBboIXB
aLTDQPBuG0CyWoXBqdrLQNudg0Cx6YnBkdzQQAXMssDgUYDBGQ3YQH1fesC8LoXBKjVYQKuKJUAw
gajBKF0MQFYYd0DNgZnBPeZEQNg4gkChtI3BmEflQBrvn0DJJb/B5acAQSjRiEDhgbjBVL+4QDix
m0D02b3BLa3LQDfxY7+f7LbB0yBBQFIeY8C4tJPBmGy6QOSK8L8zPLDB3+VWQKLRJ8CuxJvBtuDw
QMiiW0Acf7DBDiKoQKtngEDJ6bXBO9vHQJDg7j4oKrTBhuGAQCKoicC5q47BKOyfQLwjG75xI6TB
B+y1QJN5VcCWsprBlumjQCxOwb/H8KbBsCGWQEOtIsCYa5/B+QbEQK82U0C0Aq/Bd5qyQGkEWj/i
nKrBKeqrQEaag8CWr5HBM9/JQCo6G0A/GpzBiciEQFULSECQ15nBJhKyQJavE0CctabBomy7QK9f
B8CMkIHBvAi2QLwjUUCfxonBXLTdQLLxR8AzsIXBHo2tQAP6QkAVMpXBvgWGQMR2K0CjtqPBoydA
QNE5ZkDS35TBOM/tQJT7AEBp6JnBUmDLQH1Fi8CxRIrBv+zxQGLutEAXPcXB9b0RQcXMi0B6j7nB
Z0GjQDVtrUBq9sLBouzbQMcTlr9XNb7BGRn+P6CJa8B4ZpHBnmm+QHwTO8A8N7LBkHYmQK8F/b9+
Ip/BFEkDQUJBOEDebavBCO2FQJKbeUCpErXBOTPVQFWCnD+PWrnBvH1xQM2doMCpiojBD4SOQPn0
AD4RA53B8ebVQFZXVsCp+J3BD3LLQG3+nL+EinzBcY6mQB1c6L+kO4jBqBKoQEDlJcATkHbB24ea
QJjccUBgHIbBlBu7QDovE0BBy4XBXtTSQAD5eEAm3ojBHfDwQHkcKMBb5IvBVHTyQKvTWcCA4X3B
pDRZQGmCJkCJiKjB+JwIQJcZZ0D62JjBg8RCQLoce0DCUY3B

> <OMEGA_E>
gBkFPYCeJj24+8M+DBPFPg==

> <OMEGA_NBR>
     62215

$$$$
187171
  -OEChem-04172616093D

 42 44  0     1  0  0  0  0  0999 V2000
    6.8043    0.0817  -22.6804 C   0  0  0  0  0  0  0  0  0  0  0  0
    6.6361    1.4662  -22.4962 C   0  0  0  0  0  0  0  0  0  0  0  0
    6.0567   -0.8321  -21.9181 C   0  0  0  0  0  0  0  0  0  0  0  0
    3.0671   -4.8644  -17.2040 C   0  0  0  0  0  0  0  0  0  0  0  0
    3.9000   -4.3806  -18.2249 C   0  0  0  0  0  0  0  0  0  0  0  0
    4.9530    1.0271  -20.7941 C   0  0  0  0  0  0  0  0  0  0  0  0
    1.8426   -2.7699  -17.3032 C   0  0  0  0  0  0  0  0  0  0  0  0
    5.6909    1.9588  -21.5660 C   0  0  0  0  0  0  0  0  0  0  0  0
    5.1420   -0.3583  -20.9482 C   0  0  0  0  0  0  0  0  0  0  0  0
    2.0265   -4.0455  -16.7364 C   0  0  0  0  0  0  0  0  0  0  0  0
    3.6717   -3.0852  -18.7516 C   0  0  0  0  0  0  0  0  0  0  0  0
    4.3739    3.9073  -19.2185 C   0  0  0  0  0  0  0  0  0  0  0  0
    4.5633   -2.5195  -19.7846 C   0  0  0  0  0  0  0  0  0  0  0  0
    6.7585    4.2103  -20.9392 C   0  0  0  0  0  0  0  0  0  0  0  0
    7.1768    3.7362  -19.5456 C   0  0  0  0  0  0  0  0  0  0  0  0
    5.4735    3.4820  -21.4176 C   0  0  1  0  0  0  0  0  0  0  0  0
    5.0899    4.0675  -22.7961 C   0  0  0  0  0  0  0  0  0  0  0  0
    2.6522   -2.3145  -18.2850 N   0  0  0  0  0  0  0  0  0  0  0  0
    4.3139    3.7854  -20.5266 N   0  3  0  0  0  0  0  0  0  0  0  0
    3.1798    3.8943  -18.5154 N   0  0  0  0  0  0  0  0  0  0  0  0
    4.3625   -1.1827  -20.1321 N   0  0  0  0  0  0  0  0  0  0  0  0
    5.5018   -3.1805  -20.2161 O   0  0  0  0  0  0  0  0  0  0  0  0
    1.2112   -4.4732  -15.7474 F   0  0  0  0  0  0  0  0  0  0  0  0
    5.8789    4.1459  -18.3202 S   0  0  0  0  0  0  0  0  0  0  0  0
    7.5117   -0.2808  -23.4115 H   0  0  0  0  0  0  0  0  0  0  0  0
    7.2338    2.1590  -23.0699 H   0  0  0  0  0  0  0  0  0  0  0  0
    6.1802   -1.8938  -22.0724 H   0  0  0  0  0  0  0  0  0  0  0  0
    3.2236   -5.8478  -16.7859 H   0  0  0  0  0  0  0  0  0  0  0  0
    4.7068   -4.9897  -18.6052 H   0  0  0  0  0  0  0  0  0  0  0  0
    4.2326    1.3872  -20.0745 H   0  0  0  0  0  0  0  0  0  0  0  0
    1.0389   -2.1429  -16.9464 H   0  0  0  0  0  0  0  0  0  0  0  0
    6.5666    5.2929  -20.9073 H   0  0  0  0  0  0  0  0  0  0  0  0
    7.5735    4.0031  -21.6483 H   0  0  0  0  0  0  0  0  0  0  0  0
    7.3288    2.6469  -19.5631 H   0  0  0  0  0  0  0  0  0  0  0  0
    8.1158    4.2329  -19.2598 H   0  0  0  0  0  0  0  0  0  0  0  0
    4.9323    5.1522  -22.7034 H   0  0  0  0  0  0  0  0  0  0  0  0
    5.9003    3.8749  -23.5145 H   0  0  0  0  0  0  0  0  0  0  0  0
    4.1640    3.5917  -23.1516 H   0  0  0  0  0  0  0  0  0  0  0  0
    3.4203    3.9055  -20.9593 H   0  0  0  0  0  0  0  0  0  0  0  0
    3.1824    4.0180  -17.5231 H   0  0  0  0  0  0  0  0  0  0  0  0
    2.3155    3.7611  -19.0004 H   0  0  0  0  0  0  0  0  0  0  0  0
    3.5468   -0.7550  -19.7426 H   0  0  0  0  0  0  0  0  0  0  0  0
  1  2  2  0  0  0  0
  1  3  1  0  0  0  0
  2  8  1  0  0  0  0
  3  9  2  0  0  0  0
  4  5  2  0  0  0  0
  4 10  1  0  0  0  0
  5 11  1  0  0  0  0
  6  8  2  0  0  0  0
  6  9  1  0  0  0  0
  7 10  2  0  0  0  0
  7 18  1  0  0  0  0
  8 16  1  0  0  0  0
  9 21  1  0  0  0  0
 10 23  1  0  0  0  0
 11 13  1  0  0  0  0
 11 18  2  0  0  0  0
 12 19  2  0  0  0  0
 12 20  1  0  0  0  0
 12 24  1  0  0  0  0
 13 21  1  0  0  0  0
 13 22  2  0  0  0  0
 14 15  1  0  0  0  0
 14 16  1  0  0  0  0
 15 24  1  0  0  0  0
 16 17  1  0  0  0  0
 16 19  1  0  0  0  0
  1 25  1  0  0  0  0
  2 26  1  0  0  0  0
  3 27  1  0  0  0  0
  4 28  1  0  0  0  0
  5 29  1  0  0  0  0
  6 30  1  0  0  0  0
  7 31  1  0  0  0  0
 14 32  1  0  0  0  0
 14 33  1  0  0  0  0
 15 34  1  0  0  0  0
 15 35  1  0  0  0  0
 17 36  1  0  0  0  0
 17 37  1  0  0  0  0
 17 38  1  0  0  0  0
 19 39  1  0  0  0  0
 20 40  1  0  0  0  0
 20 41  1  0  0  0  0
 21 42  1  0  0  0  0
M  CHG  1  19   1
M  END
> <OMEGA_C>
57zZQF5jpz1ncbXBO1vUQLyruz8w+LPBv9DBQOkBVb9RWK/B90tEQPqom8C9oYnBrJl5QEAujMCb
zJHBOX+eQPt2gz88WqbBz9rrP5xFMcDtbIrB+xu2QJu5+j8kh6zBhYukQBJwt77VlafB4rEBQK10
gcA35IXB8vxqQJBzRcBfA5bB3faLQOYRekBov5nBfgaSQKU/IcDoRp7BoUXYQLC6hkBvg6fBnajl
QFYeb0ByXZzB3SavQFHZXkBIV6vBTuCiQLUogkBkXrbBxL0pQDUgFMC/R5LBMQuKQMBEckBxNqTB
wIFLQB48eUCWH5TBwJmLQHljl799DqHBAA+wQJ+NS8B/uqHBaAibP3Ykj8Au9XvBpB+8QD6rhEDW
j5LBAmDwQGPJj761SrvBanvnQIMtCkAkj7jB0cPFQD5p8r9BlLDB6k9OQAohu8BvSYbB2J2WQHWr
n8Bp15TBoHGHQMCOsT+emKDBfPmEP40lCcAxkofBTSHSQM5fqUAbQqfB9FnyQJUZgEDEL63B0IXq
QCFnKUA/gZzBLtoBQR90h0AVFJrBzNWdQJ7epECBoLXBUM+8QOP9d0CzHbzBfT+FQCneZUBwNrnB
/+ZaQBv0eUCQrKfB56xLQM2TgEBWL4zBjzAUQF22cEDQAJjB7v5iQMNHQb/k8J3BUMDZQJC4iT1i
TrXBLQHUQCOruT8O4bPBMw7CQDKSWb8cMa/BzCPkP4G5OMDhzYnBUSQmQAUxF8DM45HBUxmeQNzE
gD8cSabBRxZJQBuznMB7PIrBoKe1QK9p+D8MdazBmI2kQHnjwr5/eqfB+9wDQDFvhcDc6IXB+WVr
QMlkSMD27JXBXoGLQN5oe0B9r5nBXxaSQJRwI8BhM57BfmzYQGOQhUDoPKfBfi/lQOsAbECWFJzB
tB2vQFfLXUArMKvBiHCjQP46gkDpMbbBbzF7QK4bjMDBDpLB9t2JQAGScUCiIKTBVxhKQKYPf0BL
MJTB3gCMQKn3mr8O6KDB1G6vQGaiTsCA2aHB38+lP5hplsAdJnzBc5C7QGqzg0DXWpLBvIPwQFCW
lb4JI7vBhvPmQE1OCUDefrjBjVzGQA2g9L8yYbDB/RJ1PwwJFMAioobBgrIZQGMpsL8vDZXBNdGG
QPxyrj/4kqDBGnNWQBBvvMD4P4fBkMDSQB5JqEBn9KbB0J3yQLpcfUD/26zBwHHpQAAiJkAdPpzB
1bYBQdRVhUDQt5nBG7meQAb1pEAVX7XBuIW9QKQYeEAM5rvBD8SFQPvcZkDUJbnB+otaQNPcd0DJ
oafBbtlJQBUkhECtRYzB29MSQM55eEBHI5jB73VkQO+SR7/2pp3B

> <OMEGA_E>
IDuGPijz0z4=

> <OMEGA_NBR>
      1762

$$$$
50093308
  -OEChem-04172616093D

 44 47  0     1  0  0  0  0  0999 V2000
    6.0297   -0.8824  -21.9543 C   0  0  0  0  0  0  0  0  0  0  0  0
    6.7798    0.0175  -22.7236 C   0  0  0  0  0  0  0  0  0  0  0  0
    3.0452   -4.8543  -17.2240 C   0  0  0  0  0  0  0  0  0  0  0  0
    3.8973   -4.3633  -18.2224 C   0  0  0  0  0  0  0  0  0  0  0  0
    4.9530    0.9882  -20.8340 C   0  0  0  0  0  0  0  0  0  0  0  0
    1.8213   -2.7587  -17.3302 C   0  0  0  0  0  0  0  0  0  0  0  0
    5.6818    1.9155  -21.6151 C   0  0  0  0  0  0  0  0  0  0  0  0
    5.1283   -0.3922  -20.9850 C   0  0  0  0  0  0  0  0  0  0  0  0
    1.9946   -4.0403  -16.7726 C   0  0  0  0  0  0  0  0  0  0  0  0
    6.6255    1.4049  -22.5555 C   0  0  0  0  0  0  0  0  0  0  0  0
    3.6790   -3.0652  -18.7418 C   0  0  0  0  0  0  0  0  0  0  0  0
    4.3541    3.9050  -19.1648 C   0  0  0  0  0  0  0  0  0  0  0  0
    4.5767   -2.5106  -19.7686 C   0  0  0  0  0  0  0  0  0  0  0  0
    6.5227    5.5745  -21.2129 C   0  0  0  0  0  0  0  0  0  0  0  0
    5.2043    4.2299  -22.6555 C   0  0  0  0  0  0  0  0  0  0  0  0
    7.1552    3.7965  -19.4393 C   0  0  0  0  0  0  0  0  0  0  0  0
    6.7753    4.1006  -20.8963 C   0  0  1  0  0  0  0  0  0  0  0  0
    5.4860    3.4308  -21.3692 C   0  0  2  0  0  0  0  0  0  0  0  0
    2.6526   -2.2944  -18.2891 N   0  0  0  0  0  0  0  0  0  0  0  0
    4.3178    3.6903  -20.4605 N   0  3  0  0  0  0  0  0  0  0  0  0
    3.1430    3.9832  -18.4971 N   0  0  0  0  0  0  0  0  0  0  0  0
    4.3483   -1.1968  -20.1603 N   0  0  0  0  0  0  0  0  0  0  0  0
    5.5376   -3.1608  -20.1660 O   0  0  0  0  0  0  0  0  0  0  0  0
    5.6776    5.5819  -22.3995 O   0  0  0  0  0  0  0  0  0  0  0  0
    1.1580   -4.4823  -15.8088 F   0  0  0  0  0  0  0  0  0  0  0  0
    7.4018    2.2129  -23.3126 F   0  0  0  0  0  0  0  0  0  0  0  0
    5.8291    4.1950  -18.2492 S   0  0  0  0  0  0  0  0  0  0  0  0
    6.1409   -1.9464  -22.1025 H   0  0  0  0  0  0  0  0  0  0  0  0
    7.4829   -0.3582  -23.4522 H   0  0  0  0  0  0  0  0  0  0  0  0
    3.1941   -5.8405  -16.8097 H   0  0  0  0  0  0  0  0  0  0  0  0
    4.7118   -4.9690  -18.5913 H   0  0  0  0  0  0  0  0  0  0  0  0
    4.2452    1.3537  -20.1047 H   0  0  0  0  0  0  0  0  0  0  0  0
    1.0093   -2.1357  -16.9852 H   0  0  0  0  0  0  0  0  0  0  0  0
    6.0091    6.0649  -20.3728 H   0  0  0  0  0  0  0  0  0  0  0  0
    7.4722    6.0919  -21.4146 H   0  0  0  0  0  0  0  0  0  0  0  0
    5.7463    3.7897  -23.5054 H   0  0  0  0  0  0  0  0  0  0  0  0
    4.1259    4.2371  -22.8725 H   0  0  0  0  0  0  0  0  0  0  0  0
    7.3889    2.7248  -19.3557 H   0  0  0  0  0  0  0  0  0  0  0  0
    8.0462    4.3873  -19.1801 H   0  0  0  0  0  0  0  0  0  0  0  0
    7.5959    3.7506  -21.5398 H   0  0  0  0  0  0  0  0  0  0  0  0
    3.4142    3.7006  -20.8886 H   0  0  0  0  0  0  0  0  0  0  0  0
    3.1232    4.1996  -17.5210 H   0  0  0  0  0  0  0  0  0  0  0  0
    2.2884    3.8233  -18.9912 H   0  0  0  0  0  0  0  0  0  0  0  0
    3.5151   -0.7749  -19.8029 H   0  0  0  0  0  0  0  0  0  0  0  0
  1  2  1  0  0  0  0
  1  8  2  0  0  0  0
  2 10  2  0  0  0  0
  3  4  2  0  0  0  0
  3  9  1  0  0  0  0
  4 11  1  0  0  0  0
  5  7  2  0  0  0  0
  5  8  1  0  0  0  0
  6  9  2  0  0  0  0
  6 19  1  0  0  0  0
  7 10  1  0  0  0  0
  7 18  1  0  0  0  0
  8 22  1  0  0  0  0
  9 25  1  0  0  0  0
 10 26  1  0  0  0  0
 11 13  1  0  0  0  0
 11 19  2  0  0  0  0
 12 20  2  0  0  0  0
 12 21  1  0  0  0  0
 12 27  1  0  0  0  0
 13 22  1  0  0  0  0
 13 23  2  0  0  0  0
 14 17  1  0  0  0  0
 14 24  1  0  0  0  0
 15 18  1  0  0  0  0
 15 24  1  0  0  0  0
 16 17  1  0  0  0  0
 16 27  1  0  0  0  0
 17 18  1  0  0  0  0
 18 20  1  0  0  0  0
  1 28  1  0  0  0  0
  2 29  1  0  0  0  0
  3 30  1  0  0  0  0
  4 31  1  0  0  0  0
  5 32  1  0  0  0  0
  6 33  1  0  0  0  0
 14 34  1  0  0  0  0
 14 35  1  0  0  0  0
 15 36  1  0  0  0  0
 15 37  1  0  0  0  0
 16 38  1  0  0  0  0
 16 39  1  0  0  0  0
 17 40  1  0  0  0  0
 20 41  1  0  0  0  0
 21 42  1  0  0  0  0
 21 43  1  0  0  0  0
 22 44  1  0  0  0  0
M  CHG  1  20   1
M  END
> <OMEGA_C>
kPPAQJ7nYb92oq/BhPTYQBwWjzzjybXBs+RCQKxWm8DCyonBi215QEWgi8Bsx5HBlX6eQKH9fD8e
rKbBDB/pPxuOMMA+pIrBXtG1QLow9T/Q66zB1hqkQKLJyL5G4afBfk3/P2ZKgcBBLobBLQTUQJzT
sz+ScbTBW3RrQOosRMA775XBw1SLQOXreUCUUZnBF3SSQHeuIMAqJp7B9bnQQPNhskDts6nBT4mm
QChbh0CEPrXBsvfkQBb5ckCZg5vB9s7YQMA3g0CsK6fBn42vQMGRW0Aw9KrBesQpQLHXEsD9T5LB
0iuKQEotbEAVr6PBaSZJQEPtfkAQ+pPBhyWLQE8wmb9USKHBzjOxQFtLSsDpU6HB6661QPKeskAm
MrPBQzqUP05vj8Dz8HzBtNvsQKCgDUA3gLrBzoe6QKQ9hkBR/pHBY4LEQJYk+b//0bDBKXTvQB9p
t74qnrvBmWxMQJflusBIeobB+MaWQEwCn8APu5TBsNiHQPdGrT931qDB5DCBP92uCMDD4YfB0UrA
QMoTwkB8+6LBUBzvQMLwwkAaUavB/+G3QOqJckAoC7zBWAeEQHSWh0Dg+rbBFnLsQGFjLkB42JrB
Cb0AQdpkjEDecJnB2hHzQFcKcECDUazB+oFaQCjXbEDbG6fBEeNHQBBjhkD7KozBy3QSQG+xdEDr
7ZfBPfdgQB1hRr9dbJ7BMTfBQFQcab8ejK/BwzPYQIC1JLwv7bXBED7gP1TCNMA6JIrB46YkQNNU
FcCRS5LBwo6eQOR+dj/Wo6bBqtlFQDYzm8AxLYrBPii1QKAo8j+FD63BHrOkQHUZ177evKfBcEgB
QKEUg8DX+oXBA9jSQHRdsD93sbTB5clpQHnZR8AZHZbBjWWLQJiiekBuZZnBnU6SQKPsI8AJMJ7B
o9PRQJ+CsUCAxqnB86amQPJPh0D0PbXBMuHkQDWgcEDgkZvBmvPYQHgVgkBbPKfBKF6vQF1WWkDg
BqvBC2V4QFihi8AhE5LBlBaKQNcba0DGuaPBAHJJQOeXgEDyCpTBTmqMQMT+nL98AqHBvaSwQPGX
TsCzZqHBxa20QEKjskA73bLBLNOgPzPeksAa+3vBUTfrQO+yC0Cz4rrBfbm6QGCdhkBzH5LBb1HF
QIPE/L9Hm7DBNkfuQIJ9xb4e27vBzNVtP8gVD8BPHofBk7gYQCS7rb8UrpXBFxOIQF3tqT8yw6DB
x05SQDfEusDJBYfBIIXDQLzswUBw3KLBj1jwQFf0wEB82qvBmeS4QIxcdEC5A7zBtE6EQA/zhkD/
KrfB7VvrQNytK0Cw1ZrBC/UAQQ1zikCohZnB+RLzQDLUbEC2XKzB+SZaQMlfakCSGafBpnxIQIQO
iECpQ4zBE5ESQFn9dkDj9JfB2+tlQPpVSL+1tZ3B

> <OMEGA_E>
AAAAANhHOT4=

> <OMEGA_NBR>
      3592

$$$$
187188
  -OEChem-04172616093D

 44 46  0     1  0  0  0  0  0999 V2000
    6.8038    0.0917  -22.7682 C   0  0  0  0  0  0  0  0  0  0  0  0
    6.6106    1.4725  -22.5672 C   0  0  0  0  0  0  0  0  0  0  0  0
    6.1021   -0.8417  -21.9880 C   0  0  0  0  0  0  0  0  0  0  0  0
    5.0068    0.9912  -20.8093 C   0  0  0  0  0  0  0  0  0  0  0  0
    2.6547   -2.2115  -18.3438 C   0  0  0  0  0  0  0  0  0  0  0  0
    3.0773   -4.6768  -17.2884 C   0  0  0  0  0  0  0  0  0  0  0  0
    5.6920    1.9389  -21.5956 C   0  0  0  0  0  0  0  0  0  0  0  0
    5.2124   -0.3816  -20.9946 C   0  0  0  0  0  0  0  0  0  0  0  0
    3.7071   -3.0425  -18.8154 C   0  0  0  0  0  0  0  0  0  0  0  0
    2.0355   -3.8402  -16.8236 C   0  0  0  0  0  0  0  0  0  0  0  0
    4.3489    3.8813  -19.1891 C   0  0  0  0  0  0  0  0  0  0  0  0
    4.6249   -2.5277  -19.8391 C   0  0  0  0  0  0  0  0  0  0  0  0
    6.7447    4.1545  -20.8911 C   0  0  0  0  0  0  0  0  0  0  0  0
    7.1457    3.6460  -19.5036 C   0  0  0  0  0  0  0  0  0  0  0  0
    5.4591    3.4488  -21.3950 C   0  0  1  0  0  0  0  0  0  0  0  0
    1.1950   -4.2634  -15.6493 C   0  0  0  0  0  0  0  0  0  0  0  0
    5.0682    4.0739  -22.7526 C   0  0  0  0  0  0  0  0  0  0  0  0
    3.8937   -4.2700  -18.2820 N   0  0  0  0  0  0  0  0  0  0  0  0
    1.8446   -2.6189  -17.3570 N   0  0  0  0  0  0  0  0  0  0  0  0
    4.2921    3.7126  -20.4934 N   0  3  0  0  0  0  0  0  0  0  0  0
    3.1508    3.9497  -18.4956 N   0  0  0  0  0  0  0  0  0  0  0  0
    4.4484   -1.1992  -20.1873 N   0  0  0  0  0  0  0  0  0  0  0  0
    5.5522   -3.2152  -20.2536 O   0  0  0  0  0  0  0  0  0  0  0  0
    5.8542    4.0776  -18.2821 S   0  0  0  0  0  0  0  0  0  0  0  0
    7.4941   -0.2504  -23.5251 H   0  0  0  0  0  0  0  0  0  0  0  0
    7.1686    2.1823  -23.1598 H   0  0  0  0  0  0  0  0  0  0  0  0
    6.2421   -1.9007  -22.1468 H   0  0  0  0  0  0  0  0  0  0  0  0
    4.3133    1.3283  -20.0531 H   0  0  0  0  0  0  0  0  0  0  0  0
    2.5058   -1.2379  -18.7870 H   0  0  0  0  0  0  0  0  0  0  0  0
    3.2204   -5.6504  -16.8434 H   0  0  0  0  0  0  0  0  0  0  0  0
    6.5622    5.2379  -20.8376 H   0  0  0  0  0  0  0  0  0  0  0  0
    7.5641    3.9551  -21.5973 H   0  0  0  0  0  0  0  0  0  0  0  0
    7.2652    2.5530  -19.5367 H   0  0  0  0  0  0  0  0  0  0  0  0
    8.0977    4.1101  -19.2066 H   0  0  0  0  0  0  0  0  0  0  0  0
    0.5005   -3.4528  -15.3837 H   0  0  0  0  0  0  0  0  0  0  0  0
    0.6225   -5.1646  -15.9141 H   0  0  0  0  0  0  0  0  0  0  0  0
    1.8476   -4.4826  -14.7914 H   0  0  0  0  0  0  0  0  0  0  0  0
    4.8985    5.1531  -22.6247 H   0  0  0  0  0  0  0  0  0  0  0  0
    5.8802    3.9138  -23.4772 H   0  0  0  0  0  0  0  0  0  0  0  0
    4.1474    3.5995  -23.1230 H   0  0  0  0  0  0  0  0  0  0  0  0
    3.3894    3.7653  -20.9205 H   0  0  0  0  0  0  0  0  0  0  0  0
    3.1530    4.1065  -17.5080 H   0  0  0  0  0  0  0  0  0  0  0  0
    2.2842    3.8422  -18.9829 H   0  0  0  0  0  0  0  0  0  0  0  0
    3.6400   -0.7638  -19.7913 H   0  0  0  0  0  0  0  0  0  0  0  0
  1  2  1  0  0  0  0
  1  3  2  0  0  0  0
  2  7  2  0  0  0  0
  3  8  1  0  0  0  0
  4  7  1  0  0  0  0
  4  8  2  0  0  0  0
  5  9  2  0  0  0  0
  5 19  1  0  0  0  0
  6 10  1  0  0  0  0
  6 18  2  0  0  0  0
  7 15  1  0  0  0  0
  8 22  1  0  0  0  0
  9 12  1  0  0  0  0
  9 18  1  0  0  0  0
 10 16  1  0  0  0  0
 10 19  2  0  0  0  0
 11 20  2  0  0  0  0
 11 21  1  0  0  0  0
 11 24  1  0  0  0  0
 12 22  1  0  0  0  0
 12 23  2  0  0  0  0
 13 14  1  0  0  0  0
 13 15  1  0  0  0  0
 14 24  1  0  0  0  0
 15 17  1  0  0  0  0
 15 20  1  0  0  0  0
  1 25  1  0  0  0  0
  2 26  1  0  0  0  0
  3 27  1  0  0  0  0
  4 28  1  0  0  0  0
  5 29  1  0  0  0  0
  6 30  1  0  0  0  0
 13 31  1  0  0  0  0
 13 32  1  0  0  0  0
 14 33  1  0  0  0  0
 14 34  1  0  0  0  0
 16 35  1  0  0  0  0
 16 36  1  0  0  0  0
 16 37  1  0  0  0  0
 17 38  1  0  0  0  0
 17 39  1  0  0  0  0
 17 40  1  0  0  0  0
 20 41  1  0  0  0  0
 21 42  1  0  0  0  0
 21 43  1  0  0  0  0
 22 44  1  0  0  0  0
M  CHG  1  20   1
M  END
> <OMEGA_C>
yrjZQEDIuz05JbbBW4rTQM55vD+QibTBE0TDQMZ4V79V56/BYDegQFS+fT97eabBKeYpQKiIDcAK
wJLBIfNEQEOolcCQTorBfSS2QPct+D/Ew6zBlcumQLxbw7739KfBp0FtQMC3QsD7hZbBV0YCQALG
dcCylobBaCqLQGRneEBMg5nBK/+TQC7GIcBhtp7BktTXQHLxhEDrIKfBkqnkQBxYaUBmB5zBwbCu
QJq4XEDpKKvBMPWYP9NtiMB/Y3rBUy6iQAVdgkBpBbbB4TF5QHSjiMBzQZLB9xrsPyicJ8AZ24rB
C1mJQG6bbUBr8qPBUKZJQAbIfED69pPBpFmOQL9/mb+Yf6HBpquxQADGTcB5B6LBAVa7QK57gkCu
QZLBj8/vQNY4gL5PM7zBHmXlQBGrC0BBR7nBWb/HQNNK87+nLLHBWQaKQMkGqj/SbKDBul4gQNlz
nr+0S5bBlBpOQC/QtMBDv4bBlf3RQPecp0Bns6bBdA3yQB8gfUBFx6zBiXzoQJBkI0AXS5zBXJAB
QTaGg0Axp5nBlx0AP1r6XMDXI3bBiFkfPwlEpcBYoH7Bkn/sP6Zxj8CSqWzBt8CcQIrmpEBr/7TB
Oiq8QIt7ekBh0bvBkbeEQMVdZkD3+7jBt+xYQEL6cEAcXafBKspJQJpog0BREIzB0i8SQFfndUDu
3JfBvPVoQJeFQ7+iVJ7B

> <OMEGA_E>
2CjhPg==

> <OMEGA_NBR>
      4630

$$$$
218274
  -OEChem-04172616093D

 45 47  0     1  0  0  0  0  0999 V2000
    6.7548   -0.0131  -22.6255 C   0  0  0  0  0  0  0  0  0  0  0  0
    6.5252    1.3762  -22.5440 C   0  0  0  0  0  0  0  0  0  0  0  0
    6.0468   -0.8971  -21.7881 C   0  0  0  0  0  0  0  0  0  0  0  0
    4.8341    0.9931  -20.8327 C   0  0  0  0  0  0  0  0  0  0  0  0
    1.6379   -3.2462  -17.6914 C   0  0  0  0  0  0  0  0  0  0  0  0
    4.1306   -4.3053  -17.9895 C   0  0  0  0  0  0  0  0  0  0  0  0
    5.5688    1.8982  -21.6351 C   0  0  0  0  0  0  0  0  0  0  0  0
    5.0882   -0.3869  -20.8849 C   0  0  0  0  0  0  0  0  0  0  0  0
    1.9422   -4.5460  -17.2155 C   0  0  0  0  0  0  0  0  0  0  0  0
    3.8182   -3.0187  -18.4876 C   0  0  0  0  0  0  0  0  0  0  0  0
    4.4314    4.0191  -19.2479 C   0  0  0  0  0  0  0  0  0  0  0  0
   -0.4300   -5.1419  -16.6322 C   0  0  0  0  0  0  0  0  0  0  0  0
    0.9217   -5.3998  -16.5701 C   0  0  0  0  0  0  0  0  0  0  0  0
    4.8078   -2.2429  -19.2572 C   0  0  0  0  0  0  0  0  0  0  0  0
    6.6711    4.1630  -21.1518 C   0  0  0  0  0  0  0  0  0  0  0  0
    7.1914    3.7294  -19.7737 C   0  0  0  0  0  0  0  0  0  0  0  0
    5.3490    3.4254  -21.5165 C   0  0  1  0  0  0  0  0  0  0  0  0
    4.8503    3.9572  -22.8845 C   0  0  0  0  0  0  0  0  0  0  0  0
    3.1912   -5.0453  -17.3629 N   0  0  0  0  0  0  0  0  0  0  0  0
    2.5749   -2.5091  -18.3193 N   0  0  0  0  0  0  0  0  0  0  0  0
    4.2641    3.7581  -20.5306 N   0  3  0  0  0  0  0  0  0  0  0  0
    3.2989    4.1813  -18.4639 N   0  0  0  0  0  0  0  0  0  0  0  0
    4.3269   -1.2121  -20.0623 N   0  0  0  0  0  0  0  0  0  0  0  0
    6.0092   -2.4603  -19.1267 O   0  0  0  0  0  0  0  0  0  0  0  0
    6.0069    4.2232  -18.4701 S   0  0  0  0  0  0  0  0  0  0  0  0
    7.4750   -0.3999  -23.3312 H   0  0  0  0  0  0  0  0  0  0  0  0
    7.0823    2.0487  -23.1794 H   0  0  0  0  0  0  0  0  0  0  0  0
    6.2359   -1.9593  -21.8364 H   0  0  0  0  0  0  0  0  0  0  0  0
    4.0674    1.3688  -20.1713 H   0  0  0  0  0  0  0  0  0  0  0  0
    0.6461   -2.8429  -17.5495 H   0  0  0  0  0  0  0  0  0  0  0  0
    5.1289   -4.6989  -18.1114 H   0  0  0  0  0  0  0  0  0  0  0  0
   -0.7908   -4.2793  -17.1727 H   0  0  0  0  0  0  0  0  0  0  0  0
   -1.1289   -5.8021  -16.1403 H   0  0  0  0  0  0  0  0  0  0  0  0
    1.2530   -6.2697  -16.0224 H   0  0  0  0  0  0  0  0  0  0  0  0
    6.4847    5.2470  -21.1394 H   0  0  0  0  0  0  0  0  0  0  0  0
    7.4321    3.9305  -21.9113 H   0  0  0  0  0  0  0  0  0  0  0  0
    7.3140    2.6363  -19.7586 H   0  0  0  0  0  0  0  0  0  0  0  0
    8.1624    4.2100  -19.5838 H   0  0  0  0  0  0  0  0  0  0  0  0
    4.6883    5.0432  -22.8194 H   0  0  0  0  0  0  0  0  0  0  0  0
    5.6040    3.7448  -23.6571 H   0  0  0  0  0  0  0  0  0  0  0  0
    3.9049    3.4607  -23.1482 H   0  0  0  0  0  0  0  0  0  0  0  0
    3.3273    3.7839  -20.8796 H   0  0  0  0  0  0  0  0  0  0  0  0
    3.3903    4.4058  -17.4937 H   0  0  0  0  0  0  0  0  0  0  0  0
    2.3908    4.0736  -18.8687 H   0  0  0  0  0  0  0  0  0  0  0  0
    3.3403   -1.0497  -20.0476 H   0  0  0  0  0  0  0  0  0  0  0  0
  1  2  2  0  0  0  0
  1  3  1  0  0  0  0
  2  7  1  0  0  0  0
  3  8  2  0  0  0  0
  4  7  2  0  0  0  0
  4  8  1  0  0  0  0
  5  9  2  0  0  0  0
  5 20  1  0  0  0  0
  6 10  1  0  0  0  0
  6 19  2  0  0  0  0
  7 17  1  0  0  0  0
  8 23  1  0  0  0  0
  9 13  1  0  0  0  0
  9 19  1  0  0  0  0
 10 14  1  0  0  0  0
 10 20  2  0  0  0  0
 11 21  2  0  0  0  0
 11 22  1  0  0  0  0
 11 25  1  0  0  0  0
 12 13  2  0  0  0  0
 14 23  1  0  0  0  0
 14 24  2  0  0  0  0
 15 16  1  0  0  0  0
 15 17  1  0  0  0  0
 16 25  1  0  0  0  0
 17 18  1  0  0  0  0
 17 21  1  0  0  0  0
  1 26  1  0  0  0  0
  2 27  1  0  0  0  0
  3 28  1  0  0  0  0
  4 29  1  0  0  0  0
  5 30  1  0  0  0  0
  6 31  1  0  0  0  0
 12 32  1  0  0  0  0
 12 33  1  0  0  0  0
 13 34  1  0  0  0  0
 15 35  1  0  0  0  0
 15 36  1  0  0  0  0
 16 37  1  0  0  0  0
 16 38  1  0  0  0  0
 18 39  1  0  0  0  0
 18 40  1  0  0  0  0
 18 41  1  0  0  0  0
 21 42  1  0  0  0  0
 22 43  1  0  0  0  0
 22 44  1  0  0  0  0
 23 45  1  0  0  0  0
M  CHG  1  21   1
M  END
> <OMEGA_C>
oifYQMhXV7zuALXBEM7QQLwmsD80WrTBS3/BQHmlZb8ITq7Bn7CaQPk4fj9nqabBRabRP+3BT8D5
h43BnC2EQP3EicBq6o/B7TOyQKL58j+bFK3Bc9KiQL8axr5WFKfBLJn4P+J4kcBbuYnB/l10QAwy
QcCP5pPB482NQNycgEDH+5nBVSfcvhCKpMCyDoXBgvNrP3HLrMCQj4TBLtmZQNWLD8ClDprBfnnV
QD03hUDnNqnBvh/mQEuubkB5MJ7BAiurQNM5W0C8IazBAjabQJVCfUCDE7fBRzxMQAhzocAg54rB
isskQHqVIMAHjpLBLnOIQAGEcECxPqTBqiBTQAjNhUAMtpPBynWKQNwlm7+Zf6DBFUvAQPp0HcB7
A5nBgzjAQKQkh0DdwpPBgTPvQGa+zL5jprrBF6LiQI0eA0Bnb7nBMYzHQK7J+r/tsK7BiiiCQOg1
rz/HXqHBo2glP9PxNcBQZYzBlR+kQJRdlsA75JDBqHRKvxDwiMC9YYnB+n+QvxSrucBUH4HBAWGg
P0KhyMDMLYDBgILPQInnp0B4HanBo9PtQPiMe0BRSq/BZAzqQPW5KECPEZ7BZZkCQQu4hkCVq5zB
RAaWQCJioUALjrbBzlOzQGCqb0DMQb3BXel5QIt7XUCXL7nBmfJUQP0rckCDCafBRftYQGb8jEAm
84vBngMZQEtbgkAy85bB08ZVQN1chr+DYaDB

> <OMEGA_E>
bC0gPw==

> <OMEGA_NBR>
      5683

$$$$
218301
  -OEChem-04172616093D

 42 44  0     1  0  0  0  0  0999 V2000
    2.0091   -4.0493  -16.7215 C   0  0  0  0  0  0  0  0  0  0  0  0
    5.9990   -0.8529  -21.9479 C   0  0  0  0  0  0  0  0  0  0  0  0
    3.0307   -4.8817  -17.2007 C   0  0  0  0  0  0  0  0  0  0  0  0
    6.7372    0.0364  -22.7377 C   0  0  0  0  0  0  0  0  0  0  0  0
    4.9861    1.0348  -20.7941 C   0  0  0  0  0  0  0  0  0  0  0  0
    1.8465   -2.7693  -17.2826 C   0  0  0  0  0  0  0  0  0  0  0  0
    5.7110    1.9588  -21.5968 C   0  0  0  0  0  0  0  0  0  0  0  0
    5.1323   -0.3558  -20.9498 C   0  0  0  0  0  0  0  0  0  0  0  0
    6.6067    1.4259  -22.5707 C   0  0  0  0  0  0  0  0  0  0  0  0
    3.8677   -4.4142  -18.2267 C   0  0  0  0  0  0  0  0  0  0  0  0
    3.6701   -3.1000  -18.7425 C   0  0  0  0  0  0  0  0  0  0  0  0
    4.3610    3.8727  -19.2089 C   0  0  0  0  0  0  0  0  0  0  0  0
    4.5603   -2.5118  -19.7773 C   0  0  0  0  0  0  0  0  0  0  0  0
    7.1690    3.6947  -19.5076 C   0  0  0  0  0  0  0  0  0  0  0  0
    5.4946    3.4993  -21.4172 C   0  0  1  0  0  0  0  0  0  0  0  0
    6.7522    4.2656  -20.8695 C   0  0  0  0  0  0  0  0  0  0  0  0
    5.0663    4.1202  -22.7753 C   0  0  0  0  0  0  0  0  0  0  0  0
    2.6628   -2.3193  -18.2626 N   0  0  0  0  0  0  0  0  0  0  0  0
    4.3197    3.7580  -20.5211 N   0  3  0  0  0  0  0  0  0  0  0  0
    3.1548    3.9361  -18.5309 N   0  0  0  0  0  0  0  0  0  0  0  0
    4.3610   -1.1688  -20.1099 N   0  0  0  0  0  0  0  0  0  0  0  0
    5.5029   -3.1530  -20.2277 O   0  0  0  0  0  0  0  0  0  0  0  0
    7.3363    2.2139  -23.3886 F   0  0  0  0  0  0  0  0  0  0  0  0
    4.8422   -5.2344  -18.6887 F   0  0  0  0  0  0  0  0  0  0  0  0
    6.4687    5.5935  -20.7318 F   0  0  0  0  0  0  0  0  0  0  0  0
    7.8133    4.1795  -21.7093 F   0  0  0  0  0  0  0  0  0  0  0  0
    5.8546    3.9738  -18.2640 S   0  0  0  0  0  0  0  0  0  0  0  0
    1.3550   -4.3866  -15.9311 H   0  0  0  0  0  0  0  0  0  0  0  0
    6.0921   -1.9178  -22.1017 H   0  0  0  0  0  0  0  0  0  0  0  0
    3.1718   -5.8690  -16.7863 H   0  0  0  0  0  0  0  0  0  0  0  0
    7.4152   -0.3498  -23.4844 H   0  0  0  0  0  0  0  0  0  0  0  0
    4.3051    1.4109  -20.0449 H   0  0  0  0  0  0  0  0  0  0  0  0
    1.0522   -2.1320  -16.9228 H   0  0  0  0  0  0  0  0  0  0  0  0
    7.3485    2.6141  -19.6079 H   0  0  0  0  0  0  0  0  0  0  0  0
    8.0929    4.1905  -19.1750 H   0  0  0  0  0  0  0  0  0  0  0  0
    4.9135    5.2025  -22.6523 H   0  0  0  0  0  0  0  0  0  0  0  0
    5.8532    3.9437  -23.5234 H   0  0  0  0  0  0  0  0  0  0  0  0
    4.1288    3.6536  -23.1122 H   0  0  0  0  0  0  0  0  0  0  0  0
    3.4253    3.8519  -20.9585 H   0  0  0  0  0  0  0  0  0  0  0  0
    3.1450    4.0362  -17.5359 H   0  0  0  0  0  0  0  0  0  0  0  0
    2.2936    3.8818  -19.0364 H   0  0  0  0  0  0  0  0  0  0  0  0
    3.5637   -0.7315  -19.6939 H   0  0  0  0  0  0  0  0  0  0  0  0
  1  3  1  0  0  0  0
  1  6  2  0  0  0  0
  2  4  2  0  0  0  0
  2  8  1  0  0  0  0
  3 10  2  0  0  0  0
  4  9  1  0  0  0  0
  5  7  1  0  0  0  0
  5  8  2  0  0  0  0
  6 18  1  0  0  0  0
  7  9  2  0  0  0  0
  7 15  1  0  0  0  0
  8 21  1  0  0  0  0
  9 23  1  0  0  0  0
 10 11  1  0  0  0  0
 10 24  1  0  0  0  0
 11 13  1  0  0  0  0
 11 18  2  0  0  0  0
 12 19  2  0  0  0  0
 12 20  1  0  0  0  0
 12 27  1  0  0  0  0
 13 21  1  0  0  0  0
 13 22  2  0  0  0  0
 14 16  1  0  0  0  0
 14 27  1  0  0  0  0
 15 16  1  0  0  0  0
 15 17  1  0  0  0  0
 15 19  1  0  0  0  0
 16 25  1  0  0  0  0
 16 26  1  0  0  0  0
  1 28  1  0  0  0  0
  2 29  1  0  0  0  0
  3 30  1  0  0  0  0
  4 31  1  0  0  0  0
  5 32  1  0  0  0  0
  6 33  1  0  0  0  0
 14 34  1  0  0  0  0
 14 35  1  0  0  0  0
 17 36  1  0  0  0  0
 17 37  1  0  0  0  0
 17 38  1  0  0  0  0
 19 39  1  0  0  0  0
 20 40  1  0  0  0  0
 20 41  1  0  0  0  0
 21 42  1  0  0  0  0
M  CHG  1  19   1
M  END
> <OMEGA_C>
ZZUAQI6TgcCKxYXBzve/QGxUWr9ala/BYfZBQN82nMAFm4nBNpfXQI0bFT3h5rXB/I2fQDBzhD9J
WqbBOFnsP8s7McDAQorBssC2QAm7+j9IxqzB2DukQAIotr46mafBCmrTQFCCtj/ckLTBrYh3QPpA
jcBD0JHBNeJqQPFlRsC78JXBrY2LQLfad0DDq5nBL+6RQCHCIMDeN57B22jlQId1bECLD5zBI9Sv
QKj0X0BjVqvBzhHYQL1/iECn9KbB3h6iQEbYg0DOM7bB4msqQC1vFMDmGZLB+TqKQNqDcEBAK6TB
dedJQDjpe0A9P5TBr42LQPWalb8c4aDBGxiwQErKScBA0qHBHsPqQCyxDUDnG7vBsfOaQFqAp8B4
gpXB9v/OQMf9skDO2qXBiAb6QDC+hUChrK3B3li7QBZTfkCxHJLBq2+tP8VejMCl5X7BxPLCQAR6
9b860LDBef5KQP7Ou8BvSobBckntQCEcs74W4LvBiMOJQBGXtD8BXKDBNq+GP7FyCMDnYYfBAyfr
QMhMJ0AS3ZzBo3wBQUIYhkBRZpnBFjudQBB7pkD2N7XBCE27QBFmfED2L7zBPh+EQBvUaUC45bjB
uThbQDGFdkAIq6fBY0hJQJMogUCfSYzB0MoSQP9ueEB4SpjBbhRkQP5EO78CjZ3BZST1P3w4gMC+
J4bBdR3AQLqvbL8s5a/BTx48QEWUm8Afn4nBNa7WQGCs07xMaLbBlkufQIB/cz/en6bB1n7nPxA2
LsDtp4rBWai1QOxI8D+xIK3B/EukQMXa3L7c6afBTKDRQCh1rj+YILXBux91QIxFjcAjiZHBT1lr
QP+LRsBnxZXB/bSKQDJbgkCK2pnBXKuSQKR7I8A4F57B2JbZQLRSpUBRJ5/BbROzQCcBWUBfeqrB
0yPeQFZodEDs1aTB+xeqQGahh0BvrbTBFC4rQOrOEsBiN5LBm7yLQDn3aECSx6PBDaZKQPlfeUCf
EJTB5AaMQBNxnb+ZFKHBmYuwQM2qTcA/o6HBcHfoQA//CkCGobvB+rSZQJYuqMAj75TB1Gf+QOsg
fEAcD6zB72LqQNqJOECee53BlUS1QGtNnkCu55PBErWbP9qaisCcGYDBk//DQBKb/r8D+7DB/qdC
QGM6u8CVP4bBmibsQAnAzr4Rd7zBWd2JQD/9qD/lhaDB1VWCP6saBMD0A4jBjQj5QMsRsEA0QJzB
SoLMQKM7vUALuaTBBHmoQBi1qUCIgrLB7P7DQNmtgkCdgbrBnHaLQFBXe0AxOrjBhgJfQJI5XUCL
P6fBtedFQGFqiEAvpYzBMG4ZQGC8WUB9TpfB449kQDFmSr9f4p3B

> <OMEGA_E>
8BSGPkgWoz4=

> <OMEGA_NBR>
      7445

$$$$
218302
  -OEChem-04172616093D

 44 46  0     1  0  0  0  0  0999 V2000
    5.9473   -0.9252  -22.0468 C   0  0  0  0  0  0  0  0  0  0  0  0
    6.7027   -0.0321  -22.8167 C   0  0  0  0  0  0  0  0  0  0  0  0
    4.9239    0.9543  -20.8895 C   0  0  0  0  0  0  0  0  0  0  0  0
    3.8830   -4.2884  -18.1777 C   0  0  0  0  0  0  0  0  0  0  0  0
    1.8822   -2.6461  -17.3153 C   0  0  0  0  0  0  0  0  0  0  0  0
    5.6767    1.8751  -21.6531 C   0  0  0  0  0  0  0  0  0  0  0  0
    5.0670   -0.4239  -21.0681 C   0  0  0  0  0  0  0  0  0  0  0  0
    6.5857    1.3561  -22.6206 C   0  0  0  0  0  0  0  0  0  0  0  0
    3.6860   -3.0078  -18.7410 C   0  0  0  0  0  0  0  0  0  0  0  0
    2.0924   -3.9157  -16.7397 C   0  0  0  0  0  0  0  0  0  0  0  0
    4.3363    3.9074  -19.1695 C   0  0  0  0  0  0  0  0  0  0  0  0
    4.5667   -2.5010  -19.7931 C   0  0  0  0  0  0  0  0  0  0  0  0
    6.8618    4.9211  -19.5939 C   0  0  0  0  0  0  0  0  0  0  0  0
    5.6464    3.3738  -21.2659 C   0  0  1  0  0  0  0  0  0  0  0  0
    7.0001    3.7126  -20.5187 C   0  0  0  0  0  0  0  0  0  0  0  0
    1.1471   -4.4123  -15.6796 C   0  0  0  0  0  0  0  0  0  0  0  0
    5.4337    4.2818  -22.5119 C   0  0  0  0  0  0  0  0  0  0  0  0
    2.6837   -2.2099  -18.2994 N   0  0  0  0  0  0  0  0  0  0  0  0
    3.0798   -4.7236  -17.1882 N   0  0  0  0  0  0  0  0  0  0  0  0
    4.3982    3.6522  -20.4580 N   0  3  0  0  0  0  0  0  0  0  0  0
    3.1070    3.8148  -18.5366 N   0  0  0  0  0  0  0  0  0  0  0  0
    4.2920   -1.2204  -20.2463 N   0  0  0  0  0  0  0  0  0  0  0  0
    5.5550   -3.1381  -20.1421 O   0  0  0  0  0  0  0  0  0  0  0  0
    7.3912    2.1574  -23.3491 F   0  0  0  0  0  0  0  0  0  0  0  0
    7.9844    3.9991  -21.4107 F   0  0  0  0  0  0  0  0  0  0  0  0
    7.4236    2.6523  -19.7670 F   0  0  0  0  0  0  0  0  0  0  0  0
    5.7170    4.4709  -18.2561 S   0  0  0  0  0  0  0  0  0  0  0  0
    6.0389   -1.9900  -22.2022 H   0  0  0  0  0  0  0  0  0  0  0  0
    7.3804   -0.4120  -23.5669 H   0  0  0  0  0  0  0  0  0  0  0  0
    4.2246    1.3232  -20.1538 H   0  0  0  0  0  0  0  0  0  0  0  0
    4.6799   -4.9200  -18.5416 H   0  0  0  0  0  0  0  0  0  0  0  0
    1.0738   -2.0225  -16.9632 H   0  0  0  0  0  0  0  0  0  0  0  0
    7.8435    5.1842  -19.1732 H   0  0  0  0  0  0  0  0  0  0  0  0
    6.4620    5.7781  -20.1557 H   0  0  0  0  0  0  0  0  0  0  0  0
    1.4166   -5.4415  -15.4002 H   0  0  0  0  0  0  0  0  0  0  0  0
    1.2150   -3.7626  -14.7945 H   0  0  0  0  0  0  0  0  0  0  0  0
    0.1184   -4.3955  -16.0687 H   0  0  0  0  0  0  0  0  0  0  0  0
    5.4176    5.3364  -22.1993 H   0  0  0  0  0  0  0  0  0  0  0  0
    6.2557    4.1235  -23.2254 H   0  0  0  0  0  0  0  0  0  0  0  0
    4.4773    4.0272  -22.9920 H   0  0  0  0  0  0  0  0  0  0  0  0
    3.5306    3.6410  -20.9552 H   0  0  0  0  0  0  0  0  0  0  0  0
    3.0203    4.0682  -17.5732 H   0  0  0  0  0  0  0  0  0  0  0  0
    2.3066    3.4945  -19.0434 H   0  0  0  0  0  0  0  0  0  0  0  0
    3.4262   -0.8237  -19.9412 H   0  0  0  0  0  0  0  0  0  0  0  0
  1  2  2  0  0  0  0
  1  7  1  0  0  0  0
  2  8  1  0  0  0  0
  3  6  1  0  0  0  0
  3  7  2  0  0  0  0
  4  9  2  0  0  0  0
  4 19  1  0  0  0  0
  5 10  1  0  0  0  0
  5 18  2  0  0  0  0
  6  8  2  0  0  0  0
  6 14  1  0  0  0  0
  7 22  1  0  0  0  0
  8 24  1  0  0  0  0
  9 12  1  0  0  0  0
  9 18  1  0  0  0  0
 10 16  1  0  0  0  0
 10 19  2  0  0  0  0
 11 20  2  0  0  0  0
 11 21  1  0  0  0  0
 11 27  1  0  0  0  0
 12 22  1  0  0  0  0
 12 23  2  0  0  0  0
 13 15  1  0  0  0  0
 13 27  1  0  0  0  0
 14 15  1  0  0  0  0
 14 17  1  0  0  0  0
 14 20  1  0  0  0  0
 15 25  1  0  0  0  0
 15 26  1  0  0  0  0
  1 28  1  0  0  0  0
  2 29  1  0  0  0  0
  3 30  1  0  0  0  0
  4 31  1  0  0  0  0
  5 32  1  0  0  0  0
 13 33  1  0  0  0  0
 13 34  1  0  0  0  0
 16 35  1  0  0  0  0
 16 36  1  0  0  0  0
 16 37  1  0  0  0  0
 17 38  1  0  0  0  0
 17 39  1  0  0  0  0
 17 40  1  0  0  0  0
 20 41  1  0  0  0  0
 21 42  1  0  0  0  0
 21 43  1  0  0  0  0
 22 44  1  0  0  0  0
M  CHG  1  20   1
M  END
> <OMEGA_C>
GFC+QHHZbL/LX7DBVnzWQNB+A72hiLbBsZCdQFhMdD+yHafBmoN4QLk6icDna5HBpuzwP7lZKcCw
hYrBl6e1QBAC8D+hOa3BxySiQBIL2b5qi6jB7r3SQIaUrT/l9rTBTOdrQBZ/QMCD7ZXBdukFQKaa
esD16oXBrsKKQCcSekAqW5nBVCKSQJEPIMBEWJ7BCZTbQEd5nUBCwJzBPa+0QHDsV0B/IKrBfwDg
QNmbbUBSJqTBsdOSP0oxjcB+33rBgOCtQLgEiUBaGLTBDcIrQBJvDcBEZZLBMRtFQBEol8BrgYnB
EL6MQOu8aUAVqqPBrdhGQIYldEAPS5TB11eJQIA1nL97+KHB6cKxQMLWSMAMI6HBfoTsQBATCkD9
yrrB8X//QMjwf0AmSavBY47tQBrAKUDpIp7BUvG2QKARj0B1DJLB7z7BQNy4/r8PnrHB5yvsQJPt
0r4bibzBGzCHQGdfqT/yOqHB/cGVQNhwncAuVZTBQnGJP1pxAcCStIfBQv76QBjlpUCwYpnBiMjO
QB/muEDRPqHBiFG1P/cgrsBpZ3bBiYObPzzOcMBVtmzBKmjyPbenjMDAjIDB3FytQHXDqkA1mLHB
zi7IQNbzg0C1zbnBvEWPQPLegECU77fBEfVhQFQFaUAnpKfBEUxBQAEvgkDnlYzB6J4TQJOmX0Dk
WJjBG0dbQKXfUr+Ah5/BeATCQC0wXL/lF7DBbDXYQHBsTz0dh7bBWSmiQD5PgD+yX6bBp+UrQIlb
C8DIb5LBSNZEQFtjlcD6XorBEqG3QMy3+D8Y4KzBbjynQNr+v77U66fBQ2jTQAr/tz8q/rTB0dtt
QAROQcDnaZbBZ7EEQBjYc8ADS4bB1ZGKQLDOdkAAcZnBH9+TQBrjIMDjsp7B/yzkQOIfaUC1d5vB
h+6vQP/vXUChDavBmBvYQGrHhkAYeabB4caRP3J5icAkZ3vBMBWiQEXcg0BqxrXB77t4QJpSiMCw
V5LBsRnxP2RvJcDRforBztSJQO/1a0B35qPBI1tHQN3YfEDoK5TB9CKPQFBrlr8OQ6HBBGuwQBZK
TsBoU6LB6oTpQI35D0DpmrvB9rnPQJZysUA5iKXBwo36QNvZgkCL/qzBxuC5QIhcf0A7wpHBoGfF
QBcc9r9PYrHB3TvtQG2aoL4ZvLzBZF+NQI9DrT/LEaDB7gsjQPsImb9b3JXB5EtMQAYbtcCUEYfB
9aPoQB5/I0AmIpzBLRQBQchvg0DlvZjB0uHFPn1iYcCACnjB5b0iP1TUpsD7aoDBzgbbP4FJkMBh
w2zBYZqcQMtHpkAXi7TBPHO7QFusfkAtxbvBSmGEQMmFaUDDnLjBdzxaQN8rbUC4bafBIuhFQGXk
gkCBQIzBU6sQQM9EeECsSZjBV9NsQInMN7/nvJ3BqmfBQIycbL8WhbDBJLTWQAASELs/FLfBSN2g
QMpTbD/WyqbBDawqQMkxDMDFxJLBXPlBQNANlcBVNorB1Om1QGZR7z+zRq3BgGOmQJBI5b4hXqjB
+CrRQIkVsT+GjbXBK4lsQMtWQ8DPiZbBC0YCQM/DccCKUYbBAuSJQIYAgkDSr5nBTuOTQC84JMAw
xp7BdK/bQPxGoUCEKp7B1tCzQH8tV0DqCKrBRkfeQDnda0BMyaPBx+CLP8I5h8AlTHvB/FCtQHZC
iUCL5bPBw3x2QND9iMCyOpLBjvPtP4MkJMDCw4rBwt2LQBFGZkDzhaPBUshHQE3eeUB2G5TBUmmO
QEVon78+taHBXN+xQPRlUMA74KHB1ALnQGzQDUCoEbzBNxsAQS3ybUAllKrBlnHmQJZsLkCyRpzB
Jk20QDZ+nUAjcpPBvK7FQIcn/r/KtbHBu4vrQMjEtr4OXL3BAwSMQMkDoj9UeKDBwTsiQGA0nL87
apbBw5tIQP+CtMBgu4bBiyL7QJaWqUC9zZrBhtrRQNQHukBs66PBVFKyPskKXMBbSnjBF6MUPxet
pMDaL4DB3oXUP1Z6jcBujGzBGQKsQPHLqkBuPrHBkSrIQE8ThUCBfbnBnS2PQFDhgECI7rfBPgVg
QFc7WEA2DKfBEQhCQGPEiECLtYzBi7UWQAXkWkD7epfBDNFpQNIaTL+6d57B

> <OMEGA_E>
yH24PpSS1D5IOfI+

> <OMEGA_NBR>
     10043

$$$$
218307
  -OEChem-04172616093D

 48 51  0     1  0  0  0  0  0999 V2000
    6.0881   -0.8710  -21.9187 C   0  0  0  0  0  0  0  0  0  0  0  0
    6.8534    0.0427  -22.6522 C   0  0  0  0  0  0  0  0  0  0  0  0
    4.9221    0.9803  -20.8484 C   0  0  0  0  0  0  0  0  0  0  0  0
    3.8476   -4.3492  -18.2549 C   0  0  0  0  0  0  0  0  0  0  0  0
    1.8947   -2.6844  -17.3280 C   0  0  0  0  0  0  0  0  0  0  0  0
    5.6738    1.9181  -21.5890 C   0  0  0  0  0  0  0  0  0  0  0  0
    5.1400   -0.3952  -20.9893 C   0  0  0  0  0  0  0  0  0  0  0  0
    6.6681    1.4259  -22.4816 C   0  0  0  0  0  0  0  0  0  0  0  0
    3.6892   -3.0414  -18.7665 C   0  0  0  0  0  0  0  0  0  0  0  0
    2.0617   -3.9843  -16.8097 C   0  0  0  0  0  0  0  0  0  0  0  0
    4.3551    3.8381  -19.1855 C   0  0  0  0  0  0  0  0  0  0  0  0
    4.5857   -2.5190  -19.7974 C   0  0  0  0  0  0  0  0  0  0  0  0
    7.6534    4.8445  -21.8022 C   0  0  0  0  0  0  0  0  0  0  0  0
    6.6652    5.7000  -20.9664 C   0  0  0  0  0  0  0  0  0  0  0  0
    7.1769    3.6310  -19.5412 C   0  0  0  0  0  0  0  0  0  0  0  0
    5.3929    3.4316  -21.4354 C   0  0  1  0  0  0  0  0  0  0  0  0
    6.6427    4.1700  -20.8690 C   0  0  0  0  0  0  0  0  0  0  0  0
    1.1417   -4.4665  -15.7213 C   0  0  0  0  0  0  0  0  0  0  0  0
    4.8796    3.9572  -22.8082 C   0  0  0  0  0  0  0  0  0  0  0  0
    2.7101   -2.2329  -18.2937 N   0  0  0  0  0  0  0  0  0  0  0  0
    3.0292   -4.8007  -17.2854 N   0  0  0  0  0  0  0  0  0  0  0  0
    4.2610    3.6952  -20.4938 N   0  3  0  0  0  0  0  0  0  0  0  0
    3.1750    4.0202  -18.4843 N   0  0  0  0  0  0  0  0  0  0  0  0
    4.3551   -1.2097  -20.1924 N   0  0  0  0  0  0  0  0  0  0  0  0
    5.5304   -3.1894  -20.1996 O   0  0  0  0  0  0  0  0  0  0  0  0
    7.4495    2.2555  -23.2036 F   0  0  0  0  0  0  0  0  0  0  0  0
    5.8785    3.8184  -18.2608 S   0  0  0  0  0  0  0  0  0  0  0  0
    6.2225   -1.9328  -22.0634 H   0  0  0  0  0  0  0  0  0  0  0  0
    7.5913   -0.3172  -23.3540 H   0  0  0  0  0  0  0  0  0  0  0  0
    4.1658    1.3302  -20.1613 H   0  0  0  0  0  0  0  0  0  0  0  0
    4.6272   -4.9882  -18.6426 H   0  0  0  0  0  0  0  0  0  0  0  0
    1.1083   -2.0498  -16.9469 H   0  0  0  0  0  0  0  0  0  0  0  0
    7.5315    4.7699  -22.8928 H   0  0  0  0  0  0  0  0  0  0  0  0
    8.7245    4.8378  -21.5517 H   0  0  0  0  0  0  0  0  0  0  0  0
    7.0341    6.3008  -20.1220 H   0  0  0  0  0  0  0  0  0  0  0  0
    5.8411    6.2330  -21.4631 H   0  0  0  0  0  0  0  0  0  0  0  0
    7.4363    2.5678  -19.6516 H   0  0  0  0  0  0  0  0  0  0  0  0
    8.0719    4.1981  -19.2456 H   0  0  0  0  0  0  0  0  0  0  0  0
    1.4084   -5.4974  -15.4450 H   0  0  0  0  0  0  0  0  0  0  0  0
    1.2411   -3.8139  -14.8414 H   0  0  0  0  0  0  0  0  0  0  0  0
    0.1026   -4.4407  -16.0814 H   0  0  0  0  0  0  0  0  0  0  0  0
    4.6695    5.0344  -22.7337 H   0  0  0  0  0  0  0  0  0  0  0  0
    5.6476    3.7859  -23.5768 H   0  0  0  0  0  0  0  0  0  0  0  0
    3.9588    3.4225  -23.0844 H   0  0  0  0  0  0  0  0  0  0  0  0
    3.3473    3.7702  -20.8933 H   0  0  0  0  0  0  0  0  0  0  0  0
    3.1962    4.1352  -17.4911 H   0  0  0  0  0  0  0  0  0  0  0  0
    2.3016    4.0366  -18.9710 H   0  0  0  0  0  0  0  0  0  0  0  0
    3.5077   -0.7991  -19.8560 H   0  0  0  0  0  0  0  0  0  0  0  0
  1  2  2  0  0  0  0
  1  7  1  0  0  0  0
  2  8  1  0  0  0  0
  3  6  1  0  0  0  0
  3  7  2  0  0  0  0
  4  9  2  0  0  0  0
  4 21  1  0  0  0  0
  5 10  1  0  0  0  0
  5 20  2  0  0  0  0
  6  8  2  0  0  0  0
  6 16  1  0  0  0  0
  7 24  1  0  0  0  0
  8 26  1  0  0  0  0
  9 12  1  0  0  0  0
  9 20  1  0  0  0  0
 10 18  1  0  0  0  0
 10 21  2  0  0  0  0
 11 22  2  0  0  0  0
 11 23  1  0  0  0  0
 11 27  1  0  0  0  0
 12 24  1  0  0  0  0
 12 25  2  0  0  0  0
 13 14  1  0  0  0  0
 13 17  1  0  0  0  0
 14 17  1  0  0  0  0
 15 17  1  0  0  0  0
 15 27  1  0  0  0  0
 16 17  1  0  0  0  0
 16 19  1  0  0  0  0
 16 22  1  0  0  0  0
  1 28  1  0  0  0  0
  2 29  1  0  0  0  0
  3 30  1  0  0  0  0
  4 31  1  0  0  0  0
  5 32  1  0  0  0  0
 13 33  1  0  0  0  0
 13 34  1  0  0  0  0
 14 35  1  0  0  0  0
 14 36  1  0  0  0  0
 15 37  1  0  0  0  0
 15 38  1  0  0  0  0
 18 39  1  0  0  0  0
 18 40  1  0  0  0  0
 18 41  1  0  0  0  0
 19 42  1  0  0  0  0
 19 43  1  0  0  0  0
 19 44  1  0  0  0  0
 22 45  1  0  0  0  0
 23 46  1  0  0  0  0
 23 47  1  0  0  0  0
 24 48  1  0  0  0  0
M  CHG  1  22   1
M  END
> <OMEGA_C>
q9HCQDr3Xr+VWa/BbE/bQFC5Lj3BN7XBh4GdQJ7zej94yabB1T92QEUsi8AZCpLBNYbyP9zNK8C7
n4rBnI+1QFyD9T8+tqzBo3qkQDRYyr4B6qfBSmHVQGeEtj9J2rPBKxtsQIamQsC4IZbBNvIDQP7+
fsBIeobBXF2LQACjdUD6e5nB/72SQBg4IcASYZ7B3uj0QFcGm0Dcaq7BnknVQM9mtkAxu6fBOKnl
QLZiaEB0VJzB6pKsQJaeW0Cae6vBLJHUQEBwhUCz86bBAyOSP+rtjsBHinvBZiWcQB5DfUA7d7bB
w3EtQDbnDsBxWZLBAt9BQJmfmcB8SIrB+lmIQD5+bEBl86PBqTNLQBSlgEDB35PBXF2LQGfYmr8M
iqHByfiwQMQfTMDHmKHBomLuQMZaEEDzoLnBUxy8QDxgdEAJFpLBxh7HQH5k97/XgbDBDezyQMVk
or721LrBlE6FQNlCqj9HSqHBNRKUQH+fn8D2I5XBfN2NP8ovA8BXk4fBywHxQEKjmECNJLfBkJcL
QeLOmkDWaazBURfhQP+fyUDM+aDB/Om6QF90x0CDtKvBZPbtQERWJEB6Np3BqCYBQW1WhkD89pnB
H0W0P1jqr8DHHnfBt92eP7sWdMBgdm3BQTLSPVEajsCtpoDBxGyVQN4ZoUCb3rXBh7m0QI1LckA+
nbzBGl19QB0KW0DTrLjBgDpWQDFLcUCOJafBEY9MQLhThEDS7YvBvk0TQI8rgUCKxJfBWH1gQMGS
TL8o2Z7BLjnFQGrvWr+nALDBxn3cQLAurz2L77XBSgygQHvVdj+o9KbBIvQsQL3OCMDh1JLBVglG
QI60ksBI+4nBYZy2QBZ59j+I7KzB44GnQACCzb5rXKjBwvnVQOmPuz+rVLTBeK5vQH2IP8AidpbB
fvUCQOMOb8DXj4bBFZqKQPPLdEA2WJnBZLOUQJORIcA76p7BawT1QGI5m0CTw63Bu/nUQL4HtkCg
DafBrdzkQNEdZkC455vBa7usQK1RW0CoTqvBUFTUQMQJhUBHg6bB8n6SP9rthMDoD3vBu0GcQGlz
f0DlKLbBliV7QCyPhsDE7JHBJXTwP0MwIcBN9YrBtP+HQPgHaUAtyKPBun9JQHDLgUBO4pPBn6SO
QBZ+m7+3DaLB4M2xQC/mTsAPRKLBakzuQPaTFECDCbrB/d26QBWicUCMxpHBCwbKQFbY9L9tRrHB
o5TzQHRTf76dx7vBG4aIQIfcpD8yLqHBvbYkQANllb/tepbBM8dOQMV1scDeMYbB7pXxQCp+mUDn
grbBS5cLQRrqmkCWpavBzF/gQCHByED+KqDBJMe6QDBVx0BPCKvB4PTsQB4NIkAN4pzB+MIAQXTb
hEBBZZnBgundPvwMVsBehHfBqDoXP2PlocCQsn/Bdf7fP3Gti8C8wmzBmeuUQAj4oUC0RbXBERC1
QB8Sd0CUULzBj0p+QDTbXEAMkLjBaFdVQK9JaUBj+6bBSklKQP4HhkB99IvBQg4SQOPlgkDj3pfB
3bhnQPU4Sr8gS5/B

> <OMEGA_E>
YEeZPrBz1z4=

> <OMEGA_NBR>
     11976

$$$$
221266
  -OEChem-04172616093D

 48 51  0     1  0  0  0  0  0999 V2000
   -0.4681   -5.0041  -16.6745 C   0  0  0  0  0  0  0  0  0  0  0  0
   -0.8022   -4.0160  -17.6235 C   0  0  0  0  0  0  0  0  0  0  0  0
    0.8844   -5.2809  -16.3851 C   0  0  0  0  0  0  0  0  0  0  0  0
    3.2635   -4.8290  -16.7772 C   0  0  0  0  0  0  0  0  0  0  0  0
    6.4282    1.2390  -22.5935 C   0  0  0  0  0  0  0  0  0  0  0  0
    0.2152   -3.3019  -18.2865 C   0  0  0  0  0  0  0  0  0  0  0  0
    6.6267   -0.1518  -22.7113 C   0  0  0  0  0  0  0  0  0  0  0  0
    4.2446   -4.0983  -17.4692 C   0  0  0  0  0  0  0  0  0  0  0  0
    4.8536    0.8559  -20.7747 C   0  0  0  0  0  0  0  0  0  0  0  0
    1.9064   -4.5682  -17.0479 C   0  0  0  0  0  0  0  0  0  0  0  0
    5.5433    1.7631  -21.6168 C   0  0  0  0  0  0  0  0  0  0  0  0
    1.5697   -3.5746  -18.0030 C   0  0  0  0  0  0  0  0  0  0  0  0
    5.0713   -0.5285  -20.8716 C   0  0  0  0  0  0  0  0  0  0  0  0
    5.9527   -1.0406  -21.8514 C   0  0  0  0  0  0  0  0  0  0  0  0
    3.8421   -3.1224  -18.4139 C   0  0  0  0  0  0  0  0  0  0  0  0
    4.4264    4.4705  -19.4294 C   0  0  0  0  0  0  0  0  0  0  0  0
    4.8282   -2.3479  -19.1926 C   0  0  0  0  0  0  0  0  0  0  0  0
    6.7614    3.9069  -21.1443 C   0  0  0  0  0  0  0  0  0  0  0  0
    6.6835    5.3984  -20.8059 C   0  0  0  0  0  0  0  0  0  0  0  0
    5.3620    3.2916  -21.4644 C   0  0  1  0  0  0  0  0  0  0  0  0
    4.7815    3.8648  -22.7864 C   0  0  0  0  0  0  0  0  0  0  0  0
    2.5270   -2.8826  -18.6538 N   0  0  0  0  0  0  0  0  0  0  0  0
    4.3401    3.5805  -20.3967 N   0  3  0  0  0  0  0  0  0  0  0  0
    3.3986    4.5213  -18.4999 N   0  0  0  0  0  0  0  0  0  0  0  0
    4.3276   -1.3541  -20.0344 N   0  0  0  0  0  0  0  0  0  0  0  0
    6.0340   -2.5289  -19.0465 O   0  0  0  0  0  0  0  0  0  0  0  0
    6.1169   -2.3762  -22.0106 F   0  0  0  0  0  0  0  0  0  0  0  0
    5.7622    5.6064  -19.2481 S   0  0  0  0  0  0  0  0  0  0  0  0
   -1.2499   -5.5504  -16.1679 H   0  0  0  0  0  0  0  0  0  0  0  0
   -1.8389   -3.8066  -17.8422 H   0  0  0  0  0  0  0  0  0  0  0  0
    1.1376   -6.0374  -15.6571 H   0  0  0  0  0  0  0  0  0  0  0  0
    3.5453   -5.5769  -16.0508 H   0  0  0  0  0  0  0  0  0  0  0  0
    6.9551    1.9120  -23.2536 H   0  0  0  0  0  0  0  0  0  0  0  0
   -0.0423   -2.5449  -19.0124 H   0  0  0  0  0  0  0  0  0  0  0  0
    7.2984   -0.5373  -23.4640 H   0  0  0  0  0  0  0  0  0  0  0  0
    5.2930   -4.2788  -17.2830 H   0  0  0  0  0  0  0  0  0  0  0  0
    4.1502    1.2343  -20.0477 H   0  0  0  0  0  0  0  0  0  0  0  0
    7.4124    3.7778  -22.0215 H   0  0  0  0  0  0  0  0  0  0  0  0
    7.1935    3.3725  -20.2853 H   0  0  0  0  0  0  0  0  0  0  0  0
    7.6995    5.8039  -20.6904 H   0  0  0  0  0  0  0  0  0  0  0  0
    6.1650    5.9335  -21.6152 H   0  0  0  0  0  0  0  0  0  0  0  0
    4.6488    4.9523  -22.6880 H   0  0  0  0  0  0  0  0  0  0  0  0
    5.4754    3.6536  -23.6134 H   0  0  0  0  0  0  0  0  0  0  0  0
    3.8092    3.3942  -22.9942 H   0  0  0  0  0  0  0  0  0  0  0  0
    3.5021    3.0356  -20.4252 H   0  0  0  0  0  0  0  0  0  0  0  0
    3.4302    5.1884  -17.7555 H   0  0  0  0  0  0  0  0  0  0  0  0
    2.6259    3.8909  -18.5739 H   0  0  0  0  0  0  0  0  0  0  0  0
    3.3363   -1.2223  -20.0362 H   0  0  0  0  0  0  0  0  0  0  0  0
  1  2  1  0  0  0  0
  1  3  2  0  0  0  0
  2  6  2  0  0  0  0
  3 10  1  0  0  0  0
  4  8  2  0  0  0  0
  4 10  1  0  0  0  0
  5  7  2  0  0  0  0
  5 11  1  0  0  0  0
  6 12  1  0  0  0  0
  7 14  1  0  0  0  0
  8 15  1  0  0  0  0
  9 11  2  0  0  0  0
  9 13  1  0  0  0  0
 10 12  2  0  0  0  0
 11 20  1  0  0  0  0
 12 22  1  0  0  0  0
 13 14  2  0  0  0  0
 13 25  1  0  0  0  0
 14 27  1  0  0  0  0
 15 17  1  0  0  0  0
 15 22  2  0  0  0  0
 16 23  2  0  0  0  0
 16 24  1  0  0  0  0
 16 28  1  0  0  0  0
 17 25  1  0  0  0  0
 17 26  2  0  0  0  0
 18 19  1  0  0  0  0
 18 20  1  0  0  0  0
 19 28  1  0  0  0  0
 20 21  1  0  0  0  0
 20 23  1  0  0  0  0
  1 29  1  0  0  0  0
  2 30  1  0  0  0  0
  3 31  1  0  0  0  0
  4 32  1  0  0  0  0
  5 33  1  0  0  0  0
  6 34  1  0  0  0  0
  7 35  1  0  0  0  0
  8 36  1  0  0  0  0
  9 37  1  0  0  0  0
 18 38  1  0  0  0  0
 18 39  1  0  0  0  0
 19 40  1  0  0  0  0
 19 41  1  0  0  0  0
 21 42  1  0  0  0  0
 21 43  1  0  0  0  0
 21 44  1  0  0  0  0
 23 45  1  0  0  0  0
 24 46  1  0  0  0  0
 24 47  1  0  0  0  0
 25 48  1  0  0  0  0
M  CHG  1  23   1
M  END
> <OMEGA_C>
m6fvvkkhoMBsZYXBEF1Nv2mDgMDU/IzBQmtiPxv9qMCkFIPBRt1QQBaHmsCfN4bBmrPNQMqWnj+G
v7TBdFZcPkBSU8CpSpLBGQ7UQFh3G77AsLXB7NOHQJElg8ADwYvBjFCbQBgdWz+IMqbBjgX0P+Yu
ksAAYojB9WKxQC+t4T8b76zBgOvIP5bGZMA3BpDBCUiiQKdLB78S+abB4Xy+QNQyhb/Fz67Be+V1
QA3WR8CwT5PBGaWNQCIOj0Bxb5vBuoCaQJVDFsBnipnBxl3YQBIKekBzJ6nBUN/VQMK/rECScqbB
npWrQPOpUkAFt6vBBwKZQBtZd0BzSrbBSLohQKR8OMANO5XBWOKKQOQmZUB6LKPBjYJZQIyukEC2
/5PB3nuKQOpTrb99RqDBqBbBQOTYIcBDX5jBYb3DQPoTGMDKFbDBQ2S4QG1ns0A2/JnBEP2fv8uc
scDeV4HBiGDrv4ufc8C6vI7Bdp2RP28ywcBag3rB4+ZiQEx2ssAfaIDBLJDeQFa99D9wB7rBJywt
vTnfIsB0GZjB2YzpQOqLCb9XtrvBhGCpQMTriMCrQ4rBm86EQNv+nT+2YaDBoTLtQETHcUAMLLDB
0DDmQHTXV0BCSKLBX2L2QFC5uUD3haXB3kfFQN3evUDt66zBkMKUQIp5nkAJgbXBHzavQNXTaUAl
6LzBR8pzQFc6WUAP9LfBPSJgQN1HQkDkZqPBq4dbQBUHpkBPC47BHQ4oQJcEeUBOl5TBtoZVQMR0
nL8aSqDB

> <OMEGA_E>
ajpQPw==

> <OMEGA_NBR>
     13081

$$$$
241581
  -OEChem-04172616093D

 44 46  0     1  0  0  0  0  0999 V2000
    6.7336   -0.0283  -22.7647 C   0  0  0  0  0  0  0  0  0  0  0  0
    6.6080    1.3538  -22.5529 C   0  0  0  0  0  0  0  0  0  0  0  0
    5.9555   -0.9253  -22.0221 C   0  0  0  0  0  0  0  0  0  0  0  0
    4.8985    0.9467  -20.8754 C   0  0  0  0  0  0  0  0  0  0  0  0
    3.9128   -4.3192  -18.1833 C   0  0  0  0  0  0  0  0  0  0  0  0
    1.8797   -2.7154  -17.3243 C   0  0  0  0  0  0  0  0  0  0  0  0
    5.6641    1.8647  -21.6252 C   0  0  0  0  0  0  0  0  0  0  0  0
    5.0574   -0.4310  -21.0523 C   0  0  0  0  0  0  0  0  0  0  0  0
    3.6965   -3.0397  -18.7418 C   0  0  0  0  0  0  0  0  0  0  0  0
    2.0795   -4.0037  -16.7875 C   0  0  0  0  0  0  0  0  0  0  0  0
    4.3469    3.9371  -19.1709 C   0  0  0  0  0  0  0  0  0  0  0  0
    4.5679   -2.5198  -19.7939 C   0  0  0  0  0  0  0  0  0  0  0  0
    6.9956    3.6135  -20.5120 C   0  0  0  0  0  0  0  0  0  0  0  0
    6.9512    4.7938  -19.5506 C   0  0  0  0  0  0  0  0  0  0  0  0
    5.6420    3.3597  -21.2628 C   0  0  1  0  0  0  0  0  0  0  0  0
    1.1858   -4.4901  -15.6795 C   0  0  0  0  0  0  0  0  0  0  0  0
    5.4893    4.2630  -22.5337 C   0  0  0  0  0  0  0  0  0  0  0  0
    2.6852   -2.2563  -18.2948 N   0  0  0  0  0  0  0  0  0  0  0  0
    3.1026   -4.7793  -17.2116 N   0  0  0  0  0  0  0  0  0  0  0  0
    4.4003    3.6603  -20.4535 N   0  3  0  0  0  0  0  0  0  0  0  0
    3.1075    3.9280  -18.5504 N   0  0  0  0  0  0  0  0  0  0  0  0
    4.2891   -1.2346  -20.2316 N   0  0  0  0  0  0  0  0  0  0  0  0
    5.5498   -3.1564  -20.1614 O   0  0  0  0  0  0  0  0  0  0  0  0
    4.3597    3.9084  -23.2069 F   0  0  0  0  0  0  0  0  0  0  0  0
    6.5418    4.1717  -23.3839 F   0  0  0  0  0  0  0  0  0  0  0  0
    5.3791    5.5682  -22.1739 F   0  0  0  0  0  0  0  0  0  0  0  0
    5.7625    4.3830  -18.2383 S   0  0  0  0  0  0  0  0  0  0  0  0
    7.4308   -0.4001  -23.5009 H   0  0  0  0  0  0  0  0  0  0  0  0
    7.2381    2.0368  -23.1033 H   0  0  0  0  0  0  0  0  0  0  0  0
    6.0423   -1.9885  -22.1907 H   0  0  0  0  0  0  0  0  0  0  0  0
    4.1810    1.3129  -20.1560 H   0  0  0  0  0  0  0  0  0  0  0  0
    4.7304   -4.9299  -18.5369 H   0  0  0  0  0  0  0  0  0  0  0  0
    1.0761   -2.0963  -16.9537 H   0  0  0  0  0  0  0  0  0  0  0  0
    7.7776    3.8053  -21.2614 H   0  0  0  0  0  0  0  0  0  0  0  0
    7.2500    2.7091  -19.9398 H   0  0  0  0  0  0  0  0  0  0  0  0
    7.9475    4.9622  -19.1160 H   0  0  0  0  0  0  0  0  0  0  0  0
    6.6254    5.6998  -20.0827 H   0  0  0  0  0  0  0  0  0  0  0  0
    1.5197   -5.4845  -15.3482 H   0  0  0  0  0  0  0  0  0  0  0  0
    1.2336   -3.7871  -14.8347 H   0  0  0  0  0  0  0  0  0  0  0  0
    0.1503   -4.5541  -16.0451 H   0  0  0  0  0  0  0  0  0  0  0  0
    3.5300    3.6468  -20.9459 H   0  0  0  0  0  0  0  0  0  0  0  0
    3.0303    4.1736  -17.5841 H   0  0  0  0  0  0  0  0  0  0  0  0
    2.2905    3.6759  -19.0690 H   0  0  0  0  0  0  0  0  0  0  0  0
    3.4264   -0.8406  -19.9146 H   0  0  0  0  0  0  0  0  0  0  0  0
  1  2  1  0  0  0  0
  1  3  2  0  0  0  0
  2  7  2  0  0  0  0
  3  8  1  0  0  0  0
  4  7  1  0  0  0  0
  4  8  2  0  0  0  0
  5  9  2  0  0  0  0
  5 19  1  0  0  0  0
  6 10  1  0  0  0  0
  6 18  2  0  0  0  0
  7 15  1  0  0  0  0
  8 22  1  0  0  0  0
  9 12  1  0  0  0  0
  9 18  1  0  0  0  0
 10 16  1  0  0  0  0
 10 19  2  0  0  0  0
 11 20  2  0  0  0  0
 11 21  1  0  0  0  0
 11 27  1  0  0  0  0
 12 22  1  0  0  0  0
 12 23  2  0  0  0  0
 13 14  1  0  0  0  0
 13 15  1  0  0  0  0
 14 27  1  0  0  0  0
 15 17  1  0  0  0  0
 15 20  1  0  0  0  0
 17 24  1  0  0  0  0
 17 25  1  0  0  0  0
 17 26  1  0  0  0  0
  1 28  1  0  0  0  0
  2 29  1  0  0  0  0
  3 30  1  0  0  0  0
  4 31  1  0  0  0  0
  5 32  1  0  0  0  0
  6 33  1  0  0  0  0
 13 34  1  0  0  0  0
 13 35  1  0  0  0  0
 14 36  1  0  0  0  0
 14 37  1  0  0  0  0
 16 38  1  0  0  0  0
 16 39  1  0  0  0  0
 16 40  1  0  0  0  0
 20 41  1  0  0  0  0
 21 42  1  0  0  0  0
 21 43  1  0  0  0  0
 22 44  1  0  0  0  0
M  CHG  1  20   1
M  END
> <OMEGA_C>
i3nXQCBx57wdHrbBBnXTQA5IrT9wbLTBmZO+QKnfbL9cLbDBgsCcQFldcj/XAKfBpmt6QBg3isBp
d5HB1pjwP9fJLcA+mIrBDEC1QAKw7j9kAK3BK9ahQMqu3L4Ua6jBkJNsQNCJQsBD75XB3BYFQAwe
gMDGTIbBzRmLQGH5e0D7XZnBSyySQFVEIcD4WZ7B2tvfQONCZ0B8GKTBMHDeQONmmUC3Z5zBR4u0
QBcGV0A8GqrBOsiXP8Cuj8AK33rBaaivQCxqiEAARbTB3NorQONnEMDLW5LBTJFGQODvmMBrsYnB
Fs+MQNtBakDdoKPBAuFGQL9ke0AiZ5TBdUCJQIgHnr832qHB55exQLUCSsCJSqHB5YKLQAwjekDA
p7nBzFbRQEx+hUA0ErvB8CGsQE4uskAtZLHBTWa4QK9BjEAj6JHBQMntQEfbzL7aAbzBWp7nQPNa
AkCV07jBblrBQNyH/r+HhrHBcMqFQCAMqD+VP6HBZV+XQBnCncB5S5TByL6JP74pBsAboYfBXuL4
QMyJc0BEF6rB6P/nQMhhLUCihJ/BTFL+QB7KnkCD7ZjBXAPUQJZktkBeqaDBQoTCP6uAr8ARknXB
FeWdP3VgcsD6Wm3BpO8ZPii7kcBiXIDBwethQEVlaUBNkafBWfBBQG+OhUAsrIzBlJcSQGVBa0BA
jZjBD0pbQDsyV78JUZ/BoLbZQABFqjsia7bBMizUQLYasT9TsLTBoQ7CQNULbL8vc7DByAieQKOL
aj/lUKfBAuoqQNOvDcC+1JLBIF9GQM0RlcD5CorBM0i1QKit7j9eSq3BGcykQN7e6L5NvajBejdu
QLJoQ8Agg5bBlswEQPVgc8BKSYbBUbyKQDJnfEDBPJnBpQqUQFbzI8BB3p7BdQffQGsSaUBOiKTB
wdfdQEsKmUCfbZzBcSazQEXzVkDzN6rBTgWRP1iiiMBeXHvBaw6sQH04iUBRNbTBgmd6QLyhiMC2
EZLBrBfvPzB1JsDw1YrB092LQJaqZkCjYaPBjlJGQL0WgUDJRZTBzGaMQCJtor+RTaLBxwmzQNlT
TsB3vKHBre+DQM1Xg0BDM7jBsTfIQFcdgkCdP7zBjBGwQDjvskDEXbHBfsy4QF89ikCP4ZHB9j/w
QOvYrb4hXLzBVrXnQPigBUCgDbnBbzXGQMCv/b/0vrHBDaaGQC9coD92jaHBphchQFsNoL+DiZbB
VNNOQHc2tMABc4bBfcj2QLATeUD0tarBo/noQMl5LkAQVqDBK/T9QAYXnkA1DZnBsOzSQBObtkDV
WKDBN5K5Pp08YMCynnjBVTcnP6SppsBQM4DB2uPYPw4QjsC/eGzBEyJfQCyuX0AZA6fB8YlCQLHx
iUB+mYzBiQYRQK6hdEB7XZjBHAZiQD+IXb+Dt5/B

> <OMEGA_E>
PHWsPkDg5D4=

> <OMEGA_NBR>
     14899

$$$$
241586
  -OEChem-04172616093D

 45 47  0     1  0  0  0  0  0999 V2000
    6.0277   -0.9559  -21.9959 C   0  0  0  0  0  0  0  0  0  0  0  0
    6.7619   -0.0486  -22.7722 C   0  0  0  0  0  0  0  0  0  0  0  0
    4.9233    0.9031  -20.8810 C   0  0  0  0  0  0  0  0  0  0  0  0
    3.8565   -4.3384  -18.1877 C   0  0  0  0  0  0  0  0  0  0  0  0
    1.8532   -2.6799  -17.3607 C   0  0  0  0  0  0  0  0  0  0  0  0
    5.6537    1.8298  -21.6495 C   0  0  0  0  0  0  0  0  0  0  0  0
    5.1124   -0.4690  -21.0400 C   0  0  0  0  0  0  0  0  0  0  0  0
    6.5884    1.3362  -22.6015 C   0  0  0  0  0  0  0  0  0  0  0  0
    3.6950   -3.0469  -18.7357 C   0  0  0  0  0  0  0  0  0  0  0  0
    1.9964   -3.9805  -16.8368 C   0  0  0  0  0  0  0  0  0  0  0  0
    6.6790    4.9272  -19.8493 C   0  0  0  0  0  0  0  0  0  0  0  0
    4.3578    4.0427  -19.1978 C   0  0  0  0  0  0  0  0  0  0  0  0
    7.0491    6.1395  -20.3757 C   0  0  0  0  0  0  0  0  0  0  0  0
    4.5919   -2.5504  -19.7777 C   0  0  0  0  0  0  0  0  0  0  0  0
    6.9019    3.6740  -20.6093 C   0  0  0  0  0  0  0  0  0  0  0  0
    5.5661    3.3183  -21.3031 C   0  0  1  0  0  0  0  0  0  0  0  0
    1.0520   -4.4534  -15.7654 C   0  0  0  0  0  0  0  0  0  0  0  0
    5.3361    4.1838  -22.5719 C   0  0  0  0  0  0  0  0  0  0  0  0
    2.6998   -2.2352  -18.3018 N   0  0  0  0  0  0  0  0  0  0  0  0
    3.0069   -4.7829  -17.2422 N   0  0  0  0  0  0  0  0  0  0  0  0
    4.3590    3.5898  -20.4381 N   0  3  0  0  0  0  0  0  0  0  0  0
    3.1616    3.9611  -18.5022 N   0  0  0  0  0  0  0  0  0  0  0  0
    4.3396   -1.2647  -20.2196 N   0  0  0  0  0  0  0  0  0  0  0  0
    5.5484   -3.2176  -20.1567 O   0  0  0  0  0  0  0  0  0  0  0  0
    7.3587    2.1662  -23.3384 F   0  0  0  0  0  0  0  0  0  0  0  0
    5.7460    4.8155  -18.3826 S   0  0  0  0  0  0  0  0  0  0  0  0
    6.1619   -2.0192  -22.1288 H   0  0  0  0  0  0  0  0  0  0  0  0
    7.4648   -0.4153  -23.5056 H   0  0  0  0  0  0  0  0  0  0  0  0
    4.2057    1.2606  -20.1574 H   0  0  0  0  0  0  0  0  0  0  0  0
    4.6632   -4.9710  -18.5276 H   0  0  0  0  0  0  0  0  0  0  0  0
    1.0601   -2.0396  -17.0036 H   0  0  0  0  0  0  0  0  0  0  0  0
    6.7616    7.0543  -19.8788 H   0  0  0  0  0  0  0  0  0  0  0  0
    7.6277    6.1786  -21.2867 H   0  0  0  0  0  0  0  0  0  0  0  0
    7.6895    3.8245  -21.3622 H   0  0  0  0  0  0  0  0  0  0  0  0
    7.1984    2.8655  -19.9249 H   0  0  0  0  0  0  0  0  0  0  0  0
    1.3418   -5.4635  -15.4402 H   0  0  0  0  0  0  0  0  0  0  0  0
    1.0961   -3.7656  -14.9081 H   0  0  0  0  0  0  0  0  0  0  0  0
    0.0272   -4.4768  -16.1644 H   0  0  0  0  0  0  0  0  0  0  0  0
    5.2783    5.2447  -22.2872 H   0  0  0  0  0  0  0  0  0  0  0  0
    6.1718    4.0372  -23.2720 H   0  0  0  0  0  0  0  0  0  0  0  0
    4.3954    3.8823  -23.0557 H   0  0  0  0  0  0  0  0  0  0  0  0
    3.4653    3.4073  -20.8480 H   0  0  0  0  0  0  0  0  0  0  0  0
    3.0965    4.3286  -17.5745 H   0  0  0  0  0  0  0  0  0  0  0  0
    2.3636    3.5347  -18.9282 H   0  0  0  0  0  0  0  0  0  0  0  0
    3.4832   -0.8575  -19.9023 H   0  0  0  0  0  0  0  0  0  0  0  0
  1  2  2  0  0  0  0
  1  7  1  0  0  0  0
  2  8  1  0  0  0  0
  3  6  1  0  0  0  0
  3  7  2  0  0  0  0
  4  9  2  0  0  0  0
  4 20  1  0  0  0  0
  5 10  1  0  0  0  0
  5 19  2  0  0  0  0
  6  8  2  0  0  0  0
  6 16  1  0  0  0  0
  7 23  1  0  0  0  0
  8 25  1  0  0  0  0
  9 14  1  0  0  0  0
  9 19  1  0  0  0  0
 10 17  1  0  0  0  0
 10 20  2  0  0  0  0
 11 13  2  0  0  0  0
 11 15  1  0  0  0  0
 11 26  1  0  0  0  0
 12 21  2  0  0  0  0
 12 22  1  0  0  0  0
 12 26  1  0  0  0  0
 14 23  1  0  0  0  0
 14 24  2  0  0  0  0
 15 16  1  0  0  0  0
 16 18  1  0  0  0  0
 16 21  1  0  0  0  0
  1 27  1  0  0  0  0
  2 28  1  0  0  0  0
  3 29  1  0  0  0  0
  4 30  1  0  0  0  0
  5 31  1  0  0  0  0
 13 32  1  0  0  0  0
 13 33  1  0  0  0  0
 15 34  1  0  0  0  0
 15 35  1  0  0  0  0
 17 36  1  0  0  0  0
 17 37  1  0  0  0  0
 17 38  1  0  0  0  0
 18 39  1  0  0  0  0
 18 40  1  0  0  0  0
 18 41  1  0  0  0  0
 21 42  1  0  0  0  0
 22 43  1  0  0  0  0
 22 44  1  0  0  0  0
 23 45  1  0  0  0  0
M  CHG  1  21   1
M  END
> <OMEGA_C>
3eLAQNyydL+P96/BVWHYQOAZR71wLbbBjoudQJQuZz86DKfBDNF2QITUisBggJHBEDftP/yCK8Ck
4orBL+u0QBc36j9EMq3BspijQHgm8L7cUajB09PSQKYJqz/Iz7TBgHpsQMQAQ8Cs4pXBFIv/PwDA
fsC0sYbBtLrVQFarnUBfy57BW3OLQN9dgUAAlZnB95HhQIJ2xEBdAaPBPfGSQOo5I8C/OJ7BCtzc
QFgia0Dd36TBaB2yQHpeVECnbKrBYKeGP6OCjsAMP3zBkcGqQGjhhUBDk7TBcsksQBAOD8AkapLB
eXBAQGYNmcAN8InB1HyLQBq/ZUBAgaPBGldKQIaCfUCZBJTBLd6KQK7hob+pwaHBx4yxQHDsTcD7
QKHBx3rrQEOjCkANtbrBBt+3QDQYmkB4D5PBpC7FQKQ6AcDAB7HBgN/uQAWm1L5mC7zBKJWGQO1c
oT9HQqHBuziVQIESn8CLOJTBzrKHPwuJAsBzB4jB7V7YQK684UDNB5/BUxb0QD63xUA1S6rByxD2
QNDDdEDc5arBo1nmQOZjN0BEZp/BEcGrPwPVrsDkCnfBZEyMP0z/cMC0h27BCZDePDRCj8CyUIHB
nueoQJTUp0AiTLLBtX/FQKkwgUADLbrBxqaMQBN3eEAPcrjBzMddQIkQWkDIyKbBPS1GQOWDikCV
mIzBfEUXQJE4YkAHbZfBYOxeQG6DW7/bN5/BbLXCQBpFWr9qu6/BfSnaQHD0dD3S4bXBTzugQE0Q
gT/kjKbBqr8oQEaDDsCHmpLBXQlFQARolsAMWorBd9m2QBAz+T9O16zB1mWmQPgqvr6X2qfBixXV
QOsiuT/VXrTBYJ9sQPjEQsB0aZbBv7cBQLhDeMCLmYbBTeXeQOJrcEBMkpzBqQSMQD5feUAjlpnB
wFcAQUo8OkC7uprBAZKTQED2IMB1j57BY4DVQEvqh0CRo6fBJu6tQMseXkBijqvBh1SXPy5yisDE
mHrBLmGfQITTgUCaZbbBIzh5QNDIiMD+PJLBadTpPx/MKcC1w4rBfFaJQDRNbkDNDKTB1r9LQAoX
eUCM75PBoO6NQPRKl79ZTqHBAiCxQEgGTcDV7qHBi73tQCdyEUDTSLrB5BS8QJa/hUAiJ5LBXErG
QCUW9b8uBLHBD1jwQBYhm76O1rvBB8KJQMksrj99n6DBAMQeQB74n79rEZbBDbpOQNWotcBF3obB
sekCQUE0IEBU1JLBMRALQRqkKUAsLqHBS7fOQFpzqkBKgKfBmezwQJeugUB47qzBcA70PsC6YcCJ
RXbBeDcfP6xgp8A1FX/BgFzqP+iRkcAV1mzB8xOZQHtEpEC3fbXB9LS4QMH8eUA5Y7zBI/6BQH4k
Y0CTCLnB5itYQC34cEC2RqfBXQFMQHJigUAfB4zBRG8UQBM1b0Dtw5fBlZ9oQNHBPb8hD57BxSbC
QMDxdL8YnbDBq1nYQABasrxo3rbBL7OfQEEqXj95BKfBargrQJdVDsAD7JLBalNEQISmlcDNKIrB
51m1QAL76D9aQq3BBgemQBgM/r7zoajBMHLSQJLqrT9qMrXBKIhuQFcARcDJjJbB5p4BQO6ydMDN
robB8bbUQAfhnUAv7p7BWy+LQCUigkDFd5nBbAPeQAlExUCZMaPBeImUQDtpJsBK4J7BNlrcQLGT
bEBsKKXBPkexQBFbU0C2XKrB6AWSP0Zkh8DjB3vB+rinQCxKhUB3abTBko55QCFzicDGFZLBwNbt
PwDPJsAJEYvBhCCLQJjOYUCLH6PB3e9IQABbg0C5EJTB+6eNQPzLpr+jL6LB/gizQK+7UcCM2aHB
gdTpQNTSDUDAKLvBWbu4QMWfmEAw/JLB4ZTGQOEAAcCT57HBfRruQB2Mub4wAb3BtdGJQNRemT/E
36DBIIEjQMVeoL+ej5bBOq1MQGGLtMAbbobB0OPTQDf+4UCCHJ/BYHTvQMeIx0CWoarBG4n0QP5R
eECsYavBp3TnQKAhOUCd1J/BsyriPqCCWsBqTnfBS7kSP7w0pMAfeH/B4lrhPyxEjsAM52zBVfyk
QN8cp0CgErLBTujBQGihgUCxOLrBOYGJQGBbdUA7ELjBImVdQIAyT0D29qXB1ppFQPeJkECnyYzB
/mcUQHsbbkAEcpfBEmVlQCOxYr94dp/B

> <OMEGA_E>
bGavPux54D5oSOw+

> <OMEGA_NBR>
     17537

$$$$
253219
  -OEChem-04172616093D

 42 44  0     1  0  0  0  0  0999 V2000
    6.0756   -0.8424  -21.8926 C   0  0  0  0  0  0  0  0  0  0  0  0
    6.8299    0.0629  -22.6518 C   0  0  0  0  0  0  0  0  0  0  0  0
    4.9324    1.0224  -20.8265 C   0  0  0  0  0  0  0  0  0  0  0  0
    2.9935   -4.8758  -17.2111 C   0  0  0  0  0  0  0  0  0  0  0  0
    1.8258   -2.7540  -17.3248 C   0  0  0  0  0  0  0  0  0  0  0  0
    5.6780    1.9551  -21.5973 C   0  0  0  0  0  0  0  0  0  0  0  0
    5.1422   -0.3633  -20.9458 C   0  0  0  0  0  0  0  0  0  0  0  0
    6.6556    1.4491  -22.4963 C   0  0  0  0  0  0  0  0  0  0  0  0
    1.9734   -4.0298  -16.7524 C   0  0  0  0  0  0  0  0  0  0  0  0
    3.8519   -4.4198  -18.2242 C   0  0  0  0  0  0  0  0  0  0  0  0
    3.6691   -3.1083  -18.7519 C   0  0  0  0  0  0  0  0  0  0  0  0
    4.4156    3.8990  -19.2377 C   0  0  0  0  0  0  0  0  0  0  0  0
    4.5783   -2.5254  -19.7711 C   0  0  0  0  0  0  0  0  0  0  0  0
    6.8352    3.7478  -19.3722 C   0  0  0  0  0  0  0  0  0  0  0  0
    6.6954    4.1929  -20.8381 C   0  0  1  0  0  0  0  0  0  0  0  0
    5.4464    3.4840  -21.4377 C   0  0  1  0  0  0  0  0  0  0  0  0
    5.0702    4.1123  -22.8037 C   0  0  0  0  0  0  0  0  0  0  0  0
    2.6585   -2.3186  -18.2954 N   0  0  0  0  0  0  0  0  0  0  0  0
    4.2901    3.7467  -20.5390 N   0  3  0  0  0  0  0  0  0  0  0  0
    3.2546    3.9496  -18.4830 N   0  0  0  0  0  0  0  0  0  0  0  0
    4.3710   -1.1868  -20.1174 N   0  0  0  0  0  0  0  0  0  0  0  0
    5.5299   -3.1666  -20.2020 O   0  0  0  0  0  0  0  0  0  0  0  0
    5.6368    4.0419  -18.5966 O   0  0  0  0  0  0  0  0  0  0  0  0
    7.4431    2.2720  -23.2240 F   0  0  0  0  0  0  0  0  0  0  0  0
    1.1420   -4.4337  -15.7670 F   0  0  0  0  0  0  0  0  0  0  0  0
    4.8368   -5.2439  -18.6561 F   0  0  0  0  0  0  0  0  0  0  0  0
    6.5564    5.5497  -20.8828 F   0  0  0  0  0  0  0  0  0  0  0  0
    6.2076   -1.9053  -22.0311 H   0  0  0  0  0  0  0  0  0  0  0  0
    7.5524   -0.3084  -23.3635 H   0  0  0  0  0  0  0  0  0  0  0  0
    4.1880    1.3859  -20.1336 H   0  0  0  0  0  0  0  0  0  0  0  0
    3.1170   -5.8632  -16.7913 H   0  0  0  0  0  0  0  0  0  0  0  0
    1.0304   -2.1090  -16.9816 H   0  0  0  0  0  0  0  0  0  0  0  0
    7.0182    2.6635  -19.3461 H   0  0  0  0  0  0  0  0  0  0  0  0
    7.6888    4.2747  -18.9208 H   0  0  0  0  0  0  0  0  0  0  0  0
    7.5855    3.8641  -21.3946 H   0  0  0  0  0  0  0  0  0  0  0  0
    4.9089    5.1932  -22.6787 H   0  0  0  0  0  0  0  0  0  0  0  0
    5.8864    3.9441  -23.5217 H   0  0  0  0  0  0  0  0  0  0  0  0
    4.1483    3.6453  -23.1805 H   0  0  0  0  0  0  0  0  0  0  0  0
    3.3769    3.8104  -20.9416 H   0  0  0  0  0  0  0  0  0  0  0  0
    3.3068    4.0872  -17.4938 H   0  0  0  0  0  0  0  0  0  0  0  0
    2.3645    3.8486  -18.9274 H   0  0  0  0  0  0  0  0  0  0  0  0
    3.5601   -0.7588  -19.7183 H   0  0  0  0  0  0  0  0  0  0  0  0
  1  2  2  0  0  0  0
  1  7  1  0  0  0  0
  2  8  1  0  0  0  0
  3  6  1  0  0  0  0
  3  7  2  0  0  0  0
  4  9  1  0  0  0  0
  4 10  2  0  0  0  0
  5  9  2  0  0  0  0
  5 18  1  0  0  0  0
  6  8  2  0  0  0  0
  6 16  1  0  0  0  0
  7 21  1  0  0  0  0
  8 24  1  0  0  0  0
  9 25  1  0  0  0  0
 10 11  1  0  0  0  0
 10 26  1  0  0  0  0
 11 13  1  0  0  0  0
 11 18  2  0  0  0  0
 12 19  2  0  0  0  0
 12 20  1  0  0  0  0
 12 23  1  0  0  0  0
 13 21  1  0  0  0  0
 13 22  2  0  0  0  0
 14 15  1  0  0  0  0
 14 23  1  0  0  0  0
 15 16  1  0  0  0  0
 15 27  1  0  0  0  0
 16 17  1  0  0  0  0
 16 19  1  0  0  0  0
  1 28  1  0  0  0  0
  2 29  1  0  0  0  0
  3 30  1  0  0  0  0
  4 31  1  0  0  0  0
  5 32  1  0  0  0  0
 14 33  1  0  0  0  0
 14 34  1  0  0  0  0
 15 35  1  0  0  0  0
 17 36  1  0  0  0  0
 17 37  1  0  0  0  0
 17 38  1  0  0  0  0
 19 39  1  0  0  0  0
 20 40  1  0  0  0  0
 20 41  1  0  0  0  0
 21 42  1  0  0  0  0
M  CHG  1  19   1
M  END
> <OMEGA_C>
E2vCQPmkV7//I6/Bxo7aQA/PgD3bNrXBf9adQBvfgj+3nKbB4ZU/QLMGnMBgsInBiLLpP/NAMMBH
mYrB2LG1QKlA+j9Ex6zBpoykQAIBur7pkKfBm/rUQLF7uT9f+LPBjJn8P2P0gMACBYbBFoV2QD5v
jcAzy5HBQtJqQLHtRsD+A5bBmkyNQCeJeUC45pnBVYGSQL+fIcBLK57BSrraQDjcb0Ba+prB3kDW
QEEshkB7tKbBPEmuQM/5XkB+gKvBYj+iQA6Yg0D0bbbBryQqQChjFMD0XJLBNUiJQFzKb0DsT6TB
YEtQQL7GfEAX3ZPBWt+LQCLpl7918KDBoPSwQPKoSsCbnaHB9WC0QHxXgUDpxZTBgS3uQH9oEUCy
yrnBOCySPzjhjcCpRXzB2saaQNvNp8C6P5XBss3RQIOXsUASEKfBqKTGQN/f87+7P7DBqK3xQO7o
nb5i6LrBVwSGQIVksT+SEaHBPnxHQHifu8CvVIbBjuSDP8H5BsBD2ofB/JTgQAB2KkC8xJrB8Qr2
QDHKiEDTXZfBa7zyQCROd0AoKKvBHBadQNsupkD5bbXBaF28QGhsfECBLLzBCb+EQLhMaUCicbnB
PR9YQGXec0BviKfB1aJTQKbKgkBl84vBUFQXQOJOdkBYa5fBONljQPhAQr8Vv53B

> <OMEGA_E>
oKV7Pg==

> <OMEGA_NBR>
     18547

$$$$
241598
  -OEChem-04172616093D

 40 42  0     1  0  0  0  0  0999 V2000
    6.0348   -0.8589  -21.9601 C   0  0  0  0  0  0  0  0  0  0  0  0
    6.7802    0.0514  -22.7247 C   0  0  0  0  0  0  0  0  0  0  0  0
    3.1064   -4.8425  -17.1773 C   0  0  0  0  0  0  0  0  0  0  0  0
    3.9402   -4.3627  -18.1985 C   0  0  0  0  0  0  0  0  0  0  0  0
    4.9322    1.0028  -20.8452 C   0  0  0  0  0  0  0  0  0  0  0  0
    1.8516   -2.7680  -17.3181 C   0  0  0  0  0  0  0  0  0  0  0  0
    5.6724    1.9381  -21.6101 C   0  0  0  0  0  0  0  0  0  0  0  0
    5.1241   -0.3804  -20.9923 C   0  0  0  0  0  0  0  0  0  0  0  0
    2.0499   -4.0323  -16.7311 C   0  0  0  0  0  0  0  0  0  0  0  0
    6.6242    1.4381  -22.5414 C   0  0  0  0  0  0  0  0  0  0  0  0
    3.6960   -3.0800  -18.7473 C   0  0  0  0  0  0  0  0  0  0  0  0
    6.7724    4.0311  -20.7745 C   0  0  0  0  0  0  0  0  0  0  0  0
    6.9801    4.1054  -19.4182 C   0  0  0  0  0  0  0  0  0  0  0  0
    4.3623    3.8326  -19.1907 C   0  0  0  0  0  0  0  0  0  0  0  0
    4.5818   -2.5223  -19.7873 C   0  0  0  0  0  0  0  0  0  0  0  0
    5.4991    3.4570  -21.3662 C   0  0  1  0  0  0  0  0  0  0  0  0
    5.1825    4.2096  -22.6817 C   0  0  0  0  0  0  0  0  0  0  0  0
    2.6622   -2.3162  -18.3005 N   0  0  0  0  0  0  0  0  0  0  0  0
    4.3263    3.7500  -20.4997 N   0  3  0  0  0  0  0  0  0  0  0  0
    3.1594    4.0375  -18.5341 N   0  0  0  0  0  0  0  0  0  0  0  0
    4.3568   -1.1988  -20.1626 N   0  0  0  0  0  0  0  0  0  0  0  0
    5.5315   -3.1765  -20.2048 O   0  0  0  0  0  0  0  0  0  0  0  0
    1.2319   -4.4588  -15.7439 F   0  0  0  0  0  0  0  0  0  0  0  0
    7.4151    2.2660  -23.2598 F   0  0  0  0  0  0  0  0  0  0  0  0
    5.8165    3.5182  -18.2228 S   0  0  0  0  0  0  0  0  0  0  0  0
    6.1570   -1.9213  -22.1110 H   0  0  0  0  0  0  0  0  0  0  0  0
    7.4801   -0.3155  -23.4608 H   0  0  0  0  0  0  0  0  0  0  0  0
    3.2741   -5.8168  -16.7424 H   0  0  0  0  0  0  0  0  0  0  0  0
    4.7595   -4.9649  -18.5623 H   0  0  0  0  0  0  0  0  0  0  0  0
    4.2040    1.3618  -20.1331 H   0  0  0  0  0  0  0  0  0  0  0  0
    1.0362   -2.1475  -16.9769 H   0  0  0  0  0  0  0  0  0  0  0  0
    7.5409    4.3934  -21.4412 H   0  0  0  0  0  0  0  0  0  0  0  0
    7.9010    4.5447  -19.0641 H   0  0  0  0  0  0  0  0  0  0  0  0
    5.0661    5.2831  -22.4717 H   0  0  0  0  0  0  0  0  0  0  0  0
    6.0068    4.0630  -23.3953 H   0  0  0  0  0  0  0  0  0  0  0  0
    4.2499    3.8172  -23.1131 H   0  0  0  0  0  0  0  0  0  0  0  0
    3.4444    3.8948  -20.9482 H   0  0  0  0  0  0  0  0  0  0  0  0
    3.1234    4.0065  -17.5352 H   0  0  0  0  0  0  0  0  0  0  0  0
    2.3273    4.2162  -19.0591 H   0  0  0  0  0  0  0  0  0  0  0  0
    3.5319   -0.7780  -19.7853 H   0  0  0  0  0  0  0  0  0  0  0  0
  1  2  2  0  0  0  0
  1  8  1  0  0  0  0
  2 10  1  0  0  0  0
  3  4  2  0  0  0  0
  3  9  1  0  0  0  0
  4 11  1  0  0  0  0
  5  7  1  0  0  0  0
  5  8  2  0  0  0  0
  6  9  2  0  0  0  0
  6 18  1  0  0  0  0
  7 10  2  0  0  0  0
  7 16  1  0  0  0  0
  8 21  1  0  0  0  0
  9 23  1  0  0  0  0
 10 24  1  0  0  0  0
 11 15  1  0  0  0  0
 11 18  2  0  0  0  0
 12 13  2  0  0  0  0
 12 16  1  0  0  0  0
 13 25  1  0  0  0  0
 14 19  2  0  0  0  0
 14 20  1  0  0  0  0
 14 25  1  0  0  0  0
 15 21  1  0  0  0  0
 15 22  2  0  0  0  0
 16 17  1  0  0  0  0
 16 19  1  0  0  0  0
  1 26  1  0  0  0  0
  2 27  1  0  0  0  0
  3 28  1  0  0  0  0
  4 29  1  0  0  0  0
  5 30  1  0  0  0  0
  6 31  1  0  0  0  0
 12 32  1  0  0  0  0
 13 33  1  0  0  0  0
 17 34  1  0  0  0  0
 17 35  1  0  0  0  0
 17 36  1  0  0  0  0
 19 37  1  0  0  0  0
 20 38  1  0  0  0  0
 20 39  1  0  0  0  0
 21 40  1  0  0  0  0
M  CHG  1  19   1
M  END
> <OMEGA_C>
Ax3BQBTgW79Arq/BLPfYQJhaUj0/zLXBoM9GQBT2msAHa4nB/it8QOiai8B8lpHBedSdQGBagD8G
w6bBiAHtPxwnMcCQi4rBhoS1QLcS+D954azBW/ijQGTDwr5B8KfB4jADQMMIgcA82YXBEPnTQM8T
uD/SVLTBrYtsQPQdRcBg+pXBQbfYQOH+gEBHMqbB0lzfQBFfg0CAWJvB+peLQNxIdUCZhpnBAJ6S
QPhtIcBUTJ7BqvivQI4/XUDi7arBc9elQBu1hkAidLXBEGEqQOA8FMB6Z5LB0nCKQKz/b0BN/6PB
3zJKQNIygUDRRZTBOmuLQLVzmb8XTaHByQGxQCxMS8B/o6HBFrCdP3OujsDp5nvBp0jtQI4GEUAF
FLrBkSC6QHQqYUA+yJHB/AXFQPvs9b8847DBXV3vQCiPob6/r7vBO4pRQHAjusCI8IXB102YQNrg
nsCZf5TB/IaGQJNQrj+DEKHB5KKEP0JwCcCa0IfBVE/xQP2WjECZh6vBotT8QCxukUBeg5jBbx2i
QAAPqUAXxrPBVjfAQDAEgkCLKbvB6/6HQGdNdEC457jBPnBcQANFeUAClqfBCOVHQGc1gEAgSIzB
u/EUQHLrhkANeZjB/gpiQJMpR79PSJ7B

> <OMEGA_E>
QPl9Pg==

> <OMEGA_NBR>
     19521

$$$$
253236
  -OEChem-04172616093D

 42 44  0     1  0  0  0  0  0999 V2000
    6.0891   -0.8293  -21.8846 C   0  0  0  0  0  0  0  0  0  0  0  0
    6.8229    0.0749  -22.6670 C   0  0  0  0  0  0  0  0  0  0  0  0
    3.0600   -4.8654  -17.2075 C   0  0  0  0  0  0  0  0  0  0  0  0
    3.9112   -4.3672  -18.2056 C   0  0  0  0  0  0  0  0  0  0  0  0
    4.9415    1.0387  -20.8296 C   0  0  0  0  0  0  0  0  0  0  0  0
    1.8028   -2.7922  -17.3412 C   0  0  0  0  0  0  0  0  0  0  0  0
    5.6721    1.9706  -21.6156 C   0  0  0  0  0  0  0  0  0  0  0  0
    5.1551   -0.3468  -20.9405 C   0  0  0  0  0  0  0  0  0  0  0  0
    1.9931   -4.0649  -16.7691 C   0  0  0  0  0  0  0  0  0  0  0  0
    6.6329    1.4622  -22.5309 C   0  0  0  0  0  0  0  0  0  0  0  0
    3.6744   -3.0761  -18.7403 C   0  0  0  0  0  0  0  0  0  0  0  0
    4.4195    3.8907  -19.2425 C   0  0  0  0  0  0  0  0  0  0  0  0
    4.5794   -2.5022  -19.7570 C   0  0  0  0  0  0  0  0  0  0  0  0
    6.8390    3.7545  -19.3798 C   0  0  0  0  0  0  0  0  0  0  0  0
    6.7001    4.2003  -20.8456 C   0  0  1  0  0  0  0  0  0  0  0  0
    5.4469    3.5008  -21.4479 C   0  0  1  0  0  0  0  0  0  0  0  0
    5.0723    4.1463  -22.8063 C   0  0  0  0  0  0  0  0  0  0  0  0
    2.6304   -2.3226  -18.3016 N   0  0  0  0  0  0  0  0  0  0  0  0
    4.2922    3.7592  -20.5458 N   0  3  0  0  0  0  0  0  0  0  0  0
    3.2607    3.8989  -18.4827 N   0  0  0  0  0  0  0  0  0  0  0  0
    4.3834   -1.1640  -20.1062 N   0  0  0  0  0  0  0  0  0  0  0  0
    5.5161   -3.1670  -20.1861 O   0  0  0  0  0  0  0  0  0  0  0  0
    5.6404    4.0490  -18.6047 O   0  0  0  0  0  0  0  0  0  0  0  0
    1.1550   -4.5101  -15.8071 F   0  0  0  0  0  0  0  0  0  0  0  0
    7.3861    2.2842  -23.2950 F   0  0  0  0  0  0  0  0  0  0  0  0
    6.5695    5.5582  -20.8880 F   0  0  0  0  0  0  0  0  0  0  0  0
    6.2379   -1.8924  -22.0036 H   0  0  0  0  0  0  0  0  0  0  0  0
    7.5416   -0.2982  -23.3816 H   0  0  0  0  0  0  0  0  0  0  0  0
    3.2224   -5.8458  -16.7846 H   0  0  0  0  0  0  0  0  0  0  0  0
    4.7389   -4.9618  -18.5630 H   0  0  0  0  0  0  0  0  0  0  0  0
    4.2042    1.4036  -20.1300 H   0  0  0  0  0  0  0  0  0  0  0  0
    0.9793   -2.1790  -17.0060 H   0  0  0  0  0  0  0  0  0  0  0  0
    7.0212    2.6700  -19.3541 H   0  0  0  0  0  0  0  0  0  0  0  0
    7.6927    4.2806  -18.9277 H   0  0  0  0  0  0  0  0  0  0  0  0
    7.5883    3.8673  -21.4026 H   0  0  0  0  0  0  0  0  0  0  0  0
    4.9170    5.2266  -22.6691 H   0  0  0  0  0  0  0  0  0  0  0  0
    5.8867    3.9817  -23.5272 H   0  0  0  0  0  0  0  0  0  0  0  0
    4.1475    3.6884  -23.1871 H   0  0  0  0  0  0  0  0  0  0  0  0
    3.3795    3.8362  -20.9473 H   0  0  0  0  0  0  0  0  0  0  0  0
    3.3138    4.0176  -17.4912 H   0  0  0  0  0  0  0  0  0  0  0  0
    2.3714    3.7861  -18.9258 H   0  0  0  0  0  0  0  0  0  0  0  0
    3.5784   -0.7284  -19.7034 H   0  0  0  0  0  0  0  0  0  0  0  0
  1  2  2  0  0  0  0
  1  8  1  0  0  0  0
  2 10  1  0  0  0  0
  3  4  2  0  0  0  0
  3  9  1  0  0  0  0
  4 11  1  0  0  0  0
  5  7  1  0  0  0  0
  5  8  2  0  0  0  0
  6  9  2  0  0  0  0
  6 18  1  0  0  0  0
  7 10  2  0  0  0  0
  7 16  1  0  0  0  0
  8 21  1  0  0  0  0
  9 24  1  0  0  0  0
 10 25  1  0  0  0  0
 11 13  1  0  0  0  0
 11 18  2  0  0  0  0
 12 19  2  0  0  0  0
 12 20  1  0  0  0  0
 12 23  1  0  0  0  0
 13 21  1  0  0  0  0
 13 22  2  0  0  0  0
 14 15  1  0  0  0  0
 14 23  1  0  0  0  0
 15 16  1  0  0  0  0
 15 26  1  0  0  0  0
 16 17  1  0  0  0  0
 16 19  1  0  0  0  0
  1 27  1  0  0  0  0
  2 28  1  0  0  0  0
  3 29  1  0  0  0  0
  4 30  1  0  0  0  0
  5 31  1  0  0  0  0
  6 32  1  0  0  0  0
 14 33  1  0  0  0  0
 14 34  1  0  0  0  0
 15 35  1  0  0  0  0
 17 36  1  0  0  0  0
 17 37  1  0  0  0  0
 17 38  1  0  0  0  0
 19 39  1  0  0  0  0
 20 40  1  0  0  0  0
 20 41  1  0  0  0  0
 21 42  1  0  0  0  0
M  CHG  1  19   1
M  END
> <OMEGA_C>
39nCQEhNVL+RE6/BfVXaQGxdmT0AVrXBHtdDQI6xm8D+qInBglF6QP6/i8ArpZHBAyGeQKXyhD8V
o6bB58DmP9+yMsC+uorBA4K1QFQ7/D/M7KzBOfakQI2Qsb4bhqfBuxz/P1QTgsAjJ4bB1kDUQEMq
uz9YP7TB/ilrQBjfRMAb7JXB1myNQDEBeUCm8JnB2oqSQJckIMBCDp7B5djaQARJcEDiCZvBZGfW
QCtphkDBw6bBnUyuQHYNYEAzlavBbVCiQBeuhEBMc7bBdFgoQOukFMCgaZLBT1mJQEuWcEDPXaTB
FLBQQEOHeUCE3JPB5USMQNr8lL9+2aDBOoSwQKKwSsAhfaHB2H20QD+RgUB01pTBFtiTP5RSkMDP
6XzBm1rsQIMwEkAvXLrBCjnSQAPdsUCGGqfBjZzHQOc48r9tB7DBCFXxQJapmL6VDbvBEzxOQBIR
u8D0RobBDKWXQHbHnsAggZTBnoiGQO2osz8rCqHBt7B6P3t1C8BcDIjB3a3gQLTgKkAf1ZrBcSr2
QG/6iED8a5fBIdPyQA+Cd0CNOKvBqledQOY/p0BfWrXBw1+8QADUfkC7N7zB/beEQC4ObEAYf7nB
X0pYQNaEdUATlKfBhxVUQDCQgEDo7YvBrMUXQOdOckAkaJfBVgRlQP53Or+ioJ3By4rCQLNVWb9A
Hq/BHYnaQDRWaj1ROrXBDh/fPzUdN8AzFYrBz1wkQHyyFcAGGpLB7A6eQBpvgj8UlqbBw0dIQCtY
m8DYHIrBwui1QDbx+T+zvqzBhqakQP5yvL6Kk6fBFtQBQPlShMDGBYbBTODUQH7ouD+/ArTBdrlq
QNpzRsBc6JXBs9iMQB5TeUCJ15nB8RGSQFy+IcAGH57BUDjaQAj/bUB8gJrBwCjXQBcshUBxQ6bB
/hyvQOX4XkDxT6vBuz6kQBa1hEDvMLbBggB7QDzVisDs4JHBg6CJQE/cb0AiRqTBL3pOQBY+fEA3
+pPBHu2LQAwjmL+19qDBc6+vQPv5TMC/nqHBloOzQJRNgUA+iZTBuiCgP1hHlcBiiHzB2bPtQOYZ
EUBI7rnBre7TQA6xsECorqbBLOzGQDW89L8tLrDB453xQPbToL5j7rrBpmZnP8LNEsBRFofBEaIX
QHATrr80YpXBblOGQGvosD95BKHBOxdWQE3QusB4/IbBZ1DfQOteKEBsO5rBhIn1QFRTh0DfvZbB
B8jzQOe5c0DqiKrBOY2fQJ5Ip0A8CLXBBri+QIjGfkAW1rvB7cCGQBL/bED5bLnBjE9ZQJ83dECL
oKfBo5tQQBN2gkBJDozB4xIWQAKrdUDZqpfBww5kQOwZQb+izJ3B

> <OMEGA_E>
gBtvPmDTwj4=

> <OMEGA_NBR>
     21287

$$$$
253258
  -OEChem-04172616093D

 45 47  0     1  0  0  0  0  0999 V2000
    6.0359   -0.9408  -21.9128 C   0  0  0  0  0  0  0  0  0  0  0  0
    6.7826   -0.0424  -22.6883 C   0  0  0  0  0  0  0  0  0  0  0  0
    3.0073   -5.0271  -17.3131 C   0  0  0  0  0  0  0  0  0  0  0  0
    3.8638   -4.5048  -18.2918 C   0  0  0  0  0  0  0  0  0  0  0  0
    5.0117    0.9317  -20.7467 C   0  0  0  0  0  0  0  0  0  0  0  0
    1.7954   -2.9224  -17.3476 C   0  0  0  0  0  0  0  0  0  0  0  0
    5.7298    1.8566  -21.5468 C   0  0  0  0  0  0  0  0  0  0  0  0
    5.1580   -0.4520  -20.9198 C   0  0  0  0  0  0  0  0  0  0  0  0
    1.9613   -4.2236  -16.8338 C   0  0  0  0  0  0  0  0  0  0  0  0
    6.6411    1.3451  -22.5114 C   0  0  0  0  0  0  0  0  0  0  0  0
    3.6558   -3.1864  -18.7647 C   0  0  0  0  0  0  0  0  0  0  0  0
    4.3112    4.3602  -19.4215 C   0  0  0  0  0  0  0  0  0  0  0  0
    4.5680   -2.5993  -19.7630 C   0  0  0  0  0  0  0  0  0  0  0  0
    6.3303    5.4568  -20.1735 C   0  0  0  0  0  0  0  0  0  0  0  0
    5.5208    3.3782  -21.3454 C   0  0  1  0  0  0  0  0  0  0  0  0
    6.7717    4.0635  -20.6720 C   0  0  2  0  0  0  0  0  0  0  0  0
    5.1395    4.0496  -22.6978 C   0  0  0  0  0  0  0  0  0  0  0  0
    7.3352    3.2500  -19.4696 C   0  0  0  0  0  0  0  0  0  0  0  0
    2.6311   -2.4280  -18.2886 N   0  0  0  0  0  0  0  0  0  0  0  0
    4.3137    3.6019  -20.4932 N   0  3  0  0  0  0  0  0  0  0  0  0
    3.3590    4.0992  -18.4489 N   0  0  0  0  0  0  0  0  0  0  0  0
    4.3710   -1.2630  -20.1017 N   0  0  0  0  0  0  0  0  0  0  0  0
    5.5227   -3.2482  -20.1767 O   0  0  0  0  0  0  0  0  0  0  0  0
    5.2661    5.3354  -19.1874 O   0  0  0  0  0  0  0  0  0  0  0  0
    1.1239   -4.6933  -15.8836 F   0  0  0  0  0  0  0  0  0  0  0  0
    7.3799    2.1588  -23.2966 F   0  0  0  0  0  0  0  0  0  0  0  0
    7.7854    4.2300  -21.5627 F   0  0  0  0  0  0  0  0  0  0  0  0
    6.1317   -2.0043  -22.0744 H   0  0  0  0  0  0  0  0  0  0  0  0
    7.4728   -0.4197  -23.4283 H   0  0  0  0  0  0  0  0  0  0  0  0
    3.1497   -6.0286  -16.9349 H   0  0  0  0  0  0  0  0  0  0  0  0
    4.6747   -5.1023  -18.6817 H   0  0  0  0  0  0  0  0  0  0  0  0
    4.3377    1.3010  -19.9879 H   0  0  0  0  0  0  0  0  0  0  0  0
    0.9854   -2.3081  -16.9829 H   0  0  0  0  0  0  0  0  0  0  0  0
    7.1910    5.9661  -19.7154 H   0  0  0  0  0  0  0  0  0  0  0  0
    5.9665    6.0475  -21.0271 H   0  0  0  0  0  0  0  0  0  0  0  0
    4.9935    5.1289  -22.5437 H   0  0  0  0  0  0  0  0  0  0  0  0
    5.9473    3.8895  -23.4271 H   0  0  0  0  0  0  0  0  0  0  0  0
    4.2084    3.6044  -23.0784 H   0  0  0  0  0  0  0  0  0  0  0  0
    7.6523    2.2552  -19.8156 H   0  0  0  0  0  0  0  0  0  0  0  0
    8.1976    3.7807  -19.0399 H   0  0  0  0  0  0  0  0  0  0  0  0
    6.5537    3.1396  -18.7033 H   0  0  0  0  0  0  0  0  0  0  0  0
    3.4609    3.1491  -20.7536 H   0  0  0  0  0  0  0  0  0  0  0  0
    3.3670    4.6126  -17.5908 H   0  0  0  0  0  0  0  0  0  0  0  0
    2.6638    3.3975  -18.6053 H   0  0  0  0  0  0  0  0  0  0  0  0
    3.5609   -0.8288  -19.7078 H   0  0  0  0  0  0  0  0  0  0  0  0
  1  2  2  0  0  0  0
  1  8  1  0  0  0  0
  2 10  1  0  0  0  0
  3  4  2  0  0  0  0
  3  9  1  0  0  0  0
  4 11  1  0  0  0  0
  5  7  1  0  0  0  0
  5  8  2  0  0  0  0
  6  9  2  0  0  0  0
  6 19  1  0  0  0  0
  7 10  2  0  0  0  0
  7 15  1  0  0  0  0
  8 22  1  0  0  0  0
  9 25  1  0  0  0  0
 10 26  1  0  0  0  0
 11 13  1  0  0  0  0
 11 19  2  0  0  0  0
 12 20  2  0  0  0  0
 12 21  1  0  0  0  0
 12 24  1  0  0  0  0
 13 22  1  0  0  0  0
 13 23  2  0  0  0  0
 14 16  1  0  0  0  0
 14 24  1  0  0  0  0
 15 16  1  0  0  0  0
 15 17  1  0  0  0  0
 15 20  1  0  0  0  0
 16 18  1  0  0  0  0
 16 27  1  0  0  0  0
  1 28  1  0  0  0  0
  2 29  1  0  0  0  0
  3 30  1  0  0  0  0
  4 31  1  0  0  0  0
  5 32  1  0  0  0  0
  6 33  1  0  0  0  0
 14 34  1  0  0  0  0
 14 35  1  0  0  0  0
 17 36  1  0  0  0  0
 17 37  1  0  0  0  0
 17 38  1  0  0  0  0
 18 39  1  0  0  0  0
 18 40  1  0  0  0  0
 18 41  1  0  0  0  0
 20 42  1  0  0  0  0
 21 43  1  0  0  0  0
 21 44  1  0  0  0  0
 22 45  1  0  0  0  0
M  CHG  1  20   1
M  END
> <OMEGA_C>
3iXBQNvWcL+ETa/BvQrZQDCHLb2egbXBQHhAQNDdoMAsgYrBfEh3QLcnkMCxVZLBwV+gQICBbj8y
+aXBRc/lP8oIO8Djx4rBllq3QH6m7T/OX6zBZA6lQKZt5761W6fBbQr7Pwkoh8C4q4bBmIPUQNYt
rD9ZF7TBlvhpQHHuS8AzHpbBafWJQIyGi0AwX5vB6iySQEFaJsC4Gp7BOpLKQP6drkBSY6HBGqqw
QHM0WEBVw6rB4bHYQBgIgkBIYKXB4nakQDaWgUAnlbXB5rnqQIv/T0CkwZvBzmMoQI9kG8AdT5LB
cAmKQEOFZkAB8qPBJPlWQLQsg0BXl5PBBt+LQGKrob9T0KDBPrqwQHLiT8D5aaHBqYOoQEi7qkDY
f5nB0dqPP48vlsAyI37BfSjsQHYpCkBsX7rBLCL5QDRch0BUgKzBmDbEQLlGAMBymLDB7SDvQILn
1r4lbbvBJpRJQIzqwMCheofB9paVQMVFo8APdJXBy86KQF2Gpj8i55/BxEN8PzK4E8AQ3YfBBR3m
QEXqvkA7uZ3BWe2+QA2FwUCHN6jBrMqfQPEfpEB1WbTBX1C+QAXteECuarvBLquGQJmuZkCSoLjB
9N/0QKpUEEByhp7BRSkDQUT3cUCzUZjB8bfRQIruSEBvoJXBqn9dQFOKSUBGB6bBD31XQDKak0Dj
uYzBCHwqQFpxWUCa15TB3uVjQEgqVL+FqZ3B

> <OMEGA_E>
uKG4Pg==

> <OMEGA_NBR>
     22344

$$$$
253262
  -OEChem-04172616093D

 49 51  0     1  0  0  0  0  0999 V2000
    6.1356   -0.8928  -21.9693 C   0  0  0  0  0  0  0  0  0  0  0  0
    6.8596    0.0405  -22.7305 C   0  0  0  0  0  0  0  0  0  0  0  0
    3.0088   -4.7292  -17.1786 C   0  0  0  0  0  0  0  0  0  0  0  0
    3.8812   -4.3038  -18.1900 C   0  0  0  0  0  0  0  0  0  0  0  0
    4.9460    0.9299  -20.8866 C   0  0  0  0  0  0  0  0  0  0  0  0
    1.8586   -2.5969  -17.3580 C   0  0  0  0  0  0  0  0  0  0  0  0
    5.6497    1.8796  -21.6458 C   0  0  0  0  0  0  0  0  0  0  0  0
    5.1839   -0.4333  -21.0329 C   0  0  0  0  0  0  0  0  0  0  0  0
    1.9845   -3.8644  -16.7597 C   0  0  0  0  0  0  0  0  0  0  0  0
    6.6323    1.4214  -22.5692 C   0  0  0  0  0  0  0  0  0  0  0  0
    3.7077   -3.0194  -18.7527 C   0  0  0  0  0  0  0  0  0  0  0  0
    4.3711    3.8289  -19.1974 C   0  0  0  0  0  0  0  0  0  0  0  0
    4.6181   -2.5284  -19.7981 C   0  0  0  0  0  0  0  0  0  0  0  0
    6.7769    3.5594  -19.3714 C   0  0  0  0  0  0  0  0  0  0  0  0
    6.5876    4.0656  -20.8083 C   0  0  1  0  0  0  0  0  0  0  0  0
    5.3588    3.3706  -21.4275 C   0  0  1  0  0  0  0  0  0  0  0  0
    4.9254    4.0021  -22.7750 C   0  0  0  0  0  0  0  0  0  0  0  0
    7.4091    6.3227  -21.0410 C   0  0  0  0  0  0  0  0  0  0  0  0
    7.4997    6.4995  -22.5619 C   0  0  0  0  0  0  0  0  0  0  0  0
    2.7082   -2.1967  -18.3277 N   0  0  0  0  0  0  0  0  0  0  0  0
    4.2159    3.5927  -20.4869 N   0  3  0  0  0  0  0  0  0  0  0  0
    3.2386    4.1116  -18.4540 N   0  0  0  0  0  0  0  0  0  0  0  0
    4.3926   -1.2372  -20.2334 N   0  0  0  0  0  0  0  0  0  0  0  0
    5.5720   -3.1996  -20.1760 O   0  0  0  0  0  0  0  0  0  0  0  0
    5.6070    3.8708  -18.5637 O   0  0  0  0  0  0  0  0  0  0  0  0
    6.3107    5.4753  -20.7275 O   0  0  0  0  0  0  0  0  0  0  0  0
    1.1246   -4.2459  -15.7911 F   0  0  0  0  0  0  0  0  0  0  0  0
    7.3704    2.2806  -23.3088 F   0  0  0  0  0  0  0  0  0  0  0  0
    8.0101    5.3880  -23.1574 F   0  0  0  0  0  0  0  0  0  0  0  0
    8.3168    7.5463  -22.8137 F   0  0  0  0  0  0  0  0  0  0  0  0
    6.2665    6.7645  -23.0735 F   0  0  0  0  0  0  0  0  0  0  0  0
    6.3054   -1.9514  -22.0992 H   0  0  0  0  0  0  0  0  0  0  0  0
    7.5946   -0.3029  -23.4434 H   0  0  0  0  0  0  0  0  0  0  0  0
    3.1224   -5.7047  -16.7293 H   0  0  0  0  0  0  0  0  0  0  0  0
    4.6754   -4.9494  -18.5347 H   0  0  0  0  0  0  0  0  0  0  0  0
    4.2056    1.2645  -20.1751 H   0  0  0  0  0  0  0  0  0  0  0  0
    1.0695   -1.9335  -17.0361 H   0  0  0  0  0  0  0  0  0  0  0  0
    6.9259    2.4696  -19.3880 H   0  0  0  0  0  0  0  0  0  0  0  0
    7.6608    4.0435  -18.9304 H   0  0  0  0  0  0  0  0  0  0  0  0
    7.4857    3.8591  -21.4088 H   0  0  0  0  0  0  0  0  0  0  0  0
    4.7146    5.0717  -22.6284 H   0  0  0  0  0  0  0  0  0  0  0  0
    5.7343    3.8855  -23.5114 H   0  0  0  0  0  0  0  0  0  0  0  0
    4.0198    3.4970  -23.1421 H   0  0  0  0  0  0  0  0  0  0  0  0
    8.3397    5.8698  -20.6684 H   0  0  0  0  0  0  0  0  0  0  0  0
    7.2628    7.3038  -20.5658 H   0  0  0  0  0  0  0  0  0  0  0  0
    3.2865    3.5605  -20.8544 H   0  0  0  0  0  0  0  0  0  0  0  0
    3.3214    4.3393  -17.4838 H   0  0  0  0  0  0  0  0  0  0  0  0
    2.3375    4.0881  -18.8869 H   0  0  0  0  0  0  0  0  0  0  0  0
    3.5348   -0.8250  -19.9265 H   0  0  0  0  0  0  0  0  0  0  0  0
  1  2  2  0  0  0  0
  1  8  1  0  0  0  0
  2 10  1  0  0  0  0
  3  4  2  0  0  0  0
  3  9  1  0  0  0  0
  4 11  1  0  0  0  0
  5  7  1  0  0  0  0
  5  8  2  0  0  0  0
  6  9  2  0  0  0  0
  6 20  1  0  0  0  0
  7 10  2  0  0  0  0
  7 16  1  0  0  0  0
  8 23  1  0  0  0  0
  9 27  1  0  0  0  0
 10 28  1  0  0  0  0
 11 13  1  0  0  0  0
 11 20  2  0  0  0  0
 12 21  2  0  0  0  0
 12 22  1  0  0  0  0
 12 25  1  0  0  0  0
 13 23  1  0  0  0  0
 13 24  2  0  0  0  0
 14 15  1  0  0  0  0
 14 25  1  0  0  0  0
 15 16  1  0  0  0  0
 15 26  1  0  0  0  0
 16 17  1  0  0  0  0
 16 21  1  0  0  0  0
 18 19  1  0  0  0  0
 18 26  1  0  0  0  0
 19 29  1  0  0  0  0
 19 30  1  0  0  0  0
 19 31  1  0  0  0  0
  1 32  1  0  0  0  0
  2 33  1  0  0  0  0
  3 34  1  0  0  0  0
  4 35  1  0  0  0  0
  5 36  1  0  0  0  0
  6 37  1  0  0  0  0
 14 38  1  0  0  0  0
 14 39  1  0  0  0  0
 15 40  1  0  0  0  0
 17 41  1  0  0  0  0
 17 42  1  0  0  0  0
 17 43  1  0  0  0  0
 18 44  1  0  0  0  0
 18 45  1  0  0  0  0
 21 46  1  0  0  0  0
 22 47  1  0  0  0  0
 22 48  1  0  0  0  0
 23 49  1  0  0  0  0
M  CHG  1  21   1
M  END
> <OMEGA_C>
i1bEQHWMZL8Rwa/BxIHbQFDuJT0C2LXBh5BAQI9Vl8DEbYnB+2R4QOq4icAjhZHBw0WeQE8Lbj+v
F6fBDebtP9cyJsBE3YrBhsq0QAyW8D+ZKq3BvOKlQDrY3b5YQ6jBzgL+P+tSd8DzE4bB7zvUQFjv
tT+yjbTBxEttQIU9QcCHBZbBA+CLQDQNdUBSlJnBIseTQLfQIcB+Yp7ButzYQAvNY0Ce+JrBO83S
QIMZgkBdd6bBdnurQHG4V0CHa6vBIp2dQBMRgEBDM7bBdBftQEJTykARVKjBpP3vQBP8z0DefrTB
sVItQAWXDMA3n5LB1uiGQD3vZUAc5aPBvUVPQDGSg0C7oZPBf5CMQNpcnr/y3aHBbE2yQCXGTMBu
aKHBlGyzQGq7d0BlgpTB3vDJQM81r0Dx0aXBBfSPP37eh8BnqHzB9dnrQAT2EUBWeLrBeikAQZVq
rEBjQrnByBEFQZ978UB1grbB8obIQA532ECUlrjBz8XJQOHG+b9Dy7DBKgfzQOMTm77+i7vBh9VH
QBqNtsCs1YXBFJ2VQGthnsD/RpTBBpSGQMvZoT+aZqHBQ+SIP/R7978FSojBpKDdQKQOHkC3GpvB
8yT1QLZkgUB9cZfBJIvvQEL8dkBBRavBI96WQD5LokDjBrXBAX+3QFeseEBRF7zBVKKAQEvOX0D0
IrnBhW8FQY3Vu0DRWKXBBWnoQAq56UCvhqTBPVVSQDLfY0C51abB2pFUQNTbikDE3ovBFZoVQNTR
gkB0GJfB3DliQN8xU7+MaZ/B8KTAQCTtZr8W56/BqSzXQAAnAjx9T7bBuDtDQELnmsBe4YnBfUl7
QEw+i8DPspHBvaecQAK9cT9++qbBha/oPzIfMMC+EIvBXMqyQJA77z9sX63B3X2jQPnG2L57KKjB
U8D9P8r6gMD6iobBtHPQQJiOsT9gHrXBSbFtQEG9Q8Dy7ZXBGIKMQIMxfUBwq5nBIdyTQOS4IMCn
Dp7BJKbYQMxcaUC0d5nBPjfaQFG9cUAUxqXBS5KuQKX9VkA5DKvBOl+jQEbTgkAIs7XBL9XRQLgb
xkCX5KXB5vfYQEh56EAUQq7BXBUrQH14EsBTjZLBwFSJQPq3aEBe16PBCuVNQLD6gkBi4JPB2keL
QLzKnL9afaHB6X6zQCHmSMCZ96DBktiyQCx7h0D/s5TBrojpQKBzoUCUUanBi/yOPyA7j8CWHn7B
eAzoQLOuDkDmNbvB1cUBQWrX8EA38q7BSjbDQKH1BUFTPavBq5jKQMQQ20AT+LfBm4zFQIRn+7+1
4bDBfsHtQOz5tL5oLbzBuGxMQMNXusBEe4bBHRuYQEmKnsAKdZTBaRSGQEwqpj+1FKHBO25+P9pq
CMDWgIjBlHDZQNr0JEC/ZZfB9P30QKqphEBUHJbBp4PxQEKWQUAGeajBvCygQJ9cpUDIMrTBeQS9
QOemekB5kbvBjQOFQLyCbEAc27jBF3jdQLYT0UCuDZ7BsJavQNBIvkAcU6XBN/RXQJyzZECc/KbB
ywNQQC1vjEAAPYzBpJIVQGNfeUC3VZfBSBJgQL+FUr/MzJ7Bhm3DQL5IZb8Mmq/Bbr7aQCRSyzxD
wbXBN/w5QFfdm8BP3IrB8cdxQGATjcAd0pLBUf+dQJa+cD+s86bB9vD0P8jdKcC6SIrB1oi0QCgg
8D9ULa3B4FSlQIRJ2r5bDajByHH7Pxu8fsBiiIbBcsTTQCXlsz9IjbTBlM9rQAkgRMA8O5bBK++L
QAaUeEDGxpnB9zWTQNttIsD8ZJ7BgM7YQE6aZEDky5rBvVbUQMxOgEDmhqbBT1isQLh6V0AcfavB
7k6gQEsQgUDDWbbBbEnvQEWHx0Dh6KfBcRHbQLtN8kCcm6rBUpEwQKYlDsCv9JHBzG+HQEe8Z0AG
EqTBUaBOQB+uhEDe5pPBslmMQDRknb+BjKHBIbSxQGL5TMDFhqHBFUizQG33fUBbqJTBC7fLQKt+
rEAktKbBZIaOPy+FjMCOo33BbofrQJo7EEDQibrBzFTHQCg670AiTrTBlgn6QFc7CEE56arBCmm9
QECP/EDKA6PBKnfIQElo+r/yobDBiinyQIuYqL5GcbvBIkQ9QOmTvMC1GojBfV2QQGlFosC6TZbB
TZ+GQM7EpD+EOaHB3NSXP/Jl/L8K+IbBuzjcQCqWHkC9dZrBAGP1QAVsgUBsUZfB9iTxQM6Mb0Dc
HKvBzm+aQLloo0AKGrXBRsO6QHvGeUCoD7zBpjqDQBzgY0D5jrnB8RMCQWRzvEDKbq7BOewAQQp5
yUCucqDBGqRTQL+yZUDsFqfBLzJTQMB1jEC0KYzBlSoVQLL1gkAGZpfB2EZjQMooTr/MvZ7BRrLB
QFqHZ78qv6/B/uDXQOD5Ozw+LrbByCtBQFtkm8CDEorBZit6QPHPi8C5y5HBaJCcQFR6bj/O96bB
3X/oP/jnL8CXJ4vBvlqyQEYj7j8pYq3BohKkQI353b6TFKjBR5X6P3IjgcDMvIbBN1TQQDuisT/p
FrXBUOBtQNJuRMCR8pXB5X+MQJ2bfkCttpnB4CaUQNnNIcCRDp7BDfXYQFdsb0D5/pnBSgbZQLPl
c0AFYKbB1CGtQJVxVkBrPKvBbwWgQCI4gUAc9bXBBs7NQGNpxkAgGanBF23qQA9y6UBz/qTBqtcr
QFl0EsBmjZLBTJWIQOazZ0DfyaPBsKFOQBpnhEBpzZPBp+qLQOpunr+4baHBGW2zQKW3SsALDKHB
IROzQO5LiUCdAJXBfz7oQKqHoUBhsKrB+NmJPxlUj8AquX7BcGznQL9ZD0C3ObvBwFT+QC8z3EBz
5ZvB5tHRQDkTBkHb8KLBNgEEQYyX8kCLpKzBUjnHQOB2+79WpbDBeNHuQJ+1r76d/LvBfElJQAgG
u8AnvobBUGeXQGlWn8A0ipTBibyFQAjCoz+pG6HBwO9/P1ygB8AelYjBK7TbQOPYK0BDoJfBO+j0
QOGHiUDaCJfBawfwQCSjQkAu6qjBVQScQIjKo0C4o7TBzh+5QPS2d0Cb+rvBaK6BQDgCZ0AF0LjB
Opy0QPJUv0CKNqPBmge/QFgd0EBItbDBK+ZVQMZRYUBNs6bBcbBRQIgkj0CvRozBDe0VQJiuekB7
EJfBfqNhQP7PVL//rp7BvkHDQDGXar8Ona/Bv6vZQMCsOTxu5rXBmSLmP7W5MsDWP4rBNiYnQLXT
FMDlh5LBPVyeQGb2aT/6rabBlDhJQMsMmsCd84nBqAW0QD617T9kCa3BntKlQHbt6L7W4qfBhLEE
QIqfgcAt3IXBc3/SQMIBsj+TorTBo0lsQDAMSMBaPZbB/NuLQOixfUCCvpnBnk2TQC7pJcDudZ7B
7kLYQMszaEB3pZrBlH/UQI1if0BggKbBTNCrQC+ZVkBZUKvBUcWeQDg5gEBaILbB7dnwQB6OwUDp
CK3BBQDeQHEw60BjEbHBLll7QMI4i8Cz95HBoC6HQG/WZkDl1qPBsqtOQK5iiEBh8ZPBRGWNQHQ8
or9zVqHBF1mxQDcbUcABu6HBbTqzQOhUg0DXxZTBGQnQQFDPrEA2JafBSD6oPznMkMBWjHvBIXLp
QDOTD0ClxrrBwoe/QGN/4kA/ibjBFuT9QMBBAUG3gLXBQwPMQOGCAEGjx6jBC33IQIbf/L8CrrDB
WZHwQJ/+q77HvrvBmMZ5PzWcDMCWTYfBK/QaQPwmrr/RGZbB05mHQMx4oD/qxaDBXfdVQAJIucDR
nIbBy27aQMs7IkDi1pnBKEv1QPLugkD5U5fBpenwQGvZaECL3arBo92YQIqUokA26LTBgr24QGz6
d0DF+LvBsnuBQAPHYUD8JbnB/u36QGR3rUC3zrPBwkMGQZb7x0A816fB7udSQAnxX0DKq6bBUI5T
QOo8kkAmW4zBSwgVQMprhUAYV5fBcPdmQHTWVL9qMp7BtSHEQJkWZb9W1q/Bi9TaQGBYHD3iCLbB
c4XnP6jzJ8AOHIrB//soQID5C8CQYJLBHd6eQCJfbj+D+6bBh5hDQK2plsBgBIrBXdG0QDS+8D+p
MK3B1EymQHIF3r5fOKjBMJEBQP6RecDK1YXBiZ3TQKS0tT/ou7TBgWNrQJxBQsA0NpbBxvaLQLZX
d0DurJnBa1OTQOZ1IsDoe57BxOfYQM8CaEC2IZvB6ozSQBTJgkAWuqbBskarQMToV0AAhKvB5ySd
QHW9f0AnU7bBY5jsQHAJy0C/xqjBzo7xQJZOz0DC77TB5dl2QDjFiMDQB5LBetOGQFYVZkAk8KPB
W3FPQGkBhECPqpPBDQKNQH5inr/X2aHBhASyQOKZTcC8XaHB956zQPqjfUAWuZTBnlHJQAvkr0Bl
bqbBjemfP2wEi8BBe3vBLJPqQNerEUCy1LrBY5UBQXFwq0B/QLnB1NQFQe/l8EDT4bbBuMfKQPC/
1kDwibnB1njJQAAS+r865bDBpfbxQBJ/nL6f1bvBCk6CPxsd/79SFofB7scfQDS1mr9n2ZXBKciH
QP0Ioj8bI6HBCXhNQDhGtsAcwIbB5qTdQIhCIkDS/5rBmkX1QC3og0Bww5fBFUPvQC+id0CvgqvB
cD+WQCQXokDBMbXBdPa2QAlDeECWO7zB+zOAQIv/XkB5NrnByvsEQYc2vUCzX6XBRPzmQHrS6kDd
Q6XBwgRSQBpGYkCUzabBhvdUQHcQjEB39IvBQ4kVQDT4gUDsCJfBit1jQFkEUL+FRp/BCb3CQIZB
Zr8pYa/BZrrYQGCBnTze1LXBU9TrPyA5NsAVmInB2LMrQMJcFMDWd5HBW7idQPrObz9tlqbBRuJF
QH+PncDG4YrBrlazQD+97z/YD63BtTKlQMET3r45r6fBaEIDQFNfhcD2QYbBaSTRQCvJsj8axrTB
wpBtQJUcSMCj55XBWPSLQGznf0AO+pnBSlWTQB+WJMB9Kp7B8fnYQCQwe0DiPJvBH8PVQIQigUCa
i6fBITCrQIXmV0DgnKvBDS+bQDs1fEBMerbBlru/QKt0zEDho6fBNIK5QFqb7kA/LLDBRjp5QEnu
jMDAipLBiyeHQISVZkCT8KPBWJhOQCI5hUCL4JPBWg6NQKNzn78cBaHByKawQDUaUMCCwqHBwNSy
QGLHi0ATpJXBh4TcQLUOrED+havBD8egPxK1lsDKW33BmAHnQPWDD0DOOrvByU/dQOp7A0GR2bDB
w3WXQHF0A0GIQq3BboyxQGKW3ECd4bnBZF/IQCa8+r/ASrDB6KHvQE6Cq77mpbvBj3eGPxYSEMDB
KYbBdEAjQC57pr8dKpTBvQmHQO5kpD8MsaDBoSRQQHgTvsAIQIjBx9feQN/NN0BsJ5nBuR30QPY+
kUDEipjBisfvQGlfWkC0v6rB7Q6VQOCdoEADrLXBQbizQN+ZcUCOpbzBmuR6QFB3W0BOzrjBrz3N
QIMx20CuZaDBzaqgQNvLvUD9t6XBP7pSQFFwXEAykqbB7K9SQORgkUCUfozBY5oVQB2+eUDL25bB
RpdmQMqST7+4yp3B

> <OMEGA_E>
8OHOPnw10D7ovdI+OG3WPsRlCz+kBwk/bgIJPw==

> <OMEGA_NBR>
     28506

$$$$
253261
  -OEChem-04172616093D

 49 51  0     1  0  0  0  0  0999 V2000
    6.1201   -0.9015  -21.9942 C   0  0  0  0  0  0  0  0  0  0  0  0
    6.8453    0.0348  -22.7516 C   0  0  0  0  0  0  0  0  0  0  0  0
    2.9942   -4.7152  -17.1763 C   0  0  0  0  0  0  0  0  0  0  0  0
    3.8849   -4.2917  -18.1727 C   0  0  0  0  0  0  0  0  0  0  0  0
    4.9539    0.9187  -20.8829 C   0  0  0  0  0  0  0  0  0  0  0  0
    1.8511   -2.5812  -17.3756 C   0  0  0  0  0  0  0  0  0  0  0  0
    5.6533    1.8712  -21.6420 C   0  0  0  0  0  0  0  0  0  0  0  0
    5.1814   -0.4436  -21.0450 C   0  0  0  0  0  0  0  0  0  0  0  0
    6.6273    1.4162  -22.5758 C   0  0  0  0  0  0  0  0  0  0  0  0
    1.9623   -3.8497  -16.7781 C   0  0  0  0  0  0  0  0  0  0  0  0
    3.7201   -3.0089  -18.7413 C   0  0  0  0  0  0  0  0  0  0  0  0
    4.3712    3.8253  -19.1931 C   0  0  0  0  0  0  0  0  0  0  0  0
    4.6298   -2.5274  -19.7917 C   0  0  0  0  0  0  0  0  0  0  0  0
    6.7790    3.5759  -19.3797 C   0  0  0  0  0  0  0  0  0  0  0  0
    6.5726    4.0748  -20.8168 C   0  0  1  0  0  0  0  0  0  0  0  0
    5.3513    3.3603  -21.4258 C   0  0  1  0  0  0  0  0  0  0  0  0
    4.9052    3.9843  -22.7732 C   0  0  0  0  0  0  0  0  0  0  0  0
    7.3444    6.3505  -21.0429 C   0  0  0  0  0  0  0  0  0  0  0  0
    7.4398    6.5318  -22.5625 C   0  0  0  0  0  0  0  0  0  0  0  0
    2.7179   -2.1827  -18.3296 N   0  0  0  0  0  0  0  0  0  0  0  0
    4.2111    3.5730  -20.4790 N   0  3  0  0  0  0  0  0  0  0  0  0
    3.2424    4.1250  -18.4506 N   0  0  0  0  0  0  0  0  0  0  0  0
    4.3878   -1.2486  -20.2514 N   0  0  0  0  0  0  0  0  0  0  0  0
    5.5891   -3.1957  -20.1614 O   0  0  0  0  0  0  0  0  0  0  0  0
    5.6102    3.8765  -18.5653 O   0  0  0  0  0  0  0  0  0  0  0  0
    6.2650    5.4788  -20.7383 O   0  0  0  0  0  0  0  0  0  0  0  0
    7.3597    2.2791  -23.3168 F   0  0  0  0  0  0  0  0  0  0  0  0
    7.9788    5.4330  -23.1563 F   0  0  0  0  0  0  0  0  0  0  0  0
    8.2353    7.5970  -22.8043 F   0  0  0  0  0  0  0  0  0  0  0  0
    6.2052    6.7704  -23.0840 F   0  0  0  0  0  0  0  0  0  0  0  0
    0.8250   -4.3405  -15.5547 Cl  0  0  0  0  0  0  0  0  0  0  0  0
    6.2797   -1.9600  -22.1372 H   0  0  0  0  0  0  0  0  0  0  0  0
    7.5736   -0.3062  -23.4724 H   0  0  0  0  0  0  0  0  0  0  0  0
    3.0998   -5.6898  -16.7229 H   0  0  0  0  0  0  0  0  0  0  0  0
    4.6861   -4.9372  -18.5012 H   0  0  0  0  0  0  0  0  0  0  0  0
    4.2248    1.2510  -20.1588 H   0  0  0  0  0  0  0  0  0  0  0  0
    1.0591   -1.9155  -17.0657 H   0  0  0  0  0  0  0  0  0  0  0  0
    6.9411    2.4880  -19.3934 H   0  0  0  0  0  0  0  0  0  0  0  0
    7.6599    4.0724  -18.9467 H   0  0  0  0  0  0  0  0  0  0  0  0
    7.4704    3.8843  -21.4232 H   0  0  0  0  0  0  0  0  0  0  0  0
    4.6862    5.0526  -22.6285 H   0  0  0  0  0  0  0  0  0  0  0  0
    5.7109    3.8723  -23.5136 H   0  0  0  0  0  0  0  0  0  0  0  0
    4.0018    3.4706  -23.1338 H   0  0  0  0  0  0  0  0  0  0  0  0
    8.2828    5.9184  -20.6653 H   0  0  0  0  0  0  0  0  0  0  0  0
    7.1728    7.3273  -20.5669 H   0  0  0  0  0  0  0  0  0  0  0  0
    3.2798    3.5212  -20.8395 H   0  0  0  0  0  0  0  0  0  0  0  0
    3.3297    4.3712  -17.4854 H   0  0  0  0  0  0  0  0  0  0  0  0
    2.3395    4.0952  -18.8794 H   0  0  0  0  0  0  0  0  0  0  0  0
    3.5154   -0.8488  -19.9703 H   0  0  0  0  0  0  0  0  0  0  0  0
  1  2  2  0  0  0  0
  1  8  1  0  0  0  0
  2  9  1  0  0  0  0
  3  4  2  0  0  0  0
  3 10  1  0  0  0  0
  4 11  1  0  0  0  0
  5  7  1  0  0  0  0
  5  8  2  0  0  0  0
  6 10  2  0  0  0  0
  6 20  1  0  0  0  0
  7  9  2  0  0  0  0
  7 16  1  0  0  0  0
  8 23  1  0  0  0  0
  9 27  1  0  0  0  0
 10 31  1  0  0  0  0
 11 13  1  0  0  0  0
 11 20  2  0  0  0  0
 12 21  2  0  0  0  0
 12 22  1  0  0  0  0
 12 25  1  0  0  0  0
 13 23  1  0  0  0  0
 13 24  2  0  0  0  0
 14 15  1  0  0  0  0
 14 25  1  0  0  0  0
 15 16  1  0  0  0  0
 15 26  1  0  0  0  0
 16 17  1  0  0  0  0
 16 21  1  0  0  0  0
 18 19  1  0  0  0  0
 18 26  1  0  0  0  0
 19 28  1  0  0  0  0
 19 29  1  0  0  0  0
 19 30  1  0  0  0  0
  1 32  1  0  0  0  0
  2 33  1  0  0  0  0
  3 34  1  0  0  0  0
  4 35  1  0  0  0  0
  5 36  1  0  0  0  0
  6 37  1  0  0  0  0
 14 38  1  0  0  0  0
 14 39  1  0  0  0  0
 15 40  1  0  0  0  0
 17 41  1  0  0  0  0
 17 42  1  0  0  0  0
 17 43  1  0  0  0  0
 18 44  1  0  0  0  0
 18 45  1  0  0  0  0
 21 46  1  0  0  0  0
 22 47  1  0  0  0  0
 22 48  1  0  0  0  0
 23 49  1  0  0  0  0
M  CHG  1  21   1
M  END
> <OMEGA_C>
OdjDQKTFZr8h9K/BqQzbQFi9Dj1WA7bBsKE/QE7jlsABaYnB86J4QEtVicC9YZHBWoaeQOQyaz9C
EKfBZu/sPxUyJcAkAYvBgue0QCyC7z/HIq3BB86lQF0j474zXKjBxBLUQJlEtT8nm7TBSC77PxBi
dsCPOYbBohZuQGqRQMA37pXByOCLQOTRdEBsi5nBNSeUQBDBIcB8VZ7BvO3YQJDbZECdCZvBi1LS
QG9kgkDNiKbBrT2rQFQPV0DwZ6vBM/ecQIH/fkCML7bBUwXrQIM3y0DZV6jBIRPuQHgE0UALgLTB
/PEtQEuxC8D2opLBNsGGQHKrZEAN1aPBl4NPQKP/g0DnmpPBFmmMQLjRn7/bAqLBntmyQNaFTMCM
SqHBHoezQH4YeEC9hZTBmXrIQD5Sr0D356XBdILrQIDcEUC1iLrBklL/QOHarUATQLnB4MMDQVYa
80Awb7bBG5HGQEun2EAArLjBWjRTP8jlisAQ4HjBj/PIQOLg+r/nGLHBQ1vyQGnMnL6Ox7vBlmJG
QNIStsCRyIXBlvSVQDz9ncBgApTBQDGHQJ4goD88RaHBP4+HP7ov9b96hojBuB3eQF47H0DGJZvB
AB71QGBRgkDWkpfBKQ3vQBeZeEC6YqvBoPWVQMCuoUA7B7XBBsC2QGfUd0DlG7zBBg+AQG8eXkAa
ErnBfIYEQY9jvUBwUqXBuYflQN546kAIiaTBiOdRQL5aYUBPt6bBSRlVQAbhi0AJ4ovBJ7oVQAIM
g0ALCZfBXvxgQCRIWb8ww5/BJY/DQEijZb+26a/BHt/aQEitED0D+7XBIkpAQHh1l8ATeYnB3sV4
QFOgicA7eJHBXVaeQMq6bT+ZEKfBRsrsP2+iJsDj8YrBhte0QC5W8D/cJ63BiYulQB/93r7CUqjB
1gzUQM5ptT/yl7TB7VX8P4Hwd8D8NIbB5MJtQI32QMCP85XBAfKLQBvXdEBJj5nBafKTQCt4IcAH
U57BlPTYQClmY0Ce7JrBvvLSQDgAgkDcaabBVq2rQNirV0COZKvB/xieQBBbgEANK7bB+iftQAVd
ykBA66fB+onwQJVU0UCoBrTBmHYtQESMDMB6mJLB4QqHQPjLZUBq4aPBhmZPQIK0g0Aro5PBGTiM
QGC/nr878KHBnceyQLriS8CkRaHBlHizQHRUd0C2eJTBbt/JQFILr0Bau6XBedHrQE+pEUBkerrB
l3EFQfD08kDSu7XBtzvJQNVR2kAJKLjBn3EAQYMvrkBM+rjByXRYP18EjMCXvHjBC4/IQPxl+r+8
C7HBhibyQBh3nr5qvbvBoH5HQEiytsBT44XBlwOWQPMknsBnK5TBW/uGQIvjoT+8SqHBSRKHP6LV
+L8Ka4jBJLDdQPqlHUCLEpvB9zv1QIMjgUBQYZfBzLrvQCUVd0ApN6vBJ3yXQEqWokCe9LTBJBO4
QDVGeUCICLzB3xmBQHbHYEA9KbnBuWMFQQR/u0Cs9KTBkFXoQMZS6UC36KPBMKNSQCe7Y0Ai1abB
naRUQNgXi0CT4YvBvMYVQMQGg0A2HZfBbuJgQFRzVr/gnJ/BIv/AQPgVaL8k76/BqZnXQIBz9Ttd
SrbBu15DQITPmcDinYnBNXh8QDZzisDuW5HBHZacQIZbbz/1C6fBoc3nP4iTLsDRPIvBreuyQBWY
7j/ZWq3Bf5ijQCIi3b6QPajB9czQQCF4sT9NEbXBlTn8PzDWf8Buj4bBIbluQGTsQsDLz5XB6yqM
QBzcfEDNn5nBfEqUQJ7dIMAPBZ7BhUjYQLx9Z0BzWZnBOAbaQFSMcUA6oqXBQZKuQMKgVkDT+qrB
26ijQO7LgkC2oLXB2XnQQPzuxUASeaXBS1rXQP/r6EAWrK3Bj38rQOSTEcBEp5LBCi6JQE4SaEDS
y6PBevRMQAvhg0CP8JPBDV2LQIw8nr+RnKHBa9ezQLpYScBK7KDBhnyyQAdohkApipTBu+PoQPXS
oUCY+ajB8oboQIrfDkB5GLvBIeQAQXMl8kACKa7BHanAQNfZBUHnl6rBB9LJQLHT20AzfLfB0v1T
P/H4kcBfJ3rBzwrGQFTl+7+U6rDBEE3uQKBis756JLzBoXRMQKr8uMC+EIbBIx6ZQBirncBu45PB
nLeFQHdvpD85NKHBDs96P07JBsAq2ojBvOLYQErOIkDIbJfBbKf0QItcg0Cb5pXBUaHxQMRQQkAc
a6jBql6gQPRNpUA0GbTB0Xy9QALaekA3dLvBCWqFQOZ4bECD2rjBaaLbQI6X0EBHkJ3BBVeuQMiJ
vUACBaXBDr9XQGCXY0Ce9abBduROQL5qjUChTozBBKIUQJKLfECTeJfBkXpfQFDbV7/mE5/BoQDC
QAaiaL8AIrDBPmHZQJhHlzxqOLbBmEpDQPDVl8ADWInBLqh6QNfdicBncZHB8aSeQHztaz8H3qbB
6oDuP/iUKMD124rBcT+1QHqN7j8D/azBbdakQFIh474zWqjBI3XTQN4ssz/Op7TBBKwAQJRtecCL
C4bBJvBtQGL6QcD6AJbBn7OLQJzedkDccJnBZpaTQCMKIsA2bp7BezXYQJisXUDa1JnB3C7WQEws
fEASe6XBFPStQLqYVkCA8KrBEHmiQNKKgUA2rLXBdIPtQGSWwkCat6vBdDPWQA3L60CUfq7BRCQt
QCNMDsBQoJLB7V+IQDNjZkABwqPB8iBNQBoKhUCC5ZPBVniLQMAIoL9eA6LBccCyQFyYS8AkW6HB
B0+yQJ3AeEAN95PBfnbRQGwdq0A6BKXBnhbrQBVsEEBjmLrBJyW4QLzS40AGF7bByyvzQFYJBEGS
TrLBdbTCQPMN/EB4nqXBkHtnP3P/jMC2L3jBPE3GQOT9+7+yZLHBsv/vQHr+qL6/ILzBGLVLQMHl
tsB8tIXBBSyXQG4SnsBaKZTB2hiIQPyNoT+76aDBnCKIP6jM/b/hS4jBQTTaQJBlF0AssJnBUMr0
QNrteEDB/JXBOjPzQCrQaEDB1anBeyqdQHTio0AeRbTB4O68QKatekBdYbvB6i+FQJdNZkAj+bjB
haD0QOBPsEBhBrPBAcIFQca3yUBbeafBaS1WQI5PZEC5+KbBL+xPQH9wjEAHH4zBfLEUQHaThEDt
qpfBvR1fQDO+Wr8Mt5/BS1DBQCx+aL9816/BzJbXQGDIAjyCQLbB3HFBQE4Im8Bt9InBFdt6QHqU
i8BlppHBSaOcQNrhbT+n9abBZHToP1Z1L8CqOIvB32eyQBvq7T8JYa3BafejQDyS374XHqjB51zQ
QHxOsT9VFrXBGHP6P5LEgMDfu4bBiWxuQBZIRMBd5ZXBr1+MQGR8fkDtqpnBcFWUQNfsIcDSCp7B
CKfYQE6KbEA0u5nBpHzZQJgZckByGqbBuZytQNdPVkAXIavBS1OhQEbygUCzz7XBnpfPQEDPxUAa
nqjBVufrQFGj50C7x6PBfBUsQIJREsAGmZLBoMeIQB67Z0A+wqPBRQVOQOXKhEAz2ZPBzPKLQH3l
nr+OcaHBvnGzQNoPS8BtF6HBIeSyQDyWiEAv2JTBIX7pQJKaoECuSarBZeTnQKokD0BMH7vBN1z/
QIMc2EDW2JrBpg/TQMzRBEE3OqHBKfQEQR7i8kA0I6vBunhQP2fGksAgfXrBmZDGQKcC/L/vzbDB
Z1vuQHG4sb4zGbzBaYJJQKuPusAekIbBLu6XQFgRn8BuTJTBcfiFQF94oz+qD6HBABF/PyolB8Bt
uIjBi2zaQFunKEB8cZfBjtj0QL5Eh0DWnZbB8EDwQANcQEBloajBYq+dQEp8pED0YLTBqaq6QCg9
eUClxbvBQveCQMaRaUD+z7jBaBq1QNlGvkAFI6PBSpLCQLwZ0UBnSrDBIX1WQKaVYUB5vabBisBQ
QDxij0CaTozBCmUVQGBofEBhMZfBOqJhQA1EVr9Fs57B

> <OMEGA_E>
zCrRPohl0T4gVtI+ONbTPvzF2D4=

> <OMEGA_NBR>
     32989

$$$$
253264
  -OEChem-04172616093D

 49 51  0     1  0  0  0  0  0999 V2000
    6.1574   -0.8891  -21.9501 C   0  0  0  0  0  0  0  0  0  0  0  0
    6.8787    0.0436  -22.7134 C   0  0  0  0  0  0  0  0  0  0  0  0
    4.9761    0.9326  -20.8584 C   0  0  0  0  0  0  0  0  0  0  0  0
    2.9758   -4.6398  -17.0679 C   0  0  0  0  0  0  0  0  0  0  0  0
    1.8513   -2.5152  -17.3733 C   0  0  0  0  0  0  0  0  0  0  0  0
    5.6686    1.8810  -21.6294 C   0  0  0  0  0  0  0  0  0  0  0  0
    5.2133   -0.4302  -21.0047 C   0  0  0  0  0  0  0  0  0  0  0  0
    6.6505    1.4234  -22.5530 C   0  0  0  0  0  0  0  0  0  0  0  0
    1.9532   -3.7497  -16.7124 C   0  0  0  0  0  0  0  0  0  0  0  0
    3.8736   -4.2828  -18.0851 C   0  0  0  0  0  0  0  0  0  0  0  0
    3.7168   -3.0222  -18.7290 C   0  0  0  0  0  0  0  0  0  0  0  0
    4.3635    3.8261  -19.2064 C   0  0  0  0  0  0  0  0  0  0  0  0
    4.6238   -2.5386  -19.7962 C   0  0  0  0  0  0  0  0  0  0  0  0
    6.7737    3.6130  -19.3801 C   0  0  0  0  0  0  0  0  0  0  0  0
    6.5749    4.0912  -20.8246 C   0  0  1  0  0  0  0  0  0  0  0  0
    5.3579    3.3700  -21.4329 C   0  0  1  0  0  0  0  0  0  0  0  0
    4.9188    3.9772  -22.7908 C   0  0  0  0  0  0  0  0  0  0  0  0
    7.3624    6.3558  -21.0846 C   0  0  0  0  0  0  0  0  0  0  0  0
    7.4773    6.5029  -22.6074 C   0  0  0  0  0  0  0  0  0  0  0  0
    2.7145   -2.1763  -18.3523 N   0  0  0  0  0  0  0  0  0  0  0  0
    4.2119    3.5885  -20.4960 N   0  3  0  0  0  0  0  0  0  0  0  0
    3.2237    4.0557  -18.4562 N   0  0  0  0  0  0  0  0  0  0  0  0
    4.4283   -1.2302  -20.1942 N   0  0  0  0  0  0  0  0  0  0  0  0
    5.5346   -3.2211  -20.2480 O   0  0  0  0  0  0  0  0  0  0  0  0
    5.5990    3.9163  -18.5776 O   0  0  0  0  0  0  0  0  0  0  0  0
    6.2739    5.4966  -20.7708 O   0  0  0  0  0  0  0  0  0  0  0  0
    7.3821    2.2821  -23.2993 F   0  0  0  0  0  0  0  0  0  0  0  0
    8.0134    5.3882  -23.1735 F   0  0  0  0  0  0  0  0  0  0  0  0
    8.2854    7.5551  -22.8642 F   0  0  0  0  0  0  0  0  0  0  0  0
    6.2500    6.7407  -23.1461 F   0  0  0  0  0  0  0  0  0  0  0  0
    0.8158   -4.1722  -15.4636 Cl  0  0  0  0  0  0  0  0  0  0  0  0
    5.1451   -5.4206  -18.4909 Cl  0  0  0  0  0  0  0  0  0  0  0  0
    6.3232   -1.9477  -22.0848 H   0  0  0  0  0  0  0  0  0  0  0  0
    7.6126   -0.2998  -23.4275 H   0  0  0  0  0  0  0  0  0  0  0  0
    4.2450    1.2682  -20.1377 H   0  0  0  0  0  0  0  0  0  0  0  0
    3.0715   -5.5903  -16.5643 H   0  0  0  0  0  0  0  0  0  0  0  0
    1.0687   -1.8257  -17.0930 H   0  0  0  0  0  0  0  0  0  0  0  0
    6.9426    2.5260  -19.3785 H   0  0  0  0  0  0  0  0  0  0  0  0
    7.6486    4.1206  -18.9478 H   0  0  0  0  0  0  0  0  0  0  0  0
    7.4761    3.8891  -21.4222 H   0  0  0  0  0  0  0  0  0  0  0  0
    4.6937    5.0459  -22.6595 H   0  0  0  0  0  0  0  0  0  0  0  0
    5.7305    3.8609  -23.5240 H   0  0  0  0  0  0  0  0  0  0  0  0
    4.0205    3.4552  -23.1523 H   0  0  0  0  0  0  0  0  0  0  0  0
    8.2940    5.9272  -20.6866 H   0  0  0  0  0  0  0  0  0  0  0  0
    7.1912    7.3441  -20.6329 H   0  0  0  0  0  0  0  0  0  0  0  0
    3.2835    3.5528  -20.8658 H   0  0  0  0  0  0  0  0  0  0  0  0
    3.3013    4.2805  -17.4849 H   0  0  0  0  0  0  0  0  0  0  0  0
    2.3224    3.9969  -18.8854 H   0  0  0  0  0  0  0  0  0  0  0  0
    3.5969   -0.7980  -19.8450 H   0  0  0  0  0  0  0  0  0  0  0  0
  1  2  2  0  0  0  0
  1  7  1  0  0  0  0
  2  8  1  0  0  0  0
  3  6  1  0  0  0  0
  3  7  2  0  0  0  0
  4  9  1  0  0  0  0
  4 10  2  0  0  0  0
  5  9  2  0  0  0  0
  5 20  1  0  0  0  0
  6  8  2  0  0  0  0
  6 16  1  0  0  0  0
  7 23  1  0  0  0  0
  8 27  1  0  0  0  0
  9 31  1  0  0  0  0
 10 11  1  0  0  0  0
 10 32  1  0  0  0  0
 11 13  1  0  0  0  0
 11 20  2  0  0  0  0
 12 21  2  0  0  0  0
 12 22  1  0  0  0  0
 12 25  1  0  0  0  0
 13 23  1  0  0  0  0
 13 24  2  0  0  0  0
 14 15  1  0  0  0  0
 14 25  1  0  0  0  0
 15 16  1  0  0  0  0
 15 26  1  0  0  0  0
 16 17  1  0  0  0  0
 16 21  1  0  0  0  0
 18 19  1  0  0  0  0
 18 26  1  0  0  0  0
 19 28  1  0  0  0  0
 19 29  1  0  0  0  0
 19 30  1  0  0  0  0
  1 33  1  0  0  0  0
  2 34  1  0  0  0  0
  3 35  1  0  0  0  0
  4 36  1  0  0  0  0
  5 37  1  0  0  0  0
 14 38  1  0  0  0  0
 14 39  1  0  0  0  0
 15 40  1  0  0  0  0
 17 41  1  0  0  0  0
 17 42  1  0  0  0  0
 17 43  1  0  0  0  0
 18 44  1  0  0  0  0
 18 45  1  0  0  0  0
 21 46  1  0  0  0  0
 22 47  1  0  0  0  0
 22 48  1  0  0  0  0
 23 49  1  0  0  0  0
M  CHG  1  21   1
M  END
> <OMEGA_C>
zQnFQB2ZY7/bma/BUx7cQPCJMj0FtbXBHzyfQFi9bj/w3abBFnM+QAR5lMAdi4jB+PXsP3j5IMCE
/IrB7mS1QHrF8D/pCK3BiNOmQA5E3L6wCajB2tDUQHQztj+AbLTBygL6P6r6b8D8soXB2eh3QGQM
icAxrpDBCeBtQDdsQcAJ1ZXBtqGLQGLfdECwppnBhPaTQD94IsCIXp7BP8LYQBs7Z0B7CpvB1GXS
QC7rgkDYmKbBUXSrQCauV0COdqvBaWadQFiKfkCAU7bBI5nrQAVjy0A/rajB7kXvQPcX0EDb27TB
U7otQLVIC8CN0ZLBs8eGQJiqZUDX96PBxVFOQH7IgUBlppPBl7SNQIx4nb++jaHBhhuxQOIlTsD3
+6HBsiqzQLmkekDpnpTBksPIQHHkr0ClKqbBaDrsQIANEkD4ZLrB+zYAQU5srEBgY7nBH5EEQVbD
8UDe6bbBQQDIQOaz10AoK7nBgdVQP9yChcDwanfBbaSkQJB1rcBF7ZPBWFfKQG1P+b+hrbDBWprz
QAB/mb5ua7vBTdeHQF1Toj8NGqHBHpREQO7jssCag4TBtsmIP86x6b+OvojBnSneQFyqIUAvB5vB
GMH0QP/bg0D/lJfB/TvvQJHneECzYKvBuDKWQPF3oUCkRrXBLGC3QIQZd0ARMbzBSaiAQKQhXUD2
N7nBbLQEQdurvUAifqXBTR7mQNIC60AvEKXBHiRSQGpgY0Aw7abBukhTQML5iEAh4YvBw6IUQBbN
f0BVFZfBujNmQC5ITL+Uwp7BXYLEQCIPab/Hwa/Bc5PbQED54Tzaz7XBTN6eQMqWZz9E3qbBULI8
QMEdlsBr5ojB6AzvP7xsIsB49YrBAwq1QL3Y7T8o+qzBOGOmQMxo6r5uJqjB+13UQOgDtD8XbLTB
gdD4P1h4csCd5YXBtpJ2QO2UisC9+5DBIiduQK5rQ8Cx6ZXBjHWLQCjYdkBhjZnBwxqUQJ5RJMAt
cp7BZWfYQDSvZUAE3prBF1vSQMTkgUDidKbB/iqrQOomVkCXTqvB9MicQBxQfUBfILbBw1bsQAvs
yUCsxajB7kbvQLREzkBn+LTBsTEvQMqADMAxu5LBwY6GQBQgZED9xqPBQXZOQL21hUDQuZPBUzuN
QEwUor/Zv6HB6fexQNwBT8Dc4KHBM/myQKwke0BnfZTBOk3JQCD6rkABGKbBV9PrQHI9EUAxV7rB
39EEQXdg70B2LbfBGN7HQCWT1kAwHrnBmmz/QAIrqkAphbnBFXFLP2v0hsAnBXjBYQmjQP+hr8DL
fJTBN8HJQKHs+78R6LDBTvnyQBcQn77skLvB94qHQPsOnj/eEKHBy6FBQDnstMB1CIXB0MGMP2BY
67/MlojBkxXdQMjpH0D8xprBkbf0QBmfgkCEb5fB1ynvQMjidUChNKvBx5qVQFzWoEBNCLXBI5a2
QD0OdkAZC7zBfOx/QOX3W0Dw+rjBFBQFQRjfu0BNr6XBfYXnQOez6UCAL6XBt5lRQF4AX0AbpqbB
KMNTQLZvjkDADozBLs8UQKxqhEArL5fBHjpkQDw3Wb/oIJ/B

> <OMEGA_E>
WIXTPji81T4=

> <OMEGA_NBR>
     34953

$$$$
290114
  -OEChem-04172616093D

 53 57  0     1  0  0  0  0  0999 V2000
    6.7854    0.0363  -22.7516 C   0  0  0  0  0  0  0  0  0  0  0  0
    6.6211    1.4133  -22.5321 C   0  0  0  0  0  0  0  0  0  0  0  0
    6.0366   -0.8863  -22.0035 C   0  0  0  0  0  0  0  0  0  0  0  0
    3.0756   -4.7718  -17.1768 C   0  0  0  0  0  0  0  0  0  0  0  0
    3.9289   -4.3133  -18.1890 C   0  0  0  0  0  0  0  0  0  0  0  0
    4.9520    0.9488  -20.8264 C   0  0  0  0  0  0  0  0  0  0  0  0
    1.8611   -2.6735  -17.3359 C   0  0  0  0  0  0  0  0  0  0  0  0
    6.2391    8.6085  -24.0045 C   0  0  0  0  0  0  0  0  0  0  0  0
    5.1193    7.0755  -25.5057 C   0  0  0  0  0  0  0  0  0  0  0  0
    5.6829    1.8816  -21.5769 C   0  0  0  0  0  0  0  0  0  0  0  0
    5.1289   -0.4188  -21.0251 C   0  0  0  0  0  0  0  0  0  0  0  0
    2.0264   -3.9425  -16.7493 C   0  0  0  0  0  0  0  0  0  0  0  0
    5.6959    8.3346  -25.2725 C   0  0  0  0  0  0  0  0  0  0  0  0
    3.7117   -3.0322  -18.7443 C   0  0  0  0  0  0  0  0  0  0  0  0
    5.6491    6.4621  -23.3159 C   0  0  0  0  0  0  0  0  0  0  0  0
    4.3345    3.9215  -19.1579 C   0  0  0  0  0  0  0  0  0  0  0  0
    4.5902   -2.5181  -19.8035 C   0  0  0  0  0  0  0  0  0  0  0  0
    6.6127    5.4922  -21.1844 C   0  0  0  0  0  0  0  0  0  0  0  0
    5.2466    4.0987  -22.6260 C   0  0  0  0  0  0  0  0  0  0  0  0
    7.1388    3.7416  -19.3741 C   0  0  0  0  0  0  0  0  0  0  0  0
    6.7993    4.0190  -20.8410 C   0  0  1  0  0  0  0  0  0  0  0  0
    5.4961    3.3694  -21.3193 C   0  0  2  0  0  0  0  0  0  0  0  0
    2.6936   -2.2407  -18.3065 N   0  0  0  0  0  0  0  0  0  0  0  0
    6.2081    7.6658  -23.0441 N   0  0  0  0  0  0  0  0  0  0  0  0
    5.0993    6.1605  -24.5210 N   0  0  0  0  0  0  0  0  0  0  0  0
    5.6908    5.4782  -22.3556 N   0  0  2  0  0  0  0  0  0  0  0  0
    4.3134    3.6551  -20.4426 N   0  3  0  0  0  0  0  0  0  0  0  0
    3.1158    4.0091  -18.5066 N   0  0  0  0  0  0  0  0  0  0  0  0
    4.3395   -1.2269  -20.2287 N   0  0  0  0  0  0  0  0  0  0  0  0
    5.5451   -3.1746  -20.2047 O   0  0  0  0  0  0  0  0  0  0  0  0
    1.1802   -4.3600  -15.7837 F   0  0  0  0  0  0  0  0  0  0  0  0
    5.7234    9.2666  -26.2486 F   0  0  0  0  0  0  0  0  0  0  0  0
    5.8013    4.2492  -18.2380 S   0  0  0  0  0  0  0  0  0  0  0  0
    7.4869   -0.3128  -23.4949 H   0  0  0  0  0  0  0  0  0  0  0  0
    7.2129    2.1205  -23.0942 H   0  0  0  0  0  0  0  0  0  0  0  0
    6.1531   -1.9463  -22.1743 H   0  0  0  0  0  0  0  0  0  0  0  0
    3.2223   -5.7456  -16.7333 H   0  0  0  0  0  0  0  0  0  0  0  0
    4.7422   -4.9310  -18.5403 H   0  0  0  0  0  0  0  0  0  0  0  0
    4.2447    1.2944  -20.0870 H   0  0  0  0  0  0  0  0  0  0  0  0
    1.0551   -2.0358  -17.0040 H   0  0  0  0  0  0  0  0  0  0  0  0
    6.6801    9.5733  -23.8017 H   0  0  0  0  0  0  0  0  0  0  0  0
    4.6941    6.8435  -26.4710 H   0  0  0  0  0  0  0  0  0  0  0  0
    6.1635    6.0361  -20.3403 H   0  0  0  0  0  0  0  0  0  0  0  0
    7.5741    5.9563  -21.4496 H   0  0  0  0  0  0  0  0  0  0  0  0
    5.8340    3.6517  -23.4416 H   0  0  0  0  0  0  0  0  0  0  0  0
    4.1786    4.0763  -22.8884 H   0  0  0  0  0  0  0  0  0  0  0  0
    7.3157    2.6629  -19.2509 H   0  0  0  0  0  0  0  0  0  0  0  0
    8.0526    4.2953  -19.1128 H   0  0  0  0  0  0  0  0  0  0  0  0
    7.6202    3.6265  -21.4592 H   0  0  0  0  0  0  0  0  0  0  0  0
    3.4155    3.6411  -20.8827 H   0  0  0  0  0  0  0  0  0  0  0  0
    3.0833    4.2535  -17.5375 H   0  0  0  0  0  0  0  0  0  0  0  0
    2.2682    3.8281  -19.0054 H   0  0  0  0  0  0  0  0  0  0  0  0
    3.4766   -0.8262  -19.9207 H   0  0  0  0  0  0  0  0  0  0  0  0
  1  2  1  0  0  0  0
  1  3  2  0  0  0  0
  2 10  2  0  0  0  0
  3 11  1  0  0  0  0
  4  5  2  0  0  0  0
  4 12  1  0  0  0  0
  5 14  1  0  0  0  0
  6 10  1  0  0  0  0
  6 11  2  0  0  0  0
  7 12  2  0  0  0  0
  7 23  1  0  0  0  0
  8 13  1  0  0  0  0
  8 24  2  0  0  0  0
  9 13  2  0  0  0  0
  9 25  1  0  0  0  0
 10 22  1  0  0  0  0
 11 29  1  0  0  0  0
 12 31  1  0  0  0  0
 13 32  1  0  0  0  0
 14 17  1  0  0  0  0
 14 23  2  0  0  0  0
 15 24  1  0  0  0  0
 15 25  2  0  0  0  0
 15 26  1  0  0  0  0
 16 27  2  0  0  0  0
 16 28  1  0  0  0  0
 16 33  1  0  0  0  0
 17 29  1  0  0  0  0
 17 30  2  0  0  0  0
 18 21  1  0  0  0  0
 18 26  1  0  0  0  0
 19 22  1  0  0  0  0
 19 26  1  0  0  0  0
 20 21  1  0  0  0  0
 20 33  1  0  0  0  0
 21 22  1  0  0  0  0
 22 27  1  0  0  0  0
  1 34  1  0  0  0  0
  2 35  1  0  0  0  0
  3 36  1  0  0  0  0
  4 37  1  0  0  0  0
  5 38  1  0  0  0  0
  6 39  1  0  0  0  0
  7 40  1  0  0  0  0
  8 41  1  0  0  0  0
  9 42  1  0  0  0  0
 18 43  1  0  0  0  0
 18 44  1  0  0  0  0
 19 45  1  0  0  0  0
 19 46  1  0  0  0  0
 20 47  1  0  0  0  0
 20 48  1  0  0  0  0
 21 49  1  0  0  0  0
 27 50  1  0  0  0  0
 28 51  1  0  0  0  0
 28 52  1  0  0  0  0
 29 53  1  0  0  0  0
M  CHG  1  27   1
M  END
> <OMEGA_C>
JyLZQNi4FD1MA7bBAODTQDfmtD+wQbTBkCvBQALjYr8xB7DBT9dEQLGymMAAaonBhXN7QJsGisAb
g5HBfXaeQBzmcj+DnKbBzTfuP/waK8Dsr4rBUabHQIC8CUE/CcDBR9GjQFtq4kCqC8zBktq1QOvW
8D9unazBxh+kQAVq1r5VM6jBn7ABQENRfMCJ/oXBEEW2QKRaBUEVLsrBbIxtQGQPQsBt9JXBy8W0
QGTJzkDnhrrBmLSKQBr5ekBVQ5nBGeOSQC0oIcCKbZ7BGpvTQFbAr0CYeanB3eOnQNUog0AeArXB
xXDkQLt1b0Aq/prB05PZQG6bgEB3uqbB59+vQIijV0D5jarBMWMsQFtnD8C5c5LBDKnGQChO9UBA
WrjBuS2jQG0ixUAaK8TB8xq2QJNNr0BU2LLBTQeKQHDsaUBxiqPBwmlHQKpKgECEDZTBDd2KQHQK
nb9O1KHBlnGxQH4sS8BNo6HBSxGXP3iFi8AMinzB8yW3QNtDFEEu/dHBfqS5QAr5h0CD55HBdpTv
QPUooL6N9bvBAdDmQMS2B0DjwLjB7+XEQIsg+b/zZLHBLTpOQMvbt8DF3YXBB8CXQO7KncCeUpTB
jNSHQJKtpT8isqDBzAyHP1RLAsBCCIjBMMPVQCwsGUHnab7BTDaWQBL+2kCexNPBlzvFQLknwUDu
uKLBC1/yQK+ZvkDLmKvB3K+6QEe1aUBZiLvBv7aFQGdxgkCIG7fBhBrqQPBsKkDrAZrBiNcAQbZy
iUDz5pjBn9jzQFsYaEBjrKvBIJhaQNkHaUCzD6fBC1RFQFMciEC3TIzBYCoRQEv/dED+CpjBZYBe
QIOCU79/XZ/BH2LXQKAv9jxQPLbB+APSQMg4tD9JkLTBzj/AQD4RZL8ZCrDBqIHoP5afMcD40InB
SvYnQHxUEsDpDpLB5eCdQEJNcz9WmabBYlVJQPXYmcD7DorBBee+QDqSDUHpPbzB15uRQH0q8UCb
7cfBH620QML28D+/yqzB88OjQHQM2L6VGqjBYmQFQMikgcCfvIXB4AylQBA8DEFoasXBBBhsQLhv
RcBCEJbBMTmxQAQl00Dgw7jB94OKQCg8fUDDWpnBS4GSQO6+IsA4aZ7B0TbXQMpkrkDPbqnBWw2p
QMOQhEAv+rTBtNnjQJqUbEAkxJrBVFraQHYdfkDclKbB3OqvQHT6V0BImqrBagZ7QKReisABC5LB
C5TEQD1m+ECkDbbBcP6XQGYKz0AYjcHB3Za3QAEWsEAKT7LBk/uJQBwta0B9naPBKQtHQIs0gUA9
IZTBkRyLQDUtnr/JnKHBYWOxQLZPTMBJhqHB+yaqP4CBkcD9aXvBmQOfQBqLHUFsssvBq1G5QGnG
iUADCJLBOlHtQJaxpL5nSrzBWWLkQO0tB0A8PLnBgzPEQK3N+b+3VLHBAYiAPz+tC8CmqobBbTcc
QPkqp78XX5XB9ZOHQNU1pj9dnaDBN/tVQCFuucA77YbB0SvOQOOBHEGqKrrBgEV7QPZb7kC28c7B
W+/LQLwbwUCdiKLB63D2QBS7ukBBE6zBak68QAvDbUBkgLvBZBSHQP6EhEDoR7fBOVPnQFkjJ0AK
nJnBDvgAQQdbhkBbl5jB8WP0QPj7YUClWKvBS5NaQPYVakBCJ6fBcOxEQA4/iUAdZIzBy9kQQMQQ
dkCSGJjBAVJgQLaqUr+31p7B

> <OMEGA_E>
HNsAPxBIHj8=

> <OMEGA_NBR>
     37035

$$$$
290116
  -OEChem-04172616093D

 53 57  0     1  0  0  0  0  0999 V2000
    6.0222   -0.9193  -22.0240 C   0  0  0  0  0  0  0  0  0  0  0  0
    6.7735   -0.0074  -22.7790 C   0  0  0  0  0  0  0  0  0  0  0  0
    3.0277   -4.8196  -17.2390 C   0  0  0  0  0  0  0  0  0  0  0  0
    3.8898   -4.3521  -18.2393 C   0  0  0  0  0  0  0  0  0  0  0  0
    4.9658    0.9294  -20.8508 C   0  0  0  0  0  0  0  0  0  0  0  0
    1.8716   -2.6842  -17.3253 C   0  0  0  0  0  0  0  0  0  0  0  0
    5.8203    8.7963  -23.6763 C   0  0  0  0  0  0  0  0  0  0  0  0
    4.3977    7.4128  -25.0619 C   0  0  0  0  0  0  0  0  0  0  0  0
    5.6982    1.8631  -21.6059 C   0  0  0  0  0  0  0  0  0  0  0  0
    5.1284   -0.4401  -21.0427 C   0  0  0  0  0  0  0  0  0  0  0  0
    2.0041   -3.9754  -16.7798 C   0  0  0  0  0  0  0  0  0  0  0  0
    6.6314    1.3756  -22.5714 C   0  0  0  0  0  0  0  0  0  0  0  0
    4.9930    8.6594  -24.8045 C   0  0  0  0  0  0  0  0  0  0  0  0
    3.7059   -3.0486  -18.7532 C   0  0  0  0  0  0  0  0  0  0  0  0
    5.4353    6.5581  -23.1533 C   0  0  0  0  0  0  0  0  0  0  0  0
    4.3375    3.9425  -19.1512 C   0  0  0  0  0  0  0  0  0  0  0  0
    4.5931   -2.5289  -19.8025 C   0  0  0  0  0  0  0  0  0  0  0  0
    6.6163    5.4889  -21.1750 C   0  0  0  0  0  0  0  0  0  0  0  0
    5.1871    4.1226  -22.5990 C   0  0  0  0  0  0  0  0  0  0  0  0
    7.1335    3.7424  -19.3611 C   0  0  0  0  0  0  0  0  0  0  0  0
    6.7989    4.0167  -20.8309 C   0  0  1  0  0  0  0  0  0  0  0  0
    5.4976    3.3564  -21.3201 C   0  0  2  0  0  0  0  0  0  0  0  0
    2.7109   -2.2441  -18.2870 N   0  0  0  0  0  0  0  0  0  0  0  0
    6.0276    7.7421  -22.8661 N   0  0  0  0  0  0  0  0  0  0  0  0
    4.6284    6.3799  -24.2312 N   0  0  0  0  0  0  0  0  0  0  0  0
    5.6735    5.4859  -22.3262 N   0  0  3  0  0  0  0  0  0  0  0  0
    4.3200    3.5997  -20.4177 N   0  3  0  0  0  0  0  0  0  0  0  0
    3.1148    4.1077  -18.5227 N   0  0  0  0  0  0  0  0  0  0  0  0
    4.3389   -1.2410  -20.2375 N   0  0  0  0  0  0  0  0  0  0  0  0
    5.5595   -3.1787  -20.1871 O   0  0  0  0  0  0  0  0  0  0  0  0
    1.1525   -4.3991  -15.8216 F   0  0  0  0  0  0  0  0  0  0  0  0
    7.4108    2.1990  -23.3112 F   0  0  0  0  0  0  0  0  0  0  0  0
    4.7732    9.7082  -25.6256 F   0  0  0  0  0  0  0  0  0  0  0  0
    5.8012    4.2658  -18.2300 S   0  0  0  0  0  0  0  0  0  0  0  0
    6.1269   -1.9810  -22.1922 H   0  0  0  0  0  0  0  0  0  0  0  0
    7.4656   -0.3698  -23.5246 H   0  0  0  0  0  0  0  0  0  0  0  0
    3.1481   -5.8112  -16.8285 H   0  0  0  0  0  0  0  0  0  0  0  0
    4.6851   -4.9801  -18.6131 H   0  0  0  0  0  0  0  0  0  0  0  0
    4.2645    1.2811  -20.1086 H   0  0  0  0  0  0  0  0  0  0  0  0
    1.0856   -2.0351  -16.9685 H   0  0  0  0  0  0  0  0  0  0  0  0
    6.2884    9.7453  -23.4602 H   0  0  0  0  0  0  0  0  0  0  0  0
    3.7579    7.2845  -25.9225 H   0  0  0  0  0  0  0  0  0  0  0  0
    6.1885    6.0376  -20.3230 H   0  0  0  0  0  0  0  0  0  0  0  0
    7.5764    5.9442  -21.4594 H   0  0  0  0  0  0  0  0  0  0  0  0
    5.7174    3.6828  -23.4565 H   0  0  0  0  0  0  0  0  0  0  0  0
    4.1056    4.1264  -22.7995 H   0  0  0  0  0  0  0  0  0  0  0  0
    7.3006    2.6627  -19.2332 H   0  0  0  0  0  0  0  0  0  0  0  0
    8.0519    4.2890  -19.1007 H   0  0  0  0  0  0  0  0  0  0  0  0
    7.6246    3.6252  -21.4433 H   0  0  0  0  0  0  0  0  0  0  0  0
    3.4167    3.4869  -20.8315 H   0  0  0  0  0  0  0  0  0  0  0  0
    3.0792    4.4040  -17.5683 H   0  0  0  0  0  0  0  0  0  0  0  0
    2.2674    3.9307  -19.0233 H   0  0  0  0  0  0  0  0  0  0  0  0
    3.4763   -0.8382  -19.9315 H   0  0  0  0  0  0  0  0  0  0  0  0
  1  2  1  0  0  0  0
  1 10  2  0  0  0  0
  2 12  2  0  0  0  0
  3  4  2  0  0  0  0
  3 11  1  0  0  0  0
  4 14  1  0  0  0  0
  5  9  2  0  0  0  0
  5 10  1  0  0  0  0
  6 11  2  0  0  0  0
  6 23  1  0  0  0  0
  7 13  1  0  0  0  0
  7 24  2  0  0  0  0
  8 13  2  0  0  0  0
  8 25  1  0  0  0  0
  9 12  1  0  0  0  0
  9 22  1  0  0  0  0
 10 29  1  0  0  0  0
 11 31  1  0  0  0  0
 12 32  1  0  0  0  0
 13 33  1  0  0  0  0
 14 17  1  0  0  0  0
 14 23  2  0  0  0  0
 15 24  1  0  0  0  0
 15 25  2  0  0  0  0
 15 26  1  0  0  0  0
 16 27  2  0  0  0  0
 16 28  1  0  0  0  0
 16 34  1  0  0  0  0
 17 29  1  0  0  0  0
 17 30  2  0  0  0  0
 18 21  1  0  0  0  0
 18 26  1  0  0  0  0
 19 22  1  0  0  0  0
 19 26  1  0  0  0  0
 20 21  1  0  0  0  0
 20 34  1  0  0  0  0
 21 22  1  0  0  0  0
 22 27  1  0  0  0  0
  1 35  1  0  0  0  0
  2 36  1  0  0  0  0
  3 37  1  0  0  0  0
  4 38  1  0  0  0  0
  5 39  1  0  0  0  0
  6 40  1  0  0  0  0
  7 41  1  0  0  0  0
  8 42  1  0  0  0  0
 18 43  1  0  0  0  0
 18 44  1  0  0  0  0
 19 45  1  0  0  0  0
 19 46  1  0  0  0  0
 20 47  1  0  0  0  0
 20 48  1  0  0  0  0
 21 49  1  0  0  0  0
 27 50  1  0  0  0  0
 28 51  1  0  0  0  0
 28 52  1  0  0  0  0
 29 53  1  0  0  0  0
M  CHG  1  27   1
M  END
> <OMEGA_C>
6LXAQEdYa78TMbDBU8DYQGB38rtPO7bBM8VBQPU5msBs6YnBGvN4QMxEi8Ak6pHB1+eeQLXrbT9p
zqbBDY/vPw/KK8AimorBAkC6QKa9DEEFab3BmrmMQPg17UDOfsjBEFi2QCR57j/z2KzB5xukQDJU
4b6IV6jBdkMAQEBsfsD+PIbBzjTUQBQSsD9SkrTBmsafQBCNCkG0b8bBLi5tQGEcQ8CeBpbB0e2t
QOfb0UDsObnBIc2KQH5RfEC0NZnBtPqSQMvZIcCTa57Bs7jTQF2lr0BcZqnB9fylQFjsg0C/yrTB
h0XkQOuDb0B245rB75DZQOGIgEC2pabBaOyvQH/PVkCRj6rB1n4tQN+fD8DeS5LBMuLAQIe/90DO
7bbBLhyUQPcnzECI2cHBh421QMyMr0ABnLLBcj2KQMNgZkBsV6PBgVhHQBNyg0CILpTBlNiKQL7X
nr9r5qHBcuexQHhvS8BAf6HBToaTP0HFjMByJX3BCSXtQBq9DEBbfbrBsb2YQM5UG0FQAc3BrKO5
QKSBiED21pHBPA/EQOuQ/b+jibHBP+buQJdcvb5lMrzB83pJQKT1ucDAoIbB/+uVQPtcn8Cd55TB
8XaIQHH7oz9Z3qDBMvSKP44+AsCKv4fBxjrJQL/sG0GSrrvBrYBwQJoa6UBBYc/B3QfGQOQzwUBr
laLBHXLyQMc2vkDWrKvBPfW2QBuza0D3prvBtWCDQGELhEBKZbbBRZ7pQFdqKkCA3ZnBo9QAQTQ/
iUA8zpjBBf3zQNQDaEDPi6vBb6paQMQoX0DopqbB9xBFQEntjEDai4zBVxwRQGGQe0CpL5jBZnte
QGSWVr+7c5/BO0nCQFltar/atK/Bs6DZQID/u7sQ6rXBmuboPzzYMMBRzYnBrCsoQOEyEsDgFJLB
TgufQC1WcD8Jt6bBwqRJQD5wmcAR3InB5QC9QD8ADUFYOb3B43ilQBOC6EBE6MrB3he2QPit7z/1
4qzBiz2lQBb23r5u+afBeJgFQFUZgcC2noXBWyvUQPJhsD8qiLTBW8SxQDwLCUFO78fBCzRsQJ+2
RcCqBZbBGNuwQIQY0kCmUrnBxWqKQIuQfkAwXJnBH3SSQLYCJMB4cJ7BppnUQDH6r0C8eKnBu/Wm
QHjXhEBM07TB5a/jQLOrcEC70JrByqvZQL+6gEAln6bB1/OvQLzSV0DVnqrBJTp7QN1PisAh5JHB
sIO8QADK+UDyE7bBnNOkQPczyUAjhsPB7/2zQGjjsEC9JrLBQQuKQFsHaEA2e6PBOZFGQO1Mg0B3
Q5TB8bGMQJYvnr85VaHB1HyvQPZuUMDdAaLBwBGqP7DBkMAZLnvBTunsQKBdDEAskLrB4Z2yQHj1
GEGnO8/BaAu5QFIUi0ClDJLB+IHGQLo5/b+y1bDBpQLwQCT1vb460LvBNOiAP+unCsBos4bB44Ac
QEphp7/md5XB0iOIQGd5pT+/5aDB4nRWQITWuMD2n4bBQgHGQAvtHEG5vLrB7JScQOO24UD6FNPB
83XJQEVOwkBvfqLBnSLzQItNvUDdT6zB+/u5QAqTcED/h7vBVMOEQECFg0CK4rbBueXnQAZsK0Bg
oZnB278AQR8LiUDwtJjB7zH0QLB7Z0DtaKvBNG1aQIfMYEA01abBVRxEQIayjEBWn4zBcX8QQH2c
eUBLOZjBJgZmQNSHSr/uJp7B

> <OMEGA_E>
yG/8PlzCGj8=

> <OMEGA_NBR>
     39118

$$$$
294878
  -OEChem-04172616093D

 43 45  0     1  0  0  0  0  0999 V2000
    6.1185   -0.8419  -21.8671 C   0  0  0  0  0  0  0  0  0  0  0  0
    6.8486    0.0645  -22.6482 C   0  0  0  0  0  0  0  0  0  0  0  0
    4.9874    1.0234  -20.7867 C   0  0  0  0  0  0  0  0  0  0  0  0
    2.9431   -4.8912  -17.2511 C   0  0  0  0  0  0  0  0  0  0  0  0
    1.8550   -2.7250  -17.3002 C   0  0  0  0  0  0  0  0  0  0  0  0
    5.6994    1.9569  -21.5861 C   0  0  0  0  0  0  0  0  0  0  0  0
    5.1968   -0.3632  -20.9085 C   0  0  0  0  0  0  0  0  0  0  0  0
    6.6597    1.4509  -22.5055 C   0  0  0  0  0  0  0  0  0  0  0  0
    1.9619   -4.0183  -16.7589 C   0  0  0  0  0  0  0  0  0  0  0  0
    3.8028   -4.4454  -18.2679 C   0  0  0  0  0  0  0  0  0  0  0  0
    3.6633   -3.1158  -18.7624 C   0  0  0  0  0  0  0  0  0  0  0  0
    6.7324    3.8277  -19.3709 C   0  0  0  0  0  0  0  0  0  0  0  0
    4.4045    3.8999  -19.2385 C   0  0  0  0  0  0  0  0  0  0  0  0
    7.9313    3.4199  -18.8398 C   0  0  0  0  0  0  0  0  0  0  0  0
    4.5802   -2.5420  -19.7800 C   0  0  0  0  0  0  0  0  0  0  0  0
    6.6564    4.2106  -20.8310 C   0  0  0  0  0  0  0  0  0  0  0  0
    5.4432    3.4855  -21.4372 C   0  0  1  0  0  0  0  0  0  0  0  0
    5.0927    4.1344  -22.7960 C   0  0  0  0  0  0  0  0  0  0  0  0
    2.6900   -2.2993  -18.2729 N   0  0  0  0  0  0  0  0  0  0  0  0
    4.2818    3.7588  -20.5449 N   0  3  0  0  0  0  0  0  0  0  0  0
    3.2381    3.9812  -18.4935 N   0  0  0  0  0  0  0  0  0  0  0  0
    4.4285   -1.1837  -20.0742 N   0  0  0  0  0  0  0  0  0  0  0  0
    5.4827   -3.2160  -20.2630 O   0  0  0  0  0  0  0  0  0  0  0  0
    5.6167    3.8753  -18.5528 O   0  0  0  0  0  0  0  0  0  0  0  0
    7.4122    2.2720  -23.2708 F   0  0  0  0  0  0  0  0  0  0  0  0
    1.1252   -4.4151  -15.7748 F   0  0  0  0  0  0  0  0  0  0  0  0
    4.7465   -5.2973  -18.7362 F   0  0  0  0  0  0  0  0  0  0  0  0
    6.2600   -1.9046  -21.9977 H   0  0  0  0  0  0  0  0  0  0  0  0
    7.5642   -0.3057  -23.3674 H   0  0  0  0  0  0  0  0  0  0  0  0
    4.2678    1.3863  -20.0678 H   0  0  0  0  0  0  0  0  0  0  0  0
    3.0360   -5.8913  -16.8541 H   0  0  0  0  0  0  0  0  0  0  0  0
    1.0898   -2.0584  -16.9307 H   0  0  0  0  0  0  0  0  0  0  0  0
    7.9939    3.1422  -17.7980 H   0  0  0  0  0  0  0  0  0  0  0  0
    8.8117    3.3769  -19.4639 H   0  0  0  0  0  0  0  0  0  0  0  0
    6.5299    5.2991  -20.9276 H   0  0  0  0  0  0  0  0  0  0  0  0
    7.5761    3.9009  -21.3488 H   0  0  0  0  0  0  0  0  0  0  0  0
    4.9184    5.2113  -22.6545 H   0  0  0  0  0  0  0  0  0  0  0  0
    5.9264    3.9872  -23.4984 H   0  0  0  0  0  0  0  0  0  0  0  0
    4.1839    3.6663  -23.2022 H   0  0  0  0  0  0  0  0  0  0  0  0
    3.3722    3.8387  -20.9526 H   0  0  0  0  0  0  0  0  0  0  0  0
    3.2841    4.0202  -17.4953 H   0  0  0  0  0  0  0  0  0  0  0  0
    2.3508    4.0009  -18.9543 H   0  0  0  0  0  0  0  0  0  0  0  0
    3.6587   -0.7324  -19.6228 H   0  0  0  0  0  0  0  0  0  0  0  0
  1  2  2  0  0  0  0
  1  7  1  0  0  0  0
  2  8  1  0  0  0  0
  3  6  1  0  0  0  0
  3  7  2  0  0  0  0
  4  9  1  0  0  0  0
  4 10  2  0  0  0  0
  5  9  2  0  0  0  0
  5 19  1  0  0  0  0
  6  8  2  0  0  0  0
  6 17  1  0  0  0  0
  7 22  1  0  0  0  0
  8 25  1  0  0  0  0
  9 26  1  0  0  0  0
 10 11  1  0  0  0  0
 10 27  1  0  0  0  0
 11 15  1  0  0  0  0
 11 19  2  0  0  0  0
 12 14  2  0  0  0  0
 12 16  1  0  0  0  0
 12 24  1  0  0  0  0
 13 20  2  0  0  0  0
 13 21  1  0  0  0  0
 13 24  1  0  0  0  0
 15 22  1  0  0  0  0
 15 23  2  0  0  0  0
 16 17  1  0  0  0  0
 17 18  1  0  0  0  0
 17 20  1  0  0  0  0
  1 28  1  0  0  0  0
  2 29  1  0  0  0  0
  3 30  1  0  0  0  0
  4 31  1  0  0  0  0
  5 32  1  0  0  0  0
 14 33  1  0  0  0  0
 14 34  1  0  0  0  0
 16 35  1  0  0  0  0
 16 36  1  0  0  0  0
 18 37  1  0  0  0  0
 18 38  1  0  0  0  0
 18 39  1  0  0  0  0
 20 40  1  0  0  0  0
 21 41  1  0  0  0  0
 21 42  1  0  0  0  0
 22 43  1  0  0  0  0
M  CHG  1  20   1
M  END
> <OMEGA_C>
m8rDQEKHV7/p767B6SfbQCUthD1rL7XBEZmfQJH+gj8pS6bBB1s8QLGEnMBPAorBbXHtP0tmLsDA
ZorBVGG2QOB6+j9OsKzBSkymQKTwub6rRKfBVBzVQA63uT85C7TBnx77PwmWgMAvEobBvWBzQONA
jsCRJJLB03JqQAdpR8BeGZbBOHDXQKv4dECe95rBC/KMQJaXeUB+6JnBm839QGjfWkDnt5bBU5GS
QM6wIsB6PZ7B4QDVQIW9hkD5pabBqS6uQKsRX0BJf6vBffeiQPdMhEAgXrbBcCgsQEYoE8AAL5LB
iQSJQPSQcED5W6TBET1PQN/LfkC28pPB+LWNQKuCl78ImKDBLHKvQKLTTcCOGqLBD7yzQC8FeEAb
bJTBkzDtQBVoEUCkKrrBmAeQPz9IjcCbZXzBe+OXQCSDqcCs45XBxFHIQDzK879H+6/BhQ3yQLWG
nL518LrBApKIQHhzsT/ViqDBYU1CQEeFvMA31YbB53+LP8q8A8D5cYfB583/QGcZSUBHYo7ByPwM
QcgeWEAStpvBRPXQQPmRqUDLa6fBnm/yQCCpeUBvyqrB4GOdQJbCpkBxPLXBsKS9QIEtf0Ci/LvB
5uKFQDSkakANnrnBp9FXQPitdUDbnqfB9S1SQE2lgEBv9ovBCnQWQAkHgEB/opfB/ydqQFx9O7+D
+5zBxsrBQEB6cr95s6/BqvXYQCQDC7249rXBuw2eQEzwZj/nzqbBbcE7QKbLm8CluYnBOoTkP+RQ
L8AgIYvBh+C0QNbT6j82E63B0GykQD7x8L5+AKjBz+fSQP/PrD/Mq7TBVGbyP6iMgMCehIbBg6N1
QKebjcA9iZHBn8VrQIO8R8Dn45XBQtXOQKVgn0DYaZ7BPFqMQK/YhECdMprBBEPfQA0dxkCOiqHB
iliTQD8BJcADFp7B8gDaQJZVb0AkgqTBjeKwQJzRVEA2harBaAqqQCAXhkC0r7TBlaUqQGQoFMAK
k5LBG1OKQHSYZEDfp6PBZXdRQKS5gUDuopPBSsaLQGYho78xXaHBtGWyQKTKTcDPO6HBz+WuQHuP
nUB62JbBDOjqQFYYDEDvqLrBQW5/P0mXjcCfPX7BilCaQFJvqMCNw5TBnGbGQGyXAMDEw7DB2pXv
QB0uy75l0LvBDTqHQDIDoT+a+qDBLlhCQPc7u8CZO4bBH4l7P2R3BcC5q4jBFCPTQBlV40D4D57B
K1L4QEBkx0CLe6fBnfTzQN17fEDPOKrBsgLkQK9RPED0+57BzmOnQFL5p0BtZbLBhWTFQMTtgUB6
ILrB33yMQMb2d0CTvrjBcGdbQBIWUkBRYqbBJEhQQCkXkUDfnozBL0EfQEU3YEAn65XBn91hQBBe
W7+vkZ7B

> <OMEGA_E>
RNWMPpi9oj4=

> <OMEGA_NBR>
     40908

$$$$
294883
  -OEChem-04172616093D

 42 44  0     1  0  0  0  0  0999 V2000
    6.0582   -0.8476  -21.9100 C   0  0  0  0  0  0  0  0  0  0  0  0
    6.8214    0.0549  -22.6639 C   0  0  0  0  0  0  0  0  0  0  0  0
    4.9482    1.0219  -20.8184 C   0  0  0  0  0  0  0  0  0  0  0  0
    3.0153   -4.8810  -17.2024 C   0  0  0  0  0  0  0  0  0  0  0  0
    1.8255   -2.7718  -17.3189 C   0  0  0  0  0  0  0  0  0  0  0  0
    5.6985    1.9524  -21.5874 C   0  0  0  0  0  0  0  0  0  0  0  0
    5.1392   -0.3651  -20.9506 C   0  0  0  0  0  0  0  0  0  0  0  0
    6.6671    1.4420  -22.4938 C   0  0  0  0  0  0  0  0  0  0  0  0
    1.9828   -4.0482  -16.7489 C   0  0  0  0  0  0  0  0  0  0  0  0
    3.8733   -4.4144  -18.2104 C   0  0  0  0  0  0  0  0  0  0  0  0
    3.6753   -3.1073  -18.7435 C   0  0  0  0  0  0  0  0  0  0  0  0
    4.4100    3.9103  -19.2340 C   0  0  0  0  0  0  0  0  0  0  0  0
    4.5755   -2.5235  -19.7715 C   0  0  0  0  0  0  0  0  0  0  0  0
    6.7142    4.1800  -20.7880 C   0  0  0  0  0  0  0  0  0  0  0  0
    6.8308    3.7547  -19.3187 C   0  0  0  0  0  0  0  0  0  0  0  0
    5.4807    3.4819  -21.4128 C   0  0  1  0  0  0  0  0  0  0  0  0
    5.1479    4.1516  -22.7669 C   0  0  0  0  0  0  0  0  0  0  0  0
    2.6562   -2.3271  -18.2881 N   0  0  0  0  0  0  0  0  0  0  0  0
    4.3085    3.7458  -20.5359 N   0  3  0  0  0  0  0  0  0  0  0  0
    3.2356    3.9627  -18.4999 N   0  0  0  0  0  0  0  0  0  0  0  0
    4.3678   -1.1854  -20.1184 N   0  0  0  0  0  0  0  0  0  0  0  0
    5.5182   -3.1678  -20.2170 O   0  0  0  0  0  0  0  0  0  0  0  0
    5.6186    4.0619  -18.5723 O   0  0  0  0  0  0  0  0  0  0  0  0
    7.4652    2.2604  -23.2148 F   0  0  0  0  0  0  0  0  0  0  0  0
    1.1513   -4.4656  -15.7690 F   0  0  0  0  0  0  0  0  0  0  0  0
    4.8740   -5.2248  -18.6313 F   0  0  0  0  0  0  0  0  0  0  0  0
    6.1725   -1.9107  -22.0620 H   0  0  0  0  0  0  0  0  0  0  0  0
    7.5352   -0.3193  -23.3829 H   0  0  0  0  0  0  0  0  0  0  0  0
    4.2143    1.3886  -20.1160 H   0  0  0  0  0  0  0  0  0  0  0  0
    3.1485   -5.8670  -16.7824 H   0  0  0  0  0  0  0  0  0  0  0  0
    1.0246   -2.1340  -16.9750 H   0  0  0  0  0  0  0  0  0  0  0  0
    6.5915    5.2715  -20.8485 H   0  0  0  0  0  0  0  0  0  0  0  0
    7.6227    3.8825  -21.3323 H   0  0  0  0  0  0  0  0  0  0  0  0
    7.0118    2.6706  -19.2744 H   0  0  0  0  0  0  0  0  0  0  0  0
    7.6770    4.2868  -18.8594 H   0  0  0  0  0  0  0  0  0  0  0  0
    4.9989    5.2309  -22.6159 H   0  0  0  0  0  0  0  0  0  0  0  0
    5.9791    3.9911  -23.4692 H   0  0  0  0  0  0  0  0  0  0  0  0
    4.2291    3.7088  -23.1788 H   0  0  0  0  0  0  0  0  0  0  0  0
    3.4021    3.8009  -20.9547 H   0  0  0  0  0  0  0  0  0  0  0  0
    3.2701    4.1077  -17.5110 H   0  0  0  0  0  0  0  0  0  0  0  0
    2.3537    3.8554  -18.9590 H   0  0  0  0  0  0  0  0  0  0  0  0
    3.5585   -0.7557  -19.7178 H   0  0  0  0  0  0  0  0  0  0  0  0
  1  2  2  0  0  0  0
  1  7  1  0  0  0  0
  2  8  1  0  0  0  0
  3  6  1  0  0  0  0
  3  7  2  0  0  0  0
  4  9  1  0  0  0  0
  4 10  2  0  0  0  0
  5  9  2  0  0  0  0
  5 18  1  0  0  0  0
  6  8  2  0  0  0  0
  6 16  1  0  0  0  0
  7 21  1  0  0  0  0
  8 24  1  0  0  0  0
  9 25  1  0  0  0  0
 10 11  1  0  0  0  0
 10 26  1  0  0  0  0
 11 13  1  0  0  0  0
 11 18  2  0  0  0  0
 12 19  2  0  0  0  0
 12 20  1  0  0  0  0
 12 23  1  0  0  0  0
 13 21  1  0  0  0  0
 13 22  2  0  0  0  0
 14 15  1  0  0  0  0
 14 16  1  0  0  0  0
 15 23  1  0  0  0  0
 16 17  1  0  0  0  0
 16 19  1  0  0  0  0
  1 27  1  0  0  0  0
  2 28  1  0  0  0  0
  3 29  1  0  0  0  0
  4 30  1  0  0  0  0
  5 31  1  0  0  0  0
 14 32  1  0  0  0  0
 14 33  1  0  0  0  0
 15 34  1  0  0  0  0
 15 35  1  0  0  0  0
 17 36  1  0  0  0  0
 17 37  1  0  0  0  0
 17 38  1  0  0  0  0
 19 39  1  0  0  0  0
 20 40  1  0  0  0  0
 20 41  1  0  0  0  0
 21 42  1  0  0  0  0
M  CHG  1  19   1
M  END
> <OMEGA_C>
HN3BQMP5WL+YR6/B8EjaQOe9YD3DT7XBuVeeQP/Mgj8BjKbBrPpAQOgwnMCOnonBXKnpP8FkMcAF
jYrBvlm2QKLm+T/ysqzBUXSkQATour7hmqfBN1nVQC2TuD9P87PBHs39P/2KgcDL/YXBhOR3QA1D
jcDYrpHBnThrQPDdRsDF8pXBah6NQNJBekA535nBz2qSQPWAIcAKLJ7BItvWQITChUDqTabBIpba
QERNcECxjJrByGGvQKfWXkByTavBzLukQKXZhECJIrbB3f8pQAXwFMAVTpLBi9+JQKW7b0CdSaTB
dRNPQGCcfUC1/5PBqsSLQMW6l79q8qDBV5WwQJi8SsBvvKHBpcuzQFz7gUAMlJTBj+LuQDqqEEDU
t7nBmlyTPwfmjsDBTXzBmvebQKUxp8DVDJXB1oTFQFaR9L//frDBUiDxQK52o745ELvBY9uGQHm8
sT+Y7aDBYoFJQFC+u8BQQobBAiaDP4KTCMDQzIfBse3SQL6vqEC5yabB7ezzQEx6eECcqKrBCGHg
QF3rKkANMprByKn1QG4tiUAe4JbBuPafQJxjp0BE7bTBElW/QMhtf0AAwbvB0VSHQFNcbUAtbrnB
K7xZQIFBc0A7o6fBIklRQFJyg0CZFozB2aIWQJK/dkACrJfBw71jQBV3Qb8ivp3BrBW/QBW/V78u
uK/BKS/XQI6m1D0VXrXBbxCXQK5Ncz8sIqfBRvhBQP9lnMBB8onBjjntP+UcMcCbmIrBE5+uQE02
9T+i0KzB/L6fQLSF0r5UV6jBv/XPQNbdvD/Jx7PBln3+P98DgsB4XIbBpTl6QCjTjMA+xZHBiStu
QC98RcD0zJXB+J3jQOn8nEB0V6bBmPeSQELqIMA2LJ7BsiahQJMph0B91rTB5c6zQKJJtEAfsrPB
E2qoQOKsWUDaV6rB14+CQLD6bUAhnqLBjTYtQGR1E8DkF5LBCNjPQB7ecUDTgaTBOiv4QM+msECa
653BGLaHQOI+ob81+KHBVdezQLcrRcB6BaHB6FvfQDM1skC83K/BHoHqQEM8FkBPwLjBasiOP1xn
kMCg5H3BCr2cQJ68psC8XpXB6G7EQMvn8r+l/7DBimLvQAtgY74h9brBht57QLAToj9kxKHB0eRJ
QBI6vMCLuobBq8eGP2tzCMDAzIfBgDl9QAyAiUB/brbB1/OwQGOEbUAdjLvBzEuzQNhIxECUiLvB
cFKgQEGkxkA/+63BbJ+AQI/AmUCIUqHBF+VIQDsYV0AEKqbByuiHQLSjTUCU6prBeqbbQMTWSUDG
AZ/BIO4BQcU8zkA3yZ7B92T7QJRWoUA38ZbB+XtVQCZxbb8I2p/B

> <OMEGA_E>
mNiHPgZcNj8=

> <OMEGA_NBR>
     42670

$$$$
300563
  -OEChem-04172616093D

 44 47  0     1  0  0  0  0  0999 V2000
    5.9790   -0.9188  -22.0030 C   0  0  0  0  0  0  0  0  0  0  0  0
    6.6897   -0.0301  -22.8184 C   0  0  0  0  0  0  0  0  0  0  0  0
    3.0293   -4.8584  -17.2301 C   0  0  0  0  0  0  0  0  0  0  0  0
    3.8954   -4.3692  -18.2175 C   0  0  0  0  0  0  0  0  0  0  0  0
    4.9914    0.9693  -20.8312 C   0  0  0  0  0  0  0  0  0  0  0  0
    1.8319   -2.7468  -17.3264 C   0  0  0  0  0  0  0  0  0  0  0  0
    5.6837    1.8922  -21.6524 C   0  0  0  0  0  0  0  0  0  0  0  0
    5.1299   -0.4132  -20.9977 C   0  0  0  0  0  0  0  0  0  0  0  0
    1.9831   -4.0364  -16.7820 C   0  0  0  0  0  0  0  0  0  0  0  0
    6.5456    1.3604  -22.6632 C   0  0  0  0  0  0  0  0  0  0  0  0
    3.6961   -3.0641  -18.7261 C   0  0  0  0  0  0  0  0  0  0  0  0
    4.3518    3.8887  -19.1730 C   0  0  0  0  0  0  0  0  0  0  0  0
    4.5907   -2.5185  -19.7587 C   0  0  0  0  0  0  0  0  0  0  0  0
    5.2117    4.2476  -22.6439 C   0  0  0  0  0  0  0  0  0  0  0  0
    6.4905    5.5871  -21.1564 C   0  0  0  0  0  0  0  0  0  0  0  0
    7.1477    3.7888  -19.4084 C   0  0  0  0  0  0  0  0  0  0  0  0
    5.5098    3.4173  -21.3780 C   0  0  2  0  0  0  0  0  0  0  0  0
    6.7889    4.1102  -20.8691 C   0  0  1  0  0  0  0  0  0  0  0  0
    2.6782   -2.2834  -18.2716 N   0  0  0  0  0  0  0  0  0  0  0  0
    4.3321    3.6501  -20.4666 N   0  3  0  0  0  0  0  0  0  0  0  0
    3.1329    3.9935  -18.5241 N   0  0  0  0  0  0  0  0  0  0  0  0
    4.3643   -1.2055  -20.1508 N   0  0  0  0  0  0  0  0  0  0  0  0
    5.5399   -3.1776  -20.1694 O   0  0  0  0  0  0  0  0  0  0  0  0
    5.6725    5.5992  -22.3623 O   0  0  0  0  0  0  0  0  0  0  0  0
    1.1285   -4.4782  -15.8343 F   0  0  0  0  0  0  0  0  0  0  0  0
    7.2425    2.1406  -23.5181 F   0  0  0  0  0  0  0  0  0  0  0  0
    7.8796    3.7891  -21.6117 F   0  0  0  0  0  0  0  0  0  0  0  0
    5.8104    4.1782  -18.2359 S   0  0  0  0  0  0  0  0  0  0  0  0
    6.0804   -1.9848  -22.1433 H   0  0  0  0  0  0  0  0  0  0  0  0
    7.3563   -0.4166  -23.5752 H   0  0  0  0  0  0  0  0  0  0  0  0
    3.1642   -5.8491  -16.8217 H   0  0  0  0  0  0  0  0  0  0  0  0
    4.7054   -4.9813  -18.5858 H   0  0  0  0  0  0  0  0  0  0  0  0
    4.3389    1.3424  -20.0557 H   0  0  0  0  0  0  0  0  0  0  0  0
    1.0249   -2.1170  -16.9822 H   0  0  0  0  0  0  0  0  0  0  0  0
    5.7520    3.8329  -23.5076 H   0  0  0  0  0  0  0  0  0  0  0  0
    4.1318    4.2490  -22.8531 H   0  0  0  0  0  0  0  0  0  0  0  0
    5.9413    6.0374  -20.3164 H   0  0  0  0  0  0  0  0  0  0  0  0
    7.4259    6.1417  -21.3224 H   0  0  0  0  0  0  0  0  0  0  0  0
    7.3765    2.7155  -19.3331 H   0  0  0  0  0  0  0  0  0  0  0  0
    8.0369    4.3736  -19.1305 H   0  0  0  0  0  0  0  0  0  0  0  0
    3.4294    3.6195  -20.8958 H   0  0  0  0  0  0  0  0  0  0  0  0
    3.1024    4.2274  -17.5523 H   0  0  0  0  0  0  0  0  0  0  0  0
    2.2834    3.8352  -19.0272 H   0  0  0  0  0  0  0  0  0  0  0  0
    3.5440   -0.7744  -19.7751 H   0  0  0  0  0  0  0  0  0  0  0  0
  1  2  1  0  0  0  0
  1  8  2  0  0  0  0
  2 10  2  0  0  0  0
  3  4  2  0  0  0  0
  3  9  1  0  0  0  0
  4 11  1  0  0  0  0
  5  7  2  0  0  0  0
  5  8  1  0  0  0  0
  6  9  2  0  0  0  0
  6 19  1  0  0  0  0
  7 10  1  0  0  0  0
  7 17  1  0  0  0  0
  8 22  1  0  0  0  0
  9 25  1  0  0  0  0
 10 26  1  0  0  0  0
 11 13  1  0  0  0  0
 11 19  2  0  0  0  0
 12 20  2  0  0  0  0
 12 21  1  0  0  0  0
 12 28  1  0  0  0  0
 13 22  1  0  0  0  0
 13 23  2  0  0  0  0
 14 17  1  0  0  0  0
 14 24  1  0  0  0  0
 15 18  1  0  0  0  0
 15 24  1  0  0  0  0
 16 18  1  0  0  0  0
 16 28  1  0  0  0  0
 17 18  1  0  0  0  0
 17 20  1  0  0  0  0
 18 27  1  0  0  0  0
  1 29  1  0  0  0  0
  2 30  1  0  0  0  0
  3 31  1  0  0  0  0
  4 32  1  0  0  0  0
  5 33  1  0  0  0  0
  6 34  1  0  0  0  0
 14 35  1  0  0  0  0
 14 36  1  0  0  0  0
 15 37  1  0  0  0  0
 15 38  1  0  0  0  0
 16 39  1  0  0  0  0
 16 40  1  0  0  0  0
 20 41  1  0  0  0  0
 21 42  1  0  0  0  0
 21 43  1  0  0  0  0
 22 44  1  0  0  0  0
M  CHG  1  20   1
M  END
> <OMEGA_C>
n1O/QNg1a78jBrDBJRLWQJjN9rwKjLbBOeBBQAl4m8BV14nBrk15QDrQi8ByvZHBOLmfQP4ieD9g
pqbBrHrqP9LLL8CEnIrBxeC1QP008j8eOK3BhiikQNOU075A+6fBPtX9P1cqgcB8QYbBiXXRQDIh
rj9JTrXBH41sQI8aRMATz5XBIEKLQGTgeEBbYpnBoeaSQPIuIcDgEZ7BHcamQG3sh0CdJrXBTrLP
QGXJskBRQKnBBbrkQLp7ckBRRJvBalCwQOi0WkAiBqvBgT7ZQK2Gg0D186bB1mYrQMcjEsAvLJLB
U6CKQMWaaUCmu6PBIYJIQBSVf0BLMZTBKaiLQHxNmr/vNKHB0EaxQEtdS8D7WqHBWIW1QIYss0D/
5bLB/nOQP7RNj8BSWX3BrsLnQJ3/CEAiJbzB+SX8QOeAckDL5KzBdu65QPWzhUAu45HBA5PCQKMO
/r9sJbHBo2brQJtP1b7smbzBiIJKQIIru8DqkobBaZKWQIRmn8Cur5TBJtiKQEzUqz8WcqDBmS+D
P598B8CI24fBVxC4QLFOdUCeD7zBdjeEQAb4h0An07bBbh++QKAywUACiKLBy6DtQH6IxEAzlKrB
YQzsQLvKLUAcqprBUJcAQev0i0A3C5nB4HpbQFmmZ0CjKqfBFo1GQDBHh0Afa4zBrSISQGlzdUC/
N5jBVNBiQC48Rr9VM57Bkfi/QPaZbb8Bqq/Bm0TWQJgiSL0EWbbBtXzePyCJNMDgC4rBPfAjQFaL
FMDBJ5LBCwqgQEhQeT8nhqbBCuBFQCnMmsAlDorB3QG2QFix8T8sPa3BE9GkQIcE1L5eqafBF8MA
QGf5gsBd5oXB7n/RQPnNqz+yR7XBCW1pQPCmRsDa8pXBzo+LQMfmekDEn5nBPvqRQHbQIsCMDJ7B
+2GoQAboh0AAUrXBnSDSQGDIskBNuKnBBb3kQFzWc0AjT5vBxvGwQPbaWkC6KavBhyzaQOhCg0D6
F6fBeXV4QOb9isC86ZHBDQ6LQP9Ia0BX+KPBPltJQHvKfEDXT5TB/5CMQGMvmr/Zy6DBT+2vQNQV
TsB9XKHBCiOzQLmTs0BRcrLBkWOfPw8Uk8Bl8HvB3v3nQHzuBkDULLzBeS/9QAPWbkCTz6zBi+q5
QJGxiUDVSpLBaI3DQGlr/78PorDB0GrrQHZW477iZ7zB1sloP/FID8DbC4fB1dkXQCUPrL9rhJXB
RxSLQICUrT9XX6DBVrdSQBBTusCT5obBNK28QECEeUDP8rvBYYeGQIqThUC/qLfBCibFQEJvw0Cz
raLBlhzwQIJFwkCQOKzBnWbqQDK9LkByZZrBjPQAQbCTi0BsIJnB+4lcQCYvakBHdqfBlDpHQGLi
hUDgiYzB5lUTQG4tb0DtP5jB+2xnQPv1Pr+OV53B

> <OMEGA_E>
wBy+PNC4TD4=

> <OMEGA_NBR>
     44494

$$$$
300565
  -OEChem-04172616093D

 45 48  0     1  0  0  0  0  0999 V2000
   -0.2263   -5.7073  -16.1383 C   0  5  0  0  0  0  0  0  0  0  0  0
    3.0399   -4.7033  -16.8432 C   0  0  0  0  0  0  0  0  0  0  0  0
    6.1216   -0.9398  -21.6424 C   0  0  0  0  0  0  0  0  0  0  0  0
    6.8557   -0.0913  -22.4851 C   0  0  0  0  0  0  0  0  0  0  0  0
    4.0709   -3.9784  -17.4650 C   0  0  0  0  0  0  0  0  0  0  0  0
    4.9970    1.0011  -20.6930 C   0  0  0  0  0  0  0  0  0  0  0  0
    1.4426   -3.4288  -18.1577 C   0  0  0  0  0  0  0  0  0  0  0  0
    5.7584    1.8886  -21.5010 C   0  0  0  0  0  0  0  0  0  0  0  0
    1.7076   -4.4256  -17.1991 C   0  0  0  0  0  0  0  0  0  0  0  0
    5.1834   -0.3883  -20.7513 C   0  0  0  0  0  0  0  0  0  0  0  0
    6.6777    1.3060  -22.4319 C   0  0  0  0  0  0  0  0  0  0  0  0
    3.7395   -2.9912  -18.4262 C   0  0  0  0  0  0  0  0  0  0  0  0
    4.4839    4.0712  -19.1376 C   0  0  0  0  0  0  0  0  0  0  0  0
    4.7868   -2.2249  -19.1316 C   0  0  0  0  0  0  0  0  0  0  0  0
    5.1042    4.0670  -22.7111 C   0  0  0  0  0  0  0  0  0  0  0  0
    6.3269    5.6936  -21.4836 C   0  0  0  0  0  0  0  0  0  0  0  0
    7.2490    4.1947  -19.5694 C   0  0  0  0  0  0  0  0  0  0  0  0
    5.5269    3.4326  -21.3680 C   0  0  2  0  0  0  0  0  0  0  0  0
    6.7757    4.2907  -21.0326 C   0  0  1  0  0  0  0  0  0  0  0  0
    2.4421   -2.7369  -18.7459 N   0  0  0  0  0  0  0  0  0  0  0  0
    0.6605   -5.1233  -16.6203 N   0  3  0  0  0  0  0  0  0  0  0  0
    4.3950    3.7073  -20.4020 N   0  3  0  0  0  0  0  0  0  0  0  0
    3.3184    4.1019  -18.3877 N   0  0  0  0  0  0  0  0  0  0  0  0
    4.3656   -1.1885  -19.9623 N   0  0  0  0  0  0  0  0  0  0  0  0
    5.9776   -2.4456  -18.9282 O   0  0  0  0  0  0  0  0  0  0  0  0
    5.4298    5.4837  -22.6157 O   0  0  0  0  0  0  0  0  0  0  0  0
    7.3862    2.0428  -23.3157 F   0  0  0  0  0  0  0  0  0  0  0  0
    7.8569    3.9868  -21.7939 F   0  0  0  0  0  0  0  0  0  0  0  0
    5.9583    4.6356  -18.3668 S   0  0  0  0  0  0  0  0  0  0  0  0
    3.2663   -5.4594  -16.1059 H   0  0  0  0  0  0  0  0  0  0  0  0
    6.2757   -2.0082  -21.6779 H   0  0  0  0  0  0  0  0  0  0  0  0
    7.5648   -0.5134  -23.1818 H   0  0  0  0  0  0  0  0  0  0  0  0
    5.1033   -4.1713  -17.2134 H   0  0  0  0  0  0  0  0  0  0  0  0
    4.2575    1.4059  -20.0180 H   0  0  0  0  0  0  0  0  0  0  0  0
    0.4194   -3.2133  -18.4279 H   0  0  0  0  0  0  0  0  0  0  0  0
    5.6576    3.6043  -23.5415 H   0  0  0  0  0  0  0  0  0  0  0  0
    4.0241    3.9346  -22.8714 H   0  0  0  0  0  0  0  0  0  0  0  0
    5.7982    6.2068  -20.6668 H   0  0  0  0  0  0  0  0  0  0  0  0
    7.1967    6.2928  -21.7909 H   0  0  0  0  0  0  0  0  0  0  0  0
    7.5707    3.1613  -19.3735 H   0  0  0  0  0  0  0  0  0  0  0  0
    8.1014    4.8764  -19.4326 H   0  0  0  0  0  0  0  0  0  0  0  0
    3.4696    3.6003  -20.7657 H   0  0  0  0  0  0  0  0  0  0  0  0
    3.3387    4.4365  -17.4456 H   0  0  0  0  0  0  0  0  0  0  0  0
    2.4573    3.7895  -18.7889 H   0  0  0  0  0  0  0  0  0  0  0  0
    3.3834   -1.0033  -19.9938 H   0  0  0  0  0  0  0  0  0  0  0  0
  1 21  3  0  0  0  0
  2  5  2  0  0  0  0
  2  9  1  0  0  0  0
  3  4  2  0  0  0  0
  3 10  1  0  0  0  0
  4 11  1  0  0  0  0
  5 12  1  0  0  0  0
  6  8  1  0  0  0  0
  6 10  2  0  0  0  0
  7  9  2  0  0  0  0
  7 20  1  0  0  0  0
  8 11  2  0  0  0  0
  8 18  1  0  0  0  0
  9 21  1  0  0  0  0
 10 24  1  0  0  0  0
 11 27  1  0  0  0  0
 12 14  1  0  0  0  0
 12 20  2  0  0  0  0
 13 22  2  0  0  0  0
 13 23  1  0  0  0  0
 13 29  1  0  0  0  0
 14 24  1  0  0  0  0
 14 25  2  0  0  0  0
 15 18  1  0  0  0  0
 15 26  1  0  0  0  0
 16 19  1  0  0  0  0
 16 26  1  0  0  0  0
 17 19  1  0  0  0  0
 17 29  1  0  0  0  0
 18 19  1  0  0  0  0
 18 22  1  0  0  0  0
 19 28  1  0  0  0  0
  2 30  1  0  0  0  0
  3 31  1  0  0  0  0
  4 32  1  0  0  0  0
  5 33  1  0  0  0  0
  6 34  1  0  0  0  0
  7 35  1  0  0  0  0
 15 36  1  0  0  0  0
 15 37  1  0  0  0  0
 16 38  1  0  0  0  0
 16 39  1  0  0  0  0
 17 40  1  0  0  0  0
 17 41  1  0  0  0  0
 22 42  1  0  0  0  0
 23 43  1  0  0  0  0
 23 44  1  0  0  0  0
 24 45  1  0  0  0  0
M  CHG  3   1  -1  21   1  22   1
M  END
> <OMEGA_C>
fsdnvtChtsA5G4HBOI5CQIqBlsDavobBwePDQLqZcL+8I63BC2LbQJMKu71w4bPBnESCQBmefsBa
uIvB1eefQAgjgD8zi6XB4qe4P5BxW8DtQpHB9kS4QC+98T8QAqzBOJTaP8eejcDGl4nBI96lQDrO
xr6rAqbBILDVQCkspz+bdLPBZ1NvQMZvP8DxaJPBbXyPQOtGgkDQGZnBEi2ZQBJlDsCSDZnB5lWj
QB0lgkA7sLXBVHbKQO4xtkBT3qvBn/fnQFs7hkAzjpzBndywQFOvW0Cc8arBotLYQK9NiUDSQqjB
kEscQCspL8Cl95XBkxYpPwnyo8Bc9oTBl6OMQOpEbUBUN6PBp2BUQNdCg0ASGpPByrKLQP8hmL/g
sp/BQ0i/QOuDHMD6bJfBTcGtQIx6r0Dr7LTB0FvsQJe9AkB3hrrBoWv7QGYof0D7Wa7BVaq+QItW
lEBB75LBrQpRQCazrsDz2IDBJ9LIQHyGAMBDbK3BrRLyQOhtA79tdLnBEk6jQHR7hcD/tInBST2I
QPvysz/bJKDB/b/WPvylTcBYbJPBBwu1QPqsZkAIVbzBHsWAQELRe0CN+LbBFIu5QB2exkCgVaXB
P0vmQOxeyUDDU67Bi0PyQFtSSkDW/JrBap8BQT8LnEDwdZvBAg5eQElrZkAYIKbB56xVQCb4jUCW
kIvBJUUdQISGckC7T5bBa4lYQJlrgL9E85/B

> <OMEGA_E>
jArfPg==

> <OMEGA_NBR>
     45560

$$$$
300564
  -OEChem-04172616093D

 47 50  0     1  0  0  0  0  0999 V2000
    5.9146   -0.8780  -21.8725 C   0  0  0  0  0  0  0  0  0  0  0  0
    6.6012    0.0092  -22.7020 C   0  0  0  0  0  0  0  0  0  0  0  0
    4.8764    1.0121  -20.7306 C   0  0  0  0  0  0  0  0  0  0  0  0
    3.9620   -4.5372  -18.2823 C   0  0  0  0  0  0  0  0  0  0  0  0
    1.6180   -3.2621  -17.7416 C   0  0  0  0  0  0  0  0  0  0  0  0
    5.5618    1.9416  -21.5653 C   0  0  0  0  0  0  0  0  0  0  0  0
    5.0640   -0.3801  -20.8664 C   0  0  0  0  0  0  0  0  0  0  0  0
    6.4382    1.3960  -22.5603 C   0  0  0  0  0  0  0  0  0  0  0  0
    3.6983   -3.2396  -18.7838 C   0  0  0  0  0  0  0  0  0  0  0  0
    1.8756   -4.5631  -17.2336 C   0  0  0  0  0  0  0  0  0  0  0  0
    4.4259    4.2312  -19.1134 C   0  0  0  0  0  0  0  0  0  0  0  0
    4.6728   -2.5261  -19.6259 C   0  0  0  0  0  0  0  0  0  0  0  0
    4.8422    4.1393  -22.6747 C   0  0  0  0  0  0  0  0  0  0  0  0
    7.1021    4.7849  -22.5284 C   0  0  0  0  0  0  0  0  0  0  0  0
    6.5654    5.4963  -20.2003 C   0  0  0  0  0  0  0  0  0  0  0  0
    5.3442    3.4952  -21.3670 C   0  0  2  0  0  0  0  0  0  0  0  0
    6.6929    4.2692  -21.1246 C   0  0  1  0  0  0  0  0  0  0  0  0
   -0.2873   -4.5862  -16.1465 C   0  0  0  0  0  0  0  0  0  0  0  0
    2.5266   -2.6287  -18.5012 N   0  0  0  0  0  0  0  0  0  0  0  0
    3.0497   -5.1748  -17.5176 N   0  0  0  0  0  0  0  0  0  0  0  0
    4.2703    3.7198  -20.3176 N   0  3  0  0  0  0  0  0  0  0  0  0
    3.3462    4.2443  -18.2441 N   0  0  0  0  0  0  0  0  0  0  0  0
    4.3449   -1.2224  -20.0173 N   0  0  0  0  0  0  0  0  0  0  0  0
    5.7525   -3.0464  -19.8912 O   0  0  0  0  0  0  0  0  0  0  0  0
    6.0004    4.5332  -23.4388 O   0  0  0  0  0  0  0  0  0  0  0  0
    0.9660   -5.2529  -16.4445 O   0  0  0  0  0  0  0  0  0  0  0  0
    7.1466    2.1538  -23.4143 F   0  0  0  0  0  0  0  0  0  0  0  0
    7.6535    3.4343  -20.6254 F   0  0  0  0  0  0  0  0  0  0  0  0
    5.9082    4.9888  -18.6075 S   0  0  0  0  0  0  0  0  0  0  0  0
    6.0351   -1.9435  -22.0014 H   0  0  0  0  0  0  0  0  0  0  0  0
    7.2656   -0.3755  -23.4617 H   0  0  0  0  0  0  0  0  0  0  0  0
    4.1975    1.3817  -19.9763 H   0  0  0  0  0  0  0  0  0  0  0  0
    4.8998   -5.0206  -18.5131 H   0  0  0  0  0  0  0  0  0  0  0  0
    0.6805   -2.7764  -17.5144 H   0  0  0  0  0  0  0  0  0  0  0  0
    4.2454    3.4128  -23.2457 H   0  0  0  0  0  0  0  0  0  0  0  0
    4.2258    5.0212  -22.4461 H   0  0  0  0  0  0  0  0  0  0  0  0
    7.3097    5.8642  -22.4835 H   0  0  0  0  0  0  0  0  0  0  0  0
    8.0007    4.2528  -22.8741 H   0  0  0  0  0  0  0  0  0  0  0  0
    7.5565    5.9519  -20.0585 H   0  0  0  0  0  0  0  0  0  0  0  0
    5.8865    6.2305  -20.6587 H   0  0  0  0  0  0  0  0  0  0  0  0
   -0.9102   -5.2394  -15.5178 H   0  0  0  0  0  0  0  0  0  0  0  0
   -0.0845   -3.6470  -15.6110 H   0  0  0  0  0  0  0  0  0  0  0  0
   -0.8176   -4.3662  -17.0847 H   0  0  0  0  0  0  0  0  0  0  0  0
    3.3408    3.4493  -20.5685 H   0  0  0  0  0  0  0  0  0  0  0  0
    3.4302    4.6824  -17.3492 H   0  0  0  0  0  0  0  0  0  0  0  0
    2.4834    3.8155  -18.5120 H   0  0  0  0  0  0  0  0  0  0  0  0
    3.4948   -0.8509  -19.6443 H   0  0  0  0  0  0  0  0  0  0  0  0
  1  2  2  0  0  0  0
  1  7  1  0  0  0  0
  2  8  1  0  0  0  0
  3  6  1  0  0  0  0
  3  7  2  0  0  0  0
  4  9  2  0  0  0  0
  4 20  1  0  0  0  0
  5 10  1  0  0  0  0
  5 19  2  0  0  0  0
  6  8  2  0  0  0  0
  6 16  1  0  0  0  0
  7 23  1  0  0  0  0
  8 27  1  0  0  0  0
  9 12  1  0  0  0  0
  9 19  1  0  0  0  0
 10 20  2  0  0  0  0
 10 26  1  0  0  0  0
 11 21  2  0  0  0  0
 11 22  1  0  0  0  0
 11 29  1  0  0  0  0
 12 23  1  0  0  0  0
 12 24  2  0  0  0  0
 13 16  1  0  0  0  0
 13 25  1  0  0  0  0
 14 17  1  0  0  0  0
 14 25  1  0  0  0  0
 15 17  1  0  0  0  0
 15 29  1  0  0  0  0
 16 17  1  0  0  0  0
 16 21  1  0  0  0  0
 17 28  1  0  0  0  0
 18 26  1  0  0  0  0
  1 30  1  0  0  0  0
  2 31  1  0  0  0  0
  3 32  1  0  0  0  0
  4 33  1  0  0  0  0
  5 34  1  0  0  0  0
 13 35  1  0  0  0  0
 13 36  1  0  0  0  0
 14 37  1  0  0  0  0
 14 38  1  0  0  0  0
 15 39  1  0  0  0  0
 15 40  1  0  0  0  0
 18 41  1  0  0  0  0
 18 42  1  0  0  0  0
 18 43  1  0  0  0  0
 21 44  1  0  0  0  0
 22 45  1  0  0  0  0
 22 46  1  0  0  0  0
 23 47  1  0  0  0  0
M  CHG  1  21   1
M  END
> <OMEGA_C>
u0S9QO3EYL/N+q7BcD3TQLwkFzzJnbXBiQucQP2MgT812KXBIZJ9QKgwkcAvQpLBEhvPP+zFUMDN
7o3BQfqxQGOG+D+5hazB8guiQF6bwr5q7qbB1AXOQNmusj+Ye7TBfLBsQElWT8AzRZbBGxLwP00F
ksBq3onB0aCNQFhmh0BR6JjBMIeVQO6qIcDEAZ3Be/OaQMd0hEDcZbXBmUTjQAQemUA7OrTBkBfS
QP3hr0AdmqHBSQOrQBmxX0Cd76rBdSzWQA2diEAp/6jBoheTvj7CksDwK4HBCbQhQJ08KMB+ApTB
5y5DQDGYpcAcJIzBDKaIQCURbkCIiqLBsyhWQAXRh0D/85HBpgmLQD14nL+GI6DBfRS4QLb4QsAw
IZ/BEQPAQM0PkUCbgrvBZUl3P8gXqMBkjoPBGrHkQJHYCUBwULvB2un0QMbKW0DqAKXBHhC9QOSj
n0AP3JTB3B/BQDPE+L/hArDBvn/oQK87wL6MsbvBAVKGQBHasD9xz5/BkMucQKGooMDJGpTB6Tcu
P/mvMcB4HYzBHtqHQIZrWkBL97nBEzqHQJGtoECkkbPBTOnpQJmnu0Ac3rPBugIAQckWiEAT/rbB
4s7xQEZ2vkDQd6DBfV68QBNgx0AYRaXB3gVpv3ypp8DeSHjB9xitvV9oacB6xnnBSFBRv+W3i8B/
rYjBwc9VQELBXEBGjKTB2odbQFLWlUAWy4rBl/AeQFkxdECRGJTBIKpfQJTRWb+PJ53B

> <OMEGA_E>
7LoWPw==

> <OMEGA_NBR>
     46652

$$$$
315434
  -OEChem-04172616093D

 47 50  0     1  0  0  0  0  0999 V2000
    6.0570   -0.9296  -21.9896 C   0  0  0  0  0  0  0  0  0  0  0  0
    6.8244   -0.0327  -22.7438 C   0  0  0  0  0  0  0  0  0  0  0  0
    2.9953   -4.7575  -17.1922 C   0  0  0  0  0  0  0  0  0  0  0  0
    3.8813   -4.3032  -18.1784 C   0  0  0  0  0  0  0  0  0  0  0  0
    4.9479    0.9459  -20.9025 C   0  0  0  0  0  0  0  0  0  0  0  0
    1.8042   -2.6483  -17.3803 C   0  0  0  0  0  0  0  0  0  0  0  0
    5.7060    1.8670  -21.6543 C   0  0  0  0  0  0  0  0  0  0  0  0
    5.1296   -0.4323  -21.0498 C   0  0  0  0  0  0  0  0  0  0  0  0
    6.6712    1.3541  -22.5725 C   0  0  0  0  0  0  0  0  0  0  0  0
    1.9422   -3.9193  -16.7926 C   0  0  0  0  0  0  0  0  0  0  0  0
    3.6920   -3.0169  -18.7339 C   0  0  0  0  0  0  0  0  0  0  0  0
    4.3879    3.7869  -19.2114 C   0  0  0  0  0  0  0  0  0  0  0  0
    4.5985   -2.5066  -19.7714 C   0  0  0  0  0  0  0  0  0  0  0  0
    7.0071    5.0285  -19.7683 C   0  0  0  0  0  0  0  0  0  0  0  0
    6.9258    3.7120  -20.5670 C   0  0  1  0  0  0  0  0  0  0  0  0
    6.8162    3.6948  -19.0343 C   0  0  2  0  0  0  0  0  0  0  0  0
    5.6127    3.3697  -21.3302 C   0  0  1  0  0  0  0  0  0  0  0  0
    6.5233    6.3499  -22.5940 C   0  0  0  0  0  0  0  0  0  0  0  0
    5.4069    4.2059  -22.6246 C   0  0  0  0  0  0  0  0  0  0  0  0
    2.6684   -2.2190  -18.3234 N   0  0  0  0  0  0  0  0  0  0  0  0
    4.3984    3.6822  -20.5190 N   0  3  0  0  0  0  0  0  0  0  0  0
    3.1763    4.0650  -18.5988 N   0  0  0  0  0  0  0  0  0  0  0  0
    4.3365   -1.2283  -20.2401 N   0  0  0  0  0  0  0  0  0  0  0  0
    5.5801   -3.1545  -20.1196 O   0  0  0  0  0  0  0  0  0  0  0  0
    5.4985    3.5738  -18.4199 O   0  0  0  0  0  0  0  0  0  0  0  0
    5.3163    5.6088  -22.3165 O   0  0  0  0  0  0  0  0  0  0  0  0
    7.4988    2.1612  -23.2733 F   0  0  0  0  0  0  0  0  0  0  0  0
    0.8079   -4.4493  -15.5831 Cl  0  0  0  0  0  0  0  0  0  0  0  0
    6.1745   -1.9944  -22.1266 H   0  0  0  0  0  0  0  0  0  0  0  0
    7.5383   -0.4090  -23.4615 H   0  0  0  0  0  0  0  0  0  0  0  0
    3.1203   -5.7340  -16.7480 H   0  0  0  0  0  0  0  0  0  0  0  0
    4.6979   -4.9275  -18.5098 H   0  0  0  0  0  0  0  0  0  0  0  0
    4.2135    1.3118  -20.2003 H   0  0  0  0  0  0  0  0  0  0  0  0
    0.9931   -2.0056  -17.0713 H   0  0  0  0  0  0  0  0  0  0  0  0
    7.9632    5.5670  -19.6910 H   0  0  0  0  0  0  0  0  0  0  0  0
    6.1809    5.7531  -19.8165 H   0  0  0  0  0  0  0  0  0  0  0  0
    7.8626    3.3368  -21.0049 H   0  0  0  0  0  0  0  0  0  0  0  0
    7.6845    3.3062  -18.4820 H   0  0  0  0  0  0  0  0  0  0  0  0
    6.3729    7.4079  -22.3329 H   0  0  0  0  0  0  0  0  0  0  0  0
    7.3510    5.9392  -21.9971 H   0  0  0  0  0  0  0  0  0  0  0  0
    6.7664    6.2674  -23.6636 H   0  0  0  0  0  0  0  0  0  0  0  0
    6.2583    4.0392  -23.3009 H   0  0  0  0  0  0  0  0  0  0  0  0
    4.4780    3.8841  -23.1181 H   0  0  0  0  0  0  0  0  0  0  0  0
    3.5356    3.8208  -21.0051 H   0  0  0  0  0  0  0  0  0  0  0  0
    3.1186    4.1082  -17.6014 H   0  0  0  0  0  0  0  0  0  0  0  0
    2.3598    4.2226  -19.1542 H   0  0  0  0  0  0  0  0  0  0  0  0
    3.4637   -0.8303  -19.9575 H   0  0  0  0  0  0  0  0  0  0  0  0
  1  2  2  0  0  0  0
  1  8  1  0  0  0  0
  2  9  1  0  0  0  0
  3  4  2  0  0  0  0
  3 10  1  0  0  0  0
  4 11  1  0  0  0  0
  5  7  1  0  0  0  0
  5  8  2  0  0  0  0
  6 10  2  0  0  0  0
  6 20  1  0  0  0  0
  7  9  2  0  0  0  0
  7 17  1  0  0  0  0
  8 23  1  0  0  0  0
  9 27  1  0  0  0  0
 10 28  1  0  0  0  0
 11 13  1  0  0  0  0
 11 20  2  0  0  0  0
 12 21  2  0  0  0  0
 12 22  1  0  0  0  0
 12 25  1  0  0  0  0
 13 23  1  0  0  0  0
 13 24  2  0  0  0  0
 14 15  1  0  0  0  0
 14 16  1  0  0  0  0
 15 16  1  0  0  0  0
 15 17  1  0  0  0  0
 16 25  1  0  0  0  0
 17 19  1  0  0  0  0
 17 21  1  0  0  0  0
 18 26  1  0  0  0  0
 19 26  1  0  0  0  0
  1 29  1  0  0  0  0
  2 30  1  0  0  0  0
  3 31  1  0  0  0  0
  4 32  1  0  0  0  0
  5 33  1  0  0  0  0
  6 34  1  0  0  0  0
 14 35  1  0  0  0  0
 14 36  1  0  0  0  0
 15 37  1  0  0  0  0
 16 38  1  0  0  0  0
 18 39  1  0  0  0  0
 18 40  1  0  0  0  0
 18 41  1  0  0  0  0
 19 42  1  0  0  0  0
 19 43  1  0  0  0  0
 21 44  1  0  0  0  0
 22 45  1  0  0  0  0
 22 46  1  0  0  0  0
 23 47  1  0  0  0  0
M  CHG  1  21   1
M  END
> <OMEGA_C>
KdPBQFz5bb+66q/BfWHaQBzUBb1i87XBqrM/QMo9mMCyiYnBM2d4QPazicB0bZHBU1WeQK4jcj9i
OKfBkvDmP8J9KcDGCovBzJe2QAL57j/uO63B4CWkQGZa3b7zZajBU3rVQChTrT+AlLTB+pj4P1zW
esAvV4bBSUlsQGwUQcAP35XBgWmMQPxcckDisJnBLyeTQOhsIMDmK57BPzrgQB/poEBkJZ7BfqDd
QKCQbUAsiaTBEx7aQNh3bEA0RpjBMZuzQMCpV0AvpKrBLL/QQLoyy0B7wLTBeAWtQFaWhkAV/7TB
LccqQNgEDsBolpLBBMCMQKKoa0DkJqTBv0hLQLMUgkBmypTBwcSKQBE4nb/A66HBSJCyQPrjScDm
9KDBd/OvQFq4ZED5W5PB0x6qQBJ7s0AkiLLB5/XvQFhQCkCiL7rBs89OP6pgjsCKVHnBRpXFQMxI
/786A7HB0DnxQOhp0b5AsbvB3rJHQM98t8Dm+4XBk1WWQMOtncAbFJTBVdWGQEHopz8dmqHBcT1+
P+lbAMDzkYjBLNL+QL8kskA7h53BRcrFQHgZuEAkiJ7BX5r7QImOVUAICqjBW+f1QECYU0A125PB
fu7LQCAN7UC1qbLBrDvrQDEOvkAg+q/BVYbYQJyOyEAVT73BnkPIQFFBgUBEaLrBEEyPQEiUeEDv
8bjBekdiQC6IdEB0CqjBvZZHQAh2g0C5z4zBrgYXQFYfh0DUO5nBpa1dQKePVL/+qJ/BHfjCQMpN
eb98EbDBUjraQDD7AL2M/7XBbo/dPxgPMMCW7IrBx2YnQDgWEsD5s5LBifqcQHkSVz+/MqfBcjVB
QJTjmcAMaYrBVT60QIWA5z8r9qzB93OkQEJeBr+vmqjBP13TQISJrD/jfbTBcFX3P4ENgcDPwIbB
fBJsQGT4RsBhMpbBUKuMQIyRfUCWNJnB4LSTQIrcJsBQb57BudvTQGA0rkBUZaPBsVXWQDwsfkBv
6qbBgR3ZQGOtikABAJvBw9arQKrWU0ApwqrBMS3CQEaeskAopr7BD9uXQB7ff0AIqLTB9rl3QF8N
i8Af+ZHB8JOIQO6vXkCD3qLBDslOQJaph0BOopPBv+eKQM/frL9ngKLBt7uzQFquT8Bh66DB6X6z
QLBBhUDcRJTBx7G1QOS7hkA0K73Bc6DrQO5jDEDLVrrBswVWP6L5lMCXTnrBumXIQKz4AcBxNrHB
gZvxQCVuu75QxbvB8P9oPyfSCMCUMIjBESAfQEXipb+zD5bB1deEQJqVlD9PkqHBnytLQJFtucC1
GofBIpfuQKwOxECaG6XBXHC1QGq+v0AXA6TBcPfzQOURaUCu3arBdtD4QFnZh0BsPZfBKAfZQEXW
tEDOUcXB17mlQGsGxkD/d8DBJ1LRQFKUvkAZSrfBOll7QFFiV0Bmp7fBRvSKQL8ln0AZLbLBKn5W
QLzRTECOKKXBfNpRQMWekkCgIIzBDeYVQBwdg0BgHpfBjMJbQJRQfb/ZxKDB

> <OMEGA_E>
4LhnPlDC/z4=

> <OMEGA_NBR>
     48565

$$$$
603571
  -OEChem-04172616093D

 50 53  0     1  0  0  0  0  0999 V2000
    6.0369   -0.9370  -22.0210 C   0  0  0  0  0  0  0  0  0  0  0  0
    6.7861   -0.0282  -22.7800 C   0  0  0  0  0  0  0  0  0  0  0  0
    3.0365   -4.7120  -17.1394 C   0  0  0  0  0  0  0  0  0  0  0  0
    3.8993   -4.2918  -18.1603 C   0  0  0  0  0  0  0  0  0  0  0  0
    4.9686    0.9185  -20.8627 C   0  0  0  0  0  0  0  0  0  0  0  0
    1.8410   -2.6086  -17.3666 C   0  0  0  0  0  0  0  0  0  0  0  0
    5.7039    1.8475  -21.6176 C   0  0  0  0  0  0  0  0  0  0  0  0
    5.1381   -0.4521  -21.0483 C   0  0  0  0  0  0  0  0  0  0  0  0
    6.6410    1.3550  -22.5768 C   0  0  0  0  0  0  0  0  0  0  0  0
    1.9959   -3.8579  -16.7390 C   0  0  0  0  0  0  0  0  0  0  0  0
    3.6961   -3.0250  -18.7515 C   0  0  0  0  0  0  0  0  0  0  0  0
    4.3484    3.8374  -19.1372 C   0  0  0  0  0  0  0  0  0  0  0  0
    4.5962   -2.5326  -19.8004 C   0  0  0  0  0  0  0  0  0  0  0  0
    6.9976    5.3683  -20.6465 C   0  0  0  0  0  0  0  0  0  0  0  0
    5.2136    4.1073  -22.6149 C   0  0  0  0  0  0  0  0  0  0  0  0
    7.1059    3.2686  -19.2404 C   0  0  0  0  0  0  0  0  0  0  0  0
    6.9017    3.8399  -20.6532 C   0  0  1  0  0  0  0  0  0  0  0  0
    6.6940    5.8938  -22.0492 C   0  0  2  0  0  0  0  0  0  0  0  0
    5.5619    3.3432  -21.3008 C   0  0  2  0  0  0  0  0  0  0  0  0
    6.8148    7.4121  -22.0473 C   0  0  0  0  0  0  0  0  0  0  0  0
    2.6791   -2.2149  -18.3467 N   0  0  0  0  0  0  0  0  0  0  0  0
    4.3642    3.6301  -20.4363 N   0  3  0  0  0  0  0  0  0  0  0  0
    3.1216    4.0955  -18.5484 N   0  0  0  0  0  0  0  0  0  0  0  0
    4.3459   -1.2498  -20.2492 N   0  0  0  0  0  0  0  0  0  0  0  0
    5.5747   -3.1824  -20.1535 O   0  0  0  0  0  0  0  0  0  0  0  0
    5.3534    5.5165  -22.4160 O   0  0  0  0  0  0  0  0  0  0  0  0
    7.4388    2.1767  -23.2975 F   0  0  0  0  0  0  0  0  0  0  0  0
    5.7795    3.8122  -18.1041 S   0  0  0  0  0  0  0  0  0  0  0  0
    0.9021   -4.3392  -15.4740 Cl  0  0  0  0  0  0  0  0  0  0  0  0
    6.1469   -1.9996  -22.1794 H   0  0  0  0  0  0  0  0  0  0  0  0
    7.4783   -0.3922  -23.5248 H   0  0  0  0  0  0  0  0  0  0  0  0
    3.1692   -5.6751  -16.6690 H   0  0  0  0  0  0  0  0  0  0  0  0
    4.7079   -4.9271  -18.4904 H   0  0  0  0  0  0  0  0  0  0  0  0
    4.2611    1.2720  -20.1273 H   0  0  0  0  0  0  0  0  0  0  0  0
    1.0384   -1.9548  -17.0587 H   0  0  0  0  0  0  0  0  0  0  0  0
    6.2687    5.7801  -19.9330 H   0  0  0  0  0  0  0  0  0  0  0  0
    8.0124    5.6726  -20.3507 H   0  0  0  0  0  0  0  0  0  0  0  0
    5.8949    3.7835  -23.4155 H   0  0  0  0  0  0  0  0  0  0  0  0
    4.1761    3.8817  -22.9028 H   0  0  0  0  0  0  0  0  0  0  0  0
    7.1032    2.1699  -19.2945 H   0  0  0  0  0  0  0  0  0  0  0  0
    8.0749    3.6141  -18.8510 H   0  0  0  0  0  0  0  0  0  0  0  0
    7.7216    3.4615  -21.2814 H   0  0  0  0  0  0  0  0  0  0  0  0
    7.4203    5.4720  -22.7595 H   0  0  0  0  0  0  0  0  0  0  0  0
    6.5976    7.7990  -23.0539 H   0  0  0  0  0  0  0  0  0  0  0  0
    6.0974    7.8360  -21.3291 H   0  0  0  0  0  0  0  0  0  0  0  0
    7.8365    7.6981  -21.7572 H   0  0  0  0  0  0  0  0  0  0  0  0
    3.4800    3.6674  -20.9020 H   0  0  0  0  0  0  0  0  0  0  0  0
    3.0645    4.2610  -17.5639 H   0  0  0  0  0  0  0  0  0  0  0  0
    2.2930    4.1163  -19.1078 H   0  0  0  0  0  0  0  0  0  0  0  0
    3.4782   -0.8478  -19.9568 H   0  0  0  0  0  0  0  0  0  0  0  0
  1  2  2  0  0  0  0
  1  8  1  0  0  0  0
  2  9  1  0  0  0  0
  3  4  2  0  0  0  0
  3 10  1  0  0  0  0
  4 11  1  0  0  0  0
  5  7  1  0  0  0  0
  5  8  2  0  0  0  0
  6 10  2  0  0  0  0
  6 21  1  0  0  0  0
  7  9  2  0  0  0  0
  7 19  1  0  0  0  0
  8 24  1  0  0  0  0
  9 27  1  0  0  0  0
 10 29  1  0  0  0  0
 11 13  1  0  0  0  0
 11 21  2  0  0  0  0
 12 22  2  0  0  0  0
 12 23  1  0  0  0  0
 12 28  1  0  0  0  0
 13 24  1  0  0  0  0
 13 25  2  0  0  0  0
 14 17  1  0  0  0  0
 14 18  1  0  0  0  0
 15 19  1  0  0  0  0
 15 26  1  0  0  0  0
 16 17  1  0  0  0  0
 16 28  1  0  0  0  0
 17 19  1  0  0  0  0
 18 20  1  0  0  0  0
 18 26  1  0  0  0  0
 19 22  1  0  0  0  0
  1 30  1  0  0  0  0
  2 31  1  0  0  0  0
  3 32  1  0  0  0  0
  4 33  1  0  0  0  0
  5 34  1  0  0  0  0
  6 35  1  0  0  0  0
 14 36  1  0  0  0  0
 14 37  1  0  0  0  0
 15 38  1  0  0  0  0
 15 39  1  0  0  0  0
 16 40  1  0  0  0  0
 16 41  1  0  0  0  0
 17 42  1  0  0  0  0
 18 43  1  0  0  0  0
 20 44  1  0  0  0  0
 20 45  1  0  0  0  0
 20 46  1  0  0  0  0
 22 47  1  0  0  0  0
 23 48  1  0  0  0  0
 23 49  1  0  0  0  0
 24 50  1  0  0  0  0
M  CHG  1  22   1
M  END
> <OMEGA_C>
ry7BQDzcb7/7KrDBjCfZQJi35rx1PbbBfFVCQLrIlsBqHYnBkI55QC5WicBTSJHBFP+eQGIhaz/Z
5qbBaaXrP8/zJsDF7orBooa2QF187D/V8KzBjmukQBd85777YqjBB4PUQJFvrT9PnbTBdnr/P3Lo
dsBg6YXBVY1sQKCZQcANA5bBbiaLQOuXdUAPGZnB1BOTQIkVIsBEZ57BS+zfQDjJq0AOLKXBd9Wm
QLpug0BI67TBwGPjQIgwUUBC7JnB09rcQPTAdUDIOaXB5TTWQPCZvEDPZLDBvPqxQO32VUD4Z6rB
dxLaQAow7UDYYLDBxnYrQGvADcAKxpLBlaeLQClTaECHfaPBwshHQBgOg0AhY5TBARKLQFz4n790
/qHBP2SyQCStS8BKOqHBbk+rQOeGsEDwU7PBmwruQK5OC0A9YbrBTfG4QDz7c0A91ZDBDfBmP97a
isCslXfBO7PEQOHy/79yb7HBSE7vQEXTyL67MrzBgdNKQD+atcAIWoXBNaeWQLKqncBc7JPBVFuI
QMbPoj+fBKHBiuqEPxU3+r9CeIjBXpnIQM72uEC0dp/B/TIAQbCFtUBBzqLBD6O8QD0kckDbUrvB
5aKFQBdueEDiOLfBNE3jQAPgCkAXW5rB+DIBQURNZ0DEzpbBnxf3QOuJXUA8QKrBZHPtQIAar0Bm
E7bB7h/TQI+R+UBJbrjBNh7DQDXA+kD5oarBz8T6QDlX9kCtDq7B3rheQEm2akA3N6fB2yBEQAVa
iEDFgozBmMASQI24g0DS3JjBl5teQEQIWb+ap5/B

> <OMEGA_E>
4L+9PQ==

> <OMEGA_NBR>
     49709

$$$$
315435
  -OEChem-04172616093D

 47 50  0     1  0  0  0  0  0999 V2000
    6.0256   -0.8588  -22.0433 C   0  0  0  0  0  0  0  0  0  0  0  0
    6.7782    0.0918  -22.7500 C   0  0  0  0  0  0  0  0  0  0  0  0
    3.0288   -4.7687  -17.2172 C   0  0  0  0  0  0  0  0  0  0  0  0
    3.8773   -4.3362  -18.2469 C   0  0  0  0  0  0  0  0  0  0  0  0
    4.8818    0.9436  -20.8809 C   0  0  0  0  0  0  0  0  0  0  0  0
    1.9352   -2.6009  -17.2902 C   0  0  0  0  0  0  0  0  0  0  0  0
    5.6113    1.9237  -21.5854 C   0  0  0  0  0  0  0  0  0  0  0  0
    5.0984   -0.4194  -21.0780 C   0  0  0  0  0  0  0  0  0  0  0  0
    6.6109    1.4695  -22.5001 C   0  0  0  0  0  0  0  0  0  0  0  0
    2.0448   -3.8891  -16.7363 C   0  0  0  0  0  0  0  0  0  0  0  0
    3.7173   -3.0317  -18.7670 C   0  0  0  0  0  0  0  0  0  0  0  0
    6.9716    4.0917  -19.4692 C   0  0  0  0  0  0  0  0  0  0  0  0
    4.5883   -2.5335  -19.8439 C   0  0  0  0  0  0  0  0  0  0  0  0
    4.1203    4.9690  -19.5036 C   0  0  0  0  0  0  0  0  0  0  0  0
    4.2432    3.5994  -20.1937 C   0  0  2  0  0  0  0  0  0  0  0  0
    4.6690    3.7588  -18.7286 C   0  0  1  0  0  0  0  0  0  0  0  0
    5.3958    3.4205  -21.2309 C   0  0  2  0  0  0  0  0  0  0  0  0
    5.8721    4.3052  -24.6767 C   0  0  0  0  0  0  0  0  0  0  0  0
    4.9901    4.2887  -22.4440 C   0  0  0  0  0  0  0  0  0  0  0  0
    2.7585   -2.1958  -18.2794 N   0  0  0  0  0  0  0  0  0  0  0  0
    6.6824    3.9240  -20.7304 N   0  3  0  0  0  0  0  0  0  0  0  0
    8.2288    4.5896  -19.1922 N   0  0  0  0  0  0  0  0  0  0  0  0
    4.3290   -1.2452  -20.2771 N   0  0  0  0  0  0  0  0  0  0  0  0
    5.5321   -3.1982  -20.2577 O   0  0  0  0  0  0  0  0  0  0  0  0
    6.0951    3.8520  -18.4282 O   0  0  0  0  0  0  0  0  0  0  0  0
    6.1098    4.5950  -23.2921 O   0  0  0  0  0  0  0  0  0  0  0  0
    7.4798    2.3138  -23.0949 F   0  0  0  0  0  0  0  0  0  0  0  0
    0.9661   -4.3847  -15.4622 Cl  0  0  0  0  0  0  0  0  0  0  0  0
    6.1556   -1.9133  -22.2369 H   0  0  0  0  0  0  0  0  0  0  0  0
    7.4918   -0.2347  -23.4920 H   0  0  0  0  0  0  0  0  0  0  0  0
    3.1302   -5.7603  -16.8016 H   0  0  0  0  0  0  0  0  0  0  0  0
    4.6425   -4.9909  -18.6371 H   0  0  0  0  0  0  0  0  0  0  0  0
    4.1337    1.2580  -20.1682 H   0  0  0  0  0  0  0  0  0  0  0  0
    1.1797   -1.9249  -16.9178 H   0  0  0  0  0  0  0  0  0  0  0  0
    4.7931    5.7914  -19.7885 H   0  0  0  0  0  0  0  0  0  0  0  0
    3.1277    5.3753  -19.2592 H   0  0  0  0  0  0  0  0  0  0  0  0
    3.3105    3.0505  -20.3904 H   0  0  0  0  0  0  0  0  0  0  0  0
    4.0061    3.3171  -17.9700 H   0  0  0  0  0  0  0  0  0  0  0  0
    6.7657    4.5625  -25.2644 H   0  0  0  0  0  0  0  0  0  0  0  0
    5.6519    3.2339  -24.7944 H   0  0  0  0  0  0  0  0  0  0  0  0
    5.0160    4.8969  -25.0333 H   0  0  0  0  0  0  0  0  0  0  0  0
    4.2379    3.7441  -23.0334 H   0  0  0  0  0  0  0  0  0  0  0  0
    4.5564    5.2303  -22.0763 H   0  0  0  0  0  0  0  0  0  0  0  0
    7.3853    4.1543  -21.4034 H   0  0  0  0  0  0  0  0  0  0  0  0
    8.4968    4.7730  -18.2464 H   0  0  0  0  0  0  0  0  0  0  0  0
    8.8717    4.7670  -19.9374 H   0  0  0  0  0  0  0  0  0  0  0  0
    3.4619   -0.8552  -19.9673 H   0  0  0  0  0  0  0  0  0  0  0  0
  1  2  2  0  0  0  0
  1  8  1  0  0  0  0
  2  9  1  0  0  0  0
  3  4  2  0  0  0  0
  3 10  1  0  0  0  0
  4 11  1  0  0  0  0
  5  7  1  0  0  0  0
  5  8  2  0  0  0  0
  6 10  2  0  0  0  0
  6 20  1  0  0  0  0
  7  9  2  0  0  0  0
  7 17  1  0  0  0  0
  8 23  1  0  0  0  0
  9 27  1  0  0  0  0
 10 28  1  0  0  0  0
 11 13  1  0  0  0  0
 11 20  2  0  0  0  0
 12 21  2  0  0  0  0
 12 22  1  0  0  0  0
 12 25  1  0  0  0  0
 13 23  1  0  0  0  0
 13 24  2  0  0  0  0
 14 15  1  0  0  0  0
 14 16  1  0  0  0  0
 15 16  1  0  0  0  0
 15 17  1  0  0  0  0
 16 25  1  0  0  0  0
 17 19  1  0  0  0  0
 17 21  1  0  0  0  0
 18 26  1  0  0  0  0
 19 26  1  0  0  0  0
  1 29  1  0  0  0  0
  2 30  1  0  0  0  0
  3 31  1  0  0  0  0
  4 32  1  0  0  0  0
  5 33  1  0  0  0  0
  6 34  1  0  0  0  0
 14 35  1  0  0  0  0
 14 36  1  0  0  0  0
 15 37  1  0  0  0  0
 16 38  1  0  0  0  0
 18 39  1  0  0  0  0
 18 40  1  0  0  0  0
 18 41  1  0  0  0  0
 19 42  1  0  0  0  0
 19 43  1  0  0  0  0
 21 44  1  0  0  0  0
 22 45  1  0  0  0  0
 22 46  1  0  0  0  0
 23 47  1  0  0  0  0
M  CHG  1  21   1
M  END
> <OMEGA_C>
99HAQOLXW7+YWLDBvubYQOgDvD0KALbB7ddBQECZmMDqvInBsyV4QM3BisC8+ZHBiDecQICOcT8B
DKfBcrX3P3V0JsBuUorB5I+zQAI89j/PrqzBYyajQJ2/1r6on6jBs4zTQLQYvD8nALTBd94CQGXm
eMDu44XBc+htQNQGQsDoIpbBvRffQDHvgkACwZvBBNOSQB4lIsBAwJ7BydmDQEcCn0BkB5zBnciH
QIRcZkC0jKHBxGiVQIKQcEAw1JXBm6qsQDHqWkD32KnBJui7QFjEiUDtacXB466fQB89iUA6jbPB
wYswQIuIDMAjPJLBUtbVQI0je0DW16XBTqkDQSvekkC1iZnBfoeKQFNkn7+KN6LBtQaxQA6wTMCu
D6LBYgvDQM+HdkAHbZPBk4PDQEcKk0BPVrrBc1rvQNYUFEBHwrjBJFF3PxJPjMBUZXfB0/rEQKDm
9L8U5bHBqbzvQJBccL6d77vBmVRIQMFUuMChaYbBBI+UQLi1n8C7GJXBekeEQJkGoT9iWKHBDAGX
P5lk9r+PV4fB62CZQO1SuUDZTp7BzyxIQBUCrEDiEprB895TQKg7Q0CSH6PBKDKAQLJLVECewo/B
S4DYQLv/kUB3HcrBMNy0QL74TkD8WsbBbIOgQA2znEA0RMjBfJyHQOueb0CARLjBw82RQPVep0Ap
nLDBvVTsQLDvhEAUOqvBxvIHQTu8mECn+JHBjvINQUiLmEDCf5/BE5BdQArvWr8WvZ/BAA/EQKIu
cb8c+q/BfTXdQKQ+Kr2s2LXBgKk6QIt2l8Af/YnBrxpyQOsuisA9JpLBruefQMjhbT9EeqfBim71
P2QzIcD8P4rBCPy3QBRm7T/Yea3BIwSmQCmv474kjajBXkDYQNhUrD/0dbTBrnj8PwCNdMCYAYbB
1Z5rQLDgP8A5GpbBxDzdQAQfcUAGgprBRr+SQOd6IcD3jZ7BvGSHQMLFn0DWSp7B4FmKQH9GaUBO
P6TB2tGPQI2ybEAOCJjBILGzQCGeVkC156rBvh/dQC4DxkCAtbDBygmxQHZ/h0AONrXBrIgwQERZ
CMCXGpLB2QzbQBubaUD16qTBXUwCQWykg0BIUJbBinWMQFp7nL/W+6HBV2qwQOEpTsDRt6HBC/e6
QHgCZ0AIo5PBiOayQBIHtUDnBrPB5Wv0QEXiCUBKhLnBKJtgP/97icA/vXfB86fHQNVqAMCJIbHB
w4z0QO751L5keLvBilc+QPyPt8D30YbBNJeQQKLyn8BnYJXBYCeIQBaDpT/C6qHBOmWYP93K6L8e
LIfBHPugQEyst0BgMp/BSMFQQPElsEAUjJ3BNpJYQK8qTkDBUqfBhFBqQAa7U0AlNZPB5cvaQDaa
6EBgL6/BUT7qQILytUBXmanBBljyQBxawEALlrfBnvPLQNsbfkC8ebrBz62SQPh/gECGTrnB8g/2
QApTcUDWGKnBvvYDQSLeh0BwbY7Bl+EOQbNwh0C2KZvBzG9jQC1jSL/VWZ/Btg29QGvrcr8bTrHB
hxXWQPjjrr2OiLfB8CRHQPY5lcCQ8ojBDC98QOPeh8CjWpHB+MCkQOu8cj8Qx6bBAj/0Pwz3I8Ae
iIrBcxC9QIzd6z8PBq3BksmkQE5Q2b6+yajBoeDWQNAGpj9kZ7XBQksFQOzIc8C4g4XBFOxtQAzA
PsByE5bBBXjXQNn5d0C8W5fBKKKSQAByH8Dgu57B0kuKQF8fpUA/L6HBbh2QQPVkbkAHgqXB2jCK
QI4bfkA7c5nB5A2+QLcpVEDSR6nBnvHBQA03m0A+FcTBSA/NQIrMikA9prHBbrstQLDhCsAXmJLB
oDPeQLBvVkCMw6DBe9f6QO5Xi0Ad9pHB3GuLQApZmL90GqLBH8iwQDWBSsAH/KHBc8OvQLUXfECI
jpLBGmiwQLU9iUD1irrBWUHxQFjrAkDffbvBrIGDP2MoicDWO3bBVGC8QMF1AMBPBbPBAfToQPvj
9774B77Bp71QQGj1s8CELoXBVJ6XQCk7nMBkL5TBs6KRQK7Tqj8OR6DB1cSOP8wn9L9W4ofBm2il
QBaSu0CvO6HBQPFYQNSwtkBkyKLBMxRqQMkcUkCN4anBLj5WQCDYa0BAAJbBA06qQHT5mEBGlMrB
rQzKQBACvUDJrsLB6ADfQKGEiUChVsbBLNzMQGEWq0AxJa7BXqftQFHTgkDVTrTB6e36QOvWPEDB
PaLBo4v3QGjQl0Deo4rBI+ALQdn9iUDyX5XBuIRhQEIPQb8MYp/BKKm/QKxvb7/yubDBse/WQMr+
hr3FT7fBYABEQJkHlsCFN4nBev95QDiJiMBNgpHBpQSjQHGueT/mEafBODDzP1LuI8CQiorB7zu5
QBSZ7z+FwK3BGxWmQLzKz74GdKjB3XnUQHW5qT/V1LXB2iEDQDujdMC1sIXBSLttQE8IP8BYBpbB
YefXQE9+aUB9aJjBQHSTQKc9H8DMdp7BqLOLQFZGpUA5gKDB6QKNQAmQcECym6XBxZeKQLHBekDP
XZnBI/K4QIHEVkBSiKrBO6v+QAY6uECvXq/BfLvBQHzgikCfBrTBOiAuQGOXCsBzgJLBFiHcQATC
WkB4p6LBVEP9QLdLdUAYrpLBDuGNQPs0lb/ucqHByJSwQHzuS8D37qHBdFexQELKbkDDF5PBZvPu
QLrRk0B7WLXBq0jtQK29BUBNNrzBd6p7P4WwicANvnbBAEvBQLUsAMDI+bHBJvHqQDas775GlL3B
CiJMQMAptcA6m4XBZyeWQKoyncAcaZTBkiaPQNPWrj95uqDBSc2OP8ol878y2YfBtFyoQNKzuUBH
paDBdOZdQMRMuUAUWKHB1xhgQANdWkDaxKnBgnNXQCtLa0CqmpXBpIsQQb1SvED55bDBw27tQAo2
1UCZ5LHBmWz5QOnUskDzxabB7Hq1QF0DeUDGc7vB3NmwQDIhqUDRd7LBCtH5QDhbUUA0ZqXBa/37
QEK1gEDO1IrBB8kMQU+3cUA/YpbBugdqQOtRMr9DF57B

> <OMEGA_E>
CoUxPzagFT8CGDo/nKY5Pw==

> <OMEGA_NBR>
     53251

$$$$
378132
  -OEChem-04172616093D

 45 47  0     1  0  0  0  0  0999 V2000
    5.5778   -0.9255  -22.0988 C   0  0  0  0  0  0  0  0  0  0  0  0
    6.2259   -0.0735  -23.0055 C   0  0  0  0  0  0  0  0  0  0  0  0
    3.3673   -4.8826  -17.0021 C   0  0  0  0  0  0  0  0  0  0  0  0
    4.2856   -4.1882  -17.8083 C   0  0  0  0  0  0  0  0  0  0  0  0
    4.9045    1.0093  -20.7822 C   0  0  0  0  0  0  0  0  0  0  0  0
    1.6496   -3.3303  -17.7363 C   0  0  0  0  0  0  0  0  0  0  0  0
    5.5718    1.8921  -21.6710 C   0  0  0  0  0  0  0  0  0  0  0  0
    4.9299   -0.3802  -20.9752 C   0  0  0  0  0  0  0  0  0  0  0  0
    2.0305   -4.4483  -16.9704 C   0  0  0  0  0  0  0  0  0  0  0  0
    6.2522    1.3181  -22.7899 C   0  0  0  0  0  0  0  0  0  0  0  0
    3.8396   -3.0730  -18.5605 C   0  0  0  0  0  0  0  0  0  0  0  0
    4.4322    3.9654  -19.2103 C   0  0  0  0  0  0  0  0  0  0  0  0
    4.7561   -2.3299  -19.4490 C   0  0  0  0  0  0  0  0  0  0  0  0
    6.9207    3.7025  -20.4928 C   0  0  0  0  0  0  0  0  0  0  0  0
    6.7266    3.2354  -19.0293 C   0  0  1  0  0  0  0  0  0  0  0  0
    5.6404    3.4098  -21.3215 C   0  0  1  0  0  0  0  0  0  0  0  0
    5.6444    4.3176  -22.5936 C   0  0  0  0  0  0  0  0  0  0  0  0
    7.9634    3.5758  -18.1688 C   0  0  0  0  0  0  0  0  0  0  0  0
    2.5419   -2.6689  -18.5052 N   0  0  0  0  0  0  0  0  0  0  0  0
    4.4275    3.7950  -20.5203 N   0  3  0  0  0  0  0  0  0  0  0  0
    3.2387    4.2754  -18.5760 N   0  0  0  0  0  0  0  0  0  0  0  0
    4.2563   -1.1796  -20.0595 N   0  0  0  0  0  0  0  0  0  0  0  0
    5.9278   -2.6747  -19.5790 O   0  0  0  0  0  0  0  0  0  0  0  0
    5.5659    3.8732  -18.4326 O   0  0  0  0  0  0  0  0  0  0  0  0
    1.1150   -5.0955  -16.2146 F   0  0  0  0  0  0  0  0  0  0  0  0
    6.9585    2.0557  -23.6719 F   0  0  0  0  0  0  0  0  0  0  0  0
    5.6178    5.6302  -22.2612 F   0  0  0  0  0  0  0  0  0  0  0  0
    9.0629    2.9496  -18.6656 F   0  0  0  0  0  0  0  0  0  0  0  0
    7.7564    3.1539  -16.8924 F   0  0  0  0  0  0  0  0  0  0  0  0
    8.1780    4.9202  -18.1558 F   0  0  0  0  0  0  0  0  0  0  0  0
    5.5762   -1.9930  -22.2622 H   0  0  0  0  0  0  0  0  0  0  0  0
    6.7095   -0.4887  -23.8774 H   0  0  0  0  0  0  0  0  0  0  0  0
    3.6828   -5.7343  -16.4177 H   0  0  0  0  0  0  0  0  0  0  0  0
    5.3184   -4.5006  -17.8539 H   0  0  0  0  0  0  0  0  0  0  0  0
    4.3656    1.4159  -19.9392 H   0  0  0  0  0  0  0  0  0  0  0  0
    0.6235   -2.9946  -17.7086 H   0  0  0  0  0  0  0  0  0  0  0  0
    7.1230    4.7837  -20.5057 H   0  0  0  0  0  0  0  0  0  0  0  0
    7.7718    3.1649  -20.9363 H   0  0  0  0  0  0  0  0  0  0  0  0
    6.5911    2.1438  -19.0280 H   0  0  0  0  0  0  0  0  0  0  0  0
    6.5548    4.1139  -23.1764 H   0  0  0  0  0  0  0  0  0  0  0  0
    4.7589    4.0843  -23.2032 H   0  0  0  0  0  0  0  0  0  0  0  0
    3.5654    3.9304  -21.0086 H   0  0  0  0  0  0  0  0  0  0  0  0
    3.2218    4.4234  -17.5872 H   0  0  0  0  0  0  0  0  0  0  0  0
    2.3950    4.3510  -19.1074 H   0  0  0  0  0  0  0  0  0  0  0  0
    3.3263   -0.9045  -19.8154 H   0  0  0  0  0  0  0  0  0  0  0  0
  1  2  1  0  0  0  0
  1  8  2  0  0  0  0
  2 10  2  0  0  0  0
  3  4  2  0  0  0  0
  3  9  1  0  0  0  0
  4 11  1  0  0  0  0
  5  7  2  0  0  0  0
  5  8  1  0  0  0  0
  6  9  2  0  0  0  0
  6 19  1  0  0  0  0
  7 10  1  0  0  0  0
  7 16  1  0  0  0  0
  8 22  1  0  0  0  0
  9 25  1  0  0  0  0
 10 26  1  0  0  0  0
 11 13  1  0  0  0  0
 11 19  2  0  0  0  0
 12 20  2  0  0  0  0
 12 21  1  0  0  0  0
 12 24  1  0  0  0  0
 13 22  1  0  0  0  0
 13 23  2  0  0  0  0
 14 15  1  0  0  0  0
 14 16  1  0  0  0  0
 15 18  1  0  0  0  0
 15 24  1  0  0  0  0
 16 17  1  0  0  0  0
 16 20  1  0  0  0  0
 17 27  1  0  0  0  0
 18 28  1  0  0  0  0
 18 29  1  0  0  0  0
 18 30  1  0  0  0  0
  1 31  1  0  0  0  0
  2 32  1  0  0  0  0
  3 33  1  0  0  0  0
  4 34  1  0  0  0  0
  5 35  1  0  0  0  0
  6 36  1  0  0  0  0
 14 37  1  0  0  0  0
 14 38  1  0  0  0  0
 15 39  1  0  0  0  0
 17 40  1  0  0  0  0
 17 41  1  0  0  0  0
 20 42  1  0  0  0  0
 21 43  1  0  0  0  0
 21 44  1  0  0  0  0
 22 45  1  0  0  0  0
M  CHG  1  20   1
M  END
> <OMEGA_C>
Yn2yQPvrbL9cyrDBxTrHQDSPlr1OC7jBUoJXQKY+nMBYBIjBaCOJQO8FhsBNd47B6fGcQDAwgT/o
QabB6SbTPw0jVcDu443BUEyyQEwx8j8vXq3B2cGdQD6rwr4ezafBUvQBQIJYjsBVw4fBthHIQOC1
qD+sUbbB8rt1QMirRMDoe5TBiNSNQC7JfUC5rpnBtTGYQLYcFcB9l5vBtnbdQAz2bEBR8aPBSEDX
QG0RT0AWPJjBYH60QDA6WkBnkqrBvJ60QLQpikDCv7TBLtT+QKLaZEDAWZHBLK8iQJTOKsC9CpTB
Fq6NQNLhckCCKaTBQkdPQAjQiEC0m5TBOzOIQCj+lr/FeaDBkbC9QFwuK8C+oZzBjhuyQMzid0Do
dZPBM7iOPzcOo8CSt4HBUKzeQJOQA0D9X73B4sSzQIgqtEDyFrLBngERQQjGPEA+U5XBZDT4QP/Y
SUCqI4fBQ9kCQXhynUAUP5HBAHCyQO4b/78IGbLB87PWQOo8+r7pBL/BNrNrQKN/t8CGV4PBQDCq
QDoFkMDO1I7BQLOLQBI7tT9og5/BY50fPwinP8A1q43B8+/jQOQTmUDBC6TBq7L4QA+OSkCOfafB
7+nSQGE0CUBnOZjBtMDRQNakg0BeabnBGkmYQDOygkAToLnBcC9kQIWLe0CUEajBeDFOQGmMjUCO
sozBhkcZQAI7i0AM3JjBfeJUQGOOZ78Ihp7B

> <OMEGA_E>
mGQQPw==

> <OMEGA_NBR>
     54309

$$$$
290121
  -OEChem-04172616093D

 53 57  0     1  0  0  0  0  0999 V2000
    6.0127   -0.9132  -22.0316 C   0  0  0  0  0  0  0  0  0  0  0  0
    6.7610   -0.0051  -22.7931 C   0  0  0  0  0  0  0  0  0  0  0  0
    4.9568    0.9401  -20.8661 C   0  0  0  0  0  0  0  0  0  0  0  0
    3.0003   -4.7387  -17.1494 C   0  0  0  0  0  0  0  0  0  0  0  0
    1.8432   -2.6162  -17.3518 C   0  0  0  0  0  0  0  0  0  0  0  0
    5.9548    8.7786  -23.7016 C   0  0  0  0  0  0  0  0  0  0  0  0
    4.4969    7.4208  -25.0759 C   0  0  0  0  0  0  0  0  0  0  0  0
    5.6869    1.8715  -21.6281 C   0  0  0  0  0  0  0  0  0  0  0  0
    5.1204   -0.4309  -21.0509 C   0  0  0  0  0  0  0  0  0  0  0  0
    6.6161    1.3787  -22.5956 C   0  0  0  0  0  0  0  0  0  0  0  0
    1.9686   -3.8783  -16.7456 C   0  0  0  0  0  0  0  0  0  0  0  0
    3.8774   -4.3215  -18.1612 C   0  0  0  0  0  0  0  0  0  0  0  0
    5.1609    8.6389  -24.8533 C   0  0  0  0  0  0  0  0  0  0  0  0
    3.7065   -3.0328  -18.7347 C   0  0  0  0  0  0  0  0  0  0  0  0
    5.4279    6.5886  -23.1035 C   0  0  0  0  0  0  0  0  0  0  0  0
    4.3396    3.9171  -19.1570 C   0  0  0  0  0  0  0  0  0  0  0  0
    4.5988   -2.5165  -19.7947 C   0  0  0  0  0  0  0  0  0  0  0  0
    6.6629    5.4845  -21.1914 C   0  0  0  0  0  0  0  0  0  0  0  0
    5.2072    4.1517  -22.5994 C   0  0  0  0  0  0  0  0  0  0  0  0
    7.1301    3.7373  -19.3645 C   0  0  0  0  0  0  0  0  0  0  0  0
    6.8110    4.0075  -20.8383 C   0  0  1  0  0  0  0  0  0  0  0  0
    5.5013    3.3663  -21.3331 C   0  0  2  0  0  0  0  0  0  0  0  0
    2.6997   -2.2160  -18.3147 N   0  0  0  0  0  0  0  0  0  0  0  0
    6.0733    7.7508  -22.8415 N   0  0  0  0  0  0  0  0  0  0  0  0
    4.6386    6.4143  -24.1949 N   0  0  0  0  0  0  0  0  0  0  0  0
    5.6236    5.5217  -22.2580 N   0  0  2  0  0  0  0  0  0  0  0  0
    4.3214    3.6165  -20.4341 N   0  3  0  0  0  0  0  0  0  0  0  0
    3.1216    3.9835  -18.5015 N   0  0  0  0  0  0  0  0  0  0  0  0
    4.3353   -1.2320  -20.2398 N   0  0  0  0  0  0  0  0  0  0  0  0
    5.5784   -3.1470  -20.1768 O   0  0  0  0  0  0  0  0  0  0  0  0
    7.3925    2.1960  -23.3447 F   0  0  0  0  0  0  0  0  0  0  0  0
    1.0958   -4.2625  -15.7896 F   0  0  0  0  0  0  0  0  0  0  0  0
    4.8495   -5.1702  -18.5721 F   0  0  0  0  0  0  0  0  0  0  0  0
    5.0347    9.6593  -25.7279 F   0  0  0  0  0  0  0  0  0  0  0  0
    5.7982    4.3006  -18.2545 S   0  0  0  0  0  0  0  0  0  0  0  0
    6.1185   -1.9756  -22.1946 H   0  0  0  0  0  0  0  0  0  0  0  0
    7.4535   -0.3712  -23.5366 H   0  0  0  0  0  0  0  0  0  0  0  0
    4.2567    1.2950  -20.1243 H   0  0  0  0  0  0  0  0  0  0  0  0
    3.1176   -5.7081  -16.6879 H   0  0  0  0  0  0  0  0  0  0  0  0
    1.0475   -1.9552  -17.0413 H   0  0  0  0  0  0  0  0  0  0  0  0
    6.4682    9.7087  -23.5076 H   0  0  0  0  0  0  0  0  0  0  0  0
    3.8758    7.2933  -25.9502 H   0  0  0  0  0  0  0  0  0  0  0  0
    6.3371    6.0615  -20.3134 H   0  0  0  0  0  0  0  0  0  0  0  0
    7.6148    5.8906  -21.5644 H   0  0  0  0  0  0  0  0  0  0  0  0
    5.7903    3.7632  -23.4474 H   0  0  0  0  0  0  0  0  0  0  0  0
    4.1354    4.1159  -22.8443 H   0  0  0  0  0  0  0  0  0  0  0  0
    7.2724    2.6553  -19.2259 H   0  0  0  0  0  0  0  0  0  0  0  0
    8.0580    4.2659  -19.1007 H   0  0  0  0  0  0  0  0  0  0  0  0
    7.6339    3.5966  -21.4417 H   0  0  0  0  0  0  0  0  0  0  0  0
    3.4189    3.5457  -20.8589 H   0  0  0  0  0  0  0  0  0  0  0  0
    3.0866    4.2449  -17.5369 H   0  0  0  0  0  0  0  0  0  0  0  0
    2.2771    3.7700  -18.9926 H   0  0  0  0  0  0  0  0  0  0  0  0
    3.4695   -0.8332  -19.9375 H   0  0  0  0  0  0  0  0  0  0  0  0
  1  2  1  0  0  0  0
  1  9  2  0  0  0  0
  2 10  2  0  0  0  0
  3  8  2  0  0  0  0
  3  9  1  0  0  0  0
  4 11  1  0  0  0  0
  4 12  2  0  0  0  0
  5 11  2  0  0  0  0
  5 23  1  0  0  0  0
  6 13  1  0  0  0  0
  6 24  2  0  0  0  0
  7 13  2  0  0  0  0
  7 25  1  0  0  0  0
  8 10  1  0  0  0  0
  8 22  1  0  0  0  0
  9 29  1  0  0  0  0
 10 31  1  0  0  0  0
 11 32  1  0  0  0  0
 12 14  1  0  0  0  0
 12 33  1  0  0  0  0
 13 34  1  0  0  0  0
 14 17  1  0  0  0  0
 14 23  2  0  0  0  0
 15 24  1  0  0  0  0
 15 25  2  0  0  0  0
 15 26  1  0  0  0  0
 16 27  2  0  0  0  0
 16 28  1  0  0  0  0
 16 35  1  0  0  0  0
 17 29  1  0  0  0  0
 17 30  2  0  0  0  0
 18 21  1  0  0  0  0
 18 26  1  0  0  0  0
 19 22  1  0  0  0  0
 19 26  1  0  0  0  0
 20 21  1  0  0  0  0
 20 35  1  0  0  0  0
 21 22  1  0  0  0  0
 22 27  1  0  0  0  0
  1 36  1  0  0  0  0
  2 37  1  0  0  0  0
  3 38  1  0  0  0  0
  4 39  1  0  0  0  0
  5 40  1  0  0  0  0
  6 41  1  0  0  0  0
  7 42  1  0  0  0  0
 18 43  1  0  0  0  0
 18 44  1  0  0  0  0
 19 45  1  0  0  0  0
 19 46  1  0  0  0  0
 20 47  1  0  0  0  0
 20 48  1  0  0  0  0
 21 49  1  0  0  0  0
 27 50  1  0  0  0  0
 28 51  1  0  0  0  0
 28 52  1  0  0  0  0
 29 53  1  0  0  0  0
M  CHG  1  27   1
M  END
> <OMEGA_C>
aWjAQLTJab/PQLDB61nYQMC9prs5WLbBYp6eQByscD/E7abB+QRAQJmjl8DhMYnBW+7rP15vJ8Bk
0IrBW42+QCh1DEHfnL3BnuaPQIN37UCAm8jBFPu1QAaO7z9yBq3BgNqjQLma3L40aKjB7bbTQJJ6
sD++w7TBtvn7P+I2eMAR94XBpiZ4QGxJisA3SpHBByalQPs4CkGP08bBjTZtQN4YQsDE4JXBk7Gt
QLjV0kD207jB4d2KQBOxekCUQZnBNymTQLUOIcCTW57BhTbVQGGBr0AOiKnBXKGmQFnahECNy7TB
ISrkQCkvb0CV6prBGfTZQFE9gEDDtKbBbQqwQFdxV0A9qqrBkccsQCrTDcB7hJLByFjCQFMG+EB0
u7bBCG+UQMZBzUA/j8HBT/SzQMmxsEBgELLBykiKQHd1Z0AfeaPBtchHQKfxfkD9ApTBwbqKQJSw
nb8r66HBi4KyQLlnScAOaqHBwY/sQGOLDEDawbrB3UOMP25miMBKonzBZS+bQDNypcCYk5TB8huh
QHuMGkHM0s3ByYq5QIKeiUAwCZLBCMvDQPjg/L+KjrHBK4PuQJ4Ovr7bSrzBSjeIQH7DpT96/qDB
eoZHQJqotsC4gIXBLhWGP8VD+r+TVIjBt/vOQO5WG0GiD7zBogx4QABj6UD/mc/BiMnKQBz4wUDb
gaLBKazzQHp/vEDpg6zBEEq5QJPYcEBGlLvBUFWEQFW1g0A3wbbB2bfoQCPxKUCnzpnBiu0AQUCC
iEAuzpjBzkj0QNcuZkCRiKvB5s5aQILsYkAf36bBropFQH7Wh0CES4zBarwRQG1IcUDs8JfBgQxe
QNNLVb/9f5/B

> <OMEGA_E>
oDEAPw==

> <OMEGA_NBR>
     55504

$$$$
450347
  -OEChem-04172616093D

 53 56  0     1  0  0  0  0  0999 V2000
    5.6041   -0.9331  -22.0820 C   0  0  0  0  0  0  0  0  0  0  0  0
    6.3092   -0.1297  -22.9847 C   0  0  0  0  0  0  0  0  0  0  0  0
    3.2757   -4.8295  -16.9756 C   0  0  0  0  0  0  0  0  0  0  0  0
    4.1288   -4.2959  -17.9553 C   0  0  0  0  0  0  0  0  0  0  0  0
    5.3578    0.9755  -20.5819 C   0  0  0  0  0  0  0  0  0  0  0  0
    1.6868   -3.0671  -17.4989 C   0  0  0  0  0  0  0  0  0  0  0  0
    6.0345    1.8173  -21.5042 C   0  0  0  0  0  0  0  0  0  0  0  0
    5.1578   -0.3944  -20.8564 C   0  0  0  0  0  0  0  0  0  0  0  0
    2.0362   -4.2072  -16.7482 C   0  0  0  0  0  0  0  0  0  0  0  0
    6.5549    1.2224  -22.6967 C   0  0  0  0  0  0  0  0  0  0  0  0
    3.7223   -3.1437  -18.6727 C   0  0  0  0  0  0  0  0  0  0  0  0
    4.3999    4.8538  -20.5103 C   0  0  0  0  0  0  0  0  0  0  0  0
    4.5998   -2.5397  -19.6883 C   0  0  0  0  0  0  0  0  0  0  0  0
    5.6670    6.2620  -23.6801 C   0  0  0  0  0  0  0  0  0  0  0  0
    6.8958    6.4842  -21.4646 C   0  0  0  0  0  0  0  0  0  0  0  0
    6.2973    4.1792  -22.4562 C   0  0  0  0  0  0  0  0  0  0  0  0
    5.1730    7.7278  -23.5832 C   0  0  0  0  0  0  0  0  0  0  0  0
    6.8954    7.9729  -21.8902 C   0  0  0  0  0  0  0  0  0  0  0  0
    6.2651    3.3159  -21.1525 C   0  0  2  0  0  0  0  0  0  0  0  0
    5.8502    5.6376  -22.2693 C   0  0  0  0  0  0  0  0  0  0  0  0
    7.5942    3.4119  -20.3551 C   0  0  0  0  0  0  0  0  0  0  0  0
    2.5221   -2.5550  -18.4305 N   0  0  0  0  0  0  0  0  0  0  0  0
    5.1665    3.8109  -20.2552 N   0  3  0  0  0  0  0  0  0  0  0  0
    3.3632    5.1445  -19.6381 N   0  0  0  0  0  0  0  0  0  0  0  0
    4.4703   -1.1640  -19.9141 N   0  0  0  0  0  0  0  0  0  0  0  0
    5.4569   -3.2240  -20.2403 O   0  0  0  0  0  0  0  0  0  0  0  0
    4.5591    5.6703  -21.6072 O   0  0  0  0  0  0  0  0  0  0  0  0
    5.5830    8.3643  -22.3440 O   0  0  0  0  0  0  0  0  0  0  0  0
    1.1845   -4.6953  -15.8184 F   0  0  0  0  0  0  0  0  0  0  0  0
    7.2960    1.9108  -23.5941 F   0  0  0  0  0  0  0  0  0  0  0  0
    5.4014   -1.9661  -22.3232 H   0  0  0  0  0  0  0  0  0  0  0  0
    6.6677   -0.5533  -23.9112 H   0  0  0  0  0  0  0  0  0  0  0  0
    3.5665   -5.7011  -16.4079 H   0  0  0  0  0  0  0  0  0  0  0  0
    5.0832   -4.7582  -18.1594 H   0  0  0  0  0  0  0  0  0  0  0  0
    4.9902    1.3906  -19.6551 H   0  0  0  0  0  0  0  0  0  0  0  0
    0.7321   -2.5925  -17.3264 H   0  0  0  0  0  0  0  0  0  0  0  0
    4.9285    5.6707  -24.2412 H   0  0  0  0  0  0  0  0  0  0  0  0
    6.6311    6.2423  -24.2093 H   0  0  0  0  0  0  0  0  0  0  0  0
    7.8985    6.0665  -21.6380 H   0  0  0  0  0  0  0  0  0  0  0  0
    6.6528    6.4220  -20.3936 H   0  0  0  0  0  0  0  0  0  0  0  0
    7.3283    4.1829  -22.8397 H   0  0  0  0  0  0  0  0  0  0  0  0
    5.6327    3.7087  -23.1957 H   0  0  0  0  0  0  0  0  0  0  0  0
    5.5871    8.2977  -24.4280 H   0  0  0  0  0  0  0  0  0  0  0  0
    4.0744    7.7358  -23.6389 H   0  0  0  0  0  0  0  0  0  0  0  0
    7.1828    8.5961  -21.0305 H   0  0  0  0  0  0  0  0  0  0  0  0
    7.6193    8.1172  -22.7058 H   0  0  0  0  0  0  0  0  0  0  0  0
    7.7881    4.4616  -20.0896 H   0  0  0  0  0  0  0  0  0  0  0  0
    7.5155    2.8103  -19.4375 H   0  0  0  0  0  0  0  0  0  0  0  0
    8.4208    3.0315  -20.9732 H   0  0  0  0  0  0  0  0  0  0  0  0
    5.0046    3.3138  -19.4028 H   0  0  0  0  0  0  0  0  0  0  0  0
    2.7631    5.9242  -19.8170 H   0  0  0  0  0  0  0  0  0  0  0  0
    3.2151    4.5747  -18.8298 H   0  0  0  0  0  0  0  0  0  0  0  0
    3.8132   -0.6786  -19.3374 H   0  0  0  0  0  0  0  0  0  0  0  0
  1  2  2  0  0  0  0
  1  8  1  0  0  0  0
  2 10  1  0  0  0  0
  3  4  2  0  0  0  0
  3  9  1  0  0  0  0
  4 11  1  0  0  0  0
  5  7  1  0  0  0  0
  5  8  2  0  0  0  0
  6  9  2  0  0  0  0
  6 22  1  0  0  0  0
  7 10  2  0  0  0  0
  7 19  1  0  0  0  0
  8 25  1  0  0  0  0
  9 29  1  0  0  0  0
 10 30  1  0  0  0  0
 11 13  1  0  0  0  0
 11 22  2  0  0  0  0
 12 23  2  0  0  0  0
 12 24  1  0  0  0  0
 12 27  1  0  0  0  0
 13 25  1  0  0  0  0
 13 26  2  0  0  0  0
 14 17  1  0  0  0  0
 14 20  1  0  0  0  0
 15 18  1  0  0  0  0
 15 20  1  0  0  0  0
 16 19  1  0  0  0  0
 16 20  1  0  0  0  0
 17 28  1  0  0  0  0
 18 28  1  0  0  0  0
 19 21  1  0  0  0  0
 19 23  1  0  0  0  0
 20 27  1  0  0  0  0
  1 31  1  0  0  0  0
  2 32  1  0  0  0  0
  3 33  1  0  0  0  0
  4 34  1  0  0  0  0
  5 35  1  0  0  0  0
  6 36  1  0  0  0  0
 14 37  1  0  0  0  0
 14 38  1  0  0  0  0
 15 39  1  0  0  0  0
 15 40  1  0  0  0  0
 16 41  1  0  0  0  0
 16 42  1  0  0  0  0
 17 43  1  0  0  0  0
 17 44  1  0  0  0  0
 18 45  1  0  0  0  0
 18 46  1  0  0  0  0
 21 47  1  0  0  0  0
 21 48  1  0  0  0  0
 21 49  1  0  0  0  0
 23 50  1  0  0  0  0
 24 51  1  0  0  0  0
 24 52  1  0  0  0  0
 25 53  1  0  0  0  0
M  CHG  1  23   1
M  END
> <OMEGA_C>
DVWzQALibr/dp7DBCuXJQB3WBL6e4LfB06VRQGCLmsDzzYfBzB6EQMd3icBipI/BEnOrQGi8eT/A
p6TBJ+rXP01LRMCq/YvBSRrBQMyd6D+oCKzBSwylQJXryb4A2qbB3FACQA2hhsBf/IXB08HRQHl4
nD/GkrXB7TluQLIyScCjYZXBScyMQDRSm0AWFaTBvTGTQEOKIsCigZ3B31e1QI1iyEC/cL3BBKrc
QL9+z0CJt6vBr4PJQNO7hUA1prPBLomlQItK90BfqrzBYafcQGEi/0AnH6/Bm3vIQLg3VEA+OKnB
yDS7QAJntECWJ7LBtQPzQPtcWkA516LBd2khQBGFI8CwcZPBMVSlQN3lc0CwCqLB+j5XQL2fpEDp
Gp3BfwyPQJv+lL8nUJ/BuZ6uQA1WTsA07KHBv+ORQOlytUCI26zBQaiyQE/UBUF8wLLBPZ+XP4A/
lsBOGH3BDHnpQNqT9D+/wLzBMtisQL2q+7/dlbLBgV3VQHalDb8vSr/BG0JkQDVvtsBpQ4PBnqmi
QFZDmMBuRpHB0a+fQEL+sT+YPZ3BfG07P7/rJcCInIrBHLadQDh2tUAO7sHBzjHUQE/Bx0CsrMHB
TcD8QOMgwkCwGq3B9ePUQBSBzUAOJqPBT4HqQHXahUC1t7bBAT+0QL5abUC6kLnBjcmyQJDDBEGU
bMPBxWGCQOiL90BpHL3BYdnlQIiJCUFsPqjB9NDzQCLgAUGTpbXBODj5QNPFjkCFt6DBr37wQGvc
M0AZgJvBcrsGQZADQkAYyafB4yWgQFMVVEDdOJvBj9YwQKaSvUA8iZ7B9sRNQJJjkkCCo5bBlwt0
QJW2Lb8Ms5rB

> <OMEGA_E>
9HdcPw==

> <OMEGA_NBR>
     56688

$$$$
450350
  -OEChem-04172616093D

 55 58  0     1  0  0  0  0  0999 V2000
    6.1263   -0.8884  -21.8942 C   0  0  0  0  0  0  0  0  0  0  0  0
    6.8509    0.0186  -22.6814 C   0  0  0  0  0  0  0  0  0  0  0  0
    2.9040   -4.9035  -17.3520 C   0  0  0  0  0  0  0  0  0  0  0  0
    3.7792   -4.4246  -18.3359 C   0  0  0  0  0  0  0  0  0  0  0  0
    4.9330    0.9609  -20.8637 C   0  0  0  0  0  0  0  0  0  0  0  0
    1.8783   -2.7021  -17.2844 C   0  0  0  0  0  0  0  0  0  0  0  0
    5.6341    1.8823  -21.6663 C   0  0  0  0  0  0  0  0  0  0  0  0
    5.1783   -0.4090  -20.9606 C   0  0  0  0  0  0  0  0  0  0  0  0
    1.9420   -4.0297  -16.8206 C   0  0  0  0  0  0  0  0  0  0  0  0
    6.6283    1.3983  -22.5587 C   0  0  0  0  0  0  0  0  0  0  0  0
    3.6714   -3.0797  -18.7595 C   0  0  0  0  0  0  0  0  0  0  0  0
    4.3603    4.0041  -19.2504 C   0  0  0  0  0  0  0  0  0  0  0  0
    4.5858   -2.5407  -19.7762 C   0  0  0  0  0  0  0  0  0  0  0  0
    6.5808    6.0437  -20.1248 C   0  0  0  0  0  0  0  0  0  0  0  0
    7.9146    4.5846  -18.5222 C   0  0  0  0  0  0  0  0  0  0  0  0
    6.5254    7.1586  -19.0870 C   0  0  0  0  0  0  0  0  0  0  0  0
    7.8411    5.6828  -17.4530 C   0  0  0  0  0  0  0  0  0  0  0  0
    6.8515    3.5771  -20.4973 C   0  0  0  0  0  0  0  0  0  0  0  0
    5.5562    3.3624  -21.3254 C   0  0  1  0  0  0  0  0  0  0  0  0
    6.6812    4.6519  -19.4437 C   0  0  0  0  0  0  0  0  0  0  0  0
    7.7096    7.0791  -18.1036 C   0  0  0  0  0  0  0  0  0  0  0  0
    5.4807    4.2358  -22.6149 C   0  0  0  0  0  0  0  0  0  0  0  0
    2.7296   -2.2514  -18.2305 N   0  0  0  0  0  0  0  0  0  0  0  0
    4.3255    3.6750  -20.5232 N   0  3  0  0  0  0  0  0  0  0  0  0
    3.1887    3.9481  -18.5112 N   0  0  0  0  0  0  0  0  0  0  0  0
    4.4336   -1.2004  -20.0963 N   0  0  0  0  0  0  0  0  0  0  0  0
    5.4639   -3.2461  -20.2597 O   0  0  0  0  0  0  0  0  0  0  0  0
    5.5156    4.3785  -18.6101 O   0  0  0  0  0  0  0  0  0  0  0  0
    1.0832   -4.4587  -15.8712 F   0  0  0  0  0  0  0  0  0  0  0  0
    7.4258    2.2398  -23.2572 F   0  0  0  0  0  0  0  0  0  0  0  0
    7.5001    7.9966  -17.1274 F   0  0  0  0  0  0  0  0  0  0  0  0
    8.8652    7.3746  -18.7606 F   0  0  0  0  0  0  0  0  0  0  0  0
    6.2919   -1.9502  -22.0007 H   0  0  0  0  0  0  0  0  0  0  0  0
    7.5837   -0.3470  -23.3855 H   0  0  0  0  0  0  0  0  0  0  0  0
    2.9681   -5.9255  -17.0088 H   0  0  0  0  0  0  0  0  0  0  0  0
    4.5270   -5.0747  -18.7656 H   0  0  0  0  0  0  0  0  0  0  0  0
    4.1944    1.3206  -20.1627 H   0  0  0  0  0  0  0  0  0  0  0  0
    1.1356   -2.0325  -16.8764 H   0  0  0  0  0  0  0  0  0  0  0  0
    5.6687    6.0784  -20.7387 H   0  0  0  0  0  0  0  0  0  0  0  0
    7.4610    6.1939  -20.7672 H   0  0  0  0  0  0  0  0  0  0  0  0
    8.8250    4.7240  -19.1236 H   0  0  0  0  0  0  0  0  0  0  0  0
    7.9470    3.6011  -18.0305 H   0  0  0  0  0  0  0  0  0  0  0  0
    6.5555    8.1291  -19.6039 H   0  0  0  0  0  0  0  0  0  0  0  0
    5.5857    7.0734  -18.5215 H   0  0  0  0  0  0  0  0  0  0  0  0
    6.9671    5.5014  -16.8101 H   0  0  0  0  0  0  0  0  0  0  0  0
    8.7566    5.6542  -16.8439 H   0  0  0  0  0  0  0  0  0  0  0  0
    7.1159    2.6320  -20.0005 H   0  0  0  0  0  0  0  0  0  0  0  0
    7.6631    3.8730  -21.1782 H   0  0  0  0  0  0  0  0  0  0  0  0
    5.4254    5.2984  -22.3360 H   0  0  0  0  0  0  0  0  0  0  0  0
    6.3782    4.0638  -23.2272 H   0  0  0  0  0  0  0  0  0  0  0  0
    4.5852    3.9612  -23.1917 H   0  0  0  0  0  0  0  0  0  0  0  0
    3.4365    3.6309  -20.9791 H   0  0  0  0  0  0  0  0  0  0  0  0
    3.2001    4.1773  -17.5379 H   0  0  0  0  0  0  0  0  0  0  0  0
    2.3322    3.6786  -18.9514 H   0  0  0  0  0  0  0  0  0  0  0  0
    3.6765   -0.7354  -19.6373 H   0  0  0  0  0  0  0  0  0  0  0  0
  1  2  2  0  0  0  0
  1  8  1  0  0  0  0
  2 10  1  0  0  0  0
  3  4  2  0  0  0  0
  3  9  1  0  0  0  0
  4 11  1  0  0  0  0
  5  7  1  0  0  0  0
  5  8  2  0  0  0  0
  6  9  2  0  0  0  0
  6 23  1  0  0  0  0
  7 10  2  0  0  0  0
  7 19  1  0  0  0  0
  8 26  1  0  0  0  0
  9 29  1  0  0  0  0
 10 30  1  0  0  0  0
 11 13  1  0  0  0  0
 11 23  2  0  0  0  0
 12 24  2  0  0  0  0
 12 25  1  0  0  0  0
 12 28  1  0  0  0  0
 13 26  1  0  0  0  0
 13 27  2  0  0  0  0
 14 16  1  0  0  0  0
 14 20  1  0  0  0  0
 15 17  1  0  0  0  0
 15 20  1  0  0  0  0
 16 21  1  0  0  0  0
 17 21  1  0  0  0  0
 18 19  1  0  0  0  0
 18 20  1  0  0  0  0
 19 22  1  0  0  0  0
 19 24  1  0  0  0  0
 20 28  1  0  0  0  0
 21 31  1  0  0  0  0
 21 32  1  0  0  0  0
  1 33  1  0  0  0  0
  2 34  1  0  0  0  0
  3 35  1  0  0  0  0
  4 36  1  0  0  0  0
  5 37  1  0  0  0  0
  6 38  1  0  0  0  0
 14 39  1  0  0  0  0
 14 40  1  0  0  0  0
 15 41  1  0  0  0  0
 15 42  1  0  0  0  0
 16 43  1  0  0  0  0
 16 44  1  0  0  0  0
 17 45  1  0  0  0  0
 17 46  1  0  0  0  0
 18 47  1  0  0  0  0
 18 48  1  0  0  0  0
 22 49  1  0  0  0  0
 22 50  1  0  0  0  0
 22 51  1  0  0  0  0
 24 52  1  0  0  0  0
 25 53  1  0  0  0  0
 25 54  1  0  0  0  0
 26 55  1  0  0  0  0
M  CHG  1  24   1
M  END
> <OMEGA_C>
dgrEQAVrY79FJ6/BVjrbQOBkmDyJc7XBkdo5QKLpnMDX0IrBld5xQJ6WjcD5r5LBgtudQEv9dT/o
6KbBFmzwP7zuLMCBRorB8kq0QJrv8D+cVK3BPrSlQNJt0b5Mr6fB3JL4P1nzgMCUkIbB+BrUQN75
sj9DeLTBHPhqQI4ZRcB5E5bBSIeLQGEhgEC8AJrBBL+SQB6bIsCjNZ7BsJXSQJllwUCq/6DBWET9
QBO1kkBeLZTB3M/QQHcT5UAhspjB6un6QJTZtUDJn4vBdj/bQM3vZEBo+qPBnsyxQEIyV0BqmqrB
vMzVQKTclEDGjJvB0LT2QLWH4kAq1JDB1mGvQASMh0BZ67TBa7IuQIQXEMAY2JHBKmqKQPkza0CQ
L6TBMxNMQHGufEDyFpTBROCNQKanmb8hxaDB7teuQKm/T8DEE6LBbH+wQFkcjEB04ZTBhKaKP42t
jsCQ8H3BKqDtQB9YD0C9DrrBFgHwQIrk/0DlBInB0tcNQRT960C3FZbBhVfJQIKh+b9xAbDB363y
QFSlsb5uFbvBGPY9QP2dvcAIEojBMd2QQDNkosDdH5bBljiGQPQIqT80TaHBT1yRP68TAsDzAofB
3mW1QCmCwkD16KXBzsDuQEU0xkAgI6bBQzMNQUUrl0AN/ZjBhU3+QMR4ZkB7PpDBcMbRQNUQAkHh
1JzB972yQBpZ4kAaLJTBmvLeQMcLsEAbe4bB9BoMQR/vtEBewIbBarXjQC5yKEAUAaDBajj1QN3f
d0D6bKnBIJ2tQOeMqUASsLLBGRrMQMsKgkBY0bnBxrmSQOqEfUCKiLnBqO9bQOJfaEAm1afBzs5M
QJ+shUCXTYzBH0IVQLZua0BqnJfBikxrQGNGPL85GZ3BBOLJQOYhWr8gj63Ba5vgQADqiz1e1LPB
OfYzQCJJn8AEiovBMOduQB9Sj8CD/ZLBF8KeQPaadz+edqbBIyfjPzQJMsCFH4vBUVG0QLty9D9M
/KzBhBupQNyiyr6MrqbBFQ/pPya+g8BNj4fBZlbWQG//tz+rk7PBpC9pQEMOSMCAO5bBNqaMQOBs
hEAaI5vB1YqTQGRDJMCg6Z3BW5D3QBQAtEDgQZ7BlTrrQKx2SEBEP5zB3mMBQVbRuEBvPZLBB9oG
QWS/UEClp5PBcgvJQNOGjkBadqvBITulQGBcWUCmC63BNsHWQC/2j0C7v5/BQLoBQUxCjUDED4zB
NzqQQMD9a0Ai67fBMg8rQF7eE8AORJLBYtmDQNzhZ0D3k6TBcmNeQFpGgEDX5ZLBDDqQQFeFmr+c
FaDBtkOvQJT8UcCL16HBy7CxQNWYmkBpKZnBZNFrP1cSksA7V4DBK+TtQKhFEUDXt7nBwSjdQBRp
hUAuLYfBxRcRQcaAjkDOcYTBeGXRQBbU87/f+63B20b6QIIxjr7C6LjBCkk3QK4pwMCR6IjBJhOQ
QIDWo8DqOJbBna2FQCJ4pz+yLqHBFPeAP+vZB8CuF4jBhwDqQLs40kD1O6HBIGIKQfNPrEBvx6LB
Xqv5QOdrKkD4VqPBXaDRQB0YH0CtIJnBBE4RQSCfx0DAlpHBTtLqQL3KzUA3fY7B264HQW3KFEDF
D4/BbmAWQZzQXEAXhJfBwsDkQF8FhkCqdLDBefa8QAEtrkA12q3BJVSFQHB0l0AgIrjBMqWnQD8/
YUCLWb7BNlppQFEhQUBWDrnB7B5LQOnBV0CyMKbB2X9qQCVIjUA6v4vB49AnQGqNYEAgHJTBzotw
QM4XPb+7VJzB/SvHQJ+fcL8Raa7BLd/dQEDHPbwblrTBZDU4QGQKncC6qIrBruZ0QEuhjcCx8ZHB
xvibQAdxWz9q+KbBgQ3cP5jOMcC3C4zB5RyyQCAg5j8rKa3BbzymQCJF/L43jKfBmWnnP3xmgsBU
vIfBS3nTQPLjrD82FbTBRnlrQM2vR8DFEZbB89eNQBf1hkBaC5vB7I2UQBqyJcCdzZ3Bb0arQJ5f
yUCQHqvBw8j0QHAEvEAuJqLBEE6sQLbo9kBJ36bBaSb0QNeB6kA0aZ7BxdrOQHE1gUBJY6rBQzSl
QB3EUEBMiazBCELHQBlKqkC+RqTBt5naQLhXA0HCRKbB/9mPQBr8Z0BPZ7fBsBMpQH3AFMDZBZPB
kUmFQI7YYEATs6PBHIthQHH7hUBTqZLBDc+MQI0kp78EVKHBvFS0QHPKTsAuY6DBQcWxQHSboEAf
NZrBEnJcPzijkMAx64DBA7fpQMiqDEA2b7rBc47aQNHHF0EGrqLBNaXsQMq/AkEQOLDBPc3OQLXr
/r9C5K7B6XD3QOUHsb5wv7nBGPg9QDvVvMBBWYfBrRGVQDZrocAJX5TBJ62CQHadlz+TsqHBOVdm
P3bDCMAhu4nBiv6JQBDqvUAeCavBdFy3QP1YyUBoYrPBMLsDQZL3uUAml6nBdw4CQQNbqEDV75vB
rvCZQKHqBUHUQazBVP+dQL6190Ce1Z7BeyrlQLQx7ECSdZbBGpoKQZNz9kA17J3Ba4TkQM+EWUA9
s6XBu+PdQEsMiUB+GbLB4fiFQGnGlUDaTLfBU96mQMikXUBT773BjT1nQD4nP0DGqLjBqfNPQNbi
R0AHdKTB9ddrQB2tl0AFH4zBI1QtQJwrZ0CaKJPBiLdhQK4Lab9ADp/B7OrCQGE7ab+pSq/B9cbZ
QAAmIrvEpLXBqNLjP/pqNMDV8onBmr4nQPJzE8Ba35HBEamcQMy1bz9wAqfBwIpCQIyPnMAF54rB
ucmyQP/77T/4ea3BUcCkQLK73b4yy6fB3pX/P84hhMBTY4bBgXDSQNcvsD/1rLTBepdqQAQ2R8Al
EpbBFxqMQGMegUAx+5nBhMiSQJaqI8BoG57BH5TTQAAEwUAPvKHB09v+QEcckkCzFJXBbALUQJ5B
5UD0kJnBcZ/+QHvFtUCYrIzBI3jaQLKAY0DhbKTB316wQCTJVUAnwKrBDn7WQBTJlECSIpzBq+76
QOst4kBVBpLB2NOsQJyrhkDpEbXBNTp2QE5KjMAQkpLBQM2JQEQOakC+C6TBJFNOQMa2gEAR1pPB
8O2MQHZ2nb9P9aDBhp2wQAQLT8AQdKHBAbyxQDpTjUCILpXBqAubPxHdlMAWVX3BKrrrQDQLDkC8
ULrBsxf2QGcNAEEJRIrB2rUPQf5a6kC8n5fBy1rIQN95/L/xILDBTyTxQP9Ju77HTrvBEyt7Px0d
DsDnpYbBlJkeQIMQpr+qyZTBBhyFQAR/pT/AXaHBxZtMQMn3vMBZLYjB0rC1QE6VwkDeXabBIwvv
QOLBxECbKKfBwrYNQXp9lUDZJprBc53/QETDZUBgBpHByjnVQMQAAkGf1p3BKYy2QGqo40BtxJTB
xzjjQDoSsUDURofBdUMOQdlZtEC1C4jBJO7iQPpjJ0DWXKDBEf3zQG/gdECFFarBKSOrQOayqEDJ
27LBrhTJQOo1gUBeI7rBh8OPQO1le0C7f7nBCcBZQLjnZEDbZ6fBkL5QQPQpiUBHIIzBGKAWQL7x
b0BcHZfBkn1nQI3sR79Fk53BiSzJQK00Wb99fa3BTNbfQGjhjD1Qy7PBdoTXP3GFNsDPoIrB5skj
QBw7FcDTS5LBelyeQB8Gej8YWqbB/Dk5QMp4nsAnzYvBJtqzQLRL9T9X76zBg6moQP40x77kkKbB
fD/uP3ukhcAARYfBgbnVQPwnuD92irPBAG5mQPFwScBncJbBjK6MQDY5hEC1MJvBQp+SQECNJMA7
9J3BZ9L2QIR5tUCHqp7BOnjrQF4+S0CQaZzBoUMBQYEQu0AYtZLBFgoHQZIpVUCv3pPB9WfIQCfw
jkB6qavBLLOkQELPWUB8Ia3BKmDWQLf0kEA8+Z/BJeUBQSHgj0DlYozBG6KPQFKqa0ATBrjBIBdv
QNwFjsD2OJPBdmqDQPLoaEAcraTBgYRgQM55fECDy5LBFcSPQOxGmr+fBKDBmiyvQAbMUcAWmKHB
Y1WxQLI3m0CmVJnBDmuGPylelsBrbH/BciztQKoOEUAWvrnBfr3dQK8ViEDUYYfB9mERQZfTkUDT
1oTBEo3QQKF587+I7a3Bklz5QFeSj77V57jBYmFjP++5D8AmXofBzW0cQIBJqL8JDpXB0W6FQMEP
qT/kCaHBYApBQA5Rv8AJTInB5sLoQCFh00CcsqHBtPUJQXfrrUBtPqPBjvb5QKkWLUCefaPBXzbS
QHNqIUCpNpnBQSMRQYghykB+MpLBqJXqQHoT0ECz9o7BigUIQUDLGUB8Ko/BtYAWQT0uYUBxy5fB
dQ3kQCxWhkCjqrDB8ya8QGVwrkBpHq7BKruEQDxIl0B1T7jBZAWnQHF2YEAbc77BCChoQJC4QEDf
GrnBFOZJQKJoWkDdUabBDm1tQEiRikBUl4vBr6MqQFUwW0C98pPB7BZwQLcvPL+tL5zB

> <OMEGA_E>
KCn4Pnw5Cz90+Bc/eMEdP1RjLD8=

> <OMEGA_NBR>
     61553

$$$$
450354
  -OEChem-04172616093D

 49 52  0     1  0  0  0  0  0999 V2000
    5.8262   -0.9660  -22.0825 C   0  0  0  0  0  0  0  0  0  0  0  0
    6.6401   -0.0569  -22.7691 C   0  0  0  0  0  0  0  0  0  0  0  0
    3.1169   -4.9406  -17.2027 C   0  0  0  0  0  0  0  0  0  0  0  0
    3.9225   -4.4757  -18.2504 C   0  0  0  0  0  0  0  0  0  0  0  0
    5.1721    0.7884  -20.5284 C   0  0  0  0  0  0  0  0  0  0  0  0
    1.9235   -2.8245  -17.2619 C   0  0  0  0  0  0  0  0  0  0  0  0
    6.0066    1.7088  -21.1821 C   0  0  0  0  0  0  0  0  0  0  0  0
    5.0973   -0.5315  -20.9585 C   0  0  0  0  0  0  0  0  0  0  0  0
    2.1045   -4.1038  -16.7051 C   0  0  0  0  0  0  0  0  0  0  0  0
    6.7438    1.2722  -22.3273 C   0  0  0  0  0  0  0  0  0  0  0  0
    3.6912   -3.1831  -18.7706 C   0  0  0  0  0  0  0  0  0  0  0  0
    4.1600    4.3301  -19.6756 C   0  0  0  0  0  0  0  0  0  0  0  0
    4.5270   -2.6500  -19.8501 C   0  0  0  0  0  0  0  0  0  0  0  0
    6.9304    6.8193  -22.0272 C   0  0  0  0  0  0  0  0  0  0  0  0
    6.5002    6.3775  -20.6182 C   0  0  0  0  0  0  0  0  0  0  0  0
    5.4907    6.4616  -22.4717 C   0  0  0  0  0  0  0  0  0  0  0  0
    6.0003    4.0972  -21.7871 C   0  0  0  0  0  0  0  0  0  0  0  0
    6.1367    3.1205  -20.6067 C   0  0  2  0  0  0  0  0  0  0  0  0
    5.4830    5.4459  -21.3214 C   0  0  0  0  0  0  0  0  0  0  0  0
    7.5029    3.2297  -19.8799 C   0  0  0  0  0  0  0  0  0  0  0  0
    2.7062   -2.3881  -18.2695 N   0  0  0  0  0  0  0  0  0  0  0  0
    5.0784    3.3937  -19.5710 N   0  3  0  0  0  0  0  0  0  0  0  0
    3.1164    4.3218  -18.7622 N   0  0  0  0  0  0  0  0  0  0  0  0
    4.2667   -1.3470  -20.2262 N   0  0  0  0  0  0  0  0  0  0  0  0
    5.4814   -3.2852  -20.2878 O   0  0  0  0  0  0  0  0  0  0  0  0
    4.2142    5.3272  -20.6302 O   0  0  0  0  0  0  0  0  0  0  0  0
    1.3074   -4.5234  -15.7001 F   0  0  0  0  0  0  0  0  0  0  0  0
    7.5636    2.0912  -23.0243 F   0  0  0  0  0  0  0  0  0  0  0  0
    5.7579   -1.9922  -22.4122 H   0  0  0  0  0  0  0  0  0  0  0  0
    7.1900   -0.3787  -23.6411 H   0  0  0  0  0  0  0  0  0  0  0  0
    3.2716   -5.9246  -16.7853 H   0  0  0  0  0  0  0  0  0  0  0  0
    4.7087   -5.0964  -18.6542 H   0  0  0  0  0  0  0  0  0  0  0  0
    4.5820    1.1091  -19.6825 H   0  0  0  0  0  0  0  0  0  0  0  0
    1.1457   -2.1820  -16.8764 H   0  0  0  0  0  0  0  0  0  0  0  0
    7.1924    7.8838  -22.1189 H   0  0  0  0  0  0  0  0  0  0  0  0
    7.7217    6.2064  -22.4833 H   0  0  0  0  0  0  0  0  0  0  0  0
    7.2782    5.8588  -20.0388 H   0  0  0  0  0  0  0  0  0  0  0  0
    6.0515    7.1705  -20.0020 H   0  0  0  0  0  0  0  0  0  0  0  0
    4.7603    7.2780  -22.3719 H   0  0  0  0  0  0  0  0  0  0  0  0
    5.4137    6.0215  -23.4769 H   0  0  0  0  0  0  0  0  0  0  0  0
    6.9855    4.2329  -22.2573 H   0  0  0  0  0  0  0  0  0  0  0  0
    5.2980    3.6771  -22.5222 H   0  0  0  0  0  0  0  0  0  0  0  0
    7.6151    4.2397  -19.4587 H   0  0  0  0  0  0  0  0  0  0  0  0
    7.5473    2.4875  -19.0693 H   0  0  0  0  0  0  0  0  0  0  0  0
    8.3155    3.0392  -20.5964 H   0  0  0  0  0  0  0  0  0  0  0  0
    5.0733    2.8253  -18.7482 H   0  0  0  0  0  0  0  0  0  0  0  0
    2.4138    5.0325  -18.7993 H   0  0  0  0  0  0  0  0  0  0  0  0
    3.0664    3.6051  -18.0666 H   0  0  0  0  0  0  0  0  0  0  0  0
    3.3909   -0.9595  -19.9387 H   0  0  0  0  0  0  0  0  0  0  0  0
  1  2  2  0  0  0  0
  1  8  1  0  0  0  0
  2 10  1  0  0  0  0
  3  4  2  0  0  0  0
  3  9  1  0  0  0  0
  4 11  1  0  0  0  0
  5  7  1  0  0  0  0
  5  8  2  0  0  0  0
  6  9  2  0  0  0  0
  6 21  1  0  0  0  0
  7 10  2  0  0  0  0
  7 18  1  0  0  0  0
  8 24  1  0  0  0  0
  9 27  1  0  0  0  0
 10 28  1  0  0  0  0
 11 13  1  0  0  0  0
 11 21  2  0  0  0  0
 12 22  2  0  0  0  0
 12 23  1  0  0  0  0
 12 26  1  0  0  0  0
 13 24  1  0  0  0  0
 13 25  2  0  0  0  0
 14 15  1  0  0  0  0
 14 16  1  0  0  0  0
 15 19  1  0  0  0  0
 16 19  1  0  0  0  0
 17 18  1  0  0  0  0
 17 19  1  0  0  0  0
 18 20  1  0  0  0  0
 18 22  1  0  0  0  0
 19 26  1  0  0  0  0
  1 29  1  0  0  0  0
  2 30  1  0  0  0  0
  3 31  1  0  0  0  0
  4 32  1  0  0  0  0
  5 33  1  0  0  0  0
  6 34  1  0  0  0  0
 14 35  1  0  0  0  0
 14 36  1  0  0  0  0
 15 37  1  0  0  0  0
 15 38  1  0  0  0  0
 16 39  1  0  0  0  0
 16 40  1  0  0  0  0
 17 41  1  0  0  0  0
 17 42  1  0  0  0  0
 20 43  1  0  0  0  0
 20 44  1  0  0  0  0
 20 45  1  0  0  0  0
 22 46  1  0  0  0  0
 23 47  1  0  0  0  0
 23 48  1  0  0  0  0
 24 49  1  0  0  0  0
M  CHG  1  22   1
M  END
> <OMEGA_C>
RXC6QAROd7/4qLDB9nvUQMD5aL0IJ7bB2HtHQJoZnsAln4nBRgp7QMQ4j8DSAJLBe4GlQL7XST8R
OqTB0jT2P9XDNMBqGIrBJjbAQOi62j8BdanBZx2jQDkTCL/vqqfBMLAGQDRSg8D8o4XBf83XQNbX
oj9UnrLBlDxsQES4S8BJKpbBwR6FQDiQikC3Z53BC92QQOyZKcD6zJ7B/sXdQBg42kCnN7DB+QHQ
QF0UzEAg8qTBLLSvQE3FzkATxrPBkQLAQKUcg0AVTK7BB2DEQJy2R0CF2qTBVHSvQLdErkAykqrB
IBjwQCC0TkATCp/BxDEtQOnWGMDyJ5LBoYKiQDIzWUBUkZzBwnJHQBZMikAPGZbBIImIQAlqrL8/
z6HB4GevQEZBUsBtTaLBEduGQFZ4qkCsCqXBYVinP32/kMCkM3vBSwnyQNrVBUC7MbjBaUC4QFIA
/78/TLPBNBTmQOrlwb4JIb3Be2FRQG2WvcA7SIbBYa2WQJMVo8DbO5XBo5+SQMn3jT/cdZ3B5KSS
P8qlC8DdAofB8yfmQLtH/EB/87DBexj3QIyaxkDW3bPBIefoQFV7u0B5T6DBMqbBQNV05UAHBKDB
R1SYQBPl6ECu+bLBLz2tQBqwwECw0LvBOYnfQAp0h0DcDrLBj4mpQBVVa0BrLbTBla7zQIGrh0Bd
q5vBPoPxQBozH0DujZjBcQwFQbWBQkB4xaTBl1iiQF/SNEBh/JXBR3waQPIJoUDmZJbBnkBEQDS6
ZkBuiJDBxQNZQFuhdb9fgp/B

> <OMEGA_E>
BJgbPw==

> <OMEGA_NBR>
     62673

$$$$
450352
  -OEChem-04172616093D

 49 52  0     1  0  0  0  0  0999 V2000
    6.1599   -0.9309  -21.9272 C   0  0  0  0  0  0  0  0  0  0  0  0
    6.8566   -0.0057  -22.7210 C   0  0  0  0  0  0  0  0  0  0  0  0
    2.9047   -4.7817  -17.2381 C   0  0  0  0  0  0  0  0  0  0  0  0
    3.8291   -4.3481  -18.1987 C   0  0  0  0  0  0  0  0  0  0  0  0
    4.8917    0.8893  -20.9332 C   0  0  0  0  0  0  0  0  0  0  0  0
    1.8007   -2.6245  -17.4135 C   0  0  0  0  0  0  0  0  0  0  0  0
    5.5734    1.8292  -21.7223 C   0  0  0  0  0  0  0  0  0  0  0  0
    5.1816   -0.4685  -21.0203 C   0  0  0  0  0  0  0  0  0  0  0  0
    1.8746   -3.9100  -16.8472 C   0  0  0  0  0  0  0  0  0  0  0  0
    6.5819    1.3693  -22.6159 C   0  0  0  0  0  0  0  0  0  0  0  0
    3.6985   -3.0497  -18.7389 C   0  0  0  0  0  0  0  0  0  0  0  0
    4.3651    4.0653  -19.2437 C   0  0  0  0  0  0  0  0  0  0  0  0
    4.6364   -2.5589  -19.7573 C   0  0  0  0  0  0  0  0  0  0  0  0
    7.6279    6.5021  -19.2241 C   0  0  0  0  0  0  0  0  0  0  0  0
    6.7765    6.0417  -20.4144 C   0  0  0  0  0  0  0  0  0  0  0  0
    7.9809    5.0245  -18.9823 C   0  0  0  0  0  0  0  0  0  0  0  0
    6.7753    3.5076  -20.5532 C   0  0  0  0  0  0  0  0  0  0  0  0
    5.4678    3.2971  -21.3395 C   0  0  1  0  0  0  0  0  0  0  0  0
    6.6493    4.7058  -19.6639 C   0  0  0  0  0  0  0  0  0  0  0  0
    5.3225    4.2247  -22.5774 C   0  0  0  0  0  0  0  0  0  0  0  0
    2.6988   -2.2175  -18.3336 N   0  0  0  0  0  0  0  0  0  0  0  0
    4.2747    3.5748  -20.4643 N   0  3  0  0  0  0  0  0  0  0  0  0
    3.2460    4.0095  -18.4256 N   0  0  0  0  0  0  0  0  0  0  0  0
    4.4300   -1.2595  -20.1746 N   0  0  0  0  0  0  0  0  0  0  0  0
    5.5673   -3.2508  -20.1545 O   0  0  0  0  0  0  0  0  0  0  0  0
    5.5275    4.6174  -18.7378 O   0  0  0  0  0  0  0  0  0  0  0  0
    0.9561   -4.3033  -15.9396 F   0  0  0  0  0  0  0  0  0  0  0  0
    7.3488    2.2283  -23.3265 F   0  0  0  0  0  0  0  0  0  0  0  0
    6.3705   -1.9870  -22.0096 H   0  0  0  0  0  0  0  0  0  0  0  0
    7.6074   -0.3519  -23.4159 H   0  0  0  0  0  0  0  0  0  0  0  0
    2.9830   -5.7684  -16.8062 H   0  0  0  0  0  0  0  0  0  0  0  0
    4.6296   -4.9976  -18.5210 H   0  0  0  0  0  0  0  0  0  0  0  0
    4.1290    1.2261  -20.2467 H   0  0  0  0  0  0  0  0  0  0  0  0
    1.0124   -1.9530  -17.1067 H   0  0  0  0  0  0  0  0  0  0  0  0
    8.4836    7.1391  -19.4926 H   0  0  0  0  0  0  0  0  0  0  0  0
    7.0591    6.9760  -18.4105 H   0  0  0  0  0  0  0  0  0  0  0  0
    5.8327    6.5901  -20.5507 H   0  0  0  0  0  0  0  0  0  0  0  0
    7.3105    5.9867  -21.3745 H   0  0  0  0  0  0  0  0  0  0  0  0
    8.8734    4.6667  -19.5164 H   0  0  0  0  0  0  0  0  0  0  0  0
    8.0436    4.7290  -17.9245 H   0  0  0  0  0  0  0  0  0  0  0  0
    6.9788    2.6178  -19.9393 H   0  0  0  0  0  0  0  0  0  0  0  0
    7.6043    3.6632  -21.2594 H   0  0  0  0  0  0  0  0  0  0  0  0
    5.2503    5.2710  -22.2457 H   0  0  0  0  0  0  0  0  0  0  0  0
    6.2008    4.1065  -23.2291 H   0  0  0  0  0  0  0  0  0  0  0  0
    4.4135    3.9532  -23.1342 H   0  0  0  0  0  0  0  0  0  0  0  0
    3.3647    3.3766  -20.8283 H   0  0  0  0  0  0  0  0  0  0  0  0
    3.2911    4.3642  -17.4917 H   0  0  0  0  0  0  0  0  0  0  0  0
    2.3942    3.6146  -18.7699 H   0  0  0  0  0  0  0  0  0  0  0  0
    3.6085   -0.8234  -19.8074 H   0  0  0  0  0  0  0  0  0  0  0  0
  1  2  2  0  0  0  0
  1  8  1  0  0  0  0
  2 10  1  0  0  0  0
  3  4  2  0  0  0  0
  3  9  1  0  0  0  0
  4 11  1  0  0  0  0
  5  7  1  0  0  0  0
  5  8  2  0  0  0  0
  6  9  2  0  0  0  0
  6 21  1  0  0  0  0
  7 10  2  0  0  0  0
  7 18  1  0  0  0  0
  8 24  1  0  0  0  0
  9 27  1  0  0  0  0
 10 28  1  0  0  0  0
 11 13  1  0  0  0  0
 11 21  2  0  0  0  0
 12 22  2  0  0  0  0
 12 23  1  0  0  0  0
 12 26  1  0  0  0  0
 13 24  1  0  0  0  0
 13 25  2  0  0  0  0
 14 15  1  0  0  0  0
 14 16  1  0  0  0  0
 15 19  1  0  0  0  0
 16 19  1  0  0  0  0
 17 18  1  0  0  0  0
 17 19  1  0  0  0  0
 18 20  1  0  0  0  0
 18 22  1  0  0  0  0
 19 26  1  0  0  0  0
  1 29  1  0  0  0  0
  2 30  1  0  0  0  0
  3 31  1  0  0  0  0
  4 32  1  0  0  0  0
  5 33  1  0  0  0  0
  6 34  1  0  0  0  0
 14 35  1  0  0  0  0
 14 36  1  0  0  0  0
 15 37  1  0  0  0  0
 15 38  1  0  0  0  0
 16 39  1  0  0  0  0
 16 40  1  0  0  0  0
 17 41  1  0  0  0  0
 17 42  1  0  0  0  0
 20 43  1  0  0  0  0
 20 44  1  0  0  0  0
 20 45  1  0  0  0  0
 22 46  1  0  0  0  0
 23 47  1  0  0  0  0
 23 48  1  0  0  0  0
 24 49  1  0  0  0  0
M  CHG  1  22   1
M  END
> <OMEGA_C>
/h3FQNBPbr/kaq/Bc2nbQACUubuhxLXBYOY5QJIDmcCn54nBahB1QPcji8DylpHBxYicQOynYz8y
d6fBqHzmP9j3J8DfTovBiVmyQIEi6j9Cx63BtM+lQO7i776PKajBdPPvP7I9esAjx4bBqZ7SQOxD
rz9Q7bTBTLRsQJYuQ8Bd6ZXBOq+LQAAXgkAW85nBi12UQG7FI8DdDp7B3xf0QHwR0EAEy5nBstjY
QKRVwUC0UKPBQWP/QIzIoECu25fBic/YQPx7YEAHbaTB8veuQPIDU0BIt6rBI8fUQDKWlkC8T53B
0lGqQOEwh0CBnrTBoLksQCrsDcAnq5LBscqIQJTJZEDvtqPBSr5PQM9NgECqZ5PBwMKNQBM4ob+i
ZaHBryeyQE4MUMCEPKHBKuGwQKLBk0Dy5pXB98J0P120icBpCH/BaSnrQMqbDkCTnLrBbtvLQIpU
/r+7E7DBx2/zQHkqtL7DU7vBi+k+QBSXuMAHc4bBrSWUQE/sn8DvKpTBAyGEQBPynD9D+aHBBJeB
P3n7+b+U2ojBwLwHQZhz5EDq8JvBOOThQDk730DISJPBZqW6QAji0kDnZ6TB0O/pQMqSv0Du/qrB
kPkNQalVlUClIZzBdrIAQV1Ul0B0ZY/BUFLfQJ6JJ0DDg5/BR1bzQEtyakAtE6rBZgKoQFmsqEBE
97HBo2zGQMVog0Ae1bnBvDuNQLQAfUDtErnBv1ZXQAwaWEBboKbBsqFSQGOni0AL74vBnzoZQGVV
Z0CuKJbBZPFmQIDKUr+DdZ7BqrXFQNnmU791Ya7BdTndQEgcoj2XmbTBzHA8QD9dncAyhorBcPZz
QHtSjcC8X5LBY/qeQF0PhD+4ZabB1kLkP+g8MsBvzIrBcnC1QE1f+z8K3azB7timQE3Ksr4TDqfB
u9n1P6DOgsBFqIbBNJPVQB86uz/s3rPBGK9oQMrqRcBgKJbBBeKNQALJfkCPc5rByG+SQJjvIMBk
AJ7Bd9AFQdQdeUBkI5PBcFUAQSECokDCqZrBfQ/0QMQVP0AgJpvBWs/OQOXnjEA8r6nBx0upQMJX
XkDlj6zBGGvZQAKTh0Dz3Z3B0FeYQG6dekC3mLfBoh4oQHX7E8B3XJLBblGGQHaLbkDgoaTBDHFZ
QGCSdEAgMZPBfomNQC8Glb97haDBnjWwQAoyTMAdZqHBBAO1QAVbjUAUtZbBPgSKP64HkcBk+33B
whjtQHIIEkCdJbrBzCvLQLPX8b/qL6/BuXj1QM+1k741ArrBhPJDQJGJvcADg4fBC2yTQJ0TocB2
gZXBjzmHQOhXsj/z06DBpRl9P+StCcCB4IfB5QMXQdvYa0AESpLBnNX8QAfYfEC1KovBb3r5QCp0
wEDwoJbB7/MLQdifp0A+H6HBcvIDQTN0JkAhvKHByu/hQCcTCkAAi5fBHu7qQBx5hEAxiq7BksDF
QDFSrkAhRqvBcNSPQCRyn0B+VLfBtEOxQDFgcECTrb3Bu653QOu5VEC0p7nBSu5PQHr9bECYKKfB
Pu5iQK+ugECQcYvBcR8gQNdpYEB6tJXBQpZoQG7KNr/CLJ3B6srEQHL4cL9PYq/BmsbaQGDwdbwU
yLXBATTfPyuVL8DukYrBJrUpQMo0EMAqGJLBR9ibQDYqYD93d6fBNjk8QCNjm8ATHIvB4G6xQPuM
6D/A0a3B94KlQKG79r4oH6jBibPxP1sNgsDEDofBTK7RQMXPrT+m+7TB+DlsQIwjRsC/+JXBQPKL
QJapg0DHDZrBG3iUQPv4JMBE+J3B5Cr2QOXqz0AqtJrB6dnZQEHrwED3/qPBLi0AQYGZoEAqepjB
1krYQP6dX0CbnqTBNyeuQB1XUkBNx6rBuzrVQLHSlkBru53BJAapQCushkBQtLTBBDV0QCrai8A7
Z5LBw32IQIe5ZED3o6PBgpdQQJyDg0DecJPBrdqNQKl7o78SUaHB14uyQCPUUMBEE6HBcZGxQHRT
lUD+OZbBno6CP95GksCdtX/BBgrqQLvlDUCCtrrBi8HLQLiD/7+PA7DB9M7yQHa/t74OWbvBDvRy
P6eTB8CiiIfB0zEkQPp5nr9Q9pTBd1uDQADOmj9O/KHBX0ZDQG7qu8DNU4jBLvYIQd5M40BCHZ3B
m9rkQEVK4EAPOpTB2Py7QKUS00DQC6XB4UrqQBYLvkBnvqvBljQOQYH5k0CPwJzB9EUBQfkJmECE
9Y/BCH7eQEJmJ0DtjZ/BVbHyQOOUZ0C1WqrBrc2mQJgzqEBWFbLBjeTEQL3RgkA3/rnBpL6LQOa/
e0DbELnBTH9WQO/nVUA1T6bB70hUQCf9j0CaFozBdIAZQGHdbUDNBpbBeVJnQE+CV7+QUZ7B/x3H
QArrWr8sFK7BsM/dQPA2fj1cYrTB4BDaP45wNsBRiorB7/QjQEAHFsChY5LBIzCfQOOpfD+rK6bB
Qdo9QNKKncA9JovBKey0QIi79j+csqzB1P2nQAKlx768yqbB+hb1P9HuhMAJ0IbBSTXVQLJmuD+X
ubPB+ctnQHiYScAEWJbBFliNQIhUgECmaZrBppeSQBrtJMABFZ7BeUIGQcJdfkCs55PBDGL/QOnu
o0A/b5vBulb1QOYZQkCEupvBKpHMQNWhjEBjBqrBBJ2nQHdkW0AMhqzBGc/YQCPxh0AITJ7BjjiV
QBbcdEC5g7fBA75yQFt8jcAQv5LBxT+FQDBha0AUbKTB97tXQMR1f0ApI5PBlSyPQP8sm78gQaDB
Tz+vQIPeUcBnvKHB3jW1QBvzjEAD2JbBTPmOP70ylcA1Mn7BpAbsQLQrEUDuFbrBqGzNQA7l9L9H
y67Bqy32QNZalr5pz7nBPkRlP9D2D8DWa4fBYtEaQIf7q78Wb5XB2UyHQP4Wqz+mlqDBWG1HQHvj
vcAnWojBopwXQUzTc0DtP5PBQmv+QLy4gEDd2YvBsYf3QMNBwkCPa5fBetYKQQwiqkDuEKLBHnoE
QXvfKkAYb6LB3bTkQPLIC0DZ+pfBEkfoQCTihEAPGK/BH1DCQKK2rUC+mKvBn9eLQExanECKX7fB
Y6mtQDncakAOub3ByRByQEgrTUAfS7nBPW5NQNenZUDjtKbBLuVhQGJLiEDZiIvBxkYdQBp3bUD7
fZXBbhluQHDgP78PhpzBH6HBQLqsd78Awq3BMsHXQLxDxr3xo7TBP2hQQFB2mMAPE4bB8ZCHQIJd
gMABbovBvpaaQFprbj8jXabBtJnIPzHPZcDxZ5DB+bexQAOW6j/i8KzBDv6iQAZw5b52mqbBwbDz
P3GtkcA7oojBJiLQQAZ4pT9zRbTBFGt1QIn1Q8DRNZPB6VyPQK9ShkDLXprBpnaaQCIbEcAZPpnB
eAIEQZIYYUBXCJHB8FwDQfmAlEDaf5nB8W3sQKwtLEC43JjBZCDTQCuihEClIanBu5qpQI84V0CQ
GKzB5FfbQNCOgUCP/5zBirWXQDKdeEAi5bbBYighQLq7N8BafJXBocqHQBAMa0Do4qPBi9VZQO3V
jUCGo5PBSMCKQGzuor/kAaDB6APBQNNoG8Aq1JfBlZC3QA69kUDszJbBEpluP2VwqMCxtoPBxm3m
QLl5BUDoDLvBpRLIQBnPAcCv863BFsDuQO9B/b4OQLrBM2FiQMPDr8A7GoDB5w+pQOTyhMAio4nB
uBmCQLTspz/yFKHB0yUHP8E1W8DvWJLB9QIUQaulRkAGdI/BAVb4QJzOcEAsZ4nB14wCQYwitUB3
OZbB4hAQQRLfkkCek5/ByJ7+QE6yBkAOw57BkUvUQOn+AkCyDJXBu3HuQN+VbUBmeK3BOF7PQGpv
pkByZqvBB+6RQE70nkAgU7bBegevQIHua0AWS73B8vRyQDWpV0D7ubjBdMxSQArXXUDaxKXBWlJj
QFofm0BQdYzB96YeQND3hUCs9pXB7RJWQH/3kb9XIKDB

> <OMEGA_E>
GL/GPkCpzz522AY/cFwJP1yTMz8=

> <OMEGA_NBR>
     67154

$$$$
450353
  -OEChem-04172616093D

 49 52  0     1  0  0  0  0  0999 V2000
    6.1599   -0.9309  -21.9272 C   0  0  0  0  0  0  0  0  0  0  0  0
    6.8566   -0.0057  -22.7210 C   0  0  0  0  0  0  0  0  0  0  0  0
    2.9047   -4.7817  -17.2381 C   0  0  0  0  0  0  0  0  0  0  0  0
    3.8291   -4.3481  -18.1987 C   0  0  0  0  0  0  0  0  0  0  0  0
    4.8917    0.8893  -20.9332 C   0  0  0  0  0  0  0  0  0  0  0  0
    1.8007   -2.6245  -17.4135 C   0  0  0  0  0  0  0  0  0  0  0  0
    5.5734    1.8292  -21.7223 C   0  0  0  0  0  0  0  0  0  0  0  0
    5.1816   -0.4685  -21.0203 C   0  0  0  0  0  0  0  0  0  0  0  0
    1.8746   -3.9100  -16.8472 C   0  0  0  0  0  0  0  0  0  0  0  0
    6.5819    1.3693  -22.6159 C   0  0  0  0  0  0  0  0  0  0  0  0
    3.6985   -3.0497  -18.7389 C   0  0  0  0  0  0  0  0  0  0  0  0
    4.3651    4.0653  -19.2437 C   0  0  0  0  0  0  0  0  0  0  0  0
    4.6364   -2.5589  -19.7573 C   0  0  0  0  0  0  0  0  0  0  0  0
    7.6279    6.5021  -19.2241 C   0  0  0  0  0  0  0  0  0  0  0  0
    6.7765    6.0417  -20.4144 C   0  0  0  0  0  0  0  0  0  0  0  0
    7.9809    5.0245  -18.9823 C   0  0  0  0  0  0  0  0  0  0  0  0
    6.7753    3.5076  -20.5532 C   0  0  0  0  0  0  0  0  0  0  0  0
    5.4678    3.2971  -21.3395 C   0  0  1  0  0  0  0  0  0  0  0  0
    6.6493    4.7058  -19.6639 C   0  0  0  0  0  0  0  0  0  0  0  0
    5.3225    4.2247  -22.5774 C   0  0  0  0  0  0  0  0  0  0  0  0
    2.6988   -2.2175  -18.3336 N   0  0  0  0  0  0  0  0  0  0  0  0
    4.2747    3.5748  -20.4643 N   0  3  0  0  0  0  0  0  0  0  0  0
    3.2460    4.0095  -18.4256 N   0  0  0  0  0  0  0  0  0  0  0  0
    4.4300   -1.2595  -20.1746 N   0  0  0  0  0  0  0  0  0  0  0  0
    5.5673   -3.2508  -20.1545 O   0  0  0  0  0  0  0  0  0  0  0  0
    5.5275    4.6174  -18.7378 O   0  0  0  0  0  0  0  0  0  0  0  0
    0.9561   -4.3033  -15.9396 F   0  0  0  0  0  0  0  0  0  0  0  0
    7.3488    2.2283  -23.3265 F   0  0  0  0  0  0  0  0  0  0  0  0
    6.3705   -1.9870  -22.0096 H   0  0  0  0  0  0  0  0  0  0  0  0
    7.6074   -0.3519  -23.4159 H   0  0  0  0  0  0  0  0  0  0  0  0
    2.9830   -5.7684  -16.8062 H   0  0  0  0  0  0  0  0  0  0  0  0
    4.6296   -4.9976  -18.5210 H   0  0  0  0  0  0  0  0  0  0  0  0
    4.1290    1.2261  -20.2467 H   0  0  0  0  0  0  0  0  0  0  0  0
    1.0124   -1.9530  -17.1067 H   0  0  0  0  0  0  0  0  0  0  0  0
    8.4836    7.1391  -19.4926 H   0  0  0  0  0  0  0  0  0  0  0  0
    7.0591    6.9760  -18.4105 H   0  0  0  0  0  0  0  0  0  0  0  0
    5.8327    6.5901  -20.5507 H   0  0  0  0  0  0  0  0  0  0  0  0
    7.3105    5.9867  -21.3745 H   0  0  0  0  0  0  0  0  0  0  0  0
    8.8734    4.6667  -19.5164 H   0  0  0  0  0  0  0  0  0  0  0  0
    8.0436    4.7290  -17.9245 H   0  0  0  0  0  0  0  0  0  0  0  0
    6.9788    2.6178  -19.9393 H   0  0  0  0  0  0  0  0  0  0  0  0
    7.6043    3.6632  -21.2594 H   0  0  0  0  0  0  0  0  0  0  0  0
    5.2503    5.2710  -22.2457 H   0  0  0  0  0  0  0  0  0  0  0  0
    6.2008    4.1065  -23.2291 H   0  0  0  0  0  0  0  0  0  0  0  0
    4.4135    3.9532  -23.1342 H   0  0  0  0  0  0  0  0  0  0  0  0
    3.3647    3.3766  -20.8283 H   0  0  0  0  0  0  0  0  0  0  0  0
    3.2911    4.3642  -17.4917 H   0  0  0  0  0  0  0  0  0  0  0  0
    2.3942    3.6146  -18.7699 H   0  0  0  0  0  0  0  0  0  0  0  0
    3.6085   -0.8234  -19.8074 H   0  0  0  0  0  0  0  0  0  0  0  0
  1  2  2  0  0  0  0
  1  8  1  0  0  0  0
  2 10  1  0  0  0  0
  3  4  2  0  0  0  0
  3  9  1  0  0  0  0
  4 11  1  0  0  0  0
  5  7  1  0  0  0  0
  5  8  2  0  0  0  0
  6  9  2  0  0  0  0
  6 21  1  0  0  0  0
  7 10  2  0  0  0  0
  7 18  1  0  0  0  0
  8 24  1  0  0  0  0
  9 27  1  0  0  0  0
 10 28  1  0  0  0  0
 11 13  1  0  0  0  0
 11 21  2  0  0  0  0
 12 22  2  0  0  0  0
 12 23  1  0  0  0  0
 12 26  1  0  0  0  0
 13 24  1  0  0  0  0
 13 25  2  0  0  0  0
 14 15  1  0  0  0  0
 14 16  1  0  0  0  0
 15 19  1  0  0  0  0
 16 19  1  0  0  0  0
 17 18  1  0  0  0  0
 17 19  1  0  0  0  0
 18 20  1  0  0  0  0
 18 22  1  0  0  0  0
 19 26  1  0  0  0  0
  1 29  1  0  0  0  0
  2 30  1  0  0  0  0
  3 31  1  0  0  0  0
  4 32  1  0  0  0  0
  5 33  1  0  0  0  0
  6 34  1  0  0  0  0
 14 35  1  0  0  0  0
 14 36  1  0  0  0  0
 15 37  1  0  0  0  0
 15 38  1  0  0  0  0
 16 39  1  0  0  0  0
 16 40  1  0  0  0  0
 17 41  1  0  0  0  0
 17 42  1  0  0  0  0
 20 43  1  0  0  0  0
 20 44  1  0  0  0  0
 20 45  1  0  0  0  0
 22 46  1  0  0  0  0
 23 47  1  0  0  0  0
 23 48  1  0  0  0  0
 24 49  1  0  0  0  0
M  CHG  1  22   1
M  END
> <OMEGA_C>
/h3FQNBPbr/kaq/Bc2nbQACUubuhxLXBYOY5QJIDmcCn54nBahB1QPcji8DylpHBxYicQOynYz8y
d6fBqHzmP9j3J8DfTovBiVmyQIEi6j9Cx63BtM+lQO7i776PKajBdPPvP7I9esAjx4bBqZ7SQOxD
rz9Q7bTBTLRsQJYuQ8Bd6ZXBOq+LQAAXgkAW85nBi12UQG7FI8DdDp7B3xf0QHwR0EAEy5nBstjY
QKRVwUC0UKPBQWP/QIzIoECu25fBic/YQPx7YEAHbaTB8veuQPIDU0BIt6rBI8fUQDKWlkC8T53B
0lGqQOEwh0CBnrTBoLksQCrsDcAnq5LBscqIQJTJZEDvtqPBSr5PQM9NgECqZ5PBwMKNQBM4ob+i
ZaHBryeyQE4MUMCEPKHBKuGwQKLBk0Dy5pXB98J0P120icBpCH/BaSnrQMqbDkCTnLrBbtvLQIpU
/r+7E7DBx2/zQHkqtL7DU7vBi+k+QBSXuMAHc4bBrSWUQE/sn8DvKpTBAyGEQBPynD9D+aHBBJeB
P3n7+b+U2ojBwLwHQZhz5EDq8JvBOOThQDk730DISJPBZqW6QAji0kDnZ6TB0O/pQMqSv0Du/qrB
kPkNQalVlUClIZzBdrIAQV1Ul0B0ZY/BUFLfQJ6JJ0DDg5/BR1bzQEtyakAtE6rBZgKoQFmsqEBE
97HBo2zGQMVog0Ae1bnBvDuNQLQAfUDtErnBv1ZXQAwaWEBboKbBsqFSQGOni0AL74vBnzoZQGVV
Z0CuKJbBZPFmQIDKUr+DdZ7BqrXFQNnmU791Ya7BdTndQEgcoj2XmbTBzHA8QD9dncAyhorBcPZz
QHtSjcC8X5LBY/qeQF0PhD+4ZabB1kLkP+g8MsBvzIrBcnC1QE1f+z8K3azB7timQE3Ksr4TDqfB
u9n1P6DOgsBFqIbBNJPVQB86uz/s3rPBGK9oQMrqRcBgKJbBBeKNQALJfkCPc5rByG+SQJjvIMBk
AJ7Bd9AFQdQdeUBkI5PBcFUAQSECokDCqZrBfQ/0QMQVP0AgJpvBWs/OQOXnjEA8r6nBx0upQMJX
XkDlj6zBGGvZQAKTh0Dz3Z3B0FeYQG6dekC3mLfBoh4oQHX7E8B3XJLBblGGQHaLbkDgoaTBDHFZ
QGCSdEAgMZPBfomNQC8Glb97haDBnjWwQAoyTMAdZqHBBAO1QAVbjUAUtZbBPgSKP64HkcBk+33B
whjtQHIIEkCdJbrBzCvLQLPX8b/qL6/BuXj1QM+1k741ArrBhPJDQJGJvcADg4fBC2yTQJ0TocB2
gZXBjzmHQOhXsj/z06DBpRl9P+StCcCB4IfB5QMXQdvYa0AESpLBnNX8QAfYfEC1KovBb3r5QCp0
wEDwoJbB7/MLQdifp0A+H6HBcvIDQTN0JkAhvKHByu/hQCcTCkAAi5fBHu7qQBx5hEAxiq7BksDF
QDFSrkAhRqvBcNSPQCRyn0B+VLfBtEOxQDFgcECTrb3Bu653QOu5VEC0p7nBSu5PQHr9bECYKKfB
Pu5iQK+ugECQcYvBcR8gQNdpYEB6tJXBQpZoQG7KNr/CLJ3B6srEQHL4cL9PYq/BmsbaQGDwdbwU
yLXBATTfPyuVL8DukYrBJrUpQMo0EMAqGJLBR9ibQDYqYD93d6fBNjk8QCNjm8ATHIvB4G6xQPuM
6D/A0a3B94KlQKG79r4oH6jBibPxP1sNgsDEDofBTK7RQMXPrT+m+7TB+DlsQIwjRsC/+JXBQPKL
QJapg0DHDZrBG3iUQPv4JMBE+J3B5Cr2QOXqz0AqtJrB6dnZQEHrwED3/qPBLi0AQYGZoEAqepjB
1krYQP6dX0CbnqTBNyeuQB1XUkBNx6rBuzrVQLHSlkBru53BJAapQCushkBQtLTBBDV0QCrai8A7
Z5LBw32IQIe5ZED3o6PBgpdQQJyDg0DecJPBrdqNQKl7o78SUaHB14uyQCPUUMBEE6HBcZGxQHRT
lUD+OZbBno6CP95GksCdtX/BBgrqQLvlDUCCtrrBi8HLQLiD/7+PA7DB9M7yQHa/t74OWbvBDvRy
P6eTB8CiiIfB0zEkQPp5nr9Q9pTBd1uDQADOmj9O/KHBX0ZDQG7qu8DNU4jBLvYIQd5M40BCHZ3B
m9rkQEVK4EAPOpTB2Py7QKUS00DQC6XB4UrqQBYLvkBnvqvBljQOQYH5k0CPwJzB9EUBQfkJmECE
9Y/BCH7eQEJmJ0DtjZ/BVbHyQOOUZ0C1WqrBrc2mQJgzqEBWFbLBjeTEQL3RgkA3/rnBpL6LQOa/
e0DbELnBTH9WQO/nVUA1T6bB70hUQCf9j0CaFozBdIAZQGHdbUDNBpbBeVJnQE+CV7+QUZ7B/x3H
QArrWr8sFK7BsM/dQPA2fj1cYrTB4BDaP45wNsBRiorB7/QjQEAHFsChY5LBIzCfQOOpfD+rK6bB
Qdo9QNKKncA9JovBKey0QIi79j+csqzB1P2nQAKlx768yqbB+hb1P9HuhMAJ0IbBSTXVQLJmuD+X
ubPB+ctnQHiYScAEWJbBFliNQIhUgECmaZrBppeSQBrtJMABFZ7BeUIGQcJdfkCs55PBDGL/QOnu
o0A/b5vBulb1QOYZQkCEupvBKpHMQNWhjEBjBqrBBJ2nQHdkW0AMhqzBGc/YQCPxh0AITJ7BjjiV
QBbcdEC5g7fBA75yQFt8jcAQv5LBxT+FQDBha0AUbKTB97tXQMR1f0ApI5PBlSyPQP8sm78gQaDB
Tz+vQIPeUcBnvKHB3jW1QBvzjEAD2JbBTPmOP70ylcA1Mn7BpAbsQLQrEUDuFbrBqGzNQA7l9L9H
y67Bqy32QNZalr5pz7nBPkRlP9D2D8DWa4fBYtEaQIf7q78Wb5XB2UyHQP4Wqz+mlqDBWG1HQHvj
vcAnWojBopwXQUzTc0DtP5PBQmv+QLy4gEDd2YvBsYf3QMNBwkCPa5fBetYKQQwiqkDuEKLBHnoE
QXvfKkAYb6LB3bTkQPLIC0DZ+pfBEkfoQCTihEAPGK/BH1DCQKK2rUC+mKvBn9eLQExanECKX7fB
Y6mtQDncakAOub3ByRByQEgrTUAfS7nBPW5NQNenZUDjtKbBLuVhQGJLiEDZiIvBxkYdQBp3bUD7
fZXBbhluQHDgP78PhpzBH6HBQLqsd78Awq3BMsHXQLxDxr3xo7TBP2hQQFB2mMAPE4bB8ZCHQIJd
gMABbovBvpaaQFprbj8jXabBtJnIPzHPZcDxZ5DB+bexQAOW6j/i8KzBDv6iQAZw5b52mqbBwbDz
P3GtkcA7oojBJiLQQAZ4pT9zRbTBFGt1QIn1Q8DRNZPB6VyPQK9ShkDLXprBpnaaQCIbEcAZPpnB
eAIEQZIYYUBXCJHB8FwDQfmAlEDaf5nB8W3sQKwtLEC43JjBZCDTQCuihEClIanBu5qpQI84V0CQ
GKzB5FfbQNCOgUCP/5zBirWXQDKdeEAi5bbBYighQLq7N8BafJXBocqHQBAMa0Do4qPBi9VZQO3V
jUCGo5PBSMCKQGzuor/kAaDB6APBQNNoG8Aq1JfBlZC3QA69kUDszJbBEpluP2VwqMCxtoPBxm3m
QLl5BUDoDLvBpRLIQBnPAcCv863BFsDuQO9B/b4OQLrBM2FiQMPDr8A7GoDB5w+pQOTyhMAio4nB
uBmCQLTspz/yFKHB0yUHP8E1W8DvWJLB9QIUQaulRkAGdI/BAVb4QJzOcEAsZ4nB14wCQYwitUB3
OZbB4hAQQRLfkkCek5/ByJ7+QE6yBkAOw57BkUvUQOn+AkCyDJXBu3HuQN+VbUBmeK3BOF7PQGpv
pkByZqvBB+6RQE70nkAgU7bBegevQIHua0AWS73B8vRyQDWpV0D7ubjBdMxSQArXXUDaxKXBWlJj
QFofm0BQdYzB96YeQND3hUCs9pXB7RJWQH/3kb9XIKDB

> <OMEGA_E>
GL/GPkCpzz522AY/cFwJP1yTMz8=

> <OMEGA_NBR>
     71635

$$$$
450369
  -OEChem-04172616093D

 49 52  0     1  0  0  0  0  0999 V2000
    5.9260   -1.0305  -22.0913 C   0  0  0  0  0  0  0  0  0  0  0  0
    6.6634   -0.0973  -22.8301 C   0  0  0  0  0  0  0  0  0  0  0  0
    1.7694   -2.9001  -17.3298 C   0  0  0  0  0  0  0  0  0  0  0  0
    2.5959   -2.4299  -18.3516 C   0  0  0  0  0  0  0  0  0  0  0  0
    5.1340    0.7576  -20.6532 C   0  0  0  0  0  0  0  0  0  0  0  0
    3.1594   -4.8900  -17.2345 C   0  0  0  0  0  0  0  0  0  0  0  0
    5.8459    1.7256  -21.3852 C   0  0  0  0  0  0  0  0  0  0  0  0
    5.1626   -0.5864  -20.9995 C   0  0  0  0  0  0  0  0  0  0  0  0
    2.0547   -4.1477  -16.7647 C   0  0  0  0  0  0  0  0  0  0  0  0
    6.6385    1.2689  -22.4925 C   0  0  0  0  0  0  0  0  0  0  0  0
    3.6979   -3.2174  -18.7876 C   0  0  0  0  0  0  0  0  0  0  0  0
    4.0617    4.5217  -19.6828 C   0  0  0  0  0  0  0  0  0  0  0  0
    4.5874   -2.6971  -19.8372 C   0  0  0  0  0  0  0  0  0  0  0  0
    7.4721    6.5879  -22.5263 C   0  0  0  0  0  0  0  0  0  0  0  0
    7.1673    6.2885  -21.0496 C   0  0  0  0  0  0  0  0  0  0  0  0
    5.9438    6.5965  -22.7428 C   0  0  0  0  0  0  0  0  0  0  0  0
    5.9105    4.1895  -21.9897 C   0  0  0  0  0  0  0  0  0  0  0  0
    5.8203    3.1730  -20.8384 C   0  0  2  0  0  0  0  0  0  0  0  0
    5.8398    5.6506  -21.5351 C   0  0  0  0  0  0  0  0  0  0  0  0
    6.9723    3.2993  -19.8059 C   0  0  0  0  0  0  0  0  0  0  0  0
    3.9553   -4.4235  -18.2250 N   0  0  0  0  0  0  0  0  0  0  0  0
    4.5122    3.3759  -20.1281 N   0  3  0  0  0  0  0  0  0  0  0  0
    3.2076    4.5014  -18.5917 N   0  0  0  0  0  0  0  0  0  0  0  0
    4.3612   -1.3953  -20.2311 N   0  0  0  0  0  0  0  0  0  0  0  0
    5.5479   -3.3488  -20.2349 O   0  0  0  0  0  0  0  0  0  0  0  0
    1.2680   -4.6347  -15.7821 F   0  0  0  0  0  0  0  0  0  0  0  0
    7.3987    2.0769  -23.2602 F   0  0  0  0  0  0  0  0  0  0  0  0
    4.4087    6.0519  -20.4664 S   0  0  0  0  0  0  0  0  0  0  0  0
    5.9441   -2.0771  -22.3573 H   0  0  0  0  0  0  0  0  0  0  0  0
    7.2579   -0.4295  -23.6683 H   0  0  0  0  0  0  0  0  0  0  0  0
    0.9301   -2.3150  -16.9838 H   0  0  0  0  0  0  0  0  0  0  0  0
    2.3997   -1.4718  -18.8097 H   0  0  0  0  0  0  0  0  0  0  0  0
    4.5501    1.0683  -19.7995 H   0  0  0  0  0  0  0  0  0  0  0  0
    3.3745   -5.8521  -16.7937 H   0  0  0  0  0  0  0  0  0  0  0  0
    7.9705    7.5513  -22.7095 H   0  0  0  0  0  0  0  0  0  0  0  0
    8.0101    5.7897  -23.0586 H   0  0  0  0  0  0  0  0  0  0  0  0
    7.8657    5.5880  -20.5683 H   0  0  0  0  0  0  0  0  0  0  0  0
    7.0452    7.1787  -20.4150 H   0  0  0  0  0  0  0  0  0  0  0  0
    5.4653    7.5768  -22.6012 H   0  0  0  0  0  0  0  0  0  0  0  0
    5.6126    6.1613  -23.6972 H   0  0  0  0  0  0  0  0  0  0  0  0
    6.8654    4.0356  -22.5135 H   0  0  0  0  0  0  0  0  0  0  0  0
    5.0775    4.0020  -22.6833 H   0  0  0  0  0  0  0  0  0  0  0  0
    6.9858    4.3190  -19.3937 H   0  0  0  0  0  0  0  0  0  0  0  0
    6.8154    2.5767  -18.9915 H   0  0  0  0  0  0  0  0  0  0  0  0
    7.9324    3.0912  -20.3008 H   0  0  0  0  0  0  0  0  0  0  0  0
    3.9385    2.5697  -19.9835 H   0  0  0  0  0  0  0  0  0  0  0  0
    2.7983    5.3518  -18.2611 H   0  0  0  0  0  0  0  0  0  0  0  0
    3.0005    3.6363  -18.1348 H   0  0  0  0  0  0  0  0  0  0  0  0
    3.5037   -0.9877  -19.9171 H   0  0  0  0  0  0  0  0  0  0  0  0
  1  2  2  0  0  0  0
  1  8  1  0  0  0  0
  2 10  1  0  0  0  0
  3  4  2  0  0  0  0
  3  9  1  0  0  0  0
  4 11  1  0  0  0  0
  5  7  1  0  0  0  0
  5  8  2  0  0  0  0
  6  9  2  0  0  0  0
  6 21  1  0  0  0  0
  7 10  2  0  0  0  0
  7 18  1  0  0  0  0
  8 24  1  0  0  0  0
  9 26  1  0  0  0  0
 10 27  1  0  0  0  0
 11 13  1  0  0  0  0
 11 21  2  0  0  0  0
 12 22  2  0  0  0  0
 12 23  1  0  0  0  0
 12 28  1  0  0  0  0
 13 24  1  0  0  0  0
 13 25  2  0  0  0  0
 14 15  1  0  0  0  0
 14 16  1  0  0  0  0
 15 19  1  0  0  0  0
 16 19  1  0  0  0  0
 17 18  1  0  0  0  0
 17 19  1  0  0  0  0
 18 20  1  0  0  0  0
 18 22  1  0  0  0  0
 19 28  1  0  0  0  0
  1 29  1  0  0  0  0
  2 30  1  0  0  0  0
  3 31  1  0  0  0  0
  4 32  1  0  0  0  0
  5 33  1  0  0  0  0
  6 34  1  0  0  0  0
 14 35  1  0  0  0  0
 14 36  1  0  0  0  0
 15 37  1  0  0  0  0
 15 38  1  0  0  0  0
 16 39  1  0  0  0  0
 16 40  1  0  0  0  0
 17 41  1  0  0  0  0
 17 42  1  0  0  0  0
 20 43  1  0  0  0  0
 20 44  1  0  0  0  0
 20 45  1  0  0  0  0
 22 46  1  0  0  0  0
 23 47  1  0  0  0  0
 23 48  1  0  0  0  0
 24 49  1  0  0  0  0
M  CHG  1  22   1
M  END
> <OMEGA_C>
JaK9QCLng7/zurDBvzrVQNBWx70HpLbB7XviPzWbOcBmo4rBgiMmQBKEG8AJ0JLBH0qkQMHyQT+5
OaXBLjNKQKl6nMBX4InB4RG7QC7h3D/yFKvBNDSlQA4bFr8A/6fBGoADQCe6hMAPHobBqm7UQLpr
oj+f8LPBhKpsQDjpTcDqTJbBafmBQMKxkEBqdp3BJ8ySQK6dLMCMsp7BIxvvQGzQ0kDYNbTBilrl
QFA7yUCPZajB8DO+QMQW00BM8bXBgSK9QGwQhkAB66/Bkz+6QEgSS0AVtabBd9+6QF7RtEDRR6zB
Ix3fQDonU0CKcp7BJiR9QKmNjcDCzJHBqGOQQNUOWEBHBqHBiEhNQDsLkEC0u5TBDY+LQGaasr81
2aHBrIixQIJSVsD+4KHBwE2iP11PlMCmg3zBLsLsQErsBEDaFLrBzRONQI+pwUAcu6PBSja+QKLu
BMC427LB30DoQCPq2763WL3B6xtuP20pFMDm3ofBCJQZQNtjvL84epbBTpqRQGe/iD9PZZ7B5PdX
QNBEu8CDWYbBXw7/QPqj8UAJrbXBOCkAQeVEuUDqd7jBeLP7QEDRskDPi6TBr3LhQLi35UD5UaPB
c+OuQAd18kA2z7TBcZqzQAspxUDZk73BuLHbQP4jgUCwG7TB+XqiQEUQgEBsd7XBwovfQHM1ikBV
JpvBzRfaQGHpJECI7pfBgNb9QDzWRUD3Z6LBFBB8QON1JEAd3p/BHhczQBhCq0DOFpLBEghAQGm4
aEAZFJHBNz1gQAXcfL8lVp/BopC9QNZRhL/tuLDBpVHWQAzS572tc7bBR01FQJggnMD8TonBgY57
QHAYjsCMhJHBw8uiQKrzRD8nkaXBOH3wP8+iMcBSuYrB6ja7QFCB3D9LLavBJvyjQIrtE7/uOKjB
r68CQFcrgcCn6IXBp8/VQJJDoD9Wv7PBYIltQHXFSsDLGJbBpNaBQOuVkEDboZ3BNXySQA3EKsCH
rZ7B16nqQGOO0UC9wLXBXEfiQNx4yUAd0KnBKJW5QPsJ0UDpKLfBa3S5QIfihEARhrDBp+26QDBL
S0DD96bBmrO3QOvqs0D5P63BV2HiQBmkVUD5kZ/BqOssQLVYF8BFnJLBHs2TQFYZWEDaKqDB4IhK
QPx2kEA6KJXBdPmJQFtesb8QIqLBQW+xQB35U8AH1KHBaG6ZPzbljcD5M3zBJPbvQPQrA0A+gbnB
mG6KQAuuwEC/mqTBUxy+QLw6BcCGzrLBJv7pQHqT6L6nAr3BOYlOQA4du8AVqYXBGqiXQLgdosDh
TJTBzKmOQHMNjD/5Cp/BoISKP5QaCMAkEIjB/BL6QLBY8EDolLfBE737QMylt0Bs6LnBOVn5QNjr
s0C366XBfnXeQDiU5kAQ9aTBTv2pQNJX8EBSKbbBTlquQNINwkB5nL7BC0nWQNS8f0ALarXBYNmc
QLM+e0DTUbXBUVTjQCWki0ANZpzBYxjgQHL6J0CV5ZjBQ7v/QKT8SEDAKaTBUPyFQAg/I0DcQ53B
+wYsQGFiq0CtHZPBPcw/QIfqakDHFJHBRn5bQD/7f7+H+J/B

> <OMEGA_E>
pJArP4LCET8=

> <OMEGA_NBR>
     73595

$$$$
450355
  -OEChem-04172616093D

 53 56  0     1  0  0  0  0  0999 V2000
    6.1151   -0.8959  -21.9102 C   0  0  0  0  0  0  0  0  0  0  0  0
    6.8393    0.0126  -22.6967 C   0  0  0  0  0  0  0  0  0  0  0  0
    2.8909   -4.9049  -17.3668 C   0  0  0  0  0  0  0  0  0  0  0  0
    3.7637   -4.4277  -18.3535 C   0  0  0  0  0  0  0  0  0  0  0  0
    4.9081    0.9505  -20.8904 C   0  0  0  0  0  0  0  0  0  0  0  0
    1.8728   -2.7001  -17.2920 C   0  0  0  0  0  0  0  0  0  0  0  0
    5.6097    1.8736  -21.6894 C   0  0  0  0  0  0  0  0  0  0  0  0
    5.1607   -0.4176  -20.9829 C   0  0  0  0  0  0  0  0  0  0  0  0
    1.9355   -4.0281  -16.8286 C   0  0  0  0  0  0  0  0  0  0  0  0
    6.6090    1.3919  -22.5788 C   0  0  0  0  0  0  0  0  0  0  0  0
    3.6614   -3.0810  -18.7721 C   0  0  0  0  0  0  0  0  0  0  0  0
    4.3709    4.0084  -19.2454 C   0  0  0  0  0  0  0  0  0  0  0  0
    4.5866   -2.5393  -19.7775 C   0  0  0  0  0  0  0  0  0  0  0  0
    7.9511    4.5613  -18.5857 C   0  0  0  0  0  0  0  0  0  0  0  0
    6.5993    6.0275  -20.1725 C   0  0  0  0  0  0  0  0  0  0  0  0
    6.8347    3.5472  -20.5152 C   0  0  0  0  0  0  0  0  0  0  0  0
    7.9759    5.7458  -17.6186 C   0  0  0  0  0  0  0  0  0  0  0  0
    6.7312    7.1508  -19.1477 C   0  0  0  0  0  0  0  0  0  0  0  0
    5.5359    3.3507  -21.3352 C   0  0  1  0  0  0  0  0  0  0  0  0
    6.6943    4.6392  -19.4779 C   0  0  0  0  0  0  0  0  0  0  0  0
    5.4578    4.2378  -22.6140 C   0  0  0  0  0  0  0  0  0  0  0  0
    2.7219   -2.2512  -18.2412 N   0  0  0  0  0  0  0  0  0  0  0  0
    4.3173    3.6638  -20.5146 N   0  3  0  0  0  0  0  0  0  0  0  0
    3.2074    3.9632  -18.4924 N   0  0  0  0  0  0  0  0  0  0  0  0
    4.4113   -1.2095  -20.1246 N   0  0  0  0  0  0  0  0  0  0  0  0
    5.5046   -3.2251  -20.2132 O   0  0  0  0  0  0  0  0  0  0  0  0
    5.5366    4.3955  -18.6239 O   0  0  0  0  0  0  0  0  0  0  0  0
    7.9362    6.9754  -18.3749 O   0  0  0  0  0  0  0  0  0  0  0  0
    1.0819   -4.4552  -15.8736 F   0  0  0  0  0  0  0  0  0  0  0  0
    7.4071    2.2352  -23.2748 F   0  0  0  0  0  0  0  0  0  0  0  0
    6.2861   -1.9573  -22.0128 H   0  0  0  0  0  0  0  0  0  0  0  0
    7.5774   -0.3512  -23.3961 H   0  0  0  0  0  0  0  0  0  0  0  0
    2.9518   -5.9281  -17.0266 H   0  0  0  0  0  0  0  0  0  0  0  0
    4.5057   -5.0806  -18.7891 H   0  0  0  0  0  0  0  0  0  0  0  0
    4.1629    1.3078  -20.1951 H   0  0  0  0  0  0  0  0  0  0  0  0
    1.1331   -2.0289  -16.8813 H   0  0  0  0  0  0  0  0  0  0  0  0
    8.8502    4.5881  -19.2187 H   0  0  0  0  0  0  0  0  0  0  0  0
    7.9341    3.6226  -18.0125 H   0  0  0  0  0  0  0  0  0  0  0  0
    5.6266    6.1125  -20.6790 H   0  0  0  0  0  0  0  0  0  0  0  0
    7.4075    6.1171  -20.9133 H   0  0  0  0  0  0  0  0  0  0  0  0
    7.0784    2.6033  -20.0055 H   0  0  0  0  0  0  0  0  0  0  0  0
    7.6510    3.8140  -21.2026 H   0  0  0  0  0  0  0  0  0  0  0  0
    7.1024    5.6952  -16.9520 H   0  0  0  0  0  0  0  0  0  0  0  0
    8.8973    5.7121  -17.0188 H   0  0  0  0  0  0  0  0  0  0  0  0
    6.7714    8.1178  -19.6706 H   0  0  0  0  0  0  0  0  0  0  0  0
    5.8612    7.1338  -18.4747 H   0  0  0  0  0  0  0  0  0  0  0  0
    5.4057    5.2974  -22.3233 H   0  0  0  0  0  0  0  0  0  0  0  0
    6.3528    4.0706  -23.2313 H   0  0  0  0  0  0  0  0  0  0  0  0
    4.5597    3.9713  -23.1906 H   0  0  0  0  0  0  0  0  0  0  0  0
    3.4210    3.6077  -20.9544 H   0  0  0  0  0  0  0  0  0  0  0  0
    3.2292    4.2083  -17.5231 H   0  0  0  0  0  0  0  0  0  0  0  0
    2.3465    3.6855  -18.9186 H   0  0  0  0  0  0  0  0  0  0  0  0
    3.6317   -0.7545  -19.6942 H   0  0  0  0  0  0  0  0  0  0  0  0
  1  2  2  0  0  0  0
  1  8  1  0  0  0  0
  2 10  1  0  0  0  0
  3  4  2  0  0  0  0
  3  9  1  0  0  0  0
  4 11  1  0  0  0  0
  5  7  1  0  0  0  0
  5  8  2  0  0  0  0
  6  9  2  0  0  0  0
  6 22  1  0  0  0  0
  7 10  2  0  0  0  0
  7 19  1  0  0  0  0
  8 25  1  0  0  0  0
  9 29  1  0  0  0  0
 10 30  1  0  0  0  0
 11 13  1  0  0  0  0
 11 22  2  0  0  0  0
 12 23  2  0  0  0  0
 12 24  1  0  0  0  0
 12 27  1  0  0  0  0
 13 25  1  0  0  0  0
 13 26  2  0  0  0  0
 14 17  1  0  0  0  0
 14 20  1  0  0  0  0
 15 18  1  0  0  0  0
 15 20  1  0  0  0  0
 16 19  1  0  0  0  0
 16 20  1  0  0  0  0
 17 28  1  0  0  0  0
 18 28  1  0  0  0  0
 19 21  1  0  0  0  0
 19 23  1  0  0  0  0
 20 27  1  0  0  0  0
  1 31  1  0  0  0  0
  2 32  1  0  0  0  0
  3 33  1  0  0  0  0
  4 34  1  0  0  0  0
  5 35  1  0  0  0  0
  6 36  1  0  0  0  0
 14 37  1  0  0  0  0
 14 38  1  0  0  0  0
 15 39  1  0  0  0  0
 15 40  1  0  0  0  0
 16 41  1  0  0  0  0
 16 42  1  0  0  0  0
 17 43  1  0  0  0  0
 17 44  1  0  0  0  0
 18 45  1  0  0  0  0
 18 46  1  0  0  0  0
 21 47  1  0  0  0  0
 21 48  1  0  0  0  0
 21 49  1  0  0  0  0
 23 50  1  0  0  0  0
 24 51  1  0  0  0  0
 24 52  1  0  0  0  0
 25 53  1  0  0  0  0
M  CHG  1  23   1
M  END
> <OMEGA_C>
H6/DQKJWZb8wSK/BVdvaQMDFTjzdkrXB6gM5QB31nMA074rBROFwQBKwjcAK1JLBew+dQOVVcz+D
H6fBS7nvPzHOLMALVorBVYKzQAzT7z/zg63BwSSlQNLQ1b723KfBFb73PxbmgMD+oIbBlHzTQEoq
sj9UobTBzlRqQHwvRcBSLZbBt96LQOBEgECK9pnB0sWSQBWEIsBrOJ7BNG/+QB72kUB2r5TBlS3T
QPXgwEA9YaHB+rXaQLgEY0AUH6TBfjr/QMbdt0D88ozBz2XXQJnT5ECNLpnBKiaxQLJxVkB6rqrB
8DfWQCd0lECm0pvBNKauQNWbh0CA6bTB+zIuQH0TEMAU7pHBcSeKQPZ7akDsHaTB5kVNQAKlfUBs
8JPBUSmNQPfRmr8z/6DBTSWwQMJnTsCPtKHB+iuxQMKnjECt/ZTBOPX9QNw230DR/5LBP3yKP+yQ
jsAk+n3BwAbtQL4ND0DDMrrBlCfJQKqI+r8wGrDBEXryQLnPs75OK7vBp+o8QCWzvcBtNojBhi6Q
QG+UosAFUJbBbTaFQGZkpz+Zj6HB3giRPy/aAcDPDIfBnZoNQQrSkkD5v5nBBOT9QF3YZ0CZGZDB
5Ay0QHSZw0CPbqXBXwrtQKq/w0BfTqfB3IHiQHScJkBHC6DB19T0QMEYdEDYnqnBfEbjQFU/tkDC
nYfBclsOQcfJtkB9JojBQK/YQH7iAUFTXZ3BR4+7QPNH5EBEzJPBmfusQBKEqUAKlrLBHErLQJFC
gkCr2bnBJ+mRQHoqfkBjhrnB3PBaQIvkZkCJoqfBrqtOQJCqhkBoL4zBeiwWQLXea0BXWZfB5W1o
QOsoQb/NjZ3BwozJQOEjV79ksa3BNJzgQBhaqT0J37PBEP41QIe4ncC8F4vB9N9wQD/pjcCVkpLB
KxyeQBu5eT9cr6bB78rgP5RvMMBTQYvBn060QHT29T/RA63BpnuoQLJ1xb405abBH+/pP5V8gsAX
ZIfBu5PWQBwYuj9Ji7PB7HBpQAAtRsCWIZbBBI+NQJ6lgkBx65rBYoWTQFvHIsAF4Z3BouHuQODZ
TkB8WpzBZpD1QEGtt0DwT5/Bwg7IQFumjkBGi6vBV2oCQabgW0CgkJHBb6QFQRcJukBSXJTBpN6k
QIaGWUDEE63BvgfXQAHdkEDi4p/BMaqPQB5Pa0C+97fBUNIpQB6NEsCZbJLBXfmDQFzdaEDYjqTB
UldfQDJEe0CqzpLB4lCPQDoUmb8RXqDBovevQEP9T8DYkaHBwR6zQL8FmEDUpJjB3X4QQVQ+kkDe
LJLBJMhtP/+okMAhJYDBngXuQExFEkDEuLnBUAjRQJZZ8r83Ia7Bs1f6QLGGhr4C77jBi5A6QM0/
vsAHO4jBtq+RQDQyosBRlpXBSnuEQJgJqD8WjqHBl1t4PxO8BsA5cIjBuJADQd1/PkBXZaLBN6zX
QOoyGkAorZvB0yfjQLwx1UDmp6DBLRgHQbV/tEDPjKXBsIPjQF5whkBdp7DBOGW7QIobrkBy563B
zIDsQGo2Z0BeXYvBGLcLQVJhIkBOho/BxlERQUBf1EAQV5TBt/7yQKrQv0BWKI7B+GyEQCn/lkBe
OLjBCRenQPDGYEAiZ77BFKZoQHrYP0C1ELnBgZJKQKv1XEDBRKbBzzFrQNdiiUDyg4vBAmgoQJ6I
XEChQJTBLclsQFqqPL+J8pzB1EzGQASgdL8mjq7BpwvdQCC1/rziwLTBpg84QAs0nsAd2IrBUvtz
QKbEjsCVOZLBabScQK6qWj/4uabBkd7eP8YPM8Bb0IvBgbmyQD8E5T8j/6zBpC+mQFtEAL9DeqfB
iYDpP7JJg8DKp4fBP2XTQBPiqj9qFrTB6hNrQKZUScBfKpbBFgWNQBCIiEC9HpvBQzSUQO7yJsBG
6J3Bp8j2QBJXukBcBaHB57exQN/qyECNpavBGAvRQCZXfkAKRanB3032QL3e6UA9R57B8ym2QGte
90DGNqjB7/2mQDCmUEAML6zBbmXJQF3NqUCz2qPBv/KTQPJNa0CWNbfBysMpQBT2FcCu4ZLBGemF
QAqqYUA5q6PBfjpfQI7GhkBt0JLBUPCMQODpp7/xL6HBDZWzQJKBUMC2rKDBLUiwQLkuo0A5JJrB
b6viQFaeAEFy56bBRpJjP+eBkcAevIDBc3zpQJh7C0CvfrrBj0PNQGmsAMA4Lq/B/RD2QK0Rvr5Z
DrrBlIA9QNI3vsBoqYfBeB6UQDvGosBH3ZTBRymEQM4lmD+JQ6HBc21vPxOmCcCJTonBywUGQbMv
tUA36qfBV3YBQcdVqEBdGJrBYoyPQOx9wEAE0avB41m/QG0/xUA2tbPBRnjjQHIZVUA406PBBobj
QHeYhECxorDBFezjQGnt7kB74ZbBRqcLQXM29UB8IJ3B0UCoQDMqBkF+Xq7BZlClQMRQ/EBZlqDB
qfSKQDusl0Ak/bbBVv6rQPEMYUDNgb3BIuVuQBVSREB867jBONVRQGaFR0BJjaTBMRFoQMSOmEBl
QYzBeAEsQMl0Z0ARY5PB4hpjQJc+Z78cpp7BADzEQIgbab+VAq/BzgbbQAAicrpfXbXB8GXlP+yu
NcDF34nBCxsoQGiqFMAE2JHB1iWdQOjYbj8066bBDDpEQNbvnMBoxYrBrkazQCzL7T/DYK3BKp2l
QJMt375fm6fB7D8BQDamhMBDQ4bBYEXTQGI3sD8pfrTBjylrQHQoSMCSCJbBSMKLQKaXgUAA/5nB
UtCSQM6zJMCcIZ7B9pr+QCyfkkAw6ZTBHHnTQDZZwUBHqqHBDGbaQMGWY0CfN6TBeuz/QG3MuEB7
Q43BQC3YQLOX5UAnjZnBKKCwQNDCVUBApqrB4j3WQFQhlUC5AZzBxmatQIHXhkBQ8LTBp213QJGn
jMCIfJLByNeJQJvfaUDpBqTBgu5MQPvEgUB9/JPBXASOQPawnb8IsaDBiiSvQPi1UcAN7KHBJEKx
QIf5jUD4HJXBHNT+QHzt30CAZpPBlGKeP3d4lcBwD33BvJLsQBkWDkAMH7rBWA/KQJNF/L8vxa/B
0q3yQNikub7p9brB2Jt9PyKYD8Dmk4bBpXQeQCzcqL8VzJTBEUiFQOPYpD8XWqHBgdxOQFo9vcCg
AIjBgaINQbsMk0ByBJrBwOv9QGeIaUCbQJDBmEm0QLIvxEAnr6XB0zztQF3Ew0BtoafB+4jiQNat
J0BCEaDBazf0QFNadEDh0anBKRnkQO2ct0DN4YfBKMMOQcOkt0CngojBPZ/ZQFguAkFkz53B53K8
QB565UBjIZTBNIurQHXSqECRsLLBYNvJQA2NgUBx8rnBBYeQQA/Ge0BVcrnBZwpaQAm3Y0CGaqfB
KYhOQCq9ikBBT4zBDIoVQPvacUAjVJfBALdrQAKPRL9n/JzBfLPIQDIVW7/loK3BpnHfQPjDhD0v
47PBoMbVPzA3OMDs04rB9uUiQIjkFsDMfpLBGGedQMavdj+0k6bBUpQ6QNG7nsBirovBOGuzQLFU
9D+c/qzBVNqnQEyEzb6GyKbBiqPuPxc0hsD3T4fBuFHVQFGstz8Vm7PB2blmQBJmSsBXeJbBnHCN
QP/Og0Cr+ZrBbMWSQLAiJcBt953BTHTtQOwkTUBaRJzBxNP2QMOLtkDrdp/BRivIQMMrjkBQmKvB
8P8BQcibWUAyj5HBVoIGQV9tuEAgkJTB4HmkQLRBWUCxD63BhBPXQF2lkEBl8Z/BuDOPQMS3a0Bl
7rfBNYRwQK8+jsAQGJPBoMmDQFJXaUDJhaTBc2VfQCSGfkBV0ZLB7NeOQAyVnL//TaDB8l6wQLI5
UcAHS6HBaCKzQA84mUAy0ZjBjbgQQSn5j0BZX5LByYGGP5XulsDKiX/BjjfsQHSmEEBc9bnBW0fQ
QF1B9L+zCq7B+wr5QCNWkL5//LjBWK9cP13cEcCKr4fBtp4aQESMrL/lYZXB//KDQH60pj8eZqHB
oD9DQO1fv8CjDonBpZUCQX0nOkBHUqLBdEPVQNFuGkC2cJvBkUblQOeW1EDOy6DBs48HQXCIskC0
wKXBsIzjQHhkhUDSq7DBOPG7QK+yrUAMCq7BUCTsQAJxZ0AGU4vBZMsKQSj8HkDwdY/BrZ8SQaz1
0UAyopTB1Cr1QEYpv0BZUI7BsF+EQPNWl0CwKLjBJHWmQPiwYEBNZL7BPydnQHbzQECgArnBFD5K
QKF4XEBgJabBdJBrQJ5bi0CxkYvBn1coQLrGX0BWL5TB6EZsQP0yRL8fxZzBEkm6QDFvaL/8drHB
O1rQQBTfozyg2LfB0spnQP2Wl8BcaojBmQWOQBU1b8D74YzBD82gQKV8aD+DNKbBWL/XP9DYW8Bc
3o3BE0i3QHUC7z9LcazBbqSjQE4k8L61aqjB3GkOQLqQksBk54jBn83PQMZPsj+qTLXBnDN1QKyR
J8B605HBIwKLQDEGg0Bcc5nBDciUQA2lzL9pJpfB2pTSQBoiBEBZl5LBwg76QK+hiEDbcY/BW3Dd
QGrRcEB6LKLBPXXjQEkW6j9jL4fB8VMPQdvZUUACBI3BwwK2QGDYV0DZNanBz2TVQJrNZEDb5ZXB
xp20QEmtiUACOLPBkNkeQLlQH8BZQ5LByEeNQN3YakANaaPBEFxGQOPzjUCSa5XBsxuOQIpQs785
F6LBKXyxQPNbhL8zM5LBuvGtQNW2h0BhzpLBjiwIQZiCC0CnQ4bBRMGzP5eJsMClrYTBa9vmQCVl
DkCclbvBv7q6QA2C+r8eg7PBkOfhQEi2pL7OxL7BF92BQMx0s8Akr4TBi3KwQGWrdMDCi4zBOh+N
QPkrnz/+oJ/BUgodP1jaU8CuK47BtLzlQBjguz/zOJjB7vOwQI8g3z8U+pLBiQTtQF3MlECd24fB
pGUDQTt2o0AJK5TBrrj4QBuCSECAhqTBFzTlQI02mkCqrKPB493QQGJ6HECvkYHBsXvfQFofRD9M
JIXBKF0VQTudN0CBmpTBukgcQVZEdECD5YjBFb+zQD5Nq0D3n7DB9kjRQGY2hECAI7jBcdWXQE2A
gkDU9LfBkJxjQOhOYkDWXqfBaPhAQNbRmEAD7Y3BUEESQDj5ikBrAZrBBUJwQK6U/L9+rKXB

> <OMEGA_E>
FLz5PswfCz+MjhU/iGAcPxqKKT/Q8Eo/

> <OMEGA_NBR>
     79220

$$$$
450368
  -OEChem-04172616093D

 55 58  0     1  0  0  0  0  0999 V2000
    6.1012   -0.9357  -21.9308 C   0  0  0  0  0  0  0  0  0  0  0  0
    6.8091   -0.0286  -22.7305 C   0  0  0  0  0  0  0  0  0  0  0  0
    2.8772   -4.8789  -17.3452 C   0  0  0  0  0  0  0  0  0  0  0  0
    3.7808   -4.4136  -18.3090 C   0  0  0  0  0  0  0  0  0  0  0  0
    4.9434    0.9128  -20.8541 C   0  0  0  0  0  0  0  0  0  0  0  0
    1.8364   -2.6829  -17.3498 C   0  0  0  0  0  0  0  0  0  0  0  0
    5.6205    1.8332  -21.6679 C   0  0  0  0  0  0  0  0  0  0  0  0
    5.1753   -0.4532  -20.9787 C   0  0  0  0  0  0  0  0  0  0  0  0
    1.8924   -4.0018  -16.8622 C   0  0  0  0  0  0  0  0  0  0  0  0
    6.5819    1.3498  -22.6039 C   0  0  0  0  0  0  0  0  0  0  0  0
    3.6749   -3.0801  -18.7619 C   0  0  0  0  0  0  0  0  0  0  0  0
    4.3571    4.0157  -19.2208 C   0  0  0  0  0  0  0  0  0  0  0  0
    4.6059   -2.5577  -19.7672 C   0  0  0  0  0  0  0  0  0  0  0  0
    8.1193    7.6422  -19.9130 C   0  0  0  0  0  0  0  0  0  0  0  0
    6.6220    7.5083  -20.2032 C   0  0  0  0  0  0  0  0  0  0  0  0
    8.5703    6.5482  -18.9298 C   0  0  0  0  0  0  0  0  0  0  0  0
    6.3270    6.1527  -20.8234 C   0  0  0  0  0  0  0  0  0  0  0  0
    8.3353    5.1629  -19.5317 C   0  0  0  0  0  0  0  0  0  0  0  0
    6.8434    3.6915  -20.7829 C   0  0  0  0  0  0  0  0  0  0  0  0
    5.4628    3.3221  -21.3918 C   0  0  1  0  0  0  0  0  0  0  0  0
    6.8645    4.9657  -19.9720 C   0  0  0  0  0  0  0  0  0  0  0  0
    5.1487    4.0398  -22.7435 C   0  0  0  0  0  0  0  0  0  0  0  0
    2.7136   -2.2463  -18.2769 N   0  0  0  0  0  0  0  0  0  0  0  0
    4.2910    3.6012  -20.4714 N   0  3  0  0  0  0  0  0  0  0  0  0
    3.2014    4.0009  -18.4560 N   0  0  0  0  0  0  0  0  0  0  0  0
    4.4175   -1.2406  -20.1354 N   0  0  0  0  0  0  0  0  0  0  0  0
    5.5339   -3.2417  -20.1841 O   0  0  0  0  0  0  0  0  0  0  0  0
    1.0049   -4.4193  -15.9350 F   0  0  0  0  0  0  0  0  0  0  0  0
    7.3198    2.1845  -23.3731 F   0  0  0  0  0  0  0  0  0  0  0  0
    5.8184    4.6699  -18.5009 S   0  0  0  0  0  0  0  0  0  0  0  0
    6.2623   -1.9979  -22.0415 H   0  0  0  0  0  0  0  0  0  0  0  0
    7.5317   -0.3918  -23.4463 H   0  0  0  0  0  0  0  0  0  0  0  0
    2.9366   -5.8935  -16.9801 H   0  0  0  0  0  0  0  0  0  0  0  0
    4.5479   -5.0655  -18.7002 H   0  0  0  0  0  0  0  0  0  0  0  0
    4.2336    1.2690  -20.1221 H   0  0  0  0  0  0  0  0  0  0  0  0
    1.0791   -2.0097  -16.9759 H   0  0  0  0  0  0  0  0  0  0  0  0
    8.6820    7.5404  -20.8527 H   0  0  0  0  0  0  0  0  0  0  0  0
    8.3169    8.6305  -19.4725 H   0  0  0  0  0  0  0  0  0  0  0  0
    6.0593    7.6080  -19.2633 H   0  0  0  0  0  0  0  0  0  0  0  0
    6.3146    8.3015  -20.9006 H   0  0  0  0  0  0  0  0  0  0  0  0
    9.6418    6.6732  -18.7147 H   0  0  0  0  0  0  0  0  0  0  0  0
    7.9957    6.6403  -17.9963 H   0  0  0  0  0  0  0  0  0  0  0  0
    5.2374    6.0443  -20.9278 H   0  0  0  0  0  0  0  0  0  0  0  0
    6.7964    6.1121  -21.8174 H   0  0  0  0  0  0  0  0  0  0  0  0
    8.9882    5.0410  -20.4086 H   0  0  0  0  0  0  0  0  0  0  0  0
    8.5861    4.4011  -18.7790 H   0  0  0  0  0  0  0  0  0  0  0  0
    7.1595    2.8656  -20.1286 H   0  0  0  0  0  0  0  0  0  0  0  0
    7.5620    3.8008  -21.6086 H   0  0  0  0  0  0  0  0  0  0  0  0
    5.0306    5.1192  -22.5673 H   0  0  0  0  0  0  0  0  0  0  0  0
    5.9762    3.8720  -23.4486 H   0  0  0  0  0  0  0  0  0  0  0  0
    4.2182    3.6335  -23.1666 H   0  0  0  0  0  0  0  0  0  0  0  0
    3.3768    3.4568  -20.8501 H   0  0  0  0  0  0  0  0  0  0  0  0
    3.2157    4.3567  -17.5215 H   0  0  0  0  0  0  0  0  0  0  0  0
    2.3533    3.6345  -18.8386 H   0  0  0  0  0  0  0  0  0  0  0  0
    3.6182   -0.7933  -19.7341 H   0  0  0  0  0  0  0  0  0  0  0  0
  1  2  2  0  0  0  0
  1  8  1  0  0  0  0
  2 10  1  0  0  0  0
  3  4  2  0  0  0  0
  3  9  1  0  0  0  0
  4 11  1  0  0  0  0
  5  7  1  0  0  0  0
  5  8  2  0  0  0  0
  6  9  2  0  0  0  0
  6 23  1  0  0  0  0
  7 10  2  0  0  0  0
  7 20  1  0  0  0  0
  8 26  1  0  0  0  0
  9 28  1  0  0  0  0
 10 29  1  0  0  0  0
 11 13  1  0  0  0  0
 11 23  2  0  0  0  0
 12 24  2  0  0  0  0
 12 25  1  0  0  0  0
 12 30  1  0  0  0  0
 13 26  1  0  0  0  0
 13 27  2  0  0  0  0
 14 15  1  0  0  0  0
 14 16  1  0  0  0  0
 15 17  1  0  0  0  0
 16 18  1  0  0  0  0
 17 21  1  0  0  0  0
 18 21  1  0  0  0  0
 19 20  1  0  0  0  0
 19 21  1  0  0  0  0
 20 22  1  0  0  0  0
 20 24  1  0  0  0  0
 21 30  1  0  0  0  0
  1 31  1  0  0  0  0
  2 32  1  0  0  0  0
  3 33  1  0  0  0  0
  4 34  1  0  0  0  0
  5 35  1  0  0  0  0
  6 36  1  0  0  0  0
 14 37  1  0  0  0  0
 14 38  1  0  0  0  0
 15 39  1  0  0  0  0
 15 40  1  0  0  0  0
 16 41  1  0  0  0  0
 16 42  1  0  0  0  0
 17 43  1  0  0  0  0
 17 44  1  0  0  0  0
 18 45  1  0  0  0  0
 18 46  1  0  0  0  0
 19 47  1  0  0  0  0
 19 48  1  0  0  0  0
 22 49  1  0  0  0  0
 22 50  1  0  0  0  0
 22 51  1  0  0  0  0
 24 52  1  0  0  0  0
 25 53  1  0  0  0  0
 25 54  1  0  0  0  0
 26 55  1  0  0  0  0
M  CHG  1  24   1
M  END
> <OMEGA_C>
uDzDQJKLb78vcq/BXeTZQECE6rwP2LXBrSM4QI0fnMDnworBGPlxQG48jcDAeJLBBTCeQB6vaT8k
1abBxQ3rP+e0K8BgzIrBC9uzQDOn6j/rV63B0ZulQEkG6L5W1KfBUDryP4cOgMDe5YbB7p7SQL/G
rD/E1LTBWDFrQJcfRcByGJbBc22LQMuAgEAdxJnBUWOTQIixI8AoI57BjegBQc2M9EDrTZ/BeOfT
QMhD8EA9oKHBzB8JQSeL0UA3cJfBA3fKQIPixEBplqbBMF0FQZ02pUD9QJzBJv3aQANBbEBnQ6bB
ps+uQOmcVEBaIqvB3KnbQLTmnkC2xp/BasKkQGZGgUCf8rXBxqstQOvCD8ATN5LBz0+JQLN6ZkBx
xaPBi+RMQMQHgEDopZPB/VuNQFfNnr9LFaHB+xWxQPF3T8AMeaHBKqKAP6NqjcC69X7B0zvqQEbP
C0Aq/LrBmDC6QPVvlUDVAZTBA2XIQF26/7/wVLDBrwPxQA+YyL4RkrvBBPI7QNGXvMA214fBDoiR
QL8YosAXmpXBpHmHQGxtoj8I+qDBqiCKP4CfAMCTzofBTukKQThL8UBr0qbBNhIFQa8WCkGpx5vB
GubBQCN180BIG5rBhBHKQBrTBEFaNKfBqEQaQQGL1UCvt5XB0Nz/QHV91EBt+I/BdJinQB1rwUAh
bKfBFHzZQFqWw0Ajiq7Bgc8PQYlPoUC+RKPB0GAJQaDVjEBTO5bBrhrlQItmN0BzB6HBuvvxQAxA
c0BV3qzBqvqgQHTQo0DJibTByTy/QBzOd0ColrvBw/uGQMuLaEBLVbnBbh1YQDQ8XUDwzKbBp81N
QEtqi0AhLIzB7JwWQNKbaECOtZbBe5BnQD0YS79h353BjGXKQLmrXL8euK3BfijhQGDlWT03CLTB
FJAxQDwqnMBRH4vBtJtsQGJ4jcCKupLBdCGgQKu9eD9ahqbB+JHkP0pWKsC4+orB1Ku1QDiz9D/0
Cq3BTvupQJKqyb7IzKbBcW/nP7gvf8A+MofBjEvXQASqtj/uwbPBfntoQBrPRMCpLZbBTDOJQIcc
hkCWSpvBkVqTQDwyI8Bq+J3B/UcUQVedjED6KZPBzOMMQfGRuEANVpfBhTQBQRYkXUBUlpHBhwQB
QYf+s0CK/6HBjb7qQCKVUUDMIJzBZfLJQC/RjkBhV6zBqculQHBcWUBMH63Bw2ncQGRGlEBoGqHB
h92PQAKTaEAR/rfB0MArQKKtDsAdRpLB2U6DQLZDaEChuqTBtFlgQM4/c0CXrpLB4cyQQL6UmL9H
M6DBnYiuQJY4UsDp5aHBsJdoP8+ljMBdp3/Bmy3uQEw9D0CZOrrB65uxQF+Dq0DgHpnBOJvRQF1c
9b+KJa7Bq476QNNqmb6fKrnBkJwzQCncvMCNVYjBnFaOQObHosCn6pXBnliHQMGgqD8kLaHB4MeE
P4gr/b8d/4fBLWEfQS+kfED++5jBj4UcQbTukECjdovBRR8CQe48x0Bfa5HB7vUaQYYzzUBnfpjB
xfYGQd2THkCzwo7BLobsQHqxeEADnovBP5P1QIF800CDZaTB/UQMQVVXqEASG6jBmgMAQUTUMEAx
0aHBHzHOQJ8CKkAKtZrBbQ7kQAxHhUBwvbHB2Na8QPvIrUAm8a7BeSmEQPtxlUB+ZbjBiwGnQHd6
XUAWer7Bo4dpQOcyPECj3rjBuj1LQEcoVUBnhabBhQxrQF8LhkBxbovBxIwxQFJlSED3uJPBQCFy
QILfNb9Gd5zByvvBQEsDbb/QfK/BZFfYQFAYqrwn97XB5VDuPxlIM8DOTInBY/wqQLU6E8Dfe5HB
KiKeQO9Ibj8ZqabBWRJGQI9wnMBqh4rBpqKzQBY27T8HQq3BzDmlQJCD4r4grafBUi0FQFSQg8Dq
v4XBstPRQNIerj9U1rTB5wdsQOfcR8DF8ZXBSk2KQDrBgECdopnBLI2SQJMfJcCZPJ7BC0YJQSZc
5EDzEZjBhlLlQFIq6EBSz5zBa2MLQe3xu0DJHJHBWsvZQOKawEDRYaPBE4YGQaYClEBdxZfBhjDd
QMxGYEBxV6TBzACyQHaOVUBAX6rB4j7gQNx1lkBPAZ3BtDWuQH5jhkCmvbTBGM53QAScjMClc5LB
guaKQCg0akB/w6PB/axGQFa+gUAeWpTBXgaOQIQinr+Tr6DBwFiuQOKGUsBTM6LBwyapP2Tsk8AA
oXvBiGDqQOskDED9y7rBcvC3QKdGkECMeZLBS7jGQKaM/r+TdrDBErbuQDq5xr7227vBneSKP2VL
DMB3y4XB2aohQM6upb/gZpTBC9GHQAYwpT9luaDB8EVQQMTVvMB/zYfBBPYUQZ+54kATo57BJ5AM
QZ9ZAEHcHZPBqyDOQL+r60CyP5bBaO3jQCBHAkEfAKLBUswbQYHYuUCQ+Y3BjAcAQRHcvUBZaIrB
QAm4QCzowkC7zqXB0TTuQOu4v0BMjKrBMqkSQQ77kEA6GZ7BZSoHQQN7b0CliZLBImXiQKV1JkAK
fp/B+bz2QGPEZUAiW6rB/Q6tQF99qEAFlLLBHRvKQPV0gEAR5rnBzMqQQOxTe0CUDbnB/ipdQI28
ZUCwcqfBaOZDQP4Xi0CCtYzBDDURQLk2ckCRLpjBLchsQPsqRL/5z5zBLHLIQI9YYL9c9a3BVz3f
QEARDj1FS7TB3MbZP1aiMsBdaorBM0ElQAR1EsDNHpLBknufQOs5eD+3eqbB35w3QFlFncAjpYvB
Ph21QJgf9D/PCa3BY9CoQB4bzr5c2qbBPC/tP6bSg8D3E4fBpCfWQIrTtD9t4LPBuJdmQOL5R8CN
VZbBGASKQB+ehkCKQZvBgqCSQLpjJMAA/Z3BADsVQd5djUCzwpPBCHkNQchAuUBJzpfBUV8CQTWy
XUAUEZLB6jkBQTWbtEDPXaLBkEjsQLIWUkBaf5zB6wrKQC3djkCdgKzBecGlQFODWUAKIa3BpTfd
QMF0lECpV6HBe4CPQEKVaEBu+LfBatZtQH9ajcAOG5PBJLaDQDYzaUD2q6TBO4lfQFayd0Bxu5LB
U8OPQGKhmr9qQqDBfCGvQKwlUsCwjaHBViKEP88UlMCLCX/B9TjtQMwQDkABVrrBFw6zQE1Yq0DJ
FJnB0Q3PQKeS978jg67BUhf4QMlnpr5OkLnBxOBrP8LLCsCTHIfBnyQfQJ1cor9U25TBDx2HQH4Y
qT87CaHBeE0+QGcsvsAiI4nBfDUgQUzlfkCJsZnBObQdQYuwkUCpH4zBndoCQWaYx0DoxZHBBmUb
QfAvzkCmEZnBz2kIQfY+H0CvWY/BXCzvQM5ueEDy94vBN3z1QNsB1EBoq6TBblAMQeVOqUDplqjB
Op8AQbrlMUBxT6LBAATQQNX8KUAb9ZrBmM7jQDM2hUDO/bHBxdS8QFLSrUDrE6/Bxx2EQMONlUDi
Z7jBsVqmQGWrXED5fr7BW01oQCa1PEDev7jBX8VLQAmPVkA3ZabBbT5pQNsTiUC1jIvBnPQvQACz
TUDsw5PB9KxvQEdiO789jpzB

> <OMEGA_E>
OD7aPsTaAz+W2A4/GtYhPw==

> <OMEGA_NBR>
     83173

$$$$
450370
  -OEChem-04172616093D

 49 52  0     1  0  0  0  0  0999 V2000
    6.0803   -0.9502  -21.9891 C   0  0  0  0  0  0  0  0  0  0  0  0
    6.7661   -0.0310  -22.7964 C   0  0  0  0  0  0  0  0  0  0  0  0
    2.9669   -4.7943  -17.2135 C   0  0  0  0  0  0  0  0  0  0  0  0
    3.8671   -4.3582  -18.1954 C   0  0  0  0  0  0  0  0  0  0  0  0
    4.8856    0.8839  -20.9281 C   0  0  0  0  0  0  0  0  0  0  0  0
    1.8369   -2.6499  -17.3813 C   0  0  0  0  0  0  0  0  0  0  0  0
    5.5591    1.8215  -21.7276 C   0  0  0  0  0  0  0  0  0  0  0  0
    5.1417   -0.4792  -21.0463 C   0  0  0  0  0  0  0  0  0  0  0  0
    1.9350   -3.9310  -16.8089 C   0  0  0  0  0  0  0  0  0  0  0  0
    6.5191    1.3471  -22.6709 C   0  0  0  0  0  0  0  0  0  0  0  0
    3.7127   -3.0643  -18.7402 C   0  0  0  0  0  0  0  0  0  0  0  0
    4.3292    4.0220  -19.1820 C   0  0  0  0  0  0  0  0  0  0  0  0
    4.6284   -2.5676  -19.7744 C   0  0  0  0  0  0  0  0  0  0  0  0
    8.0784    6.4083  -19.5146 C   0  0  0  0  0  0  0  0  0  0  0  0
    8.4080    4.9202  -19.2985 C   0  0  0  0  0  0  0  0  0  0  0  0
    7.0228    5.9670  -20.5359 C   0  0  0  0  0  0  0  0  0  0  0  0
    6.8742    3.4241  -20.5878 C   0  0  0  0  0  0  0  0  0  0  0  0
    5.5096    3.2886  -21.3079 C   0  0  1  0  0  0  0  0  0  0  0  0
    6.9719    4.6520  -19.7473 C   0  0  0  0  0  0  0  0  0  0  0  0
    5.3489    4.2254  -22.5385 C   0  0  0  0  0  0  0  0  0  0  0  0
    2.7131   -2.2395  -18.3205 N   0  0  0  0  0  0  0  0  0  0  0  0
    4.3117    3.5772  -20.4245 N   0  3  0  0  0  0  0  0  0  0  0  0
    3.1299    4.0998  -18.4923 N   0  0  0  0  0  0  0  0  0  0  0  0
    4.4014   -1.2718  -20.1936 N   0  0  0  0  0  0  0  0  0  0  0  0
    5.5687   -3.2461  -20.1732 O   0  0  0  0  0  0  0  0  0  0  0  0
    1.0358   -4.3294  -15.8845 F   0  0  0  0  0  0  0  0  0  0  0  0
    7.2720    2.1909  -23.4137 F   0  0  0  0  0  0  0  0  0  0  0  0
    5.7780    4.5953  -18.3740 S   0  0  0  0  0  0  0  0  0  0  0  0
    6.2687   -2.0090  -22.0881 H   0  0  0  0  0  0  0  0  0  0  0  0
    7.4878   -0.3838  -23.5183 H   0  0  0  0  0  0  0  0  0  0  0  0
    3.0648   -5.7767  -16.7757 H   0  0  0  0  0  0  0  0  0  0  0  0
    4.6669   -5.0019  -18.5304 H   0  0  0  0  0  0  0  0  0  0  0  0
    4.1562    1.2263  -20.2091 H   0  0  0  0  0  0  0  0  0  0  0  0
    1.0475   -1.9847  -17.0638 H   0  0  0  0  0  0  0  0  0  0  0  0
    7.6726    6.9200  -18.6295 H   0  0  0  0  0  0  0  0  0  0  0  0
    8.9023    7.0027  -19.9362 H   0  0  0  0  0  0  0  0  0  0  0  0
    9.1861    4.5150  -19.9622 H   0  0  0  0  0  0  0  0  0  0  0  0
    8.6304    4.6393  -18.2585 H   0  0  0  0  0  0  0  0  0  0  0  0
    6.0915    6.5524  -20.5248 H   0  0  0  0  0  0  0  0  0  0  0  0
    7.3859    5.8754  -21.5702 H   0  0  0  0  0  0  0  0  0  0  0  0
    7.0183    2.5453  -19.9421 H   0  0  0  0  0  0  0  0  0  0  0  0
    7.6694    3.4554  -21.3472 H   0  0  0  0  0  0  0  0  0  0  0  0
    5.3168    5.2720  -22.2014 H   0  0  0  0  0  0  0  0  0  0  0  0
    6.2015    4.0856  -23.2194 H   0  0  0  0  0  0  0  0  0  0  0  0
    4.4148    3.9813  -23.0655 H   0  0  0  0  0  0  0  0  0  0  0  0
    3.4110    3.4127  -20.8266 H   0  0  0  0  0  0  0  0  0  0  0  0
    3.1098    4.4734  -17.5649 H   0  0  0  0  0  0  0  0  0  0  0  0
    2.2846    3.7823  -18.9219 H   0  0  0  0  0  0  0  0  0  0  0  0
    3.5768   -0.8437  -19.8237 H   0  0  0  0  0  0  0  0  0  0  0  0
  1  2  2  0  0  0  0
  1  8  1  0  0  0  0
  2 10  1  0  0  0  0
  3  4  2  0  0  0  0
  3  9  1  0  0  0  0
  4 11  1  0  0  0  0
  5  7  1  0  0  0  0
  5  8  2  0  0  0  0
  6  9  2  0  0  0  0
  6 21  1  0  0  0  0
  7 10  2  0  0  0  0
  7 18  1  0  0  0  0
  8 24  1  0  0  0  0
  9 26  1  0  0  0  0
 10 27  1  0  0  0  0
 11 13  1  0  0  0  0
 11 21  2  0  0  0  0
 12 22  2  0  0  0  0
 12 23  1  0  0  0  0
 12 28  1  0  0  0  0
 13 24  1  0  0  0  0
 13 25  2  0  0  0  0
 14 15  1  0  0  0  0
 14 16  1  0  0  0  0
 15 19  1  0  0  0  0
 16 19  1  0  0  0  0
 17 18  1  0  0  0  0
 17 19  1  0  0  0  0
 18 20  1  0  0  0  0
 18 22  1  0  0  0  0
 19 28  1  0  0  0  0
  1 29  1  0  0  0  0
  2 30  1  0  0  0  0
  3 31  1  0  0  0  0
  4 32  1  0  0  0  0
  5 33  1  0  0  0  0
  6 34  1  0  0  0  0
 14 35  1  0  0  0  0
 14 36  1  0  0  0  0
 15 37  1  0  0  0  0
 15 38  1  0  0  0  0
 16 39  1  0  0  0  0
 16 40  1  0  0  0  0
 17 41  1  0  0  0  0
 17 42  1  0  0  0  0
 20 43  1  0  0  0  0
 20 44  1  0  0  0  0
 20 45  1  0  0  0  0
 22 46  1  0  0  0  0
 23 47  1  0  0  0  0
 23 48  1  0  0  0  0
 24 49  1  0  0  0  0
M  CHG  1  22   1
M  END
> <OMEGA_C>
cpHCQFY/c7+u6a/Bz4PYQACP/bwbX7bBc+E9QDRrmcAztYnB7353QAt2i8A9kJHBBlecQPBGYj/J
bKfBex7rP1OXKcAADYvBgeSxQO4l6T8N0q3BNomkQPZd9b7DXqjBU6/3P3eVe8CieIbBJJzQQD9u
rD/7XbXBppxtQB0dRMD465XB9YiKQJK0gEDGdJnBLByUQFBTJMDkMZ7BIkEBQY4QzUDiHZzBMocG
QWBynUBjY5rBmbrgQKzxvkCESaTBjPnbQNEkW0DPs6TBmE6wQNt3UkCPdqrBLBrfQBLdlECB+p3B
cSqrQKA2h0DDTrTB6qItQJZUD8BfkJLBOfmJQEHwZEBRZaPB31BIQKIxg0Ap8JPBBdiMQF7Kor9p
jKHBdTKyQJ/AT8CgYqHB75SEP5SKisDDJn7B2bPoQHI4DEAwT7vBUuW4QAANk0Dd/ZLBNZnIQHGT
AMBttLDBsZvvQHN8xL6JJbzBUyVEQBjbuMCJNIbBnVeVQO0PoMBSPpTBef+EQPH4nD8mrKHBAhaG
PwgJ/r+QgojBGob1QAJx3UArCZXBAnAOQQwW4EBnfZ/BK/oSQSh7kECOsp/BShYKQWN1lEBxEZLB
ve3CQN2s0UCxMqTBjlnsQE0DvEC3j6zBkZXgQMLmIkBUiZ/BZmv1QNAkXUApx6rBaSOqQG+0qECM
nLHBanLGQDW9gkBCwbnBLkaNQNPMfkA5hrjBw01aQC9pWkDrnKbBRwdHQDImj0DohIzBTTYSQKMR
ckD5X5fBL+pkQGT6V78Al57B

> <OMEGA_E>
iFzBPg==

> <OMEGA_NBR>
     84294

$$$$
450310
  -OEChem-04172616093D

 49 52  0     1  0  0  0  0  0999 V2000
    6.0952   -0.9493  -21.9855 C   0  0  0  0  0  0  0  0  0  0  0  0
    6.7621   -0.0279  -22.8070 C   0  0  0  0  0  0  0  0  0  0  0  0
    1.7858   -2.6627  -17.2800 C   0  0  0  0  0  0  0  0  0  0  0  0
    2.6754   -2.2039  -18.2509 C   0  0  0  0  0  0  0  0  0  0  0  0
    4.9093    0.8845  -20.9120 C   0  0  0  0  0  0  0  0  0  0  0  0
    2.9490   -4.7941  -17.3391 C   0  0  0  0  0  0  0  0  0  0  0  0
    5.5608    1.8235  -21.7266 C   0  0  0  0  0  0  0  0  0  0  0  0
    5.1721   -0.4780  -21.0301 C   0  0  0  0  0  0  0  0  0  0  0  0
    6.5092    1.3503  -22.6823 C   0  0  0  0  0  0  0  0  0  0  0  0
    1.9251   -3.9744  -16.8172 C   0  0  0  0  0  0  0  0  0  0  0  0
    3.6927   -3.0688  -18.7443 C   0  0  0  0  0  0  0  0  0  0  0  0
    4.3270    4.0760  -19.2112 C   0  0  0  0  0  0  0  0  0  0  0  0
    4.6319   -2.5710  -19.7630 C   0  0  0  0  0  0  0  0  0  0  0  0
    8.1332    6.4681  -19.7060 C   0  0  0  0  0  0  0  0  0  0  0  0
    8.3983    4.9878  -19.3814 C   0  0  0  0  0  0  0  0  0  0  0  0
    7.0850    5.9969  -20.7210 C   0  0  0  0  0  0  0  0  0  0  0  0
    6.8489    3.4579  -20.6007 C   0  0  0  0  0  0  0  0  0  0  0  0
    5.4919    3.2961  -21.3228 C   0  0  1  0  0  0  0  0  0  0  0  0
    6.9621    4.7416  -19.8459 C   0  0  0  0  0  0  0  0  0  0  0  0
    5.3093    4.2161  -22.5625 C   0  0  0  0  0  0  0  0  0  0  0  0
    3.8076   -4.3387  -18.2821 N   0  0  0  0  0  0  0  0  0  0  0  0
    4.3009    3.5771  -20.4326 N   0  3  0  0  0  0  0  0  0  0  0  0
    3.1589    4.0518  -18.4659 N   0  0  0  0  0  0  0  0  0  0  0  0
    4.4409   -1.2658  -20.1698 N   0  0  0  0  0  0  0  0  0  0  0  0
    5.5575   -3.2677  -20.1650 O   0  0  0  0  0  0  0  0  0  0  0  0
    7.2423    2.1955  -23.4429 F   0  0  0  0  0  0  0  0  0  0  0  0
    5.7411    4.8364  -18.4934 S   0  0  0  0  0  0  0  0  0  0  0  0
    0.8386   -4.5732  -15.5975 Cl  0  0  0  0  0  0  0  0  0  0  0  0
    6.2869   -2.0076  -22.0840 H   0  0  0  0  0  0  0  0  0  0  0  0
    7.4740   -0.3789  -23.5394 H   0  0  0  0  0  0  0  0  0  0  0  0
    1.0079   -2.0201  -16.8949 H   0  0  0  0  0  0  0  0  0  0  0  0
    2.5929   -1.1951  -18.6276 H   0  0  0  0  0  0  0  0  0  0  0  0
    4.1913    1.2246  -20.1805 H   0  0  0  0  0  0  0  0  0  0  0  0
    3.0498   -5.8071  -16.9784 H   0  0  0  0  0  0  0  0  0  0  0  0
    7.7279    7.0547  -18.8685 H   0  0  0  0  0  0  0  0  0  0  0  0
    8.9894    7.0004  -20.1461 H   0  0  0  0  0  0  0  0  0  0  0  0
    9.1743    4.5088  -19.9966 H   0  0  0  0  0  0  0  0  0  0  0  0
    8.5869    4.7714  -18.3195 H   0  0  0  0  0  0  0  0  0  0  0  0
    6.1780    6.6170  -20.7742 H   0  0  0  0  0  0  0  0  0  0  0  0
    7.4682    5.8198  -21.7367 H   0  0  0  0  0  0  0  0  0  0  0  0
    6.9707    2.6242  -19.8936 H   0  0  0  0  0  0  0  0  0  0  0  0
    7.6516    3.4217  -21.3520 H   0  0  0  0  0  0  0  0  0  0  0  0
    5.2637    5.2659  -22.2372 H   0  0  0  0  0  0  0  0  0  0  0  0
    6.1593    4.0812  -23.2475 H   0  0  0  0  0  0  0  0  0  0  0  0
    4.3755    3.9520  -23.0805 H   0  0  0  0  0  0  0  0  0  0  0  0
    3.3998    3.3623  -20.8093 H   0  0  0  0  0  0  0  0  0  0  0  0
    3.1402    4.4582  -17.5524 H   0  0  0  0  0  0  0  0  0  0  0  0
    2.3348    3.6279  -18.8415 H   0  0  0  0  0  0  0  0  0  0  0  0
    3.6387   -0.8185  -19.7741 H   0  0  0  0  0  0  0  0  0  0  0  0
  1  2  2  0  0  0  0
  1  8  1  0  0  0  0
  2  9  1  0  0  0  0
  3  4  2  0  0  0  0
  3 10  1  0  0  0  0
  4 11  1  0  0  0  0
  5  7  1  0  0  0  0
  5  8  2  0  0  0  0
  6 10  2  0  0  0  0
  6 21  1  0  0  0  0
  7  9  2  0  0  0  0
  7 18  1  0  0  0  0
  8 24  1  0  0  0  0
  9 26  1  0  0  0  0
 10 28  1  0  0  0  0
 11 13  1  0  0  0  0
 11 21  2  0  0  0  0
 12 22  2  0  0  0  0
 12 23  1  0  0  0  0
 12 27  1  0  0  0  0
 13 24  1  0  0  0  0
 13 25  2  0  0  0  0
 14 15  1  0  0  0  0
 14 16  1  0  0  0  0
 15 19  1  0  0  0  0
 16 19  1  0  0  0  0
 17 18  1  0  0  0  0
 17 19  1  0  0  0  0
 18 20  1  0  0  0  0
 18 22  1  0  0  0  0
 19 27  1  0  0  0  0
  1 29  1  0  0  0  0
  2 30  1  0  0  0  0
  3 31  1  0  0  0  0
  4 32  1  0  0  0  0
  5 33  1  0  0  0  0
  6 34  1  0  0  0  0
 14 35  1  0  0  0  0
 14 36  1  0  0  0  0
 15 37  1  0  0  0  0
 15 38  1  0  0  0  0
 16 39  1  0  0  0  0
 16 40  1  0  0  0  0
 17 41  1  0  0  0  0
 17 42  1  0  0  0  0
 20 43  1  0  0  0  0
 20 44  1  0  0  0  0
 20 45  1  0  0  0  0
 22 46  1  0  0  0  0
 23 47  1  0  0  0  0
 23 48  1  0  0  0  0
 24 49  1  0  0  0  0
M  CHG  1  22   1
M  END
> <OMEGA_C>
7gvDQNADc79B4q/BgWPYQJi35LyodLbBk5TkP5lpKsBoPYrBXTorQHUMDcDrAZLBMhmdQJFtYj/O
S6fBa7w8QDdpmcCUtorBCfKxQCln6T/+z63B+IGlQEK49L6dPajBmEvQQCrXrD9EdbXBUWr2P39c
fsCRiYbBy1RsQGlnRMA+9JXB7naKQFxugkCCsJnBljiUQJWKJMC5Gp7BwiECQU/6zkD9pZ3BeF8G
Qcibn0AxDZvBbLjiQMvmv0CGxKXBbSrbQNtNXUBIzqTB5L2vQCPzUkAYlarBYMneQNC6l0B3xJ7B
Z+WpQETqhkAEgLTB4K9zQEbWisDNQZLBEaGJQJvvZEDxdaPB/ytKQA6ogUAaupPBlBuOQKsEor+r
W6HBU9exQL8hUcACUqHB/cDnQEeDDEAJi7vB/ra3QIjDmkCA8pPBZrBWP+pXksCBj3nBNS7JQMF7
AMALrLDBxSrvQDz+wb7FULzB8QGBP0dJAcCsKIfBZ/ElQNb3mL9IBZXBHR+GQMbAnD+icaHBfzBD
QGfTucDE04fB6kr3QBXA4UCe8pbBZdQPQU4D4EBJK6HB0MkSQSBIkEAh+Z/BzWMJQTWvmEBtjpLB
SLLFQJm+00CYMabBz/vuQKk7ukDK5K3Byg/fQDDyJ0AAJp/BK9r0QI/8WkDR0KrBAnCoQDSCqEC2
5bHBJBnFQGKZgkDb+rnB6AOMQPbtfEDjpLjBwJZZQKcwV0B1eabBmfhIQKOpjkBKa4zBn20VQMAu
aEB4u5bBDOFoQFCJUb9gMZ7B

> <OMEGA_E>
PHQEPw==

> <OMEGA_NBR>
     85416

$$$$
450372
  -OEChem-04172616093D

 47 50  0     1  0  0  0  0  0999 V2000
    6.0712   -0.9296  -21.9993 C   0  0  0  0  0  0  0  0  0  0  0  0
    6.7595   -0.0148  -22.8121 C   0  0  0  0  0  0  0  0  0  0  0  0
    2.9570   -4.7760  -17.2138 C   0  0  0  0  0  0  0  0  0  0  0  0
    3.8587   -4.3339  -18.1919 C   0  0  0  0  0  0  0  0  0  0  0  0
    4.9071    0.9155  -20.9267 C   0  0  0  0  0  0  0  0  0  0  0  0
    1.8327   -2.6277  -17.3656 C   0  0  0  0  0  0  0  0  0  0  0  0
    5.5836    1.8499  -21.7309 C   0  0  0  0  0  0  0  0  0  0  0  0
    5.1479   -0.4510  -21.0447 C   0  0  0  0  0  0  0  0  0  0  0  0
    1.9281   -3.9131  -16.8016 C   0  0  0  0  0  0  0  0  0  0  0  0
    6.5313    1.3675  -22.6803 C   0  0  0  0  0  0  0  0  0  0  0  0
    3.7079   -3.0355  -18.7285 C   0  0  0  0  0  0  0  0  0  0  0  0
    4.3280    3.9848  -19.1853 C   0  0  0  0  0  0  0  0  0  0  0  0
    4.6221   -2.5384  -19.7667 C   0  0  0  0  0  0  0  0  0  0  0  0
    6.9028    3.4831  -20.6004 C   0  0  0  0  0  0  0  0  0  0  0  0
    7.1171    6.0634  -20.4136 C   0  0  0  0  0  0  0  0  0  0  0  0
    8.4020    4.9604  -19.1871 C   0  0  0  0  0  0  0  0  0  0  0  0
    5.5380    3.3224  -21.3167 C   0  0  1  0  0  0  0  0  0  0  0  0
    6.9542    4.6754  -19.6991 C   0  0  0  0  0  0  0  0  0  0  0  0
    5.3736    4.2670  -22.5373 C   0  0  0  0  0  0  0  0  0  0  0  0
    2.7101   -2.2118  -18.3025 N   0  0  0  0  0  0  0  0  0  0  0  0
    4.3297    3.6035  -20.4474 N   0  3  0  0  0  0  0  0  0  0  0  0
    3.1265    3.9749  -18.4957 N   0  0  0  0  0  0  0  0  0  0  0  0
    4.4094   -1.2364  -20.1786 N   0  0  0  0  0  0  0  0  0  0  0  0
    5.5449   -3.2289  -20.1847 O   0  0  0  0  0  0  0  0  0  0  0  0
    8.4011    6.1708  -19.8814 O   0  0  0  0  0  0  0  0  0  0  0  0
    1.0339   -4.3134  -15.8727 F   0  0  0  0  0  0  0  0  0  0  0  0
    7.2834    2.2071  -23.4282 F   0  0  0  0  0  0  0  0  0  0  0  0
    5.7429    4.6005  -18.3572 S   0  0  0  0  0  0  0  0  0  0  0  0
    6.2465   -1.9901  -22.1036 H   0  0  0  0  0  0  0  0  0  0  0  0
    7.4686   -0.3743  -23.5431 H   0  0  0  0  0  0  0  0  0  0  0  0
    3.0518   -5.7626  -16.7847 H   0  0  0  0  0  0  0  0  0  0  0  0
    4.6577   -4.9768  -18.5306 H   0  0  0  0  0  0  0  0  0  0  0  0
    4.1859    1.2649  -20.2027 H   0  0  0  0  0  0  0  0  0  0  0  0
    1.0447   -1.9632  -17.0434 H   0  0  0  0  0  0  0  0  0  0  0  0
    7.0913    2.5813  -19.9994 H   0  0  0  0  0  0  0  0  0  0  0  0
    7.6887    3.5863  -21.3631 H   0  0  0  0  0  0  0  0  0  0  0  0
    7.0867    6.0119  -21.5120 H   0  0  0  0  0  0  0  0  0  0  0  0
    6.4172    6.8363  -20.0632 H   0  0  0  0  0  0  0  0  0  0  0  0
    8.4804    5.0677  -18.0952 H   0  0  0  0  0  0  0  0  0  0  0  0
    9.1544    4.2396  -19.5397 H   0  0  0  0  0  0  0  0  0  0  0  0
    5.3460    5.3112  -22.1924 H   0  0  0  0  0  0  0  0  0  0  0  0
    6.2223    4.1300  -23.2237 H   0  0  0  0  0  0  0  0  0  0  0  0
    4.4362    4.0291  -23.0613 H   0  0  0  0  0  0  0  0  0  0  0  0
    3.4348    3.4871  -20.8782 H   0  0  0  0  0  0  0  0  0  0  0  0
    3.0870    4.3125  -17.5553 H   0  0  0  0  0  0  0  0  0  0  0  0
    2.2988    3.6301  -18.9384 H   0  0  0  0  0  0  0  0  0  0  0  0
    3.5992   -0.7958  -19.7921 H   0  0  0  0  0  0  0  0  0  0  0  0
  1  2  2  0  0  0  0
  1  8  1  0  0  0  0
  2 10  1  0  0  0  0
  3  4  2  0  0  0  0
  3  9  1  0  0  0  0
  4 11  1  0  0  0  0
  5  7  1  0  0  0  0
  5  8  2  0  0  0  0
  6  9  2  0  0  0  0
  6 20  1  0  0  0  0
  7 10  2  0  0  0  0
  7 17  1  0  0  0  0
  8 23  1  0  0  0  0
  9 26  1  0  0  0  0
 10 27  1  0  0  0  0
 11 13  1  0  0  0  0
 11 20  2  0  0  0  0
 12 21  2  0  0  0  0
 12 22  1  0  0  0  0
 12 28  1  0  0  0  0
 13 23  1  0  0  0  0
 13 24  2  0  0  0  0
 14 17  1  0  0  0  0
 14 18  1  0  0  0  0
 15 18  1  0  0  0  0
 15 25  1  0  0  0  0
 16 18  1  0  0  0  0
 16 25  1  0  0  0  0
 17 19  1  0  0  0  0
 17 21  1  0  0  0  0
 18 28  1  0  0  0  0
  1 29  1  0  0  0  0
  2 30  1  0  0  0  0
  3 31  1  0  0  0  0
  4 32  1  0  0  0  0
  5 33  1  0  0  0  0
  6 34  1  0  0  0  0
 14 35  1  0  0  0  0
 14 36  1  0  0  0  0
 15 37  1  0  0  0  0
 15 38  1  0  0  0  0
 16 39  1  0  0  0  0
 16 40  1  0  0  0  0
 19 41  1  0  0  0  0
 19 42  1  0  0  0  0
 19 43  1  0  0  0  0
 21 44  1  0  0  0  0
 22 45  1  0  0  0  0
 22 46  1  0  0  0  0
 23 47  1  0  0  0  0
M  CHG  1  21   1
M  END
> <OMEGA_C>
M0fCQCL5bb+f/q/B/03YQCBncrwyf7bB2D89QCTVmMDEtYnBwvV2QO2uisD1iJHBvwadQPxgaj/h
aafBIJfqP8grKMC57IrB0ayyQLzK7D/w2K3B8rukQE3j5r6FW6jBz8v2P+hwesC8aYbBzQDRQKIJ
rz9WcbXB/01tQK9FQsD905XBXH+KQJUGf0CSe5nBKOiTQAF1IsAhIp7BlOPcQMHqXkCdzaTBcr/j
QD0HwkAXT6PBc24GQby7nkA0f5nBfzexQESiVECdiKrBKYneQO+clUDSl53B7PSrQEKLiEBmTLTB
+XEtQOKNDcB8a5LB34yKQCqgZkBClKPBURlIQDdkfkBG95PBCxqNQEhCnr/gbaHB6W+xQBimTsBQ
eqHBumoGQS93xUAKDZ/B7VaEPyQHisCo9n3B+hHpQLdBDUD5bLvB0cW3QPI2k0B325LBZuPHQDW9
/r8T1LDB9/7uQM2jv74+WLzBSFBDQDNnuMATR4bBHgyVQJ9Bn8CSPpTBr/KFQPrnoT8On6HBYbeF
Px5K+7/fWIjBm+viQIwzJUC8/p/Bxgn2QMOFZUCY56rBaMbiQKNhwECQGKzBkVnNQJvC2kCJgaDB
3K8HQYkqokDpwpDBRHgSQfCqh0BjUZzBRhKrQCT1qUAcirHBxBzHQFAphEATyrnBKPWNQDvugEB8
fbjB19NbQMksX0CaBqfBlJFFQAUAikA9cYzBkB8TQDBTaEDfgZfBNFlmQOq5S79IVp7B

> <OMEGA_E>
5KDgPg==

> <OMEGA_NBR>
     86505

$$$$
450373
  -OEChem-04172616093D

 53 56  0     1  0  0  0  0  0999 V2000
    6.0091   -0.9154  -21.9803 C   0  0  0  0  0  0  0  0  0  0  0  0
    6.6939   -0.0165  -22.8087 C   0  0  0  0  0  0  0  0  0  0  0  0
    3.0283   -4.8207  -17.1945 C   0  0  0  0  0  0  0  0  0  0  0  0
    3.9063   -4.3544  -18.1829 C   0  0  0  0  0  0  0  0  0  0  0  0
    4.8970    0.9473  -20.8813 C   0  0  0  0  0  0  0  0  0  0  0  0
    1.8102   -2.7262  -17.3768 C   0  0  0  0  0  0  0  0  0  0  0  0
    5.5612    1.8651  -21.7165 C   0  0  0  0  0  0  0  0  0  0  0  0
    5.1201   -0.4243  -20.9995 C   0  0  0  0  0  0  0  0  0  0  0  0
    1.9672   -3.9946  -16.7884 C   0  0  0  0  0  0  0  0  0  0  0  0
    6.4893    1.3658  -22.6770 C   0  0  0  0  0  0  0  0  0  0  0  0
    3.7002   -3.0691  -18.7340 C   0  0  0  0  0  0  0  0  0  0  0  0
    4.3499    3.9889  -19.2058 C   0  0  0  0  0  0  0  0  0  0  0  0
    4.6141   -2.5301  -19.7488 C   0  0  0  0  0  0  0  0  0  0  0  0
    8.4265    4.5910  -19.0466 C   0  0  0  0  0  0  0  0  0  0  0  0
    6.8661    6.0066  -20.4968 C   0  0  0  0  0  0  0  0  0  0  0  0
    6.9025    3.4850  -20.6150 C   0  0  0  0  0  0  0  0  0  0  0  0
    8.6670    5.8002  -18.1203 C   0  0  0  0  0  0  0  0  0  0  0  0
    7.7863    7.1103  -19.9688 C   0  0  0  0  0  0  0  0  0  0  0  0
    5.5331    3.3438  -21.3388 C   0  0  1  0  0  0  0  0  0  0  0  0
    7.0303    4.6757  -19.6994 C   0  0  0  0  0  0  0  0  0  0  0  0
    5.3714    4.2324  -22.6075 C   0  0  0  0  0  0  0  0  0  0  0  0
    2.6640   -2.2874  -18.3243 N   0  0  0  0  0  0  0  0  0  0  0  0
    4.3357    3.6693  -20.4821 N   0  3  0  0  0  0  0  0  0  0  0  0
    3.1556    3.9553  -18.5037 N   0  0  0  0  0  0  0  0  0  0  0  0
    4.3985   -1.2138  -20.1214 N   0  0  0  0  0  0  0  0  0  0  0  0
    5.5562   -3.1958  -20.1646 O   0  0  0  0  0  0  0  0  0  0  0  0
    7.9266    6.9776  -18.5434 O   0  0  0  0  0  0  0  0  0  0  0  0
    1.1024   -4.4119  -15.8394 F   0  0  0  0  0  0  0  0  0  0  0  0
    7.2469    2.1877  -23.4390 F   0  0  0  0  0  0  0  0  0  0  0  0
    5.7863    4.5156  -18.3549 S   0  0  0  0  0  0  0  0  0  0  0  0
    6.1606   -1.9790  -22.0915 H   0  0  0  0  0  0  0  0  0  0  0  0
    7.3827   -0.3891  -23.5524 H   0  0  0  0  0  0  0  0  0  0  0  0
    3.1651   -5.7970  -16.7535 H   0  0  0  0  0  0  0  0  0  0  0  0
    4.7287   -4.9687  -18.5187 H   0  0  0  0  0  0  0  0  0  0  0  0
    4.2037    1.3109  -20.1373 H   0  0  0  0  0  0  0  0  0  0  0  0
    0.9925   -2.0935  -17.0645 H   0  0  0  0  0  0  0  0  0  0  0  0
    9.1940    4.5811  -19.8346 H   0  0  0  0  0  0  0  0  0  0  0  0
    8.4943    3.6649  -18.4569 H   0  0  0  0  0  0  0  0  0  0  0  0
    5.8226    6.3442  -20.4128 H   0  0  0  0  0  0  0  0  0  0  0  0
    7.1069    5.8192  -21.5536 H   0  0  0  0  0  0  0  0  0  0  0  0
    7.0646    2.5770  -20.0156 H   0  0  0  0  0  0  0  0  0  0  0  0
    7.6860    3.5620  -21.3833 H   0  0  0  0  0  0  0  0  0  0  0  0
    8.3525    5.5324  -17.1008 H   0  0  0  0  0  0  0  0  0  0  0  0
    9.7409    6.0385  -18.1220 H   0  0  0  0  0  0  0  0  0  0  0  0
    8.7744    7.0223  -20.4441 H   0  0  0  0  0  0  0  0  0  0  0  0
    7.3524    8.0932  -20.2044 H   0  0  0  0  0  0  0  0  0  0  0  0
    5.3535    5.2923  -22.3137 H   0  0  0  0  0  0  0  0  0  0  0  0
    6.2164    4.0553  -23.2892 H   0  0  0  0  0  0  0  0  0  0  0  0
    4.4301    3.9771  -23.1163 H   0  0  0  0  0  0  0  0  0  0  0  0
    3.4414    3.6394  -20.9286 H   0  0  0  0  0  0  0  0  0  0  0  0
    3.1334    4.2270  -17.5416 H   0  0  0  0  0  0  0  0  0  0  0  0
    2.3160    3.6594  -18.9592 H   0  0  0  0  0  0  0  0  0  0  0  0
    3.6094   -0.7711  -19.6955 H   0  0  0  0  0  0  0  0  0  0  0  0
  1  2  2  0  0  0  0
  1  8  1  0  0  0  0
  2 10  1  0  0  0  0
  3  4  2  0  0  0  0
  3  9  1  0  0  0  0
  4 11  1  0  0  0  0
  5  7  1  0  0  0  0
  5  8  2  0  0  0  0
  6  9  2  0  0  0  0
  6 22  1  0  0  0  0
  7 10  2  0  0  0  0
  7 19  1  0  0  0  0
  8 25  1  0  0  0  0
  9 28  1  0  0  0  0
 10 29  1  0  0  0  0
 11 13  1  0  0  0  0
 11 22  2  0  0  0  0
 12 23  2  0  0  0  0
 12 24  1  0  0  0  0
 12 30  1  0  0  0  0
 13 25  1  0  0  0  0
 13 26  2  0  0  0  0
 14 17  1  0  0  0  0
 14 20  1  0  0  0  0
 15 18  1  0  0  0  0
 15 20  1  0  0  0  0
 16 19  1  0  0  0  0
 16 20  1  0  0  0  0
 17 27  1  0  0  0  0
 18 27  1  0  0  0  0
 19 21  1  0  0  0  0
 19 23  1  0  0  0  0
 20 30  1  0  0  0  0
  1 31  1  0  0  0  0
  2 32  1  0  0  0  0
  3 33  1  0  0  0  0
  4 34  1  0  0  0  0
  5 35  1  0  0  0  0
  6 36  1  0  0  0  0
 14 37  1  0  0  0  0
 14 38  1  0  0  0  0
 15 39  1  0  0  0  0
 15 40  1  0  0  0  0
 16 41  1  0  0  0  0
 16 42  1  0  0  0  0
 17 43  1  0  0  0  0
 17 44  1  0  0  0  0
 18 45  1  0  0  0  0
 18 46  1  0  0  0  0
 21 47  1  0  0  0  0
 21 48  1  0  0  0  0
 21 49  1  0  0  0  0
 23 50  1  0  0  0  0
 24 51  1  0  0  0  0
 24 52  1  0  0  0  0
 25 53  1  0  0  0  0
M  CHG  1  23   1
M  END
> <OMEGA_C>
lErAQBpZar+u16/BSDTWQDDthrxCeLbB285BQNJCmsBujonBwgB6QKJXi8CjdpHBN7ScQJKBcj/v
DKfBb7TnP/15LsCXA4vBdfWxQK287j9mu63BkNejQI852b70/qfB6sz7P9mnf8CRTobB8qfPQOfR
rj9xarXBzs9sQOtrRMA535XBlDKLQFNJf0BjpZnByaaTQBHtIcCg/Z3BGNMGQdLpkkBiX5jBLLfb
QFQ2wEBt+aPB6ODcQO0JX0CU66TBG6wKQfSauUBr9pDBein5QJ+H40AhwJ/BJA+xQG8BVkDRtarB
VfjgQBSflUBgmJ3Bs+KrQNNvh0A43LTBiX8qQKNkEsBDmJLBp72KQFnWakBX26PBA/VJQPcjfUCR
B5TBQsCMQGFfm7+m+KDBO8yxQMqITMAjUaHB26b9QEBI30DPWJTBMRqNP00ujcA+bn3BWubnQCID
DEATg7vBjim5QLZ/kEDK1pLBjyPFQDxO/b9eu7DB6j7sQKQ6x75ba7zBoZBKQKqAucAtB4bBn1GX
QJb/nsA9JpTB9ISGQFDLpz8sGaHBCRd+Pzr7BcAnhIjBlxoTQQ+YkkArrZ7B0OgHQauNakDVp5PB
jFK6QAIEy0BZTaPBl2vjQNc2ukDSbazBkBHiQMPtJED/H6DBZvP1QLb3Y0DtEKvBzKMFQT8JsUCA
zojBo9obQbA7wUDr+ZDB8GMMQVa24ECYjaPBfkbrQOl9AUGxoqHB8E+rQFJaqUBugrLBqOzGQKTE
gUA/ULrBv8ONQDmJfkAl7rjBKj9cQHjraEC3bafB44hIQLBDh0AhVYzByTgUQCI0akB5rJfBXQBn
QExpRb9ykJ3BorfIQGbpXb/g863B5vrfQEDPOz0OK7TB+5I2QCVKncCs14rBA0BwQErkjcC2hZLB
s1WfQF63eT/QkqbBGDDjP85HL8Av+orB6JO1QM8M9T/6+azB5oyoQDCmyr7R9qbBaAjtP+PCgcB+
BIfByOvWQHM1tj8PvLPBHJ9oQFxXRsDcKJbBwKqKQPKXhUBSGJvB/eqSQFloI8ADAJ7B1YLuQAYr
T0ACm5zBK+IBQdRss0DDCKLBsq7KQCfxjkDsQqzB6WsEQaCOW0AEdZLBWJMOQRBntUCnjZfBB3Wm
QObiWUAECK3BVYXeQM4rk0D/IKHBooWQQDxLaUCo57fBp8opQBo4EsBDWpLBVFGEQISraUDBpaTB
Q7ddQCikdkBN2JLBNyOPQEjHmb+YcKDBA2qvQIDNUMByoqHBz6IVQdIKi0Dzl5TBkC95P7SBj8DD
H3/BtFvuQLgPD0AuE7rBu+K0QDO9qECvb5jBV1rPQCtW9r8Pga7B2iX5QDXkn76fWbnBQVY7QMG6
vcBH7IfBvP6QQGRqosCZoZXBopGGQP+sqT/jPKHBQASAPzIgBcBSEYjBEToBQVlxL0AuraLBhq3S
QIOsJkDxwprBSMH2QLFX00DY0aPBkJ0MQbBoqUA9i6jBAyPkQEoGhkCB6rHB/0q9QKowrkAci67B
/FT0QOa3dUDOGIzBWQILQRmeHUAW4Y/B2JUcQX1FykB1oJjBVVAEQXFowkCeL5HB8T+FQKXylUAG
V7jBT4inQM5cXUAoZb7BrEBqQMWZPUA+vrjB9KNMQA82WUCEhqbBS2FmQC3wh0DCkovBae4sQNSV
TkBUKpTBINNsQERhPL+z/JzBiUHFQAx3fL8N+67BGXfcQE4Ki73pGbXBd/c5QFemnMB4e4rBxoZ0
QJzRjcA4GpLBbyieQMw1Vz8vnKbBTOPjPwqhL8B1d4vBD5G0QIpD4z87z6zBN9+lQAZKBb+OxKfB
Pm7vP2BUgcD2KofB2tjTQLfKpj/MQbTBmC9rQHHpR8BQLZbBEW+MQBrNhkDTn5rBNZqTQP7iJsDg
Jp7BQVv8QJD7v0CQ2KXBai2wQNMxyEAsbq3BXOzSQM8sgEAfJKrBIxn8QBGO8EAIm6TBQzO1QDMT
+EC6qqvBf1aoQIMAUEBYE6zBYEzOQFZ9rUD+D6bBnaqSQFZKZUAE/7bBQt4qQBbAE8DeyJLBIlGH
QEEXYEBSaqPBqDRYQADshUBAB5PBcYWLQAuDqr9FzaHBAbWzQMxlT8BAoqDBM4LhQKmaAUE/x6zB
xxF2P6PdjsCp5X/Be7joQODXB0CgGbvB11a4QIsvqUDKi5jBaE7LQITgAsCAxK/BehT1QALs1L5I
fbrBNaE/QHmDvMBhNofBcgqUQIMaosC60pTBKbCGQB4vlz/z4aDBcaR8P2WcBcCB3YjBtkoGQdan
t0BaX63B4uwGQZjSsUBvFJ/BYdOOQD0wv0AHvqvB3L+3QEzWwEBA07XB0aDlQDvwW0CzPKTB+Hfk
QPNUgUC3w7HBpGTvQD4K+UB9rZzBSHcOQQjY/EAeZaXBfCqiQObLBEGEorHBBBiqQLM9AEHTlaPB
T96IQNRzlEDqE7fBtn2pQC+XWUCoiL3BR7VsQOhePEDWFLjB3iRVQD1ORUCcfKTBEwpcQEWNmECj
iozBbL4lQNBQZUCeCZTBGfddQNb2cr9t4J/BQgbCQPjTbL8be6/BqBfYQCDfqLwbBrbBekDtP2Eb
M8AfYonByswqQDUOE8AiiJHBAgKeQARTbj81sabB+2lFQCBnnMDzlYrBR0uzQOwv7T+GVK3BoVil
QO3S4b5tp6fB4nIEQPp9g8BC1YXBV27RQGwZrj/X7bTBywRsQEm2R8Av85XBzUSKQGILgUBUqZnB
YbWSQPH/JMAGNJ7Bz5kGQZJokkClr5fB4tbbQDjSv0A3iqPBZePcQMtoXkCjPKTBsg0MQeCju0C5
t5HBDBfrQC6P5kC+Jp3Br+axQA5cVUC6XKrBOaTgQCLBlUDSB53BuYuuQK65hkBJqLTBv4R3QFCQ
jMAweJLB9NWKQFlMakCkxaPB07FGQCSfgUB8WpTBO4COQH+Pnb8bk6DB6zmuQFqxUsAMPKLBSscK
QWAU30AZE5nBXBSnP1fak8Bh23vBI/DpQPATDEAu6LrBjM+3QOeJkUCijpLBjuvGQLhv/r/1arDB
Z1ruQDe8xr5V8bvBJJ2JP1oaDMCq54XBfp8hQMxSpb9pdJTBJqeHQN0npT9mw6DBL11PQAHVvMDE
3ofBn8ASQUOojEA0453BWYwGQaghb0BV/pHBTvG5QHdGxEB5oqXBCvjuQPBKvUBe5qrBHBvhQBjc
JEB2R5/BRcP2QOrkYUDvL6rB/pwAQUN2wEDQI4vBJlwcQXN0uUCkc47BJnjrQEpwAUGeYKLBFBrV
QE4j7EAobJbBGpKtQO+9qEBuaLLBmobKQLjRgEDkybnB3CyRQP3BfEAyCbnB+wVdQIGmZUD/cqfB
5cpDQMg3i0DzuozB2moRQEXicEBXJZjBD8puQCGCQb8ZjZzBuezIQJOYXL9Ls63B8OHfQKQHQD0Z
BbTBYybaPxZsM8D3SYrByMkkQAIYE8CgD5LBD3ifQMEzfD9uZabBNEI7QELHnMDGIovB0pm1QO3a
9T+O4qzBh+KoQA7rxr6SsqbBi1nxPzjWg8Cwv4bBuc3WQHVQtj8npbPBuGpnQIupR8AhIZbB5e6K
QA9uhEB+6JrBsFOSQAYUJMAr9p3BfdrvQAHfSkCvfJzBKUUCQdFPskAvMKHBZwrMQN/GjkBGyavB
6FAFQedfVEA/X5LBlC4PQbafskCjxJbBE1anQHPoWkBW4qzBlZbfQK+MkUCUlaDBg4qSQNm/bEDn
2bfBfuJwQLjGjMCWp5LBq8GEQCJNa0Bqq6TBLG9aQAULdkD9BJPBOAaQQLX3mL9tCaDBfG+tQEvR
UsAe+qHBx2oWQf7dh0CcV5TBWIuIP/o/lMBmZH7BhUvuQIb+DkD5/LnBjRW2QNCHpUBWmpfB+LbP
QOme9b+fL67BA9z4QM8pob5nPrnBWNVoP4lBDMBDFofBkCodQOHVpL/R9JTBPLGGQAdKqz9vE6HB
vKlDQB1YvcDgcIjBr8QBQe3xLEAqwKLBDiLUQJrJIUBHvprBgij3QBNm0kD9kKLBCOoMQby7qUA9
3KfBrZDlQDMWhkB1cbHB/TS/QBl2rkBi4q3BpGT2QEB2bED41IvBaAQMQUrOFUBNIJDBtBodQXbY
x0B9rpfBggYFQbtVvkBhNJDBUP2HQE7tl0BEM7jB7AKqQHfGYECFPL7BHJVtQKRSQkC/8LjBNDNN
QHKhXkCh06bBnolhQJ0Th0CKqYvB03MoQGtbUEBtr5TB845xQD6sNr8VHZzB

> <OMEGA_E>
TBH2PlwlDT/Clw4/iMwaP/T7KD8=

> <OMEGA_NBR>
     91242

$$$$
450374
  -OEChem-04172616093D

 53 56  0     1  0  0  0  0  0999 V2000
    6.0091   -0.9154  -21.9803 C   0  0  0  0  0  0  0  0  0  0  0  0
    6.6939   -0.0165  -22.8087 C   0  0  0  0  0  0  0  0  0  0  0  0
    3.0283   -4.8207  -17.1945 C   0  0  0  0  0  0  0  0  0  0  0  0
    3.9063   -4.3544  -18.1829 C   0  0  0  0  0  0  0  0  0  0  0  0
    4.8970    0.9473  -20.8813 C   0  0  0  0  0  0  0  0  0  0  0  0
    1.8102   -2.7262  -17.3768 C   0  0  0  0  0  0  0  0  0  0  0  0
    5.5612    1.8651  -21.7165 C   0  0  0  0  0  0  0  0  0  0  0  0
    5.1201   -0.4243  -20.9995 C   0  0  0  0  0  0  0  0  0  0  0  0
    1.9672   -3.9946  -16.7884 C   0  0  0  0  0  0  0  0  0  0  0  0
    6.4893    1.3658  -22.6770 C   0  0  0  0  0  0  0  0  0  0  0  0
    3.7002   -3.0691  -18.7340 C   0  0  0  0  0  0  0  0  0  0  0  0
    4.3499    3.9889  -19.2058 C   0  0  0  0  0  0  0  0  0  0  0  0
    4.6141   -2.5301  -19.7488 C   0  0  0  0  0  0  0  0  0  0  0  0
    8.4265    4.5910  -19.0466 C   0  0  0  0  0  0  0  0  0  0  0  0
    6.8661    6.0066  -20.4968 C   0  0  0  0  0  0  0  0  0  0  0  0
    6.9025    3.4850  -20.6150 C   0  0  0  0  0  0  0  0  0  0  0  0
    8.6670    5.8002  -18.1203 C   0  0  0  0  0  0  0  0  0  0  0  0
    7.7863    7.1103  -19.9688 C   0  0  0  0  0  0  0  0  0  0  0  0
    5.5331    3.3438  -21.3388 C   0  0  1  0  0  0  0  0  0  0  0  0
    7.0303    4.6757  -19.6994 C   0  0  0  0  0  0  0  0  0  0  0  0
    5.3714    4.2324  -22.6075 C   0  0  0  0  0  0  0  0  0  0  0  0
    2.6640   -2.2874  -18.3243 N   0  0  0  0  0  0  0  0  0  0  0  0
    4.3357    3.6693  -20.4821 N   0  3  0  0  0  0  0  0  0  0  0  0
    3.1556    3.9553  -18.5037 N   0  0  0  0  0  0  0  0  0  0  0  0
    4.3985   -1.2138  -20.1214 N   0  0  0  0  0  0  0  0  0  0  0  0
    5.5562   -3.1958  -20.1646 O   0  0  0  0  0  0  0  0  0  0  0  0
    7.9266    6.9776  -18.5434 O   0  0  0  0  0  0  0  0  0  0  0  0
    1.1024   -4.4119  -15.8394 F   0  0  0  0  0  0  0  0  0  0  0  0
    7.2469    2.1877  -23.4390 F   0  0  0  0  0  0  0  0  0  0  0  0
    5.7863    4.5156  -18.3549 S   0  0  0  0  0  0  0  0  0  0  0  0
    6.1606   -1.9790  -22.0915 H   0  0  0  0  0  0  0  0  0  0  0  0
    7.3827   -0.3891  -23.5524 H   0  0  0  0  0  0  0  0  0  0  0  0
    3.1651   -5.7970  -16.7535 H   0  0  0  0  0  0  0  0  0  0  0  0
    4.7287   -4.9687  -18.5187 H   0  0  0  0  0  0  0  0  0  0  0  0
    4.2037    1.3109  -20.1373 H   0  0  0  0  0  0  0  0  0  0  0  0
    0.9925   -2.0935  -17.0645 H   0  0  0  0  0  0  0  0  0  0  0  0
    9.1940    4.5811  -19.8346 H   0  0  0  0  0  0  0  0  0  0  0  0
    8.4943    3.6649  -18.4569 H   0  0  0  0  0  0  0  0  0  0  0  0
    5.8226    6.3442  -20.4128 H   0  0  0  0  0  0  0  0  0  0  0  0
    7.1069    5.8192  -21.5536 H   0  0  0  0  0  0  0  0  0  0  0  0
    7.0646    2.5770  -20.0156 H   0  0  0  0  0  0  0  0  0  0  0  0
    7.6860    3.5620  -21.3833 H   0  0  0  0  0  0  0  0  0  0  0  0
    8.3525    5.5324  -17.1008 H   0  0  0  0  0  0  0  0  0  0  0  0
    9.7409    6.0385  -18.1220 H   0  0  0  0  0  0  0  0  0  0  0  0
    8.7744    7.0223  -20.4441 H   0  0  0  0  0  0  0  0  0  0  0  0
    7.3524    8.0932  -20.2044 H   0  0  0  0  0  0  0  0  0  0  0  0
    5.3535    5.2923  -22.3137 H   0  0  0  0  0  0  0  0  0  0  0  0
    6.2164    4.0553  -23.2892 H   0  0  0  0  0  0  0  0  0  0  0  0
    4.4301    3.9771  -23.1163 H   0  0  0  0  0  0  0  0  0  0  0  0
    3.4414    3.6394  -20.9286 H   0  0  0  0  0  0  0  0  0  0  0  0
    3.1334    4.2270  -17.5416 H   0  0  0  0  0  0  0  0  0  0  0  0
    2.3160    3.6594  -18.9592 H   0  0  0  0  0  0  0  0  0  0  0  0
    3.6094   -0.7711  -19.6955 H   0  0  0  0  0  0  0  0  0  0  0  0
  1  2  2  0  0  0  0
  1  8  1  0  0  0  0
  2 10  1  0  0  0  0
  3  4  2  0  0  0  0
  3  9  1  0  0  0  0
  4 11  1  0  0  0  0
  5  7  1  0  0  0  0
  5  8  2  0  0  0  0
  6  9  2  0  0  0  0
  6 22  1  0  0  0  0
  7 10  2  0  0  0  0
  7 19  1  0  0  0  0
  8 25  1  0  0  0  0
  9 28  1  0  0  0  0
 10 29  1  0  0  0  0
 11 13  1  0  0  0  0
 11 22  2  0  0  0  0
 12 23  2  0  0  0  0
 12 24  1  0  0  0  0
 12 30  1  0  0  0  0
 13 25  1  0  0  0  0
 13 26  2  0  0  0  0
 14 17  1  0  0  0  0
 14 20  1  0  0  0  0
 15 18  1  0  0  0  0
 15 20  1  0  0  0  0
 16 19  1  0  0  0  0
 16 20  1  0  0  0  0
 17 27  1  0  0  0  0
 18 27  1  0  0  0  0
 19 21  1  0  0  0  0
 19 23  1  0  0  0  0
 20 30  1  0  0  0  0
  1 31  1  0  0  0  0
  2 32  1  0  0  0  0
  3 33  1  0  0  0  0
  4 34  1  0  0  0  0
  5 35  1  0  0  0  0
  6 36  1  0  0  0  0
 14 37  1  0  0  0  0
 14 38  1  0  0  0  0
 15 39  1  0  0  0  0
 15 40  1  0  0  0  0
 16 41  1  0  0  0  0
 16 42  1  0  0  0  0
 17 43  1  0  0  0  0
 17 44  1  0  0  0  0
 18 45  1  0  0  0  0
 18 46  1  0  0  0  0
 21 47  1  0  0  0  0
 21 48  1  0  0  0  0
 21 49  1  0  0  0  0
 23 50  1  0  0  0  0
 24 51  1  0  0  0  0
 24 52  1  0  0  0  0
 25 53  1  0  0  0  0
M  CHG  1  23   1
M  END
> <OMEGA_C>
lErAQBpZar+u16/BSDTWQDDthrxCeLbB285BQNJCmsBujonBwgB6QKJXi8CjdpHBN7ScQJKBcj/v
DKfBb7TnP/15LsCXA4vBdfWxQK287j9mu63BkNejQI852b70/qfB6sz7P9mnf8CRTobB8qfPQOfR
rj9xarXBzs9sQOtrRMA535XBlDKLQFNJf0BjpZnByaaTQBHtIcCg/Z3BGNMGQdLpkkBiX5jBLLfb
QFQ2wEBt+aPB6ODcQO0JX0CU66TBG6wKQfSauUBr9pDBein5QJ+H40AhwJ/BJA+xQG8BVkDRtarB
VfjgQBSflUBgmJ3Bs+KrQNNvh0A43LTBiX8qQKNkEsBDmJLBp72KQFnWakBX26PBA/VJQPcjfUCR
B5TBQsCMQGFfm7+m+KDBO8yxQMqITMAjUaHB26b9QEBI30DPWJTBMRqNP00ujcA+bn3BWubnQCID
DEATg7vBjim5QLZ/kEDK1pLBjyPFQDxO/b9eu7DB6j7sQKQ6x75ba7zBoZBKQKqAucAtB4bBn1GX
QJb/nsA9JpTB9ISGQFDLpz8sGaHBCRd+Pzr7BcAnhIjBlxoTQQ+YkkArrZ7B0OgHQauNakDVp5PB
jFK6QAIEy0BZTaPBl2vjQNc2ukDSbazBkBHiQMPtJED/H6DBZvP1QLb3Y0DtEKvBzKMFQT8JsUCA
zojBo9obQbA7wUDr+ZDB8GMMQVa24ECYjaPBfkbrQOl9AUGxoqHB8E+rQFJaqUBugrLBqOzGQKTE
gUA/ULrBv8ONQDmJfkAl7rjBKj9cQHjraEC3bafB44hIQLBDh0AhVYzByTgUQCI0akB5rJfBXQBn
QExpRb9ykJ3BorfIQGbpXb/g863B5vrfQEDPOz0OK7TB+5I2QCVKncCs14rBA0BwQErkjcC2hZLB
s1WfQF63eT/QkqbBGDDjP85HL8Av+orB6JO1QM8M9T/6+azB5oyoQDCmyr7R9qbBaAjtP+PCgcB+
BIfByOvWQHM1tj8PvLPBHJ9oQFxXRsDcKJbBwKqKQPKXhUBSGJvB/eqSQFloI8ADAJ7B1YLuQAYr
T0ACm5zBK+IBQdRss0DDCKLBsq7KQCfxjkDsQqzB6WsEQaCOW0AEdZLBWJMOQRBntUCnjZfBB3Wm
QObiWUAECK3BVYXeQM4rk0D/IKHBooWQQDxLaUCo57fBp8opQBo4EsBDWpLBVFGEQISraUDBpaTB
Q7ddQCikdkBN2JLBNyOPQEjHmb+YcKDBA2qvQIDNUMByoqHBz6IVQdIKi0Dzl5TBkC95P7SBj8DD
H3/BtFvuQLgPD0AuE7rBu+K0QDO9qECvb5jBV1rPQCtW9r8Pga7B2iX5QDXkn76fWbnBQVY7QMG6
vcBH7IfBvP6QQGRqosCZoZXBopGGQP+sqT/jPKHBQASAPzIgBcBSEYjBEToBQVlxL0AuraLBhq3S
QIOsJkDxwprBSMH2QLFX00DY0aPBkJ0MQbBoqUA9i6jBAyPkQEoGhkCB6rHB/0q9QKowrkAci67B
/FT0QOa3dUDOGIzBWQILQRmeHUAW4Y/B2JUcQX1FykB1oJjBVVAEQXFowkCeL5HB8T+FQKXylUAG
V7jBT4inQM5cXUAoZb7BrEBqQMWZPUA+vrjB9KNMQA82WUCEhqbBS2FmQC3wh0DCkovBae4sQNSV
TkBUKpTBINNsQERhPL+z/JzBiUHFQAx3fL8N+67BGXfcQE4Ki73pGbXBd/c5QFemnMB4e4rBxoZ0
QJzRjcA4GpLBbyieQMw1Vz8vnKbBTOPjPwqhL8B1d4vBD5G0QIpD4z87z6zBN9+lQAZKBb+OxKfB
Pm7vP2BUgcD2KofB2tjTQLfKpj/MQbTBmC9rQHHpR8BQLZbBEW+MQBrNhkDTn5rBNZqTQP7iJsDg
Jp7BQVv8QJD7v0CQ2KXBai2wQNMxyEAsbq3BXOzSQM8sgEAfJKrBIxn8QBGO8EAIm6TBQzO1QDMT
+EC6qqvBf1aoQIMAUEBYE6zBYEzOQFZ9rUD+D6bBnaqSQFZKZUAE/7bBQt4qQBbAE8DeyJLBIlGH
QEEXYEBSaqPBqDRYQADshUBAB5PBcYWLQAuDqr9FzaHBAbWzQMxlT8BAoqDBM4LhQKmaAUE/x6zB
xxF2P6PdjsCp5X/Be7joQODXB0CgGbvB11a4QIsvqUDKi5jBaE7LQITgAsCAxK/BehT1QALs1L5I
fbrBNaE/QHmDvMBhNofBcgqUQIMaosC60pTBKbCGQB4vlz/z4aDBcaR8P2WcBcCB3YjBtkoGQdan
t0BaX63B4uwGQZjSsUBvFJ/BYdOOQD0wv0AHvqvB3L+3QEzWwEBA07XB0aDlQDvwW0CzPKTB+Hfk
QPNUgUC3w7HBpGTvQD4K+UB9rZzBSHcOQQjY/EAeZaXBfCqiQObLBEGEorHBBBiqQLM9AEHTlaPB
T96IQNRzlEDqE7fBtn2pQC+XWUCoiL3BR7VsQOhePEDWFLjB3iRVQD1ORUCcfKTBEwpcQEWNmECj
iozBbL4lQNBQZUCeCZTBGfddQNb2cr9t4J/BQgbCQPjTbL8be6/BqBfYQCDfqLwbBrbBekDtP2Eb
M8AfYonByswqQDUOE8AiiJHBAgKeQARTbj81sabB+2lFQCBnnMDzlYrBR0uzQOwv7T+GVK3BoVil
QO3S4b5tp6fB4nIEQPp9g8BC1YXBV27RQGwZrj/X7bTBywRsQEm2R8Av85XBzUSKQGILgUBUqZnB
YbWSQPH/JMAGNJ7Bz5kGQZJokkClr5fB4tbbQDjSv0A3iqPBZePcQMtoXkCjPKTBsg0MQeCju0C5
t5HBDBfrQC6P5kC+Jp3Br+axQA5cVUC6XKrBOaTgQCLBlUDSB53BuYuuQK65hkBJqLTBv4R3QFCQ
jMAweJLB9NWKQFlMakCkxaPB07FGQCSfgUB8WpTBO4COQH+Pnb8bk6DB6zmuQFqxUsAMPKLBSscK
QWAU30AZE5nBXBSnP1fak8Bh23vBI/DpQPATDEAu6LrBjM+3QOeJkUCijpLBjuvGQLhv/r/1arDB
Z1ruQDe8xr5V8bvBJJ2JP1oaDMCq54XBfp8hQMxSpb9pdJTBJqeHQN0npT9mw6DBL11PQAHVvMDE
3ofBn8ASQUOojEA0453BWYwGQaghb0BV/pHBTvG5QHdGxEB5oqXBCvjuQPBKvUBe5qrBHBvhQBjc
JEB2R5/BRcP2QOrkYUDvL6rB/pwAQUN2wEDQI4vBJlwcQXN0uUCkc47BJnjrQEpwAUGeYKLBFBrV
QE4j7EAobJbBGpKtQO+9qEBuaLLBmobKQLjRgEDkybnB3CyRQP3BfEAyCbnB+wVdQIGmZUD/cqfB
5cpDQMg3i0DzuozB2moRQEXicEBXJZjBD8puQCGCQb8ZjZzBuezIQJOYXL9Ls63B8OHfQKQHQD0Z
BbTBYybaPxZsM8D3SYrByMkkQAIYE8CgD5LBD3ifQMEzfD9uZabBNEI7QELHnMDGIovB0pm1QO3a
9T+O4qzBh+KoQA7rxr6SsqbBi1nxPzjWg8Cwv4bBuc3WQHVQtj8npbPBuGpnQIupR8AhIZbB5e6K
QA9uhEB+6JrBsFOSQAYUJMAr9p3BfdrvQAHfSkCvfJzBKUUCQdFPskAvMKHBZwrMQN/GjkBGyavB
6FAFQedfVEA/X5LBlC4PQbafskCjxJbBE1anQHPoWkBW4qzBlZbfQK+MkUCUlaDBg4qSQNm/bEDn
2bfBfuJwQLjGjMCWp5LBq8GEQCJNa0Bqq6TBLG9aQAULdkD9BJPBOAaQQLX3mL9tCaDBfG+tQEvR
UsAe+qHBx2oWQf7dh0CcV5TBWIuIP/o/lMBmZH7BhUvuQIb+DkD5/LnBjRW2QNCHpUBWmpfB+LbP
QOme9b+fL67BA9z4QM8pob5nPrnBWNVoP4lBDMBDFofBkCodQOHVpL/R9JTBPLGGQAdKqz9vE6HB
vKlDQB1YvcDgcIjBr8QBQe3xLEAqwKLBDiLUQJrJIUBHvprBgij3QBNm0kD9kKLBCOoMQby7qUA9
3KfBrZDlQDMWhkB1cbHB/TS/QBl2rkBi4q3BpGT2QEB2bED41IvBaAQMQUrOFUBNIJDBtBodQXbY
x0B9rpfBggYFQbtVvkBhNJDBUP2HQE7tl0BEM7jB7AKqQHfGYECFPL7BHJVtQKRSQkC/8LjBNDNN
QHKhXkCh06bBnolhQJ0Th0CKqYvB03MoQGtbUEBtr5TB845xQD6sNr8VHZzB

> <OMEGA_E>
TBH2PlwlDT/Clw4/iMwaP/T7KD8=

> <OMEGA_NBR>
     95979

$$$$
450375
  -OEChem-04172616093D

 53 56  0     1  0  0  0  0  0999 V2000
    5.3011   -1.0270  -22.2436 C   0  0  0  0  0  0  0  0  0  0  0  0
    5.9375   -0.2076  -23.1853 C   0  0  0  0  0  0  0  0  0  0  0  0
    3.2379   -5.0487  -17.1479 C   0  0  0  0  0  0  0  0  0  0  0  0
    4.1347   -4.4168  -18.0263 C   0  0  0  0  0  0  0  0  0  0  0  0
    5.1091    0.8797  -20.7368 C   0  0  0  0  0  0  0  0  0  0  0  0
    1.6651   -3.2446  -17.5617 C   0  0  0  0  0  0  0  0  0  0  0  0
    5.7422    1.7384  -21.6766 C   0  0  0  0  0  0  0  0  0  0  0  0
    4.9024   -0.4840  -21.0090 C   0  0  0  0  0  0  0  0  0  0  0  0
    1.9850   -4.4544  -16.9165 C   0  0  0  0  0  0  0  0  0  0  0  0
    6.1859    1.1504  -22.9074 C   0  0  0  0  0  0  0  0  0  0  0  0
    3.7529   -3.2017  -18.6482 C   0  0  0  0  0  0  0  0  0  0  0  0
    4.5985    4.8932  -20.0624 C   0  0  0  0  0  0  0  0  0  0  0  0
    4.6472   -2.5127  -19.6007 C   0  0  0  0  0  0  0  0  0  0  0  0
    7.7623    6.0487  -22.2743 C   0  0  0  0  0  0  0  0  0  0  0  0
    5.5143    6.4720  -23.3958 C   0  0  0  0  0  0  0  0  0  0  0  0
    5.9965    4.1940  -22.4961 C   0  0  0  0  0  0  0  0  0  0  0  0
    8.0175    7.5668  -22.3802 C   0  0  0  0  0  0  0  0  0  0  0  0
    5.8914    7.9651  -23.4421 C   0  0  0  0  0  0  0  0  0  0  0  0
    6.0268    3.2239  -21.2620 C   0  0  2  0  0  0  0  0  0  0  0  0
    6.2309    5.7103  -22.2363 C   0  0  0  0  0  0  0  0  0  0  0  0
    7.3743    3.2349  -20.4925 C   0  0  0  0  0  0  0  0  0  0  0  0
    2.5368   -2.6446  -18.4015 N   0  0  0  0  0  0  0  0  0  0  0  0
    4.9314    3.6500  -20.3283 N   0  3  0  0  0  0  0  0  0  0  0  0
    3.5134    5.1253  -19.2311 N   0  0  0  0  0  0  0  0  0  0  0  0
    4.2485   -1.2548  -20.0543 N   0  0  0  0  0  0  0  0  0  0  0  0
    5.7312   -2.9986  -19.9128 O   0  0  0  0  0  0  0  0  0  0  0  0
    7.3237    8.1068  -23.5236 O   0  0  0  0  0  0  0  0  0  0  0  0
    1.0914   -5.0355  -16.0846 F   0  0  0  0  0  0  0  0  0  0  0  0
    6.8746    1.8286  -23.8470 F   0  0  0  0  0  0  0  0  0  0  0  0
    5.5285    6.2758  -20.6212 S   0  0  0  0  0  0  0  0  0  0  0  0
    5.1181   -2.0682  -22.4643 H   0  0  0  0  0  0  0  0  0  0  0  0
    6.2411   -0.6223  -24.1352 H   0  0  0  0  0  0  0  0  0  0  0  0
    3.5063   -5.9738  -16.6595 H   0  0  0  0  0  0  0  0  0  0  0  0
    5.1030   -4.8518  -18.2251 H   0  0  0  0  0  0  0  0  0  0  0  0
    4.7793    1.2846  -19.7914 H   0  0  0  0  0  0  0  0  0  0  0  0
    0.7036   -2.7871  -17.3816 H   0  0  0  0  0  0  0  0  0  0  0  0
    8.2142    5.5512  -23.1450 H   0  0  0  0  0  0  0  0  0  0  0  0
    8.2317    5.6734  -21.3530 H   0  0  0  0  0  0  0  0  0  0  0  0
    4.4267    6.3870  -23.2547 H   0  0  0  0  0  0  0  0  0  0  0  0
    5.7975    6.0068  -24.3515 H   0  0  0  0  0  0  0  0  0  0  0  0
    6.7751    3.8574  -23.1965 H   0  0  0  0  0  0  0  0  0  0  0  0
    5.0087    4.0916  -22.9692 H   0  0  0  0  0  0  0  0  0  0  0  0
    7.6544    8.0615  -21.4673 H   0  0  0  0  0  0  0  0  0  0  0  0
    9.0969    7.7476  -22.4907 H   0  0  0  0  0  0  0  0  0  0  0  0
    5.4280    8.4312  -24.3241 H   0  0  0  0  0  0  0  0  0  0  0  0
    5.5270    8.4618  -22.5308 H   0  0  0  0  0  0  0  0  0  0  0  0
    7.6116    4.2633  -20.1824 H   0  0  0  0  0  0  0  0  0  0  0  0
    7.2935    2.5932  -19.6027 H   0  0  0  0  0  0  0  0  0  0  0  0
    8.1731    2.8557  -21.1468 H   0  0  0  0  0  0  0  0  0  0  0  0
    4.4120    2.9283  -19.8708 H   0  0  0  0  0  0  0  0  0  0  0  0
    3.2784    6.0602  -18.9650 H   0  0  0  0  0  0  0  0  0  0  0  0
    2.9659    4.3579  -18.8975 H   0  0  0  0  0  0  0  0  0  0  0  0
    3.4149   -0.8722  -19.6558 H   0  0  0  0  0  0  0  0  0  0  0  0
  1  2  2  0  0  0  0
  1  8  1  0  0  0  0
  2 10  1  0  0  0  0
  3  4  2  0  0  0  0
  3  9  1  0  0  0  0
  4 11  1  0  0  0  0
  5  7  1  0  0  0  0
  5  8  2  0  0  0  0
  6  9  2  0  0  0  0
  6 22  1  0  0  0  0
  7 10  2  0  0  0  0
  7 19  1  0  0  0  0
  8 25  1  0  0  0  0
  9 28  1  0  0  0  0
 10 29  1  0  0  0  0
 11 13  1  0  0  0  0
 11 22  2  0  0  0  0
 12 23  2  0  0  0  0
 12 24  1  0  0  0  0
 12 30  1  0  0  0  0
 13 25  1  0  0  0  0
 13 26  2  0  0  0  0
 14 17  1  0  0  0  0
 14 20  1  0  0  0  0
 15 18  1  0  0  0  0
 15 20  1  0  0  0  0
 16 19  1  0  0  0  0
 16 20  1  0  0  0  0
 17 27  1  0  0  0  0
 18 27  1  0  0  0  0
 19 21  1  0  0  0  0
 19 23  1  0  0  0  0
 20 30  1  0  0  0  0
  1 31  1  0  0  0  0
  2 32  1  0  0  0  0
  3 33  1  0  0  0  0
  4 34  1  0  0  0  0
  5 35  1  0  0  0  0
  6 36  1  0  0  0  0
 14 37  1  0  0  0  0
 14 38  1  0  0  0  0
 15 39  1  0  0  0  0
 15 40  1  0  0  0  0
 16 41  1  0  0  0  0
 16 42  1  0  0  0  0
 17 43  1  0  0  0  0
 17 44  1  0  0  0  0
 18 45  1  0  0  0  0
 18 46  1  0  0  0  0
 21 47  1  0  0  0  0
 21 48  1  0  0  0  0
 21 49  1  0  0  0  0
 23 50  1  0  0  0  0
 24 51  1  0  0  0  0
 24 52  1  0  0  0  0
 25 53  1  0  0  0  0
M  CHG  1  23   1
M  END
> <OMEGA_C>
A6OpQFxzg7/78rHBJQC+QAObVL58e7nBWTpPQOOOocDNLonBv0+EQFFWjcDlNZDBAn6jQFg0YT/v
5KXBzSLVP1CoT8BJfozB3r+3QGyD3j/Baa3Bm+CcQLXS975cEqjBtxT+Pz2KjsALVYfB7PLFQJJB
kz9GQrfBCTBwQBfoTMBwL5XByiaTQBSVnEC9f6DBdbWUQHfPIMAkzpzBcGT4QFSPwUC2MbLBVXWw
QLkaz0CpKrvBb+O/QBE1hkAd+LPBiUcAQVwj8kC3CrPBq4a8QBPi/kBiibvBctvAQJ1TTkCDGKrB
5mPHQAa7tkDb47HBBvrrQHkIT0Ce8KPBpVsiQItBKcA7NpPB8s2dQDCaaUBeoKLB3NtgQLcCpEAz
2ZnBZ/OHQB2eoL8vb6DBWGa3QO/oP8BmTZ/BIFzqQJa1AUFCMLzBdbOLP9oiocBWrYDB4PzbQFEO
6j+8xr7BRemwQCfTyEA/+KTBIcejQFddBMDutrPBuLbHQPBNH7/kFMHBB2hgQH4pv8CgRoXBLUyj
QP1Bm8AQzZHBxe+YQHNtpD/jVJ7BNxw0P5pfMsCGDYvBTW0DQb+jsUAPKbnB9rQDQVSMtUDx0qrB
z6eNQFJizECSCbrBE4W5QL43wED4z8LBqc3YQGDgdkCBkrnBVUegQBzugkDewLfBK/H0QM77AEHx
vKvBzIwRQe7r90AE7bPBELKtQFrmBkG4l8LBCd2wQHljB0EJP7TBl5LzQJBsiECkdaHBhGTpQOv2
JUBa0pzBBsUCQaPDNkCTLKnBLS+NQKdoO0B0957BgtBRQBftwUBYuJfBEtE9QORzi0AaLpfBho5a
QKhGX7/7Pp3B

> <OMEGA_E>
QFxkPw==

> <OMEGA_NBR>
     97163

$$$$
450316
  -OEChem-04172616093D

 53 56  0     1  0  0  0  0  0999 V2000
    5.9969   -0.9161  -21.9842 C   0  0  0  0  0  0  0  0  0  0  0  0
    6.6867   -0.0192  -22.8103 C   0  0  0  0  0  0  0  0  0  0  0  0
    3.0283   -4.8479  -17.2212 C   0  0  0  0  0  0  0  0  0  0  0  0
    3.9142   -4.3623  -18.1922 C   0  0  0  0  0  0  0  0  0  0  0  0
    4.8927    0.9493  -20.8821 C   0  0  0  0  0  0  0  0  0  0  0  0
    1.8048   -2.7547  -17.3811 C   0  0  0  0  0  0  0  0  0  0  0  0
    5.5612    1.8652  -21.7163 C   0  0  0  0  0  0  0  0  0  0  0  0
    5.1104   -0.4229  -21.0017 C   0  0  0  0  0  0  0  0  0  0  0  0
    6.4889    1.3635  -22.6759 C   0  0  0  0  0  0  0  0  0  0  0  0
    1.9586   -4.0339  -16.8154 C   0  0  0  0  0  0  0  0  0  0  0  0
    3.7073   -3.0701  -18.7267 C   0  0  0  0  0  0  0  0  0  0  0  0
    4.3525    3.9906  -19.2077 C   0  0  0  0  0  0  0  0  0  0  0  0
    4.6155   -2.5245  -19.7427 C   0  0  0  0  0  0  0  0  0  0  0  0
    8.4311    4.5939  -19.0508 C   0  0  0  0  0  0  0  0  0  0  0  0
    6.8606    6.0066  -20.4919 C   0  0  0  0  0  0  0  0  0  0  0  0
    6.9063    3.4852  -20.6173 C   0  0  0  0  0  0  0  0  0  0  0  0
    8.6686    5.8004  -18.1205 C   0  0  0  0  0  0  0  0  0  0  0  0
    7.7679    7.1166  -19.9547 C   0  0  0  0  0  0  0  0  0  0  0  0
    5.5365    3.3442  -21.3401 C   0  0  1  0  0  0  0  0  0  0  0  0
    7.0327    4.6741  -19.6991 C   0  0  0  0  0  0  0  0  0  0  0  0
    5.3777    4.2309  -22.6104 C   0  0  0  0  0  0  0  0  0  0  0  0
    2.6671   -2.2966  -18.3119 N   0  0  0  0  0  0  0  0  0  0  0  0
    4.3388    3.6731  -20.4845 N   0  3  0  0  0  0  0  0  0  0  0  0
    3.1563    3.9657  -18.5082 N   0  0  0  0  0  0  0  0  0  0  0  0
    4.3890   -1.2120  -20.1223 N   0  0  0  0  0  0  0  0  0  0  0  0
    5.5582   -3.1869  -20.1622 O   0  0  0  0  0  0  0  0  0  0  0  0
    7.9133    6.9728  -18.5307 O   0  0  0  0  0  0  0  0  0  0  0  0
    7.2533    2.1832  -23.4334 F   0  0  0  0  0  0  0  0  0  0  0  0
    5.7915    4.5042  -18.3535 S   0  0  0  0  0  0  0  0  0  0  0  0
    0.8226   -4.6055  -15.6272 Cl  0  0  0  0  0  0  0  0  0  0  0  0
    6.1424   -1.9802  -22.0983 H   0  0  0  0  0  0  0  0  0  0  0  0
    7.3741   -0.3938  -23.5543 H   0  0  0  0  0  0  0  0  0  0  0  0
    3.1658   -5.8297  -16.7929 H   0  0  0  0  0  0  0  0  0  0  0  0
    4.7437   -4.9671  -18.5277 H   0  0  0  0  0  0  0  0  0  0  0  0
    4.2005    1.3150  -20.1381 H   0  0  0  0  0  0  0  0  0  0  0  0
    0.9829   -2.1295  -17.0650 H   0  0  0  0  0  0  0  0  0  0  0  0
    9.1962    4.5908  -19.8412 H   0  0  0  0  0  0  0  0  0  0  0  0
    8.5052    3.6658  -18.4651 H   0  0  0  0  0  0  0  0  0  0  0  0
    5.8136    6.3344  -20.4120 H   0  0  0  0  0  0  0  0  0  0  0  0
    7.1086    5.8257  -21.5482 H   0  0  0  0  0  0  0  0  0  0  0  0
    7.0703    2.5761  -20.0201 H   0  0  0  0  0  0  0  0  0  0  0  0
    7.6891    3.5652  -21.3859 H   0  0  0  0  0  0  0  0  0  0  0  0
    8.3660    5.5244  -17.0996 H   0  0  0  0  0  0  0  0  0  0  0  0
    9.7401    6.0490  -18.1308 H   0  0  0  0  0  0  0  0  0  0  0  0
    8.7561    7.0455  -20.4328 H   0  0  0  0  0  0  0  0  0  0  0  0
    7.3212    8.0962  -20.1802 H   0  0  0  0  0  0  0  0  0  0  0  0
    5.3621    5.2914  -22.3184 H   0  0  0  0  0  0  0  0  0  0  0  0
    6.2227    4.0507  -23.2912 H   0  0  0  0  0  0  0  0  0  0  0  0
    4.4361    3.9770  -23.1193 H   0  0  0  0  0  0  0  0  0  0  0  0
    3.4451    3.6473  -20.9324 H   0  0  0  0  0  0  0  0  0  0  0  0
    3.1342    4.2361  -17.5457 H   0  0  0  0  0  0  0  0  0  0  0  0
    2.3153    3.6773  -18.9660 H   0  0  0  0  0  0  0  0  0  0  0  0
    3.5941   -0.7735  -19.7030 H   0  0  0  0  0  0  0  0  0  0  0  0
  1  2  2  0  0  0  0
  1  8  1  0  0  0  0
  2  9  1  0  0  0  0
  3  4  2  0  0  0  0
  3 10  1  0  0  0  0
  4 11  1  0  0  0  0
  5  7  1  0  0  0  0
  5  8  2  0  0  0  0
  6 10  2  0  0  0  0
  6 22  1  0  0  0  0
  7  9  2  0  0  0  0
  7 19  1  0  0  0  0
  8 25  1  0  0  0  0
  9 28  1  0  0  0  0
 10 30  1  0  0  0  0
 11 13  1  0  0  0  0
 11 22  2  0  0  0  0
 12 23  2  0  0  0  0
 12 24  1  0  0  0  0
 12 29  1  0  0  0  0
 13 25  1  0  0  0  0
 13 26  2  0  0  0  0
 14 17  1  0  0  0  0
 14 20  1  0  0  0  0
 15 18  1  0  0  0  0
 15 20  1  0  0  0  0
 16 19  1  0  0  0  0
 16 20  1  0  0  0  0
 17 27  1  0  0  0  0
 18 27  1  0  0  0  0
 19 21  1  0  0  0  0
 19 23  1  0  0  0  0
 20 29  1  0  0  0  0
  1 31  1  0  0  0  0
  2 32  1  0  0  0  0
  3 33  1  0  0  0  0
  4 34  1  0  0  0  0
  5 35  1  0  0  0  0
  6 36  1  0  0  0  0
 14 37  1  0  0  0  0
 14 38  1  0  0  0  0
 15 39  1  0  0  0  0
 15 40  1  0  0  0  0
 16 41  1  0  0  0  0
 16 42  1  0  0  0  0
 17 43  1  0  0  0  0
 17 44  1  0  0  0  0
 18 45  1  0  0  0  0
 18 46  1  0  0  0  0
 21 47  1  0  0  0  0
 21 48  1  0  0  0  0
 21 49  1  0  0  0  0
 23 50  1  0  0  0  0
 24 51  1  0  0  0  0
 24 52  1  0  0  0  0
 25 53  1  0  0  0  0
M  CHG  1  23   1
M  END
> <OMEGA_C>
V+a/QKCIar+936/BJPnVQOBznbyLe7bBUNBBQKchm8DwxInB1YF6QBOYi8CbiZHBG5GcQJcIcz+h
DqfB5APnP8NNMMCWDIvBi/WxQGbA7j/7uq3Bv4ijQDyJ2L6HA6jBuaTPQJqGrj8vaLXBALX6PwEW
gcAGhobBiERtQAt8RMBW0JXBc0eLQIllf0BGqZnBY7KTQGGRIcD58J3Bv+UGQT4Bk0AkaJjB34nb
QEc2wEBz76PBzgDdQCMOX0Aw8KTBvLIKQfOcuUDb9pDBCZP4QI6740Ayo5/BsSqxQA8HVkB+uKrB
GwzhQB+SlUDbl53BBBasQO9jh0AX4rTBkrIqQOT7EsDafpLBcdeKQNcTa0Bb4KPBXAFKQM/NfUDR
EJTB33KMQPAjm79/+qDBK92xQJr1S8A+TKHBaTn9QNwg30DpPpTBMhvoQOu5C0CTd7vBs1O5QFQi
kEDn05LB5ZJSP55gk8DzCHrBVY7EQEp3/b9dybDBbfjrQOKkyb4+b7zBdpxKQBiNusDFV4bBVMyX
QFLynsC0OJTB5GqGQI9SqD/WGqHBz6B7P2lJCMAdhYjBoSMTQbjnkkC1up7BShUIQSScakCIuJPB
1gi6QASzykDRS6PBW3njQAtsukC/YqzBEEDiQELfJEAnKaDBhA32QJ4rZEBmFqvBQNsFQRbIsEAH
zIjBkdcbQXKRwUDiC5HB3xgMQfZ04UBKdqPBE0fqQBWKAUH8cKHBJJarQM5SqUD8i7LBFyDHQA+f
gUBmVLrB0fSNQKCHfkBd9LjBw3tcQK5taUCFdafBGpdIQAuOh0ChXYzBeC4UQFJZa0BgupfBbwVm
QDkGRr/Wn53BW6fIQL8wWL8c663B69DfQHAPhj1ZL7TBMf81QItYnMChv4rByZBvQHY3jcBOe5LB
GgyfQH7gfz/CpabBJ9LjPyj2LMDq5IrB9GC1QKHm9z82EK3BW2uoQCh0vr4G9abB9q7WQH+yuD9K
z7PBnxDtPw2GgMBk5YbBwVxoQK7xRMBbIZbBACKLQK9wg0Dy25rBIdmSQAwOIsCK9p3BjmHvQBij
SUDscZzBQWMCQW+nsUCb56DBTj3MQFIBj0BxtavBBd8EQYzdUUBbPpLBVQEPQcp5sUAiZJbBJkun
QAz0W0Cp8KzBnoffQOk3kUDkdqDBDpuSQOoGb0Dv4LfBVO8pQPpxEMAwUJLBt6SEQFbAa0C7tqTB
8axdQF7tbkDJ25LBDT+PQKOllr9pW6DBsR6vQBi2T8C3p6HB4BQWQUaShkBlAZTBmyjuQPRPEEDJ
JLrBPsK1QKggpUDvi5fBnnI5P5OukcCMWnrB4WzPQBJt879Kaa7Bt/f4QP3zlr68XLnBrWY6QKbG
vMBB0IfBG22QQF/xocCNnpXB1hqGQEjxrD+kXqHBnlGBP8BzAsD2+YfBo6ABQSMQLEBzsqLBgnjT
QOq2IEAw1prB4cH3QOrj0UBxSKLBuiwNQSoIqUD+g6fBXtflQOxUhkBwWLHB4LG/QD3crkD/wK3B
OkH1QNRmaUByuIvBWnULQTvyEkBFEZDBbv8cQeCaxkCiKJfBCLAEQQEMvUAH4I/B6jGIQLkfmUDd
ILjBlBWqQMB7Y0A8Rr7BQYxtQPPwRECXCrnBtspMQMG5YEB87qbBViFmQCEUgkDJYovBEGcsQHtr
SEB0j5TBQ65tQLwyNb+Sy5zBZqDEQEy9fL8a/K7BwqfbQFw7lb3/LbXBwyQ8QJyMncBLcorBa6V1
QJljjsA7JZLBDtidQJIZWD+RlabBbvjiP2/dMsArfIvBHg60QLdI4z++36zBCn6lQA/KBL+ZtqfB
qArTQLkopj94YLTBWKTyPzK0gsA9FofBVchqQOBMScDnPpbBPOWMQAFmh0BlsprBcHuTQGIQJ8Cs
H57BpHn8QO4lwEAoVabB8tmvQIFZyEAHla3BKLPSQLdIgEC3cKrBMEr8QAq48EDiBqXBwuK0QJY6
+EDJyKvB2POnQPoiUEAuK6zBOGvOQMGcrUAmWKbB9KaRQKIYZUAmBLfB2XIpQHNOFsCx4ZLBiGeH
QJuaYEAhaqPB10lZQPYvh0D5E5PBHkeLQE1yqr/ds6HBcgG0QNmYTsDigqDBbhbhQGrJAUHUC63B
HJjnQLEuB0D2UbvBBFK5QIc8qUCHvZjBzOFAPzR8lMDbKnvBNJ/KQLz5AsDxwa/BlCH0QBcR2b4o
mLrBeAtDQDRPvcCbJofB3cqUQHVUosAk6ZTBH5mGQMsYmD9W0KDBsJB3P2nJCcD65YjBew0GQfX9
t0AF863B6kEHQVjcsUB0rJ/ByJyOQFI/v0BbyqvBn/u2QEYkwUBWArbB6tvlQLosXEBToKTBcqbj
QHxtgUDDJbLBsy7wQM8F+UBiB53BSIcOQVwI/UAG9KXBQ3GhQLTlBEEMqbHB9TyqQB46AEENp6PB
nO6HQLBglEBMGrfBJhCoQEwGWUDdob3Bm3RqQItGPEDy97fBw1JVQNt+RUDDWqTBC8JdQDb/mUBQ
oYzBT00mQHpzaEAPCJTBhLBdQLqtcr+BsJ/B

> <OMEGA_E>
kMf3PqYMDT/82xA/

> <OMEGA_NBR>
    100125

$$$$
450315
  -OEChem-04172616093D

 53 56  0     1  0  0  0  0  0999 V2000
    5.9969   -0.9161  -21.9842 C   0  0  0  0  0  0  0  0  0  0  0  0
    6.6867   -0.0192  -22.8103 C   0  0  0  0  0  0  0  0  0  0  0  0
    3.0283   -4.8479  -17.2212 C   0  0  0  0  0  0  0  0  0  0  0  0
    3.9142   -4.3623  -18.1922 C   0  0  0  0  0  0  0  0  0  0  0  0
    4.8927    0.9493  -20.8821 C   0  0  0  0  0  0  0  0  0  0  0  0
    1.8048   -2.7547  -17.3811 C   0  0  0  0  0  0  0  0  0  0  0  0
    5.5612    1.8652  -21.7163 C   0  0  0  0  0  0  0  0  0  0  0  0
    5.1104   -0.4229  -21.0017 C   0  0  0  0  0  0  0  0  0  0  0  0
    6.4889    1.3635  -22.6759 C   0  0  0  0  0  0  0  0  0  0  0  0
    1.9586   -4.0339  -16.8154 C   0  0  0  0  0  0  0  0  0  0  0  0
    3.7073   -3.0701  -18.7267 C   0  0  0  0  0  0  0  0  0  0  0  0
    4.3525    3.9906  -19.2077 C   0  0  0  0  0  0  0  0  0  0  0  0
    4.6155   -2.5245  -19.7427 C   0  0  0  0  0  0  0  0  0  0  0  0
    8.4311    4.5939  -19.0508 C   0  0  0  0  0  0  0  0  0  0  0  0
    6.8606    6.0066  -20.4919 C   0  0  0  0  0  0  0  0  0  0  0  0
    6.9063    3.4852  -20.6173 C   0  0  0  0  0  0  0  0  0  0  0  0
    8.6686    5.8004  -18.1205 C   0  0  0  0  0  0  0  0  0  0  0  0
    7.7679    7.1166  -19.9547 C   0  0  0  0  0  0  0  0  0  0  0  0
    5.5365    3.3442  -21.3401 C   0  0  1  0  0  0  0  0  0  0  0  0
    7.0327    4.6741  -19.6991 C   0  0  0  0  0  0  0  0  0  0  0  0
    5.3777    4.2309  -22.6104 C   0  0  0  0  0  0  0  0  0  0  0  0
    2.6671   -2.2966  -18.3119 N   0  0  0  0  0  0  0  0  0  0  0  0
    4.3388    3.6731  -20.4845 N   0  3  0  0  0  0  0  0  0  0  0  0
    3.1563    3.9657  -18.5082 N   0  0  0  0  0  0  0  0  0  0  0  0
    4.3890   -1.2120  -20.1223 N   0  0  0  0  0  0  0  0  0  0  0  0
    5.5582   -3.1869  -20.1622 O   0  0  0  0  0  0  0  0  0  0  0  0
    7.9133    6.9728  -18.5307 O   0  0  0  0  0  0  0  0  0  0  0  0
    7.2533    2.1832  -23.4334 F   0  0  0  0  0  0  0  0  0  0  0  0
    5.7915    4.5042  -18.3535 S   0  0  0  0  0  0  0  0  0  0  0  0
    0.8226   -4.6055  -15.6272 Cl  0  0  0  0  0  0  0  0  0  0  0  0
    6.1424   -1.9802  -22.0983 H   0  0  0  0  0  0  0  0  0  0  0  0
    7.3741   -0.3938  -23.5543 H   0  0  0  0  0  0  0  0  0  0  0  0
    3.1658   -5.8297  -16.7929 H   0  0  0  0  0  0  0  0  0  0  0  0
    4.7437   -4.9671  -18.5277 H   0  0  0  0  0  0  0  0  0  0  0  0
    4.2005    1.3150  -20.1381 H   0  0  0  0  0  0  0  0  0  0  0  0
    0.9829   -2.1295  -17.0650 H   0  0  0  0  0  0  0  0  0  0  0  0
    9.1962    4.5908  -19.8412 H   0  0  0  0  0  0  0  0  0  0  0  0
    8.5052    3.6658  -18.4651 H   0  0  0  0  0  0  0  0  0  0  0  0
    5.8136    6.3344  -20.4120 H   0  0  0  0  0  0  0  0  0  0  0  0
    7.1086    5.8257  -21.5482 H   0  0  0  0  0  0  0  0  0  0  0  0
    7.0703    2.5761  -20.0201 H   0  0  0  0  0  0  0  0  0  0  0  0
    7.6891    3.5652  -21.3859 H   0  0  0  0  0  0  0  0  0  0  0  0
    8.3660    5.5244  -17.0996 H   0  0  0  0  0  0  0  0  0  0  0  0
    9.7401    6.0490  -18.1308 H   0  0  0  0  0  0  0  0  0  0  0  0
    8.7561    7.0455  -20.4328 H   0  0  0  0  0  0  0  0  0  0  0  0
    7.3212    8.0962  -20.1802 H   0  0  0  0  0  0  0  0  0  0  0  0
    5.3621    5.2914  -22.3184 H   0  0  0  0  0  0  0  0  0  0  0  0
    6.2227    4.0507  -23.2912 H   0  0  0  0  0  0  0  0  0  0  0  0
    4.4361    3.9770  -23.1193 H   0  0  0  0  0  0  0  0  0  0  0  0
    3.4451    3.6473  -20.9324 H   0  0  0  0  0  0  0  0  0  0  0  0
    3.1342    4.2361  -17.5457 H   0  0  0  0  0  0  0  0  0  0  0  0
    2.3153    3.6773  -18.9660 H   0  0  0  0  0  0  0  0  0  0  0  0
    3.5941   -0.7735  -19.7030 H   0  0  0  0  0  0  0  0  0  0  0  0
  1  2  2  0  0  0  0
  1  8  1  0  0  0  0
  2  9  1  0  0  0  0
  3  4  2  0  0  0  0
  3 10  1  0  0  0  0
  4 11  1  0  0  0  0
  5  7  1  0  0  0  0
  5  8  2  0  0  0  0
  6 10  2  0  0  0  0
  6 22  1  0  0  0  0
  7  9  2  0  0  0  0
  7 19  1  0  0  0  0
  8 25  1  0  0  0  0
  9 28  1  0  0  0  0
 10 30  1  0  0  0  0
 11 13  1  0  0  0  0
 11 22  2  0  0  0  0
 12 23  2  0  0  0  0
 12 24  1  0  0  0  0
 12 29  1  0  0  0  0
 13 25  1  0  0  0  0
 13 26  2  0  0  0  0
 14 17  1  0  0  0  0
 14 20  1  0  0  0  0
 15 18  1  0  0  0  0
 15 20  1  0  0  0  0
 16 19  1  0  0  0  0
 16 20  1  0  0  0  0
 17 27  1  0  0  0  0
 18 27  1  0  0  0  0
 19 21  1  0  0  0  0
 19 23  1  0  0  0  0
 20 29  1  0  0  0  0
  1 31  1  0  0  0  0
  2 32  1  0  0  0  0
  3 33  1  0  0  0  0
  4 34  1  0  0  0  0
  5 35  1  0  0  0  0
  6 36  1  0  0  0  0
 14 37  1  0  0  0  0
 14 38  1  0  0  0  0
 15 39  1  0  0  0  0
 15 40  1  0  0  0  0
 16 41  1  0  0  0  0
 16 42  1  0  0  0  0
 17 43  1  0  0  0  0
 17 44  1  0  0  0  0
 18 45  1  0  0  0  0
 18 46  1  0  0  0  0
 21 47  1  0  0  0  0
 21 48  1  0  0  0  0
 21 49  1  0  0  0  0
 23 50  1  0  0  0  0
 24 51  1  0  0  0  0
 24 52  1  0  0  0  0
 25 53  1  0  0  0  0
M  CHG  1  23   1
M  END
> <OMEGA_C>
V+a/QKCIar+936/BJPnVQOBznbyLe7bBUNBBQKchm8DwxInB1YF6QBOYi8CbiZHBG5GcQJcIcz+h
DqfB5APnP8NNMMCWDIvBi/WxQGbA7j/7uq3Bv4ijQDyJ2L6HA6jBuaTPQJqGrj8vaLXBALX6PwEW
gcAGhobBiERtQAt8RMBW0JXBc0eLQIllf0BGqZnBY7KTQGGRIcD58J3Bv+UGQT4Bk0AkaJjB34nb
QEc2wEBz76PBzgDdQCMOX0Aw8KTBvLIKQfOcuUDb9pDBCZP4QI6740Ayo5/BsSqxQA8HVkB+uKrB
GwzhQB+SlUDbl53BBBasQO9jh0AX4rTBkrIqQOT7EsDafpLBcdeKQNcTa0Bb4KPBXAFKQM/NfUDR
EJTB33KMQPAjm79/+qDBK92xQJr1S8A+TKHBaTn9QNwg30DpPpTBMhvoQOu5C0CTd7vBs1O5QFQi
kEDn05LB5ZJSP55gk8DzCHrBVY7EQEp3/b9dybDBbfjrQOKkyb4+b7zBdpxKQBiNusDFV4bBVMyX
QFLynsC0OJTB5GqGQI9SqD/WGqHBz6B7P2lJCMAdhYjBoSMTQbjnkkC1up7BShUIQSScakCIuJPB
1gi6QASzykDRS6PBW3njQAtsukC/YqzBEEDiQELfJEAnKaDBhA32QJ4rZEBmFqvBQNsFQRbIsEAH
zIjBkdcbQXKRwUDiC5HB3xgMQfZ04UBKdqPBE0fqQBWKAUH8cKHBJJarQM5SqUD8i7LBFyDHQA+f
gUBmVLrB0fSNQKCHfkBd9LjBw3tcQK5taUCFdafBGpdIQAuOh0ChXYzBeC4UQFJZa0BgupfBbwVm
QDkGRr/Wn53BW6fIQL8wWL8c663B69DfQHAPhj1ZL7TBMf81QItYnMChv4rByZBvQHY3jcBOe5LB
GgyfQH7gfz/CpabBJ9LjPyj2LMDq5IrB9GC1QKHm9z82EK3BW2uoQCh0vr4G9abB9q7WQH+yuD9K
z7PBnxDtPw2GgMBk5YbBwVxoQK7xRMBbIZbBACKLQK9wg0Dy25rBIdmSQAwOIsCK9p3BjmHvQBij
SUDscZzBQWMCQW+nsUCb56DBTj3MQFIBj0BxtavBBd8EQYzdUUBbPpLBVQEPQcp5sUAiZJbBJkun
QAz0W0Cp8KzBnoffQOk3kUDkdqDBDpuSQOoGb0Dv4LfBVO8pQPpxEMAwUJLBt6SEQFbAa0C7tqTB
8axdQF7tbkDJ25LBDT+PQKOllr9pW6DBsR6vQBi2T8C3p6HB4BQWQUaShkBlAZTBmyjuQPRPEEDJ
JLrBPsK1QKggpUDvi5fBnnI5P5OukcCMWnrB4WzPQBJt879Kaa7Bt/f4QP3zlr68XLnBrWY6QKbG
vMBB0IfBG22QQF/xocCNnpXB1hqGQEjxrD+kXqHBnlGBP8BzAsD2+YfBo6ABQSMQLEBzsqLBgnjT
QOq2IEAw1prB4cH3QOrj0UBxSKLBuiwNQSoIqUD+g6fBXtflQOxUhkBwWLHB4LG/QD3crkD/wK3B
OkH1QNRmaUByuIvBWnULQTvyEkBFEZDBbv8cQeCaxkCiKJfBCLAEQQEMvUAH4I/B6jGIQLkfmUDd
ILjBlBWqQMB7Y0A8Rr7BQYxtQPPwRECXCrnBtspMQMG5YEB87qbBViFmQCEUgkDJYovBEGcsQHtr
SEB0j5TBQ65tQLwyNb+Sy5zBZqDEQEy9fL8a/K7BwqfbQFw7lb3/LbXBwyQ8QJyMncBLcorBa6V1
QJljjsA7JZLBDtidQJIZWD+RlabBbvjiP2/dMsArfIvBHg60QLdI4z++36zBCn6lQA/KBL+ZtqfB
qArTQLkopj94YLTBWKTyPzK0gsA9FofBVchqQOBMScDnPpbBPOWMQAFmh0BlsprBcHuTQGIQJ8Cs
H57BpHn8QO4lwEAoVabB8tmvQIFZyEAHla3BKLPSQLdIgEC3cKrBMEr8QAq48EDiBqXBwuK0QJY6
+EDJyKvB2POnQPoiUEAuK6zBOGvOQMGcrUAmWKbB9KaRQKIYZUAmBLfB2XIpQHNOFsCx4ZLBiGeH
QJuaYEAhaqPB10lZQPYvh0D5E5PBHkeLQE1yqr/ds6HBcgG0QNmYTsDigqDBbhbhQGrJAUHUC63B
HJjnQLEuB0D2UbvBBFK5QIc8qUCHvZjBzOFAPzR8lMDbKnvBNJ/KQLz5AsDxwa/BlCH0QBcR2b4o
mLrBeAtDQDRPvcCbJofB3cqUQHVUosAk6ZTBH5mGQMsYmD9W0KDBsJB3P2nJCcD65YjBew0GQfX9
t0AF863B6kEHQVjcsUB0rJ/ByJyOQFI/v0BbyqvBn/u2QEYkwUBWArbB6tvlQLosXEBToKTBcqbj
QHxtgUDDJbLBsy7wQM8F+UBiB53BSIcOQVwI/UAG9KXBQ3GhQLTlBEEMqbHB9TyqQB46AEENp6PB
nO6HQLBglEBMGrfBJhCoQEwGWUDdob3Bm3RqQItGPEDy97fBw1JVQNt+RUDDWqTBC8JdQDb/mUBQ
oYzBT00mQHpzaEAPCJTBhLBdQLqtcr+BsJ/B

> <OMEGA_E>
kMf3PqYMDT/82xA/

> <OMEGA_NBR>
    103087

$$$$
450381
  -OEChem-04172616093D

 53 56  0     1  0  0  0  0  0999 V2000
    6.0535   -0.9221  -21.9596 C   0  0  0  0  0  0  0  0  0  0  0  0
    6.7773   -0.0181  -22.7505 C   0  0  0  0  0  0  0  0  0  0  0  0
    2.9149   -4.9141  -17.3541 C   0  0  0  0  0  0  0  0  0  0  0  0
    3.7936   -4.4300  -18.3322 C   0  0  0  0  0  0  0  0  0  0  0  0
    4.8993    0.9328  -20.8955 C   0  0  0  0  0  0  0  0  0  0  0  0
    1.8675   -2.7223  -17.3017 C   0  0  0  0  0  0  0  0  0  0  0  0
    5.6219    1.8555  -21.6778 C   0  0  0  0  0  0  0  0  0  0  0  0
    5.1229   -0.4380  -21.0129 C   0  0  0  0  0  0  0  0  0  0  0  0
    1.9401   -4.0478  -16.8335 C   0  0  0  0  0  0  0  0  0  0  0  0
    6.5786    1.3640  -22.6094 C   0  0  0  0  0  0  0  0  0  0  0  0
    3.6752   -3.0882  -18.7614 C   0  0  0  0  0  0  0  0  0  0  0  0
    4.3613    4.0617  -19.2472 C   0  0  0  0  0  0  0  0  0  0  0  0
    4.5887   -2.5450  -19.7755 C   0  0  0  0  0  0  0  0  0  0  0  0
    6.5639    6.0904  -20.2514 C   0  0  0  0  0  0  0  0  0  0  0  0
    7.8944    4.8173  -18.4802 C   0  0  0  0  0  0  0  0  0  0  0  0
    6.6312    7.3044  -19.3274 C   0  0  0  0  0  0  0  0  0  0  0  0
    7.8429    6.0917  -17.6338 C   0  0  0  0  0  0  0  0  0  0  0  0
    5.5848    3.3334  -21.2880 C   0  0  1  0  0  0  0  0  0  0  0  0
    6.6782    4.7528  -19.4499 C   0  0  0  0  0  0  0  0  0  0  0  0
    6.8632    3.5484  -20.3920 C   0  0  0  0  0  0  0  0  0  0  0  0
    5.4967    4.2170  -22.5786 C   0  0  0  0  0  0  0  0  0  0  0  0
    2.7212   -2.2672  -18.2430 N   0  0  0  0  0  0  0  0  0  0  0  0
    4.3460    3.6457  -20.4969 N   0  3  0  0  0  0  0  0  0  0  0  0
    3.1897    3.9825  -18.5101 N   0  0  0  0  0  0  0  0  0  0  0  0
    4.3740   -1.2308  -20.1573 N   0  0  0  0  0  0  0  0  0  0  0  0
    5.5324   -3.2113  -20.1862 O   0  0  0  0  0  0  0  0  0  0  0  0
    5.4901    4.5534  -18.6247 O   0  0  0  0  0  0  0  0  0  0  0  0
    7.8109    7.2378  -18.5065 O   0  0  0  0  0  0  0  0  0  0  0  0
    1.0770   -4.4822  -15.8906 F   0  0  0  0  0  0  0  0  0  0  0  0
    7.3512    2.1948  -23.3471 F   0  0  0  0  0  0  0  0  0  0  0  0
    7.0838    2.4494  -19.6016 F   0  0  0  0  0  0  0  0  0  0  0  0
    7.9800    3.7158  -21.1539 F   0  0  0  0  0  0  0  0  0  0  0  0
    6.2069   -1.9851  -22.0737 H   0  0  0  0  0  0  0  0  0  0  0  0
    7.4912   -0.3874  -23.4718 H   0  0  0  0  0  0  0  0  0  0  0  0
    2.9861   -5.9343  -17.0070 H   0  0  0  0  0  0  0  0  0  0  0  0
    4.5519   -5.0738  -18.7529 H   0  0  0  0  0  0  0  0  0  0  0  0
    4.1611    1.2931  -20.1944 H   0  0  0  0  0  0  0  0  0  0  0  0
    1.1160   -2.0582  -16.9009 H   0  0  0  0  0  0  0  0  0  0  0  0
    5.6046    6.1036  -20.7896 H   0  0  0  0  0  0  0  0  0  0  0  0
    7.3909    6.1454  -20.9747 H   0  0  0  0  0  0  0  0  0  0  0  0
    8.8250    4.8104  -19.0667 H   0  0  0  0  0  0  0  0  0  0  0  0
    7.8735    3.9410  -17.8155 H   0  0  0  0  0  0  0  0  0  0  0  0
    6.6616    8.2216  -19.9338 H   0  0  0  0  0  0  0  0  0  0  0  0
    5.7401    7.3204  -18.6827 H   0  0  0  0  0  0  0  0  0  0  0  0
    6.9391    6.0810  -17.0069 H   0  0  0  0  0  0  0  0  0  0  0  0
    8.7342    6.1431  -16.9912 H   0  0  0  0  0  0  0  0  0  0  0  0
    5.4702    5.2795  -22.2951 H   0  0  0  0  0  0  0  0  0  0  0  0
    6.3757    4.0286  -23.2125 H   0  0  0  0  0  0  0  0  0  0  0  0
    4.5823    3.9631  -23.1349 H   0  0  0  0  0  0  0  0  0  0  0  0
    3.4592    3.5312  -20.9448 H   0  0  0  0  0  0  0  0  0  0  0  0
    3.1792    4.2775  -17.5547 H   0  0  0  0  0  0  0  0  0  0  0  0
    2.3552    3.6304  -18.9339 H   0  0  0  0  0  0  0  0  0  0  0  0
    3.5668   -0.7934  -19.7608 H   0  0  0  0  0  0  0  0  0  0  0  0
  1  2  2  0  0  0  0
  1  8  1  0  0  0  0
  2 10  1  0  0  0  0
  3  4  2  0  0  0  0
  3  9  1  0  0  0  0
  4 11  1  0  0  0  0
  5  7  1  0  0  0  0
  5  8  2  0  0  0  0
  6  9  2  0  0  0  0
  6 22  1  0  0  0  0
  7 10  2  0  0  0  0
  7 18  1  0  0  0  0
  8 25  1  0  0  0  0
  9 29  1  0  0  0  0
 10 30  1  0  0  0  0
 11 13  1  0  0  0  0
 11 22  2  0  0  0  0
 12 23  2  0  0  0  0
 12 24  1  0  0  0  0
 12 27  1  0  0  0  0
 13 25  1  0  0  0  0
 13 26  2  0  0  0  0
 14 16  1  0  0  0  0
 14 19  1  0  0  0  0
 15 17  1  0  0  0  0
 15 19  1  0  0  0  0
 16 28  1  0  0  0  0
 17 28  1  0  0  0  0
 18 20  1  0  0  0  0
 18 21  1  0  0  0  0
 18 23  1  0  0  0  0
 19 20  1  0  0  0  0
 19 27  1  0  0  0  0
 20 31  1  0  0  0  0
 20 32  1  0  0  0  0
  1 33  1  0  0  0  0
  2 34  1  0  0  0  0
  3 35  1  0  0  0  0
  4 36  1  0  0  0  0
  5 37  1  0  0  0  0
  6 38  1  0  0  0  0
 14 39  1  0  0  0  0
 14 40  1  0  0  0  0
 15 41  1  0  0  0  0
 15 42  1  0  0  0  0
 16 43  1  0  0  0  0
 16 44  1  0  0  0  0
 17 45  1  0  0  0  0
 17 46  1  0  0  0  0
 21 47  1  0  0  0  0
 21 48  1  0  0  0  0
 21 49  1  0  0  0  0
 23 50  1  0  0  0  0
 24 51  1  0  0  0  0
 24 52  1  0  0  0  0
 25 53  1  0  0  0  0
M  CHG  1  23   1
M  END
> <OMEGA_C>
k7bBQMwQbL9Fra/Bmt/YQICflLwAAbbBNY46QDpAncAj1YrBJMtyQPLCjcBbqJLBFcecQADKbj8B
KqfBBArvP8U5LsDWaYrBo+azQAKA7T8wbK3BB++jQNY84L5yGqjBNFX4P9yHgcAHq4bBIITSQDOW
rj8Q4LTBYTZrQB2lRcBoF5bByI+LQLr5gUBK+pnBcNaSQD/hIsAmNJ7BfgvSQE3kwkD1AqLBQZ/8
QAInmkBb15PBIDPUQJ+96UB6nprBUfn6QADvwkD9EY3BFreyQC1XVUDiTarBJLTVQDAXmEBfmZvB
Up/bQMgZY0C7IqPBOuWvQGjxhkD+oLTB6yguQCwZEcDD8ZHBBxKLQI5TaUC6+aPBmyRMQPrhfkC9
FJTBdfeLQK2Jnb8xQqHBDQmxQCGFTcBQfaHB066vQDW1kUBj/5TBAfP5QMib50BZDZTBPNyJPzFu
j8D2P37B8zzrQN53DEDMxrrBWq7iQDvCHED7z5zBX1z/QHbPbUAYO6nBLp/GQO0W/r/5lrDBGLjv
QJRbxr5SxrvBmRs/QA3mvcBfDojB6qiRQPJcosAKBpbBiyeFQJ6EpT8YjqHBK9mOP9C4A8AXNYfB
LlmzQOpQw0AjUabBGYLsQDynxEAozKfBMzMNQbbumUCPiJjBT/P7QHQ5fEAwho7BCCzVQNOLA0Fu
eJ/BI6+3QAhB6kAYdpXBHA3eQFSXwkAnDojBfL8LQTOUxED67YfBKwyvQHvxqEBiXLLBHAbMQPTp
gEA7s7nBaqKSQLWjfUA1FLnBC2RdQLL+YUACj6fBQHhLQJPhiED/b4zB5bsWQPVYaECqeJfBoUZk
QKscS78bFp7B3M3DQPhieb+/w67B9UrbQMAel70K8bTBmKM9QGqnn8A22orB9YF2QLA/j8ASdZLB
Bo+cQCJXXz/qvKbBvi/gP2SIOMAfk4vBenqzQFLp5T8HAa3Br2OkQCz1/L4doKfBbpTzP0nChcB2
WofBVfXSQF4wpj/USbTBMyFqQBt2SsBpUZbBNGmNQHqIiUAMSZvBBFiTQOV3JcBl753BZPaoQOZW
y0CDBazBDOLwQC5dxkDOCKLBSiOnQDbD+UB/XKjB+BnqQCBo9UBKLJ/BOq2nQHlCUkCYZKzBHLzF
QHwMr0AjjaTBLePQQCjOg0D21anBbbeRQEfsZkACVrfBC4onQOaHGcBO4pLBo+uGQAdJYkCDvqPB
wwlhQIy8hkA445LBuHWKQHppp7+/gqHB9NO0QG3ASsCyC6DB/NiuQACLpkASmJrBHNHRQPIGBUFq
eafB2geEPy+elMD+/3/BhqDoQNWmBUAFJrvBajvqQO3IWkCX2qLBvMbnQJD3i0Ar2LLBFKXJQEJB
AsDOca/BrvvzQH20375PPrrBC8ZFQASgv8Cfu4fBaJSVQKZyosBtVpXB16SEQLsHnT+dLqHB/dBt
P14XEcCA64jBr0+IQFgwvkB+B6zBSRK2QGNGykAmL7TBadkCQX50xEBiHanBzDoAQfc1tkAhQZvB
JiiVQLBqBkEvPK7BHiuXQIag+0BtiKDBi5LYQIKk90Dwj5fBR6wEQdykAkHSW57BCEKIQCFclUAW
grfBTEeoQJUWWkC05b3BM1VqQHd5PkAmTbjBILtUQDMARkBPeqTBBP9nQMJ7mUB4dozB9W0wQJby
Y0BfQpPBCAlcQGA2br9abp/BwsnCQN/Jcr/7Mq/BDi/ZQBD6P72urrXBIhrWPxkEOsAcFovB7Ggk
QFU4F8BHeZLBhvCcQJfPZz+i36bBe59BQEaancDkC4vB8OayQICe6T83Za3BfuykQAAs7b4dq6fB
sJDzPx6dhsBzWofB6KDRQGRnqj+b1LTB/XdrQJ2fSMAw+ZXBJkKMQCa+g0CBNprB1LaTQOWwJMBm
053B4sHFQLN0x0DDL6XBiMX8QLCkqEDKFZjB0I7HQOSw8EDirp7BzH/6QIKZ00BGP5LBWpSuQPLF
VEDQHKvBGn/SQA6cn0BUS57BulDZQD65b0DfXKXBaMekQID7gUBr5bXBza54QE50jMC7M5LBNvGI
QISHZkAs5KPBJddRQMAvgkCKgpPBYEyNQBmpoL+szKDBQrCxQEbkT8DUIKHBJjmxQMWVlkCsbZbB
tALxQAr09EDH1pnBiOGFP2mVmMDyU4DB1gzpQFzdCUDJGbvB4EznQH3uLkDh157BkAv5QBjCf0BR
jKzB/lTIQEKnAMCM9K/BFWXwQCo31L5AXrvBvoRSP3maFcDBUYjBXdIaQLJqrr9WgZXBJJyFQILT
oT+PLqHBsuJMQEKXvcApGIjB+fykQA39wkAgM6jB8vzbQF0eykAY+qvBbMwLQedRqUDHx53BSgEB
Qbz/jkB0M5LBq6nBQKoVBkFf+6PByu2uQPPC70B5ZpjBaC7hQO5h0kAZJIzBRrUMQeg52kBOYY7B
zZGhQCmGpEB6Z7TBEh6/QOLJeECIkLvBbsSGQOYta0BaS7nBClxXQCdzWEDVm6bBkEhVQBeIjkBL
JIzBa3EbQF1waUCoC5bBG7VnQIKpT7+0fp3Bw9vBQC5CeL9Fn63BGZzXQDzZ4r3EprTBNcNPQHCA
l8Bz6YXBgFGHQK3YfsDEPYvBP+yaQIZGcD8vY6bBtAXIP7GfZMCrYpDBKluyQIgm6z/U86zBojaj
QFmd4b5OiKbBp53yPzHlkMBdjojBht7PQNOKoz+uc7TBES11QGtzQsDcE5PBTEWPQP+xhUDRY5rB
EXCaQBCwD8C/FJnBhyAAQQaIqEAyjprB39zrQBD3M0D5A5nBy4IHQah1pkBU0I7Bllz8QOWyN0CO
Xo3BGaepQB7gV0AhMazB01ncQE3zhkBj/pzBLtvRQPZMiEChQ6nBeAeWQNKDdEC0FLfBwQMhQHWO
NsANcJXBgeiHQHVvakA486PBT4lZQIqIi0C8k5PB4dWKQAffoL/O6J/BgvbAQOe9GcA3mZfB69e2
QIxPk0Cp1JbBarUOQRWXd0D/U4zBkOprP1Wnp8C4qYPBL37kQOdZAkDtxLvBkXT1QN89e0Dz3q7B
abjIQJWvsUDo6avBI5fIQDPcAcBqp63BOnbuQKRxBL/7QbrBYohhQGSorsBCyn/BDseoQDLhg8AQ
Y4nBYD+CQDh7qT/kLqHBelAGPxRRWsC4ZJLBlMjzQGLHyEDmNJzBGesNQd4bokATyJ/Bw/ICQcmm
HUCSPZ7BwfLQQBa4BkD9b5nBFLoUQcUrvUD7ko3BBCb0QOjxrkB0ionBQ6XhQC7rR0CgAojBa7gE
QUam8T87I4vBGW2PQEDSnEAb3LbBVsWsQGSkZkDskb3BQhNwQNp0UUBHgLjBAyVTQFnQXEDe16XB
2z5iQN4emUCUaozBXgofQIQogkCM0pXBQENWQHmqj7+IDqDB

> <OMEGA_E>
pMMCPwSnGT8U+iM/1rpAPw==

> <OMEGA_NBR>
    106936

$$$$
450383
  -OEChem-04172616093D

 53 56  0     1  0  0  0  0  0999 V2000
    6.0535   -0.9221  -21.9596 C   0  0  0  0  0  0  0  0  0  0  0  0
    6.7773   -0.0181  -22.7505 C   0  0  0  0  0  0  0  0  0  0  0  0
    2.9149   -4.9141  -17.3541 C   0  0  0  0  0  0  0  0  0  0  0  0
    3.7936   -4.4300  -18.3322 C   0  0  0  0  0  0  0  0  0  0  0  0
    4.8993    0.9328  -20.8955 C   0  0  0  0  0  0  0  0  0  0  0  0
    1.8675   -2.7223  -17.3017 C   0  0  0  0  0  0  0  0  0  0  0  0
    5.6219    1.8555  -21.6778 C   0  0  0  0  0  0  0  0  0  0  0  0
    5.1229   -0.4380  -21.0129 C   0  0  0  0  0  0  0  0  0  0  0  0
    1.9401   -4.0478  -16.8335 C   0  0  0  0  0  0  0  0  0  0  0  0
    6.5786    1.3640  -22.6094 C   0  0  0  0  0  0  0  0  0  0  0  0
    3.6752   -3.0882  -18.7614 C   0  0  0  0  0  0  0  0  0  0  0  0
    4.3613    4.0617  -19.2472 C   0  0  0  0  0  0  0  0  0  0  0  0
    4.5887   -2.5450  -19.7755 C   0  0  0  0  0  0  0  0  0  0  0  0
    6.5639    6.0904  -20.2514 C   0  0  0  0  0  0  0  0  0  0  0  0
    7.8944    4.8173  -18.4802 C   0  0  0  0  0  0  0  0  0  0  0  0
    6.6312    7.3044  -19.3274 C   0  0  0  0  0  0  0  0  0  0  0  0
    7.8429    6.0917  -17.6338 C   0  0  0  0  0  0  0  0  0  0  0  0
    5.5848    3.3334  -21.2880 C   0  0  1  0  0  0  0  0  0  0  0  0
    6.6782    4.7528  -19.4499 C   0  0  0  0  0  0  0  0  0  0  0  0
    6.8632    3.5484  -20.3920 C   0  0  0  0  0  0  0  0  0  0  0  0
    5.4967    4.2170  -22.5786 C   0  0  0  0  0  0  0  0  0  0  0  0
    2.7212   -2.2672  -18.2430 N   0  0  0  0  0  0  0  0  0  0  0  0
    4.3460    3.6457  -20.4969 N   0  3  0  0  0  0  0  0  0  0  0  0
    3.1897    3.9825  -18.5101 N   0  0  0  0  0  0  0  0  0  0  0  0
    4.3740   -1.2308  -20.1573 N   0  0  0  0  0  0  0  0  0  0  0  0
    5.5324   -3.2113  -20.1862 O   0  0  0  0  0  0  0  0  0  0  0  0
    5.4901    4.5534  -18.6247 O   0  0  0  0  0  0  0  0  0  0  0  0
    7.8109    7.2378  -18.5065 O   0  0  0  0  0  0  0  0  0  0  0  0
    1.0770   -4.4822  -15.8906 F   0  0  0  0  0  0  0  0  0  0  0  0
    7.3512    2.1948  -23.3471 F   0  0  0  0  0  0  0  0  0  0  0  0
    7.0838    2.4494  -19.6016 F   0  0  0  0  0  0  0  0  0  0  0  0
    7.9800    3.7158  -21.1539 F   0  0  0  0  0  0  0  0  0  0  0  0
    6.2069   -1.9851  -22.0737 H   0  0  0  0  0  0  0  0  0  0  0  0
    7.4912   -0.3874  -23.4718 H   0  0  0  0  0  0  0  0  0  0  0  0
    2.9861   -5.9343  -17.0070 H   0  0  0  0  0  0  0  0  0  0  0  0
    4.5519   -5.0738  -18.7529 H   0  0  0  0  0  0  0  0  0  0  0  0
    4.1611    1.2931  -20.1944 H   0  0  0  0  0  0  0  0  0  0  0  0
    1.1160   -2.0582  -16.9009 H   0  0  0  0  0  0  0  0  0  0  0  0
    5.6046    6.1036  -20.7896 H   0  0  0  0  0  0  0  0  0  0  0  0
    7.3909    6.1454  -20.9747 H   0  0  0  0  0  0  0  0  0  0  0  0
    8.8250    4.8104  -19.0667 H   0  0  0  0  0  0  0  0  0  0  0  0
    7.8735    3.9410  -17.8155 H   0  0  0  0  0  0  0  0  0  0  0  0
    6.6616    8.2216  -19.9338 H   0  0  0  0  0  0  0  0  0  0  0  0
    5.7401    7.3204  -18.6827 H   0  0  0  0  0  0  0  0  0  0  0  0
    6.9391    6.0810  -17.0069 H   0  0  0  0  0  0  0  0  0  0  0  0
    8.7342    6.1431  -16.9912 H   0  0  0  0  0  0  0  0  0  0  0  0
    5.4702    5.2795  -22.2951 H   0  0  0  0  0  0  0  0  0  0  0  0
    6.3757    4.0286  -23.2125 H   0  0  0  0  0  0  0  0  0  0  0  0
    4.5823    3.9631  -23.1349 H   0  0  0  0  0  0  0  0  0  0  0  0
    3.4592    3.5312  -20.9448 H   0  0  0  0  0  0  0  0  0  0  0  0
    3.1792    4.2775  -17.5547 H   0  0  0  0  0  0  0  0  0  0  0  0
    2.3552    3.6304  -18.9339 H   0  0  0  0  0  0  0  0  0  0  0  0
    3.5668   -0.7934  -19.7608 H   0  0  0  0  0  0  0  0  0  0  0  0
  1  2  2  0  0  0  0
  1  8  1  0  0  0  0
  2 10  1  0  0  0  0
  3  4  2  0  0  0  0
  3  9  1  0  0  0  0
  4 11  1  0  0  0  0
  5  7  1  0  0  0  0
  5  8  2  0  0  0  0
  6  9  2  0  0  0  0
  6 22  1  0  0  0  0
  7 10  2  0  0  0  0
  7 18  1  0  0  0  0
  8 25  1  0  0  0  0
  9 29  1  0  0  0  0
 10 30  1  0  0  0  0
 11 13  1  0  0  0  0
 11 22  2  0  0  0  0
 12 23  2  0  0  0  0
 12 24  1  0  0  0  0
 12 27  1  0  0  0  0
 13 25  1  0  0  0  0
 13 26  2  0  0  0  0
 14 16  1  0  0  0  0
 14 19  1  0  0  0  0
 15 17  1  0  0  0  0
 15 19  1  0  0  0  0
 16 28  1  0  0  0  0
 17 28  1  0  0  0  0
 18 20  1  0  0  0  0
 18 21  1  0  0  0  0
 18 23  1  0  0  0  0
 19 20  1  0  0  0  0
 19 27  1  0  0  0  0
 20 31  1  0  0  0  0
 20 32  1  0  0  0  0
  1 33  1  0  0  0  0
  2 34  1  0  0  0  0
  3 35  1  0  0  0  0
  4 36  1  0  0  0  0
  5 37  1  0  0  0  0
  6 38  1  0  0  0  0
 14 39  1  0  0  0  0
 14 40  1  0  0  0  0
 15 41  1  0  0  0  0
 15 42  1  0  0  0  0
 16 43  1  0  0  0  0
 16 44  1  0  0  0  0
 17 45  1  0  0  0  0
 17 46  1  0  0  0  0
 21 47  1  0  0  0  0
 21 48  1  0  0  0  0
 21 49  1  0  0  0  0
 23 50  1  0  0  0  0
 24 51  1  0  0  0  0
 24 52  1  0  0  0  0
 25 53  1  0  0  0  0
M  CHG  1  23   1
M  END
> <OMEGA_C>
k7bBQMwQbL9Fra/Bmt/YQICflLwAAbbBNY46QDpAncAj1YrBJMtyQPLCjcBbqJLBFcecQADKbj8B
KqfBBArvP8U5LsDWaYrBo+azQAKA7T8wbK3BB++jQNY84L5yGqjBNFX4P9yHgcAHq4bBIITSQDOW
rj8Q4LTBYTZrQB2lRcBoF5bByI+LQLr5gUBK+pnBcNaSQD/hIsAmNJ7BfgvSQE3kwkD1AqLBQZ/8
QAInmkBb15PBIDPUQJ+96UB6nprBUfn6QADvwkD9EY3BFreyQC1XVUDiTarBJLTVQDAXmEBfmZvB
Up/bQMgZY0C7IqPBOuWvQGjxhkD+oLTB6yguQCwZEcDD8ZHBBxKLQI5TaUC6+aPBmyRMQPrhfkC9
FJTBdfeLQK2Jnb8xQqHBDQmxQCGFTcBQfaHB066vQDW1kUBj/5TBAfP5QMib50BZDZTBPNyJPzFu
j8D2P37B8zzrQN53DEDMxrrBWq7iQDvCHED7z5zBX1z/QHbPbUAYO6nBLp/GQO0W/r/5lrDBGLjv
QJRbxr5SxrvBmRs/QA3mvcBfDojB6qiRQPJcosAKBpbBiyeFQJ6EpT8YjqHBK9mOP9C4A8AXNYfB
LlmzQOpQw0AjUabBGYLsQDynxEAozKfBMzMNQbbumUCPiJjBT/P7QHQ5fEAwho7BCCzVQNOLA0Fu
eJ/BI6+3QAhB6kAYdpXBHA3eQFSXwkAnDojBfL8LQTOUxED67YfBKwyvQHvxqEBiXLLBHAbMQPTp
gEA7s7nBaqKSQLWjfUA1FLnBC2RdQLL+YUACj6fBQHhLQJPhiED/b4zB5bsWQPVYaECqeJfBoUZk
QKscS78bFp7B3M3DQPhieb+/w67B9UrbQMAel70K8bTBmKM9QGqnn8A22orB9YF2QLA/j8ASdZLB
Bo+cQCJXXz/qvKbBvi/gP2SIOMAfk4vBenqzQFLp5T8HAa3Br2OkQCz1/L4doKfBbpTzP0nChcB2
WofBVfXSQF4wpj/USbTBMyFqQBt2SsBpUZbBNGmNQHqIiUAMSZvBBFiTQOV3JcBl753BZPaoQOZW
y0CDBazBDOLwQC5dxkDOCKLBSiOnQDbD+UB/XKjB+BnqQCBo9UBKLJ/BOq2nQHlCUkCYZKzBHLzF
QHwMr0AjjaTBLePQQCjOg0D21anBbbeRQEfsZkACVrfBC4onQOaHGcBO4pLBo+uGQAdJYkCDvqPB
wwlhQIy8hkA445LBuHWKQHppp7+/gqHB9NO0QG3ASsCyC6DB/NiuQACLpkASmJrBHNHRQPIGBUFq
eafB2geEPy+elMD+/3/BhqDoQNWmBUAFJrvBajvqQO3IWkCX2qLBvMbnQJD3i0Ar2LLBFKXJQEJB
AsDOca/BrvvzQH20375PPrrBC8ZFQASgv8Cfu4fBaJSVQKZyosBtVpXB16SEQLsHnT+dLqHB/dBt
P14XEcCA64jBr0+IQFgwvkB+B6zBSRK2QGNGykAmL7TBadkCQX50xEBiHanBzDoAQfc1tkAhQZvB
JiiVQLBqBkEvPK7BHiuXQIag+0BtiKDBi5LYQIKk90Dwj5fBR6wEQdykAkHSW57BCEKIQCFclUAW
grfBTEeoQJUWWkC05b3BM1VqQHd5PkAmTbjBILtUQDMARkBPeqTBBP9nQMJ7mUB4dozB9W0wQJby
Y0BfQpPBCAlcQGA2br9abp/BwsnCQN/Jcr/7Mq/BDi/ZQBD6P72urrXBIhrWPxkEOsAcFovB7Ggk
QFU4F8BHeZLBhvCcQJfPZz+i36bBe59BQEaancDkC4vB8OayQICe6T83Za3BfuykQAAs7b4dq6fB
sJDzPx6dhsBzWofB6KDRQGRnqj+b1LTB/XdrQJ2fSMAw+ZXBJkKMQCa+g0CBNprB1LaTQOWwJMBm
053B4sHFQLN0x0DDL6XBiMX8QLCkqEDKFZjB0I7HQOSw8EDirp7BzH/6QIKZ00BGP5LBWpSuQPLF
VEDQHKvBGn/SQA6cn0BUS57BulDZQD65b0DfXKXBaMekQID7gUBr5bXBza54QE50jMC7M5LBNvGI
QISHZkAs5KPBJddRQMAvgkCKgpPBYEyNQBmpoL+szKDBQrCxQEbkT8DUIKHBJjmxQMWVlkCsbZbB
tALxQAr09EDH1pnBiOGFP2mVmMDyU4DB1gzpQFzdCUDJGbvB4EznQH3uLkDh157BkAv5QBjCf0BR
jKzB/lTIQEKnAMCM9K/BFWXwQCo31L5AXrvBvoRSP3maFcDBUYjBXdIaQLJqrr9WgZXBJJyFQILT
oT+PLqHBsuJMQEKXvcApGIjB+fykQA39wkAgM6jB8vzbQF0eykAY+qvBbMwLQedRqUDHx53BSgEB
Qbz/jkB0M5LBq6nBQKoVBkFf+6PByu2uQPPC70B5ZpjBaC7hQO5h0kAZJIzBRrUMQeg52kBOYY7B
zZGhQCmGpEB6Z7TBEh6/QOLJeECIkLvBbsSGQOYta0BaS7nBClxXQCdzWEDVm6bBkEhVQBeIjkBL
JIzBa3EbQF1waUCoC5bBG7VnQIKpT7+0fp3Bw9vBQC5CeL9Fn63BGZzXQDzZ4r3EprTBNcNPQHCA
l8Bz6YXBgFGHQK3YfsDEPYvBP+yaQIZGcD8vY6bBtAXIP7GfZMCrYpDBKluyQIgm6z/U86zBojaj
QFmd4b5OiKbBp53yPzHlkMBdjojBht7PQNOKoz+uc7TBES11QGtzQsDcE5PBTEWPQP+xhUDRY5rB
EXCaQBCwD8C/FJnBhyAAQQaIqEAyjprB39zrQBD3M0D5A5nBy4IHQah1pkBU0I7Bllz8QOWyN0CO
Xo3BGaepQB7gV0AhMazB01ncQE3zhkBj/pzBLtvRQPZMiEChQ6nBeAeWQNKDdEC0FLfBwQMhQHWO
NsANcJXBgeiHQHVvakA486PBT4lZQIqIi0C8k5PB4dWKQAffoL/O6J/BgvbAQOe9GcA3mZfB69e2
QIxPk0Cp1JbBarUOQRWXd0D/U4zBkOprP1Wnp8C4qYPBL37kQOdZAkDtxLvBkXT1QN89e0Dz3q7B
abjIQJWvsUDo6avBI5fIQDPcAcBqp63BOnbuQKRxBL/7QbrBYohhQGSorsBCyn/BDseoQDLhg8AQ
Y4nBYD+CQDh7qT/kLqHBelAGPxRRWsC4ZJLBlMjzQGLHyEDmNJzBGesNQd4bokATyJ/Bw/ICQcmm
HUCSPZ7BwfLQQBa4BkD9b5nBFLoUQcUrvUD7ko3BBCb0QOjxrkB0ionBQ6XhQC7rR0CgAojBa7gE
QUam8T87I4vBGW2PQEDSnEAb3LbBVsWsQGSkZkDskb3BQhNwQNp0UUBHgLjBAyVTQFnQXEDe16XB
2z5iQN4emUCUaozBXgofQIQogkCM0pXBQENWQHmqj7+IDqDB

> <OMEGA_E>
pMMCPwSnGT8U+iM/1rpAPw==

> <OMEGA_NBR>
    110785

$$$$
450319
  -OEChem-04172616093D

 53 56  0     1  0  0  0  0  0999 V2000
    5.2998   -0.9592  -22.1909 C   0  0  0  0  0  0  0  0  0  0  0  0
    5.9784   -0.1393  -23.0980 C   0  0  0  0  0  0  0  0  0  0  0  0
    3.1898   -5.1450  -17.2856 C   0  0  0  0  0  0  0  0  0  0  0  0
    4.0915   -4.5012  -18.1495 C   0  0  0  0  0  0  0  0  0  0  0  0
    5.2013    0.8900  -20.5993 C   0  0  0  0  0  0  0  0  0  0  0  0
    1.6827   -3.2596  -17.5599 C   0  0  0  0  0  0  0  0  0  0  0  0
    5.8782    1.7446  -21.5040 C   0  0  0  0  0  0  0  0  0  0  0  0
    4.9389   -0.4512  -20.9292 C   0  0  0  0  0  0  0  0  0  0  0  0
    1.9679   -4.5151  -16.9907 C   0  0  0  0  0  0  0  0  0  0  0  0
    6.3074    1.1817  -22.7538 C   0  0  0  0  0  0  0  0  0  0  0  0
    3.7448   -3.2394  -18.6926 C   0  0  0  0  0  0  0  0  0  0  0  0
    4.4371    4.7126  -20.1479 C   0  0  0  0  0  0  0  0  0  0  0  0
    4.6428   -2.5336  -19.6249 C   0  0  0  0  0  0  0  0  0  0  0  0
    6.7753    6.4700  -20.9719 C   0  0  0  0  0  0  0  0  0  0  0  0
    5.5540    6.5519  -23.1646 C   0  0  0  0  0  0  0  0  0  0  0  0
    8.0675    6.8841  -21.7153 C   0  0  0  0  0  0  0  0  0  0  0  0
    6.8798    6.9603  -23.8503 C   0  0  0  0  0  0  0  0  0  0  0  0
    6.2258    3.2026  -21.0541 C   0  0  2  0  0  0  0  0  0  0  0  0
    5.7821    5.6768  -21.8848 C   0  0  0  0  0  0  0  0  0  0  0  0
    6.2138    4.2143  -22.2694 C   0  0  0  0  0  0  0  0  0  0  0  0
    7.6141    3.1067  -20.3472 C   0  0  0  0  0  0  0  0  0  0  0  0
    2.5586   -2.6491  -18.3864 N   0  0  0  0  0  0  0  0  0  0  0  0
    5.2380    3.6717  -20.0151 N   0  3  0  0  0  0  0  0  0  0  0  0
    3.4683    4.9363  -19.1822 N   0  0  0  0  0  0  0  0  0  0  0  0
    4.2782   -1.2408  -20.0000 N   0  0  0  0  0  0  0  0  0  0  0  0
    5.7011   -3.0408  -19.9883 O   0  0  0  0  0  0  0  0  0  0  0  0
    4.5085    5.5965  -21.2002 O   0  0  0  0  0  0  0  0  0  0  0  0
    7.7463    7.6396  -22.9100 O   0  0  0  0  0  0  0  0  0  0  0  0
    1.0708   -5.1056  -16.1699 F   0  0  0  0  0  0  0  0  0  0  0  0
    7.0388    1.8637  -23.6597 F   0  0  0  0  0  0  0  0  0  0  0  0
    5.2804    3.7869  -23.1736 F   0  0  0  0  0  0  0  0  0  0  0  0
    7.4354    4.2187  -22.8631 F   0  0  0  0  0  0  0  0  0  0  0  0
    5.0541   -1.9766  -22.4573 H   0  0  0  0  0  0  0  0  0  0  0  0
    6.2513   -0.5245  -24.0694 H   0  0  0  0  0  0  0  0  0  0  0  0
    3.4308   -6.1061  -16.8558 H   0  0  0  0  0  0  0  0  0  0  0  0
    5.0365   -4.9621  -18.3963 H   0  0  0  0  0  0  0  0  0  0  0  0
    4.8821    1.2746  -19.6420 H   0  0  0  0  0  0  0  0  0  0  0  0
    0.7449   -2.7753  -17.3310 H   0  0  0  0  0  0  0  0  0  0  0  0
    7.0494    5.8361  -20.1158 H   0  0  0  0  0  0  0  0  0  0  0  0
    6.2714    7.3781  -20.6093 H   0  0  0  0  0  0  0  0  0  0  0  0
    5.0113    7.4640  -22.8755 H   0  0  0  0  0  0  0  0  0  0  0  0
    4.9492    5.9770  -23.8813 H   0  0  0  0  0  0  0  0  0  0  0  0
    8.6849    7.5050  -21.0495 H   0  0  0  0  0  0  0  0  0  0  0  0
    8.6277    5.9807  -21.9981 H   0  0  0  0  0  0  0  0  0  0  0  0
    7.3870    6.0588  -24.2245 H   0  0  0  0  0  0  0  0  0  0  0  0
    6.6600    7.6335  -24.6921 H   0  0  0  0  0  0  0  0  0  0  0  0
    7.9208    4.1055  -20.0032 H   0  0  0  0  0  0  0  0  0  0  0  0
    7.5400    2.4286  -19.4842 H   0  0  0  0  0  0  0  0  0  0  0  0
    8.3603    2.7180  -21.0558 H   0  0  0  0  0  0  0  0  0  0  0  0
    5.1859    3.1548  -19.1607 H   0  0  0  0  0  0  0  0  0  0  0  0
    2.8513    5.7189  -19.2648 H   0  0  0  0  0  0  0  0  0  0  0  0
    3.3864    4.3151  -18.4029 H   0  0  0  0  0  0  0  0  0  0  0  0
    3.4698   -0.8491  -19.5608 H   0  0  0  0  0  0  0  0  0  0  0  0
  1  2  2  0  0  0  0
  1  8  1  0  0  0  0
  2 10  1  0  0  0  0
  3  4  2  0  0  0  0
  3  9  1  0  0  0  0
  4 11  1  0  0  0  0
  5  7  1  0  0  0  0
  5  8  2  0  0  0  0
  6  9  2  0  0  0  0
  6 22  1  0  0  0  0
  7 10  2  0  0  0  0
  7 18  1  0  0  0  0
  8 25  1  0  0  0  0
  9 29  1  0  0  0  0
 10 30  1  0  0  0  0
 11 13  1  0  0  0  0
 11 22  2  0  0  0  0
 12 23  2  0  0  0  0
 12 24  1  0  0  0  0
 12 27  1  0  0  0  0
 13 25  1  0  0  0  0
 13 26  2  0  0  0  0
 14 16  1  0  0  0  0
 14 19  1  0  0  0  0
 15 17  1  0  0  0  0
 15 19  1  0  0  0  0
 16 28  1  0  0  0  0
 17 28  1  0  0  0  0
 18 20  1  0  0  0  0
 18 21  1  0  0  0  0
 18 23  1  0  0  0  0
 19 20  1  0  0  0  0
 19 27  1  0  0  0  0
 20 31  1  0  0  0  0
 20 32  1  0  0  0  0
  1 33  1  0  0  0  0
  2 34  1  0  0  0  0
  3 35  1  0  0  0  0
  4 36  1  0  0  0  0
  5 37  1  0  0  0  0
  6 38  1  0  0  0  0
 14 39  1  0  0  0  0
 14 40  1  0  0  0  0
 15 41  1  0  0  0  0
 15 42  1  0  0  0  0
 16 43  1  0  0  0  0
 16 44  1  0  0  0  0
 17 45  1  0  0  0  0
 17 46  1  0  0  0  0
 21 47  1  0  0  0  0
 21 48  1  0  0  0  0
 21 49  1  0  0  0  0
 23 50  1  0  0  0  0
 24 51  1  0  0  0  0
 24 52  1  0  0  0  0
 25 53  1  0  0  0  0
M  CHG  1  23   1
M  END
> <OMEGA_C>
S5ipQB6Pdb8Jh7HBbE+/QKKmDr6tyLjBvCVMQCikpMDPSIrBZO2CQNgJkMAmMpHBTXGmQMjXYz9u
y6TBu2LXP9GdUMCeeozBmRq8QBVO3z8nCKzBxAueQLoE577wbqfBluT7P6x7kMAG7YfB0NXJQCtC
lz/QB7bBgapvQP1ST8BzipXBy/yNQM3NlkDQLqHB0pGUQBAnIsDK/5zB/c7YQG8Kz0CGxqfBI7qx
QDSp0UAOUbnBWBQBQcpK3ED+uK3B7ybcQCG73kByzb7BBDrHQN32TEDSbqjBWge5QAyotUAVFK/B
C9fGQNDbhkC0J7LBHKfzQBjURkD4xqLB5sAjQFCKKcBpF5PBoJ2nQNL9akAFH6DB8PhdQCD2nUAe
dZnB2OaIQADUnr8WAKDBpG+2QOebQsAA6J/BjUWQQJoWs0ANmqnBh+H3QLd39EC5R7fBGw+JPzxh
o8D6W4HB9z3hQGmN7j8QR73B+vioQHxcckChY7nB2e7tQDf/hkCI57bBKbuhQHAB/b90qLPBkQrI
QHpIBr8IjsDBvJJbQDtlw8DC2IbB8yqhQGDJnsC1K5PB6jmcQBsmoz+7Ip3BZ7Q+PxOeMcDNpYrB
1JThQDXBukAq7aDB9K7IQD0Z7EDX36TBXlygQBXZ7kAIAbfBhV+eQHhDv0DgDL/BRfUKQTcp8EBy
ZajB9woKQc1hv0Ab/K/B5mHsQODhwUDEy8HBlh7VQHJF9EBpicXBPHf9QG1gg0CJBqDBikfxQJBu
G0Cb35vBscMFQbTzLUBScqjBlfKlQL3oSUAbSZnB5ns2QEMBt0BQHprBLLpYQPkUikAOOZPBoBBe
QHtbWb9yfJzBcmeyQLwGc78im7DB/1vJQL4TLb4X2LfBe/JRQM+dmsC/1YfBTESEQKZiicBhpY/B
5TGrQBBUej9KwKTBrnjXP//yRMCKDYzBiSPBQEEU5z+7MKzBEYekQDbgyb4+16bBVWACQOPmhsBK
C4bBgebRQGuplj87obXBGDtuQCUkScB/YZXBN4KNQNDLnEB+JKTB4yqTQLgjIsCzdJ3BxALfQM2u
z0CRRqvBd0a3QMbyzECQIL3BnA3iQIpG/0DQlq7BCnOpQMwq/EDP0rvBl0rIQD2GVEAhfanBJci8
QElRtkCpBrLB4THJQPDAhkB47rPBMAPyQJsuWkBttqLBvi8hQErgI8DNepPB242kQGUPdEDzaqLB
tMtYQD8opkDwJJ3Bl76OQJBGlL9vQZ/Bq9CuQN2hTcBM1qHBr7KTQNA9uEBFoqzBNKu4QNRWB0EK
5rHBr8WXP96plsCCQH3BGQHqQJNl6D8J9LzBu+mrQPGdbED197rBNcvwQK/jhkA9hLjBMD+rQIZj
/b8Ae7LBF6fUQLA5G7/pOL/BmrlkQOB4tsCZSoPBT+eiQIcDmMAdQ5HB2G2fQHXdsz+0YZ3B9rY5
P7TtJsBBsorBa3z+QCigwEA6cKzBzhjWQFD5zUDyxaLBJ7+eQAXZu0A9xcHBve/VQK3cy0DpcMHB
AFntQI8lCUFXvqfB2MT4QHdAAUFIQ7XBJnC2QJJmB0HOi8LBUUqGQPHJ/UDL8rvBwVX4QHyxjkAl
n6DBtCvuQMJkNECkWZvBSIEGQWm9QEDsYKfBmLydQD6WUUCE5ZvBDEQ0QHv5v0CKXZ7BZo1NQNYX
k0Di35bBIpFzQEtnLL+8nprB

> <OMEGA_E>
NGdhPygvYD8=

> <OMEGA_NBR>
    112857

$$$$
450385
  -OEChem-04172616093D

 49 52  0     1  0  0  0  0  0999 V2000
    6.1716   -0.8416  -21.8016 C   0  0  0  0  0  0  0  0  0  0  0  0
    6.8810    0.0553  -22.6092 C   0  0  0  0  0  0  0  0  0  0  0  0
    2.9543   -4.9256  -17.2981 C   0  0  0  0  0  0  0  0  0  0  0  0
    3.8226   -4.4293  -18.2825 C   0  0  0  0  0  0  0  0  0  0  0  0
    4.9873    1.0310  -20.7951 C   0  0  0  0  0  0  0  0  0  0  0  0
    1.8060   -2.7861  -17.3300 C   0  0  0  0  0  0  0  0  0  0  0  0
    5.6866    1.9630  -21.6142 C   0  0  0  0  0  0  0  0  0  0  0  0
    5.2242   -0.3551  -20.8746 C   0  0  0  0  0  0  0  0  0  0  0  0
    1.9345   -4.0902  -16.8147 C   0  0  0  0  0  0  0  0  0  0  0  0
    6.6493    1.4396  -22.5273 C   0  0  0  0  0  0  0  0  0  0  0  0
    3.6503   -3.1048  -18.7570 C   0  0  0  0  0  0  0  0  0  0  0  0
    4.4109    3.9542  -19.2815 C   0  0  0  0  0  0  0  0  0  0  0  0
    4.5786   -2.5323  -19.7525 C   0  0  0  0  0  0  0  0  0  0  0  0
    8.2484    3.5174  -18.1730 C   0  0  0  0  0  0  0  0  0  0  0  0
    8.0569    4.7931  -19.0157 C   0  0  0  0  0  0  0  0  0  0  0  0
    7.5368    2.7644  -19.3078 C   0  0  0  0  0  0  0  0  0  0  0  0
    5.3545    3.4961  -21.5319 C   0  0  1  0  0  0  0  0  0  0  0  0
    6.8069    4.0976  -19.5838 C   0  0  0  0  0  0  0  0  0  0  0  0
    6.5334    4.4149  -21.0622 C   0  0  0  0  0  0  0  0  0  0  0  0
    4.8508    3.9782  -22.9130 C   0  0  0  0  0  0  0  0  0  0  0  0
    2.6497   -2.3186  -18.2770 N   0  0  0  0  0  0  0  0  0  0  0  0
    4.2268    3.7244  -20.5690 N   0  3  0  0  0  0  0  0  0  0  0  0
    3.3120    3.8947  -18.4390 N   0  0  0  0  0  0  0  0  0  0  0  0
    4.4533   -1.1684  -20.0340 N   0  0  0  0  0  0  0  0  0  0  0  0
    5.4623   -3.2324  -20.2339 O   0  0  0  0  0  0  0  0  0  0  0  0
    5.6356    4.2804  -18.7319 O   0  0  0  0  0  0  0  0  0  0  0  0
    1.0830   -4.5317  -15.8630 F   0  0  0  0  0  0  0  0  0  0  0  0
    7.3524    2.2294  -23.3658 F   0  0  0  0  0  0  0  0  0  0  0  0
    7.6535    4.2738  -21.8162 F   0  0  0  0  0  0  0  0  0  0  0  0
    6.1774    5.7302  -21.1378 F   0  0  0  0  0  0  0  0  0  0  0  0
    6.3486   -1.9035  -21.8876 H   0  0  0  0  0  0  0  0  0  0  0  0
    7.6165   -0.3213  -23.3046 H   0  0  0  0  0  0  0  0  0  0  0  0
    3.0683   -5.9306  -16.9197 H   0  0  0  0  0  0  0  0  0  0  0  0
    4.6143   -5.0504  -18.6747 H   0  0  0  0  0  0  0  0  0  0  0  0
    4.2538    1.3980  -20.0924 H   0  0  0  0  0  0  0  0  0  0  0  0
    1.0176   -2.1466  -16.9612 H   0  0  0  0  0  0  0  0  0  0  0  0
    9.2962    3.2245  -18.0110 H   0  0  0  0  0  0  0  0  0  0  0  0
    7.7141    3.5150  -17.2115 H   0  0  0  0  0  0  0  0  0  0  0  0
    7.8576    5.7070  -18.4368 H   0  0  0  0  0  0  0  0  0  0  0  0
    8.8530    4.9898  -19.7489 H   0  0  0  0  0  0  0  0  0  0  0  0
    8.1936    2.4173  -20.1190 H   0  0  0  0  0  0  0  0  0  0  0  0
    6.8881    1.9379  -18.9821 H   0  0  0  0  0  0  0  0  0  0  0  0
    4.6159    5.0517  -22.8639 H   0  0  0  0  0  0  0  0  0  0  0  0
    5.6325    3.8083  -23.6680 H   0  0  0  0  0  0  0  0  0  0  0  0
    3.9459    3.4172  -23.1894 H   0  0  0  0  0  0  0  0  0  0  0  0
    3.2903    3.7015  -20.9190 H   0  0  0  0  0  0  0  0  0  0  0  0
    3.4191    4.0854  -17.4632 H   0  0  0  0  0  0  0  0  0  0  0  0
    2.4119    3.6612  -18.8069 H   0  0  0  0  0  0  0  0  0  0  0  0
    3.7014   -0.7045  -19.5656 H   0  0  0  0  0  0  0  0  0  0  0  0
  1  2  2  0  0  0  0
  1  8  1  0  0  0  0
  2 10  1  0  0  0  0
  3  4  2  0  0  0  0
  3  9  1  0  0  0  0
  4 11  1  0  0  0  0
  5  7  1  0  0  0  0
  5  8  2  0  0  0  0
  6  9  2  0  0  0  0
  6 21  1  0  0  0  0
  7 10  2  0  0  0  0
  7 17  1  0  0  0  0
  8 24  1  0  0  0  0
  9 27  1  0  0  0  0
 10 28  1  0  0  0  0
 11 13  1  0  0  0  0
 11 21  2  0  0  0  0
 12 22  2  0  0  0  0
 12 23  1  0  0  0  0
 12 26  1  0  0  0  0
 13 24  1  0  0  0  0
 13 25  2  0  0  0  0
 14 15  1  0  0  0  0
 14 16  1  0  0  0  0
 15 18  1  0  0  0  0
 16 18  1  0  0  0  0
 17 19  1  0  0  0  0
 17 20  1  0  0  0  0
 17 22  1  0  0  0  0
 18 19  1  0  0  0  0
 18 26  1  0  0  0  0
 19 29  1  0  0  0  0
 19 30  1  0  0  0  0
  1 31  1  0  0  0  0
  2 32  1  0  0  0  0
  3 33  1  0  0  0  0
  4 34  1  0  0  0  0
  5 35  1  0  0  0  0
  6 36  1  0  0  0  0
 14 37  1  0  0  0  0
 14 38  1  0  0  0  0
 15 39  1  0  0  0  0
 15 40  1  0  0  0  0
 16 41  1  0  0  0  0
 16 42  1  0  0  0  0
 20 43  1  0  0  0  0
 20 44  1  0  0  0  0
 20 45  1  0  0  0  0
 22 46  1  0  0  0  0
 23 47  1  0  0  0  0
 23 48  1  0  0  0  0
 24 49  1  0  0  0  0
M  CHG  1  22   1
M  END
> <OMEGA_C>
j33FQM9zV7+8aa7BODHcQOCkYj2P37TBrBM9QCSencCRYorB0aR0QHS8jcCBQpLB45efQFH5gz9Y
XKbBLCrnP15PMsDJo4rBdvi1QMtE+z/N6azBjyynQLzRtb40/6bBAZ33P0zjgsCHhIbBBsfUQB1F
uD/7N7TBRZ9pQMq0RsBHDpbB6CWNQBIRfUB0QJrB5IOSQHQQIsAHBZ7Bg/kDQRgdYUBiYpHBBOkA
QWphmUAuIJjBey3xQDDsMEBUdprBDlirQL7AX0BZQazBiNLZQMYfg0Cnq5zBwRHRQHZGjUBWf6jB
9TmbQHabfkDaTbfBR5QpQJBjFMBeN5LBx0GHQPpcbkBMjaTBMfdTQF5DeUAIg5PBYoGOQAuPlb+3
RaDBWMuuQIjfTsAV36HBlVa0QFj5iEAA25XBOKCKP+ADkcDCzn3BwkbrQDCuDkA57brBoOn0QMbC
iECOh67B8KzFQLNdt0AeGqnBqifLQP+m87+8Ga/BGrrzQF+CpL7Ub7rBe19EQLDHvcB5W4fB9aeT
QLWcocC+ZZXBZR+IQKbwsj8wvaDBLkKCP0ViCcB8sIfBXb0UQaRdTkBwFpDBv9n2QHD1YEA8sYnB
h3H7QOaftkCcfpPB9KUNQYasn0Cp/Z3BJhkDQVC0GkCq86DBDWvcQHkN+D9x25fBT7WTQM+noUBW
6bbBsz20QHC6c0AdWL3BsYl8QBS0WkDug7nBopRSQLTlbEAqWqfBM9NaQEu7gkCbtIvBo1waQJ1R
akCMdJbBY+NsQC1cNL9hhpzBv5bDQA2scL/TsK/BCPjYQMAPrbx8SLbBQgY8QKoLmcArzonBIDp2
QCMZi8DGlpHBjqmcQLRRYz9MXqfBO7jmP3EeKcDVTYvBzCSyQBqS6T9+ya3B4jOlQCZL8b4jOqjB
q1LzP4flesCWqYbBME3QQNpZrT81crXB3qJsQE12Q8At+JXBR3mLQAKGgkAA75nBmUaUQM2FI8Be
FJ7BHWvuQNy81EDto5nBGBfWQMwVw0ArWKPBYmf9QDitpkA5YpfBPSywQAe0UkCsfKrBeUvUQFKL
mEDxG53BthfaQP08YUBc3aPBstCqQOw/h0BnYbTBMAUsQPLeDsBRwJLBIHyJQHNXZEABpKPBCpBO
QHiZgED2hpPBhlGNQBo4ob9UbaHB/b+yQF+kTsAIGaHBKw+wQLYClUAwzpXBKL1/P6wZisC0jn7B
ulXmQKC7DEAb2rvBJK7hQDJTH0CJ5ZzBevj8QL8laEB3WarBJFTKQASL/7/dUrDBXDPwQES9vr5o
B7zB+BRCQNx1uMDcSIbB/9SUQGKwn8DeMpTBOhuFQEFrnT8cq6HB5b+AP8Fv/b/N3YjBpSIEQT5H
60BlnpvBgfXZQMKq4kAZYpPBrta2QHIb0kD226TB/ZfoQOEDwkBh06rBxqgNQYZbnUDUZJvB+iv/
QG0FnkCG3Y7BPYSpQJbDqECjtbHB/SXGQK3sgkCm0bnB4P+MQOhNfkDjmLjBK0VZQA5vVkA6oqbB
6SJQQItyjEAsGYzBIc4YQJ+6ZkBpVpbBYfxlQCaUU7/zep7BegTFQEILV7+CUK7B1sjbQKDQVD1o
zLTBhvjcP1KmNsBu9onBZm8kQLSFFMDT0ZHBDqmfQNFLhT9ROqbBVz5BQAT+nMDs2YrBjhG2QGf7
+z9506zBIgCnQJfAsb7+26bBpp36P3ExhcC/ZobBLLLUQD4GuD/QI7TBjF5oQG7fRsCd9pXBBvuM
QAodfUBDSprBBNCRQCaqIcCR7J3BN4UDQVyvYUBUEZHBM9IAQYSImUBC5pfBaHbwQLJrMUDXKprB
nrirQI5OYECROKzBlqTZQHaKg0AFh5zBdpHRQE1RjUByZ6jBSBCcQKpCf0AWT7fBc/p0QM8pjMBJ
dpLBWmGHQGh5b0CJnqTB7QBUQNaqdEDCjZPBim2OQPgYlL9JGKDBQqmtQMIbT8CT26HBqNWzQBro
iUAY2pXBwHeVP651lsCIin3B9krrQEQ0DkBH3rrBCKr1QKkeiEBcT67BtrLGQOiCt0C1JKnBDGnK
QIeb87/lA6/BZSLzQHrfqL5gY7rBKRFqP3I4EcB/tobB52caQFRZqL/rtpTBPGCIQGfmtD8mlKDB
dEFMQLZUvcDbIYjBrjQUQeNYTkCfp4/Bd5T1QHhRYkBWbYnB81T7QF34tkDqVpPBGLsNQXpon0CP
sp3BrtYCQa9iGkBykqDB3k/bQO81+j9dk5fBZMKUQGcIokBK8bbB4Dy1QBr9c0DMS73Bfh9+QP+2
W0DMkrnBpBJTQGI/b0CJgafBB5VaQGnxfkBSs4vBXvQaQFpMZEAQjJbBmrNtQLVeL7/FOJzBlVHD
QKfwcb9ala/BuSrYQMB867zaS7bBL9zeP+GpMcDHl4rBPmEpQG5jEcDuE5LBdfqbQEVAYj+SXqfB
piI+QHPXm8AiFIvBFzqxQPwH6T9k263BtxqlQNyn875HFqjBBbPzP9oFg8BgEofBSEfPQAJGrD8F
iLXB0OJsQFBRRsAX5pXBe32LQHrhg0CzBJrBQ52UQC2CJMC14p3BWXbzQPZs0UABWpnBtG7aQJd1
wUCSIaPBv8j+QB9/okAe8JbB6xWwQARhUkBcbarBDm3VQN8Ul0Do75zBo8vZQNrMXUAjp6PBgw2s
QHzth0B3M7TBiPN1QHHfi8DgU5LB8niJQFpVZUBzoqPBngtOQB9Ag0AkspPB5TGOQDukob9cEKHB
nk2yQPaLUMAkLaHBDl+wQBKzlUDq15XBLzOFPyitk8AVyX/B+VLlQGz1C0DZ9rvB45bfQPKRG0AI
oJzBTyf9QDyUYUCrBKrB7VbKQPoCAMB0JrDBtzDvQHhww76UFrzBYj9vP910CsDQl4fBHf4iQNIN
ob949JTB8CqEQE7DnD94u6HBqgdGQFhSvMDeS4jBe4oHQRfd5UB1Q5vBMb3fQGsT4UCuM5PBv1i8
QBGU0kB+uqTBsivtQAotv0AIj6rB6TIOQW7zlkAiuJrBMff+QBX9mUAlZo7B8lirQBVDqUAxYbHB
36DHQKheg0DnjLnBMFaOQAjVgEBckrjBYjdZQIX7VkD+labBoalPQHiAj0DkTozBpdcXQN8WbUBr
hpbBlLxpQA6OUL8jvZ3B

> <OMEGA_E>
6AvCPqR/0j4EzwM/rFUMPw==

> <OMEGA_NBR>
    116498

$$$$
50322752
  -OEChem-04172616093D

 31 33  0     1  0  0  0  0  0999 V2000
    4.8644    0.9823  -20.7762 C   0  0  0  0  0  0  0  0  0  0  0  0
    5.0361   -0.4088  -20.8722 C   0  0  0  0  0  0  0  0  0  0  0  0
    6.7388   -0.0782  -22.5749 C   0  0  0  0  0  0  0  0  0  0  0  0
    5.6325    1.8797  -21.5744 C   0  0  0  0  0  0  0  0  0  0  0  0
    5.9786   -0.9397  -21.7649 C   0  0  0  0  0  0  0  0  0  0  0  0
    6.5805    1.3193  -22.4838 C   0  0  0  0  0  0  0  0  0  0  0  0
    4.3509    3.8872  -19.1804 C   0  0  0  0  0  0  0  0  0  0  0  0
    6.5458    5.5607  -21.2203 C   0  0  0  0  0  0  0  0  0  0  0  0
    5.2454    4.2114  -22.6710 C   0  0  0  0  0  0  0  0  0  0  0  0
    7.1582    3.7855  -19.4396 C   0  0  0  0  0  0  0  0  0  0  0  0
    6.7812    4.0804  -20.8985 C   0  0  1  0  0  0  0  0  0  0  0  0
    5.4842    3.4172  -21.3721 C   0  0  2  0  0  0  0  0  0  0  0  0
    4.3191    3.7260  -20.4831 N   0  3  0  0  0  0  0  0  0  0  0  0
    3.1380    3.9187  -18.5133 N   0  0  0  0  0  0  0  0  0  0  0  0
    5.6627    5.5770  -22.3792 O   0  0  0  0  0  0  0  0  0  0  0  0
    6.1625   -2.2771  -21.8349 F   0  0  0  0  0  0  0  0  0  0  0  0
    7.3735    2.0897  -23.2645 F   0  0  0  0  0  0  0  0  0  0  0  0
    5.8216    4.1671  -18.2531 S   0  0  0  0  0  0  0  0  0  0  0  0
    4.1365    1.3795  -20.0843 H   0  0  0  0  0  0  0  0  0  0  0  0
    4.4422   -1.0697  -20.2583 H   0  0  0  0  0  0  0  0  0  0  0  0
    7.4510   -0.4913  -23.2738 H   0  0  0  0  0  0  0  0  0  0  0  0
    6.0693    6.0673  -20.3680 H   0  0  0  0  0  0  0  0  0  0  0  0
    7.4981    6.0579  -21.4567 H   0  0  0  0  0  0  0  0  0  0  0  0
    5.8463    3.7936  -23.4922 H   0  0  0  0  0  0  0  0  0  0  0  0
    4.1806    4.1860  -22.9461 H   0  0  0  0  0  0  0  0  0  0  0  0
    7.4069    2.7175  -19.3529 H   0  0  0  0  0  0  0  0  0  0  0  0
    8.0394    4.3897  -19.1782 H   0  0  0  0  0  0  0  0  0  0  0  0
    7.5998    3.7204  -21.5390 H   0  0  0  0  0  0  0  0  0  0  0  0
    3.4274    3.8187  -20.9261 H   0  0  0  0  0  0  0  0  0  0  0  0
    3.1129    4.0971  -17.5296 H   0  0  0  0  0  0  0  0  0  0  0  0
    2.2872    3.7631  -19.0151 H   0  0  0  0  0  0  0  0  0  0  0  0
  1  2  1  0  0  0  0
  1  4  2  0  0  0  0
  2  5  2  0  0  0  0
  3  5  1  0  0  0  0
  3  6  2  0  0  0  0
  4  6  1  0  0  0  0
  4 12  1  0  0  0  0
  5 16  1  0  0  0  0
  6 17  1  0  0  0  0
  7 13  2  0  0  0  0
  7 14  1  0  0  0  0
  7 18  1  0  0  0  0
  8 11  1  0  0  0  0
  8 15  1  0  0  0  0
  9 12  1  0  0  0  0
  9 15  1  0  0  0  0
 10 11  1  0  0  0  0
 10 18  1  0  0  0  0
 11 12  1  0  0  0  0
 12 13  1  0  0  0  0
  1 19  1  0  0  0  0
  2 20  1  0  0  0  0
  3 21  1  0  0  0  0
  8 22  1  0  0  0  0
  8 23  1  0  0  0  0
  9 24  1  0  0  0  0
  9 25  1  0  0  0  0
 10 26  1  0  0  0  0
 10 27  1  0  0  0  0
 11 28  1  0  0  0  0
 13 29  1  0  0  0  0
 14 30  1  0  0  0  0
 14 31  1  0  0  0  0
M  CHG  1  13   1
M  END
> <OMEGA_C>
aKmbQMB3ez+jNabBCyihQMpR0b5I+qbBDqTXQOAvoL1mmbTBbj20QPKY8D9amKzBn1C/QOiNcL+a
Hq7Bg5PSQJLfqD/W3rPB7DqLQCDIeECGcZnB7HbRQDrxsUAhw6nBDdqnQMLDhkA5XrXBlA/lQMxF
ckBXhJvBq//YQAaTgkAsMKfBmH6vQEqzWkAD+qrBLjaKQNh2bkBd3aPBUdVIQEbMekA6G5TBFDW1
QHp2skClCLPBVTPFQEK7EcD0ra7B0vPrQLi9BUCiHbrB1Eq6QC9ZhUBqBpLBE16EQNiTsD+krKDB
GyaOQAjriL8IEaLB5G7uQNKJ+76+MLrB/TfCQHYnwkCz8aLBGvDvQGrawUBpp6vBmxS7QAvLckAV
8LvBkseFQNvzhUCFkbfBmwXtQALsLUCv0prBf6EAQVl4jEAKbZnByjHzQNEabkDiT6zB7FpbQOpl
dEC7aKfBoDlHQC4bg0C4PIzB82ASQPTWcED8HpjBkz7fQIFpwj9cOK/Bb3bmQOx0Kj48urHBvZKa
QNB/k74irK/BQJK1QF8EAEAjoKzB0TbEQCWYPb9L37HBH+SSQDqPiD/5Mq3BS3eHQDAngEC9e5jB
MazsQH3zmEBVHbDBPAalQPmkiUCGNbTBDWvPQP1JrEDb+53Bf7DXQEkth0A8zKXBlAauQIL8YEDX
3qnBVqaHQPqfaUDVmaLBllJDQOU4eUA0v5LBewnOQFKOlEBUurjBcjfLQEm0AsD3PrTBoHFTQISc
tz9uhavBf8mzQD6Rl0ChZZLBF9v5QFVODUDTQq/BETgDQYXBMr6fi7PBzi2AQPAbfL+W4K/BtfD0
QCHhukBMAq/Bl+YEQSSnhkAV+7HBQruSQDuCa0Ak2bnBEdKSQN7fpkBuYrLBjw7uQIiLukBIhZvB
1pO7QNzIxEBW5qHBL/jsQALeXkCtEaLBCFNWQKuZXEBo3KXBxEFAQGdsh0AmOovBIdoPQPB8XkAF
IZbBdyKiQHH0wT+BJbbBhymoQDDcJj7E6bjBWizVQDBtFb6cRqnB8YC2QIYbBUAJAa3BazHCQDS4
Kb+tkbLBBa/OQOY+mT90UKbBg9KGQNpzgEAYbpjBlwHsQOPDmUB6MLDBGteiQK39j0CANbPBHMDO
QPE7rkC5+J3BJ6jXQCguiUBew6XBg+ytQFIkZEDEsqnBBVWIQIifYUC/MKLBi0hBQO71e0CrzZLB
aNXKQGf7mkAPQLjBFCfIQCHz+r9YPbXB+MDeQN3Uyj+3wZzBgeWyQO0PmUAvX5LBgrWNQLKoCEDh
CrvBHLeYQM0Ldr7N77/BXO3oQJKaSL9SWqTByAv5QF8SukCj7q7BNewCQasihECtu7LBF+KNQDKq
fkAz7LjBxbuSQP4HrUBkSrDB7ibtQM/ZvEAbdZvB0Lu6QHp9xkCv7KHB0wbtQEpfY0Du96HBU4lb
QHlCRUC35aTBjFI9QEkkikCUa4vBMDIOQM0SYEBeIZbB

> <OMEGA_E>
6iE7P9GchT9jhog/

> <OMEGA_NBR>
    118585

$$$$
50529660
  -OEChem-04172616093D

 45 48  0     1  0  0  0  0  0999 V2000
    0.7165   -5.0927  -16.6189 C   0  0  0  0  0  0  0  0  0  0  0  0
    3.0508   -4.9789  -17.3988 C   0  0  0  0  0  0  0  0  0  0  0  0
    6.1343   -0.8262  -21.7396 C   0  0  0  0  0  0  0  0  0  0  0  0
    6.8589    0.0618  -22.5570 C   0  0  0  0  0  0  0  0  0  0  0  0
    4.0713   -4.2480  -18.0291 C   0  0  0  0  0  0  0  0  0  0  0  0
    4.9275    1.0596  -20.7836 C   0  0  0  0  0  0  0  0  0  0  0  0
    1.5784   -3.0730  -17.7267 C   0  0  0  0  0  0  0  0  0  0  0  0
    1.7859   -4.3821  -17.2477 C   0  0  0  0  0  0  0  0  0  0  0  0
    5.6909    1.9771  -21.5464 C   0  0  0  0  0  0  0  0  0  0  0  0
    5.1652   -0.3188  -20.8503 C   0  0  0  0  0  0  0  0  0  0  0  0
    6.6455    1.4548  -22.4663 C   0  0  0  0  0  0  0  0  0  0  0  0
    3.7963   -2.9423  -18.5021 C   0  0  0  0  0  0  0  0  0  0  0  0
    4.4118    3.8012  -19.1669 C   0  0  0  0  0  0  0  0  0  0  0  0
    4.8169   -2.1819  -19.2469 C   0  0  0  0  0  0  0  0  0  0  0  0
    6.4318    5.6630  -21.6670 C   0  0  0  0  0  0  0  0  0  0  0  0
    5.7493    5.2634  -22.9730 C   0  0  0  0  0  0  0  0  0  0  0  0
    7.0628    4.4736  -19.5000 C   0  0  0  0  0  0  0  0  0  0  0  0
    6.7256    4.3175  -21.0154 C   0  0  1  0  0  0  0  0  0  0  0  0
    5.4441    3.5018  -21.4062 C   0  0  2  0  0  0  0  0  0  0  0  0
   -0.1581   -5.6695  -16.1074 N   0  0  0  0  0  0  0  0  0  0  0  0
    2.5664   -2.3844  -18.3405 N   0  0  0  0  0  0  0  0  0  0  0  0
    4.3028    3.8104  -20.4766 N   0  3  0  0  0  0  0  0  0  0  0  0
    3.2801    3.9573  -18.3823 N   0  0  0  0  0  0  0  0  0  0  0  0
    4.3710   -1.1428  -20.0595 N   0  0  0  0  0  0  0  0  0  0  0  0
    6.0120   -2.4151  -19.0878 O   0  0  0  0  0  0  0  0  0  0  0  0
    5.0726    4.0031  -22.7233 O   0  0  0  0  0  0  0  0  0  0  0  0
    7.3536    2.2694  -23.2845 F   0  0  0  0  0  0  0  0  0  0  0  0
    5.9566    3.5171  -18.4063 S   0  0  0  0  0  0  0  0  0  0  0  0
    3.2337   -5.9800  -17.0370 H   0  0  0  0  0  0  0  0  0  0  0  0
    6.3195   -1.8888  -21.7934 H   0  0  0  0  0  0  0  0  0  0  0  0
    7.5833   -0.3250  -23.2584 H   0  0  0  0  0  0  0  0  0  0  0  0
    5.0548   -4.6773  -18.1515 H   0  0  0  0  0  0  0  0  0  0  0  0
    4.1459    1.4309  -20.1373 H   0  0  0  0  0  0  0  0  0  0  0  0
    0.6105   -2.6107  -17.6007 H   0  0  0  0  0  0  0  0  0  0  0  0
    7.3598    6.2213  -21.8595 H   0  0  0  0  0  0  0  0  0  0  0  0
    5.7624    6.2696  -21.0394 H   0  0  0  0  0  0  0  0  0  0  0  0
    5.0208    6.0321  -23.2703 H   0  0  0  0  0  0  0  0  0  0  0  0
    6.4979    5.1402  -23.7694 H   0  0  0  0  0  0  0  0  0  0  0  0
    8.0954    4.1320  -19.3359 H   0  0  0  0  0  0  0  0  0  0  0  0
    6.9818    5.5376  -19.2330 H   0  0  0  0  0  0  0  0  0  0  0  0
    7.5913    3.8612  -21.5178 H   0  0  0  0  0  0  0  0  0  0  0  0
    3.4139    4.0345  -20.8762 H   0  0  0  0  0  0  0  0  0  0  0  0
    3.3515    3.9069  -17.3861 H   0  0  0  0  0  0  0  0  0  0  0  0
    2.3921    4.1203  -18.8123 H   0  0  0  0  0  0  0  0  0  0  0  0
    3.3857   -0.9727  -20.0763 H   0  0  0  0  0  0  0  0  0  0  0  0
  1  8  1  0  0  0  0
  1 20  3  0  0  0  0
  2  5  2  0  0  0  0
  2  8  1  0  0  0  0
  3  4  1  0  0  0  0
  3 10  2  0  0  0  0
  4 11  2  0  0  0  0
  5 12  1  0  0  0  0
  6  9  2  0  0  0  0
  6 10  1  0  0  0  0
  7  8  2  0  0  0  0
  7 21  1  0  0  0  0
  9 11  1  0  0  0  0
  9 19  1  0  0  0  0
 10 24  1  0  0  0  0
 11 27  1  0  0  0  0
 12 14  1  0  0  0  0
 12 21  2  0  0  0  0
 13 22  2  0  0  0  0
 13 23  1  0  0  0  0
 13 28  1  0  0  0  0
 14 24  1  0  0  0  0
 14 25  2  0  0  0  0
 15 16  1  0  0  0  0
 15 18  1  0  0  0  0
 16 26  1  0  0  0  0
 17 18  1  0  0  0  0
 17 28  1  0  0  0  0
 18 19  1  0  0  0  0
 19 22  1  0  0  0  0
 19 26  1  0  0  0  0
  2 29  1  0  0  0  0
  3 30  1  0  0  0  0
  4 31  1  0  0  0  0
  5 32  1  0  0  0  0
  6 33  1  0  0  0  0
  7 34  1  0  0  0  0
 15 35  1  0  0  0  0
 15 36  1  0  0  0  0
 16 37  1  0  0  0  0
 16 38  1  0  0  0  0
 17 39  1  0  0  0  0
 17 40  1  0  0  0  0
 18 41  1  0  0  0  0
 22 42  1  0  0  0  0
 23 43  1  0  0  0  0
 23 44  1  0  0  0  0
 24 45  1  0  0  0  0
M  CHG  1  22   1
M  END
> <OMEGA_C>
YG83P2H3osB184TBoT9DQFdTn8CsMIvBSUzEQAyBU7+p6q3BeXzbQKYxfT2kdLTBTEiCQPDvh8CS
O5DB4K2dQJyihz/ZRKbBhgfKP8urRMA80I3BXJjkP486jMBT+4nBgBu2QOUQ/T8LX6zBcUmlQDY6
o75TzabBVqjUQAE3uj/wurPBPvZyQC9OPMBlBJTBSy2NQOBGc0DoVZnBXCSaQO6jC8Cf+ZnBLtHN
QEk3tUAMVq3BCPq3QPRtqECoyLfBVALiQKcnj0AEAJzBTDjXQKYoikBzH6jB/TWuQBgdYEDaP6vB
mOkhvsxstcDc24DBdj8kQEiaGMBKuZLBQ7CJQBfec0Ag0KPBAu1RQEtEfUDoDpPB1d6LQHlGkr/o
eaDBHWLAQKmRGsDos5jB8lKiQKIZgEBSybXB5lDrQG49EUCQRrrBvZy+QDEYYUAdQJPBmfROQMtb
v8DGS4jBbznKQBfF8b/uWK7BSqryQNlspr5CEbrBjsChQKGslcA+NpHBa6uEQPQmtz8eGaHBQ0cc
P2IVJ8BUzozBtoPrQOoUx0Ap4K7BcmW4QLmgyECsUKjBPaqgQBAHwUChKbrBJO/PQC18pEC+J77B
6YYBQQw5hED/r5rBvWrfQBQ0sUAi3ZnBq+vyQBQed0CKJKzBYH1aQPQagUCLAqfBTn9WQKEKekC/
FovBOBgZQJ7Zg0CNf5bB0q5YQPT/eL80nKDBn/tlP+OwlsAEPIDBPOszQNIsocAIXozBrC23QExv
Vr88drDBjprNQODoszvAcLfBUlNuQEWcj8C2sJPBPmSsQOPEhD91WaTBNe3pP1TvNMCJeorBJKrs
P7ErhsAetYfBqnnCQH+d9T/sWavB9eCmQGaYp75sxabBtW/TQN8Wrz+TBbXBDrJpQNDFRsAUKZbB
y/LdQGQqnkDFGLfBYLaSQIiLH8B1553BsOuQQH0MgkB1+ZrBv2W9QGvXg0D9AJbB4NeZQAsIs0BP
oqrBx2GaQB7Kg0Bw86bBeKDHQNS+WkATBajB8oP3PcwIpMAlRnTBvpUtQGjoE8D0h5HBdV/nQDXA
hEDIA6/BbV/9QDvvp0BLi77BU8qPQGgijr8Ng5/B/GauQDleS8AgNaLBvj3ZQBI8WUDmMZ3BcJrp
QNJFBkC8ObzBHOyrQO4ktkC/TrjBBEE2QGXDwsCWWorBsWOyQGws8L+igLLBlZfaQHyDyr61xr7B
HiSPQDyVo8AhZ5fBo3efQJNetj/V9ZzBrVyLP6F6C8BQ5IbBCWWAQLFaSEBW1JjBYdN6QMWPnUCU
dJjB+xXIQMk9pUBiPpXB8TW9QDxKaUD7EI7BjyhyQDKxv0B9D6rB7DevQJEAxkAxf6XBD1iCQBGd
YkCZa6vBTDMDQYaPgECjXK3BiBb3QP1xvED0esTB4icNQVp3mkAQ+r3BT1x1QKbtH7+G7JrB

> <OMEGA_E>
1KH6PkwsQj8=

> <OMEGA_NBR>
    120443

$$$$
50529662
  -OEChem-04172616093D

 44 47  0     1  0  0  0  0  0999 V2000
    3.0160   -4.8334  -17.2551 C   0  0  0  0  0  0  0  0  0  0  0  0
    1.9828   -3.9970  -16.8015 C   0  0  0  0  0  0  0  0  0  0  0  0
    6.0370   -0.8709  -21.9902 C   0  0  0  0  0  0  0  0  0  0  0  0
    6.7564    0.0490  -22.7697 C   0  0  0  0  0  0  0  0  0  0  0  0
    3.8783   -4.3634  -18.2565 C   0  0  0  0  0  0  0  0  0  0  0  0
    5.0168    0.9703  -20.7688 C   0  0  0  0  0  0  0  0  0  0  0  0
    1.8381   -2.7128  -17.3612 C   0  0  0  0  0  0  0  0  0  0  0  0
    5.7118    1.9066  -21.5576 C   0  0  0  0  0  0  0  0  0  0  0  0
    5.1653   -0.4010  -20.9828 C   0  0  0  0  0  0  0  0  0  0  0  0
    6.5942    1.4315  -22.5667 C   0  0  0  0  0  0  0  0  0  0  0  0
    3.6877   -3.0623  -18.7760 C   0  0  0  0  0  0  0  0  0  0  0  0
    4.3570    3.9564  -19.1468 C   0  0  0  0  0  0  0  0  0  0  0  0
    4.5942   -2.5227  -19.8021 C   0  0  0  0  0  0  0  0  0  0  0  0
    6.5151    5.5472  -21.2591 C   0  0  0  0  0  0  0  0  0  0  0  0
    5.5919    5.4188  -22.4882 C   0  0  0  0  0  0  0  0  0  0  0  0
    7.1678    3.8713  -19.4141 C   0  0  0  0  0  0  0  0  0  0  0  0
    6.7881    4.0990  -20.8842 C   0  0  1  0  0  0  0  0  0  0  0  0
    5.4937    3.4020  -21.3253 C   0  0  2  0  0  0  0  0  0  0  0  0
    2.6784   -2.2689  -18.3218 N   0  0  0  0  0  0  0  0  0  0  0  0
    4.3190    3.6645  -20.4284 N   0  3  0  0  0  0  0  0  0  0  0  0
    3.1487    4.0761  -18.4807 N   0  0  0  0  0  0  0  0  0  0  0  0
    4.3702   -1.2123  -20.1899 N   0  0  0  0  0  0  0  0  0  0  0  0
    5.5607   -3.1702  -20.1907 O   0  0  0  0  0  0  0  0  0  0  0  0
    5.2073    4.0237  -22.5914 O   0  0  0  0  0  0  0  0  0  0  0  0
    7.2715    2.2824  -23.3730 F   0  0  0  0  0  0  0  0  0  0  0  0
    5.8314    4.2748  -18.2368 S   0  0  0  0  0  0  0  0  0  0  0  0
    3.1443   -5.8220  -16.8398 H   0  0  0  0  0  0  0  0  0  0  0  0
    1.3060   -4.3353  -16.0309 H   0  0  0  0  0  0  0  0  0  0  0  0
    6.1494   -1.9315  -22.1598 H   0  0  0  0  0  0  0  0  0  0  0  0
    7.4374   -0.3065  -23.5288 H   0  0  0  0  0  0  0  0  0  0  0  0
    4.6782   -4.9878  -18.6263 H   0  0  0  0  0  0  0  0  0  0  0  0
    4.3588    1.3183  -19.9863 H   0  0  0  0  0  0  0  0  0  0  0  0
    1.0409   -2.0711  -17.0164 H   0  0  0  0  0  0  0  0  0  0  0  0
    7.4471    6.0712  -21.5176 H   0  0  0  0  0  0  0  0  0  0  0  0
    6.0104    6.0795  -20.4393 H   0  0  0  0  0  0  0  0  0  0  0  0
    4.6988    6.0472  -22.3561 H   0  0  0  0  0  0  0  0  0  0  0  0
    6.1282    5.7302  -23.3967 H   0  0  0  0  0  0  0  0  0  0  0  0
    7.4357    2.8122  -19.2851 H   0  0  0  0  0  0  0  0  0  0  0  0
    8.0387    4.5010  -19.1792 H   0  0  0  0  0  0  0  0  0  0  0  0
    7.6103    3.7270  -21.5130 H   0  0  0  0  0  0  0  0  0  0  0  0
    3.4134    3.6118  -20.8492 H   0  0  0  0  0  0  0  0  0  0  0  0
    3.1336    4.3356  -17.5150 H   0  0  0  0  0  0  0  0  0  0  0  0
    2.2912    3.9030  -18.9653 H   0  0  0  0  0  0  0  0  0  0  0  0
    3.5245   -0.7978  -19.8538 H   0  0  0  0  0  0  0  0  0  0  0  0
  1  2  1  0  0  0  0
  1  5  2  0  0  0  0
  2  7  2  0  0  0  0
  3  4  2  0  0  0  0
  3  9  1  0  0  0  0
  4 10  1  0  0  0  0
  5 11  1  0  0  0  0
  6  8  1  0  0  0  0
  6  9  2  0  0  0  0
  7 19  1  0  0  0  0
  8 10  2  0  0  0  0
  8 18  1  0  0  0  0
  9 22  1  0  0  0  0
 10 25  1  0  0  0  0
 11 13  1  0  0  0  0
 11 19  2  0  0  0  0
 12 20  2  0  0  0  0
 12 21  1  0  0  0  0
 12 26  1  0  0  0  0
 13 22  1  0  0  0  0
 13 23  2  0  0  0  0
 14 15  1  0  0  0  0
 14 17  1  0  0  0  0
 15 24  1  0  0  0  0
 16 17  1  0  0  0  0
 16 26  1  0  0  0  0
 17 18  1  0  0  0  0
 18 20  1  0  0  0  0
 18 24  1  0  0  0  0
  1 27  1  0  0  0  0
  2 28  1  0  0  0  0
  3 29  1  0  0  0  0
  4 30  1  0  0  0  0
  5 31  1  0  0  0  0
  6 32  1  0  0  0  0
  7 33  1  0  0  0  0
 14 34  1  0  0  0  0
 14 35  1  0  0  0  0
 15 36  1  0  0  0  0
 15 37  1  0  0  0  0
 16 38  1  0  0  0  0
 16 39  1  0  0  0  0
 17 40  1  0  0  0  0
 20 41  1  0  0  0  0
 21 42  1  0  0  0  0
 21 43  1  0  0  0  0
 22 44  1  0  0  0  0
M  CHG  1  20   1
M  END
> <OMEGA_C>
SQZBQOiqmsCMCorBW839P3POf8BtaYbBNi/BQN7wXr/y66/BLjTYQLC4SD1ZKLbBZjZ4QCahi8Bg
DZLBh4mgQMRmeD+BJqbBjUfrPwefLcDW44rBsMa2QPkJ9D8KdqzBi0qlQDBNzb7P3KfBBgTTQDM7
tz+ZiLTBxgJsQGj9Q8BMNZbBqWyLQAY2fUC2LJnBogOTQKB0IcCuap7Bd3vQQAaDsUCTEqrBi/Cy
QMtmrUC957PB3l7lQIDDd0D6T5vB/zfZQCorg0DHEqfBdsyvQJa5WUAxmqrBumorQMQ1EcAFk5LB
SzWKQJCGakBDbaPBuINJQD9vgkBk2JPBuNiLQCAum7/WhKHBL/GxQE7kSsCPhqHB/aGmQOLBgEAa
u7TBZ7DoQDwSEkDz+7rBhpq6QPDKiEDf5JHBlDxJQMtNusDat4bBryqnPx+7isBGP4DBOMjEQAw8
979NR7HBWv/tQJvvnL7oOrzB57OVQBWcn8ClApXBO3uLQEu+qD/k45/B2jqFPy6MBMCoIYjBS07u
QJ9HwkABJKzBPVXAQJGLwkC+g6PBRVyWQO6CwUBC2bLBVxrEQHZdt0BbLLvB8vDtQLj7M0DLR5rB
cZ4AQQIIkEAZb5nB34fzQImGbkC0GqzBJnVaQDwoZ0Amy6bBTY1IQB69ikDLHozBy6MSQEHKeUDr
uJfBaZFhQLY8TL+V1J7BAj/gP1arMcDncorBYiT9P7I7gsDUiIbBx17DQPdtWL/jYK/BfPHYQPC1
pD1837XBFOsmQEOvEcD9WJLBNNSgQEOufT8l76XBcEJDQGtymsDBp4rB0r+1QJYr9z/1fKzBrhan
QEyvw77KYafBwgLSQFDouj9vkLTBE1ZrQO04RcDFMZbBqWaKQCCCgEDjQJnBSSKTQECGIsAeVZ7B
AyLUQOsnsEDpoKrBiZ68QBJIqkDhS7XBXpTjQGXAekCH85rBhYPZQDNjgkCL56bB9h6vQG9pW0Ds
larBGeJ3QBCtisAsT5LBbniJQHNrbEDEcaPB5vVHQM9igEA7vJPBEMCOQOTNmL/UxaDB8YmvQLF6
T8DXG6LBRJylQMH9gUBntrTBfofmQJAeFEC7OLvB97G4QEoNkUC/bpLBA2tvP+9mC8Bzb4fBpgar
PxV4j8AUbIDB9l3IQJ7X879PfbDBYf7uQEe+ib716LvBxUodQHYupL/+gpXBXp+LQFrsqj9rsZ/B
zChOQPFbusCioYfBbkzzQCbav0DCyKvBjdnAQNHVwkDk76TBbAOmQJXJxEC/jrbBSMfTQJ5oqUB/
67vBJrnoQEh/NkCAOJnBnXcAQYlhj0D8IJnB877zQE51Z0DDfKvBVRBZQKiNZ0DyzabBdTVGQE2O
iUDrEozB8DcSQGZBbkBYaZfB9EVsQJ6nPL+5Mp3ByjVYQHmpm8Cns4/BGfQNQPEYj8BuLorBHq+z
QFHuKr9AlbPBLR/IQGZKmD4Q8rnBjvWFQCfMd8A5W5TBi/GhQC61hj94jabBoIrzPyJgRsCibonB
7Si1QF6jA0CcB63BWK+hQNtZmr62t6nBZJzJQEiy0j8csrbB2UF0QCvbIMA7Q5PBPEWFQIKPb0Cb
bJnBh3GTQNEFvL+0hJjBoTzhQFJFrkBHG6bBHT/UQL9urkCw0bHBPqrdQO9DckCqu5bBBRPdQHFQ
fkC5HqPB9CG0QD0qY0DifKnBDnQsQGK8CcDB5I3BOFWLQGd1d0BBw6PBTo46QO/vgEAfOpXB7PmN
QP/epL+igaPBdUuuQI1/Wb/IVpPBQ1W0QFoRjUAr+rLB65XeQEJbIUBDFr3BCcKsQOA8RUAJB5HB
5zJpQGAPvcCnWpDBsKXJP9/IpsAejobBdM+xQEKW2L+IR7bB4NbWQKVNXTuMZsHBLoKiQKWVhMDl
tpjBdUGTQJGOqj8+D5/Bq0yBP0cQM8BUNYXBmyoBQWOMuUA8F6XBFJbLQO09wkDPSaHBVJ7GQMSs
zUAmBLTBjRjwQOCdp0CZ7LbBWlv4QNdKR0ADuJTBexfjQMOgmECBC5PBcIv4QJ96W0Dde6bBLpJl
QIdXhkDoJ6jBsI0uQJ7idkBvfY3B5dEMQL4KjUAt75nBMnh0QCCt9b8mRKfB

> <OMEGA_E>
KPg8PngCqj5MSxA/

> <OMEGA_NBR>
    123055

$$$$
50529663
  -OEChem-04172616093D

 44 47  0     1  0  0  0  0  0999 V2000
    6.0577   -0.8731  -21.9858 C   0  0  0  0  0  0  0  0  0  0  0  0
    6.7821    0.0565  -22.7487 C   0  0  0  0  0  0  0  0  0  0  0  0
    3.0047   -4.8044  -17.2477 C   0  0  0  0  0  0  0  0  0  0  0  0
    3.8926   -4.3397  -18.2275 C   0  0  0  0  0  0  0  0  0  0  0  0
    5.0228    0.9529  -20.7534 C   0  0  0  0  0  0  0  0  0  0  0  0
    1.8187   -2.6897  -17.4071 C   0  0  0  0  0  0  0  0  0  0  0  0
    5.7222    1.8974  -21.5237 C   0  0  0  0  0  0  0  0  0  0  0  0
    5.1761   -0.4131  -20.9834 C   0  0  0  0  0  0  0  0  0  0  0  0
    1.9513   -3.9701  -16.8387 C   0  0  0  0  0  0  0  0  0  0  0  0
    6.6134    1.4363  -22.5322 C   0  0  0  0  0  0  0  0  0  0  0  0
    3.7044   -3.0478  -18.7679 C   0  0  0  0  0  0  0  0  0  0  0  0
    4.3498    3.9581  -19.1159 C   0  0  0  0  0  0  0  0  0  0  0  0
    4.6103   -2.5258  -19.7993 C   0  0  0  0  0  0  0  0  0  0  0  0
    6.4584    5.5387  -21.2728 C   0  0  0  0  0  0  0  0  0  0  0  0
    5.6466    5.3436  -22.5666 C   0  0  0  0  0  0  0  0  0  0  0  0
    7.1686    3.9233  -19.4001 C   0  0  0  0  0  0  0  0  0  0  0  0
    6.7637    4.1118  -20.8694 C   0  0  1  0  0  0  0  0  0  0  0  0
    5.4776    3.3857  -21.2920 C   0  0  2  0  0  0  0  0  0  0  0  0
    2.6840   -2.2513  -18.3448 N   0  0  0  0  0  0  0  0  0  0  0  0
    4.3094    3.6328  -20.3875 N   0  3  0  0  0  0  0  0  0  0  0  0
    3.1402    4.1341  -18.4647 N   0  0  0  0  0  0  0  0  0  0  0  0
    4.3732   -1.2275  -20.2090 N   0  0  0  0  0  0  0  0  0  0  0  0
    5.5748   -3.1776  -20.1852 O   0  0  0  0  0  0  0  0  0  0  0  0
    5.1453    3.9815  -22.5612 O   0  0  0  0  0  0  0  0  0  0  0  0
    1.0672   -4.3944  -15.9109 F   0  0  0  0  0  0  0  0  0  0  0  0
    7.2863    2.2975  -23.3311 F   0  0  0  0  0  0  0  0  0  0  0  0
    5.8268    4.2090  -18.1910 S   0  0  0  0  0  0  0  0  0  0  0  0
    6.1740   -1.9319  -22.1642 H   0  0  0  0  0  0  0  0  0  0  0  0
    7.4715   -0.2890  -23.5048 H   0  0  0  0  0  0  0  0  0  0  0  0
    3.1281   -5.7862  -16.8151 H   0  0  0  0  0  0  0  0  0  0  0  0
    4.7094   -4.9606  -18.5649 H   0  0  0  0  0  0  0  0  0  0  0  0
    4.3574    1.2901  -19.9724 H   0  0  0  0  0  0  0  0  0  0  0  0
    1.0112   -2.0475  -17.0875 H   0  0  0  0  0  0  0  0  0  0  0  0
    7.3817    6.1057  -21.4627 H   0  0  0  0  0  0  0  0  0  0  0  0
    5.8644    6.0525  -20.5027 H   0  0  0  0  0  0  0  0  0  0  0  0
    4.8068    6.0535  -22.5946 H   0  0  0  0  0  0  0  0  0  0  0  0
    6.2915    5.5038  -23.4432 H   0  0  0  0  0  0  0  0  0  0  0  0
    7.5285    2.8915  -19.2743 H   0  0  0  0  0  0  0  0  0  0  0  0
    7.9849    4.6262  -19.1775 H   0  0  0  0  0  0  0  0  0  0  0  0
    7.5862    3.7427  -21.4997 H   0  0  0  0  0  0  0  0  0  0  0  0
    3.4013    3.5401  -20.7958 H   0  0  0  0  0  0  0  0  0  0  0  0
    3.1254    4.3954  -17.4995 H   0  0  0  0  0  0  0  0  0  0  0  0
    2.2817    3.9998  -18.9596 H   0  0  0  0  0  0  0  0  0  0  0  0
    3.5090   -0.8260  -19.9058 H   0  0  0  0  0  0  0  0  0  0  0  0
  1  2  1  0  0  0  0
  1  8  2  0  0  0  0
  2 10  2  0  0  0  0
  3  4  2  0  0  0  0
  3  9  1  0  0  0  0
  4 11  1  0  0  0  0
  5  7  2  0  0  0  0
  5  8  1  0  0  0  0
  6  9  2  0  0  0  0
  6 19  1  0  0  0  0
  7 10  1  0  0  0  0
  7 18  1  0  0  0  0
  8 22  1  0  0  0  0
  9 25  1  0  0  0  0
 10 26  1  0  0  0  0
 11 13  1  0  0  0  0
 11 19  2  0  0  0  0
 12 20  2  0  0  0  0
 12 21  1  0  0  0  0
 12 27  1  0  0  0  0
 13 22  1  0  0  0  0
 13 23  2  0  0  0  0
 14 15  1  0  0  0  0
 14 17  1  0  0  0  0
 15 24  1  0  0  0  0
 16 17  1  0  0  0  0
 16 27  1  0  0  0  0
 17 18  1  0  0  0  0
 18 20  1  0  0  0  0
 18 24  1  0  0  0  0
  1 28  1  0  0  0  0
  2 29  1  0  0  0  0
  3 30  1  0  0  0  0
  4 31  1  0  0  0  0
  5 32  1  0  0  0  0
  6 33  1  0  0  0  0
 14 34  1  0  0  0  0
 14 35  1  0  0  0  0
 15 36  1  0  0  0  0
 15 37  1  0  0  0  0
 16 38  1  0  0  0  0
 16 39  1  0  0  0  0
 17 40  1  0  0  0  0
 20 41  1  0  0  0  0
 21 42  1  0  0  0  0
 21 43  1  0  0  0  0
 22 44  1  0  0  0  0
M  CHG  1  20   1
M  END
> <OMEGA_C>
BtnBQCKDX7/q4q/BzgbZQAhMZz1W/bXBgExAQKO9mcBd+4nBoSB5QPTeisD+0ZHBq7qgQBLwcz/g
BqbBZ8roP2UjLMCnQYvBIRy3QATe8j+eMKzBw6KlQIqG074Z3qfBj8X5PyMWfsCatYbBDqHTQDbX
tz/lQbTBTRVtQMAOQ8CVJJbBSjGLQLJRfUB07ZjBloeTQJemIcADZZ7BlavOQLY8sUCjLqrBMbG0
QJT+qkBliLTB0WTlQM4Xe0CBM5vB5m/YQB6Ug0Ch9KbBJkivQLOvWEAIVqrBSsYrQLQVEMAkwpLB
WuaJQPJ/aECGGaPB2/lIQGJKhECst5PB9PCLQE0fnb8NrKHB82SyQPhdS8BXe6HBs6akQJbQfkBc
fbTBXZqIP96ejMD6kn7BVSnpQBkKE0AUprrBHnW6QNCvhkA0h5HBIpHFQFBI979UULHBwhbvQO34
k77bCbzBMjNIQLcoucBMhYbBcrOWQPa8nsDghJTB2G+LQBEipT9ox5/BU3CBP7sKA8A1s4jBojbs
QCdiw0Cys6vBCam7QHKuwUCGBaTBtNGZQD22wUCqwbTBC1TJQLoesEC6i7vBLOnwQMEOOUCqMZrB
f4T/QHwJlECCa5nBzcHyQNyIb0B0/6vBPK5ZQFuQYkDJXabBCwdIQPWmjEAP/4vB3AcSQFv9f0A4
rZfBYJNgQCByU7/7Pp/BJ4bDQNEnWr86eK/BAxPZQNDToD107LXBMmnkP6kDMcAiXorBF7EnQI/3
EcAwcZLBDOKgQNgcej/R9aXBLcJEQLVbmsByoYrB18e1QDr69T8NeKzBpCmnQK7Xyb7FeafBzSsB
QO6ygcAUYobBLgbSQEKFuj9RkrTBNV5rQMQJRsCIYZbBCWyKQN9ggEBSKpnB9BqTQDZ1I8BthZ7B
5lnTQCv3r0DSfarBcLW8QKK3qUARRLXBsPrjQBJZeUAk9prBREPZQHYygkAn3abBffquQOCkWkBt
g6rBzR54QM0Di8AMd5LBVH+JQLARa0BhUaPB4UVHQHr+gkDI2JPBraeOQJbLmr+r86DBwPGvQAP4
T8DBK6LB1BOlQAXNgUAUmrTBZvWdP+6HkcDAEH3BJ1rmQJY2FEDHObvBpyG5QAi8jUA0EJLBzpnI
QCqY9L9FnLDB9zHvQN5EiL5L9rvBWh16P9ZbCsD2RYfBSq0dQNpWpb/urZXBrK2LQGGAqD+Gs5/B
kMRPQI4xusAIkIfBE0jyQOFKwEARfKvBEFC/QHUdwkAz26TBEJ6mQK9zxECLxbbB4GrUQLoCqECi
wbvBvZrqQERGNUC0cpnBa1oAQbuvj0A7J5nBEmrzQMPlZ0AajqvBTwdZQD3QZEATnqbBVoxFQOVC
jEBSMYzBfPsQQDA7d0ANqZfBpaZrQKCgQb+FcJ3B

> <OMEGA_E>
eHgsPuiGoj4=

> <OMEGA_NBR>
    124885

$$$$
663041
  -OEChem-04172616093D

 54 57  0     1  0  0  0  0  0999 V2000
    6.0843   -0.9333  -21.9440 C   0  0  0  0  0  0  0  0  0  0  0  0
    3.0056   -4.6964  -17.1505 C   0  0  0  0  0  0  0  0  0  0  0  0
    6.8689   -0.0335  -22.6727 C   0  0  0  0  0  0  0  0  0  0  0  0
    3.8750   -4.2870  -18.1653 C   0  0  0  0  0  0  0  0  0  0  0  0
    5.0071    0.9313  -20.8051 C   0  0  0  0  0  0  0  0  0  0  0  0
    1.7868   -2.6103  -17.4395 C   0  0  0  0  0  0  0  0  0  0  0  0
    5.7736    1.8537  -21.5402 C   0  0  0  0  0  0  0  0  0  0  0  0
    5.1672   -0.4422  -20.9935 C   0  0  0  0  0  0  0  0  0  0  0  0
    1.9479   -3.8485  -16.7898 C   0  0  0  0  0  0  0  0  0  0  0  0
    6.7301    1.3500  -22.4740 C   0  0  0  0  0  0  0  0  0  0  0  0
    3.6609   -3.0352  -18.7827 C   0  0  0  0  0  0  0  0  0  0  0  0
    4.4059    3.8570  -19.1161 C   0  0  0  0  0  0  0  0  0  0  0  0
    4.5847   -2.5353  -19.7973 C   0  0  0  0  0  0  0  0  0  0  0  0
    6.8958    5.5083  -20.7811 C   0  0  0  0  0  0  0  0  0  0  0  0
    5.1818    4.0206  -22.6443 C   0  0  0  0  0  0  0  0  0  0  0  0
    7.1909    3.4686  -19.2936 C   0  0  0  0  0  0  0  0  0  0  0  0
    6.9073    3.9725  -20.7183 C   0  0  1  0  0  0  0  0  0  0  0  0
    6.5061    5.9583  -22.1943 C   0  0  2  0  0  0  0  0  0  0  0  0
    5.5845    3.3600  -21.2942 C   0  0  2  0  0  0  0  0  0  0  0  0
    6.4747    7.4832  -22.2496 C   0  0  0  0  0  0  0  0  0  0  0  0
   -0.1874   -4.7222  -16.5261 C   0  0  0  0  0  0  0  0  0  0  0  0
    2.6303   -2.2290  -18.4127 N   0  0  0  0  0  0  0  0  0  0  0  0
    4.3985    3.6511  -20.4155 N   0  3  0  0  0  0  0  0  0  0  0  0
    3.1816    4.0198  -18.4889 N   0  0  0  0  0  0  0  0  0  0  0  0
    4.3461   -1.2449  -20.2335 N   0  0  0  0  0  0  0  0  0  0  0  0
    5.5851   -3.1736  -20.1075 O   0  0  0  0  0  0  0  0  0  0  0  0
    5.1997    5.4450  -22.5169 O   0  0  0  0  0  0  0  0  0  0  0  0
    1.0211   -4.2789  -15.8881 O   0  0  0  0  0  0  0  0  0  0  0  0
    7.5302    2.1633  -23.2003 F   0  0  0  0  0  0  0  0  0  0  0  0
   -0.7962   -5.6262  -15.7233 F   0  0  0  0  0  0  0  0  0  0  0  0
   -1.0159   -3.6658  -16.7460 F   0  0  0  0  0  0  0  0  0  0  0  0
    5.8671    3.9629  -18.1321 S   0  0  0  0  0  0  0  0  0  0  0  0
    6.1807   -1.9963  -22.1085 H   0  0  0  0  0  0  0  0  0  0  0  0
    3.1452   -5.6455  -16.6544 H   0  0  0  0  0  0  0  0  0  0  0  0
    7.5847   -0.4042  -23.3915 H   0  0  0  0  0  0  0  0  0  0  0  0
    4.6966   -4.9173  -18.4721 H   0  0  0  0  0  0  0  0  0  0  0  0
    4.2858    1.2905  -20.0860 H   0  0  0  0  0  0  0  0  0  0  0  0
    0.9750   -1.9587  -17.1519 H   0  0  0  0  0  0  0  0  0  0  0  0
    6.1658    5.8995  -20.0572 H   0  0  0  0  0  0  0  0  0  0  0  0
    7.8969    5.8929  -20.5366 H   0  0  0  0  0  0  0  0  0  0  0  0
    5.8937    3.7159  -23.4255 H   0  0  0  0  0  0  0  0  0  0  0  0
    4.1694    3.6925  -22.9226 H   0  0  0  0  0  0  0  0  0  0  0  0
    7.2607    2.3709  -19.3099 H   0  0  0  0  0  0  0  0  0  0  0  0
    8.1458    3.8916  -18.9482 H   0  0  0  0  0  0  0  0  0  0  0  0
    7.7299    3.6236  -21.3599 H   0  0  0  0  0  0  0  0  0  0  0  0
    7.2529    5.5851  -22.9104 H   0  0  0  0  0  0  0  0  0  0  0  0
    6.1953    7.8082  -23.2626 H   0  0  0  0  0  0  0  0  0  0  0  0
    5.7366    7.8610  -21.5268 H   0  0  0  0  0  0  0  0  0  0  0  0
    7.4696    7.8796  -21.9988 H   0  0  0  0  0  0  0  0  0  0  0  0
    0.0747   -5.1931  -17.4850 H   0  0  0  0  0  0  0  0  0  0  0  0
    3.5079    3.6927  -20.8683 H   0  0  0  0  0  0  0  0  0  0  0  0
    3.1431    4.1921  -17.5046 H   0  0  0  0  0  0  0  0  0  0  0  0
    2.3363    3.9651  -19.0203 H   0  0  0  0  0  0  0  0  0  0  0  0
    3.4697   -0.8457  -19.9639 H   0  0  0  0  0  0  0  0  0  0  0  0
  1  3  2  0  0  0  0
  1  8  1  0  0  0  0
  2  4  2  0  0  0  0
  2  9  1  0  0  0  0
  3 10  1  0  0  0  0
  4 11  1  0  0  0  0
  5  7  1  0  0  0  0
  5  8  2  0  0  0  0
  6  9  2  0  0  0  0
  6 22  1  0  0  0  0
  7 10  2  0  0  0  0
  7 19  1  0  0  0  0
  8 25  1  0  0  0  0
  9 28  1  0  0  0  0
 10 29  1  0  0  0  0
 11 13  1  0  0  0  0
 11 22  2  0  0  0  0
 12 23  2  0  0  0  0
 12 24  1  0  0  0  0
 12 32  1  0  0  0  0
 13 25  1  0  0  0  0
 13 26  2  0  0  0  0
 14 17  1  0  0  0  0
 14 18  1  0  0  0  0
 15 19  1  0  0  0  0
 15 27  1  0  0  0  0
 16 17  1  0  0  0  0
 16 32  1  0  0  0  0
 17 19  1  0  0  0  0
 18 20  1  0  0  0  0
 18 27  1  0  0  0  0
 19 23  1  0  0  0  0
 21 28  1  0  0  0  0
 21 30  1  0  0  0  0
 21 31  1  0  0  0  0
  1 33  1  0  0  0  0
  2 34  1  0  0  0  0
  3 35  1  0  0  0  0
  4 36  1  0  0  0  0
  5 37  1  0  0  0  0
  6 38  1  0  0  0  0
 14 39  1  0  0  0  0
 14 40  1  0  0  0  0
 15 41  1  0  0  0  0
 15 42  1  0  0  0  0
 16 43  1  0  0  0  0
 16 44  1  0  0  0  0
 17 45  1  0  0  0  0
 18 46  1  0  0  0  0
 20 47  1  0  0  0  0
 20 48  1  0  0  0  0
 20 49  1  0  0  0  0
 21 50  1  0  0  0  0
 23 51  1  0  0  0  0
 24 52  1  0  0  0  0
 24 53  1  0  0  0  0
 25 54  1  0  0  0  0
M  CHG  1  23   1
M  END
> <OMEGA_C>
w7LCQCTrbr9Xja/BEVxAQA5JlsA8NInBBM7bQNAeCb3BYbXBrAB4QDwvicCjUpHBCzqgQDhobj/d
cKbBXrbkP3QOJ8AehIvBasG4QIpE7T9oUqzBjVmlQCtn4r628qfBvFP5P1VOdsCTUYbBSl3XQKbL
rD+yyrPBQExqQP5AQsAGQ5bB4vyMQHHYdkDU7ZjBurWSQNlBIsDWYJ7BGKrcQPhDsECuP6bBI9Gl
QOuogECPJ7XBQBzmQLr8XUA7WZrBnwjdQOc8fkATv6XBvjHQQL+qvkDgjbHBb7SyQNcJV0B+WqrB
oDDPQAl270Aj/7HBqu4/vpkcl8BmNYTBk1YoQK+nDsA/TZPB3cCMQDGsaUD5UqPBZJ9LQHeigEAy
6ZPBPhOLQL5Yn78y3qHB/7iyQJ0bS8Ai3KDBomOmQIQ9rkCzIrTBQLOCP/XsiMCMNX7Bp/fwQDpz
CkAvmrnB+9VLvz0KtMDXknvB7QeCvxGcasDB94XBa7+7QLSffUCADpHB+MfFQD2H/79G3rDBA0tJ
QEuotMBNPIXBqLXyQCntzr7XIbvBzUqWQJ9ancDuxpPBBSWJQN8tpT8rsKDBm5Z5P1q2+r8DN4nB
ME7FQBTJvEAUdaDBb7P8QAeTvEAES6TBDJm8QNzQbUCFZ7vBrmuFQK1SbEB+YbfB11foQJu8F0Ck
eprBWVUCQV8PeUAClpfBX1v3QGrpZ0AL4arBAxjoQOG4skCMSLfB6D/GQIrc+UDnGbrBB5K3QJmN
+0DlNqzBXQfvQJgl/ECK/a/BrQSZPbgtpsBV4YvBl4FgQMhVbEBX8qbBmyhJQO0lhkBdCYzB0IUV
QGzEfUCjKZjBXBBeQBqBWL8dtp/B

> <OMEGA_E>
GPKCPg==

> <OMEGA_NBR>
    126092

$$$$
50529664
  -OEChem-04172616093D

 44 47  0     1  0  0  0  0  0999 V2000
    2.9837   -4.7979  -17.2534 C   0  0  0  0  0  0  0  0  0  0  0  0
    3.8762   -4.3467  -18.2365 C   0  0  0  0  0  0  0  0  0  0  0  0
    4.9916    0.9576  -20.7628 C   0  0  0  0  0  0  0  0  0  0  0  0
    6.5695    1.4718  -22.5380 C   0  0  0  0  0  0  0  0  0  0  0  0
    6.0822   -0.8490  -21.9797 C   0  0  0  0  0  0  0  0  0  0  0  0
    1.8270   -2.6676  -17.4117 C   0  0  0  0  0  0  0  0  0  0  0  0
    5.6693    1.9096  -21.5397 C   0  0  0  0  0  0  0  0  0  0  0  0
    5.1833   -0.4063  -20.9824 C   0  0  0  0  0  0  0  0  0  0  0  0
    6.7808    0.0988  -22.7497 C   0  0  0  0  0  0  0  0  0  0  0  0
    1.9446   -3.9475  -16.8406 C   0  0  0  0  0  0  0  0  0  0  0  0
    3.7059   -3.0519  -18.7764 C   0  0  0  0  0  0  0  0  0  0  0  0
    4.3435    3.9854  -19.1239 C   0  0  0  0  0  0  0  0  0  0  0  0
    4.6205   -2.5345  -19.8055 C   0  0  0  0  0  0  0  0  0  0  0  0
    6.5575    5.4792  -21.3643 C   0  0  0  0  0  0  0  0  0  0  0  0
    5.8530    5.2405  -22.7058 C   0  0  0  0  0  0  0  0  0  0  0  0
    7.1484    3.9106  -19.4133 C   0  0  0  0  0  0  0  0  0  0  0  0
    6.7711    4.0609  -20.8942 C   0  0  1  0  0  0  0  0  0  0  0  0
    5.4480    3.3923  -21.3072 C   0  0  2  0  0  0  0  0  0  0  0  0
    2.6953   -2.2428  -18.3523 N   0  0  0  0  0  0  0  0  0  0  0  0
    4.2924    3.6508  -20.3922 N   0  3  0  0  0  0  0  0  0  0  0  0
    3.1400    4.0976  -18.4480 N   0  0  0  0  0  0  0  0  0  0  0  0
    4.3954   -1.2298  -20.2016 N   0  0  0  0  0  0  0  0  0  0  0  0
    5.5739   -3.1956  -20.2028 O   0  0  0  0  0  0  0  0  0  0  0  0
    5.1136    3.9990  -22.5777 O   0  0  0  0  0  0  0  0  0  0  0  0
    7.6381   -0.3073  -23.7115 F   0  0  0  0  0  0  0  0  0  0  0  0
    5.8207    4.3762  -18.2521 S   0  0  0  0  0  0  0  0  0  0  0  0
    0.8065   -4.4688  -15.6305 Cl  0  0  0  0  0  0  0  0  0  0  0  0
    3.0932   -5.7817  -16.8213 H   0  0  0  0  0  0  0  0  0  0  0  0
    4.6825   -4.9799  -18.5763 H   0  0  0  0  0  0  0  0  0  0  0  0
    4.3148    1.2843  -19.9871 H   0  0  0  0  0  0  0  0  0  0  0  0
    7.0974    2.1961  -23.1406 H   0  0  0  0  0  0  0  0  0  0  0  0
    6.2312   -1.9052  -22.1489 H   0  0  0  0  0  0  0  0  0  0  0  0
    1.0286   -2.0145  -17.0919 H   0  0  0  0  0  0  0  0  0  0  0  0
    7.5124    6.0085  -21.4981 H   0  0  0  0  0  0  0  0  0  0  0  0
    5.9198    6.0436  -20.6680 H   0  0  0  0  0  0  0  0  0  0  0  0
    5.1645    6.0701  -22.9245 H   0  0  0  0  0  0  0  0  0  0  0  0
    6.5951    5.1574  -23.5134 H   0  0  0  0  0  0  0  0  0  0  0  0
    7.4138    2.8590  -19.2300 H   0  0  0  0  0  0  0  0  0  0  0  0
    8.0213    4.5494  -19.2131 H   0  0  0  0  0  0  0  0  0  0  0  0
    7.5772    3.6159  -21.4961 H   0  0  0  0  0  0  0  0  0  0  0  0
    3.3801    3.5584  -20.7912 H   0  0  0  0  0  0  0  0  0  0  0  0
    3.1287    4.3935  -17.4928 H   0  0  0  0  0  0  0  0  0  0  0  0
    2.2823    3.8828  -18.9151 H   0  0  0  0  0  0  0  0  0  0  0  0
    3.5409   -0.8243  -19.8770 H   0  0  0  0  0  0  0  0  0  0  0  0
  1  2  1  0  0  0  0
  1 10  2  0  0  0  0
  2 11  2  0  0  0  0
  3  7  2  0  0  0  0
  3  8  1  0  0  0  0
  4  7  1  0  0  0  0
  4  9  2  0  0  0  0
  5  8  2  0  0  0  0
  5  9  1  0  0  0  0
  6 10  1  0  0  0  0
  6 19  2  0  0  0  0
  7 18  1  0  0  0  0
  8 22  1  0  0  0  0
  9 25  1  0  0  0  0
 10 27  1  0  0  0  0
 11 13  1  0  0  0  0
 11 19  1  0  0  0  0
 12 20  2  0  0  0  0
 12 21  1  0  0  0  0
 12 26  1  0  0  0  0
 13 22  1  0  0  0  0
 13 23  2  0  0  0  0
 14 15  1  0  0  0  0
 14 17  1  0  0  0  0
 15 24  1  0  0  0  0
 16 17  1  0  0  0  0
 16 26  1  0  0  0  0
 17 18  1  0  0  0  0
 18 20  1  0  0  0  0
 18 24  1  0  0  0  0
  1 28  1  0  0  0  0
  2 29  1  0  0  0  0
  3 30  1  0  0  0  0
  4 31  1  0  0  0  0
  5 32  1  0  0  0  0
  6 33  1  0  0  0  0
 14 34  1  0  0  0  0
 14 35  1  0  0  0  0
 15 36  1  0  0  0  0
 15 37  1  0  0  0  0
 16 38  1  0  0  0  0
 16 39  1  0  0  0  0
 17 40  1  0  0  0  0
 20 41  1  0  0  0  0
 21 42  1  0  0  0  0
 21 43  1  0  0  0  0
 22 44  1  0  0  0  0
M  CHG  1  20   1
M  END
> <OMEGA_C>
QvQ+QI2ImcDpBorBVxR4QDYYi8Bq5JHBFLufQNUndT8mGqbBoDnSQN1kvD+/TbTBGKHCQBNXWb9i
1q/B7trpP7m6KsAZS4vBjmq1QLxu9D9TUazB7N2lQCoH0L7d26fBHPzYQCNwyj17/7XBZuj4PzOj
fMCMuYbBty1tQDhSQ8APNpbB6v2KQAkQf0Cz/ZjB1tqTQLo1IsCScZ7BotbRQDlVr0AN6qrBgEu7
QIyyp0B6pbXBsL/kQLNHekBXTpvBBK3YQDzzgUBjJ6fBulWuQA0cWUA+darBUYAsQLuKD8CE0ZLB
fFuJQNCmaUA4I6PBb/ZIQOcfg0CDlZPBBKeMQK1rnb/OnKHBRl2yQGqETMBvn6HBBKOjQEPvf0Au
n7TBVGv0QBtcnb46sb3BPEO6QAgKjEBCBJLBt3lOP6YAj8BYFnrB/vZFQFsDucAakobBztaVQINb
n8A6nJTBLROKQEFlpD+O5Z/BIB7jQDqMDEAHILnBB2bHQNHc878EMbHBqKeDPxvtAMAyvIjBjWXw
QEtFwEAq/KvB7m69QHhlwUAnWKXBXUOlQEU+wkBNZbfBYwvTQKIJpUCCG7zBGz7tQJ35NkD01pnB
UFcAQU6UkUCGtJnBHHjyQK9rZ0AR+KvB81NYQDO9Y0BVVKbBBj1IQNWXjEBb8YvBkRESQHqAeEAg
UpfBCJ5iQAMEU78NBJ/B

> <OMEGA_E>
OM5XPg==

> <OMEGA_NBR>
    127141

$$$$
50529665
  -OEChem-04172616093D

 44 47  0     1  0  0  0  0  0999 V2000
    2.9912   -4.8148  -17.2661 C   0  0  0  0  0  0  0  0  0  0  0  0
    3.8665   -4.3635  -18.2642 C   0  0  0  0  0  0  0  0  0  0  0  0
    4.9961    0.9630  -20.7546 C   0  0  0  0  0  0  0  0  0  0  0  0
    6.5612    1.4731  -22.5426 C   0  0  0  0  0  0  0  0  0  0  0  0
    6.0801   -0.8460  -21.9732 C   0  0  0  0  0  0  0  0  0  0  0  0
    1.8548   -2.6704  -17.3776 C   0  0  0  0  0  0  0  0  0  0  0  0
    5.6664    1.9129  -21.5407 C   0  0  0  0  0  0  0  0  0  0  0  0
    5.1876   -0.4014  -20.9708 C   0  0  0  0  0  0  0  0  0  0  0  0
    1.9735   -3.9561  -16.8185 C   0  0  0  0  0  0  0  0  0  0  0  0
    6.7724    0.0997  -22.7510 C   0  0  0  0  0  0  0  0  0  0  0  0
    3.6999   -3.0612  -18.7864 C   0  0  0  0  0  0  0  0  0  0  0  0
    4.3354    3.9872  -19.1287 C   0  0  0  0  0  0  0  0  0  0  0  0
    4.6123   -2.5382  -19.8137 C   0  0  0  0  0  0  0  0  0  0  0  0
    6.5636    5.4817  -21.3153 C   0  0  0  0  0  0  0  0  0  0  0  0
    5.8424    5.2809  -22.6554 C   0  0  0  0  0  0  0  0  0  0  0  0
    7.1415    3.8694  -19.3970 C   0  0  0  0  0  0  0  0  0  0  0  0
    6.7748    4.0519  -20.8767 C   0  0  1  0  0  0  0  0  0  0  0  0
    5.4523    3.3957  -21.3054 C   0  0  2  0  0  0  0  0  0  0  0  0
    2.7051   -2.2468  -18.3358 N   0  0  0  0  0  0  0  0  0  0  0  0
    4.2902    3.6570  -20.3989 N   0  3  0  0  0  0  0  0  0  0  0  0
    3.1284    4.1127  -18.4617 N   0  0  0  0  0  0  0  0  0  0  0  0
    4.4048   -1.2229  -20.1825 N   0  0  0  0  0  0  0  0  0  0  0  0
    5.5561   -3.2040  -20.2258 O   0  0  0  0  0  0  0  0  0  0  0  0
    5.1393    4.0134  -22.5743 O   0  0  0  0  0  0  0  0  0  0  0  0
    1.1165   -4.3581  -15.8556 F   0  0  0  0  0  0  0  0  0  0  0  0
    7.6216   -0.3096  -23.7185 F   0  0  0  0  0  0  0  0  0  0  0  0
    5.8127    4.3505  -18.2425 S   0  0  0  0  0  0  0  0  0  0  0  0
    3.0975   -5.8052  -16.8487 H   0  0  0  0  0  0  0  0  0  0  0  0
    4.6572   -5.0025  -18.6288 H   0  0  0  0  0  0  0  0  0  0  0  0
    4.3253    1.2918  -19.9746 H   0  0  0  0  0  0  0  0  0  0  0  0
    7.0848    2.1959  -23.1507 H   0  0  0  0  0  0  0  0  0  0  0  0
    6.2290   -1.9026  -22.1403 H   0  0  0  0  0  0  0  0  0  0  0  0
    1.0705   -2.0121  -17.0343 H   0  0  0  0  0  0  0  0  0  0  0  0
    7.5204    6.0080  -21.4477 H   0  0  0  0  0  0  0  0  0  0  0  0
    5.9371    6.0343  -20.5996 H   0  0  0  0  0  0  0  0  0  0  0  0
    5.1273    6.0992  -22.8257 H   0  0  0  0  0  0  0  0  0  0  0  0
    6.5730    5.2555  -23.4773 H   0  0  0  0  0  0  0  0  0  0  0  0
    7.3809    2.8092  -19.2275 H   0  0  0  0  0  0  0  0  0  0  0  0
    8.0276    4.4844  -19.1812 H   0  0  0  0  0  0  0  0  0  0  0  0
    7.5828    3.6186  -21.4844 H   0  0  0  0  0  0  0  0  0  0  0  0
    3.3803    3.5709  -20.8048 H   0  0  0  0  0  0  0  0  0  0  0  0
    3.1138    4.4024  -17.5047 H   0  0  0  0  0  0  0  0  0  0  0  0
    2.2714    3.9138  -18.9371 H   0  0  0  0  0  0  0  0  0  0  0  0
    3.5679   -0.8057  -19.8280 H   0  0  0  0  0  0  0  0  0  0  0  0
  1  2  1  0  0  0  0
  1  9  2  0  0  0  0
  2 11  2  0  0  0  0
  3  7  2  0  0  0  0
  3  8  1  0  0  0  0
  4  7  1  0  0  0  0
  4 10  2  0  0  0  0
  5  8  2  0  0  0  0
  5 10  1  0  0  0  0
  6  9  1  0  0  0  0
  6 19  2  0  0  0  0
  7 18  1  0  0  0  0
  8 22  1  0  0  0  0
  9 25  1  0  0  0  0
 10 26  1  0  0  0  0
 11 13  1  0  0  0  0
 11 19  1  0  0  0  0
 12 20  2  0  0  0  0
 12 21  1  0  0  0  0
 12 27  1  0  0  0  0
 13 22  1  0  0  0  0
 13 23  2  0  0  0  0
 14 15  1  0  0  0  0
 14 17  1  0  0  0  0
 15 24  1  0  0  0  0
 16 17  1  0  0  0  0
 16 27  1  0  0  0  0
 17 18  1  0  0  0  0
 18 20  1  0  0  0  0
 18 24  1  0  0  0  0
  1 28  1  0  0  0  0
  2 29  1  0  0  0  0
  3 30  1  0  0  0  0
  4 31  1  0  0  0  0
  5 32  1  0  0  0  0
  6 33  1  0  0  0  0
 14 34  1  0  0  0  0
 14 35  1  0  0  0  0
 15 36  1  0  0  0  0
 15 37  1  0  0  0  0
 16 38  1  0  0  0  0
 16 39  1  0  0  0  0
 17 40  1  0  0  0  0
 20 41  1  0  0  0  0
 21 42  1  0  0  0  0
 21 43  1  0  0  0  0
 22 44  1  0  0  0  0
M  CHG  1  20   1
M  END
> <OMEGA_C>
aW8/QNYSmsDyIIrBfXR3QKShi8AIHZLBqN+fQFqIdj96CabBNPXRQKGNvD9JV7TB6I/CQBKUWL8o
ya/Ba2rtPxvoKsBcBYvBDlO1QG3Y9D9BU6zBlgCmQB2Fzb5KxKfBnZv8P7kwfcBPjIbBb7fYQJAj
zD0LArbB18psQOXqQ8CCSpbBMbuKQOYtf0CuB5nBX5iTQO5xIsCNgp7BswjSQBlqr0DFharB9/S6
QDL9qEA4PrXBFIfkQKKkd0AYLZvBIcvYQGKpgUB2A6fB/XiuQGNSWUBpcarBux8tQAHLD8Cpr5LB
GUmJQPgMakDzMKPBlzdIQIebg0CgsZPBwvOMQCuInL/MdaHB+suxQJcOTcCFzqHB93SkQPZtgEAU
mLTBd+qOP051i8C1sH3B0OPzQJ2Bnr5nv73BYgG6QAc3i0Ce8JHBmD1GQE/EucA8yobBYgeVQE4U
oMC4B5XB1miKQMxapT8UzJ/B0bbiQFyJDECdNLnBpVPHQGyH879NH7HBqQaJP7vFAMBERojB/qbw
QF5BwEDclKvB8fy9QJQYwUD1y6TBtBKkQKgsw0D7mrbBTlbSQOEsqEB80bvBGTDsQMDKM0D40ZnB
93AAQZiAj0AKc5nBoKbyQI+WZ0D436vBDFdYQDyJZEArcKbBMUhHQEbgjECkCYzBL14RQDB7ekAV
f5fBHllkQARBTr/Pn57BauDiP5MhL8ClzIrBxqMnQOlAEsBU6JLBVXqgQL+AcT9n5qXBi3PSQNi4
vD+6KLTBy0PFQA/mWb/9Wq/BxstDQDh2mcCHcorB/1G1QCyf8z9WOazB9POnQE4Y1754eqfBysL/
P2g5gMD0e4bBk6PaQPTp1z1Xo7XBfMVrQCU1R8D9jJbBe6uKQOKLgEBwA5nBZMeTQJ3QJcDvq57B
l7zQQJxnr0DT8qrBJGi6QJ5dp0BUsLXBk7vkQBEMe0DyXpvBne/XQJcngkBWLKfB/bKtQNCuWEAT
a6rBYg94QLwdi8CwUZLBe9uIQDzIaEDYDaPBZn5IQLKQh0AjyJPBKmuPQMLWn7+9H6HBObewQNmI
UsCmO6LBurGiQM1Yf0DLlbTBINCZP83pjsBDJn3Bepv2QG5slL6EPb3BzDO6QJnSiEAbw5HBnVZ2
PyWhB8AT7YfBWuQdQGmnp78saZbBlXCKQN+GoT94wJ/B94LiQFP9DEBUHbnBBTXLQIXM87/0irDB
VVVOQFXuuMCwIIfBqCPvQN+hwEDXAazBRha8QI9SwUDWZ6XBzm2kQIjawUBgiLfBa0fSQJ1spEAm
HbzB+pXvQIfgOECuFJrBOFH/QJS2k0CRypnBxabxQJY0aEBqDKzBeTxXQOMQYEDgHabBFFhIQBAD
kUBrI4zB+yURQOovg0CrpZfBo3BsQO+pTb8Xt53B

> <OMEGA_E>
cL5QPnA+tz4=

> <OMEGA_NBR>
    128971

$$$$
50529670
  -OEChem-04172616093D

 44 47  0     1  0  0  0  0  0999 V2000
    6.0443   -0.8619  -21.9852 C   0  0  0  0  0  0  0  0  0  0  0  0
    6.7609    0.0585  -22.7662 C   0  0  0  0  0  0  0  0  0  0  0  0
    3.0269   -4.8162  -17.2478 C   0  0  0  0  0  0  0  0  0  0  0  0
    3.9002   -4.3449  -18.2377 C   0  0  0  0  0  0  0  0  0  0  0  0
    5.0192    0.9783  -20.7666 C   0  0  0  0  0  0  0  0  0  0  0  0
    1.8338   -2.7042  -17.3836 C   0  0  0  0  0  0  0  0  0  0  0  0
    5.7114    1.9147  -21.5568 C   0  0  0  0  0  0  0  0  0  0  0  0
    5.1728   -0.3923  -20.9780 C   0  0  0  0  0  0  0  0  0  0  0  0
    6.5947    1.4407  -22.5654 C   0  0  0  0  0  0  0  0  0  0  0  0
    1.9797   -3.9847  -16.8192 C   0  0  0  0  0  0  0  0  0  0  0  0
    3.7045   -3.0490  -18.7675 C   0  0  0  0  0  0  0  0  0  0  0  0
    4.3609    3.9511  -19.1392 C   0  0  0  0  0  0  0  0  0  0  0  0
    4.6109   -2.5116  -19.7918 C   0  0  0  0  0  0  0  0  0  0  0  0
    6.5229    5.5502  -21.2335 C   0  0  0  0  0  0  0  0  0  0  0  0
    5.6016    5.4338  -22.4655 C   0  0  0  0  0  0  0  0  0  0  0  0
    7.1757    3.8558  -19.4057 C   0  0  0  0  0  0  0  0  0  0  0  0
    6.7929    4.0986  -20.8726 C   0  0  1  0  0  0  0  0  0  0  0  0
    5.4969    3.4089  -21.3194 C   0  0  2  0  0  0  0  0  0  0  0  0
    2.6847   -2.2594  -18.3316 N   0  0  0  0  0  0  0  0  0  0  0  0
    4.3225    3.6704  -20.4229 N   0  3  0  0  0  0  0  0  0  0  0  0
    3.1519    4.0877  -18.4776 N   0  0  0  0  0  0  0  0  0  0  0  0
    4.3829   -1.2032  -20.1817 N   0  0  0  0  0  0  0  0  0  0  0  0
    5.5755   -3.1605  -20.1823 O   0  0  0  0  0  0  0  0  0  0  0  0
    5.2146    4.0400  -22.5813 O   0  0  0  0  0  0  0  0  0  0  0  0
    7.2708    2.2923  -23.3717 F   0  0  0  0  0  0  0  0  0  0  0  0
    5.8375    4.2225  -18.2167 S   0  0  0  0  0  0  0  0  0  0  0  0
    0.8625   -4.5337  -15.6022 Cl  0  0  0  0  0  0  0  0  0  0  0  0
    6.1588   -1.9226  -22.1535 H   0  0  0  0  0  0  0  0  0  0  0  0
    7.4428   -0.2963  -23.5248 H   0  0  0  0  0  0  0  0  0  0  0  0
    3.1571   -5.8005  -16.8227 H   0  0  0  0  0  0  0  0  0  0  0  0
    4.7118   -4.9637  -18.5910 H   0  0  0  0  0  0  0  0  0  0  0  0
    4.3596    1.3255  -19.9851 H   0  0  0  0  0  0  0  0  0  0  0  0
    1.0273   -2.0667  -17.0525 H   0  0  0  0  0  0  0  0  0  0  0  0
    7.4560    6.0754  -21.4855 H   0  0  0  0  0  0  0  0  0  0  0  0
    6.0175    6.0753  -20.4097 H   0  0  0  0  0  0  0  0  0  0  0  0
    4.7093    6.0627  -22.3297 H   0  0  0  0  0  0  0  0  0  0  0  0
    6.1401    5.7520  -23.3704 H   0  0  0  0  0  0  0  0  0  0  0  0
    7.4586    2.7988  -19.2926 H   0  0  0  0  0  0  0  0  0  0  0  0
    8.0381    4.4941  -19.1632 H   0  0  0  0  0  0  0  0  0  0  0  0
    7.6133    3.7309  -21.5064 H   0  0  0  0  0  0  0  0  0  0  0  0
    3.4172    3.6267  -20.8455 H   0  0  0  0  0  0  0  0  0  0  0  0
    3.1373    4.3328  -17.5082 H   0  0  0  0  0  0  0  0  0  0  0  0
    2.2935    3.9412  -18.9692 H   0  0  0  0  0  0  0  0  0  0  0  0
    3.5372   -0.7900  -19.8440 H   0  0  0  0  0  0  0  0  0  0  0  0
  1  2  1  0  0  0  0
  1  8  2  0  0  0  0
  2  9  2  0  0  0  0
  3  4  2  0  0  0  0
  3 10  1  0  0  0  0
  4 11  1  0  0  0  0
  5  7  2  0  0  0  0
  5  8  1  0  0  0  0
  6 10  2  0  0  0  0
  6 19  1  0  0  0  0
  7  9  1  0  0  0  0
  7 18  1  0  0  0  0
  8 22  1  0  0  0  0
  9 25  1  0  0  0  0
 10 27  1  0  0  0  0
 11 13  1  0  0  0  0
 11 19  2  0  0  0  0
 12 20  2  0  0  0  0
 12 21  1  0  0  0  0
 12 26  1  0  0  0  0
 13 22  1  0  0  0  0
 13 23  2  0  0  0  0
 14 15  1  0  0  0  0
 14 17  1  0  0  0  0
 15 24  1  0  0  0  0
 16 17  1  0  0  0  0
 16 26  1  0  0  0  0
 17 18  1  0  0  0  0
 18 20  1  0  0  0  0
 18 24  1  0  0  0  0
  1 28  1  0  0  0  0
  2 29  1  0  0  0  0
  3 30  1  0  0  0  0
  4 31  1  0  0  0  0
  5 32  1  0  0  0  0
  6 33  1  0  0  0  0
 14 34  1  0  0  0  0
 14 35  1  0  0  0  0
 15 36  1  0  0  0  0
 15 37  1  0  0  0  0
 16 38  1  0  0  0  0
 16 39  1  0  0  0  0
 17 40  1  0  0  0  0
 20 41  1  0  0  0  0
 21 42  1  0  0  0  0
 21 43  1  0  0  0  0
 22 44  1  0  0  0  0
M  CHG  1  20   1
M  END
> <OMEGA_C>
FmvBQFOnXL+s4a/BDVnYQPifbz1HIbbBdblBQHwemsCO+4nBuZx5QMsJi8DX5pHBe52gQLZuej/w
IabBZbjqP/QQLcCUEYvB1MO2QDUV9T9XdKzBpoelQCDbyL7y0qfByQfTQCJquD/1hbTBVGb9PxQF
f8CjjYbBDBZtQDYiQ8DrI5bBhIyLQJfefEAXHZnBeYyTQNO9IMCaVZ7B2rvQQOeasUBE3qnBCECz
QArirUBgubPBap/lQCXFdkDPPpvBiV/ZQIAng0AD+6bBYOavQGcrWkAYjqrBYtErQOqZEMAnp5LB
41GKQC/oakAlYqPBirhJQEjOgkAG0pPB20CMQM8Dmr8idKHBpWqyQBFFSsBRdaHBI96mQFBHgUCW
prTBDKroQMq1EkBQ+brBw8y6QI8eh0C9u5HBT8xcP84TkcCLonnB+BTFQPwW9r9POrHBxivuQP+z
l77VMrzBeg1KQHaducDulIbBSMeWQGXWnsBqupTBmYGLQNyqqT+J4Z/BGn6DPxVEBMCSa4jB3Zfu
QFtpwkA+4qvBpo/AQCNpwkD6RqPB4bKWQLYBwkAuo7LBtnvEQF4QuECD9rrB6azuQMUfM0A6V5rB
FJwAQfPPj0BGTpnBL6DzQIPGbkAcDazB8bNaQC4caECgw6bB6MlIQBKmikC2EIzBxMgSQOA8fEDu
wJfBqGFiQL89Sr+awJ7B

> <OMEGA_E>
4PQuPg==

> <OMEGA_NBR>
    130020

$$$$
50529671
  -OEChem-04172616093D

 44 47  0     1  0  0  0  0  0999 V2000
    1.9191   -3.9193  -16.8071 C   0  0  0  0  0  0  0  0  0  0  0  0
    6.0860   -0.8605  -21.9679 C   0  0  0  0  0  0  0  0  0  0  0  0
    2.9396   -4.7903  -17.2188 C   0  0  0  0  0  0  0  0  0  0  0  0
    6.7625    0.0716  -22.7721 C   0  0  0  0  0  0  0  0  0  0  0  0
    5.0112    0.9653  -20.7705 C   0  0  0  0  0  0  0  0  0  0  0  0
    1.8197   -2.6478  -17.3995 C   0  0  0  0  0  0  0  0  0  0  0  0
    5.6660    1.9116  -21.5799 C   0  0  0  0  0  0  0  0  0  0  0  0
    5.2004   -0.4035  -20.9658 C   0  0  0  0  0  0  0  0  0  0  0  0
    6.5444    1.4508  -22.5982 C   0  0  0  0  0  0  0  0  0  0  0  0
    3.8346   -4.3722  -18.2169 C   0  0  0  0  0  0  0  0  0  0  0  0
    3.6927   -3.0719  -18.7714 C   0  0  0  0  0  0  0  0  0  0  0  0
    4.3400    3.9808  -19.1333 C   0  0  0  0  0  0  0  0  0  0  0  0
    4.6196   -2.5410  -19.7979 C   0  0  0  0  0  0  0  0  0  0  0  0
    6.5797    5.4906  -21.2866 C   0  0  0  0  0  0  0  0  0  0  0  0
    5.8552    5.3208  -22.6285 C   0  0  0  0  0  0  0  0  0  0  0  0
    7.1374    3.8460  -19.3915 C   0  0  0  0  0  0  0  0  0  0  0  0
    6.7807    4.0515  -20.8696 C   0  0  1  0  0  0  0  0  0  0  0  0
    5.4568    3.4033  -21.3204 C   0  0  2  0  0  0  0  0  0  0  0  0
    2.6914   -2.2478  -18.3503 N   0  0  0  0  0  0  0  0  0  0  0  0
    4.2959    3.6479  -20.4037 N   0  3  0  0  0  0  0  0  0  0  0  0
    3.1336    4.1017  -18.4649 N   0  0  0  0  0  0  0  0  0  0  0  0
    4.4253   -1.2178  -20.1559 N   0  0  0  0  0  0  0  0  0  0  0  0
    5.5619   -3.1987  -20.2250 O   0  0  0  0  0  0  0  0  0  0  0  0
    5.1359    4.0602  -22.5693 O   0  0  0  0  0  0  0  0  0  0  0  0
    7.1718    2.3129  -23.4328 F   0  0  0  0  0  0  0  0  0  0  0  0
    4.8034   -5.2260  -18.6251 F   0  0  0  0  0  0  0  0  0  0  0  0
    5.8144    4.3526  -18.2478 S   0  0  0  0  0  0  0  0  0  0  0  0
    1.2177   -4.2222  -16.0437 H   0  0  0  0  0  0  0  0  0  0  0  0
    6.2417   -1.9191  -22.1143 H   0  0  0  0  0  0  0  0  0  0  0  0
    3.0353   -5.7696  -16.7737 H   0  0  0  0  0  0  0  0  0  0  0  0
    7.4534   -0.2720  -23.5278 H   0  0  0  0  0  0  0  0  0  0  0  0
    4.3513    1.3037  -19.9854 H   0  0  0  0  0  0  0  0  0  0  0  0
    1.0315   -1.9784  -17.0881 H   0  0  0  0  0  0  0  0  0  0  0  0
    7.5408    6.0109  -21.4117 H   0  0  0  0  0  0  0  0  0  0  0  0
    5.9590    6.0366  -20.5609 H   0  0  0  0  0  0  0  0  0  0  0  0
    5.1501    6.1506  -22.7842 H   0  0  0  0  0  0  0  0  0  0  0  0
    6.5850    5.3005  -23.4513 H   0  0  0  0  0  0  0  0  0  0  0  0
    7.3480    2.7786  -19.2293 H   0  0  0  0  0  0  0  0  0  0  0  0
    8.0380    4.4358  -19.1654 H   0  0  0  0  0  0  0  0  0  0  0  0
    7.5916    3.6251  -21.4783 H   0  0  0  0  0  0  0  0  0  0  0  0
    3.3853    3.5463  -20.8043 H   0  0  0  0  0  0  0  0  0  0  0  0
    3.1189    4.3927  -17.5083 H   0  0  0  0  0  0  0  0  0  0  0  0
    2.2768    3.8981  -18.9387 H   0  0  0  0  0  0  0  0  0  0  0  0
    3.6071   -0.7874  -19.7747 H   0  0  0  0  0  0  0  0  0  0  0  0
  1  3  1  0  0  0  0
  1  6  2  0  0  0  0
  2  4  2  0  0  0  0
  2  8  1  0  0  0  0
  3 10  2  0  0  0  0
  4  9  1  0  0  0  0
  5  7  1  0  0  0  0
  5  8  2  0  0  0  0
  6 19  1  0  0  0  0
  7  9  2  0  0  0  0
  7 18  1  0  0  0  0
  8 22  1  0  0  0  0
  9 25  1  0  0  0  0
 10 11  1  0  0  0  0
 10 26  1  0  0  0  0
 11 13  1  0  0  0  0
 11 19  2  0  0  0  0
 12 20  2  0  0  0  0
 12 21  1  0  0  0  0
 12 27  1  0  0  0  0
 13 22  1  0  0  0  0
 13 23  2  0  0  0  0
 14 15  1  0  0  0  0
 14 17  1  0  0  0  0
 15 24  1  0  0  0  0
 16 17  1  0  0  0  0
 16 27  1  0  0  0  0
 17 18  1  0  0  0  0
 18 20  1  0  0  0  0
 18 24  1  0  0  0  0
  1 28  1  0  0  0  0
  2 29  1  0  0  0  0
  3 30  1  0  0  0  0
  4 31  1  0  0  0  0
  5 32  1  0  0  0  0
  6 33  1  0  0  0  0
 14 34  1  0  0  0  0
 14 35  1  0  0  0  0
 15 36  1  0  0  0  0
 15 37  1  0  0  0  0
 16 38  1  0  0  0  0
 16 39  1  0  0  0  0
 17 40  1  0  0  0  0
 20 41  1  0  0  0  0
 21 42  1  0  0  0  0
 21 43  1  0  0  0  0
 22 44  1  0  0  0  0
M  CHG  1  20   1
M  END
> <OMEGA_C>
iaP1P3fVesDmdIbB2sDCQHpIXL80vq/B/SE8QM5JmcAWwInBQWbYQAO4kj1YLbbBjVugQAIgdz8U
KqbBT+3oP291KcAYMovBMFC1QNmu9D+Uo6zBhWmmQFqUzr4OuqfBtWvRQO6yuT8iybTByGp1QFPp
i8AkvJHBBVVsQC6aRMDCK5bBjOGKQMjEfkD2EJnBCtSTQNafIsAOYp7BGo3SQEazr0AGS6rBNV67
QBVEqkAgB7XB1GXkQC4kdkDQIZvBJPvYQO+lgUDw9KbBL56uQOLOWUAmkKrBkj8sQMTcD8ByzZLB
xneJQC93aUDEOqPBiIxIQE9Bg0AcuJPBU5yNQD/hm784P6HBafuxQDi4TMDkzKHBl1mkQPDsgUD8
jbTBCH/lQHIGFEB0drvBr7WZQMA7p8BAAJXB8g+6QKhIi0CG+5HB3t2bP0Uch8B9WYDBMbzHQPml
9b8E6rDB6kJCQI6guMCAMIbBLYLuQPxCi77aOLzBFT6LQBzgpj8K4p/B7gaEP488/b9xtIjBbk7x
QAtZwEAqS6vBIrC+QHsrwUDAfKTBkc2kQI7RxED2RbbBabjSQN6dqUBEnLvB2iLrQMTTMUCy1ZnB
dJsAQUHyjUDEUpnBdu7yQIgBaECU06vBBKhYQJ32YkAib6bBb5xHQGaRjED9EIzB1LcRQNx5eUCN
gpfBFttmQASWSb+DMp7BvvssQAwalMDmvYTB9C23QOqTVb/1PbDB5SH5P36Oa8CsbIrBDJbIQCZV
nT3qgbfBaRylQFZsgD+HQKTBze6AQLiRnMDu74fB2Fq1QBFm+T9svKvBskqlQFwgxb6aeqbBd+XH
QOfmuT8OZLXBuKMiQIEAQcCsG5PBn0l4QOXZVMBn5JXBAEOFQBaVhUCJd5nBPtWQQECuKcC77p7B
j0r7QNj/iUDQFazBQ0rcQCQln0CY67PBEaDXQHLuoUDkJpvB4u3dQOV7eEA1/qLBTeyzQMX+XUC2
C6nBEN6SQPYjiMAEXpDBDz+KQET/b0B5XKPB6UQ4QEPsiUDFc5XBMc+SQD23n78P357BYmChQG2Z
VsCg0qXBawi0QOUriECd6bLBQwvZQC2dEECI7LzBhy/pP1h5B8AT15jB1V+wQE4Nk0DPQZHBwXcR
QPS/pMBE/nvBh163QN7W8b8wFrLBmxxtP97nXcCJKIjBhr7WQFgSkb75177BxmKYQJUYrT9LuJzB
qIeTQATcs8AxkIPBvJsFQTx8XEAzwK/BIckJQe7foEC9RqnB49nXQAYTwUBI27HBoY7oQH+UnEDG
JLzB2Sr2QGxSqUC7L5fBWW3MQBU+vkCVkZ/BSVXrQFDWQEBSxZ7BHvleQOg1ZkD3kqfBNU0vQKeV
lEA6/o3BB+gFQF5kgkD7A5rBYj+FQIwGTb+XkZjB

> <OMEGA_E>
4CNQPmQpIT8=

> <OMEGA_NBR>
    131850

$$$$
50529672
  -OEChem-04172616093D

 47 50  0     1  0  0  0  0  0999 V2000
    5.9282   -0.8889  -21.7835 C   0  0  0  0  0  0  0  0  0  0  0  0
    6.6009   -0.0253  -22.6577 C   0  0  0  0  0  0  0  0  0  0  0  0
    4.9192    1.0387  -20.6737 C   0  0  0  0  0  0  0  0  0  0  0  0
    4.1857   -4.0710  -17.5919 C   0  0  0  0  0  0  0  0  0  0  0  0
    1.5643   -3.4924  -18.0539 C   0  0  0  0  0  0  0  0  0  0  0  0
    5.6163    1.9345  -21.5241 C   0  0  0  0  0  0  0  0  0  0  0  0
    5.0800   -0.3527  -20.7964 C   0  0  0  0  0  0  0  0  0  0  0  0
    6.4446    1.3688  -22.5432 C   0  0  0  0  0  0  0  0  0  0  0  0
    3.8068   -3.0447  -18.4895 C   0  0  0  0  0  0  0  0  0  0  0  0
    1.9351   -4.5251  -17.1531 C   0  0  0  0  0  0  0  0  0  0  0  0
    4.3997    4.1402  -19.1474 C   0  0  0  0  0  0  0  0  0  0  0  0
    4.8030   -2.2558  -19.2344 C   0  0  0  0  0  0  0  0  0  0  0  0
    7.2810    4.7886  -22.3284 C   0  0  0  0  0  0  0  0  0  0  0  0
    5.9822    5.0084  -23.1006 C   0  0  0  0  0  0  0  0  0  0  0  0
    6.6770    5.3446  -19.9863 C   0  0  0  0  0  0  0  0  0  0  0  0
    6.8076    4.1919  -21.0065 C   0  0  1  0  0  0  0  0  0  0  0  0
    5.4379    3.4771  -21.3635 C   0  0  2  0  0  0  0  0  0  0  0  0
   -0.3985   -5.0035  -16.7170 C   0  0  0  0  0  0  0  0  0  0  0  0
    2.4986   -2.7759  -18.6989 N   0  0  0  0  0  0  0  0  0  0  0  0
    3.2463   -4.7907  -16.9390 N   0  0  0  0  0  0  0  0  0  0  0  0
    4.2932    3.7757  -20.4107 N   0  3  0  0  0  0  0  0  0  0  0  0
    3.2736    4.1248  -18.3378 N   0  0  0  0  0  0  0  0  0  0  0  0
    4.3267   -1.1723  -19.9690 N   0  0  0  0  0  0  0  0  0  0  0  0
    6.0029   -2.4986  -19.1386 O   0  0  0  0  0  0  0  0  0  0  0  0
    5.0595    3.9769  -22.6782 O   0  0  0  0  0  0  0  0  0  0  0  0
    1.0018   -5.2918  -16.4691 O   0  0  0  0  0  0  0  0  0  0  0  0
    7.0749    2.1262  -23.4601 F   0  0  0  0  0  0  0  0  0  0  0  0
    5.8908    4.7444  -18.4870 S   0  0  0  0  0  0  0  0  0  0  0  0
    6.0593   -1.9577  -21.8663 H   0  0  0  0  0  0  0  0  0  0  0  0
    7.2436   -0.4319  -23.4245 H   0  0  0  0  0  0  0  0  0  0  0  0
    4.2538    1.4318  -19.9194 H   0  0  0  0  0  0  0  0  0  0  0  0
    5.2324   -4.2804  -17.4274 H   0  0  0  0  0  0  0  0  0  0  0  0
    0.5187   -3.2807  -18.2222 H   0  0  0  0  0  0  0  0  0  0  0  0
    7.9427    4.0900  -22.8614 H   0  0  0  0  0  0  0  0  0  0  0  0
    7.8080    5.7402  -22.1648 H   0  0  0  0  0  0  0  0  0  0  0  0
    5.5695    6.0018  -22.8707 H   0  0  0  0  0  0  0  0  0  0  0  0
    6.1676    4.9298  -24.1820 H   0  0  0  0  0  0  0  0  0  0  0  0
    7.6774    5.7326  -19.7439 H   0  0  0  0  0  0  0  0  0  0  0  0
    6.0669    6.1499  -20.4213 H   0  0  0  0  0  0  0  0  0  0  0  0
    7.5291    3.4453  -20.6432 H   0  0  0  0  0  0  0  0  0  0  0  0
   -1.0245   -5.6789  -16.1154 H   0  0  0  0  0  0  0  0  0  0  0  0
   -0.6128   -3.9608  -16.4396 H   0  0  0  0  0  0  0  0  0  0  0  0
   -0.6199   -5.1519  -17.7842 H   0  0  0  0  0  0  0  0  0  0  0  0
    3.3671    3.6871  -20.7775 H   0  0  0  0  0  0  0  0  0  0  0  0
    3.3302    4.4565  -17.3961 H   0  0  0  0  0  0  0  0  0  0  0  0
    2.4051    3.7819  -18.6957 H   0  0  0  0  0  0  0  0  0  0  0  0
    3.3511   -0.9663  -19.8928 H   0  0  0  0  0  0  0  0  0  0  0  0
  1  2  2  0  0  0  0
  1  7  1  0  0  0  0
  2  8  1  0  0  0  0
  3  6  1  0  0  0  0
  3  7  2  0  0  0  0
  4  9  2  0  0  0  0
  4 20  1  0  0  0  0
  5 10  1  0  0  0  0
  5 19  2  0  0  0  0
  6  8  2  0  0  0  0
  6 17  1  0  0  0  0
  7 23  1  0  0  0  0
  8 27  1  0  0  0  0
  9 12  1  0  0  0  0
  9 19  1  0  0  0  0
 10 20  2  0  0  0  0
 10 26  1  0  0  0  0
 11 21  2  0  0  0  0
 11 22  1  0  0  0  0
 11 28  1  0  0  0  0
 12 23  1  0  0  0  0
 12 24  2  0  0  0  0
 13 14  1  0  0  0  0
 13 16  1  0  0  0  0
 14 25  1  0  0  0  0
 15 16  1  0  0  0  0
 15 28  1  0  0  0  0
 16 17  1  0  0  0  0
 17 21  1  0  0  0  0
 17 25  1  0  0  0  0
 18 26  1  0  0  0  0
  1 29  1  0  0  0  0
  2 30  1  0  0  0  0
  3 31  1  0  0  0  0
  4 32  1  0  0  0  0
  5 33  1  0  0  0  0
 13 34  1  0  0  0  0
 13 35  1  0  0  0  0
 14 36  1  0  0  0  0
 14 37  1  0  0  0  0
 15 38  1  0  0  0  0
 15 39  1  0  0  0  0
 16 40  1  0  0  0  0
 18 41  1  0  0  0  0
 18 42  1  0  0  0  0
 18 43  1  0  0  0  0
 21 44  1  0  0  0  0
 22 45  1  0  0  0  0
 22 46  1  0  0  0  0
 23 47  1  0  0  0  0
M  CHG  1  21   1
M  END
> <OMEGA_C>
kLO9QGSQY7+TRK7BiTrTQHAgz7wCQ7XBeGqdQKryhD/GY6XBqPGFQFpFgsAcvIzB1jrIP92CX8Bn
bpDB17izQGSc9z9lMazBtY+iQJaRtL75XqbBeTrOQJg1rz+HWLTBaaJzQI3cQsB/6pPBLrL3P8zN
kMCQOYnBSMqMQK98hEDwLZnB9rGZQBpfEMAI4JnBLv7oQB48mUCZoLLBPW6/QDFFoEAGzrjBPqrV
QMoGq0D+45/Bm9fZQFQkhkBcDajBSgOuQKGIXkBx6KrBAgnMvrYcoMB0vIXBXukfQCyoMcBKl5XB
+8NPQCpNmcAZg4fB32GJQI2kcUAvSaPBM4JRQAj+g0C3s5LBD3SKQFoOlr96wJ/BxxfAQEnoH8DC
G5nBm+ehQN+FfkDxbLXB9TqAPxBWqcCrwIPBuWXiQG8UCEBDrrvBUYG8QCnSl0Bg5ZPBqOXBQPSW
+r8i7q7BksvnQBgh3b5wZbvBeB+IQHFGtz/dWp/B0W+nQE35iMBMa4vBdckEPwv3UcAax5HBASv+
QAjhgkAe5LbBz9r5QMOvt0CHUbHBDTmyQNMOwEAb97bBKV3FQL/AnUC9dMHB36z1QIZxt0Bq853B
CCTCQLrLxEDrXqPB++3wQLB/XEBPJaXBGCSDv5y5tcBk7IDBVOAcv39+fcBghIPBzLEev4vcpMAe
Ro7Bnn5XQJv5a0BLOKbBIyJVQMqbjkAwK4vBmOwZQO4JckDCkJXBRXhWQLxfd79cJJ/B

> <OMEGA_E>
ZhEqPw==

> <OMEGA_NBR>
    132946

$$$$
50224501
  -OEChem-04172616093D

 43 46  0     1  0  0  0  0  0999 V2000
    6.1457   -0.8628  -21.8673 C   0  0  0  0  0  0  0  0  0  0  0  0
    6.8768    0.0585  -22.6284 C   0  0  0  0  0  0  0  0  0  0  0  0
    2.9553   -4.8385  -17.2413 C   0  0  0  0  0  0  0  0  0  0  0  0
    3.8393   -4.3772  -18.2279 C   0  0  0  0  0  0  0  0  0  0  0  0
    4.9661    0.9832  -20.8116 C   0  0  0  0  0  0  0  0  0  0  0  0
    1.8022   -2.7046  -17.3681 C   0  0  0  0  0  0  0  0  0  0  0  0
    5.6641    1.9379  -21.5897 C   0  0  0  0  0  0  0  0  0  0  0  0
    5.1991   -0.3937  -20.9343 C   0  0  0  0  0  0  0  0  0  0  0  0
    6.6575    1.4441  -22.4960 C   0  0  0  0  0  0  0  0  0  0  0  0
    1.9240   -3.9894  -16.8078 C   0  0  0  0  0  0  0  0  0  0  0  0
    3.6693   -3.0735  -18.7520 C   0  0  0  0  0  0  0  0  0  0  0  0
    4.3574    3.8915  -19.2230 C   0  0  0  0  0  0  0  0  0  0  0  0
    4.5932   -2.5394  -19.7677 C   0  0  0  0  0  0  0  0  0  0  0  0
    7.4272    4.4817  -20.9742 C   0  0  0  0  0  0  0  0  0  0  0  0
    5.3583    4.3358  -22.7234 C   0  0  0  0  0  0  0  0  0  0  0  0
    7.3380    3.7546  -19.5938 C   0  0  0  0  0  0  0  0  0  0  0  0
    6.0071    4.7653  -21.4148 C   0  0  1  0  0  0  0  0  0  0  0  0
    5.2179    3.4374  -21.4635 C   0  0  2  0  0  0  0  0  0  0  0  0
    2.6617   -2.2703  -18.3140 N   0  0  0  0  0  0  0  0  0  0  0  0
    4.1307    3.6845  -20.5112 N   0  3  0  0  0  0  0  0  0  0  0  0
    3.2400    3.9161  -18.4047 N   0  0  0  0  0  0  0  0  0  0  0  0
    4.4092   -1.2097  -20.1303 N   0  0  0  0  0  0  0  0  0  0  0  0
    5.5180   -3.2243  -20.1912 O   0  0  0  0  0  0  0  0  0  0  0  0
    7.4112    2.2446  -23.2765 F   0  0  0  0  0  0  0  0  0  0  0  0
    5.9478    4.3673  -18.4622 S   0  0  0  0  0  0  0  0  0  0  0  0
    0.8047   -4.5153  -15.5812 Cl  0  0  0  0  0  0  0  0  0  0  0  0
    6.3059   -1.9233  -21.9944 H   0  0  0  0  0  0  0  0  0  0  0  0
    7.6193   -0.2985  -23.3268 H   0  0  0  0  0  0  0  0  0  0  0  0
    3.0657   -5.8280  -16.8229 H   0  0  0  0  0  0  0  0  0  0  0  0
    4.6399   -5.0090  -18.5833 H   0  0  0  0  0  0  0  0  0  0  0  0
    4.2300    1.3270  -20.1001 H   0  0  0  0  0  0  0  0  0  0  0  0
    1.0068   -2.0542  -17.0354 H   0  0  0  0  0  0  0  0  0  0  0  0
    7.9861    5.4234  -20.8702 H   0  0  0  0  0  0  0  0  0  0  0  0
    7.9297    3.8364  -21.7099 H   0  0  0  0  0  0  0  0  0  0  0  0
    4.4847    4.8821  -23.1085 H   0  0  0  0  0  0  0  0  0  0  0  0
    5.9854    4.0070  -23.5653 H   0  0  0  0  0  0  0  0  0  0  0  0
    7.1792    2.6824  -19.7813 H   0  0  0  0  0  0  0  0  0  0  0  0
    8.2943    3.8973  -19.0693 H   0  0  0  0  0  0  0  0  0  0  0  0
    5.5017    5.5865  -20.8855 H   0  0  0  0  0  0  0  0  0  0  0  0
    3.1881    3.6971  -20.8450 H   0  0  0  0  0  0  0  0  0  0  0  0
    3.3284    4.1858  -17.4458 H   0  0  0  0  0  0  0  0  0  0  0  0
    2.3450    3.6643  -18.7728 H   0  0  0  0  0  0  0  0  0  0  0  0
    3.5884   -0.7760  -19.7585 H   0  0  0  0  0  0  0  0  0  0  0  0
  1  2  1  0  0  0  0
  1  8  2  0  0  0  0
  2  9  2  0  0  0  0
  3  4  2  0  0  0  0
  3 10  1  0  0  0  0
  4 11  1  0  0  0  0
  5  7  2  0  0  0  0
  5  8  1  0  0  0  0
  6 10  2  0  0  0  0
  6 19  1  0  0  0  0
  7  9  1  0  0  0  0
  7 18  1  0  0  0  0
  8 22  1  0  0  0  0
  9 24  1  0  0  0  0
 10 26  1  0  0  0  0
 11 13  1  0  0  0  0
 11 19  2  0  0  0  0
 12 20  2  0  0  0  0
 12 21  1  0  0  0  0
 12 25  1  0  0  0  0
 13 22  1  0  0  0  0
 13 23  2  0  0  0  0
 14 16  1  0  0  0  0
 14 17  1  0  0  0  0
 15 17  1  0  0  0  0
 15 18  1  0  0  0  0
 16 25  1  0  0  0  0
 17 18  1  0  0  0  0
 18 20  1  0  0  0  0
  1 27  1  0  0  0  0
  2 28  1  0  0  0  0
  3 29  1  0  0  0  0
  4 30  1  0  0  0  0
  5 31  1  0  0  0  0
  6 32  1  0  0  0  0
 14 33  1  0  0  0  0
 14 34  1  0  0  0  0
 15 35  1  0  0  0  0
 15 36  1  0  0  0  0
 16 37  1  0  0  0  0
 16 38  1  0  0  0  0
 17 39  1  0  0  0  0
 20 40  1  0  0  0  0
 21 41  1  0  0  0  0
 21 42  1  0  0  0  0
 22 43  1  0  0  0  0
M  CHG  1  20   1
M  END
> <OMEGA_C>
RqnEQATjXL9S8K7BvA7cQBx+bz34BrXB6yM9QEnVmsAm7onBYbd1QLkRjMDX0pHBkuqeQDCzez81
fqbBJK7mP5AXLcDj8YrBbEC1QIUN+D/Nt6zB1F6mQK2Tyb5xeafBpgrVQMTWuD/Q97PBBEb2P8NS
f8B5dobBTtVqQLazRMAdBJbB+m+LQAMOeUC/yJnBnvuSQJmFIsAtJJ7BsqvtQFRqj0A8y6fBmner
QPy+ikCgybXB6tDqQKpKcEATwJzB9DnAQEd9mEBuUavBbvmmQL/9W0AmtavBi1gqQNpLEcAjg5LB
ei6EQJ/Oa0DZFqTB5lxPQN2hekC/PJPBDhiNQOfXmr/KCqHBJJOwQMpaTsChh6HB6ijtQHKnD0A4
NrrBolS+QPPAi0CIspPB/P5NPzp9kMCoTHnBFMrJQHwu9r+f9K/BPNHzQFzRmL4ynbrBsDREQFl/
usA0lYbBrXmUQO9JoMCoqpTB6FuHQMzZqT/4zKDBjN6APzZ3A8B3SIjBPI7/QMqMrUA/9qbB9L/9
QGKIdUDIra3BeoKPQB86nEA73rjBr4i/QHM5gECqhbzBv7vlQN+rK0AvQJ7BebUEQatteUDkjZjB
lA2wQNfEskB8FafBcQpMQFqdbECbwqbB+gRVQMnxhUDskIvB3RQWQLODakCoLpbBD6hlQOCpRr9x
EZ7B

> <OMEGA_E>
cOB9Pg==

> <OMEGA_NBR>
    133979

$$$$
50093293
  -OEChem-04172616093D

 43 46  0     1  0  0  0  0  0999 V2000
    6.0581   -0.9283  -21.9250 C   0  0  0  0  0  0  0  0  0  0  0  0
    6.7586   -0.0254  -22.7365 C   0  0  0  0  0  0  0  0  0  0  0  0
    2.9790   -4.9199  -17.2744 C   0  0  0  0  0  0  0  0  0  0  0  0
    3.8648   -4.4259  -18.2413 C   0  0  0  0  0  0  0  0  0  0  0  0
    4.9260    0.9342  -20.8435 C   0  0  0  0  0  0  0  0  0  0  0  0
    1.7991   -2.7981  -17.3645 C   0  0  0  0  0  0  0  0  0  0  0  0
    5.6135    1.8550  -21.6569 C   0  0  0  0  0  0  0  0  0  0  0  0
    5.1438   -0.4420  -20.9640 C   0  0  0  0  0  0  0  0  0  0  0  0
    6.5444    1.3580  -22.6136 C   0  0  0  0  0  0  0  0  0  0  0  0
    1.9332   -4.0944  -16.8325 C   0  0  0  0  0  0  0  0  0  0  0  0
    3.6835   -3.1134  -18.7363 C   0  0  0  0  0  0  0  0  0  0  0  0
    4.3676    3.8324  -19.1975 C   0  0  0  0  0  0  0  0  0  0  0  0
    4.5976   -2.5617  -19.7469 C   0  0  0  0  0  0  0  0  0  0  0  0
    6.6238    5.3989  -20.4742 C   0  0  0  0  0  0  0  0  0  0  0  0
    5.4382    4.3935  -22.5692 C   0  0  0  0  0  0  0  0  0  0  0  0
    7.1005    4.7561  -19.1575 C   0  0  0  0  0  0  0  0  0  0  0  0
    6.5677    4.3127  -21.5384 C   0  0  2  0  0  0  0  0  0  0  0  0
    5.3804    3.3487  -21.4281 C   0  0  2  0  0  0  0  0  0  0  0  0
    2.6639   -2.3304  -18.2896 N   0  0  0  0  0  0  0  0  0  0  0  0
    4.2662    3.7253  -20.5039 N   0  3  0  0  0  0  0  0  0  0  0  0
    3.1957    3.9806  -18.4703 N   0  0  0  0  0  0  0  0  0  0  0  0
    4.3833   -1.2433  -20.1231 N   0  0  0  0  0  0  0  0  0  0  0  0
    5.5423   -3.2257  -20.1596 O   0  0  0  0  0  0  0  0  0  0  0  0
    7.2422    2.1717  -23.4365 F   0  0  0  0  0  0  0  0  0  0  0  0
    5.8877    3.6286  -18.3147 S   0  0  0  0  0  0  0  0  0  0  0  0
    0.8106   -4.6671  -15.6312 Cl  0  0  0  0  0  0  0  0  0  0  0  0
    6.2166   -1.9910  -22.0339 H   0  0  0  0  0  0  0  0  0  0  0  0
    7.4683   -0.3955  -23.4616 H   0  0  0  0  0  0  0  0  0  0  0  0
    3.0987   -5.9169  -16.8767 H   0  0  0  0  0  0  0  0  0  0  0  0
    4.6759   -5.0398  -18.6040 H   0  0  0  0  0  0  0  0  0  0  0  0
    4.2176    1.2971  -20.1135 H   0  0  0  0  0  0  0  0  0  0  0  0
    0.9904   -2.1669  -17.0267 H   0  0  0  0  0  0  0  0  0  0  0  0
    5.6241    5.8362  -20.3349 H   0  0  0  0  0  0  0  0  0  0  0  0
    7.3286    6.1856  -20.7814 H   0  0  0  0  0  0  0  0  0  0  0  0
    4.7498    5.2514  -22.5658 H   0  0  0  0  0  0  0  0  0  0  0  0
    5.6138    4.0683  -23.6052 H   0  0  0  0  0  0  0  0  0  0  0  0
    8.0064    4.1720  -19.3769 H   0  0  0  0  0  0  0  0  0  0  0  0
    7.3481    5.5675  -18.4573 H   0  0  0  0  0  0  0  0  0  0  0  0
    7.5249    3.8898  -21.8772 H   0  0  0  0  0  0  0  0  0  0  0  0
    3.3725    3.9106  -20.9126 H   0  0  0  0  0  0  0  0  0  0  0  0
    3.2228    3.9708  -17.4708 H   0  0  0  0  0  0  0  0  0  0  0  0
    2.3236    4.0973  -18.9457 H   0  0  0  0  0  0  0  0  0  0  0  0
    3.5692   -0.8110  -19.7353 H   0  0  0  0  0  0  0  0  0  0  0  0
  1  2  1  0  0  0  0
  1  8  2  0  0  0  0
  2  9  2  0  0  0  0
  3  4  2  0  0  0  0
  3 10  1  0  0  0  0
  4 11  1  0  0  0  0
  5  7  2  0  0  0  0
  5  8  1  0  0  0  0
  6 10  2  0  0  0  0
  6 19  1  0  0  0  0
  7  9  1  0  0  0  0
  7 18  1  0  0  0  0
  8 22  1  0  0  0  0
  9 24  1  0  0  0  0
 10 26  1  0  0  0  0
 11 13  1  0  0  0  0
 11 19  2  0  0  0  0
 12 20  2  0  0  0  0
 12 21  1  0  0  0  0
 12 25  1  0  0  0  0
 13 22  1  0  0  0  0
 13 23  2  0  0  0  0
 14 16  1  0  0  0  0
 14 17  1  0  0  0  0
 15 17  1  0  0  0  0
 15 18  1  0  0  0  0
 16 25  1  0  0  0  0
 17 18  1  0  0  0  0
 18 20  1  0  0  0  0
  1 27  1  0  0  0  0
  2 28  1  0  0  0  0
  3 29  1  0  0  0  0
  4 30  1  0  0  0  0
  5 31  1  0  0  0  0
  6 32  1  0  0  0  0
 14 33  1  0  0  0  0
 14 34  1  0  0  0  0
 15 35  1  0  0  0  0
 15 36  1  0  0  0  0
 16 37  1  0  0  0  0
 16 38  1  0  0  0  0
 17 39  1  0  0  0  0
 20 40  1  0  0  0  0
 21 41  1  0  0  0  0
 21 42  1  0  0  0  0
 22 43  1  0  0  0  0
M  CHG  1  20   1
M  END
> <OMEGA_C>
N9zBQA2lbb95Zq/BkEbYQIDDz7xm5LXBT6g+QA9wncDrMYrBFVh3QNygjcAY7pHBjqGdQNIqbz+A
v6bBwkfmP8AUM8Bo6orBfqGzQBBy7T9DQa3BQJqkQDJT4r4wtqfBYmvRQB3TrT+v6LTBdHL3PwAF
g8D6qIbB0L5rQFJBR8Dx45XBJMOLQOhFdUCJlJnBwR+TQJLzI8C2+Z3BUvbTQAXErEAdy6PBsAWu
QCeXjECqjbTBbjfjQNoxmEB+QpnBTSrSQO0BikCmTqzBBCysQCRRVkDKbKvBNn0qQPQkFcAHUZLB
aYSIQA5sbkAPCKTBj4VMQOjCfkBFw5PBx0OMQFokn78t/KDBkFqxQCtxTsDFRqHBEMDnQJf9CkDm
fbvBCmi8QGo7aECahJLBCINPP/FYlcBcGXrBUe7GQJ/a/r+ARbDBEfzuQLuByr5nsbvB8VBGQBdX
vcBtA4fByKCVQNNFocAX1ZTB9/aGQPMIpj9Z6KDBNox9P72uCsDHNojB/PizQIjCukDWraLBCoTq
QIvwxUBNQKbBAv6XQE8LqEDHhrTBWqSzQJwvgkCJ17zBRhoAQdCAhUDyA5vBvSPrQBQpskB8qJPB
NszwQCLyeEBpBK/BQtZXQPJGekDoTKfB1kJOQA4ifkAgxIvBXLYUQGsdg0DLkJfBs21kQCudT7/2
4Z3B

> <OMEGA_E>
QEiEPg==

> <OMEGA_NBR>
    135011

$$$$
50093295
  -OEChem-04172616093D

 44 47  0     1  0  0  0  0  0999 V2000
    1.1199   -4.5906  -15.7715 C   0  0  0  0  0  0  0  0  0  0  0  0
    1.7305   -2.8160  -17.3185 C   0  0  0  0  0  0  0  0  0  0  0  0
    6.0408   -0.9507  -21.9399 C   0  0  0  0  0  0  0  0  0  0  0  0
    6.7308   -0.0429  -22.7526 C   0  0  0  0  0  0  0  0  0  0  0  0
    2.5787   -2.3375  -18.3141 C   0  0  0  0  0  0  0  0  0  0  0  0
    4.9122    0.9079  -20.8408 C   0  0  0  0  0  0  0  0  0  0  0  0
    3.0322   -4.8696  -17.3073 C   0  0  0  0  0  0  0  0  0  0  0  0
    1.9644   -4.0948  -16.8036 C   0  0  0  0  0  0  0  0  0  0  0  0
    5.5961    1.8339  -21.6506 C   0  0  0  0  0  0  0  0  0  0  0  0
    5.1346   -0.4685  -20.9738 C   0  0  0  0  0  0  0  0  0  0  0  0
    6.5172    1.3397  -22.6186 C   0  0  0  0  0  0  0  0  0  0  0  0
    3.6512   -3.1466  -18.7762 C   0  0  0  0  0  0  0  0  0  0  0  0
    4.3636    3.8464  -19.1842 C   0  0  0  0  0  0  0  0  0  0  0  0
    4.5855   -2.5972  -19.7703 C   0  0  0  0  0  0  0  0  0  0  0  0
    6.6157    5.3983  -20.4940 C   0  0  0  0  0  0  0  0  0  0  0  0
    5.4153    4.3671  -22.5602 C   0  0  0  0  0  0  0  0  0  0  0  0
    7.1004    4.7759  -19.1722 C   0  0  0  0  0  0  0  0  0  0  0  0
    6.5548    4.2962  -21.5407 C   0  0  2  0  0  0  0  0  0  0  0  0
    5.3714    3.3288  -21.4123 C   0  0  2  0  0  0  0  0  0  0  0  0
    0.4159   -4.9741  -14.9261 N   0  0  0  0  0  0  0  0  0  0  0  0
    3.8501   -4.3929  -18.2752 N   0  0  0  0  0  0  0  0  0  0  0  0
    4.2597    3.7096  -20.4876 N   0  3  0  0  0  0  0  0  0  0  0  0
    3.1894    3.9911  -18.4596 N   0  0  0  0  0  0  0  0  0  0  0  0
    4.3776   -1.2782  -20.1487 N   0  0  0  0  0  0  0  0  0  0  0  0
    5.5639   -3.2462  -20.1253 O   0  0  0  0  0  0  0  0  0  0  0  0
    7.2109    2.1561  -23.4411 F   0  0  0  0  0  0  0  0  0  0  0  0
    5.8851    3.6786  -18.2937 S   0  0  0  0  0  0  0  0  0  0  0  0
    0.9119   -2.2139  -16.9530 H   0  0  0  0  0  0  0  0  0  0  0  0
    6.2017   -2.0127  -22.0525 H   0  0  0  0  0  0  0  0  0  0  0  0
    7.4325   -0.4080  -23.4879 H   0  0  0  0  0  0  0  0  0  0  0  0
    2.4217   -1.3547  -18.7335 H   0  0  0  0  0  0  0  0  0  0  0  0
    4.2055    1.2640  -20.1059 H   0  0  0  0  0  0  0  0  0  0  0  0
    3.1996   -5.8611  -16.9130 H   0  0  0  0  0  0  0  0  0  0  0  0
    5.6164    5.8366  -20.3555 H   0  0  0  0  0  0  0  0  0  0  0  0
    7.3178    6.1811  -20.8172 H   0  0  0  0  0  0  0  0  0  0  0  0
    4.7244    5.2231  -22.5552 H   0  0  0  0  0  0  0  0  0  0  0  0
    5.5817    4.0362  -23.5960 H   0  0  0  0  0  0  0  0  0  0  0  0
    7.9970    4.1774  -19.3911 H   0  0  0  0  0  0  0  0  0  0  0  0
    7.3655    5.5977  -18.4907 H   0  0  0  0  0  0  0  0  0  0  0  0
    7.5105    3.8746  -21.8856 H   0  0  0  0  0  0  0  0  0  0  0  0
    3.3614    3.8740  -20.8950 H   0  0  0  0  0  0  0  0  0  0  0  0
    3.2164    3.9986  -17.4600 H   0  0  0  0  0  0  0  0  0  0  0  0
    2.3160    4.0878  -18.9369 H   0  0  0  0  0  0  0  0  0  0  0  0
    3.5581   -0.8502  -19.7676 H   0  0  0  0  0  0  0  0  0  0  0  0
  1  8  1  0  0  0  0
  1 20  3  0  0  0  0
  2  5  2  0  0  0  0
  2  8  1  0  0  0  0
  3  4  1  0  0  0  0
  3 10  2  0  0  0  0
  4 11  2  0  0  0  0
  5 12  1  0  0  0  0
  6  9  2  0  0  0  0
  6 10  1  0  0  0  0
  7  8  2  0  0  0  0
  7 21  1  0  0  0  0
  9 11  1  0  0  0  0
  9 19  1  0  0  0  0
 10 24  1  0  0  0  0
 11 26  1  0  0  0  0
 12 14  1  0  0  0  0
 12 21  2  0  0  0  0
 13 22  2  0  0  0  0
 13 23  1  0  0  0  0
 13 27  1  0  0  0  0
 14 24  1  0  0  0  0
 14 25  2  0  0  0  0
 15 17  1  0  0  0  0
 15 18  1  0  0  0  0
 16 18  1  0  0  0  0
 16 19  1  0  0  0  0
 17 27  1  0  0  0  0
 18 19  1  0  0  0  0
 19 22  1  0  0  0  0
  2 28  1  0  0  0  0
  3 29  1  0  0  0  0
  4 30  1  0  0  0  0
  5 31  1  0  0  0  0
  6 32  1  0  0  0  0
  7 33  1  0  0  0  0
 15 34  1  0  0  0  0
 15 35  1  0  0  0  0
 16 36  1  0  0  0  0
 16 37  1  0  0  0  0
 17 38  1  0  0  0  0
 17 39  1  0  0  0  0
 18 40  1  0  0  0  0
 22 41  1  0  0  0  0
 23 42  1  0  0  0  0
 23 43  1  0  0  0  0
 24 44  1  0  0  0  0
M  CHG  1  22   1
M  END
> <OMEGA_C>
a1iPPzrmksAzWHzBl4LdP7k5NMBUjIrBEk7BQPFgc7/yhK/Bz2LXQHG5L71ABbbB2wklQHuZFcBd
g5LBEDGdQC1taD/4uabBNBBCQB3Um8BcdYrBFXL7P90Ig8C2bYbBZROzQPO96j9uNK3BXk6kQBDf
775dyqfBEI3QQO16qz/w8rTBt6xpQHNiScCVNZbBa6KLQLgrdkAveZnBLrySQAw5JsCFKZ7BIrTT
QB2/rEDP86PBTEqtQHK/i0BEe7TBpzbjQFHUmEC6YJnBIcHRQJZ6iUByU6zBbOKrQJ4LVUB2TKvB
hezUPn0rn8Bj0W7BeWd2QAuTjMCgM5LBZ0+IQMdpbUCk5qPBlB5MQKZtf0BFrZPBCxWMQJCco7+E
MKHBQwuyQKbBT8ChAKHBgL/mQPv9CUB2h7vB3FK8QDBua0CXWZLBS3FpP0GwDcC1n4fBTXTGQPXP
AMB/a7DBPdftQIfi0L4357vBk/0aQAJnrb9C3pXBZpOGQLTLoT/f2KDBZcZMQOKNu8DdTYfBfLmz
QKHFukAC2KLBnSvqQEXLxUCNiabBqS6XQHojp0ARcbTBOJ2yQMQogUCIxLzBmuf/QEGthUDgIJvB
2bHrQBogs0D17JPBFlbwQCH5d0CeFa/BuSBXQM7vd0AEKafBDtlNQLTpf0ATrovBAzkUQO7OgkDZ
fpfBH7hjQMGjWb/5I57B

> <OMEGA_E>
nPHxPg==

> <OMEGA_NBR>
    136058

$$$$
294880
  -OEChem-04172616093D

 42 44  0     1  0  0  0  0  0999 V2000
    5.7355   -0.8881  -22.0719 C   0  0  0  0  0  0  0  0  0  0  0  0
    6.4532   -0.0723  -22.9555 C   0  0  0  0  0  0  0  0  0  0  0  0
    2.8047   -5.0185  -17.5203 C   0  0  0  0  0  0  0  0  0  0  0  0
    3.7139   -4.4829  -18.4468 C   0  0  0  0  0  0  0  0  0  0  0  0
    5.3949    1.0229  -20.5970 C   0  0  0  0  0  0  0  0  0  0  0  0
    1.8398   -2.8014  -17.2901 C   0  0  0  0  0  0  0  0  0  0  0  0
    6.1234    1.8653  -21.4777 C   0  0  0  0  0  0  0  0  0  0  0  0
    5.2210   -0.3507  -20.8722 C   0  0  0  0  0  0  0  0  0  0  0  0
    6.6574    1.2891  -22.6721 C   0  0  0  0  0  0  0  0  0  0  0  0
    1.8549   -4.1643  -16.9357 C   0  0  0  0  0  0  0  0  0  0  0  0
    3.6492   -3.1020  -18.7639 C   0  0  0  0  0  0  0  0  0  0  0  0
    6.6855    5.2024  -22.7491 C   0  0  0  0  0  0  0  0  0  0  0  0
    4.5798   -2.5018  -19.7417 C   0  0  0  0  0  0  0  0  0  0  0  0
    4.8621    4.0050  -20.9964 C   0  0  0  0  0  0  0  0  0  0  0  0
    4.9522    5.5330  -21.1305 C   0  0  0  0  0  0  0  0  0  0  0  0
    6.2802    3.3681  -21.1108 C   0  0  1  0  0  0  0  0  0  0  0  0
    7.0494    3.4965  -19.7669 C   0  0  0  0  0  0  0  0  0  0  0  0
    2.7205   -2.2968  -18.1826 N   0  0  0  0  0  0  0  0  0  0  0  0
    7.0995    4.1280  -22.1094 N   0  3  0  0  0  0  0  0  0  0  0  0
    7.4372    5.6661  -23.8181 N   0  0  0  0  0  0  0  0  0  0  0  0
    4.4924   -1.1195  -19.9579 N   0  0  0  0  0  0  0  0  0  0  0  0
    5.4405   -3.1971  -20.2739 O   0  0  0  0  0  0  0  0  0  0  0  0
    5.5375    5.8837  -22.4080 O   0  0  0  0  0  0  0  0  0  0  0  0
    7.3598    2.0009  -23.5827 F   0  0  0  0  0  0  0  0  0  0  0  0
    0.7011   -4.7810  -15.7811 Cl  0  0  0  0  0  0  0  0  0  0  0  0
    5.5754   -1.9297  -22.3085 H   0  0  0  0  0  0  0  0  0  0  0  0
    6.8543   -0.4942  -23.8652 H   0  0  0  0  0  0  0  0  0  0  0  0
    2.8351   -6.0667  -17.2621 H   0  0  0  0  0  0  0  0  0  0  0  0
    4.4545   -5.1158  -18.9131 H   0  0  0  0  0  0  0  0  0  0  0  0
    4.9653    1.4413  -19.6988 H   0  0  0  0  0  0  0  0  0  0  0  0
    1.1094   -2.1458  -16.8394 H   0  0  0  0  0  0  0  0  0  0  0  0
    4.4281    3.7514  -20.0180 H   0  0  0  0  0  0  0  0  0  0  0  0
    4.2201    3.6076  -21.7964 H   0  0  0  0  0  0  0  0  0  0  0  0
    3.9430    5.9651  -21.0612 H   0  0  0  0  0  0  0  0  0  0  0  0
    5.5790    5.9336  -20.3202 H   0  0  0  0  0  0  0  0  0  0  0  0
    7.1604    4.5597  -19.5074 H   0  0  0  0  0  0  0  0  0  0  0  0
    6.4884    2.9820  -18.9728 H   0  0  0  0  0  0  0  0  0  0  0  0
    8.0443    3.0383  -19.8687 H   0  0  0  0  0  0  0  0  0  0  0  0
    8.0231    3.7970  -22.3031 H   0  0  0  0  0  0  0  0  0  0  0  0
    7.1421    6.4779  -24.3221 H   0  0  0  0  0  0  0  0  0  0  0  0
    8.2744    5.1888  -24.0850 H   0  0  0  0  0  0  0  0  0  0  0  0
    3.8321   -0.6251  -19.3926 H   0  0  0  0  0  0  0  0  0  0  0  0
  1  2  2  0  0  0  0
  1  8  1  0  0  0  0
  2  9  1  0  0  0  0
  3  4  2  0  0  0  0
  3 10  1  0  0  0  0
  4 11  1  0  0  0  0
  5  7  1  0  0  0  0
  5  8  2  0  0  0  0
  6 10  2  0  0  0  0
  6 18  1  0  0  0  0
  7  9  2  0  0  0  0
  7 16  1  0  0  0  0
  8 21  1  0  0  0  0
  9 24  1  0  0  0  0
 10 25  1  0  0  0  0
 11 13  1  0  0  0  0
 11 18  2  0  0  0  0
 12 19  2  0  0  0  0
 12 20  1  0  0  0  0
 12 23  1  0  0  0  0
 13 21  1  0  0  0  0
 13 22  2  0  0  0  0
 14 15  1  0  0  0  0
 14 16  1  0  0  0  0
 15 23  1  0  0  0  0
 16 17  1  0  0  0  0
 16 19  1  0  0  0  0
  1 26  1  0  0  0  0
  2 27  1  0  0  0  0
  3 28  1  0  0  0  0
  4 29  1  0  0  0  0
  5 30  1  0  0  0  0
  6 31  1  0  0  0  0
 14 32  1  0  0  0  0
 14 33  1  0  0  0  0
 15 34  1  0  0  0  0
 15 35  1  0  0  0  0
 17 36  1  0  0  0  0
 17 37  1  0  0  0  0
 17 38  1  0  0  0  0
 19 39  1  0  0  0  0
 20 40  1  0  0  0  0
 20 41  1  0  0  0  0
 21 42  1  0  0  0  0
M  CHG  1  19   1
M  END
> <OMEGA_C>
7oi3QBJdY78sk7DBXIDOQLInlL3XpLfBJoAzQJaXoMB8KYzBu69tQC10j8Aak5PB86KsQCjugj/C
xqTB6n/rP0VKM8ATUorBgfLDQP3A7j9K0qvBUxKnQGWKs75c+qbBzgnVQFgCpT99YLXBGWztP5hB
hcA5fIfBrotpQBCHRsBpHJbBie/VQNZ5pkA+/rXBEI6SQI0dIMAD753BDZabQAUpgEC5+KfBJnie
QJ8OsUBRC6nBW/fIQKOPV0D/4qjB95ThQPbGX0CKIp7Bcx0uQLL+EsDodZHBRi/jQI0YhED337DB
0/3tQMlQtUCBi77Bh8GPQK5Mj7/SqZ/BNxiuQLOdTMD2MKLB5DKxQO9GvECZQ7PBY4PrQLwOAEBb
qbzBu3kzP8/9mMA4f3zBA2qyQEj/9r/hd7LBeFbbQE0M/b7X677BynE1QM0iwsC2GIrB4IqOQLG0
o8D1TZfBx+OeQCd8uD80l53B2QGOP2xVCcALt4bB7bKNQDMXcEDdJKDBzAqHQHfjZkAJX67BUVl8
QAzivkBIfajBN4eyQGDgvUDSj6LBvSHlQBnpkUAgD5zBvqDPQLLZPkBSyJfBV7UAQU50QkAp857B
dV4AQTgCc0CsbLLBa4zkQJhKz0Clk8LBIWQEQZQKpkAkrsDBgEB1QKQHIL8fJJvB

> <OMEGA_E>
ACBMPw==

> <OMEGA_NBR>
    137064

$$$$
294873
  -OEChem-04172616093D

 43 45  0     1  0  0  0  0  0999 V2000
    1.1092   -4.5966  -15.8143 C   0  0  0  0  0  0  0  0  0  0  0  0
    1.7663   -2.7678  -17.2798 C   0  0  0  0  0  0  0  0  0  0  0  0
    6.1035   -0.8623  -21.9041 C   0  0  0  0  0  0  0  0  0  0  0  0
    6.8465    0.0493  -22.6669 C   0  0  0  0  0  0  0  0  0  0  0  0
    2.6241   -2.2678  -18.2584 C   0  0  0  0  0  0  0  0  0  0  0  0
    4.9821    0.9996  -20.8056 C   0  0  0  0  0  0  0  0  0  0  0  0
    3.1028   -4.7988  -17.2559 C   0  0  0  0  0  0  0  0  0  0  0  0
    2.0033   -4.0523  -16.7787 C   0  0  0  0  0  0  0  0  0  0  0  0
    5.7106    1.9370  -21.5794 C   0  0  0  0  0  0  0  0  0  0  0  0
    5.1821   -0.3830  -20.9504 C   0  0  0  0  0  0  0  0  0  0  0  0
    6.6688    1.4361  -22.5029 C   0  0  0  0  0  0  0  0  0  0  0  0
    3.7041   -3.0640  -18.7221 C   0  0  0  0  0  0  0  0  0  0  0  0
    4.3859    3.9106  -19.2217 C   0  0  0  0  0  0  0  0  0  0  0  0
    4.5875   -2.5326  -19.7743 C   0  0  0  0  0  0  0  0  0  0  0  0
    6.7072    4.1606  -20.7620 C   0  0  0  0  0  0  0  0  0  0  0  0
    6.8035    3.7608  -19.2835 C   0  0  0  0  0  0  0  0  0  0  0  0
    5.4770    3.4618  -21.3924 C   0  0  1  0  0  0  0  0  0  0  0  0
    5.1396    4.1374  -22.7422 C   0  0  0  0  0  0  0  0  0  0  0  0
    0.3576   -5.0241  -15.0333 N   0  0  0  0  0  0  0  0  0  0  0  0
    3.9272   -4.3027  -18.2091 N   0  0  0  0  0  0  0  0  0  0  0  0
    4.2957    3.7106  -20.5195 N   0  3  0  0  0  0  0  0  0  0  0  0
    3.2055    3.9732  -18.4976 N   0  0  0  0  0  0  0  0  0  0  0  0
    4.4186   -1.1939  -20.1192 N   0  0  0  0  0  0  0  0  0  0  0  0
    5.4627   -3.2437  -20.2560 O   0  0  0  0  0  0  0  0  0  0  0  0
    5.5876    4.0999  -18.5588 O   0  0  0  0  0  0  0  0  0  0  0  0
    7.4330    2.2632  -23.2486 F   0  0  0  0  0  0  0  0  0  0  0  0
    0.9382   -2.1772  -16.9169 H   0  0  0  0  0  0  0  0  0  0  0  0
    6.2360   -1.9247  -22.0460 H   0  0  0  0  0  0  0  0  0  0  0  0
    7.5627   -0.3160  -23.3880 H   0  0  0  0  0  0  0  0  0  0  0  0
    2.4675   -1.2785  -18.6623 H   0  0  0  0  0  0  0  0  0  0  0  0
    4.2572    1.3562  -20.0888 H   0  0  0  0  0  0  0  0  0  0  0  0
    3.2899   -5.7833  -16.8534 H   0  0  0  0  0  0  0  0  0  0  0  0
    6.5935    5.2517  -20.8427 H   0  0  0  0  0  0  0  0  0  0  0  0
    7.6203    3.8471  -21.2894 H   0  0  0  0  0  0  0  0  0  0  0  0
    6.9684    2.6753  -19.2168 H   0  0  0  0  0  0  0  0  0  0  0  0
    7.6521    4.2895  -18.8249 H   0  0  0  0  0  0  0  0  0  0  0  0
    4.9789    5.2140  -22.5839 H   0  0  0  0  0  0  0  0  0  0  0  0
    5.9736    3.9905  -23.4442 H   0  0  0  0  0  0  0  0  0  0  0  0
    4.2261    3.6878  -23.1588 H   0  0  0  0  0  0  0  0  0  0  0  0
    3.3888    3.7265  -20.9407 H   0  0  0  0  0  0  0  0  0  0  0  0
    3.2311    4.1525  -17.5142 H   0  0  0  0  0  0  0  0  0  0  0  0
    2.3283    3.8392  -18.9587 H   0  0  0  0  0  0  0  0  0  0  0  0
    3.6257   -0.7472  -19.7047 H   0  0  0  0  0  0  0  0  0  0  0  0
  1  8  1  0  0  0  0
  1 19  3  0  0  0  0
  2  5  2  0  0  0  0
  2  8  1  0  0  0  0
  3  4  2  0  0  0  0
  3 10  1  0  0  0  0
  4 11  1  0  0  0  0
  5 12  1  0  0  0  0
  6  9  1  0  0  0  0
  6 10  2  0  0  0  0
  7  8  2  0  0  0  0
  7 20  1  0  0  0  0
  9 11  2  0  0  0  0
  9 17  1  0  0  0  0
 10 23  1  0  0  0  0
 11 26  1  0  0  0  0
 12 14  1  0  0  0  0
 12 20  2  0  0  0  0
 13 21  2  0  0  0  0
 13 22  1  0  0  0  0
 13 25  1  0  0  0  0
 14 23  1  0  0  0  0
 14 24  2  0  0  0  0
 15 16  1  0  0  0  0
 15 17  1  0  0  0  0
 16 25  1  0  0  0  0
 17 18  1  0  0  0  0
 17 21  1  0  0  0  0
  2 27  1  0  0  0  0
  3 28  1  0  0  0  0
  4 29  1  0  0  0  0
  5 30  1  0  0  0  0
  6 31  1  0  0  0  0
  7 32  1  0  0  0  0
 15 33  1  0  0  0  0
 15 34  1  0  0  0  0
 16 35  1  0  0  0  0
 16 36  1  0  0  0  0
 18 37  1  0  0  0  0
 18 38  1  0  0  0  0
 18 39  1  0  0  0  0
 21 40  1  0  0  0  0
 22 41  1  0  0  0  0
 22 42  1  0  0  0  0
 23 43  1  0  0  0  0
M  CHG  1  21   1
M  END
> <OMEGA_C>
RvmNP/cWk8B6B33BuhfiPz4jMcAKPYrBLlDDQI/AXL+wO6/BmBbbQJAZSj3cVbXBCfEnQJ0jEcBL
EZLBnW2fQLjkfz/vcabBFZVGQGGPmcASDIrBADYAQIesgcDMOobBaL22QMzw9z+aoqzBXdOlQGIZ
xL5nmqfB7WbVQMTQtz/aBbTBXw9tQC0YRMDVxpXBRlmMQHdGekAdxpnB2cySQNwWIsDeMZ7BeqHW
QJsjhUCqGKbBM7bZQJSxcECqRJrB7EOvQNGNXUC0I6vBWHekQEtlhED077XBPha3PmjFoMB/iHDB
eVd7QGevicBKrJHBJnaJQD56bUD6J6TBkyZNQItJfkAp+5PBhWWNQEDRmL8d9KDBVM6uQIWYT8A4
DKLBO82yQCcyg0B+eJTBctvtQKfYEEAK/bnBrCpwPzlXC8DLVYfBII3HQMpd9r8mXrDB2QHyQJvM
ob6fGrvBPewdQCalo799TJXBZDuIQFuXrT/ztaDB1I1SQPUQucCt04bBxP3SQBkOqEDvvabBJNnz
QDE3dkClUKrBWP3eQH44K0ABvJnB8N30QNJDiUBXmZbBY1OfQBDZpkDBq7TBpye/QOtkf0C3jbvB
iDyHQJkFbEAzRbnBXeJYQE1+bkB5hqfBZcpOQJjhhEAIHYzBRQMVQNC0dUCEq5fB1AtoQKFKP79M
o53BJuNoPzoilcCdyn/BfYAzQI2GoMD8J4zBjni3QJ5xY78ilrDB72XOQB8rlL0CqbfB8qptQFJs
j8BYk5PBG56sQBvagj8ByKTBI9DrP1j+MsBgUorB5oHtP9wdhcAHeYfBOOfDQJGy7j8H1KvBngyn
QAzDs74F/KbBafTUQLz9pD/AY7XBn5ppQJV7RsBSHZbBe9rVQGtypkACALbB5ZGSQPUfIMB08J3B
8o2bQKglgEC+9qfBpW+eQPIKsUBQCqnBCu7IQKGFV0DY46jBx5PhQHexX0COJJ7BIyELPowLosAd
bHPBK0UuQNnbEsCJd5HBVSDjQIkUhEB14bDBuOLtQCpHtUB0jr7BQ8WPQOhUj787qp/BxBeuQPuj
TMB9M6LBGx+xQMY+vEASRLPBVmfrQKIPAECXrbzBfmI1QD4RwsB0ForBJVmyQLAJ97+5erLBhjDb
QIrV/L6t8b7BEICOQP+zo8AcT5fBPuSeQMNfuD+Sl53BL3iOP8DvCMAsuIbBW7ONQBcVcEDKIaDB
TPuGQFvaZkBsW67BM0p8QEzfvkBKeqjBQYayQETevUB4kKLBkSLlQEPdkUA+EJzBR6TPQDy+PkD9
yZfBWLQAQeBeQkAt957BhlcAQY0Bc0B1brLBLm7kQJQ/z0CylsLBCVYEQdkApkDlscDB/FV1QLQW
IL+GIpvB

> <OMEGA_E>
5KHuPjoNVj8=

> <OMEGA_NBR>
    138853

$$$$
50225185
  -OEChem-04172616093D

 42 44  0     1  0  0  0  0  0999 V2000
    6.0643   -0.8428  -21.8939 C   0  0  0  0  0  0  0  0  0  0  0  0
    6.7721    0.0517  -22.7078 C   0  0  0  0  0  0  0  0  0  0  0  0
    3.0915   -4.8933  -17.2056 C   0  0  0  0  0  0  0  0  0  0  0  0
    3.9277   -4.3862  -18.2112 C   0  0  0  0  0  0  0  0  0  0  0  0
    4.9823    1.0387  -20.7941 C   0  0  0  0  0  0  0  0  0  0  0  0
    1.8099   -2.8343  -17.3295 C   0  0  0  0  0  0  0  0  0  0  0  0
    5.6862    1.9653  -21.6130 C   0  0  0  0  0  0  0  0  0  0  0  0
    5.1657   -0.3509  -20.9214 C   0  0  0  0  0  0  0  0  0  0  0  0
    2.0196   -4.1050  -16.7586 C   0  0  0  0  0  0  0  0  0  0  0  0
    6.5880    1.4398  -22.5819 C   0  0  0  0  0  0  0  0  0  0  0  0
    3.6740   -3.0971  -18.7431 C   0  0  0  0  0  0  0  0  0  0  0  0
    4.4136    3.9103  -19.2398 C   0  0  0  0  0  0  0  0  0  0  0  0
    4.5733   -2.5139  -19.7597 C   0  0  0  0  0  0  0  0  0  0  0  0
    6.8337    3.7686  -19.3470 C   0  0  0  0  0  0  0  0  0  0  0  0
    5.4690    3.5038  -21.4375 C   0  0  1  0  0  0  0  0  0  0  0  0
    6.7033    4.2323  -20.8084 C   0  0  0  0  0  0  0  0  0  0  0  0
    5.0886    4.1587  -22.7918 C   0  0  0  0  0  0  0  0  0  0  0  0
    2.6255   -2.3544  -18.2962 N   0  0  0  0  0  0  0  0  0  0  0  0
    4.3025    3.7525  -20.5430 N   0  3  0  0  0  0  0  0  0  0  0  0
    3.2445    3.9617  -18.4978 N   0  0  0  0  0  0  0  0  0  0  0  0
    4.3975   -1.1647  -20.0787 N   0  0  0  0  0  0  0  0  0  0  0  0
    5.4991   -3.1821  -20.2067 O   0  0  0  0  0  0  0  0  0  0  0  0
    5.6265    4.0502  -18.5828 O   0  0  0  0  0  0  0  0  0  0  0  0
    1.1973   -4.5598  -15.7875 F   0  0  0  0  0  0  0  0  0  0  0  0
    7.2772    2.2385  -23.4258 F   0  0  0  0  0  0  0  0  0  0  0  0
    7.8597    3.9643  -21.4662 F   0  0  0  0  0  0  0  0  0  0  0  0
    6.5218    5.5849  -20.8292 F   0  0  0  0  0  0  0  0  0  0  0  0
    6.2058   -1.9072  -22.0099 H   0  0  0  0  0  0  0  0  0  0  0  0
    7.4674   -0.3299  -23.4409 H   0  0  0  0  0  0  0  0  0  0  0  0
    3.2690   -5.8714  -16.7835 H   0  0  0  0  0  0  0  0  0  0  0  0
    4.7574   -4.9728  -18.5770 H   0  0  0  0  0  0  0  0  0  0  0  0
    4.2887    1.4117  -20.0551 H   0  0  0  0  0  0  0  0  0  0  0  0
    0.9814   -2.2311  -16.9887 H   0  0  0  0  0  0  0  0  0  0  0  0
    7.0201    2.6846  -19.3323 H   0  0  0  0  0  0  0  0  0  0  0  0
    7.6811    4.2927  -18.8809 H   0  0  0  0  0  0  0  0  0  0  0  0
    4.9401    5.2392  -22.6483 H   0  0  0  0  0  0  0  0  0  0  0  0
    5.8973    3.9933  -23.5189 H   0  0  0  0  0  0  0  0  0  0  0  0
    4.1587    3.7078  -23.1687 H   0  0  0  0  0  0  0  0  0  0  0  0
    3.3914    3.8018  -20.9521 H   0  0  0  0  0  0  0  0  0  0  0  0
    3.2861    4.0975  -17.5079 H   0  0  0  0  0  0  0  0  0  0  0  0
    2.3592    3.8629  -18.9522 H   0  0  0  0  0  0  0  0  0  0  0  0
    3.6147   -0.7182  -19.6453 H   0  0  0  0  0  0  0  0  0  0  0  0
  1  2  2  0  0  0  0
  1  8  1  0  0  0  0
  2 10  1  0  0  0  0
  3  4  2  0  0  0  0
  3  9  1  0  0  0  0
  4 11  1  0  0  0  0
  5  7  1  0  0  0  0
  5  8  2  0  0  0  0
  6  9  2  0  0  0  0
  6 18  1  0  0  0  0
  7 10  2  0  0  0  0
  7 15  1  0  0  0  0
  8 21  1  0  0  0  0
  9 24  1  0  0  0  0
 10 25  1  0  0  0  0
 11 13  1  0  0  0  0
 11 18  2  0  0  0  0
 12 19  2  0  0  0  0
 12 20  1  0  0  0  0
 12 23  1  0  0  0  0
 13 21  1  0  0  0  0
 13 22  2  0  0  0  0
 14 16  1  0  0  0  0
 14 23  1  0  0  0  0
 15 16  1  0  0  0  0
 15 17  1  0  0  0  0
 15 19  1  0  0  0  0
 16 26  1  0  0  0  0
 16 27  1  0  0  0  0
  1 28  1  0  0  0  0
  2 29  1  0  0  0  0
  3 30  1  0  0  0  0
  4 31  1  0  0  0  0
  5 32  1  0  0  0  0
  6 33  1  0  0  0  0
 14 34  1  0  0  0  0
 14 35  1  0  0  0  0
 17 36  1  0  0  0  0
 17 37  1  0  0  0  0
 17 38  1  0  0  0  0
 19 39  1  0  0  0  0
 20 40  1  0  0  0  0
 20 41  1  0  0  0  0
 21 42  1  0  0  0  0
M  CHG  1  19   1
M  END
> <OMEGA_C>
DQ/CQLHEV7+oJq/BvrTYQP+0Uz2kqbXBx9pFQJSVnMAopYnB7F57QKhbjMCOsJHB4W6fQKPyhD9Z
WqbB6qvnP79kNcDroorBhPW1QKaP+z9q56zBNE2lQGGjs74RX6fB9UABQOpbg8CEEYbB99DSQGVM
uD/Dp7TBfyNrQCc2RsDW8ZXBLjyNQLFBekAH65nBgFiSQLHjIMDPE57Bhq3aQDgwcUC2xprByAGv
QFs+YEAPgKvBlIHWQF9vh0CKd6bB2NWiQEEUhUCaVbbBgQcoQPWuFsCQXpLBEK6JQCcocED4V6TB
fKZPQP+LfUCB+5PBP7iMQKgTlb80oaDB+/ivQHWnS8BXp6HBngy0QF2bgUB/qZTBHUGZP4TpkcBp
mXzBfN7oQMtDD0AgaLvBRoL7QIW3fUCxuqvBvbLQQEi3skAuoqbB+JXGQDAg9L9QFLDB/fTuQGHk
qL7dhrvBujZRQFXiu8CqRIbBvjyYQG8hn8CbnZTBzTyJQDyxtD/PcKDB3j57P/TKDsDI6IfBk6Tg
QBzQK0ChqJrBWsv1QK9diUAvDJfBbRWeQEGnp0C5L7XBc7a8QIWRf0C1JrzBWhSFQLpMbUBmWbnB
/QtZQHhRc0DanafB5U9SQNweg0BHEIzBYv0WQC46d0AQnpfB9lZnQMLZN7+PKZ3BxXnAQKLsaL+k
xK/B40/XQGBAJbyUObbBv3JBQJHwnMAk/onBNMR4QATojMBt3JHBLuSdQGKPdj+B46bBEtnmP/uR
M8DaxIrB7oi0QDWz8T+IVq3BNs6jQIz31b6g+KfBxAf8Pzf7gsABZYbBX8PRQDJ2sD9BC7XBWWRr
QPlKRsAX65XBFEOMQGhqgkAnBprBDNCSQM8uIsA7B57B147SQC7QnkD8zpzB23KyQCkjWUAYi6rB
0xLcQF5ocUBKI6TBLMCrQPmJiUD+iLTBQmApQJg9FcBgU5LBfy+LQDZIakDi/qPBf/9OQDZifECp
6JPBJo2LQIT3m7+RJqHB3qmxQE+fS8D0LaHBqH2wQA+yk0AnbpXBcg6QP7lNkcA3gH3B9d/pQBt6
DED9MLvBIXzpQKw+L0Cc0p3B+qn8QJZEg0Bp2arB5s/EQN6w/L82wrDBnVrtQAU+xr4MKLzBMItK
QH2qvMCxwobB34aWQAQ4oMASzJTBPomHQEh8qj9E/6DBjOp8P1LiC8AHCYjBhonvQC0gp0AcRJjB
B5/IQIxiukC9rqHB34qqQAZEq0C4CLLBL3fGQNjphEC7JbrBg4KNQGXngEDafLjBiTZdQNUBYUAa
Z6fBpOlOQOSeh0CVQ4zB1AoaQI5uY0BnJJfBFMRiQML0Sb8hFp7B3o7AQLpjXL8uf6/BLDvXQIhb
Ez2a+7XBExXeP/N0NsD2K4rBdeEjQGhrFcAjNZLBzyOfQG7Rgj+3Z6bB4SFHQLo8m8ARM4rBhNC1
QBO5+T8S5KzB/ZGkQHEyvL4TlKfBOBcBQBH4g8BTFYbBXDvSQOR9tj9Mv7TBGi5qQMZqRsAp/ZXB
EbuMQHLTeEBDyJnBbzOSQOJqIcC/Fp7BrwTaQH+wbEBJO5rBCMOvQGFhX0DVPqvBiGvXQOylhUCE
6KXBuPmkQM/ohUDiBLbBCPR5QNnjisBk+pHBN/KJQJaLb0D/PKTBU9xNQAFNfECjAJTBxiqMQPU/
l78p3aDBBHOwQAHeS8CbZqHBCSezQFd+gEAeWJTByeeeP/irlMCbj3zBrfroQFCNDkC6U7vBWKP8
QGkHeEDO9arBbf/SQDEasUBnA6bBa4HEQIF59r8Uj7DBgtDsQN1OsL6AAbzBh91lP7znEcAbL4fB
gT4XQPa2rb8chpXBEzCJQH41sj/ibKDBz4lUQBHEusA6FYfBws7eQJPyJkAqJZrBAFH1QOwXhkDU
T5bBpNmgQEd2qEBksbTBujy/QMmZgED2ubvBnjGHQEXPcECnRrnBgCBaQCGIc0BqpafB/YBPQK5G
gkBpEozBVakVQJSOdkAew5fBqE9lQBrSPb8Oj53BAMC/QDaddL9g1q/BAWTWQIADSL3MQrbB+pnc
P7zxOsA/horBynYjQEpoGsAYi5LBtpGdQAvoaD9ZuKbBDmpFQADUncCOiIrBvS20QFG66z9pHa3B
THujQBJB8b4w8qfByMj/P+ExhsBpaIbBIBbRQDZOqz/r67TBFqxpQD/gS8BbRpbBbxKMQAsphEC+
CJrBIZCSQI6tJsAuMJ7B83bSQGWrn0BDTp3B5MqxQN4+VkAHXarBvpHbQKAScED5IqTBCzCqQOmI
h0BFarTBkpd4QBO4jcD5TJLB9+KKQMf7ZkCyrqPBFU1OQC+cgkBN55PB9WmLQIVYpL8qO6HBwE+y
QEnzTsBsA6HBjm2wQCd/lkAFw5XB6RudP8VxlsA2C33Bzf3oQE4yCkDqErvBdpXoQDoeMEDHbp3B
ZUH8QMABgUBo9qrBfPLDQOgzAcAZ7rDBkxvsQImR1r5LS7zBSlNjP3QSFsCjkYfB8jcXQA7Bt79N
5JXBYU+HQFatoj+RxqDBkxpSQOlzvcBJbofB05XvQFSoqED75pjBorTIQNtEukAJh6LBesOoQJNd
qUDBArLBP53EQBTsgkDaHLrBa8+LQHbGfEBOOrjBGZ1cQMzjV0Arv6bBujdOQLKtjkCIfozB0xoZ
QKjYakCs45bBlGhiQJ0QXL9ZJJ7B

> <OMEGA_E>
KEp6PuhalT6QUcg+pJ3nPg==

> <OMEGA_NBR>
    142137

$$$$
50225187
  -OEChem-04172616093D

 43 45  0     1  0  0  0  0  0999 V2000
    1.1264   -4.5895  -15.7801 C   0  0  0  0  0  0  0  0  0  0  0  0
    1.7343   -2.8138  -17.3279 C   0  0  0  0  0  0  0  0  0  0  0  0
    6.0411   -0.9310  -21.9664 C   0  0  0  0  0  0  0  0  0  0  0  0
    6.7634   -0.0219  -22.7510 C   0  0  0  0  0  0  0  0  0  0  0  0
    2.5871   -2.3285  -18.3171 C   0  0  0  0  0  0  0  0  0  0  0  0
    4.9192    0.9311  -20.8692 C   0  0  0  0  0  0  0  0  0  0  0  0
    3.0912   -4.8297  -17.2571 C   0  0  0  0  0  0  0  0  0  0  0  0
    1.9899   -4.0791  -16.7899 C   0  0  0  0  0  0  0  0  0  0  0  0
    5.6372    1.8647  -21.6527 C   0  0  0  0  0  0  0  0  0  0  0  0
    5.1280   -0.4489  -21.0072 C   0  0  0  0  0  0  0  0  0  0  0  0
    6.5842    1.3638  -22.5894 C   0  0  0  0  0  0  0  0  0  0  0  0
    3.6840   -3.1180  -18.7529 C   0  0  0  0  0  0  0  0  0  0  0  0
    4.3820    4.0304  -19.2138 C   0  0  0  0  0  0  0  0  0  0  0  0
    4.5943   -2.5763  -19.7762 C   0  0  0  0  0  0  0  0  0  0  0  0
    6.8829    3.6493  -20.4799 C   0  0  0  0  0  0  0  0  0  0  0  0
    6.6620    4.7332  -19.4229 C   0  0  0  0  0  0  0  0  0  0  0  0
    5.5790    3.3632  -21.2861 C   0  0  1  0  0  0  0  0  0  0  0  0
    5.4652    4.2905  -22.5342 C   0  0  0  0  0  0  0  0  0  0  0  0
    0.4040   -4.9858  -14.9563 N   0  0  0  0  0  0  0  0  0  0  0  0
    3.9126   -4.3470  -18.2201 N   0  0  0  0  0  0  0  0  0  0  0  0
    4.3527    3.6531  -20.4713 N   0  3  0  0  0  0  0  0  0  0  0  0
    3.1889    4.0370  -18.5078 N   0  0  0  0  0  0  0  0  0  0  0  0
    4.3788   -1.2587  -20.1674 N   0  0  0  0  0  0  0  0  0  0  0  0
    5.5400   -3.2464  -20.1770 O   0  0  0  0  0  0  0  0  0  0  0  0
    5.5470    4.3831  -18.5668 O   0  0  0  0  0  0  0  0  0  0  0  0
    7.3797    2.1860  -23.3068 F   0  0  0  0  0  0  0  0  0  0  0  0
    5.5150    5.5982  -22.1690 F   0  0  0  0  0  0  0  0  0  0  0  0
    4.2873    4.0639  -23.1778 F   0  0  0  0  0  0  0  0  0  0  0  0
    0.8955   -2.2265  -16.9847 H   0  0  0  0  0  0  0  0  0  0  0  0
    6.1831   -1.9938  -22.0958 H   0  0  0  0  0  0  0  0  0  0  0  0
    7.4641   -0.3886  -23.4865 H   0  0  0  0  0  0  0  0  0  0  0  0
    2.4143   -1.3548  -18.7512 H   0  0  0  0  0  0  0  0  0  0  0  0
    4.1961    1.2879  -20.1507 H   0  0  0  0  0  0  0  0  0  0  0  0
    3.2821   -5.8069  -16.8388 H   0  0  0  0  0  0  0  0  0  0  0  0
    7.6672    3.9828  -21.1753 H   0  0  0  0  0  0  0  0  0  0  0  0
    7.2050    2.7235  -19.9807 H   0  0  0  0  0  0  0  0  0  0  0  0
    7.5708    4.8339  -18.8115 H   0  0  0  0  0  0  0  0  0  0  0  0
    6.4487    5.6894  -19.9231 H   0  0  0  0  0  0  0  0  0  0  0  0
    6.3089    4.0523  -23.1986 H   0  0  0  0  0  0  0  0  0  0  0  0
    3.4606    3.5530  -20.9119 H   0  0  0  0  0  0  0  0  0  0  0  0
    3.1809    4.2954  -17.5418 H   0  0  0  0  0  0  0  0  0  0  0  0
    2.3362    3.7833  -18.9645 H   0  0  0  0  0  0  0  0  0  0  0  0
    3.5597   -0.8310  -19.7851 H   0  0  0  0  0  0  0  0  0  0  0  0
  1  8  1  0  0  0  0
  1 19  3  0  0  0  0
  2  5  2  0  0  0  0
  2  8  1  0  0  0  0
  3  4  1  0  0  0  0
  3 10  2  0  0  0  0
  4 11  2  0  0  0  0
  5 12  1  0  0  0  0
  6  9  2  0  0  0  0
  6 10  1  0  0  0  0
  7  8  2  0  0  0  0
  7 20  1  0  0  0  0
  9 11  1  0  0  0  0
  9 17  1  0  0  0  0
 10 23  1  0  0  0  0
 11 26  1  0  0  0  0
 12 14  1  0  0  0  0
 12 20  2  0  0  0  0
 13 21  2  0  0  0  0
 13 22  1  0  0  0  0
 13 25  1  0  0  0  0
 14 23  1  0  0  0  0
 14 24  2  0  0  0  0
 15 16  1  0  0  0  0
 15 17  1  0  0  0  0
 16 25  1  0  0  0  0
 17 18  1  0  0  0  0
 17 21  1  0  0  0  0
 18 27  1  0  0  0  0
 18 28  1  0  0  0  0
  2 29  1  0  0  0  0
  3 30  1  0  0  0  0
  4 31  1  0  0  0  0
  5 32  1  0  0  0  0
  6 33  1  0  0  0  0
  7 34  1  0  0  0  0
 15 35  1  0  0  0  0
 15 36  1  0  0  0  0
 16 37  1  0  0  0  0
 16 38  1  0  0  0  0
 18 39  1  0  0  0  0
 21 40  1  0  0  0  0
 22 41  1  0  0  0  0
 22 42  1  0  0  0  0
 23 43  1  0  0  0  0
M  CHG  1  21   1
M  END
> <OMEGA_C>
ji6QP2fdksBae3zB9v7dP1YVNMCjn4rBeFDBQJRWbr8bu6/B823YQJB+s7wJArbBnZIlQNkFFcB9
iZLBA2qdQLhabj8Y9KbBpNZFQAeNmsCYDorBQrX+PxuIgsDAUYbBn2O0QJyt7j+8OK3BwBikQN/T
5b6pDqjBubHSQL+Rrj8gt7TBpMZrQC+NR8DbBZbBFTmMQMD4gEDbtZnBHgSTQMXiJMCWNZ7B0UDc
QLKOaUDa1qPB+y7VQFB2l0AEYpvB5YayQLE+V0DuSarBqeKuQChMiUAPRrTB/tXOPoyLn8AoTW/B
bmh6QI4ai8CywpHBPkmLQNXLaUBDxaPBdhZMQM4ugUDzD5TBIB+MQOQbob/RVqHB40exQHnFT8CO
aqHBCIGxQGRCjEC7iJTBqSbsQCPnC0BbdLrBn3qwQFgks0ASWrHBhjGJQCMLgkARbLnBiT9lP2V/
DsCT4IfB/9vFQNcz/79KxLDBIdruQEj8xr5I5LvBR4QaQKxorb93ApbBdkaGQCbapD+nNKHBSw5S
QHjSucDjtYbB3Vn1QNvmfkAcZ6nB/Y7mQG9OLkCE2J/BX0TyQLevmkDafZbB8FvOQFcPtkCBYp/B
VeLJQCisgUCrlrnB5XldQOZkY0COS6fBgJRLQK1ziUCTVYzBU4QVQNohckBet5fBH9JjQOm6VL/Z
R57B

> <OMEGA_E>
WIzsPg==

> <OMEGA_NBR>
    143163

$$$$
278155
  -OEChem-04172616093D

 34 36  0     1  0  0  0  0  0999 V2000
    4.5657    0.6418  -20.5045 C   0  0  0  0  0  0  0  0  0  0  0  0
    4.6390   -0.7597  -20.5553 C   0  0  0  0  0  0  0  0  0  0  0  0
    6.6270   -0.6098  -21.9475 C   0  0  0  0  0  0  0  0  0  0  0  0
    5.5314    1.4490  -21.1684 C   0  0  0  0  0  0  0  0  0  0  0  0
    5.6714   -1.3853  -21.2716 C   0  0  0  0  0  0  0  0  0  0  0  0
    6.5646    0.7949  -21.9057 C   0  0  0  0  0  0  0  0  0  0  0  0
    4.2006    3.5524  -18.9962 C   0  0  0  0  0  0  0  0  0  0  0  0
    6.7407    5.1753  -20.6347 C   0  0  0  0  0  0  0  0  0  0  0  0
    6.4301    5.5810  -22.0866 C   0  0  0  0  0  0  0  0  0  0  0  0
    5.1989    3.5527  -22.5251 C   0  0  0  0  0  0  0  0  0  0  0  0
    7.0025    3.1589  -19.0686 C   0  0  0  0  0  0  0  0  0  0  0  0
    6.7571    3.6303  -20.5124 C   0  0  1  0  0  0  0  0  0  0  0  0
    5.4467    2.9971  -21.0945 C   0  0  2  0  0  0  0  0  0  0  0  0
    4.2523    3.4423  -20.3061 N   0  3  0  0  0  0  0  0  0  0  0  0
    2.9499    3.6524  -18.4086 N   0  0  0  0  0  0  0  0  0  0  0  0
    5.1794    4.9948  -22.5072 O   0  0  0  0  0  0  0  0  0  0  0  0
    5.7462   -2.7336  -21.3115 F   0  0  0  0  0  0  0  0  0  0  0  0
    7.5043    1.4825  -22.5961 F   0  0  0  0  0  0  0  0  0  0  0  0
    5.6258    3.6299  -17.9531 S   0  0  0  0  0  0  0  0  0  0  0  0
    3.7652    1.1136  -19.9539 H   0  0  0  0  0  0  0  0  0  0  0  0
    3.8997   -1.3572  -20.0425 H   0  0  0  0  0  0  0  0  0  0  0  0
    7.4155   -1.0952  -22.5034 H   0  0  0  0  0  0  0  0  0  0  0  0
    7.7243    5.5747  -20.3466 H   0  0  0  0  0  0  0  0  0  0  0  0
    5.9684    5.5860  -19.9678 H   0  0  0  0  0  0  0  0  0  0  0  0
    6.3585    6.6768  -22.1511 H   0  0  0  0  0  0  0  0  0  0  0  0
    7.2376    5.2270  -22.7443 H   0  0  0  0  0  0  0  0  0  0  0  0
    6.0035    3.2092  -23.1919 H   0  0  0  0  0  0  0  0  0  0  0  0
    4.2320    3.1816  -22.8957 H   0  0  0  0  0  0  0  0  0  0  0  0
    7.1049    2.0637  -19.0646 H   0  0  0  0  0  0  0  0  0  0  0  0
    7.9323    3.6155  -18.6985 H   0  0  0  0  0  0  0  0  0  0  0  0
    7.5934    3.2628  -21.1253 H   0  0  0  0  0  0  0  0  0  0  0  0
    3.4257    3.6751  -20.8186 H   0  0  0  0  0  0  0  0  0  0  0  0
    2.8703    3.7652  -17.4182 H   0  0  0  0  0  0  0  0  0  0  0  0
    2.1267    3.6117  -18.9750 H   0  0  0  0  0  0  0  0  0  0  0  0
  1  2  1  0  0  0  0
  1  4  2  0  0  0  0
  2  5  2  0  0  0  0
  3  5  1  0  0  0  0
  3  6  2  0  0  0  0
  4  6  1  0  0  0  0
  4 13  1  0  0  0  0
  5 17  1  0  0  0  0
  6 18  1  0  0  0  0
  7 14  2  0  0  0  0
  7 15  1  0  0  0  0
  7 19  1  0  0  0  0
  8  9  1  0  0  0  0
  8 12  1  0  0  0  0
  9 16  1  0  0  0  0
 10 13  1  0  0  0  0
 10 16  1  0  0  0  0
 11 12  1  0  0  0  0
 11 19  1  0  0  0  0
 12 13  1  0  0  0  0
 13 14  1  0  0  0  0
  1 20  1  0  0  0  0
  2 21  1  0  0  0  0
  3 22  1  0  0  0  0
  8 23  1  0  0  0  0
  8 24  1  0  0  0  0
  9 25  1  0  0  0  0
  9 26  1  0  0  0  0
 10 27  1  0  0  0  0
 10 28  1  0  0  0  0
 11 29  1  0  0  0  0
 11 30  1  0  0  0  0
 12 31  1  0  0  0  0
 14 32  1  0  0  0  0
 15 33  1  0  0  0  0
 15 34  1  0  0  0  0
M  CHG  1  14   1
M  END
> <OMEGA_C>
4RmSQJpOJD80CaTBUHKUQHR+Qr9HcaTBKBDUQCgbHL9olK/B7gCxQB94uT/ZWKnBKHy1QO1Ssb8u
LKrBKxHSQAZ8Sz/2Pq/BImuGQCxbY0A8+JfBv7PXQLmbpUD2E6XBQcPNQOuXskBdsbDBZV2mQOBf
Y0BnM7TBQBTgQLIrSkCNjJjBUzrYQMRWaEBbGaTBhkuuQATRP0CNwajBrhKIQBxPXED+cqLBYco8
QL7AaUDjRJPB9r2lQMnVn0CyDrTBe+C3QLzyLsDwfarBhiPwQFfCvT/jxLTBrQa0QIBPaED0n4/B
kflwQNuJjj+SoZ/BcJV5QMy4rb/3VqDB2EvtQIEujL/gBrTBLy33QOZjskDRxaLBMP2+QLzAskAD
vp/BB3nLQISo1UBdNbHBRprnQK5Dp0Bl9LXBmxzAQMVjTUAGibnBhGyHQMSfS0B+KrfB81rjQKYT
BEA3hJjBYNX9QARkZ0CVlpXBKP3yQHXSUECEAKnB5T5bQHY0a0CDjKbBwbI3QB35cEB/WIvBgRsI
QFQmZ0C8zJfBVvnSQAETXz9oKK/BOGHYQJmtBL+jA7DBS3aYQJq1XL9zSqXBVVKwQIbStj8gTanB
IUS7QH9Hsb97BavBPWSSQGUsBz/7daTBSAuGQAsNZUCK2ZfBMMjXQCF2pEBWC6XBcBLOQCSXsUBD
qbDBynqmQHxeYUDsILTB1IffQEbGR0BIhZjBYYbXQFz4ZUBJD6TBxiCtQP6bPkDSmKjBlW6HQLC6
XUDbVaLBw1E8QFLza0CPFJPB3SamQM/fnkAmHrTBF3XAQMI9LsASzavBylteQIpYcD/5G5/B0sWz
QLtaZkAbhI/Bs5bpQHjLwz9cBrPBqO/yQNV9a7+cg7TBQxuCQGFWxL92eqHBLnP3QFO/sEB1vKLB
7kS/QH8AskBwtp/BSsTLQEWp1EBtJbHB7AzoQBFdpkDd5LXBbq7AQDmZSkAIRbnBiMSHQIjGSUDz
QbfBj5/iQKulAUDgfZjBdG79QB2vZEDRmpXBAu3xQNWMTUD0A6nBwXRaQH9FbkBsb6bBH6I3QJ55
cUC5IYvBAnIHQIxna0BalpfB

> <OMEGA_E>
AE2gPEB3TD0=

> <OMEGA_NBR>
      1533

$$$$
278164
  -OEChem-04172616093D

 34 36  0     1  0  0  0  0  0999 V2000
    4.5657    0.6418  -20.5045 C   0  0  0  0  0  0  0  0  0  0  0  0
    4.6390   -0.7597  -20.5553 C   0  0  0  0  0  0  0  0  0  0  0  0
    6.6270   -0.6098  -21.9475 C   0  0  0  0  0  0  0  0  0  0  0  0
    5.5314    1.4490  -21.1684 C   0  0  0  0  0  0  0  0  0  0  0  0
    5.6714   -1.3853  -21.2716 C   0  0  0  0  0  0  0  0  0  0  0  0
    6.5646    0.7949  -21.9057 C   0  0  0  0  0  0  0  0  0  0  0  0
    4.2006    3.5524  -18.9962 C   0  0  0  0  0  0  0  0  0  0  0  0
    6.7407    5.1753  -20.6347 C   0  0  0  0  0  0  0  0  0  0  0  0
    6.4301    5.5810  -22.0866 C   0  0  0  0  0  0  0  0  0  0  0  0
    5.1989    3.5527  -22.5251 C   0  0  0  0  0  0  0  0  0  0  0  0
    7.0025    3.1589  -19.0686 C   0  0  0  0  0  0  0  0  0  0  0  0
    6.7571    3.6303  -20.5124 C   0  0  1  0  0  0  0  0  0  0  0  0
    5.4467    2.9971  -21.0945 C   0  0  2  0  0  0  0  0  0  0  0  0
    4.2523    3.4423  -20.3061 N   0  3  0  0  0  0  0  0  0  0  0  0
    2.9499    3.6524  -18.4086 N   0  0  0  0  0  0  0  0  0  0  0  0
    5.1794    4.9948  -22.5072 O   0  0  0  0  0  0  0  0  0  0  0  0
    5.7462   -2.7336  -21.3115 F   0  0  0  0  0  0  0  0  0  0  0  0
    7.5043    1.4825  -22.5961 F   0  0  0  0  0  0  0  0  0  0  0  0
    5.6258    3.6299  -17.9531 S   0  0  0  0  0  0  0  0  0  0  0  0
    3.7652    1.1136  -19.9539 H   0  0  0  0  0  0  0  0  0  0  0  0
    3.8997   -1.3572  -20.0425 H   0  0  0  0  0  0  0  0  0  0  0  0
    7.4155   -1.0952  -22.5034 H   0  0  0  0  0  0  0  0  0  0  0  0
    7.7243    5.5747  -20.3466 H   0  0  0  0  0  0  0  0  0  0  0  0
    5.9684    5.5860  -19.9678 H   0  0  0  0  0  0  0  0  0  0  0  0
    6.3585    6.6768  -22.1511 H   0  0  0  0  0  0  0  0  0  0  0  0
    7.2376    5.2270  -22.7443 H   0  0  0  0  0  0  0  0  0  0  0  0
    6.0035    3.2092  -23.1919 H   0  0  0  0  0  0  0  0  0  0  0  0
    4.2320    3.1816  -22.8957 H   0  0  0  0  0  0  0  0  0  0  0  0
    7.1049    2.0637  -19.0646 H   0  0  0  0  0  0  0  0  0  0  0  0
    7.9323    3.6155  -18.6985 H   0  0  0  0  0  0  0  0  0  0  0  0
    7.5934    3.2628  -21.1253 H   0  0  0  0  0  0  0  0  0  0  0  0
    3.4257    3.6751  -20.8186 H   0  0  0  0  0  0  0  0  0  0  0  0
    2.8703    3.7652  -17.4182 H   0  0  0  0  0  0  0  0  0  0  0  0
    2.1267    3.6117  -18.9750 H   0  0  0  0  0  0  0  0  0  0  0  0
  1  2  1  0  0  0  0
  1  4  2  0  0  0  0
  2  5  2  0  0  0  0
  3  5  1  0  0  0  0
  3  6  2  0  0  0  0
  4  6  1  0  0  0  0
  4 13  1  0  0  0  0
  5 17  1  0  0  0  0
  6 18  1  0  0  0  0
  7 14  2  0  0  0  0
  7 15  1  0  0  0  0
  7 19  1  0  0  0  0
  8  9  1  0  0  0  0
  8 12  1  0  0  0  0
  9 16  1  0  0  0  0
 10 13  1  0  0  0  0
 10 16  1  0  0  0  0
 11 12  1  0  0  0  0
 11 19  1  0  0  0  0
 12 13  1  0  0  0  0
 13 14  1  0  0  0  0
  1 20  1  0  0  0  0
  2 21  1  0  0  0  0
  3 22  1  0  0  0  0
  8 23  1  0  0  0  0
  8 24  1  0  0  0  0
  9 25  1  0  0  0  0
  9 26  1  0  0  0  0
 10 27  1  0  0  0  0
 10 28  1  0  0  0  0
 11 29  1  0  0  0  0
 11 30  1  0  0  0  0
 12 31  1  0  0  0  0
 14 32  1  0  0  0  0
 15 33  1  0  0  0  0
 15 34  1  0  0  0  0
M  CHG  1  14   1
M  END
> <OMEGA_C>
4RmSQJpOJD80CaTBUHKUQHR+Qr9HcaTBKBDUQCgbHL9olK/B7gCxQB94uT/ZWKnBKHy1QO1Ssb8u
LKrBKxHSQAZ8Sz/2Pq/BImuGQCxbY0A8+JfBv7PXQLmbpUD2E6XBQcPNQOuXskBdsbDBZV2mQOBf
Y0BnM7TBQBTgQLIrSkCNjJjBUzrYQMRWaEBbGaTBhkuuQATRP0CNwajBrhKIQBxPXED+cqLBYco8
QL7AaUDjRJPB9r2lQMnVn0CyDrTBe+C3QLzyLsDwfarBhiPwQFfCvT/jxLTBrQa0QIBPaED0n4/B
kflwQNuJjj+SoZ/BcJV5QMy4rb/3VqDB2EvtQIEujL/gBrTBLy33QOZjskDRxaLBMP2+QLzAskAD
vp/BB3nLQISo1UBdNbHBRprnQK5Dp0Bl9LXBmxzAQMVjTUAGibnBhGyHQMSfS0B+KrfB81rjQKYT
BEA3hJjBYNX9QARkZ0CVlpXBKP3yQHXSUECEAKnB5T5bQHY0a0CDjKbBwbI3QB35cEB/WIvBgRsI
QFQmZ0C8zJfBVvnSQAETXz9oKK/BOGHYQJmtBL+jA7DBS3aYQJq1XL9zSqXBVVKwQIbStj8gTanB
IUS7QH9Hsb97BavBPWSSQGUsBz/7daTBSAuGQAsNZUCK2ZfBMMjXQCF2pEBWC6XBcBLOQCSXsUBD
qbDBynqmQHxeYUDsILTB1IffQEbGR0BIhZjBYYbXQFz4ZUBJD6TBxiCtQP6bPkDSmKjBlW6HQLC6
XUDbVaLBw1E8QFLza0CPFJPB3SamQM/fnkAmHrTBF3XAQMI9LsASzavBylteQIpYcD/5G5/B0sWz
QLtaZkAbhI/Bs5bpQHjLwz9cBrPBqO/yQNV9a7+cg7TBQxuCQGFWxL92eqHBLnP3QFO/sEB1vKLB
7kS/QH8AskBwtp/BSsTLQEWp1EBtJbHB7AzoQBFdpkDd5LXBbq7AQDmZSkAIRbnBiMSHQIjGSUDz
QbfBj5/iQKulAUDgfZjBdG79QB2vZEDRmpXBAu3xQNWMTUD0A6nBwXRaQH9FbkBsb6bBH6I3QJ55
cUC5IYvBAnIHQIxna0BalpfB

> <OMEGA_E>
AE2gPEB3TD0=

> <OMEGA_NBR>
      3066

$$$$
278165
  -OEChem-04172616093D

 34 36  0     1  0  0  0  0  0999 V2000
    6.5626    0.8606  -21.9016 C   0  0  0  0  0  0  0  0  0  0  0  0
    4.5762    0.6286  -20.5001 C   0  0  0  0  0  0  0  0  0  0  0  0
    6.6742   -0.5381  -21.9737 C   0  0  0  0  0  0  0  0  0  0  0  0
    4.6934   -0.7704  -20.5734 C   0  0  0  0  0  0  0  0  0  0  0  0
    5.5157    1.4641  -21.1609 C   0  0  0  0  0  0  0  0  0  0  0  0
    5.7425   -1.3533  -21.3067 C   0  0  0  0  0  0  0  0  0  0  0  0
    4.1940    3.5440  -18.9880 C   0  0  0  0  0  0  0  0  0  0  0  0
    6.7518    5.1566  -20.6348 C   0  0  0  0  0  0  0  0  0  0  0  0
    6.4426    5.5728  -22.0844 C   0  0  0  0  0  0  0  0  0  0  0  0
    5.2134    3.5428  -22.5248 C   0  0  0  0  0  0  0  0  0  0  0  0
    7.0014    3.1332  -19.0780 C   0  0  0  0  0  0  0  0  0  0  0  0
    6.7489    3.6108  -20.5186 C   0  0  1  0  0  0  0  0  0  0  0  0
    5.4269    3.0001  -21.0866 C   0  0  2  0  0  0  0  0  0  0  0  0
    4.2375    3.4470  -20.2987 N   0  3  0  0  0  0  0  0  0  0  0  0
    2.9477    3.6588  -18.3945 N   0  0  0  0  0  0  0  0  0  0  0  0
    5.1961    4.9854  -22.5159 O   0  0  0  0  0  0  0  0  0  0  0  0
    5.8582   -2.6978  -21.3670 F   0  0  0  0  0  0  0  0  0  0  0  0
    5.6266    3.5888  -17.9494 S   0  0  0  0  0  0  0  0  0  0  0  0
    7.2813    1.4818  -22.4155 H   0  0  0  0  0  0  0  0  0  0  0  0
    3.7669    1.0707  -19.9379 H   0  0  0  0  0  0  0  0  0  0  0  0
    7.4757   -0.9872  -22.5415 H   0  0  0  0  0  0  0  0  0  0  0  0
    3.9765   -1.3987  -20.0657 H   0  0  0  0  0  0  0  0  0  0  0  0
    7.7411    5.5423  -20.3475 H   0  0  0  0  0  0  0  0  0  0  0  0
    5.9865    5.5744  -19.9641 H   0  0  0  0  0  0  0  0  0  0  0  0
    6.3664    6.6688  -22.1395 H   0  0  0  0  0  0  0  0  0  0  0  0
    7.2539    5.2282  -22.7424 H   0  0  0  0  0  0  0  0  0  0  0  0
    6.0327    3.1933  -23.1703 H   0  0  0  0  0  0  0  0  0  0  0  0
    4.2548    3.1704  -22.9150 H   0  0  0  0  0  0  0  0  0  0  0  0
    7.1101    2.0386  -19.0810 H   0  0  0  0  0  0  0  0  0  0  0  0
    7.9302    3.5930  -18.7094 H   0  0  0  0  0  0  0  0  0  0  0  0
    7.5743    3.2341  -21.1406 H   0  0  0  0  0  0  0  0  0  0  0  0
    3.4117    3.6907  -20.8074 H   0  0  0  0  0  0  0  0  0  0  0  0
    2.8740    3.7639  -17.4027 H   0  0  0  0  0  0  0  0  0  0  0  0
    2.1217    3.6367  -18.9577 H   0  0  0  0  0  0  0  0  0  0  0  0
  1  3  1  0  0  0  0
  1  5  2  0  0  0  0
  2  4  2  0  0  0  0
  2  5  1  0  0  0  0
  3  6  2  0  0  0  0
  4  6  1  0  0  0  0
  5 13  1  0  0  0  0
  6 17  1  0  0  0  0
  7 14  2  0  0  0  0
  7 15  1  0  0  0  0
  7 18  1  0  0  0  0
  8  9  1  0  0  0  0
  8 12  1  0  0  0  0
  9 16  1  0  0  0  0
 10 13  1  0  0  0  0
 10 16  1  0  0  0  0
 11 12  1  0  0  0  0
 11 18  1  0  0  0  0
 12 13  1  0  0  0  0
 13 14  1  0  0  0  0
  1 19  1  0  0  0  0
  2 20  1  0  0  0  0
  3 21  1  0  0  0  0
  4 22  1  0  0  0  0
  8 23  1  0  0  0  0
  8 24  1  0  0  0  0
  9 25  1  0  0  0  0
  9 26  1  0  0  0  0
 10 27  1  0  0  0  0
 10 28  1  0  0  0  0
 11 29  1  0  0  0  0
 11 30  1  0  0  0  0
 12 31  1  0  0  0  0
 14 32  1  0  0  0  0
 15 33  1  0  0  0  0
 15 34  1  0  0  0  0
M  CHG  1  14   1
M  END
> <OMEGA_C>
twDSQPxPXD+LNq/B/2+SQOXoID8iAKTBK5PVQBi+Cb85yq/BMDCWQO43Rb9TlqTB4ICwQDxouz91
SanB5MK3QFk3rb84dKrBIjWGQE3RYkCB55fBpg7YQEMDpUADFKXBHirOQLdUskDVrLDBcNSmQA29
YkC6MrTBXwvgQCeHSEDJn5jBZPfXQHkXZ0AiJqTBhqmtQLABQEBosajBO5mHQGybXEC5Y6LBX6c8
QHgqakDjJ5PBSUamQGSIn0CRILTBCXa7QLuoLMCW76rBNQ20QCqvZUB5mI/BGgDpQP+pvT/4UrPB
sxRxQEgLiT/dgJ/BqjjvQCu4fL8CVbTBoH9+QCMJs7+ahqDB9rb3QN5asUCmx6LBMpG/QEFhskB6
tp/BKrnLQN1m1UDBHbHBSiDoQFlNp0B88LXBxgvBQCBfTEC7XLnBIieIQAjnSkDlUbfBOobjQBt5
AkDYpZjBesT9QMrzZUDirJXBt2DyQDb7TkD1H6nBpVlaQCY1bEB7dabBpu83QMDjcEDTOIvB/8kH
QES/aEBbqZfB

> <OMEGA_E>
4EoFPQ==

> <OMEGA_NBR>
      3943

$$$$
278168
  -OEChem-04172616093D

 34 36  0     1  0  0  0  0  0999 V2000
    5.7564   -1.3671  -21.3298 C   0  0  0  0  0  0  0  0  0  0  0  0
    4.6955   -0.7881  -20.6097 C   0  0  0  0  0  0  0  0  0  0  0  0
    6.6983   -0.5461  -21.9757 C   0  0  0  0  0  0  0  0  0  0  0  0
    4.5750    0.6113  -20.5304 C   0  0  0  0  0  0  0  0  0  0  0  0
    6.5858    0.8534  -21.8945 C   0  0  0  0  0  0  0  0  0  0  0  0
    5.5275    1.4522  -21.1650 C   0  0  0  0  0  0  0  0  0  0  0  0
    4.1924    3.5452  -18.9874 C   0  0  0  0  0  0  0  0  0  0  0  0
    6.7406    5.1543  -20.6251 C   0  0  0  0  0  0  0  0  0  0  0  0
    6.4292    5.5712  -22.0742 C   0  0  0  0  0  0  0  0  0  0  0  0
    5.2170    3.5326  -22.5200 C   0  0  0  0  0  0  0  0  0  0  0  0
    6.9991    3.1301  -19.0691 C   0  0  0  0  0  0  0  0  0  0  0  0
    6.7485    3.6075  -20.5104 C   0  0  1  0  0  0  0  0  0  0  0  0
    5.4319    2.9886  -21.0830 C   0  0  2  0  0  0  0  0  0  0  0  0
    4.2376    3.4279  -20.2966 N   0  3  0  0  0  0  0  0  0  0  0  0
    2.9463    3.6852  -18.3984 N   0  0  0  0  0  0  0  0  0  0  0  0
    5.1879    4.9748  -22.5083 O   0  0  0  0  0  0  0  0  0  0  0  0
    5.6220    3.5859  -17.9440 S   0  0  0  0  0  0  0  0  0  0  0  0
    5.8476   -2.4417  -21.3866 H   0  0  0  0  0  0  0  0  0  0  0  0
    3.9715   -1.4197  -20.1165 H   0  0  0  0  0  0  0  0  0  0  0  0
    7.5085   -0.9907  -22.5345 H   0  0  0  0  0  0  0  0  0  0  0  0
    3.7529    1.0489  -19.9835 H   0  0  0  0  0  0  0  0  0  0  0  0
    7.3125    1.4781  -22.3925 H   0  0  0  0  0  0  0  0  0  0  0  0
    7.7271    5.5464  -20.3368 H   0  0  0  0  0  0  0  0  0  0  0  0
    5.9721    5.5657  -19.9542 H   0  0  0  0  0  0  0  0  0  0  0  0
    6.3441    6.6666  -22.1269 H   0  0  0  0  0  0  0  0  0  0  0  0
    7.2439    5.2346  -22.7322 H   0  0  0  0  0  0  0  0  0  0  0  0
    6.0404    3.1911  -23.1646 H   0  0  0  0  0  0  0  0  0  0  0  0
    4.2622    3.1532  -22.9130 H   0  0  0  0  0  0  0  0  0  0  0  0
    7.1082    2.0356  -19.0715 H   0  0  0  0  0  0  0  0  0  0  0  0
    7.9271    3.5903  -18.6989 H   0  0  0  0  0  0  0  0  0  0  0  0
    7.5784    3.2370  -21.1301 H   0  0  0  0  0  0  0  0  0  0  0  0
    3.4070    3.6502  -20.8073 H   0  0  0  0  0  0  0  0  0  0  0  0
    2.8718    3.8054  -17.4085 H   0  0  0  0  0  0  0  0  0  0  0  0
    2.1213    3.6661  -18.9632 H   0  0  0  0  0  0  0  0  0  0  0  0
  1  2  1  0  0  0  0
  1  3  2  0  0  0  0
  2  4  2  0  0  0  0
  3  5  1  0  0  0  0
  4  6  1  0  0  0  0
  5  6  2  0  0  0  0
  6 13  1  0  0  0  0
  7 14  2  0  0  0  0
  7 15  1  0  0  0  0
  7 17  1  0  0  0  0
  8  9  1  0  0  0  0
  8 12  1  0  0  0  0
  9 16  1  0  0  0  0
 10 13  1  0  0  0  0
 10 16  1  0  0  0  0
 11 12  1  0  0  0  0
 11 17  1  0  0  0  0
 12 13  1  0  0  0  0
 13 14  1  0  0  0  0
  1 18  1  0  0  0  0
  2 19  1  0  0  0  0
  3 20  1  0  0  0  0
  4 21  1  0  0  0  0
  5 22  1  0  0  0  0
  8 23  1  0  0  0  0
  8 24  1  0  0  0  0
  9 25  1  0  0  0  0
  9 26  1  0  0  0  0
 10 27  1  0  0  0  0
 10 28  1  0  0  0  0
 11 29  1  0  0  0  0
 11 30  1  0  0  0  0
 12 31  1  0  0  0  0
 14 32  1  0  0  0  0
 15 33  1  0  0  0  0
 15 34  1  0  0  0  0
M  CHG  1  14   1
M  END
> <OMEGA_C>
fTS4QOf8rr9ko6rBhEGWQPC/Sb/D4KTBiVjWQFPLC78/zq/BLGaSQAp/HD9BPqTB6b7SQJx2Wj/f
J6/Bd+GwQPjhuT/bUanBASiGQAjkYkA45pfBzbLXQNfvpEA4AKXBLrzNQE1HskDkl7DB8fGmQPcV
YkD2KLTBVPjfQFlUSECMjZjB/PPXQLXgZkA3FaTBftKtQOBEP0AGqqjBVJqHQEFiW0B7X6LBWZA8
QFraa0D/L5PBhwOmQOwxn0AWEbTBEeezQA5/ZUBnjY/BnR+7QGhFHMCvF6vBTS1+QCi5tb+W7qDB
2EXwQB+hfb+YRrTBzy9wQK9Dhj8v3p/B7v/pQLAxvT/oI7PBFET3QOx7sUDRsaLBfBu/QIIaskAl
op/BQwPLQCFV1UDVA7HB4s3nQPmBp0CW27XBEUvBQG07TEABUbnBMmSIQDjOSUDCTbfBL3bjQOBG
AkBzkpjBmar9QATIZUBxl5XBaoLyQKcrT0BvCqnBxwxaQBKcaUBLdabBXcw3QM2Lc0CTRIvBh8MH
QAihakC5tJfB

> <OMEGA_E>
YIldPQ==

> <OMEGA_NBR>
      4820

$$$$
278170
  -OEChem-04172616093D

 34 36  0     1  0  0  0  0  0999 V2000
    5.8060   -1.4354  -21.3299 C   0  0  0  0  0  0  0  0  0  0  0  0
    4.7458   -0.8735  -20.6088 C   0  0  0  0  0  0  0  0  0  0  0  0
    6.7113   -0.6005  -21.9959 C   0  0  0  0  0  0  0  0  0  0  0  0
    5.5196    1.4040  -21.1777 C   0  0  0  0  0  0  0  0  0  0  0  0
    4.5825    0.5222  -20.5366 C   0  0  0  0  0  0  0  0  0  0  0  0
    6.5800    0.7984  -21.9278 C   0  0  0  0  0  0  0  0  0  0  0  0
    4.1931    3.5750  -18.9879 C   0  0  0  0  0  0  0  0  0  0  0  0
    6.7235    5.1521  -20.6161 C   0  0  0  0  0  0  0  0  0  0  0  0
    6.4399    5.5564  -22.0725 C   0  0  0  0  0  0  0  0  0  0  0  0
    5.1782    3.5421  -22.5171 C   0  0  0  0  0  0  0  0  0  0  0  0
    6.9846    3.1258  -19.0625 C   0  0  0  0  0  0  0  0  0  0  0  0
    6.7347    3.6058  -20.5008 C   0  0  1  0  0  0  0  0  0  0  0  0
    5.4217    2.9710  -21.0861 C   0  0  2  0  0  0  0  0  0  0  0  0
    4.2414    3.4531  -20.2985 N   0  3  0  0  0  0  0  0  0  0  0  0
    2.9442    3.6871  -18.3978 N   0  0  0  0  0  0  0  0  0  0  0  0
    5.1854    4.9867  -22.5037 O   0  0  0  0  0  0  0  0  0  0  0  0
    3.4976    0.9521  -19.8555 F   0  0  0  0  0  0  0  0  0  0  0  0
    7.4923    1.5281  -22.6111 F   0  0  0  0  0  0  0  0  0  0  0  0
    5.6149    3.5875  -17.9388 S   0  0  0  0  0  0  0  0  0  0  0  0
    5.9251   -2.5080  -21.3723 H   0  0  0  0  0  0  0  0  0  0  0  0
    4.0443   -1.5194  -20.1016 H   0  0  0  0  0  0  0  0  0  0  0  0
    7.5183   -1.0346  -22.5674 H   0  0  0  0  0  0  0  0  0  0  0  0
    7.7022    5.5497  -20.3092 H   0  0  0  0  0  0  0  0  0  0  0  0
    5.9397    5.5627  -19.9625 H   0  0  0  0  0  0  0  0  0  0  0  0
    6.3864    6.6528  -22.1432 H   0  0  0  0  0  0  0  0  0  0  0  0
    7.2500    5.1865  -22.7183 H   0  0  0  0  0  0  0  0  0  0  0  0
    5.9733    3.1842  -23.1877 H   0  0  0  0  0  0  0  0  0  0  0  0
    4.2028    3.1902  -22.8841 H   0  0  0  0  0  0  0  0  0  0  0  0
    7.0872    2.0306  -19.0663 H   0  0  0  0  0  0  0  0  0  0  0  0
    7.9158    3.5801  -18.6931 H   0  0  0  0  0  0  0  0  0  0  0  0
    7.5692    3.2406  -21.1174 H   0  0  0  0  0  0  0  0  0  0  0  0
    3.4206    3.7037  -20.8117 H   0  0  0  0  0  0  0  0  0  0  0  0
    2.8663    3.7719  -17.4045 H   0  0  0  0  0  0  0  0  0  0  0  0
    2.1209    3.6831  -18.9654 H   0  0  0  0  0  0  0  0  0  0  0  0
  1  2  1  0  0  0  0
  1  3  2  0  0  0  0
  2  5  2  0  0  0  0
  3  6  1  0  0  0  0
  4  5  1  0  0  0  0
  4  6  2  0  0  0  0
  4 13  1  0  0  0  0
  5 17  1  0  0  0  0
  6 18  1  0  0  0  0
  7 14  2  0  0  0  0
  7 15  1  0  0  0  0
  7 19  1  0  0  0  0
  8  9  1  0  0  0  0
  8 12  1  0  0  0  0
  9 16  1  0  0  0  0
 10 13  1  0  0  0  0
 10 16  1  0  0  0  0
 11 12  1  0  0  0  0
 11 19  1  0  0  0  0
 12 13  1  0  0  0  0
 13 14  1  0  0  0  0
  1 20  1  0  0  0  0
  2 21  1  0  0  0  0
  3 22  1  0  0  0  0
  8 23  1  0  0  0  0
  8 24  1  0  0  0  0
  9 25  1  0  0  0  0
  9 26  1  0  0  0  0
 10 27  1  0  0  0  0
 10 28  1  0  0  0  0
 11 29  1  0  0  0  0
 11 30  1  0  0  0  0
 12 31  1  0  0  0  0
 14 32  1  0  0  0  0
 15 33  1  0  0  0  0
 15 34  1  0  0  0  0
M  CHG  1  14   1
M  END
> <OMEGA_C>
J8u5QGC8t7+xo6rBON2XQASgX7/F3qTBCMPWQNK3Gb+P96/BhKCwQFm3sz/ia6nB/aOSQAOvBT/g
SqTBJo/SQC5lTD8vbK/BRC6GQG/NZEA+55fBkSbXQGTepEC47aTBBBTOQBnOsUCUlLDBMLSlQBiy
YkDsIrTBgoHfQB4NSEAOgJjBW4LXQKnFZkCSAaTBmn6tQBAkPkBIsKjB0rmHQDAAXUBYY6LBeG08
QAj5a0C5LpPBH++lQF6Tn0CmB7TBINhfQOy8cz8i2J7By8DvQFuXwz+F47TBPK2zQDeaZUCUgo/B
l5q9QE6DIMCK+qrBTWuBQA58wr/7z6DBEpbwQA9uhL8OirTBBXj2QNGWsUBWeaLB5RG+QP0BskBG
s5/BeV3MQPvj1EBSJbHBnv/nQIr3pUAhv7XBECW/QOvJS0B9gLnBpH2GQIMsTECwErfBcsriQHn1
AUC4h5jB4k39QEwgZUBxi5XB3DbyQFVmT0Ba8KjBl+paQEgJbUBvfqbBf3E3QMlmcUBZPIvBILwH
QMW3a0AVuZfB

> <OMEGA_E>
wL9rPQ==

> <OMEGA_NBR>
      5697

$$$$
278166
  -OEChem-04172616093D

 34 36  0     1  0  0  0  0  0999 V2000
    4.6388   -0.7712  -20.5609 C   0  0  0  0  0  0  0  0  0  0  0  0
    5.6741   -1.3973  -21.2729 C   0  0  0  0  0  0  0  0  0  0  0  0
    4.5663    0.6314  -20.5073 C   0  0  0  0  0  0  0  0  0  0  0  0
    6.6364   -0.6194  -21.9376 C   0  0  0  0  0  0  0  0  0  0  0  0
    5.5382    1.4403  -21.1607 C   0  0  0  0  0  0  0  0  0  0  0  0
    6.5774    0.7864  -21.8897 C   0  0  0  0  0  0  0  0  0  0  0  0
    4.1988    3.5465  -18.9945 C   0  0  0  0  0  0  0  0  0  0  0  0
    6.7300    5.1764  -20.6226 C   0  0  0  0  0  0  0  0  0  0  0  0
    6.4175    5.5843  -22.0739 C   0  0  0  0  0  0  0  0  0  0  0  0
    5.2078    3.5440  -22.5205 C   0  0  0  0  0  0  0  0  0  0  0  0
    7.0032    3.1563  -19.0622 C   0  0  0  0  0  0  0  0  0  0  0  0
    6.7564    3.6306  -20.5042 C   0  0  1  0  0  0  0  0  0  0  0  0
    5.4507    2.9899  -21.0888 C   0  0  2  0  0  0  0  0  0  0  0  0
    4.2532    3.4329  -20.3040 N   0  3  0  0  0  0  0  0  0  0  0  0
    2.9474    3.6659  -18.4121 N   0  0  0  0  0  0  0  0  0  0  0  0
    5.1746    4.9862  -22.5006 O   0  0  0  0  0  0  0  0  0  0  0  0
    7.5256    1.4757  -22.5669 F   0  0  0  0  0  0  0  0  0  0  0  0
    5.6215    3.6110  -17.9459 S   0  0  0  0  0  0  0  0  0  0  0  0
    3.8962   -1.3688  -20.0531 H   0  0  0  0  0  0  0  0  0  0  0  0
    5.7306   -2.4752  -21.3094 H   0  0  0  0  0  0  0  0  0  0  0  0
    3.7614    1.1022  -19.9624 H   0  0  0  0  0  0  0  0  0  0  0  0
    7.4280   -1.1038  -22.4901 H   0  0  0  0  0  0  0  0  0  0  0  0
    7.7108    5.5814  -20.3328 H   0  0  0  0  0  0  0  0  0  0  0  0
    5.9547    5.5804  -19.9550 H   0  0  0  0  0  0  0  0  0  0  0  0
    6.3339    6.6794  -22.1342 H   0  0  0  0  0  0  0  0  0  0  0  0
    7.2305    5.2419  -22.7311 H   0  0  0  0  0  0  0  0  0  0  0  0
    6.0203    3.2089  -23.1819 H   0  0  0  0  0  0  0  0  0  0  0  0
    4.2471    3.1642  -22.8984 H   0  0  0  0  0  0  0  0  0  0  0  0
    7.1148    2.0619  -19.0621 H   0  0  0  0  0  0  0  0  0  0  0  0
    7.9287    3.6192  -18.6892 H   0  0  0  0  0  0  0  0  0  0  0  0
    7.5955    3.2704  -21.1174 H   0  0  0  0  0  0  0  0  0  0  0  0
    3.4267    3.6611  -20.8186 H   0  0  0  0  0  0  0  0  0  0  0  0
    2.8657    3.7851  -17.4226 H   0  0  0  0  0  0  0  0  0  0  0  0
    2.1258    3.6329  -18.9813 H   0  0  0  0  0  0  0  0  0  0  0  0
  1  2  1  0  0  0  0
  1  3  2  0  0  0  0
  2  4  2  0  0  0  0
  3  5  1  0  0  0  0
  4  6  1  0  0  0  0
  5  6  2  0  0  0  0
  5 13  1  0  0  0  0
  6 17  1  0  0  0  0
  7 14  2  0  0  0  0
  7 15  1  0  0  0  0
  7 18  1  0  0  0  0
  8  9  1  0  0  0  0
  8 12  1  0  0  0  0
  9 16  1  0  0  0  0
 10 13  1  0  0  0  0
 10 16  1  0  0  0  0
 11 12  1  0  0  0  0
 11 18  1  0  0  0  0
 12 13  1  0  0  0  0
 13 14  1  0  0  0  0
  1 19  1  0  0  0  0
  2 20  1  0  0  0  0
  3 21  1  0  0  0  0
  4 22  1  0  0  0  0
  8 23  1  0  0  0  0
  8 24  1  0  0  0  0
  9 25  1  0  0  0  0
  9 26  1  0  0  0  0
 10 27  1  0  0  0  0
 10 28  1  0  0  0  0
 11 29  1  0  0  0  0
 11 30  1  0  0  0  0
 12 31  1  0  0  0  0
 14 32  1  0  0  0  0
 15 33  1  0  0  0  0
 15 34  1  0  0  0  0
M  CHG  1  14   1
M  END
> <OMEGA_C>
N3GUQIxrRb/AfKTBT5K1QB7asr/eLqrB5h6SQOikIT/zDqTBIF3UQM6THr9EgK/B+zixQKFbuD8Q
SanBL3rSQLhPST8SHq/BOFyGQG35YkC39JfBaVzXQFelpUAL+6TBfVzNQEWyskBul7DBHaamQP/Q
YkDoKbTBGxrgQD0ASkBQf5jBLjTYQKZbaECTCKTB5GuuQCFaP0DYtajB7RmIQOGzW0CAbqLBYqE8
QOOdakALTJPBKpalQACPn0BRAbTBetHwQNbjvD/siLTBieOzQGMbZ0AokY/BAVx5QG8zr7/DbKDB
CWG3QGppHsC1earBbbpwQGAWjT8Ts5/B/7HtQNlHjb+s67PBR7/2QA2bskCRqaLBQI2+QPySskDG
o5/BWa/KQNa91UC/ErHBRmDnQN29p0Bb2bXBV6bAQCxeTUCCdLnBMuiHQJqBSkDWL7fBQazjQNH2
A0Atf5jBt7f9QHWhZ0Bmg5XBaQ7zQLRNUUCG8KjBfk5bQNZOakBqjKbB4mY3QDU/ckCMYYvB2QwI
QLyAaECt2ZfBQF7YQPCcBb8uM7DByI67QPRksr8UJ6vBzerSQJk2Xj+lSq/B9geZQCrCX7+mSqXB
/nqwQDrttT8yVKnBUfKSQEA6BD86Y6TBJwCGQDgNZUC52pfBTOvXQPVHpECoBaXBUwTOQIGHsUCl
nrDB9GWmQARSYUA1GLTBNn7fQLRgR0C9gJjBIpDXQK+SZUCIC6TBcSutQOA1PkChlajB72aHQAUW
XUCXVKLB0Tc8QGa6bEDZGpPB+QemQB/bnkDVCbTBhUhgQHdwbD9U2p7BW7SzQLgSZkDngY/B57/y
QMVpa78rybTBxu6/QH+UHcBqxqvBrlXpQLq0wz9zM7PBMOOCQB81xr/AbqHBz6n3QGd5sEC8v6LB
3Iu/QN7asUDhp5/BObfLQPqa1EDmFLHBbeXnQJhXpkBv47XBpo/AQJnBSkAaQ7nBvaqHQL7FSUCR
N7fBUYviQEA+AUDHeJjB0GX9QF04ZEA+lJXBNPnxQEwVTUAC/qjBfzhaQIXybEDsb6bBhXk3QIyj
ckBCKYvBcWUHQCpbbEApn5fB

> <OMEGA_E>
wCohPRAxjT0=

> <OMEGA_NBR>
      7230

$$$$
278167
  -OEChem-04172616093D

 37 39  0     1  0  0  0  0  0999 V2000
    4.5378    0.6903  -20.5083 C   0  0  0  0  0  0  0  0  0  0  0  0
    4.6061   -0.7074  -20.5395 C   0  0  0  0  0  0  0  0  0  0  0  0
    6.6289   -0.5825  -21.8879 C   0  0  0  0  0  0  0  0  0  0  0  0
    5.5286    1.4807  -21.1506 C   0  0  0  0  0  0  0  0  0  0  0  0
    5.6634   -1.3447  -21.2085 C   0  0  0  0  0  0  0  0  0  0  0  0
    6.5732    0.8188  -21.8634 C   0  0  0  0  0  0  0  0  0  0  0  0
    4.1974    3.5430  -18.9963 C   0  0  0  0  0  0  0  0  0  0  0  0
    6.7433    5.1840  -20.6441 C   0  0  0  0  0  0  0  0  0  0  0  0
    6.4453    5.5703  -22.1066 C   0  0  0  0  0  0  0  0  0  0  0  0
    5.2090    3.5463  -22.5325 C   0  0  0  0  0  0  0  0  0  0  0  0
    7.0029    3.1703  -19.0624 C   0  0  0  0  0  0  0  0  0  0  0  0
    6.7605    3.6439  -20.5083 C   0  0  1  0  0  0  0  0  0  0  0  0
    5.4499    3.0191  -21.0924 C   0  0  2  0  0  0  0  0  0  0  0  0
    5.7164   -2.8489  -21.2660 C   0  0  0  0  0  0  0  0  0  0  0  0
    4.2591    3.4823  -20.3087 N   0  3  0  0  0  0  0  0  0  0  0  0
    2.9418    3.5847  -18.4122 N   0  0  0  0  0  0  0  0  0  0  0  0
    5.1966    4.9849  -22.5355 O   0  0  0  0  0  0  0  0  0  0  0  0
    7.5268    1.4920  -22.5504 F   0  0  0  0  0  0  0  0  0  0  0  0
    5.6172    3.6169  -17.9467 S   0  0  0  0  0  0  0  0  0  0  0  0
    3.7227    1.1735  -19.9902 H   0  0  0  0  0  0  0  0  0  0  0  0
    3.8452   -1.2960  -20.0487 H   0  0  0  0  0  0  0  0  0  0  0  0
    7.4187   -1.0788  -22.4322 H   0  0  0  0  0  0  0  0  0  0  0  0
    7.7234    5.5885  -20.3510 H   0  0  0  0  0  0  0  0  0  0  0  0
    5.9640    5.6007  -19.9892 H   0  0  0  0  0  0  0  0  0  0  0  0
    6.3789    6.6654  -22.1862 H   0  0  0  0  0  0  0  0  0  0  0  0
    7.2580    5.2043  -22.7513 H   0  0  0  0  0  0  0  0  0  0  0  0
    6.0140    3.1878  -23.1908 H   0  0  0  0  0  0  0  0  0  0  0  0
    4.2416    3.1732  -22.8997 H   0  0  0  0  0  0  0  0  0  0  0  0
    7.1193    2.0765  -19.0626 H   0  0  0  0  0  0  0  0  0  0  0  0
    7.9252    3.6371  -18.6865 H   0  0  0  0  0  0  0  0  0  0  0  0
    7.5958    3.2715  -21.1195 H   0  0  0  0  0  0  0  0  0  0  0  0
    5.1537   -3.2029  -22.1424 H   0  0  0  0  0  0  0  0  0  0  0  0
    6.7636   -3.1760  -21.3461 H   0  0  0  0  0  0  0  0  0  0  0  0
    5.2708   -3.2666  -20.3511 H   0  0  0  0  0  0  0  0  0  0  0  0
    3.4500    3.7669  -20.8228 H   0  0  0  0  0  0  0  0  0  0  0  0
    2.8547    3.6552  -17.4185 H   0  0  0  0  0  0  0  0  0  0  0  0
    2.1226    3.5444  -18.9843 H   0  0  0  0  0  0  0  0  0  0  0  0
  1  2  2  0  0  0  0
  1  4  1  0  0  0  0
  2  5  1  0  0  0  0
  3  5  2  0  0  0  0
  3  6  1  0  0  0  0
  4  6  2  0  0  0  0
  4 13  1  0  0  0  0
  5 14  1  0  0  0  0
  6 18  1  0  0  0  0
  7 15  2  0  0  0  0
  7 16  1  0  0  0  0
  7 19  1  0  0  0  0
  8  9  1  0  0  0  0
  8 12  1  0  0  0  0
  9 17  1  0  0  0  0
 10 13  1  0  0  0  0
 10 17  1  0  0  0  0
 11 12  1  0  0  0  0
 11 19  1  0  0  0  0
 12 13  1  0  0  0  0
 13 15  1  0  0  0  0
  1 20  1  0  0  0  0
  2 21  1  0  0  0  0
  3 22  1  0  0  0  0
  8 23  1  0  0  0  0
  8 24  1  0  0  0  0
  9 25  1  0  0  0  0
  9 26  1  0  0  0  0
 10 27  1  0  0  0  0
 10 28  1  0  0  0  0
 11 29  1  0  0  0  0
 11 30  1  0  0  0  0
 12 31  1  0  0  0  0
 14 32  1  0  0  0  0
 14 33  1  0  0  0  0
 14 34  1  0  0  0  0
 15 35  1  0  0  0  0
 16 36  1  0  0  0  0
 16 37  1  0  0  0  0
M  CHG  1  15   1
M  END
> <OMEGA_C>
yDWRQGK1MD8SEaTBYmWTQMoZNb/XUKTBtx/UQGoeFb9UGq/BJOqwQLiHvT9sNKnB8Tq1QPEdrL/v
qqnBYFfSQFqdUT886K7BBFGGQLa/YkBS+JfBWsnXQJPjpUAlJ6XB8z/OQOQ/skA62rDBHLCmQEv3
YkCEQrTBjRfgQCPmSkDjf5jBFFbYQC02aUDpEKTBdmWuQCo4QUAuvajB4Oy2QNRTNsC6IKrBw0qI
QP7dXkAreKLBkkY8QAVsZUAcTJPBtkqmQIuEn0DESLTBddvwQEz7vj8jZ7TBcMCzQAh8Z0DNko/B
WkBuQNAzlj/m65/BWRd2QKbkpb+uY6DBuWXtQMYUir82dbPBASb3QJ7UskDSzqLBr9i+QEs5s0Df
6Z/BKyDMQPRK1UBpfbHBQ0HoQPmJpkCbArbBBHPAQK8FTEDChrnB1bqHQO8VS0CIMrfBHdHjQO3k
BEBLgJjBeZv9QJHGaEDwfZXBdhDzQO1fUUDD9KjBX+ukQI77TMCZI7HBYG/YQN5CS8DnxKrBiKqo
QH8PUcAZz6LBIc1cQDoVcUAglabBlbM2QJDuaUABWYvBBtkHQGnXYkDK35fB1PHRQCW9ZD/YCK/B
z6vXQEhM/L4PnK/BYiSXQI44Ub/+C6XBkiWvQBaluj8gTKnBjsS6QGmvrL8cbKrBT9GQQBwjEj9m
eqTBag2GQIShZEC/zZfBasrYQCwjpEC7SaXBvZvPQAi4sEBD+bDBJMqlQJAvYkBLN7TBnWHfQBKg
R0B2m5jBuXPXQHq1ZUAlK6TBJIisQLwZQEACqKjBbmDAQBDqNcDyOavB8UuHQIQ1YEAVUKLBf2w8
QCasZ0DO8ZLB5QinQFk0n0C9WbTByupZQJshfT8jb5/BNAq0QMQIaEAkl4/BbWboQBfPxT/dBrPB
1UnyQKEdZ7+0CbTBAWSAQGjTvb92UKHBBaj4QEvir0B3+aLBS3LAQDx6skAYCqDB+ZbOQGjO00AY
obHBTCzpQBwlpEBaJLbB5Ua/QP0iSUBjarnBYoKGQORoTEAIMrfB7d7hQFRnAUBAipjBZJH9QLib
Y0AIvJXBJHfxQE2+S0AtIanB6OPTQGWuTMBUeqTBDdagQIQdVcCj/qrBE37QQDe6RcDKy7LBKeda
QFjAc0AlWabBBQo4QMawa0Cr+orBiFIHQEXZZUB/Z5fB

> <OMEGA_E>
gGbXPHCIgD0=

> <OMEGA_NBR>
      8847

$$$$
278171
  -OEChem-04172616093D

 34 36  0     1  0  0  0  0  0999 V2000
    4.5728    0.6327  -20.5021 C   0  0  0  0  0  0  0  0  0  0  0  0
    4.6608   -0.7685  -20.5469 C   0  0  0  0  0  0  0  0  0  0  0  0
    6.6339   -0.6042  -21.9584 C   0  0  0  0  0  0  0  0  0  0  0  0
    5.5251    1.4461  -21.1774 C   0  0  0  0  0  0  0  0  0  0  0  0
    6.5578    0.7991  -21.9217 C   0  0  0  0  0  0  0  0  0  0  0  0
    5.6932   -1.3861  -21.2703 C   0  0  0  0  0  0  0  0  0  0  0  0
    4.1952    3.5503  -18.9932 C   0  0  0  0  0  0  0  0  0  0  0  0
    6.7443    5.1630  -20.6328 C   0  0  0  0  0  0  0  0  0  0  0  0
    6.4375    5.5715  -22.0848 C   0  0  0  0  0  0  0  0  0  0  0  0
    5.1856    3.5560  -22.5248 C   0  0  0  0  0  0  0  0  0  0  0  0
    6.9939    3.1431  -19.0691 C   0  0  0  0  0  0  0  0  0  0  0  0
    6.7505    3.6186  -20.5120 C   0  0  1  0  0  0  0  0  0  0  0  0
    5.4372    2.9932  -21.0965 C   0  0  2  0  0  0  0  0  0  0  0  0
    4.2439    3.4345  -20.3030 N   0  3  0  0  0  0  0  0  0  0  0  0
    2.9464    3.6709  -18.4054 N   0  0  0  0  0  0  0  0  0  0  0  0
    5.1809    4.9978  -22.5048 O   0  0  0  0  0  0  0  0  0  0  0  0
    7.4866    1.4922  -22.6212 F   0  0  0  0  0  0  0  0  0  0  0  0
    5.6217    3.6194  -17.9515 S   0  0  0  0  0  0  0  0  0  0  0  0
    5.8053   -3.1242  -21.3215 Cl  0  0  0  0  0  0  0  0  0  0  0  0
    3.7717    1.0988  -19.9478 H   0  0  0  0  0  0  0  0  0  0  0  0
    3.9333   -1.3714  -20.0239 H   0  0  0  0  0  0  0  0  0  0  0  0
    7.4219   -1.0839  -22.5200 H   0  0  0  0  0  0  0  0  0  0  0  0
    7.7302    5.5558  -20.3435 H   0  0  0  0  0  0  0  0  0  0  0  0
    5.9741    5.5783  -19.9662 H   0  0  0  0  0  0  0  0  0  0  0  0
    6.3770    6.6679  -22.1496 H   0  0  0  0  0  0  0  0  0  0  0  0
    7.2413    5.2091  -22.7426 H   0  0  0  0  0  0  0  0  0  0  0  0
    5.9823    3.2057  -23.1976 H   0  0  0  0  0  0  0  0  0  0  0  0
    4.2125    3.1956  -22.8899 H   0  0  0  0  0  0  0  0  0  0  0  0
    7.0899    2.0473  -19.0673 H   0  0  0  0  0  0  0  0  0  0  0  0
    7.9266    3.5936  -18.6988 H   0  0  0  0  0  0  0  0  0  0  0  0
    7.5848    3.2471  -21.1252 H   0  0  0  0  0  0  0  0  0  0  0  0
    3.4138    3.6600  -20.8130 H   0  0  0  0  0  0  0  0  0  0  0  0
    2.8692    3.7934  -17.4159 H   0  0  0  0  0  0  0  0  0  0  0  0
    2.1222    3.6354  -18.9705 H   0  0  0  0  0  0  0  0  0  0  0  0
  1  2  1  0  0  0  0
  1  4  2  0  0  0  0
  2  6  2  0  0  0  0
  3  5  2  0  0  0  0
  3  6  1  0  0  0  0
  4  5  1  0  0  0  0
  4 13  1  0  0  0  0
  5 17  1  0  0  0  0
  6 19  1  0  0  0  0
  7 14  2  0  0  0  0
  7 15  1  0  0  0  0
  7 18  1  0  0  0  0
  8  9  1  0  0  0  0
  8 12  1  0  0  0  0
  9 16  1  0  0  0  0
 10 13  1  0  0  0  0
 10 16  1  0  0  0  0
 11 12  1  0  0  0  0
 11 18  1  0  0  0  0
 12 13  1  0  0  0  0
 13 14  1  0  0  0  0
  1 20  1  0  0  0  0
  2 21  1  0  0  0  0
  3 22  1  0  0  0  0
  8 23  1  0  0  0  0
  8 24  1  0  0  0  0
  9 25  1  0  0  0  0
  9 26  1  0  0  0  0
 10 27  1  0  0  0  0
 10 28  1  0  0  0  0
 11 29  1  0  0  0  0
 11 30  1  0  0  0  0
 12 31  1  0  0  0  0
 14 32  1  0  0  0  0
 15 33  1  0  0  0  0
 15 34  1  0  0  0  0
M  CHG  1  14   1
M  END
> <OMEGA_C>
mFSSQLL5IT9PBKTBrCWVQA66RL/0X6TBE0nUQOCsGr+/qq/BQs2wQDcZuT9Aa6nBRNnRQCaTTD+b
X6/BVS62QLpssb+PKarBNj+GQL84Y0AQ8pfBbtHXQEo3pUDwD6XBPQDOQL9JskChrbDBkPClQOuU
Y0DhMrTBy83fQPkoSUCBjZjBSwTYQKKXZ0CoGKTBOf2tQPGQP0CMxajBJc6HQBbOW0CHbKLBnJE8
QBTwakAqPpPBO8qlQBXun0DPCbTBXpLvQOEBvz8y+LTB5OSzQO+jZ0CtnI/BX8W5QKXzR8BxkqrB
P2NxQHCmjD/+lJ/Burp7QFeLr78AMaDB6n/tQGW+ir/pKLTB7l33QFfJsUB8v6LBOiy/QC+BskCv
up/BnhDMQKNf1UBSMrHBUrjnQBexpkDR8LXBn26/QI8pTUDElLnBI82GQFiFTECWHrfBauDiQGUH
A0DEiZjB7Kb9QLr8ZUA7l5XBq7byQMHPT0BVAKnBa3xaQM09akADgabBoqE3QNTGckC8U4vB/NEH
QAeraECuw5fBtFfTQLNbYT/8V6/BxivZQFyfAb9qSrDBKI6ZQEv7YL/Zg6XBMLOwQJLttT/NYqnB
xCqTQGs5Aj9IjaTBYHW8QBZZsb8XTavBEPSFQOw4ZUDT0ZfBqr/XQBE5pEAX/qTB7h7OQM83sUCR
nbDBxhumQJQ1YUDRDrTBMFXfQDV+R0ChcJjBjHrXQDaEZUA2/qPByiKtQMAAPkD1jqjBCkuHQCYz
XEBwSKLBfy08QF9hbkBoGpPB1AKmQEXFnkAKBLTBAYNgQNf8Zz8lA5/BsLCzQGFxZ0BwfI/BEhPE
QOTbRsBvRKzBYp7pQDFIxj/WN7PBx7vzQJJVZb8j27TBul2DQBTTx78iw6HBf2b3QCWHsEBHraLB
9TK/QOHNsUCUrZ/BXSDMQClM1EA0JbHB8PTnQDampUCK2LXBywrAQBNQSkBKRrnBMTaHQI0CSkBU
HrfB3wfiQGFNAUD1XpjB3WH9QDHVY0A+iJXBr/PxQKsLTUCv66jBVJNZQETBakAlYabBBXM3QNX/
dUCcLovB1F0HQOBebUDTnpfB

> <OMEGA_E>
gPVLPIDXVj0=

> <OMEGA_NBR>
     10381

$$$$
278172
  -OEChem-04172616093D

 35 37  0     1  0  0  0  0  0999 V2000
    4.5533    0.6602  -20.5009 C   0  0  0  0  0  0  0  0  0  0  0  0
    4.6216   -0.7399  -20.5473 C   0  0  0  0  0  0  0  0  0  0  0  0
    6.6226   -0.6000  -21.9244 C   0  0  0  0  0  0  0  0  0  0  0  0
    5.5248    1.4604  -21.1641 C   0  0  0  0  0  0  0  0  0  0  0  0
    5.6582   -1.3685  -21.2541 C   0  0  0  0  0  0  0  0  0  0  0  0
    6.5617    0.8030  -21.8924 C   0  0  0  0  0  0  0  0  0  0  0  0
    4.2018    3.5444  -18.9970 C   0  0  0  0  0  0  0  0  0  0  0  0
    6.7349    5.1760  -20.6292 C   0  0  0  0  0  0  0  0  0  0  0  0
    6.4259    5.5845  -22.0821 C   0  0  0  0  0  0  0  0  0  0  0  0
    5.2006    3.5543  -22.5296 C   0  0  0  0  0  0  0  0  0  0  0  0
    7.0074    3.1470  -19.0763 C   0  0  0  0  0  0  0  0  0  0  0  0
    6.7556    3.6321  -20.5147 C   0  0  1  0  0  0  0  0  0  0  0  0
    5.4445    3.0046  -21.0971 C   0  0  2  0  0  0  0  0  0  0  0  0
    4.2541    3.4567  -20.3083 N   0  3  0  0  0  0  0  0  0  0  0  0
    2.9511    3.6409  -18.4095 N   0  0  0  0  0  0  0  0  0  0  0  0
    5.1791    4.9955  -22.5122 O   0  0  0  0  0  0  0  0  0  0  0  0
    5.7280   -2.7217  -21.2933 O   0  0  0  0  0  0  0  0  0  0  0  0
    7.5062    1.4845  -22.5826 F   0  0  0  0  0  0  0  0  0  0  0  0
    5.6265    3.5809  -17.9495 S   0  0  0  0  0  0  0  0  0  0  0  0
    3.7529    1.1370  -19.9547 H   0  0  0  0  0  0  0  0  0  0  0  0
    3.8765   -1.3342  -20.0393 H   0  0  0  0  0  0  0  0  0  0  0  0
    7.4165   -1.0904  -22.4681 H   0  0  0  0  0  0  0  0  0  0  0  0
    7.7165    5.5775  -20.3373 H   0  0  0  0  0  0  0  0  0  0  0  0
    5.9597    5.5818  -19.9625 H   0  0  0  0  0  0  0  0  0  0  0  0
    6.3501    6.6802  -22.1431 H   0  0  0  0  0  0  0  0  0  0  0  0
    7.2375    5.2360  -22.7378 H   0  0  0  0  0  0  0  0  0  0  0  0
    6.0080    3.2108  -23.1930 H   0  0  0  0  0  0  0  0  0  0  0  0
    4.2356    3.1809  -22.9028 H   0  0  0  0  0  0  0  0  0  0  0  0
    7.1265    2.0535  -19.0866 H   0  0  0  0  0  0  0  0  0  0  0  0
    7.9307    3.6129  -18.7014 H   0  0  0  0  0  0  0  0  0  0  0  0
    7.5894    3.2701  -21.1341 H   0  0  0  0  0  0  0  0  0  0  0  0
    3.4335    3.7122  -20.8196 H   0  0  0  0  0  0  0  0  0  0  0  0
    2.8705    3.7285  -17.4166 H   0  0  0  0  0  0  0  0  0  0  0  0
    2.1288    3.6229  -18.9782 H   0  0  0  0  0  0  0  0  0  0  0  0
    6.4814   -2.9856  -21.8082 H   0  0  0  0  0  0  0  0  0  0  0  0
  1  2  1  0  0  0  0
  1  4  2  0  0  0  0
  2  5  2  0  0  0  0
  3  5  1  0  0  0  0
  3  6  2  0  0  0  0
  4  6  1  0  0  0  0
  4 13  1  0  0  0  0
  5 17  1  0  0  0  0
  6 18  1  0  0  0  0
  7 14  2  0  0  0  0
  7 15  1  0  0  0  0
  7 19  1  0  0  0  0
  8  9  1  0  0  0  0
  8 12  1  0  0  0  0
  9 16  1  0  0  0  0
 10 13  1  0  0  0  0
 10 16  1  0  0  0  0
 11 12  1  0  0  0  0
 11 19  1  0  0  0  0
 12 13  1  0  0  0  0
 13 14  1  0  0  0  0
  1 20  1  0  0  0  0
  2 21  1  0  0  0  0
  3 22  1  0  0  0  0
  8 23  1  0  0  0  0
  8 24  1  0  0  0  0
  9 25  1  0  0  0  0
  9 26  1  0  0  0  0
 10 27  1  0  0  0  0
 10 28  1  0  0  0  0
 11 29  1  0  0  0  0
 11 30  1  0  0  0  0
 12 31  1  0  0  0  0
 14 32  1  0  0  0  0
 15 33  1  0  0  0  0
 15 34  1  0  0  0  0
 17 35  1  0  0  0  0
M  CHG  1  14   1
M  END
> <OMEGA_C>
u7SRQGAEKT/WAaTBKuSTQFxsPb/yYKTBOezTQBSXGb8gZa/BkcuwQMruuj8RUKnBxg+1QFMsr79N
CKrBPPnRQBqUTT+iI6/BNXWGQCvYYkDZ+ZfBEYTXQLChpUCdCKXB/aDNQPazskA6qLDBimumQMJ5
Y0CbPLTByzzgQINoSUA2nJjBvy3YQBx1aEAtHqTBVDmuQNtLQEDRxqjBpCGIQAo6XUB0d6LBXN48
QH0EaUCSRpPBZ7ulQFXbn0AMGbTBbku3QNIvLsCaWKrBMzPwQPgEvj9BqbTBegy0QHwtZUCemI/B
gC9wQIqKkT8go5/BzRh4QKHFqr9mUKDBkFPtQP2Qi7/EvrPBT+32QEN7skDCsqLB8bW+QNGdskA+
s5/BWzTLQOHD1UAVJbHBbZnnQEONp0AM57XBu0HAQC5+TUBNi7nB8omHQKiTS0DeOLfBRQzkQNBs
A0BGsZjBY8j9QEo5Z0CMnJXBetzyQClJUUCvEqnB675bQOGTbUB/jqbB67U3QAmgbkAiVYvBez0I
QMjdZ0Bb05fBzmfPQHETP8Aud67BHMXSQGlyZD/nM6/BJd7YQDRJ/L5M9K/BhsiYQPKAWr+5TaXB
yeKvQGExuD8EX6nBbgq8QLG2rr8B8KrBYhmSQGKxCD+WjKTBJOuFQNoJZUBWy5fB0WzYQOT+o0B5
MqXBdzHPQMSVsEDF3rDB55GlQEK3YUCfI7TBCTHfQOZnR0ABiZjB91XXQCpcZUDGGKTBT6CsQBb7
PkCqnajB3xqHQD4CXkA3SKLByzk8QCZ2a0Cu+ZLBRJ2mQL3+nkBONbTBzuTBQEgiLcDtpqvBvyld
QDAEcD/DR5/BLNizQFIvaECnjY/B7APpQCpQxz/JIbPBh7XzQAQtY78tY7TBfZWCQDcgxL9Zg6HB
jDr4QBzkr0C64KLBGAHAQCEuskDE8Z/BBCDOQLar00DHhrHBa7roQD8KpEBUDbbB0P++QGEoSUCO
ZLnB3EWGQALWS0B7GLfBWZjhQGgsAUA9c5jBkmX9QEZJY0C1qJXBWoTxQK7DS0BaCKnBk6ZZQDu/
bkDKVqbBJdo3QCWwcUA1CIvBJiYHQL3eaUDncJfBa8qrQNK4ScCX2afB

> <OMEGA_E>
ALJ0PhCjjT4=

> <OMEGA_NBR>
     11942

$$$$
278173
  -OEChem-04172616093D

 38 40  0     1  0  0  0  0  0999 V2000
    6.3545   -0.1279  -22.6932 C   0  0  0  0  0  0  0  0  0  0  0  0
    5.8034   -1.0989  -21.8414 C   0  0  0  0  0  0  0  0  0  0  0  0
    6.1806    1.2427  -22.4179 C   0  0  0  0  0  0  0  0  0  0  0  0
    5.1751   -0.6998  -20.6546 C   0  0  0  0  0  0  0  0  0  0  0  0
    5.4998    1.6726  -21.2502 C   0  0  0  0  0  0  0  0  0  0  0  0
    5.1091    0.6664  -20.3155 C   0  0  0  0  0  0  0  0  0  0  0  0
    4.0289    3.7394  -18.8393 C   0  0  0  0  0  0  0  0  0  0  0  0
    7.6531    4.2100  -21.4170 C   0  0  0  0  0  0  0  0  0  0  0  0
    6.9947    5.0731  -22.4993 C   0  0  0  0  0  0  0  0  0  0  0  0
    4.8768    3.9670  -22.2500 C   0  0  0  0  0  0  0  0  0  0  0  0
    6.3728    5.0146  -19.4287 C   0  0  0  0  0  0  0  0  0  0  0  0
    6.6349    3.7975  -20.3298 C   0  0  1  0  0  0  0  0  0  0  0  0
    5.3048    3.1953  -20.9551 C   0  0  2  0  0  0  0  0  0  0  0  0
    6.0923    0.8550  -18.1940 C   0  0  0  0  0  0  0  0  0  0  0  0
    4.0702    3.3655  -20.1007 N   0  3  0  0  0  0  0  0  0  0  0  0
    2.8592    3.5342  -18.1286 N   0  0  0  0  0  0  0  0  0  0  0  0
    5.9674    4.2962  -23.1271 O   0  0  0  0  0  0  0  0  0  0  0  0
    4.8939    0.9746  -18.9995 O   0  0  0  0  0  0  0  0  0  0  0  0
    5.3931    4.4589  -18.0220 S   0  0  0  0  0  0  0  0  0  0  0  0
    6.9149   -0.4336  -23.5643 H   0  0  0  0  0  0  0  0  0  0  0  0
    5.8634   -2.1458  -22.0995 H   0  0  0  0  0  0  0  0  0  0  0  0
    6.5716    1.9773  -23.1064 H   0  0  0  0  0  0  0  0  0  0  0  0
    4.7409   -1.4400  -19.9989 H   0  0  0  0  0  0  0  0  0  0  0  0
    8.0657    3.3034  -21.8837 H   0  0  0  0  0  0  0  0  0  0  0  0
    8.4661    4.7831  -20.9473 H   0  0  0  0  0  0  0  0  0  0  0  0
    6.5552    5.9721  -22.0426 H   0  0  0  0  0  0  0  0  0  0  0  0
    7.7454    5.3709  -23.2461 H   0  0  0  0  0  0  0  0  0  0  0  0
    4.1643    3.3397  -22.8058 H   0  0  0  0  0  0  0  0  0  0  0  0
    4.3833    4.9022  -21.9471 H   0  0  0  0  0  0  0  0  0  0  0  0
    7.3278    5.4327  -19.0776 H   0  0  0  0  0  0  0  0  0  0  0  0
    5.8201    5.7829  -19.9893 H   0  0  0  0  0  0  0  0  0  0  0  0
    7.0959    3.0107  -19.7145 H   0  0  0  0  0  0  0  0  0  0  0  0
    5.8605    1.1136  -17.1503 H   0  0  0  0  0  0  0  0  0  0  0  0
    6.4641   -0.1792  -18.2414 H   0  0  0  0  0  0  0  0  0  0  0  0
    6.8625    1.5395  -18.5789 H   0  0  0  0  0  0  0  0  0  0  0  0
    3.1923    3.1739  -20.5396 H   0  0  0  0  0  0  0  0  0  0  0  0
    2.8069    3.7968  -17.1651 H   0  0  0  0  0  0  0  0  0  0  0  0
    2.0663    3.1233  -18.5786 H   0  0  0  0  0  0  0  0  0  0  0  0
  1  2  1  0  0  0  0
  1  3  2  0  0  0  0
  2  4  2  0  0  0  0
  3  5  1  0  0  0  0
  4  6  1  0  0  0  0
  5  6  2  0  0  0  0
  5 13  1  0  0  0  0
  6 18  1  0  0  0  0
  7 15  2  0  0  0  0
  7 16  1  0  0  0  0
  7 19  1  0  0  0  0
  8  9  1  0  0  0  0
  8 12  1  0  0  0  0
  9 17  1  0  0  0  0
 10 13  1  0  0  0  0
 10 17  1  0  0  0  0
 11 12  1  0  0  0  0
 11 19  1  0  0  0  0
 12 13  1  0  0  0  0
 13 15  1  0  0  0  0
 14 18  1  0  0  0  0
  1 20  1  0  0  0  0
  2 21  1  0  0  0  0
  3 22  1  0  0  0  0
  4 23  1  0  0  0  0
  8 24  1  0  0  0  0
  8 25  1  0  0  0  0
  9 26  1  0  0  0  0
  9 27  1  0  0  0  0
 10 28  1  0  0  0  0
 10 29  1  0  0  0  0
 11 30  1  0  0  0  0
 11 31  1  0  0  0  0
 12 32  1  0  0  0  0
 14 33  1  0  0  0  0
 14 34  1  0  0  0  0
 14 35  1  0  0  0  0
 15 36  1  0  0  0  0
 16 37  1  0  0  0  0
 16 38  1  0  0  0  0
M  CHG  1  15   1
M  END
> <OMEGA_C>
JVjLQMjuAr6Zi7XBDbW5QFynjL80u67Bm8fFQOgRnz/uV7PBipqlQLYnM7+zPKXBjP6vQO4W1j91
AKrBr32jQPCVKj8shqLB3uyAQJtSb0DwtpbBDeb0QJa4hkDtVavBZdTfQPRWokCV/rPBEw+cQPvi
fUATALLB8u3LQKR3oED8bZvBV1HUQPkJc0BYo6LB38CpQEGATEANpKfBEfTCQDDfWj9YjZHB7D6C
QO1jV0A+zqDBoPw2QCUwYkBfB5HB7PS+QDZ6iUBYBLnB5ZqcQKiBeT8U/5fBWJSsQDKvjkAiLZDB
OUfdQN4G3r6bg7zBAKG7QIlVCcDEy7DBRErSQOIW/T/52bjBgbWXQN9RuL+6/Z/BLA0BQZBrU0DC
Ea/B+XQHQYwPmUD/k6fB7cPRQMwbv0BBV7DBidr3QDfeq0AI+LnBOUKFQF6+VUBZcrbBHESMQP3e
nEC2k6/B8HzqQMjYrUABn5jBgD66QK8NuUAO6p/BmBHjQFqvQEBlt53BNom7QP+Ljj/NM4nBk9nO
QPeEN7527pHB3JnbQF0OxT+eoZTB8k5MQMkgS0AlUaTBbKQzQF7+ckAkUonBkD0EQHbkR0DsoJTB

> <OMEGA_E>
/LQqPw==

> <OMEGA_NBR>
     12883

$$$$
278179
  -OEChem-04172616093D

 38 40  0     1  0  0  0  0  0999 V2000
    6.1765   -0.0731  -22.9085 C   0  0  0  0  0  0  0  0  0  0  0  0
    5.9664   -1.0707  -21.9476 C   0  0  0  0  0  0  0  0  0  0  0  0
    5.9478    1.2761  -22.5875 C   0  0  0  0  0  0  0  0  0  0  0  0
    5.5464   -0.7171  -20.6571 C   0  0  0  0  0  0  0  0  0  0  0  0
    5.5041    1.6680  -21.2919 C   0  0  0  0  0  0  0  0  0  0  0  0
    5.3476    0.6398  -20.3016 C   0  0  0  0  0  0  0  0  0  0  0  0
    4.0086    3.7825  -18.8351 C   0  0  0  0  0  0  0  0  0  0  0  0
    7.6730    4.0496  -21.4208 C   0  0  0  0  0  0  0  0  0  0  0  0
    7.0977    4.9364  -22.5411 C   0  0  0  0  0  0  0  0  0  0  0  0
    4.8688    4.0415  -22.1960 C   0  0  0  0  0  0  0  0  0  0  0  0
    6.3641    5.0486  -19.5047 C   0  0  0  0  0  0  0  0  0  0  0  0
    6.6151    3.7628  -20.3191 C   0  0  1  0  0  0  0  0  0  0  0  0
    5.2858    3.1850  -20.9474 C   0  0  2  0  0  0  0  0  0  0  0  0
    5.7741    0.6070  -17.9093 C   0  0  0  0  0  0  0  0  0  0  0  0
    4.0649    3.2983  -20.0610 N   0  3  0  0  0  0  0  0  0  0  0  0
    2.8343    3.6233  -18.1157 N   0  0  0  0  0  0  0  0  0  0  0  0
    5.9484    4.2979  -23.1246 O   0  0  0  0  0  0  0  0  0  0  0  0
    4.9001    0.9386  -19.0225 O   0  0  0  0  0  0  0  0  0  0  0  0
    7.0074    1.1572  -18.0641 F   0  0  0  0  0  0  0  0  0  0  0  0
    5.8956   -0.7350  -17.7413 F   0  0  0  0  0  0  0  0  0  0  0  0
    5.2149    1.1204  -16.7831 F   0  0  0  0  0  0  0  0  0  0  0  0
    5.3443    4.6196  -18.0711 S   0  0  0  0  0  0  0  0  0  0  0  0
    6.5150   -0.3414  -23.8983 H   0  0  0  0  0  0  0  0  0  0  0  0
    6.1273   -2.1085  -22.1998 H   0  0  0  0  0  0  0  0  0  0  0  0
    6.1122    2.0329  -23.3403 H   0  0  0  0  0  0  0  0  0  0  0  0
    5.3720   -1.4904  -19.9237 H   0  0  0  0  0  0  0  0  0  0  0  0
    8.0037    3.0948  -21.8555 H   0  0  0  0  0  0  0  0  0  0  0  0
    8.5329    4.5626  -20.9654 H   0  0  0  0  0  0  0  0  0  0  0  0
    6.8015    5.9092  -22.1215 H   0  0  0  0  0  0  0  0  0  0  0  0
    7.8635    5.0892  -23.3158 H   0  0  0  0  0  0  0  0  0  0  0  0
    4.0722    3.5051  -22.7322 H   0  0  0  0  0  0  0  0  0  0  0  0
    4.4839    5.0080  -21.8387 H   0  0  0  0  0  0  0  0  0  0  0  0
    7.3230    5.4689  -19.1672 H   0  0  0  0  0  0  0  0  0  0  0  0
    5.8388    5.7875  -20.1276 H   0  0  0  0  0  0  0  0  0  0  0  0
    7.0258    3.0003  -19.6410 H   0  0  0  0  0  0  0  0  0  0  0  0
    3.2036    2.9690  -20.4479 H   0  0  0  0  0  0  0  0  0  0  0  0
    2.7656    3.9823  -17.1849 H   0  0  0  0  0  0  0  0  0  0  0  0
    2.0560    3.1493  -18.5275 H   0  0  0  0  0  0  0  0  0  0  0  0
  1  2  1  0  0  0  0
  1  3  2  0  0  0  0
  2  4  2  0  0  0  0
  3  5  1  0  0  0  0
  4  6  1  0  0  0  0
  5  6  2  0  0  0  0
  5 13  1  0  0  0  0
  6 18  1  0  0  0  0
  7 15  2  0  0  0  0
  7 16  1  0  0  0  0
  7 22  1  0  0  0  0
  8  9  1  0  0  0  0
  8 12  1  0  0  0  0
  9 17  1  0  0  0  0
 10 13  1  0  0  0  0
 10 17  1  0  0  0  0
 11 12  1  0  0  0  0
 11 22  1  0  0  0  0
 12 13  1  0  0  0  0
 13 15  1  0  0  0  0
 14 18  1  0  0  0  0
 14 19  1  0  0  0  0
 14 20  1  0  0  0  0
 14 21  1  0  0  0  0
  1 23  1  0  0  0  0
  2 24  1  0  0  0  0
  3 25  1  0  0  0  0
  4 26  1  0  0  0  0
  8 27  1  0  0  0  0
  8 28  1  0  0  0  0
  9 29  1  0  0  0  0
  9 30  1  0  0  0  0
 10 31  1  0  0  0  0
 10 32  1  0  0  0  0
 11 33  1  0  0  0  0
 11 34  1  0  0  0  0
 12 35  1  0  0  0  0
 15 36  1  0  0  0  0
 16 37  1  0  0  0  0
 16 38  1  0  0  0  0
M  CHG  1  15   1
M  END
> <OMEGA_C>
lqXFQGyulb2ERLfByey+QF4Nib/JlK/BK1S+QP5Xoz8ys7TBN3yxQICTN7/IQaXBZyGwQLCA1T/V
VarBph+rQATLIz+0aaLBpEaAQAQVckBgrpbB6oj1QKyWgUDbXavBYiDjQFf3nUA1VLTBnM2bQAZU
gUBPkbHBaabLQD+OoUCICZzB867TQFjScECJjaLBTCWpQCnXS0A3lKfBTMW4QIRlGz9LRo/BuBOC
QOMWU0DcfKDBxGU1QJTjZ0Dj7JDBn1m+QBuIiUAu/7jBRM2cQBhJcD/7LZjBXjzgQCoflD9Cg5DB
fqi8QPwmPL8u7o3BeeCmQF1qjz/MQ4bBGwSrQMjTk0CWkZDByXrQQL7Frr7DL7/B/BLEQAbxBsBH
mbHBLJfDQH4aAkDsuLrBc+erQAnGvr+sY5/BSg8AQeERRkAU2K7BlIYIQdcAkkAMuafBHqbZQM8X
vUDB+LDB56H7QMraokDYhrrBP0+CQElTYECK27XB1HuPQLpBoEClta7Bp1XqQFcBr0BtVpnBg9e6
QF8zuUBtBaHBXtPgQFsEQEDMIJ3B7AdNQFoDPkBLlaPBEAAxQFHefkCkeonBopUDQJqOSUBHOJTB
z8uRQFyQ1L4tvLDBaHS4QEWQjL+8Ia/BGMuOQJfsdD+1Va7BxgXcQLQ+0r7KEqvBLmCyQOhO2D+D
RqrBEYDZQCyZdj9tg6jBz5qAQAZcckC5tJbBTcz0QFZ4i0B5jqvBDsXfQJzboECsObXBb72bQCqa
fkCMwbHBnTjGQPvFqEDVz5zBXPjSQHxtf0DqsqLB+eKqQIyBTUDWf6fBHywHQbxolT/tdZrBnHyE
QObvTEAGG6DB9JU0QM7KaUC3N5HBnEm+QH6chUB9QLnBbWL+QB5EyD9D36TBiavuQFo8OT+R2pPB
0b4QQbKBD0C2xpXBgCsWQV5DUj5p15vBpcCoQJ3EmECBA5HBL41sQApYcb810bPBOdK6QJKSCcD/
A7HB5YNhQHzFuz/yma/B0cn5QO5gcL/q4qnBxnUCQZoPXEAVNa7BEUMGQWaKoUCXHqjBJRvSQMbS
v0DizrLBId33QGQApkCvgrvBwVCCQIlaWUDhrLXBIBOPQO+4nkDpXa/BUfziQArUukB6f5rBO/ax
QFvIvEA7/KHBK7DiQNOJVECX7pzB/vNVQN0uLEDmqqLBVGksQOqtg0BLMorBbn0FQMULRkCtR5TB
+LawQO79y70cwbfB8Da8QLbpgr+sy6/BqAqrQGgToT8rKrXBNv/BQJXVFr+ONKXBvvuwQOoH3T87
g6rB1JC8QAULRj8NeqLBEFmAQE70cUDUo5bBoA/1QIVlhEA8k6vBqPvhQGntnkADwbTBRuOaQFdW
g0DKRbHBICnKQP7IpEB0SZzBfJnTQMaYd0CLrqLBHGOpQEOBTkC1hqfBut/rQJxEcT+HNJPBSFmD
QDqrTUAmH6DBz000QBENakDSE5HB3PC8QLFWiUDf/rjBnqvBQHR6lT+36ZfBf/0FQSPwgT9zmprB
sCztQIyFh777QI7BHMbyQLR79D8xwovBLC2qQED+lUD5s5DBfjSsQMKn3b4W5b/B+5rAQL4XBMC5
z7HBhAiiQEV0+j/6W7vBkqrKQD21pr8GF5/B5iYAQUQwS0B6xq7Boh0IQTf1lUB9G6jB65LYQHGe
vkBJu7HBrgP6QMi7okD9HLvBLpZ/QDf7ZkBpQbXBcrKQQGDbokDzS67BSVfoQD+Js0BmqJnBOVW4
QAyQu0BHTaHBHW3hQFRzSEC1Ip3BN/9SQKsKLkAdsaLBFOstQA2JgkCR3onBpZsDQDJVSUBPRpTB

> <OMEGA_E>
bO5PP9TuXD+ITF0/

> <OMEGA_NBR>
     15232

$$$$
50322752
  -OEChem-04172616093D

 31 33  0     1  0  0  0  0  0999 V2000
    4.6264    0.6557  -20.4379 C   0  0  0  0  0  0  0  0  0  0  0  0
    4.8118   -0.7345  -20.3845 C   0  0  0  0  0  0  0  0  0  0  0  0
    6.6433   -0.5512  -21.9715 C   0  0  0  0  0  0  0  0  0  0  0  0
    5.4614    1.4797  -21.2459 C   0  0  0  0  0  0  0  0  0  0  0  0
    5.8244   -1.3376  -21.1445 C   0  0  0  0  0  0  0  0  0  0  0  0
    6.4734    0.8452  -22.0284 C   0  0  0  0  0  0  0  0  0  0  0  0
    4.2076    3.5803  -19.0171 C   0  0  0  0  0  0  0  0  0  0  0  0
    6.3223    5.1831  -21.2273 C   0  0  0  0  0  0  0  0  0  0  0  0
    5.0567    3.6810  -22.5639 C   0  0  0  0  0  0  0  0  0  0  0  0
    7.0258    3.5412  -19.3389 C   0  0  0  0  0  0  0  0  0  0  0  0
    6.5965    3.7398  -20.8009 C   0  0  1  0  0  0  0  0  0  0  0  0
    5.3044    3.0243  -21.1953 C   0  0  2  0  0  0  0  0  0  0  0  0
    4.1580    3.4280  -20.3201 N   0  3  0  0  0  0  0  0  0  0  0  0
    3.0070    3.6116  -18.3265 N   0  0  0  0  0  0  0  0  0  0  0  0
    5.4645    5.0758  -22.4057 O   0  0  0  0  0  0  0  0  0  0  0  0
    6.0125   -2.6738  -21.0786 F   0  0  0  0  0  0  0  0  0  0  0  0
    7.3046    1.5413  -22.8385 F   0  0  0  0  0  0  0  0  0  0  0  0
    5.6968    3.7934  -18.1031 S   0  0  0  0  0  0  0  0  0  0  0  0
    3.8370    1.1085  -19.8564 H   0  0  0  0  0  0  0  0  0  0  0  0
    4.1741   -1.3402  -19.7576 H   0  0  0  0  0  0  0  0  0  0  0  0
    7.4101   -1.0219  -22.5689 H   0  0  0  0  0  0  0  0  0  0  0  0
    5.8084    5.7320  -20.4244 H   0  0  0  0  0  0  0  0  0  0  0  0
    7.2619    5.6965  -21.4792 H   0  0  0  0  0  0  0  0  0  0  0  0
    5.6601    3.1896  -23.3413 H   0  0  0  0  0  0  0  0  0  0  0  0
    3.9918    3.6197  -22.8329 H   0  0  0  0  0  0  0  0  0  0  0  0
    7.4029    2.5136  -19.2301 H   0  0  0  0  0  0  0  0  0  0  0  0
    7.8349    4.2538  -19.1206 H   0  0  0  0  0  0  0  0  0  0  0  0
    7.4027    3.3502  -21.4399 H   0  0  0  0  0  0  0  0  0  0  0  0
    3.2792    3.5959  -20.7667 H   0  0  0  0  0  0  0  0  0  0  0  0
    3.0032    3.7523  -17.3365 H   0  0  0  0  0  0  0  0  0  0  0  0
    2.1443    3.4935  -18.8181 H   0  0  0  0  0  0  0  0  0  0  0  0
  1  2  1  0  0  0  0
  1  4  2  0  0  0  0
  2  5  2  0  0  0  0
  3  5  1  0  0  0  0
  3  6  2  0  0  0  0
  4  6  1  0  0  0  0
  4 12  1  0  0  0  0
  5 16  1  0  0  0  0
  6 17  1  0  0  0  0
  7 13  2  0  0  0  0
  7 14  1  0  0  0  0
  7 18  1  0  0  0  0
  8 11  1  0  0  0  0
  8 15  1  0  0  0  0
  9 12  1  0  0  0  0
  9 15  1  0  0  0  0
 10 11  1  0  0  0  0
 10 18  1  0  0  0  0
 11 12  1  0  0  0  0
 12 13  1  0  0  0  0
  1 19  1  0  0  0  0
  2 20  1  0  0  0  0
  3 21  1  0  0  0  0
  8 22  1  0  0  0  0
  8 23  1  0  0  0  0
  9 24  1  0  0  0  0
  9 25  1  0  0  0  0
 10 26  1  0  0  0  0
 10 27  1  0  0  0  0
 11 28  1  0  0  0  0
 13 29  1  0  0  0  0
 14 30  1  0  0  0  0
 14 31  1  0  0  0  0
M  CHG  1  13   1
M  END
> <OMEGA_C>
QQuUQJjbJz/ngKPB3fmZQLQHPL9rE6PBNJbUQCwbDb+nxa/BhsOuQJxlvT+D96nBKmG6QE42q7/w
J6nBOibPQHZeWD9COrDB1qSGQCUjZUD5IpjB/0/KQPHbpUCM0anBP9ChQDuWa0DegrTBD9PgQJuj
YkD+tZrBohbTQPJYb0AsaKbByL2pQAaOQUAGkKnBdQ6FQOFjW0CBj6LBe3NAQB4kZ0C9nJLB/dyu
QMZsokDpPrPBOWbAQNsfK8DpoKjBaL/pQGtIxT8+tbbBCky2QHPHckA905DBl5B1QD3kjT/52Z7B
jpKFQOyLq7+YD57Bfh/tQMbNgr8tjbTBiN65QDRst0AhZaPB1GHoQIxJtkBs1avBqR+1QJciTED7
urrBInp/QNCpZ0DBqbbBPuTsQFzfIEA+15nBXLf6QMkeiED99pjBueLsQExqVkDfhKvBF95RQNoj
ZkAcIqbBrDRAQFElcEAgsYrBnjsJQDOVX0CBi5bB4hDRQHcHaj/c7a/BEonYQNa28L62Y7DBZrWc
QM1lWb/GXKTBuk2vQB6+uT9WpanBCHW+QNDurL90karBFpOUQBZVCD/+56PBIn6GQNjdZkB+BZjB
YD3LQDbXpED2G6rBWNiiQKBSZ0CkUrTBqhvhQA5GZUDEd5rB+knTQLTxbUDGOqbB3sGpQATDP0Bq
NKnBFkSFQFzHXEBQbqLB2pw/QAZUakD8nZLBRlytQIfRoECsCLPBhGnFQD63K8CwB6vBVbtkQIgJ
aj/ACJ7BBv+1QO1obUDWgpDBAl7lQI6Oyj96b7TBHV3yQItKW78AOrXB0sGIQMr0w78T45/Bbx69
QOk/uEAfrKPBi0/pQFWqs0BNyqzBJxy4QDI/SUAcPrrBsV6BQNyoX0CX3rbBh3nwQIBqJkDIfpnB
BoD4QK0NjEBoxpjB9APtQAXhUkA7MavBrjpTQNWVaUAhIKbBI8w+QLdlcEBhp4rB6pkIQL3BZkBY
rpbB

> <OMEGA_E>
oPXoPQAdDj4=

> <OMEGA_NBR>
     16687

$$$$
278174
  -OEChem-04172616093D

 34 36  0     1  0  0  0  0  0999 V2000
    6.2719    0.7252  -22.3116 C   0  0  0  0  0  0  0  0  0  0  0  0
    6.1204   -0.6631  -22.4775 C   0  0  0  0  0  0  0  0  0  0  0  0
    5.0846   -0.8160  -20.2933 C   0  0  0  0  0  0  0  0  0  0  0  0
    5.8331    1.3873  -21.1227 C   0  0  0  0  0  0  0  0  0  0  0  0
    5.5135   -1.4315  -21.4742 C   0  0  0  0  0  0  0  0  0  0  0  0
    5.2631    0.5636  -20.0996 C   0  0  0  0  0  0  0  0  0  0  0  0
    6.5240    3.5100  -18.5357 C   0  0  0  0  0  0  0  0  0  0  0  0
    4.9232    5.3049  -20.9874 C   0  0  0  0  0  0  0  0  0  0  0  0
    5.8004    5.6538  -22.1910 C   0  0  0  0  0  0  0  0  0  0  0  0
    6.8497    3.5044  -22.1621 C   0  0  0  0  0  0  0  0  0  0  0  0
    3.8538    3.5317  -19.5987 C   0  0  0  0  0  0  0  0  0  0  0  0
    4.6886    3.7661  -20.8704 C   0  0  2  0  0  0  0  0  0  0  0  0
    6.0386    2.9388  -20.9381 C   0  0  1  0  0  0  0  0  0  0  0  0
    6.9144    3.1697  -19.7477 N   0  3  0  0  0  0  0  0  0  0  0  0
    7.5051    3.6591  -17.5667 N   0  0  0  0  0  0  0  0  0  0  0  0
    7.0338    4.9278  -22.0887 O   0  0  0  0  0  0  0  0  0  0  0  0
    5.3602   -2.7648  -21.6324 F   0  0  0  0  0  0  0  0  0  0  0  0
    4.9276    1.0299  -18.8855 F   0  0  0  0  0  0  0  0  0  0  0  0
    4.8357    3.7881  -18.0461 S   0  0  0  0  0  0  0  0  0  0  0  0
    6.7300    1.3042  -23.0998 H   0  0  0  0  0  0  0  0  0  0  0  0
    6.4729   -1.1389  -23.3808 H   0  0  0  0  0  0  0  0  0  0  0  0
    4.6118   -1.4074  -19.5231 H   0  0  0  0  0  0  0  0  0  0  0  0
    5.4171    5.6608  -20.0712 H   0  0  0  0  0  0  0  0  0  0  0  0
    3.9504    5.8064  -21.0980 H   0  0  0  0  0  0  0  0  0  0  0  0
    5.2822    5.3736  -23.1199 H   0  0  0  0  0  0  0  0  0  0  0  0
    6.0065    6.7342  -22.1977 H   0  0  0  0  0  0  0  0  0  0  0  0
    7.8377    3.0214  -22.1843 H   0  0  0  0  0  0  0  0  0  0  0  0
    6.3043    3.2663  -23.0872 H   0  0  0  0  0  0  0  0  0  0  0  0
    3.0058    4.2324  -19.5994 H   0  0  0  0  0  0  0  0  0  0  0  0
    3.4759    2.4987  -19.6103 H   0  0  0  0  0  0  0  0  0  0  0  0
    4.0772    3.4599  -21.7320 H   0  0  0  0  0  0  0  0  0  0  0  0
    7.8980    3.0538  -19.8858 H   0  0  0  0  0  0  0  0  0  0  0  0
    7.2515    3.9139  -16.6335 H   0  0  0  0  0  0  0  0  0  0  0  0
    8.4659    3.5118  -17.8012 H   0  0  0  0  0  0  0  0  0  0  0  0
  1  2  1  0  0  0  0
  1  4  2  0  0  0  0
  2  5  2  0  0  0  0
  3  5  1  0  0  0  0
  3  6  2  0  0  0  0
  4  6  1  0  0  0  0
  4 13  1  0  0  0  0
  5 17  1  0  0  0  0
  6 18  1  0  0  0  0
  7 14  2  0  0  0  0
  7 15  1  0  0  0  0
  7 19  1  0  0  0  0
  8  9  1  0  0  0  0
  8 12  1  0  0  0  0
  9 16  1  0  0  0  0
 10 13  1  0  0  0  0
 10 16  1  0  0  0  0
 11 12  1  0  0  0  0
 11 19  1  0  0  0  0
 12 13  1  0  0  0  0
 13 14  1  0  0  0  0
  1 20  1  0  0  0  0
  2 21  1  0  0  0  0
  3 22  1  0  0  0  0
  8 23  1  0  0  0  0
  8 24  1  0  0  0  0
  9 25  1  0  0  0  0
  9 26  1  0  0  0  0
 10 27  1  0  0  0  0
 10 28  1  0  0  0  0
 11 29  1  0  0  0  0
 11 30  1  0  0  0  0
 12 31  1  0  0  0  0
 14 32  1  0  0  0  0
 15 33  1  0  0  0  0
 15 34  1  0  0  0  0
M  CHG  1  14   1
M  END
> <OMEGA_C>
dbPIQLyoOT8OfrLBq9rDQBDEKb/x0bPBWbWiQBzoUL+WWKLBnKi6QAWUsT9i+6jBU26wQL88t785
y6vBmmuoQGBHED8UzKDBBMXQQHykYEAHSZTByoqdQIfBqUAj5qfBoZy5QJDrtEAZh7HBoDDbQGdH
YEACTLHBvqR2QJYHYkANypzB1wiWQG8HcUB+9qbBWDzBQEAVPEAygafBvkLdQAfcSkBa+53BdCnw
QAAvakCUiIzBrxThQOqwnUCetbDBmIarQDvyMMAuD63Bjq6dQCTTgz9/FZfBp72aQKdwckBvXpDB
9VvXQObwpj9kzLjBvyHPQLTGkb/RC7vBF5STQKAmtL9YL5zBL1mtQE4ltUDckaDBqNN8QKDNuUCm
yKjBwQepQGT0q0Cl9bjBYjXAQPB+10DKlLHBrM76QBxeQUB1ebHB0rzJQFQKUUCrsrjBsV9AQMhv
h0CFy5zBJHVeQDbrH0Dv4ZzBnXiCQFpvXUA8263BlLz8QIdxQ0AXFp/BYAzoQPx9ekB6EYXBhXQH
QSTBYEDWaI7Bpbu9QIYlHj8dDqHBon64QKHKP79yZKPBTTOsQIfTT74oF7bB5Aa7QFRjzT/LOqnB
SBKwQJaTlL947q3B0A2xQKyMlT8H1bPB1WbbQPlSZEAOXZPBYpmRQCZap0CZ6aTBzleaQH5xskDp
ybDBOm3UQK/KfUCNZa/Bk0GEQK3KU0ANyJfBpsOSQGlibEAwKqPBSBPAQHjoRkAgJqbBeTPhQLQm
TUAqZZ3BTAn/QAHXaEBjx4zBxuyzQBIqkkCWGLbBH02rQJ9ZHsB1OLDBYbirQPPHAUCpDrzBC0ip
QIwvfUDZyY3BierDQAdYbD/R6ZjBnvO6QGzCvb9DFJ3BJXClQNdfBb8jLL7BjTKqQGt7tkCM4Z/B
rbljQHCTs0CYpKLB6BV3QJRQtUDt/LTBg2yrQJQv0UBtKLHBBx7oQExjmEAf2avBcLfoQNwiVEA2
W7TByIBIQCadbkAITpbBZ/CCQMKhDUBWIpfBBlN3QIEHUEB0x6jBuij/QKDbPUAZdZ/BNr/7QObV
eUAtHIXBVQMOQdwZW0Ddso/B1KaUQBj7Fz+Vr6PBGiaZQAeRS780E6XB6OLVQHvQ174727DBrPaw
QONFwT9dzqjBVM65QPgBp78moKvBeojRQHMgeT8dkK/BPGevQIBBkkBh3LfBwFvZQMXoWEDux5bB
6FKwQKnPbkBIg5DB32CEQD10W0C3S6DBAgXVQGg4qEB0dqTBz/XUQDBubkBx3qLBgiyrQP6VQ0DS
qKfBHEyfQOp9YkDrrLLBJqyfQNM6m0Bh/cHBUSuMQB3cQ0A0QJXBU/i9QGQIKcBc9azBnYDsQJuu
4z/eFLXBZODXQPdus0D/tLLBNp52QLrqeD8Zp57BmmuDQCVavL90F6HBNvnuQNdgUL/d5rXB5ib0
QDvlfUBOb5PBEPffQPkaFEAt65XBxOqzQN7iWUCfKIjBuAarQG0xmkDEvJDBbfJ9QBd3kEAovKDB
SXBPQFCZOUCoKKPBoXu3QPX1tUAAIaHBYePwQBFGtkDXZKDBUsLwQLSHU0CPF6fBhaGIQIArQUAZ
fbbBl1yrQMb5s0C0IsbB8KOIQGL0iEDDJcXBnvjQQH0Ygj+jaK/Byx7XQKAju74nCrHBii6aQF0S
V7+Gm6XBepevQIWOwD/htqjBur+7QFaupb/MGazBo5mTQMVLCT9b7aPBJ6muQPtPkkBDyrfB9O7Z
QEWSVkBT9pbBNcixQGp2b0Bqe5DB06iEQHWVYEB0KqDBQDTWQHtrp0DGiaTBZP7UQOeYbECgCaPB
QVeqQCHQQ0AflKfBBN2eQEoXYkADpLLBz4OeQEKJm0Dj3MHB/0uMQOGlSEA8G5XBDkPBQGPTJ8DU
p63BvjFjQIe6XD9NzZ3B8orXQJNSs0ABwLLBTAfmQK8V3D8ZUrPB2+TwQIruNb8RF7bBLhuFQK8Y
x7/b2KHBsqf1QGt8eUBCvpPBQVHfQH5PEUAiJJbBUXW1QNs8WUDPLojBQx6uQBi9mkC2j5DBvESB
QONFk0BGqKDB9uFNQCz4QUAW7KLBFIC5QDTPtUCX7qDBBfXyQK6GtEAyqaDBNSLwQJdzUEBGZqfB
FL6IQKjdP0BEh7bBCyKqQGZMtEDYA8bB50CHQOZsiUBz+cTB

> <OMEGA_E>
gOB2P5Tfgj8ux08/XiJZPw==

> <OMEGA_NBR>
     19532

$$$$
278181
  -OEChem-04172616093D

 37 39  0     1  0  0  0  0  0999 V2000
    4.7236   -0.7872  -20.4920 C   0  0  0  0  0  0  0  0  0  0  0  0
    5.7471   -1.4021  -21.2306 C   0  0  0  0  0  0  0  0  0  0  0  0
    4.6036    0.6135  -20.4794 C   0  0  0  0  0  0  0  0  0  0  0  0
    6.6527   -0.6151  -21.9600 C   0  0  0  0  0  0  0  0  0  0  0  0
    5.5091    1.4324  -21.2100 C   0  0  0  0  0  0  0  0  0  0  0  0
    6.5430    0.7885  -21.9589 C   0  0  0  0  0  0  0  0  0  0  0  0
    4.1878    3.5661  -19.0026 C   0  0  0  0  0  0  0  0  0  0  0  0
    6.7705    5.1320  -20.6440 C   0  0  0  0  0  0  0  0  0  0  0  0
    6.4647    5.5550  -22.0893 C   0  0  0  0  0  0  0  0  0  0  0  0
    5.1708    3.5701  -22.5384 C   0  0  0  0  0  0  0  0  0  0  0  0
    6.7373    3.5802  -20.5279 C   0  0  1  0  0  0  0  0  0  0  0  0
    6.9459    3.0463  -19.0908 C   0  0  1  0  0  0  0  0  0  0  0  0
    5.4160    2.9837  -21.1193 C   0  0  2  0  0  0  0  0  0  0  0  0
    8.3061    3.4660  -18.5264 C   0  0  0  0  0  0  0  0  0  0  0  0
    4.2227    3.4220  -20.3123 N   0  3  0  0  0  0  0  0  0  0  0  0
    2.9503    3.6810  -18.3915 N   0  0  0  0  0  0  0  0  0  0  0  0
    5.1930    5.0121  -22.4986 O   0  0  0  0  0  0  0  0  0  0  0  0
    7.4523    1.4841  -22.6818 F   0  0  0  0  0  0  0  0  0  0  0  0
    5.6210    3.6378  -17.9813 S   0  0  0  0  0  0  0  0  0  0  0  0
    4.0262   -1.3922  -19.9317 H   0  0  0  0  0  0  0  0  0  0  0  0
    5.8376   -2.4783  -21.2377 H   0  0  0  0  0  0  0  0  0  0  0  0
    3.8126    1.0747  -19.9068 H   0  0  0  0  0  0  0  0  0  0  0  0
    7.4398   -1.0903  -22.5266 H   0  0  0  0  0  0  0  0  0  0  0  0
    7.7684    5.4977  -20.3603 H   0  0  0  0  0  0  0  0  0  0  0  0
    6.0162    5.5644  -19.9701 H   0  0  0  0  0  0  0  0  0  0  0  0
    6.4292    6.6529  -22.1487 H   0  0  0  0  0  0  0  0  0  0  0  0
    7.2544    5.1771  -22.7552 H   0  0  0  0  0  0  0  0  0  0  0  0
    5.9588    3.2144  -23.2185 H   0  0  0  0  0  0  0  0  0  0  0  0
    4.1901    3.2329  -22.9053 H   0  0  0  0  0  0  0  0  0  0  0  0
    7.5652    3.1937  -21.1404 H   0  0  0  0  0  0  0  0  0  0  0  0
    6.8744    1.9486  -19.0973 H   0  0  0  0  0  0  0  0  0  0  0  0
    8.4186    3.0697  -17.5065 H   0  0  0  0  0  0  0  0  0  0  0  0
    9.1072    3.0663  -19.1655 H   0  0  0  0  0  0  0  0  0  0  0  0
    8.3698    4.5639  -18.5021 H   0  0  0  0  0  0  0  0  0  0  0  0
    3.3815    3.6215  -20.8150 H   0  0  0  0  0  0  0  0  0  0  0  0
    2.8912    3.8004  -17.4005 H   0  0  0  0  0  0  0  0  0  0  0  0
    2.1158    3.6445  -18.9414 H   0  0  0  0  0  0  0  0  0  0  0  0
  1  2  1  0  0  0  0
  1  3  2  0  0  0  0
  2  4  2  0  0  0  0
  3  5  1  0  0  0  0
  4  6  1  0  0  0  0
  5  6  2  0  0  0  0
  5 13  1  0  0  0  0
  6 18  1  0  0  0  0
  7 15  2  0  0  0  0
  7 16  1  0  0  0  0
  7 19  1  0  0  0  0
  8  9  1  0  0  0  0
  8 11  1  0  0  0  0
  9 17  1  0  0  0  0
 10 13  1  0  0  0  0
 10 17  1  0  0  0  0
 11 12  1  0  0  0  0
 11 13  1  0  0  0  0
 12 14  1  0  0  0  0
 12 19  1  0  0  0  0
 13 15  1  0  0  0  0
  1 20  1  0  0  0  0
  2 21  1  0  0  0  0
  3 22  1  0  0  0  0
  4 23  1  0  0  0  0
  8 24  1  0  0  0  0
  8 25  1  0  0  0  0
  9 26  1  0  0  0  0
  9 27  1  0  0  0  0
 10 28  1  0  0  0  0
 10 29  1  0  0  0  0
 11 30  1  0  0  0  0
 12 31  1  0  0  0  0
 14 32  1  0  0  0  0
 14 33  1  0  0  0  0
 14 34  1  0  0  0  0
 15 35  1  0  0  0  0
 16 36  1  0  0  0  0
 16 37  1  0  0  0  0
M  CHG  1  15   1
M  END
> <OMEGA_C>
7CeXQCyJSb+f76PB2ee3QC54s7882KnBGFGTQBIQHT/U1aPBhuLUQKR1Hb8nrq/Be0qwQARatz8P
rqnB31/RQDzYST/Kq6/BLgKGQAI7ZEA9BZjBy6fYQGY5pEDtJqXB0N7OQMzCsUDgtrDBF3elQNF8
ZEC8TrTBv5fXQDghZUAqOaTB/UTeQG/2QkDruZjB1E+tQJD0PkBP9KjBxuUEQZLTXUAkNpTBVCCH
QEcBW0Cpf6LBkNE8QCyVa0DjIZPBrSymQFBjoEAO/bPBgnnuQM/3vT9RdLXB2d6zQFvSaECp2Y/B
nNaAQCk1sr8OdJ/B3826QBWcHsDI5qnBHwF0QOiOiT8HQZ/BkBLuQK6Pi795NrTBfZb4QDftr0Dq
4aLBEoXAQIQPskC+wp/BVLzNQCbk1ECUMLHBRCToQMGqpUDACrbBWq6+QG+4TUCMv7nBZxWGQO7n
TkABPrfBIxbyQPxkTECSH6nB2/rbQAdt+T87x5jBrrIGQVF1REBcDYzBQLcRQXk+REDtUpnB2+oF
QaMLkkBRBJTBJ2tYQJbGZ0ANhabB/Qg5QME5c0AmNIvB92kHQK0/aUAKiJfBHU7YQCpHBL9+SLDB
1Ei9QEstsr8BsarBz03RQACqXj+4y6/BIg6bQN4VYb94rqTB3juvQAKYtT9dqanBKqGTQOs1Aj/H
H6TBFaqFQJXqZUBI45fB1vzYQJ0jo0D6L6XBwYDPQHLNsEDdvrDBsmSlQMUpY0AxPbTBQOjWQDz6
YkDTOqTBVNDdQNQvQUBRupjBAwisQB5EPkBKzajBBb0EQeM7XEC6SpTBU32GQO9LXUAHYaLBalQ8
QAeabEBk65LBXrymQP7En0BJEbTBDptjQC7RaD+uM57BiLmzQFt+Z0BHwY/BgIDyQESlaL8N97TB
ZsvCQPxGHcASAqvB4jvmQKwvxD/WK7TBZiyGQCxCx7+pb6DB7ib5QOQyrkDS66LBHiPBQAaCsUDF
zZ/BOKbOQHLx00C0NbHBTMToQKeKpEAvDbbBMuG+QGktS0BFhLnBoxqGQAI3TkDYTbfB0uvwQMkF
SUAHManBrYDbQKTg9T/hu5jBkaMGQesoQ0DDH4zBin4RQUl4QkDUbZnBaMIFQZ9AkUDQI5TBbs9X
QO6zbEDiZKbB5Oc4QGcackDq9YrBpL4GQLTsa0AES5fB

> <OMEGA_E>
QEJPPcAgsj0=

> <OMEGA_NBR>
     21153

$$$$
278182
  -OEChem-04172616093D

 37 39  0     1  0  0  0  0  0999 V2000
    4.5365   -0.7310  -20.5827 C   0  0  0  0  0  0  0  0  0  0  0  0
    5.5655   -1.3780  -21.2843 C   0  0  0  0  0  0  0  0  0  0  0  0
    4.5098    0.6726  -20.5017 C   0  0  0  0  0  0  0  0  0  0  0  0
    6.5710   -0.6197  -21.9063 C   0  0  0  0  0  0  0  0  0  0  0  0
    5.5235    1.4640  -21.1138 C   0  0  0  0  0  0  0  0  0  0  0  0
    6.5585    0.7872  -21.8302 C   0  0  0  0  0  0  0  0  0  0  0  0
    4.1833    3.5867  -18.9752 C   0  0  0  0  0  0  0  0  0  0  0  0
    6.7769    5.2298  -20.7446 C   0  0  0  0  0  0  0  0  0  0  0  0
    6.5004    5.5210  -22.2203 C   0  0  0  0  0  0  0  0  0  0  0  0
    5.2058    3.5163  -22.5034 C   0  0  0  0  0  0  0  0  0  0  0  0
    6.7678    3.7024  -20.4789 C   0  0  1  0  0  0  0  0  0  0  0  0
    7.0145    3.4653  -18.9680 C   0  0  2  0  0  0  0  0  0  0  0  0
    5.4579    3.0202  -21.0471 C   0  0  2  0  0  0  0  0  0  0  0  0
    7.4021    2.0151  -18.6453 C   0  0  0  0  0  0  0  0  0  0  0  0
    4.2557    3.4856  -20.2840 N   0  3  0  0  0  0  0  0  0  0  0  0
    2.9301    3.5114  -18.3881 N   0  0  0  0  0  0  0  0  0  0  0  0
    5.2291    4.9537  -22.5795 O   0  0  0  0  0  0  0  0  0  0  0  0
    7.5445    1.4567  -22.4721 F   0  0  0  0  0  0  0  0  0  0  0  0
    5.5663    3.9336  -17.9391 S   0  0  0  0  0  0  0  0  0  0  0  0
    3.7629   -1.3127  -20.1036 H   0  0  0  0  0  0  0  0  0  0  0  0
    5.5842   -2.4561  -21.3457 H   0  0  0  0  0  0  0  0  0  0  0  0
    3.7073    1.1585  -19.9665 H   0  0  0  0  0  0  0  0  0  0  0  0
    7.3607   -1.1195  -22.4476 H   0  0  0  0  0  0  0  0  0  0  0  0
    7.7618    5.6380  -20.4740 H   0  0  0  0  0  0  0  0  0  0  0  0
    6.0002    5.7083  -20.1300 H   0  0  0  0  0  0  0  0  0  0  0  0
    6.4782    6.6086  -22.3837 H   0  0  0  0  0  0  0  0  0  0  0  0
    7.2920    5.0733  -22.8392 H   0  0  0  0  0  0  0  0  0  0  0  0
    5.9890    3.1103  -23.1605 H   0  0  0  0  0  0  0  0  0  0  0  0
    4.2223    3.1558  -22.8392 H   0  0  0  0  0  0  0  0  0  0  0  0
    7.6194    3.2686  -21.0236 H   0  0  0  0  0  0  0  0  0  0  0  0
    7.8309    4.1265  -18.6419 H   0  0  0  0  0  0  0  0  0  0  0  0
    7.5633    1.9104  -17.5622 H   0  0  0  0  0  0  0  0  0  0  0  0
    6.5933    1.3403  -18.9624 H   0  0  0  0  0  0  0  0  0  0  0  0
    8.3273    1.7552  -19.1804 H   0  0  0  0  0  0  0  0  0  0  0  0
    3.4448    3.7392  -20.8114 H   0  0  0  0  0  0  0  0  0  0  0  0
    2.8301    3.6524  -17.4031 H   0  0  0  0  0  0  0  0  0  0  0  0
    2.1258    3.3162  -18.9494 H   0  0  0  0  0  0  0  0  0  0  0  0
  1  2  1  0  0  0  0
  1  3  2  0  0  0  0
  2  4  2  0  0  0  0
  3  5  1  0  0  0  0
  4  6  1  0  0  0  0
  5  6  2  0  0  0  0
  5 13  1  0  0  0  0
  6 18  1  0  0  0  0
  7 15  2  0  0  0  0
  7 16  1  0  0  0  0
  7 19  1  0  0  0  0
  8  9  1  0  0  0  0
  8 11  1  0  0  0  0
  9 17  1  0  0  0  0
 10 13  1  0  0  0  0
 10 17  1  0  0  0  0
 11 12  1  0  0  0  0
 11 13  1  0  0  0  0
 12 14  1  0  0  0  0
 12 19  1  0  0  0  0
 13 15  1  0  0  0  0
  1 20  1  0  0  0  0
  2 21  1  0  0  0  0
  3 22  1  0  0  0  0
  4 23  1  0  0  0  0
  8 24  1  0  0  0  0
  8 25  1  0  0  0  0
  9 26  1  0  0  0  0
  9 27  1  0  0  0  0
 10 28  1  0  0  0  0
 10 29  1  0  0  0  0
 11 30  1  0  0  0  0
 12 31  1  0  0  0  0
 14 32  1  0  0  0  0
 14 33  1  0  0  0  0
 14 34  1  0  0  0  0
 15 35  1  0  0  0  0
 16 36  1  0  0  0  0
 16 37  1  0  0  0  0
M  CHG  1  15   1
M  END
> <OMEGA_C>
oyqRQKgfO79QqaTB7xiyQLRisL84RqrB7U+QQBQuLD9mA6TB1kXSQC+nHr8MQK/BzMCwQIJluz/2
6KjBRN/RQMaDST8zpK7B1d2FQNmMZUBCzZfBY9zYQJRap0D89KXBMwPQQCassEBDw7HBOJamQF8K
YUD0BrTBBpLYQJjzbEDM1KPBGXfgQOfGXUBhvpfBQKeuQDZLQUCJYKjBvd3sQAT3AECcKZXBBi+I
QPYTX0CwRaLB/YU7QGu7YEC/GpPBolSnQHSEnkDJorTBSWzxQLZ1uj/KxrPBxh6yQDHAe0BVg4/B
0tJwQCwIqL9A1KDB8rGyQMAwHcAVxKrB6URtQJVJlD9ku5/B7YrrQPdKj7+8lLPBEGH4QH5qtECp
yqPBngHAQHCqtkA6CqHBf03PQIt500DeEbPBF1jpQMxYokCatrbBC6a/QHwOR0C2SLnBAx2HQEP5
SUCYtrbBCtLzQPEwUUBWMKjBGZf6QPQLhEClIpXBkwbyQCiH9D97f4zB9/vSQPqPqz8Cs5fBvDwF
QcKq4D+OcZnBXXhcQLZOb0DLfabB3h81QN3AaUCPOYvBkA0IQBY8VEBZmJfBPgHXQD4UBr/8/6/B
hc64QNoysb+BWqvB2snSQLpIXj8D1q7BqCGWQJjFWb8XoqXBriiwQIf5tz9wCKnBrSyRQL7qCj/s
hKTB952FQAC0ZkBSsJfBpMXYQFfZpUCM0qXBDebPQC/Ur0AcmLHBzjimQAakX0Db8rPBreDXQNar
aUCe2KPBJkTgQC0UWUCDz5fBb3CtQMaXP0BxRqjB2HnsQHu49z8tZZXBwZSHQJhYX0CiKKLBJAA7
QGJxZUCZ9ZLBiDSnQLvanUBzirTB8TZcQAajdj9gKp/B+HeyQHTudkAXXo/BZ4fxQL1qbr85erTB
+jq8QGoQHcD6LKzBMljqQMprwj+vbLLB4fp9QLgCwr+RC6LBEnv4QDZnskClpKPBvizAQCo9tUAY
16DBTTLPQNyz0kDPxrLBgDrpQGXIoUBYmLbBppK/QDiCRUBBG7nBkuGGQF/kSEBLxbbBm67yQMyK
TUBmVqjBGa36QLlegUCDN5XBBv3xQESZ6D9ewYzBOFjSQO99oj8r7JfBxOsEQcB71j+0x5nBXWJb
QFxZcEBmWqbBiU01QPGXbUB5DovBQdEGQBZiXEBNc5fBZEecQNUeLb+W4aXBQ4+6QHIfk78SOq3B
go6XQKRKND/tKaTB2THTQLAAcr49G7PBESuwQGqa1D+mAqrBxJDNQGJ1kz85xrHBNjWCQGH7Y0D6
W5bBKfvyQBhHjkB5dKvBUELaQIK0qUBmebPBc6aaQPUrfUAJG7LBimbUQHctd0DzzqLBf0/IQMB9
n0D8wJrBTQSqQNGUTEDvz6fBONvtQMA5ukC0c5bB9KuCQMUSVkA5vaDBbwE3QClkY0Dx/JDBXWW8
QMRgjkB93LjBwnbjQD6r+T8pf7jBOD2vQDAhhEDYx4/BGYGIQDf7r79xhqHBaei+QPSIDcAIW67B
XciAQI11hj/lSJ7Bwb3qQLbgGb+it7jBVk4BQdqQZ0B+u6/BeLYFQYkhokDphafB5gjJQItVw0D6
P6/BlIDwQDvmt0B7TLnBQeeGQEf2UEAo2rbBjxOHQLQDmkCwj6/BVrDlQLPbREBQbZ7BfgGwQBqa
tEATUJ7BRrLhQDyF0kBI25DBRUYCQZUppUD2Q5LBQTP+QJ0eykAqKJ3BgHRMQGk9UUCpWqTBaeEz
QADHd0AyaonBxiwCQAOUTkC/rZTB+lywQGhSs729zLfBUTO8QJ4Ggb+51a/B1JWqQH/Foj8aOrXB
TuXBQEZjEr/1PaXBr5GwQPVw3j/8kqrBrdW7QEiYSD/7jaLB1nGAQG8ZcUCamJbBQv/0QE8QgkDX
06vBYDfiQHhDnkBAv7TBZr2aQCf9g0BiLLHBBhnUQAWEdUCvn6LBKOXKQIQQpEAuC5zBUlSpQODH
TkCOgafBNtTzQFamuUCftZfBTleDQA+qTUCFHaDB+HA0QG5YaUAvDJHBHWS8QLgXikBB/bjBN03A
QKETkj/jJ5jBd4KqQLyNlECri5DBzK2rQIIM2b4U7b/BfOjAQKQQA8B02bHBx36hQIER/D8ta7vB
DPnKQBzOo7/JH5/BRAT+QLLFRUDaO6/BjsoIQbjSkUCyiKjBU9bZQGfUvUDmdrHBCf75QEUqokCY
KbvBcLF+QOEEaUBdHrXBie6QQLh4o0AqGK7BjpLhQAd6RUC8JJ3By/G3QATUukBozKDBfhnrQFl9
1kASKZPBJHMCQfo0o0AgcZLBR1QEQYOfwkB2cJ7Ba9JSQE6HLkCJuqLBWmkuQB20gUCox4nB/VUD
QAaxSUBKUJTB

> <OMEGA_E>
kLaoPeAH2j3ovvI+BEU3Pw==

> <OMEGA_NBR>
     24157

$$$$
278185
  -OEChem-04172616093D

 45 48  0     1  0  0  0  0  0999 V2000
    5.8485   -1.4612  -21.3340 C   0  0  0  0  0  0  0  0  0  0  0  0
    5.6517   -0.7340  -22.5120 C   0  0  0  0  0  0  0  0  0  0  0  0
    5.6287    0.5928  -20.0563 C   0  0  0  0  0  0  0  0  0  0  0  0
    6.8219   -2.7783  -18.8595 C   0  0  0  0  0  0  0  0  0  0  0  0
    5.6349   -1.1046  -17.5838 C   0  0  0  0  0  0  0  0  0  0  0  0
    6.5721   -2.9771  -16.5468 C   0  0  0  0  0  0  0  0  0  0  0  0
    5.8502   -0.8019  -20.0902 C   0  0  0  0  0  0  0  0  0  0  0  0
    6.0963   -1.5655  -18.8377 C   0  0  0  0  0  0  0  0  0  0  0  0
    5.5470    1.3775  -21.2375 C   0  0  0  0  0  0  0  0  0  0  0  0
    5.5141    0.6641  -22.4850 C   0  0  0  0  0  0  0  0  0  0  0  0
    4.1922    3.5605  -19.0086 C   0  0  0  0  0  0  0  0  0  0  0  0
    6.7501    5.1767  -20.6349 C   0  0  0  0  0  0  0  0  0  0  0  0
    6.3878    5.6269  -22.0540 C   0  0  0  0  0  0  0  0  0  0  0  0
    5.1982    3.6183  -22.4944 C   0  0  0  0  0  0  0  0  0  0  0  0
    6.7665    3.6134  -20.4948 C   0  0  1  0  0  0  0  0  0  0  0  0
    7.0370    3.2049  -19.0101 C   0  0  1  0  0  0  0  0  0  0  0  0
    5.4520    2.9480  -21.1019 C   0  0  2  0  0  0  0  0  0  0  0  0
    8.2848    3.8796  -18.4059 C   0  0  0  0  0  0  0  0  0  0  0  0
    7.0465   -3.4637  -17.7191 N   0  0  0  0  0  0  0  0  0  0  0  0
    5.8784   -1.8155  -16.4621 N   0  0  0  0  0  0  0  0  0  0  0  0
    4.2348    3.2661  -20.2923 N   0  3  0  0  0  0  0  0  0  0  0  0
    2.9535    3.8625  -18.4629 N   0  0  0  0  0  0  0  0  0  0  0  0
    5.1337    5.0429  -22.4181 O   0  0  0  0  0  0  0  0  0  0  0  0
    5.3215    1.2472  -23.6878 F   0  0  0  0  0  0  0  0  0  0  0  0
    5.5932    3.5864  -17.9203 S   0  0  0  0  0  0  0  0  0  0  0  0
    5.9994   -2.5297  -21.3783 H   0  0  0  0  0  0  0  0  0  0  0  0
    5.6048   -1.2549  -23.4569 H   0  0  0  0  0  0  0  0  0  0  0  0
    5.5175    1.0796  -19.0986 H   0  0  0  0  0  0  0  0  0  0  0  0
    7.1998   -3.1595  -19.7967 H   0  0  0  0  0  0  0  0  0  0  0  0
    5.0839   -0.1777  -17.5225 H   0  0  0  0  0  0  0  0  0  0  0  0
    6.7543   -3.5381  -15.6421 H   0  0  0  0  0  0  0  0  0  0  0  0
    7.7480    5.5653  -20.3838 H   0  0  0  0  0  0  0  0  0  0  0  0
    6.0093    5.5874  -19.9330 H   0  0  0  0  0  0  0  0  0  0  0  0
    6.3075    6.7236  -22.0845 H   0  0  0  0  0  0  0  0  0  0  0  0
    7.1671    5.2967  -22.7567 H   0  0  0  0  0  0  0  0  0  0  0  0
    6.0173    3.3392  -23.1735 H   0  0  0  0  0  0  0  0  0  0  0  0
    4.2451    3.2441  -22.8963 H   0  0  0  0  0  0  0  0  0  0  0  0
    7.6139    3.2449  -21.0916 H   0  0  0  0  0  0  0  0  0  0  0  0
    7.1643    2.1133  -18.9636 H   0  0  0  0  0  0  0  0  0  0  0  0
    8.4136    3.5482  -17.3650 H   0  0  0  0  0  0  0  0  0  0  0  0
    9.1726    3.6001  -18.9921 H   0  0  0  0  0  0  0  0  0  0  0  0
    8.1586    4.9721  -18.4299 H   0  0  0  0  0  0  0  0  0  0  0  0
    3.3602    3.2539  -20.7770 H   0  0  0  0  0  0  0  0  0  0  0  0
    2.8759    4.0835  -17.4907 H   0  0  0  0  0  0  0  0  0  0  0  0
    2.1379    3.8592  -19.0416 H   0  0  0  0  0  0  0  0  0  0  0  0
  1  2  2  0  0  0  0
  1  7  1  0  0  0  0
  2 10  1  0  0  0  0
  3  7  2  0  0  0  0
  3  9  1  0  0  0  0
  4  8  1  0  0  0  0
  4 19  2  0  0  0  0
  5  8  2  0  0  0  0
  5 20  1  0  0  0  0
  6 19  1  0  0  0  0
  6 20  2  0  0  0  0
  7  8  1  0  0  0  0
  9 10  2  0  0  0  0
  9 17  1  0  0  0  0
 10 24  1  0  0  0  0
 11 21  2  0  0  0  0
 11 22  1  0  0  0  0
 11 25  1  0  0  0  0
 12 13  1  0  0  0  0
 12 15  1  0  0  0  0
 13 23  1  0  0  0  0
 14 17  1  0  0  0  0
 14 23  1  0  0  0  0
 15 16  1  0  0  0  0
 15 17  1  0  0  0  0
 16 18  1  0  0  0  0
 16 25  1  0  0  0  0
 17 21  1  0  0  0  0
  1 26  1  0  0  0  0
  2 27  1  0  0  0  0
  3 28  1  0  0  0  0
  4 29  1  0  0  0  0
  5 30  1  0  0  0  0
  6 31  1  0  0  0  0
 12 32  1  0  0  0  0
 12 33  1  0  0  0  0
 13 34  1  0  0  0  0
 13 35  1  0  0  0  0
 14 36  1  0  0  0  0
 14 37  1  0  0  0  0
 15 38  1  0  0  0  0
 16 39  1  0  0  0  0
 18 40  1  0  0  0  0
 18 41  1  0  0  0  0
 18 42  1  0  0  0  0
 21 43  1  0  0  0  0
 22 44  1  0  0  0  0
 22 45  1  0  0  0  0
M  CHG  1  21   1
M  END
> <OMEGA_C>
ACe7QOIJu7/uq6rBx9q0QPfoO7+PGLTBGR60QPHBFz86c6DBSE3aQBrQMcBb4JbBwFC0QBBjjb+N
q4zB7k7SQNaIPsDUX4TB1zS7QDFJTb/KuKDBlhTDQHBjyL+us5bBaYGxQGFTsD935qnBc3OwQNcA
Kj9J4bPBzyaGQLneY0C1EZjBawDYQDinpUA/FKXBBmnMQPMPtECpbrDBpVemQFCSZ0Bx9LPBNIfY
QHVCZ0BO9aPB8i7hQCodTUC2FJjBo3auQHSsPEC40KjBh44EQfJKeEBYP5PBL33hQO2tXcDRwI3B
OBy8QPhh6L9UsoPBYYOHQCkHUUCqVqLB8gU9QOEyd0AAtJPBR0ekQI1foUBRWLPB9UmqQHSlnz+O
gL3BI/uyQCCHZUDEXI/Bs/q/QB/nIcDYBqvBPVqzQMSfoL/Lp7vBFY+wQDYvij/1yZjBcWTmQP01
SsC3X57BNa+iQNz8Nb4FLozBTiPYQOBwYsAURnrBou/3QCsXskASEqPBfUzAQD/MskDVdp/Bu9bJ
QJkn10AerbDBsVjlQLV+qUCtDbbBiI3AQKy1VUBNY7nBfteHQAegT0CGK7fB1qTzQEGtT0CWu6jB
3EHlQCBAB0BhtZfBSZ4GQdAVY0B264rBJMMSQdVnZkDc75fBq4kCQQkbn0BfcJPBkA1XQE5AUEBf
N6bBUw44QO2rgkD67IvB/dMIQKH9dkAiVZjB

> <OMEGA_E>
YGU2Pw==

> <OMEGA_NBR>
     25217

$$$$
278158
  -OEChem-04172616093D

 37 39  0     1  0  0  0  0  0999 V2000
    4.6708    0.4978  -20.6639 C   0  0  0  0  0  0  0  0  0  0  0  0
    4.6100   -0.8963  -20.8197 C   0  0  0  0  0  0  0  0  0  0  0  0
    6.5166   -0.8163  -22.3272 C   0  0  0  0  0  0  0  0  0  0  0  0
    5.6597    1.2654  -21.3387 C   0  0  0  0  0  0  0  0  0  0  0  0
    5.5306   -1.5531  -21.6512 C   0  0  0  0  0  0  0  0  0  0  0  0
    6.5902    0.5806  -22.1785 C   0  0  0  0  0  0  0  0  0  0  0  0
    4.5630    3.4073  -18.9977 C   0  0  0  0  0  0  0  0  0  0  0  0
    7.2398    4.7861  -20.5270 C   0  0  0  0  0  0  0  0  0  0  0  0
    5.5240    3.4938  -22.5207 C   0  0  0  0  0  0  0  0  0  0  0  0
    7.2857    2.6528  -19.1224 C   0  0  0  0  0  0  0  0  0  0  0  0
    7.0940    3.2462  -20.5268 C   0  0  1  0  0  0  0  0  0  0  0  0
    6.9640    5.3339  -21.9379 C   0  0  2  0  0  0  0  0  0  0  0  0
    5.7250    2.8017  -21.1423 C   0  0  2  0  0  0  0  0  0  0  0  0
    7.0254    6.8627  -21.9133 C   0  0  0  0  0  0  0  0  0  0  0  0
    4.5787    3.2961  -20.3094 N   0  3  0  0  0  0  0  0  0  0  0  0
    3.3564    3.7241  -18.3952 N   0  0  0  0  0  0  0  0  0  0  0  0
    5.6534    4.9188  -22.3814 O   0  0  0  0  0  0  0  0  0  0  0  0
    5.4728   -2.8950  -21.7951 F   0  0  0  0  0  0  0  0  0  0  0  0
    7.5678    1.2304  -22.8532 F   0  0  0  0  0  0  0  0  0  0  0  0
    6.7697    7.3459  -23.1548 F   0  0  0  0  0  0  0  0  0  0  0  0
    5.9863    3.2233  -17.9648 S   0  0  0  0  0  0  0  0  0  0  0  0
    3.9570    0.9939  -20.0230 H   0  0  0  0  0  0  0  0  0  0  0  0
    3.8535   -1.4643  -20.2987 H   0  0  0  0  0  0  0  0  0  0  0  0
    7.2232   -1.3256  -22.9656 H   0  0  0  0  0  0  0  0  0  0  0  0
    6.5196    5.2215  -19.8186 H   0  0  0  0  0  0  0  0  0  0  0  0
    8.2619    5.0565  -20.2233 H   0  0  0  0  0  0  0  0  0  0  0  0
    6.2839    3.1268  -23.2263 H   0  0  0  0  0  0  0  0  0  0  0  0
    4.5213    3.2554  -22.9048 H   0  0  0  0  0  0  0  0  0  0  0  0
    7.2463    1.5556  -19.1903 H   0  0  0  0  0  0  0  0  0  0  0  0
    8.2683    2.9612  -18.7359 H   0  0  0  0  0  0  0  0  0  0  0  0
    7.8880    2.8396  -21.1703 H   0  0  0  0  0  0  0  0  0  0  0  0
    7.7352    4.9550  -22.6247 H   0  0  0  0  0  0  0  0  0  0  0  0
    6.2747    7.2484  -21.2079 H   0  0  0  0  0  0  0  0  0  0  0  0
    8.0278    7.1841  -21.5940 H   0  0  0  0  0  0  0  0  0  0  0  0
    3.7485    3.5666  -20.7968 H   0  0  0  0  0  0  0  0  0  0  0  0
    3.3086    3.8420  -17.4034 H   0  0  0  0  0  0  0  0  0  0  0  0
    2.5333    3.8349  -18.9522 H   0  0  0  0  0  0  0  0  0  0  0  0
  1  2  1  0  0  0  0
  1  4  2  0  0  0  0
  2  5  2  0  0  0  0
  3  5  1  0  0  0  0
  3  6  2  0  0  0  0
  4  6  1  0  0  0  0
  4 13  1  0  0  0  0
  5 18  1  0  0  0  0
  6 19  1  0  0  0  0
  7 15  2  0  0  0  0
  7 16  1  0  0  0  0
  7 21  1  0  0  0  0
  8 11  1  0  0  0  0
  8 12  1  0  0  0  0
  9 13  1  0  0  0  0
  9 17  1  0  0  0  0
 10 11  1  0  0  0  0
 10 21  1  0  0  0  0
 11 13  1  0  0  0  0
 12 14  1  0  0  0  0
 12 17  1  0  0  0  0
 13 15  1  0  0  0  0
 14 20  1  0  0  0  0
  1 22  1  0  0  0  0
  2 23  1  0  0  0  0
  3 24  1  0  0  0  0
  8 25  1  0  0  0  0
  8 26  1  0  0  0  0
  9 27  1  0  0  0  0
  9 28  1  0  0  0  0
 10 29  1  0  0  0  0
 10 30  1  0  0  0  0
 11 31  1  0  0  0  0
 12 32  1  0  0  0  0
 14 33  1  0  0  0  0
 14 34  1  0  0  0  0
 15 35  1  0  0  0  0
 16 36  1  0  0  0  0
 16 37  1  0  0  0  0
M  CHG  1  15   1
M  END
> <OMEGA_C>
hXeVQKnl/j64T6XBJIWTQIZyZb+ojqbBq4fQQMr4UL8ZnrLBRxy1QMn4oT+otarBZ/qwQLzKxr+X
Na3BwOLSQAajFD+ebbHBxAOSQCwRWkBT+5fBa6znQAsomUBCN6TB7cSwQA6bX0BfKrTBeyTpQNDG
KUCz+pjBqAHjQMrBT0DqNqTB9NjeQLOvqkDQgK/B5DK3QGJOM0BrI6nBdtDgQNaa20BjTq/B34SS
QKbyUkC/eaLBWM9WQNJXbkBtKZPBn+i0QOFmnUAlDbPBTCGvQERHOcBdXK7ByyvyQBl/nT9n07bB
xaHYQGYR60D0PLnB9Y+/QBhKTkDut4/BoD99QIFyfj8tL6DBf592QJduu7+xY6LBhCTnQIiuqb+m
ubfBh6DQQMEWp0CUjJ7BxzAEQZ3OoUBeyaHBaxXJQCodSECHz7nBLK6QQOhXUEAZPbfBxeHnQLYc
xz++hZnB70oEQcaDPUAa45XBnGr8QP+7NUDgXKnBY4b3QJqPnkBq/7TBGsrIQAfz50DUqanB4HEA
QYvk5UCMwKzBFedvQI5CZEDhX6bBf79TQDHjdUAROovBhiEiQFFvdUAYnpfBji7UQDQWKT//V7HB
hj7VQGFvOb+7I7PBae2WQE+sf7/FtqfBGYi0QIrTnz/RrKrBi9C2QEYUx7/fQK7BhzmVQAxuxz5x
7aXBfuSRQP2xW0CW0ZfBQeXnQAj2l0ArPKTBc9qwQAJPXUDdE7TB0ZLoQOfoJ0DQ5JjBkWXiQNaG
TUBvJqTBhWbfQHxrqUAOjK/BMi+2QOVBMkBY8KjBG5XhQBFb2kCeVa/BrSuSQCKUVED0UKLBVpxW
QPV3b0Cn9JLBn4C1QLNNnEC8K7PBsA24QHr5OMBj36/BptFpQBuMVz9qtp/BMjjaQLr66UD5SbnB
wG2/QJbjTUD8lo/BoN7rQFFGpT/+GbXBa3btQG4wk78cR7jB8up+QI1H0r8LBKTBShTRQDZrpkCm
l57B5F4EQcoboEBJ0KHB9mjJQCZiREALj7nBI+SQQGZvTkDYQrfB9d3mQGZnwz9HYpnBEBsEQdgC
O0A03ZXBiWb7QOhfMkDcVKnBzDD4QFMznUAp/7TBqjTJQMHH5kBGzKnBxsEAQWN35EDDoKzBeuJv
QJHaZ0AEN6bBvXxTQHePdUBnAIvBQQYiQIWmd0A6ZpfB

> <OMEGA_E>
kBUePoCOQz4=

> <OMEGA_NBR>
      1628

$$$$
278159
  -OEChem-04172616093D

 37 39  0     1  0  0  0  0  0999 V2000
    4.6167   -0.9048  -20.7963 C   0  0  0  0  0  0  0  0  0  0  0  0
    5.5262   -1.5692  -21.6340 C   0  0  0  0  0  0  0  0  0  0  0  0
    4.6831    0.4908  -20.6474 C   0  0  0  0  0  0  0  0  0  0  0  0
    6.5108   -0.8375  -22.3184 C   0  0  0  0  0  0  0  0  0  0  0  0
    5.6690    1.2538  -21.3325 C   0  0  0  0  0  0  0  0  0  0  0  0
    6.5935    0.5607  -22.1726 C   0  0  0  0  0  0  0  0  0  0  0  0
    4.5692    3.3992  -19.0042 C   0  0  0  0  0  0  0  0  0  0  0  0
    7.2479    4.7826  -20.5289 C   0  0  0  0  0  0  0  0  0  0  0  0
    5.5435    3.4830  -22.5257 C   0  0  0  0  0  0  0  0  0  0  0  0
    7.2945    2.6516  -19.1218 C   0  0  0  0  0  0  0  0  0  0  0  0
    7.1049    3.2413  -20.5281 C   0  0  1  0  0  0  0  0  0  0  0  0
    6.9729    5.3319  -21.9396 C   0  0  2  0  0  0  0  0  0  0  0  0
    5.7376    2.7936  -21.1445 C   0  0  2  0  0  0  0  0  0  0  0  0
    7.0270    6.8615  -21.9117 C   0  0  0  0  0  0  0  0  0  0  0  0
    4.5903    3.2941  -20.3165 N   0  3  0  0  0  0  0  0  0  0  0  0
    3.3569    3.6961  -18.4031 N   0  0  0  0  0  0  0  0  0  0  0  0
    5.6659    4.9099  -22.3881 O   0  0  0  0  0  0  0  0  0  0  0  0
    7.5735    1.2042  -22.8502 F   0  0  0  0  0  0  0  0  0  0  0  0
    6.7836    7.3465  -23.1550 F   0  0  0  0  0  0  0  0  0  0  0  0
    5.9916    3.2239  -17.9683 S   0  0  0  0  0  0  0  0  0  0  0  0
    3.8638   -1.4678  -20.2647 H   0  0  0  0  0  0  0  0  0  0  0  0
    5.4690   -2.6412  -21.7522 H   0  0  0  0  0  0  0  0  0  0  0  0
    3.9753    0.9915  -20.0034 H   0  0  0  0  0  0  0  0  0  0  0  0
    7.2099   -1.3514  -22.9615 H   0  0  0  0  0  0  0  0  0  0  0  0
    6.5263    5.2165  -19.8212 H   0  0  0  0  0  0  0  0  0  0  0  0
    8.2693    5.0545  -20.2241 H   0  0  0  0  0  0  0  0  0  0  0  0
    6.3099    3.1180  -23.2253 H   0  0  0  0  0  0  0  0  0  0  0  0
    4.5445    3.2396  -22.9165 H   0  0  0  0  0  0  0  0  0  0  0  0
    7.2566    1.5542  -19.1869 H   0  0  0  0  0  0  0  0  0  0  0  0
    8.2759    2.9622  -18.7340 H   0  0  0  0  0  0  0  0  0  0  0  0
    7.9010    2.8352  -21.1694 H   0  0  0  0  0  0  0  0  0  0  0  0
    7.7481    4.9585  -22.6249 H   0  0  0  0  0  0  0  0  0  0  0  0
    6.2663    7.2424  -21.2144 H   0  0  0  0  0  0  0  0  0  0  0  0
    8.0241    7.1868  -21.5802 H   0  0  0  0  0  0  0  0  0  0  0  0
    3.7650    3.5737  -20.8071 H   0  0  0  0  0  0  0  0  0  0  0  0
    3.3045    3.8049  -17.4104 H   0  0  0  0  0  0  0  0  0  0  0  0
    2.5343    3.8015  -18.9618 H   0  0  0  0  0  0  0  0  0  0  0  0
  1  2  1  0  0  0  0
  1  3  2  0  0  0  0
  2  4  2  0  0  0  0
  3  5  1  0  0  0  0
  4  6  1  0  0  0  0
  5  6  2  0  0  0  0
  5 13  1  0  0  0  0
  6 18  1  0  0  0  0
  7 15  2  0  0  0  0
  7 16  1  0  0  0  0
  7 20  1  0  0  0  0
  8 11  1  0  0  0  0
  8 12  1  0  0  0  0
  9 13  1  0  0  0  0
  9 17  1  0  0  0  0
 10 11  1  0  0  0  0
 10 20  1  0  0  0  0
 11 13  1  0  0  0  0
 12 14  1  0  0  0  0
 12 17  1  0  0  0  0
 13 15  1  0  0  0  0
 14 19  1  0  0  0  0
  1 21  1  0  0  0  0
  2 22  1  0  0  0  0
  3 23  1  0  0  0  0
  4 24  1  0  0  0  0
  8 25  1  0  0  0  0
  8 26  1  0  0  0  0
  9 27  1  0  0  0  0
  9 28  1  0  0  0  0
 10 29  1  0  0  0  0
 10 30  1  0  0  0  0
 11 31  1  0  0  0  0
 12 32  1  0  0  0  0
 14 33  1  0  0  0  0
 14 34  1  0  0  0  0
 15 35  1  0  0  0  0
 16 36  1  0  0  0  0
 16 37  1  0  0  0  0
M  CHG  1  15   1
M  END
> <OMEGA_C>
A7yTQD2fZ7+/XqbBb9awQJrbyL9xEq3B9NuVQOFI+z7OLaXBJVjQQEJnVr8IjLLBrmi1QJh9oD/y
qKrB/v3SQBCMDz9oYbHBOjeSQMqMWUCXCJjBMO/nQCMLmUBGO6TBmWSxQKTpXkCiNLTBrmzpQHq0
KUBm+ZjBGVvjQBBxT0CVOaTBnCHfQNyeqkBNhK/Bp5q3QN3JMkDtJ6nBPt3gQC2R20AsS6/Bc+OS
QFrSUkAriKLBFNhWQEGMbEB0OZPBEU+1QModnUDBGrPB/FnyQMIhmj8szbbBXBPZQEMW60BqPbnB
Tbu/QOJTTkAfv4/BLkl3QAniu78YHqLBFQKvQFMJKcB0BK7Ba2t+QAfTfT/sBqDBQLfmQEv5rL8n
sbfBjNfQQNLtpkC9kZ7BEU8EQZ2+oUAPy6HBn+rJQJCNR0B1zbnBuWyRQB1WT0AOVbfB7zXoQMzw
xj+3fpnBJ2oEQW2VPUA235XBJ9X8QP5zNUDyWqnBT/D3QOCrnkC2/7TB0IXIQMzB50AMt6nBwmIA
QaH65UAvpKzBm/VwQES4ZED4dKbBQXxTQMCDc0B2SIvBWjIiQG1Lc0DBsZfB5wrVQANtO796HrPB
t022QFivx7/BUa7BVEnUQDcfJz8yRbHBS5GWQMTdf7+ov6fBXaG0QHpvnz/DoKrBuy+VQOsuxz6U
5aXBl+CRQC2IW0CJ15fB3qTnQMIsmECAN6TBeDCxQJziXEC0HLTBua7oQEA3KECW55jBeXDiQFXZ
TUB8J6TB8xXfQOezqUDoha/BIU22QOszMkB78ajBZ4/gQI2q2kD4QK/B4T6SQPvFVEB0WKLBfnZW
QALLbkDI+JLBUW+1QMQjnEBsOrPB8gNqQFc0WD9Npp/Bvt/YQORX6kD1L7nBgWG/QM2aTUCsmY/B
cErtQD15lL+FPLjBEgu3QDsXKMC2rK/BpjrsQJ/Koz/z97TBNeh9QD/70b//EqTBC7nQQPFypkBP
kp7BXDcEQRZ/oECryKHBcQrKQBY7REBuh7nBQ2eRQJVpTUBQXLfBFDHnQJL8wz/bZ5nBFCAEQUSs
O0Bj3ZXBp4X7QM4JM0DqVqnBpyb4QP3wnUD/9LTB8g7IQP+i5kB4sKnB9y4AQXkx5UAHjqzBmkNw
QAB6aEBEQqbBG0FTQBlzdEBiA4vB1+IhQL8Jd0BWapfB

> <OMEGA_E>
0EAxPmC4VD4=

> <OMEGA_NBR>
      3256

$$$$
278157
  -OEChem-04172616093D

 38 40  0     1  0  0  0  0  0999 V2000
    4.6917    0.4715  -20.6869 C   0  0  0  0  0  0  0  0  0  0  0  0
    4.6432   -0.9207  -20.8560 C   0  0  0  0  0  0  0  0  0  0  0  0
    6.5609   -0.8121  -22.3489 C   0  0  0  0  0  0  0  0  0  0  0  0
    5.6805    1.2509  -21.3463 C   0  0  0  0  0  0  0  0  0  0  0  0
    5.5742   -1.5618  -21.6880 C   0  0  0  0  0  0  0  0  0  0  0  0
    6.6252    0.5826  -22.1832 C   0  0  0  0  0  0  0  0  0  0  0  0
    4.5551    3.3935  -19.0015 C   0  0  0  0  0  0  0  0  0  0  0  0
    7.2235    4.7709  -20.5023 C   0  0  0  0  0  0  0  0  0  0  0  0
    5.5258    3.4747  -22.5162 C   0  0  0  0  0  0  0  0  0  0  0  0
    7.2791    2.6316  -19.1080 C   0  0  0  0  0  0  0  0  0  0  0  0
    7.0906    3.2325  -20.5088 C   0  0  1  0  0  0  0  0  0  0  0  0
    6.9666    5.3031  -21.9205 C   0  0  2  0  0  0  0  0  0  0  0  0
    5.7294    2.7823  -21.1386 C   0  0  2  0  0  0  0  0  0  0  0  0
    7.0363    6.8262  -21.9168 C   0  0  0  0  0  0  0  0  0  0  0  0
    4.5741    3.2629  -20.3112 N   0  3  0  0  0  0  0  0  0  0  0  0
    3.3557    3.7577  -18.4119 N   0  0  0  0  0  0  0  0  0  0  0  0
    5.6572    4.8957  -22.3726 O   0  0  0  0  0  0  0  0  0  0  0  0
    6.8374    7.2966  -23.2435 O   0  0  0  0  0  0  0  0  0  0  0  0
    5.5227   -2.9014  -21.8503 F   0  0  0  0  0  0  0  0  0  0  0  0
    7.6095    1.2456  -22.8361 F   0  0  0  0  0  0  0  0  0  0  0  0
    5.9645    3.1745  -17.9548 S   0  0  0  0  0  0  0  0  0  0  0  0
    3.9687    0.9567  -20.0479 H   0  0  0  0  0  0  0  0  0  0  0  0
    3.8883   -1.4999  -20.3450 H   0  0  0  0  0  0  0  0  0  0  0  0
    7.2747   -1.3101  -22.9883 H   0  0  0  0  0  0  0  0  0  0  0  0
    6.4868    5.2014  -19.8081 H   0  0  0  0  0  0  0  0  0  0  0  0
    8.2375    5.0517  -20.1814 H   0  0  0  0  0  0  0  0  0  0  0  0
    6.2836    3.1080  -23.2242 H   0  0  0  0  0  0  0  0  0  0  0  0
    4.5219    3.2381  -22.8986 H   0  0  0  0  0  0  0  0  0  0  0  0
    7.2551    1.5346  -19.1847 H   0  0  0  0  0  0  0  0  0  0  0  0
    8.2546    2.9503  -18.7119 H   0  0  0  0  0  0  0  0  0  0  0  0
    7.8918    2.8356  -21.1497 H   0  0  0  0  0  0  0  0  0  0  0  0
    7.7409    4.9093  -22.5952 H   0  0  0  0  0  0  0  0  0  0  0  0
    6.2524    7.2307  -21.2596 H   0  0  0  0  0  0  0  0  0  0  0  0
    8.0227    7.1503  -21.5535 H   0  0  0  0  0  0  0  0  0  0  0  0
    3.7378    3.5077  -20.8018 H   0  0  0  0  0  0  0  0  0  0  0  0
    3.3048    3.8891  -17.4219 H   0  0  0  0  0  0  0  0  0  0  0  0
    2.5408    3.8892  -18.9763 H   0  0  0  0  0  0  0  0  0  0  0  0
    6.8789    8.2457  -23.2530 H   0  0  0  0  0  0  0  0  0  0  0  0
  1  2  1  0  0  0  0
  1  4  2  0  0  0  0
  2  5  2  0  0  0  0
  3  5  1  0  0  0  0
  3  6  2  0  0  0  0
  4  6  1  0  0  0  0
  4 13  1  0  0  0  0
  5 19  1  0  0  0  0
  6 20  1  0  0  0  0
  7 15  2  0  0  0  0
  7 16  1  0  0  0  0
  7 21  1  0  0  0  0
  8 11  1  0  0  0  0
  8 12  1  0  0  0  0
  9 13  1  0  0  0  0
  9 17  1  0  0  0  0
 10 11  1  0  0  0  0
 10 21  1  0  0  0  0
 11 13  1  0  0  0  0
 12 14  1  0  0  0  0
 12 17  1  0  0  0  0
 13 15  1  0  0  0  0
 14 18  1  0  0  0  0
  1 22  1  0  0  0  0
  2 23  1  0  0  0  0
  3 24  1  0  0  0  0
  8 25  1  0  0  0  0
  8 26  1  0  0  0  0
  9 27  1  0  0  0  0
  9 28  1  0  0  0  0
 10 29  1  0  0  0  0
 10 30  1  0  0  0  0
 11 31  1  0  0  0  0
 12 32  1  0  0  0  0
 14 33  1  0  0  0  0
 14 34  1  0  0  0  0
 15 35  1  0  0  0  0
 16 36  1  0  0  0  0
 16 37  1  0  0  0  0
 18 38  1  0  0  0  0
M  CHG  1  15   1
M  END
> <OMEGA_C>
EyKWQAJt8T7GfqXBSJWUQMWya78F2abB6vLRQC/oT7+DyrLBbMa1QDQeoD8fxarBwV+yQAXox78Y
ga3BxQHUQEElFT8+d7HBhsORQHEuWUAJA5jBQifnQBGrmECpBKTBX9OwQHphXkBBIbTBde7oQKts
KEBJ3ZjBkObiQJnhTkAREqTBaO7eQEazqUAYXa/B2Fa3QEYRMkDPG6nBkynhQPZv2kCmVa/ByV6S
QOLTUEBJfaLBK8RWQOl9cECYS5PBLAi1QLypnEAL+7LBPMzaQNZ96UCh8rnBsbmwQNuwOcBWza7B
r4DzQCxxnz9KsLbBE92+QCkrS0Bno4/B2f59QBvrdD8hYqDBftp4QKD7v7+FwqLBucroQOewp78R
6LfBOJTPQNhxpkDpdp7B5swDQeenoUCGc6HBgRPJQBXqRkA5y7nBYbOQQKg8T0BKMLfBLSroQMxs
xD9UepnBtxIEQYHRPED4sZXBOIn8QDp7NUCUMqnBsLX3QMAYnUD9wrTB8xPIQINh50C2E6rB/FwA
QV/P5ECZbazBNThvQN1+YEAeaqbBN4JTQCrneEAJYIvB5JsiQKfoeEB8z5fBKiDcQDbuA0EPBrrB
mPSVQKEg+j75TaXBLxaUQKxlZ7/5rabB+wnRQH7zTb+wwLLB0oy1QGW2oT/Xo6rBSYOxQKFSxr9R
aq3B6mLTQKrjFj9Na7HBPRWSQA15WkCT5JfBBGvoQD3omEDDfqTBayuwQCdcXkCLIbTBBDTpQBmU
K0CD05jBVzvjQF+cT0BVLKTBFe7fQLoKqUBu9q/Bv0m3QMgKM0BLDanBHobjQJLT2UD9cLDBs5OS
QNGMUkCIYKLBhoZWQJAmbUCRE5PBWIW1QJehnEB6TbPBImXDQJ0U7UCH7anBSnevQKnOOMAHyK7B
XKPyQICXnz8Xx7bB8Oe/QG6+UkBUrY/B6TZ+QC0Cej9FIaDBZ+13QKBfvb8VjKLB1KLnQOQbp7+3
6rfBsGfRQH69p0Dl9p7BApUEQdaFoUA3F6LBmIfHQDfRREBE47nBIJCPQN1GUECy8LbBbInnQFie
yj/kKZnBimIEQf4pP0BhzJXBA4X8QP8MNEC6O6nBEvj3QNP/mkD9WLXBwKQBQWuZ40Bliq3B42ff
QO165EDkw7jBn8pvQO0iY0DiRqbB9oBTQMPWdUDVKIvBWYEhQLnxcUBNhJfBF/LFQGCrBUH9SarB
MuOVQJRX+T7xhaXB/KuTQNATZ7+1/qbBjvTRQPAoUL8opbLBW0y2QHbBoD8WmarBtJaxQE6jxr/E
kK3Bi5jUQCxTFD+UOrHB4lGSQP1wWkDJ8pfBjFLnQEKNmUD9YKTB5N6wQJ45XUAXJLTBXp/pQMFL
LEBH05jBol3jQCSYUECWJaTBKvjdQFskqkANx6/B5cu3QEWKMkBoC6nBr8zeQIz+2kDZ96/BPeSS
QBDNUUB2bKLBRRpXQEtFbkBGL5PBlj20QJU1nECXLrPBakAEQb+K6UCZO63BCBuvQKDKOMC3C6/B
/l70QPj3nT/RabbBCvW/QOHOUUCGqo/Bp1d9QLVlej+NeKDB5811QLObvL+KEKPBL/foQDGqqL/k
q7fBljLQQKCTp0AXv57B+PkDQY7ZokAoCaLBmFLJQGXtRUDywrnBd+KQQGqFTEDgKbfBk4foQMH9
yz+aNJnBHoIEQQ/KQEB5x5XBzvz8QKF/NkAlOanBBq32QBrfnUBkPrXBJnfWQMNi5kCbB7jBCoTH
QIOB50AeKKrBZE5wQDiXYUC+WabBGOxTQClBd0AbRovBJE0iQIKac0D0p5fB9IsEQWj3A0GvWK3B
orzUQN3PKD9MSLHBpErVQK6OOL9PS7PBmKeWQLyVf799+qfBMhi1QKMrnz+GlqrBcze2QK9fxr/R
pK7BbaiVQNyjxD5Y6aXBl/iRQE6KXEC91JfBHRroQHf2l0BTPaTB+fuwQBpgXEBYAbTBcsDoQBIK
KUA6x5jBeLLiQFOgTUCvFKTBuATfQHkyqUAJhq/BTIq2QJ7VMUAi3KjBD3bgQMoE2kAgSK/BFVaS
QMMmVECjTqLBxXpWQPgNcEDLBpPBGiO1QIrEm0B3ELPBbATZQKb26UD0wrnBk3a2QKYoOMCDn7DB
4MFrQKrkVD8DgZ/B0H+/QKcaUEDbj4/BE8/sQHAUpT+v47TBnZrtQFSBkr8rarjB9MZ9QFA50r9p
ZqTBYY3RQIp7pkBKip7BGocEQSg0oECa7qHBgrHJQCn8Q0Awe7nBoR2RQJvITECXMbfBgv3mQJaX
xT+JKpnB4i8EQXVRPECEwZXBwcr7QGY0MkBTNqnBDMX3QKtTnUA7CLXBnpvHQDgd5kAy1anBMgsA
QaKn5ECceqzBswhwQBBgZkAPP6bB1BRTQFa/dkDtFIvBGvQhQDxzd0CygJfBkODZQKIsBEFlqbnB
2vHUQLw0Kz/2JbHBE7DVQKggNr8PIbPBVHaWQIsSfb99BKjBkOS0QAR+oD+zlKrBDJS2QNpKxb8z
g67BHPyUQFYpyz6DFabBNt6RQBvKW0BrxZfBzKTnQF5dmEC+VqTB55ywQP9KXECrFbTB9dDoQAp6
KUBx15jBSW3iQFt3TkDHHqTBIXLfQH3SqEC5zK/BSEG2QM1+MkAk4ajBPevhQOK12UBbHLDB2DSS
QNXVVECkRKLBxI1WQOO0b0BZ6pLBSI+1QES3m0CdZ7PB52zAQPfb60C706nBdTu3QDq7N8ChZ7DB
nFpoQD+8WT87CaDBIWe/QKtGTkBDiY/BWTHtQLpFpj9krrTBgyzuQNE2kb9sM7jBMkx9QCEW0b83
eKTBUX7QQHsLp0CF0Z7BOioEQSvmoEDC3aHB4tzIQEhSQkBEk7nBh3mQQHhoTUCPJ7fBW63nQCVr
xj/TTJnBaSUEQSevPUCP0ZXBynH7QI42M0ADSqnBYS/4QFylm0B7H7XBK4EAQbga5EC/56zBP7Te
QHyq5EBbb7jB6ApwQJc+aECuLKbBSXFTQFkOdkDj9orBSfUhQIK7d0CdXJfBd0bCQNUXBUEpFKrB
zdLUQBJbKD/pVbHBLmjVQMoJOb9nWrPBN9+WQCxjgL9FAajBlS21QMDAnj9voarBaYS2QAfkxr/S
pa7Buq6VQPqvwj4J/aXBeQ2SQJLeW0Be0pfBTSXnQO0+mEBTQaTB6vuwQKjUW0BdFLTBheHoQM7R
KECS3JjBL3fiQGYBTkCMIqTBuxbeQD2nqUBQm6/B+3q2QOSiMUBU56jBeOLdQLKg2kCyiK/BTE6S
QKa8U0DzTqLBEh5XQLLccEAh/pLBDaS0QIKPm0AzO7PBJKECQZZY6kBPY6vBiw+3QJSLOMBlibDB
wixrQJ4RVD8Cr5/BJJC/QMBQTkCDkY/Bbd3sQCf5pD/V8bTBSJjtQGGGkr/5hLjBt2F+QJz40r+0
Z6TB9zjQQEdbpkC0lZ7BNfQDQXTvoECV4aHBc/DJQCOvQ0CcgLnBz0SRQKZ0S0BQTbfBdIPnQKgi
xT+FUZnBqzcEQemfPEAK2ZXBsqj7QFJ7M0BLT6nBVkH3QF5RnkBiEbXBx43ZQCRy5kCNwLfBVmHD
QNgJ5kCTfqrBAd5vQLIAZkDnOKbBTRRUQLzxd0AIDYvBiJQiQBjveEDScpfBsmoCQRtfBEG/X6vB

> <OMEGA_E>
WEWrPrjzvj7ktsE+IHfCPrC40T5gR9Q+

> <OMEGA_NBR>
      7744

$$$$
278161
  -OEChem-04172616093D

 48 51  0     1  0  0  0  0  0999 V2000
    8.2133    9.3791  -18.1718 C   0  0  0  0  0  0  0  0  0  0  0  0
    4.5989   -0.8886  -20.9612 C   0  0  0  0  0  0  0  0  0  0  0  0
    7.1018    8.5868  -18.5104 C   0  0  0  0  0  0  0  0  0  0  0  0
    9.3129    9.4623  -19.0482 C   0  0  0  0  0  0  0  0  0  0  0  0
    5.5400   -1.5166  -21.7932 C   0  0  0  0  0  0  0  0  0  0  0  0
    4.6812    0.4916  -20.7181 C   0  0  0  0  0  0  0  0  0  0  0  0
    7.0831    7.8920  -19.7312 C   0  0  0  0  0  0  0  0  0  0  0  0
    9.3118    8.7383  -20.2544 C   0  0  0  0  0  0  0  0  0  0  0  0
    6.5698   -0.7655  -22.3822 C   0  0  0  0  0  0  0  0  0  0  0  0
    5.7138    1.2692  -21.3039 C   0  0  0  0  0  0  0  0  0  0  0  0
    8.2030    7.9489  -20.6111 C   0  0  0  0  0  0  0  0  0  0  0  0
    6.6665    0.6165  -22.1467 C   0  0  0  0  0  0  0  0  0  0  0  0
    4.5613    3.4336  -18.9627 C   0  0  0  0  0  0  0  0  0  0  0  0
    7.2465    4.8037  -20.5932 C   0  0  0  0  0  0  0  0  0  0  0  0
    5.4887    3.4307  -22.4878 C   0  0  0  0  0  0  0  0  0  0  0  0
    7.2949    2.7544  -19.0490 C   0  0  0  0  0  0  0  0  0  0  0  0
    7.1116    3.2727  -20.4876 C   0  0  1  0  0  0  0  0  0  0  0  0
    6.9804    5.2239  -22.0649 C   0  0  2  0  0  0  0  0  0  0  0  0
    5.7453    2.7942  -21.0932 C   0  0  2  0  0  0  0  0  0  0  0  0
    7.0801    6.7206  -22.3621 C   0  0  0  0  0  0  0  0  0  0  0  0
    4.5872    3.2800  -20.2690 N   0  3  0  0  0  0  0  0  0  0  0  0
    3.3375    3.7117  -18.3759 N   0  0  0  0  0  0  0  0  0  0  0  0
    5.6497    4.8412  -22.4191 O   0  0  0  0  0  0  0  0  0  0  0  0
    8.2874    7.2811  -21.8226 O   0  0  0  0  0  0  0  0  0  0  0  0
    7.6702    1.2858  -22.7652 F   0  0  0  0  0  0  0  0  0  0  0  0
    5.9875    3.3687  -17.9267 S   0  0  0  0  0  0  0  0  0  0  0  0
    8.2238    9.9239  -17.2394 H   0  0  0  0  0  0  0  0  0  0  0  0
    3.8095   -1.4691  -20.5071 H   0  0  0  0  0  0  0  0  0  0  0  0
    6.2640    8.5127  -17.8330 H   0  0  0  0  0  0  0  0  0  0  0  0
   10.1589   10.0835  -18.7935 H   0  0  0  0  0  0  0  0  0  0  0  0
    5.4716   -2.5781  -21.9801 H   0  0  0  0  0  0  0  0  0  0  0  0
    3.9514    0.9664  -20.0789 H   0  0  0  0  0  0  0  0  0  0  0  0
    6.2147    7.3111  -20.0047 H   0  0  0  0  0  0  0  0  0  0  0  0
   10.1678    8.7887  -20.9110 H   0  0  0  0  0  0  0  0  0  0  0  0
    7.2922   -1.2529  -23.0202 H   0  0  0  0  0  0  0  0  0  0  0  0
    6.5129    5.2870  -19.9313 H   0  0  0  0  0  0  0  0  0  0  0  0
    8.2619    5.1075  -20.2989 H   0  0  0  0  0  0  0  0  0  0  0  0
    6.2050    3.0179  -23.2134 H   0  0  0  0  0  0  0  0  0  0  0  0
    4.4635    3.1971  -22.8111 H   0  0  0  0  0  0  0  0  0  0  0  0
    7.2645    1.6548  -19.0613 H   0  0  0  0  0  0  0  0  0  0  0  0
    8.2725    3.0900  -18.6726 H   0  0  0  0  0  0  0  0  0  0  0  0
    7.9096    2.8292  -21.1012 H   0  0  0  0  0  0  0  0  0  0  0  0
    7.7009    4.6949  -22.7060 H   0  0  0  0  0  0  0  0  0  0  0  0
    7.0712    6.8708  -23.4517 H   0  0  0  0  0  0  0  0  0  0  0  0
    6.2159    7.2330  -21.9142 H   0  0  0  0  0  0  0  0  0  0  0  0
    3.7496    3.5104  -20.7643 H   0  0  0  0  0  0  0  0  0  0  0  0
    3.2800    3.8691  -17.3900 H   0  0  0  0  0  0  0  0  0  0  0  0
    2.5117    3.7549  -18.9381 H   0  0  0  0  0  0  0  0  0  0  0  0
  1  3  1  0  0  0  0
  1  4  2  0  0  0  0
  2  5  1  0  0  0  0
  2  6  2  0  0  0  0
  3  7  2  0  0  0  0
  4  8  1  0  0  0  0
  5  9  2  0  0  0  0
  6 10  1  0  0  0  0
  7 11  1  0  0  0  0
  8 11  2  0  0  0  0
  9 12  1  0  0  0  0
 10 12  2  0  0  0  0
 10 19  1  0  0  0  0
 11 24  1  0  0  0  0
 12 25  1  0  0  0  0
 13 21  2  0  0  0  0
 13 22  1  0  0  0  0
 13 26  1  0  0  0  0
 14 17  1  0  0  0  0
 14 18  1  0  0  0  0
 15 19  1  0  0  0  0
 15 23  1  0  0  0  0
 16 17  1  0  0  0  0
 16 26  1  0  0  0  0
 17 19  1  0  0  0  0
 18 20  1  0  0  0  0
 18 23  1  0  0  0  0
 19 21  1  0  0  0  0
 20 24  1  0  0  0  0
  1 27  1  0  0  0  0
  2 28  1  0  0  0  0
  3 29  1  0  0  0  0
  4 30  1  0  0  0  0
  5 31  1  0  0  0  0
  6 32  1  0  0  0  0
  7 33  1  0  0  0  0
  8 34  1  0  0  0  0
  9 35  1  0  0  0  0
 14 36  1  0  0  0  0
 14 37  1  0  0  0  0
 15 38  1  0  0  0  0
 15 39  1  0  0  0  0
 16 40  1  0  0  0  0
 16 41  1  0  0  0  0
 17 42  1  0  0  0  0
 18 43  1  0  0  0  0
 20 44  1  0  0  0  0
 20 45  1  0  0  0  0
 21 46  1  0  0  0  0
 22 47  1  0  0  0  0
 22 48  1  0  0  0  0
M  CHG  1  21   1
M  END
> <OMEGA_C>
smkDQbYQFkHcX5HB3CmTQKd5Y7+GsKfBLkLjQKNjCUFOFZTBlAEVQZxlF0G2YpjBqkexQOofwr9y
WK7BIMyVQA60+z6YvqXB3KjiQE6L/EB72Z3BG/0UQfvPC0EDCaLBMjzSQCj1Q7++DrPBtNe2QE11
oj9UbqrBgj8DQVZd/kCf46TBvFPVQOrSHT98LLHBVvaRQK6/W0Cms5fBlOPnQMm3mUD3vqTBCqOv
QAORW0AJ57PBtG/pQF5HMEB0ZJjBSJLjQOtzUUCU5qPBPl/fQN8pp0DyhLDB0Nm3QHbUMkDcvqjB
FJDiQMoO10CN5bLBSMqSQMHrUUDUJqLBSZpVQNGLbUDFAZPBBMq0QEPrmkBGWrPBWZkEQSH/6ECb
lK7BfnL1QJCWpD8lH7bBapm/QLSYV0DxaY/BspQDQXvIHkFC6onBSc5zQHIMvL+DDqTBeXLIQPsz
CEHxqY7Bx4oiQeVVIUEwWZbBVhevQI//JMBF16/BceR8QKFjdz+foaDBBt/GQEn06UCpCaDBSq8i
QXWeDEG5SafBiFnpQGtfoL9XKbjBUWnQQAIvqUBac5/B8TAEQXBwo0AoZKLBMo/GQPUkQUD6tLnB
GNWOQLmcTEAOfbbBhnboQPPR0z+FfZjBCFwEQcDBRUCAYZXBmxv9QHwRNUAvz6jBAm72QFc8lkDa
pbXB/UbiQDPd20AtnbvBqujGQMt050BXUK/BZflvQIeqYEBEHabBQexRQPifd0DBHovBzL8gQFFQ
cEBCgZfBP7TXQBtm/UAqZorBSIGUQALra795GKfBu/i5QK49AkHNrpLBpyoBQSuK8kBj3ozBuEGy
QDTCxr8P1a3BmUCWQMCd7z5FhKXB8b7GQBhOAEF3cZ3BE6AHQYLC7kCqnpfB+AvSQC2dS79F9rLB
ogG2QE6MoD8QqqrBgprxQG1K9UDI+5/BAUXUQHWdGD9jb7HBTOSRQAxtWkCt0pfBPnHnQAaUmEDv
iqTBosevQFpSXUDLD7TBowTpQGDcK0DKvJjBjdTiQApUT0AkHaTBAHvfQEiTqEAiHbDB3CK3QCo1
MkCo/KjB0GLiQEKh2UBrrbHBkEOSQDj0UECXSqLBA4JWQCL4bkCMCJPB1Q21QGgHnEAXRrPBRLz/
QCjB7kACYqrBsMLzQJwNoj9inbbBFJq/QGQxUkCjlI/BWtHNQJklAEHeJoLBCWd4QMTSwL+hHaPB
EVSZQIlyBkE9x5DBLo4MQewc7UCSg4bBK7CwQJi3J8BPEa/BMmB+QFujcT9aVKDBzO2vQH4gA0H9
xqPBowYYQQ3Q5kCoepnBw/HoQNZzpL9gHbjB8u3PQLJNp0BoIJ/BUPgDQY6doUDdBqLBOg3HQNy/
Q0Cz1rnBzyGPQPwTT0D707bBRsbnQLYXyz8gCpnBgT0EQalNQED3upXBYTv8QG71M0CIJ6nBNCf3
QHVYmUDKZbXBIRHtQK/230Bi6bnBXE3CQLRN50B7fLDBh5JuQNu1X0C2LabBdrNTQIukeEASIovB
WokhQMUfdED/eZfBvpoCQRej8UBPOIzB5lyVQJVVc7/X9KfBUxwPQT2g+0AhQZXBdsXYQOAs60D+
TY3B/MOzQJ11xr+wsq7BwPOWQGoa3D7U86XBSooFQYsF/kB7ap/BQGbFQBMY7kAKdZfBev7TQAV2
Rb+lbrPBDiW3QFgxnj+2sqrBJrjeQHfU9UDsn6DBXPvVQK+LHD9yg7HBeNeRQC8uW0CxuJfB4Bvo
QMeel0ADq6TBzMuuQIqKW0DRz7PByADpQFRILEDFbJjBUF/jQHDoTUCb7qPBfAPfQL3HpkBRRbDB
hH23QKxjMEA+zKjBosvjQNxG10ChOLLB3jSSQG1MTUDDGaLBe7RWQNqWc0CPIpPB4By0QJIIm0Cr
ArPByhjMQPt28UBnmqrBrnv1QDhopz9bebbBADa/QAxSU0DYYY/BigsKQZvs7kCVc4TBn155QJXL
xr+ATaTBmg0gQQi5AEFdYJTBQ5HFQOr740CWWYbBWlqyQKEtJ8D6PbDB2ut+QHTtYT95wKDBJRwP
QcsPA0GqUabBMi2jQM5q6kAOPJjB/WTrQOxznr9RlLjBzDvRQAbppkD2LZ/ByXIEQdi1oEC2aaLB
cWbFQOonQkDCw7nBOdmNQK5ETUD9V7bBrOnnQGHayz8ik5jBTCcEQdhoQUB0Y5XBH8r8QGQvMUA8
2ajBb3z1QM4clkBPnLXBAPUCQb6e30CgpLHBTRvYQJ+N3kDwUbrBmj9tQEsNV0AU+KXBmLNTQCEY
gEDwTIvBiyoiQA2aeEACqZfBbmlqQM/2EUGlO8LBn+vVQHKCM78N/bPB8cGGQI/CFkH/IbjBfHmJ
QC4CA0GX/sjBF/q6QEAWyr8cZq7BcFDSQJHDLj8nZbLB58GsQIK7DEFF1bTB3VKvQH6b8UBfqcXB
8VCcQEP3iL+pQafB/qazQKOAnD++L6vBcO7AQDQi+0AnlLvB1luYQKz+oT4ClKXB8H+RQN7OW0CF
4pfBgS7oQAAilEAWJqTBWAOuQMDbXkDnDrTBTiTnQOPoIUCtIZnBbBnhQGXCR0DJVaTBiH7gQMYw
pkACRa/BjnK0QLHwL0AjJ6nBCh7oQAvm1UClU67BpoaQQGpFUEAzUqLBsslXQJbsdEBE8JLBR1q1
QOSenED+xLLB6+fmQABG6EB9zLjBe8J0QML6OD9sfJ7BNj2/QAfFS0B3xY/B/UUwQLjDGUGGzsTB
kmftQJiQi7+ZgrnBGhNuQOEdIkHC8LLBiN13QMbG/kAZvNDBJcy9QOBGKcCdla/BmznnQK7krD/j
ubbBGZi6QJCVEEFSJ63BmNW+QAGs2kAR1crBYYyHQNcM4L9zAaPBFMbRQMr0okCbdp7BKp8EQTQD
m0B/qqHBa7jEQC4cRUBF9rnB4ReNQPNeVECA4rbBHfDjQO7Jtz/blJnBGaYDQZxqMkDINJbBap75
QG2GK0AIkqnBB+n3QKZfmEDX27TBZAjPQLFc5ECqUqnBsM0DQRLA20AmrarB0T1qQPh8XkCvDKbB
tUtWQBh2fUAhA4vBi/YiQIyGfkDuSpfB

> <OMEGA_E>
nEkcP7AHHD/sJxs/3IMWPw==

> <OMEGA_NBR>
     11339

$$$$
278156
  -OEChem-04172616093D

 47 49  0     1  0  0  0  0  0999 V2000
    4.8922   -1.0087  -20.9299 C   0  0  0  0  0  0  0  0  0  0  0  0
    5.8005   -1.5147  -21.8757 C   0  0  0  0  0  0  0  0  0  0  0  0
    4.8196    0.3721  -20.6851 C   0  0  0  0  0  0  0  0  0  0  0  0
    6.6418   -0.6414  -22.5825 C   0  0  0  0  0  0  0  0  0  0  0  0
    5.6537    1.2700  -21.3943 C   0  0  0  0  0  0  0  0  0  0  0  0
    6.5792    0.7414  -22.3516 C   0  0  0  0  0  0  0  0  0  0  0  0
    4.5123    3.4590  -18.9032 C   0  0  0  0  0  0  0  0  0  0  0  0
    7.3044    4.6461  -20.6582 C   0  0  0  0  0  0  0  0  0  0  0  0
    5.2493    3.5067  -22.4371 C   0  0  0  0  0  0  0  0  0  0  0  0
    7.1943    2.7053  -19.0320 C   0  0  0  0  0  0  0  0  0  0  0  0
    7.0119    3.1689  -20.4791 C   0  0  1  0  0  0  0  0  0  0  0  0
    7.1517    4.9265  -22.1569 C   0  0  2  0  0  0  0  0  0  0  0  0
    5.6085    2.7749  -21.0862 C   0  0  2  0  0  0  0  0  0  0  0  0
    5.7715    8.7942  -20.5787 C   0  0  0  0  0  0  0  0  0  0  0  0
    5.4408    8.0666  -22.9653 C   0  0  0  0  0  0  0  0  0  0  0  0
    7.7606    6.2788  -22.5057 C   0  0  0  0  0  0  0  0  0  0  0  0
    5.9501    7.6456  -21.5689 C   0  0  0  0  0  0  0  0  0  0  0  0
    4.4635    3.1478  -20.1821 N   0  3  0  0  0  0  0  0  0  0  0  0
    3.3250    3.8054  -18.2803 N   0  0  0  0  0  0  0  0  0  0  0  0
    5.7537    4.8403  -22.4901 O   0  0  0  0  0  0  0  0  0  0  0  0
    7.3606    7.3186  -21.5898 O   0  0  0  0  0  0  0  0  0  0  0  0
    7.4328    1.5304  -23.0539 F   0  0  0  0  0  0  0  0  0  0  0  0
    5.9793    3.4785  -17.9343 S   0  0  0  0  0  0  0  0  0  0  0  0
    4.2470   -1.6850  -20.3889 H   0  0  0  0  0  0  0  0  0  0  0  0
    5.8512   -2.5779  -22.0590 H   0  0  0  0  0  0  0  0  0  0  0  0
    4.1236    0.7514  -19.9516 H   0  0  0  0  0  0  0  0  0  0  0  0
    7.3399   -1.0349  -23.3065 H   0  0  0  0  0  0  0  0  0  0  0  0
    6.5889    5.2504  -20.0812 H   0  0  0  0  0  0  0  0  0  0  0  0
    8.3283    4.8760  -20.3284 H   0  0  0  0  0  0  0  0  0  0  0  0
    5.6784    2.9344  -23.2727 H   0  0  0  0  0  0  0  0  0  0  0  0
    4.1545    3.5399  -22.5393 H   0  0  0  0  0  0  0  0  0  0  0  0
    7.0729    1.6129  -18.9879 H   0  0  0  0  0  0  0  0  0  0  0  0
    8.2056    2.9758  -18.6941 H   0  0  0  0  0  0  0  0  0  0  0  0
    7.7606    2.6268  -21.0754 H   0  0  0  0  0  0  0  0  0  0  0  0
    7.7039    4.1501  -22.7066 H   0  0  0  0  0  0  0  0  0  0  0  0
    6.1366    8.4852  -19.5882 H   0  0  0  0  0  0  0  0  0  0  0  0
    6.3434    9.6681  -20.9240 H   0  0  0  0  0  0  0  0  0  0  0  0
    4.7055    9.0571  -20.5108 H   0  0  0  0  0  0  0  0  0  0  0  0
    5.5736    7.2333  -23.6711 H   0  0  0  0  0  0  0  0  0  0  0  0
    4.3741    8.3277  -22.9030 H   0  0  0  0  0  0  0  0  0  0  0  0
    6.0120    8.9387  -23.3162 H   0  0  0  0  0  0  0  0  0  0  0  0
    8.8567    6.1890  -22.4802 H   0  0  0  0  0  0  0  0  0  0  0  0
    7.4392    6.5592  -23.5196 H   0  0  0  0  0  0  0  0  0  0  0  0
    5.3657    6.7799  -21.2239 H   0  0  0  0  0  0  0  0  0  0  0  0
    3.5567    3.1607  -20.6035 H   0  0  0  0  0  0  0  0  0  0  0  0
    3.3227    4.0549  -17.3120 H   0  0  0  0  0  0  0  0  0  0  0  0
    2.4700    3.8059  -18.7989 H   0  0  0  0  0  0  0  0  0  0  0  0
  1  2  1  0  0  0  0
  1  3  2  0  0  0  0
  2  4  2  0  0  0  0
  3  5  1  0  0  0  0
  4  6  1  0  0  0  0
  5  6  2  0  0  0  0
  5 13  1  0  0  0  0
  6 22  1  0  0  0  0
  7 18  2  0  0  0  0
  7 19  1  0  0  0  0
  7 23  1  0  0  0  0
  8 11  1  0  0  0  0
  8 12  1  0  0  0  0
  9 13  1  0  0  0  0
  9 20  1  0  0  0  0
 10 11  1  0  0  0  0
 10 23  1  0  0  0  0
 11 13  1  0  0  0  0
 12 16  1  0  0  0  0
 12 20  1  0  0  0  0
 13 18  1  0  0  0  0
 14 17  1  0  0  0  0
 15 17  1  0  0  0  0
 16 21  1  0  0  0  0
 17 21  1  0  0  0  0
  1 24  1  0  0  0  0
  2 25  1  0  0  0  0
  3 26  1  0  0  0  0
  4 27  1  0  0  0  0
  8 28  1  0  0  0  0
  8 29  1  0  0  0  0
  9 30  1  0  0  0  0
  9 31  1  0  0  0  0
 10 32  1  0  0  0  0
 10 33  1  0  0  0  0
 11 34  1  0  0  0  0
 12 35  1  0  0  0  0
 14 36  1  0  0  0  0
 14 37  1  0  0  0  0
 14 38  1  0  0  0  0
 15 39  1  0  0  0  0
 15 40  1  0  0  0  0
 15 41  1  0  0  0  0
 16 42  1  0  0  0  0
 16 43  1  0  0  0  0
 17 44  1  0  0  0  0
 18 45  1  0  0  0  0
 19 46  1  0  0  0  0
 19 47  1  0  0  0  0
M  CHG  1  18   1
M  END
> <OMEGA_C>
44ycQBQcgb9dcKfBA565QLriwb9uAa/BgzqaQDZ+vj4Ge6XBAorUQOQvJL/kqLTBfOu0QIyQoj+L
J6vBNYnSQDvJPT8Y0LLB9mSQQDZgXUDYOZfBgL3pQAStlED5Q6XB9PmnQGBuYEAaf7PBujfmQPYj
LUCVQZjBcGHgQIrPSkBA1aPBuNrkQKqlnUBHQbHBMnmzQMSXMUCNsKjB1q+4QP+0DEEzoaTBaRuu
QJkQAUHkuLfBElf4QNDryECpC7TBfGe+QPeo9EAEjazBJNWOQIJ1SUD3dKHBns1UQOCKc0AePpLB
Eh64QIvjmkC267PB8YnrQL4x6kD4t6zBftntQMTlwz9rbrjBKla/QLmfXkBdeY/Br+eHQG6v179l
HKPBMz27QJr7JMDReLDBgvSDQGBaQD/MnJ/BD+DqQLR4hL/Mc7rBcNjSQFYDqEA9pqDBqUAFQYgI
nECToKLBT7W1QKbMO0BvLrrB4vGEQCSOYkB/ULTB1lTiQLJ0zj8s55fB80kDQRdzPkBrjZXBpVb4
QKIdKECBmqjBlIb2QEzNhEArp7XBFF/EQGfDB0GKtJzBDf3KQHiwGkFOZKfBh5OWQOjpEEEdFqTB
A1uyQJB350BZXr3BxviLQGA+BUFZObfBTWLAQO8ED0GLh7rB5bQNQXgMxkB617PBtA3uQOrk0UAs
KLzB17OrQPT02ECjyqnBgKFjQD1JSkD606TBtadUQO3BgUDuforBRBQeQMyTc0AOZJbBVBGXQDsP
dL+kBafBD7S0QJ76xr8C+K3Bd2+XQKz63z4rfKXBSfLSQMEtRL8mYLPB0ai1QC48oD+I5qrBkMXT
QJA6ID8457HBlJiRQEXvWUA1zJfB1THoQETklkCeV6TBWz2uQGzbXUD/ArTBlGboQMVHKEAvwpjB
SmziQHizTECaEKTB/XLgQNZGpkDL36/BSly2QLVyMUDcBanBt5emQPAAEEGO/LTBwealQHXIEUGr
v6DB0jXlQG801kCxVLDBXhC/QMZrCkHRoarBYouRQPwDT0BhPaLBEhBXQDaBckAfBZPBIHm1QF/O
m0ByMLPBZMrDQDG+50Aj0anBbAPyQLzIqT9kTLfB9hi/QBQmTkAUjI/Bbdp/QL4LyL+i2aLBizm0
QJDzJ8DzJq/B34OAQA8yZD9sIqDB5rTpQNzZnb+KsrjBRArRQLcjpkCH657BsXIEQSY7n0BA16HB
ABjEQBnIQkDiBbrBZvCMQGt8UkDde7bBlPbmQHsGxD8cKZnBEvQDQTkZPEAHt5XBZ4j7QCKsMEDg
I6nBgAL4QI8zl0B4N7XBiia5QFqZCkF29bvBxUWHQLv4B0F18LTBYuahQDtsIUEfcbXB5uC3QPCn
DUFBeJnBUjShQC02I0EqGaHBtJOGQK7CCUGAmKDBMlYCQUnD30DaMK3BM+jhQCF54UByoLjByXHe
QDhkEkGEvarBgEhsQL+6W0CcDabBC9tUQAj6fED1IYvBZ1AiQPPEeUBedZfBxDPWQCsML78xprTB
CQG9QJTIyr9/y67BQrLRQGHOMT/X+bLBZmCfQLBVjb+LQqfBz9mzQC5Amj97a6vBPa+aQEbAjT6W
dqXBrGWRQP1bXEDu9JfBwEjoQLfEkkDmCaTBBqWtQNHsXUB2ArTBYqDmQB/FH0DlJ5nBhtTgQJ1u
RUDrXKTBBrTfQLfgpUB18K7BTCe0QKkyLkAfNKnB+0OvQGV2EkGCx7XBRlOuQHhy8UBXksXBmkrm
QGK11UDLba3Bgl21QPu09kBairnBIPGPQAdKTUB9U6LBp81YQPOPeUAWEZPBS5i0QFK0m0CzaLLB
WqHgQPE36kBnZrfB2hN9QGV2KD/K1J3B2A2/QPWLS0C40o/BcQXtQMOchr+obrrBO17AQP5pKcDU
E7DB9T7lQJnfsD/fgbfBf/6LQBHO5r+HzKLByZrSQENSoUAbI57BadMEQdIrmUAJvaHBAJDEQFqE
RUCN87nB39GMQEFXU0Ad5rbBv83iQEy5sz/lj5nBTHcDQdpAL0AEP5bBEFv5QHYJKUA6lanBxET3
QJ6emUCitrTBY7S0QHJlE0H6GK3BaTzGQLXlHEF77rnBL3iOQHO0F0G9m7fBthuzQJK+z0DPz8fB
HISNQBc4+0CansfBVkjFQE7NAkFZ8cnBXtHOQH0U4kCApafBMmwDQdnG20DncarBY9+eQO3h4UDV
NrXB/d9nQGuVV0Ab+qXBlhxYQC88gkAsL4vBHRMkQIjegUAwa5fBv+bUQMrPMb94LbTBJH65QAt7
yL8eq67B2W3SQFzqLz9EWLLBgaCbQAnyhr+6VafBcju0QKGBnT8gCKvB/amYQLHyqD7qdKXBm5iR
QL4SXEA44JfBdlfoQL1DlUBxM6TBhEquQFD1XUCcAbTBT6vnQCH/I0BeA5nB7ZnhQA16SUAHPKTB
p3/gQAHcpUCfd6/BEQu1QDFnMEDQDKnB+zDPQI+AD0FhdMXBqgmZQBUuBEHifbfBiArnQL6K1UBp
Xa/BUyPJQEWQBkHaJLrBSf6QQKYWUUBoUKLBNlJXQIXpc0C//JLBqk61QDcBnEDEy7LB0X3dQMlI
5EAC37nBiDZ2QIpIPT8iRZ7BNSe/QN4tTEAYso/BRN7rQH0Wi78f0rnBgVm7QPlZKMBlELDBlNrn
QFHXrD/OkLbB5bSGQBCI3b9OF6PByLvRQCNepECinJ7BrKcEQcCunEDHvKHBdwfFQMcWRED25LnB
bWGNQJrEUkAazLbBzSzlQJG7uz/ZdpnBQ8oDQQ/KNUDXCZbBvD76QNxKLUD9b6nB6a33QEQQl0DY
9bTBLZHxQPIREUGILcfBOYDAQI2OBEEkScvBi9e/QLpMH0EtBsbB9WeVQESA+0C0Wa/BZWmJQFjr
E0FM/bfBExKKQFZa8kBDQL3BgW3RQBGU5EA1hqnBlzIEQXwq3UAITK3BnezXQDCHEUFIVrTBaahr
QAQGYEC3G6bBRhtVQNere0AXDYvBxr4iQFZefUCmZJfBqgGbQEiUg78IcqfBr4i4QGhAyr8mrq7B
1K6ZQJN1tz4Kx6XB/e7UQO4/P79OR7TBhAm2QHCAmz+OW6vBtRnUQJ5JJD+GrbLBCbyRQOy/XECG
45fByk7pQBaNk0A0UqTBeD+sQDcBXUBGxrPBT2LnQB4UJUDen5jBqRviQB5TR0C5CKTBntHfQAWh
o0C1ha/BCrm1QPH0LUClDKnBEl/DQEAtD0FoosPBbzq2QLu+EUGovK/BbsvmQEKz0kA3J6/BBtjT
QGW5CEE4mLjBd7qQQHjVSEDKHaLBQWJYQFUAekD/RJPB3O6zQOLbmkBdYrLBcznUQIYP5EBEfbjB
0Q/xQGGNsT/LJrjB4UG/QFxjUkDrn4/B3kCFQNcv1r9dJ6PBI2O5QM58KcBI8K/BteWCQHNyRj/h
M6DB4YTrQD+mlr9M17nBq9vTQO9Po0ARkJ7Be2AFQdC0mkDHPaLBYEvBQAnhQ0AoF7rBa6KKQNrE
UkBGDbbB3uzjQI4Mvj9Wu5jBfLkDQSsKNkB0rZXBngL7QGFMKUBT/qjBDvr1QJLClEDlQrXBZ7bY
QMSoCEHb08nBa+SiQOfKCEGCyMTBw6HCQPu6IEHPPsTB7YHCQBv3DEH316fBYHC1QOhOI0E9RbDB
CLOVQNReC0HwzrDBWGXXQBlM4EDZAajBM6IEQYTH2UDt9q7B7Uz0QPslD0FEdrfBLkJoQC3qS0BC
r6XB0OxWQKFBhEDieovB46IjQMFNgEBouZfBsuPVQDbyD7+5CrXBtMK7QG7Qvr/Hwq/BfhjSQLmb
TD9uo7LBDTGeQDbyhr+kBqjBTf2zQGJXoj/N8qrBVDqaQO4VoD4UgqXBolKQQDjMX0C6NZfBvEnq
QGBClECfY6XB++6oQPbrXkC2nbPBCPLlQM5aLUC3RpjBWDjgQJUySkD85aPB9hvlQLponUA2W7HB
7/CyQIwOMkCKl6jBHL24QOZMDEH+W6TBz4GtQNYPAUE9frfBaiP4QFfpyEBwIrTBjkq+QL439EB2
Z6zB1NKOQMp0T0CDi6HBXj1UQGhccUCTCpLBIFu4QLBdmkC2+bPBvHjrQC7y6UATt6zBjvZ7QO0q
KD8Qyp3BQIS/QPhOYUCnio/Bo9DsQE9PZb9m7rrBL1S+QEyxIsCOobHB9m3mQFE+wT9rs7bBz0eK
QBBr47/A96PBVeXTQPH4p0D3t6DBvKIFQegUm0AV1aLBdDy4QDQaOkBNEbrBrROGQEmQX0Dt1rTB
QmnhQD1Hzz9x0JfBoD4DQWu2PUBAnpXBOcn3QPxmJkD0qajBK+X2QBLLhEBEzrXBSsbEQMUyB0E5
fpzB2tHKQOhhGkHaFafBRp6WQMhsEEFAtaPB1KOxQLa850CnOb3BIlyLQLcoBUFF47bBto+/QNcd
D0HeQ7rBhp4NQWRJxkA8C7TBoGLtQMkC0kD8MrzBjNCrQAVQ2EBuranBCedkQFOFV0DRGqXB0ANU
QCFTfkALNYrBVEsdQD0UcUCzJJbB

> <OMEGA_E>
6ET9Pkih+j5Q8Pg+HG30PoAE7D68zwU/

> <OMEGA_NBR>
     16511

$$$$
278163
  -OEChem-04172616093D

 44 46  0     1  0  0  0  0  0999 V2000
    6.6982   -0.5813  -22.5490 C   0  0  0  0  0  0  0  0  0  0  0  0
    5.7865   -1.4772  -21.9740 C   0  0  0  0  0  0  0  0  0  0  0  0
    6.6231    0.7802  -22.2336 C   0  0  0  0  0  0  0  0  0  0  0  0
    4.8095   -1.0089  -21.0768 C   0  0  0  0  0  0  0  0  0  0  0  0
    5.6421    1.2799  -21.3299 C   0  0  0  0  0  0  0  0  0  0  0  0
    4.7309    0.3571  -20.7434 C   0  0  0  0  0  0  0  0  0  0  0  0
    4.5187    3.4898  -18.8982 C   0  0  0  0  0  0  0  0  0  0  0  0
    7.3380    4.6892  -20.7175 C   0  0  0  0  0  0  0  0  0  0  0  0
    5.3047    3.4608  -22.4488 C   0  0  0  0  0  0  0  0  0  0  0  0
    7.2232    2.7727  -19.0244 C   0  0  0  0  0  0  0  0  0  0  0  0
    7.0360    3.2092  -20.4845 C   0  0  1  0  0  0  0  0  0  0  0  0
    7.1450    4.9357  -22.2271 C   0  0  2  0  0  0  0  0  0  0  0  0
    5.6222    2.7991  -21.0590 C   0  0  2  0  0  0  0  0  0  0  0  0
    5.9391    8.2844  -20.2048 C   0  0  0  0  0  0  0  0  0  0  0  0
    7.7021    6.2821  -22.6927 C   0  0  0  0  0  0  0  0  0  0  0  0
    6.2002    7.8591  -21.6457 C   0  0  0  0  0  0  0  0  0  0  0  0
    4.4956    3.2864  -20.1973 N   0  3  0  0  0  0  0  0  0  0  0  0
    3.3080    3.7245  -18.2671 N   0  0  0  0  0  0  0  0  0  0  0  0
    5.7422    4.8164  -22.5010 O   0  0  0  0  0  0  0  0  0  0  0  0
    7.5210    7.2980  -21.7035 O   0  0  0  0  0  0  0  0  0  0  0  0
    3.7737    0.7327  -19.8651 F   0  0  0  0  0  0  0  0  0  0  0  0
    5.9826    3.5198  -17.9239 S   0  0  0  0  0  0  0  0  0  0  0  0
    7.4544   -0.9396  -23.2317 H   0  0  0  0  0  0  0  0  0  0  0  0
    5.8341   -2.5277  -22.2199 H   0  0  0  0  0  0  0  0  0  0  0  0
    7.3241    1.4667  -22.6850 H   0  0  0  0  0  0  0  0  0  0  0  0
    4.1107   -1.7058  -20.6382 H   0  0  0  0  0  0  0  0  0  0  0  0
    6.6446    5.3157  -20.1372 H   0  0  0  0  0  0  0  0  0  0  0  0
    8.3729    4.9181  -20.4231 H   0  0  0  0  0  0  0  0  0  0  0  0
    5.8151    2.8912  -23.2395 H   0  0  0  0  0  0  0  0  0  0  0  0
    4.2182    3.4303  -22.6180 H   0  0  0  0  0  0  0  0  0  0  0  0
    7.1349    1.6778  -18.9672 H   0  0  0  0  0  0  0  0  0  0  0  0
    8.2252    3.0779  -18.6884 H   0  0  0  0  0  0  0  0  0  0  0  0
    7.7746    2.6451  -21.0730 H   0  0  0  0  0  0  0  0  0  0  0  0
    7.6847    4.1434  -22.7665 H   0  0  0  0  0  0  0  0  0  0  0  0
    4.9319    8.7196  -20.1272 H   0  0  0  0  0  0  0  0  0  0  0  0
    6.0112    7.4073  -19.5450 H   0  0  0  0  0  0  0  0  0  0  0  0
    6.6862    9.0331  -19.9026 H   0  0  0  0  0  0  0  0  0  0  0  0
    8.7771    6.1717  -22.8981 H   0  0  0  0  0  0  0  0  0  0  0  0
    7.1820    6.5841  -23.6137 H   0  0  0  0  0  0  0  0  0  0  0  0
    5.4597    7.1063  -21.9540 H   0  0  0  0  0  0  0  0  0  0  0  0
    6.1347    8.7321  -22.3116 H   0  0  0  0  0  0  0  0  0  0  0  0
    3.6311    3.4778  -20.6620 H   0  0  0  0  0  0  0  0  0  0  0  0
    3.2834    3.9046  -17.2838 H   0  0  0  0  0  0  0  0  0  0  0  0
    2.4587    3.7139  -18.7949 H   0  0  0  0  0  0  0  0  0  0  0  0
  1  2  1  0  0  0  0
  1  3  2  0  0  0  0
  2  4  2  0  0  0  0
  3  5  1  0  0  0  0
  4  6  1  0  0  0  0
  5  6  2  0  0  0  0
  5 13  1  0  0  0  0
  6 21  1  0  0  0  0
  7 17  2  0  0  0  0
  7 18  1  0  0  0  0
  7 22  1  0  0  0  0
  8 11  1  0  0  0  0
  8 12  1  0  0  0  0
  9 13  1  0  0  0  0
  9 19  1  0  0  0  0
 10 11  1  0  0  0  0
 10 22  1  0  0  0  0
 11 13  1  0  0  0  0
 12 15  1  0  0  0  0
 12 19  1  0  0  0  0
 13 17  1  0  0  0  0
 14 16  1  0  0  0  0
 15 20  1  0  0  0  0
 16 20  1  0  0  0  0
  1 23  1  0  0  0  0
  2 24  1  0  0  0  0
  3 25  1  0  0  0  0
  4 26  1  0  0  0  0
  8 27  1  0  0  0  0
  8 28  1  0  0  0  0
  9 29  1  0  0  0  0
  9 30  1  0  0  0  0
 10 31  1  0  0  0  0
 10 32  1  0  0  0  0
 11 33  1  0  0  0  0
 12 34  1  0  0  0  0
 14 35  1  0  0  0  0
 14 36  1  0  0  0  0
 14 37  1  0  0  0  0
 15 38  1  0  0  0  0
 15 39  1  0  0  0  0
 16 40  1  0  0  0  0
 16 41  1  0  0  0  0
 17 42  1  0  0  0  0
 18 43  1  0  0  0  0
 18 44  1  0  0  0  0
M  CHG  1  17   1
M  END
> <OMEGA_C>
RFfWQPfOFL9UZLTBryq5QFgTvb+8yq/BXPDTQFK+Rz9Q3rHBW+eZQJQigb9inajBKoy0QEXSoz+2
o6rBgmOXQLzUtj568qXB05iQQApZX0CcL5fBBNHqQPANlkBovaXBRsCpQNB9XUA+l7PBgyTnQHx0
MUD4MZjBFSfhQIhjTUBY4KPBBaTkQDrxnUAS0bHB+uizQLgkM0C+eKjBOA2+QN2MBEGEo6HBo3f2
QP0GyUCyirXB9mfGQIR9+0BmKq3B9NuPQABUUkAYlKHBvrZTQMBebkAUI5LBtr+3QAAgmkD6AbTB
0avwQKCJ6UC8oK3Bz4NxQOKPOz+w657BJHG/QLBDYUA4ZI/Bi4ruQCmJcL+C2rnBw7C6QPPFIcBY
wrHBpF7qQBO9uz/serXBJ4uDQPxW2r/vGqXB36DUQDgaqkD9GKHBUvcFQb1gnUB1YqPB8RS6QLoI
OUBo6rnB0fuGQEqKW0DC8bTBdFHkQFPB1j/RvJfBgZoDQcz7REDygZXBN8n4QMtIKUCOlajBVOn1
QNaWhEDZIbbBz9GdQIqDC0GTBKHBI1zAQE8I7UATXJzBPPXVQHKHEEF4OJ/BC28MQUl+xUA+L7fB
B9PlQEWx0kDx6LzB/rWuQP9m40Dboa/BF0/EQMq2C0FAfrLBxmNoQESUXkDgS6XB0SNSQIrkeUAt
RYrBalsdQBKxbUDxW5bBIKHZQJyKGr8hY7TBgh+5QD3svL++ErHB7uTYQJh9Oz8YErHB6giYQCk9
gb+Ca6rBGJS3QOB0nT+0ZarBKNmWQICRqj68D6fBfC+RQJE9XkAeSJfBYr7nQPLKl0Af1aTBREut
QCuFVkBNf7PBPkToQEtVMEDc3ZfBXEHiQD+cTkAOd6PBTFvgQN61oUCty7DBtka2QJmRL0AuO6jB
BuL1QAATA0GigZ/BqvHmQKo50ECeW7PByO7XQJqfB0F4BKnBeE+RQMFKTkBbnaHBTzFVQOPQdUB3
sZLBnPu0QHq+l0DFerPB1ufHQFA16EAFXa3BJ2lrQCSiNz+bz6DBZNi+QKc7WkDaAY/BPh3zQEYG
dr+SebnBgHu5QE96IMCwobPB/BbyQIAbsz9Gn7PBk3l+QNRc2L9426fBnCnQQCj0qEC055/BjB0E
QaJ0oUAbdaLBE2LCQKvVN0BRaLnBlrGLQE2xSkDgqbXB5BjnQAr50z9bsJfBdNYDQQ0yRkCu+5TB
yXP7QNzML0DYQKjBS4n2QLBBjkB+mLXBrPcAQXxHEkGXQZzBQCPkQO/m9EByP5nBOn0IQY948kDk
N6LB8roDQcMR2kA5DrHBeljiQMCz1UBv+bvB4++8QFl/EUGLRqbBF8fpQClIEEH8Pq/BM2hrQNCx
V0BWfKXBv2lSQFv7gUAd5orB4kEgQPGveEDXLJfBXF6VQGngd7/BK6jButSzQFAHy78XyK7BPLOX
QLLs0T6bL6bBiNrUQHN9U794Y7PBQLO4QGdEmT+9zqrBiKLXQMpcDj+uc7HBjo2SQBQXWUCnNZjB
/DHlQNr5l0DaQKPBRPOzQOOHWUAZ/LPBgtrpQOofJkCIk5jBkO3jQDJ5TUC2v6PBqEPWQI9zrECH
4q3BBG65QD/pLUCa+ajBcDYFQeS2/EB9bbrBNM/KQKxJ20B2sqvBIGAKQbMr8kDHnq7BKmOTQCHP
SkAvk6LBj6laQCX5ekCV7pPBvlawQL6WmUCxR7LBhCrvQAT88kBUzKfB2hP4QOYunj/iJ7bBIAK+
QPAWREC7eo/BNzN4QHQTx7/Pm6TBduGxQABoKcD2U7DBdSaAQDC0YD+hFqHBbEHsQL5Ip790c7jB
RQ7QQBnjokBqxJzB8RgDQVdFokDvl6HBJfDPQE/5S0ClC7nBLeCWQAtqQUCY7LfBerfqQIYAwD8l
U5nByiUEQVzfPEDOMZXBXJP+QE/mN0Cx06jBWqnwQDMiq0BtsrPBdQIUQSCc+0A1L7/BLYbzQMEc
5UC6kL3Bv1/8QFp2DkEj77rBDn+/QFQQ6kCvKrPBETGxQEd63EBWq6XBAYMRQTYH0kABQK7Byu8V
QZTrBEFpnqvBSilwQIkSVED3lKbBAd9WQCeBg0DJFozBl7coQKSyg0Dqr5jB6ebWQPr+Ib8anrTB
D6i8QM7Vxb90Mq/B87/SQFDgPD/8lbLBHgqeQM+oir9q1KfBswa0QPmQnT8mKqvBcVqZQPAGlj7Q
xKXBQfSQQNxrXUABjpfBd3XoQB7sk0CZnKTBKnGrQKKBXUAH37PB5njmQJL+JUAKt5jBrH7gQD4K
SEDUG6TBH3fiQMzzoUDNMrDB4J+zQBLPL0CD5KjBMuykQOvtAEE37rrBkZjtQJzQ0EBj3bDBCZq+
QLjjBkHv1bDBiIePQKYzTkAb7KHBDLZWQORbdkAFlpLB/HO2QA0Sm0AtU7PBbrbMQGpE6EBhVqvB
lrR2QHCKKT8DjZ7B726/QPbFVEB0lo/BSDnuQBo/fL8KVrrB+fO/QA+xJsAkrrDBqkbnQFGutz/i
u7bB8t+JQIlz5b/Hs6PBWYXRQA7IpECJb5/BwaEEQX4Wm0Cw+KHB4f6+QMCGPkBxFLrBhl+JQI6L
V0Bx9LXBFILiQCsWwD8nw5jBb3ADQTwlNkBR75XBALz4QMvnKEBgKqnBASj4QHR7j0DqXbXBdW6a
QJebD0FJBL/BvT65QO/87kCbWcDBcsKIQM3Z7kChobjBamQGQcee1kBIDa3BavLuQGns2kCQSbnB
eKTaQN1vEEHKLrPBLSiqQExeEEHQdqvBG8tmQETvV0ANiaXBu0xWQPtkgUAPvYrBpNMgQGPve0CM
2JbB/uqYQLCFe791z6bBuHS1QHR/yb/aFa7B7iCZQBeo0D5vR6XBQajSQCEMR78rxbPBezG2QOyO
nT+1/arBuZnTQOQpHT+gObLBNsORQNEPWkBo7JfBavHnQCpplkARG6TBo12uQDKHXUD07rPB82zo
QGCSJkAZxJjB+o/iQDl7S0CDCaTBpHnfQG1RpkDhb6/BhKi2QKTzL0DmDanBVZWwQAQNEkG84bTB
TPvjQN0F1kDoga/BsAHXQH3SCEF7E7vBW56RQL2vTED5T6LBgtVXQJBMdUCARJPBQH60QMmem0Cx
rLLBN9bYQHoo5EBuA7rBGGzxQFoQqT+atrfBc/S+QIKQTEAOlo/B6r+CQCSuzL/sYaLB9fG0QO8p
KcBIT6/BQPWCQHrTWj8xs5/BIIToQLVYnr+4XLnB+PrQQBYVpUAAiZ7Br1sEQX/ZnkBrr6HB+NHE
QIH0REBt+bnB5lSNQOYHUUBWirbBJuTmQEunwD+vNJnBtfUDQbgaOkCbr5XBXeb7QM9eMECfHqnB
ZvD2QJUCmECK77TBVuKvQNSLI0Hp0rXBbsKSQOYrC0H6C7jBUqqzQAMFDkG3WazBUVDOQMhe5EBm
kqnBYJYCQWMX30Ayp63BHs3TQDX1DEGTl8PBArX0QFHOD0FQ5bfBktZrQFK4VkDjHabBVG9VQGpd
gEDlZovBTJYjQFuIfUCZxZfB0G+YQBwsgL98qKjBVsm2QLf7w7/Oya/BcLSYQIb9uz5ILKbBUpTV
QFuIMb9JebTBnmS3QHZjnT+J26rBeTHWQNOTLT+vGbLBJUORQFllXUARb5fBTHvoQEaAlkAd0qTB
ljKrQAtxWkB1fbPBpLTnQO8YLkCjCZjBuRTiQBCnTEBFnKPB4TPhQL0/oUBYsLDBRge2QN4RL0CY
iajBG4OvQM25E0E7EabBC53qQJGfz0BrtbLBh7zUQI2WCUFdD6zBnrSQQCkeSEDdnaHBEflVQPMr
d0Al35LB5BO1QLtomUCfRbPBrNfLQMv85kDmu6zBhDL0QBr2tz+qFbfB4D2/QFvtW0BwSI/BD8+A
QHAy0798E6XB6mu2QLNzJcAHq7HBm12BQEjqQz9kp6DB8uXsQFGcjb+87bnBXU7RQH3ap0DJ0J/B
dJcEQSNgn0D2b6LBpfG9QO94O0Bv2rnBINyIQLh3UkBLJrXBSRDlQPTVzz+J0ZfBb8cDQdppQUCd
LJXBvjf7QMpbLUCLXqjBslL2QCM3jUDforXB8O20QHINJUEQU6XB4qORQP3cEEEwf6rBQQytQAaW
DEEtDJ7B8pEFQUKT10C9/q/Bq5PnQOXs1kCgSLvBtGLXQCiCEEHCH7TBEsvyQDA7DEG/rKfBtRto
QCyqSEDFLaXBCBBUQCgfhEBMKovBGJwgQAy2eEC0SJfBjtiYQK2yg79oO6fBnty2QHEJ0b/QDK7B
CNSYQMgfuj4T3KXB5ufUQJoJWL9XiLPBo/+2QNnvlj+uT6vBDVDVQHpvDT+5N7LB6VGSQAj5WEBu
Y5jBO3rnQLrElEDcIqPBTi2yQPrSXEBA9rPBhYnoQNjGHkDY65jBA0zjQAzeR0C/AaTBgZHYQDOD
q0DcVK3BEva3QPuVLEBZRKnBgbMCQTnq+0CV07vBlzDRQJJ42kAHSqrB0qzVQMhA8EAYCL3BpjeS
QMZySEDKsaLBZTBcQMrEfkCjFJTB19ywQL4Sm0DFmrHBgb++QIxn8kDf+LLBE4TzQPPMoD9klLfB
VWe9QJKGP0B6uo/Bv7uBQM+I0b+HCaPBMtu2QP8kLcDCFK/BdqCBQAMFUj8EmqDBkdjrQEIRqL8N
y7jB2ePTQM7vn0DqYJzBeZ0EQfThnED1raHB+jPNQCzrTkBVU7nBHR6UQOwASUAQ0LfBrePnQJ54
sT8zy5nBPr0DQWKDMkADh5XBnFX9QHBrMEAHJ6nBegnyQK+1qUCkY7PBYZ8KQcbH+UCqqsPBsSEE
QSBfDkGGu7jBMF4KQUiK5UDLN7bBkmO7QMnN20BdY6PBZA7wQHz56EBFHKjBq83GQN1XA0Hys8LB
qUbTQMN7z0A2MMDBtqlsQLoOT0DXh6bBnU1ZQEeQhUBOPYzBksoqQLvXhkAl0JjBtkCbQBRRgr9o
A6fBJa+4QOYryb/rQ67BIFaZQKB/vj7fhaXBbU7UQBFVPL/FErTBL+i0QBXhnT/oUqvBH8XSQKwe
KD/PrLLBUESRQIFgW0ButpfB8wfoQKN9lEDBX6TBjFSrQAtFX0Cm37PBVe/mQKA3JUB9ypjB6Qrh
QMzWSEDTHKTBKb/hQMxgo0D94K/B/5+0QIyzL0BBFqnBJOWlQHr2AUGAR7vBparrQJGQ0kDhOLDB
QXu7QM5SB0ELg7DBCe2PQL0qSkDRBqLBJMZXQGs8d0B54pLBY921QEn6m0BjF7PBSdbIQNyn6EC4
F6vBXRHvQD6usz+rVrjBdli/QB+GUUDqoY/BjwaGQD0M1b+skaLBhg+6QFoUKcCfX6/Bl66CQHnk
ST/U6Z/BAdrqQN02lb8kpbnB/cPQQFVzpECkHJ/BKFgEQX4YnEBgsqHBzZW+QC0FQkDbRLrBNiWJ
QKPlWECM0LXBnHLjQCFfvj/oApnBGpMDQcPPNUD66ZXBLcr5QKt9K0DELqnB7Of3QCH5kUAvJ7XB
WvubQNvbEEHkQb/BgKq8QCOq8kAja8DB16OJQB6870C417nBht4EQQ4G2UBe8avBTafuQEg/3UDn
krjBaJvXQHJ5EUEcArLBv5SkQG8CEEGxbqvBmaZmQKFCT0DWjqXB70BXQMeAgkCCEovB11AiQLiU
fUALNpfBFknWQH9oP7+3ibPBW6m3QOzEyr99x67B64DVQBpNIj9YjbHBHA6YQGquhL+6GajBLt+1
QCgGmz/W06rBCKiWQLLnsT7BG6bB5SqSQPAfWkCcDJjBug/mQHr8lkDpWKPBhlWzQLrzWkDrE7TB
UenoQHwVI0BX45jBJsriQKSLS0AO+KPB33DaQJp/q0AXHa7ByEy3QG5oL0B9/ajBMioMQYGY/EAQ
nbnB/jLTQHFR20A+K6zB1TTsQNFR70DCD77Be6mSQPIfUUAXhqLB9R9ZQOaZdkAhZJPBT1azQJbb
mkBIqLLBd7LKQBCd8UC+C7bBPZRtQG6eSj+ItJ/BiEy+QDJiQ0Cmk4/BA3PuQKdVlb/+ubjB/2W4
QDZ6KcB2QLDBBFztQABhoj81M7XBpJKAQEGo179rdKTBk/PPQFXGokClKp3BOoMDQcDun0BgOKHB
QpLOQEw2SEDVIrnBz0uVQN4CR0Dr7bfBnInoQJ79uT+ltZnBkPsDQQyMN0DdoJXBhJT8QEtkNEBU
NqnBljn1QHBMp0DpubPByzsYQTNJ+kAd/r/B22ELQQzhDkFlsLbBKZoQQV4150BS/LLBRre3QAlk
30ACxKbBB/7vQEAA6UD/b6jBytjjQDNjAkGut8TBZ0nuQKw5zkCbA8HBA4pwQEhOYkBcgabBIp1V
QODXfUBjdIvBUlQmQN31gUDT9pfBviKaQK58gb+5SqbB5j63QBo0z79jVa3BVwuZQFDNxT7oSqXB
a1zTQIi8U7/PZbPBlzC1QLV5mj/aWavB/7DSQH8fEz+CdbLBgfiRQPPBWEC9O5jBgnfnQPgclUDZ
vaPBzymvQOfrX0DkFrTB8jPoQGQAIUC2SpnBlCfiQDLuSEC2YqTBQ5zdQDZ1qUAhgq7BLDO2QGja
LkAjbKnBierNQA42BkEFL8fBqxTgQPjw2UBI2qzBE8zGQBYM60DFhL7B70mRQBEXS0CLnaLBovtZ
QNEXeEAqjZPBqjazQN8OnUDQGrLBfWboQGAb70AQv7bBjXHvQNGfoz8yTLjB9/C+QCr+RUBc7Y/B
4YiEQESFz78soqHBEga4QKRwLMCVFq7BBoqCQDsPWD9Z2p/BJKfpQO8jpr/q0bjB4WPRQObwoUAc
r53BSk0EQTW2nEDwdaHBkU/HQNrGS0Dv+bnBAP6OQFr+UUAgNbfB40TmQFvetT8e/5nBT+8DQVUV
M0AlL5bBRH/7QJ/oL0CboanBBu71QAWjn0CjYLTBgni0QKDtBEH1Os3B+ULNQGxHFkGmmMPByC3t
QOOBA0HF/srBDHnBQPNq5UChlqnBNPz5QNk44UDnLafB3punQJJg8ECXqbrBrIbHQIHVykC3D8LB
ZbpqQEt3VECeV6bBGFtYQIjBgUCzrovBzTMmQLSmgUAaCpjB

> <OMEGA_E>
GI3ZPiD+1z5AB9E+KJDLPoQAqz5YiMU+2Me+PtCSvD6MX7w++GCuPg==

> <OMEGA_NBR>
     24576

$$$$
278162
  -OEChem-04172616093D

 47 50  0     1  0  0  0  0  0999 V2000
    6.6870   -0.6985  -22.4818 C   0  0  0  0  0  0  0  0  0  0  0  0
    5.8117   -1.5693  -21.8165 C   0  0  0  0  0  0  0  0  0  0  0  0
    4.2631    9.5618  -22.9147 C   0  0  0  0  0  0  0  0  0  0  0  0
    3.7133    9.3671  -24.1910 C   0  0  0  0  0  0  0  0  0  0  0  0
    6.5933    0.6844  -22.2679 C   0  0  0  0  0  0  0  0  0  0  0  0
    4.8364   -1.0539  -20.9461 C   0  0  0  0  0  0  0  0  0  0  0  0
    5.4082    8.8374  -22.5610 C   0  0  0  0  0  0  0  0  0  0  0  0
    4.3203    8.4478  -25.0725 C   0  0  0  0  0  0  0  0  0  0  0  0
    5.6216    1.2304  -21.3852 C   0  0  0  0  0  0  0  0  0  0  0  0
    4.7295    0.3323  -20.7242 C   0  0  0  0  0  0  0  0  0  0  0  0
    5.9588    7.9059  -23.4816 C   0  0  0  0  0  0  0  0  0  0  0  0
    4.5467    3.4367  -18.9787 C   0  0  0  0  0  0  0  0  0  0  0  0
    7.2575    4.6552  -20.5221 C   0  0  0  0  0  0  0  0  0  0  0  0
    5.4506    3.4724  -22.5040 C   0  0  0  0  0  0  0  0  0  0  0  0
    7.2286    2.5505  -19.1270 C   0  0  0  0  0  0  0  0  0  0  0  0
    7.0426    3.1408  -20.5291 C   0  0  1  0  0  0  0  0  0  0  0  0
    7.0231    5.1906  -21.9294 C   0  0  2  0  0  0  0  0  0  0  0  0
    5.6496    2.7571  -21.1329 C   0  0  2  0  0  0  0  0  0  0  0  0
    7.2411    6.6852  -21.8731 C   0  0  0  0  0  0  0  0  0  0  0  0
    5.4159    7.7391  -24.7114 N   0  0  0  0  0  0  0  0  0  0  0  0
    4.5255    3.2686  -20.2849 N   0  3  0  0  0  0  0  0  0  0  0  0
    3.3636    3.8123  -18.3643 N   0  0  0  0  0  0  0  0  0  0  0  0
    5.6778    4.8833  -22.3614 O   0  0  0  0  0  0  0  0  0  0  0  0
    7.1153    7.2139  -23.2049 O   0  0  0  0  0  0  0  0  0  0  0  0
    3.7647    0.7467  -19.8719 F   0  0  0  0  0  0  0  0  0  0  0  0
    5.9766    3.2016  -17.9617 S   0  0  0  0  0  0  0  0  0  0  0  0
    7.4318   -1.0922  -23.1576 H   0  0  0  0  0  0  0  0  0  0  0  0
    5.8873   -2.6353  -21.9730 H   0  0  0  0  0  0  0  0  0  0  0  0
    3.8128   10.2554  -22.2201 H   0  0  0  0  0  0  0  0  0  0  0  0
    2.8342    9.9155  -24.4955 H   0  0  0  0  0  0  0  0  0  0  0  0
    7.2722    1.3473  -22.7837 H   0  0  0  0  0  0  0  0  0  0  0  0
    4.1609   -1.7289  -20.4415 H   0  0  0  0  0  0  0  0  0  0  0  0
    5.8693    8.9857  -21.5957 H   0  0  0  0  0  0  0  0  0  0  0  0
    3.9014    8.3062  -26.0579 H   0  0  0  0  0  0  0  0  0  0  0  0
    6.5491    5.1260  -19.8246 H   0  0  0  0  0  0  0  0  0  0  0  0
    8.2870    4.8812  -20.2072 H   0  0  0  0  0  0  0  0  0  0  0  0
    6.1617    3.0613  -23.2356 H   0  0  0  0  0  0  0  0  0  0  0  0
    4.4225    3.3032  -22.8569 H   0  0  0  0  0  0  0  0  0  0  0  0
    7.1317    1.4562  -19.1829 H   0  0  0  0  0  0  0  0  0  0  0  0
    8.2316    2.8114  -18.7583 H   0  0  0  0  0  0  0  0  0  0  0  0
    7.8115    2.6989  -21.1799 H   0  0  0  0  0  0  0  0  0  0  0  0
    7.7561    4.7403  -22.6149 H   0  0  0  0  0  0  0  0  0  0  0  0
    6.4873    7.1460  -21.2179 H   0  0  0  0  0  0  0  0  0  0  0  0
    8.2468    6.8992  -21.4821 H   0  0  0  0  0  0  0  0  0  0  0  0
    3.6761    3.5056  -20.7565 H   0  0  0  0  0  0  0  0  0  0  0  0
    3.3344    3.9429  -17.3733 H   0  0  0  0  0  0  0  0  0  0  0  0
    2.5386    3.9528  -18.9116 H   0  0  0  0  0  0  0  0  0  0  0  0
  1  2  1  0  0  0  0
  1  5  2  0  0  0  0
  2  6  2  0  0  0  0
  3  4  1  0  0  0  0
  3  7  2  0  0  0  0
  4  8  2  0  0  0  0
  5  9  1  0  0  0  0
  6 10  1  0  0  0  0
  7 11  1  0  0  0  0
  8 20  1  0  0  0  0
  9 10  2  0  0  0  0
  9 18  1  0  0  0  0
 10 25  1  0  0  0  0
 11 20  2  0  0  0  0
 11 24  1  0  0  0  0
 12 21  2  0  0  0  0
 12 22  1  0  0  0  0
 12 26  1  0  0  0  0
 13 16  1  0  0  0  0
 13 17  1  0  0  0  0
 14 18  1  0  0  0  0
 14 23  1  0  0  0  0
 15 16  1  0  0  0  0
 15 26  1  0  0  0  0
 16 18  1  0  0  0  0
 17 19  1  0  0  0  0
 17 23  1  0  0  0  0
 18 21  1  0  0  0  0
 19 24  1  0  0  0  0
  1 27  1  0  0  0  0
  2 28  1  0  0  0  0
  3 29  1  0  0  0  0
  4 30  1  0  0  0  0
  5 31  1  0  0  0  0
  6 32  1  0  0  0  0
  7 33  1  0  0  0  0
  8 34  1  0  0  0  0
 13 35  1  0  0  0  0
 13 36  1  0  0  0  0
 14 37  1  0  0  0  0
 14 38  1  0  0  0  0
 15 39  1  0  0  0  0
 15 40  1  0  0  0  0
 16 41  1  0  0  0  0
 17 42  1  0  0  0  0
 19 43  1  0  0  0  0
 19 44  1  0  0  0  0
 21 45  1  0  0  0  0
 22 46  1  0  0  0  0
 22 47  1  0  0  0  0
M  CHG  1  21   1
M  END
> <OMEGA_C>
AvzVQLDTMr+72rPB2Pm5QHHgyL8kiK7Bn2uIQBL9GEFbUbfBeqdtQIzfFUEzh8HBB/zSQNA2Lz+5
JLLBcsOaQOnmhr+DkafBFxCtQPVlDUHzfLTB2T+KQB0qB0GUlMjB1+OzQCl/nT/zFKvBMFiXQCgk
qj4Wy6XBfa6+QDf9/EA+2rvBuH6RQCbyW0Bx1JfBrj3oQKz3lEAuLaTB9GquQGw7XkAjCLTB+lDn
QKM7I0ApBJnBIl3hQCUDSUCUO6TB8bzgQFYZpkBxb6/BWsm0QPFzMEBFEKnBfLfnQMjs1UAh/K7B
b0+tQGum90D6sMXBm9CQQFIxUUBmR6LBsURXQFb8c0D/6ZLBlrC1QAhEnEAz5LLByLDjQNzX5kCb
o7nBavFwQCUnPz+0+Z7Bo0C/QIbmTECSsY/BlNHtQODMi7+8QrnBGWW8QEOoKMCzyK/BZwV0QEEW
JEHOwrHB5mM1QBCmHkHV9sPBE7boQHZ1rD/sRLbBMSaFQHdM3b8riKPBB9G7QJHFD0H+w6zBLbB5
QBrmBEGEdtDBXpLRQFIIpECvmJ7BmZcEQYcynEBnqKHB+SzFQCPsQ0Bv4rnBg4WNQN5mU0Dz2rbB
wzbkQIVluj+sdpnBvrQDQeDtM0AIEZbB8/f5QAm7LEBicKnBYTL4QJGwl0A467TBmpfPQN2r5EBI
vqnB2fIDQR/G3EBf26vBtEVrQHpcYEBYDabBeWZVQOVYfEBu/IrBxXciQOX6fEACS5fBrwrWQNa4
Or8P37PBjZ+6QJNyzL+VUa7BiOmjQL1qyUBUvszBNr6IQJM57UCGZMzBUObSQCJmKD9bULLBIbKb
QEOoib+xUKfB5oDIQH9IyUCSQMbBkNWSQErWB0GQicXBxSq0QKzVmj+qMavB5Q2YQKpaoD6CtqXB
Uf3PQFxC7EC5Ub/BKc6RQK43W0CFDJjBDYLnQMMylUBY3KPBMVmvQK5AXkDdCrTB2MDnQLyjIUDF
N5nB147hQFbYSEAwVKTBvsTeQO9HqEBQ0K7BPTW1QNpKL0AMMqnBcn7jQHsE2UAN6K3BmK+1QFVR
B0ExIb/Bug6RQEyGT0A5eaLBIqhYQMRZdkBGN5PByy20QDFunEB6XbLBcIDwQLZX6kBUB7jBDs9y
QHT5Oj/d157B2ie/QFb3SEC31Y/BxI3tQGBpkL9RV7nBXky9QMuPKsDKba/B7MScQD2crkBf5dHB
DMhYQIlg7kAmU9HBejnoQC2WqD/KmrbBX3qGQGuc378aHaPBfbDeQFvPrkDmisbBRpB8QBy6FUE4
aMXBmxPRQLfcokCLAJ7BLkQEQU2gnEBccqHB3qfHQPzXR0ACwrnBbT6PQEjkUEC8PbfBEzHlQDgv
tz8r0pnBEdgDQT3lMkC3NZbBsYD6QMy4LkAVnKnBFMf2QOw5nEDsf7TBeKHEQFAa50BPj6vB+MH7
QA6l4ECw0qfBFHtrQEyDXUBqQabBL7NWQCwkf0CnS4vB3HckQIyUgEAhpZfB

> <OMEGA_E>
hA8oP/xSJj8=

> <OMEGA_NBR>
     26487

$$$$
278180
  -OEChem-04172616093D

 41 43  0     1  0  0  0  0  0999 V2000
    4.7575   -0.9737  -20.7870 C   0  0  0  0  0  0  0  0  0  0  0  0
    5.6850   -1.5907  -21.6420 C   0  0  0  0  0  0  0  0  0  0  0  0
    4.7320    0.4252  -20.6641 C   0  0  0  0  0  0  0  0  0  0  0  0
    6.5889   -0.8086  -22.3789 C   0  0  0  0  0  0  0  0  0  0  0  0
    5.6402    1.2356  -21.3969 C   0  0  0  0  0  0  0  0  0  0  0  0
    6.5763    0.5930  -22.2650 C   0  0  0  0  0  0  0  0  0  0  0  0
    4.5541    3.3975  -19.0015 C   0  0  0  0  0  0  0  0  0  0  0  0
    7.2479    4.6806  -20.5206 C   0  0  0  0  0  0  0  0  0  0  0  0
    5.4477    3.5053  -22.5172 C   0  0  0  0  0  0  0  0  0  0  0  0
    7.2491    2.5650  -19.1477 C   0  0  0  0  0  0  0  0  0  0  0  0
    7.0592    3.1631  -20.5461 C   0  0  1  0  0  0  0  0  0  0  0  0
    7.0015    5.2426  -21.9152 C   0  0  2  0  0  0  0  0  0  0  0  0
    5.6777    2.7628  -21.1656 C   0  0  2  0  0  0  0  0  0  0  0  0
    6.0395    7.8006  -23.6449 C   0  0  0  0  0  0  0  0  0  0  0  0
    7.2097    6.7502  -21.8252 C   0  0  0  0  0  0  0  0  0  0  0  0
    4.5358    3.2251  -20.3068 N   0  3  0  0  0  0  0  0  0  0  0  0
    3.3732    3.7863  -18.3912 N   0  0  0  0  0  0  0  0  0  0  0  0
    5.6575    4.9176  -22.3427 O   0  0  0  0  0  0  0  0  0  0  0  0
    7.2907    7.3073  -23.1393 O   0  0  0  0  0  0  0  0  0  0  0  0
    7.4932    1.2858  -22.9830 F   0  0  0  0  0  0  0  0  0  0  0  0
    5.9864    3.1927  -17.9836 S   0  0  0  0  0  0  0  0  0  0  0  0
    4.0618   -1.5766  -20.2223 H   0  0  0  0  0  0  0  0  0  0  0  0
    5.7031   -2.6667  -21.7327 H   0  0  0  0  0  0  0  0  0  0  0  0
    4.0138    0.8902  -20.0050 H   0  0  0  0  0  0  0  0  0  0  0  0
    7.2987   -1.2867  -23.0377 H   0  0  0  0  0  0  0  0  0  0  0  0
    6.5343    5.1277  -19.8130 H   0  0  0  0  0  0  0  0  0  0  0  0
    8.2747    4.9178  -20.2051 H   0  0  0  0  0  0  0  0  0  0  0  0
    6.1538    3.1219  -23.2685 H   0  0  0  0  0  0  0  0  0  0  0  0
    4.4171    3.3292  -22.8591 H   0  0  0  0  0  0  0  0  0  0  0  0
    7.1658    1.4700  -19.2114 H   0  0  0  0  0  0  0  0  0  0  0  0
    8.2477    2.8357  -18.7742 H   0  0  0  0  0  0  0  0  0  0  0  0
    7.8405    2.7419  -21.1958 H   0  0  0  0  0  0  0  0  0  0  0  0
    7.7373    4.8164  -22.6130 H   0  0  0  0  0  0  0  0  0  0  0  0
    6.1874    8.2101  -24.6550 H   0  0  0  0  0  0  0  0  0  0  0  0
    5.3108    6.9776  -23.6861 H   0  0  0  0  0  0  0  0  0  0  0  0
    5.6619    8.5916  -22.9803 H   0  0  0  0  0  0  0  0  0  0  0  0
    6.3642    7.2042  -21.2876 H   0  0  0  0  0  0  0  0  0  0  0  0
    8.1435    6.9581  -21.2822 H   0  0  0  0  0  0  0  0  0  0  0  0
    3.6738    3.4222  -20.7737 H   0  0  0  0  0  0  0  0  0  0  0  0
    3.3485    3.9423  -17.4037 H   0  0  0  0  0  0  0  0  0  0  0  0
    2.5453    3.9110  -18.9379 H   0  0  0  0  0  0  0  0  0  0  0  0
  1  2  1  0  0  0  0
  1  3  2  0  0  0  0
  2  4  2  0  0  0  0
  3  5  1  0  0  0  0
  4  6  1  0  0  0  0
  5  6  2  0  0  0  0
  5 13  1  0  0  0  0
  6 20  1  0  0  0  0
  7 16  2  0  0  0  0
  7 17  1  0  0  0  0
  7 21  1  0  0  0  0
  8 11  1  0  0  0  0
  8 12  1  0  0  0  0
  9 13  1  0  0  0  0
  9 18  1  0  0  0  0
 10 11  1  0  0  0  0
 10 21  1  0  0  0  0
 11 13  1  0  0  0  0
 12 15  1  0  0  0  0
 12 18  1  0  0  0  0
 13 16  1  0  0  0  0
 14 19  1  0  0  0  0
 15 19  1  0  0  0  0
  1 22  1  0  0  0  0
  2 23  1  0  0  0  0
  3 24  1  0  0  0  0
  4 25  1  0  0  0  0
  8 26  1  0  0  0  0
  8 27  1  0  0  0  0
  9 28  1  0  0  0  0
  9 29  1  0  0  0  0
 10 30  1  0  0  0  0
 10 31  1  0  0  0  0
 11 32  1  0  0  0  0
 12 33  1  0  0  0  0
 14 34  1  0  0  0  0
 14 35  1  0  0  0  0
 14 36  1  0  0  0  0
 15 37  1  0  0  0  0
 15 38  1  0  0  0  0
 16 39  1  0  0  0  0
 17 40  1  0  0  0  0
 17 41  1  0  0  0  0
M  CHG  1  16   1
M  END
> <OMEGA_C>
sj2YQGVEeb/HS6bBNuu1QGacy7+7Iq3BxGyXQGqz2T4cUKXBeNjSQD3+Tr8OCLPBh3y0QMQmnj/r
LKvBtnDSQOvMFz+qHrLB87qRQB1xWUD5ApjBLu/nQE7HlUBAKqTB4VOuQEVWYEAvI7TBivjnQIUp
JECMLpnBo+ThQM9vSkBxXqTBQgzgQILDp0BtUq/BwK+1QIXRMEAsU6nBXUPBQFSe+UCyKL3BAbbm
QPYB2EDzma7BmSWRQM5oTkBCdKLB1OJXQEdSckAZIZPBPgq1QFxdnUDlvbLBdE3pQG/V6UBKHbnB
DsjvQLCUpD8j3bfB0JC/QPBVTEBd3o/BWPqBQGTNyb88x6HBbX+2QNGrKsCj3K3BYXGAQLziYz9L
CqDB7I7pQJ2ypL9FTbjBLhnRQFQWpEDvgJ7BEWUEQaBenUANpKHBK+zEQAnNR0DbJbrBR1mNQFoS
VUBo37bBKk7lQEAqvD/ZsJnBofYDQUZ8NUCpMZbBKuX6QKF6L0ANkanBXJj3QPUfmkBu57TBbP/F
QLVcA0F0PcXB//GpQFxI30A2fb3BSC61QFt3CUGm17fBXafLQK+I5kD4TKrB50sCQeKo3kAEQqrB
oB9rQDAFW0CiMKbB/01WQHdOfEDPOovByeUiQA1NekDkgJfBnqLWQNbqMb9gH7TBjZO5QHyPyL+8
LK/BHqnUQHIULj9L/rHBM4WaQDrTh7/iHqjBqGi1QH2qmz+17arBHBGYQCqXoj5G8qXB3q6RQBoh
XEAj15fBo7bnQKW8lUDmA6TBbG6vQE1jW0Ds7LPBuf7nQJP6JECcyJjBmQfiQFILSkAJCaTBLKve
QLDapkDlNq/BUtS1QJ9HL0B15qjBh4PSQILMCUELirnBa+jgQHvm1kDPv67BoVuRQBWkT0AOQaLB
q7JXQLtsdkDYF5PBfl60QNDUmkAgvLLBoinZQHZ05kA9RLnBul1yQJXFOT+4Gp/BDu6+QIFpTEC6
io/BuXjuQLd9ir8cj7nBGxG7QFkfKMAuybDBG0vrQJILrD8GyrXB0kiEQHZ+3r89U6TB5EDRQNkz
pEABSZ7BaFsEQRbBnUBds6HBQ2XHQNowQ0ATnrnBdiOPQBU/TUDR8rbBePHlQIiQvT9lNpnBoNoD
QXmfN0AswpXBpRj7QMS7LkA+L6nBJQr3QB+0mkBWyrTBQ7PMQPfoDkFn1cHBRqW2QIXqDUG3krTB
bxHvQGb7EUEca7bB53PIQEhA40BcOanBg2UAQfMO4UAZBazByT1sQIIOXUCbGqbB2ERVQGj+f0Bb
MIvBTYAjQLHWf0D/kZfBCi+YQOL7eb/Nb6fBppK1QOmixr92lq7BOY2YQN/W0D4VlqXBiavTQEKn
Pr/X3bPBAIK2QNDjnj9L5KrBaI/UQP4oJD/bELLBJJyRQLMpW0DbsJfBa93nQE8wl0BZbaTB/V+t
QPCYXEB02LPB7j/oQHv0KUCBiJjBRFHiQEwITUAO56PBNnDgQETfpECNFLDBOmW2QGeCMEDD3qjB
vl/EQKZVC0EKe63BP9zmQPxv1EDUQbHBaU+RQL5nTEAJD6LBhSxXQP/5dEBA/5LB1ym1QG8Fm0DV
KbPBCNfFQIDZ6UDFYqvBYrDyQAA/rj9/WLfBPkK/QARQUkD+cY/BTDqBQBv/zL9PWaPB8wO1QJF2
J8DxBrDBFNaBQFCBVz/FE6DBIUHqQImWmL8mV7nBkGXQQAPipkDcK5/BfDQEQfgGoEDS56HBKHDC
QBSyQEAd+bnB1MOLQKnXUUCkFrbBo1vmQApexz/BxpjBNPMDQQ1lPUCmi5XB2pL7QKCcMEDT5ajB
1kD3QKDgk0A4Q7XBhYGqQHKnEkEzxKjBch/jQHakEkHcPqvB8F6+QIYADkFrDLbBzC4DQRuD3UD1
Da7B1/7kQLRi3UBawbnBV7RqQMqoVEC3z6XBjjNVQIb4gEC1KovBZT8iQJSlekBWcJfBPpLWQNwg
Kb9+8rPB8Te4QF8pw7/9bK/BKkXVQEsHNT/Wj7HB5auYQEZcgr+3gajBB3i1QFhjnz96p6rBguyW
QPaItT6NEabB03CRQK2dXEDKmpfBsbDnQD0Yl0AmbqTBxqmuQAPCWkCf6rPBvinoQFmcKUCCk5jB
v+/hQBzUTECS7qPBwEbgQNhOpUC9EbDB+6+1QGErMUC8t6jBhy3DQLExC0HW6qvBai/lQFAz1UDl
+LDB5V2RQKUeUkCdDqLBKUdWQM/7ckBbxpLBVYu1QARYmkALZ7PBlHnDQK/w6ECU96rBXRlvQLXo
Qz+qYJ/BahG/QFXMUEBnYI/BYd7uQBY0hr8tQLnBBBO5QMsaJcBkQrHBqt7sQHLYrj/gCLXBrICB
QEBy2L9SBaXBhFXQQKfGpkAXJJ/BwyUEQWG1n0CE6KHBKT7FQIB7PkATq7nBm62NQOxaTkCokbbB
aKHmQOmfxj9V2pjBnuEDQfybPUDXnJXBYtj6QOIfMECZAqnByvr3QHqKlUCzPrXBF7SoQPDMEUGF
JqfBhbfhQN+rEUFo+ajBqeS+QBenD0HUXLTBNjICQU/93kATuK3Bp/7iQGvi3kA5arnB4upsQM+k
YUB/7aXBJctTQPPve0AO3IrB2XchQO4sekArNJfB

> <OMEGA_E>
gMCYPpjEqz64jqw+GN++Pg==

> <OMEGA_NBR>
     29715

$$$$
278176
  -OEChem-04172616093D

 46 49  0     1  0  0  0  0  0999 V2000
    4.6339   -0.9253  -20.9359 C   0  0  0  0  0  0  0  0  0  0  0  0
    5.5687   -1.5477  -21.7791 C   0  0  0  0  0  0  0  0  0  0  0  0
    4.6979    0.4595  -20.7091 C   0  0  0  0  0  0  0  0  0  0  0  0
    6.5760   -0.7862  -22.3933 C   0  0  0  0  0  0  0  0  0  0  0  0
    7.0978    8.9485  -17.8126 C   0  0  0  0  0  0  0  0  0  0  0  0
    7.9172    9.1715  -18.9324 C   0  0  0  0  0  0  0  0  0  0  0  0
    5.9295    8.1834  -17.9798 C   0  0  0  0  0  0  0  0  0  0  0  0
    5.7051    1.2494  -21.3238 C   0  0  0  0  0  0  0  0  0  0  0  0
    6.6541    0.6007  -22.1741 C   0  0  0  0  0  0  0  0  0  0  0  0
    6.4393    7.9173  -20.2478 C   0  0  0  0  0  0  0  0  0  0  0  0
    4.5595    3.4262  -18.9707 C   0  0  0  0  0  0  0  0  0  0  0  0
    7.2524    4.7799  -20.5703 C   0  0  0  0  0  0  0  0  0  0  0  0
    5.4857    3.4392  -22.4936 C   0  0  0  0  0  0  0  0  0  0  0  0
    7.2843    2.7033  -19.0665 C   0  0  0  0  0  0  0  0  0  0  0  0
    7.1016    3.2466  -20.4939 C   0  0  1  0  0  0  0  0  0  0  0  0
    6.9915    5.2297  -22.0266 C   0  0  2  0  0  0  0  0  0  0  0  0
    5.7338    2.7785  -21.1063 C   0  0  2  0  0  0  0  0  0  0  0  0
    7.1215    6.7389  -22.2128 C   0  0  0  0  0  0  0  0  0  0  0  0
    7.5766    8.6549  -20.1302 N   0  0  0  0  0  0  0  0  0  0  0  0
    5.6120    7.6885  -19.1957 N   0  0  0  0  0  0  0  0  0  0  0  0
    4.5747    3.2524  -20.2753 N   0  3  0  0  0  0  0  0  0  0  0  0
    3.3488    3.7536  -18.3818 N   0  0  0  0  0  0  0  0  0  0  0  0
    5.6581    4.8528  -22.4094 O   0  0  0  0  0  0  0  0  0  0  0  0
    6.0730    7.4174  -21.4762 O   0  0  0  0  0  0  0  0  0  0  0  0
    7.6429    1.2774  -22.8076 F   0  0  0  0  0  0  0  0  0  0  0  0
    5.9822    3.3067  -17.9332 S   0  0  0  0  0  0  0  0  0  0  0  0
    3.8631   -1.5135  -20.4601 H   0  0  0  0  0  0  0  0  0  0  0  0
    5.5129   -2.6118  -21.9552 H   0  0  0  0  0  0  0  0  0  0  0  0
    3.9731    0.9286  -20.0601 H   0  0  0  0  0  0  0  0  0  0  0  0
    7.2954   -1.2687  -23.0383 H   0  0  0  0  0  0  0  0  0  0  0  0
    7.3591    9.3548  -16.8467 H   0  0  0  0  0  0  0  0  0  0  0  0
    8.8195    9.7567  -18.8335 H   0  0  0  0  0  0  0  0  0  0  0  0
    5.2851    7.9915  -17.1346 H   0  0  0  0  0  0  0  0  0  0  0  0
    6.5240    5.2578  -19.8988 H   0  0  0  0  0  0  0  0  0  0  0  0
    8.2710    5.0674  -20.2705 H   0  0  0  0  0  0  0  0  0  0  0  0
    6.2001    3.0298  -23.2230 H   0  0  0  0  0  0  0  0  0  0  0  0
    4.4594    3.2182  -22.8219 H   0  0  0  0  0  0  0  0  0  0  0  0
    7.2473    1.6044  -19.0972 H   0  0  0  0  0  0  0  0  0  0  0  0
    8.2644    3.0267  -18.6860 H   0  0  0  0  0  0  0  0  0  0  0  0
    7.8973    2.8092  -21.1148 H   0  0  0  0  0  0  0  0  0  0  0  0
    7.7224    4.7307  -22.6800 H   0  0  0  0  0  0  0  0  0  0  0  0
    8.1022    7.0696  -21.8399 H   0  0  0  0  0  0  0  0  0  0  0  0
    7.0340    6.9838  -23.2816 H   0  0  0  0  0  0  0  0  0  0  0  0
    3.7268    3.4570  -20.7644 H   0  0  0  0  0  0  0  0  0  0  0  0
    3.2996    3.9145  -17.3960 H   0  0  0  0  0  0  0  0  0  0  0  0
    2.5242    3.8291  -18.9425 H   0  0  0  0  0  0  0  0  0  0  0  0
  1  2  1  0  0  0  0
  1  3  2  0  0  0  0
  2  4  2  0  0  0  0
  3  8  1  0  0  0  0
  4  9  1  0  0  0  0
  5  6  1  0  0  0  0
  5  7  2  0  0  0  0
  6 19  2  0  0  0  0
  7 20  1  0  0  0  0
  8  9  2  0  0  0  0
  8 17  1  0  0  0  0
  9 25  1  0  0  0  0
 10 19  1  0  0  0  0
 10 20  2  0  0  0  0
 10 24  1  0  0  0  0
 11 21  2  0  0  0  0
 11 22  1  0  0  0  0
 11 26  1  0  0  0  0
 12 15  1  0  0  0  0
 12 16  1  0  0  0  0
 13 17  1  0  0  0  0
 13 23  1  0  0  0  0
 14 15  1  0  0  0  0
 14 26  1  0  0  0  0
 15 17  1  0  0  0  0
 16 18  1  0  0  0  0
 16 23  1  0  0  0  0
 17 21  1  0  0  0  0
 18 24  1  0  0  0  0
  1 27  1  0  0  0  0
  2 28  1  0  0  0  0
  3 29  1  0  0  0  0
  4 30  1  0  0  0  0
  5 31  1  0  0  0  0
  6 32  1  0  0  0  0
  7 33  1  0  0  0  0
 12 34  1  0  0  0  0
 12 35  1  0  0  0  0
 13 36  1  0  0  0  0
 13 37  1  0  0  0  0
 14 38  1  0  0  0  0
 14 39  1  0  0  0  0
 15 40  1  0  0  0  0
 16 41  1  0  0  0  0
 18 42  1  0  0  0  0
 18 43  1  0  0  0  0
 21 44  1  0  0  0  0
 22 45  1  0  0  0  0
 22 46  1  0  0  0  0
M  CHG  1  21   1
M  END
> <OMEGA_C>
gkiUQDfjbL+gfKfB/DKyQM4Zxr+xO67B+lSWQFpG6z4/rKXBmG7SQEhBSb+MJbPBkCHjQA0tD0Ev
gI7BgFn9QJ2+EkGcdZfBFL69QGLvAkGb1o/BEpC2QMbsnz84l6rBhu7UQHHEGT+fZLHBeA7OQKha
/UCC+6HBjueRQDZGW0AExJfBCBToQCr1mEDxj6TB3IqvQMMbXED08rPBFBnpQCcDLUBJiJjBakDj
QGrIT0By86PBqrrfQFVZp0CPNrDBoHu3QEnTMUC32ajBkuPjQESl10C+s7HBqnPyQGd6CkGvCqHB
tpWzQAYI9kC6kJnBqmOSQHonUEDZM6LBq1JWQKQ7cEDnDZPBEg+1QMZJm0BnRrPBylXCQJlb7UBQ
z6vBCJP0QFaCoz/kdbbBRm6/QEehU0Ard4/Bnzx3QDa6wb8zrqPB12mwQO4mJ8BJpK/BrUd+QAC2
bT8ve6DBInTpQBZlor9pTrjB3H3rQHWtFUH2xYbBnhwNQY0bHEH9qpbB1B+pQGO6/0CTE4nBVMTQ
QBlAqECuMJ/BGlYEQXYookAWKqLBhmfGQDPoQUCyyLnBDrOOQMT2TUBLk7bBOurnQOZbzT8ex5jB
AzsEQRm2QUDxfJXBjrb8QJHJM0Af66jB5R33QOJhl0ClcLXBf6IBQRs64kAyuK7BmhbhQF1730Cu
QLrBZYNuQA0/XUCKHabBQyxTQJ2HekAZK4vBDI0hQOsPdUBAipfBxhaVQIj/b78JaafBUmKzQMjw
xr/rFa7BNm2WQCx35j4kt6XBJDPTQMq9SL8eFLPBLEDoQBXB2EDgAo3BrmgEQTfN5ECGKJTBCnG9
QOX43kBOJpDB4jG2QCWunz9KuqrBhNrUQNYcGz/YfrHB2sHUQGrK9EBnGKHByMmRQFwqW0CVw5fB
uknpQEjwlkDy66TBCoOuQKo1XUDA6rPBWNboQHyRK0D2nJjB8jvjQNoiTUAAIqTBPO/fQLTqpkA0
c7DBlgS3QNZgMUD37KjB7HPmQMCW10BIULLBLJz+QHyM80B9/J3BYle0QKqi7UALE5rBghqSQKyG
T0CBL6LB20lWQELucECNDJPBzqu0QLPtm0CpHLPBmpTKQESd8kBN1avBYAX0QAU3pT//rrbBPle/
QA7/UkBFgo/BgV15QDsoxL9jkaPB7jOyQIjFJ8DOYK/BkB1+QKMzaj9ujKDBzIvqQA2wob/jKrjB
o+DvQL8Ty0AiT4XB6voUQVlE4kDmypHBPs6jQHkF2EA6n4rBM0PTQOfPpkATUp/BBz4FQUz+nkBV
zKLB28PEQLsdQ0CS57nBG2SNQGEuUECEabbBA4nnQMhzyj9CwpjBgh8EQXdUQEDvmpXBIDD8QG37
LkBUEKnBJcL1QKHelUDd4bXBUe8DQeSW30BrZ7DBwS/gQHSJ3kAKzLrBmpttQOkZXEBTDabBPk9T
QE+Ee0ADK4vBc4IhQPILdkBNh5fBk8OSQI8CZL8FUKfBDxSxQKj0xL+HyK3BNSGVQL+e/j6Ks6XB
Cu3RQHR2TL8Tp7LBaW7fQLDT+0CNjovBwh7BQEBNAUGrrpPBm+UEQRR18kCph47B8RG2QND/oT+3
i6rBc7fUQEd5Fz/fG7HB2T32QHz49UDWl6DBzwiSQGGeWkAY0JfBAa/nQFMtmUCTpKTBE1mwQL0A
XUDzGLTB303pQKiWLUBgspjBuSDjQFOFUEDGGqTBbpPfQOndqEAjQbDBi3i3QDMIM0DG9KjBlvnh
QMDm2UChzLHBmeTMQMul/0DsCp7BA00KQS7/70Dh+JjB+6uSQJO7UkAGTaLBMC5WQBJgbEDkAJPB
cE+1QIzvm0AcbrPB4QoBQfb47UDeFavBReL0QOeInz+jJrbBXMu/QFwEVECXk4/BSRhzQCcOu78G
kKPBvSGvQATIJsDIA6/B0j17QGNufD8tuKDB8DTpQMF7pr8LnrfB+GjWQI3E/UADO4PBJGigQJEW
BUFDo5HBvOEQQUc27UAJcojBVjfQQBgNqEBnPZ/BnhkEQWNSokC4KqLBVuPHQDozQ0A2yrnBV9aP
QAYXTkDD6LbBQS3oQCiCzj+s85jB4FsEQa9dQkCTsZXBl4v8QDPkNEA0HqnB73f3QF7cmUAvhLXB
LbjpQEOb4EDsN7rBHJHCQLq/50CI2a/B3CFwQJd5Y0D0OKbBQQJTQBcHdUA8FovBKyIhQA6KcEDj
cpfBUTaUQHpJa78ijqbBM9+xQLyAyb8wLK3B2umVQOtN9D73VaXBq1rRQFgNVb9ilLLBx2+KQDGJ
L0Gy+KnBZkiPQKEbIkF057LB/zebQFiyKEGNHaDBYIa1QAjUnz+euarBeXjTQJ4mET91abHBNk60
QOVrCUEjRKjBEfiRQNJ5WECvAJjBdFXoQD2bmEATVaTBn++wQJKsXkAzQLTBdo/pQJ79KEA38pjB
qWXjQKbaTkDpPKTBsRTfQEBhqkAHta/B3nq3QEZbMkDiLqnBzN3gQG9r20Bo0q/BC+mjQLZBD0Ed
7LHBYo+vQIGyFUHzY5/BU6eSQIauUUAhgqLB40BXQBcpb0DfMpPB3xG1QJ8InUC7MrPBaKrHQAe6
60DY8abBj6HyQCTHnD/lzbbBae++QJDPSEDSpI/BWhV4QJymvr/cZKLBIX2wQG9pKcDzGq7BB9V9
QGSfeD9BPaDBihjoQFtgq78pq7fBWnF0QL67PkE6qarBtnmCQD7jJkGYkLrBQtWXQIGpMkGfG5nB
iJ7RQFLCpkC9nZ7BS5kEQYMToUAv/6HB9TLJQFsJR0B25rnBydGQQLZRT0BvTLfBwNzpQKSGxT+J
jpnBlzQEQaREP0CSwJXBV8D8QN5XNEBMXanBX5D3QCH2nUAPN7XBaCABQesP5kAt/a7BHLHTQDdx
50CaaLfByzxwQBcJY0AYa6bBcSNUQHcjdkCGQYvBtQ0jQK6LeEAerZfB

> <OMEGA_E>
wKU6P8i6OT/0dTw/cBA9Pw==

> <OMEGA_NBR>
     33206

$$$$
278183
  -OEChem-04172616093D

 38 40  0     1  0  0  0  0  0999 V2000
    4.6430   -0.9185  -20.8228 C   0  0  0  0  0  0  0  0  0  0  0  0
    5.5682   -1.5677  -21.6557 C   0  0  0  0  0  0  0  0  0  0  0  0
    4.6889    0.4771  -20.6690 C   0  0  0  0  0  0  0  0  0  0  0  0
    6.5431   -0.8202  -22.3367 C   0  0  0  0  0  0  0  0  0  0  0  0
    5.6670    1.2540  -21.3479 C   0  0  0  0  0  0  0  0  0  0  0  0
    6.6010    0.5785  -22.1916 C   0  0  0  0  0  0  0  0  0  0  0  0
    4.5653    3.3926  -18.9984 C   0  0  0  0  0  0  0  0  0  0  0  0
    7.2329    4.7688  -20.5209 C   0  0  0  0  0  0  0  0  0  0  0  0
    5.5135    3.4849  -22.5220 C   0  0  0  0  0  0  0  0  0  0  0  0
    7.2884    2.6362  -19.1267 C   0  0  0  0  0  0  0  0  0  0  0  0
    7.0918    3.2323  -20.5281 C   0  0  1  0  0  0  0  0  0  0  0  0
    6.9702    5.3068  -21.9337 C   0  0  2  0  0  0  0  0  0  0  0  0
    5.7231    2.7888  -21.1460 C   0  0  2  0  0  0  0  0  0  0  0  0
    7.0476    6.8294  -21.9159 C   0  0  0  0  0  0  0  0  0  0  0  0
    4.5775    3.2776  -20.3098 N   0  3  0  0  0  0  0  0  0  0  0  0
    3.3626    3.7233  -18.3962 N   0  0  0  0  0  0  0  0  0  0  0  0
    5.6564    4.9068  -22.3812 O   0  0  0  0  0  0  0  0  0  0  0  0
    6.9359    7.3079  -23.2485 O   0  0  0  0  0  0  0  0  0  0  0  0
    7.5676    1.2391  -22.8726 F   0  0  0  0  0  0  0  0  0  0  0  0
    5.9876    3.1957  -17.9656 S   0  0  0  0  0  0  0  0  0  0  0  0
    3.8939   -1.4937  -20.2990 H   0  0  0  0  0  0  0  0  0  0  0  0
    5.5304   -2.6407  -21.7726 H   0  0  0  0  0  0  0  0  0  0  0  0
    3.9718    0.9663  -20.0264 H   0  0  0  0  0  0  0  0  0  0  0  0
    7.2536   -1.3225  -22.9764 H   0  0  0  0  0  0  0  0  0  0  0  0
    6.5033    5.2019  -19.8209 H   0  0  0  0  0  0  0  0  0  0  0  0
    8.2506    5.0433  -20.2061 H   0  0  0  0  0  0  0  0  0  0  0  0
    6.2626    3.1126  -23.2363 H   0  0  0  0  0  0  0  0  0  0  0  0
    4.5047    3.2557  -22.8960 H   0  0  0  0  0  0  0  0  0  0  0  0
    7.2551    1.5390  -19.1979 H   0  0  0  0  0  0  0  0  0  0  0  0
    8.2697    2.9490  -18.7405 H   0  0  0  0  0  0  0  0  0  0  0  0
    7.8862    2.8305  -21.1743 H   0  0  0  0  0  0  0  0  0  0  0  0
    7.7398    4.9148  -22.6150 H   0  0  0  0  0  0  0  0  0  0  0  0
    6.2257    7.2345  -21.3073 H   0  0  0  0  0  0  0  0  0  0  0  0
    8.0106    7.1459  -21.4887 H   0  0  0  0  0  0  0  0  0  0  0  0
    3.7437    3.5413  -20.7948 H   0  0  0  0  0  0  0  0  0  0  0  0
    3.3165    3.8439  -17.4046 H   0  0  0  0  0  0  0  0  0  0  0  0
    2.5405    3.8416  -18.9531 H   0  0  0  0  0  0  0  0  0  0  0  0
    6.9828    8.2567  -23.2498 H   0  0  0  0  0  0  0  0  0  0  0  0
  1  2  1  0  0  0  0
  1  3  2  0  0  0  0
  2  4  2  0  0  0  0
  3  5  1  0  0  0  0
  4  6  1  0  0  0  0
  5  6  2  0  0  0  0
  5 13  1  0  0  0  0
  6 19  1  0  0  0  0
  7 15  2  0  0  0  0
  7 16  1  0  0  0  0
  7 20  1  0  0  0  0
  8 11  1  0  0  0  0
  8 12  1  0  0  0  0
  9 13  1  0  0  0  0
  9 17  1  0  0  0  0
 10 11  1  0  0  0  0
 10 20  1  0  0  0  0
 11 13  1  0  0  0  0
 12 14  1  0  0  0  0
 12 17  1  0  0  0  0
 13 15  1  0  0  0  0
 14 18  1  0  0  0  0
  1 21  1  0  0  0  0
  2 22  1  0  0  0  0
  3 23  1  0  0  0  0
  4 24  1  0  0  0  0
  8 25  1  0  0  0  0
  8 26  1  0  0  0  0
  9 27  1  0  0  0  0
  9 28  1  0  0  0  0
 10 29  1  0  0  0  0
 10 30  1  0  0  0  0
 11 31  1  0  0  0  0
 12 32  1  0  0  0  0
 14 33  1  0  0  0  0
 14 34  1  0  0  0  0
 15 35  1  0  0  0  0
 16 36  1  0  0  0  0
 16 37  1  0  0  0  0
 18 38  1  0  0  0  0
M  CHG  1  15   1
M  END
> <OMEGA_C>
cpOUQKwja78qlabB6i6yQJepyL/fPq3BqAuWQBlH9D4FWqXBJGHRQCz4Ub+CsbLB4Ve1QAaEoD97
yKrBWzvTQJsaFD9miLHB7RaSQNAfWUDQ/JfBB3TnQE6amEDKKqTBNG6wQPIIX0AYLbTBcTrpQIS3
KEB+A5nB6u/iQEDdTkCVOaTBOAzfQDbRqUBPeK/B+yO3QE58MkAWK6nB4YXhQMiK2kCyU6/BSnuS
QMTEUUBzeqLBRDVXQCpLbkB6K5PBnAG1QIwEnUC7DLPBpvLdQBLa6UDu/LnBICryQAWanj8a+7bB
bZq/QDaGTECSuY/BPzV5QIswv79WZKLBCfmwQIwAKcBhLq7BwzF+QAdddz8gNqDBiR3oQNFIqb+p
z7fBvhrQQDR2pkAgkZ7BUQIEQWJioUAnpqHBcmfIQIU1R0De47nBTiaQQPldUED1KrfBfSnoQFD+
xD88lZnB1lAEQbm7PECa7JXByVv8QAsnNUDiZKnBwKz3QDpGnUB867TBuDjHQOiA50BLdarBXCsA
QY+r5EDb6KvB7phvQJKkYkCpW6bBK0FUQPwBdkCbPIvBOJciQPXcdUDqn5fBLXPfQHsbBEGK/7nB
SF6UQNKObL+Y5abBAvKxQPsmyL8uoa3BcC2WQCyF7z6hbaXBJpjRQPjFT78N3rLBJOK1QGfpnz/1
qKrBFOrTQF4LFT8sbrHByv6RQDNkWUAV5JfBVGbnQP4OmUApUKTBgiuwQLSbXUA6GrTBIlnpQGyY
KkA91ZjBLAHjQF6rT0ALHKTBvEnfQMgTqUAIz6/Bkk63QIMvMkD5B6nBVqriQDbb2UBLXbDBxHmS
QFgVUUCAXqLBbwVXQIxWb0BRH5PBJhu1QLJOnEA1QLPBDDPBQA0r7UDqTqrBNlDzQCOYnz/BrbbB
XmC/QP1jTUBglo/BIU94QDp6wL+41aLBoVuwQBKCKMByx67BPF5+QMgwcz8iQqDBp1DoQF89p78H
CbjBec7PQB1kp0Bo2p7BJewDQakxokD2xqHBULrHQPqSRED917nBQquPQEEAT0A18rbBVeToQJmg
yD92VJnBCEQEQSfkP0DsvJXBnHr8QCRtNUBnOKnBKpz3QJ0Om0AOHrXBJOEAQb/y40DkGa3BqSHg
QPIm5EB1wbjBsVxvQDHoYEAXRabBZgBUQIbnd0AMNIvBeXsiQAyddkBnmZfB96XDQG+2BUGAt6rB
1ZnVQBJmOb8KgLPBWEi3QPSbyL84s67BUpHUQF5LKD+NgbHBqcqXQORIg78S9KfBHBe1QC+JnT/c
s6rBoT6WQBSgtz7166XB2O6RQEn3W0Bl1ZfBmMPnQBKwl0BNM6TB84KwQK1nXEAu/7PBIqLoQOYW
KEDv1JjBFHLiQPkBTUCwGqTB8f7eQE/SqECBfq/BF0u2QMgRMUBt5ajBtjrhQNaa2UCSXK/BZQeS
QBuOUkBVTKLBEuxWQIFCcUCMBJPBvvK0QPzEm0Bz/7LBwpjaQIwq6UDQ6bnBRCVtQAu8Sz9xbp/B
WIu/QFVKT0All4/BXbrtQHOgkb87urjB0Ce4QPNdKMCXMLDBGybsQBr1pT/bNrXBw3+AQKPT1r89
SKTBbP3QQLUdpkDbip7BP08EQYT/n0Bi0qHBa/rIQFoJREC4irnBA4CQQLRYTUCrIrfB5sDmQLC7
wz/4PZnBdykEQToZO0DY05XBto77QCLuMUBLQqnBOI73QC1lnEDK+rTB9EnIQF1V5kBpB6rBuW8A
QXXZ40Abe6zBrMVuQEJZY0BWM6bBLvxTQIcNeUD2FYvBx04iQCDXeEAMeZfBdvDbQKzEA0Fd5rnB
etaTQHNYa7/sGafB3ryxQMR2yL9usq3B0haWQCrD8D5ykKXBfibSQGXaUr98urLBZH+2QIcMnz9O
nKrB7tbUQPiaET92P7HBWEKSQFyvWUD89pfBwN3mQBtRmUC+PKTB5imxQASRXECuILTB0qPpQPId
K0DS0ZjB5lDjQKYNUEAoHKTBMj/dQEt4qkAKla/BPOW3QD66MUA8CanBPMrcQARd20DOh6/BIOaS
QHTNUECkb6LBqVFXQD6Jb0B6QJPBkt+zQB7pm0A0HbPBg7QCQXPt6kAoMKzBJsD0QFvmnD+4XLbB
bp+/QKy4TkAQn4/BNBN2QIH0vr/WMqPBBNGvQMmRKMCv5q7B/Mx9QDJBdT/Fe6DBSC3pQIWbqb8y
xbfBiLXPQLPppkA4jJ7BSroDQWjCokD55KHBlQPKQI0dRkBLsbnBUG2RQM4YS0DUPrfBHgjpQOim
yT/xSJnB0G0EQa46QEAQupXBMA79QBKuNkDVNKnBFFf2QMJBn0CCFLXBS9DVQM8n50DxorfBHvvD
QP3B5kC9+anBeUhwQMhBYEAxYKbBzAtUQFaieED8V4vBvNsiQJ42dkDxwZfB5IsCQa+pBEGgKKzB
G1PVQNs0N78/XLPB/e62QMYax7/zjq7BoGrUQA9eKj/xXbHBfV6XQNVGgb8r2qfB4+K0QAInnz+3
marBE82VQCJewD7Y3qXBfdSRQKlGXECpwZfBU+vnQBkRmEDRXqTB8ViwQINFXEAXCLTBgJzoQHRg
KUAkypjBDGPiQIPSTUCdGaTB46HfQDFzqED60q/BLym2QBHxMUCR2qjBbrTiQINQ2UCFObDBHwaS
QMX7U0BJPaLBDmxWQLPub0Dc5ZLBxYG1QGSsm0CGT7PB9ErBQPUn7ECdC6rB8qRrQAG0UT8zgZ/B
SIS/QAZNUEAdio/BymjtQEDSkL+dlrjB98y3QFKpJ8C9A7DB0CXsQAmdpj9JDLXBAgmAQJ2M1L9r
LKTB+vbQQDP3pkDk1Z7BLFoEQUNroED38KHBQGnIQFtLQkCikrnBBRuQQCHITUAVELfBRefmQKU/
xj+WKpnBiCEEQd/JPECezJXBz2D7QLcVMkCNPKnBbgn4QLPXmkAWLbXBvuoAQbVp40Dj+6zB7t/f
QBEH5EDKk7jB7DJvQGcXZkCJJKbB7nJTQAP0dkBy9IrB+qUhQEkZd0COVZfBBZPDQM04BUHZXKrB
4FfVQLqrN79iWrPBtIm2QJ6mxr9RqK7BvrfUQBaIKT9qT7HBaOKWQJZdgL8H/6fB2g+1QL8inz9+
marBXp2VQElDwz5v9aXB2PWRQHtEXEC1zZfBImDnQKU0mECoWaTB8uawQHWYW0A9GLTBvMPoQM2D
KUCG1JjB8mriQIINTkD7IqTBdG3eQIFSqUCAu6/BHFy2QNLSMUAY46jBsCDeQNhH2kCUvK/BMjGS
QAgVVEC9SqLBk6JWQD6rb0C48ZLBluy0QA9im0BJVrPB25cCQfJJ6kDffKvBXy9rQJ8QVD+onp/B
XqS/QDNNUECBk4/BHIbtQI14kb9aibjBsCe3QPFgJ8BjKbDBMcHsQPq5pT8e6LTBVIF+QHQt07+G
ZaTBpofQQCyepkAttZ7BuhcEQXLHoEC1/aHBzrHJQKXBQkDrg7nBbxWRQKKOS0CjR7fBYx/nQPuD
xj83NpnBUTQEQaoIPUCy2JXB5or7QLbyMkABSanBxJT3QL3UnUBOLbXBPDXaQADd5UAV/bfByFDD
QMC95UCezqrBBqlvQPxmZkDGNKbBfZ1TQAqEdkDE/4rBtt0hQLjTdkCyYZfBO1ACQXNXBEHrh6vB

> <OMEGA_E>
uOm4PqwPyD5o4co+hDTLPuzx2T6Qmtw+

> <OMEGA_NBR>
     37694

$$$$
278175
  -OEChem-04172616093D

 46 49  0     1  0  0  0  0  0999 V2000
    4.7656   -0.9882  -20.7821 C   0  0  0  0  0  0  0  0  0  0  0  0
    5.6856   -1.6134  -21.6385 C   0  0  0  0  0  0  0  0  0  0  0  0
    4.7472    0.4115  -20.6673 C   0  0  0  0  0  0  0  0  0  0  0  0
    6.5888   -0.8376  -22.3840 C   0  0  0  0  0  0  0  0  0  0  0  0
    4.4974    7.2936  -25.6299 C   0  0  0  0  0  0  0  0  0  0  0  0
    4.6048    8.3879  -24.7421 C   0  0  0  0  0  0  0  0  0  0  0  0
    6.4413    6.3771  -24.7445 C   0  0  0  0  0  0  0  0  0  0  0  0
    5.6566    1.2167  -21.4070 C   0  0  0  0  0  0  0  0  0  0  0  0
    6.5856    0.5656  -22.2739 C   0  0  0  0  0  0  0  0  0  0  0  0
    6.5289    7.4568  -23.8348 C   0  0  0  0  0  0  0  0  0  0  0  0
    4.5611    3.3746  -19.0280 C   0  0  0  0  0  0  0  0  0  0  0  0
    7.2099    4.6892  -20.4508 C   0  0  0  0  0  0  0  0  0  0  0  0
    5.5007    3.5049  -22.5224 C   0  0  0  0  0  0  0  0  0  0  0  0
    7.2634    2.5254  -19.1671 C   0  0  0  0  0  0  0  0  0  0  0  0
    7.0680    3.1634  -20.5453 C   0  0  1  0  0  0  0  0  0  0  0  0
    6.9332    5.3165  -21.8066 C   0  0  2  0  0  0  0  0  0  0  0  0
    5.7002    2.7472  -21.1793 C   0  0  2  0  0  0  0  0  0  0  0  0
    7.0242    6.8412  -21.6349 C   0  0  0  0  0  0  0  0  0  0  0  0
    5.4165    6.3025  -25.6174 N   0  0  0  0  0  0  0  0  0  0  0  0
    5.6159    8.4499  -23.8520 N   0  0  0  0  0  0  0  0  0  0  0  0
    4.5491    3.2032  -20.3330 N   0  3  0  0  0  0  0  0  0  0  0  0
    3.3986    3.8368  -18.4340 N   0  0  0  0  0  0  0  0  0  0  0  0
    5.6198    4.9212  -22.2872 O   0  0  0  0  0  0  0  0  0  0  0  0
    7.4781    7.4476  -22.8529 O   0  0  0  0  0  0  0  0  0  0  0  0
    7.5046    1.2530  -22.9927 F   0  0  0  0  0  0  0  0  0  0  0  0
    5.9698    3.0809  -17.9922 S   0  0  0  0  0  0  0  0  0  0  0  0
    4.0703   -1.5849  -20.2103 H   0  0  0  0  0  0  0  0  0  0  0  0
    5.6990   -2.6899  -21.7242 H   0  0  0  0  0  0  0  0  0  0  0  0
    4.0330    0.8826  -20.0083 H   0  0  0  0  0  0  0  0  0  0  0  0
    7.2909   -1.3215  -23.0467 H   0  0  0  0  0  0  0  0  0  0  0  0
    3.6725    7.2488  -26.3255 H   0  0  0  0  0  0  0  0  0  0  0  0
    3.8717    9.1802  -24.7768 H   0  0  0  0  0  0  0  0  0  0  0  0
    7.1996    5.6081  -24.7398 H   0  0  0  0  0  0  0  0  0  0  0  0
    6.4907    5.0780  -19.7148 H   0  0  0  0  0  0  0  0  0  0  0  0
    8.2323    4.9420  -20.1332 H   0  0  0  0  0  0  0  0  0  0  0  0
    6.2680    3.1854  -23.2430 H   0  0  0  0  0  0  0  0  0  0  0  0
    4.5024    3.2813  -22.9266 H   0  0  0  0  0  0  0  0  0  0  0  0
    7.2116    1.4312  -19.2673 H   0  0  0  0  0  0  0  0  0  0  0  0
    8.2508    2.8114  -18.7757 H   0  0  0  0  0  0  0  0  0  0  0  0
    7.8653    2.7914  -21.2056 H   0  0  0  0  0  0  0  0  0  0  0  0
    7.7071    4.9919  -22.5177 H   0  0  0  0  0  0  0  0  0  0  0  0
    6.0310    7.2385  -21.3787 H   0  0  0  0  0  0  0  0  0  0  0  0
    7.7323    7.0747  -20.8262 H   0  0  0  0  0  0  0  0  0  0  0  0
    3.6893    3.3958  -20.8060 H   0  0  0  0  0  0  0  0  0  0  0  0
    3.3704    3.9956  -17.4471 H   0  0  0  0  0  0  0  0  0  0  0  0
    2.5874    4.0118  -18.9919 H   0  0  0  0  0  0  0  0  0  0  0  0
  1  2  1  0  0  0  0
  1  3  2  0  0  0  0
  2  4  2  0  0  0  0
  3  8  1  0  0  0  0
  4  9  1  0  0  0  0
  5  6  2  0  0  0  0
  5 19  1  0  0  0  0
  6 20  1  0  0  0  0
  7 10  1  0  0  0  0
  7 19  2  0  0  0  0
  8  9  2  0  0  0  0
  8 17  1  0  0  0  0
  9 25  1  0  0  0  0
 10 20  2  0  0  0  0
 10 24  1  0  0  0  0
 11 21  2  0  0  0  0
 11 22  1  0  0  0  0
 11 26  1  0  0  0  0
 12 15  1  0  0  0  0
 12 16  1  0  0  0  0
 13 17  1  0  0  0  0
 13 23  1  0  0  0  0
 14 15  1  0  0  0  0
 14 26  1  0  0  0  0
 15 17  1  0  0  0  0
 16 18  1  0  0  0  0
 16 23  1  0  0  0  0
 17 21  1  0  0  0  0
 18 24  1  0  0  0  0
  1 27  1  0  0  0  0
  2 28  1  0  0  0  0
  3 29  1  0  0  0  0
  4 30  1  0  0  0  0
  5 31  1  0  0  0  0
  6 32  1  0  0  0  0
  7 33  1  0  0  0  0
 12 34  1  0  0  0  0
 12 35  1  0  0  0  0
 13 36  1  0  0  0  0
 13 37  1  0  0  0  0
 14 38  1  0  0  0  0
 14 39  1  0  0  0  0
 15 40  1  0  0  0  0
 16 41  1  0  0  0  0
 18 42  1  0  0  0  0
 18 43  1  0  0  0  0
 21 44  1  0  0  0  0
 22 45  1  0  0  0  0
 22 46  1  0  0  0  0
M  CHG  1  21   1
M  END
> <OMEGA_C>
vH+YQF/7fL/XQabBevC1QMaDzr+2G63BcOmXQNqs0j6TVqXBJtfSQCFqVr9fErPBpuqPQH1l6UD2
Cc3BPlqTQKQ0BkHb78XBEh/OQOgQzEC+9MXBvgK1QGy7mz+ZQavBWr3SQAvNED/aMLLBduzQQA+e
7kCprb7BRvSRQHH5V0BOOZjBcLfmQDUOlkAom6PB1AWwQCtQYEDrLbTB9m3oQN+fIUA4VpnBZi3i
QPB0SkDIXKTBeNzdQF4gqkDbc67BYmi2QJ3RL0A9b6nBNMbgQCbr2kBQFK3BNlStQBeuyUB28MzB
sLWzQKMyB0HR0L7BkpKRQPgBTUAWqqLBQ4NZQAWOdUDBeJPBYtWzQGJ6nUA5TLLBVEzvQNdS7kDD
0rbBxCXwQNJioD/18LfB2gi/QMcsRUAC8I/BBkCCQGPdyr/CrqHBZl62QH4nLMAky63BIA6BQBfz
YT8AEaDBZk/pQCQmqb+TX7jBpglrQPD150CUmtLBPMp3QCriEkHTNsbBUWPmQIV1s0AH68XBqbPP
QBB/okD6t53BYrcDQRYlnkDREKHBUJPIQCzeS0Ct8bnBfhOQQJcBUkCtabfBrsXmQOgwtz9oI5rB
YwMEQTTuM0CRNJbBU7D7QAamMkAipanBsqD2QOy9n0A4JLTBvf3AQOWh50CIB6vBTm/3QEpk4kAZ
nKbBOx5sQOdUWUCpcqbBNrVXQFy3f0CPk4vBbZglQHpggEB275fB0OOXQDU6eL9sYqbBPDG1QOzd
yr/gVa3BepKXQCgd2z5BP6XBblzSQOFqTb9kJ7PBDsJoQP7xD0FoNcLB5iGEQNiOEkHotLfBSNau
QMjr9EBwa8bBSq60QMCrnj+PFavBgHfSQP0NGT/DFLLBtru+QEsh+kDY87vBSKWRQEmnWUBQ85fB
qh7oQPX2lUC1OKTBGBCuQEqwYEDpF7TBGPbnQKp3JUB0EpnBWO7hQG37SkC9TKTBtuvgQN8Wp0Do
eK/BNr21QA42MUB4QanB+t7pQC7k1kAFAq/B5NuJQK3eA0GTZsnBOgWpQIsZCUGZurTBliuRQPSl
TkBlZKLBDGNXQJyhcUDMFJPBPJi1QGaXnUCe2LLBAs3lQExx6EAbjbnBuuzvQKhMpT8myLfBOIK/
QM3dTUDdzY/BZYeBQAJQyb8p5qHBvUu1QH8zKsDONK7BgO6AQCMTZD8l35/Bs93oQHm1o78YfbjB
KsItQLeqF0HDhcTB7BplQHgtHEE+CLLB62XAQMy04UBbGszBO/7QQBOvpECRs57BB2wEQdegnUAx
m6HBGQzEQNoKR0ArLLrBNdGMQERZVkANrrbBaGXlQIuwvj9LhJnBVvADQYUlN0AiF5bBNev6QKh9
L0A8danBn/X3QH/ul0Dj8LTB/r/SQJ9o5kDon6nBYEMFQV9W3ECsBKzBLDNrQPgxW0BfI6bBWaJV
QMa4e0AwL4vB3VIiQF7beEA1dpfBkLTVQOq3Nb/lybPBNj66QO4iyr9RRq7Bf2rSQCL+LD95ObLB
plqbQDy3h7+4PafBe3pjQPKVEEFolMDBn2uHQJNzA0EPAsjBZWynQJ2YCkHwFrTBFpyzQOXqnD8R
G6vBGbWXQLXVpz68l6XBgga9QD5E+kDNe7vBo4uRQP3rW0Dk4ZfB7F7oQA2glEAUPaTBTy6uQNDQ
XkBAD7TBxVjnQJHLIkCzH5nBtUXhQGOASECfVqTBIb7gQBhMpkBibq/BVJq0QBVRMEC0IanBJvPo
QNQd1kCFxa7BkgaCQEjvE0HHt7bBGK6sQCHT80A6WcXB4ruQQNcPUUCSU6LBXoBXQEgcdECV8pLB
4IC1QFupnEBH07LB21LkQFOx6EAaN7nB7KhyQNxAPj90pJ7BfFG/QKlLTEA+xI/BnlrtQI+hjb9P
O7nBpNa8QKRdKcAyb6/Bg7HnQIcjqz+mgrbBmSqGQBTv3b8eDaPB1rAnQD4FGEGWz8LBByN0QFIF
AUFM4s/BWiC1QG1fDUG8R6zBx+nRQOGio0ComJ7BkrQEQcKYm0DtwKHBF+fEQMbcREAh8rnBhkSN
QKcxVEAR4rbB90/kQKJ+uT9qkZnB/LkDQZWgM0CCMZbBhsT5QK4YLED6kKnBPen3QKzQl0C++rTB
z8PRQL3R5ECXQ6nBKM4EQRbM20Am0KvBoQBrQKooYEBtFKbBWblVQIZCfEANBIvB7bMiQOlsfUAA
UZfBnYzVQOSZPr9NvLPBlg66QDg0zb/kHK7BQZ3SQPwqJT9AR7LBGkKbQC73iL9CIqfBeoiNQKdz
0ED/GMzBPJKIQDE180Ay+cTBeZ3TQJgwx0AHTcbB4/yzQIK/mj8qMqvBHMyXQJAwpD5KoqXBUCLO
QIYH6UD16L7BBuuRQFCnWkDbHpjBmEPnQDdElUBxt6PBwziwQFV8XkAHIbTBzefnQDSUIECTVJnB
4KbhQFHbSECOYaTBKELeQKp1qUDwia7B02G1QJBnL0D2RKnBGf7gQJR42kANJK3BBwSzQGj8ukA4
rczBVd2oQLjW/kDibb7B/kGRQOMKUEBHkaLBIg5ZQLITdkCoRJPB0i60QJ6hnEAOX7LBjRbsQDD7
7kBYE7fBQl5yQMAFPz9gyZ7BthK/QDhcRkDR5I/BbfnsQEeEk7+FL7nBkZW8QKYIK8DtJq/BzQXo
QPT2pT+hnrbBl/+FQOv63b8S36LBHjZmQK3wxkDKIdHBF2tVQN5KAkEsxMTB6RbyQGYIt0Al18bB
dtrQQMNJokArw53BgiQEQSOwnEBjTKHBwEHJQBwHSUAPtLnB5IyQQNE7UED0h7fBP5nlQNghtT+f
DJrB1uADQfv4MUCUR5bBHK/6QKipL0DXtKnB2QL3QENBn0B1QLTBAsrBQOOU5kC5aqrBAYz5QHP3
4UDOHqfBLERsQFAvX0DZXabBzflWQOLwfUBEVYvB7R4lQKUCgUDQspfBlC6XQOA5fL/qK6fBnJy0
QKQqzL/kHa7BdxyYQH10zz6qm6XBuA7TQFAWUL90hrPBU+aZQBUQykAiCtPBqLmvQG/xqEDIr83B
W+a+QDS0/EDz6sjBRp62QH6rmz9q/qrB2F7UQMf3FD9tB7LBU8/TQNqr20CXSsPBSSiSQFRhWkD3
FJjBtLvnQIBrmECMGaTB3DSvQBuTXUAn0rPB0CDpQDnYKEDc25jB/xvjQLrmTUA0GaTBjzneQK6C
qEAVXK/BZmW3QKieL0C4EqnBVkfiQHFe2UDsT7DB5GyiQBl580Axu9DBIzvNQElUskAYLsbBeyGS
QHHIS0CHbaLBzSZYQI4CdUB9gpPBGSOzQGHhm0AUGbLBMm/vQPQ95kB7BrvBHa3yQHSzoz93abfB
w3C/QJHPTkA0uo/B9op/QJQhy79uBaPB6dizQLGIKsAJTa/ByFiBQAs3XT9GPqDBl57pQBN8pL+p
3rjBqTSCQDZWwkCGBtnBhc2oQP/1h0Dqmc/Bgq7FQKrXDkGB+MbBG+rQQDeKpkCRZ57B00IEQUBX
oUDDzaHB3+HGQK2JSEBCx7nBkc+OQG2OTkC3tLbBibTnQCEvxT+dTZnB6UkEQcSPPEDBxJXB4cL8
QCAMNEBHL6nBSAP1QA+imUDj8LTBOBrDQFgD6ECff67Bvzv6QDqu5EB6hKrB3rtsQEVdVEAgQqbB
6lRVQFWXgEDmqYvBp/IjQIETfEB6DZjBJF/XQAA6GL1A8oXB3o/sQFAJo7+aiYXBWjvPQGBzEz+w
3I/B6PT5QJDu8b/aDY/BSqO3QNzK/EBaKsvBEEGjQET61EC4tszBPKPLQBgq6EDo/LnBMrnbQABc
JL19mZnBiurxQMD1pL92CZnBOFG3QLRfwEBaebvB1GTNQKAEb79W5bPBKhqPQOB32j8+f63BrDrj
QNgzBUAc0KTBiqOHQMAYIb835qXBVqmcQIC6Pj8vq6TBSP+fQKglR0Bk5arBprPOQAATJj/QP6TB
WkeqQIgEc0DoZLXBHKnLQJrgAkH118HBuH6jQFBUt0CQ4sTBGnzgQADE07zT9q3BUlXlQPDBw796
5rvBqCzEQLB/SECSeqPBRDC3QExkpEDq/rLBMDIAQVCn+L/HxqHBooqXQJDUtr/vYrLBn03NQPJf
4z7dQ33BXoryQHfq378E2nvBNTK/QEsjxD8iEpDBfk0FQdx5NcDoto7BPD23QBgrCkFRfdHBWGWT
QP88zkAKNNTBaFnbQPEL70C5fLLBDmycQBNtrz+GL7XB1vFXQPaz3T+gA67BwV37QFDOCkAwcp7B
ssDyQDnuDEDTpqzBZVuRQMBSor8AKZ/Bz1BJQOLMAb/M1aXBRgSSQO6IlT+O/pzB336FQCy1akDm
LqfB+mLEQBD5UED1e7nBGcWNQBnGc0AUjrrBPAP+QJGsdz6hLrDBMATYQP4PDsByosDBLvkBQQl7
or8J87zB

> <OMEGA_E>
QLctP2haLz8QCDY/hHQzPzyPMj+FNLw/

> <OMEGA_NBR>
     42792

$$$$
270446
  -OEChem-04172616093D

 46 49  0     1  0  0  0  0  0999 V2000
    6.4189    0.9752  -22.4534 C   0  0  0  0  0  0  0  0  0  0  0  0
    6.6259   -0.3838  -22.7210 C   0  0  0  0  0  0  0  0  0  0  0  0
    5.0393   -0.9624  -20.9702 C   0  0  0  0  0  0  0  0  0  0  0  0
    6.4049    7.3942  -21.5986 C   0  0  0  0  0  0  0  0  0  0  0  0
    5.5345    1.3952  -21.4231 C   0  0  0  0  0  0  0  0  0  0  0  0
    5.9383   -1.3525  -21.9765 C   0  0  0  0  0  0  0  0  0  0  0  0
    4.8379    0.3977  -20.6779 C   0  0  0  0  0  0  0  0  0  0  0  0
    6.7744    6.4266  -22.4927 C   0  0  0  0  0  0  0  0  0  0  0  0
    5.8612    8.4858  -22.3696 C   0  0  0  0  0  0  0  0  0  0  0  0
    4.4631    3.5037  -18.8449 C   0  0  0  0  0  0  0  0  0  0  0  0
    7.1669    4.7431  -20.6831 C   0  0  0  0  0  0  0  0  0  0  0  0
    5.2053    3.7209  -22.3640 C   0  0  0  0  0  0  0  0  0  0  0  0
    7.2375    5.0403  -22.2023 C   0  0  1  0  0  0  0  0  0  0  0  0
    6.9250    3.2518  -20.5127 C   0  0  1  0  0  0  0  0  0  0  0  0
    7.1417    2.7336  -19.0908 C   0  0  1  0  0  0  0  0  0  0  0  0
    5.5019    2.8955  -21.0661 C   0  0  2  0  0  0  0  0  0  0  0  0
    5.1947    9.6866  -21.7610 C   0  0  0  0  0  0  0  0  0  0  0  0
    8.5817    3.0293  -18.6425 C   0  0  0  0  0  0  0  0  0  0  0  0
    6.0093    8.2057  -23.6418 N   0  0  0  0  0  0  0  0  0  0  0  0
    4.3822    3.2830  -20.1413 N   0  3  0  0  0  0  0  0  0  0  0  0
    3.2848    3.7276  -18.1529 N   0  0  0  0  0  0  0  0  0  0  0  0
    6.6047    6.9331  -23.7377 O   0  0  0  0  0  0  0  0  0  0  0  0
    6.4342    4.1250  -22.9962 O   0  0  0  0  0  0  0  0  0  0  0  0
    6.1459   -2.6630  -22.2232 F   0  0  0  0  0  0  0  0  0  0  0  0
    3.9927    0.6924  -19.6641 F   0  0  0  0  0  0  0  0  0  0  0  0
    8.8868    2.2538  -17.5805 F   0  0  0  0  0  0  0  0  0  0  0  0
    5.9640    3.4952  -17.9297 S   0  0  0  0  0  0  0  0  0  0  0  0
    6.9403    1.7170  -23.0402 H   0  0  0  0  0  0  0  0  0  0  0  0
    7.3128   -0.6845  -23.4982 H   0  0  0  0  0  0  0  0  0  0  0  0
    4.4976   -1.7145  -20.4158 H   0  0  0  0  0  0  0  0  0  0  0  0
    6.5016    7.3495  -20.5238 H   0  0  0  0  0  0  0  0  0  0  0  0
    8.1147    5.0260  -20.2019 H   0  0  0  0  0  0  0  0  0  0  0  0
    6.3413    5.3106  -20.2288 H   0  0  0  0  0  0  0  0  0  0  0  0
    4.6255    3.1003  -23.0632 H   0  0  0  0  0  0  0  0  0  0  0  0
    4.6232    4.6158  -22.0988 H   0  0  0  0  0  0  0  0  0  0  0  0
    8.2894    4.9526  -22.5120 H   0  0  0  0  0  0  0  0  0  0  0  0
    7.6496    2.7323  -21.1569 H   0  0  0  0  0  0  0  0  0  0  0  0
    6.9580    1.6495  -19.0570 H   0  0  0  0  0  0  0  0  0  0  0  0
    4.8223   10.3444  -22.5602 H   0  0  0  0  0  0  0  0  0  0  0  0
    4.3526    9.3597  -21.1332 H   0  0  0  0  0  0  0  0  0  0  0  0
    5.9210   10.2353  -21.1434 H   0  0  0  0  0  0  0  0  0  0  0  0
    9.2755    2.8116  -19.4678 H   0  0  0  0  0  0  0  0  0  0  0  0
    8.6684    4.0890  -18.3605 H   0  0  0  0  0  0  0  0  0  0  0  0
    3.4774    3.3844  -20.5549 H   0  0  0  0  0  0  0  0  0  0  0  0
    3.3063    3.8777  -17.1644 H   0  0  0  0  0  0  0  0  0  0  0  0
    2.4124    3.7392  -18.6415 H   0  0  0  0  0  0  0  0  0  0  0  0
  1  2  2  0  0  0  0
  1  5  1  0  0  0  0
  2  6  1  0  0  0  0
  3  6  2  0  0  0  0
  3  7  1  0  0  0  0
  4  8  2  0  0  0  0
  4  9  1  0  0  0  0
  5  7  2  0  0  0  0
  5 16  1  0  0  0  0
  6 24  1  0  0  0  0
  7 25  1  0  0  0  0
  8 13  1  0  0  0  0
  8 22  1  0  0  0  0
  9 17  1  0  0  0  0
  9 19  2  0  0  0  0
 10 20  2  0  0  0  0
 10 21  1  0  0  0  0
 10 27  1  0  0  0  0
 11 13  1  0  0  0  0
 11 14  1  0  0  0  0
 12 16  1  0  0  0  0
 12 23  1  0  0  0  0
 13 23  1  0  0  0  0
 14 15  1  0  0  0  0
 14 16  1  0  0  0  0
 15 18  1  0  0  0  0
 15 27  1  0  0  0  0
 16 20  1  0  0  0  0
 18 26  1  0  0  0  0
 19 22  1  0  0  0  0
  1 28  1  0  0  0  0
  2 29  1  0  0  0  0
  3 30  1  0  0  0  0
  4 31  1  0  0  0  0
 11 32  1  0  0  0  0
 11 33  1  0  0  0  0
 12 34  1  0  0  0  0
 12 35  1  0  0  0  0
 13 36  1  0  0  0  0
 14 37  1  0  0  0  0
 15 38  1  0  0  0  0
 17 39  1  0  0  0  0
 17 40  1  0  0  0  0
 17 41  1  0  0  0  0
 18 42  1  0  0  0  0
 18 43  1  0  0  0  0
 20 44  1  0  0  0  0
 21 45  1  0  0  0  0
 21 46  1  0  0  0  0
M  CHG  1  20   1
M  END
> <OMEGA_C>
SmfNQJypeT+joLPBFgfUQIZ8xL6gxLXBpEGhQHVgdr/mwqfBOvXMQG+d7EDdyazBZhqxQG+Xsj91
YqvBRAa+QAwgrb/Jz6/BSdCaQLSiyz5tbKXB9MfYQOOmzUD38LPB0I67QMDFB0Ha9LLBDtKOQGo8
YEBzwpbB4FblQMLHl0ALd6XBnJGmQHQjbkCO6bLB+pnnQO1JoUBUnrHBSpndQKgdUEAGGqTBHInk
QLbyLkAGupjBXg+wQG5POUBth6jB2jqmQID8GkFtFq7Bp04JQW7gQUDNI5XBRkzAQKBKA0FXIr3B
ljqMQBQdUkBkIaHBIDpSQASRbkAPOZHBlFnTQMbb3UC65r3BxOTNQEEAhEBC+LfBMqvEQOZtKsAK
ybHB3Ih/QDpAMT8KUJ3BezAOQcY+EEDfpIzB/9i+QBKyX0AccI/BzBbeQPPG2z9ZUrjBlALqQIQ6
L79d/LvBsuyPQLl12797U6PBMg3QQEQv60DOMKTBy9UBQfnUoEB5naHB3OvKQDrwqUB81KHBOgSU
QBxsRkBegbjBi/GTQPi0k0BoyrDBVaEEQU17nkCpGLTBzMn0QF/eLkBVQanB76feQEck0z/KdJjB
bFCaQIGCJUE6e7TBwkiLQD/BFUHXEKnBBXm9QMvDI0GdJanBhGgUQc7wM0AfvpvBnbEKQWbZgkBf
4pLBRo1eQO+ZWECHcKTB+JlTQH0seEC+UInBuWQaQMdOb0DTIZXB

> <OMEGA_E>
fkQ5Pw==

> <OMEGA_NBR>
     43875

$$$$
303927
  -OEChem-04172616093D

 39 41  0     1  0  0  0  0  0999 V2000
    3.6632   -1.6464  -20.1638 C   0  0  0  0  0  0  0  0  0  0  0  0
    4.7142    0.4823  -20.6944 C   0  0  0  0  0  0  0  0  0  0  0  0
    6.5703   -0.7978  -22.3724 C   0  0  0  0  0  0  0  0  0  0  0  0
    4.6632   -0.9071  -20.8649 C   0  0  0  0  0  0  0  0  0  0  0  0
    5.6963    1.2597  -21.3541 C   0  0  0  0  0  0  0  0  0  0  0  0
    5.5899   -1.5519  -21.7076 C   0  0  0  0  0  0  0  0  0  0  0  0
    6.6357    0.5959  -22.2002 C   0  0  0  0  0  0  0  0  0  0  0  0
    4.5635    3.3965  -18.9958 C   0  0  0  0  0  0  0  0  0  0  0  0
    7.2349    4.7722  -20.5153 C   0  0  0  0  0  0  0  0  0  0  0  0
    5.5143    3.4742  -22.5112 C   0  0  0  0  0  0  0  0  0  0  0  0
    7.2865    2.6400  -19.1084 C   0  0  0  0  0  0  0  0  0  0  0  0
    7.0990    3.2350  -20.5126 C   0  0  1  0  0  0  0  0  0  0  0  0
    6.9621    5.2958  -21.9334 C   0  0  2  0  0  0  0  0  0  0  0  0
    5.7362    2.7856  -21.1374 C   0  0  2  0  0  0  0  0  0  0  0  0
    7.0324    6.8168  -21.9445 C   0  0  0  0  0  0  0  0  0  0  0  0
    2.8430   -2.2359  -19.5827 N   0  0  0  0  0  0  0  0  0  0  0  0
    4.5808    3.2627  -20.3050 N   0  3  0  0  0  0  0  0  0  0  0  0
    3.3611    3.7480  -18.4043 N   0  0  0  0  0  0  0  0  0  0  0  0
    5.6460    4.8916  -22.3653 O   0  0  0  0  0  0  0  0  0  0  0  0
    6.7944    7.2716  -23.2701 O   0  0  0  0  0  0  0  0  0  0  0  0
    5.5497   -2.8929  -21.8828 F   0  0  0  0  0  0  0  0  0  0  0  0
    7.6120    1.2631  -22.8604 F   0  0  0  0  0  0  0  0  0  0  0  0
    5.9783    3.1976  -17.9545 S   0  0  0  0  0  0  0  0  0  0  0  0
    3.9947    0.9669  -20.0511 H   0  0  0  0  0  0  0  0  0  0  0  0
    7.2791   -1.2919  -23.0203 H   0  0  0  0  0  0  0  0  0  0  0  0
    6.5072    5.2081  -19.8149 H   0  0  0  0  0  0  0  0  0  0  0  0
    8.2531    5.0530  -20.2080 H   0  0  0  0  0  0  0  0  0  0  0  0
    6.2637    3.1090  -23.2288 H   0  0  0  0  0  0  0  0  0  0  0  0
    4.5060    3.2365  -22.8811 H   0  0  0  0  0  0  0  0  0  0  0  0
    7.2549    1.5427  -19.1793 H   0  0  0  0  0  0  0  0  0  0  0  0
    8.2650    2.9540  -18.7162 H   0  0  0  0  0  0  0  0  0  0  0  0
    7.8982    2.8323  -21.1521 H   0  0  0  0  0  0  0  0  0  0  0  0
    7.7262    4.8946  -22.6156 H   0  0  0  0  0  0  0  0  0  0  0  0
    6.2681    7.2281  -21.2687 H   0  0  0  0  0  0  0  0  0  0  0  0
    8.0290    7.1443  -21.6136 H   0  0  0  0  0  0  0  0  0  0  0  0
    3.7418    3.5023  -20.7936 H   0  0  0  0  0  0  0  0  0  0  0  0
    3.3110    3.8820  -17.4145 H   0  0  0  0  0  0  0  0  0  0  0  0
    2.5432    3.8678  -18.9670 H   0  0  0  0  0  0  0  0  0  0  0  0
    6.8353    8.2205  -23.2920 H   0  0  0  0  0  0  0  0  0  0  0  0
  1  4  1  0  0  0  0
  1 16  3  0  0  0  0
  2  4  1  0  0  0  0
  2  5  2  0  0  0  0
  3  6  1  0  0  0  0
  3  7  2  0  0  0  0
  4  6  2  0  0  0  0
  5  7  1  0  0  0  0
  5 14  1  0  0  0  0
  6 21  1  0  0  0  0
  7 22  1  0  0  0  0
  8 17  2  0  0  0  0
  8 18  1  0  0  0  0
  8 23  1  0  0  0  0
  9 12  1  0  0  0  0
  9 13  1  0  0  0  0
 10 14  1  0  0  0  0
 10 19  1  0  0  0  0
 11 12  1  0  0  0  0
 11 23  1  0  0  0  0
 12 14  1  0  0  0  0
 13 15  1  0  0  0  0
 13 19  1  0  0  0  0
 14 17  1  0  0  0  0
 15 20  1  0  0  0  0
  2 24  1  0  0  0  0
  3 25  1  0  0  0  0
  9 26  1  0  0  0  0
  9 27  1  0  0  0  0
 10 28  1  0  0  0  0
 10 29  1  0  0  0  0
 11 30  1  0  0  0  0
 11 31  1  0  0  0  0
 12 32  1  0  0  0  0
 13 33  1  0  0  0  0
 15 34  1  0  0  0  0
 15 35  1  0  0  0  0
 17 36  1  0  0  0  0
 18 37  1  0  0  0  0
 18 38  1  0  0  0  0
 20 39  1  0  0  0  0
M  CHG  1  17   1
M  END
> <OMEGA_C>
PnJqQAK80r9nT6HBrNqWQBfs9j4ujqXBMkDSQJM8TL+T+rLB6TiVQN82aL8566bB9Ee2QBs9oT83
1arBvOCyQAijxr8Yqa3BWFfUQHCPGD8cmrHBXgiSQAdgWUBo95fBOITnQAm2mEBMH6TBX3WwQJlY
XkDfFrTB9CrpQIr1KED93ZjBwSrjQP8JT0C8GaTB4sneQOJ2qUCsd6/BrI63QE1HMkByGanBRwnh
QIQj2kBVjq/BdPQ1QL8ZD8BSqZzBkJWSQJjPUEChcKLB9xtXQHjfb0DxO5PBKKy0QA+InEAR7LLB
emvZQBix6EA4KbrBKJexQHQlOcDmD6/BLJXzQEqtoT8K4rbBmE6/QBamTEDqoo/BmKh/QFeHdz/A
aKDBWO7oQFJepb+mKbjB4DrQQG2opkD6hJ7BoAwEQSKyoUDkqaHBaXDIQBH5RkCi1LnBZTGQQBQi
T0ByDLfBJSjoQCd4xT82b5nBjz0EQSEPPUC7upXBMb78QL1ENUCZN6nBLD33QM2gnECm7LTBhJTI
QORM50A6JqrBy3YAQTue5ECe6KzB1HlvQEwlYEBXWabBOuhTQOlxeED8UIvBe8MiQEGKd0B0vJfB
ZbraQByHA0EEVrrBG8RmQEj2zL++VqHB8TKWQM47Az8Qe6XBBqnRQLTUS78VtbLB7/uTQOxDYL9w
2KbBaD+2QIM5oz/RqarBCpOxQH9nxL+fhK3BZmHUQPaWGD+OUbHBMTiSQE0UWkD37JfBbWrnQL9y
mUCwYaTBp9WwQM/zXUD/MbTBinXpQHTQK0AD3JjBZUfjQBCgUED0KqTBrJreQOUMqkAm0q/BK7S3
QIJ2M0DdFanBUkffQCfp2kACBbDBCV4xQOWWC8AlxpzBWeOSQEgUU0D1bKLBk7lWQG+GbEBSHZPB
s9u0QJV4nEBbUbPB6ZwDQVEV6kB4HazBFm+vQJ/dN8CkAq/BHCj0QMqdnz8/h7bBcd6/QCQJUUDj
qY/Bhk1+QNQJgT9OaKDBLmnoQBWbpr9BzbfBXRjQQJOOp0Al0J7BrfwDQUyiokAl86HBK/3IQF+3
RUCQ1bnBBaqQQHUHTkAwKbfBRUnoQBMTyz/tSZnBPHAEQTAHQECmzJXBGdP8QLljNkDBQanBfHf3
QHy8nUCKPLXBa6XaQGcd5kD2R7jBf1bFQOxG50AR8KrB375wQIh0ZECnV6bBDHxTQAZPdEArL4vB
WN4hQHIOckBukpfBCbsDQRA9BEHQQazB

> <OMEGA_E>
YHXwPtSYAD8=

> <OMEGA_NBR>
     45559

$$$$
303928
  -OEChem-04172616093D

 38 40  0     1  0  0  0  0  0999 V2000
    3.6137   -1.6167  -20.1665 C   0  0  0  0  0  0  0  0  0  0  0  0
    4.6976    0.5013  -20.6824 C   0  0  0  0  0  0  0  0  0  0  0  0
    6.5515   -0.8009  -22.3453 C   0  0  0  0  0  0  0  0  0  0  0  0
    4.6317   -0.8884  -20.8535 C   0  0  0  0  0  0  0  0  0  0  0  0
    5.6901    1.2694  -21.3394 C   0  0  0  0  0  0  0  0  0  0  0  0
    5.5573   -1.5439  -21.6891 C   0  0  0  0  0  0  0  0  0  0  0  0
    6.6294    0.5927  -22.1759 C   0  0  0  0  0  0  0  0  0  0  0  0
    4.5657    3.4039  -18.9917 C   0  0  0  0  0  0  0  0  0  0  0  0
    7.2485    4.7854  -20.5371 C   0  0  0  0  0  0  0  0  0  0  0  0
    5.5235    3.4807  -22.5181 C   0  0  0  0  0  0  0  0  0  0  0  0
    7.2892    2.6629  -19.1093 C   0  0  0  0  0  0  0  0  0  0  0  0
    7.1026    3.2481  -20.5185 C   0  0  1  0  0  0  0  0  0  0  0  0
    6.9833    5.3068  -21.9601 C   0  0  2  0  0  0  0  0  0  0  0  0
    5.7372    2.8002  -21.1365 C   0  0  2  0  0  0  0  0  0  0  0  0
    7.0703    6.8328  -21.9716 C   0  0  0  0  0  0  0  0  0  0  0  0
    2.7780   -2.1971  -19.5984 N   0  0  0  0  0  0  0  0  0  0  0  0
    4.5848    3.2882  -20.3034 N   0  3  0  0  0  0  0  0  0  0  0  0
    3.3541    3.7033  -18.3898 N   0  0  0  0  0  0  0  0  0  0  0  0
    5.6664    4.9033  -22.3939 O   0  0  0  0  0  0  0  0  0  0  0  0
    5.5010   -2.8840  -21.8683 F   0  0  0  0  0  0  0  0  0  0  0  0
    7.6149    1.2475  -22.8342 F   0  0  0  0  0  0  0  0  0  0  0  0
    6.8274    7.2887  -23.2258 F   0  0  0  0  0  0  0  0  0  0  0  0
    5.9899    3.2434  -17.9583 S   0  0  0  0  0  0  0  0  0  0  0  0
    3.9817    0.9933  -20.0407 H   0  0  0  0  0  0  0  0  0  0  0  0
    7.2618   -1.3035  -22.9850 H   0  0  0  0  0  0  0  0  0  0  0  0
    6.5223    5.2314  -19.8416 H   0  0  0  0  0  0  0  0  0  0  0  0
    8.2680    5.0610  -20.2294 H   0  0  0  0  0  0  0  0  0  0  0  0
    6.2706    3.1006  -23.2304 H   0  0  0  0  0  0  0  0  0  0  0  0
    4.5136    3.2472  -22.8864 H   0  0  0  0  0  0  0  0  0  0  0  0
    7.2469    1.5654  -19.1705 H   0  0  0  0  0  0  0  0  0  0  0  0
    8.2718    2.9710  -18.7225 H   0  0  0  0  0  0  0  0  0  0  0  0
    7.8983    2.8347  -21.1556 H   0  0  0  0  0  0  0  0  0  0  0  0
    7.7479    4.8988  -22.6375 H   0  0  0  0  0  0  0  0  0  0  0  0
    6.3234    7.2481  -21.2791 H   0  0  0  0  0  0  0  0  0  0  0  0
    8.0767    7.1454  -21.6560 H   0  0  0  0  0  0  0  0  0  0  0  0
    3.7527    3.5501  -20.7923 H   0  0  0  0  0  0  0  0  0  0  0  0
    3.3042    3.8219  -17.3981 H   0  0  0  0  0  0  0  0  0  0  0  0
    2.5295    3.8007  -18.9471 H   0  0  0  0  0  0  0  0  0  0  0  0
  1  4  1  0  0  0  0
  1 16  3  0  0  0  0
  2  4  1  0  0  0  0
  2  5  2  0  0  0  0
  3  6  1  0  0  0  0
  3  7  2  0  0  0  0
  4  6  2  0  0  0  0
  5  7  1  0  0  0  0
  5 14  1  0  0  0  0
  6 20  1  0  0  0  0
  7 21  1  0  0  0  0
  8 17  2  0  0  0  0
  8 18  1  0  0  0  0
  8 23  1  0  0  0  0
  9 12  1  0  0  0  0
  9 13  1  0  0  0  0
 10 14  1  0  0  0  0
 10 19  1  0  0  0  0
 11 12  1  0  0  0  0
 11 23  1  0  0  0  0
 12 14  1  0  0  0  0
 13 15  1  0  0  0  0
 13 19  1  0  0  0  0
 14 17  1  0  0  0  0
 15 22  1  0  0  0  0
  2 24  1  0  0  0  0
  3 25  1  0  0  0  0
  9 26  1  0  0  0  0
  9 27  1  0  0  0  0
 10 28  1  0  0  0  0
 10 29  1  0  0  0  0
 11 30  1  0  0  0  0
 11 31  1  0  0  0  0
 12 32  1  0  0  0  0
 13 33  1  0  0  0  0
 15 34  1  0  0  0  0
 15 35  1  0  0  0  0
 17 36  1  0  0  0  0
 18 37  1  0  0  0  0
 18 38  1  0  0  0  0
M  CHG  1  17   1
M  END
> <OMEGA_C>
0EZnQOfwzr/lVKHBwlKWQOxSAD96daXB4KXRQDYFTb8jw7LBMzeUQABuY7/j06bBKBW2QAh7oj8G
t6rBadWxQPmcxb9Gg63BxiPUQJK8Fz8raLHBcxqSQP/ZWUAT75fB3vPnQBsimUAITKTBS8CwQFrD
XkD+JLTBNEHpQGJtKkDk35jBzkjjQEThT0DMJaTBc3ffQFrRqUA2rq/B25a3QBI3M0CXF6nBFEDi
QDGm2kDGxa/BJsoxQOydDMB3yZzBiraSQLpxUkBnbaLBQqlWQKMCbUBXHpPBWlO1QI7nnECxJrPB
1AewQHuTOMBM8q7BR63zQISvnz9drLbB53naQMM86UBfzrnBMK2/QBuUT0CYqo/Bp9N+QMtFfj9D
U6DBn2DoQMnZpr884bfB+LbQQLRnp0Cdu57BqUkEQRf0oUC71aHBt6jIQLtwRkDK17nBs2+QQIDR
T0BsF7fB7ebnQH1gyD9DXZnBPlkEQRclPkC1x5XBC7/8QG1sNUDAPqnBHO/3QJPCnECGGbXBO1nK
QMvw50CCO6rBDDoBQbym5ECOP63B5ytwQFI0Y0CsVqbBfnhTQKCZdEBbL4vBY+MhQEE/c0Ctk5fB
y0n/QOfwy7+adbDB70TaQEqaBj/o96zBDaKLQIE7Ub+MWqvBQqfYQDD5Xr/iQq7Br+y0QInhoj/q
Z6rBaTexQGjdxb8/Ya3BYwSNQC84FD/+/KnBNgqSQFh2V0Dc2pfBjpDmQO4Am0DALKTBmhCzQGi3
XEDGRrTB3VjqQP8FLUCczpjBTFLjQFYKU0D2FKTB637eQOTkq0Bbqq/Btb+3QGogNEAdAKnBeYXe
QG4l3UB3ya/BQl4PQR+SC8DXObLBZYuTQF4XVkAsYKLB0MNWQD0VbEDBD5PB4cK1QH53nEAynbPB
ofCuQGvsOMCRnq7BxK1OQDUjnD+XbqjBU+u9QNq37ECwtKnBfd++QJtiR0BGeY/BQmn4QC0fhT+D
8K3B5rhaQKPMqr+01qrB1XbOQLd7qECxt57BWFoDQWq2pEBGiKHBVtLMQBzXRECyernB796TQLGr
SkA8rLfB0ozsQID2zT9ngJnBHEMEQaJZRkAIkZXBj/j8QCpfOkCQQqnBj3r4QKZxoEDV3bTBZCT9
QDzU6ECSk6zBvaLaQK9k6ECjEbjBFpp0QJnObUBJTKbBsQpTQLhrcUBfGovB/7giQEyedUAOkJfB

> <OMEGA_E>
MBSlPhgd3T4=

> <OMEGA_NBR>
     47215

$$$$
303929
  -OEChem-04172616093D

 42 44  0     1  0  0  0  0  0999 V2000
    3.7912   -1.7028  -20.1397 C   0  0  0  0  0  0  0  0  0  0  0  0
    4.7577    0.4501  -20.7000 C   0  0  0  0  0  0  0  0  0  0  0  0
    6.6055   -0.7686  -22.4351 C   0  0  0  0  0  0  0  0  0  0  0  0
    4.7463   -0.9373  -20.8720 C   0  0  0  0  0  0  0  0  0  0  0  0
    5.6936    1.2534  -21.3874 C   0  0  0  0  0  0  0  0  0  0  0  0
    5.6694   -1.5520  -21.7416 C   0  0  0  0  0  0  0  0  0  0  0  0
    6.6306    0.6242  -22.2633 C   0  0  0  0  0  0  0  0  0  0  0  0
    4.5587    3.4124  -18.9928 C   0  0  0  0  0  0  0  0  0  0  0  0
    7.2455    4.7038  -20.5049 C   0  0  0  0  0  0  0  0  0  0  0  0
    5.4639    3.4699  -22.5029 C   0  0  0  0  0  0  0  0  0  0  0  0
    7.2612    2.5949  -19.1053 C   0  0  0  0  0  0  0  0  0  0  0  0
    7.0830    3.1838  -20.5105 C   0  0  1  0  0  0  0  0  0  0  0  0
    6.9698    5.2219  -21.9118 C   0  0  2  0  0  0  0  0  0  0  0  0
    5.7124    2.7649  -21.1415 C   0  0  2  0  0  0  0  0  0  0  0  0
    6.6867    8.5894  -23.2844 C   0  0  0  0  0  0  0  0  0  0  0  0
    7.0706    6.7184  -21.8844 C   0  0  0  0  0  0  0  0  0  0  0  0
    3.0044   -2.3083  -19.5300 N   0  0  0  0  0  0  0  0  0  0  0  0
    4.5568    3.2247  -20.2958 N   0  3  0  0  0  0  0  0  0  0  0  0
    3.3711    3.8128  -18.4022 N   0  0  0  0  0  0  0  0  0  0  0  0
    5.6375    4.8717  -22.3384 O   0  0  0  0  0  0  0  0  0  0  0  0
    6.8416    7.1746  -23.2114 O   0  0  0  0  0  0  0  0  0  0  0  0
    5.6707   -2.8931  -21.9134 F   0  0  0  0  0  0  0  0  0  0  0  0
    7.5718    1.3212  -22.9456 F   0  0  0  0  0  0  0  0  0  0  0  0
    5.9762    3.2073  -17.9555 S   0  0  0  0  0  0  0  0  0  0  0  0
    4.0434    0.9121  -20.0346 H   0  0  0  0  0  0  0  0  0  0  0  0
    7.3100   -1.2401  -23.1043 H   0  0  0  0  0  0  0  0  0  0  0  0
    6.5316    5.1513  -19.7977 H   0  0  0  0  0  0  0  0  0  0  0  0
    8.2710    4.9668  -20.2064 H   0  0  0  0  0  0  0  0  0  0  0  0
    6.1806    3.0948  -23.2483 H   0  0  0  0  0  0  0  0  0  0  0  0
    4.4386    3.2629  -22.8433 H   0  0  0  0  0  0  0  0  0  0  0  0
    7.1940    1.4986  -19.1658 H   0  0  0  0  0  0  0  0  0  0  0  0
    8.2512    2.8809  -18.7205 H   0  0  0  0  0  0  0  0  0  0  0  0
    7.8759    2.7663  -21.1485 H   0  0  0  0  0  0  0  0  0  0  0  0
    7.7182    4.8117  -22.6058 H   0  0  0  0  0  0  0  0  0  0  0  0
    6.5128    8.8864  -24.3291 H   0  0  0  0  0  0  0  0  0  0  0  0
    5.8286    8.8964  -22.6684 H   0  0  0  0  0  0  0  0  0  0  0  0
    7.5991    9.0778  -22.9115 H   0  0  0  0  0  0  0  0  0  0  0  0
    6.3125    7.1357  -21.2053 H   0  0  0  0  0  0  0  0  0  0  0  0
    8.0723    7.0235  -21.5475 H   0  0  0  0  0  0  0  0  0  0  0  0
    3.6971    3.4068  -20.7731 H   0  0  0  0  0  0  0  0  0  0  0  0
    3.3333    3.9770  -17.4165 H   0  0  0  0  0  0  0  0  0  0  0  0
    2.5517    3.9376  -18.9616 H   0  0  0  0  0  0  0  0  0  0  0  0
  1  4  1  0  0  0  0
  1 17  3  0  0  0  0
  2  4  2  0  0  0  0
  2  5  1  0  0  0  0
  3  6  2  0  0  0  0
  3  7  1  0  0  0  0
  4  6  1  0  0  0  0
  5  7  2  0  0  0  0
  5 14  1  0  0  0  0
  6 22  1  0  0  0  0
  7 23  1  0  0  0  0
  8 18  2  0  0  0  0
  8 19  1  0  0  0  0
  8 24  1  0  0  0  0
  9 12  1  0  0  0  0
  9 13  1  0  0  0  0
 10 14  1  0  0  0  0
 10 20  1  0  0  0  0
 11 12  1  0  0  0  0
 11 24  1  0  0  0  0
 12 14  1  0  0  0  0
 13 16  1  0  0  0  0
 13 20  1  0  0  0  0
 14 18  1  0  0  0  0
 15 21  1  0  0  0  0
 16 21  1  0  0  0  0
  2 25  1  0  0  0  0
  3 26  1  0  0  0  0
  9 27  1  0  0  0  0
  9 28  1  0  0  0  0
 10 29  1  0  0  0  0
 10 30  1  0  0  0  0
 11 31  1  0  0  0  0
 11 32  1  0  0  0  0
 12 33  1  0  0  0  0
 13 34  1  0  0  0  0
 15 35  1  0  0  0  0
 15 36  1  0  0  0  0
 15 37  1  0  0  0  0
 16 38  1  0  0  0  0
 16 39  1  0  0  0  0
 18 40  1  0  0  0  0
 19 41  1  0  0  0  0
 19 42  1  0  0  0  0
M  CHG  1  18   1
M  END
> <OMEGA_C>
yKNyQHL22b8wHqHB6z6YQNh05j6WmaXBiWDTQJ3FRL8je7PBkuGXQMX1b7/Z+abB+DG2QLhvoD9+
GavBGmy1QFSnxr/l7q3B3S3UQEjNHz81G7LBL+GRQF1kWkAx8ZfB69rnQMeFlkAjCqTBeNiuQJsS
XkDbBbTB/VvoQBcTJkCt15jB0afiQP3DS0B0FaTBsQjfQBUap0B3S6/Bqcu2QO3zMEDLIanBbvnV
QDtuCUFbRrrBLkLiQAP91kA0E6/Bd0dAQF27E8BcPZzBPNGRQLdgTkC1XaLBecBXQJIEdECxN5PB
Tma0QMjkm0ADtbLBwe7aQEWW5UAFsbnBNHa1QB8oOcCsTq/BHUzyQFEcqT+CkLfBSD2/QDVFTUDQ
pI/BpmOBQKeBaT/ZRqDBtuvpQNe8nr+X1bjB4gLRQCDXpECzYZ7BGFYEQQrwnkDPpqHBO8fFQMUQ
RkCO/LnBMgmOQPjTUEAqv7bBjjXmQD/Tvz92U5nBGQUEQTBhOECgw5XBNgf8QNULMUAKMKnB5fv2
QL35mUCx2LTBHGnQQKguDkETosLB0oO6QJ9XDkHaWLXBySvzQIY+EUGwSrfBtP/JQLJX5ECDpKnB
GygBQWHA4EBHYazBE55sQLcIWkBHL6bBlFVVQJSGfkD3VIvBI08jQI8BfEBusZfBx5hwQA5+179m
26DBIX6XQM5/9D6rPaXBhvrRQOIiP79CRrPBbNuWQLyNab8mrabB4Vq1QAUXpD/qyqrBWvezQI2N
w7/Zva3BOxbTQJxNJT+I2LHBrnCRQOekW0CwqJfByDnpQFXHl0A89qTBht6sQI5gX0AVALTB8iPo
QNHjLEAasJjBljniQPmoTkAJIqTBF6LiQA2PpEBfvbDBG+S1QKCMM0Bj+qjBb2iwQPxv9kAoBKvB
TsXuQG9700AIqrLB6mo+QBZOE8DxDJzBckWRQLddUUA1HaLBuZBVQH6WbUCDt5LBHcC2QFVsnED/
pLPBcwveQN/v70CmmKrBRFmzQPB1N8BlSq/BXibxQI89qz/LXLfBpbu/QBeFV0Dkn4/B2O6AQPdo
cD8s1p/BAV3oQHQHnL8fqrjB8wnSQFavqECI3Z/BNfYEQV7pn0BYaqLBzKrAQIGqQEBvLrrByNaK
QLdiV0AiBLbB+LnlQPRRzT9LyZjBFwAEQczFP0D6yJXBA/D6QEkFMEDPF6nB2MD3QM15kEC1rLXB
PrmmQKw7BkH7l6TB7amnQE0cAkEW0LLBnACgQFSU10AO96nBnu8IQVIc1kBptbLBNRviQExb3UC4
frrBVcNrQHvQXkDU5KXB4INTQLm5d0Bv0orBB9AfQLxmcEBwC5fBwFr/QC9Yy7/GfrDBF0jaQNc5
Bz9Z+qzBG7KLQOkOUb9NWKvBJLPYQAM9Xr/gR67Bs/C0QIMIoz/qZKrBykmxQFmgxb/aY63B5QyN
QLZiFD8P+KnBohmSQEGTV0BL15fBzKHmQEX1mkAtMKTB3/yyQJyeXECLRbTBrmbqQHgfLUDgzJjB
ll3jQLcGU0BxFKTBKJLeQCSyq0Cxsa/Bn8G3QOsqNECM/ajBq/O6QOWgDUEp3KjBCrveQNLb3ED9
5K/BDWoPQbAlC8APRrLBV5WTQAMzVkCvXKLBCeNWQIgYbEDLCpPBg861QNFjnEAfo7PBV6G8QC5L
7UC4RqnBXAqvQNbKOMDTo67Bkr9OQBwsnD8JZqjBP/O+QBGQR0ARd4/BJ2f4QPCMhT809a3Bg+Fa
QArSqr/E0qrB7IfOQON+qEB1vZ7BDmMDQX6upECyjKHBi6bMQHGHREDxfLnByrqTQMqtSkDFo7fB
AZrsQBQmzj8ffJnBwkoEQTl6RkAHkZXBsP38QLVCOkAZQqnBIIH4QPENoEBT4rTBu0qgQGqmEkEC
saPBtzbZQDHRE0GPmaXBQBO2QN//E0Hc+LDBZpr9QPSY6EAO2qzBUivaQIn550B6KrjByq90QB32
bUAKSKbBHjBTQC9mcUBGFYvBYtEiQC+YdUAsipfB

> <OMEGA_E>
BNLVPqDS6D6sVws/

> <OMEGA_NBR>
     49739

$$$$
303931
  -OEChem-04172616093D

 38 40  0     1  0  0  0  0  0999 V2000
    3.7394   -1.6988  -20.1563 C   0  0  0  0  0  0  0  0  0  0  0  0
    6.5798   -0.7335  -22.3909 C   0  0  0  0  0  0  0  0  0  0  0  0
    5.6200   -1.5180  -21.7283 C   0  0  0  0  0  0  0  0  0  0  0  0
    6.6118    0.6566  -22.1873 C   0  0  0  0  0  0  0  0  0  0  0  0
    4.7112    0.4830  -20.6670 C   0  0  0  0  0  0  0  0  0  0  0  0
    4.6922   -0.9077  -20.8624 C   0  0  0  0  0  0  0  0  0  0  0  0
    5.6711    1.2837  -21.3309 C   0  0  0  0  0  0  0  0  0  0  0  0
    4.5585    3.4068  -18.9858 C   0  0  0  0  0  0  0  0  0  0  0  0
    7.2481    4.7788  -20.5517 C   0  0  0  0  0  0  0  0  0  0  0  0
    5.5376    3.4651  -22.5234 C   0  0  0  0  0  0  0  0  0  0  0  0
    7.2858    2.6563  -19.1198 C   0  0  0  0  0  0  0  0  0  0  0  0
    7.0904    3.2394  -20.5299 C   0  0  1  0  0  0  0  0  0  0  0  0
    6.9790    5.3097  -21.9745 C   0  0  2  0  0  0  0  0  0  0  0  0
    5.7167    2.8051  -21.1291 C   0  0  2  0  0  0  0  0  0  0  0  0
    7.0314    6.8399  -21.9798 C   0  0  0  0  0  0  0  0  0  0  0  0
    2.9628   -2.3385  -19.5685 N   0  0  0  0  0  0  0  0  0  0  0  0
    4.5688    3.2939  -20.2975 N   0  3  0  0  0  0  0  0  0  0  0  0
    3.3518    3.7116  -18.3769 N   0  0  0  0  0  0  0  0  0  0  0  0
    5.6723    4.8909  -22.4186 O   0  0  0  0  0  0  0  0  0  0  0  0
    5.9889    3.2323  -17.9596 S   0  0  0  0  0  0  0  0  0  0  0  0
    7.2922   -1.1988  -23.0560 H   0  0  0  0  0  0  0  0  0  0  0  0
    5.5941   -2.5865  -21.8830 H   0  0  0  0  0  0  0  0  0  0  0  0
    7.3600    1.2533  -22.6879 H   0  0  0  0  0  0  0  0  0  0  0  0
    3.9905    0.9433  -20.0075 H   0  0  0  0  0  0  0  0  0  0  0  0
    6.5297    5.2297  -19.8514 H   0  0  0  0  0  0  0  0  0  0  0  0
    8.2716    5.0456  -20.2496 H   0  0  0  0  0  0  0  0  0  0  0  0
    6.3043    3.0773  -23.2102 H   0  0  0  0  0  0  0  0  0  0  0  0
    4.5385    3.2224  -22.9146 H   0  0  0  0  0  0  0  0  0  0  0  0
    7.2478    1.5586  -19.1800 H   0  0  0  0  0  0  0  0  0  0  0  0
    8.2691    2.9688  -18.7384 H   0  0  0  0  0  0  0  0  0  0  0  0
    7.8760    2.8185  -21.1746 H   0  0  0  0  0  0  0  0  0  0  0  0
    7.7540    4.9218  -22.6519 H   0  0  0  0  0  0  0  0  0  0  0  0
    6.8386    7.2103  -22.9975 H   0  0  0  0  0  0  0  0  0  0  0  0
    6.2669    7.2352  -21.2949 H   0  0  0  0  0  0  0  0  0  0  0  0
    8.0265    7.1737  -21.6507 H   0  0  0  0  0  0  0  0  0  0  0  0
    3.7355    3.5580  -20.7832 H   0  0  0  0  0  0  0  0  0  0  0  0
    3.3075    3.8263  -17.3845 H   0  0  0  0  0  0  0  0  0  0  0  0
    2.5253    3.8167  -18.9298 H   0  0  0  0  0  0  0  0  0  0  0  0
  1  6  1  0  0  0  0
  1 16  3  0  0  0  0
  2  3  1  0  0  0  0
  2  4  2  0  0  0  0
  3  6  2  0  0  0  0
  4  7  1  0  0  0  0
  5  6  1  0  0  0  0
  5  7  2  0  0  0  0
  7 14  1  0  0  0  0
  8 17  2  0  0  0  0
  8 18  1  0  0  0  0
  8 20  1  0  0  0  0
  9 12  1  0  0  0  0
  9 13  1  0  0  0  0
 10 14  1  0  0  0  0
 10 19  1  0  0  0  0
 11 12  1  0  0  0  0
 11 20  1  0  0  0  0
 12 14  1  0  0  0  0
 13 15  1  0  0  0  0
 13 19  1  0  0  0  0
 14 17  1  0  0  0  0
  2 21  1  0  0  0  0
  3 22  1  0  0  0  0
  4 23  1  0  0  0  0
  5 24  1  0  0  0  0
  9 25  1  0  0  0  0
  9 26  1  0  0  0  0
 10 27  1  0  0  0  0
 10 28  1  0  0  0  0
 11 29  1  0  0  0  0
 11 30  1  0  0  0  0
 12 31  1  0  0  0  0
 13 32  1  0  0  0  0
 15 33  1  0  0  0  0
 15 34  1  0  0  0  0
 15 35  1  0  0  0  0
 17 36  1  0  0  0  0
 18 37  1  0  0  0  0
 18 38  1  0  0  0  0
M  CHG  1  17   1
M  END
> <OMEGA_C>
VlJvQARx2b8TQKHBno3SQAjIO7+NILPBAtezQK5Mwr+W063B8JPTQGIZKD+qf7HBb8KWQHBL9z4J
VqXBXyaWQFRcaL8n5qbBnHm1QBlPpD+wparBld+RQI0JWkDd4pfBcfDnQK/rmED6aaTBtDOxQI/E
XUD+L7TBPyXpQF4BKkBj9ZjBYuTiQCJTT0BRPaTB6FPfQFrpqUDBy6/Bju+2QNiGM0BxCKnBhgHh
QEjg2kC41q/BRJ49QHCqFcAxjJzBizOSQAXPUkBVYaLBN4RWQBSKbUDUA5PBnIO1QNqBnEAyWbPB
G6W/QDLeTkAprY/Bv1npQAxymb+3crjB+gKzQJCJJcBREK/BP4XrQBFsoD/bgLXB72N/QJB9cT9H
D6DBFPPQQOpZp0Clz57BXFgEQZt1oUAj/6HBJb3JQEfyREB5rrnBXzuRQHQ8TkADUbfBn+3nQHuB
xz+acJnBPU4EQaIAPkA76JXBMQj8QOxhNECTZanBdiD4QHp/nUArN7XBBtbaQAi75kDY+rfBg4rI
QAWH50DjW6rBr2wAQcWO5UCRNK3BbxJvQFq2Y0D3Q6bBcK1TQNbidEBlE4vByp0hQI5EdEA+cJfB
Jd75QHMn5r9RMqfB8OeLQLNGN7/Aj6/BMSqvQPbKxb8xR63BuBePQMuqLT+3I67BkenZQC912D7G
EanBsBfWQCv6eL+y7KnBk/+1QGMSoj+BqarBLgeSQBrHVkBF4ZfB643mQEGBm0CYYaTBnuWyQKwO
XUBiOLTBJgrrQDcNM0A0b5jB/aXjQAfQU0CqAqTB+WLeQBTgq0DW2q/BQl+4QK3sMkAN/qjBH5ne
QIoV3UDzE7DBOJULQWBLHcAb2aTBdNKSQGZBTkBSXqLBrwVXQLYZbUD+JZPBDGS1QLWRnECAhbPB
6uC+QPb+S0A7YI/BV71cQKEek79kaLLBv1ysQDt6J8CIGK7B2FNnQLYVpz8etq/B3Zr4QFzoWz+L
LKfBGGvOQHswqUBA957Bc1QDQV2OpUDIyqHBlWDMQPTSRUBSjbnBw4iTQFP+SkA5hLfBtiDvQPNQ
2j/TsJjBzC0EQVXPUEB8SpXBqrz9QJh3OkAv/6jBWAL4QL/+n0BtG7XB+77YQPND6ED7SrjBo1HF
QBZP6UB4xarBBeL9QGfh6ECDU63BdmhvQJdPW0AfSqbBcfJTQGNedkD5PYvBq4EiQPDwc0Doo5fB

> <OMEGA_E>
MGTAPigg9T4=

> <OMEGA_NBR>
     51395

$$$$
303933
  -OEChem-04172616093D

 48 50  0     1  0  0  0  0  0999 V2000
    6.5196    0.6946  -22.1253 C   0  0  0  0  0  0  0  0  0  0  0  0
    4.6255   -0.9141  -20.8285 C   0  0  0  0  0  0  0  0  0  0  0  0
    5.6026    1.3061  -21.2482 C   0  0  0  0  0  0  0  0  0  0  0  0
    6.4642   -0.6756  -22.3935 C   0  0  0  0  0  0  0  0  0  0  0  0
    4.6360    0.4720  -20.5948 C   0  0  0  0  0  0  0  0  0  0  0  0
    5.5272   -1.4901  -21.7310 C   0  0  0  0  0  0  0  0  0  0  0  0
    4.5728    3.4634  -18.9755 C   0  0  0  0  0  0  0  0  0  0  0  0
    7.2907    4.8029  -20.5906 C   0  0  0  0  0  0  0  0  0  0  0  0
    5.5632    3.4579  -22.5179 C   0  0  0  0  0  0  0  0  0  0  0  0
    7.3077    2.7382  -19.0951 C   0  0  0  0  0  0  0  0  0  0  0  0
    7.1053    3.2671  -20.5231 C   0  0  1  0  0  0  0  0  0  0  0  0
    7.0133    5.3117  -22.0207 C   0  0  2  0  0  0  0  0  0  0  0  0
    5.7104    2.8409  -21.0934 C   0  0  2  0  0  0  0  0  0  0  0  0
    7.0520    6.8431  -22.0414 C   0  0  0  0  0  0  0  0  0  0  0  0
    7.5221   -1.2779  -23.2716 C   0  0  0  0  0  0  0  0  0  0  0  0
    9.1532   -1.3361  -21.3482 C   0  0  0  0  0  0  0  0  0  0  0  0
    8.5478   -1.6063  -19.9375 C   0  0  0  0  0  0  0  0  0  0  0  0
    4.6040    3.4270  -20.2892 N   0  3  0  0  0  0  0  0  0  0  0  0
    3.3325    3.5814  -18.3703 N   0  0  0  0  0  0  0  0  0  0  0  0
    8.4451   -2.0770  -22.4380 N   0  0  0  0  0  0  0  0  0  0  0  0
    5.7086    4.8835  -22.4610 O   0  0  0  0  0  0  0  0  0  0  0  0
    3.6859    0.9383  -19.7590 F   0  0  0  0  0  0  0  0  0  0  0  0
    5.5156   -2.8288  -21.9239 F   0  0  0  0  0  0  0  0  0  0  0  0
    9.5477   -1.5653  -19.0200 F   0  0  0  0  0  0  0  0  0  0  0  0
    7.6313   -0.6694  -19.5947 F   0  0  0  0  0  0  0  0  0  0  0  0
    7.9537   -2.8299  -19.8833 F   0  0  0  0  0  0  0  0  0  0  0  0
    6.0044    3.3248  -17.9472 S   0  0  0  0  0  0  0  0  0  0  0  0
    7.2805    1.2966  -22.5997 H   0  0  0  0  0  0  0  0  0  0  0  0
    3.9160   -1.5397  -20.3074 H   0  0  0  0  0  0  0  0  0  0  0  0
    6.5907    5.2843  -19.8917 H   0  0  0  0  0  0  0  0  0  0  0  0
    8.3231    5.0569  -20.3086 H   0  0  0  0  0  0  0  0  0  0  0  0
    6.3392    3.0401  -23.1761 H   0  0  0  0  0  0  0  0  0  0  0  0
    4.5695    3.2104  -22.9194 H   0  0  0  0  0  0  0  0  0  0  0  0
    7.2899    1.6386  -19.1189 H   0  0  0  0  0  0  0  0  0  0  0  0
    8.2855    3.0811  -18.7257 H   0  0  0  0  0  0  0  0  0  0  0  0
    7.8755    2.8106  -21.1622 H   0  0  0  0  0  0  0  0  0  0  0  0
    7.7907    4.9232  -22.6950 H   0  0  0  0  0  0  0  0  0  0  0  0
    6.8539    7.2016  -23.0623 H   0  0  0  0  0  0  0  0  0  0  0  0
    6.2853    7.2385  -21.3589 H   0  0  0  0  0  0  0  0  0  0  0  0
    8.0447    7.1891  -21.7177 H   0  0  0  0  0  0  0  0  0  0  0  0
    7.0505   -1.9265  -24.0245 H   0  0  0  0  0  0  0  0  0  0  0  0
    8.0817   -0.4768  -23.7766 H   0  0  0  0  0  0  0  0  0  0  0  0
    9.0883   -0.2581  -21.5573 H   0  0  0  0  0  0  0  0  0  0  0  0
   10.2088   -1.6455  -21.3421 H   0  0  0  0  0  0  0  0  0  0  0  0
    3.8290    3.8212  -20.7832 H   0  0  0  0  0  0  0  0  0  0  0  0
    3.2613    3.5869  -17.3729 H   0  0  0  0  0  0  0  0  0  0  0  0
    2.5082    3.6611  -18.9308 H   0  0  0  0  0  0  0  0  0  0  0  0
    7.9159   -2.8121  -22.0143 H   0  0  0  0  0  0  0  0  0  0  0  0
  1  3  1  0  0  0  0
  1  4  2  0  0  0  0
  2  5  1  0  0  0  0
  2  6  2  0  0  0  0
  3  5  2  0  0  0  0
  3 13  1  0  0  0  0
  4  6  1  0  0  0  0
  4 15  1  0  0  0  0
  5 22  1  0  0  0  0
  6 23  1  0  0  0  0
  7 18  2  0  0  0  0
  7 19  1  0  0  0  0
  7 27  1  0  0  0  0
  8 11  1  0  0  0  0
  8 12  1  0  0  0  0
  9 13  1  0  0  0  0
  9 21  1  0  0  0  0
 10 11  1  0  0  0  0
 10 27  1  0  0  0  0
 11 13  1  0  0  0  0
 12 14  1  0  0  0  0
 12 21  1  0  0  0  0
 13 18  1  0  0  0  0
 15 20  1  0  0  0  0
 16 17  1  0  0  0  0
 16 20  1  0  0  0  0
 17 24  1  0  0  0  0
 17 25  1  0  0  0  0
 17 26  1  0  0  0  0
  1 28  1  0  0  0  0
  2 29  1  0  0  0  0
  8 30  1  0  0  0  0
  8 31  1  0  0  0  0
  9 32  1  0  0  0  0
  9 33  1  0  0  0  0
 10 34  1  0  0  0  0
 10 35  1  0  0  0  0
 11 36  1  0  0  0  0
 12 37  1  0  0  0  0
 14 38  1  0  0  0  0
 14 39  1  0  0  0  0
 14 40  1  0  0  0  0
 15 41  1  0  0  0  0
 15 42  1  0  0  0  0
 16 43  1  0  0  0  0
 16 44  1  0  0  0  0
 18 45  1  0  0  0  0
 19 46  1  0  0  0  0
 19 47  1  0  0  0  0
 20 48  1  0  0  0  0
M  CHG  1  18   1
M  END
> <OMEGA_C>
uqDQQCjRMT+SALHBNASUQJT/ab+7oKbBQkizQCQvpz9i/KnB6trOQP3zLL/UJbPBaFqUQIip8T42
wqTBfN6wQK67vr8u2a3BelSSQIqnXUDdzZfBBE3pQH2xmUCQuaTBjwWyQAROXUCRJLTB/tjpQHY+
L0DHwpjBuF7jQEgYUUBWL6TB0GzgQMT5qUBRKrDBqLu2QA7SNUBUv6jBAKrhQP/62kDZVLDBArXw
QLKSo782LLrBoHMSQR8Eq78cyarBssMIQViazb8MgJ/BxlOTQOZTW0AuUKLBQEdVQAI2ZUBq9pLB
+h4HQbDtBMAfgbPB2Ky2QOZFnEAVsLPBEOZrQGA0cD+EEp7B+X+wQJgLNcAyZK/BacMYQSxdyL8P
KZjBUDP0QBJeK7/1wZzBjoT+QJ4cNcAFEZ/B6SPAQNjJVEDhk4/Bp/noQIT2pT9DzLTBNp96QO0T
xb+BdaLBWefSQKAYqUBAIp/BgysFQefRoUAWeKLBZNrKQKOQQkCoaLnBGjmSQGl2TUADW7fB50bp
QE690T+K85jBR5EEQUgxRUBQzpXB2wP8QIzgM0AzTKnBLE35QJuKnUBJj7XB1FLbQN1z5kChf7jB
SCHJQIah50Dx3qrBJbcAQUEN5kDHva3Brp3hQIKY9r8zMsDBzk4BQWEe9L5pNr7Bt2kRQR8hhL5D
dazBQVcjQYGe0r+fvKrB5g51QKyOdEDyQ6bBSLlQQGOQZUCj+4rBH4YgQDRQakBhcpfBsU79QMf5
M8BRHbDBq2aWQNgxDD8Z2qXBgy7TQCo5RL+UtrLBU3W3QCKYpT/MjarBz9KSQEpnUL9y1afBUzTW
QCaOHj/eGbHB/3WxQHlJvr/4H67BNdaRQLQPWkB+v5fBi4PnQBp7mUBUZqTBOGqwQL5KXEDACbTB
PyLpQIyzK0CllJjB+13jQHrNUEAs6qPBAGTfQCpDqEBdBrDBLgW4QOahM0CP4ajBoWHiQCbf2EDq
0rDBdcpdQFnSxr9eyqLBPFdJQMBiWsDYnZbBU6p7QFMhjsDMLZDBJN6SQHgAU0AxP6LBbP5VQNT7
bUB9/pLBkpaCQFakG8An8prBbDq1QJF3m0AsZLPBp4r2QIJhoj+bF7bBeMKuQOSWNMA3wq/Bl7pD
QFCXq8AfYIzBMDObQDbAocAPlJbBCUOSQKg1dcB55IfBcAe/QIrbTkDLZo/BqzZ/QMKJhD82qaDB
tuHqQOB0o7+wfrfBiszPQA86qEDfCp/ByfEDQQUJo0CW56HBvNTHQHFnQkCiwbnBlNmPQJXuTECa
xbbBenzoQGLZyj9EE5nBCSMEQVyjQEC3a5XBHfX8QNTvNUAg8KjBHcL3QF3XmUCzQLXBaIfcQOHX
4kC3IrnBekXKQBuE50Btj6vBdkABQaFS40BsWa7BH3UxQD2uWr8H3J7BDek6QB/9CMAn0qjB02In
QG5lesCiNJ3Bxb0aQHgrOsBrZJHBadZwQGYfZEB9NabBHnBSQImNdUAMEIvBLokhQMLHdEBdf5fB
Mc+aQOjFOsD5b57B

> <OMEGA_E>
UIgcP1zjFT8=

> <OMEGA_NBR>
     53331

$$$$
303937
  -OEChem-04172616093D

 42 45  0     1  0  0  0  0  0999 V2000
    3.8013   -1.7344  -20.1475 C   0  0  0  0  0  0  0  0  0  0  0  0
    5.6648   -1.5562  -21.7361 C   0  0  0  0  0  0  0  0  0  0  0  0
    6.5961   -0.7693  -22.4306 C   0  0  0  0  0  0  0  0  0  0  0  0
    4.7456    0.4445  -20.6920 C   0  0  0  0  0  0  0  0  0  0  0  0
    4.7448   -0.9460  -20.8658 C   0  0  0  0  0  0  0  0  0  0  0  0
    5.6761    1.2552  -21.3826 C   0  0  0  0  0  0  0  0  0  0  0  0
    6.6149    0.6255  -22.2590 C   0  0  0  0  0  0  0  0  0  0  0  0
    4.5500    3.4116  -18.9800 C   0  0  0  0  0  0  0  0  0  0  0  0
    6.5677    7.5431  -23.0673 C   0  0  0  0  0  0  0  0  0  0  0  0
    6.1892    7.6332  -21.5749 C   0  0  0  0  0  0  0  0  0  0  0  0
    7.2622    4.7114  -20.5583 C   0  0  0  0  0  0  0  0  0  0  0  0
    5.4347    3.4806  -22.5037 C   0  0  0  0  0  0  0  0  0  0  0  0
    7.2521    2.6224  -19.1064 C   0  0  0  0  0  0  0  0  0  0  0  0
    7.2978    6.6872  -22.0352 C   0  0  0  0  0  0  0  0  0  0  0  0
    7.0701    3.1926  -20.5198 C   0  0  1  0  0  0  0  0  0  0  0  0
    7.0370    5.1886  -21.9946 C   0  0  2  0  0  0  0  0  0  0  0  0
    5.6929    2.7743  -21.1396 C   0  0  2  0  0  0  0  0  0  0  0  0
    3.0242   -2.3693  -19.5554 N   0  0  0  0  0  0  0  0  0  0  0  0
    4.5428    3.2326  -20.2847 N   0  3  0  0  0  0  0  0  0  0  0  0
    3.3576    3.7753  -18.3752 N   0  0  0  0  0  0  0  0  0  0  0  0
    5.6779    4.8828  -22.3842 O   0  0  0  0  0  0  0  0  0  0  0  0
    7.5538    1.3246  -22.9422 F   0  0  0  0  0  0  0  0  0  0  0  0
    5.9815    3.2554  -17.9585 S   0  0  0  0  0  0  0  0  0  0  0  0
    5.6548   -2.6278  -21.8698 H   0  0  0  0  0  0  0  0  0  0  0  0
    7.3021   -1.2378  -23.1004 H   0  0  0  0  0  0  0  0  0  0  0  0
    4.0294    0.9011  -20.0249 H   0  0  0  0  0  0  0  0  0  0  0  0
    5.8773    7.0733  -23.7832 H   0  0  0  0  0  0  0  0  0  0  0  0
    7.0877    8.3808  -23.5551 H   0  0  0  0  0  0  0  0  0  0  0  0
    6.4391    8.5348  -20.9964 H   0  0  0  0  0  0  0  0  0  0  0  0
    5.2287    7.2273  -21.2246 H   0  0  0  0  0  0  0  0  0  0  0  0
    6.5368    5.1951  -19.8877 H   0  0  0  0  0  0  0  0  0  0  0  0
    8.2835    4.9653  -20.2380 H   0  0  0  0  0  0  0  0  0  0  0  0
    6.1071    3.0583  -23.2651 H   0  0  0  0  0  0  0  0  0  0  0  0
    4.3898    3.3170  -22.8061 H   0  0  0  0  0  0  0  0  0  0  0  0
    7.1781    1.5258  -19.1515 H   0  0  0  0  0  0  0  0  0  0  0  0
    8.2461    2.9078  -18.7315 H   0  0  0  0  0  0  0  0  0  0  0  0
    8.3239    7.0016  -21.7939 H   0  0  0  0  0  0  0  0  0  0  0  0
    7.8525    2.7488  -21.1530 H   0  0  0  0  0  0  0  0  0  0  0  0
    7.7488    4.6783  -22.6602 H   0  0  0  0  0  0  0  0  0  0  0  0
    3.6819    3.4213  -20.7572 H   0  0  0  0  0  0  0  0  0  0  0  0
    3.3270    3.9404  -17.3894 H   0  0  0  0  0  0  0  0  0  0  0  0
    2.5277    3.8727  -18.9245 H   0  0  0  0  0  0  0  0  0  0  0  0
  1  5  1  0  0  0  0
  1 18  3  0  0  0  0
  2  3  1  0  0  0  0
  2  5  2  0  0  0  0
  3  7  2  0  0  0  0
  4  5  1  0  0  0  0
  4  6  2  0  0  0  0
  6  7  1  0  0  0  0
  6 17  1  0  0  0  0
  7 22  1  0  0  0  0
  8 19  2  0  0  0  0
  8 20  1  0  0  0  0
  8 23  1  0  0  0  0
  9 10  1  0  0  0  0
  9 14  1  0  0  0  0
 10 14  1  0  0  0  0
 11 15  1  0  0  0  0
 11 16  1  0  0  0  0
 12 17  1  0  0  0  0
 12 21  1  0  0  0  0
 13 15  1  0  0  0  0
 13 23  1  0  0  0  0
 14 16  1  0  0  0  0
 15 17  1  0  0  0  0
 16 21  1  0  0  0  0
 17 19  1  0  0  0  0
  2 24  1  0  0  0  0
  3 25  1  0  0  0  0
  4 26  1  0  0  0  0
  9 27  1  0  0  0  0
  9 28  1  0  0  0  0
 10 29  1  0  0  0  0
 10 30  1  0  0  0  0
 11 31  1  0  0  0  0
 11 32  1  0  0  0  0
 12 33  1  0  0  0  0
 12 34  1  0  0  0  0
 13 35  1  0  0  0  0
 13 36  1  0  0  0  0
 14 37  1  0  0  0  0
 15 38  1  0  0  0  0
 16 39  1  0  0  0  0
 19 40  1  0  0  0  0
 20 41  1  0  0  0  0
 20 42  1  0  0  0  0
M  CHG  1  19   1
M  END
> <OMEGA_C>
H0hzQHAB3r8NLqHBEEa1QFIwx79+463BmxPTQPbwRL/kcbPBINyXQOGb4z5AiaXBw9WXQEQtcr8Y
7abB1KK1QFyqoD+DD6vBNq3TQIghID9lErLBM5mRQAlXWkAM15fB1CrSQChh8UDYibjB2Q3GQN1C
9EBVmazBUGToQO3DlkBrd6TB6+itQGzBXkCsB7TBDBHoQJrVJ0D/2ZjBoofpQFb91UAMSLDBhj7i
QL5TTECnKKTBuS7hQPMIpkAJ9a/B+Su2QOmNMUDqHanB0IxBQFyjF8B4cZzBuV6RQPDiTkAgR6LB
CeNWQDqecUBnAJPB9LC1QOU/nEDrErPB4rjxQI6LqT+VibfBWGi/QAZYUEABq4/BBPS0QOwtKMBj
9a7BearpQINwnr+RzbjBsfCAQBOtZj8XM6DByxK8QDZY4kAPRL7Bcs7iQJ0XBkHjcLzBEQ3OQJWO
CEG2+KfBaVGnQCZG50Diy6nBIS3RQCo+pkD9GZ/BPIkEQYPjnkB256HBIm3DQCK7Q0DVHrrBDHmM
QHZJVEDicrbBQrPlQE5Owz9VNpnB1u8DQf8YOkAb2pXBzS4FQQ0N4EDiWa7Bw0f7QLPrL0BZOanB
xPX3QJe0lUAPSLXBW6RrQKn2WkDADqbBQu1UQL0ufEB5HYvBhsUhQKfad0BdZZfBJH3/QELZy78R
h7DBy8uxQJk5xr99bq3B6RCMQB4uVL/oYKvBB33aQM1VBz9f+KzBpwHZQMkuXr89Ta7BAga1QDd3
oj/5ZKrB9jiNQIuJET9A/KnBM/eRQEwWV0AW0JfB6r8EQRGy80A2krDBHELrQPsf80AFS7rBygHm
QCBFm0CjMqTBu4yyQFCKXEA9QrTB91rqQAepLUAyzpjBQk/eQFWu3EAp5K/B4BbjQFl8U0CJE6TB
nQjeQBCUq0A3sq/BmpG3QCz8M0Aj+6jB+3IPQUyTC8CgUbLB5VaTQE5/VUCZVaLBtqVWQJiAa0Dy
/5LBCE+1QENinEBtoLPBe+pOQNUYmj+3aajBIOm+QOOOR0BqdI/BD66wQGPQJ8DHVq7Bm8tbQJAG
rb8l3arB7ZL4QIP6hT+C663BJq8TQe8U4UAZu7DBelcHQZHLCEEXHKzBCdHaQENOCEGkyLzBYYDz
QFIa4EClZ8HBHLXNQBa1qEAXyp7BawMDQSpIpUCviKHBNiHMQA+NRED7gbnBmD2TQGyESkAUl7fB
P8XsQE5Izz/wfZnBJz4EQYFkR0BulpXBFmvFQHuc7EBJHKvBCcb8QAgcO0DrQ6nBRfv3QNnWn0Ar
3rTBcORzQFK4bEALPqbBlBRTQLD/cEC1CovBmnciQF+7dEBofJfBFjr/QK6vzL+tfLDBR4mxQH7V
xr8hVa3BfNeLQHjJVL/cR6vBkzvaQHztBT9HCK3Bw73YQJe5X7+bRq7BENa0QBoOoj+Ib6rBeAmN
QKMnET9m8qnBZA6SQCWZV0A53ZfB37O+QACu9kAFVqnBZw3vQExW+UDDJqfBunLmQE2GmkCoOKTB
wsWyQJV0XEBOTLTBF0HqQManLEB53pjB5gLeQJ403UCRV7DBgh7jQPZrUkDmJaTBgmreQP25q0Dl
tK/BCYe3QKi3M0D+CKnByVUPQTDtC8ChQ7LB+F6TQLSnVUAXY6LBKvZWQIJobECBC5PBiZu1QBBS
nEDNnbPBA6ZOQIsvmj+qWqjBfAi/QNcESEC3g4/BH2SwQNwpKMC9Lq7BsFZbQDE1rb+fuKrBskj4
QP4yhT8XEa7B4KWpQBvU5UAtrqPBs7StQGs4CUFpr6zBR1MAQSJ7C0H68qjBu5f8QIlZ6kC+8Z/B
pGHOQF37p0BWwJ7BeU4DQW8epEAckqHBqG/MQLeAREAshrnBvYOTQF+hSkAFrbfBpzDsQOIezT9d
h5nBcUoEQa6mRUAhrZXBrx7jQIRV6kAWaLjB1rX8QJekOUAEVqnBTDb4QPDcn0Bw6LTB2fhzQALk
bEAYTKbBYYRTQFYmckC+FovB2sAiQJKtdUBThpfB

> <OMEGA_E>
iBm1PjiW5T5YIfI+

> <OMEGA_NBR>
     55858

$$$$
303938
  -OEChem-04172616093D

 38 40  0     1  0  0  0  0  0999 V2000
    3.6790   -1.6760  -20.1578 C   0  0  0  0  0  0  0  0  0  0  0  0
    5.5776   -1.5618  -21.7088 C   0  0  0  0  0  0  0  0  0  0  0  0
    6.5638   -0.8105  -22.3665 C   0  0  0  0  0  0  0  0  0  0  0  0
    4.7118    0.4728  -20.6846 C   0  0  0  0  0  0  0  0  0  0  0  0
    4.6590   -0.9180  -20.8626 C   0  0  0  0  0  0  0  0  0  0  0  0
    5.6970    1.2516  -21.3424 C   0  0  0  0  0  0  0  0  0  0  0  0
    6.6372    0.5830  -22.1855 C   0  0  0  0  0  0  0  0  0  0  0  0
    4.5635    3.4022  -18.9925 C   0  0  0  0  0  0  0  0  0  0  0  0
    7.2356    4.7838  -20.5377 C   0  0  0  0  0  0  0  0  0  0  0  0
    5.5191    3.4678  -22.5148 C   0  0  0  0  0  0  0  0  0  0  0  0
    7.2878    2.6610  -19.1048 C   0  0  0  0  0  0  0  0  0  0  0  0
    7.0987    3.2433  -20.5156 C   0  0  1  0  0  0  0  0  0  0  0  0
    6.9652    5.3065  -21.9622 C   0  0  2  0  0  0  0  0  0  0  0  0
    5.7364    2.7843  -21.1343 C   0  0  2  0  0  0  0  0  0  0  0  0
    7.0330    6.8357  -21.9800 C   0  0  0  0  0  0  0  0  0  0  0  0
    2.8810   -2.2897  -19.5709 N   0  0  0  0  0  0  0  0  0  0  0  0
    4.5795    3.2615  -20.3018 N   0  3  0  0  0  0  0  0  0  0  0  0
    3.3583    3.7386  -18.3972 N   0  0  0  0  0  0  0  0  0  0  0  0
    5.6520    4.8926  -22.3916 O   0  0  0  0  0  0  0  0  0  0  0  0
    7.6203    1.2461  -22.8387 F   0  0  0  0  0  0  0  0  0  0  0  0
    5.9832    3.2311  -17.9544 S   0  0  0  0  0  0  0  0  0  0  0  0
    5.5250   -2.6309  -21.8525 H   0  0  0  0  0  0  0  0  0  0  0  0
    7.2710   -1.3052  -23.0159 H   0  0  0  0  0  0  0  0  0  0  0  0
    3.9935    0.9558  -20.0387 H   0  0  0  0  0  0  0  0  0  0  0  0
    6.5080    5.2260  -19.8412 H   0  0  0  0  0  0  0  0  0  0  0  0
    8.2539    5.0652  -20.2316 H   0  0  0  0  0  0  0  0  0  0  0  0
    6.2690    3.0935  -23.2271 H   0  0  0  0  0  0  0  0  0  0  0  0
    4.5110    3.2278  -22.8839 H   0  0  0  0  0  0  0  0  0  0  0  0
    7.2546    1.5632  -19.1651 H   0  0  0  0  0  0  0  0  0  0  0  0
    8.2675    2.9775  -18.7173 H   0  0  0  0  0  0  0  0  0  0  0  0
    7.8976    2.8339  -21.1513 H   0  0  0  0  0  0  0  0  0  0  0  0
    7.7322    4.9051  -22.6409 H   0  0  0  0  0  0  0  0  0  0  0  0
    6.8390    7.2000  -22.9997 H   0  0  0  0  0  0  0  0  0  0  0  0
    6.2758    7.2442  -21.2946 H   0  0  0  0  0  0  0  0  0  0  0  0
    8.0330    7.1620  -21.6583 H   0  0  0  0  0  0  0  0  0  0  0  0
    3.7390    3.4954  -20.7904 H   0  0  0  0  0  0  0  0  0  0  0  0
    3.3107    3.8769  -17.4080 H   0  0  0  0  0  0  0  0  0  0  0  0
    2.5362    3.8430  -18.9568 H   0  0  0  0  0  0  0  0  0  0  0  0
  1  5  1  0  0  0  0
  1 16  3  0  0  0  0
  2  3  2  0  0  0  0
  2  5  1  0  0  0  0
  3  7  1  0  0  0  0
  4  5  2  0  0  0  0
  4  6  1  0  0  0  0
  6  7  2  0  0  0  0
  6 14  1  0  0  0  0
  7 20  1  0  0  0  0
  8 17  2  0  0  0  0
  8 18  1  0  0  0  0
  8 21  1  0  0  0  0
  9 12  1  0  0  0  0
  9 13  1  0  0  0  0
 10 14  1  0  0  0  0
 10 19  1  0  0  0  0
 11 12  1  0  0  0  0
 11 21  1  0  0  0  0
 12 14  1  0  0  0  0
 13 15  1  0  0  0  0
 13 19  1  0  0  0  0
 14 17  1  0  0  0  0
  2 22  1  0  0  0  0
  3 23  1  0  0  0  0
  4 24  1  0  0  0  0
  9 25  1  0  0  0  0
  9 26  1  0  0  0  0
 10 27  1  0  0  0  0
 10 28  1  0  0  0  0
 11 29  1  0  0  0  0
 11 30  1  0  0  0  0
 12 31  1  0  0  0  0
 13 32  1  0  0  0  0
 15 33  1  0  0  0  0
 15 34  1  0  0  0  0
 15 35  1  0  0  0  0
 17 36  1  0  0  0  0
 18 37  1  0  0  0  0
 18 38  1  0  0  0  0
M  CHG  1  17   1
M  END
> <OMEGA_C>
BXVrQJeH1r8zQ6HB/XuyQPDpx7+vq63BkArSQLZ/T7+r7rLBKceWQPIU8j4CeqXBHxaVQF4Ca7+i
5qbB0U22QBI0oD9JvarBG2TUQJY/FT//e7HBMwiSQDS9WUCw8JfBwYnnQMoUmUA1TaTBF5ywQKPv
XUA8HrTBxzXpQIxOKkCT1pjBPyjjQJ+RT0AGIKTBq+LeQIfOqUCRsq/BRpC3QCMyMkAAE6nBTA7h
QBC+2kAa16/BKWI4QHCKEsBOkZzBjYuSQBm9UEAiaqLB8+5WQKBEb0B4LZPBMd20QBOQnEDqIbPB
f9nzQNKAnz++tbbBmna/QCDLTkChoo/ByMywQB1hKMAB0q7B46voQOgPp797ILjB0ZR/QIutdD9P
T6DBXUHQQFw7p0DXup7BLRAEQXwWokBi2qHB/ZvIQLz7RUAi0bnB71mQQA+VTkAjErfBYyXoQA8X
yD8mUpnBlUcEQcSOPkADvZXBY7n8QNRdNUDPNanBym33QJX2nECRILXB/tjaQEZm5kBR/7fBktPI
QH/Q50BUW6rBJYcAQUwv5UAuRK3BKktvQF20X0DXUqbBFuNTQE0feECCQ4vBvFAiQHzzdUCJp5fB

> <OMEGA_E>
QNy2Pg==

> <OMEGA_NBR>
     56806

$$$$
417115
  -OEChem-04172616093D

 45 48  0     1  0  0  0  0  0999 V2000
    4.7771    0.3999  -20.6614 C   0  0  0  0  0  0  0  0  0  0  0  0
    4.8349   -0.9935  -20.8123 C   0  0  0  0  0  0  0  0  0  0  0  0
    6.5996   -0.7511  -22.4717 C   0  0  0  0  0  0  0  0  0  0  0  0
    5.6371    1.2425  -21.4111 C   0  0  0  0  0  0  0  0  0  0  0  0
    5.7473   -1.5675  -21.7129 C   0  0  0  0  0  0  0  0  0  0  0  0
    6.5588    0.6436  -22.3260 C   0  0  0  0  0  0  0  0  0  0  0  0
    4.5433    3.4231  -18.9777 C   0  0  0  0  0  0  0  0  0  0  0  0
    5.5341    7.8265  -22.7589 C   0  0  0  0  0  0  0  0  0  0  0  0
    6.8554    7.2871  -23.3134 C   0  0  0  0  0  0  0  0  0  0  0  0
    7.2920    4.6412  -20.5743 C   0  0  0  0  0  0  0  0  0  0  0  0
    5.6732    7.7162  -21.2285 C   0  0  0  0  0  0  0  0  0  0  0  0
    5.3651    3.5032  -22.4895 C   0  0  0  0  0  0  0  0  0  0  0  0
    7.2273    2.5869  -19.1164 C   0  0  0  0  0  0  0  0  0  0  0  0
    7.0471    3.1401  -20.5341 C   0  0  1  0  0  0  0  0  0  0  0  0
    7.4930    6.5990  -22.1130 C   0  0  2  0  0  0  0  0  0  0  0  0
    7.0649    5.1228  -22.0066 C   0  0  2  0  0  0  0  0  0  0  0  0
    5.6509    2.7569  -21.1473 C   0  0  2  0  0  0  0  0  0  0  0  0
    4.5094    3.1906  -20.2727 N   0  3  0  0  0  0  0  0  0  0  0  0
    3.3664    3.8280  -18.3704 N   0  0  0  0  0  0  0  0  0  0  0  0
    7.0521    7.3784  -20.9811 O   0  0  0  0  0  0  0  0  0  0  0  0
    5.6786    4.8914  -22.3567 O   0  0  0  0  0  0  0  0  0  0  0  0
    5.8199   -2.9094  -21.8367 F   0  0  0  0  0  0  0  0  0  0  0  0
    7.4471    1.3706  -23.0483 F   0  0  0  0  0  0  0  0  0  0  0  0
    5.9850    3.2740  -17.9706 S   0  0  0  0  0  0  0  0  0  0  0  0
    4.0719    0.8347  -19.9685 H   0  0  0  0  0  0  0  0  0  0  0  0
    4.1768   -1.6260  -20.2351 H   0  0  0  0  0  0  0  0  0  0  0  0
    7.2903   -1.1985  -23.1712 H   0  0  0  0  0  0  0  0  0  0  0  0
    5.3870    8.8743  -23.0598 H   0  0  0  0  0  0  0  0  0  0  0  0
    4.6883    7.2203  -23.1156 H   0  0  0  0  0  0  0  0  0  0  0  0
    6.6759    6.5697  -24.1278 H   0  0  0  0  0  0  0  0  0  0  0  0
    7.4912    8.1064  -23.6800 H   0  0  0  0  0  0  0  0  0  0  0  0
    6.5933    5.1510  -19.8946 H   0  0  0  0  0  0  0  0  0  0  0  0
    8.3259    4.8584  -20.2678 H   0  0  0  0  0  0  0  0  0  0  0  0
    5.4224    8.6751  -20.7514 H   0  0  0  0  0  0  0  0  0  0  0  0
    5.0106    6.9289  -20.8398 H   0  0  0  0  0  0  0  0  0  0  0  0
    5.9827    3.0656  -23.2877 H   0  0  0  0  0  0  0  0  0  0  0  0
    4.3014    3.3936  -22.7473 H   0  0  0  0  0  0  0  0  0  0  0  0
    7.1226    1.4923  -19.1434 H   0  0  0  0  0  0  0  0  0  0  0  0
    8.2322    2.8503  -18.7546 H   0  0  0  0  0  0  0  0  0  0  0  0
    7.8118    2.6666  -21.1673 H   0  0  0  0  0  0  0  0  0  0  0  0
    8.5878    6.6480  -22.2072 H   0  0  0  0  0  0  0  0  0  0  0  0
    7.7102    4.5323  -22.6736 H   0  0  0  0  0  0  0  0  0  0  0  0
    3.6261    3.3167  -20.7242 H   0  0  0  0  0  0  0  0  0  0  0  0
    3.3519    4.0257  -17.3902 H   0  0  0  0  0  0  0  0  0  0  0  0
    2.5312    3.9227  -18.9120 H   0  0  0  0  0  0  0  0  0  0  0  0
  1  2  1  0  0  0  0
  1  4  2  0  0  0  0
  2  5  2  0  0  0  0
  3  5  1  0  0  0  0
  3  6  2  0  0  0  0
  4  6  1  0  0  0  0
  4 17  1  0  0  0  0
  5 22  1  0  0  0  0
  6 23  1  0  0  0  0
  7 18  2  0  0  0  0
  7 19  1  0  0  0  0
  7 24  1  0  0  0  0
  8  9  1  0  0  0  0
  8 11  1  0  0  0  0
  9 15  1  0  0  0  0
 10 14  1  0  0  0  0
 10 16  1  0  0  0  0
 11 20  1  0  0  0  0
 12 17  1  0  0  0  0
 12 21  1  0  0  0  0
 13 14  1  0  0  0  0
 13 24  1  0  0  0  0
 14 17  1  0  0  0  0
 15 16  1  0  0  0  0
 15 20  1  0  0  0  0
 16 21  1  0  0  0  0
 17 18  1  0  0  0  0
  1 25  1  0  0  0  0
  2 26  1  0  0  0  0
  3 27  1  0  0  0  0
  8 28  1  0  0  0  0
  8 29  1  0  0  0  0
  9 30  1  0  0  0  0
  9 31  1  0  0  0  0
 10 32  1  0  0  0  0
 10 33  1  0  0  0  0
 11 34  1  0  0  0  0
 11 35  1  0  0  0  0
 12 36  1  0  0  0  0
 12 37  1  0  0  0  0
 13 38  1  0  0  0  0
 13 39  1  0  0  0  0
 14 40  1  0  0  0  0
 15 41  1  0  0  0  0
 16 42  1  0  0  0  0
 18 43  1  0  0  0  0
 19 44  1  0  0  0  0
 19 45  1  0  0  0  0
M  CHG  1  18   1
M  END
> <OMEGA_C>
LN6YQKq/zD51SqXByreaQJFWfr+hf6bB7C/TQGNKQL8LxrPBemO0QPwKnz8DSqvBwum3QFmlyL8b
tK3BmOHRQKfDJD+Pm7LBmGKRQJQUW0Bs0pfBkhexQLZy+kBRErbBVl/bQKwv6UDOgbrBCFjpQASF
lEAqmKTBfIq1QCPr9kAI1KnB/q6rQL00YECN6rPBYEbnQHmQJUBr7pjBkoHhQJn2SEDQRaTBgMbv
QNwq00BX57DBXhPiQN7to0B3DbDB7tO0QCpxMEC5LanBZk2QQGQzTEB6LqLB6HNXQB/+dECX9pLB
FqvhQCcc7EA32afBcLe1QE2GnECO2rLB4Dy6QNYyOsCMsa7BeE7uQONwrz/pYrjBLIW/QNuIUUCy
w4/BR02CQBavVT96v5/Bk6iFQAAi0L9z4aHB1UnpQCBomb+PXrnBBmKsQPz8DUGPerjBxwaWQAUN
50C07LjBRqHVQCE70kCkBcHBM7jvQN2zAUGLcL3Bb/zSQF/VpEA4KJ/ByDYFQcd3m0BvJKLBeoSt
QCHNCkHMAqbBp1agQFu53UDst6bBonK/QJ8yREAfTbrBxqSJQHQxWUBs+rXBVOzjQM4Cvz+lJZnB
FLcDQeJrNkB7CZbBVPr5QE2pKkCzVqnBxmcJQZ281EBtqLHB+rn2QMAIkUB6Y7XBvBJoQJ1EVEA5
y6XB7YVWQDPSgEA2H4vBmP4hQAUOe0DHS5fBMvzSQG/iNT+DGrLBBWLWQEjhKr+E1LPBK6yaQKLR
hL/wsafBDpyzQFOAnz90EavBoWq6QFxxxb9OkK7BVtGWQFJHsT4O7KXBbViRQNrPXEBjupfBiZyv
QO8S+EAktLfBf+7cQPpd6UAngLrBLcDoQIq+lEBPcKTBrDytQN+o9UCaZqvBgI6tQNeoXUAbBbTB
9ybnQEgkJUBm7pjBVzThQJwnSUB/O6TBpdfsQPOi1EBzOrDB08rhQJStpEA626/BSF+0QM0AMUBS
AqnB04GQQKPsUUBrLaLBNOVWQFKFc0Dau5LBQRbYQMdv7EBPyafBrju2QLOOm0CSHLPBs+69QBDb
N8ChJbDBPKBuQOATQj9nRp/BNHq/QCzNUEDZrY/BIZvoQEKusD8+MbbBaHTuQNINh7/LMrnB1waF
QGQL3L9WvaPByjeqQDSHDEFid7rBibeXQALA4kAGW7vBlGncQIIZ0kBIGsHB8SzxQNdgAkEkubzB
xR3SQA6ypEB1AZ/B69oEQY/Jm0B35qHBSTuiQH8vCkGeGKjBfDiXQOoM3EB166jBck7DQINCQUB+
9bnBOzyMQG1zVEDBnLbB6sTjQJszvj9lM5nB+K0DQUDMNUD9DZbBm4v5QNhTK0CQYanBSeMHQfVp
2ECrs6/BUx34QLWak0C7J7XBUItqQEwbYUCg7KXBk5NVQJSUfEDq0IrB7HwhQIfbekCoC5fBpwyY
QJEExj4vOKbBeb+WQC57fr/WC6jBnhjVQMi2Ub8LprPB3vC3QEtUmD/HHKvBjTK1QLBDzL9qv67B
lsPWQGz4ED9D57HBEHKSQDT5WUBVRpjBUNoCQeuX+UDToLXBMKD3QFnN80AmDqrB1qzmQCrWlUD7
P6PBhtjbQH9B9UB9HbzBeqGyQB1AWkDb8LPBcOnoQJA0IkAbqZjBYoPjQHLdSUAn1KPB0F3OQFKE
2kDsTKvB2HTXQCIrq0C7sK3BzZS4QHXWLEABFanBQa6SQG4iSUCGk6LBKMlbQE/3fkABCpTBnCa6
QNj67UAGZLTBKlSwQK6smUAP5bHBlM+zQAlNO8D/ebDB6kb2QIWHoT+K2rbBdZu9QD7nQkDfjI/B
/5KAQHsdWD+NCqHB0Zd8QHRVzL+0S6TBBHPsQPojpb+byLjBOBMKQamqDEGY07bBmmQOQQCu4EAY
8bfBicQHQSi74UCncKXBL8vxQMRqCUF0KqbBV6vSQPdMoUDMmZzBixoEQZrSnkB1y6HBnpzVQHdk
CUH0pMDBgg7eQBcU2kAursHBAvbNQFBRTEDENLnBz+eUQElRREBYxrfBHrDoQHEeuD/QZ5nBM9sD
QR8TN0DvSpXBkM/9QACRMkDZ5qjBrpm6QHp43UBzDqTBoiTxQEUFqUDkrrPBIdhtQBrNT0Dad6bB
kJhYQPkFhkDWN4zBlTQqQEZLhkB2zZjB6qbXQD+6Ij8WUrHBLLLYQA/SPL+yfLPBpvqXQF8ghb93
7KjB0Nu2QMIimT+l3arBrvC4QCiiyb97P6/B6naWQK3Wqz5qtqbBji6SQIbOWkABHpjBivwDQZ6w
+kCxArTBUnr1QGzt80AR46jBqsDmQB+HlUBvSqPBvqrgQOBx90DQdrvB6MezQGpqWEB39rPBmsfo
QHH3IUAxpZjByh3jQDFcSUDa0KPB9FzNQJUJ2kA7RavBKuLXQKsIq0BJxa3B1sy3QL18LUCW5qjB
1smSQHjNTkCThqLB1UpaQFxOfEB/spPBBFC8QEsx7kBdqbTB7IKxQHASmUDiTLLBavm5QKKWOcBd
RrHBafJqQD6kRj9GpqDBPFy9QC1yQUCueI/BMSTwQLaGoz9Dm7TByNvxQLA9k79lZ7jBoyd/QGam
2L+Fu6XBG4sLQc4vDUEnqbTBQM0PQbDA4UBW7bXByd0FQbXx4UDkwqPBfo7tQElMCUFuDKXBsMjS
QPlGoUBxqpzB/C0EQbMsnkCK0KHB27nbQJDwCkGdtb/BDEDlQNiO3UDiUMHBzd/PQPLOSECY5LjB
sJqWQN32QUDmAbjBzP/oQPOjtz+8Y5nBAr0DQdKgN0DmS5XBqwX9QOVSMUDo9ajBcea2QHPp20Du
gqTBAyzyQCniqUCenbPBYzRwQDI7XUAojqbBimVWQJfWgkBozIvBuLYoQFePhUC4Z5jBhNOYQLB5
xT5hGqbBhzeYQEZqer/qsKjBw9DVQDDtLL99YrTBANe3QA7onj/KtKrBHYq2QJmfwL922K/Bpc7W
QOR3MD/j57HBV1GRQD/dXEBKYZfBPircQKfSCEEiNKnBRsPDQGgr7kDQlq7B4F3nQEIfl0BmuaTB
gG4CQeYy+0B4nqXBArGrQN1vWUAnh7PBohLoQAB2LkDNCJjBHPrhQNPYTUBXk6PBd5bnQJ5F0UAA
ILPBI/DfQJRVokBhpbDBnkS2QHSbL0CAfKjB3fCQQIO5SUABoqHB01dWQCtVd0ACz5LBRsIHQTo4
30DkYK7BLlu0QLQBmUBCXLPB7Ju1QA4eNMB3aLLB+CD1QKqMuD891bbBAfi+QFsoWECIII/B6ImB
QMvtSD9Bk6DB8GOAQEIW0L/FLaXBejXtQIiXi78Mz7nBXUjjQI7bFUGy167B61bKQF08D0GBU6LB
P+avQMqf3EA3zKjBCmCvQGi4+kBKCrXBws7PQLLXp0BRsp/Boe4DQTKUoEB/TqLB/VAPQR5CCUGk
OKTB8S7/QCW26EAtRJ7B2lG/QG4FO0Dww7nBbZqJQPaAT0BJVrXBsqnmQNs90D+88pfBissDQayl
Q0BhJZXBCEr7QHbCL0DDZajBUdDoQCWE1UD92rvBrLf1QNbUjkAQjLXBzw1pQCTsTEBzSqXB7VRU
QG+Dg0CVDovBY0YhQFy/ekCMQpfBCyjYQKTcPD8wFLHBDzfZQKxZG7/jE7TBYnSYQCBSgL87uanB
IwO3QJxlnz9Qa6rBSUi5QF/1vL9vbLDBddWWQBzQsz6CuKbBaCGRQCOaXEBbY5fBx8TiQHHfAEGp
9qPBDY/GQPYS70A4lqzB/5fmQEjPl0CtkKTBDPAGQQIcAkGOmanBuMOtQLmnV0AbqrPB/2roQCE9
LUBNJ5jBY/DhQIeDTkBLnKPBuYPlQPZb0kBL/bLBwW3fQFhOo0BJgLDBfgi2QOlpMEDSZKjBfU+R
QM0XUED0yqHBfuNVQEkAdkCuvZLBrk4IQTL93UB79K/BD5W0QPCEmEBwebPBpwy6QNxkMcAjaLPB
8J9rQGgSPz/veKDBuzy+QBOSUECDBY/BvPPwQEPHsz++3bPBj4DyQDhPeb/TLrnBGkKAQMK717+x
26bBUZjXQJzTEEFGg6HBRzvkQDmq7ED47JzBsmesQIkc3EB/F6nBchW5QK01BEEgrrHB8IrOQC3i
p0AgjZ/BJGkDQfi0oUDYCKLBFbUHQc1jEEGkuq7BJAQUQWWgAkF4t6PBxLzDQPpGOkD6ebnB2oOM
QN6oSkCaDbbBybPoQBu2zT8qVZjBLK4DQQ25REATKJXBtyH7QOOfMUBulajBJ4TgQF/U10Ccl7vB
AjX2QAivkED9VLXBhkhsQJAQXUA7sqXBEwtTQMF3gEDZ3YrBFpohQOBmfUC0QpfBAyDGQJoyID/7
QLTBf07EQIIHQ780+7XBI3GkQFRwiL+Hc6TBeJe1QNjNmj/ftKrBLEmzQOejzb9uGK7BSoulQFWg
oz7SrKLBpRKSQMrNXEDoDJjBhuDEQEGXDUG8G6fBwl61QBN28EAeOKvBVeDnQKZ3mEDKRKTBjL/w
QLDjB0G8hqLBJ9KxQMgxXkDcJrTBEZbpQNQLKkAtzpjBUhrjQGmoTUCIMaTBSNDeQER63EAHqq/B
8FXeQD72qkDFiK/BGVS3QIuIMECaEanBmBaSQO8bT0BYeqLBC/lWQG2jcUBUP5PB6ckAQWSq7UCM
MqnB1Km0QJeXnEDGBLPBMLexQHBDPMB7sa/BTi2XQLjHPD/6E5nBG0i/QH40TkD2mo/BaU/UQE56
oT9VRbrBxQjQQDDclr+rZL3B3QeYQHlL3L+5Up7B5KHHQBlWGUEwoK3BuH2vQBXmE0Hp3qDBa+an
QKfo3ED7uKTB5ESdQESF9EBbjbHBPEvRQOVYpkB/ep7BsWQEQRPtoEDU+KHBwQgDQfvhFUH4zaLB
R5DtQLBiAkGnNJrB0yLLQPswSEDcnLnB8leSQLuaTUAYgLfBOjzpQJVnxz9AJZnBS14EQY73P0Ad
wpXB95r8QDhEM0CVSKnBb73iQEUS50Ci/7fBxgX3QGVYn0AuGLXB61htQEElWkDuXabB6ZBTQOrz
d0A9TIvB/7AiQLVbekAmu5fBSj+PQMD6Lz8UvK3B3MaKQIaXMr/FZa/B+nnVQHGvgr83sqrBuvm2
QK6znz/hdarBss+tQPjIxr9hta3BAL3aQGBwuT6HVqnBAj6SQCjfV0D11JfBJlnFQKREDkHq7afB
QN20QHk18kAaGqzBTEjlQI9ynEBhSaTBNmrxQGEsCEEkoaPBVnezQJZZW0DlL7TB3PfqQFl1NkBy
NJjBeqnjQDtQVkD12KPBXrrdQH1V3UC3q7DBYLXdQAP9q0Ac56/Beie5QHWCMkCf3qjBPkWTQJTq
TUCNT6LBNwZXQOhDbUCyKJPBJM0AQXWN70DkwqrBBDO1QKS4m0B7rrPBrrypQMC9OMBdHq/BO34B
QTACRj9LPKfB8hm/QPKHUUC2SY/B6xhoQMr4qj9H967BnuBYQHIojb9Z+LHB703wQHlY17+NZ6nB
E9rHQEcrGkHdYa7BH6+wQFaMFEHfiKHBZyanQI3E3kDLnaXBMq6cQJf79kBEYrLB+EjMQPCwqUDF
DJ/BOW0CQf15p0BQiqHBVGMDQXUpFkE+qqPBB7juQJjnAUEqb5vBVDDNQM5NREBhdbnBBUqUQGXj
R0AWeLfB/JzuQPbj4D8dV5jBUzsEQTzQU0AoG5XBbEv+QMj+PUCqu6jBpmjgQEY+5kBmKLnBKMD3
QJibn0Aq87TBjkRwQKfLWUAuSKbBVddTQOhJeEDgSYvB7EUiQLGwcUCwp5fB

> <OMEGA_E>
gHnbPqBb6j4cces+OP71Pswq9z721gI/6DILP6r4Fj8=

> <OMEGA_NBR>
     63416

$$$$
417116
  -OEChem-04172616093D

 41 44  0     1  0  0  0  0  0999 V2000
    4.7177    0.4595  -20.6573 C   0  0  0  0  0  0  0  0  0  0  0  0
    4.7119   -0.9356  -20.8103 C   0  0  0  0  0  0  0  0  0  0  0  0
    6.5590   -0.7791  -22.3868 C   0  0  0  0  0  0  0  0  0  0  0  0
    5.6485    1.2618  -21.3687 C   0  0  0  0  0  0  0  0  0  0  0  0
    5.6299   -1.5534  -21.6750 C   0  0  0  0  0  0  0  0  0  0  0  0
    6.5793    0.6171  -22.2406 C   0  0  0  0  0  0  0  0  0  0  0  0
    4.5535    3.4093  -18.9856 C   0  0  0  0  0  0  0  0  0  0  0  0
    6.6396    7.5652  -23.0798 C   0  0  0  0  0  0  0  0  0  0  0  0
    6.1885    7.6589  -21.6078 C   0  0  0  0  0  0  0  0  0  0  0  0
    7.2670    4.7177  -20.5584 C   0  0  0  0  0  0  0  0  0  0  0  0
    5.4454    3.4967  -22.5130 C   0  0  0  0  0  0  0  0  0  0  0  0
    7.2576    2.6231  -19.1211 C   0  0  0  0  0  0  0  0  0  0  0  0
    7.3142    6.7075  -22.0135 C   0  0  0  0  0  0  0  0  0  0  0  0
    7.0704    3.1981  -20.5310 C   0  0  1  0  0  0  0  0  0  0  0  0
    7.0490    5.2075  -21.9905 C   0  0  2  0  0  0  0  0  0  0  0  0
    5.6882    2.7870  -21.1457 C   0  0  2  0  0  0  0  0  0  0  0  0
    4.5475    3.2617  -20.2937 N   0  3  0  0  0  0  0  0  0  0  0  0
    3.3570    3.7445  -18.3744 N   0  0  0  0  0  0  0  0  0  0  0  0
    5.6922    4.9021  -22.3928 O   0  0  0  0  0  0  0  0  0  0  0  0
    5.6223   -2.8953  -21.8209 F   0  0  0  0  0  0  0  0  0  0  0  0
    7.5156    1.3024  -22.9408 F   0  0  0  0  0  0  0  0  0  0  0  0
    5.9896    3.2541  -17.9687 S   0  0  0  0  0  0  0  0  0  0  0  0
    4.0072    0.9274  -19.9920 H   0  0  0  0  0  0  0  0  0  0  0  0
    4.0003   -1.5351  -20.2620 H   0  0  0  0  0  0  0  0  0  0  0  0
    7.2622   -1.2598  -23.0507 H   0  0  0  0  0  0  0  0  0  0  0  0
    5.9830    7.0976  -23.8283 H   0  0  0  0  0  0  0  0  0  0  0  0
    7.1867    8.3999  -23.5423 H   0  0  0  0  0  0  0  0  0  0  0  0
    6.4139    8.5600  -21.0185 H   0  0  0  0  0  0  0  0  0  0  0  0
    5.2102    7.2577  -21.3045 H   0  0  0  0  0  0  0  0  0  0  0  0
    6.5403    5.1983  -19.8869 H   0  0  0  0  0  0  0  0  0  0  0  0
    8.2877    4.9661  -20.2323 H   0  0  0  0  0  0  0  0  0  0  0  0
    6.1235    3.0723  -23.2680 H   0  0  0  0  0  0  0  0  0  0  0  0
    4.4028    3.3366  -22.8252 H   0  0  0  0  0  0  0  0  0  0  0  0
    7.1832    1.5266  -19.1692 H   0  0  0  0  0  0  0  0  0  0  0  0
    8.2528    2.9070  -18.7482 H   0  0  0  0  0  0  0  0  0  0  0  0
    8.3285    7.0181  -21.7224 H   0  0  0  0  0  0  0  0  0  0  0  0
    7.8489    2.7560  -21.1702 H   0  0  0  0  0  0  0  0  0  0  0  0
    7.7653    4.7037  -22.6562 H   0  0  0  0  0  0  0  0  0  0  0  0
    3.6967    3.4888  -20.7676 H   0  0  0  0  0  0  0  0  0  0  0  0
    3.3244    3.8908  -17.3857 H   0  0  0  0  0  0  0  0  0  0  0  0
    2.5256    3.8402  -18.9218 H   0  0  0  0  0  0  0  0  0  0  0  0
  1  2  1  0  0  0  0
  1  4  2  0  0  0  0
  2  5  2  0  0  0  0
  3  5  1  0  0  0  0
  3  6  2  0  0  0  0
  4  6  1  0  0  0  0
  4 16  1  0  0  0  0
  5 20  1  0  0  0  0
  6 21  1  0  0  0  0
  7 17  2  0  0  0  0
  7 18  1  0  0  0  0
  7 22  1  0  0  0  0
  8  9  1  0  0  0  0
  8 13  1  0  0  0  0
  9 13  1  0  0  0  0
 10 14  1  0  0  0  0
 10 15  1  0  0  0  0
 11 16  1  0  0  0  0
 11 19  1  0  0  0  0
 12 14  1  0  0  0  0
 12 22  1  0  0  0  0
 13 15  1  0  0  0  0
 14 16  1  0  0  0  0
 15 19  1  0  0  0  0
 16 17  1  0  0  0  0
  1 23  1  0  0  0  0
  2 24  1  0  0  0  0
  3 25  1  0  0  0  0
  8 26  1  0  0  0  0
  8 27  1  0  0  0  0
  9 28  1  0  0  0  0
  9 29  1  0  0  0  0
 10 30  1  0  0  0  0
 10 31  1  0  0  0  0
 11 32  1  0  0  0  0
 11 33  1  0  0  0  0
 12 34  1  0  0  0  0
 12 35  1  0  0  0  0
 13 36  1  0  0  0  0
 14 37  1  0  0  0  0
 15 38  1  0  0  0  0
 17 39  1  0  0  0  0
 18 40  1  0  0  0  0
 18 41  1  0  0  0  0
M  CHG  1  17   1
M  END
> <OMEGA_C>
efeWQIFD6z4tQqXBLMiWQBaFb79se6bB/uLRQEJxR78bGLPBZMC0QIODoT8D86rB8Ce0QJvVxr9s
Zq3BrYnSQGD3HT+m7LHBgbaRQOYxWkCO4pfB/HfUQMkV8kB9o7jBCwjGQJcV9UC53KzB34roQCX3
lkCdd6TBY0CuQL7KX0CsGrTBUT7oQEXgJ0Dv95jBnQ3qQOqj1kClG7DBwkDiQBCtTEBpP6TBUpHh
QHmjpkCS7K/BwAW2QABeMkB5KqnBD4WRQCu/UEBsWaLBA9lWQFOlb0DV/pLBMCa2QGPenEBpJLPB
Q+qzQFdNOcA2ka7BpX/wQLmzpj/JhrfBJKu/QBpDUEDbv4/B6DqAQLRpbT+f75/BkgKAQC9+xL+G
GKLB02PoQKRBob/EZ7jBqHS/QOof40BkoL7Bf/nlQBpmBkGnVrzBsj7NQJn1CEHhJajB27mmQOk+
6ECfb6rBEkrRQJhYpkBVGJ/BbZoEQQTqnkCs26HBsfPDQEigREDSJLrB3OOMQE2KVUD3mbbB3tzl
QN9owz+CWpnBYAsEQdgMOkBl/JXBXUEFQUuU4EB9x63BySn7QL1hMEB8XKnBqH34QLyElkDNP7XB
OpdsQE5IX0ANJKbBR8JUQPoCeUD8FYvB4qIhQELFdUDCX5fB0u3TQKSBLz9Rn7HBaEbWQNRdMr9k
V7PBMFmYQKjzgb/t1afBhPWzQH3hnz9e6KrB66W4QCopxr/MY67BnXuVQClBvj7vFqbBLZORQO+z
W0B5yZfBTT/TQFOE8kBMN7jB2TvCQBg89EBLpKzBQ+vnQNBilkCBTKTB8AyvQCScXUBCFbTBYN7n
QBbUJUCZ/ZjBE9TnQC0c10A+iK/BkZjhQDhoS0DbNqTBnuHgQCbSpkA6sK/BuBy1QCmyMUDfAqnB
qD6RQN5AU0CxRKLB7OxWQFvecUD62pLBIgC2QNUCnEATLLPBR/+6QLpiOMBM/6/BUSlqQBBrTj8c
0Z/BE1u/QOFYTUAUpo/B0tfqQFnrqj+xeLXB9dXuQCt7jb9Zd7jB0nyBQMep1r+dGaTB2gDAQC1h
40DYib7BYa/kQLoAB0FYkLvBOozHQOd1CEHQt6fBs92iQIdL5kBPsarBAbvQQKx9pUBX3J7BsE4E
QXQnnkA7rqHBaRrGQE6dQkBH0LnBOUuOQG3uUUBm9LbB85TlQMtZvz9qdJnBH+ADQXv3N0CAB5bB
qLUDQRLa4UDEuqzB8EX6QD5tL0CubKnBuqb4QKsJmEAgBrXBiRFtQJjnZEDkFKbBhcFUQF1OeUAK
6orBEBAiQCdvekBsPJfB

> <OMEGA_E>
oBAzPkAAXT4=

> <OMEGA_NBR>
     65159

$$$$
303932
  -OEChem-04172616093D

 48 50  0     1  0  0  0  0  0999 V2000
    4.6862    0.5204  -20.6844 C   0  0  0  0  0  0  0  0  0  0  0  0
    6.5433   -0.8211  -22.3052 C   0  0  0  0  0  0  0  0  0  0  0  0
    5.6971    1.2708  -21.3301 C   0  0  0  0  0  0  0  0  0  0  0  0
    4.5861   -0.8658  -20.8549 C   0  0  0  0  0  0  0  0  0  0  0  0
    6.6326    0.5767  -22.1532 C   0  0  0  0  0  0  0  0  0  0  0  0
    5.5274   -1.5471  -21.6579 C   0  0  0  0  0  0  0  0  0  0  0  0
    4.5625    3.3724  -18.9944 C   0  0  0  0  0  0  0  0  0  0  0  0
    7.2262    4.8214  -20.5216 C   0  0  0  0  0  0  0  0  0  0  0  0
    5.5564    3.4821  -22.5299 C   0  0  0  0  0  0  0  0  0  0  0  0
    7.3092    2.6671  -19.1058 C   0  0  0  0  0  0  0  0  0  0  0  0
    7.1099    3.2722  -20.5115 C   0  0  1  0  0  0  0  0  0  0  0  0
    6.9676    5.3497  -21.9536 C   0  0  2  0  0  0  0  0  0  0  0  0
    5.7528    2.8064  -21.1394 C   0  0  2  0  0  0  0  0  0  0  0  0
    3.4729   -1.5840  -20.1251 C   0  0  0  0  0  0  0  0  0  0  0  0
    7.0132    6.8843  -21.9861 C   0  0  0  0  0  0  0  0  0  0  0  0
    4.8311   -2.8891  -18.4484 C   0  0  0  0  0  0  0  0  0  0  0  0
    4.1579   -4.2812  -18.4625 C   0  0  0  0  0  0  0  0  0  0  0  0
    4.5971    3.2974  -20.3103 N   0  3  0  0  0  0  0  0  0  0  0  0
    3.3568    3.7032  -18.3953 N   0  0  0  0  0  0  0  0  0  0  0  0
    3.8432   -1.8026  -18.6983 N   0  0  0  0  0  0  0  0  0  0  0  0
    5.6683    4.9113  -22.4109 O   0  0  0  0  0  0  0  0  0  0  0  0
    7.6242    1.2227  -22.8109 F   0  0  0  0  0  0  0  0  0  0  0  0
    5.4631   -2.8899  -21.8196 F   0  0  0  0  0  0  0  0  0  0  0  0
    6.7778    7.3185  -23.2538 F   0  0  0  0  0  0  0  0  0  0  0  0
    5.0876   -5.2324  -18.1945 F   0  0  0  0  0  0  0  0  0  0  0  0
    3.1873   -4.3225  -17.5107 F   0  0  0  0  0  0  0  0  0  0  0  0
    3.6038   -4.5651  -19.6690 F   0  0  0  0  0  0  0  0  0  0  0  0
    5.9608    3.1158  -17.9434 S   0  0  0  0  0  0  0  0  0  0  0  0
    3.9772    1.0273  -20.0468 H   0  0  0  0  0  0  0  0  0  0  0  0
    7.2609   -1.3394  -22.9239 H   0  0  0  0  0  0  0  0  0  0  0  0
    6.4826    5.2493  -19.8332 H   0  0  0  0  0  0  0  0  0  0  0  0
    8.2361    5.1152  -20.1993 H   0  0  0  0  0  0  0  0  0  0  0  0
    6.3264    3.1144  -23.2240 H   0  0  0  0  0  0  0  0  0  0  0  0
    4.5597    3.2274  -22.9195 H   0  0  0  0  0  0  0  0  0  0  0  0
    7.3457    1.5714  -19.1963 H   0  0  0  0  0  0  0  0  0  0  0  0
    8.2626    3.0332  -18.6970 H   0  0  0  0  0  0  0  0  0  0  0  0
    7.9133    2.8815  -21.1532 H   0  0  0  0  0  0  0  0  0  0  0  0
    7.7516    4.9584  -22.6187 H   0  0  0  0  0  0  0  0  0  0  0  0
    2.5572   -0.9765  -20.1729 H   0  0  0  0  0  0  0  0  0  0  0  0
    3.2930   -2.5569  -20.6060 H   0  0  0  0  0  0  0  0  0  0  0  0
    6.2440    7.2883  -21.3115 H   0  0  0  0  0  0  0  0  0  0  0  0
    8.0054    7.2286  -21.6589 H   0  0  0  0  0  0  0  0  0  0  0  0
    5.2987   -2.7281  -17.4659 H   0  0  0  0  0  0  0  0  0  0  0  0
    5.6030   -2.8574  -19.2315 H   0  0  0  0  0  0  0  0  0  0  0  0
    3.7792    3.5944  -20.8031 H   0  0  0  0  0  0  0  0  0  0  0  0
    3.2997    3.7891  -17.4006 H   0  0  0  0  0  0  0  0  0  0  0  0
    2.5442    3.8558  -18.9578 H   0  0  0  0  0  0  0  0  0  0  0  0
    4.2286   -0.9496  -18.3463 H   0  0  0  0  0  0  0  0  0  0  0  0
  1  3  2  0  0  0  0
  1  4  1  0  0  0  0
  2  5  2  0  0  0  0
  2  6  1  0  0  0  0
  3  5  1  0  0  0  0
  3 13  1  0  0  0  0
  4  6  2  0  0  0  0
  4 14  1  0  0  0  0
  5 22  1  0  0  0  0
  6 23  1  0  0  0  0
  7 18  2  0  0  0  0
  7 19  1  0  0  0  0
  7 28  1  0  0  0  0
  8 11  1  0  0  0  0
  8 12  1  0  0  0  0
  9 13  1  0  0  0  0
  9 21  1  0  0  0  0
 10 11  1  0  0  0  0
 10 28  1  0  0  0  0
 11 13  1  0  0  0  0
 12 15  1  0  0  0  0
 12 21  1  0  0  0  0
 13 18  1  0  0  0  0
 14 20  1  0  0  0  0
 15 24  1  0  0  0  0
 16 17  1  0  0  0  0
 16 20  1  0  0  0  0
 17 25  1  0  0  0  0
 17 26  1  0  0  0  0
 17 27  1  0  0  0  0
  1 29  1  0  0  0  0
  2 30  1  0  0  0  0
  8 31  1  0  0  0  0
  8 32  1  0  0  0  0
  9 33  1  0  0  0  0
  9 34  1  0  0  0  0
 10 35  1  0  0  0  0
 10 36  1  0  0  0  0
 11 37  1  0  0  0  0
 12 38  1  0  0  0  0
 14 39  1  0  0  0  0
 14 40  1  0  0  0  0
 15 41  1  0  0  0  0
 15 42  1  0  0  0  0
 16 43  1  0  0  0  0
 16 44  1  0  0  0  0
 18 45  1  0  0  0  0
 19 46  1  0  0  0  0
 19 47  1  0  0  0  0
 20 48  1  0  0  0  0
M  CHG  1  18   1
M  END
> <OMEGA_C>
v/WVQPk5BT+3eaXBqWLRQDoxUr8YcbLBa062QGGpoj8UpKrB+8CSQJeiXb/v1qbBUj7UQPuhEz+9
ObHBOOCwQNUIxr9yQ63Bov+RQM/VV0B89JfBMz3nQNRImkBFLKTBrs2xQJ/aXkAsPbTBE+XpQEax
KkCc2JjBHoTjQDNsUUCBF6TB1fbeQG4wq0AToa/B/ha4QMObM0CFHanBh0ReQPbByr8/AKHBUGzg
QEtM3ECK46/BR5iaQCfnOMBmlpPB5w2FQGL/iMBEs5PBXxuTQG4IU0B4e6LB49VWQPsAbUCIKZPB
1fZ1QOu85r8OlpXBmGK1QHwpnUB6SbPBXvnzQASAnD/MfLbBs9GuQG/zOMB3jq7BJeTYQDUx6kDi
B7rBUc2iQDlwp8BqjpHBBfxLQB5SisDUFYzBC6VmQIEVksArWp3BGL++QFBpR0AhjI/B24l+QPZ/
gz/DX6DBNFnoQEpwq78+ZLfBX3HPQHL6p0Bwqp7B58YDQQmwo0A0mKHBxnHKQANSR0DJyrnBHemR
QHONTkAhW7fBABDrQNkjyT/0kZnBcTMEQYYfQkBuk5XBEDr9QNppOECqOanBDg34QJyrnkAy87TB
x6gjQPn7eb8UYqHBD8FSQBukI8AB2aTBG8/HQMY56UDgfarBExYAQe1Q50B3Ra3BwY6pQPOYLsAb
uovBy0uzQBffNsAN2pnBLd9xQNoKZkDXbKbBfS5TQF6BckB3NIvBndQiQJnFdkCQqZfBSlCHQFAa
c79OxZLBAZOVQExK/j6RmaXB0M3RQFG+UL++kLLBAQu2QASHoT86rKrBhviSQM9uZb9lCKfBTEfU
QIR0FD+gQbHBYYCxQGAVx7/Wd63BX+yRQIkTWEBa75fB6TbnQNk2mkB2L6TBDpmxQFS/XkBqNbTB
TMDpQE3OKkBUz5jBy1vjQMw8UUAEEaTB2A3fQKsFq0B1p6/BAd63QC4yM0CrFqnBZMdiQBUA179e
1qDBXsXgQJsk3ECN9q/BKZylQKvoHsB/JJPB1pi1QIcoCsB414fBbt6SQFg1UkAAdKLBw+VWQCMd
bkD/JpPBu+96QCxW3b/yYZXBcmS1QBMfnUAyR7PBsg30QOgAnj8qb7bBm4mwQISjOcC8pa7BF3LZ
QH/y6UDBH7rBUjrbQJVwM8BjGobBBQi8QFggUb/F44bBhUyYQA38I8BrfIDB67e+QPE1SEDuho/B
s+18QJo+fj/4jKDBhPXoQFs7qb82ibfBY2zPQN8IqEBYsp7BEcUDQW+Po0AfmqHBxyLKQF/9RkCB
xrnB9aORQKvBTkA3T7fBDMbqQGxNyT98f5nBSSkEQQ0ZQkDRj5XBEA39QN4GOECxMKnB+A74QDtI
nkBi97TBvjkkQF7Ol7+2rKHB5NVeQK//LMCNBqTBkifIQGhH6UAhmarBi0UAQXsI50BhVK3BYjS+
QImdDMAWApnBDkefQNP6Y8BkxJPBTvZwQFMTZECfY6bBUXRTQMuEdEBCNIvBfdQiQEybd0B+ppfB
eE2BQC96Sr9fyZLBu5nQQHwkMj8qMLHBkheVQEWEbr/knabBWHKzQLILpj9pE6rBF0vPQNizLL+P
TrPBtdeUQIi56T5Lz6TBnSiyQLYVwL+L1a3BFGSSQG+nXUB305fBNUnpQPQ9mUACl6TBPSCyQKsD
XUB7G7TBh7/pQGAGLkDOuJjBDXHjQMsrUED1IqTB8yDgQIbYqUAX+K/Bi9m2QG4KNUD0v6jBISDx
QBS2ob9UZ7rBYw7hQCrK2kAu/K/BJtMTQWnvlL9KjqvBjs8LQXD8tr889p/Bc1STQM0jWkAcVKLB
gJJVQENjZ0AlA5PB2DwIQWsm/r8ItLPB72y2QDYInEA6hLPB1K9sQA53az+/IJ7B8cGyQPrZNcCo
Pq/BPSfYQAhe6UDn9rnBavAbQX2Zk78yB5nB69L1QIALJr/WVp3BpOUFQfK8LsDBxJ7BXRzAQAU0
VEAukY/Bj3XoQNNGpz+fFbXBOWZ9QMAyyL9CaKLB0P/SQMxvqECd757B2y4FQQNZoUAAXqLBmiHL
QG4LQ0DRYbnB6W6SQK/qTECGXbfBU+ToQElUzz/67JjBIY0EQWttQ0C1v5XBdS78QH85M0CqPqnB
Ewn5QCvUnUDkabXBolDiQEgl+79yGsDBm7EAQaUu677l0r7BU/7IQHoD50ABVqrBNIAAQXbv5UCr
jq3BkG0RQUeWy707b63BkvskQZqWs788+KvBZZV0QCw1ckCkTKbB8/1QQBnyaEABCYvBXvEgQCvc
bEA7g5fBem4AQcmRLcDp1K/B

> <OMEGA_E>
SI4SP9ysEj8+6RY/

> <OMEGA_NBR>
     67923

$$$$
417117
  -OEChem-04172616093D

 41 44  0     1  0  0  0  0  0999 V2000
    6.2996    0.5368  -22.5058 C   0  0  0  0  0  0  0  0  0  0  0  0
    5.9963   -0.8128  -22.7573 C   0  0  0  0  0  0  0  0  0  0  0  0
    4.9559   -0.9898  -20.5768 C   0  0  0  0  0  0  0  0  0  0  0  0
    5.9385    1.1658  -21.2735 C   0  0  0  0  0  0  0  0  0  0  0  0
    5.3114   -1.5719  -21.7984 C   0  0  0  0  0  0  0  0  0  0  0  0
    5.2850    0.3468  -20.2986 C   0  0  0  0  0  0  0  0  0  0  0  0
    6.8614    3.0424  -18.5673 C   0  0  0  0  0  0  0  0  0  0  0  0
    7.2178    7.5721  -23.3656 C   0  0  0  0  0  0  0  0  0  0  0  0
    5.8816    7.9649  -22.7090 C   0  0  0  0  0  0  0  0  0  0  0  0
    5.4453    5.1348  -20.8901 C   0  0  0  0  0  0  0  0  0  0  0  0
    7.1759    3.2171  -22.1874 C   0  0  0  0  0  0  0  0  0  0  0  0
    4.2032    3.4090  -19.5972 C   0  0  0  0  0  0  0  0  0  0  0  0
    6.7850    6.9176  -22.0511 C   0  0  0  0  0  0  0  0  0  0  0  0
    5.0521    3.6274  -20.8619 C   0  0  2  0  0  0  0  0  0  0  0  0
    6.3442    5.4492  -22.0879 C   0  0  1  0  0  0  0  0  0  0  0  0
    6.3089    2.6700  -20.9942 C   0  0  1  0  0  0  0  0  0  0  0  0
    7.2078    2.7332  -19.8007 N   0  3  0  0  0  0  0  0  0  0  0  0
    7.8576    3.0306  -17.6026 N   0  0  0  0  0  0  0  0  0  0  0  0
    7.5011    4.6053  -22.0338 O   0  0  0  0  0  0  0  0  0  0  0  0
    5.0132   -2.8676  -22.0386 F   0  0  0  0  0  0  0  0  0  0  0  0
    5.0077    0.7695  -19.0543 F   0  0  0  0  0  0  0  0  0  0  0  0
    5.2143    3.4659  -18.0434 S   0  0  0  0  0  0  0  0  0  0  0  0
    6.8169    1.1111  -23.2601 H   0  0  0  0  0  0  0  0  0  0  0  0
    6.2918   -1.2659  -23.6921 H   0  0  0  0  0  0  0  0  0  0  0  0
    4.4233   -1.5738  -19.8408 H   0  0  0  0  0  0  0  0  0  0  0  0
    7.2224    6.9866  -24.2968 H   0  0  0  0  0  0  0  0  0  0  0  0
    8.0563    8.2841  -23.3760 H   0  0  0  0  0  0  0  0  0  0  0  0
    5.7647    8.9576  -22.2498 H   0  0  0  0  0  0  0  0  0  0  0  0
    4.9308    7.6601  -23.1705 H   0  0  0  0  0  0  0  0  0  0  0  0
    4.5312    5.7429  -20.9579 H   0  0  0  0  0  0  0  0  0  0  0  0
    5.9828    5.3829  -19.9630 H   0  0  0  0  0  0  0  0  0  0  0  0
    8.1102    2.6389  -22.2398 H   0  0  0  0  0  0  0  0  0  0  0  0
    6.6117    3.0877  -23.1228 H   0  0  0  0  0  0  0  0  0  0  0  0
    3.4357    4.1954  -19.5475 H   0  0  0  0  0  0  0  0  0  0  0  0
    3.7162    2.4250  -19.6651 H   0  0  0  0  0  0  0  0  0  0  0  0
    7.3236    7.2397  -21.1477 H   0  0  0  0  0  0  0  0  0  0  0  0
    4.4078    3.4385  -21.7332 H   0  0  0  0  0  0  0  0  0  0  0  0
    5.7814    5.2680  -23.0155 H   0  0  0  0  0  0  0  0  0  0  0  0
    8.1723    2.5185  -19.9546 H   0  0  0  0  0  0  0  0  0  0  0  0
    7.6370    3.2550  -16.6534 H   0  0  0  0  0  0  0  0  0  0  0  0
    8.7964    2.7978  -17.8561 H   0  0  0  0  0  0  0  0  0  0  0  0
  1  2  1  0  0  0  0
  1  4  2  0  0  0  0
  2  5  2  0  0  0  0
  3  5  1  0  0  0  0
  3  6  2  0  0  0  0
  4  6  1  0  0  0  0
  4 16  1  0  0  0  0
  5 20  1  0  0  0  0
  6 21  1  0  0  0  0
  7 17  2  0  0  0  0
  7 18  1  0  0  0  0
  7 22  1  0  0  0  0
  8  9  1  0  0  0  0
  8 13  1  0  0  0  0
  9 13  1  0  0  0  0
 10 14  1  0  0  0  0
 10 15  1  0  0  0  0
 11 16  1  0  0  0  0
 11 19  1  0  0  0  0
 12 14  1  0  0  0  0
 12 22  1  0  0  0  0
 13 15  1  0  0  0  0
 14 16  1  0  0  0  0
 15 19  1  0  0  0  0
 16 17  1  0  0  0  0
  1 23  1  0  0  0  0
  2 24  1  0  0  0  0
  3 25  1  0  0  0  0
  8 26  1  0  0  0  0
  8 27  1  0  0  0  0
  9 28  1  0  0  0  0
  9 29  1  0  0  0  0
 10 30  1  0  0  0  0
 10 31  1  0  0  0  0
 11 32  1  0  0  0  0
 11 33  1  0  0  0  0
 12 34  1  0  0  0  0
 12 35  1  0  0  0  0
 13 36  1  0  0  0  0
 14 37  1  0  0  0  0
 15 38  1  0  0  0  0
 17 39  1  0  0  0  0
 18 40  1  0  0  0  0
 18 41  1  0  0  0  0
M  CHG  1  17   1
M  END
> <OMEGA_C>
kJbJQF5pCT/xC7TBh+G/QOUQUL8CD7bBXpaeQMRgfb9GnaTBVgi+QCA5lT8wMKrBq/apQHo0yb8w
Y67B4x6pQPSPsT6LY6LBbpDbQBm2QkDgiZTBPvjmQPlO8kC77LrBcja8QLfg/kAJrLXByD+uQEdQ
pEDVHqfB9qDlQEDlTUDgf7HBvoCGQEcsWkAEx5zBih7ZQLZc3UDBaLDBL6uhQBMoaEAy5abBkAPL
QA5grkDts7DB6eLJQNbhKkAs9KfBd6bmQPnsLkDtZ57BF3H7QOb1QUAY0ozBKwnwQIdek0A9RbDB
G2ygQPaGN8D4TrDB7z6gQIH7RD8kb5jBSdumQOLRXUDxWJDB/CPaQCo5jj+6FLrBj1bJQMoIor9Y
ib3Bc4uNQERyyb8Cup7BwR3nQPqR30DHX8LBdeYAQaOLBEEeArvBVHi4QGZSD0GG/7HBK8mdQH8f
9UAuXbnBiv+QQDHGt0CvqafBWXO/QM1ArEAptJ/BS8MBQR3jKEAV67HBu5LTQC+cRUB4+7jBUeJb
QFxAhkA4YZzBldVtQCIzG0AHUp3B7FrqQEWr50CTLqnBqwyNQCgQXECN3a3BfAG5QESTqECrH7jB
xMECQTEvIUD/op/BU2L0QD5SUEAaOoXBML4MQfYOM0Bh2Y7B/9KoQKvA4j6a6KLBuA2cQFxoWr+m
2aXBc2LBQE4sGr/Bw7bBrNzAQPaNoj9V8qnBLnqoQLp3sL8gx6/BxmLNQCpXNj9zB7TBldjcQFaq
Q0BZeJLBIFS/QI7h+0CuibXBxRrbQO/K80AksavBfViqQMAHokDTeKfBx4LsQBI2X0D1cK3BUr+J
QBw3XEAzWJrBaUfXQJUh0UAmfrTBHHahQDZXZEByJKXBPBS8QJrTp0DADLPBrk3MQDKPLUA0EqbB
tCrlQBppIkA86JvBstr7QDMxPEABmIrBosTVQDI7g0BCPLbBaBidQIK6KMD8i7LBifvkQILUsD/o
U7vBvZCsQNK9dkAGHY/BSyugQOgCUj+rG5vBqbKIQHHPuL9PeaDBnnjLQI5Fgr+aVL7BT0ecQJm5
/EAdwbTBt4XJQDa0CUEnkbvBxEz5QPqyAkG4pqrBXA7MQCK37kCu1qPBS2WMQGU6tEC+pabBBAbC
QF4frkBptKHBJ6/8QNSSiECxvKjBSzgCQVQ7MkApnLDBJ2tcQEoIhECwVprBX8d8QPr/GUBuaZnB
WI3zQFSXzUDaqLnByLGLQCv2TEALaavB/GqgQGFMqkD5dLjBbCr/QO6L+j/aW5zBv2L2QE6CU0Al
RYPBTdgLQRp8H0BsPIzBFJa1QE5nNT+CoLTBRK6sQPTTJb8rlrbBKc6yQH4bj79Zm6PBLQC/QDfd
lj8sHqrBAn6rQND6x7/XFK7BBUm8QNJHbT5GjaHBBgjeQPFDSkBmBZXB1an3QONU7UBoA6rBS3j5
QMvE7UBDVbbBseKpQAWrokBc9KbBis3iQFnbT0BGGLLBeOuHQCOGSkCFb5zBVODQQLlu3kCBkLDB
vyqgQHFCY0DMuqbBCxXFQGCErkDf1LDBA7bJQA0qLECyMqjBqDnoQKojN0Bo/Z7BvbD+QKOCTEDr
hY3BhmHrQNOmlECj1rDBUKSiQG5bN8CY7a/BhxHCQNhXET/9NJfBoOSoQIcYWkCNZJDBK0q1QN05
tD/INbvBSb6mQDl2fL/2p77BEiSxQBDl6L/vDJ3BCVwFQb3s1UA+fKXBvkT2QH7SBUG5jaXBvFv5
QBIyBkEprLrBiOcGQeWr1kCtmrrB+4KLQEZrtEBGP6fB+n+7QBl3q0DwqJ/Bj6QAQUo1LUC137LB
/oTPQCwgRkANW7nBpxxWQFR5ckAtx5vB/TB9QO7CBkAR8pzBRqO1QMa29EDCw7DByQuLQJ8/VUBU
jK3BMjSyQJkqqEBTFrjBqqoDQd8mL0Dhk6DB0+n3QHTGVkCDz4XBvYMOQW/dQ0CF04/B2Ea5QDxt
hT/CybTBa16yQKCkjL4fNrjBWsatQEgJgb8asqXBSIO9QIBWqz+sv6nB3OWtQDD0pr9KqrDBGiG1
QEDFmz6CLKLBhXTkQEiISkAUjJPBDs7HQLuI+kBez6vBTlTyQMqP4UBgu6vBZaWnQHIIokDrqKXB
JoblQGANX0AF6a7B7pyMQEbAU0Ck05jBatvNQDwI1EDiSLPBAOifQEw0ZEAb7KPBO8qzQFhlqkC/
kbHBAv3JQIxwMEApLabBdN/oQHqzKUA/IJ3BUGIEQVCyT0AaOo3BaZbKQCGFhkCRRrbBNqupQHRB
JcC79LPBk061QPDqBT8NfZfBduayQLJ1akBbFY7BnWO7QJBC6z94m7rBxnywQDSF/r4yp8DBcv+n
QMuC5b+c8J/BvNmxQIY9+ECS9KTBoqDGQEGODUFUIa/BY8AHQRxI8EDpAK/B4Ln6QCBpzUAn1KTB
TFqKQIrgs0DXrqPBi+nBQEjHrEAmdKDB7Fz7QIMxhkCN+KrB6UL4QHo1L0AuWrPB3c9gQGYKfUA8
ypfB8NqCQBA9EEBPTpjBEAzTQIty3ED+urvBwC2IQNN1T0AH4qnBQ4qVQI9hrkAh9bXBjt0BQZi3
CECjgp7Bck0DQQA4ZUBatoXBC5MSQR/nPUCvLZDBgGzZQBgbHT/hr6/BNZDTQLz9PL/bMbLBgO2O
QO5MMr9JFKnBLoC5QLlBrj8WMqrB7mmuQKTXsr/mz67B4cWTQNj8LD/J4abBl0/oQCD6LkCSCJbB
pGHrQPn59ECHerXBBs3hQD/0/kCKqanBPSGyQIJ/p0D7V6LBQ1nVQKiLYEB0QrLBpjiTQLbRX0Bh
cJbBSdzlQLKo0EDRca3Bz9igQEpackAbTKLBKD68QD8Dt0DSsK3BnlzEQHa+NUBjkafBl2XqQIzy
MUA/eKDBaSoGQXKUREDdRJDBHGS9QKYUlUBqbLXB1/2oQBI5LcDnDrHBiHBmQEE7pD9jzKHBUE24
QOLQGUCjW4/BguD2QIrujD9v+bHBN5XrQEiior+rt7bBE2ZlQBqnm7/gU6bB5MzSQIis+kBFnbvB
VJYFQQH5+0B/07jBgbz6QDCJBkEhjaTBvFzCQPPiBUHmVqfBd+eZQFa/vEB6zZ7BSI3PQGrAqEDo
hZ3BUNn2QDbRc0BmCbHBkqbTQB/dMEBLuLjBL2GRQEaHjkBRH5LBYvxmQItWQUAqgpbBo3sBQa1S
v0AIDqvBThKEQH2xb0DRWqfBP52iQBZVzUCP+6/BrawDQfukMUCA4KPB/XoFQbwdSEDgSYjBi+oT
QQ+3UEBSEZTBiiGTQJUUQz/zQajBJDCMQOoiHL8256nBRBfTQACVUr87trHBpC67QG8GrT8mr6rB
cBasQHNNs7/kpK7Bvj7bQMI2CD9Ika/BAOfoQBiZLkDSeJXBomgCQckq0kBWNqnB7Az+QJvF10Ai
SLXBbAOuQOfjpEA9N6LBYpHXQGiXY0B2tbHBmOaQQM0EUECLQJfBPovXQGwg2kC6oa3BJu6fQLPr
akD/k6LBFiW1QNZMtkC+oa3BlqnFQLz2M0Djg6fBNFDqQH7kLUDe95/BkqcHQQ3kIkAIP5DBOPa8
QA1jlEBnTLXB7h+lQLXSLcBuWrDB3UwBQb+XgT80EbLBjma8QNMITUBjro3BgEBzQMf/rz+QGqXB
5XNcQIxmh7/Xg6fBe+7qQMvntb+FvLXBe6gGQYuWskDt9KXB8pEKQRNF60D4laTBK8MEQW/k9EDg
TrnBs9kAQec1vEDVrbrBw/6UQIrot0BmQJ7BnAjMQKF+p0DKqp3BYWD3QANyfUAcxa/BiXbaQAXS
NEABP7jBB5NxQEUmfkBkc5TBdHiCQKDsD0AKvZfBDvvKQH+K+kAwQKzB1mWEQL/dZUBIBqjBaPmW
QB/hxUB386/BY60DQRitKECaQ6PBMJEIQf6rK0DEVYjB0qsUQTWeEUDvXZTBt/ypQC523T66XaLB
1radQIzGZ7+l8aPBZ6G/QPQgYr8vYLXBjba/QMFelj+qa6rBhXeoQD8IyL/yea3BtG/LQD7U7D40
/7PBmVjaQDj+QEDPl5TBE2zoQGX88UCZ0rrBTZC8QP/h/kAAO7bBAnytQJcZpEDaGafBbjvnQN/n
UUD2YbHBgBmGQIUFVEAPPJ3B027YQEw03kA+V7DB2AOiQADnZkBKJafBTejKQNogr0C7ibDBIwzL
QN/DK0CfMKjBiLPmQJWBL0CMbp7BxJb5QAZeQ0AruIzBcHHwQGQqlUAK3K/Bu4WdQA7YNsBQ+K7B
F8viQD2ifT/yDbzBkMmkQEMmVUB1oJDBoLqiQEESaT9f1ZrBEf+LQAeltr9wz53BN43IQN41s7+S
oLzBxTrqQF1f3kCyHcLB148BQZZ1BEFnubrBg+a3QCuGD0H62bLBmQGfQIeA9EBFPrrBtN+PQLX2
tkDvu6fB1eK9QPX+q0CtkZ/B+ssCQfpgLkD9tLHBIxTWQFk5SkC/AbnBEptZQENogkA9vZzB7fFu
QM91FECPNJ7BUhPoQDRu6UBW+ajBhzCOQH8WW0D+Q67Bfr+5QAOyqEAnDbjBMuwCQY53I0CzfJ/B
8YXxQMAVUECGJIXBcBcMQZJcOEBino7B

> <OMEGA_E>
QG5rPxw3bD8e1Xk/LI97PzIhWD+WkVg/EudkPw==

> <OMEGA_NBR>
     73387

$$$$
417119
  -OEChem-04172616093D

 42 45  0     1  0  0  0  0  0999 V2000
    4.7390    0.4289  -20.6728 C   0  0  0  0  0  0  0  0  0  0  0  0
    4.7493   -0.9655  -20.8260 C   0  0  0  0  0  0  0  0  0  0  0  0
    6.5869   -0.7864  -22.4120 C   0  0  0  0  0  0  0  0  0  0  0  0
    5.6578    1.2411  -21.3875 C   0  0  0  0  0  0  0  0  0  0  0  0
    5.6741   -1.5718  -21.6915 C   0  0  0  0  0  0  0  0  0  0  0  0
    6.5889    0.6096  -22.2684 C   0  0  0  0  0  0  0  0  0  0  0  0
    4.5581    3.4161  -18.9949 C   0  0  0  0  0  0  0  0  0  0  0  0
    6.7865    7.4372  -23.2319 C   0  0  0  0  0  0  0  0  0  0  0  0
    7.2693    4.6829  -20.5303 C   0  0  0  0  0  0  0  0  0  0  0  0
    5.6046    7.9738  -22.3425 C   0  0  0  0  0  0  0  0  0  0  0  0
    5.4487    3.4815  -22.5080 C   0  0  0  0  0  0  0  0  0  0  0  0
    7.2553    2.5901  -19.1202 C   0  0  0  0  0  0  0  0  0  0  0  0
    7.0742    3.1672  -20.5288 C   0  0  1  0  0  0  0  0  0  0  0  0
    7.1869    6.7180  -21.8971 C   0  0  2  0  0  0  0  0  0  0  0  0
    7.0113    5.2115  -21.9371 C   0  0  2  0  0  0  0  0  0  0  0  0
    5.6918    2.7610  -21.1494 C   0  0  2  0  0  0  0  0  0  0  0  0
    4.5447    3.2228  -20.2970 N   0  3  0  0  0  0  0  0  0  0  0  0
    3.3730    3.8075  -18.3944 N   0  0  0  0  0  0  0  0  0  0  0  0
    6.1628    7.3765  -21.2189 O   0  0  0  0  0  0  0  0  0  0  0  0
    5.6629    4.8837  -22.3531 O   0  0  0  0  0  0  0  0  0  0  0  0
    5.6894   -2.9142  -21.8300 F   0  0  0  0  0  0  0  0  0  0  0  0
    7.5132    1.3066  -22.9734 F   0  0  0  0  0  0  0  0  0  0  0  0
    5.9873    3.2341  -17.9702 S   0  0  0  0  0  0  0  0  0  0  0  0
    4.0254    0.8886  -20.0050 H   0  0  0  0  0  0  0  0  0  0  0  0
    4.0451   -1.5735  -20.2775 H   0  0  0  0  0  0  0  0  0  0  0  0
    7.2915   -1.2587  -23.0805 H   0  0  0  0  0  0  0  0  0  0  0  0
    6.4977    6.7767  -24.0628 H   0  0  0  0  0  0  0  0  0  0  0  0
    7.4937    8.1969  -23.5962 H   0  0  0  0  0  0  0  0  0  0  0  0
    6.5632    5.1470  -19.8260 H   0  0  0  0  0  0  0  0  0  0  0  0
    8.2995    4.9232  -20.2285 H   0  0  0  0  0  0  0  0  0  0  0  0
    5.5506    9.0710  -22.2853 H   0  0  0  0  0  0  0  0  0  0  0  0
    4.6187    7.5721  -22.6192 H   0  0  0  0  0  0  0  0  0  0  0  0
    6.1456    3.0860  -23.2616 H   0  0  0  0  0  0  0  0  0  0  0  0
    4.4140    3.3036  -22.8363 H   0  0  0  0  0  0  0  0  0  0  0  0
    7.1719    1.4944  -19.1684 H   0  0  0  0  0  0  0  0  0  0  0  0
    8.2521    2.8659  -18.7454 H   0  0  0  0  0  0  0  0  0  0  0  0
    7.8562    2.7312  -21.1680 H   0  0  0  0  0  0  0  0  0  0  0  0
    8.1980    7.0075  -21.5751 H   0  0  0  0  0  0  0  0  0  0  0  0
    7.7445    4.7750  -22.6313 H   0  0  0  0  0  0  0  0  0  0  0  0
    3.6807    3.4021  -20.7675 H   0  0  0  0  0  0  0  0  0  0  0  0
    3.3440    3.9780  -17.4095 H   0  0  0  0  0  0  0  0  0  0  0  0
    2.5463    3.9197  -18.9458 H   0  0  0  0  0  0  0  0  0  0  0  0
  1  2  1  0  0  0  0
  1  4  2  0  0  0  0
  2  5  2  0  0  0  0
  3  5  1  0  0  0  0
  3  6  2  0  0  0  0
  4  6  1  0  0  0  0
  4 16  1  0  0  0  0
  5 21  1  0  0  0  0
  6 22  1  0  0  0  0
  7 17  2  0  0  0  0
  7 18  1  0  0  0  0
  7 23  1  0  0  0  0
  8 10  1  0  0  0  0
  8 14  1  0  0  0  0
  9 13  1  0  0  0  0
  9 15  1  0  0  0  0
 10 19  1  0  0  0  0
 11 16  1  0  0  0  0
 11 20  1  0  0  0  0
 12 13  1  0  0  0  0
 12 23  1  0  0  0  0
 13 16  1  0  0  0  0
 14 15  1  0  0  0  0
 14 19  1  0  0  0  0
 15 20  1  0  0  0  0
 16 17  1  0  0  0  0
  1 24  1  0  0  0  0
  2 25  1  0  0  0  0
  3 26  1  0  0  0  0
  8 27  1  0  0  0  0
  8 28  1  0  0  0  0
  9 29  1  0  0  0  0
  9 30  1  0  0  0  0
 10 31  1  0  0  0  0
 10 32  1  0  0  0  0
 11 33  1  0  0  0  0
 11 34  1  0  0  0  0
 12 35  1  0  0  0  0
 12 36  1  0  0  0  0
 13 37  1  0  0  0  0
 14 38  1  0  0  0  0
 15 39  1  0  0  0  0
 17 40  1  0  0  0  0
 18 41  1  0  0  0  0
 18 42  1  0  0  0  0
M  CHG  1  17   1
M  END
> <OMEGA_C>
maWXQI6c2z7WYaXBXvqXQCgsd7+Mm6bBf8fSQO5QSb++S7PBWgy1QOTdnj+CGavBMZK1QFoyyb9J
iK3BENjSQDoPHD+gJbLB+NuRQAuhWkCk9ZfBFCvZQIn97UD12rnBLZ7oQJLalUAgPqTB91izQIMp
/0BpvbLBkFuuQFLQXkBeELTBcCvoQOLEJUAp9pjBJmDiQMiySkABO6TBuvrlQO351kBbLa/B0Vzg
QNnEpkAbf6/B8iK2QJK0MED8ManBLW6RQD5CTkAuYKLBBt9XQJSuc0DHJ5PBzTXFQOML7EBEwKnB
0Ta1QEFHnEAU07LB8w+2QBKCOsDlo67BwGvwQD49pz+HybfB8Je/QGD7TkABw4/BMNCAQK97Yz81
CqDBvHGBQKFpyb87OKLBuFPpQMsbob/OpLjBbe3PQJHa2ECNgMDBFczvQKkmA0EWxbzB4AXSQEu0
pECtm57BlcoEQYOKnUAL1KHBPJ6xQM8iEUE7SLLBX8yTQHRO8kAp9LTB4ajEQBKBRUC0F7rBfj+N
QG9uU0DUsLbBXYDlQGdHvz/kWJnBZwgEQbBqN0Cf9pXBqGX7QJLMLkASWKnBLCsDQXE94EDYmazB
x9L3QLDMmEDXDLXBRpFrQBe8WUDiI6bBrQRWQPyXfkCiRovBaPYiQLrbekD2kJfBGreXQJYezz6M
KabBpt6VQJK+eL+PNqjBzj7VQDbaTL/3dLPBwmG4QKQ0mj9QxarBpn60QHI+yb9s367BYorXQMZa
FD9WdbHBeCeSQLQ1WUDWD5jBdqEAQZix8UAovq3BHG3lQCgKmEAgeKPB9C/yQN1T/kAGUrnBmrqx
QNp4WUAE47PBXnTpQFtIJ0AlhZjBHGHjQD2+TUAWt6PB2hTVQMTk2UBYsK3BDHXZQGHpqUB+gq7B
tJO4QBYrLkB646jBWLKSQGVoSkCkaaLBD9dZQPeXekDbvJPBBELKQMSg7ED1XLfBVFuxQDvGmUAY
W7LBZnSyQGdiOcDT3rDBrrL3QAvKoj8pLLbB4gS+QLJCRkAVaY/B4Q+AQKlSXD/8BqHBFbh5QEMQ
yb+OqqTBz8jsQAeSor+Gi7jBp+MOQcIi3UD3S63BnT8CQeMgBkGTBqjBqNXOQPU5pECccp3BbAkD
QQ0+okAmZKHBoZDxQFCDEEHsyrrBtg8CQV1g7kDZwb/BAurLQNfSR0CcVrnBigaTQHGvREBKUbfB
eSLqQLQxwj9eL5nB+wMEQRcAPkBINpXBV8P9QGXbNkAjyqjBdhzBQKLN40D54KbBqTLzQE8wokBw
MbTBXlhuQHzJUkBJW6bBTpNWQOywg0Dh6IvB91UnQGj0gkCMcZjBALzSQBiYLz8TPrLBv7/VQE7L
Mb8f87PBtrOaQDGEhr+ZmKfB4c6zQGljnT8TIavBMfe5QG8myL9Yja7BTE2XQFO9qj5g0KXBmaaR
QIUkXEA24pfBnq7ZQPTI7kARUbnBFnroQO6vlEBkK6TBsliyQIEG/0CWl7LBF9euQDFFXUAxE7TB
/nnnQE6QIkAVEJnBGI7hQFtzSEDYRqTBo4/kQHnd1kAkoq7BoRzgQHGQpkDLVa/BJ+20QH4VMECU
F6nB9fKQQPodUUDZU6LB1PBXQDyZdUDy/ZLBdjHCQBK36kA+iKnB8la1QE2hm0Ah47LBFJK9QJBl
OcAc96/BLZZxQEIEPz8t457B7T6/QFK8S0BwuI/BUE7oQELLrD9FaLbB22XtQCRMi7/4Z7nB2g+F
QB4E3b+vk6PB/fPRQCQ22kDRMMDB/qjwQC3DA0HUzbvB90zSQEeIo0BZbp7BM9EEQZG/m0AIzaHB
Nn2wQD8HEUEI3rHBfliTQMCA8kAbWLXBxCPGQCWmQ0Bx17nBbTOOQMZsUUDBBLfB1YPkQNMGuT/r
h5nBvMIDQa51M0CpGJbBxSL6QHI2LEBofqnB3goCQZh/4EDUi6vBsiH4QCHXmUAn7bTB4pBrQGtA
YEDMG6bB4h5WQHsxfkBVEYvBtFojQLdhf0B9YpfB0niXQOqh4D5inaXBFKCWQKWCcb9+hqfBiHbT
QAZeO7/AkrPBVU22QJpLoT8auKrBUXq0QDRSw7+ThK7BprnUQH2ZJj8iv7HBaXuRQNwQXEAem5fB
dYHJQLJd8kDL2avBw2PoQHaMl0BV3KTBPKf0QLZ7/UCTCqbBXwqtQAiOXECb2rPBWEnoQOEzLUBT
epjBOlPiQApNTkCU9KPBjqLnQIMy1EDumbLBfcHgQFuOpECOrLDB1Ue2QCLAMUAPz6jBDleRQDSb
TkBSAKLBYuxVQKx1cUDUz5LBRqEFQSjF5EBfYa3BG0C1QBIDm0COa7PB74yzQNW4NsBmXLDBXE7z
QGYOrj/u9LbBH3W/QIT6VkADdY/BA3qAQJ5SYT+2N6DB8PR9QCLIx7/0nKPB+nLqQAEFmL9t5bjB
JEWxQIIf4kBl7abB3W+6QGJjBkG2SLDBIEjRQDsOqEA4qZ/BRI8EQfk4oECJdKLBBOf8QPjYD0G6
OabB8Yj2QJOr8UDYw53BPLnBQJJbP0DX97nB9EqLQOYZUkC3/LXBHWHmQKjQzT/iiJjB8vsDQXYd
QUB6j5XBBFf7QBk3MECg36jBPhzmQBw73EAaKbvBhNH2QARKkkD6ybXBdTVrQKKvWECFyaXBNbJT
QFlzfUBc9YrBv4wgQKbodECONJfBJnXXQKsLJT+YLrHBfsTXQBBtOb+ajbPBWGaXQGLXgr853KjB
CAS3QL6nmj+toKrBdMS3QKJYx78YXq/BcImWQGoUsz5reabBUiGSQGApW0CB+pfB9tb7QLYb9EAw
pavB8EvmQCEbl0CwjaPBYuTvQDuTAUHPQ7fBCAqzQJv1V0Av8LPBRinpQD+kJUCmkZjB/i7jQLzy
S0AoyqPB4prRQCCU2UDC/azB7E3ZQF4vqkCScq7BgtG3QBaVLkCnxqjBgOKSQM0jUEADaKLBY/JY
QI4oeUB+fpPBiNrIQHY/7kBUi7bBth6yQMgSmUA4obLB0gG4QDQlOMBOm7HBTdNrQFcjSj+/SqDB
dOy9QJNsRUAhY4/BMUPwQHP9oz/1YrTBDI/wQIeKkb8nlrjBXd99QIn71b/fqKXBv70MQedZ4UBa
6qrByj37QAGGBkHKb6XBrNLQQHqTo0D/UJ3BG7gDQXp0oECauqHBUjTtQF8JE0FgI7jBMo4CQXxz
9kANh73Be1HOQKPORUAOBLnB/huVQLI+QkD2sLfB5ovpQCvfvj8TN5nBne8DQa/qO0CtSpXBthH9
QEiwM0Ck7KjB4bW6QD5a4EBnhqbBOpjzQG5cpUBtLLTB/b5wQKeUX0AAc6bB3/NUQK0GgUBllovB
2JEmQM/1gkDNKZjBXmvVQHBBOD/wQrHBhznWQDN5JL8ZxrPB6o+XQMRBfb+PjqjBmnC1QPyMoT8T
barBnC+3QNaLv7+lc6/BSUCWQIzGwj6qBKbBmGGRQJ3kXUCJe5fB3r3FQEqB8UCJ2qzBgRroQCq4
l0Cc4qTByo7uQHxo/0D8bKbBlwGuQF83WkCY3LPBZEHoQDuULUC5cpjB2fXhQP9sTkB87aPB6v7m
QNre00DwyLLByergQLw4pEC5v7DBLJu1QHdAMkDLl6jBtGyRQF/pU0Bp8KHBrERVQO9AcEBKm5LB
Ix0EQc4o5kBx+KzBIri1QPromUAoqbPBAqC3QOS3M8CZ+bHBJ/RsQC6aTD87e5/BzWm/QDXhVkB6
WI/BwYvtQKS1rz88k7TBkafuQIFihL8vBbnB4gmAQLc91L/sLKXBIuusQNDT4EBMNqjBEs+2QAhI
BUF0x7HBW8rQQPxjqEC8xp/BOF4EQbZ4oEB6aqLBGaT1QJ/qEEG16abBBk7uQGJf9UC+/Z3Bi9HD
QIkSPEBwprnBy7CMQMaSTkAcTbbBOprmQN6Dzj/gfZjB0/YDQeb6QUDtk5XBJKv6QMUAMEDv6KjB
jP/nQKsp20DuY7vB2ZP3QBkqkkDmvrXBkGRtQDVnZEA306XBOaBSQAcdeUDFsIrBrPsfQA+ldEDz
AJfB

> <OMEGA_E>
xALLPgjk0j5Yjd4+cFLfPiR94z5Aqe8+

> <OMEGA_NBR>
     78185

$$$$
417118
  -OEChem-04172616093D

 44 47  0     1  0  0  0  0  0999 V2000
    4.7368    0.4399  -20.6593 C   0  0  0  0  0  0  0  0  0  0  0  0
    4.7658   -0.9571  -20.7968 C   0  0  0  0  0  0  0  0  0  0  0  0
    6.5815   -0.7719  -22.4052 C   0  0  0  0  0  0  0  0  0  0  0  0
    5.6321    1.2589  -21.3959 C   0  0  0  0  0  0  0  0  0  0  0  0
    5.6819   -1.5612  -21.6735 C   0  0  0  0  0  0  0  0  0  0  0  0
    6.5729    0.6255  -22.2695 C   0  0  0  0  0  0  0  0  0  0  0  0
    4.5385    3.4187  -18.9795 C   0  0  0  0  0  0  0  0  0  0  0  0
    6.6823    7.5852  -23.0144 C   0  0  0  0  0  0  0  0  0  0  0  0
    6.3156    7.6430  -21.5178 C   0  0  0  0  0  0  0  0  0  0  0  0
    7.2663    4.6924  -20.5750 C   0  0  0  0  0  0  0  0  0  0  0  0
    5.4183    3.5096  -22.5200 C   0  0  0  0  0  0  0  0  0  0  0  0
    7.3834    6.6706  -22.0160 C   0  0  0  0  0  0  0  0  0  0  0  0
    7.0414    3.1744  -20.5409 C   0  0  1  0  0  0  0  0  0  0  0  0
    7.0659    5.1806  -22.0061 C   0  0  2  0  0  0  0  0  0  0  0  0
    7.2065    2.5588  -19.1368 C   0  0  1  0  0  0  0  0  0  0  0  0
    5.6572    2.7853  -21.1579 C   0  0  2  0  0  0  0  0  0  0  0  0
    8.6143    2.8119  -18.5802 C   0  0  0  0  0  0  0  0  0  0  0  0
    4.5166    3.2506  -20.2876 N   0  3  0  0  0  0  0  0  0  0  0  0
    3.3549    3.7624  -18.3468 N   0  0  0  0  0  0  0  0  0  0  0  0
    5.7021    4.9106  -22.4042 O   0  0  0  0  0  0  0  0  0  0  0  0
    5.7079   -2.9046  -21.8050 F   0  0  0  0  0  0  0  0  0  0  0  0
    7.5004    1.3202  -22.9730 F   0  0  0  0  0  0  0  0  0  0  0  0
    5.9764    3.2433  -17.9785 S   0  0  0  0  0  0  0  0  0  0  0  0
    4.0261    0.8961  -19.9861 H   0  0  0  0  0  0  0  0  0  0  0  0
    4.0819   -1.5688  -20.2271 H   0  0  0  0  0  0  0  0  0  0  0  0
    7.2847   -1.2418  -23.0767 H   0  0  0  0  0  0  0  0  0  0  0  0
    5.9702    7.1653  -23.7400 H   0  0  0  0  0  0  0  0  0  0  0  0
    7.2318    8.4171  -23.4792 H   0  0  0  0  0  0  0  0  0  0  0  0
    6.6037    8.5155  -20.9130 H   0  0  0  0  0  0  0  0  0  0  0  0
    5.3421    7.2637  -21.1738 H   0  0  0  0  0  0  0  0  0  0  0  0
    6.5452    5.1891  -19.9093 H   0  0  0  0  0  0  0  0  0  0  0  0
    8.2898    4.9231  -20.2444 H   0  0  0  0  0  0  0  0  0  0  0  0
    6.0765    3.0695  -23.2836 H   0  0  0  0  0  0  0  0  0  0  0  0
    4.3685    3.3772  -22.8204 H   0  0  0  0  0  0  0  0  0  0  0  0
    8.4220    6.9386  -21.7719 H   0  0  0  0  0  0  0  0  0  0  0  0
    7.8115    2.7206  -21.1821 H   0  0  0  0  0  0  0  0  0  0  0  0
    7.7686    4.6556  -22.6697 H   0  0  0  0  0  0  0  0  0  0  0  0
    7.0182    1.4762  -19.1860 H   0  0  0  0  0  0  0  0  0  0  0  0
    8.7001    2.3617  -17.5802 H   0  0  0  0  0  0  0  0  0  0  0  0
    9.3603    2.3602  -19.2507 H   0  0  0  0  0  0  0  0  0  0  0  0
    8.7918    3.8952  -18.5109 H   0  0  0  0  0  0  0  0  0  0  0  0
    3.6536    3.4528  -20.7507 H   0  0  0  0  0  0  0  0  0  0  0  0
    3.3393    3.9013  -17.3566 H   0  0  0  0  0  0  0  0  0  0  0  0
    2.5161    3.8716  -18.8803 H   0  0  0  0  0  0  0  0  0  0  0  0
  1  2  2  0  0  0  0
  1  4  1  0  0  0  0
  2  5  1  0  0  0  0
  3  5  2  0  0  0  0
  3  6  1  0  0  0  0
  4  6  2  0  0  0  0
  4 16  1  0  0  0  0
  5 21  1  0  0  0  0
  6 22  1  0  0  0  0
  7 18  2  0  0  0  0
  7 19  1  0  0  0  0
  7 23  1  0  0  0  0
  8  9  1  0  0  0  0
  8 12  1  0  0  0  0
  9 12  1  0  0  0  0
 10 13  1  0  0  0  0
 10 14  1  0  0  0  0
 11 16  1  0  0  0  0
 11 20  1  0  0  0  0
 12 14  1  0  0  0  0
 13 15  1  0  0  0  0
 13 16  1  0  0  0  0
 14 20  1  0  0  0  0
 15 17  1  0  0  0  0
 15 23  1  0  0  0  0
 16 18  1  0  0  0  0
  1 24  1  0  0  0  0
  2 25  1  0  0  0  0
  3 26  1  0  0  0  0
  8 27  1  0  0  0  0
  8 28  1  0  0  0  0
  9 29  1  0  0  0  0
  9 30  1  0  0  0  0
 10 31  1  0  0  0  0
 10 32  1  0  0  0  0
 11 33  1  0  0  0  0
 11 34  1  0  0  0  0
 12 35  1  0  0  0  0
 13 36  1  0  0  0  0
 14 37  1  0  0  0  0
 15 38  1  0  0  0  0
 17 39  1  0  0  0  0
 17 40  1  0  0  0  0
 17 41  1  0  0  0  0
 18 42  1  0  0  0  0
 19 43  1  0  0  0  0
 19 44  1  0  0  0  0
M  CHG  1  18   1
M  END
> <OMEGA_C>
M5SXQIc/4T4wRqXBa4GYQIoFdb/wX6bBYJvSQJyYRb/EPbPBBjq0QDoioT/UKqvBMNK1QALUx79M
Y63BL1XSQBIeID/xJ7LBTjuRQE/MWkAM1pfBidXVQEm68kCBHbjBexnKQKiT9EBxJKzB4oXoQPEn
lkCjmaTBE2OtQBOdYEDxKLTBGkXsQKx11UC6ILDBVVPhQEkpS0DIU6TBcxviQNjHpUBpDLDB6Jvm
QPfDI0BAGJnBKQi1QIJCMkB1Q6nBOdQJQZD1M0AtpJTBp4eQQJkKUEAITaLBPrZWQIXLcEBCxpLB
wXe2QPsjnUC0O7PBx6a2QIXkOcC7cK7BYgPwQA77qD/DyLfBhj6/QLCST0D904/B99WAQLJlZT92
45/B5J6CQNTMyL8n0aHBcBzpQHDynr8nnbjB+Au/QAxK5UCb673BGWvnQF+sBkGB1bvBY1HTQII/
CEHMTafBQvKqQFJw6EDnY6nBkHLRQGkNpkArRp/BEaMEQR2KnUCi9KHBBnPCQMNyREDSRLrBmsqL
QHUjWEA1kLbBbMAGQUYJ3kDFLK7BxPf5QJ4eLkDcdKnBvZj4QPP6lECVW7XBdZXgQJ3zvD/hfJnB
uzMLQewlF0AypIzBl8MVQQQOF0BpAZrBSKsMQYJLeUBJFpTBlNRpQE77XEBeAabBeLZVQPqueUBb
2orBmAghQK3Id0DbCpfB7S7SQHQVMz8RHLLBth7VQJbkLr+gwrPBnpaaQLjHg7/yP6fBDjmzQDNU
oD8ICqvBkEa5QMUlxr9pVq7B7TiXQEvgtj6jiqXBUy+RQGj3W0CCxJfBokHTQB8280AcobfBDDLI
QPj/80A3nKvBRk/oQG6/lUAIhqTBGR+uQDMRX0BoJbTBT9LqQDTo1UCe16/B6ODgQCwxSkAiWaTB
ELvhQFL4pUAx7a/BlKXmQJ0MIkDuKpnBBzy0QDMaMkCmHKnBxLoJQYZhNECprJTBwIWQQHW4U0BJ
Q6LBBMFWQA3/cUBorZLBGmq2QJ2PnECPP7PBTuO7QPNUOMAG96/BLuRxQEIrRj+Ok57Bway+QKMU
SkCCt4/BntznQG3prT8fSrbBC8XsQJBuir/3MbnB41qFQEzq2b9VEaPBmW68QA6n5UBkaL3BKwbk
QAo7B0FBTLvB9hLRQCTmB0FpsKbBZXupQEL95kCMzKjB7m3RQEOIpUDkH5/BspMEQUncnECv56HB
2GfEQLb0QkBb+7nB0AeNQKdhVUAr5LbB1fsFQZ0Z30A3+a3BcST5QOFBLUAjmanBl7z4QJ0DlkCf
QrXB67XhQJDvuD9er5nBTkoLQWEBF0Aft4zBvt8VQRNUGUBsEprB/RMMQU70eUD7BJTBYGhrQL+J
ZUAhBKbBURpVQLBBd0AFtYrB5NIhQECjfEAu+ZbB

> <OMEGA_E>
IHpJPsDJbz4=

> <OMEGA_NBR>
     80016

$$$$
303944
  -OEChem-04172616093D

 51 53  0     1  0  0  0  0  0999 V2000
    4.7736    0.4667  -20.7397 C   0  0  0  0  0  0  0  0  0  0  0  0
    6.6726   -0.7277  -22.4350 C   0  0  0  0  0  0  0  0  0  0  0  0
    5.7512    1.2687  -21.3483 C   0  0  0  0  0  0  0  0  0  0  0  0
    4.6713   -0.8836  -21.0587 C   0  0  0  0  0  0  0  0  0  0  0  0
    6.7308    0.6493  -22.1880 C   0  0  0  0  0  0  0  0  0  0  0  0
    5.6257   -1.4904  -21.9077 C   0  0  0  0  0  0  0  0  0  0  0  0
    4.5367    3.4283  -18.9529 C   0  0  0  0  0  0  0  0  0  0  0  0
    7.2334    4.7562  -20.5615 C   0  0  0  0  0  0  0  0  0  0  0  0
    5.4566    3.4353  -22.4887 C   0  0  0  0  0  0  0  0  0  0  0  0
    7.0701    3.2203  -20.4736 C   0  0  1  0  0  0  0  0  0  0  0  0
    6.9938    5.1957  -22.0208 C   0  0  2  0  0  0  0  0  0  0  0  0
    7.1959    2.5823  -19.0624 C   0  0  1  0  0  0  0  0  0  0  0  0
    5.7180    2.7775  -21.1052 C   0  0  2  0  0  0  0  0  0  0  0  0
    7.1687    6.7055  -22.1586 C   0  0  0  0  0  0  0  0  0  0  0  0
    3.5621   -1.6597  -20.4111 C   0  0  0  0  0  0  0  0  0  0  0  0
    8.5982    2.7410  -18.4726 C   0  0  0  0  0  0  0  0  0  0  0  0
    5.0451   -3.3239  -19.3614 C   0  0  0  0  0  0  0  0  0  0  0  0
    5.1658   -4.1726  -18.1107 C   0  0  0  0  0  0  0  0  0  0  0  0
    4.5416    3.2143  -20.2553 N   0  3  0  0  0  0  0  0  0  0  0  0
    3.3456    3.8061  -18.3540 N   0  0  0  0  0  0  0  0  0  0  0  0
    4.0647   -2.2342  -19.1570 N   0  0  0  0  0  0  0  0  0  0  0  0
    5.6557    4.8453  -22.4123 O   0  0  0  0  0  0  0  0  0  0  0  0
    7.7135    1.3443  -22.8090 F   0  0  0  0  0  0  0  0  0  0  0  0
    5.5434   -2.7971  -22.2406 F   0  0  0  0  0  0  0  0  0  0  0  0
    8.8409    4.0283  -18.1276 F   0  0  0  0  0  0  0  0  0  0  0  0
    5.9225   -5.2610  -18.4073 F   0  0  0  0  0  0  0  0  0  0  0  0
    5.7576   -3.4516  -17.1223 F   0  0  0  0  0  0  0  0  0  0  0  0
    3.9268   -4.5740  -17.7167 F   0  0  0  0  0  0  0  0  0  0  0  0
    5.9509    3.2681  -17.9236 S   0  0  0  0  0  0  0  0  0  0  0  0
    4.0962    0.9005  -20.0191 H   0  0  0  0  0  0  0  0  0  0  0  0
    7.4369   -1.2012  -23.0333 H   0  0  0  0  0  0  0  0  0  0  0  0
    6.5004    5.2448  -19.9027 H   0  0  0  0  0  0  0  0  0  0  0  0
    8.2504    5.0388  -20.2520 H   0  0  0  0  0  0  0  0  0  0  0  0
    6.1502    3.0105  -23.2293 H   0  0  0  0  0  0  0  0  0  0  0  0
    4.4207    3.2314  -22.7975 H   0  0  0  0  0  0  0  0  0  0  0  0
    7.8665    2.7802  -21.0918 H   0  0  0  0  0  0  0  0  0  0  0  0
    7.7248    4.6894  -22.6683 H   0  0  0  0  0  0  0  0  0  0  0  0
    6.9655    1.5097  -19.1433 H   0  0  0  0  0  0  0  0  0  0  0  0
    6.9946    7.0014  -23.2036 H   0  0  0  0  0  0  0  0  0  0  0  0
    6.4465    7.2191  -21.5070 H   0  0  0  0  0  0  0  0  0  0  0  0
    8.1912    6.9844  -21.8641 H   0  0  0  0  0  0  0  0  0  0  0  0
    2.7155   -0.9900  -20.1992 H   0  0  0  0  0  0  0  0  0  0  0  0
    3.2325   -2.4661  -21.0826 H   0  0  0  0  0  0  0  0  0  0  0  0
    8.6852    2.1070  -17.5779 H   0  0  0  0  0  0  0  0  0  0  0  0
    9.3401    2.4237  -19.2203 H   0  0  0  0  0  0  0  0  0  0  0  0
    6.0266   -2.8877  -19.5987 H   0  0  0  0  0  0  0  0  0  0  0  0
    4.7133   -3.9569  -20.1975 H   0  0  0  0  0  0  0  0  0  0  0  0
    3.6747    3.3558  -20.7333 H   0  0  0  0  0  0  0  0  0  0  0  0
    3.3133    3.9768  -17.3692 H   0  0  0  0  0  0  0  0  0  0  0  0
    2.5184    3.9080  -18.9065 H   0  0  0  0  0  0  0  0  0  0  0  0
    4.5040   -1.5074  -18.6290 H   0  0  0  0  0  0  0  0  0  0  0  0
  1  3  1  0  0  0  0
  1  4  2  0  0  0  0
  2  5  1  0  0  0  0
  2  6  2  0  0  0  0
  3  5  2  0  0  0  0
  3 13  1  0  0  0  0
  4  6  1  0  0  0  0
  4 15  1  0  0  0  0
  5 23  1  0  0  0  0
  6 24  1  0  0  0  0
  7 19  2  0  0  0  0
  7 20  1  0  0  0  0
  7 29  1  0  0  0  0
  8 10  1  0  0  0  0
  8 11  1  0  0  0  0
  9 13  1  0  0  0  0
  9 22  1  0  0  0  0
 10 12  1  0  0  0  0
 10 13  1  0  0  0  0
 11 14  1  0  0  0  0
 11 22  1  0  0  0  0
 12 16  1  0  0  0  0
 12 29  1  0  0  0  0
 13 19  1  0  0  0  0
 15 21  1  0  0  0  0
 16 25  1  0  0  0  0
 17 18  1  0  0  0  0
 17 21  1  0  0  0  0
 18 26  1  0  0  0  0
 18 27  1  0  0  0  0
 18 28  1  0  0  0  0
  1 30  1  0  0  0  0
  2 31  1  0  0  0  0
  8 32  1  0  0  0  0
  8 33  1  0  0  0  0
  9 34  1  0  0  0  0
  9 35  1  0  0  0  0
 10 36  1  0  0  0  0
 11 37  1  0  0  0  0
 12 38  1  0  0  0  0
 14 39  1  0  0  0  0
 14 40  1  0  0  0  0
 14 41  1  0  0  0  0
 15 42  1  0  0  0  0
 15 43  1  0  0  0  0
 16 44  1  0  0  0  0
 16 45  1  0  0  0  0
 17 46  1  0  0  0  0
 17 47  1  0  0  0  0
 19 48  1  0  0  0  0
 20 49  1  0  0  0  0
 20 50  1  0  0  0  0
 21 51  1  0  0  0  0
M  CHG  1  19   1
M  END
> <OMEGA_C>
PsGYQHjz7j736qXBuoXVQPhIOr/herPBmAm4QJJloj84yarBSHuVQEw0Yr8peKjBZGLXQIQ2Jj8K
gbHBgAW0QKLFvr/+Qq/BXiyRQPVpW0Ccn5fBrnfnQAQzmEANfqTBMpyuQB7cW0Dq6LPBlD7iQAQZ
TkD1yaPBMM3fQM5CpkCMKrDB/ETmQExEJUCzf5jBrvm2QCrDMUBe16jB/mXlQC6T1kDIRLHB6Phj
QPJv1L/kSaPBZ5IJQdhrL0Dwx5PBZHGhQIm6VMAd5JrBfE6lQNiFhcCs4pDBdFSRQLa3TUDYCqLB
+R5WQLiWc0D11JLBzBGCQH/8DsCZQZnBwPu0QPgMm0BVTLPB0tT2QHUQrD/DeLbBLGOxQKUDM8DA
7LHBY3QNQQDogEBlBZHByIS9QLRZqMA9QpPB9D24QG/mXMBw+ojBMVB7QGReksDSu43Bom2+QPso
UUCJY4/B+xODQIOIZj8VJ6DBG/vtQJzBmb8wRLjBlwPQQFHVp0CmOJ/BewEEQR4+oUAIBKLBr87E
QLGsQECL1bnBBXaNQLTPTkA4YbbBTrr7QFHvMUAMvKjBtzH3QGEPlkCuWLXBw+XeQDM/wT+RJZnB
29PfQIQL4EAHobnBfUnOQO4C50BYDqzBHg8DQSyA30C26a7BxsotQLtxfb/zl6HBA+FOQEfVHcA2
qajBu/YKQY3ZBkCBn4zBDHEVQUseG0Arw5nB/tnAQJHPOMA2ypzBdtOWQI0+fcCRlKHBLi5rQFzF
VkDl3aXBZA1UQCeDfkAY9IrBli0hQK4cekCNQJfBeSCQQL7xwL81CJXBHzCWQMW86j4uwqXB+aPS
QH8XUb996LLBH5e2QNXTnj9EtKrBtq+TQJG/br8OcqfBBPbUQPVHEz9IXrHBRVWyQHNJyb+O+a3B
+NKRQHrnWEAX4ZfBGIrnQL03mkDjbqTBlkaxQEehXUCXGbTBXY7jQGfXUEBW9KPBkUfeQJTSqkDS
06/BPGPpQAnQKUAuj5jBqgi4QBASMkDS/KjBk7rfQPcB3ECcCrDB/QlkQGB+3r8ZdaHBFowKQdKf
QEB1eZPBJQqmQHTYJcDQ5ZPBl+C1QKZBE8D9hYjBJsOSQA5HUEDoXaLBf8tWQBFucECpLpPB4tV7
QPFN6r9YApbB15K0QBOfnEAyNbPBJ7b0QLk2nz8eb7bBsHmxQICJOsBSZ6/B9rkLQftjikBuupDB
aI/bQKiZPMA34YbBAye8QDs0dr/RTIfBWoeYQFq3LsAXRoHBy1u+QHA/SkCaZo/BNSB+QLxQcD82
naDBGPDpQFF7p7/87rfBiXPQQGSCqEBV1Z7BiRgEQayLo0DaHaLBAdDJQLxfRkA2s7nBF1aRQBbr
TEANJ7fBPkb9QJKcNkBI/ajBDPb2QHRfnkB4RrXBuvnmQPOCxz/tLpnBuhTZQHJk50BwM7jBen3H
QInX6ECHhqrBlKf/QAL65kBSjK3BtIQlQK/hnr9PNKLBWilgQO32L8AO46TB+dEMQdh7GUCsP4zB
BlAXQUdPMkAoQ5nBVrK+QK9pEsBwsJnBirefQEHGasCevJTBCPtvQJFVX0AEU6bBIlBTQON6eED8
QYvB1tYiQJlZeUD5t5fBi66BQDz4Zr/TL5PBb/2VQLgK+z4EtqbBsJXWQOSPRb/poLLBeau2QCrP
oj/ALqvBfgSVQCDzY7+DOKjB1Q/XQIihHz8+Z7HB8NW1QO5gxL9UA67BlUCRQB+hWkB4vZfBvz/n
QBrdl0B9SaTB6RSvQFqeXUAeFrTBcL/hQGdkTUBA+KPBfvHfQPgtp0CS4K/B7NblQKhXI0BHxJjB
tHi2QAAxMkAsGanBnSjlQMCm10ConbDBhvRlQAZ80r/9TaLBIWQJQWd2LUCPKpTBbnOkQGPhEsCD
VpPBT86cQKuPdMB4Y5PBzDaRQLL+TkDRNaLBNKpWQOShckAN2JLBYMl6QHKoxr/twJbB+021QOT3
m0AIOLPBmtj2QCSbpj9SYbbBA5y2QBEeOMD1Hq/BBXsXQXpdBEDJp5rBw667QF5pjcBYc43BrLdr
QM7SgsCDBI/By1GeQAL3isAYbJ3B/c++QOImUECimI/BR3J6QOD+dj/wB6LBzJHvQPMsob/xJbfB
c7vPQMgCp0D68Z7BlOIDQQN1oEC1saHB7NnFQE9lQ0A/8bnBRi+OQGXKUEB9xrbB1j/7QI4MMkAg
+6jBn7L3QHzIl0CPG7XBGi3eQFWwvT9qcZnB19rfQIQJ4kA767jBfq/NQJBH50BhWavBSNkCQX2U
4EDuG67B5uUmQBcImb8R3KPB2HtlQNmeLMC/2qTBgYgNQYTLcUA6upPByAAKQd5gEUBDGozB6DKt
QD9l/b8oMovBwci+QPS/A8DY3JjBqD9rQGZsWkDAAKbByDVVQBtLfUA09YrBDWEhQOxLeUAxMpfB
UpaBQNw0Fr8W8pTB

> <OMEGA_E>
dLEeP4SeHz/Okx0/

> <OMEGA_NBR>
     82904

$$$$
303943
  -OEChem-04172616093D

 51 53  0     1  0  0  0  0  0999 V2000
    5.5001   -1.5152  -21.9031 C   0  0  0  0  0  0  0  0  0  0  0  0
    6.5372   -0.7722  -22.4721 C   0  0  0  0  0  0  0  0  0  0  0  0
    4.7725    0.4322  -20.6369 C   0  0  0  0  0  0  0  0  0  0  0  0
    5.7435    1.2344  -21.2998 C   0  0  0  0  0  0  0  0  0  0  0  0
    4.6547   -0.9391  -20.9313 C   0  0  0  0  0  0  0  0  0  0  0  0
    6.6684    0.5923  -22.1786 C   0  0  0  0  0  0  0  0  0  0  0  0
    4.5549    3.3907  -18.9770 C   0  0  0  0  0  0  0  0  0  0  0  0
    7.2222    4.8299  -20.5449 C   0  0  0  0  0  0  0  0  0  0  0  0
    5.5404    3.4385  -22.4968 C   0  0  0  0  0  0  0  0  0  0  0  0
    7.1156    3.2754  -20.4724 C   0  0  1  0  0  0  0  0  0  0  0  0
    6.9395    5.3244  -21.9832 C   0  0  2  0  0  0  0  0  0  0  0  0
    7.3019    2.6793  -19.0440 C   0  0  1  0  0  0  0  0  0  0  0  0
    5.7646    2.7738  -21.0989 C   0  0  2  0  0  0  0  0  0  0  0  0
    6.9764    6.8600  -22.0415 C   0  0  0  0  0  0  0  0  0  0  0  0
    3.6517   -1.8113  -20.1864 C   0  0  0  0  0  0  0  0  0  0  0  0
    8.6483    3.0815  -18.3967 C   0  0  0  0  0  0  0  0  0  0  0  0
    5.4502   -3.4885  -19.6859 C   0  0  0  0  0  0  0  0  0  0  0  0
    5.9789   -4.4785  -18.6670 C   0  0  0  0  0  0  0  0  0  0  0  0
    4.5884    3.2332  -20.2843 N   0  3  0  0  0  0  0  0  0  0  0  0
    3.3537    3.7710  -18.3998 N   0  0  0  0  0  0  0  0  0  0  0  0
    4.3227   -2.6626  -19.1603 N   0  0  0  0  0  0  0  0  0  0  0  0
    5.6382    4.8700  -22.4043 O   0  0  0  0  0  0  0  0  0  0  0  0
    7.6691    1.2648  -22.7921 F   0  0  0  0  0  0  0  0  0  0  0  0
    8.6124    4.3576  -17.9216 F   0  0  0  0  0  0  0  0  0  0  0  0
    7.0646   -5.0992  -19.2022 F   0  0  0  0  0  0  0  0  0  0  0  0
    6.3472   -3.8207  -17.5365 F   0  0  0  0  0  0  0  0  0  0  0  0
    5.0199   -5.3966  -18.3867 F   0  0  0  0  0  0  0  0  0  0  0  0
    5.9357    3.1532  -17.9074 S   0  0  0  0  0  0  0  0  0  0  0  0
    5.3440   -2.5390  -22.2095 H   0  0  0  0  0  0  0  0  0  0  0  0
    7.2393   -1.2499  -23.1394 H   0  0  0  0  0  0  0  0  0  0  0  0
    4.1203    0.8797  -19.9015 H   0  0  0  0  0  0  0  0  0  0  0  0
    6.4880    5.2758  -19.8577 H   0  0  0  0  0  0  0  0  0  0  0  0
    8.2358    5.1377  -20.2487 H   0  0  0  0  0  0  0  0  0  0  0  0
    6.3037    3.0696  -23.1978 H   0  0  0  0  0  0  0  0  0  0  0  0
    4.5407    3.1687  -22.8680 H   0  0  0  0  0  0  0  0  0  0  0  0
    7.9252    2.8697  -21.0968 H   0  0  0  0  0  0  0  0  0  0  0  0
    7.7154    4.9247  -22.6528 H   0  0  0  0  0  0  0  0  0  0  0  0
    7.2600    1.5824  -19.1156 H   0  0  0  0  0  0  0  0  0  0  0  0
    6.7736    7.1934  -23.0699 H   0  0  0  0  0  0  0  0  0  0  0  0
    6.2120    7.2709  -21.3656 H   0  0  0  0  0  0  0  0  0  0  0  0
    7.9700    7.2149  -21.7303 H   0  0  0  0  0  0  0  0  0  0  0  0
    2.9159   -1.1634  -19.6875 H   0  0  0  0  0  0  0  0  0  0  0  0
    3.1372   -2.4614  -20.9093 H   0  0  0  0  0  0  0  0  0  0  0  0
    8.8633    2.3960  -17.5638 H   0  0  0  0  0  0  0  0  0  0  0  0
    9.4451    3.0033  -19.1510 H   0  0  0  0  0  0  0  0  0  0  0  0
    6.2698   -2.8169  -19.9812 H   0  0  0  0  0  0  0  0  0  0  0  0
    5.0972   -4.0454  -20.5664 H   0  0  0  0  0  0  0  0  0  0  0  0
    3.7475    3.4399  -20.7844 H   0  0  0  0  0  0  0  0  0  0  0  0
    3.2935    3.9006  -17.4101 H   0  0  0  0  0  0  0  0  0  0  0  0
    2.5472    3.9157  -18.9731 H   0  0  0  0  0  0  0  0  0  0  0  0
    4.6808   -2.0645  -18.4433 H   0  0  0  0  0  0  0  0  0  0  0  0
  1  2  2  0  0  0  0
  1  5  1  0  0  0  0
  2  6  1  0  0  0  0
  3  4  1  0  0  0  0
  3  5  2  0  0  0  0
  4  6  2  0  0  0  0
  4 13  1  0  0  0  0
  5 15  1  0  0  0  0
  6 23  1  0  0  0  0
  7 19  2  0  0  0  0
  7 20  1  0  0  0  0
  7 28  1  0  0  0  0
  8 10  1  0  0  0  0
  8 11  1  0  0  0  0
  9 13  1  0  0  0  0
  9 22  1  0  0  0  0
 10 12  1  0  0  0  0
 10 13  1  0  0  0  0
 11 14  1  0  0  0  0
 11 22  1  0  0  0  0
 12 16  1  0  0  0  0
 12 28  1  0  0  0  0
 13 19  1  0  0  0  0
 15 21  1  0  0  0  0
 16 24  1  0  0  0  0
 17 18  1  0  0  0  0
 17 21  1  0  0  0  0
 18 25  1  0  0  0  0
 18 26  1  0  0  0  0
 18 27  1  0  0  0  0
  1 29  1  0  0  0  0
  2 30  1  0  0  0  0
  3 31  1  0  0  0  0
  8 32  1  0  0  0  0
  8 33  1  0  0  0  0
  9 34  1  0  0  0  0
  9 35  1  0  0  0  0
 10 36  1  0  0  0  0
 11 37  1  0  0  0  0
 12 38  1  0  0  0  0
 14 39  1  0  0  0  0
 14 40  1  0  0  0  0
 14 41  1  0  0  0  0
 15 42  1  0  0  0  0
 15 43  1  0  0  0  0
 16 44  1  0  0  0  0
 16 45  1  0  0  0  0
 17 46  1  0  0  0  0
 17 47  1  0  0  0  0
 19 48  1  0  0  0  0
 20 49  1  0  0  0  0
 20 50  1  0  0  0  0
 21 51  1  0  0  0  0
M  CHG  1  19   1
M  END
> <OMEGA_C>
dQCwQJrywb99Oa/BnjDRQEqvRb/LxrPBAriYQGdJ3T5SGKXBBMu3QP0Anj/0ZarBK/OUQHBocL9I
c6fBcGPVQNyfFz+3bbHBGcKRQP4BWUDv0JfBAxznQJiOmkD7W6TBW0uxQN8PXEBt+bPB+LLjQGyg
UUB4x6PBtxDeQDphqkCW3a/B+ajpQI55K0AwWpjBpXe4QImGMUCSyqjBej7fQHCF20DvVLDBs7Rp
QDrX57+vfaHBZl8KQbM3RUBkLJPBaGiuQAFEX8DNfJ3B11K/QPpPj8AIVpXBg9SSQGPtTkArRqLB
sKNWQLhXcUDWMpPBd1OKQHNnKsBSSJnBFGy0QDrXm0D5O7PBkmn1QGbmoT8zVrbBb8wJQa1xi0Bd
X4/BGhHiQPcso8ARnpnBfRzLQFiGdMCxSozBEKOgQLqwrMACGJPBQPG9QDbNSUBmQo/BLQKrQCZ/
IsAMrbHBG6jnQO38n79oHbnBQNmDQIszYT8/Np/B1p3PQEfTqECm3J7B5MUDQUhopEA9/aHB97fJ
QAV1REAUlbnBqk2RQA3MSkCl8bbBo5v9QOOoN0AxxqjBjeT2QEaXnUDcOLXBAFLoQM2Myj+27JjB
n8HYQJcw5kA8j7jBfsjGQHSr6ECq7KrB7An/QKLg5kCW163BYp06QGDplL8MgJ3B7cdIQEaIHcAz
RqfBLNANQVJXGUCSgozB9B4XQaI1QEBLNZnBdqLIQD5INMCZ2Z/BBhyjQJhzgcAPiKTBSddvQOwn
XEBpRqbBoMhSQPajeUDgR4vB3AUjQKuaekDVyJfB7MiVQAghBMDfi5PBYS2yQD46yb/DB67BA5PS
QB/MUb/k8rLBH2GWQNjF6D5OsqXBo7W2QGZ3nj9gq6rBiuCTQC1ob7+Ob6fBLAnVQKmLEj+zW7HB
cNiRQJ3hWEDw3ZfBp4HnQME+mkD5baTBaUuxQEFtXUBeFbTBy5XjQODgUEDj76PB3DjeQLLMqkCi
06/Bx2/pQNj+KUDxiJjBCRe4QB/vMUBQ96jBE5bfQDD920CqDLDBSBhlQE3M4L+TiKHBwZAKQQD5
QEDtc5PBOWamQKw1JsB955PBqRe2QORpE8D5hIjBksmSQGYTUEAaWqLBW9FWQDpmcEAULZPBfU58
QA8a7L8BEJbBtoi0QEOHnECjM7PBPMn0QIDonj+ia7bB37ULQdCTikAbt5DB/dLbQPeGPMCI2YbB
0Te8QLGwdr+ZS4fBrbqYQGIIL8AvSIHBGGK+QGdvSkA7Yo/B5H2wQHXlKMCiTa/BJszpQOXkp78f
/rfBjb9+QPqubj/ugKDBVGfQQMOHqEAg1Z7B/xIEQTGfo0DGHaLBadfJQN0yRkC/rrnB/VyRQHud
TED9IbfBYFP9QBqrNkBs96jBj+v2QHNfnkDtRbXBKRHnQOvZxz9uJZnB7OvYQL9W50ANNrjByVLH
QAbM6EBPiarB+X3/QDgF50Cyjq3BUR4mQPsto79IVaLBy3RiQDIiMcD2+aTB29oMQWzkGUArOYzB
7VUXQbqzMkBhPZnB0xC/QEWFEsABrpnBIEugQAo4a8CTvZTBOf1vQAfvXkD3T6bBHFNTQIWPeEDg
QIvBA9siQCM0eUD+tpfB8aWBQElVar/QPJPBxDK1QKxvw7+8p67BQnTWQMi3Q79/B7PB9t+WQLxb
8j5jlKbBzT63QDnHoT94GqvB+XaVQNQ+Zr8fcajBYIrXQI4ZID9BcbHBZUqRQMLRW0BOtJfBHErn
QGTgl0AlU6TBKwGvQEKrXEDLBLTBmM/hQI5cTUAi46PB0dffQJjOpkCe8a/BSIjlQMMLJEAso5jB
OqO2QOKjMUAHA6nBzPnkQDBB10AYzbDBvhBpQFrh17+ieKLB31UJQTu4K0AcHZTBBOepQMk+FsBN
UpTBoeynQLWCd8D1ppbBOSaRQFDATUCYIaLBRnZWQHYvc0Bg1JLBdsWAQG6g1L/3/ZbB6im1QDZ8
m0C/N7PBtXj3QM+spz+7TrbBFtMWQXMy+z+VZZrB8oPGQEDXj8Cj0pDBQNeAQDxEi8DV0ZPBthmv
QGaXhMAZJqHBLQ+/QMvUU0Bllo/BduezQPnjJcA0C7DBXVDvQNuAn7+oobfBvZJ9QAYbbz9smaHB
ttTPQG80p0DQ/57BS+sDQZmSoEB6xqHBxq7FQNRKQkDU4rnBFRGOQIKiT0AZqbbBNGr7QNqbMUCH
1KjBCYf3QIg8l0BuKbXB0NvcQJj1vz/7OZnBrJDfQO5Q4UDzH7nBV4nNQAwM50BBjqvBnsMCQcdT
4ECQVq7BOowpQDOenb8hiqPBX8pnQCxPLsDgZqXB80cOQUZIb0ANE5TBR7IJQfiJEkDa5YvBUcew
QFS/DMDoxYvBfbfDQIGZ87/9IZnB+Y5qQCeZVkBS56XBSP5UQL3QfkAF94rBDvwgQApseEDrLJfB
00yDQElrNL8GvpTB95yyQPj6wr+qUa7B+K7SQBjLRb/mU7PB65KYQECy8z7MXaXBV+W2QO74oT+n
16rBPo6WQMC8Z78D+qbBPDfVQKrlHD9wpbHB3n6RQEYfWkB+3JfBW33nQEOCmEA1WKTBv92vQHrk
XUDDJLTBoXfiQECBTkCPGaTBrYjfQMSEqEA/16/BpEDnQKBhJUBu65jBqBC3QJ6LMkCJGqnBPXjj
QCc+2UD/R7DBhDJmQM541b+obqHBCtQJQb2mNUBfQZTB/3akQAyTXsBEQ5rBbHWlQA69P8DJiI7B
z9SRQG+KUEBZWaLBg5BWQEc1cEAE9pLBD6t4QMRjR8BgKaDBnCu1QBpYnECEPLPBE6D0QKgrpD8x
17bBtR8MQUuaBUDlS4vBLAzGQOh8aMD7c4nB1oqsQNzC079C7I3BPeF/QGxwU8BtmYnB4ry+QLyE
TUDMp4/BilWvQEDaJMCqErDBgInpQCxmob/bf7jBfZ2CQLYTcj9i2p/BRxvQQMkyp0At457BuAcE
QXhCoUAN06HBiTnHQN2gREB+67nBm0KPQAfPT0AD9LbBM+v7QAXAM0AbLanB7az3QPhMmkAFK7XB
p9HhQNcIwD/AkJnBX73dQLBP5EDZgrjBxLHLQKS350AB5arBtucBQW3F4kCOwK3B8HlcQMiXnb9m
cpnBhkMrQL6Kx7+lKqbBHB4WQa2mI0CnI5rB64cLQZnWeUATPZLByce/QGvbQcD7fp7Be6inQHJX
ksD1TprBCXBtQC+IXkDIOKbB+FRUQOtheEAMCIvBQ6UhQLj4d0C5WpfBondHQG6bYcCUO5zB

> <OMEGA_E>
DMMiP9qgIz8aJiE/BFkhPw==

> <OMEGA_NBR>
     86656

$$$$
417121
  -OEChem-04172616093D

 44 47  0     1  0  0  0  0  0999 V2000
    4.7221    0.4684  -20.6502 C   0  0  0  0  0  0  0  0  0  0  0  0
    4.7423   -0.9295  -20.7751 C   0  0  0  0  0  0  0  0  0  0  0  0
    6.5679   -0.7702  -22.3750 C   0  0  0  0  0  0  0  0  0  0  0  0
    5.6273    1.2749  -21.3887 C   0  0  0  0  0  0  0  0  0  0  0  0
    5.6582   -1.5470  -21.6422 C   0  0  0  0  0  0  0  0  0  0  0  0
    6.5678    0.6281  -22.2517 C   0  0  0  0  0  0  0  0  0  0  0  0
    4.5364    3.3922  -18.9851 C   0  0  0  0  0  0  0  0  0  0  0  0
    6.6511    7.6080  -23.0032 C   0  0  0  0  0  0  0  0  0  0  0  0
    6.2962    7.6569  -21.5032 C   0  0  0  0  0  0  0  0  0  0  0  0
    7.2614    4.7124  -20.5777 C   0  0  0  0  0  0  0  0  0  0  0  0
    5.4338    3.5187  -22.5318 C   0  0  0  0  0  0  0  0  0  0  0  0
    7.3681    6.6958  -22.0136 C   0  0  0  0  0  0  0  0  0  0  0  0
    7.0467    3.1934  -20.5487 C   0  0  1  0  0  0  0  0  0  0  0  0
    7.0624    5.2035  -22.0079 C   0  0  2  0  0  0  0  0  0  0  0  0
    7.2257    2.5519  -19.1542 C   0  0  1  0  0  0  0  0  0  0  0  0
    5.6635    2.8026  -21.1643 C   0  0  2  0  0  0  0  0  0  0  0  0
    8.6179    2.8420  -18.5679 C   0  0  0  0  0  0  0  0  0  0  0  0
    4.5292    3.2850  -20.2988 N   0  3  0  0  0  0  0  0  0  0  0  0
    3.3554    3.7445  -18.3525 N   0  0  0  0  0  0  0  0  0  0  0  0
    5.7052    4.9223  -22.4166 O   0  0  0  0  0  0  0  0  0  0  0  0
    5.6696   -2.8910  -21.7680 F   0  0  0  0  0  0  0  0  0  0  0  0
    7.5018    1.3110  -22.9580 F   0  0  0  0  0  0  0  0  0  0  0  0
    8.6825    4.0948  -18.0412 F   0  0  0  0  0  0  0  0  0  0  0  0
    5.9455    3.1115  -17.9712 S   0  0  0  0  0  0  0  0  0  0  0  0
    4.0104    0.9353  -19.9853 H   0  0  0  0  0  0  0  0  0  0  0  0
    4.0519   -1.5317  -20.2030 H   0  0  0  0  0  0  0  0  0  0  0  0
    7.2723   -1.2508  -23.0378 H   0  0  0  0  0  0  0  0  0  0  0  0
    5.9367    7.1845  -23.7246 H   0  0  0  0  0  0  0  0  0  0  0  0
    7.1895    8.4462  -23.4694 H   0  0  0  0  0  0  0  0  0  0  0  0
    6.5816    8.5295  -20.8974 H   0  0  0  0  0  0  0  0  0  0  0  0
    5.3288    7.2678  -21.1527 H   0  0  0  0  0  0  0  0  0  0  0  0
    6.5347    5.2024  -19.9129 H   0  0  0  0  0  0  0  0  0  0  0  0
    8.2822    4.9490  -20.2430 H   0  0  0  0  0  0  0  0  0  0  0  0
    6.1040    3.0812  -23.2863 H   0  0  0  0  0  0  0  0  0  0  0  0
    4.3885    3.3767  -22.8435 H   0  0  0  0  0  0  0  0  0  0  0  0
    8.4064    6.9714  -21.7770 H   0  0  0  0  0  0  0  0  0  0  0  0
    7.8144    2.7512  -21.2006 H   0  0  0  0  0  0  0  0  0  0  0  0
    7.7738    4.6867  -22.6689 H   0  0  0  0  0  0  0  0  0  0  0  0
    7.0958    1.4633  -19.2443 H   0  0  0  0  0  0  0  0  0  0  0  0
    8.8329    2.1092  -17.7762 H   0  0  0  0  0  0  0  0  0  0  0  0
    9.3690    2.7501  -19.3664 H   0  0  0  0  0  0  0  0  0  0  0  0
    3.6867    3.5505  -20.7675 H   0  0  0  0  0  0  0  0  0  0  0  0
    3.3280    3.8301  -17.3566 H   0  0  0  0  0  0  0  0  0  0  0  0
    2.5304    3.9131  -18.8918 H   0  0  0  0  0  0  0  0  0  0  0  0
  1  2  1  0  0  0  0
  1  4  2  0  0  0  0
  2  5  2  0  0  0  0
  3  5  1  0  0  0  0
  3  6  2  0  0  0  0
  4  6  1  0  0  0  0
  4 16  1  0  0  0  0
  5 21  1  0  0  0  0
  6 22  1  0  0  0  0
  7 18  2  0  0  0  0
  7 19  1  0  0  0  0
  7 24  1  0  0  0  0
  8  9  1  0  0  0  0
  8 12  1  0  0  0  0
  9 12  1  0  0  0  0
 10 13  1  0  0  0  0
 10 14  1  0  0  0  0
 11 16  1  0  0  0  0
 11 20  1  0  0  0  0
 12 14  1  0  0  0  0
 13 15  1  0  0  0  0
 13 16  1  0  0  0  0
 14 20  1  0  0  0  0
 15 17  1  0  0  0  0
 15 24  1  0  0  0  0
 16 18  1  0  0  0  0
 17 23  1  0  0  0  0
  1 25  1  0  0  0  0
  2 26  1  0  0  0  0
  3 27  1  0  0  0  0
  8 28  1  0  0  0  0
  8 29  1  0  0  0  0
  9 30  1  0  0  0  0
  9 31  1  0  0  0  0
 10 32  1  0  0  0  0
 10 33  1  0  0  0  0
 11 34  1  0  0  0  0
 11 35  1  0  0  0  0
 12 36  1  0  0  0  0
 13 37  1  0  0  0  0
 14 38  1  0  0  0  0
 15 39  1  0  0  0  0
 17 40  1  0  0  0  0
 17 41  1  0  0  0  0
 18 42  1  0  0  0  0
 19 43  1  0  0  0  0
 19 44  1  0  0  0  0
M  CHG  1  18   1
M  END
> <OMEGA_C>
HBuXQOPX7z6FM6XBycCXQNj2bb9cM6bBRizSQGssRb///7LBwBK0QHswoz/+G6vBvw+1QK8Cxr9D
I63BzivSQFDOID9+A7LB9CmRQGkaWUB34ZfBgdXUQFx080CZBrjBRnrJQAAF9UCSBqzBQF3oQALM
lkAcn6TBf+GtQKoxYUAHQbTBy8frQKpD1kDkG7DBLn7hQPNfTECtY6TBMf/hQFuDpkAuELDB3Tjn
QOlRI0DlO5nBITu1QBxdM0BkUKnBEuMJQS3jNUAci5TBOe+QQM09UkDqY6LBZr9WQEWlb0Du0ZLB
TJG2QB2DnUAoVbPBbm21QDsGOcDbJK7BWQ7wQM/Ppz/rqbfBmusKQaoIg0BnVJDB8EG+QJgjR0Dz
xI/BklWAQOZxbz/q4Z/BQqmBQDcNxL/Gn6HB5bboQAIZoL9XTbjB0Pm9QHLn5UAOzL3BvBDmQNcj
B0FIwbvBm5zSQAR5CEH5LafBroWqQM2R6EC/OKnBixzRQMR5pkCpTZ/BwoMEQY9enkC48aHBV1TD
QKsyRUBnSrrBRW6MQHgbWEBkv7bBuIAGQVMV30A1N67B9g/6QEkTMEDCmqnBpML4QJb5lUDUWbXB
ohDjQB1Nuz9R9JnBcFMNQc78BkC0NY7BVucVQSYBMEBK7prB1fJrQOo6Y0DnI6bBiv1UQGIgdUA7
2orBefEhQCtwekBhIpfBLOzRQG5KND+VPrLBjBrVQFyCLb8P6LPBAmebQATfhL8nL6fBgD+zQAD/
nz+MDqvBesG5QINGxr+1ZK7BtfGXQLnAsT4IbKXBfBGRQDEYXEBvv5fBQMnUQAGi8kBU7LfB9vDK
QOge9ED316vBsJ7oQBmHlUDct6TBPHitQIMjX0CmHbTBEEnsQLP31EDpN7DBbMrgQJH6SUCbYKTB
aujhQEhMpUD0IbDBppTmQP8OIkAmKpnBzg60QDftMUAYGqnB3cEJQaWLM0A8n5TBQlOQQEkoU0AB
O6LBV7BWQCSickCGqJLB6km2QF6InEDFQ7PBkrC8QDpfOMBeALDBsBl1QBwlQT8UMZ7BCjYLQR/z
gUCEfJDBXj++QD70SECQro/B0C7nQCUurz9UgbbBIo/sQIAHib9aa7nBM3+GQFCf27/w8qLB7gm9
QAGE5UDDh73BNu3lQMqkBkH2wLvBMA/VQHbpB0E8CqfB6CusQFgN6EAI0ajBZgTSQEjCpUA1VJ/B
tcsEQa55nEBMLKLBizjDQKCOQkB2CrrBpSeMQHAmVkC4ubbB3usGQR1Q3UDEkq7BMuH4QINKLECs
nKnBLEf4QECClEC6ebXB5LDhQHf5uD+DupnBACsNQYPMBEBURI7B9JcVQSONLEBnE5vBfLBqQJoo
ZEBr+KXBqvhUQAKBd0A0r4rBau8hQAMJfkAu9ZbBejqZQNbU/D7TKKXBIM6dQGj7Y7/RlabBwQzS
QKBa/74+r7TBOu2wQMKTtD8/havBYi26QAePsb/VVK7BmJTNQEpKZD9UXbPB6gSPQJzcWEDMy5bB
manFQCjw8ECrA7nBB/SpQPXw6UDL+a7BsyPgQE64mkAMIqTBIh+lQNzTcUBIGbPBcV7YQF6M2kB1
Q6/BJVPcQLo5VEBOWKTB553iQPaaqkDDqq/BwO3kQGBDKUB5jJnB6NOvQMz7OkCi6qjBJnAJQcDk
O0Dd5pXB7AOMQHhdT0D/PqHBTzlUQIScbEAQL5HB4BvJQKVbkUAWTbfB8mK+QIgeLsDxsK/B56fl
QAVY2j+nmbnBpQQPQSTEAkAsSY7BxPG+QMhHTkArfY/B2m+DQFARXj8SKJ/BcnqLQBiSyb+nt6HB
vPDnQOS0Yr9qnLrB9RW/QLmj3kCNWcDB7GrQQGmsCEGcJrvBje+gQHmoAkGG7KnBlpqPQNmb0kB3
H6/Bf/nDQDudqECbKKDB9kH9QJcXpEBmx5/BydeZQL9NRkAnarnBwHCLQBZ8j0CNAbHBCebuQPLg
7UDgiKrBgX30QP03PEAH/6nBsCgCQRbhp0BUHbLBsDzgQG92xz+BRZrBFGIUQXg6NkC6wZzB1lkK
QaEXfUAbnZLBR7xdQPluVkBnbaTB835WQHRfdEB7P4nBuKUcQKgcc0AfEZXBMoXMQKBCdT9glrPB
2ArUQL5A0b7cZLXBtcKhQExseL/wPqfB+OqvQGXksT8HeKvBQby+QGypr7+YMa/B0FSaQEZ3yT4o
Q6XBBvKOQJZiW0B5tJbBqE3JQBMj8EBIWbnB+r6qQO1I6UDm1K/BWDzgQLqamUBgMaTBZNWkQLw/
cEAqFLPBVurYQBxH2UAvWK/Bd5/bQIgMUkAIYKTBxOTiQK5DqUBLt6/Bv2DkQIyaJ0AgkZnBVL+u
QPLZOUDLyKjBMVUJQcpFOUA+GZbB8YaLQKSPUUBrJaHBw0NUQOZnbkB2BZHBslvJQEzQj0CTT7fB
ABbGQML/K8Bn17DBoSF+QK6hMD+2NJ3BMDwPQYG//D/9w47BOv++QBS3TkCZdY/BHsPcQMyT2D9E
dLjB3zHqQJ3RN7/ti7vBQgGRQGCp27+Im6LBNI7EQNMb3kAr0MDBuRDVQOI4CEErPLvBcrSgQOxT
AkGI5qrB7TGQQOhR0kCIerDBgFPEQEoAqEC7N6DBrof9QDqMokAz25/Bw1eZQBuKREDAWbnBGH6L
QGY6j0DLF7HBz0/uQA8x7EAeM6rBIl/zQOcbOUDPEqrB9UwCQXZWpkCxJLLBACTfQFpUxD8VMJrB
TPkTQWc7NUD+Fp3BiWgKQbGmeUAVlJLB/QNdQAbXWkDcT6TBz6dWQNqJdEBSEInBxLAcQEQDdkCV
35TB

> <OMEGA_E>
COpqPugeiD7sjd4+kBDwPg==

> <OMEGA_NBR>
     90047

$$$$
417122
  -OEChem-04172616093D

 44 47  0     1  0  0  0  0  0999 V2000
    5.9692    0.3081  -20.3413 C   0  0  0  0  0  0  0  0  0  0  0  0
    5.6711   -1.0069  -20.7419 C   0  0  0  0  0  0  0  0  0  0  0  0
    5.3077   -0.2335  -23.0173 C   0  0  0  0  0  0  0  0  0  0  0  0
    5.9620    1.3798  -21.2759 C   0  0  0  0  0  0  0  0  0  0  0  0
    5.3516   -1.2791  -22.0828 C   0  0  0  0  0  0  0  0  0  0  0  0
    5.5913    1.0873  -22.6270 C   0  0  0  0  0  0  0  0  0  0  0  0
    7.2481    3.0634  -18.4327 C   0  0  0  0  0  0  0  0  0  0  0  0
    7.3633    7.1558  -21.6784 C   0  0  0  0  0  0  0  0  0  0  0  0
    7.0953    7.0415  -23.1869 C   0  0  0  0  0  0  0  0  0  0  0  0
    5.1036    5.0819  -20.5179 C   0  0  0  0  0  0  0  0  0  0  0  0
    7.0236    3.6507  -21.8786 C   0  0  0  0  0  0  0  0  0  0  0  0
    5.9467    6.8271  -22.1813 C   0  0  0  0  0  0  0  0  0  0  0  0
    4.9541    3.5402  -20.3335 C   0  0  2  0  0  0  0  0  0  0  0  0
    5.3277    5.4172  -22.0131 C   0  0  1  0  0  0  0  0  0  0  0  0
    4.5079    3.0983  -18.9060 C   0  0  2  0  0  0  0  0  0  0  0  0
    6.2894    2.8177  -20.7759 C   0  0  1  0  0  0  0  0  0  0  0  0
    3.1178    3.6415  -18.4951 C   0  0  0  0  0  0  0  0  0  0  0  0
    7.3451    2.7138  -19.6991 N   0  3  0  0  0  0  0  0  0  0  0  0
    8.3828    2.9700  -17.6418 N   0  0  0  0  0  0  0  0  0  0  0  0
    6.1009    4.4047  -22.6976 O   0  0  0  0  0  0  0  0  0  0  0  0
    5.0743   -2.5429  -22.4741 F   0  0  0  0  0  0  0  0  0  0  0  0
    5.4924    2.0347  -23.5833 F   0  0  0  0  0  0  0  0  0  0  0  0
    3.1458    4.9729  -18.2226 F   0  0  0  0  0  0  0  0  0  0  0  0
    5.7580    3.5958  -17.6768 S   0  0  0  0  0  0  0  0  0  0  0  0
    6.2075    0.5071  -19.3069 H   0  0  0  0  0  0  0  0  0  0  0  0
    5.6877   -1.8082  -20.0180 H   0  0  0  0  0  0  0  0  0  0  0  0
    5.0539   -0.4449  -24.0455 H   0  0  0  0  0  0  0  0  0  0  0  0
    7.9572    6.3848  -21.1658 H   0  0  0  0  0  0  0  0  0  0  0  0
    7.5731    8.1383  -21.2305 H   0  0  0  0  0  0  0  0  0  0  0  0
    7.1125    7.9421  -23.8183 H   0  0  0  0  0  0  0  0  0  0  0  0
    7.4965    6.1885  -23.7537 H   0  0  0  0  0  0  0  0  0  0  0  0
    4.1890    5.5814  -20.1657 H   0  0  0  0  0  0  0  0  0  0  0  0
    5.9642    5.4371  -19.9320 H   0  0  0  0  0  0  0  0  0  0  0  0
    7.7177    4.3507  -21.3905 H   0  0  0  0  0  0  0  0  0  0  0  0
    7.5898    2.9630  -22.5239 H   0  0  0  0  0  0  0  0  0  0  0  0
    5.2274    7.6567  -22.1163 H   0  0  0  0  0  0  0  0  0  0  0  0
    4.1702    3.2092  -21.0306 H   0  0  0  0  0  0  0  0  0  0  0  0
    4.3322    5.4533  -22.4798 H   0  0  0  0  0  0  0  0  0  0  0  0
    4.4790    1.9991  -18.8743 H   0  0  0  0  0  0  0  0  0  0  0  0
    2.4106    3.4635  -19.3186 H   0  0  0  0  0  0  0  0  0  0  0  0
    2.7786    3.1035  -17.5977 H   0  0  0  0  0  0  0  0  0  0  0  0
    8.2251    2.3329  -19.9828 H   0  0  0  0  0  0  0  0  0  0  0  0
    8.3359    3.2031  -16.6705 H   0  0  0  0  0  0  0  0  0  0  0  0
    9.2483    2.6695  -18.0427 H   0  0  0  0  0  0  0  0  0  0  0  0
  1  2  1  0  0  0  0
  1  4  2  0  0  0  0
  2  5  2  0  0  0  0
  3  5  1  0  0  0  0
  3  6  2  0  0  0  0
  4  6  1  0  0  0  0
  4 16  1  0  0  0  0
  5 21  1  0  0  0  0
  6 22  1  0  0  0  0
  7 18  2  0  0  0  0
  7 19  1  0  0  0  0
  7 24  1  0  0  0  0
  8  9  1  0  0  0  0
  8 12  1  0  0  0  0
  9 12  1  0  0  0  0
 10 13  1  0  0  0  0
 10 14  1  0  0  0  0
 11 16  1  0  0  0  0
 11 20  1  0  0  0  0
 12 14  1  0  0  0  0
 13 15  1  0  0  0  0
 13 16  1  0  0  0  0
 14 20  1  0  0  0  0
 15 17  1  0  0  0  0
 15 24  1  0  0  0  0
 16 18  1  0  0  0  0
 17 23  1  0  0  0  0
  1 25  1  0  0  0  0
  2 26  1  0  0  0  0
  3 27  1  0  0  0  0
  8 28  1  0  0  0  0
  8 29  1  0  0  0  0
  9 30  1  0  0  0  0
  9 31  1  0  0  0  0
 10 32  1  0  0  0  0
 10 33  1  0  0  0  0
 11 34  1  0  0  0  0
 11 35  1  0  0  0  0
 12 36  1  0  0  0  0
 13 37  1  0  0  0  0
 14 38  1  0  0  0  0
 15 39  1  0  0  0  0
 17 40  1  0  0  0  0
 17 41  1  0  0  0  0
 18 42  1  0  0  0  0
 19 43  1  0  0  0  0
 19 44  1  0  0  0  0
M  CHG  1  18   1
M  END
> <OMEGA_C>
owO/QOK+nT4Ou6LBeHm1QFPhgL9r76XB9dipQHETb751I7jBAcm+QFOcsD/9NKrBq0CrQGO4o7+Q
qbDBjuuyQDEuiz8MBLXBKPDnQG0PREAedpPBBKDrQJb85EBcba3BdAzjQERU4UCyfrnB8FCjQCGf
okC2JKTBi8HgQDWlaUBHB6/BaEu+QEF32kBCc7HBsoeeQEWTYkDxqqLBPHyqQPxZrUDiGrDBU0CQ
QM1JRkB6P5fBxULJQGNVNEAHNabBr4pHQKMOaUAG9pPBOwvrQHCuLUC6l53BGCAGQWEUPkB5Io3B
3zrDQInzjEChlLXBgmCiQL2+IsAEy7PBk8GvQCA5AkCZqrzBx1RJQD8in0DOx5HBaUG4QGwhZkAc
ao3BfqPGQEvPAT+MdJrB7AG2QDJy57/ZJKDB1rmhQLLO475JXcDBOKH+QP5PzECYU6nBI1fyQJw2
AkH316nBUJnjQFIl/kD4i77BZePvQBgIxkCZB77BjAyGQH+askBSU6HB1dq+QK78rUDWdJ/BtPf2
QPA4i0CxH6vBCODyQHuiPUABMbTB20anQBAE9UBF7rDBgXKFQANjTUCrPqjBkaGKQJ2BrkCl1rPB
01OPQDbi/z+E/pbBeUcaQDKqXUCKjJrBP9QxQE2fRkAOyIzBIJoDQctNFUDO3J/B918FQR7/TEAy
XYXBA/kTQT3ZKkBwV5DByC/eQCklAj/0Ra3BEVnWQLhATb9N4rDBak+KQEL7+b5o1q3Biiy8QMbx
rT8S8qnBZFOsQOA7pr8qJbHBCYSRQCTHUj/vSarBkRvqQG+CQkD7n5PB8qrzQAHc30ACgrHByvra
QC5s4kBZI7zBMf2rQB6FpUBPeKPBAIveQDkuY0ARrq/BiM/CQKWR2kARpLHBciehQM7pakB0FaLB
J0etQNHarkCApK/BQiaTQGToTECatJbBfC/IQCY4M0DeIabBRYdMQL58bECeTpPBMBLrQFniKUBx
vZ3ByogHQTblOUDblI3BjunAQO3ui0CoprXBLGSkQOmzI8BIhrTBGzBcQDoPvz8EPqfBKtBDQNg4
oUCIFZTBOCq8QH4ga0BjRY3By6r+QGBCYD+RBa3BC6PwQCtktr8TdLPBOSpUQLGqYL/dBK7B2ScE
QfEnxEC/0q/BBgwBQcTd/EDuEK7B8sPXQAiiAEFKTcDBmvvdQDyOyEAcD8LBHkWTQDNKuUC0np/B
AlDLQKGLrEAh3J/BsRT4QDAZhkDNdKzBGIjsQPZnM0CeHbXBBs6wQEhH9kAVnK7BS0iGQHMGXUAR
f6fBSd2LQBvWsUDkTrLBLdSSQOaCBkAOq5bBbHccQCr3TUCte5jB0VNBQHSIWUDR8orBLgsDQSyg
DUCKK6DBgYUHQSuSSkCZ24XB0t8UQfgBI0Bp8pDB

> <OMEGA_E>
2Pp4P3Sgbz8=

> <OMEGA_NBR>
     91878

$$$$
417123
  -OEChem-04172616093D

 44 47  0     1  0  0  0  0  0999 V2000
    4.7246    0.4341  -20.7043 C   0  0  0  0  0  0  0  0  0  0  0  0
    4.7123   -0.9563  -20.8885 C   0  0  0  0  0  0  0  0  0  0  0  0
    6.6036   -0.7813  -22.4109 C   0  0  0  0  0  0  0  0  0  0  0  0
    5.6811    1.2415  -21.3722 C   0  0  0  0  0  0  0  0  0  0  0  0
    5.6500   -1.5620  -21.7407 C   0  0  0  0  0  0  0  0  0  0  0  0
    6.6310    0.6098  -22.2336 C   0  0  0  0  0  0  0  0  0  0  0  0
    4.5524    3.3992  -18.9880 C   0  0  0  0  0  0  0  0  0  0  0  0
    6.4322    7.5633  -23.0396 C   0  0  0  0  0  0  0  0  0  0  0  0
    5.7885    7.6009  -21.6338 C   0  0  0  0  0  0  0  0  0  0  0  0
    7.2151    4.7107  -20.4989 C   0  0  0  0  0  0  0  0  0  0  0  0
    5.4882    3.4572  -22.5109 C   0  0  0  0  0  0  0  0  0  0  0  0
    7.2591    2.5942  -19.1067 C   0  0  0  0  0  0  0  0  0  0  0  0
    7.0677    3.1895  -20.5084 C   0  0  1  0  0  0  0  0  0  0  0  0
    6.9691    5.2569  -21.9151 C   0  0  2  0  0  0  0  0  0  0  0  0
    5.7051    2.7604  -21.1378 C   0  0  2  0  0  0  0  0  0  0  0  0
    7.0627    6.7865  -21.8818 C   0  0  0  0  0  0  0  0  0  0  0  0
    8.3681    7.3409  -21.2829 C   0  0  0  0  0  0  0  0  0  0  0  0
    4.5503    3.2252  -20.2941 N   0  3  0  0  0  0  0  0  0  0  0  0
    3.3737    3.8194  -18.3938 N   0  0  0  0  0  0  0  0  0  0  0  0
    5.6526    4.8648  -22.3717 O   0  0  0  0  0  0  0  0  0  0  0  0
    5.6420   -2.9006  -21.9108 F   0  0  0  0  0  0  0  0  0  0  0  0
    7.5897    1.3008  -22.8973 F   0  0  0  0  0  0  0  0  0  0  0  0
    5.9651    3.1678  -17.9489 S   0  0  0  0  0  0  0  0  0  0  0  0
    4.0000    0.8938  -20.0485 H   0  0  0  0  0  0  0  0  0  0  0  0
    3.9807   -1.5619  -20.3744 H   0  0  0  0  0  0  0  0  0  0  0  0
    7.3201   -1.2537  -23.0665 H   0  0  0  0  0  0  0  0  0  0  0  0
    5.9347    7.0235  -23.8588 H   0  0  0  0  0  0  0  0  0  0  0  0
    6.9326    8.4572  -23.4402 H   0  0  0  0  0  0  0  0  0  0  0  0
    5.8309    8.5211  -21.0327 H   0  0  0  0  0  0  0  0  0  0  0  0
    4.8330    7.0874  -21.4513 H   0  0  0  0  0  0  0  0  0  0  0  0
    6.4810    5.1462  -19.8050 H   0  0  0  0  0  0  0  0  0  0  0  0
    8.2311    4.9789  -20.1736 H   0  0  0  0  0  0  0  0  0  0  0  0
    6.2229    3.0741  -23.2343 H   0  0  0  0  0  0  0  0  0  0  0  0
    4.4716    3.2427  -22.8721 H   0  0  0  0  0  0  0  0  0  0  0  0
    7.2154    1.4973  -19.1758 H   0  0  0  0  0  0  0  0  0  0  0  0
    8.2433    2.8984  -18.7211 H   0  0  0  0  0  0  0  0  0  0  0  0
    7.8634    2.7837  -21.1504 H   0  0  0  0  0  0  0  0  0  0  0  0
    7.7414    4.8627  -22.5919 H   0  0  0  0  0  0  0  0  0  0  0  0
    8.7043    6.6860  -20.4655 H   0  0  0  0  0  0  0  0  0  0  0  0
    9.1421    7.3796  -22.0636 H   0  0  0  0  0  0  0  0  0  0  0  0
    8.1908    8.3536  -20.8919 H   0  0  0  0  0  0  0  0  0  0  0  0
    3.6945    3.4220  -20.7726 H   0  0  0  0  0  0  0  0  0  0  0  0
    3.3410    3.9819  -17.4076 H   0  0  0  0  0  0  0  0  0  0  0  0
    2.5554    3.9604  -18.9511 H   0  0  0  0  0  0  0  0  0  0  0  0
  1  2  2  0  0  0  0
  1  4  1  0  0  0  0
  2  5  1  0  0  0  0
  3  5  2  0  0  0  0
  3  6  1  0  0  0  0
  4  6  2  0  0  0  0
  4 15  1  0  0  0  0
  5 21  1  0  0  0  0
  6 22  1  0  0  0  0
  7 18  2  0  0  0  0
  7 19  1  0  0  0  0
  7 23  1  0  0  0  0
  8  9  1  0  0  0  0
  8 16  1  0  0  0  0
  9 16  1  0  0  0  0
 10 13  1  0  0  0  0
 10 14  1  0  0  0  0
 11 15  1  0  0  0  0
 11 20  1  0  0  0  0
 12 13  1  0  0  0  0
 12 23  1  0  0  0  0
 13 15  1  0  0  0  0
 14 16  1  0  0  0  0
 14 20  1  0  0  0  0
 15 18  1  0  0  0  0
 16 17  1  0  0  0  0
  1 24  1  0  0  0  0
  2 25  1  0  0  0  0
  3 26  1  0  0  0  0
  8 27  1  0  0  0  0
  8 28  1  0  0  0  0
  9 29  1  0  0  0  0
  9 30  1  0  0  0  0
 10 31  1  0  0  0  0
 10 32  1  0  0  0  0
 11 33  1  0  0  0  0
 11 34  1  0  0  0  0
 12 35  1  0  0  0  0
 12 36  1  0  0  0  0
 13 37  1  0  0  0  0
 14 38  1  0  0  0  0
 17 39  1  0  0  0  0
 17 40  1  0  0  0  0
 17 41  1  0  0  0  0
 18 42  1  0  0  0  0
 19 43  1  0  0  0  0
 19 44  1  0  0  0  0
M  CHG  1  18   1
M  END
> <OMEGA_C>
vS+XQLg/3j5SoqXBFsuWQNvMdL/AG6fBZVDTQI4CSL9tSbPBR8u1QD7pnj9O+qrB8cy0QBzxx7/w
7K3BKTHUQEYaHD9k3rHBQq2RQO2LWUBm55fBZdTNQMEG8kAQUbjBqDu5QFI680AeEq3BN+LmQDC+
lkDL/aPBuZ+vQDhDXUA+FrTBQEroQAMIJkCP2pjBiCriQCohTEAfEaTB9gLfQNg4qEAJUq/BZZC2
QEOqMEAeGqnBiwHiQMAq2UAADq/BpuMFQZ/o6kBqQ6rBB5yRQCdpTkBnWqLB8ulXQJ1xdECNJpPB
D+K0QMusm0A2+bLBq4u0QOeiOcBISa/BAt/yQOJ/pj+8LbfBK+K+QEq9SkBQl4/B//9/QE3SZD9W
Y6DBJMN+QMDrx7/R/qLB/z3qQA14oL81iLjBcum9QEDA4EDS3r7BIdjdQMpQB0GChbvB4Ja6QHRW
CEH9QqjBMaiaQJTL4kBNnKvBgWTPQJStpEC7cJ7BprIDQeZSn0CHY6HBVCLHQHy9REDq37nBvBeP
QNeIT0Ae+rbBSeTmQO+mvz8XaJnBq+QDQb9/OUDTxJXBGqH7QNsoMkDxM6nB7Ln3QICbm0AwvLTB
n0QLQcbz1UBsuaPBCUYSQVMl7EAqgrDBiQ0DQYKoBUGJIqfBL3NsQH8CW0BDLqbBpNNVQNrWfkDa
QovBVIsjQNx2fUDcm5fBfgaYQG/BzT4R2aXBKcuXQEDNe7/vk6fBKJ7UQNTKRL8voLPBIKC2QNgD
nT/TA6vB5RW2QK2hyL/8b67B2C3VQNR5Hj+5/7HBQ8CRQMljWkDB4pfBDrzCQAKA8kDHRanBBcjz
QDAa9EA51afB/YHnQMK+lkBaHaTBfqGuQLNBXEB/4bPBQ2HoQGQbJ0DKrJjB7XniQHfuS0Ak96PB
bh7eQEUyp0C8gK/BTMe2QBVtL0AI/KjBZMbfQL7b10BdkLDBKVrkQIVs5kCRO7zBTY2RQDl1S0Bh
PqLBiktYQBKxd0A6TZPBzYqzQCMMm0A1orLBP+q1QDayOcDJDLDBpYnzQKGAqj82PrfBcMq+QM68
TEBlgo/B07iAQOwoWD8riqDBHEmAQK0gzb8YoaPBQMvrQKm/nL9t5bjBZK6uQCiX4kBuO6PBQJux
QLkyB0H+gazBcNECQXaOCEG1DKrBAlsBQaBO5UAlxqDBf9rQQG4+pUAZcJ7BvjIEQTtZn0AH1aHB
2sPFQGizREDv0rnBtu6NQKgOTkD6nLbBBwTnQOywwT/ZG5nBI+gDQX31OkCZlpXBJPT7QKIKMUC8
BanBQKH1QOAZmUD0BbXBnfn5QM6E0ECOgMDBycHEQBMu5kCLHMDBT5nxQCmDA0Eic7zBOlFrQAuk
U0BZB6bBqxtWQAE6gkCTd4vBkzAkQK0KgEC005fBzv6XQMa0zz703aXBVBeXQHgzer/TqqfB4nLU
QGCJSL8skrPBpiu3QLAYnD9S76rBtii1QNvpyL9Tia7B3NPVQLEgGj930rHBytqRQNqBWUBp+ZfB
LpQDQRHd7kDr/a/BrjXmQK/27kBzN7nB5D/mQBMPl0AepaPBMv+vQIl8W0AD7rPB8KfoQN5yJUBM
qJjBKsviQN05TEAO2qPB0LzbQNyZqED00a7BjHS3QB0CL0Bl+6jB1vLbQKIP2UAgoK7B5q66QBps
7kDXNKfBMPuRQKtQS0D4WKLB8Q5ZQFgieUCOfZPBlH+yQLDYmkAbirLBNvqzQPiWOcDXULDBSOT0
QPH4pj8s5LbB2Du+QPeeR0Bvdo/Bk8SAQE4KWz/9k6DBX3p+QCRHy78pxKPBZJHrQIeXn7+P0LjB
aDsSQVqJ20DNorDBmRwHQRxQBkFKo6vB+MHVQHpkBkGBcLvBl//rQBay20AEcMDB9HjPQIMapEAT
yJ3BzXwDQfltoECyZ6HB2qPIQGGcRkBepbnBJiqQQCVGSkA8ArfBLgzoQKuAvj+WTpnBs+ADQdf+
OUDrbpXBSrj8QMvFM0CQ9ajBt6P0QAKhnUD0ZrTB8FOdQC0C20DUC6fBZdrHQHfZ8EByEZ/B1S6z
QOhQB0FWOKrBoJ9sQABKVEDfNKbBmFlWQFedgkBUpIvBVuAlQG7vgUAlGpjBa1XVQLMPLz/LlLHB
LOrWQCOhML90rbPB9KqYQOnYgr+OSajBlXO1QJr1nT/exarB25i4QFh9xb/wA6/BxrGWQBL4tT5Y
H6bBj8SRQColXEDQ0JfBTbTIQGLU80CHH6jB5xT6QBGH80BhDKnBIyroQC52lkDQPaTBhc2vQCqj
WkAg7LPBk2roQFW4JkCzvpjBBWTiQIJgS0B5DKTB3SHeQK5np0BXmq/Bpy+2QHY7MEDV16jBCMze
QHI72EBDnbDBYJ7aQDYu50DxR7zBIeGRQP/EUUDEQaLBz2BXQFhLdUCaF5PBMOqzQKplmkAszrLB
iwq6QHCHN8BJBrHBTOxtQJ7ORz/MmJ/Bld2+QEI+TEALfo/BI77sQFMlqz8CM7XBXGPvQNWti79w
3bjB42mBQGv317+ivqTBkwC5QFee5EDiOaHBfHu2QNovCEEphqrBRoIFQR/tB0H6G6zB0cQGQeIY
5ECzz6LB6zTSQHlFpUDycZ7Bpa4EQWSCnkCTHqLBdS/IQM3MQkC/hrnBosCPQEgXS0CY/7bBxRrn
QDHnwD/CK5nBrPADQSqyOkCxsJXBRlz7QCN0L0AOLanBDO31QIoOmkDbKbXBQ8LrQP3N0EBhjcHB
jJu4QKAV6ECdib7B5n3oQHyuA0HHGr3BCEtuQILTYUBSK6bBKWxUQC/8fUDHLIvBqlsjQAjCfkCI
mZfBc6HVQONlLj+CkLHBDSTXQNqvML8qw7PBsMmYQBgmhL/xbajBYqe1QDj1nD8wwqrBirm4QHAA
xr9yL6/B/u+WQFJjrz4gJabBE8ORQLnoW0CwypfBEGrOQP6n70BZKLnBb5W3QCb68kBsNq7BP8Tm
QMCZlkCQ+6PBxlCwQDVBWkCW87PBtEboQMILJkCruZjBT/7hQO1+S0DS9aPBQlXeQFixp0BAVa/B
uyO2QArML0CL06jBP7/gQFes2ECnX6/BLs8EQZZY60DvWKrB/q+RQGPFUECaO6LBRthXQNlVdkCl
EJPBc3u0QJJMmkDf8bLBNEm6QFe3N8AKPbHBJeNuQM1uQj+kg5/BAtq+QD1aS0D4dI/BaSztQKUY
qz8TGrXBj6TvQNIdi7/O9rjBTW+BQDWW2b9J9aTBhNW/QKEW3UBXr7/BmQffQEDUBUFFgLzBsfW3
QGGpCEEfwanBnMOYQOPA4kAw8KzBio7PQD+5pEA2Y57BQbQDQWg+n0A5f6HBsebIQOoCQkDkeLnB
M2CQQLO/SkANGrfBFubmQNWdvz+ZNpnBJeYDQVu9OUDhrZXB3z/7QCIXMUAYIKnBfxn3QKEPm0D3
urTB/o4JQd7A10DYbqPBb8ARQVlL60CYT7DBz7sBQVAtBkGbtKfBbIFtQLu9X0A6IKbBODNVQAKK
f0CzJ4vBqNcjQFsbgEDUj5fBay/WQEAGLz+lerHB8orXQPXqL7+cubPBLsaYQPZcg78Th6jBQQ22
QMdInT8/uarBftG4QDdXxb9gPq/BAgSXQGMAsj4+N6bBmsuRQNV8W0BDzpfBrfIEQYnN7EAqC7DB
THDrQFG17EBQy7nBEI7mQE/9lkB04KPBtiCwQDMRWkCB7bPB6ZroQOxLJkAUr5jBs1niQIkdTEA9
6aPBAp/cQIG/p0C2KK/BvXO2QGniL0DRzKjBHuHdQKQv2EDCQ6/BFUS7QBIQ70D/jKjBbO2RQCa7
UEAdPqLBaPNXQEu8dkDRJJPBalGzQIREmkB94bLBzf65QMY9N8BuZ7HBLEtuQMZYRD/wtJ/BuIi+
QKEwSUCpaI/BgPTtQI03qz9C8LTBACjwQLXdir9747jBDkOBQP2i2L+qG6XBXGcTQX+52ECvFLDB
QUcIQTFrBUFoxKvBbV3cQB1VBUHnd7zBpJ3yQFmN2EAtyMDBrsrPQLfGpEDzHZ7BD6wDQcIKoEAR
naHBRvbIQP/7QkDmdLnB/VuQQNU0SUDWE7fBiffnQBUawD97PpnBWuoDQTgWO0Dkj5XBsLr7QKNS
MkBFFqnBa3j1QJrGm0BHoLTBDnadQNta3ECvw6jBQk7GQOYF8kBEOqDBb2G1QNeOB0F04KvBWC1u
QMDwX0CZKabBLNxUQMqVf0DnOovBhmskQPvHgEDpsJfBNjePQFjgMD+bya3BMKOKQG1sMb8De6/B
XjjVQJsog7+msqrBwvG2QGePnz/jdarB1I6tQOOrxr+cxK3B6JfaQJsgtz6yTqnBKjOSQEHiV0DC
1pfBGC7CQDtq9EB4hLjBqJK3QBMF9kDyc6zBOpHlQAR9nEAOVqTB4pmzQLpKW0B4JbTBZPLqQBqY
NkAxK5jBvL7jQAs+VkAJ06PBaireQDbVq0C976/BFju5QPRiMkA42ajBKgDfQLlR3UAoY7DBV8IF
QbId8UCQTq7BaFCTQHDgTUA7UKLB2dlWQApHbUBLMJPB9lu1QC2cm0CjjrPBql+pQNqhOMDrNK/B
QWoBQWHiQz9HJqfBDPu+QIOFUUCRRo/B9TNoQMfLqz8qCa/BxJxYQEUcjL8XGLLBQfXvQDcy2L/o
YqnB1t6tQKzJ4UAJ/r3BFsvNQMqjCEENorzBaZq7QLUFCkG9+KfBKa6bQIGN5EC5VKnBk5bMQAzw
qUB1IJ/BBJUCQd1wp0DglqHBKFnNQC5qRED7a7nBVHCUQIX1R0DscrfBD67uQAky4T/XSZjBFDAE
QTQiVEDNDpXBfV7+QCGYPUDcr6jBJA74QM5Yn0AsBLXBwmMOQS+q3UBWYKjBjOcOQTzo8UCu0rXB
fdYDQXzxCEHHPavBhG5wQD/HWUDGTKbB3YRTQHZLeECwUYvBfS8iQF61cUBGs5fB

> <OMEGA_E>
UG1VPti5XD5IOGM+gOF5PoCsez44xX0++OKsPg==

> <OMEGA_NBR>
     97605

$$$$
303939
  -OEChem-04172616093D

 48 50  0     1  0  0  0  0  0999 V2000
    5.5447   -1.5585  -21.6895 C   0  0  0  0  0  0  0  0  0  0  0  0
    6.5567   -0.8209  -22.3245 C   0  0  0  0  0  0  0  0  0  0  0  0
    4.6819    0.4898  -20.6915 C   0  0  0  0  0  0  0  0  0  0  0  0
    5.6933    1.2565  -21.3298 C   0  0  0  0  0  0  0  0  0  0  0  0
    4.6011   -0.9022  -20.8768 C   0  0  0  0  0  0  0  0  0  0  0  0
    6.6372    0.5746  -22.1552 C   0  0  0  0  0  0  0  0  0  0  0  0
    4.5603    3.3748  -18.9917 C   0  0  0  0  0  0  0  0  0  0  0  0
    7.2230    4.8195  -20.5253 C   0  0  0  0  0  0  0  0  0  0  0  0
    5.5500    3.4738  -22.5255 C   0  0  0  0  0  0  0  0  0  0  0  0
    7.3064    2.6719  -19.0997 C   0  0  0  0  0  0  0  0  0  0  0  0
    7.1056    3.2692  -20.5080 C   0  0  1  0  0  0  0  0  0  0  0  0
    6.9669    5.3421  -21.9595 C   0  0  2  0  0  0  0  0  0  0  0  0
    5.7474    2.7956  -21.1345 C   0  0  2  0  0  0  0  0  0  0  0  0
    3.5625   -1.7011  -20.1116 C   0  0  0  0  0  0  0  0  0  0  0  0
    7.0178    6.8773  -22.0004 C   0  0  0  0  0  0  0  0  0  0  0  0
    5.1890   -2.4888  -18.3898 C   0  0  0  0  0  0  0  0  0  0  0  0
    5.6837   -2.1595  -16.9763 C   0  0  0  0  0  0  0  0  0  0  0  0
    4.5899    3.2791  -20.3062 N   0  3  0  0  0  0  0  0  0  0  0  0
    3.3577    3.7197  -18.3948 N   0  0  0  0  0  0  0  0  0  0  0  0
    3.9305   -1.7445  -18.6767 N   0  0  0  0  0  0  0  0  0  0  0  0
    5.6659    4.9042  -22.4117 O   0  0  0  0  0  0  0  0  0  0  0  0
    7.6297    1.2300  -22.8022 F   0  0  0  0  0  0  0  0  0  0  0  0
    6.7881    7.3066  -23.2710 F   0  0  0  0  0  0  0  0  0  0  0  0
    6.8615   -2.8000  -16.7552 F   0  0  0  0  0  0  0  0  0  0  0  0
    5.8795   -0.8168  -16.8589 F   0  0  0  0  0  0  0  0  0  0  0  0
    4.7678   -2.5652  -16.0580 F   0  0  0  0  0  0  0  0  0  0  0  0
    5.9605    3.1307  -17.9401 S   0  0  0  0  0  0  0  0  0  0  0  0
    5.4903   -2.6286  -21.8246 H   0  0  0  0  0  0  0  0  0  0  0  0
    7.2788   -1.3278  -22.9475 H   0  0  0  0  0  0  0  0  0  0  0  0
    3.9636    0.9835  -20.0538 H   0  0  0  0  0  0  0  0  0  0  0  0
    6.4786    5.2509  -19.8398 H   0  0  0  0  0  0  0  0  0  0  0  0
    8.2325    5.1140  -20.2028 H   0  0  0  0  0  0  0  0  0  0  0  0
    6.3175    3.1030  -23.2209 H   0  0  0  0  0  0  0  0  0  0  0  0
    4.5518    3.2215  -22.9126 H   0  0  0  0  0  0  0  0  0  0  0  0
    7.3406    1.5756  -19.1837 H   0  0  0  0  0  0  0  0  0  0  0  0
    8.2609    3.0386  -18.6943 H   0  0  0  0  0  0  0  0  0  0  0  0
    7.9093    2.8758  -21.1477 H   0  0  0  0  0  0  0  0  0  0  0  0
    7.7491    4.9445  -22.6229 H   0  0  0  0  0  0  0  0  0  0  0  0
    2.5777   -1.2240  -20.2233 H   0  0  0  0  0  0  0  0  0  0  0  0
    3.5210   -2.7254  -20.5105 H   0  0  0  0  0  0  0  0  0  0  0  0
    6.2479    7.2874  -21.3303 H   0  0  0  0  0  0  0  0  0  0  0  0
    8.0101    7.2199  -21.6718 H   0  0  0  0  0  0  0  0  0  0  0  0
    5.9579   -2.1995  -19.1213 H   0  0  0  0  0  0  0  0  0  0  0  0
    4.9983   -3.5694  -18.4663 H   0  0  0  0  0  0  0  0  0  0  0  0
    3.7643    3.5542  -20.7988 H   0  0  0  0  0  0  0  0  0  0  0  0
    3.3038    3.8222  -17.4015 H   0  0  0  0  0  0  0  0  0  0  0  0
    2.5441    3.8659  -18.9574 H   0  0  0  0  0  0  0  0  0  0  0  0
    4.0416   -0.8048  -18.3532 H   0  0  0  0  0  0  0  0  0  0  0  0
  1  2  1  0  0  0  0
  1  5  2  0  0  0  0
  2  6  2  0  0  0  0
  3  4  2  0  0  0  0
  3  5  1  0  0  0  0
  4  6  1  0  0  0  0
  4 13  1  0  0  0  0
  5 14  1  0  0  0  0
  6 22  1  0  0  0  0
  7 18  2  0  0  0  0
  7 19  1  0  0  0  0
  7 27  1  0  0  0  0
  8 11  1  0  0  0  0
  8 12  1  0  0  0  0
  9 13  1  0  0  0  0
  9 21  1  0  0  0  0
 10 11  1  0  0  0  0
 10 27  1  0  0  0  0
 11 13  1  0  0  0  0
 12 15  1  0  0  0  0
 12 21  1  0  0  0  0
 13 18  1  0  0  0  0
 14 20  1  0  0  0  0
 15 23  1  0  0  0  0
 16 17  1  0  0  0  0
 16 20  1  0  0  0  0
 17 24  1  0  0  0  0
 17 25  1  0  0  0  0
 17 26  1  0  0  0  0
  1 28  1  0  0  0  0
  2 29  1  0  0  0  0
  3 30  1  0  0  0  0
  8 31  1  0  0  0  0
  8 32  1  0  0  0  0
  9 33  1  0  0  0  0
  9 34  1  0  0  0  0
 10 35  1  0  0  0  0
 10 36  1  0  0  0  0
 11 37  1  0  0  0  0
 12 38  1  0  0  0  0
 14 39  1  0  0  0  0
 14 40  1  0  0  0  0
 15 41  1  0  0  0  0
 15 42  1  0  0  0  0
 16 43  1  0  0  0  0
 16 44  1  0  0  0  0
 18 45  1  0  0  0  0
 19 46  1  0  0  0  0
 19 47  1  0  0  0  0
 20 48  1  0  0  0  0
M  CHG  1  18   1
M  END
> <OMEGA_C>
W26xQH57x78shK3BQ9DRQMUnUr+UmLLB/NGVQPfB+j4riKXBli+2QInWoD9wo6rBSzyTQHr4Zr+f
A6fBH2TUQOIWEz/xPbHBY+6RQMr8V0AB75fBdSLnQDY5mkC/M6TB1pmxQF5TXkBLNLTBss3pQOb/
KkBBzJjByWDjQBI6UUBPEKTB7PDeQNjyqkAIra/B6eq3QKHqMkBlE6nBjgBkQOG+2b+o5KDBEJLg
QB8T3EDUALDB9wumQG1IH8BoHpPBCeG1QP40CsCBz4fBb+CSQNvcUUARc6LBAeVWQPwObkB8KJPB
Bo57QDZK37/xaZXBuE61QDLvnEBDS7PBwCb0QHdxnT/QarbBJDjZQMfP6UAYK7rBOZHbQD4zM8CQ
CobB/SS8QEAYUb/u3obB+ZGYQHwrJMDXdoDBWry+QL9cSEBjhY/BSrCvQOo6KMC8mK7Bm+voQOD0
qb9llLfBJat9QFvIez84bqDB81DPQHIHqEDtt57BdbgDQUymo0BWn6HBkSjKQIWXRkBpxLnBOqiR
QFMsTkD8TLfBXubqQJStyT8eeJnBuCwEQTt4QkAHjpXBBhn9QG4MOEBwLqnBSPj3QJ45nkDB+7TB
LPkkQBmsnL9EyaHBq1hhQG1tLsCQFaTBoe7HQIky6UCBpKrBfykAQScJ50DBX63BBae+QNDEDMB7
+JjBuvGfQK5xZMD1upPBC+pwQFt3Y0AHZKbB13FTQPKedEBGNovB+NEiQAxrd0DHqJfBa1SBQN4F
Tr9O05LBns2wQLxBvb8cUq7BNryTQMIPar8xGafBVGPSQEIZMT9SwLDBdDO0QL4ipj/37KnBODPQ
QBupK78yHLPBZpKUQBAx7j5N96TBsmiSQOf6XEBY0JfBcqDoQPSnmUALeqTBHmeyQDMlXEAaF7TB
NAnqQB/pLEB1xJjBpoPjQLnZUEDNF6TBBpLfQIQSqkDh5q/B2iO3QF8PNUCNs6jBfMzxQC7go780
JbrBXunfQJwD20DB+q/BfpUQQVvC3b8CQKrB4v4EQcT2BMCojJ/B4oaTQHswWkDfUKLBa4hVQEWF
Z0CMCZPBNEUFQW8REcA347PB3iu2QDawm0DmjbPB241rQJA6bj/GYJ7BThHXQFxI6UBN/rnBhgAU
QZ5HGMAPE5jBisDyQPCsgr9i6JvBiKzvQA/vScCprqDB3uC/QH0kUEB6g4/BYBuvQIH/IcCoNLDB
cwl5QI59xb+2I6PBb5rrQLUxpT/SNbTBaubRQBl1qEAF3p7BG78EQX5FokBNLaLBBanLQIt7QkAq
ULnBs96SQPQiS0BpX7fBlsrpQOsqzT/2KZnBgZYEQTreQkC4t5XB91b8QHgENUB+RanBoND4QI9K
nkDvR7XB82/iQMIN5L/Q+MDBma4DQft0/L7nGL3BNpLHQCYQ50CpYarByKn/QKeX5kAFha3B5KYR
QQBhI7/p96rBZsogQR9ECsDoAqrB0051QP7JckD3TKbBY4pQQI7EZ0DND4vB7kchQDjibkBtkJfB
DFL2QGqlPsDIcLHBAwCxQBvxvb+siK7BV7rSQAJrQb8nB7PB5bmWQHzQBT8wv6XB/m63QAJxpD/q
iarBI/2SQMyyV78R2afB/gTWQLKZHz8UMbHB7tKRQHb7WUC2xZfBXWnnQC+TmUAAS6TBY4GwQOha
XEDVALTBhSnpQN/oK0BYipjBxGDjQLrdUECw3aPB2FLfQPRSqEBc46/BtQu4QLRCM0At26jBYmJf
QJejzb9UaaLBdkniQP3T2EDsurDBjGiJQEwyeMB8D57BWhupQL+ak8Cj1ZbB2NWSQLxFUkBUQqLB
4OpVQHYNbkB7DpPBrm2DQJTmHsAUXprBsym1QKZzm0AURrPBHTD2QOsdpD8nLbbBBNDZQGCA5ECF
+brBqcGvQDdYu8Cm6JrBzw3PQF5ZfMCNdpbBJI2YQLXElsDsz4zBgv6+QBJLT0BsZo/BXO+tQB6J
IsAAMLDBgkXqQCrXoL+467fBrVCAQFAEgD9sZKDBYZ/PQE8yqEBZ757BRN8DQdExo0B+x6HBUQrI
QHXmQkCwuLnBsACQQCnpTECSxrbB3oToQBRAyz+YBJnBCyUEQYfmQEDYYJXBlA79QLBINkBy4qjB
T7H3QNDemUAnHLXB3+8yQPoyaL97gZ7BHV48QMd/DcDGUajBm8/KQD+o50BeUqvBFFgBQRxb40BY
hK7BYcaVQDitd8CdTKbBqt5UQMnNjMCz3Z3BFJNwQMGdYkAlO6bBYjpSQKEHdkDiIYvB8oUhQHGO
dEALlJfB2RGgQCXZBsBKcpjBLJaxQEWfwb+mqK3B0zTSQOa5Sb98trLBFauWQAc4CT9+l6XB+ce2
QGDEpD+ssKrB19OTQF7+Vr/bJafBzOzUQEMNGz95WrHBoOmRQGxZWUBq2pfBS03nQPZKmUDrQKTB
qYKwQLbPXUAHJbTBVxrpQKgZKkDwypjBES3jQEpCUEAvDqTBdUbfQHYEqUC5wq/B6ru3QGKtM0Cm
C6nBzA9fQG1Yyb+5G6LBXVDiQB6g2UCpRrDBIX4/QGagWcAb5JXBZapmQK1OlMBwl5DBvseSQGw2
U0CvXaLBVFhWQK7vbEBaCZPBiyaBQN7TKMCMdJvBZzW1QD1DnEDtSbPBq3z0QEK3oD86pLbB/sjd
QA0m5kASm7rBRrsnQEZ9qcAMTovBXXWEQDxcrsDRM5jBammSQJR2iMBdj4nBHSy/QNbpTEApi4/B
ckyvQGE4JcAfwa7BJE7pQHx3pr9eqbfBs/V/QH0AhD+6aqDBWonPQKCJp0B3057BYdMDQcKkokDB
sKHBei3IQFnMREDw27nBLBKQQHWwTkB+/bbB2U3oQETAxz9eYZnBvioEQYKDPkCzopXBysD8QKY5
NkCeJqnBn8r3QDYkm0B8CbXBkEo5QE0SYr/JI53B5eM1QA5VAMBzWqjBK8nIQEDs50BBYqvBC9QA
QbMN5EA+PK3B7YsOQBrfbcAWsJvBaMshQPABMcCGvI/Bn8ZwQC00ZUCOSqbB1f5SQE6Vc0BAF4vB
2s0hQBprdED7gZfB4NCRQLDTUMB/G6DB

> <OMEGA_E>
lFMXPxhRGz+w2hU/bCEWPw==

> <OMEGA_NBR>
    101197

$$$$
417125
  -OEChem-04172616093D

 44 47  0     1  0  0  0  0  0999 V2000
    4.7545    0.3951  -20.7560 C   0  0  0  0  0  0  0  0  0  0  0  0
    4.7392   -0.9715  -21.0703 C   0  0  0  0  0  0  0  0  0  0  0  0
    6.6628   -0.6728  -22.5339 C   0  0  0  0  0  0  0  0  0  0  0  0
    5.7217    1.2513  -21.3362 C   0  0  0  0  0  0  0  0  0  0  0  0
    5.6897   -1.5025  -21.9590 C   0  0  0  0  0  0  0  0  0  0  0  0
    6.6874    0.6956  -22.2357 C   0  0  0  0  0  0  0  0  0  0  0  0
    4.5298    3.4594  -18.9118 C   0  0  0  0  0  0  0  0  0  0  0  0
    6.5863    7.8599  -20.4400 C   0  0  0  0  0  0  0  0  0  0  0  0
    6.9388    8.8248  -21.5829 C   0  0  0  0  0  0  0  0  0  0  0  0
    7.2516    4.7219  -20.6251 C   0  0  0  0  0  0  0  0  0  0  0  0
    5.3418    3.4211  -22.4377 C   0  0  0  0  0  0  0  0  0  0  0  0
    7.2381    2.7583  -18.9947 C   0  0  0  0  0  0  0  0  0  0  0  0
    7.0573    3.2202  -20.4464 C   0  0  1  0  0  0  0  0  0  0  0  0
    6.4346    7.4261  -21.8988 C   0  0  0  0  0  0  0  0  0  0  0  0
    7.0702    5.0161  -22.1254 C   0  0  2  0  0  0  0  0  0  0  0  0
    5.6798    2.7573  -21.0576 C   0  0  2  0  0  0  0  0  0  0  0  0
    7.4453    6.4417  -22.4849 C   0  0  0  0  0  0  0  0  0  0  0  0
    4.5156    3.1598  -20.1934 N   0  3  0  0  0  0  0  0  0  0  0  0
    3.3287    3.8255  -18.3275 N   0  0  0  0  0  0  0  0  0  0  0  0
    5.6908    4.7943  -22.4549 O   0  0  0  0  0  0  0  0  0  0  0  0
    5.6691   -2.8161  -22.2644 F   0  0  0  0  0  0  0  0  0  0  0  0
    7.6289    1.4491  -22.8593 F   0  0  0  0  0  0  0  0  0  0  0  0
    5.9722    3.4693  -17.9027 S   0  0  0  0  0  0  0  0  0  0  0  0
    4.0252    0.7965  -20.0680 H   0  0  0  0  0  0  0  0  0  0  0  0
    3.9951   -1.6176  -20.6284 H   0  0  0  0  0  0  0  0  0  0  0  0
    7.3957   -1.0900  -23.2086 H   0  0  0  0  0  0  0  0  0  0  0  0
    7.3835    7.4288  -19.8164 H   0  0  0  0  0  0  0  0  0  0  0  0
    5.6941    8.0391  -19.8221 H   0  0  0  0  0  0  0  0  0  0  0  0
    6.2998    9.6977  -21.7823 H   0  0  0  0  0  0  0  0  0  0  0  0
    7.9892    9.0874  -21.7766 H   0  0  0  0  0  0  0  0  0  0  0  0
    6.5032    5.2736  -20.0374 H   0  0  0  0  0  0  0  0  0  0  0  0
    8.2611    5.0148  -20.3007 H   0  0  0  0  0  0  0  0  0  0  0  0
    5.8996    2.9009  -23.2303 H   0  0  0  0  0  0  0  0  0  0  0  0
    4.2622    3.3247  -22.6254 H   0  0  0  0  0  0  0  0  0  0  0  0
    7.1658    1.6613  -18.9577 H   0  0  0  0  0  0  0  0  0  0  0  0
    8.2313    3.0725  -18.6414 H   0  0  0  0  0  0  0  0  0  0  0  0
    7.8407    2.7237  -21.0379 H   0  0  0  0  0  0  0  0  0  0  0  0
    5.4052    7.3513  -22.2793 H   0  0  0  0  0  0  0  0  0  0  0  0
    7.7083    4.3261  -22.6970 H   0  0  0  0  0  0  0  0  0  0  0  0
    7.4597    6.5468  -23.5798 H   0  0  0  0  0  0  0  0  0  0  0  0
    8.4440    6.6656  -22.0819 H   0  0  0  0  0  0  0  0  0  0  0  0
    3.6254    3.2051  -20.6467 H   0  0  0  0  0  0  0  0  0  0  0  0
    3.3008    4.0841  -17.3619 H   0  0  0  0  0  0  0  0  0  0  0  0
    2.4894    3.8312  -18.8711 H   0  0  0  0  0  0  0  0  0  0  0  0
  1  2  1  0  0  0  0
  1  4  2  0  0  0  0
  2  5  2  0  0  0  0
  3  5  1  0  0  0  0
  3  6  2  0  0  0  0
  4  6  1  0  0  0  0
  4 16  1  0  0  0  0
  5 21  1  0  0  0  0
  6 22  1  0  0  0  0
  7 18  2  0  0  0  0
  7 19  1  0  0  0  0
  7 23  1  0  0  0  0
  8  9  1  0  0  0  0
  8 14  1  0  0  0  0
  9 14  1  0  0  0  0
 10 13  1  0  0  0  0
 10 15  1  0  0  0  0
 11 16  1  0  0  0  0
 11 20  1  0  0  0  0
 12 13  1  0  0  0  0
 12 23  1  0  0  0  0
 13 16  1  0  0  0  0
 14 17  1  0  0  0  0
 15 17  1  0  0  0  0
 15 20  1  0  0  0  0
 16 18  1  0  0  0  0
  1 24  1  0  0  0  0
  2 25  1  0  0  0  0
  3 26  1  0  0  0  0
  8 27  1  0  0  0  0
  8 28  1  0  0  0  0
  9 29  1  0  0  0  0
  9 30  1  0  0  0  0
 10 31  1  0  0  0  0
 10 32  1  0  0  0  0
 11 33  1  0  0  0  0
 11 34  1  0  0  0  0
 12 35  1  0  0  0  0
 12 36  1  0  0  0  0
 13 37  1  0  0  0  0
 14 38  1  0  0  0  0
 15 39  1  0  0  0  0
 17 40  1  0  0  0  0
 17 41  1  0  0  0  0
 18 42  1  0  0  0  0
 19 43  1  0  0  0  0
 19 44  1  0  0  0  0
M  CHG  1  18   1
M  END
> <OMEGA_C>
IyWYQBBQyj41DKbBq6eXQHy1eL8LkKjB5zXVQFg6LL9eRbTBLxi3QFwroD+OsKrBXRK2QDBRwL/z
q6/BAP/VQJgUMj/L4rHB2fOQQBRnXUBWS5fBWcPSQP2D+0AFhaPBXQreQFIyDUG4qazBWg3oQPEZ
l0AxAKXB1O+qQI7yWkBegLPBZJ7nQCCIMEAW9ZfBlNXhQB4YTkAzkqPBEujNQHWi7UC0MK/B6z7i
QAWEoEDJALHB4sC1QKF3MEAGdqjB6T/uQA0izkAR4bPBy3+QQMQ6SkAkjKHB/QlVQPbUdEConpLB
axu2QElrmUCRo7PBAmm1QEc6NMB7HbLBkx/0QKp7uT/u37bBQRy/QJ4IXkDIOI/BEM6AQAvpSz9A
i6DBea9/QIQMz78CB6XBPqnsQOaEi78/q7nBmEXsQA657UAPiJ7BuTW2QDagAEG+k57BBJjJQMQp
G0EUQq7B5Kf/QBRmEUFlNq7B1xnQQGTBqECHTKDBai0EQUR5oEDkZ6LB2Mm8QPSnOUCZ17nB/GOI
QDTHVEDLALXBok7lQKil1D9iqZfBY7MDQYOjRECBIZXBw+b6QDhRLkCJTajBcfesQP8960AGPLLB
Jqr2QHFvikBsk7XB+7XuQJd/0UBao7zBqRoHQWlM1UCjp7DB5QVoQOkgTUBdLKXBKEBTQFexgkAt
5YrB9FIfQDAydUAK+JbBTN/VQEZ8Pj9+grHBr3vXQAZ/HL84LLTBCKeYQIMSgb/iG6nBhZ21QOe7
oD+0marB8Nm4QDR1vr8x+a/BWqWWQPyttT5iYqbB6zGRQJoiXkAaXZfBWQ/OQBIz+kALVKLB4kTX
QER6DUHiM6vBsEzoQBiulkDE5KTBqbisQOQ0WkB7uLPBoMTnQFQzLUD1Q5jBPcrhQCrgTEAezaPB
88vJQLSw7UBBHK7BP/vhQOgEokDAyLDB6Dy1QFBEMUD5g6jBTdjrQLO20EDdFbPBNuSQQJRDUUBr
xaHB/lFVQCiVckCWg5LBVT22QFp4mUAAorPBikO6QCrtMsB0lrLB3DhtQPbxPz9+05/BBWy/QMCU
WUA4SY/BopPtQHddtT9QwrTBVjPwQJgde78ccLnBZTyBQKbP2L/45aXBvXToQApH7UAtfJ3BzVGx
QIaD/UDHUJ3BWibBQDToGkHSiKzBSkn4QPbJEkE4tKzB1b3QQOnbp0CV9p/Bx2cEQdVvn0DFU6LB
nvnAQMxVOkD8trnBv9aKQEJRUUDB1LXBwlDlQN7zzT/vKZjB+dQDQUeIQEAeb5XBf236QF9/LUBR
tqjB/v2oQFTB6UBRJbHBxoP3QAnjjUDkl7XBznDsQJTG1UDsyrvBkaYFQUvM2EBNsa/BngprQK8w
XkB9lqXB/UFTQK8+fkD1porBFMIfQKStdUAo4JbB

> <OMEGA_E>
OMSKPvCHmT4=

> <OMEGA_NBR>
    103024

$$$$
417127
  -OEChem-04172616093D

 41 44  0     1  0  0  0  0  0999 V2000
    6.6480   -0.7663  -22.4307 C   0  0  0  0  0  0  0  0  0  0  0  0
    4.7561   -1.0278  -20.9361 C   0  0  0  0  0  0  0  0  0  0  0  0
    5.6535    1.2240  -21.3664 C   0  0  0  0  0  0  0  0  0  0  0  0
    5.7208   -1.5895  -21.7825 C   0  0  0  0  0  0  0  0  0  0  0  0
    6.6234    0.6226  -22.2360 C   0  0  0  0  0  0  0  0  0  0  0  0
    4.7096    0.3600  -20.7224 C   0  0  0  0  0  0  0  0  0  0  0  0
    4.5567    3.4560  -18.9750 C   0  0  0  0  0  0  0  0  0  0  0  0
    6.5580    7.5536  -23.0460 C   0  0  0  0  0  0  0  0  0  0  0  0
    6.1536    7.6275  -21.5597 C   0  0  0  0  0  0  0  0  0  0  0  0
    7.2641    4.7060  -20.5537 C   0  0  0  0  0  0  0  0  0  0  0  0
    5.4357    3.4694  -22.4944 C   0  0  0  0  0  0  0  0  0  0  0  0
    7.2439    2.6251  -19.0937 C   0  0  0  0  0  0  0  0  0  0  0  0
    7.2785    6.6946  -22.0100 C   0  0  0  0  0  0  0  0  0  0  0  0
    7.0643    3.1855  -20.5099 C   0  0  1  0  0  0  0  0  0  0  0  0
    7.0319    5.1908  -21.9857 C   0  0  2  0  0  0  0  0  0  0  0  0
    5.6810    2.7634  -21.1242 C   0  0  2  0  0  0  0  0  0  0  0  0
    4.5514    3.2819  -20.2809 N   0  3  0  0  0  0  0  0  0  0  0  0
    3.3547    3.7820  -18.3683 N   0  0  0  0  0  0  0  0  0  0  0  0
    5.6756    4.8756  -22.3793 O   0  0  0  0  0  0  0  0  0  0  0  0
    5.7519   -2.9246  -21.9798 F   0  0  0  0  0  0  0  0  0  0  0  0
    7.5567    1.3436  -22.9038 F   0  0  0  0  0  0  0  0  0  0  0  0
    3.7397    0.8051  -19.8925 F   0  0  0  0  0  0  0  0  0  0  0  0
    5.9874    3.2954  -17.9523 S   0  0  0  0  0  0  0  0  0  0  0  0
    7.3876   -1.2032  -23.0854 H   0  0  0  0  0  0  0  0  0  0  0  0
    4.0403   -1.6685  -20.4426 H   0  0  0  0  0  0  0  0  0  0  0  0
    5.8837    7.0843  -23.7775 H   0  0  0  0  0  0  0  0  0  0  0  0
    7.0788    8.3999  -23.5177 H   0  0  0  0  0  0  0  0  0  0  0  0
    6.3859    8.5261  -20.9694 H   0  0  0  0  0  0  0  0  0  0  0  0
    5.1909    7.2105  -21.2292 H   0  0  0  0  0  0  0  0  0  0  0  0
    6.5464    5.1931  -19.8771 H   0  0  0  0  0  0  0  0  0  0  0  0
    8.2892    4.9537  -20.2408 H   0  0  0  0  0  0  0  0  0  0  0  0
    6.1161    3.0457  -23.2477 H   0  0  0  0  0  0  0  0  0  0  0  0
    4.3940    3.3034  -22.8065 H   0  0  0  0  0  0  0  0  0  0  0  0
    7.1499    1.5296  -19.1271 H   0  0  0  0  0  0  0  0  0  0  0  0
    8.2442    2.8962  -18.7251 H   0  0  0  0  0  0  0  0  0  0  0  0
    8.2975    7.0162  -21.7487 H   0  0  0  0  0  0  0  0  0  0  0  0
    7.8445    2.7351  -21.1411 H   0  0  0  0  0  0  0  0  0  0  0  0
    7.7492    4.6947  -22.6560 H   0  0  0  0  0  0  0  0  0  0  0  0
    3.7070    3.5198  -20.7609 H   0  0  0  0  0  0  0  0  0  0  0  0
    3.3151    3.9192  -17.3786 H   0  0  0  0  0  0  0  0  0  0  0  0
    2.5265    3.8802  -18.9202 H   0  0  0  0  0  0  0  0  0  0  0  0
  1  4  1  0  0  0  0
  1  5  2  0  0  0  0
  2  4  2  0  0  0  0
  2  6  1  0  0  0  0
  3  5  1  0  0  0  0
  3  6  2  0  0  0  0
  3 16  1  0  0  0  0
  4 20  1  0  0  0  0
  5 21  1  0  0  0  0
  6 22  1  0  0  0  0
  7 17  2  0  0  0  0
  7 18  1  0  0  0  0
  7 23  1  0  0  0  0
  8  9  1  0  0  0  0
  8 13  1  0  0  0  0
  9 13  1  0  0  0  0
 10 14  1  0  0  0  0
 10 15  1  0  0  0  0
 11 16  1  0  0  0  0
 11 19  1  0  0  0  0
 12 14  1  0  0  0  0
 12 23  1  0  0  0  0
 13 15  1  0  0  0  0
 14 16  1  0  0  0  0
 15 19  1  0  0  0  0
 16 17  1  0  0  0  0
  1 24  1  0  0  0  0
  2 25  1  0  0  0  0
  8 26  1  0  0  0  0
  8 27  1  0  0  0  0
  9 28  1  0  0  0  0
  9 29  1  0  0  0  0
 10 30  1  0  0  0  0
 10 31  1  0  0  0  0
 11 32  1  0  0  0  0
 11 33  1  0  0  0  0
 12 34  1  0  0  0  0
 12 35  1  0  0  0  0
 13 36  1  0  0  0  0
 14 37  1  0  0  0  0
 15 38  1  0  0  0  0
 17 39  1  0  0  0  0
 18 40  1  0  0  0  0
 18 41  1  0  0  0  0
M  CHG  1  17   1
M  END
> <OMEGA_C>
h7zUQIEtRL8ZcrPB7TGYQCOPg780fafBWem0QL6rnD9V7qrBehC3QEh2y7+CQq7BtPLTQHlgHz9L
47HBOrWWQCJOuD54x6XBYtCRQJguXUDJzJfBU9vRQNC28UBLXrjBC+rEQG4U9EBReqzBcnPoQJWX
lkDkbaTB4/CtQNwJXkB69LPB7s3nQFIBKED0v5jBgOnoQM051kBjFLDBzg7iQN/eS0AvFKTB+ATh
QPgapkDM4q/BC8u1QG7bMEBQ/qjBG6WRQEQKUkBaP6LB3LJWQP0MckBb8pLBSJ61QIIEnEC7CLPB
5w+4QEIsO8Cb1q/BqdDxQHf5qz/lOrfBdVdvQJYbTj/EI5/BhZi/QNHnUkBGno/BYmfsQC8Bmr/M
rrjBcEqBQPeR1b9wiqPBI0e8QFKy4kBQOL7BPYXiQB9mBkFRJLzBnlnMQPxqCEFYwafBhBumQA28
5kBX1anBgHzRQD4upkBhBJ/BbqAEQZ6EnkAt7aHBLrfDQCntQkBR+7nBv5uMQE1rU0DLc7bBCMzk
QEnKwz9JBJnBH+gDQadbOUDqzJXBdsIEQVWE4EBH/a3BLAb7QEULL0DkIKnBt/n3QB87lkCKP7XB
uT9tQKxEYUBfFqbBYytUQL7UekBWB4vBjbIhQJJVeECLXJfB

> <OMEGA_E>
SCdLPg==

> <OMEGA_NBR>
    104023

$$$$
417128
  -OEChem-04172616093D

 41 44  0     1  0  0  0  0  0999 V2000
    6.5788    0.6839  -22.2554 C   0  0  0  0  0  0  0  0  0  0  0  0
    4.7322    0.4282  -20.6752 C   0  0  0  0  0  0  0  0  0  0  0  0
    6.6159   -0.7048  -22.4434 C   0  0  0  0  0  0  0  0  0  0  0  0
    4.7752   -0.9636  -20.8652 C   0  0  0  0  0  0  0  0  0  0  0  0
    5.6372    1.2684  -21.3699 C   0  0  0  0  0  0  0  0  0  0  0  0
    5.7170   -1.5286  -21.7455 C   0  0  0  0  0  0  0  0  0  0  0  0
    4.5444    3.4047  -18.9772 C   0  0  0  0  0  0  0  0  0  0  0  0
    6.5845    7.5689  -23.0374 C   0  0  0  0  0  0  0  0  0  0  0  0
    6.1764    7.6375  -21.5519 C   0  0  0  0  0  0  0  0  0  0  0  0
    7.2630    4.6993  -20.5592 C   0  0  0  0  0  0  0  0  0  0  0  0
    5.4547    3.4756  -22.5116 C   0  0  0  0  0  0  0  0  0  0  0  0
    7.2529    2.6018  -19.1275 C   0  0  0  0  0  0  0  0  0  0  0  0
    7.2959    6.7001  -22.0034 C   0  0  0  0  0  0  0  0  0  0  0  0
    7.0566    3.1800  -20.5355 C   0  0  1  0  0  0  0  0  0  0  0  0
    7.0414    5.1980  -21.9886 C   0  0  2  0  0  0  0  0  0  0  0  0
    5.6678    2.7811  -21.1353 C   0  0  2  0  0  0  0  0  0  0  0  0
    4.5282    3.2475  -20.2835 N   0  3  0  0  0  0  0  0  0  0  0  0
    3.3610    3.7825  -18.3649 N   0  0  0  0  0  0  0  0  0  0  0  0
    5.6883    4.8835  -22.3948 O   0  0  0  0  0  0  0  0  0  0  0  0
    5.7611   -2.8665  -21.9194 F   0  0  0  0  0  0  0  0  0  0  0  0
    5.9799    3.2097  -17.9624 S   0  0  0  0  0  0  0  0  0  0  0  0
    7.2736    1.3148  -22.7898 H   0  0  0  0  0  0  0  0  0  0  0  0
    4.0083    0.8580  -19.9987 H   0  0  0  0  0  0  0  0  0  0  0  0
    7.3336   -1.1401  -23.1229 H   0  0  0  0  0  0  0  0  0  0  0  0
    4.0837   -1.6012  -20.3344 H   0  0  0  0  0  0  0  0  0  0  0  0
    5.9093    7.1078  -23.7732 H   0  0  0  0  0  0  0  0  0  0  0  0
    7.1122    8.4143  -23.5031 H   0  0  0  0  0  0  0  0  0  0  0  0
    6.4129    8.5315  -20.9562 H   0  0  0  0  0  0  0  0  0  0  0  0
    5.2100    7.2251  -21.2262 H   0  0  0  0  0  0  0  0  0  0  0  0
    6.5429    5.1820  -19.8821 H   0  0  0  0  0  0  0  0  0  0  0  0
    8.2870    4.9395  -20.2371 H   0  0  0  0  0  0  0  0  0  0  0  0
    6.1549    3.0505  -23.2458 H   0  0  0  0  0  0  0  0  0  0  0  0
    4.4216    3.3052  -22.8489 H   0  0  0  0  0  0  0  0  0  0  0  0
    7.1922    1.5048  -19.1810 H   0  0  0  0  0  0  0  0  0  0  0  0
    8.2456    2.8965  -18.7563 H   0  0  0  0  0  0  0  0  0  0  0  0
    8.3160    7.0142  -21.7377 H   0  0  0  0  0  0  0  0  0  0  0  0
    7.8262    2.7344  -21.1829 H   0  0  0  0  0  0  0  0  0  0  0  0
    7.7623    4.7040  -22.6566 H   0  0  0  0  0  0  0  0  0  0  0  0
    3.6714    3.4603  -20.7530 H   0  0  0  0  0  0  0  0  0  0  0  0
    3.3360    3.9365  -17.3771 H   0  0  0  0  0  0  0  0  0  0  0  0
    2.5314    3.9013  -18.9105 H   0  0  0  0  0  0  0  0  0  0  0  0
  1  3  1  0  0  0  0
  1  5  2  0  0  0  0
  2  4  2  0  0  0  0
  2  5  1  0  0  0  0
  3  6  2  0  0  0  0
  4  6  1  0  0  0  0
  5 16  1  0  0  0  0
  6 20  1  0  0  0  0
  7 17  2  0  0  0  0
  7 18  1  0  0  0  0
  7 21  1  0  0  0  0
  8  9  1  0  0  0  0
  8 13  1  0  0  0  0
  9 13  1  0  0  0  0
 10 14  1  0  0  0  0
 10 15  1  0  0  0  0
 11 16  1  0  0  0  0
 11 19  1  0  0  0  0
 12 14  1  0  0  0  0
 12 21  1  0  0  0  0
 13 15  1  0  0  0  0
 14 16  1  0  0  0  0
 15 19  1  0  0  0  0
 16 17  1  0  0  0  0
  1 22  1  0  0  0  0
  2 23  1  0  0  0  0
  3 24  1  0  0  0  0
  4 25  1  0  0  0  0
  8 26  1  0  0  0  0
  8 27  1  0  0  0  0
  9 28  1  0  0  0  0
  9 29  1  0  0  0  0
 10 30  1  0  0  0  0
 10 31  1  0  0  0  0
 11 32  1  0  0  0  0
 11 33  1  0  0  0  0
 12 34  1  0  0  0  0
 12 35  1  0  0  0  0
 13 36  1  0  0  0  0
 14 37  1  0  0  0  0
 15 38  1  0  0  0  0
 17 39  1  0  0  0  0
 18 40  1  0  0  0  0
 18 41  1  0  0  0  0
M  CHG  1  17   1
M  END
> <OMEGA_C>
JIXSQHUTLz/4CrLBLG6XQKBB2z7RZqXBaLXTQNpqNL8MjLPBKc6YQIasdr/266bBPGS0QDlaoj+L
9arBCvK2QGqqw7/c9q3BzGuRQOvmWUA60ZfB/rPSQHc08kCKTLjB7KTFQLpm9EA3aqzBjGroQK1g
lkAoeaTByoyuQM9wXkDZF7TBfBfoQMqDJkAMBZnBB3jpQEBn1kD+BrDBc8/hQDmFS0DDSKTBC1Ph
QAZWpkC36K/By161QLf9MUAuFanBZ+eQQHTXT0CKRKLB0hlXQPMUckBC65LBuQa2QHtFnECLKLPB
A1u4QI51N8D6Wq/BU1u/QHJsTUDxso/BacHoQN9JqD9sUbbB/EOAQG2nWz9Z/Z/B3KzqQAbvkb+7
+7jBD66CQFf1zL/wrKLBrRi9QDlz40CUL77BwJbjQMagBkFwBrzBnDbNQBGBCEE0pqfBibimQM8z
50BYz6nBgV/RQD3TpUCEDp/BiJcEQbMQnkCM5aHB1PTEQKc7Q0Bp97nB3H2NQJCIU0B5yrbBwybm
QFycwD+wcpnBzO0DQeFfOUD+DJbBiQ4FQbl04EDF5q3BbnD6QJ8AL0CSdqnBu2T4QN+GlkDFQLXB
1PdqQJV1XUA5BqbBJYFVQDvwe0BWBIvBnAIiQAWveUDJSJfB

> <OMEGA_E>
QPxIPg==

> <OMEGA_NBR>
    105022

$$$$
417129
  -OEChem-04172616093D

 41 44  0     1  0  0  0  0  0999 V2000
    5.6341   -1.5583  -21.6711 C   0  0  0  0  0  0  0  0  0  0  0  0
    6.5703   -0.7879  -22.3795 C   0  0  0  0  0  0  0  0  0  0  0  0
    4.7188    0.4641  -20.6718 C   0  0  0  0  0  0  0  0  0  0  0  0
    5.6574    1.2609  -21.3751 C   0  0  0  0  0  0  0  0  0  0  0  0
    4.7112   -0.9306  -20.8178 C   0  0  0  0  0  0  0  0  0  0  0  0
    6.5920    0.6107  -22.2395 C   0  0  0  0  0  0  0  0  0  0  0  0
    4.5577    3.4003  -18.9888 C   0  0  0  0  0  0  0  0  0  0  0  0
    6.6419    7.5733  -23.0826 C   0  0  0  0  0  0  0  0  0  0  0  0
    6.0833    7.6602  -21.6474 C   0  0  0  0  0  0  0  0  0  0  0  0
    7.2553    4.7231  -20.5438 C   0  0  0  0  0  0  0  0  0  0  0  0
    5.4603    3.4932  -22.5175 C   0  0  0  0  0  0  0  0  0  0  0  0
    7.2654    2.6145  -19.1275 C   0  0  0  0  0  0  0  0  0  0  0  0
    7.2583    6.7348  -21.9682 C   0  0  0  0  0  0  0  0  0  0  0  0
    7.0746    3.2010  -20.5324 C   0  0  1  0  0  0  0  0  0  0  0  0
    7.0309    5.2285  -21.9696 C   0  0  2  0  0  0  0  0  0  0  0  0
    5.6966    2.7856  -21.1501 C   0  0  2  0  0  0  0  0  0  0  0  0
    4.5542    3.2611  -20.2982 N   0  3  0  0  0  0  0  0  0  0  0  0
    3.3633    3.7447  -18.3778 N   0  0  0  0  0  0  0  0  0  0  0  0
    5.6839    4.9009  -22.3889 O   0  0  0  0  0  0  0  0  0  0  0  0
    3.8175   -1.6682  -20.1238 F   0  0  0  0  0  0  0  0  0  0  0  0
    7.5323    1.2933  -22.9370 F   0  0  0  0  0  0  0  0  0  0  0  0
    5.9889    3.2188  -17.9680 S   0  0  0  0  0  0  0  0  0  0  0  0
    5.6235   -2.6325  -21.7822 H   0  0  0  0  0  0  0  0  0  0  0  0
    7.2779   -1.2728  -23.0357 H   0  0  0  0  0  0  0  0  0  0  0  0
    4.0019    0.9365  -20.0165 H   0  0  0  0  0  0  0  0  0  0  0  0
    6.0521    7.0884  -23.8744 H   0  0  0  0  0  0  0  0  0  0  0  0
    7.2008    8.4199  -23.5079 H   0  0  0  0  0  0  0  0  0  0  0  0
    6.2442    8.5678  -21.0472 H   0  0  0  0  0  0  0  0  0  0  0  0
    5.0955    7.2364  -21.4136 H   0  0  0  0  0  0  0  0  0  0  0  0
    6.5246    5.1885  -19.8659 H   0  0  0  0  0  0  0  0  0  0  0  0
    8.2739    4.9782  -20.2158 H   0  0  0  0  0  0  0  0  0  0  0  0
    6.1546    3.0815  -23.2648 H   0  0  0  0  0  0  0  0  0  0  0  0
    4.4245    3.3178  -22.8436 H   0  0  0  0  0  0  0  0  0  0  0  0
    7.2035    1.5179  -19.1870 H   0  0  0  0  0  0  0  0  0  0  0  0
    8.2569    2.9059  -18.7506 H   0  0  0  0  0  0  0  0  0  0  0  0
    8.2413    7.0699  -21.6059 H   0  0  0  0  0  0  0  0  0  0  0  0
    7.8573    2.7727  -21.1758 H   0  0  0  0  0  0  0  0  0  0  0  0
    7.7631    4.7534  -22.6390 H   0  0  0  0  0  0  0  0  0  0  0  0
    3.7060    3.4954  -20.7731 H   0  0  0  0  0  0  0  0  0  0  0  0
    3.3296    3.8826  -17.3879 H   0  0  0  0  0  0  0  0  0  0  0  0
    2.5346    3.8554  -18.9265 H   0  0  0  0  0  0  0  0  0  0  0  0
  1  2  1  0  0  0  0
  1  5  2  0  0  0  0
  2  6  2  0  0  0  0
  3  4  2  0  0  0  0
  3  5  1  0  0  0  0
  4  6  1  0  0  0  0
  4 16  1  0  0  0  0
  5 20  1  0  0  0  0
  6 21  1  0  0  0  0
  7 17  2  0  0  0  0
  7 18  1  0  0  0  0
  7 22  1  0  0  0  0
  8  9  1  0  0  0  0
  8 13  1  0  0  0  0
  9 13  1  0  0  0  0
 10 14  1  0  0  0  0
 10 15  1  0  0  0  0
 11 16  1  0  0  0  0
 11 19  1  0  0  0  0
 12 14  1  0  0  0  0
 12 22  1  0  0  0  0
 13 15  1  0  0  0  0
 14 16  1  0  0  0  0
 15 19  1  0  0  0  0
 16 17  1  0  0  0  0
  1 23  1  0  0  0  0
  2 24  1  0  0  0  0
  3 25  1  0  0  0  0
  8 26  1  0  0  0  0
  8 27  1  0  0  0  0
  9 28  1  0  0  0  0
  9 29  1  0  0  0  0
 10 30  1  0  0  0  0
 10 31  1  0  0  0  0
 11 32  1  0  0  0  0
 11 33  1  0  0  0  0
 12 34  1  0  0  0  0
 12 35  1  0  0  0  0
 13 36  1  0  0  0  0
 14 37  1  0  0  0  0
 15 38  1  0  0  0  0
 17 39  1  0  0  0  0
 18 40  1  0  0  0  0
 18 41  1  0  0  0  0
M  CHG  1  17   1
M  END
> <OMEGA_C>
x0q0QBF1x79zXq3BCUDSQDC2Sb8hCbPBQQCXQBGh7T7PX6XBdgm1QPtjoT8+AKvBfMKWQOQ5br/D
iqbBtPHSQPRYHD996rHBvtiRQN6eWUAL6ZfBOorUQGJY8kAdqbjB/KnCQHQg9UDsLa3BoCvoQOoj
l0CdWaTBs7quQLyQX0DkI7TBgn7oQL9UJ0AwBZnBn0PoQImD10Dovq/BcGPiQNfdTEBmQqTBwPzg
QNtPp0DEwa/BL0q2QHpHMkB/M6nBILyRQJa1UECjYqLB2D9XQI2ob0C4BZPBbuK1QPXTnEB2HLPB
o1J0QLqH1b+I/aDBmwjxQGGMpT8Tf7fB+aS/QEcATkBdvo/BkfOzQI96KMDuQa7Bm+ToQCrror8R
SbjBfw+AQOK9bz/jIaDBzqrBQObT4kDQ/r7B8mzmQLW3BkFDELzBS9DHQOEVCUGYYKjBJg6jQD2Q
50AkT6vBQcnQQAMIpkBt7Z7BuGEEQYlNn0ANuqHBePLEQDA3RUBSHrrBMpWNQDxXVECev7bBTIPm
QJVKwj/sfpnBThwEQbb6OUAyAZbBdNwDQXs84kDM2KzBU2/7QM1zMUD6Z6nBc2v4QBgcmEC0HLXB
qi5tQBK0X0BhL6bBihdVQBF8eEB3GovBtDciQBe+dkCSaZfBqGe4QImYxr8Rha7BUECYQE3Wgr+q
5afBKfTTQH66Lz+EibHBXwy0QPhinz+FzKrBTS3WQPGCMb+TXrPB+ZWVQJBXuj5mBabBC32RQIPp
W0BwuZfBg7DRQJfT8UCoXLjBSdXDQFrz80CEiKzBvRnoQA2BlkBwZqTB2MauQJH/XEC7A7TBSPDn
QMr7JkDX4ZjBWWXoQNp+1kCZ+q/B+Z7hQNupS0A3J6TBOgrhQApGpkDb26/BsRi1QFaAMUBR66jB
8S2RQAP8UkA+MqLBWp1WQAzJcUAnzpLBnPm1QJ+nm0D7MbPB9jD1QCZumL/4xLnBhr1qQG+eSz/x
rJ/BEEW/QPRbTkBhk4/B2jK6QAd4J8DV36/BlFSBQM3H17+SNKTBKffqQL9Rqz8wU7XBc7W8QASl
4kBvUr7BsVviQFKOBkHMCrzBgZ7KQGteCEH6wqfBRPikQDdF5kCeCqrBvvvQQH38pUBxAp/Be2oE
QcNSnkDH0aHBOJHFQCV8QUCoxbnBQOWNQHeDUUD1zrbBL+/lQF+JwT+URpnBDN4DQbnSOUBx7pXB
WF0EQe8c4UAWu63Bo0D6QB8XL0CaU6nBhn74QDXQlkBgKbXBX9dsQDozZED8BKbBSWNUQJ90eUAq
3orB5bUhQCboeUD7MJfB

> <OMEGA_E>
wIdWPjBMfj4=

> <OMEGA_NBR>
    106765

$$$$
417120
  -OEChem-04172616093D

 48 51  0     1  0  0  0  0  0999 V2000
    4.7386    0.4444  -20.6472 C   0  0  0  0  0  0  0  0  0  0  0  0
    4.7623   -0.9530  -20.7873 C   0  0  0  0  0  0  0  0  0  0  0  0
    6.5841   -0.7718  -22.3879 C   0  0  0  0  0  0  0  0  0  0  0  0
    5.6327    1.2640  -21.3856 C   0  0  0  0  0  0  0  0  0  0  0  0
    5.6735   -1.5591  -21.6674 C   0  0  0  0  0  0  0  0  0  0  0  0
    6.5805    0.6262  -22.2491 C   0  0  0  0  0  0  0  0  0  0  0  0
    4.5268    3.3930  -18.9741 C   0  0  0  0  0  0  0  0  0  0  0  0
    6.7432    7.5876  -23.0280 C   0  0  0  0  0  0  0  0  0  0  0  0
    6.4346    7.6624  -21.5193 C   0  0  0  0  0  0  0  0  0  0  0  0
    7.2343    4.7235  -20.5754 C   0  0  0  0  0  0  0  0  0  0  0  0
    5.4166    3.5182  -22.5279 C   0  0  0  0  0  0  0  0  0  0  0  0
    7.4509    6.6557  -22.0518 C   0  0  0  0  0  0  0  0  0  0  0  0
    7.0199    3.2094  -20.5503 C   0  0  1  0  0  0  0  0  0  0  0  0
    7.0846    5.1790  -22.0174 C   0  0  2  0  0  0  0  0  0  0  0  0
    7.2069    2.5939  -19.1668 C   0  0  1  0  0  0  0  0  0  0  0  0
    5.6459    2.7978  -21.1606 C   0  0  2  0  0  0  0  0  0  0  0  0
    9.2470    0.6720  -18.0715 C   0  0  0  0  0  0  0  0  0  0  0  0
    8.6059    2.9361  -18.6325 C   0  0  0  0  0  0  0  0  0  0  0  0
    4.5066    3.2603  -20.2869 N   0  3  0  0  0  0  0  0  0  0  0  0
    3.3533    3.7519  -18.3323 N   0  0  0  0  0  0  0  0  0  0  0  0
    5.7222    4.9219  -22.4302 O   0  0  0  0  0  0  0  0  0  0  0  0
    8.9875    2.0168  -17.6026 O   0  0  0  0  0  0  0  0  0  0  0  0
    5.6763   -2.9008  -21.8212 F   0  0  0  0  0  0  0  0  0  0  0  0
    7.5144    1.3177  -22.9465 F   0  0  0  0  0  0  0  0  0  0  0  0
    5.9528    3.1601  -17.9753 S   0  0  0  0  0  0  0  0  0  0  0  0
    4.0320    0.9008  -19.9699 H   0  0  0  0  0  0  0  0  0  0  0  0
    4.0778   -1.5631  -20.2167 H   0  0  0  0  0  0  0  0  0  0  0  0
    7.2922   -1.2433  -23.0532 H   0  0  0  0  0  0  0  0  0  0  0  0
    5.9918    7.1877  -23.7247 H   0  0  0  0  0  0  0  0  0  0  0  0
    7.3012    8.3997  -23.5170 H   0  0  0  0  0  0  0  0  0  0  0  0
    6.7724    8.5275  -20.9298 H   0  0  0  0  0  0  0  0  0  0  0  0
    5.4630    7.3155  -21.1375 H   0  0  0  0  0  0  0  0  0  0  0  0
    6.4830    5.2203  -19.9440 H   0  0  0  0  0  0  0  0  0  0  0  0
    8.2418    4.9668  -20.2068 H   0  0  0  0  0  0  0  0  0  0  0  0
    6.0664    3.0609  -23.2886 H   0  0  0  0  0  0  0  0  0  0  0  0
    4.3642    3.3991  -22.8250 H   0  0  0  0  0  0  0  0  0  0  0  0
    8.5059    6.8909  -21.8476 H   0  0  0  0  0  0  0  0  0  0  0  0
    7.7916    2.7701  -21.1995 H   0  0  0  0  0  0  0  0  0  0  0  0
    7.7870    4.6168  -22.6502 H   0  0  0  0  0  0  0  0  0  0  0  0
    7.0983    1.5012  -19.2328 H   0  0  0  0  0  0  0  0  0  0  0  0
    9.5321    0.0353  -17.2210 H   0  0  0  0  0  0  0  0  0  0  0  0
    8.3401    0.2674  -18.5445 H   0  0  0  0  0  0  0  0  0  0  0  0
   10.0660    0.6914  -18.8056 H   0  0  0  0  0  0  0  0  0  0  0  0
    9.3323    2.8787  -19.4565 H   0  0  0  0  0  0  0  0  0  0  0  0
    8.5970    3.9566  -18.2219 H   0  0  0  0  0  0  0  0  0  0  0  0
    3.6499    3.4895  -20.7490 H   0  0  0  0  0  0  0  0  0  0  0  0
    3.3419    3.8681  -17.3391 H   0  0  0  0  0  0  0  0  0  0  0  0
    2.5172    3.8948  -18.8620 H   0  0  0  0  0  0  0  0  0  0  0  0
  1  2  2  0  0  0  0
  1  4  1  0  0  0  0
  2  5  1  0  0  0  0
  3  5  2  0  0  0  0
  3  6  1  0  0  0  0
  4  6  2  0  0  0  0
  4 16  1  0  0  0  0
  5 23  1  0  0  0  0
  6 24  1  0  0  0  0
  7 19  2  0  0  0  0
  7 20  1  0  0  0  0
  7 25  1  0  0  0  0
  8  9  1  0  0  0  0
  8 12  1  0  0  0  0
  9 12  1  0  0  0  0
 10 13  1  0  0  0  0
 10 14  1  0  0  0  0
 11 16  1  0  0  0  0
 11 21  1  0  0  0  0
 12 14  1  0  0  0  0
 13 15  1  0  0  0  0
 13 16  1  0  0  0  0
 14 21  1  0  0  0  0
 15 18  1  0  0  0  0
 15 25  1  0  0  0  0
 16 19  1  0  0  0  0
 17 22  1  0  0  0  0
 18 22  1  0  0  0  0
  1 26  1  0  0  0  0
  2 27  1  0  0  0  0
  3 28  1  0  0  0  0
  8 29  1  0  0  0  0
  8 30  1  0  0  0  0
  9 31  1  0  0  0  0
  9 32  1  0  0  0  0
 10 33  1  0  0  0  0
 10 34  1  0  0  0  0
 11 35  1  0  0  0  0
 11 36  1  0  0  0  0
 12 37  1  0  0  0  0
 13 38  1  0  0  0  0
 14 39  1  0  0  0  0
 15 40  1  0  0  0  0
 17 41  1  0  0  0  0
 17 42  1  0  0  0  0
 17 43  1  0  0  0  0
 18 44  1  0  0  0  0
 18 45  1  0  0  0  0
 19 46  1  0  0  0  0
 20 47  1  0  0  0  0
 20 48  1  0  0  0  0
M  CHG  1  19   1
M  END
> <OMEGA_C>
rqKXQDuE4z50LaXBwWSYQKj6c793TKbB1bDSQHyVRb9bGrPBcD+0QE7LoT+eFavBro21QOaPx7/s
Vq3BfZPSQGpLID8p/rHBONuQQF8nWUDjypfBe8jXQEnN8kBBObjBAujNQLky9UBxJ6zBnX/nQOEm
l0BlmqTB1FStQPspYUAlObTB0m3uQMP71EANarDBu6LgQB9nTUALZ6TBw7TiQLe6pUC1I7DBIZ/m
QLMBJkCzVZnB26q0QDIPM0DUSKnB3PMTQSIJLD9ZkpDBk7EJQeHoO0BFD5XBYzaQQBupUECTS6LB
6JtWQAQfcEB0qJLB8xu3QJSAnUAjcbPB38wPQeATAUAX0ozBD6S1QKOmOcDNka7BWnbwQM6pqD9W
krfBb32+QCQ/SkB7zY/BPAaBQCydZj9Pwp/Bhn2CQCwVyL+7u6HBZlnpQGgkn78NbbjBr7y/QFwB
5kAlzL3BM6PpQCllBkG8IrzBx7fYQK9wCEEocKfBQtGuQGkY6kCQGanBVXTPQMoMp0BijZ/BOd4D
QUrwnkB2p6HBmx/CQEnlQ0AVT7rBkKeLQEaLWUCimbbBKhgIQVCC3EDvx67BsFT5QIdJMUCYmKnB
Gi/5QLS8k0C1M7XBlCXjQMMnwD+23JnBqoMYQShpED2kxInBJHEFQUrjiD4fW5TBWQ4hQQACMT/N
cZbBCFEVQXc8OEDbppvBPY0JQTg4fUBsxpHBIphpQE9TX0Dm/aXBQOJVQOiOd0B2torBCxohQNRE
eUBK5ZbBa+iXQBLt2j6uV6XBxVSZQNLqd79bdabBLWnTQEMDQ79eULPBjBi0QBfkoD9URqvBdse2
QKzEx78fgK3Bk5PSQPGDIj8MPLLBp/mQQJnMWUBExpfBNUbYQGXo8kAjCbjBsRvKQJ6y9ECoOazB
MpjnQPq2lUC7kqTBnfWsQIb4YEAdLrTBWJnsQLg01UD006/BD7bgQK5ASkB7VKTB99LhQHChpUDd
+K/BN9PlQK9HIEDOLpnBFYy0QJD+MUCJTKnBdf4gQVtgk0AxlZLBr44JQcmXLEBNt5TBeBiQQD9D
T0BkQKLBsktXQDHJckCIr5LBhVi2QMVRnUB9RrPBvDYMQdkdgUC0nZDBFaK3QNa5OcDFr67BPRXw
QKNvqz+i2LfB722+QCHeSUD/vY/BWyOBQMz0Xz+P6p/Ba7qDQM5Xy7/+46HBtTjqQNqknL9EprjB
SYbCQIfp5UAGJb7B7/jqQDisBkFnfLvBSbfSQGUwCEGrO6fBpESqQODx6EBK5KnBYhzQQKZhpUAJ
UZ/B8hEEQcM+nUCdzKHBudfBQHeYREDuT7rBzU2LQPEBWUDvjrbBcMAGQVhD3UAEcK3BpFH5QBTO
LUBvhanBhXT4QDnflEB/QLXBAzTfQIi9tj9i5JnB+qQhQUbes0CsNo/Bc1MtQX/CfkDCyI7BxeQj
QVXTlEBFQZvBKkQMQSHI/D9DN47BpUQVQd+DIUA7I5vBYrloQDwBXEA06aXBdqxWQEEIe0CzwIrB
IwIiQDaVfECj8ZbB+FWXQOMP2T6M3qXBhX+XQG5JeL/6E6fBOmXVQJD3T7+20rLBJx62QNoqnT8V
MavBoj+2QAX+yr/inK3BQr3VQGyCFT/AqLHBHnKRQMRLV0DcLZjBAjECQVaP8UCt5avBNPnoQE5a
9kAMErbByWPlQITSlkCCi6PBofGwQLIJXkCiQ7TBiqvZQIRV2kB25azBaajhQJawS0AZNaTBVlrb
QJ9sqkBXc67BUnLnQHYtH0AgWpnB95a2QEweMEApXqnBQPsgQRSnGEBBNobBeE0JQSDTN0BOn5TB
42mRQFauTUC4pqLBa0FaQOCheEBSYpPBOuayQOhVnEB5obLB7qYNQZzKAUBNsovB3di1QEI+O8Dw
5q7Bffr0QItOoj940LbBWOW8QGbFO0C/24/BKxZ/QIMCZD8p1qDBmdp/QA8Gyb+N+aLB6TntQKee
pb8RwbfB8kERQRhl30BJKazBe+ADQcNLBkH3UqbBnsPYQJ1rCkHIx7fBi4bzQM2k50Aanr3B/pHO
QJsIo0CclJ3BVBADQXOTn0AoKqHBgabKQOZPSkAsv7nBJcCRQJXmTEDSu7fBjhi/QCnh5kBXDajB
zWj7QP/5NEAZfqnB30v1QON/okD1DrTBr7XlQJC7sj/HZprB4H0jQTTa2T9Z3H7Bw5cuQVjeE0Ax
wovBW7AfQeu3WkDMPYPBdOAVQfG5L0AisprB198IQb/8ekA7/pHBD15sQIxFW0ClfqbBJExYQI8y
gEBocovBXMYnQN93hEAG3JfB0/GWQPTn4T5Mz6XBM1+XQDazc7+lIKfBG97UQHBzRb9t/LLBf2K1
QNyZoD+MI6vBqRy2QGsYx7+3wK3Br9zUQJBtHz+RwrHB30yRQDjgW0Cuy5fBW8zPQLOl9UA996nB
H24AQWuM8UCju6nB+r/oQFp3lkCl6KTBexGuQBpfXkCgHLTB7U3mQCfr1kDNrLHB/vXhQKILS0DL
MqTB0jvgQE5npkD2WbDBUXjlQPalIUBk4JjBOt61QG2wMUC4K6nB9HkPQVwFmkDTgI7BGZIJQdFi
IEDuLJTBvwWRQHKwT0DSP6LBd5FWQJ65ckDd2pLBqQa1QLo0nED1L7PBupYVQW5jbkD7eJXBayC2
QGw4OcBfHK/BD4jzQChoqD9fErfB4Ou+QFjLUEDTsY/BBXh+QEjYZT+usaDBHAKAQHnrx7+yCaPB
/KvsQGAgn78A/LfBEpS8QDLs6EClUKPB99XAQJGGCUGOCK3Bkn0KQcf8BUGUpazBn1wIQZ3Y4UCs
7aLBRqHSQMCJpkDcXZ/B3PYEQYIZnkBorKLBzz3EQKvfQ0AYF7rBB+eMQDm8UkAbrbbBFd3nQNb/
4UC9BLrBScj6QMQaLUDoMKnBDXn2QKX7lUCNzLXBlSfbQPtMvT9Or5nBPJsZQfIItkBSKJDB1zn9
QLhTokD27Y/BkI0RQRw0kEDPHYbBDk4IQeP8EkA/j4vBdoASQSsA2T+rGpjBTddqQNCWW0CCA6bB
uABVQDdJfEB38orB7UMhQDSneUCEMpfB84/RQKiPMT9gOrLBE9jUQGvhML9ZzLPBZMebQA+Hhb+F
5abBsP+yQICcnz+gCKvB/cO5QL2hx79ALa7BOUaYQLdXsD5rN6XBw/WQQJSTXkC6wJfB4yjWQOti
8kBmAbjBg1TLQOGb80DE+avBO7noQCuOlUCSzaTBqJ6tQPsfX0AgObTBNCvtQN6q1EDOOrDBZCXg
QGiASkB7faTBCtniQOUDpUCEPLDBEC/lQMooJUCsRpnBv5OzQPVIMkBsKqnBBpgUQUuA7j5exZPB
spsJQSC3MUAnVpXBIr2PQECNU0A4O6LBCwRWQAbeb0AWd5LBODW3QAR0nEAce7PBNDUPQUKQ2T+f
T47B8Z68QH0mOcCavq/BTed2QBx2QT+Q3J3BGK6/QHEWVkD2+4/B/avmQCZgrT+tkbbB1y7sQM4l
i7+VU7nBCC+HQLfs278viqLBdOu+QK5I5UD9vr3BNn3nQBiYBkGGt7vBFvLUQO2gB0GmFqfBVWCs
QFpa50AdHqnBOxHSQDk0pkAagp/BQdMEQWkPnECZJqLBHDnDQGVeQUBkF7rBXkeMQJMhV0DB3LbB
xkcHQXgT3UCDZ67BC1P4QJbHK0C7mqnBoHj5QKkrlEBKgLXBQI3dQH7jwD+1bJnBpqwYQU+mnL56
143BodEGQf2dBT7ni5jBBWAiQdD5Ij85EpnBmJEUQRtcMkCoOJzB8NQKQb7TbkDFApHB+cVoQPi+
YkB77KXBSb1VQK8Jd0AAhIrBZXYfQNMvdUBdmJbBrH3RQLy9Nj8fi7LBOXjVQJyUKr+EK7TBu1Cd
QDozh78eE6fB3iCzQP87nz/TMavBuTK7QBiQxr/0ea7BrDuZQHtfpz4yTqXBus6QQHypW0CNvJfB
BZHWQDOv8kCRtrfBWCDNQPXd80DjnKvBqT7oQJfElEDgvaTBrOysQGulX0CtIrTBN5XtQOMi1EA5
JLDB7zngQO+QSEAjZaTBFhfiQDexpEDpIbDBVLvlQBZbH0A/NZnBspKzQIxmMUDXKKnBOn0fQZUg
lkDshJHB/E0JQQizL0AMqZTBIMuPQMfoUUAiN6LBvh9XQOSZdECxm5LBXWe2QBavnEBfRLPBAcEK
QcKrgkCnXZDBINK+QIBqOMD9EbDB+pJ5QHQVOD94yp3BSIi9QEWGRUDaq4/BpuDlQDrXsT+c9LbB
qLTsQPkLhr8Gy7nBp0OJQINZ379LsqLB6Fe+QMZi5kAfT73B2DfoQESMBkH0gLvBDgzYQGiNB0HH
wKbBHiyuQA5l6EDxjqjBhYDRQGkUpUCcZ5/BhZIEQUeRm0BpHaLBVD/CQNu5QkC4IbrBCnSLQJC9
V0B/rLbBGbAHQeme20Abiq7B6T74QGHKKkBQpKnBGDT4QDp+k0DsdbXB0qDgQHTXsz+35pnB2TAf
QVF8tkD8Do7Be4ErQVuigkA0U43BR6EjQaAhmEC5DprBQZIMQcs5AUBXQY7BsjIVQdwIKEBrE5vB
9A1pQP+yYUCR6KXBXMtVQBZgeUDXoYrBx6giQB/rgEBz4ZbBlmaYQPH1xz4WAKbBDZ+YQIZ2f7+m
iKfB9mLWQBy1S7/FSLPBlNm2QAB4mz/0OavBu0e3QNdKy7/9Pq7Bg4vWQL6kGD8517HB3jyRQCZ0
V0BxGJjBOswCQdkZ70DRxqnBhlTyQDkP9kBJ8bTBtLzkQKsflkDgs6PBGDSwQNWOXUAZJ7TBtfHa
QKoo2kB/06zB7nbhQC2XSkAqDqTBpgbbQGcEqkA+jq7Bp1znQMnZHkCNApnBIIW2QNf1LkDEQ6nB
bcIZQY/6oEBFxJDBH2YJQUf+NUBB75PBuhCRQPYeS0AfhqLBpp1aQO97e0BGapPBplCyQFE5nEAr
l7LBsAAIQauNhEBy247B8L62QCL7OsBf5a/BQHb1QNOIpj9E8rbBcP67QLHEOkC/po/BctKAQH1G
Vj9MyqDBuCmBQBarzr9Ui6PBCVHuQJQqob/ES7jBkzwRQV9Z20AXz6jBBCEDQT/EBEGt96PBiD/l
QNbDCkG8JLfBUrsAQY1Y50Am/LvBOLjNQO9vokCYzJ3BQrACQVscn0D6SqHBiofJQDe5SUAovbnB
gcWQQBuHTEBQfrfBrwi+QNvt50AYLKnBU0/7QF1FM0ApRanB+q30QJGYoUCWM7TBb5LlQNYXsj+p
D5rBbAYXQf5mv0CZjozBvJQoQZMqkkCGzI3BnzobQZQOp0A+Z5nB96MNQSOFBUBh6o3Br8UVQU2x
N0BwMJrB09JqQGVwVUBWVqbBJphYQPUwgkAyf4vBnsYoQGVLhkCh9JfB7O3UQJL9KT9OxLHBSxbX
QFq8N7+2i7PBfB+aQBxRhb9Hu6fBexi1QO/CnD87/qrBGnW5QNHWyL/Elq7BnryXQODmrj7n1KXB
poaRQJKBWkBtBpjBT0cBQWS98UBQmKrBpxbsQOCz9kCwerXBb0zmQMcZlkB9wqPBCWqxQGYuXECJ
N7TBnAbZQDbP2UBU7KzBB3jhQFo5SkBRPaTBA/DbQE/uqUBtoq7BTjHnQBxKH0BIRpnBAs61QOwl
MEAsJ6nBjTcfQV7XIEBnSIXBvlsJQW74NkAsqZTB2neRQA7vUUADhKLBEbJYQC7KdkBbI5PBT7ez
QBqFm0DQ47LBRz4NQXq/A0AUbIvBnQG7QNJ6OcD+bLDB/jhyQNb+Qz/0/J7ByEe9QAyeP0AiwY/B
0djrQA49qD+tm7XB3n7vQD4YkL/5t7jBTKKDQGVI2r8a4aPB+3gQQY8e4EBoB6rBdWEBQaY8BkHh
3qTBFD3cQHuCCkE3jbfBIGz6QDqq6EC+tbzBfzjQQDEAo0BHtp3BkrMDQWopnkCqjKHByn/LQNjJ
RkBofLnBD3OSQI8AS0AZz7fBRya8QH2u5UD126jBRK/6QJaSMUDljKnBIhb2QFfiokCHQbTBfaXk
QHLNsj//HprB0WYhQRD47T99lXzBr7QtQUoMH0AORorByFQcQS7TYkBYk4LBmOEVQXgLK0BvqZrB
GHQJQY0Oe0CDbJLBpsptQBN3Y0C1ZabBIddVQFZte0DJKovBZd0lQGdJg0CllJfB8LbVQNZ2LD/V
87HBIe/YQEBvNL9KvLPBzHebQHoSib8tJ6jBUUa1QE/zmj9jPKvB+Zu7QNS5yb/q5K7BUTeYQFhm
nj44MKbBonyRQJBrW0AN7ZfBXL0CQVgd70CIl6rB88bvQPBx9UCag7XB5z/mQCcilUC7+KPBJXCw
QHDeW0D0HrTBfeXaQPod2UDSFa3BRYrhQCiyR0AhG6TBTbnbQGb8qEAOzK7BoXvlQKIEG0B9/JjB
Faq1QOzKLkDDH6nB9GQPQV/tlkAFHI7BPpIJQSQ4G0CYNpTBiBqRQIwtT0B9YKLBIgxZQEYAekB4
J5PBW+2yQExKm0D8urLB7lAVQb4RakCLZ5XBSFq+QODSOcBptLDBcs9yQE4HNz+LUZ/BctG9QIRh
RUDJmI/BNUTsQDedqz/RvrXBuOrxQAM7jL9g0rjB2guFQOby378IcqTBz4ARQbMb3EBY+6nB21ID
QW7QBEGgz6TBvXLhQG5ECkEYkLfBpM79QLUD50DQu7zBNl/QQMdfokCp7J3B0LYDQdpInUCC2qHB
7RLKQCC/RkDkirnBnCyRQAQQS0B0k7fBu26+QNk35kBoE6nBMdj6QGG2LUAsSqnBfCn1QL7soEA1
ibTB4zDcQJlwrz/THZrBKkYZQYRas0CLs4/BBtT8QGX9nkBYP4/B+PsRQVY5jECm04XB3kEIQRNP
DUCfnIvBOsQSQdhF0D9pJ5jBwKZrQMe/XEA6M6bBmBRXQBN3gUB6PIvBxqMlQFqTg0B7oJfB

> <OMEGA_E>
dMi9Pjidvj7gnMs+CEXOPoBxzz6IfdA+gD/UPkgG2T6ga98+

> <OMEGA_NBR>
    114504

$$$$
417130
  -OEChem-04172616093D

 41 44  0     1  0  0  0  0  0999 V2000
    5.7159   -1.5996  -21.7880 C   0  0  0  0  0  0  0  0  0  0  0  0
    6.6348   -0.7737  -22.4466 C   0  0  0  0  0  0  0  0  0  0  0  0
    4.7662   -1.0370  -20.9251 C   0  0  0  0  0  0  0  0  0  0  0  0
    5.6548    1.2183  -21.3673 C   0  0  0  0  0  0  0  0  0  0  0  0
    6.6176    0.6160  -22.2443 C   0  0  0  0  0  0  0  0  0  0  0  0
    4.7193    0.3522  -20.7129 C   0  0  0  0  0  0  0  0  0  0  0  0
    4.5568    3.4487  -18.9773 C   0  0  0  0  0  0  0  0  0  0  0  0
    6.5557    7.5659  -23.0287 C   0  0  0  0  0  0  0  0  0  0  0  0
    6.1473    7.6314  -21.5431 C   0  0  0  0  0  0  0  0  0  0  0  0
    7.2569    4.7069  -20.5481 C   0  0  0  0  0  0  0  0  0  0  0  0
    5.4391    3.4699  -22.4963 C   0  0  0  0  0  0  0  0  0  0  0  0
    7.2481    2.6204  -19.0985 C   0  0  0  0  0  0  0  0  0  0  0  0
    7.2740    6.7015  -21.9955 C   0  0  0  0  0  0  0  0  0  0  0  0
    7.0635    3.1853  -20.5120 C   0  0  1  0  0  0  0  0  0  0  0  0
    7.0293    5.1967  -21.9790 C   0  0  2  0  0  0  0  0  0  0  0  0
    5.6820    2.7602  -21.1265 C   0  0  2  0  0  0  0  0  0  0  0  0
    4.5519    3.2778  -20.2836 N   0  3  0  0  0  0  0  0  0  0  0  0
    3.3579    3.7876  -18.3717 N   0  0  0  0  0  0  0  0  0  0  0  0
    5.6754    4.8780  -22.3790 O   0  0  0  0  0  0  0  0  0  0  0  0
    7.5533    1.3373  -22.9084 F   0  0  0  0  0  0  0  0  0  0  0  0
    3.7551    0.7969  -19.8760 F   0  0  0  0  0  0  0  0  0  0  0  0
    5.9819    3.2630  -17.9507 S   0  0  0  0  0  0  0  0  0  0  0  0
    5.7391   -2.6679  -21.9447 H   0  0  0  0  0  0  0  0  0  0  0  0
    7.3626   -1.2088  -23.1156 H   0  0  0  0  0  0  0  0  0  0  0  0
    4.0615   -1.6783  -20.4166 H   0  0  0  0  0  0  0  0  0  0  0  0
    5.8836    7.1003  -23.7645 H   0  0  0  0  0  0  0  0  0  0  0  0
    7.0772    8.4152  -23.4943 H   0  0  0  0  0  0  0  0  0  0  0  0
    6.3776    8.5268  -20.9472 H   0  0  0  0  0  0  0  0  0  0  0  0
    5.1840    7.2120  -21.2174 H   0  0  0  0  0  0  0  0  0  0  0  0
    6.5339    5.1880  -19.8728 H   0  0  0  0  0  0  0  0  0  0  0  0
    8.2794    4.9577  -20.2293 H   0  0  0  0  0  0  0  0  0  0  0  0
    6.1228    3.0492  -23.2484 H   0  0  0  0  0  0  0  0  0  0  0  0
    4.3988    3.3021  -22.8118 H   0  0  0  0  0  0  0  0  0  0  0  0
    7.1705    1.5238  -19.1389 H   0  0  0  0  0  0  0  0  0  0  0  0
    8.2440    2.9041  -18.7274 H   0  0  0  0  0  0  0  0  0  0  0  0
    8.2919    7.0227  -21.7298 H   0  0  0  0  0  0  0  0  0  0  0  0
    7.8450    2.7415  -21.1461 H   0  0  0  0  0  0  0  0  0  0  0  0
    7.7507    4.7050  -22.6481 H   0  0  0  0  0  0  0  0  0  0  0  0
    3.7081    3.5175  -20.7638 H   0  0  0  0  0  0  0  0  0  0  0  0
    3.3177    3.9196  -17.3812 H   0  0  0  0  0  0  0  0  0  0  0  0
    2.5325    3.9003  -18.9250 H   0  0  0  0  0  0  0  0  0  0  0  0
  1  2  1  0  0  0  0
  1  3  2  0  0  0  0
  2  5  2  0  0  0  0
  3  6  1  0  0  0  0
  4  5  1  0  0  0  0
  4  6  2  0  0  0  0
  4 16  1  0  0  0  0
  5 20  1  0  0  0  0
  6 21  1  0  0  0  0
  7 17  2  0  0  0  0
  7 18  1  0  0  0  0
  7 22  1  0  0  0  0
  8  9  1  0  0  0  0
  8 13  1  0  0  0  0
  9 13  1  0  0  0  0
 10 14  1  0  0  0  0
 10 15  1  0  0  0  0
 11 16  1  0  0  0  0
 11 19  1  0  0  0  0
 12 14  1  0  0  0  0
 12 22  1  0  0  0  0
 13 15  1  0  0  0  0
 14 16  1  0  0  0  0
 15 19  1  0  0  0  0
 16 17  1  0  0  0  0
  1 23  1  0  0  0  0
  2 24  1  0  0  0  0
  3 25  1  0  0  0  0
  8 26  1  0  0  0  0
  8 27  1  0  0  0  0
  9 28  1  0  0  0  0
  9 29  1  0  0  0  0
 10 30  1  0  0  0  0
 10 31  1  0  0  0  0
 11 32  1  0  0  0  0
 11 33  1  0  0  0  0
 12 34  1  0  0  0  0
 12 35  1  0  0  0  0
 13 36  1  0  0  0  0
 14 37  1  0  0  0  0
 15 38  1  0  0  0  0
 17 39  1  0  0  0  0
 18 40  1  0  0  0  0
 18 41  1  0  0  0  0
M  CHG  1  17   1
M  END
> <OMEGA_C>
0ei2QC6+zL/KTa7BcFDUQFoURr+9krPByoSYQNq7hL+IZqfB1/O0QF7wmz9A8KrBVMPTQJK0HT9B
9LHBjASXQF5UtD4JtKXBe9GRQJG3XEB30ZfBjsjRQNMb8kC+OrjB17bEQBU09EBHWKzBXTjoQPme
lkBsYqTBcg2uQIASXkBi+LPBmPDnQAC0J0DKyZjBTsToQA5z1kDQ9q/B7QfiQErcS0B+GKTB5e/g
QJ5LpkD61K/BsdK1QI6nMED8AqnB4KiRQP/GUUDqRKLBPedWQJ5ockAz+ZLByJy1QGcYnEBBCLPB
B7XxQIAtqz9/RLfBt1NwQHX+Sz/7AZ/Bw2u/QFbVUED4mo/Brqa3QGS+KsDCjq/BYJrrQEC5mr++
7LjBx/eBQFbR1r8xVaPBWUa8QKY140C3Hb7BvXjiQHmkBkFP9LvBexXMQN5tCEHdk6fBF+OlQG/I
5kBFvanBFRbRQO4DpkCO+57BW3gEQR6lnkCX1aHBwu3DQKomQ0DB/LnB+8KMQPZVU0CPfrbB2nTl
QFMNwz9pHJnBe+cDQQ3cOUDJ0ZXBtasEQUW64ECo1q3BSQr7QDR0L0BPK6nBGwb4QGKPlkBML7XB
+1BtQBQfYUA5HKbBrVVUQBrbekDIDIvB7RQiQJ6eeUBUZpfB

> <OMEGA_E>
kIpaPg==

> <OMEGA_NBR>
    115503

$$$$
417131
  -OEChem-04172616093D

 41 44  0     1  0  0  0  0  0999 V2000
    4.7037   -0.9452  -20.8289 C   0  0  0  0  0  0  0  0  0  0  0  0
    5.6340   -1.5637  -21.6801 C   0  0  0  0  0  0  0  0  0  0  0  0
    4.7097    0.4503  -20.6703 C   0  0  0  0  0  0  0  0  0  0  0  0
    6.5744   -0.7872  -22.3758 C   0  0  0  0  0  0  0  0  0  0  0  0
    5.6530    1.2541  -21.3636 C   0  0  0  0  0  0  0  0  0  0  0  0
    6.5935    0.6103  -22.2265 C   0  0  0  0  0  0  0  0  0  0  0  0
    4.5518    3.4055  -18.9796 C   0  0  0  0  0  0  0  0  0  0  0  0
    6.6152    7.5478  -23.0959 C   0  0  0  0  0  0  0  0  0  0  0  0
    6.2050    7.6546  -21.6130 C   0  0  0  0  0  0  0  0  0  0  0  0
    7.2577    4.7216  -20.5572 C   0  0  0  0  0  0  0  0  0  0  0  0
    5.4439    3.4848  -22.5091 C   0  0  0  0  0  0  0  0  0  0  0  0
    7.2597    2.6277  -19.1147 C   0  0  0  0  0  0  0  0  0  0  0  0
    7.3160    6.6962  -22.0403 C   0  0  0  0  0  0  0  0  0  0  0  0
    7.0678    3.2009  -20.5241 C   0  0  1  0  0  0  0  0  0  0  0  0
    7.0465    5.1978  -21.9956 C   0  0  2  0  0  0  0  0  0  0  0  0
    5.6878    2.7806  -21.1393 C   0  0  2  0  0  0  0  0  0  0  0  0
    4.5452    3.2529  -20.2873 N   0  3  0  0  0  0  0  0  0  0  0  0
    3.3581    3.7532  -18.3694 N   0  0  0  0  0  0  0  0  0  0  0  0
    5.6906    4.8907  -22.3967 O   0  0  0  0  0  0  0  0  0  0  0  0
    7.5366    1.2982  -22.9156 F   0  0  0  0  0  0  0  0  0  0  0  0
    5.9855    3.2413  -17.9605 S   0  0  0  0  0  0  0  0  0  0  0  0
    3.9814   -1.5446  -20.2945 H   0  0  0  0  0  0  0  0  0  0  0  0
    5.6261   -2.6371  -21.7995 H   0  0  0  0  0  0  0  0  0  0  0  0
    3.9896    0.9169  -20.0145 H   0  0  0  0  0  0  0  0  0  0  0  0
    7.2876   -1.2667  -23.0299 H   0  0  0  0  0  0  0  0  0  0  0  0
    5.9370    7.0765  -23.8224 H   0  0  0  0  0  0  0  0  0  0  0  0
    7.1521    8.3770  -23.5799 H   0  0  0  0  0  0  0  0  0  0  0  0
    6.4491    8.5597  -21.0375 H   0  0  0  0  0  0  0  0  0  0  0  0
    5.2340    7.2592  -21.2800 H   0  0  0  0  0  0  0  0  0  0  0  0
    6.5241    5.2031  -19.8939 H   0  0  0  0  0  0  0  0  0  0  0  0
    8.2750    4.9773  -20.2257 H   0  0  0  0  0  0  0  0  0  0  0  0
    6.1212    3.0568  -23.2627 H   0  0  0  0  0  0  0  0  0  0  0  0
    4.4010    3.3233  -22.8195 H   0  0  0  0  0  0  0  0  0  0  0  0
    7.1981    1.5306  -19.1641 H   0  0  0  0  0  0  0  0  0  0  0  0
    8.2515    2.9228  -18.7414 H   0  0  0  0  0  0  0  0  0  0  0  0
    8.3388    7.0059  -21.7796 H   0  0  0  0  0  0  0  0  0  0  0  0
    7.8480    2.7615  -21.1631 H   0  0  0  0  0  0  0  0  0  0  0  0
    7.7626    4.6829  -22.6530 H   0  0  0  0  0  0  0  0  0  0  0  0
    3.6929    3.4740  -20.7611 H   0  0  0  0  0  0  0  0  0  0  0  0
    3.3268    3.9029  -17.3812 H   0  0  0  0  0  0  0  0  0  0  0  0
    2.5275    3.8545  -18.9170 H   0  0  0  0  0  0  0  0  0  0  0  0
  1  2  1  0  0  0  0
  1  3  2  0  0  0  0
  2  4  2  0  0  0  0
  3  5  1  0  0  0  0
  4  6  1  0  0  0  0
  5  6  2  0  0  0  0
  5 16  1  0  0  0  0
  6 20  1  0  0  0  0
  7 17  2  0  0  0  0
  7 18  1  0  0  0  0
  7 21  1  0  0  0  0
  8  9  1  0  0  0  0
  8 13  1  0  0  0  0
  9 13  1  0  0  0  0
 10 14  1  0  0  0  0
 10 15  1  0  0  0  0
 11 16  1  0  0  0  0
 11 19  1  0  0  0  0
 12 14  1  0  0  0  0
 12 21  1  0  0  0  0
 13 15  1  0  0  0  0
 14 16  1  0  0  0  0
 15 19  1  0  0  0  0
 16 17  1  0  0  0  0
  1 22  1  0  0  0  0
  2 23  1  0  0  0  0
  3 24  1  0  0  0  0
  4 25  1  0  0  0  0
  8 26  1  0  0  0  0
  8 27  1  0  0  0  0
  9 28  1  0  0  0  0
  9 29  1  0  0  0  0
 10 30  1  0  0  0  0
 10 31  1  0  0  0  0
 11 32  1  0  0  0  0
 11 33  1  0  0  0  0
 12 34  1  0  0  0  0
 12 35  1  0  0  0  0
 13 36  1  0  0  0  0
 14 37  1  0  0  0  0
 15 38  1  0  0  0  0
 17 39  1  0  0  0  0
 18 40  1  0  0  0  0
 18 41  1  0  0  0  0
M  CHG  1  17   1
M  END
> <OMEGA_C>
eoSWQGz6cb+BoabB1km0QJYnyL/PcK3BFraWQMqS5j7aXKXBq2HSQHaDSb+wAbPBSOW0QE6GoD+R
6KrBA/7SQJI5HD/Xz7HBeKiRQKbzWUBE1pfBzq/TQOCH8UBexLjBMI/GQHfy9EBT56zBMz/oQIoX
l0AQdaTBPjSuQK4HX0CpErTBsU/oQIosKED96pjBYhzqQHdH1kB1UrDBZSviQADbTEBqMaTBt3zh
QAJUpkAQ96/BGwK2QOT0MUBKHanBq3KRQLwvUEBUTKLBC+tWQHI0cECF9JLBkBm2QLqAnEBzLLPB
xivxQAwrpj8kU7fBiIm/QKhwT0AGr4/BKs9+QPG0xb89W6LBnAi0QHnFKMBwZa7BdFV/QLm4aj+r
HaDBRzTpQK0ior8zPbjBlvu9QK1y4kBDlL7B+N3kQC8IBkGUo7zBUl/OQIb0CEG8TKjB8XynQFxL
6EBsParBesXQQB+ApkCiJp/BQ2YEQdxFn0BQzqHBKOHDQH+iQ0AYGrrBFdWMQGSwVEBHjrbB21bm
QEnpwz8fUJnB8QUEQZYPO0BZ7pXBnGsFQbgw4ECnPK7BoCL7QOy7MED5TanB92b4QEHalUBXObXB
xVdsQJpWXkDHFqbBvelUQGzJeUCfDIvBMMMhQKmwdkAUVpfBVJrVQNz9L7+k77PBYvi4QGgfx78J
za7B/mLTQJT/MD91/LHBYgOaQLVNhb97wqfBCl60QLRfnj+/5qrBtE6XQEwBrz7xw6XBEZCRQBX0
XEClwZfB9AHSQHhu8UC6X7jBMrzEQCqk80DhgKzBVLDoQBb/lUCphKTB7G6uQJULXUB3/rPBDrXn
QM4LJ0C33JjBVe/oQF7z1UBeELDBBrjhQDHISkC3MKTBBz7hQErLpUCS8a/BXiK1QLD0MEDF8KjB
UQyRQDrbUUDdMqLBbp9WQGBgckBR1pLB3Ou1QHKRm0B7IbPB4QZxQBeHQT977J7BdKK/QJcgUkDe
p4/Bg0/tQClDir+hYbnBIrW6QOeaJ8CZQbDB463pQF0PrT908bXBSAqEQE6J278B1aPB66O8QHdk
4kA8Rb7BEq3iQP5NBkGHGrzBKvHLQG4wCEFowKfBA+ilQFYp5kAd66nBfgTSQFLJpUC9EJ/B4dAE
QU99nUA8DKLB9uHEQEGJQUDD1bnBOmWNQBgQUkDfs7bBpK/kQJrewT8eHZnBheQDQQhqOEAi9pXB
a7kEQftV4ECk6a3Bjkv6QDVbLUAaTqnBX034QJAqlkDDUrXBD9VrQJnaYEDkAKbBzJxUQMlBe0Am
64rBdGghQOn1eEBqNJfB

> <OMEGA_E>
QB9FPlCJbD4=

> <OMEGA_NBR>
    117246

$$$$
417132
  -OEChem-04172616093D

 41 44  0     1  0  0  0  0  0999 V2000
    5.6773   -1.5267  -21.7249 C   0  0  0  0  0  0  0  0  0  0  0  0
    4.7306   -0.9452  -20.8608 C   0  0  0  0  0  0  0  0  0  0  0  0
    6.6008   -0.7153  -22.4068 C   0  0  0  0  0  0  0  0  0  0  0  0
    4.7053    0.4482  -20.6715 C   0  0  0  0  0  0  0  0  0  0  0  0
    6.5776    0.6762  -22.2241 C   0  0  0  0  0  0  0  0  0  0  0  0
    5.6306    1.2764  -21.3540 C   0  0  0  0  0  0  0  0  0  0  0  0
    4.5453    3.4139  -18.9711 C   0  0  0  0  0  0  0  0  0  0  0  0
    6.6449    7.5446  -23.1176 C   0  0  0  0  0  0  0  0  0  0  0  0
    6.2329    7.6488  -21.6353 C   0  0  0  0  0  0  0  0  0  0  0  0
    7.2749    4.7117  -20.5837 C   0  0  0  0  0  0  0  0  0  0  0  0
    5.4537    3.4754  -22.5149 C   0  0  0  0  0  0  0  0  0  0  0  0
    7.2541    2.6361  -19.1221 C   0  0  0  0  0  0  0  0  0  0  0  0
    7.3391    6.6856  -22.0639 C   0  0  0  0  0  0  0  0  0  0  0  0
    7.0598    3.1939  -20.5381 C   0  0  1  0  0  0  0  0  0  0  0  0
    7.0615    5.1878  -22.0212 C   0  0  2  0  0  0  0  0  0  0  0  0
    5.6676    2.7934  -21.1315 C   0  0  2  0  0  0  0  0  0  0  0  0
    4.5315    3.2724  -20.2797 N   0  3  0  0  0  0  0  0  0  0  0  0
    3.3488    3.7278  -18.3482 N   0  0  0  0  0  0  0  0  0  0  0  0
    5.7038    4.8831  -22.4195 O   0  0  0  0  0  0  0  0  0  0  0  0
    5.9956    3.2895  -17.9687 S   0  0  0  0  0  0  0  0  0  0  0  0
    5.6943   -2.5976  -21.8643 H   0  0  0  0  0  0  0  0  0  0  0  0
    4.0207   -1.5715  -20.3410 H   0  0  0  0  0  0  0  0  0  0  0  0
    7.3269   -1.1618  -23.0700 H   0  0  0  0  0  0  0  0  0  0  0  0
    3.9788    0.8880  -20.0043 H   0  0  0  0  0  0  0  0  0  0  0  0
    7.2875    1.2964  -22.7510 H   0  0  0  0  0  0  0  0  0  0  0  0
    5.9652    7.0795  -23.8468 H   0  0  0  0  0  0  0  0  0  0  0  0
    7.1873    8.3723  -23.5980 H   0  0  0  0  0  0  0  0  0  0  0  0
    6.4812    8.5506  -21.0564 H   0  0  0  0  0  0  0  0  0  0  0  0
    5.2591    7.2578  -21.3052 H   0  0  0  0  0  0  0  0  0  0  0  0
    6.5548    5.2089  -19.9171 H   0  0  0  0  0  0  0  0  0  0  0  0
    8.2989    4.9513  -20.2613 H   0  0  0  0  0  0  0  0  0  0  0  0
    6.1442    3.0331  -23.2481 H   0  0  0  0  0  0  0  0  0  0  0  0
    4.4166    3.3125  -22.8432 H   0  0  0  0  0  0  0  0  0  0  0  0
    7.1739    1.5395  -19.1553 H   0  0  0  0  0  0  0  0  0  0  0  0
    8.2531    2.9199  -18.7597 H   0  0  0  0  0  0  0  0  0  0  0  0
    8.3631    6.9891  -21.8006 H   0  0  0  0  0  0  0  0  0  0  0  0
    7.8265    2.7346  -21.1794 H   0  0  0  0  0  0  0  0  0  0  0  0
    7.7747    4.6706  -22.6799 H   0  0  0  0  0  0  0  0  0  0  0  0
    3.6811    3.5072  -20.7507 H   0  0  0  0  0  0  0  0  0  0  0  0
    3.3237    3.8765  -17.3597 H   0  0  0  0  0  0  0  0  0  0  0  0
    2.5100    3.8057  -18.8870 H   0  0  0  0  0  0  0  0  0  0  0  0
  1  2  1  0  0  0  0
  1  3  2  0  0  0  0
  2  4  2  0  0  0  0
  3  5  1  0  0  0  0
  4  6  1  0  0  0  0
  5  6  2  0  0  0  0
  6 16  1  0  0  0  0
  7 17  2  0  0  0  0
  7 18  1  0  0  0  0
  7 20  1  0  0  0  0
  8  9  1  0  0  0  0
  8 13  1  0  0  0  0
  9 13  1  0  0  0  0
 10 14  1  0  0  0  0
 10 15  1  0  0  0  0
 11 16  1  0  0  0  0
 11 19  1  0  0  0  0
 12 14  1  0  0  0  0
 12 20  1  0  0  0  0
 13 15  1  0  0  0  0
 14 16  1  0  0  0  0
 15 19  1  0  0  0  0
 16 17  1  0  0  0  0
  1 21  1  0  0  0  0
  2 22  1  0  0  0  0
  3 23  1  0  0  0  0
  4 24  1  0  0  0  0
  5 25  1  0  0  0  0
  8 26  1  0  0  0  0
  8 27  1  0  0  0  0
  9 28  1  0  0  0  0
  9 29  1  0  0  0  0
 10 30  1  0  0  0  0
 10 31  1  0  0  0  0
 11 32  1  0  0  0  0
 11 33  1  0  0  0  0
 12 34  1  0  0  0  0
 12 35  1  0  0  0  0
 13 36  1  0  0  0  0
 14 37  1  0  0  0  0
 15 38  1  0  0  0  0
 17 39  1  0  0  0  0
 18 40  1  0  0  0  0
 18 41  1  0  0  0  0
M  CHG  1  17   1
M  END
> <OMEGA_C>
rKy1QFpsw7+mzK3B9WCXQIf2cb/i4qbBwDnTQB8hN78HQbPBa5GWQMl05T5CX6XBXHvSQCIbLT/4
yrHBri20QFRgoz8T1arBOHORQFx9WkDUxJfBHqPUQCJt8UDf8LjBunPHQBbD9EARFa3B5cvoQOTF
lkBTq6TBFYWuQIRsXkBrHrTBPyHoQCe2KEAA+pjB8dnqQFTw1UDhgrDBounhQBJoTEAfTqTBv/fh
QF8CpkBoK7DBF121QMjGMkBODanBxgGRQJBvUUDPPKLBA1NWQLOTbkAryZLBjoW2QEVCnEAQW7PB
T9y/QGaGUkDqv4/BZje2QMk+JsAL6q7ByqmAQAMnyb9PuqLB6HXqQEW3lL9Cj7jBDaR+QPhUYz/c
CKDBhzPpQIPwpT8mArbB1+K+QByL4kAvxr7BCv7lQNj0BUGvyLzB7mXPQGfPCEGZc6jBvEqoQDlA
6EAZcarBFsHRQPOupkA6Vp/BX8gEQWdxnkAkF6LBep3EQLsdQkAL/LnB1VSNQDsAVEDkvrbBrJDl
QNQPxT8bPpnB2wwEQfbfOkDqE5bBRM8FQYKm30CoZ67BjHL6QGADL0Bvb6nBj8r4QOp1lUBhcLXB
0pdrQG11YEBuAabBgrdUQMUXeECW4IrB9KMgQKKQc0CqGJfB

> <OMEGA_E>
KLBaPg==

> <OMEGA_NBR>
    118245

$$$$
417133
  -OEChem-04172616093D

 44 47  0     1  0  0  0  0  0999 V2000
    4.6977    0.5126  -20.6397 C   0  0  0  0  0  0  0  0  0  0  0  0
    4.6751   -0.8789  -20.7836 C   0  0  0  0  0  0  0  0  0  0  0  0
    6.5244   -0.7547  -22.3642 C   0  0  0  0  0  0  0  0  0  0  0  0
    5.6393    1.2950  -21.3548 C   0  0  0  0  0  0  0  0  0  0  0  0
    5.5766   -1.5118  -21.6556 C   0  0  0  0  0  0  0  0  0  0  0  0
    6.5632    0.6386  -22.2251 C   0  0  0  0  0  0  0  0  0  0  0  0
    4.5562    3.4203  -18.9821 C   0  0  0  0  0  0  0  0  0  0  0  0
    6.6303    7.5224  -23.1454 C   0  0  0  0  0  0  0  0  0  0  0  0
    6.2168    7.6426  -21.6640 C   0  0  0  0  0  0  0  0  0  0  0  0
    7.2922    4.7254  -20.5835 C   0  0  0  0  0  0  0  0  0  0  0  0
    5.4487    3.4965  -22.5184 C   0  0  0  0  0  0  0  0  0  0  0  0
    7.2623    2.6507  -19.1145 C   0  0  0  0  0  0  0  0  0  0  0  0
    7.3349    6.6866  -22.0800 C   0  0  0  0  0  0  0  0  0  0  0  0
    7.0810    3.2106  -20.5321 C   0  0  1  0  0  0  0  0  0  0  0  0
    7.0701    5.1904  -22.0243 C   0  0  2  0  0  0  0  0  0  0  0  0
    5.6931    2.8116  -21.1421 C   0  0  2  0  0  0  0  0  0  0  0  0
    5.5851   -3.0137  -21.7628 C   0  0  0  0  0  0  0  0  0  0  0  0
    4.5584    3.3072  -20.2933 N   0  3  0  0  0  0  0  0  0  0  0  0
    3.3456    3.6846  -18.3640 N   0  0  0  0  0  0  0  0  0  0  0  0
    5.7096    4.8941  -22.4165 O   0  0  0  0  0  0  0  0  0  0  0  0
    7.5112    1.3073  -22.9277 F   0  0  0  0  0  0  0  0  0  0  0  0
    5.9989    3.3067  -17.9712 S   0  0  0  0  0  0  0  0  0  0  0  0
    3.9924    0.9945  -19.9788 H   0  0  0  0  0  0  0  0  0  0  0  0
    3.9635   -1.4674  -20.2235 H   0  0  0  0  0  0  0  0  0  0  0  0
    7.2264   -1.2493  -23.0191 H   0  0  0  0  0  0  0  0  0  0  0  0
    5.9562    7.0390  -23.8679 H   0  0  0  0  0  0  0  0  0  0  0  0
    7.1626    8.3498  -23.6374 H   0  0  0  0  0  0  0  0  0  0  0  0
    6.4543    8.5553  -21.0978 H   0  0  0  0  0  0  0  0  0  0  0  0
    5.2478    7.2446  -21.3282 H   0  0  0  0  0  0  0  0  0  0  0  0
    6.5741    5.2244  -19.9162 H   0  0  0  0  0  0  0  0  0  0  0  0
    8.3172    4.9694  -20.2673 H   0  0  0  0  0  0  0  0  0  0  0  0
    6.1187    3.0541  -23.2703 H   0  0  0  0  0  0  0  0  0  0  0  0
    4.4030    3.3417  -22.8226 H   0  0  0  0  0  0  0  0  0  0  0  0
    7.1784    1.5545  -19.1494 H   0  0  0  0  0  0  0  0  0  0  0  0
    8.2596    2.9305  -18.7442 H   0  0  0  0  0  0  0  0  0  0  0  0
    8.3558    7.0037  -21.8208 H   0  0  0  0  0  0  0  0  0  0  0  0
    7.8531    2.7505  -21.1662 H   0  0  0  0  0  0  0  0  0  0  0  0
    7.7798    4.6709  -22.6849 H   0  0  0  0  0  0  0  0  0  0  0  0
    4.9123   -3.3276  -22.5745 H   0  0  0  0  0  0  0  0  0  0  0  0
    6.6066   -3.3599  -21.9789 H   0  0  0  0  0  0  0  0  0  0  0  0
    5.2428   -3.4509  -20.8132 H   0  0  0  0  0  0  0  0  0  0  0  0
    3.7225    3.5778  -20.7708 H   0  0  0  0  0  0  0  0  0  0  0  0
    3.3064    3.8052  -17.3721 H   0  0  0  0  0  0  0  0  0  0  0  0
    2.5105    3.7550  -18.9096 H   0  0  0  0  0  0  0  0  0  0  0  0
  1  2  2  0  0  0  0
  1  4  1  0  0  0  0
  2  5  1  0  0  0  0
  3  5  2  0  0  0  0
  3  6  1  0  0  0  0
  4  6  2  0  0  0  0
  4 16  1  0  0  0  0
  5 17  1  0  0  0  0
  6 21  1  0  0  0  0
  7 18  2  0  0  0  0
  7 19  1  0  0  0  0
  7 22  1  0  0  0  0
  8  9  1  0  0  0  0
  8 13  1  0  0  0  0
  9 13  1  0  0  0  0
 10 14  1  0  0  0  0
 10 15  1  0  0  0  0
 11 16  1  0  0  0  0
 11 20  1  0  0  0  0
 12 14  1  0  0  0  0
 12 22  1  0  0  0  0
 13 15  1  0  0  0  0
 14 16  1  0  0  0  0
 15 20  1  0  0  0  0
 16 18  1  0  0  0  0
  1 23  1  0  0  0  0
  2 24  1  0  0  0  0
  3 25  1  0  0  0  0
  8 26  1  0  0  0  0
  8 27  1  0  0  0  0
  9 28  1  0  0  0  0
  9 29  1  0  0  0  0
 10 30  1  0  0  0  0
 10 31  1  0  0  0  0
 11 32  1  0  0  0  0
 11 33  1  0  0  0  0
 12 34  1  0  0  0  0
 12 35  1  0  0  0  0
 13 36  1  0  0  0  0
 14 37  1  0  0  0  0
 15 38  1  0  0  0  0
 17 39  1  0  0  0  0
 17 40  1  0  0  0  0
 17 41  1  0  0  0  0
 18 42  1  0  0  0  0
 19 43  1  0  0  0  0
 19 44  1  0  0  0  0
M  CHG  1  18   1
M  END
> <OMEGA_C>
P1OWQLI7Az8oHqXBA5qVQE4AYb/WRKbB5MfQQLo0Qb/O6bLBfXW0QCTDpT+71qrBfXOyQMCCwb+t
Pq3B6AXSQFx8Iz8azbHBv8yRQEHmWkBi25fBLSvUQJS38EDSKbnBuO/GQDSQ9EDNT63B2lnpQFQ2
l0AAq6TBClyuQHnHX0CyJbTBfmToQGelKUBx6pjBYbfqQFn41UDTo7DBX5fiQHh6TUC9QaTB7j3i
QAUYpkCyMbDBzi22QAHyM0DvIqnBBLmyQL/fQMBKGq7Bqt6RQEGpU0CmWKLBnB1WQETRa0CJ6ZLB
z7S2QFKcnEADVbPBbFvwQB5Upz/ta7fBD/e/QN+gU0AUxY/BOoN/QL2Yfj+r1J/Baal9QKrTu7+4
yaHByz7nQK7nn780J7jB35i+QK0/4UBf8b7BMTTlQJ+YBUF/Gb3BgYnOQI/iCEFKyKjBMO6nQI3T
50AqoKrBqV7SQPktp0BqVJ/BDhMFQRQFn0BuI6LBhczDQFl2Q0CZKbrBu+WMQOrdVUC1lLbBY7Xl
QCz5xj/6MZnBKycEQQCOO0Af9JXBQbEFQYEe4EDwkK7Bw0z7QKMHMEBcVKnBAfT4QCV4lUCaerXB
fDGdQPj3VMCJmLTB/2jTQC0JV8C01K/BVsWnQADbXMCJgabBLz5uQDv7ZECtKqbBy5tTQJ+Ic0AP
+orBbqsgQHJRcEDpRpfBB/nSQKuQOD+ffbHB+MvUQF7DJ7+rSbPBlnmXQMSTdr86iKfBYo6zQF2u
pD//oqrBcmu3QJMswL9RL67B2UaVQKR31j5+qaXBIJORQFs6XUCrrJfBownUQAAu8EC7H7nBj2bH
QIl480CWOa3B+0PpQBmIlkAuvqTB2XOuQDCGXUDvE7TBZ+PnQCghKUBH2ZjBnfzqQB0D1UAOwLDB
RNXhQKxfTEDDNKTB22ziQFEjpUDATrDBVv+0QHeiM0BR5KjBbqy4QJ/aPsAVUrDBhWmRQA6JVkDM
K6LB7qlVQLnPbEAmqZLBs/m2QBWRm0A9g7PBvIRrQB7LWj+PHp/BZdu/QLcSVEC6o4/Bq9zpQAcP
rz+1YbXBBbnsQJqFiL9ulbjBTWaAQNZhz78W06PBLyu+QE4A4UCu4b7B3OXkQBBqBUGvCL3BWz/P
QIc6CEFCoqjBrYSoQDqh5kBBe6rBNH3SQJ4Fp0AKc5/BahQFQX74nUDMOKLBlGjEQH/FP0Av3bnB
6DeNQOR8U0AvsbbBg//kQPD5xT8fEJnBfvkDQdjVOkDX95XBJOEFQeAO30Cjv67BbRD6QHDXLUCP
UqnBMk75QC9xlEBPiLXBpW7NQPQxXsAfZKrBQSGYQK9EWcCyu6/BLF7FQBZfSsC2ZrjBWVBuQDGR
akCH/6XBWzBTQHqSckAAs4rBADAgQKFNckB9AJfB

> <OMEGA_E>
MMIzPsBBWj4=

> <OMEGA_NBR>
    120072

$$$$
417134
  -OEChem-04172616093D

 44 47  0     1  0  0  0  0  0999 V2000
    6.5824    0.7125  -22.2079 C   0  0  0  0  0  0  0  0  0  0  0  0
    6.5945   -0.6707  -22.4007 C   0  0  0  0  0  0  0  0  0  0  0  0
    4.7055    0.4943  -20.6580 C   0  0  0  0  0  0  0  0  0  0  0  0
    5.6336    1.3106  -21.3422 C   0  0  0  0  0  0  0  0  0  0  0  0
    5.6560   -1.4766  -21.7331 C   0  0  0  0  0  0  0  0  0  0  0  0
    4.7198   -0.8930  -20.8517 C   0  0  0  0  0  0  0  0  0  0  0  0
    4.5478    3.4222  -18.9711 C   0  0  0  0  0  0  0  0  0  0  0  0
    6.6561    7.5256  -23.1390 C   0  0  0  0  0  0  0  0  0  0  0  0
    6.1020    7.6208  -21.7024 C   0  0  0  0  0  0  0  0  0  0  0  0
    7.2786    4.7125  -20.5741 C   0  0  0  0  0  0  0  0  0  0  0  0
    5.4745    3.4721  -22.5231 C   0  0  0  0  0  0  0  0  0  0  0  0
    7.2557    2.6314  -19.1208 C   0  0  0  0  0  0  0  0  0  0  0  0
    7.2821    6.7005  -22.0208 C   0  0  0  0  0  0  0  0  0  0  0  0
    7.0666    3.1994  -20.5343 C   0  0  1  0  0  0  0  0  0  0  0  0
    7.0595    5.1966  -22.0087 C   0  0  2  0  0  0  0  0  0  0  0  0
    5.6749    2.8145  -21.1291 C   0  0  2  0  0  0  0  0  0  0  0  0
    5.6835   -2.9713  -21.9336 C   0  0  0  0  0  0  0  0  0  0  0  0
    4.5405    3.3087  -20.2824 N   0  3  0  0  0  0  0  0  0  0  0  0
    3.3448    3.7037  -18.3454 N   0  0  0  0  0  0  0  0  0  0  0  0
    5.7138    4.8739  -22.4347 O   0  0  0  0  0  0  0  0  0  0  0  0
    3.8278   -1.6603  -20.1859 F   0  0  0  0  0  0  0  0  0  0  0  0
    5.9961    3.2824  -17.9659 S   0  0  0  0  0  0  0  0  0  0  0  0
    7.3023    1.3313  -22.7230 H   0  0  0  0  0  0  0  0  0  0  0  0
    7.3224   -1.1195  -23.0604 H   0  0  0  0  0  0  0  0  0  0  0  0
    3.9861    0.9392  -19.9865 H   0  0  0  0  0  0  0  0  0  0  0  0
    6.0666    7.0303  -23.9247 H   0  0  0  0  0  0  0  0  0  0  0  0
    7.2079    8.3722  -23.5734 H   0  0  0  0  0  0  0  0  0  0  0  0
    6.2592    8.5343  -21.1101 H   0  0  0  0  0  0  0  0  0  0  0  0
    5.1179    7.1924  -21.4614 H   0  0  0  0  0  0  0  0  0  0  0  0
    6.5603    5.2055  -19.9025 H   0  0  0  0  0  0  0  0  0  0  0  0
    8.3035    4.9520  -20.2543 H   0  0  0  0  0  0  0  0  0  0  0  0
    6.1780    3.0261  -23.2416 H   0  0  0  0  0  0  0  0  0  0  0  0
    4.4431    3.2985  -22.8638 H   0  0  0  0  0  0  0  0  0  0  0  0
    7.1716    1.5353  -19.1614 H   0  0  0  0  0  0  0  0  0  0  0  0
    8.2549    2.9091  -18.7542 H   0  0  0  0  0  0  0  0  0  0  0  0
    8.2647    7.0435  -21.6645 H   0  0  0  0  0  0  0  0  0  0  0  0
    7.8317    2.7412  -21.1783 H   0  0  0  0  0  0  0  0  0  0  0  0
    7.7952    4.7146  -22.6692 H   0  0  0  0  0  0  0  0  0  0  0  0
    6.3543   -3.4290  -21.1917 H   0  0  0  0  0  0  0  0  0  0  0  0
    4.6684   -3.3765  -21.8092 H   0  0  0  0  0  0  0  0  0  0  0  0
    6.0475   -3.1986  -22.9464 H   0  0  0  0  0  0  0  0  0  0  0  0
    3.7020    3.5765  -20.7572 H   0  0  0  0  0  0  0  0  0  0  0  0
    3.3131    3.8216  -17.3529 H   0  0  0  0  0  0  0  0  0  0  0  0
    2.5080    3.7890  -18.8862 H   0  0  0  0  0  0  0  0  0  0  0  0
  1  2  2  0  0  0  0
  1  4  1  0  0  0  0
  2  5  1  0  0  0  0
  3  4  2  0  0  0  0
  3  6  1  0  0  0  0
  4 16  1  0  0  0  0
  5  6  2  0  0  0  0
  5 17  1  0  0  0  0
  6 21  1  0  0  0  0
  7 18  2  0  0  0  0
  7 19  1  0  0  0  0
  7 22  1  0  0  0  0
  8  9  1  0  0  0  0
  8 13  1  0  0  0  0
  9 13  1  0  0  0  0
 10 14  1  0  0  0  0
 10 15  1  0  0  0  0
 11 16  1  0  0  0  0
 11 20  1  0  0  0  0
 12 14  1  0  0  0  0
 12 22  1  0  0  0  0
 13 15  1  0  0  0  0
 14 16  1  0  0  0  0
 15 20  1  0  0  0  0
 16 18  1  0  0  0  0
  1 23  1  0  0  0  0
  2 24  1  0  0  0  0
  3 25  1  0  0  0  0
  8 26  1  0  0  0  0
  8 27  1  0  0  0  0
  9 28  1  0  0  0  0
  9 29  1  0  0  0  0
 10 30  1  0  0  0  0
 10 31  1  0  0  0  0
 11 32  1  0  0  0  0
 11 33  1  0  0  0  0
 12 34  1  0  0  0  0
 12 35  1  0  0  0  0
 13 36  1  0  0  0  0
 14 37  1  0  0  0  0
 15 38  1  0  0  0  0
 17 39  1  0  0  0  0
 17 40  1  0  0  0  0
 17 41  1  0  0  0  0
 18 42  1  0  0  0  0
 19 43  1  0  0  0  0
 19 44  1  0  0  0  0
M  CHG  1  18   1
M  END
> <OMEGA_C>
KqPSQD5kNj/PqbHBYgbTQGKxK7+pNLPBt5OWQKAU/T6EQ6XBXUa0QETApz/nvKrBDf60QKr/vL9m
3a3BhAiXQFacZL9S0KbBOoeRQBQFW0DKxJfBHv/UQF/R8EDFHLnBiUPDQJLd80CAnq3BPuroQATN
lkDMl6TBAS+vQF82XkBFL7TBoi7oQINoKEBy95jBDAfpQB5q1kCHKrDB0yHiQGTCTEAmRqTBXufh
QH9KpkC7EbDBb5i1QEshNEBMCKnBE9+1QAcpPsD5d6/BYUuRQCLCU0BoQqLB7BFWQLEIbUB7w5LB
V9e2QNX2m0BderPBMfp0QMqF1L/RfKHBzt+/QCoTUkA1uo/BKqzpQO5nqj+dyLXB4VDqQNhMj7+t
e7jBixx/QAxvcD9J5J/B1SHCQGP44EC+Zb/BSafmQK70BUFclrzBjUvIQIGMCEGH4ajBGcajQAko
5kDpsKvB0u3RQFyTpkBpOJ/B/doEQQ93nkDUCKLBx7HFQGesQUDV7rnByS2OQIEaU0AP6bbBnn3l
QFGGxD99SpnBKxQEQTMvOkCpCJbBBTwEQZJk4UDwUK3BPZ36QANwL0AebanBlXL5QOXdlkCTWrXB
sVbLQEp0W8CDiKnBx2OVQBkYWMA8ea7B94TBQN21TMA+krfBU+5sQCTlZECuDqbBDwlUQFOVdEDS
0orBqoIgQD5+ckDeFpfBl2uWQFK1/j489aTBZ8WWQHo5ZL9UdqbBA4fRQNSDNT8mpbHBUsqzQOC6
pz8KmarB2SS0QLM9vb9pn63BWZfRQIARLL9NN7PB1ICRQAJwW0A0xJfBt1bTQI918EBQGbnBnkbE
QN2580ChX63BmE7pQPe3lkDfp6TBaf+uQJEIXkCJIrTBijnoQHySKEAG8JjBxkjpQM0W1kCbabDB
ajDiQDWUTECdQ6TBnfbhQKUBpkAvJbDB8oG1QHgoNEBy+qjB0km0QHxKPsBiOq/Bh1yRQLd3VEAs
QKLB+sdVQGDlbEC6ypLB+re2QKrTm0BCarPB0xDuQCtQm7/6H7rB2MW/QA0IUkBBtI/BHY1/QEYj
cj9KgZ/Bg3uAQLfFwb/3H6LB1GXoQOKaqT9h2bXBqwS/QOeX4EArF7/BmkbkQIm3BUFW2LzBFXvK
QD6BCEFTvqjBJjmlQE8r5kAn/arBrKHSQCHDpkAhQJ/B2h8FQVY1nkAEL6LBeHHFQOluQUD25LnB
m/aNQKH7UkCD17bBZbHlQNvKxD9qPZnBqxIEQZmyOkBUAJbB664EQXr74EC8Bq7BzIf6QNe7LkA7
aanB3yz5QP89lkBxdbXBlneeQIMRT8CSzrXBReHUQPehU8A1NrHBkaGpQOX2XcCb1afBlmdtQJFe
ZkB0EabB9WRTQLTVc0A72IrBhmQgQAKRckB3JZfB

> <OMEGA_E>
sOtXPlD4Vz4=

> <OMEGA_NBR>
    121899

$$$$
417136
  -OEChem-04172616093D

 41 44  0     1  0  0  0  0  0999 V2000
    6.6148    0.6505  -22.1224 C   0  0  0  0  0  0  0  0  0  0  0  0
    4.6567    0.5157  -20.6747 C   0  0  0  0  0  0  0  0  0  0  0  0
    6.5598   -0.7307  -22.3432 C   0  0  0  0  0  0  0  0  0  0  0  0
    4.6363   -0.8796  -20.8559 C   0  0  0  0  0  0  0  0  0  0  0  0
    5.6570    1.2969  -21.2979 C   0  0  0  0  0  0  0  0  0  0  0  0
    5.5774   -1.4987  -21.7008 C   0  0  0  0  0  0  0  0  0  0  0  0
    7.3962    3.1552  -19.2955 C   0  0  0  0  0  0  0  0  0  0  0  0
    6.8456    7.4494  -21.4373 C   0  0  0  0  0  0  0  0  0  0  0  0
    6.2336    7.6654  -22.8347 C   0  0  0  0  0  0  0  0  0  0  0  0
    4.9361    5.0858  -20.2800 C   0  0  0  0  0  0  0  0  0  0  0  0
    5.6988    3.4426  -22.5335 C   0  0  0  0  0  0  0  0  0  0  0  0
    4.6408    3.1390  -18.7255 C   0  0  0  0  0  0  0  0  0  0  0  0
    5.3856    7.0717  -21.7053 C   0  0  0  0  0  0  0  0  0  0  0  0
    4.6905    3.5525  -20.2246 C   0  0  2  0  0  0  0  0  0  0  0  0
    5.0095    5.5873  -21.7307 C   0  0  1  0  0  0  0  0  0  0  0  0
    5.7739    2.8130  -21.1118 C   0  0  1  0  0  0  0  0  0  0  0  0
    7.1308    3.0730  -20.5749 N   0  3  0  0  0  0  0  0  0  0  0  0
    8.5643    3.7816  -18.9166 N   0  0  0  0  0  0  0  0  0  0  0  0
    5.9917    4.8364  -22.4626 O   0  0  0  0  0  0  0  0  0  0  0  0
    5.5349   -2.8326  -21.9030 F   0  0  0  0  0  0  0  0  0  0  0  0
    6.2680    2.6161  -18.0567 S   0  0  0  0  0  0  0  0  0  0  0  0
    7.3974    1.2328  -22.5860 H   0  0  0  0  0  0  0  0  0  0  0  0
    3.9073    0.9905  -20.0588 H   0  0  0  0  0  0  0  0  0  0  0  0
    7.2706   -1.2030  -23.0052 H   0  0  0  0  0  0  0  0  0  0  0  0
    3.8963   -1.4777  -20.3450 H   0  0  0  0  0  0  0  0  0  0  0  0
    7.5982    6.6623  -21.2816 H   0  0  0  0  0  0  0  0  0  0  0  0
    7.0825    8.3143  -20.8004 H   0  0  0  0  0  0  0  0  0  0  0  0
    6.0330    8.6847  -23.1964 H   0  0  0  0  0  0  0  0  0  0  0  0
    6.5486    7.0326  -23.6776 H   0  0  0  0  0  0  0  0  0  0  0  0
    4.1113    5.5997  -19.7645 H   0  0  0  0  0  0  0  0  0  0  0  0
    5.8849    5.3153  -19.7731 H   0  0  0  0  0  0  0  0  0  0  0  0
    6.4302    2.9489  -23.1902 H   0  0  0  0  0  0  0  0  0  0  0  0
    4.6868    3.3027  -22.9414 H   0  0  0  0  0  0  0  0  0  0  0  0
    4.2829    3.9980  -18.1390 H   0  0  0  0  0  0  0  0  0  0  0  0
    3.9350    2.3021  -18.6183 H   0  0  0  0  0  0  0  0  0  0  0  0
    4.6325    7.7459  -21.2712 H   0  0  0  0  0  0  0  0  0  0  0  0
    3.7033    3.3500  -20.6657 H   0  0  0  0  0  0  0  0  0  0  0  0
    4.0194    5.4767  -22.1970 H   0  0  0  0  0  0  0  0  0  0  0  0
    7.8826    3.1918  -21.2235 H   0  0  0  0  0  0  0  0  0  0  0  0
    8.7629    3.9253  -17.9471 H   0  0  0  0  0  0  0  0  0  0  0  0
    9.2130    4.0924  -19.6113 H   0  0  0  0  0  0  0  0  0  0  0  0
  1  3  1  0  0  0  0
  1  5  2  0  0  0  0
  2  4  2  0  0  0  0
  2  5  1  0  0  0  0
  3  6  2  0  0  0  0
  4  6  1  0  0  0  0
  5 16  1  0  0  0  0
  6 20  1  0  0  0  0
  7 17  2  0  0  0  0
  7 18  1  0  0  0  0
  7 21  1  0  0  0  0
  8  9  1  0  0  0  0
  8 13  1  0  0  0  0
  9 13  1  0  0  0  0
 10 14  1  0  0  0  0
 10 15  1  0  0  0  0
 11 16  1  0  0  0  0
 11 19  1  0  0  0  0
 12 14  1  0  0  0  0
 12 21  1  0  0  0  0
 13 15  1  0  0  0  0
 14 16  1  0  0  0  0
 15 19  1  0  0  0  0
 16 17  1  0  0  0  0
  1 22  1  0  0  0  0
  2 23  1  0  0  0  0
  3 24  1  0  0  0  0
  4 25  1  0  0  0  0
  8 26  1  0  0  0  0
  8 27  1  0  0  0  0
  9 28  1  0  0  0  0
  9 29  1  0  0  0  0
 10 30  1  0  0  0  0
 10 31  1  0  0  0  0
 11 32  1  0  0  0  0
 11 33  1  0  0  0  0
 12 34  1  0  0  0  0
 12 35  1  0  0  0  0
 13 36  1  0  0  0  0
 14 37  1  0  0  0  0
 15 38  1  0  0  0  0
 17 39  1  0  0  0  0
 18 40  1  0  0  0  0
 18 41  1  0  0  0  0
M  CHG  1  17   1
M  END
> <OMEGA_C>
pqzTQJGJJj+t+rDB6AOVQKUBBD/cZaXBBOrRQNQRO7/vvrLBmlyUQKYsYb/I2KbB8AW1QPgBpj8t
YqrB2HmyQGLWv780m63Bcq3sQLDuSUAeXZrBjg/bQC5h7kCof6vBUXnHQL5K9UCOrbbBOvSdQBK/
okB7PaLBXFy2QORSXECiRLTBsoGUQLTkSEDjzZXBqFasQGBL4kBypK3BOhiWQMpbY0AJzKHBvE2g
QPHKskCR2K3BMcS4QMEHNEDg5KjBwi/kQEOsREBUmaTBRgcJQRIGckBEVZfBYLy/QLLDmkB8s7PB
Tx6xQHBJNcA+Oa/BXpPIQOFtJ0AbdJDBSLfsQGHNnT8xsLTBohF6QOaPfT99eKDBcqjoQJf6mb+4
CrjBKVx5QGAmvb+dwqLBSiTzQKYx1UDDQKrBOaTiQIwHBUE2Z6bBHQ7BQHX0CkEskrnBLo7RQHcL
4UC5a73B44+DQMsws0DJHZ7BWFG8QP8WqkBEL57BgsTNQGW7PECfhbnBTPqVQBFgU0D4h7fB3w2J
QGvef0CeHJHBP9d7QMRVE0A98pTBqT2UQCve90B9K6rBNQNtQBxmVkBhU6XBiJ6AQIVBr0CAk7HB
Ez78QDRHTEDHyanBwzQMQSU4e0DAk4/BgWgTQYn0gkD645zBolTbQG/AIT+6h7DB6FaXQNX9Mz8A
EafBb+DRQL/lK79aDrTBl82OQLS/Hb9cPqrBhqa9QDjNrj9eMarBlr6rQNBDpr+P2bDB9ZnnQJ2E
Q0DGTJPBr0fuQGS340C93a3BKWHoQMzn3EDF77nBpdKkQFbjo0DYfqTBG+HgQGq7Z0Be3K7BobGQ
QB1TVUAr2pbByJvBQIf02EDpXbLBPBufQI5HZkBKiaLBqfirQGenrECQmrDByt7IQPSbMkDb/aXB
/17pQIayJkAbNp3BPcwFQUepOkBE64zB7y/DQDH0iUBmuLXBXQCjQBLjI8AUCrTBBTm6QF/tckCp
i43BfY/5QJSEij8bqrLBE1+AQAXwnD9SJqLBR/vnQARomL8RPbnBSMdjQICijb9vmKfBHL//QMbf
y0ArFqnB2eT0QOP3AUFuu6rBfcTqQI0/+EBBcr/BwJ71QI4vwED+zL3BT/GHQEnitEA1zaHBUK/A
QNlqr0CJ9J/BjtH1QNB7i0Af96rBfFz0QKDsO0B9u7PB8KBnQLA2e0CJJ5XBrm+JQFzcEEAe5pXB
Rj2rQIAc9EAgpLLBchGFQC98UEBFy6fBMxKMQOCFrkBYS7TBz7YBQWXcBEDeIJ/BoYUFQej5TkCA
VYXBXw8TQZP0H0BS5o/Bap7eQPyDez5oJKvBimWSQHweQz+fj6vBajTVQDVtjr+vAa3B3wqJQNRL
Gb/IFq3BRUq9QCLimT/xLqrBTl2qQNfNxL900a3Bo8jfQC+qP0DVEJXBUUrhQDbd8UBCbLvB6v23
QJ4J/0AEk7XBChKuQL0PpEDuXKbBGVngQJwXTEB5e7LBBWyJQD0HUkAHopvBMJnVQKEi3UCYtbDB
5SihQPcfaEBEKqbBMq/GQKxMrkB4vLDBOM/IQHMaLEA+OajBpn3oQPV5MUBHO5/BVdEAQWSBQECk
5o3B5GnrQG26kkC9nbHBFSehQKj5NcAAba/BXESsQDc+VUDV5Y/Bqor/QJ/eDz+Gb6rBklVxQJDU
vT+JbqvBHuDuQI0T6r9a0K3BzFpQQGmFbL87tK3BF3nfQLkX30Bw2sLBnVz8QOwjBEHx5rvBk4e1
QJNvD0Gt3rHBDaSYQAiv9UAt0rjBIBGRQJPyt0BF+qXBaZXCQIUPq0DabZ/BSsX9QAh6JkDvlrPB
oEHLQNUfQ0AYcLnBV6xeQMoygEAnfJrB0el3QLg8EUDpWZzBP5roQG9E50Cnv6nBlY+KQFKvXUDb
yKzBnSqxQLBTqUCxlrfBiKcDQVt+KUAFJKHBCFX8QDv4TEC9KobBIq4PQc+lNEBMd5DBTq3JQNDB
Bz+OBLTB+maqQCkN2T4zMqLBlOq+QLKrUb87rrXB2pyeQLD+ab+GAKTBJxS/QMsXmD+tQKrBa/Go
QNDCxL/mvK3BymbbQDGAQUC8s5TBjv25QPMGAEFyh7TBOaLIQLpO/0DR2ajBUiquQOi1o0B1LafB
OSbmQJWMTkDLvrHBScOGQPZfVEC3HZ3BJkHaQDUC3kBj27DBWTGiQOrVZkCnH6fBYB3LQAjSrkBP
ybDBbNDKQLmXK0DWMajB0UDnQJ9WMECRlp7Bif/6QFuiQ0Bp6ozBTj/wQMa3k0DVaLDBnleeQPIu
NcAzZ6/BpwymQEEeVkDTmJDBsDPaQPO4iT+OObrBAJyjQPXcYD9di5rBlJLHQN4Cp790Fr3BL5mN
QA5Mu78M5p3B8xSZQE6o9kBHlrbBoGrEQNoNDUFm17nBEaHdQF5gDEH9x6XBZEuyQFdN9UDehqLB
8KyQQNjUtkD/qafBaDa/QJ5vq0B/uZ/BEg8CQdTSKUCXOrLBnPPTQMhsRkCUNbnBpvJaQBOUgkCZ
lJzBFjpwQEHAFEBq/53B1IL7QOsc40BecbPBDQeOQGf0WkCULq7BUxi5QKrFqEBsMbjBtDQDQbJg
JUA9yp/BAUzzQNNxUEBVUYXBvr0MQbNcOEAy5o7BJqTBQCBFcz/d6bTBtvOtQIBe1D6kgaLBeTi7
QMDjyL4txLfBQnimQMBHar+LcqXBsiW9QID3rD/0GarBwIauQLDzqb+d/K/BB0LjQNCzRECmfpPB
cybKQG+Z+UDdMKzBag70QMK330DppqvBev6mQHP8oUA6J6bBHMvmQDReX0CQh67B1D6MQP4sVkAa
7JjBRmnQQBq00kCohLPBaH2fQAQ9ZEBbIKTBLkm1QKWbqUAN+bHBNrLJQMjeL0ArS6bBvuLmQHy5
IkCABJ3BFrkDQV6xRUBzGI3BOL7MQBRuhUBCRrbB9YaqQKBQKMDlmrLBFOyyQDS7bECPSo7Bq//J
QL6k1j9X9LrBIBWoQF20Oj9KX5rBVAjAQMYZNb9G8b/ByoqaQDWCz7/zoJ/BvCOzQL4P+EDpiqXB
JTXKQDsIDUGCl6/BCwMJQU6p7UC6ra7BrvT6QJWoy0AioaTBWCGJQPqZs0B+oqTBWh3AQDuirUBO
uKDBZdv6QD4kh0DJTKrBLl/7QMyZMEDOoLLBpANhQHZmgEDf8JfBPMmBQCAuE0BdPJjBqRLXQGWw
2kDm7LvB9aaHQJFATkA7/anBGvCXQCq2rUDhuLbBHd//QHG39z8cMZ7BZukCQRLmXECmpoXBlZgR
QbMzL0Cq64/B0q+1QJpBr0AiqKvB1/PrQGDfhUCfMrXBNjzCQDHn00C1WrHBrzT4QOphqkDa37rB
1mnJQOB7h0CU3K3B8X/iQLIT0UA2LrnByPSRQH81V0DG/5fBN2qJQChDzr8fNqPBEPSRQD6aBsCW
s67B0bbPQP6MOz9C2aDBL3uoQF0cBkAEC7PBIjjrQJp3PECkU5nBKjS1QHb3sb9+bKjBU9TcQCoz
C0B/VKPBf+vBQAAaKj2vSKvBFkG4QG1eO0CqRanB5pORQNC3R0CuV6LBxJRXQNo+b0AjOJPB5ySe
QIKEQj/Z4q/BlgbsQJtY80B4SL/BCmm/QPpASkC/wo/B1xKdQDdvsUC3naXBvfH8QNlXUEAJabbB
XRyzQExK8kCeuq/BFCEJQWPRqEC2icDBVtlnQMUAQr9R0aHBPeuFQH2TFcD8p5zBSIiUQMCNS8BB
W7DBtYmCQOj0zL+WhLXBy//qQB4FRj5rV53BPN+0QHCWOz/iJ5vBUNOLQESsJEALcLbBFufBQOIp
BED+H7nBkKECQXvSGEClbZXBI+v2QOzue0AIxJvBEjbPQEcQAsAxdaXBaFD4QCmACEBP0ajBYBPd
QJuutzyH4bDB3fNpQOHVQ0C45aXBrBJVQFzAeEByUIvBYAIjQI4Vd0DdrJfB

> <OMEGA_E>
4JNhP+42aD9q1Gw/5OhsP5B2bj/sUXE/

> <OMEGA_NBR>
    126614

$$$$
417124
  -OEChem-04172616093D

 44 47  0     1  0  0  0  0  0999 V2000
    6.8199    0.6073  -21.9803 C   0  0  0  0  0  0  0  0  0  0  0  0
    6.6634   -0.7421  -22.3102 C   0  0  0  0  0  0  0  0  0  0  0  0
    4.4539   -0.7110  -21.3054 C   0  0  0  0  0  0  0  0  0  0  0  0
    5.7809    1.3515  -21.3478 C   0  0  0  0  0  0  0  0  0  0  0  0
    5.4899   -1.4096  -21.9461 C   0  0  0  0  0  0  0  0  0  0  0  0
    4.5734    0.6647  -21.0338 C   0  0  0  0  0  0  0  0  0  0  0  0
    7.3180    2.9719  -18.6744 C   0  0  0  0  0  0  0  0  0  0  0  0
    8.0916    6.5295  -22.6662 C   0  0  0  0  0  0  0  0  0  0  0  0
    6.9742    7.3536  -23.3224 C   0  0  0  0  0  0  0  0  0  0  0  0
    5.5169    5.1893  -20.3227 C   0  0  0  0  0  0  0  0  0  0  0  0
    6.8037    3.5443  -22.0964 C   0  0  0  0  0  0  0  0  0  0  0  0
    4.5625    3.4215  -18.8144 C   0  0  0  0  0  0  0  0  0  0  0  0
    5.0051    3.7260  -20.2742 C   0  0  2  0  0  0  0  0  0  0  0  0
    5.6804    5.6641  -21.7862 C   0  0  1  0  0  0  0  0  0  0  0  0
    6.1363    2.7859  -20.8810 C   0  0  1  0  0  0  0  0  0  0  0  0
    6.7662    6.7776  -21.9169 C   0  0  0  0  0  0  0  0  0  0  0  0
    6.8217    7.7866  -20.7510 C   0  0  0  0  0  0  0  0  0  0  0  0
    7.2410    2.5471  -19.9116 N   0  3  0  0  0  0  0  0  0  0  0  0
    8.5807    3.1755  -18.1629 N   0  0  0  0  0  0  0  0  0  0  0  0
    5.9352    4.5413  -22.6600 O   0  0  0  0  0  0  0  0  0  0  0  0
    5.3580   -2.7257  -22.2125 F   0  0  0  0  0  0  0  0  0  0  0  0
    3.4940    1.2743  -20.5130 F   0  0  0  0  0  0  0  0  0  0  0  0
    5.9452    3.3694  -17.6516 S   0  0  0  0  0  0  0  0  0  0  0  0
    7.7532    1.0995  -22.2108 H   0  0  0  0  0  0  0  0  0  0  0  0
    7.4437   -1.2656  -22.8427 H   0  0  0  0  0  0  0  0  0  0  0  0
    3.5548   -1.2356  -21.0176 H   0  0  0  0  0  0  0  0  0  0  0  0
    8.3301    5.5248  -23.0454 H   0  0  0  0  0  0  0  0  0  0  0  0
    9.0152    7.0233  -22.3299 H   0  0  0  0  0  0  0  0  0  0  0  0
    7.0993    8.4380  -23.4583 H   0  0  0  0  0  0  0  0  0  0  0  0
    6.4142    6.9395  -24.1738 H   0  0  0  0  0  0  0  0  0  0  0  0
    4.7944    5.8416  -19.8102 H   0  0  0  0  0  0  0  0  0  0  0  0
    6.4900    5.2485  -19.8132 H   0  0  0  0  0  0  0  0  0  0  0  0
    7.7240    4.0342  -21.7455 H   0  0  0  0  0  0  0  0  0  0  0  0
    7.0536    2.8107  -22.8770 H   0  0  0  0  0  0  0  0  0  0  0  0
    3.8617    4.2049  -18.4902 H   0  0  0  0  0  0  0  0  0  0  0  0
    4.0547    2.4459  -18.7986 H   0  0  0  0  0  0  0  0  0  0  0  0
    4.1209    3.6490  -20.9240 H   0  0  0  0  0  0  0  0  0  0  0  0
    4.7236    6.1184  -22.0834 H   0  0  0  0  0  0  0  0  0  0  0  0
    5.8237    7.8790  -20.2977 H   0  0  0  0  0  0  0  0  0  0  0  0
    7.5368    7.4328  -19.9938 H   0  0  0  0  0  0  0  0  0  0  0  0
    7.1443    8.7675  -21.1302 H   0  0  0  0  0  0  0  0  0  0  0  0
    8.0109    2.0011  -20.2420 H   0  0  0  0  0  0  0  0  0  0  0  0
    8.6929    3.5384  -17.2378 H   0  0  0  0  0  0  0  0  0  0  0  0
    9.3852    2.9604  -18.7166 H   0  0  0  0  0  0  0  0  0  0  0  0
  1  2  2  0  0  0  0
  1  4  1  0  0  0  0
  2  5  1  0  0  0  0
  3  5  2  0  0  0  0
  3  6  1  0  0  0  0
  4  6  2  0  0  0  0
  4 15  1  0  0  0  0
  5 21  1  0  0  0  0
  6 22  1  0  0  0  0
  7 18  2  0  0  0  0
  7 19  1  0  0  0  0
  7 23  1  0  0  0  0
  8  9  1  0  0  0  0
  8 16  1  0  0  0  0
  9 16  1  0  0  0  0
 10 13  1  0  0  0  0
 10 14  1  0  0  0  0
 11 15  1  0  0  0  0
 11 20  1  0  0  0  0
 12 13  1  0  0  0  0
 12 23  1  0  0  0  0
 13 15  1  0  0  0  0
 14 16  1  0  0  0  0
 14 20  1  0  0  0  0
 15 18  1  0  0  0  0
 16 17  1  0  0  0  0
  1 24  1  0  0  0  0
  2 25  1  0  0  0  0
  3 26  1  0  0  0  0
  8 27  1  0  0  0  0
  8 28  1  0  0  0  0
  9 29  1  0  0  0  0
  9 30  1  0  0  0  0
 10 31  1  0  0  0  0
 10 32  1  0  0  0  0
 11 33  1  0  0  0  0
 11 34  1  0  0  0  0
 12 35  1  0  0  0  0
 12 36  1  0  0  0  0
 13 37  1  0  0  0  0
 14 38  1  0  0  0  0
 17 39  1  0  0  0  0
 17 40  1  0  0  0  0
 17 41  1  0  0  0  0
 18 42  1  0  0  0  0
 19 43  1  0  0  0  0
 19 44  1  0  0  0  0
M  CHG  1  18   1
M  END
> <OMEGA_C>
9jzaQMB0Gz+816/BfzrVQGT6Pb80e7LBnIaOQKABNr9dcarBK/24QM/8rD9jyKrBca2vQFJvtL+Z
ka/BFVmSQA4nKj8nRajBbC3qQEozPkAWZZXBOHcBQU7x0EB3VLXBsizfQKtQ60AzlLrBgoqwQCEP
pkDtlKLBC7jZQLTVYkB6xbDB9/+RQKr5WkDMg5bBJyqgQEp2bkCkMaLBm8W1QHdAtUAZSq7Ba1zE
QHxMMkBZDKfB9oTYQFDi2EDdVa/B+UraQLkr+UAXAqbBcbbnQCYEI0AJS5/BmkoJQTY7S0CQTZHB
j+29QC1SkUCWR7XBi3SrQExxLsA7s7HB151fQKUboz+nGqTBUj++QOijV0B3No3BKRr4QNy8jD++
r7HBcjLuQDz+ob/HvbbBYYJjQBonnr8FJKjBMEgFQRnLsED6XLjBTD4QQZW+4ECuo7LBei3jQO4B
B0GiqrvBREHNQGEQ3kDuY8HBD2yZQA/uukBSe57BHq7PQLXzp0B8gZ7Buir3QAIYgUDG9q3BbLfh
QDriM0ArBLfBWCV3QL+OhkAF7JPB0r+BQOOIHECJY5bBJ96DQHmJaUBDZKfBESiXQKfJw0DCqrDB
nFu6QCMh/ECrYaLB1i3xQKHZ7UBb85/BMJ7kQJRHDEGUCqnBpywAQToSAECn76HBPxYLQYF0YkAM
54nBmykWQbV3PUCcu5XBDf+pQLLp3T7EUqLBAaadQH6GZ7/a26PBpjS/QMOjY7/GVbXBbY2/QJgE
lj+hbKrBfi2oQIRNyL+1ZK3BjhLLQPue6T6LALTBkqPaQMJ4QUAtrpTBXt7gQOd28kAOnrvB7sO4
QEf3/kACHLXBv3ytQMLoo0DAIafBzs7mQGE0UUD+g7HB7C2GQB8XVECpOJ3B5+ahQB64ZkCFLKfB
K9LKQEzjrkCgnrDBgujKQJaUK0BOP6jBCX3YQHkq3kDspbDBJu/1QBTu60DsT6fBcMvmQIW9L0Bo
h57BGgv6QD0/REBC2YzBFz/wQBCylEBYEbDBTiadQFb1NsDr2a7BO0fiQNHCej/9G7zBWiKlQBqH
VUB2ppDBTu6iQID0aT8oyprBrAuMQNg3tr8ZsZ3B+fjHQE9XtL+9lbzB9JXdQMkt30Dk7sLBDir7
QADCBEHWn7zB53O2QC95D0GJerHBzt+YQCmc9ECXybfBTeuPQNvbtkBAuqfB+Ay+QPO8q0Afnp/B
jIoCQUhqLUBs5LHB5FrVQMFqSUByGLnBgMpZQGZzgkCTtpzBKA9vQDmCFEAiJp7BMfKNQE/uWkCP
Ra7BIli5QDJLqEAPFLjB1WHsQPUA20Co+Z/Bo6cLQUvu40BQRKnBqg7zQFdTB0GWDqbBvPYCQXXP
I0CNn5/B/x7yQPotUUCmRIXBE04MQcxQOUA2yI7BQ7HqQBL7gED4MbbBiK77QBN6pUAMQLvBIz/J
QJpS0kBFlLHBCHjIQBxkhEDXva7BuPLqQBEtzkDu7LjBAdm3QAsbrkBZgqzB3yiSQAneV0BlGJjB
XfKAQI3WBcCLpKzBXR+uQLplK8AKTq3BpILLQMsxLT/afZ/Bd02mQNxr9D9jhrLBrrDrQKI3O0AI
y5nBRu/aQGfnBEB+NqPBmTm4QGTC9L16BanB7vS2QLKVNUDUcanB9CmlQAZEwL/Aq6XBWJajQCao
6b9oj5nB6emQQJpIREA2WqLBsjRYQFDBbkDsKZPBDBmXQAExKz9ZE67B6h37QJ1j8UCRvb3BfDSX
QLUotUCVpKXBckDBQPKYV0CQPZDBQN73QGe6Q0DlAbjBU8kKQbczokAR6sDBa4i8QB2p8UCezK/B
aAVoQKpawb+IYbPByxROQJvnKsDD5ajBsZ20QAx7a8ASC6rB/5XBQMVAIcDXhrTBeNbmQEaG8z0K
MpzBnPCyQNGDTD9CRJnBu/KLQM47GkC5xLbBpH3AQNnz2T/nKrjBYT4CQXKNFkDMjJXBT7b5QL19
dkDS/pzBBrT1QNI29j9qy6jBWwrSQIL0nL5C0K7B/+6+QBz0rL+ghZXBWpSFQDpVuL9YJZbBbx6l
QIqOOsDaaJjBeP9nQGe5PkBdtaXBJcZXQBJrfkBAaIvBaL0hQKKZb0AFXZfB8JO7QGMwmz6ViaHB
2sCwQBZVhr/m/aLBsPOsQOrBMr+6L7bBMd2/QDH+lz8TZ6rBU/OpQDTgxr81Va3BbvO2QH5/KT8D
1bTBkNnaQE+tREA/u5TBvWW5QAFv/UAKkrbB4T29QCg+AEGSX6rBkAisQEHNokDBTafBNGXoQADC
UEBwdLHBnf6GQKA1S0B4dZ3BpfKhQPwJZECqWqfB15/KQGDRrkBGk7DBlVTLQH7sK0CGVqjByMPX
QKbv3kBelrDBqSsEQceg50DxqbHBskDnQCzsMkBMkJ7B1Pn5QG0bSEDr1YzBg47wQI+ilECqsK/B
qfmfQJTONsDXx67BxrK2QH5qtT8Nx73BIhSlQN5GVkAn4pDBOL7AQAfBLT9ZipnBaqutQP6+2b8q
JZzBL4enQMNJi7/3IL7BQt2bQFb48EDINLrBXZXGQNV/C0F2pLvB6zrNQAgYDkH3sqbB0YKiQLwo
9kBJQ6XBa/uNQEfGtEDzM6jB7y+7QHhJq0BDpp/BVXcDQdjALUB+kbHBdx3YQNG/SEBMMbnBXGNV
QGL6dEC2G53BK2l5QNs5CEBITp7BWFKOQL8eV0CHeq7BZ066QGjnp0C2LbjBmyANQQeqz0AjB63B
j9QIQX6a5UB7IrrB8dAHQd/mA0GGmK7BKkkDQfcKKUBApZ/BTrLxQMk2VED2QYXBpVkMQUd5PkBL
uI7B8GW2QDxNNT9Xn7TBCSutQEcfJb9km7bBe2ixQH8/jr+RlqPBBA6/QGzLlj8eEqrBkN2qQGos
x7/oF67Bdzq7QGvZcD5HgaHBoRXdQP7rSUCY2ZTBHCr+QClZ60Dg9arBBp/7QHiH60C7TrfBHT+r
QP7IokCMA6fBWhLkQMS8TkDu67HBIZ2HQPfSS0DRtJzBpuagQPrdY0BD3abBekXHQAt3rkCFyrDB
ASzKQCLbK0BxHqjB6YDUQBFL3kALoLDBVcWuQNkn/kCqN7DBygDoQGhdNkCiwp7Buhz9QE2qS0B/
Lo3BbSbtQGfqk0BbprDBSbOhQBDENsCN96/B30HAQAJ7Ej80I5fBjqSnQDH3WkAdgJDBy/G2QDXt
sz+6N7vB49anQJPhe7+is77BIOGuQDqv57/HB53BPcgIQYgV00Cd0qbBGtT/QPDfBEFYi6bB6Hj7
QIsHBUEDsLvBpJoGQb5k00BH97vBtR6NQLnrtEBIaafBboG8QCNEq0ClpJ/B0C4BQehGK0CulLLB
VinRQEBtRUCHQLnBENJVQLxidEBwN5zB0vZ7QPg/CECYP53BcUaMQCB1VkCly63BKsG0QDFeqEBF
HrjBFkiTQOy28EAwkbTBCr6lQP73AUHm1afByGi4QERDDkEg9bPBRpgDQbmtLUCwL6DB+7z1QBM/
VkCXgoXB2MsNQYRXQkAiUo/B18+RQLcvPD+Vy6rBqZqIQDC7IL/SKazBIKLUQPgPjb9d063BjMm8
QKHTmT+NVqrBovWpQDEpxr86pq3BykDeQOnDhD4hMKzBJcDjQK+6QUB7zpXB7t+tQG70/kCg8rXB
X7+2QKugAEHL6qnBQYeqQJ1Wo0As5qXBqPLZQG6dT0AXQbPBMXOLQKkyTkCKp5rB3YafQHwDZkB5
mqXBtNi/QIyqr0DZo7DBRVLHQKYELUChg6jB5QHOQFyT30AU47DBZQ7+QByb50A3I7PBIJTpQLVo
NUAAJaDBf9ADQbDiQ0AHS4/BkXfkQCJclEANYLLBz+igQN3fNsAkGq/BfPADQeJrIz+ghazBPbSx
QHEfVEBWpI/B1qtvQD+MuD/CE6rB0Z5PQA/vd790EqzBaDLuQP9a57+rOa/BM8eOQM4z80BD17jB
jVy5QI1LDEElQLvBS6fIQHA9DkHHlqbB8RGeQJQX90DlLaTBKe2MQPz5tUAm66TBgaTAQPTAqkDv
Tp/ByAb3QJ9jK0CmRrXB6QbCQDcpR0B6n7nB+ONhQJSXekDX/5jBrgt+QOZwDEA0IZvBFRaHQLho
WkCbxKvBL2CoQD6yqkBYFLfBPqkIQdoIz0AeE6/BifQBQX4Q5kBzzrvBeIoDQbe3A0H2IbDBy+8D
QZ46MUDsqqLBVD8CQU17T0DwdofB/1ISQVXYOUAWbJLBA7TCQMK4rUACT6nB4pDMQGqE00BAxa7B
dePvQKw+qkDsuLzBxmvMQOaRhUCo8K3B97HgQL5/0UCgyrjB/Y3nQI5WhEAoGLfBqUWSQEXNV0CR
AJjBjNSiQHVcGcADla/Bo0nAQLkIH8CzsqXBC5bJQPziMD/dRKDBOSGkQGzRBUC1rLLBe03rQJcv
NUBhX5nBv/jaQM3OBEDlR6PBkVW1QACwAj2nJ6rBHIa4QL7DOUD9T6nB9b2hQHoUp79OCKfBtV10
QMa/nb+Fl5/BG16SQI1GTUBObqLBNJRXQCaqbUDwNpPBAk2UQAikWj/vt67B4NvlQJp49UDrmL7B
u3L5QA80P0CuvLrBVv+/QFuKS0Dqy4/BEaSzQEkwr0CBiqHB7LbEQCAn8kBaSavBe/4AQSlAqUAZ
FMTBNn6wQMu/C8D7grfB6LeHQKe8RcDHb7DBeDa6QDJ6T8D5fp/BxvziQFZ9FcAtkqbB/fLjQFjG
fj3HUZ3B9kCxQEpITD/M95nB4qOJQKW+KkC6LbbBm368QC8f8z+W1rjBfusBQVATDkBCYpXB5YD5
QKkxckAH9ZvBdzD2QPc09z/DvajBJZ7OQD0fFb5KHLDBn0F8QKyOzb4W6ZnBu4A6QEGTiL8xbaTB
QR9uQHFYC8BvJ5vBAWNsQNXQUkAKKabBtqNUQHkjdkAmS4vBEP0iQO32dEByrpfBuWisQAzq3T55
4aLB4ZCgQNiCXb9G+6XBzWe+QFli7b6En7fBAibAQN/vqj/WJ6rBnrapQL1+qL8eW7DBkWLJQEFc
Wj91tLTBIOriQLUFQ0Dj2pLB19b1QHft1kDUm7jBNyvOQBFU5UBF4b7BwrSkQGtGokD9waXBsEjm
QJWTaEB16K3BaoeMQFpHVUDkaZjBJGKfQNxEY0DNsqPBAj+xQMjDqkCdqbHBkNbKQGtjMUCIB6bB
DkfJQM5H1kDTObPBdZjAQMxb+UDAv6rBDBboQD/IJUCmopzBk5ACQeotPEBb2YvBRKfKQFSSh0By
2LXB/EKfQNTTJMATTrPBJNXcQCRVzD8TTrzBaCazQI4McEA3A47BWl6mQGQiQT9HxZrBKnCQQDH5
wb8ZYqDBngDGQPJMUr/8jL/B0u0CQSmvuEC5qrrBFvIGQfiY7kD2GrbBAdrJQCSqA0Gl4sDBedHB
QHlq0UBpcsXBsFOGQO6YskCs/qPB3/S9QOTgrkCKf6DB6un2QKWRjUCQaanBP/n9QP58P0AD6LHB
dS5gQCMQfkB2dpfBqEeDQLqyEUDejpfBILWHQOlpS0DSfKnB7VOTQIOyrEARRrbBEg6gQHF79UBY
iafBpvbXQJ1s9kB7NaTBP5zDQGiMDEGteq7BLVYBQS3JA0Bv9p3BFhUBQfGNUEA1TYTBZWMQQSre
IkCrV47B+++RQMSNOz/80arBg8qIQH2XIb/HKazB/9TUQBoUjb8u1q3BXuO8QL7LmT+CYKrB9C6q
QH5wxr+spK3BR2XeQKwYhT6PN6zBMJnjQJN9QUCTxJXBNyj1QANJ60BMA7jBhu/HQPQz9kDl2rvB
foWqQLZAo0DE1KXBq33aQO05UEB6KLPBKkiLQPPbTUACq5rBJWCfQI3oZUDdnKXBpRfAQPatr0A0
jLDBmljHQI7+LEBkgKjBpRnOQF+a30DhA7HB6uHGQK/w+kAj16bB13vpQK3vNEBWGKDBvrsDQVsK
REBwQI/BufDkQEy1lECwI7LBiDGhQMkPN8BuE6/BrQEEQTjOIz+Ci6zB8XuxQF2RU0D1n4/BH9tv
QNYYuD94HKrBTQdQQFMweb+WDqzBb2zuQEo/579UPK/BuMQDQfPm0UAlBbzBZ34FQct9AkGXfLXB
UFa9QLbgC0HDGLzB8uK5QMis5EBSocLBa/aMQCL4tUDZ3KTBOorAQNF5qkABNZ/BH633QGcpLEDJ
ILXB9uLCQActSEC4m7nBr4VhQBUzekCoAZnBNr19QEYaDEDnKpvBdAKHQGJ/WkAnzavBU+WoQAUp
qkBqBbfBvkOqQBFv70ComaLB5+viQIYw+ECekKHBylfCQBlQDkG1IKnB7eUDQZ82MED3lqLBWSYC
QfW8T0AqbYfBS0ESQa8uOkBHYJLB4vCpQEZq4D6U4aLBSISdQDYGXL+w26XBFInAQLbaD79QCLfB
uabAQFvnpD9sA6rBgvaoQA1irr/i7q/Bwi7MQA/+QD8oQbTBQvbeQBTsQ0BwmpLBMNW3QHFp+0Du
qLbBOoLOQPnP90Aa2qvBhHGoQO8hokD6D6fBBorqQJypYUA0m63Bl62KQPJ+WkDOuJnBJsugQDAK
ZEA8taTBHra4QDeaqEDywLLBgdjLQCCTLkDGD6bB/ofSQJE800BOKLTBrPT9QI4Pz0CkCrrB7iPm
QFRLI0CoIZzBOhv/QDTiPEDeAovBAinSQIIchEDQLLbB7+udQNzFJ8BcvrLBdH3iQCcQuT9MrLvB
ZdiuQC6AdUASyY7ByguiQF+UTD/++prB4yyLQIMLvL9MZaDBINvJQLm6db8ZuL7BtL2UQBwy+UAR
ErfBzULDQFBHCUGSpLzBg0DqQL0kBkHsFKrBabu7QPXs8kBsgqTBzzqKQDyvs0Cw/6XBuIXAQJKc
rkDec6HBSMf6QD8KikBf/6jBTUIBQQDaNUDU/7DBk51dQJa3gkAzbpnBTP1/QCDdF0BhwZjBaFaK
QCoxTEAyy6rBhlScQMvYqkDG7bfBy+kGQQw4sUCJlbfBYHP4QH2EzkBzu8LBSzcJQXJ96kA5/bfB
thsAQWhC/T8/1pzBvIT6QOWrU0C/n4PB4HANQbcEIUD764zB

> <OMEGA_E>
RMleP9IQaD+w834/Gl59P9ShfD+wDXY/3HJ1P3h2cT9iNHA/UtZvPw==

> <OMEGA_NBR>
    134675

$$$$
417126
  -OEChem-04172616093D

 44 47  0     1  0  0  0  0  0999 V2000
    5.4642    0.4272  -20.3582 C   0  0  0  0  0  0  0  0  0  0  0  0
    5.1414   -0.8830  -20.7481 C   0  0  0  0  0  0  0  0  0  0  0  0
    5.8721   -0.3839  -23.0092 C   0  0  0  0  0  0  0  0  0  0  0  0
    5.9592    1.3789  -21.2899 C   0  0  0  0  0  0  0  0  0  0  0  0
    5.3513   -1.2907  -22.0737 C   0  0  0  0  0  0  0  0  0  0  0  0
    6.1665    0.9422  -22.6406 C   0  0  0  0  0  0  0  0  0  0  0  0
    7.2092    3.0833  -18.4279 C   0  0  0  0  0  0  0  0  0  0  0  0
    8.4053    6.3632  -23.1093 C   0  0  0  0  0  0  0  0  0  0  0  0
    8.2997    7.8528  -22.7507 C   0  0  0  0  0  0  0  0  0  0  0  0
    5.0328    5.0883  -20.5838 C   0  0  0  0  0  0  0  0  0  0  0  0
    7.0342    3.7067  -21.7814 C   0  0  0  0  0  0  0  0  0  0  0  0
    4.4556    3.2729  -18.9048 C   0  0  0  0  0  0  0  0  0  0  0  0
    4.9285    3.5516  -20.3478 C   0  0  2  0  0  0  0  0  0  0  0  0
    7.4222    6.8341  -22.0210 C   0  0  0  0  0  0  0  0  0  0  0  0
    5.2790    5.3768  -22.0938 C   0  0  1  0  0  0  0  0  0  0  0  0
    6.2754    2.8111  -20.7614 C   0  0  1  0  0  0  0  0  0  0  0  0
    5.9047    6.7815  -22.3290 C   0  0  0  0  0  0  0  0  0  0  0  0
    7.2819    2.6353  -19.6621 N   0  3  0  0  0  0  0  0  0  0  0  0
    8.3551    3.0241  -17.6499 N   0  0  0  0  0  0  0  0  0  0  0  0
    6.1027    4.3420  -22.7015 O   0  0  0  0  0  0  0  0  0  0  0  0
    5.0692   -2.5586  -22.4472 F   0  0  0  0  0  0  0  0  0  0  0  0
    6.6470    1.7383  -23.6212 F   0  0  0  0  0  0  0  0  0  0  0  0
    5.7411    3.7025  -17.6869 S   0  0  0  0  0  0  0  0  0  0  0  0
    5.3331    0.7180  -19.3264 H   0  0  0  0  0  0  0  0  0  0  0  0
    4.7320   -1.5759  -20.0278 H   0  0  0  0  0  0  0  0  0  0  0  0
    6.0492   -0.7073  -24.0243 H   0  0  0  0  0  0  0  0  0  0  0  0
    8.0251    6.0008  -24.0758 H   0  0  0  0  0  0  0  0  0  0  0  0
    9.3031    5.7918  -22.8309 H   0  0  0  0  0  0  0  0  0  0  0  0
    9.1240    8.3491  -22.2177 H   0  0  0  0  0  0  0  0  0  0  0  0
    7.8461    8.5581  -23.4626 H   0  0  0  0  0  0  0  0  0  0  0  0
    4.0956    5.5702  -20.2684 H   0  0  0  0  0  0  0  0  0  0  0  0
    5.8691    5.4919  -19.9942 H   0  0  0  0  0  0  0  0  0  0  0  0
    7.5898    4.4839  -21.2361 H   0  0  0  0  0  0  0  0  0  0  0  0
    7.7391    3.0851  -22.3531 H   0  0  0  0  0  0  0  0  0  0  0  0
    3.5558    3.8720  -18.7014 H   0  0  0  0  0  0  0  0  0  0  0  0
    4.2141    2.2041  -18.8078 H   0  0  0  0  0  0  0  0  0  0  0  0
    4.1449    3.1766  -21.0226 H   0  0  0  0  0  0  0  0  0  0  0  0
    7.7075    6.6046  -20.9837 H   0  0  0  0  0  0  0  0  0  0  0  0
    4.2966    5.3726  -22.5886 H   0  0  0  0  0  0  0  0  0  0  0  0
    5.3911    7.5060  -21.6798 H   0  0  0  0  0  0  0  0  0  0  0  0
    5.7520    7.0602  -23.3821 H   0  0  0  0  0  0  0  0  0  0  0  0
    8.1043    2.1166  -19.8956 H   0  0  0  0  0  0  0  0  0  0  0  0
    8.3293    3.3286  -16.6978 H   0  0  0  0  0  0  0  0  0  0  0  0
    9.2075    2.6769  -18.0409 H   0  0  0  0  0  0  0  0  0  0  0  0
  1  2  1  0  0  0  0
  1  4  2  0  0  0  0
  2  5  2  0  0  0  0
  3  5  1  0  0  0  0
  3  6  2  0  0  0  0
  4  6  1  0  0  0  0
  4 16  1  0  0  0  0
  5 21  1  0  0  0  0
  6 22  1  0  0  0  0
  7 18  2  0  0  0  0
  7 19  1  0  0  0  0
  7 23  1  0  0  0  0
  8  9  1  0  0  0  0
  8 14  1  0  0  0  0
  9 14  1  0  0  0  0
 10 13  1  0  0  0  0
 10 15  1  0  0  0  0
 11 16  1  0  0  0  0
 11 20  1  0  0  0  0
 12 13  1  0  0  0  0
 12 23  1  0  0  0  0
 13 16  1  0  0  0  0
 14 17  1  0  0  0  0
 15 17  1  0  0  0  0
 15 20  1  0  0  0  0
 16 18  1  0  0  0  0
  1 24  1  0  0  0  0
  2 25  1  0  0  0  0
  3 26  1  0  0  0  0
  8 27  1  0  0  0  0
  8 28  1  0  0  0  0
  9 29  1  0  0  0  0
  9 30  1  0  0  0  0
 10 31  1  0  0  0  0
 10 32  1  0  0  0  0
 11 33  1  0  0  0  0
 11 34  1  0  0  0  0
 12 35  1  0  0  0  0
 12 36  1  0  0  0  0
 13 37  1  0  0  0  0
 14 38  1  0  0  0  0
 15 39  1  0  0  0  0
 17 40  1  0  0  0  0
 17 41  1  0  0  0  0
 18 42  1  0  0  0  0
 19 43  1  0  0  0  0
 19 44  1  0  0  0  0
M  CHG  1  18   1
M  END
> <OMEGA_C>
6NquQOS72j6u3aLBdoakQNEMYr8K/KXBRei7QDqIxL7bErjBBrK+QLV/sD+kUarBhD2rQJM1pb/q
lrDBJlTFQPQ1cT//H7XBr7HmQIRURUBmbJPBKHwGQXGfy0Dh37jBbssEQfFJ+0CGAbbBpwyhQA/T
okCUq6TBkxjhQDA6bUA+QK7BdpSOQHh2UUARPZfBgLadQJxMY0BJyKLBRoLtQJaw2kAKK7DB9e2o
QJgOrEAWwLDBC9DIQLLpM0BEF6bBdfO8QGgC2UDFobLBKAXpQBapKEANTJ3Bga4FQcGKQUAYM43B
/UjDQPDxikCwnLXBkTaiQIjAI8D1k7PBgrTUQIB/3j8m+LzBbbe3QKf1bECvfo3B5qiqQEPONz+B
nJrBxmyXQHu2yb8DOaDBIZPBQHQQNb/HMcDB82YAQfIGwEBPm8DBaNkUQXVWuUC2pbbBFPwRQbiV
BUHlvbHBPxP7QPbtCEF+s7vBFw+DQK0+skDFJaLBpc+7QPO9r0AM9J/BTt/yQCd8j0CF46nBX6b3
QHNyRUAw07LBwJJjQFjPd0CHnJXB59mGQMwPDUB1dpbBUKOEQBNNS0BQLqjBeaP2QNVY00Cx3qfB
H36JQJ3sq0CGtbTBDISsQPUw8EBIcK3BpRC4QFTt4UCGDrvBX6sBQfV2B0BHKp/Bz0QFQVcIVUAX
lYXB6FETQaVRK0DKU5DBytjJQGQcBz/ZBrTBFPG/QMBCUr9y/rXBJJeeQGgefL/Qi6TBYGK+QPTI
lD9IMKrB1uSpQHhhyb+QTK7BzFipQFGHsz6aXKLBALLbQIaLQ0BinZTBbHOgQMXeBUFmJqbBXrW6
QO1dFUEIFa3BqDyuQMzbo0CiVafBSuHlQIeOTUDjl7HBo7CGQOcYWkCR7ZzBevmhQNJvZ0ASDKfB
OMqzQOyL/ECmyrDBYmTLQNV/rkCj4bDBdj/KQEusKkATBqjBnjjaQEiP3UB8kLDBnunmQGJbL0AX
dp7BXnn7QCIeQ0Dz3ozBMlHwQMU7k0CGYrDBuCigQDWVN8AQLbDBjI2gQDRrRz/qapjB+uqmQFDD
XkBKe5DBpHnaQPJqjD89FLrBaFjJQMrQo7+FdL3Bwm6NQH0XyL+9pJ7BeYetQFf6/0AKh57BZkZ7
QPX8B0ENZaXB4a+qQOiYIkEeSLHBJ5TaQB6ZGkEbaqrB8dGQQEcIt0Ag86fBhBm/QKEDrEBK4p/B
QOIBQXCHKED1BrLBCr3TQGszRUDWD7nBTStcQOEvhkC6mpzBRVJuQEgJG0DNaJ3BaG+NQHi9WkDo
A67B0RSdQGcP+EDVa7fBG6C5QNDtqEB3WbjBJbPuQOPg40Cci7fBJ5/sQFf84kCmL6nBrecCQVDB
IUCtqZ/BvFD0QAbCUUCcSoXBHMYMQV0rNEDO3Y7BbAveQADdoT6CK6zBvEvXQA6Vh7+2663B8qyK
QEyUOr9OFazBSCu7QIKymT86UKrBEJGtQG6eyr+Iua3BONOQQJRtJj9yp6rB3PHkQGv2QkCeKJbB
5o7wQE3CDEGKIaXBPvPaQNju+UDaa53B8luqQBjco0CWu6XBSuLXQMSXT0B+abPBjFGMQHypUEAc
HZrBtpCeQMQEaED+UqXBEH/rQJCB6kAAV6jBunu9QLaKr0BKw7DBhnvFQFGTLUCglajBHsvKQEgc
30BoLLHBQAvpQB79NEBOhaDB3+UEQbqQRUBsAZDB1jPiQITClECOyLLBjrWmQDnXOcBEQK/BPJZZ
QJ6TsT9y7qnBgiK0QCyOV0Cmio/BXEX+QETIND/zPKzBMTDyQA4P27/zaa/B11VVQDBbkb8t6qvB
uGfdQOElGUEJJqnBODsIQfUuE0FjQqPBQWLrQNgc8EBfCZbBiFO4QLEK/EAG7ZvBTWqNQKcct0BP
WaTBagzCQJ/OqkC5dZ/BVRP1QHaPK0CuYrXBiee/QKXpRUBVvbnB/AJkQLnvfECCO5jBT/J/QOLF
DkDYZZrBKgKFQPUBXUCFN6vB3mgEQeEK10DgL6jBtfSkQLbzqUAK67bBcByuQHYT80DYHrDBxDnZ
QE3I5UBKBrnBt3ADQcWrLkBlTaPBHPcDQX+qUkBYMIjBUiETQeZXOkCGYZPBijerQNUn3j52PKLB
MiyfQI5paL9+saPBYF6+QNUjYL94cLXBhVu/QJ9olz/FgKrBOaioQKbix78rU63BDeLJQHK08j5b
LrTBw3bcQGFOQkA2+JTBrf73QF/vC0EfX6PB8jreQCu0+EBLXpzBlRWsQKnEo0Dk+abBAHHkQAc/
U0DF7rHBssmGQGLEUkDX0pzBiwyhQIVYZkC1AKfBr9XyQD4z6UByzqbB1vfHQKDwr0AgsrDBWEvK
QBOSLEBEaqjB6K/VQEJH30AGerDBPXnnQGqQMUC57p7B19X8QFWJRUA4Y43B9aPtQHbQlUBwi7DB
VuedQMj2NsDnt67BxsffQOghgT8Ud7zBBV6nQATIVEAdgJDBmwSlQO7TaD+ooprBF5yOQGe1t79k
ZJ3BTGHGQA71sb8bxLzBSXPnQJ6vGEH1zqfBQacLQQrQEUHNoKDBLBrrQNwb7kAxnpTB8j67QATb
+0BYzJvBiy+OQFlQtkAyP6fBMpy9QDJ6q0CAl5/BKmoBQbAqMEBto7LB+M7RQMFNS0AWVbnBwYRa
QKtwgUACF5zBaedwQEjQEkAxp53BZEWMQLdEWkCe8a3BEqUHQSrE1EB78qXBJou1QJwKqkAwDLjB
cOi4QA9080DL/a/BfTDnQCGg5kAz47fBS0gDQXgaJ0AmTaDBtsz1QLPoUUD1vIXBn5oNQSB+O0Ay
ko/B+vKpQDXK4j4RUaLBU3SdQMK0ZL8C26PBaFO/QBw7Yr+wS7XB6L2/QJ/Plj9PZqrBChaoQPsx
x78oX63B1U/LQLcY7D609bPBFjraQHAdQkALo5TBQGGfQGdvBkHkmabB90O6QP27FUGngK3BhZit
QHv9o0C6R6fBalDnQM66UUDfcrHBfhuGQEisVECMXJ3BtDCiQMbqZkBVRafBAruzQBsO/UA2DLHB
On/LQGNqr0DorbDBXSrLQJXyK0CAO6jBzBvaQL5i3kAdZbDBcbXmQPwtMECHdJ7BXVz5QKnQREDk
vIzBG8XwQHUFlUAo8K/ByPCcQNdZNsCC067B5KviQD/Zez9CCrzBkJ+kQMaHVkCbupDBE9GiQJ7R
bD82y5rBjqmLQI9rtL/GtJ3B3inIQMXcs78ziLzBYL2rQMDPAEEo257BIP94QOKLCEFaEqbBPp+q
QJfPIkEa6LHBDd3ZQHQTG0HosKrBH++PQFy6tkAS/qfBvKy9QP4ArEButp/B/8kCQb3iLUDey7HB
tAnWQCgySkDPDrnBGKVZQBvEgkBj75zBjPBuQFgTFUDGSJ7B83KOQD68WkBOZa7BQbqdQA0F+EDe
zLfBs466QN1tqUArP7jB8X7vQGFq5EBJOLfBn3vrQIBG5EB34qjBNe8CQVYhJEB9ep/BmTHxQHvl
UUB3LYXBH/0LQUKuOUA0mo7Bim3ZQGHJkEAA87jBYM7jQMyft0Cs3L3BXcHVQFwS3UCsLK3BeJvJ
QCLbj0CYUK7BMHbgQB7l3UDLFbjBN/PKQIlGtkC/MKjBgZyRQG9HVUBvGJjBOJyHQD7Dnr/N0KHB
0ayKQAi/I8BfEqjBf4DXQID9bj/fWaTBQXqlQBHbEUBXuLLBfJXqQL5IPEDRApnBKunfQHcAHEAx
R6TBdjKxQChgz79epafBgZ7WQOBe3D7kMLDBEyW5QJsQS0B7nqnBGKe8QJx7Xr/z+LHBGh6TQHxN
WkCNk6LB45tXQFwKbUAeIZPBOhXGQJbUuD/bZbfBW/TnQKTBAUHvBb3Bg0fBQKJSt0CIpJ3B8Kq8
QPeHM0AlDJDBoX/dQKRkZkCqS73BFF/uQMUduEBjFsbBPdXVQOBj+kCZmajB9TtnQKk+1r5b2qTB
X1mGQLJqoL+aBZnBYoOLQGsRYcAbwaPB+o9xQOejK8Dbla/BIhbxQJkU1T5g8p/B1IK4QGW7OT9D
hqDBDy6MQCRT0j+nUa/Bd7yXQB9PO0C58rjByowCQSv8FUA8wpXBUVv0QBLNf0AzgZnBSw78QGfr
J0BJWanBUCfMQGCm97/ek6LBRer3QEWtWz7jdrLBcqvPQMpOxb/VD7fBrbqeQNVgG7/qGrbBzK1v
QB8OakA3RKbBk+RSQGTIakD3J4vB7b0lQLM5gECNhJfB

> <OMEGA_E>
RAF2P6T7ej/cSnw/RDN1P9wRdT9aXWs/

> <OMEGA_NBR>
    139623

$$$$
50322745
  -OEChem-04172616093D

 37 39  0     1  0  0  0  0  0999 V2000
    4.6808    0.4846  -20.6765 C   0  0  0  0  0  0  0  0  0  0  0  0
    4.6233   -0.9080  -20.8437 C   0  0  0  0  0  0  0  0  0  0  0  0
    6.5433   -0.8148  -22.3339 C   0  0  0  0  0  0  0  0  0  0  0  0
    5.6754    1.2567  -21.3361 C   0  0  0  0  0  0  0  0  0  0  0  0
    5.5522   -1.5570  -21.6722 C   0  0  0  0  0  0  0  0  0  0  0  0
    6.6150    0.5799  -22.1728 C   0  0  0  0  0  0  0  0  0  0  0  0
    4.5655    3.4036  -18.9939 C   0  0  0  0  0  0  0  0  0  0  0  0
    7.2417    4.7751  -20.5304 C   0  0  0  0  0  0  0  0  0  0  0  0
    5.5243    3.4722  -22.5206 C   0  0  0  0  0  0  0  0  0  0  0  0
    7.2887    2.6515  -19.1123 C   0  0  0  0  0  0  0  0  0  0  0  0
    7.0981    3.2381  -20.5196 C   0  0  1  0  0  0  0  0  0  0  0  0
    6.9795    5.3030  -21.9521 C   0  0  2  0  0  0  0  0  0  0  0  0
    5.7308    2.7903  -21.1370 C   0  0  2  0  0  0  0  0  0  0  0  0
    7.0642    6.8301  -21.9582 C   0  0  0  0  0  0  0  0  0  0  0  0
    4.5812    3.2807  -20.3048 N   0  3  0  0  0  0  0  0  0  0  0  0
    3.3583    3.7241  -18.3944 N   0  0  0  0  0  0  0  0  0  0  0  0
    5.6672    4.8949  -22.4003 O   0  0  0  0  0  0  0  0  0  0  0  0
    5.4972   -2.8975  -21.8275 F   0  0  0  0  0  0  0  0  0  0  0  0
    7.5987    1.2348  -22.8345 F   0  0  0  0  0  0  0  0  0  0  0  0
    6.0182    7.3597  -21.2673 F   0  0  0  0  0  0  0  0  0  0  0  0
    7.0247    7.2678  -23.2416 F   0  0  0  0  0  0  0  0  0  0  0  0
    5.9875    3.2237  -17.9584 S   0  0  0  0  0  0  0  0  0  0  0  0
    3.9604    0.9754  -20.0388 H   0  0  0  0  0  0  0  0  0  0  0  0
    3.8629   -1.4811  -20.3339 H   0  0  0  0  0  0  0  0  0  0  0  0
    7.2553   -1.3186  -22.9709 H   0  0  0  0  0  0  0  0  0  0  0  0
    6.5129    5.2167  -19.8348 H   0  0  0  0  0  0  0  0  0  0  0  0
    8.2599    5.0508  -20.2186 H   0  0  0  0  0  0  0  0  0  0  0  0
    6.2745    3.0906  -23.2288 H   0  0  0  0  0  0  0  0  0  0  0  0
    4.5160    3.2389  -22.8933 H   0  0  0  0  0  0  0  0  0  0  0  0
    7.2517    1.5539  -19.1755 H   0  0  0  0  0  0  0  0  0  0  0  0
    8.2702    2.9636  -18.7260 H   0  0  0  0  0  0  0  0  0  0  0  0
    7.8933    2.8283  -21.1597 H   0  0  0  0  0  0  0  0  0  0  0  0
    7.7499    4.9009  -22.6265 H   0  0  0  0  0  0  0  0  0  0  0  0
    8.0155    7.1177  -21.4867 H   0  0  0  0  0  0  0  0  0  0  0  0
    3.7474    3.5386  -20.7930 H   0  0  0  0  0  0  0  0  0  0  0  0
    3.3094    3.8468  -17.4031 H   0  0  0  0  0  0  0  0  0  0  0  0
    2.5360    3.8327  -18.9528 H   0  0  0  0  0  0  0  0  0  0  0  0
  1  2  1  0  0  0  0
  1  4  2  0  0  0  0
  2  5  2  0  0  0  0
  3  5  1  0  0  0  0
  3  6  2  0  0  0  0
  4  6  1  0  0  0  0
  4 13  1  0  0  0  0
  5 18  1  0  0  0  0
  6 19  1  0  0  0  0
  7 15  2  0  0  0  0
  7 16  1  0  0  0  0
  7 22  1  0  0  0  0
  8 11  1  0  0  0  0
  8 12  1  0  0  0  0
  9 13  1  0  0  0  0
  9 17  1  0  0  0  0
 10 11  1  0  0  0  0
 10 22  1  0  0  0  0
 11 13  1  0  0  0  0
 12 14  1  0  0  0  0
 12 17  1  0  0  0  0
 13 15  1  0  0  0  0
 14 20  1  0  0  0  0
 14 21  1  0  0  0  0
  1 23  1  0  0  0  0
  2 24  1  0  0  0  0
  3 25  1  0  0  0  0
  8 26  1  0  0  0  0
  8 27  1  0  0  0  0
  9 28  1  0  0  0  0
  9 29  1  0  0  0  0
 10 30  1  0  0  0  0
 10 31  1  0  0  0  0
 11 32  1  0  0  0  0
 12 33  1  0  0  0  0
 14 34  1  0  0  0  0
 15 35  1  0  0  0  0
 16 36  1  0  0  0  0
 16 37  1  0  0  0  0
M  CHG  1  15   1
M  END
> <OMEGA_C>
0siVQFoc+D5uaaXBr/GTQLFzaL/Wv6bBD2PRQMKXUL/nq7LBe5y1QE/aoD9asKrBO6uxQEFNx7+t
YK3BO67TQEh1FD/qYbHBoxiSQK3UWUCO85fBwrvnQOrNmEBcPqTB+sawQB04XkAbKrTBWD3pQPux
KUAU5pjBVCPjQFs8T0A8KKTBPFjfQFuyqUDsna/BhWK3QIaUMkCVGKnBEw7iQGSQ2kB5qq/B7ZiS
QDj2UUBOcKLB5+5WQGBXbkCiJ5PBWFm1QNGinEDSM7PBtOivQHpwOcDOnq7B2SjzQIcNnj8grbbB
LZXAQIeC60BkI6rBZMrgQMSR6EDJ7rnBQJm/QF5RTkDHqo/B3nd9QJC0eT94T6DBajp3QAiWvb/b
q6LBrCvoQPvHqL9SxLfBt2nQQFnvpkCzrZ7BbCgEQS+goUCZv6HBf8jIQM3MRUCj1LnBSIOQQFNJ
T0COJbfBzw3oQC/nxj+AZ5nB2lIEQXirPUDSzpXBEZb8QJ8CNUAKR6nBHP/3QJXUnEAsA7XBbD8A
QYLE40C15KvBsNVvQFF4YkAdWKbB+MxTQJAxdkCUOYvBCU0iQBVLdUBjn5fB9yzUQDXnKD+fRbHB
gwjVQMZiOb8nGrPBQpKWQJk3fr9Xt6fBSYe0QH0HoD+QnarBg122QEeZxr/cRa7BTR2VQBvTyT6d
4aXBN96RQMGiW0CMzpfB6+LnQMz9l0CFRqTBVtKwQNDJXECIGLTBM6HoQN1IKEDt4JjBgWziQG6m
TUBtJaTBjIffQJoSqUCgo6/B7jC2QHlUMkCs66jBhxriQKH/2UBRoq/BDzSSQEzoVEDfTqLBQHdW
QEIBb0Cd8JLBg6C1QJH8m0AOSrPB4j+3QNajOMA7+a/BDLxpQOg+WT9sp5/B8knAQMbP6kBaNarB
m1nhQJU26EAT47nBAnW/QIFMTkAxlY/B6wTsQH3jpD8e/rTBEUbtQFRwk7/xOLjB0fd9QFZJ0b/U
CqTBT/bQQK+PpkCqrZ7BdFcEQds8oEBk1aHB7kbJQBNaQ0CPkbnB6cyQQObwTUB0PrfBgfvmQJ4f
xD/kWJnBUiAEQVyNO0AC25XBpmj7QD9fMkCoUqnB70r4QJhlnEDuB7XByycAQcQ340Cav6vBlShw
QIyqaEBwNqbBIVVTQKETdUBR/IrBRNMhQPPpdkCXYZfB

> <OMEGA_E>
8JQvPoiEUz4=

> <OMEGA_NBR>
    141257

$$$$
417138
  -OEChem-04172616093D

 44 47  0     1  0  0  0  0  0999 V2000
    4.7476    0.3935  -20.7983 C   0  0  0  0  0  0  0  0  0  0  0  0
    4.6999   -0.9769  -21.0843 C   0  0  0  0  0  0  0  0  0  0  0  0
    6.6973   -0.7691  -22.4616 C   0  0  0  0  0  0  0  0  0  0  0  0
    5.7703    1.2079  -21.3465 C   0  0  0  0  0  0  0  0  0  0  0  0
    5.6722   -1.5564  -21.9145 C   0  0  0  0  0  0  0  0  0  0  0  0
    6.7550    0.6057  -22.1893 C   0  0  0  0  0  0  0  0  0  0  0  0
    4.5632    3.4140  -18.9842 C   0  0  0  0  0  0  0  0  0  0  0  0
    7.2229    7.5941  -22.9704 C   0  0  0  0  0  0  0  0  0  0  0  0
    7.1773    4.7355  -20.4706 C   0  0  0  0  0  0  0  0  0  0  0  0
    5.5046    3.3870  -22.4716 C   0  0  0  0  0  0  0  0  0  0  0  0
    7.2841    2.6400  -19.0382 C   0  0  0  0  0  0  0  0  0  0  0  0
    6.7683    6.7395  -21.7892 C   0  0  2  0  0  0  0  0  0  0  0  0
    7.0977    3.2083  -20.4534 C   0  0  1  0  0  0  0  0  0  0  0  0
    8.1281    7.3915  -21.7393 C   0  0  2  0  0  0  0  0  0  0  0  0
    6.8208    5.2507  -21.8752 C   0  0  2  0  0  0  0  0  0  0  0  0
    5.7554    2.7181  -21.0938 C   0  0  2  0  0  0  0  0  0  0  0  0
    8.2893    8.4714  -20.6782 C   0  0  0  0  0  0  0  0  0  0  0  0
    4.5730    3.1453  -20.2714 N   0  3  0  0  0  0  0  0  0  0  0  0
    3.3919    3.9228  -18.4474 N   0  0  0  0  0  0  0  0  0  0  0  0
    5.5430    4.7964  -22.3169 O   0  0  0  0  0  0  0  0  0  0  0  0
    5.6200   -2.8758  -22.1900 F   0  0  0  0  0  0  0  0  0  0  0  0
    7.7523    1.3153  -22.7722 F   0  0  0  0  0  0  0  0  0  0  0  0
    5.9458    3.1787  -17.9067 S   0  0  0  0  0  0  0  0  0  0  0  0
    3.9994    0.8330  -20.1553 H   0  0  0  0  0  0  0  0  0  0  0  0
    3.9143   -1.5883  -20.6656 H   0  0  0  0  0  0  0  0  0  0  0  0
    7.4449   -1.2237  -23.0947 H   0  0  0  0  0  0  0  0  0  0  0  0
    7.4794    7.1204  -23.9294 H   0  0  0  0  0  0  0  0  0  0  0  0
    6.7551    8.5719  -23.1579 H   0  0  0  0  0  0  0  0  0  0  0  0
    6.4683    5.1480  -19.7377 H   0  0  0  0  0  0  0  0  0  0  0  0
    8.1983    5.0525  -20.2117 H   0  0  0  0  0  0  0  0  0  0  0  0
    6.2843    3.0729  -23.1810 H   0  0  0  0  0  0  0  0  0  0  0  0
    4.5182    3.0852  -22.8535 H   0  0  0  0  0  0  0  0  0  0  0  0
    7.2836    1.5414  -19.0927 H   0  0  0  0  0  0  0  0  0  0  0  0
    8.2487    2.9870  -18.6393 H   0  0  0  0  0  0  0  0  0  0  0  0
    5.9896    7.1740  -21.1451 H   0  0  0  0  0  0  0  0  0  0  0  0
    7.9175    2.8234  -21.0777 H   0  0  0  0  0  0  0  0  0  0  0  0
    8.9924    6.7274  -21.8872 H   0  0  0  0  0  0  0  0  0  0  0  0
    7.6074    4.9465  -22.5815 H   0  0  0  0  0  0  0  0  0  0  0  0
    8.9761    8.1172  -19.8953 H   0  0  0  0  0  0  0  0  0  0  0  0
    8.6987    9.3816  -21.1407 H   0  0  0  0  0  0  0  0  0  0  0  0
    7.3093    8.6959  -20.2318 H   0  0  0  0  0  0  0  0  0  0  0  0
    3.7016    3.2349  -20.7537 H   0  0  0  0  0  0  0  0  0  0  0  0
    3.3440    4.1467  -17.4740 H   0  0  0  0  0  0  0  0  0  0  0  0
    2.5944    4.0661  -19.0334 H   0  0  0  0  0  0  0  0  0  0  0  0
  1  2  2  0  0  0  0
  1  4  1  0  0  0  0
  2  5  1  0  0  0  0
  3  5  2  0  0  0  0
  3  6  1  0  0  0  0
  4  6  2  0  0  0  0
  4 16  1  0  0  0  0
  5 21  1  0  0  0  0
  6 22  1  0  0  0  0
  7 18  2  0  0  0  0
  7 19  1  0  0  0  0
  7 23  1  0  0  0  0
  8 12  1  0  0  0  0
  8 14  1  0  0  0  0
  9 13  1  0  0  0  0
  9 15  1  0  0  0  0
 10 16  1  0  0  0  0
 10 20  1  0  0  0  0
 11 13  1  0  0  0  0
 11 23  1  0  0  0  0
 12 14  1  0  0  0  0
 12 15  1  0  0  0  0
 13 16  1  0  0  0  0
 14 17  1  0  0  0  0
 15 20  1  0  0  0  0
 16 18  1  0  0  0  0
  1 24  1  0  0  0  0
  2 25  1  0  0  0  0
  3 26  1  0  0  0  0
  8 27  1  0  0  0  0
  8 28  1  0  0  0  0
  9 29  1  0  0  0  0
  9 30  1  0  0  0  0
 10 31  1  0  0  0  0
 10 32  1  0  0  0  0
 11 33  1  0  0  0  0
 11 34  1  0  0  0  0
 12 35  1  0  0  0  0
 13 36  1  0  0  0  0
 14 37  1  0  0  0  0
 15 38  1  0  0  0  0
 17 39  1  0  0  0  0
 17 40  1  0  0  0  0
 17 41  1  0  0  0  0
 18 42  1  0  0  0  0
 19 43  1  0  0  0  0
 19 44  1  0  0  0  0
M  CHG  1  18   1
M  END
> <OMEGA_C>
8euXQM54yT72YqbB52WWQGYUer+4rKjBr1DWQPrjRL9EsbPBf6a4QCCdmj+OxarBoYK1QL04x7//
UK/BpSjYQEgPGz+bg7HBhAWSQBp/WkCc35fBrSHnQOMC80BPw7fBHazlQOeIl0DKw6PBYSWwQBzF
WEDWxbPBIRfpQH/2KEAqTpjB4ZXYQJmp10AvUK7BGSDjQBBVTUCJoKPBrgwCQUSH7EAa6q3BQ0Ta
QIgFqEB0AK/BViy4QKP1LUAawKjB7KAEQa+KB0HfbKXBQ1aSQFpNSUDmK6LBtBVZQLYOe0BWlJPB
o2CxQCh8mUD6iLLBz9azQGUMOMAchbHB1RL4QCpdqD+QLbbBWUS+QFVvS0ADQY/BB/Z/QGdBVT8Q
PqHBoIN6QAhNy780U6XBoTzuQC+inL8BwrjBP1fvQPbZ40Brb7/BrinYQFYmCUFuQ7nBK/zOQKK8
pEDQ5p3BGiwDQT6uoUCbsaHB/RjJQA+qREDKcrnBw5SQQCBzRUAM1LbBaxPpQHxMxT/PvZjB0/oD
QZwqP0BdHZXBK6u/QKuR5UAaKanB/1v9QNSxNEAKn6jB3eAPQYhG10APGa/ByW/zQL9JnkDeprTB
NJ4PQT/gAUGVKZ/B6C0LQdUaFkEdIKnBruXpQDQiC0HO2qHBOudsQBUIT0CpB6bBAwRWQOKxhEDE
yovBCwomQLEdgkBORJjBxEfYQMG7LD8W/bDBVJHYQOfvLr/2qbPB+yKXQJxlgL/NaanBqU63QCh9
nD8KgarBpPC3QBi4wr+M4q/BXmaWQL7utz4JsabBv9SRQPibW0BcwZfBXjbkQN+T90CDHLbBwCPm
QJUHl0CNzaPBnuaxQOxwV0AE4LPBlO3oQBwDKEARV5jBtjjVQCTe10CHmq3BXujiQFZ+TEClrKPB
+gP/QDsH70Ax+qvBTmfaQNKmqEDz+67BzIK3QAozL0DbnajB+Fr/QJKsBkF7caLBDp6SQJSNUECD
MKLBOM1XQPr+d0BMP5PBYZOyQL3smEAi9rLBNfi3QPUTNcDggrLBRO9qQGHqST+NkKDBYQS+QL5n
SUA4MY/BY4PxQICSqD+f5bPBms7xQHTQir8PnrjBoYJ8QCBL1L8dgabBNk/vQAX+60C98b3BYJnT
QLUrC0F5IbfBS//PQChepEBw1J3BDYsDQcGMoEDh0aHBZSvMQHpsQkBNHLnB+ySTQF/1QkABTrfB
3C7pQFxtwz/bzpjBWN0DQdOZPkCQJpXBDEq6QCh04kDtl6jBEa/8QDbnMkD9vajBASAOQboG3EAu
L63BHp30QNHioUACnLTBCVgKQYdPAEFVNZzBrXAFQdR9FkGzAqXBa7zeQNItCEH/OJ/B4xlwQPvf
X0CDN6bBRwpUQCTUgEBZWovBDs4kQJppgUA245fB

> <OMEGA_E>
iHOBPhCfjj4=

> <OMEGA_NBR>
    143090

$$$$
417139
  -OEChem-04172616093D

 45 48  0     1  0  0  0  0  0999 V2000
    4.7705    0.3955  -20.7085 C   0  0  0  0  0  0  0  0  0  0  0  0
    4.8178   -0.9912  -20.9114 C   0  0  0  0  0  0  0  0  0  0  0  0
    6.6353   -0.7102  -22.5079 C   0  0  0  0  0  0  0  0  0  0  0  0
    5.6574    1.2517  -21.4061 C   0  0  0  0  0  0  0  0  0  0  0  0
    5.7523   -1.5421  -21.8044 C   0  0  0  0  0  0  0  0  0  0  0  0
    6.5979    0.6778  -22.3195 C   0  0  0  0  0  0  0  0  0  0  0  0
    4.5374    3.4426  -18.9551 C   0  0  0  0  0  0  0  0  0  0  0  0
    6.1807    8.5612  -22.1866 C   0  0  0  0  0  0  0  0  0  0  0  0
    6.5222    7.4342  -21.2547 C   0  0  0  0  0  0  0  0  0  0  0  0
    7.2777    4.6412  -20.5633 C   0  0  0  0  0  0  0  0  0  0  0  0
    6.1457    7.8599  -23.5380 C   0  0  0  0  0  0  0  0  0  0  0  0
    5.3486    3.4857  -22.4743 C   0  0  0  0  0  0  0  0  0  0  0  0
    7.2164    2.6125  -19.0739 C   0  0  0  0  0  0  0  0  0  0  0  0
    7.0428    3.1456  -20.4997 C   0  0  1  0  0  0  0  0  0  0  0  0
    7.4242    6.5360  -22.1312 C   0  0  1  0  0  0  0  0  0  0  0  0
    7.0634    5.0757  -22.0108 C   0  0  2  0  0  0  0  0  0  0  0  0
    5.6508    2.7570  -21.1223 C   0  0  2  0  0  0  0  0  0  0  0  0
    4.5036    3.1784  -20.2449 N   0  3  0  0  0  0  0  0  0  0  0  0
    3.3548    3.8326  -18.3493 N   0  0  0  0  0  0  0  0  0  0  0  0
    7.2542    6.9464  -23.5054 O   0  0  0  0  0  0  0  0  0  0  0  0
    5.6851    4.8641  -22.3841 O   0  0  0  0  0  0  0  0  0  0  0  0
    5.8104   -2.8781  -21.9811 F   0  0  0  0  0  0  0  0  0  0  0  0
    7.4957    1.4228  -23.0131 F   0  0  0  0  0  0  0  0  0  0  0  0
    5.9790    3.3282  -17.9456 S   0  0  0  0  0  0  0  0  0  0  0  0
    4.0540    0.8129  -20.0167 H   0  0  0  0  0  0  0  0  0  0  0  0
    4.1346   -1.6371  -20.3800 H   0  0  0  0  0  0  0  0  0  0  0  0
    7.3466   -1.1408  -23.1972 H   0  0  0  0  0  0  0  0  0  0  0  0
    5.2031    9.0009  -21.9397 H   0  0  0  0  0  0  0  0  0  0  0  0
    6.9518    9.3454  -22.1638 H   0  0  0  0  0  0  0  0  0  0  0  0
    7.0648    7.8002  -20.3706 H   0  0  0  0  0  0  0  0  0  0  0  0
    5.6180    6.8964  -20.9334 H   0  0  0  0  0  0  0  0  0  0  0  0
    6.5665    5.1619  -19.9052 H   0  0  0  0  0  0  0  0  0  0  0  0
    8.3059    4.8740  -20.2492 H   0  0  0  0  0  0  0  0  0  0  0  0
    5.1986    7.3157  -23.6679 H   0  0  0  0  0  0  0  0  0  0  0  0
    6.2661    8.5865  -24.3550 H   0  0  0  0  0  0  0  0  0  0  0  0
    5.9406    3.0205  -23.2762 H   0  0  0  0  0  0  0  0  0  0  0  0
    4.2776    3.3891  -22.7059 H   0  0  0  0  0  0  0  0  0  0  0  0
    7.1021    1.5185  -19.0839 H   0  0  0  0  0  0  0  0  0  0  0  0
    8.2227    2.8727  -18.7139 H   0  0  0  0  0  0  0  0  0  0  0  0
    7.8125    2.6656  -21.1219 H   0  0  0  0  0  0  0  0  0  0  0  0
    8.4703    6.6767  -21.8215 H   0  0  0  0  0  0  0  0  0  0  0  0
    7.7252    4.4858  -22.6619 H   0  0  0  0  0  0  0  0  0  0  0  0
    3.6137    3.2682  -20.6922 H   0  0  0  0  0  0  0  0  0  0  0  0
    3.3384    4.0384  -17.3708 H   0  0  0  0  0  0  0  0  0  0  0  0
    2.5172    3.9085  -18.8903 H   0  0  0  0  0  0  0  0  0  0  0  0
  1  2  1  0  0  0  0
  1  4  2  0  0  0  0
  2  5  2  0  0  0  0
  3  5  1  0  0  0  0
  3  6  2  0  0  0  0
  4  6  1  0  0  0  0
  4 17  1  0  0  0  0
  5 22  1  0  0  0  0
  6 23  1  0  0  0  0
  7 18  2  0  0  0  0
  7 19  1  0  0  0  0
  7 24  1  0  0  0  0
  8  9  1  0  0  0  0
  8 11  1  0  0  0  0
  9 15  1  0  0  0  0
 10 14  1  0  0  0  0
 10 16  1  0  0  0  0
 11 20  1  0  0  0  0
 12 17  1  0  0  0  0
 12 21  1  0  0  0  0
 13 14  1  0  0  0  0
 13 24  1  0  0  0  0
 14 17  1  0  0  0  0
 15 16  1  0  0  0  0
 15 20  1  0  0  0  0
 16 21  1  0  0  0  0
 17 18  1  0  0  0  0
  1 25  1  0  0  0  0
  2 26  1  0  0  0  0
  3 27  1  0  0  0  0
  8 28  1  0  0  0  0
  8 29  1  0  0  0  0
  9 30  1  0  0  0  0
  9 31  1  0  0  0  0
 10 32  1  0  0  0  0
 10 33  1  0  0  0  0
 11 34  1  0  0  0  0
 11 35  1  0  0  0  0
 12 36  1  0  0  0  0
 12 37  1  0  0  0  0
 13 38  1  0  0  0  0
 13 39  1  0  0  0  0
 14 40  1  0  0  0  0
 15 41  1  0  0  0  0
 16 42  1  0  0  0  0
 18 43  1  0  0  0  0
 19 44  1  0  0  0  0
 19 45  1  0  0  0  0
M  CHG  1  18   1
M  END
> <OMEGA_C>
QqiYQJ57yj4Uq6XBvSuaQO6/fb9ySqfBrFTUQDTONb8rELTBmAm1QJk2oD+zP6vBoBK4QDhkxb+B
b67BQSLTQC6DLT9KjrLBVDKRQM9TXEDyo5fBkMjFQIH6CEElfrHBlbXQQArl7UCzCarBL+PoQA+F
lECZgaTBaanEQGqE+0DWTbzBBCirQGEWX0BSy7PBoezmQIgyJ0Bal5jBkV7hQGxRSUBv/6PB+5Lt
QNgm0UC9DLHB/AbiQIBsokALFrDBDdO0QGNzMEB5+qjBYB2QQFxrS0Cn9aHB3LRWQLVJdUBIy5LB
hiLoQMJI3kACC7zBWOy1QJ+mm0ChErPB2+65QEYyOMBS2a/BmtzvQIcdtj/jGrjBPVS/QOAAVUCl
kI/BK7qBQBscUD8nIqDBoE6EQNyN0b80CqPBaRfrQCEEkr/Nk7nBF4CmQJEDEEGBhK/BB3XeQI+G
FUF5T7HBihLiQNea+UAE96LBeMazQI6v3ECrd6fB9SDSQBIupUDEPZ/BAeUEQQ34m0BP/qHB2Vqm
QGIa6kDfV73ByoPIQHpiCUEV18LBnxm+QBlQQUCyNbrBduKIQMnnWECvpbXBHETjQPBcwj/Cq5jB
PZADQU7aN0AjtpXBCQD6QImYKkCr+ajBLIYHQden1UBlkq7BvTT3QJmLj0B+S7XB7kZnQCsqUUCq
iaXBFahVQG06gUBi94rByBkhQOckekBCH5fBQcnTQIKRPD+tOrLBKaXWQEQBIb9Ee7TBxqWbQHaO
hr/FOKjB+MG0QOOsnj9t8arBqoG6QErrwr8mfa/B1pyYQDasoz6J2KXBfSaRQN6zXUAnk5fBEZjC
QJTpCEHtzLDBK/DOQEI97UD7qanBoQvpQF9llEDHgaTBLpm/QPAe/EDErbvBNYKsQKgXXECGyrPB
txznQKIDJ0BBiZjBLGThQNbjSEAI9aPBAlvrQNiz0UC4ELHBuYrhQDKRokDwErDBnKC0QPoMMEC5
wajBQmSQQPysT0CQ9aHBn2BWQML0dUBSuZLBFEbjQFwR30Bc9bvB4Lm1QBV5mkABGLPB/kO9QFrb
NcCIpLHBp491QIg5Mz82n57B9Qy/QCo/U0Dnbo/BhorpQGghtj+wF7bBIGjuQD02fr/LCbrBgRGG
QEDe37+/baTB1qmjQCPSD0H0aK7B/TXbQBp+FUHQx7DBz/bgQD6D+ECJpqLBG5eyQARS20Ca/abB
+KvSQDAapUAXJp/B0w8FQdi0m0DRHaLBQTqhQNeW6kDncLzBxxrCQHnrCUGWJsLB/kPBQKm0PkAZ
4LnBn8yKQHRmU0CCFLbB/RPkQJXCwT+9oJjBcZQDQWLIOED+ppXBp8n5QPnSKUAo+ajBx40GQa5C
10BR/a7BaUn3QLaJkEApU7XB0HZpQAJYW0BgtaXB8L1UQMJ5gEBz2IrBMzMhQIZ4fECmGZfBKeOX
QHhm0D6EOKbBHfGVQG6vc79k7ajBV9XVQBCMNr8N6rPBAra4QE+UnT9fbKrBiai0QBjowL9h06/B
wzjYQFadJT8CSrHB1HCRQA7+WkB+gZfB32LtQMsM/UCUdaPBub8CQUlg7EC0PK3BXdLlQD/vmEBU
X6TBT8e9QBG9+kAho6bBLEuuQA6jV0DdmrPB+fvoQJC0LkDUBpjBV4/iQHY+UEAaeqPBf1/jQFtg
1ECWg7PBj4DeQLDtpEABVbDB/Yi3QNh1L0DUcqjBeNaRQDjiSkAY1aHBTOVWQLbqd0AKFZPBj4u8
QMEp7EDmlLHBrNGzQDOvmECwPLPBUUWyQILIM8C5krLBnTj4QCHfrj8h1bXBRQ++QNZwT0Dk+47B
ETqAQNAMVD+c5qDBa5F5QN9byb8QtKXBRaHtQO1lk78ZG7nBwbzzQOLH6EArcZzBtbv2QEodD0FC
raHBFlQJQYt8A0F2+LHBDsoPQSXE1kBY16rBL0DNQPsiqECfWJ/B8NsCQZGlo0CdyaHBVbmsQMYR
5EBkbaHBTfCuQCtGDUE8+qXBenjEQK9WPECghrnBQSmNQOsFSUDa8rXBFSXqQIm80D9oQpjBsMAD
QV6NR0DH7pTB6338QKQ6NUBxYKjBuoTrQNHb1UAwEbzB62j1QKlSkkDsILXBOAxsQG+gUUCNsqXB
ldRTQH3GgkB0RovBLB4jQMoof0BFspfBT1HWQLktKT9k/rHBt3LYQKglNr+0HbTBZsiaQNjJib8J
lajBWnq2QO1vmD+bFavBG9q6QKFKyr9ZWK/B3jeYQDDnmD5RZqbBQBiSQH+SW0B6FJjBqYfzQKZc
+0B5wrnBTOnGQE7u8UDn0bXBIwznQITNlECcfaPBYyUGQRdYAUGEVK/Boe+xQEECWUB07LPB/Ubo
QHQMIUCmwJjBI6PiQD4LSEC68aPBKtrPQMIN2UAUk6vBhLDYQPoLqkAxA67B9fS2QHnlLEBT86jB
cPeRQILQTEAxcKLBfKFaQNn1fUDLoJPBO7n1QEYO7EDs86bB/SmxQNxAmUDhK7LBdl29QBsIOsCO
M7HBhkFxQLnlND9ZwZ/BE9a9QPhNREAuhY/BkzntQF/TqT8QqrXB4MjwQAPFjL/7Z7nBAeSDQJJZ
4L9XB6XB+FcAQd8Z4EBJQL7BkAb0QKwPDEHx1L7BOyC1QLnJB0HqKbTB2vy0QAxt3kB3nbvBBCjT
QFwSoUD96JzBJmEEQYj7nEBq/6HBnIUWQbAo9kCIGLDB2sMGQROKEkG+eq3BtBDNQCE2SEB0H7nB
WOOTQLB7REDRuLfB8EXnQCi/tT+gaJnBNL4DQTrfNEAJhpXBPkD8QLr+LkDaGqnBHmi0QL7E20A6
G6bBS3byQLKCp0AA+bPB4S9tQO3wV0BtV6bBhr9XQNSMhEArwovBM2soQCjShUDLSJjBKN3TQDao
Hz9BQrHBxt/TQDjkRL/b2LLB5ByWQJober9WI6fBYdS0QFFvnz/GlqrB2/u0QCzSyL91xK3BBpiV
QLW30z46hqXBZAaSQAqwWkAE75fBA6YAQUR7+0BrS6DBSzkEQelQ8EAg/6vBw/vnQI0pmEBzUaTB
hH7RQFzNAkFO5p/By9OxQNv6XEB6P7TBa0XpQI4KKECi+ZjBXc3iQEDzTUCjQ6TBB4rdQH2l3EC8
lq/BIzveQHYIq0DslK/BB8u2QBRcMkDvDqnBPsKSQJR3VUCGdqLBf/JWQIQlb0B1E5PB+iC9QLvR
60C7GqjBYvO0QFJanEADULPBlca0QNgWOsBkQK/BCLFsQFrOZD/nHp/Bb8i+QAa4R0AvmY/Ba87r
QBR4nT/JKrXBn5zrQFqYnL/Q97fBlf98QGRXzL/eO6PBOJcEQSlB4EC5E5vBrj4KQVO4C0Gl753B
We4HQZCWBkFtrrDBNlERQdwL2UAN26zBgbjRQBIrpkBIeJ7ByoUEQfNGoECiFKLBI2/EQBhu/UDG
/JfBziXMQBnmE0F7gaHBfEfLQCqdRUBElLnBe22SQMYTTEAenrfBT5/pQCSiwz/8lpnBexYEQY5r
PkBB05XBzuX7QCdAM0BfdKnBAyXWQI/i50CDuLfBpWL3QBtJoEDEHrXBAAdyQJ/NakAkZabBQTxT
QOzHckA3GovBPgwjQLZEekDEi5fB

> <OMEGA_E>
FAjZPvQl6j406vA++Hz8PgAZBD8=

> <OMEGA_NBR>
    147325

$$$$
50322746
  -OEChem-04172616093D

 46 48  0     1  0  0  0  0  0999 V2000
    4.7944    0.3826  -20.6807 C   0  0  0  0  0  0  0  0  0  0  0  0
    4.8554   -1.0035  -20.8917 C   0  0  0  0  0  0  0  0  0  0  0  0
    6.6276   -0.6899  -22.5316 C   0  0  0  0  0  0  0  0  0  0  0  0
    5.6510    1.2559  -21.3967 C   0  0  0  0  0  0  0  0  0  0  0  0
    5.7711   -1.5376  -21.8142 C   0  0  0  0  0  0  0  0  0  0  0  0
    6.5807    0.6965  -22.3301 C   0  0  0  0  0  0  0  0  0  0  0  0
    4.5245    3.4342  -18.9319 C   0  0  0  0  0  0  0  0  0  0  0  0
    7.2646    4.6604  -20.5886 C   0  0  0  0  0  0  0  0  0  0  0  0
    5.3157    3.5001  -22.4625 C   0  0  0  0  0  0  0  0  0  0  0  0
    7.2081    2.6362  -19.0656 C   0  0  0  0  0  0  0  0  0  0  0  0
    7.0235    3.1612  -20.4937 C   0  0  1  0  0  0  0  0  0  0  0  0
    7.1085    5.0437  -22.0662 C   0  0  2  0  0  0  0  0  0  0  0  0
    5.6310    2.7651  -21.1094 C   0  0  2  0  0  0  0  0  0  0  0  0
    5.7882    7.5685  -20.8677 C   0  0  0  0  0  0  0  0  0  0  0  0
    5.7505    7.7847  -23.3917 C   0  0  0  0  0  0  0  0  0  0  0  0
    7.6467    6.4658  -22.3178 C   0  0  0  0  0  0  0  0  0  0  0  0
    6.6513    7.6429  -22.1471 C   0  0  0  0  0  0  0  0  0  0  0  0
    4.4845    3.1664  -20.2211 N   0  3  0  0  0  0  0  0  0  0  0  0
    3.3451    3.8261  -18.3207 N   0  0  0  0  0  0  0  0  0  0  0  0
    5.7263    4.8691  -22.4359 O   0  0  0  0  0  0  0  0  0  0  0  0
    5.8354   -2.8713  -22.0084 F   0  0  0  0  0  0  0  0  0  0  0  0
    7.4597    1.4562  -23.0314 F   0  0  0  0  0  0  0  0  0  0  0  0
    5.9738    3.3423  -17.9336 S   0  0  0  0  0  0  0  0  0  0  0  0
    4.0903    0.7865  -19.9683 H   0  0  0  0  0  0  0  0  0  0  0  0
    4.1970   -1.6613  -20.3437 H   0  0  0  0  0  0  0  0  0  0  0  0
    7.3261   -1.1068  -23.2420 H   0  0  0  0  0  0  0  0  0  0  0  0
    6.5274    5.2016  -19.9774 H   0  0  0  0  0  0  0  0  0  0  0  0
    8.2792    4.9033  -20.2399 H   0  0  0  0  0  0  0  0  0  0  0  0
    5.8457    2.9861  -23.2779 H   0  0  0  0  0  0  0  0  0  0  0  0
    4.2319    3.4578  -22.6456 H   0  0  0  0  0  0  0  0  0  0  0  0
    7.1037    1.5412  -19.0707 H   0  0  0  0  0  0  0  0  0  0  0  0
    8.2139    2.9070  -18.7121 H   0  0  0  0  0  0  0  0  0  0  0  0
    7.7885    2.6725  -21.1149 H   0  0  0  0  0  0  0  0  0  0  0  0
    7.7231    4.3482  -22.6565 H   0  0  0  0  0  0  0  0  0  0  0  0
    6.4422    7.4677  -19.9890 H   0  0  0  0  0  0  0  0  0  0  0  0
    5.1894    8.4866  -20.7756 H   0  0  0  0  0  0  0  0  0  0  0  0
    5.1182    6.6982  -20.9277 H   0  0  0  0  0  0  0  0  0  0  0  0
    6.3769    7.8365  -24.2944 H   0  0  0  0  0  0  0  0  0  0  0  0
    5.0803    6.9151  -23.4600 H   0  0  0  0  0  0  0  0  0  0  0  0
    5.1515    8.7035  -23.3079 H   0  0  0  0  0  0  0  0  0  0  0  0
    8.4791    6.6327  -21.6183 H   0  0  0  0  0  0  0  0  0  0  0  0
    8.0235    6.4987  -23.3507 H   0  0  0  0  0  0  0  0  0  0  0  0
    7.2512    8.5623  -22.0773 H   0  0  0  0  0  0  0  0  0  0  0  0
    3.5889    3.2380  -20.6602 H   0  0  0  0  0  0  0  0  0  0  0  0
    3.3363    4.0454  -17.3451 H   0  0  0  0  0  0  0  0  0  0  0  0
    2.5022    3.8899  -18.8551 H   0  0  0  0  0  0  0  0  0  0  0  0
  1  2  2  0  0  0  0
  1  4  1  0  0  0  0
  2  5  1  0  0  0  0
  3  5  2  0  0  0  0
  3  6  1  0  0  0  0
  4  6  2  0  0  0  0
  4 13  1  0  0  0  0
  5 21  1  0  0  0  0
  6 22  1  0  0  0  0
  7 18  2  0  0  0  0
  7 19  1  0  0  0  0
  7 23  1  0  0  0  0
  8 11  1  0  0  0  0
  8 12  1  0  0  0  0
  9 13  1  0  0  0  0
  9 20  1  0  0  0  0
 10 11  1  0  0  0  0
 10 23  1  0  0  0  0
 11 13  1  0  0  0  0
 12 16  1  0  0  0  0
 12 20  1  0  0  0  0
 13 18  1  0  0  0  0
 14 17  1  0  0  0  0
 15 17  1  0  0  0  0
 16 17  1  0  0  0  0
  1 24  1  0  0  0  0
  2 25  1  0  0  0  0
  3 26  1  0  0  0  0
  8 27  1  0  0  0  0
  8 28  1  0  0  0  0
  9 29  1  0  0  0  0
  9 30  1  0  0  0  0
 10 31  1  0  0  0  0
 10 32  1  0  0  0  0
 11 33  1  0  0  0  0
 12 34  1  0  0  0  0
 14 35  1  0  0  0  0
 14 36  1  0  0  0  0
 14 37  1  0  0  0  0
 15 38  1  0  0  0  0
 15 39  1  0  0  0  0
 15 40  1  0  0  0  0
 16 41  1  0  0  0  0
 16 42  1  0  0  0  0
 17 43  1  0  0  0  0
 18 44  1  0  0  0  0
 19 45  1  0  0  0  0
 19 46  1  0  0  0  0
M  CHG  1  18   1
M  END
> <OMEGA_C>
e2uZQIDqwz4kcqXBEV+bQD9xgL8gIqfBtRXUQPmaML+tQLTButS0QOS/oD+DLKvBEa24QODOxL+U
g67BsZTSQCZNMj/2o7LBtciQQDjKW0CPdJfBXnfoQOYhlUCMtaTBcRqqQAECYEAys7PBbKjmQAm4
KEBehpjBSsDgQM1RSkAb86PBpHjjQN9loUCFh7DBCjG0QLX3MEAj4KjB/zi5QAAx8kAH8abBzQO4
QEQc+UAhIrvBpLH0QN3nzkDFirLBf9fUQPWS9EBDLbHB+oCPQA2mSkDlxKHBiBVWQE7fdEDdkJLB
gj23QI7Pm0DPfLPB5Lu6QHDDN8BEEbDBBrbuQJBluj9QQLjBhCm/QPnoVUAWeI/BiuOCQGNaST8h
v5/BtE2GQPGj1L/rv6LBtm/qQCmsjb+T77nBLuDQQMBzpkDH0Z/BancEQafnnEBP66HBOhC7QMkb
P0AZObrBx2uHQAtMXUBAKrXBJVHjQGNGxT/lkJjBM2wDQVwMOkB7spXBmjv5QF4KK0A766jBcSP3
QFAki0CcQLXBMibOQDT37kBf6Z/Biw+mQBvJB0FaNKbB68ejQHtX1kDwa6fBdw/MQPLE+kDnWsLB
qpGiQJtI3UAgrrvBStmkQKtBC0GKdrrBTaoHQXY/1EBD8qzBT2AAQTP1z0AvzrrBGAroQCv/CEFX
nrDBJLBlQD87T0ADSKXBpYZVQLZzgUDGworBFSQgQF/zeEAz15bBabaZQH4usj7lpqXBrqCcQPzP
hb/3l6bBnIHVQGw+TL+nwLPBadm0QNTzmD9cvKvBMqS6QPoCz788la3BFuDSQJyFGT+f6bLBQKOR
QASpWECFTpjBRvrnQOrkkkADnqPBiMOtQCEyYEAS9bPBWCnnQC47HEBqU5nBqYvhQAk3RUAMYaTB
uUHdQMD/p0AaPq7BI1S1QAsdLUDYfqnBukqiQLhl+0CkXbXBfZ3gQICG4UAntsDB3GfiQBhK2EBN
aKzB5SvTQAZD9EAnx7XBnFKQQGqZR0C7mKLBXfNbQGfQfkBUxJPB8GWyQACpnEBnkbHBPsa9QOlp
PcB0Wa7B7pDuQKXHqj8h1rjBTMS9QMWoQEBC74/BR5mCQPYXSD/tPqDBFcOHQB8E17/276HBKk/s
QAtVn7/tK7nBqO7SQOTdn0BgWp3BacQEQUKomUA1kaHB+mzFQOwfTUBKBbrBMlSNQISYU0Dk/bbB
MxHlQPuDrD+iI5rBZ2YDQduvLUApJZbBxqj6QKJxK0AIo6nBNpb0QLmZnUAyTLTB6GmZQOVcBEF/
h63B/dqYQA7vCEEkt7vBMsmRQHWt3EDUj7bBU70BQc2y3EAO1sDB+23QQDKswkBF98HBxn/XQNnc
90CUHsfBW9vPQGof4UAHQ6XBTkACQaQA30C4AavBkpjiQDneCUHY97TBMK5nQHvHTEBlL6bBsipb
QO0QhkBS8YvBqkApQIGEhkB5UJjBASHSQFTzPz/hfbLBrcbVQOqYHr/4jbTBhvGcQNAxh7+8t6fB
37KzQMUQoD/iCKvB40W7QNwCw7+OI6/BQOeYQIGqoz7flqXBX+WQQHRKXUAIeZfBtOboQAKblECM
v6TBZnGrQHBcXkCN2LPBz6TmQP4XJ0ClsJjBKZ7gQHI2SUBhF6TB01njQKfXoUBYfbDBg6izQMci
MUCe1KjBfq23QBLw8ECkTabBx8W0QPkB+UCccrrB10nzQNz7z0DeQ7LBiHjSQKWt9EDWpLDBl7KP
QPMwUED64aHBZg9WQKLYc0CEcpLBTEu3QAhXm0AAgbPBtSe/QJIsNsBkBrHBpvN2QMalMT+LPp7B
416/QDqMVEAZhY/BKdXmQA6EuD+2pLbBmunsQNt2er+CS7rBWoqIQNda4b//m6PBxtvRQILtpUDK
sp/BQdIEQZTIm0CwD6LBDWa+QLMGPkD/D7rB7zmJQM+DWUAR0rXBnBPjQEAewj8ixZjBDHkDQa/l
N0D+5JXBxK34QPaKKUBHJqnBtpj3QIiZjEB8WbXBqy/NQGLf7UAkYZ/BEcijQAjeBkHXXqXB/vei
QM+K1ECMy6bBOjbIQMGk+0AgwcHB/w2gQP2i3EAxALvBE96gQCDqCkF7k7nBy/MGQWaI1UAIrazB
Ux7/QFIb0kBGibrB+eDkQJpLCUGVD7DBHcNnQF43XEBpiqXBo0lVQMKVfkC0j4rBDCogQLVjeUCi
tJbByxzUQNSPKT9/m7LBKS/YQGrCN786OLTBr3WdQH3Djb9o0qfBS/K0QDOnlz+aeKvBySe9QEMj
zb9fu67BKA6ZQI5XjD6lHqbB7NiRQDQPW0AHNZjBTnXnQC0gk0B+c6PBzluwQHY3XEDK+7PBkVzn
QDS+HEBgIJnBNb7hQDhCRUDrN6TBG8faQGKAqUDa1a3BSZu1QOicLECkOanBytOyQM9I7kCZb7zB
EqgBQf1N80Aqn7rBNYbXQOQw2UBd9qrBzDTYQAkG90BAsLTBzvGQQNbBS0BGjaLBcWVbQFwbf0AD
pJPBF9exQJfxmkC+2bHBV+DBQOjKO8B+A7DBVcl0QMCiKz8yK5/BBZi9QE77QED9wo/BfP3oQEN6
qz8E27bBtw7wQK+4jL+dq7nBcEeIQFnM5b+tx6PBuk/TQJlZn0AH6pzBRJ4EQUY2mkDCuKHBh3rK
QLhuSkCfcrnB5HSRQJlyS0Cbo7fBV4rlQPprrT+s5pnBF3IDQVjKLkAP7pXBbPT6QMnoK0CZeqnB
3gH0QGnmpEDz3LPBhU+UQPEJ8UC+GrjBgZezQJHhAkFi/cLBSem1QErQzUCrvr/BOdYOQaab+UDC
AbXBZlUDQcjZ0kCs7L3BgiwCQVFmBUFjK8HBa2K5QIhf3kDlmqbB1a7yQOB34UC3wqXBahjVQH0N
DEHCyLHBwFZqQJ7cVUCRUabB3l9ZQDfthEAgwovB9DopQMIwh0APOpjBYMiXQHd6yz5Ed6bBHcCV
QKtfeb8krajBykjWQMzETb+FgbPBwRy5QOXMmD8Ly6rBMOu0QIRVyb93MK/BXKvYQERnEj9jZLHB
GFOSQGHaWUDFF5jBVu/kQBlol0B5PaPB9a+zQFH9V0Dn4rPBMF7pQNsGJkADYpjBRo3jQGGtTECx
m6PBaFTWQLLYq0Bf/q3B0je5QMkoLUCx2KjBFi78QKOa+0DGvLnB7TMLQXuq70Dn16bBDgDKQHkN
20BLO6zB5jfvQBlg+kBd1a3BSAWTQEmgSUAXbKLB5M9aQOmsfUC85JPBy0ewQBCrmEACSLLBl8Ky
QBsoOcBpVbHByDj5QOCXoT9R87XB5a29QNJCRUBzUo/BGo9/QPguWj8bbaHBz1x4QGMlyb/uXaXB
0zruQM32or8oerjB1aPPQD6ZokDn0JzB2/UCQaSioUDEiaHBAZbPQEHgSUA99LjB2ISWQInRP0Dj
xrfBpvrpQJCuvz8wDZnB3PIDQamVPEDjB5XBoj7+QKOXNkAHo6jB2MPwQDUNqkBzybPBYADgQC+i
AUGkpr7BInAKQYgcCkEY8LrBkXUEQSYy3EDxHLzBj2gGQSDf7kDlYJ7BRpsRQfc50EBeK6nB15UX
QXEgBEGF/qfBw3KwQINe40B36rHB6gi+QOub3kDnAKTBgwTkQHZCDUGnl6vBxvduQBzqUED3ZKbB
2GJXQBGihUBzFozB6PIoQBb4hEAnq5jBwJ7YQPLsJj/1WbHB0gnZQB4ZNb/xALTBdaSYQCqZhb9U
YanBsQO4QAmLmD+uuKrBmwm5QEf2xr8ZA7DBLrOXQA59oz5qs6bB7RqSQIw9W0DTApjBVJnlQBd4
lkCfQKPBv2W0QALfVkB127PB3NnoQJoCJEB6ZZjBbiHjQLC8SkCCn6PBgBDWQNS/q0Dw2q3BDUq4
QDwTLUBAt6jBNgL4QBRx/kC2IbnBISEKQXpS8EBsfqbB7CXIQJ5R2kD/sqvBCjbsQBAE+0AMLa3B
5NWSQB57TUAjZaLBRiNaQEaZfUAHsZPBDLWwQD4mmED2ZbLB4mS5QEZkN8DVirLBVI9uQCjRPD//
WaDBhFG9QErkQ0ArSY/BunPxQClopj/9Y7TBXufxQIkjjb+FGrnBdT2AQHpQ2r+IUKbB8WrRQBb7
oUBCpJzBzYEDQRzpn0Amz6HBOAvRQFZoSEAPpLjBitiXQEVIPkBS/LfB4C7pQAajuz9REZnBe78D
QZkVOkBYD5XBFGP9QFFtM0BntajBpZTwQBi7q0CNpLPBpC3bQLIJA0FPzr3BUfUHQWHzC0GPOrrB
a60CQdfJ30CS4rvBWbUFQSb57UAL/53BJNkQQY2f0UDdL6nBCyEWQTzeBEHZh6fBVwuuQBtr4kCg
PrHBjnu8QPV83EAMaqPBx0PgQIE2DUGajqrB5t9vQN/CWUCecqbB6VFWQPNUhECS04vBAX0oQM6q
hUBLcJjB

> <OMEGA_E>
MNusPqgSsz7gxL0+xPfBPriRxD58DtQ+

> <OMEGA_NBR>
    152435

$$$$
50322750
  -OEChem-04172616093D

 37 39  0     1  0  0  0  0  0999 V2000
    4.6800    0.4888  -20.6771 C   0  0  0  0  0  0  0  0  0  0  0  0
    4.6189   -0.9042  -20.8428 C   0  0  0  0  0  0  0  0  0  0  0  0
    6.5438   -0.8173  -22.3263 C   0  0  0  0  0  0  0  0  0  0  0  0
    5.6804    1.2588  -21.3320 C   0  0  0  0  0  0  0  0  0  0  0  0
    5.5474   -1.5567  -21.6688 C   0  0  0  0  0  0  0  0  0  0  0  0
    6.6225    0.5774  -22.1614 C   0  0  0  0  0  0  0  0  0  0  0  0
    4.5661    3.3887  -18.9972 C   0  0  0  0  0  0  0  0  0  0  0  0
    7.2205    4.8008  -20.5245 C   0  0  0  0  0  0  0  0  0  0  0  0
    5.5365    3.4774  -22.5240 C   0  0  0  0  0  0  0  0  0  0  0  0
    7.2998    2.6597  -19.1209 C   0  0  0  0  0  0  0  0  0  0  0  0
    7.0971    3.2581  -20.5216 C   0  0  1  0  0  0  0  0  0  0  0  0
    6.9600    5.3331  -21.9480 C   0  0  2  0  0  0  0  0  0  0  0  0
    5.7355    2.7960  -21.1392 C   0  0  2  0  0  0  0  0  0  0  0  0
    7.0085    6.8636  -21.9531 C   0  0  0  0  0  0  0  0  0  0  0  0
    4.5854    3.2851  -20.3096 N   0  3  0  0  0  0  0  0  0  0  0  0
    3.3632    3.7234  -18.3972 N   0  0  0  0  0  0  0  0  0  0  0  0
    5.6582    4.9056  -22.4005 O   0  0  0  0  0  0  0  0  0  0  0  0
    5.4863   -2.8969  -21.8268 F   0  0  0  0  0  0  0  0  0  0  0  0
    7.6176    1.2281  -22.8092 F   0  0  0  0  0  0  0  0  0  0  0  0
    5.9811    3.1738  -17.9582 S   0  0  0  0  0  0  0  0  0  0  0  0
    3.9575    0.9822  -20.0439 H   0  0  0  0  0  0  0  0  0  0  0  0
    3.8562   -1.4746  -20.3337 H   0  0  0  0  0  0  0  0  0  0  0  0
    7.2547   -1.3229  -22.9631 H   0  0  0  0  0  0  0  0  0  0  0  0
    6.4815    5.2294  -19.8316 H   0  0  0  0  0  0  0  0  0  0  0  0
    8.2329    5.0886  -20.2048 H   0  0  0  0  0  0  0  0  0  0  0  0
    6.3005    3.1074  -23.2235 H   0  0  0  0  0  0  0  0  0  0  0  0
    4.5362    3.2306  -22.9093 H   0  0  0  0  0  0  0  0  0  0  0  0
    7.2961    1.5625  -19.1994 H   0  0  0  0  0  0  0  0  0  0  0  0
    8.2706    2.9959  -18.7280 H   0  0  0  0  0  0  0  0  0  0  0  0
    7.8959    2.8644  -21.1672 H   0  0  0  0  0  0  0  0  0  0  0  0
    7.7411    4.9480  -22.6200 H   0  0  0  0  0  0  0  0  0  0  0  0
    6.8217    7.2335  -22.9720 H   0  0  0  0  0  0  0  0  0  0  0  0
    6.2383    7.2569  -21.2733 H   0  0  0  0  0  0  0  0  0  0  0  0
    8.0005    7.2000  -21.6171 H   0  0  0  0  0  0  0  0  0  0  0  0
    3.7568    3.5576  -20.7986 H   0  0  0  0  0  0  0  0  0  0  0  0
    3.3138    3.8363  -17.4048 H   0  0  0  0  0  0  0  0  0  0  0  0
    2.5443    3.8520  -18.9564 H   0  0  0  0  0  0  0  0  0  0  0  0
  1  2  2  0  0  0  0
  1  4  1  0  0  0  0
  2  5  1  0  0  0  0
  3  5  2  0  0  0  0
  3  6  1  0  0  0  0
  4  6  2  0  0  0  0
  4 13  1  0  0  0  0
  5 18  1  0  0  0  0
  6 19  1  0  0  0  0
  7 15  2  0  0  0  0
  7 16  1  0  0  0  0
  7 20  1  0  0  0  0
  8 11  1  0  0  0  0
  8 12  1  0  0  0  0
  9 13  1  0  0  0  0
  9 17  1  0  0  0  0
 10 11  1  0  0  0  0
 10 20  1  0  0  0  0
 11 13  1  0  0  0  0
 12 14  1  0  0  0  0
 12 17  1  0  0  0  0
 13 15  1  0  0  0  0
  1 21  1  0  0  0  0
  2 22  1  0  0  0  0
  3 23  1  0  0  0  0
  8 24  1  0  0  0  0
  8 25  1  0  0  0  0
  9 26  1  0  0  0  0
  9 27  1  0  0  0  0
 10 28  1  0  0  0  0
 10 29  1  0  0  0  0
 11 30  1  0  0  0  0
 12 31  1  0  0  0  0
 14 32  1  0  0  0  0
 14 33  1  0  0  0  0
 14 34  1  0  0  0  0
 15 35  1  0  0  0  0
 16 36  1  0  0  0  0
 16 37  1  0  0  0  0
M  CHG  1  15   1
M  END
> <OMEGA_C>
e8KVQC1J+j6+aqXBPs6TQDR6Z78BvqbB92bRQOY4Ub9WnLLB58W1QFIfoT8DqKrBp4SxQLBBx7/B
Wa3BkOvTQA/SEz+hSrHBUR2SQOHfWEBL+pfBpw7nQGygmUA9MqTB1SqxQGOOXkANMbTBq5fpQHI4
KkCG95jBlBvjQIWFUEAqLKTBnrjeQJOoqkCHla/BbIm3QC7xMkAaHanBuEXgQFqi20Dbn6/BrbuS
QKA+UkAXeqLBCj9XQJ5LbkB/LZPB9Q+1QMT6nEBRNLPBvI+vQE9mOcBEna7Bq8PzQKcznT8xebbB
TmW/QKofS0Bzqo/BEEh9QAhyez/PWaDBLMt2QAfBvL9fq6LBKCboQPhVqb9YtLfBeGjPQC5Xp0Aa
p57BKboDQWjVokBho6HBdp3JQGrfRkC8ybnBWyiRQCTCTkArRrfBvHnpQFwAyD9xmJnBiFQEQWa9
P0Ds0pXBa6v8QL5SN0B+VqnBWrf3QNdVnkDK9bTBOkvaQNl450CnxrfBEqDHQLs46EDGL6rB4gEA
QT1m5kDT76zBGG9wQGywY0B5Y6bBFBZUQEWGdUAePYvBJNUiQKmHdkDPppfBNjrUQC92KD+sNrHB
qwnVQCUBOr/eCLPBfGuWQGzrfb+Ps6fBKIa0QCUroD9ql6rBWUG2QCG6xr+PO67B4wSVQBC0yj4y
36XBauuRQLYRXEB61JfBAtrnQCJ3mEAYYqTB/r+wQP0RXUBsGrTBEMPoQBVDKUAl6ZjB5GviQBtj
TkDdL6TB52zfQDRjqUB+xa/B3jC2QHGTMkBG7qjBosfhQKZd2kDL3a/BTTWSQG8VVUBzU6LB4X5W
QBAXb0Bc9pLBJne1QOA+nEChTLPBZCC3QOC9OMCT6q/Bc5ppQCjSWT8Qo5/B+ou/QG0DT0DAnI/B
lSnsQLNvpD/C6rTBz1btQBDyk7/oILjB0oF9QE3x0L/TCqTB0PHQQLsep0Coy57ByFMEQVjHoEDw
9aHBKjjJQCS/Q0CLlLnBtryQQDAWTkAgP7fBFUjnQKwIxj+bXJnB+iwEQXrhPECu5pXB6GT7QGIM
M0DCXKnBlxL4QN2VnECFLbXBo7vbQOoq5kCeBLjB4ITJQOFx50CCZKrB4OMAQdCm5ED2QK3BExJw
QPOWaEDfOqbBd1RTQD8VdUDgAYvBMtQhQPHTdkBNZ5fB

> <OMEGA_E>
YNIxPuAZWD4=

> <OMEGA_NBR>
    154069

$$$$
50322748
  -OEChem-04172616093D

 40 42  0     1  0  0  0  0  0999 V2000
    4.7051    0.4593  -20.6799 C   0  0  0  0  0  0  0  0  0  0  0  0
    4.6878   -0.9376  -20.8125 C   0  0  0  0  0  0  0  0  0  0  0  0
    6.5719   -0.8211  -22.3474 C   0  0  0  0  0  0  0  0  0  0  0  0
    5.6636    1.2437  -21.3766 C   0  0  0  0  0  0  0  0  0  0  0  0
    5.6202   -1.5770  -21.6447 C   0  0  0  0  0  0  0  0  0  0  0  0
    6.6036    0.5780  -22.2205 C   0  0  0  0  0  0  0  0  0  0  0  0
    4.5688    3.3922  -19.0141 C   0  0  0  0  0  0  0  0  0  0  0  0
    7.2483    4.7223  -20.4984 C   0  0  0  0  0  0  0  0  0  0  0  0
    5.5181    3.4896  -22.5238 C   0  0  0  0  0  0  0  0  0  0  0  0
    7.2790    2.5762  -19.1444 C   0  0  0  0  0  0  0  0  0  0  0  0
    7.0920    3.1923  -20.5381 C   0  0  1  0  0  0  0  0  0  0  0  0
    6.9443    5.3195  -21.8778 C   0  0  2  0  0  0  0  0  0  0  0  0
    5.7200    2.7719  -21.1618 C   0  0  2  0  0  0  0  0  0  0  0  0
    6.7350    7.4972  -23.1113 C   0  0  0  0  0  0  0  0  0  0  0  0
    6.9828    6.8437  -21.7508 C   0  0  0  0  0  0  0  0  0  0  0  0
    4.5732    3.2544  -20.3229 N   0  3  0  0  0  0  0  0  0  0  0  0
    3.3802    3.7778  -18.4162 N   0  0  0  0  0  0  0  0  0  0  0  0
    5.6355    4.9070  -22.3357 O   0  0  0  0  0  0  0  0  0  0  0  0
    5.6041   -2.9214  -21.7680 F   0  0  0  0  0  0  0  0  0  0  0  0
    7.5590    1.2463  -22.9096 F   0  0  0  0  0  0  0  0  0  0  0  0
    5.9832    3.1449  -17.9786 S   0  0  0  0  0  0  0  0  0  0  0  0
    3.9817    0.9438  -20.0409 H   0  0  0  0  0  0  0  0  0  0  0  0
    3.9563   -1.5215  -20.2737 H   0  0  0  0  0  0  0  0  0  0  0  0
    7.2841   -1.3180  -22.9895 H   0  0  0  0  0  0  0  0  0  0  0  0
    6.5493    5.1402  -19.7590 H   0  0  0  0  0  0  0  0  0  0  0  0
    8.2798    4.9752  -20.2118 H   0  0  0  0  0  0  0  0  0  0  0  0
    6.2844    3.1488  -23.2357 H   0  0  0  0  0  0  0  0  0  0  0  0
    4.5193    3.2530  -22.9192 H   0  0  0  0  0  0  0  0  0  0  0  0
    7.2283    1.4806  -19.2283 H   0  0  0  0  0  0  0  0  0  0  0  0
    8.2647    2.8688  -18.7536 H   0  0  0  0  0  0  0  0  0  0  0  0
    7.8840    2.7931  -21.1889 H   0  0  0  0  0  0  0  0  0  0  0  0
    7.7182    4.9962  -22.5896 H   0  0  0  0  0  0  0  0  0  0  0  0
    6.7656    8.5915  -23.0040 H   0  0  0  0  0  0  0  0  0  0  0  0
    7.5134    7.1763  -23.8192 H   0  0  0  0  0  0  0  0  0  0  0  0
    5.7477    7.1934  -23.4894 H   0  0  0  0  0  0  0  0  0  0  0  0
    6.2041    7.1687  -21.0451 H   0  0  0  0  0  0  0  0  0  0  0  0
    7.9697    7.1516  -21.3750 H   0  0  0  0  0  0  0  0  0  0  0  0
    3.7307    3.4944  -20.8051 H   0  0  0  0  0  0  0  0  0  0  0  0
    3.3383    3.9088  -17.4257 H   0  0  0  0  0  0  0  0  0  0  0  0
    2.5641    3.9251  -18.9750 H   0  0  0  0  0  0  0  0  0  0  0  0
  1  2  2  0  0  0  0
  1  4  1  0  0  0  0
  2  5  1  0  0  0  0
  3  5  2  0  0  0  0
  3  6  1  0  0  0  0
  4  6  2  0  0  0  0
  4 13  1  0  0  0  0
  5 19  1  0  0  0  0
  6 20  1  0  0  0  0
  7 16  2  0  0  0  0
  7 17  1  0  0  0  0
  7 21  1  0  0  0  0
  8 11  1  0  0  0  0
  8 12  1  0  0  0  0
  9 13  1  0  0  0  0
  9 18  1  0  0  0  0
 10 11  1  0  0  0  0
 10 21  1  0  0  0  0
 11 13  1  0  0  0  0
 12 15  1  0  0  0  0
 12 18  1  0  0  0  0
 13 16  1  0  0  0  0
 14 15  1  0  0  0  0
  1 22  1  0  0  0  0
  2 23  1  0  0  0  0
  3 24  1  0  0  0  0
  8 25  1  0  0  0  0
  8 26  1  0  0  0  0
  9 27  1  0  0  0  0
  9 28  1  0  0  0  0
 10 29  1  0  0  0  0
 10 30  1  0  0  0  0
 11 31  1  0  0  0  0
 12 32  1  0  0  0  0
 14 33  1  0  0  0  0
 14 34  1  0  0  0  0
 14 35  1  0  0  0  0
 15 36  1  0  0  0  0
 15 37  1  0  0  0  0
 16 38  1  0  0  0  0
 17 39  1  0  0  0  0
 17 40  1  0  0  0  0
M  CHG  1  16   1
M  END
> <OMEGA_C>
TZCWQIgj6z5jcKXB2gKWQAEFcL8XgKbBKE3SQOUzUr98x7LBcTy1QKQxnz9hA6vBc9izQBTbyb9b
KK3BtFDTQKH0Ez+Zw7HBXjOSQAwZWUDsHJjBQvLnQLQcl0DG/KPBmZSwQNZUX0DXMLTBL+3oQIzg
JEC2J5nBy/HiQHBPTEAfTqTB+zfeQHc5qkC3Ba/Bewq3QE1nMUBOS6nBG4XXQLXo70Dg47jBTXPf
QNP/2kCbAa7BnVeSQGlHUEBalaLBWVVYQPDGcUBaVJPBUVa0QMEFnUCZr7LBoVSzQML3OsDaJK7B
eePxQLiHnz/wRrfBK3a/QJNGSUAX1I/BjtN+QK+ZcT/IU6DBUTR9QKy/wr+WMKLBkBfpQB20qL9z
6rfBOZTRQK58pEB0Ep7B83kEQbI0n0DTsaHBrRnJQH2FSUC44rnB352QQIswUEB7WrfBA07nQKWD
vT+C05nBGjwEQbWaN0BUB5bBZUn8QAfCMkDFgqnBSPv2QLTgn0Bvt7TBCYDYQL52CUFJCLjBcm3w
QECk5UDGjb7BHe23QF0w5kA+6rvByIfGQK1l5UBmXKjBHAj/QJDZ5EDu/6rBDMNuQHakX0DccKbB
TqZVQAUqekDVZ4vBqRokQLQ0e0DdzJfB7onTQP14Jz+3o7HBDlfVQI7PO79rMrPBGACYQFSzgb9z
cafBKCG0QMOdnj+w4qrBx6y3QOGnyL/ADq7B0M+VQBaZwD7yzqXBngmSQBrMW0DI+pfB9l7oQFhX
lkDQHKTBN9GwQFySXUCtJbTBiVjoQLBsJEDtG5nBmVriQKLoSkATT6TBV43eQMClqUALIa/Be/K1
QJZQMUDfGqnBaVbWQMIe8EB2rLjBlHHfQIxw2kBr8q3B5AaSQK7MU0CJdqLBqJBXQALscUB2HZPB
fNK0QMNKnED+4bLBrH65QKzoOcDoe6/BoYVsQFn1Uj/rVJ/BuXy/QDqAS0Ccwo/BxG/qQEENpT9b
pbXBLobtQDlolL8PWLjBehSBQKCP1L8bkqPB0pXSQPtMpEBuJZ7Bg9MEQR7EnUDy7aHBBM/JQEhb
RkB1n7nBRh6RQCVsTkDBeLfBSwfmQBOhvD9oqJnBDhUEQUZDNkDNE5bBCTT7QKfWL0AHi6nBbYL3
QPLDn0Bi0rTBJyDXQECJCUFkprfBkcnuQDqA5kCkh77BwYu2QLpg5kC1j7vBC/nGQLc95EB9HajB
2zb/QDdd5EBsFavByENvQKVzZkC/VqbBGLFUQP5LeEC5KYvB7jIjQE2Fe0AYjpfB

> <OMEGA_E>
ELaGPoDTmD4=

> <OMEGA_NBR>
    155787

$$$$
50322747
  -OEChem-04172616093D

 41 44  0     1  0  0  0  0  0999 V2000
    4.7177    0.4595  -20.6573 C   0  0  0  0  0  0  0  0  0  0  0  0
    4.7119   -0.9356  -20.8103 C   0  0  0  0  0  0  0  0  0  0  0  0
    6.5590   -0.7791  -22.3868 C   0  0  0  0  0  0  0  0  0  0  0  0
    5.6485    1.2618  -21.3687 C   0  0  0  0  0  0  0  0  0  0  0  0
    5.6299   -1.5534  -21.6750 C   0  0  0  0  0  0  0  0  0  0  0  0
    6.5793    0.6171  -22.2406 C   0  0  0  0  0  0  0  0  0  0  0  0
    4.5535    3.4093  -18.9856 C   0  0  0  0  0  0  0  0  0  0  0  0
    6.6396    7.5652  -23.0798 C   0  0  0  0  0  0  0  0  0  0  0  0
    6.1885    7.6589  -21.6078 C   0  0  0  0  0  0  0  0  0  0  0  0
    7.2670    4.7177  -20.5584 C   0  0  0  0  0  0  0  0  0  0  0  0
    5.4454    3.4967  -22.5130 C   0  0  0  0  0  0  0  0  0  0  0  0
    7.2576    2.6231  -19.1211 C   0  0  0  0  0  0  0  0  0  0  0  0
    7.3142    6.7075  -22.0135 C   0  0  0  0  0  0  0  0  0  0  0  0
    7.0704    3.1981  -20.5310 C   0  0  1  0  0  0  0  0  0  0  0  0
    7.0490    5.2075  -21.9905 C   0  0  2  0  0  0  0  0  0  0  0  0
    5.6882    2.7870  -21.1457 C   0  0  2  0  0  0  0  0  0  0  0  0
    4.5475    3.2617  -20.2937 N   0  3  0  0  0  0  0  0  0  0  0  0
    3.3570    3.7445  -18.3744 N   0  0  0  0  0  0  0  0  0  0  0  0
    5.6922    4.9021  -22.3928 O   0  0  0  0  0  0  0  0  0  0  0  0
    5.6223   -2.8953  -21.8209 F   0  0  0  0  0  0  0  0  0  0  0  0
    7.5156    1.3024  -22.9408 F   0  0  0  0  0  0  0  0  0  0  0  0
    5.9896    3.2541  -17.9687 S   0  0  0  0  0  0  0  0  0  0  0  0
    4.0072    0.9274  -19.9920 H   0  0  0  0  0  0  0  0  0  0  0  0
    4.0003   -1.5351  -20.2620 H   0  0  0  0  0  0  0  0  0  0  0  0
    7.2622   -1.2598  -23.0507 H   0  0  0  0  0  0  0  0  0  0  0  0
    5.9830    7.0976  -23.8283 H   0  0  0  0  0  0  0  0  0  0  0  0
    7.1867    8.3999  -23.5423 H   0  0  0  0  0  0  0  0  0  0  0  0
    6.4139    8.5600  -21.0185 H   0  0  0  0  0  0  0  0  0  0  0  0
    5.2102    7.2577  -21.3045 H   0  0  0  0  0  0  0  0  0  0  0  0
    6.5403    5.1983  -19.8869 H   0  0  0  0  0  0  0  0  0  0  0  0
    8.2877    4.9661  -20.2323 H   0  0  0  0  0  0  0  0  0  0  0  0
    6.1235    3.0723  -23.2680 H   0  0  0  0  0  0  0  0  0  0  0  0
    4.4028    3.3366  -22.8252 H   0  0  0  0  0  0  0  0  0  0  0  0
    7.1832    1.5266  -19.1692 H   0  0  0  0  0  0  0  0  0  0  0  0
    8.2528    2.9070  -18.7482 H   0  0  0  0  0  0  0  0  0  0  0  0
    8.3285    7.0181  -21.7224 H   0  0  0  0  0  0  0  0  0  0  0  0
    7.8489    2.7560  -21.1702 H   0  0  0  0  0  0  0  0  0  0  0  0
    7.7653    4.7037  -22.6562 H   0  0  0  0  0  0  0  0  0  0  0  0
    3.6967    3.4888  -20.7676 H   0  0  0  0  0  0  0  0  0  0  0  0
    3.3244    3.8908  -17.3857 H   0  0  0  0  0  0  0  0  0  0  0  0
    2.5256    3.8402  -18.9218 H   0  0  0  0  0  0  0  0  0  0  0  0
  1  2  1  0  0  0  0
  1  4  2  0  0  0  0
  2  5  2  0  0  0  0
  3  5  1  0  0  0  0
  3  6  2  0  0  0  0
  4  6  1  0  0  0  0
  4 16  1  0  0  0  0
  5 20  1  0  0  0  0
  6 21  1  0  0  0  0
  7 17  2  0  0  0  0
  7 18  1  0  0  0  0
  7 22  1  0  0  0  0
  8  9  1  0  0  0  0
  8 13  1  0  0  0  0
  9 13  1  0  0  0  0
 10 14  1  0  0  0  0
 10 15  1  0  0  0  0
 11 16  1  0  0  0  0
 11 19  1  0  0  0  0
 12 14  1  0  0  0  0
 12 22  1  0  0  0  0
 13 15  1  0  0  0  0
 14 16  1  0  0  0  0
 15 19  1  0  0  0  0
 16 17  1  0  0  0  0
  1 23  1  0  0  0  0
  2 24  1  0  0  0  0
  3 25  1  0  0  0  0
  8 26  1  0  0  0  0
  8 27  1  0  0  0  0
  9 28  1  0  0  0  0
  9 29  1  0  0  0  0
 10 30  1  0  0  0  0
 10 31  1  0  0  0  0
 11 32  1  0  0  0  0
 11 33  1  0  0  0  0
 12 34  1  0  0  0  0
 12 35  1  0  0  0  0
 13 36  1  0  0  0  0
 14 37  1  0  0  0  0
 15 38  1  0  0  0  0
 17 39  1  0  0  0  0
 18 40  1  0  0  0  0
 18 41  1  0  0  0  0
M  CHG  1  17   1
M  END
> <OMEGA_C>
efeWQIFD6z4tQqXBLMiWQBaFb79se6bB/uLRQEJxR78bGLPBZMC0QIODoT8D86rB8Ce0QJvVxr9s
Zq3BrYnSQGD3HT+m7LHBgbaRQOYxWkCO4pfB/HfUQMkV8kB9o7jBCwjGQJcV9UC53KzB34roQCX3
lkCdd6TBY0CuQL7KX0CsGrTBUT7oQEXgJ0Dv95jBnQ3qQOqj1kClG7DBwkDiQBCtTEBpP6TBUpHh
QHmjpkCS7K/BwAW2QABeMkB5KqnBD4WRQCu/UEBsWaLBA9lWQFOlb0DV/pLBMCa2QGPenEBpJLPB
Q+qzQFdNOcA2ka7BpX/wQLmzpj/JhrfBJKu/QBpDUEDbv4/B6DqAQLRpbT+f75/BkgKAQC9+xL+G
GKLB02PoQKRBob/EZ7jBqHS/QOof40BkoL7Bf/nlQBpmBkGnVrzBsj7NQJn1CEHhJajB27mmQOk+
6ECfb6rBEkrRQJhYpkBVGJ/BbZoEQQTqnkCs26HBsfPDQEigREDSJLrB3OOMQE2KVUD3mbbB3tzl
QN9owz+CWpnBYAsEQdgMOkBl/JXBXUEFQUuU4EB9x63BySn7QL1hMEB8XKnBqH34QLyElkDNP7XB
OpdsQE5IX0ANJKbBR8JUQPoCeUD8FYvB4qIhQELFdUDCX5fB0u3TQKSBLz9Rn7HBaEbWQNRdMr9k
V7PBMFmYQKjzgb/t1afBhPWzQH3hnz9e6KrB66W4QCopxr/MY67BnXuVQClBvj7vFqbBLZORQO+z
W0B5yZfBTT/TQFOE8kBMN7jB2TvCQBg89EBLpKzBQ+vnQNBilkCBTKTB8AyvQCScXUBCFbTBYN7n
QBbUJUCZ/ZjBE9TnQC0c10A+iK/BkZjhQDhoS0DbNqTBnuHgQCbSpkA6sK/BuBy1QCmyMUDfAqnB
qD6RQN5AU0CxRKLB7OxWQFvecUD62pLBIgC2QNUCnEATLLPBR/+6QLpiOMBM/6/BUSlqQBBrTj8c
0Z/BE1u/QOFYTUAUpo/B0tfqQFnrqj+xeLXB9dXuQCt7jb9Zd7jB0nyBQMep1r+dGaTB2gDAQC1h
40DYib7BYa/kQLoAB0FYkLvBOozHQOd1CEHQt6fBs92iQIdL5kBPsarBAbvQQKx9pUBX3J7BsE4E
QXQnnkA7rqHBaRrGQE6dQkBH0LnBOUuOQG3uUUBm9LbB85TlQMtZvz9qdJnBH+ADQXv3N0CAB5bB
qLUDQRLa4UDEuqzB8EX6QD5tL0CubKnBuqb4QKsJmEAgBrXBiRFtQJjnZEDkFKbBhcFUQF1OeUAK
6orBEBAiQCdvekBsPJfB

> <OMEGA_E>
oBAzPkAAXT4=

> <OMEGA_NBR>
    157536

$$$$
417135
  -OEChem-04172616093D

 41 44  0     1  0  0  0  0  0999 V2000
    4.9925   -0.9255  -20.4540 C   0  0  0  0  0  0  0  0  0  0  0  0
    5.2734   -1.5769  -21.6622 C   0  0  0  0  0  0  0  0  0  0  0  0
    5.3611    0.4192  -20.2754 C   0  0  0  0  0  0  0  0  0  0  0  0
    5.9331   -0.8840  -22.6860 C   0  0  0  0  0  0  0  0  0  0  0  0
    5.9692    1.1750  -21.3160 C   0  0  0  0  0  0  0  0  0  0  0  0
    6.2863    0.4698  -22.5319 C   0  0  0  0  0  0  0  0  0  0  0  0
    6.9102    3.0318  -18.6326 C   0  0  0  0  0  0  0  0  0  0  0  0
    7.8092    7.4329  -21.2665 C   0  0  0  0  0  0  0  0  0  0  0  0
    7.8458    7.4353  -22.8074 C   0  0  0  0  0  0  0  0  0  0  0  0
    5.3490    5.1182  -20.8614 C   0  0  0  0  0  0  0  0  0  0  0  0
    7.1023    3.3021  -22.2502 C   0  0  0  0  0  0  0  0  0  0  0  0
    4.2174    3.2769  -19.5696 C   0  0  0  0  0  0  0  0  0  0  0  0
    6.5795    6.9806  -22.0659 C   0  0  0  0  0  0  0  0  0  0  0  0
    5.0165    3.5913  -20.8525 C   0  0  2  0  0  0  0  0  0  0  0  0
    6.1941    5.4910  -22.0907 C   0  0  1  0  0  0  0  0  0  0  0  0
    6.3054    2.6909  -21.0535 C   0  0  1  0  0  0  0  0  0  0  0  0
    7.2351    2.7696  -19.8828 N   0  3  0  0  0  0  0  0  0  0  0  0
    7.9369    3.0883  -17.7017 N   0  0  0  0  0  0  0  0  0  0  0  0
    7.3783    4.6824  -22.0681 O   0  0  0  0  0  0  0  0  0  0  0  0
    6.9512    1.0132  -23.5762 F   0  0  0  0  0  0  0  0  0  0  0  0
    5.2589    3.3096  -18.0468 S   0  0  0  0  0  0  0  0  0  0  0  0
    4.4918   -1.4574  -19.6585 H   0  0  0  0  0  0  0  0  0  0  0  0
    4.9832   -2.6075  -21.8037 H   0  0  0  0  0  0  0  0  0  0  0  0
    5.1776    0.8917  -19.3217 H   0  0  0  0  0  0  0  0  0  0  0  0
    6.1739   -1.3957  -23.6061 H   0  0  0  0  0  0  0  0  0  0  0  0
    8.4007    6.6962  -20.7032 H   0  0  0  0  0  0  0  0  0  0  0  0
    7.7876    8.3845  -20.7152 H   0  0  0  0  0  0  0  0  0  0  0  0
    7.8499    8.3884  -23.3565 H   0  0  0  0  0  0  0  0  0  0  0  0
    8.4630    6.7001  -23.3445 H   0  0  0  0  0  0  0  0  0  0  0  0
    4.4099    5.6907  -20.8835 H   0  0  0  0  0  0  0  0  0  0  0  0
    5.9102    5.3694  -19.9494 H   0  0  0  0  0  0  0  0  0  0  0  0
    8.0550    2.7619  -22.3528 H   0  0  0  0  0  0  0  0  0  0  0  0
    6.5099    3.1786  -23.1688 H   0  0  0  0  0  0  0  0  0  0  0  0
    3.4170    4.0239  -19.4631 H   0  0  0  0  0  0  0  0  0  0  0  0
    3.7735    2.2754  -19.6694 H   0  0  0  0  0  0  0  0  0  0  0  0
    5.7378    7.6887  -22.0848 H   0  0  0  0  0  0  0  0  0  0  0  0
    4.3536    3.3978  -21.7088 H   0  0  0  0  0  0  0  0  0  0  0  0
    5.6097    5.2887  -23.0004 H   0  0  0  0  0  0  0  0  0  0  0  0
    8.2040    2.6062  -20.0687 H   0  0  0  0  0  0  0  0  0  0  0  0
    7.7316    3.2799  -16.7419 H   0  0  0  0  0  0  0  0  0  0  0  0
    8.8824    2.9376  -17.9904 H   0  0  0  0  0  0  0  0  0  0  0  0
  1  2  1  0  0  0  0
  1  3  2  0  0  0  0
  2  4  2  0  0  0  0
  3  5  1  0  0  0  0
  4  6  1  0  0  0  0
  5  6  2  0  0  0  0
  5 16  1  0  0  0  0
  6 20  1  0  0  0  0
  7 17  2  0  0  0  0
  7 18  1  0  0  0  0
  7 21  1  0  0  0  0
  8  9  1  0  0  0  0
  8 13  1  0  0  0  0
  9 13  1  0  0  0  0
 10 14  1  0  0  0  0
 10 15  1  0  0  0  0
 11 16  1  0  0  0  0
 11 19  1  0  0  0  0
 12 14  1  0  0  0  0
 12 21  1  0  0  0  0
 13 15  1  0  0  0  0
 14 16  1  0  0  0  0
 15 19  1  0  0  0  0
 16 17  1  0  0  0  0
  1 22  1  0  0  0  0
  2 23  1  0  0  0  0
  3 24  1  0  0  0  0
  4 25  1  0  0  0  0
  8 26  1  0  0  0  0
  8 27  1  0  0  0  0
  9 28  1  0  0  0  0
  9 29  1  0  0  0  0
 10 30  1  0  0  0  0
 10 31  1  0  0  0  0
 11 32  1  0  0  0  0
 11 33  1  0  0  0  0
 12 34  1  0  0  0  0
 12 35  1  0  0  0  0
 13 36  1  0  0  0  0
 14 37  1  0  0  0  0
 15 38  1  0  0  0  0
 17 39  1  0  0  0  0
 18 40  1  0  0  0  0
 18 41  1  0  0  0  0
M  CHG  1  17   1
M  END
> <OMEGA_C>
MsKfQMPqbL+3oaPBCsCoQJfWyb85TK3BZY6rQBOi1j4INKLBHty9QL9LYr/7fLXBAQS/QFBmlj8y
h6rBVSnJQAmF8D5tQbTBECDdQLgIQkCkD5XB9+T5QGva7UDbIarBoBD7QNHt7UCZdbbBmyqrQC7I
o0A85KbBuEXjQMNVU0BgALLBOfWGQAi5UUCCjpzBJIvSQGRh30AJh7DB/4agQCfXZUAA0qbB8zXG
QAe2r0C/ubDBPsbJQBo3LECTbajBw4XnQPlAMUDsD5/B+fr9QBenRUAdnY3BMhvsQGPWlUB8i7DB
anDeQNOxgT/9m7zBLkmoQN3PU0DFX5DBk7yPQPiKur+TRJ3B93WfQH3gJsD0ba7BRK+lQPlFZD/q
kprBmJDFQMensr9D2bzBcGkGQQ5H1kA9oKXBtjP5QAUnBkG9uKXBHDL7QA43BkET2rrBo2gHQSBn
1kCTwbrBEh6NQPUZtkBeEafBtiC9QG3Sq0BemJ/BLOEAQVLDMECT0rLBFlHQQKdtS0CwWbnB4a9a
QJHDgEBttJvB5YBxQPCgEUAFW53BaJy3QG0J9kC6rbDB/1CLQMh1WUCrq63B4IKzQCQ9qUDiALjB
akMDQTHLJkCmjKDBRmn3QBzpUUB974XBOh4OQe4APEA+7I/B7P+/QEg3Ur9HC7bB9tapQG1Eyr8v
bK7Bk8rJQOINBz9OA7TBHF+eQEpLf7+jpaTBBRG+QA9LlD+6LKrB7PeoQEU8rj75ZaLBcWjbQLvy
QkChh5TBoGjnQNzh8UDcB7vBC5e8QKWT/kAm1LXBqlyuQIA0pECiMafBnNDlQAdUTUDRerHBfXSG
QKc8WkCn1ZzB6WLZQL0c3UCzgbDBXb2hQNrwZ0BB8KbB0j7LQAEgrkC0w7DBZO7JQCaCKkBC8qfB
p5PmQMSvLkBaYJ7Bfzr7QCOsQkC1y4zB3TzwQLcYk0C1RrDBwO6fQP4wRD/rdJjBP6amQIMHXkAj
YpDBA5rJQNASo7/wgr3BfqahQMj3JsC0E7DBz43aQFvQjD+aBbrBfzeNQJBWyr+/xp7Bf6TnQCQH
30AtdsLBwiEBQW5RBEHIHLvB2tO4QK8zD0F3MLLB1TSeQKbL9EDcibnBrSGRQAKut0DRxafBGXy/
QEU6rEB7xZ/Bo9oBQRdIKEBc3LHBodvTQK/lRECO+bjBStpbQKRShkBgeJzB2ahtQGpMG0CeXp3B
kofqQN6E50BJRqnBZTCNQIu3W0Dw6q3BFVO5QN04qECGMbjBqrYCQcqjIEDSkp/BCxn0QJBYUUA0
N4XByqYMQdDMM0CczI7B9ADkQM69mEBSC8HBFqTkQICRwkCu8rzBBrPXQOIYbUB0eLrBDlrbQDzf
yUChG7LBvHzJQGw5fEDV36/B2KHOQAblp0CPeqvBsPGRQKLLVkBL/JfBGSSgQL43J8AiI6jBuXKY
QNhx8r/QhJ3B2cDKQHieHj+QfqDBLYycQKhB6D9JH7HBq0fqQN4oMUC8kJnBXo2YQFCojL8bFKjB
oezZQLCeAUBweqPBqDe/QMD5RL7YnqrBvHW1QMaRMkDndanBpVuSQMftU0DTeqLBUcdXQF/zbUAu
GJPB0CW2QGhQKT8UwLPBhhjHQByzsEAtC6HBbDC/QPwdQ0B924/B+v3sQGrpkkA0QsnBxUbsQF8i
3UBYIsLBvQ/ZQNFuLEDcgL3B9QDeQAvH6UCl2q7BORTAQH2vQMCzBarB9oqHQGRYUsARY6vBFZ90
QIIgA8DQJJnBztiyQDbv4r9yx5fB5nDkQDTKzj0nI5zB+lCuQMCaMj+DWJvBzRJ+QKWlvT/vIa3B
z1WUQM5bFkBliLjB58wBQZDcCkCUw5XBTHH3QLJfb0C9CpzBjnpyQPTFQL+b/qrBjdz0QMb59T//
FKnBn5faQEBBV7+YiqzB6MlwQLB9akC/NabB49xUQKI3c0BCIYvBXsAjQEtmeUA2h5fB4ATPQMAA
0UBYZLDB+l7lQASczEDgEbrBYjDDQLyTrEDKkqrBY0rzQPwHpECUb73BoczMQNAvg0CChK7BA7Lo
QN3RfkDke7fBVX+SQBSeWkC0HJjBNoWVQAGhG8A0Aq3BQOS5QOscIcCQvaTBKf3FQPRxLz+elp/B
5yeiQDWUAUAeaLLBbRbrQJ5pNEBgl5nB/66cQEabpb/oGaXBUS3ZQLvkAUDsJKPBXdCwQACQD7xO
JqnBzLS3QJ69N0A+aKnBd1eSQMy4UEAWjaLBnHtXQPLoa0BiLpPBaJuQQETXUz/s663B2Y35QP3Q
MkDolbrBctbAQGziUUBmC5DBtPLGQKp08EAnb63Bct/rQEBu6EBX7r7BzqWyQNMQsEChCaPBiRoD
QQr9oEBkoMTBBwSdQBaIEsAAiLXBiYVyQL4hRcCxOazBzam3QFB7TsDeCJ7BEGvbQKjhG8AtV6fB
ZI/fQMlyMD0dZpzBr+WtQHO4XD+SVJnB3GmIQCokJ0A1JbbB9TC6QGyO4T+xe7jBVIABQWnEDECl
c5XBMmn6QNYhb0CpkpzBSDiFQMNRmb8mlp7BouTzQJF36D8cnajB8pnJQLITg76OE6/B/g9tQODb
WkDaTKbByNJUQL4mc0BRPYvB9TIiQDAmcUBjkJfBxTyqQLAwbr/uRaXBGieuQNCKq7+l8q/BsGCx
QCCG0T47jaLBtH62QOAfyb6Y+bfBmxq8QPyqrz/fcKrBDhu8QHgVdz9TZLXBOhPnQOz0RUAzLZTB
kkjCQEfC/EC/i6rB6i3tQD1l5EDxb6rBTP+jQKNhokCo3aTBaPziQDQQZ0Bfv67BpHWOQLwJUUBK
4ZfBIjLJQP7w1kB2J7LBWjqeQES+Y0AwVaPBgnyvQDrqrEByubDB2lTIQKYvMkD2habBFBDoQLRT
JEBFw53Bg6UGQW5ISkBjlo7BTvHGQNCZikB4zbXBiW/BQBye6T93ob3B47a3QKzUZ0AE3Y3BE7yh
QCSy0r9LKZ/B6MGqQAmRGMBMALLBa6uuQGINNz8DS5rBCKC4QATINb9yN8DB/QisQGGv+UAfxaPB
s83AQDzFDkHQuq3BLSYFQaq880C1jq3BpIf1QJLhz0AEmaPBJwiGQHXBskDauqLBXO29QEitrUCS
oJ/BFXX3QBFdikBTbarBqR33QMBjO0CVeLPBAZVkQJgaeUCGN5bBpn6FQFobDUAHUpfBBbPOQGEI
4EAii7rB0PyEQEK6TkAg4KjBRAuRQI0YsUBaBLXB9ksAQQit+j8UY5/BvNQGQcloYEDSFIfBl0EU
QYxHN0AZD5LB87GLQOixHL+qEqrBXXCrQH3Ts78r3K7BB+mSQDLJQT+nTajBo7HSQP6vVL9SzLHB
VQ+7QFUPrD8krqrBEhLbQASpBT9qka/BTUjpQEvaMkDBb5XBFf4BQSO00kC0K6nBvWP9QHUe2ED2
P7XBY62tQEOzpEBlOqLBK7PXQBFhY0AFo7HBMb+QQH6ZT0CNP5fBBLjWQEku2kBbpq3BhtKfQOpu
akCPkKLBWrG0QLUCtkCgp63Bw5/FQD93M0DWeafB4TLqQPTELED06J/B+x0IQYnQLkDzSJDBieu8
QPMPlEAjSrXBSD8BQaj+fz9uCrLBeBO8QCKcTEBNoI3BizZbQKk0h7+nvafB76ilQHsbHcB/R7DB
DwpzQAZSrz/cFqXBIZTqQCwrt79jyrXB/1wGQdo9s0B94qXBEP0JQZoC7ECfiqTBY1QEQbZO9UAQ
SLnBUrQAQfaJvEDtn7rBRpSUQHmjt0CGRZ7BHbLLQHF9p0CEr53BMFT3QNXFfUAPoa/ByQXbQJij
NEAxKrjBTDFxQLC7fUCzd5TB2VOCQK1/D0DWvZfB3c/JQNp7+kDiTazBK1SEQDIWZUDeBKjBOmKW
QKRAxUBIALDBiXUDQQxlIkD+MKPB9AIJQW1GOkBPbYjBy1kVQb9sIEDqZ5TB

> <OMEGA_E>
QmJrPxRobj/GXXc/svN6P3oBfD8Q1V0/

> <OMEGA_NBR>
    162256

$$$$
50329842
  -OEChem-04172616093D

 41 43  0     1  0  0  0  0  0999 V2000
    4.7485    0.4113  -20.7076 C   0  0  0  0  0  0  0  0  0  0  0  0
    4.7491   -0.9779  -20.8980 C   0  0  0  0  0  0  0  0  0  0  0  0
    6.6185   -0.7748  -22.4444 C   0  0  0  0  0  0  0  0  0  0  0  0
    5.6866    1.2322  -21.3851 C   0  0  0  0  0  0  0  0  0  0  0  0
    5.6821   -1.5692  -21.7651 C   0  0  0  0  0  0  0  0  0  0  0  0
    6.6319    0.6162  -22.2619 C   0  0  0  0  0  0  0  0  0  0  0  0
    4.5546    3.4054  -18.9915 C   0  0  0  0  0  0  0  0  0  0  0  0
    7.2337    4.6985  -20.4949 C   0  0  0  0  0  0  0  0  0  0  0  0
    5.4576    3.4615  -22.4949 C   0  0  0  0  0  0  0  0  0  0  0  0
    7.2581    2.5853  -19.1013 C   0  0  0  0  0  0  0  0  0  0  0  0
    7.0744    3.1761  -20.5038 C   0  0  1  0  0  0  0  0  0  0  0  0
    6.9605    5.2194  -21.9011 C   0  0  2  0  0  0  0  0  0  0  0  0
    5.7038    2.7477  -21.1356 C   0  0  2  0  0  0  0  0  0  0  0  0
    6.6270    8.5782  -23.2831 C   0  0  0  0  0  0  0  0  0  0  0  0
    7.0592    6.7181  -21.8770 C   0  0  0  0  0  0  0  0  0  0  0  0
    4.5460    3.1939  -20.2903 N   0  3  0  0  0  0  0  0  0  0  0  0
    3.3791    3.8495  -18.4088 N   0  0  0  0  0  0  0  0  0  0  0  0
    5.6289    4.8651  -22.3273 O   0  0  0  0  0  0  0  0  0  0  0  0
    6.8223    7.1684  -23.2059 O   0  0  0  0  0  0  0  0  0  0  0  0
    5.6846   -2.9069  -21.9418 F   0  0  0  0  0  0  0  0  0  0  0  0
    7.5750    1.3234  -22.9313 F   0  0  0  0  0  0  0  0  0  0  0  0
    5.9663    3.1794  -17.9499 S   0  0  0  0  0  0  0  0  0  0  0  0
    4.0281    0.8601  -20.0398 H   0  0  0  0  0  0  0  0  0  0  0  0
    4.0310   -1.5939  -20.3772 H   0  0  0  0  0  0  0  0  0  0  0  0
    7.3322   -1.2363  -23.1108 H   0  0  0  0  0  0  0  0  0  0  0  0
    6.5171    5.1428  -19.7884 H   0  0  0  0  0  0  0  0  0  0  0  0
    8.2579    4.9630  -20.1932 H   0  0  0  0  0  0  0  0  0  0  0  0
    6.1762    3.0900  -23.2404 H   0  0  0  0  0  0  0  0  0  0  0  0
    4.4332    3.2548  -22.8383 H   0  0  0  0  0  0  0  0  0  0  0  0
    7.2032    1.4885  -19.1653 H   0  0  0  0  0  0  0  0  0  0  0  0
    8.2447    2.8811  -18.7152 H   0  0  0  0  0  0  0  0  0  0  0  0
    7.8684    2.7634  -21.1435 H   0  0  0  0  0  0  0  0  0  0  0  0
    7.7097    4.8097  -22.5945 H   0  0  0  0  0  0  0  0  0  0  0  0
    6.4491    8.8675  -24.3294 H   0  0  0  0  0  0  0  0  0  0  0  0
    5.7578    8.8618  -22.6715 H   0  0  0  0  0  0  0  0  0  0  0  0
    7.5234    9.0935  -22.9076 H   0  0  0  0  0  0  0  0  0  0  0  0
    6.3037    7.1362  -21.1955 H   0  0  0  0  0  0  0  0  0  0  0  0
    8.0620    7.0260  -21.5461 H   0  0  0  0  0  0  0  0  0  0  0  0
    3.6783    3.3463  -20.7633 H   0  0  0  0  0  0  0  0  0  0  0  0
    3.3461    4.0325  -17.4263 H   0  0  0  0  0  0  0  0  0  0  0  0
    2.5634    3.9871  -18.9707 H   0  0  0  0  0  0  0  0  0  0  0  0
  1  2  2  0  0  0  0
  1  4  1  0  0  0  0
  2  5  1  0  0  0  0
  3  5  2  0  0  0  0
  3  6  1  0  0  0  0
  4  6  2  0  0  0  0
  4 13  1  0  0  0  0
  5 20  1  0  0  0  0
  6 21  1  0  0  0  0
  7 16  2  0  0  0  0
  7 17  1  0  0  0  0
  7 22  1  0  0  0  0
  8 11  1  0  0  0  0
  8 12  1  0  0  0  0
  9 13  1  0  0  0  0
  9 18  1  0  0  0  0
 10 11  1  0  0  0  0
 10 22  1  0  0  0  0
 11 13  1  0  0  0  0
 12 15  1  0  0  0  0
 12 18  1  0  0  0  0
 13 16  1  0  0  0  0
 14 19  1  0  0  0  0
 15 19  1  0  0  0  0
  1 23  1  0  0  0  0
  2 24  1  0  0  0  0
  3 25  1  0  0  0  0
  8 26  1  0  0  0  0
  8 27  1  0  0  0  0
  9 28  1  0  0  0  0
  9 29  1  0  0  0  0
 10 30  1  0  0  0  0
 10 31  1  0  0  0  0
 11 32  1  0  0  0  0
 12 33  1  0  0  0  0
 14 34  1  0  0  0  0
 14 35  1  0  0  0  0
 14 36  1  0  0  0  0
 15 37  1  0  0  0  0
 15 38  1  0  0  0  0
 16 39  1  0  0  0  0
 17 40  1  0  0  0  0
 17 41  1  0  0  0  0
M  CHG  1  16   1
M  END
> <OMEGA_C>
9fOXQDic0j4vqaXBfPiXQChXer8xL6fB1crTQH5XRr8jjrPBtfi1QL24nT+8FKvBsNO1QJjbyL8F
H67BizjUQBbBHT9LGLLBIL+RQIjxWUCt7pfBSnrnQLdZlkB89aPBx6SuQI2IXUCc9bPBiELoQEV1
JUCPz5jBF2HiQKNES0DRB6TBRbzeQJIFp0CLNa/BJ4W2QIzZL0C0FanBYRDUQFZACUHLQ7rBnuTh
QGP61kAYBK/BAXmRQIFpTEByUqLBBENYQBNedkBORZPBTSC0QOWum0BhnrLBpFDaQDZj5UC9pbnB
7ee1QEUKOsDViK/BcGbyQLdkqT85c7fBoOu+QMx6S0BhmY/BhOaAQF8xXD9pUaDBLf6AQKYFzL90
BKPBQaHqQHQ/nr/d4rjB64vQQJORpECuTp7BYSAEQZnQnkC2i6HBI6PFQNjCRUBS7LnB+NyNQNNN
UEDPtLbBQYDmQN6Hvj+YUpnBdOoDQUtjOEDBuJXBC8r7QNPbMEDhJanB2bX2QLvomUCRwbTBJF/O
QGXhDUGGosLBzj+4QA/KDUFHX7XBVr/wQCJ/EUHVQrfB4rfJQFlb5EBSkKnB6P0AQTnV4EBuXqzB
6mhrQHQqVkBMG6bB7CZWQCEKgUAFaYvBwg4kQD8tf0AHxJfB+8HTQB6CIz/XuLHByODVQG5sQL/O
G7PBekiYQEncgr+Ra6fB+DO0QHcjnT+WCqvBtnC4QO2Yyr9y2q3BgayVQBo/vT6h/aXBTDqSQN5G
W0CPHpjB9n/oQFuKlUBCx6PBKeyxQJZsXUBFKrTBXljoQKhCIUDLLpnBTKjiQFZWSUDHTaTB4ezc
QJaoqkBod67B61e2QOJbMEAWMqnBAtjjQJuW7kBQA7/BAiTaQOIE20Baf6zB+VOSQBj6UkB0mKLB
nI5YQCZxdEDKVZPBFxW0QP0UnECnirLBR/jIQBam8ECMqrXB8/W6QNgVO8An/a7BIi5rQB8zUz8J
tp/BNRu/QEANR0Avz4/ByYDqQLjMoj+rzbXBQSHuQJJBl7+GNrjBHFOBQLJa1b8CiKPB3KnTQMqE
okCqeJ3BZwsFQarEnEB+3aHBZxTMQPUMSUCHebnBIgOTQCuUTECPz7fBzhHmQDd5tj8z5JnBkAgE
Qd+zMkCaDZbBVa37QC9QL0D0kanBI3L2QOczpED2TrTBpW3UQITb/0BvpMXBjH0BQT9j/UB/PL3B
06joQH3wzEB9TMHBL0fFQOL+4ECmkaXBlWD6QKh650AA1KrBKO9vQOB2ZUB2f6bBSVxVQKzKekB2
YovBlfUkQEshgEDn1JfBF4CXQA8S4z5JMqXBojmXQGyscr8GwqbBRC7SQAStP7+FXrPBeiG1QO8I
oj92wKrBd260QAxoxb813K3BTeTSQASPJD+B37HB1VaRQI74W0CkoJfBkTLpQPGyl0CJBaXBWECs
QLFGX0BR67PB6wfoQIFwLUDmppjBVvzhQBV7TkBhHKTB1p3iQF0MpEAZ0bDBgoy1QFLWMkBq7KjB
/s6yQC2990C9QqvBwbHvQByY0kCZ9LLB/OeQQL3MT0CBC6LBjoJVQAF4bkBBsJLBd4S2QBdgnEAf
lbPBujrgQCrm70Bh7qrBMAe0QBNBOMBfZK/BqaPwQKSDrD/9ZLfB7cO/QHznWEA4oY/BfvSAQIxM
ZD+qt5/BVYGAQAH5x7/pfKLBlanoQKf4mr+gyrjBQRfSQPTbqECc9J/BhvcEQcLIn0Akf6LBVKe/
QKNbQECJKbrBtBqKQBrlV0CS2LXBvorlQIpuzj9vrJjBiPgDQXRiQEBXypXBNqX6QCh9L0CZDanB
tDH3QOlAj0DmtbXBjgqqQBUsB0GW4aTBPSuqQB21AkGPE7PBkYihQLhv2UASFKrBYWsJQXRk1EDr
KLPB1rfiQC1S3EASxLrBP11qQJgNW0DDyKXBPaxTQIuWeUBC0IrBbaIfQEi0cEBp/5bBV5yWQAoy
5z7vB6bBXlWUQDnoa7+dPqjBvynUQN55Qb/AUrPBHLu3QDyknz8oeqrBMvSyQOvjwr+J6a7BX9/W
QFR8Hj+7LbHBwd6RQGL+WkBhsJfBjDbmQEWfmUCtVKTBs7WvQFwcWkDB2bPBglHpQBaSLkB3VpjB
JgbjQAQiUUAxvKPBRKjdQOuBp0AyArDBkdO3QOQsMUAysajBKdQDQQr4BUEEjqfB8AvfQH2Y10B/
ELHBY2qSQJJVTkDAGKLB0IFWQOotckDcFpPBhr6zQExImkDbNLPBR08EQX/J5UAK4K3BH1+wQLTN
NcBpIrHBnCX3QL89pz+s5LXBRDe/QGh0U0AWTo/Bl+R9QKRDaD+i5aDBHPl1QPg9wr+r0KTBMsHr
QDLunL/WZLjB4kLOQFsnqEC8AJ/BJzUDQWHxo0Ab46HBP0DHQO4dQUBOmbnBVTyPQJ+5SUAPj7bB
d+foQNtn0D83lZjB/TgEQdWiREC3SpXBhO/8QMLTNkCTs6jBLRj2QOAqmUDoOrXBZkEUQcaLCkF4
YKXBwsP4QA/0EkESL6zBAvL0QCoUA0EaPqDBDQjZQJ3Q4EBNbLnB0JjGQEsb5kBP4KvBeyNuQBVG
WUAWBabB4UZTQMgVfkBEPYvBvvghQMEDd0A8npfB5QbVQLqINj8Zj7HBFVLWQBkPJ79P8rPBEsaY
QE6+gb9RYKjBKmW1QHHWnz9fmKrBXhq4QMH6wb+MYK/B/huXQIQWtz5v6qXBE3KRQJRxXUAUlJfB
XgPoQMr0lkB3fKTB632uQHieWkAP4bPBpA3oQBYgKkDmgZjBT/rhQOSrTEB75qPBSYrgQDXfpEAV
I7DB3qS1QPZCMUDSq6jBRjfDQDkSC0H1lazBwsblQLms1EDFI7HBQlKRQPZSUkAdBaLB8w9WQErv
ckDZvpLBnai1QBEvmkCyZrPBThvEQMHe6EA7N6vBeTC5QOZANcAdt7HBGEtwQHwDRD/QGJ/Buj2/
QChWU0DmX4/B3X7sQMjFrz8MErXBtH7uQOwghb9WSbnBWMCBQLEO2L8Y2qTBINHQQEnspkDQNJ/B
mFkEQVJyn0AyAaLBNdvEQI3uPUDNprnBOWmNQLaPTkA/e7bBDgTmQN+3xz+EsZjBoeYDQRx1PUAN
k5XBxNH6QJ9bL0DP8ajBAgX4QI/BlEAvT7XBss+oQKTfEUEl3afBwbvhQK3wEUHS26nBvGy+QGvf
DkEaGLXBW38CQWVe3kAq4K3B9srjQJ4R3kAlm7nB97RsQDhqYUAv5KXBxpRTQKw9fEAs1orBZBQh
QKokeUBaKpfBHsPWQN4yMT/0CrHBgujWQOglK79tp7PBN8aWQADGfL856qjBoGO2QNl7nz8pZarB
vM22QOjrwL8Cn6/BOSOWQEQCwj6cRabBOryRQLhYXUBRo5fBdAjnQI9PmEAHYKTBk0SwQAbVWEBj
3bPB4sjoQOTgK0BTapjBYpniQOqrTkBB0aPBvMTdQDs6p0Dj9K/BHcS2QF4zMUAZl6jBUbAAQdpS
B0GxB6fByFndQAxy10BhmbDBezySQOAKU0AJFqLBeA5WQECkckDc75LBlh20QK6bmUB6SLPBSKwC
Qd4x50DyvKzBFZq2QA4/NMB0O7LBmOZrQGrkTj+H55/BKA+/QG4QUkACSo/BkK/vQEieqj/6IbTB
vqfvQDMNib9WwbjB+dB8QGFu0r+pwqXBUAXQQKtDp0BR3Z7Bid4DQTyhoUCRGqLBba3IQK51P0Df
WrnBCT2QQO4JSEDH2bbBac/nQG8Ryz+AqpjBuhEEQX/wQEBtZ5XBC+z7QDb3MkCk2qjBXJD2QM9q
mkC5UbXB+pAQQamKDEGLRaTBcbLzQNWUE0GpVqzBxTzsQOsGBUGRFqDByr/YQLKA4UAX9LjB8yjD
QNsm5EDWpqvBi2RvQPhcY0AbEKbB1YZSQN8ze0BpBYvBerQhQNNzeUCYdZfB

> <OMEGA_E>
KICRPkjdoj4oCKQ+oH2sPpjjtj6oub0+

> <OMEGA_NBR>
    166986

$$$$
50329841
  -OEChem-04172616093D

 44 46  0     1  0  0  0  0  0999 V2000
    4.7591    0.4234  -20.6869 C   0  0  0  0  0  0  0  0  0  0  0  0
    4.7895   -0.9674  -20.8677 C   0  0  0  0  0  0  0  0  0  0  0  0
    6.6227   -0.7344  -22.4523 C   0  0  0  0  0  0  0  0  0  0  0  0
    5.6590    1.2603  -21.3933 C   0  0  0  0  0  0  0  0  0  0  0  0
    5.7134   -1.5434  -21.7554 C   0  0  0  0  0  0  0  0  0  0  0  0
    6.6105    0.6565  -22.2765 C   0  0  0  0  0  0  0  0  0  0  0  0
    4.5312    3.4063  -18.9649 C   0  0  0  0  0  0  0  0  0  0  0  0
    7.2472    4.6984  -20.5637 C   0  0  0  0  0  0  0  0  0  0  0  0
    5.3937    3.4857  -22.5035 C   0  0  0  0  0  0  0  0  0  0  0  0
    7.0387    3.1800  -20.5130 C   0  0  1  0  0  0  0  0  0  0  0  0
    7.0425    5.1380  -22.0200 C   0  0  2  0  0  0  0  0  0  0  0  0
    7.2101    2.5588  -19.1103 C   0  0  1  0  0  0  0  0  0  0  0  0
    5.6596    2.7765  -21.1381 C   0  0  2  0  0  0  0  0  0  0  0  0
    8.5989    2.8647  -18.5326 C   0  0  0  0  0  0  0  0  0  0  0  0
    6.4401    8.7359  -21.5158 C   0  0  0  0  0  0  0  0  0  0  0  0
    7.3117    6.6152  -22.1559 C   0  0  0  0  0  0  0  0  0  0  0  0
    4.5126    3.2249  -20.2702 N   0  3  0  0  0  0  0  0  0  0  0  0
    3.3608    3.8181  -18.3492 N   0  0  0  0  0  0  0  0  0  0  0  0
    5.6835    4.8777  -22.4123 O   0  0  0  0  0  0  0  0  0  0  0  0
    6.3417    7.3210  -21.3756 O   0  0  0  0  0  0  0  0  0  0  0  0
    5.7340   -2.8804  -21.9350 F   0  0  0  0  0  0  0  0  0  0  0  0
    7.5373    1.3742  -22.9594 F   0  0  0  0  0  0  0  0  0  0  0  0
    5.9438    3.1618  -17.9447 S   0  0  0  0  0  0  0  0  0  0  0  0
    4.0448    0.8597  -20.0044 H   0  0  0  0  0  0  0  0  0  0  0  0
    4.1011   -1.5966  -20.3233 H   0  0  0  0  0  0  0  0  0  0  0  0
    7.3354   -1.1848  -23.1273 H   0  0  0  0  0  0  0  0  0  0  0  0
    6.5167    5.2008  -19.9125 H   0  0  0  0  0  0  0  0  0  0  0  0
    8.2661    4.9498  -20.2341 H   0  0  0  0  0  0  0  0  0  0  0  0
    6.0332    3.0335  -23.2759 H   0  0  0  0  0  0  0  0  0  0  0  0
    4.3370    3.3540  -22.7792 H   0  0  0  0  0  0  0  0  0  0  0  0
    7.8128    2.7318  -21.1531 H   0  0  0  0  0  0  0  0  0  0  0  0
    7.7390    4.5803  -22.6633 H   0  0  0  0  0  0  0  0  0  0  0  0
    7.0736    1.4693  -19.1763 H   0  0  0  0  0  0  0  0  0  0  0  0
    8.6899    2.4099  -17.5352 H   0  0  0  0  0  0  0  0  0  0  0  0
    9.3716    2.4500  -19.1965 H   0  0  0  0  0  0  0  0  0  0  0  0
    8.7306    3.9538  -18.4521 H   0  0  0  0  0  0  0  0  0  0  0  0
    5.6723    9.2207  -20.8951 H   0  0  0  0  0  0  0  0  0  0  0  0
    7.4373    9.0679  -21.1912 H   0  0  0  0  0  0  0  0  0  0  0  0
    6.2871    9.0112  -22.5697 H   0  0  0  0  0  0  0  0  0  0  0  0
    8.3230    6.8446  -21.7889 H   0  0  0  0  0  0  0  0  0  0  0  0
    7.2284    6.9132  -23.2115 H   0  0  0  0  0  0  0  0  0  0  0  0
    3.6448    3.4040  -20.7338 H   0  0  0  0  0  0  0  0  0  0  0  0
    3.3411    3.9653  -17.3603 H   0  0  0  0  0  0  0  0  0  0  0  0
    2.5355    3.9684  -18.8936 H   0  0  0  0  0  0  0  0  0  0  0  0
  1  2  2  0  0  0  0
  1  4  1  0  0  0  0
  2  5  1  0  0  0  0
  3  5  2  0  0  0  0
  3  6  1  0  0  0  0
  4  6  2  0  0  0  0
  4 13  1  0  0  0  0
  5 21  1  0  0  0  0
  6 22  1  0  0  0  0
  7 17  2  0  0  0  0
  7 18  1  0  0  0  0
  7 23  1  0  0  0  0
  8 10  1  0  0  0  0
  8 11  1  0  0  0  0
  9 13  1  0  0  0  0
  9 19  1  0  0  0  0
 10 12  1  0  0  0  0
 10 13  1  0  0  0  0
 11 16  1  0  0  0  0
 11 19  1  0  0  0  0
 12 14  1  0  0  0  0
 12 23  1  0  0  0  0
 13 17  1  0  0  0  0
 15 20  1  0  0  0  0
 16 20  1  0  0  0  0
  1 24  1  0  0  0  0
  2 25  1  0  0  0  0
  3 26  1  0  0  0  0
  8 27  1  0  0  0  0
  8 28  1  0  0  0  0
  9 29  1  0  0  0  0
  9 30  1  0  0  0  0
 10 31  1  0  0  0  0
 11 32  1  0  0  0  0
 12 33  1  0  0  0  0
 14 34  1  0  0  0  0
 14 35  1  0  0  0  0
 14 36  1  0  0  0  0
 15 37  1  0  0  0  0
 15 38  1  0  0  0  0
 15 39  1  0  0  0  0
 16 40  1  0  0  0  0
 16 41  1  0  0  0  0
 17 42  1  0  0  0  0
 18 43  1  0  0  0  0
 18 44  1  0  0  0  0
M  CHG  1  17   1
M  END
> <OMEGA_C>
0EqYQIfG2D7EfqXBt0OZQE6kd78k8abBQO3TQMwCPL9NnrPBdRa1QOtPoT9+JavBVNS2QB6Nxb8V
C67BE4nTQHYSKD9NNrLB//+QQHoAWkAjuJfB0+jnQDZZlkCIgqTBHJmsQFsVX0BCB7TBuTzhQJSF
S0CeGqTBWVzhQOFqpED2KLDBVrnmQHbDI0D44ZjBChu1QLyyMUC8GqnB55QJQbRXN0CuQpTBYxXO
QBPGC0FuIKzBcPnpQB2w00BcP7HBC2eQQHRlTkBLKaLBUBdXQG9cdEAmy5LB1961QD0WnEBSTLPB
Ee/KQGFF6kAtAavBA323QIxYOMDoeq/B2THxQLrmrz/orLfBBDS+QLlaSkCpjo/BSW+BQOwUXD/9
CKDB1TuDQMFezL8ilqLBxrvqQIyol7+fBLnB+YjQQJ1spkDdTJ/B2UEEQZxknkCE36HB9w/BQO8k
QkAWNbrBZsiKQDmoVkDTO7bBqgL6QLXVLkCXOanB56X3QJuRkkBlTrXBJFviQAESvD/7aJnB+wkL
Qf06GkAGSIzBBPIVQUXMHEB+kpnBfrALQcwLfUDynZPBHoO1QOqHE0EdKafBR/7tQA8WEUGRh6nB
jC/JQA4uEEHZjrTB6SoFQUwH20C5T67B3U7nQNE43UA6sbnBAkVpQH3bWUDQ3qXB+NNVQKrGfUDV
4YrBYEYiQMf5fUAdJpfBtg+XQATx4D7f96XBfyaWQFaQcb/p06fBUMzUQC5aQb/wS7PB3762QKRE
oD+E1KrBa8C0QBDNxL/Ji67BdSrWQDABIT/TgrHB6XKRQB7oWkCEvJfB2dDmQHWCmEBndqTBm7iu
QN5AXEDb+LPByw3iQOrWTkAl8aPBaazeQMgYp0DwGbDBW5nnQNarJ0Ctq5jBWaC2QHh7MUBd7ajB
h90JQdx7PEDJ/ZPB9yAFQfEw/EB71KPBcCDiQFVe10Bmc7HBn3CRQI59TkDSKaLBCPlWQNbwc0D3
8pLBcy60QK5Am0BULrPBZqsFQbuo5UDT4K3BFlmzQEBVN8C2d7DBc8n1QHxdqT8ccbbBfoi+QFjZ
TUCLdY/Betx+QIKLYz8ryqDB57l7QMzLxr/DFaTBKYjsQPxGnL9jWrjBHl7PQNCip0AiGZ/BEKwD
QUi2oUB/AqLBjaLFQH+CQkB807nBM+eNQJkzTkAmoLbBJn/7QBSxM0AE/ajBrjz2QCCBl0ByWbXB
AqHjQJGnwz9YJ5nBpE0LQaS9H0CO/YvBnmEWQTlaIkDlPpnBLcALQYIngUC8YZPBb28VQQULA0H9
oKHBScn1QMFUDEFpmKTBJkf9QDcJ50ACl53BWwDeQLGp30DJ8LnBwwvJQOEW50BKsKzBI79rQEd3
WUDD/KXB+sVUQCzufUBLDYvBOFsiQG8GfEDSY5fBtfLUQLazNT8cfbHBPRjXQJ7HKb/GjLPBoYSY
QMgtgb8bTqjBboy0QJvOoD81yqrBWMe4QPjkwr+u+67BGgmWQABHvT4BKqbBdT+RQEgbXkDfnZfB
e4noQOpdlkBxqKTBuCquQPD0W0B5BbTBqGThQFKPS0AtEaTBuz3hQEOgpECgRbDBtJnmQILzJUAd
u5jBpee0QCLwMUDJ2ajB2dYJQciUNkCUVJTBDNnLQLFWC0GT5KrBDvDnQLdX1EDkJ7HBDtKQQLaO
U0DNFKLBDvVVQFr1cUDFmpLBVh+2QP/TmkAlfLPBO+XHQH896UCu1qrB+Ia6QKIfNsBoDrHBX/Nr
QOavSj8Iu5/BZzS/QPZrU0AWj4/BrFfsQNcirz8wDbXBmf/vQKSFh7/vorjBl2aBQKMZ1787yKTB
hsvRQFLRpkD4WJ/BXbkEQUYUnkACNKLBP07EQL28PkByzrnBj/+MQGwlUUCxo7bB8uX5QI9tLUCK
I6nBPUb4QLgMlECCerXB73vgQC5KwT/685jBxjMLQXwWG0AGQozB2b0VQYyiGEB7n5nBo7wMQdX0
e0AY9ZPBN3OyQFVjEkFA7KXBM0rrQIzjD0H5p6fBNd3IQMBGEUGvJLPBRPgDQYjM3EB2Ka7B2Pnk
QMVT3kDUj7nBkK9rQER6Y0Bl5aXBaCxUQNG6eUC6qorBK30gQJCEeECP7JbBbV7VQPRCND/SlLHB
kJrWQLsDKr+j57PBtfqYQMnMgb8dWKjBTYG1QBSlnz8Ut6rBxBO4QE+nwr+XYa/BK4KXQPQXtz6J
6KXBeFKRQDyoXEDPsJfBNinnQMokl0BzTaTB2pevQA4iW0B1/LPBqafhQDpUTEBG+KPBa6neQJ8B
p0B2z6/BqC7nQFjXJEC6t5jBrLi1QAhPMUD3zqjBob8JQd7zOEBQE5TBX+kCQZLBB0EweafBtvrf
QCpN10BwMrDBqlWRQHa/UkBQKaLBen1WQKz8c0BN05LBQ660QNuvmkCkNrPB1PwDQU965UCB8avB
upG4QOp0NcB8z7HB1CdyQPhaRD/J857BE0W+QKChS0AHbY/BtQntQE0Krj+DELXB+/fuQGRvh7/f
KLnByPqBQLmz17+LxaTBIUXQQGU0pkBWx57BdfwDQf6Zn0Ax66HBg4/HQJ5EQUC/j7nBtEyPQK+J
TECM+bbBBqf6QCuhMECMG6nByyv3QMHImUBWMbXBYe3iQLUjvj93NpnBgTMLQYwHHEDaFYzBbiwW
QeONHkDhXJnBrcMLQfC1fkB2c5PBBbkSQYdLDEEfWKTBtRH8QP0vE0FQtK3BZUnuQMP3B0FH7qDB
KcfcQLcq4kBph7jBDZrFQGB75EAlZKvBliltQGYJY0DDDKbB3MhTQAenekBH4IrBZjciQBoqfkAi
Q5fBN7iYQNpJAD9wAaXBJrOcQA4dY78BVabB8WjRQFW5Cb+7ZrTBwA6xQNmnsj9HZKvB+AG5QHb6
s7/MAq7B3pTNQKqTWj9BL7PBpLKPQKL6V0CeA5fBRUPjQJa0mkAA96PBRAemQLE7bEDQpLPBq1Pd
QOPqU0ADjKTBC0XVQMrGsEADWq7BFxfmQHtgJ0DhwJnB8F6wQLReOkAnE6nBXo0JQb3QPECfm5XB
Os3FQDAjAkE8LrnBAZaxQIQc0UDGpKvBj/6MQOleUkBWgaHBcb9VQJEybEB/Y5HBrkbIQBKzkkDn
orbBCuOkQEal6ECU87TBb668QOl/L8DaRq/BJuvlQILc0j/NibnBA+u+QBnARkDDmo/BCPGCQGJ4
ZD96Ep/BVvaJQAVgx7+AcKHBcjXnQA8ocb9zRrrBfvrPQMNFp0CZTp3BDaECQe/HoUDDhaLBsP6g
QEvHPUCXIrrBt6iIQCzsiEAYc7LByDT1QGSSO0BVQKrBVs3wQGovw0ABVbHB9uziQHZjwz+luZrB
bD0MQeZJHECI643BzIwVQZMeJ0CBcpvBNv0KQSc0gUBHfZTBe5G5QIeNCkFUR8DBhxjPQBzmDUFu
D7PBStfhQCz78EDFbLvBqbyVQIO0v0D7eajBV2+9QC6a50CIjqXBlQNhQHpoX0C8w6TBkG5XQLWO
cED3aInBYOQeQE5vdkBNTpXBB5DNQAsbaj/NUrPBPwjUQJSc576YPbXBAFSgQHRTfb9bWKfB9oyw
QHQkrj+JVKvBmHS9QKjEs79JO6/BB8KZQH6DwT6dSqXBgYuPQIC1WkCy4JbB1ovjQA5wmUDECqTB
9GylQLyUaUARibPBVKvcQJZvUUBdf6TBUKbUQACYr0DkUK7BD2vlQBH9JUBppJnBK2KvQHZHOEDf
3qjBJmoJQagZOkB8p5XBaETEQEQDAkH/tLjB2LywQAmAz0DBb6vBYGOMQGxcUkDAVaHBCphVQOBR
b0DJPZHBkKXHQFBlkUD8j7bBVL6jQEqP50BeorTBzsTDQCQtLsDDA7HBguN7QBsrMT8mZp3BrNm+
QHLHSEBdf4/Bg/LeQLAZ0j/tAbjBMlbqQFd1Rb+9U7vBocyOQMIu3b/sz6LBL1/RQHZ6pkBXP53B
0eoCQZ7qn0DX4qLB56GgQKuhOkB6+7nBpvuHQK2Th0BMcLLBpTT0QCPAN0D9MqrBosbvQN5hwkA+
YbHB927hQByswD/KcZrBOhgMQY5eGkD36Y3B9SwVQWKmIkARgpvBmjsLQfixf0ADsJTB39W3QHyc
CkFsur/B8CTNQMOZDUFnd7LB4p7gQOxY8UBfB7vBvQ+VQFytvUDoUajBqIG8QOup5UD3Q6XBF5Bf
QISmXkAHk6TB6lpXQFOYc0AjQ4nBmsYeQHPseUDLJpXB

> <OMEGA_E>
sNGrPqhutT6IuL4+wC7GPsDf/D6kngc/

> <OMEGA_NBR>
    171948

$$$$
50329837
  -OEChem-04172616093D

 46 49  0     1  0  0  0  0  0999 V2000
    4.8067    0.4854  -20.6661 C   0  0  0  0  0  0  0  0  0  0  0  0
    4.9303   -0.8950  -20.8809 C   0  0  0  0  0  0  0  0  0  0  0  0
    6.5663   -0.4840  -22.6351 C   0  0  0  0  0  0  0  0  0  0  0  0
    5.7729    8.3773  -23.1565 C   0  0  0  0  0  0  0  0  0  0  0  0
    5.5551    1.4089  -21.4418 C   0  0  0  0  0  0  0  0  0  0  0  0
    5.8077   -1.3788  -21.8642 C   0  0  0  0  0  0  0  0  0  0  0  0
    6.4455    0.9010  -22.4370 C   0  0  0  0  0  0  0  0  0  0  0  0
    5.8731    8.5626  -21.8021 C   0  0  0  0  0  0  0  0  0  0  0  0
    6.6045    6.5676  -22.2394 C   0  0  0  0  0  0  0  0  0  0  0  0
    4.4702    3.4540  -18.8502 C   0  0  0  0  0  0  0  0  0  0  0  0
    7.1128    4.7899  -20.6061 C   0  0  0  0  0  0  0  0  0  0  0  0
    5.1841    3.7616  -22.3642 C   0  0  0  0  0  0  0  0  0  0  0  0
    7.1387    5.1894  -22.0972 C   0  0  1  0  0  0  0  0  0  0  0  0
    6.9214    3.2860  -20.5219 C   0  0  1  0  0  0  0  0  0  0  0  0
    7.1491    2.7105  -19.1253 C   0  0  1  0  0  0  0  0  0  0  0  0
    5.5152    2.9094  -21.0930 C   0  0  2  0  0  0  0  0  0  0  0  0
    5.4428    9.7603  -21.0019 C   0  0  0  0  0  0  0  0  0  0  0  0
    8.5906    2.9893  -18.6764 C   0  0  0  0  0  0  0  0  0  0  0  0
    6.4231    7.4264  -21.2672 N   0  0  0  0  0  0  0  0  0  0  0  0
    4.3853    3.2267  -20.1456 N   0  3  0  0  0  0  0  0  0  0  0  0
    3.2989    3.7168  -18.1599 N   0  0  0  0  0  0  0  0  0  0  0  0
    6.2383    7.1360  -23.4113 O   0  0  0  0  0  0  0  0  0  0  0  0
    6.3822    4.2953  -22.9570 O   0  0  0  0  0  0  0  0  0  0  0  0
    5.9202   -2.7078  -22.0714 F   0  0  0  0  0  0  0  0  0  0  0  0
    7.2171    1.7106  -23.2004 F   0  0  0  0  0  0  0  0  0  0  0  0
    8.8999    2.1700  -17.6494 F   0  0  0  0  0  0  0  0  0  0  0  0
    5.9734    3.4319  -17.9376 S   0  0  0  0  0  0  0  0  0  0  0  0
    4.1351    0.8495  -19.9027 H   0  0  0  0  0  0  0  0  0  0  0  0
    4.3495   -1.5869  -20.2889 H   0  0  0  0  0  0  0  0  0  0  0  0
    7.2460   -0.8624  -23.3842 H   0  0  0  0  0  0  0  0  0  0  0  0
    5.3954    9.0860  -23.8788 H   0  0  0  0  0  0  0  0  0  0  0  0
    8.0627    5.0718  -20.1284 H   0  0  0  0  0  0  0  0  0  0  0  0
    6.2813    5.3002  -20.0981 H   0  0  0  0  0  0  0  0  0  0  0  0
    4.6720    3.1246  -23.1004 H   0  0  0  0  0  0  0  0  0  0  0  0
    4.5241    4.5935  -22.0771 H   0  0  0  0  0  0  0  0  0  0  0  0
    8.1891    5.1898  -22.4238 H   0  0  0  0  0  0  0  0  0  0  0  0
    7.6665    2.8252  -21.1871 H   0  0  0  0  0  0  0  0  0  0  0  0
    6.9639    1.6263  -19.1320 H   0  0  0  0  0  0  0  0  0  0  0  0
    5.6384    9.5785  -19.9348 H   0  0  0  0  0  0  0  0  0  0  0  0
    6.0077   10.6443  -21.3327 H   0  0  0  0  0  0  0  0  0  0  0  0
    4.3673    9.9348  -21.1529 H   0  0  0  0  0  0  0  0  0  0  0  0
    9.2793    2.8058  -19.5142 H   0  0  0  0  0  0  0  0  0  0  0  0
    8.6792    4.0366  -18.3516 H   0  0  0  0  0  0  0  0  0  0  0  0
    3.4695    3.2694  -20.5450 H   0  0  0  0  0  0  0  0  0  0  0  0
    3.3264    3.8862  -17.1748 H   0  0  0  0  0  0  0  0  0  0  0  0
    2.4256    3.7372  -18.6466 H   0  0  0  0  0  0  0  0  0  0  0  0
  1  2  2  0  0  0  0
  1  5  1  0  0  0  0
  2  6  1  0  0  0  0
  3  6  2  0  0  0  0
  3  7  1  0  0  0  0
  4  8  2  0  0  0  0
  4 22  1  0  0  0  0
  5  7  2  0  0  0  0
  5 16  1  0  0  0  0
  6 24  1  0  0  0  0
  7 25  1  0  0  0  0
  8 17  1  0  0  0  0
  8 19  1  0  0  0  0
  9 13  1  0  0  0  0
  9 19  2  0  0  0  0
  9 22  1  0  0  0  0
 10 20  2  0  0  0  0
 10 21  1  0  0  0  0
 10 27  1  0  0  0  0
 11 13  1  0  0  0  0
 11 14  1  0  0  0  0
 12 16  1  0  0  0  0
 12 23  1  0  0  0  0
 13 23  1  0  0  0  0
 14 15  1  0  0  0  0
 14 16  1  0  0  0  0
 15 18  1  0  0  0  0
 15 27  1  0  0  0  0
 16 20  1  0  0  0  0
 18 26  1  0  0  0  0
  1 28  1  0  0  0  0
  2 29  1  0  0  0  0
  3 30  1  0  0  0  0
  4 31  1  0  0  0  0
 11 32  1  0  0  0  0
 11 33  1  0  0  0  0
 12 34  1  0  0  0  0
 12 35  1  0  0  0  0
 13 36  1  0  0  0  0
 14 37  1  0  0  0  0
 15 38  1  0  0  0  0
 17 39  1  0  0  0  0
 17 40  1  0  0  0  0
 17 41  1  0  0  0  0
 18 42  1  0  0  0  0
 18 43  1  0  0  0  0
 20 44  1  0  0  0  0
 21 45  1  0  0  0  0
 21 46  1  0  0  0  0
M  CHG  1  20   1
M  END
> <OMEGA_C>
M9CZQCaG+D48VKXBwsSdQIgfZb8SDKfB2x7SQCbK976nFLXBmru4QI4JBkGQQLnBXcOxQJ5WtD/L
iKvBEtm5QKN9sL/S6a7BsEHOQLGkZj/vfrPBdvC7QFIACUG+aq7BtVfTQLop0kBH6rHBJwyPQIoN
XUBNzZbBZpzjQKxGmUBD2aTB9uOlQK6+cEDl6bLBVXDkQJMPpkAax7DBNXzdQBJNUkDGLKTBocXk
QJ15LUCGAJnBZnywQOcyOkCCvqjBciuuQDsqHEH9A6jBE3MJQXJRP0AvaZXBRIrNQAyl7UBMI6rB
QlSMQKyBTkBJKqHBgSFTQEjgbUCJR5HBXqDHQFla5EBKSrvBqzrMQAlziUDjp7fB+nG9QHBMLcA+
krDBTvLmQFz02j+CmrnBImYOQQHiCkDkMY3B7iW/QA6lW0AkgI/Bq1KEQBx3WT+2OJ/BMC+LQEof
y7+6T6LBIt/nQBnJXL/JErvBwqasQEBgEUG+B7/BBgEBQSJMokDvBqHBbQDJQJ2bqUDgyKDBOYGV
QMr5R0CpzbjBQMWQQMP9kkDYnbDBpgYDQZASpkDjY7PB+1P1QPzPNEAvf6nBA9jeQPYp0D9CDpnB
rW20QLtBGUGQep/BGz/AQBpPKkF3qarByMCLQBr1HkEyOanB53cUQRuSM0AlHZzB2t0KQZ4rgUAU
0JLBBgxeQAg9UUArXKTBFuRUQJu3eEDrZYnBhDwbQAQvb0A4LJXBYo/NQO2adT8jorPB4obUQDDy
zL7OtLXB2MWhQDYAe7+rsafBJAPKQCNlCUGDO67BQw6xQAxQsD8dbqvB5bS+QK5cr7+9ta/Buuia
QPJswj4LcqXBIj23QCqDBEF/1bfBiBrVQBwfz0DXBbLBT/COQJrdXkCJypbBuPvjQE2nl0AgHKXB
hyamQDCwbEDwB7PBCHPlQN/TokAVEbHBuAPdQD56T0DBKaTBvojkQFw+LEB17pjB3LSvQMMxOED6
najBmPKgQKm4E0HARb/B6GYJQX4DP0CmdZXBjOu9QGkx3kCc2LnBZAyMQIDmUECUKqHBFhBTQOjy
b0AZQZHBW9DcQHOo7kDsyKrBBznNQIKRhUBdz7fBLqbFQDeQK8DgnbHB+Pl+QL/xLD/7ap3BkMIO
QSWvCkB3TY3Bcwe/QPJiW0AxdY/BsB/eQA7Y2T/QWLjBg5/qQAJYM79v5rvBeaSQQIDb3b+jN6PB
DcDJQBy2GEGTO6rB4jABQWGXoEDbRqHBYoDJQBnhqECFOqHBH1KVQAltQ0CMybjB4suRQMTikUAv
/7DBP5MDQZlpokD0mrPBbGz0QJhdMED/danBkcXeQKuYzT811JjB2OCWQLkeC0GLhsbB0quEQOZ3
GkH4QrvB4fS2QEG6IEH8esHB1EcUQXj+M0AbPZzBk64KQZADgUAk15LB+QZeQBhzV0CrbaTBTtdU
QAPReUBjWonBFj8bQJ5rckAAKJXBrAzNQLISeD/Lp7PBUiXUQGUSyb7jpbXBOn+hQPIhd78gmafB
2MK7QMO6BEFNn7rBYJywQClEsj9sdavBQoK+QBYPrr+hk6/BkoCaQPD+yj4AbqXBQV61QDnOBkGq
06/BOanTQJb6z0BvfrLBPd2OQPYDX0AOyZbBUqjkQIX8l0DO+6TBdGWmQO5zbkBxALPBMWXlQDwr
pECT+LDBuiPdQCjuT0AtLaTBr2PkQB6YK0DI+5jBZqqvQJZWOUBSoajB0imfQAO9GEFZCarB0lsJ
QdACPUDpeZXBT4bFQHyo6UDs/6rB3gqMQAQ6UkCxLqHBdrdSQCjnbkCjOpHBTqnOQNwQ40CRIbzB
CKXNQKp8hkC4sLfB6p7FQL4EK8D6YbHBDz1+QEizMT8/Zp3BVLEOQTx5BkD3iY3BPPq+QFC0WkDg
dI/BMXndQKOt2j87brjByDTqQDhIMr/T1rvBt2WQQKCU27/jFaPBO1WzQLUzEEHousDBPLkBQahI
oEDRQaHBabDKQKRDqUCv56DBbKeVQMCdRUAu0rjBnQ+SQNrBkkBb8rDBhIMDQW9apEBSkbPB3mz0
QATQMEDzganB4z/eQACMzD+a+pjBsQGeQLAkFUFKbaHB7NiwQPy8J0G/UavBHMd8QNp0GkEoIa3B
hC8UQemGM0DkT5zB1LwKQUBKf0BBl5LBLjleQL3nWUC0dqTBnUxUQNmBd0DdTYnBifcaQHLFcUBD
JJXB

> <OMEGA_E>
8sQvP+ytNz8gBjg/

> <OMEGA_NBR>
    174646

$$$$
50322743
  -OEChem-04172616093D

 29 30  0     1  0  0  0  0  0999 V2000
    4.6721    0.3707  -20.5274 C   0  0  0  0  0  0  0  0  0  0  0  0
    4.7458   -1.0202  -20.7202 C   0  0  0  0  0  0  0  0  0  0  0  0
    6.6330   -0.7152  -22.2238 C   0  0  0  0  0  0  0  0  0  0  0  0
    5.5883    1.2476  -21.1732 C   0  0  0  0  0  0  0  0  0  0  0  0
    5.7319   -1.5643  -21.5595 C   0  0  0  0  0  0  0  0  0  0  0  0
    6.5694    0.6791  -22.0381 C   0  0  0  0  0  0  0  0  0  0  0  0
    4.3826    3.2529  -18.7141 C   0  0  0  0  0  0  0  0  0  0  0  0
    6.8860    3.2420  -20.2031 C   0  0  0  0  0  0  0  0  0  0  0  0
    7.1105    2.5200  -18.8707 C   0  0  0  0  0  0  0  0  0  0  0  0
    5.5638    2.7728  -20.8742 C   0  0  1  0  0  0  0  0  0  0  0  0
    5.3548    3.5746  -22.1836 C   0  0  0  0  0  0  0  0  0  0  0  0
    4.3890    3.1448  -20.0261 N   0  3  0  0  0  0  0  0  0  0  0  0
    3.1921    3.6179  -18.1063 N   0  0  0  0  0  0  0  0  0  0  0  0
    5.8222   -2.9036  -21.7187 F   0  0  0  0  0  0  0  0  0  0  0  0
    7.4784    1.4439  -22.6858 F   0  0  0  0  0  0  0  0  0  0  0  0
    5.7962    2.9784  -17.6841 S   0  0  0  0  0  0  0  0  0  0  0  0
    3.9099    0.7791  -19.8805 H   0  0  0  0  0  0  0  0  0  0  0  0
    4.0429   -1.6714  -20.2220 H   0  0  0  0  0  0  0  0  0  0  0  0
    7.3797   -1.1350  -22.8815 H   0  0  0  0  0  0  0  0  0  0  0  0
    6.8324    4.3255  -20.0208 H   0  0  0  0  0  0  0  0  0  0  0  0
    7.7283    3.0248  -20.8766 H   0  0  0  0  0  0  0  0  0  0  0  0
    7.0886    1.4328  -19.0369 H   0  0  0  0  0  0  0  0  0  0  0  0
    8.0893    2.8084  -18.4600 H   0  0  0  0  0  0  0  0  0  0  0  0
    5.3396    4.6508  -21.9567 H   0  0  0  0  0  0  0  0  0  0  0  0
    6.1776    3.3585  -22.8809 H   0  0  0  0  0  0  0  0  0  0  0  0
    4.3987    3.2833  -22.6431 H   0  0  0  0  0  0  0  0  0  0  0  0
    3.5279    3.3285  -20.5002 H   0  0  0  0  0  0  0  0  0  0  0  0
    3.1487    3.7193  -17.1124 H   0  0  0  0  0  0  0  0  0  0  0  0
    2.3763    3.7799  -18.6615 H   0  0  0  0  0  0  0  0  0  0  0  0
  1  2  2  0  0  0  0
  1  4  1  0  0  0  0
  2  5  1  0  0  0  0
  3  5  2  0  0  0  0
  3  6  1  0  0  0  0
  4  6  2  0  0  0  0
  4 10  1  0  0  0  0
  5 14  1  0  0  0  0
  6 15  1  0  0  0  0
  7 12  2  0  0  0  0
  7 13  1  0  0  0  0
  7 16  1  0  0  0  0
  8  9  1  0  0  0  0
  8 10  1  0  0  0  0
  9 16  1  0  0  0  0
 10 11  1  0  0  0  0
 10 12  1  0  0  0  0
  1 17  1  0  0  0  0
  2 18  1  0  0  0  0
  3 19  1  0  0  0  0
  8 20  1  0  0  0  0
  8 21  1  0  0  0  0
  9 22  1  0  0  0  0
  9 23  1  0  0  0  0
 11 24  1  0  0  0  0
 11 25  1  0  0  0  0
 11 26  1  0  0  0  0
 12 27  1  0  0  0  0
 13 28  1  0  0  0  0
 13 29  1  0  0  0  0
M  CHG  1  12   1
M  END
> <OMEGA_C>
EoKVQBbNvT4vOKTB8d2XQPaVgr8Bw6XBXUHUQJ0ZN79QyrHBF9OyQKywnz+/YqnBvmu3QEA6yL/c
eazBoTjSQCfaLT/yTbDBBT6MQPEvUECFtpXBglrcQKh9T0D9n6HBDInjQPRGIUAn95bBXQqyQGx1
MUBE/qbBXFqrQLLFZEAEeLHBZXKMQMJDSUCNNaDBwEpMQJmLZ0Ci2ZDBYE+6QJ3UOcDYv63Ba0/v
QKTQuD94fLXBtXq5QGGePkACeY3BSzt6QOxzRz8yC5/Bel+BQPLv1b+exqHBQSbsQNRIkb9dDbfB
4KLaQHxqikCQKqDB1k33QMmWQUAtA6fBhtXiQFxmtz+eS5jB2W0BQUO9M0AUrpPBFt6qQGrTlEBd
p6/B+K7FQF7yVkAtDLfBVcKMQAgiUkAOJbXBdchhQG0FVUB5AKTB1INJQGQJbkAi5ojB8hQYQEDp
cUC2SpXBNTvTQHXgNz/dG7DB9qfXQAYyKL+aIbLByP6ZQJbdjb971qbBPFayQL8Tmz9JV6nBFCq7
QHQgyb/yc63BIS6VQLTbiD5qvqTBTbWMQAY8UUDKvpXBxjjcQJNCTUDg56HBQ+XjQC6rIEAKKpfB
y2WxQBheL0A6AqfBoLarQA0EYEB8trHBbJ+MQCpTS0ABQaDBAjtNQOQbZ0CvxpDBOaa/QIpUOcBq
S6/BVdJoQEsoID8tSJ7B/BG6QPcKPkCEl43BvkPpQFPftD9oxbPBqvrwQHRegb8QSbfBMfSDQNFA
6L8IUqPB7v/aQFpuiUDRnqDBWbX2QGfYPUBDX6fBt4fjQDLatT9SXJjBbJ0BQYw1NEAZ/JPBHACr
QKWnkkBWK7DBzZjGQLjtUEBBErfBWYGNQItXTECOgLXB8Q5jQCXzWkBMCaTBhJNKQAesa0CpzYjB
6uUYQGxVckCSKZXB

> <OMEGA_E>
YLZPPvgyhD4=

> <OMEGA_NBR>
      1401

$$$$
221270
  -OEChem-04172616093D

 44 46  0     1  0  0  0  0  0999 V2000
    6.6523   -0.6886  -22.2034 C   0  0  0  0  0  0  0  0  0  0  0  0
    6.6271    0.6955  -21.9718 C   0  0  0  0  0  0  0  0  0  0  0  0
    6.0423   -4.2095  -19.7554 C   0  0  0  0  0  0  0  0  0  0  0  0
    5.1342   -2.9190  -17.8862 C   0  0  0  0  0  0  0  0  0  0  0  0
    5.6627   -1.5053  -21.6353 C   0  0  0  0  0  0  0  0  0  0  0  0
    7.2063   -4.4699  -19.0114 C   0  0  0  0  0  0  0  0  0  0  0  0
    6.2970   -3.1886  -17.1386 C   0  0  0  0  0  0  0  0  0  0  0  0
    4.6497    0.4343  -20.5691 C   0  0  0  0  0  0  0  0  0  0  0  0
    5.6182    1.2683  -21.1569 C   0  0  0  0  0  0  0  0  0  0  0  0
    4.9994   -3.4432  -19.1918 C   0  0  0  0  0  0  0  0  0  0  0  0
    4.6647   -0.9373  -20.8064 C   0  0  0  0  0  0  0  0  0  0  0  0
    7.3283   -3.9723  -17.6984 C   0  0  0  0  0  0  0  0  0  0  0  0
    4.4146    3.2613  -18.7378 C   0  0  0  0  0  0  0  0  0  0  0  0
    6.9464    3.1881  -20.2261 C   0  0  0  0  0  0  0  0  0  0  0  0
    7.1260    2.4824  -18.8724 C   0  0  0  0  0  0  0  0  0  0  0  0
    5.6089    2.7694  -20.8879 C   0  0  1  0  0  0  0  0  0  0  0  0
    5.4308    3.4885  -22.2434 C   0  0  0  0  0  0  0  0  0  0  0  0
    3.7658   -3.1367  -20.0112 C   0  0  0  0  0  0  0  0  0  0  0  0
    4.4381    3.1916  -20.0529 N   0  3  0  0  0  0  0  0  0  0  0  0
    3.2032    3.5478  -18.1284 N   0  0  0  0  0  0  0  0  0  0  0  0
    3.6654   -1.6842  -20.1978 N   0  0  0  0  0  0  0  0  0  0  0  0
    5.8378    3.0527  -17.7078 S   0  0  0  0  0  0  0  0  0  0  0  0
    8.7527   -4.3449  -16.7593 Cl  0  0  0  0  0  0  0  0  0  0  0  0
    7.4291   -1.1227  -22.8154 H   0  0  0  0  0  0  0  0  0  0  0  0
    7.3808    1.3280  -22.4170 H   0  0  0  0  0  0  0  0  0  0  0  0
    5.9459   -4.5960  -20.7592 H   0  0  0  0  0  0  0  0  0  0  0  0
    4.3470   -2.3130  -17.4625 H   0  0  0  0  0  0  0  0  0  0  0  0
    5.6620   -2.5676  -21.8303 H   0  0  0  0  0  0  0  0  0  0  0  0
    8.0065   -5.0509  -19.4456 H   0  0  0  0  0  0  0  0  0  0  0  0
    6.3993   -2.7959  -16.1378 H   0  0  0  0  0  0  0  0  0  0  0  0
    3.8903    0.8606  -19.9303 H   0  0  0  0  0  0  0  0  0  0  0  0
    6.9464    4.2768  -20.0687 H   0  0  0  0  0  0  0  0  0  0  0  0
    7.7794    2.9135  -20.8899 H   0  0  0  0  0  0  0  0  0  0  0  0
    7.0378    1.3948  -19.0120 H   0  0  0  0  0  0  0  0  0  0  0  0
    8.1195    2.7203  -18.4645 H   0  0  0  0  0  0  0  0  0  0  0  0
    5.4200    4.5767  -22.0832 H   0  0  0  0  0  0  0  0  0  0  0  0
    6.2644    3.2245  -22.9107 H   0  0  0  0  0  0  0  0  0  0  0  0
    4.4810    3.1761  -22.7020 H   0  0  0  0  0  0  0  0  0  0  0  0
    3.8420   -3.6302  -20.9914 H   0  0  0  0  0  0  0  0  0  0  0  0
    2.8725   -3.5036  -19.4845 H   0  0  0  0  0  0  0  0  0  0  0  0
    3.6001    3.4428  -20.5373 H   0  0  0  0  0  0  0  0  0  0  0  0
    3.1514    3.6311  -17.1332 H   0  0  0  0  0  0  0  0  0  0  0  0
    2.3809    3.6713  -18.6838 H   0  0  0  0  0  0  0  0  0  0  0  0
    3.5457   -1.2950  -19.2845 H   0  0  0  0  0  0  0  0  0  0  0  0
  1  2  2  0  0  0  0
  1  5  1  0  0  0  0
  2  9  1  0  0  0  0
  3  6  2  0  0  0  0
  3 10  1  0  0  0  0
  4  7  1  0  0  0  0
  4 10  2  0  0  0  0
  5 11  2  0  0  0  0
  6 12  1  0  0  0  0
  7 12  2  0  0  0  0
  8  9  2  0  0  0  0
  8 11  1  0  0  0  0
  9 16  1  0  0  0  0
 10 18  1  0  0  0  0
 11 21  1  0  0  0  0
 12 23  1  0  0  0  0
 13 19  2  0  0  0  0
 13 20  1  0  0  0  0
 13 22  1  0  0  0  0
 14 15  1  0  0  0  0
 14 16  1  0  0  0  0
 15 22  1  0  0  0  0
 16 17  1  0  0  0  0
 16 19  1  0  0  0  0
 18 21  1  0  0  0  0
  1 24  1  0  0  0  0
  2 25  1  0  0  0  0
  3 26  1  0  0  0  0
  4 27  1  0  0  0  0
  5 28  1  0  0  0  0
  6 29  1  0  0  0  0
  7 30  1  0  0  0  0
  8 31  1  0  0  0  0
 14 32  1  0  0  0  0
 14 33  1  0  0  0  0
 15 34  1  0  0  0  0
 15 35  1  0  0  0  0
 17 36  1  0  0  0  0
 17 37  1  0  0  0  0
 17 38  1  0  0  0  0
 18 39  1  0  0  0  0
 18 40  1  0  0  0  0
 19 41  1  0  0  0  0
 20 42  1  0  0  0  0
 20 43  1  0  0  0  0
 21 44  1  0  0  0  0
M  CHG  1  19   1
M  END
> <OMEGA_C>
8N/UQGhKML+DoLHBWRHUQEIMMj81xq/BzlrBQPKzhsAXC57BREukQJDROsDdFo/BqTS1QJCuwL8b
Fa3BEJrmQHAJj8BPF5jBS4HJQFASTMDzG4nBGcqUQOBh3j6UjaTBHMizQPhWoj9NQanBYvufQC5d
XMDBiJnBO0WVQDDyb79uc6bBtIHqQMw5fsBmlo3BoESNQNC4UEAN55XBBEneQF0JTED4zqHBKwjk
QFffHkCj+pbBFnyzQHY+MUBhGqfBw8itQJ5DX0CB8rHB9QJxQAjASMD/FqDBywSOQE5DTEBTbKDB
oQBNQKgPY0DiBpHBn5ZqQEiU178ilaHB+M66QK5eQ0CXqY3BFwsMQRQJi8AmE4bBcrvtQI+0j7/y
hbbBwC/sQIv8qT8PVrPBN0W+QNISk8DsEqbBzxqLQAwIFMA9s4vBVy+1QCJTJMCApK7BjhoAQSKh
ocCQkJvB/8bMQELvMsA7GoHBcvp4QLhOXD9UcZ/BH0neQDnbiEC8jKDBMfH4QDZ3OkCFHqfBjDXh
QESKsj9+GJjBX+kBQasZLkA+t5PBU3CtQHN0kkBXqrDBU3bIQJleTkAfSbfBIWSPQD5FS0C4nbXB
3eN1QMhUaMBY7qfBU9c3QM86YMBB4JvB4GdmQBZWXEB5TKTBV7FJQBxkaEC/EInB3F8YQF32akCD
eJXB3OxiQHzDpb+aRprB

> <OMEGA_E>
DGRQPw==

> <OMEGA_NBR>
      2439

$$$$
50093280
  -OEChem-04172616093D

 29 30  0     1  0  0  0  0  0999 V2000
    5.7461   -1.5676  -21.6386 C   0  0  0  0  0  0  0  0  0  0  0  0
    6.6834   -0.7004  -22.2296 C   0  0  0  0  0  0  0  0  0  0  0  0
    4.7334   -1.0486  -20.8107 C   0  0  0  0  0  0  0  0  0  0  0  0
    6.6091    0.6853  -21.9942 C   0  0  0  0  0  0  0  0  0  0  0  0
    4.6570    0.3368  -20.5692 C   0  0  0  0  0  0  0  0  0  0  0  0
    5.5975    1.2233  -21.1600 C   0  0  0  0  0  0  0  0  0  0  0  0
    4.3971    3.2345  -18.7280 C   0  0  0  0  0  0  0  0  0  0  0  0
    6.8967    3.2240  -20.2430 C   0  0  0  0  0  0  0  0  0  0  0  0
    7.1404    2.5341  -18.8970 C   0  0  0  0  0  0  0  0  0  0  0  0
    5.5663    2.7422  -20.8830 C   0  0  1  0  0  0  0  0  0  0  0  0
    5.3725    3.4950  -22.2204 C   0  0  0  0  0  0  0  0  0  0  0  0
    4.3981    3.1296  -20.0393 N   0  3  0  0  0  0  0  0  0  0  0  0
    3.2068    3.5924  -18.1157 N   0  0  0  0  0  0  0  0  0  0  0  0
    5.8194    2.9710  -17.7049 S   0  0  0  0  0  0  0  0  0  0  0  0
    5.8038   -2.6307  -21.8202 H   0  0  0  0  0  0  0  0  0  0  0  0
    7.4609   -1.0986  -22.8647 H   0  0  0  0  0  0  0  0  0  0  0  0
    4.0128   -1.7145  -20.3593 H   0  0  0  0  0  0  0  0  0  0  0  0
    7.3301    1.3451  -22.4538 H   0  0  0  0  0  0  0  0  0  0  0  0
    3.8786    0.7280  -19.9309 H   0  0  0  0  0  0  0  0  0  0  0  0
    6.8471    4.3116  -20.0859 H   0  0  0  0  0  0  0  0  0  0  0  0
    7.7287    2.9894  -20.9232 H   0  0  0  0  0  0  0  0  0  0  0  0
    7.1488    1.4441  -19.0449 H   0  0  0  0  0  0  0  0  0  0  0  0
    8.1122    2.8570  -18.4952 H   0  0  0  0  0  0  0  0  0  0  0  0
    5.3491    4.5785  -22.0319 H   0  0  0  0  0  0  0  0  0  0  0  0
    6.2061    3.2588  -22.8982 H   0  0  0  0  0  0  0  0  0  0  0  0
    4.4244    3.1829  -22.6827 H   0  0  0  0  0  0  0  0  0  0  0  0
    3.5396    3.3269  -20.5128 H   0  0  0  0  0  0  0  0  0  0  0  0
    3.1671    3.6955  -17.1218 H   0  0  0  0  0  0  0  0  0  0  0  0
    2.3875    3.7477  -18.6676 H   0  0  0  0  0  0  0  0  0  0  0  0
  1  2  1  0  0  0  0
  1  3  2  0  0  0  0
  2  4  2  0  0  0  0
  3  5  1  0  0  0  0
  4  6  1  0  0  0  0
  5  6  2  0  0  0  0
  6 10  1  0  0  0  0
  7 12  2  0  0  0  0
  7 13  1  0  0  0  0
  7 14  1  0  0  0  0
  8  9  1  0  0  0  0
  8 10  1  0  0  0  0
  9 14  1  0  0  0  0
 10 11  1  0  0  0  0
 10 12  1  0  0  0  0
  1 15  1  0  0  0  0
  2 16  1  0  0  0  0
  3 17  1  0  0  0  0
  4 18  1  0  0  0  0
  5 19  1  0  0  0  0
  8 20  1  0  0  0  0
  8 21  1  0  0  0  0
  9 22  1  0  0  0  0
  9 23  1  0  0  0  0
 11 24  1  0  0  0  0
 11 25  1  0  0  0  0
 11 26  1  0  0  0  0
 12 27  1  0  0  0  0
 13 28  1  0  0  0  0
 13 29  1  0  0  0  0
M  CHG  1  12   1
M  END
> <OMEGA_C>
x9+3QIaoyL/HG63BcN7VQLlMM78r1rHBAniXQKQ4hr9OfKbBFH7TQKxwLz8o9K/BZQaVQLprrD7P
jaTBrB6zQMqUnD+kR6nBarWMQB8CT0AC05XB9rHcQCdWTkCh8aHBeH7kQLcuIkD9LJfBAx+yQDeA
L0ByEKfBOOurQMmuX0Buw7HB37yMQPBKSECLUKDBOzxNQLDqZUDb7JDBxji6QIglPkCWo43BoLi5
QGZdKMCvj67BrL/uQFqejL/X6rbB9WiAQHVz27/H36LBUZDqQAYtrD9xobPBMzt4QA1bOj+Pcp/B
ShvbQJ/4iUDhr6DByFH3QEBSP0C/YqfBmMLkQCfZuD/5W5jBfMsBQWPZNkAa9pPB9CurQCODkkA9
QbDBBJjGQLaQUEBvL7fBS5SNQC21S0AddrXBQoliQHfsVEApGqTBCrFKQA+DbEBj+YjB08wYQKXa
b0A7V5XB

> <OMEGA_E>
rMCHPg==

> <OMEGA_NBR>
      3238

$$$$
50225219
  -OEChem-04172616093D

 33 34  0     1  0  0  0  0  0999 V2000
    4.6604    0.3836  -20.5545 C   0  0  0  0  0  0  0  0  0  0  0  0
    6.5739    0.7359  -22.0286 C   0  0  0  0  0  0  0  0  0  0  0  0
    4.7590   -1.0003  -20.7656 C   0  0  0  0  0  0  0  0  0  0  0  0
    6.6676   -0.6443  -22.2424 C   0  0  0  0  0  0  0  0  0  0  0  0
    5.5769    1.2662  -21.1781 C   0  0  0  0  0  0  0  0  0  0  0  0
    5.7758   -1.5242  -21.6073 C   0  0  0  0  0  0  0  0  0  0  0  0
    4.4027    3.2608  -18.7319 C   0  0  0  0  0  0  0  0  0  0  0  0
    6.9156    3.1913  -20.2351 C   0  0  0  0  0  0  0  0  0  0  0  0
    7.1158    2.4785  -18.8915 C   0  0  0  0  0  0  0  0  0  0  0  0
    5.5706    2.7707  -20.8894 C   0  0  1  0  0  0  0  0  0  0  0  0
    5.3977    3.5284  -22.2266 C   0  0  0  0  0  0  0  0  0  0  0  0
    5.1920   -3.7874  -21.0293 C   0  0  0  0  0  0  0  0  0  0  0  0
    4.4064    3.1716  -20.0450 N   0  3  0  0  0  0  0  0  0  0  0  0
    3.2029    3.5734  -18.1144 N   0  0  0  0  0  0  0  0  0  0  0  0
    5.9540   -2.8748  -21.8468 O   0  0  0  0  0  0  0  0  0  0  0  0
    5.8313    3.0254  -17.7115 S   0  0  0  0  0  0  0  0  0  0  0  0
    3.8840    0.7769  -19.9151 H   0  0  0  0  0  0  0  0  0  0  0  0
    7.2695    1.4016  -22.5177 H   0  0  0  0  0  0  0  0  0  0  0  0
    4.0594   -1.6690  -20.2863 H   0  0  0  0  0  0  0  0  0  0  0  0
    7.4303   -1.0350  -22.8998 H   0  0  0  0  0  0  0  0  0  0  0  0
    6.9110    4.2787  -20.0690 H   0  0  0  0  0  0  0  0  0  0  0  0
    7.7430    2.9270  -20.9101 H   0  0  0  0  0  0  0  0  0  0  0  0
    7.0389    1.3911  -19.0387 H   0  0  0  0  0  0  0  0  0  0  0  0
    8.1101    2.7248  -18.4908 H   0  0  0  0  0  0  0  0  0  0  0  0
    5.3911    4.6118  -22.0366 H   0  0  0  0  0  0  0  0  0  0  0  0
    6.2314    3.2793  -22.8996 H   0  0  0  0  0  0  0  0  0  0  0  0
    4.4474    3.2327  -22.6952 H   0  0  0  0  0  0  0  0  0  0  0  0
    5.4249   -4.8225  -21.3198 H   0  0  0  0  0  0  0  0  0  0  0  0
    5.4521   -3.6363  -19.9712 H   0  0  0  0  0  0  0  0  0  0  0  0
    4.1179   -3.5992  -21.1734 H   0  0  0  0  0  0  0  0  0  0  0  0
    3.5540    3.3919  -20.5192 H   0  0  0  0  0  0  0  0  0  0  0  0
    3.1606    3.6603  -17.1190 H   0  0  0  0  0  0  0  0  0  0  0  0
    2.3790    3.7122  -18.6639 H   0  0  0  0  0  0  0  0  0  0  0  0
  1  3  2  0  0  0  0
  1  5  1  0  0  0  0
  2  4  1  0  0  0  0
  2  5  2  0  0  0  0
  3  6  1  0  0  0  0
  4  6  2  0  0  0  0
  5 10  1  0  0  0  0
  6 15  1  0  0  0  0
  7 13  2  0  0  0  0
  7 14  1  0  0  0  0
  7 16  1  0  0  0  0
  8  9  1  0  0  0  0
  8 10  1  0  0  0  0
  9 16  1  0  0  0  0
 10 11  1  0  0  0  0
 10 13  1  0  0  0  0
 12 15  1  0  0  0  0
  1 17  1  0  0  0  0
  2 18  1  0  0  0  0
  3 19  1  0  0  0  0
  4 20  1  0  0  0  0
  8 21  1  0  0  0  0
  8 22  1  0  0  0  0
  9 23  1  0  0  0  0
  9 24  1  0  0  0  0
 11 25  1  0  0  0  0
 11 26  1  0  0  0  0
 11 27  1  0  0  0  0
 12 28  1  0  0  0  0
 12 29  1  0  0  0  0
 12 30  1  0  0  0  0
 13 31  1  0  0  0  0
 14 32  1  0  0  0  0
 14 33  1  0  0  0  0
M  CHG  1  13   1
M  END
> <OMEGA_C>
LSKVQBBlxD6Sb6TBeF3SQEJhPD+EOrDBHkqYQMQIgL/mH6bBO13VQGjwJL958LHByXWyQIYRoj+5
bKnBZ9O4QLIZw7+526zBLuOMQEqwUEDy2pXBpEzdQKw+TEBp4aHBi7TjQNyfHkDYIZfBu0KyQI9S
MUBzHafBwbmsQDPRYUAn0LHBLyWmQC9lcsADPKjBcAGNQHr7SkA7XKDB4vxMQHGyZEA56pDB/oa+
QDv8N8Anxq7BV5q6QMqfQUAUsY3BX5N4QPPiRj8IUp/BIKDoQDNosz9FJLTBqOaBQKSi1b9uSqLB
/8TtQG16hL+2MrfBASfdQB3riEA2jaDBZsb3QCpUO0DJR6fBSz7hQEYQsj9aT5jBHsMBQWZjLkAY
7ZPBPISsQB+Uk0DtSrDB1WfHQGzgUUBMMrfBIFGOQNvkTkDJj7XBE5mtQPpRmsDfjqrBoHeuQBW5
aMASxZ/BvsWDQKJYZsASY6nBeXRjQOUUWUBGJ6TB4kdKQHRCakDQ84jBLEIYQF6UbUCRT5XBIASS
QJK43j5HpaTBGubPQM6IJD9UdLDBQKCTQIIndb+buKXBEs7RQC8kQL8KZ7HBxM+wQMPhnz/D0qnB
fAq0QLomyL9Y0qvB8teNQBhGUUB/45XBAAvjQNxsK0CPB6DBFqLkQL13akAZzpbBuJG3QEeULEAz
aKbBpBC7QL+zZ0AEUrDB9mPWQEhuZMCdKbLBkDuRQMU4TUC4WqDBTHxLQGOkXUAcbZHBfEy1QJ2I
PMAs16vBWpm6QHldTEDahY3BaXFyQFLqYz+f2p/BT0/mQFAOoT+B0LTBKJR3QLYFyb/P1aHB6/Tp
QPuEmr8lY7bBYBv9QEb4OkCknaXB8+bnQAdF1T8Hz5zB//wBQZYyZ0Aw0pLBMivfQFjwlUAuwpnB
I+2/QAsXlUADsa3BkVTWQPtsU0CKRrXBU2udQON2Y0AFCbXBasjTQDU2lcBlerHB5a/SQOiOUcD6
lrrBgu/1QFC1T8CiPa/BHoFwQNiFYUCRqaTBJ0RFQFqnY0Dmf4nBtc4XQCqPYEChIZbB

> <OMEGA_E>
mGzJPuBl4D4=

> <OMEGA_NBR>
      4751

$$$$
50322753
  -OEChem-04172616093D

 36 37  0     1  0  0  0  0  0999 V2000
    4.6013    0.1226  -20.7040 C   0  0  0  0  0  0  0  0  0  0  0  0
    4.5743   -1.2240  -21.1014 C   0  0  0  0  0  0  0  0  0  0  0  0
    6.6933   -0.9280  -22.2588 C   0  0  0  0  0  0  0  0  0  0  0  0
    5.6746    0.9770  -21.0890 C   0  0  0  0  0  0  0  0  0  0  0  0
    5.6208   -1.7500  -21.8749 C   0  0  0  0  0  0  0  0  0  0  0  0
    6.7272    0.4251  -21.8764 C   0  0  0  0  0  0  0  0  0  0  0  0
    4.3579    3.5912  -18.8411 C   0  0  0  0  0  0  0  0  0  0  0  0
    7.1749    3.9131  -18.9603 C   0  0  0  0  0  0  0  0  0  0  0  0
    7.0040    2.5093  -19.5786 C   0  0  2  0  0  0  0  0  0  0  0  0
    5.7618    2.4252  -20.5416 C   0  0  1  0  0  0  0  0  0  0  0  0
    5.8921    3.4436  -21.7105 C   0  0  0  0  0  0  0  0  0  0  0  0
    5.8111    1.7894  -16.4800 C   0  0  0  0  0  0  0  0  0  0  0  0
    7.0587    1.3669  -18.5134 C   0  0  0  0  0  0  0  0  0  0  0  0
    4.4770    2.7694  -19.8550 N   0  3  0  0  0  0  0  0  0  0  0  0
    3.1858    3.5615  -18.1004 N   0  0  0  0  0  0  0  0  0  0  0  0
    5.8236    1.1943  -17.7911 O   0  0  0  0  0  0  0  0  0  0  0  0
    5.5978   -3.0481  -22.2478 F   0  0  0  0  0  0  0  0  0  0  0  0
    7.8004    1.1593  -22.2517 F   0  0  0  0  0  0  0  0  0  0  0  0
    5.6220    4.7226  -18.3813 S   0  0  0  0  0  0  0  0  0  0  0  0
    3.7980    0.5157  -20.0985 H   0  0  0  0  0  0  0  0  0  0  0  0
    3.7475   -1.8555  -20.8117 H   0  0  0  0  0  0  0  0  0  0  0  0
    7.4975   -1.3379  -22.8518 H   0  0  0  0  0  0  0  0  0  0  0  0
    7.8516    3.8231  -18.0978 H   0  0  0  0  0  0  0  0  0  0  0  0
    7.6331    4.5639  -19.7196 H   0  0  0  0  0  0  0  0  0  0  0  0
    7.8838    2.3564  -20.2209 H   0  0  0  0  0  0  0  0  0  0  0  0
    5.9526    4.4638  -21.3037 H   0  0  0  0  0  0  0  0  0  0  0  0
    6.8025    3.2246  -22.2878 H   0  0  0  0  0  0  0  0  0  0  0  0
    5.0132    3.3624  -22.3671 H   0  0  0  0  0  0  0  0  0  0  0  0
    4.8357    1.6097  -16.0044 H   0  0  0  0  0  0  0  0  0  0  0  0
    6.6063    1.3409  -15.8663 H   0  0  0  0  0  0  0  0  0  0  0  0
    5.9823    2.8725  -16.5674 H   0  0  0  0  0  0  0  0  0  0  0  0
    7.2966    0.4235  -19.0266 H   0  0  0  0  0  0  0  0  0  0  0  0
    7.8543    1.6022  -17.7912 H   0  0  0  0  0  0  0  0  0  0  0  0
    3.6426    2.3376  -20.1975 H   0  0  0  0  0  0  0  0  0  0  0  0
    3.0715    4.1768  -17.3204 H   0  0  0  0  0  0  0  0  0  0  0  0
    2.4549    2.9248  -18.3462 H   0  0  0  0  0  0  0  0  0  0  0  0
  1  2  2  0  0  0  0
  1  4  1  0  0  0  0
  2  5  1  0  0  0  0
  3  5  2  0  0  0  0
  3  6  1  0  0  0  0
  4  6  2  0  0  0  0
  4 10  1  0  0  0  0
  5 17  1  0  0  0  0
  6 18  1  0  0  0  0
  7 14  2  0  0  0  0
  7 15  1  0  0  0  0
  7 19  1  0  0  0  0
  8  9  1  0  0  0  0
  8 19  1  0  0  0  0
  9 10  1  0  0  0  0
  9 13  1  0  0  0  0
 10 11  1  0  0  0  0
 10 14  1  0  0  0  0
 12 16  1  0  0  0  0
 13 16  1  0  0  0  0
  1 20  1  0  0  0  0
  2 21  1  0  0  0  0
  3 22  1  0  0  0  0
  8 23  1  0  0  0  0
  8 24  1  0  0  0  0
  9 25  1  0  0  0  0
 11 26  1  0  0  0  0
 11 27  1  0  0  0  0
 11 28  1  0  0  0  0
 12 29  1  0  0  0  0
 12 30  1  0  0  0  0
 12 31  1  0  0  0  0
 13 32  1  0  0  0  0
 13 33  1  0  0  0  0
 14 34  1  0  0  0  0
 15 35  1  0  0  0  0
 15 36  1  0  0  0  0
M  CHG  1  14   1
M  END
> <OMEGA_C>
BD6TQOAG+z20oaXB9GCSQMqqnL+zz6jBhC/WQACRbb8RErLB7JW1QNgZej9AtqjB2t2zQAYA4L/S
/67BYkXXQOCs2T7wAq/BFHSLQM3VZUClupbBiJjlQJ9wekDCrpfB1iDgQOeXIEAEoZzBDmG4QOE2
G0A4VaTB7ou8QO9jXEA0r63B2PS5QKYL5T/61oPB0ODhQLL3rj9yG5TBgEOPQNc9MUAZ157BL+RL
QIfvY0CUzZDB0Fq6QALgmD8jVI7BZCGzQBsUQ8CS+7HB2pz5QFZklD+MA7LBHuezQKofl0DXDJPB
PxNzQCQGBD+0yaDBa9dvQHmA7b9DfqbBjevvQLtAq7980LbBmUD7QHqtdEBjyJDBTkL0QMwLkkC3
wZ3BJ0j8QPfOFkB+xKHB+nu+QHnXjkD/barB2q3ZQBRfTkBlTbLBYGygQAQxV0DC77LB5r2aQJsJ
zj//CIDBzmbTQDijqz9x3H3Bvm6/QBTXN0AEioTBi33pQDTX2D58NpjB1Vb7QIIVzT9iVI7Bjh9p
QJybFUB2lKHB9ZNEQEaohUA0kIrBmh0dQOIvO0AXxZLBTzqQQJy4mT5mI6bBE7ONQK9giL9+sKjB
c2HUQI4Cdr86zbDBN++0QDOXiD9s9ajB486vQJ852b/y+K3BAx3XQOxL0j6KZ67B04uMQLpiY0Au
cpbBMxjlQGTdfkDQ85fBb1HgQKDqJECo75zBV8K5QGLzIUBY96TBJxvBQMQRX0DGk67BSxLbQPee
zj98Y4HBBY7bQB1LuD+ygpTBR4KQQLANP0CM45/BYppLQPwsXEAOHpHBD93zQBmP2j9UDovBV3qt
QPzeQMBYU7DBL4L7QJPHhz+sILHBObu1QNhej0C+YJDBrwBsQLdWRj8r/KHBw/NiQA6z0L98labB
eJTuQK/Lub9Q2LTBYW8AQQqwfkDzi5LBf2bqQIjClkBZaJ7BbYz9QFvOF0CejqHBLXjEQJ+OkED/
pavBDmveQBUxTEAP17LBoqOlQBI4W0BDD7TBb6TvQL9W6j8M7HTBjLPAQA7jFUDmrIHB8+XNQFc3
GT/8ooDBCZi5QE8LrD+UU5LBO8vmQO4B/j6gDZjBT1BrQOblNUBQFqTBNqRDQLFceEAbAYrB3awb
QAjKOkAgY5TBk0aSQLDbBD5iJ6bBT/6QQJCfmr+0m6nBbyTXQNC6c789y7HBx+e1QAx1dT9KlqjB
5UizQAKT379Pd6/BbdXYQFhmxj4ZYq7BrKGKQIt0aUCFMZfBTeHkQFkXdUCQNpfBI1PbQMVnGUD2
G5vBPWW4QHu2GUDkEaTBf7TCQLemWUCdSa3BVA4LQZSWYj/6JYzBX2/OQGLwuD9Xo5HBHkiOQKXW
NUCNeZ/BwsRNQP9UYkCss5DBTYbtQI7fuj8LNonBU9SxQJveQcCw2rLBz9D8QHZmiz+ym7DBR0y0
QEBOl0B7IJPBg8BvQD0fCD9HmaHBmyVrQDpd6b/twKfBVJXxQBuZr7/KOrbBEMP6QD+UcUCHVZDB
EE70QBZgjEBrv53B8eH4QA16/z+Wpp7BbXHEQC6EjUC4DarBrpbhQCupSEDW77DBfVypQFBgVkB/
YbPBmQ0WQREhbz/1SYXBC70IQb3ZKL5cgI7B8uARQVAzuT/K5pLBgG6vQPPP4j80ZY7B7oPLQP8w
1j4vt5TBlvFmQEcjIEDp5aLBVkFKQGjwgUAu54nBIqsdQLikO0Bw0JLBPFbXQIiv9D4hEa/BWCHa
QHrxXL8PTrLBXDKWQAJHqr/2l6nBLmC0QKjCcD9E1KjBbpu5QGw04r9Hja/BID2TQADysDsFJabB
ZpyLQOApZUAShJbBoPvlQNQgdkCty5fBbLrfQE4SHUDb6ZzBKPu2QAqlGEAwTqTBQGa7QHgJWUAc
tq3BFCu3QBAmyD9cvITB0NHiQPhApT9bmZTByKaOQDwyMUBKtJ7Bz/FKQNZ3ZkAO2JDBCNS6QL6I
gT/VUY/BpES8QFS4Q8DUqLLBHxlhQLg/pz5eLaDB7le1QCqIlECNaJLBZznwQMHJlT9qXLHBTE/1
QO95mb9N6rbB9e55QGS1AcAyo6fBd/38QOVQb0CvMJHBnGLzQHVwkECk7p3Bkif7QDUwFEARUaLB
REC9QKlIjUBph6rBCajYQCutSkBkQ7LBaGufQHtzU0BKAbPBzsiXQJSZpj/SWIHBaqfQQBykkz8/
Qn/B30a6QJUgKkAIIoXB51rtQCFDwz6TyZjBHqH6QCROyD/Gf47BSuZmQIykF0DGc6HB7EhEQAXA
hkATj4rBUZsaQG1gQEAaCpPBCn7XQMAU5z4xTK7BdhnYQEA0ab+gArHB+h+RQJrclr/wVanBsPuz
QChQgz824qjByMa0QPyV3L+6ma7BLISQQECsND5uT6bBhpaMQEL9Y0AJX5bBqqrlQFZkeUCj0JfB
4k/fQGOyH0AswZzBEq+4QB0EH0Ajw6TB9uLBQC71WkBlaK7B4uLqQJxi1T+ugYHB2tnZQJDDsT8U
GpTB/haQQLg1QECN2p/BJJpLQB4kXkCkCJHBrs76QNxuvz9CM4zBHgO1QHPoQcByWLHBqMBbQNxl
GT8pwaDBAsK2QLj/jUDFNZDBtn/yQDVziT/eXLDBSLvzQL6qqr/Z8rTBiMNrQIA057/8lqfBsL8A
QVmbd0CBbpLBzZjrQGvMk0BqSZ7BLkj8QHVVEECgXqHBuELFQCqcjkC7jqvB1K7fQMvZRkCdXLLB
sjunQDw8V0AQI7TBavgCQdPb3j/y0HfB1anXQKiSJUCWFoHBiNnWQO3sTT8aq37BmXe6QEN1wD9a
OZDBNLnbQDEbzT5r8JfBVaZqQLSbOkCuLqTBf5JEQE1qeUCh2YnBva8aQDamPkA5XpTBVKORQGDo
Cj46fKbB8NWPQG5ymL+QK6rBdHfXQMBCeL8GlLHBJKS2QIzHbz/yPajBvMGyQNpr37/IrK/BBKjZ
QBjTuD4q8a3B0KiKQECfaECeHpfBtCjlQPCjfEBovJfBAm/dQOh3HkBmyJrBXEm5QEQ0GEDMp6PB
dG/BQJxwVkA0M63B0OLrQDhwDr/w4pPB8v3TQEAD2D8YLpDB1CSPQPIPMkA4B5/BYKlMQMjJYkCC
z5DBxizIQJBHoz5m85HBoBKxQGKiQcBCHrPBJEP+QG4ohj/yxK/BLj+zQGNHmUAKhpPB+jFtQIaO
DT/+Q6LBxg9nQHKD5L/Sw6jBly/yQJTasr8a3LXB70P8QKIdf0DGGpHBkmHyQNpCj0CktJ7BqSb7
QBLNBEBkPZ7BPHnDQERAjECnM6rBD6XfQA9BRUBfLLHBSO+mQOZvUUBJ9bLBUTLgQKF0yr8GKZXB
ZEv9QPZYX75HCpvB2L0AQaTZCb9k8IzBh+vwQKCc2j8+K4vBkqK5QNAmDEC384vBR1xpQEQtGED+
JqLBIJZGQOz3g0AzV4rB1UkeQKNtOUDvuZLBGBTYQJRX4T53iK7BJInZQLq5ZL8IDbLBIsSTQNHL
pb8UEarBmNe0QErubT9ng6jB+IO3QIvC4b9cv6/B3hWSQAAgCj15YKbBGHuLQBZFZ0CEuZbBcATm
QFq9d0Cx2ZfBFHTdQO7MGkDhS5vBnAq4QIJ7F0Ab16PBtPzAQP4SVUCWZa3BmBDxQAYqG7/vZpXB
iHzVQLv+yT8B35DBoNWOQAZVNUBwIZ/BVN1LQB4KZEBA15DBmCLMQJgsSD595ZLB9k+5QPaRQ8AX
4rLBsA5fQHy9wz7+eKDBYJa1QMFOlUBxS5LBhDfyQPN4jT+NcLDBh9L0QDTdn7+shrbB45FyQNIR
+78cg6jBX0T/QNIOeEAbuJHBN8DwQKhJjkBk2p7BN436QDLzAUAeJ5/Bfn7DQJaUi0DqbarBoCnf
QAG9QkAtTrHB6p2mQBXEUEByM7PBGxHnQMOh0r/a1JbBmlUAQfqkVr7Un5zBWdgDQaVTE79Kqo7B
zFvyQKUS0T9Q24vBlkm6QFU+AUDfiozBfIFnQL3jIUCioaLBdsxFQJ6rg0AJNorBCr0bQD1oPkCB
OZPB

> <OMEGA_E>
XL8QPzwnFD94whk/tFcaP9wgHD/0ph4/nEAhPw==

> <OMEGA_NBR>
      9781

$$$$
50322754
  -OEChem-04172616093D

 36 37  0     1  0  0  0  0  0999 V2000
    4.7613    0.2302  -20.4963 C   0  0  0  0  0  0  0  0  0  0  0  0
    4.8232   -1.1424  -20.7849 C   0  0  0  0  0  0  0  0  0  0  0  0
    6.6191   -0.7390  -22.3802 C   0  0  0  0  0  0  0  0  0  0  0  0
    5.6286    1.1404  -21.1533 C   0  0  0  0  0  0  0  0  0  0  0  0
    5.7548   -1.6257  -21.7203 C   0  0  0  0  0  0  0  0  0  0  0  0
    6.5571    0.6362  -22.1138 C   0  0  0  0  0  0  0  0  0  0  0  0
    4.3862    3.2768  -18.6958 C   0  0  0  0  0  0  0  0  0  0  0  0
    7.0985    2.5880  -18.8003 C   0  0  0  0  0  0  0  0  0  0  0  0
    6.9409    3.1038  -20.2455 C   0  0  1  0  0  0  0  0  0  0  0  0
    5.5541    2.6485  -20.8598 C   0  0  1  0  0  0  0  0  0  0  0  0
    5.2267    3.3279  -22.2284 C   0  0  0  0  0  0  0  0  0  0  0  0
    5.7316    6.4003  -21.0701 C   0  0  0  0  0  0  0  0  0  0  0  0
    7.2213    4.6217  -20.3514 C   0  0  0  0  0  0  0  0  0  0  0  0
    4.3722    2.9809  -19.9806 N   0  3  0  0  0  0  0  0  0  0  0  0
    3.1929    3.6648  -18.1083 N   0  0  0  0  0  0  0  0  0  0  0  0
    6.0474    5.4087  -20.0710 O   0  0  0  0  0  0  0  0  0  0  0  0
    5.8141   -2.9455  -21.9962 F   0  0  0  0  0  0  0  0  0  0  0  0
    7.3855    1.4512  -22.8132 F   0  0  0  0  0  0  0  0  0  0  0  0
    5.8309    3.2730  -17.6898 S   0  0  0  0  0  0  0  0  0  0  0  0
    4.0498    0.5950  -19.7704 H   0  0  0  0  0  0  0  0  0  0  0  0
    4.1537   -1.8284  -20.2873 H   0  0  0  0  0  0  0  0  0  0  0  0
    7.3344   -1.1170  -23.0957 H   0  0  0  0  0  0  0  0  0  0  0  0
    7.0127    1.4914  -18.8034 H   0  0  0  0  0  0  0  0  0  0  0  0
    8.0918    2.8771  -18.4265 H   0  0  0  0  0  0  0  0  0  0  0  0
    7.7169    2.6019  -20.8421 H   0  0  0  0  0  0  0  0  0  0  0  0
    5.1583    4.4171  -22.0905 H   0  0  0  0  0  0  0  0  0  0  0  0
    6.0237    3.0992  -22.9511 H   0  0  0  0  0  0  0  0  0  0  0  0
    4.2674    2.9455  -22.6072 H   0  0  0  0  0  0  0  0  0  0  0  0
    4.8255    6.9475  -20.7708 H   0  0  0  0  0  0  0  0  0  0  0  0
    6.5708    7.1050  -21.1653 H   0  0  0  0  0  0  0  0  0  0  0  0
    5.5578    5.9044  -22.0366 H   0  0  0  0  0  0  0  0  0  0  0  0
    8.0082    4.8885  -19.6306 H   0  0  0  0  0  0  0  0  0  0  0  0
    7.5657    4.8488  -21.3711 H   0  0  0  0  0  0  0  0  0  0  0  0
    3.4758    2.9761  -20.4238 H   0  0  0  0  0  0  0  0  0  0  0  0
    3.1732    3.9301  -17.1443 H   0  0  0  0  0  0  0  0  0  0  0  0
    2.3513    3.6795  -18.6482 H   0  0  0  0  0  0  0  0  0  0  0  0
  1  2  2  0  0  0  0
  1  4  1  0  0  0  0
  2  5  1  0  0  0  0
  3  5  2  0  0  0  0
  3  6  1  0  0  0  0
  4  6  2  0  0  0  0
  4 10  1  0  0  0  0
  5 17  1  0  0  0  0
  6 18  1  0  0  0  0
  7 14  2  0  0  0  0
  7 15  1  0  0  0  0
  7 19  1  0  0  0  0
  8  9  1  0  0  0  0
  8 19  1  0  0  0  0
  9 10  1  0  0  0  0
  9 13  1  0  0  0  0
 10 11  1  0  0  0  0
 10 14  1  0  0  0  0
 12 16  1  0  0  0  0
 13 16  1  0  0  0  0
  1 20  1  0  0  0  0
  2 21  1  0  0  0  0
  3 22  1  0  0  0  0
  8 23  1  0  0  0  0
  8 24  1  0  0  0  0
  9 25  1  0  0  0  0
 11 26  1  0  0  0  0
 11 27  1  0  0  0  0
 11 28  1  0  0  0  0
 12 29  1  0  0  0  0
 12 30  1  0  0  0  0
 12 31  1  0  0  0  0
 13 32  1  0  0  0  0
 13 33  1  0  0  0  0
 14 34  1  0  0  0  0
 15 35  1  0  0  0  0
 15 36  1  0  0  0  0
M  CHG  1  14   1
M  END
> <OMEGA_C>
9FyYQO21az6B+KPBj1eaQLs7kr+BR6bBcM/TQMsvPb+2CrPByR20QE/5kT/7OanBYSe4QGkY0L8/
w63BE9TRQNjgIj8V6bDBFlyMQM+2UUASkZXBvybjQPOhJUAQZ5bByxveQN+kRkDU9qHBYruxQGyA
KUDy4KbB0UCnQJ78VECz07HBHWm3QOfOzECpj6jBrRTnQLbkk0C9z6LBD+mLQCHHPkBM2J/BKlhM
QMeLakC83ZDBRoTBQKsTrUBjkaDBGQ26QNqCPMBG+K/Br1XsQKW/uT9rgbbBx5a6QA55UUC7hI3B
tJeBQN1PGD/HKZ7BU+uEQHMK6r9fTKLBFLPqQLL4jr8ExLjBSmjgQOzkvj9WbZbB/HcBQSMiOEBr
aZPBofD2QLKFJkCxvKbBEBGlQO1YjUBhubDBQMLAQK9ZRkD0m7fBSI6IQD6DPECQ27TB5GqaQCNS
3kChKqbBNUTSQOhb40B6UqnBjtmxQPvwvEDdSrDBgCEAQcBunECDC53BgxryQF4pm0AO+KrBSnNe
QBx4PkD1Y6PB9BVLQImGe0CJJ4nBgXsWQOd8a0B5L5XBFXaXQDLpiT5JYaTBd4GcQNWcjr862aXB
tdXVQJwSNb//nrLBJ/KxQGhBmD/b86nB6Te8QDf+zL9FzKzBcr3QQHDELT+uVrHBVyyMQLMWUUBR
m5XBSA3hQC7QGEC1tJbBqwXdQIp/Q0Bo2aHBoOKwQBk5LECiF6fBdVKoQDc9YUAeb7HB/U0BQVi0
vkD7tJPBfZTjQGZ+kkBgWqHB5mGLQFR3QUB2+Z/BMFBNQPZ0bEBmypDBfWcEQZQGnEA7FpvB+2zC
QLuiO8A3z63B6BjrQA/Dvj8B/bbBtcG5QCS7REDOdY3BcnV+QGb9Ij81957BtfmHQDz75r8YoaHB
TJTtQBsmi79jHbjB+sDbQLIKpz84hZfB+q4AQRdiJEDeh5PBokb2QIa2KEAF/KbBOYinQNrlkkB3
ca/B8vzBQCwrVUCrQ7fBe2aJQDYpTkCs5bTBrigQQbE3xEBYMY/B6hv6QEPe20AkJ5jBGqToQB+Y
tkB0H47BZt/nQNcRn0B7gKnBqV7HQLqDoUBOqp3BGGtdQL38Q0Ajg6PBIyhMQJh+eEBL74jB8VAY
QPErdECtK5XBhp6SQHhtZD5cO6XBsFqOQBKBjb/Lv6jBMivTQBjndL8TvLHB/Mq2QMacgD9kIqjB
OKiuQOgz2b/c9a7Bpl7XQHDCxD7jfK7BJFCKQHtjbEA6pJfB2GviQNOgc0CK5JTBoDzXQPdDGECT
5ZjB6OG7QPUzHECHdqPBEjXOQCECW0CpBKzBXHb8QEg9UD90D4fBmIQAQdAlxz+okJnB1GaQQB8+
PkDRVaDB9CtQQKe/WkA58pDBiLkKQex9vT9rPo/Btr+qQBy1PsACN7LBgAr8QObogj9PKbHBouSx
QCbxmUD9RpPBtBB0QE8SKD9eP6DBi01kQIEi1r8Iq6bB6DfsQK20tb8QZbbBXPDyQHrwbkDWJI3B
mJL3QJdpiUA5v5rBcwPDQBOb9D+UvpLBxHLRQN6cjUASgajBUsTtQPM/RECirq7BOVS4QNHRXUAq
57LBlUAHQX3MTT9fAn/BBhjeQMvZrD9g5oXBFND1QKeeYb4OkYnB5H35QI7qCT/aVZzB8XkLQVpZ
AkDFRp/BxaRuQC5KMUBdCKXBZ4NMQImgdkB1wonB3W4iQCEkMkAoTZPBiRecQJwkDT48OqPBHCme
QD/Vnr/IUKXBhAzMQGP/T7/4nrTBomqyQK6giT/HuKnB2pG3QNcU3L/VvK3Bd7zIQAOLEz/A4rLB
+xGNQJFyV0AwjJXBeu/iQIG2eEAeqpfBSlHhQEDoJUBXMp7BIqu3QBszIkCWh6XB93a3QC+zZUDO
t67Bo9oLQYQK0D3W8KDB+KQGQfeFH0CxEqTB4Y+PQJj6N0B4U5/BufBJQEn2ZUASOZHBfU4LQbvF
mD86hqjBJeq8QOgyQ8BLGK/BSZfeQI1vsT9moLnBJpC5QCt7cUDDtI3BLTaJQJxQ/D45kpzB1S6M
QFNj979ub6DBgn7eQA1al78gTbvBri8BQQNQf0DrypPByjDdQMkUmECV5JzBlFzfQL/83z8Uj5jB
D0K7QFUVk0DCT6vB6wrSQCSHWEB2P7TBwvKYQPcDYkBoFLPBAIUPQd38Vb/yKaXBSUQYQeCLlz4n
5prB1WH4QOSbaTwU/ZzB17cGQStzTkD/oarBlFQTQYSLL0C7T57BhYhnQJdRLUA1D6PB63BEQJx+
fkC23YnBJ3gVQMHrV0AvdJXBvCCbQLoGPz50maPB+1KcQIT7mL+4kaXBiqnOQEjZVL+kFbTBeZaz
QECCjD9616nBtMC2QCSN2r8oqK3BIu7MQOJlDz+mX7LBbJOMQIQ9UkCKfJXBQ1PgQAM4eEDWUpfB
UELgQIl8KECUgJ7BIn63QFyqJED046XBw5C4QDevZkC8O6/Biq4WQeSMvT9s4pTBcvkFQadrI0Bo
U6TBYyGPQKrnO0BysZ/BqYxKQHkmZ0AkLJHBU30XQSG/IkDOxpzB+Y25QKm8QsDWKq/BThnlQDYE
qz+O3rjBoga5QEXtYUCgXo3BhjyHQDayED9lN53B9duIQKSr7r8j2aDBfo/iQH0pnb+jZbrB/PX/
QO7SgEA8ppPBFZPXQCLGmEBX8JvBcHneQPcb4T9FLZnBflW7QGvhk0DX8qvB8zXUQF5bWUBya7TB
feiaQAeGYUDj7bPBYZ0kQUlxxz8ji4/BJ+cHQVZHyT+LKZDB8OgWQcSUAT9E9pjBWoUGQfHi0D+V
H6nBjacHQWE/W0DqnqnB4jdnQG4aOkDNxKPBSd1GQOwUfkDCt4nBkUwVQG5dX0COgJXBTyjSQF5T
Lz/hsLDBUQnXQC+2Kr8SQrPBlD2dQPRTnL+o/KbBLgizQNj9jj9iJanBKp+8QCJ9z7+KZq7BrSCY
QFQnDD76SqTBRxWMQIDEUUD4i5XBKPLiQAQqI0Buw5bB2JncQMYrRkC7NaLBaTOwQOKkKECr6qbB
OF+nQDSwUECQLLLBIcmpQOCnxUAJUKXB1svlQLe/k0Bx8qLBEBaLQOIgQkBz7Z/BtBFNQHg7bEBQ
qJDBFsbFQJPVrkCjC57Bb13BQA46O8A257DBdFFyQKyK5T6iJZ3B9z66QBiVSUBYeo3B5nPmQBlR
tT+HhLTB2hDvQKpSeb8W9rjBAN2IQL9e+78cU6PBaI7hQOmzuT+4B5fBakgBQZFzN0An2JPBMw71
QNXKJkB8LafBTcukQFxSi0DybLHB5dfBQDi2QECrnrfBBkWJQG/ZNkAWZbXBYPOSQJEN2UCXsaDB
tf28QE2v2kAKfKrBJSqYQJiOrkD9R6rBN04CQX8JmkCg/p7BhRfoQMhnnEAcdavBsk5dQLnRR0Bb
h6PBRKNMQLjaeUBK14jBs1IXQOezcUBa8pTBS+/RQJ1QOD+n3rDB5HPYQBkaJb9u27LBS1KdQBOR
l7+e9qbBj6mxQF/TlD/Fr6nB20K+QCh/zL8n3a3Bpc6WQJ8yOj5lyaTBdviLQJOFUECulpXBW7zh
QNu0GkCPDpfByeLbQE32RUAoGqLBgcqvQLxFK0AHEafBLqKnQGGvW0CSwrHBDRUGQdSKy0DiA5rB
eJngQKcClECyZqHBRvCKQG1lREDjBqDB6ItNQOlFbEARqJDB9cEDQfKKnkBj+JvB0J/EQGBvOsBy
ua/BofdtQOmA/j7W5Z3B5b25QOi4QED/hY3BJs/lQLBfuT9L37TBn5TxQJc6dr9MOLjBIsuIQJwA
9r/aSqPBDW/eQOMGqj/O/JfBmuwAQbSxKUBn+pPB4S/1QF3WLUDobKfB5xmmQH91kEABNrDBMN7B
QJ4zTkBIYbfBmCqJQNcgRkBpP7XBgUkVQVB80UDy1pXBKgUGQTbZ3ECWraHBEW/xQAzO1kCeB5XB
DUjhQB2UoUDzhKnBM03FQJZloUBp95zBYVldQAjPTECyoKPBjMtMQNO7dkDAw4jBQpkYQAXYdUAC
/ZTBy0GlQLuYLT/LmrLBan+hQNupJr+jNbbBJLrBQCaYuL9WvaXBERe4QBVyfD9uf6jB4RmwQIby
2r980K/BQBPFQDVw+b209qHBazKNQBB6XEApsJXBgoDjQD2ehUBJlJjBWK3jQDaHMUA1lp3BjSC6
QHeWHkC8gqTBMMO3QBoBXkAiPq7BjAscQdecpj84DZfBk8EGQUv/IkDNDaTBjuqRQD+0K0C9Np7B
1bpIQNVwZUD1f5HBY0EZQQa+IUCTEZ3Bf5asQHZEP8ARPbPBVPTTQBD7gTwU55fBZaC3QI81iEAz
9I7B8aOZQO2jvT9CmLfBelWTQHAKW78z673BM9/MQOWJEMDa0KDB5AwBQRB6i0C2e5TBo8veQKDb
nUDO2Z7BcbbjQHoIA0Ci+pbBJzq5QEknkECdTqvBbtvSQPELUkBlqLPBwYuZQBwQVEAIlbLBwmoq
QavlsD9NA5LB1/MNQSkwkT/085HBRuEdQW1N6j6snpzBjq4FQXzXyj8bSajBdpwIQToMV0Dz56nB
GeRvQGM3DEABvKDB53k/QMYqhEDZ5IrBkBMXQGoDSUCmFZXB

> <OMEGA_E>
NDDwPvCt7z7WpiI/hBwMPxSnCD/ccgI/UroBP+LgRj8=

> <OMEGA_NBR>
     15497

$$$$
221257
  -OEChem-04172616093D

 49 51  0     1  0  0  0  0  0999 V2000
   10.5627    0.6834  -16.8098 C   0  0  0  0  0  0  0  0  0  0  0  0
   10.2077   -0.6790  -16.7451 C   0  0  0  0  0  0  0  0  0  0  0  0
   10.2969    1.4245  -17.9773 C   0  0  0  0  0  0  0  0  0  0  0  0
    4.6831   -0.9019  -20.4647 C   0  0  0  0  0  0  0  0  0  0  0  0
    4.7581    0.4877  -20.2514 C   0  0  0  0  0  0  0  0  0  0  0  0
    9.5439   -1.2875  -17.8277 C   0  0  0  0  0  0  0  0  0  0  0  0
    9.6618    0.8069  -19.0736 C   0  0  0  0  0  0  0  0  0  0  0  0
    5.4291   -1.4959  -21.4963 C   0  0  0  0  0  0  0  0  0  0  0  0
    6.3335    0.6932  -22.0963 C   0  0  0  0  0  0  0  0  0  0  0  0
    5.5769    1.3083  -21.0776 C   0  0  0  0  0  0  0  0  0  0  0  0
    9.2532   -0.5413  -18.9890 C   0  0  0  0  0  0  0  0  0  0  0  0
    6.2659   -0.6939  -22.3008 C   0  0  0  0  0  0  0  0  0  0  0  0
    4.4516    3.3492  -18.7663 C   0  0  0  0  0  0  0  0  0  0  0  0
    7.0675    3.1616  -20.1381 C   0  0  0  0  0  0  0  0  0  0  0  0
    7.1304    2.5913  -18.7184 C   0  0  0  0  0  0  0  0  0  0  0  0
    5.7270    2.8247  -20.8378 C   0  0  1  0  0  0  0  0  0  0  0  0
    5.7220    3.5715  -22.1992 C   0  0  0  0  0  0  0  0  0  0  0  0
    8.3846   -1.1494  -20.0636 C   0  0  0  0  0  0  0  0  0  0  0  0
    9.0348   -1.1039  -21.4752 C   0  0  0  0  0  0  0  0  0  0  0  0
    8.2530   -1.9666  -22.5153 C   0  0  0  0  0  0  0  0  0  0  0  0
    4.5582    3.3579  -20.0779 N   0  3  0  0  0  0  0  0  0  0  0  0
    3.1842    3.3614  -18.2136 N   0  0  0  0  0  0  0  0  0  0  0  0
    7.1622   -1.2603  -23.1653 O   0  0  0  0  0  0  0  0  0  0  0  0
    5.8297    3.3034  -17.6799 S   0  0  0  0  0  0  0  0  0  0  0  0
   11.0381    1.1587  -15.9645 H   0  0  0  0  0  0  0  0  0  0  0  0
   10.4451   -1.2570  -15.8642 H   0  0  0  0  0  0  0  0  0  0  0  0
   10.5795    2.4654  -18.0327 H   0  0  0  0  0  0  0  0  0  0  0  0
    4.0518   -1.5114  -19.8351 H   0  0  0  0  0  0  0  0  0  0  0  0
    4.1877    0.9363  -19.4515 H   0  0  0  0  0  0  0  0  0  0  0  0
    9.2570   -2.3270  -17.7688 H   0  0  0  0  0  0  0  0  0  0  0  0
    9.4875    1.3667  -19.9806 H   0  0  0  0  0  0  0  0  0  0  0  0
    5.3626   -2.5594  -21.6724 H   0  0  0  0  0  0  0  0  0  0  0  0
    6.9716    1.2957  -22.7257 H   0  0  0  0  0  0  0  0  0  0  0  0
    7.1769    4.2550  -20.0872 H   0  0  0  0  0  0  0  0  0  0  0  0
    7.8931    2.7376  -20.7286 H   0  0  0  0  0  0  0  0  0  0  0  0
    6.9996    1.5000  -18.7623 H   0  0  0  0  0  0  0  0  0  0  0  0
    8.1112    2.8256  -18.2790 H   0  0  0  0  0  0  0  0  0  0  0  0
    5.8291    4.6524  -22.0255 H   0  0  0  0  0  0  0  0  0  0  0  0
    6.5598    3.2146  -22.8162 H   0  0  0  0  0  0  0  0  0  0  0  0
    4.7734    3.3764  -22.7208 H   0  0  0  0  0  0  0  0  0  0  0  0
    8.1892   -2.1999  -19.8023 H   0  0  0  0  0  0  0  0  0  0  0  0
    7.4338   -0.5973  -20.0986 H   0  0  0  0  0  0  0  0  0  0  0  0
    9.0527   -0.0605  -21.8231 H   0  0  0  0  0  0  0  0  0  0  0  0
   10.0645   -1.4839  -21.4029 H   0  0  0  0  0  0  0  0  0  0  0  0
    8.9596   -2.3002  -23.2895 H   0  0  0  0  0  0  0  0  0  0  0  0
    7.8375   -2.8428  -21.9960 H   0  0  0  0  0  0  0  0  0  0  0  0
    3.8025    3.7495  -20.6028 H   0  0  0  0  0  0  0  0  0  0  0  0
    3.0717    3.3443  -17.2201 H   0  0  0  0  0  0  0  0  0  0  0  0
    2.3800    3.3874  -18.8075 H   0  0  0  0  0  0  0  0  0  0  0  0
  1  2  1  0  0  0  0
  1  3  2  0  0  0  0
  2  6  2  0  0  0  0
  3  7  1  0  0  0  0
  4  5  2  0  0  0  0
  4  8  1  0  0  0  0
  5 10  1  0  0  0  0
  6 11  1  0  0  0  0
  7 11  2  0  0  0  0
  8 12  2  0  0  0  0
  9 10  2  0  0  0  0
  9 12  1  0  0  0  0
 10 16  1  0  0  0  0
 11 18  1  0  0  0  0
 12 23  1  0  0  0  0
 13 21  2  0  0  0  0
 13 22  1  0  0  0  0
 13 24  1  0  0  0  0
 14 15  1  0  0  0  0
 14 16  1  0  0  0  0
 15 24  1  0  0  0  0
 16 17  1  0  0  0  0
 16 21  1  0  0  0  0
 18 19  1  0  0  0  0
 19 20  1  0  0  0  0
 20 23  1  0  0  0  0
  1 25  1  0  0  0  0
  2 26  1  0  0  0  0
  3 27  1  0  0  0  0
  4 28  1  0  0  0  0
  5 29  1  0  0  0  0
  6 30  1  0  0  0  0
  7 31  1  0  0  0  0
  8 32  1  0  0  0  0
  9 33  1  0  0  0  0
 14 34  1  0  0  0  0
 14 35  1  0  0  0  0
 15 36  1  0  0  0  0
 15 37  1  0  0  0  0
 17 38  1  0  0  0  0
 17 39  1  0  0  0  0
 17 40  1  0  0  0  0
 18 41  1  0  0  0  0
 18 42  1  0  0  0  0
 19 43  1  0  0  0  0
 19 44  1  0  0  0  0
 20 45  1  0  0  0  0
 20 46  1  0  0  0  0
 21 47  1  0  0  0  0
 22 48  1  0  0  0  0
 22 49  1  0  0  0  0
M  CHG  1  21   1
M  END
> <OMEGA_C>
qAApQW/2Lj90eobB5lIjQYzQLb/99YXBEMAkQVxXtj+J0Y/B1NuVQI3hZr/Et6PBI0KYQGKx+T7N
AqLB6rMYQXzMpL80n47B3pYaQY+RTj/NlpjBfbutQNB5v796+KvBqavKQKZ3MT8jxbDByXWyQPp2
pz/TnqjBNA0UQXGUCr+R6ZfBg4LIQJClMb8gaLLBw3OOQLxZVkBaIZbBxSjiQGlYSkDrGqHBPyzk
QDfXJUBJv5XBl0O3QP3HNEDCs6bBVRq3QEWUZED2l7HBXicGQZAfk78pgqDBlo4QQa9Ljb9MzavB
UgwEQbi5+79nH7TB/dyRQLfnVkCNn6DBeMlLQN8hV0CMtZHB5TDlQLlSob+UUrnBoYy6QAJrU0B1
cI3BJJwwQWxRlD/Ibn/BTR8nQcfjoL/Y033BekUpQenJHUDoQpDBb6iBQJR1wb9grp7BogGGQDCz
bz+rnJvBgRwUQZbtFMCXJo7Bw8wXQVPxrj9G2J/BLJqrQN/MI8ADYa3BNBffQOTZpT9CzrXBZqnl
QPgoiECVsqDBE5T8QBE1L0AT1KXBZPzfQGj+vz8hGZbBgscBQXXWNEBPO5LBL4i6QNDglEAjNLDB
7unRQKy8TUB+h7bBVr+YQEgXWEAzxLXBHAcDQXLLDMAna57B2uHtQFXrGL/eyaDBsdcQQfCqd72m
la7BUgghQYbxvb8yOavBnVoPQaA2E8D9ULrB/cz6QFDwNcDi96/B6FtzQCv4b0B40qTB95ZEQDIJ
VkDXwonBF1IYQEnLWEC9dZbBLQ8NQUELqMDuD4XBNebyQEBEvsBLeITB494NQRIEfsAqvonBFhDV
QJ57Kb93KrLB1qzTQMBlNj9iALDB5zbNQCFZq8DjeojBehb2QDwcWMBOxI3BTNK2QBuPwr/Lg63B
+caWQFCxuT4OH6TB5PizQKEcnz+KIKnBwJjOQC/wgcApAI3BT+mXQL+/gb92PKbBXcOMQLRjT0DJ
2JXBSOncQPLtTkCi6aHBLorkQEsiIkDeJ5fBfXqyQDAqMEBuDafBuAOsQChAXkAZ47HBuGKmQAZF
XMDonZHBReGgQBTeecA8TZ3BrDh0QDYWTsDMw6LBy++MQJ8fSUCgWKDBrTNNQIiaZUBO7pDBh0Ny
QDNv5L/WKaHBzB26QEmjPUCBo43B2nUbQeR1tsAI7oHBXL3xQBbL3cAz8YDByOgcQaA1XMCoPorB
JGXtQBe0h7/3aLfBBffqQIN+rz8fm7PBBUSvQNaGvMCCGIjB42j3QBaYGcD9b5HBcAq3QGGWJMC9
eq/B/6h+QIlIQT+xmp7BYUXbQL88ikC8m6DBV5r3QAg3QEDCWKfBmM/kQKTguD9eZZjBMMsBQfia
NkCk5JPBotmqQJrpkUBFk7DBgcrGQAzLTkA2Q7fBKs6NQEXjSEC5h7XBx4GKQNincMAa44zBggqp
QBEZFsDUXpHBWxO+QGLwacDby6HBDv6bQFnKn8AvZ53Bpj93QP//WsBBaKvBghc5QLSnacBAdZ/B
RCpjQDIyVkCaKaTBQHdKQEExa0AC+IjBGdwYQJsLcEBxWJXBdwkNQdzAkb9rEYXBGskZQcykDMB4
4ojBBMz8QLDWAr+V8ovBCy6QQDAdTL9Cr6PBqQWVQEwqFT/PCKLBLWQYQRqSJsDEqZPBSO35QGPh
ar8HupbBQpuoQJbfuL/zhavBLBTMQMQxKj+Jz6/B3uSyQG6Xqz++JajBK0kKQab2+L9qs5rBONTG
QAKlOL8SjLHBEhmPQI/uV0ASK5bBRA/kQBcFTUD446DBTGXlQKELKkCWg5XBNPm4QG8xN0Cef6bB
zoy5QFmAZECdh7HB0t8JQYx4FMCHeabB8pwQQczDjL8Vdq3B9KMGQZhJkL9p0LjBY6uTQJUOXED7
nKDBvilMQOsCUED+DZLBEJffQJhPtb/e07jBcvG6QMtYWEBBV43BE4UOQR58T7+CvXnBwa4kQaDm
LMDmhoPBB4PoQJcSkD7W/YjBWE9zQJ3+rb/q6p7BwNCBQJ7qiT9pCpzBhyciQS3KWsBwh5bB0yzj
QF704L6J/JvB+z6kQAsMIMBP86zBcZLjQI87mz/5YrTByt/nQI18iUAEoKDBhXv+QO/CMEA3gqXB
rF3hQAlGyD95w5XBSUYCQdSrOUDC6ZHBn969QIvglECeX7DBgBrUQMoxS0AOXbbBrRWbQJ+xWED0
rrXBgA4VQR+pScAl4afBHC/zQHdsKMCXsqjBOnULQSBQNr57aKnBjyQiQZTYjL8tP67BBiYJQeXN
E76Ij7zBAtgOQR5M87/0ib3BzMh5QNeHeUAj26TBPWhDQDagSkCVKIrB48EZQE6vT0Du+5bB9luU
QOriQj+pRK3B1pG4QOIeGj9L37PBFciMQPgrFb7e2qTBmo0XQcUB+z8mXKbB0xMIQZpJPkBHJqfB
2MbVQNw9476A6LHBQI+pQCVcmr/J+6LB5YATQXJ/Tz9aPaDBluzgQD0L2T+Eg5vB9EboQITPNUAw
6aHB0CLPQBveqr8lRqnBPKT/QMJNLD9wqZrBerWNQPDCcEATmZTB/JXYQC1Sp0C7ipzBHCHeQFJP
nkBrk5DB5EPHQFTHfkC5faLBBEa/QMqzi0CjU67BFkfwQFJgG8CvEKfB2I73QLbcL8BAApvBCt0G
Qa8V0L9Mf5TBa4WcQG5PY0AkUJ7BxJxKQFivUUCLMJLBQMr0QIjLyr54DpTBFuGpQJZVlECMgYrB
+OF8QBb9yT9fqK7BWfG9QKskpD9VcrrBMc9hQKHX6rys1Z/B/6UmQctMBEBzeqrBRGwLQT4Gd0DH
yqvBP13xQCbJEL83BbfBr/qiQFom9r9rvJzBI2IfQd7c6DzSxZ/BSB/DQMh4zT/zMpfBqOXBQKPp
wUC6k53BVMH3QAlAsEDA95/B7qHyQJIFgkCSgI/BBiDtQKshukCvs4zBoaynQELGpUAFtq7BVXrd
QD9YlkC7+rHBzv+yQKJzX0CisrLBGZXlQPFdVsAIDqvBYX8HQQjDBsAYgarBSi/YQJ1+PMAfWJfB
ksMFQbWuacBQe5rBL2oJQVol/r+nR4zBaWgWQbu0s79IOZjB82uJQFTGQ0D4YKPBjLwxQBsgW0Dq
6YrBDS4pQOrRMUBKupfB

> <OMEGA_E>
fLleP1SFVj9kmGc/tgKYPw==

> <OMEGA_NBR>
     19143

$$$$
191663
  -OEChem-04172616093D

 44 47  0     1  0  0  0  0  0999 V2000
    4.6157    0.3750  -20.6427 C   0  0  0  0  0  0  0  0  0  0  0  0
    4.6130   -1.0193  -20.8026 C   0  0  0  0  0  0  0  0  0  0  0  0
    6.6098   -0.8698  -22.1837 C   0  0  0  0  0  0  0  0  0  0  0  0
    7.3101    7.6966  -22.8013 C   0  0  0  0  0  0  0  0  0  0  0  0
    5.7224    7.5751  -21.1502 C   0  0  0  0  0  0  0  0  0  0  0  0
    5.6227    1.1759  -21.2474 C   0  0  0  0  0  0  0  0  0  0  0  0
    6.5580    6.7958  -21.9057 C   0  0  0  0  0  0  0  0  0  0  0  0
    5.6098   -1.6414  -21.5700 C   0  0  0  0  0  0  0  0  0  0  0  0
    6.6241    0.5280  -22.0324 C   0  0  0  0  0  0  0  0  0  0  0  0
    4.3969    3.2388  -18.9405 C   0  0  0  0  0  0  0  0  0  0  0  0
    6.9562    4.8017  -20.4625 C   0  0  0  0  0  0  0  0  0  0  0  0
    5.3795    3.3536  -22.4691 C   0  0  0  0  0  0  0  0  0  0  0  0
    7.1762    2.6720  -19.0563 C   0  0  0  0  0  0  0  0  0  0  0  0
    6.6558    5.3036  -21.8900 C   0  0  1  0  0  0  0  0  0  0  0  0
    6.9359    3.2573  -20.4567 C   0  0  1  0  0  0  0  0  0  0  0  0
    5.6045    2.7127  -21.0733 C   0  0  2  0  0  0  0  0  0  0  0  0
    5.3196   10.0345  -21.0274 C   0  0  0  0  0  0  0  0  0  0  0  0
    6.9249    8.9310  -22.5691 N   0  0  0  0  0  0  0  0  0  0  0  0
    5.9755    8.8437  -21.6033 N   0  0  0  0  0  0  0  0  0  0  0  0
    4.4317    3.1605  -20.2537 N   0  3  0  0  0  0  0  0  0  0  0  0
    3.1737    3.5013  -18.3455 N   0  0  0  0  0  0  0  0  0  0  0  0
    5.3966    4.7830  -22.3576 O   0  0  0  0  0  0  0  0  0  0  0  0
    5.6052   -2.9833  -21.7211 F   0  0  0  0  0  0  0  0  0  0  0  0
    7.6055    1.2155  -22.6632 F   0  0  0  0  0  0  0  0  0  0  0  0
    5.8115    3.0590  -17.8932 S   0  0  0  0  0  0  0  0  0  0  0  0
    3.8431    0.8455  -20.0527 H   0  0  0  0  0  0  0  0  0  0  0  0
    3.8427   -1.6143  -20.3345 H   0  0  0  0  0  0  0  0  0  0  0  0
    7.3729   -1.3531  -22.7756 H   0  0  0  0  0  0  0  0  0  0  0  0
    8.0517    7.3923  -23.5251 H   0  0  0  0  0  0  0  0  0  0  0  0
    5.0300    7.2644  -20.3818 H   0  0  0  0  0  0  0  0  0  0  0  0
    7.9479    5.1585  -20.1474 H   0  0  0  0  0  0  0  0  0  0  0  0
    6.1920    5.1830  -19.7692 H   0  0  0  0  0  0  0  0  0  0  0  0
    6.1795    3.0313  -23.1519 H   0  0  0  0  0  0  0  0  0  0  0  0
    4.4060    3.0303  -22.8664 H   0  0  0  0  0  0  0  0  0  0  0  0
    7.2688    1.5792  -19.1413 H   0  0  0  0  0  0  0  0  0  0  0  0
    8.1116    3.0890  -18.6548 H   0  0  0  0  0  0  0  0  0  0  0  0
    7.4700    4.9836  -22.5568 H   0  0  0  0  0  0  0  0  0  0  0  0
    7.7572    2.9150  -21.1036 H   0  0  0  0  0  0  0  0  0  0  0  0
    5.7232   10.9414  -21.5014 H   0  0  0  0  0  0  0  0  0  0  0  0
    4.2357    9.9786  -21.2066 H   0  0  0  0  0  0  0  0  0  0  0  0
    5.5109   10.0707  -19.9448 H   0  0  0  0  0  0  0  0  0  0  0  0
    3.6031    3.4227  -20.7484 H   0  0  0  0  0  0  0  0  0  0  0  0
    3.1089    3.5839  -17.3510 H   0  0  0  0  0  0  0  0  0  0  0  0
    2.3555    3.6082  -18.9105 H   0  0  0  0  0  0  0  0  0  0  0  0
  1  2  2  0  0  0  0
  1  6  1  0  0  0  0
  2  8  1  0  0  0  0
  3  8  2  0  0  0  0
  3  9  1  0  0  0  0
  4  7  1  0  0  0  0
  4 18  2  0  0  0  0
  5  7  2  0  0  0  0
  5 19  1  0  0  0  0
  6  9  2  0  0  0  0
  6 16  1  0  0  0  0
  7 14  1  0  0  0  0
  8 23  1  0  0  0  0
  9 24  1  0  0  0  0
 10 20  2  0  0  0  0
 10 21  1  0  0  0  0
 10 25  1  0  0  0  0
 11 14  1  0  0  0  0
 11 15  1  0  0  0  0
 12 16  1  0  0  0  0
 12 22  1  0  0  0  0
 13 15  1  0  0  0  0
 13 25  1  0  0  0  0
 14 22  1  0  0  0  0
 15 16  1  0  0  0  0
 16 20  1  0  0  0  0
 17 19  1  0  0  0  0
 18 19  1  0  0  0  0
  1 26  1  0  0  0  0
  2 27  1  0  0  0  0
  3 28  1  0  0  0  0
  4 29  1  0  0  0  0
  5 30  1  0  0  0  0
 11 31  1  0  0  0  0
 11 32  1  0  0  0  0
 12 33  1  0  0  0  0
 12 34  1  0  0  0  0
 13 35  1  0  0  0  0
 13 36  1  0  0  0  0
 14 37  1  0  0  0  0
 15 38  1  0  0  0  0
 17 39  1  0  0  0  0
 17 40  1  0  0  0  0
 17 41  1  0  0  0  0
 20 42  1  0  0  0  0
 21 43  1  0  0  0  0
 21 44  1  0  0  0  0
M  CHG  1  20   1
M  END
> <OMEGA_C>
/7OTQDr8vz4oJKXBdJ2TQEd4gr/Da6bBrYPTQIioXr8seLHBbezpQJBK9kApabbBjx23QOlm8kC1
M6nBgu2zQNmDlj+y+qnBztrRQEl32UDlPq/BkYOzQM4Z0r9xj6zBU/jTQD4sBz9mQrDBA7OMQGpI
T0A/hpfBdZneQHCnmUAqs6PBySSsQBSiVkDIwLPBpaPlQJMBK0BUc5jBWPzUQF63qUCjHq/BD/Pd
QMd3UEBpp6PBI1izQG2cLUALlqjBFDqqQF6NIEEcOKjB8JjdQEDlDkGMjbTBZze/QKd/DUGj06zB
W9CNQLxFSkCNB6LBvR1LQCkVYECgw5LBVLGsQEAOmUB23LLBlV2zQF7uPsC8xK3BAWDzQLqWmz8+
TrXBife5QBbHQ0AxJY/BF/V1QMpwWD/oa6DBR+91QG+hzr8kraLBEO/rQBwzrb+FNLbBqtMAQcaN
7ECAM7zB0/WgQMZ16EDpDaPBNlX+QDESpUDOLaHBKSXGQOPapUBXJ57BYL7FQBkBQkD/NrnBH/6M
QBfxQUBq7rbBrZnoQC8iyj9YIZnB+sgBQcKyRUASPZXBHgrvQMR5n0BbdLTBoDr4QB+QOkAt1KjB
jCS3QNEPL0HyAqzBC4uHQIaoH0Ecp6nB51iwQKUhIUHdjp/BZJlmQFEOW0Ci/KXBc/hGQHheZUDw
zorBxcAWQGPsZkCjSJfB0DTUQLsWHj/GarDBNjLXQB29Q78DNrLBOPSXQAsQj7+OP6fBs6/qQNH0
9UBJW7bBMum2QNDf8UAIZKnBbgWzQBQQlT92AKrBFR7SQFf92EDjUq/BJR65QJvu0L/ima3Br1iU
QII0iD5BdKXBK1OMQJBGUUAubpfBucneQBHdmEA036PBrXSrQCKVVUBGt7PB4QDlQFsNKkCEiZjB
bQLVQMkfqUDvQa/BDhjdQLHRTkBuw6PBLeaxQMMNLUB6fKjBo76oQOI4IEGvrqjBsP3dQJy0DkE6
lLTBYf6+QL0/DUFxAq3BawWNQMf7S0Bp76HBKY5KQJZbYUATlZLBz4usQD6jmEAy9bLB2eG7QJaf
PcAwUK/BOZNlQPiLLD/ydJ/Bv+G5QJkmRUB+J4/BIJDrQBaBoz+s+rPBRp/wQMh4lL92IrfBT/eA
QHdH5b9es6PB5X4BQfFU7EAQArzBk3agQLjg50C8UKPBeOD+QAGdo0Bmc6HBTt3GQNSkpUBOQ57B
2SfFQEndP0DeFLnBLFCMQENxQUA/9LbBmVznQH7wxz/YIJnBqqQBQdAHREA0cZXBzufuQNfdnkBg
o7TBveP2QDCPN0Br/6jBXFi1QHW+LkFph6zB3j6GQB7jHkEVTKrBuxCuQOEpIUEI/5/BalVlQOEu
XkCF3KXBWMtGQCHRZUCZnYrBY/IVQMKBaEC0DJfBZWmQQP652T4I6qTBRbmNQPz+eL/sq6XBbgjO
QGSygL+borDBn+OlQPYO4UCv66XBI9rYQM7K+0D8WLHBT16yQPMokT+B76nBxPfJQGpI1kAHHK3B
nJKsQADz179FgKvBAi/RQIAHyT7J6q/BhfSOQKHaVUCRKZjBJjvlQIBhlUDeUKTBfVmxQHtrUUDW
ULTBt5DmQJpoJECwuZjBAkHXQHgnqUAgOK/BFeDgQAeFSEDqGaTBu1i1QD/zKkDp9ajBl8bCQEAb
JEGMpa7Bbk6gQEY/BUF+AqbBFSK+QAL0DEFK1qzBS4OQQIPUTkACp6LBXmhQQPmcbEBnkZPBTNiw
QII2lkC0mrPB7A+qQFcMQsAgM6zB2xXyQPHgfD+VG7XBfWO7QMrLRUB1nI/BHtdwQLv9dz+1d6DB
U85nQE7fv79BxKHBrYLlQK+ix7/mKrXBsECTQP5lykC+WqHBpwfzQCZPAEGj27bBxnEDQSHQnUDA
1aLBxBTRQCDtokDB8Z3BbcTMQHntPEA9NLnBUnuTQFITO0C0CrjBMOTmQCwzvD+AKpnBsKICQWEu
O0C8f5XBmfbxQAz3p0B88bTBh4D6QMLMLUAEIKnBazirQI7KLEHjwanBuELjQI4mKUEBYqzBWlO9
QEqvJ0GLJ7fBQQ5uQGoVY0BzxqbBveNLQBqCc0B2oovBdggdQKMhdkAgMJjBvkjRQJ4l8T4GAbDB
FC3RQGDta7/bT7HBi6mQQPM/ib9wg6bBprylQG4H4ED99aXBqNnYQGBv+0BoPbHBsTyxQIPvjz9H
36nBxfvJQO6k1UA3JK3BXvWwQO/B2L9xh6zBwTqQQArOpT7GLKXBisWOQNzrWECGA5jBctzlQNpy
lEB9haTBqvuwQAjrT0B6OrTBnsblQBb7I0BBsJjB03rXQAWIqED7W6/BVBrgQBi3RkBMIqTBBv2z
QDyfKkBuyajBPMnCQMffI0H/P67BlxCgQMS7BEG97KXBvAS+QL6mDEG7p6zB0fCPQOhOUUCNgaLB
Y9xPQCjObUBIU5PBCRKxQMORlUCqvrPBCOmwQMo+QsDvu63BmexeQEVUVj/SbJ/Bn567QIwkSkBC
kY/B/zDqQIBbhz8rurPBjN7pQF8Ys78E/7XB08hvQCsZ1r8s4KLB1Q2TQMkcyUDPfKHB/BjzQD9M
AEHgtbbBZvIDQVfkm0DUQqPBdsLSQCDIokB0Dp7BvI7MQPL+OUBU9rjBzTKTQNrlOUCMBrjBk83k
QHBGuz/f8ZjBrIMCQQcFOUAknJXBwg/yQLKzp0DRH7XBLir5QLT+KUDWKanBOTOrQI1nLEFkTanB
v0LjQLDMKEGv6avB43e9QK/EJ0FwurbBg35tQFoXZ0B2nqbB261LQCscdECkYYvB9QYcQEWPdkBy
45fB

> <OMEGA_E>
IIPoPcBVHD68M/Q+9JQCPw==

> <OMEGA_NBR>
      3372

$$$$
270435
  -OEChem-04172616093D

 43 46  0     1  0  0  0  0  0999 V2000
    4.5732    0.3420  -20.6164 C   0  0  0  0  0  0  0  0  0  0  0  0
    4.5242   -1.0541  -20.7518 C   0  0  0  0  0  0  0  0  0  0  0  0
    7.1922    8.9275  -22.6261 C   0  0  0  0  0  0  0  0  0  0  0  0
    7.3771    7.5383  -22.6469 C   0  0  0  0  0  0  0  0  0  0  0  0
    6.5288   -0.9954  -22.1282 C   0  0  0  0  0  0  0  0  0  0  0  0
    5.3487    8.5919  -21.0776 C   0  0  0  0  0  0  0  0  0  0  0  0
    5.6058    1.0990  -21.2347 C   0  0  0  0  0  0  0  0  0  0  0  0
    5.5001   -1.7223  -21.5074 C   0  0  0  0  0  0  0  0  0  0  0  0
    6.1622    9.4595  -21.8318 C   0  0  0  0  0  0  0  0  0  0  0  0
    6.5895    0.4037  -22.0016 C   0  0  0  0  0  0  0  0  0  0  0  0
    6.5257    6.7222  -21.8749 C   0  0  0  0  0  0  0  0  0  0  0  0
    4.4350    3.2894  -18.9809 C   0  0  0  0  0  0  0  0  0  0  0  0
    7.0389    4.7046  -20.5214 C   0  0  0  0  0  0  0  0  0  0  0  0
    5.4380    3.2547  -22.5037 C   0  0  0  0  0  0  0  0  0  0  0  0
    7.1846    2.6111  -19.0692 C   0  0  0  0  0  0  0  0  0  0  0  0
    6.6878    5.2291  -21.9306 C   0  0  1  0  0  0  0  0  0  0  0  0
    6.9757    3.1615  -20.4886 C   0  0  1  0  0  0  0  0  0  0  0  0
    5.6312    2.6397  -21.0936 C   0  0  2  0  0  0  0  0  0  0  0  0
    5.5359    7.2540  -21.1091 N   0  0  0  0  0  0  0  0  0  0  0  0
    4.4634    3.1351  -20.2884 N   0  3  0  0  0  0  0  0  0  0  0  0
    3.2217    3.6181  -18.3983 N   0  0  0  0  0  0  0  0  0  0  0  0
    5.4414    4.6838  -22.4091 O   0  0  0  0  0  0  0  0  0  0  0  0
    5.4482   -3.0652  -21.6403 F   0  0  0  0  0  0  0  0  0  0  0  0
    5.9459   10.7921  -21.7956 F   0  0  0  0  0  0  0  0  0  0  0  0
    7.5950    1.0462  -22.6415 F   0  0  0  0  0  0  0  0  0  0  0  0
    5.8520    3.1494  -17.9298 S   0  0  0  0  0  0  0  0  0  0  0  0
    3.8166    0.8479  -20.0349 H   0  0  0  0  0  0  0  0  0  0  0  0
    3.7345   -1.6149  -20.2740 H   0  0  0  0  0  0  0  0  0  0  0  0
    7.8289    9.5764  -23.2092 H   0  0  0  0  0  0  0  0  0  0  0  0
    8.1610    7.0992  -23.2462 H   0  0  0  0  0  0  0  0  0  0  0  0
    7.2785   -1.5146  -22.7069 H   0  0  0  0  0  0  0  0  0  0  0  0
    4.5614    9.0030  -20.4632 H   0  0  0  0  0  0  0  0  0  0  0  0
    8.0553    5.0313  -20.2562 H   0  0  0  0  0  0  0  0  0  0  0  0
    6.3213    5.1121  -19.7941 H   0  0  0  0  0  0  0  0  0  0  0  0
    6.2582    2.9293  -23.1605 H   0  0  0  0  0  0  0  0  0  0  0  0
    4.4779    2.9177  -22.9217 H   0  0  0  0  0  0  0  0  0  0  0  0
    7.1955    1.5120  -19.1111 H   0  0  0  0  0  0  0  0  0  0  0  0
    8.1498    2.9729  -18.6851 H   0  0  0  0  0  0  0  0  0  0  0  0
    7.5061    4.9745  -22.6203 H   0  0  0  0  0  0  0  0  0  0  0  0
    7.7917    2.7803  -21.1202 H   0  0  0  0  0  0  0  0  0  0  0  0
    3.6314    3.3691  -20.7915 H   0  0  0  0  0  0  0  0  0  0  0  0
    3.1655    3.7687  -17.4113 H   0  0  0  0  0  0  0  0  0  0  0  0
    2.4022    3.7049  -18.9648 H   0  0  0  0  0  0  0  0  0  0  0  0
  1  2  1  0  0  0  0
  1  7  2  0  0  0  0
  2  8  2  0  0  0  0
  3  4  2  0  0  0  0
  3  9  1  0  0  0  0
  4 11  1  0  0  0  0
  5  8  1  0  0  0  0
  5 10  2  0  0  0  0
  6  9  2  0  0  0  0
  6 19  1  0  0  0  0
  7 10  1  0  0  0  0
  7 18  1  0  0  0  0
  8 23  1  0  0  0  0
  9 24  1  0  0  0  0
 10 25  1  0  0  0  0
 11 16  1  0  0  0  0
 11 19  2  0  0  0  0
 12 20  2  0  0  0  0
 12 21  1  0  0  0  0
 12 26  1  0  0  0  0
 13 16  1  0  0  0  0
 13 17  1  0  0  0  0
 14 18  1  0  0  0  0
 14 22  1  0  0  0  0
 15 17  1  0  0  0  0
 15 26  1  0  0  0  0
 16 22  1  0  0  0  0
 17 18  1  0  0  0  0
 18 20  1  0  0  0  0
  1 27  1  0  0  0  0
  2 28  1  0  0  0  0
  3 29  1  0  0  0  0
  4 30  1  0  0  0  0
  5 31  1  0  0  0  0
  6 32  1  0  0  0  0
 13 33  1  0  0  0  0
 13 34  1  0  0  0  0
 14 35  1  0  0  0  0
 14 36  1  0  0  0  0
 15 37  1  0  0  0  0
 15 38  1  0  0  0  0
 16 39  1  0  0  0  0
 17 40  1  0  0  0  0
 20 41  1  0  0  0  0
 21 42  1  0  0  0  0
 21 43  1  0  0  0  0
M  CHG  1  20   1
M  END
> <OMEGA_C>
e1eSQKYYrz5b7qTBDsaQQKDrhr+zA6bBZSbmQPnWDkFZArXB7xDsQJg58UDyLLXBHOzQQHHVfr+j
BrHBcCirQEN4CUHcnqjB1mKzQJ2rjD+p4KnBhwCwQBhz3L80D6zByTDFQCFaF0Gcp67BA93SQNCy
zj5eA7DBstLQQHQc10DJ/67BPOuNQP6EUkDm2JfBsz7hQFKMlkDTK6TBSwSuQKpMUECcB7TBh+jl
QLocJ0DBjZjBbgLWQI9Up0Dsca/B9DjfQKlWSkDA6KPB+DK0QIXwKEDLv6jBNyaxQOcg6EBd36jB
/dOOQEClSEC0TqLBbDBOQK+PZ0DCL5PBFCCuQPPhlUDcRbPBSFeuQNcrRMBcH63Bh0S+QEqsLEF3
Xa7BWwrzQFTrhT/RIbXBO0O7QLWPSUBTcI/B3UN0QEoQWT+GR6DBdwJvQJS0zr8VMaLBJ4b6QOs4
GUFsrLnBSpMCQaAs40A9+LnBuOnoQKnewb+pp7XBs/aRQG4MEEGdtKPBTuIAQRAAoUCbDKLBCkjK
QDGWo0A+Wp7BZkPIQPh5O0DFSLnBK0uPQB+8OkCQX7fBNkHmQI6IwT+O45jBiGUCQbFEPkAFe5XB
vzHwQHYvn0Bc9rTBiVX5QDHwMUAW9qjBd2loQEOfV0AQVabBJJdKQPcxcUBfSovBGr4ZQGodbUD1
t5fBO6LSQKDk+j70J7DBRirUQAVxZr84pbHBI0DmQCZcDkHYc7XBy6/rQDE08EBofbXBIFyUQP46
k7/gs6bBfD6tQBazCUHKbqjBg/uxQDqxiz8q46nBly61QH493L9K26zBToPGQCtBF0H62a7BYjCS
QLSedz6YOKXB/kjRQDm41kDE7a7BpXuNQIoAU0AuvJfBJengQE6LlUBeG6TBeVutQPuiT0AK9rPB
OWXlQHEXJEBOqZjBvdbVQJ7IpkDOW6/BaSfeQFlMSEDu86PBiJeyQKyHKEDGoqjBAsKyQIB56ECy
kKjBryKOQFEZS0D+NqLBCuBNQJMSaUC2AZPBH+qtQHillUD+QrPBRd22QA3YQ8AoKq7BmgfAQDSf
LEGgsq7BgNxhQBiQND+0YJ/BLXK6QL13QkDmWY/B47PqQB+Bjj9O17PB8SrtQJtGq78QebbBAxP6
QDZ6GEHsZrrBo+cBQRKZ4UAJfLrBgQ55QNO55L9vEaPBJgiVQFWSEEFWUKPBCcwAQWR1n0BB+qHB
8ivKQMy8okBJQZ7BUtPHQAULOkCfGLnBJb2OQGecOkCbarfBYcvmQKW2uz/fJpnBFv0BQUSrPEA+
kpXBmv/vQABunkAm3bTBxLv3QGOGL0ARJanBYxtoQNrJXUDNN6bBUAxKQIhHb0AMD4vBEA4aQAvM
ckCcipfB

> <OMEGA_E>
yBK0PkgAwj4=

> <OMEGA_NBR>
      5164

$$$$
270434
  -OEChem-04172616093D

 44 47  0     1  0  0  0  0  0999 V2000
    4.6755    0.3480  -20.6036 C   0  0  0  0  0  0  0  0  0  0  0  0
    4.6950   -1.0466  -20.7665 C   0  0  0  0  0  0  0  0  0  0  0  0
    6.6077   -0.8504  -22.2580 C   0  0  0  0  0  0  0  0  0  0  0  0
    7.3616    7.7753  -21.1452 C   0  0  0  0  0  0  0  0  0  0  0  0
    5.6267    1.1732  -21.2650 C   0  0  0  0  0  0  0  0  0  0  0  0
    5.6583   -1.6460  -21.5940 C   0  0  0  0  0  0  0  0  0  0  0  0
    6.6024    0.5481  -22.0993 C   0  0  0  0  0  0  0  0  0  0  0  0
    6.5871    6.8127  -21.9618 C   0  0  0  0  0  0  0  0  0  0  0  0
    6.9784    9.0262  -21.5471 C   0  0  0  0  0  0  0  0  0  0  0  0
    4.3805    3.2332  -18.9361 C   0  0  0  0  0  0  0  0  0  0  0  0
    6.9495    4.8091  -20.4735 C   0  0  0  0  0  0  0  0  0  0  0  0
    5.3532    3.3664  -22.4736 C   0  0  0  0  0  0  0  0  0  0  0  0
    7.1612    2.6779  -19.0500 C   0  0  0  0  0  0  0  0  0  0  0  0
    6.6596    5.3106  -21.9081 C   0  0  1  0  0  0  0  0  0  0  0  0
    6.9210    3.2593  -20.4573 C   0  0  1  0  0  0  0  0  0  0  0  0
    5.5905    2.7107  -21.0792 C   0  0  2  0  0  0  0  0  0  0  0  0
    5.4170    9.8635  -23.3328 C   0  0  0  0  0  0  0  0  0  0  0  0
    5.8320    7.4830  -22.8055 N   0  0  0  0  0  0  0  0  0  0  0  0
    6.0554    8.7876  -22.5415 N   0  0  0  0  0  0  0  0  0  0  0  0
    4.4100    3.1322  -20.2502 N   0  3  0  0  0  0  0  0  0  0  0  0
    3.1642    3.5192  -18.3362 N   0  0  0  0  0  0  0  0  0  0  0  0
    5.3887    4.7950  -22.3641 O   0  0  0  0  0  0  0  0  0  0  0  0
    5.6716   -2.9882  -21.7512 F   0  0  0  0  0  0  0  0  0  0  0  0
    7.5456    1.2599  -22.7620 F   0  0  0  0  0  0  0  0  0  0  0  0
    7.4171   10.2132  -21.0722 F   0  0  0  0  0  0  0  0  0  0  0  0
    5.7944    3.0610  -17.8875 S   0  0  0  0  0  0  0  0  0  0  0  0
    3.9284    0.8000  -19.9679 H   0  0  0  0  0  0  0  0  0  0  0  0
    3.9678   -1.6593  -20.2544 H   0  0  0  0  0  0  0  0  0  0  0  0
    7.3463   -1.3152  -22.8943 H   0  0  0  0  0  0  0  0  0  0  0  0
    8.0871    7.5368  -20.3816 H   0  0  0  0  0  0  0  0  0  0  0  0
    7.9414    5.1618  -20.1543 H   0  0  0  0  0  0  0  0  0  0  0  0
    6.1835    5.1980  -19.7865 H   0  0  0  0  0  0  0  0  0  0  0  0
    6.1394    3.0362  -23.1684 H   0  0  0  0  0  0  0  0  0  0  0  0
    4.3703    3.0563  -22.8578 H   0  0  0  0  0  0  0  0  0  0  0  0
    7.2587    1.5853  -19.1318 H   0  0  0  0  0  0  0  0  0  0  0  0
    8.0942    3.1003  -18.6486 H   0  0  0  0  0  0  0  0  0  0  0  0
    7.4659    4.9639  -22.5712 H   0  0  0  0  0  0  0  0  0  0  0  0
    7.7436    2.9119  -21.0997 H   0  0  0  0  0  0  0  0  0  0  0  0
    4.7797    9.4182  -24.1110 H   0  0  0  0  0  0  0  0  0  0  0  0
    4.8024   10.4905  -22.6701 H   0  0  0  0  0  0  0  0  0  0  0  0
    6.1946   10.4817  -23.8052 H   0  0  0  0  0  0  0  0  0  0  0  0
    3.5683    3.3570  -20.7412 H   0  0  0  0  0  0  0  0  0  0  0  0
    3.1083    3.6210  -17.3429 H   0  0  0  0  0  0  0  0  0  0  0  0
    2.3426    3.6238  -18.8966 H   0  0  0  0  0  0  0  0  0  0  0  0
  1  2  2  0  0  0  0
  1  5  1  0  0  0  0
  2  6  1  0  0  0  0
  3  6  2  0  0  0  0
  3  7  1  0  0  0  0
  4  8  1  0  0  0  0
  4  9  2  0  0  0  0
  5  7  2  0  0  0  0
  5 16  1  0  0  0  0
  6 23  1  0  0  0  0
  7 24  1  0  0  0  0
  8 14  1  0  0  0  0
  8 18  2  0  0  0  0
  9 19  1  0  0  0  0
  9 25  1  0  0  0  0
 10 20  2  0  0  0  0
 10 21  1  0  0  0  0
 10 26  1  0  0  0  0
 11 14  1  0  0  0  0
 11 15  1  0  0  0  0
 12 16  1  0  0  0  0
 12 22  1  0  0  0  0
 13 15  1  0  0  0  0
 13 26  1  0  0  0  0
 14 22  1  0  0  0  0
 15 16  1  0  0  0  0
 16 20  1  0  0  0  0
 17 19  1  0  0  0  0
 18 19  1  0  0  0  0
  1 27  1  0  0  0  0
  2 28  1  0  0  0  0
  3 29  1  0  0  0  0
  4 30  1  0  0  0  0
 11 31  1  0  0  0  0
 11 32  1  0  0  0  0
 12 33  1  0  0  0  0
 12 34  1  0  0  0  0
 13 35  1  0  0  0  0
 13 36  1  0  0  0  0
 14 37  1  0  0  0  0
 15 38  1  0  0  0  0
 17 39  1  0  0  0  0
 17 40  1  0  0  0  0
 17 41  1  0  0  0  0
 20 42  1  0  0  0  0
 21 43  1  0  0  0  0
 21 44  1  0  0  0  0
M  CHG  1  20   1
M  END
> <OMEGA_C>
YJ2VQKMssj461KTBED2WQPL2hb+2IabBeHLTQIuyWb9vELLB75HrQF7P+EBRKanB7w20QJ0qlj+l
HqrBqRC1QCmv0r9vwKzBpkbTQEBNDD92y7DBTMnSQJEB2kDBsa/BwE7fQHtrEEF+YKzB6iyMQFTt
TkAufZfBjGLeQGnkmUC+yaPBUU2rQNxzV0DVybPBjyjlQChjK0BYZpjBxxvVQIDwqUC7Q6/BbXjd
QDqYUECRqKPBluWyQP57LUBNoqjBCFitQNvQHUGBqbrBi5+6QM9070CbcbbB1MXBQAuaDEH2VLTB
wh6NQBh2SEBvAKLBfYJKQOQ6YUCAsJLBCXCsQGVwmUCU6bLBDX61QIo+P8CNAq7BN3XxQPxDoT97
GLbBI1ntQDxpI0HIk6jBmmu5QKLmQ0ClGY/BnWt7QL7JTD9Wvp/BZfB9QJdk1L/+CKLB3BTrQD1Z
qL+AJ7fBv2QBQS0t8UByDaPB4R/+QCItpUAZPKHBo9/FQC1WpkCpSp7BunXEQHBQQkDnWLnBGtmL
QGuaQ0DF3LbBX0foQKHryj/jDZnB3oEBQRlrRkBLMJXB9+juQGTYnkC9kbTBisv3QE1dOkAWzKjB
a/OYQPWwFkFA48DBDa2ZQPjYJ0FaXLXBzTnGQC+1J0ECcb7ByV9kQIPZVkD67aXBIO5GQLS9Z0BZ
vorBX+0VQLDsZ0AqLJfBhU2WQFe3qz58n6TBhaOXQMnfh78cuaXByhTUQOEoXL8j5LHBM/W5QDwp
9UAgHbfBMfazQFkTlT8IJarBjHK2QBhr1L81W6zB1ijTQMCBCj831rDBuPDSQOfc2UBqtq/Blt/C
QMFYD0H1bLTBVWmMQPxET0CDhpfBqVzeQLOFmUAVMqTBpfOpQNcCV0Dn47PBxGHlQCJNLECxpJjB
jgLUQAq4qUAWnq/B0jrdQJZIUEBK8qPBVWmyQGIHLUDvwajBVPXzQEQqIEHm3KbBpY7pQAeY8kA1
WanBBWffQMuMDUEqEqzBot+MQCu+R0DYBqLBQThLQJ0oYUAvpJLBCfyqQEppmUAxBLPBrI+3QHxC
QMDtaq3B3qPwQKDcoD/oWLbBCzOzQGlSIUF4/bjBSx66QKQ0RkBMQ4/B+eF8QMA1ST9ihJ/BWO6A
QKCp1r/FdaHBeLfrQEVxqb+5/LbB69WkQLJp6kD7Zr3BKmz+QOmmpEAj3KHB2oDGQHAzpkAYjp7B
fMHCQMYOQkDvjrnBAlOKQM7uQkCe07bBNlnoQF6RzD9rLpnBbbcBQQ16R0BakZXBSj/tQMaNnkCL
FLXBV033QJZYOUDuHanB940FQRGIGkG53KDBaFQCQVLNKUGm7azBAmLbQF0BKkGA7aLBVEljQGYV
VUA44qXBcU5IQL15aEDAs4rB8SQWQJS/ZkCKDpfB6/HZQMteAT80c6zBFMLaQOeEY7+r0K3BOu+N
QHV+er+/xarBp+TqQJ46+UDvOKnBr0mzQJ05lz/H0KnBiNa0QNz40L9/36zBPreMQJbn1T6ZY6nB
kyjSQEpF2kDuua/BgkPeQCuXEEGcZKzBIXOMQBBXTkBfWpfBc9zdQAi4mkDQvaPBpVytQIP7VEBV
y7PBh83lQHn3LUAwQpjBFE/VQBc9qkDeTK/BrKXdQGFtUkDzjaPBHSSzQL5GLkA9dqjBINyrQIre
HUEjmbrBSpm5QHqT70D5abbBwY3AQGixDEFFTLTBt/+NQPGDTEDa36HB7phKQIz8XkBikpLBTpKt
QNR+mEBLQbPBXJ61QIlZPsBALK7BmdhLQF+FfT+u06fBjjjsQN6aI0E1mqjBFp65QMF4Q0Ai9I7B
iBn3QHRLiT8faq3Bf4/4QIe8sb//lq/BJndhQHCkxr8PN6rB6ioBQZS48UBeKKPBzzX9QPuJpkDZ
CqHBprbEQG/xpkBYZZ7BKLnHQOxqP0Ao97jBArOOQD9CP0AKKLfBHSPqQHOT0D8F5ZjB75IBQfIY
S0A2CpXB2QLwQKnDn0C4ZrTBPgH4QJOhPEAwtqjBnHOXQFy1FkFrz8DBPCqYQC/WJ0HWRbXB95XE
QLHVJ0GmZL7BcEVoQEMaYUAG0qXBBJdGQBx1ZEDqnYrB1x4WQBOGZUDpE5fBVUzaQEegAT8kfazB
T7jbQGrxY7+5m63BIBqPQBLIgL9iU6rBsRa5QAVl9UDRF7fBJ3WzQIQdlj+H1qnBTDa2QAf70r8J
bazBhUmNQE40yT4MKqnBI1bSQMY62kBjuK/BE9jBQG99D0HHZ7TB5J2MQHC9TkBKZ5fBYL3dQAp4
mkCAGqTBDwisQKrBVEBU5bPBg/nlQDsUL0D3eZjBijLUQE0aqkB9nq/BA2zdQNVkUkD50KPBm8Oy
QNHfLUDMlajBJ+fyQG5pIEEQ3KbBveHoQO8X80ATX6nBGXbeQEDDDUEvEazB37+NQC2xS0Ct66HB
oRlLQFgeX0BQkJLBzg+sQNCPmECkVLPBopS3QDGEP8Azga3B/KVMQKWwcz9aj6fBlgOyQCdxIUEb
9bjBkyq6QF3cRUAvGo/BQh/3QNjBij8+qK3BIq35QOvQsL8LYa/BVmNkQDejy7+9mKnBYuujQFiM
6kBwXL3B/139QPo2pkABmKHBvSDFQLDapkB6oJ7BEg3GQG6HP0AGMrnBjyyNQFvKPkB9HrfBRS/q
QCKg0j95AZnBA74BQZVgTEC+YJXBDV3uQM94n0AK37TBLJv3QIoPPEAm/qjBDhoFQajQGkH64qDB
jbQBQc0dKkFj7qzB/kjaQAYsKkEs5KLBcRVnQNYEX0Dw0qXBepxHQOiDZUChnYrBqzoWQD6JZEBK
BZfB

> <OMEGA_E>
KCbSPgS31D5sWe4+rO/uPg==

> <OMEGA_NBR>
      8536

$$$$
270439
  -OEChem-04172616093D

 42 45  0     1  0  0  0  0  0999 V2000
    4.6415    0.4020  -20.6900 C   0  0  0  0  0  0  0  0  0  0  0  0
    4.6721   -0.9915  -20.8558 C   0  0  0  0  0  0  0  0  0  0  0  0
    6.6760   -0.7911  -22.2201 C   0  0  0  0  0  0  0  0  0  0  0  0
    5.6393    1.2268  -21.2770 C   0  0  0  0  0  0  0  0  0  0  0  0
    5.6902   -1.5878  -21.6163 C   0  0  0  0  0  0  0  0  0  0  0  0
    6.6586    0.6053  -22.0611 C   0  0  0  0  0  0  0  0  0  0  0  0
    6.5808    6.8322  -21.9610 C   0  0  0  0  0  0  0  0  0  0  0  0
    5.9187    8.8762  -21.5551 C   0  0  0  0  0  0  0  0  0  0  0  0
    4.3946    3.2451  -18.9364 C   0  0  0  0  0  0  0  0  0  0  0  0
    6.9308    4.8626  -20.4841 C   0  0  0  0  0  0  0  0  0  0  0  0
    5.3403    3.4064  -22.4754 C   0  0  0  0  0  0  0  0  0  0  0  0
    7.1806    2.7360  -19.0763 C   0  0  0  0  0  0  0  0  0  0  0  0
    6.6409    5.3419  -21.9191 C   0  0  1  0  0  0  0  0  0  0  0  0
    6.9223    3.3200  -20.4731 C   0  0  1  0  0  0  0  0  0  0  0  0
    5.5930    2.7605  -21.0856 C   0  0  2  0  0  0  0  0  0  0  0  0
    5.1835   10.0733  -21.0124 C   0  0  0  0  0  0  0  0  0  0  0  0
    5.7163    7.6283  -21.2179 N   0  0  0  0  0  0  0  0  0  0  0  0
    7.3011    7.5892  -22.7462 N   0  0  0  0  0  0  0  0  0  0  0  0
    4.4199    3.1800  -20.2507 N   0  3  0  0  0  0  0  0  0  0  0  0
    3.1704    3.4669  -18.3268 N   0  0  0  0  0  0  0  0  0  0  0  0
    6.8957    8.9002  -22.4967 O   0  0  0  0  0  0  0  0  0  0  0  0
    5.3691    4.8359  -22.3650 O   0  0  0  0  0  0  0  0  0  0  0  0
    5.7188   -2.9287  -21.7729 F   0  0  0  0  0  0  0  0  0  0  0  0
    7.6273    1.3163  -22.6854 F   0  0  0  0  0  0  0  0  0  0  0  0
    5.8231    3.1065  -17.9032 S   0  0  0  0  0  0  0  0  0  0  0  0
    3.8503    0.8529  -20.1094 H   0  0  0  0  0  0  0  0  0  0  0  0
    3.9111   -1.6059  -20.3977 H   0  0  0  0  0  0  0  0  0  0  0  0
    7.4526   -1.2542  -22.8106 H   0  0  0  0  0  0  0  0  0  0  0  0
    7.9160    5.2307  -20.1617 H   0  0  0  0  0  0  0  0  0  0  0  0
    6.1561    5.2430  -19.8021 H   0  0  0  0  0  0  0  0  0  0  0  0
    6.1223    3.0795  -23.1766 H   0  0  0  0  0  0  0  0  0  0  0  0
    4.3559    3.0899  -22.8506 H   0  0  0  0  0  0  0  0  0  0  0  0
    7.2842    1.6444  -19.1633 H   0  0  0  0  0  0  0  0  0  0  0  0
    8.1146    3.1628  -18.6821 H   0  0  0  0  0  0  0  0  0  0  0  0
    7.4447    4.9880  -22.5815 H   0  0  0  0  0  0  0  0  0  0  0  0
    7.7424    2.9846  -21.1251 H   0  0  0  0  0  0  0  0  0  0  0  0
    4.4360    9.7425  -20.2763 H   0  0  0  0  0  0  0  0  0  0  0  0
    5.8988   10.7540  -20.5277 H   0  0  0  0  0  0  0  0  0  0  0  0
    4.6788   10.5982  -21.8368 H   0  0  0  0  0  0  0  0  0  0  0  0
    3.5826    3.4326  -20.7356 H   0  0  0  0  0  0  0  0  0  0  0  0
    3.1141    3.5439  -17.3314 H   0  0  0  0  0  0  0  0  0  0  0  0
    2.3431    3.5501  -18.8823 H   0  0  0  0  0  0  0  0  0  0  0  0
  1  2  2  0  0  0  0
  1  4  1  0  0  0  0
  2  5  1  0  0  0  0
  3  5  2  0  0  0  0
  3  6  1  0  0  0  0
  4  6  2  0  0  0  0
  4 15  1  0  0  0  0
  5 23  1  0  0  0  0
  6 24  1  0  0  0  0
  7 13  1  0  0  0  0
  7 17  1  0  0  0  0
  7 18  2  0  0  0  0
  8 16  1  0  0  0  0
  8 17  2  0  0  0  0
  8 21  1  0  0  0  0
  9 19  2  0  0  0  0
  9 20  1  0  0  0  0
  9 25  1  0  0  0  0
 10 13  1  0  0  0  0
 10 14  1  0  0  0  0
 11 15  1  0  0  0  0
 11 22  1  0  0  0  0
 12 14  1  0  0  0  0
 12 25  1  0  0  0  0
 13 22  1  0  0  0  0
 14 15  1  0  0  0  0
 15 19  1  0  0  0  0
 18 21  1  0  0  0  0
  1 26  1  0  0  0  0
  2 27  1  0  0  0  0
  3 28  1  0  0  0  0
 10 29  1  0  0  0  0
 10 30  1  0  0  0  0
 11 31  1  0  0  0  0
 11 32  1  0  0  0  0
 12 33  1  0  0  0  0
 12 34  1  0  0  0  0
 13 35  1  0  0  0  0
 14 36  1  0  0  0  0
 16 37  1  0  0  0  0
 16 38  1  0  0  0  0
 16 39  1  0  0  0  0
 19 40  1  0  0  0  0
 20 41  1  0  0  0  0
 20 42  1  0  0  0  0
M  CHG  1  19   1
M  END
> <OMEGA_C>
PoeUQBfQzT4khaXBkIGVQJrTfb+92KbBdqHVQBCHSr/EwrHBPnW0QPsHnT88N6rBgBa2QIc7y78c
7qzB8BLVQIbzGj8lfbDBtJXSQLeh2kA3sK/BPGa9QPIEDkHFcKzB5KCMQKOvT0CwfZfBNsndQK+a
m0CC36PB0uOqQP0CWkCuzbPBJsflQMQaL0BKnJjBgoLUQIvwqkBJWq/BqoPdQBh6VED7yKPBDvqy
QEKrMEBKr6jBNt+lQEksIUFRGajBLOy2QL8a9EAzvqnBkKLpQO3a8kA1+LXBwm+NQJGES0B7AaLB
HOhKQGHiXUBcnZLBwKncQFdnDkE++bPBgs+rQNG/mkBs67LBogC3QDdvO8DbLq7BGhP0QGl9qD/L
e7XBmla6QLHRRkC7OY/Bcmt2QB9YWj8h4KDBWk96QKWMzb9yLqPB/3vuQAiLoL8dfLbBtU/9QDBi
p0A6S6HBu/7EQIjGp0C9ap7BE+rDQEAXRUCeabnBd2OLQO/ARUD2zbbBjRjpQLF60j+CTpnBcNUB
QelqSkDkdJXB/zruQOGdn0DYprTBb8H3QEkEP0BEAKnBj/ONQCjhG0HlNaLBJMO8QJUQLEG0OKTB
X7iVQD2SKUHNsa7BmUllQNyvW0CW4qXBAU5HQKLOYkCvporB2PQVQKM1Y0ACD5fBSFfVQJoWKz+s
TbDBeFjYQLA3Nr+yMrLBTCOYQKBIib9Vm6fBr7WzQOrUmj/g/6nBo7+5QG1+yr8y1q3B5JWUQOvu
nT6nsKXBOjbSQBsd2kB/qq/BXCC8QE2wDUEHgqzB4JuMQFhJUkAJY5fBUkveQGrSmkBg96PBbUCr
QJHfV0BXuLPB75HlQBw2LkCKkZjBTKXUQNpVqkCFaq/ByjrdQAK1UkBmyqPBgi+yQI7eL0Aqe6jB
zQCkQF3OIEG4UKjBfQ21QPJA80DgD6rBm7fqQBrH8kBaerXBRVSNQB9KTkCm5aHBjsVKQF3iX0AU
g5LBjiLdQG5LDkFZjbPBZyGsQBPJmUB5BLPBw2u8QKc9OsBOra/B3j5lQM4+Nj8o0Z/BtVG6QLZk
R0B2JY/BwATtQDpWqj/CsrPBJy3yQKJAjb/JAbfBDcKAQGbE37/vP6TB7if+QHYZpkASgqHBkwXG
QG17p0A+b57BjtLEQJM2QkCzILnBRA2MQGhJQ0AE4bbBaaLoQC990D/LK5nBZs4BQXRjSUDnfJXB
O3fuQK1+n0B1v7TB0xP3QN32O0BZC6nBDuuKQGBtG0EqwqLBxz+6QKuDK0FYF6TBFjyVQHlwKUFc
Ca/BIhJmQHUsYUBOzKXB/OlGQBFOY0C8iYrBrv8VQKFHZkCE95bB1uzRQLx+Az9QFbDB1rXRQJxY
Yb97VbHB60iRQMucgr+8f6bBnu6xQLQylj9Z+qnB42yxQK/W0r8ohqzBSvuQQF2lwD78NKXBBfvI
QD6Q10AY/KzBouu9QCVEDkEvPq3BDHyPQCzeW0DfN5jBOWDmQAkjlkDArqTBveGxQCIIU0D+b7TB
46rmQPAMJ0CW65jB7F/XQPHKqkDBcq/BMcvgQI4dSkByWaTBd7m0QBPjLUDG+qjBfRe+QOLVJUEX
lq/BMEnVQIUz/kA6nrHBjleqQGTp3kAfFKbBob6QQETaVECjtqLBAjlRQMTJcEDXi5PBgoujQMY0
BUF1/6XBRXmxQK01l0Ck/bPBrxaxQJpKP8Afu63BuKRgQDiWZD/7cJ/BBRS8QIrISkBbvo/B89/q
QPlFjD/W1LPB0mDqQAVorr/f/rXBMw1xQJj3zr/y0KLBszoEQQKanUC4hKPBv5fTQFczpECAH57B
drfNQAebPUBzHLnBaVWUQJdSPEBNSbjB42/mQOdlwT/gPZnBStYCQbA3PUBXz5XBJgPyQA4Vq0BN
M7XBIdv5QBe+LUDSaKnBScnVQHpJKUFs3LXBiCWeQM7HKkFSVbLBn3XGQKy0LkF6R6jBAWxvQEJN
a0DW1KbByqRMQLrbdUCLl4vB6r4dQD3NekDKIZjB

> <OMEGA_E>
iGCyPjihxT4gRgU/

> <OMEGA_NBR>
     11052

$$$$
270438
  -OEChem-04172616093D

 47 50  0     1  0  0  0  0  0999 V2000
    6.7949    0.4868  -21.5615 C   0  0  0  0  0  0  0  0  0  0  0  0
    6.8149   -0.9079  -21.7333 C   0  0  0  0  0  0  0  0  0  0  0  0
    4.4120   -0.9867  -21.3682 C   0  0  0  0  0  0  0  0  0  0  0  0
    6.9442    7.6777  -23.0449 C   0  0  0  0  0  0  0  0  0  0  0  0
    6.3179    7.6811  -20.8422 C   0  0  0  0  0  0  0  0  0  0  0  0
    5.5884    1.1692  -21.2387 C   0  0  0  0  0  0  0  0  0  0  0  0
    6.6423    6.8309  -21.8691 C   0  0  0  0  0  0  0  0  0  0  0  0
    5.6259   -1.6466  -21.6242 C   0  0  0  0  0  0  0  0  0  0  0  0
    4.3794    0.4098  -21.1929 C   0  0  0  0  0  0  0  0  0  0  0  0
    4.3701    3.1902  -18.9140 C   0  0  0  0  0  0  0  0  0  0  0  0
    6.9366    4.7987  -20.4072 C   0  0  0  0  0  0  0  0  0  0  0  0
    5.4267    3.3521  -22.4570 C   0  0  0  0  0  0  0  0  0  0  0  0
    7.1585    2.6588  -19.0107 C   0  0  0  0  0  0  0  0  0  0  0  0
    6.6936    5.3213  -21.8439 C   0  0  1  0  0  0  0  0  0  0  0  0
    6.9225    3.2532  -20.4164 C   0  0  1  0  0  0  0  0  0  0  0  0
    5.5936    2.7114  -21.0509 C   0  0  2  0  0  0  0  0  0  0  0  0
    6.1398   10.1746  -20.6462 C   0  0  0  0  0  0  0  0  0  0  0  0
    4.6211   10.4590  -20.6018 C   0  0  0  0  0  0  0  0  0  0  0  0
    6.8123    8.9408  -22.7029 N   0  0  0  0  0  0  0  0  0  0  0  0
    6.4458    8.9305  -21.3967 N   0  0  0  0  0  0  0  0  0  0  0  0
    4.4291    3.1774  -20.2291 N   0  3  0  0  0  0  0  0  0  0  0  0
    3.1440    3.4546  -18.3238 N   0  0  0  0  0  0  0  0  0  0  0  0
    5.4506    4.7959  -22.3645 O   0  0  0  0  0  0  0  0  0  0  0  0
    5.6448   -2.9883  -21.7884 F   0  0  0  0  0  0  0  0  0  0  0  0
    3.1687    0.9864  -21.0010 F   0  0  0  0  0  0  0  0  0  0  0  0
    4.4068   11.6444  -19.9731 F   0  0  0  0  0  0  0  0  0  0  0  0
    3.9732    9.4762  -19.9192 F   0  0  0  0  0  0  0  0  0  0  0  0
    4.1180   10.5308  -21.8639 F   0  0  0  0  0  0  0  0  0  0  0  0
    5.7714    2.9952  -17.8545 S   0  0  0  0  0  0  0  0  0  0  0  0
    7.7095    1.0496  -21.6763 H   0  0  0  0  0  0  0  0  0  0  0  0
    7.7454   -1.4117  -21.9493 H   0  0  0  0  0  0  0  0  0  0  0  0
    3.4962   -1.5557  -21.3053 H   0  0  0  0  0  0  0  0  0  0  0  0
    7.2265    7.3174  -24.0232 H   0  0  0  0  0  0  0  0  0  0  0  0
    6.0293    7.4267  -19.8330 H   0  0  0  0  0  0  0  0  0  0  0  0
    7.9128    5.1551  -20.0468 H   0  0  0  0  0  0  0  0  0  0  0  0
    6.1426    5.1693  -19.7422 H   0  0  0  0  0  0  0  0  0  0  0  0
    6.2490    3.0177  -23.1067 H   0  0  0  0  0  0  0  0  0  0  0  0
    4.4661    3.0332  -22.8880 H   0  0  0  0  0  0  0  0  0  0  0  0
    7.2810    1.5698  -19.1055 H   0  0  0  0  0  0  0  0  0  0  0  0
    8.0777    3.0963  -18.5938 H   0  0  0  0  0  0  0  0  0  0  0  0
    7.5284    4.9866  -22.4772 H   0  0  0  0  0  0  0  0  0  0  0  0
    7.7499    2.9192  -21.0597 H   0  0  0  0  0  0  0  0  0  0  0  0
    6.6461   11.0195  -21.1358 H   0  0  0  0  0  0  0  0  0  0  0  0
    6.5128   10.0703  -19.6166 H   0  0  0  0  0  0  0  0  0  0  0  0
    3.6255    3.5080  -20.7242 H   0  0  0  0  0  0  0  0  0  0  0  0
    3.0736    3.5292  -17.3291 H   0  0  0  0  0  0  0  0  0  0  0  0
    2.3299    3.5708  -18.8928 H   0  0  0  0  0  0  0  0  0  0  0  0
  1  2  1  0  0  0  0
  1  6  2  0  0  0  0
  2  8  2  0  0  0  0
  3  8  1  0  0  0  0
  3  9  2  0  0  0  0
  4  7  1  0  0  0  0
  4 19  2  0  0  0  0
  5  7  2  0  0  0  0
  5 20  1  0  0  0  0
  6  9  1  0  0  0  0
  6 16  1  0  0  0  0
  7 14  1  0  0  0  0
  8 24  1  0  0  0  0
  9 25  1  0  0  0  0
 10 21  2  0  0  0  0
 10 22  1  0  0  0  0
 10 29  1  0  0  0  0
 11 14  1  0  0  0  0
 11 15  1  0  0  0  0
 12 16  1  0  0  0  0
 12 23  1  0  0  0  0
 13 15  1  0  0  0  0
 13 29  1  0  0  0  0
 14 23  1  0  0  0  0
 15 16  1  0  0  0  0
 16 21  1  0  0  0  0
 17 18  1  0  0  0  0
 17 20  1  0  0  0  0
 18 26  1  0  0  0  0
 18 27  1  0  0  0  0
 18 28  1  0  0  0  0
 19 20  1  0  0  0  0
  1 30  1  0  0  0  0
  2 31  1  0  0  0  0
  3 32  1  0  0  0  0
  4 33  1  0  0  0  0
  5 34  1  0  0  0  0
 11 35  1  0  0  0  0
 11 36  1  0  0  0  0
 12 37  1  0  0  0  0
 12 38  1  0  0  0  0
 13 39  1  0  0  0  0
 13 40  1  0  0  0  0
 14 41  1  0  0  0  0
 15 42  1  0  0  0  0
 17 43  1  0  0  0  0
 17 44  1  0  0  0  0
 21 45  1  0  0  0  0
 22 46  1  0  0  0  0
 22 47  1  0  0  0  0
M  CHG  1  21   1
M  END
> <OMEGA_C>
JnDZQLA3+T4DfqzB2xPaQOxoaL+63a3B2i6NQPSafL8I8qrBxzbeQFGv9UAJXLjBmizKQCzL9UC9
vKbB7tOyQO+mlT/r6KnBsI3UQNOW2kD3867BSwe0QAvD0r9d/qzBECSMQKDT0T4oi6nBPdiLQL0r
TEDhT5fBS/jdQIuOmUDtQaPBRaetQFCIVkAGqLPBjRLlQGoqKkD5FZjBBzLWQMxHqkBjwK7BSoXd
QKozUEDEVKPBd/6yQBOILUBQaKjB7njEQDTLIkFcK6XB2N+TQA5YJ0F60KTBBv7ZQKgND0GWn7XB
YUTOQEjjDkF0LKvB2rqNQOpaS0A11aHB7zZJQC4YXUAsl5LBhGuuQMB3mUB/6rLBEaK0QHhAP8C8
Tq7BoMtKQBqDfD8UAqjBhASNQGVPOkHRyJ/Br0h+QFSeF0FzWp/Bj8aDQP99KEE56a7BmK+4QC2x
P0AH1o7BarT2QGhYhj8Naa3BnNr3QGuztL8bmK/BUMFfQJAix78+carBNj/nQF0o6kB5L8DBa/DA
QJGn7UD2qZ7BszX9QFL2pEDDX6DB9Y/EQDJrpUAU8J3BmffHQLYhQUBv2rjBZuqOQLQgQkCIGrfB
//3oQBPvyD8R2JjBHT4BQcApRkAxwJTB2+jwQASSn0Bg0bPBiv/3QI7TOkA5eqjBAa3UQA1QMEEG
FqnBd2jQQOYfIUHS7pzB9AhoQPaCYEAby6XBXrVEQFjeYUD6oYrBrBwVQEaHZEB0JJfB

> <OMEGA_E>
zJedPg==

> <OMEGA_NBR>
     12144

$$$$
270441
  -OEChem-04172616093D

 44 47  0     1  0  0  0  0  0999 V2000
    4.6043    0.3774  -20.6880 C   0  0  0  0  0  0  0  0  0  0  0  0
    4.6024   -1.0161  -20.8504 C   0  0  0  0  0  0  0  0  0  0  0  0
    6.6251   -0.8678  -22.1943 C   0  0  0  0  0  0  0  0  0  0  0  0
    6.8749    8.9251  -22.5604 C   0  0  0  0  0  0  0  0  0  0  0  0
    5.6275    1.1756  -21.2670 C   0  0  0  0  0  0  0  0  0  0  0  0
    5.6123   -1.6383  -21.6006 C   0  0  0  0  0  0  0  0  0  0  0  0
    6.6408    0.5289  -22.0376 C   0  0  0  0  0  0  0  0  0  0  0  0
    7.3197    7.6505  -22.7680 C   0  0  0  0  0  0  0  0  0  0  0  0
    6.5419    6.7798  -21.8739 C   0  0  0  0  0  0  0  0  0  0  0  0
    4.4019    3.2546  -18.9538 C   0  0  0  0  0  0  0  0  0  0  0  0
    6.9540    4.7916  -20.4442 C   0  0  0  0  0  0  0  0  0  0  0  0
    5.3970    3.3498  -22.4783 C   0  0  0  0  0  0  0  0  0  0  0  0
    7.1727    2.6553  -19.0575 C   0  0  0  0  0  0  0  0  0  0  0  0
    6.6565    5.2941  -21.8665 C   0  0  1  0  0  0  0  0  0  0  0  0
    6.9402    3.2488  -20.4538 C   0  0  1  0  0  0  0  0  0  0  0  0
    5.6120    2.7085  -21.0827 C   0  0  2  0  0  0  0  0  0  0  0  0
    5.2239    9.9416  -20.9902 C   0  0  0  0  0  0  0  0  0  0  0  0
    5.6988    7.5110  -21.1758 N   0  0  0  0  0  0  0  0  0  0  0  0
    5.9080    8.7817  -21.5945 N   0  0  0  0  0  0  0  0  0  0  0  0
    4.4355    3.1553  -20.2662 N   0  3  0  0  0  0  0  0  0  0  0  0
    3.1850    3.5523  -18.3634 N   0  0  0  0  0  0  0  0  0  0  0  0
    5.4079    4.7750  -22.3575 O   0  0  0  0  0  0  0  0  0  0  0  0
    5.6064   -2.9793  -21.7567 F   0  0  0  0  0  0  0  0  0  0  0  0
    7.6349    1.2160  -22.6489 F   0  0  0  0  0  0  0  0  0  0  0  0
    8.2919    7.2544  -23.6201 F   0  0  0  0  0  0  0  0  0  0  0  0
    5.8121    3.0660  -17.9006 S   0  0  0  0  0  0  0  0  0  0  0  0
    3.8188    0.8490  -20.1161 H   0  0  0  0  0  0  0  0  0  0  0  0
    3.8227   -1.6107  -20.3977 H   0  0  0  0  0  0  0  0  0  0  0  0
    7.3968   -1.3514  -22.7748 H   0  0  0  0  0  0  0  0  0  0  0  0
    7.2056    9.8331  -23.0426 H   0  0  0  0  0  0  0  0  0  0  0  0
    7.9428    5.1513  -20.1235 H   0  0  0  0  0  0  0  0  0  0  0  0
    6.1856    5.1647  -19.7512 H   0  0  0  0  0  0  0  0  0  0  0  0
    6.2044    3.0334  -23.1551 H   0  0  0  0  0  0  0  0  0  0  0  0
    4.4284    3.0242  -22.8857 H   0  0  0  0  0  0  0  0  0  0  0  0
    7.2465    1.5612  -19.1446 H   0  0  0  0  0  0  0  0  0  0  0  0
    8.1146    3.0554  -18.6540 H   0  0  0  0  0  0  0  0  0  0  0  0
    7.4796    4.9882  -22.5290 H   0  0  0  0  0  0  0  0  0  0  0  0
    7.7660    2.9145  -21.0990 H   0  0  0  0  0  0  0  0  0  0  0  0
    4.5559    9.5965  -20.1872 H   0  0  0  0  0  0  0  0  0  0  0  0
    5.9719   10.6320  -20.5732 H   0  0  0  0  0  0  0  0  0  0  0  0
    4.6341   10.4612  -21.7597 H   0  0  0  0  0  0  0  0  0  0  0  0
    3.6027    3.3993  -20.7629 H   0  0  0  0  0  0  0  0  0  0  0  0
    3.1226    3.6542  -17.3706 H   0  0  0  0  0  0  0  0  0  0  0  0
    2.3688    3.6654  -18.9299 H   0  0  0  0  0  0  0  0  0  0  0  0
  1  2  2  0  0  0  0
  1  5  1  0  0  0  0
  2  6  1  0  0  0  0
  3  6  2  0  0  0  0
  3  7  1  0  0  0  0
  4  8  2  0  0  0  0
  4 19  1  0  0  0  0
  5  7  2  0  0  0  0
  5 16  1  0  0  0  0
  6 23  1  0  0  0  0
  7 24  1  0  0  0  0
  8  9  1  0  0  0  0
  8 25  1  0  0  0  0
  9 14  1  0  0  0  0
  9 18  2  0  0  0  0
 10 20  2  0  0  0  0
 10 21  1  0  0  0  0
 10 26  1  0  0  0  0
 11 14  1  0  0  0  0
 11 15  1  0  0  0  0
 12 16  1  0  0  0  0
 12 22  1  0  0  0  0
 13 15  1  0  0  0  0
 13 26  1  0  0  0  0
 14 22  1  0  0  0  0
 15 16  1  0  0  0  0
 16 20  1  0  0  0  0
 17 19  1  0  0  0  0
 18 19  1  0  0  0  0
  1 27  1  0  0  0  0
  2 28  1  0  0  0  0
  3 29  1  0  0  0  0
  4 30  1  0  0  0  0
 11 31  1  0  0  0  0
 11 32  1  0  0  0  0
 12 33  1  0  0  0  0
 12 34  1  0  0  0  0
 13 35  1  0  0  0  0
 13 36  1  0  0  0  0
 14 37  1  0  0  0  0
 15 38  1  0  0  0  0
 17 39  1  0  0  0  0
 17 40  1  0  0  0  0
 17 41  1  0  0  0  0
 20 42  1  0  0  0  0
 21 43  1  0  0  0  0
 21 44  1  0  0  0  0
M  CHG  1  20   1
M  END
> <OMEGA_C>
P1aTQGw2wT7zgKXBdUaTQHEOgr+vzabBJQHUQGYqXr/YjbHBx/7bQBPNDkG/e7TBtxS0QNd6lj+7
IqrB9JezQC+z0b/1zazBY4HUQMhmBz/rTLDBrzrqQC/R9EDvJLbBf1fRQPTz2EDY/a7BtdyMQClM
UEB5oZfBDYfeQLVUmUDKjaPB77OsQO5iVkCV07PB7YblQCvwKUCzdZjB0wHVQPFoqUCQ7q7BuRXe
QHXsT0BYoaPBd5WzQNtXLUBhqajBKSqnQMQQH0HY66fBoVy2QNVZ8EAEaKnB8A29QOGBDEGYwazB
9O+NQL/vSUAWIaLBTddLQC9ZY0BB6JLBtg2tQIXMmEAP3LLBUmezQKitPsDBDa7BV1H0QFynmz/o
MLXBk6sEQeMj6EDv9bzBk/y5QOE5REB/NI/BtGd0QPZYWT/J7aDBuad0QAstzr+ELqPBn7LsQDD8
rL/WMrbBeZTmQGdUHUEpV7jBgSv+QBbXpEDw/KDBSvDFQEtFpUBkAp7BN4rGQHgjQkCVPbnBobWN
QOSMQUDVFbfBi+PnQC7Wxz8SKJnBgNUBQSGLQ0B9O5XB8VjvQKqfn0BkO7TB5IL4QNWHOkC0yqjB
w8mRQE+LGUF6f6HBNBq/QHkcKkH9laTBrEqUQPNgJ0HfE67BApJmQGWOWUBnGqbBwdhHQDTeaUDs
9orBwpkXQJCVakB8cJfBCvfTQJATGj8Zg7DBiXXWQHXJR7+cWLLBLcaXQJpij7/rJqfBntHdQNib
DkFsKrTBgSWzQI/Fkz+zAqrBZWi4QNkR0r8zo63BzZWUQPbHhj4BWKXBAxbrQOs19ECY/LXBYQnR
QMhb2EC4Fq/BGrCMQKhpUkDfg5fB6Y3eQLBlmEAmyKPBBeqrQLhsVEB0xbPBCB3lQBW4KEDIj5jB
FWXUQN6qqEBLHa/BzUjdQIDkTUCzw6PBkDCyQDBBLEABhqjBX7mlQD/gHkGNhajBzCW2QLf/70AF
h6nBU4i+QPFrDEEbhazBXEyNQGy0S0CuAqLBwLxLQFoTZUBltJLBg1isQAjzl0CL8rLB8bq6QN43
PsCPW6/B0AVnQD+cLT9PNp/BFgEFQfxD50DU0rzB3wW6QDVRREAYMo/BBGXrQHjXoD/OGrTBDHjv
QGwwl7+2X7fBFuCAQO4A5b9Tg6PB6D7pQF4jHUFq3rfB1pj+QLNio0C+Y6HBhqPGQEvXpECoH57B
+fvFQO2GP0BrE7nBTw2NQJt1P0AnGLfBpjrnQKs8xT8WLZnBWr0BQVs1QkA1dJXBtn7uQH71nkBB
f7TB9C73QEM4N0DRAanBiL6MQLI4GUH5AKPByDi7QKDvKUE2SKTBE7uWQPI4J0FWTa/B2rdlQPEc
XUAB9aXBtAJIQN09akCQvorBRmgXQHFibUASMZfBUZyVQNNDsT7I06TB/EyWQPE5hr9oGqbB7VjT
QC5KWr+nFrLBa0LfQHayEEFiiazBV+uzQIPslT+xKarBJhS1QID40r+DvKzBfxvTQIrDCz9B2bDB
nm/rQDGO+UB8IanB3t7SQBk22kARn6/B706MQKjuTkC1fJfBC63eQBtlmUB4zKPBn0erQO+mV0Cs
zLPBKCrlQJiOKkCFc5jBYEDVQIP8qUCbOq/Bd2/dQK3XT0BltKPBXc+yQJNRLUD6qajBxkatQPGu
HUFM17rBtry6QK5e70BScbbBbLnBQLedDEHeb7TBKCGNQHNmSEBQAKLBmetKQE1sYUCdqZLBZ4Ss
QBKMmUBC4bLBH5K1QHZnP8BK+K3ByTXxQIDtoD/rLrbBnRoEQVg28UAfT6HBPqG5QDTDQ0BaII/B
EYN7QGpjTD91up/BGj5+QDSr1L/c+aHBn/LqQHCvqL/EL7fBrknqQNELIEGQrqnBVo/+QIZgpECW
RqHBNWTGQKzgpUC9Pp7BNGzEQEeRQkCjXbnB/M6LQCsJREDC4rbBbQfoQDAryT9SGpnBK5QBQSAu
RUBCRJXB8fbuQPEMn0CwlLTBDav3QCtgOUBQ26jBbPKYQGJuFkHuCsHBsYmZQMTIJ0HRlrXBBCPG
QG2JJ0F3p77B405kQJ/QVkDN6KXBR4dHQIz7Z0BLt4rBBUEWQGU0aEDPIJfB2dHZQAkUAT+2hqzB
2KjaQHPbY7/Q263BtOCNQH37er+rwKrBGhTeQNznEEHHiKzBhi2zQEMTlz/u3anBJ8a0QCMu0b+v
3qzBmaOMQEAY1T6WZKnB3qHqQC8R+kBEKKnBODrSQHmH2kCKoq/BO3yMQE1rTkCNXZfB7RHeQKpA
mkB4uqPB2FytQK1EVUChz7PB5bblQEgjLUCaTJjBR3TVQMdWqkDbPq/BcpDdQNvAUUDHlqPBKAuz
QK4pLkAJf6jBLM6rQHS+HUH/yrrB0MK5QNOC70BXarbBpnvAQO64DEGxZ7TBx/WNQFV6TEB046HB
vMVKQFxMX0BSkpLBwa2tQFKomEDZObPBAJW1QMN3PsACJa7BRbpLQP8VfT8JzqfBGNIDQSn38UCm
X6HB66+5QE5dQ0DG+o7BaPD2QPA4iT/riK3BF3T4QH7ksb/ipK/BuGRhQML0xr/+KarB4uboQLlK
IEEyrqnBdIn9QGDJpUCkCaHBhhXFQKV8pkBJVp7B6rjHQJe+P0BG/LjBoLCOQG/MP0BgMbfB38Xp
QLvJzj8B8JjBrpkBQTDQSUDqGJXBsxzwQCcHoEC1YbTBc933QAzKO0DQwKjBvImXQFhyFkF//sDB
o/eXQK7FJ0Gah7XBGojEQHCuJ0Epm77BPiFoQJsIYUDv0qXBht9GQIjTZEDLnYrBfUIWQGTyZUCH
EZfB

> <OMEGA_E>
yPqmPkRttj4Y3Nc+XHfzPg==

> <OMEGA_NBR>
     15516

$$$$
270440
  -OEChem-04172616093D

 46 49  0     1  0  0  0  0  0999 V2000
    6.5710    0.4836  -21.9848 C   0  0  0  0  0  0  0  0  0  0  0  0
    5.4192    7.1091  -21.0506 C   0  0  0  0  0  0  0  0  0  0  0  0
    6.5824   -0.9048  -22.1733 C   0  0  0  0  0  0  0  0  0  0  0  0
    5.1624    8.4737  -20.9722 C   0  0  0  0  0  0  0  0  0  0  0  0
    4.5647   -1.0992  -20.8300 C   0  0  0  0  0  0  0  0  0  0  0  0
    7.2364    7.5978  -22.5965 C   0  0  0  0  0  0  0  0  0  0  0  0
    6.4764    6.6629  -21.8652 C   0  0  0  0  0  0  0  0  0  0  0  0
    5.5581    1.1121  -21.2122 C   0  0  0  0  0  0  0  0  0  0  0  0
    5.5806   -1.6960  -21.5928 C   0  0  0  0  0  0  0  0  0  0  0  0
    4.5361    0.2928  -20.6384 C   0  0  0  0  0  0  0  0  0  0  0  0
    5.9484    9.3621  -21.7273 C   0  0  0  0  0  0  0  0  0  0  0  0
    4.4465    3.3539  -18.9764 C   0  0  0  0  0  0  0  0  0  0  0  0
    7.1253    4.6514  -20.5735 C   0  0  0  0  0  0  0  0  0  0  0  0
    5.4618    3.2183  -22.5107 C   0  0  0  0  0  0  0  0  0  0  0  0
    7.1865    2.5928  -19.0748 C   0  0  0  0  0  0  0  0  0  0  0  0
    6.7311    5.1930  -21.9761 C   0  0  1  0  0  0  0  0  0  0  0  0
    6.9825    3.1201  -20.5060 C   0  0  1  0  0  0  0  0  0  0  0  0
    5.6073    2.6504  -21.0779 C   0  0  2  0  0  0  0  0  0  0  0  0
    5.6452   10.8333  -21.6338 C   0  0  0  0  0  0  0  0  0  0  0  0
    6.9641    8.9220  -22.5181 N   0  0  0  0  0  0  0  0  0  0  0  0
    4.4771    3.2342  -20.2868 N   0  3  0  0  0  0  0  0  0  0  0  0
    3.2309    3.6648  -18.3867 N   0  0  0  0  0  0  0  0  0  0  0  0
    5.4903    4.6412  -22.4642 O   0  0  0  0  0  0  0  0  0  0  0  0
    5.5883   -3.0335  -21.7734 F   0  0  0  0  0  0  0  0  0  0  0  0
    3.5055    0.7853  -19.9146 F   0  0  0  0  0  0  0  0  0  0  0  0
    5.8537    3.1337  -17.9261 S   0  0  0  0  0  0  0  0  0  0  0  0
    7.3459    1.0865  -22.4347 H   0  0  0  0  0  0  0  0  0  0  0  0
    4.8178    6.4042  -20.4958 H   0  0  0  0  0  0  0  0  0  0  0  0
    7.3607   -1.3645  -22.7642 H   0  0  0  0  0  0  0  0  0  0  0  0
    4.3699    8.8460  -20.3400 H   0  0  0  0  0  0  0  0  0  0  0  0
    3.7973   -1.7158  -20.3858 H   0  0  0  0  0  0  0  0  0  0  0  0
    8.0442    7.2545  -23.2258 H   0  0  0  0  0  0  0  0  0  0  0  0
    8.1705    4.9235  -20.3649 H   0  0  0  0  0  0  0  0  0  0  0  0
    6.4698    5.1063  -19.8163 H   0  0  0  0  0  0  0  0  0  0  0  0
    6.2919    2.8555  -23.1347 H   0  0  0  0  0  0  0  0  0  0  0  0
    4.5062    2.8849  -22.9417 H   0  0  0  0  0  0  0  0  0  0  0  0
    7.2027    1.4933  -19.1031 H   0  0  0  0  0  0  0  0  0  0  0  0
    8.1502    2.9641  -18.6962 H   0  0  0  0  0  0  0  0  0  0  0  0
    7.5511    5.0028  -22.6842 H   0  0  0  0  0  0  0  0  0  0  0  0
    7.7690    2.6829  -21.1387 H   0  0  0  0  0  0  0  0  0  0  0  0
    6.3454   11.3937  -22.2708 H   0  0  0  0  0  0  0  0  0  0  0  0
    4.6147   11.0174  -21.9717 H   0  0  0  0  0  0  0  0  0  0  0  0
    5.7537   11.1644  -20.5905 H   0  0  0  0  0  0  0  0  0  0  0  0
    3.6805    3.5598  -20.7962 H   0  0  0  0  0  0  0  0  0  0  0  0
    3.1666    3.7589  -17.3932 H   0  0  0  0  0  0  0  0  0  0  0  0
    2.4183    3.7951  -18.9548 H   0  0  0  0  0  0  0  0  0  0  0  0
  1  3  2  0  0  0  0
  1  8  1  0  0  0  0
  2  4  2  0  0  0  0
  2  7  1  0  0  0  0
  3  9  1  0  0  0  0
  4 11  1  0  0  0  0
  5  9  2  0  0  0  0
  5 10  1  0  0  0  0
  6  7  2  0  0  0  0
  6 20  1  0  0  0  0
  7 16  1  0  0  0  0
  8 10  2  0  0  0  0
  8 18  1  0  0  0  0
  9 24  1  0  0  0  0
 10 25  1  0  0  0  0
 11 19  1  0  0  0  0
 11 20  2  0  0  0  0
 12 21  2  0  0  0  0
 12 22  1  0  0  0  0
 12 26  1  0  0  0  0
 13 16  1  0  0  0  0
 13 17  1  0  0  0  0
 14 18  1  0  0  0  0
 14 23  1  0  0  0  0
 15 17  1  0  0  0  0
 15 26  1  0  0  0  0
 16 23  1  0  0  0  0
 17 18  1  0  0  0  0
 18 21  1  0  0  0  0
  1 27  1  0  0  0  0
  2 28  1  0  0  0  0
  3 29  1  0  0  0  0
  4 30  1  0  0  0  0
  5 31  1  0  0  0  0
  6 32  1  0  0  0  0
 13 33  1  0  0  0  0
 13 34  1  0  0  0  0
 14 35  1  0  0  0  0
 14 36  1  0  0  0  0
 15 37  1  0  0  0  0
 15 38  1  0  0  0  0
 16 39  1  0  0  0  0
 17 40  1  0  0  0  0
 19 41  1  0  0  0  0
 19 42  1  0  0  0  0
 19 43  1  0  0  0  0
 21 44  1  0  0  0  0
 22 45  1  0  0  0  0
 22 46  1  0  0  0  0
M  CHG  1  21   1
M  END
> <OMEGA_C>
ZkXSQOya9z7Q4K/BbmqtQAh+40CTZ6jBoqLSQIahZ7/iYrHB/DGlQGWUB0Egx6fB/RGSQLaxjL/B
o6bBdpDnQOYg80CaxbTBij7PQBU21UD2667BA9yxQNVYjj+nsqnBl5SyQFkX2b8JvqzBvCeRQJXk
lT55G6XBF1m+QCLLFUGA0a3BaEmOQLKmVkCrz5fBmALkQOfXlECQlqTB88auQNT4TUDwFbTBevfl
QELwJUAamZjBeWXXQB4tpkAJz6/B1HDfQE6wR0BbDKTB326zQKyfKUCQn6jBuKW0QE9VLUEeEq3B
M9reQIDADkENJbTBuESPQDr9TkBnS6LBUsZOQNGMakDdF5PBXLCvQIOElECytrPBAdOyQKskQsDh
L67BiFlgQJIJST8CUZ/BLVG7QMCOSECpaI/BdRHrQHMRiz9XerPBvyuaQAPvzEBx96PBKIvrQDOn
rr8mHbbB0NWLQF+JDUFMuKLBRAdzQK2f278WFqPB9LQAQUEl6EB+zrnBXLoCQUGNnUA766LBpAjP
QIhmo0DOh57B61bJQO6/NkDLE7nB3jKQQGyiOECGiLfBM3zmQJ4jvz8005jBbGcCQQuzPUDokZXB
AKPxQDoXoEA+ebXBDZz4QM20K0D3G6nBgw3LQIZMNkGvKrLBqquTQE1HMEECxq/BQx64QDyhMkFE
uaTBso1rQA7TY0CFXqbBGqpKQBORcEAuJYvBLcUaQNnickBio5fBGWKRQL6/vT64CqXBKezmQLgI
8kAIobTBLH6PQPs8g78WDqbBcoTbQByYDkFBlbPBh4/PQAJOfr83H7HBEfKuQCSq4UBKr6fB3jzQ
QMkF1EDqiK7B0bayQJfZjT/sA6rBSaWuQL1V2r/QDKzBG87RQPwczj4JNbDBcIW6QBhhFEG5YKzB
W6GOQBKsVkD/BJjBg53lQH3Ek0DZhKTBfOuuQEL6TkAdK7TBytXlQIpLJECKgpjBsXDYQFplpUDB
p6/BVWDgQCwpRkDP/KPBH5+0QPDIKEAc1qjBIZSsQHdWK0HaiqvBROekQLCSBUHxqKbBkZWPQIw5
S0Ctc6LBjBRQQD6wbkBNcZPB+FCwQG+0lECBgrPBc+2sQBwhQ8AW/KzBXwjyQMCVgz8hdLXB7167
QJgKSkD2gY/Blo9yQBdxYz+bcKDB/SkAQfA96EBM87nBMRtsQGvjyb94OKLBhLzrQB6zGkFJOrjB
vU3nQC/qwr+vwbXBUjOdQDIgykDBLKPBdqcDQRr0m0CLAKPB41HRQBKTokDmWp7BiNXIQGk0OEBK
ZrnBSuOPQLjSOkCNeLfBxDLlQN7Yuz8BtJjBM3MCQX4ZOkBZZZXBbVjyQOGZn0A4b7XBMtL5QKuJ
KUB856jBpi+RQLGILEFbDKbB/DPHQLcTNUEEeajBcyajQDk1MUEhf7PB+VtqQIzoWkAehqbBcT9M
QHBSeEBajIvBcj8cQE1gdkAvCZjBeVbRQK3x9D4KKLDB5jnnQNIA8kBmjLTBjDTRQOIXaL+oxrHB
cjbbQH9+DkHJbbPBIReRQGvmi7/Z2KbBH8quQDlr4EAd1qfBLpzQQMts00BqnK7BpWyxQC8Qjj/e
0qnBCSexQMOn2L9OF63B6LGQQBVdmD5dM6XBNeq4QJjfE0GFh6zBAnyOQHq8WUC52pfBHt7mQCXz
kkBytaTBj3SvQLiZTUBTELTBxRnlQDzrJEAeWJjB9mzZQJrRpEBUzq/B3wbgQESmRED/76PBUa+z
QP4tKUDVmKjBshWtQOXyKkHh1arBTNejQJDYBEFw1KbBIYCPQI6lT0BVUKLBNtFOQMLxbEDpLZPB
gWKxQCAMlEDVr7PBbRaxQNrUQcDwmq7B7pBgQHMmTD98QJ/B/+G7QIDPUUDte4/B6CTqQCsBij8I
ybPB9YQAQSjE6EAdz7nBrbjpQAEar7+mnrbBXfbrQBfXGkHsybfBy/xwQN9o2r9gRqPBU12dQF6F
yEDdXaPBG3oEQZL+mUCaZaPBFafTQJe9okA/e57BCsLJQJcsNUAzDbnBdqaQQH2iOUCBg7fBTIzi
QI1qvT+JQJjBZ2cCQXUWOEDqXZXBkFXzQJV+n0DHnLXBnOj4QHR+JUAZy6jBB3STQJMGLEH606TB
hkbJQBvZM0EeA6jB0eChQHTbMUHIbbLBHdJrQDlYY0AgcKbBdvNKQLHldUDTRYvBd1IaQBHYcUDh
tpfB

> <OMEGA_E>
sDNjPoBAxT4YUNY+

> <OMEGA_NBR>
     18192

$$$$
270444
  -OEChem-04172616093D

 46 49  0     1  0  0  0  0  0999 V2000
    4.6389    0.3488  -20.7019 C   0  0  0  0  0  0  0  0  0  0  0  0
    4.6685   -1.0400  -20.8904 C   0  0  0  0  0  0  0  0  0  0  0  0
    6.6367   -0.8184  -22.3067 C   0  0  0  0  0  0  0  0  0  0  0  0
    7.1097    8.6960  -22.8076 C   0  0  0  0  0  0  0  0  0  0  0  0
    5.3799    8.4529  -21.1294 C   0  0  0  0  0  0  0  0  0  0  0  0
    5.6216    1.1748  -21.3024 C   0  0  0  0  0  0  0  0  0  0  0  0
    6.1203    9.2847  -21.9967 C   0  0  0  0  0  0  0  0  0  0  0  0
    5.6731   -1.6222  -21.6807 C   0  0  0  0  0  0  0  0  0  0  0  0
    6.6201    0.5713  -22.1294 C   0  0  0  0  0  0  0  0  0  0  0  0
    6.6217    6.6378  -21.8650 C   0  0  0  0  0  0  0  0  0  0  0  0
    4.3973    3.3028  -18.9363 C   0  0  0  0  0  0  0  0  0  0  0  0
    7.0528    4.6892  -20.4759 C   0  0  0  0  0  0  0  0  0  0  0  0
    5.3458    3.3318  -22.4639 C   0  0  0  0  0  0  0  0  0  0  0  0
    7.1365    2.6177  -19.0217 C   0  0  0  0  0  0  0  0  0  0  0  0
    6.7401    5.1767  -21.9018 C   0  0  1  0  0  0  0  0  0  0  0  0
    6.9472    3.1708  -20.4416 C   0  0  1  0  0  0  0  0  0  0  0  0
    5.5947    2.6883  -21.0727 C   0  0  2  0  0  0  0  0  0  0  0  0
    4.9960   11.2156  -21.1208 C   0  0  0  0  0  0  0  0  0  0  0  0
    7.3415    7.3749  -22.7352 N   0  0  0  0  0  0  0  0  0  0  0  0
    5.6444    7.1497  -21.0807 N   0  0  0  0  0  0  0  0  0  0  0  0
    4.4186    3.1293  -20.2420 N   0  3  0  0  0  0  0  0  0  0  0  0
    3.1840    3.6274  -18.3506 N   0  0  0  0  0  0  0  0  0  0  0  0
    5.4534    4.7347  -22.3641 O   0  0  0  0  0  0  0  0  0  0  0  0
    5.9248   10.6468  -22.0732 O   0  0  0  0  0  0  0  0  0  0  0  0
    5.7162   -2.9609  -21.8385 F   0  0  0  0  0  0  0  0  0  0  0  0
    7.5770    1.2886  -22.7690 F   0  0  0  0  0  0  0  0  0  0  0  0
    5.8157    3.1841  -17.8888 S   0  0  0  0  0  0  0  0  0  0  0  0
    3.8628    0.7918  -20.0955 H   0  0  0  0  0  0  0  0  0  0  0  0
    3.9177   -1.6631  -20.4273 H   0  0  0  0  0  0  0  0  0  0  0  0
    7.3945   -1.2723  -22.9280 H   0  0  0  0  0  0  0  0  0  0  0  0
    7.6828    9.3075  -23.4887 H   0  0  0  0  0  0  0  0  0  0  0  0
    4.6023    8.8722  -20.5082 H   0  0  0  0  0  0  0  0  0  0  0  0
    8.0715    4.9952  -20.1958 H   0  0  0  0  0  0  0  0  0  0  0  0
    6.3314    5.1258  -19.7695 H   0  0  0  0  0  0  0  0  0  0  0  0
    6.0931    2.9576  -23.1790 H   0  0  0  0  0  0  0  0  0  0  0  0
    4.3376    3.0664  -22.8146 H   0  0  0  0  0  0  0  0  0  0  0  0
    7.1227    1.5186  -19.0631 H   0  0  0  0  0  0  0  0  0  0  0  0
    8.1081    2.9578  -18.6339 H   0  0  0  0  0  0  0  0  0  0  0  0
    7.5413    4.8649  -22.5880 H   0  0  0  0  0  0  0  0  0  0  0  0
    7.7580    2.7659  -21.0651 H   0  0  0  0  0  0  0  0  0  0  0  0
    4.9252   12.3016  -21.2807 H   0  0  0  0  0  0  0  0  0  0  0  0
    4.0046   10.7595  -21.2584 H   0  0  0  0  0  0  0  0  0  0  0  0
    5.3520   11.0180  -20.0989 H   0  0  0  0  0  0  0  0  0  0  0  0
    3.5657    3.3089  -20.7322 H   0  0  0  0  0  0  0  0  0  0  0  0
    3.1313    3.7861  -17.3647 H   0  0  0  0  0  0  0  0  0  0  0  0
    2.3612    3.7029  -18.9139 H   0  0  0  0  0  0  0  0  0  0  0  0
  1  2  2  0  0  0  0
  1  6  1  0  0  0  0
  2  8  1  0  0  0  0
  3  8  2  0  0  0  0
  3  9  1  0  0  0  0
  4  7  1  0  0  0  0
  4 19  2  0  0  0  0
  5  7  2  0  0  0  0
  5 20  1  0  0  0  0
  6  9  2  0  0  0  0
  6 17  1  0  0  0  0
  7 24  1  0  0  0  0
  8 25  1  0  0  0  0
  9 26  1  0  0  0  0
 10 15  1  0  0  0  0
 10 19  1  0  0  0  0
 10 20  2  0  0  0  0
 11 21  2  0  0  0  0
 11 22  1  0  0  0  0
 11 27  1  0  0  0  0
 12 15  1  0  0  0  0
 12 16  1  0  0  0  0
 13 17  1  0  0  0  0
 13 23  1  0  0  0  0
 14 16  1  0  0  0  0
 14 27  1  0  0  0  0
 15 23  1  0  0  0  0
 16 17  1  0  0  0  0
 17 21  1  0  0  0  0
 18 24  1  0  0  0  0
  1 28  1  0  0  0  0
  2 29  1  0  0  0  0
  3 30  1  0  0  0  0
  4 31  1  0  0  0  0
  5 32  1  0  0  0  0
 12 33  1  0  0  0  0
 12 34  1  0  0  0  0
 13 35  1  0  0  0  0
 13 36  1  0  0  0  0
 14 37  1  0  0  0  0
 14 38  1  0  0  0  0
 15 39  1  0  0  0  0
 16 40  1  0  0  0  0
 18 41  1  0  0  0  0
 18 42  1  0  0  0  0
 18 43  1  0  0  0  0
 21 44  1  0  0  0  0
 22 45  1  0  0  0  0
 22 46  1  0  0  0  0
M  CHG  1  21   1
M  END
> <OMEGA_C>
JXKUQICPsj6MnaXBE2SVQD8ehb+MH6fBhV/UQDKBUb81dLLBaILjQKQiC0H8dbbBgyisQOU+B0EO
CanBReSzQB9hlj9na6rBdNnDQCGOFEE3+a/BGYq1QFKkz78fcq3B09fTQClAEj/6CLHBCuXTQNNo
1EBw667B+baMQBBhU0CefZfBZbDhQJcNlkCwzqPByxCrQNg8VUAKtrPBSV7kQGmIJ0BkLJjBt67X
QOmnpUDvNq/Bwk/eQL7tSkBwiKPBGAizQN4NLEDPlKjBet+fQCtzM0Fs96jBlO3qQEb/60Cr4bXB
HZ+0QPvJ5EA1pajBamWNQD5GSECv76HB0sZLQBAnaEAXzpLBpYKuQKCCl0C76bLBmpe9QFhZKkHs
lbDB4uq2QKd+PcAtta7BhXbyQBPwpD8AJ7bBHxq6QGjIS0BEHI/B/jd3QFG0Sj+tw6DBzrt6QETh
1L8ba6PBvp/sQJfbor+fbLfB2tn1QHjrFEHi6LvBUUaTQGX0DUHTEKTB/SQBQd7Yn0D3kKHBKJvK
QKEGpED7J57B5frCQL5IPUCkbrnBUc2KQEA/REA+hLbBIu3jQG1gwj83gZjBmboBQSRNPUAhEpXB
M1LxQBmtm0AttLTBv0H4QMcDMUA8hajBU5udQHrTREHbPqrBeCWAQLgmLEEwEarBMUOrQMVJMEGU
yqDBqDRkQKnFU0CK26XBL2dIQNNOckDs6orBDR4XQKz8bEC0T5fB8PHSQGhgIz8vAbHBLcjVQELn
O7/4/7LBNmqXQBddjb/YuKfBGAriQCYkC0EFVbbBvHOrQMiIBkEJxqjBkmWyQA27lT/jSqrBNwXC
QJwiFEEPza/BJSy4QNeWzb8VTa7B8QqUQEx0jD5qtKXBLjPUQHjr00Dw067BTNCMQKN6VkA5bJfB
f/riQALhlEBuA6TB632rQKAOVEC+trPB3QDkQAEPJkAmQJjBvVDYQPsipUAgVq/BCgLeQB23SECr
p6PByP6xQGwTLEACd6jBGDmcQCCEMkG2z6jB4orqQBcw7EDLybXBWPq0QPyV40A3a6jBoUWNQBLh
TEBi5KHBPcpLQOykaEBMnpLBWRevQBL7lkB3BrPB4Ei6QJbPKUGYd7DBMTi7QDerO8CGHLDBvqdm
QN5TLz9NbZ/Bx3W6QIt/TUB4I4/BiOTpQDxHpz+EoLTBRqzuQLJYj786I7jBwZ2AQBF45L/ULqTB
j8rzQPUtFUGfybvBto6SQD/uDEGPtKPB6xACQT2GnUDu/qHBtwXNQCyeo0CTNJ7BJgbEQI9DO0AS
NrnBsomLQJEYQ0A4vLbBFZ7iQNp4vz+EeZjBJ70BQRd1OkAlP5XBSNPxQBjEm0Dj7bTBX0X3QN68
LEDcr6jB6cGYQN/TQ0EKJKrB4+15QO2tKkES0qnBIBeoQIOnL0GtpqDBqD9lQJP4XECf1qXB6nBI
QB1EcECzr4rBY/gWQHQhbkBdFZfBZCPTQCIMIj9F57DBwJLVQIkDPb+M9LLB29iWQBxYjL+SxqfB
TjarQJIzBkE0cajBVRbhQEJQC0H2IbbBwpiyQKbNlT+2N6rBFTvBQJAKFEG0da/BS423QMdJzb8v
WK7BN96TQP9ZkD6TtKXBw+LTQFbL00B6067BO/6MQI0bV0BycJfBiaHjQPjJlEC9GqTBCN6rQLKE
U0DKtbPBITnkQKLIJkAbMJjBF3XYQGkTpUAsaa/BqmTeQGCpSEBopKPBAleyQCwcLEAHb6jBDhSY
QG/CMUF68KjBxtu0QCbz4kDhSKjBQNbpQACM7EC4wbXBPqCNQId/TUBf56HB7uJLQPjxaEAOrpLB
iUCvQBK0lkBND7PB6OK4QP6rKUHHCrDBbAa6QA5rO8AeRrDBKBFmQARBMz8CgJ/BHZK6QFbFTkDS
II/B42TqQFX8pT/IdbTBbXjuQHB8kL+qEbjBxZJ/QDHb4r86SaTBM6KSQBZpDEG5OKPBnYPyQNGM
FUG7j7vB63kCQfc9nUBuNqLBcxrOQAnHo0CFPJ7BIoXEQPrBOkANLbnB9fyLQJElQkCUvrbBE9ji
QJ3lwD9ZV5jBv9QBQRNjO0C+LpXBUOrxQJsRnEA5DrXB8p33QKIJLEAnoajBFmaUQG0YQ0HXJarB
VSBzQNKzKUHLrKrB6FShQI+fLkFNmKDBCz5mQA8EXkDv4aXBxDxIQBm3cECQwIrB3C4XQLcLbkBt
LJfB

> <OMEGA_E>
SK3qPtDv+T4ksPo+

> <OMEGA_NBR>
     20868

$$$$
270445
  -OEChem-04172616093D

 43 46  0     1  0  0  0  0  0999 V2000
    4.6070    0.3772  -20.6702 C   0  0  0  0  0  0  0  0  0  0  0  0
    4.6041   -1.0171  -20.8303 C   0  0  0  0  0  0  0  0  0  0  0  0
    6.6214   -0.8710  -22.1817 C   0  0  0  0  0  0  0  0  0  0  0  0
    7.3196    7.6904  -22.7690 C   0  0  0  0  0  0  0  0  0  0  0  0
    5.6275    1.1757  -21.2552 C   0  0  0  0  0  0  0  0  0  0  0  0
    5.6091   -1.6405  -21.5864 C   0  0  0  0  0  0  0  0  0  0  0  0
    6.6402    0.5258  -22.0239 C   0  0  0  0  0  0  0  0  0  0  0  0
    6.5270    6.7998  -21.9030 C   0  0  0  0  0  0  0  0  0  0  0  0
    4.4020    3.2521  -18.9501 C   0  0  0  0  0  0  0  0  0  0  0  0
    6.9438    4.8103  -20.4716 C   0  0  0  0  0  0  0  0  0  0  0  0
    5.3863    3.3463  -22.4820 C   0  0  0  0  0  0  0  0  0  0  0  0
    7.1792    2.6849  -19.0660 C   0  0  0  0  0  0  0  0  0  0  0  0
    6.6388    5.3097  -21.8966 C   0  0  1  0  0  0  0  0  0  0  0  0
    6.9355    3.2660  -20.4662 C   0  0  1  0  0  0  0  0  0  0  0  0
    5.6073    2.7126  -21.0827 C   0  0  2  0  0  0  0  0  0  0  0  0
    5.2364    9.9642  -21.0726 C   0  0  0  0  0  0  0  0  0  0  0  0
    6.9267    8.9175  -22.5446 N   0  0  0  0  0  0  0  0  0  0  0  0
    5.6914    7.5325  -21.2061 N   0  0  0  0  0  0  0  0  0  0  0  0
    5.9574    8.7935  -21.6097 N   0  0  0  0  0  0  0  0  0  0  0  0
    4.4328    3.1588  -20.2630 N   0  3  0  0  0  0  0  0  0  0  0  0
    3.1822    3.5248  -18.3530 N   0  0  0  0  0  0  0  0  0  0  0  0
    5.3892    4.7762  -22.3741 O   0  0  0  0  0  0  0  0  0  0  0  0
    5.5975   -2.9809  -21.7495 F   0  0  0  0  0  0  0  0  0  0  0  0
    7.6384    1.2098  -22.6315 F   0  0  0  0  0  0  0  0  0  0  0  0
    5.8203    3.0887  -17.9042 S   0  0  0  0  0  0  0  0  0  0  0  0
    3.8241    0.8495  -20.0954 H   0  0  0  0  0  0  0  0  0  0  0  0
    3.8277   -1.6111  -20.3713 H   0  0  0  0  0  0  0  0  0  0  0  0
    7.3907   -1.3555  -22.7648 H   0  0  0  0  0  0  0  0  0  0  0  0
    8.0874    7.3846  -23.4643 H   0  0  0  0  0  0  0  0  0  0  0  0
    7.9330    5.1746  -20.1572 H   0  0  0  0  0  0  0  0  0  0  0  0
    6.1773    5.1854  -19.7775 H   0  0  0  0  0  0  0  0  0  0  0  0
    6.1942    3.0296  -23.1579 H   0  0  0  0  0  0  0  0  0  0  0  0
    4.4189    3.0126  -22.8852 H   0  0  0  0  0  0  0  0  0  0  0  0
    7.2640    1.5910  -19.1459 H   0  0  0  0  0  0  0  0  0  0  0  0
    8.1188    3.0974  -18.6696 H   0  0  0  0  0  0  0  0  0  0  0  0
    7.4595    5.0031  -22.5617 H   0  0  0  0  0  0  0  0  0  0  0  0
    7.7593    2.9295  -21.1130 H   0  0  0  0  0  0  0  0  0  0  0  0
    5.6171   10.8800  -21.5485 H   0  0  0  0  0  0  0  0  0  0  0  0
    4.1617    9.8612  -21.2834 H   0  0  0  0  0  0  0  0  0  0  0  0
    5.3927   10.0239  -19.9854 H   0  0  0  0  0  0  0  0  0  0  0  0
    3.5998    3.4072  -20.7574 H   0  0  0  0  0  0  0  0  0  0  0  0
    3.1226    3.6233  -17.3596 H   0  0  0  0  0  0  0  0  0  0  0  0
    2.3611    3.6232  -18.9153 H   0  0  0  0  0  0  0  0  0  0  0  0
  1  2  2  0  0  0  0
  1  5  1  0  0  0  0
  2  6  1  0  0  0  0
  3  6  2  0  0  0  0
  3  7  1  0  0  0  0
  4  8  1  0  0  0  0
  4 17  2  0  0  0  0
  5  7  2  0  0  0  0
  5 15  1  0  0  0  0
  6 23  1  0  0  0  0
  7 24  1  0  0  0  0
  8 13  1  0  0  0  0
  8 18  2  0  0  0  0
  9 20  2  0  0  0  0
  9 21  1  0  0  0  0
  9 25  1  0  0  0  0
 10 13  1  0  0  0  0
 10 14  1  0  0  0  0
 11 15  1  0  0  0  0
 11 22  1  0  0  0  0
 12 14  1  0  0  0  0
 12 25  1  0  0  0  0
 13 22  1  0  0  0  0
 14 15  1  0  0  0  0
 15 20  1  0  0  0  0
 16 19  1  0  0  0  0
 17 19  1  0  0  0  0
 18 19  1  0  0  0  0
  1 26  1  0  0  0  0
  2 27  1  0  0  0  0
  3 28  1  0  0  0  0
  4 29  1  0  0  0  0
 10 30  1  0  0  0  0
 10 31  1  0  0  0  0
 11 32  1  0  0  0  0
 11 33  1  0  0  0  0
 12 34  1  0  0  0  0
 12 35  1  0  0  0  0
 13 36  1  0  0  0  0
 14 37  1  0  0  0  0
 16 38  1  0  0  0  0
 16 39  1  0  0  0  0
 16 40  1  0  0  0  0
 20 41  1  0  0  0  0
 21 42  1  0  0  0  0
 21 43  1  0  0  0  0
M  CHG  1  20   1
M  END
> <OMEGA_C>
QmyTQDIlwT6KXKXB61STQLsvgr9/pKbBxuLTQAv9Xr84dLHBhDrqQHoX9kDjJrbBqBS0QNZ+lj+Z
CqrBhH2zQBv70b/esKzBtHzUQJCaBj8HMbDBct3QQD+Y2UBdOa/BRt2MQEgiUEDAmZfB+jPeQJTt
mUDJxaPBxlysQIYqVkAP27PBYLzlQMbUK0Ach5jB+HDUQPXoqUAjLK/BtO/dQFQFUUDguqPBUm+z
QGWbLUBNqajBZpCnQGRtH0GqlKjB2KfdQPStDkFRW7TB3B+2QAIK8UACpqnBx6K+QBGyDEGc4KzB
KNmNQL8pSkCwGqLBn6hLQNSWYUDm0pLBR3SsQK3WmEAb/rLBjB6zQJLGPsAI/63BnG30QLramj84
DbXBxj+6QMGsRUDPO4/Bvb10QK17WT9Pw6DBP/l0QHE4zr9T+KLB9oDsQJB/rb8+HrbB4mUBQaNO
7EDxtrvBB9v9QEaWpUDhQaHBdazFQJ/upUBkOJ7BSDfGQAnlQUByQ7nBTGeNQEXOQEDvFLfBZXLo
QG+nyz/aKpnBfOYBQcY7RkBaW5XBJLTuQBsZoEBhfrTB6Uv4QN58O0BT56jBXb+zQEsULkE9Y6zB
hyyFQH7HHUFZRKrBMZGsQM5hIEEW4p/B4GJmQFAQWkA3D6bB9dhHQC3kZ0CB4IrBqRwXQEbjZ0CI
UpfBq/LTQLcsHT+bjbDBJX3WQB2yRL/UZbLBBYuXQIMTjr/8TafBDQjqQM6Q9UBlSLbBihezQLxF
lT9BD6rBp2C4QI200L/Vuq3BQVaUQOYajD4jeqXB747RQAoM2UACKK/Bq7CMQISRUkDYeJfBvy7f
QM7GmEAh16PB3hGsQKmnVUBLvbPBWhnlQMK/KUCZg5jBbQLVQEtEqUAALa/BcnzdQD2ETkCQwaPB
m0myQFQZLUArgqjBbEKpQKA7H0E0NqjBkGPdQLhmDkEBebTBT0W3QLaA8ECEcanBmWC/QDZvDEGg
vqzB+mONQCllTEBC+aHBW1BLQP48Y0CBppLBEcOsQKyYmEBQ7LLBvNO6QHeOPcCMb6/BfTxmQO/s
Lz9/Y5/BlUO6QGJiR0CeLY/BM2PrQC95oj9XIrTBkZbvQN19lb9UZ7fBNn+AQMG347/yuaPBWQ0B
QRjO60BK+7vB8Vz/QF96o0CQe6HBZHjHQLJ7pUBOKp7BJwzGQCqCQECRDrnBoyCNQF4WQUACDrfB
j6TmQJ8axz8VD5nBGdcBQSxyQkBKcJXBifnuQEKCn0Dwl7TBvFj3QG01N0CP96jBozW1QE3dLUF/
FazBxaGGQD3EHUGsnKnBFnKvQEQTIEEXj5/B0P9lQMAlXkCf6qXBj5RHQFehaEBJsYrBYrEWQEHh
aUCtIJfBkM+RQPiS9z4+t6TBedCOQOTQab8BkqXBKn/NQE5pcL9cGbHBAKSoQFhD40BMFabBVQKz
QCI+mT+RAqrBgpesQGXOz7/uxKvBQQbRQAZQ6j5wQ7DB6RrLQE+X2EAzv63BuZmPQD6bWkDCQZjB
dAjnQJChl0CT8aTB1z6xQMhPVUB6cLTBpCLnQJrsK0Ar0JjBB+PXQE0kq0CQza/BoK3hQMAOTUAz
WaTBdeW1QCQ3L0COEqnBA2XCQFwqJEEBIrDBBUujQBNFBkEULKbB7CvYQMsZ/EBORrLBLK+/QJRE
DUEZfa3Bag2RQCr9UkCyvaLB2nFQQNo3a0C+lpPBa92wQKEsmEATzbPBWqCpQFTZPcADn6zBNJHx
QIvIhj+bl7XBnfq8QKInVEA/3Y/Btj51QOjtgj/p+p/BqiVrQCaUuL9CdKHBRkTkQK+3vr9g4LXB
APyWQPSxzECxQKHBfIoEQcdfn0AW1aPBFjXUQLwupkBodZ7BHFjMQOJ+QECparnBUyKTQGrrPkBD
CbjBw+vlQIwjyz/25ZjBzTQDQXwCQUBNwZXBZ93xQId3qUDwubXBuhf7QKkpMEAFQKnBaNqqQJ8b
LUFVW6vBisLiQOoRKkEtVK7BMJu7QAxxJkE7sbjBwt9uQOqxZkDS2qbBXx1MQF0xc0Bvq4vBD/gb
QLA5b0AbJJjBo+TRQDgMCD95OrDBllTSQF+TXL/egLHBW+SSQNzbhL/GV6bB9uWlQKrk4UAEbKbB
yvaxQMNJlj+K/KnB7QGzQMrS0r+bf6zBl7mRQHgkuD4LGqXBSi3KQDXQ10Arma3BfSGPQBX1W0Cq
IZjBgr/lQDyrlkBB2qTBpKmwQNkoU0CtZbTBbFLmQFTPKEDE65jB5kPXQJ9sqkAOu6/BFEfgQLII
S0BbYaTBGiq0QOn9LUDz8qjBNJ3DQO8CJEEsEK/B/hGhQJefBUHHOKbBEBHZQA/O+0BegLHB1Ju/
QBPzDEFK5KzBOQqQQFvtU0A4n6LBXnFQQLA2b0CWXpPBhaewQHpBl0DL97PBna2zQINaP8A2nq3B
mPZhQBVpXD+zRp/BeVy8QIUsT0CbxI/BRkzqQP9BkD/EELTB48PqQAkiqr+8VbbBcqp1QJkE079J
haLBnb2SQLboykAoGaLBDN4DQXZXnkDEmaPBVY3SQOYOpUC1aZ7BNBPMQGI/PUCxMLnBh8GSQA3n
PEClHLjBrW/lQB7nxD9qIJnBQNACQYYmPkCf6JXB4rDxQOojqUABibXBtlL5QNhoLkBkbKnBxQGr
QKbHLEGljKrBfIjjQKyLKUGOl6zBGE6/QP7xJkFErLfBKSRtQC7TaEBLs6bBDZ9MQMN8dUAfbIvB
4yYcQC/TdkAE4pfB

> <OMEGA_E>
cJROPuibdj6kvfQ+MjgEPw==

> <OMEGA_NBR>
     24188

$$$$
270449
  -OEChem-04172616093D

 45 48  0     1  0  0  0  0  0999 V2000
    4.5487    0.3871  -20.6185 C   0  0  0  0  0  0  0  0  0  0  0  0
    4.5025   -1.0105  -20.7302 C   0  0  0  0  0  0  0  0  0  0  0  0
    6.5150   -0.9752  -22.0978 C   0  0  0  0  0  0  0  0  0  0  0  0
    7.2418    7.5967  -22.6285 C   0  0  0  0  0  0  0  0  0  0  0  0
    5.4497    7.1520  -21.0622 C   0  0  0  0  0  0  0  0  0  0  0  0
    5.5918    1.1283  -21.2350 C   0  0  0  0  0  0  0  0  0  0  0  0
    6.4859    6.6769  -21.8862 C   0  0  0  0  0  0  0  0  0  0  0  0
    5.4886   -1.6907  -21.4624 C   0  0  0  0  0  0  0  0  0  0  0  0
    6.5736    0.4232  -21.9953 C   0  0  0  0  0  0  0  0  0  0  0  0
    5.9810    9.3261  -21.6762 C   0  0  0  0  0  0  0  0  0  0  0  0
    4.4504    3.3214  -18.9890 C   0  0  0  0  0  0  0  0  0  0  0  0
    7.1051    4.6855  -20.5738 C   0  0  0  0  0  0  0  0  0  0  0  0
    5.4424    3.2476  -22.5239 C   0  0  0  0  0  0  0  0  0  0  0  0
    7.2024    2.6235  -19.0833 C   0  0  0  0  0  0  0  0  0  0  0  0
    6.7191    5.2086  -21.9836 C   0  0  1  0  0  0  0  0  0  0  0  0
    6.9959    3.1568  -20.5114 C   0  0  1  0  0  0  0  0  0  0  0  0
    5.6355    2.6619  -21.1039 C   0  0  2  0  0  0  0  0  0  0  0  0
    5.5954   10.7781  -21.6509 C   0  0  0  0  0  0  0  0  0  0  0  0
    6.9686    8.9134  -22.5184 N   0  0  0  0  0  0  0  0  0  0  0  0
    5.2160    8.4648  -20.9680 N   0  0  0  0  0  0  0  0  0  0  0  0
    4.4811    3.1905  -20.2986 N   0  3  0  0  0  0  0  0  0  0  0  0
    3.2372    3.6449  -18.4014 N   0  0  0  0  0  0  0  0  0  0  0  0
    5.4693    4.6674  -22.4571 O   0  0  0  0  0  0  0  0  0  0  0  0
    5.4482   -3.0360  -21.5613 F   0  0  0  0  0  0  0  0  0  0  0  0
    7.5798    1.0528  -22.6479 F   0  0  0  0  0  0  0  0  0  0  0  0
    5.8611    3.1389  -17.9376 S   0  0  0  0  0  0  0  0  0  0  0  0
    3.7839    0.9045  -20.0584 H   0  0  0  0  0  0  0  0  0  0  0  0
    3.7075   -1.5639  -20.2525 H   0  0  0  0  0  0  0  0  0  0  0  0
    7.2640   -1.5037  -22.6688 H   0  0  0  0  0  0  0  0  0  0  0  0
    8.0325    7.2550  -23.2800 H   0  0  0  0  0  0  0  0  0  0  0  0
    4.8418    6.4549  -20.5046 H   0  0  0  0  0  0  0  0  0  0  0  0
    8.1404    4.9826  -20.3499 H   0  0  0  0  0  0  0  0  0  0  0  0
    6.4277    5.1262  -19.8275 H   0  0  0  0  0  0  0  0  0  0  0  0
    6.2527    2.8957  -23.1793 H   0  0  0  0  0  0  0  0  0  0  0  0
    4.4742    2.9176  -22.9284 H   0  0  0  0  0  0  0  0  0  0  0  0
    7.2332    1.5245  -19.1183 H   0  0  0  0  0  0  0  0  0  0  0  0
    8.1600    3.0051  -18.6994 H   0  0  0  0  0  0  0  0  0  0  0  0
    7.5350    4.9966  -22.6902 H   0  0  0  0  0  0  0  0  0  0  0  0
    7.7965    2.7401  -21.1402 H   0  0  0  0  0  0  0  0  0  0  0  0
    6.2139   11.3349  -22.3701 H   0  0  0  0  0  0  0  0  0  0  0  0
    4.5346   10.8804  -21.9234 H   0  0  0  0  0  0  0  0  0  0  0  0
    5.7549   11.1821  -20.6403 H   0  0  0  0  0  0  0  0  0  0  0  0
    3.6633    3.4676  -20.8030 H   0  0  0  0  0  0  0  0  0  0  0  0
    3.1785    3.7680  -17.4108 H   0  0  0  0  0  0  0  0  0  0  0  0
    2.4208    3.7552  -18.9683 H   0  0  0  0  0  0  0  0  0  0  0  0
  1  2  2  0  0  0  0
  1  6  1  0  0  0  0
  2  8  1  0  0  0  0
  3  8  2  0  0  0  0
  3  9  1  0  0  0  0
  4  7  1  0  0  0  0
  4 19  2  0  0  0  0
  5  7  2  0  0  0  0
  5 20  1  0  0  0  0
  6  9  2  0  0  0  0
  6 17  1  0  0  0  0
  7 15  1  0  0  0  0
  8 24  1  0  0  0  0
  9 25  1  0  0  0  0
 10 18  1  0  0  0  0
 10 19  1  0  0  0  0
 10 20  2  0  0  0  0
 11 21  2  0  0  0  0
 11 22  1  0  0  0  0
 11 26  1  0  0  0  0
 12 15  1  0  0  0  0
 12 16  1  0  0  0  0
 13 17  1  0  0  0  0
 13 23  1  0  0  0  0
 14 16  1  0  0  0  0
 14 26  1  0  0  0  0
 15 23  1  0  0  0  0
 16 17  1  0  0  0  0
 17 21  1  0  0  0  0
  1 27  1  0  0  0  0
  2 28  1  0  0  0  0
  3 29  1  0  0  0  0
  4 30  1  0  0  0  0
  5 31  1  0  0  0  0
 12 32  1  0  0  0  0
 12 33  1  0  0  0  0
 13 34  1  0  0  0  0
 13 35  1  0  0  0  0
 14 36  1  0  0  0  0
 14 37  1  0  0  0  0
 15 38  1  0  0  0  0
 16 39  1  0  0  0  0
 18 40  1  0  0  0  0
 18 41  1  0  0  0  0
 18 42  1  0  0  0  0
 21 43  1  0  0  0  0
 22 44  1  0  0  0  0
 22 45  1  0  0  0  0
M  CHG  1  21   1
M  END
> <OMEGA_C>
Ko+RQIwyxj7E8qTBixSQQLtYgb9+16XBxXrQQFyoeb8zyLDBvrznQCoY80A8B7XB+GOuQEjd5EBl
f6jB8O+yQOpskD9L4anBvYzPQE6p1UAAF6/B8aKvQPho2L8Es6vBTlvSQHSx2D5Y9q/BcmS/QNU3
FUHoaK3BwmmOQCORVEB+6ZfBW13jQMDvlUALl6TBTiiuQBvZT0DkMLTBynnmQEbnJ0CJqpjBeALX
QJyspkBV3q/Bb97fQBQJSkBhF6TB6lW0QJFcKkDI1KjBKA2zQClzLEH/NK3Bw/7eQEudDkGpJbTB
eummQPZvB0GBvqfBfWWPQEExTEB/Y6LB/y1PQL1FaUAoNpPB6gSvQJZblUAiqLPBhleuQDdOQsCO
fazBUo3yQLzDhj/nLrXB+I27QPviSEBOgI/BmipyQD2KZz+td6DBQkhtQI4syL8VBaLBsHLoQI54
wL++WbXBH4UAQUIp6EB+PbrBD/CaQKqOzkBwCaTB4j4CQRVxn0CQzKLBt6/NQCsKpEDPnp7BdRbI
QPpSOUAbb7nBjSyPQF66OkBTbbfBlHbnQEEiwz9X8pjBM48CQQpUQEBYmJXBcR7xQMDjn0CFhbXB
I335QFFdL0ATH6nBqtjGQO9bNUH49bLBRxuRQDcWLkExY6/BAyi4QBDqMkFKH6XB3HNqQGXsXUCC
bKbB0WtLQIgmcUBLSYvBne0aQINUcEAAv5fBFIjSQAqV+D6jyq/B5MrSQGvhZr9hULHByMCRQMZz
i7+vu6bBnM3nQEa08kA8vrTBbnOtQNoI40CBnajBPPCxQOXwjj+3r6nBSIfPQH2h1EDWCK/BcHSy
QCY72L9nwqzBpuKQQIoJmz54NqXBAoe9QMiHFEETV63BJoSOQGssWEBk15fBuG7kQIK5lEDhsaTB
BNquQLeFTUChHbTBwgDmQIdpJkDAlZjBTL7XQEy/pUD27a/BvqHfQJeiR0D3EKTBYI+zQNXNKUBP
oajBAkOxQMfEK0EN3qzBeiveQCRSDkHj2rPBmvSkQC1xBkHC4qfBGHGPQGykT0CaUKLBwWNPQIrv
bEATJJPBNPWvQNY4lEBJzrPBtI+yQFuoQcCZPq7BvRJfQPuTTT9RmJ/Blo+7QOGQSkBLb4/B1ovr
QHAGiz8MUrPBJtXrQJaTrr+w+7XBSgxyQDAd2r9eO6PB2fIAQcto6EAxyrnBxB+aQOJBzEAuRaTB
1fgCQfRRnUBwEqPBbZ3PQDKQo0BJpZ7Bd0/JQCXVNUCAG7nB+TCQQGxEOECRhrfBLCDmQG0MwD+x
vpjBYX0CQYOpPUDPlJXB1PHxQCihn0CAmrXBGL/4QDUYK0BkGKnBywXGQBoHNUFKQrLBxbWPQFKd
LUESXa/BHRG1QLCrMUG2oaTBsdBrQDwfZECrZqbBh2pLQOnRc0DuM4vBr1wbQMsGdUBOsJfB

> <OMEGA_E>
VGuIPth3nT4=

> <OMEGA_NBR>
     26036

$$$$
270450
  -OEChem-04172616093D

 43 46  0     1  0  0  0  0  0999 V2000
    4.6659    0.3927  -20.6790 C   0  0  0  0  0  0  0  0  0  0  0  0
    4.6931   -0.9986  -20.8631 C   0  0  0  0  0  0  0  0  0  0  0  0
    6.6873   -0.7832  -22.2393 C   0  0  0  0  0  0  0  0  0  0  0  0
    5.6321    7.6041  -21.2156 C   0  0  0  0  0  0  0  0  0  0  0  0
    5.6576    1.2244  -21.2669 C   0  0  0  0  0  0  0  0  0  0  0  0
    5.7019   -1.5859  -21.6427 C   0  0  0  0  0  0  0  0  0  0  0  0
    6.6745    0.6109  -22.0603 C   0  0  0  0  0  0  0  0  0  0  0  0
    6.5233    6.8498  -21.9300 C   0  0  0  0  0  0  0  0  0  0  0  0
    4.3950    3.2452  -18.9289 C   0  0  0  0  0  0  0  0  0  0  0  0
    6.9233    4.8715  -20.4729 C   0  0  0  0  0  0  0  0  0  0  0  0
    5.3476    3.4018  -22.4633 C   0  0  0  0  0  0  0  0  0  0  0  0
    7.1828    2.7467  -19.0614 C   0  0  0  0  0  0  0  0  0  0  0  0
    6.6182    5.3586  -21.9055 C   0  0  1  0  0  0  0  0  0  0  0  0
    6.9260    3.3277  -20.4604 C   0  0  1  0  0  0  0  0  0  0  0  0
    5.6022    2.7577  -21.0733 C   0  0  2  0  0  0  0  0  0  0  0  0
    5.1672   10.0484  -21.1570 C   0  0  0  0  0  0  0  0  0  0  0  0
    7.2922    7.7122  -22.7294 N   0  0  0  0  0  0  0  0  0  0  0  0
    6.9250    8.9317  -22.5288 N   0  0  0  0  0  0  0  0  0  0  0  0
    5.9347    8.8706  -21.6084 N   0  0  0  0  0  0  0  0  0  0  0  0
    4.4230    3.1674  -20.2423 N   0  3  0  0  0  0  0  0  0  0  0  0
    3.1695    3.4752  -18.3254 N   0  0  0  0  0  0  0  0  0  0  0  0
    5.3549    4.8308  -22.3518 O   0  0  0  0  0  0  0  0  0  0  0  0
    5.7232   -2.9239  -21.8231 F   0  0  0  0  0  0  0  0  0  0  0  0
    7.6457    1.3278  -22.6739 F   0  0  0  0  0  0  0  0  0  0  0  0
    5.8221    3.1200  -17.8920 S   0  0  0  0  0  0  0  0  0  0  0  0
    3.8819    0.8367  -20.0835 H   0  0  0  0  0  0  0  0  0  0  0  0
    3.9368   -1.6181  -20.4042 H   0  0  0  0  0  0  0  0  0  0  0  0
    7.4602   -1.2400  -22.8396 H   0  0  0  0  0  0  0  0  0  0  0  0
    4.8779    7.2759  -20.5157 H   0  0  0  0  0  0  0  0  0  0  0  0
    7.9087    5.2451  -20.1577 H   0  0  0  0  0  0  0  0  0  0  0  0
    6.1518    5.2451  -19.7836 H   0  0  0  0  0  0  0  0  0  0  0  0
    6.1381    3.0871  -23.1605 H   0  0  0  0  0  0  0  0  0  0  0  0
    4.3699    3.0714  -22.8440 H   0  0  0  0  0  0  0  0  0  0  0  0
    7.2871    1.6549  -19.1457 H   0  0  0  0  0  0  0  0  0  0  0  0
    8.1159    3.1749  -18.6665 H   0  0  0  0  0  0  0  0  0  0  0  0
    7.4276    5.0299  -22.5740 H   0  0  0  0  0  0  0  0  0  0  0  0
    7.7501    2.9971  -21.1097 H   0  0  0  0  0  0  0  0  0  0  0  0
    5.5295   10.9454  -21.6805 H   0  0  0  0  0  0  0  0  0  0  0  0
    4.1007    9.8988  -21.3811 H   0  0  0  0  0  0  0  0  0  0  0  0
    5.2993   10.1784  -20.0727 H   0  0  0  0  0  0  0  0  0  0  0  0
    3.5824    3.4027  -20.7301 H   0  0  0  0  0  0  0  0  0  0  0  0
    3.1108    3.5653  -17.3312 H   0  0  0  0  0  0  0  0  0  0  0  0
    2.3435    3.5511  -18.8840 H   0  0  0  0  0  0  0  0  0  0  0  0
  1  2  2  0  0  0  0
  1  5  1  0  0  0  0
  2  6  1  0  0  0  0
  3  6  2  0  0  0  0
  3  7  1  0  0  0  0
  4  8  2  0  0  0  0
  4 19  1  0  0  0  0
  5  7  2  0  0  0  0
  5 15  1  0  0  0  0
  6 23  1  0  0  0  0
  7 24  1  0  0  0  0
  8 13  1  0  0  0  0
  8 17  1  0  0  0  0
  9 20  2  0  0  0  0
  9 21  1  0  0  0  0
  9 25  1  0  0  0  0
 10 13  1  0  0  0  0
 10 14  1  0  0  0  0
 11 15  1  0  0  0  0
 11 22  1  0  0  0  0
 12 14  1  0  0  0  0
 12 25  1  0  0  0  0
 13 22  1  0  0  0  0
 14 15  1  0  0  0  0
 15 20  1  0  0  0  0
 16 19  1  0  0  0  0
 17 18  2  0  0  0  0
 18 19  1  0  0  0  0
  1 26  1  0  0  0  0
  2 27  1  0  0  0  0
  3 28  1  0  0  0  0
  4 29  1  0  0  0  0
 10 30  1  0  0  0  0
 10 31  1  0  0  0  0
 11 32  1  0  0  0  0
 11 33  1  0  0  0  0
 12 34  1  0  0  0  0
 12 35  1  0  0  0  0
 13 36  1  0  0  0  0
 14 37  1  0  0  0  0
 16 38  1  0  0  0  0
 16 39  1  0  0  0  0
 16 40  1  0  0  0  0
 20 41  1  0  0  0  0
 21 42  1  0  0  0  0
 21 43  1  0  0  0  0
M  CHG  1  20   1
M  END
> <OMEGA_C>
G0+VQE8OyT6qbqXBBS6WQGyif7+T56bBZP7VQMyCSL//6bHBPDq0QJxU80CUuanBCQu1QE66nD+m
IqrBDHa2QFX9yr9UJK3Bl5XVQORiHD9re7DBj77QQOMx20CMcK/BN6SMQPaxT0BXbpfB5YvdQB7j
m0CUyKPBsR+rQCe3WUDNtLPBRNnlQNvJL0DQfZjBqcjTQE95q0BhPq/BwKHdQHb5VED3rqPB70Sz
QE1+MEA1lqjByVmlQD/GIEF9QanBWlnpQGzK9kDe1bXB25ndQGPoDkHrOrTB5ei9QOHtDUEH3qzB
gYmNQBq3SkA78KHBfdhKQDJqXkBlmpLBD1urQN2VmkBx0LLBMyS3QIYhO8DAla7Bgan0QMjzqT87
ZLXBPE66QMytR0DoIo/B2HF4QDgyVj8Dq6DB0vR7QKEdz7+2O6PBH7ruQF+3nr98t7bB7RecQDbU
6EAfIKTBZRT9QBTYp0ARQ6HB8NvEQArYp0DJRJ7B/GrEQB6TRUDJSLnBkdaLQGKRRECQwLbBQzDp
QM/T0z9MKpnBr9oBQc4wS0D9VJXBzq7tQLT0oECFl7TBxgD4QMDPP0Cd4KjBgfGwQHUgL0G6ca3B
CjmDQK1hHkFtDKvBMJSpQL3aIkHnlKDBP0VlQKbFWUAm16XBmxZHQKguZEBGporBtfsVQNRFY0Ba
EpfBhlDVQGaZLz99jbDBLHfYQGwWMb+xjrLBAG6ZQNAVir/NmKfBxsWzQKQG80Ap1KnBsgq0QOZh
mz8oD6rBOn66QIFyyb/kE67BELaVQLxbmT4dk6XBKMXQQD732kA/bK/BrnyMQIQMUkD9YJfBWOLd
QPEom0Dn5aPB3CCrQIalWEA8s7PBCo3lQEhpLkCEmZjBqOTTQJokq0BoT6/BVhPdQJ5TU0Ciy6PB
qCSyQCQkMEDnfKjBkCukQC6cIEFDlKnBdKrpQBqy9kBzt7XBIoXdQLHUDkFwNbTB7FK9QErNDUGh
/azB8iSNQATUTUDi46HBzp9KQI7RX0CYe5LBXoWrQAIrmkCS7LLB2Ei9QCiQOcC1BbDBu6RoQLj5
Lz9RcJ/B2iq6QJAlRkCfJY/B95rsQOWprT9RArTBS+7xQDRDib/LirfB7JiCQJS+4b8aIKTBLm2b
QPN06ECGS6TBHcD9QLqApkBhdqHBza7FQAeGp0AjTp7BFt/EQOfOQ0BvG7nBrhKMQLeVQ0AY5rbB
M/noQGIX0T8qQ5nBdrkBQZ0HSkAffpXBgMrtQMjooEBwsbTBWPj2QJ0bPUDbEanBYtSvQM3vLkEr
x63BdjmCQIQJHkEIhavBZLanQBHdIkGJ5aDBn2hlQPz7X0CNyKXB49VGQHzKYkBmgYrBvNwVQObI
ZkAf7ZbBgLyQQMQR4T6xr6TBbIKNQPK4dL8miKXB6vzMQPJTf7+uyrDBghTaQHxE+0BearHBJXuy
QKhdkj8d1qnBX5irQPss1r+zlKvBtLnQQMIKzD65+K/Bm/TJQE0g1kCTSa3BghmPQMznVkCdKJjB
fFDlQFbLlUBhc6TBbmGxQApCUUBoU7TB8MPmQDSPJkAirJjB6jXXQGYVqUA9Ya/B3BThQOheSUD6
HKTBg4q1QOqJK0Ci7ajB4CzDQJa2I0GJAa/BNkynQERX4EDXj6bBifyhQCGABEE9QKbBuIzAQIuu
DEHzqqzBSL6QQHTjT0DXpaLBg/lPQL73akAHkZPBrtGwQCcUlkBftbPBMFqoQMr3QMCJb6zB+Hvx
QCkkfT+3QbXBuMq7QPbkSUAhno/BEKNyQLVEfD8CEqDB1rdnQGJAvb+KhqHBjfXjQGD0xr9qdrXB
qin0QJa2/0BO+bbBfXsDQWldnkBoAqPBQTDRQDGKo0DrGZ7BeMHMQIOFPECCNrnBR3yTQAOVOkCx
AbjBP8rmQLJmwD8q+ZjBHcwCQXs3PUDvgZXBcODxQIbRp0CPHbXBe7r6QPM/LkDKGKnBMEipQMgp
LEHzzKrBFkbiQAvsKUEfS6zBevG/QFtHJkGnrLfB+b1uQAV6ZEDGyabBYTZLQCmxcUASoovBzE4c
QEC3ckDzL5jBIFbSQHX88T4Tvq/BpIfRQBdGar+eWbHBPjaQQDBgiL+d26bBoIfVQIfH+0DPxLDB
sheyQAbpjz+jqanBfn6wQFaO179+5KzB6m+QQGjPpj57PKXBWETHQIuH1UDa0azB8LaOQK0yWUC6
75fBdIXlQHU4lUBNcKTBlLCxQAYBT0AHGLTBaPPlQIK8JkDBaZjBmjzWQMASqUCjO6/B5GvgQLUW
SEDc7aPB+pe0QLKjKkAbm6jBBsm7QOJjI0Hjs63BEs6kQDa33UAU2qXB5gKeQDQNA0H5M6XBeEm7
QH8vDEFAq6vB6jmQQOoZUUAva6LBD+ZOQKXBa0DhUpPBNI+wQO0PlUBjsLPBtpqvQF5HQcA4cK7B
kQ5fQJOBVj/Gh5/Btq+7QKKOTkDRcI/BvO/rQKk2hz+HMLPBW1DqQFUSsr+pA7bBn+BtQLIC1b+u
bKPBW+XuQIruAEGzb7bBY8UDQW4VnUCMU6PBJ63SQKF2o0AZ6p3BjsjNQPNCOkD8t7jB4maUQBEz
N0Ct9rfBMdnkQLPAwD/YhZjBQpkCQcnzO0B8WZXBTNDwQBKMqUB5ALXByM35QM+IK0BH36jBxZqh
QDMPK0H8PanB75TaQLkZKkEfE6vBE423QEtZJkEIULbBsiduQGlTZkAMmKbBkDVKQAHDckC5ZIvB
C/IaQBIjckBQ7ZfB

> <OMEGA_E>
mGFdPvAiej40Gwo/IK0XPw==

> <OMEGA_NBR>
     29356

$$$$
270451
  -OEChem-04172616093D

 41 44  0     1  0  0  0  0  0999 V2000
    5.2636    9.9335  -21.0676 C   0  0  0  0  0  0  0  0  0  0  0  0
    4.6130    0.3780  -20.6862 C   0  0  0  0  0  0  0  0  0  0  0  0
    4.6222   -1.0147  -20.8541 C   0  0  0  0  0  0  0  0  0  0  0  0
    6.6315   -0.8444  -22.2163 C   0  0  0  0  0  0  0  0  0  0  0  0
    6.8990    8.8208  -22.5646 C   0  0  0  0  0  0  0  0  0  0  0  0
    5.9388    8.7962  -21.5899 C   0  0  0  0  0  0  0  0  0  0  0  0
    5.6242    1.1853  -21.2719 C   0  0  0  0  0  0  0  0  0  0  0  0
    5.6324   -1.6253  -21.6141 C   0  0  0  0  0  0  0  0  0  0  0  0
    6.6354    0.5508  -22.0560 C   0  0  0  0  0  0  0  0  0  0  0  0
    6.5795    6.7494  -21.9170 C   0  0  0  0  0  0  0  0  0  0  0  0
    4.3996    3.2631  -18.9451 C   0  0  0  0  0  0  0  0  0  0  0  0
    6.9628    4.7878  -20.4669 C   0  0  0  0  0  0  0  0  0  0  0  0
    5.3675    3.3525  -22.4764 C   0  0  0  0  0  0  0  0  0  0  0  0
    7.1691    2.6666  -19.0590 C   0  0  0  0  0  0  0  0  0  0  0  0
    6.6699    5.2714  -21.8970 C   0  0  1  0  0  0  0  0  0  0  0  0
    6.9345    3.2496  -20.4593 C   0  0  1  0  0  0  0  0  0  0  0  0
    5.6003    2.7145  -21.0813 C   0  0  2  0  0  0  0  0  0  0  0  0
    4.7233   10.8774  -20.6499 N   0  0  0  0  0  0  0  0  0  0  0  0
    5.7490    7.4815  -21.2139 N   0  0  0  0  0  0  0  0  0  0  0  0
    4.4268    3.1578  -20.2572 N   0  3  0  0  0  0  0  0  0  0  0  0
    3.1827    3.5500  -18.3487 N   0  0  0  0  0  0  0  0  0  0  0  0
    7.2840    7.5439  -22.7575 O   0  0  0  0  0  0  0  0  0  0  0  0
    5.4049    4.7749  -22.3656 O   0  0  0  0  0  0  0  0  0  0  0  0
    5.6404   -2.9657  -21.7727 F   0  0  0  0  0  0  0  0  0  0  0  0
    7.6177    1.2471  -22.6766 F   0  0  0  0  0  0  0  0  0  0  0  0
    5.8161    3.0905  -17.8991 S   0  0  0  0  0  0  0  0  0  0  0  0
    3.8289    0.8411  -20.1056 H   0  0  0  0  0  0  0  0  0  0  0  0
    3.8511   -1.6180  -20.3982 H   0  0  0  0  0  0  0  0  0  0  0  0
    7.4015   -1.3193  -22.8062 H   0  0  0  0  0  0  0  0  0  0  0  0
    7.2747    9.6931  -23.0787 H   0  0  0  0  0  0  0  0  0  0  0  0
    7.9547    5.1427  -20.1505 H   0  0  0  0  0  0  0  0  0  0  0  0
    6.1975    5.1768  -19.7791 H   0  0  0  0  0  0  0  0  0  0  0  0
    6.1553    3.0185  -23.1676 H   0  0  0  0  0  0  0  0  0  0  0  0
    4.3854    3.0412  -22.8619 H   0  0  0  0  0  0  0  0  0  0  0  0
    7.2383    1.5716  -19.1379 H   0  0  0  0  0  0  0  0  0  0  0  0
    8.1142    3.0660  -18.6624 H   0  0  0  0  0  0  0  0  0  0  0  0
    7.4817    4.9393  -22.5608 H   0  0  0  0  0  0  0  0  0  0  0  0
    7.7549    2.9015  -21.1040 H   0  0  0  0  0  0  0  0  0  0  0  0
    3.5893    3.3948  -20.7496 H   0  0  0  0  0  0  0  0  0  0  0  0
    3.1245    3.6532  -17.3558 H   0  0  0  0  0  0  0  0  0  0  0  0
    2.3624    3.6540  -18.9111 H   0  0  0  0  0  0  0  0  0  0  0  0
  1  6  1  0  0  0  0
  1 18  3  0  0  0  0
  2  3  1  0  0  0  0
  2  7  2  0  0  0  0
  3  8  2  0  0  0  0
  4  8  1  0  0  0  0
  4  9  2  0  0  0  0
  5  6  2  0  0  0  0
  5 22  1  0  0  0  0
  6 19  1  0  0  0  0
  7  9  1  0  0  0  0
  7 17  1  0  0  0  0
  8 24  1  0  0  0  0
  9 25  1  0  0  0  0
 10 15  1  0  0  0  0
 10 19  2  0  0  0  0
 10 22  1  0  0  0  0
 11 20  2  0  0  0  0
 11 21  1  0  0  0  0
 11 26  1  0  0  0  0
 12 15  1  0  0  0  0
 12 16  1  0  0  0  0
 13 17  1  0  0  0  0
 13 23  1  0  0  0  0
 14 16  1  0  0  0  0
 14 26  1  0  0  0  0
 15 23  1  0  0  0  0
 16 17  1  0  0  0  0
 17 20  1  0  0  0  0
  2 27  1  0  0  0  0
  3 28  1  0  0  0  0
  4 29  1  0  0  0  0
  5 30  1  0  0  0  0
 12 31  1  0  0  0  0
 12 32  1  0  0  0  0
 13 33  1  0  0  0  0
 13 34  1  0  0  0  0
 14 35  1  0  0  0  0
 14 36  1  0  0  0  0
 15 37  1  0  0  0  0
 16 38  1  0  0  0  0
 20 39  1  0  0  0  0
 21 40  1  0  0  0  0
 21 41  1  0  0  0  0
M  CHG  1  20   1
M  END
> <OMEGA_C>
cm+oQIDvHkFtiqjB9p2TQH6FwT5nfaXB/uiTQPvhgb9B1abB/DTUQCctWL/surHBYMTcQBsiDUFL
hLTBnAq+QCm9DEEwuKzBn/mzQAq5lz/BLKrBzzy0QOoJ0L+06azBElXUQBwADT+bcrDBi4vSQG77
10ASVq/BjsmMQE7WUECaj5fB487eQIo1mUAzvKPBkMKrQJmPVkCtz7PBe2nlQMSoKkDPeJjBCnDV
QGevqEAELa/BQefdQOr5T0CgrKPBpzWzQNy5LUB6pqjBkSWXQNQJLkHoMqXBLPi3QNJo70D6tanB
d6iNQFAZSkCzDqLBzbBLQMIzY0ApypLBahbpQGtn8UBND7bB3fSsQFfMmEDX7LLBzn20QJPOPcCJ
Lq7BmsTzQFufnz+wabXBdR26QD7LRUBVMY/BFw11QF9RVz9U2KDBkHh2QNUZz79yL6PB5djsQGze
qL8Uc7bBv8roQOoWG0FAobjBq4z+QBmRpEAmNKHBCFLGQMCopUCjO57BivjEQPQuQUA5V7nBN1WM
QCyjQkAV5bbBH6DnQDgpyT+CGpnB0NMBQXI5RECwTJXBZGrvQJsOnkCEfLTBcSj4QKmyOUAI1ajB
dbdlQEBEWUAZ/6XBYvdHQJ7OaUCW2IrBKjEXQMjaaUABSpfBonynQEfHHkEw+KjB5f/TQMw1IT//
nbDBn+DWQNQLQL+Ge7LBwe2XQG64jb9AaKfBX9LdQHHpDEFpU7TBKfC9QC2JDEGY06zBTgezQIrx
lT9cGarBJOu4QHMwz7851q3BbnWUQAJ3jD6biaXBb5HSQMl210BRUa/BZ46MQOEfU0B1bpfBS0Hf
QKxFmEA016PBwFOrQDxaVUDztLPB2MzkQHwrKUDXeZjB51rVQEUQqEBPOa/BN0XdQILoTUA2t6PB
G/yxQEAKLUC4e6jBZXOVQKrrLUEk7qXBLli3QJDy7kBV5KnB7iONQBxQTED97KHBkjxLQACZZEAV
nJLBm0PqQDLx8EDOxrXBs72sQAhBmEB/5rLB4rq7QPK0PMBWja/BbnJmQLLRLj9gbp/B+BK6QNUp
R0CoI4/BHj7rQKZhpT9CMrTBoRjwQEZYkr+/e7fB+fqAQD8f5L943KPB1InqQFHeGkF7TrjBs3D/
QIfqokCEeKHBIX/HQJFMpUApOZ7BXs3EQJFcP0AyH7nBhweMQM6eQUDr47bBmzLmQH7qxT8BBJnB
5LcBQbWgQUCoZ5XBCBnvQDmNnUCqnrTBQg33QOQqNkCq66jBhkVlQISNXUA/26XBqJRHQLIdakAR
p4rB6KoWQNCxa0DnFZfB

> <OMEGA_E>
lHLGPsDh1T4=

> <OMEGA_NBR>
     31092

$$$$
270452
  -OEChem-04172616093D

 45 48  0     1  0  0  0  0  0999 V2000
    4.5567    0.3779  -20.6336 C   0  0  0  0  0  0  0  0  0  0  0  0
    4.5202   -1.0194  -20.7513 C   0  0  0  0  0  0  0  0  0  0  0  0
    6.5250   -0.9633  -22.1294 C   0  0  0  0  0  0  0  0  0  0  0  0
    7.2284    7.5935  -22.6272 C   0  0  0  0  0  0  0  0  0  0  0  0
    5.2396    8.4049  -20.9408 C   0  0  0  0  0  0  0  0  0  0  0  0
    5.5912    1.1295  -21.2519 C   0  0  0  0  0  0  0  0  0  0  0  0
    5.5082   -1.6891  -21.4907 C   0  0  0  0  0  0  0  0  0  0  0  0
    6.5741    0.4350  -22.0210 C   0  0  0  0  0  0  0  0  0  0  0  0
    6.4971    6.6789  -21.8423 C   0  0  0  0  0  0  0  0  0  0  0  0
    5.9742    9.3288  -21.7067 C   0  0  0  0  0  0  0  0  0  0  0  0
    4.4417    3.3154  -18.9858 C   0  0  0  0  0  0  0  0  0  0  0  0
    7.0997    4.6778  -20.5464 C   0  0  0  0  0  0  0  0  0  0  0  0
    5.4419    3.2653  -22.5176 C   0  0  0  0  0  0  0  0  0  0  0  0
    7.1855    2.6026  -19.0758 C   0  0  0  0  0  0  0  0  0  0  0  0
    6.7283    5.2130  -21.9533 C   0  0  1  0  0  0  0  0  0  0  0  0
    6.9890    3.1483  -20.5002 C   0  0  1  0  0  0  0  0  0  0  0  0
    5.6307    2.6615  -21.1039 C   0  0  2  0  0  0  0  0  0  0  0  0
    5.5957   10.7829  -21.6378 C   0  0  0  0  0  0  0  0  0  0  0  0
    5.5103    7.0983  -21.0205 N   0  0  0  0  0  0  0  0  0  0  0  0
    6.9516    8.9119  -22.5491 N   0  0  0  0  0  0  0  0  0  0  0  0
    4.4712    3.1765  -20.2952 N   0  3  0  0  0  0  0  0  0  0  0  0
    3.2307    3.6483  -18.3993 N   0  0  0  0  0  0  0  0  0  0  0  0
    5.4762    4.6840  -22.4348 O   0  0  0  0  0  0  0  0  0  0  0  0
    5.4811   -3.0347  -21.5902 F   0  0  0  0  0  0  0  0  0  0  0  0
    7.5747    1.0741  -22.6730 F   0  0  0  0  0  0  0  0  0  0  0  0
    5.8533    3.1431  -17.9342 S   0  0  0  0  0  0  0  0  0  0  0  0
    3.7908    0.8871  -20.0674 H   0  0  0  0  0  0  0  0  0  0  0  0
    3.7314   -1.5807  -20.2726 H   0  0  0  0  0  0  0  0  0  0  0  0
    7.2741   -1.4836  -22.7077 H   0  0  0  0  0  0  0  0  0  0  0  0
    8.0066    7.2407  -23.2878 H   0  0  0  0  0  0  0  0  0  0  0  0
    4.4541    8.7527  -20.2862 H   0  0  0  0  0  0  0  0  0  0  0  0
    8.1328    4.9722  -20.3095 H   0  0  0  0  0  0  0  0  0  0  0  0
    6.4151    5.1118  -19.8028 H   0  0  0  0  0  0  0  0  0  0  0  0
    6.2510    2.9167  -23.1763 H   0  0  0  0  0  0  0  0  0  0  0  0
    4.4723    2.9452  -22.9267 H   0  0  0  0  0  0  0  0  0  0  0  0
    7.1931    1.5034  -19.1157 H   0  0  0  0  0  0  0  0  0  0  0  0
    8.1505    2.9621  -18.6890 H   0  0  0  0  0  0  0  0  0  0  0  0
    7.5468    5.0033  -22.6577 H   0  0  0  0  0  0  0  0  0  0  0  0
    7.7927    2.7364  -21.1283 H   0  0  0  0  0  0  0  0  0  0  0  0
    6.2169   11.3577  -22.3405 H   0  0  0  0  0  0  0  0  0  0  0  0
    4.5353   10.8988  -21.9066 H   0  0  0  0  0  0  0  0  0  0  0  0
    5.7577   11.1558  -20.6157 H   0  0  0  0  0  0  0  0  0  0  0  0
    3.6472    3.4373  -20.7981 H   0  0  0  0  0  0  0  0  0  0  0  0
    3.1747    3.7834  -17.4101 H   0  0  0  0  0  0  0  0  0  0  0  0
    2.4131    3.7534  -18.9654 H   0  0  0  0  0  0  0  0  0  0  0  0
  1  2  2  0  0  0  0
  1  6  1  0  0  0  0
  2  7  1  0  0  0  0
  3  7  2  0  0  0  0
  3  8  1  0  0  0  0
  4  9  2  0  0  0  0
  4 20  1  0  0  0  0
  5 10  1  0  0  0  0
  5 19  2  0  0  0  0
  6  8  2  0  0  0  0
  6 17  1  0  0  0  0
  7 24  1  0  0  0  0
  8 25  1  0  0  0  0
  9 15  1  0  0  0  0
  9 19  1  0  0  0  0
 10 18  1  0  0  0  0
 10 20  2  0  0  0  0
 11 21  2  0  0  0  0
 11 22  1  0  0  0  0
 11 26  1  0  0  0  0
 12 15  1  0  0  0  0
 12 16  1  0  0  0  0
 13 17  1  0  0  0  0
 13 23  1  0  0  0  0
 14 16  1  0  0  0  0
 14 26  1  0  0  0  0
 15 23  1  0  0  0  0
 16 17  1  0  0  0  0
 17 21  1  0  0  0  0
  1 27  1  0  0  0  0
  2 28  1  0  0  0  0
  3 29  1  0  0  0  0
  4 30  1  0  0  0  0
  5 31  1  0  0  0  0
 12 32  1  0  0  0  0
 12 33  1  0  0  0  0
 13 34  1  0  0  0  0
 13 35  1  0  0  0  0
 14 36  1  0  0  0  0
 14 37  1  0  0  0  0
 15 38  1  0  0  0  0
 16 39  1  0  0  0  0
 18 40  1  0  0  0  0
 18 41  1  0  0  0  0
 18 42  1  0  0  0  0
 21 43  1  0  0  0  0
 22 44  1  0  0  0  0
 22 45  1  0  0  0  0
M  CHG  1  21   1
M  END
> <OMEGA_C>
XNCRQCB+wT6TEaXBlKWQQBJ9gr+VAqbBqszQQN+Ydr/2CLHBck/nQDP+8kB+BLXBcqqnQIp6BkHA
hqfBd+uyQAKTkD/jA6rBEkOwQJo12L/e7KvByF7SQA263j72KrDBSOjPQIG51UD+vK7BRSy/QMFC
FUFHp63BuCKOQFQvVED+4pfB9TDjQMWwlUAKX6TBMiSuQDb7UEAHJLTB7+/lQJyRJkAmm5jBAU7X
QOzQpkBloK/BOKbfQN59SUB7AKTBZi60QEVWKkCx1KjBxA+zQKGGLEE8Gq3BrlSwQOIk40D2KajB
I3PeQAmXDkGgZLTBQxSPQEVLS0CeXKLBhMROQKV9aUDKMZPBNj2vQIDjlUBuerPBQmWvQM84QsC7
uKzB7mPyQIN9iT9NYrXBY067QEApSUBXeY/BrpxyQMwbYz8YiqDBnM5uQHZUyr9SLqLBacXoQB7n
vb9jqbXBCRsAQQm050BtTbrBAoiOQPwKDEEZSqLB1h8CQX4cn0DEeaLBM0jNQBKUo0A6bJ7B4wfI
QI+rOkAYabnBSB2PQHl9PEDmabfBny3mQAtvwD/37JjBjGgCQTGTPUAQg5XBAn/xQGsboEDwQrXB
ul35QJEhL0DPBqnBv/DGQP24NUE+ubLBiSGRQE1hLkHMQK/B5T64QA1+MkH37KTBOmtpQAf8W0CX
YqbBIi5LQHAickDOR4vB9HAaQMo3cEAvuZfBh33SQNA3/z5lDLDBkPDSQFtBY7+crLHBCn6SQNDK
jL8556bBL/7mQEu88kDw+rTBYUGnQKjcBUFaaKfB8BCyQFr8jj9XzanB3gGzQHzx17/FEa3B4XeR
QMaqlD4rRKXBgx/QQIIJ1UC0sq7BNUy+QLjXFEETh63BgSWOQEehV0DJyJfBFFDkQI+qlED0dKTB
i/2uQHLgTkCNBbTBg3blQGbYJUDocZjBkRHYQFodpkAgrK/BcXvfQAtoR0Ba7KPB24azQOLWKUD4
lajBJ6OxQA0KLEGs7qzBoXSwQAcB4kDdFajBYJvdQAZoDkHtT7TBICePQLnKTkB0QqLBfmlOQASa
a0DwF5PBkTSwQL3qlEALlLPBmHWzQK59QcB4la7BHhBhQCqWRj/za5/BVky7QEMYTECwXo/BSDrr
QGbGjT8fm7PB0tDrQPpvq78udrbBOwt0QD+E3L/hYaPBMu7/QNzZ50CqTrrB4gqOQDA6C0F2JKLB
MOICQZcwnUBCvaLBrkfPQExRo0D5bJ7BTnnJQCSPN0BVCLnBPVeQQBQhOkBrfLfB/cvkQOXvvj8P
mZjBNlQCQde3O0DGa5XBsU/yQC3xn0CmVLXBFcL4QFQTK0CQ66jBTTHFQAZiNUFVkLLBRqCPQJ2z
LUHJCq/B09O2QIz+MUHuwKTB0ulqQBRnYkBSWabBRXBKQIESc0DrKYvBkjUaQGaJckDGo5fBEsWS
QALGyz4SIaXByIeRQOBBf78LQ6bBwqvQQBifar+vpLHBW5GtQD1d40D5rafBQanaQK4QDkEVqLPB
elazQP5elD9ZMKrBa5CwQNON078reKzBvFXSQMr49D5clbDB9XXPQM4N1kBDaK7BN564QOqjFEHy
66zBOG+OQHC8VkBK85fB/sPkQEG9lUA1WaTBXIquQOQxU0AwHrTB7vvlQGL4JkDFi5jBjsLXQGF7
p0Dieq/Bez7gQPjUSUBc+KPBDaa0QJ7rK0Bf2qjBxliuQIj7K0F5mavB0nblQA138kDYWrTBVuii
QBhVBkHG+qbBSnmPQCrdTED+Z6LBDENPQEywbEDjU5PBMqqvQBu+lkCdU7PBwoKvQLCxP8BFg63B
3vfxQJpNkD/A37XBFlm7QGrhSkDJeY/B9YB1QJmjZT+DXqDB+V9xQAOlyL9NW6LBeDzoQF6btr8Q
eLbB1SWcQLjny0DQEKPBJg7sQNjSGUEXQrjBLiEDQetlnkBBuaLBbPvPQDD8o0AhNJ7BzGTIQCpF
PUCMbLnBdX2PQJH4PkAnZ7fB/sDlQJE5wT9Z2JjBR3gCQUsxPUD/aJXBD7DxQB+ioUDdP7XBJNr5
QCduLkA78ajBh/iUQNXgLUEvk6XBHS7LQKOZNEFV+KjBxGCjQC2PMkGhSbPBUBFqQCTHXEApc6bB
EEhLQHlWdUCtaovBUkMbQNTfc0B955fBVwfTQPOUDT/DMbDBEofTQD8CVL/w+rHB/quSQEdfh79r
YKfBLzqtQHVC4kD+vKfB7drZQNjzDUGSjrPBUm+yQAiQlD+m7qnB9XCzQGEn0b8Ria3BDZyRQKrZ
qD5nlKXBW3LPQGOG1UD1cK7BGIi3QGM9FEHk16zB60+OQPN5WUDNxpfBdInlQIA/lUBId6TBA0Kv
QI9IUUBfBLTBzI3lQC2rJ0DXY5jBSmPYQBAEp0DYl6/BHe7fQOf9SEDO5KPBk9yzQIdLLEBfl6jB
BF2sQGiAK0GLj6vB60DlQHVm8kANS7TBqxiiQEa4BUHj9qbB/HmPQGs6UUCDQaLBTlFOQOLba0CY
F5PBxpmwQA7olUBcjbPB1+yzQMXUPcALP6/B5MdgQKpyTz+Azp/BG4S7QKxMT0D4XY/BUt3rQPqR
lT83o7PB/o3sQGPDor99xLbBxBx0QCTc179L/aPBZvCbQFB1ykAgNKPBa//qQNzeGUFbHbjBA6gD
QaErnUAP+qLBYG/RQBs/pECZSp7BiKjJQFXbOUAdDLnBgouQQJy5PEDFdrfBcHHkQKWewj+RgZjB
cGwCQSPaPEBWWpXBTYXyQPy6oUCzVrXBxRX5QEm/K0Cv2KjBo6WSQN0tLUFTnKXB8MLIQOhgNEEk
2qjBoIShQAH4MUFuSLPBysZrQJFSZUDRWabBjxlKQC79ckDTKIvB2Q4aQKj8cUB1pZfB

> <OMEGA_E>
ZGmGPphFmT542tM+KNvlPg==

> <OMEGA_NBR>
     34516

$$$$
270457
  -OEChem-04172616093D

 42 45  0     1  0  0  0  0  0999 V2000
    4.5301    0.3836  -20.5871 C   0  0  0  0  0  0  0  0  0  0  0  0
    4.4571   -1.0146  -20.6992 C   0  0  0  0  0  0  0  0  0  0  0  0
    6.4514   -1.0108  -22.0899 C   0  0  0  0  0  0  0  0  0  0  0  0
    7.2538    7.6419  -22.6614 C   0  0  0  0  0  0  0  0  0  0  0  0
    5.4948    7.2952  -21.0384 C   0  0  0  0  0  0  0  0  0  0  0  0
    6.0295    9.4372  -21.7893 C   0  0  0  0  0  0  0  0  0  0  0  0
    5.5743    1.1152  -21.2193 C   0  0  0  0  0  0  0  0  0  0  0  0
    6.5062    6.7583  -21.8626 C   0  0  0  0  0  0  0  0  0  0  0  0
    5.4151   -1.7115  -21.4519 C   0  0  0  0  0  0  0  0  0  0  0  0
    6.5395    0.3892  -21.9808 C   0  0  0  0  0  0  0  0  0  0  0  0
    4.4384    3.2910  -18.9802 C   0  0  0  0  0  0  0  0  0  0  0  0
    7.0880    4.7099  -20.5375 C   0  0  0  0  0  0  0  0  0  0  0  0
    5.4710    3.2721  -22.5092 C   0  0  0  0  0  0  0  0  0  0  0  0
    7.1870    2.6172  -19.0702 C   0  0  0  0  0  0  0  0  0  0  0  0
    6.7173    5.2631  -21.9399 C   0  0  1  0  0  0  0  0  0  0  0  0
    6.9904    3.1637  -20.4952 C   0  0  1  0  0  0  0  0  0  0  0  0
    5.6361    2.6614  -21.0941 C   0  0  2  0  0  0  0  0  0  0  0  0
    7.0036    8.9693  -22.6122 N   0  0  0  0  0  0  0  0  0  0  0  0
    5.2763    8.6245  -21.0089 N   0  0  0  0  0  0  0  0  0  0  0  0
    4.4786    3.1893  -20.2929 N   0  3  0  0  0  0  0  0  0  0  0  0
    3.2100    3.5366  -18.3872 N   0  0  0  0  0  0  0  0  0  0  0  0
    5.4771    4.7036  -22.4245 O   0  0  0  0  0  0  0  0  0  0  0  0
    5.3363   -3.0551  -21.5692 F   0  0  0  0  0  0  0  0  0  0  0  0
    7.5574    1.0034  -22.6278 F   0  0  0  0  0  0  0  0  0  0  0  0
    5.8613    3.1861  -17.9354 S   0  0  0  0  0  0  0  0  0  0  0  0
    3.7829    0.9112  -20.0128 H   0  0  0  0  0  0  0  0  0  0  0  0
    3.6626   -1.5543  -20.2054 H   0  0  0  0  0  0  0  0  0  0  0  0
    7.1863   -1.5506  -22.6686 H   0  0  0  0  0  0  0  0  0  0  0  0
    8.0261    7.2606  -23.3130 H   0  0  0  0  0  0  0  0  0  0  0  0
    4.8931    6.6377  -20.4285 H   0  0  0  0  0  0  0  0  0  0  0  0
    5.8476   10.5012  -21.7555 H   0  0  0  0  0  0  0  0  0  0  0  0
    8.1182    5.0102  -20.2953 H   0  0  0  0  0  0  0  0  0  0  0  0
    6.3981    5.1326  -19.7923 H   0  0  0  0  0  0  0  0  0  0  0  0
    6.3021    2.9407  -23.1491 H   0  0  0  0  0  0  0  0  0  0  0  0
    4.5177    2.9360  -22.9430 H   0  0  0  0  0  0  0  0  0  0  0  0
    7.1782    1.5178  -19.1057 H   0  0  0  0  0  0  0  0  0  0  0  0
    8.1577    2.9640  -18.6863 H   0  0  0  0  0  0  0  0  0  0  0  0
    7.5374    5.0436  -22.6393 H   0  0  0  0  0  0  0  0  0  0  0  0
    7.7988    2.7614  -21.1234 H   0  0  0  0  0  0  0  0  0  0  0  0
    3.6702    3.4887  -20.7998 H   0  0  0  0  0  0  0  0  0  0  0  0
    3.1470    3.6488  -17.3955 H   0  0  0  0  0  0  0  0  0  0  0  0
    2.3867    3.6015  -18.9510 H   0  0  0  0  0  0  0  0  0  0  0  0
  1  2  1  0  0  0  0
  1  7  2  0  0  0  0
  2  9  2  0  0  0  0
  3  9  1  0  0  0  0
  3 10  2  0  0  0  0
  4  8  1  0  0  0  0
  4 18  2  0  0  0  0
  5  8  2  0  0  0  0
  5 19  1  0  0  0  0
  6 18  1  0  0  0  0
  6 19  2  0  0  0  0
  7 10  1  0  0  0  0
  7 17  1  0  0  0  0
  8 15  1  0  0  0  0
  9 23  1  0  0  0  0
 10 24  1  0  0  0  0
 11 20  2  0  0  0  0
 11 21  1  0  0  0  0
 11 25  1  0  0  0  0
 12 15  1  0  0  0  0
 12 16  1  0  0  0  0
 13 17  1  0  0  0  0
 13 22  1  0  0  0  0
 14 16  1  0  0  0  0
 14 25  1  0  0  0  0
 15 22  1  0  0  0  0
 16 17  1  0  0  0  0
 17 20  1  0  0  0  0
  1 26  1  0  0  0  0
  2 27  1  0  0  0  0
  3 28  1  0  0  0  0
  4 29  1  0  0  0  0
  5 30  1  0  0  0  0
  6 31  1  0  0  0  0
 12 32  1  0  0  0  0
 12 33  1  0  0  0  0
 13 34  1  0  0  0  0
 13 35  1  0  0  0  0
 14 36  1  0  0  0  0
 14 37  1  0  0  0  0
 15 38  1  0  0  0  0
 16 39  1  0  0  0  0
 20 40  1  0  0  0  0
 21 41  1  0  0  0  0
 21 42  1  0  0  0  0
M  CHG  1  20   1
M  END
> <OMEGA_C>
YfaQQEhsxD5SsqTB4qCOQJPdgb/sl6XBFnLOQNdhgb8XuLDBvB7oQGSK9ECkSrXBq9WvQP9x6UCs
TqjB3fHAQNP+FkGKUK7Bk2CyQCC+jj8ewanBLjPQQC5E2ECO5q7BukitQA0R2791navB+EPRQFBL
xz6y2K/BrgeOQPyfUkBd15fBStHiQN+3lkDfTKTBvRKvQGxqUUDiErTBjPvlQL+AJ0C6j5jB6PPW
QI1rqED2hK/BbrHfQMB5SkAj9qPBIlu0QIRUKkC5wKjBRB3gQG6CD0Gw5bTBFNeoQOT9CUEiEqjB
WVCPQFAdTEDkV6LBQnBNQABXYkDxGJPBIESvQLyDlkB4ZbPBAMOqQCiGQ8CtjazBNNbxQIpugD+x
BbXByI+7QHboS0DFe4/BDxtyQMdDaT8oGqDBVWhqQIHzxr+lpKHBT/blQNZ5xr9hWbXB7WoAQSRX
6EADgbrB8JOcQFFo1EB5baPBtx+7QBwFKEFRC67BG+QBQYVToEDdXKLBa73MQCc+pEChVp7Bz6rJ
QJk0PEByMbnB25CQQO/nO0BAi7fBvLPlQKlIwj+F2JjBF4YCQV+xPUCFfZXBdTLxQG1loUBjHbXB
2Y/5QMK6MEC6/KjBj+RqQKRGX0D3ZabB62dJQJGFaUD5KYvBBb8YQAR/ZkC2m5fBLr/RQL3a6j7j
4q/B2HLSQKeqb7/IMbHBuPuRQE4FkL8kbqbB7i7oQAsF9ECoCLXBsG6vQHiu6ECmMajBQk3AQACm
FkGKN67B2jKxQAQXjD+3zanB9grQQAGZ10Bauq7B0sOyQApN3b8MY6zB3ISQQCQ6iz4MLaXBluiN
QCtWU0BIy5fBUkbiQNtzlUCDPqTB1JKuQEPST0ARDrTB0r/lQGOWI0AxxJjBqLPWQB+up0C+bq/B
JLXeQE/tR0BsEaTBruayQDoaKUD0sajBVOzfQK07D0GfrrTBejKoQAiaCUF4/qfBfsqOQMtzTUC3
S6LBsWJOQLesZ0BXBZPB7CWvQBfYlUBFdLPBRpyzQHOdRMCYhq3BP99dQJAARD9nnZ/BoOS6QJZ4
QkCyb4/BxmjqQECDhz/OkrPBm17rQCIKs79e5rXBRj1zQCqn3r8YxaLBJqQAQXvy50A2JrrBOSyc
QJKX00A0VKPBlhq6QNykJ0GZBq7BJKUBQVSynkBAQKLBpjnMQIXkokCOQ57BxmjJQE3fOUCTC7nB
oTSQQO+2OkBro7fB/uXmQKCsuj9JQ5nB0TQCQdW1O0C5q5XBIh7xQCfcoEBB/rTBGBD4QEVRLkDt
Q6nBcJhqQFf+YkDiT6bB3mZKQM15bEAYD4vBs38aQGOMcUDniZfB

> <OMEGA_E>
IDGDPkyWkz4=

> <OMEGA_NBR>
     36280

$$$$
270458
  -OEChem-04172616093D

 47 50  0     1  0  0  0  0  0999 V2000
    4.5999    0.2801  -20.6608 C   0  0  0  0  0  0  0  0  0  0  0  0
    4.6041   -1.1071  -20.8634 C   0  0  0  0  0  0  0  0  0  0  0  0
    7.6454    7.1503  -22.9499 C   0  0  0  0  0  0  0  0  0  0  0  0
    5.8369    7.3238  -21.3472 C   0  0  0  0  0  0  0  0  0  0  0  0
    6.6037   -0.9108  -22.2382 C   0  0  0  0  0  0  0  0  0  0  0  0
    7.5946    8.5433  -23.0999 C   0  0  0  0  0  0  0  0  0  0  0  0
    5.6051    1.0954  -21.2409 C   0  0  0  0  0  0  0  0  0  0  0  0
    6.7492    6.5412  -22.0652 C   0  0  0  0  0  0  0  0  0  0  0  0
    5.6051   -1.7009  -21.6491 C   0  0  0  0  0  0  0  0  0  0  0  0
    6.6115    0.4786  -22.0469 C   0  0  0  0  0  0  0  0  0  0  0  0
    5.8539    8.7100  -21.5146 C   0  0  0  0  0  0  0  0  0  0  0  0
    4.3805    3.2549  -18.9132 C   0  0  0  0  0  0  0  0  0  0  0  0
    6.9976    4.6619  -20.4826 C   0  0  0  0  0  0  0  0  0  0  0  0
    5.3033    3.2392  -22.4337 C   0  0  0  0  0  0  0  0  0  0  0  0
    7.1287    2.5975  -18.9953 C   0  0  0  0  0  0  0  0  0  0  0  0
    6.7201    5.0724  -21.9373 C   0  0  1  0  0  0  0  0  0  0  0  0
    6.9182    3.1355  -20.4160 C   0  0  1  0  0  0  0  0  0  0  0  0
    5.5722    2.6154  -21.0366 C   0  0  2  0  0  0  0  0  0  0  0  0
    4.9994   10.8656  -20.9399 C   0  0  0  0  0  0  0  0  0  0  0  0
    6.7162    9.2950  -22.3939 N   0  0  0  0  0  0  0  0  0  0  0  0
    4.3973    3.0565  -20.2137 N   0  3  0  0  0  0  0  0  0  0  0  0
    3.1704    3.6011  -18.3356 N   0  0  0  0  0  0  0  0  0  0  0  0
    5.4148    4.6505  -22.3530 O   0  0  0  0  0  0  0  0  0  0  0  0
    4.9834    9.4405  -20.7334 O   0  0  0  0  0  0  0  0  0  0  0  0
    5.6047   -3.0357  -21.8451 F   0  0  0  0  0  0  0  0  0  0  0  0
    7.5869    1.1864  -22.6679 F   0  0  0  0  0  0  0  0  0  0  0  0
    5.7942    3.1211  -17.8610 S   0  0  0  0  0  0  0  0  0  0  0  0
    3.8254    0.7314  -20.0585 H   0  0  0  0  0  0  0  0  0  0  0  0
    3.8363   -1.7200  -20.4146 H   0  0  0  0  0  0  0  0  0  0  0  0
    8.3603    6.5609  -23.5048 H   0  0  0  0  0  0  0  0  0  0  0  0
    5.1302    6.8620  -20.6736 H   0  0  0  0  0  0  0  0  0  0  0  0
    7.3699   -1.3745  -22.8418 H   0  0  0  0  0  0  0  0  0  0  0  0
    8.2688    9.0264  -23.7916 H   0  0  0  0  0  0  0  0  0  0  0  0
    8.0000    5.0000  -20.1811 H   0  0  0  0  0  0  0  0  0  0  0  0
    6.2445    5.1072  -19.8159 H   0  0  0  0  0  0  0  0  0  0  0  0
    6.0396    2.8542  -23.1546 H   0  0  0  0  0  0  0  0  0  0  0  0
    4.2897    2.9703  -22.7659 H   0  0  0  0  0  0  0  0  0  0  0  0
    7.1532    1.4984  -19.0317 H   0  0  0  0  0  0  0  0  0  0  0  0
    8.0888    2.9732  -18.6118 H   0  0  0  0  0  0  0  0  0  0  0  0
    7.4895    4.6281  -22.5858 H   0  0  0  0  0  0  0  0  0  0  0  0
    7.7320    2.7376  -21.0401 H   0  0  0  0  0  0  0  0  0  0  0  0
    4.2706   11.3422  -20.2678 H   0  0  0  0  0  0  0  0  0  0  0  0
    6.0054   11.2557  -20.7257 H   0  0  0  0  0  0  0  0  0  0  0  0
    4.7348   11.0876  -21.9843 H   0  0  0  0  0  0  0  0  0  0  0  0
    3.5402    3.2159  -20.7036 H   0  0  0  0  0  0  0  0  0  0  0  0
    3.1156    3.7669  -17.3510 H   0  0  0  0  0  0  0  0  0  0  0  0
    2.3514    3.6852  -18.9032 H   0  0  0  0  0  0  0  0  0  0  0  0
  1  2  2  0  0  0  0
  1  7  1  0  0  0  0
  2  9  1  0  0  0  0
  3  6  2  0  0  0  0
  3  8  1  0  0  0  0
  4  8  2  0  0  0  0
  4 11  1  0  0  0  0
  5  9  2  0  0  0  0
  5 10  1  0  0  0  0
  6 20  1  0  0  0  0
  7 10  2  0  0  0  0
  7 18  1  0  0  0  0
  8 16  1  0  0  0  0
  9 25  1  0  0  0  0
 10 26  1  0  0  0  0
 11 20  2  0  0  0  0
 11 24  1  0  0  0  0
 12 21  2  0  0  0  0
 12 22  1  0  0  0  0
 12 27  1  0  0  0  0
 13 16  1  0  0  0  0
 13 17  1  0  0  0  0
 14 18  1  0  0  0  0
 14 23  1  0  0  0  0
 15 17  1  0  0  0  0
 15 27  1  0  0  0  0
 16 23  1  0  0  0  0
 17 18  1  0  0  0  0
 18 21  1  0  0  0  0
 19 24  1  0  0  0  0
  1 28  1  0  0  0  0
  2 29  1  0  0  0  0
  3 30  1  0  0  0  0
  4 31  1  0  0  0  0
  5 32  1  0  0  0  0
  6 33  1  0  0  0  0
 13 34  1  0  0  0  0
 13 35  1  0  0  0  0
 14 36  1  0  0  0  0
 14 37  1  0  0  0  0
 15 38  1  0  0  0  0
 15 39  1  0  0  0  0
 16 40  1  0  0  0  0
 17 41  1  0  0  0  0
 19 42  1  0  0  0  0
 19 43  1  0  0  0  0
 19 44  1  0  0  0  0
 21 45  1  0  0  0  0
 22 46  1  0  0  0  0
 22 47  1  0  0  0  0
M  CHG  1  21   1
M  END
> <OMEGA_C>
mDKTQB1njz5kSaXBelSTQM22jb9D6KbBSqf0QJTP5EBTmbfB6Me6QI1c6kAOx6rBnlHTQGEnab/r
57HBxAbzQGexCEGCzLjBrlyzQGI1jD9P7anBwPnXQLVR0UCJhbDB3lyzQCm32b9aMa3BWpHTQNoN
9T79X7DB1FK7QBBcC0HUHazBaC2MQAhQUEBFTpfBOOzfQKEulUBv3KPBPLSpQIlOT0A0eLPBQh7k
QGg9JkB09pfBzgrXQH5RokClf6/BCGLdQHSrSEAJVKPBUk+yQGBiJ0DwSqjBPvufQIHZLUHthKfB
8OrWQC24FEHGJrPBpLaMQG2eQ0CytaHB5OdKQN13ZkBdr5LB3EWtQPrQlED/0rLB5HefQD4MF0H5
3aXB8lmzQFhIQsC3wq7BvMfyQM7blz/mV7XBdGq5QCLAR0Bg447BO9N0QEM6Oz+9d6DBfYZ1QN0n
3L8VUaPBxMMFQcjy0UC8CbzB0CqkQEaV20CKY6XB8NXrQB/xr78NvLbB0UwEQUJsEEEoVb7Bu///
QBgAoEDVcqHBjtLHQFpuo0D9hp7BKETBQEWrNkCFPLnBAkWJQOEYPkCKILbBDefkQKDKvz/YQJjB
oGsBQcNIPkD65JTBN6rvQDUZlECjr7TBrmz3QG00L0ANUqjB7aiIQNB5NUGKJKLB3SvAQG0XNEEl
zqXBboOXQOlmMUHE36/BapJiQNDRTUDtoKXBK2ZHQJgVcUDbzorB5XwWQK3Za0C2OZfBzj3UQGYN
Cj8/0q/BRVvWQKT+Vb/q3rHBJ+XxQFnO5EBcXrjB5IW7QIpJ60CGqqrBfpyVQBSslb+PZafBU0zy
QIPJCEHhLbnBf8OyQOh3iz/TganBeDzWQIGf0UDk+7DBxhO3QNdV2L+2oa3BNuuSQEarVj7YWKXB
EBe+QJ7lC0FiqavB0SmMQKfuUUCyLpfBa1zfQHiclUDkQ6TBt42pQLZ9TEC7d7PBgIXkQGk+KUAq
DpjBYX/VQLltokC35q/B8PDcQM52SUCfgaPBYXWxQLmXJ0CYGqjBhseXQEVALEFXuajBA+vYQF0Z
FUEu6bLBDLmMQOwuSEB2oKHBwj5KQA0gZEBWdZLBWAisQHq5k0A/IrPBbOelQCzlF0FwsKTBs/a4
QPH6QMBFm6/B9ydiQHb7Ij/ph5/Bece5QGf1SUAZ347BgnPsQISlmD/JF7PBAvzvQI9Vnr/GsrbB
wkMDQRKE0UDEWL3B80mlQOHq3EC1HKXBeWx7QDjp6r9MJaTBpqADQcpaEEHj6b7BQqH/QAaOoECs
DqLBa7bHQLIepEB02Z7BkfnBQH6lM0AD/rjBe5uJQG8mOUApQ7bBxC3mQJjbxT/7LZjBNYkBQQZK
Q0B5I5XBpC/uQIN+lEAUHrXBz5L2QPEkL0Cxj6jBtdSEQDN+NEHkjqLB0cKzQPYSNkEx0arBxPGD
QJrCKUHp4q/BqzlkQMgJWECMmqXBaYJGQHBibED8iYrBuZkVQKMAaUBy95bB9dOSQD7Bjj788qPB
Ua2RQChzj79xyKTBreqvQIon60Dey7PBPSv6QDkQ7EAuWa7BXdzOQBv3h7/I0bDBSQexQFAJDEE9
M7TBzy+yQMTBhD+tiKnBCS3VQIqX1ECCz7DBbpevQPFF5b9iOavB3XvQQNlQrj4YBLDBrSH5QAu5
DEGVv67BwiaNQJ6UT0CypJfBxO/fQOdLlUD3naTBvLirQDwBS0CKBLTBfoblQKjZJUBrhJjBrTPW
QBobpEDMOLDBTO7dQPyRR0Do9KPBUMGyQIQqJUCWoajB62whQZpyDkE8tajB8trUQKcfF0FysbHB
RKWNQDY8RUBIHKLBx5ZNQOzXZkAQ5ZLB72etQBo1k0DEpbPBISYOQRVTGUEUMqzBM0uuQJ/WSMAL
CazB0GrvQNyLfD9NlLXB+mW6QKqwQ0BTRI/BLzR3QGhAST/VAJ/BQ35zQDRd17+0dqDBtOSSQKIX
2kBpv7XB9KYLQTGr20CMKKzBDsvlQA2Ayr+fxLXBg52UQLqoFEFQkbbB4w0AQZIxoEABT6LB5R7I
QGYjo0BvI5/BBOXEQLU/M0CNZ7nB5DqMQHjPNkAtCLfBMsLnQDxCvz+wzZjBIegBQeRxQEAogpXB
McTvQLE2mEB4fbXB6Mb3QE1ULkCOB6nBSfEtQbZSGkHF+KbBu/kdQXAkBUG+cKHBgPomQQ+fA0H4
EK/B8bxlQJQWVED6E6bBLsRKQIhMcECN/YrB0hAZQNMrbkCLX5fBaSLXQEGGoz43pavBrjrWQOpS
ir/3jKzBhHmvQGII60C2wLPBB9X5QKeL7EAlaa7B3lmJQPwEiL96fqnB2zewQPr/C0EtHbTBVVWx
QJTRhj9IP6nByAjVQBXM1ECV37DBEGqvQCju4r/jX6vBuNqJQCzZrT7ukqjBM2/4QDTzDEHjvq7B
ZUiNQDBOT0BXhZfBb47fQE4vlkC4kKTBnMGtQEDXSEDQArTBgQ/mQA2KKEBAXJjBrqrWQPpcpEBp
QrDBLR/eQImESUAP16PBwPuyQCNQJkBdd6jBHhQhQffVDkE5tKjBw+7TQKQ5F0GvobHBZImOQGmQ
SUC+BaLB0EVNQOT6ZEC3zJLB+bmuQLhikkBF/rPBa7wNQYaiGUFmLazByIauQA+rR8B5PKzBq5ZH
QFM+dz9wNqfBAmS6QEGHQ0BLHY/BOfX0QNGbWD9ZyazB2WPzQN70z7/AJq7B/oeSQDy/2UCXp7XB
IpELQQBa3EA9RKzBuvFWQPZ1zL/Cv6jBVp2TQBCGFEFWbbbBsF3/QA2WoUC+GaLBnxLHQJLjo0Bh
QJ/BaAnIQLqEMECWA7nB6PuOQNDnMkC4SbfBU3fpQAUBxT+DoJjBeO0BQaMvRUCFVpXBqxvxQP/o
mEBKULXBuwP4QNOJMEAV66jBrYgtQWzEGkHx86bB+q0dQVR5BUHYcqHBra8mQZASBEG9E6/Ba+1p
QLaHXkD4DabBHt5JQCRtbUCO4YrBHOsYQH8rbED4T5fB

> <OMEGA_E>
SOmUPriMpz7IweQ+aGsBPw==

> <OMEGA_NBR>
     39808

$$$$
270460
  -OEChem-04172616093D

 46 49  0     1  0  0  0  0  0999 V2000
    4.5958    0.2794  -20.6313 C   0  0  0  0  0  0  0  0  0  0  0  0
    4.6047   -1.1127  -20.8054 C   0  0  0  0  0  0  0  0  0  0  0  0
    7.6680    7.1798  -22.9086 C   0  0  0  0  0  0  0  0  0  0  0  0
    5.8129    7.5140  -21.3863 C   0  0  0  0  0  0  0  0  0  0  0  0
    6.5993   -0.9332  -22.1873 C   0  0  0  0  0  0  0  0  0  0  0  0
    7.7015    8.5644  -23.1229 C   0  0  0  0  0  0  0  0  0  0  0  0
    5.5993    1.0924  -21.2235 C   0  0  0  0  0  0  0  0  0  0  0  0
    6.7124    6.6449  -22.0351 C   0  0  0  0  0  0  0  0  0  0  0  0
    5.6071   -1.7188  -21.5787 C   0  0  0  0  0  0  0  0  0  0  0  0
    6.6050    0.4622  -22.0180 C   0  0  0  0  0  0  0  0  0  0  0  0
    5.8937    8.8986  -21.6590 C   0  0  0  0  0  0  0  0  0  0  0  0
    4.3645    3.1794  -18.9029 C   0  0  0  0  0  0  0  0  0  0  0  0
    6.9168    4.7204  -20.4332 C   0  0  0  0  0  0  0  0  0  0  0  0
    5.3060    3.2648  -22.4257 C   0  0  0  0  0  0  0  0  0  0  0  0
    7.1355    2.6034  -19.0083 C   0  0  0  0  0  0  0  0  0  0  0  0
    6.6458    5.1584  -21.8789 C   0  0  1  0  0  0  0  0  0  0  0  0
    6.8963    3.1761  -20.4113 C   0  0  1  0  0  0  0  0  0  0  0  0
    5.5657    2.6240  -21.0339 C   0  0  2  0  0  0  0  0  0  0  0  0
    4.9715    9.8637  -20.9524 C   0  0  0  0  0  0  0  0  0  0  0  0
    6.8303    9.3941  -22.5056 N   0  0  0  0  0  0  0  0  0  0  0  0
    4.3913    3.0555  -20.2120 N   0  3  0  0  0  0  0  0  0  0  0  0
    3.1460    3.4748  -18.3159 N   0  0  0  0  0  0  0  0  0  0  0  0
    5.3606    4.6924  -22.3189 O   0  0  0  0  0  0  0  0  0  0  0  0
    5.6146   -3.0590  -21.7418 F   0  0  0  0  0  0  0  0  0  0  0  0
    7.5828    1.1643  -22.6392 F   0  0  0  0  0  0  0  0  0  0  0  0
    5.7810    3.0298  -17.8539 S   0  0  0  0  0  0  0  0  0  0  0  0
    3.8171    0.7384  -20.0403 H   0  0  0  0  0  0  0  0  0  0  0  0
    3.8392   -1.7188  -20.3437 H   0  0  0  0  0  0  0  0  0  0  0  0
    8.3712    6.5324  -23.4113 H   0  0  0  0  0  0  0  0  0  0  0  0
    5.0771    7.1302  -20.6951 H   0  0  0  0  0  0  0  0  0  0  0  0
    7.3626   -1.4040  -22.7890 H   0  0  0  0  0  0  0  0  0  0  0  0
    8.4387    8.9775  -23.7954 H   0  0  0  0  0  0  0  0  0  0  0  0
    7.9004    5.0887  -20.1061 H   0  0  0  0  0  0  0  0  0  0  0  0
    6.1366    5.1169  -19.7668 H   0  0  0  0  0  0  0  0  0  0  0  0
    6.0738    2.9218  -23.1348 H   0  0  0  0  0  0  0  0  0  0  0  0
    4.3119    2.9631  -22.7872 H   0  0  0  0  0  0  0  0  0  0  0  0
    7.2099    1.5083  -19.0796 H   0  0  0  0  0  0  0  0  0  0  0  0
    8.0788    3.0101  -18.6148 H   0  0  0  0  0  0  0  0  0  0  0  0
    7.4243    4.7118  -22.5149 H   0  0  0  0  0  0  0  0  0  0  0  0
    7.7197    2.8292  -21.0530 H   0  0  0  0  0  0  0  0  0  0  0  0
    5.2169   10.8930  -21.2529 H   0  0  0  0  0  0  0  0  0  0  0  0
    3.9293    9.6409  -21.2249 H   0  0  0  0  0  0  0  0  0  0  0  0
    5.0962    9.7599  -19.8644 H   0  0  0  0  0  0  0  0  0  0  0  0
    3.5478    3.2698  -20.7046 H   0  0  0  0  0  0  0  0  0  0  0  0
    3.0849    3.5973  -17.3253 H   0  0  0  0  0  0  0  0  0  0  0  0
    2.3270    3.5657  -18.8824 H   0  0  0  0  0  0  0  0  0  0  0  0
  1  2  2  0  0  0  0
  1  7  1  0  0  0  0
  2  9  1  0  0  0  0
  3  6  2  0  0  0  0
  3  8  1  0  0  0  0
  4  8  2  0  0  0  0
  4 11  1  0  0  0  0
  5  9  2  0  0  0  0
  5 10  1  0  0  0  0
  6 20  1  0  0  0  0
  7 10  2  0  0  0  0
  7 18  1  0  0  0  0
  8 16  1  0  0  0  0
  9 24  1  0  0  0  0
 10 25  1  0  0  0  0
 11 19  1  0  0  0  0
 11 20  2  0  0  0  0
 12 21  2  0  0  0  0
 12 22  1  0  0  0  0
 12 26  1  0  0  0  0
 13 16  1  0  0  0  0
 13 17  1  0  0  0  0
 14 18  1  0  0  0  0
 14 23  1  0  0  0  0
 15 17  1  0  0  0  0
 15 26  1  0  0  0  0
 16 23  1  0  0  0  0
 17 18  1  0  0  0  0
 18 21  1  0  0  0  0
  1 27  1  0  0  0  0
  2 28  1  0  0  0  0
  3 29  1  0  0  0  0
  4 30  1  0  0  0  0
  5 31  1  0  0  0  0
  6 32  1  0  0  0  0
 13 33  1  0  0  0  0
 13 34  1  0  0  0  0
 14 35  1  0  0  0  0
 14 36  1  0  0  0  0
 15 37  1  0  0  0  0
 15 38  1  0  0  0  0
 16 39  1  0  0  0  0
 17 40  1  0  0  0  0
 19 41  1  0  0  0  0
 19 42  1  0  0  0  0
 19 43  1  0  0  0  0
 21 44  1  0  0  0  0
 22 45  1  0  0  0  0
 22 46  1  0  0  0  0
M  CHG  1  21   1
M  END
> <OMEGA_C>
LBGTQC8Hjz79DKXBcVmTQK9sjr9fcabBbGD1QE7B5UDQRLfBJgO6QIdy8EAkF6vBdC3TQPHkbr+H
f7HBSnL2QMgHCUG6+7jBlC2zQEDSiz+vyanB7cvWQE6j1EDzR7DBE22zQD4A3L8+oazBbVzTQISk
7D7LJLDBipm8QL9gDkG7Ra3BM6qLQHx6S0AoOZfBxVbdQDcNl0Amd6PBFsupQCvyUEDFZ7PBGlbk
QI2eJkD+EJjBV6rUQMURpUATCK/Bb67cQHxES0BpSqPB1hmyQPfvJ0BuRajBTRafQKfRHUGFnqfB
KJLaQC1OFkGOC7TBeIWMQOyNQ0AXsqHBW1hJQPxiXkDnhpLBxomrQPMnlkAJjbLBJKuzQJbGQ8BE
763BfKbyQLwGlT8tHbXBlP24QIfoQUDJ1I7Bv0t0QG8FPT+XUqDBwbV1QOoA3L/bv6LBofAFQZ0J
0UBbSrvBhXeiQP8q5ECQj6XBkZrrQLW1s7/jT7bB3gQHQbGjD0EDXb7B6M/8QHPWokA82aDBUV/E
QAO+o0B/Ip7BV1zCQGP+OkAsFLnBTfuJQMyiPUAuTLbBOLfmQLUOwT8Bo5jBnkIBQQ6mQEAO65TB
P5TtQB/HlkBvHrTBqAf3QNgRNUCIbKjBNfGmQKNJLkHxBarBwHl7QE9BGkGtzKnBwhOjQGQoHEFd
6p7Bpg9jQHhEUUDzoqXBS25FQGo5ZkAumorBEu4UQO00ZEA4D5fBqa3TQB3yCj90HbDBP8fWQPCg
Vr8R77HBULT1QKFU5UARVrfB0hi6QFaP70DzNKvBNziXQCEmmb+yFafBtA73QHHgCEEE3LjBkFyy
QALEij9RtKnB8O3WQPnt00AGcrDBm6W4QGml2r9kXq3BL4uTQM82Pj51QqXB6OW8QOL9DUE+OK3B
LKSLQIa8TUBaHZfBncXdQLxGlkAPsaPByH2pQFRxT0AoZLPBgRvkQPjhJUAdKZjBet3UQFNOpEDm
P6/BWiPcQOm8SUBPaqPBJ++wQNmaJ0CSJ6jBdi2fQPdRHUG6jafBCzPbQJ8QFkHN2rPBuh6MQGVq
RkCTmKHB3XdJQPKKX0AxTpLBcKerQMx2lUDLubLBbqW7QGR7QsCeCq/Bx6ZjQGA5GD9aUp/Bpja5
QCmDQkD7047BiwPrQAJXmj/epbPBDE7wQAyZnb9z1rbBDxEGQTrB0EC9bbvBjliiQF0M40Dzw6XB
PhaAQEmS77/OnaPBa24HQd2ZD0HjJL7BeJj9QFZ6oUBxLqHBNFDFQJaYo0BZT57Bp0TCQFhDOEAM
7rjBT8CJQD5pPEBCXLbBMjfmQM1vvz97ppjBqEEBQdC5P0ChH5XBy7LtQIgYlkAqYLTBiPP1QCgX
MkDwnajBUTOnQCnXLUHG1KnB+tV7QN3XGUH32anBLcOiQMNvG0Gm2Z7BaPNiQFvyVkDbg6XBkeJF
QAe2ZUD0WorB3NkUQB88ZkA+yJbB

> <OMEGA_E>
KDRcPphOez4=

> <OMEGA_NBR>
     41684

$$$$
270454
  -OEChem-04172616093D

 51 54  0     1  0  0  0  0  0999 V2000
    4.6743    0.3445  -20.5970 C   0  0  0  0  0  0  0  0  0  0  0  0
    4.6916   -1.0503  -20.7582 C   0  0  0  0  0  0  0  0  0  0  0  0
    6.6010   -0.8582  -22.2548 C   0  0  0  0  0  0  0  0  0  0  0  0
    7.3479    7.7749  -21.1738 C   0  0  0  0  0  0  0  0  0  0  0  0
    5.6250    1.1675  -21.2616 C   0  0  0  0  0  0  0  0  0  0  0  0
    5.6523   -1.6518  -21.5872 C   0  0  0  0  0  0  0  0  0  0  0  0
    6.5978    0.5403  -22.0978 C   0  0  0  0  0  0  0  0  0  0  0  0
    6.5818    6.8004  -21.9826 C   0  0  0  0  0  0  0  0  0  0  0  0
    6.9575    9.0245  -21.5919 C   0  0  0  0  0  0  0  0  0  0  0  0
    4.3857    3.2340  -18.9347 C   0  0  0  0  0  0  0  0  0  0  0  0
    6.9504    4.8057  -20.4831 C   0  0  0  0  0  0  0  0  0  0  0  0
    5.3487    3.3558  -22.4750 C   0  0  0  0  0  0  0  0  0  0  0  0
    7.1662    2.6782  -19.0543 C   0  0  0  0  0  0  0  0  0  0  0  0
    6.6576    5.3001  -21.9188 C   0  0  1  0  0  0  0  0  0  0  0  0
    6.9222    3.2556  -20.4624 C   0  0  1  0  0  0  0  0  0  0  0  0
    5.5900    2.7052  -21.0794 C   0  0  2  0  0  0  0  0  0  0  0  0
    8.5980   11.7789  -19.7642 C   0  0  0  0  0  0  0  0  0  0  0  0
    5.3874    9.8267  -23.3812 C   0  0  0  0  0  0  0  0  0  0  0  0
    8.2935   10.3118  -20.0926 C   0  0  0  0  0  0  0  0  0  0  0  0
    5.8264    7.4568  -22.8351 N   0  0  0  0  0  0  0  0  0  0  0  0
    6.0430    8.7628  -22.5865 N   0  0  0  0  0  0  0  0  0  0  0  0
    4.4117    3.1294  -20.2485 N   0  3  0  0  0  0  0  0  0  0  0  0
    3.1711    3.5224  -18.3325 N   0  0  0  0  0  0  0  0  0  0  0  0
    5.3853    4.7836  -22.3696 O   0  0  0  0  0  0  0  0  0  0  0  0
    7.3415   10.2726  -21.1758 O   0  0  0  0  0  0  0  0  0  0  0  0
    5.6639   -2.9942  -21.7424 F   0  0  0  0  0  0  0  0  0  0  0  0
    7.5401    1.2502  -22.7639 F   0  0  0  0  0  0  0  0  0  0  0  0
    5.8023    3.0641  -17.8893 S   0  0  0  0  0  0  0  0  0  0  0  0
    3.9294    0.7982  -19.9601 H   0  0  0  0  0  0  0  0  0  0  0  0
    3.9649   -1.6615  -20.2438 H   0  0  0  0  0  0  0  0  0  0  0  0
    7.3372   -1.3247  -22.8925 H   0  0  0  0  0  0  0  0  0  0  0  0
    8.0720    7.5482  -20.4053 H   0  0  0  0  0  0  0  0  0  0  0  0
    7.9427    5.1600  -20.1671 H   0  0  0  0  0  0  0  0  0  0  0  0
    6.1855    5.1968  -19.7961 H   0  0  0  0  0  0  0  0  0  0  0  0
    6.1327    3.0230  -23.1712 H   0  0  0  0  0  0  0  0  0  0  0  0
    4.3645    3.0449  -22.8554 H   0  0  0  0  0  0  0  0  0  0  0  0
    7.2637    1.5854  -19.1334 H   0  0  0  0  0  0  0  0  0  0  0  0
    8.1001    3.1018  -18.6564 H   0  0  0  0  0  0  0  0  0  0  0  0
    7.4622    4.9501  -22.5822 H   0  0  0  0  0  0  0  0  0  0  0  0
    7.7432    2.9067  -21.1061 H   0  0  0  0  0  0  0  0  0  0  0  0
    9.3235   11.8275  -18.9388 H   0  0  0  0  0  0  0  0  0  0  0  0
    9.0190   12.2735  -20.6519 H   0  0  0  0  0  0  0  0  0  0  0  0
    7.6695   12.2882  -19.4664 H   0  0  0  0  0  0  0  0  0  0  0  0
    4.7446    9.3692  -24.1477 H   0  0  0  0  0  0  0  0  0  0  0  0
    4.7757   10.4557  -22.7176 H   0  0  0  0  0  0  0  0  0  0  0  0
    6.1549   10.4460  -23.8684 H   0  0  0  0  0  0  0  0  0  0  0  0
    9.2191    9.7993  -20.3935 H   0  0  0  0  0  0  0  0  0  0  0  0
    7.8697    9.8139  -19.2080 H   0  0  0  0  0  0  0  0  0  0  0  0
    3.5689    3.3532  -20.7379 H   0  0  0  0  0  0  0  0  0  0  0  0
    3.1177    3.6271  -17.3394 H   0  0  0  0  0  0  0  0  0  0  0  0
    2.3481    3.6257  -18.8911 H   0  0  0  0  0  0  0  0  0  0  0  0
  1  2  2  0  0  0  0
  1  5  1  0  0  0  0
  2  6  1  0  0  0  0
  3  6  2  0  0  0  0
  3  7  1  0  0  0  0
  4  8  1  0  0  0  0
  4  9  2  0  0  0  0
  5  7  2  0  0  0  0
  5 16  1  0  0  0  0
  6 26  1  0  0  0  0
  7 27  1  0  0  0  0
  8 14  1  0  0  0  0
  8 20  2  0  0  0  0
  9 21  1  0  0  0  0
  9 25  1  0  0  0  0
 10 22  2  0  0  0  0
 10 23  1  0  0  0  0
 10 28  1  0  0  0  0
 11 14  1  0  0  0  0
 11 15  1  0  0  0  0
 12 16  1  0  0  0  0
 12 24  1  0  0  0  0
 13 15  1  0  0  0  0
 13 28  1  0  0  0  0
 14 24  1  0  0  0  0
 15 16  1  0  0  0  0
 16 22  1  0  0  0  0
 17 19  1  0  0  0  0
 18 21  1  0  0  0  0
 19 25  1  0  0  0  0
 20 21  1  0  0  0  0
  1 29  1  0  0  0  0
  2 30  1  0  0  0  0
  3 31  1  0  0  0  0
  4 32  1  0  0  0  0
 11 33  1  0  0  0  0
 11 34  1  0  0  0  0
 12 35  1  0  0  0  0
 12 36  1  0  0  0  0
 13 37  1  0  0  0  0
 13 38  1  0  0  0  0
 14 39  1  0  0  0  0
 15 40  1  0  0  0  0
 17 41  1  0  0  0  0
 17 42  1  0  0  0  0
 17 43  1  0  0  0  0
 18 44  1  0  0  0  0
 18 45  1  0  0  0  0
 18 46  1  0  0  0  0
 19 47  1  0  0  0  0
 19 48  1  0  0  0  0
 22 49  1  0  0  0  0
 23 50  1  0  0  0  0
 23 51  1  0  0  0  0
M  CHG  1  22   1
M  END
> <OMEGA_C>
uJOVQF1dsD6uxqTB3SGWQPNvhr/WEKbBKDvTQG6xW7/NCbLBrSHrQOTL+ED8Y6nBIwC0QD9ylT/Q
F6rB7d+0QMxt07+VsqzBMSHTQFZUCj9JyLDBXZ7SQACd2UBu3K/BxaPeQFhkEEEpvKzBdleMQAr6
TkA7epfBm2neQGvImUBj3aPB8CirQGrFVkDhzLPBRlHlQGBnK0Avb5jBYQvVQMOaqUDGWa/B6ILd
QHdcUEAUs6PB/OCyQG8hLUCQoqjBN5EJQXV2PEH8HJ7BdWWsQFs6HUGtDLvBS7IEQUP9JEGPvaDB
5XG6QDWe7kBPrrbBQGDBQIw0DEEisbTBBi2NQNJHSEDy/KHBr/JKQLduYUDvqJLBEVSsQC0TmUAH
9bLBO+3qQKJcJEEUaKnB4D61QIGhP8B/8K3BV0jxQFoGoD9yHLbBV6y5QKIZREBdHY/Brnp7QOZT
TD9Irp/Bk8B9QCes1L9E86HBq8rqQAWQqb/OI7fBGicBQUOL8UAaPqPBdSr+QHMepUAyVqHBqe/F
QHpMpkBnXp7BMj/EQBR4QUCSXrnBSqqLQALfQkDK17bBI3DoQJbtyj81EZnBGZoBQfSDRkBkQJXB
jcruQBxnnkBsqLTBHMj3QLMGOkA62ajBMS0VQYk9PUG1gpfBpk0QQVNgREEhN6XBhmz1QE6cREE6
u5vB9dOXQGXoFUF/LsHBidKYQG5KJ0G7vbXBK/XEQNUiJ0GJ8r7BlYETQe7JHEHfJaPBY9T7QOoF
HUH4qZnB+mhkQEuaVkBN56XBkIhHQPYhaEAft4rBGkcWQD8MaEDxIJfB

> <OMEGA_E>
VocHPw==

> <OMEGA_NBR>
     42840

$$$$
270459
  -OEChem-04172616093D

 47 50  0     1  0  0  0  0  0999 V2000
    4.6881    0.3300  -20.7225 C   0  0  0  0  0  0  0  0  0  0  0  0
    4.7527   -1.0526  -20.9501 C   0  0  0  0  0  0  0  0  0  0  0  0
    5.5603    7.3690  -21.0902 C   0  0  0  0  0  0  0  0  0  0  0  0
    6.7236   -0.7416  -22.3444 C   0  0  0  0  0  0  0  0  0  0  0  0
    7.3403    7.4958  -22.7424 C   0  0  0  0  0  0  0  0  0  0  0  0
    6.2851    9.4667  -22.0447 C   0  0  0  0  0  0  0  0  0  0  0  0
    5.6506    1.2000  -21.2963 C   0  0  0  0  0  0  0  0  0  0  0  0
    6.5289    6.7378  -21.8805 C   0  0  0  0  0  0  0  0  0  0  0  0
    5.4330    8.7505  -21.1596 C   0  0  0  0  0  0  0  0  0  0  0  0
    5.7722   -1.5870  -21.7549 C   0  0  0  0  0  0  0  0  0  0  0  0
    6.6710    0.6428  -22.1282 C   0  0  0  0  0  0  0  0  0  0  0  0
    4.3603    3.2187  -18.8908 C   0  0  0  0  0  0  0  0  0  0  0  0
    6.9513    4.7783  -20.4362 C   0  0  0  0  0  0  0  0  0  0  0  0
    5.2848    3.3734  -22.4199 C   0  0  0  0  0  0  0  0  0  0  0  0
    7.1305    2.6778  -19.0076 C   0  0  0  0  0  0  0  0  0  0  0  0
    6.6222    5.2607  -21.8634 C   0  0  1  0  0  0  0  0  0  0  0  0
    6.9046    3.2490  -20.4152 C   0  0  1  0  0  0  0  0  0  0  0  0
    5.5698    2.7126  -21.0438 C   0  0  2  0  0  0  0  0  0  0  0  0
    4.2759   10.7467  -20.5044 C   0  0  0  0  0  0  0  0  0  0  0  0
    7.2084    8.8369  -22.8123 N   0  0  0  0  0  0  0  0  0  0  0  0
    4.3833    3.0911  -20.2010 N   0  3  0  0  0  0  0  0  0  0  0  0
    3.1333    3.4485  -18.2894 N   0  0  0  0  0  0  0  0  0  0  0  0
    5.3370    4.7843  -22.2926 O   0  0  0  0  0  0  0  0  0  0  0  0
    4.4636    9.3279  -20.3624 O   0  0  0  0  0  0  0  0  0  0  0  0
    5.8362   -2.9175  -21.9689 F   0  0  0  0  0  0  0  0  0  0  0  0
    7.6102    1.4023  -22.7438 F   0  0  0  0  0  0  0  0  0  0  0  0
    5.7890    3.1442  -17.8549 S   0  0  0  0  0  0  0  0  0  0  0  0
    3.8996    0.7353  -20.1058 H   0  0  0  0  0  0  0  0  0  0  0  0
    4.0174   -1.7071  -20.5059 H   0  0  0  0  0  0  0  0  0  0  0  0
    4.9227    6.7912  -20.4375 H   0  0  0  0  0  0  0  0  0  0  0  0
    7.5005   -1.1590  -22.9678 H   0  0  0  0  0  0  0  0  0  0  0  0
    8.0777    6.9992  -23.3557 H   0  0  0  0  0  0  0  0  0  0  0  0
    6.1944   10.5411  -22.1070 H   0  0  0  0  0  0  0  0  0  0  0  0
    7.9564    5.1224  -20.1512 H   0  0  0  0  0  0  0  0  0  0  0  0
    6.2115    5.1814  -19.7289 H   0  0  0  0  0  0  0  0  0  0  0  0
    6.0412    3.0438  -23.1474 H   0  0  0  0  0  0  0  0  0  0  0  0
    4.2855    3.0746  -22.7691 H   0  0  0  0  0  0  0  0  0  0  0  0
    7.1771    1.5807  -19.0729 H   0  0  0  0  0  0  0  0  0  0  0  0
    8.0841    3.0627  -18.6171 H   0  0  0  0  0  0  0  0  0  0  0  0
    7.4118    4.9240  -22.5512 H   0  0  0  0  0  0  0  0  0  0  0  0
    7.7259    2.8867  -21.0509 H   0  0  0  0  0  0  0  0  0  0  0  0
    3.4822   11.0823  -19.8207 H   0  0  0  0  0  0  0  0  0  0  0  0
    5.2139   11.2668  -20.2605 H   0  0  0  0  0  0  0  0  0  0  0  0
    3.9880   10.9764  -21.5409 H   0  0  0  0  0  0  0  0  0  0  0  0
    3.5250    3.2632  -20.6845 H   0  0  0  0  0  0  0  0  0  0  0  0
    3.0766    3.5663  -17.2979 H   0  0  0  0  0  0  0  0  0  0  0  0
    2.3044    3.4965  -18.8468 H   0  0  0  0  0  0  0  0  0  0  0  0
  1  2  2  0  0  0  0
  1  7  1  0  0  0  0
  2 10  1  0  0  0  0
  3  8  2  0  0  0  0
  3  9  1  0  0  0  0
  4 10  2  0  0  0  0
  4 11  1  0  0  0  0
  5  8  1  0  0  0  0
  5 20  2  0  0  0  0
  6  9  2  0  0  0  0
  6 20  1  0  0  0  0
  7 11  2  0  0  0  0
  7 18  1  0  0  0  0
  8 16  1  0  0  0  0
  9 24  1  0  0  0  0
 10 25  1  0  0  0  0
 11 26  1  0  0  0  0
 12 21  2  0  0  0  0
 12 22  1  0  0  0  0
 12 27  1  0  0  0  0
 13 16  1  0  0  0  0
 13 17  1  0  0  0  0
 14 18  1  0  0  0  0
 14 23  1  0  0  0  0
 15 17  1  0  0  0  0
 15 27  1  0  0  0  0
 16 23  1  0  0  0  0
 17 18  1  0  0  0  0
 18 21  1  0  0  0  0
 19 24  1  0  0  0  0
  1 28  1  0  0  0  0
  2 29  1  0  0  0  0
  3 30  1  0  0  0  0
  4 31  1  0  0  0  0
  5 32  1  0  0  0  0
  6 33  1  0  0  0  0
 13 34  1  0  0  0  0
 13 35  1  0  0  0  0
 14 36  1  0  0  0  0
 14 37  1  0  0  0  0
 15 38  1  0  0  0  0
 15 39  1  0  0  0  0
 16 40  1  0  0  0  0
 17 41  1  0  0  0  0
 19 42  1  0  0  0  0
 19 43  1  0  0  0  0
 19 44  1  0  0  0  0
 21 45  1  0  0  0  0
 22 46  1  0  0  0  0
 22 47  1  0  0  0  0
M  CHG  1  21   1
M  END
> <OMEGA_C>
LgWWQDj1qD7Ax6XB7xWYQKK6hr/WmafBoe2xQAzP60CnuKjBEyjXQJ3ZPb9awbLBBOTqQKzd70B9
8LXBxx/JQL53F0F1W7DByNG0QCKYmT/UXqrBDe3QQFyc10ArC6/B9dqtQPUBDEHXRqnB0bW4QOIh
y78KCq7BCXnVQMaOJD+nBrHBhoeLQNr+TUBbIJfBrHDeQLDnmEBdfaPBUB2pQFzmV0D0W7PB0Szk
QBNhK0CcD5jBwujTQK9XqEBA6K7Bk/LcQDDvT0A8UqPBhjuyQLybLUDAWajBx9OIQGXyK0EMCaTB
z6rmQCVkDUGgf7bBxkOMQGTURUCNm6HBLodIQP6zXECgUJLBtMiqQCAZmUAmV7LBu9WOQCY/FUFA
5qLB9sG6QIO4OsBRwK/ByobzQB59sz8887XBqj+5QDo7SUDf1o7B0JN5QHQ9PD+Z2KDBb46AQCyC
2r8MDKTBq4adQGRR2UDwf6PBJwTwQOpalL8YvrfBQD4BQYP530Bv2LrBwjjGQGaoKEER27DBJpv+
QHXqo0DANaHBkcTGQBLOpUDZ1J3BXFHBQF7NQkDhLbnBbSKJQJjFREAPJ7bBaKrlQEJVyj9MlZjB
R1gBQTADREC975TBti3tQDyRnUDTaLTB7Tr3QEi/OEA2aKjBjtxeQBVRMUHBkJ7BodimQK9ENEGI
FaLB+jt/QFmfL0HbU6zB8plhQNbYUEDBeaXBGudEQDA+ZEAzYorBKXsTQPDGX0AqxpbBFRTWQAgG
Mj9MebDBwrfZQAuRK7/uwbLBdPCwQLIt60Bm3qjBlTKZQKe+jL/Wa6jBHffqQHIS8EAGx7XBezzI
QFhcF0GkRrDBVAu0QLK0mD9jEKrBJqXQQBpk10B0EK/BKIOsQHO0C0E7Y6nBrFy7QBq3yL9XsK7B
WAKVQPQsij6sH6bBAZ2LQJXgT0ACEJfBfd/eQF6UmEDmjaPB2VyqQPHTVUCSW7PBt0zkQPYAK0BE
DZjBzE7UQNAZqEB2+K7Bo+7cQB0cT0DZVqPBf8yxQNekLUBGK6jBifGHQFeiK0HE4KPB63fmQMR7
DUGESLbBEo+MQL3PSkAVkaHB/GZIQFWtXEAFPpLBoZqrQOY4mEByjbLB08uMQHjIFEGUKKPBz+C+
QLysOMAf2LDBHlFlQMAnJT9oRKDBBU25QBmdSECWxo7BMIntQB4FsT/4orPBTM/zQFPpg7+IorfB
n0mcQDtk2ECyxqPBiuuBQJU55r9zVqXBzIoBQRGD4EAAl7rBSx7FQMSLKEGlu7DBti3/QKVNo0AQ
UKHBa2rHQHnApUAb4Z3BR47DQBEXQEDK3rjB4euKQA3NQUD5a7bBPfzlQNiWyT8ii5jBymIBQa8S
RECq9JTBi/LtQILknUDjbrTBqtz2QIsaN0CIeqjB07FbQAfWMEFwk57Bke+lQH9xM0Edb6HBjliA
QEUYMEESLazBgBFkQLT5W0B/fqXBDVlEQMGLYUAVSIrBzZETQLoLYUBluZbB662TQAtrpj5bmaTB
uOKSQAQcib9Sw6XBrRT6QIV/70B366zBdKTQQMy4dL/JlrHB6davQCCL7kAYtLLBUbLRQDVKGEEB
K7DB3COzQMQdjj/256nB31/VQEcW2EBQtK/BrlL4QLZXDkFADK3B3kSxQEgY2786Q6zBQefRQFAo
4z7xc7DBdcKMQPZQT0AqnJfBcuzfQMNSl0Cj9qPBTcmsQLQ6UkB44rPBlFDlQHsFJ0DCXJjB/LfW
QESGp0Bleq/BajDeQNp0S0BisKPBG12zQNeiKUA1oajBT80gQejSEEFczabBP5muQPTdDEFu7bLB
BdSNQA+gR0BBHKLBhiJMQEDFZEAN5pLB+y6uQLHKlkCIKbPBwU8NQa5XG0EVRKrBrlCwQLOKQ8AC
ZK3B/vfwQPHmjj9ywrXB3aC5QN0MQkDGI4/BujF4QLshTz8MnJ/Bf7x1QPql078bp6HBkp8LQaAy
30ATtqrBfu7nQKjsub/2lbbBmYqTQH6u3EC+3LTBHyDQQECMKUFxW7DBDOf/QL4cokCtdqHB67vH
QK1XpEAMdp7BDEvGQJUWPEDeR7nBh4GNQP9xPkDiErfBIMnnQH3dwT9U6ZjBka4BQdU4QUD3J5XB
+J/wQNBxnECywLTBvl74QKDJM0DfxajB9vUsQcLxHEFX3aTBZnUdQZQYB0FgqZ/BCcUmQUZyBkHI
QK3B4m5mQLssV0AAG6bB0WxIQMQ4bEBy94rBxwMYQDfMbEB+bpfBN1/YQB1j0T5jHazB7OzXQMq3
fL/LXK3BqhD5QOAl8ECeAa3B9PKKQO9ygL/SeKrBCqquQLdb7kCGo7LBz9rPQOhlGEF+F7DB/UOy
QHu1jz+WoanBxJjUQNpZ2EATxa/Bh8z2QHOlDkHmDq3BN0uxQNT52L/lb6zBRfyKQDM0yj6sN6nB
+OaMQBOcTkB8dpfB/DzfQGM8mEDA7qPB/HuuQBz6T0AU4rPBkODlQNW9KUC5PJjB5bHWQKjXp0BF
h6/BLzjeQF1tTUDhmaPBjm6zQLWWKkC9d6jBCxQgQZxmEUGD4abBR+2sQNXIDEET0LLB2JWOQP2G
S0Bz+qHBaO9LQCtMYkDzwJLBoAyvQCT3lUDbgLPBgHQMQZLHG0E6R6rBKNywQHJ3QsCxnq3Bdl9J
QBWRgD+byqfBLcC5QL+wQUA4/47B6RP2QL/Acj8IDq3B8E31QIASwr+xCK/B/TwLQTIk4EA53qrB
Xm1aQM5Xxr+F66nBRnySQAEx3EAyvLTBl+HNQKulKUHIPrDBA9j+QPeWo0DOS6HBoWvGQLQKpUBo
k57BUQ7JQLphOUCd6rjB2e6PQAldOkCiUbfBWZjpQES6xz9hxJjBfLcBQY4eRkDFCJXBNHDxQN9I
nUDnmrTBRmz4QE01NkDMtajBRiQsQc+cHUH876TBbOIcQdORB0E2wp/BHxYmQRUlB0HwXq3B2yJq
QHAGYUAb/aXBOdlHQNu8aECMz4rBuNgXQG4PakCtTJfB

> <OMEGA_E>
gEKWPvwSoj5KEQE/VHkPPw==

> <OMEGA_NBR>
     46368

$$$$
270462
  -OEChem-04172616093D

 43 46  0     1  0  0  0  0  0999 V2000
    4.5758    0.3460  -20.6424 C   0  0  0  0  0  0  0  0  0  0  0  0
    4.5605   -1.0522  -20.7731 C   0  0  0  0  0  0  0  0  0  0  0  0
    5.5016    7.4186  -21.0306 C   0  0  0  0  0  0  0  0  0  0  0  0
    6.5815   -0.9520  -22.1216 C   0  0  0  0  0  0  0  0  0  0  0  0
    7.2697    7.6181  -22.6884 C   0  0  0  0  0  0  0  0  0  0  0  0
    6.1968    9.5631  -21.9297 C   0  0  0  0  0  0  0  0  0  0  0  0
    5.6051    1.1255  -21.2403 C   0  0  0  0  0  0  0  0  0  0  0  0
    6.4759    6.8081  -21.8477 C   0  0  0  0  0  0  0  0  0  0  0  0
    5.5633   -1.7016  -21.5099 C   0  0  0  0  0  0  0  0  0  0  0  0
    5.3705    8.8156  -21.0674 C   0  0  0  0  0  0  0  0  0  0  0  0
    6.6097    0.4494  -21.9965 C   0  0  0  0  0  0  0  0  0  0  0  0
    4.4044    3.2053  -18.9526 C   0  0  0  0  0  0  0  0  0  0  0  0
    6.9742    4.7583  -20.4677 C   0  0  0  0  0  0  0  0  0  0  0  0
    5.4106    3.3091  -22.4809 C   0  0  0  0  0  0  0  0  0  0  0  0
    7.1824    2.6180  -19.0721 C   0  0  0  0  0  0  0  0  0  0  0  0
    6.6315    5.3027  -21.8781 C   0  0  1  0  0  0  0  0  0  0  0  0
    6.9453    3.2096  -20.4715 C   0  0  1  0  0  0  0  0  0  0  0  0
    5.6103    2.6693  -21.0826 C   0  0  2  0  0  0  0  0  0  0  0  0
    7.1207    8.9641  -22.7197 N   0  0  0  0  0  0  0  0  0  0  0  0
    4.4415    3.1365  -20.2665 N   0  3  0  0  0  0  0  0  0  0  0  0
    3.1839    3.4769  -18.3552 N   0  0  0  0  0  0  0  0  0  0  0  0
    5.3928    4.7424  -22.3646 O   0  0  0  0  0  0  0  0  0  0  0  0
    5.5462   -3.0467  -21.6351 F   0  0  0  0  0  0  0  0  0  0  0  0
    4.4552    9.4401  -20.2925 F   0  0  0  0  0  0  0  0  0  0  0  0
    7.6092    1.1136  -22.6226 F   0  0  0  0  0  0  0  0  0  0  0  0
    5.8179    3.0085  -17.9061 S   0  0  0  0  0  0  0  0  0  0  0  0
    3.7952    0.8366  -20.0800 H   0  0  0  0  0  0  0  0  0  0  0  0
    3.7758   -1.6288  -20.3059 H   0  0  0  0  0  0  0  0  0  0  0  0
    4.8690    6.8229  -20.3893 H   0  0  0  0  0  0  0  0  0  0  0  0
    7.3483   -1.4548  -22.6923 H   0  0  0  0  0  0  0  0  0  0  0  0
    8.0123    7.1543  -23.3206 H   0  0  0  0  0  0  0  0  0  0  0  0
    6.0916   10.6374  -21.9617 H   0  0  0  0  0  0  0  0  0  0  0  0
    7.9784    5.1023  -20.1794 H   0  0  0  0  0  0  0  0  0  0  0  0
    6.2361    5.1339  -19.7438 H   0  0  0  0  0  0  0  0  0  0  0  0
    6.2365    3.0069  -23.1416 H   0  0  0  0  0  0  0  0  0  0  0  0
    4.4561    2.9656  -22.9063 H   0  0  0  0  0  0  0  0  0  0  0  0
    7.2693    1.5250  -19.1607 H   0  0  0  0  0  0  0  0  0  0  0  0
    8.1198    3.0289  -18.6691 H   0  0  0  0  0  0  0  0  0  0  0  0
    7.4535    5.0426  -22.5612 H   0  0  0  0  0  0  0  0  0  0  0  0
    7.7642    2.8660  -21.1206 H   0  0  0  0  0  0  0  0  0  0  0  0
    3.6208    3.4197  -20.7629 H   0  0  0  0  0  0  0  0  0  0  0  0
    3.1208    3.5562  -17.3603 H   0  0  0  0  0  0  0  0  0  0  0  0
    2.3662    3.5936  -18.9189 H   0  0  0  0  0  0  0  0  0  0  0  0
  1  2  1  0  0  0  0
  1  7  2  0  0  0  0
  2  9  2  0  0  0  0
  3  8  1  0  0  0  0
  3 10  2  0  0  0  0
  4  9  1  0  0  0  0
  4 11  2  0  0  0  0
  5  8  2  0  0  0  0
  5 19  1  0  0  0  0
  6 10  1  0  0  0  0
  6 19  2  0  0  0  0
  7 11  1  0  0  0  0
  7 18  1  0  0  0  0
  8 16  1  0  0  0  0
  9 23  1  0  0  0  0
 10 24  1  0  0  0  0
 11 25  1  0  0  0  0
 12 20  2  0  0  0  0
 12 21  1  0  0  0  0
 12 26  1  0  0  0  0
 13 16  1  0  0  0  0
 13 17  1  0  0  0  0
 14 18  1  0  0  0  0
 14 22  1  0  0  0  0
 15 17  1  0  0  0  0
 15 26  1  0  0  0  0
 16 22  1  0  0  0  0
 17 18  1  0  0  0  0
 18 20  1  0  0  0  0
  1 27  1  0  0  0  0
  2 28  1  0  0  0  0
  3 29  1  0  0  0  0
  4 30  1  0  0  0  0
  5 31  1  0  0  0  0
  6 32  1  0  0  0  0
 13 33  1  0  0  0  0
 13 34  1  0  0  0  0
 14 35  1  0  0  0  0
 14 36  1  0  0  0  0
 15 37  1  0  0  0  0
 15 38  1  0  0  0  0
 16 39  1  0  0  0  0
 17 40  1  0  0  0  0
 20 41  1  0  0  0  0
 21 42  1  0  0  0  0
 21 43  1  0  0  0  0
M  CHG  1  20   1
M  END
> <OMEGA_C>
Em2SQDgisT6aI6XBye+RQAOwhr9PL6bBWg2wQFVl7UC5PqjBXZvSQPa0c78j+bDBCaHoQK7H80DH
gbXBVkzGQEsCGUH2b6/BQl2zQHMQkD887KnB3DrPQEDc2UAxyK7B0gayQLzM2b80FKzB39qrQIsM
DUEZiqjByYLTQAsc5j7p+K/BLPGMQNQjTUDnnpfBxizfQJ9DmEDtvaPByyOtQDPIU0DN2LPBGdbl
QCWNJ0Cek5jBETXUQPqvqUBYBq/BpD/eQCtqTUCSxaPBRYezQH3WKkAfqajB7dzjQAFtD0EBwrXB
XiCOQLq8SEDWIaLBKsVLQJ+FXkBt15LBuZGsQBvCl0C/6rLBPXqxQJX9QsClFK3B2ZCOQIIKF0ET
V6LBiX7zQISKjj8A+7TBVCy6QLuKQEDEP4/BC+RyQK0oVj/Ho6DBbKdxQHB90L+ScqLBE8+bQPpU
2kBJHaPBByXrQHA2ur+/ibXBSDIAQebv5ECtkLrBZ+7CQPoyKkGPsa/BcU//QF1Go0B2b6HBw43H
QJBIpEBd853BL5HHQKlwQEAUIrnBsZiOQCHNPUAhQLfBNZ7oQOIzwz83SZnBveoBQR/ZQUBHWpXB
54LuQFxdoUBmfbTB83P4QBFsN0Dy9qjBVrtnQHHcWkBXGqbBRrtHQOqYY0D44YrBo3AXQGb9ZUD+
WZfB9k3TQGiTCj9TRLDBHLLVQHjOWL/S4LHBOG2vQOq77EAAdqjBkIKWQKKQk79A0abB4EfpQA8r
80AaYLXBE2HGQMixGEFsga/BkHWyQDrEjj+M5KnBGC7PQEk02UCx1a7BW2+3QAbn2L/2GK3BGiur
QBC6DEHXzKjBOnKTQCTfcT78OKXBELyMQD40UEBUdZfBlnTfQPNwl0B96KPBU0qsQHqbUkDpvbPB
OBflQNngJkDklJjB1gjUQDX7qEAXIq/BoXLdQOKfS0AC1aPBGRyyQNdJKkDXfqjBzpzkQFYfD0Gg
oLXBc2ONQE+CSkAO96HBVEpLQBiKX0BTl5LBCi+sQLo4l0Cc77LB0d65QDgAQsDziq7BSBWNQG+7
FkGb2KLBjCxkQFG4Kj/cQp/BMHy6QMCLRUCWNo/B/N7qQMKMlz8X8bPBgNHuQG6Gob+my7bBStCa
QJer2UBTbKPBzIp+QHyZ5789K6PB0cMAQfBY5ECtSrrByRDDQPfiKUGxxa/BdwAAQbTFoUD3xaHB
EJHIQGIbpEAgBZ7BDcbGQM9IPkDY87jBRryNQPkFPUCzLbfB20zmQIdKwT9nG5nBe+oBQTYQP0DZ
ipXBfRPuQCKvoEC5rbTB/iz3QMcCNED8D6nB71RmQAVHXUCQ56XB5KlHQD5MZEBLoIrBEn4WQGHZ
ZUASC5fB

> <OMEGA_E>
IPg6PhAnVj4=

> <OMEGA_NBR>
     48160

$$$$
286498
  -OEChem-04172616093D

 44 47  0     1  0  0  0  0  0999 V2000
    4.6117    0.3622  -20.6810 C   0  0  0  0  0  0  0  0  0  0  0  0
    4.6088   -1.0302  -20.8536 C   0  0  0  0  0  0  0  0  0  0  0  0
    7.3557    7.6489  -22.7461 C   0  0  0  0  0  0  0  0  0  0  0  0
    6.6375   -0.8744  -22.1874 C   0  0  0  0  0  0  0  0  0  0  0  0
    6.9420    8.9279  -22.5068 C   0  0  0  0  0  0  0  0  0  0  0  0
    5.6350    1.1645  -21.2551 C   0  0  0  0  0  0  0  0  0  0  0  0
    5.6213   -1.6481  -21.6040 C   0  0  0  0  0  0  0  0  0  0  0  0
    6.6518    0.5215  -22.0242 C   0  0  0  0  0  0  0  0  0  0  0  0
    6.5287    6.7733  -21.8985 C   0  0  0  0  0  0  0  0  0  0  0  0
    4.4019    3.2581  -18.9494 C   0  0  0  0  0  0  0  0  0  0  0  0
    6.9382    4.7969  -20.4646 C   0  0  0  0  0  0  0  0  0  0  0  0
    5.3830    3.3305  -22.4779 C   0  0  0  0  0  0  0  0  0  0  0  0
    7.1761    2.6764  -19.0577 C   0  0  0  0  0  0  0  0  0  0  0  0
    6.6355    5.2875  -21.8912 C   0  0  1  0  0  0  0  0  0  0  0  0
    6.9339    3.2548  -20.4584 C   0  0  1  0  0  0  0  0  0  0  0  0
    5.6079    2.6988  -21.0783 C   0  0  2  0  0  0  0  0  0  0  0  0
    5.1467    9.9278  -21.0927 C   0  0  0  0  0  0  0  0  0  0  0  0
    5.6781    7.5059  -21.2108 N   0  0  0  0  0  0  0  0  0  0  0  0
    5.9441    8.7828  -21.5732 N   0  0  0  0  0  0  0  0  0  0  0  0
    4.4294    3.1377  -20.2602 N   0  3  0  0  0  0  0  0  0  0  0  0
    3.1872    3.5626  -18.3577 N   0  0  0  0  0  0  0  0  0  0  0  0
    5.3864    4.7583  -22.3702 O   0  0  0  0  0  0  0  0  0  0  0  0
    5.6150   -2.9879  -21.7708 F   0  0  0  0  0  0  0  0  0  0  0  0
    7.6471    1.2113  -22.6304 F   0  0  0  0  0  0  0  0  0  0  0  0
    5.8164    3.0856  -17.8995 S   0  0  0  0  0  0  0  0  0  0  0  0
    3.8270    0.8300  -20.1051 H   0  0  0  0  0  0  0  0  0  0  0  0
    3.8267   -1.6273  -20.4085 H   0  0  0  0  0  0  0  0  0  0  0  0
    8.1369    7.3395  -23.4247 H   0  0  0  0  0  0  0  0  0  0  0  0
    7.4131   -1.3551  -22.7651 H   0  0  0  0  0  0  0  0  0  0  0  0
    7.3128    9.8411  -22.9485 H   0  0  0  0  0  0  0  0  0  0  0  0
    7.9254    5.1651  -20.1486 H   0  0  0  0  0  0  0  0  0  0  0  0
    6.1687    5.1716  -19.7737 H   0  0  0  0  0  0  0  0  0  0  0  0
    6.1891    3.0132  -23.1558 H   0  0  0  0  0  0  0  0  0  0  0  0
    4.4145    2.9965  -22.8782 H   0  0  0  0  0  0  0  0  0  0  0  0
    7.2591    1.5822  -19.1350 H   0  0  0  0  0  0  0  0  0  0  0  0
    8.1159    3.0883  -18.6613 H   0  0  0  0  0  0  0  0  0  0  0  0
    7.4569    4.9770  -22.5537 H   0  0  0  0  0  0  0  0  0  0  0  0
    7.7598    2.9197  -21.1031 H   0  0  0  0  0  0  0  0  0  0  0  0
    4.3484    9.5661  -20.4279 H   0  0  0  0  0  0  0  0  0  0  0  0
    5.7974   10.6216  -20.5402 H   0  0  0  0  0  0  0  0  0  0  0  0
    4.6999   10.4496  -21.9518 H   0  0  0  0  0  0  0  0  0  0  0  0
    3.5891    3.3587  -20.7551 H   0  0  0  0  0  0  0  0  0  0  0  0
    3.1291    3.6781  -17.3661 H   0  0  0  0  0  0  0  0  0  0  0  0
    2.3683    3.6670  -18.9220 H   0  0  0  0  0  0  0  0  0  0  0  0
  1  2  2  0  0  0  0
  1  6  1  0  0  0  0
  2  7  1  0  0  0  0
  3  5  2  0  0  0  0
  3  9  1  0  0  0  0
  4  7  2  0  0  0  0
  4  8  1  0  0  0  0
  5 19  1  0  0  0  0
  6  8  2  0  0  0  0
  6 16  1  0  0  0  0
  7 23  1  0  0  0  0
  8 24  1  0  0  0  0
  9 14  1  0  0  0  0
  9 18  2  0  0  0  0
 10 20  2  0  0  0  0
 10 21  1  0  0  0  0
 10 25  1  0  0  0  0
 11 14  1  0  0  0  0
 11 15  1  0  0  0  0
 12 16  1  0  0  0  0
 12 22  1  0  0  0  0
 13 15  1  0  0  0  0
 13 25  1  0  0  0  0
 14 22  1  0  0  0  0
 15 16  1  0  0  0  0
 16 20  1  0  0  0  0
 17 19  1  0  0  0  0
 18 19  1  0  0  0  0
  1 26  1  0  0  0  0
  2 27  1  0  0  0  0
  3 28  1  0  0  0  0
  4 29  1  0  0  0  0
  5 30  1  0  0  0  0
 11 31  1  0  0  0  0
 11 32  1  0  0  0  0
 12 33  1  0  0  0  0
 12 34  1  0  0  0  0
 13 35  1  0  0  0  0
 13 36  1  0  0  0  0
 14 37  1  0  0  0  0
 15 38  1  0  0  0  0
 17 39  1  0  0  0  0
 17 40  1  0  0  0  0
 17 41  1  0  0  0  0
 20 42  1  0  0  0  0
 21 43  1  0  0  0  0
 21 44  1  0  0  0  0
M  CHG  1  20   1
M  END
> <OMEGA_C>
HpOTQHZ0uT63cqXBoXuTQCzeg78s1KbBsWHrQHjD9EAS+LXBkGbUQGDaX7++f7HBMSXeQKvYDkEF
DrTB01G0QCgPlT9kCqrB3+GzQIb00r8T1azBlNvUQOyBBT+hMbDBSevQQCC/2EAJMK/BeNyMQB2E
UEBwmJfBzQXeQNl/mUCIt6PB70GsQCwnVUCv0rPBXqLlQN5JK0AUdpjBMVbUQDczqUAmIa/BNeLd
QNVNUEDlqqPBSXSzQGG4LEBHoKjBhrGkQFbYHkHKvajBv7K1QJ0w8EDBr6nBeDa+QDKGDEEDlqzB
8b2NQFLPSEDdFKLBe/tLQF4BZEB+3JLBw12sQGFEmEA/9rLBeq6zQC06P8CHKq7BN7X0QGMNmz/3
CrXBWSC6QL96RUAqMo/B/+x0QPB8VD8n16DBFuh0QK9K0L+ZRKPBvjACQZTd6kC3ZbvBgDjtQL9y
rb/3HrbBcwLqQAt1HUF/lrfBz5z9QItIpUBZMKHB1GXFQGJ9pUBxMJ7BAQ3GQLTYQEAlP7nBOUON
QADHP0CXBrfBW0roQCeHyj92FJnBotoBQbOmRUBdSpXBsZ7uQLVDn0ARbrTBAFD4QJPbOkAr06jB
+CWLQMUOGUFcbKPBeoS5QA7yKUFjUqTBb2WWQLcxJ0FDna/BObNlQGD0VkBsCqbBvkNIQElla0Cs
7YrBkJIXQKSvakBMYJfBA/fTQFM9GD/3c7DB/6bWQJ4BSr9zMrLBtvLqQH9+9EDUDrbBbF+XQNmj
j7/AM6fBqM/dQM6tDkHbAbTBPvGyQPBXkz96CKrB23u4QCDt0r/4g63B3wmUQKa5hj7NeKXBzi/R
QMov2EDALK/BELqMQPhWU0DHgJfBNw7fQFQ2mECh8KPBmN6rQAgNVEBDyrPBIODkQNdVKUDQhpjB
OKvUQJ9/qEBpRK/BM1fdQEyETUBxzKPBCh6yQJkZLEC+h6jBmLOlQGuNHkFcP6jBjG62QB5970D1
eqnB1a2+QPY+DEHPV6zBD0GNQCzBS0Ce/qHBiqJLQDz5ZEBerZLBYH2sQPDFl0BlBrPBwDK7QCbL
PsC5Fq/BQiplQBISLz+Mfp/B3m+6QLF/SUCYOo/BIGnrQM7Bnz/bDbTBYefvQLigmL+mIrfBQbwB
QbvN6kCqpLvBrTeAQAHy5L/1oqPBrzzpQM5WHUFSlLfBCkr/QDfwokCmoqHBa3fHQG0HpUCOP57B
Ed7FQG/DPkCxF7nBNvKMQIM8P0ChF7fBQMDlQIIZxj9j+pjBWN0BQVgjQUD6gpXBCKjuQCLinkC4
sbTBaTP3QPzoNUAS/ajBFbiMQMy3GEEDx6LBbxS7QLyMKUEY7qPBg7OWQKIIJ0Eo/K7Bpm1lQAad
XECo76XBhEBIQKDFa0DVu4rB2tQWQDfoakDqIpfB

> <OMEGA_E>
GA+aPnALrj4=

> <OMEGA_NBR>
     49980

$$$$
286499
  -OEChem-04172616093D

 45 48  0     1  0  0  0  0  0999 V2000
    5.6686    8.8912  -21.3410 C   0  0  0  0  0  0  0  0  0  0  0  0
    6.5943    0.4630  -21.9904 C   0  0  0  0  0  0  0  0  0  0  0  0
    6.6172   -0.9327  -22.1569 C   0  0  0  0  0  0  0  0  0  0  0  0
    5.5144    7.4436  -21.0652 C   0  0  0  0  0  0  0  0  0  0  0  0
    4.5871   -1.1248  -20.8351 C   0  0  0  0  0  0  0  0  0  0  0  0
    6.6862    9.0351  -22.2527 C   0  0  0  0  0  0  0  0  0  0  0  0
    5.5708    1.0950  -21.2360 C   0  0  0  0  0  0  0  0  0  0  0  0
    5.6191   -1.7269  -21.5693 C   0  0  0  0  0  0  0  0  0  0  0  0
    4.5439    0.2706  -20.6703 C   0  0  0  0  0  0  0  0  0  0  0  0
    6.4517    6.7664  -21.8166 C   0  0  0  0  0  0  0  0  0  0  0  0
    4.4468    3.3203  -18.9942 C   0  0  0  0  0  0  0  0  0  0  0  0
    7.0437    4.7011  -20.5104 C   0  0  0  0  0  0  0  0  0  0  0  0
    5.4736    3.2542  -22.5073 C   0  0  0  0  0  0  0  0  0  0  0  0
    7.1914    2.5706  -19.0943 C   0  0  0  0  0  0  0  0  0  0  0  0
    6.6643    5.2672  -21.9013 C   0  0  1  0  0  0  0  0  0  0  0  0
    6.9702    3.1468  -20.5030 C   0  0  1  0  0  0  0  0  0  0  0  0
    5.6141    2.6423  -21.0932 C   0  0  2  0  0  0  0  0  0  0  0  0
    8.2252    7.4630  -23.4507 C   0  0  0  0  0  0  0  0  0  0  0  0
    7.1278    7.7532  -22.5018 N   0  0  0  0  0  0  0  0  0  0  0  0
    4.4752    3.1960  -20.3032 N   0  3  0  0  0  0  0  0  0  0  0  0
    3.2440    3.6876  -18.4145 N   0  0  0  0  0  0  0  0  0  0  0  0
    5.4422    4.6888  -22.4044 O   0  0  0  0  0  0  0  0  0  0  0  0
    5.6472   -3.0703  -21.7100 F   0  0  0  0  0  0  0  0  0  0  0  0
    3.4939    0.7607  -19.9731 F   0  0  0  0  0  0  0  0  0  0  0  0
    5.8396    3.0357  -17.9359 S   0  0  0  0  0  0  0  0  0  0  0  0
    5.0863    9.6890  -20.9042 H   0  0  0  0  0  0  0  0  0  0  0  0
    7.3681    1.0646  -22.4439 H   0  0  0  0  0  0  0  0  0  0  0  0
    7.4027   -1.3943  -22.7368 H   0  0  0  0  0  0  0  0  0  0  0  0
    4.7950    6.9976  -20.3944 H   0  0  0  0  0  0  0  0  0  0  0  0
    3.8177   -1.7395  -20.3916 H   0  0  0  0  0  0  0  0  0  0  0  0
    7.0593    9.9535  -22.6813 H   0  0  0  0  0  0  0  0  0  0  0  0
    8.0685    5.0141  -20.2618 H   0  0  0  0  0  0  0  0  0  0  0  0
    6.3463    5.0979  -19.7579 H   0  0  0  0  0  0  0  0  0  0  0  0
    6.3302    2.9490  -23.1263 H   0  0  0  0  0  0  0  0  0  0  0  0
    4.5414    2.8986  -22.9704 H   0  0  0  0  0  0  0  0  0  0  0  0
    7.2378    1.4737  -19.1631 H   0  0  0  0  0  0  0  0  0  0  0  0
    8.1440    2.9539  -18.7000 H   0  0  0  0  0  0  0  0  0  0  0  0
    7.4903    5.0631  -22.5985 H   0  0  0  0  0  0  0  0  0  0  0  0
    7.7753    2.7713  -21.1518 H   0  0  0  0  0  0  0  0  0  0  0  0
    8.4028    6.3780  -23.4860 H   0  0  0  0  0  0  0  0  0  0  0  0
    7.9478    7.8218  -24.4528 H   0  0  0  0  0  0  0  0  0  0  0  0
    9.1413    7.9737  -23.1190 H   0  0  0  0  0  0  0  0  0  0  0  0
    3.6678    3.4970  -20.8106 H   0  0  0  0  0  0  0  0  0  0  0  0
    3.1771    3.7863  -17.4216 H   0  0  0  0  0  0  0  0  0  0  0  0
    2.4425    3.8542  -18.9887 H   0  0  0  0  0  0  0  0  0  0  0  0
  1  4  1  0  0  0  0
  1  6  2  0  0  0  0
  2  3  2  0  0  0  0
  2  7  1  0  0  0  0
  3  8  1  0  0  0  0
  4 10  2  0  0  0  0
  5  8  2  0  0  0  0
  5  9  1  0  0  0  0
  6 19  1  0  0  0  0
  7  9  2  0  0  0  0
  7 17  1  0  0  0  0
  8 23  1  0  0  0  0
  9 24  1  0  0  0  0
 10 15  1  0  0  0  0
 10 19  1  0  0  0  0
 11 20  2  0  0  0  0
 11 21  1  0  0  0  0
 11 25  1  0  0  0  0
 12 15  1  0  0  0  0
 12 16  1  0  0  0  0
 13 17  1  0  0  0  0
 13 22  1  0  0  0  0
 14 16  1  0  0  0  0
 14 25  1  0  0  0  0
 15 22  1  0  0  0  0
 16 17  1  0  0  0  0
 17 20  1  0  0  0  0
 18 19  1  0  0  0  0
  1 26  1  0  0  0  0
  2 27  1  0  0  0  0
  3 28  1  0  0  0  0
  4 29  1  0  0  0  0
  5 30  1  0  0  0  0
  6 31  1  0  0  0  0
 12 32  1  0  0  0  0
 12 33  1  0  0  0  0
 13 34  1  0  0  0  0
 13 35  1  0  0  0  0
 14 36  1  0  0  0  0
 14 37  1  0  0  0  0
 15 38  1  0  0  0  0
 16 39  1  0  0  0  0
 18 40  1  0  0  0  0
 18 41  1  0  0  0  0
 18 42  1  0  0  0  0
 20 43  1  0  0  0  0
 21 44  1  0  0  0  0
 21 45  1  0  0  0  0
M  CHG  1  20   1
M  END
> <OMEGA_C>
gmW1QFlCDkFnuqrBYATTQOAT7T5V7K/BCcDTQBjDbr9KQbHBsXWwQKEx7kChhajBhMmSQOb6j78v
rqbBavXVQOWPEEGDBbLB3UOyQIQqjD9j46nB6M+zQNgK3b8GjqzBXmeRQDyPij7GXKXBaHTOQLKG
2EBaiK7B2kuOQMR/VEAn9JfByGXhQDJvlkBeFaTB0CevQHpEUED0DrTBoB/mQLaEJEA2wZjB9kHV
QE2NqEDgNa/BuAvfQHRkSUA6BqTBY6azQK0bKUDUvqjBkJoDQdXQ7kD8mrvB6hbkQDka+ECdA7TB
6jSPQOuKTEDfbKLBJJ5PQLIBbEDeUJPBlCauQIYKlkAlPLPBm7W0QHh/RMAHrq3BWJxfQPu7Qj/x
yJ/BAN66QK5JQkCmfI/BXcOiQFEGG0HeO6fBvMfrQBJGiD8OjbPBhOLsQA54sr8O5bXBonCZQBLs
30DJJ6PBU1V0QAeo3r8JIqPBAObhQJxBH0Fnc7XBdhgBQUxzoEAoGKLBIxXLQP8ho0BFEJ7BqZDK
QDO8PECzArnBwFKRQHWDOUBzw7fB2pvnQDGjvD/zTZnB1k0CQfUMPUCBmZXByLDvQB0FokChybTB
+c74QJ5dMUDoNqnBAHIGQY4YzEBE47vBCFT+QP9L+kBdn8PBm0ISQfEo/0Cq87jBkb1qQALPX0Ag
fKbB1lRLQANSckB6X4vBJlEcQDSrdkDd6JfB

> <OMEGA_E>
kIiiPg==

> <OMEGA_NBR>
     51040

$$$$
286503
  -OEChem-04172616093D

 44 47  0     1  0  0  0  0  0999 V2000
    4.5962    0.3763  -20.6758 C   0  0  0  0  0  0  0  0  0  0  0  0
    4.5801   -1.0171  -20.8436 C   0  0  0  0  0  0  0  0  0  0  0  0
    6.6054   -0.8835  -22.1840 C   0  0  0  0  0  0  0  0  0  0  0  0
    5.6276    1.1685  -21.2510 C   0  0  0  0  0  0  0  0  0  0  0  0
    5.5828   -1.6466  -21.5976 C   0  0  0  0  0  0  0  0  0  0  0  0
    6.6376    0.5125  -22.0179 C   0  0  0  0  0  0  0  0  0  0  0  0
    7.4148    7.7062  -22.6215 C   0  0  0  0  0  0  0  0  0  0  0  0
    6.5188    6.8016  -21.8829 C   0  0  0  0  0  0  0  0  0  0  0  0
    4.4038    3.2432  -18.9481 C   0  0  0  0  0  0  0  0  0  0  0  0
    6.9547    4.8039  -20.4421 C   0  0  0  0  0  0  0  0  0  0  0  0
    5.4159    3.3432  -22.4734 C   0  0  0  0  0  0  0  0  0  0  0  0
    7.1802    2.6612  -19.0534 C   0  0  0  0  0  0  0  0  0  0  0  0
    6.6600    5.3114  -21.8658 C   0  0  1  0  0  0  0  0  0  0  0  0
    6.9437    3.2556  -20.4488 C   0  0  1  0  0  0  0  0  0  0  0  0
    5.6791    8.8587  -21.8246 C   0  0  1  0  0  0  0  0  0  0  0  0
    5.6181    2.7062  -21.0745 C   0  0  2  0  0  0  0  0  0  0  0  0
    5.5975    9.9012  -20.7062 C   0  0  0  0  0  0  0  0  0  0  0  0
    6.9571    8.9293  -22.5394 N   0  0  0  0  0  0  0  0  0  0  0  0
    5.5515    7.4889  -21.3229 N   0  0  0  0  0  0  0  0  0  0  0  0
    4.4407    3.1571  -20.2615 N   0  3  0  0  0  0  0  0  0  0  0  0
    3.1858    3.5333  -18.3553 N   0  0  0  0  0  0  0  0  0  0  0  0
    5.4169    4.7711  -22.3591 O   0  0  0  0  0  0  0  0  0  0  0  0
    5.5623   -2.9868  -21.7626 F   0  0  0  0  0  0  0  0  0  0  0  0
    7.6467    1.1901  -22.6142 F   0  0  0  0  0  0  0  0  0  0  0  0
    5.8128    3.0475  -17.8950 S   0  0  0  0  0  0  0  0  0  0  0  0
    3.8150    0.8531  -20.1023 H   0  0  0  0  0  0  0  0  0  0  0  0
    3.7953   -1.6057  -20.3920 H   0  0  0  0  0  0  0  0  0  0  0  0
    7.3724   -1.3721  -22.7666 H   0  0  0  0  0  0  0  0  0  0  0  0
    8.3090    7.4075  -23.1482 H   0  0  0  0  0  0  0  0  0  0  0  0
    7.9422    5.1646  -20.1186 H   0  0  0  0  0  0  0  0  0  0  0  0
    6.1840    5.1755  -19.7508 H   0  0  0  0  0  0  0  0  0  0  0  0
    6.2330    3.0293  -23.1395 H   0  0  0  0  0  0  0  0  0  0  0  0
    4.4541    3.0106  -22.8909 H   0  0  0  0  0  0  0  0  0  0  0  0
    7.2694    1.5686  -19.1443 H   0  0  0  0  0  0  0  0  0  0  0  0
    8.1158    3.0729  -18.6469 H   0  0  0  0  0  0  0  0  0  0  0  0
    7.4890    5.0163  -22.5258 H   0  0  0  0  0  0  0  0  0  0  0  0
    7.7700    2.9238  -21.0948 H   0  0  0  0  0  0  0  0  0  0  0  0
    4.8626    9.0558  -22.5347 H   0  0  0  0  0  0  0  0  0  0  0  0
    4.6270    9.8164  -20.1954 H   0  0  0  0  0  0  0  0  0  0  0  0
    6.4085    9.7279  -19.9836 H   0  0  0  0  0  0  0  0  0  0  0  0
    5.6986   10.9087  -21.1362 H   0  0  0  0  0  0  0  0  0  0  0  0
    3.6128    3.4143  -20.7598 H   0  0  0  0  0  0  0  0  0  0  0  0
    3.1228    3.6258  -17.3616 H   0  0  0  0  0  0  0  0  0  0  0  0
    2.3696    3.6502  -18.9211 H   0  0  0  0  0  0  0  0  0  0  0  0
  1  2  2  0  0  0  0
  1  4  1  0  0  0  0
  2  5  1  0  0  0  0
  3  5  2  0  0  0  0
  3  6  1  0  0  0  0
  4  6  2  0  0  0  0
  4 16  1  0  0  0  0
  5 23  1  0  0  0  0
  6 24  1  0  0  0  0
  7  8  1  0  0  0  0
  7 18  2  0  0  0  0
  8 13  1  0  0  0  0
  8 19  2  0  0  0  0
  9 20  2  0  0  0  0
  9 21  1  0  0  0  0
  9 25  1  0  0  0  0
 10 13  1  0  0  0  0
 10 14  1  0  0  0  0
 11 16  1  0  0  0  0
 11 22  1  0  0  0  0
 12 14  1  0  0  0  0
 12 25  1  0  0  0  0
 13 22  1  0  0  0  0
 14 16  1  0  0  0  0
 15 17  1  0  0  0  0
 15 18  1  0  0  0  0
 15 19  1  0  0  0  0
 16 20  1  0  0  0  0
  1 26  1  0  0  0  0
  2 27  1  0  0  0  0
  3 28  1  0  0  0  0
  7 29  1  0  0  0  0
 10 30  1  0  0  0  0
 10 31  1  0  0  0  0
 11 32  1  0  0  0  0
 11 33  1  0  0  0  0
 12 34  1  0  0  0  0
 12 35  1  0  0  0  0
 13 36  1  0  0  0  0
 14 37  1  0  0  0  0
 15 38  1  0  0  0  0
 17 39  1  0  0  0  0
 17 40  1  0  0  0  0
 17 41  1  0  0  0  0
 20 42  1  0  0  0  0
 21 43  1  0  0  0  0
 21 44  1  0  0  0  0
M  CHG  1  20   1
M  END
> <OMEGA_C>
AxSTQCurwD77Z6XBeZCSQOgxgr+rv6bBpV/TQK8uYr/qeLHBVhW0QEySlT/7AarBYaayQEjD0r/f
x6zBZmfUQN80Az+pJLDBr0XtQEiZ9kDP+LTByJnQQHqm2UA7EK/B2+uMQMOQT0CylZfB1YzeQDe5
mUCAiaPB706tQIj3VUBtybPBbcTlQIlQKkBdbZjBnR7VQNv2qUAY7a7BGjPeQCxbUEAsl6PBfLu1
QFi9DUGumK7BPcezQPUxLUCqmKjBYB6zQGFrHkFbpqXBzqDeQH/eDkGbULTBFqaxQHWl70BilarB
kBqOQDANSkB/F6LBkORLQEkhYkCo15LBNletQPCsmECH37LBOP6xQM4nP8C5Ga7BEbL0QE5VmD/2
6bTBhAK6QF8KQ0D8KI/BMyl0QIpiWj+H0aDB6eVyQB2Jzb/CIqPBturrQCCir78OIrbBx/EEQSUK
7UCNL7nBiib+QM9EpUD88qDBaOPFQLadpUCqAZ7Bo3THQKnfQUC7HbnB3IeOQHOuQECDILfBLZ/o
QJvGyD96J5nBPdoBQS6qREDkLJXBHqbvQGCFoEDINLTBnKP4QFggO0AowqjBGJqbQLXkEEEfR7TB
NBCUQBMQHUEdkKHBHRLNQEqlG0Fg3p/Bu1q2QNqJLkHbFqnBGThnQOyDWkAUFKbBNdxHQFgMaECF
5IrBuacXQPmcaUBoXpfBah7UQEFyGD+uVbDBvtfVQPDBSL9FXLLBe8qVQPyjjb/foafB/A6zQOYU
lD/Z9anBm6W2QFBA0b+9Aq7BcnOTQK6ajD69m6XBNz7tQLMj9kAF9LTBYOzQQCgS2UBN+K7B/7GM
QPQSUkB5cZfBy03fQBSdmECekqPBZhqtQI7+VECop7PBARPlQGpgKECFYJjB6H7VQNRLqUCV567B
zK7dQObyTUBVlKPBs4+1QLVjDUGrjq7BwKCyQNyPLECfaKjBPe+yQEQzHkE3qqXBckXeQO6WDkFv
WrTBXOSxQBb37kDaeqrBbqeNQHNVTEBY8qHB+F5LQFToY0D8rZLBYJStQHA5mEDY0bLB9xK4QJ6Q
PcAo+6/BikdkQNBeMj+Rlp/B5e65QK7eREDfEo/BS1zsQE/rnj+0rrPBpyfvQPZqmL8eQ7fBbx58
QHNA4r9HPqTBW/EEQbi47EAJLbnBR2H/QHJRo0DvIKHBjl7HQPEjpUBY7p3BzHnHQDEPQEDg3LjB
cG2OQB04QEAsGrfBkMrmQId7xD/LAZnBVsIBQT0ZQUB6OJXBtdfvQPIFoECUQrTBrqr3QEsWN0Bp
yKjBlzybQE5gEEGFNLTBawSUQIjIHEGkhKHBcBfNQJKdG0Fu65/BlNG1QH1HLkGNK6nBDfZmQM7A
XkCa7qXBOUZHQOn9aECsuIrBEyMXQPmya0DSMpfB47qRQJiD9z6LzKTBoaePQBrYar+oZqXBLLPP
QDrncL8Dc7DB60azQGeUmT+O7anBc7quQLOB0L+6LavBKzfSQPKN6z6F5q/BxL+qQHtY5UA2T6bB
YtHKQAx12UCtda7Bz3uPQJTWWkBxR5jBXQbmQIakmEBXkKXBWLOvQKZLVEBNlbTBxWvnQJgEMEBg
DJnBGNXVQMVXq0ALebDBli3hQFBGT0A3p6TBVe/JQDUdEEGlcKzBoVu1QBSZL0AYLKnBdqWyQMjP
IEEIP7PBiJOrQEFEB0HawqTBARnbQKMg/EBqwLLBV5WQQPryUkBJw6LBSS9QQHZJaUDBfpPBrJCu
QPLVl0CNFrTBPNysQPh8PsA3t6vBy37yQD2Mhz+yTbXBGV69QGjmV0DxC5DB3BxzQC4Agz8lY6DB
wT5sQB5Uub8UaqHBm0/nQHgJv7+19bTBHsWVQKw1z0DNPqLB9QsEQbO7oEBUqqTBxZvTQBmXp0DK
D5/BOq3KQFfiP0C6oLnBz5ORQNx9PEBtB7jBhtfmQHhC0z/4+ZjBO1IDQd+mRkB/IZbBpT3vQGK2
qEAGh7bBe336QGsBMkChjanBWkfkQIAGGEH+JajBxQnJQKiwJ0HGGbnBIt6XQBgpGUG+fLfBIUim
QDKWLUG+Cq7BV3dtQKocZkAV06bBYXBMQCy2cUAelIvBlyEbQIFHa0Bw9pfBibLSQDHeBz+l8a/B
163TQHWlXb+j97DBNzaTQKIIhL93K6bBxyqyQJXhlj+h76nBrv2zQOjM0r92DqzBWrSRQHg/vD7B
HKXB6ouqQMoR5UDKBabBsp7KQK/22EBtJ67BKyKPQMImW0D2NZjBk8rkQHJtl0CfQKXB32+vQIII
U0CTh7TBZfLmQDbkKkCeMZnBN5zVQEPEqkBHL7DBzQXgQDmnTEAMqqTBwHnJQI3uD0G5SqzBwuOz
QFBpLkDKE6nBaQayQOJ/IEFsJbPB+DqrQHIqB0FFkaTBRaraQByU+0DhibLBWv2PQH1TVEC2s6LB
8ItQQP+JbkBWbpPBpbGuQF5el0CtGrTBGbe0QB5qP8DhFa3BdpBgQPXFXz+ZkJ/BOlG8QNdVTEDm
4o/BrR/rQIPhjz9wy7PBLc/sQOBqq780iLXBqMt1QDPA0b/raaLBqKiVQEcEz0C45qHBVFsDQfOX
n0DlFqTBGqDRQGbDpUC8zJ7BBMLKQEbwPUBmabnBA4SRQBW0O0DlIbjBINvnQKQVyT9hcJnBI90C
QdtMQ0BDNZbBs5LvQH9KqEA6GLbBl/b4QD5oMEDSxanBudHjQLHwF0GiC6jBiFLIQKtSJ0EGCrnB
sD+XQNO/GEHMV7fBlKOlQFpVLUE/+63BfkVtQJ41akCSvqbBOaNMQD/Pc0AheYvBlmocQG4/d0BD
8ZfBnt3OQBJJeT+tybLBblLSQMWOv76m7LXBYHGZQMwmd78LhqnBILqwQOKjsD/I56rB0oa3QDkB
rL9yTLHBfN+VQNInwT6yQqbBBwDPQE/28kCB0KnBtCvbQJ1y0kBV7rHBXUaJQKrQWUBcEJbBbbDj
QDPAmEC1p6PBwuemQP0ecUDMrbHBXe/fQAOoMkDHsZbBFV3nQFwlpEAGxa/BY9/bQM/XUEAoX6LB
Of3OQL+mCEGP9rnBcmqvQIJDOECYgafBagKmQHSwDUFYScDBRcDHQAPWC0EPfq7BPHvbQHJg5ECm
bLvBjYOJQE7/TEAEfaDBagBEQASYYEAC+ZDB+DbOQJB0h0CserbB05W6QPDvKMBVTbTBI6RwQOqP
Jj9nqp7B/bS3QNQwZUCxTo7B2nTjQGok2z8lbrbB1JDpQCfCKb/C4rvBWNKEQAc0279YAqbBCYPM
QOYl7UADUqHB7McAQf6ToUCKjp/BttLIQGuFqkBMG6DBxTCVQEf5SkA8mrfBSpaTQFBulEC6Ua/B
dLHbQFWg2T+aYpbBIOz/QA9lQ0D6rJPBy54EQRZuoEC/+LHBY670QNiBL0A0BafBQ9DoQCE8E0GD
v7zBOOarQNY7C0EI4MjBJx6MQCUEA0EAob3BBa6cQKZsHkHK4L7BT3JaQPmNUUDwLqTB6nZBQLip
a0CCGYnBhuMNQN9pWkCELJXB

> <OMEGA_E>
6G5aPmA4ez44xO0+yG7+PljMKz8=

> <OMEGA_NBR>
     55192

$$$$
286504
  -OEChem-04172616093D

 43 46  0     1  0  0  0  0  0999 V2000
    4.6250    0.3610  -20.6761 C   0  0  0  0  0  0  0  0  0  0  0  0
    4.6471   -1.0324  -20.8380 C   0  0  0  0  0  0  0  0  0  0  0  0
    6.6587   -0.8495  -22.1946 C   0  0  0  0  0  0  0  0  0  0  0  0
    6.9016    9.1357  -22.4594 C   0  0  0  0  0  0  0  0  0  0  0  0
    5.6309    1.1759  -21.2608 C   0  0  0  0  0  0  0  0  0  0  0  0
    5.6662   -1.6375  -21.5902 C   0  0  0  0  0  0  0  0  0  0  0  0
    6.6483    0.5472  -22.0417 C   0  0  0  0  0  0  0  0  0  0  0  0
    5.8721    8.8622  -21.5908 C   0  0  0  0  0  0  0  0  0  0  0  0
    6.6114    6.7511  -21.9529 C   0  0  0  0  0  0  0  0  0  0  0  0
    4.3913    3.2377  -18.9337 C   0  0  0  0  0  0  0  0  0  0  0  0
    6.9455    4.7958  -20.4684 C   0  0  0  0  0  0  0  0  0  0  0  0
    5.3489    3.3453  -22.4655 C   0  0  0  0  0  0  0  0  0  0  0  0
    7.1673    2.6770  -19.0516 C   0  0  0  0  0  0  0  0  0  0  0  0
    6.6569    5.2662  -21.9038 C   0  0  1  0  0  0  0  0  0  0  0  0
    6.9252    3.2555  -20.4528 C   0  0  1  0  0  0  0  0  0  0  0  0
    5.5941    2.7070  -21.0719 C   0  0  2  0  0  0  0  0  0  0  0  0
    4.9814    9.9231  -20.9953 C   0  0  0  0  0  0  0  0  0  0  0  0
    5.7298    7.5004  -21.3321 N   0  0  0  0  0  0  0  0  0  0  0  0
    4.4190    3.1398  -20.2460 N   0  3  0  0  0  0  0  0  0  0  0  0
    3.1705    3.5017  -18.3349 N   0  0  0  0  0  0  0  0  0  0  0  0
    5.3853    4.7710  -22.3573 O   0  0  0  0  0  0  0  0  0  0  0  0
    5.6893   -2.9794  -21.7374 F   0  0  0  0  0  0  0  0  0  0  0  0
    7.6232    1.2507  -22.6658 F   0  0  0  0  0  0  0  0  0  0  0  0
    7.6971    7.6794  -22.9305 S   0  0  0  0  0  0  0  0  0  0  0  0
    5.8115    3.0864  -17.8905 S   0  0  0  0  0  0  0  0  0  0  0  0
    3.8343    0.8192  -20.1004 H   0  0  0  0  0  0  0  0  0  0  0  0
    3.8790   -1.6404  -20.3832 H   0  0  0  0  0  0  0  0  0  0  0  0
    7.4346   -1.3197  -22.7806 H   0  0  0  0  0  0  0  0  0  0  0  0
    7.1744   10.1238  -22.7993 H   0  0  0  0  0  0  0  0  0  0  0  0
    7.9339    5.1583  -20.1495 H   0  0  0  0  0  0  0  0  0  0  0  0
    6.1748    5.1852  -19.7869 H   0  0  0  0  0  0  0  0  0  0  0  0
    6.1314    3.0117  -23.1630 H   0  0  0  0  0  0  0  0  0  0  0  0
    4.3641    3.0324  -22.8426 H   0  0  0  0  0  0  0  0  0  0  0  0
    7.2488    1.5828  -19.1294 H   0  0  0  0  0  0  0  0  0  0  0  0
    8.1081    3.0876  -18.6565 H   0  0  0  0  0  0  0  0  0  0  0  0
    7.4599    4.9034  -22.5623 H   0  0  0  0  0  0  0  0  0  0  0  0
    7.7467    2.9103  -21.0977 H   0  0  0  0  0  0  0  0  0  0  0  0
    4.2297    9.4497  -20.3465 H   0  0  0  0  0  0  0  0  0  0  0  0
    5.5897   10.6219  -20.4022 H   0  0  0  0  0  0  0  0  0  0  0  0
    4.4749   10.4722  -21.8028 H   0  0  0  0  0  0  0  0  0  0  0  0
    3.5803    3.3753  -20.7371 H   0  0  0  0  0  0  0  0  0  0  0  0
    3.1118    3.6006  -17.3416 H   0  0  0  0  0  0  0  0  0  0  0  0
    2.3478    3.5932  -18.8960 H   0  0  0  0  0  0  0  0  0  0  0  0
  1  2  2  0  0  0  0
  1  5  1  0  0  0  0
  2  6  1  0  0  0  0
  3  6  2  0  0  0  0
  3  7  1  0  0  0  0
  4  8  2  0  0  0  0
  4 24  1  0  0  0  0
  5  7  2  0  0  0  0
  5 16  1  0  0  0  0
  6 22  1  0  0  0  0
  7 23  1  0  0  0  0
  8 17  1  0  0  0  0
  8 18  1  0  0  0  0
  9 14  1  0  0  0  0
  9 18  2  0  0  0  0
  9 24  1  0  0  0  0
 10 19  2  0  0  0  0
 10 20  1  0  0  0  0
 10 25  1  0  0  0  0
 11 14  1  0  0  0  0
 11 15  1  0  0  0  0
 12 16  1  0  0  0  0
 12 21  1  0  0  0  0
 13 15  1  0  0  0  0
 13 25  1  0  0  0  0
 14 21  1  0  0  0  0
 15 16  1  0  0  0  0
 16 19  1  0  0  0  0
  1 26  1  0  0  0  0
  2 27  1  0  0  0  0
  3 28  1  0  0  0  0
  4 29  1  0  0  0  0
 11 30  1  0  0  0  0
 11 31  1  0  0  0  0
 12 32  1  0  0  0  0
 12 33  1  0  0  0  0
 13 34  1  0  0  0  0
 13 35  1  0  0  0  0
 14 36  1  0  0  0  0
 15 37  1  0  0  0  0
 17 38  1  0  0  0  0
 17 39  1  0  0  0  0
 17 40  1  0  0  0  0
 19 41  1  0  0  0  0
 20 42  1  0  0  0  0
 20 43  1  0  0  0  0
M  CHG  1  19   1
M  END
> <OMEGA_C>
6f+TQCDWuD6caKXBD7WUQEQmhL8rtKbBrhPVQDh6Wb+YjrHBPtrcQKgrEkHarLPBKTC0QICFlj8h
FqrBclG1QOGZ0b+9uKzBK7/UQDITDD9bVbDBHei7QLvLDUEBuqzBwpDTQGAJ2ECIn6/BnoWMQDc3
T0BBeJfBl0HeQHV3mUA7v6PBYCqrQDoZVkBoubPBJlrlQLxTK0C9aZjBBwXVQHmEqEDmOq/BCZvd
QKhZUEBVn6PBsQKzQE0/LUBPk6jBW2efQCHFHkFK9qfBa1q3QFgD8EAOqKrBUmiNQC/ySEDX96HB
8OhKQDobYEDmrZLBClSsQCSsmEDZ27LB5g62QNytPsAb5q3B+/DzQNYXoD+LU7XBo072QHu99UC8
cbfBuPe5QBGHRUDKH4/B9GV1QNy2UT+4zaDBiEF4QAz40b/XEKPB4uftQHrrqL+WPrbBdZTlQDn7
IUHzZLbBcuL9QCIRpUAtMqHBvpfFQGDtpUCrS57BlTTEQNq/QEDETbnBVKaLQIMTQkCVvbbBHfbn
QDKYyj/wCJnB8boBQdKbRUCVQJXBMLfuQOPonEB9f7TBVeX3QNRBOkAHyKjBB1qHQA0yF0GMxaLB
gd6yQBnzKUGhN6PBqzKPQCCOJ0EKbK7BSiRlQOgEWECs5aXBnidHQMNwZkCAu4rB4UEWQFr3ZUDz
KpfBgVTUQPIxHz8YU7DBDSjXQJ0MQr9gNrLBfUKXQIYwjr+leqfB8FLcQNP0EUFAorPBfvqyQMA6
lT8a8anB6bC4QK7uz79ywK3Bv92TQOiBij71k6XBqJu7QAFtDUFqpKzBPKjTQGFz10A0nq/BTzSM
QDiBUUBBU5fBmszeQFSUmEDq0aPB8ASrQCrSVEBzmrPBN8rkQGIjKkBuW5jBEj/VQCrep0DhRa/B
tAfdQOpvTkDonKPB1dOxQBvRLECaXajBbRifQNREHkEcxKfBCVe3QB4170CInqrBqfqMQBTxS0Dp
0qHBkyRKQHZrYUCxhJLBo3ysQK0WmECk3rLB7WO7QAAMPcApg6/BUUVkQME6Lj8zpp/BnQr2QKOC
9UBbdrfBtbK5QHMWRkAiBY/BuurrQN8ipD95yLPBL7zwQFSIk78XF7fBlM5/QEFW5L8MFKTBMcDk
QGPPIUGEWbbBC9f+QFN2o0BwZaHBbMPGQEGupUCvSZ7BwmXEQJ6OPkCDB7nBUKmLQC8HQUBdvrbB
uvzmQJIDyD/n5JjBoY4BQXr7Q0AcRZXBStXuQLhrnECGmLTBLdn2QJnFNkDPz6jB/k+HQDKSFkEo
i6LBO5yyQI5yKUGPCKPBZ5COQBsVJ0EbKq7BbEtlQGQaXkAkw6XBuSlGQDIqZkBNjorBfp0VQFAq
aECfApfB

> <OMEGA_E>
0EOgPuCJsD4=

> <OMEGA_NBR>
     56984

$$$$
286506
  -OEChem-04172616093D

 43 46  0     1  0  0  0  0  0999 V2000
    4.6045    0.3766  -20.6644 C   0  0  0  0  0  0  0  0  0  0  0  0
    4.6064   -1.0185  -20.8185 C   0  0  0  0  0  0  0  0  0  0  0  0
    6.6183   -0.8712  -22.1779 C   0  0  0  0  0  0  0  0  0  0  0  0
    7.3720    7.5941  -22.7079 C   0  0  0  0  0  0  0  0  0  0  0  0
    5.6198    1.1760  -21.2567 C   0  0  0  0  0  0  0  0  0  0  0  0
    5.6127   -1.6419  -21.5728 C   0  0  0  0  0  0  0  0  0  0  0  0
    6.6303    0.5266  -22.0294 C   0  0  0  0  0  0  0  0  0  0  0  0
    6.5844    6.7825  -21.9423 C   0  0  0  0  0  0  0  0  0  0  0  0
    5.9129    8.8281  -21.5994 C   0  0  0  0  0  0  0  0  0  0  0  0
    4.3994    3.2562  -18.9474 C   0  0  0  0  0  0  0  0  0  0  0  0
    6.9542    4.8039  -20.4802 C   0  0  0  0  0  0  0  0  0  0  0  0
    5.3741    3.3482  -22.4800 C   0  0  0  0  0  0  0  0  0  0  0  0
    7.1719    2.6780  -19.0650 C   0  0  0  0  0  0  0  0  0  0  0  0
    6.6620    5.2906  -21.9120 C   0  0  1  0  0  0  0  0  0  0  0  0
    6.9323    3.2590  -20.4664 C   0  0  1  0  0  0  0  0  0  0  0  0
    5.6005    2.7125  -21.0822 C   0  0  2  0  0  0  0  0  0  0  0  0
    5.1696   10.0400  -21.1030 C   0  0  0  0  0  0  0  0  0  0  0  0
    5.6804    7.5828  -21.2591 N   0  0  0  0  0  0  0  0  0  0  0  0
    4.4280    3.1607  -20.2602 N   0  3  0  0  0  0  0  0  0  0  0  0
    3.1803    3.5280  -18.3484 N   0  0  0  0  0  0  0  0  0  0  0  0
    6.9486    8.8568  -22.4847 O   0  0  0  0  0  0  0  0  0  0  0  0
    5.3990    4.7778  -22.3745 O   0  0  0  0  0  0  0  0  0  0  0  0
    5.6104   -2.9840  -21.7225 F   0  0  0  0  0  0  0  0  0  0  0  0
    7.6203    1.2118  -22.6490 F   0  0  0  0  0  0  0  0  0  0  0  0
    5.8189    3.0979  -17.9038 S   0  0  0  0  0  0  0  0  0  0  0  0
    3.8220    0.8485  -20.0888 H   0  0  0  0  0  0  0  0  0  0  0  0
    3.8325   -1.6131  -20.3559 H   0  0  0  0  0  0  0  0  0  0  0  0
    7.3875   -1.3554  -22.7612 H   0  0  0  0  0  0  0  0  0  0  0  0
    8.1744    7.2870  -23.3623 H   0  0  0  0  0  0  0  0  0  0  0  0
    7.9444    5.1626  -20.1624 H   0  0  0  0  0  0  0  0  0  0  0  0
    6.1865    5.1908  -19.7940 H   0  0  0  0  0  0  0  0  0  0  0  0
    6.1703    3.0188  -23.1640 H   0  0  0  0  0  0  0  0  0  0  0  0
    4.3978    3.0281  -22.8728 H   0  0  0  0  0  0  0  0  0  0  0  0
    7.2454    1.5832  -19.1429 H   0  0  0  0  0  0  0  0  0  0  0  0
    8.1159    3.0817  -18.6704 H   0  0  0  0  0  0  0  0  0  0  0  0
    7.4735    4.9534  -22.5736 H   0  0  0  0  0  0  0  0  0  0  0  0
    7.7533    2.9134  -21.1119 H   0  0  0  0  0  0  0  0  0  0  0  0
    4.3854    9.7266  -20.3981 H   0  0  0  0  0  0  0  0  0  0  0  0
    5.8711   10.7171  -20.5936 H   0  0  0  0  0  0  0  0  0  0  0  0
    4.7093   10.5621  -21.9548 H   0  0  0  0  0  0  0  0  0  0  0  0
    3.5943    3.4090  -20.7533 H   0  0  0  0  0  0  0  0  0  0  0  0
    3.1226    3.6285  -17.3551 H   0  0  0  0  0  0  0  0  0  0  0  0
    2.3580    3.6237  -18.9092 H   0  0  0  0  0  0  0  0  0  0  0  0
  1  2  2  0  0  0  0
  1  5  1  0  0  0  0
  2  6  1  0  0  0  0
  3  6  2  0  0  0  0
  3  7  1  0  0  0  0
  4  8  2  0  0  0  0
  4 21  1  0  0  0  0
  5  7  2  0  0  0  0
  5 16  1  0  0  0  0
  6 23  1  0  0  0  0
  7 24  1  0  0  0  0
  8 14  1  0  0  0  0
  8 18  1  0  0  0  0
  9 17  1  0  0  0  0
  9 18  2  0  0  0  0
  9 21  1  0  0  0  0
 10 19  2  0  0  0  0
 10 20  1  0  0  0  0
 10 25  1  0  0  0  0
 11 14  1  0  0  0  0
 11 15  1  0  0  0  0
 12 16  1  0  0  0  0
 12 22  1  0  0  0  0
 13 15  1  0  0  0  0
 13 25  1  0  0  0  0
 14 22  1  0  0  0  0
 15 16  1  0  0  0  0
 16 19  1  0  0  0  0
  1 26  1  0  0  0  0
  2 27  1  0  0  0  0
  3 28  1  0  0  0  0
  4 29  1  0  0  0  0
 11 30  1  0  0  0  0
 11 31  1  0  0  0  0
 12 32  1  0  0  0  0
 12 33  1  0  0  0  0
 13 34  1  0  0  0  0
 13 35  1  0  0  0  0
 14 36  1  0  0  0  0
 15 37  1  0  0  0  0
 17 38  1  0  0  0  0
 17 39  1  0  0  0  0
 17 40  1  0  0  0  0
 19 41  1  0  0  0  0
 20 42  1  0  0  0  0
 20 43  1  0  0  0  0
M  CHG  1  19   1
M  END
> <OMEGA_C>
E1iTQP/PwD6+UKXBqGeTQPlcgr8zjKbB6sjTQNwIX79JbLHBBefrQEMD80DeqbXBWtWzQAmGlj/M
DarBPZuzQFor0r8MlazBfSvUQBjRBj8zPLDBw7PSQNUJ2UDaia/BrDa9QBNADUGOy6zB08eMQLtl
UEAwlJfBK4neQCa5mUBs16PBCPmrQGtIVkAh17PB0n/lQF9kK0A2hZjB3y7VQKFMqUDAS6/BndXd
QHyTUEA8u6PBDjezQGiZLUBmqKjBJW2lQPujIEH30qjBc8W1QKim8kCWEqrBg7KNQHRJSkDhFKLB
mopLQJbKYUB0yZLB51reQI21DUGz4LPBVMSsQGfjmED2/rLBNYizQI35PsDIx63Bz9nzQOgbmz8/
MbXBYDS6QGNDRkDxOo/Bypt0QDw6WT/VtaDB4kd1QJV5zr/62KLBcWbsQPx+rb/dFrbBKMoCQfku
6UAD5rrBTjj+QNAzpUCuTKHBx/fFQAUbpkAjWp7B0XLFQL40QUDLT7nBcLqMQJrMQUBp+7bB99nn
QBanyj+lJJnB0NoBQT87RUAEXZXBqSbvQOqBnkC+lrTB4Br4QOR0OkAU5ajBjFWMQCWgG0FQL6PB
rN+7QEp5K0G1v6TBrLKWQEP+KEGIo6/BYAhmQMItWkDDBqbBadlHQBg5aEBA14rB0ugWQLHqZ0AN
RpfBHpnTQHT6GT+ga7DBmn7WQLieSL8fD7LB5CGXQFN5jr/cFqfBwHfrQLrT8kBFpbXBqICyQB+m
lD+GDKrBimu4QDcZ0r/lVK3B7JeTQI5ZjD6rdaXB+BfTQPpx2EAwaq/BZ6e8QPLODEEknazBO7aM
QHNNUkArfpfBeUvfQM1lmEDr7KPBX7mrQBZXVUB3yrPBsBDlQFePKEDIoJjBKrLVQPGbqECYUK/B
fETdQPbNTUC31aPBFuqxQOTZLECzjqjBdCakQBn8H0Fto6jB1Su2QI2r8UCZ0qnBREKNQPOpTEAr
/6HBSrJLQM3WY0DCopLBnUzdQNuDDUHI1bPBBSStQI56mEA2BbPBRmu7QIV4PsDkyq7B2vZjQIZA
Mj+Qip/BDDy6QL3cRECbOo/B6PTqQNJ6oD/nEbTBytjvQDIzmL879LbBvQCAQHWm479TgKPBy4EC
QZto6UCM97rBCG//QNzyokDCfaHBwGnHQP9VpUD4U57B62XFQL5AP0ADJLnByYqMQJWkQUBCDLfB
KuPmQEPZxD8nPZnBQckBQUCRQUCzi5XBPInvQMEenkAxr7TBz/H2QKhHNkBKFqnBqHqLQKfBGkGM
7qLBA0K6QHQaK0HTo6TBN9OUQEgaKEEYca/BDuNlQMc4X0C/6aXBViBIQLWVaECYq4rBAycXQO3A
a0BCGJfB

> <OMEGA_E>
5LOZPkgqrj4=

> <OMEGA_NBR>
     58776

$$$$
286505
  -OEChem-04172616093D

 45 48  0     1  0  0  0  0  0999 V2000
    4.5866    0.2883  -20.6667 C   0  0  0  0  0  0  0  0  0  0  0  0
    4.5935   -1.1027  -20.8487 C   0  0  0  0  0  0  0  0  0  0  0  0
    7.6638    7.1666  -22.9317 C   0  0  0  0  0  0  0  0  0  0  0  0
    6.6038   -0.9210  -22.2074 C   0  0  0  0  0  0  0  0  0  0  0  0
    7.6666    8.5419  -23.1731 C   0  0  0  0  0  0  0  0  0  0  0  0
    5.5989    1.1020  -21.2424 C   0  0  0  0  0  0  0  0  0  0  0  0
    5.6025   -1.7072  -21.6145 C   0  0  0  0  0  0  0  0  0  0  0  0
    6.6108    0.4737  -22.0309 C   0  0  0  0  0  0  0  0  0  0  0  0
    6.7501    6.6530  -22.0003 C   0  0  0  0  0  0  0  0  0  0  0  0
    5.9164    8.8097  -21.6421 C   0  0  0  0  0  0  0  0  0  0  0  0
    4.3641    3.1832  -18.9061 C   0  0  0  0  0  0  0  0  0  0  0  0
    6.9283    4.7181  -20.4040 C   0  0  0  0  0  0  0  0  0  0  0  0
    5.3265    3.2879  -22.4236 C   0  0  0  0  0  0  0  0  0  0  0  0
    7.1267    2.5828  -19.0017 C   0  0  0  0  0  0  0  0  0  0  0  0
    6.6763    5.1669  -21.8480 C   0  0  1  0  0  0  0  0  0  0  0  0
    6.9007    3.1719  -20.3990 C   0  0  1  0  0  0  0  0  0  0  0  0
    5.5714    2.6321  -21.0366 C   0  0  2  0  0  0  0  0  0  0  0  0
    5.0168    9.7529  -20.8810 C   0  0  0  0  0  0  0  0  0  0  0  0
    6.7983    9.3431  -22.5250 N   0  0  0  0  0  0  0  0  0  0  0  0
    5.8918    7.4803  -21.3555 N   0  0  0  0  0  0  0  0  0  0  0  0
    4.3934    3.0588  -20.2157 N   0  3  0  0  0  0  0  0  0  0  0  0
    3.1470    3.4877  -18.3212 N   0  0  0  0  0  0  0  0  0  0  0  0
    5.3919    4.7138  -22.3032 O   0  0  0  0  0  0  0  0  0  0  0  0
    5.6071   -3.0466  -21.7853 F   0  0  0  0  0  0  0  0  0  0  0  0
    7.5968    1.1769  -22.6378 F   0  0  0  0  0  0  0  0  0  0  0  0
    5.7782    3.0349  -17.8535 S   0  0  0  0  0  0  0  0  0  0  0  0
    3.8024    0.7460  -20.0820 H   0  0  0  0  0  0  0  0  0  0  0  0
    3.8214   -1.7092  -20.3989 H   0  0  0  0  0  0  0  0  0  0  0  0
    8.3497    6.5133  -23.4506 H   0  0  0  0  0  0  0  0  0  0  0  0
    7.3731   -1.3906  -22.8024 H   0  0  0  0  0  0  0  0  0  0  0  0
    8.3655    8.9640  -23.8800 H   0  0  0  0  0  0  0  0  0  0  0  0
    7.9093    5.0795  -20.0620 H   0  0  0  0  0  0  0  0  0  0  0  0
    6.1418    5.1120  -19.7435 H   0  0  0  0  0  0  0  0  0  0  0  0
    6.0963    2.9453  -23.1308 H   0  0  0  0  0  0  0  0  0  0  0  0
    4.3325    2.9977  -22.7946 H   0  0  0  0  0  0  0  0  0  0  0  0
    7.1759    1.4867  -19.0802 H   0  0  0  0  0  0  0  0  0  0  0  0
    8.0780    2.9649  -18.6029 H   0  0  0  0  0  0  0  0  0  0  0  0
    7.4576    4.7182  -22.4791 H   0  0  0  0  0  0  0  0  0  0  0  0
    7.7270    2.8285  -21.0388 H   0  0  0  0  0  0  0  0  0  0  0  0
    5.2324   10.7887  -21.1818 H   0  0  0  0  0  0  0  0  0  0  0  0
    3.9658    9.5175  -21.1046 H   0  0  0  0  0  0  0  0  0  0  0  0
    5.1963    9.6397  -19.8017 H   0  0  0  0  0  0  0  0  0  0  0  0
    3.5496    3.2690  -20.7095 H   0  0  0  0  0  0  0  0  0  0  0  0
    3.0863    3.6169  -17.3314 H   0  0  0  0  0  0  0  0  0  0  0  0
    2.3284    3.5785  -18.8884 H   0  0  0  0  0  0  0  0  0  0  0  0
  1  2  2  0  0  0  0
  1  6  1  0  0  0  0
  2  7  1  0  0  0  0
  3  5  1  0  0  0  0
  3  9  2  0  0  0  0
  4  7  2  0  0  0  0
  4  8  1  0  0  0  0
  5 19  2  0  0  0  0
  6  8  2  0  0  0  0
  6 17  1  0  0  0  0
  7 24  1  0  0  0  0
  8 25  1  0  0  0  0
  9 15  1  0  0  0  0
  9 20  1  0  0  0  0
 10 18  1  0  0  0  0
 10 19  1  0  0  0  0
 10 20  2  0  0  0  0
 11 21  2  0  0  0  0
 11 22  1  0  0  0  0
 11 26  1  0  0  0  0
 12 15  1  0  0  0  0
 12 16  1  0  0  0  0
 13 17  1  0  0  0  0
 13 23  1  0  0  0  0
 14 16  1  0  0  0  0
 14 26  1  0  0  0  0
 15 23  1  0  0  0  0
 16 17  1  0  0  0  0
 17 21  1  0  0  0  0
  1 27  1  0  0  0  0
  2 28  1  0  0  0  0
  3 29  1  0  0  0  0
  4 30  1  0  0  0  0
  5 31  1  0  0  0  0
 12 32  1  0  0  0  0
 12 33  1  0  0  0  0
 13 34  1  0  0  0  0
 13 35  1  0  0  0  0
 14 36  1  0  0  0  0
 14 37  1  0  0  0  0
 15 38  1  0  0  0  0
 16 39  1  0  0  0  0
 18 40  1  0  0  0  0
 18 41  1  0  0  0  0
 18 42  1  0  0  0  0
 21 43  1  0  0  0  0
 22 44  1  0  0  0  0
 22 45  1  0  0  0  0
M  CHG  1  21   1
M  END
> <OMEGA_C>
RcWSQN6Zkz5aVaXBFv6SQOQjjb8eyqbBvD31QIRU5UA5dLfBelLTQA3Fa7+oqLHBvlT1QKqrCEF7
YrnBdiqzQGMNjT9w8KnBnkezQDWG2r986qzBZIvTQNqO8j4+P7DBOgHYQIzl1EC2ALDBH1O9QFX0
DEHsIq3BdKaLQPK4S0CxP5fBULTdQN36lkBxO6PBDHOqQP9sUkCHY7PB1A3kQLlMJUBnA5jBRKTV
QGlXpUC9yK7BptLcQLYAS0AyMaPBw0iyQP9zKEDdSqjB7YmgQMMLHEFUDKfB+ovZQIh9FUEiM7TB
eom8QH9e70An2KrBVZaMQKzDQ0C7uaHBe2hJQMQ2X0DJkZLBJIqsQEbXlkDsbLLBsm2zQBj7QsBO
SK7BphjzQLallj8zGrXBMOe4QFo8QkDk047BBVpzQLT6Pj/Zp6DBTpF0QNXG2r/3MKPBNpgFQSZt
0EDqmrvBefDrQK/+sb9Ja7bBA9kFQZ1sD0FSCr/BDRn9QOKKokD1fqDBd4nEQEqVo0Ch8p3B3RTD
QHl/PEDQC7nB7aOKQDjaP0BvW7bBOKHlQPJMvj9SpJjBcz8BQYrBPUDE0pTBxqTuQKX7lkAf1bPB
PEP3QAUGNUCQT6jBMXCnQLieLEFVdKnBZtB9QJBHGEFJ1qjBJEimQDA8GkHVaZ7BXyxjQM03UUAX
raXBaYZFQOB7Z0DDporBRQUVQGIGZUBsG5fBsvPSQHz9Cj+qb7DBWuzVQCWYVr/0RrLBdCb1QPAB
5UC2arfBTviWQMUymb/UNafBsCX1QLKKCEGFQrnBaPqxQA3Eij/S6qnBaiC4QGe52r87la3BulST
QBpKPj4PZaXB7NrXQM031EB7B7DBTCm9QJCVDEGL/azBrqCLQIbvTUALM5fBbjveQBizlUC4a6PB
Zh6qQC/KUEB2ZrPBmLTjQFvKIkAmK5jBXKXVQDSGpEC9667BwD3cQPFZSEDJW6PBPgSxQOCEJ0Dv
OajBaNCgQMGdG0GvvKbB3E3ZQBdAFUHoB7TBJFO8QJSA7kDp0KrBGi2MQFxlRkAQrqHBV7ZJQLOk
YUDKcJLBdnmsQK4TlkAWiLLB2Em7QFqYQsCALq/BrbpjQF1fGD/pXp/Bxua4QOVEQEDZ2o7BIiDq
QL9Zmj8+CbTBRRjvQGWBnb8dTLfBOp0FQWxP0EDmlrvBtQWAQPSe7797qqPBqr8FQWloD0GU4r7B
vBX+QEuCoEDZ06DB28PFQGfUokAvA57BihDDQN0YOkBG7LjB6HSKQBZ0PkDMfLbBKRXlQH47uT9l
yJjB6ygBQXH9OkBRDZXBB4XuQOd4lkDXD7TBdxr2QGwIMUB2kajBf/GnQAc7LEF9B6nBiSJ+QMcN
GEGzfqjBesOmQE+EGUGeIJ7BQRVjQMLPVkBdnKXBbu5FQOfKZ0DcfYrBkXsVQLO6aUDC85bBKjeT
QA7Lkz6/9qPB1EWSQPc7jr+ty6TBGHKvQARs60B73LPB80nPQFSThb944bDB0bSwQPkbDEE/MLTB
5mKyQMCkhj/tkqnBajewQDqA47/xQavB1bLQQL8LuD6jFLDBP+3UQH8t1UCC0bDBQo34QIZSC0HU
667BiDGNQNsdUEBPqJfBWODfQNEAlkAyr6TBloirQOUATEB0CrTBr6nlQA5HJ0AEk5jBXO/VQJS6
pEArRLDBbvPdQCHrSEACA6TBoMWyQJglJkAWqqjBliMQQcdcF0HLlKvBngrVQOSZFkGBpbHB27/4
QNNP60CvW67BV6SNQFbbRUAZIKLBypNNQLjGZkAP45LBFRytQIq2k0DpqLPBDiKvQGT4R8B4EKzB
Y3bvQI1KgT/ZqrXBC426QO3cRECGTo/BlPF3QELeSj8FAJ/BfPV0QKGZ1r9fdaDB44qSQClK2kBm
4rXBUjzmQFipx79A2bXBEYaUQHv/FEEoe7bBKgkAQY30oECuaaLBYiLIQKbUo0D4Lp/BdqnEQDdp
NECnc7nBsQaMQLWrN0CyB7fBxwDoQPgjwj/o25jB0vYBQfoQQkD/k5XBAnLvQEnjmEDfjrXBxcr3
QObBL0CmF6nB0P8MQWyrKEHi4avBgooUQavEEkFdYKPB+lgdQQFqE0E9DbHBgp5lQAmFVECVFKbB
ldBKQAArcEAp+4rBFe0YQG27bUDmWZfBwVjXQHTsrD4pu6vBnJrWQKD4h7/OpKzBMQGvQKVB60DZ
y7PBsseJQMP1hr9BgqnB6NivQJsMDEFmE7TBvn6xQICViD8gS6nB5uevQD484b/ObavBkR2KQFg0
sj6DlajBQ9DUQGZe1UBt3rDB09X3QFmQC0Hv6K7BSGCNQMHKT0AMiJfBT4bfQLnSlkCooKTB8I+t
QH/YSUB2CbTBcTnmQDzFKUBybpjBHW/WQA33pEDIS7DBciXeQIW7SkA756PBsv2yQIA9J0DRgKjB
rbUPQfq6F0HkkqvBQw/UQM+yFkHFkLHBFnL4QDbO60DWaa7BtIyOQK4wSkDPCKLBi2RNQKrWZEDe
x5LB4XOuQPbkkkCRALTB5jCvQMjURsAuSqzB9PtHQPsheD+8L6fBwZu6QHSJREBZKI/Bpxb1QAc+
Xj+n5azBhs7zQG4bzb/FR67BXTGSQFzg2UCgxLXBO/dXQIDky7+TvKjBiXGTQC/TFEFITrbBgF3/
QBNBokBZMqLBdx7HQOSApECcSZ/BOsrHQGqrMUB7EbnB2sKOQO/VM0ABSrfB7rTpQLl/xz/ss5jB
2wECQW+LRkDZbJXBc9HwQFGSmUCVYLXB7AP4QH3YMUAA/6jBHWwMQZIDKUF10KvBTDgUQVYSE0GP
ZKPBeOccQRn2E0GPFbHB4NJpQNgNX0CQDKbBrxVKQMkjbUDu24rB7+UYQBG4a0CGRpfB

> <OMEGA_E>
oJiRPrihoD5A0s0+6A/tPg==

> <OMEGA_NBR>
     62200

$$$$
286507
  -OEChem-04172616093D

 45 48  0     1  0  0  0  0  0999 V2000
    4.6686    0.3254  -20.7186 C   0  0  0  0  0  0  0  0  0  0  0  0
    4.7083   -1.0587  -20.9432 C   0  0  0  0  0  0  0  0  0  0  0  0
    6.5804    9.4252  -22.3713 C   0  0  0  0  0  0  0  0  0  0  0  0
    6.7072   -0.7876  -22.3043 C   0  0  0  0  0  0  0  0  0  0  0  0
    7.4705    8.6004  -23.0748 C   0  0  0  0  0  0  0  0  0  0  0  0
    5.6566    1.1795  -21.2767 C   0  0  0  0  0  0  0  0  0  0  0  0
    5.7256   -1.6144  -21.7350 C   0  0  0  0  0  0  0  0  0  0  0  0
    6.6829    0.5997  -22.0835 C   0  0  0  0  0  0  0  0  0  0  0  0
    5.7026    8.8357  -21.4442 C   0  0  0  0  0  0  0  0  0  0  0  0
    6.6332    6.7501  -21.9375 C   0  0  0  0  0  0  0  0  0  0  0  0
    4.3678    3.2088  -18.9038 C   0  0  0  0  0  0  0  0  0  0  0  0
    6.8900    4.8081  -20.3936 C   0  0  0  0  0  0  0  0  0  0  0  0
    5.3109    3.3665  -22.4214 C   0  0  0  0  0  0  0  0  0  0  0  0
    7.1441    2.6739  -19.0105 C   0  0  0  0  0  0  0  0  0  0  0  0
    6.6165    5.2671  -21.8301 C   0  0  1  0  0  0  0  0  0  0  0  0
    6.8999    3.2669  -20.4027 C   0  0  1  0  0  0  0  0  0  0  0  0
    5.5827    2.7016  -21.0432 C   0  0  2  0  0  0  0  0  0  0  0  0
    4.7591    9.7098  -20.6532 C   0  0  0  0  0  0  0  0  0  0  0  0
    7.4790    7.2768  -22.8501 N   0  0  0  0  0  0  0  0  0  0  0  0
    5.7474    7.5018  -21.2302 N   0  0  0  0  0  0  0  0  0  0  0  0
    4.3942    3.0807  -20.2131 N   0  3  0  0  0  0  0  0  0  0  0  0
    3.1485    3.4982  -18.3153 N   0  0  0  0  0  0  0  0  0  0  0  0
    5.3423    4.7891  -22.2855 O   0  0  0  0  0  0  0  0  0  0  0  0
    5.7573   -2.9462  -21.9543 F   0  0  0  0  0  0  0  0  0  0  0  0
    7.6510    1.3432  -22.6713 F   0  0  0  0  0  0  0  0  0  0  0  0
    5.7866    3.0796  -17.8549 S   0  0  0  0  0  0  0  0  0  0  0  0
    3.8782    0.7461  -20.1147 H   0  0  0  0  0  0  0  0  0  0  0  0
    3.9551   -1.6977  -20.5064 H   0  0  0  0  0  0  0  0  0  0  0  0
    6.5693   10.4922  -22.5385 H   0  0  0  0  0  0  0  0  0  0  0  0
    7.4854   -1.2204  -22.9155 H   0  0  0  0  0  0  0  0  0  0  0  0
    8.1488    9.0300  -23.7971 H   0  0  0  0  0  0  0  0  0  0  0  0
    7.8647    5.1894  -20.0551 H   0  0  0  0  0  0  0  0  0  0  0  0
    6.0994    5.1761  -19.7232 H   0  0  0  0  0  0  0  0  0  0  0  0
    6.0831    3.0507  -23.1382 H   0  0  0  0  0  0  0  0  0  0  0  0
    4.3213    3.0562  -22.7880 H   0  0  0  0  0  0  0  0  0  0  0  0
    7.2230    1.5802  -19.0978 H   0  0  0  0  0  0  0  0  0  0  0  0
    8.0855    3.0787  -18.6107 H   0  0  0  0  0  0  0  0  0  0  0  0
    7.4093    4.8596  -22.4746 H   0  0  0  0  0  0  0  0  0  0  0  0
    7.7329    2.9486  -21.0469 H   0  0  0  0  0  0  0  0  0  0  0  0
    4.1864    9.0886  -19.9489 H   0  0  0  0  0  0  0  0  0  0  0  0
    5.3368   10.4604  -20.0939 H   0  0  0  0  0  0  0  0  0  0  0  0
    4.0667   10.2177  -21.3407 H   0  0  0  0  0  0  0  0  0  0  0  0
    3.5386    3.2530  -20.7012 H   0  0  0  0  0  0  0  0  0  0  0  0
    3.0892    3.6274  -17.3255 H   0  0  0  0  0  0  0  0  0  0  0  0
    2.3271    3.5781  -18.8801 H   0  0  0  0  0  0  0  0  0  0  0  0
  1  2  2  0  0  0  0
  1  6  1  0  0  0  0
  2  7  1  0  0  0  0
  3  5  2  0  0  0  0
  3  9  1  0  0  0  0
  4  7  2  0  0  0  0
  4  8  1  0  0  0  0
  5 19  1  0  0  0  0
  6  8  2  0  0  0  0
  6 17  1  0  0  0  0
  7 24  1  0  0  0  0
  8 25  1  0  0  0  0
  9 18  1  0  0  0  0
  9 20  2  0  0  0  0
 10 15  1  0  0  0  0
 10 19  2  0  0  0  0
 10 20  1  0  0  0  0
 11 21  2  0  0  0  0
 11 22  1  0  0  0  0
 11 26  1  0  0  0  0
 12 15  1  0  0  0  0
 12 16  1  0  0  0  0
 13 17  1  0  0  0  0
 13 23  1  0  0  0  0
 14 16  1  0  0  0  0
 14 26  1  0  0  0  0
 15 23  1  0  0  0  0
 16 17  1  0  0  0  0
 17 21  1  0  0  0  0
  1 27  1  0  0  0  0
  2 28  1  0  0  0  0
  3 29  1  0  0  0  0
  4 30  1  0  0  0  0
  5 31  1  0  0  0  0
 12 32  1  0  0  0  0
 12 33  1  0  0  0  0
 13 34  1  0  0  0  0
 13 35  1  0  0  0  0
 14 36  1  0  0  0  0
 14 37  1  0  0  0  0
 15 38  1  0  0  0  0
 16 39  1  0  0  0  0
 18 40  1  0  0  0  0
 18 41  1  0  0  0  0
 18 42  1  0  0  0  0
 21 43  1  0  0  0  0
 22 44  1  0  0  0  0
 22 45  1  0  0  0  0
M  CHG  1  21   1
M  END
> <OMEGA_C>
dmWVQAicpj6ov6XBd6qWQEaDh7+8i6fBQ5LSQM7NFkF9+LLBp6HWQNyeSb9Pb7LBLg7vQGGbCUEp
mbjBQAO1QHv4lj+hNqrBMji3QDimzr9a4a3Bi9rVQJ6HGT8Yq7DBVHu2QPheDUGpjavBzELUQDIB
2EDvf6/BzcSLQP1cTUAAO5fBRHvcQNbbmUAxJqPBufKpQE11V0DyXrPBIpzkQJwgK0CRFZjBeLrT
QA6MqED+o67BOMzcQJAUUUDHOKPBx6WyQMfmLEB6WKjBTEqYQExbG0HROaXBPFTvQNzb6EDuzLbB
y+q3QFoO8EB116nBNZ2MQKQqRUBetKHB4IBJQBTjX0DUhZLB3fOqQHZAmUDCSLLBHDy4QP+NPMBW
oq/B+tT0QFvtqz/EXrXBFCy5QAgYRUDj1o7B7DR4QJgBPz/s6qDB3yB9QJNN2b8bDaTB5zfSQPjf
J0HATrTBc4jvQGs3nL/mUrfBp2ECQf16EEFgYL7B7qv7QHQPpkDtcKDBgy7DQLiipUAmyZ3BJ6nC
QCE/Q0ALG7nBS0iKQEGYQ0DoTbbBjiLnQClDyj9FyJjBLl4BQQEJRUDM4pTBJRntQO6Bm0D6y7PB
nnP3QHe1PED0X6jBm/aFQMVqEUFal5/B7MaqQLddJ0FJwKDBQCKCQJd7I0HPuarBgHhiQHkxUEAY
nKXBr7RFQKwnaEChmorBvu8UQLv/ZECGCpfBRCHWQMTqKj/6QrDB8pjZQE4dNL9kdrLBuQHUQKPr
FkEiy7LBE7yYQO3Ajr9YO6jBjzPxQPu+CUEGM7jB7e+zQLqmlj+N+KnB1+u6QF4ozL96bK7BXLmU
QNSjgz5KBKbBbh23QI14DUH6k6vB+/fTQK/p10Dguq/BaaCLQLJdT0DKHpfBTaDcQGyomUBXb6PB
jeypQEbGVUDBZrPBzILkQGylK0DCL5jBA4TTQB1PqECU7K7BXUDcQNKSUEALX6PBFYWxQNYrLUD6
NqjBRFqXQENpG0HqtaXBWdPwQC4J6UBqjLbBlA63QHT570CwPKrBS1OMQP7ASUBhnqHBNPVIQE6v
XkBjTJLB9eCqQOyZmEC0k7LBVA6+QCSSOsBmi7DBDXRkQDZGIz/jPKDBhD65QIhCRUC9047BD9rt
QEWJrD/VZrPBQNLzQMFAib9FQbfBT7jTQKj8J0FHJbTBg0aBQBti579uI6XBO/8DQXGtEEElsb3B
9x/8QM56pUD12KDBxcXDQEP3pUATBJ7B6CvDQNF6QEDo7LjB5ImKQGFtQUDid7bBEV/nQCNRyz8+
0JjB200BQQpkRkCUFJXB8fbsQBCDm0ALGLTBHGb2QNfkOkA8mqjBkZyCQAVWEUFrsaDBoqioQKrg
JkFNoKDBxqiDQHMtJEFjiqvBgzpjQGQNWkBQhqXBtBpFQO28Y0CCVorB7EMUQOyxZEDDxpbBei+V
QJrvpj7wk6TBg2OVQAYIib/UvKXBGQ7OQBoXGEEbJLDB3HLSQGgJab+MwLHBtFWqQEmtC0Fv9bLB
mcazQJQqkT+s+6nBqe2zQK8u2L8hVKzBXbPSQDjc+j4roLDBBP7zQCl+DUHKKq3BVCPSQPYW2UCm
06/BPriMQCoLT0AKj5fBH5TeQAHumECJJaTBllSrQO+fU0AK6rPBMqTlQA2PKkAsjJjBoYrUQGvK
qECtn6/B5bLdQNKjTkCQ26PBKPiyQL8kK0BnsKjB6o4NQWk8GkGhA6rBWtisQD5P7EDuvrLBZ3n1
QDzO70BzGK3BVmiNQEBkR0BnD6LBLP1LQFOlYkBZvZLByf6rQE2Gl0APLrPBRPOzQAceQsC7c63B
AfvwQNeslz9xCLbBZBm6QMfxQ0CZNo/B1fx6QFn2Sj8NhJ/Bzgl8QH3I1b/AjaHB/3bMQLpZKUGk
QLDBZd3pQDHlsb9y0bbBYdiMQAdhE0H+S7XB6nz+QJ9JpEA7wKHBF3HGQNCTpUB8k57BPK3EQIho
PkAlarnBWgaMQF7OPkCQ+7bBm8PoQF0myT8rGZnBRMgBQWzuRUD4a5XBRFjuQEcrnkDw/LTBzt/3
QHXbN0CZAanB5KcaQU07D0EJ8qfBhIASQShwJEHQvrDBFMEJQc9RJEGWDqPBuuJkQLe0VUCM+qXB
Hs9IQC0EakCFzYrBe0oXQOhqaUAbM5fBd43ZQE7C6T4OPqzBHgjaQFaYcL/seK3B36jMQKAqGEEQ
ErDBUjSNQAr8gL8YZqrBdiWpQP+RC0Ee3rLBcg+zQIaQkj9mq6nB7/CzQDw21r/PcqzB/lCMQMgS
yD6MJ6nBp9vyQFrBDUHeJK3BI73RQI5K2UAb46/BnO2MQHSOTkDJaZfBohLeQJTLmUB1E6TBLFqt
QAZcUUCq5bPBYjvmQNZELUA4YJjB/NjUQBkNqUAapa/Bqd/dQOyOUEAYuqPBOTizQEcSLEBbgKjB
eOgMQX6pGkFuBqrB2x6sQPkY7EDws7LBQ9L0QFZe8EBPJK3BGUaOQEl5S0AX7qHBSN5LQLhtYEA4
n5LByTOtQJ+slkAsgbPBd2W0QIMYQcBsnq3BzVNLQP1+eT8ZpKfBpzK6QIitQ0CyC4/BD9b2QEcC
gj/ZQ63BTrX3QNV8ub+8NK/Bs7TKQPpqKUG7KbDBj8BfQAdtyb/0xanBBnGLQB0hE0HMJrXBjpX9
QHeypUB7haHB5D/FQNU+pkApq57BX9PHQCenO0DoBbnBUsuOQLnKOkBZO7fBxJLqQL4Rzz+i55jB
X9ABQazBSkDtPJXBvYTvQDnmnkDxy7TBkBn4QCIrOkDj4qjBgyYaQcDED0HACqjBRaQRQQYAJUED
vrDBjxsJQQWeJEF3BaPBOshoQMXbX0Bs4qXBmSlIQGC/ZkCurIrBZ1AXQKAAZ0DsHJfB

> <OMEGA_E>
MJHKPtxx2T74zPI+mJUHPw==

> <OMEGA_NBR>
     65624

$$$$
286508
  -OEChem-04172616093D

 42 45  0     1  0  0  0  0  0999 V2000
    4.6172    0.3793  -20.6677 C   0  0  0  0  0  0  0  0  0  0  0  0
    4.6275   -1.0152  -20.8285 C   0  0  0  0  0  0  0  0  0  0  0  0
    6.6187   -0.8466  -22.2151 C   0  0  0  0  0  0  0  0  0  0  0  0
    5.6182    1.1893  -21.2698 C   0  0  0  0  0  0  0  0  0  0  0  0
    5.6281   -1.6278  -21.5991 C   0  0  0  0  0  0  0  0  0  0  0  0
    6.6225    0.5508  -22.0601 C   0  0  0  0  0  0  0  0  0  0  0  0
    6.6122    6.7880  -21.9366 C   0  0  0  0  0  0  0  0  0  0  0  0
    6.0099    8.8642  -21.6044 C   0  0  0  0  0  0  0  0  0  0  0  0
    4.3945    3.2653  -18.9381 C   0  0  0  0  0  0  0  0  0  0  0  0
    6.9761    4.8052  -20.4865 C   0  0  0  0  0  0  0  0  0  0  0  0
    5.3583    3.3731  -22.4714 C   0  0  0  0  0  0  0  0  0  0  0  0
    7.1572    2.6962  -19.0538 C   0  0  0  0  0  0  0  0  0  0  0  0
    6.6773    5.2972  -21.9132 C   0  0  1  0  0  0  0  0  0  0  0  0
    6.9325    3.2618  -20.4640 C   0  0  1  0  0  0  0  0  0  0  0  0
    5.5948    2.7248  -21.0798 C   0  0  2  0  0  0  0  0  0  0  0  0
    5.2735   10.0515  -21.0398 C   0  0  0  0  0  0  0  0  0  0  0  0
    5.8235    7.5446  -21.2137 N   0  0  0  0  0  0  0  0  0  0  0  0
    6.9038    8.9014  -22.5619 N   0  0  0  0  0  0  0  0  0  0  0  0
    4.4204    3.1609  -20.2508 N   0  3  0  0  0  0  0  0  0  0  0  0
    3.1677    3.4866  -18.3342 N   0  0  0  0  0  0  0  0  0  0  0  0
    7.2970    7.5827  -22.7870 O   0  0  0  0  0  0  0  0  0  0  0  0
    5.4017    4.8012  -22.3604 O   0  0  0  0  0  0  0  0  0  0  0  0
    5.6355   -2.9695  -21.7526 F   0  0  0  0  0  0  0  0  0  0  0  0
    7.5986    1.2458  -22.6912 F   0  0  0  0  0  0  0  0  0  0  0  0
    5.8284    3.2091  -17.9066 S   0  0  0  0  0  0  0  0  0  0  0  0
    3.8390    0.8425  -20.0793 H   0  0  0  0  0  0  0  0  0  0  0  0
    3.8644   -1.6177  -20.3585 H   0  0  0  0  0  0  0  0  0  0  0  0
    7.3829   -1.3221  -22.8120 H   0  0  0  0  0  0  0  0  0  0  0  0
    7.9747    5.1499  -20.1797 H   0  0  0  0  0  0  0  0  0  0  0  0
    6.2213    5.2050  -19.7934 H   0  0  0  0  0  0  0  0  0  0  0  0
    6.1414    3.0379  -23.1673 H   0  0  0  0  0  0  0  0  0  0  0  0
    4.3731    3.0671  -22.8531 H   0  0  0  0  0  0  0  0  0  0  0  0
    7.1780    1.5977  -19.1083 H   0  0  0  0  0  0  0  0  0  0  0  0
    8.1211    3.0627  -18.6710 H   0  0  0  0  0  0  0  0  0  0  0  0
    7.4775    4.9529  -22.5848 H   0  0  0  0  0  0  0  0  0  0  0  0
    7.7525    2.8992  -21.1014 H   0  0  0  0  0  0  0  0  0  0  0  0
    4.5650    9.7119  -20.2699 H   0  0  0  0  0  0  0  0  0  0  0  0
    5.9946   10.7507  -20.5914 H   0  0  0  0  0  0  0  0  0  0  0  0
    4.7234   10.5589  -21.8460 H   0  0  0  0  0  0  0  0  0  0  0  0
    3.5805    3.3936  -20.7411 H   0  0  0  0  0  0  0  0  0  0  0  0
    3.1131    3.6087  -17.3432 H   0  0  0  0  0  0  0  0  0  0  0  0
    2.3367    3.5241  -18.8892 H   0  0  0  0  0  0  0  0  0  0  0  0
  1  2  2  0  0  0  0
  1  4  1  0  0  0  0
  2  5  1  0  0  0  0
  3  5  2  0  0  0  0
  3  6  1  0  0  0  0
  4  6  2  0  0  0  0
  4 15  1  0  0  0  0
  5 23  1  0  0  0  0
  6 24  1  0  0  0  0
  7 13  1  0  0  0  0
  7 17  2  0  0  0  0
  7 21  1  0  0  0  0
  8 16  1  0  0  0  0
  8 17  1  0  0  0  0
  8 18  2  0  0  0  0
  9 19  2  0  0  0  0
  9 20  1  0  0  0  0
  9 25  1  0  0  0  0
 10 13  1  0  0  0  0
 10 14  1  0  0  0  0
 11 15  1  0  0  0  0
 11 22  1  0  0  0  0
 12 14  1  0  0  0  0
 12 25  1  0  0  0  0
 13 22  1  0  0  0  0
 14 15  1  0  0  0  0
 15 19  1  0  0  0  0
 18 21  1  0  0  0  0
  1 26  1  0  0  0  0
  2 27  1  0  0  0  0
  3 28  1  0  0  0  0
 10 29  1  0  0  0  0
 10 30  1  0  0  0  0
 11 31  1  0  0  0  0
 11 32  1  0  0  0  0
 12 33  1  0  0  0  0
 12 34  1  0  0  0  0
 13 35  1  0  0  0  0
 14 36  1  0  0  0  0
 16 37  1  0  0  0  0
 16 38  1  0  0  0  0
 16 39  1  0  0  0  0
 19 40  1  0  0  0  0
 20 41  1  0  0  0  0
 20 42  1  0  0  0  0
M  CHG  1  19   1
M  END
> <OMEGA_C>
47+TQOcvwj6MV6XByhSUQMDxgb/FoKbBrszTQOS4WL+IuLHBCsizQIg7mD9+KKrBrBm0QC9c0L8D
y6zBYuvTQNf+DD8Te7DBKpfTQJU32UA8fq/BZVHAQNjTDUHm1azBrZ+MQJ36UEA9gZfBmDzfQC/E
mUBT5KPBInerQBjhV0BrxbPBZwflQEKOLEArbpjBiqzVQH6CqUAuTq/BXtfdQNfAUEBVtqPBiwiz
QGhiLkB9o6jBnMCoQMvSIEF9UajBK1q6QFlt8UC1tanBkevcQAtsDkG1frTBS3SNQLVMSkCyAaLB
DLxKQL0jX0BnrJLBPIHpQKKl8kDBS7bBVNqsQCqjmUAZ4rLB21W0QG0MPsBABa7BbSfzQPh1nz+A
h7XBKYK6QM5hTUChQI/BkbF1QMWrVz92oqDB0FF3QH4Rz78m3qLB9UDsQOg7qb/mfrbBrjD/QLXL
pEANcKHB2BTHQJOPpkDvWJ7Bo4bEQIdsQkCoVrnBOPCLQB5MREA607bBb7LlQJOCzD/m3ZjB+u8B
QesCREBCXpXBA0jvQN19nkCrrbTBFBT4QLyLOUCxz6jBexSSQN9jG0HNKKLB7dO/QP0CLEE9u6TB
FyaXQCXxKEGHxK7BESdlQEYxWUDB7aXBjzxHQID1ZkDUvorB74wVQB+LYUAMHZfBmG/UQHOTIj9c
bLDBQnjXQG3/Pr9EQbLBoF6YQLaUjb+KQKfBjk+zQKK3lj/a9anBAIy5QPn5zr/cnq3BbK+UQPyw
jT7IbqXBAl3SQFa+2ECewq/B6Ey+QDeODUGeXK3Bup6MQFE5UkD2XpfBSKreQJeQmUD4DqTBmt+q
QP+vVUC0sbPBDmflQL0+LEAsjpjBkK7UQCMFqUAcf6/BVCXdQPM9UEAAz6PB8O6xQFPMLUBudKjB
iFelQGZvIEE2NKnBjJ+2QK6v8EAYrKrBVlreQKtbDkGoHLTBaiSNQK6QTECi3qHBFzhLQM8iYkCc
f5LBSpPrQAeO8kD8t7XBxPWrQBSlmEDiALPBQo28QN+nPMCSS6/BNztmQB+wLj+gbZ/B6Ei6QD10
RkBqIo/BMbPrQI4Zpj+Y/bPBdM3wQPqukb+fObfBuW6BQJQY5L9ctqPBvLz+QAWUpEDEsqHB8MDG
QBmPpkAiep7BTEzEQPPAP0CqILnBjZKLQBFUQUA00LbBRj3oQIxrzD/nGZnB8MUBQWoyR0CCgZXB
g0XuQBwMnkBt4bTBgN/2QNbGOEC0DKnBETKMQJnNGkFNuqPBawe7QKdMK0EI5qTBspWWQMj9KEGK
86/BD1RlQPFeXkChxaXBgKBHQEutZkACiIrBFH0WQPIUaUDC8pbBwNWRQHwb7j5D7aTBCGCPQH6+
br9DxaXBAG7PQBx7cb+u07DBgHmzQPS4lz+A+qnBMCWuQBRa0b8gt6vBbFvSQJKy6D7JBbDBFBbJ
QHu510A3oq3Bjtu+QFRKDkHHz6zBnn2PQLszWUCQQ5jBQnbkQCENmEAoqaTBaiixQLbIU0Asf7TB
joLnQEXNKkBk7ZjBvtfWQOzYqkDMra/BWB3hQGrLTUD4U6TBxru1QANgLkAfFqnBQt/DQHj7JUEI
ZK7BllTYQIEg/EAIJbHBhNSgQCjKBUHO56bBXMaQQN5sUUAfwKLBzHNRQGImb0AcnpPBCsGmQGn5
30DoXqfBTomwQLhtl0Bc/bPBVLmrQD6vPsCbjazB5AfzQKSuhz8POrXBlkC8QH7VSkD1xI/B/9Bz
QKHgfz+3Y6DB8pRrQHTZu7/k16HBh/PmQOSavr/taLXBI+kCQYBIoUCOD6PBAJTPQL56pUA+bJ7B
dGHMQA7dPkC0bLnBsieTQNTTPEA+GLjBF5/oQKL+yD+oSpnBFgUDQRIwQ0AlyJXBj7HxQNWUqUBC
XLXBw9j6QH+7M0BDX6nBnXDfQIYVKUFho7PB+rOmQBJ9LEHjFrLBHSPJQNW6LUGBmabB6PdtQFJx
ZECu2KbBdE1NQJRodkCpr4vBYq8dQJW4d0CtMpjBEPPRQAJCBT+0ILDB/LvRQLLjXr9piLHBftiR
QA4HhL9JhKbBCSGyQH+wlT//4qnBHcGxQLvN0r9ysqzB8XWRQCEmuj4+GqXBnJLIQByE1kDYPa3B
BKi7QJ94DUFHNazBCzqPQGixXEClGpjBGD7mQDdclkCEz6TBI2OxQLoNUkDPVrTB6D/mQF5JKUBh
uZjBalHXQFYZqkAKpa/BKJrgQAyFSkBNPqTBJY60QBSdLUC52ajBjge+QEE/JUEs463BJafVQDia
+0Cu3LDBo3+fQFBRBEHh+qXBmFiQQDIoVEAel6LBKUNQQGgab0BpY5PBDgynQJNL3UDyl6bByx+x
QMeYlkAG/bPBwZixQKovP8C7/q3B4QtiQGsIXz92NZ/BDHq8QGQ/UkBptI/B4sTqQEMNjj8X3LPB
gynqQJP9q78VVbbBaqtyQL5Y0b8Tz6LBLyoEQdHinUDmraPBxXXTQA7zpEC0Up7BRAnNQJYpPEBF
DLnBR66TQIlEO0CSGrjBUb7kQI7oxT+kzpjB8dgCQeXaPUAeuJXBRM/xQKoqqkBycLXBW7z5QMJQ
LUDcNKnBexDYQNTyKEFrg7PBuX6fQO0BK0FHL7HBA0LEQCAyLUEjMabBiwFuQA0QaUCKt6bBCzhM
QNAVdkDAc4vBD+sbQMhldUB57JfB

> <OMEGA_E>
oFRQPvBpeD7Mmvk+mjMJPw==

> <OMEGA_NBR>
     68892

$$$$
286509
  -OEChem-04172616093D

 39 42  0     1  0  0  0  0  0999 V2000
    4.5963    0.4148  -20.6389 C   0  0  0  0  0  0  0  0  0  0  0  0
    4.5839   -0.9838  -20.7648 C   0  0  0  0  0  0  0  0  0  0  0  0
    6.5975   -0.8821  -22.1238 C   0  0  0  0  0  0  0  0  0  0  0  0
    5.8708    8.9144  -21.5800 C   0  0  0  0  0  0  0  0  0  0  0  0
    5.6179    1.1965  -21.2480 C   0  0  0  0  0  0  0  0  0  0  0  0
    5.5808   -1.6322  -21.5100 C   0  0  0  0  0  0  0  0  0  0  0  0
    6.6241    0.5199  -22.0014 C   0  0  0  0  0  0  0  0  0  0  0  0
    6.5570    6.8569  -21.9471 C   0  0  0  0  0  0  0  0  0  0  0  0
    4.4185    3.2659  -18.9679 C   0  0  0  0  0  0  0  0  0  0  0  0
    6.9599    4.8484  -20.5074 C   0  0  0  0  0  0  0  0  0  0  0  0
    5.4041    3.3754  -22.5064 C   0  0  0  0  0  0  0  0  0  0  0  0
    7.2014    2.7099  -19.1036 C   0  0  0  0  0  0  0  0  0  0  0  0
    6.6635    5.3552  -21.9355 C   0  0  1  0  0  0  0  0  0  0  0  0
    6.9460    3.2977  -20.4999 C   0  0  1  0  0  0  0  0  0  0  0  0
    5.6136    2.7431  -21.1037 C   0  0  2  0  0  0  0  0  0  0  0  0
    6.8445    8.9524  -22.4564 N   0  0  0  0  0  0  0  0  0  0  0  0
    7.2718    7.6655  -22.6878 N   0  0  0  0  0  0  0  0  0  0  0  0
    4.4482    3.2067  -20.2827 N   0  3  0  0  0  0  0  0  0  0  0  0
    3.1982    3.5151  -18.3611 N   0  0  0  0  0  0  0  0  0  0  0  0
    5.6755    7.6150  -21.2460 O   0  0  0  0  0  0  0  0  0  0  0  0
    5.4122    4.8134  -22.4091 O   0  0  0  0  0  0  0  0  0  0  0  0
    5.5563   -2.9763  -21.6453 F   0  0  0  0  0  0  0  0  0  0  0  0
    7.6214    1.1845  -22.6302 F   0  0  0  0  0  0  0  0  0  0  0  0
    5.8402    3.0792  -17.9303 S   0  0  0  0  0  0  0  0  0  0  0  0
    3.8188    0.9046  -20.0714 H   0  0  0  0  0  0  0  0  0  0  0  0
    3.8061   -1.5614  -20.2875 H   0  0  0  0  0  0  0  0  0  0  0  0
    7.3646   -1.3849  -22.6940 H   0  0  0  0  0  0  0  0  0  0  0  0
    5.3242    9.7625  -21.1947 H   0  0  0  0  0  0  0  0  0  0  0  0
    7.9489    5.2084  -20.1877 H   0  0  0  0  0  0  0  0  0  0  0  0
    6.1915    5.2259  -19.8168 H   0  0  0  0  0  0  0  0  0  0  0  0
    6.2146    3.0517  -23.1759 H   0  0  0  0  0  0  0  0  0  0  0  0
    4.4375    3.0440  -22.9138 H   0  0  0  0  0  0  0  0  0  0  0  0
    7.3043    1.6184  -19.1931 H   0  0  0  0  0  0  0  0  0  0  0  0
    8.1350    3.1350  -18.7067 H   0  0  0  0  0  0  0  0  0  0  0  0
    7.4848    5.0449  -22.5982 H   0  0  0  0  0  0  0  0  0  0  0  0
    7.7633    2.9604  -21.1543 H   0  0  0  0  0  0  0  0  0  0  0  0
    3.6261    3.4946  -20.7740 H   0  0  0  0  0  0  0  0  0  0  0  0
    3.1399    3.5844  -17.3652 H   0  0  0  0  0  0  0  0  0  0  0  0
    2.3757    3.6256  -18.9190 H   0  0  0  0  0  0  0  0  0  0  0  0
  1  2  1  0  0  0  0
  1  5  2  0  0  0  0
  2  6  2  0  0  0  0
  3  6  1  0  0  0  0
  3  7  2  0  0  0  0
  4 16  2  0  0  0  0
  4 20  1  0  0  0  0
  5  7  1  0  0  0  0
  5 15  1  0  0  0  0
  6 22  1  0  0  0  0
  7 23  1  0  0  0  0
  8 13  1  0  0  0  0
  8 17  2  0  0  0  0
  8 20  1  0  0  0  0
  9 18  2  0  0  0  0
  9 19  1  0  0  0  0
  9 24  1  0  0  0  0
 10 13  1  0  0  0  0
 10 14  1  0  0  0  0
 11 15  1  0  0  0  0
 11 21  1  0  0  0  0
 12 14  1  0  0  0  0
 12 24  1  0  0  0  0
 13 21  1  0  0  0  0
 14 15  1  0  0  0  0
 15 18  1  0  0  0  0
 16 17  1  0  0  0  0
  1 25  1  0  0  0  0
  2 26  1  0  0  0  0
  3 27  1  0  0  0  0
  4 28  1  0  0  0  0
 10 29  1  0  0  0  0
 10 30  1  0  0  0  0
 11 31  1  0  0  0  0
 11 32  1  0  0  0  0
 12 33  1  0  0  0  0
 12 34  1  0  0  0  0
 13 35  1  0  0  0  0
 14 36  1  0  0  0  0
 18 37  1  0  0  0  0
 19 38  1  0  0  0  0
 19 39  1  0  0  0  0
M  CHG  1  18   1
M  END
> <OMEGA_C>
kBSTQPti1D6AHKXBaK+SQEnde79RHqbBjR7TQD3RYb+H/bDBUt27QGKhDkHjo6zBt8WzQBoomT/w
+6nBEZayQIDr0L9qFKzBufjTQP8WBT/kArDB+9LRQIlr20Cok6/B+2ONQOYDUUBQvpfBj7feQAQm
m0AfD6TBGu6sQEoGWEAUDbTBgnHmQJ5vLUAv1JjBuTvVQABeq0Dpe6/BtUXeQJ8NU0DM/6PB+6Kz
QESOL0BH1KjBbQbbQAU9D0GkprPBl7LoQGFL9UCogLXBTVeOQOg6TUASQ6LBLq9MQOn2YECF45LB
xZ21QMat80C996nBBzGtQIAHmkDGRbPBz8yxQC57PsB8Ka3Bs+LzQDSelz++CrXBn+K6QBARRUBM
cY/B9Wd0QGqWZz8ukqDB0ZZzQGPax7+0TKLBoqrrQPlEsb9OjbXB9F+qQA0zHEHEjqnByV3+QEKr
pkBxgKHBcyDGQPQ6p0DAiJ7B7d3GQI1OQ0BCaLnBRgCOQGTRQkCNT7fBJb3pQNoozz+Ii5nBGikC
QbejSEA5p5XB3IPvQCZwoUAiybTBHW34QGF3PUABPKnB9hFoQLanX0ArMabBrPRIQAxnZUDw64rB
2goYQOcJaEANWpfB/b7TQG7zGD8rTbDBGz/WQBEiS7+AxbHBGL+WQJL0ir8ZzabBTMq7QGgpDkG7
cKzBFLayQGYJlz+7CarBl+i3QAhY0b9N9KzB33yTQKDCnD6QYaXBzsTRQNWf2kAWoq/BjVyNQEHX
VECQqpfBH5zfQK3umUBjV6TB01esQJeIVkCgA7TBZ5nlQCxiLEAQ3JjB/1DVQId+qkAhr6/Borzd
QDRyUEBrIaTBsV2yQHKfLkAtvajBrt7aQH/7DkG6d7PBr4XoQLnh9EDNe7XB8smNQNn3TkC1LKLB
1qxMQFaOY0BUvpLBHZK1QPyR8kD866nB5AatQKBPmUCcVrPB7We6QK5aPsDDRK7B1EpjQAO7Pj8a
oZ/BH3S7QKTsTEDCgI/BpmDrQC0knj+HALTBS4PvQIx8m7+wm7bBxPF+QDZq3r+KHaPBOlaqQJmi
G0EHPqnB8OH/QE6IpEDSCKLBwA/IQHHdpkDPp57Bw2bGQA/yQEBrR7nBNHONQFS5QUClVbfB4WPm
QGUszD8CS5nBQkgCQRAdREBl6JXBxT7vQLzYoEACILXBNGr3QA2eOEBsXKnBoflmQCSuYUDdFabB
w4xJQDZmaUBWyYrBf3QXQAtWaECEJZfBBv6PQOwc2D43xKTBph6NQGRVer8JVKXB1+DNQKBchb+o
F7DBA3jNQABaD0EfW7DBGDKyQByLjz98zanBBP+rQLLi2r9S/6rB5zTRQLCIuD7Vja/BTV3OQF7J
2ECfVq7BTwSPQGbtVEAqOpjBtzbjQMDflkD2cqTBSeGwQGF/UUBSbbTBMwDnQABaJkDC9ZjBpWrX
QOKRqUADl6/BOWbgQBS0SkDHR6TBghS1QEfpKkA1DqnByXuwQK40CkEXPKnB1dawQLbI6ECuC6jB
ylSQQAl4TkD6uaLB87RQQBcXa0AljpPB13zgQNrs+UBqrbPBDo+wQKC/lkAZzrPBT/6oQE2UQ8A0
mqvBpW7yQISXcT+DsLTB7cy7QPyERUBswY/Bf8ZvQKQKej+6cqDBAzpmQGTpvr9YZKHBwo/lQGTh
zb8GdbTBv+bUQORQH0FVF7PBjw0CQQeBoEBWcaLBEv/MQJnao0CxcZ7BniLMQG+dPEChWLnBO+CS
QC9GO0BzGLjByRjoQO4vwD9rcpnBSMgCQftdPkByypXBCVPyQA/FpECPIrXBAjX6QAvTMUCqZKnB
EpNtQJDmYkAG0KbBUqhMQCrwcUAHnovBO/YcQM47dEBJH5jBZGnRQOBv5z7aza/Bz03RQMgEcr8D
9bDBqvCQQBBiir9iG6bBlM3NQNb8DkFJJbDBSEixQAbdjj/xx6nBxTexQE4t2783DKzBdEyQQIjo
oj5a/6TBwYvOQIr210DqT67ByMWOQE1cV0C4FZjBDq/jQArZlUCvfqTB236wQDlWUED2TbTB4kzm
QNnOJECw5ZjBt7fXQMbDqEDGm6/BBrDfQCSvSEApP6TBetWzQAyZKkDC3qjBtfivQE+sCUE2R6nB
6D2wQDar50C3NKjBN9uPQCHCUEALlaLBHj5QQDsvbUAeYZPBIjzhQLZZ+UBCbrPBxsawQFYplkC7
07PBfjmxQL+qQ8B1D63BLmNeQMwLVj+DZp/BTGK7QOYSRUCTpI/B3mLqQFgOhD8/kbPBHOvpQEMC
t79kn7XBoqZwQA2C1r+PWKLBBo3VQA4EH0GKurLBBnUCQQKynkCfnaLBsiPOQP1zo0BsbJ7BY9vL
QPdAOkB9GrnBnIiSQMKZOkAiCrjBbBrnQHIGvT8rVZnBX4ICQT56PEDyx5XBQ43yQJcZpEDbLrXB
jgH5QL5QLkBLZanBaF1tQLr4ZkCnqqbBh/FLQB86ckAgbIvBK8UcQCjjd0AG8ZfB

> <OMEGA_E>
UE5mPlDPgz7I5O0+8HD9Pg==

> <OMEGA_NBR>
     72004

$$$$
286511
  -OEChem-04172616093D

 43 46  0     1  0  0  0  0  0999 V2000
    4.6220    0.3778  -20.6591 C   0  0  0  0  0  0  0  0  0  0  0  0
    4.6404   -1.0157  -20.8254 C   0  0  0  0  0  0  0  0  0  0  0  0
    6.6399   -0.8313  -22.1988 C   0  0  0  0  0  0  0  0  0  0  0  0
    5.7329    7.5814  -21.2572 C   0  0  0  0  0  0  0  0  0  0  0  0
    5.6238    1.1940  -21.2511 C   0  0  0  0  0  0  0  0  0  0  0  0
    5.6502   -1.6198  -21.5911 C   0  0  0  0  0  0  0  0  0  0  0  0
    6.6358    0.5646  -22.0378 C   0  0  0  0  0  0  0  0  0  0  0  0
    6.5912    6.7865  -21.9647 C   0  0  0  0  0  0  0  0  0  0  0  0
    5.9961    8.9523  -21.6664 C   0  0  0  0  0  0  0  0  0  0  0  0
    4.3866    3.2296  -18.9250 C   0  0  0  0  0  0  0  0  0  0  0  0
    6.9405    4.8225  -20.4774 C   0  0  0  0  0  0  0  0  0  0  0  0
    5.3373    3.3662  -22.4593 C   0  0  0  0  0  0  0  0  0  0  0  0
    7.1714    2.7035  -19.0541 C   0  0  0  0  0  0  0  0  0  0  0  0
    6.6489    5.2970  -21.9160 C   0  0  1  0  0  0  0  0  0  0  0  0
    6.9202    3.2811  -20.4555 C   0  0  1  0  0  0  0  0  0  0  0  0
    5.5878    2.7275  -21.0664 C   0  0  2  0  0  0  0  0  0  0  0  0
    5.2673   10.1612  -21.1420 C   0  0  0  0  0  0  0  0  0  0  0  0
    6.9548    8.9338  -22.5621 N   0  0  0  0  0  0  0  0  0  0  0  0
    4.4164    3.1596  -20.2381 N   0  3  0  0  0  0  0  0  0  0  0  0
    3.1614    3.4658  -18.3235 N   0  0  0  0  0  0  0  0  0  0  0  0
    7.3409    7.5902  -22.7610 O   0  0  0  0  0  0  0  0  0  0  0  0
    5.3736    4.7945  -22.3566 O   0  0  0  0  0  0  0  0  0  0  0  0
    5.6674   -2.9606  -21.7486 F   0  0  0  0  0  0  0  0  0  0  0  0
    7.6121    1.2673  -22.6599 F   0  0  0  0  0  0  0  0  0  0  0  0
    5.8090    3.0768  -17.8858 S   0  0  0  0  0  0  0  0  0  0  0  0
    3.8375    0.8352  -20.0746 H   0  0  0  0  0  0  0  0  0  0  0  0
    3.8768   -1.6241  -20.3638 H   0  0  0  0  0  0  0  0  0  0  0  0
    7.4094   -1.3006  -22.7939 H   0  0  0  0  0  0  0  0  0  0  0  0
    5.0005    7.2545  -20.5340 H   0  0  0  0  0  0  0  0  0  0  0  0
    7.9297    5.1849  -20.1607 H   0  0  0  0  0  0  0  0  0  0  0  0
    6.1712    5.2132  -19.7950 H   0  0  0  0  0  0  0  0  0  0  0  0
    6.1171    3.0313  -23.1592 H   0  0  0  0  0  0  0  0  0  0  0  0
    4.3510    3.0526  -22.8318 H   0  0  0  0  0  0  0  0  0  0  0  0
    7.2763    1.6116  -19.1362 H   0  0  0  0  0  0  0  0  0  0  0  0
    8.1034    3.1327  -18.6576 H   0  0  0  0  0  0  0  0  0  0  0  0
    7.4500    4.9377  -22.5786 H   0  0  0  0  0  0  0  0  0  0  0  0
    7.7387    2.9349  -21.1037 H   0  0  0  0  0  0  0  0  0  0  0  0
    5.6599   11.0663  -21.6285 H   0  0  0  0  0  0  0  0  0  0  0  0
    4.1933   10.0647  -21.3596 H   0  0  0  0  0  0  0  0  0  0  0  0
    5.4159   10.2357  -20.0547 H   0  0  0  0  0  0  0  0  0  0  0  0
    3.5831    3.4178  -20.7271 H   0  0  0  0  0  0  0  0  0  0  0  0
    3.0999    3.5450  -17.3285 H   0  0  0  0  0  0  0  0  0  0  0  0
    2.3384    3.5571  -18.8842 H   0  0  0  0  0  0  0  0  0  0  0  0
  1  2  2  0  0  0  0
  1  5  1  0  0  0  0
  2  6  1  0  0  0  0
  3  6  2  0  0  0  0
  3  7  1  0  0  0  0
  4  8  2  0  0  0  0
  4  9  1  0  0  0  0
  5  7  2  0  0  0  0
  5 16  1  0  0  0  0
  6 23  1  0  0  0  0
  7 24  1  0  0  0  0
  8 14  1  0  0  0  0
  8 21  1  0  0  0  0
  9 17  1  0  0  0  0
  9 18  2  0  0  0  0
 10 19  2  0  0  0  0
 10 20  1  0  0  0  0
 10 25  1  0  0  0  0
 11 14  1  0  0  0  0
 11 15  1  0  0  0  0
 12 16  1  0  0  0  0
 12 22  1  0  0  0  0
 13 15  1  0  0  0  0
 13 25  1  0  0  0  0
 14 22  1  0  0  0  0
 15 16  1  0  0  0  0
 16 19  1  0  0  0  0
 18 21  1  0  0  0  0
  1 26  1  0  0  0  0
  2 27  1  0  0  0  0
  3 28  1  0  0  0  0
  4 29  1  0  0  0  0
 11 30  1  0  0  0  0
 11 31  1  0  0  0  0
 12 32  1  0  0  0  0
 12 33  1  0  0  0  0
 13 34  1  0  0  0  0
 13 35  1  0  0  0  0
 14 36  1  0  0  0  0
 15 37  1  0  0  0  0
 17 38  1  0  0  0  0
 17 39  1  0  0  0  0
 17 40  1  0  0  0  0
 19 41  1  0  0  0  0
 20 42  1  0  0  0  0
 20 43  1  0  0  0  0
M  CHG  1  19   1
M  END
> <OMEGA_C>
o+eTQL5rwT7pRaXBUX6UQFoDgr9ymqbBX3rUQJnRVL8vl7HBvnO3QIua8kDYDqrBK/azQJfUmD8z
AqrBk860QHpVz7+AuqzBeVjUQO2HED9+TbDBN+vSQN4q2UCjt6/BSuC/QG08D0HRVK3B+F6MQPSx
TkBQZpfBhRjeQEFSmkCe0aPBfsuqQIxvV0CZrLPBD3zlQKgGLUC6bpjB+sPUQP6AqUDmU6/Bc3Ld
QOf8UUDgpKPBSM+yQCmPLkADiKjBYo2oQFOUIkHrIqnBe43eQMPwDkE9f7TByVKNQEo3SkC556HB
klRKQI/PXUB1lpLB9ujqQPni8kCbFrbBLvSrQIpsmUBN2rLBolu1QBh7PcA6/a3BeZbzQFI4oj9n
R7XBN+O5QLfpREAgFo/B5Jl1QO/PVT+9mKDB1Bx4QO3hz7/46KLBABrtQM14pr/iWbbB3wOgQMAk
6ECSRaTBx7/9QJTqpUApSaHBpXrFQHzSpkAmXJ7BTL/DQGQBQkD6RbnBezuLQI1dQ0Cgp7bBx9fo
QAdKzj/zFpnBmKcBQcJ9SEDPQpXBzGbuQE0BnkD2oLTBlaP3QJjUO0By1KjBoh21QJAPMUFBB63B
oy+GQN8IIUFx4KrBu06tQJ/FI0H/b6DBDFJlQJS8WkAq0aXBPGRGQOzhYkDLoIrBFakVQNSmY0DL
EpfB8RLVQJbQIT+3OrDBMybYQH06P79cI7LB5E+YQGCSjr/TaqfB2y62QKV+8UA2ZarBXoGzQMLW
lT8h46nBY8S5QHFXz79Fua3BZp2UQJ7niD7Qg6XBA4zSQA1e2ECK3q/BJ/6+QOfIDkEtcq3BfkeM
QAJEUUBAU5fBbGTeQJ5rmUCyDKTBEr+qQL7cVEBDqrPBxSLlQEFTLEBTeZjBvbDUQOqeqEDsia/B
TfLcQNUSUEBUvqPBBtOxQPdWLUDTZqjB6uamQFoDIkGJYKnBf8PeQMGxDkHnTrTBAe2MQHPvS0Dn
06HBGEZKQKn5X0CgdJLBAnLrQO168kB967XBnPGrQBxAmEClC7PBJXO8QOSYPMDZm6/ByFxlQIGm
Kz/xoJ/BePu5QJTGRkC9FI/BqabsQIf1pT+CpLPB/N3xQPZpkb+i/7bBwiyBQJhn5b+7/aPBBeid
QOiz5kCV3qTBC2H+QJCJpEDWpaHBtk3GQBR9pkDlhp7BdxzEQKmRPkDXF7nB2GaLQNuFQEA9wrbB
gPbnQESNzD9e/pjBO6IBQUBTR0BtbJXBmlXuQFdpnUBB4LTBLrz2QMqEOECW9ajBGPmzQDKYMEHf
EK3B3teEQLd1IEGodavBBkqqQDAGI0HtoaDBz/5kQIzeXUD2vaXBfZNGQCNiZEDrfIrBx3cVQB8v
ZkCO6JbBdxmQQGj04j5j8aTBeyGNQFAHdL/NwKXB2b7NQNyZfr+8mrDB47nXQMtf+0DzM7HB5l+y
QMS1kj9H36nB1PurQGrj1b8ejqvBhzPRQJi2zT5m1K/BpUDJQOt/1UCkJK3B8Pm8QD5LDkEtU6zB
Og6PQAGXVkB8I5jBwSHlQAWwlUCcZaTBgWGxQKsMUUA9V7TB68XmQMX9JUBNs5jBqDnXQNrvqEAt
WK/BFvXgQIpYSUCsGqTB9mm1QKmZK0Ba76jBr7i/QP39JUFJKK7B0hChQGgPBUHaCKbBx6eQQKAE
UECKoqLB8iBQQCsra0A1g5PBSfqnQDEV3kA8eabBZ/qwQLTzlUCLwrPBYS2pQKjuQMBYUKzB52Ly
QNnffT8t87TB75u7QDmSR0ApmY/B4C1wQPNqfT8Mh6DB8i5mQDv1vL8O6aHBQTjlQBucxr94HbXB
nYbxQOrr/0CQ1rbB+V0DQddOnkCt56LBzNbQQCxco0AjEp7BXL7MQGH/O0ANNrnB1XaTQNt+OkC3
BbjB4TrnQH9Svz9EE5nBX7oCQYgwPUAOgpXBDg7yQF0sqECrCbXBmJP6QJZ4LkAVHqnBm+KmQLsg
LkFLbqnBM3XfQBvIK0F4r6vBoNe6QFxvKUFis7bBHaZuQK77ZEDywqbBuHFLQIEdcUCWkYvB95Ec
QF8QdECzHpjBxODRQHbz9T7E7K/BBD/RQFAyaL+lhbHB64eQQGCpiL9czqbB1d7UQOqW+0BNeLDB
7tmxQPs6kD+nvKnB5p6wQMgs17/B8KzBWpOQQIK/pT40MqXBFFjHQLXU1EDmtqzBnRm5QPvGDUG+
aKvBzaiOQAEFWUCe6JfBlqvlQMfYlEAdZaTB8YmxQKhIT0AtGbTBgL7lQDiuJUDFbJjBm6nWQMTB
qEAFMq/B6EvgQFh2R0BI7KPBdWW0QLutKkBCnqjB+gK7QESkJUEyyazBPo+dQLrOA0GZTKXBZxaQ
QK0qUUAAZqLBvuVOQG15a0B9QpPBx6ilQHjL20BiC6bBpeCwQKIhlUDXr7PBWvSvQMAcQcAydq7B
5NtfQLfDVD8HX5/BBKK7QLOvTUACbo/BnizrQKbDiD+ddrPBSdjpQGyDsL/wRbbBahpvQBfX1b95
SaPBqbDuQG+9AEFkBbbB+doDQcqInECEPqPBX8nSQA8mo0DF4p3BJnjNQAkEOkBhv7jBpRWUQMMd
OEAS87fBMm/kQIGtvj/rkZjBc4cCQdFtOkC5WpXBhE7xQD1tqUCT8bTB6pf5QFvBKkAr4ajBRuuh
QI0wLUEg56fBvI3aQEuDK0F7NarBk/i1QDiyKUGJQbXBP91tQA2YZkARjqbBwFdKQH8BckBnUovB
2+MaQOJAckAv2JfB

> <OMEGA_E>
YIjuPegGHz606PM+trcGPw==

> <OMEGA_NBR>
     75324

$$$$
286512
  -OEChem-04172616093D

 42 45  0     1  0  0  0  0  0999 V2000
    4.6423    0.4034  -20.6809 C   0  0  0  0  0  0  0  0  0  0  0  0
    4.6697   -0.9906  -20.8397 C   0  0  0  0  0  0  0  0  0  0  0  0
    6.6514   -0.7984  -22.2375 C   0  0  0  0  0  0  0  0  0  0  0  0
    5.6295    1.2247  -21.2896 C   0  0  0  0  0  0  0  0  0  0  0  0
    5.6765   -1.5916  -21.6113 C   0  0  0  0  0  0  0  0  0  0  0  0
    6.6345    0.5994  -22.0891 C   0  0  0  0  0  0  0  0  0  0  0  0
    6.6015    6.8193  -21.9385 C   0  0  0  0  0  0  0  0  0  0  0  0
    5.9391    8.8738  -21.5823 C   0  0  0  0  0  0  0  0  0  0  0  0
    4.3996    3.2629  -18.9415 C   0  0  0  0  0  0  0  0  0  0  0  0
    6.9670    4.8397  -20.4800 C   0  0  0  0  0  0  0  0  0  0  0  0
    5.3485    3.4158  -22.4739 C   0  0  0  0  0  0  0  0  0  0  0  0
    7.1731    2.7059  -19.0741 C   0  0  0  0  0  0  0  0  0  0  0  0
    6.6714    5.3315  -21.9087 C   0  0  1  0  0  0  0  0  0  0  0  0
    6.9328    3.2955  -20.4726 C   0  0  1  0  0  0  0  0  0  0  0  0
    5.5966    2.7573  -21.0897 C   0  0  2  0  0  0  0  0  0  0  0  0
    5.1916   10.0606  -21.0339 C   0  0  0  0  0  0  0  0  0  0  0  0
    7.2642    7.6011  -22.7500 N   0  0  0  0  0  0  0  0  0  0  0  0
    6.8543    8.8910  -22.5211 N   0  0  0  0  0  0  0  0  0  0  0  0
    4.4250    3.1828  -20.2551 N   0  3  0  0  0  0  0  0  0  0  0  0
    3.1758    3.5007  -18.3372 N   0  0  0  0  0  0  0  0  0  0  0  0
    5.7694    7.5891  -21.2018 O   0  0  0  0  0  0  0  0  0  0  0  0
    5.3930    4.8416  -22.3504 O   0  0  0  0  0  0  0  0  0  0  0  0
    5.7031   -2.9336  -21.7582 F   0  0  0  0  0  0  0  0  0  0  0  0
    7.5913    1.3078  -22.7353 F   0  0  0  0  0  0  0  0  0  0  0  0
    5.8274    3.1314  -17.9067 S   0  0  0  0  0  0  0  0  0  0  0  0
    3.8614    0.8576  -20.0890 H   0  0  0  0  0  0  0  0  0  0  0  0
    3.9150   -1.6021  -20.3675 H   0  0  0  0  0  0  0  0  0  0  0  0
    7.4191   -1.2652  -22.8368 H   0  0  0  0  0  0  0  0  0  0  0  0
    7.9615    5.1897  -20.1660 H   0  0  0  0  0  0  0  0  0  0  0  0
    6.2057    5.2304  -19.7887 H   0  0  0  0  0  0  0  0  0  0  0  0
    6.1259    3.0864  -23.1790 H   0  0  0  0  0  0  0  0  0  0  0  0
    4.3602    3.1129  -22.8499 H   0  0  0  0  0  0  0  0  0  0  0  0
    7.2378    1.6109  -19.1570 H   0  0  0  0  0  0  0  0  0  0  0  0
    8.1217    3.1005  -18.6810 H   0  0  0  0  0  0  0  0  0  0  0  0
    7.4697    4.9837  -22.5809 H   0  0  0  0  0  0  0  0  0  0  0  0
    7.7504    2.9473  -21.1209 H   0  0  0  0  0  0  0  0  0  0  0  0
    5.5285   10.9747  -21.5446 H   0  0  0  0  0  0  0  0  0  0  0  0
    4.1130    9.9236  -21.2012 H   0  0  0  0  0  0  0  0  0  0  0  0
    5.3869   10.1502  -19.9551 H   0  0  0  0  0  0  0  0  0  0  0  0
    3.5863    3.4281  -20.7413 H   0  0  0  0  0  0  0  0  0  0  0  0
    3.1186    3.5927  -17.3431 H   0  0  0  0  0  0  0  0  0  0  0  0
    2.3497    3.5802  -18.8951 H   0  0  0  0  0  0  0  0  0  0  0  0
  1  2  2  0  0  0  0
  1  4  1  0  0  0  0
  2  5  1  0  0  0  0
  3  5  2  0  0  0  0
  3  6  1  0  0  0  0
  4  6  2  0  0  0  0
  4 15  1  0  0  0  0
  5 23  1  0  0  0  0
  6 24  1  0  0  0  0
  7 13  1  0  0  0  0
  7 17  2  0  0  0  0
  7 21  1  0  0  0  0
  8 16  1  0  0  0  0
  8 18  2  0  0  0  0
  8 21  1  0  0  0  0
  9 19  2  0  0  0  0
  9 20  1  0  0  0  0
  9 25  1  0  0  0  0
 10 13  1  0  0  0  0
 10 14  1  0  0  0  0
 11 15  1  0  0  0  0
 11 22  1  0  0  0  0
 12 14  1  0  0  0  0
 12 25  1  0  0  0  0
 13 22  1  0  0  0  0
 14 15  1  0  0  0  0
 15 19  1  0  0  0  0
 17 18  1  0  0  0  0
  1 26  1  0  0  0  0
  2 27  1  0  0  0  0
  3 28  1  0  0  0  0
 10 29  1  0  0  0  0
 10 30  1  0  0  0  0
 11 31  1  0  0  0  0
 11 32  1  0  0  0  0
 12 33  1  0  0  0  0
 12 34  1  0  0  0  0
 13 35  1  0  0  0  0
 14 36  1  0  0  0  0
 16 37  1  0  0  0  0
 16 38  1  0  0  0  0
 16 39  1  0  0  0  0
 19 40  1  0  0  0  0
 20 41  1  0  0  0  0
 20 42  1  0  0  0  0
M  CHG  1  19   1
M  END
> <OMEGA_C>
hI2UQDuIzj6VcqXBVm6VQC2bfb+/t6bBYNjUQFxkTL9O5rHBsiS0QE7EnD8qUarBB6a1QP23y7//
46zBK07UQC5yGT+UtrDBvT/TQLg32kD1ga/BXQ2+QPb6DUGhqKzBosmMQBLUUEBHiJfB3PHeQAHf
mkD01qPBMCerQJmcWkB3yrPBE4rlQFMtLUC+l5jBAnzVQKKbqkATRa/Bj9ndQMToUkDrx6PBwBez
QAR4MEDGt6jBVCGmQAv4IEF/RajBrnToQBY880D0/7XBnVbbQJNBDkEyK7TB15mNQJOzS0BZCqLB
AUFLQD0LYECIspLBzp64QOLZ8kA6nanBNJOsQDPumkCdzbLBmX+2QJC/O8DZEK7Bz+vyQNpmpz/h
4bXBLXq6QBxoSEAGQY/B3iF3QDeKWz9EtqDBuY96QHsQzb+e8KLBKWntQMDxob+5sbbBdsT+QEwS
pkAMVKHBXpXGQK1fp0BWT57B/QbEQKyHRUCpbrnBhIaLQFE6R0CYzLbBtJvnQPkyzj+gQZnBWfIB
QSRuRkCocpXBiwfvQEh6n0CbpbTBMQP4QBegPECw96jBTOmwQHGYL0FjW6zB2Z2DQPrGHkH+m6nB
O2GsQDZnIkEapJ/BUYZlQK9mW0AZ7qXBkJdHQE/vZUCYvorBJWIWQLUiZUAQKZfB+vrUQKLELD83
fbDBEdbXQIUFNL/ifLLBRMOYQK7Kib+cgafB68+zQObpmj9EAKrBprC5QM4Myr+s/63BZkeVQCIu
mz57gqXBZdjSQHXq2UBrmK/BCra9QBzYDUF4qqzBq4uMQCR3U0AoYpfBALTeQKiqmkCd8KPBsmer
QLE+WEAGsLPB0lPlQJZDLkBie5jBGUTVQFEzqkDMYq/B0U3dQEhrUkCUu6PBwj6yQBfoL0Bbc6jB
InulQG3JIEEoU6jBH8foQP0s80A/4bXBt6LbQGA4DkHRA7TBjkCNQBwlTkBw46HBDLRKQJPmYUAy
iJLBad23QPZy8kBDw6nBp5ysQD3zmUDK+bLBNxu8QGHbOcAP+q/BIr1nQMgaMz+raZ/BXkG6QH2x
SUDtHo/B0mvsQD6Xqz8W8rPB4TTxQLBzi7+eebfBIdyBQMbe4L/CAaTBg5/+QDa9pUB8eKHB1HnG
QBmIp0DgbJ7B8d/EQFFIQkAjG7nBah6MQIQlRECa17bBQcDnQHhS0D8QBJnB+cwBQQCGSEAua5XB
WAzvQDhNn0DDuLTB8S73QNMzO0C08ajBf6qwQN14L0G4SazBFRWDQGSnHkF426nB7f2qQNgQIkEr
qJ/BiJllQMnUX0Bkz6XBrelGQGCFZkAlkYrBhecVQJGzZ0Co/pbByRSRQGa+1T5fvqTBP8qNQC8V
er9twKXBi23NQKBPgL879LDB8eGyQKCBkD+wzanBz+CrQF6317/w3qvByEDRQIZvyD7d9q/Bj1LJ
QPTo1UDDLa3BE6q/QKGYDUEpCK3BsgqPQPEQV0ATF5jBlXrlQNeblUANXaTBXMqxQM1SUEBGPLTB
8YfmQDRwJkBBgJjBHEvXQFT9qECqSq/B8CbhQIzeSEAH+KPB07u1QB2uKkBk06jBMjTEQEdBJUGi
ya7BD+SnQN+Y3kA7PafBKBGiQMPTBEHGFKfBsKmQQJJ8TkCFkaLBTARQQPA8bEBvh5PBFLvYQIZV
+0Cu/rDBjBuxQMyWlUAWrbPBJZqoQL+iQcCu4azB+lTyQJuGfD9ZFrXBl8m7QHrgS0BHiI/BNVdz
QJ++dD84EqDByStoQF6qwL/X0KHB8HXkQP61xr+ZqLXB95UDQRgZnkBS9KLBv3nRQFF1o0ACAZ7B
fUzNQL2YO0CEE7nBHQGUQDduOUBJ87fB4vLlQJUlwD/avJjBgMMCQdw1PEBQV5XBMQryQCMpqEBE
ArXBo+v6QIOGLUDc5KjBZgyrQA3ALUEgVarB8czjQLGJKkGT8qvBKRnBQL3PKEH9XrfBOQxuQKNq
YUDNuqbBiYRLQK+2dECVnovBBTYcQE4Ic0AjJpjBzsDRQIGX8T4K4q/B4RvRQKT9ar+DYbHBfNGQ
QF/siL8TgabBuNGxQEn2jz/mtanBlqKwQDkZ2L//r6zBJdKQQMCjpT5SAqXBSGDIQNXG1UCj/azB
956+QIqODUF5VKzBt76OQMi4WECA/ZfBxBHlQI8elUAyXqTBL5WxQP5QT0CKL7TBsBPmQOrYJEDG
mZjB3urWQJQAqUA8Qa/BljTgQNrTR0ClBqTBGly0QMa4KkCxsqjBPnLCQN5PJUHI7q3BylymQPS3
3UA+MafBYGmgQClhBEFMvKbB4CKQQNhaUUDWe6LBDLNPQEbgbUD5WJPBvDzYQCLF+0B2W7DBeSqx
QMxFlUCm07PB79yvQAKpQcCVIq7BOrdgQPdTVT/oIp/BZkC7QDIHSEB0eI/BwPzqQJ8yhz/vfLPB
JpbpQLt8sr9wJLbBcyVwQHXG1b8s26LByHADQdswnUDQ+6LBPFbRQK8Ko0A0953BPnLNQHmkOUCt
1LjB+w6UQBdkOECoBrjBmhfmQOb8vD++65jBuXsCQX9xO0BKd5XB0ODxQP3kqECZ6bTBgYL5QGMf
LECKEanBUjSoQHN0LUEBtqnBfk3hQGreKkGqvKrBTaTAQJAAKUF6hrbBNR9uQAtAZ0DjoabBuAdL
QOJPc0DaZYvBOUccQHmxd0Ad85fB

> <OMEGA_E>
EEtdPoDcez4UDQk/dBoTPw==

> <OMEGA_NBR>
     78592

$$$$
286513
  -OEChem-04172616093D

 42 45  0     1  0  0  0  0  0999 V2000
    4.5508    0.3105  -20.6158 C   0  0  0  0  0  0  0  0  0  0  0  0
    4.5254   -1.0860  -20.7534 C   0  0  0  0  0  0  0  0  0  0  0  0
    5.7561    7.4736  -21.3337 C   0  0  0  0  0  0  0  0  0  0  0  0
    6.5431   -0.9940  -22.1086 C   0  0  0  0  0  0  0  0  0  0  0  0
    5.7949    8.8649  -21.5325 C   0  0  0  0  0  0  0  0  0  0  0  0
    7.5880    8.5928  -23.0107 C   0  0  0  0  0  0  0  0  0  0  0  0
    5.5815    1.0843  -21.2161 C   0  0  0  0  0  0  0  0  0  0  0  0
    5.5199   -1.7381  -21.4987 C   0  0  0  0  0  0  0  0  0  0  0  0
    6.5816    0.4061  -21.9772 C   0  0  0  0  0  0  0  0  0  0  0  0
    6.6971    6.6775  -22.0219 C   0  0  0  0  0  0  0  0  0  0  0  0
    4.3937    3.2133  -18.9390 C   0  0  0  0  0  0  0  0  0  0  0  0
    6.9669    4.7087  -20.4800 C   0  0  0  0  0  0  0  0  0  0  0  0
    5.3666    3.2501  -22.4684 C   0  0  0  0  0  0  0  0  0  0  0  0
    7.1595    2.5931  -19.0466 C   0  0  0  0  0  0  0  0  0  0  0  0
    6.6863    5.1774  -21.9206 C   0  0  1  0  0  0  0  0  0  0  0  0
    6.9251    3.1629  -20.4529 C   0  0  1  0  0  0  0  0  0  0  0  0
    5.5866    2.6250  -21.0639 C   0  0  2  0  0  0  0  0  0  0  0  0
    6.7082    9.4034  -22.3714 N   0  0  0  0  0  0  0  0  0  0  0  0
    7.5972    7.2511  -22.8452 N   0  0  0  0  0  0  0  0  0  0  0  0
    4.4214    3.1000  -20.2500 N   0  3  0  0  0  0  0  0  0  0  0  0
    3.1809    3.5242  -18.3468 N   0  0  0  0  0  0  0  0  0  0  0  0
    5.4133    4.6835  -22.3790 O   0  0  0  0  0  0  0  0  0  0  0  0
    5.4883   -3.0815  -21.6353 F   0  0  0  0  0  0  0  0  0  0  0  0
    7.5834    1.0666  -22.6045 F   0  0  0  0  0  0  0  0  0  0  0  0
    5.8057    3.0251  -17.8899 S   0  0  0  0  0  0  0  0  0  0  0  0
    3.7771    0.8039  -20.0463 H   0  0  0  0  0  0  0  0  0  0  0  0
    3.7393   -1.6598  -20.2851 H   0  0  0  0  0  0  0  0  0  0  0  0
    5.0275    7.0268  -20.6735 H   0  0  0  0  0  0  0  0  0  0  0  0
    7.3055   -1.5000  -22.6823 H   0  0  0  0  0  0  0  0  0  0  0  0
    5.0947    9.5038  -21.0148 H   0  0  0  0  0  0  0  0  0  0  0  0
    8.3105    9.0373  -23.6790 H   0  0  0  0  0  0  0  0  0  0  0  0
    7.9600    5.0592  -20.1621 H   0  0  0  0  0  0  0  0  0  0  0  0
    6.2010    5.1131  -19.8019 H   0  0  0  0  0  0  0  0  0  0  0  0
    6.1561    2.9014  -23.1505 H   0  0  0  0  0  0  0  0  0  0  0  0
    4.3846    2.9407  -22.8556 H   0  0  0  0  0  0  0  0  0  0  0  0
    7.2303    1.4976  -19.1156 H   0  0  0  0  0  0  0  0  0  0  0  0
    8.1039    2.9975  -18.6535 H   0  0  0  0  0  0  0  0  0  0  0  0
    7.4828    4.7804  -22.5670 H   0  0  0  0  0  0  0  0  0  0  0  0
    7.7418    2.8019  -21.0953 H   0  0  0  0  0  0  0  0  0  0  0  0
    3.5914    3.3533  -20.7469 H   0  0  0  0  0  0  0  0  0  0  0  0
    3.1230    3.6355  -17.3547 H   0  0  0  0  0  0  0  0  0  0  0  0
    2.3633    3.6375  -18.9113 H   0  0  0  0  0  0  0  0  0  0  0  0
  1  2  1  0  0  0  0
  1  7  2  0  0  0  0
  2  8  2  0  0  0  0
  3  5  2  0  0  0  0
  3 10  1  0  0  0  0
  4  8  1  0  0  0  0
  4  9  2  0  0  0  0
  5 18  1  0  0  0  0
  6 18  2  0  0  0  0
  6 19  1  0  0  0  0
  7  9  1  0  0  0  0
  7 17  1  0  0  0  0
  8 23  1  0  0  0  0
  9 24  1  0  0  0  0
 10 15  1  0  0  0  0
 10 19  2  0  0  0  0
 11 20  2  0  0  0  0
 11 21  1  0  0  0  0
 11 25  1  0  0  0  0
 12 15  1  0  0  0  0
 12 16  1  0  0  0  0
 13 17  1  0  0  0  0
 13 22  1  0  0  0  0
 14 16  1  0  0  0  0
 14 25  1  0  0  0  0
 15 22  1  0  0  0  0
 16 17  1  0  0  0  0
 17 20  1  0  0  0  0
  1 26  1  0  0  0  0
  2 27  1  0  0  0  0
  3 28  1  0  0  0  0
  4 29  1  0  0  0  0
  5 30  1  0  0  0  0
  6 31  1  0  0  0  0
 12 32  1  0  0  0  0
 12 33  1  0  0  0  0
 13 34  1  0  0  0  0
 13 35  1  0  0  0  0
 14 36  1  0  0  0  0
 14 37  1  0  0  0  0
 15 38  1  0  0  0  0
 16 39  1  0  0  0  0
 20 40  1  0  0  0  0
 21 41  1  0  0  0  0
 21 42  1  0  0  0  0
M  CHG  1  20   1
M  END
> <OMEGA_C>
/Z+RQLj8nj4f7aTBBtCQQFoDi78IB6bB7TG4QFUn70Biq6rBWmHRQEd0fr+C3rDB0G+5QKnWDUGZ
QqzBfdDyQBh8CUHUFbjBe5uyQBDJij+ouqnBCqOwQPZ53r9q/avBIZzSQCvnzz5o0a/BQU7WQASu
1UDjLLDBzpiMQHGmTUAsg5fBK/HeQAWulkAY16PBZburQAgCUEBiv7PBiRrlQJH1JUB8X5jB4PXV
QJmtpUBsXa/BuJrdQIBsSkB3n6PBQcWyQP//J0DrgqjBb6nWQGp0FkGS+LLB6RvzQPwI6EAJw7bB
tHuNQCRmRkDu/6HBnZRLQOqMYUBBxpLBpjmtQHnflUAgCLPBM6CvQJM2RcAXFa3BTavyQFmFiD8F
1rTBsMi5QLybQUCHHo/BFrxxQI/PTT+8XqDBSFFvQHdz1L/fR6LB4+CgQDjb4EBOY6XBscbpQFEA
wL9ndbXBHAijQJUPGEFmHqjB0vcEQcmYEEGsbr3BLbj+QOjkoUARTKHBq27GQGueo0BKap7Bpf7E
QC6xOUAxNLnBoU6MQGQ0PEBA2LbBk17nQDawvz/L7JjBeKkBQcXXP0BMOpXBE3PvQMD4mEBNibTB
1rz3QHhSM0A9w6jByNhlQBGcVkCs+aXBo95HQOCraEBw1orBRUAXQGXMaEBKSpfBjEOQQCBInT6J
xqTBei+OQE6Ki7/Ur6XBKNvyQNSz6UAV8LbB8A7PQKgBir+Nb7DBkFfwQP0nC0H97LfBjkG4QDSp
C0E2i6vB4AiyQCtyhT/8oqnBXHutQO4z5L8phqvBLJHRQKhwpT6dkK/Buk3WQCT41EAf+a/BdmSN
QE2GT0ALyZfBRIfgQLQPlUDT8qPBjoWtQAwNTUBO5bPBjGLlQEyVIkBVbZjBiBfXQNi3pEBeaK/B
VojeQJTsRkAGt6PBUoizQBqOJUA3najBYhDTQC9EFkG/PbLBRES5QNoi7ECIWqrBXGeOQGZVRkBD
PqLBm+VNQDz3Z0CxM5PBipquQCx1lEBHJ7PBJBurQPUXSMC4eKzB5GryQGoQcj8EkrTBOg26QCik
QEBHRY/B+L5vQETuVD/KUaDB8upoQC8I0b+146HB0RwFQQqr10BhbrvBCBznQIDGzr8R6bTBnfAC
QXB7E0GAP73B9jahQA/AFEFF+6bBKk8AQZvBn0Bog6HBZ4vIQAE/okAoap7BFW/HQHIUN0BKLrnB
nIKOQAy8OEDbMbfBCObmQFm5uD9B7ZjB3+UBQa1IO0CKP5XBBdDwQMQHmUAwqLTBC6D4QGX3LkBe
zqjBkBtoQGGtVkD6S6bBMvhJQPe0cEDISovBIEwaQCLgcEA8zZfBRA3SQDYc9D4iArDBSQDUQBOv
ab/JibHBIYy3QOIR7kDtzarByS6VQJ5omL9ISqbB8Ta5QFxfDUF0GKzBox3zQDdnCUFNyrfBUoWx
QPZXiD9rnqnBHp21QNaP37+Cp6zB/JKSQPAiTT4/xqTBQrTVQBzl1ECRY7DBQ5KMQJ+SUEDcdpfB
DTbfQMCllUAkNaTBxuiqQEPITUBixLPB+8PkQDIVJUBJi5jB0YbVQKfFpED8sK/B0dvcQHpVSEAv
2KPBmFaxQE8OJ0D2bajB3PLWQKU4FkEBlrLBjfXyQOO450CZxLbBPOqMQPOfSEAh8aHBG9VLQIha
ZEBHpJLBWKysQNHZlEBIQbPBBV63QIlcRcCzHK7BoTxjQAzoJT9twJ7BVwS6QEDKQkAUL4/BN7Xp
QO0Fjj+jwbPBot7sQH6Aq79qeLbBSd6fQOds30CDr6XBafp7QGU767+BhKLB0rqiQC52F0Fb5qfB
gFEFQTazEEGg9rzBk3P/QNE4oECD3aHBuH7HQAlCo0CBqp7BFVPEQCFnNkC7G7nB9IyLQLT5OUDS
57bBaaXmQBe7vT/195jB5KMBQXa4PkB1jJXBodPuQBxWmEAB9rTBqmD2QLaSL0BSDqnBTSRlQPGS
WkDw46XBD3VIQGt5akCHsIrB72IXQP+DbECcHJfBerDRQFgczD7Lpq/BBgjSQGapfr8fG7HBbF7z
QFF16UBZy7bBIZ+RQLXDl78yUabBxP3wQNsQC0Gjn7fBPLS3QFA5C0GFl6vB6kaxQDQIhD+SgKnB
dAWyQOez5L/PaqzBV66QQOBWVT4+3KTBegnWQLhK1EBhH7DBD4ONQMoJU0Ctr5fB2FPhQM09lEDA
O6TBOFKtQEMaS0Am07PB9ArlQA68IkBPZ5jBKxvXQA/1o0Dypa/BhjfeQGA8RUBjyqPBVpeyQFQS
JUDFcKjBFizTQKUEFkFvCrLByHq4QMkq60BhlqrBzj6OQMoVSUCHIqLBCrtNQECcaUAAD5PBRI2u
QKyIk0BqSbPBtieyQHwYSMByzq3BKGVfQJIlMz+bEZ/Bype6QIYCRkCPQY/BMYHqQKevfz/RRbPB
4enqQCFsur9q1LXBfp4FQZCy10C7MLvBcUtyQCBj5r/Us6LBjIkDQcuKE0EzvrzBHU+gQHYwFEHD
FKfB4/QAQS09nkAxCaLBKEPKQJY4okAnlJ7Bdn3HQFUwNEBi97jBEnaOQLGTNkAUMbfB7EjlQGy8
uD/3qpjBUAICQRfqOUD/Y5XBnKLwQJySmEAn/7TB6tD3QLpAK0AU4qjBzHBoQFQzW0CyM6bBL9pJ
QNohckAJJYvBtcoZQI1jcUB0oZfB

> <OMEGA_E>
wI2WPmBpoj4odac+oImzPg==

> <OMEGA_NBR>
     81860

$$$$
286518
  -OEChem-04172616093D

 42 45  0     1  0  0  0  0  0999 V2000
    6.6142    0.5475  -22.0255 C   0  0  0  0  0  0  0  0  0  0  0  0
    6.6590   -0.8392  -22.2355 C   0  0  0  0  0  0  0  0  0  0  0  0
    4.6635   -1.1072  -20.8734 C   0  0  0  0  0  0  0  0  0  0  0  0
    7.1321    8.8769  -22.5733 C   0  0  0  0  0  0  0  0  0  0  0  0
    5.2612    8.5719  -21.0730 C   0  0  0  0  0  0  0  0  0  0  0  0
    5.5903    1.1386  -21.2381 C   0  0  0  0  0  0  0  0  0  0  0  0
    5.6850   -1.6663  -21.6560 C   0  0  0  0  0  0  0  0  0  0  0  0
    4.5983    0.2812  -20.6646 C   0  0  0  0  0  0  0  0  0  0  0  0
    6.0920    9.4326  -21.8054 C   0  0  0  0  0  0  0  0  0  0  0  0
    6.4990    6.7484  -21.8582 C   0  0  0  0  0  0  0  0  0  0  0  0
    4.4245    3.3193  -18.9652 C   0  0  0  0  0  0  0  0  0  0  0  0
    7.0316    4.7276  -20.5141 C   0  0  0  0  0  0  0  0  0  0  0  0
    5.4336    3.2837  -22.4952 C   0  0  0  0  0  0  0  0  0  0  0  0
    7.1812    2.6231  -19.0775 C   0  0  0  0  0  0  0  0  0  0  0  0
    6.6839    5.2613  -21.9236 C   0  0  1  0  0  0  0  0  0  0  0  0
    6.9543    3.1849  -20.4903 C   0  0  1  0  0  0  0  0  0  0  0  0
    5.5978    2.6793  -21.0773 C   0  0  2  0  0  0  0  0  0  0  0  0
    7.3207    7.5411  -22.5875 N   0  0  0  0  0  0  0  0  0  0  0  0
    5.4744    7.2434  -21.1119 N   0  0  0  0  0  0  0  0  0  0  0  0
    4.4525    3.2118  -20.2766 N   0  3  0  0  0  0  0  0  0  0  0  0
    3.2101    3.6264  -18.3728 N   0  0  0  0  0  0  0  0  0  0  0  0
    5.4442    4.7129  -22.4164 O   0  0  0  0  0  0  0  0  0  0  0  0
    5.7264   -3.0016  -21.8522 F   0  0  0  0  0  0  0  0  0  0  0  0
    3.5611    0.7332  -19.9244 F   0  0  0  0  0  0  0  0  0  0  0  0
    5.9005   10.7686  -21.7566 F   0  0  0  0  0  0  0  0  0  0  0  0
    5.8324    3.0856  -17.9164 S   0  0  0  0  0  0  0  0  0  0  0  0
    7.3712    1.1763  -22.4704 H   0  0  0  0  0  0  0  0  0  0  0  0
    7.4422   -1.2692  -22.8422 H   0  0  0  0  0  0  0  0  0  0  0  0
    3.9196   -1.7503  -20.4267 H   0  0  0  0  0  0  0  0  0  0  0  0
    7.7795    9.5198  -23.1512 H   0  0  0  0  0  0  0  0  0  0  0  0
    4.4532    8.9739  -20.4797 H   0  0  0  0  0  0  0  0  0  0  0  0
    8.0509    5.0438  -20.2476 H   0  0  0  0  0  0  0  0  0  0  0  0
    6.3179    5.1379  -19.7845 H   0  0  0  0  0  0  0  0  0  0  0  0
    6.2631    2.9469  -23.1343 H   0  0  0  0  0  0  0  0  0  0  0  0
    4.4789    2.9487  -22.9268 H   0  0  0  0  0  0  0  0  0  0  0  0
    7.2353    1.5261  -19.1378 H   0  0  0  0  0  0  0  0  0  0  0  0
    8.1323    3.0163  -18.6892 H   0  0  0  0  0  0  0  0  0  0  0  0
    7.5092    5.0221  -22.6104 H   0  0  0  0  0  0  0  0  0  0  0  0
    7.7571    2.8007  -21.1367 H   0  0  0  0  0  0  0  0  0  0  0  0
    3.6412    3.5108  -20.7790 H   0  0  0  0  0  0  0  0  0  0  0  0
    3.1458    3.7105  -17.3784 H   0  0  0  0  0  0  0  0  0  0  0  0
    2.3978    3.7639  -18.9397 H   0  0  0  0  0  0  0  0  0  0  0  0
  1  2  1  0  0  0  0
  1  6  2  0  0  0  0
  2  7  2  0  0  0  0
  3  7  1  0  0  0  0
  3  8  2  0  0  0  0
  4  9  1  0  0  0  0
  4 18  2  0  0  0  0
  5  9  2  0  0  0  0
  5 19  1  0  0  0  0
  6  8  1  0  0  0  0
  6 17  1  0  0  0  0
  7 23  1  0  0  0  0
  8 24  1  0  0  0  0
  9 25  1  0  0  0  0
 10 15  1  0  0  0  0
 10 18  1  0  0  0  0
 10 19  2  0  0  0  0
 11 20  2  0  0  0  0
 11 21  1  0  0  0  0
 11 26  1  0  0  0  0
 12 15  1  0  0  0  0
 12 16  1  0  0  0  0
 13 17  1  0  0  0  0
 13 22  1  0  0  0  0
 14 16  1  0  0  0  0
 14 26  1  0  0  0  0
 15 22  1  0  0  0  0
 16 17  1  0  0  0  0
 17 20  1  0  0  0  0
  1 27  1  0  0  0  0
  2 28  1  0  0  0  0
  3 29  1  0  0  0  0
  4 30  1  0  0  0  0
  5 31  1  0  0  0  0
 12 32  1  0  0  0  0
 12 33  1  0  0  0  0
 13 34  1  0  0  0  0
 13 35  1  0  0  0  0
 14 36  1  0  0  0  0
 14 37  1  0  0  0  0
 15 38  1  0  0  0  0
 16 39  1  0  0  0  0
 20 40  1  0  0  0  0
 21 41  1  0  0  0  0
 21 42  1  0  0  0  0
M  CHG  1  20   1
M  END
> <OMEGA_C>
KKfTQJ8nDD8/NLDBiBbVQOvXVr884rHBADuVQDy6jb+h/KbBSDrkQKMHDkEGlrTBCVyoQKcmCUF4
lajB8uOyQNK8kT+H56nBUeu1QNJK1b+VP63BRCWTQA71jz4rUaXBgvHCQLvrFkGGca7BqPfPQCzz
10CI3a7BRJWNQOxuVEChuJfBCgPhQCpIl0DJHKTB/t+tQOknUkBB9rPBjMzlQDXhJ0DMnpjBm+LV
QPpcqECXY6/BZoneQLzVS0AK7KPBkiGzQBF5K0BBnqjBIkPqQNhQ8UAys7TBKS6vQBXK50Ax5ajB
H3uOQIWNTUB4NqLBkHFNQCoWaECQ+5LBBjeuQFnQlkDGVLPBtD63QH4aQMBS0a7BROhjQD6yOz8e
ZZ/BNtG8QA9MLEF5Da7B2qK6QAR6RUC4VI/BAeHrQL6Plj9Mw7PBPCbuQI12or/ZvLbBqtp6QE4L
4L/gaaPBdfH4QPhQGEGeNbnBsICOQOeUD0F51qPBlNAAQSNnoUAc+6HBQyzKQINppECqRp7BqGvI
QHeZPEAOE7nB6FKPQEC3PEAsarfBbYfnQE5Xwz8kGpnBBB4CQa8LQUCSg5XBIEvwQL60oEAm4rTB
ATr4QPs+M0D0F6nBswlpQFOwYEBQO6bBZVVJQEd4bUAQB4vBHnYZQBjjcECYhJfB

> <OMEGA_E>
iPvXPg==

> <OMEGA_NBR>
     82872

$$$$
286514
  -OEChem-04172616093D

 48 52  0     1  0  0  0  0  0999 V2000
    6.6548    0.6445  -22.0576 C   0  0  0  0  0  0  0  0  0  0  0  0
    6.7526   -0.7321  -22.2985 C   0  0  0  0  0  0  0  0  0  0  0  0
    7.2507    7.5837  -22.8838 C   0  0  0  0  0  0  0  0  0  0  0  0
    4.7538   -1.1015  -20.9621 C   0  0  0  0  0  0  0  0  0  0  0  0
    6.8885    8.8581  -22.5622 C   0  0  0  0  0  0  0  0  0  0  0  0
    5.6078    1.1772  -21.2583 C   0  0  0  0  0  0  0  0  0  0  0  0
    5.8038   -1.6050  -21.7468 C   0  0  0  0  0  0  0  0  0  0  0  0
    4.6399    0.2776  -20.7177 C   0  0  0  0  0  0  0  0  0  0  0  0
    6.5684    6.7071  -21.9200 C   0  0  0  0  0  0  0  0  0  0  0  0
    4.3884    3.3046  -18.9267 C   0  0  0  0  0  0  0  0  0  0  0  0
    3.9874   10.0809  -20.8891 C   0  0  0  0  0  0  0  0  0  0  0  0
    4.9998   11.0296  -21.5436 C   0  0  0  0  0  0  0  0  0  0  0  0
    6.9741    4.7550  -20.4918 C   0  0  0  0  0  0  0  0  0  0  0  0
    5.3408    3.3235  -22.4610 C   0  0  0  0  0  0  0  0  0  0  0  0
    7.1504    2.6667  -19.0491 C   0  0  0  0  0  0  0  0  0  0  0  0
    6.6557    5.2343  -21.9180 C   0  0  1  0  0  0  0  0  0  0  0  0
    6.9152    3.2221  -20.4617 C   0  0  1  0  0  0  0  0  0  0  0  0
    5.4864    9.8222  -20.7378 C   0  0  0  0  0  0  0  0  0  0  0  0
    5.5627    2.7047  -21.0556 C   0  0  2  0  0  0  0  0  0  0  0  0
    5.8336    7.4265  -21.1047 N   0  0  0  0  0  0  0  0  0  0  0  0
    6.0598    8.6963  -21.4768 N   0  0  0  0  0  0  0  0  0  0  0  0
    4.4087    3.1900  -20.2371 N   0  3  0  0  0  0  0  0  0  0  0  0
    3.1682    3.5727  -18.3288 N   0  0  0  0  0  0  0  0  0  0  0  0
    5.3840    4.7453  -22.3681 O   0  0  0  0  0  0  0  0  0  0  0  0
    5.8960   -2.9318  -21.9751 F   0  0  0  0  0  0  0  0  0  0  0  0
    3.5839    0.6831  -19.9765 F   0  0  0  0  0  0  0  0  0  0  0  0
    5.8122    3.1438  -17.8881 S   0  0  0  0  0  0  0  0  0  0  0  0
    7.3875    1.3120  -22.4866 H   0  0  0  0  0  0  0  0  0  0  0  0
    7.5562   -1.1198  -22.9071 H   0  0  0  0  0  0  0  0  0  0  0  0
    7.9071    7.2789  -23.6855 H   0  0  0  0  0  0  0  0  0  0  0  0
    4.0266   -1.7808  -20.5424 H   0  0  0  0  0  0  0  0  0  0  0  0
    7.1830    9.7778  -23.0459 H   0  0  0  0  0  0  0  0  0  0  0  0
    3.3974   10.4180  -20.0241 H   0  0  0  0  0  0  0  0  0  0  0  0
    3.3745    9.4145  -21.5138 H   0  0  0  0  0  0  0  0  0  0  0  0
    5.1137   11.0434  -22.6376 H   0  0  0  0  0  0  0  0  0  0  0  0
    5.1366   12.0468  -21.1479 H   0  0  0  0  0  0  0  0  0  0  0  0
    7.9810    5.0922  -20.2045 H   0  0  0  0  0  0  0  0  0  0  0  0
    6.2350    5.1674  -19.7893 H   0  0  0  0  0  0  0  0  0  0  0  0
    6.1312    2.9767  -23.1429 H   0  0  0  0  0  0  0  0  0  0  0  0
    4.3596    3.0112  -22.8480 H   0  0  0  0  0  0  0  0  0  0  0  0
    7.1985    1.5691  -19.1030 H   0  0  0  0  0  0  0  0  0  0  0  0
    8.1058    3.0573  -18.6688 H   0  0  0  0  0  0  0  0  0  0  0  0
    7.4572    4.9052  -22.5956 H   0  0  0  0  0  0  0  0  0  0  0  0
    7.7219    2.8443  -21.1071 H   0  0  0  0  0  0  0  0  0  0  0  0
    5.9157   10.0455  -19.7500 H   0  0  0  0  0  0  0  0  0  0  0  0
    3.5785    3.4505  -20.7300 H   0  0  0  0  0  0  0  0  0  0  0  0
    3.1090    3.6702  -17.3353 H   0  0  0  0  0  0  0  0  0  0  0  0
    2.3465    3.6688  -18.8905 H   0  0  0  0  0  0  0  0  0  0  0  0
  1  2  1  0  0  0  0
  1  6  2  0  0  0  0
  2  7  2  0  0  0  0
  3  5  2  0  0  0  0
  3  9  1  0  0  0  0
  4  7  1  0  0  0  0
  4  8  2  0  0  0  0
  5 21  1  0  0  0  0
  6  8  1  0  0  0  0
  6 19  1  0  0  0  0
  7 25  1  0  0  0  0
  8 26  1  0  0  0  0
  9 16  1  0  0  0  0
  9 20  2  0  0  0  0
 10 22  2  0  0  0  0
 10 23  1  0  0  0  0
 10 27  1  0  0  0  0
 11 12  1  0  0  0  0
 11 18  1  0  0  0  0
 12 18  1  0  0  0  0
 13 16  1  0  0  0  0
 13 17  1  0  0  0  0
 14 19  1  0  0  0  0
 14 24  1  0  0  0  0
 15 17  1  0  0  0  0
 15 27  1  0  0  0  0
 16 24  1  0  0  0  0
 17 19  1  0  0  0  0
 18 21  1  0  0  0  0
 19 22  1  0  0  0  0
 20 21  1  0  0  0  0
  1 28  1  0  0  0  0
  2 29  1  0  0  0  0
  3 30  1  0  0  0  0
  4 31  1  0  0  0  0
  5 32  1  0  0  0  0
 11 33  1  0  0  0  0
 11 34  1  0  0  0  0
 12 35  1  0  0  0  0
 12 36  1  0  0  0  0
 13 37  1  0  0  0  0
 13 38  1  0  0  0  0
 14 39  1  0  0  0  0
 14 40  1  0  0  0  0
 15 41  1  0  0  0  0
 15 42  1  0  0  0  0
 16 43  1  0  0  0  0
 17 44  1  0  0  0  0
 18 45  1  0  0  0  0
 22 46  1  0  0  0  0
 23 47  1  0  0  0  0
 23 48  1  0  0  0  0
M  CHG  1  22   1
M  END
> <OMEGA_C>
hvTUQL7+JD/8dbDBhRXYQAFpO79AY7LByAXoQGSt8kD0EbfBGR+YQM7+jL9xsqfB6W7cQNW6DUF1
f7TBM3OzQCiulj/xEKrBybi5QLpvzb9o+a3BHXqUQFQbjj7hvaXBfzDSQKWg1kA5XK/BDm6MQNh+
U0DxaZfB9zF/QHBLIUHZHKfBpP6fQDl5MEFkWazBDizfQAkpmEA376PBpueqQHKzVEArsLPB1s/k
QMiqKkB3ZJjBPvvUQMB/p0AQWK/BYkndQDk3TkB5saPBg5CvQK4nHUES56XBewGyQLoZLUDVcajB
1qy6QKil7UBw1qjB3enBQA8kC0Fv0KvBOxSNQCgoTECp5aHBdMRKQFunZEBLoZLBZ0msQNTZl0Dt
8bLBvqu8QISiO8DtzK/Bo15lQALgLj/hz5/BU/25QO0zSUDqGo/BeWbsQLXvpz+j5LPBBczxQDNW
j7+qQbfBoQb9QBrt6EDde73BR9qAQJjy47/QVqTBNNvlQMZxHEHzXbjBt25ZQP+vJkFNMaDB6vdX
QOGhFkE7HKzBw6OjQJKxMEHnGbXBKV+kQLG/QEH6LqnBPWT/QArzokDCoqHBvoTHQLdbpUB6UJ7B
izLEQOSBPkDCJLnBwoGLQLu3QEDEyLbBG1rmQLLWyD/z0pjBSbEBQXarQ0DGWZXBjqHuQCH3nEDQ
w7TBaBn3QPUINkBO26jBz029QI+6IEELAJ7BXwZlQLfUXED61qXBYPlGQPbjakCororBfC0WQCnO
akC6H5fBCb3SQP2FEj/dpLDBF23UQON6Ub8zTLLBzTf0QOL590BuiazBFu6WQDC+jb+mnKbBjoXj
QFwTEEFC763BEuOyQB6Hkz8D+qnBjYe2QJ4v1L8cQa3B96WUQC6jjz7q9aTB4DjSQF1V2UAwnK/B
SMyMQAXnUUAlepfBukCDQLWEKEEviKvBeqZYQCTDGUF5grPBTS7fQBr5mEAID6TBhgysQFCNVEDl
3LPBznHlQKjLKUCskJjBDTzVQAs7qUCqfK/BD4fdQP14TkAf2aPBg7ecQDC7HUFAh7TBIF2yQIOU
LEA0k6jBI02wQJz27kBmsrLBCLi6QDlUDEFporHBdIeNQNtoTEBLAaLBEcdLQBftYkDcl5LBENSs
QCcbmEAGLbPBLwG4QI2tP8CWxq7BSGdpQJf+Nz9FlJ7BYgq6QBREQ0DoKY/BfADqQM/Imj/cf7TB
+6/sQB3Jnr/WcLfB1/wJQfkv8EBRvanBAx6AQF3s4L8AuqLB3dDyQB9LH0E8eazB+gJ7QGLgOUFA
wavBv8WHQFhfI0FWMaPBn+lAQCQLCkGv47DBG2EsQC6MIEGZc7nBK0z/QLjGo0ADraHBPVPHQAjb
pUBCcp7BxPHFQHnmPkByLLnBaQyNQCDbP0CiIbfBI1noQH2axz8mK5nBx70BQXKoREBmcJXBtDLv
QLQKn0D92rTBuFr3QHMON0DaD6nB9HamQNVBKEGLJbvB84tmQLMRX0BV8KXB5x5IQMCUZkCOnorB
N00XQAyNa0BLC5fB

> <OMEGA_E>
iL3BPqhu5j4=

> <OMEGA_NBR>
     84807

$$$$
286519
  -OEChem-04172616093D

 45 48  0     1  0  0  0  0  0999 V2000
    4.5873    0.3962  -20.6631 C   0  0  0  0  0  0  0  0  0  0  0  0
    4.5662   -0.9994  -20.8023 C   0  0  0  0  0  0  0  0  0  0  0  0
    6.5592   -0.8999  -22.1958 C   0  0  0  0  0  0  0  0  0  0  0  0
    6.8866    8.8672  -22.5242 C   0  0  0  0  0  0  0  0  0  0  0  0
    5.1702    8.3656  -20.8919 C   0  0  0  0  0  0  0  0  0  0  0  0
    5.6073    1.1670  -21.2793 C   0  0  0  0  0  0  0  0  0  0  0  0
    5.8692    9.3104  -21.6526 C   0  0  0  0  0  0  0  0  0  0  0  0
    5.5564   -1.6462  -21.5595 C   0  0  0  0  0  0  0  0  0  0  0  0
    6.5921    0.4962  -22.0681 C   0  0  0  0  0  0  0  0  0  0  0  0
    6.5064    6.6905  -21.8059 C   0  0  0  0  0  0  0  0  0  0  0  0
    4.4421    3.3477  -18.9834 C   0  0  0  0  0  0  0  0  0  0  0  0
    7.1197    4.6913  -20.5365 C   0  0  0  0  0  0  0  0  0  0  0  0
    5.4339    3.3102  -22.5128 C   0  0  0  0  0  0  0  0  0  0  0  0
    7.1802    2.6220  -19.0684 C   0  0  0  0  0  0  0  0  0  0  0  0
    6.7412    5.2339  -21.9370 C   0  0  1  0  0  0  0  0  0  0  0  0
    6.9934    3.1679  -20.4939 C   0  0  1  0  0  0  0  0  0  0  0  0
    5.6334    2.6936  -21.1056 C   0  0  2  0  0  0  0  0  0  0  0  0
    5.4697   10.7586  -21.5825 C   0  0  0  0  0  0  0  0  0  0  0  0
    7.1920    7.5558  -22.5872 N   0  0  0  0  0  0  0  0  0  0  0  0
    5.4972    7.0740  -20.9824 N   0  0  0  0  0  0  0  0  0  0  0  0
    4.4691    3.1935  -20.2914 N   0  3  0  0  0  0  0  0  0  0  0  0
    3.2295    3.6761  -18.3969 N   0  0  0  0  0  0  0  0  0  0  0  0
    5.4836    4.7226  -22.4202 O   0  0  0  0  0  0  0  0  0  0  0  0
    5.5453   -2.9900  -21.6789 F   0  0  0  0  0  0  0  0  0  0  0  0
    7.5794    1.1551  -22.7218 F   0  0  0  0  0  0  0  0  0  0  0  0
    5.8539    3.1845  -17.9315 S   0  0  0  0  0  0  0  0  0  0  0  0
    3.8211    0.8881  -20.0823 H   0  0  0  0  0  0  0  0  0  0  0  0
    3.7876   -1.5772  -20.3266 H   0  0  0  0  0  0  0  0  0  0  0  0
    7.3099   -1.4031  -22.7871 H   0  0  0  0  0  0  0  0  0  0  0  0
    7.4195    9.5771  -23.1394 H   0  0  0  0  0  0  0  0  0  0  0  0
    4.3716    8.6794  -20.2360 H   0  0  0  0  0  0  0  0  0  0  0  0
    8.1580    4.9740  -20.3084 H   0  0  0  0  0  0  0  0  0  0  0  0
    6.4467    5.1304  -19.7853 H   0  0  0  0  0  0  0  0  0  0  0  0
    6.2314    2.9583  -23.1838 H   0  0  0  0  0  0  0  0  0  0  0  0
    4.4562    3.0030  -22.9126 H   0  0  0  0  0  0  0  0  0  0  0  0
    7.1719    1.5227  -19.1060 H   0  0  0  0  0  0  0  0  0  0  0  0
    8.1496    2.9683  -18.6806 H   0  0  0  0  0  0  0  0  0  0  0  0
    7.5560    5.0324  -22.6480 H   0  0  0  0  0  0  0  0  0  0  0  0
    7.7962    2.7484  -21.1182 H   0  0  0  0  0  0  0  0  0  0  0  0
    4.6896   10.9609  -22.3312 H   0  0  0  0  0  0  0  0  0  0  0  0
    5.0810   10.9834  -20.5783 H   0  0  0  0  0  0  0  0  0  0  0  0
    6.3463   11.3909  -21.7864 H   0  0  0  0  0  0  0  0  0  0  0  0
    3.6366    3.4313  -20.7918 H   0  0  0  0  0  0  0  0  0  0  0  0
    3.1732    3.8129  -17.4079 H   0  0  0  0  0  0  0  0  0  0  0  0
    2.4112    3.7763  -18.9629 H   0  0  0  0  0  0  0  0  0  0  0  0
  1  2  2  0  0  0  0
  1  6  1  0  0  0  0
  2  8  1  0  0  0  0
  3  8  2  0  0  0  0
  3  9  1  0  0  0  0
  4  7  1  0  0  0  0
  4 19  2  0  0  0  0
  5  7  2  0  0  0  0
  5 20  1  0  0  0  0
  6  9  2  0  0  0  0
  6 17  1  0  0  0  0
  7 18  1  0  0  0  0
  8 24  1  0  0  0  0
  9 25  1  0  0  0  0
 10 15  1  0  0  0  0
 10 19  1  0  0  0  0
 10 20  2  0  0  0  0
 11 21  2  0  0  0  0
 11 22  1  0  0  0  0
 11 26  1  0  0  0  0
 12 15  1  0  0  0  0
 12 16  1  0  0  0  0
 13 17  1  0  0  0  0
 13 23  1  0  0  0  0
 14 16  1  0  0  0  0
 14 26  1  0  0  0  0
 15 23  1  0  0  0  0
 16 17  1  0  0  0  0
 17 21  1  0  0  0  0
  1 27  1  0  0  0  0
  2 28  1  0  0  0  0
  3 29  1  0  0  0  0
  4 30  1  0  0  0  0
  5 31  1  0  0  0  0
 12 32  1  0  0  0  0
 12 33  1  0  0  0  0
 13 34  1  0  0  0  0
 13 35  1  0  0  0  0
 14 36  1  0  0  0  0
 14 37  1  0  0  0  0
 15 38  1  0  0  0  0
 16 39  1  0  0  0  0
 18 40  1  0  0  0  0
 18 41  1  0  0  0  0
 18 42  1  0  0  0  0
 21 43  1  0  0  0  0
 22 44  1  0  0  0  0
 22 45  1  0  0  0  0
M  CHG  1  21   1
M  END
> <OMEGA_C>
9cqSQAnWyj76TaXBix6SQGfWf78ca6bBQuXRQCNfZr8UkbHBKV/cQP3fDUF+MbTBcXKlQKLZBUGn
IqfBZG+zQItflT/6O6rBYdC7QFT3FEGOOK3BI86xQFa10r/0eazBJPLSQA8N/j6Qi7DBBzTQQNMY
1kCEcq7BsCWOQNRAVkAD3pfBpNTjQEUflkDHSqTBieKtQPHZU0BQGrTBaMTlQNjOJ0D8i5jB8bfX
QMJ7p0ADf6/BTMrfQGW+SkCX86PBnUS0QEtjLEAu2KjBhgevQBcjLEHxqKzBBCXmQPjI8UCNsrTB
/uivQNVd4kD326fBtQKPQN9iTEC6VKLB1LBOQPZFa0DnLJPBDnqvQDcfl0CdXLPBFHOxQJxcP8Ba
bq3BMIryQK7bkz8pxrXBxFK7QAnOS0C9c4/BqIx0QAVdYz+GqKDBZWhyQC3hyb/dnKLBEuvpQBaY
s78PTLbBLGztQN47GUFwHbnBOeSLQLTeCkFl46HBPocCQcAqn0Cud6LBgkvOQGMspEBbSJ7BXmfH
QPZUPUCFeLnBc5mOQOsxQEATTbfBi4DlQA/nwj8l2ZjB0GQCQZf4PUDUcZXBqcrxQDwJoUAnL7XB
V3r5QInmL0AP8qjBLxGWQP9fL0FCprLB5peiQOS7L0FToKTBEhXLQEJBNkGeSq7Bkr1oQESaW0CL
VabBfxZLQGAGdEBrQ4vBplEaQOaucUAKtJfB/UzTQEiLED9wVrDBHH3UQFQjUb9KFrLB2iiUQOK8
ib+0UqfBBDvcQGLRDUEHs7PB/lCkQK1FBUHv/abBPKCyQAkMlD8pAqrBBHC6QPmTFEEvBa3BCge1
QMqh0b/3iK3BSmWSQChLnz4AkaXBG1PPQEx21UC1da7BvBKOQPSsWEDaxJfBwCPkQKx7lUAJZqTB
IVOuQJZuUUDzA7TBmInlQAdpJ0BWe5jBq4nXQDPupkDnk6/BiGzfQAhoSUBr76PBOHmzQHbyK0Cs
n6jBT0yvQJTeK0GZ0KvBPBHmQDq48UDHXLTBosWuQDs94UAt5KfBIACPQOfTT0BmPaLB7FBOQDnj
bEC9FJPB5ZqvQIkClkDNfbPB6kO2QPoiPsAYKq/BuFliQCrgRj8zt5/BKya7QLACTEAMWo/BxKXr
QCyVmD8r3LPBNo7tQEXjn79L7bbBLQZ4QKax278S3aPBYS7uQG1pGUGJRbjBM/WKQE8hCkHdpaHB
Fs8CQYsQnkCWuqLBbDvPQBP+o0CmUZ7Be4XIQOBTOkCAIrnBv3qPQCboPEAMZLfBxE7lQPIQwj/L
spjB1EsCQQPhPUCjb5XBxLLxQP0WoUAaSLXB7bL4QAFdLUAv9ajB4sCWQC47MEHLu7HBTuaiQOHE
LkEYtaPB/RnMQNekNUGkHq3Buy1qQNmzYkBiTKbBBkBKQHnpc0BGJYvBEz4aQDhxdECNopfB

> <OMEGA_E>
mHDPPggT4j4=

> <OMEGA_NBR>
     86655

$$$$
303934
  -OEChem-04172616093D

 44 47  0     1  0  0  0  0  0999 V2000
    3.6418   -1.7923  -20.2054 C   0  0  0  0  0  0  0  0  0  0  0  0
    5.6361   -1.6263  -21.6318 C   0  0  0  0  0  0  0  0  0  0  0  0
    6.6201   -0.8403  -22.2527 C   0  0  0  0  0  0  0  0  0  0  0  0
    4.6693    0.3737  -20.6343 C   0  0  0  0  0  0  0  0  0  0  0  0
    5.7091    7.5664  -21.2628 C   0  0  0  0  0  0  0  0  0  0  0  0
    4.6636   -1.0146  -20.8226 C   0  0  0  0  0  0  0  0  0  0  0  0
    5.6492    1.1860  -21.2549 C   0  0  0  0  0  0  0  0  0  0  0  0
    6.6365    0.5553  -22.0718 C   0  0  0  0  0  0  0  0  0  0  0  0
    6.5753    6.7768  -21.9669 C   0  0  0  0  0  0  0  0  0  0  0  0
    5.9782    8.9405  -21.6590 C   0  0  0  0  0  0  0  0  0  0  0  0
    4.3922    3.2379  -18.9348 C   0  0  0  0  0  0  0  0  0  0  0  0
    6.9465    4.8141  -20.4839 C   0  0  0  0  0  0  0  0  0  0  0  0
    5.3459    3.3528  -22.4627 C   0  0  0  0  0  0  0  0  0  0  0  0
    7.1752    2.6986  -19.0532 C   0  0  0  0  0  0  0  0  0  0  0  0
    6.6433    5.2885  -21.9206 C   0  0  1  0  0  0  0  0  0  0  0  0
    6.9312    3.2719  -20.4589 C   0  0  1  0  0  0  0  0  0  0  0  0
    5.6034    2.7172  -21.0705 C   0  0  2  0  0  0  0  0  0  0  0  0
    5.2463   10.1486  -21.1363 C   0  0  0  0  0  0  0  0  0  0  0  0
    2.7952   -2.4129  -19.6995 N   0  0  0  0  0  0  0  0  0  0  0  0
    6.9439    8.9272  -22.5471 N   0  0  0  0  0  0  0  0  0  0  0  0
    4.4256    3.1484  -20.2469 N   0  3  0  0  0  0  0  0  0  0  0  0
    3.1670    3.4916  -18.3395 N   0  0  0  0  0  0  0  0  0  0  0  0
    7.3291    7.5851  -22.7541 O   0  0  0  0  0  0  0  0  0  0  0  0
    5.3700    4.7795  -22.3569 O   0  0  0  0  0  0  0  0  0  0  0  0
    7.6039    1.2579  -22.7074 F   0  0  0  0  0  0  0  0  0  0  0  0
    5.8090    3.0795  -17.8899 S   0  0  0  0  0  0  0  0  0  0  0  0
    5.6267   -2.6966  -21.7755 H   0  0  0  0  0  0  0  0  0  0  0  0
    7.3691   -1.3098  -22.8731 H   0  0  0  0  0  0  0  0  0  0  0  0
    3.9170    0.8300  -20.0080 H   0  0  0  0  0  0  0  0  0  0  0  0
    4.9685    7.2345  -20.5503 H   0  0  0  0  0  0  0  0  0  0  0  0
    7.9368    5.1795  -20.1746 H   0  0  0  0  0  0  0  0  0  0  0  0
    6.1810    5.2030  -19.7964 H   0  0  0  0  0  0  0  0  0  0  0  0
    6.1278    3.0254  -23.1638 H   0  0  0  0  0  0  0  0  0  0  0  0
    4.3619    3.0309  -22.8345 H   0  0  0  0  0  0  0  0  0  0  0  0
    7.2774    1.6061  -19.1310 H   0  0  0  0  0  0  0  0  0  0  0  0
    8.1069    3.1265  -18.6548 H   0  0  0  0  0  0  0  0  0  0  0  0
    7.4437    4.9359  -22.5878 H   0  0  0  0  0  0  0  0  0  0  0  0
    7.7532    2.9255  -21.1026 H   0  0  0  0  0  0  0  0  0  0  0  0
    5.6438   11.0550  -21.6164 H   0  0  0  0  0  0  0  0  0  0  0  0
    4.1740   10.0540  -21.3630 H   0  0  0  0  0  0  0  0  0  0  0  0
    5.3860   10.2192  -20.0475 H   0  0  0  0  0  0  0  0  0  0  0  0
    3.5900    3.3899  -20.7403 H   0  0  0  0  0  0  0  0  0  0  0  0
    3.1029    3.5799  -17.3455 H   0  0  0  0  0  0  0  0  0  0  0  0
    2.3470    3.5863  -18.9038 H   0  0  0  0  0  0  0  0  0  0  0  0
  1  6  1  0  0  0  0
  1 19  3  0  0  0  0
  2  3  2  0  0  0  0
  2  6  1  0  0  0  0
  3  8  1  0  0  0  0
  4  6  2  0  0  0  0
  4  7  1  0  0  0  0
  5  9  2  0  0  0  0
  5 10  1  0  0  0  0
  7  8  2  0  0  0  0
  7 17  1  0  0  0  0
  8 25  1  0  0  0  0
  9 15  1  0  0  0  0
  9 23  1  0  0  0  0
 10 18  1  0  0  0  0
 10 20  2  0  0  0  0
 11 21  2  0  0  0  0
 11 22  1  0  0  0  0
 11 26  1  0  0  0  0
 12 15  1  0  0  0  0
 12 16  1  0  0  0  0
 13 17  1  0  0  0  0
 13 24  1  0  0  0  0
 14 16  1  0  0  0  0
 14 26  1  0  0  0  0
 15 24  1  0  0  0  0
 16 17  1  0  0  0  0
 17 21  1  0  0  0  0
 20 23  1  0  0  0  0
  2 27  1  0  0  0  0
  3 28  1  0  0  0  0
  4 29  1  0  0  0  0
  5 30  1  0  0  0  0
 12 31  1  0  0  0  0
 12 32  1  0  0  0  0
 13 33  1  0  0  0  0
 13 34  1  0  0  0  0
 14 35  1  0  0  0  0
 14 36  1  0  0  0  0
 15 37  1  0  0  0  0
 16 38  1  0  0  0  0
 18 39  1  0  0  0  0
 18 40  1  0  0  0  0
 18 41  1  0  0  0  0
 21 42  1  0  0  0  0
 22 43  1  0  0  0  0
 22 44  1  0  0  0  0
M  CHG  1  21   1
M  END
> <OMEGA_C>
khNpQGhq5b+UpKHBM1u0QLcp0L/UDa3Bz9fTQN8fV7+NBbLBu2qVQGxXvz4AE6XBGrG2QFsg8kAr
GqrBcTyVQETegb+alKbB3MW0QMfNlz8DCqrBdl7UQLYlDj8Yk7DBdWjSQOjb2EAovK/Bck2/QFoM
D0GdRa3BhoyMQPQ4T0CCepfBokneQM4MmkAO36PBSxGrQCeUVkCls7PBEJvlQCq1LEDybJjBL5bU
QLQ7qUB4Xa/BwczdQOJmUUDkq6PBW0+zQHXmLUBUkKjBVeGnQLpgIkEzF6nBUuUyQEBtGsCgmJ3B
fTTeQM7VDkFqYLTByZ6NQPl/SUCr+aHB77BKQMl1X0BGt5LBxYfqQPy48kBNCLbBNterQNTxmED2
2rLBF1PzQHIEoT+yqLXBfOO5QE4XRUBzHo/BTQ60QJGVLMAhNK7BBdDrQBanp78y/LbBda96QNd9
VD92EKDBjP2eQB+B50ACZ6TBivr9QJK+pUCeZaHBicrFQPR+pkD3Xp7BvhbEQNSgQUBdT7nB0pSL
QMX6QUAnrbbBeuDoQEeUzT9gDJnB8bUBQWQZSEAgPZXBozLuQKPynUDCs7TBlhr4QL86O0AY0qjB
CJq0QBnhMEF27qzBoZGFQDTdIEFk56rBX1qsQOKBI0FYYaDBCcNlQHfzWEA67KXBFJZGQBcdZUCD
w4rBvTQWQKyGZUANO5fBayr9QLJ80r+SUrDBlQ+vQHbazr9r6a3BaAKJQDL/Z7/3AazBK47XQDBq
6j4rg6zB4lTdQDEE90AXlKbBTVfWQER4br9QPa7BZbOxQDynlz8LEqrB3+OJQN679z5YOarBC6PY
QF9k2UDGmK7B+6nXQJOJEEE9hqvBAuCLQCWdTUCOYZfB9xXhQJIBmEC1p6LB34awQDspWECVfbPB
LHLkQMOeJEA4vJfBg37aQC1RqUCqIq7BEqLeQCjrTECU6qLB5OuzQOECLkBSTKjBrrzZQNPaJUFe
6KXBS28OQVY/DsD1/rHBCmPQQKGyDUHev7XBDLmOQJcmTkCT4qHB5ENJQNdoYUCI15LBevnQQFsk
70Dm0bfB/5yyQMbrmUBuhLLB5cdHQFh6jj9+2ajB9pO3QDyuO0D2r47BWiOuQHPXK8D0Hq/BxqFV
QNI9t79O6avBZ7j1QE4Jez++DK3Bt+rjQGaO8ECAQJ7BZk8AQXkIokCCp5/BhO3HQKylpECgX53B
7xrLQJLGQUBLibjB3umRQM4SRkAFM7fBjkHnQGOovT/TppjBe/4AQR4LPkCEKJTBJEf1QKAznkCn
H7PBXx35QDkmNkCO96fBvy7UQE/EMkFjuavBoQrBQGh9JkEZpZ/BlID5QFjdJ0F0QKLBEcVrQIcb
ZkCn8aXB8nlDQAQmZUBw44rBMW8WQIzza0BUhZfB+/hcQD/U1b9z95/B+tCsQJnC17+/7KvB8ozN
QI6Nfr9pQ7HBMjCSQMRJ1T4gsKTBecbWQF4q+0AVEbHB+2CPQN5Qer8yl6XBqhGzQOkCkT92/KnB
4BnRQHTozT5LTrDBQofIQKA81UCA/azBMDy8QOQoDkEzGazB4/OOQDLHVkD1IZjBsiXlQKBMlUD0
YaTB2xaxQKbPUEBgSLTBPmbmQEhWJUBDnZjB353WQBLBqEDqQq/B6/DgQERpSEA3D6TBH4q1QL6n
KkA87KjB2IW/QDrlJUFCw63BgREnQJiLDsDrT5vBeZOgQMniBEFHwKXBcXeQQJYaTkAXnKLBxiFQ
QAz8bEAHkZPBMXOnQIK23UDBP6bBbEawQCK6lUBglbPBzK/xQOq2gD+4j7XBvY27QAp1SUA5k4/B
s0KqQBqLMMDerqzBAyjkQLDtxL9EI7bBkBR2QNZgcz8D55/B1VDwQNHI/0CNxbbBSm0DQT/anUDg
BKPBlUbRQGz5okBP+Z3Bf3LMQLamPECdNrnBCzSTQND4OUDO87fBlxLmQOv3vT8G7ZjBPqkCQf9X
O0BRb5XBeSzxQCQ0qEAbCbXBIK/6QBZbLUCDBKnBrEmnQKsOLkEa26jB55rfQAxiK0FqZqvB+Re6
QEmjKUHxQLbBuGdtQEC2YEDOvqbBqKdLQAABdUA6povB74UcQLD6dEDdMJjB

> <OMEGA_E>
oE2MPszd6T4Ywxc/

> <OMEGA_NBR>
     89251

$$$$
303935
  -OEChem-04172616093D

 44 47  0     1  0  0  0  0  0999 V2000
    3.6608   -1.8189  -20.2585 C   0  0  0  0  0  0  0  0  0  0  0  0
    5.6653   -1.6248  -21.6620 C   0  0  0  0  0  0  0  0  0  0  0  0
    6.6555   -0.8306  -22.2604 C   0  0  0  0  0  0  0  0  0  0  0  0
    4.6559    0.3658  -20.6858 C   0  0  0  0  0  0  0  0  0  0  0  0
    6.9451    8.8177  -22.5722 C   0  0  0  0  0  0  0  0  0  0  0  0
    4.6696   -1.0232  -20.8736 C   0  0  0  0  0  0  0  0  0  0  0  0
    5.6485    1.1846  -21.2764 C   0  0  0  0  0  0  0  0  0  0  0  0
    6.6585    0.5634  -22.0739 C   0  0  0  0  0  0  0  0  0  0  0  0
    5.9611    8.8151  -21.6188 C   0  0  0  0  0  0  0  0  0  0  0  0
    6.5804    6.7534  -21.9215 C   0  0  0  0  0  0  0  0  0  0  0  0
    4.3884    3.2577  -18.9395 C   0  0  0  0  0  0  0  0  0  0  0  0
    6.9434    4.7961  -20.4572 C   0  0  0  0  0  0  0  0  0  0  0  0
    5.3562    3.3525  -22.4667 C   0  0  0  0  0  0  0  0  0  0  0  0
    7.1601    2.6766  -19.0458 C   0  0  0  0  0  0  0  0  0  0  0  0
    6.6544    5.2732  -21.8898 C   0  0  1  0  0  0  0  0  0  0  0  0
    6.9265    3.2577  -20.4476 C   0  0  1  0  0  0  0  0  0  0  0  0
    5.6006    2.7117  -21.0745 C   0  0  2  0  0  0  0  0  0  0  0  0
    5.2279   10.0195  -21.0900 C   0  0  0  0  0  0  0  0  0  0  0  0
    2.8313   -2.4606  -19.7507 N   0  0  0  0  0  0  0  0  0  0  0  0
    5.7496    7.5031  -21.2375 N   0  0  0  0  0  0  0  0  0  0  0  0
    4.4181    3.1379  -20.2505 N   0  3  0  0  0  0  0  0  0  0  0  0
    3.1710    3.5535  -18.3475 N   0  0  0  0  0  0  0  0  0  0  0  0
    7.3178    7.5332  -22.7472 O   0  0  0  0  0  0  0  0  0  0  0  0
    5.3878    4.7755  -22.3534 O   0  0  0  0  0  0  0  0  0  0  0  0
    7.6398    1.2719  -22.6810 F   0  0  0  0  0  0  0  0  0  0  0  0
    5.8019    3.0921  -17.8894 S   0  0  0  0  0  0  0  0  0  0  0  0
    5.6684   -2.6950  -21.8069 H   0  0  0  0  0  0  0  0  0  0  0  0
    7.4199   -1.2926  -22.8677 H   0  0  0  0  0  0  0  0  0  0  0  0
    3.8801    0.8161  -20.0843 H   0  0  0  0  0  0  0  0  0  0  0  0
    7.3447    9.6805  -23.0843 H   0  0  0  0  0  0  0  0  0  0  0  0
    7.9309    5.1592  -20.1364 H   0  0  0  0  0  0  0  0  0  0  0  0
    6.1716    5.1808  -19.7743 H   0  0  0  0  0  0  0  0  0  0  0  0
    6.1413    3.0236  -23.1635 H   0  0  0  0  0  0  0  0  0  0  0  0
    4.3732    3.0376  -22.8467 H   0  0  0  0  0  0  0  0  0  0  0  0
    7.2362    1.5821  -19.1243 H   0  0  0  0  0  0  0  0  0  0  0  0
    8.1016    3.0820  -18.6467 H   0  0  0  0  0  0  0  0  0  0  0  0
    7.4641    4.9293  -22.5502 H   0  0  0  0  0  0  0  0  0  0  0  0
    7.7525    2.9154  -21.0884 H   0  0  0  0  0  0  0  0  0  0  0  0
    4.4864    9.6993  -20.3432 H   0  0  0  0  0  0  0  0  0  0  0  0
    5.9456   10.7090  -20.6215 H   0  0  0  0  0  0  0  0  0  0  0  0
    4.7162   10.5303  -21.9190 H   0  0  0  0  0  0  0  0  0  0  0  0
    3.5748    3.3504  -20.7442 H   0  0  0  0  0  0  0  0  0  0  0  0
    3.1116    3.6665  -17.3557 H   0  0  0  0  0  0  0  0  0  0  0  0
    2.3517    3.6539  -18.9121 H   0  0  0  0  0  0  0  0  0  0  0  0
  1  6  1  0  0  0  0
  1 19  3  0  0  0  0
  2  3  2  0  0  0  0
  2  6  1  0  0  0  0
  3  8  1  0  0  0  0
  4  6  2  0  0  0  0
  4  7  1  0  0  0  0
  5  9  2  0  0  0  0
  5 23  1  0  0  0  0
  7  8  2  0  0  0  0
  7 17  1  0  0  0  0
  8 25  1  0  0  0  0
  9 18  1  0  0  0  0
  9 20  1  0  0  0  0
 10 15  1  0  0  0  0
 10 20  2  0  0  0  0
 10 23  1  0  0  0  0
 11 21  2  0  0  0  0
 11 22  1  0  0  0  0
 11 26  1  0  0  0  0
 12 15  1  0  0  0  0
 12 16  1  0  0  0  0
 13 17  1  0  0  0  0
 13 24  1  0  0  0  0
 14 16  1  0  0  0  0
 14 26  1  0  0  0  0
 15 24  1  0  0  0  0
 16 17  1  0  0  0  0
 17 21  1  0  0  0  0
  2 27  1  0  0  0  0
  3 28  1  0  0  0  0
  4 29  1  0  0  0  0
  5 30  1  0  0  0  0
 12 31  1  0  0  0  0
 12 32  1  0  0  0  0
 13 33  1  0  0  0  0
 13 34  1  0  0  0  0
 14 35  1  0  0  0  0
 14 36  1  0  0  0  0
 15 37  1  0  0  0  0
 16 38  1  0  0  0  0
 18 39  1  0  0  0  0
 18 40  1  0  0  0  0
 18 41  1  0  0  0  0
 21 42  1  0  0  0  0
 22 43  1  0  0  0  0
 22 44  1  0  0  0  0
M  CHG  1  21   1
M  END
> <OMEGA_C>
v0lqQFvS6L9oEaLB3Um1QKP4z7+tS63BQfrUQAKkVL9EFbLBOv2UQGNOuz6EfKXBbD7eQDEVDUH2
k7TBjm2VQBb4gr8m/abBucC0QEqhlz8QNqrBHxLVQMQ4ED9jl7DBQ8G+QLsKDUE386zBXZLSQAoc
2EAxX6/ByG2MQAV+UEAfhJfBcTDeQKl5mUBrqKPBZGarQJqOVkDJu7PB8B/lQPpNK0DlXZjBEPHU
QNS9qEBBHq/BLqbdQAx+UECwlKPBYzizQCyMLUChmKjB2kqnQMdPIEE7uKjBMTQ1QNp6HcBcAZ7B
kPy3QE0Z8ECA5qnBUmGNQNbSSEASAaLBNfFKQFxsY0C3x5LBQCvqQAoQ8UA1+rXB52isQMHQmEDO
07LBnnn0QA/Noj+3crXBLam5QJXlRUCOHY/BQWO1QPp6LMBwdK7BiW/tQNx0pb/08LbBuVN4QELu
UD+4rKDB/QfrQITjGkGWrLjBOcr9QGkYpUBXF6HBIn7FQBnJpUDKMZ7BN4XEQCOCQUDrTrnBHvGL
QFtnQkAWxrbBSY/nQGyByj99/pjBU6ABQTI/RUCHLJXBi9nuQHS8nUDmZrTBPRT4QA2WOkAftajB
W5CPQEkwG0HkvqLBOkK+QD9YK0Ht+KTBGOuWQPl7KEEOWq/BCMpkQHBsVkAR9KXBziRHQO+nakB4
2IrB5YIWQEDaaUABTJfBwhYBQfWfyL+itq/BGIW0QHvR0r8ki6zB+qWNQMBzfL/DiarBLqnZQIih
/D6nYqzBVsbeQJyWDkETOKvBuobaQHipZ7/Iia3Bkg2zQHRqlj+D1qnBXnuMQPKL0z4STqnBSFDA
QLYJDkGwGrPBDN3RQJX82UBIkq/Bx9eMQH3dT0DafJfBaA7eQH5umkAgEqTB+RCtQFZCVEC8+rPB
UhvmQMl7LkCgeZjB3ejUQOQGqkBXl6/Be8LdQGkeUkCUzqPBmBCzQJMDLkDAnajBYnSqQMYCIUFS
LLjBP0kRQV6aBsAzdrHBTwi5QPCM8UBrqLXBXxyOQPndTEDVAaLBDbhLQNuGYUCvrZLBvq/pQNQg
9EA4NanBtTOtQEk7mECvhLPBzX5LQFKSfT8gxafBTy66QEZCRUCmIo/B8DG1QLM8LsCZUa3BSs5g
QCNBx7/x76nBNcv2QJOKhz+6c63Bho3rQNGsHEEKXqfB3pX9QAUypkByfaHBqj7FQPDGpkAjpZ7B
zVzHQCWIPkAkKbnBSF6OQBJFPkBJS7fBfj3qQKtr0T/5BpnBes0BQfCPS0B6VpXBXJTvQK4ioEBX
xrTBXPn3QBHYO0BS+qjB86OTQOtnG0GvQr7BHzqZQGgcKkFX/rHB843CQJlcK0E99rvBuzxoQHPz
YEDS8KXBZR1IQMfYZ0D2uorBSxQXQJDyZ0BEKJfB

> <OMEGA_E>
aFDfPlh4ET8=

> <OMEGA_NBR>
     91071

$$$$
303936
  -OEChem-04172616093D

 45 48  0     1  0  0  0  0  0999 V2000
    3.6983   -1.8103  -20.1209 C   0  0  0  0  0  0  0  0  0  0  0  0
    5.6419   -1.6361  -21.6151 C   0  0  0  0  0  0  0  0  0  0  0  0
    6.6122   -0.8487  -22.2553 C   0  0  0  0  0  0  0  0  0  0  0  0
    4.6570    0.3695  -20.6451 C   0  0  0  0  0  0  0  0  0  0  0  0
    7.2979    7.6823  -22.8251 C   0  0  0  0  0  0  0  0  0  0  0  0
    5.7622    7.5821  -21.1241 C   0  0  0  0  0  0  0  0  0  0  0  0
    4.6714   -1.0236  -20.8038 C   0  0  0  0  0  0  0  0  0  0  0  0
    5.6298    1.1828  -21.2776 C   0  0  0  0  0  0  0  0  0  0  0  0
    6.5782    6.7943  -21.8914 C   0  0  0  0  0  0  0  0  0  0  0  0
    6.6199    0.5489  -22.0888 C   0  0  0  0  0  0  0  0  0  0  0  0
    4.3891    3.2313  -18.9390 C   0  0  0  0  0  0  0  0  0  0  0  0
    6.9532    4.7932  -20.4501 C   0  0  0  0  0  0  0  0  0  0  0  0
    5.3664    3.3718  -22.4692 C   0  0  0  0  0  0  0  0  0  0  0  0
    7.1629    2.6526  -19.0590 C   0  0  0  0  0  0  0  0  0  0  0  0
    6.6605    5.3027  -21.8760 C   0  0  1  0  0  0  0  0  0  0  0  0
    6.9280    3.2498  -20.4558 C   0  0  1  0  0  0  0  0  0  0  0  0
    5.5980    2.7154  -21.0808 C   0  0  2  0  0  0  0  0  0  0  0  0
    5.2790   10.0280  -21.0972 C   0  0  0  0  0  0  0  0  0  0  0  0
    2.8999   -2.4400  -19.5518 N   0  0  0  0  0  0  0  0  0  0  0  0
    6.9192    8.9193  -22.5973 N   0  0  0  0  0  0  0  0  0  0  0  0
    6.0194    8.8472  -21.5835 N   0  0  0  0  0  0  0  0  0  0  0  0
    4.4210    3.1493  -20.2532 N   0  3  0  0  0  0  0  0  0  0  0  0
    3.1691    3.4988  -18.3388 N   0  0  0  0  0  0  0  0  0  0  0  0
    5.3963    4.7986  -22.3463 O   0  0  0  0  0  0  0  0  0  0  0  0
    7.5901    1.2491  -22.7225 F   0  0  0  0  0  0  0  0  0  0  0  0
    5.8039    3.0479  -17.8940 S   0  0  0  0  0  0  0  0  0  0  0  0
    5.6412   -2.7082  -21.7456 H   0  0  0  0  0  0  0  0  0  0  0  0
    7.3577   -1.3187  -22.8796 H   0  0  0  0  0  0  0  0  0  0  0  0
    3.8947    0.8285  -20.0330 H   0  0  0  0  0  0  0  0  0  0  0  0
    8.0146    7.3682  -23.5694 H   0  0  0  0  0  0  0  0  0  0  0  0
    5.0795    7.2791  -20.3440 H   0  0  0  0  0  0  0  0  0  0  0  0
    7.9444    5.1452  -20.1284 H   0  0  0  0  0  0  0  0  0  0  0  0
    6.1870    5.1725  -19.7579 H   0  0  0  0  0  0  0  0  0  0  0  0
    6.1579    3.0490  -23.1615 H   0  0  0  0  0  0  0  0  0  0  0  0
    4.3870    3.0602  -22.8609 H   0  0  0  0  0  0  0  0  0  0  0  0
    7.2431    1.5594  -19.1508 H   0  0  0  0  0  0  0  0  0  0  0  0
    8.1031    3.0566  -18.6554 H   0  0  0  0  0  0  0  0  0  0  0  0
    7.4715    4.9744  -22.5428 H   0  0  0  0  0  0  0  0  0  0  0  0
    7.7502    2.9099  -21.1028 H   0  0  0  0  0  0  0  0  0  0  0  0
    5.5787   10.9137  -21.6767 H   0  0  0  0  0  0  0  0  0  0  0  0
    4.1988    9.8589  -21.2185 H   0  0  0  0  0  0  0  0  0  0  0  0
    5.5073   10.1914  -20.0336 H   0  0  0  0  0  0  0  0  0  0  0  0
    3.5865    3.3983  -20.7447 H   0  0  0  0  0  0  0  0  0  0  0  0
    3.1088    3.5823  -17.3441 H   0  0  0  0  0  0  0  0  0  0  0  0
    2.3489    3.6084  -18.9003 H   0  0  0  0  0  0  0  0  0  0  0  0
  1  7  1  0  0  0  0
  1 19  3  0  0  0  0
  2  3  2  0  0  0  0
  2  7  1  0  0  0  0
  3 10  1  0  0  0  0
  4  7  2  0  0  0  0
  4  8  1  0  0  0  0
  5  9  1  0  0  0  0
  5 20  2  0  0  0  0
  6  9  2  0  0  0  0
  6 21  1  0  0  0  0
  8 10  2  0  0  0  0
  8 17  1  0  0  0  0
  9 15  1  0  0  0  0
 10 25  1  0  0  0  0
 11 22  2  0  0  0  0
 11 23  1  0  0  0  0
 11 26  1  0  0  0  0
 12 15  1  0  0  0  0
 12 16  1  0  0  0  0
 13 17  1  0  0  0  0
 13 24  1  0  0  0  0
 14 16  1  0  0  0  0
 14 26  1  0  0  0  0
 15 24  1  0  0  0  0
 16 17  1  0  0  0  0
 17 22  1  0  0  0  0
 18 21  1  0  0  0  0
 20 21  1  0  0  0  0
  2 27  1  0  0  0  0
  3 28  1  0  0  0  0
  4 29  1  0  0  0  0
  5 30  1  0  0  0  0
  6 31  1  0  0  0  0
 12 32  1  0  0  0  0
 12 33  1  0  0  0  0
 13 34  1  0  0  0  0
 13 35  1  0  0  0  0
 14 36  1  0  0  0  0
 14 37  1  0  0  0  0
 15 38  1  0  0  0  0
 16 39  1  0  0  0  0
 18 40  1  0  0  0  0
 18 41  1  0  0  0  0
 18 42  1  0  0  0  0
 22 43  1  0  0  0  0
 23 44  1  0  0  0  0
 23 45  1  0  0  0  0
M  CHG  1  22   1
M  END
> <OMEGA_C>
57BsQDq457+c96DBJYq0QGNs0b+866zBfpfTQINHWb/KCrLB/QWVQJQuvT44KaXBpYjpQGzV9UC6
mbbBj2O4QLug8kA8/qjBLHyVQIsFg78ybqbB7ia0QLxmlz99OKrBT4DSQPNq2UCKIa/Bn9bTQImC
DD/YtbDBK3OMQCjOTkAbg5fBfYDeQP5hmUC/maPB27mrQDrMV0DbwLPB2TblQOjEKUDJeJjB6CLV
QFWvqUAaAq/Bj7LdQHj8T0CFpaPBkiKzQE7JLUB5pajBU+2oQLxyIEEUx6jBVpc5QLcpHMABapzB
1WndQJS1DkFWx7TBTp/AQE6ODUEZq6zB1niNQJCOSUB/BqLBvtFKQPrsX0DMtZLBjK6sQOmNmUBS
xbLBAuLyQKninz+ax7XBLbm5QBoRQ0DTJo/B0oS0QDZTLcAM963BqXLrQPLJqL9xCbfBiEJ5QJwV
VD+lQ6DB8jsAQZnI60A2jrzBXIuiQADu6ECZwKLB3zj+QJqlpEDfBqHBs/vFQMmEpUAxEJ7BUg3F
QDEiQ0DUSrnB7GGMQKLZQ0An47bBIcfnQOWaxz/bNJnBeqYBQQGfQ0BLPpXBcRbvQEkun0CeV7TB
vwH4QCY8OkB20qjBUISyQGSeLkHcaa3B9VyGQOS9HUGTv6nB/juwQOkPI0HnRKDBlYllQHV+WUA5
9aXB/fZGQNhEZUCtwIrBAVQWQOnvZkDNM5fBnyn/QG6n0L+b6q/BbjyxQElT0786Jq3BXMuKQMpo
dr+COqvBLSfYQNNI6j6jeazBTfHQQMgC9UDyWbjB4DjeQEp69UAvVabBF+3XQAJPcL82163BC/Kx
QKNGlT/AAarBi7/XQDwI2kAvwq7BgLaKQO9d3j6yxqnB6/WLQP1OTUAzaZfBbuPfQEdRmEAfLKPB
WLeuQLMLV0BCq7PBxMnkQKAoJ0B8CZjBv4bYQPubqUAfo67BawTeQM3RTUDUR6PBYDuzQO9MLUBc
cqjBUg7hQAqUIkEBoqTB0ZkPQWYuDMA2lbHBrh3TQPbADkEihrXB5HjaQLutDkHb1KrBECKOQNaa
TEAt7aHBfpNJQJnpX0A8wZLB9GawQNesmUBn1LLBcbdIQDzvhD+nUKjB8Ga4QFucPkAJ3I7BWw+x
QHteLsCSF67BWBBaQB46wb/L3KrBUdb1QCUUgD+rUK3BfyXLQBla6UDQWsDBRb/kQJeG7UCWFZ7B
/Hf/QK6/okBGSqDBc+DGQDrOpEAz053Ba/7IQMvfQECi07jBN+ePQMUZREAPNLfBbOPnQFuewj+/
0JjBXjcBQUemQUByo5TB4AnzQDOMnkD8uLPBE1r4QHUeN0BHYqjBXvXeQFp0MEFEBarBj0bIQObb
I0F0ap7BTWoAQf82IkG92aDBrIhpQI3zYkCd7KXBnbZEQFqeZEC3zIrBmOwVQGOgaEDsWZfBljJb
QIcH1r8sIqDB2dasQAnJ2L+ow6vB9avNQAuugL/yFbHB6fyRQHCn0z59qqTBAIemQHMk4UBl2qXB
axTZQOUm+0CCf7HBrRuPQIZWe7+wjKXBhvqyQPpLkD+Z9anBUwHKQJHl1UAlL63BPg3RQFwNyT4Y
O7DB+RiPQN6DVkCdLZjBOXnlQFoqlUD/d6TBftawQDTlUEBxS7TBGq/mQHwtJUBGtJjBvdXWQEO+
qECkVa/BuAfhQGoySECOJKTBrYO1QEptKkBK9ajBbWDCQDzDI0E+Ta/BJjgkQJzBDsBxsZvBfuOh
QIlZBUFn0qXBCfS/QGndDEGbpKzBPo2QQGrsTUDApaLBrppQQH5tbUDvnpPB0iOwQEPhlUBKi7PB
P23xQDC2fj9VkrXBgJe7QEa9R0CIn4/B4W6qQD8hMcDJcazBYX/kQFTIxr+33rXBNaZ1QGEocz/W
5p/BSJ2TQAm2ykCTSaHBimXyQNKH/0DVRrfBu58DQXOLnUCdJKPBQsrRQLftokAZCZ7BiA7MQPPD
PEBsRrnBPdeSQPxLOkBK7rfB8ePmQHKovT9CCZnBSLgCQY4PPEAkhZXBZyzxQH5dp0CTKbXB7Kb6
QHn1LEDgH6nBuxypQPd4LEG7/arBX9vhQKAOKkGa76zBhfu9QN7hJUHk97fBTJVtQPCoYECIxqbB
sBBMQB8odUAes4vB7S4dQEI5dkBSQZjB

> <OMEGA_E>
KNKMPmiW5D4kTBY/

> <OMEGA_NBR>
     93707

$$$$
358120
  -OEChem-04172616093D

 44 47  0     1  0  0  0  0  0999 V2000
    7.2606    8.9207  -22.7559 C   0  0  0  0  0  0  0  0  0  0  0  0
    7.4082    7.5219  -22.7177 C   0  0  0  0  0  0  0  0  0  0  0  0
    4.5481    0.3461  -20.6312 C   0  0  0  0  0  0  0  0  0  0  0  0
    6.2732    9.5502  -21.9729 C   0  0  0  0  0  0  0  0  0  0  0  0
    4.4974   -1.0503  -20.7649 C   0  0  0  0  0  0  0  0  0  0  0  0
    5.5633    7.3790  -21.1209 C   0  0  0  0  0  0  0  0  0  0  0  0
    6.5236   -0.9988  -22.1092 C   0  0  0  0  0  0  0  0  0  0  0  0
    6.5607    6.7458  -21.9019 C   0  0  0  0  0  0  0  0  0  0  0  0
    5.5967    1.0999  -21.2279 C   0  0  0  0  0  0  0  0  0  0  0  0
    5.4298    8.7812  -21.1491 C   0  0  0  0  0  0  0  0  0  0  0  0
    5.4824   -1.7223  -21.5049 C   0  0  0  0  0  0  0  0  0  0  0  0
    6.5894    0.4004  -21.9785 C   0  0  0  0  0  0  0  0  0  0  0  0
    4.4224    3.2590  -18.9719 C   0  0  0  0  0  0  0  0  0  0  0  0
    7.0209    4.7165  -20.4932 C   0  0  0  0  0  0  0  0  0  0  0  0
    5.4436    3.2632  -22.4936 C   0  0  0  0  0  0  0  0  0  0  0  0
    7.1812    2.6016  -19.0605 C   0  0  0  0  0  0  0  0  0  0  0  0
    6.6918    5.2403  -21.9115 C   0  0  1  0  0  0  0  0  0  0  0  0
    6.9668    3.1695  -20.4722 C   0  0  1  0  0  0  0  0  0  0  0  0
    5.6269    2.6426  -21.0847 C   0  0  2  0  0  0  0  0  0  0  0  0
    4.4584    3.1356  -20.2822 N   0  3  0  0  0  0  0  0  0  0  0  0
    3.2072    3.5797  -18.3892 N   0  0  0  0  0  0  0  0  0  0  0  0
    5.4474    4.6957  -22.3972 O   0  0  0  0  0  0  0  0  0  0  0  0
    4.4961    9.3932  -20.3859 F   0  0  0  0  0  0  0  0  0  0  0  0
    5.4255   -3.0650  -21.6402 F   0  0  0  0  0  0  0  0  0  0  0  0
    7.6123    1.0392  -22.5936 F   0  0  0  0  0  0  0  0  0  0  0  0
    5.8310    3.0814  -17.9147 S   0  0  0  0  0  0  0  0  0  0  0  0
    7.9061    9.5133  -23.3872 H   0  0  0  0  0  0  0  0  0  0  0  0
    8.1710    7.0429  -23.3136 H   0  0  0  0  0  0  0  0  0  0  0  0
    3.7804    0.8553  -20.0675 H   0  0  0  0  0  0  0  0  0  0  0  0
    6.1632   10.6241  -22.0048 H   0  0  0  0  0  0  0  0  0  0  0  0
    3.6994   -1.6082  -20.2977 H   0  0  0  0  0  0  0  0  0  0  0  0
    4.9046    6.7865  -20.5033 H   0  0  0  0  0  0  0  0  0  0  0  0
    7.2790   -1.5203  -22.6782 H   0  0  0  0  0  0  0  0  0  0  0  0
    8.0297    5.0493  -20.2074 H   0  0  0  0  0  0  0  0  0  0  0  0
    6.2867    5.1160  -19.7782 H   0  0  0  0  0  0  0  0  0  0  0  0
    6.2678    2.9387  -23.1458 H   0  0  0  0  0  0  0  0  0  0  0  0
    4.4860    2.9282  -22.9186 H   0  0  0  0  0  0  0  0  0  0  0  0
    7.2220    1.5040  -19.1216 H   0  0  0  0  0  0  0  0  0  0  0  0
    8.1345    2.9825  -18.6654 H   0  0  0  0  0  0  0  0  0  0  0  0
    7.5128    4.9577  -22.5869 H   0  0  0  0  0  0  0  0  0  0  0  0
    7.7852    2.8007  -21.1081 H   0  0  0  0  0  0  0  0  0  0  0  0
    3.6346    3.3930  -20.7873 H   0  0  0  0  0  0  0  0  0  0  0  0
    3.1448    3.7038  -17.3989 H   0  0  0  0  0  0  0  0  0  0  0  0
    2.3924    3.6871  -18.9590 H   0  0  0  0  0  0  0  0  0  0  0  0
  1  2  1  0  0  0  0
  1  4  2  0  0  0  0
  2  8  2  0  0  0  0
  3  5  2  0  0  0  0
  3  9  1  0  0  0  0
  4 10  1  0  0  0  0
  5 11  1  0  0  0  0
  6  8  1  0  0  0  0
  6 10  2  0  0  0  0
  7 11  2  0  0  0  0
  7 12  1  0  0  0  0
  8 17  1  0  0  0  0
  9 12  2  0  0  0  0
  9 19  1  0  0  0  0
 10 23  1  0  0  0  0
 11 24  1  0  0  0  0
 12 25  1  0  0  0  0
 13 20  2  0  0  0  0
 13 21  1  0  0  0  0
 13 26  1  0  0  0  0
 14 17  1  0  0  0  0
 14 18  1  0  0  0  0
 15 19  1  0  0  0  0
 15 22  1  0  0  0  0
 16 18  1  0  0  0  0
 16 26  1  0  0  0  0
 17 22  1  0  0  0  0
 18 19  1  0  0  0  0
 19 20  1  0  0  0  0
  1 27  1  0  0  0  0
  2 28  1  0  0  0  0
  3 29  1  0  0  0  0
  4 30  1  0  0  0  0
  5 31  1  0  0  0  0
  6 32  1  0  0  0  0
  7 33  1  0  0  0  0
 14 34  1  0  0  0  0
 14 35  1  0  0  0  0
 15 36  1  0  0  0  0
 15 37  1  0  0  0  0
 16 38  1  0  0  0  0
 16 39  1  0  0  0  0
 17 40  1  0  0  0  0
 18 41  1  0  0  0  0
 20 42  1  0  0  0  0
 21 43  1  0  0  0  0
 21 44  1  0  0  0  0
M  CHG  1  20   1
M  END
> <OMEGA_C>
/1boQBW7DkEWDLbBrQ/tQCaz8EDXvbXB14mRQPc2sT6rDKXBTL7IQK3NGEGYyK/B3eqPQCxvhr+I
HqbBiwayQJAg7ECY96jBWMHQQIuzf7+p37DB5fDRQKbd10ACN6/BSBizQErKjD/G0qnBGsGtQLx/
DEFoManBbG+vQNx03L8UCqzBrNzSQLIAzT7/06/BnoSNQLSSUEBuxpfBdqvgQHftlkAf8qPB3zGu
QMPYUEDQ8rPBnczlQB6AJkDwe5jBbCPWQN6wp0CrSq/BR/DeQFbYSkAXx6PBWQ+0QAAhKUBhrajB
m6uOQFqtSEAEQqLBlEJNQHMZZUAsHZPBCFGuQFhDlkByLbPBvN+PQKNKFkFSFqPBwJ2tQPsoRMA3
H63Br5fzQFQFhT+jv7TBd5e6QOg0RUBEUY/BF//8QEg2GEEEGbvBPbwCQXhf4UBRgrrBcfFxQEv1
Wj87iqDBxzjFQGb8KUHECbDBBsNsQLHYzb+iYaLBPvKcQCwr2UCtBqTBze3oQMaawr/1bLXBhHkA
QYWToUCvqKHBXyzJQJe2o0DROZ7BxJHIQCEUPECMKrnB7YyPQEZnO0BWWbfB+xrnQOaDwD8G+ZjB
AScCQaPhPkDGUpXBrWjwQKalnkDisbTBFiD5QNM+M0Bk3ajBxp1oQHYnWUBKTKbBoUNJQJUKbUAH
MYvBJx0ZQGz5a0D4q5fBKlfpQKmTDkFatrXBNLXtQHNa8EB+iLXBGrXSQE+w9j4R06/BYS7JQEqX
GEHam6/B9KXTQGvfaL9oU7HBW2ixQJiB60DQI6nBAsmSQESSkL+AvabBaNLRQGpc10B4Qa/BZdax
QAqojD9TuanBSUWtQE41DEEQTanBk62zQMR827/jxazB3lKRQJlDhj4+NKXBgn2NQNFlUkCbrpfB
lt3gQBQ1lkA6HaTB2ZStQBTMT0AA7bPBlqXlQAJLJUDNoZjBUvzVQCorp0DYa6/BhEHeQGRtSUB9
66PBeLiyQNQ5KUDWkqjBoGKOQDxdTEBULaLBHENNQP6sZUAO7ZLBWR6uQNzQlUCbT7PBvoqOQHXy
FUGqcKPBAFi0QANiQ8DvOa7BUNxfQECsPD9GeJ/BlYS6QD12QkC7T4/BG7X+QAwfGEEoi7rBbDkD
QU8c4UC7NbrB1GjrQAT0iz/kXrPBqu7FQJ/KKUHAxK/Bd/PsQP8Rrr/W+rXBptubQHVy2EAoWqTB
0ah0QISY4L9RPaPBMbsAQT9GoEB18qHBovDJQCNuo0DqT57BdBjIQOvxOUBkB7nBp/6OQAWTOkA/
YbfB+XfnQOA0vj/wIpnBJgkCQSCQPkBCiJXBAyrwQJ5NnkDj3rTBndT3QIfCMEAGH6nBc2BpQEXy
YEDaMKbBQBVJQEdEakC39orB6VUZQHYAb0BvdJfBqrjpQHuvD0ExI6nBd6fsQEh68kCdw6jBfYuU
QF9dmz69kKTB0/bNQGegGUGGe7DBX6CUQHX9i7/hrqXB3Em4QHpU7UAQN7fB677RQKDdcb8isLHB
tR7TQCzx2EAzoa/B6DOzQI2XjT/N/qnB3mq1QAAbDUHpjrfBVCWzQCTo279xPqzBNxjSQDKB6T60
nLDBjXuMQE7aTUD5ipfBF67fQA8Hl0Bq9aPBes6rQOUIU0B1z7PBHBnlQBexJkC4cJjBNrXVQKot
qECYXq/BrqzdQLsjS0DmwKPB9dSyQGNRKUAwpajBiEqNQM4YRkDLCqLBXYpLQDApYkB1w5LBbtes
QB04l0CF3LLBRxObQE6bFkHZtb7BEAyzQNwDRMACU63BhHrwQFWZkj94B7bBq7C5QLcEQkDpJ4/B
+838QKtPGUEjx6PBlDoBQZpk40DQOKPBycp5QHRPRj9fhJ/BIn7LQHbbKkEGsbDBRVp6QOA22L9g
faHB6uulQJFE2kATxbzBoSXpQPjktr8Cu7bB5u3/QEp2oUDDlaHB4QbIQHHyo0BVTJ7BcUjFQOQV
PkAHSrnBToqMQNchP0Ag/7bBbHfnQDstwT8P/ZjBLKIBQb/BQEChSZXBTjzvQGmZnUAd0rTBssD3
QIN0M0CG3qjB39ZkQKu5VECI+6XBzy1IQG+daUA+1IrBtgoXQNBbaUDvP5fBHM/oQPb6D0G5I6nB
+BXsQGsb80AVzajBCMLYQE261z5zTazBaMbMQInWGUF3cLDB9vTYQJa1eb9hea3BNl+3QGya7UB7
KbfBJiKMQAZGg79gX6rBRJPSQIth2UD0oa/BRG6yQARJjz81uqnBvkC0QLg/DUHBfbfBLruyQMCv
2b8xZ6zBuoiLQExevz4bLanBAqaMQD1dTUDHapfBrg/fQED5l0Cd46PBXMutQLDyUEDg0rPBBKjl
QIRZKUBdTpjBTuzVQDejqEAFZK/BnszdQEg3TUCspqPBegqzQENjKkBufajB4CGOQDFNSkBc76HB
21dLQMPnX0Btp5LBJP2tQGV9lkCyOLPBALyZQD21FkFvnb7BHOyyQBXhQsC2hK3BfwhKQD9Vdz+m
qafBGMO5QFOzQUDKA4/BO9b7QECnGUH2yaPBMhUBQdIn5EAPTqPBSSP2QN9geT9BX63BzQ/KQG0P
K0F1orDB3YT2QNPtvr/8Mq/BPu2kQMlx2kAArrzBe2BdQDfnyr+OuanBwub+QPr3okDUVaHB0KnG
QCeipEBTZJ7BCmbIQNF7O0BY7LjBIEuPQGVHO0AtSLfBwjLpQAPixj8r2ZjBeKwBQVRtRUDUI5XB
ZGXwQO2mnkA4oLTBM/H3QDMRNkDQyKjBOL9oQFcXX0Ax6KXBpIBHQHA/ZkA3tYrBd/QWQM/vZkAa
KpfB

> <OMEGA_E>
WE+KPtBomT7QT7o+OG/XPg==

> <OMEGA_NBR>
     97079

$$$$
358124
  -OEChem-04172616093D

 47 50  0     1  0  0  0  0  0999 V2000
    7.2989    7.5420  -22.6015 C   0  0  0  0  0  0  0  0  0  0  0  0
    5.4583    7.1089  -21.0453 C   0  0  0  0  0  0  0  0  0  0  0  0
    4.5568    0.3626  -20.6287 C   0  0  0  0  0  0  0  0  0  0  0  0
    7.0263    8.9182  -22.5174 C   0  0  0  0  0  0  0  0  0  0  0  0
    5.1978    8.4755  -20.9535 C   0  0  0  0  0  0  0  0  0  0  0  0
    4.4981   -1.0307  -20.7810 C   0  0  0  0  0  0  0  0  0  0  0  0
    6.4986   -0.9721  -22.1659 C   0  0  0  0  0  0  0  0  0  0  0  0
    6.5168    6.6422  -21.8558 C   0  0  0  0  0  0  0  0  0  0  0  0
    5.5963    1.1125  -21.2394 C   0  0  0  0  0  0  0  0  0  0  0  0
    5.9890    9.3840  -21.6765 C   0  0  0  0  0  0  0  0  0  0  0  0
    5.4685   -1.6961  -21.5475 C   0  0  0  0  0  0  0  0  0  0  0  0
    6.5710    0.4211  -22.0220 C   0  0  0  0  0  0  0  0  0  0  0  0
    4.4449    3.3314  -18.9800 C   0  0  0  0  0  0  0  0  0  0  0  0
    7.1312    4.6485  -20.5457 C   0  0  0  0  0  0  0  0  0  0  0  0
    5.4493    3.2377  -22.5032 C   0  0  0  0  0  0  0  0  0  0  0  0
    7.1814    2.5929  -19.0472 C   0  0  0  0  0  0  0  0  0  0  0  0
    6.7446    5.1750  -21.9525 C   0  0  1  0  0  0  0  0  0  0  0  0
    6.9993    3.1223  -20.4799 C   0  0  1  0  0  0  0  0  0  0  0  0
    5.6392    2.6419  -21.0863 C   0  0  2  0  0  0  0  0  0  0  0  0
    5.6655   10.8526  -21.6035 C   0  0  0  0  0  0  0  0  0  0  0  0
    4.4765    3.1623  -20.2854 N   0  3  0  0  0  0  0  0  0  0  0  0
    3.2336    3.6835  -18.4050 N   0  0  0  0  0  0  0  0  0  0  0  0
    5.4898    4.6518  -22.4273 O   0  0  0  0  0  0  0  0  0  0  0  0
    5.4109   -3.0361  -21.6952 F   0  0  0  0  0  0  0  0  0  0  0  0
    7.5811    1.0587  -22.6611 F   0  0  0  0  0  0  0  0  0  0  0  0
    5.8503    3.1652  -17.9199 S   0  0  0  0  0  0  0  0  0  0  0  0
    8.0986    7.1803  -23.2308 H   0  0  0  0  0  0  0  0  0  0  0  0
    4.8497    6.4060  -20.4958 H   0  0  0  0  0  0  0  0  0  0  0  0
    3.8048    0.8691  -20.0419 H   0  0  0  0  0  0  0  0  0  0  0  0
    7.6092    9.6202  -23.0951 H   0  0  0  0  0  0  0  0  0  0  0  0
    4.3921    8.8338  -20.3299 H   0  0  0  0  0  0  0  0  0  0  0  0
    3.7059   -1.5921  -20.3083 H   0  0  0  0  0  0  0  0  0  0  0  0
    7.2399   -1.4903  -22.7561 H   0  0  0  0  0  0  0  0  0  0  0  0
    8.1722    4.9301  -20.3289 H   0  0  0  0  0  0  0  0  0  0  0  0
    6.4653    5.1006  -19.7960 H   0  0  0  0  0  0  0  0  0  0  0  0
    6.2551    2.8821  -23.1621 H   0  0  0  0  0  0  0  0  0  0  0  0
    4.4773    2.9194  -22.9081 H   0  0  0  0  0  0  0  0  0  0  0  0
    7.1751    1.4932  -19.0728 H   0  0  0  0  0  0  0  0  0  0  0  0
    8.1489    2.9451  -18.6600 H   0  0  0  0  0  0  0  0  0  0  0  0
    7.5573    4.9594  -22.6618 H   0  0  0  0  0  0  0  0  0  0  0  0
    7.8017    2.6920  -21.0971 H   0  0  0  0  0  0  0  0  0  0  0  0
    4.9314   11.1061  -22.3826 H   0  0  0  0  0  0  0  0  0  0  0  0
    5.2455   11.0867  -20.6142 H   0  0  0  0  0  0  0  0  0  0  0  0
    6.5833   11.4384  -21.7602 H   0  0  0  0  0  0  0  0  0  0  0  0
    3.6490    3.4025  -20.7929 H   0  0  0  0  0  0  0  0  0  0  0  0
    3.1738    3.8353  -17.4184 H   0  0  0  0  0  0  0  0  0  0  0  0
    2.4197    3.7857  -18.9769 H   0  0  0  0  0  0  0  0  0  0  0  0
  1  4  2  0  0  0  0
  1  8  1  0  0  0  0
  2  5  1  0  0  0  0
  2  8  2  0  0  0  0
  3  6  2  0  0  0  0
  3  9  1  0  0  0  0
  4 10  1  0  0  0  0
  5 10  2  0  0  0  0
  6 11  1  0  0  0  0
  7 11  2  0  0  0  0
  7 12  1  0  0  0  0
  8 17  1  0  0  0  0
  9 12  2  0  0  0  0
  9 19  1  0  0  0  0
 10 20  1  0  0  0  0
 11 24  1  0  0  0  0
 12 25  1  0  0  0  0
 13 21  2  0  0  0  0
 13 22  1  0  0  0  0
 13 26  1  0  0  0  0
 14 17  1  0  0  0  0
 14 18  1  0  0  0  0
 15 19  1  0  0  0  0
 15 23  1  0  0  0  0
 16 18  1  0  0  0  0
 16 26  1  0  0  0  0
 17 23  1  0  0  0  0
 18 19  1  0  0  0  0
 19 21  1  0  0  0  0
  1 27  1  0  0  0  0
  2 28  1  0  0  0  0
  3 29  1  0  0  0  0
  4 30  1  0  0  0  0
  5 31  1  0  0  0  0
  6 32  1  0  0  0  0
  7 33  1  0  0  0  0
 14 34  1  0  0  0  0
 14 35  1  0  0  0  0
 15 36  1  0  0  0  0
 15 37  1  0  0  0  0
 16 38  1  0  0  0  0
 16 39  1  0  0  0  0
 17 40  1  0  0  0  0
 18 41  1  0  0  0  0
 20 42  1  0  0  0  0
 20 43  1  0  0  0  0
 20 44  1  0  0  0  0
 21 45  1  0  0  0  0
 22 46  1  0  0  0  0
 22 47  1  0  0  0  0
M  CHG  1  21   1
M  END
> <OMEGA_C>
k5DpQP5X8UD0z7TBVqquQCN840DAXKjBK9GRQKaluT6WB6XBb9fgQM6wDkGVI7TBPFSmQHObB0G6
oKfBt/CPQBDtg7+HP6bBXfTPQKTdeL/LU7HB7InQQNiM1EC82K7BphSzQORnjj9c6qnByKW/QAUl
FkGOaa3BSf6uQNEa2b9TYazBmUXSQKaW1z78LLDBBz2OQPw1VUD/1pfB/zLkQLHAlECgXaTBk2Cu
QMA2T0CiBrTBJc7lQETyJUCsYJjB3tPXQM+ZpUCtnq/BavrfQGTUR0Dp1qPBqnS0QGoUKUDSsKjB
eku1QEWkLUEH1KzBuD+PQJ5iSkCLSKLB4PNOQO6+a0CHPZPBXayvQIXblEA1a7PBKiatQBBPQsCr
j63BT5jyQICEhz/wSbXBpjW7QKCSSkDvW4/BD5QBQaHE5UCk2LnBJTGbQL79zEBZ96PBQ4JzQLt/
Xj/BVaDBz37zQGLsGUGwwrjBDYyMQDlXDUGfo6LBvixtQPzKy79pd6LBP63nQKDDvr93DLbBbMEC
QajDnUCJoaLBtOPOQF44o0AfXp7BLirIQBt1OEAUTLnBCUaPQAbYOkDXQ7fBiZrlQA4ivz8ElZjB
3mECQTV9PECzR5XBGdXxQBeznkBMS7XB3Kf5QMhJLEDtxqjBas6dQHayMUGZD7PB7tqnQPhiMUHT
6aTBJarSQHwDN0HOFK7BpIlpQOnCWUDUV6bBwB9LQDV2dUD6WIvBBNwaQBBJckC30JfBTbPoQAVw
8UCEp7TBYUquQHhE4kAUKajB78LSQHy/9z4F1K/BecPeQHufDkHmDbTBh6ekQAfkBkEghqfBua7S
QEEHZr+imbHBw9aQQLL0i78gV6fBG2zQQJkO1ECVq67BKfSxQKXpjT+Av6nBtHG8QPOlFUF0ka3B
hMixQPz91785U63BxlqQQJO3lj5dj6XBHhyOQPuAV0B2w5fBqQblQNvWk0AuU6TBSHmvQKqOTUCC
8rPB9VXlQDJCJEBIS5jB35PYQKwupUDeiq/BgrffQMj9RUD6xaPBJ72zQH4QKUDgfqjBtzOyQFIc
LUFnmqzBQmKPQGK7TkB2O6LBlWROQNvobECsJ5PB+dGwQOgblEAbhrPBZq2xQE1MQcAqAq/Bl9xd
QJSPSj9E85/BLtK6QDrBSUCXQY/BD1YBQa545kDeprnBdaCbQHtky0A5q6PBGzXsQDkDiz8fJLPB
CVjxQFEXGkFKjLjBXwmLQCpdDEEsaaLBzOLrQPaErb/RPrbBVkFvQG/A2r/eEqTBU04DQZ4PnEBp
raLB0lHQQIHCokC1Q57BVwTKQBvvNUB16rjB/duQQErjOEAycLfBS9fkQC3Duz/PepjBFDECQVRW
OkAWM5XBidzyQMMNn0AZMbXB9fT4QCYnKUBzvKjB23eaQNCOMUGstbLB9xulQBtjMEG6maTBXo3P
QASINkG2yq3BHtVrQEfsYkDaXabB+/JJQOAndEDROYvB0bQaQAoadUCkwpfB

> <OMEGA_E>
+LWWPhBfqz4=

> <OMEGA_NBR>
     98983

$$$$
358128
  -OEChem-04172616093D

 47 50  0     1  0  0  0  0  0999 V2000
    4.6424    0.3050  -20.5695 C   0  0  0  0  0  0  0  0  0  0  0  0
    4.6455   -1.0921  -20.7084 C   0  0  0  0  0  0  0  0  0  0  0  0
    7.3894    7.5687  -21.0974 C   0  0  0  0  0  0  0  0  0  0  0  0
    5.7585    7.4157  -22.9075 C   0  0  0  0  0  0  0  0  0  0  0  0
    6.4332    9.5972  -22.0541 C   0  0  0  0  0  0  0  0  0  0  0  0
    6.5537   -0.9431  -22.2112 C   0  0  0  0  0  0  0  0  0  0  0  0
    5.5991    1.1077  -21.2501 C   0  0  0  0  0  0  0  0  0  0  0  0
    6.5951    6.7756  -21.9604 C   0  0  0  0  0  0  0  0  0  0  0  0
    7.2860    8.9718  -21.1207 C   0  0  0  0  0  0  0  0  0  0  0  0
    5.5986   -1.7163  -21.5292 C   0  0  0  0  0  0  0  0  0  0  0  0
    5.6712    8.8183  -22.9463 C   0  0  0  0  0  0  0  0  0  0  0  0
    6.5640    0.4577  -22.0778 C   0  0  0  0  0  0  0  0  0  0  0  0
    4.3915    3.2196  -18.9430 C   0  0  0  0  0  0  0  0  0  0  0  0
    6.9911    4.7180  -20.5011 C   0  0  0  0  0  0  0  0  0  0  0  0
    5.3657    3.2968  -22.4780 C   0  0  0  0  0  0  0  0  0  0  0  0
    7.1603    2.6065  -19.0579 C   0  0  0  0  0  0  0  0  0  0  0  0
    6.6764    5.2529  -21.9281 C   0  0  1  0  0  0  0  0  0  0  0  0
    6.9270    3.1738  -20.4728 C   0  0  1  0  0  0  0  0  0  0  0  0
    5.5871    2.6465  -21.0820 C   0  0  2  0  0  0  0  0  0  0  0  0
    8.1422    9.8028  -20.1877 C   0  0  0  0  0  0  0  0  0  0  0  0
    4.4150    3.0969  -20.2553 N   0  3  0  0  0  0  0  0  0  0  0  0
    3.1822    3.5371  -18.3446 N   0  0  0  0  0  0  0  0  0  0  0  0
    5.3984    4.7245  -22.3609 O   0  0  0  0  0  0  0  0  0  0  0  0
    5.5969   -3.0611  -21.6627 F   0  0  0  0  0  0  0  0  0  0  0  0
    4.8527    9.4161  -23.8420 F   0  0  0  0  0  0  0  0  0  0  0  0
    7.5127    1.1468  -22.7564 F   0  0  0  0  0  0  0  0  0  0  0  0
    5.8055    3.0358  -17.8962 S   0  0  0  0  0  0  0  0  0  0  0  0
    3.9040    0.7762  -19.9377 H   0  0  0  0  0  0  0  0  0  0  0  0
    3.9136   -1.6877  -20.1831 H   0  0  0  0  0  0  0  0  0  0  0  0
    8.0796    7.0932  -20.4163 H   0  0  0  0  0  0  0  0  0  0  0  0
    5.1844    6.8226  -23.6039 H   0  0  0  0  0  0  0  0  0  0  0  0
    6.3646   10.6746  -22.0847 H   0  0  0  0  0  0  0  0  0  0  0  0
    7.2847   -1.4272  -22.8418 H   0  0  0  0  0  0  0  0  0  0  0  0
    8.0000    5.0434  -20.2073 H   0  0  0  0  0  0  0  0  0  0  0  0
    6.2541    5.1236  -19.7923 H   0  0  0  0  0  0  0  0  0  0  0  0
    6.1607    2.9686  -23.1637 H   0  0  0  0  0  0  0  0  0  0  0  0
    4.3880    2.9855  -22.8745 H   0  0  0  0  0  0  0  0  0  0  0  0
    7.2337    1.5110  -19.1248 H   0  0  0  0  0  0  0  0  0  0  0  0
    8.1037    3.0140  -18.6656 H   0  0  0  0  0  0  0  0  0  0  0  0
    7.4726    4.9218  -22.6111 H   0  0  0  0  0  0  0  0  0  0  0  0
    7.7407    2.8017  -21.1126 H   0  0  0  0  0  0  0  0  0  0  0  0
    9.1043   10.0251  -20.6724 H   0  0  0  0  0  0  0  0  0  0  0  0
    7.6231   10.7442  -19.9547 H   0  0  0  0  0  0  0  0  0  0  0  0
    8.3209    9.2429  -19.2579 H   0  0  0  0  0  0  0  0  0  0  0  0
    3.5746    3.3248  -20.7470 H   0  0  0  0  0  0  0  0  0  0  0  0
    3.1307    3.6543  -17.3528 H   0  0  0  0  0  0  0  0  0  0  0  0
    2.3614    3.6489  -18.9046 H   0  0  0  0  0  0  0  0  0  0  0  0
  1  2  2  0  0  0  0
  1  7  1  0  0  0  0
  2 10  1  0  0  0  0
  3  8  2  0  0  0  0
  3  9  1  0  0  0  0
  4  8  1  0  0  0  0
  4 11  2  0  0  0  0
  5  9  2  0  0  0  0
  5 11  1  0  0  0  0
  6 10  2  0  0  0  0
  6 12  1  0  0  0  0
  7 12  2  0  0  0  0
  7 19  1  0  0  0  0
  8 17  1  0  0  0  0
  9 20  1  0  0  0  0
 10 24  1  0  0  0  0
 11 25  1  0  0  0  0
 12 26  1  0  0  0  0
 13 21  2  0  0  0  0
 13 22  1  0  0  0  0
 13 27  1  0  0  0  0
 14 17  1  0  0  0  0
 14 18  1  0  0  0  0
 15 19  1  0  0  0  0
 15 23  1  0  0  0  0
 16 18  1  0  0  0  0
 16 27  1  0  0  0  0
 17 23  1  0  0  0  0
 18 19  1  0  0  0  0
 19 21  1  0  0  0  0
  1 28  1  0  0  0  0
  2 29  1  0  0  0  0
  3 30  1  0  0  0  0
  4 31  1  0  0  0  0
  5 32  1  0  0  0  0
  6 33  1  0  0  0  0
 14 34  1  0  0  0  0
 14 35  1  0  0  0  0
 15 36  1  0  0  0  0
 15 37  1  0  0  0  0
 16 38  1  0  0  0  0
 16 39  1  0  0  0  0
 17 40  1  0  0  0  0
 18 41  1  0  0  0  0
 20 42  1  0  0  0  0
 20 43  1  0  0  0  0
 20 44  1  0  0  0  0
 21 45  1  0  0  0  0
 22 46  1  0  0  0  0
 22 47  1  0  0  0  0
M  CHG  1  21   1
M  END
> <OMEGA_C>
f46UQNAqnD5ZjqTB4KeUQHjJi7/OqqXB0nXsQJEy8kB9x6jB5kW4QD1N7UCEQrfBEd3NQCCOGUHS
brDBKbjRQIJscb99sLHBgiuzQGPIjT80AKrB9QrTQADS2ED0rq/BPSfpQKGMD0EZ96jB7CezQIev
27/SO6zBJXq1QJ0XDUHskbfBkwzSQNpb6j5kn7DByoaMQFgOTkBRi5fBJLffQBT6lkBGAqTBebOr
QK/+UkDy0rPBACHlQOnQJkCQdpjBd6XVQBkYqEC5bK/Bz6ndQNAfS0AyyKPB2smyQChgKUDlp6jB
d0YCQW7YHEFZgKHB0EeNQBM0RkDgCqLB0alLQExfYkDIwZLBk7+sQBcvl0Ad47LBxBmzQLnoQ8BB
Ta3BnEmbQCqoFkGCvL7BRGjwQGzLkj81DbbBQ8a5QGFKQkBTK4/Bytt5QDS4Rj9sgJ/BPnh6QFEG
2L/vdqHBFUYBQX774kCTVKPBe+alQBRT2kDf1LzB7arLQBfLKkF3rbDBGRzpQEqvtr8HvLbBuv//
QN9joUCeqKHBqyHIQD30o0CuVp7B3CTFQO/9PUAvT7nBLWqMQCwTP0AH/7bBuXrnQFZowT+R/5jB
z6gBQfDkQEAjU5XBmR/vQD9/nUB547TBCbT3QDZPM0CE5qjBRasRQaRmIEESYaXBF/DzQGToK0FL
o5/BdiIFQdviE0EiEJrBnsVkQG3JVEDD+aXBS11IQETfaUCi0orBXSAXQMOHaUC4PJfBio2UQLPX
mz6Uk6TBvq+UQEjei7+MsKXBWk64QJFU7UDeQrfBu2rsQLY68kCswqjB87XNQFCQGUF/YrDBgMnR
QLsmcb9js7HBcy6zQK7KjT9TAqrBkgbTQCPa2ECyq6/BP7C1QHclDUEppbfBhjizQNmk27+fQKzB
aVTpQJOHD0E2CKnBDhjSQIXW6j6FoLDBRXqMQN0BTkBIjJfBuqbfQDEAl0A5/6PBt6yrQFkFU0D2
0rPBtxTlQDXXJkAldZjBXZbVQOYfqEDDaK/BCKHdQIcqS0AJx6PBDsWyQDhhKUB0qKjBM3CXQLvV
F0Fkdr/BdD+NQDUoRkDeC6LBsYtLQC1JYkCOw5LBX7SsQAwzl0CH4bLBvyuzQMTgQ8CiVK3BaHwA
QW5mG0FXL6LBmnLwQKgDkz8DDbbBRLa5QIVQQkBKK4/BMcZ5QC5pRj+ph5/BpYl6QO4w2L/ufaHB
wMylQOxP2kDky7zBcyMBQVoJ40AvQKPBMevKQFjJKkH9drDB4jHpQGx2tr+xvrbB3uz/QBJuoUCZ
pKHBVg3IQLjzo0C0U57BQx/FQKkOPkB3T7nBfGSMQEkWP0Ba/7bBVm7nQBN1wT9S/pjBF6IBQQXq
QEDfUJXBfRLvQIuFnUC/3rTB+6/3QDRmM0C/5KjBPZlvQPC2GUHIuLvBphekQN2oJ0HOqMHB4XWU
QNzkDUGir8bBprRkQCi1VEAw+6XB4jlIQEzMaUB91IrBgAMXQJ9naUD5PpfBJP/YQMGZ2T5CUKzB
ekfZQCe8eL9ffa3BG8/rQKnf8kDOv6jBpki3QM2k7UDKJLfBUobMQIfLGUF4TbDBCHOMQJNbg7/L
ZqrBBp2yQDpvjz+gvanBS3PSQPNR2UBsoa/BQhboQFjcD0HW4KjBFRezQGB12b9DbqzB+DW0QN1E
DUE5brfBbcSLQOrevj4vMqnBpamMQKZaTUCfbZfBqA7fQHP0l0DN5qPB3NCtQJ32UEBB1rPB663l
QH16KUAtT5jBdOPVQC2fqECEaK/B9NLdQNhHTUCqqKPB5RmzQH1tKkA+gKjB/rIBQdwzHUHXaaHB
kCmOQMk/SkAN8qHB0FBLQHTPX0CFrJLBjPqtQDx7lkACPbPBbFyzQFzAQsACjq3Bn9uZQHHKFkGt
kr7Bv29KQAuLdj+crqfBuMa5QOndQUCIBY/BRVj2QB7Iej+JYK3BbeD2QP45vr+CNa/BuxkBQWvK
40D8WqPBvtWkQI+T2kArrrzBSQ7KQHQGK0EIhrDBCRJeQGQ1y78Sw6nBVeX+QOL3okD4WaHBXqnG
QFWbpEAQZ57BsWrIQJCGO0By8LjBtVCPQEY+O0BRSrfBdjrpQBIjxz9Y2JjB2a4BQeGVRUAEJZXB
51/wQFGxnkBepbTBqfv3QP0hNkCCyajBYAcRQYzrIEEVUaXBT5LyQMgtLEFRf5/Bo7IEQSEzFEGE
AJrB98ZoQMjwXkBk66XBcmtHQHoyZkCPuorBdfEWQG+8ZkCVMJfBkePYQIzL2D6gS6zBWy3ZQNgr
eb86da3BV1O3QFmL7UC9L7fBDtfrQLDT8kC1yajBfW/MQLfAGUGJUrDBllyMQIyTg78CWqrBzISy
QKdCjz+ot6nBZHXSQIA/2UCaqK/BOHC0QGpCDUEKj7fB2v+yQB6w2b+0YazBiVvoQOXND0EiBKnB
j6yLQPMgvj5rKKnBAaWMQPxwTUDQaZfB7gLfQCXvl0D656PBP7OtQOPTUEDI0rPBGKflQFuFKUCt
TZjBIc7VQIiLqEDQaa/BvMTdQNk7TUCZp6PBeQazQDFaKkCafKjBvPmVQMnhF0GNWL/BTBuOQHI2
SkD67aHBklhLQFIRYEB5p5LBHd6tQAZqlkA5OrPBYEezQHvgQsDUfa3BS/z/QFm5G0GVL6LBSkBK
QCkqdj+Lo6fBcsa5QK37QUA6A4/BaTr2QJ9hej+8X63Bb8X2QGBzvr8TLq/BdrmkQLNq2kCZrbzB
jgMBQdzH40DRVaPBQGLJQP32KkE2Y7DBpuddQLlvy7++s6nBYdz+QKrzokCcXaHBLKPGQEOcpECa
Z57BUkjIQPVeO0A07rjB2S+PQAUZO0DORLfBEDPpQKA2xz/Y1JjBgqwBQZCmRUCWJZXBOkHwQJmK
nkBap7TBj+n3QOYLNkD3yKjBm7xsQMisGUHvk7vBGXCiQAa+J0EXjMHBgwCTQNzxDUElksbBfKBo
QOfUXkDO5qXBlYVHQPqVZkDNtYrBGfIWQFH8ZkBLKpfBcT6NQDUQ/T6B76zBHpmKQHZiZb86hq7B
D5CrQPla7kDhjLLBrBr3QImG8UBSkK3B2o3OQN21GUHFI7DB7L/VQCECj7+236nBmEC0QD7KjT+8
uqnBv1PSQAwy2UAeBLDBtuCpQG2sDUHo0rLBWMWuQOb82b8L0qzBUh/1QO4+D0Fth63B5i7ZQNGl
iz7omajBDdeMQLBSTUCYVpfB1BTdQANWmkBm+aPB5zSuQPXxT0ArubPB71HmQHf5M0DssJfBw9vU
QPbAqEDDm6/BxRfeQI34UUDeXaPBeXi0QGugKUCbT6jBehmAQN7KGEF5cbXBSA6OQMnLQkC8zqHB
QI5LQD1oYEDerpLBCXytQCvilUD8Y7PBOHCsQMirQsB0J67BKSUMQR3HGkFX+arBK20AQe7fPT+0
l6bBrr+5QLU2SkAlx47BxmFiQGuMjT+8K67BQJhZQGnZq7//DLHBUy2PQDvl20C3R7TBeGwKQQiR
4UB+tavBfhDNQFn5KkEJFrDBGXPxQKD93r9okajBx/v7QAcwp0BwP6HB6VjDQF2CpkBqzJ7BBrzI
QK70OkDW4LjBibyPQHu8OEAXCrfBQBrsQJYQ3T+Pv5fB3m4BQaUcVUAIopTBEsXvQL8InkCem7TB
KkD5QHz6O0BoPqjBpX5bQHNVG0HPCq7B4tGGQPxTKEHROLnBTMdaQKfKDkGU+LrBk4JlQDuETEDT
zKXB4vtHQJWia0Df0YrBALYWQO71YkBGL5fB

> <OMEGA_E>
tJ3IPiivyD4E/eM+2BTkPlj26j4=

> <OMEGA_NBR>
    103323

$$$$
358129
  -OEChem-04172616093D

 47 50  0     1  0  0  0  0  0999 V2000
    4.6441    0.3173  -20.7011 C   0  0  0  0  0  0  0  0  0  0  0  0
    6.6477    9.5187  -22.3351 C   0  0  0  0  0  0  0  0  0  0  0  0
    4.6710   -1.0685  -20.9172 C   0  0  0  0  0  0  0  0  0  0  0  0
    7.5875    8.7265  -23.0175 C   0  0  0  0  0  0  0  0  0  0  0  0
    5.6976    7.5233  -21.3064 C   0  0  0  0  0  0  0  0  0  0  0  0
    6.6894   -0.8280  -22.2549 C   0  0  0  0  0  0  0  0  0  0  0  0
    5.6475    1.1573  -21.2531 C   0  0  0  0  0  0  0  0  0  0  0  0
    6.6421    6.7289  -21.9957 C   0  0  0  0  0  0  0  0  0  0  0  0
    5.6937    8.9207  -21.4881 C   0  0  0  0  0  0  0  0  0  0  0  0
    5.6920   -1.6404  -21.6926 C   0  0  0  0  0  0  0  0  0  0  0  0
    7.5868    7.3332  -22.8521 C   0  0  0  0  0  0  0  0  0  0  0  0
    6.6764    0.5612  -22.0450 C   0  0  0  0  0  0  0  0  0  0  0  0
    4.3651    3.2015  -18.9054 C   0  0  0  0  0  0  0  0  0  0  0  0
    6.8935    4.7946  -20.4191 C   0  0  0  0  0  0  0  0  0  0  0  0
    5.3100    3.3287  -22.4261 C   0  0  0  0  0  0  0  0  0  0  0  0
    7.1459    2.6749  -19.0089 C   0  0  0  0  0  0  0  0  0  0  0  0
    6.6188    5.2350  -21.8640 C   0  0  1  0  0  0  0  0  0  0  0  0
    6.8992    3.2535  -20.4071 C   0  0  1  0  0  0  0  0  0  0  0  0
    5.5804    2.6829  -21.0393 C   0  0  2  0  0  0  0  0  0  0  0  0
    4.7232    9.7910  -20.7242 C   0  0  0  0  0  0  0  0  0  0  0  0
    4.3945    3.0804  -20.2148 N   0  3  0  0  0  0  0  0  0  0  0  0
    3.1426    3.4779  -18.3171 N   0  0  0  0  0  0  0  0  0  0  0  0
    5.3427    4.7535  -22.3089 O   0  0  0  0  0  0  0  0  0  0  0  0
    5.7129   -2.9739  -21.9024 F   0  0  0  0  0  0  0  0  0  0  0  0
    8.4927    6.5871  -23.5290 F   0  0  0  0  0  0  0  0  0  0  0  0
    7.6549    1.2905  -22.6330 F   0  0  0  0  0  0  0  0  0  0  0  0
    5.7806    3.0619  -17.8544 S   0  0  0  0  0  0  0  0  0  0  0  0
    3.8517    0.7502  -20.1085 H   0  0  0  0  0  0  0  0  0  0  0  0
    6.6570   10.5913  -22.4609 H   0  0  0  0  0  0  0  0  0  0  0  0
    3.9051   -1.6964  -20.4864 H   0  0  0  0  0  0  0  0  0  0  0  0
    8.3115    9.1913  -23.6703 H   0  0  0  0  0  0  0  0  0  0  0  0
    4.9817    7.0610  -20.6430 H   0  0  0  0  0  0  0  0  0  0  0  0
    7.4711   -1.2734  -22.8523 H   0  0  0  0  0  0  0  0  0  0  0  0
    7.8696    5.1779  -20.0871 H   0  0  0  0  0  0  0  0  0  0  0  0
    6.1047    5.1740  -19.7528 H   0  0  0  0  0  0  0  0  0  0  0  0
    6.0825    3.0026  -23.1381 H   0  0  0  0  0  0  0  0  0  0  0  0
    4.3204    3.0143  -22.7892 H   0  0  0  0  0  0  0  0  0  0  0  0
    7.2437    1.5823  -19.0892 H   0  0  0  0  0  0  0  0  0  0  0  0
    8.0792    3.0982  -18.6093 H   0  0  0  0  0  0  0  0  0  0  0  0
    7.4096    4.8163  -22.5038 H   0  0  0  0  0  0  0  0  0  0  0  0
    7.7301    2.9254  -21.0490 H   0  0  0  0  0  0  0  0  0  0  0  0
    3.8063    9.9261  -21.3167 H   0  0  0  0  0  0  0  0  0  0  0  0
    4.4736    9.3092  -19.7673 H   0  0  0  0  0  0  0  0  0  0  0  0
    5.1831   10.7716  -20.5319 H   0  0  0  0  0  0  0  0  0  0  0  0
    3.5450    3.2718  -20.7065 H   0  0  0  0  0  0  0  0  0  0  0  0
    3.0793    3.5923  -17.3256 H   0  0  0  0  0  0  0  0  0  0  0  0
    2.3229    3.5631  -18.8835 H   0  0  0  0  0  0  0  0  0  0  0  0
  1  3  2  0  0  0  0
  1  7  1  0  0  0  0
  2  4  2  0  0  0  0
  2  9  1  0  0  0  0
  3 10  1  0  0  0  0
  4 11  1  0  0  0  0
  5  8  1  0  0  0  0
  5  9  2  0  0  0  0
  6 10  2  0  0  0  0
  6 12  1  0  0  0  0
  7 12  2  0  0  0  0
  7 19  1  0  0  0  0
  8 11  2  0  0  0  0
  8 17  1  0  0  0  0
  9 20  1  0  0  0  0
 10 24  1  0  0  0  0
 11 25  1  0  0  0  0
 12 26  1  0  0  0  0
 13 21  2  0  0  0  0
 13 22  1  0  0  0  0
 13 27  1  0  0  0  0
 14 17  1  0  0  0  0
 14 18  1  0  0  0  0
 15 19  1  0  0  0  0
 15 23  1  0  0  0  0
 16 18  1  0  0  0  0
 16 27  1  0  0  0  0
 17 23  1  0  0  0  0
 18 19  1  0  0  0  0
 19 21  1  0  0  0  0
  1 28  1  0  0  0  0
  2 29  1  0  0  0  0
  3 30  1  0  0  0  0
  4 31  1  0  0  0  0
  5 32  1  0  0  0  0
  6 33  1  0  0  0  0
 14 34  1  0  0  0  0
 14 35  1  0  0  0  0
 15 36  1  0  0  0  0
 15 37  1  0  0  0  0
 16 38  1  0  0  0  0
 16 39  1  0  0  0  0
 17 40  1  0  0  0  0
 18 41  1  0  0  0  0
 20 42  1  0  0  0  0
 20 43  1  0  0  0  0
 20 44  1  0  0  0  0
 21 45  1  0  0  0  0
 22 46  1  0  0  0  0
 22 47  1  0  0  0  0
M  CHG  1  21   1
M  END
> <OMEGA_C>
Z5yUQF55oj7qm6XBsLnUQGlMGEFOrrLBw3iVQOrFiL96VqfBCM3yQKmfC0HZI7jB7lK2QEe/8EB5
c6rBiA/WQF31U78PCrLBFri0QAYilD9jBqrBJIzUQFBT10Aq96/BATO2QEK7DkGV56vBOCW2QDT6
0b98iq3B4MbyQNKp6kAl0bbBHqXVQCypDz8UXLDBoa6LQCjlTEBPPpfBaJfcQGttmUBYWqPBz+up
QOgJVUCkaLPBCqvkQEAyK0A6EpjBT83TQH2Fp0Bn6a7BbsbcQAo6UEDGQaPBe5KyQLi0K0B1UKjB
KiSXQACoHEEVy6XBIqCMQF4lRUACuKHBCiBJQFOVXkBZiZLBHveqQOscmECweLLBE9C2QNVTPsAW
OK/BOuIHQajJ0kBxO7zBlvT0QIgtpT90ELXB9vq4QKv1Q0Da1Y7BkIJ2QCsOQD9N3qDB5gXVQNV1
KUHbr7PB3ex5QKkj2b885KPBBPwEQaYPE0HIXL3BCmqfQAD04UDQJKXBohPvQC39or+M0bbB79P7
QKyxpUBzsqDB01nDQCSRpUDMBZ7BuaPCQBwrQEDeGrnBGEGKQCrqQEBGULbBgMznQDOHyj/EtpjB
fUQBQaxJRkDV35TBQxvtQFUfmkC+B7TBtlz3QBU6O0BhZKjBBZpzQC/RHkGOiKrBsSePQF7yFEF6
I57BDdylQF9YLEFmQaTBqeFiQEdlUUDQpqXBRBNFQHHnZUDsmorBwaoUQKsJZEB+EZfBfuDUQMCK
ID9MXrDBjkHUQI4aGEFVjbLBTgXYQCdAP7/wfLLBFofxQO6SC0EIW7jBtFq3QPvv70DLL6rBkBOY
QAMFkr9X3KfBmk2zQDHYkj+X7KnBhu3UQJbH1kBaArDBCJO3QAZpDkGiVavBwKy5QD7K0L+oMq7B
qBbyQFKI6kBaErfBBF6UQBBFcD7Tu6XBcqaLQDjjT0AnGZfB3PXdQBtImEC7naPBiMqpQHPeU0BF
W7PB/ALkQHc7KkB/E5jBlGrUQFrOpkA5Gq/BGIDcQLfBTUDdXqPB1G2xQMtfK0AFLKjB0qqXQMoV
HEGiWaXBllCMQETXSEAnlqHBDrJIQO2WXUBXR5LB9lyrQJaUl0DpjrLB4KK8QG8fPcCfL7DBSzYH
Qff80kAayLzBX/1kQFbSHz+oxJ/Btp25QFmAS0D73Y7B71/sQNCVpj/UsLPBZMHTQAw/KUHoobPB
p73xQMbPj78vabfBxtEDQc4hE0HM0L3BsaygQG3N4EC14KTBDtaAQE7l6b/alaTBHuT9QE99o0C0
MaHBxMPFQFhkpUAKIZ7BJL/CQPDOPUCZ6rjBfTGKQFRGQED2XLbBI73kQFDSxz8dc5jB0XMBQQr8
QUCKFJXBWHDtQPy9mUAfXLTBPYj2QD8xNkB5gqjBAKl0QJW/HUE0JKrBf+mPQIR3FEFnqJ3BFIql
QO/+K0Fz5KPB8iBjQFWhWEAigqXBUwFFQEi0ZEB2V4rB/Z0TQNpeYEAnvJbB416UQKV0mT4rl6TB
GaPMQDPcGUFpxLDBbauUQIODjL8XpKXBfNvoQA9tEEEdaanBoTe4QLT87ECDKbfBdoHRQETTcr9H
vbHBar2yQGsXjT9mHKrB/HTTQIFK2UAyg6/Brg20QDrqDEGcoLfBICSzQHBg3L/SN6zBTsjsQAAa
9EB/yKjB+qTRQHio5z4ivLDBmnqMQGQMTkDDkJfBLXXgQCaglUDd/qPBcsarQGZxU0DF1rPB6bTk
QC+cJEDggpjBc0TWQEIfqEAOS6/BVmDdQLYPSUCO1KPBq3eyQCXkKEBCt6jB1fGWQAcXF0Gw37/B
RRmNQCUCRkDIEKLB38ZLQGjHYkBcwZLBqS6tQA1jl0BfxrLB3D6zQNhFRMAzPK3B+MAEQY2F5EBq
tqHBG+TvQFn7kT/fNrbBbsG5QFH6QUAWNo/B7455QKtiRT+yhp/BUcvJQEMQK0FcKbHBSNp6QADZ
2L9HYqHBJrn7QG5yGkGKL6TB33GmQBlM2UBus7zBUOLoQEVtt78zybbBXowAQXwin0CttqHB1XrJ
QIrQokChM57BBj7FQEt4PkCrUbnBKXmMQJdLQEBAE7fBK1/mQEPSvD8+B5nB3JcBQWySPUABaJXB
HYzvQL7XnUD12bTBIT33QPtpMECB8ajB6vOoQEHeGUFoTsfBA6h3QEBbDEHjgsHBfuaKQJlvJkGz
yrzBP1RkQMipVEBB+qXBq7BIQEdiakBF0orBlSwXQMchakDwN5fB

> <OMEGA_E>
gBSXPrRdpT4YEsk+

> <OMEGA_NBR>
    106039

$$$$
358134
  -OEChem-04172616093D

 48 51  0     1  0  0  0  0  0999 V2000
    6.7336    8.9676  -20.8455 C   0  0  0  0  0  0  0  0  0  0  0  0
    6.4416    9.6111  -22.0567 C   0  0  0  0  0  0  0  0  0  0  0  0
    6.8206    7.5693  -20.7978 C   0  0  0  0  0  0  0  0  0  0  0  0
    4.6414    0.3021  -20.5694 C   0  0  0  0  0  0  0  0  0  0  0  0
    6.2413    8.8586  -23.2270 C   0  0  0  0  0  0  0  0  0  0  0  0
    4.6485   -1.0960  -20.6989 C   0  0  0  0  0  0  0  0  0  0  0  0
    6.5613   -0.9513  -22.1962 C   0  0  0  0  0  0  0  0  0  0  0  0
    6.6095    6.7881  -21.9659 C   0  0  0  0  0  0  0  0  0  0  0  0
    5.5983    1.1035  -21.2520 C   0  0  0  0  0  0  0  0  0  0  0  0
    6.3250    7.4397  -23.2008 C   0  0  0  0  0  0  0  0  0  0  0  0
    5.6062   -1.7230  -21.5120 C   0  0  0  0  0  0  0  0  0  0  0  0
    6.5668    0.4508  -22.0725 C   0  0  0  0  0  0  0  0  0  0  0  0
    4.3878    3.2143  -18.9484 C   0  0  0  0  0  0  0  0  0  0  0  0
    6.9831    4.7101  -20.4924 C   0  0  0  0  0  0  0  0  0  0  0  0
    5.3649    3.3047  -22.4792 C   0  0  0  0  0  0  0  0  0  0  0  0
    7.1579    2.5976  -19.0588 C   0  0  0  0  0  0  0  0  0  0  0  0
    6.6735    5.2576  -21.9143 C   0  0  1  0  0  0  0  0  0  0  0  0
    6.9305    3.1675  -20.4745 C   0  0  1  0  0  0  0  0  0  0  0  0
    5.5883    2.6436  -21.0861 C   0  0  2  0  0  0  0  0  0  0  0  0
    5.8142    7.3443  -25.5799 C   0  0  0  0  0  0  0  0  0  0  0  0
    4.4145    3.0920  -20.2605 N   0  3  0  0  0  0  0  0  0  0  0  0
    3.1780    3.5352  -18.3529 N   0  0  0  0  0  0  0  0  0  0  0  0
    5.3954    4.7379  -22.3540 O   0  0  0  0  0  0  0  0  0  0  0  0
    6.1394    6.6592  -24.3436 O   0  0  0  0  0  0  0  0  0  0  0  0
    5.6080   -3.0687  -21.6369 F   0  0  0  0  0  0  0  0  0  0  0  0
    7.5142    1.1396  -22.7529 F   0  0  0  0  0  0  0  0  0  0  0  0
    5.7997    3.0280  -17.8987 S   0  0  0  0  0  0  0  0  0  0  0  0
    6.8914    9.5493  -19.9493 H   0  0  0  0  0  0  0  0  0  0  0  0
    6.3705   10.6882  -22.0905 H   0  0  0  0  0  0  0  0  0  0  0  0
    7.0506    7.0802  -19.8627 H   0  0  0  0  0  0  0  0  0  0  0  0
    3.8995    0.7754  -19.9432 H   0  0  0  0  0  0  0  0  0  0  0  0
    6.0214    9.3638  -24.1559 H   0  0  0  0  0  0  0  0  0  0  0  0
    3.9162   -1.6900  -20.1723 H   0  0  0  0  0  0  0  0  0  0  0  0
    7.2959   -1.4375  -22.8210 H   0  0  0  0  0  0  0  0  0  0  0  0
    7.9879    5.0401  -20.1900 H   0  0  0  0  0  0  0  0  0  0  0  0
    6.2391    5.1044  -19.7845 H   0  0  0  0  0  0  0  0  0  0  0  0
    6.1601    2.9821  -23.1673 H   0  0  0  0  0  0  0  0  0  0  0  0
    4.3875    2.9945  -22.8772 H   0  0  0  0  0  0  0  0  0  0  0  0
    7.2293    1.5021  -19.1271 H   0  0  0  0  0  0  0  0  0  0  0  0
    8.1010    3.0026  -18.6632 H   0  0  0  0  0  0  0  0  0  0  0  0
    7.4668    4.9168  -22.5960 H   0  0  0  0  0  0  0  0  0  0  0  0
    7.7464    2.8006  -21.1145 H   0  0  0  0  0  0  0  0  0  0  0  0
    5.6979    6.6075  -26.3884 H   0  0  0  0  0  0  0  0  0  0  0  0
    4.8742    7.9015  -25.4538 H   0  0  0  0  0  0  0  0  0  0  0  0
    6.6237    8.0439  -25.8352 H   0  0  0  0  0  0  0  0  0  0  0  0
    3.5745    3.3189  -20.7534 H   0  0  0  0  0  0  0  0  0  0  0  0
    3.1245    3.6535  -17.3614 H   0  0  0  0  0  0  0  0  0  0  0  0
    2.3586    3.6484  -18.9149 H   0  0  0  0  0  0  0  0  0  0  0  0
  1  2  1  0  0  0  0
  1  3  2  0  0  0  0
  2  5  2  0  0  0  0
  3  8  1  0  0  0  0
  4  6  2  0  0  0  0
  4  9  1  0  0  0  0
  5 10  1  0  0  0  0
  6 11  1  0  0  0  0
  7 11  2  0  0  0  0
  7 12  1  0  0  0  0
  8 10  2  0  0  0  0
  8 17  1  0  0  0  0
  9 12  2  0  0  0  0
  9 19  1  0  0  0  0
 10 24  1  0  0  0  0
 11 25  1  0  0  0  0
 12 26  1  0  0  0  0
 13 21  2  0  0  0  0
 13 22  1  0  0  0  0
 13 27  1  0  0  0  0
 14 17  1  0  0  0  0
 14 18  1  0  0  0  0
 15 19  1  0  0  0  0
 15 23  1  0  0  0  0
 16 18  1  0  0  0  0
 16 27  1  0  0  0  0
 17 23  1  0  0  0  0
 18 19  1  0  0  0  0
 19 21  1  0  0  0  0
 20 24  1  0  0  0  0
  1 28  1  0  0  0  0
  2 29  1  0  0  0  0
  3 30  1  0  0  0  0
  4 31  1  0  0  0  0
  5 32  1  0  0  0  0
  6 33  1  0  0  0  0
  7 34  1  0  0  0  0
 14 35  1  0  0  0  0
 14 36  1  0  0  0  0
 15 37  1  0  0  0  0
 15 38  1  0  0  0  0
 16 39  1  0  0  0  0
 16 40  1  0  0  0  0
 17 41  1  0  0  0  0
 18 42  1  0  0  0  0
 20 43  1  0  0  0  0
 20 44  1  0  0  0  0
 20 45  1  0  0  0  0
 21 46  1  0  0  0  0
 22 47  1  0  0  0  0
 22 48  1  0  0  0  0
M  CHG  1  21   1
M  END
> <OMEGA_C>
gnnXQEx7D0GNw6bB8SHOQOTGGUEndLDBL0LaQKo38kDeYabB94WUQBOtmj4ejqTBrrjHQAW9DUHi
0LnBt8CUQIZIjL9nl6XBZ/bRQAaIc7/WkbHB94DTQMw32UBDuq/BJSWzQDhAjT8XBKrBl2bKQNIR
7kAnm7nBYGazQByL3L+nGKzBgiPSQG7R5j6FlLDBQWmMQGa2TUBFlpfBN3XfQDe5lkB48KPBQa2r
QNCAU0Br1bPBiQ3lQIg/JkB4eJjBUY3VQCk+qECQUK/Bf8bdQL23SkDCy6PBN9OyQIYwKUBcsKjB
0w26QIoE60Cko8zBXkONQOTiRUB5FaLBs2NLQEtAYkDC0pLBCqesQOKcl0Dq1LLBPXbEQHMY1UC9
v8LBl3SzQCZlRMBxGK3Bo3TwQObckT/8BbbBypa5QHjLQUB4MI/BbYbcQBDKGEE9mJ/BLdvLQMoC
K0FmubDBm57hQD2R4kDo5p7Bq5F5QJt/Rj+8i5/BkK/AQDPSFUFHP8HBzaN6QFFR2L/qYKHBJ3jp
QFz/t795kbbBt5z/QDVIoUAYhaHB96bHQBJXo0CwRp7B7x/FQGbbPkCxVrnBQGaMQOulP0CJBLfB
IVbnQNVDwD9KBJnBz50BQeYpQEAoTpXBrO/uQKtWnUCOxLTBtuL3QJ89M0CY6qjBfVW2QLlw00Bi
G9PBOPmbQCrZ/EBzocvBlfXTQOqzAEF7rs7BKcVkQI1oVEAQB6bB7vdHQCnTaUAZ5IrByfIWQJt+
aUCiUZfBja6zQIqsDEF127fBQVLLQEPxGUF/BLHBggm4QD+77ECxK7fB92qUQJD8mD7BnKTByfjn
QOv6EEEVoKnBSc2UQOuejL+cqKXBgrLRQN9gcr+PvLHBY6TTQFmo2UBdfa/B/MCyQEwdjT9PIarB
USTtQM3t9ECn1ajBJlizQK1O3L9AOazB47/RQF1+6D4uvbDBkWiMQO4ETkCVkJfB4oHgQC1AlUAi
7aPBagKsQOC1U0Cp07PBBofkQKn4I0Cle5jBs5LWQENCqECeN6/BUUTdQN6PSECGzKPB1nKyQK3W
KEDgtqjBvagPQTd2/kDlFJrBBw+NQEX0RUAzEaLBSKZLQDvhYkAPw5LBaH+tQD6Dl0DcurLBoK0F
QalF40Cu+aHB/oWzQN07RMB5Pa3BfQXwQEBJkj+NNLbBLqO5QHnCQUAdMo/B3CCeQIecE0EAp73B
6XrHQEgYK0Hnb7HBRR6mQOGM2EBOkbzBt5J5QOPjRD+zjZ/Baln6QNJaG0HvdqTBiiN7QEYY2b9e
aKHBeyLpQAEWt7+KxbbBH5MAQYKRnkAlmaHBYH7JQD1lokCQIp7Bl43FQAPBPkAaSbnB676MQCDI
QEAiG7fBhwXmQCOEuz/cAJnBRogBQSWgPED6X5XBSuTvQCsCnkCNxLTBRyT3QL/cL0B256jB/B4b
QYSd60BeWZXB1CEYQQleDEENIJ7BrlMDQczhBUGawZTBRUNkQMiWVEC5+6XBVIZIQEp3akD104rB
KhcXQLlYakDwOpfB8ZnWQDe7D0HNv6bBXSzNQEoBGkF4b7DB+43ZQKC88kA9X6bBAwjZQOKc1D66
QazB2c/GQGDzDUEZy7nBL1fZQISge7+/Ua3BTnyMQBByhL+FRarBGtnSQGaq2UAvt6/BVaGyQAWT
jj+1wanBB6jJQJ5/7kDIlrnBxiazQKTQ2r+/OazBzMeLQDhXuz4RLKnBrKuMQBkoTUDDdpfBMAjf
QFWcl0DT3qPBkqatQPRuUUD81LPBF7vlQDPzKEAMUpjB/b/VQHqxqECIUa/BKwneQLezTEAHsKPB
Vy+zQHkUKkAEiKjBkG65QNJ260ApoMzBIDaOQKC6SUCn+aHBdlxLQM1AYEB1vZLBebatQK/ZlkDL
ILPB6eTDQJOL1UBivcLBDnKzQIOEQ8C2P63Bh2tKQD/5dD+DtafBPbm5QHdwQUCOCo/Bc5bbQMcL
GUFblJ/BY8rKQDw8K0FDtbDB+APhQIEf40Cl5J7BoGH2QAUBeD+AWq3B/a6/QIIFFkHoOMHBWvb2
QBDlv79k+q7BZyNeQL85zL+nm6nBuNb+QD2uokCQT6HBep3GQHr+o0DVVp7BcjDIQIR9PECF/LjB
Ah6PQCjPO0DPRrfB2UDpQPAPxj9c2ZjBHLMBQZ4ERUDLI5XBK//vQJ5pnkDIlrTBezn4QKSxNUD2
0KjBgN21QN/m00AqGtPB0EGbQIoj/UAnn8vBbDzTQPP+AEHips7BvcVoQHESXkDW9KXBdWBHQPT3
ZkDCzIrBFBoXQKpPZ0DwRZfBEFjFQMeIDEHsd7rBZjbLQOT6GUEcm7HBuFHJQGqJ7EDeS7nBBqzY
QFUY0j5ncazBrl3VQL9FEUEWlKfBiBXZQGCsfL8XaK3Brk2MQBYehb/XPKrB5CTTQMsK2kAKP6/B
wEiyQCbhjT9S5anBksfZQDKz9UC2LqbBSvyyQMRW27/hNazBIoSLQBDHuD4fM6nBZIKMQAG9TECp
d5fB1FPfQM6AlUCQvaPBztOtQN07UkDl17PBCkPlQKazJUBXWZjBblPWQKe1qEAe9K7B8ujdQJHG
SUAFu6PBPu2yQJluKUCVmKjBQInmQElMAEHyDpPB4AGOQDVHSUC6/KHBKkNLQPOVYECkupLBPmSu
QKNSl0DpBLPBWm/lQEH25EBPRpzBdmOzQNXHQ8AILK3BHPZJQImocz/NrafBno+5QMtOQEB4DY/B
nsW9QK1LE0HjMMLBtOfHQDMWK0H7gLLB/s/EQFkT2EDnKsDBv+v1QNomdz/Kpq3BVOTZQFjLG0Gi
0aDB4LT2QHFlwL9nEa/BB+JdQO8Zzb8zg6nBZ0b/QN3gn0AMHKHBsxTHQNOGoUAZHZ7BVlfIQL4w
PUDW/7jB1jyPQImlPUD6WrfBx/jnQD1Fvz8V35jBuqEBQdxoQEA9LpXB1pvwQJcOn0BnSbTBCv33
QMFXMkA/3ajBRVbwQHYS7kDs/IvBEZT9QNlPDUE+cZTB6YfGQD8bB0GatJHBIlZoQPa/XUDT86XB
jnJHQNhqZ0AByorBmgEXQPsQaECOQJfBcXrEQGexDEEFlrrBQsbLQJExGkFJz7HBHw3IQF3T7EAt
ZLnBpG+NQJSU8z7zMq3BWvzWQFGKEUGG2KfBa7uKQHLbar9pmq7B9ZfVQFUXkr+3sanBJ9/SQMdv
2kDaZa/BgFG0QAdHiz9p86nBBQzbQOI/9kDhbKbBSLmuQHrZ3L9NrqzB/ivZQJplfT5il6jB4KOM
QL34TEBbZpfBfLPeQIO3lkDZ0qPB6hCuQM4KUkDgqbPBDqLlQButLkBztJfB1dfVQE4WqUATDq/B
XzDeQETQTEAVdqPBsEy0QOkdKEBQa6jBXlHqQLO1AEHTaJPBY9qNQNHfQECH2KHBckJLQA2CYUDX
zZLBueKtQF8+l0Cv47LBQNHnQBW05UA1lJzBAGKsQEEzRMAW2a3BMH4AQSbsMj+DdabBMYe5QCkD
SkCx1Y7BwRy8QCZtE0FnQ8LBeb/IQAtPK0GgurLB33XCQGNJ2ECtMsDBehRjQGVOiz+anK7BHZzc
QCUbHEG7J6HB7gFaQHfdrr9zKLHBmR/xQERI4r9TOajBz2D+QH3boUASL6HBgBDGQJDMokDOT57B
c2PIQMsBPkAz8bjBI2mPQLKMPECNDbfBrazpQNx70T+1r5fBfnkBQZsgTUBrqpTBTgfwQLQZn0Au
YbTBciT5QEAsNUDaSajB2970QIbo7kCqZ4zBhLAAQdyeDUH1/5TB1JzKQCWoB0Ep0JHBXLhkQPH/
SEC/z6XBi69HQFzUbUBp94rBj4MWQMACZEAAU5fB

> <OMEGA_E>
qGLnPkDA8T6knAE/ROABP0DDCz8=

> <OMEGA_NBR>
    110443

$$$$
358139
  -OEChem-04172616093D

 48 51  0     1  0  0  0  0  0999 V2000
    4.6350    0.3288  -20.7031 C   0  0  0  0  0  0  0  0  0  0  0  0
    6.4209    9.4304  -22.2113 C   0  0  0  0  0  0  0  0  0  0  0  0
    4.6644   -1.0576  -20.9076 C   0  0  0  0  0  0  0  0  0  0  0  0
    7.3904    8.7365  -22.9609 C   0  0  0  0  0  0  0  0  0  0  0  0
    5.6792    7.3441  -21.2185 C   0  0  0  0  0  0  0  0  0  0  0  0
    6.6520   -0.8215  -22.2937 C   0  0  0  0  0  0  0  0  0  0  0  0
    5.6247    1.1628  -21.2825 C   0  0  0  0  0  0  0  0  0  0  0  0
    6.6513    6.6543  -21.9665 C   0  0  0  0  0  0  0  0  0  0  0  0
    5.5653    8.7315  -21.3181 C   0  0  0  0  0  0  0  0  0  0  0  0
    5.6774   -1.6321  -21.6923 C   0  0  0  0  0  0  0  0  0  0  0  0
    7.5161    7.3458  -22.8336 C   0  0  0  0  0  0  0  0  0  0  0  0
    6.6321    0.5679  -22.1038 C   0  0  0  0  0  0  0  0  0  0  0  0
    4.3794    3.2531  -18.9140 C   0  0  0  0  0  0  0  0  0  0  0  0
    6.9963    4.7227  -20.4590 C   0  0  0  0  0  0  0  0  0  0  0  0
    5.3076    3.3240  -22.4352 C   0  0  0  0  0  0  0  0  0  0  0  0
    7.1361    2.6356  -19.0095 C   0  0  0  0  0  0  0  0  0  0  0  0
    6.6857    5.1744  -21.8948 C   0  0  1  0  0  0  0  0  0  0  0  0
    6.9251    3.1942  -20.4232 C   0  0  1  0  0  0  0  0  0  0  0  0
    5.5811    2.6780  -21.0513 C   0  0  2  0  0  0  0  0  0  0  0  0
    4.5762   10.7744  -20.5245 C   0  0  0  0  0  0  0  0  0  0  0  0
    4.4032    3.0994  -20.2205 N   0  3  0  0  0  0  0  0  0  0  0  0
    3.1596    3.5477  -18.3274 N   0  0  0  0  0  0  0  0  0  0  0  0
    5.3893    4.7322  -22.3177 O   0  0  0  0  0  0  0  0  0  0  0  0
    4.6052    9.3344  -20.5254 O   0  0  0  0  0  0  0  0  0  0  0  0
    5.7126   -2.9682  -21.8743 F   0  0  0  0  0  0  0  0  0  0  0  0
    8.4510    6.6862  -23.5596 F   0  0  0  0  0  0  0  0  0  0  0  0
    7.5873    1.2958  -22.7332 F   0  0  0  0  0  0  0  0  0  0  0  0
    5.7986    3.1398  -17.8676 S   0  0  0  0  0  0  0  0  0  0  0  0
    3.8527    0.7651  -20.0998 H   0  0  0  0  0  0  0  0  0  0  0  0
    6.3271   10.5012  -22.3163 H   0  0  0  0  0  0  0  0  0  0  0  0
    3.9070   -1.6847  -20.4611 H   0  0  0  0  0  0  0  0  0  0  0  0
    8.0384    9.2767  -23.6352 H   0  0  0  0  0  0  0  0  0  0  0  0
    5.0175    6.7968  -20.5636 H   0  0  0  0  0  0  0  0  0  0  0  0
    7.4210   -1.2695  -22.9056 H   0  0  0  0  0  0  0  0  0  0  0  0
    8.0039    5.0571  -20.1712 H   0  0  0  0  0  0  0  0  0  0  0  0
    6.2566    5.1480  -19.7647 H   0  0  0  0  0  0  0  0  0  0  0  0
    6.0564    2.9716  -23.1598 H   0  0  0  0  0  0  0  0  0  0  0  0
    4.3020    3.0417  -22.7804 H   0  0  0  0  0  0  0  0  0  0  0  0
    7.1632    1.5372  -19.0619 H   0  0  0  0  0  0  0  0  0  0  0  0
    8.0950    3.0079  -18.6198 H   0  0  0  0  0  0  0  0  0  0  0  0
    7.4635    4.7869  -22.5692 H   0  0  0  0  0  0  0  0  0  0  0  0
    7.7417    2.8115  -21.0531 H   0  0  0  0  0  0  0  0  0  0  0  0
    3.7734   11.1250  -19.8592 H   0  0  0  0  0  0  0  0  0  0  0  0
    5.5426   11.1602  -20.1678 H   0  0  0  0  0  0  0  0  0  0  0  0
    4.3907   11.1379  -21.5460 H   0  0  0  0  0  0  0  0  0  0  0  0
    3.5505    3.2817  -20.7100 H   0  0  0  0  0  0  0  0  0  0  0  0
    3.1012    3.6891  -17.3391 H   0  0  0  0  0  0  0  0  0  0  0  0
    2.3374    3.6188  -18.8921 H   0  0  0  0  0  0  0  0  0  0  0  0
  1  3  2  0  0  0  0
  1  7  1  0  0  0  0
  2  4  2  0  0  0  0
  2  9  1  0  0  0  0
  3 10  1  0  0  0  0
  4 11  1  0  0  0  0
  5  8  1  0  0  0  0
  5  9  2  0  0  0  0
  6 10  2  0  0  0  0
  6 12  1  0  0  0  0
  7 12  2  0  0  0  0
  7 19  1  0  0  0  0
  8 11  2  0  0  0  0
  8 17  1  0  0  0  0
  9 24  1  0  0  0  0
 10 25  1  0  0  0  0
 11 26  1  0  0  0  0
 12 27  1  0  0  0  0
 13 21  2  0  0  0  0
 13 22  1  0  0  0  0
 13 28  1  0  0  0  0
 14 17  1  0  0  0  0
 14 18  1  0  0  0  0
 15 19  1  0  0  0  0
 15 23  1  0  0  0  0
 16 18  1  0  0  0  0
 16 28  1  0  0  0  0
 17 23  1  0  0  0  0
 18 19  1  0  0  0  0
 19 21  1  0  0  0  0
 20 24  1  0  0  0  0
  1 29  1  0  0  0  0
  2 30  1  0  0  0  0
  3 31  1  0  0  0  0
  4 32  1  0  0  0  0
  5 33  1  0  0  0  0
  6 34  1  0  0  0  0
 14 35  1  0  0  0  0
 14 36  1  0  0  0  0
 15 37  1  0  0  0  0
 15 38  1  0  0  0  0
 16 39  1  0  0  0  0
 16 40  1  0  0  0  0
 17 41  1  0  0  0  0
 18 42  1  0  0  0  0
 20 43  1  0  0  0  0
 20 44  1  0  0  0  0
 20 45  1  0  0  0  0
 21 46  1  0  0  0  0
 22 47  1  0  0  0  0
 22 48  1  0  0  0  0
M  CHG  1  21   1
M  END
> <OMEGA_C>
8lGUQIFeqD4KoKXBrnfNQMjiFkHOsLHB6kKVQD5eh7/FQqfBFn7sQJ/IC0Hvr7fBCry1QEED60CN
v6nBkN3UQPBOUr+QWbLBXv2zQMTVlD+jQqrBKtfUQGjw1EBgu6/B9BayQEO0C0GIi6rBaK21QDnn
0L/Fia3BpIPwQCcR60BPq7bB1jnUQH5hET+Q1LDBuiOMQHwzUEDnT5fBZuHfQD8gl0D3q6PBwtep
QJe8VEBWe7PBvlrkQJ+tKEBpE5jBQPHVQIKUpUCFKK/BSprdQCtuTEDGYqPBXpiyQEhkK0D+aKjB
HnCSQNRjLEEiMqTBVOeMQHRcRkCVw6HBhDZKQN8MY0BsnpLB3HSsQPJtl0C8irLBlF2TQJNZFUEJ
NKTBls22QJD3PcB+/q7BJjcHQXX11UAJerzBEsvyQJDcpT+H3bXB4o25QAzySEDO8I7BeZJ2QLXg
Qz9jzKDBwnfKQMMEKEGxh7LBgwx6QJml179IsKPBfJ0AQTBtFEHTFL3BPI+gQCJ/2UBNgqTBynjt
QDd/or+8PrfBDBAAQfjToUC0XqHBBTbIQHG8pEAgHp7BAM7BQAsuPkBYR7nBSKqJQJiqQkBBPrbB
EznlQGHCxD/FfpjBNIUBQUuBQEBq9ZTBN9XuQKIumUDJjbTBy7v3QJrvM0CxbKjBuX9xQDAAMkGk
357ByVyxQDSQMkGmV6HBn4CMQN80MkEkXqzB2jpjQJUGUkD7raXBPXpGQAcabECJtorBVpcVQD2b
Z0DxIpfBmALUQAUyIj9durDBhsXMQICWFkFwf7HBjjrXQNrePL860bLB/wnsQI+vC0E3grfBHey1
QHIV6kD6kKnBUDCYQCMxkb8n16fB6e6yQFA0kz/8GqrBtCjVQN9h1EADmq/B1aOxQNk3C0HNXarB
iHW5QECoz79IUK7BqZjwQJTq6kBig7bBiGiUQLQgdz7evaXBE/iLQEnIUkCJPJfBpI/gQIEWlkCq
vKPBwUeqQCEyU0BjcLPB0OXjQJVXJ0AwD5jBSXbWQPDypEDGLK/BYTLdQKhgSkAQaaPB8KGxQNfp
KkCuP6jBER6NQGhtK0HpGqXBiqOMQKvpSUB3s6HBO71JQF01ZEBUfpLBxwytQGvAlkAQoLLBKFOS
QDWeFEE9G6TB7si8QNORPMAANrDBomEHQcw31kDGVLzBAh9mQMvqIj+3nJ/BPHa5QCrWSUAr5o7B
Qw3rQHHMpz8ANbTBeWXJQBm1J0GsULLBNYrwQKpwjr+s4LfBTEcAQUR4FEH35bzByiOhQLRO2ECm
SKTBeUuBQJxY6b+vcaTBIZMAQTUIoEDhhqHBjnjJQD46pEAVHZ7BG9XCQGDHO0A+BrnBmWGKQAgx
QUDeZrbBdDDkQJX8wT8LY5jB62oBQTNuPkDrApXBnW3vQBH3mEBjm7TBy972QGtsMEBZe6jB28lm
QJDVMEGjvZ/B6TOrQLdzM0G/66LBMsmEQLdrL0Eta63BXtJjQOJVWUCzp6XBXNxFQGFea0D5jorB
UykVQA2haUAUAZfBS3eUQEBwmT4DmKTB0TfMQK+wGUHkybDBtMKUQBR6jL8/qqXBTmfoQLFlEEFN
YKnBEbi4QGCF7EAkNbfBCpvRQKodcr9LwrHBw9myQAwyjT+6GarBP7jTQMop2UDpeq/Bskq0QCvI
DEE+0LfBIT6zQJgo3L9KP6zB8bTsQFId9EBou6jBDMDRQJvn6D4uvLDB136MQH8RTkAXjZfBNJrg
QM2blUCJ7qPBWu2rQBl1U0CpzLPBlrjkQAuFJEAPd5jB6IHWQHoGqEBWOq/BVn3dQA0GSUASyKPB
UZayQALiKECGr6jBwyWAQCKiCUFQJMbB1CqNQDbzRUCJDKLB9cFLQGjSYkBQwZLBEV6tQPpQl0B2
sbLBwGqZQJj/FkHGD7/Bm1qzQEQmRMDSR63BS60EQUG25EA8nqHBagPwQDFvkj9rM7bBUb25QAYS
QkC+Lo/B1L15QIEhRT9ahp/BVt/IQKrgKkEcGrHBxAJ7QKPs2L+Da6HBufD6QCKDGkF/H6TBVTSn
QNmL2EDhu7zBivroQEnxtr8z0LbB+JwAQdsbn0BaoqHBW5XJQKbOokBDJp7BSWbFQP+MPkAuSLnB
Y6CMQKdmQEB8C7fBJVDmQOCgvD/Q+5jByZoBQeZXPUAZWZXBjcPvQKSmnUAgyLTBCGH3QNdgMEDg
4qjBgCBZQPvPE0FkZMvBWpeVQKxk/0DeCsvBW0FWQOR//kAIXMHBJ3tkQDmAVEBf+KXBc5dIQCB8
akCS0orBnDIXQBoiakAtOpfB

> <OMEGA_E>
QHe+PnDhzD5c/P4+

> <OMEGA_NBR>
    113199

$$$$
358138
  -OEChem-04172616093D

 48 51  0     1  0  0  0  0  0999 V2000
    4.6485    0.3105  -20.5662 C   0  0  0  0  0  0  0  0  0  0  0  0
    4.6463   -1.0855  -20.7140 C   0  0  0  0  0  0  0  0  0  0  0  0
    7.7165    7.5165  -21.6315 C   0  0  0  0  0  0  0  0  0  0  0  0
    5.3808    7.4417  -22.3380 C   0  0  0  0  0  0  0  0  0  0  0  0
    6.4821    9.5872  -22.0054 C   0  0  0  0  0  0  0  0  0  0  0  0
    6.5593   -0.9344  -22.2111 C   0  0  0  0  0  0  0  0  0  0  0  0
    5.6114    1.1133  -21.2380 C   0  0  0  0  0  0  0  0  0  0  0  0
    6.5717    6.7693  -21.9715 C   0  0  0  0  0  0  0  0  0  0  0  0
    7.6776    8.9340  -21.6321 C   0  0  0  0  0  0  0  0  0  0  0  0
    5.5988   -1.7080  -21.5369 C   0  0  0  0  0  0  0  0  0  0  0  0
    5.3406    8.8433  -22.3628 C   0  0  0  0  0  0  0  0  0  0  0  0
    6.5762    0.4652  -22.0670 C   0  0  0  0  0  0  0  0  0  0  0  0
    4.3951    3.2225  -18.9395 C   0  0  0  0  0  0  0  0  0  0  0  0
    6.9511    4.7543  -20.5062 C   0  0  0  0  0  0  0  0  0  0  0  0
    5.3635    3.2802  -22.4832 C   0  0  0  0  0  0  0  0  0  0  0  0
    7.1717    2.6398  -19.0581 C   0  0  0  0  0  0  0  0  0  0  0  0
    6.6426    5.2532  -21.9435 C   0  0  1  0  0  0  0  0  0  0  0  0
    6.9261    3.2044  -20.4719 C   0  0  1  0  0  0  0  0  0  0  0  0
    5.5922    2.6523  -21.0776 C   0  0  2  0  0  0  0  0  0  0  0  0
    9.9795    9.0417  -20.8714 C   0  0  0  0  0  0  0  0  0  0  0  0
    4.4181    3.1004  -20.2521 N   0  3  0  0  0  0  0  0  0  0  0  0
    3.1862    3.5392  -18.3399 N   0  0  0  0  0  0  0  0  0  0  0  0
    5.3827    4.7059  -22.3937 O   0  0  0  0  0  0  0  0  0  0  0  0
    8.7669    9.7238  -21.2834 O   0  0  0  0  0  0  0  0  0  0  0  0
    5.5911   -3.0516  -21.6801 F   0  0  0  0  0  0  0  0  0  0  0  0
    4.1997    9.4720  -22.7283 F   0  0  0  0  0  0  0  0  0  0  0  0
    7.5290    1.1554  -22.7389 F   0  0  0  0  0  0  0  0  0  0  0  0
    5.8103    3.0400  -17.8933 S   0  0  0  0  0  0  0  0  0  0  0  0
    3.9096    0.7809  -19.9344 H   0  0  0  0  0  0  0  0  0  0  0  0
    3.9110   -1.6817  -20.1940 H   0  0  0  0  0  0  0  0  0  0  0  0
    8.6309    7.0058  -21.3682 H   0  0  0  0  0  0  0  0  0  0  0  0
    4.5004    6.8733  -22.5994 H   0  0  0  0  0  0  0  0  0  0  0  0
    6.4429   10.6664  -22.0170 H   0  0  0  0  0  0  0  0  0  0  0  0
    7.2892   -1.4174  -22.8438 H   0  0  0  0  0  0  0  0  0  0  0  0
    7.9463    5.1104  -20.2017 H   0  0  0  0  0  0  0  0  0  0  0  0
    6.1931    5.1472  -19.8126 H   0  0  0  0  0  0  0  0  0  0  0  0
    6.1609    2.9477  -23.1641 H   0  0  0  0  0  0  0  0  0  0  0  0
    4.3883    2.9533  -22.8733 H   0  0  0  0  0  0  0  0  0  0  0  0
    7.2667    1.5461  -19.1269 H   0  0  0  0  0  0  0  0  0  0  0  0
    8.1074    3.0652  -18.6663 H   0  0  0  0  0  0  0  0  0  0  0  0
    7.4535    4.9220  -22.6089 H   0  0  0  0  0  0  0  0  0  0  0  0
    7.7452    2.8496  -21.1147 H   0  0  0  0  0  0  0  0  0  0  0  0
   10.7533    9.7842  -20.6265 H   0  0  0  0  0  0  0  0  0  0  0  0
    9.7699    8.4248  -19.9852 H   0  0  0  0  0  0  0  0  0  0  0  0
   10.3345    8.3987  -21.6902 H   0  0  0  0  0  0  0  0  0  0  0  0
    3.5773    3.3266  -20.7440 H   0  0  0  0  0  0  0  0  0  0  0  0
    3.1357    3.6566  -17.3481 H   0  0  0  0  0  0  0  0  0  0  0  0
    2.3647    3.6503  -18.8991 H   0  0  0  0  0  0  0  0  0  0  0  0
  1  2  2  0  0  0  0
  1  7  1  0  0  0  0
  2 10  1  0  0  0  0
  3  8  2  0  0  0  0
  3  9  1  0  0  0  0
  4  8  1  0  0  0  0
  4 11  2  0  0  0  0
  5  9  2  0  0  0  0
  5 11  1  0  0  0  0
  6 10  2  0  0  0  0
  6 12  1  0  0  0  0
  7 12  2  0  0  0  0
  7 19  1  0  0  0  0
  8 17  1  0  0  0  0
  9 24  1  0  0  0  0
 10 25  1  0  0  0  0
 11 26  1  0  0  0  0
 12 27  1  0  0  0  0
 13 21  2  0  0  0  0
 13 22  1  0  0  0  0
 13 28  1  0  0  0  0
 14 17  1  0  0  0  0
 14 18  1  0  0  0  0
 15 19  1  0  0  0  0
 15 23  1  0  0  0  0
 16 18  1  0  0  0  0
 16 28  1  0  0  0  0
 17 23  1  0  0  0  0
 18 19  1  0  0  0  0
 19 21  1  0  0  0  0
 20 24  1  0  0  0  0
  1 29  1  0  0  0  0
  2 30  1  0  0  0  0
  3 31  1  0  0  0  0
  4 32  1  0  0  0  0
  5 33  1  0  0  0  0
  6 34  1  0  0  0  0
 14 35  1  0  0  0  0
 14 36  1  0  0  0  0
 15 37  1  0  0  0  0
 15 38  1  0  0  0  0
 16 39  1  0  0  0  0
 16 40  1  0  0  0  0
 17 41  1  0  0  0  0
 18 42  1  0  0  0  0
 20 43  1  0  0  0  0
 20 44  1  0  0  0  0
 20 45  1  0  0  0  0
 21 46  1  0  0  0  0
 22 47  1  0  0  0  0
 22 48  1  0  0  0  0
M  CHG  1  21   1
M  END
> <OMEGA_C>
rsCUQC7+nj6Zh6TBt66UQHDyir80tqXBSe32QFqH8EBCDa3BVy+sQH0i7kBDtLLBB23PQDtlGUEf
C7DBBubRQI42b79JsLHByZCzQGmBjj9U56nBIEvSQB6e2ECpxa/Btq71QMLxDkGADq3BfymzQFCe
2r+OS6zB5eWqQCZ+DUHr5rLBDHDSQJ0o7j5IibDBjaSMQF09TkAfhJfBTG/eQEwjmECiDKTB8aGr
QF/uUUCa3bPBeX7lQGHyKEADd5jBBZDUQDYaqEBIjK/BwqLdQHcUTUBdxqPB9/KyQKi/KUDYnqjB
2qsfQfaqEEGc+KbBKmGNQIhsRkBmBKLBcutLQDGCYkAduJLB0T6sQKSWlkBGJrPBaUUMQcqUG0Fc
RKrBL+qyQEBNQ8DRcK3BNWSGQDONF0GN07XBVu3wQFvjkz8w6bXB2u25QE2PQkCNJY/BWzd6QPfq
Rz+ueZ/Bb056QFhA179IjaHBSRgKQT8v4EAt8qrBfAOQQFPy20CUy7TBByzOQL6pKkHZIrDBTEHp
QLlutb8hwLbBXUj+QEmIo0AdnaHBsy3GQDm2pEA4gJ7BTybFQO+nPEAZULnBRW2MQN4CPUCH/LbB
uYjoQHHlxT/iA5nBxLcBQRgsRECAVJXBTYPuQFaBnUDt3rTBmtj3QL9fNkDp6qjBag0sQQCMHEEC
A6XBXVEcQdvLBkGX4Z/BQlolQRRhBkF/ha3BjvJkQLbmVECf86XBha5IQBEFakDoyIrBFlcXQO2e
aUBXMZfBIwvZQDZW3T6ZL6zB1j3ZQPupdr8xc63B52P2QHYL8UDSF63BjpKrQOj/7UA9qbLB2EnO
QNB8GUE596/BBV+MQA40gr8gaarBIauyQIs6kD8YnanB6vjRQFbX2ECv0q/BncP0QMUuD0G6B63B
Y/2yQEpO2L9VdazBk+ipQE9xDUGpz7LB+cKLQIjqwj74IqnBAcuMQALBTUBcYJfBvPfdQN76mEAM
/6PBbJWtQLfLT0CZ3LPBpwPmQGeMK0AYUJjBy+HUQF1hqED5lK/BYb/dQCLzTkBMqaPB6RizQOfN
KkDmcqjBDTYfQVQdEUFs8qbBLS+OQAevSkBC5aHBiLBLQM0hYEChl5LBZ3StQGHSlUDAfrPBD7sL
QT3rG0HROKrBhS2zQBYeQsCup63BtTSFQIxlF0EirLXBlm1KQMfYeD/Do6fB3/25QABAQkBv/o7B
9HH2QPpyfD9gLq3BfNL2QNg0vb9aL6/BOekJQavr4EBlB6vBZYGPQFCV20DxtrTBBL3MQOu/KkGu
B7DBhdldQMbtyb9Zz6nB3nP9QDrZpEBnaaHBNBXFQD9npUBOmp7BmzPIQMPyOUBl7rjBRB6PQHQy
OUDlPrfB2TrqQPyRyz9w2JjBGLoBQebOSEDSKpXBba7vQNdCnkAjsrTBSvr3QOeKOEB40ajBG4Mr
QZ8QHUFO+KTBM+4bQVYsB0F635/BNvUkQaToBkHwg63B5sloQA9nX0BX3KXBW/lHQFZzZkAbpYrB
wjUXQFgSZ0CfFpfB

> <OMEGA_E>
aGDyPiibBj8=

> <OMEGA_NBR>
    115131

$$$$
358146
  -OEChem-04172616093D

 45 48  0     1  0  0  0  0  0999 V2000
    4.7681    9.7356  -20.6484 C   0  0  0  0  0  0  0  0  0  0  0  0
    7.5095    8.7533  -22.9708 C   0  0  0  0  0  0  0  0  0  0  0  0
    6.5813    9.5226  -22.2519 C   0  0  0  0  0  0  0  0  0  0  0  0
    7.5297    7.3602  -22.8211 C   0  0  0  0  0  0  0  0  0  0  0  0
    6.6246    0.5880  -22.0548 C   0  0  0  0  0  0  0  0  0  0  0  0
    6.7246   -0.7934  -22.2788 C   0  0  0  0  0  0  0  0  0  0  0  0
    5.6785    7.4981  -21.2242 C   0  0  0  0  0  0  0  0  0  0  0  0
    4.7526   -1.1557  -20.9035 C   0  0  0  0  0  0  0  0  0  0  0  0
    5.6714    8.9036  -21.3753 C   0  0  0  0  0  0  0  0  0  0  0  0
    6.6186    6.7275  -21.9550 C   0  0  0  0  0  0  0  0  0  0  0  0
    5.5880    1.1282  -21.2476 C   0  0  0  0  0  0  0  0  0  0  0  0
    5.7921   -1.6654  -21.6970 C   0  0  0  0  0  0  0  0  0  0  0  0
    4.6338    0.2269  -20.6790 C   0  0  0  0  0  0  0  0  0  0  0  0
    4.3846    3.2455  -18.9135 C   0  0  0  0  0  0  0  0  0  0  0  0
    6.9462    4.7355  -20.4589 C   0  0  0  0  0  0  0  0  0  0  0  0
    5.3343    3.2992  -22.4481 C   0  0  0  0  0  0  0  0  0  0  0  0
    7.1451    2.6076  -19.0536 C   0  0  0  0  0  0  0  0  0  0  0  0
    6.6387    5.2261  -21.8839 C   0  0  1  0  0  0  0  0  0  0  0  0
    6.8992    3.1890  -20.4532 C   0  0  1  0  0  0  0  0  0  0  0  0
    5.5494    2.6634  -21.0482 C   0  0  2  0  0  0  0  0  0  0  0  0
    4.0612   10.4660  -20.0779 N   0  0  0  0  0  0  0  0  0  0  0  0
    4.3983    3.1417  -20.2253 N   0  3  0  0  0  0  0  0  0  0  0  0
    3.1697    3.5170  -18.3071 N   0  0  0  0  0  0  0  0  0  0  0  0
    5.3697    4.7292  -22.3427 O   0  0  0  0  0  0  0  0  0  0  0  0
    5.8926   -2.9964  -21.8996 F   0  0  0  0  0  0  0  0  0  0  0  0
    3.5876    0.6317  -19.9238 F   0  0  0  0  0  0  0  0  0  0  0  0
    5.8117    3.0651  -17.8816 S   0  0  0  0  0  0  0  0  0  0  0  0
    8.2079    9.2350  -23.6391 H   0  0  0  0  0  0  0  0  0  0  0  0
    6.5655   10.5958  -22.3723 H   0  0  0  0  0  0  0  0  0  0  0  0
    8.2469    6.7701  -23.3723 H   0  0  0  0  0  0  0  0  0  0  0  0
    7.3482    1.2522  -22.5038 H   0  0  0  0  0  0  0  0  0  0  0  0
    7.5181   -1.1848  -22.8981 H   0  0  0  0  0  0  0  0  0  0  0  0
    4.9762    7.0166  -20.5599 H   0  0  0  0  0  0  0  0  0  0  0  0
    4.0368   -1.8326  -20.4610 H   0  0  0  0  0  0  0  0  0  0  0  0
    7.9469    5.0777  -20.1561 H   0  0  0  0  0  0  0  0  0  0  0  0
    6.1958    5.1324  -19.7594 H   0  0  0  0  0  0  0  0  0  0  0  0
    6.1310    2.9633  -23.1281 H   0  0  0  0  0  0  0  0  0  0  0  0
    4.3573    2.9864  -22.8452 H   0  0  0  0  0  0  0  0  0  0  0  0
    7.1936    1.5111  -19.1272 H   0  0  0  0  0  0  0  0  0  0  0  0
    8.1023    2.9921  -18.6715 H   0  0  0  0  0  0  0  0  0  0  0  0
    7.4342    4.8578  -22.5484 H   0  0  0  0  0  0  0  0  0  0  0  0
    7.7066    2.8313  -21.1091 H   0  0  0  0  0  0  0  0  0  0  0  0
    3.5664    3.4059  -20.7133 H   0  0  0  0  0  0  0  0  0  0  0  0
    3.1162    3.6058  -17.3125 H   0  0  0  0  0  0  0  0  0  0  0  0
    2.3460    3.6242  -18.8638 H   0  0  0  0  0  0  0  0  0  0  0  0
  1  9  1  0  0  0  0
  1 21  3  0  0  0  0
  2  3  1  0  0  0  0
  2  4  2  0  0  0  0
  3  9  2  0  0  0  0
  4 10  1  0  0  0  0
  5  6  2  0  0  0  0
  5 11  1  0  0  0  0
  6 12  1  0  0  0  0
  7  9  1  0  0  0  0
  7 10  2  0  0  0  0
  8 12  2  0  0  0  0
  8 13  1  0  0  0  0
 10 18  1  0  0  0  0
 11 13  2  0  0  0  0
 11 20  1  0  0  0  0
 12 25  1  0  0  0  0
 13 26  1  0  0  0  0
 14 22  2  0  0  0  0
 14 23  1  0  0  0  0
 14 27  1  0  0  0  0
 15 18  1  0  0  0  0
 15 19  1  0  0  0  0
 16 20  1  0  0  0  0
 16 24  1  0  0  0  0
 17 19  1  0  0  0  0
 17 27  1  0  0  0  0
 18 24  1  0  0  0  0
 19 20  1  0  0  0  0
 20 22  1  0  0  0  0
  2 28  1  0  0  0  0
  3 29  1  0  0  0  0
  4 30  1  0  0  0  0
  5 31  1  0  0  0  0
  6 32  1  0  0  0  0
  7 33  1  0  0  0  0
  8 34  1  0  0  0  0
 15 35  1  0  0  0  0
 15 36  1  0  0  0  0
 16 37  1  0  0  0  0
 16 38  1  0  0  0  0
 17 39  1  0  0  0  0
 17 40  1  0  0  0  0
 18 41  1  0  0  0  0
 19 42  1  0  0  0  0
 22 43  1  0  0  0  0
 23 44  1  0  0  0  0
 23 45  1  0  0  0  0
M  CHG  1  22   1
M  END
> <OMEGA_C>
75OYQOfEG0H4L6XBpE3wQKQNDEEqxLfBRZrSQLtcGEHcA7LBePPwQMGG60CakbbBmvzTQB+IFj8w
cLDBBjDXQAYaS78AO7LBlLa1QF3w70Aqy6nBWRWYQGbuk79kOqfBg3y1QPt0DkGUAKvB2MvTQJBH
10DEo6/BhtCyQIxokD8C+6nB8li5QDQq1b9ok63B3keUQPxaaD6YbqXBZU6MQFu2T0DsTpfBoEfe
QN6Il0DCq6PBgbKqQJomU0DElbPB5qTkQGXiJkDAbZjBWnDUQDU8p0AyEq/Bi8bcQDQZTEAooKPB
YZSxQM10KkCwYqjBNvWBQJ50J0GYn6DB1b6MQCMSSUB6zaHBHN1KQOgVYUAGdZLBPtSrQGNVl0DW
vbLBd5C8QJnFP8BwMq/BMptlQD62IT8GZJ/ByPm5QLEqRECIDY/BYFMDQXDCE0HyHL3BsRjSQFuI
KUFx+rLBVfMDQVSk2EBh+rrBpiTrQNlHoD/FB7TBQ5TwQOCol79RL7fBtjyfQAaI4EDEeqTBcC2B
QI2S6r8QsKPBo0z+QGt8okC8P6HBxkPGQF88pEA/E57BdjHEQIKnPUBfBrnBKG+LQHwgP0DlwrbB
DzLmQMprwT9pBJnB96IBQaF+P0BCX5XB/eTtQHRzm0AiY7TBUZz2QGA0NUB836jBZD9kQGP6WUDV
tKXBaG9HQDHFZkASgIrBGCQWQLTyZ0AP6ZbBK4yZQL8pF0HgDb/BGsXpQGipD0ESFKnBPwLOQNCh
GUG4aLDBocDsQNhv8kATvKjBXYOUQEzVmz6omqTBHZiUQHjei7+DuaXBRHC4QOVV7UANMrfB8rHR
QPKDcb8bvLHBOn+1QJgfDUE3g7fBjULTQCnw2ECGna/B/C2zQPq3jT+kB6rBShmzQPq/27+KSqzB
pg/SQO4f6j6uprDBZH6MQGHSTUCxj5fBe8HfQHH8lkBp9aPB5dirQI8qU0D10rPBARblQB2FJkCM
dJjBhs7VQNstqECFXa/BYLTdQM8OS0D9w6PBsNmyQMBbKUA5qqjBr7GCQPRKH0GENMXBtFCNQPIl
RkCvD6LBbYdLQFQJYkD8yJLBP+usQPtEl0Ay3LLBgAOzQBDvQ8DnXq3BLXbwQPLCkj/qD7bBALO5
QHkBQkA4LI/BHNT8QFVEGUFCtKPBHX3LQLvcKkFcl7DBMEkBQapS40CNM6PBcbd5QEOERj+Ujp/B
Yk96QI8d2L9th6HBjiGmQBhL2kBMxLzBpRTpQJqxtr90yLbBpgEAQSNioUDZlKHBUhzIQDLoo0DZ
S57BdVHFQAc6PkAVTrnBIZOMQJBXP0CaA7fBb2DnQD7RwD8hApnBCqQBQbRvQEClTJXB7lLvQJaX
nUCV0bTBrsf3QLJbM0CP4ajBTulkQO/aVECNAKbBEyFIQL1waUCl2YrB5AoXQKY3aUAkRpfBQSWY
QEouF0GxBr/BicjoQIDxD0HEI6nB7L3MQDLNGUEKb7DBcxnsQKYK80AXz6jBg9vYQLwz1z5PSazB
axjZQAgGer8gca3BN2u3QK567UCOLLfBqUSMQAamg7+TWKrBzT20QGYzDUHvf7fB/Z3SQGhN2UBm
pK/BDIGyQNAQjz/1uKnBneOyQP712b+lXazBP6GLQOLzvT6sKqnBOKaMQPBbTUA1bZfBdhPfQG7v
l0Bj5KPBBNGtQE7QUEAH1LPBqablQAZfKUDiTJjBYPPVQLWQqEAvZa/BeM/dQJUnTUBjpqPBghGz
QOtHKkAhfqjBcjaBQAlKH0FvKsXBoCSOQEkvSkB18aHBU0xLQDjTX0AErJLBigOuQJlqlkC7ObPB
1B+zQCoHQ8B+d63BWzFKQI5pdj9NqafB/sK5QILuQUC2BI/Bkcv7QJ6dGUEFyaPBrvzJQMYFK0GQ
nrDBFxkBQXwZ5EC8UKPBFDn2QEZHeT8NXK3Bnqz2QIQFv7+YKK/B4gSlQOBM2kBhsrzBda1dQH5e
y7+HsanB/On+QDHvokBzVqHBTazGQHKbpEDoZZ7B9mrIQIVXO0Cc7bjBQVCPQJ0kO0D/SLfB0Cbp
QAXmxj/n1JjBrq0BQaxoRUAnI5XB52zwQOyPnkC1oLTB1Pf3QNn8NUD/xqjBDMBoQMLgXkBb66XB
CGpHQNI/ZkAnuorBzuoWQJm4ZkDeL5fBSdIAQW8yHEFCyKHB8ju0QHxRDUF6fLfBb6DMQLbKGUGF
WrDB2Dm3QLGy7UBQObfBZ+LYQA6s2D7AS6zBii3ZQGpFeb8Jc63Bs8XrQI208kCb06jBNWCMQOOp
g78fUarB1H7oQKXDD0GhCqnBVlbSQFVA2UBttK/Bj4SyQHk5jz9otqnBqQKzQHnF2b8qW6zBza+L
QGLZvT5ZIqnBda2MQHiHTUC3apfBUwDfQDTsl0Bh8qPBhKWtQGfBUEBI1rPBsbDlQMGiKUBfUZjB
MbjVQHmKqECwda/B5MHdQEo9TUDvrKPB+QGzQHdYKkC8fqjB8CELQcAlJkGNz5vB0x2OQIxHSkAT
76HBLmpLQPUeYECMp5LB6smtQNlklkBPQrPBs0uzQCntQsD4da3B6klKQOIMdj/5nKfBktS5QG4Z
QkB1BY/BTDSfQH4AFUFCKr3B6PrJQN8EK0GlfLDBBcekQPq12kAcx7zB/zb2QGBZej+1Yq3Be8T2
QN99vr9xLa/Bbe8AQayL40DuXqPBDfNdQG2Ky7/npqnBmt7+QFDxokD3a6HBdqrGQI6fpEAqcJ7B
GznIQItHO0Dd8bjBnSGPQAn2OkBlRrfBOUTpQEhyxz851pjB57ABQarYRUCzK5XBMCfwQNKNnkAH
tbTBJeL3QI79NUCkzqjBu6VoQGjvXkAt56XBhZtHQCmiZkDTtYrBHgAXQPgEZ0DWKZfBsoCCQHUD
GEFyZ7XBJDz1QDpdD0GXo63BNJDOQGXEGUFyNLDBz0D3QHG68UCIk63BkCONQMoG/j5B8KzBIXOK
QJndZL/2iK7B+ZurQFNS7kCid7LBnpzVQNALj78556nBvcqpQJGiDUE5qrLBgnPSQKhD2UAz+K/B
eyy0QKfdjT9nvKnB0puuQKze2b9G2KzBIxXZQE5fiz7RnqjBidiMQDo7TUBHVJfBaSfdQCJRmkC1
86PBnT2uQCwTUEBIt7PBuVHmQCXEM0DtsJfB4vvUQMzMqEB5lK/BHRreQDbnUUA7XKPBbHS0QJyq
KUDoTqjBC7dEQIFTIEEMrLfBJg6OQEHkQkBEzaHBw5RLQJs+YEBaqpLBLJetQFvzlUALYLPBCD6s
QK6ZQsC1L67B7GIAQWJwPT+rnKbBtMO5QGMBSkDrxY7BYasIQduoGEE+uKvBQhTNQMoHK0GsSbDB
8IEKQVXb4UCPsavBpjJiQBPmjT8+Kq7BJ0FZQAN2q7+KDrHBykmPQHrO20DxObTBdU3xQMAg37/u
m6jBghD8QKUdp0BNN6HBrGvDQOl+pkDgxp7BnMLIQF0IO0DF3rjB7MGPQKP7OECPCbfBjRDsQP+f
3D+WwpfBOHEBQVfPVEDaoJTBn+fvQPsankBelLTBnz75QGLmO0DtPajBRoplQJDOTEAky6XBLglI
QLBba0CpzIrBhbgWQGDcYkDiKZfBHWXfQMkOHEHKvZ3BiBbFQD9hDUFLJ7rBDrrMQPrhGUHj87DB
6+/HQK7H7UAqnrnBh9mNQBsC9T4+Dq3Bo1mLQO83ar/5fa7B9lnaQKoO80ASsKbBRk/WQHIdkL/o
o6nBIWbXQDfbD0GNNqfBn1HSQMmI2UDS2K/BpK20QIucjD8C0qnBfn6vQBLW27/JnKzBMaPZQFuv
hz5DgqjBCKqMQJlDTUCpaJfBBv7dQCPmmECb5KPB7hKuQKs4UUAxsrPBifblQNsjMkCAqJfBAFLV
QG7pqEAcZ6/BKEfeQPQAUEBHYqPBqJG0QFkJKUDjXajBGQzmQBefJUFv6JXBQgWOQN2fQUBs26HB
EQhLQOLFYECb0pLBxYmtQMnBlkBMJLPBw1OtQCW6Q8ABzq3BQ6YAQXEjOz8WbKbBoXe5QGMBS0AB
0Y7BJwm9QEwOFUG/oMHBjGbKQGUaK0FNX7HB5CzCQOnD2kDyr8DBP6VjQBYTiz/jbq7BcFZbQPcI
r7+1CbHB+NfiQPDh40CeOJ/BkvvxQOSr378lNKjB50f9QJIBpUDVOqHB3szEQPIepUBmj57BHm3I
QJ3RPEB68bjBGHmPQIHBOkBUBLfBp+jqQHvg2D+lp5fB62sBQVUMUkB9l5TB3s3vQG9nnkD2kbTB
U235QOc0OUC7NKjBpD1lQDUCSkC92qXBlDJHQGPGbECv+orBZVUWQFnbYkDWWpfB

> <OMEGA_E>
KKvFPniC8T5siwY/BpQGP5JeCT/A2go/

> <OMEGA_NBR>
    120131

$$$$
358148
  -OEChem-04172616093D

 47 50  0     1  0  0  0  0  0999 V2000
    7.2804    7.5411  -22.5873 C   0  0  0  0  0  0  0  0  0  0  0  0
    5.4606    7.0412  -21.0218 C   0  0  0  0  0  0  0  0  0  0  0  0
    4.5630    0.3677  -20.6116 C   0  0  0  0  0  0  0  0  0  0  0  0
    6.9724    8.9083  -22.4858 C   0  0  0  0  0  0  0  0  0  0  0  0
    5.1660    8.3912  -20.9130 C   0  0  0  0  0  0  0  0  0  0  0  0
    4.4926   -1.0239  -20.7727 C   0  0  0  0  0  0  0  0  0  0  0  0
    6.4674   -0.9691  -22.1944 C   0  0  0  0  0  0  0  0  0  0  0  0
    6.5220    6.6151  -21.8479 C   0  0  0  0  0  0  0  0  0  0  0  0
    5.5932    1.1147  -21.2398 C   0  0  0  0  0  0  0  0  0  0  0  0
    5.9144    9.3246  -21.6470 C   0  0  0  0  0  0  0  0  0  0  0  0
    5.4435   -1.6901  -21.5628 C   0  0  0  0  0  0  0  0  0  0  0  0
    6.5526    0.4219  -22.0409 C   0  0  0  0  0  0  0  0  0  0  0  0
    4.4451    3.3513  -18.9848 C   0  0  0  0  0  0  0  0  0  0  0  0
    7.1734    4.6266  -20.5630 C   0  0  0  0  0  0  0  0  0  0  0  0
    5.4537    3.2342  -22.5045 C   0  0  0  0  0  0  0  0  0  0  0  0
    7.1732    2.5933  -19.0380 C   0  0  0  0  0  0  0  0  0  0  0  0
    6.7673    5.1578  -21.9643 C   0  0  1  0  0  0  0  0  0  0  0  0
    7.0084    3.1062  -20.4795 C   0  0  1  0  0  0  0  0  0  0  0  0
    5.6429    2.6422  -21.0858 C   0  0  2  0  0  0  0  0  0  0  0  0
    5.5695   10.7682  -21.4983 C   0  0  0  0  0  0  0  0  0  0  0  0
    4.4806    3.1736  -20.2890 N   0  3  0  0  0  0  0  0  0  0  0  0
    3.2291    3.6941  -18.4133 N   0  0  0  0  0  0  0  0  0  0  0  0
    5.5062    4.6434  -22.4320 O   0  0  0  0  0  0  0  0  0  0  0  0
    5.3729   -3.0281  -21.7201 F   0  0  0  0  0  0  0  0  0  0  0  0
    7.5583    1.0560  -22.6911 F   0  0  0  0  0  0  0  0  0  0  0  0
    5.7809   11.1197  -20.2030 F   0  0  0  0  0  0  0  0  0  0  0  0
    4.2564   10.9286  -21.8120 F   0  0  0  0  0  0  0  0  0  0  0  0
    5.8519    3.2145  -17.9248 S   0  0  0  0  0  0  0  0  0  0  0  0
    8.0868    7.2064  -23.2230 H   0  0  0  0  0  0  0  0  0  0  0  0
    4.8777    6.3155  -20.4742 H   0  0  0  0  0  0  0  0  0  0  0  0
    3.8275    0.8746  -20.0046 H   0  0  0  0  0  0  0  0  0  0  0  0
    7.5408    9.6363  -23.0455 H   0  0  0  0  0  0  0  0  0  0  0  0
    4.3659    8.7227  -20.2677 H   0  0  0  0  0  0  0  0  0  0  0  0
    3.7062   -1.5837  -20.2885 H   0  0  0  0  0  0  0  0  0  0  0  0
    7.1939   -1.4880  -22.8020 H   0  0  0  0  0  0  0  0  0  0  0  0
    8.2255    4.8846  -20.3723 H   0  0  0  0  0  0  0  0  0  0  0  0
    6.5360    5.0993  -19.8013 H   0  0  0  0  0  0  0  0  0  0  0  0
    6.2547    2.8700  -23.1646 H   0  0  0  0  0  0  0  0  0  0  0  0
    4.4780    2.9228  -22.9056 H   0  0  0  0  0  0  0  0  0  0  0  0
    7.1404    1.4938  -19.0474 H   0  0  0  0  0  0  0  0  0  0  0  0
    8.1475    2.9278  -18.6523 H   0  0  0  0  0  0  0  0  0  0  0  0
    7.5734    4.9560  -22.6851 H   0  0  0  0  0  0  0  0  0  0  0  0
    7.8054    2.6513  -21.0860 H   0  0  0  0  0  0  0  0  0  0  0  0
    6.2075   11.3583  -22.1727 H   0  0  0  0  0  0  0  0  0  0  0  0
    3.6556    3.4150  -20.8001 H   0  0  0  0  0  0  0  0  0  0  0  0
    3.1675    3.8558  -17.4284 H   0  0  0  0  0  0  0  0  0  0  0  0
    2.4139    3.7796  -18.9861 H   0  0  0  0  0  0  0  0  0  0  0  0
  1  4  1  0  0  0  0
  1  8  2  0  0  0  0
  2  5  2  0  0  0  0
  2  8  1  0  0  0  0
  3  6  2  0  0  0  0
  3  9  1  0  0  0  0
  4 10  2  0  0  0  0
  5 10  1  0  0  0  0
  6 11  1  0  0  0  0
  7 11  2  0  0  0  0
  7 12  1  0  0  0  0
  8 17  1  0  0  0  0
  9 12  2  0  0  0  0
  9 19  1  0  0  0  0
 10 20  1  0  0  0  0
 11 24  1  0  0  0  0
 12 25  1  0  0  0  0
 13 21  2  0  0  0  0
 13 22  1  0  0  0  0
 13 28  1  0  0  0  0
 14 17  1  0  0  0  0
 14 18  1  0  0  0  0
 15 19  1  0  0  0  0
 15 23  1  0  0  0  0
 16 18  1  0  0  0  0
 16 28  1  0  0  0  0
 17 23  1  0  0  0  0
 18 19  1  0  0  0  0
 19 21  1  0  0  0  0
 20 26  1  0  0  0  0
 20 27  1  0  0  0  0
  1 29  1  0  0  0  0
  2 30  1  0  0  0  0
  3 31  1  0  0  0  0
  4 32  1  0  0  0  0
  5 33  1  0  0  0  0
  6 34  1  0  0  0  0
  7 35  1  0  0  0  0
 14 36  1  0  0  0  0
 14 37  1  0  0  0  0
 15 38  1  0  0  0  0
 15 39  1  0  0  0  0
 16 40  1  0  0  0  0
 16 41  1  0  0  0  0
 17 42  1  0  0  0  0
 18 43  1  0  0  0  0
 20 44  1  0  0  0  0
 21 45  1  0  0  0  0
 22 46  1  0  0  0  0
 22 47  1  0  0  0  0
M  CHG  1  21   1
M  END
> <OMEGA_C>
3PjoQA5R8UDLsrTBWL2uQN1R4UC8LKjBXQSSQLM8vD6F5KTBqB3fQFKIDkEB47PBDVClQGtCBkHj
TafBj8OPQFQOg79tLqbB+fTOQLUVeL8ajrHBO7TQQJCu00CayK7BH/uyQKyvjj8j66nBc0K9QLwx
FUESLa3B8TCuQO5T2L+lgKzBkK7RQM4H2D6zU7DB4D2OQFB7VkDY4JfBTYzlQA4NlEAWgaTB64Su
QI79TkAqCbTBvIrlQOX4JUDLTZjB443YQHsMpUDptq/Bv0TgQDvMRkAF1qPBt5K0QDgaKUDOr6jB
bDmyQL1KLEFr/KvBxmCPQHscS0DlT6LBXqpOQBpsbEB0TpPBeTKwQMCWlEDLdLPBce6rQJHMQcDT
wq3BON3xQI4shz9Rh7XB+fy4QCTqMUGon6HB1TSIQKzbLkHrfq7BEkO7QD+6TUDvZY/BZ2MBQcya
5kCmyLnByhWcQKsYykA6y6PBevV0QGvlXz+CCaDBEk7xQGQuGkFEXbjB0bWLQCqQC0FWJKLBJDJt
QCO4yr/BTqLBvDTmQLV3vr+UarbBx5sDQclOnEBj+qLB1CbRQLIto0AHaZ7BmibIQGOuN0AdUbnB
iUuPQHIPO0C8PrfBh37kQEc2vz8MYZjBPlwCQdhhO0DkN5XB9VjyQLuXnkAse7XB/cX5QIiuKUAH
sKjBd6PGQHu7NUG2YbHBk/VpQL2OWkCZZqbB/rdKQK/FdkBcbYvBOX0aQGnlcUBy45fB

> <OMEGA_E>
KPewPg==

> <OMEGA_NBR>
    121223

$$$$
50329843
  -OEChem-04172616093D

 41 44  0     1  0  0  0  0  0999 V2000
    4.5201    0.4034  -20.6068 C   0  0  0  0  0  0  0  0  0  0  0  0
    4.4515   -0.9968  -20.6896 C   0  0  0  0  0  0  0  0  0  0  0  0
    6.4705   -1.0184  -22.0442 C   0  0  0  0  0  0  0  0  0  0  0  0
    5.5304    7.4644  -21.0483 C   0  0  0  0  0  0  0  0  0  0  0  0
    7.2003    7.7366  -22.5968 C   0  0  0  0  0  0  0  0  0  0  0  0
    5.5762    1.1240  -21.2324 C   0  0  0  0  0  0  0  0  0  0  0  0
    6.5388    6.7698  -21.8876 C   0  0  0  0  0  0  0  0  0  0  0  0
    5.4272   -1.7083  -21.4041 C   0  0  0  0  0  0  0  0  0  0  0  0
    6.5516    0.3852  -21.9673 C   0  0  0  0  0  0  0  0  0  0  0  0
    4.4539    3.3153  -19.0092 C   0  0  0  0  0  0  0  0  0  0  0  0
    7.0735    4.7293  -20.5570 C   0  0  0  0  0  0  0  0  0  0  0  0
    5.4831    3.2823  -22.5384 C   0  0  0  0  0  0  0  0  0  0  0  0
    7.2070    2.6215  -19.1074 C   0  0  0  0  0  0  0  0  0  0  0  0
    6.7355    5.2760  -21.9672 C   0  0  1  0  0  0  0  0  0  0  0  0
    6.9937    3.1811  -20.5242 C   0  0  1  0  0  0  0  0  0  0  0  0
    5.6422    2.6724  -21.1215 C   0  0  2  0  0  0  0  0  0  0  0  0
    5.6143    8.7572  -21.2681 N   0  0  0  0  0  0  0  0  0  0  0  0
    6.6027    8.9036  -22.1842 N   0  0  0  0  0  0  0  0  0  0  0  0
    4.4888    3.2052  -20.3212 N   0  3  0  0  0  0  0  0  0  0  0  0
    3.2422    3.6416  -18.4208 N   0  0  0  0  0  0  0  0  0  0  0  0
    5.4957    4.7191  -22.4587 O   0  0  0  0  0  0  0  0  0  0  0  0
    5.3592   -3.0558  -21.4794 F   0  0  0  0  0  0  0  0  0  0  0  0
    7.5732    0.9908  -22.6165 F   0  0  0  0  0  0  0  0  0  0  0  0
    5.8631    3.1150  -17.9565 S   0  0  0  0  0  0  0  0  0  0  0  0
    3.7599    0.9417  -20.0602 H   0  0  0  0  0  0  0  0  0  0  0  0
    3.6463   -1.5268  -20.2026 H   0  0  0  0  0  0  0  0  0  0  0  0
    7.2158   -1.5688  -22.5992 H   0  0  0  0  0  0  0  0  0  0  0  0
    4.8410    6.9857  -20.3686 H   0  0  0  0  0  0  0  0  0  0  0  0
    8.0011    7.6119  -23.3106 H   0  0  0  0  0  0  0  0  0  0  0  0
    8.0924    5.0423  -20.2850 H   0  0  0  0  0  0  0  0  0  0  0  0
    6.3573    5.1413  -19.8309 H   0  0  0  0  0  0  0  0  0  0  0  0
    6.3139    2.9453  -23.1757 H   0  0  0  0  0  0  0  0  0  0  0  0
    4.5290    2.9498  -22.9734 H   0  0  0  0  0  0  0  0  0  0  0  0
    7.2413    1.5233  -19.1618 H   0  0  0  0  0  0  0  0  0  0  0  0
    8.1637    2.9993  -18.7176 H   0  0  0  0  0  0  0  0  0  0  0  0
    7.5640    5.0458  -22.6533 H   0  0  0  0  0  0  0  0  0  0  0  0
    7.8020    2.7937  -21.1620 H   0  0  0  0  0  0  0  0  0  0  0  0
    6.8780    9.7985  -22.5354 H   0  0  0  0  0  0  0  0  0  0  0  0
    3.6787    3.5014  -20.8271 H   0  0  0  0  0  0  0  0  0  0  0  0
    3.1828    3.7570  -17.4293 H   0  0  0  0  0  0  0  0  0  0  0  0
    2.4273    3.7618  -18.9878 H   0  0  0  0  0  0  0  0  0  0  0  0
  1  2  1  0  0  0  0
  1  6  2  0  0  0  0
  2  8  2  0  0  0  0
  3  8  1  0  0  0  0
  3  9  2  0  0  0  0
  4  7  1  0  0  0  0
  4 17  2  0  0  0  0
  5  7  2  0  0  0  0
  5 18  1  0  0  0  0
  6  9  1  0  0  0  0
  6 16  1  0  0  0  0
  7 14  1  0  0  0  0
  8 22  1  0  0  0  0
  9 23  1  0  0  0  0
 10 19  2  0  0  0  0
 10 20  1  0  0  0  0
 10 24  1  0  0  0  0
 11 14  1  0  0  0  0
 11 15  1  0  0  0  0
 12 16  1  0  0  0  0
 12 21  1  0  0  0  0
 13 15  1  0  0  0  0
 13 24  1  0  0  0  0
 14 21  1  0  0  0  0
 15 16  1  0  0  0  0
 16 19  1  0  0  0  0
 17 18  1  0  0  0  0
  1 25  1  0  0  0  0
  2 26  1  0  0  0  0
  3 27  1  0  0  0  0
  4 28  1  0  0  0  0
  5 29  1  0  0  0  0
 11 30  1  0  0  0  0
 11 31  1  0  0  0  0
 12 32  1  0  0  0  0
 12 33  1  0  0  0  0
 13 34  1  0  0  0  0
 13 35  1  0  0  0  0
 14 36  1  0  0  0  0
 15 37  1  0  0  0  0
 18 38  1  0  0  0  0
 19 39  1  0  0  0  0
 20 40  1  0  0  0  0
 20 41  1  0  0  0  0
M  CHG  1  19   1
M  END
> <OMEGA_C>
cKSQQDyNzj692qTBjXKOQDwsf79hhKXBag7PQI5bgr9tWrDBKvmwQBLc7kDyYqjBzWjmQKKS90A9
xrTBjHCyQMnfjz/m26nBwD3RQDqi2EC1Ga/B2qutQPCq2r+GO6vBDafRQLQyxT4hva/B8YWOQIgt
VEDPEpjBGVriQIpWl0CudKTBhnWvQKMRUkChTrTBkZ/mQArGJ0D825jBk4nXQGTVqEDfvK/Boczf
QFqXS0ChMaTBB420QJwIK0DZ+KjBpKizQFIdDEEcJarBeEnTQPR0DkEpebHBOaSPQGwhTUDSkaLB
DoBPQKUQaUDSXZPB+dyvQEIDl0Brq7PBPH6rQIuRQ8Dp1avBu1fyQJyifT+L7rTBWJ67QPBbR0DS
po/BY6JwQPkRcT8we6DBeF1pQFduw7/2nqHBfOfmQFnOyL8vy7TBP+maQPmK30D38qLBggQAQXqU
80AkfLrBTnoBQbNaoUDDR6LBp27LQLyFpECYpZ7BdAvKQMl/PEDeZ7nB8u2QQOjIPEBtybfBXrjn
QOb8wj9hS5nBeZ4CQcD0P0C0vZXB+gvyQNp2oUDwObXBt6n5QJLMMkCvS6nBdhjcQJLGHEFmSLTB
xG9rQCcXYED8nabBkrNLQJhycEAgb4vBwVgbQNPAcEAT55fBWeTRQGQQ8T6126/Bz37SQJ7ubL/O
E7HBudiRQDuljL+RXabB6EOxQDoy7kD/UKjBo33mQP7E9kA8xLTB7U+xQDK/jj8N2KnBaDTRQNra
10CqHK/B5q6yQD8G27+hP6zBBnaQQHyYmT7qNaXBVz+OQCynVkCb9pfB6XXiQCdVlkBZj6TBr8Cu
QHqfUEADOrTBpePlQBpBJkAo4pjBVFHXQFoCqECWzq/B4+XeQJCgSUB9PKTBvBWzQFeGKkAk1KjB
3GO0QPnMC0GF+qnBouPTQJoZDkEmWLHB5f6OQOZVT0BIdKLB+CtPQPZ6a0CPMpPB4omvQFJSlkAh
trPBhH6zQEaQQ8CQSa3BwJddQOGSTT+du5/BRl67QIR5R0ACm4/BnqfqQDlXiD/hj7PB13HrQAKD
sr9Gu7XB9cRyQN2O2r+ir6LBdxqbQNvr3kCg5aLBCd7/QC208kAHi7rBRrMBQTKun0D+hKLBFDHM
QAsOpEDUq57B4H/JQOQiOkCUNbnBPE+QQI6TO0CHxrfBfYbmQC7cvz9dQpnBa2ECQYzTPUAK2pXB
ra3xQEevoEAEWLXBZ0H4QGOIL0AjZanBCPfcQLNrHEEGGbTB2r5qQFEOZECDfKbBOXZLQCiLcUA7
P4vB4RUbQC1ydECBtZfB

> <OMEGA_E>
2KbVPnC65T4=

> <OMEGA_NBR>
    122967

$$$$
50329845
  -OEChem-04172616093D

 43 46  0     1  0  0  0  0  0999 V2000
    4.6220    0.3778  -20.6591 C   0  0  0  0  0  0  0  0  0  0  0  0
    4.6404   -1.0157  -20.8254 C   0  0  0  0  0  0  0  0  0  0  0  0
    6.6399   -0.8313  -22.1988 C   0  0  0  0  0  0  0  0  0  0  0  0
    5.7329    7.5814  -21.2572 C   0  0  0  0  0  0  0  0  0  0  0  0
    5.6238    1.1940  -21.2511 C   0  0  0  0  0  0  0  0  0  0  0  0
    5.6502   -1.6198  -21.5911 C   0  0  0  0  0  0  0  0  0  0  0  0
    6.6358    0.5646  -22.0378 C   0  0  0  0  0  0  0  0  0  0  0  0
    6.5912    6.7865  -21.9647 C   0  0  0  0  0  0  0  0  0  0  0  0
    5.9961    8.9523  -21.6664 C   0  0  0  0  0  0  0  0  0  0  0  0
    4.3866    3.2296  -18.9250 C   0  0  0  0  0  0  0  0  0  0  0  0
    6.9405    4.8225  -20.4774 C   0  0  0  0  0  0  0  0  0  0  0  0
    5.3373    3.3662  -22.4593 C   0  0  0  0  0  0  0  0  0  0  0  0
    7.1714    2.7035  -19.0541 C   0  0  0  0  0  0  0  0  0  0  0  0
    6.6489    5.2970  -21.9160 C   0  0  1  0  0  0  0  0  0  0  0  0
    6.9202    3.2811  -20.4555 C   0  0  1  0  0  0  0  0  0  0  0  0
    5.5878    2.7275  -21.0664 C   0  0  2  0  0  0  0  0  0  0  0  0
    5.2673   10.1612  -21.1420 C   0  0  0  0  0  0  0  0  0  0  0  0
    6.9548    8.9338  -22.5621 N   0  0  0  0  0  0  0  0  0  0  0  0
    4.4164    3.1596  -20.2381 N   0  3  0  0  0  0  0  0  0  0  0  0
    3.1614    3.4658  -18.3235 N   0  0  0  0  0  0  0  0  0  0  0  0
    7.3409    7.5902  -22.7610 O   0  0  0  0  0  0  0  0  0  0  0  0
    5.3736    4.7945  -22.3566 O   0  0  0  0  0  0  0  0  0  0  0  0
    5.6674   -2.9606  -21.7486 F   0  0  0  0  0  0  0  0  0  0  0  0
    7.6121    1.2673  -22.6599 F   0  0  0  0  0  0  0  0  0  0  0  0
    5.8090    3.0768  -17.8858 S   0  0  0  0  0  0  0  0  0  0  0  0
    3.8375    0.8352  -20.0746 H   0  0  0  0  0  0  0  0  0  0  0  0
    3.8768   -1.6241  -20.3638 H   0  0  0  0  0  0  0  0  0  0  0  0
    7.4094   -1.3006  -22.7939 H   0  0  0  0  0  0  0  0  0  0  0  0
    5.0005    7.2545  -20.5340 H   0  0  0  0  0  0  0  0  0  0  0  0
    7.9297    5.1849  -20.1607 H   0  0  0  0  0  0  0  0  0  0  0  0
    6.1712    5.2132  -19.7950 H   0  0  0  0  0  0  0  0  0  0  0  0
    6.1171    3.0313  -23.1592 H   0  0  0  0  0  0  0  0  0  0  0  0
    4.3510    3.0526  -22.8318 H   0  0  0  0  0  0  0  0  0  0  0  0
    7.2763    1.6116  -19.1362 H   0  0  0  0  0  0  0  0  0  0  0  0
    8.1034    3.1327  -18.6576 H   0  0  0  0  0  0  0  0  0  0  0  0
    7.4500    4.9377  -22.5786 H   0  0  0  0  0  0  0  0  0  0  0  0
    7.7387    2.9349  -21.1037 H   0  0  0  0  0  0  0  0  0  0  0  0
    5.6599   11.0663  -21.6285 H   0  0  0  0  0  0  0  0  0  0  0  0
    4.1933   10.0647  -21.3596 H   0  0  0  0  0  0  0  0  0  0  0  0
    5.4159   10.2357  -20.0547 H   0  0  0  0  0  0  0  0  0  0  0  0
    3.5831    3.4178  -20.7271 H   0  0  0  0  0  0  0  0  0  0  0  0
    3.0999    3.5450  -17.3285 H   0  0  0  0  0  0  0  0  0  0  0  0
    2.3384    3.5571  -18.8842 H   0  0  0  0  0  0  0  0  0  0  0  0
  1  2  2  0  0  0  0
  1  5  1  0  0  0  0
  2  6  1  0  0  0  0
  3  6  2  0  0  0  0
  3  7  1  0  0  0  0
  4  8  2  0  0  0  0
  4  9  1  0  0  0  0
  5  7  2  0  0  0  0
  5 16  1  0  0  0  0
  6 23  1  0  0  0  0
  7 24  1  0  0  0  0
  8 14  1  0  0  0  0
  8 21  1  0  0  0  0
  9 17  1  0  0  0  0
  9 18  2  0  0  0  0
 10 19  2  0  0  0  0
 10 20  1  0  0  0  0
 10 25  1  0  0  0  0
 11 14  1  0  0  0  0
 11 15  1  0  0  0  0
 12 16  1  0  0  0  0
 12 22  1  0  0  0  0
 13 15  1  0  0  0  0
 13 25  1  0  0  0  0
 14 22  1  0  0  0  0
 15 16  1  0  0  0  0
 16 19  1  0  0  0  0
 18 21  1  0  0  0  0
  1 26  1  0  0  0  0
  2 27  1  0  0  0  0
  3 28  1  0  0  0  0
  4 29  1  0  0  0  0
 11 30  1  0  0  0  0
 11 31  1  0  0  0  0
 12 32  1  0  0  0  0
 12 33  1  0  0  0  0
 13 34  1  0  0  0  0
 13 35  1  0  0  0  0
 14 36  1  0  0  0  0
 15 37  1  0  0  0  0
 17 38  1  0  0  0  0
 17 39  1  0  0  0  0
 17 40  1  0  0  0  0
 19 41  1  0  0  0  0
 20 42  1  0  0  0  0
 20 43  1  0  0  0  0
M  CHG  1  19   1
M  END
> <OMEGA_C>
o+eTQL5rwT7pRaXBUX6UQFoDgr9ymqbBX3rUQJnRVL8vl7HBvnO3QIua8kDYDqrBK/azQJfUmD8z
AqrBk860QHpVz7+AuqzBeVjUQO2HED9+TbDBN+vSQN4q2UCjt6/BSuC/QG08D0HRVK3B+F6MQPSx
TkBQZpfBhRjeQEFSmkCe0aPBfsuqQIxvV0CZrLPBD3zlQKgGLUC6bpjB+sPUQP6AqUDmU6/Bc3Ld
QOf8UUDgpKPBSM+yQCmPLkADiKjBYo2oQFOUIkHrIqnBe43eQMPwDkE9f7TByVKNQEo3SkC556HB
klRKQI/PXUB1lpLB9ujqQPni8kCbFrbBLvSrQIpsmUBN2rLBolu1QBh7PcA6/a3BeZbzQFI4oj9n
R7XBN+O5QLfpREAgFo/B5Jl1QO/PVT+9mKDB1Bx4QO3hz7/46KLBABrtQM14pr/iWbbB3wOgQMAk
6ECSRaTBx7/9QJTqpUApSaHBpXrFQHzSpkAmXJ7BTL/DQGQBQkD6RbnBezuLQI1dQ0Cgp7bBx9fo
QAdKzj/zFpnBmKcBQcJ9SEDPQpXBzGbuQE0BnkD2oLTBlaP3QJjUO0By1KjBoh21QJAPMUFBB63B
oy+GQN8IIUFx4KrBu06tQJ/FI0H/b6DBDFJlQJS8WkAq0aXBPGRGQOzhYkDLoIrBFakVQNSmY0DL
EpfB8RLVQJbQIT+3OrDBMybYQH06P79cI7LB5E+YQGCSjr/TaqfB2y62QKV+8UA2ZarBXoGzQMLW
lT8h46nBY8S5QHFXz79Fua3BZp2UQJ7niD7Qg6XBA4zSQA1e2ECK3q/BJ/6+QOfIDkEtcq3BfkeM
QAJEUUBAU5fBbGTeQJ5rmUCyDKTBEr+qQL7cVEBDqrPBxSLlQEFTLEBTeZjBvbDUQOqeqEDsia/B
TfLcQNUSUEBUvqPBBtOxQPdWLUDTZqjB6uamQFoDIkGJYKnBf8PeQMGxDkHnTrTBAe2MQHPvS0Dn
06HBGEZKQKn5X0CgdJLBAnLrQO168kB967XBnPGrQBxAmEClC7PBJXO8QOSYPMDZm6/ByFxlQIGm
Kz/xoJ/BePu5QJTGRkC9FI/BqabsQIf1pT+CpLPB/N3xQPZpkb+i/7bBwiyBQJhn5b+7/aPBBeid
QOiz5kCV3qTBC2H+QJCJpEDWpaHBtk3GQBR9pkDlhp7BdxzEQKmRPkDXF7nB2GaLQNuFQEA9wrbB
gPbnQESNzD9e/pjBO6IBQUBTR0BtbJXBmlXuQFdpnUBB4LTBLrz2QMqEOECW9ajBGPmzQDKYMEHf
EK3B3teEQLd1IEGodavBBkqqQDAGI0HtoaDBz/5kQIzeXUD2vaXBfZNGQCNiZEDrfIrBx3cVQB8v
ZkCO6JbBdxmQQGj04j5j8aTBeyGNQFAHdL/NwKXB2b7NQNyZfr+8mrDB47nXQMtf+0DzM7HB5l+y
QMS1kj9H36nB1PurQGrj1b8ejqvBhzPRQJi2zT5m1K/BpUDJQOt/1UCkJK3B8Pm8QD5LDkEtU6zB
Og6PQAGXVkB8I5jBwSHlQAWwlUCcZaTBgWGxQKsMUUA9V7TB68XmQMX9JUBNs5jBqDnXQNrvqEAt
WK/BFvXgQIpYSUCsGqTB9mm1QKmZK0Ba76jBr7i/QP39JUFJKK7B0hChQGgPBUHaCKbBx6eQQKAE
UECKoqLB8iBQQCsra0A1g5PBSfqnQDEV3kA8eabBZ/qwQLTzlUCLwrPBYS2pQKjuQMBYUKzB52Ly
QNnffT8t87TB75u7QDmSR0ApmY/B4C1wQPNqfT8Mh6DB8i5mQDv1vL8O6aHBQTjlQBucxr94HbXB
nYbxQOrr/0CQ1rbB+V0DQddOnkCt56LBzNbQQCxco0AjEp7BXL7MQGH/O0ANNrnB1XaTQNt+OkC3
BbjB4TrnQH9Svz9EE5nBX7oCQYgwPUAOgpXBDg7yQF0sqECrCbXBmJP6QJZ4LkAVHqnBm+KmQLsg
LkFLbqnBM3XfQBvIK0F4r6vBoNe6QFxvKUFis7bBHaZuQK77ZEDywqbBuHFLQIEdcUCWkYvB95Ec
QF8QdECzHpjBxODRQHbz9T7E7K/BBD/RQFAyaL+lhbHB64eQQGCpiL9czqbB1d7UQOqW+0BNeLDB
7tmxQPs6kD+nvKnB5p6wQMgs17/B8KzBWpOQQIK/pT40MqXBFFjHQLXU1EDmtqzBnRm5QPvGDUG+
aKvBzaiOQAEFWUCe6JfBlqvlQMfYlEAdZaTB8YmxQKhIT0AtGbTBgL7lQDiuJUDFbJjBm6nWQMTB
qEAFMq/B6EvgQFh2R0BI7KPBdWW0QLutKkBCnqjB+gK7QESkJUEyyazBPo+dQLrOA0GZTKXBZxaQ
QK0qUUAAZqLBvuVOQG15a0B9QpPBx6ilQHjL20BiC6bBpeCwQKIhlUDXr7PBWvSvQMAcQcAydq7B
5NtfQLfDVD8HX5/BBKK7QLOvTUACbo/BnizrQKbDiD+ddrPBSdjpQGyDsL/wRbbBahpvQBfX1b95
SaPBqbDuQG+9AEFkBbbB+doDQcqInECEPqPBX8nSQA8mo0DF4p3BJnjNQAkEOkBhv7jBpRWUQMMd
OEAS87fBMm/kQIGtvj/rkZjBc4cCQdFtOkC5WpXBhE7xQD1tqUCT8bTB6pf5QFvBKkAr4ajBRuuh
QI0wLUEg56fBvI3aQEuDK0F7NarBk/i1QDiyKUGJQbXBP91tQA2YZkARjqbBwFdKQH8BckBnUovB
2+MaQOJAckAv2JfB

> <OMEGA_E>
YIjuPegGHz606PM+trcGPw==

> <OMEGA_NBR>
    126297

$$$$
50329846
  -OEChem-04172616093D

 43 46  0     1  0  0  0  0  0999 V2000
    4.6138    0.3751  -20.6823 C   0  0  0  0  0  0  0  0  0  0  0  0
    4.6206   -1.0175  -20.8514 C   0  0  0  0  0  0  0  0  0  0  0  0
    6.6317   -0.8491  -22.2107 C   0  0  0  0  0  0  0  0  0  0  0  0
    6.9106    8.8365  -22.5519 C   0  0  0  0  0  0  0  0  0  0  0  0
    5.6266    1.1823  -21.2664 C   0  0  0  0  0  0  0  0  0  0  0  0
    5.6309   -1.6293  -21.6102 C   0  0  0  0  0  0  0  0  0  0  0  0
    6.6375    0.5465  -22.0495 C   0  0  0  0  0  0  0  0  0  0  0  0
    5.9322    8.8139  -21.5929 C   0  0  0  0  0  0  0  0  0  0  0  0
    6.5714    6.7608  -21.9208 C   0  0  0  0  0  0  0  0  0  0  0  0
    4.4002    3.2578  -18.9438 C   0  0  0  0  0  0  0  0  0  0  0  0
    6.9550    4.7959  -20.4707 C   0  0  0  0  0  0  0  0  0  0  0  0
    5.3653    3.3502  -22.4754 C   0  0  0  0  0  0  0  0  0  0  0  0
    7.1738    2.6786  -19.0590 C   0  0  0  0  0  0  0  0  0  0  0  0
    6.6600    5.2793  -21.9008 C   0  0  1  0  0  0  0  0  0  0  0  0
    6.9336    3.2567  -20.4606 C   0  0  1  0  0  0  0  0  0  0  0  0
    5.6010    2.7134  -21.0796 C   0  0  2  0  0  0  0  0  0  0  0  0
    5.1897   10.0047  -21.0457 C   0  0  0  0  0  0  0  0  0  0  0  0
    5.7373    7.4956  -21.2244 N   0  0  0  0  0  0  0  0  0  0  0  0
    4.4274    3.1537  -20.2557 N   0  3  0  0  0  0  0  0  0  0  0  0
    3.1831    3.5438  -18.3478 N   0  0  0  0  0  0  0  0  0  0  0  0
    7.2941    7.5571  -22.7443 O   0  0  0  0  0  0  0  0  0  0  0  0
    5.3964    4.7750  -22.3674 O   0  0  0  0  0  0  0  0  0  0  0  0
    5.6366   -2.9699  -21.7692 F   0  0  0  0  0  0  0  0  0  0  0  0
    7.6208    1.2427  -22.6685 F   0  0  0  0  0  0  0  0  0  0  0  0
    5.8175    3.0906  -17.8982 S   0  0  0  0  0  0  0  0  0  0  0  0
    3.8299    0.8388  -20.1018 H   0  0  0  0  0  0  0  0  0  0  0  0
    3.8477   -1.6198  -20.3972 H   0  0  0  0  0  0  0  0  0  0  0  0
    7.4018   -1.3246  -22.8000 H   0  0  0  0  0  0  0  0  0  0  0  0
    7.2994    9.7090  -23.0560 H   0  0  0  0  0  0  0  0  0  0  0  0
    7.9454    5.1552  -20.1546 H   0  0  0  0  0  0  0  0  0  0  0  0
    6.1882    5.1821  -19.7830 H   0  0  0  0  0  0  0  0  0  0  0  0
    6.1545    3.0187  -23.1662 H   0  0  0  0  0  0  0  0  0  0  0  0
    4.3845    3.0341  -22.8603 H   0  0  0  0  0  0  0  0  0  0  0  0
    7.2539    1.5842  -19.1361 H   0  0  0  0  0  0  0  0  0  0  0  0
    8.1151    3.0881  -18.6635 H   0  0  0  0  0  0  0  0  0  0  0  0
    7.4722    4.9480  -22.5646 H   0  0  0  0  0  0  0  0  0  0  0  0
    7.7549    2.9113  -21.1059 H   0  0  0  0  0  0  0  0  0  0  0  0
    4.4570    9.6684  -20.2973 H   0  0  0  0  0  0  0  0  0  0  0  0
    5.9033   10.6968  -20.5747 H   0  0  0  0  0  0  0  0  0  0  0  0
    4.6668   10.5189  -21.8654 H   0  0  0  0  0  0  0  0  0  0  0  0
    3.5895    3.3896  -20.7479 H   0  0  0  0  0  0  0  0  0  0  0  0
    3.1250    3.6493  -17.3551 H   0  0  0  0  0  0  0  0  0  0  0  0
    2.3624    3.6447  -18.9102 H   0  0  0  0  0  0  0  0  0  0  0  0
  1  2  2  0  0  0  0
  1  5  1  0  0  0  0
  2  6  1  0  0  0  0
  3  6  2  0  0  0  0
  3  7  1  0  0  0  0
  4  8  2  0  0  0  0
  4 21  1  0  0  0  0
  5  7  2  0  0  0  0
  5 16  1  0  0  0  0
  6 23  1  0  0  0  0
  7 24  1  0  0  0  0
  8 17  1  0  0  0  0
  8 18  1  0  0  0  0
  9 14  1  0  0  0  0
  9 18  2  0  0  0  0
  9 21  1  0  0  0  0
 10 19  2  0  0  0  0
 10 20  1  0  0  0  0
 10 25  1  0  0  0  0
 11 14  1  0  0  0  0
 11 15  1  0  0  0  0
 12 16  1  0  0  0  0
 12 22  1  0  0  0  0
 13 15  1  0  0  0  0
 13 25  1  0  0  0  0
 14 22  1  0  0  0  0
 15 16  1  0  0  0  0
 16 19  1  0  0  0  0
  1 26  1  0  0  0  0
  2 27  1  0  0  0  0
  3 28  1  0  0  0  0
  4 29  1  0  0  0  0
 11 30  1  0  0  0  0
 11 31  1  0  0  0  0
 12 32  1  0  0  0  0
 12 33  1  0  0  0  0
 13 34  1  0  0  0  0
 13 35  1  0  0  0  0
 14 36  1  0  0  0  0
 15 37  1  0  0  0  0
 17 38  1  0  0  0  0
 17 39  1  0  0  0  0
 17 40  1  0  0  0  0
 19 41  1  0  0  0  0
 20 42  1  0  0  0  0
 20 43  1  0  0  0  0
M  CHG  1  19   1
M  END
> <OMEGA_C>
GKSTQJ8TwD5odaXBHNyTQPg+gr+az6bB7zbUQOheWb90r7HBwSPdQF5iDUFJarTBHw20QDFXlz+P
IarBGDC0QF+M0L+c4azBGGbUQEfqCz9eZbDB9NS9QKkFDUEtvqzB/kjSQIlY2EDFXa/Bgc6MQFt/
UED2jJfBOo/eQCZ4mUD/w6PBe7CrQEFpVkCIzbPBLJDlQIhuK0DNeJjB8B7VQOPvqEDLNK/BI+Dd
QB5tUEBjr6PBGjuzQAioLUD/oqjBTBKmQDoTIEGAXajBnpe3QLbb70CEy6nBI62NQC3WSUC2C6LB
LLdLQO3MYkA9yJLBPGnpQKXT8UBZ9LXB6q6sQPLMmEBd8LLBI1+0QCwSPsBqJ67BX93zQD0Qnz8C
WbXB0Ci6QJ7MRUBwL4/BoB11QPq6Vj950KDBh0B2QJhUz79hLaPBMdvsQH+Mqb9uZrbBm5TpQOhX
G0GhcrjBykD+QKn3pECFPKHBZAXGQHHTpUCtQ57Bv/HEQCkzQUBsVLnB/U2MQHQvQkD54bbBlB/o
QLHIyj/GFpnBbdcBQaSjRUDwTpXBSRzvQL1VnkA1hLTB0Sf4QIxTOkDM2KjBo5+OQLWxGkHyYKLB
q+e8QDQmK0H5mKTBClaVQJBNKEFr7K7BlbllQKzvWECf+6XBJQBIQHqOaUAn14rB6TAXQDBCaUAB
SJfBdR/UQDfYID/8gLDBBTLXQAqgQL+zTLLBzdyXQPC+jb/2W6fBfkXdQE0cDUGjRbTBE/GyQBz3
lT9MEKrBMy25QHpsz78dra3BxzKUQPsEjT4gj6XBRr29QM+sDEH/qKzB1GHSQIOu10CQT6/BMX6M
QAZEU0DUaJfBGDHfQORbmEC53aPB1UyrQDRIVUC3s7PB2bLkQJylKUACdZjByULVQFE0qEC9Pq/B
DTDdQLQSTkDWtqPBguOxQMQZLUAjeKjBc/KlQLC3H0HMRajBo263QM8T70DXxqnBrQmNQENVTEB0
56HB4QpLQH0tZEAEk5LB6bTpQFpU8UAz0LXBXa2sQARCmEAd7LLBPzm8QADjPMBbUa/Bs0RlQESo
Lz/rkp/B7Su6QJrsSEDsI4/BmmLrQEUppT8iFLTBf53wQKDFkr8gO7fBs9CAQCEU5L/P2KPBrsHp
QOsaG0HgQ7jBM2X/QAz8okC3gaHBvnfHQPNqpUCJPp7B8NHEQJI9P0DBGbnB7AeMQGx2QUAA5bbB
bcTlQAnHxj+C8pjBZrwBQS+tQUA5a5XBwAjvQGLNnUAppbTB+/j2QNYyNkCQ6KjBAFyOQMBOGkG9
U6LBir28QM+9KkEMdKTBjF+VQFcDKEHT1a7BbwBlQDVwXUCQ1KXBoodHQJ0zakA1n4rBokcWQEBd
akAeCZfB

> <OMEGA_E>
TCuaPpBnrj4=

> <OMEGA_NBR>
    128095

$$$$
50329847
  -OEChem-04172616093D

 40 43  0     1  0  0  0  0  0999 V2000
    4.6232    0.4033  -20.6665 C   0  0  0  0  0  0  0  0  0  0  0  0
    4.6102   -0.9917  -20.8255 C   0  0  0  0  0  0  0  0  0  0  0  0
    6.6209   -0.8595  -22.1871 C   0  0  0  0  0  0  0  0  0  0  0  0
    6.7622    8.9711  -22.3493 C   0  0  0  0  0  0  0  0  0  0  0  0
    5.7395    8.8774  -21.4428 C   0  0  0  0  0  0  0  0  0  0  0  0
    5.6418    1.1972  -21.2626 C   0  0  0  0  0  0  0  0  0  0  0  0
    5.6055   -1.6225  -21.5879 C   0  0  0  0  0  0  0  0  0  0  0  0
    6.6472    0.5386  -22.0337 C   0  0  0  0  0  0  0  0  0  0  0  0
    6.5015    6.8514  -21.8929 C   0  0  0  0  0  0  0  0  0  0  0  0
    4.4204    3.2847  -18.9660 C   0  0  0  0  0  0  0  0  0  0  0  0
    6.9692    4.8427  -20.4968 C   0  0  0  0  0  0  0  0  0  0  0  0
    5.4111    3.3739  -22.4963 C   0  0  0  0  0  0  0  0  0  0  0  0
    7.1941    2.7154  -19.0826 C   0  0  0  0  0  0  0  0  0  0  0  0
    6.6460    5.3574  -21.9149 C   0  0  1  0  0  0  0  0  0  0  0  0
    6.9558    3.2935  -20.4864 C   0  0  1  0  0  0  0  0  0  0  0  0
    5.6267    2.7385  -21.0974 C   0  0  2  0  0  0  0  0  0  0  0  0
    7.2124    7.6862  -22.6103 N   0  0  0  0  0  0  0  0  0  0  0  0
    4.4517    3.1887  -20.2789 N   0  3  0  0  0  0  0  0  0  0  0  0
    3.1977    3.5425  -18.3677 N   0  0  0  0  0  0  0  0  0  0  0  0
    5.5877    7.5597  -21.1671 O   0  0  0  0  0  0  0  0  0  0  0  0
    5.4002    4.8063  -22.3860 O   0  0  0  0  0  0  0  0  0  0  0  0
    5.5821   -2.9630  -21.7525 F   0  0  0  0  0  0  0  0  0  0  0  0
    7.6423    1.2167  -22.6522 F   0  0  0  0  0  0  0  0  0  0  0  0
    5.8437    3.1537  -17.9235 S   0  0  0  0  0  0  0  0  0  0  0  0
    3.8490    0.8801  -20.0836 H   0  0  0  0  0  0  0  0  0  0  0  0
    3.8332   -1.5801  -20.3604 H   0  0  0  0  0  0  0  0  0  0  0  0
    7.3869   -1.3496  -22.7698 H   0  0  0  0  0  0  0  0  0  0  0  0
    7.1482    9.8819  -22.7827 H   0  0  0  0  0  0  0  0  0  0  0  0
    5.1665    9.6940  -21.0289 H   0  0  0  0  0  0  0  0  0  0  0  0
    7.9645    5.2015  -20.1958 H   0  0  0  0  0  0  0  0  0  0  0  0
    6.2146    5.2194  -19.7906 H   0  0  0  0  0  0  0  0  0  0  0  0
    6.2270    3.0659  -23.1666 H   0  0  0  0  0  0  0  0  0  0  0  0
    4.4498    3.0324  -22.9079 H   0  0  0  0  0  0  0  0  0  0  0  0
    7.2583    1.6197  -19.1556 H   0  0  0  0  0  0  0  0  0  0  0  0
    8.1420    3.1129  -18.6907 H   0  0  0  0  0  0  0  0  0  0  0  0
    7.4672    5.0784  -22.5915 H   0  0  0  0  0  0  0  0  0  0  0  0
    7.7792    2.9521  -21.1309 H   0  0  0  0  0  0  0  0  0  0  0  0
    3.6194    3.4376  -20.7743 H   0  0  0  0  0  0  0  0  0  0  0  0
    3.1393    3.6486  -17.3751 H   0  0  0  0  0  0  0  0  0  0  0  0
    2.3737    3.6225  -18.9285 H   0  0  0  0  0  0  0  0  0  0  0  0
  1  2  1  0  0  0  0
  1  6  2  0  0  0  0
  2  7  2  0  0  0  0
  3  7  1  0  0  0  0
  3  8  2  0  0  0  0
  4  5  2  0  0  0  0
  4 17  1  0  0  0  0
  5 20  1  0  0  0  0
  6  8  1  0  0  0  0
  6 16  1  0  0  0  0
  7 22  1  0  0  0  0
  8 23  1  0  0  0  0
  9 14  1  0  0  0  0
  9 17  2  0  0  0  0
  9 20  1  0  0  0  0
 10 18  2  0  0  0  0
 10 19  1  0  0  0  0
 10 24  1  0  0  0  0
 11 14  1  0  0  0  0
 11 15  1  0  0  0  0
 12 16  1  0  0  0  0
 12 21  1  0  0  0  0
 13 15  1  0  0  0  0
 13 24  1  0  0  0  0
 14 21  1  0  0  0  0
 15 16  1  0  0  0  0
 16 18  1  0  0  0  0
  1 25  1  0  0  0  0
  2 26  1  0  0  0  0
  3 27  1  0  0  0  0
  4 28  1  0  0  0  0
  5 29  1  0  0  0  0
 11 30  1  0  0  0  0
 11 31  1  0  0  0  0
 12 32  1  0  0  0  0
 12 33  1  0  0  0  0
 13 34  1  0  0  0  0
 13 35  1  0  0  0  0
 14 36  1  0  0  0  0
 15 37  1  0  0  0  0
 18 38  1  0  0  0  0
 19 39  1  0  0  0  0
 19 40  1  0  0  0  0
M  CHG  1  18   1
M  END
> <OMEGA_C>
9/CTQMB7zj7+VKXBEIeTQOTcfb+WmqbBJd7TQFgJXL83f7HBvWPYQH2JD0Foy7LBv6m3QAMKDkHR
iqvBiom0QOQ8mT/VGarBWGCzQPqtz78RtKzB37XUQMDkCT8XRbDB6gvQQGs+20CTJK/B3HONQBo4
UkBKupfBYwPfQFD3mkBe+aPBVCetQLjuV0CA+LPBbDbmQFbILUAeqZjBEKzUQABwq0DOUa/BrZXe
QObHUkAM5KPBww20QKBDL0Bgx6jBlsvmQJf19UDn4bTBAXSOQJgTTEBHO6LBoqdMQHC4YkAc8ZLB
Ts6yQETp8UA/VqnBCs6sQBbNmUCbFrPBbKCyQDSiPcAnBa7B2o30QAq9mz/FN7XBxP+6QEbWSUBP
Y4/BnFZ2QEFMYT8oq6DBoVN1QPdByr8C4qLBYGHsQCK+rL97KLbBQ77kQCscHkHnQrbBzlOlQMEa
G0FEO6jBBN3+QOJypkD6kKHB293GQBwFp0ATU57B6EPHQJQ3REA4VbnBtWSOQI4TQkBTQ7fB80Po
QMRQzz+TPpnBmkUCQfc4R0CHhpXBMfPuQAGCokB8u7TBL+/4QKvuPEAODKnBnaRnQPkBXEDYMabB
gelIQCaDaUAzAIvBEOoXQPfWZ0CnbZfB3feSQKx2wT4ZIqXB7haSQGtPgr+FSKbBCnbSQATga79M
MbHBDXW7QP5rDUF7zKvBS/jaQMeiDkG8Y7PBLtmzQK6+kz+u9qnB6L6xQBBq1b+VUazB2cnTQHmp
9D5cFLDBG83QQIaP2UAZH6/BOXCNQGQRUUA4wZfBckbfQGAvmUA466PBdn+tQOXEVEBn+rPBZSbm
QL84KkCGoJjBDCXVQHi/qUA2R6/BJpfeQHJaT0A42qPBm/SzQCqKLEDcvqjBnqa1QKT070AHXanB
0n6OQM2ZSkCTQKLBohNNQHhwZEA8BpPBVdjnQKKs9ECDXLXBBGCtQG48mECjKLPBNKCwQDCeQMA5
eq3B8/HzQIrVkT/lC7XBy5a6QGCLREDVWI/BuK90QD2AXj+HhKDB9wdyQGHxy7+hhKLBeMPqQOx2
tr+L07XBD0iqQNe6GkEKWKjBKy/nQI0CHUFLFrfBeyf/QBJ/pEADfKHBXB/HQAxXpUDPSJ7BfrbH
QMeHQEAqR7nBwMaOQOUZP0DqT7fBdrXoQJVfyD/AQJnBnR4CQZRiRECOcJXBTIvvQCW9oEBFpbTB
Z934QKhAOUARBKnBMA5oQMgqW0BGPqbB1CNJQNvwakC6FIvB9tkYQOzra0CPjZfBQM3UQDy4Hj9E
TbDBELDWQHYZQ783PLLBBP+WQJCVir+pYKfBDBnYQMAlD0EDtbLBy+W2QImODUE+mKvBor+zQLGT
lz8J8anBka63QMNpzr+DzK3BE3qUQCbTmT76cqXBovTPQIVu2kBzE6/B+DGNQFshVEBklJfB2x/f
QNcSmkDO7aPBnh6tQBZIVkCH1LPBIuXlQDkoLECBl5jBSc7UQMemqkDsRK/B0/jdQMftUECO0qPB
ivqyQNiHLkBRi6jBiuPmQHFF9UAGu7TBXQuOQGROTkCAFKLB8GpMQMLNZUDlyZLB6jqyQDPu8ECI
YanBYg6tQK8GmUB1G7PB7Qy5QGAvPMCKwK/B8H1mQGLzOD/1Zp/BUnK6QEATRkA1PI/B/+rsQBD8
oT9mtrPB5/vvQBDNlb8eIrfBYA1/QHA5378c4aPBN4PkQG3BHUF0H7bBHiCkQK+QGkHVYajBqC//
QLIZpUBZkKHBdUTHQFWDpkA2QZ7BqJHHQHafQUDwB7nB7YmOQNCPQEAsPbfBKazoQDpKzD/4MpnB
ivwBQZHJRkBqdZXBLC/vQPjmoUB7q7TB++j3QIQ0OkCyDKnBRqpnQMSkYEA7DqbBhl5IQApOakAU
04rB0C4YQFkPbkBiS5fBrJnTQP2ODj+yIbDBCdDVQFBjVb9RmbHBkZSVQK4Ajr853KbBuVq7QLUt
DUEY2KvBc4vcQB6FDkGx97LBWGqyQP6qkj949qnBjO22QMpb1b+06KzBMLKSQPZ1kD7gaaXB0unQ
QOYW2UCgJ6/BqzmNQBj+UkANrpfBcpHfQCZDmECaJKTBZKesQBHCU0Bk+rPBnKXlQDfTKEBpy5jB
YQHVQOQsqUD6cK/BDLvdQMdyTUDVCKTB7l2yQK4vLEDIr6jBus60QItZ70BMpqnBUdqNQPZKTUC3
LqLB4NFMQHpkZUDL2JLBSpDpQE949ECp7bTBVgutQL/Wl0BIRbPBRhC5QLBWQMDEQq7BlIdhQFQU
Oz9KvZ/B56W6QK65REBQZY/B747rQI1EmD8owrPBDUXvQNF4ob+XVbbBy8R7QPa44L9cR6PBH4yp
QBBvGkGviqjBSMbpQGH3HEEyXbbB6uL/QIvOokAv3KHBHCTIQO/+pEDmZZ7BnPrGQOx+PkApLrnB
Q/SNQAGTPkBsX7fBDcnnQN1mxT8yXJnBnQQCQc2BQkDhuZXBCS7vQA5JoECw47TBb2b3QJDsNUAB
SqnBAIdnQDy0YEDxIKbBYCpJQE9KakAm4orBA28YQAHHbUBHUpfB

> <OMEGA_E>
8MGYPhjkpz7AEKk+gGi4Pg==

> <OMEGA_NBR>
    131269

$$$$
303942
  -OEChem-04172616093D

 63 66  0     1  0  0  0  0  0999 V2000
    5.6226   -1.4994  -22.0086 C   0  0  0  0  0  0  0  0  0  0  0  0
    6.6945   -0.7029  -22.4344 C   0  0  0  0  0  0  0  0  0  0  0  0
    4.7084    0.3856  -20.7672 C   0  0  0  0  0  0  0  0  0  0  0  0
    7.3524    7.6293  -22.8164 C   0  0  0  0  0  0  0  0  0  0  0  0
    5.6816    7.5840  -21.2437 C   0  0  0  0  0  0  0  0  0  0  0  0
    5.7365    1.2219  -21.2420 C   0  0  0  0  0  0  0  0  0  0  0  0
    6.5553    6.7758  -21.9168 C   0  0  0  0  0  0  0  0  0  0  0  0
    4.6539   -0.9551  -21.1478 C   0  0  0  0  0  0  0  0  0  0  0  0
    6.7633    0.6493  -22.0565 C   0  0  0  0  0  0  0  0  0  0  0  0
    4.3604    3.2189  -18.8769 C   0  0  0  0  0  0  0  0  0  0  0  0
    6.9068    4.8550  -20.3759 C   0  0  0  0  0  0  0  0  0  0  0  0
    5.3829    3.3575  -22.3881 C   0  0  0  0  0  0  0  0  0  0  0  0
    7.1476    2.7432  -18.9308 C   0  0  0  0  0  0  0  0  0  0  0  0
    6.6392    5.2965  -21.8297 C   0  0  1  0  0  0  0  0  0  0  0  0
    6.9326    3.3167  -20.3396 C   0  0  1  0  0  0  0  0  0  0  0  0
    5.6399    2.7314  -20.9919 C   0  0  2  0  0  0  0  0  0  0  0  0
    5.1792   -4.2238  -18.1366 C   0  0  0  0  0  0  0  0  0  0  0  0
    5.2477   10.0343  -21.2832 C   0  0  0  0  0  0  0  0  0  0  0  0
    8.1409   -1.0073  -17.7818 C   0  0  0  0  0  0  0  0  0  0  0  0
    3.6789   -1.8395  -20.4500 C   0  0  0  0  0  0  0  0  0  0  0  0
    6.7859   -2.5135  -19.0898 C   0  0  0  0  0  0  0  0  0  0  0  0
    5.3799   -3.1660  -19.2307 C   0  0  2  0  0  0  0  0  0  0  0  0
    6.9659    8.8734  -22.6524 N   0  0  0  0  0  0  0  0  0  0  0  0
    5.9909    8.8334  -21.7080 N   0  0  0  0  0  0  0  0  0  0  0  0
    4.4247    3.1079  -20.1870 N   0  3  0  0  0  0  0  0  0  0  0  0
    3.1227    3.4814  -18.3111 N   0  0  0  0  0  0  0  0  0  0  0  0
    4.2676   -2.1808  -19.1383 N   0  3  0  0  0  0  0  0  0  0  0  0
    5.3833    4.7760  -22.2892 O   0  0  0  0  0  0  0  0  0  0  0  0
    6.9226   -1.7774  -17.8601 O   0  0  0  0  0  0  0  0  0  0  0  0
    7.7981    1.3759  -22.5382 F   0  0  0  0  0  0  0  0  0  0  0  0
    5.7540    3.1016  -17.8002 S   0  0  0  0  0  0  0  0  0  0  0  0
    5.5416   -2.5242  -22.3397 H   0  0  0  0  0  0  0  0  0  0  0  0
    7.4695   -1.1290  -23.0542 H   0  0  0  0  0  0  0  0  0  0  0  0
    3.9562    0.7851  -20.1032 H   0  0  0  0  0  0  0  0  0  0  0  0
    8.1220    7.2897  -23.4938 H   0  0  0  0  0  0  0  0  0  0  0  0
    4.9297    7.3041  -20.5208 H   0  0  0  0  0  0  0  0  0  0  0  0
    7.8755    5.2520  -20.0382 H   0  0  0  0  0  0  0  0  0  0  0  0
    6.1078    5.2300  -19.7194 H   0  0  0  0  0  0  0  0  0  0  0  0
    6.1753    3.0399  -23.0819 H   0  0  0  0  0  0  0  0  0  0  0  0
    4.4071    3.0184  -22.7661 H   0  0  0  0  0  0  0  0  0  0  0  0
    7.2651    1.6523  -19.0093 H   0  0  0  0  0  0  0  0  0  0  0  0
    8.0642    3.1813  -18.5089 H   0  0  0  0  0  0  0  0  0  0  0  0
    7.4591    4.9348  -22.4676 H   0  0  0  0  0  0  0  0  0  0  0  0
    7.7812    2.9899  -20.9585 H   0  0  0  0  0  0  0  0  0  0  0  0
    4.1836   -4.6791  -18.2442 H   0  0  0  0  0  0  0  0  0  0  0  0
    5.9505   -5.0021  -18.2332 H   0  0  0  0  0  0  0  0  0  0  0  0
    5.2599   -3.7484  -17.1479 H   0  0  0  0  0  0  0  0  0  0  0  0
    5.6124   10.9086  -21.8423 H   0  0  0  0  0  0  0  0  0  0  0  0
    4.1756    9.8920  -21.4839 H   0  0  0  0  0  0  0  0  0  0  0  0
    5.4006   10.1980  -20.2062 H   0  0  0  0  0  0  0  0  0  0  0  0
    8.1772   -0.4741  -16.8203 H   0  0  0  0  0  0  0  0  0  0  0  0
    9.0065   -1.6816  -17.8598 H   0  0  0  0  0  0  0  0  0  0  0  0
    8.1679   -0.2792  -18.6059 H   0  0  0  0  0  0  0  0  0  0  0  0
    2.7237   -1.3122  -20.3097 H   0  0  0  0  0  0  0  0  0  0  0  0
    3.5101   -2.7538  -21.0379 H   0  0  0  0  0  0  0  0  0  0  0  0
    7.5484   -3.3059  -19.1152 H   0  0  0  0  0  0  0  0  0  0  0  0
    6.9435   -1.8258  -19.9338 H   0  0  0  0  0  0  0  0  0  0  0  0
    5.3326   -3.6668  -20.2090 H   0  0  0  0  0  0  0  0  0  0  0  0
    3.5845    3.2916  -20.6973 H   0  0  0  0  0  0  0  0  0  0  0  0
    3.0399    3.5980  -17.3214 H   0  0  0  0  0  0  0  0  0  0  0  0
    2.3124    3.5543  -18.8926 H   0  0  0  0  0  0  0  0  0  0  0  0
    4.6194   -1.3431  -18.7205 H   0  0  0  0  0  0  0  0  0  0  0  0
    3.5495   -2.5662  -18.5587 H   0  0  0  0  0  0  0  0  0  0  0  0
  1  2  2  0  0  0  0
  1  8  1  0  0  0  0
  2  9  1  0  0  0  0
  3  6  1  0  0  0  0
  3  8  2  0  0  0  0
  4  7  1  0  0  0  0
  4 23  2  0  0  0  0
  5  7  2  0  0  0  0
  5 24  1  0  0  0  0
  6  9  2  0  0  0  0
  6 16  1  0  0  0  0
  7 14  1  0  0  0  0
  8 20  1  0  0  0  0
  9 30  1  0  0  0  0
 10 25  2  0  0  0  0
 10 26  1  0  0  0  0
 10 31  1  0  0  0  0
 11 14  1  0  0  0  0
 11 15  1  0  0  0  0
 12 16  1  0  0  0  0
 12 28  1  0  0  0  0
 13 15  1  0  0  0  0
 13 31  1  0  0  0  0
 14 28  1  0  0  0  0
 15 16  1  0  0  0  0
 16 25  1  0  0  0  0
 17 22  1  0  0  0  0
 18 24  1  0  0  0  0
 19 29  1  0  0  0  0
 20 27  1  0  0  0  0
 21 22  1  0  0  0  0
 21 29  1  0  0  0  0
 22 27  1  0  0  0  0
 23 24  1  0  0  0  0
  1 32  1  0  0  0  0
  2 33  1  0  0  0  0
  3 34  1  0  0  0  0
  4 35  1  0  0  0  0
  5 36  1  0  0  0  0
 11 37  1  0  0  0  0
 11 38  1  0  0  0  0
 12 39  1  0  0  0  0
 12 40  1  0  0  0  0
 13 41  1  0  0  0  0
 13 42  1  0  0  0  0
 14 43  1  0  0  0  0
 15 44  1  0  0  0  0
 17 45  1  0  0  0  0
 17 46  1  0  0  0  0
 17 47  1  0  0  0  0
 18 48  1  0  0  0  0
 18 49  1  0  0  0  0
 18 50  1  0  0  0  0
 19 51  1  0  0  0  0
 19 52  1  0  0  0  0
 19 53  1  0  0  0  0
 20 54  1  0  0  0  0
 20 55  1  0  0  0  0
 21 56  1  0  0  0  0
 21 57  1  0  0  0  0
 22 58  1  0  0  0  0
 25 59  1  0  0  0  0
 26 60  1  0  0  0  0
 26 61  1  0  0  0  0
 27 62  1  0  0  0  0
 27 63  1  0  0  0  0
M  CHG  2  25   1  27   1
M  END
> <OMEGA_C>
YeyzQE7tv7+1EbDBrDnWQC3vM7+YebPBiquWQDVoxT5PI6bBGkfrQFwj9ED5h7bBts+1QHCw8kAT
86nBAZG3QN9nnD+k76nB9sTRQIvT2ECtVa/BY+yUQG2BdL+mLqnB3GzYQIw5Jj+hc7DBUoiLQNUC
TkDcA5fBvgTdQAxcm0DmAaPBxUCsQCzhVkDoGrPBhLnkQLWQL0A4cpfBHHTUQAN9qUAko67BqNfd
QDtEVEBpt6LBAXq0QNXPLkCC76fBDLylQGwph8CuF5HBeO2nQICMIEH3Q6rBT0ECQYbugL8dQY7B
pXJrQGhz67+ZmaPB0SXZQCfdIMD8t5jBPSisQPefSsCN2JnBxOjeQJr5DUEjOLXBM7W/QKtVDUH4
qa3BHpeNQBjoRkAHf6HBz9lHQO7PXkAYfZLB8o+IQNeSC8A0G5nB8EOsQPXUmEBEULLBM4bdQECD
479z4Y7BWor5QDIcsD9PTrTBkCC4QNGARkDPZo7BlFSxQO6MIcDLt7LBEQbvQKCEkL8Qb7jBDjN9
QIL/SD9k06DBn/MBQXBF6UBL87vB57+dQC676UCAKqTB8gP8QJ4QqEA0TqDBYnPDQABcp0BlwZ3B
EpzFQPONQkCnp7jBGweNQPEsQUDnILbB9nvoQFZ/0z8WE5jBJQcBQRiaS0BQEpTBj7DuQOPpnUCj
vbPBpv/4QIRaP0DwqqfBYOCFQP26lcAP9JHB0Gq+QPsQoMCp3ZHBPFGoQFflb8DnLonBuZizQM2J
LkHuvK7Bm56FQINFHkEH36vBk9GsQCsrI0FdpqHBnNUCQdy88r4LkIbBqBoQQdk+17/Z4I7BzK8C
Qfnzjr7r2JTBGFEuQBj3p79aeqLBKKZgQKE9MMCKTajBdIzxQPGTU8Dc65jBRjHeQHS06b9jeJ/B
faSqQMysasACrKHBpWhlQN2oUkAKlKXBOI5CQMZFZkAgkorBPf4TQFN5Y0ADJJfBzdGTQBTsq7+p
w5XBqytjQEE9JMBAeJTBmLG0QA4K0r/OUq3B+WzTQDoCWL+oc7LB722ZQDZRoT40+6PBQVHyQM+H
90CHvrLB3zOqQJSv8kB8oa/B+gy2QIjUkz/ytKnB6jjOQCT52UDjurDBk3iZQPKSib98j6XBHYjU
QMhCCz+KqbDBhsqMQOlQT0AzZJfB+4HcQNG6m0ACkaTBdpWpQC8xU0DUyrPBBGLmQMvAMkAXjJjB
NzjRQGjgqUD/F7DBq1zdQHkpVEBq8KPBJiizQN5yLEBJiajBB5iuQPXMAcBnbIvBAvqcQBjcIEFq
FrDBdV8VQaVtR8ABBJrBYEl2QNTn9798Dp/B3l3eQCDkO8AIRprBdUq0QBXDSMAx85PBr5/jQCF8
D0Hz5LLBJ+u4QD7aDUG8HLHBTkCNQBXsRUBK3aHBwJBLQB6TX0DzhJLBTK6OQKehTsBbdJvBD8Wo
QOiCl0D0PbPBJaEBQbJwVMC7OpTBLV7yQBDyoT+C/bXBj7u6QAtISkDKKY/BOOexQCgHLMAeU6/B
01fqQM8vpr+9zLfBD1ODQPJ8QD9fVZ7BuqQJQZBB7kCF5rPBg+OJQDZX6EDr/K3BRib8QPdwqEAh
YqLBVkzEQMcqqEBu/J7BAKjCQMD/PkD9bbnBFFKKQKDqO0DVmbbB3t3qQHf62T+w6pjBSO0BQUkA
UUAPkpXBQK3qQIHNnkAJgbXB2Ln3QJgxPkA3FanBPIWQQFhTDMAmC4fB853JQH6xA8ARyoXBEput
QGrjhb8AYY/BFEewQH53L0Ga/bDBizuEQKlrIEGyV7bB26KNQNrRIEHQKqjBhfMiQWlRW8DF/5TB
xSoVQc3EbcA5ZaHBnAgXQblHA8C7D5zBy1diQJpJr7//8JfB0t09QKt+CsD5/qPB9AvdQDLUYsD7
mKHB+krhQP3H779KbpzBa+K2QI0Mg8D2rY/B15BjQMrEUEDwvKXBn5hIQOICaEAMmYrBcUAWQA7e
YkAP7ZbBDatvQPFccMBXxJfBx16YQCAabsBb/KHB

> <OMEGA_E>
biMMP9ovFj8=

> <OMEGA_NBR>
    133627

$$$$
303940
  -OEChem-04172616093D

 55 58  0     1  0  0  0  0  0999 V2000
    5.6884   -1.5489  -21.7643 C   0  0  0  0  0  0  0  0  0  0  0  0
    6.7061   -0.7507  -22.2971 C   0  0  0  0  0  0  0  0  0  0  0  0
    4.6717    0.4113  -20.7386 C   0  0  0  0  0  0  0  0  0  0  0  0
    7.3372    7.6397  -22.8367 C   0  0  0  0  0  0  0  0  0  0  0  0
    5.7456    7.5898  -21.1837 C   0  0  0  0  0  0  0  0  0  0  0  0
    5.6829    1.2340  -21.2700 C   0  0  0  0  0  0  0  0  0  0  0  0
    6.5724    6.7818  -21.9139 C   0  0  0  0  0  0  0  0  0  0  0  0
    4.6715   -0.9598  -20.9933 C   0  0  0  0  0  0  0  0  0  0  0  0
    6.7062    0.6353  -22.0699 C   0  0  0  0  0  0  0  0  0  0  0  0
    4.3668    3.2117  -18.9005 C   0  0  0  0  0  0  0  0  0  0  0  0
    6.9220    4.8320  -20.4134 C   0  0  0  0  0  0  0  0  0  0  0  0
    5.3469    3.3856  -22.4295 C   0  0  0  0  0  0  0  0  0  0  0  0
    7.1498    2.6987  -19.0019 C   0  0  0  0  0  0  0  0  0  0  0  0
    6.6409    5.3008  -21.8555 C   0  0  1  0  0  0  0  0  0  0  0  0
    6.9218    3.2948  -20.4019 C   0  0  1  0  0  0  0  0  0  0  0  0
    5.6073    2.7464  -21.0411 C   0  0  2  0  0  0  0  0  0  0  0  0
    5.3639   10.0478  -21.1422 C   0  0  0  0  0  0  0  0  0  0  0  0
    3.5835   -1.8010  -20.4269 C   0  0  0  0  0  0  0  0  0  0  0  0
    3.2949   -3.8412  -19.0620 C   0  0  0  0  0  0  0  0  0  0  0  0
    2.3682   -3.3360  -17.9345 C   0  0  0  0  0  0  0  0  0  0  0  0
    6.9694    8.8847  -22.6406 N   0  0  0  0  0  0  0  0  0  0  0  0
    6.0163    8.8376  -21.6745 N   0  0  0  0  0  0  0  0  0  0  0  0
    4.4150    3.1488  -20.2147 N   0  3  0  0  0  0  0  0  0  0  0  0
    3.1348    3.4473  -18.3106 N   0  0  0  0  0  0  0  0  0  0  0  0
    4.2177   -2.7954  -19.5462 N   0  0  0  0  0  0  0  0  0  0  0  0
    5.3732    4.8043  -22.3145 O   0  0  0  0  0  0  0  0  0  0  0  0
    7.6807    1.3603  -22.6662 F   0  0  0  0  0  0  0  0  0  0  0  0
    1.6650   -4.3950  -17.4611 F   0  0  0  0  0  0  0  0  0  0  0  0
    3.1139   -2.8051  -16.9270 F   0  0  0  0  0  0  0  0  0  0  0  0
    1.4831   -2.4030  -18.3790 F   0  0  0  0  0  0  0  0  0  0  0  0
    5.7773    3.0720  -17.8470 S   0  0  0  0  0  0  0  0  0  0  0  0
    5.6841   -2.6137  -21.9446 H   0  0  0  0  0  0  0  0  0  0  0  0
    7.4930   -1.2008  -22.8842 H   0  0  0  0  0  0  0  0  0  0  0  0
    3.8917    0.8444  -20.1300 H   0  0  0  0  0  0  0  0  0  0  0  0
    8.0735    7.3022  -23.5511 H   0  0  0  0  0  0  0  0  0  0  0  0
    5.0482    7.3106  -20.4078 H   0  0  0  0  0  0  0  0  0  0  0  0
    7.9021    5.2072  -20.0838 H   0  0  0  0  0  0  0  0  0  0  0  0
    6.1392    5.2100  -19.7393 H   0  0  0  0  0  0  0  0  0  0  0  0
    6.1268    3.0609  -23.1341 H   0  0  0  0  0  0  0  0  0  0  0  0
    4.3617    3.0665  -22.8005 H   0  0  0  0  0  0  0  0  0  0  0  0
    7.2453    1.6068  -19.0948 H   0  0  0  0  0  0  0  0  0  0  0  0
    8.0809    3.1144  -18.5890 H   0  0  0  0  0  0  0  0  0  0  0  0
    7.4498    4.9427  -22.5093 H   0  0  0  0  0  0  0  0  0  0  0  0
    7.7543    2.9620  -21.0393 H   0  0  0  0  0  0  0  0  0  0  0  0
    5.7719   10.9366  -21.6459 H   0  0  0  0  0  0  0  0  0  0  0  0
    4.2804    9.9895  -21.3224 H   0  0  0  0  0  0  0  0  0  0  0  0
    5.5525   10.1204  -20.0609 H   0  0  0  0  0  0  0  0  0  0  0  0
    2.8857   -1.1766  -19.8497 H   0  0  0  0  0  0  0  0  0  0  0  0
    3.0382   -2.3078  -21.2367 H   0  0  0  0  0  0  0  0  0  0  0  0
    3.8877   -4.6854  -18.6798 H   0  0  0  0  0  0  0  0  0  0  0  0
    2.6736   -4.1809  -19.9038 H   0  0  0  0  0  0  0  0  0  0  0  0
    3.5812    3.3911  -20.7107 H   0  0  0  0  0  0  0  0  0  0  0  0
    3.0646    3.5331  -17.3167 H   0  0  0  0  0  0  0  0  0  0  0  0
    2.3162    3.5316  -18.8788 H   0  0  0  0  0  0  0  0  0  0  0  0
    4.9574   -3.2383  -20.0529 H   0  0  0  0  0  0  0  0  0  0  0  0
  1  2  2  0  0  0  0
  1  8  1  0  0  0  0
  2  9  1  0  0  0  0
  3  6  1  0  0  0  0
  3  8  2  0  0  0  0
  4  7  1  0  0  0  0
  4 21  2  0  0  0  0
  5  7  2  0  0  0  0
  5 22  1  0  0  0  0
  6  9  2  0  0  0  0
  6 16  1  0  0  0  0
  7 14  1  0  0  0  0
  8 18  1  0  0  0  0
  9 27  1  0  0  0  0
 10 23  2  0  0  0  0
 10 24  1  0  0  0  0
 10 31  1  0  0  0  0
 11 14  1  0  0  0  0
 11 15  1  0  0  0  0
 12 16  1  0  0  0  0
 12 26  1  0  0  0  0
 13 15  1  0  0  0  0
 13 31  1  0  0  0  0
 14 26  1  0  0  0  0
 15 16  1  0  0  0  0
 16 23  1  0  0  0  0
 17 22  1  0  0  0  0
 18 25  1  0  0  0  0
 19 20  1  0  0  0  0
 19 25  1  0  0  0  0
 20 28  1  0  0  0  0
 20 29  1  0  0  0  0
 20 30  1  0  0  0  0
 21 22  1  0  0  0  0
  1 32  1  0  0  0  0
  2 33  1  0  0  0  0
  3 34  1  0  0  0  0
  4 35  1  0  0  0  0
  5 36  1  0  0  0  0
 11 37  1  0  0  0  0
 11 38  1  0  0  0  0
 12 39  1  0  0  0  0
 12 40  1  0  0  0  0
 13 41  1  0  0  0  0
 13 42  1  0  0  0  0
 14 43  1  0  0  0  0
 15 44  1  0  0  0  0
 17 45  1  0  0  0  0
 17 46  1  0  0  0  0
 17 47  1  0  0  0  0
 18 48  1  0  0  0  0
 18 49  1  0  0  0  0
 19 50  1  0  0  0  0
 19 51  1  0  0  0  0
 23 52  1  0  0  0  0
 24 53  1  0  0  0  0
 24 54  1  0  0  0  0
 25 55  1  0  0  0  0
M  CHG  1  23   1
M  END
> <OMEGA_C>
rAe2QPBBxr9AHa7BtpjWQKAqQL+KYLLBvH6VQMiT0j6S6KXBnMrqQA549EB/sbbB/Nu3QJXf8kAt
eKnBYNq1QEH1nT/+KKrB2FDSQHME2UCwT6/B0nyVQBK1db9O8qfB3JjWQDChIj8Tj7DBoLyLQH2M
TUBQNJfBBoHdQBegmkCRTqPBCBqrQNusWECgb7PBhMvkQEy4LEDMA5jBfILUQBSgqUAK2K7Bqn/d
QAreUkAQN6PBVm+zQJbEL0A+VKjBeKWrQPTDIEFMI6nB11dlQB2I5r9KaqPBOuBSQAbXdcAEf5jB
8Y8XQBSBVcDHeY/BkgXfQKMnDkHvH7XBoIXAQKBmDUFlZa3B2keNQKCFSUDNt6HBc6BIQFShXEAN
fJLBUveGQPHnMsCvXpzB3PCrQK+8mUAdhLLB6sf1QAsfrj9kVLXBvh3VP76jjMBBsIvBmUlHQC6G
M8B3aofBlNW9P9fKGcA/CJPBWt+4QGqcRECSxo7BZ+S1QDNHJ8CGjq/BucbvQMizmb/IErfB6xB5
QAosWD9UCqHBCS0BQZ6r6UCyaLzBpYqhQIzw6UAYQ6PBNN78QFOhpkCaq6DBJXTEQPS3pkAS6p3B
iA7EQI/lQ0CbErnBa5OLQAZBREBUZ7bBq9nnQDitzT8mwpjBQksBQXFSR0BdtpTBD2XuQIAqnkD8
ErTB2CL4QL+QPUB7UKjBurO4QDL8LkHZKq3ByviIQAjVH0E/lKrBCK6xQEztIUHSfKDBr644QDOc
lr8lzJ7BZ3FCQASzE8DP5KnBO9B4QKrulcBTcJXBhxwrQKTJhcAFO5/B7TFlQMwHWUCHr6XBpCFE
QIgdYkCqiIrBWj0UQHIGYkDDB5fBIaOeQNc/T8BHbKDBPpm1QLSqxr9O6q3Bx9TWQFDGQ796CbLB
PmqUQBBo3D7HQ6bBQsLrQKyu9ED9Y7bBTPG1QP+W8kC756nBXrq1QHBunj/GMKrBsD/SQIAO2UCd
Ra/B/gqUQNiXcL+dQajB8PHWQMQbID8bWLDBmciLQC8bTUCrNJfBV23dQJG3mkBLJaPBTNOrQLi0
WECxbrPBDN7kQMfAK0BY+ZfB5N/UQOS3qUDBt67BVpbdQM/qUkBVH6PBW6ezQE3vL0ASUKjBFCOq
QGCkIEEXb6nBwDBkQF7q4L/oIKPBvNZTQD3+P8BaG5LBBX2CQOd6isAHsJPBJ+neQIMsDkGbF7XB
eQy/QMJNDUH3tq3BbHyNQBoLSkB5uaHBu+JIQDA8XUC0f5LBBWx+QI40879f1pfBJIysQHi1mUD1
gbLBQ9b2QBqJqz/V67TBLK9ZQGMDqsBPj47BkCKGQP5KlcBgMZ7BuXKqQNH4hsAxco/BWpi4QEzo
QEBzu47BSsa1QFTSJ8B5FK/B2GfwQKQAnb/JhbbBkcV1QMN1YD/5qaHBCVwCQRse6kBKwLvBACme
QMZl6UCbEqTBxJ/8QJjPpkCXaaDBGBfEQJOlpkB70J3BpBDFQCsBREBo/rjB5nWMQOgsREBMfrbB
j4noQG4qzD/c15jBSC0BQbH3RkAulJTBBwrvQF9cnkDd37PBa0v4QDomPkC1O6jBJma4QKTvLkHS
IK3BCLmHQBIdIEGSQ6vBq62uQJ5NIUG5tqDBcvklQEqbn79vrKPBY8VfQImWL8DV+6bBDVISQMxS
R8CNMZXBanVRQO60MMCfhYnBUvllQP6UWkBMtKXBoy5EQAygYUAUiorBa9IUQFN7ZED4D5fBYMee
QGL3A8Dxo5fBnGGxQDRcyL9AvK3BprqQQD2agL+ciafBWEHTQDw6HT90R6/BbnfrQNn59kDWC7bB
aIK0QPZZ8EAl/6nBpO2xQNk0mz93V6nBUJDSQD7j2EBGZ6/BGmfSQMT0P78jtbHB2vePQLXdwD6Q
hqXBduiMQP/MUUA5UpfBxoDgQFyMmUC9wqPBlFyuQEvMVEBeobPB5PjlQKvHK0B7MZjB7C7XQNtA
qUCoRa/BNnXeQDJHUEBQdqPB7BCzQFDKL0CDLajBgBCiQNr8HkE8qanBFkn3QEI0rr/ms7fBMlgG
Qe81KcC7cqfB+XcZQWw+QsCChqDBmKjcQPnmDkGWbrTB5pS8QIfADEFtMK3BaMiOQO7AUkCs0qHB
ZQNKQCISW0BsopLB9O8MQfq32b9cFbDBonCvQOEfmEDeP7PBZ9laQNA8WD8sOaDBao8SQfdjdsDN
iJjB9CgoQQs2bMAyl6bBnHIiQfav9b+ZM5zBDvi5QCNBRED+547BBjuxQC3lJ8DSd6/BzuZvQHGm
0b9wR6TBu8XtQKgCnD9D+7HBhbkCQcGD7kD/VbvBaj+cQLsY5UBNhqTBCEsAQZs4pEBSUKHBZHzI
QNnWpkB2QJ7BTNTIQNaCPUANprjBUrWPQKXIP0BAEbfBWUPpQPu1yz9JzJjB89sBQUA5R0AZ+ZTB
KtzxQHzAn0C5f7TBUh34QBv3N0APqqjBFamsQIqgLUHrw63BHFWAQELXG0F4n6vBRW+lQIMUIUHW
9qDBQXfsQLOEEcBNzbvB2K4BQVVqJL8CpL3Blgr/QIYrY8CxGKvB1Wb0QEUwCsAXZaLBJXdsQCCo
bEDCzaXBA0lEQOgFWkDrqorBLiIWQHnPYkDSN5fBhe8YQWGfB8A5L7TB

> <OMEGA_E>
0NX+PjCt/j6QoAQ/

> <OMEGA_NBR>
    136663

$$$$
50093281
  -OEChem-04172616093D

 37 39  0     1  0  0  0  0  0999 V2000
    5.1350    0.1017  -20.4147 C   0  0  0  0  0  0  0  0  0  0  0  0
    7.0596   -0.7972  -22.2527 C   0  0  0  0  0  0  0  0  0  0  0  0
    5.5194   -3.1986  -18.9008 C   0  0  0  0  0  0  0  0  0  0  0  0
    3.3875   -2.1421  -19.3321 C   0  0  0  0  0  0  0  0  0  0  0  0
    3.5727   -3.9370  -17.8456 C   0  0  0  0  0  0  0  0  0  0  0  0
    5.4311   -1.2739  -20.5051 C   0  0  0  0  0  0  0  0  0  0  0  0
    4.7717   -2.2187  -19.5845 C   0  0  0  0  0  0  0  0  0  0  0  0
    5.8053    1.0509  -21.2308 C   0  0  0  0  0  0  0  0  0  0  0  0
    6.3858   -1.7236  -21.4447 C   0  0  0  0  0  0  0  0  0  0  0  0
    6.7938    0.5778  -22.1401 C   0  0  0  0  0  0  0  0  0  0  0  0
    4.2803    3.1220  -18.9516 C   0  0  0  0  0  0  0  0  0  0  0  0
    6.7715    3.2880  -20.4469 C   0  0  0  0  0  0  0  0  0  0  0  0
    7.0828    2.7600  -19.0433 C   0  0  0  0  0  0  0  0  0  0  0  0
    5.5338    2.5688  -21.0528 C   0  0  1  0  0  0  0  0  0  0  0  0
    5.1930    3.2227  -22.4158 C   0  0  0  0  0  0  0  0  0  0  0  0
    4.9103   -4.0403  -18.0416 N   0  0  0  0  0  0  0  0  0  0  0  0
    2.8081   -3.0083  -18.4735 N   0  0  0  0  0  0  0  0  0  0  0  0
    4.3084    2.8095  -20.2293 N   0  3  0  0  0  0  0  0  0  0  0  0
    3.0471    3.4040  -18.3873 N   0  0  0  0  0  0  0  0  0  0  0  0
    6.6551   -3.0420  -21.5965 F   0  0  0  0  0  0  0  0  0  0  0  0
    7.5238    1.4210  -22.9038 F   0  0  0  0  0  0  0  0  0  0  0  0
    5.7097    3.1736  -17.9085 S   0  0  0  0  0  0  0  0  0  0  0  0
    4.3862    0.4390  -19.7133 H   0  0  0  0  0  0  0  0  0  0  0  0
    7.7901   -1.1438  -22.9687 H   0  0  0  0  0  0  0  0  0  0  0  0
    6.5839   -3.2754  -19.0657 H   0  0  0  0  0  0  0  0  0  0  0  0
    2.7897   -1.3901  -19.8256 H   0  0  0  0  0  0  0  0  0  0  0  0
    3.0957   -4.6227  -17.1610 H   0  0  0  0  0  0  0  0  0  0  0  0
    6.5668    4.3671  -20.3877 H   0  0  0  0  0  0  0  0  0  0  0  0
    7.6417    3.1149  -21.0971 H   0  0  0  0  0  0  0  0  0  0  0  0
    7.2075    1.6678  -19.0831 H   0  0  0  0  0  0  0  0  0  0  0  0
    8.0114    3.2219  -18.6768 H   0  0  0  0  0  0  0  0  0  0  0  0
    5.0039    4.2966  -22.2708 H   0  0  0  0  0  0  0  0  0  0  0  0
    6.0377    3.0894  -23.1077 H   0  0  0  0  0  0  0  0  0  0  0  0
    4.2955    2.7460  -22.8368 H   0  0  0  0  0  0  0  0  0  0  0  0
    3.4270    2.7249  -20.6941 H   0  0  0  0  0  0  0  0  0  0  0  0
    2.9817    3.6291  -17.4151 H   0  0  0  0  0  0  0  0  0  0  0  0
    2.2221    3.3825  -18.9520 H   0  0  0  0  0  0  0  0  0  0  0  0
  1  6  2  0  0  0  0
  1  8  1  0  0  0  0
  2  9  2  0  0  0  0
  2 10  1  0  0  0  0
  3  7  1  0  0  0  0
  3 16  2  0  0  0  0
  4  7  2  0  0  0  0
  4 17  1  0  0  0  0
  5 16  1  0  0  0  0
  5 17  2  0  0  0  0
  6  7  1  0  0  0  0
  6  9  1  0  0  0  0
  8 10  2  0  0  0  0
  8 14  1  0  0  0  0
  9 20  1  0  0  0  0
 10 21  1  0  0  0  0
 11 18  2  0  0  0  0
 11 19  1  0  0  0  0
 11 22  1  0  0  0  0
 12 13  1  0  0  0  0
 12 14  1  0  0  0  0
 13 22  1  0  0  0  0
 14 15  1  0  0  0  0
 14 18  1  0  0  0  0
  1 23  1  0  0  0  0
  2 24  1  0  0  0  0
  3 25  1  0  0  0  0
  4 26  1  0  0  0  0
  5 27  1  0  0  0  0
 12 28  1  0  0  0  0
 12 29  1  0  0  0  0
 13 30  1  0  0  0  0
 13 31  1  0  0  0  0
 15 32  1  0  0  0  0
 15 33  1  0  0  0  0
 15 34  1  0  0  0  0
 18 35  1  0  0  0  0
 19 36  1  0  0  0  0
 19 37  1  0  0  0  0
M  CHG  1  18   1
M  END
> <OMEGA_C>
R1KkQNRf0D1SUaPB+efhQM4TTL92BbLBxJ6wQA+2TMC9NJfBE8xYQJQXCcAVqJrB/6ZkQGH3e8Dk
w47B9sutQLUPo794CqTBZbGYQOf/DcAIrZzBWsW5QCaDhj+12KnBqljMQHef3L+ujqvBwGbZQO/t
Ez8CH7HBBviIQHHPR0DSnJfBC7DYQNBtUkA7k6PBbKbiQAejMECWWJjBExWxQFlnJEAobKjBFy2m
QOxATkChU7PBdyGdQGhKgcA+VZDBIbczQGOHQMCxyZPBQ96JQGDPM0Co1aHBAgNDQHXbWUAhGZPB
8PbUQCSwQsCwxazBv8LwQJbktT/zOrfBvLW2QNwcS0CMRI/B/VuMQGHA4D7ctJ3BOUj5QBFnkr/Q
v7fBta/SQNmfUcCDhpjBF4oyQAbusb/Xmp7B7B9GQOzsk8DNSYnBMyPSQGy/i0D8GaPBwYj0QB1b
R0DrxqjBkKPmQDN51T8fqpjB1i4AQQQzTkANapXByh+gQKV9iUCsKrLB7zTBQHW5RUCd3LjBm3SJ
QBq/L0DVsbbBpVNbQPRkLkBrjaXB2tQ+QJxCaEAnUovByjYOQJN7WEDLnZfB2MakQHYSzT2wDaPB
BC3hQIWfTr9tB7LB04ZYQET6CMDtdprBeF+wQNSATcDVJ5fB61NkQF4nfMCjnY7B9ZitQHmco790
6aPBXX6YQFFMDsB9jJzByCq6QGkIhj/QnanB/1XLQPC+3b+Nm6vBknHZQLIaEj8Q+LDBar2IQPNO
R0DOipfBhInYQN9uU0AEgKPBoqXiQGboMkBEOZjB5DaxQFIjJEBdSqjBwRqmQIz1TEBePrPBbHEz
QLJ1QMC6mZPBLuucQPiXgcC8P5DBf+CJQJFMM0D/waHBoDBCQLJAWEDiD5PBh8vSQAJ1Q8CoC63B
6/vwQMfOtD9JDLfBBF+2QC8XTEDsLI/Bsl+NQGz94T7ZT53BEij4QKIRlL8k2LfBAVwyQFr/sL/j
W57BWF3SQC/1UsAlj5jBUNlFQMryk8DxHYnBc5zRQDAyjEBZIKPBJnb0QL99SEAhrqjBtl3nQPdW
2j/RdpjBNwIAQTLnUUA6TpXBqtqfQETaiEBTK7LB/R7BQJVMRECkx7jBy3OJQBnVLUAej7bBEoNb
QEuyLUDHgqXBGZw9QCG5ZkBPSovB2YYNQOYDVkBvmZfBtuOjQIm/Q75CuaHBXyPeQFArRb/SHbLB
OriRQMp2K0DLU53BJ3vcQCWURkDz1aDBZ/2wQDNXl0Cr/5jBq4+9QLteWD+G66XBsEK5QOAXDkAR
bqHBIAqnQJDUw7+sd6XBvaPaQEznCz9OSa7BJhPFQIr95r/lwa3BsSWmQOFYjcDdfJPBNDtcQMwh
B8DMP5fBBmUrQNTHTMCpP5HBL2GLQDnBKsCTcaDBVBNdQHbEU8CnRanBSj2OQHTUekC/J5nBjcPX
QJHxikDJu5zBgtGpQB+6bcBKYJzB6pzFQMJKq8D9PJHBAZnyQO87wT+H/LLB/cvKQKSfQ8D5oLHB
enZ4QBRjh8BjHYrB1yuNQE3QIz0ae5vBK130QN3Bfb/6fbjB1CRsQEMGAkDqiJ3BhHP7QI4YMkCp
sKPBLaWtQMQ1t0BAw5XBBJQtQAMxtb+5xprBS2WCQEIryb9Gf5HBRYr9P9lPL8B+hovBKl0HQBVl
dMAe9pbBMRw2QD6Lg8BBuqXB5sYyQA6IIsDMrazBxtyCQB+NbsASoa/BHZjDQEt2ecBi4qDBWwzE
QDCOvMB9g4rBXeDdQFqhr8AQV5bBHL+gQMCcMT2GUaLBeQXiQA6pJb+Bs7DBH3NXQDqNDsAAbprB
jVewQBSyUcBpTJfBGtFkQLJ2gcBO2o7BvY2sQMswpr/dhaPBgfmXQKS/EsCmkZzBOUO2QL20iD8/
56fBWujMQLcY07/l46rBEsHXQHpmND+AGK/B0H/ZQG42hUDbQpzBWmWjQGJ6WECLB6/BZaicQH64
m0AgPqzB6vCtQBIMIkD/76TB82OJQJTiLEDvVZzBFzczQK7dRsAEo5PB3C6dQA91hMBmipDBrbDW
QLirPUAtKKDB8wHjQC75iECigJHBrMHXQBI/PMA9kKzB5QDwQMdx0D93L7TB6sbIQGe8sUBw4KPB
c7OGQNTemD7lBJ3BFlb6QFrQar/AcrbBnqcwQJVJvL9zPZ7BRmfSQBy/VcCaq5jBDOpGQG/4l8BD
d4nBtAGGQLJ5P0C4urLB+hG+QFkmU0CQu7TBvtyaQDczrkARuLPBT8J8QFD+nkB31KfBMPOEQBc/
cUDejJrBBLVWQIgvEkD1e5/BxmCSQOjBCkBd+ZTBrcbvQOn7FUBA6p/BpnjgQN5fpUAb343BN2zs
QPuVXkCiWY3B

> <OMEGA_E>
AAAAAAAAAADsdIg/tAtTPw==

> <OMEGA_NBR>
      3024

$$$$
50338555
  -OEChem-04172616093D

 49 52  0     1  0  0  0  0  0999 V2000
    5.1189    0.0587  -20.4985 C   0  0  0  0  0  0  0  0  0  0  0  0
    7.1915   -0.7965  -22.1862 C   0  0  0  0  0  0  0  0  0  0  0  0
    3.4295   -2.1106  -19.3230 C   0  0  0  0  0  0  0  0  0  0  0  0
    5.5264   -3.2483  -18.9328 C   0  0  0  0  0  0  0  0  0  0  0  0
    3.5685   -3.9183  -17.8510 C   0  0  0  0  0  0  0  0  0  0  0  0
    5.4789   -1.3026  -20.5275 C   0  0  0  0  0  0  0  0  0  0  0  0
    4.8057   -2.2384  -19.6033 C   0  0  0  0  0  0  0  0  0  0  0  0
    5.8002    1.0179  -21.2868 C   0  0  0  0  0  0  0  0  0  0  0  0
    8.3004    2.9299  -18.5490 C   0  0  0  0  0  0  0  0  0  0  0  0
    6.4970   -1.7350  -21.4089 C   0  0  0  0  0  0  0  0  0  0  0  0
    6.8774    0.5712  -22.1087 C   0  0  0  0  0  0  0  0  0  0  0  0
    8.9523    4.2429  -18.5560 C   0  0  0  0  0  0  0  0  0  0  0  0
    9.1635    2.0352  -17.9752 C   0  0  0  0  0  0  0  0  0  0  0  0
    4.2577    3.1287  -18.9514 C   0  0  0  0  0  0  0  0  0  0  0  0
    6.7121    3.2057  -20.4381 C   0  0  0  0  0  0  0  0  0  0  0  0
    6.9506    2.5886  -19.0627 C   0  0  2  0  0  0  0  0  0  0  0  0
    5.5003    2.5282  -21.0786 C   0  0  1  0  0  0  0  0  0  0  0  0
    8.4256    5.5413  -19.1344 C   0  0  0  0  0  0  0  0  0  0  0  0
    8.9646    0.5444  -17.7463 C   0  0  0  0  0  0  0  0  0  0  0  0
    5.2162    3.2281  -22.4264 C   0  0  0  0  0  0  0  0  0  0  0  0
    2.8322   -2.9536  -18.4559 N   0  0  0  0  0  0  0  0  0  0  0  0
    4.8971   -4.0742  -18.0722 N   0  0  0  0  0  0  0  0  0  0  0  0
   10.1260    4.0923  -18.0000 N   0  0  0  0  0  0  0  0  0  0  0  0
    4.2717    2.7671  -20.2256 N   0  3  0  0  0  0  0  0  0  0  0  0
    3.0529    3.4807  -18.3715 N   0  0  0  0  0  0  0  0  0  0  0  0
   10.2746    2.7343  -17.6279 O   0  0  0  0  0  0  0  0  0  0  0  0
    6.8068   -3.0465  -21.5395 F   0  0  0  0  0  0  0  0  0  0  0  0
    7.6495    1.4301  -22.8130 F   0  0  0  0  0  0  0  0  0  0  0  0
    5.6855    3.1744  -17.9312 S   0  0  0  0  0  0  0  0  0  0  0  0
    4.3067    0.3776  -19.8621 H   0  0  0  0  0  0  0  0  0  0  0  0
    7.9754   -1.1281  -22.8510 H   0  0  0  0  0  0  0  0  0  0  0  0
    2.8520   -1.3352  -19.8042 H   0  0  0  0  0  0  0  0  0  0  0  0
    6.5860   -3.3607  -19.1092 H   0  0  0  0  0  0  0  0  0  0  0  0
    3.0761   -4.5906  -17.1641 H   0  0  0  0  0  0  0  0  0  0  0  0
    6.5197    4.2835  -20.3315 H   0  0  0  0  0  0  0  0  0  0  0  0
    7.5987    3.0524  -21.0709 H   0  0  0  0  0  0  0  0  0  0  0  0
    6.8340    1.4965  -19.1241 H   0  0  0  0  0  0  0  0  0  0  0  0
    9.1819    6.3308  -19.0130 H   0  0  0  0  0  0  0  0  0  0  0  0
    8.2072    5.4042  -20.2037 H   0  0  0  0  0  0  0  0  0  0  0  0
    7.5052    5.8310  -18.6063 H   0  0  0  0  0  0  0  0  0  0  0  0
    9.8571    0.1255  -17.2584 H   0  0  0  0  0  0  0  0  0  0  0  0
    8.0867    0.3863  -17.1026 H   0  0  0  0  0  0  0  0  0  0  0  0
    8.8058    0.0432  -18.7125 H   0  0  0  0  0  0  0  0  0  0  0  0
    5.0076    4.2937  -22.2501 H   0  0  0  0  0  0  0  0  0  0  0  0
    6.0938    3.1301  -23.0824 H   0  0  0  0  0  0  0  0  0  0  0  0
    4.3451    2.7587  -22.9067 H   0  0  0  0  0  0  0  0  0  0  0  0
    3.3839    2.6392  -20.6678 H   0  0  0  0  0  0  0  0  0  0  0  0
    3.0207    3.7471  -17.4081 H   0  0  0  0  0  0  0  0  0  0  0  0
    2.2139    3.4690  -18.9153 H   0  0  0  0  0  0  0  0  0  0  0  0
  1  6  2  0  0  0  0
  1  8  1  0  0  0  0
  2 10  2  0  0  0  0
  2 11  1  0  0  0  0
  3  7  1  0  0  0  0
  3 21  2  0  0  0  0
  4  7  2  0  0  0  0
  4 22  1  0  0  0  0
  5 21  1  0  0  0  0
  5 22  2  0  0  0  0
  6  7  1  0  0  0  0
  6 10  1  0  0  0  0
  8 11  2  0  0  0  0
  8 17  1  0  0  0  0
  9 12  1  0  0  0  0
  9 13  2  0  0  0  0
  9 16  1  0  0  0  0
 10 27  1  0  0  0  0
 11 28  1  0  0  0  0
 12 18  1  0  0  0  0
 12 23  2  0  0  0  0
 13 19  1  0  0  0  0
 13 26  1  0  0  0  0
 14 24  2  0  0  0  0
 14 25  1  0  0  0  0
 14 29  1  0  0  0  0
 15 16  1  0  0  0  0
 15 17  1  0  0  0  0
 16 29  1  0  0  0  0
 17 20  1  0  0  0  0
 17 24  1  0  0  0  0
 23 26  1  0  0  0  0
  1 30  1  0  0  0  0
  2 31  1  0  0  0  0
  3 32  1  0  0  0  0
  4 33  1  0  0  0  0
  5 34  1  0  0  0  0
 15 35  1  0  0  0  0
 15 36  1  0  0  0  0
 16 37  1  0  0  0  0
 18 38  1  0  0  0  0
 18 39  1  0  0  0  0
 18 40  1  0  0  0  0
 19 41  1  0  0  0  0
 19 42  1  0  0  0  0
 19 43  1  0  0  0  0
 20 44  1  0  0  0  0
 20 45  1  0  0  0  0
 20 46  1  0  0  0  0
 24 47  1  0  0  0  0
 25 48  1  0  0  0  0
 25 49  1  0  0  0  0
M  CHG  1  24   1
M  END
> <OMEGA_C>
VM6jQGhzcD36/KPByiDmQIrlS79hfbHBMH1bQNgTB8CRlZrBT9iwQEvkT8BzdpfBD2NkQLjEesDd
zo7BcFOvQCO6pr9YOKTBhsiZQHFBD8Cc05zBYpu5QAJLgj9pS6rBUM4EQbWDO0BKZJTBPefPQNcV
3r9VRavBsxPcQOg6Ej+H3rDBqjwPQRzGh0C4cpTBv50SQatAAkAhzY/BUT+IQIU8SECQnJfBsMnW
QGkqTUBOgaPBp2veQKOrJUB/gJjBrAKwQLbOIUDpoKjBXs8GQe5RsUApE5nB/m4PQdpcCz9z+I3B
cOumQHuZTkBJabPBQUI1QF8IPcDJpZPBJbWcQNlfgsDck5DB8AMiQSr0gkAPAJDBabGIQNUXMUAQ
zqHBX2NDQE/EXkDH+JLBp2QkQez+LkDbBY3BeNHZQF35QsDuUKzBTMj0QEMMtz/2gLbBle+1QKEp
S0Aac4/BptCJQJBWwT6j5Z7Bmzb/QEtmkL/IzrbBw4Y2QDzmqr8Nb57BLcDSQEAWV8Cm35jBWN5E
QDnmksAdUInBKKHQQEgSiUDVpqLBvyjzQAVbQ0BIkajBUrDaQBqOvz85/pjB9+gSQcGVykCbGpjB
j1ADQUbvrEAtoaHBryrwQMCXukCp2ZTBgLYdQbSCAD43EYrBMGMBQV/HxT4w0ojBreQMQT75MD1N
s5XBcD6gQKlliUAgALLBCwDDQKFTSEDPqLjB+wqLQO2NMED9QLfB25FYQOLoKECxV6XB3lJBQIzQ
b0DgQ4vB1a8NQIQDXkCjUpfB1sCjQBiSCT2WFqTBjK7lQCwZVb/orbHBomJbQOVHCMDKnprB9dCw
QN/6UMDbepfBa3tkQH9Ze8DewI7BYyWvQMsrqr/2U6TBh7KZQMOmEMC74pzB9qq5QELhfT93XqrB
JogEQUYRKEDPXZTBEqXPQNwn4r/FYqvBJcTbQLpbCT/1D7HBNVARQSGKtT9G9ZLB/DMSQQKIbEDe
d5TBCEmIQAMjTkAPupfBIkfYQEPpR0B0TqPBI/3bQBFSJED29JfBoLWwQGJtIECXiajB90EJQQCb
Abxv85PB5UANQRpOpECuXZfBNnWoQIiXTkB3Q7PB2kY1QHPaPcALoZPB+L6cQC2zgsAGiJDBOSQl
QZlL5T+cgZHBUSCJQErlMECvtKHBO0lCQJbDXkCgAJPBH/MlQWYtTUAEI5LBdsLZQLD+RMBiV6zB
n4f0QIWisT8xwrbBwnq2QPIEXUBb6Y/BGcGJQJg2tT5iAZ/BPoX+QKx7lb/fDbfB5mA2QFyhrb/n
fp7BGrTSQHdJWMDR6JjBOwpFQDMQk8B+OInB8O7UQCr6hkBaBKPB7AL1QEMJN0Bs7qfBbDfRQP6Y
wj+N/ZfBas0WQYJ5NL+YQpPBkEv7QIiOWL5zio3BGHoBQVGREL6dxZvBeB4cQaslt0BSS5fB6BYG
QZl9pUABZp/B9fMBQeeysUBVgpHBSTqiQMBpiUAnwrHBl7rEQD0GSEAQcbjB/YmMQG3MMUARPLfB
h6RZQBZeJEDdF6XBRao/QBqBckBJZovBbUwMQA0MV0BpMJfBYiOkQLBBzz0ch6PBHYThQJ41S79Z
RrLBsiexQJfyScBuL5fBZWlYQBixCsBWA5vBY19mQNJjesCZsI7BOEStQKznor8aWaTBEpyYQL+y
DcD75pzBsse5QHEYhz8M9qnBVvUEQYlSQUDx6pLB3DHLQECk3L96/KvBitbZQBzuFT9nJ7HBQb0Z
QeqrKkDEn5fBoC0JQe1ucECR0InBK9aHQHUZQkAphZfByMDXQI7yTkC7V6LB73zgQIv3IECMqZfB
6aCxQMqrJEBBJKjBb7EdQTZg7T+tsKHB1lr0QG7YjEDBx4HBhDGqQGiQU0C747LBLB+eQAYsf8Bv
JpDBkj80QA+VQcALAJTBmbQoQUbbSkCAiZHBZImJQLMINEBw5aHB3uJDQP24X0A8K5PBn9UeQX/V
dUDN7ojBTmrSQFn5QsC7cK3BiEfyQFRRtz8597bBIEeyQI3yKkAbu47B9jaMQCFC3z6z5Z3B/sz4
QAjrkb8HB7jBR03TQL6DTcDCcJjBDzwxQDz4uL9XLJ/BCqBIQF/NksCKEInBFz/QQCVIiUB1xKDB
fV/0QO/SSkCXcKfBvKrjQAsPuD+IQpnBnQQvQQ/44D8wCKPBUJcWQXXQWj8Nw6DBk1QWQVMxF0DI
kqjB6JcDQe0vnUArI3fBXtXfQHw9pECM5IXBwkjgQPQeaEC3HHzBfYakQNb7i0CbXbHBQZnGQHUg
TEDFALjBKiyOQC7pN0AI8bbBv7tbQI2WM0AS6qXBpZc+QI5gZ0ABQYvBR2ASQFB9bUDz75fBCjKk
QMRi0T1Uj6PBeH/hQJZaSr/BU7LBWD2xQOVTScBZIJfBKpBYQN2mCsDFFpvBb0lmQBXIecBOr47B
c2etQNaoor9EXqTB57mYQM58DcC86pzB2cG5QG5bhz9L/6nB8JoEQYqiQUCfpZLBxVTLQDhR3L/h
AazBr7vZQIzFFj/1NrHBSPcHQR6Nd0AgEYnBinYYQYobM0BpBZfBrcOHQHL/QEAYhJfBSsnXQOCc
TkDdPaLBFnHgQCqyH0CHlpfBgrWxQAzAJEAfIKjBSJXvQLgIjUDUHIHBHRIeQVCb/T8636DB5Gyq
QC9FVEC11rLBIB+eQFpgfsAoFZDBjz40QJZPQcDtD5TBNpEcQRiTgkDIOojBp46JQHroM0Bu6KHB
Xg5EQJNvX0DPKpPB9AMnQTgZXECtz5DB9LXSQJ7LQsAOba3BJCzyQKr4tz9WA7fBiPGxQPb+J0Ak
uo7BQkCMQI5D3z5X7p3B7rn4QJVmkb/CGLjBiWvTQMK6TMCaVJjBOXAxQDl+ub/+Tp/BqWhIQNZv
ksBCDonBHT/QQPcLiUBklqDBoHb0QLnrSkDnUqfBJEzkQEj5tT/DPpnBgCYAQQhPn0AhuHXBD9HY
QIQUokCER4XBYSneQGFzZEDc3HrBv38vQc16/z+/F6LB7K8YQR2McT+5vp/BIRUWQcdjGkAZ6qfB
aNWkQDhPjECBQrHBNt3GQCP2TECB8bfBJWeOQA38OEDC7bbBPeZbQI0eNED986XBa6U+QDilZkA5
P4vBseMSQKs8bkBY8ZfB0I2jQHCgBz03AqTBPPHkQIZEVr8rv7HBKgWxQLd6UMCoXJfBIvNaQCDt
CcDLtJrBI99kQBhvfMCswo7Bc96uQD5Wqr8wSKTBqp+ZQBvuEMCC1pzB/lq5QIWZfT+JVarBlJsE
QeCGJ0CVaZTBHAzPQASL4r9maavBsifbQL9dCD/zGrHB3iMSQQPHc0D8JJTBGKYRQVpIwz9JMpPB
DliIQKS1TkD2sZfBgUXYQDxdR0DYMKPB9PPbQKdGI0As5JfBOrSwQOF3IEDld6jBn9cLQQr2pkCY
TJfBV24MQcCPVz2935TBwNaoQKFcT0CHKrPBKBSdQP+lgsBZb5DB9xE1QAL+P8DNwJPBqYwlQVKK
WkDn1JHBlCSJQEElMUBIqKHBXXBCQGK2YEBdCpPB6GYlQX9PAEC20ZDBDdXYQDxPRcAha6zBDbzz
QKDrsD9q3bbBj5W2QB2HXECd1o/BFL2JQA+StT5S357BOZP9QK5Glr+QLLfBUwDTQHLeVsAauJjB
K4Q1QJxFsr+app7BgrJFQKGok8CJN4nBDQXVQDG0hkCv16LBAv70QDKWNkCB06fBmS7RQJmBwD/6
6pfBTSAaQXGGu0A4WZfBPKYEQY+PpkCCVJ/ByCsAQaWIs0DBgpHB9wobQesbDL8H3JPBwmQAQUiO
h74/+o7B/BQGQWh/wL1I/5zBsNWiQCLNiUDtm7HBDzDFQCSoSECXULjBheSMQDg2M0BiMrfBK6tZ
QGGGJECZCaXB7cE/QKXXdEAzdIvB2YkMQLOZWUDiQpfB

> <OMEGA_E>
EM7hPtBD4j5IFeM+WB7kPsgv4T4=

> <OMEGA_NBR>
      7520

$$$$
50495912
  -OEChem-04172616093D

 46 49  0     1  0  0  0  0  0999 V2000
    5.0432    0.0637  -20.4618 C   0  0  0  0  0  0  0  0  0  0  0  0
    7.0176   -0.8122  -22.2632 C   0  0  0  0  0  0  0  0  0  0  0  0
    5.5164   -3.1827  -18.8522 C   0  0  0  0  0  0  0  0  0  0  0  0
    3.3492   -2.2481  -19.3737 C   0  0  0  0  0  0  0  0  0  0  0  0
    8.5697    4.4351  -17.3318 C   0  0  0  0  0  0  0  0  0  0  0  0
    3.5785   -3.9878  -17.8268 C   0  0  0  0  0  0  0  0  0  0  0  0
    5.3786   -1.3075  -20.5218 C   0  0  0  0  0  0  0  0  0  0  0  0
    4.7415   -2.2597  -19.5862 C   0  0  0  0  0  0  0  0  0  0  0  0
    5.7578    1.0167  -21.2336 C   0  0  0  0  0  0  0  0  0  0  0  0
    8.3805    3.4147  -18.3718 C   0  0  0  0  0  0  0  0  0  0  0  0
    6.3604   -1.7442  -21.4417 C   0  0  0  0  0  0  0  0  0  0  0  0
    6.7290    0.5597  -22.1560 C   0  0  0  0  0  0  0  0  0  0  0  0
    9.6312    2.9021  -18.6509 C   0  0  0  0  0  0  0  0  0  0  0  0
    4.2836    3.2806  -18.9991 C   0  0  0  0  0  0  0  0  0  0  0  0
    6.8743    3.1503  -20.3827 C   0  0  0  0  0  0  0  0  0  0  0  0
    5.5936    2.5291  -21.0106 C   0  0  2  0  0  0  0  0  0  0  0  0
    7.0379    2.8932  -18.8594 C   0  0  1  0  0  0  0  0  0  0  0  0
   10.0400    1.7781  -19.5891 C   0  0  0  0  0  0  0  0  0  0  0  0
    6.9419    1.4163  -18.3949 C   0  0  0  0  0  0  0  0  0  0  0  0
    4.9249   -4.0290  -17.9827 N   0  0  0  0  0  0  0  0  0  0  0  0
    2.7881   -3.1184  -18.5056 N   0  0  0  0  0  0  0  0  0  0  0  0
    9.8421    4.4878  -17.0399 N   0  0  0  0  0  0  0  0  0  0  0  0
    4.3459    2.8728  -20.2530 N   0  3  0  0  0  0  0  0  0  0  0  0
    3.0467    3.3283  -18.3822 N   0  0  0  0  0  0  0  0  0  0  0  0
   10.5194    3.5574  -17.8556 O   0  0  0  0  0  0  0  0  0  0  0  0
    6.6531   -3.0596  -21.5759 F   0  0  0  0  0  0  0  0  0  0  0  0
    7.4014    1.4345  -22.9407 F   0  0  0  0  0  0  0  0  0  0  0  0
    5.6763    3.7983  -18.0601 S   0  0  0  0  0  0  0  0  0  0  0  0
    4.2358    0.3897  -19.8228 H   0  0  0  0  0  0  0  0  0  0  0  0
    7.7489   -1.1520  -22.9816 H   0  0  0  0  0  0  0  0  0  0  0  0
    6.5876   -3.2121  -18.9866 H   0  0  0  0  0  0  0  0  0  0  0  0
    2.7288   -1.5421  -19.9057 H   0  0  0  0  0  0  0  0  0  0  0  0
    7.7918    5.0372  -16.8859 H   0  0  0  0  0  0  0  0  0  0  0  0
    3.1162   -4.6752  -17.1338 H   0  0  0  0  0  0  0  0  0  0  0  0
    7.7491    2.7269  -20.8980 H   0  0  0  0  0  0  0  0  0  0  0  0
    6.8435    4.2377  -20.5458 H   0  0  0  0  0  0  0  0  0  0  0  0
    5.4929    2.9799  -22.0090 H   0  0  0  0  0  0  0  0  0  0  0  0
   11.1234    1.6068  -19.5068 H   0  0  0  0  0  0  0  0  0  0  0  0
    9.5017    0.8585  -19.3158 H   0  0  0  0  0  0  0  0  0  0  0  0
    9.7902    2.0553  -20.6239 H   0  0  0  0  0  0  0  0  0  0  0  0
    5.9831    0.9894  -18.7242 H   0  0  0  0  0  0  0  0  0  0  0  0
    7.7697    0.8397  -18.8332 H   0  0  0  0  0  0  0  0  0  0  0  0
    7.0051    1.3724  -17.2975 H   0  0  0  0  0  0  0  0  0  0  0  0
    3.4793    2.7847  -20.7440 H   0  0  0  0  0  0  0  0  0  0  0  0
    2.9710    3.6483  -17.4378 H   0  0  0  0  0  0  0  0  0  0  0  0
    2.2281    3.0427  -18.8805 H   0  0  0  0  0  0  0  0  0  0  0  0
  1  7  2  0  0  0  0
  1  9  1  0  0  0  0
  2 11  2  0  0  0  0
  2 12  1  0  0  0  0
  3  8  1  0  0  0  0
  3 20  2  0  0  0  0
  4  8  2  0  0  0  0
  4 21  1  0  0  0  0
  5 10  1  0  0  0  0
  5 22  2  0  0  0  0
  6 20  1  0  0  0  0
  6 21  2  0  0  0  0
  7  8  1  0  0  0  0
  7 11  1  0  0  0  0
  9 12  2  0  0  0  0
  9 16  1  0  0  0  0
 10 13  2  0  0  0  0
 10 17  1  0  0  0  0
 11 26  1  0  0  0  0
 12 27  1  0  0  0  0
 13 18  1  0  0  0  0
 13 25  1  0  0  0  0
 14 23  2  0  0  0  0
 14 24  1  0  0  0  0
 14 28  1  0  0  0  0
 15 16  1  0  0  0  0
 15 17  1  0  0  0  0
 16 23  1  0  0  0  0
 17 19  1  0  0  0  0
 17 28  1  0  0  0  0
 22 25  1  0  0  0  0
  1 29  1  0  0  0  0
  2 30  1  0  0  0  0
  3 31  1  0  0  0  0
  4 32  1  0  0  0  0
  5 33  1  0  0  0  0
  6 34  1  0  0  0  0
 15 35  1  0  0  0  0
 15 36  1  0  0  0  0
 16 37  1  0  0  0  0
 18 38  1  0  0  0  0
 18 39  1  0  0  0  0
 18 40  1  0  0  0  0
 19 41  1  0  0  0  0
 19 42  1  0  0  0  0
 19 43  1  0  0  0  0
 23 44  1  0  0  0  0
 24 45  1  0  0  0  0
 24 46  1  0  0  0  0
M  CHG  1  23   1
M  END
> <OMEGA_C>
72GhQEiIgj22saPBxo/gQL7sT78fG7LBtIawQAuxS8BM0ZbB3FlWQEHhD8BE/ZrBWh0JQarsjUBw
p4rBCQZlQDA4f8AznY7B2R2sQNVap7+7LKTBnrqXQA+fEMCRsJzB4T+4QCMigj9V3qnBoBYGQXGK
WkB0+ZLBnYjLQOhC37+riKvBSFTXQBhIDz97P7HBhBkaQae7OUAjNZXBIhOJQJj1UUAs/pfBSvrb
QESeSUDTD6PBnv6yQDDcIUDMFajBNjbhQBMqOUAk4JbBqqMgQSKY4z9/tpzByyPeQK9KtT+oKJPB
hZidQHDtgMCb3I/BynAyQFqTR8CNC5TBQ3kdQUicj0C/UYjB4hGLQIDbN0AUBqLBBP1CQDcCVUCl
DpPBU08oQXmsY0A22I7BiubUQErRQ8CJm6zBVdjsQLeetz98hrfBqKS1QHEXc0Aqe5DBiIuHQJuA
xz4olZ7BCff3QDl2k79O2rfB7M3SQH2TTcCm5JfBn6QuQCRkxb/JPp/Bh1b5QPswoUA5FofB7G9H
QBmblcABEonBYPj3QPCELkAXL6fBS/7aQDybh0C8XaTBkMWvQDK2PkBYErDBkPkxQduszT8HDpzB
HgcYQabHWz+thprBrKQcQZOJA0C+/aTBXnW/QJZJfT8Ty5XBg6H4QCr0Vj9PqpbBaingQEWsrz9g
YYrBbqxeQA04MkDF86XB1CQ+QPN8aUCIgIvBjpgOQOe7QkAtC5fBn0WkQFC7uT1gUqPB0K/lQAQz
SL8YFrHBKeFaQJGTBcCLM5rBFO6vQCZtUMACCpfBee8ZQXLAXUAUu5TBHdNgQOVSfMBH347BZNCv
QMz1or+2fKPBr56ZQDfsDcBNQZzBECq6QMR9hD/kuqnBf+MEQewtgUCEOpfBBWbQQJDM2r/njKrB
A9zaQPxwFD+CubDBWtMHQVyarEAVgpjBu/yIQCnsTkAVIZjBgZHXQIJRVUA2J6XB4jywQNU8IkAR
4ajBL5vhQDNuTkCvEZnBJdjvQBhoz0ARkJvBxJroQEjL4z8X7pTBzwgzQIEAPcAXl5PBtAWbQAJI
g8C/dJDBZb0nQfAdjkCQRpTBCUKJQMNeNkC8QKLBnRRGQNHDSUAgdZLBh90cQYajtED6j5bB4Vba
QBdUQcByjavB4vvvQC5Ptz+IRrfBmmu1QAsxekAmdZHBZmCKQP4X1j4kPJ7BCZj+QLsyj7+ob7bB
hPg2QOA/pb9N753BEeXRQJAEWMC1UpjByWIdQTfCGkCqfJPBfAlAQKw4lMBOoonBUJTzQM33PUCz
nKnBMRrSQG6VjEDWD6fBizqpQIAhOEClDrHBZisAQfh57kDD4ZvBwA7iQA0kyEANdKPBoCLWQNXA
0EC1j5XBImnLQHUTmD9YQ5bBSrsBQUHjqD8LRJnBOervQLon5z8RU4zBb6xZQL+cMECk26XB4Y9D
QMI+XkB+4orBw8IRQNeOMUCh7pXBqNqjQBIBxz1/QaPBWP/gQHSfR7/vKLLBVP5aQKsgBMDFfpnB
1FivQIwaVMDV5pfBcnkGQbDMkkDqmonBFb5jQAV5fcBZnY7BCMmtQAfTo79o6aPB0rGYQPP5DsAI
e5zBlDW6QLM2hj8uianBLucEQZrWYUCXupHBkj3MQHmo279zj6vB8GDYQAQDGD+hHrHB+VcZQZSB
QkC7KJPBxQCIQMm/T0DMHZjBXCrdQPOPS0B5aKLBNue0QFHFI0CSzafBoETgQPL2PED4IJbB+zgh
Qb0z8z9JKprBPB/eQH/RvD/JYJLB/4c1QBR8O8DEpZLBqp2bQNgihcAmFpHBE2waQTKHlUBcjobB
s+KLQM2oOUAZP6LB9cs/QJSITEAXc5PBSmsmQYbkbkDTc4zBbrvUQBQFQsCRAK3BWzDtQBWmvD/I
frfB/a2yQLGCdEB+P5DBseaKQBlv2z7w5Z3BE733QGsyj7/lErjB3Z02QMWDnr9EtJzB/6jQQK6t
XcCV3ZnBMszyQGsYpkCXqobBasNEQC/RlMBvNonBd7j5QP9aL0DrJ6bBsrzcQKN6iECg4qPBShGz
QJN4QEBP06/BTncyQacr4D9k3ZjBAZMYQXVWej8vFpjBTlQeQepRCUDCnqLBaYPAQK6igT9TX5XB
Kez5QDUgbT9yhJXBLGveQJcmuD9OlYnBQShiQGZPN0D+mqbBrhA4QNDPXkAM2IvBTIsNQD3uN0B4
rpfBPv2hQDjyez28q6PBckHhQJZqTL9sE7LB9KVZQKQ3CMAYz5nBItavQEl8U8B4uJfBZc8JQUtq
nUB1k5PBncpkQLaef8DDoI7BmvusQD92p7+rGKTBjFyYQPe5EMBylZzBdhC5QMVVgj8QuKnBN5YE
QdlmYECjypHBaGjMQJFO3r8LhavBZBbYQOxNEj/nHrHBO/QUQQlNP0DYjYvBTh+IQN50U0BsJZjB
wnndQBpzRUAyQqLBKn+0QIaPIUCwvqfBMoPfQPaTOUBk75XBtTUZQSu+yz/+OofBUmfZQGY4uT8b
FpLBSAc1QJbQP8C965LBzIacQOPwhMBf3JDBtGcbQRlApkA3aI7BQKWLQMjGOECLH6LBoiJAQDVI
U0CkbJPBdnkiQXiYgEBXVInBmNTVQFccQ8BKxqzBCortQKmDuj+qUbfBXJOzQKKGd0Deb5DBK7aH
QLbMwz5Crp7Bynr4QEEQkb//4rfBPhI0QPz1qb/HNZ3BCnHRQPYKW8CugJnB16UAQUees0A5W5jB
hHJGQDIKlsA5NYnBI1n5QKfwJECgxqXBcEnfQJUyhUDD+qPBJh6zQD6/P0D4r6/BdfsnQaWozD91
coLBCrcLQfthoz8ALYLBJgEbQYWvYz+F8Y3BSBm7QCiBhj9mP5XBLCD0QDMiVD9G+ZTBUqPYQK1t
tj9ISonBiSNhQCyGM0ARVqbB8jI5QEc9Z0B234vBNy8NQN0yP0BakJfBeqCgQDDnKj1M66PBaM7g
QFE0Ub83HLLBnMCwQJPsS8DXuJbBvONWQCOyEMBmEpvBE1MLQcfpmkCe7pTBB/tkQEbBf8BeqY7B
RmCsQMAOqb8tMaTBWw2YQCM0EcCVrJzBu2m3QKNyfz+uCqrBML8FQS+5W0AqMpPBJmjMQHj53784
a6vB57HWQE2mDD/iZbHBW/8WQU4bN0Cr8Y3BaPuIQHxVVEBzDpjB70HcQPicREDp/KLBK6KyQMZM
IECOEqjBm2rgQJ+QN0DZu5bB+HEbQSbZtz9hTIrB3/jZQP53tT+C1ZLB5qCdQJQQgcC7zY/Bg6Qy
QMtVSMCeKJTBi/wdQUYPokCjmpDBy8SKQF8uN0C/96HBsyNDQB1HV0ARA5PBYl8lQTLZdkChIYzB
+tfWQJvLQ8DESqzBM8vrQGoQtz/6t7fBuAm2QFQGd0BrxpDBuA+GQMEqtz4+AZ/BIGH4QMGIk7+M
1LfBNBTTQKiBTcB0tJfBEF0vQFRhx78qYp/ByaIBQWQ2skD6FZnBxxtHQGXmlcAAJonBjLD3QDsf
JUB+2abBfWDdQEfhhED5naTBbM6vQAdjPkA0/6/Bkx8rQbaFsj9KUIbBmOsOQbQDjz/WqoTB0YAb
QRg6RD9fR5HBmqG6QH5Ihj+li5XBMWjzQK1eRz/mIZbBd0vbQJ4Vsj/zCorBGcxdQLGWL0BXyKXB
gcg+QL2SbEDNfIvBIo8OQNkbRECK5JbBlnenQMoOPD0xYKLBgMTkQKQKUr/SSbHBx8RfQJikBMC/
2pjBrt6uQEMGXsDDLZjBgscCQaA9vUAo85vB2pZgQB5TgsCKMY/B8WWxQEeSqr8mF6PBRaaaQAxE
E8C+CpzBrgq8QH7Wfz/gA6nBFAkEQRtQkECBaZjBGYDQQAlF4b/doqrBwILaQLWtCz8MmLDBcKAY
QdsSi0B/g5TBbAeIQLPaWEB5dJjBrSPXQCN9WkD0iKXBWIOwQG3ZH0BMb6jBDgniQETPYUB/eJnB
rgMkQWS/SECt8I/B02TqQM+BCUAaN5TBD+02QKg9PcCne5LB02eZQE3SisAo6JHBHykVQWXVz0A4
F5rBiYGJQN9kMEDNtqHBsZZCQKmdWkCUCpPBPNUiQRF0sUC4ZZXBEi7aQPBwRMDc+qvBkqztQMAE
tD+gcbfBiJezQHJoiECgvZLBTsmPQHVDwT5Nq5zBXHf8QORgk78h/rbB0tI+QBiSl7+giJvBPMzP
QFq+asATRJrBPuXpQGdWzEAIf5/Bcdg+QH/vmMD4M4rBgo3zQNtFQUDwqanBEgrQQHKZjUAFg6jB
O5mnQJ/uMUBvpLDBh3o0QbJdWkCGvo3BSnAbQbE0MkBryojB0GMkQcB0FUAG95XBZSTOQM2/wD/4
RZXBsiYDQUN61j8QBJjBDq7wQPg+EkA6oIvBpWZbQJ1kGkASkKTBe3M9QDzHekCeJ4zByt8PQDa5
O0BfBpbBOaSmQHpfGz1+HaLBHGTUQDxwVb8mL7TBbLRYQJJmDsBnwpnBM9SwQLEBVcBq7pfB7p4Y
QRgjO0DZd43BlG9pQO6WgsBuk47BavqqQMbYq783IaTBbdyXQA3kE8BHnpzBThC7QAvTfT8puqjB
AscDQZlcZUAEAI/BqqvBQCbG478dRa3BDY7RQNtaCz9L5LHBMc8GQQrbnECs9IvBIzWHQNwpVEC4
yJfBhH/gQLmxQUDf75/BKvG4QH2BH0BSM6bBhnvfQINCOEA8ipPBZ73vQNkDw0D6a4zBeMrfQMYc
sz+5wo/BQ642QMiBR8Am2ZLBJPKeQOk2hsAe8pDB6QUmQSWTckBoYonBfqmOQOQqN0DMf6HBFS86
QJwRZUAUB5XBtzwbQYKNoECWRYjBtGzEQA1PRsADqq/BjOTjQFWHtz+Kp7jBJrKuQBE4aUBYDI7B
BnuTQIcpvj4ccJvB2QHlQJcylb+UR7vBiBoxQO7iuL83GZ3BuVXSQICYWsAo7pnBez4cQeCr8j83
ZY/B2mxNQN0xmcC2DonBVNL8QPshH0A84KLB38PjQM4cg0BBx6HBN0u6QCm4P0CSBK7BpTgAQUqc
30BdcInBWJ/lQP1fyEBGvpTBynTTQPTAvEAvbIfB5W3DQH26YT8r7ZLB0eX8QG4YZz8YtpLBM0bf
QALGrj8894bB+VNqQIw7MEAwQabB3lMsQNI4fED+xY3BAEMLQCkdWkD/SprBCIOmQHw/tDwBk6LB
gKngQCDgW78DQ7LBpiWaQFihDcASrJHB9ft/QDvqV8CsVqHBJTQaQSJWhEA8/pTB9WBdQNNog8Bg
HpDBx7euQICjrb8XzKPBfEKYQNO3FMDt5JzBqdO6QAxheT+KRanBcZsEQaMkj0CF2ZjBfCLMQL3w
5b8UoqvBwMrXQE/wAz+nN7HBhXUFQZDouUDUuJvBKIyJQNuNVUDIE5jBVnnXQDJdV0Bky6XBDyaw
QB9OHkAYdKjBdWXjQMpLX0Bzy5nB06/oQAMh10CAR6DBwhHvQOQqB0DPz5TB3JqFQBIoR8C8covB
E8xWQB3bh8CC45rBBTUmQWSRpkAAl5XBH+2JQNlcL0AIfaHBSFBGQKkcWECbhZLBjq8ZQS4QyEBs
wpnB/3fVQFkzR8BTu6zBF9zqQOSusD9CDrjBUeK1QBz4hEB5SZLBioOQQBFBtj41eJzBqWD3QMX2
mL8sMbjBJQqsQJJHtL93CY7BH7d7QNbOXsA+66nBGEofQbqpSkCSJZLBNsY8QG8omsCuDIvBI0/z
QAShPEDiBKrBd9TQQKgOjECr0qjBdHqmQN5aMUCrkrDB3yb2QAVA90ChjaHBQ1TdQN0qykDV86fB
acDNQLsl2UDxoprB5q7TQLW5tj82k5XBpmsFQbQ/2D8lCJnBmfT2QAioD0AkTYzBd0dbQEyVG0CY
S6TBYMhCQOPTdkBxhIvBL3oSQJ09O0A8hZXBtcKmQD6KU7ywuKLBNPTOQIylUL/KybXB6+OnQFlA
G8AIAJPBaAxxQB+VUcB/t6DBI2cXQYNjNUDZ+4rBoJtxQCQJhsC2f4/B7PKpQGLXsL8NM6XBesCY
QF7EF8DMnJ3BAPO4QOn2dj+6fanBxGEFQbvhYEBYT5DBAJ+9QJ5x5L+e2q7B1gLNQKKtDT8DGrPB
hi0LQXsbm0AV75DBfxSJQPk4UUBicJfBfsbgQMXQO0Ba36DB82e3QP7kHEBfm6bBj67hQJEKNUAB
bJTBXO/+QBsQwUC5uJXB6C/gQED4rT8VZJDBHOuXQN7MVcDvHozBRrJRQKBJhcCBmZnBBvYlQbhq
bkBCmojBuTGOQLJzM0CKNqHBwzA/QCMZX0DB55PB8rkeQRJJn0BWO4zB6qXAQOA1RsBTcLHB9Ofd
QPTxuz+64rnBND6zQAZHbEBTrY7BNjCWQM2rlj6FjJvBlczdQER/j79JMr3BUEnAQNki3r8xXZDB
e6FYQDZgUMBdzKjBB2oYQXxa4z/2UonBJWpYQAM0ncAU6onB/Zb7QKyVFUAv+6PBEZXlQFx8f0AS
+6LByAy3QK4EP0C0Ta7Bxy0JQUwi3kBis5TB/2z5QORbu0CcS57BFAbgQJc4xUBvpJHBMODCQICu
Xz+iVZPBv1L8QFOeUD9iZJPBjFDgQM+arD9nl4fByhJnQGz6KkCRgqXB6+U0QNiad0C8oIzB1qUN
QCOZUEBiopjBpDqnQHADrbv/qKLBBCnPQEeCT7+Jw7XBWuqnQNPwGsDs9pLBfX1xQJQ4UcDpuaDB
L80VQa94hUA+qZbBv5JxQN/mhcCWg4/B3jeqQP37r7++KKXBwOyYQIliF8Chlp3Bmym5QD3keD9U
fKnBqHcFQQXkXkCALZDBjcy9QBK8479R067BBi/NQBEBDz8HGbPBSFwMQXmzZUB3sIXBoSCJQDaI
UEAEbpfB0e7fQJkgP0Cq9KDBHxO3QEyaHUAXrabBOCviQDZFM0CjjZTB/CsCQcOfRUAJ33bBLn7i
QJSKpj+2PJHBt9mXQGuJVcDpGozBVPNRQBIihcDhoJnBzMAkQbTck0CqSJDBEPaNQB9AM0CpO6HB
SXo/QK9+X0Dk5JPB+EQfQVmCiEBFvoXBoczAQAjiRcBMaLHB+gPeQCVivD/S57nBk5SzQNBRaUDo
mI7B8gaXQNbFmj6bb5vBAg/eQJsZj79qKb3BPkbAQCuM3b+GTZDBpE1ZQKb6T8CI0ajBV3oVQTEf
iUBSQJ/BUzpYQC8VncCb8YnB+I/7QOidHUAscqTBqX3iQPMFgkAooqLB20W2QHRIP0CwZq7BoFQM
Qd8EV0A6LGnBppPkQCT3YkCp9HTB238AQaE1/z/Zm3fBbo7FQAG4Tj9UUpTBhgb/QEStTz91lZTB
4SLjQJ2wnD/PdYjBmm1mQHSVKkAxfaXBxX01QGZ6d0A2lYzB4sQNQFNNUkDWp5jB

> <OMEGA_E>
pHHmPtTV9j6saPY+CFnuPhDj5j7Aygg/EE0HPyoGTT+Wbks/itJKPw==

> <OMEGA_NBR>
     15852

$$$$
50156583
  -OEChem-04172616093D

 42 45  0     0  0  0  0  0  0999 V2000
    6.4298    5.6907  -23.7545 C   0  0  0  0  0  0  0  0  0  0  0  0
    6.0455   -1.3911  -22.1470 C   0  0  0  0  0  0  0  0  0  0  0  0
    5.3832    4.7780  -23.9850 C   0  0  0  0  0  0  0  0  0  0  0  0
    7.1592    5.6379  -22.5522 C   0  0  0  0  0  0  0  0  0  0  0  0
    6.8477   -0.3454  -22.6418 C   0  0  0  0  0  0  0  0  0  0  0  0
    5.0365   -1.1185  -21.2043 C   0  0  0  0  0  0  0  0  0  0  0  0
    5.0602    3.8163  -23.0110 C   0  0  0  0  0  0  0  0  0  0  0  0
    6.8431    4.6753  -21.5767 C   0  0  0  0  0  0  0  0  0  0  0  0
    6.6399    0.9744  -22.1991 C   0  0  0  0  0  0  0  0  0  0  0  0
    4.8187    0.2010  -20.7662 C   0  0  0  0  0  0  0  0  0  0  0  0
    5.7836    3.7550  -21.7967 C   0  0  0  0  0  0  0  0  0  0  0  0
    5.6012    1.2660  -21.2796 C   0  0  0  0  0  0  0  0  0  0  0  0
    6.1049    2.8581  -19.4565 C   0  0  0  0  0  0  0  0  0  0  0  0
    3.8937    3.3475  -19.1580 C   0  0  0  0  0  0  0  0  0  0  0  0
    6.8728    3.7450  -16.8866 C   0  0  0  0  0  0  0  0  0  0  0  0
    5.3970    3.3838  -17.1156 C   0  0  0  0  0  0  0  0  0  0  0  0
    7.7754    2.7546  -17.6607 C   0  0  0  0  0  0  0  0  0  0  0  0
    5.3942    2.6934  -20.7601 C   0  0  0  0  0  0  0  0  0  0  0  0
    5.1648    3.3770  -18.5756 N   0  0  0  0  0  0  0  0  0  0  0  0
    7.3349    2.5836  -19.0769 N   0  3  0  0  0  0  0  0  0  0  0  0
    3.9853    2.9350  -20.4008 N   0  3  0  0  0  0  0  0  0  0  0  0
    2.7087    3.6945  -18.5283 N   0  0  0  0  0  0  0  0  0  0  0  0
    6.6731    6.4322  -24.5010 H   0  0  0  0  0  0  0  0  0  0  0  0
    6.2044   -2.4025  -22.4907 H   0  0  0  0  0  0  0  0  0  0  0  0
    4.8279    4.8163  -24.9105 H   0  0  0  0  0  0  0  0  0  0  0  0
    7.9632    6.3377  -22.3783 H   0  0  0  0  0  0  0  0  0  0  0  0
    7.6240   -0.5563  -23.3624 H   0  0  0  0  0  0  0  0  0  0  0  0
    4.4288   -1.9228  -20.8168 H   0  0  0  0  0  0  0  0  0  0  0  0
    4.2546    3.1199  -23.1911 H   0  0  0  0  0  0  0  0  0  0  0  0
    7.4080    4.6357  -20.6570 H   0  0  0  0  0  0  0  0  0  0  0  0
    7.2751    1.7690  -22.5619 H   0  0  0  0  0  0  0  0  0  0  0  0
    4.0507    0.4036  -20.0344 H   0  0  0  0  0  0  0  0  0  0  0  0
    7.0594    4.7679  -17.2457 H   0  0  0  0  0  0  0  0  0  0  0  0
    7.1018    3.6862  -15.8123 H   0  0  0  0  0  0  0  0  0  0  0  0
    5.1840    2.3893  -16.6964 H   0  0  0  0  0  0  0  0  0  0  0  0
    4.7482    4.1309  -16.6352 H   0  0  0  0  0  0  0  0  0  0  0  0
    8.8074    3.1352  -17.6536 H   0  0  0  0  0  0  0  0  0  0  0  0
    7.7417    1.7767  -17.1581 H   0  0  0  0  0  0  0  0  0  0  0  0
    7.9913    2.2519  -19.7545 H   0  0  0  0  0  0  0  0  0  0  0  0
    3.2087    2.8033  -21.0168 H   0  0  0  0  0  0  0  0  0  0  0  0
    1.8431    3.6387  -19.0259 H   0  0  0  0  0  0  0  0  0  0  0  0
    2.7194    4.0006  -17.5763 H   0  0  0  0  0  0  0  0  0  0  0  0
  1  3  1  0  0  0  0
  1  4  2  0  0  0  0
  2  5  1  0  0  0  0
  2  6  2  0  0  0  0
  3  7  2  0  0  0  0
  4  8  1  0  0  0  0
  5  9  2  0  0  0  0
  6 10  1  0  0  0  0
  7 11  1  0  0  0  0
  8 11  2  0  0  0  0
  9 12  1  0  0  0  0
 10 12  2  0  0  0  0
 11 18  1  0  0  0  0
 12 18  1  0  0  0  0
 13 18  1  0  0  0  0
 13 19  1  0  0  0  0
 13 20  2  0  0  0  0
 14 19  1  0  0  0  0
 14 21  2  0  0  0  0
 14 22  1  0  0  0  0
 15 16  1  0  0  0  0
 15 17  1  0  0  0  0
 16 19  1  0  0  0  0
 17 20  1  0  0  0  0
 18 21  1  0  0  0  0
  1 23  1  0  0  0  0
  2 24  1  0  0  0  0
  3 25  1  0  0  0  0
  4 26  1  0  0  0  0
  5 27  1  0  0  0  0
  6 28  1  0  0  0  0
  7 29  1  0  0  0  0
  8 30  1  0  0  0  0
  9 31  1  0  0  0  0
 10 32  1  0  0  0  0
 15 33  1  0  0  0  0
 15 34  1  0  0  0  0
 16 35  1  0  0  0  0
 16 36  1  0  0  0  0
 17 37  1  0  0  0  0
 17 38  1  0  0  0  0
 20 39  1  0  0  0  0
 21 40  1  0  0  0  0
 22 41  1  0  0  0  0
 22 42  1  0  0  0  0
M  CHG  2  20   1  21   1
M  END
> <OMEGA_C>
hMDNQFsatkAvCb7B6XTBQA0Osr/6LLHBc0OsQG3lmEA74b/BFhjlQFNptEDvarTBoyDbQNrbsL5n
IrXB3SqhQPYqj79soqnBb+2hQEE+dEBuFrjB5PraQPCblUAOnazBTHrUQHlweT/bl7HBjTKaQBjK
TT5DIabBWhO5QP5RcECgX67B2zyzQFMNoj+bPKrBs1vDQFHrNkDsppvBajJ5QLU8VkCeQ5nBPO7b
QJKub0CxF4fBbLSsQISPWEC27IjBBdD4QFlLMEAESY3BIZ2sQJhgLEC9FKbBcEalQFYgWEDnmpTB
hbfqQI5ZJUB2nZjBXg5/QPPWO0DENKPBLlstQGJybEDhOZTBGIrVQP3UzUAUAsTBDIrGQJLCGcDu
7LPBSX6aQNsemkCqSMfBN9L+QHvOykDGBrPBKPjzQIFsDr8v5rrBfbiNQLIe9r/LiKbByyWIQC6t
R0Byh7nBJQ7tQF9XlECXQaXBh83oQIlt4j/GfrTBC5+BQE+gzj6NRqDBtubhQGeSmEA394nBvEHj
QOPpa0AO/3zBG+OlQMrqGEA2koXB3vCXQCIwhEDbFIXBSesMQWemSEB8Oo3BIrz3QFBr4z+yQ4nB
jLj/QJQfEEA7CZ7BulpNQIhoM0B/IqjB0enrP3jgaEDxNJjBWgouQBwFgEBWnIzB

> <OMEGA_E>
AAAAAA==

> <OMEGA_NBR>
       996

$$$$
50093275
  -OEChem-04172616093D

 55 59  0     1  0  0  0  0  0999 V2000
    6.1339   -0.3857  -22.9750 C   0  0  0  0  0  0  0  0  0  0  0  0
    3.3784   -4.1329  -19.4763 C   0  0  0  0  0  0  0  0  0  0  0  0
    5.6870   -1.4183  -22.1334 C   0  0  0  0  0  0  0  0  0  0  0  0
    3.7808   -3.0918  -20.3345 C   0  0  0  0  0  0  0  0  0  0  0  0
    6.0902    0.9521  -22.5393 C   0  0  0  0  0  0  0  0  0  0  0  0
    4.0057   -4.2974  -18.2256 C   0  0  0  0  0  0  0  0  0  0  0  0
    5.1850    3.9173  -23.0384 C   0  0  0  0  0  0  0  0  0  0  0  0
    6.9756    4.6617  -21.5944 C   0  0  0  0  0  0  0  0  0  0  0  0
    5.1449    0.2273  -20.4129 C   0  0  0  0  0  0  0  0  0  0  0  0
    5.6398    4.8359  -24.0062 C   0  0  0  0  0  0  0  0  0  0  0  0
    7.3632    5.5663  -22.5989 C   0  0  0  0  0  0  0  0  0  0  0  0
    5.2146   -1.1150  -20.8408 C   0  0  0  0  0  0  0  0  0  0  0  0
    4.8000   -2.1988  -19.9359 C   0  0  0  0  0  0  0  0  0  0  0  0
    5.5632    1.2819  -21.2610 C   0  0  0  0  0  0  0  0  0  0  0  0
    5.8715    3.7969  -21.8100 C   0  0  0  0  0  0  0  0  0  0  0  0
    5.0322   -3.4154  -17.8249 C   0  0  0  0  0  0  0  0  0  0  0  0
    5.4294   -2.3618  -18.6778 C   0  0  0  0  0  0  0  0  0  0  0  0
    6.1164    2.9106  -19.4555 C   0  0  0  0  0  0  0  0  0  0  0  0
    3.8709    3.2464  -19.1331 C   0  0  0  0  0  0  0  0  0  0  0  0
    5.4346    3.6178  -17.1333 C   0  0  0  0  0  0  0  0  0  0  0  0
    7.8541    3.2630  -17.7751 C   0  0  0  0  0  0  0  0  0  0  0  0
    5.4168    2.7438  -20.7728 C   0  0  2  0  0  0  0  0  0  0  0  0
    6.7790    2.9819  -16.7010 C   0  0  0  0  0  0  0  0  0  0  0  0
    5.0890   -2.8600  -15.5247 C   0  0  0  0  0  0  0  0  0  0  0  0
    6.7074    5.6370  -23.7787 N   0  0  0  0  0  0  0  0  0  0  0  0
    5.1243    3.1637  -18.5140 N   0  0  0  0  0  0  0  0  0  0  0  0
    7.3851    2.8224  -19.1164 N   0  3  0  0  0  0  0  0  0  0  0  0
    3.9989    2.9914  -20.4197 N   0  3  0  0  0  0  0  0  0  0  0  0
    2.6687    3.5305  -18.4963 N   0  0  0  0  0  0  0  0  0  0  0  0
    5.6662   -3.6076  -16.6167 O   0  0  0  0  0  0  0  0  0  0  0  0
    6.4395   -1.5368  -18.3018 F   0  0  0  0  0  0  0  0  0  0  0  0
    6.6327    1.6339  -16.5673 F   0  0  0  0  0  0  0  0  0  0  0  0
    7.1810    3.5069  -15.5156 F   0  0  0  0  0  0  0  0  0  0  0  0
    6.5122   -0.6193  -23.9593 H   0  0  0  0  0  0  0  0  0  0  0  0
    2.5887   -4.8056  -19.7768 H   0  0  0  0  0  0  0  0  0  0  0  0
    5.7054   -2.4422  -22.4764 H   0  0  0  0  0  0  0  0  0  0  0  0
    3.3093   -2.9758  -21.2992 H   0  0  0  0  0  0  0  0  0  0  0  0
    6.4610    1.7361  -23.1830 H   0  0  0  0  0  0  0  0  0  0  0  0
    3.7002   -5.1006  -17.5715 H   0  0  0  0  0  0  0  0  0  0  0  0
    4.3152    3.3081  -23.2354 H   0  0  0  0  0  0  0  0  0  0  0  0
    7.5172    4.6252  -20.6608 H   0  0  0  0  0  0  0  0  0  0  0  0
    4.7680    0.4537  -19.4264 H   0  0  0  0  0  0  0  0  0  0  0  0
    5.1239    4.9022  -24.9527 H   0  0  0  0  0  0  0  0  0  0  0  0
    8.2048    6.2200  -22.4235 H   0  0  0  0  0  0  0  0  0  0  0  0
    4.6352    3.2984  -16.4485 H   0  0  0  0  0  0  0  0  0  0  0  0
    5.5185    4.7144  -17.1128 H   0  0  0  0  0  0  0  0  0  0  0  0
    8.0636    4.3425  -17.8024 H   0  0  0  0  0  0  0  0  0  0  0  0
    8.7737    2.7175  -17.5169 H   0  0  0  0  0  0  0  0  0  0  0  0
    5.6492   -3.0674  -14.6011 H   0  0  0  0  0  0  0  0  0  0  0  0
    5.1389   -1.7845  -15.7500 H   0  0  0  0  0  0  0  0  0  0  0  0
    4.0386   -3.1582  -15.3911 H   0  0  0  0  0  0  0  0  0  0  0  0
    8.0446    2.4531  -19.7711 H   0  0  0  0  0  0  0  0  0  0  0  0
    3.2404    2.9681  -21.0709 H   0  0  0  0  0  0  0  0  0  0  0  0
    1.8177    3.5516  -19.0210 H   0  0  0  0  0  0  0  0  0  0  0  0
    2.6546    3.7137  -17.5133 H   0  0  0  0  0  0  0  0  0  0  0  0
  1  3  2  0  0  0  0
  1  5  1  0  0  0  0
  2  4  1  0  0  0  0
  2  6  2  0  0  0  0
  3 12  1  0  0  0  0
  4 13  2  0  0  0  0
  5 14  2  0  0  0  0
  6 16  1  0  0  0  0
  7 10  2  0  0  0  0
  7 15  1  0  0  0  0
  8 11  1  0  0  0  0
  8 15  2  0  0  0  0
  9 12  2  0  0  0  0
  9 14  1  0  0  0  0
 10 25  1  0  0  0  0
 11 25  2  0  0  0  0
 12 13  1  0  0  0  0
 13 17  1  0  0  0  0
 14 22  1  0  0  0  0
 15 22  1  0  0  0  0
 16 17  2  0  0  0  0
 16 30  1  0  0  0  0
 17 31  1  0  0  0  0
 18 22  1  0  0  0  0
 18 26  1  0  0  0  0
 18 27  2  0  0  0  0
 19 26  1  0  0  0  0
 19 28  2  0  0  0  0
 19 29  1  0  0  0  0
 20 23  1  0  0  0  0
 20 26  1  0  0  0  0
 21 23  1  0  0  0  0
 21 27  1  0  0  0  0
 22 28  1  0  0  0  0
 23 32  1  0  0  0  0
 23 33  1  0  0  0  0
 24 30  1  0  0  0  0
  1 34  1  0  0  0  0
  2 35  1  0  0  0  0
  3 36  1  0  0  0  0
  4 37  1  0  0  0  0
  5 38  1  0  0  0  0
  6 39  1  0  0  0  0
  7 40  1  0  0  0  0
  8 41  1  0  0  0  0
  9 42  1  0  0  0  0
 10 43  1  0  0  0  0
 11 44  1  0  0  0  0
 20 45  1  0  0  0  0
 20 46  1  0  0  0  0
 21 47  1  0  0  0  0
 21 48  1  0  0  0  0
 24 49  1  0  0  0  0
 24 50  1  0  0  0  0
 24 51  1  0  0  0  0
 27 52  1  0  0  0  0
 28 53  1  0  0  0  0
 29 54  1  0  0  0  0
 29 55  1  0  0  0  0
M  CHG  2  27   1  28   1
M  END
> <OMEGA_C>
+UjEQF6Axb7WzLfBLjdYQNhAhMB3z5vBi/u1QGCJtb9JEbHBGfhxQFjgRcD8rKLBNePCQBe9cz+S
ULTBoC6AQAmEicAJzpHBVuulQGC0ekCYTrjBADjfQIUslUBvwazBJqOkQCTAaD6FTaPBZ3m0QE2/
mkCzDMDBRZ/rQNkeskCeyrTB+d2mQPq3jr8OuqbBZ5mZQN25DMCsfJ/BcQWyQEoVpD9xFqrBt+O7
QDABc0D0eq7B7wehQHuWWsBXmY7BRL2tQGkoF8AgbJXBfbnDQG9HOkDEpJvBw7x3QMLFT0CDEJnB
GuitQFCKZ0D+EInBv1T7QD7VUEBQM47BQFatQNOaL0C4LqbBqe3YQNbXPkC/m4XB3tiiQEQKN8Aw
ZXjBH6PWQJhitEDgOr7BXfqjQAx6SkCZHJTByVLsQOihNEBe7pjBGu5/QIJzP0CLW6PBjcsqQDnz
YUBS+JPBiVG1QCPjZsAN74TBbRDOQES1xL8JapLB4D7UQPIk0T/riYTB4crlQHdxYEDnP3jBtGPQ
QDKHHr+grL/BxawlQDDHmcD1Np7BX5K2QJJMHMDCz7PB98tTQGFzPsC6ZKrBjsDOQK443j+/drnB
PNBsQIY4o8B8kozBFBaKQBu4U0AZ4rnBv4zwQAwClEBFSaXBwJOYQIlK6D4/aZvBxvajQMnenEAQ
n8fB7kYDQdkJx0BqY7PBZ1OUQLMYU0CSloPBopewQITclkD45ojBcgQBQQ72ikBba47BM2EMQRbr
LUCRIozBXca0QPVQRMD8nWnBPHKkQMtp5L/0/3vBfDyBQGwgSsD/QXbBt7YAQbn/HEBKK57BkGJP
QFT1PUBGkajBC6roP4lNY0AKK5jBXeUpQDatbUAyG4zB

> <OMEGA_E>
ZrwgPw==

> <OMEGA_NBR>
      2218

$$$$
50156595
  -OEChem-04172616093D

 46 49  0     1  0  0  0  0  0999 V2000
    4.6242   -0.7637  -22.3491 C   0  0  0  0  0  0  0  0  0  0  0  0
    4.4835    0.5659  -21.9031 C   0  0  0  0  0  0  0  0  0  0  0  0
    5.1551    3.7918  -23.0577 C   0  0  0  0  0  0  0  0  0  0  0  0
    6.8969    4.6356  -21.5740 C   0  0  0  0  0  0  0  0  0  0  0  0
    5.5077    4.7628  -24.0181 C   0  0  0  0  0  0  0  0  0  0  0  0
    7.2538    5.5909  -22.5359 C   0  0  0  0  0  0  0  0  0  0  0  0
    5.8472   -1.4415  -22.1836 C   0  0  0  0  0  0  0  0  0  0  0  0
    6.8184    0.5652  -21.2029 C   0  0  0  0  0  0  0  0  0  0  0  0
    5.8425    3.7191  -21.8198 C   0  0  0  0  0  0  0  0  0  0  0  0
    5.5715    1.2396  -21.2904 C   0  0  0  0  0  0  0  0  0  0  0  0
    6.5458    5.6808  -23.7531 C   0  0  0  0  0  0  0  0  0  0  0  0
    6.9436   -0.7755  -21.6064 C   0  0  0  0  0  0  0  0  0  0  0  0
    6.1076    2.8574  -19.4336 C   0  0  0  0  0  0  0  0  0  0  0  0
    3.8822    3.2967  -19.1356 C   0  0  0  0  0  0  0  0  0  0  0  0
    6.8853    3.8771  -16.9094 C   0  0  0  0  0  0  0  0  0  0  0  0
    5.4135    3.4521  -17.0900 C   0  0  0  0  0  0  0  0  0  0  0  0
    7.8045    2.8821  -17.6521 C   0  0  0  0  0  0  0  0  0  0  0  0
    5.4072    2.6844  -20.7630 C   0  0  1  0  0  0  0  0  0  0  0  0
    6.7486    8.0148  -24.3403 C   0  0  0  0  0  0  0  0  0  0  0  0
    5.1493    3.3278  -18.5459 N   0  0  0  0  0  0  0  0  0  0  0  0
    7.3598    2.6862  -19.0576 N   0  3  0  0  0  0  0  0  0  0  0  0
    3.9959    2.9688  -20.4051 N   0  3  0  0  0  0  0  0  0  0  0  0
    2.6829    3.5864  -18.4969 N   0  0  0  0  0  0  0  0  0  0  0  0
    6.8941    6.6127  -24.7156 O   0  0  0  0  0  0  0  0  0  0  0  0
    7.5466    8.3660  -23.2955 F   0  0  0  0  0  0  0  0  0  0  0  0
    5.4520    8.2925  -24.0316 F   0  0  0  0  0  0  0  0  0  0  0  0
    7.1114    8.7719  -25.4068 F   0  0  0  0  0  0  0  0  0  0  0  0
    8.6038   -1.6867  -21.3557 Br  0  0  0  0  0  0  0  0  0  0  0  0
    3.7909   -1.2644  -22.8196 H   0  0  0  0  0  0  0  0  0  0  0  0
    3.5400    1.0761  -22.0288 H   0  0  0  0  0  0  0  0  0  0  0  0
    4.3547    3.0976  -23.2671 H   0  0  0  0  0  0  0  0  0  0  0  0
    7.4305    4.5970  -20.6359 H   0  0  0  0  0  0  0  0  0  0  0  0
    4.9810    4.8038  -24.9601 H   0  0  0  0  0  0  0  0  0  0  0  0
    8.0769    6.2632  -22.3438 H   0  0  0  0  0  0  0  0  0  0  0  0
    5.9433   -2.4700  -22.4989 H   0  0  0  0  0  0  0  0  0  0  0  0
    7.6820    1.0895  -20.8213 H   0  0  0  0  0  0  0  0  0  0  0  0
    7.0286    4.8866  -17.3222 H   0  0  0  0  0  0  0  0  0  0  0  0
    7.1373    3.8796  -15.8387 H   0  0  0  0  0  0  0  0  0  0  0  0
    5.2402    2.4853  -16.5949 H   0  0  0  0  0  0  0  0  0  0  0  0
    4.7489    4.2121  -16.6532 H   0  0  0  0  0  0  0  0  0  0  0  0
    8.8322    3.2744  -17.6522 H   0  0  0  0  0  0  0  0  0  0  0  0
    7.7816    1.9141  -17.1301 H   0  0  0  0  0  0  0  0  0  0  0  0
    8.0355    2.4145  -19.7429 H   0  0  0  0  0  0  0  0  0  0  0  0
    3.2297    2.9180  -21.0457 H   0  0  0  0  0  0  0  0  0  0  0  0
    1.8238    3.5532  -19.0075 H   0  0  0  0  0  0  0  0  0  0  0  0
    2.6788    3.8280  -17.5265 H   0  0  0  0  0  0  0  0  0  0  0  0
  1  2  1  0  0  0  0
  1  7  2  0  0  0  0
  2 10  2  0  0  0  0
  3  5  2  0  0  0  0
  3  9  1  0  0  0  0
  4  6  1  0  0  0  0
  4  9  2  0  0  0  0
  5 11  1  0  0  0  0
  6 11  2  0  0  0  0
  7 12  1  0  0  0  0
  8 10  1  0  0  0  0
  8 12  2  0  0  0  0
  9 18  1  0  0  0  0
 10 18  1  0  0  0  0
 11 24  1  0  0  0  0
 12 28  1  0  0  0  0
 13 18  1  0  0  0  0
 13 20  1  0  0  0  0
 13 21  2  0  0  0  0
 14 20  1  0  0  0  0
 14 22  2  0  0  0  0
 14 23  1  0  0  0  0
 15 16  1  0  0  0  0
 15 17  1  0  0  0  0
 16 20  1  0  0  0  0
 17 21  1  0  0  0  0
 18 22  1  0  0  0  0
 19 24  1  0  0  0  0
 19 25  1  0  0  0  0
 19 26  1  0  0  0  0
 19 27  1  0  0  0  0
  1 29  1  0  0  0  0
  2 30  1  0  0  0  0
  3 31  1  0  0  0  0
  4 32  1  0  0  0  0
  5 33  1  0  0  0  0
  6 34  1  0  0  0  0
  7 35  1  0  0  0  0
  8 36  1  0  0  0  0
 15 37  1  0  0  0  0
 15 38  1  0  0  0  0
 16 39  1  0  0  0  0
 16 40  1  0  0  0  0
 17 41  1  0  0  0  0
 17 42  1  0  0  0  0
 21 43  1  0  0  0  0
 22 44  1  0  0  0  0
 23 45  1  0  0  0  0
 23 46  1  0  0  0  0
M  CHG  2  21   1  22   1
M  END
> <OMEGA_C>
IfmTQEiDQ78My7LBGHmPQOPfED+LOa/B3vakQCWsckAxdrjBe7PcQKxWlECjl6zBMz+wQBZpmEAc
JcDBux7oQG7oskCNSbTBfxy7QBmEuL/+d7HB+S/aQByvED+Nn6nBs/W6QNwFbkDvjq7BGkqyQLqp
nj+lUqrBBXfRQEfJtUBaBr7BBzLeQLuIRr/U2azBQnHDQGvfNkDxd5vBa3Z4QOb9UkCzFZnBe1Tc
QCUieECKRofBPTutQALwXEBruIjBer75QAt1OECDN43B+getQHTNK0C4GqbBt/TXQLo8AEEFucLB
WsekQOr6VEDuXZTBu4PrQD3qK0DtdZjBELx/QJQBPkCQPaPBCbUrQECHZUCk+ZPBI5zcQPya00CG
ucXB/X3xQPXaBUEdXbrB4HauQAeuBEGuQMDBeZDjQINZDEEXQcvB+KgJQaHm179j2KrBjp1yQCLZ
ob98jrbBj45iQOe8iT/mOrDBr1mLQEU/RkAdI7rBpcbtQFgak0A8FqXB/GOfQI+4mUAzrsfB5DoB
QcVryEAmwLLBlS++QEsUHsDT/bPBotL1QAR1iz/vkabBP+rgQNlenEDsk4rBkGTkQJ1LeEBIa33B
E7CnQMUOH0BowoTBn/aXQD/JhkDYOYXBmFANQTGQUUC5N43BxAL5QHsC9T+LConBT5EAQRKHGkCC
8Z3Bl7NOQBDAOkCgXajBL3HpP1xoY0BtD5jBG3IrQMj9dEBVNozBJTq0QG4z377UrLjByeyvQLeX
ZT/TQrXB5bOhQHc/fkCRsbfBiuzeQAu+k0D1zqzBNmOuQLMnnEDEnr/BcVnqQLl7skCthbTBqF+8
QPUAur9yNrHBYwe6QOkbQT6Hy6LByX+6QC9OckDTWa7BdluzQEIfnz93ParBskvSQCnMtkAU/L3B
O3m/QGO/kb/5R6bBa6nDQHmjOUDOn5vB46F4QMnVU0DnNJnB0KLcQBUddkCOSIfB1jatQCy1XUCq
2IjBCm35QMdQNUCrR43B4R+tQKfrLEDOJ6bBb4O/QBgf9ECgvMjBl/ykQKsAWECOhpTBPi/rQBss
KUBjkJjBTpR/QOLvOkDhPaPBqu4rQCt7Z0BmJJTBZDPfQBti1EBlj8XB2XCwQLHMBEF2CMDBnTye
QNWP4kDHM87BZ/rSQFNBCEH6WM/BdzfLQOHdIMAxIJzBR0GxQNB6Lb8nEMHBeOqpQHXs1T+/F7vB
D42EQBgRWkDKu7jBnvvxQFdOkEADp6XB5KCcQCQsnkDYA8fBiNwCQc3hxkAtLbPBRz/AQIRWHsBU
3LPBYO66QNSa0T4tV5rBKzPiQMtgm0CyeorBA3PkQEkDdUB5aH3BLL2mQPGPH0CxCoXB3YaYQHl4
h0AhRIXBKUUNQTgwTUAGRo3BaRv4QN+37j8/HYnBkB4AQUHoE0Bu+J3B2itOQP+hMkA5OKjBrH3p
P8YgY0AgKJjBUu0rQJ/4eUC7e4zBKF7dQCA5Ur4HVbbBe67VQAY+iT/7C7LBThugQDX7cUCscLfB
asnZQBAFlEAWCazBLuysQCXflECWjr/BWkXmQFQZsEBtIrTBitDEQOrApr9847LBAqecQIEwHz6D
4qbBqfq2QO9lb0AGua3BVF+0QDyfoj/KeqrBGlrQQJoysEAZ673BK8GkQNKgj7/6GqvBtpzCQKtC
NEAnbJvB3ot4QEdSV0BpIZnBN2rcQLszdkDNbIfBEjetQBP2XEC+5ojBn6j5QFI4NkAEcI3BqKyr
QFbsKUC7wKXB1he/QK6S6UCBiMnB/halQHCcWEA9g5TB3lnqQHbnJEBah5jBRgV9QDkJNkAdwqLB
CrUtQJNPc0CYUZTBiH/eQEF6y0C8uMXBlZOoQHYX+0ChQcHBJeSjQKWV1kBVktDB4Y/UQPuLBEGS
qs7BGzGEQPzzJsCBNqbBtxr2QOMOsL5fQ7zBhDfpQN8s9D/ehbTBPbaEQKXhSEBAmrjB/53qQCTb
k0BHfaTBp9GbQPCNlUASEMfBjmEAQR+1xUAe3rLBIozKQM0jEsBMNrbBxzGEQMEDkj6O3qDBfYTh
QBZ6m0BqoorBNWTkQGxcdUCKtX3BsiunQOI6HkBFNIXBt1KYQEylhkB3NIXBARUNQSMIUUCS2Y3B
pV36QMAi8z8s+YjBz9H+QNgBDUBj553Bs8dKQJ4vJ0B3WqfBsA/sP1TNbkAzOZjBH2EvQCsChkAa
8YzBHAffQGh/9b0bwbbBWtrWQI79kD9DFrLBA9+eQBLecEB3VbfB8w3ZQCe6k0AGFqzBC7qsQLdy
kkCdur/Bqa7mQPO/rUAEfLTBqqbGQJB9nr/ns7PB9XSdQJyfHD5PZafByr21QF7Sb0Btl63BDgC1
QCT+pD8ql6rBUgbRQARqrEANVb7B5UqmQNQijb/j76vBhWTCQFtoNEAxVJvBLE54QNz1V0AuC5nB
P3XcQJ5odEDNPofBNQCtQOiKXUAV0YjBeA/5QI5dM0DYQ43BekirQDLtKUBgoqXBlrDNQM078EAZ
NMbBDQKlQCRxWUD4b5TBtg7qQBBWJEAkbpjBUkd8QHE6NECEiqLBWu8tQKJOdkAyV5TBEq3eQGaD
xUDykMbBghaiQCNc70B3d8bB1mPcQGusAkEY6c7Bhv7aQKyBAkG5Nr3BCb2GQKcKKMA5ZKfBO/z3
QPmaZL5mrLzBFWvqQFHF/T9jNbTBjbiCQE+BSUAWSrjB11XpQOjDlEAfeKTB8qubQO6dkkBVPsfB
Q98AQfLSwkATbbPB0bzMQG3aDMDzT7fB8pWEQB+gfj4ccqHB+2ziQBSImkA6ZIrBDDTkQDu5ckDA
U33BABSmQA8sH0DXHoXBdKKYQBh5h0CqKIXBLv0MQeQ3TEC8hY3BpJr4QHtk7D8L6YjBO6X+QLZ7
DUD/2J3Bs+pJQDPIIkBK+KbBzFnsPz64cUCvOZjBfAgwQENliED7D43B2DveQEDsN77bSLbBF+/W
QOhBiz9/xrHBOoufQP64cUCdebfB0wjbQN2ekkD9eqzBqIqsQPG0k0Cpzr/Bv/DnQOtRrUB80bTB
BDrEQEItor+JWLPBbFKbQPgBOz5SbafBNQa3QChcb0B4063BfZe0QMTipD+tf6rBMdDQQBC4rUDL
g77Blw2jQO30ir8n3KvBnsLCQMn0NUCPXJvB4Yx4QNxvV0BfEJnBdUHcQMOIdUC6MofBW+SsQNV7
XkD514jBavX4QMFaNEAYKI3BstqrQJDjKkA7uKXBPKjcQGTo9ECHUsTBlyGlQLGbWkA/fJTB6Trq
QPInJUDQWZjBWGF9QAcQN0BMvKLBpjwtQHQGcUAcKZTBNI3cQKrLx0AL0cbBUAMAQZ3Y/0Aimb7B
k6S4QHwbAEGx0b7BRGXdQHAzBUFVuM3BYYCAQIHMI8CJoafBScf3QDnior5i/7vBeo7rQLEU9T/a
2rPBb4ODQJj/SUCoarjBvHbsQGeAkkALBaXBlcCaQMpwlEBlNsfBpM0BQaOrwUD42rPBO7HJQC9l
D8Dq07bBIvaBQCHjnz5ZpqHBC0jiQMYQm0AdW4rBcsrjQOoIdEBYNX3BHvilQOX9H0D6LYXB8mKY
QHHZh0DaMYXBtfIMQR4hTUAWXo3BOVv4QLWC7j+nyYjBu+L+QPeXDUBMtJ3BnT5LQAbQKEDEYKfB
TALrP5tWa0BVB5jB/Z4uQLKWhEAOwYzB

> <OMEGA_E>
GDDuPuCJ6z7YyMQ+wBTJPlikxz4=

> <OMEGA_NBR>
      6503

$$$$
50156586
  -OEChem-04172616093D

 54 58  0     1  0  0  0  0  0999 V2000
    6.7916   -0.1803  -22.8757 C   0  0  0  0  0  0  0  0  0  0  0  0
    6.1764   -1.2790  -22.2493 C   0  0  0  0  0  0  0  0  0  0  0  0
    6.5425    1.1228  -22.4080 C   0  0  0  0  0  0  0  0  0  0  0  0
    6.9005    4.5506  -21.5770 C   0  0  0  0  0  0  0  0  0  0  0  0
    4.9390    3.9087  -22.8903 C   0  0  0  0  0  0  0  0  0  0  0  0
    7.3097    5.3984  -22.6083 C   0  0  0  0  0  0  0  0  0  0  0  0
    5.3514    4.7584  -23.9210 C   0  0  0  0  0  0  0  0  0  0  0  0
    4.9933    0.2360  -20.7571 C   0  0  0  0  0  0  0  0  0  0  0  0
    4.6227   -3.4528  -20.8512 C   0  0  0  0  0  0  0  0  0  0  0  0
    4.6695   -1.9878  -18.9248 C   0  0  0  0  0  0  0  0  0  0  0  0
    4.1093   -4.2365  -18.7077 C   0  0  0  0  0  0  0  0  0  0  0  0
    5.3113   -1.0659  -21.1524 C   0  0  0  0  0  0  0  0  0  0  0  0
    4.8426   -2.1727  -20.3162 C   0  0  0  0  0  0  0  0  0  0  0  0
    5.7178    3.7885  -21.7187 C   0  0  0  0  0  0  0  0  0  0  0  0
    5.6066    1.3355  -21.3600 C   0  0  0  0  0  0  0  0  0  0  0  0
    6.5487    5.5004  -23.7832 C   0  0  0  0  0  0  0  0  0  0  0  0
    6.0677    2.7714  -19.4276 C   0  0  0  0  0  0  0  0  0  0  0  0
    3.8698    3.2971  -19.1220 C   0  0  0  0  0  0  0  0  0  0  0  0
    6.7932    3.2011  -16.7214 C   0  0  0  0  0  0  0  0  0  0  0  0
    5.4752    3.8048  -17.2349 C   0  0  0  0  0  0  0  0  0  0  0  0
    7.8546    3.2316  -17.8432 C   0  0  0  0  0  0  0  0  0  0  0  0
    5.3550    2.6984  -20.7403 C   0  0  1  0  0  0  0  0  0  0  0  0
    6.0215    7.0633  -25.4967 C   0  0  0  0  0  0  0  0  0  0  0  0
    4.2562   -4.4647  -20.0383 N   0  0  0  0  0  0  0  0  0  0  0  0
    4.3065   -3.0206  -18.1441 N   0  0  0  0  0  0  0  0  0  0  0  0
    5.1032    3.1102  -18.4871 N   0  0  0  0  0  0  0  0  0  0  0  0
    7.3300    2.6142  -19.0919 N   0  3  0  0  0  0  0  0  0  0  0  0
    3.9404    2.8712  -20.3609 N   0  3  0  0  0  0  0  0  0  0  0  0
    2.7373    3.8465  -18.5419 N   0  0  0  0  0  0  0  0  0  0  0  0
    7.0247    6.3220  -24.7761 O   0  0  0  0  0  0  0  0  0  0  0  0
    7.4541   -0.3368  -23.7142 H   0  0  0  0  0  0  0  0  0  0  0  0
    6.3643   -2.2813  -22.6051 H   0  0  0  0  0  0  0  0  0  0  0  0
    7.0627    1.9620  -22.8457 H   0  0  0  0  0  0  0  0  0  0  0  0
    7.4863    4.4770  -20.6727 H   0  0  0  0  0  0  0  0  0  0  0  0
    4.0240    3.3438  -22.9902 H   0  0  0  0  0  0  0  0  0  0  0  0
    8.2150    5.9776  -22.5015 H   0  0  0  0  0  0  0  0  0  0  0  0
    4.7584    4.8482  -24.8192 H   0  0  0  0  0  0  0  0  0  0  0  0
    4.2644    0.3934  -19.9758 H   0  0  0  0  0  0  0  0  0  0  0  0
    4.7467   -3.6261  -21.9100 H   0  0  0  0  0  0  0  0  0  0  0  0
    4.8295   -1.0133  -18.4877 H   0  0  0  0  0  0  0  0  0  0  0  0
    3.8227   -5.0605  -18.0710 H   0  0  0  0  0  0  0  0  0  0  0  0
    7.1527    3.7865  -15.8623 H   0  0  0  0  0  0  0  0  0  0  0  0
    6.6211    2.1603  -16.4096 H   0  0  0  0  0  0  0  0  0  0  0  0
    4.6844    3.6655  -16.4832 H   0  0  0  0  0  0  0  0  0  0  0  0
    5.6095    4.8788  -17.4312 H   0  0  0  0  0  0  0  0  0  0  0  0
    8.1319    4.2763  -18.0475 H   0  0  0  0  0  0  0  0  0  0  0  0
    8.7435    2.6743  -17.5125 H   0  0  0  0  0  0  0  0  0  0  0  0
    6.5053    7.6857  -26.2639 H   0  0  0  0  0  0  0  0  0  0  0  0
    5.3242    6.3627  -25.9793 H   0  0  0  0  0  0  0  0  0  0  0  0
    5.4686    7.7075  -24.7972 H   0  0  0  0  0  0  0  0  0  0  0  0
    7.9386    2.0786  -19.6772 H   0  0  0  0  0  0  0  0  0  0  0  0
    3.1567    2.6916  -20.9555 H   0  0  0  0  0  0  0  0  0  0  0  0
    1.8972    3.9400  -19.0761 H   0  0  0  0  0  0  0  0  0  0  0  0
    2.7604    4.1494  -17.5892 H   0  0  0  0  0  0  0  0  0  0  0  0
  1  2  1  0  0  0  0
  1  3  2  0  0  0  0
  2 12  2  0  0  0  0
  3 15  1  0  0  0  0
  4  6  2  0  0  0  0
  4 14  1  0  0  0  0
  5  7  1  0  0  0  0
  5 14  2  0  0  0  0
  6 16  1  0  0  0  0
  7 16  2  0  0  0  0
  8 12  1  0  0  0  0
  8 15  2  0  0  0  0
  9 13  1  0  0  0  0
  9 24  2  0  0  0  0
 10 13  2  0  0  0  0
 10 25  1  0  0  0  0
 11 24  1  0  0  0  0
 11 25  2  0  0  0  0
 12 13  1  0  0  0  0
 14 22  1  0  0  0  0
 15 22  1  0  0  0  0
 16 30  1  0  0  0  0
 17 22  1  0  0  0  0
 17 26  1  0  0  0  0
 17 27  2  0  0  0  0
 18 26  1  0  0  0  0
 18 28  2  0  0  0  0
 18 29  1  0  0  0  0
 19 20  1  0  0  0  0
 19 21  1  0  0  0  0
 20 26  1  0  0  0  0
 21 27  1  0  0  0  0
 22 28  1  0  0  0  0
 23 30  1  0  0  0  0
  1 31  1  0  0  0  0
  2 32  1  0  0  0  0
  3 33  1  0  0  0  0
  4 34  1  0  0  0  0
  5 35  1  0  0  0  0
  6 36  1  0  0  0  0
  7 37  1  0  0  0  0
  8 38  1  0  0  0  0
  9 39  1  0  0  0  0
 10 40  1  0  0  0  0
 11 41  1  0  0  0  0
 19 42  1  0  0  0  0
 19 43  1  0  0  0  0
 20 44  1  0  0  0  0
 20 45  1  0  0  0  0
 21 46  1  0  0  0  0
 21 47  1  0  0  0  0
 23 48  1  0  0  0  0
 23 49  1  0  0  0  0
 23 50  1  0  0  0  0
 27 51  1  0  0  0  0
 28 52  1  0  0  0  0
 29 53  1  0  0  0  0
 29 54  1  0  0  0  0
M  CHG  2  27   1  28   1
M  END
> <OMEGA_C>
EFXZQFihOL5nAbfBIqXFQK62o7+H/rHBLlzRQEC3jz+pQ7PB6NDcQDmekUC7nazBsgyeQHUoekA/
H7fBPOnpQGW/rEC+3bTBmD6rQGtEmEAwXr/B7MifQMakcT5yDqbBT+2TQIj6XMBGz6bBoGyVQAhx
/r8NZpfBAH+DQK+Rh8BlqZXBhPapQIxviL8UOKnByPaaQEwOC8Coh6LBnPi2QIl3ckDQv63B7miz
QKbyqj824arB7I7RQAQDsEAGRL7BXirCQOReMUDGa5vBx6p3QEwDU0DN+ZjBgGHZQBTfTEBXxYXB
9DSvQEmCc0Ar4YnBKln7QDzTTkDXvo7BCFyrQMmyLEAq7KXBSLDAQLAG4kBS+cvBbjKIQDPfjsBn
TqDBos6JQIdRQcAmJ5HByk2jQMIMR0B/5ZPBBI/qQNJPJ0BIvJjBUS98QDHBN0AP46LBKjAvQBEt
dkDWVZTBWsrgQO9NykBiNcbB+ofuQBFsrL6gtr3BXKjLQFwAEsAl17TB+wHiQHMh+z/zw7bB5Y/v
QFJDj0CsYaXB3MSAQJAAVkDu67fBdXADQbZIv0ACA7TBKEWYQGQkm0CtjcbBtHWIQIptyT6Bzp/B
TuWXQHcSaMCdR6/BfYuaQMuzgb/H5pPBZaZ0QFzvocBskZDBJ+PkQKlWckD5y33B+N/TQCZDCkDY
RoPBQeaVQDaYakCQ3YPBYYGzQEYfnEADc4vBSxwCQaXXiEBcYZDBR+ULQXIoK0CFGYzBZSvQQI/x
9UB8HNLBi1+qQJaby0Cp1c/BHP+uQMqj9kCnYMbBLQn+QGAHBUD+ap3BowdKQKtCLEDkpKfB0dXy
Px8pfEDmm5jBxakwQATIhECgtozBMPuWQCSrab8pNrDByGm/QB7JoL8uILTB7k+RQC9Imj7W0arB
apikQKdLakCr17fBYCnYQFenlUAknavBLP2tQC9RlECihL/BbrLhQAC1tEDmU7PBREfcQEK7Vz8D
5K3BMKn8QMwTKsC+OKjBPIAPQfoYGL8//aLBbpAVQTWTJcBlr5nB5PbiQGBVA7/GirDBgisBQQbz
ob+r7KnBfIC5QAb+akAD2K3BwDWzQNVRnj8BbarBnNbMQLdqtEALS73B1OTCQFYVL0BGJpvBBvl4
QEY7UkCjG5nBMg7ZQP+yUUBooYXBpl6uQOWQdECw4YnBVh/7QBhjVkCQi47BlpqsQP7CJ0CAsaXB
REXHQNAy0EB3Ms/BqmAIQSh2UsClKaDBr2wZQQjYob/lCJvBHGqjQNi6RUD6y5PBwqPrQAggLEA3
fZjBYx1/QP17N0Bv/qLBZbEvQAQKdkD4wpTBGtLXQC0/1EAYdsTBe3F4QKtsyr+uV7HBx07DQNBb
BMAkvbnBj1tmQBvHBT8g+qbBLzSNQNhZOUChlLnBMDHoQEw5lkD69aPBPsCdQHb0k0D9JMfB5j35
QFUOzUBfnLHBZPn1QKbLxz/Rf67B6eXnQObwTcDiea3Bo4MSQVnk6z6XEaTBrlgdQUmKRsDoKZPB
D4HjQG5WeEDsgX3Bn+PUQMTCDkCkHIPBkR6VQEXYakA+34PBuXyxQLOlnEAFn4vBAR8BQbX2jECf
RpDBQjQMQZgTNkBazYvBg0rSQCdj60BbD9TBatHSQOUlskCTwdLBpRWkQAb3z0DG9M7BxjAAQcou
DUAdMp3BxcJNQCQAL0C1+afBUlr2P8O4fEDLQZnBSVAvQBKahED8II3B

> <OMEGA_E>
vDQUP5ROHD8=

> <OMEGA_NBR>
      8608

$$$$
50156572
  -OEChem-04172616093D

 54 57  0     1  0  0  0  0  0999 V2000
    6.8844    5.5966  -23.7084 C   0  0  0  0  0  0  0  0  0  0  0  0
    7.7239    4.5698  -23.2351 C   0  0  0  0  0  0  0  0  0  0  0  0
    5.5573    5.6861  -23.2487 C   0  0  0  0  0  0  0  0  0  0  0  0
    4.4715   -0.6448  -22.4509 C   0  0  0  0  0  0  0  0  0  0  0  0
    7.2370    3.6312  -22.3026 C   0  0  0  0  0  0  0  0  0  0  0  0
    5.0677    4.7530  -22.3147 C   0  0  0  0  0  0  0  0  0  0  0  0
    4.4131    0.6859  -22.0068 C   0  0  0  0  0  0  0  0  0  0  0  0
    5.6140   -1.4247  -22.2064 C   0  0  0  0  0  0  0  0  0  0  0  0
    6.6546    0.4667  -21.0721 C   0  0  0  0  0  0  0  0  0  0  0  0
    5.9020    3.7105  -21.8291 C   0  0  0  0  0  0  0  0  0  0  0  0
    5.4903    1.2511  -21.2817 C   0  0  0  0  0  0  0  0  0  0  0  0
    6.7288   -0.8762  -21.5207 C   0  0  0  0  0  0  0  0  0  0  0  0
    6.1081    2.9178  -19.4646 C   0  0  0  0  0  0  0  0  0  0  0  0
    3.8673    3.2222  -19.1115 C   0  0  0  0  0  0  0  0  0  0  0  0
    6.7744    2.9051  -16.7172 C   0  0  0  0  0  0  0  0  0  0  0  0
    5.4320    3.5442  -17.1218 C   0  0  0  0  0  0  0  0  0  0  0  0
    7.8549    3.2655  -17.7655 C   0  0  0  0  0  0  0  0  0  0  0  0
    5.3911    2.7078  -20.7735 C   0  0  1  0  0  0  0  0  0  0  0  0
    7.9084   -3.1595  -21.7967 C   0  0  0  0  0  0  0  0  0  0  0  0
    8.2522   -1.7954  -19.7142 C   0  0  0  0  0  0  0  0  0  0  0  0
    9.2353   -1.0323  -21.9191 C   0  0  0  0  0  0  0  0  0  0  0  0
    8.0079   -1.7070  -21.2461 C   0  0  0  0  0  0  0  0  0  0  0  0
    5.1189    3.0976  -18.5019 N   0  0  0  0  0  0  0  0  0  0  0  0
    7.3869    2.9966  -19.1573 N   0  3  0  0  0  0  0  0  0  0  0  0
    3.9807    2.9747  -20.3962 N   0  3  0  0  0  0  0  0  0  0  0  0
    2.6737    3.5367  -18.4748 N   0  0  0  0  0  0  0  0  0  0  0  0
    7.2586    6.3145  -24.4233 H   0  0  0  0  0  0  0  0  0  0  0  0
    8.7426    4.5013  -23.5871 H   0  0  0  0  0  0  0  0  0  0  0  0
    4.9129    6.4723  -23.6132 H   0  0  0  0  0  0  0  0  0  0  0  0
    3.6338   -1.0709  -22.9831 H   0  0  0  0  0  0  0  0  0  0  0  0
    7.8859    2.8451  -21.9457 H   0  0  0  0  0  0  0  0  0  0  0  0
    4.0490    4.8305  -21.9643 H   0  0  0  0  0  0  0  0  0  0  0  0
    3.5392    1.2836  -22.2199 H   0  0  0  0  0  0  0  0  0  0  0  0
    5.6443   -2.4505  -22.5431 H   0  0  0  0  0  0  0  0  0  0  0  0
    7.5007    0.9014  -20.5607 H   0  0  0  0  0  0  0  0  0  0  0  0
    7.0791    3.2855  -15.7310 H   0  0  0  0  0  0  0  0  0  0  0  0
    6.6603    1.8121  -16.6693 H   0  0  0  0  0  0  0  0  0  0  0  0
    4.6388    3.2179  -16.4331 H   0  0  0  0  0  0  0  0  0  0  0  0
    5.5149    4.6407  -17.0923 H   0  0  0  0  0  0  0  0  0  0  0  0
    8.0995    4.3339  -17.6721 H   0  0  0  0  0  0  0  0  0  0  0  0
    8.7554    2.6647  -17.5701 H   0  0  0  0  0  0  0  0  0  0  0  0
    8.8398   -3.7010  -21.5745 H   0  0  0  0  0  0  0  0  0  0  0  0
    7.0620   -3.6752  -21.3195 H   0  0  0  0  0  0  0  0  0  0  0  0
    7.7528   -3.1291  -22.8852 H   0  0  0  0  0  0  0  0  0  0  0  0
    9.1603   -2.3853  -19.5206 H   0  0  0  0  0  0  0  0  0  0  0  0
    8.3788   -0.7826  -19.3041 H   0  0  0  0  0  0  0  0  0  0  0  0
    7.3904   -2.2808  -19.2329 H   0  0  0  0  0  0  0  0  0  0  0  0
   10.1377   -1.6286  -21.7189 H   0  0  0  0  0  0  0  0  0  0  0  0
    9.0701   -0.9706  -23.0049 H   0  0  0  0  0  0  0  0  0  0  0  0
    9.3669   -0.0196  -21.5101 H   0  0  0  0  0  0  0  0  0  0  0  0
    8.0664    2.8721  -19.8803 H   0  0  0  0  0  0  0  0  0  0  0  0
    3.2143    2.9670  -21.0385 H   0  0  0  0  0  0  0  0  0  0  0  0
    1.8245    3.5864  -19.0006 H   0  0  0  0  0  0  0  0  0  0  0  0
    2.6634    3.7134  -17.4906 H   0  0  0  0  0  0  0  0  0  0  0  0
  1  2  1  0  0  0  0
  1  3  2  0  0  0  0
  2  5  2  0  0  0  0
  3  6  1  0  0  0  0
  4  7  1  0  0  0  0
  4  8  2  0  0  0  0
  5 10  1  0  0  0  0
  6 10  2  0  0  0  0
  7 11  2  0  0  0  0
  8 12  1  0  0  0  0
  9 11  1  0  0  0  0
  9 12  2  0  0  0  0
 10 18  1  0  0  0  0
 11 18  1  0  0  0  0
 12 22  1  0  0  0  0
 13 18  1  0  0  0  0
 13 23  1  0  0  0  0
 13 24  2  0  0  0  0
 14 23  1  0  0  0  0
 14 25  2  0  0  0  0
 14 26  1  0  0  0  0
 15 16  1  0  0  0  0
 15 17  1  0  0  0  0
 16 23  1  0  0  0  0
 17 24  1  0  0  0  0
 18 25  1  0  0  0  0
 19 22  1  0  0  0  0
 20 22  1  0  0  0  0
 21 22  1  0  0  0  0
  1 27  1  0  0  0  0
  2 28  1  0  0  0  0
  3 29  1  0  0  0  0
  4 30  1  0  0  0  0
  5 31  1  0  0  0  0
  6 32  1  0  0  0  0
  7 33  1  0  0  0  0
  8 34  1  0  0  0  0
  9 35  1  0  0  0  0
 15 36  1  0  0  0  0
 15 37  1  0  0  0  0
 16 38  1  0  0  0  0
 16 39  1  0  0  0  0
 17 40  1  0  0  0  0
 17 41  1  0  0  0  0
 19 42  1  0  0  0  0
 19 43  1  0  0  0  0
 19 44  1  0  0  0  0
 20 45  1  0  0  0  0
 20 46  1  0  0  0  0
 20 47  1  0  0  0  0
 21 48  1  0  0  0  0
 21 49  1  0  0  0  0
 21 50  1  0  0  0  0
 24 51  1  0  0  0  0
 25 52  1  0  0  0  0
 26 53  1  0  0  0  0
 26 54  1  0  0  0  0
M  CHG  2  24   1  25   1
M  END
> <OMEGA_C>
Rk3cQGUXs0DWqr3B7in3QDE8kkB74bnBwdWxQDn0tUBZ/bnBOhaPQE8TJb9/m7PByJXnQN9laEC+
a7LBdyqiQLgYmEB8hLLBcTiNQEeaLz/eDbDBMKazQMhdtr+/prHBR/LUQPHy7j6uk6jBM928QBV4
bUARoq7B7bCvQHsloD/uQKrBXVLXQElMYL9wKqzBUnXDQDK9OkCNt5vBd4J3QHU4TkBc5JjB2MfY
QM3sOUDDvIXB89KtQNXUYkBa+YjBOlv7QCz+UEDSH47Br4OsQHpMLUAIMKbBxhH9QLA1SsCNX67B
NgkEQW3P5b+Vtp3BqMMTQQ8hhL9MWq/BPSAAQct92r8c+KnBos2jQMg/RkDMA5TBeWHsQODHP0Ai
QpnBicN+QA1hPkB1K6PBsR0rQO5YYkBezJPBPkboQF8QykDnYsPBpOELQX4KkEBjsrzBLjadQCwd
z0DX57zBrpBoQBQTib9x3bfBf1n8QL8WNkCxkK/BvZGBQJ6TmkDttq/BxoJiQINOpD9xwrHBAJ60
QFPUHMBYWLTBpwXwQBPDZj9ffKTB7ofiQMVFUkBgsnvBKiHVQJ7x5z+jWoXByHCUQMjxTUDzdoPB
LHqwQL6AlEALvYjBuZcBQTKvikCKYI3B6hUMQX+KKkCWj4zB8W8NQWjcbMCqmKzB6vvhQE42a8Bb
jqrB3hb4QG1DSMDSFLfBo5ASQWmoGMA6KpzBjA8GQVhVSL/NbprB8n3sQPL3EcAB3ZnB7TMiQel0
0L9TwK3BHh8RQVp3eL/4CbjByd4VQXfUoLy1FKzBJRABQTXQN0DUCp/B17ZNQCjjPUDtTqjBA4rp
P2iHZUAtAZjB2HUqQCWobUC17IvB

> <OMEGA_E>
UITqPg==

> <OMEGA_NBR>
      9812

$$$$
50093515
  -OEChem-04172616093D

 53 56  0     1  0  0  0  0  0999 V2000
    6.8082   -0.1978  -22.8199 C   0  0  0  0  0  0  0  0  0  0  0  0
    6.5417    1.1088  -22.3745 C   0  0  0  0  0  0  0  0  0  0  0  0
    6.9046    4.5716  -21.5745 C   0  0  0  0  0  0  0  0  0  0  0  0
    4.9808    3.9073  -22.9311 C   0  0  0  0  0  0  0  0  0  0  0  0
    6.1874   -1.2936  -22.1940 C   0  0  0  0  0  0  0  0  0  0  0  0
    7.3442    5.3963  -22.6092 C   0  0  0  0  0  0  0  0  0  0  0  0
    5.4243    4.7370  -23.9667 C   0  0  0  0  0  0  0  0  0  0  0  0
    4.9570    0.2296  -20.7465 C   0  0  0  0  0  0  0  0  0  0  0  0
    5.7300    3.7995  -21.7380 C   0  0  0  0  0  0  0  0  0  0  0  0
    5.5840    1.3327  -21.3498 C   0  0  0  0  0  0  0  0  0  0  0  0
    6.6103    5.4725  -23.8103 C   0  0  0  0  0  0  0  0  0  0  0  0
    5.3007   -1.0839  -21.1199 C   0  0  0  0  0  0  0  0  0  0  0  0
    6.0612    2.7894  -19.4466 C   0  0  0  0  0  0  0  0  0  0  0  0
    3.8617    3.2924  -19.1196 C   0  0  0  0  0  0  0  0  0  0  0  0
    5.4547    3.6944  -17.2006 C   0  0  0  0  0  0  0  0  0  0  0  0
    7.8483    3.2398  -17.8662 C   0  0  0  0  0  0  0  0  0  0  0  0
    5.3432    2.7157  -20.7528 C   0  0  1  0  0  0  0  0  0  0  0  0
    6.8080    3.1226  -16.7351 C   0  0  0  0  0  0  0  0  0  0  0  0
    4.8271   -2.0391  -18.9479 C   0  0  0  0  0  0  0  0  0  0  0  0
    6.2418   -1.8789  -18.3200 C   0  0  0  0  0  0  0  0  0  0  0  0
    7.0837    7.6607  -24.4927 C   0  0  0  0  0  0  0  0  0  0  0  0
    5.0936    3.0754  -18.4926 N   0  0  0  0  0  0  0  0  0  0  0  0
    7.3290    2.6504  -19.1258 N   0  3  0  0  0  0  0  0  0  0  0  0
    3.9328    2.9147  -20.3744 N   0  3  0  0  0  0  0  0  0  0  0  0
    2.7295    3.8169  -18.5145 N   0  0  0  0  0  0  0  0  0  0  0  0
    4.8455   -2.1749  -20.4068 O   0  0  0  0  0  0  0  0  0  0  0  0
    7.0306    6.2680  -24.8375 O   0  0  0  0  0  0  0  0  0  0  0  0
    6.6720    1.8105  -16.3982 F   0  0  0  0  0  0  0  0  0  0  0  0
    7.2403    3.8323  -15.6656 F   0  0  0  0  0  0  0  0  0  0  0  0
    6.8512   -0.7085  -18.6622 F   0  0  0  0  0  0  0  0  0  0  0  0
    8.2379    7.9571  -23.8367 F   0  0  0  0  0  0  0  0  0  0  0  0
    7.0233    8.3785  -25.6375 F   0  0  0  0  0  0  0  0  0  0  0  0
    7.4892   -0.3599  -23.6423 H   0  0  0  0  0  0  0  0  0  0  0  0
    7.0668    1.9446  -22.8127 H   0  0  0  0  0  0  0  0  0  0  0  0
    7.4597    4.5221  -20.6494 H   0  0  0  0  0  0  0  0  0  0  0  0
    4.0638    3.3480  -23.0439 H   0  0  0  0  0  0  0  0  0  0  0  0
    6.3908   -2.2972  -22.5374 H   0  0  0  0  0  0  0  0  0  0  0  0
    8.2472    5.9767  -22.4905 H   0  0  0  0  0  0  0  0  0  0  0  0
    4.8569    4.8116  -24.8826 H   0  0  0  0  0  0  0  0  0  0  0  0
    4.2042    0.3907  -19.9890 H   0  0  0  0  0  0  0  0  0  0  0  0
    4.6807    3.4668  -16.4528 H   0  0  0  0  0  0  0  0  0  0  0  0
    5.5368    4.7844  -17.3233 H   0  0  0  0  0  0  0  0  0  0  0  0
    8.0798    4.3020  -18.0341 H   0  0  0  0  0  0  0  0  0  0  0  0
    8.7642    2.7073  -17.5700 H   0  0  0  0  0  0  0  0  0  0  0  0
    4.3565   -2.9369  -18.5208 H   0  0  0  0  0  0  0  0  0  0  0  0
    4.2290   -1.1530  -18.6885 H   0  0  0  0  0  0  0  0  0  0  0  0
    6.1446   -1.9155  -17.2249 H   0  0  0  0  0  0  0  0  0  0  0  0
    6.8720   -2.7139  -18.6603 H   0  0  0  0  0  0  0  0  0  0  0  0
    6.2203    7.8996  -23.8544 H   0  0  0  0  0  0  0  0  0  0  0  0
    7.9445    2.1464  -19.7318 H   0  0  0  0  0  0  0  0  0  0  0  0
    3.1492    2.7821  -20.9814 H   0  0  0  0  0  0  0  0  0  0  0  0
    1.8876    3.9300  -19.0421 H   0  0  0  0  0  0  0  0  0  0  0  0
    2.7551    4.0820  -17.5506 H   0  0  0  0  0  0  0  0  0  0  0  0
  1  2  1  0  0  0  0
  1  5  2  0  0  0  0
  2 10  2  0  0  0  0
  3  6  2  0  0  0  0
  3  9  1  0  0  0  0
  4  7  1  0  0  0  0
  4  9  2  0  0  0  0
  5 12  1  0  0  0  0
  6 11  1  0  0  0  0
  7 11  2  0  0  0  0
  8 10  1  0  0  0  0
  8 12  2  0  0  0  0
  9 17  1  0  0  0  0
 10 17  1  0  0  0  0
 11 27  1  0  0  0  0
 12 26  1  0  0  0  0
 13 17  1  0  0  0  0
 13 22  1  0  0  0  0
 13 23  2  0  0  0  0
 14 22  1  0  0  0  0
 14 24  2  0  0  0  0
 14 25  1  0  0  0  0
 15 18  1  0  0  0  0
 15 22  1  0  0  0  0
 16 18  1  0  0  0  0
 16 23  1  0  0  0  0
 17 24  1  0  0  0  0
 18 28  1  0  0  0  0
 18 29  1  0  0  0  0
 19 20  1  0  0  0  0
 19 26  1  0  0  0  0
 20 30  1  0  0  0  0
 21 27  1  0  0  0  0
 21 31  1  0  0  0  0
 21 32  1  0  0  0  0
  1 33  1  0  0  0  0
  2 34  1  0  0  0  0
  3 35  1  0  0  0  0
  4 36  1  0  0  0  0
  5 37  1  0  0  0  0
  6 38  1  0  0  0  0
  7 39  1  0  0  0  0
  8 40  1  0  0  0  0
 15 41  1  0  0  0  0
 15 42  1  0  0  0  0
 16 43  1  0  0  0  0
 16 44  1  0  0  0  0
 19 45  1  0  0  0  0
 19 46  1  0  0  0  0
 20 47  1  0  0  0  0
 20 48  1  0  0  0  0
 21 49  1  0  0  0  0
 23 50  1  0  0  0  0
 24 51  1  0  0  0  0
 25 52  1  0  0  0  0
 25 53  1  0  0  0  0
M  CHG  2  23   1  24   1
M  END
> <OMEGA_C>
bNzZQHCESr46j7bBvFXRQCDtjT/3/rLBFvLcQFpKkkCcmKzBuGKfQO4QekDscrfB/f7FQECVpb9f
jbHB7gPrQCuurECw37TBCpStQK6Vl0Dcu7/B25+eQGQoaz7f+KXBUFy3QH8rc0B9563Bxa+yQNKW
qj9tzKrB5ofTQI4er0Bpe77B8Z6pQMi9ir+f9ajBSPXBQBCFMkCvkpvBTiV3QEq2UkDc9JjB04yu
QGBwbEDMmonBoiX7QDFZT0AQ7o7BMfuqQELNLUC8BabB0NrZQO/XR0CQ4YXBdneaQM1/AsA/lZfB
yrzHQAKB8L9fj5LB363iQCMk9UAK8cPBrP6iQALUREDt8JPB8obqQFifKUCzAZnBaLJ7QNiJOkC7
/qLBu7AuQPdHdEC4HZTBuQ6bQH8xC8AcQaPB2vrgQCCTyEAls8bB6oDVQNa+5z9/L4PB8bDnQGdE
dUA3pnrBLT3bQC5hNb8mTJXBTs4DQTyg/kCbsb7Blb7gQIgOBkGaGc3BX6fvQKhBuL58I73BTCPi
QDHq+D9wgLbB5LXuQAq1kEAQMqXByAqCQGxFVkD4WbjBsYHMQMEEE8CUTLTBi/QDQUxBv0B27LPB
sWubQD/4mUCgD8fBDomGQDUGyD6J6Z/BHciVQAfgXUBrn4PBYy2xQOAZmUANlorBAUcBQfOpiUDu
RZDB/DkMQdZELUBuj4zBaGiLQEr2O8CUKpTBQFSHQNGVk78RgpXBc6DEQFUv9b+jzInBJufbQAiw
LcA3SJXBvQzHQIPJ/EDS1b7BiTn+QO5eCUCl2p3BmYxJQF4NMkDh2afBC5zxP1KFe0AhVpjBNlMw
QPSfgkC1Z4zBymraQPSkMb4q37bBLQ3SQHoPkD9wFrPBYJXcQNzekUAFpKzB+FyeQERPeUBPS7fB
KVfGQADDo7/KELLBGkTqQOMfrEBh+7TBsjesQMMBl0DGpL/B1HmfQECgYz47LabBntW2QAS3ckDi
0q3BinyzQD6cqj9+1arBqkrSQHpvrkCogr7BJAqqQGayir9QcqnBRjvCQISHM0ADhZvBcHp3QDC/
VEA3/ZjB99+vQNgLd0ByAYrBW1X7QLdwSUCXio7B6zSrQKg3LUC+8qXBLIbYQB34SkDEwoXB39ab
QFZ0+7+sJ5jBzQ+eQFNgU8AMWZLB6u/cQFnH9EBtKMTBRb6jQCiSTEBTGZTBbVrqQGqPJkD7xpjB
IvN7QHK+OEAB4KLBwwouQLQVdEBGKJTBfiqcQM4AC8AGr6PBh1LfQJgRyEDjtsbB/kDPQAIn8j/N
14LBeGTnQGwbd0DXaXrBVNN4QJNpgsDCUJXBgfH+QFCFAEEsF77B3PTcQCmRBUEMbM3Bbz/wQCp3
pL70dr3BXuviQCDr+z+yd7bBbb7uQARBkEACTaXB+O+AQBWdVUBYFbjBjZ/MQGa4EcBL+7TB7pwD
QcauvkArJLTBL76ZQEpUmUAj7MbBQ7WHQIlKvT4kBKDBANiVQM27cECGIoTByE62QN6gnUBNeYvB
lGsDQSuKhUA65o/BqQkLQd4ZIUAP1ovBxGd8QGTZuL8O35XBfJu3QFD6rL9g4JXBqx28QL4BdMD5
bpTBTeycQPB8SMCMqInBawW/QNS/+kB1xL/BE5b9QJMFBUDWmp3BCrBJQFQBLUDpmqfB1k3uP5yF
dkCDQpjBPvMvQOUghECfkYzB

> <OMEGA_E>
6HHnPuiT5z4=

> <OMEGA_NBR>
     11886

$$$$
50156573
  -OEChem-04172616093D

 55 59  0     1  0  0  0  0  0999 V2000
    6.4647    5.4675  -23.9195 C   0  0  0  0  0  0  0  0  0  0  0  0
    5.6609   -4.1441  -17.4123 C   0  0  0  0  0  0  0  0  0  0  0  0
    5.3501    4.6189  -24.0525 C   0  0  0  0  0  0  0  0  0  0  0  0
    7.2164    5.4677  -22.7286 C   0  0  0  0  0  0  0  0  0  0  0  0
    4.4023   -4.4566  -17.9632 C   0  0  0  0  0  0  0  0  0  0  0  0
    6.4768   -3.1707  -18.0220 C   0  0  0  0  0  0  0  0  0  0  0  0
    6.9845   -0.1711  -22.7046 C   0  0  0  0  0  0  0  0  0  0  0  0
    4.9840    3.7740  -22.9925 C   0  0  0  0  0  0  0  0  0  0  0  0
    6.8585    4.6184  -21.6669 C   0  0  0  0  0  0  0  0  0  0  0  0
    6.7553    1.1093  -22.1737 C   0  0  0  0  0  0  0  0  0  0  0  0
    3.9549   -3.7936  -19.1200 C   0  0  0  0  0  0  0  0  0  0  0  0
    6.0344   -2.5078  -19.1828 C   0  0  0  0  0  0  0  0  0  0  0  0
    6.1420   -1.2341  -22.3472 C   0  0  0  0  0  0  0  0  0  0  0  0
    4.8627    0.2549  -20.8950 C   0  0  0  0  0  0  0  0  0  0  0  0
    5.7327    3.7679  -21.7909 C   0  0  0  0  0  0  0  0  0  0  0  0
    5.6653    1.3386  -21.2923 C   0  0  0  0  0  0  0  0  0  0  0  0
    4.7586   -2.8132  -19.7341 C   0  0  0  0  0  0  0  0  0  0  0  0
    5.0777   -1.0142  -21.4505 C   0  0  0  0  0  0  0  0  0  0  0  0
    6.1033    2.8976  -19.4329 C   0  0  0  0  0  0  0  0  0  0  0  0
    3.8879    3.3649  -19.1293 C   0  0  0  0  0  0  0  0  0  0  0  0
    6.8677    3.6892  -16.8356 C   0  0  0  0  0  0  0  0  0  0  0  0
    5.3817    3.3919  -17.0872 C   0  0  0  0  0  0  0  0  0  0  0  0
    7.7355    2.6717  -17.6134 C   0  0  0  0  0  0  0  0  0  0  0  0
    5.3898    2.7273  -20.7326 C   0  0  1  0  0  0  0  0  0  0  0  0
    4.2277   -2.1640  -21.0005 C   0  0  0  0  0  0  0  0  0  0  0  0
    5.1615    3.4157  -18.5504 N   0  0  0  0  0  0  0  0  0  0  0  0
    7.3101    2.5504  -19.0385 N   0  3  0  0  0  0  0  0  0  0  0  0
    3.9758    2.9160  -20.3596 N   0  3  0  0  0  0  0  0  0  0  0  0
    2.7032    3.7248  -18.5053 N   0  0  0  0  0  0  0  0  0  0  0  0
    6.7444    6.1205  -24.7329 H   0  0  0  0  0  0  0  0  0  0  0  0
    6.0007   -4.6515  -16.5215 H   0  0  0  0  0  0  0  0  0  0  0  0
    4.7774    4.6174  -24.9682 H   0  0  0  0  0  0  0  0  0  0  0  0
    8.0701    6.1220  -22.6306 H   0  0  0  0  0  0  0  0  0  0  0  0
    3.7804   -5.2062  -17.4965 H   0  0  0  0  0  0  0  0  0  0  0  0
    7.4417   -2.9330  -17.5990 H   0  0  0  0  0  0  0  0  0  0  0  0
    7.8065   -0.3363  -23.3854 H   0  0  0  0  0  0  0  0  0  0  0  0
    4.1265    3.1253  -23.0942 H   0  0  0  0  0  0  0  0  0  0  0  0
    7.4414    4.6145  -20.7577 H   0  0  0  0  0  0  0  0  0  0  0  0
    7.4124    1.9248  -22.4375 H   0  0  0  0  0  0  0  0  0  0  0  0
    2.9901   -4.0374  -19.5396 H   0  0  0  0  0  0  0  0  0  0  0  0
    6.6634   -1.7675  -19.6548 H   0  0  0  0  0  0  0  0  0  0  0  0
    6.3086   -2.2188  -22.7583 H   0  0  0  0  0  0  0  0  0  0  0  0
    4.0818    0.3998  -20.1631 H   0  0  0  0  0  0  0  0  0  0  0  0
    7.1011    4.7080  -17.1784 H   0  0  0  0  0  0  0  0  0  0  0  0
    7.0813    3.6064  -15.7597 H   0  0  0  0  0  0  0  0  0  0  0  0
    5.1243    2.4008  -16.6854 H   0  0  0  0  0  0  0  0  0  0  0  0
    4.7587    4.1575  -16.6017 H   0  0  0  0  0  0  0  0  0  0  0  0
    8.7842    3.0022  -17.5825 H   0  0  0  0  0  0  0  0  0  0  0  0
    7.6469    1.6871  -17.1311 H   0  0  0  0  0  0  0  0  0  0  0  0
    4.2014   -2.9186  -21.8004 H   0  0  0  0  0  0  0  0  0  0  0  0
    3.2087   -1.7968  -20.8092 H   0  0  0  0  0  0  0  0  0  0  0  0
    7.9591    2.1959  -19.7117 H   0  0  0  0  0  0  0  0  0  0  0  0
    3.1963    2.7291  -20.9576 H   0  0  0  0  0  0  0  0  0  0  0  0
    1.8360    3.6498  -18.9976 H   0  0  0  0  0  0  0  0  0  0  0  0
    2.7159    4.0593  -17.5630 H   0  0  0  0  0  0  0  0  0  0  0  0
  1  3  1  0  0  0  0
  1  4  2  0  0  0  0
  2  5  1  0  0  0  0
  2  6  2  0  0  0  0
  3  8  2  0  0  0  0
  4  9  1  0  0  0  0
  5 11  2  0  0  0  0
  6 12  1  0  0  0  0
  7 10  1  0  0  0  0
  7 13  2  0  0  0  0
  8 15  1  0  0  0  0
  9 15  2  0  0  0  0
 10 16  2  0  0  0  0
 11 17  1  0  0  0  0
 12 17  2  0  0  0  0
 13 18  1  0  0  0  0
 14 16  1  0  0  0  0
 14 18  2  0  0  0  0
 15 24  1  0  0  0  0
 16 24  1  0  0  0  0
 17 25  1  0  0  0  0
 18 25  1  0  0  0  0
 19 24  1  0  0  0  0
 19 26  1  0  0  0  0
 19 27  2  0  0  0  0
 20 26  1  0  0  0  0
 20 28  2  0  0  0  0
 20 29  1  0  0  0  0
 21 22  1  0  0  0  0
 21 23  1  0  0  0  0
 22 26  1  0  0  0  0
 23 27  1  0  0  0  0
 24 28  1  0  0  0  0
  1 30  1  0  0  0  0
  2 31  1  0  0  0  0
  3 32  1  0  0  0  0
  4 33  1  0  0  0  0
  5 34  1  0  0  0  0
  6 35  1  0  0  0  0
  7 36  1  0  0  0  0
  8 37  1  0  0  0  0
  9 38  1  0  0  0  0
 10 39  1  0  0  0  0
 11 40  1  0  0  0  0
 12 41  1  0  0  0  0
 13 42  1  0  0  0  0
 14 43  1  0  0  0  0
 21 44  1  0  0  0  0
 21 45  1  0  0  0  0
 22 46  1  0  0  0  0
 22 47  1  0  0  0  0
 23 48  1  0  0  0  0
 23 49  1  0  0  0  0
 25 50  1  0  0  0  0
 25 51  1  0  0  0  0
 27 52  1  0  0  0  0
 28 53  1  0  0  0  0
 29 54  1  0  0  0  0
 29 55  1  0  0  0  0
M  CHG  2  27   1  28   1
M  END
> <OMEGA_C>
dt7OQPL1rkAZW7/Bfia1QJechMByTIvBIzSrQPXNk0CGa8DB4+zmQJT3rkAb1LXBA+CMQI2cjsCR
tI/BPULPQBTtSsAYLZDBY4HfQJgwL771orXBynyfQLKJcUCO8LfB+njbQArKk0DKVa3BlCvYQBr8
jT+xY7HBaR19QLDJcsC69ZjBjhnBQNZ/IMB0dpnB54rEQCH4nb/7xrLB3ZqbQGCDgj7nKKfBfHK3
QDolcUDQU67Bb0q1QL5Wqz+nVqrBC0aYQNYKNMCI353B23yiQK3Pgb+xmqvBnk7DQAxyOUCndpvB
6dN4QOBaV0DECJnBhcTbQBobbEA3r4bBHDesQHAUWUCQsojB74j3QMr9KkBX6IzB+nisQEWMLkBs
3KXBuUmHQEh/CsD5AKjByiqlQDCbWkAnZ5TBjOzpQIo5I0DeTpjBu3J+QDegOkCI4KLBdwEtQApj
bkDoCpTB39HXQH3bw0AT3cXB6wXAQLLYlMALLITBs+CYQMXBk0DKvsfB/x4BQXfnw0CAC7XBpvJx
QCCZpsDi+IvBZCLuQOq1O8DQyozBuM75QP8vrL5HFbvBfAyEQIMFSEAGwbjB5x/uQAuqk0DBD6bB
XjLtQEFe9j8MgLPB/V0/QB8ygcApUZzBSTrVQCM+4r8IPZ3BX+DJQNoADsAGEbbB7Z2CQBWzzD4H
TqHBcTzjQNOnlkBEbYnB1JniQIvOZkCSJ3zBdPqjQE6mGUCce4XBcEeYQA4KhUBB0ITBD4wMQT0k
QEAEqYzBnbP0QDLz1z98DInBO3KGQBHLOsAuZ67BmlpNQLH95b8qeabB07D+QJWJDECRsZ3BoJBM
QN2oLkAfqafBdgLrP8yWaUAZ+5fBH9ItQOrlgUASgYzB

> <OMEGA_E>
rDSzPg==

> <OMEGA_NBR>
     13109

$$$$
50156593
  -OEChem-04172616093D

 55 59  0     1  0  0  0  0  0999 V2000
    6.4665    5.4463  -23.9204 C   0  0  0  0  0  0  0  0  0  0  0  0
    5.3483    4.6021  -24.0511 C   0  0  0  0  0  0  0  0  0  0  0  0
    7.2155    5.4495  -22.7280 C   0  0  0  0  0  0  0  0  0  0  0  0
    7.0213   -0.1368  -22.7152 C   0  0  0  0  0  0  0  0  0  0  0  0
    4.9749    3.7655  -22.9869 C   0  0  0  0  0  0  0  0  0  0  0  0
    6.8504    4.6086  -21.6622 C   0  0  0  0  0  0  0  0  0  0  0  0
    6.7769    1.1298  -22.1621 C   0  0  0  0  0  0  0  0  0  0  0  0
    6.1833   -1.2113  -22.3870 C   0  0  0  0  0  0  0  0  0  0  0  0
    3.9954   -3.5292  -18.9226 C   0  0  0  0  0  0  0  0  0  0  0  0
    6.2153   -2.5910  -19.3344 C   0  0  0  0  0  0  0  0  0  0  0  0
    4.4792   -4.1518  -17.7579 C   0  0  0  0  0  0  0  0  0  0  0  0
    6.6936   -3.2067  -18.1635 C   0  0  0  0  0  0  0  0  0  0  0  0
    4.8719    0.2419  -20.9247 C   0  0  0  0  0  0  0  0  0  0  0  0
    5.7199    3.7631  -21.7832 C   0  0  0  0  0  0  0  0  0  0  0  0
    5.6698    1.3381  -21.2968 C   0  0  0  0  0  0  0  0  0  0  0  0
    4.8542   -2.7454  -19.7178 C   0  0  0  0  0  0  0  0  0  0  0  0
    5.1132   -1.0186  -21.4902 C   0  0  0  0  0  0  0  0  0  0  0  0
    5.8278   -3.9945  -17.3800 C   0  0  0  0  0  0  0  0  0  0  0  0
    6.0964    2.8881  -19.4303 C   0  0  0  0  0  0  0  0  0  0  0  0
    3.8846    3.3695  -19.1244 C   0  0  0  0  0  0  0  0  0  0  0  0
    6.8736    3.6860  -16.8388 C   0  0  0  0  0  0  0  0  0  0  0  0
    5.3848    3.3968  -17.0847 C   0  0  0  0  0  0  0  0  0  0  0  0
    7.7335    2.6634  -17.6176 C   0  0  0  0  0  0  0  0  0  0  0  0
    5.3794    2.7189  -20.7269 C   0  0  1  0  0  0  0  0  0  0  0  0
    4.3107   -2.1949  -21.0248 C   0  0  0  0  0  0  0  0  0  0  0  0
    5.1592    3.4116  -18.5472 N   0  0  0  0  0  0  0  0  0  0  0  0
    7.3080    2.5515  -19.0426 N   0  3  0  0  0  0  0  0  0  0  0  0
    3.9653    2.8975  -20.3473 N   0  3  0  0  0  0  0  0  0  0  0  0
    2.7072    3.7575  -18.5033 N   0  0  0  0  0  0  0  0  0  0  0  0
    6.2942   -4.6131  -16.2718 F   0  0  0  0  0  0  0  0  0  0  0  0
    6.7510    6.0936  -24.7368 H   0  0  0  0  0  0  0  0  0  0  0  0
    4.7782    4.5976  -24.9684 H   0  0  0  0  0  0  0  0  0  0  0  0
    8.0726    6.0996  -22.6320 H   0  0  0  0  0  0  0  0  0  0  0  0
    7.8513   -0.2827  -23.3906 H   0  0  0  0  0  0  0  0  0  0  0  0
    4.1146    3.1203  -23.0873 H   0  0  0  0  0  0  0  0  0  0  0  0
    7.4313    4.6070  -20.7518 H   0  0  0  0  0  0  0  0  0  0  0  0
    7.4358    1.9528  -22.3963 H   0  0  0  0  0  0  0  0  0  0  0  0
    6.3574   -2.1851  -22.8204 H   0  0  0  0  0  0  0  0  0  0  0  0
    2.9612   -3.6525  -19.2084 H   0  0  0  0  0  0  0  0  0  0  0  0
    6.8829   -1.9997  -19.9436 H   0  0  0  0  0  0  0  0  0  0  0  0
    3.8160   -4.7515  -17.1521 H   0  0  0  0  0  0  0  0  0  0  0  0
    7.7234   -3.0756  -17.8656 H   0  0  0  0  0  0  0  0  0  0  0  0
    4.0760    0.3701  -20.2060 H   0  0  0  0  0  0  0  0  0  0  0  0
    7.1113    4.7031  -17.1838 H   0  0  0  0  0  0  0  0  0  0  0  0
    7.0902    3.6036  -15.7635 H   0  0  0  0  0  0  0  0  0  0  0  0
    5.1221    2.4102  -16.6751 H   0  0  0  0  0  0  0  0  0  0  0  0
    4.7683    4.1699  -16.6027 H   0  0  0  0  0  0  0  0  0  0  0  0
    8.7851    2.9844  -17.5844 H   0  0  0  0  0  0  0  0  0  0  0  0
    7.6356    1.6781  -17.1385 H   0  0  0  0  0  0  0  0  0  0  0  0
    4.3512   -2.9832  -21.7910 H   0  0  0  0  0  0  0  0  0  0  0  0
    3.2669   -1.8814  -20.8761 H   0  0  0  0  0  0  0  0  0  0  0  0
    7.9600    2.2119  -19.7207 H   0  0  0  0  0  0  0  0  0  0  0  0
    3.1831    2.6897  -20.9347 H   0  0  0  0  0  0  0  0  0  0  0  0
    1.8374    3.6868  -18.9917 H   0  0  0  0  0  0  0  0  0  0  0  0
    2.7278    4.1082  -17.5671 H   0  0  0  0  0  0  0  0  0  0  0  0
  1  2  1  0  0  0  0
  1  3  2  0  0  0  0
  2  5  2  0  0  0  0
  3  6  1  0  0  0  0
  4  7  2  0  0  0  0
  4  8  1  0  0  0  0
  5 14  1  0  0  0  0
  6 14  2  0  0  0  0
  7 15  1  0  0  0  0
  8 17  2  0  0  0  0
  9 11  2  0  0  0  0
  9 16  1  0  0  0  0
 10 12  1  0  0  0  0
 10 16  2  0  0  0  0
 11 18  1  0  0  0  0
 12 18  2  0  0  0  0
 13 15  2  0  0  0  0
 13 17  1  0  0  0  0
 14 24  1  0  0  0  0
 15 24  1  0  0  0  0
 16 25  1  0  0  0  0
 17 25  1  0  0  0  0
 18 30  1  0  0  0  0
 19 24  1  0  0  0  0
 19 26  1  0  0  0  0
 19 27  2  0  0  0  0
 20 26  1  0  0  0  0
 20 28  2  0  0  0  0
 20 29  1  0  0  0  0
 21 22  1  0  0  0  0
 21 23  1  0  0  0  0
 22 26  1  0  0  0  0
 23 27  1  0  0  0  0
 24 28  1  0  0  0  0
  1 31  1  0  0  0  0
  2 32  1  0  0  0  0
  3 33  1  0  0  0  0
  4 34  1  0  0  0  0
  5 35  1  0  0  0  0
  6 36  1  0  0  0  0
  7 37  1  0  0  0  0
  8 38  1  0  0  0  0
  9 39  1  0  0  0  0
 10 40  1  0  0  0  0
 11 41  1  0  0  0  0
 12 42  1  0  0  0  0
 13 43  1  0  0  0  0
 21 44  1  0  0  0  0
 21 45  1  0  0  0  0
 22 46  1  0  0  0  0
 22 47  1  0  0  0  0
 23 48  1  0  0  0  0
 23 49  1  0  0  0  0
 25 50  1  0  0  0  0
 25 51  1  0  0  0  0
 27 52  1  0  0  0  0
 28 53  1  0  0  0  0
 29 54  1  0  0  0  0
 29 55  1  0  0  0  0
M  CHG  2  27   1  28   1
M  END
> <OMEGA_C>
dO3OQFJIrkAGXb/BIyWrQGlEk0CyaMDBnuXmQDdirkDr0rXB1K7gQNgIDL6/uLXBIDKfQJT9cEAp
5bfBrjbbQFh5k0A6TK3BKdzYQGuekD/8S7HB9t3FQFMMm799GLPBW7R/QNjdYcB7YZfBlOPGQFjS
JcDyrJrBRFWPQHLbhMBEEI7BsTHWQE47TcDKTpHBp+abQHS6dz7WZafBkgm3QFzXcEARRK7BMm+1
QKtFqz/WX6rBWVWbQKq0L8Acvp3Bc5+jQDFigr/866vBN326QGSmf8BHCovBvRXDQFzXOEBNcZvB
v514QKqlV0DT/pjBPvTbQCbna0DMtYbB5E+sQNBkWUB+rYjBGnn3QN51KkDO8IzB+iOsQEICLkC1
0KXBN/GJQPZ5DMDCMqjBiBilQFRYWkCVYJTBfNvpQBxLI0BNV5jBfsd9QEJwOUA8x6LBckItQK57
cEDbBpTB3mnJQDGek8CULILBCAjYQJL+wkAL5cXBE+eYQJ8fk0BGv8fBbykBQY0vw0BLDrXBHj77
QMrCkL4GILvBq6qDQD2zR0C6srjBe83tQD1sk0CZA6bBZvLtQBz2+T+nK7PBbG/LQM/YC8AekLbB
cIQ9QGLCacDFqpnB8EDcQOf2/7+EjJ/BdTl0QBMMmMCRN4nBuyX3QIvWRMC77I7Bs26CQG2AvT70
paHBh4/jQH1/lkBreInBEOPiQN6gZkArN3zBH+ijQGxBGkCtZoXB/ZWYQIVvhUBU0oTB6o8MQeQA
P0DYrIzBJlf0QK3L1j+yG4nBzDyLQE7sPsDuU67BUBRRQEfS8L8sAqfBC7j+QGuQDUDnw53BCLhL
QB4kLEAreqfBoDDrPwH0a0AM75fBHJQuQE92g0BZiYzB

> <OMEGA_E>
aFvCPg==

> <OMEGA_NBR>
     14332

$$$$
50156590
  -OEChem-04172616093D

 46 49  0     1  0  0  0  0  0999 V2000
    6.5286    5.5151  -23.9085 C   0  0  0  0  0  0  0  0  0  0  0  0
    7.2526    5.5176  -22.7001 C   0  0  0  0  0  0  0  0  0  0  0  0
    5.4311    4.6506  -24.0737 C   0  0  0  0  0  0  0  0  0  0  0  0
    6.9106   -0.2073  -22.6426 C   0  0  0  0  0  0  0  0  0  0  0  0
    6.8816    4.6579  -21.6505 C   0  0  0  0  0  0  0  0  0  0  0  0
    5.0548    3.7930  -23.0281 C   0  0  0  0  0  0  0  0  0  0  0  0
    6.6962    1.0963  -22.1737 C   0  0  0  0  0  0  0  0  0  0  0  0
    6.0914   -1.2562  -22.1926 C   0  0  0  0  0  0  0  0  0  0  0  0
    4.8301    0.3057  -20.8145 C   0  0  0  0  0  0  0  0  0  0  0  0
    5.7730    3.7917  -21.8078 C   0  0  0  0  0  0  0  0  0  0  0  0
    5.6199    1.3669  -21.2913 C   0  0  0  0  0  0  0  0  0  0  0  0
    5.0584   -1.0021  -21.2511 C   0  0  0  0  0  0  0  0  0  0  0  0
    6.0954    2.8649  -19.4431 C   0  0  0  0  0  0  0  0  0  0  0  0
    3.8723    3.3008  -19.1210 C   0  0  0  0  0  0  0  0  0  0  0  0
    6.7215    2.9957  -16.6770 C   0  0  0  0  0  0  0  0  0  0  0  0
    5.4620    3.7188  -17.1824 C   0  0  0  0  0  0  0  0  0  0  0  0
    7.8367    3.0591  -17.7479 C   0  0  0  0  0  0  0  0  0  0  0  0
    5.3866    2.7641  -20.7523 C   0  0  1  0  0  0  0  0  0  0  0  0
    4.6683   -3.3438  -20.9011 C   0  0  0  0  0  0  0  0  0  0  0  0
    5.1173    3.1525  -18.5022 N   0  0  0  0  0  0  0  0  0  0  0  0
    7.3388    2.6307  -19.0854 N   0  3  0  0  0  0  0  0  0  0  0  0
    3.9741    2.9947  -20.3930 N   0  3  0  0  0  0  0  0  0  0  0  0
    2.7011    3.6992  -18.4958 N   0  0  0  0  0  0  0  0  0  0  0  0
    4.2476   -1.9802  -20.7101 O   0  0  0  0  0  0  0  0  0  0  0  0
    6.8167    6.1787  -24.7104 H   0  0  0  0  0  0  0  0  0  0  0  0
    8.0955    6.1819  -22.5792 H   0  0  0  0  0  0  0  0  0  0  0  0
    4.8797    4.6467  -25.0023 H   0  0  0  0  0  0  0  0  0  0  0  0
    7.7038   -0.4049  -23.3483 H   0  0  0  0  0  0  0  0  0  0  0  0
    7.4411    4.6586  -20.7268 H   0  0  0  0  0  0  0  0  0  0  0  0
    4.2120    3.1298  -23.1553 H   0  0  0  0  0  0  0  0  0  0  0  0
    7.3519    1.8959  -22.4851 H   0  0  0  0  0  0  0  0  0  0  0  0
    6.2474   -2.2584  -22.5634 H   0  0  0  0  0  0  0  0  0  0  0  0
    4.0403    0.5030  -20.1049 H   0  0  0  0  0  0  0  0  0  0  0  0
    7.0744    3.4810  -15.7551 H   0  0  0  0  0  0  0  0  0  0  0  0
    6.4777    1.9437  -16.4674 H   0  0  0  0  0  0  0  0  0  0  0  0
    4.6315    3.5606  -16.4786 H   0  0  0  0  0  0  0  0  0  0  0  0
    5.6616    4.7963  -17.2778 H   0  0  0  0  0  0  0  0  0  0  0  0
    8.2050    4.0932  -17.8187 H   0  0  0  0  0  0  0  0  0  0  0  0
    8.6606    2.3964  -17.4448 H   0  0  0  0  0  0  0  0  0  0  0  0
    3.9433   -4.0216  -20.4268 H   0  0  0  0  0  0  0  0  0  0  0  0
    4.7247   -3.5626  -21.9777 H   0  0  0  0  0  0  0  0  0  0  0  0
    5.6587   -3.4892  -20.4451 H   0  0  0  0  0  0  0  0  0  0  0  0
    7.9559    2.1608  -19.7167 H   0  0  0  0  0  0  0  0  0  0  0  0
    3.2046    2.9273  -21.0280 H   0  0  0  0  0  0  0  0  0  0  0  0
    1.8530    3.7696  -19.0209 H   0  0  0  0  0  0  0  0  0  0  0  0
    2.7043    3.9161  -17.5196 H   0  0  0  0  0  0  0  0  0  0  0  0
  1  2  1  0  0  0  0
  1  3  2  0  0  0  0
  2  5  2  0  0  0  0
  3  6  1  0  0  0  0
  4  7  1  0  0  0  0
  4  8  2  0  0  0  0
  5 10  1  0  0  0  0
  6 10  2  0  0  0  0
  7 11  2  0  0  0  0
  8 12  1  0  0  0  0
  9 11  1  0  0  0  0
  9 12  2  0  0  0  0
 10 18  1  0  0  0  0
 11 18  1  0  0  0  0
 12 24  1  0  0  0  0
 13 18  1  0  0  0  0
 13 20  1  0  0  0  0
 13 21  2  0  0  0  0
 14 20  1  0  0  0  0
 14 22  2  0  0  0  0
 14 23  1  0  0  0  0
 15 16  1  0  0  0  0
 15 17  1  0  0  0  0
 16 20  1  0  0  0  0
 17 21  1  0  0  0  0
 18 22  1  0  0  0  0
 19 24  1  0  0  0  0
  1 25  1  0  0  0  0
  2 26  1  0  0  0  0
  3 27  1  0  0  0  0
  4 28  1  0  0  0  0
  5 29  1  0  0  0  0
  6 30  1  0  0  0  0
  7 31  1  0  0  0  0
  8 32  1  0  0  0  0
  9 33  1  0  0  0  0
 15 34  1  0  0  0  0
 15 35  1  0  0  0  0
 16 36  1  0  0  0  0
 16 37  1  0  0  0  0
 17 38  1  0  0  0  0
 17 39  1  0  0  0  0
 19 40  1  0  0  0  0
 19 41  1  0  0  0  0
 19 42  1  0  0  0  0
 21 43  1  0  0  0  0
 22 44  1  0  0  0  0
 23 45  1  0  0  0  0
 23 46  1  0  0  0  0
M  CHG  2  21   1  22   1
M  END
> <OMEGA_C>
5enQQNF7sECnRL/BYRXoQGKQsEDZmbXBmsutQFnRlEDdlsDBVyPdQJxQVL4NJLXB0DXcQIgNlUA/
NK3B/MChQGbAckCmObjB7UbWQKJTjD+zY7HBwOzCQJTJoL9lirHBOpCaQFqBnD4lhKbBiby4QI6r
ckB1dq7B5dWzQI71rj99VKrBvN6hQD5FgL86AqrBMQ3DQHZaN0Bpi5vBidN3QEFAU0DE95jBpxbX
QKe5P0B6aoXBg8iuQJoAbkCQdYnBPsb6QMPIQ0DA+43BBV+sQHrnMECrBKbBrmKVQBgBVsCFNafB
rsCjQPDCSUB9BJTButfqQNZcKED/rpjBQlh+QB+pP0DaJKPBat8sQB+/bEBM95PBhuyHQOh3/b89
rqXBxiLaQCW4xUDWrsXBKIcBQXjSxUAworTBfyacQMGxlECuBMjB1IX2QJhSz75rybrBgB3uQHIT
lUBl0KXBZsiGQFJOSEABPrnBLEPrQHKs8j+M4bPB3OrHQMaJEMDrgbTBvkmBQHDBAD/F1qDBbGHi
QLvIXkC0FHzBf0nPQE7M+D9GvYPBojWUQHXhY0Af1IPBACy1QFN7mUDnOIrBu0cDQZn7gkDLjI7B
+pEKQWFeGUDqjovBOF98QCmxgMAgaqPBYjCXQJkBZMBL0q/BCxS1QK5OX8CKj6PBppb+QK9KCkDL
u53BvxdNQGtZO0BZOajB1C/tP+9BcUC2KpjBaRMtQDOhekATKIzBMbvNQJqvsEDF877BpQeqQIGd
lUBuFsDBvSzmQG/Ar0DRfbXBXM/eQPh+Lb5bKrbBLLGeQKBec0BdwLfBdxXbQH+0k0CFJK3BxBzX
QFOsjT9m5bHBhePFQAN9ob+N2bLBKHqdQEiKTT4N7qbBZgy3QGr7cEBZNa7B4V61QH/Gpz/qeqrB
DYalQMfLi7+dIavBuBvDQHq9N0CBdpvBOOd4QFzeV0ADGJnBVA3cQMKWbkC73IbBSm2sQHiTW0DX
xIjBDJ73QMQoLEBT7YzBl0msQGzcLEAL4aXB8O1fQMLZA8Aojp/BgjSlQFCNWkCQeJTBrNDpQLBU
IkBTS5jBMQR+QEKTOECs1KLBrrItQFy2cUA0KZTB/xuPQLIvDsDFAqjB1WbWQPA5xkABWsXBrF+X
QFpQlkDHW8fBFcEAQbSgxEA3pbTB1eX3QEown77D/7vBwzqDQI//SUDfoLjB6wXuQGjmkkAZ66XB
BwHrQMEh+D/SRbTBgpXLQGxHD8BpPrbBttqEQJP/qz7k9qDBEZfjQJucl0AMzInBfQXjQITOakCy
f3zBfRakQMv3HECxU4XBZKmYQHvOhkBMCoXBE5sMQSolQUBZxozBA8H0QBDK2z8l4ojB7UFBQLPK
QcBn4p3BcwqAQFcg2b+5SZjBqw0vQAqeqr8RD6LBWIb+QAbdCkAipJ3B1+ZLQJG3KkDHfqfB4fvr
Pz0ibUDNDpjB1y8vQA12hEA4tYzBHWrRQIdHtUArRL7BnYGwQOOjl0AhVsDBQjPnQDkztEBRa7TB
tuiTQIIfQ79Ao7LBvmilQNO6cUC+krjBWSTcQN6XlUAJoazBsiqPQO87ET/SHK/BWzG7QDBXt79U
T7HBxRjaQIKfFz8OyKnBUR27QLWhbkBnn67BYgqyQA0doD9UWqrBc5PeQDsNRL/xx6zBHoDDQGpj
N0Anf5vBhXp4QMfuUkA7FZnB0UHcQI0WdkCxKIfBpyStQD1HW0CAr4jBlqX5QJ4MN0CQNY3B2gat
QMieLED7I6bBNpATQW7SU780wqXBGcWkQAeQVEDIWZTB35jrQASELEAaf5jBndB/QGUBP0BRRaPB
J6krQHr3ZEAS9pPBZkACQfNHvb/FgqvB0OvZQDrOzEA0OsTBorufQKZ8mEA948fBDTwAQQnoykAH
1bLB06FyQJWJor+0X7bBAyCMQP19REDWOLrB3ePsQM8alUCGEqXBrJFhQPLNiD+oCrDBIzq+QNCi
HcCwxrPBysn1QOqKkT9SAKfBdPHgQEKLm0BYVIrBqj3kQFIfdUCkLX3B1XunQHwEHUBY1ITBEuaX
QAjThUAdIIXBp0wNQUTKT0CmGo3BVqj4QHnn8D+oMInBUHAhQZZOwL+3XqXBexsYQefYxj1n86nB
Uz8OQUFkFb+BmZ3BpqwAQQqaHEBCBJ7BrdpOQPSSPED4aajBIXfpP2tKY0DMD5jBGUsrQMGfc0CK
LIzBm1/aQPjns0A5lL3B9uLaQBIOiEDDKsDBPFPLQD9SwUDxgbPB61qOQAazLL//OrPBUGPMQJAG
U0DptLjBtrq8QN/sokDtB6zB/0iMQDAdJz/ik6/BNVezQPPPuL/DfLHBH9LUQL8L6T4Dh6jBXhq9
QJVDbUDuhK7BnB2vQBYOnT//9KnBhx/XQPxvYb8FI6zBUoPDQC9aOUDps5vBb7F3QFH/TUCu85jB
mRjZQHBDOkA7xIXBi9mtQMMVYkAF/ojBjnX7QIWrUUAHM47BmJ+sQE6cLECBKqbBZtb+QDwWPcB5
2q3Bt86jQBn5REBoBJTBHXDsQPCwP0A/UJnBP51/QPl/QUDCUKPBkCMrQCDaYED5z5PBseT8QJf7
yb9bPqrBpoPlQNM5y0CxUMPBa27mQESWe0Bn5cfB4fjKQA/y4kA7g7HBcc1mQGOEjb9yZbfBgebM
QBfeD0Afv7rBZCOxQI5wrUDYU6TB3M9fQITEnj8VEbHB/oq0QO3oHcCeOrTBOzHwQHa0ZT8vnaTB
BdLiQNcvU0CyznvBPdTVQFGC6D9eVIXBwamUQH3ITECLc4PBexuwQCcplEBdyojBOXoBQVwdi0DE
gI3B7T0MQa3cK0APoozBEiUPQYRSWMAI2avBP5PlQHtvYsBA4qnBsRz6QPpaP8CzkbbBfg8BQXI7
OEBiH5/BV4VPQCGQRUC3kajBrQnqPynAZUDaCZjBkigqQDmGaUAb44vBAKLcQIoDs0Deqb3B3VX3
QDcEkkDl4rnBAC2yQEAPtkBW/LnBEYqPQBbBKb+phLPBP5nnQPIKaEB2cLLBuFmiQFw9mEBYhrLB
DTCNQKD9Kz+LAbDBFn60QHy7tr/4g7HBwAXVQACm9z6pjKjBBd68QAJybUD6p67BF42vQA5ZoD8I
PqrBQKvXQKWdXL/PFazByF7DQGkJO0D9vJvB0mx3QMpZTkCS5ZjBo8vYQNPVOECixIXBwtutQPQW
YkBs9ojBG2L7QI5NUEAVIo7BllmsQL94LUCPNabBVcoPQXKKib8v36TBEcSjQO4bRkBrBpTB9E3s
QApfQECXSZnBdod+QHujPkDzLqPBbycrQMKQYkCFyJPB8YT7QF7T1L+HeqrBO7foQNP0yUAmYMPB
5PYLQRyvj0AQs7zBlK2dQC5Wz0DK5LzBh9RpQFcTjb8Qw7fBVT78QN2FNUBqlq/B68SBQAvgmkA0
uK/BafhhQNYSoT/5trHBy+y1QPsdHcDoJ7TB0gTwQBbfbT8FgKTBiZLiQO+oUEBrtnvBOxbVQMm+
5T/Vc4XBd3mUQEcGTUDFdoPBdJWwQK8elEDwq4jB4LUBQbpAikC9SI3BqgsMQXZbKUCpo4zBsrQc
Qb6P6L/9L6TBvJwVQewKTb5UWanBhbcKQeKmQr821JzBmgEBQeyBOUAsGp/Bnm9NQOhLPkDNUKjB
t4TpP8jtZUBC+pfBkKAqQCfCbUAn6IvB

> <OMEGA_E>
cGI6PhhBOz54v40+sLrQPpDz0T4=

> <OMEGA_NBR>
     18616

$$$$
50156585
  -OEChem-04172616093D

 45 48  0     1  0  0  0  0  0999 V2000
    6.7741    5.6239  -23.7411 C   0  0  0  0  0  0  0  0  0  0  0  0
    6.2134    4.4024  -24.1597 C   0  0  0  0  0  0  0  0  0  0  0  0
    6.8834    5.9114  -22.3685 C   0  0  0  0  0  0  0  0  0  0  0  0
    4.4631   -0.6930  -22.3672 C   0  0  0  0  0  0  0  0  0  0  0  0
    5.7794    3.4577  -23.2083 C   0  0  0  0  0  0  0  0  0  0  0  0
    6.4395    4.9762  -21.4148 C   0  0  0  0  0  0  0  0  0  0  0  0
    4.3872    0.6373  -21.9166 C   0  0  0  0  0  0  0  0  0  0  0  0
    5.6349   -1.4442  -22.1653 C   0  0  0  0  0  0  0  0  0  0  0  0
    6.6816    0.4867  -21.1002 C   0  0  0  0  0  0  0  0  0  0  0  0
    5.9140    3.7183  -21.8199 C   0  0  0  0  0  0  0  0  0  0  0  0
    5.4885    1.2404  -21.2561 C   0  0  0  0  0  0  0  0  0  0  0  0
    6.7547   -0.8590  -21.5283 C   0  0  0  0  0  0  0  0  0  0  0  0
    6.1096    2.8764  -19.4524 C   0  0  0  0  0  0  0  0  0  0  0  0
    3.8724    3.2233  -19.1197 C   0  0  0  0  0  0  0  0  0  0  0  0
    6.7840    2.9308  -16.7105 C   0  0  0  0  0  0  0  0  0  0  0  0
    5.4320    3.5459  -17.1243 C   0  0  0  0  0  0  0  0  0  0  0  0
    7.8562    3.2805  -17.7696 C   0  0  0  0  0  0  0  0  0  0  0  0
    5.3988    2.7089  -20.7702 C   0  0  1  0  0  0  0  0  0  0  0  0
    8.0353   -1.6592  -21.2821 C   0  0  0  0  0  0  0  0  0  0  0  0
    5.1178    3.0745  -18.4972 N   0  0  0  0  0  0  0  0  0  0  0  0
    7.3895    2.9547  -19.1476 N   0  3  0  0  0  0  0  0  0  0  0  0
    4.0007    3.0412  -20.4170 N   0  3  0  0  0  0  0  0  0  0  0  0
    2.6744    3.5125  -18.4779 N   0  0  0  0  0  0  0  0  0  0  0  0
    7.9423   -2.9270  -21.7683 F   0  0  0  0  0  0  0  0  0  0  0  0
    8.2778   -1.7309  -19.9452 F   0  0  0  0  0  0  0  0  0  0  0  0
    9.0868   -1.0445  -21.8872 F   0  0  0  0  0  0  0  0  0  0  0  0
    7.1198    6.3393  -24.4726 H   0  0  0  0  0  0  0  0  0  0  0  0
    6.1156    4.1885  -25.2138 H   0  0  0  0  0  0  0  0  0  0  0  0
    7.3083    6.8505  -22.0460 H   0  0  0  0  0  0  0  0  0  0  0  0
    3.6181   -1.1393  -22.8704 H   0  0  0  0  0  0  0  0  0  0  0  0
    5.3407    2.5278  -23.5386 H   0  0  0  0  0  0  0  0  0  0  0  0
    6.4987    5.2165  -20.3636 H   0  0  0  0  0  0  0  0  0  0  0  0
    3.4821    1.2050  -22.0748 H   0  0  0  0  0  0  0  0  0  0  0  0
    5.6801   -2.4708  -22.4976 H   0  0  0  0  0  0  0  0  0  0  0  0
    7.5468    0.9484  -20.6478 H   0  0  0  0  0  0  0  0  0  0  0  0
    7.0875    3.3361  -15.7340 H   0  0  0  0  0  0  0  0  0  0  0  0
    6.6827    1.8379  -16.6384 H   0  0  0  0  0  0  0  0  0  0  0  0
    4.6447    3.2210  -16.4281 H   0  0  0  0  0  0  0  0  0  0  0  0
    5.5015    4.6437  -17.1127 H   0  0  0  0  0  0  0  0  0  0  0  0
    8.0778    4.3564  -17.7122 H   0  0  0  0  0  0  0  0  0  0  0  0
    8.7698    2.7060  -17.5565 H   0  0  0  0  0  0  0  0  0  0  0  0
    8.0688    2.7906  -19.8629 H   0  0  0  0  0  0  0  0  0  0  0  0
    3.2527    3.1173  -21.0763 H   0  0  0  0  0  0  0  0  0  0  0  0
    1.8305    3.5955  -19.0081 H   0  0  0  0  0  0  0  0  0  0  0  0
    2.6560    3.6378  -17.4860 H   0  0  0  0  0  0  0  0  0  0  0  0
  1  2  1  0  0  0  0
  1  3  2  0  0  0  0
  2  5  2  0  0  0  0
  3  6  1  0  0  0  0
  4  7  2  0  0  0  0
  4  8  1  0  0  0  0
  5 10  1  0  0  0  0
  6 10  2  0  0  0  0
  7 11  1  0  0  0  0
  8 12  2  0  0  0  0
  9 11  2  0  0  0  0
  9 12  1  0  0  0  0
 10 18  1  0  0  0  0
 11 18  1  0  0  0  0
 12 19  1  0  0  0  0
 13 18  1  0  0  0  0
 13 20  1  0  0  0  0
 13 21  2  0  0  0  0
 14 20  1  0  0  0  0
 14 22  2  0  0  0  0
 14 23  1  0  0  0  0
 15 16  1  0  0  0  0
 15 17  1  0  0  0  0
 16 20  1  0  0  0  0
 17 21  1  0  0  0  0
 18 22  1  0  0  0  0
 19 24  1  0  0  0  0
 19 25  1  0  0  0  0
 19 26  1  0  0  0  0
  1 27  1  0  0  0  0
  2 28  1  0  0  0  0
  3 29  1  0  0  0  0
  4 30  1  0  0  0  0
  5 31  1  0  0  0  0
  6 32  1  0  0  0  0
  7 33  1  0  0  0  0
  8 34  1  0  0  0  0
  9 35  1  0  0  0  0
 15 36  1  0  0  0  0
 15 37  1  0  0  0  0
 16 38  1  0  0  0  0
 16 39  1  0  0  0  0
 17 40  1  0  0  0  0
 17 41  1  0  0  0  0
 21 42  1  0  0  0  0
 22 43  1  0  0  0  0
 23 44  1  0  0  0  0
 23 45  1  0  0  0  0
M  CHG  2  21   1  22   1
M  END
> <OMEGA_C>
TMXYQFb3s0Cs7b3BUdTGQKrgjEAoR8HBrUTcQAQqvUCW8rLBiNGOQFdlMb8d8LLBx/C4QIpLXUCp
qrnBdhDOQMc8n0CWUavB+2OMQAIpIz8fVa/B81C0QO/auL+fUrHB0c/VQJYw+T5JzajBVT+9QKf4
bUA6j67B3aGvQPHDnj9sDKrBGybYQN/mW7/uOazBqIHDQCMXOECWnpvBnNV3QM5JTkAP9ZjBSRbZ
QJiSO0APr4XBidKtQDvwYkCN/ojB4WX7QPHyUUAlKI7BlcKsQFJeLUBTKabBi5AAQdph1L/EQarB
nsSjQPPDREBF+pPBC3fsQIIaPUAyLpnB+QWAQEOiQkD1VaPBxSgrQHbNYEDQ0pPBuCf+QC5UO8CT
Ja7By3EEQSeP3b+8j5/BqWMRQaWzhb8BGa/BMtXjQH/bykDlx8PBp7LDQFAIhkDltcnBSd3pQC83
20BFXrDBx45nQOnVkb+C9rbBFOeqQLrGIUAYT7zBJ/XPQLXtpkCf6KLBe9teQEQ9mj82mbDBosO1
QNshHsAE+7PBWn/xQBzIcj+fLqXB2MziQGWDVUBQvnvBodjVQFM/6z9mG4XBU6GUQOgkTkDJbIPB
7AuwQM+YlEDd5ojBoD4BQWVni0Coso3B/lAMQeQvLUCxc4zBvxkBQbqYMkAk557B+SxQQBiBR0BJ
nKjBYk7qP5kcZkCHEJjBL/wpQEnRaEBI44vB0i7cQPc4s0A8qL3BwQn3QHxQkkB05bnBXb6xQN4Z
tkBs9bnBl0iPQF9wJ7+4mrPBSnvnQDJ7aEBpcbLBGBiiQI8xmEDPfrLBBVCNQInVLT8rDbDBBfiz
QLcbt7+Lo7HBvRDVQI4F7z58jKjBH8i8QI6HbUDao67B28CvQOTvnz/1PqrBllHXQGM1X7/xJ6zB
ym/DQMTROkBJu5vBMH93QBdlTkD95ZjB6s7YQN7yOUBNwYXBrt2tQF35YkBJ/IjBWGD7QE/wUECH
JY7BD3msQCNELUAJMqbB2tv/QIZB2L/iE6rB486jQDN1RkDxBpTBUV3sQD3KP0B1R5nBWKp+QIE9
PkDHK6PBoSorQAyzYkDJzJPB0Ij8QIMfPcCl/63BzJYDQdEg4r8WXp/Be/cQQQsji7+H1a7BAiPo
QLg4ykA5X8PB2c4LQeUbkEAfurzBrCCdQEBPz0AD2rzBiQlpQFKhir/R27fBTED8QCwfNkCDmq/B
IoWBQKuvmkBBra/Bq5ViQLARoz8Pw7HBRCq1QC02HcCSUrTBbB/wQMeAZj89caTBs5fiQD9DUkD5
u3vBER3VQFMC6D9YX4XBrnqUQLEgTkCCeYPBz4+wQBKSlEABv4jBV6ABQWWlikACZo3BqxUMQTBo
KkC0lozBxwsBQYHPN0ApEZ/BSI9NQGF5PUD3TKjBfYvpP7fGZUBx/5fBMJsqQK09bkBx7ovB

> <OMEGA_E>
SFWmPvgYvD4=

> <OMEGA_NBR>
     20466

$$$$
50156600
  -OEChem-04172616093D

 54 58  0     1  0  0  0  0  0999 V2000
    6.2399   -0.3237  -23.0292 C   0  0  0  0  0  0  0  0  0  0  0  0
    5.9008   -1.3912  -22.1788 C   0  0  0  0  0  0  0  0  0  0  0  0
    6.0968    1.0051  -22.5899 C   0  0  0  0  0  0  0  0  0  0  0  0
    4.8773    4.2440  -22.7229 C   0  0  0  0  0  0  0  0  0  0  0  0
    7.1643    4.2425  -21.8802 C   0  0  0  0  0  0  0  0  0  0  0  0
    5.2325    5.1913  -23.6868 C   0  0  0  0  0  0  0  0  0  0  0  0
    7.5203    5.1992  -22.8494 C   0  0  0  0  0  0  0  0  0  0  0  0
    5.2759    0.1985  -20.4388 C   0  0  0  0  0  0  0  0  0  0  0  0
    4.6047   -3.4877  -20.4748 C   0  0  0  0  0  0  0  0  0  0  0  0
    5.1639   -2.1169  -18.5638 C   0  0  0  0  0  0  0  0  0  0  0  0
    4.3949   -4.3061  -18.2961 C   0  0  0  0  0  0  0  0  0  0  0  0
    5.4197   -1.1368  -20.8732 C   0  0  0  0  0  0  0  0  0  0  0  0
    5.0625   -2.2534  -19.9664 C   0  0  0  0  0  0  0  0  0  0  0  0
    5.8259    3.7815  -21.7858 C   0  0  0  0  0  0  0  0  0  0  0  0
    5.6103    1.2793  -21.2850 C   0  0  0  0  0  0  0  0  0  0  0  0
    6.5590    5.6928  -23.7557 C   0  0  0  0  0  0  0  0  0  0  0  0
    6.1141    2.8995  -19.4531 C   0  0  0  0  0  0  0  0  0  0  0  0
    3.8836    3.3146  -19.1449 C   0  0  0  0  0  0  0  0  0  0  0  0
    6.8963    3.8665  -16.9212 C   0  0  0  0  0  0  0  0  0  0  0  0
    5.4149    3.4832  -17.1086 C   0  0  0  0  0  0  0  0  0  0  0  0
    7.7942    2.8440  -17.6606 C   0  0  0  0  0  0  0  0  0  0  0  0
    5.4105    2.7116  -20.7652 C   0  0  1  0  0  0  0  0  0  0  0  0
    5.9897    7.1692  -25.6182 C   0  0  0  0  0  0  0  0  0  0  0  0
    4.2762   -4.4918  -19.6343 N   0  0  0  0  0  0  0  0  0  0  0  0
    4.8318   -3.1433  -17.7525 N   0  0  0  0  0  0  0  0  0  0  0  0
    5.1566    3.3837  -18.5664 N   0  0  0  0  0  0  0  0  0  0  0  0
    7.3419    2.6252  -19.0656 N   0  3  0  0  0  0  0  0  0  0  0  0
    3.9897    2.9110  -20.3921 N   0  3  0  0  0  0  0  0  0  0  0  0
    2.6840    3.6242  -18.5161 N   0  0  0  0  0  0  0  0  0  0  0  0
    6.9744    6.6460  -24.6816 O   0  0  0  0  0  0  0  0  0  0  0  0
    4.9676    7.7920  -24.9639 F   0  0  0  0  0  0  0  0  0  0  0  0
    5.5150    6.1820  -26.4307 F   0  0  0  0  0  0  0  0  0  0  0  0
    6.6020    8.0915  -26.4000 F   0  0  0  0  0  0  0  0  0  0  0  0
    6.6115   -0.5247  -24.0231 H   0  0  0  0  0  0  0  0  0  0  0  0
    6.0082   -2.4090  -22.5238 H   0  0  0  0  0  0  0  0  0  0  0  0
    6.3583    1.8202  -23.2485 H   0  0  0  0  0  0  0  0  0  0  0  0
    3.8674    3.8622  -22.6947 H   0  0  0  0  0  0  0  0  0  0  0  0
    7.9139    3.8573  -21.2048 H   0  0  0  0  0  0  0  0  0  0  0  0
    4.4902    5.5457  -24.3867 H   0  0  0  0  0  0  0  0  0  0  0  0
    8.5377    5.5580  -22.8994 H   0  0  0  0  0  0  0  0  0  0  0  0
    4.9046    0.3971  -19.4443 H   0  0  0  0  0  0  0  0  0  0  0  0
    4.5166   -3.6297  -21.5417 H   0  0  0  0  0  0  0  0  0  0  0  0
    5.5090   -1.1861  -18.1385 H   0  0  0  0  0  0  0  0  0  0  0  0
    4.1303   -5.1186  -17.6357 H   0  0  0  0  0  0  0  0  0  0  0  0
    7.0695    4.8715  -17.3336 H   0  0  0  0  0  0  0  0  0  0  0  0
    7.1428    3.8626  -15.8492 H   0  0  0  0  0  0  0  0  0  0  0  0
    5.2142    2.5155  -16.6255 H   0  0  0  0  0  0  0  0  0  0  0  0
    4.7690    4.2553  -16.6653 H   0  0  0  0  0  0  0  0  0  0  0  0
    8.8275    3.2212  -17.6736 H   0  0  0  0  0  0  0  0  0  0  0  0
    7.7606    1.8854  -17.1221 H   0  0  0  0  0  0  0  0  0  0  0  0
    7.9908    2.2593  -19.7327 H   0  0  0  0  0  0  0  0  0  0  0  0
    3.2155    2.7590  -21.0066 H   0  0  0  0  0  0  0  0  0  0  0  0
    1.8221    3.5458  -19.0172 H   0  0  0  0  0  0  0  0  0  0  0  0
    2.6824    3.9254  -17.5626 H   0  0  0  0  0  0  0  0  0  0  0  0
  1  2  1  0  0  0  0
  1  3  2  0  0  0  0
  2 12  2  0  0  0  0
  3 15  1  0  0  0  0
  4  6  2  0  0  0  0
  4 14  1  0  0  0  0
  5  7  1  0  0  0  0
  5 14  2  0  0  0  0
  6 16  1  0  0  0  0
  7 16  2  0  0  0  0
  8 12  1  0  0  0  0
  8 15  2  0  0  0  0
  9 13  1  0  0  0  0
  9 24  2  0  0  0  0
 10 13  2  0  0  0  0
 10 25  1  0  0  0  0
 11 24  1  0  0  0  0
 11 25  2  0  0  0  0
 12 13  1  0  0  0  0
 14 22  1  0  0  0  0
 15 22  1  0  0  0  0
 16 30  1  0  0  0  0
 17 22  1  0  0  0  0
 17 26  1  0  0  0  0
 17 27  2  0  0  0  0
 18 26  1  0  0  0  0
 18 28  2  0  0  0  0
 18 29  1  0  0  0  0
 19 20  1  0  0  0  0
 19 21  1  0  0  0  0
 20 26  1  0  0  0  0
 21 27  1  0  0  0  0
 22 28  1  0  0  0  0
 23 30  1  0  0  0  0
 23 31  1  0  0  0  0
 23 32  1  0  0  0  0
 23 33  1  0  0  0  0
  1 34  1  0  0  0  0
  2 35  1  0  0  0  0
  3 36  1  0  0  0  0
  4 37  1  0  0  0  0
  5 38  1  0  0  0  0
  6 39  1  0  0  0  0
  7 40  1  0  0  0  0
  8 41  1  0  0  0  0
  9 42  1  0  0  0  0
 10 43  1  0  0  0  0
 11 44  1  0  0  0  0
 19 45  1  0  0  0  0
 19 46  1  0  0  0  0
 20 47  1  0  0  0  0
 20 48  1  0  0  0  0
 21 49  1  0  0  0  0
 21 50  1  0  0  0  0
 27 51  1  0  0  0  0
 28 52  1  0  0  0  0
 29 53  1  0  0  0  0
 29 54  1  0  0  0  0
M  CHG  2  27   1  28   1
M  END
> <OMEGA_C>
lK3HQAW5pb7KO7jBvdO8QLETsr8XbrHBSBnDQNungD8luLTBuhKcQLfOh0B9yLXBl0HlQFXCh0CS
Cq/BZXCnQCIfpkClfr3BfqbwQKhfpkCSy7bBPNSoQOtMSz6zgqPBnVmTQOQ1X8BNzKPBfz6lQGp7
B8DCgpTBA6OMQEHLicB4XpLBNm6tQEaEkb9R/KbBSQCiQBU4EMBCu5/Bzm26QEkEckBRSa7BQIez
QJm/oz+oR6rBVOPRQMMrtkC3C77BfabDQASROUAFoJvBjox4QCcjVECpKJnBOa7cQIB1d0ClXofB
DketQDjsXkB13ojBSmr5QDoENkDoSI3BfiKtQNGKLUApH6bBrqu/QLhp5UAM8szBtdaIQPK8j8D9
Ep3BtZ2aQDErScAQBY7BJQOlQImOWEDoh5TBr/DqQAIDKEBahpjBLFd/QAxOOkANI6PBAMYrQKvy
Z0ARIZTBby7fQFas1EDlc8XB2faeQGNY+UAVtsfBInuwQPbSxUACctPBaUPTQPd2AUE4M9PB0JHT
QCpTBr9aL8DBTUPAQL0sGsC4MLTBlHfLQAn86D/W/LnB4IN3QLYtd0DOjrXBpj79QLvedkBto6nB
v6+PQPh1sUAQGMPBjJoIQW3bsUAJMrfBO/KcQDdNyz7njZvB+4eQQE1NaMB9VazB7UmwQDLTl7+e
G5HBcyuEQGPLo8DZFY3BHDniQHbjm0Amq4rBzJHkQIo0d0BVln3BitqmQIz+IEAPAYXBPpuYQJkr
iECfUoXBTD0NQYEnTkCSY43Bclb4QMdV8T8J+ojBe7T/QKSXEECT3J3BGstNQCiTMEBuDajBDTrp
P9ftYkAnI5jB9KsrQOM5e0AxgIzB

> <OMEGA_E>
8KQwPw==

> <OMEGA_NBR>
     21673

$$$$
50223144
  -OEChem-04172616093D

 49 53  0     1  0  0  0  0  0999 V2000
    6.2373   -0.3319  -23.0154 C   0  0  0  0  0  0  0  0  0  0  0  0
    5.9052   -1.3960  -22.1579 C   0  0  0  0  0  0  0  0  0  0  0  0
    6.0875    0.9993  -22.5852 C   0  0  0  0  0  0  0  0  0  0  0  0
    4.8968    4.2888  -22.7439 C   0  0  0  0  0  0  0  0  0  0  0  0
    7.1628    4.2405  -21.8977 C   0  0  0  0  0  0  0  0  0  0  0  0
    5.2745    0.2022  -20.4272 C   0  0  0  0  0  0  0  0  0  0  0  0
    5.3126    5.2410  -23.6959 C   0  0  0  0  0  0  0  0  0  0  0  0
    7.5076    5.1959  -22.8749 C   0  0  0  0  0  0  0  0  0  0  0  0
    4.6209   -3.4914  -20.4450 C   0  0  0  0  0  0  0  0  0  0  0  0
    5.1787   -2.1130  -18.5394 C   0  0  0  0  0  0  0  0  0  0  0  0
    4.4219   -4.3061  -18.2640 C   0  0  0  0  0  0  0  0  0  0  0  0
    5.4243   -1.1367  -20.8533 C   0  0  0  0  0  0  0  0  0  0  0  0
    5.0741   -2.2530  -19.9414 C   0  0  0  0  0  0  0  0  0  0  0  0
    5.6015    1.2809  -21.2823 C   0  0  0  0  0  0  0  0  0  0  0  0
    5.8246    3.7920  -21.7998 C   0  0  0  0  0  0  0  0  0  0  0  0
    6.1112    2.9063  -19.4605 C   0  0  0  0  0  0  0  0  0  0  0  0
    3.8805    3.3093  -19.1437 C   0  0  0  0  0  0  0  0  0  0  0  0
    6.8972    3.8533  -16.9197 C   0  0  0  0  0  0  0  0  0  0  0  0
    5.4160    3.4695  -17.1084 C   0  0  0  0  0  0  0  0  0  0  0  0
    7.7944    2.8374  -17.6687 C   0  0  0  0  0  0  0  0  0  0  0  0
    5.4027    2.7203  -20.7738 C   0  0  2  0  0  0  0  0  0  0  0  0
    6.5917    5.6825  -23.7454 N   0  0  0  0  0  0  0  0  0  0  0  0
    4.2998   -4.4954  -19.6012 N   0  0  0  0  0  0  0  0  0  0  0  0
    4.8545   -3.1396  -17.7246 N   0  0  0  0  0  0  0  0  0  0  0  0
    5.1546    3.3798  -18.5674 N   0  0  0  0  0  0  0  0  0  0  0  0
    7.3400    2.6301  -19.0757 N   0  3  0  0  0  0  0  0  0  0  0  0
    3.9846    2.9265  -20.3987 N   0  3  0  0  0  0  0  0  0  0  0  0
    2.6820    3.6030  -18.5050 N   0  0  0  0  0  0  0  0  0  0  0  0
    6.6089   -0.5375  -24.0084 H   0  0  0  0  0  0  0  0  0  0  0  0
    6.0178   -2.4152  -22.4970 H   0  0  0  0  0  0  0  0  0  0  0  0
    6.3437    1.8109  -23.2501 H   0  0  0  0  0  0  0  0  0  0  0  0
    3.8746    3.9403  -22.7355 H   0  0  0  0  0  0  0  0  0  0  0  0
    7.9159    3.8530  -21.2275 H   0  0  0  0  0  0  0  0  0  0  0  0
    4.9046    0.4053  -19.4330 H   0  0  0  0  0  0  0  0  0  0  0  0
    4.5937    5.6279  -24.4030 H   0  0  0  0  0  0  0  0  0  0  0  0
    8.5269    5.5484  -22.9307 H   0  0  0  0  0  0  0  0  0  0  0  0
    4.5305   -3.6367  -21.5114 H   0  0  0  0  0  0  0  0  0  0  0  0
    5.5199   -1.1794  -18.1171 H   0  0  0  0  0  0  0  0  0  0  0  0
    4.1638   -5.1185  -17.6008 H   0  0  0  0  0  0  0  0  0  0  0  0
    7.0689    4.8617  -17.3241 H   0  0  0  0  0  0  0  0  0  0  0  0
    7.1453    3.8408  -15.8481 H   0  0  0  0  0  0  0  0  0  0  0  0
    5.2171    2.4982  -16.6319 H   0  0  0  0  0  0  0  0  0  0  0  0
    4.7698    4.2378  -16.6587 H   0  0  0  0  0  0  0  0  0  0  0  0
    8.8275    3.2151  -17.6800 H   0  0  0  0  0  0  0  0  0  0  0  0
    7.7619    1.8744  -17.1382 H   0  0  0  0  0  0  0  0  0  0  0  0
    7.9887    2.2705  -19.7465 H   0  0  0  0  0  0  0  0  0  0  0  0
    3.2097    2.7928  -21.0166 H   0  0  0  0  0  0  0  0  0  0  0  0
    1.8185    3.5291  -19.0038 H   0  0  0  0  0  0  0  0  0  0  0  0
    2.6831    3.8884  -17.5466 H   0  0  0  0  0  0  0  0  0  0  0  0
  1  2  1  0  0  0  0
  1  3  2  0  0  0  0
  2 12  2  0  0  0  0
  3 14  1  0  0  0  0
  4  7  2  0  0  0  0
  4 15  1  0  0  0  0
  5  8  1  0  0  0  0
  5 15  2  0  0  0  0
  6 12  1  0  0  0  0
  6 14  2  0  0  0  0
  7 22  1  0  0  0  0
  8 22  2  0  0  0  0
  9 13  1  0  0  0  0
  9 23  2  0  0  0  0
 10 13  2  0  0  0  0
 10 24  1  0  0  0  0
 11 23  1  0  0  0  0
 11 24  2  0  0  0  0
 12 13  1  0  0  0  0
 14 21  1  0  0  0  0
 15 21  1  0  0  0  0
 16 21  1  0  0  0  0
 16 25  1  0  0  0  0
 16 26  2  0  0  0  0
 17 25  1  0  0  0  0
 17 27  2  0  0  0  0
 17 28  1  0  0  0  0
 18 19  1  0  0  0  0
 18 20  1  0  0  0  0
 19 25  1  0  0  0  0
 20 26  1  0  0  0  0
 21 27  1  0  0  0  0
  1 29  1  0  0  0  0
  2 30  1  0  0  0  0
  3 31  1  0  0  0  0
  4 32  1  0  0  0  0
  5 33  1  0  0  0  0
  6 34  1  0  0  0  0
  7 35  1  0  0  0  0
  8 36  1  0  0  0  0
  9 37  1  0  0  0  0
 10 38  1  0  0  0  0
 11 39  1  0  0  0  0
 18 40  1  0  0  0  0
 18 41  1  0  0  0  0
 19 42  1  0  0  0  0
 19 43  1  0  0  0  0
 20 44  1  0  0  0  0
 20 45  1  0  0  0  0
 26 46  1  0  0  0  0
 27 47  1  0  0  0  0
 28 48  1  0  0  0  0
 28 49  1  0  0  0  0
M  CHG  2  26   1  27   1
M  END
> <OMEGA_C>
v5fHQK3vqb6IH7jBK/e8QFivsr93Q7HBmczCQNbTfz9/rrTBMrKcQBM+iUB287XB9zXlQA6yh0Bx
Lq/B+cioQGIHTz7faqPBiQCqQGW2p0A5kb3B+j3wQKZEpkDL/7bBKN6TQMZzX8BZj6PBvLelQA47
B8DDUJTBRYCNQJPLicCeHJLB45OtQKt+kb+p06bB6F6iQH4xEMDuh5/Bkj+zQNnzoz8sQqrBEmO6
QL+wckDsZa7BD4/DQGEAOkAtr5vBYll4QNnLU0A1JpnBx7XcQA2cdkB7W4fB4E+tQIwMXkAG3ojB
Amz5QJKYNUCSWY3BFOOsQJsZLkDWMKbBBe/SQOHWtUCf9r3Bp5eJQHzaj8BOz5zBclibQNnvSMDo
y43B1vKkQExPWEDviZTBn+HqQGJTKEAVm5jB5wJ/QCdMO0ChMKPBdqYrQA6YZkBACpTBJHzTQJeX
Cb8uEcDBjZHAQE+SGsDQ+bPBlf/KQKvL5z82ALrBrvh3QKcufEBA4rXBHE/9QGOXdkDt0anBy/Kc
QHGBzz7ddpvB+/+SQPsXtEBhOcPBLm4IQTGMsUAYcrfBe/mQQHy/aMBCF6zBq6KwQJ31lr/P75DB
pD2FQF3Ko8BczozBDTTiQEOTm0C8l4rBFqbkQDLQdUC9kX3Ba/KmQEzjH0AbDoXBXqKYQLebh0D8
RIXBfj0NQRTETUCYcI3BF2H4QDjr7z8aG4nBSKP/QDlPEUDS+J3BzWtNQKi8MkD0IajBAsPoP1Tc
YUCxB5jBMbcrQF7beEBoX4zBunSRQIJxTr8/Zq/BSpO5QI2oo7/KgrLBFMCNQMig6T69rKrBPjqn
QNxabEAQv7jBhR/bQCP3lkBu8qzBvqTaQO6jRj+Ee6zBuj+yQPR7lED8msDB8a3kQD4ttECYMrXB
dUf0QMQ6M8BYqabBUG4NQci1T7+AcqHBF+oRQTyYNcAUWpjBJD3eQGLHGr/axK7BroT8QPeatb+X
TKjBw9qxQG8hpz9DDarBRdy7QBgobkCOta7BWtHDQMK7N0B/eJvBfJN4QCIiUECYEZnBvU3XQCCj
PUC2UYXBsCWtQKo4ZkAUG4nBo4b6QOD/TEBOxo3BB4atQDhrL0DPCqbBzGvQQP+sskDzxL7BU9QD
QeijXsBOv57BxP4WQZHJw79SpJnB27qjQBizRUD4+JPBEjfsQKxyMUB4mpjBZtWAQKDiREBXZaPB
8NorQJ4TZEA4GJTBaaVqQHcKtb+sorDB2He8QID9CMC2qrfBz65eQFdNSD83gafB4hWPQH+tPEAW
ZLrBLYbrQFTvmECcW6XBBor2QHnotD96l6zBy0miQLChk0AQRMjB/sP8QAhfzECr2rPBYRfeQG8X
VMC926vBZGMRQb3RbT5ZdqLBQG8ZQZHtWMDK8pHBnQLhQMLKWkATX3vBabPSQBvU8D82NITBKBeT
QMaDVEBsnoPBSGawQIQmlkC3T4nBEScBQYTRiEDO/Y3BO5wLQc1fKEDIiIvBj80AQczVGUAHxZ3B
UGhSQCUmSkANwKjBRiDtPxHPakCgcZjBFsopQAm8a0ACKIzBiMOOQMSNMb8d47LBmlS0QF9NuL9Y
QbHB/j6MQENUIz/bUa/BzFa5QGicXUC3obnBDSjOQPAJn0BcbavBG7/VQB3d/z454KjBNKzHQEan
jUDAC8HBqivcQBMxvEAwRrPBjWj+QBJLQsAzFKnBnysUQTPzgL9s0KnBiVEkQcw8RcD33KbBoTLY
QHAtWb9xO6zBIOD/QPIp0b/IZqrB/3uvQKlPnz+YEarB21K9QH2vbUDFi67BlXzDQE47OEBcnZvB
2sp3QHUlTkDv85jBUQ7ZQINHO0AwrYXBXcytQBS2YkA2+4jBJGX7QAvJUUApI47BQLGsQGpwLUAK
KKbBw+nYQMxGs0Dq1b3B2VYRQfkbb8DuUqfBkv4lQVaL3r8eE6jBKMGjQKOwREDa+JPBZnLsQIVs
PUBxLJnBRACAQP/HQkAVVqPBtRMrQKRhYEBf0ZPBHIFnQEZ3kr+k5LbBO861QAEFHsAV2bPBLXpe
QOkDmj/tlrDBV2SrQItlIkBXaLzBOj3QQGZPp0DxDaPByXzxQKASeD+zWKXBn9PEQHkah0Daf8nB
I9XpQBpc2kDRzbDBohPgQG9FY8BHeanBB2IVQYXHgT1Nw6rBorMyQXHlacASeaXBj8DiQJoUVUA1
tnvB587VQJ6k6j+KHoXB+ZiUQPrZTUALa4PBnwewQHB7lECj34jBeUkBQY1Li0CTo43BhEoMQf7P
LEDmc4zBthcBQfhhM0CY6J7BgytQQBTmR0DinKjBHSjqPxKyZUBxD5jB2topQG0xaEAP4YvB

> <OMEGA_E>
Er8XPyqdGj8oky4/

> <OMEGA_NBR>
     24475

$$$$
50223077
  -OEChem-04172616093D

 49 53  0     1  0  0  0  0  0999 V2000
    6.0322   -0.4013  -23.0067 C   0  0  0  0  0  0  0  0  0  0  0  0
    5.6650   -1.4376  -22.1336 C   0  0  0  0  0  0  0  0  0  0  0  0
    5.9443    0.9379  -22.5912 C   0  0  0  0  0  0  0  0  0  0  0  0
    7.2507    3.7572  -22.2305 C   0  0  0  0  0  0  0  0  0  0  0  0
    5.0451    4.7475  -22.3405 C   0  0  0  0  0  0  0  0  0  0  0  0
    5.1658    0.2057  -20.4001 C   0  0  0  0  0  0  0  0  0  0  0  0
    7.6806    4.6935  -23.1914 C   0  0  0  0  0  0  0  0  0  0  0  0
    5.5489    5.6647  -23.2839 C   0  0  0  0  0  0  0  0  0  0  0  0
    4.2404   -3.4342  -20.4352 C   0  0  0  0  0  0  0  0  0  0  0  0
    4.8603   -2.0992  -18.5181 C   0  0  0  0  0  0  0  0  0  0  0  0
    3.9488   -4.2352  -18.2606 C   0  0  0  0  0  0  0  0  0  0  0  0
    5.2129   -1.1418  -20.8271 C   0  0  0  0  0  0  0  0  0  0  0  0
    4.7726   -2.2312  -19.9215 C   0  0  0  0  0  0  0  0  0  0  0  0
    5.5340    1.2607  -21.2700 C   0  0  0  0  0  0  0  0  0  0  0  0
    5.9022    3.7620  -21.8006 C   0  0  0  0  0  0  0  0  0  0  0  0
    6.1107    2.9267  -19.4761 C   0  0  0  0  0  0  0  0  0  0  0  0
    3.8655    3.2339  -19.1307 C   0  0  0  0  0  0  0  0  0  0  0  0
    5.4364    3.5991  -17.1412 C   0  0  0  0  0  0  0  0  0  0  0  0
    7.8590    3.2774  -17.7882 C   0  0  0  0  0  0  0  0  0  0  0  0
    5.3964    2.7210  -20.7810 C   0  0  2  0  0  0  0  0  0  0  0  0
    6.7821    2.9629  -16.7205 C   0  0  0  0  0  0  0  0  0  0  0  0
    6.8377    5.6240  -23.6977 N   0  0  0  0  0  0  0  0  0  0  0  0
    3.8363   -4.4144  -19.5998 N   0  0  0  0  0  0  0  0  0  0  0  0
    4.4504   -3.1013  -17.7114 N   0  0  0  0  0  0  0  0  0  0  0  0
    5.1224    3.1465  -18.5207 N   0  0  0  0  0  0  0  0  0  0  0  0
    7.3890    2.9355  -19.1627 N   0  3  0  0  0  0  0  0  0  0  0  0
    3.9784    2.9463  -20.4108 N   0  3  0  0  0  0  0  0  0  0  0  0
    2.6711    3.5438  -18.4921 N   0  0  0  0  0  0  0  0  0  0  0  0
    6.6409    1.6119  -16.6107 F   0  0  0  0  0  0  0  0  0  0  0  0
    7.1770    3.4664  -15.5227 F   0  0  0  0  0  0  0  0  0  0  0  0
    6.3834   -0.6344  -24.0011 H   0  0  0  0  0  0  0  0  0  0  0  0
    5.7282   -2.4647  -22.4612 H   0  0  0  0  0  0  0  0  0  0  0  0
    6.1910    1.7297  -23.2829 H   0  0  0  0  0  0  0  0  0  0  0  0
    7.9471    3.0389  -21.8237 H   0  0  0  0  0  0  0  0  0  0  0  0
    4.0112    4.7972  -22.0322 H   0  0  0  0  0  0  0  0  0  0  0  0
    4.8440    0.4337  -19.3947 H   0  0  0  0  0  0  0  0  0  0  0  0
    8.7053    4.6683  -23.5316 H   0  0  0  0  0  0  0  0  0  0  0  0
    4.8903    6.4195  -23.6875 H   0  0  0  0  0  0  0  0  0  0  0  0
    4.1561   -3.5709  -21.5032 H   0  0  0  0  0  0  0  0  0  0  0  0
    5.2574   -1.1917  -18.0878 H   0  0  0  0  0  0  0  0  0  0  0  0
    3.6254   -5.0290  -17.6035 H   0  0  0  0  0  0  0  0  0  0  0  0
    4.6408    3.2773  -16.4531 H   0  0  0  0  0  0  0  0  0  0  0  0
    5.5194    4.6957  -17.1186 H   0  0  0  0  0  0  0  0  0  0  0  0
    8.0969    4.3507  -17.7493 H   0  0  0  0  0  0  0  0  0  0  0  0
    8.7638    2.6930  -17.5651 H   0  0  0  0  0  0  0  0  0  0  0  0
    8.0635    2.7069  -19.8646 H   0  0  0  0  0  0  0  0  0  0  0  0
    3.2101    2.8876  -21.0483 H   0  0  0  0  0  0  0  0  0  0  0  0
    1.8161    3.5589  -19.0106 H   0  0  0  0  0  0  0  0  0  0  0  0
    2.6664    3.7516  -17.5139 H   0  0  0  0  0  0  0  0  0  0  0  0
  1  2  1  0  0  0  0
  1  3  2  0  0  0  0
  2 12  2  0  0  0  0
  3 14  1  0  0  0  0
  4  7  2  0  0  0  0
  4 15  1  0  0  0  0
  5  8  1  0  0  0  0
  5 15  2  0  0  0  0
  6 12  1  0  0  0  0
  6 14  2  0  0  0  0
  7 22  1  0  0  0  0
  8 22  2  0  0  0  0
  9 13  1  0  0  0  0
  9 23  2  0  0  0  0
 10 13  2  0  0  0  0
 10 24  1  0  0  0  0
 11 23  1  0  0  0  0
 11 24  2  0  0  0  0
 12 13  1  0  0  0  0
 14 20  1  0  0  0  0
 15 20  1  0  0  0  0
 16 20  1  0  0  0  0
 16 25  1  0  0  0  0
 16 26  2  0  0  0  0
 17 25  1  0  0  0  0
 17 27  2  0  0  0  0
 17 28  1  0  0  0  0
 18 21  1  0  0  0  0
 18 25  1  0  0  0  0
 19 21  1  0  0  0  0
 19 26  1  0  0  0  0
 20 27  1  0  0  0  0
 21 29  1  0  0  0  0
 21 30  1  0  0  0  0
  1 31  1  0  0  0  0
  2 32  1  0  0  0  0
  3 33  1  0  0  0  0
  4 34  1  0  0  0  0
  5 35  1  0  0  0  0
  6 36  1  0  0  0  0
  7 37  1  0  0  0  0
  8 38  1  0  0  0  0
  9 39  1  0  0  0  0
 10 40  1  0  0  0  0
 11 41  1  0  0  0  0
 18 42  1  0  0  0  0
 18 43  1  0  0  0  0
 19 44  1  0  0  0  0
 19 45  1  0  0  0  0
 26 46  1  0  0  0  0
 27 47  1  0  0  0  0
 28 48  1  0  0  0  0
 28 49  1  0  0  0  0
M  CHG  2  26   1  27   1
M  END
> <OMEGA_C>
mwfBQCB7zb7ADbjBs0e1QDwCuL+UEbHBdDe+QOgacD+zurTBowXoQBB2cEAc2LHBKXGhQJfrl0Bw
ubLBUk6lQMWnUj5mM6PBJ8f1QMswlkDyh7nBl5CxQPREtUCCRbrBN7GHQKnKW8Bbe6PBc4ebQKVY
BsANJZTBcbl8QCeHh8CpFZLB0s+mQLonkr/YnabBMrmYQC7LDsA/X5/BnxaxQAZdoT/jKKrBvN68
QMrDcECeZ67BvIrDQNZOO0D0zpvBvmN3QKz4TkC5C5nBPPetQGBXZkAnIYnBsHz7QP/AUUA9To7B
R6+sQCQkLkCOP6bBvwbZQGefPUCQw4XBQ87aQDH4s0D7lL3BfoZ1QNBCjcBVzJzBdWmOQHt7RsAL
sY3BTeqjQPxfSUBbKpTBX3LsQI/fO0AoTZnBbJ1+QLWPPEBSSaPBUfMqQO7MYkDJ75PBD4LUQC9R
zj/N4oTBW6rlQM/YXUAvXXjBfkTMQOlnIr8zAsDBNk23QAi+HcCgsLPBsBzGQPJn3T9vQ7rBk07+
QMl9QkD0lq7B5FuAQM6CmUDmQbDBsAGbQAgQ3j5YKJvBv0gLQaNilUC9QLzBkX2cQPFszUDwf73B
Jv+EQCGJZMCiBqzBijyoQHiImL/Ms5DBOAZoQJ3toMD904zBQIGUQI+/UUAKoIPBO5+wQEhDlkDP
8ojBvowBQbA4i0Cn/o3BYTgMQbtZLEA/hYzBGAQBQX0+LUDG6p7Bf3JNQGrOOEDXYqjBcnfoP5jE
Y0CiFZjBjqYqQOYacECNHIzBzTzAQJ6Vx75pabjBZwe0QGvjt7+rlLHBnt69QAtAcT++5bTByXno
QFWLb0B9krHBejCiQIUfmEDNarLBOIykQAbHOT6oe6PBiKj2QBIflkCSHbnBML2yQDfatUA20LnB
1ZeFQJuaXMB8U6TBWKCZQD7LCcDex5TBmXR3QOYUicCaDpPB5Y2lQMpRlL+gGKfBqvSWQIeREMDK
BqDBeMmwQJZ1nz90SarBrzq9QNkFcEBqNa7BxmXDQHMdOUBhu5vBV1J3QPH/TkAcDZnBoq+tQJlM
X0BO6YjB5i/7QAreRkDt9o3B1qOsQJGdLECVMqbBp8zbQDgbgUBa2YfBjgjcQDZmtEAnFL3B+Xpw
QMcBjsA9zJ3BMhWMQLaSSsBhfI7B3nGkQKbZU0C/eJTBRf3rQLVCM0CxB5nB64R+QN+HO0ACQ6PB
bFcqQHGKXUBjy5PBjTrnQASTgkD3vnrBmO3dQKtXqUDFBYzBOXvLQMz4G78PZMDB0bK1QMlYHcA8
WLTB9xLGQLEz3z9sULrB1oH+QLXaQEDWXq7BvBOBQDXcmUAp+6/BUUmaQOh5yj6NaZvBDsALQV42
lUDJy7vB5fSdQHpuzkCS9bzBEvyCQNwNZMAY5KzBxZKmQGj2oL85MpHBhw9iQPG+osD07I3BwgOr
QHt/IUAHwITB6OWWQNuHhkDXaIXBwEQNQfieZkAyeY7B3nT+QLV+CkAug4nBsKcAQWYkIUCRjJ7B
SFpNQM5bN0BGW6jB0DLmP856WUBJzZfBpywqQHwRbEDbAIzB3fWOQM3TMr/z07LBkYK0QK7TuL9g
JbHB1WKMQLRuIj+bTK/BXZ+5QMViXUB/ornBkQ7OQGwVn0CFbavBts3VQFCH/z5tyqjB6xjIQLV/
jUDbCsHBZz3cQB8tvEA0RLPBjYX+QG9XQsAC46jBfTcUQQsDgb+joKnBZF0kQYsxRcDTn6bBRU/Y
QHexWb/rG6zB6vr/QJhM0b8fO6rBcoyvQCovnz/9CarBHVi9QGqqbUAdja7BlHPDQLmXOEDVp5vB
irl3QHY0TkAR95jBG+itQGzEYkD0AYnBEI/7QFw2UkByPY7BP6WsQA96LUAzK6bB5nDZQLa1O0AM
uYXBKz3ZQM8ps0Ce073Bc2QRQYkab8ByGafBnwkmQfN83r+K2qfBrMSjQIH9REARAZTBaW3sQGw0
PkBhQpnBOeJ/QB/BQkDwWKPBXAQrQAlPYEDt0ZPB9tvVQK0Ayj9V+ITBhOTlQPqiW0AfO3jBggFo
QBJYk7/U17bB8QW2QPhYHsAMtrPB+cZeQJh1mT9Pm7DBeMWrQGkYIkBOarzBGerPQLdup0B8DqPB
mX3xQBJLeD9yP6XBp3HFQDLihkAlf8nB29LpQMRf2kDAyrDBXzPgQPtZY8CBSqnBbm0VQfpdgD1x
l6rBq74yQZrOacAaNaXBVNSUQNF2TUCUb4PBxe6vQGiFlEBQ34jB+GcBQXx9i0DJuo3B6F8MQR4Z
LUDDm4zBoAkBQVe3NEC/B5/B2QVQQOXFR0AUn6jBSezpP0F0ZUDuDZjBF9wpQLMxaEDe4YvBXsqN
QPzYLr9uUrPBnROzQKrtuL+jwLHB6KSLQJMYJD82ka/BYtC5QEdoXkArdrnB1PnOQNMpnkDXBqvB
7/7UQDKN7j6sFqnBk7HIQLtmjkDpt8DB0nvdQGW1u0DAuLLByHf8QJgpRcCbsKnBPosTQRdNiL8j
HKrB8U8jQc/rScDCX6fB5QzXQPMbYL/BnazBVG7+QOWu1r9Y1qrBtvuuQHrFnD/GMarBo6m9QBLI
bEDTVq7BP0rDQJSrNUBwipvBo3l3QNZKTkAD9ZjBC7CtQN31W0AotYjBe0L7QO3QRkCe6o3BIIis
QHGoK0DcGabBT47bQNFOgEAAu4fBqFPaQHSVs0CnUr3BLzsQQWvwcsAA+KfBRjklQUvI5794aKjB
e0akQCqRTkC6OZTBNDfsQGGpNUCcA5nB55B/QIaXQUAFUaPBSjgqQG2pW0COt5PBGFvnQKzDgUDO
knrBxO/cQFKeqEAO4IvBSmxlQGDWjr+CbLfB8kC0QM4BHsDqerTBya5dQP/qmz8TybDBRI6rQHX1
I0BfY7zB2gnRQCrMpUCunaLBKN3wQMZoaz/OfaXB/fPFQFt7iED/M8nBqXLrQDeI2UCpGbDBPfrd
QE90ZcA2MarBq/EUQThH3zu466rBtZUxQbZZb8AeBabBaZmrQG2lHkBBaoTBc5CWQIm0hEDRR4XB
DkkNQe7ZZkBBR47Bj4T+QOaXCUArponB0OoAQS3GKUDbuJ7BZrdPQKgjRkBGmajBe/TmP80VXEBw
3JfBi1kpQNHcZEAFzYvB

> <OMEGA_E>
XvYuP1YjMT/YijM/+NgzPw==

> <OMEGA_NBR>
     28115

$$$$
50223271
  -OEChem-04172616093D

 46 49  0     1  0  0  0  0  0999 V2000
    6.9882   -0.1479  -22.8271 C   0  0  0  0  0  0  0  0  0  0  0  0
    6.7431    1.1021  -22.2348 C   0  0  0  0  0  0  0  0  0  0  0  0
    6.7709    4.6097  -21.5226 C   0  0  0  0  0  0  0  0  0  0  0  0
    4.9559    3.7315  -22.9074 C   0  0  0  0  0  0  0  0  0  0  0  0
    7.1088    5.5042  -22.5426 C   0  0  0  0  0  0  0  0  0  0  0  0
    5.3006    4.6198  -23.9280 C   0  0  0  0  0  0  0  0  0  0  0  0
    6.1970   -1.2560  -22.4755 C   0  0  0  0  0  0  0  0  0  0  0  0
    4.9112    0.1369  -20.9389 C   0  0  0  0  0  0  0  0  0  0  0  0
    5.6921    3.7133  -21.7044 C   0  0  0  0  0  0  0  0  0  0  0  0
    5.6717    1.2635  -21.3155 C   0  0  0  0  0  0  0  0  0  0  0  0
    6.3715    5.5126  -23.7561 C   0  0  0  0  0  0  0  0  0  0  0  0
    5.1704   -1.1144  -21.5215 C   0  0  0  0  0  0  0  0  0  0  0  0
    6.0845    2.7921  -19.4077 C   0  0  0  0  0  0  0  0  0  0  0  0
    3.8901    3.3731  -19.1465 C   0  0  0  0  0  0  0  0  0  0  0  0
    5.3895    3.4422  -17.1016 C   0  0  0  0  0  0  0  0  0  0  0  0
    7.7811    2.8116  -17.6397 C   0  0  0  0  0  0  0  0  0  0  0  0
    5.3722    2.6277  -20.7010 C   0  0  1  0  0  0  0  0  0  0  0  0
    6.8656    3.8171  -16.8947 C   0  0  0  0  0  0  0  0  0  0  0  0
    7.5941    7.4206  -24.5526 C   0  0  0  0  0  0  0  0  0  0  0  0
    5.1553    3.3624  -18.5526 N   0  0  0  0  0  0  0  0  0  0  0  0
    7.3218    2.5494  -19.0338 N   0  3  0  0  0  0  0  0  0  0  0  0
    3.9574    2.7988  -20.3249 N   0  3  0  0  0  0  0  0  0  0  0  0
    2.7366    3.8945  -18.5821 N   0  0  0  0  0  0  0  0  0  0  0  0
    6.6420    6.3676  -24.8048 O   0  0  0  0  0  0  0  0  0  0  0  0
    7.1514    3.7783  -15.5714 F   0  0  0  0  0  0  0  0  0  0  0  0
    7.0845    5.0734  -17.3726 F   0  0  0  0  0  0  0  0  0  0  0  0
    4.1255   -2.6184  -21.0102 Br  0  0  0  0  0  0  0  0  0  0  0  0
    7.7823   -0.2576  -23.5508 H   0  0  0  0  0  0  0  0  0  0  0  0
    7.3724    1.9450  -22.4795 H   0  0  0  0  0  0  0  0  0  0  0  0
    7.3314    4.6033  -20.5994 H   0  0  0  0  0  0  0  0  0  0  0  0
    4.1233    3.0565  -23.0394 H   0  0  0  0  0  0  0  0  0  0  0  0
    7.9322    6.1899  -22.4074 H   0  0  0  0  0  0  0  0  0  0  0  0
    4.7423    4.6205  -24.8524 H   0  0  0  0  0  0  0  0  0  0  0  0
    6.3766   -2.2158  -22.9370 H   0  0  0  0  0  0  0  0  0  0  0  0
    4.1285    0.2366  -20.2015 H   0  0  0  0  0  0  0  0  0  0  0  0
    5.1793    2.4696  -16.6328 H   0  0  0  0  0  0  0  0  0  0  0  0
    4.7404    4.2112  -16.6576 H   0  0  0  0  0  0  0  0  0  0  0  0
    8.8011    3.2219  -17.6751 H   0  0  0  0  0  0  0  0  0  0  0  0
    7.7870    1.8616  -17.0852 H   0  0  0  0  0  0  0  0  0  0  0  0
    7.7200    8.0272  -25.4615 H   0  0  0  0  0  0  0  0  0  0  0  0
    7.2276    8.0579  -23.7344 H   0  0  0  0  0  0  0  0  0  0  0  0
    8.5614    6.9800  -24.2692 H   0  0  0  0  0  0  0  0  0  0  0  0
    7.9697    2.1804  -19.7002 H   0  0  0  0  0  0  0  0  0  0  0  0
    3.1730    2.5213  -20.8797 H   0  0  0  0  0  0  0  0  0  0  0  0
    1.8710    3.8481  -19.0805 H   0  0  0  0  0  0  0  0  0  0  0  0
    2.7701    4.3172  -17.6764 H   0  0  0  0  0  0  0  0  0  0  0  0
  1  2  2  0  0  0  0
  1  7  1  0  0  0  0
  2 10  1  0  0  0  0
  3  5  2  0  0  0  0
  3  9  1  0  0  0  0
  4  6  1  0  0  0  0
  4  9  2  0  0  0  0
  5 11  1  0  0  0  0
  6 11  2  0  0  0  0
  7 12  2  0  0  0  0
  8 10  2  0  0  0  0
  8 12  1  0  0  0  0
  9 17  1  0  0  0  0
 10 17  1  0  0  0  0
 11 24  1  0  0  0  0
 12 27  1  0  0  0  0
 13 17  1  0  0  0  0
 13 20  1  0  0  0  0
 13 21  2  0  0  0  0
 14 20  1  0  0  0  0
 14 22  2  0  0  0  0
 14 23  1  0  0  0  0
 15 18  1  0  0  0  0
 15 20  1  0  0  0  0
 16 18  1  0  0  0  0
 16 21  1  0  0  0  0
 17 22  1  0  0  0  0
 18 25  1  0  0  0  0
 18 26  1  0  0  0  0
 19 24  1  0  0  0  0
  1 28  1  0  0  0  0
  2 29  1  0  0  0  0
  3 30  1  0  0  0  0
  4 31  1  0  0  0  0
  5 32  1  0  0  0  0
  6 33  1  0  0  0  0
  7 34  1  0  0  0  0
  8 35  1  0  0  0  0
 15 36  1  0  0  0  0
 15 37  1  0  0  0  0
 16 38  1  0  0  0  0
 16 39  1  0  0  0  0
 19 40  1  0  0  0  0
 19 41  1  0  0  0  0
 19 42  1  0  0  0  0
 21 43  1  0  0  0  0
 22 44  1  0  0  0  0
 23 45  1  0  0  0  0
 23 46  1  0  0  0  0
M  CHG  2  21   1  22   1
M  END
> <OMEGA_C>
EJ/fQOpvF77gnbbBTsfXQMAQjT/k4LHB2arYQOOCk0A/LqzBy5aeQH7RbkBKQrfBY3vjQC0isEBM
V7TB2Z6pQIjVk0BybL/BJk7GQDvFoL/JzbPB8CidQNgoDD7mgqfBUyW2QA6nbUCJoq3B9n61QMC4
oT8ehqrB9+LLQCNnsEBuDL7BT3SlQLyjjr/1K6zBRLTCQHayMkDxQpvBz/d4QFXgV0AdLJnBB3es
QIVMXEAh0IjBqv74QIjxM0ADHo3BM+mrQPIrKECUm6XBUrPbQKJLdEBxKIfBBAPzQF917UDAa8TB
OvikQF8yV0Cxa5TB0kvqQOMpI0BRRZjBU0Z9QHYfM0B9maLBMyUvQNo/eUARqJTBXIvUQJnDy0Aq
cMbBadjkQL7PcUClJHnB7LPiQGdZokAf+4rB2QOEQLaTJ8DmFKjBpwj5QPfgg774Z7zBYerrQIr1
+D8Y1rPBkZrqQGVOk0Cpy6TByfGDQNSdQ0DGULjBLdT9QK0TxkBYQrPBtMCXQDvbk0C90cbB9gzM
QMLPDcDrfrfBkhyEQJ5Rcj69nKHB17ylQEsNHkDkD4XBOLGXQGDChkDDQoXBUdEMQTYzTkCTZo3B
XC/5QAlJ7j90rojBBQr3QIdvAEE4scvB0EjnQDPtAEEE4L3BS/sIQSBc30A6J8LBzgf/QLGLC0Dw
mZ3B3RJLQKldIUCfCafBTXvvP0tHdkDSpJjBoUkxQDomikA9aY3B6DThQMMWC77/eLbBgCjYQGB2
jj9e2bHBiuTWQEBBlECC26vBNbKdQP/FbkC3FrfBlSrhQDqLsUA57LPBfRaoQCOMlEBGJL/BLcbI
QPZ5ob8znLPBN9SdQB6x6D0FlqfB5DS1QMt3bUBUdK3Ba3e1QOeRoD+Ql6rBB83JQAussUBPq73B
1HenQOCCkb8YFazBoRjCQCasLkDmIZvBrOF4QGk6VkB5LJnBWyOvQBnWdUD27onBj7/6QIfwSEC4
F47BB2OrQPvBJkAsjKXBpEzXQFfJSUDwd4XBezzxQEaC7kDDEsTBqSujQPHZSEBl2ZPBuJvqQJyc
JkDvcpjBHCN8QE9XMECbhqLBJn0zQB30gUD9RpXBDTrSQEBFzUAxB8bBlMTNQDp27z+np4LBWk7l
QFOodUA2nXnBVq2HQKubKsD9xafBjdz6QDrRbL4QNrzBaavrQGsd/D8z0rPBRJ/oQL0xlEDmcKTB
3I+DQIl9QkAPPbjBOur6QA0ayEBZvLLBQyWWQCi1lECmhsbBwozPQMYwDsArL7fBPUSEQKjyTj6M
0KHB3uWUQP6/cUAPF4TBDAy2QIe5nEBRrIvBECMDQYRbhUAjVY/BgKoKQdCOIEAdTYvBNPr0QAUS
AUFBUcvBezvmQGBmAUH2bb3B3RUIQSj030Bh+sHBc9P+QFwMCUC3bZ3BBNJJQJBCHUAu26bBlB79
P97vhEBitpnBGV42QIZxj0AlCI7B

> <OMEGA_E>
TBupPlSTsz4=

> <OMEGA_NBR>
     29994

$$$$
50198747
  -OEChem-04172616093D

 45 47  0     1  0  0  0  0  0999 V2000
    6.5781   -0.4495  -22.0908 C   0  0  0  0  0  0  0  0  0  0  0  0
    6.4874    0.9409  -21.8895 C   0  0  0  0  0  0  0  0  0  0  0  0
    5.8224   -1.3318  -21.2988 C   0  0  0  0  0  0  0  0  0  0  0  0
    1.2606   -3.1102  -16.8513 C   0  0  0  0  0  0  0  0  0  0  0  0
    2.1671   -2.6508  -17.8114 C   0  0  0  0  0  0  0  0  0  0  0  0
    4.8665    0.5715  -20.1186 C   0  0  0  0  0  0  0  0  0  0  0  0
    2.6565   -5.0810  -16.5907 C   0  0  0  0  0  0  0  0  0  0  0  0
    5.6048    1.4709  -20.9166 C   0  0  0  0  0  0  0  0  0  0  0  0
    4.9776   -0.8135  -20.2918 C   0  0  0  0  0  0  0  0  0  0  0  0
    1.5098   -4.3417  -16.2322 C   0  0  0  0  0  0  0  0  0  0  0  0
    3.3073   -3.4346  -18.1346 C   0  0  0  0  0  0  0  0  0  0  0  0
    6.7546    3.3625  -19.7457 C   0  0  0  0  0  0  0  0  0  0  0  0
    4.1178    3.4293  -18.6757 C   0  0  0  0  0  0  0  0  0  0  0  0
    4.2807   -2.9260  -19.1179 C   0  0  0  0  0  0  0  0  0  0  0  0
    5.2877    3.2239  -17.7327 C   0  0  0  0  0  0  0  0  0  0  0  0
    5.5457    2.9827  -20.6409 C   0  0  1  0  0  0  0  0  0  0  0  0
    5.5597    3.7916  -21.9642 C   0  0  0  0  0  0  0  0  0  0  0  0
    7.7552    3.6887  -17.4823 C   0  0  0  0  0  0  0  0  0  0  0  0
    3.5259   -4.6277  -17.5248 N   0  0  0  0  0  0  0  0  0  0  0  0
    6.5862    3.5187  -18.3633 N   0  0  0  0  0  0  0  0  0  0  0  0
    4.2597    3.3558  -19.9790 N   0  3  0  0  0  0  0  0  0  0  0  0
    2.8412    3.5579  -18.1526 N   0  0  0  0  0  0  0  0  0  0  0  0
    4.1851   -1.5812  -19.4490 N   0  0  0  0  0  0  0  0  0  0  0  0
    7.8636    3.4980  -20.2540 O   0  0  0  0  0  0  0  0  0  0  0  0
    5.1774   -3.6512  -19.5355 O   0  0  0  0  0  0  0  0  0  0  0  0
    0.4009   -4.9526  -15.0352 Cl  0  0  0  0  0  0  0  0  0  0  0  0
    7.2312   -0.8402  -22.8571 H   0  0  0  0  0  0  0  0  0  0  0  0
    7.0955    1.6088  -22.4816 H   0  0  0  0  0  0  0  0  0  0  0  0
    5.8872   -2.3979  -21.4589 H   0  0  0  0  0  0  0  0  0  0  0  0
    0.3880   -2.5288  -16.5929 H   0  0  0  0  0  0  0  0  0  0  0  0
    2.0016   -1.7046  -18.3050 H   0  0  0  0  0  0  0  0  0  0  0  0
    4.2030    0.9588  -19.3595 H   0  0  0  0  0  0  0  0  0  0  0  0
    2.8453   -6.0293  -16.1095 H   0  0  0  0  0  0  0  0  0  0  0  0
    5.1599    3.8868  -16.8642 H   0  0  0  0  0  0  0  0  0  0  0  0
    5.2893    2.1763  -17.3973 H   0  0  0  0  0  0  0  0  0  0  0  0
    5.5167    4.8671  -21.7376 H   0  0  0  0  0  0  0  0  0  0  0  0
    6.4833    3.5706  -22.5192 H   0  0  0  0  0  0  0  0  0  0  0  0
    4.6889    3.5106  -22.5748 H   0  0  0  0  0  0  0  0  0  0  0  0
    7.4177    3.7947  -16.4407 H   0  0  0  0  0  0  0  0  0  0  0  0
    8.4095    2.8086  -17.5677 H   0  0  0  0  0  0  0  0  0  0  0  0
    8.3113    4.5895  -17.7809 H   0  0  0  0  0  0  0  0  0  0  0  0
    3.4689    3.5595  -20.5561 H   0  0  0  0  0  0  0  0  0  0  0  0
    2.0512    3.5931  -18.7647 H   0  0  0  0  0  0  0  0  0  0  0  0
    2.7098    3.6156  -17.1629 H   0  0  0  0  0  0  0  0  0  0  0  0
    3.4302   -1.0905  -19.0141 H   0  0  0  0  0  0  0  0  0  0  0  0
  1  2  2  0  0  0  0
  1  3  1  0  0  0  0
  2  8  1  0  0  0  0
  3  9  2  0  0  0  0
  4  5  2  0  0  0  0
  4 10  1  0  0  0  0
  5 11  1  0  0  0  0
  6  8  2  0  0  0  0
  6  9  1  0  0  0  0
  7 10  2  0  0  0  0
  7 19  1  0  0  0  0
  8 16  1  0  0  0  0
  9 23  1  0  0  0  0
 10 26  1  0  0  0  0
 11 14  1  0  0  0  0
 11 19  2  0  0  0  0
 12 16  1  0  0  0  0
 12 20  1  0  0  0  0
 12 24  2  0  0  0  0
 13 15  1  0  0  0  0
 13 21  2  0  0  0  0
 13 22  1  0  0  0  0
 14 23  1  0  0  0  0
 14 25  2  0  0  0  0
 15 20  1  0  0  0  0
 16 17  1  0  0  0  0
 16 21  1  0  0  0  0
 18 20  1  0  0  0  0
  1 27  1  0  0  0  0
  2 28  1  0  0  0  0
  3 29  1  0  0  0  0
  4 30  1  0  0  0  0
  5 31  1  0  0  0  0
  6 32  1  0  0  0  0
  7 33  1  0  0  0  0
 15 34  1  0  0  0  0
 15 35  1  0  0  0  0
 17 36  1  0  0  0  0
 17 37  1  0  0  0  0
 17 38  1  0  0  0  0
 18 39  1  0  0  0  0
 18 40  1  0  0  0  0
 18 41  1  0  0  0  0
 21 42  1  0  0  0  0
 22 43  1  0  0  0  0
 22 44  1  0  0  0  0
 23 45  1  0  0  0  0
M  CHG  1  21   1
M  END
> <OMEGA_C>
0n/SQDwh5r7uubDBjZjPQC3gcD+xHa/BBlG6QJV3qr/bY6rBglyhPzcOR8B7z4bBeLIKQIOmKcDH
fY7BerqbQBdQEj/a8qDBqQQqQHGXosCwuYTBRVqzQHxHvD8kVafBWkifQO1CUL+XVaLBxj/BPx7v
isCJ24HBKKpTQI7QW8C6E5HB1yXYQB8zV0BI953By8SDQIZ5W0DNZ5XBWfuIQEtEO8CF8ZjBgDSp
QKJUTkCi3I3BZHaxQMDkPkCjIKXBz+ixQKCpckC0tq/BZir4QO0SbECx24vBPahhQIEWlMDJMozB
9cHSQKoyYUAL6JLBwk+IQB3GVkDp1J/BwdU1QDG1Y0B9OJHBr+yFQGFmyr+hl5vB36L7QB7fX0BJ
CKLBF62lQKGtacCzSJzBYzzNPlN7nsAhkHDB4WXnQLoVV79W27bBiA7jQIzrzT9D2rPB5WO8QJ12
GcDfq6vB0qfGPlvXIcAvvoTBgBkAQJMv2r+5cJLByH6GQEF1dT9b4JrB8xg2QPHvwMBO4IDB2x2l
QKTAeEDr6YbBMEKpQGNIC0DDLYvBz4iwQKm/m0CQ5q3BcnfPQESEZEBKJ7TBeguWQKmtYEAombTB
cl3tQA7dckCZhoPBf40GQQjAM0CgiozBSPsEQQ7dkkBJP47BXQJeQNjOY0DmcqTBx0YDQB31ZUAh
HpbBnW0tQGRmZ0CtTYnB84dbQBKWi7/NHJjBiRrSQCSL5b4av7DB/EfPQEgncT/tJa/BJsm5QNjQ
qb8baqrB8OYmQK8spMC2d4TBsr5hQFm5lcCQHYzBJZebQP7pEz8w66DBYWSoP0X/RsBciYfBgEWz
QOCuvD8IUafBqbSeQCJbTr/wXaLB0Yy+P0G2isBrJ4LBaKxTQH/lW8B7N5HBHmzYQPUcVkCi253B
tx2EQMxrW0DIT5XBvheJQAQ5OsDd8pjBEF+pQDQ2S0Dmzo3Bp7SxQK38PkCFEKXBXn+yQIwec0D2
nq/Bp1n4QK7paECNt4vBKqYNQNeZK8Aa247Bk/3SQNeMXkD+yJLBlp2IQORiV0Cav5/B4sk2QDzm
ZEDAFpHBUqiEQFLFyb9py5vBv/f7QCTrXkAq46HBsVenQL48ZsAv65vBQG+mPpCPm8DaV3HBjwfn
QDl6V7823LbBqp3iQDzlzT+q7bPB/MW7QA4oGcBLsKvBrX0wQMpYwsCubYDBE56MQFjAqMDNF47B
nqqGQDmedz/gyZrB/o3mPn4VIMB/yIXBc4OlQJG/c0CprYbBtASpQFh0B0Dda4vBRFmxQDD0m0Bd
xa3BGBHQQCOyZECtCrTBraOWQOS3YUBrirTBnYftQJhzbkArX4PBX7oGQffvMECrhIzBEv0EQVqL
kUDj+43B6sReQLpHZUA1WqTBqi8EQHmKaEA395XBDZ0uQCYZaEAcKonB8ZFWQAaHjb+3spjB/iDM
QNRh3r77xrLBB/LMQJLKbz/GLbDBaySzQKT7qb9Qu6zBrid/PzsFbsAcx4rBJR/tP8muL8DFFI/B
wvCbQHJzAz9uZqHBKPo9QHSfncDawYTBibazQIpkuD/0pKfBLe2bQMpPXL9+2KPBVjXIP86DmsDw
loXBuxVQQLA6OcD+643B1uvYQP9FUUBK/JzBQwmEQIbBUUCpTpXBEoWEQCrz8r/IyJLBryynQLqY
M0AGz43Ba7WzQJvvPEDQ36TB2zS3QL7mdEAwKa/Bm1n0QKpZWkCiLorBxRtyQA/xfcBfz4jBhu3R
QAplSUAK8pHBRCWKQBN8VUB3uZ/BSsA3QGFdY0ATJpHBskiDQBsP4b+85p3BRr77QHWAaUARY6DB
YHmfQO6aqr+VP43BOnQKPx5twsDgPIDBQcPeQND1TL8PcLnB+PLgQOsNzj/muLTBmMmxQMHRF8B/
6a7BjUKavVKHZ8D+cIvB2Sa5P6Hj8b8GPZPBZpCJQKegXj8IqZrBUdJZQFEFucAVzoDBB82iQNdT
UkCd94XBtOOkQCpx2z/E5ozBOB+3QEGBnEAd76zBdiTVQHmgZUDIYLPB/NKbQKOMZ0DJbrTBiy7o
QMSFUEA+BILBRZgHQfRhLkBbq4vB62b/QKpojkAfEIvBqj1kQO54aUCCYaTBkI4HQLrFckAuDJbB
Tv4tQHapYEDeP4nBKDpeQNdWFsA77qHB

> <OMEGA_E>
AAAAANDHQT5Y0eE+

> <OMEGA_NBR>
      2635

$$$$
267818
  -OEChem-04172616093D

 42 44  0     1  0  0  0  0  0999 V2000
    6.6252   -0.4366  -22.0705 C   0  0  0  0  0  0  0  0  0  0  0  0
    6.4850    0.9519  -21.8729 C   0  0  0  0  0  0  0  0  0  0  0  0
    5.8999   -1.3431  -21.2777 C   0  0  0  0  0  0  0  0  0  0  0  0
    1.2981   -3.0318  -16.8529 C   0  0  0  0  0  0  0  0  0  0  0  0
    2.2064   -2.6208  -17.8310 C   0  0  0  0  0  0  0  0  0  0  0  0
    4.8698    0.5339  -20.1161 C   0  0  0  0  0  0  0  0  0  0  0  0
    2.6537   -5.0244  -16.5474 C   0  0  0  0  0  0  0  0  0  0  0  0
    5.5806    1.4593  -20.9037 C   0  0  0  0  0  0  0  0  0  0  0  0
    5.0296   -0.8454  -20.2849 C   0  0  0  0  0  0  0  0  0  0  0  0
    1.5245   -4.2507  -16.2031 C   0  0  0  0  0  0  0  0  0  0  0  0
    3.3288   -3.4372  -18.1400 C   0  0  0  0  0  0  0  0  0  0  0  0
    6.5703    3.4070  -18.4490 C   0  0  0  0  0  0  0  0  0  0  0  0
    4.3079   -2.9656  -19.1347 C   0  0  0  0  0  0  0  0  0  0  0  0
    5.2311    3.5044  -17.7302 C   0  0  0  0  0  0  0  0  0  0  0  0
    4.1602    3.4195  -19.9128 C   0  0  0  0  0  0  0  0  0  0  0  0
    5.4887    2.9735  -20.6152 C   0  0  2  0  0  0  0  0  0  0  0  0
    5.5936    3.7831  -21.9341 C   0  0  0  0  0  0  0  0  0  0  0  0
    3.5275   -4.6164  -17.4987 N   0  0  0  0  0  0  0  0  0  0  0  0
    6.6518    3.3210  -19.7581 N   0  3  0  0  0  0  0  0  0  0  0  0
    7.7412    3.5249  -17.7156 N   0  0  0  0  0  0  0  0  0  0  0  0
    4.2424   -1.6193  -19.4502 N   0  0  0  0  0  0  0  0  0  0  0  0
    5.1783   -3.7136  -19.5671 O   0  0  0  0  0  0  0  0  0  0  0  0
    4.1258    3.0217  -18.5232 O   0  0  0  0  0  0  0  0  0  0  0  0
    0.4051   -4.8050  -14.9893 Cl  0  0  0  0  0  0  0  0  0  0  0  0
    7.2931   -0.8059  -22.8348 H   0  0  0  0  0  0  0  0  0  0  0  0
    7.0724    1.6375  -22.4656 H   0  0  0  0  0  0  0  0  0  0  0  0
    6.0076   -2.4074  -21.4267 H   0  0  0  0  0  0  0  0  0  0  0  0
    0.4413   -2.4235  -16.6038 H   0  0  0  0  0  0  0  0  0  0  0  0
    2.0568   -1.6860  -18.3509 H   0  0  0  0  0  0  0  0  0  0  0  0
    4.1852    0.8974  -19.3640 H   0  0  0  0  0  0  0  0  0  0  0  0
    2.8249   -5.9628  -16.0409 H   0  0  0  0  0  0  0  0  0  0  0  0
    5.2855    2.9093  -16.8067 H   0  0  0  0  0  0  0  0  0  0  0  0
    5.0458    4.5586  -17.4767 H   0  0  0  0  0  0  0  0  0  0  0  0
    4.0772    4.5148  -19.9714 H   0  0  0  0  0  0  0  0  0  0  0  0
    3.3093    2.9587  -20.4358 H   0  0  0  0  0  0  0  0  0  0  0  0
    5.5265    4.8582  -21.7113 H   0  0  0  0  0  0  0  0  0  0  0  0
    6.5569    3.5689  -22.4200 H   0  0  0  0  0  0  0  0  0  0  0  0
    4.7718    3.4961  -22.6066 H   0  0  0  0  0  0  0  0  0  0  0  0
    7.5336    3.4967  -20.1956 H   0  0  0  0  0  0  0  0  0  0  0  0
    8.6247    3.5430  -18.1836 H   0  0  0  0  0  0  0  0  0  0  0  0
    7.7020    3.5917  -16.7186 H   0  0  0  0  0  0  0  0  0  0  0  0
    3.5012   -1.1222  -18.9990 H   0  0  0  0  0  0  0  0  0  0  0  0
  1  2  2  0  0  0  0
  1  3  1  0  0  0  0
  2  8  1  0  0  0  0
  3  9  2  0  0  0  0
  4  5  2  0  0  0  0
  4 10  1  0  0  0  0
  5 11  1  0  0  0  0
  6  8  2  0  0  0  0
  6  9  1  0  0  0  0
  7 10  2  0  0  0  0
  7 18  1  0  0  0  0
  8 16  1  0  0  0  0
  9 21  1  0  0  0  0
 10 24  1  0  0  0  0
 11 13  1  0  0  0  0
 11 18  2  0  0  0  0
 12 14  1  0  0  0  0
 12 19  2  0  0  0  0
 12 20  1  0  0  0  0
 13 21  1  0  0  0  0
 13 22  2  0  0  0  0
 14 23  1  0  0  0  0
 15 16  1  0  0  0  0
 15 23  1  0  0  0  0
 16 17  1  0  0  0  0
 16 19  1  0  0  0  0
  1 25  1  0  0  0  0
  2 26  1  0  0  0  0
  3 27  1  0  0  0  0
  4 28  1  0  0  0  0
  5 29  1  0  0  0  0
  6 30  1  0  0  0  0
  7 31  1  0  0  0  0
 14 32  1  0  0  0  0
 14 33  1  0  0  0  0
 15 34  1  0  0  0  0
 15 35  1  0  0  0  0
 17 36  1  0  0  0  0
 17 37  1  0  0  0  0
 17 38  1  0  0  0  0
 19 39  1  0  0  0  0
 20 40  1  0  0  0  0
 20 41  1  0  0  0  0
 21 42  1  0  0  0  0
M  CHG  1  19   1
M  END
> <OMEGA_C>
2wHUQL+L3753kLDBfYXPQFqvcz+m+67BS8y8QC/rq7/FOKrBsimmP2kJQsC/0obBaDYNQKi6J8Dt
pY7BhdWbQAGtCD++7aDBeNUpQM7HoMAKYYTBopSyQF/Luj/DOqfBRPKgQKRpWL9mR6LB0CPDPwYG
iMAGoIHBqQtVQLv7W8CfHpHBzj/SQMkMWkCVl5PBstqJQJrLPcDIE5nBT2WnQOxHYECC143BryCF
QH7YWkBjTZ/BxqOvQOxNPkAC7KTBuv6yQEYeckD1eK/B/MFhQJW5k8BX/YvBW9vUQISKVECIEJ7B
mbf3QGqXYUB7uY3BncGHQJZFz78KmpvBaLSlQFSrbcB9iZzB0waEQDZjQUB2L5TBV27PPrjCmcAL
1G/Br2DpQFVQTr+UrbbBdVHiQNWZ0T+CubPBKD7AQBkSGsDzaavBz+zhPmgaG8CE1ITBAaMDQNHP
17+lzpLBO+2FQCm9ZT+R6ZrBm8o0QD/PvsDcU4DBASOpQEkxOkAsdIbBhXehQCrgkUBA0IvBcXiC
QOR4kEByxZ/BYstTQJFbPUCdfKPBxdiwQGh2m0CpsK3BOdLRQG9pZEAyXLPBxbKYQMLAX0Bg2rTB
jRPxQOfJX0CbkKHBq/4JQSHAYkAPeJHBJHf2QAHfZUCjv4XBehRgQFqkj7/v/ZfBfjPSQHYr8L6o
wbDBTKbPQG5iaz+F+K7BdQu6QBOKrb8Kd6rBaMQlQMwwpMBqcoTBHhlgQPyGlsAaPozBi/ecQGaf
CT/jk6DBu0qtP65VRMDMMYfB4RK0QPHCuD/m+abBtJmfQPa9V79VQqLBznjAPyKnicDG5YHBMo9T
QGnyXMBVQZHBICHUQGDZV0D9v5PBHduIQGnCPMB1HZnB8QGrQNP0QEBzCo7B2VOFQL4zWEA0Yp/B
Ot6wQMB3PUAW2qTBy6mzQCVub0Cmj6/ByIwPQOKEKsCXqY7B7/DVQDHaV0AHN57B/DD5QLXYZUCw
5o3BQTmFQNJGzr8rzpvBNoymQMrCacAxNJzBR0SFQPpHXkBXtZPB8ByzPhCSmcAsfnDBpcjmQLVy
Wr+y+rbBPNviQNnHyz+yurPBB6u7QOHeGsDo4qvB4CYuQIiWwsDNeIDBQgGLQGldqsCQZY7BI8+I
QCF5aj/qPprB7poDP2K9G8DhQIXB4EypQOHh9T8kOo3B1mOrQBN1XkAiDYbBeXx4QLahi0ChkaLB
bB1aQNWdKEBzrKHBEFqxQMBBmkAE+K3BvWPSQG1rYUAoe7PBGjuZQCLBW0CV07TBXwDxQGEaakAW
06HB73kKQXjQb0ASrpHBtyb4QHr4ZUDG54XBYjBYQL8Wkb9bqJjBWZ/IQBCrFL/yx7HBsQ3PQETk
Rj/hUa/B0PWvQL5fsr8KAKvBjFSFP3riZcAh7ojBM2H6P+YPQcATF5DBQdWjQCZwAz/QNZ/BQUcv
QA+hp8BGdYTBg768QO/2qz+1+KXBosKdQOVfWr8UlqHBnni4P4rslsAhA4PBZLNPQAenZcDDO5HB
In/KQF5Yc0BB6JDBgtCGQEIlP8A/uZjBQWelQN0wmEBv9JLBr+WWQE1nY0C3RqPBaf7CQCcYNUAe
A6PBemfiQNiHZEAtpKrB2+tmQDnUlcBMeIvB0/XVQJuGOUByBZjBqWXfQIcsdkB3HofBgjKEQNUd
zr8mqprBHO6jQHxza8DVTZzBueuaQAjimkCAMp7B/ZmuPq/KrsD963PBabfWQPwLgL+F67jBfRPi
QEFRsj8LlrTBUeOqQMCzG8Bo+qzBm1xQPRdsS8B9/YfBkAzXP0VMCcBisZTBZUaVQFvsbj9tIZjB
iexCQD05w8Cxvn/B2CaJQILBjEBdjY7BjEKuQGo8uEBhEJDB9aaMQDMAbEBboKvBYBB+QDm9PEAR
+p7Bv3nlQFXZk0CcHqjBfPoAQWtsRUBuVKrBqPzVQDj8YUCT3rLBYlDsQHqyDkCL/pXBveH2QKSa
TEBkh4XBZ/nWQCPkkEDCp4HBvxJbQHVijr/iqJbBnvrNQHCKwL6+5LHBgszKQNlUgD9Twq/BkyW5
QGAGp7+mRKvBah9QQF0TlsAJt4TBzJBpQP8zbcCZCozBnOKcQFifBT8Re6DBUd95P/3od8DchYbB
Z86xQKJRvT/BEKfBGx+gQKacW7+Do6LBAL7yP6XFmMDf6oHBFpUrQIq7NMAjbJDBXqfSQNITZ0CL
L5PBuXhGQE6k4r9rCZjBQ7mnQITLaEAYdo3BtZ6FQECHWUCttJ7BJjiwQFmoP0BGZaTBaZizQEDK
dkD5u67B/5ivPywuO8DKlY3B/M7VQC5RVUCldp3B1DL3QCQCfUDYgY3B1AuNQJ4z57+g/pvB9gYS
QOinc7+4TpvBI2mGQEhNQEC4mpPBB/CtP01ov8ABmXHBiH/gQJ93OL/MpbjBSpHbQAt22j8Wy7TB
/1u8QMQ5F8AnzqzBCGB+QM3Oq8AvS4HBrPqVQFisZ8DHV47BmDmKQL9xWz+TuJnBqqyKvUxHfMBI
X4TBnPKqQLQcR0CrxoXBorCeQHzolUBa/ovBS4+BQICrj0DuNp/BQkZVQL22OUCIuKLBtGOyQAuI
nUDQm6zBigPSQP/caEBYzrLBBcWYQCdkZ0DUGLTBvNvyQHVaVkDq0KDB58MJQcY0f0BRN5HB9jP1
QMNOhUC/tIXB8wufQJepJcAp2pnB

> <OMEGA_E>
DDIeP6gYNj/sl0w/CJVsPw==

> <OMEGA_NBR>
      5892

$$$$
50198749
  -OEChem-04172616093D

 45 47  0     1  0  0  0  0  0999 V2000
    5.9125   -0.3876  -22.4782 C   0  0  0  0  0  0  0  0  0  0  0  0
    6.3588    0.8645  -22.0037 C   0  0  0  0  0  0  0  0  0  0  0  0
    5.1620   -1.2385  -21.6434 C   0  0  0  0  0  0  0  0  0  0  0  0
    0.9582   -3.7526  -17.4580 C   0  0  0  0  0  0  0  0  0  0  0  0
    1.8995   -3.1484  -18.3035 C   0  0  0  0  0  0  0  0  0  0  0  0
    5.2805    0.4226  -19.8690 C   0  0  0  0  0  0  0  0  0  0  0  0
    2.7739   -5.0400  -16.4838 C   0  0  0  0  0  0  0  0  0  0  0  0
    6.0821    1.2720  -20.6724 C   0  0  0  0  0  0  0  0  0  0  0  0
    4.8351   -0.8203  -20.3383 C   0  0  0  0  0  0  0  0  0  0  0  0
    1.4027   -4.7107  -16.5340 C   0  0  0  0  0  0  0  0  0  0  0  0
    3.2632   -3.5267  -18.2157 C   0  0  0  0  0  0  0  0  0  0  0  0
    5.5492    3.7539  -20.4548 C   0  0  0  0  0  0  0  0  0  0  0  0
    5.7786    2.8454  -17.7929 C   0  0  0  0  0  0  0  0  0  0  0  0
    4.2477   -2.8909  -19.1118 C   0  0  0  0  0  0  0  0  0  0  0  0
    4.4078    3.2733  -18.2868 C   0  0  0  0  0  0  0  0  0  0  0  0
    6.5805    2.6340  -20.1244 C   0  0  2  0  0  0  0  0  0  0  0  0
    7.9861    2.9868  -20.6959 C   0  0  0  0  0  0  0  0  0  0  0  0
    3.4871    5.0399  -19.8409 C   0  0  0  0  0  0  0  0  0  0  0  0
    3.6724   -4.4591  -17.3159 N   0  0  0  0  0  0  0  0  0  0  0  0
    4.4949    4.0023  -19.5630 N   0  0  0  0  0  0  0  0  0  0  0  0
    6.7516    2.5609  -18.6350 N   0  3  0  0  0  0  0  0  0  0  0  0
    5.9720    2.6528  -16.4338 N   0  0  0  0  0  0  0  0  0  0  0  0
    4.0127   -1.5762  -19.5073 N   0  0  0  0  0  0  0  0  0  0  0  0
    5.6767    4.4337  -21.4695 O   0  0  0  0  0  0  0  0  0  0  0  0
    5.2877   -3.4757  -19.4019 O   0  0  0  0  0  0  0  0  0  0  0  0
    0.2661   -5.4899  -15.4624 Cl  0  0  0  0  0  0  0  0  0  0  0  0
    6.1476   -0.6949  -23.4865 H   0  0  0  0  0  0  0  0  0  0  0  0
    6.9154    1.5181  -22.6591 H   0  0  0  0  0  0  0  0  0  0  0  0
    4.8394   -2.2051  -22.0013 H   0  0  0  0  0  0  0  0  0  0  0  0
   -0.0868   -3.4863  -17.5166 H   0  0  0  0  0  0  0  0  0  0  0  0
    1.5879   -2.3999  -19.0169 H   0  0  0  0  0  0  0  0  0  0  0  0
    5.0071    0.7403  -18.8737 H   0  0  0  0  0  0  0  0  0  0  0  0
    3.1152   -5.7714  -15.7661 H   0  0  0  0  0  0  0  0  0  0  0  0
    3.7841    2.3783  -18.4288 H   0  0  0  0  0  0  0  0  0  0  0  0
    3.9447    3.9271  -17.5331 H   0  0  0  0  0  0  0  0  0  0  0  0
    8.3144    3.9556  -20.2915 H   0  0  0  0  0  0  0  0  0  0  0  0
    8.7056    2.2063  -20.4072 H   0  0  0  0  0  0  0  0  0  0  0  0
    7.9312    3.0472  -21.7929 H   0  0  0  0  0  0  0  0  0  0  0  0
    2.7551    5.0699  -19.0204 H   0  0  0  0  0  0  0  0  0  0  0  0
    3.9824    6.0183  -19.9262 H   0  0  0  0  0  0  0  0  0  0  0  0
    2.9713    4.8065  -20.7840 H   0  0  0  0  0  0  0  0  0  0  0  0
    7.6396    2.2852  -18.2669 H   0  0  0  0  0  0  0  0  0  0  0  0
    6.8454    2.3001  -16.0981 H   0  0  0  0  0  0  0  0  0  0  0  0
    5.2380    2.8666  -15.7891 H   0  0  0  0  0  0  0  0  0  0  0  0
    3.1819   -1.1375  -19.1649 H   0  0  0  0  0  0  0  0  0  0  0  0
  1  2  2  0  0  0  0
  1  3  1  0  0  0  0
  2  8  1  0  0  0  0
  3  9  2  0  0  0  0
  4  5  2  0  0  0  0
  4 10  1  0  0  0  0
  5 11  1  0  0  0  0
  6  8  2  0  0  0  0
  6  9  1  0  0  0  0
  7 10  2  0  0  0  0
  7 19  1  0  0  0  0
  8 16  1  0  0  0  0
  9 23  1  0  0  0  0
 10 26  1  0  0  0  0
 11 14  1  0  0  0  0
 11 19  2  0  0  0  0
 12 16  1  0  0  0  0
 12 20  1  0  0  0  0
 12 24  2  0  0  0  0
 13 15  1  0  0  0  0
 13 21  2  0  0  0  0
 13 22  1  0  0  0  0
 14 23  1  0  0  0  0
 14 25  2  0  0  0  0
 15 20  1  0  0  0  0
 16 17  1  0  0  0  0
 16 21  1  0  0  0  0
 18 20  1  0  0  0  0
  1 27  1  0  0  0  0
  2 28  1  0  0  0  0
  3 29  1  0  0  0  0
  4 30  1  0  0  0  0
  5 31  1  0  0  0  0
  6 32  1  0  0  0  0
  7 33  1  0  0  0  0
 15 34  1  0  0  0  0
 15 35  1  0  0  0  0
 17 36  1  0  0  0  0
 17 37  1  0  0  0  0
 17 38  1  0  0  0  0
 18 39  1  0  0  0  0
 18 40  1  0  0  0  0
 18 41  1  0  0  0  0
 21 42  1  0  0  0  0
 22 43  1  0  0  0  0
 22 44  1  0  0  0  0
 23 45  1  0  0  0  0
M  CHG  1  21   1
M  END
> <OMEGA_C>
/DK9QDpwxr5D07PBKXvLQPZQXT+pB7DBIS+lQNyHnr+iJa3BF091P/AqcMACqovBWSPzP+V/ScCT
bZLBj/moQLRZ2D7A857BN4gxQLpHocDO3oPBuKDCQJbPoj8kYaXB1biaQGgAUr/ttKLBO42zP669
lsCnRYTBtNhQQN60YcDYuZHBMZOxQF0/cEBxo6PBPuq4QG0bNkDFV47BPu2HQDEEOcAM5ZjBYAyN
QBJ9UUBqS5LBWZPSQLGTKEDc/qDBho7/QCAnP0BJkaXB9ixfQI5GoUAvup7BEglrQEixjsDxhorB
FtaPQHwSgEDxgJzB5gzYQAzmI0B8FJXBQRq/QAvIKUB0eIPBZWiAQLe/yb8ID5zBk6e1QADhjUBz
wavBJzWpQCNyXsAAN5vB5UGIPt6sr8AgZnfB8LjEQO3hMb9M5LvBIUvdQHtPwj/DRbXBU9yaQJcf
DcDAArDBwLWxvegfX8AZIozB4T/LP4eXGcChIpjBOjqgQC6DPT9E/ZbB0V5HQGevuMAkQnzB5S5y
QGk2GEAfbpPBRnZ8QAtVe0C/Q4zByQcFQbcofUD1VKLBGEoLQac0DUAMQqPBlMz9QKkEQ0DfV67B
3VIwQGw8okDYKZjBdt9+QEyWwEDiaJ/BjCk+QCLPmUCxRabBR3f0QHxBEkClIpLBag3bQFU1E0Dh
yIDB0Z2nQGx2N0A6oHzBTKRLQOSYkb+7UZnBBFnJQM6m9L6pTbHBMmrKQATmZj9oCK/BRGexQB/s
rL960arBgtd2PwQPcMAblorBQ/PyP9NLScBFa5HByzydQOomBj/oeZ/BWkEvQLQFp8CYZITBeKGz
QBoBtz/ZLqbBi1ebQJisWL/x0aHBjz6yPy2mmcCZ+IPByR1PQKddZ8Cvi5HBfJaYQNHcWECPNJrB
BlXvQPvWh0DVK5vBoCOHQBfxPsCytJjB0rDOQF0Uo0DuZJXBeIK1QNS6PEBu06PBjtSmQOZ0cEBe
ya3BqjqNQFuVmEA3zonBNihoQI9YlMB6GIvBkCOoQGAkikAMy5LBmW/jQHTiUUDSp6HBiz4NQbcE
kUBA9pnBV52BQE9/0b9UOJvBKzNmQJyFQUCAspnBRAenQG8jZ8BIdpvB7IqJPoPHssDWqXbBQ/za
QDjmXb/vDLjBacbcQDcwyD/wFbTBeOWvQErUGcDQtqzBVFN/vZagWsBGa4rBudnMPyX9FMBXipbB
d0+NQN7SZT9QapjB2UxEQI+8wMBWgn7BF+jcQMU/r0Dc8I3Bj6jFQAEovkBAi5rBrFKoQPmpmkBT
AKzBnwG8QDDoYUCjk7TBssOFQPy+XkBL1q/ByiSfQPzCr0Av7YTB0TJgQJDZp0A38YzBuVmEQEnS
eUAo14TBQRj6QJpoL0DQTqXBCiwYQbwqgEDoAp7Bk98RQbp8qEBnCpXBT6RQQPaKl79c65fBduu9
QHEEkb5/WrLBZ53OQC/9Zz+K8K3BTuWkQBvxkr9DBqzBJDhyP6IVccBqF4vBDc7xP5NyScBAwJHB
kFqsQPe0wj7Y8JzB3UouQDrZpsBkooTB/2LGQHmGnz8uH6PBMQecQEHzTr8jTKHBrmqvPwQJmsCg
bYTBZexOQCBRZsAZrpHB25DJQLYBckAviKTBuzunQB65TkB2LpDBnQaHQCNYPMC6tZjB2YCJQENo
cECXzJjBEa7ZQGMTIkBSPp7BzqAFQRvRG0CibJ7BZwiQQESer0C9j6fBodtnQD68k8BGMIvBOuGi
QLYVjEAPaqHBeXnMQFYDLUCGxJLBTRKaQAx6T0A7loXBVWSBQBJXy78s65rBCwnfQP5GiEDM0avB
tOumQN59Y8D8tJvByYFsPvims8AVBHjB1FfEQNgMCL+Dm7rBYdDhQDkIyD9R17LBmZCYQN88BMBr
Xq/BHrytvUGAXMD2FovB+/nLPwVFFcCX5pbBXvikQGaOIz/8wZTBeyhDQAl2wMDq537BVD9tQI4w
O0AxGpzBB6hnQEQxkEC2UZXBNooMQTdRVkD09JrBC8MKQQkGyD+qtpnBTiYLQRiqFEBsu6bB6eJj
QJzCuUB1w6PBboumQLOrykBGuafBPYuJQBf2pEBEyq/Be2XgQMZJGkAK9ozBKdesQKBxNkCA03/B
ip97QJcNaUDxnoPBFQhQQFuvkb8ao5fB9hC9QFiy0r4qrLPB0brKQLRcXD9OKrDBhQWmQPcHob/L
vqzBl4UjQFGAqsDxvoXBoCNiQC/hmMCegozBZIipQCYX5T4o5J7BkaGiP4ovUsB63YfBJTDCQMug
pT8vkKXBw/qbQO6kUL/nV6LBbAO0P01HksC8b4PBfnpVQACyXsAtyJDBvY2vQPMncUB7PqTB7jS4
QLJSO0BazY7B4xaKQBfkN8BwMpjB1uyLQMYLVEAEvZLBr2LRQJdiK0DIeKHBYPT9QIXQQkC5N6bB
WstZQHXPoEDAa5/B9AQOQFbmMMDIV47BuOiNQFyAgED7E53BFVHXQBo7KUDPjZXBzNu+QMkvMUBC
6YPBfKyCQLSZx79wZZvBAuayQIaljUB7fqzB73KqQAjOXsDD6prBjI8dPg7jpsAHYXbBJFHEQF7R
PL8btbvBV9HbQGk+wT+Jl7XBySGcQEZID8AeY6/BZ70rQHESysBmYoLBSp6NQEHHqsA2bo7BQv+g
QD2SSD9V9pbB2vjHPjfXLMCNDIbBcSdxQJm3GUCTrZPB/qV5QCNHfkCYy4zB4fsDQb/ogEBVMaPB
BcYKQfY5EkAS0aPBhNX7QP7tREBq/67Bc2ErQOnooUBZz5jBpyB4QHZewEAcU6DBtZA4QDNKmEB7
4abB6AX0QGZvGUAnn5LBMh/bQB1EHECkOIHB0WSnQInLPkAyfX3BaGpRQOPyjb+wapjB

> <OMEGA_E>
zjdRP7rzVT8QGlg/erpbPw==

> <OMEGA_NBR>
      9316

$$$$
50437290
  -OEChem-04172616093D

 42 44  0     1  0  0  0  0  0999 V2000
    6.5911   -0.4521  -22.1070 C   0  0  0  0  0  0  0  0  0  0  0  0
    6.4830    0.9396  -21.9158 C   0  0  0  0  0  0  0  0  0  0  0  0
    5.8520   -1.3391  -21.3032 C   0  0  0  0  0  0  0  0  0  0  0  0
    1.2253   -3.0932  -16.9374 C   0  0  0  0  0  0  0  0  0  0  0  0
    2.1672   -2.6418  -17.8652 C   0  0  0  0  0  0  0  0  0  0  0  0
    4.8748    0.5616  -20.1358 C   0  0  0  0  0  0  0  0  0  0  0  0
    2.6221   -5.0503  -16.5916 C   0  0  0  0  0  0  0  0  0  0  0  0
    5.6032    1.4645  -20.9378 C   0  0  0  0  0  0  0  0  0  0  0  0
    5.0028   -0.8223  -20.2998 C   0  0  0  0  0  0  0  0  0  0  0  0
    1.4555   -4.3142  -16.2925 C   0  0  0  0  0  0  0  0  0  0  0  0
    3.3227   -3.4241  -18.1351 C   0  0  0  0  0  0  0  0  0  0  0  0
    4.1523    3.4333  -18.6685 C   0  0  0  0  0  0  0  0  0  0  0  0
    4.3177   -2.9273  -19.1029 C   0  0  0  0  0  0  0  0  0  0  0  0
    5.3812    3.4078  -17.7640 C   0  0  0  0  0  0  0  0  0  0  0  0
    6.7347    3.3955  -19.7687 C   0  0  0  0  0  0  0  0  0  0  0  0
    5.5348    2.9764  -20.6600 C   0  0  1  0  0  0  0  0  0  0  0  0
    5.5553    3.7808  -21.9802 C   0  0  0  0  0  0  0  0  0  0  0  0
    3.5259   -4.6055  -17.4977 N   0  0  0  0  0  0  0  0  0  0  0  0
    4.2544    3.3314  -19.9761 N   0  3  0  0  0  0  0  0  0  0  0  0
    2.8924    3.5851  -18.1115 N   0  0  0  0  0  0  0  0  0  0  0  0
    4.2198   -1.5877  -19.4493 N   0  0  0  0  0  0  0  0  0  0  0  0
    5.2240   -3.6532  -19.4979 O   0  0  0  0  0  0  0  0  0  0  0  0
    6.5457    2.8716  -18.4372 O   0  0  0  0  0  0  0  0  0  0  0  0
    0.2986   -4.9136  -15.1362 Cl  0  0  0  0  0  0  0  0  0  0  0  0
    7.2445   -0.8398  -22.8745 H   0  0  0  0  0  0  0  0  0  0  0  0
    7.0754    1.6112  -22.5195 H   0  0  0  0  0  0  0  0  0  0  0  0
    5.9333   -2.4057  -21.4519 H   0  0  0  0  0  0  0  0  0  0  0  0
    0.3398   -2.5134  -16.7226 H   0  0  0  0  0  0  0  0  0  0  0  0
    2.0179   -1.7018  -18.3756 H   0  0  0  0  0  0  0  0  0  0  0  0
    4.2052    0.9456  -19.3805 H   0  0  0  0  0  0  0  0  0  0  0  0
    2.7981   -5.9888  -16.0871 H   0  0  0  0  0  0  0  0  0  0  0  0
    5.6022    4.4348  -17.4379 H   0  0  0  0  0  0  0  0  0  0  0  0
    5.1613    2.7834  -16.8855 H   0  0  0  0  0  0  0  0  0  0  0  0
    7.6661    2.9927  -20.1933 H   0  0  0  0  0  0  0  0  0  0  0  0
    6.7955    4.4930  -19.7266 H   0  0  0  0  0  0  0  0  0  0  0  0
    5.5055    4.8565  -21.7556 H   0  0  0  0  0  0  0  0  0  0  0  0
    6.4843    3.5633  -22.5276 H   0  0  0  0  0  0  0  0  0  0  0  0
    4.6906    3.4949  -22.5971 H   0  0  0  0  0  0  0  0  0  0  0  0
    3.4422    3.4983  -20.5351 H   0  0  0  0  0  0  0  0  0  0  0  0
    2.0853    3.6151  -18.7012 H   0  0  0  0  0  0  0  0  0  0  0  0
    2.7903    3.6645  -17.1199 H   0  0  0  0  0  0  0  0  0  0  0  0
    3.4643   -1.0958  -19.0168 H   0  0  0  0  0  0  0  0  0  0  0  0
  1  2  2  0  0  0  0
  1  3  1  0  0  0  0
  2  8  1  0  0  0  0
  3  9  2  0  0  0  0
  4  5  2  0  0  0  0
  4 10  1  0  0  0  0
  5 11  1  0  0  0  0
  6  8  2  0  0  0  0
  6  9  1  0  0  0  0
  7 10  2  0  0  0  0
  7 18  1  0  0  0  0
  8 16  1  0  0  0  0
  9 21  1  0  0  0  0
 10 24  1  0  0  0  0
 11 13  1  0  0  0  0
 11 18  2  0  0  0  0
 12 14  1  0  0  0  0
 12 19  2  0  0  0  0
 12 20  1  0  0  0  0
 13 21  1  0  0  0  0
 13 22  2  0  0  0  0
 14 23  1  0  0  0  0
 15 16  1  0  0  0  0
 15 23  1  0  0  0  0
 16 17  1  0  0  0  0
 16 19  1  0  0  0  0
  1 25  1  0  0  0  0
  2 26  1  0  0  0  0
  3 27  1  0  0  0  0
  4 28  1  0  0  0  0
  5 29  1  0  0  0  0
  6 30  1  0  0  0  0
  7 31  1  0  0  0  0
 14 32  1  0  0  0  0
 14 33  1  0  0  0  0
 15 34  1  0  0  0  0
 15 35  1  0  0  0  0
 17 36  1  0  0  0  0
 17 37  1  0  0  0  0
 17 38  1  0  0  0  0
 19 39  1  0  0  0  0
 20 40  1  0  0  0  0
 20 41  1  0  0  0  0
 21 42  1  0  0  0  0
M  CHG  1  19   1
M  END
> <OMEGA_C>
BerSQFJz574s27DBe3TPQFWLcD+AU6/B30O7QINnq7/hbKrBZtecP3D3RcDMf4fB/bMKQHITKcAH
7I7BUf6bQATGDz8uFqHBr88nQK6bocCju4TBxk2zQA90uz+agKfBLBegQGaFUr8NZqLB2k66P0UO
isAaV4LBWqZUQCAkW8CuFJHB/N+EQNy6W0AoWZXBZSqKQFhYO8DX0pjBhTKsQL4YWkC8HI7BDYPX
QGZQWUBaJp7B+xyxQBh+PkCoR6XBssSxQFj5cUBm16/B3ahhQPFfk8BD+4vB7yOIQAw2VUASz5/B
xxw5QHhxZUBe5JDBywiHQFY7y79BmJvB/yqnQIzOacC0+5vBfnbRQNjIN0BRf5PBjt+YPpg8ncDG
LXLBAtPnQCP9Vr8G/7bBhmniQNY7zj/YJ7TBz929QBX3GcCWnavBQ/6tPk7cIMDOx4XBuyQBQDjU
2b80AZPByZCGQO0Vcj9CC5vBSBQzQC+kv8BdsoDBN0WzQNjpjUDggIvBHymlQHUjMkB7FYfBFlH1
QB2JP0Dci6HBBnXZQALHj0AS0J3BKS2wQJJom0BeC67B+n7PQPoMZEB7OLTBdxmWQLSrX0DYxrTB
6kxcQEzkX0DtR6TBv3UFQB1eZ0ANnJXBBZUyQACHakCQ9YjBlbZdQMRBjL9vIpjBZLfUQCsm6L4a
XbDBkQPRQAIicD/x767BUta7QCi7qr8XLarBqg8nQBFWocBY3oPBy5diQEOFk8DcgYvBCUKbQE4c
Ej8RMqHBmrWhPwm1RcD4EIjBna6zQKTZuz9NaqfBFDWfQHAqUL9Bd6LBIJK6PyOviMAwI4LBsf9S
QKZVWsCEL5HBCy+FQKqlWkCsX5XBbfuIQET1OcDe8ZjBraOsQEUEWUBsLI7BYJzXQB6JWkDrSJ7B
WjWxQJjIPkC3WKXBb3ixQPvpcEBuArDBuQQLQKpwK8A+XY/BGV2IQAfLVUBW2Z/B3qE5QM2ZYUBH
3ZDBj5uEQGI5yr97AJzBnR2nQEWuZsAI0ZvB8hLSQN1AOECNpZPBJqiPPiDLmMCUXHHB5b7qQCWt
WL9aO7bBr6/kQKWfzT8WnbPBipO+QG2sGcAfTqvBFMIxQAhrvsDYyn7BQeCNQGf1pcCHCo3BGxmF
QFHhdT8jWJvB9Ne+Ps4JIMDIwYbBbluzQPJJjUA9cYvBjuylQBQHMED7N4fBX4P1QC/aQUANwaHB
OwTZQO1nkEBN5p3Bv66vQD36mkAKWa7BTCfPQLXUYkBOZrTBK8OVQMycXUAB37TBcPFcQP31YUAU
TKTBPs8FQAnWYkBmjpXB6DMzQPlhZUA864jBXXhVQJohjr/TKZnB

> <OMEGA_E>
OIluPkRexT4=

> <OMEGA_NBR>
     11077

$$$$
50198753
  -OEChem-04172616093D

 45 47  0     1  0  0  0  0  0999 V2000
    5.9125   -0.3876  -22.4782 C   0  0  0  0  0  0  0  0  0  0  0  0
    6.3588    0.8645  -22.0037 C   0  0  0  0  0  0  0  0  0  0  0  0
    5.1620   -1.2385  -21.6434 C   0  0  0  0  0  0  0  0  0  0  0  0
    0.9582   -3.7526  -17.4580 C   0  0  0  0  0  0  0  0  0  0  0  0
    1.8995   -3.1484  -18.3035 C   0  0  0  0  0  0  0  0  0  0  0  0
    5.2805    0.4226  -19.8690 C   0  0  0  0  0  0  0  0  0  0  0  0
    2.7739   -5.0400  -16.4838 C   0  0  0  0  0  0  0  0  0  0  0  0
    6.0821    1.2720  -20.6724 C   0  0  0  0  0  0  0  0  0  0  0  0
    4.8351   -0.8203  -20.3383 C   0  0  0  0  0  0  0  0  0  0  0  0
    1.4027   -4.7107  -16.5340 C   0  0  0  0  0  0  0  0  0  0  0  0
    3.2632   -3.5267  -18.2157 C   0  0  0  0  0  0  0  0  0  0  0  0
    5.5492    3.7539  -20.4548 C   0  0  0  0  0  0  0  0  0  0  0  0
    5.7786    2.8454  -17.7929 C   0  0  0  0  0  0  0  0  0  0  0  0
    4.2477   -2.8909  -19.1118 C   0  0  0  0  0  0  0  0  0  0  0  0
    4.4078    3.2733  -18.2868 C   0  0  0  0  0  0  0  0  0  0  0  0
    6.5805    2.6340  -20.1244 C   0  0  2  0  0  0  0  0  0  0  0  0
    7.9861    2.9868  -20.6959 C   0  0  0  0  0  0  0  0  0  0  0  0
    3.4871    5.0399  -19.8409 C   0  0  0  0  0  0  0  0  0  0  0  0
    3.6724   -4.4591  -17.3159 N   0  0  0  0  0  0  0  0  0  0  0  0
    4.4949    4.0023  -19.5630 N   0  0  0  0  0  0  0  0  0  0  0  0
    6.7516    2.5609  -18.6350 N   0  3  0  0  0  0  0  0  0  0  0  0
    5.9720    2.6528  -16.4338 N   0  0  0  0  0  0  0  0  0  0  0  0
    4.0127   -1.5762  -19.5073 N   0  0  0  0  0  0  0  0  0  0  0  0
    5.6767    4.4337  -21.4695 O   0  0  0  0  0  0  0  0  0  0  0  0
    5.2877   -3.4757  -19.4019 O   0  0  0  0  0  0  0  0  0  0  0  0
    0.2661   -5.4899  -15.4624 Cl  0  0  0  0  0  0  0  0  0  0  0  0
    6.1476   -0.6949  -23.4865 H   0  0  0  0  0  0  0  0  0  0  0  0
    6.9154    1.5181  -22.6591 H   0  0  0  0  0  0  0  0  0  0  0  0
    4.8394   -2.2051  -22.0013 H   0  0  0  0  0  0  0  0  0  0  0  0
   -0.0868   -3.4863  -17.5166 H   0  0  0  0  0  0  0  0  0  0  0  0
    1.5879   -2.3999  -19.0169 H   0  0  0  0  0  0  0  0  0  0  0  0
    5.0071    0.7403  -18.8737 H   0  0  0  0  0  0  0  0  0  0  0  0
    3.1152   -5.7714  -15.7661 H   0  0  0  0  0  0  0  0  0  0  0  0
    3.7841    2.3783  -18.4288 H   0  0  0  0  0  0  0  0  0  0  0  0
    3.9447    3.9271  -17.5331 H   0  0  0  0  0  0  0  0  0  0  0  0
    8.3144    3.9556  -20.2915 H   0  0  0  0  0  0  0  0  0  0  0  0
    8.7056    2.2063  -20.4072 H   0  0  0  0  0  0  0  0  0  0  0  0
    7.9312    3.0472  -21.7929 H   0  0  0  0  0  0  0  0  0  0  0  0
    2.7551    5.0699  -19.0204 H   0  0  0  0  0  0  0  0  0  0  0  0
    3.9824    6.0183  -19.9262 H   0  0  0  0  0  0  0  0  0  0  0  0
    2.9713    4.8065  -20.7840 H   0  0  0  0  0  0  0  0  0  0  0  0
    7.6396    2.2852  -18.2669 H   0  0  0  0  0  0  0  0  0  0  0  0
    6.8454    2.3001  -16.0981 H   0  0  0  0  0  0  0  0  0  0  0  0
    5.2380    2.8666  -15.7891 H   0  0  0  0  0  0  0  0  0  0  0  0
    3.1819   -1.1375  -19.1649 H   0  0  0  0  0  0  0  0  0  0  0  0
  1  2  2  0  0  0  0
  1  3  1  0  0  0  0
  2  8  1  0  0  0  0
  3  9  2  0  0  0  0
  4  5  2  0  0  0  0
  4 10  1  0  0  0  0
  5 11  1  0  0  0  0
  6  8  2  0  0  0  0
  6  9  1  0  0  0  0
  7 10  2  0  0  0  0
  7 19  1  0  0  0  0
  8 16  1  0  0  0  0
  9 23  1  0  0  0  0
 10 26  1  0  0  0  0
 11 14  1  0  0  0  0
 11 19  2  0  0  0  0
 12 16  1  0  0  0  0
 12 20  1  0  0  0  0
 12 24  2  0  0  0  0
 13 15  1  0  0  0  0
 13 21  2  0  0  0  0
 13 22  1  0  0  0  0
 14 23  1  0  0  0  0
 14 25  2  0  0  0  0
 15 20  1  0  0  0  0
 16 17  1  0  0  0  0
 16 21  1  0  0  0  0
 18 20  1  0  0  0  0
  1 27  1  0  0  0  0
  2 28  1  0  0  0  0
  3 29  1  0  0  0  0
  4 30  1  0  0  0  0
  5 31  1  0  0  0  0
  6 32  1  0  0  0  0
  7 33  1  0  0  0  0
 15 34  1  0  0  0  0
 15 35  1  0  0  0  0
 17 36  1  0  0  0  0
 17 37  1  0  0  0  0
 17 38  1  0  0  0  0
 18 39  1  0  0  0  0
 18 40  1  0  0  0  0
 18 41  1  0  0  0  0
 21 42  1  0  0  0  0
 22 43  1  0  0  0  0
 22 44  1  0  0  0  0
 23 45  1  0  0  0  0
M  CHG  1  21   1
M  END
> <OMEGA_C>
/DK9QDpwxr5D07PBKXvLQPZQXT+pB7DBIS+lQNyHnr+iJa3BF091P/AqcMACqovBWSPzP+V/ScCT
bZLBj/moQLRZ2D7A857BN4gxQLpHocDO3oPBuKDCQJbPoj8kYaXB1biaQGgAUr/ttKLBO42zP669
lsCnRYTBtNhQQN60YcDYuZHBMZOxQF0/cEBxo6PBPuq4QG0bNkDFV47BPu2HQDEEOcAM5ZjBYAyN
QBJ9UUBqS5LBWZPSQLGTKEDc/qDBho7/QCAnP0BJkaXB9ixfQI5GoUAvup7BEglrQEixjsDxhorB
FtaPQHwSgEDxgJzB5gzYQAzmI0B8FJXBQRq/QAvIKUB0eIPBZWiAQLe/yb8ID5zBk6e1QADhjUBz
wavBJzWpQCNyXsAAN5vB5UGIPt6sr8AgZnfB8LjEQO3hMb9M5LvBIUvdQHtPwj/DRbXBU9yaQJcf
DcDAArDBwLWxvegfX8AZIozB4T/LP4eXGcChIpjBOjqgQC6DPT9E/ZbB0V5HQGevuMAkQnzB5S5y
QGk2GEAfbpPBRnZ8QAtVe0C/Q4zByQcFQbcofUD1VKLBGEoLQac0DUAMQqPBlMz9QKkEQ0DfV67B
3VIwQGw8okDYKZjBdt9+QEyWwEDiaJ/BjCk+QCLPmUCxRabBR3f0QHxBEkClIpLBag3bQFU1E0Dh
yIDB0Z2nQGx2N0A6oHzBTKRLQOSYkb+7UZnBBFnJQM6m9L6pTbHBMmrKQATmZj9oCK/BRGexQB/s
rL960arBgtd2PwQPcMAblorBQ/PyP9NLScBFa5HByzydQOomBj/oeZ/BWkEvQLQFp8CYZITBeKGz
QBoBtz/ZLqbBi1ebQJisWL/x0aHBjz6yPy2mmcCZ+IPByR1PQKddZ8Cvi5HBfJaYQNHcWECPNJrB
BlXvQPvWh0DVK5vBoCOHQBfxPsCytJjB0rDOQF0Uo0DuZJXBeIK1QNS6PEBu06PBjtSmQOZ0cEBe
ya3BqjqNQFuVmEA3zonBNihoQI9YlMB6GIvBkCOoQGAkikAMy5LBmW/jQHTiUUDSp6HBiz4NQbcE
kUBA9pnBV52BQE9/0b9UOJvBKzNmQJyFQUCAspnBRAenQG8jZ8BIdpvB7IqJPoPHssDWqXbBQ/za
QDjmXb/vDLjBacbcQDcwyD/wFbTBeOWvQErUGcDQtqzBVFN/vZagWsBGa4rBudnMPyX9FMBXipbB
d0+NQN7SZT9QapjB2UxEQI+8wMBWgn7BF+jcQMU/r0Dc8I3Bj6jFQAEovkBAi5rBrFKoQPmpmkBT
AKzBnwG8QDDoYUCjk7TBssOFQPy+XkBL1q/ByiSfQPzCr0Av7YTB0TJgQJDZp0A38YzBuVmEQEnS
eUAo14TBQRj6QJpoL0DQTqXBCiwYQbwqgEDoAp7Bk98RQbp8qEBnCpXBT6RQQPaKl79c65fBduu9
QHEEkb5/WrLBZ53OQC/9Zz+K8K3BTuWkQBvxkr9DBqzBJDhyP6IVccBqF4vBDc7xP5NyScBAwJHB
kFqsQPe0wj7Y8JzB3UouQDrZpsBkooTB/2LGQHmGnz8uH6PBMQecQEHzTr8jTKHBrmqvPwQJmsCg
bYTBZexOQCBRZsAZrpHB25DJQLYBckAviKTBuzunQB65TkB2LpDBnQaHQCNYPMC6tZjB2YCJQENo
cECXzJjBEa7ZQGMTIkBSPp7BzqAFQRvRG0CibJ7BZwiQQESer0C9j6fBodtnQD68k8BGMIvBOuGi
QLYVjEAPaqHBeXnMQFYDLUCGxJLBTRKaQAx6T0A7loXBVWSBQBJXy78s65rBCwnfQP5GiEDM0avB
tOumQN59Y8D8tJvByYFsPvims8AVBHjB1FfEQNgMCL+Dm7rBYdDhQDkIyD9R17LBmZCYQN88BMBr
Xq/BHrytvUGAXMD2FovB+/nLPwVFFcCX5pbBXvikQGaOIz/8wZTBeyhDQAl2wMDq537BVD9tQI4w
O0AxGpzBB6hnQEQxkEC2UZXBNooMQTdRVkD09JrBC8MKQQkGyD+qtpnBTiYLQRiqFEBsu6bB6eJj
QJzCuUB1w6PBboumQLOrykBGuafBPYuJQBf2pEBEyq/Be2XgQMZJGkAK9ozBKdesQKBxNkCA03/B
ip97QJcNaUDxnoPBFQhQQFuvkb8ao5fB9hC9QFiy0r4qrLPB0brKQLRcXD9OKrDBhQWmQPcHob/L
vqzBl4UjQFGAqsDxvoXBoCNiQC/hmMCegozBZIipQCYX5T4o5J7BkaGiP4ovUsB63YfBJTDCQMug
pT8vkKXBw/qbQO6kUL/nV6LBbAO0P01HksC8b4PBfnpVQACyXsAtyJDBvY2vQPMncUB7PqTB7jS4
QLJSO0BazY7B4xaKQBfkN8BwMpjB1uyLQMYLVEAEvZLBr2LRQJdiK0DIeKHBYPT9QIXQQkC5N6bB
WstZQHXPoEDAa5/B9AQOQFbmMMDIV47BuOiNQFyAgED7E53BFVHXQBo7KUDPjZXBzNu+QMkvMUBC
6YPBfKyCQLSZx79wZZvBAuayQIaljUB7fqzB73KqQAjOXsDD6prBjI8dPg7jpsAHYXbBJFHEQF7R
PL8btbvBV9HbQGk+wT+Jl7XBySGcQEZID8AeY6/BZ70rQHESysBmYoLBSp6NQEHHqsA2bo7BQv+g
QD2SSD9V9pbB2vjHPjfXLMCNDIbBcSdxQJm3GUCTrZPB/qV5QCNHfkCYy4zB4fsDQb/ogEBVMaPB
BcYKQfY5EkAS0aPBhNX7QP7tREBq/67Bc2ErQOnooUBZz5jBpyB4QHZewEAcU6DBtZA4QDNKmEB7
4abB6AX0QGZvGUAnn5LBMh/bQB1EHECkOIHB0WSnQInLPkAyfX3BaGpRQOPyjb+wapjB

> <OMEGA_E>
zjdRP7rzVT8QGlg/erpbPw==

> <OMEGA_NBR>
     14501

$$$$
50093313
  -OEChem-04172616093D

 42 44  0     1  0  0  0  0  0999 V2000
    6.2261   -0.0470  -21.7255 C   0  0  0  0  0  0  0  0  0  0  0  0
    6.5569    1.1309  -21.0218 C   0  0  0  0  0  0  0  0  0  0  0  0
    5.3869   -1.0074  -21.1384 C   0  0  0  0  0  0  0  0  0  0  0  0
    1.4498   -3.5265  -16.5008 C   0  0  0  0  0  0  0  0  0  0  0  0
    2.1993   -2.9538  -17.5306 C   0  0  0  0  0  0  0  0  0  0  0  0
    5.1352    0.4360  -19.1811 C   0  0  0  0  0  0  0  0  0  0  0  0
    2.8758   -5.4861  -16.6602 C   0  0  0  0  0  0  0  0  0  0  0  0
    6.0294    1.3846  -19.7224 C   0  0  0  0  0  0  0  0  0  0  0  0
    4.8416   -0.7576  -19.8632 C   0  0  0  0  0  0  0  0  0  0  0  0
    1.7917   -4.8099  -16.0599 C   0  0  0  0  0  0  0  0  0  0  0  0
    3.2877   -3.6710  -18.0952 C   0  0  0  0  0  0  0  0  0  0  0  0
    4.1346    3.7011  -19.1816 C   0  0  0  0  0  0  0  0  0  0  0  0
    4.1279   -3.0110  -19.1120 C   0  0  0  0  0  0  0  0  0  0  0  0
    4.4882    4.1885  -20.5889 C   0  0  0  0  0  0  0  0  0  0  0  0
    6.8309    3.8368  -19.8796 C   0  0  0  0  0  0  0  0  0  0  0  0
    6.3173    2.7114  -18.9387 C   0  0  2  0  0  0  0  0  0  0  0  0
    7.2337    2.5862  -17.6686 C   0  0  0  0  0  0  0  0  0  0  0  0
    3.5993   -4.9185  -17.6562 N   0  0  0  0  0  0  0  0  0  0  0  0
    5.0368    3.1881  -18.3971 N   0  3  0  0  0  0  0  0  0  0  0  0
    2.8385    3.7707  -18.7030 N   0  0  0  0  0  0  0  0  0  0  0  0
    3.9791   -1.6346  -19.2334 N   0  0  0  0  0  0  0  0  0  0  0  0
    5.0215   -3.6279  -19.6853 O   0  0  0  0  0  0  0  0  0  0  0  0
    5.8917    4.0262  -20.9705 O   0  0  0  0  0  0  0  0  0  0  0  0
    8.4938    2.2023  -17.9886 F   0  0  0  0  0  0  0  0  0  0  0  0
    6.7031    1.7048  -16.7757 F   0  0  0  0  0  0  0  0  0  0  0  0
    7.3179    3.7919  -17.0324 F   0  0  0  0  0  0  0  0  0  0  0  0
    0.8622   -5.5642  -14.7940 Cl  0  0  0  0  0  0  0  0  0  0  0  0
    6.6193   -0.2099  -22.7181 H   0  0  0  0  0  0  0  0  0  0  0  0
    7.2208    1.8519  -21.4755 H   0  0  0  0  0  0  0  0  0  0  0  0
    5.1620   -1.9271  -21.6581 H   0  0  0  0  0  0  0  0  0  0  0  0
    0.6247   -2.9910  -16.0547 H   0  0  0  0  0  0  0  0  0  0  0  0
    1.9522   -1.9682  -17.8966 H   0  0  0  0  0  0  0  0  0  0  0  0
    4.6687    0.6305  -18.2267 H   0  0  0  0  0  0  0  0  0  0  0  0
    3.1344   -6.4774  -16.3184 H   0  0  0  0  0  0  0  0  0  0  0  0
    3.8730    3.6275  -21.3078 H   0  0  0  0  0  0  0  0  0  0  0  0
    4.2403    5.2584  -20.6507 H   0  0  0  0  0  0  0  0  0  0  0  0
    6.9258    4.7739  -19.3115 H   0  0  0  0  0  0  0  0  0  0  0  0
    7.8127    3.5538  -20.2868 H   0  0  0  0  0  0  0  0  0  0  0  0
    4.8573    3.1175  -17.4159 H   0  0  0  0  0  0  0  0  0  0  0  0
    2.6254    3.4337  -17.7860 H   0  0  0  0  0  0  0  0  0  0  0  0
    2.1148    4.1581  -19.2742 H   0  0  0  0  0  0  0  0  0  0  0  0
    3.1601   -1.2360  -18.8206 H   0  0  0  0  0  0  0  0  0  0  0  0
  1  2  1  0  0  0  0
  1  3  2  0  0  0  0
  2  8  2  0  0  0  0
  3  9  1  0  0  0  0
  4  5  2  0  0  0  0
  4 10  1  0  0  0  0
  5 11  1  0  0  0  0
  6  8  1  0  0  0  0
  6  9  2  0  0  0  0
  7 10  2  0  0  0  0
  7 18  1  0  0  0  0
  8 16  1  0  0  0  0
  9 21  1  0  0  0  0
 10 27  1  0  0  0  0
 11 13  1  0  0  0  0
 11 18  2  0  0  0  0
 12 14  1  0  0  0  0
 12 19  2  0  0  0  0
 12 20  1  0  0  0  0
 13 21  1  0  0  0  0
 13 22  2  0  0  0  0
 14 23  1  0  0  0  0
 15 16  1  0  0  0  0
 15 23  1  0  0  0  0
 16 17  1  0  0  0  0
 16 19  1  0  0  0  0
 17 24  1  0  0  0  0
 17 25  1  0  0  0  0
 17 26  1  0  0  0  0
  1 28  1  0  0  0  0
  2 29  1  0  0  0  0
  3 30  1  0  0  0  0
  4 31  1  0  0  0  0
  5 32  1  0  0  0  0
  6 33  1  0  0  0  0
  7 34  1  0  0  0  0
 14 35  1  0  0  0  0
 14 36  1  0  0  0  0
 15 37  1  0  0  0  0
 15 38  1  0  0  0  0
 19 39  1  0  0  0  0
 20 40  1  0  0  0  0
 20 41  1  0  0  0  0
 21 42  1  0  0  0  0
M  CHG  1  19   1
M  END
> <OMEGA_C>
0DvHQIBlQL3mza3BRNLRQDTCkD+zLKjB12GsQKTzgL+EG6nBipG5P6CxYcCgAYTB5MEMQEwKPcCS
PozBllOkQBg33z75cpnBXQw4QAiOr8AKSIXBqvDAQAg6sT+Ex53BIO6aQKD0Qb/v557BW1flP87q
mcCreoDBWGpSQFzyasD8wpDBAE+EQIbfbEDcc5nBgheEQOC0QMBx5ZjBI5+PQB4IhkD3taTBVJba
QHqNdUBZCZ/BqCfKQAqHLUBfgpfBfnrnQCCEJUA2WY3BT1pmQEpkncDzP43BvC2hQEwKTEBALZPB
t6o1QMpTcUDYn5XBpql+QHw60b/s3ZnBN7CgQKQvaMB+e53B5oi8QEnWgECZw6fBn+YHQZjyDECQ
6I/Bin/WQFA42j+ONIbBVizqQMCtckBmQojBPLhcPwgOssBBtGzBgNHTQJzrVr6vvrXB2RDnQPEK
7T/mzavBbS+lQLeq9r/QQ63BSu4fPy1sP8AOcIDBKeL5P+vt+79MLI/B8WWVQCpmIT9M0JHBHZpI
QM5Gz8AUjILBW993QHooaEBIdqrBtLCHQPdEqECUNKXBKaDdQNnDmEDgfZrB0gH6QNRwY0BdS6LB
B2+bQJiER0C7U4vByQUoQLXBW0DCSY7BMlkHQBIPhUCBMZrBLj9KQHI2nr+KkJbBYDLFQKxE9r67
c7HBCPjIQIIVYT8/w67B42muQH6yrb9oxqrB8o8mQJ5OtsDHTIfBASZgQDeOo8Bmio7B2sKeQIez
/D7xqJ7B5KLFPwadYcD/UIXBeM60QJ6fsj/XdaXBqdybQLDJYL88MaHBIAvOP2GHnMA1pILBR6NY
QBe2bsBO7pDBf/t3QGhpjkDIY57Bua2JQHL+RMAEl5jBVuaJQCYgrUDbJqfBWqS8QJRScECZ9KzB
RgK4QCqEOUDth6LBYcDeQPuhSUB4z5rBR6AaQJgyPsDHSozBkcyPQPigU0BQxZzBX64wQOhUmEBl
Q5jBbACFQCeT2b/6K5rB0GemQLt8bsAs1JzBd++0QGGOpEBLrqrBWRUCQQxBMUAnd5/Bw73ZQKTk
HECpjJHBf7LhQI0Oj0DLN5jBhwnuPvBTssBrQHPBpuLTQK10Wr/yrrjBbWXbQArixD+H07PBjA2r
QCZkGcDJ9KzBXgkrQK3m18CbWYXB1c+IQN+XtsCxP5LBvPaPQNnGXD9XbpfBAf9HP2kIOsBkuIHB
txVoQD/SqUACAK7BA02IQGMJzkBVDqTBojndQPLXaECwJrDBClGlQCX7WUDR7LLBSG2DQGoUK0Db
aJfB5f4bQKbJg0CGs5LBofURQBsHtEB8aJnBIDRdQAvHn7/dvpXB

> <OMEGA_E>
zC02P8zWWz8=

> <OMEGA_NBR>
     16259

$$$$
50198735
  -OEChem-04172616093D

 46 48  0     1  0  0  0  0  0999 V2000
    0.3841   -5.2889  -15.5939 C   0  0  0  0  0  0  0  0  0  0  0  0
    6.2647   -0.4792  -22.1584 C   0  0  0  0  0  0  0  0  0  0  0  0
    2.4748   -5.5488  -16.8686 C   0  0  0  0  0  0  0  0  0  0  0  0
    6.2636    0.9040  -21.8888 C   0  0  0  0  0  0  0  0  0  0  0  0
    5.5542   -1.3646  -21.3274 C   0  0  0  0  0  0  0  0  0  0  0  0
    3.4401   -4.9855  -17.7185 C   0  0  0  0  0  0  0  0  0  0  0  0
    4.8958    0.5070  -19.9181 C   0  0  0  0  0  0  0  0  0  0  0  0
    1.3079   -3.4173  -16.8944 C   0  0  0  0  0  0  0  0  0  0  0  0
    1.3925   -4.7528  -16.4532 C   0  0  0  0  0  0  0  0  0  0  0  0
    5.5528    1.4230  -20.7778 C   0  0  0  0  0  0  0  0  0  0  0  0
    4.8720   -0.8673  -20.1949 C   0  0  0  0  0  0  0  0  0  0  0  0
    3.2988   -3.6375  -18.1314 C   0  0  0  0  0  0  0  0  0  0  0  0
    4.6618    3.3701  -19.2932 C   0  0  0  0  0  0  0  0  0  0  0  0
    7.3487    4.2960  -19.4336 C   0  0  0  0  0  0  0  0  0  0  0  0
    4.2836   -3.0143  -19.0398 C   0  0  0  0  0  0  0  0  0  0  0  0
    6.3100    5.1263  -18.7135 C   0  0  0  0  0  0  0  0  0  0  0  0
    5.5718    2.9452  -20.4967 C   0  0  2  0  0  0  0  0  0  0  0  0
    5.0858    3.7308  -21.7458 C   0  0  0  0  0  0  0  0  0  0  0  0
    4.2797    4.7571  -17.2529 C   0  0  0  0  0  0  0  0  0  0  0  0
   -0.4404   -5.7238  -14.8937 N   0  0  0  0  0  0  0  0  0  0  0  0
    2.2445   -2.8867  -17.7117 N   0  0  0  0  0  0  0  0  0  0  0  0
    5.1271    4.3188  -18.3766 N   0  0  0  0  0  0  0  0  0  0  0  0
    6.9988    3.3148  -20.2348 N   0  3  0  0  0  0  0  0  0  0  0  0
    8.6901    4.6187  -19.2911 N   0  0  0  0  0  0  0  0  0  0  0  0
    4.1090   -1.6643  -19.3402 N   0  0  0  0  0  0  0  0  0  0  0  0
    3.5018    2.9721  -19.2195 O   0  0  0  0  0  0  0  0  0  0  0  0
    5.2531   -3.6520  -19.4393 O   0  0  0  0  0  0  0  0  0  0  0  0
    6.8134   -0.8612  -23.0066 H   0  0  0  0  0  0  0  0  0  0  0  0
    2.5619   -6.5739  -16.5401 H   0  0  0  0  0  0  0  0  0  0  0  0
    6.8098    1.5751  -22.5351 H   0  0  0  0  0  0  0  0  0  0  0  0
    5.5304   -2.4202  -21.5545 H   0  0  0  0  0  0  0  0  0  0  0  0
    4.2815   -5.5736  -18.0541 H   0  0  0  0  0  0  0  0  0  0  0  0
    4.4028    0.8757  -19.0308 H   0  0  0  0  0  0  0  0  0  0  0  0
    0.4780   -2.8054  -16.5731 H   0  0  0  0  0  0  0  0  0  0  0  0
    6.7483    5.5255  -17.7870 H   0  0  0  0  0  0  0  0  0  0  0  0
    6.0031    5.9597  -19.3626 H   0  0  0  0  0  0  0  0  0  0  0  0
    5.1047    4.8096  -21.5313 H   0  0  0  0  0  0  0  0  0  0  0  0
    5.7494    3.5145  -22.5960 H   0  0  0  0  0  0  0  0  0  0  0  0
    4.0591    3.4246  -21.9948 H   0  0  0  0  0  0  0  0  0  0  0  0
    4.8229    5.5010  -16.6517 H   0  0  0  0  0  0  0  0  0  0  0  0
    3.3553    5.2067  -17.6446 H   0  0  0  0  0  0  0  0  0  0  0  0
    4.0280    3.8905  -16.6239 H   0  0  0  0  0  0  0  0  0  0  0  0
    7.7186    2.7911  -20.6904 H   0  0  0  0  0  0  0  0  0  0  0  0
    9.3842    4.1058  -19.7963 H   0  0  0  0  0  0  0  0  0  0  0  0
    8.9632    5.3642  -18.6831 H   0  0  0  0  0  0  0  0  0  0  0  0
    3.3418   -1.2106  -18.8869 H   0  0  0  0  0  0  0  0  0  0  0  0
  1  9  1  0  0  0  0
  1 20  3  0  0  0  0
  2  4  2  0  0  0  0
  2  5  1  0  0  0  0
  3  6  2  0  0  0  0
  3  9  1  0  0  0  0
  4 10  1  0  0  0  0
  5 11  2  0  0  0  0
  6 12  1  0  0  0  0
  7 10  2  0  0  0  0
  7 11  1  0  0  0  0
  8  9  2  0  0  0  0
  8 21  1  0  0  0  0
 10 17  1  0  0  0  0
 11 25  1  0  0  0  0
 12 15  1  0  0  0  0
 12 21  2  0  0  0  0
 13 17  1  0  0  0  0
 13 22  1  0  0  0  0
 13 26  2  0  0  0  0
 14 16  1  0  0  0  0
 14 23  2  0  0  0  0
 14 24  1  0  0  0  0
 15 25  1  0  0  0  0
 15 27  2  0  0  0  0
 16 22  1  0  0  0  0
 17 18  1  0  0  0  0
 17 23  1  0  0  0  0
 19 22  1  0  0  0  0
  2 28  1  0  0  0  0
  3 29  1  0  0  0  0
  4 30  1  0  0  0  0
  5 31  1  0  0  0  0
  6 32  1  0  0  0  0
  7 33  1  0  0  0  0
  8 34  1  0  0  0  0
 16 35  1  0  0  0  0
 16 36  1  0  0  0  0
 18 37  1  0  0  0  0
 18 38  1  0  0  0  0
 18 39  1  0  0  0  0
 19 40  1  0  0  0  0
 19 41  1  0  0  0  0
 19 42  1  0  0  0  0
 23 43  1  0  0  0  0
 24 44  1  0  0  0  0
 24 45  1  0  0  0  0
 25 46  1  0  0  0  0
M  CHG  1  23   1
M  END
> <OMEGA_C>
xqvEPgw/qcDNgHnBXXjIQEZX9b5aRLHBK2MeQJaPscDf8obBzm/IQLdpZz9bHK/BqLuxQIOqrr+U
nqrBRCpcQEmJn8CRv43BG6qcQK/IAT9aWJ/B2minP3e0WsDKJ4fBnD6yPywXmMA6oIPBrLCxQIYl
tj8JOabBWeebQH8EXr8rj6HB+x9TQIPMaMA0DZHBui2VQCSwV0CFWJrBsSjrQD15iUAReJvBohOJ
QOzqQMCBUZjBZevJQOcKpEBVtZXBekyyQI19PEBV+aPB676iQDrGbkBO963B+PKIQD86mED0BYrB
BH3hvl4pt8CJTG7BIqUPQF/AOMCRsY3BehGkQNEzikBPA5PBxvXfQEMmVED24KHB2QoLQWjMk0Ai
VJrBVH2DQKQI1b+iuJrBEB1gQDg2PkB9wZnBhhmoQA+6acCog5vBAQfaQGx5XL9tDbjBDPYjQGxd
0sALUoTBCOrZQEqcyT/0R7TByPiwQAnkGsCjb6zBwAGJQCNbssDEbpDBG+SMQE8wYD8AP5jBSb70
Pt6KM8CllYTBMfLXQLrQsECzS47BLhnAQL+1vkCu5prB1VmjQP7nmUAJQKzB3vq3QJntYECNxLTB
2+OBQI8sW0BN9a/BF1WaQJMIsECpNoXBrrxWQP6cpkATKI3BgOWAQFf+eECp/YTBrP72QPqhMkAK
hqXBqCUWQQ5jg0DiXp7BYGkPQWKnq0DpdpXBVeBVQCb0mr9PGJfBCorxPr8oq8CYe3rBkQ+9QHpP
xr7H07PBWuV1P/Hyb8AFo4vBqGDLQJJYXT96CbDBGxelQDJ+nr+NI63BDoLzP7pYScBwZZLBBQCp
QL5V2D6I8Z7BY64xQFVGocC92YPB5bqzPzqzlsDHPoTBGJvCQPvOoj+7YaXBaLaaQEPzUb+GsaLB
zvxQQJ+lYcBUs5HBepKxQKA/cEDwoaPBlAu5QGkXNkAxV47Bc/mHQNf9OMD135jB1yaNQDh4UUCL
RpLBN5bSQPmRKEDzAKHBwon/QMEiP0AymKXBYz1fQNFHoUC3sZ7BgJCVvmnPu8AzHG/BqCprQM2u
jsAmgorBbeKPQEMUgEC5e5zBhCPYQKHkI0AaF5XBEky/QPS/KUCCeIPBMXKAQAiyyb/YCJzBO5m1
QLXgjUB3wKvBkDqpQIp1XsCDNZvB6oXEQJrLMb/H5bvBwjCsvdXMXsBeGozBeyfdQHxTwj+BSbXB
q7yaQIMYDcC0/6/B7rjLP6piGcBqGZjBHlGgQM50PT/N+ZbBUoVHQIazuMDdOnzB/2JyQOAwGEBC
aJPBNLp8QBNKe0AQPYzBuwgFQUwjfUDoXKLBSEkLQXouDUCHS6PBsLj9QEwBQ0CVXq7BY3swQBE/
okC0HpjBRu1+QG+XwECoYp/BUx4+QL7OmUA6O6bBF5P0QFtCEkAwKJLBP0PbQP4rE0C3y4DBgNen
QKtsN0C6m3zBfsRLQFOEkb9ISJnBlHzDPvfOosDST3nBseu8QJR00b7asrPBH7wjQC9mqsAHu4XB
iZ7KQCjoXD9gMbDBKfGlQCzHoL8Ew6zB8VJiQE3SmMDRgYzBAZKpQCO25T5Q557BPZOjP7CyUcDq
1IfBZpC0P08SksBYZ4PBbSzCQNjQpT+QlaXB6/6bQFpLUL9fWqLBXMVVQK6NXsDMxZDBko+vQM88
cUDQPqTB9mO4QFNQO0Crz47BJTCKQNXTN8D1M5jBTRSMQCQTVEDeuJLBaGnRQDZ1K0DQfqHBC/H9
QE/mQkBHQ6bBle9ZQJ7doECBYZ/BBY/svnpIsMCeV27BT3sOQM+YMMBfUY7BLPuNQOSIgEBTD53B
hXHXQKVCKUDBlJXBeyK/QBQbMUDR7IPB4cCCQCx2x79WZZvBlNWyQP2yjUC1fqzBxIGqQJfKXsDO
8JrB+hfEQA0KPL9RvbvBpd4rQHP7ycCFX4LBZ6nbQIKOwT9GoLXBtQecQK0lD8DRZq/BCqqNQFLF
qsDmcI7BbBehQPTKSD9G+JbB2dbMPjsvLMD+AIbBVW5xQITCGUCxp5PBxhF6QKBKfkC7xIzBx/0D
QcfxgEAnPaPBpcYKQSBMEkCZ4KPBer/7QG8NRUClCq/BLKErQLz1oUAUwpjBakl4QDxrwECDSaDB
DpQ4QHRfmEBy1abBJC30QNN2GUBIqpLBjWvbQPIpHECbQIHB67anQAavPkA0fX3BJKBRQOzRjb/h
ZpjB

> <OMEGA_E>
ZOFuP46yWj9QVWM/

> <OMEGA_NBR>
     18932

$$$$
50198736
  -OEChem-04172616093D

 48 50  0     1  0  0  0  0  0999 V2000
    6.3039   -0.5165  -22.1741 C   0  0  0  0  0  0  0  0  0  0  0  0
    6.3167    0.8750  -21.9521 C   0  0  0  0  0  0  0  0  0  0  0  0
    1.2563   -3.3609  -16.7448 C   0  0  0  0  0  0  0  0  0  0  0  0
    5.5823   -1.3653  -21.3151 C   0  0  0  0  0  0  0  0  0  0  0  0
    2.1897   -2.7730  -17.6077 C   0  0  0  0  0  0  0  0  0  0  0  0
    4.9413    0.5602  -19.9719 C   0  0  0  0  0  0  0  0  0  0  0  0
    2.5922   -5.3886  -16.8095 C   0  0  0  0  0  0  0  0  0  0  0  0
    5.6090    1.4391  -20.8613 C   0  0  0  0  0  0  0  0  0  0  0  0
    1.4544   -4.6949  -16.3358 C   0  0  0  0  0  0  0  0  0  0  0  0
    4.9038   -0.8221  -20.2016 C   0  0  0  0  0  0  0  0  0  0  0  0
    3.3087   -3.5254  -18.0500 C   0  0  0  0  0  0  0  0  0  0  0  0
    4.7324    3.4444  -19.4478 C   0  0  0  0  0  0  0  0  0  0  0  0
    7.4293    4.3374  -19.6090 C   0  0  0  0  0  0  0  0  0  0  0  0
    4.2898   -2.9213  -18.9765 C   0  0  0  0  0  0  0  0  0  0  0  0
    6.3966    5.2023  -18.9216 C   0  0  0  0  0  0  0  0  0  0  0  0
    5.6425    2.9695  -20.6325 C   0  0  2  0  0  0  0  0  0  0  0  0
    5.1690    3.7167  -21.9096 C   0  0  0  0  0  0  0  0  0  0  0  0
    4.3572    4.9041  -17.4575 C   0  0  0  0  0  0  0  0  0  0  0  0
    0.4732   -5.3946  -15.4021 C   0  0  0  0  0  0  0  0  0  0  0  0
    3.4860   -4.8082  -17.6429 N   0  0  0  0  0  0  0  0  0  0  0  0
    5.2041    4.4190  -18.5622 N   0  0  0  0  0  0  0  0  0  0  0  0
    7.0721    3.3332  -20.3778 N   0  3  0  0  0  0  0  0  0  0  0  0
    8.7734    4.6512  -19.4723 N   0  0  0  0  0  0  0  0  0  0  0  0
    4.1317   -1.5805  -19.3209 N   0  0  0  0  0  0  0  0  0  0  0  0
    3.5683    3.0603  -19.3647 O   0  0  0  0  0  0  0  0  0  0  0  0
    5.2549   -3.5794  -19.3532 O   0  0  0  0  0  0  0  0  0  0  0  0
   -0.5584   -4.5798  -15.0495 F   0  0  0  0  0  0  0  0  0  0  0  0
    1.1224   -5.7826  -14.2721 F   0  0  0  0  0  0  0  0  0  0  0  0
   -0.0378   -6.4929  -16.0199 F   0  0  0  0  0  0  0  0  0  0  0  0
    6.8504   -0.9332  -23.0073 H   0  0  0  0  0  0  0  0  0  0  0  0
    6.8713    1.5178  -22.6197 H   0  0  0  0  0  0  0  0  0  0  0  0
    0.3996   -2.8017  -16.3989 H   0  0  0  0  0  0  0  0  0  0  0  0
    5.5472   -2.4276  -21.5062 H   0  0  0  0  0  0  0  0  0  0  0  0
    2.0585   -1.7521  -17.9348 H   0  0  0  0  0  0  0  0  0  0  0  0
    4.4511    0.9642  -19.0986 H   0  0  0  0  0  0  0  0  0  0  0  0
    2.7520   -6.4101  -16.4972 H   0  0  0  0  0  0  0  0  0  0  0  0
    6.8357    5.6281  -18.0074 H   0  0  0  0  0  0  0  0  0  0  0  0
    6.1008    6.0163  -19.5998 H   0  0  0  0  0  0  0  0  0  0  0  0
    5.1981    4.8019  -21.7321 H   0  0  0  0  0  0  0  0  0  0  0  0
    5.8333    3.4646  -22.7493 H   0  0  0  0  0  0  0  0  0  0  0  0
    4.1400    3.4124  -22.1520 H   0  0  0  0  0  0  0  0  0  0  0  0
    4.9060    5.6626  -16.8798 H   0  0  0  0  0  0  0  0  0  0  0  0
    3.4390    5.3495  -17.8679 H   0  0  0  0  0  0  0  0  0  0  0  0
    4.0943    4.0622  -16.8002 H   0  0  0  0  0  0  0  0  0  0  0  0
    7.7881    2.7871  -20.8126 H   0  0  0  0  0  0  0  0  0  0  0  0
    9.4639    4.1145  -19.9572 H   0  0  0  0  0  0  0  0  0  0  0  0
    9.0519    5.4141  -18.8888 H   0  0  0  0  0  0  0  0  0  0  0  0
    3.3706   -1.1025  -18.8825 H   0  0  0  0  0  0  0  0  0  0  0  0
  1  2  2  0  0  0  0
  1  4  1  0  0  0  0
  2  8  1  0  0  0  0
  3  5  2  0  0  0  0
  3  9  1  0  0  0  0
  4 10  2  0  0  0  0
  5 11  1  0  0  0  0
  6  8  2  0  0  0  0
  6 10  1  0  0  0  0
  7  9  2  0  0  0  0
  7 20  1  0  0  0  0
  8 16  1  0  0  0  0
  9 19  1  0  0  0  0
 10 24  1  0  0  0  0
 11 14  1  0  0  0  0
 11 20  2  0  0  0  0
 12 16  1  0  0  0  0
 12 21  1  0  0  0  0
 12 25  2  0  0  0  0
 13 15  1  0  0  0  0
 13 22  2  0  0  0  0
 13 23  1  0  0  0  0
 14 24  1  0  0  0  0
 14 26  2  0  0  0  0
 15 21  1  0  0  0  0
 16 17  1  0  0  0  0
 16 22  1  0  0  0  0
 18 21  1  0  0  0  0
 19 27  1  0  0  0  0
 19 28  1  0  0  0  0
 19 29  1  0  0  0  0
  1 30  1  0  0  0  0
  2 31  1  0  0  0  0
  3 32  1  0  0  0  0
  4 33  1  0  0  0  0
  5 34  1  0  0  0  0
  6 35  1  0  0  0  0
  7 36  1  0  0  0  0
 15 37  1  0  0  0  0
 15 38  1  0  0  0  0
 17 39  1  0  0  0  0
 17 40  1  0  0  0  0
 17 41  1  0  0  0  0
 18 42  1  0  0  0  0
 18 43  1  0  0  0  0
 18 44  1  0  0  0  0
 22 45  1  0  0  0  0
 23 46  1  0  0  0  0
 23 47  1  0  0  0  0
 24 48  1  0  0  0  0
M  CHG  1  22   1
M  END
> <OMEGA_C>
krnJQDQ6BL+PZLHBsCLKQPn8Xz/0na/BKs+gP8AYV8Be9YXBKKKyQNrArr9kharBZyMMQDh4McB7
3IzBiB+eQK9oDz+Lxp/BPuYlQIpvrMDEeYbBtXyzQBU1uD8B5KbBcym6P5E8lsCgr4LB2eucQAx2
Ur/JnKHBoMFTQJSfYcBUZpDB6G+XQBVxXEAZlZvBi7ztQFnMikAm35zBA0aJQLn2OsDOz5fB9bDM
QDl5pkB6X5fBEo+0QJALPkByD6XBEWilQKLdbUDjRq/BNG6LQKzunEDcqIvBOk3yPpmgrMDkbnbB
zhpfQOfcmcC0JI3BRIimQI5ojUBpf5TBuk7iQIJTVUDABaPBzF8MQY7WlEA/x5vBRzeEQEJOyr8a
kZrBS15kQEPcQ0AB65rBISioQCcVZcBL05rBW/QOv2qNksCYynDBy6mPP9YKucC0WmTBY6gavfHF
z8DbKIDBijbbQDzjbr/bDrjBb+HbQHVIwj8N9bTBjpfMPlpOM8DeMIPBl4KxQGNeG8DMDKzBKr4D
QNlE4L+Beo/BBW+OQKTYdj/pyZjBNyAwQEEfzcBA+oPB9L3aQLgZtEAVD5DBojnDQCGFwEB1zJzB
nlamQMaomUBw263Bpaq6QBe8XUCR/rXBRnuEQENkWkBbN7HBvv2cQKEztUDiCYfB4hdcQFEvq0Bs
8Y7BXwSDQF39gUDOZobBXTj5QGJfMkAvgKbBNWwXQSOqg0BfqJ/BwdQQQQlArUBRHJfBY7hXQM0d
jb9OD5fB

> <OMEGA_E>
xBdiPw==

> <OMEGA_NBR>
     20033

$$$$
50198733
  -OEChem-04172616093D

 47 49  0     1  0  0  0  0  0999 V2000
    6.2505   -0.4292  -22.2093 C   0  0  0  0  0  0  0  0  0  0  0  0
    6.2715    0.9493  -21.9173 C   0  0  0  0  0  0  0  0  0  0  0  0
    5.5389   -1.3189  -21.3836 C   0  0  0  0  0  0  0  0  0  0  0  0
    4.9203    0.5381  -19.9371 C   0  0  0  0  0  0  0  0  0  0  0  0
    3.6935   -4.6929  -17.3492 C   0  0  0  0  0  0  0  0  0  0  0  0
    1.1523   -3.7084  -17.3401 C   0  0  0  0  0  0  0  0  0  0  0  0
    5.5836    1.4595  -20.7877 C   0  0  0  0  0  0  0  0  0  0  0  0
    4.8732   -0.8313  -20.2377 C   0  0  0  0  0  0  0  0  0  0  0  0
    3.3212   -3.6174  -18.1915 C   0  0  0  0  0  0  0  0  0  0  0  0
    1.5300   -4.7669  -16.4843 C   0  0  0  0  0  0  0  0  0  0  0  0
    4.7544    3.3959  -19.2522 C   0  0  0  0  0  0  0  0  0  0  0  0
    7.4489    4.2902  -19.4422 C   0  0  0  0  0  0  0  0  0  0  0  0
    4.3001   -2.9818  -19.0904 C   0  0  0  0  0  0  0  0  0  0  0  0
    6.4383    5.1223  -18.6855 C   0  0  0  0  0  0  0  0  0  0  0  0
    5.6299    2.9773  -20.4831 C   0  0  2  0  0  0  0  0  0  0  0  0
    0.4963   -5.4166  -15.5923 C   0  0  0  0  0  0  0  0  0  0  0  0
    5.1260    3.7887  -21.7085 C   0  0  0  0  0  0  0  0  0  0  0  0
    4.4382    4.7564  -17.1831 C   0  0  0  0  0  0  0  0  0  0  0  0
    2.0530   -3.1422  -18.1681 N   0  0  0  0  0  0  0  0  0  0  0  0
    2.7940   -5.2493  -16.5090 N   0  0  0  0  0  0  0  0  0  0  0  0
    5.2535    4.3245  -18.3327 N   0  0  0  0  0  0  0  0  0  0  0  0
    7.0676    3.3252  -20.2491 N   0  3  0  0  0  0  0  0  0  0  0  0
    8.7974    4.5940  -19.3265 N   0  0  0  0  0  0  0  0  0  0  0  0
    4.1007   -1.6374  -19.3990 N   0  0  0  0  0  0  0  0  0  0  0  0
    3.5903    3.0143  -19.1584 O   0  0  0  0  0  0  0  0  0  0  0  0
    5.2915   -3.6015  -19.4633 O   0  0  0  0  0  0  0  0  0  0  0  0
    6.7829   -0.8044  -23.0708 H   0  0  0  0  0  0  0  0  0  0  0  0
    6.8171    1.6238  -22.5606 H   0  0  0  0  0  0  0  0  0  0  0  0
    5.5019   -2.3708  -21.6253 H   0  0  0  0  0  0  0  0  0  0  0  0
    4.4412    0.8987  -19.0388 H   0  0  0  0  0  0  0  0  0  0  0  0
    4.7046   -5.0714  -17.3787 H   0  0  0  0  0  0  0  0  0  0  0  0
    0.1336   -3.3498  -17.3310 H   0  0  0  0  0  0  0  0  0  0  0  0
    6.9033    5.5018  -17.7637 H   0  0  0  0  0  0  0  0  0  0  0  0
    6.1269    5.9692  -19.3146 H   0  0  0  0  0  0  0  0  0  0  0  0
    0.9557   -6.2548  -15.0479 H   0  0  0  0  0  0  0  0  0  0  0  0
    0.1160   -4.6766  -14.8727 H   0  0  0  0  0  0  0  0  0  0  0  0
   -0.3354   -5.7908  -16.2074 H   0  0  0  0  0  0  0  0  0  0  0  0
    5.1643    4.8636  -21.4782 H   0  0  0  0  0  0  0  0  0  0  0  0
    5.7670    3.5768  -22.5770 H   0  0  0  0  0  0  0  0  0  0  0  0
    4.0898    3.4998  -21.9385 H   0  0  0  0  0  0  0  0  0  0  0  0
    5.0050    5.4841  -16.5837 H   0  0  0  0  0  0  0  0  0  0  0  0
    3.5110    5.2238  -17.5462 H   0  0  0  0  0  0  0  0  0  0  0  0
    4.1898    3.8837  -16.5613 H   0  0  0  0  0  0  0  0  0  0  0  0
    7.7698    2.7991  -20.7288 H   0  0  0  0  0  0  0  0  0  0  0  0
    9.4729    4.0800  -19.8552 H   0  0  0  0  0  0  0  0  0  0  0  0
    9.0940    5.3269  -18.7144 H   0  0  0  0  0  0  0  0  0  0  0  0
    3.3117   -1.1984  -18.9692 H   0  0  0  0  0  0  0  0  0  0  0  0
  1  2  1  0  0  0  0
  1  3  2  0  0  0  0
  2  7  2  0  0  0  0
  3  8  1  0  0  0  0
  4  7  1  0  0  0  0
  4  8  2  0  0  0  0
  5  9  2  0  0  0  0
  5 20  1  0  0  0  0
  6 10  1  0  0  0  0
  6 19  2  0  0  0  0
  7 15  1  0  0  0  0
  8 24  1  0  0  0  0
  9 13  1  0  0  0  0
  9 19  1  0  0  0  0
 10 16  1  0  0  0  0
 10 20  2  0  0  0  0
 11 15  1  0  0  0  0
 11 21  1  0  0  0  0
 11 25  2  0  0  0  0
 12 14  1  0  0  0  0
 12 22  2  0  0  0  0
 12 23  1  0  0  0  0
 13 24  1  0  0  0  0
 13 26  2  0  0  0  0
 14 21  1  0  0  0  0
 15 17  1  0  0  0  0
 15 22  1  0  0  0  0
 18 21  1  0  0  0  0
  1 27  1  0  0  0  0
  2 28  1  0  0  0  0
  3 29  1  0  0  0  0
  4 30  1  0  0  0  0
  5 31  1  0  0  0  0
  6 32  1  0  0  0  0
 14 33  1  0  0  0  0
 14 34  1  0  0  0  0
 16 35  1  0  0  0  0
 16 36  1  0  0  0  0
 16 37  1  0  0  0  0
 17 38  1  0  0  0  0
 17 39  1  0  0  0  0
 17 40  1  0  0  0  0
 18 41  1  0  0  0  0
 18 42  1  0  0  0  0
 18 43  1  0  0  0  0
 22 44  1  0  0  0  0
 23 45  1  0  0  0  0
 23 46  1  0  0  0  0
 24 47  1  0  0  0  0
M  CHG  1  22   1
M  END
> <OMEGA_C>
yAPIQMHB276/rLHB+6/IQGgEcz+pVq/BVz6xQM7QqL+YEavBxnKdQJLCCT8rf5/B02FsQKMslsAQ
y4rBwH+TP3xWbcCCuIrB9KyyQPPPuj9PTabBhfGbQP7MVL+45qHBB49UQFqDZ8A8iJHBXNjDP0+K
mMDB34PBwyOYQP9VWUCHBJrBuV3uQO5IiUCViZvBMpqJQO7VPsAiuZjBPgbOQLbpo0DRe5XB7ie0
QHaMPkBL3aPBOhf+PqRUrcAGennBWAikQF95ckAaq63BwwWOQLc0mEDpdonBR2QDQDcZScBXWJHB
ttEyQJD6p8BfEoTByByoQAxiikBvqZLBqSniQD7QVEAS/qHBCMIMQaoBk0ConJrBHzmDQNGW0b8T
MZvB5cdlQPPpQEB1RJnBvVOpQJ1/ZsDltJvBqg3ZQEbvTb8AkbjB8CXaQFnXzz8CfLTBYw+wQJa7
F8CjAK3BRh6OQGATZj+MT5jBrYuWQCNJosCIB4vB9NkIPm1jVsDbpYrB+ufcQOgOsEAEHI7BSw/E
QE8Dv0BThJrBs6d0P0knyMBJxHDB2JntPeqmlcBp9m3BG7SrvoVOucC0qIHBPUKlQHWim0BN06vB
d4u4QBTrZEC9nbTB5N+CQHP8X0D8ga/BJSmgQHF9r0Baq4TBIrRgQBspp0CoXozBwhKGQPSNeECW
fYTBMqL4QA4lM0CQ1KXB0JAXQT6PgkCB157BLIERQVZ2qkAAt5XBSvJTQC9mmb/3wJfB3pa8QDFP
xr5B2bPBKPjKQKhAXT8gEbDBusGkQLuhnr89I63BY+6oQM3X1j717p7BZMH0P7vLScD1LJLBbnow
QMIVocBS+4PBNGjCQKyUoj/cZaXBaZGaQJqmUr/8rKLBoLBRQCcHYsBbn5HB7ymyP9qllcCtvoTB
F2axQKghcEDymqPB/Vu5QF/MNUDsVI7BOCmIQJ0zOcCO0pjBBGGNQIw3UUAxM5LBLHrSQDtwKEAh
CKHBAt3BPk6lqcA3kXrBC1P/QPMSP0CDrqXBNhhfQOUuoUAVkZ7BVk1rQB78jsBbfIrBIk1+P8i9
bsC8xYvBTeGPQPD9f0CyZ5zBbkzYQFOoI0CsIJXBOd2/QEBiKUD/eIPBdmuAQNxNyr+Q/pvBLj21
QArbjUBbuavBDGepQE6KXsDqMpvBZeXDQHSHMb8t7rvBYqLcQB1iwj+GVbXBw1yaQGcmDcBQ/q/B
yGigQN1vPD+/85bBoGnNP+ggGcDty5fBhmFEQE6GuMDbR3zB28hyQJnzF0CMT5PBg3Z9QNP8ekDj
IozBtrYcv1+Qm8DMi33B+Z6sPspbzMClaH3B0IssPxCSo8BR42nBDfUEQc4OfUD1dKLBfzULQToe
DUCTa6PBVlD9QCgDQ0AadK7BLqYwQDciokA09ZfBxrd+QJeAwEC8R5/BcZ89QPC0mUBWFKbB08z0
QCX/EUCwPJLBsOTbQETMEkA314DBFoeoQHwDN0CXinzBwaBLQGaBkr//PJnB3US9QFdVkL7/ZrLB
ZxTOQFRAaD/bAq7B92ukQAvckr8ICazBXUmsQFpawj689JzBVFrzP1+lScDGgZHBCSMtQPtppsAG
uoTBUibGQC2Inz9+LaPBtdabQK4VT7+JSqHBI69PQF56ZsD2lZHBa9atP8eXmMBv3YTBMUXJQC0K
ckBNlKTBHo2nQPKdTkBIK5DBkzeHQBpmPMCZppjBD5CJQNBXcEBsupjBAZTZQA8SIkAKVJ7BStSw
PlIdrcBq+nrBJ5MFQZrbG0AKmp7BSaKPQECir0CtfafBnQFoQIzlk8BwJovBFg57Pxpdb8AeMYvB
2K2iQFUXjECPYqHB0rbMQAHtLEDm05LBRLSaQKZMT0DijIXBzF6BQP+Yy7/q35rBgoXeQHBSiEAt
56vB6g6nQG50Y8B9s5vBk3fDQD6GB78eq7rBpCPhQJs6yD808bLB1gGYQKQuBMA+Xa/BUyGlQP4w
Iz9FwpTBeDPOPxbNFMCmkZbBeBdAQEcHwMBe3X7BtTBtQPgiO0CmAJzBJPdnQAwkkEADNJXB3Vkg
v0gKncBk1HzBX/V1Ppowz8DkDn/BfYsvPz0NqsDjT2rB/4cMQSZaVkCvJ5vB38gKQdESyD8x6pnB
PvkKQafCFEAr7qbBylJjQCnDuUAWoqPBhyKmQOKwykCTsafBAeSIQPX9pEA+ta/Buc7gQPUoGkBu
D43BGqStQKQ6NkAK1H/BrgF9QKLcaECCh4PB+vZPQNc7kr81lJfB

> <OMEGA_E>
3GtsP/wOWD9q3V4/

> <OMEGA_NBR>
     22746

$$$$
50198734
  -OEChem-04172616093D

 45 47  0     1  0  0  0  0  0999 V2000
    6.6155   -0.4818  -22.0597 C   0  0  0  0  0  0  0  0  0  0  0  0
    6.5431    0.9080  -21.8533 C   0  0  0  0  0  0  0  0  0  0  0  0
    5.8348   -1.3540  -21.2848 C   0  0  0  0  0  0  0  0  0  0  0  0
    1.2618   -3.1347  -16.8533 C   0  0  0  0  0  0  0  0  0  0  0  0
    2.1633   -2.6757  -17.8181 C   0  0  0  0  0  0  0  0  0  0  0  0
    4.8821    0.5619  -20.1169 C   0  0  0  0  0  0  0  0  0  0  0  0
    2.6789   -5.0872  -16.5704 C   0  0  0  0  0  0  0  0  0  0  0  0
    5.6478    1.4549  -20.8981 C   0  0  0  0  0  0  0  0  0  0  0  0
    4.9820   -0.8272  -20.2895 C   0  0  0  0  0  0  0  0  0  0  0  0
    1.5240   -4.3563  -16.2205 C   0  0  0  0  0  0  0  0  0  0  0  0
    3.3122   -3.4495  -18.1311 C   0  0  0  0  0  0  0  0  0  0  0  0
    5.2690    3.2857  -17.7948 C   0  0  0  0  0  0  0  0  0  0  0  0
    6.5982    3.4130  -18.4289 C   0  0  0  0  0  0  0  0  0  0  0  0
    4.2785   -2.9405  -19.1202 C   0  0  0  0  0  0  0  0  0  0  0  0
    4.2421    3.4775  -20.0438 C   0  0  0  0  0  0  0  0  0  0  0  0
    5.6011    2.9786  -20.6405 C   0  0  2  0  0  0  0  0  0  0  0  0
    5.7838    3.7543  -21.9722 C   0  0  0  0  0  0  0  0  0  0  0  0
    2.7886    3.4018  -17.9857 C   0  0  0  0  0  0  0  0  0  0  0  0
    3.5441   -4.6339  -17.5084 N   0  0  0  0  0  0  0  0  0  0  0  0
    4.1214    3.2508  -18.5927 N   0  0  0  0  0  0  0  0  0  0  0  0
    6.7328    3.3383  -19.7347 N   0  3  0  0  0  0  0  0  0  0  0  0
    7.7235    3.6476  -17.6479 N   0  0  0  0  0  0  0  0  0  0  0  0
    4.1775   -1.5955  -19.4573 N   0  0  0  0  0  0  0  0  0  0  0  0
    5.1845    3.2104  -16.5729 O   0  0  0  0  0  0  0  0  0  0  0  0
    5.1769   -3.6655  -19.5347 O   0  0  0  0  0  0  0  0  0  0  0  0
    0.4192   -4.9661  -15.0193 Cl  0  0  0  0  0  0  0  0  0  0  0  0
    7.2745   -0.8793  -22.8174 H   0  0  0  0  0  0  0  0  0  0  0  0
    7.1767    1.5665  -22.4288 H   0  0  0  0  0  0  0  0  0  0  0  0
    5.8858   -2.4204  -21.4485 H   0  0  0  0  0  0  0  0  0  0  0  0
    0.3827   -2.5600  -16.6016 H   0  0  0  0  0  0  0  0  0  0  0  0
    1.9868   -1.7374  -18.3229 H   0  0  0  0  0  0  0  0  0  0  0  0
    4.2064    0.9556  -19.3720 H   0  0  0  0  0  0  0  0  0  0  0  0
    2.8773   -6.0285  -16.0796 H   0  0  0  0  0  0  0  0  0  0  0  0
    4.1518    4.5567  -20.2367 H   0  0  0  0  0  0  0  0  0  0  0  0
    3.4230    2.9449  -20.5491 H   0  0  0  0  0  0  0  0  0  0  0  0
    5.7487    4.8359  -21.7750 H   0  0  0  0  0  0  0  0  0  0  0  0
    6.7555    3.4943  -22.4175 H   0  0  0  0  0  0  0  0  0  0  0  0
    4.9769    3.4823  -22.6685 H   0  0  0  0  0  0  0  0  0  0  0  0
    2.0195    3.3472  -18.7702 H   0  0  0  0  0  0  0  0  0  0  0  0
    2.6251    2.5957  -17.2553 H   0  0  0  0  0  0  0  0  0  0  0  0
    2.7255    4.3753  -17.4776 H   0  0  0  0  0  0  0  0  0  0  0  0
    7.6280    3.5300  -20.1371 H   0  0  0  0  0  0  0  0  0  0  0  0
    8.6184    3.7569  -18.0806 H   0  0  0  0  0  0  0  0  0  0  0  0
    7.6383    3.7072  -16.6533 H   0  0  0  0  0  0  0  0  0  0  0  0
    3.4113   -1.1083  -19.0381 H   0  0  0  0  0  0  0  0  0  0  0  0
  1  2  2  0  0  0  0
  1  3  1  0  0  0  0
  2  8  1  0  0  0  0
  3  9  2  0  0  0  0
  4  5  2  0  0  0  0
  4 10  1  0  0  0  0
  5 11  1  0  0  0  0
  6  8  2  0  0  0  0
  6  9  1  0  0  0  0
  7 10  2  0  0  0  0
  7 19  1  0  0  0  0
  8 16  1  0  0  0  0
  9 23  1  0  0  0  0
 10 26  1  0  0  0  0
 11 14  1  0  0  0  0
 11 19  2  0  0  0  0
 12 13  1  0  0  0  0
 12 20  1  0  0  0  0
 12 24  2  0  0  0  0
 13 21  2  0  0  0  0
 13 22  1  0  0  0  0
 14 23  1  0  0  0  0
 14 25  2  0  0  0  0
 15 16  1  0  0  0  0
 15 20  1  0  0  0  0
 16 17  1  0  0  0  0
 16 21  1  0  0  0  0
 18 20  1  0  0  0  0
  1 27  1  0  0  0  0
  2 28  1  0  0  0  0
  3 29  1  0  0  0  0
  4 30  1  0  0  0  0
  5 31  1  0  0  0  0
  6 32  1  0  0  0  0
  7 33  1  0  0  0  0
 15 34  1  0  0  0  0
 15 35  1  0  0  0  0
 17 36  1  0  0  0  0
 17 37  1  0  0  0  0
 17 38  1  0  0  0  0
 18 39  1  0  0  0  0
 18 40  1  0  0  0  0
 18 41  1  0  0  0  0
 21 42  1  0  0  0  0
 22 43  1  0  0  0  0
 22 44  1  0  0  0  0
 23 45  1  0  0  0  0
M  CHG  1  21   1
M  END
> <OMEGA_C>
QLLTQDmq9r44erDBGmHRQBpyaD96067BRra6QFZRrb9BR6rBboGhPymeSMCo04bBzHIKQFg/K8Bs
i47BAjqcQHPWDz9r76DB6nIrQB3KosAwkITBprq0QIE5uj9aL6fBqGyfQATEU7//UKLBwxLDP5Rm
i8Cbw4HB4vtTQAPEXMBwDJHBopuoQNhIUkDJW47BSSTTQDpuWkBLbpPBmemIQHgxPMAs9pjBDL+H
QBiPXkCcWaDBnTyzQCyhPkCzH6XBShW5QOpGcEApx6/BOXkyQLe2WUCo4o/BWNJiQNZIlMBMEYzB
peKDQAANUEDDvZTBCnPXQGqnVUCf4J3BqSb3QP9yaUD3Lo3BsK2FQOY3zL+AqJvBy+elQKh3TUA/
lYTBFamlQHGXasAoR5zB/5/WPvbpnsALT3DBg8joQPAWYb8QirbBnKflQOKDyD88brPBEVi8QAXn
GsB5lqvBLevDPprXI8AQ0ITB31D+Pxpk3r9PlZLBvZqGQE+hdD/v+ZrBBSU4QJfpwMDzooDBj9uE
QCLQkUDP5KHBAxJbQJh4PECYZKTBdvW3QN+/mkAgM67BGi3YQEejX0AhV7PBkEKfQLbeXkApWbXB
QEABQEo4VkBkKZbBJAEoQJAfJkDbCorB7m0uQMMCjEAG0ovBYRj0QBvrYUC8GKHB7eQJQX1xcEAB
pZDB92z0QC5DbUAPOoXBE1NaQBLcjb8MTpjB

> <OMEGA_E>
AFsdPw==

> <OMEGA_NBR>
     23800

$$$$
50093311
  -OEChem-04172616093D

 42 44  0     1  0  0  0  0  0999 V2000
    7.1516   -0.5249  -21.2630 C   0  0  0  0  0  0  0  0  0  0  0  0
    6.8121    0.8331  -21.3904 C   0  0  0  0  0  0  0  0  0  0  0  0
    6.3687   -1.3762  -20.4673 C   0  0  0  0  0  0  0  0  0  0  0  0
    1.5069   -3.4692  -16.4213 C   0  0  0  0  0  0  0  0  0  0  0  0
    2.3286   -2.8741  -17.3899 C   0  0  0  0  0  0  0  0  0  0  0  0
    4.8964    0.4929  -19.9241 C   0  0  0  0  0  0  0  0  0  0  0  0
    2.7089   -5.5487  -16.7876 C   0  0  0  0  0  0  0  0  0  0  0  0
    5.6776    1.3641  -20.7241 C   0  0  0  0  0  0  0  0  0  0  0  0
    5.2240   -0.8718  -19.8054 C   0  0  0  0  0  0  0  0  0  0  0  0
    1.7042   -4.8246  -16.1135 C   0  0  0  0  0  0  0  0  0  0  0  0
    3.3214   -3.6543  -18.0364 C   0  0  0  0  0  0  0  0  0  0  0  0
    4.1975    3.7877  -18.8589 C   0  0  0  0  0  0  0  0  0  0  0  0
    4.2082   -3.0380  -19.0393 C   0  0  0  0  0  0  0  0  0  0  0  0
    5.5354    4.2417  -18.2912 C   0  0  0  0  0  0  0  0  0  0  0  0
    6.4979    3.7640  -20.4487 C   0  0  0  0  0  0  0  0  0  0  0  0
    5.3066    2.8597  -20.8797 C   0  0  1  0  0  0  0  0  0  0  0  0
    4.9095    3.1610  -22.3517 C   0  0  0  0  0  0  0  0  0  0  0  0
    3.4877   -4.9668  -17.7291 N   0  0  0  0  0  0  0  0  0  0  0  0
    4.1085    3.2157  -20.0430 N   0  3  0  0  0  0  0  0  0  0  0  0
    3.0388    4.0342  -18.1356 N   0  0  0  0  0  0  0  0  0  0  0  0
    4.4039   -1.6554  -18.9874 N   0  0  0  0  0  0  0  0  0  0  0  0
    4.7027   -3.7437  -19.9132 O   0  0  0  0  0  0  0  0  0  0  0  0
    6.6497    3.6772  -19.0183 O   0  0  0  0  0  0  0  0  0  0  0  0
    5.9483    2.9821  -23.2120 F   0  0  0  0  0  0  0  0  0  0  0  0
    0.7143   -5.6075  -14.9087 Cl  0  0  0  0  0  0  0  0  0  0  0  0
    8.0170   -0.9144  -21.7786 H   0  0  0  0  0  0  0  0  0  0  0  0
    7.4222    1.4803  -22.0030 H   0  0  0  0  0  0  0  0  0  0  0  0
    6.6400   -2.4160  -20.3602 H   0  0  0  0  0  0  0  0  0  0  0  0
    0.7386   -2.8967  -15.9229 H   0  0  0  0  0  0  0  0  0  0  0  0
    2.2066   -1.8308  -17.6413 H   0  0  0  0  0  0  0  0  0  0  0  0
    4.0371    0.8814  -19.3978 H   0  0  0  0  0  0  0  0  0  0  0  0
    2.8603   -6.5907  -16.5472 H   0  0  0  0  0  0  0  0  0  0  0  0
    5.5923    5.3387  -18.3491 H   0  0  0  0  0  0  0  0  0  0  0  0
    5.6008    3.9261  -17.2395 H   0  0  0  0  0  0  0  0  0  0  0  0
    7.4200    3.4207  -20.9404 H   0  0  0  0  0  0  0  0  0  0  0  0
    6.2948    4.8060  -20.7369 H   0  0  0  0  0  0  0  0  0  0  0  0
    4.0894    2.4880  -22.6420 H   0  0  0  0  0  0  0  0  0  0  0  0
    4.5690    4.2047  -22.4200 H   0  0  0  0  0  0  0  0  0  0  0  0
    3.1989    3.0080  -20.4031 H   0  0  0  0  0  0  0  0  0  0  0  0
    2.1492    3.7784  -18.5140 H   0  0  0  0  0  0  0  0  0  0  0  0
    3.0936    4.4677  -17.2361 H   0  0  0  0  0  0  0  0  0  0  0  0
    3.8953   -1.1665  -18.2787 H   0  0  0  0  0  0  0  0  0  0  0  0
  1  2  1  0  0  0  0
  1  3  2  0  0  0  0
  2  8  2  0  0  0  0
  3  9  1  0  0  0  0
  4  5  2  0  0  0  0
  4 10  1  0  0  0  0
  5 11  1  0  0  0  0
  6  8  1  0  0  0  0
  6  9  2  0  0  0  0
  7 10  2  0  0  0  0
  7 18  1  0  0  0  0
  8 16  1  0  0  0  0
  9 21  1  0  0  0  0
 10 25  1  0  0  0  0
 11 13  1  0  0  0  0
 11 18  2  0  0  0  0
 12 14  1  0  0  0  0
 12 19  2  0  0  0  0
 12 20  1  0  0  0  0
 13 21  1  0  0  0  0
 13 22  2  0  0  0  0
 14 23  1  0  0  0  0
 15 16  1  0  0  0  0
 15 23  1  0  0  0  0
 16 17  1  0  0  0  0
 16 19  1  0  0  0  0
 17 24  1  0  0  0  0
  1 26  1  0  0  0  0
  2 27  1  0  0  0  0
  3 28  1  0  0  0  0
  4 29  1  0  0  0  0
  5 30  1  0  0  0  0
  6 31  1  0  0  0  0
  7 32  1  0  0  0  0
 14 33  1  0  0  0  0
 14 34  1  0  0  0  0
 15 35  1  0  0  0  0
 15 36  1  0  0  0  0
 17 37  1  0  0  0  0
 17 38  1  0  0  0  0
 19 39  1  0  0  0  0
 20 40  1  0  0  0  0
 20 41  1  0  0  0  0
 21 42  1  0  0  0  0
M  CHG  1  19   1
M  END
> <OMEGA_C>
ENrkQLBfBr+3GqrBdvzZQPdHVT+YH6vBJMzLQCImsL/2vKPBheDAP6cGXsDVXoPBBQgVQHHwN8CG
HovBNK+cQJdf/D6iZJ/BdF4tQNKOscD3TIbBAK+1QPWZrj8Ey6XBtCqnQC0tX797cZ7BtCTaPxJj
msCK6IDBQZFUQHrgacB1SpDBqFGGQA5qckD13pbBhqmGQK1uQsBkUJjBUCKxQKW7h0BwVJLBjO7P
QOflcEAEl6PBks+pQIgFN0CWCafB/BqdQCVOSkA50LLB/DVfQCPwnsAz1Y3BeHiDQNfNTUAiWKDB
I3xCQIgYgUDAFZHBmuyMQG/k079A5pfBxHyWQKKYb8A9Tp/BTMrUQNtWa0B1JZjBQFi+QA7bPkAl
srnBlNw2P1Bws8ALim7Bg0UAQRoYar+jOq7B64LtQOB6vT8pBrDBfXrUQFagGsCd4aLBBxI9Pwhk
OcAFxH7BIDgNQN1Y6r9oIY3B3i+BQKukYT+ZLpvB+g43QKrm0sC4YITBdfSyQEXWqkAIy5LByTmz
QHBFe0B56onB7HDtQP/sWkD4hafB927JQO7KmUAb5aXBL9yCQJk6H0DgIrXBAjWSQDONhkAcXLPB
k7tMQGODQECdOaPBMo0JQLfRcUC+HJTBmP1FQEX3jkCK44nBTkx5QGpPlb/MOpLB

> <OMEGA_E>
3KEbPw==

> <OMEGA_NBR>
     24807

$$$$
267832
  -OEChem-04172616093D

 42 44  0     1  0  0  0  0  0999 V2000
    6.6062   -0.4881  -22.1072 C   0  0  0  0  0  0  0  0  0  0  0  0
    6.5109    0.9028  -21.9047 C   0  0  0  0  0  0  0  0  0  0  0  0
    5.8446   -1.3729  -21.3216 C   0  0  0  0  0  0  0  0  0  0  0  0
    1.2024   -3.0999  -16.9487 C   0  0  0  0  0  0  0  0  0  0  0  0
    2.1399   -2.6554  -17.8844 C   0  0  0  0  0  0  0  0  0  0  0  0
    4.8714    0.5276  -20.1517 C   0  0  0  0  0  0  0  0  0  0  0  0
    2.6227   -5.0321  -16.5622 C   0  0  0  0  0  0  0  0  0  0  0  0
    5.6212    1.4264  -20.9345 C   0  0  0  0  0  0  0  0  0  0  0  0
    4.9839   -0.8542  -20.3288 C   0  0  0  0  0  0  0  0  0  0  0  0
    1.4474   -4.3043  -16.2782 C   0  0  0  0  0  0  0  0  0  0  0  0
    3.3047   -3.4292  -18.1380 C   0  0  0  0  0  0  0  0  0  0  0  0
    4.1648    3.4620  -18.6644 C   0  0  0  0  0  0  0  0  0  0  0  0
    4.2928   -2.9435  -19.1183 C   0  0  0  0  0  0  0  0  0  0  0  0
    5.3921    3.5636  -17.7857 C   0  0  0  0  0  0  0  0  0  0  0  0
    6.8278    3.2413  -19.7016 C   0  0  0  0  0  0  0  0  0  0  0  0
    5.5866    2.9271  -20.6155 C   0  0  1  0  0  0  0  0  0  0  0  0
    5.6267    3.7471  -21.9320 C   0  0  0  0  0  0  0  0  0  0  0  0
    3.5219   -4.5945  -17.4761 N   0  0  0  0  0  0  0  0  0  0  0  0
    4.2840    3.2811  -19.9571 N   0  3  0  0  0  0  0  0  0  0  0  0
    2.8970    3.4926  -18.1061 N   0  0  0  0  0  0  0  0  0  0  0  0
    4.1781   -1.6155  -19.4981 N   0  0  0  0  0  0  0  0  0  0  0  0
    5.2098   -3.6659  -19.4946 O   0  0  0  0  0  0  0  0  0  0  0  0
    6.4906    4.0727  -18.5688 O   0  0  0  0  0  0  0  0  0  0  0  0
    5.5547    5.0768  -21.6655 F   0  0  0  0  0  0  0  0  0  0  0  0
    4.5684    3.4026  -22.7206 F   0  0  0  0  0  0  0  0  0  0  0  0
    0.3013   -4.8902  -15.1041 Cl  0  0  0  0  0  0  0  0  0  0  0  0
    7.2663   -0.8768  -22.8685 H   0  0  0  0  0  0  0  0  0  0  0  0
    7.1197    1.5739  -22.4924 H   0  0  0  0  0  0  0  0  0  0  0  0
    5.9175   -2.4393  -21.4762 H   0  0  0  0  0  0  0  0  0  0  0  0
    0.3091   -2.5274  -16.7471 H   0  0  0  0  0  0  0  0  0  0  0  0
    1.9800   -1.7273  -18.4131 H   0  0  0  0  0  0  0  0  0  0  0  0
    4.1972    0.9129  -19.4011 H   0  0  0  0  0  0  0  0  0  0  0  0
    2.8094   -5.9585  -16.0393 H   0  0  0  0  0  0  0  0  0  0  0  0
    5.1896    4.2462  -16.9472 H   0  0  0  0  0  0  0  0  0  0  0  0
    5.6486    2.5681  -17.3943 H   0  0  0  0  0  0  0  0  0  0  0  0
    7.2409    2.2918  -19.3305 H   0  0  0  0  0  0  0  0  0  0  0  0
    7.5869    3.7603  -20.3053 H   0  0  0  0  0  0  0  0  0  0  0  0
    6.5722    3.5118  -22.4425 H   0  0  0  0  0  0  0  0  0  0  0  0
    3.4712    3.3833  -20.5307 H   0  0  0  0  0  0  0  0  0  0  0  0
    2.0916    3.3777  -18.6876 H   0  0  0  0  0  0  0  0  0  0  0  0
    2.7874    3.6297  -17.1216 H   0  0  0  0  0  0  0  0  0  0  0  0
    3.3920   -1.1321  -19.1129 H   0  0  0  0  0  0  0  0  0  0  0  0
  1  2  1  0  0  0  0
  1  3  2  0  0  0  0
  2  8  2  0  0  0  0
  3  9  1  0  0  0  0
  4  5  2  0  0  0  0
  4 10  1  0  0  0  0
  5 11  1  0  0  0  0
  6  8  1  0  0  0  0
  6  9  2  0  0  0  0
  7 10  2  0  0  0  0
  7 18  1  0  0  0  0
  8 16  1  0  0  0  0
  9 21  1  0  0  0  0
 10 26  1  0  0  0  0
 11 13  1  0  0  0  0
 11 18  2  0  0  0  0
 12 14  1  0  0  0  0
 12 19  2  0  0  0  0
 12 20  1  0  0  0  0
 13 21  1  0  0  0  0
 13 22  2  0  0  0  0
 14 23  1  0  0  0  0
 15 16  1  0  0  0  0
 15 23  1  0  0  0  0
 16 17  1  0  0  0  0
 16 19  1  0  0  0  0
 17 24  1  0  0  0  0
 17 25  1  0  0  0  0
  1 27  1  0  0  0  0
  2 28  1  0  0  0  0
  3 29  1  0  0  0  0
  4 30  1  0  0  0  0
  5 31  1  0  0  0  0
  6 32  1  0  0  0  0
  7 33  1  0  0  0  0
 14 34  1  0  0  0  0
 14 35  1  0  0  0  0
 15 36  1  0  0  0  0
 15 37  1  0  0  0  0
 17 38  1  0  0  0  0
 19 39  1  0  0  0  0
 20 40  1  0  0  0  0
 20 41  1  0  0  0  0
 21 42  1  0  0  0  0
M  CHG  1  19   1
M  END
> <OMEGA_C>
sGXTQBnn+b6k27DBdlnQQJgeZz/DPK/Bvga7QI+8r7+LkqrBGeiZP15kRsDilofB7PMIQEzxKcBZ
E4/BI+KbQLoSBz+6NqHBuNknQPgGocBRf4TBhuCzQEaVtj/CeafBZnyfQCitWr9yoaLB7UO5P3C8
icDUOYLBan9TQN13W8CJGpHBy0WFQDORXUC+UJXB4F6JQNZhPMBF8pjB9ousQBwSZEAOSY7Btn3a
QD1yT0DKnJ3BNMWyQFxVO0CW7KTB6w20QKTQb0DBdK/BCmdhQC0Gk8Aiz4vBpxaJQNj8UUA0qJ/B
Emg5QHWHX0Az2ZDBA7OFQJ7Hzr8n/JvBYramQCueasD79JvB+7LPQPRTgkDfjJTB0b+xQE11okDo
Uq3BpDCSQD3EWUDGw7XBGEKaPp58nMCQqnHBSYXoQH92YL/C8rbB6dTjQAB0yT918LPB31u9QNYd
HMBOz6vBYDyePhrBIcAY+oXBXnH9P48W3b8GTpPBa0+GQEG0aT9nNZvBgMwzQLCrvsBzUIDBJhGm
QBXhh0Dgk4fBusG0QAhcJECCJ4vBfbXnQJ2sEkDHpJrBxsfyQGCpcEBBcaLB10/SQLPBYEAzirPB
4CheQPyHWEDRPqTBz9wFQF8sWEAlgJXB2GQyQARNaED6+IjBpBZZQCvokL8355jBcJTAQGAJ/b64
r7HB4RLHQAK1WD++067BDrqpQDeYrL/85KrBaL2ZPwrrc8DaUYfB/nMCQNIyS8CJvY7BL5KeQBHq
/T5/bZ7Bw0s9QIaIrsCzjITBwRS2QKp5rz9mIaXBakiZQPDbXL8qHKHBvcrVP8vfnsDAIoLBB4xU
QB7abcDi3ZDBNuCBQNNXcUALfJbBcZ+GQKFYQ8BNoJjBpoKaQCOAXkABQIzBaqHXQJUOO0DAMJfB
Vba8QM5iNkCCsqHBmBPUQEMebUCTV6rBqCFwQNzUmsAZzYvBmrGRQC0bX0CP/Z/BY8c0QM7PjECB
yZXBnTSCQE4K1r+7EJrBRkujQMrKbMB65pzB6re9QFR2JECCE47BHoC9QA2abUCLr7PBin/8QP1N
T0ChIqzBSeIqP7Q2ucCom3HB/DzNQCtuXr96JbnBaz/ZQETdvj8UELTBnKqkQLlGGMAjI63BHUtd
PiYCW8DJoIXBdLnaP1XxEcCvzJLBYXuQQPlPYD8DJpfBH1dUQGXcysBchoDB5iqnQOh4jUDBCInB
r4yEQBOhQUBKZYbBCbbyQE5TDkA9xpfByszjQJeXfEAYJ5bB2evVQAJfl0CLMKfBVRCAQE0rbUBn
bqbBtZYUQPk6lEC7cpzBwhEcQHDnk0Ckn47BZUpYQOedm7+0kJXBatHPQCz5676+xbHBPtrPQEfu
Zz/LFq/ByiO2QEFsrr/EAqzB5tB5P+c7esDrO4zB5h3rPxY6OsDGDpDBYKWdQBDM6z6BkKDBkaA7
QHDBosDviIXBJnW1QB1wsj8gtabBQc6dQOEiab9+P6PBizbEP++GoMCo74bBeKdOQP7xQcDNT47B
KKaDQMp3XUAv5ZTBkQyEQAZIAMDgppLBSwuoQLmWVUBV24zBgv/YQH3CTEBNvZvB7aS0QOuhOUDH
46PBM8O6QPbRcUCTF67B+QNwQE5Ng8BsH4nB7fCJQImCUUCMNJ/ByT82QMOrc0BzTpHBd2KEQPiv
6b/jt53BfOOdQK1Gub+fvozBDf3MQIVsK0C9apHBeli4QPk8o0A9nKvBPbCbQNC7X0DpZ7XBhOoA
P11hycBIIoLBY4zjQEVAUb93RLjBkCTkQEaEyz/5cbPBRxO1QFHPGcDQTq7BsQS9vWgldcBqV43B
51K4P8aYA8ASS5TBMUCLQOtdTT+tx5nBTfxWQPAevsAchIHBlmmxQMgHi0CtNYrBpdCcQHZQMEB8
8IXBVcr2QLv9LUD7ap7B9OvdQF4oiUDzKZvBFnbaQDTLYkDpbLHBMjBiQKuoWECrKqTBPjwGQHdp
ekBIh5bBJtorQGvufECAf4nB5ophQHWvGcBhDKLBozPOQOnGJb9F37DBA4LOQOIJOD8NNa7BoAG1
QCIRxr9D+KrBoByKPwGSdcCjbIXBlmL4P1sZNcDVIonBFy+dQCJ4jz5MeZ/BmAE1QLuErsASVYnB
QpS0QEUDmz/dwqXBp1udQKxFjL/xF6LBlvTDP5hepcAzhYXB8J9OQKKYS8CM1ozBvraEQJz8d0B7
6JXBFReDQG8OCcDbSpHBO2KrQDL8jkDhNJDBUZ3XQNDFP0AyqJrBEayzQL3hLUBA96LBjYi4QKt4
aUCL/6zB/HRpQEocj8CE7IzBYQWJQPtJREDfK57BvSE4QKjMhEDwBZLBsxSFQNHHAcAZZZzBwIaa
QLgTwL+WT4vBkQvSQMBcikDzbpbBd3aiQPCsSUAOhrXB4jbiQIRWdEB72q/B+xv+PqGSzsC++oDB
t13hQEe7gL9ud7fBoKriQLwwsz+BobLB/MezQIWoJcDzP63BjZy3PWoGZsA1joLBI6HPP10a5r8k
KYnBgiKLQBs3ID/rpJjBCTdLQMM+z8BpY4nBaIylQIk5sUA+x47BYKevQMQEfUDwgIjBfKPVQBzS
EEBcHpTBxQ33QKHTOkDtkJ7BQOaqQGfqk0Crv6rBklZdQEPIKkDBZqHBPdsEQNUqb0DefJXBf9Aw
QK9cmEA1wovBwBZnQKP7KsDaqqDBv1zBQLVvBr8DVrHBwaXGQOIaUz+pgq7BN8+qQF+4sr8xlarB
rrSPPy1sesBsCYjBSOf9P4NGUcAMQI/BpSWeQD3o4T4iIZ7Bzr84QAEDscA+uITBUnq1QND9qT8C
yaTBiGSZQKaYa7+53KDBI6zKPx3XocBkrYLBpgZSQN3ocsDNAJHBX6qFQFIIh0CsC5jBVS+GQBfN
R8BUipjByyqlQGXskEAZE4/BSQnUQBthNkCcc5bBXTm7QNlwM0AwT6HBuUDTQHZXakAK7KnBEBBt
QIscncDDxovBvnuPQGZ9WUAI7J/BSP85QBbNmEDGppfBMNOBQNO13r8P9pnBG22jQL3bcMBcoJzB
joXQQKpRhUD225HBZWP8QC5YT0B/MqvBfYXUQNIxn0AuFafBpT0NP/dfvMB9J3PBL7jOQCnKZL8w
vbjBzPPXQO5Tvj/kybPBvb6mQJykG8Dmz6zB3TIBPg5BYsB3oobBJIHUP7hyGMDcbpPBGcqPQLgt
UD8A25bBq2RPQAAezcBwkIDBgxKkQItus0BIXI3BUqSbQArkfUC65IfBF0fGQKUcB0Ax6ZDB0fT1
QKFLJ0BS25fBzqnBQAMHY0BSfbHBhXZxQABESkBGN6XBkQcPQLyfkUBrTZ3BAFsqQErIrEBrt5HB
Br1WQF/jpL/QjZXBnlLQQACe777/V7HB/qrPQKaEaD/s/q7BwZK3QIpbrr8ZQ6vBRUc7QLu4oMCW
eIPBx5d0QNuYgcDOTIfBgqqeQAaM+j5sKqDBdR+OP7h6bcDfBIvBF4O1QCLVtD8ZoabB8oSfQMAi
ZL8KhKLBAXnGPwAOm8BDVYXBoRhUQMrwO8AW/IzBmmuDQH04YUBmKpXBujSHQMur+L8qmpHBJU2o
QDCwXEDROY3BGYjYQHnyUUCqPJzBv++zQHBxO0CnLqTB0v+4QPRQcUB0na7B9fT9P0ifMsBqyI7B
lkWJQD/gUkCtcZ/B/8w1QDfwdkBfh5HBlOKGQJgx5r+0spzBkfKgQKNcrb+73YvBpGPNQIzGMkB+
v5HBUvO1QFE5o0C+c6zBzLWZQOBbXED8v7XBkGnJPjuGwMBVrIDBIt7jQERrVr+307fBXz7jQKEm
yz/OmbPB/AG3QJhWGsDoTK3BkGVSQCtrvMC4X37BNkKcQPTWhMCm64XBh3uMQCaOWD8HZZnBFhBa
PVqgZMB6ZozBUzOxQIwPj0B03IrBLcqdQDW/OEBMIYbBCXf2QF+hM0DF5Z7BadPcQEbki0D+8pvB
/qXYQPaYYkC8/7HBLjBgQATPV0DQV6TB9iIFQBqJe0BZsZbB+Q4sQCb/gEBkvonBPJ9mQLZkGcB6
1qDB

> <OMEGA_E>
YNiMPlakCj/oACE/rlgqP3hxKz+6dDA/

> <OMEGA_NBR>
     29570

$$$$
50249218
  -OEChem-04172616093D

 51 55  0     1  0  0  0  0  0999 V2000
    4.6276   -4.3492  -19.7304 C   0  0  0  0  0  0  0  0  0  0  0  0
    5.3328   -3.2872  -20.3062 C   0  0  0  0  0  0  0  0  0  0  0  0
    6.0647   -1.1575  -22.2878 C   0  0  0  0  0  0  0  0  0  0  0  0
    6.6334   -0.0772  -22.9633 C   0  0  0  0  0  0  0  0  0  0  0  0
    5.3250    0.3391  -20.5052 C   0  0  0  0  0  0  0  0  0  0  0  0
    3.2997   -4.1413  -19.3037 C   0  0  0  0  0  0  0  0  0  0  0  0
    5.3855   -0.9413  -21.0739 C   0  0  0  0  0  0  0  0  0  0  0  0
    4.6887   -2.0448  -20.4324 C   0  0  0  0  0  0  0  0  0  0  0  0
    5.8591    1.4344  -21.1908 C   0  0  0  0  0  0  0  0  0  0  0  0
    6.5227    1.2155  -22.4333 C   0  0  0  0  0  0  0  0  0  0  0  0
    3.3486   -1.8978  -19.9882 C   0  0  0  0  0  0  0  0  0  0  0  0
    6.4274    2.9311  -19.2385 C   0  0  0  0  0  0  0  0  0  0  0  0
    4.2039    3.3834  -18.9334 C   0  0  0  0  0  0  0  0  0  0  0  0
    7.6716    5.8967  -23.0092 C   0  0  0  0  0  0  0  0  0  0  0  0
    7.4981    4.4979  -23.6166 C   0  0  0  0  0  0  0  0  0  0  0  0
    6.5092    6.2125  -22.0400 C   0  0  0  0  0  0  0  0  0  0  0  0
    6.1040    3.8807  -21.6353 C   0  0  2  0  0  0  0  0  0  0  0  0
    5.6973    2.8211  -20.5852 C   0  0  1  0  0  0  0  0  0  0  0  0
    7.3231    3.4502  -22.5016 C   0  0  2  0  0  0  0  0  0  0  0  0
    8.6421    3.3140  -21.6877 C   0  0  0  0  0  0  0  0  0  0  0  0
    5.6408    3.2345  -16.8639 C   0  0  0  0  0  0  0  0  0  0  0  0
    2.6870   -2.9394  -19.4360 N   0  0  0  0  0  0  0  0  0  0  0  0
    5.4648    3.3324  -18.3231 N   0  0  0  0  0  0  0  0  0  0  0  0
    4.2964    3.0657  -20.2045 N   0  3  0  0  0  0  0  0  0  0  0  0
    3.0120    3.6863  -18.2909 N   0  0  0  0  0  0  0  0  0  0  0  0
    7.5405    2.5118  -18.9425 O   0  0  0  0  0  0  0  0  0  0  0  0
    7.0612    2.2243  -23.1851 O   0  0  0  0  0  0  0  0  0  0  0  0
    6.3521    5.1703  -21.0494 O   0  0  0  0  0  0  0  0  0  0  0  0
    2.6772   -0.7315  -20.1731 F   0  0  0  0  0  0  0  0  0  0  0  0
    5.0942   -5.3162  -19.6141 H   0  0  0  0  0  0  0  0  0  0  0  0
    6.3494   -3.4192  -20.6460 H   0  0  0  0  0  0  0  0  0  0  0  0
    6.1452   -2.1548  -22.6943 H   0  0  0  0  0  0  0  0  0  0  0  0
    7.1583   -0.2369  -23.8936 H   0  0  0  0  0  0  0  0  0  0  0  0
    4.8660    0.4792  -19.5376 H   0  0  0  0  0  0  0  0  0  0  0  0
    2.7562   -4.9620  -18.8593 H   0  0  0  0  0  0  0  0  0  0  0  0
    8.6233    5.9372  -22.4591 H   0  0  0  0  0  0  0  0  0  0  0  0
    7.6829    6.6435  -23.8168 H   0  0  0  0  0  0  0  0  0  0  0  0
    6.6089    4.4910  -24.2641 H   0  0  0  0  0  0  0  0  0  0  0  0
    8.3879    4.2482  -24.2131 H   0  0  0  0  0  0  0  0  0  0  0  0
    6.7176    7.1640  -21.5288 H   0  0  0  0  0  0  0  0  0  0  0  0
    5.5766    6.3024  -22.6163 H   0  0  0  0  0  0  0  0  0  0  0  0
    5.2525    3.9818  -22.3244 H   0  0  0  0  0  0  0  0  0  0  0  0
    8.5081    2.5642  -20.8941 H   0  0  0  0  0  0  0  0  0  0  0  0
    9.4551    2.9974  -22.3575 H   0  0  0  0  0  0  0  0  0  0  0  0
    8.8959    4.2843  -21.2360 H   0  0  0  0  0  0  0  0  0  0  0  0
    4.7407    3.6152  -16.3591 H   0  0  0  0  0  0  0  0  0  0  0  0
    5.8011    2.1829  -16.5838 H   0  0  0  0  0  0  0  0  0  0  0  0
    6.5125    3.8321  -16.5589 H   0  0  0  0  0  0  0  0  0  0  0  0
    3.5191    2.9988  -20.8301 H   0  0  0  0  0  0  0  0  0  0  0  0
    2.1515    3.6704  -18.8001 H   0  0  0  0  0  0  0  0  0  0  0  0
    3.0135    3.9204  -17.3187 H   0  0  0  0  0  0  0  0  0  0  0  0
  1  2  2  0  0  0  0
  1  6  1  0  0  0  0
  2  8  1  0  0  0  0
  3  4  2  0  0  0  0
  3  7  1  0  0  0  0
  4 10  1  0  0  0  0
  5  7  2  0  0  0  0
  5  9  1  0  0  0  0
  6 22  2  0  0  0  0
  7  8  1  0  0  0  0
  8 11  2  0  0  0  0
  9 10  2  0  0  0  0
  9 18  1  0  0  0  0
 10 27  1  0  0  0  0
 11 22  1  0  0  0  0
 11 29  1  0  0  0  0
 12 18  1  0  0  0  0
 12 23  1  0  0  0  0
 12 26  2  0  0  0  0
 13 23  1  0  0  0  0
 13 24  2  0  0  0  0
 13 25  1  0  0  0  0
 14 15  1  0  0  0  0
 14 16  1  0  0  0  0
 15 19  1  0  0  0  0
 16 28  1  0  0  0  0
 17 18  1  0  0  0  0
 17 19  1  0  0  0  0
 17 28  1  0  0  0  0
 18 24  1  0  0  0  0
 19 20  1  0  0  0  0
 19 27  1  0  0  0  0
 21 23  1  0  0  0  0
  1 30  1  0  0  0  0
  2 31  1  0  0  0  0
  3 32  1  0  0  0  0
  4 33  1  0  0  0  0
  5 34  1  0  0  0  0
  6 35  1  0  0  0  0
 14 36  1  0  0  0  0
 14 37  1  0  0  0  0
 15 38  1  0  0  0  0
 15 39  1  0  0  0  0
 16 40  1  0  0  0  0
 16 41  1  0  0  0  0
 17 42  1  0  0  0  0
 20 43  1  0  0  0  0
 20 44  1  0  0  0  0
 20 45  1  0  0  0  0
 21 46  1  0  0  0  0
 21 47  1  0  0  0  0
 21 48  1  0  0  0  0
 24 49  1  0  0  0  0
 25 50  1  0  0  0  0
 25 51  1  0  0  0  0
M  CHG  1  24   1
M  END
> <OMEGA_C>
GBWUQMQsi8DP153BkqaqQPJgUsAJc6LB6hHCQAQplL9bTbLB8ETUQCgOnr3utLfBmmaqQBqgrT6P
CqTB3C5TQMyFhMDqbZrBQ1asQCX4cL9nl6jBLgqWQMPdAsCFdaPBan27QLCZtz/GhqnBMLrQQO6V
mz9Xd7PB6E9WQDDs8r/D55/BHK3NQFaWO0Bh6JnBcIaGQFyKWECxd5fBsn31QMyxvEDuErjBSPDv
QA3vj0Dg7rzBpUvQQJDMxkDUUbDBq1PDQCpdeEAlFa3BfVC2QBaMNECUrqTBvlbqQO7PXEBMA7TB
7UUKQYgYVEBbgK3BvIG0QCYCT0A66YbBavcrQPAfPMACfZvBAuCuQKJGVUCglZLB73uJQLwzREDj
oqHBhsRAQLjra0DXU5LBKkzxQL3BIEApipfBIPXhQI9aDkApe7nBAETLQLJypUAXZajBNlcrQNtD
O7+HYqHBvAOjQKIeqsCw6ZzBjy7LQLHTWsAOK6XBXKXEQOroCcDZjbXBrhDlQDufcr4bJr/BL7ab
QAhU9T4aTZzBNmUwQLTInsDh35bB1vgJQdL9vUAlrLPBBdr1QGGX1EDfiL7B1nvTQHm2j0DyHMLB
/jQGQR3xh0B1tMHBSPbWQCU/5UAAO6zB23OyQC6tyUA17rTB2xSoQGnWfkBrmLLBACEIQWobJEAP
J6fBL0gXQarVP0A/3LLBu1UOQV0ZiUBm46nBqLOXQBRfZ0Bt34LBrqK5QM20C0CSq4TBgWbQQL5B
dUCdeITBTThhQEvsP0ABpKbBi7EJQAToakCTZpbBFt1AQCnnekDAjIrB1YM1QAUhTcC1sZrBueVX
QIwVBsAwDqDBJqK9QATulb+w27LBqH3PQPxZoL2mTrjBYJOoQF33mz4FOqTBYelqQB3GicDBZJjB
Zi6qQPphe7+2zKjB9laXQPb6B8DTFaPBOMi6QGSctD/ylanBN7POQNm8mj/9u7PBh22wQGukUMDx
gKDBS4rNQPFxN0CHh5nBwFWGQGg4V0DmcZfBE/f9QMfpvEBnabbBpBH2QOFXkUCC+rvBAIvZQLNJ
x0AMcq7Bx6fHQCH5eEAeeKzBEXi3QJJqM0AEgKTBcKPtQKCWWkC5qbPBLekLQdrkR0BSaa3BiJe0
QISAWEAgu4bBhU+fQL8nisCPPpvBcX2uQLEaVEA0apLBT26KQGkZRkCytKHBtzo/QEkRakBMfJLB
iYjyQCUEJUAhO5fBLHLhQEjHDkAMj7nBZcTSQIUMpEDhH6fBhKLaQKdVUsBP/KLB/vHlPw3eTcDF
W5jB448wQMwRnr+X0qHBnMy+QKYQCsBmX7bBE/PdQAS0Zr7vEMDB2kyZQJyc5D5cj5zBLnhQQKwX
pcC9QpTBc0EOQUyUu0AtDbLBwnz/QHU61kCqg7zBBRbaQEQwlED8RMHBFjUJQVzsiECnwMDBYCDi
QJkQ5EC62qnBEdu7QPA+zUDc7rLBo9WsQPdCg0As6bHBwAsJQbbtFEAVg6fBrGUYQQBHM0BvDbPB
8ioRQWIngUAeQ6nBQ0+XQLpHcUCK9ILB2n67QL0eGEAFnoPB6ojPQIKwgUD05oTB/29kQFbERUC6
76bB8isJQOMxa0AIxJbBSp49QBZ9dkDmo4rB

> <OMEGA_E>
NMBBPySMRj8=

> <OMEGA_NBR>
      2024

$$$$
50225042
  -OEChem-04172616093D

 46 49  0     1  0  0  0  0  0999 V2000
    6.1000   -1.1544  -22.2073 C   0  0  0  0  0  0  0  0  0  0  0  0
    6.6450   -0.0760  -22.9157 C   0  0  0  0  0  0  0  0  0  0  0  0
    5.2956    0.3783  -20.4979 C   0  0  0  0  0  0  0  0  0  0  0  0
    4.4163   -1.8883  -18.8830 C   0  0  0  0  0  0  0  0  0  0  0  0
    4.6769   -3.3352  -20.8175 C   0  0  0  0  0  0  0  0  0  0  0  0
    3.7344   -4.2104  -18.8590 C   0  0  0  0  0  0  0  0  0  0  0  0
    5.4124   -0.9347  -20.9897 C   0  0  0  0  0  0  0  0  0  0  0  0
    4.8324   -2.0588  -20.2239 C   0  0  0  0  0  0  0  0  0  0  0  0
    5.8777    1.4547  -21.1763 C   0  0  0  0  0  0  0  0  0  0  0  0
    6.5255    1.2286  -22.4150 C   0  0  0  0  0  0  0  0  0  0  0  0
    3.8501   -2.9694  -18.2044 C   0  0  0  0  0  0  0  0  0  0  0  0
    6.4305    2.7870  -19.1501 C   0  0  0  0  0  0  0  0  0  0  0  0
    4.2068    3.3081  -18.9729 C   0  0  0  0  0  0  0  0  0  0  0  0
    6.5277    3.8952  -21.4171 C   0  0  0  0  0  0  0  0  0  0  0  0
    5.8162    2.8351  -20.5385 C   0  0  1  0  0  0  0  0  0  0  0  0
    6.4472    3.5562  -22.9302 C   0  0  0  0  0  0  0  0  0  0  0  0
    7.3024    4.5643  -23.7135 C   0  0  0  0  0  0  0  0  0  0  0  0
    4.9880    3.6075  -23.4685 C   0  0  0  0  0  0  0  0  0  0  0  0
    5.5402    3.1522  -16.8172 C   0  0  0  0  0  0  0  0  0  0  0  0
    4.1475   -4.3756  -20.1373 N   0  0  0  0  0  0  0  0  0  0  0  0
    5.3828    3.0029  -18.2711 N   0  0  0  0  0  0  0  0  0  0  0  0
    4.4198    3.2245  -20.2686 N   0  3  0  0  0  0  0  0  0  0  0  0
    2.9878    3.6306  -18.3935 N   0  0  0  0  0  0  0  0  0  0  0  0
    7.5811    2.4715  -18.8666 O   0  0  0  0  0  0  0  0  0  0  0  0
    7.0246    2.2561  -23.1773 O   0  0  0  0  0  0  0  0  0  0  0  0
    3.2956   -2.7679  -16.5610 Cl  0  0  0  0  0  0  0  0  0  0  0  0
    6.2049   -2.1582  -22.5918 H   0  0  0  0  0  0  0  0  0  0  0  0
    7.1585   -0.2495  -23.8499 H   0  0  0  0  0  0  0  0  0  0  0  0
    4.7491    0.5579  -19.5838 H   0  0  0  0  0  0  0  0  0  0  0  0
    4.5348   -0.9345  -18.3904 H   0  0  0  0  0  0  0  0  0  0  0  0
    4.9897   -3.4808  -21.8410 H   0  0  0  0  0  0  0  0  0  0  0  0
    3.3067   -5.0489  -18.3296 H   0  0  0  0  0  0  0  0  0  0  0  0
    6.0517    4.8724  -21.2477 H   0  0  0  0  0  0  0  0  0  0  0  0
    7.5861    3.9468  -21.1220 H   0  0  0  0  0  0  0  0  0  0  0  0
    7.2518    4.3323  -24.7876 H   0  0  0  0  0  0  0  0  0  0  0  0
    6.9211    5.5814  -23.5399 H   0  0  0  0  0  0  0  0  0  0  0  0
    8.3467    4.5012  -23.3737 H   0  0  0  0  0  0  0  0  0  0  0  0
    4.9833    3.3610  -24.5405 H   0  0  0  0  0  0  0  0  0  0  0  0
    4.3700    2.8797  -22.9223 H   0  0  0  0  0  0  0  0  0  0  0  0
    4.5790    4.6182  -23.3230 H   0  0  0  0  0  0  0  0  0  0  0  0
    4.5547    3.3135  -16.3558 H   0  0  0  0  0  0  0  0  0  0  0  0
    5.9945    2.2405  -16.4022 H   0  0  0  0  0  0  0  0  0  0  0  0
    6.1895    4.0145  -16.6055 H   0  0  0  0  0  0  0  0  0  0  0  0
    3.7310    3.4004  -20.9719 H   0  0  0  0  0  0  0  0  0  0  0  0
    2.1938    3.8189  -18.9714 H   0  0  0  0  0  0  0  0  0  0  0  0
    2.9035    3.6747  -17.3980 H   0  0  0  0  0  0  0  0  0  0  0  0
  1  2  2  0  0  0  0
  1  7  1  0  0  0  0
  2 10  1  0  0  0  0
  3  7  2  0  0  0  0
  3  9  1  0  0  0  0
  4  8  1  0  0  0  0
  4 11  2  0  0  0  0
  5  8  2  0  0  0  0
  5 20  1  0  0  0  0
  6 11  1  0  0  0  0
  6 20  2  0  0  0  0
  7  8  1  0  0  0  0
  9 10  2  0  0  0  0
  9 15  1  0  0  0  0
 10 25  1  0  0  0  0
 11 26  1  0  0  0  0
 12 15  1  0  0  0  0
 12 21  1  0  0  0  0
 12 24  2  0  0  0  0
 13 21  1  0  0  0  0
 13 22  2  0  0  0  0
 13 23  1  0  0  0  0
 14 15  1  0  0  0  0
 14 16  1  0  0  0  0
 15 22  1  0  0  0  0
 16 17  1  0  0  0  0
 16 18  1  0  0  0  0
 16 25  1  0  0  0  0
 19 21  1  0  0  0  0
  1 27  1  0  0  0  0
  2 28  1  0  0  0  0
  3 29  1  0  0  0  0
  4 30  1  0  0  0  0
  5 31  1  0  0  0  0
  6 32  1  0  0  0  0
 14 33  1  0  0  0  0
 14 34  1  0  0  0  0
 17 35  1  0  0  0  0
 17 36  1  0  0  0  0
 17 37  1  0  0  0  0
 18 38  1  0  0  0  0
 18 39  1  0  0  0  0
 18 40  1  0  0  0  0
 19 41  1  0  0  0  0
 19 42  1  0  0  0  0
 19 43  1  0  0  0  0
 22 44  1  0  0  0  0
 23 45  1  0  0  0  0
 23 46  1  0  0  0  0
M  CHG  1  22   1
M  END
> <OMEGA_C>
+DLDQATDk797qLHB9aPUQLCNm710U7fBvHWpQL6xwT6f+6PB+VGNQNCz8b9PEJfBAamVQIR0VcBT
iqbB4ABvQDG7hsA135bBLDKtQJBFb7/s6qfBIqOaQDDEA8CRyqHBDBa8QAIzuj8paanBzNDQQOhB
nT/zUbPB32d2QCQKPsCWopHB8sbNQOhdMkBpM5nB6p2GQES4U0B2yJfB5OLQQKhLeUBRVqvBUR66
QJtyNUDITqTBTE/OQJqYY0AIcbfBVa3pQKYOkkBMtb3B6Z2fQAjhZkCQv7vBC0mxQGK+SUCqiYbB
i7iEQOQEjMA4GaHBhj+sQMgvQEBPK5LB2G6NQHdeTkAPJqLB0Dg/QB5caEDZJZPBX5jyQBYtHkDK
7pbBx8ngQGJjEEAla7nB5+pSQKolMcDWfITBIo7GQEYfCsD0u7TBwxLlQDJ2f76IzL7Bd/iXQGvQ
Dj+wq5zBPh2RQE88b7+BH5PBaKufQMfEXsBIuq7BFaFTQKKQocD3opLB56fBQGXqm0BS+6nBSsHy
QLiYfEDI+ajBFQ/oQDGiikD9TMbBBXrdQLKaskCoUbzBBowFQYUJkEBG/brBBHefQDcaV0ALU8TB
NteLQFxMOEDuYLfB8oaSQCDIk0CQlbrBK8CRQOUPVEC+2ILBo9K/QMdjD0ChN4PBdxDGQPl2gEAK
2ITBY8luQKqgWUCCxqfBnmYMQDRpdEBpxZfB0NI5QNwua0AmL4vB

> <OMEGA_E>
YNftPg==

> <OMEGA_NBR>
      3098

$$$$
50249262
  -OEChem-04172616093D

 48 52  0     1  0  0  0  0  0999 V2000
    4.4103   -4.4141  -20.0023 C   0  0  0  0  0  0  0  0  0  0  0  0
    5.1210   -3.3490  -20.5646 C   0  0  0  0  0  0  0  0  0  0  0  0
    6.0051   -1.1455  -22.3241 C   0  0  0  0  0  0  0  0  0  0  0  0
    6.6353   -0.0724  -22.9567 C   0  0  0  0  0  0  0  0  0  0  0  0
    5.2677    0.3367  -20.5350 C   0  0  0  0  0  0  0  0  0  0  0  0
    3.1720   -4.1616  -19.3810 C   0  0  0  0  0  0  0  0  0  0  0  0
    5.2957   -0.9391  -21.1221 C   0  0  0  0  0  0  0  0  0  0  0  0
    4.5716   -2.0539  -20.4996 C   0  0  0  0  0  0  0  0  0  0  0  0
    5.8391    1.4312  -21.1955 C   0  0  0  0  0  0  0  0  0  0  0  0
    6.5408    1.2148  -22.4130 C   0  0  0  0  0  0  0  0  0  0  0  0
    3.3071   -1.8693  -19.8701 C   0  0  0  0  0  0  0  0  0  0  0  0
    6.4137    2.8739  -19.2324 C   0  0  0  0  0  0  0  0  0  0  0  0
    4.1883    3.3425  -18.9224 C   0  0  0  0  0  0  0  0  0  0  0  0
    7.5629    4.5037  -23.5448 C   0  0  0  0  0  0  0  0  0  0  0  0
    7.8470    5.8445  -22.8634 C   0  0  0  0  0  0  0  0  0  0  0  0
    6.4970    5.2322  -20.9365 C   0  0  0  0  0  0  0  0  0  0  0  0
    6.1209    3.8933  -21.6009 C   0  0  1  0  0  0  0  0  0  0  0  0
    7.3233    3.4485  -22.4613 C   0  0  1  0  0  0  0  0  0  0  0  0
    5.6880    2.8113  -20.5771 C   0  0  1  0  0  0  0  0  0  0  0  0
    5.6006    3.0720  -16.8432 C   0  0  0  0  0  0  0  0  0  0  0  0
    2.6457   -2.9150  -19.3231 N   0  0  0  0  0  0  0  0  0  0  0  0
    5.4387    3.2130  -18.2999 N   0  0  0  0  0  0  0  0  0  0  0  0
    4.2860    3.0622  -20.2014 N   0  3  0  0  0  0  0  0  0  0  0  0
    3.0054    3.7016  -18.2921 N   0  0  0  0  0  0  0  0  0  0  0  0
    7.5751    2.5573  -18.9998 O   0  0  0  0  0  0  0  0  0  0  0  0
    7.0974    2.2224  -23.1470 O   0  0  0  0  0  0  0  0  0  0  0  0
    6.7627    6.2023  -21.9728 O   0  0  0  0  0  0  0  0  0  0  0  0
    2.6887   -0.6606  -19.8651 F   0  0  0  0  0  0  0  0  0  0  0  0
    4.8063   -5.4180  -20.0440 H   0  0  0  0  0  0  0  0  0  0  0  0
    6.0756   -3.5169  -21.0410 H   0  0  0  0  0  0  0  0  0  0  0  0
    6.0607   -2.1342  -22.7550 H   0  0  0  0  0  0  0  0  0  0  0  0
    7.1957   -0.2348  -23.8655 H   0  0  0  0  0  0  0  0  0  0  0  0
    4.8034    0.4741  -19.5696 H   0  0  0  0  0  0  0  0  0  0  0  0
    2.6280   -4.9833  -18.9392 H   0  0  0  0  0  0  0  0  0  0  0  0
    6.6694    4.5925  -24.1801 H   0  0  0  0  0  0  0  0  0  0  0  0
    8.4248    4.2118  -24.1628 H   0  0  0  0  0  0  0  0  0  0  0  0
    8.7793    5.7659  -22.2849 H   0  0  0  0  0  0  0  0  0  0  0  0
    7.9566    6.6245  -23.6313 H   0  0  0  0  0  0  0  0  0  0  0  0
    5.6645    5.5805  -20.3075 H   0  0  0  0  0  0  0  0  0  0  0  0
    7.3949    5.0982  -20.3153 H   0  0  0  0  0  0  0  0  0  0  0  0
    5.2719    4.0768  -22.2758 H   0  0  0  0  0  0  0  0  0  0  0  0
    8.2155    3.3780  -21.8217 H   0  0  0  0  0  0  0  0  0  0  0  0
    4.6842    3.4102  -16.3375 H   0  0  0  0  0  0  0  0  0  0  0  0
    5.7876    2.0166  -16.5957 H   0  0  0  0  0  0  0  0  0  0  0  0
    6.4512    3.6835  -16.5080 H   0  0  0  0  0  0  0  0  0  0  0  0
    3.5131    3.0243  -20.8348 H   0  0  0  0  0  0  0  0  0  0  0  0
    2.1565    3.7595  -18.8174 H   0  0  0  0  0  0  0  0  0  0  0  0
    3.0018    3.9024  -17.3124 H   0  0  0  0  0  0  0  0  0  0  0  0
  1  2  2  0  0  0  0
  1  6  1  0  0  0  0
  2  8  1  0  0  0  0
  3  4  2  0  0  0  0
  3  7  1  0  0  0  0
  4 10  1  0  0  0  0
  5  7  2  0  0  0  0
  5  9  1  0  0  0  0
  6 21  2  0  0  0  0
  7  8  1  0  0  0  0
  8 11  2  0  0  0  0
  9 10  2  0  0  0  0
  9 19  1  0  0  0  0
 10 26  1  0  0  0  0
 11 21  1  0  0  0  0
 11 28  1  0  0  0  0
 12 19  1  0  0  0  0
 12 22  1  0  0  0  0
 12 25  2  0  0  0  0
 13 22  1  0  0  0  0
 13 23  2  0  0  0  0
 13 24  1  0  0  0  0
 14 15  1  0  0  0  0
 14 18  1  0  0  0  0
 15 27  1  0  0  0  0
 16 17  1  0  0  0  0
 16 27  1  0  0  0  0
 17 18  1  0  0  0  0
 17 19  1  0  0  0  0
 18 26  1  0  0  0  0
 19 23  1  0  0  0  0
 20 22  1  0  0  0  0
  1 29  1  0  0  0  0
  2 30  1  0  0  0  0
  3 31  1  0  0  0  0
  4 32  1  0  0  0  0
  5 33  1  0  0  0  0
  6 34  1  0  0  0  0
 14 35  1  0  0  0  0
 14 36  1  0  0  0  0
 15 37  1  0  0  0  0
 15 38  1  0  0  0  0
 16 39  1  0  0  0  0
 16 40  1  0  0  0  0
 17 41  1  0  0  0  0
 18 42  1  0  0  0  0
 20 43  1  0  0  0  0
 20 44  1  0  0  0  0
 20 45  1  0  0  0  0
 23 46  1  0  0  0  0
 24 47  1  0  0  0  0
 24 48  1  0  0  0  0
M  CHG  1  23   1
M  END
> <OMEGA_C>
NCGNQChAjcC1BKDBaN+jQGZWVsBUhKTB2inAQHWekr+2l7LBUFTUQOAvlL1ap7fBQpGoQMxkrD6a
R6TB2wJLQKIrhcBEDJvBQnapQEZocL8J+qjBXkqSQNlyA8Aj/6PBkNm6QCExtz94kKnBfk7RQFF/
mz/NTbPB7aZTQJBE778E9p7BEj3NQJLtN0Dp25nBsAaGQBDsVUAOYZfBYgPyQLUekEC0W7zBuBr7
QIsGu0A56LbBsOfPQPBtp0ALfqfBuN7DQPAreUC3zqzB2ljqQDi0XEDWsLPBaAS2QLjrM0DhnaTB
xDezQASbREDovobB31MpQNuPOsDHlZrB6AmuQFSiTUAwZpLB3iaJQJz7Q0BpnKHBoVhAQKDmbEAk
VpLBnmfyQKyqI0CB/5fBlh3jQDQ8DkANLbnBRGjYQNZ4xkBHyK/BVxQsQEQbKb+t657B08yZQGFg
rcAqWqDBomvCQEwVYcDnU6jB7vDBQNWWCMA/CrbBS0PmQP9ycL6Y7L7BtLWZQHq58j6CjpzB4jAo
QPp2n8Brg5fBamvVQP/1kkDtcMHBy8sGQfTGhkB5TcHBBXgMQZmCuEB3R7LBypz+QMz700DkDL3B
30O1QB6TskDZdaLB0qLsQNUko0C9haLBGrOoQIJ1gkDBNLLBj3IDQbswWEDYkq7BkeSVQF5BWkAq
s4LBojO5QB4QAUD/w4TBoXDOQES+a0BqEITBrdZgQGqNQUCdrabBPwQKQKKbcEAZipbBIx5AQO7A
eUDhf4rB

> <OMEGA_E>
8CpCPw==

> <OMEGA_NBR>
     10863

$$$$
50156407
  -OEChem-04172616093D

 89 93  0     1  0  0  0  0  0999 V2000
    6.0685    1.7768  -17.2836 C   0  0  0  0  0  0  0  0  0  0  0  0
    8.0855    2.9715  -16.6012 C   0  0  0  0  0  0  0  0  0  0  0  0
    6.6739    0.5548  -16.9320 C   0  0  0  0  0  0  0  0  0  0  0  0
    8.6861    1.7559  -16.2445 C   0  0  0  0  0  0  0  0  0  0  0  0
    6.7735    2.9888  -17.1096 C   0  0  0  0  0  0  0  0  0  0  0  0
    7.9896    0.5424  -16.3985 C   0  0  0  0  0  0  0  0  0  0  0  0
    6.7806    4.4541  -19.8854 C   0  0  0  0  0  0  0  0  0  0  0  0
    6.8597   -2.3381  -15.3122 C   0  0  0  0  0  0  0  0  0  0  0  0
    4.5488    4.1841  -19.4210 C   0  0  0  0  0  0  0  0  0  0  0  0
    6.0217   -1.1432  -21.4540 C   0  0  0  0  0  0  0  0  0  0  0  0
    6.8049   10.9728  -22.3789 C   0  0  0  0  0  0  0  0  0  0  0  0
    5.1052   -0.2280  -20.6283 C   0  0  0  0  0  0  0  0  0  0  0  0
    7.4342   -0.5458  -21.5517 C   0  0  0  0  0  0  0  0  0  0  0  0
    5.4219   10.7046  -21.7599 C   0  0  0  0  0  0  0  0  0  0  0  0
    7.2117    9.8358  -23.3330 C   0  0  0  0  0  0  0  0  0  0  0  0
    5.0426    1.1762  -21.2370 C   0  0  0  0  0  0  0  0  0  0  0  0
    7.3901    0.8678  -22.1523 C   0  0  0  0  0  0  0  0  0  0  0  0
    5.4093    9.3597  -21.0247 C   0  0  0  0  0  0  0  0  0  0  0  0
    7.2006    8.4797  -22.6118 C   0  0  0  0  0  0  0  0  0  0  0  0
    7.8569   -2.6840  -17.3822 C   0  0  0  0  0  0  0  0  0  0  0  0
    6.4622    1.8003  -21.3399 C   0  0  0  0  0  0  0  0  0  0  0  0
    5.8157    8.2078  -21.9694 C   0  0  0  0  0  0  0  0  0  0  0  0
    6.9930   -3.8931  -17.0469 C   0  0  2  0  0  0  0  0  0  0  0  0
    5.9915    4.3773  -21.1764 C   0  0  2  0  0  0  0  0  0  0  0  0
    3.7369   -3.4958  -19.1936 C   0  0  0  0  0  0  0  0  0  0  0  0
    6.1345    4.3153  -17.4509 C   0  0  0  0  0  0  0  0  0  0  0  0
    8.6993   -0.7266  -15.9523 C   0  0  0  0  0  0  0  0  0  0  0  0
    6.4451    3.1823  -22.0545 C   0  0  0  0  0  0  0  0  0  0  0  0
    5.8263    6.9232  -21.1377 C   0  0  0  0  0  0  0  0  0  0  0  0
    5.9097   -4.1780  -18.1126 C   0  0  0  0  0  0  0  0  0  0  0  0
    6.1413    5.6770  -21.9941 C   0  0  0  0  0  0  0  0  0  0  0  0
    4.8238   -3.0770  -18.1991 C   0  0  0  0  0  0  0  0  0  0  0  0
    6.3820   -3.5601  -15.7627 N   0  0  0  0  0  0  0  0  0  0  0  0
    5.8271    4.3893  -18.8816 N   0  0  0  0  0  0  0  0  0  0  0  0
    7.9271   -1.9564  -16.1248 N   0  0  0  0  0  0  0  0  0  0  0  0
    4.6004    4.2419  -20.7320 N   0  3  0  0  0  0  0  0  0  0  0  0
    3.3913    3.9477  -18.6947 N   0  0  0  0  0  0  0  0  0  0  0  0
    7.9942    4.5834  -19.7655 O   0  0  0  0  0  0  0  0  0  0  0  0
    6.4510   -1.7499  -14.3184 O   0  0  0  0  0  0  0  0  0  0  0  0
    5.0663    1.7874  -17.6858 H   0  0  0  0  0  0  0  0  0  0  0  0
    8.6308    3.8964  -16.4856 H   0  0  0  0  0  0  0  0  0  0  0  0
    6.1375   -0.3727  -17.0681 H   0  0  0  0  0  0  0  0  0  0  0  0
    9.6909    1.7505  -15.8485 H   0  0  0  0  0  0  0  0  0  0  0  0
    6.0786   -2.1296  -20.9705 H   0  0  0  0  0  0  0  0  0  0  0  0
    5.6051   -1.2544  -22.4660 H   0  0  0  0  0  0  0  0  0  0  0  0
    6.7708   11.9184  -22.9400 H   0  0  0  0  0  0  0  0  0  0  0  0
    7.5504   11.0509  -21.5738 H   0  0  0  0  0  0  0  0  0  0  0  0
    4.0925   -0.6569  -20.6073 H   0  0  0  0  0  0  0  0  0  0  0  0
    5.4955   -0.1587  -19.6022 H   0  0  0  0  0  0  0  0  0  0  0  0
    7.8748   -0.4961  -20.5450 H   0  0  0  0  0  0  0  0  0  0  0  0
    8.0545   -1.1902  -22.1920 H   0  0  0  0  0  0  0  0  0  0  0  0
    5.1832   11.5079  -21.0474 H   0  0  0  0  0  0  0  0  0  0  0  0
    4.6660   10.6865  -22.5589 H   0  0  0  0  0  0  0  0  0  0  0  0
    6.5034    9.8015  -24.1739 H   0  0  0  0  0  0  0  0  0  0  0  0
    8.2246   10.0317  -23.7146 H   0  0  0  0  0  0  0  0  0  0  0  0
    4.6031    1.1132  -22.2434 H   0  0  0  0  0  0  0  0  0  0  0  0
    4.4130    1.8163  -20.6014 H   0  0  0  0  0  0  0  0  0  0  0  0
    8.4068    1.2877  -22.1530 H   0  0  0  0  0  0  0  0  0  0  0  0
    7.0184    0.8056  -23.1857 H   0  0  0  0  0  0  0  0  0  0  0  0
    6.1178    9.4026  -20.1844 H   0  0  0  0  0  0  0  0  0  0  0  0
    4.3962    9.1694  -20.6408 H   0  0  0  0  0  0  0  0  0  0  0  0
    7.4239    7.6837  -23.3374 H   0  0  0  0  0  0  0  0  0  0  0  0
    7.9687    8.4840  -21.8243 H   0  0  0  0  0  0  0  0  0  0  0  0
    8.8588   -2.9962  -17.7120 H   0  0  0  0  0  0  0  0  0  0  0  0
    7.3876   -2.0707  -18.1655 H   0  0  0  0  0  0  0  0  0  0  0  0
    6.8734    1.9254  -20.3274 H   0  0  0  0  0  0  0  0  0  0  0  0
    5.0639    8.1161  -22.7671 H   0  0  0  0  0  0  0  0  0  0  0  0
    7.6347   -4.7805  -16.9425 H   0  0  0  0  0  0  0  0  0  0  0  0
    2.9690   -2.7103  -19.2507 H   0  0  0  0  0  0  0  0  0  0  0  0
    4.1858   -3.6423  -20.1871 H   0  0  0  0  0  0  0  0  0  0  0  0
    3.2752   -4.4360  -18.8576 H   0  0  0  0  0  0  0  0  0  0  0  0
    5.2037    4.4265  -16.8754 H   0  0  0  0  0  0  0  0  0  0  0  0
    6.8275    5.1281  -17.1880 H   0  0  0  0  0  0  0  0  0  0  0  0
    9.6279   -0.8216  -16.5343 H   0  0  0  0  0  0  0  0  0  0  0  0
    8.9444   -0.6239  -14.8849 H   0  0  0  0  0  0  0  0  0  0  0  0
    7.4636    3.3918  -22.4134 H   0  0  0  0  0  0  0  0  0  0  0  0
    5.7610    3.1125  -22.9130 H   0  0  0  0  0  0  0  0  0  0  0  0
    6.5907    7.0159  -20.3522 H   0  0  0  0  0  0  0  0  0  0  0  0
    4.8375    6.7934  -20.6735 H   0  0  0  0  0  0  0  0  0  0  0  0
    6.3999   -4.2614  -19.0938 H   0  0  0  0  0  0  0  0  0  0  0  0
    5.4200   -5.1313  -17.8651 H   0  0  0  0  0  0  0  0  0  0  0  0
    7.1746    5.7494  -22.3643 H   0  0  0  0  0  0  0  0  0  0  0  0
    5.4477    5.6447  -22.8472 H   0  0  0  0  0  0  0  0  0  0  0  0
    5.2838   -2.1363  -18.5359 H   0  0  0  0  0  0  0  0  0  0  0  0
    4.3732   -2.9299  -17.2065 H   0  0  0  0  0  0  0  0  0  0  0  0
    5.7170   -4.1294  -15.2792 H   0  0  0  0  0  0  0  0  0  0  0  0
    3.8067    4.1997  -21.3389 H   0  0  0  0  0  0  0  0  0  0  0  0
    2.5226    3.8080  -19.1700 H   0  0  0  0  0  0  0  0  0  0  0  0
    3.4253    3.9169  -17.6958 H   0  0  0  0  0  0  0  0  0  0  0  0
  1  3  2  0  0  0  0
  1  5  1  0  0  0  0
  2  4  1  0  0  0  0
  2  5  2  0  0  0  0
  3  6  1  0  0  0  0
  4  6  2  0  0  0  0
  5 26  1  0  0  0  0
  6 27  1  0  0  0  0
  7 24  1  0  0  0  0
  7 34  1  0  0  0  0
  7 38  2  0  0  0  0
  8 33  1  0  0  0  0
  8 35  1  0  0  0  0
  8 39  2  0  0  0  0
  9 34  1  0  0  0  0
  9 36  2  0  0  0  0
  9 37  1  0  0  0  0
 10 12  1  0  0  0  0
 10 13  1  0  0  0  0
 11 14  1  0  0  0  0
 11 15  1  0  0  0  0
 12 16  1  0  0  0  0
 13 17  1  0  0  0  0
 14 18  1  0  0  0  0
 15 19  1  0  0  0  0
 16 21  1  0  0  0  0
 17 21  1  0  0  0  0
 18 22  1  0  0  0  0
 19 22  1  0  0  0  0
 20 23  1  0  0  0  0
 20 35  1  0  0  0  0
 21 28  1  0  0  0  0
 22 29  1  0  0  0  0
 23 30  1  0  0  0  0
 23 33  1  0  0  0  0
 24 28  1  0  0  0  0
 24 31  1  0  0  0  0
 24 36  1  0  0  0  0
 25 32  1  0  0  0  0
 26 34  1  0  0  0  0
 27 35  1  0  0  0  0
 29 31  1  0  0  0  0
 30 32  1  0  0  0  0
  1 40  1  0  0  0  0
  2 41  1  0  0  0  0
  3 42  1  0  0  0  0
  4 43  1  0  0  0  0
 10 44  1  0  0  0  0
 10 45  1  0  0  0  0
 11 46  1  0  0  0  0
 11 47  1  0  0  0  0
 12 48  1  0  0  0  0
 12 49  1  0  0  0  0
 13 50  1  0  0  0  0
 13 51  1  0  0  0  0
 14 52  1  0  0  0  0
 14 53  1  0  0  0  0
 15 54  1  0  0  0  0
 15 55  1  0  0  0  0
 16 56  1  0  0  0  0
 16 57  1  0  0  0  0
 17 58  1  0  0  0  0
 17 59  1  0  0  0  0
 18 60  1  0  0  0  0
 18 61  1  0  0  0  0
 19 62  1  0  0  0  0
 19 63  1  0  0  0  0
 20 64  1  0  0  0  0
 20 65  1  0  0  0  0
 21 66  1  0  0  0  0
 22 67  1  0  0  0  0
 23 68  1  0  0  0  0
 25 69  1  0  0  0  0
 25 70  1  0  0  0  0
 25 71  1  0  0  0  0
 26 72  1  0  0  0  0
 26 73  1  0  0  0  0
 27 74  1  0  0  0  0
 27 75  1  0  0  0  0
 28 76  1  0  0  0  0
 28 77  1  0  0  0  0
 29 78  1  0  0  0  0
 29 79  1  0  0  0  0
 30 80  1  0  0  0  0
 30 81  1  0  0  0  0
 31 82  1  0  0  0  0
 31 83  1  0  0  0  0
 32 84  1  0  0  0  0
 32 85  1  0  0  0  0
 33 86  1  0  0  0  0
 36 87  1  0  0  0  0
 37 88  1  0  0  0  0
 37 89  1  0  0  0  0
M  CHG  1  36   1
M  END
> <OMEGA_C>
fzHCQJtt4z+2RIrBDF4BQUksPkBMz4TB25DVQEYFDj+jdIfBTfoKQXTA4D+x9IHBLMDYQM5HP0B3
4IjBpKr/QLvdCj8nMIPBxPrYQJqHjkBCFZ/BUYLbQDWjFcCe/nTBB5CRQDjkhUA0XpvBdLHAQNNT
kr/OoavBCMLZQLKQL0EFCLPB+V2jQGSBab7ZBqXByuTtQGe6C7/OaazBS4CtQAhGK0FcFK7BQMbm
QFxfHUENqrrBolyhQHONlj9L5anB3nvsQHUpXj/hN7HBlBitQFXBFUGvMqjBrmvmQOOsB0Hw5LTB
AWz7QGbHK8CvDovB8snOQKpu5j8quKrBBxq6QCBTA0E8wa/B18bfQA0pecD8X4jB/rm/QM8SjEBX
aanB2ShvQPK6X8CNjJnBEk7EQAAXikCIm4vBLzALQQ0EOr+VPH/Bhz7OQDirS0Csb7DBunC6QAqL
3UAFGqnBEBy9QNOxhcCX5pDBr4XEQAOqtUD886/BZFyaQNfsRMDHl5HBbznMQCLZY8DqM3zB23e6
QMN0jEBzDZfB+ar9QJFs+r+d/4DBNzaTQKO9h0Ax26XB4gpZQGSnfEDNjpXB4ND/QO+qkkCvH57B
vm7OQB77378ZGGXBJx+iQO7J5D+EfI3B9BcKQSJfeUCD4oPBpmbEQMLOvr5qi4jB0Q0bQeYP4D9a
k33BQYTCQMRKCMCGw6fBXV2zQFuRoL9gurPBA6rYQKSxPkEOhbfB8JzxQJfQMEExl6zBkvWCQN8o
KL+u26TB09qvQHl5Ir5g0ZzBJv77QKL6/b4hXKTBJN8AQfJYmL8gibHBv9ylQHcgOEEhYajBLlCV
QBX8KkGfeLTB2hvQQMvSHEE9ZMHBEZgDQQyCIEF1t73BY0yTQLp7jj9x8rHBrDeNQJt96D+sz6TB
a4IGQZ7SpD9NObHBu5bgQD49Tj9SfLnBFMXDQA9xFkG/eaHBbq2MQLK1EkFMIKXB35DtQNjg9UD8
srrBVf/+QIO+B0EvmK7Bp70NQRjCP8A9so3B5WbsQAGHBMDdUpHBvvLbQBJz9j99nqLBYwuiQJTb
AUEII7bBJU/0QM/5mMBQiofBSgM+QOp0LcBjAZrBW/KFQIwbacAof6HB6pxRQIPzjcBk3JbB8ISm
QM6ljUDUAIfB3XraQKAZpEAagYnBtQsaQRxUUr8sRoTBPBwPQSe1H79/KG7B99XuQGkTWUCuTrPB
y1m4QHIzR0DlTbfBaufSQECC4EBf0aLBn8yaQO9j2UBeY6XB8MvMQE1diMAPwJjBRHCtQO0zpMDK
647BmJblQFv7t0AQ6rLBKlOuQJShtEAjx7bB/BSpQG+4CMCbSZTBFvGLQOiDO8DXponBDvK2QDck
hMCud3TBvaBzQCVkhkAPtqrBQHIhQLm2c0AdXJnBKjhbQEuvekD1kI3Bm1PAQBxs4D9moYrBYDQA
QWtnPUDX9oTBOWHUQM5YCD/iJojBqB4KQec03z/vYoLBLVDWQMYJPkAi+YjBgmb+QGDTBj+Y24PB
hAXYQMfcjUA44p7BctfeQFMzF8AQ/3LB4RaQQJNKhkBFtJvBpkG7QCg8jb+x1a3BsxvPQBnHLkES
ubXBA/ueQNacgr6ob6bBknTpQBxSF79/eq3ByQXuQKrJHEHVD7nBU6K+QNBxK0GsParBpEyfQL/l
mj8pGqrBHQLrQDQ4XD/kZbHBiMjYQIe4BkEA6LfBKdSpQFZkFUENAKnBVAX3QIU0M8DQy4rBX5HN
QMOO5D8NvqrBXwnJQPFjA0EHRazBJSzUQNOdcsBmg4fBLxfAQNYGjEDxX6nBxWdtQOerV8BVmZvB
DFfBQHhAiUB1mIvBGPYKQeCzP7+g9IDBas3OQLJsS0BoS7DBokKxQJhT3EBrpKrBl2qnQMJhXMA5
14vBEo3IQJWxtUDhpq/BtWukQIZBa8Dm35fBpSrSQHbUacB583fB2aC4QHcEjECwFpfB6V/7QNN2
+b+wZYHB8fGSQCaWiEBEL6bBBMRUQKAgfkBbI5bBktD+QL0tkUDNpJ3B/9LTQB4y3r/HF2PBdCug
QL5T4T+my43B9rgIQQToeECQ34PB6cvDQBiEzL5ihInBejkaQcTi3j9ggn7BDnG6QGy3CcDyLavB
hByvQEaPhL+XE7bBXvnfQGAzPkHzKbbBVbGzQGryLkHjPbvBOAB8QDNwI7/uq6bBeE2rQJVlor47
NZ7Bwmv1QFoQJL9ONqXBHKD9QNbNm7/RqrLBvG33QBIuH0ECdcHB308FQW5kHUHy8LPBKqjZQKm6
LEFvo6TBUtamQDTfN0ENY6jBvnaQQEUcoz/fELLBequMQJGv5z/mYaTBPw4GQWn2nD+5yLDB/a3g
QFgSZD+czrnBIVm9QL2xBUFKZb3BYCnwQPlj9EC967nBtnWgQNQbE0FFmKDBEzyNQJyZFEH1Ha7B
QZsKQfuBVMBRkYzBLBftQFm0DcBa0ZHBb5HaQLCT8D9gmaLBx+HkQPnOA0Hy46bBOSDdQN3/mcAZ
44nBM4poQGVAYsAZR6TB2z9AQDYNgcACbJfBxNBdQD2aFMBFxJnBKRCjQALti0A2KIfBGczWQAiJ
o0C9QInBmWEYQdovYL/RjobBKzERQQX4JL82iXHBb/XvQNGfV0BT07LBfve5QEh4SECxYLfBKtSt
QAme1kBTAKLBUmCRQKgA30B4T67Bj5CPQJFkgsBBy4fBcqOgQKWjGMDwJYrBkyrrQAYVvEDcra/B
zEi9QLeGsUBv7LfB80OsQDYql8DYsJnBZwy7QDzUQMAaCZzBEkfJQLCGi8C/iW3BxTt0QKgRiEDf
OqvBvckdQOVhdkAUHprBcl5VQDRze0A9JY7BAeLBQC6y8z94+ojBqBECQXw8RUC/t4TBTmDUQA4f
Mj+Lg4XBrlMLQU9O8D8oUIHBGKLZQLGYRkAJb4jBnxj/QPy+LT/8oYHBi8zZQGSyj0AHGZ/BlW/a
QHMAFcCOWXXBvp+SQN51hkDQMZvBfY+6QElJlL8rvavBqvvgQMURKUElKLDBwbKdQK9eer5bAKXB
ptfoQInqJL+AiKvBh2u9QMuHIkGKTKjBt6/3QAIZFUFqlbTBM2meQOHylj9EhKnBYr/qQMLsRz8n
ErDB3GacQKAjFEFD5K3BF3DXQLWIBkFIYbrBLRYGQYXZLMD6SYjBUcHMQETY3z/W8anBd7OwQJwx
AEE8N7PB+T3kQGI6YcBeW4rBfXvAQOdci0B9UKnBEnWUQKzOmcCtj5PBI7vFQEGEjUBZlIvBtvwJ
QX7ZD7891HnBIY3OQMNBR0CF46/Bp0i8QOkJ3kCSwqrB/7bJQKe6N8CTbpPBDx3GQKIhs0Ayf7DB
fQiaQFwHUsD+aZPBCirOQIWdXsDCDoDBeIq7QB4fjkD3AZfBzl7+QBm/5r+tnH/Brd+TQMxBiEB4
sKXBEQJcQOyVfEB1QZXBn1AAQU4hlECoQJ7BKa3HQBtb7L+49mXBWpShQE7w9D9fDIzBuEULQUO1
f0DNfITBRBDCQLGqYL54zoXBzZwbQdpR7z+s2XzBNpW5QAJpC8AMc6jBfPGuQGLblb+YC7TBcNTS
QJcdMkEm07bBOW74QAktM0Hn96vBsHN5QH4DIb8lLqXB0FWpQODua75sspzBjZP0QKaqI7+UPKPB
4hj9QDQlp7/4aLDBI67LQFXDGUF4jaHBAletQGT+MEFHTaXBuVsIQZoTGkGCP7rBSywDQXo1DEFg
7q3Buw+RQDxglT+fqLHBrLWKQGju6T/ZY6TBkeYFQTlckz9OdK/BdRHhQKpsQT97h7jBUOmEQJ2/
DkHw6qfBIxKMQC+THUH3GLTBkVjLQBMFD0HjeMHBdgroQE6270Br5rzBimgTQU6mVcCgoYXB4usK
QSYICcAGeI/BlrvYQICp8D+gvKHBRVOYQFhZ8kCHgbjBCNPsQCSbkcCmjIzBilBkQEG3ocAgi5PB
pnijQMn6psCyzprBBcKjQLq0p8A6cIzBYyioQMBMkkCA9YbBYVvcQM6Fp0A7zInB5JkaQaT+HL8z
lH/BM+oJQV6I8L6BSmjBOMLvQA6uUUApgLLBxJe5QLvPQkDe77bBRZzYQClz6EAKO6bBEjWhQC+m
2UC+PqXBKZXLQI+N47/0jpLBjsrXQBCwSsBDJJvBfG3nQO3+s0CSVLPB+WuwQGwRsECJYrfBy3KK
QKvhNsCdiZrBK7yKQI5VOMAlK4zBFZ65QNVNhcAgr3rBLJR0QJCbh0DnfarBKjEkQL+QckDS9pjB
RAxfQLbVekCJRI3BShK8QGpM8T9sjIjBEV8AQT40PUCGCIXBurLMQIW1KT+b2oTBIbQIQU8A3j+m
Y4HBF8vVQDa8QkD5XYjBiof3QInxFD8gIIHB7pTYQHEEjkDm3p7BfUIGQUuHH8DncInBjgWRQH01
hkAwRpvBGm29QEQxl7+q9qrBPwjhQDlSLkGtaLPBDKieQL2Qf74z7KTBl/TqQGQIGr+d+6rB/n+0
QIM+K0EtYq7BigHsQM2xG0FS+brBCLieQNr8kz/m3qnBJmvrQH8XTT88/K/BXfmxQHbUFUFca6jB
uYnpQBkiBkGZHrXBV2XSQLyGI8BBGHzBgZrMQCck4T9GFarB+e+8QBrxAkHU6q/BPyDEQL16PsD+
E4nBvqm/QIEoi0CfOanBnP51QE8Hb8AdmJjBWWfDQOtRjECceIvB+oYEQav/J79YBnfBZxbOQCtU
SEDv/a/Bq2e7QALh3EAvM6nBwuOpQMqRiMCvc4jBUUHFQPBbtECW46/BxPqaQH05l8CCmpPB6n7s
QEjMTMD4po7BiMS5QJl0jUDU6pbBiMX6QOzt87/qXIDB/P6SQGCDh0DewqXB9I1XQNzsfUD0hJXB
lG3/QHLFkUBs1p3Be8oYQdshGcC7f4zBD6mbQKzp9z/fhIvB2HYKQSFGdUCUR4XBK8S4QGSgYL5F
2oTBeiUZQR3K1j+9in3B4se9QFiQCsBvB6fBNFiyQJShpb9mRLPBmGHhQE1hPUGG9rfBhB/5QLUS
L0H3AK3BpS98QA0IKr8uVKXBqMSoQHRvOb7qgpzBTqv2QGIGCr8Ts6LBaQIAQXGyob8kpK/BgFSu
QBdbOEEruKjBwyycQBZ/K0EwvrTBJy/VQNqeG0F0rMHB6VEGQS3xHUEvE77BBHuSQGM0jD97G7LB
s9GJQBzJ5z/uGqXBuQoGQTSEmj97ia/B5pPhQPzuOT/FabjBzczIQBsIFkGfuKHB0VWRQKKsE0Eo
TqXBN1DvQElM8kDV4brByRgBQTWvBUHJ167BMX67QNWb7b+qxXTBxMzWQFQhW8DzhnHBQM7XQLfS
8j9r0KHBIKSkQKn9AUFfRLbByVSxQIRwC8Ac6IzBvVxiQGIkg8CGh6DByWU9QJqJacDoZ5PBWUGK
QJXsL8BlaZnBtM2lQA/wkUCv64bBN8faQC+JpUAhlonBtxsWQWNKH792onfBlXT+QBOKI79yPmbB
cTnvQN2bU0ComrLBtBe5QAksREBACbfBiivTQJRo30A7vaLBQDubQEav2UB0uKXBcb69QOreocAG
4ITBD6ONQBT5gsCSZIPBv3fmQAAVtkCnxbLBZFOvQH86s0BNxLbBKnyLQJyxtsBQ3pLBngq3QBrj
mcDN35jB7nLwQMY4ccDUJ5XB1nxzQCM2hkAJqqrByjYgQEWgdECuXZnBQC9ZQELGfEDzhY3B2he4
QJ1kAUC0NoXBV+8AQQm6NEDDsIXBXk3GQICaRz8HP4HBUQoIQeyZyj8ouIHBYMrVQKJwQ0BbVYfB
HF/yQL20Dj+P3X7B1NbZQLH/jkAhGJ/BnYgCQW02A8AZgozBwSOTQFaxgkBsBpvBOKXAQBoRl7/3
4qjBbVPeQHLyLUHIMLXBSWeeQK3yT74ft6TBLZTtQJ88C79deKjBTpW0QBO4K0EhtK7BawjkQMj0
GkFE6rzBmgugQAqDjz9G8KrBUgfvQAHpST9aoK7BGJezQHNhFkHsjKjBZ0LjQAyHBUFO3LbBpG/V
QGqWN8C5LX/B/UbNQP3z4T+4EqrBcoO5QGwOA0GlMrDB1efUQMaDc8DTPonBrwfAQFTPikAAXanB
wO0PQW/l2MDmU4DB7o7GQMfkjEC6ZIvBa/8AQS67RL/n1XXBl9LPQA/6R0AQIrDBlwO6QBDw3EAc
ZKnBCFHkQNznp8C/pIbBKNjCQBQktEBBJ7DBY4QJQcYkqsAzfoLBw7XwQCahScBIEpHBoBC8QLt9
i0Ar4pbBrB/3QL4r879u84HBTueTQIwYhUD7iKXBPzRdQAGKc0AzF5XBtDAAQW3AlUCCUp7BA8kP
QYTIrL9dEZHBCmmWQH7cC0BZo4bBtWAMQeB+ZkCee4fBk3evQBWFg7v+LH/B5+gYQegRtT/7aoDB
KGvAQNCOBcBT56PBaiK5QMNmub84NrHB/DTdQGnjPEE51bnBNKH5QH1xLkFkpK/BWCh9QL0UKL86
tKXBdDmkQCPZULthL5zBVDf2QMH6t75lEaDBqWECQRm2nr+uDazBbmeyQI4DOUGG9qjBJSaZQCVW
LEFoNbTBROfJQAAhG0GYz8LBs3EBQZCUHEFZEsHBFrWYQL2QbT/DZ7PBjiyIQPA36D/am6fBm4YH
QVvynT9U0K3B3zvoQElFGj+uIbfBdYvNQNFRFkEkm6LB8JuUQBzdFEFHcaTBITXlQP2z8ECorLzB
r/L+QFjRBEFHcLHBKF62QGlJF8DUYH3B/t/cQEQ8W8DudnDBY2XUQO/N+D/6kqHB8B2eQC5rAkHH
trXBjRO0QIgGd8DOY4zB4YIgQVQA2sCyyHrBxS4FQYin5sBfiHTBtasOQTB268AYx4fB2NGpQL5c
lkCo5YbBVADgQCuppEBLGYrBR3wSQTJwOb8I+3PBBQ/zQI4Abr/dG2bBWFPxQOthU0DhbLLBb/G7
QD6RQ0DWX7fBdyvTQNzn30DQR6PB97eaQP512UAndaXBFR7PQIJktcD9eoDBEQTiQLRAu8D7+I3B
iiHjQI91tkBNnLPBrRWrQF9WskBqobbBktMKQZupl8BwEHbBglAUQUN4nMAgi4jBh5D0QBHdXMD3
o5jBpjx0QIJKg0BQQKrBCGwlQD1vaUCwzZjBw2hgQKjNcEClG43BZJS2QCr+DUD6qIXBd9MAQSbq
N0D98obBBOLCQD1CfT/HLYHB9wMHQY4w0D8FtYLBut/VQDQlS0CUaojB/6fuQJ14LT+Xn3/Bj13d
QHc9kUBWgaDBbSYHQVIhLsCis4bBIHeWQIVzhEAOwpzBdbzCQHtBlr/X3KnBJJvMQFTrJUH/zaTB
E2mgQD0HOr4hB6bBm/bvQCVME79ZoqjB0kWfQHgfHEGybaTBkxfuQPJ6FUHKsqjBXP2jQFFZkT8o
SKzBFsTzQEpaQz/Gua7B67uSQG3FEkH3cK/BFzDhQODTC0EHpLPBF/TFQA5DCsALnIXBN1TRQBob
4j+y3qrBDnmzQBbwAUFvhbPBbOLKQF0PVcAQOo3BY8LEQGMmi0By5KrBiQhbQOOGaMDx/pTBnnfI
QHmekECV6YzBO+P7QNwXLb+y4nbBwvDVQEoMR0A4KbHBOc+wQMLa2kB1kqzBHFitQKpRkMA2E4rB
m2DHQAwItEA29LHBhDF6QGxXhMBZAIrBF9r3QIeobMCLUYzBA+6+QOkFjkB5cZjB9KbxQJSH3r9B
N4PBaHGYQMushECtRafBjm9iQGVieUDdAJfBS/ABQZGrl0BBhJ/Bs4gaQUNRL8BPO4XBJSCVQHio
G0DY/obBUdoMQZGDZkCcFYnBoL6qQDE9jj6ehn3Bj8UXQaTCsj/Dq4HBMo/AQHAJBsA4E6XBiBG9
QCentL9mVrLBJ3bMQHinM0GeTqrBrW7VQGtcK0Flu5zBKIKAQA4LHr8zU6fBavqkQGr/ljxKc53B
Znj2QMuwzb4fGaDBCscDQViHpL+d26vBC5meQHNHD0EQap7BTS2IQMyiKEGwM6LBUKIGQQ19HUHj
gqnBxKDwQOiFCEHZxqLBPVueQAj1bz+P0rTBGb6LQAGl6z/CTqnBQtgJQRyBmD97T63Bb3bvQAdB
FD+zVbfBfl1mQGgYC0Fpva7BxPWQQJzpH0E3R7XBmDHiQDePGEEZtrnBo0b4QPd2/kDhwLXBwPmz
QHj/q7/sbInBMl+1QGheHsDPh3zBa33WQG8N/D9AUaLBkOKqQLdW+0C9yLvBMlrDQGmJQMBmbpXB
D5gWQLZ1WMDxhpTB2Jt/QIY8L8CvSZfBA7BkQAR5jcCTBJvBBq6rQGCgm0BJqYjBlpPiQImyp0BH
q4vBi0UPQUerLL9uzXPByqHqQPZqXr+722fBYwj4QDBuUUDk7LLBRwDEQIKMQUB+s7jBXznAQDso
4UC70aTBq+yOQEPW0kCUSKvBtDeyQIJ5qsA71o/BmVW2QHZAm8CTBILBKDzpQBMNvEA0SbPBUNq3
QKiIrUDYrrnBo8JvQOPsVcBmC4TBzdZUQDPRoMBJxofBlmACQXARkcCqTY/BQJZ+QPX0gEByIazB
uJorQPSpbUBJ3JrB3qhjQBHweUBQAY/B

> <OMEGA_E>
4DcAPWDRzT0oZ48+cNToPjKXMD9sszM/

> <OMEGA_NBR>
      8356

$$$$
50156412
  -OEChem-04172616093D

 62 63  0     1  0  0  0  0  0999 V2000
    5.9340    1.8919  -16.8974 C   0  0  0  0  0  0  0  0  0  0  0  0
    8.1561    2.8666  -16.6651 C   0  0  0  0  0  0  0  0  0  0  0  0
    6.4258    0.6706  -16.4077 C   0  0  0  0  0  0  0  0  0  0  0  0
    8.6621    1.6198  -16.2379 C   0  0  0  0  0  0  0  0  0  0  0  0
    6.7951    2.9994  -17.0228 C   0  0  0  0  0  0  0  0  0  0  0  0
    7.8013    0.5058  -16.1284 C   0  0  0  0  0  0  0  0  0  0  0  0
    6.7790    4.4575  -19.9814 C   0  0  0  0  0  0  0  0  0  0  0  0
    4.5865    4.0916  -19.4230 C   0  0  0  0  0  0  0  0  0  0  0  0
    8.0691   -2.1672  -17.8930 C   0  0  0  0  0  0  0  0  0  0  0  0
    5.9398    4.3097  -21.2354 C   0  0  2  0  0  0  0  0  0  0  0  0
    6.2179    2.9201  -21.8686 C   0  0  0  0  0  0  0  0  0  0  0  0
    5.8740   -3.7745  -16.1916 C   0  0  0  0  0  0  0  0  0  0  0  0
    4.8711    7.4838  -21.3453 C   0  0  0  0  0  0  0  0  0  0  0  0
    6.7637    7.8567  -22.9319 C   0  0  0  0  0  0  0  0  0  0  0  0
    6.2524    4.3345  -17.5014 C   0  0  0  0  0  0  0  0  0  0  0  0
    8.3411   -0.8511  -15.6799 C   0  0  0  0  0  0  0  0  0  0  0  0
    6.1811    5.4492  -22.3024 C   0  0  0  0  0  0  0  0  0  0  0  0
    4.7575   -3.5944  -17.2445 C   0  0  0  0  0  0  0  0  0  0  0  0
    5.2730   -3.5172  -18.7099 C   0  0  0  0  0  0  0  0  0  0  0  0
    5.8612   -2.1488  -19.1492 C   0  0  0  0  0  0  0  0  0  0  0  0
    6.2434    6.9397  -21.7940 C   0  0  0  0  0  0  0  0  0  0  0  0
    5.8847    4.3128  -18.9314 N   0  0  0  0  0  0  0  0  0  0  0  0
    4.5636    4.2872  -20.7239 N   0  3  0  0  0  0  0  0  0  0  0  0
    3.4705    3.7701  -18.6634 N   0  0  0  0  0  0  0  0  0  0  0  0
    8.8050   -1.7503  -16.7756 N   0  0  0  0  0  0  0  0  0  0  0  0
    6.8345   -1.6043  -18.1977 N   0  0  0  0  0  0  0  0  0  0  0  0
    7.9952    4.5933  -19.9133 O   0  0  0  0  0  0  0  0  0  0  0  0
    8.4969   -3.1046  -18.5559 O   0  0  0  0  0  0  0  0  0  0  0  0
    4.8950    1.9817  -17.1778 H   0  0  0  0  0  0  0  0  0  0  0  0
    8.8119    3.7230  -16.7188 H   0  0  0  0  0  0  0  0  0  0  0  0
    5.7452   -0.1516  -16.2428 H   0  0  0  0  0  0  0  0  0  0  0  0
    9.7093    1.5179  -15.9944 H   0  0  0  0  0  0  0  0  0  0  0  0
    5.6127    2.8041  -22.7798 H   0  0  0  0  0  0  0  0  0  0  0  0
    7.2847    2.8409  -22.1246 H   0  0  0  0  0  0  0  0  0  0  0  0
    5.9536    2.1303  -21.1500 H   0  0  0  0  0  0  0  0  0  0  0  0
    5.4277   -3.8196  -15.1872 H   0  0  0  0  0  0  0  0  0  0  0  0
    6.4200   -4.7081  -16.3923 H   0  0  0  0  0  0  0  0  0  0  0  0
    6.5696   -2.9240  -16.2457 H   0  0  0  0  0  0  0  0  0  0  0  0
    4.4730    6.8537  -20.5362 H   0  0  0  0  0  0  0  0  0  0  0  0
    4.9867    8.5159  -20.9829 H   0  0  0  0  0  0  0  0  0  0  0  0
    4.1751    7.4699  -22.1969 H   0  0  0  0  0  0  0  0  0  0  0  0
    7.7440    7.4950  -23.2757 H   0  0  0  0  0  0  0  0  0  0  0  0
    6.0521    7.8398  -23.7706 H   0  0  0  0  0  0  0  0  0  0  0  0
    6.8637    8.8858  -22.5566 H   0  0  0  0  0  0  0  0  0  0  0  0
    5.3589    4.5848  -16.9106 H   0  0  0  0  0  0  0  0  0  0  0  0
    7.0222    5.1048  -17.3462 H   0  0  0  0  0  0  0  0  0  0  0  0
    9.1915   -0.6717  -15.0055 H   0  0  0  0  0  0  0  0  0  0  0  0
    7.5412   -1.3698  -15.1313 H   0  0  0  0  0  0  0  0  0  0  0  0
    7.1380    5.2335  -22.8002 H   0  0  0  0  0  0  0  0  0  0  0  0
    5.3640    5.3881  -23.0363 H   0  0  0  0  0  0  0  0  0  0  0  0
    4.0674   -4.4474  -17.1656 H   0  0  0  0  0  0  0  0  0  0  0  0
    4.2170   -2.6633  -17.0190 H   0  0  0  0  0  0  0  0  0  0  0  0
    6.0591   -4.2769  -18.8314 H   0  0  0  0  0  0  0  0  0  0  0  0
    4.4302   -3.7518  -19.3767 H   0  0  0  0  0  0  0  0  0  0  0  0
    6.3585   -2.2785  -20.1218 H   0  0  0  0  0  0  0  0  0  0  0  0
    5.0347   -1.4304  -19.2529 H   0  0  0  0  0  0  0  0  0  0  0  0
    6.9433    6.9919  -20.9469 H   0  0  0  0  0  0  0  0  0  0  0  0
    3.7386    4.4026  -21.2772 H   0  0  0  0  0  0  0  0  0  0  0  0
    2.5774    3.6737  -19.1028 H   0  0  0  0  0  0  0  0  0  0  0  0
    3.5595    3.6348  -17.6766 H   0  0  0  0  0  0  0  0  0  0  0  0
    9.7420   -2.0925  -16.7055 H   0  0  0  0  0  0  0  0  0  0  0  0
    6.5899   -0.7561  -17.7278 H   0  0  0  0  0  0  0  0  0  0  0  0
  1  3  2  0  0  0  0
  1  5  1  0  0  0  0
  2  4  1  0  0  0  0
  2  5  2  0  0  0  0
  3  6  1  0  0  0  0
  4  6  2  0  0  0  0
  5 15  1  0  0  0  0
  6 16  1  0  0  0  0
  7 10  1  0  0  0  0
  7 22  1  0  0  0  0
  7 27  2  0  0  0  0
  8 22  1  0  0  0  0
  8 23  2  0  0  0  0
  8 24  1  0  0  0  0
  9 25  1  0  0  0  0
  9 26  1  0  0  0  0
  9 28  2  0  0  0  0
 10 11  1  0  0  0  0
 10 17  1  0  0  0  0
 10 23  1  0  0  0  0
 12 18  1  0  0  0  0
 13 21  1  0  0  0  0
 14 21  1  0  0  0  0
 15 22  1  0  0  0  0
 16 25  1  0  0  0  0
 17 21  1  0  0  0  0
 18 19  1  0  0  0  0
 19 20  1  0  0  0  0
 20 26  1  0  0  0  0
  1 29  1  0  0  0  0
  2 30  1  0  0  0  0
  3 31  1  0  0  0  0
  4 32  1  0  0  0  0
 11 33  1  0  0  0  0
 11 34  1  0  0  0  0
 11 35  1  0  0  0  0
 12 36  1  0  0  0  0
 12 37  1  0  0  0  0
 12 38  1  0  0  0  0
 13 39  1  0  0  0  0
 13 40  1  0  0  0  0
 13 41  1  0  0  0  0
 14 42  1  0  0  0  0
 14 43  1  0  0  0  0
 14 44  1  0  0  0  0
 15 45  1  0  0  0  0
 15 46  1  0  0  0  0
 16 47  1  0  0  0  0
 16 48  1  0  0  0  0
 17 49  1  0  0  0  0
 17 50  1  0  0  0  0
 18 51  1  0  0  0  0
 18 52  1  0  0  0  0
 19 53  1  0  0  0  0
 19 54  1  0  0  0  0
 20 55  1  0  0  0  0
 20 56  1  0  0  0  0
 21 57  1  0  0  0  0
 23 58  1  0  0  0  0
 24 59  1  0  0  0  0
 24 60  1  0  0  0  0
 25 61  1  0  0  0  0
 26 62  1  0  0  0  0
M  CHG  1  23   1
M  END
> <OMEGA_C>
h+O9QNgo8j/PLYfBM38CQex2N0AhUoXBJaDNQOepKz/0QoPB7ZcKQXBWzz8x54HBmHHZQJr1P0DJ
LojBW6T5QBB9AT/8BoHBoO3YQD6kjkDT2Z/Bn8SSQFjugkBdYpvB/xoBQQ+zCsDTJI/BFBO+QLDo
iUAK4qnB//jGQFrjOkDx8q7BDPi7QAuRccBPiIHBPeCbQPZ670Ahw6rBJnDYQAhq+0CWdLfBrhPI
QOizikDZAozBTHUFQczfWb/h4HrB68vFQN5frkBMa7LBtz2YQG8KZsDG9InBN7yoQG8ZYcDRrZXB
EY+7QNOFCcCVMZnBBcrHQDYS3kAOWq7BMU+8QKICikB/c5fBtAiSQBcxiUBzyqXBLh1eQH9JcUCh
TpXBVOEMQbII4L+ENIbBXbTaQKZYzb/RlJHBddj/QFL8kkCITp/BSvMHQVmyRsB1cpTBb6OcQHuo
/T8ubInBjP0MQchFbkAjwIXBidi3QKZBG75L8YHBblkbQRxKwj8D6X/BKpuzQK52M0AQPbbBpxzp
QLzQNUBD/7DB4IO+QEFXCEBJM6nB2q+tQF50dMCz/nLBCnHNQGGolsBuI4PB3jnSQPAiO8A194HB
HSOPQIFR20A1SqTB85KfQDlBCEEU3afBGpqFQFkJ70BOk7HB4873QE7X70ClNLrBlqrBQJvf+kAf
Kr7Bb6PbQFosDkHkc7TBDXyrQHO2kkD+SIfBuLXgQDhao0AXxYrBPxATQQbzK7+2FnDBQFHxQIJV
r7/FGXLBq2rkQId4p0DdZrbBKaarQEJrrEBPSrjBgiiCQLFQjsAdU4nBVvGGQJFzKsDjJojBVOTB
QInciMCoppbB8MONQK8ccMB3A5vBAXnLQJTSEcBh+aDB7huhQEIYt78DBprBNS/eQGu930BOk6fB
w0VvQLPhjEC1N6rBmfQkQJgea0CL0pjBOc5jQNmgaECmaY3BQN8bQWLrBcDJpIXBVeDSQMCOQb+b
0o3BqCG/QALgAkBk34fBQHcAQShJUkCeSYTBio7SQKusXT/GEITBBhYKQZ9/B0CRcYDBqjXWQF2x
UEBRzYfBsh79QNI5aT8ZGYDB8P/XQMTejEDeEZ/BkkKRQNo5gkCuWJvBSnvzQMy3G8AycIHBYGu+
QAyniUBVX6nBtjTRQG/5UECuSrHB+TZTQNHZSsCkrZvBEr8BQU5FzkCJ7a/BvvfIQESB/UAXb7bB
NATCQDhFkUCks4vBIu0JQeAfk75UrXbBMhO0QCwVt0DvIq7BoC+JQEBOgsDuv5XBVNChQPdlUMCD
eI3B4oHBQNyihcDytofBUqrWQMYyzkA8+bTBQha5QODwjUAuJZfBUFeVQI3pcUAlh6XBmzRWQMJX
gECltpXB5Dn4QE7muL/rr3PBTCDWQC0gW8DEdn7B+u7+QBjVjEB31J3Bui8EQdbYG8AKxInBaa6e
QIdFAUCk1orBOnUJQbiihkD0jYTBnyvBQFQAir3lKYTBdnsaQV0ZCUBNcnvB5XO9QPkaT0BdkrjB
Bx/yQNxWY0AcZ7PB9mXRQChaEUBNhq3BteQvQDnIcMAxoqHBcN4lQBvmLsC87JXBQ3B2QFBJF8DK
vZ/BHysHQZQbrUCsw67B9/UMQXgQ30AkQbXBeykBQSi03kC0JqjBQuOoQJDA/kDnCrrBH1rIQFK/
BkGFmK7BF/PfQHrtBkH1srvB3/GjQG7elkDfWIfBAw7YQCQerEBhRorBThcXQRKSEr8Pt4DBdnsQ
QWDyETu+A2fBJo2XQNeAs0D8NrPBkZKsQIcyzECRWafBNxNvQBEWnMAnspHBhdKfQKtHkMA1g5vB
O1SzQIR4HMDIfJHBzlGLQKD4NMBvoofBSFawQB0iocAeSYTBHb3ZQBgfkcBTao3BLE7YQKPPvkCr
4LzBwNd/QE0pUkC486nBA2AgQPjWbkDQa5nB9vlUQDboh0AT8Y3BBO/nQJdXw79u+mXBdN/OQHw/
aMDGOm/B49m/QBtzyj8iMonB5OX9QOS3O0BdQoTBX6fUQApo2z47Q4XBcjsJQaxo5T9UToDBA2fU
QDS6NUBki4jBBvH9QFTpCj/5kIDBNhLXQJ9el0DdlZ7BRsuRQHi2gEDA1pzBO432QHQDNMCJKoHB
EyS+QDNooUBQzKjBUnfUQGCkjkD2urLBYi1TQAbZUMB47pbB/yq9QKf0EEGsK6rBwMbkQJon9kDt
hLfBi/a9QNmCg0Bp6YvB0QkLQfsCIb9gknfBkRywQIDz0UB3+6nBn+CDQKL+bMAZMo3BzlSxQFag
gsBGxZDB4F3KQDf2lsBUfofB9KHSQIqs9UAx/qvB4b+4QGz2hkC+kZfBnXOWQB7FiEA8F6fBmHhX
QPngaEAMAZjBqNX6QEDH5L/avXPBGtHVQGLWbcBkAX/BFP79QI0Fl0B6WJ3BYGEHQS6dOsDO3YjB
HligQA5zwD/lsIzBtvoGQQPkeECBBITBhEXFQJ09Cb+X0YXBuSsZQfzA7z8lEHrBI77BQL9slkB0
7LnB7br0QLhonED7dbPBCOLWQG1dV0B35rHBACASQLSBP8DTW5TBIOJxQMUfGcDSsprB7MxPQBbb
gsBOupzBq7CvQECcEUE9DKLBuC/VQNyuHUHuHKvBNm2jQAE+E0EbELDB62f0QDVb10ACOLnBo4bK
QBJK+0BhPb3BJEn8QOQVCEE0SrjBJBqeQGk7hEDULIjBUdTQQHADn0DyGInBueEXQeSZa781VYHB
2RESQZzbn779QGjBG5aZQEVi00AtvLDBAVqfQA2W2kAQjaLBDo2FQLYeOMCWZofB6ARpQI5aksAT
bonBB1avQKugmcDMaZfBgSrCQJ9RS8A1eJPBqXC2QNu3r8CktYPBO8LnQD+npcAfporB6gXtQK+U
8UCcQqbB8DWCQHo5f0A92azBZ2MiQDlMYkCRZZzBALhVQLnGXUDhIJDBR5nqQNKY67/3+mXBeX7F
QAi8a8DmQHHBCZ7AQFD52j89dYnBISX/QN/kP0B52YPBlGHUQFyUBz+NxYXBVVQJQbi26T8HG4DB
Vf3VQGbVPEB3a4jBX0H9QKCCFz8U4YDBhozYQHGcjkA1Np/BDSGRQMjigkD8MZzB+CjgQNxLIsAC
F3PB5dXAQJAmi0DIwKnBP9jKQCUkPkB25q7Bpm1lQLgnUcBpTpfBs6qhQIoW8UDtB6rB/uffQICl
/UDHLbbBP/bAQPfTh0A024vBUJkJQZ61JL8HIHnBJWbLQN5SsECL5bHBfP6hQGLVUMDYE5TBjXeo
QLCEhsD3f4rB9AzYQJf6icBgkYfBaa/NQJZw30B1cq3BkT+5QIZDiUCWcpfBnp2TQNGLikB1habB
NM9XQBJQb0D70pbBz7b1QJW+tb+JuWvB/vHoQMSTQsBzrYPBLUv/QC3VkUCJ5p3BLOfFQC6uRMC1
VmfBwz2hQJmT1T+EEI3BEOAHQYVOfEC8OYPB42TEQKmo177TrIbBvB4ZQRxg7z+SOnnB78G5QIWH
OEDTj7bBS33tQLuqOEB5TLDBlWPAQPW6CkCHfKnBI+lbQCIYJsBuKp7BkTRSQIQ+icA8iZnBlTw+
QA8hO8DIiJDBIt2TQFNM3EAb06PB+oqlQE7TCEEf1abBWjGMQAHq8UAqALHBCmX/QA/i8UBhyrjB
lfHJQApg/kCrDb3BNUvjQFIOD0Gf4rLBHieiQEEAi0C3rIfBSO/VQLOtokAipYnBpPwOQbkoor8d
S4PBSoAXQVhmrr7/em/BR67qQIkLqUB7f7XB5ZKyQAzAr0A9IrjBSZ21QP/iZsD815rBS6GrQAWH
D8CI15HBBaqWQEXxc8AyloPBGUicQAh9psCLkYzBn9/bQDpNosBjR4HBTS3qQOqxk8CptY7Bt0rj
QEfd30A2gKbBoWJ1QBg4j0CyZqvB2L0gQI/HaUBu15rBTz9ZQOKqZEAJ8I7BlAHxQNOAkL9YmVzB
DcH7QJNhIMCQiYjB/jDBQGPy1j8p7IjBJ2P/QNqnQkAJVITByWHWQEuZCD95AoXBizQKQfrY8z/r
aYDBfJfVQMobPEDccIjBQQQAQU70Jj9tiIDBDRTYQNq8i0BFOJ/BohmQQIxAgkDHm5zBNyf2QAz/
KcCjioHBz3vBQJ6ih0Cw4qnB0DjLQBAdNUBRf67BxnFWQN6gRMAkrpbBUg/ZQM/U+UBOZLfBgbm6
QOHO6kBeVaXBgdi+QGtQhkDgBIzBinYMQdT6Bb/VD3jBH9vPQGFbq0CvFbLBJXaYQLBvS8CPBZLB
gzKaQOtpi8AKIIrBRgrIQALyk8BSXYbBxhW9QLH22UBZ57DBORG4QKwEh0DOpZfBVNWTQATkiEDk
+qbB0ypUQMqXckDmUZfBTiT+QFzS178N43PB2AbWQByUY8BYan7B/aX+QC5cj0C4qp3BCpQFQf6D
LsDf04nBAnahQDUAzD8ER4zBT6gHQcr8f0CIMITBC/3GQAU03b4PaoXB+z8aQRYD/z+ikHrBwRi7
QAiuLUCmQ7bBNfftQCjNLUDwkq/BRoO/QMvyA0Cf66jB+KdTQGLDDsDrVZzBpl1GQKgtgMDq4ZrB
HVooQIblOcBOKpDBG4LbQKrZ7kDvur/BLELKQBjhDEFaMrfBzzn5QMN1+0BJ17PBVBmnQO4A1UBZ
eKDBiS7bQGOU7EDu9KHB5zasQGhwBUH/T6XBeZWfQLwNiEB3/4fBjknSQM02okADv4nBKewYQe+a
Tr8s0YHBZgMUQYMzWb619mjBx97yQAkPrkBZfLHB0SPHQFjyn0CKHrrB2YivQP02VsCQh5jBFIeg
QDPBD8D0z43BVCyGQJrhg8AWI4PBn8mNQH5EqMACGY7BAC3JQH2xssAaF4LBvW3dQFFAlcCXWI3B
JZ+cQBkX2kAzTrTBbDZ3QLD0jUD/DKzBhlwdQGvwbkAGbZvBZzJUQMdXaUBnZ4/BXvnwQLOd5L9r
ZGXBy1LHQNYoXsDkRHDB6nDAQB+y0z/LN4nBM6P9QLCxQUAE/IPBErLVQCc/AT97YoXBalIJQR3U
8T/fH4DBuUzUQFPdOkDnV4jBb7f+QL2dIT9HkIDBqRHYQEzTjEC00J7BhQ6QQJZcgkBqdZzB/ar2
QJk0LcB9OYHBJsjBQL5MikD6i6nBgXPLQMJBPECxsa7BxGpcQNJ2SMCUMJjB7+CmQPjL8EDlD6nB
xx7lQFS1/ECoRbXBQIi9QJXShUCEvIvBga8LQajhCb+543fBzFTOQHedr0ALdbHB83WFQFLqZsBw
Fo7B6VCzQE7LgMBf85DBayvKQAABlMDkLIfBATHSQDUu3kDntqzBWpa3QOesh0DrW5fBvx2UQNDE
ikDPtqbBTQhUQCudbkDNbpfBh0H8QNbh2L+dvHPBOH7VQObPZcB35X7Blav+QDY5j0CfKp3BGOoG
QTKAM8A8IYnBPiChQL2NyD9czozBGZwGQbZRf0B/nYPBmd/GQKnf7r7kG4bBujEZQYpS/T8FknnB
xmK7QA7rN0BcgbbB9zHuQFowNUChy6/BlqG/QOkNCUBGbanBArIaQD1dNcDQIJbBMKl+QOpoEcBr
npvBeodaQBDDfMB7E57BUaiYQB++20C0+KLBEearQJhrCEGipKXBBi+RQJsY80DT96/Bzg4CQTw0
8EB3CLjB4PnOQDjs/kAUF7zB67DpQGdVDkHiw7HBzPudQPbmhkDD14fB+JfQQAydoUDSMYnBRj0Y
QcyKVL92p4HBoRsTQZDDY74WwWjBW4XtQO5kp0Ab+7TBa+a1QFCUsECvybfBE2WGQP+bMsDNM4jB
cKhoQBL7jsDdqIrBXUayQNbOmMAsYZfBGCTFQLwNScAOt5PBydC0QIJTq8A8T4PB3oLnQFs/pMD+
2InBsgfoQIov3UA90aXBWwl4QKKNkEBxxqvBQewdQIWDakCcrJvBbVZTQK3JYkAxko/Bch3tQNTK
4L8DrWXBQbjEQH1LYcA/UXHB

> <OMEGA_E>
2EyLPwA8Zz+EumE/ABtgP3DZXT9IaFg/

> <OMEGA_NBR>
     14648

$$$$
50156417
  -OEChem-04172616093D

 88 91  0     1  0  0  0  0  0999 V2000
    6.0560    1.7882  -17.2490 C   0  0  0  0  0  0  0  0  0  0  0  0
    7.9795    3.0949  -16.5013 C   0  0  0  0  0  0  0  0  0  0  0  0
    6.7040    0.6055  -16.8438 C   0  0  0  0  0  0  0  0  0  0  0  0
    8.6204    1.9203  -16.0884 C   0  0  0  0  0  0  0  0  0  0  0  0
    6.6912    3.0365  -17.0624 C   0  0  0  0  0  0  0  0  0  0  0  0
    7.9913    0.6728  -16.2462 C   0  0  0  0  0  0  0  0  0  0  0  0
    6.7466    4.4392  -19.8446 C   0  0  0  0  0  0  0  0  0  0  0  0
    4.5009    4.1445  -19.4672 C   0  0  0  0  0  0  0  0  0  0  0  0
    7.0290   -2.3842  -15.4221 C   0  0  0  0  0  0  0  0  0  0  0  0
    6.0729   -1.1909  -21.4238 C   0  0  0  0  0  0  0  0  0  0  0  0
    6.3573   10.7122  -22.9829 C   0  0  0  0  0  0  0  0  0  0  0  0
    5.0972   -0.2870  -20.6586 C   0  0  0  0  0  0  0  0  0  0  0  0
    7.4884   -0.5956  -21.4024 C   0  0  0  0  0  0  0  0  0  0  0  0
    5.5946   10.7071  -21.6397 C   0  0  0  0  0  0  0  0  0  0  0  0
    7.6044    9.8167  -22.9200 C   0  0  0  0  0  0  0  0  0  0  0  0
    5.0871    1.1296  -21.2403 C   0  0  0  0  0  0  0  0  0  0  0  0
    7.4900    0.8170  -22.0058 C   0  0  0  0  0  0  0  0  0  0  0  0
    5.5678    9.3225  -20.9628 C   0  0  0  0  0  0  0  0  0  0  0  0
    7.2501    8.3453  -22.6117 C   0  0  0  0  0  0  0  0  0  0  0  0
    6.5109    1.7535  -21.2616 C   0  0  0  0  0  0  0  0  0  0  0  0
    5.8505    8.1742  -21.9548 C   0  0  0  0  0  0  0  0  0  0  0  0
    6.0120    4.3290  -21.1654 C   0  0  2  0  0  0  0  0  0  0  0  0
    3.6065   -3.2470  -19.0777 C   0  0  0  0  0  0  0  0  0  0  0  0
    6.0011    4.3248  -17.4396 C   0  0  0  0  0  0  0  0  0  0  0  0
    8.7058   -0.5360  -15.6738 C   0  0  0  0  0  0  0  0  0  0  0  0
    6.5321    3.1280  -21.9957 C   0  0  0  0  0  0  0  0  0  0  0  0
    5.7645    6.8661  -21.1635 C   0  0  0  0  0  0  0  0  0  0  0  0
    6.1584    5.6231  -21.9969 C   0  0  0  0  0  0  0  0  0  0  0  0
    4.5111   -3.7765  -17.9656 C   0  0  0  0  0  0  0  0  0  0  0  0
    5.9940   -3.4740  -18.2709 C   0  0  0  0  0  0  0  0  0  0  0  0
    6.8880   -4.1236  -17.2026 C   0  0  0  0  0  0  0  0  0  0  0  0
    5.7536    4.3697  -18.8806 N   0  0  0  0  0  0  0  0  0  0  0  0
    4.6075    4.1704  -20.7757 N   0  3  0  0  0  0  0  0  0  0  0  0
    3.3163    3.9176  -18.7828 N   0  0  0  0  0  0  0  0  0  0  0  0
    8.1144   -1.8059  -16.0689 N   0  0  0  0  0  0  0  0  0  0  0  0
    6.5485   -3.5978  -15.8720 N   0  0  0  0  0  0  0  0  0  0  0  0
    7.9497    4.6086  -19.6763 O   0  0  0  0  0  0  0  0  0  0  0  0
    6.4621   -1.8230  -14.4907 O   0  0  0  0  0  0  0  0  0  0  0  0
    5.0764    1.7413  -17.7012 H   0  0  0  0  0  0  0  0  0  0  0  0
    8.4755    4.0476  -16.3886 H   0  0  0  0  0  0  0  0  0  0  0  0
    6.2233   -0.3510  -16.9870 H   0  0  0  0  0  0  0  0  0  0  0  0
    9.6042    1.9730  -15.6460 H   0  0  0  0  0  0  0  0  0  0  0  0
    6.0910   -2.1846  -20.9523 H   0  0  0  0  0  0  0  0  0  0  0  0
    5.7360   -1.2859  -22.4666 H   0  0  0  0  0  0  0  0  0  0  0  0
    5.6900   10.3422  -23.7753 H   0  0  0  0  0  0  0  0  0  0  0  0
    6.6668   11.7418  -23.2153 H   0  0  0  0  0  0  0  0  0  0  0  0
    4.0847   -0.7112  -20.7281 H   0  0  0  0  0  0  0  0  0  0  0  0
    5.4035   -0.2400  -19.6032 H   0  0  0  0  0  0  0  0  0  0  0  0
    7.8436   -0.5450  -20.3625 H   0  0  0  0  0  0  0  0  0  0  0  0
    8.1604   -1.2398  -21.9884 H   0  0  0  0  0  0  0  0  0  0  0  0
    6.0815   11.4202  -20.9583 H   0  0  0  0  0  0  0  0  0  0  0  0
    4.5582   11.0260  -21.8248 H   0  0  0  0  0  0  0  0  0  0  0  0
    8.1217    9.8609  -23.8898 H   0  0  0  0  0  0  0  0  0  0  0  0
    8.2717   10.1934  -22.1309 H   0  0  0  0  0  0  0  0  0  0  0  0
    4.7002    1.0896  -22.2692 H   0  0  0  0  0  0  0  0  0  0  0  0
    4.4300    1.7624  -20.6257 H   0  0  0  0  0  0  0  0  0  0  0  0
    8.5055    1.2340  -21.9363 H   0  0  0  0  0  0  0  0  0  0  0  0
    7.1908    0.7544  -23.0625 H   0  0  0  0  0  0  0  0  0  0  0  0
    6.3321    9.3016  -20.1719 H   0  0  0  0  0  0  0  0  0  0  0  0
    4.5744    9.1669  -20.5169 H   0  0  0  0  0  0  0  0  0  0  0  0
    7.2654    7.7777  -23.5538 H   0  0  0  0  0  0  0  0  0  0  0  0
    8.0092    7.9396  -21.9268 H   0  0  0  0  0  0  0  0  0  0  0  0
    6.8585    1.8931  -20.2273 H   0  0  0  0  0  0  0  0  0  0  0  0
    5.0813    8.1768  -22.7411 H   0  0  0  0  0  0  0  0  0  0  0  0
    2.5575   -3.4745  -18.8372 H   0  0  0  0  0  0  0  0  0  0  0  0
    3.7343   -2.1581  -19.1670 H   0  0  0  0  0  0  0  0  0  0  0  0
    3.8767   -3.7272  -20.0298 H   0  0  0  0  0  0  0  0  0  0  0  0
    5.0420    4.3919  -16.9052 H   0  0  0  0  0  0  0  0  0  0  0  0
    6.6395    5.1743  -17.1553 H   0  0  0  0  0  0  0  0  0  0  0  0
    9.7504   -0.5173  -16.0179 H   0  0  0  0  0  0  0  0  0  0  0  0
    8.6800   -0.4674  -14.5762 H   0  0  0  0  0  0  0  0  0  0  0  0
    7.5709    3.3412  -22.2883 H   0  0  0  0  0  0  0  0  0  0  0  0
    5.9076    3.0417  -22.8971 H   0  0  0  0  0  0  0  0  0  0  0  0
    6.4404    6.9357  -20.2984 H   0  0  0  0  0  0  0  0  0  0  0  0
    4.7303    6.7377  -20.8114 H   0  0  0  0  0  0  0  0  0  0  0  0
    7.2042    5.7250  -22.3224 H   0  0  0  0  0  0  0  0  0  0  0  0
    5.5044    5.5596  -22.8791 H   0  0  0  0  0  0  0  0  0  0  0  0
    4.2336   -3.2956  -17.0160 H   0  0  0  0  0  0  0  0  0  0  0  0
    4.3759   -4.8647  -17.8788 H   0  0  0  0  0  0  0  0  0  0  0  0
    6.2534   -3.8795  -19.2600 H   0  0  0  0  0  0  0  0  0  0  0  0
    6.1530   -2.3856  -18.2677 H   0  0  0  0  0  0  0  0  0  0  0  0
    6.7350   -5.2128  -17.2134 H   0  0  0  0  0  0  0  0  0  0  0  0
    7.9417   -3.8991  -17.4245 H   0  0  0  0  0  0  0  0  0  0  0  0
    3.8416    4.0931  -21.4140 H   0  0  0  0  0  0  0  0  0  0  0  0
    2.4686    3.7596  -19.2892 H   0  0  0  0  0  0  0  0  0  0  0  0
    3.3097    3.9120  -17.7828 H   0  0  0  0  0  0  0  0  0  0  0  0
    8.5113   -2.2891  -16.8493 H   0  0  0  0  0  0  0  0  0  0  0  0
    5.9521   -4.1350  -15.2755 H   0  0  0  0  0  0  0  0  0  0  0  0
  1  3  2  0  0  0  0
  1  5  1  0  0  0  0
  2  4  1  0  0  0  0
  2  5  2  0  0  0  0
  3  6  1  0  0  0  0
  4  6  2  0  0  0  0
  5 24  1  0  0  0  0
  6 25  1  0  0  0  0
  7 22  1  0  0  0  0
  7 32  1  0  0  0  0
  7 37  2  0  0  0  0
  8 32  1  0  0  0  0
  8 33  2  0  0  0  0
  8 34  1  0  0  0  0
  9 35  1  0  0  0  0
  9 36  1  0  0  0  0
  9 38  2  0  0  0  0
 10 12  1  0  0  0  0
 10 13  1  0  0  0  0
 11 14  1  0  0  0  0
 11 15  1  0  0  0  0
 12 16  1  0  0  0  0
 13 17  1  0  0  0  0
 14 18  1  0  0  0  0
 15 19  1  0  0  0  0
 16 20  1  0  0  0  0
 17 20  1  0  0  0  0
 18 21  1  0  0  0  0
 19 21  1  0  0  0  0
 20 26  1  0  0  0  0
 21 27  1  0  0  0  0
 22 26  1  0  0  0  0
 22 28  1  0  0  0  0
 22 33  1  0  0  0  0
 23 29  1  0  0  0  0
 24 32  1  0  0  0  0
 25 35  1  0  0  0  0
 27 28  1  0  0  0  0
 29 30  1  0  0  0  0
 30 31  1  0  0  0  0
 31 36  1  0  0  0  0
  1 39  1  0  0  0  0
  2 40  1  0  0  0  0
  3 41  1  0  0  0  0
  4 42  1  0  0  0  0
 10 43  1  0  0  0  0
 10 44  1  0  0  0  0
 11 45  1  0  0  0  0
 11 46  1  0  0  0  0
 12 47  1  0  0  0  0
 12 48  1  0  0  0  0
 13 49  1  0  0  0  0
 13 50  1  0  0  0  0
 14 51  1  0  0  0  0
 14 52  1  0  0  0  0
 15 53  1  0  0  0  0
 15 54  1  0  0  0  0
 16 55  1  0  0  0  0
 16 56  1  0  0  0  0
 17 57  1  0  0  0  0
 17 58  1  0  0  0  0
 18 59  1  0  0  0  0
 18 60  1  0  0  0  0
 19 61  1  0  0  0  0
 19 62  1  0  0  0  0
 20 63  1  0  0  0  0
 21 64  1  0  0  0  0
 23 65  1  0  0  0  0
 23 66  1  0  0  0  0
 23 67  1  0  0  0  0
 24 68  1  0  0  0  0
 24 69  1  0  0  0  0
 25 70  1  0  0  0  0
 25 71  1  0  0  0  0
 26 72  1  0  0  0  0
 26 73  1  0  0  0  0
 27 74  1  0  0  0  0
 27 75  1  0  0  0  0
 28 76  1  0  0  0  0
 28 77  1  0  0  0  0
 29 78  1  0  0  0  0
 29 79  1  0  0  0  0
 30 80  1  0  0  0  0
 30 81  1  0  0  0  0
 31 82  1  0  0  0  0
 31 83  1  0  0  0  0
 33 84  1  0  0  0  0
 34 85  1  0  0  0  0
 34 86  1  0  0  0  0
 35 87  1  0  0  0  0
 36 88  1  0  0  0  0
M  CHG  1  33   1
M  END
> <OMEGA_C>
IcvBQH7j5D8C/onBHFj/QG0SRkC0AoTBGofWQDAEGz8VwIbBD+0JQTrN9T8ktYDBFh7WQAxWQkDd
f4jBiLj/QPU5LD8o+IHBX+TXQAwOjkCtwZ7BGAeQQKyfhEDRvJvBRu3gQCuXGMAMwXbBz1TCQMZu
mL/jY6vB1m7LQPtkK0EA3bfBhhyjQJ71kr7jRKXBBqHvQJF6GL8JOKvBmwazQC1QK0EvHq3B4Fbz
QCIRHUE7XLfB7smiQIiWkD8M7KnB1q3vQBIpUT/cC7DBjSuyQNEoFUHQs6fBtQDoQHeGBUG35LTB
LVnQQLxz4D+6F6rBXje7QF3JAkFho6/BVmLAQP+GikDKUqnBjNBmQIrPT8Adn5jBTQnAQB5likBl
hIvB8EoLQfs5Cb/cx3rBWgfRQFswSEAy96/B2Ha4QFa320DHTqnB4BHFQD/ws0C4+a/B7FqQQIax
ccCTuY/BAs+/QBNWXsDfKpLBa2rcQDH0g8ACn4nBZR24QNfUi0BkC5fBanCTQLNzhUCmNKbB5D1U
QNG5ekApQ5bBrNQBQW4n578wjYDB84zRQM5CZsCj833BMmT+QJx5k0AWaZ3BecnOQJJZ6b/72WfB
snGiQAvi3j8JnI3B2psHQcSFgUD0G4PBjCXHQAWws75X5YfBwKoZQUiL/D8bVnrBrunCQA7QC8Bn
nqfBfY23QBmYpL+gu7PBtxS2QHp5JUHPM77BkFbVQGfeO0EBubnBtrWCQDERNr8a06XBMemsQPa4
db5M05zBx/76QIaCC79x5qLB+JACQXyynr886K/Bm5vCQCW5NkGgqqfBvtyRQHFqMEE3ma7BYvIB
QUjGHUFKHr/BB1kEQSAYI0EiDLHBF2iWQHN3iz9GJ7LBSMKNQKWW4T97AaXBlBYIQT/znT+bfa/B
CRvmQDsgQT/xf7jBO6DKQGrTFEEVYKHBI2GSQKOrEkGUIqTB533oQPPi+EAnbrzBwyUAQQkR/kAL
aq/BO3nbQJRR8j+c0aHBHpqiQDPUAkHO7bXBYK0jQLddXsCdspbBnv5uQBAfCsDwVZnBdRt4QK+K
bsDxPKDBblihQGaKjEDRPYfBFXfUQNKTpUD3PYnBuwEcQXFsBL+jJIDBPOEKQWJM775KOGnBc0Ty
QAPWVUByTrLBNwu9QNarQkBGLbfBdhfOQO/w3UASY6LBsF6XQHyb10DCfabBD4nmQDczt0A9lLLB
LySwQGDosUBrCLfBUHmHQBzrUsDKIIjBuweMQF6rm8DLB4/BoBvIQHJJeMCNFJrBSOXEQPOsGMA0
JJLB0oTXQFXPpsAQtYnByiL+QDGLecBlZYvBd9x1QKP6gkDoT6vBl/0dQBydcEBaUJrB59JTQNJd
ekA8Q47BXi4IQTaAEsBsy4bBrHe+QBJShMBuaHTBKOfAQEOc4D8naYnBEIL9QNKgSEBL3IPBt5HW
QKRaGj8vzoXBPHoJQStH/z+FPoDBGyvUQNKeQUDhMojBkmz/QOJwOz+o5oDBj4bXQE20jEBFdZ7B
jzaPQOP4g0Au/5vBdOb6QIkMJsBes4LB2ZLBQHU2mr/ohKvBulTdQMkjLkHQ87LB7CmjQKkLk759
RKXBMBLvQATTH79irqvBwh+wQKoVKkHng67B5HPrQNrNG0G8XrrBqiWjQCrOkD9p1KnBeAjvQEpX
Sj/qdrDBE0OuQBmoFEHLkqjBLsnpQA82BkFKh7TBTejQQA3I3T8QMarBNYW8QIcQAkG34q/BtEHB
QNPtiUDIMKnBNH9bQH60T8B07ZjBPBS9QLEniUAKa4vB5fYLQbF/3b6QWHjBVtrRQLBQR0A35q/B
vGy7QJFR20DlIanBVcjHQB9Ss0A9sa/BitKIQPRWcsDzt4/BXBS4QNY0dsDZApPBbmfSQFFPkMDk
GIrB0s22QOVRikAz/5bBCNSTQDShhUAebqbBoFxRQOwzeUClz5bB3K39QNUH0L8kzXXBxHTbQONs
Y8CnloHByN39QHMAkkAg1JzBLZcJQbgsJsDAborB072hQLZh1T+eFI3Bbl4GQQxDg0DGUYPBOzfI
QIGOvr5kw4bB3F0ZQU1nBUDZ2XnBhz/CQLN2DMC0r6fB3e+1QBAQp78UybPBs1XdQKc3PUHofbfB
RvjzQBJfL0H4PazBhYmCQFg1Mr/yuKXBvXitQOsYgL7I25zBznj7QMLgFL/Vc6PBv+EBQUP9or8k
jbDBip6nQBcMN0GU9KjBECuZQO7LKUFSL7XBFf/VQDg5G0EVV8HBRDUGQRDLHkEmEr3BuBeWQLpn
jT/Z/7HBptKOQPh44j/nxaTBid8HQcPzmD8KLrDBZ0DkQIqdPD+g1LjBDZHDQPNfFUHVk6HBazqN
QFvCEUHI5qXBhdbxQKe58kATMrrBWpcAQUVQBkEz9K3BG/DcQKqq7D9c+aHBtailQD2EAEE4iLbB
S+8XQPA7TcA8eZbBxmxxQPTzDsBKB5vB4CZiQDv7ecAw6p/BULqdQM4qikDQbIfBqCfQQNIPpUDI
9ojBs3QZQZ4TLL8+fYHBlhsSQbdKC77kjGjBWivzQAzjVEBNLbLB+gG+QEukQkDWJLfB2w7SQOXK
3kDrcqLB/d+aQJv31kDL9qXB4aPpQMnCtUBTBbLBjLuzQEP0sUDM6rbBUWKFQIwBSMB2vYjBvX57
QGmEmcBdoI3BZDW7QGTljcApaZrBlQbEQLLoNMCqY5TB+jrAQO5eq8C5xobBdcPwQDsGnMDPc43B
Qb93QIUshEDSuKvBfugbQJ83cECSEJvBqz5PQOyOd0Bx0Y7BlRbtQNNV378SQWjBE4jKQDv6ZcDq
nHXBQAy8QDN53j9KT4nBPDb9QFaJOkCO9IPBKFvOQGePBD+lA4bB97UHQXDQ2T+8rYDBsG/TQIE1
PEAhKojB0hD4QEYgAT9KnoHBtHzXQD5oi0CKmZ7BGmePQI3ohEAjbpvB8CH7QP3HOcBfdofBGFC8
QFLhm78rhKvBEHngQJSMLUHvQbPBsoOfQPtOmb7jxqTBWv3pQFT9KL9vDKzBeH6zQFcAKkFLkq7B
qlXtQH/yGkEDqLrB5OmeQFZ8jz/KY6nBQPfpQNwgQj+/tbDBkEqxQNyvFEE6iKjBtC/rQKBzBUE+
ubTB0NzMQACJ2j/QNKrBnBm+QPjbAUH/2q/B3m+/QPVuiUBzHKnBiyVsQLH8UsCmT5rBwiLAQGGg
iEBYSYvBBRAGQVy6Rr9ki3vB0pbNQCJqRUCw+q/Bio28QHoH20D7DKnBWk3GQLyWskDTs6/B7JOf
QF4VYsALCZTBZHaUQN/scsDmNojBhne7QJuAiMBRvIHBku+3QFBGikDkz5bB5GWSQPp0hkDh5qXB
pOpSQAMtfUD95ZXBAKUIQeAa27+otobBpE7aQL2mS8A9S4DBEEX+QPa9jkD1WJ3BmJgCQZGqbMAd
e47BGkOcQL2i4D/hsozBOqEHQXY2dUAiQIPBtp28QAx4zr5r14bBw7cXQVbA1z9X2nrBMBG9QAf8
DcAC3qfBQz6vQLL3pL/eqrPBCqjgQJqJPEG73rfBp7H3QASzLkFIq6zB9H59QKuJM7+bwaTBZ8ar
QJ/kh75PiJzBrJr3QGFQIr+m76PBAqD9QCQIqL/iJ7HBMfSrQIchN0HJBanByvubQBbVKUHIHrXB
qmPXQO96GkFjiMHB4BwHQeiNHUHUgb3Bq4+QQK8TjD8YbLHB9I+LQGwB4j/iJqTBFW0FQdY8kz/N
mbDBvlfeQFe/Nz+RArnBMUPHQNNIFUHTqaHBq2aQQA0sEkH9qKXBb0PyQHjg8EDNYLrB6YgBQcpl
BUFaQq7BPxbaQEec6T8GG6LBAa2mQI+FAEHSY7bBWnZ7QPzmRsA4xKLB3g5DQDH4hcCvsZnB4V5K
QKBLG8C3+JbB1sqhQKIMjUAj94bBBHTWQPFsokCuHYnBotYVQSecDr8Qk3TBPXb3QFS1nb/WTW/B
BoDuQEpOUUBoubLBqR24QJlzQUA877bBEWDUQDmw3UA+m6LBHWicQPLw10CxjKXB1snnQA3Ns0DX
ZbLBdPqwQCbqsUCws7bBXH+wQHHnjMAyW5fBXSe0QB8qKcA7opTBnjSIQOdhN8A7qITBrCh3QAtQ
ksDE1IfBw6mwQB2jk8BKrHPBghLLQGgHo8CsAYbBqCxzQPu2hUBq86rBBgkcQKO1dUAi6JnBQxNT
QOGGe0Ct5o3BhusSQc3ovL9NjIzBCKbXQL3tJsAnjXPBVim4QMkw9j8RkYbBQZcBQe7tJkCOk4bB
7RPEQHF7JD9a8YLBRIoHQZI7qj+R4YLBpJrXQMKtOkCURIjBTYDvQFUfsz705YDBRjzdQB8Tj0Co
np/BhGeWQKrXg0DlepvBz+n/QO6sPsBzgYnBkK+8QI/VkL+X56rBDF7SQFzqMEEKabLB/JCbQAlj
AL5vnabBTI/qQNLdEL/wIqrBjBukQOdmK0FKHq/BRIzlQHQwH0E6grnBPm6fQOajmz9ug6zBi0Hu
QPioTD+I1q/BgU6iQBmmFUGeWanBlwvkQFdZCUFj2LPBgF7NQCCU5j84OKvBi7q1QOmZA0HtWbDB
1QvDQHg6jEDN3anBO78XQaEACMHmUJDBEbnKQC3niUBh5ovBMV/8QEHOgb9rbnnBCinSQIG4S0D/
5bDBRNC0QAlI3UDg26nBBNnFQK9dtkDOWbDBbCgMQSBK68APH5bBcgoRQan0v8D1t5DBt6AFQUV1
m8DZu5bBX7m/QJbcikAnXpfBhg2XQLBnhkBv+6XB6DRjQIxteECdipXB/S0IQfYb5r+6UYXBivkK
QQSCY8AsAZLBdwQCQXwvlECw3Z7Bw1jfQP2wX8D23YXBOeCWQBZpCUDyDIjBELcNQZKcVkAbHojB
tverQCsA7r1PuoHBXjYYQQKojD+/j4HBxsC6QEupA8DuLKbB8GO1QEU7rb8hVLPB1VXSQFoTQEFo
4bbBSRHmQLWnMkFtK6vBTmt2QM4JCL8p0qfBlyShQCAqED2HBZ7ByAjzQI8x4b6yp6HBYG4AQbM6
o7/n5a3BSP+XQMzoN0HGt6nBlvCPQPe0KkGFUrbB3CTTQMc2HkGG/sDB0oQDQYwwI0ExVrvBybmY
QNPfhz9BELXBdBeIQFl29j+sK6nBql0HQQRlmT+Frq7BHCToQAb5KT+nb7jBOni0QPjAFkET1aHB
n7uAQAm9EUEDkqfBsNrvQAru+UB7W7nB7az4QJ/rCUGGuKzBXOPTQETR9z+ko6LB4dyhQNWeAUFM
jLfBogoUQWtBF8HfS5TB3R0pQYI0BcE6jpDBM18SQWarCMFu8YfBgb+uQBVUlEDkPIfB8orlQIL2
n0AvdorB8aYJQRs8ZL9GOWzBMczfQMx1xb8Ll3PBcBP0QDdFVUDT7bLB1fq+QN3MSkC+RrjBdtDI
QN9V4UBSsKLBkpyTQOm51kBccKfBOnrnQAg+vECtfrLB5K2yQJL6skDOrrfBKo0RQckt6sBKfp7B
AZ31QJIb8cB/4ZXBOGULQZbEwMDUYojBkWgiQaJGusAV15DB960KQUTFm8DCKZ/BKHToQH5loMBk
RJbBY2F6QKOihEArrKrBpgYrQF2hcEBPP5nB42lmQJ4+dUC5j43B2+cVQSJcur+LY4jBmlIXQe4s
Q8A4GJXB

> <OMEGA_E>
MEx3PtAz4z4Ahuo+7nFLPw==

> <OMEGA_NBR>
     20310

$$$$
50156415
  -OEChem-04172616093D

 69 71  0     1  0  0  0  0  0999 V2000
    6.0590    1.7522  -17.2536 C   0  0  0  0  0  0  0  0  0  0  0  0
    8.0095    3.0399  -16.5425 C   0  0  0  0  0  0  0  0  0  0  0  0
    6.6860    0.5675  -16.8162 C   0  0  0  0  0  0  0  0  0  0  0  0
    8.6268    1.8646  -16.0939 C   0  0  0  0  0  0  0  0  0  0  0  0
    6.7189    2.9937  -17.1028 C   0  0  0  0  0  0  0  0  0  0  0  0
    7.9636    0.6291  -16.2051 C   0  0  0  0  0  0  0  0  0  0  0  0
    6.7574    4.5025  -19.9068 C   0  0  0  0  0  0  0  0  0  0  0  0
    4.5280    4.1364  -19.5104 C   0  0  0  0  0  0  0  0  0  0  0  0
    7.0601   -2.4959  -15.2893 C   0  0  0  0  0  0  0  0  0  0  0  0
    6.1542   -1.1618  -21.3949 C   0  0  0  0  0  0  0  0  0  0  0  0
    5.2230   -0.2589  -20.5716 C   0  0  0  0  0  0  0  0  0  0  0  0
    7.5526   -0.5361  -21.4926 C   0  0  0  0  0  0  0  0  0  0  0  0
    5.1349    1.1463  -21.1907 C   0  0  0  0  0  0  0  0  0  0  0  0
    7.4788    0.8677  -22.1196 C   0  0  0  0  0  0  0  0  0  0  0  0
    6.5402    1.8059  -21.3217 C   0  0  0  0  0  0  0  0  0  0  0  0
    6.0100    4.4023  -21.2173 C   0  0  1  0  0  0  0  0  0  0  0  0
    6.1490    5.7242  -22.0088 C   0  0  0  0  0  0  0  0  0  0  0  0
    3.5468   -3.3633  -18.9750 C   0  0  0  0  0  0  0  0  0  0  0  0
    6.0463    4.2919  -17.4910 C   0  0  0  0  0  0  0  0  0  0  0  0
    8.6535   -0.6073  -15.6761 C   0  0  0  0  0  0  0  0  0  0  0  0
    6.4982    3.1883  -22.0658 C   0  0  0  0  0  0  0  0  0  0  0  0
    5.0433   -3.3842  -18.6505 C   0  0  0  0  0  0  0  0  0  0  0  0
    5.2744   -4.1662  -17.3560 C   0  0  0  0  0  0  0  0  0  0  0  0
    6.7748   -4.2589  -17.0418 C   0  0  0  0  0  0  0  0  0  0  0  0
    5.7843    4.3581  -18.9312 N   0  0  0  0  0  0  0  0  0  0  0  0
    4.6105    4.2520  -20.8153 N   0  3  0  0  0  0  0  0  0  0  0  0
    3.3630    3.8233  -18.8259 N   0  0  0  0  0  0  0  0  0  0  0  0
    7.7400   -1.3837  -14.8314 N   0  0  0  0  0  0  0  0  0  0  0  0
    7.3023   -2.9830  -16.5699 N   0  0  0  0  0  0  0  0  0  0  0  0
    7.9695    4.6076  -19.7525 O   0  0  0  0  0  0  0  0  0  0  0  0
    6.2658   -3.0500  -14.5385 O   0  0  0  0  0  0  0  0  0  0  0  0
    5.0776    1.7116  -17.7026 H   0  0  0  0  0  0  0  0  0  0  0  0
    8.5258    3.9847  -16.4582 H   0  0  0  0  0  0  0  0  0  0  0  0
    6.1939   -0.3850  -16.9464 H   0  0  0  0  0  0  0  0  0  0  0  0
    9.6154    1.9076  -15.6611 H   0  0  0  0  0  0  0  0  0  0  0  0
    6.2298   -2.1453  -20.9080 H   0  0  0  0  0  0  0  0  0  0  0  0
    5.7399   -1.2844  -22.4065 H   0  0  0  0  0  0  0  0  0  0  0  0
    4.2180   -0.7053  -20.5464 H   0  0  0  0  0  0  0  0  0  0  0  0
    5.6138   -0.1773  -19.5466 H   0  0  0  0  0  0  0  0  0  0  0  0
    7.9846   -0.4586  -20.4839 H   0  0  0  0  0  0  0  0  0  0  0  0
    8.1921   -1.1772  -22.1171 H   0  0  0  0  0  0  0  0  0  0  0  0
    4.6831    1.0680  -22.1906 H   0  0  0  0  0  0  0  0  0  0  0  0
    4.5022    1.7790  -20.5509 H   0  0  0  0  0  0  0  0  0  0  0  0
    8.4885    1.3039  -22.1356 H   0  0  0  0  0  0  0  0  0  0  0  0
    7.1016    0.7783  -23.1490 H   0  0  0  0  0  0  0  0  0  0  0  0
    6.9572    1.9587  -20.3153 H   0  0  0  0  0  0  0  0  0  0  0  0
    5.6025    5.6418  -22.9599 H   0  0  0  0  0  0  0  0  0  0  0  0
    5.7313    6.5517  -21.4165 H   0  0  0  0  0  0  0  0  0  0  0  0
    7.2121    5.9193  -22.2127 H   0  0  0  0  0  0  0  0  0  0  0  0
    3.3807   -2.8011  -19.9058 H   0  0  0  0  0  0  0  0  0  0  0  0
    3.1844   -4.3944  -19.1000 H   0  0  0  0  0  0  0  0  0  0  0  0
    3.0000   -2.8797  -18.1521 H   0  0  0  0  0  0  0  0  0  0  0  0
    5.0915    4.3738  -16.9511 H   0  0  0  0  0  0  0  0  0  0  0  0
    6.7002    5.1302  -17.2090 H   0  0  0  0  0  0  0  0  0  0  0  0
    8.9808   -1.2292  -16.5223 H   0  0  0  0  0  0  0  0  0  0  0  0
    9.5290   -0.3069  -15.0817 H   0  0  0  0  0  0  0  0  0  0  0  0
    7.5153    3.4116  -22.4201 H   0  0  0  0  0  0  0  0  0  0  0  0
    5.8234    3.0866  -22.9285 H   0  0  0  0  0  0  0  0  0  0  0  0
    5.5901   -3.8678  -19.4734 H   0  0  0  0  0  0  0  0  0  0  0  0
    5.4057   -2.3531  -18.5255 H   0  0  0  0  0  0  0  0  0  0  0  0
    4.7624   -3.6541  -16.5279 H   0  0  0  0  0  0  0  0  0  0  0  0
    4.8651   -5.1810  -17.4686 H   0  0  0  0  0  0  0  0  0  0  0  0
    6.9305   -5.0200  -16.2630 H   0  0  0  0  0  0  0  0  0  0  0  0
    7.3137   -4.5528  -17.9546 H   0  0  0  0  0  0  0  0  0  0  0  0
    3.8318    4.2393  -21.4426 H   0  0  0  0  0  0  0  0  0  0  0  0
    2.5131    3.6694  -19.3298 H   0  0  0  0  0  0  0  0  0  0  0  0
    3.3730    3.7513  -17.8286 H   0  0  0  0  0  0  0  0  0  0  0  0
    7.6033   -1.0958  -13.8835 H   0  0  0  0  0  0  0  0  0  0  0  0
    7.8613   -2.4358  -17.1928 H   0  0  0  0  0  0  0  0  0  0  0  0
  1  3  2  0  0  0  0
  1  5  1  0  0  0  0
  2  4  1  0  0  0  0
  2  5  2  0  0  0  0
  3  6  1  0  0  0  0
  4  6  2  0  0  0  0
  5 19  1  0  0  0  0
  6 20  1  0  0  0  0
  7 16  1  0  0  0  0
  7 25  1  0  0  0  0
  7 30  2  0  0  0  0
  8 25  1  0  0  0  0
  8 26  2  0  0  0  0
  8 27  1  0  0  0  0
  9 28  1  0  0  0  0
  9 29  1  0  0  0  0
  9 31  2  0  0  0  0
 10 11  1  0  0  0  0
 10 12  1  0  0  0  0
 11 13  1  0  0  0  0
 12 14  1  0  0  0  0
 13 15  1  0  0  0  0
 14 15  1  0  0  0  0
 15 21  1  0  0  0  0
 16 17  1  0  0  0  0
 16 21  1  0  0  0  0
 16 26  1  0  0  0  0
 18 22  1  0  0  0  0
 19 25  1  0  0  0  0
 20 28  1  0  0  0  0
 22 23  1  0  0  0  0
 23 24  1  0  0  0  0
 24 29  1  0  0  0  0
  1 32  1  0  0  0  0
  2 33  1  0  0  0  0
  3 34  1  0  0  0  0
  4 35  1  0  0  0  0
 10 36  1  0  0  0  0
 10 37  1  0  0  0  0
 11 38  1  0  0  0  0
 11 39  1  0  0  0  0
 12 40  1  0  0  0  0
 12 41  1  0  0  0  0
 13 42  1  0  0  0  0
 13 43  1  0  0  0  0
 14 44  1  0  0  0  0
 14 45  1  0  0  0  0
 15 46  1  0  0  0  0
 17 47  1  0  0  0  0
 17 48  1  0  0  0  0
 17 49  1  0  0  0  0
 18 50  1  0  0  0  0
 18 51  1  0  0  0  0
 18 52  1  0  0  0  0
 19 53  1  0  0  0  0
 19 54  1  0  0  0  0
 20 55  1  0  0  0  0
 20 56  1  0  0  0  0
 21 57  1  0  0  0  0
 21 58  1  0  0  0  0
 22 59  1  0  0  0  0
 22 60  1  0  0  0  0
 23 61  1  0  0  0  0
 23 62  1  0  0  0  0
 24 63  1  0  0  0  0
 24 64  1  0  0  0  0
 26 65  1  0  0  0  0
 27 66  1  0  0  0  0
 27 67  1  0  0  0  0
 28 68  1  0  0  0  0
 29 69  1  0  0  0  0
M  CHG  1  26   1
M  END
> <OMEGA_C>
ROPBQHZI4D9wB4rBwCYAQeSNQkAgV4TBvvPVQFZFET+Fh4bBeQcKQWms7j82wIDBbgHXQGCZP0B4
0ojB99X+QHIMIT8KpIHBWDzYQIUUkEAJQZ/BnOWQQHZdhEBFFZzBZuzhQAC9H8AQoXTBHe/EQFC3
lL+rKKvBLSOnQFiThL61kqTBFa/xQGw7Cb/A8KvBdFGkQBu7kj+YhqnBWVLvQN4hXj/u9LDBQEnR
QDYn5z/BkqrBI1LAQM3fjEABvanBOsTEQD8st0AAErDBev5iQPRAV8DUzJfBlXvBQONWiUCq7YvB
4HQKQch1G79Y0XrBHfHPQHAMTECohrDB1WKhQNSWWMA5NJXBl8eoQHJRhcAb2YrBX8vYQB9JiMCQ
VYjBBxm5QHB1i0Awc5fB4oiTQIMQiEDThabBzjtXQCywdECLm5bBw633QPgcsb9ZTW3Br6zpQCzp
PsAWj4TBOwb/QDNxk0AlBZ7BbYHIQMwzQ8DinWjBj3uiQCYV2z/0no3Bn2kIQeQFf0BiqoPBQzTG
QF0jxb43kofBoNgZQZ4s9D/Dk3rBs1rHQBJNCcCSQ6fBDK23QJxmpL9rQLPBvPmGQB+NNL8LX6TB
faSzQBuUNb6CX5zBMoL/QH3J6r4P36PB5BIDQXetlr/J77DB0NuVQNSziD9FhrHBrhGQQKO14z9J
aKTBytAHQbXnpj/DFbHBRUDjQJRBRz81MbnBP6HeQC64+j+9haLBbkezQKKJtEDWrbfBlGa3QCSn
0UAJVavB08nmQNtqvUCDs7HBQV1YQPdEM8D+Pp/Bjs1LQN2ejMDSzJjB5/8/QMxNOMCIN5HBpu2i
QF72i0DEm4fBa2jWQKkqpED4q4nBRbEPQRFXnb+6LYTByHYYQRUjnb6RTnHBU33wQNdXWkBwXLPB
FFm6QGWKRUCEbbfBD+KyQO6Jd8CJyZvBPPusQAGaFsA+NJTB7GWYQF3dacAtOYTBsK6bQKTKpcCr
v4vB3sbdQCakoMCqGoLBignqQG+wkcAVo4/BjDt1QDeoh0B4iqvBLdYgQFzXakCEo5rBud9XQMwV
cEDzoI7BIU7zQHxDjL/oIl7BrY/7QFrjG8DzionBAuDBQIA61z86oInB2O3/QHzVQEAnWITBj4PX
QP1UAj8keYbBhqQKQZIJ7T+DIYHBRDLWQLTrO0Clf4jBzqsAQQhQGT92DoLBUWjYQHMwjUAF0Z7B
h3GQQClRhEDg8pvB9c/xQLYzLMCjSILBAli9QGSfmb9uVKvBPo+hQJQqf77PnqTBOv/qQFGaJb++
XqzBAPKgQHCDlD8UgqnBHbjqQHUMRT8wOLHBEN7OQPKZ3z8NlqrBmBDBQCyki0AXZqnBw5jHQBYq
tkCgha/B4mtnQFbDUsB7EprBG9W/QJzrhkAYlYvBjsYNQRVJHb9XA37BVqTPQCpKSUAbT7DBoxie
QFD6X8DbHpTB7f6UQCR+h8DPkYnB9nW+QPh9k8CezYPBwZi4QK0ziUABJpfBu+OTQA+NiEBNXabB
yx5VQGzBdkA9nZbBElUAQTz22r8Y93bBf4LQQFTXXMCDzHzBZjj/QCojj0Dycp3BZvIAQdrsOMAx
HYvBs+2hQPOCzz/o4ozBUcYHQTs6fkDooYPBJF3IQEC06L70aIfB/KUaQeui9T+g1nvB7H++QJ7R
C8A6aqfB/TqvQKsFp78OWbPBBquAQFahI7/kUaTBCaOuQFF/Rr5SdpzBE8/5QGK9G7+fZKTBe779
QIEHqL9rk7HBDziSQKofjj+yfbHBZ9yNQHUb6T+0VqTB2d0FQeo3kz+hdbHBmeLdQG9sNz8UZ7nB
YODcQLto7T8xj6LBW4O2QHPCtEBENbfBA/26QCvT0EC/t6rB3fDpQMonu0Ai/rDBGodzQMIfMcAs
p6HBOwJKQLuoiMBMvZvBYuE7QMVfLMDXF5XBgMugQNhyiEDpcofBB7rTQL49okBQH4nBoRgXQabF
cL8dAIbBNr0YQREtrr5w9nDBAKPwQDZzVUCv+LLBf2y6QKyMRUChULfBpeyzQCE8g8BBEpnBONys
QJKGIcDMbJLBs+uBQHUXZcDUWITBTdaCQI3XpMDbTIvBLKW3QKuNrMACunvB+a7VQOKdn8BIronB
I5R2QPOFiUCaeavBTsYeQMVob0AJvZrBe9hUQJU2cUDzpI7BfYT4QHP+4L/GgmfBLtTDQAT/S8Cx
uW7BWnDBQH8g1j8LqInBVXj/QBd3QEB+eITBBsnVQLOcAz8rsIXBetgJQbXk7T/1iYDBRRPWQHpM
O0Ce1IjB0yL/QMsGHD9k+4DB2vfXQJ1CjkANMJ/BDCeQQLvkg0BHXpzBDm7hQL5IHMBjc3TBmrDA
QFjnl7+BbKvBPxGjQDZugb4GFKXB4fntQHnOF7/XGazBZPGhQPKakz9rD6rB9x7tQGPrUD8AF7HB
I4PPQKpU4z9IyqrBGr3AQE5bjECoxqnBL8/GQPzmtkAL7K/B9PVvQDxFSMDbeJfBk6+/QBydhkAU
AYzBlMMKQV0iDb+z4HbBEujPQOLTSkBjnLDBgzuGQHg1hsC0Z4/B7ka2QB1ikcBdlJDB9KHTQLzR
XsCMw4vBXku4QIzriEBEjZfB0peTQMiWiEBAxabB0nBUQKB0dUApFJfBqcQCQTRY7b+rW33BF9DL
QGpHWMCeMoDB6bf+QDfykEDmyZ3BlJXSQKyUBMA7SWPB5TSiQG8FzT/AT43BWN4HQZRlfUA2J4TB
uPrFQBxS475HOYbB/a4ZQVRn9z8kRXrBnCzCQNV9CsB0ZqfBYuKzQGl3qL8kjrPBlYKCQFbEK7+C
E6XB1MeuQMCANr4bzZzBb477QJaeB799/6PBvQoBQV7Yn7+7ELHBeVeUQM7Tij9/KLLBjaONQJe/
5j/eF6XByuUGQSTVnD87FbHBrHrhQCuLPT9dX7nBuEbcQMzT8z93p6LBmMy1QPU4tUBonbfBmdm5
QKV00UCgI6vBLBrpQLBJvEBkYbHB74MrQCmBOsBIV5bBeKCKQHBoDcDjN5bBIax6QNn5X8A4pp/B
56ygQAI8iEA23IfBRp/TQInzoUDKk4nB++8bQWhfAL9DpXrB7nsIQa4/5L4DgmXBW+HwQISbV0B8
PrPBddm6QIozRkCPo7fBS4aAQPw0dMAYRIfBxndmQDJjo8BtspDBGFa8QC8BsMAxg4zBK8W9QMua
lMDaI5nBVzP1QIXQcMB5KY3BVCDNQOaqIMBDkI/B3wV2QNF2iUBE46vBgigeQJGEbkAZOpvB2ghU
QL4tb0ATHo/BkKUKQZyDFsBmZITB2Mm2QD5sf8D2V3nBnRjAQEID7D96x4fBgfwBQf0dQUCOmoXB
T83TQIACJD+DjYTB/r0LQYCo6T+3RoLBeUvYQLpGQkAMW4jBfsH/QDA7Ij9Kr4HBHGnYQA23i0Cq
Zp/BAdmQQHO/hUBGj5vBb0fuQIFSLsAZl4HB3QnPQPiGk7/nX6fBZdzDQDTBTL8J8rLBQ6G3QICR
Sb7hy5/BTSbRQLoxJj9zabXB+OTEQOzJoD/NBqLBS8e7QH531T80v63BtPm+QDxoiUCSsKnBRVDE
QLT3s0Dn4a/BQDJzQKJiT8CNR5vBgvzDQO4Ni0DCyYvBGa0LQZa9Hr/WhXzBb+bMQAitRUBO2rDB
BHihQCi6XsAtYJTBCauUQIpsicBneorBUsS7QEgrlcC1s4PBhQu6QOLWi0DSTZfB5HGSQPq/hUCt
EabBVO9XQP5gfUBSppXBC1T6QOR8179o+nXBY1XMQNhyX8ByKnzBAnT/QL5ojUATg57BRusAQdgZ
P8C/2onBeIGeQNRc7T9Gz4nBB0YLQctKe0DcDobBCnnBQBZnjL7CQ4TB8X0cQdJV6T8JJ4DBdR/F
QBD0C8BxsKXB78fxQAFch7+oLqbB0t/UQFvEvb/gYLjBISahQJMGaL+aIbTBceiUQK4Zmb4I/aDB
drq/QIPP574Ue5fBExr0QJqxOz92nbTBQcHHQPezYz8IrL3ByOayQPPu9T/ippzBJ13nQORhrj9a
daDBxf2YQNLg0j+0FK/BbuaxQCCDskCgX7fBRX24QMiYzkDS8arBRVrmQOAMuUCWurHBVHSCQJkH
KsD8ZqLBTTtYQA+jhsClxp3BL0JDQBrdK8DJm5bBnyamQBSmj0ARQ4fBCkPaQHFVpUAy+4nBdGQV
QeqEer/fA4XBsTQWQclqvr6a/W7BlhDwQKfJQkDDsbDB+QXCQLYyU0C1DLnBlHi5QGMqgcCvBpnB
BfyuQMLrIMDT25HBM/R8QJe3bMC7lYXB9KuEQMn9psBaFo3BmoSyQKSbrcCTnHvBs+bUQM0NosAl
9IjBaAhyQGOTg0Ar5arBymwgQENFckClYZnB8j9aQGxOfkDgp43Bz33uQBlO1L9MHmfB5CO+QEWU
TsC9dW7B

> <OMEGA_E>
gFwvP6zhHz9E6gE/qkkrPw==

> <OMEGA_NBR>
     24982

$$$$
50156416
  -OEChem-04172616093D

 85 88  0     0  0  0  0  0  0999 V2000
    6.0475    1.7509  -17.2793 C   0  0  0  0  0  0  0  0  0  0  0  0
    7.9856    3.0527  -16.5653 C   0  0  0  0  0  0  0  0  0  0  0  0
    6.6862    0.5692  -16.8491 C   0  0  0  0  0  0  0  0  0  0  0  0
    8.6171    1.8811  -16.1291 C   0  0  0  0  0  0  0  0  0  0  0  0
    6.6950    2.9976  -17.1230 C   0  0  0  0  0  0  0  0  0  0  0  0
    7.9775    0.6360  -16.2590 C   0  0  0  0  0  0  0  0  0  0  0  0
    6.7854    4.6127  -19.8810 C   0  0  0  0  0  0  0  0  0  0  0  0
    4.5442    4.2373  -19.5537 C   0  0  0  0  0  0  0  0  0  0  0  0
    7.0198   -2.4198  -15.3865 C   0  0  0  0  0  0  0  0  0  0  0  0
    5.8282   10.0502  -22.1692 C   0  0  0  0  0  0  0  0  0  0  0  0
    5.9858   -1.1186  -21.3725 C   0  0  0  0  0  0  0  0  0  0  0  0
    7.1895    9.4871  -22.6026 C   0  0  0  0  0  0  0  0  0  0  0  0
    5.2811    9.2590  -20.9634 C   0  0  0  0  0  0  0  0  0  0  0  0
    5.0220   -0.1961  -20.6091 C   0  0  0  0  0  0  0  0  0  0  0  0
    7.4099   -0.5468  -21.3389 C   0  0  0  0  0  0  0  0  0  0  0  0
    7.0944    7.9774  -22.8978 C   0  0  0  0  0  0  0  0  0  0  0  0
    5.1511    7.7476  -21.2782 C   0  0  0  0  0  0  0  0  0  0  0  0
    5.0338    1.2270  -21.1937 C   0  0  0  0  0  0  0  0  0  0  0  0
    7.4386    0.8713  -21.9295 C   0  0  0  0  0  0  0  0  0  0  0  0
    6.5077    7.1464  -21.7116 C   0  0  0  0  0  0  0  0  0  0  0  0
    6.4624    1.8349  -21.2004 C   0  0  0  0  0  0  0  0  0  0  0  0
    6.0781    4.4970  -21.2166 C   0  0  0  0  0  0  0  0  0  0  0  0
    3.5949   -3.3484  -19.0445 C   0  0  0  0  0  0  0  0  0  0  0  0
    6.0050    4.2948  -17.4869 C   0  0  0  0  0  0  0  0  0  0  0  0
    8.6868   -0.5671  -15.6658 C   0  0  0  0  0  0  0  0  0  0  0  0
    6.3821    5.6736  -22.2221 C   0  0  0  0  0  0  0  0  0  0  0  0
    6.5177    3.1924  -21.9678 C   0  0  0  0  0  0  0  0  0  0  0  0
    4.4955   -3.8358  -17.9094 C   0  0  0  0  0  0  0  0  0  0  0  0
    5.9796   -3.5538  -18.2291 C   0  0  0  0  0  0  0  0  0  0  0  0
    6.8749   -4.1815  -17.1484 C   0  0  0  0  0  0  0  0  0  0  0  0
    5.7863    4.4233  -18.9337 N   0  0  0  0  0  0  0  0  0  0  0  0
    4.6552    4.4459  -20.8480 N   0  3  0  0  0  0  0  0  0  0  0  0
    3.3692    3.8730  -18.9080 N   0  0  0  0  0  0  0  0  0  0  0  0
    8.0963   -1.8417  -16.0479 N   0  0  0  0  0  0  0  0  0  0  0  0
    6.5353   -3.6360  -15.8254 N   0  0  0  0  0  0  0  0  0  0  0  0
    7.9947    4.6705  -19.6891 O   0  0  0  0  0  0  0  0  0  0  0  0
    6.4730   -1.8635  -14.4403 O   0  0  0  0  0  0  0  0  0  0  0  0
    5.0659    1.7033  -17.7272 H   0  0  0  0  0  0  0  0  0  0  0  0
    8.4915    4.0024  -16.4733 H   0  0  0  0  0  0  0  0  0  0  0  0
    6.1947   -0.3851  -16.9679 H   0  0  0  0  0  0  0  0  0  0  0  0
    9.6023    1.9346  -15.6898 H   0  0  0  0  0  0  0  0  0  0  0  0
    5.9458   11.1068  -21.8868 H   0  0  0  0  0  0  0  0  0  0  0  0
    5.1195    9.9711  -23.0068 H   0  0  0  0  0  0  0  0  0  0  0  0
    5.9833   -2.1137  -20.9038 H   0  0  0  0  0  0  0  0  0  0  0  0
    5.6541   -1.2048  -22.4177 H   0  0  0  0  0  0  0  0  0  0  0  0
    7.5228   10.0109  -23.5107 H   0  0  0  0  0  0  0  0  0  0  0  0
    7.9196    9.6506  -21.7962 H   0  0  0  0  0  0  0  0  0  0  0  0
    5.9663    9.3878  -20.1125 H   0  0  0  0  0  0  0  0  0  0  0  0
    4.2893    9.6542  -20.6986 H   0  0  0  0  0  0  0  0  0  0  0  0
    4.0031   -0.6045  -20.6795 H   0  0  0  0  0  0  0  0  0  0  0  0
    5.3275   -0.1528  -19.5533 H   0  0  0  0  0  0  0  0  0  0  0  0
    7.7606   -0.5114  -20.2969 H   0  0  0  0  0  0  0  0  0  0  0  0
    8.0742   -1.1967  -21.9274 H   0  0  0  0  0  0  0  0  0  0  0  0
    6.4481    7.8344  -23.7764 H   0  0  0  0  0  0  0  0  0  0  0  0
    8.1041    7.6018  -23.1203 H   0  0  0  0  0  0  0  0  0  0  0  0
    4.7976    7.2231  -20.3783 H   0  0  0  0  0  0  0  0  0  0  0  0
    4.4228    7.6122  -22.0914 H   0  0  0  0  0  0  0  0  0  0  0  0
    4.6572    1.1909  -22.2266 H   0  0  0  0  0  0  0  0  0  0  0  0
    4.3771    1.8671  -20.5862 H   0  0  0  0  0  0  0  0  0  0  0  0
    8.4600    1.2701  -21.8421 H   0  0  0  0  0  0  0  0  0  0  0  0
    7.1554    0.8179  -22.9911 H   0  0  0  0  0  0  0  0  0  0  0  0
    7.2095    7.1777  -20.8651 H   0  0  0  0  0  0  0  0  0  0  0  0
    6.8016    1.9865  -20.1650 H   0  0  0  0  0  0  0  0  0  0  0  0
    2.5443   -3.5591  -18.7959 H   0  0  0  0  0  0  0  0  0  0  0  0
    3.7295   -2.2651  -19.1797 H   0  0  0  0  0  0  0  0  0  0  0  0
    3.8632   -3.8702  -19.9750 H   0  0  0  0  0  0  0  0  0  0  0  0
    5.0310    4.3324  -16.9772 H   0  0  0  0  0  0  0  0  0  0  0  0
    6.6291    5.1347  -17.1476 H   0  0  0  0  0  0  0  0  0  0  0  0
    9.7336   -0.5543  -16.0033 H   0  0  0  0  0  0  0  0  0  0  0  0
    8.6539   -0.4839  -14.5695 H   0  0  0  0  0  0  0  0  0  0  0  0
    5.5732    5.6672  -22.9675 H   0  0  0  0  0  0  0  0  0  0  0  0
    7.3354    5.4289  -22.7135 H   0  0  0  0  0  0  0  0  0  0  0  0
    7.5586    3.3397  -22.2917 H   0  0  0  0  0  0  0  0  0  0  0  0
    5.8696    3.0925  -22.8509 H   0  0  0  0  0  0  0  0  0  0  0  0
    4.2207   -3.3135  -16.9811 H   0  0  0  0  0  0  0  0  0  0  0  0
    4.3544   -4.9186  -17.7764 H   0  0  0  0  0  0  0  0  0  0  0  0
    6.2308   -3.9875  -19.2083 H   0  0  0  0  0  0  0  0  0  0  0  0
    6.1470   -2.4669  -18.2557 H   0  0  0  0  0  0  0  0  0  0  0  0
    6.7255   -5.2712  -17.1411 H   0  0  0  0  0  0  0  0  0  0  0  0
    7.9279   -3.9572  -17.3741 H   0  0  0  0  0  0  0  0  0  0  0  0
    3.8902    4.5533  -21.4830 H   0  0  0  0  0  0  0  0  0  0  0  0
    2.5270    3.7515  -19.4333 H   0  0  0  0  0  0  0  0  0  0  0  0
    3.3656    3.7323  -17.9180 H   0  0  0  0  0  0  0  0  0  0  0  0
    8.4870   -2.3280  -16.8295 H   0  0  0  0  0  0  0  0  0  0  0  0
    5.9343   -4.1629  -15.2244 H   0  0  0  0  0  0  0  0  0  0  0  0
  1  3  2  0  0  0  0
  1  5  1  0  0  0  0
  2  4  1  0  0  0  0
  2  5  2  0  0  0  0
  3  6  1  0  0  0  0
  4  6  2  0  0  0  0
  5 24  1  0  0  0  0
  6 25  1  0  0  0  0
  7 22  1  0  0  0  0
  7 31  1  0  0  0  0
  7 36  2  0  0  0  0
  8 31  1  0  0  0  0
  8 32  2  0  0  0  0
  8 33  1  0  0  0  0
  9 34  1  0  0  0  0
  9 35  1  0  0  0  0
  9 37  2  0  0  0  0
 10 12  1  0  0  0  0
 10 13  1  0  0  0  0
 11 14  1  0  0  0  0
 11 15  1  0  0  0  0
 12 16  1  0  0  0  0
 13 17  1  0  0  0  0
 14 18  1  0  0  0  0
 15 19  1  0  0  0  0
 16 20  1  0  0  0  0
 17 20  1  0  0  0  0
 18 21  1  0  0  0  0
 19 21  1  0  0  0  0
 20 26  1  0  0  0  0
 21 27  1  0  0  0  0
 22 26  1  0  0  0  0
 22 27  1  0  0  0  0
 22 32  1  0  0  0  0
 23 28  1  0  0  0  0
 24 31  1  0  0  0  0
 25 34  1  0  0  0  0
 28 29  1  0  0  0  0
 29 30  1  0  0  0  0
 30 35  1  0  0  0  0
  1 38  1  0  0  0  0
  2 39  1  0  0  0  0
  3 40  1  0  0  0  0
  4 41  1  0  0  0  0
 10 42  1  0  0  0  0
 10 43  1  0  0  0  0
 11 44  1  0  0  0  0
 11 45  1  0  0  0  0
 12 46  1  0  0  0  0
 12 47  1  0  0  0  0
 13 48  1  0  0  0  0
 13 49  1  0  0  0  0
 14 50  1  0  0  0  0
 14 51  1  0  0  0  0
 15 52  1  0  0  0  0
 15 53  1  0  0  0  0
 16 54  1  0  0  0  0
 16 55  1  0  0  0  0
 17 56  1  0  0  0  0
 17 57  1  0  0  0  0
 18 58  1  0  0  0  0
 18 59  1  0  0  0  0
 19 60  1  0  0  0  0
 19 61  1  0  0  0  0
 20 62  1  0  0  0  0
 21 63  1  0  0  0  0
 23 64  1  0  0  0  0
 23 65  1  0  0  0  0
 23 66  1  0  0  0  0
 24 67  1  0  0  0  0
 24 68  1  0  0  0  0
 25 69  1  0  0  0  0
 25 70  1  0  0  0  0
 26 71  1  0  0  0  0
 26 72  1  0  0  0  0
 27 73  1  0  0  0  0
 27 74  1  0  0  0  0
 28 75  1  0  0  0  0
 28 76  1  0  0  0  0
 29 77  1  0  0  0  0
 29 78  1  0  0  0  0
 30 79  1  0  0  0  0
 30 80  1  0  0  0  0
 32 81  1  0  0  0  0
 33 82  1  0  0  0  0
 33 83  1  0  0  0  0
 34 84  1  0  0  0  0
 35 85  1  0  0  0  0
M  CHG  1  32   1
M  END
> <OMEGA_C>
uYTBQLwd4D8GPIrB7In/QOVeQ0DEhYTBL/XVQGK1ET/iyobBnN8JQbrH8D9QCIHBiD3WQPbYP0DO
+4jBykf/QGXQIj9gEoLBLCLZQCObk0AxDJ/B0WmRQJSXh0AKbpzB16HgQPvdGsA9L3bBi4C6QG3N
IEGAWrHBCYy/QJguj7/p+qrBkxDmQC7LF0Eb0rTBI/+oQPMkFEEHtafBe7SgQJbMSL5u36TBRh7t
QMb7C78dtqrBZgXjQPtG/0CoLrfBrNWkQGPs90DMOarB0RShQE8OnT+vjKnBsQjuQHIQXz+sb6/B
Fz/QQAyv5EBpsa3BocvOQPLc6j9WmqnB1H/CQDbnj0Cwu6nBcRNmQGlMVsAMW5jBFSnAQONuiUAx
5YvBBv0KQZIuEb84p3rBaDrMQHqOtUDtxrHBXJHQQBxQTEAGvq/B39qPQMV9dcB7Ro/B6Fi/QPBw
Y8Au1ZHBif/bQHnOhcDuL4nBJSm5QOCLjUA0eJfBAPeUQBlFjkCyyKbBkaBXQPHed0CvQ5fBbYoB
QWS8678lYoDBGSHRQL+0aMCtNH3BWNT/QAt1lUBVg53BGSPPQCiH7r+XC2fBdBuiQI0F2j9G0Y3B
Dt0HQb0TgEBByYPB1DrGQEAxxb4svofB6KIZQRmi9z9mCXvBrUO+QFK1MUEsGK/B/tKjQMGJH0HX
DbjBGHe/QEJHB8DiOqfBCe60QEE3mr+GV7PBfLrwQHksIEHhFbzBXW39QPRoGkGjXq7BCey+QJQ0
FkF75qDBNUKJQK13GkGwlqXBVxmAQFHBGr+ob6XBOXuqQPp2HL4UbZzBnFb4QKvpAr8PYKLBAjAB
QQwvmb9Xa6/BOlfOQKaz+kD9Nb7BS6oBQRJC80BO9rjBG4aZQGgj50CuBqPBVIeNQOmW80Aiu7DB
3weVQJ1vmD8R0LHBiBGMQAH97j95sKTBH1wHQfWToj+cvK7BIPnkQJ9kUT/P7bfB77PmQFyv5UDL
66bBm6bZQBtG/j/2UaHB5dUiQEfIY8D8XZbBk69uQPz2EMDub5nBST53QJawd8C3zJ/BjP2gQN2i
ikBY0YfBWiHUQC5PpEA2LonBBL0bQT/nDb/EBoDBbXYKQbvG976JHGnBTleyQIlZtUBevbfBUrvq
QHO5rUA7tbXBF+DxQIC9VUBfVbLBitO7QBHrRUCkzrbBABCHQH4QVMBa2YfBW1eLQAxlncAkNo7B
smLHQDozf8CGqpnBabTEQNPhHcCaC5LBajfXQPGtqMD6IInBorH9QIJDfcAr/orBdPh4QGm0kUBB
3avB4rkhQMAYcEB9d5vBw2ZXQFjdbkATWI/BzsoHQYv9FMDRoobBYeW9QJU2hcApl3PB7Ge/QDDY
4j9rtYnBFBL9QNmpRUB174PBuh3TQMVJGj/auYXBWkkIQdhJ9z8E7H/BFDHUQDVoQUBrmYjB4o37
QOhoMT83j4DBIkbZQOFmkkAB8p7B4VSRQPXahkALlJzBcAz4QEOcKsC5W4LBnvW8QLkeIEEjY7HB
l5W+QIwAk7/XGqvBSpzoQEvdFkFlnLTBzCeqQBWNE0HM3KfBo1igQCwvV77S86TBnHjsQKkLGr9x
5arB0DjlQKR+/UBm/rbB+tGlQDXE9kBpZarBqHuhQLAOmz8lkKnBxBDuQPELUj9ih6/Br2PRQAMr
40Ddmq3B6HTPQKyu5T+4mKnBokjDQLeLjkD6tKnB6+ZbQHw5VcDLfJjBNcK+QJURikDQ4IvB2eII
QTZO974moHbBcVvNQGchtEDst7HBddvRQDLOSUBBqq/BIyqKQIj5b8DaEY/BD0u4QDoufsDd8ZLB
KxTTQBwvlMAcG4rBury4QKMMjUD1fJfBT5GVQEfojEAL8KbBpdlWQGr2dkA9g5fBKh73QBRp1r/Q
ZnXBJq/aQHIbbMBnaIHBxt//QI5DlEB4Q53BQxgJQRBUKcDAsonB2pSgQJtD2z9Alo3BBb4GQdAs
gUBba4PBd43DQHn1tb6rmYbB8QEYQY37/j9m0HjBt+/AQLT9MEEhFq/BquemQHIHH0FeObjBOwm+
QMcxCcDZW6fBm7+zQFU6nb/9c7PBIR70QMUvH0HDz7vBFHL/QIRXGUGLB67B0Fq/QBqGFUEw6KDB
IVCKQD0GGkGO96XBNAB/QC54Gb9ZgqXB9jmqQKMNNb6pgpzBevv3QADKFL/slKLBa5kAQXcVob/L
sK/BwBDRQOcm+UA/IL7BycMCQSEb8UAPnLjBV7OZQIYZ5kAHQ6PBKBiPQDua8kADCbHBo2iVQNfe
lz+m07HBSdKMQMYG7j9yraTBtXwHQTLEmT9r167B2dLkQMzVRz+dA7jBCjvnQNH/40D8tKbBQoDa
QP9X9z9tUKHB8PIZQDggS8AhrpXBV6N0QCBzGcB79ZvBjohcQNfsg8Acmp7BRkifQDz3i0C094fB
38LSQHIIpUDrO4nBrVEXQYZrOb+97X/BCIENQXxzRb4LSmbBy6WzQAgJtECnurfBw/PrQAI5rEBX
mLXBpGjzQF87U0AvDbLBLcu9QNmyQ0Du2rbBZ8+JQN5TPcBG9YjBBYR7QDfdlcDomYvByvC3QEb6
k8AJB5rBVZvGQLwiQMANEJXB7s7BQEwzsMAf/IbBHPbxQHB0nsBSdY3BsdZ6QAvuj0DVIazBA3oh
QCyebkBfzZvB2qhVQFzvbkDFk4/BtlTjQNay47/v72jBxTrKQC1kcsDmLnXB

> <OMEGA_E>
QE3BPv50ED8=

> <OMEGA_NBR>
     27945

$$$$
50253350
  -OEChem-04172616093D

 67 69  0     1  0  0  0  0  0999 V2000
    6.5985    3.6601  -19.7509 C   0  0  0  0  0  0  0  0  0  0  0  0
    4.3415    3.6385  -19.2980 C   0  0  0  0  0  0  0  0  0  0  0  0
    6.9347   -1.7006  -19.5934 C   0  0  0  0  0  0  0  0  0  0  0  0
    6.8586   10.3604  -22.1458 C   0  0  0  0  0  0  0  0  0  0  0  0
    5.4371   10.0705  -21.6288 C   0  0  0  0  0  0  0  0  0  0  0  0
    7.3917    9.1962  -23.0023 C   0  0  0  0  0  0  0  0  0  0  0  0
    5.4025    8.7535  -20.8417 C   0  0  0  0  0  0  0  0  0  0  0  0
    7.3431    7.8694  -22.2288 C   0  0  0  0  0  0  0  0  0  0  0  0
    6.0005    0.1675  -22.6821 C   0  0  0  0  0  0  0  0  0  0  0  0
    6.0233   -1.1448  -21.9126 C   0  0  0  0  0  0  0  0  0  0  0  0
    6.5498    0.6573  -20.4108 C   0  0  0  0  0  0  0  0  0  0  0  0
    5.9057    7.5902  -21.7178 C   0  0  0  0  0  0  0  0  0  0  0  0
    5.7475    1.1980  -21.5942 C   0  0  1  0  0  0  0  0  0  0  0  0
    5.8440    3.7424  -21.0743 C   0  0  2  0  0  0  0  0  0  0  0  0
    3.2418   -3.3801  -17.8363 C   0  0  0  0  0  0  0  0  0  0  0  0
    5.9241    3.6816  -17.3178 C   0  0  0  0  0  0  0  0  0  0  0  0
    6.6392   -3.2073  -19.7315 C   0  0  0  0  0  0  0  0  0  0  0  0
    6.1975    2.5973  -22.0571 C   0  0  0  0  0  0  0  0  0  0  0  0
    5.8409    6.3007  -20.8915 C   0  0  0  0  0  0  0  0  0  0  0  0
    6.1451    5.0773  -21.7788 C   0  0  0  0  0  0  0  0  0  0  0  0
    4.2134   -2.9976  -18.9598 C   0  0  0  0  0  0  0  0  0  0  0  0
    5.5839   -3.6583  -18.7035 C   0  0  0  0  0  0  0  0  0  0  0  0
    4.4302    3.6735  -20.6851 N   0  0  0  0  0  0  0  0  0  0  0  0
    5.6331    3.5704  -18.7535 N   0  0  0  0  0  0  0  0  0  0  0  0
    6.5427   -0.7998  -20.5762 N   0  0  0  0  0  0  0  0  0  0  0  0
    3.2181    3.6604  -18.6274 N   0  3  0  0  0  0  0  0  0  0  0  0
    7.8139    3.7145  -19.5983 O   0  0  0  0  0  0  0  0  0  0  0  0
    7.3766   -1.2768  -18.5308 O   0  0  0  0  0  0  0  0  0  0  0  0
    6.8379   11.2747  -22.7571 H   0  0  0  0  0  0  0  0  0  0  0  0
    7.5289   10.5090  -21.2864 H   0  0  0  0  0  0  0  0  0  0  0  0
    5.1177   10.8924  -20.9711 H   0  0  0  0  0  0  0  0  0  0  0  0
    4.7498    9.9975  -22.4846 H   0  0  0  0  0  0  0  0  0  0  0  0
    6.7750    9.1059  -23.9087 H   0  0  0  0  0  0  0  0  0  0  0  0
    8.4330    9.4077  -23.2869 H   0  0  0  0  0  0  0  0  0  0  0  0
    6.0470    8.8443  -19.9549 H   0  0  0  0  0  0  0  0  0  0  0  0
    4.3695    8.5478  -20.5247 H   0  0  0  0  0  0  0  0  0  0  0  0
    7.6561    7.0511  -22.8939 H   0  0  0  0  0  0  0  0  0  0  0  0
    8.0279    7.9260  -21.3698 H   0  0  0  0  0  0  0  0  0  0  0  0
    6.9631    0.3492  -23.1824 H   0  0  0  0  0  0  0  0  0  0  0  0
    5.1924    0.1741  -23.4284 H   0  0  0  0  0  0  0  0  0  0  0  0
    5.0096   -1.5648  -21.8359 H   0  0  0  0  0  0  0  0  0  0  0  0
    6.6846   -1.8710  -22.4079 H   0  0  0  0  0  0  0  0  0  0  0  0
    7.5796    1.0433  -20.4342 H   0  0  0  0  0  0  0  0  0  0  0  0
    6.0737    0.9401  -19.4604 H   0  0  0  0  0  0  0  0  0  0  0  0
    5.2386    7.4886  -22.5865 H   0  0  0  0  0  0  0  0  0  0  0  0
    4.6775    1.2194  -21.3400 H   0  0  0  0  0  0  0  0  0  0  0  0
    2.2649   -2.9089  -18.0194 H   0  0  0  0  0  0  0  0  0  0  0  0
    3.1225   -4.4733  -17.8112 H   0  0  0  0  0  0  0  0  0  0  0  0
    3.6414   -3.0327  -16.8721 H   0  0  0  0  0  0  0  0  0  0  0  0
    4.9911    3.5760  -16.7448 H   0  0  0  0  0  0  0  0  0  0  0  0
    6.6268    2.8881  -17.0237 H   0  0  0  0  0  0  0  0  0  0  0  0
    6.3728    4.6642  -17.1098 H   0  0  0  0  0  0  0  0  0  0  0  0
    6.2632   -3.4089  -20.7454 H   0  0  0  0  0  0  0  0  0  0  0  0
    7.5680   -3.7729  -19.5657 H   0  0  0  0  0  0  0  0  0  0  0  0
    7.2896    2.5814  -22.1880 H   0  0  0  0  0  0  0  0  0  0  0  0
    5.7156    2.8116  -23.0224 H   0  0  0  0  0  0  0  0  0  0  0  0
    6.5815    6.3528  -20.0798 H   0  0  0  0  0  0  0  0  0  0  0  0
    4.8335    6.1956  -20.4624 H   0  0  0  0  0  0  0  0  0  0  0  0
    7.2101    5.0978  -22.0532 H   0  0  0  0  0  0  0  0  0  0  0  0
    5.5306    5.1412  -22.6889 H   0  0  0  0  0  0  0  0  0  0  0  0
    3.8137   -3.3450  -19.9240 H   0  0  0  0  0  0  0  0  0  0  0  0
    4.3326   -1.9044  -18.9848 H   0  0  0  0  0  0  0  0  0  0  0  0
    5.4698   -4.7506  -18.7666 H   0  0  0  0  0  0  0  0  0  0  0  0
    5.9286   -3.3833  -17.6957 H   0  0  0  0  0  0  0  0  0  0  0  0
    3.6550    3.6547  -21.3166 H   0  0  0  0  0  0  0  0  0  0  0  0
    3.2316    3.6272  -17.6280 H   0  0  0  0  0  0  0  0  0  0  0  0
    2.3460    3.7102  -19.1142 H   0  0  0  0  0  0  0  0  0  0  0  0
  1 14  1  0  0  0  0
  1 24  1  0  0  0  0
  1 27  2  0  0  0  0
  2 23  1  0  0  0  0
  2 24  1  0  0  0  0
  2 26  2  0  0  0  0
  3 17  1  0  0  0  0
  3 25  1  0  0  0  0
  3 28  2  0  0  0  0
  4  5  1  0  0  0  0
  4  6  1  0  0  0  0
  5  7  1  0  0  0  0
  6  8  1  0  0  0  0
  7 12  1  0  0  0  0
  8 12  1  0  0  0  0
  9 10  1  0  0  0  0
  9 13  1  0  0  0  0
 10 25  1  0  0  0  0
 11 13  1  0  0  0  0
 11 25  1  0  0  0  0
 12 19  1  0  0  0  0
 13 18  1  0  0  0  0
 14 18  1  0  0  0  0
 14 20  1  0  0  0  0
 14 23  1  0  0  0  0
 15 21  1  0  0  0  0
 16 24  1  0  0  0  0
 17 22  1  0  0  0  0
 19 20  1  0  0  0  0
 21 22  1  0  0  0  0
  4 29  1  0  0  0  0
  4 30  1  0  0  0  0
  5 31  1  0  0  0  0
  5 32  1  0  0  0  0
  6 33  1  0  0  0  0
  6 34  1  0  0  0  0
  7 35  1  0  0  0  0
  7 36  1  0  0  0  0
  8 37  1  0  0  0  0
  8 38  1  0  0  0  0
  9 39  1  0  0  0  0
  9 40  1  0  0  0  0
 10 41  1  0  0  0  0
 10 42  1  0  0  0  0
 11 43  1  0  0  0  0
 11 44  1  0  0  0  0
 12 45  1  0  0  0  0
 13 46  1  0  0  0  0
 15 47  1  0  0  0  0
 15 48  1  0  0  0  0
 15 49  1  0  0  0  0
 16 50  1  0  0  0  0
 16 51  1  0  0  0  0
 16 52  1  0  0  0  0
 17 53  1  0  0  0  0
 17 54  1  0  0  0  0
 18 55  1  0  0  0  0
 18 56  1  0  0  0  0
 19 57  1  0  0  0  0
 19 58  1  0  0  0  0
 20 59  1  0  0  0  0
 20 60  1  0  0  0  0
 21 61  1  0  0  0  0
 21 62  1  0  0  0  0
 22 63  1  0  0  0  0
 22 64  1  0  0  0  0
 23 65  1  0  0  0  0
 26 66  1  0  0  0  0
 26 67  1  0  0  0  0
M  CHG  1  26   1
M  END
> <OMEGA_C>
vybTQMY/akDgAZ7BVO2KQB3daEA8YprBxejdQBqt2b9ev5zBinnbQCnEJUGYKrHBX/ytQMQgIUHR
B63B+4jsQNYjE0HMBLjBg+GsQDAODEHku6bByvrqQCXS+0B71LHB/gPAQFGNKz7wdLXBFr/AQC2I
kr8ATa/BCJjRQIFCKD9iSaPB0/u8QDvj8kAYvq3BSeu3QPtXmT/iwKzBuQG7QOyCb0ApmKjBLXpP
QJtTWMCosI7Bi5K9QPefa0DpiorBiHTUQANETcAp2p3BPFLGQEw6JkD0dLDBUui6QJqfyUDEIafB
paTEQOd4okDzOq7BDtSGQL7YP8C3rZfBha+yQFoiasCtoJXBV8SNQAAaa0Ame6XBukK0QMGBZEAY
B5bB3l3RQL/CTL8anKTBTPVNQF9DakDbBJXBnQv6QB27bUBqyZzBAQ3sQG9to78AP5TBDdDaQAdl
NEGDDrbBvuzwQO4kKEGESqrBasSjQB1HLkHYxKfBQ/6XQPD1H0Fu4LPB/szYQN6xEUEQRb/BpO0G
QQSGFkGbS7rB6YDBQESCDUG3o5/BvNKLQJ/DCEGvMqTBnP70QDyi4UCbJrfBSHIAQfuh/UBF9arB
ENLeQEzHsj6NdbnBMyimQLtKMj5cbbvBS06gQJVKyL/+r67BM+jVQCF9779fQ7PBCYzyQKCJhT9K
eaPB/lvCQPOncD/XrpvBe6KnQNWi70AesbTBta2VQBsVnD9UuKrB1/MQQCgrOsChJ5DBqNdHQIEl
j8BbfY7B7gxpQFkXQsAI+obBfbefQKTcZEBY9YXB1A7UQC3WOECPMIjBoe3LQFBBlUDm4IjBDmzI
QCArWsCW9qXBGi3yQGl2ccCZhpzBfUTpQG82JUD7gLHBh+a2QNrxM0DsLbjBd5vSQIRKy0CEo6DB
rauaQJtCxkANs6PBRLnmQEMho0D/bLDB6fqwQLOEpEDmgrXBphN0QM0UVsBDZJ/BdqSKQEfC87/w
4JfBPwivQMcEmMDzIZbBD7e9QKeIWMDKkI3BL+xpQDvmaUBjiKrB7NJOQGMkaEArBo3BjyUWQCd0
bUD06ZjBrO3SQA+qaUCV8J3BC7KKQPnsakC1aJrBrg7eQK0k179Mw5zB61vPQPZ9JEHkqrTBfJ/u
QBdhEkEolLfBBwe/QCcrIkG3HKnBZcTZQGLF+EB97bXBVq+qQEsnDEHXVqfBcj++QFe9QD5gWLXB
y77AQHmlj7/4PK/BepzSQNC6LT+yT6PBIjPKQNoC9EDrNarBw5W3QMjUmz+skKzBKi27QPCFcECB
jqjBUM5aQDY+WMCn0YvBhze9QLXlZ0DnforBAhnSQAd2SsAA/Z3B9MzFQL0nJ0BJb7DBT/myQOyV
yUATBqjB5VLHQBUjo0CE0q3BvhudQDknVsD4m47BEuqiQE6rWMAv15rBdsGNQDXObUAGg6XBS/ez
QH87bkCu/JXBiPrSQCBgRr9ytaTBclBNQMJOaED0F5XBI9r5QPXAaEDFsZzB1HzsQLJLo7+xO5TB
4OLfQPTxM0E+fLXB9+mzQLv7I0ECLLrBBA74QP0KFEEbBMDB1ZUFQYGUE0Exd7LBpA7aQAcfJEFs
j6PB0PymQL6iLkH4iqfBj0i+QJyO9UDrXbvBcVDxQEiS30AFsLfB7XahQKedCkGg4Z7BfguOQLe+
CkEXaKzB6hzcQNL6wj6hvbnBwS+jQFOaPT4K+brBgaqgQOicx7/VS67BOprVQH736r8/cbPBA1bz
QFhXij9AtaPBMhzEQGx2cj/1lZvBrxzmQEo19kCU4KTBG6uVQGyMnz/ZOKrBWf1SQEhuVsCIE4PB
j8k6QIh3IMD+ZY/B+xU+QLSqicD0+o7B8DyfQCtybUCy74XBJEPMQEy7KUBRyojBwBfTQPnhjUDV
JojBFcnWQG/+XcB1XKbBFr/mQH5GccCYxJjBXaboQA33JUA5qrHBXb61QMmWNEBpFbjB9qqzQItk
w0DcXJ/BWJWRQDa0zECUsqrBBFfqQMClpkBcoa3BL0m8QAnmokCjLbbBGGyrQO8PG8Bab4vBThKt
QOj2hsBRBIvByDiPQIsWJsA7ep7Bvm+YQIC5i8D51p3BqhlqQMv+bUCkmKrBqeNNQJCQaEANGI3B
86QVQKUMZkC0B5nBT6fSQHMIaUC1sJ3BJV+KQF5BaUAOMprBWn7bQK5u0b9o0JzB8ZDSQN3VH0HT
e7fB/i75QF0LFkEwlbHBacyoQHYFHUGCC7HBxsfwQAf6/EC2yq7B6O6gQFNMBUHdWK7BCNO+QNiV
iD4Zp7XBIaDAQPK9h78bmq/BwprUQAdjOT/KyKPBVXTHQNkd+UD1DajBfLG4QGwtpT/3yazBu+i6
QJZVdUAaPKjBTmF0QKwpDsDl65PBvZm8QHI1X0BeS4rBhgrSQEJOScCUFZ7BALbFQJ4DLkDmfLDB
g6a/QBkzy0BmKKTBsMvEQIKyp0Ai26zBD4KKQADPasAVXJTBU/C7QJddccD9IpTBu5mNQKqOcEBR
PqXBMJSzQGh/akBLu5XBeh7SQH5pO7/b9KTBQGZMQO7KZEBt9ZTBdJX5QOG3Z0Dfc5zBYvzrQDgi
nb+gh5TB0WjYQNIDMUGpt7jBvPvOQJXjF0HQSL/BoswKQdkTF0E6wLbB+ez+QJMQH0H+KarBXiyr
QKM0JkHJj6nBl8yNQCURI0FZ0LXB3B3tQN5t6kD+NrbB8voFQQFW8EDCLarBxsqDQJbRA0GBd6nB
PgWdQPY9+EDKyrXBTMvcQMDD5T5aCLrB2cWjQASGkT4WSLvBLGWgQKANv7+x2a7Bj6jVQB3c4r+5
xLPB8931QMiiiD8rpqTB4y3IQAJahD/K7pvBo4zLQNmzBkHB76DB9wGXQAxApj+EPKrB6/4tQEL4
DcAGG5TBl1eFQEVV378Df4zB8oyGQMDw1L8/2ZrBR42eQOoaY0CrvIXBhXjLQOFCIEDc/IjBkY3S
QNPliED+lYfBC/y8QDcVUsDfDKXBwHfwQNHvasAAd5/Bk3DoQCewLkCj67HBicu0QHtgPEBP/rfB
GojWQAt2xECyr53BFdSeQHRqyUB4AqHBG+HlQJIjqED626/Bf5muQOdTrkBUe7PBDkF7QFzehsBT
bo3Bw6t9QDtFhMCPyJvBjMnEQCe2msAguJPB/qfHQCEtUMA384zBmelpQL9HckCJV6rBq5JMQPXa
YUCX94zBz+sUQItRZEBk8pjBnhDSQAWuZkCUhp3BAXOJQBt/bUCBpZrBzqbeQFhf2L8ha5zBuFzJ
QNi8JEFUsLTBK4fiQN+FEkECEbrBf9bJQBg7IkE3dajB8y7QQI83+UBQ67bBcc63QCdjDEGpJaXB
5zW5QDZECz4Kp7TBHHq5QP+dk78fI67BES3SQAZuJj/BF6PByznQQIOw80DZm6rBT/21QB1mmj85
DazBLvy7QI8ucEAfWajBx3RKQIYVaMCthZvBqEm5QJFwYkDVTorBdnzJQN/lQ8AFP5vBL1DFQKBI
JUDfLLDBSJ66QBrXyUAxFqfBagPKQAqYokCHja3BYFKFQFMygMDOq5LB10KpQDn8PcAY3pHBsDeO
QGP2cUDQsKXBRwuyQFQJbUBN15XBaCjQQIAdTr9dLaTBwiFJQHXsa0DaspXBoKz4QJXZYEBs7pvB
xlPzQAaEoL9L2JTBjArYQIElNEFH1rbBRg2oQPtiJEEkh7fB8Y7gQGJgFEG7zcLB7hkCQR5jE0Fn
irfByffqQFSgI0FTkaXB+DS2QKfxLkEJ3KTBsyWvQNKs9kDK47nButjjQJDe30CIirrBzKW6QC6r
CkEDa5zBsuCVQNuQC0FadKfBwt/WQBbKeT6NT7nBcIWdQJTfLz4NFLrBdpuYQHWgvb89ZqzB+ofK
QJiQ+b8RdbLBMFLzQCZAgD+DBKTBHdfFQBkYdj9gPJvBEojxQJ7B80DPwqfBpLmUQJazpD8jP6nB
9ZoXQDNUjMCI75vB8g0uQNVYKcAJspnBPONrQLTeZMCWQaPBhdqaQESNakAVAYbBGxjGQDQQIkBj
v4jBgFrQQHthiUBLiIfB+5m4QK7EVMCUrKLB+9rhQHa9dMD4f5nBkBHoQOYLIkBwgrHBQg+1QN2y
MkB5zLfBd8zBQP1jxECElJ7BGNaXQGkqzUAxJ6jBNijtQIJIo0D0BK7B14C8QJ5bpEC6qrXBSslo
QATfgcCM94rBSk+TQPShn8Aah5TB1KG6QKYxSMAmUorBxeqaQChk+7+Y3ZHBHJZsQHrHdUBq+6rB
4ChHQIozakCRtI3BU7gSQJtxbED26JnB+aTQQIrVaUDKz57BfnCIQGVWaUAg85rB9bHfQGeA0L/5
MZvB6kjjQOVBJkFXKq7BW8CyQGjkIUEotK7Bbff8QNPRE0GgSbPBprqnQKNlDEGaW6nBr+TxQCVc
/ED3Dq7B0eaxQFgDijw5e7PB+yK0QLPpmr/1OKzBlTzUQI/YKD97NqPBgP/AQIef80Bbk67B/MCz
QJSzlD/7f6vBQRS4QJgjb0DTX6nBvxkjQXCzkMCWcKXBZAi8QMRvWkAIVIvBac3XQMk/ScCgppvB
S4jAQKypIEBWxbDBOH+1QF+zyUBfxKjB8WbDQOm5oUBjRa/BSVwTQV6/bsCGb57BjMz4QIg3dsBf
76LBbNqKQJaab0C4DKbBGRSyQAYFakDUrZbB8pnPQJQ4TL+AKaPB7BRJQKj7ZEByjZXBdqP3QCCB
ZkDyvZ3BVHL2QFk6lb8BGZTBMlvqQPMxNUFbeLLBFN/sQHjsJ0E3vaXBHqChQLDULkGxjKrBI7Co
QEZoIUEKIrfBoGD1QDsIE0Ei37vBOq0PQb71FkGnQLLB/+evQARBDUEuz6DBOz6FQJxXCUE5ParB
X3UBQT6p4kCZTrLBZBX8QGrn/EDqoqXBRDjNQCA/SD1jBrnBGt6TQN6SED1+EbjB1wSUQIJBvr/g
YKnBv2/CQLbyA8AAf7DB3+30QBGzcT98jKXBq//MQA1xiT+OQ5vBYGm3QBvy8EA4BLfBcVOUQIpe
oz/jpKfB5VgzQX27jcBgI6LBpGUeQfedssArkKXBDdMiQa3kg8Csoq3BEXSeQM0TXkBllIbBsk7K
QNd6GkBTcIrBB8nSQOeNhUDJfIjB9U3aQN7BY8DIhZPBEXm3QDkHVcAJzp7BDtjiQNCfHkAIuLLB
+uStQKeuKEAeK7jBj7nFQJwryUCM9aDBGaeSQByRyEA8jafBCjfmQBv2okAQibDBAQCzQGMfokCB
DrfBBbYTQQc5hMCoPpbBbiMYQXn/KsApUZ7BDVTwQPIrncCHmKPBXdH3QEOHWMAW6arB1I9jQEbF
c0BN/qrB6VFKQK+0YUCEkI3BQxIRQDnwZEBUbJnBdwHUQC9SaUD9Vp7Be2aLQIHFakBUApvBXg3a
QAC8178eV5vBet/VQMUcKEH/Oq7BENmpQC+vIEHdZLLBJ4v4QEABF0HpSbDB1xidQJ4uC0GOTq3B
w/PrQDhVAUEBUqvBZFm1QIwGqT2kE7TBBnO0QJMrlr+9Hq3BU4/TQPykIj/VIaPBo46/QIbN80CI
da/B9hu2QGE5mT/706vB9si8QPp8cEC5FqnBxAoWQafNDMDoSqjBNd68QAUUVkALFYvBPTnTQBDW
TMBRgpzB88XFQL3WIkDvk7DB0+2xQJbfyUCy9qnBfU/JQMajokABza7BhSALQSiyZcD4k6jBg8L9
QF+TfcD2K57BGSuPQC/qcECmFKbBp320QLMyaUD2bpbBkdjLQCXuTr8pPaPB7qhNQKn1Z0AY45XB
OLr6QOsTYkCf+5zBNW3wQDwwor8s/pPBz/LeQEL8NkE4WrLBhqLTQNkaK0Ggk6XBkaaRQBDOLEFW
XbDBAGerQI7LHkFwIrvBMqX8QAn6FEFA+LjBEXILQbJiHEG3u6zB4YaZQMNVDUFhnqTBUe18QDjh
BUF4vLDB5Q8CQX+T6kA2eq3BDKzqQNL9AkG6kKLBvCDSQBUw3D3XI7nBDKmYQDRsFj5NJrnBsUaT
QPlkur9hPavBF3rEQEaDAMB+N7HBHj71QEW2Wj8o/qTBombLQMbdhz+nR5vB667BQIVQ7kCeIrjB
J8yVQIG/qj9qg6jBrkgeQbY8AcC37q/Bjt0JQRgAtr9dBafByrshQUL7CsABuKHBGs2eQCI6WkAn
iYbBVxzKQLAbFUCgW4rBfPXTQDxPgkCa4IfBqazDQJ4OZcDBN5XB81m+QAaWWMDycKPBg3joQP+b
HkBC9rHBnE+1QNOoLUDYPLjBzpO5QN7zy0C/Y6HB0TiPQG6exUCN+arBEQrsQMtqp0BZAa7BkOTA
QNkUoEBOUrfBllr/QJBdZsC1Qq/Bh4sXQWMsi8BZ9anBM14JQQPYb8AHUZfBZZ/2QC0+ocBdap7B
F19tQOL9dED0NKvB6eRMQMFLZECZ5o3BSJ8WQFt6aUAs95nBFJbSQOL3aUCQLJ/BW+OKQHx9ZkBL
zJrBOg7kQGO1zb9VCpzBuJrfQGLGJkFUG67BcjGvQNP6IUFtUK7BKlT5QA6rFEHOgLPB6JClQJ1J
DEF//qjBY6XvQP2q/UBETa7BfLa1QMQ8ET10UrTB1/G6QO/Cm7+QdK3Byj3UQNprLj9ChaPB1N6+
QC4O9ECCe67B+si0QEVZlD8mIKzBJL64QK4ub0B5jKnBk24yQeoVZcDr+5PBEWfAQDWeWECrkYvB
HobvQOQiRcCGVZ7BgSbBQNDZIUCdIrHBU860QOKyyUDFsajBk5vCQKk8okBPZ6/BlrEaQQWjTMDt
j5PBJEwQQeqlUsCr0J7BIPOLQDyAbUBK56XBzfy0QAeSaEBa05bBBj7UQDRtSL8CGKTBPllPQAN/
YEBzJpXBFLf5QAllaEDAYp7BVb/tQHmujr9xYpPBrKLlQHLaNUFGY7LBNhzqQDJfKEHyvqXBbBme
QCuvLkGm+anBiCukQOOOIUE8q7bBq8TwQKH4E0EmCLzBK9oNQaIZGEH/s7LB+7SuQNMPDUE+gaDB
EhuDQDzwCEGto6nBfU8AQT5x5EBdvLLBdM/6QJQV/kDy9KXB7tjQQIcyHT722LnBhrKXQC8PJDoc
6bjByoabQNmLzL9u6qrB4wvMQAf//7/76rHB+nv0QHtriT9nI6XB1anJQFPrgT8kkJvBEFm0QGOD
8UAh27bBBIqUQOvynT/upajBbWI5QQFIYMAQ7IvBogc0QYiUk8D/6ZbBSOs6QfJdOcDza5nBs12j
QFjrWkBamobBhVPPQPodGUAG2orB7Q3XQPvyhEAZ2IjBADPiQK+EbcAO8ZfBW3nhQMDlV8DrDabB
FmvjQPiJIEDlI7PBFk+uQLj4KkD/erjBm/vFQMEmyUC3A6HBkiaSQMPmx0AdOKfBCzrlQBYlpEA0
7LDBs0axQBStokDpD7fBAFISQaZqeMCbFo7BpTUZQYmfCsCQmJDBNZkTQWonicDPMKLBDlkXQThA
IcAVAKTBlo5kQGDecEA7qarBFHxSQFfcXEA4LI3BknsWQAWPX0Ci0ZjBCbXWQOLxckCsQp7BOjWP
QMivYEA0U5rBsvXRQPLX178CPZzBPareQDXKJUGkYrHB+sKzQNGvI0FjYqvBlcDjQCLCE0EUq7nB
BhqwQOu6DUGt4KXB4q7gQMlt+0AcTrTBgoXBQLT1Yz40nLXBmh+8QFKaib9YWK/Bst/QQJQ8MD9A
SaPBNCe2QGpF9kAF9a3Bh0S6QK1hoz+yEq3B6ZO9QCTxc0AEyajBgTAQQXT3f8B2+6bBOmvDQHwj
YUCGuYrBdBXIQPS/S8DSCJ7BoEbLQMl/KkCTfrDBtyG1QF/Hy0AQpqfBIOfCQEMgpUAina7BVq8L
QRM8dsAy6prBKbPnQHlVg8BJApjBt8+QQEquaUAdZaXBdXi4QC7HbEATF5bBwkvLQLO0Q798ZqTB
KzZYQHoXUUBK7pTB4Ir9QDDfekD4NZ3Bck/eQPdYpr9TcZPBtKffQDVTNUGBg7XB3hb5QCviJEHa
lqvBaKyxQAFYMEG6SqXBp1KZQC99JUGoH7HB/kzKQHcwFUF5tL/BwZIBQblIFUEOk73BBdjIQESK
DEGMpZ/Bq0SQQLNZDEGaL6LBNEDiQF+F4kDIgrrBosD7QFCd90Dlwq7Bl9fhQEH0mT4iCrnBzaCp
QAb4mj5dCrzB+VCaQPjAsL9VNK/BMYjPQLo/8L8T6rLB5gfzQIBGdD9NTaPBCffBQOFChj+52pvB
/VCbQBaa9kClprPBKM6XQKySrT/iZavBYDshQeulc8DJjKjBVSYMQYiwoMBUiKnBLWUGQWLSUcCs
eavBzuOlQOc3XkDl8oXBrXTVQIk1JUDvuonBSBrXQFeli0D9AIjB9HOnQIwYWcDYL5vBZCPKQP2l
WcBdpabBuHDuQM/nJ0CUuLDBB/i+QNX/OECPibjBcQjLQOlazkAoyqDBH12UQABHxkBavqTBicLk
QPISqUBJz7DBCTGvQAGtpEBf57XBa64VQR0qksC4hpbBRO0PQYvFNMAQeJjBwp3jQFNAfMCqXY/B
/+/fQGLDpMA695nBr/JuQB08aUDtR6rBWi5aQIa7TEAE9IzBe6sgQO+MSUDMypjB

> <OMEGA_E>
jMiHPhRojT7ouqg+SBmuPowTAz9CZgM/rJ0DPyxwCj8=

> <OMEGA_NBR>
      8787

$$$$
50253362
  -OEChem-04172616093D

 71 73  0     1  0  0  0  0  0999 V2000
    6.6027    3.6481  -19.7004 C   0  0  0  0  0  0  0  0  0  0  0  0
    4.3385    3.6449  -19.2945 C   0  0  0  0  0  0  0  0  0  0  0  0
    6.8501   10.3952  -22.1282 C   0  0  0  0  0  0  0  0  0  0  0  0
    5.4340   10.1019  -21.5986 C   0  0  0  0  0  0  0  0  0  0  0  0
    7.3773    9.2308  -22.9869 C   0  0  0  0  0  0  0  0  0  0  0  0
    5.2435   -0.9116  -22.8621 C   0  0  0  0  0  0  0  0  0  0  0  0
    5.4107    8.7887  -20.8051 C   0  0  0  0  0  0  0  0  0  0  0  0
    7.3450    7.9080  -22.2061 C   0  0  0  0  0  0  0  0  0  0  0  0
    5.7327    0.5119  -23.0329 C   0  0  0  0  0  0  0  0  0  0  0  0
    6.2277   -1.6630  -21.9889 C   0  0  0  0  0  0  0  0  0  0  0  0
    6.6358    0.4770  -20.6367 C   0  0  0  0  0  0  0  0  0  0  0  0
    5.9156    7.6224  -21.6753 C   0  0  0  0  0  0  0  0  0  0  0  0
    5.7520    1.2382  -21.6763 C   0  0  1  0  0  0  0  0  0  0  0  0
    5.8805    3.7770  -21.0248 C   0  0  2  0  0  0  0  0  0  0  0  0
    2.9078   -4.1108  -18.7455 C   0  0  0  0  0  0  0  0  0  0  0  0
    5.8863    3.6119  -17.2906 C   0  0  0  0  0  0  0  0  0  0  0  0
    6.2748    2.6604  -22.0057 C   0  0  0  0  0  0  0  0  0  0  0  0
    5.8697    6.3396  -20.8342 C   0  0  0  0  0  0  0  0  0  0  0  0
    6.2070    5.1197  -21.7079 C   0  0  0  0  0  0  0  0  0  0  0  0
    3.5491   -3.1229  -17.7618 C   0  0  0  0  0  0  0  0  0  0  0  0
    4.6112   -2.2614  -18.4519 C   0  0  0  0  0  0  0  0  0  0  0  0
    5.8165   -3.1052  -18.9059 C   0  0  0  0  0  0  0  0  0  0  0  0
    4.4567    3.7129  -20.6770 N   0  0  0  0  0  0  0  0  0  0  0  0
    5.6180    3.5200  -18.7295 N   0  0  0  0  0  0  0  0  0  0  0  0
    6.3909   -1.0071  -20.6711 N   0  0  2  0  0  0  0  0  0  0  0  0
    3.2037    3.6857  -18.6446 N   0  3  0  0  0  0  0  0  0  0  0  0
    7.8159    3.6879  -19.5289 O   0  0  0  0  0  0  0  0  0  0  0  0
    7.5002   -1.1551  -18.3232 O   0  0  0  0  0  0  0  0  0  0  0  0
    8.1145   -2.8456  -20.1348 O   0  0  0  0  0  0  0  0  0  0  0  0
    7.1186   -1.9968  -19.4655 S   0  0  0  0  0  0  0  0  0  0  0  0
    6.8218   11.3084  -22.7409 H   0  0  0  0  0  0  0  0  0  0  0  0
    7.5276   10.5470  -21.2750 H   0  0  0  0  0  0  0  0  0  0  0  0
    5.1165   10.9256  -20.9424 H   0  0  0  0  0  0  0  0  0  0  0  0
    4.7404   10.0221  -22.4486 H   0  0  0  0  0  0  0  0  0  0  0  0
    6.7491    9.1334  -23.8846 H   0  0  0  0  0  0  0  0  0  0  0  0
    8.4138    9.4459  -23.2862 H   0  0  0  0  0  0  0  0  0  0  0  0
    4.2528   -0.9076  -22.3840 H   0  0  0  0  0  0  0  0  0  0  0  0
    5.1740   -1.3995  -23.8456 H   0  0  0  0  0  0  0  0  0  0  0  0
    6.0589    8.8880  -19.9219 H   0  0  0  0  0  0  0  0  0  0  0  0
    4.3803    8.5794  -20.4820 H   0  0  0  0  0  0  0  0  0  0  0  0
    7.6543    7.0881  -22.8710 H   0  0  0  0  0  0  0  0  0  0  0  0
    8.0401    7.9728  -21.3561 H   0  0  0  0  0  0  0  0  0  0  0  0
    6.7500    0.4980  -23.4511 H   0  0  0  0  0  0  0  0  0  0  0  0
    5.0608    1.0462  -23.7207 H   0  0  0  0  0  0  0  0  0  0  0  0
    5.8598   -2.6882  -21.8352 H   0  0  0  0  0  0  0  0  0  0  0  0
    7.2035   -1.6958  -22.4957 H   0  0  0  0  0  0  0  0  0  0  0  0
    7.6951    0.6679  -20.8632 H   0  0  0  0  0  0  0  0  0  0  0  0
    6.4028    0.8525  -19.6294 H   0  0  0  0  0  0  0  0  0  0  0  0
    5.2397    7.5060  -22.5353 H   0  0  0  0  0  0  0  0  0  0  0  0
    4.7253    1.3117  -21.2883 H   0  0  0  0  0  0  0  0  0  0  0  0
    2.1516   -4.7130  -18.2206 H   0  0  0  0  0  0  0  0  0  0  0  0
    2.4290   -3.5538  -19.5644 H   0  0  0  0  0  0  0  0  0  0  0  0
    3.6831   -4.7737  -19.1571 H   0  0  0  0  0  0  0  0  0  0  0  0
    4.9479    3.4774  -16.7328 H   0  0  0  0  0  0  0  0  0  0  0  0
    6.6010    2.8278  -17.0002 H   0  0  0  0  0  0  0  0  0  0  0  0
    6.3118    4.5997  -17.0595 H   0  0  0  0  0  0  0  0  0  0  0  0
    7.3734    2.6144  -22.0366 H   0  0  0  0  0  0  0  0  0  0  0  0
    5.8912    2.9364  -22.9990 H   0  0  0  0  0  0  0  0  0  0  0  0
    6.6018    6.4147  -20.0167 H   0  0  0  0  0  0  0  0  0  0  0  0
    4.8610    6.2172  -20.4129 H   0  0  0  0  0  0  0  0  0  0  0  0
    7.2820    5.1420  -21.9400 H   0  0  0  0  0  0  0  0  0  0  0  0
    5.6288    5.1872  -22.6412 H   0  0  0  0  0  0  0  0  0  0  0  0
    2.7671   -2.4673  -17.3512 H   0  0  0  0  0  0  0  0  0  0  0  0
    4.0212   -3.6871  -16.9439 H   0  0  0  0  0  0  0  0  0  0  0  0
    4.1621   -1.7776  -19.3318 H   0  0  0  0  0  0  0  0  0  0  0  0
    4.9592   -1.4913  -17.7477 H   0  0  0  0  0  0  0  0  0  0  0  0
    6.1825   -3.7109  -18.0638 H   0  0  0  0  0  0  0  0  0  0  0  0
    5.5148   -3.7679  -19.7304 H   0  0  0  0  0  0  0  0  0  0  0  0
    3.6971    3.7174  -21.3274 H   0  0  0  0  0  0  0  0  0  0  0  0
    3.1967    3.6255  -17.6465 H   0  0  0  0  0  0  0  0  0  0  0  0
    2.3433    3.7771  -19.1461 H   0  0  0  0  0  0  0  0  0  0  0  0
  1 14  1  0  0  0  0
  1 24  1  0  0  0  0
  1 27  2  0  0  0  0
  2 23  1  0  0  0  0
  2 24  1  0  0  0  0
  2 26  2  0  0  0  0
  3  4  1  0  0  0  0
  3  5  1  0  0  0  0
  4  7  1  0  0  0  0
  5  8  1  0  0  0  0
  6  9  1  0  0  0  0
  6 10  1  0  0  0  0
  7 12  1  0  0  0  0
  8 12  1  0  0  0  0
  9 13  1  0  0  0  0
 10 25  1  0  0  0  0
 11 13  1  0  0  0  0
 11 25  1  0  0  0  0
 12 18  1  0  0  0  0
 13 17  1  0  0  0  0
 14 17  1  0  0  0  0
 14 19  1  0  0  0  0
 14 23  1  0  0  0  0
 15 20  1  0  0  0  0
 16 24  1  0  0  0  0
 18 19  1  0  0  0  0
 20 21  1  0  0  0  0
 21 22  1  0  0  0  0
 22 30  1  0  0  0  0
 25 30  1  0  0  0  0
 28 30  2  0  0  0  0
 29 30  2  0  0  0  0
  3 31  1  0  0  0  0
  3 32  1  0  0  0  0
  4 33  1  0  0  0  0
  4 34  1  0  0  0  0
  5 35  1  0  0  0  0
  5 36  1  0  0  0  0
  6 37  1  0  0  0  0
  6 38  1  0  0  0  0
  7 39  1  0  0  0  0
  7 40  1  0  0  0  0
  8 41  1  0  0  0  0
  8 42  1  0  0  0  0
  9 43  1  0  0  0  0
  9 44  1  0  0  0  0
 10 45  1  0  0  0  0
 10 46  1  0  0  0  0
 11 47  1  0  0  0  0
 11 48  1  0  0  0  0
 12 49  1  0  0  0  0
 13 50  1  0  0  0  0
 15 51  1  0  0  0  0
 15 52  1  0  0  0  0
 15 53  1  0  0  0  0
 16 54  1  0  0  0  0
 16 55  1  0  0  0  0
 16 56  1  0  0  0  0
 17 57  1  0  0  0  0
 17 58  1  0  0  0  0
 18 59  1  0  0  0  0
 18 60  1  0  0  0  0
 19 61  1  0  0  0  0
 19 62  1  0  0  0  0
 20 63  1  0  0  0  0
 20 64  1  0  0  0  0
 21 65  1  0  0  0  0
 21 66  1  0  0  0  0
 22 67  1  0  0  0  0
 22 68  1  0  0  0  0
 23 69  1  0  0  0  0
 26 70  1  0  0  0  0
 26 71  1  0  0  0  0
M  CHG  1  26   1
M  END
> <OMEGA_C>
CEnTQEZ7aUBpmp3BXtWKQAhGaUA2W5rBCzTbQOdSJkGHBrHBteOtQFahIUEEyqzBNBPsQGGxE0Ev
5bfBtsqnQJNgab+e5bbBzSStQFKeDEHEcKbBFwrrQC8O/UAnprHBknK3QFgOAz9ZQ7jBnknHQGTe
1L8t6a/BSVjUQCY+9D7xF6XBlky9QLnq80AWZ63BJxC4QLx8nj//aK3BQy28QPy6cUCyMqjB1Bg6
QICLg8DA9pXB9Vy8QCAqZ0A2U4rBHsvIQChEKkCUC7DBidS7QPzdykBfrKbBeJ/GQNzUo0C7qa3B
oyRjQD7eR8AcGI7B6I6TQBS7EMB0nZPBiyC6QFC7RsBIP5fBFZ2OQGygbUCVaqXB/cazQOZGYUAX
1pXBpYLMQKzngL9yXqXBHAlNQMLia0AzKJXB4Rv6QHIGbEAhO5zBCALwQLjbk7/wlZLB9NQBQYoe
NsD5E6HBqcvjQH+Y/79ZuZvB10vaQCLvNEFI7bXBgeLwQIvAKEE9M6rBh7qjQEfPLkECiqfBhrGX
QFhaIEHUlrPBz/jXQI4iEkGqE7/Bu54GQV0iF0E0SrrBKReIQMdVaL+CErPBmZGlQNQhs7+8w77B
aeLBQG01DkH9X5/BaCuMQBFFCUEX26PB4+/0QFrR4kDP97bBM6QAQRwh/0Az2arBKQDYQCH6/j7x
m7vBAfKhQEPqhT/sw73BYoO7QOALLMCJrq7By4LmQM0O2b8s97PBjT72QJ7+Kj/c56bBhOPMQA0/
Wj/tCJ3BSqunQMEw8EBNSLTBpDWXQPjlpz9lTqrBXbMJQJfQlsC0w5HBjnQbQEJyY8Ddg5zBDbhr
QOXBmMC4QZnBCVWeQIWOXkC/3IXBfDvTQKj6NEBYAIjBOvrJQG4wk0DmeYjB3vLrQBlTJ0AJS7DB
qoS8QLfuO0De/bfBSULTQAZFzUAcIqDBCI2bQOXyxkCZTaPBzgXpQHmLpEAuha/BJh+0QHb9pUBF
IbXB+BcxQNLnHcBTz4rBu62AQFr5a8AvjYfBSDCFQEaI47+Lp5rBKLKeQIvkvr9R+43BEdfFQCR/
bcClgpDBM3mwQDslccDb153B55xsQEbqbUCOnqrBQ5ZMQDsIaED3K43BOPkVQGK8cUArK5nBs9nQ
QLIKb0BD8JzBeuCHQMuTbkCGXprBvjzeQBizJUE4MrLBTA+wQFdsIUGpc67BZY7wQM93EkGaYrjB
AP6zQHYQhL//wbTB3N6tQN8KDUETpqfBIQruQGHi+0DKrbHBVcy9QOPX3z6XnrbB8a3QQD4uxb/E
1avBu+HMQNq8LD8Ja6LBRF2/QIW280B6/a3B9mq2QGO7oz/la6zBtia7QCOMdEC5yqfB3WNnQF70
X8CexIfBNc62QL8QcEAt1YnB+9THQOE6K0ApU6/BdDq8QG/wy0BD56bB8RbHQEwJpEDKgq3BO11c
QEEUN8AB4pLB07WPQEkIWMAU8JrBg+u+QAfjUcBlAZfBeUSNQHk/ckArY6XBIiawQFnXaUCSbZXB
+XnGQEVIS7+87KHBb3pFQE4vb0B3i5XBZ373QNkmb0C1PJvBM5O8QLOtYr8oeo3BbicBQUw81r+3
5ZXBZG3TQAo+yb8fKpbBSGreQA7UM0F9cbfBDHLyQJ3IKEFkKKvBWeekQFUUL0HnpqnBAk2bQE+G
H0GzfrXBMxXeQA08EEHMyr/BuhsJQTOyFUHzY7rB6jySQC0hk78xcrLB2jC6QKj/zL+4H7zB6CDB
QIFBD0G9XaDBeWSMQJTrCUFGbKXBYgH5QOil4EBpiLbBlV0BQQ04/0DYm6rBiHDfQPKTCT/0FLnB
FeCoQOKvUD+ABL3BHfzKQKFSJ8AdkqrBAGvyQOiJsL/F/K3B/lzvQMuwYz+w16LBrWe/QPwkkT96
KpvBj0mrQK/v7kB5HrXB5NmTQKjwrD/N3KrBUl02QKWoRsAWTYLBDVlgQOzmksDFbIjBEq6TQM6j
UMDCoYTB2OGXQMr6aUCysoXBKFLMQKt4PED9M4fBOjfFQBI1l0Bh54fBHvrqQEhgJ0AWbK/BDiq8
QHRRO0BPYbfBEunSQHDNzkBONqDBu32bQLgWyUDEv6PBlrPpQDjco0C4HK/B54a1QHOYpUCZILXB
wxQcQFNuRsAT6pXB2xdjQJKI4r8PH5LB9p6IQPDLjcDtqZzBNL2MQK1AMsB6U6LBrOHAQJL1bsCB
AY/BWTnTQCUJdsCfmJzBYGNrQMsrc0DSy6rBiJJCQLUVbED8j43BV5gPQM2/ckCn1pnBCCXUQHZb
Z0AT7p3BLweMQKT0ZEAML5rBqeDQQCYAIUFsk7bBxQH4QJADF0Hw+rDBcqWnQI7QHUED96/BgBSs
QNNBX78dLbfB++/vQImm/kD+Zq7BsSqgQIb2BUFadq3BpWK5QChSFD+Wz7jBCTfMQE1wx7/m4K/B
biLWQJhgIT8luKXB+zzHQJUO+kCvcKfB47u4QOJpqz+cGq7Bw7i7QAQqd0B6PKjBzNMhQKZrM8Cl
YI7B4VO/QLS1WkAMhorBzrXGQPQ/M0CVybDBiN6/QGK7y0C3s6PB3xHFQB4mqUCXk6zB1uF1QP6c
YcD56pDBIOSWQC4LJsAqnJfB6JnEQKD3SMBFlpjBGZiOQHIicUDfKaXBKH+1QLR2XED2/pXBW3jP
QEVtWr/Af6XB5l9QQAD8YUDqypTBCif7QLaeZ0B82pzB5WDpQI09ar/3ypHBipgHQZ81FcCq6Z/B
8NrnQGRQ4L85dJvBAIPWQBw+MkENpLfBhrrMQBFoGUFNcr7B2P4JQSlPGEFoR7bBIE/+QE+4H0EO
f6nBE4aqQD+0JkFsZ6jBgjqMQEr8I0FkirTBHCGMQGo4aL96frPBx0CrQMGSsb/Z8r7BR5vrQAbE
7EBw57XBF8kFQSaq8UAABqrB+WqDQJU8BEFcdajBfL2bQOUm+kAd+rTB4e7ZQJH2Gz9LJ7zBpgmj
QOLKhz/Wab7BhtvBQLAJJsCUda7Bs8brQDe5x79pxrPBBL/3QCfjVT/twKfBHgjPQF7HhD8lvZ3B
a+LLQMHqBkH0QKDBm8qXQFa9rT+zAavBVEvxP7F4XcCSjInBvowvQNgC8b9B4InB0esAQJYWI8Bn
4pXBep+hQIJRUUBR84XBmY3VQLDNJUBM14jBQjHOQPjYi0C6LIjBwJ3pQKJzM0AM7LHB+fG2QLkH
RkARTLjBNP3WQL2xxEDITZ3BZCefQE1xyUBcgaDBYxLmQBgtqkBsoK/BLaauQE42sEBrILPB0I2L
QILqccCYbonBs3poQNY/jsC/cJXB//GIQNj/H8COp5/BwPKXQK1zzb+7xZPB3iXOQPacZ8BXCJHB
TDDGQAoSeMByHZ/BL2FrQNkjdUB+KarBBX5RQPffWEAV4IzB3HMYQHzSaECQlpjB4gnUQM+5bUCI
9Z3B0PiLQFGwaUCbY5rB4KTaQF/mJkFeI7HBONStQGMcIkF6mqzBxAfrQEtVFEGWH7jB7pvGQLun
d7+uOLfBNvutQAIbDUEWRabB3s7qQCBd/kCJ4rHBpNa8QECtBD85wbjBrMOwQPzKu78PIa3BpkrP
QJhZIz9cnKTBJnm9QAgs9UAUZK3BmEi3QOcXpz8YFa7BMv27QHkHdUCne6jBSUNAQHxqVcDevJDB
Joi+QM3rY0DZlYrB7tXHQHeLLkDhirDBFqK8QBIWzEBevqbBAr7FQIBrpUAJ9q3Bv3OFQPxlRMCY
YpjBtjKvQLxFZcDGT5PBmjfWQNmSXcCNx5rBrcWOQJEMcEA/c6XBKiO1QLHNcECF+JXBGBTFQOBk
Ub9AraPBP1NQQCksYEBUGpXBNPP6QEnKaUDqzJzB3KXsQIh5kr872pHBL/8HQckH7L/RSaPB3qHp
QOfb3786i5zBeBTZQD2DNUH+BrbBvwDxQE9gKUGHdKrB6h6kQD9CL0HUR6fBquuWQMLLIEGZQLPB
iz/WQOW8EkFXLr/BW/UFQdLcF0G9t7rB9a+6QAY2xL/6J77Bx2TpQHcAjr/cfrbBWIfDQPWyDkFo
W5/BCVuNQCqqCUEkc6PBfk30QFko5EBbQrfBdtQAQW5BAEGINqvBQlbXQBvNeD8SRb3ByAufQLrF
Gz+5Yr3BBY2OQH/zmr8nY63BsGG0QCbEI8DTiqzBIfHxQJS2QD/f26XBo/jFQEIYkj8OJJ3B4zWn
QA+n8UB6JrTByf6UQJ/8rT/HI6zB0nMEQNX9PcDgVpTBsgY7QHlMjcCpPo/BDbFLQITlM8DcIYnB
Yc2gQK5/aUDy7IXB2V3MQPjfI0CTaInB3nvVQMZcikAx4ofB//XqQBpwK0DI9rDBm/26QMZ/QUC3
YrjBYDDVQMXvzUCidKDBp+qcQM5lyEAvCqPB17/nQH7upUCcOrDBGdixQMoMqEC4MLXB7ot/QMLs
ZcDn/Z/BJBuIQKdy/r8a4ZnB+o61QPftP8DpBYzB5+mqQOaHlMBWMZHBCWDwQN4hgsCUa5fBfUHN
QPr6dsC8rKLBSv5rQAEQcUAEg6rBfQxRQDRWXUB4HI3BbNkYQK+7W0CcDZnB35DUQEVzb0ACep3B
YwuMQNHbaUCcW5rBcvDZQFOeJkGVFrHB2EysQFG0IUEIJ63Bi5nrQH0zFEHG+LfBcVi0QCapgL9q
/rXBAkirQP6cDEGq46bBW3HqQCnd/UB20rHB//7EQMFK1T49PbfBpJLIQM8O0r+BM6zBfunMQCXB
Gz+B7KLBwXi8QJI09ECMy63BjXy6QMeeoT8TQq3Beq69QLz0ckAxLKjBVP4mQfN3t7+zj4bBgCq9
QLxzZkBmNorBVHnMQMexKkAJsq/BOgC7QAZPy0BmCqfB/ITGQAwupEAR6a3B7CERQWUUBcDeu4jB
HhELQdDH/r+BsZTB4ifsQI7cMMBKpJbBhCWQQH+ua0C9baXBa860QAR/cEC1spXB9Ci/QBJmUr96
pKLBkCNPQCyvZEC3QpXBU2T7QNDEb0CrEpzBMDGYQDkBJMDWUZfBVNbBQDWtOL8l2o3B16e9QB6p
1r8TupbBgVnZQLJZNUGa5rXBFvTuQODrKEF8H6rBB2yhQOvELkGy66fB1cyWQNBwIEFsF7TB9gnY
QKWyEkHLP7/B6m8GQTzRF0GMM7rBg1yRQPkkfL/BCLXBgaq8QOusy7/7JL3BMkG/QFEzDkHQr5/B
RRyKQOMWCUGsh6TB/Ov0QH/j40DnJrfByBcAQTjg/0CD66rBNefnQC2Dxj4uWbjBJPi1QIWhYD+Y
Sr7B83K7QLS8KcAoFavBUGzrQOoL2r9XVa3Bsw/wQLmNKj8nBaPBV5bAQFMpkT+T1ZvB3GanQN4r
8ECgxbTBb4KXQKq5qj8Ec6zBRc0qQanPwb8D/XvBEF0zQTGl+b+WQovBw3omQcDAvr464IjB68me
QGGgaUDIyIXBLILMQPQoKECTw4jBsXrSQOMEjUDDeofB4JTvQBkOJ0DRP6/B7dHCQDzoO0BD4bfB
BAfSQHERzkCpa6DB3JCaQJgux0D+x6PBIcHoQFDCpUAg66/BxXezQLA0pUA9TrXBTsMRQXrSSMAT
XIbBAOEEQfOvx7+3+YPBSdwIQROhb7/K8ZbBMewXQRGMG8CxkJnB/EbuQImGUcBNa57BOTboQEGk
YMAnQZDBVAlwQJqMaEBBq6rB6SJOQIlEZUANQ43BOWIYQFglYEADXZnBxSnVQPoLa0A5nZ3BwzCN
QC9uZUA74pnBjxXOQDvFIEF7erfBRvf1QNA0F0HCCbLBV7qlQJ/bHUHkgrDB8sqxQH8vVL/tmrfB
9nzuQK1O/0CaF6/B1MOeQDUgBkEpqa3B9Rm+QHc8Iz9v4bjB3DLRQI5GwL8tCrDBPELWQIkdMD/Q
VqXB4JjGQBsl+0Dlz6fBrry6QNQdsT/dIK7Bf6q8QBgmeUCP9qfBpWnRQM0RWcDjt4DByYXAQCyI
W0BuNorBkLLIQFgtNkDChbDB6eC/QOAezUDxwqPBPiTFQI7/qUD2dazBzkqyQBUdf8ARAonBaPmT
QK2KOsDmoo3BrOSfQPylHsDCB5nBHpuPQDIscUBV4aTBupe2QIJBaUAejZXBavHQQMRwTL9mrqXB
6wtTQAXcWkC2kZTBFyz8QPYvaUApk5zBSE/cQLCQVL9YUZHBZvfyQCuINcBMqpzBovDUQArE3r9+
XJrBfmLTQDn1MUH11LjBSRPJQGK3GEG8M7/BGKgIQetLGEFCjbfBOgP9QMVTIEGauKrBJHupQIkf
J0GmFqnBG7SJQAbCI0HC8bTBCUCRQG1ZZr+eTLTBKNmyQAbRqb+pcr/B7HDpQHKd7ED9cLbBp1gF
QTj18kDF06rBBZ6CQJGXBEHBbqjBc5CZQA63+UAkB7XBVDrfQFdTMz9E0LvBo3eoQLAWjj8NtL7B
9bzHQChDI8B+1q7B+YvxQJxyu78af7PBySf4QNt0bz+cpabBQzTMQD8ihz+Hb53Bi/DLQMjMB0Gr
xqDBIRuZQJmfsT/Vh6vBU2PmQI30hcAnQXvBLfvkQJAhJ8AUiITBmRe/QOn4PMClJnTBtcOiQOoE
XUAUhIXBXyHQQKfvHEBkN4nBNyLWQO8rh0BzZofBS7frQF7JNkBqabHBnLy5QLqjSUCGG7jBk1TX
QBjrxkCGYp3B8FGfQCvAykBCeKDB/f7lQJZKq0BOmq/Bj1muQN1TsEBJ+rLBkuzEQMivjcDvlY/B
/gifQHWbmMAuIYXBGJpmQJS2VMCMw43BNveUQHMAAsAoZojBv2OeQDtJV8BQPp7BGDeIQJ5Z3r/3
tZvBflBtQBDDc0Am4anBc2BUQGyTVEANnIzBLy4bQLoPWUA9d5jBWHLVQE+3ZkCM/Z3B4iSNQGOH
Z0B5lJrBcpTFQGv2JUH9ubPBAKbiQOKbFEFMjrjB4I7BQBIeI0EqjafBwAOnQNf4b79xQ7bBRmHR
QF5i/EBDA7bBULawQMq/DEESzKTBoKm2QNiX9j5tTrjBbA3GQMIy0r8qwq7BrLzTQDQdEj8qPKXB
YvHMQOIO9kDlw6nB1G23QJCloz+Kx63BLhK+QGNxc0DQg6jBNvtCQMyvgcCcvJrBQhq/QO9JVUA7
wYrBmifIQNVuLEC8trDBakG4QMgDy0C33abB7LXKQPhapUAuWq3BX8VfQKG6VcDKb5DBmqSTQO0H
FcDut5LBxGm9QPWBQcB8OJbBjpOQQGv0cUAplqXB3kq2QMMJZ0BxEZbBUiDLQMhlZb+uk6TB3s9R
QNE+YUD5ZpXBpkH8QAV/YEDwxZzBajDqQBh2Xr97SpHBas4DQedRIMBbI5/BKHzjQMYy47+1ZZrB
rFTTQBjNNUF1brXB9p2lQCbQJEEiXrfBLgDkQGm1FkFVScHBEIEBQRQ6FkFMMLXBEDXhQCRNJUGU
26PBXkerQO8wL0GyZKTBRxCHQFSfZ799lLLByE+lQAYOvr9v4r3BR9CxQOp0+EDlx7nBFZXnQIhC
5EAjN7nBiX2wQMXUCkG8DJzBJeqPQCkiC0F/46fB9SXXQDZZ5D7VrrvBMQahQD0Aej/RAb7B3sq5
QAmQKcBP/qzBoGvlQOp63L8Es7LB95X1QFO4OD+sU6fBRz7NQATkgj+qYJ3Bq/bsQFea90CCIabB
EJuWQELMrj+UrarBmcYPQMCdmMAk1pjBIvgqQOTMU8C+fKDBDaJ5QF3aksBjQJ7Bqi+hQNeBWUDS
JYbBepfMQBGUFECY9InB7SXWQMw7gkCBrYfBhyDrQFaZKEAtl7HBO8S5QJnrPkDKZ7jBq6O9QOvN
xEAwT57BgK2VQBsbzUCebajB/dDtQJLnp0Ayca3BG3q+QJ8pp0Bgl7XBabooQEbTM8DO84zBU2R3
QI7dgsBzt4rB4R2JQLpp07/bIpnBmOWZQJ+n37+/aYvBG6PKQCkbZsAgeI/BD7i2QKYkbcCn65zB
EiBwQI+Id0BnrqrBG8hRQOZlW0CKb43BC28aQPhJYkAOaZnBAgbUQML4ZUDGFJrBkEmKQOF6ZUAy
l5nBEB7BQJMAKEGtArbBeJPOQBwCGUGVN7/BV3zRQFmmH0HBJavBuBisQHqJEb9BMLbBN9u+QMoB
AkG/L73BGDfCQCaUCEGsEqnBoOi+QDaKWT8VnbfBiifEQDqdrb8tca3B4DzZQBL/SD9Qm6TBi8vP
QL3l8kDIXLLB3cG+QDvpzD+px6zBttbDQLkOgUBfC6XBXCIsQB4Wd8AYj47Bzz2xQK4nMUCw+4jB
vJfQQDHIQkA/P67Byry+QDQCxUDUs7DB7ZnUQJP3rkCRCqfBSPCCQNM/jMD0bYvBcHClQLGeUcAM
uYvB/PeoQG3RKsBB95bBfgOVQJv6gUBdsaPBMPWvQNNMT0D/IpTB5bnGQIzbDL9Gd6PBIANGQJor
XkDvBpbBOZf5QMO9XEATdJfBAOLIQOT95b5nxI7B5w77QBmfAcBsw5jBshTRQHVhsL/zqpfB0IXO
QFsEOEHOdLfBZ/ydQAH+KEEBxrXBQKzAQMPlHkELv8bBR6/xQGr1GEGt2b/BJ670QGv1H0H2JKvB
BWDFQNAWKkH8vaTBcTOKQNqu97786bPBoLSuQCJWjr+7z73BG6mbQLnkAUHVD73BuVvKQBIq70Dc
qsPBomjQQIDIAkE6j6HBtR+fQOV7CEE4YqjBqfjfQAuRRT9ykbrBSnGrQF0etD/7br3B4vqyQMXQ
EsB9yavBHbLkQL/5yr82QLDBJXL6QNTuMj8/cafB7M3YQC/rpT+l0JzBYPTyQATP8UBYr7LBG5Sd
QMOv1T955KnB0IL7P0j9lcAKN47BK58YQA1sRMD09IjBWDAuQAARXcBXu5bBL4OQQF+6I0CHNobB
H4fEQIXF7D/pgYjBvKe/QM3SYkCg5IPBR7jzQKguP0Ail67B9k3EQJNxXEAP2LXB7QmcQDNqxkDS
Q6/BkBDFQOYhskCz9bfBRZ/OQIRIwkCN1p/BLTz3QA1irUAHkKjBhGGBQFlkmcBzRoPBGyqMQNO2
pcDWDJHBHcCcQKT2HsDIAobBWYLEQF5JbcBRdInBo2CxQJXfXcAAppzBLtSJQBwxD8B3LpnBIx2A
QJ0JjEBNNKnBfEY7QCywRkABtY7B/dAUQH8TcEDuoJrB6gLQQMuecEDGBZ3BGkWHQG7hZEB+P5rB
eJrlQMXSHEG2b7jB/0P+QFrHF0H/B67B7t20QIxMGkFy0bbBwMyoQDwhbL91U7PBgKvzQGEgAUE9
CarBEfqpQIGmA0G727LB5ZS2QPsEAD8dwbbBImDGQMaOvr+hhqrBMcHYQOrCUz8uyKTBba3CQMT5
/EAQZajBH5i4QH6Ltj8426zB5oi5QAdlfUCnu6fBZrfuQNJOb8DErm7BBOS3QLNJS0BaPorBlkDF
QMy8N0CUN7DB2aC3QBXRz0DhOqTBVEjEQDtbq0AQKazBckftQNUvU8CiF4PBboS/QJkbN8D+IYbB
5Oy7QFN+H8DZCZLBPcKLQA10eEChDqXBRhuwQPl0W0DOrZXBTKrKQNKKAr/opKHB5NlEQCvqW0AW
XpXB7cv2QEVKcUD8dpvBJeTWQFLeLL2Bh43B4ZsEQYm5zL/gppfBld3dQHFNi7/XoJXBJojsQHZh
LUGx3brBuS/wQKzFEUHvwL7BKGsQQZzoGEFalq/BKD71QA53I0GS2afBH+KpQOEMJkHN3rDBSn6k
QFkvHUEseb7B0teHQIcKYr86QLDBKg6qQMUPy7+rVbrBdcD+QMi86kAl+K/BdA0CQW6o/ECFYaLB
mGKHQFGbAkGzULHBdeiyQMDu70CODLnB01fWQNxy6D6oh7rB5DufQB6oZj+RgbzBuKW4QMQeG8D8
aKfBsSXmQKJ52L9C863BxZD4QG91Qz/Qg6jBNnbaQFFSvD8yqZ3BkZS4QFoeCkGiSqLBmMKYQB2B
uj/3G6nB4bkHQYOUgcBwiGrBWQjlQA2UOcB+ZGTBF6/YQBqtksB0Q2zBmnKZQFf5O0AYQ4bB0BnO
QNMfFUCoXYnBQvTFQFFXgkD7jYbBzwvoQOyFOUD/h7HBoaS0QIpAR0DGurfBa7DIQDKhykCLpJzB
SOuUQL0szkAK06LBH+rmQAQdrUAirK3Bj9eyQDcQsECTtrPBcLABQdI4HcDuR4TBngf3QHx/hMBq
N4jBalCpQMT7a8DEaoTBQrW2QOYH/r/jSoHBwlfFQORHV8C53JbB9XqaQASxDsDozZPBXlJnQA7Z
gEBDMarBAjVDQGfYTEBdmI3BXkQOQIkkZEBzapnBHiTUQAiEf0ArdprBlOKKQIKsbkB5KprBsLXV
QLPlJkHZMbLBlXeoQDZCHkFkk7TBrBT4QAWpFUFURrTBs9GeQNabbL7Zy7XBEk6fQIv/CUE59q3B
8A7vQNE4AUFVwq3BvJmZQJ3adD/7Hq7BJdipQOMjwL8ga6/B0AfjQDqWNz1gxqfBr3TBQFIg8UAP
HLDBIAXDQNBSnD/wRKfB9/rEQJOcc0C3AqbBz980QM5fOMA+U4jBM4SwQKfCgEA0S4jBubvZQHuf
IUDJ66rB8Fa3QP3qyUByGanBbC3QQM+ioUBa26zB5mNqQLM9asAXkZDBz/SbQMu8NMDdLZTBXrW3
QGTuZ8CKKJzBwSaWQN+Ea0Bo7KTBq5yvQM4YgEAhEZTBL/XKQPthnb8gFKfBL6JHQFtLZEBwlJbB
7zX5QK/AhEDXepfBDV/7QOGiB8AL1JfBbmT4QCDPVcAHtanBwPDiQGWWJcDuKKHB2ALcQI7ENEGe
YLfB5lfXQJfeK0Faw6nBJryQQFebKkHJi7LBWQ6mQP5dGkECI73B4jb4QGikEUGe17zBK8oLQbkI
HEF4+rHBeL6AQMnixr4pMbrBHLy4QNs9hbyEf7vBs6KfQE4hDkF9aKXBIDB/QCO7A0FrJbDByFwD
QdrX6UDr56/BybvxQBfqBEFVLqXB4HCSQA3S7T/F1bLBKZt9QCsxPz/AqqjBG6yMQFTZ77/Jf6vB
wRW2QPb3EMDo9bTBtcf0QDZgqD1KXq/BcaH5QC9w6z04DaHBJ7i/QBWs50A9k7jBVBW5QKLrrD8k
5J7BoaH7P2RxX8CQ1IXBVLBcQIWJKcADT4HB0d0dQBvv+L+L8YvBMJGPQGvqgECiMoXB/FnBQLli
SEBCV4XBf1HBQCGrnUAKi4XB+nf7QN69HkBZb6jB1ezXQFzoJUBusbPBfk7AQCUV0UDGx6DBss6U
QPRNw0AchanB/rbyQN/pp0B0NKzBs/PHQOYMm0DZQLXB5pCAQBIUk8Cm7IzBSU9CQCsWecAuj5fB
NY+QQAC48798EpjBv2OvQJz9I8CTJY3BNzbFQFoZkMBIFpjBnLGjQOIBfcCl5qLBcJ2BQNDIZEAs
AKvBZro7QDOxaEAdvY7BE+wXQCf6V0BSr5vB

> <OMEGA_E>
SLbePkip7T7gcfc+IJnXPnBvMT9EDhQ/2N8BPwqMRT9awTo/poI5Pw==

> <OMEGA_NBR>
     20179

$$$$
50253358
  -OEChem-04172616093D

 70 72  0     1  0  0  0  0  0999 V2000
    6.6295    3.6893  -19.7213 C   0  0  0  0  0  0  0  0  0  0  0  0
    4.3779    3.6705  -19.2621 C   0  0  0  0  0  0  0  0  0  0  0  0
    6.7445   -1.6019  -19.3638 C   0  0  0  0  0  0  0  0  0  0  0  0
    6.7915   10.3974  -22.1619 C   0  0  0  0  0  0  0  0  0  0  0  0
    5.3811   10.0929  -21.6229 C   0  0  0  0  0  0  0  0  0  0  0  0
    7.3311    9.2330  -23.0131 C   0  0  0  0  0  0  0  0  0  0  0  0
    5.5330   -1.0007  -22.7452 C   0  0  0  0  0  0  0  0  0  0  0  0
    5.3770    8.7865  -20.8202 C   0  0  0  0  0  0  0  0  0  0  0  0
    7.3129    7.9161  -22.2244 C   0  0  0  0  0  0  0  0  0  0  0  0
    5.8043    0.4752  -22.9682 C   0  0  0  0  0  0  0  0  0  0  0  0
    6.6344   -1.5555  -21.8574 C   0  0  0  0  0  0  0  0  0  0  0  0
    6.7404    0.6098  -20.5664 C   0  0  0  0  0  0  0  0  0  0  0  0
    5.8864    7.6241  -21.6903 C   0  0  0  0  0  0  0  0  0  0  0  0
    5.7986    1.2530  -21.6345 C   0  0  1  0  0  0  0  0  0  0  0  0
    5.8736    3.7935  -21.0322 C   0  0  2  0  0  0  0  0  0  0  0  0
    4.0905   -3.6625  -17.2342 C   0  0  0  0  0  0  0  0  0  0  0  0
    5.9677    3.5929  -17.2932 C   0  0  0  0  0  0  0  0  0  0  0  0
    6.3581   -3.0996  -19.2963 C   0  0  0  0  0  0  0  0  0  0  0  0
    6.2382    2.6820  -22.0253 C   0  0  0  0  0  0  0  0  0  0  0  0
    5.8517    6.3468  -20.8484 C   0  0  0  0  0  0  0  0  0  0  0  0
    6.1705    5.1302  -21.7300 C   0  0  0  0  0  0  0  0  0  0  0  0
    3.8781   -2.8813  -18.5431 C   0  0  0  0  0  0  0  0  0  0  0  0
    4.8560   -3.3419  -19.6430 C   0  0  0  0  0  0  0  0  0  0  0  0
    4.4619    3.7133  -20.6477 N   0  0  0  0  0  0  0  0  0  0  0  0
    5.6697    3.7648  -18.7191 N   0  0  0  0  0  0  0  0  0  0  0  0
    6.6016   -0.8673  -20.5509 N   0  0  0  0  0  0  0  0  0  0  0  0
    3.2573    3.5846  -18.5930 N   0  3  0  0  0  0  0  0  0  0  0  0
    7.8463    3.6279  -19.5844 O   0  0  0  0  0  0  0  0  0  0  0  0
    7.2729   -1.0897  -18.3829 O   0  0  0  0  0  0  0  0  0  0  0  0
    6.7494   11.3048  -22.7823 H   0  0  0  0  0  0  0  0  0  0  0  0
    7.4707   10.5649  -21.3130 H   0  0  0  0  0  0  0  0  0  0  0  0
    5.0580   10.9180  -20.9711 H   0  0  0  0  0  0  0  0  0  0  0  0
    4.6840    9.9991  -22.4686 H   0  0  0  0  0  0  0  0  0  0  0  0
    6.7039    9.1232  -23.9100 H   0  0  0  0  0  0  0  0  0  0  0  0
    8.3651    9.4572  -23.3139 H   0  0  0  0  0  0  0  0  0  0  0  0
    4.5574   -1.1301  -22.2536 H   0  0  0  0  0  0  0  0  0  0  0  0
    5.5304   -1.5290  -23.7100 H   0  0  0  0  0  0  0  0  0  0  0  0
    6.0315    8.8974  -19.9431 H   0  0  0  0  0  0  0  0  0  0  0  0
    4.3515    8.5684  -20.4873 H   0  0  0  0  0  0  0  0  0  0  0  0
    7.6279    7.0943  -22.8844 H   0  0  0  0  0  0  0  0  0  0  0  0
    8.0089    7.9923  -21.3760 H   0  0  0  0  0  0  0  0  0  0  0  0
    6.7881    0.5907  -23.4464 H   0  0  0  0  0  0  0  0  0  0  0  0
    5.0257    0.8873  -23.6269 H   0  0  0  0  0  0  0  0  0  0  0  0
    6.4780   -2.6341  -21.7085 H   0  0  0  0  0  0  0  0  0  0  0  0
    7.6108   -1.3891  -22.3359 H   0  0  0  0  0  0  0  0  0  0  0  0
    7.7826    0.8701  -20.8032 H   0  0  0  0  0  0  0  0  0  0  0  0
    6.4802    1.0053  -19.5735 H   0  0  0  0  0  0  0  0  0  0  0  0
    5.2092    7.5022  -22.5484 H   0  0  0  0  0  0  0  0  0  0  0  0
    4.7735    1.2847  -21.2368 H   0  0  0  0  0  0  0  0  0  0  0  0
    3.3776   -3.3079  -16.4752 H   0  0  0  0  0  0  0  0  0  0  0  0
    3.9280   -4.7350  -17.4170 H   0  0  0  0  0  0  0  0  0  0  0  0
    5.1178   -3.5033  -16.8749 H   0  0  0  0  0  0  0  0  0  0  0  0
    5.0416    3.6986  -16.7092 H   0  0  0  0  0  0  0  0  0  0  0  0
    6.3945    2.5930  -17.1259 H   0  0  0  0  0  0  0  0  0  0  0  0
    6.6910    4.3582  -16.9750 H   0  0  0  0  0  0  0  0  0  0  0  0
    6.9803   -3.6576  -20.0116 H   0  0  0  0  0  0  0  0  0  0  0  0
    6.5498   -3.4685  -18.2779 H   0  0  0  0  0  0  0  0  0  0  0  0
    7.3323    2.6781  -22.1392 H   0  0  0  0  0  0  0  0  0  0  0  0
    5.7700    2.9260  -22.9903 H   0  0  0  0  0  0  0  0  0  0  0  0
    6.5983    6.4198  -20.0439 H   0  0  0  0  0  0  0  0  0  0  0  0
    4.8502    6.2266  -20.4094 H   0  0  0  0  0  0  0  0  0  0  0  0
    7.2377    5.1585  -21.9951 H   0  0  0  0  0  0  0  0  0  0  0  0
    5.5635    5.1910  -22.6453 H   0  0  0  0  0  0  0  0  0  0  0  0
    2.8473   -3.0419  -18.8917 H   0  0  0  0  0  0  0  0  0  0  0  0
    4.0371   -1.8102  -18.3496 H   0  0  0  0  0  0  0  0  0  0  0  0
    4.6211   -2.7933  -20.5670 H   0  0  0  0  0  0  0  0  0  0  0  0
    4.7083   -4.4193  -19.8085 H   0  0  0  0  0  0  0  0  0  0  0  0
    3.6866    3.6929  -21.2790 H   0  0  0  0  0  0  0  0  0  0  0  0
    3.2708    3.5820  -17.5931 H   0  0  0  0  0  0  0  0  0  0  0  0
    2.3869    3.5214  -19.0814 H   0  0  0  0  0  0  0  0  0  0  0  0
  1 15  1  0  0  0  0
  1 25  1  0  0  0  0
  1 28  2  0  0  0  0
  2 24  1  0  0  0  0
  2 25  1  0  0  0  0
  2 27  2  0  0  0  0
  3 18  1  0  0  0  0
  3 26  1  0  0  0  0
  3 29  2  0  0  0  0
  4  5  1  0  0  0  0
  4  6  1  0  0  0  0
  5  8  1  0  0  0  0
  6  9  1  0  0  0  0
  7 10  1  0  0  0  0
  7 11  1  0  0  0  0
  8 13  1  0  0  0  0
  9 13  1  0  0  0  0
 10 14  1  0  0  0  0
 11 26  1  0  0  0  0
 12 14  1  0  0  0  0
 12 26  1  0  0  0  0
 13 20  1  0  0  0  0
 14 19  1  0  0  0  0
 15 19  1  0  0  0  0
 15 21  1  0  0  0  0
 15 24  1  0  0  0  0
 16 22  1  0  0  0  0
 17 25  1  0  0  0  0
 18 23  1  0  0  0  0
 20 21  1  0  0  0  0
 22 23  1  0  0  0  0
  4 30  1  0  0  0  0
  4 31  1  0  0  0  0
  5 32  1  0  0  0  0
  5 33  1  0  0  0  0
  6 34  1  0  0  0  0
  6 35  1  0  0  0  0
  7 36  1  0  0  0  0
  7 37  1  0  0  0  0
  8 38  1  0  0  0  0
  8 39  1  0  0  0  0
  9 40  1  0  0  0  0
  9 41  1  0  0  0  0
 10 42  1  0  0  0  0
 10 43  1  0  0  0  0
 11 44  1  0  0  0  0
 11 45  1  0  0  0  0
 12 46  1  0  0  0  0
 12 47  1  0  0  0  0
 13 48  1  0  0  0  0
 14 49  1  0  0  0  0
 16 50  1  0  0  0  0
 16 51  1  0  0  0  0
 16 52  1  0  0  0  0
 17 53  1  0  0  0  0
 17 54  1  0  0  0  0
 17 55  1  0  0  0  0
 18 56  1  0  0  0  0
 18 57  1  0  0  0  0
 19 58  1  0  0  0  0
 19 59  1  0  0  0  0
 20 60  1  0  0  0  0
 20 61  1  0  0  0  0
 21 62  1  0  0  0  0
 21 63  1  0  0  0  0
 22 64  1  0  0  0  0
 22 65  1  0  0  0  0
 23 66  1  0  0  0  0
 23 67  1  0  0  0  0
 24 68  1  0  0  0  0
 27 69  1  0  0  0  0
 27 70  1  0  0  0  0
M  CHG  1  27   1
M  END
> <OMEGA_C>
nyTUQPAcbEBDxZ3ByBeMQLzoakDPGJrB19LXQCYKzb//6JrBAlTZQNxbJkGMS7HBUjKsQIl8IUGe
+6zBPJjqQIi6E0HEGrjBBg6xQFIWgL8V9rXBARCsQJ6VDEHBj6bBQgPqQNtQ/UCqy7HBdry5QE5O
8z7RvrfBEk3UQBAax7/d267BRrHXQFsaHD/qh6TBs128QGj480Cjha3BBo65QMpjoD+CE63BavS7
QOLIckDfQajBCuWCQJ5masCm34nBwve+QHHyZUB1WIrBxnXLQP1fRsDpXprBlZ/HQK+lK0DbM7DB
w0C7QNMYy0B+yabBenTFQEQqpED31q3BZDN4QE9nOMBPWJTBRGSbQEvhVcDIJJ3B4ceOQD6nbUBo
LqXBk261QCTzcECywJXBi0DTQJIHXr9XaKTB6nZQQGVpZUCNvpTBJRX7QE0vaEDBrJzBj7voQBx8
i79FEJPBrfrXQGfgNEEsQrbBuQ/vQPgJKUHygKrB0dqhQAqwLkHKxKfBpOOVQED8H0Gnv7PBP4bW
QHf4EUHCR7/Bj9cFQbVQF0HjgrrBodaRQCGokL9lB7LB5/iwQGm3w7/9rb3BsgHBQI9bDkFoi5/B
bD+LQAwYCUHv5aPBXRf0QOIE40AtE7fBSSQAQUPB/0AWAqvBGTjZQMs1Fz9GkrvBg9KgQBMpYz/+
A73BEEzPQOCUKMD8qq3Bu4vzQGXPsb/cr7LB4Ar5QMi+Xj/lbKbB013PQBmtgD9tlpzBgrGmQCES
8EArY7TBmMCYQJxwpD/j5KnBjCpYQAe1U8AzzYPBP2R7QAeFl8DxVYvBaMWjQC82YMC4/4bBvFSh
QM+1bEBjrIXBrJ/MQE3zJUDQAYnB6xzWQEV2i0DczIfBjF7fQFIWasCvF6DBlZfRQPr7XcAsOZLB
S6LqQEFmK0AdHbHBvqO4QDBEO0Aj7LfBbCXTQF9vzUD1WaDBNTWbQB9Ax0BnRqPB3JrnQLISpUAE
9q/B/geyQEccpkCaKbXBWjk2QC6uQsAlIpfB9S+BQJ+057/ry5LBqd+TQCbFMsA3iaTBPaqWQJpq
jcDod57BBvJrQNdXbEBZO6rBcFVRQDdAZUC/vozBRMMYQKJeYUDDppjBK2vSQB2HaUCyUJ3BEdWJ
QJHLakB0WJrBmtbcQHFYzr9L/5rByL7PQM1HJEEDFLXBhl/vQGpEEkEt07fBwJfBQOvVIkF3UanB
EDfDQM0rib93ObbB5lDbQBqY+EBho7XBdbOtQIjzDEGA6abBydy/QMS54z5S27fBt+auQH3PvL/G
qavBpVXQQKvQGz/ApqPBhZXMQH8S9UBzzKnBPtO4QIFfoD+gW63BXRK8QOOdckA4B6jBSq5CQLvY
WMBYJo/BaWq6QGllYkAJHYrB8L/WQB0NScC7r5nB35bIQBqcK0Da+K/B3gq1QHbyykCeUafBLxfJ
QBxjpEC5D63BUDiFQN7MRMDLGpfBdM+wQOLRXcCXOpLBR0mOQKyBb0BUaKXB4oyyQC14bUCrmZXB
gHfIQBPRWr9kBaPBT21KQEDdZkDiS5XBDCX5QIpXZUAb05vBkZbxQIKOhL8AEJTBRVHfQFLTM0FQ
crbBlXKzQPrlIkEiRLrB0wL4QLtcE0GXVsDBfygGQQ0UFEEu5rLBhpvdQKA1JUHBH6TBVs+pQHZn
L0H2tKfBSZuyQHzSyr9Bz7zBtyXlQI2drr/0MbbBFn6/QB8x9EA96rrBah/zQAGE30DBSLfB2g+m
QMUMDEFrVZ7BwyaQQGgwC0GznKvBva3dQIx2Sz9zmrvBAsekQNjwJD/tPr3BWq+NQH+Pjr+bTqvB
CUivQNt7JMAf1KrBde3yQL1/SD+afKTBhNHEQJhWij8sPpzBQ/ToQINI90BqnqTBglaWQEvvpD+E
nqvBlasEQJ7nRsApqZLBIMtCQAjdjsDJVI3BggZNQI9SNMAcvYfBmQ6cQAZiaEANuYXB5jfIQMKs
IkAGq4jB2+HQQETpiUClVYfB7qzQQFeCZcBEl6HBESH0QOeiZMCyR5bBCr3rQM62KUCrYbDBz5u7
QIQ+PUBo2bfB6TC2QCJExUCRo57BFIWTQM8LzkCD46nByiHsQEtfp0AxsKzBMba+QK6upEBJeLXB
IwCAQExSacCPg57B1B2FQJXV/7/h65jBlbqwQDGCkcD7m5DB0Re1QKKoOsA7rorBA5FsQBiYcEBJ
sqrB7TJJQKOAZUC5TI3B4KwTQK04ZUAOb5nBAnXSQO0La0AFXZ3B6emJQOJ+akD9LprBPrbYQLTs
2L8OrJrBEfvcQG3vJUEVkLHB5uavQO+qIUFNEK3BwsTsQCkJE0HpaLjBF0jIQPkPf7/pDbfBx/Ku
QHPADEGSoqbBgqzrQD0P/EDNBrLBvMO7QMpF8D4P/bfBCry2QFLLzL+v1KzBVHrUQMZ5Bj8INaTB
Hxa+QDWy80AEkq3BETW5QNTpmz8+GK3BC2O7QL2ycUAR/qfB+LJNQOoMNMCW6JXB5SS7QBZia0Af
FIrBmffJQLqCSsBSoZjBqAvIQF8iKkBLya/B6Wi8QBb0ykAlt6bB4LbFQK56o0Cipq3BIaSCQKMn
dMCOoo/BNNiwQPhVU8Dc/o3Bg9yNQPIcbUB9PqXB/tGyQJ2YZECtmJXB7v/KQBtjcL8LiaPBHOxK
QDHBbEBwC5XBLEn5QKrXbEBy+pvBsr7vQFoPlr/u6ZPBmRLcQCBwNEEci7bB5UrzQFxdKEGh3arB
lKSmQKUAL0G3zqfBABaZQAx9IEEfvbPBHAfYQJ9yEUG2eb/BeOgGQdUwFkEv/7rB41O7QDMPxr+s
8r3BpWLrQJrrib9yBLfBhS7EQKtMDkHAqJ/B2guOQNaxCUEV6KPBz+v0QG1x4UAGTbfBPDABQes1
/kC1UqvBoqPTQHf4eT8TBr3BuTGcQE2SBj+s2rvBPOOTQI6Rub/qgqzBQNy9QNlSK8BipazBTp72
QC1kKT8jDabB2yvNQJETfj/Yc5zBc/OnQIAD8EC0WbTBZJ2XQDvbnz8weqrBeMgMQIcxTsCU3ZbB
GXlKQC1g7r8SgZHBxidqQNv2KMBh1p3Bb++cQNUZZEB4p4XBapTRQELFOEBuo4fBGyzJQJwvlUD6
TYjBzj21QBjoXsA5RZ/B5F3mQPUDdMB5SpjBlzHrQD1RKUCrQLDBALi6QOKtOkAPqrfByX/UQCIk
zUCAUqDB/2KcQMbZx0AxJaPBV93nQF+do0CiyK/B2kuyQMWSpUDa+LTBY/JnQKcQf8CjwIfBiNCD
QLVrmMDyFZTBVPLBQDBKgMBTyIjBy3WvQNs9FMBzG4rBp0ZrQJYLbEBLeKrBkiZKQO4yakA4DY3B
evcTQIAJcUATHJnBOvTUQOWCb0CVCJ3BVg+MQKCtaECMg5rBstyhQHPhsb+PEZnBOh7aQGdeJkEO
abHBvhOtQFWyIUFG/qzBXjLqQMrHE0GQabjBdlvLQG9YkL/fprTBKKesQEClDEHpqabBGszpQII5
/UD6KrLBPGjLQEG7wD4HDrfBVG+nQIJfvL/U1qzBrDLFQL5jDD98qqLBIny8QEPe80CFqa3B7GW7
QPspnz+5i63BEmW/QOGncUCJ6qfBNScGQfdzIsCkm5zBYs+6QHkZcEC+8onBok7AQCsctr+jZ4/B
mvfPQNnBKEASLK/BAOe7QML7ykDy16bBQijIQEOyo0APpK3BainoQN+JW8BfOJjBZkXTQAZJNsD2
743BnpuRQLVhaUAFi6XBklW0QB+naEAQiZXBlDWvQOA0R79jkqLBo75NQMz8ZkA6t5XBNIP7QHzk
c0DDTZvBQlCFQJ3qDsD1ZpnBDgLZQJsMNUGiQbbBsFLwQBilKEF/rarBGlGjQGzcLkHFr6fBjm6W
QGd5IEHhs7PBX0/VQF5AEkFQdL/BuYsFQYg3F0H8B7vBkIvGQEij17/5JLzBM0bqQD6CtL+CGrHB
yLfBQO46DkF4qJ/Bf8yLQEpMCUEe/KPBFk7zQMsI40Cqi7fBIVEAQYRa/0AMfqvBK0vsQEaLLj8P
BrnBVXm2QKVYDz+/+b3B1paIQIuikr9iLrDBVrymQHfAI8Daf6vBbO3nQG4g0D4syqHBbDq5QGOb
lT8+C5zBI0mmQBfL70BEarTB/nyYQD4CrT/GRK7Bmu0MQR3UP8A32qPB0V//QCHTxb9nlZ7B4cAS
QbTSG8AphZbBuvqbQN89aEAm0YXBjSfRQPIkPkDHQYfBHirIQBbAl0DKFIjB5IjaQDEuNb8/uJDB
1YeuQGYfkr9vJojByI7yQHc6IkC5wq3BQGLKQLflO0BchrfBaOvSQEBjzkCAPaDBOJSbQAFRxkB5
j6PB5XzqQOOOpUAsh6/BW4W1QKR4pECSGrXBZ1nPQBoLYsCtaJ7BWHv1QB96jcBvWJbBAMfrQI+T
M8AeoYfBZFK5QHNzYcBscIvBbG50QDD4ZEBd+arB9b5KQDh/ZUAIuo3B9OEXQHkvZ0BbCZrBt1HT
QLY5cEDFiJ7ByMmLQPJIakA1TJrBapLZQBRpXr9S0pbBaSfbQH+yJkHEz7DBIT+vQHCAIkGboKvB
38nnQCNlFEGxbLjB9dOwQATen79WIbHB6QOvQErxDEE3wKXB0EfnQKp1/UCwnbLBLWG2QBpOQj79
jbXBf+zWQOzR1L/OAarBXTvlQO78Oj/RIKbBBt+6QL5E9UC5eK3BDW29QLpbmT/WTqzB5Lq5QMWH
ckAZ7ajB2pEHQaNHT7/RjmjBsT3AQK0tckD/54rBSZrYQP6VoD6JuI7BswrEQG9SKEB+3bDB4QG6
QKsty0DJL6fB1UjBQDRbpEBMpq7By/IEQbSGF79iXoDBVCPcQLKyyr016YLBTRGNQG0pbEA4aKXB
2rK1QLHSZ0DGSpbBLtrdQNaSHr9p2KHBCSxRQFTLakAmopTBDR/6QES4eUCkoZ3BNVPTQJ3aAMA6
oZPBQq/ZQMS9NUEvXbXBN3XzQCQWKEHfe6rBYj2oQAdcL0EW4aXBVoiWQPVOIkGU5LHBkvvQQDfe
E0FkH7/BCxcEQaRnF0HfhbvBH0WTQOaPpb9mXazBwnKuQNeL+b9j47fBNmnGQBFzDUFHLp/BoeGO
QLICCkG0eKLB8DvuQH/X40AzZbjBGuD/QKCI/UAMUqzBkjnSQK7JXD4Z77rB9HOZQF088j75BrrB
oc/PQOS6J8AYEabBZNrzQGhr4r+k8q7Ba3oAQeJkNj9ljKvB65DrQLFYtj/nfJ/BpLmiQBfD80AZ
3bPBEWyhQD93mD8C+qbBuOcXQZB6lL+yKmXBEbMEQWyGDT4TGmDBT/T3QIgXyL9WFGPB/kijQJFQ
aECJDobBF6jYQC/iQkBrnojBKq/MQPGLmUBFhYnB1oDzQNbzez8Sk5DBukG6QPjNWj8Ay4/B8bTl
QDl7LkBKUbPBRTyvQKecL0CU57fBa2TTQKPWy0CyF6HB4rOaQP7Yx0D9P6PBe3HiQO05pUA/mLHB
ZBirQLC5pkCKdLXBY5UQQQdMJD5iFYPBetwHQdQ+xb+EkoTBGqPUQLdWRD/7onvBRDrFQBeiaL/k
RoHBSSxnQKaUaUBYPKrBdD1UQLRZaUAGpYzB2UkYQJ2gbEDhSpjBApLUQFWmcEAbCp3BIrOLQClU
Z0AYb5rBntmqQIO/j79DQJjBpvjbQCbCJUG9xbHBhNOuQBuRIUFQTa3B1lDrQBftEkH3sbjBkGXI
QDuNjL91vrTBoNOtQGnADEHY0KbBdlnqQEXv+0AjU7LBVvXIQEyB0D5cf7fBlH6nQFeNsr/i8qvB
oFnKQK9eJT+6bqPBxvG8QHmj80DSta3BauS7QAqPpj/C5q3Bns2+QGEyc0BQ8qfBTp7PQE/5gsDI
JozBDrS6QPrTbUB044nB8H/QQA/ujL/zXZDBLCvPQGJsLEDhn6/BENq7QOdOy0CDwqbBrqPHQIE+
pEA1ka3BTqzkQAs1YMBpSJbBVC/0QGzxAsCCi5TB8vmQQGzYakDNeqXBKg60QKyXaEB7gJXBcDSy
QFatGr+yUqLBAV5NQMCdYkAbk5XBbij7QDqUc0BUUJvB4sKNQO8f97999JbBaFHbQK9bNEElr7bB
flTyQDD2J0HJEKvBs3+lQP/3LkGlGKjBNRmYQGhNIEHz/bPBlz3WQMFmEUHEs7/BdyEGQYIKFkG5
X7vBoQnAQF/i1b+t9bvBP1noQEYjs7+98rHBgQ7DQKVcDkHE15/Be+uMQI26CUHXFKTByzzzQL1M
4UC6obfBt7MAQaf//UDpsavB0H/pQNMmLz9qBLrBHH+yQOhFFj9aHr7BxlKHQFaAj7/oxK7BJTuo
QEzhHcB6+6nBLN7sQNAH3j5/uqPB8YLDQAXupz/4o5zBfIimQMGK70Ada7TB1s6YQIrisT8S0a3B
7ivFQBD2o8BFxI3BjenmQOcAg8DSjYXBbcWzQNXIXsDe6YnBa+qbQB9hZUBjwYXB0AHRQKw/O0AI
XYfBzS3IQAlklkDo2IfB6hPdQJyKnb3RtY/B15rFQNDBuL/MdYjBRgzyQGBXJ0C+n67BBtbHQDBt
QEA73LfBDfLSQB6ezkCSK6DBj4CbQOcNx0A2daPBRfLpQLbspUDTfa/BRd+0QBdKpUDvAbXB2ycA
QQcQhMBJeZjBlivNQBTnYMBU1ZzBqAAAQUu107/BN5zBFjkHQXqZA8CMr47B5MZyQBUhaEAH4KrB
IehKQD5/X0AOl43BH0EXQFsiYkCJ2JnB+3PSQElubECYaZ3Bh/uJQGcebEDTMJrBBbbdQLrtyb+9
zZnBpObbQCEkJkEgULHB2QauQIyZIUEDca3B+D3tQLR1E0GEErjB2LKtQDDHj7+ulrPBdEusQEyf
DEHhEqfB0lfrQAaY/EBN07HBvRy1QCfTsz4DIrbB0FHUQMIY1L8xfK3BvDjcQHxnFD9RMqTBCi69
QICo80Bx2q3BEw+6QKO5mD+Z1avB9ka7QImOcUDVEqjBf9hOQMsRXMDw9YvBEy+7QKfSbkCuG4rB
Do7IQNN0hb93kI/BDdTGQAR7J0A2rq/BvRC7QPDdykCmB6fB0XvFQEYso0Bh3a3BByaIQDpLJsBM
I5LBg2mrQFv5BsCKYIrBYMyNQHnwbUAZQaXBVuOyQPuzZUALnZXBcAfYQFjoZb+CdKPBRB5LQLue
b0DwDJXBtDz5QNSmcED7BZzB6x7rQJjZLsCB0pnBB9nbQEzHNEEJM7bBssXwQFRxKEEjUqrBAVSj
QJPVLkE2S6jBzLOYQEFWIEEQarTB69fZQC7zEUFiYL/BNVYHQTTOFkGsQrrBSsKQQIqHnb89p67B
b7GpQFUQ2L/bErvBeB7AQBU6DkGy2J/BxfiKQB5eCUGCwKTBW5/1QLFL4kB9FLfB7XYAQf+R/kBT
5KrBcmzSQBfr5D7c8brBkKyZQF9HOz+9urrBfc/PQDRpLsATtqvB/XfxQOwlw7+cTbLBfEv8QIhi
Uz/hPafBTiLYQNyfgT/5K5zBsj+oQKOm70Bw27TBvh2bQH0vnz+gqKfB/60cQD5ecsA6eJHBERpv
QHTMicC2WojBtMUxQBLaNMDJnoXB5RedQAXLZkBUp4XBTj/SQHm/PUDGi4fBYXDIQPNhl0D1gIjB
t6jhQAH1Qb8f1YnBTi+1QOgVI76Rk5HBGLXpQBhKKECf3LDBlcC2QB1GM0B9XrfBZmPSQPFIzUBw
d6DB56qaQCGLx0DhsKPBO8XnQLqso0Ax2q/BfIuyQOOjpED+RbXB3LGWQOV/TcBlepjBXA9wQB6C
3b94vpXBISu/QL0CPsBx/IfB6BycQHBB1r/PQYPB5/NqQLvxbECdc6rB/VtKQCrAbUD1DY3BSzEU
QHUqdEAMHpnB2FXUQD3meEBNJJ7BOqeMQHxbY0DUvZrBprDZQJQ9nL/vwpbBOoHiQN79JkHCGLHB
Uj63QK2IJEGfSavBXEnpQEDNFEGxPLnBc8SzQBB1lL8FkbLBrQO0QGWWDkHSv6XBbUfmQMaL/UDK
zLPBtmjGQBpXcj7BXLXB8R6oQM2gp7+Im6bBZTTPQAumUj8Kz6HBufS6QNQh+EAO0q3BZ6W7QMHE
oz8EqKzBmq+8QEmedkC62qjBl+ocQdvrLsA5b3zBy7K+QP7kakCYvIrB/sbrQPe0sr7nf43B2SHM
QFWaK0B2JrDBLhC5QJuHzUCJm6fBMoDCQMk/pkCB167BgUoUQfAf8b+jfofBX4L+QHLylr+BLoTB
7IiPQDyEa0DNz6XBUQa1QPMddEByNJbBZ8nHQD/pG79lzp/BTM1SQDgVUEAzmJXBK/H6QJBKgUAC
1pzBPDrYQCI2HMDEy5XBugnjQExrNkF6VLXBVXv8QLCWJkFmKavB5jq0QAA4MUHnO6XB8iqdQLYJ
JkGfJrHBCJjQQLjlFUEQfL/BMo8EQdSGFkGc5LzB/LCWQGPtqL/QW7fBvrDLQF5j9r8nnrTBvYvM
QJSZDUEtdZ/BihWUQJ75DEFcIqLBpBDpQD5w5ECg7bnBHVAAQTlY+kD5BK7BHmTpQLjmHj5QF7bB
L9i4QB4sEj+SB73BSzuIQB61YL9DNqXBi76nQCknGMDxfqTBr+LxQL9RgT/b8aHB5nrAQFfcsz9G
UJvBb+CgQEmv+ECwurPBmamYQJo5qj8CxavByNgrQcKCTsDXsIDB4RMgQfKBBcCyjm7BbwARQXKy
X8AoEHjBGqWgQCWlaED3KYbBab7QQBJeL0C/bInBvfLRQJfjkED5DIjBI58CQd1ylj67u5DB7r3R
QKRgjj41WorBSlPvQC2CKkAAC7DBZ+TAQMPxN0B5WLjBv+XQQA17zkDbIqHBjuKYQBvsyUD9J6TB
0rXjQBhiqEC9tbHBT4asQFTspkDKtrXB/EIgQb/yj79Mq4nBii8RQd8pIsAHbI7BIoYCQQWsAr9A
x3rBXAHnQOxl+L8dxYHBJ6ZtQLsPakA75KrB/B5TQEMXTEA2nI3BJrIcQOReRUD8ppnBSMzPQCd0
c0B9YZ/BgEeJQP9VYUAMe5rB1jbWQF3cGb9JGpXBwgruQGa1JEEK+a/B+LzEQMoAJEEiO6nBI2Tt
QFxuE0EXwrjB14euQCZjn78hyq/Bbhi+QDquDUFLT6TB+uHmQMgN+kAl8LPBwV20QJ9fIT6N7LTB
XsvSQFRJyr+8wKfB8ODfQO4oWD9DGKXB5W29QCIm+EBnD63BghS5QDLJnj91HazBKqC0QLZrdUC5
gqnB+EL7QOija8D2zXnBdAvBQFRdX0BJp4vBDvrnQCTR7b/zuI/BM7++QAuYKUCzRbHB+ma4QJSY
zEDub6fB4RC7QJsCpkBSS6/BzKjVQFcce8CvsITB95DEQDVBJ8BVqonB9H2IQAdLbkAAgqXBXAW0
QDEcYUCd95bBjybYQPSP6b4TQ6DBy0ZOQHJfVkDbi5TBMcL2QNn7fEAS4p7BsTjKQBD0pD5yW4/B
qN/wQDyNNEFPvbPBC9wEQQ71IUFktqrBIwzHQOniL0Hzw6LBS0KpQNnbJ0GzYa7B/Q/TQITYFkEH
WL7B5v8FQdvHE0G8Gb3BfLaPQIqCor+1iqvBeHiuQAApAMAOLLbBcl3YQIJaCkGKsZ7BiXOfQLhz
DUE1+5/BQG7kQPGQ4kC6drrB90IBQZQr8kCt267BcELRQLLsHT5D87nBoUWYQIkzxz5Y5LnBkmPK
QJVWH8DKRKPBldzwQHx0378YIqzB+c/8QK7KSz9yF6rBB2HkQPY4zD/Rw57B1aihQEd8/UD3TLLB
dAycQIJRnz+PI6fBfRADQaeZlMDON3PBm+YKQZ7VTMC2NoHB7aHwQGbYQcA+rWzBBEOlQDBST0DR
oobB3SnaQMDgLkCWhorBnnTNQDZMj0CVV4nBwZb1QNI8IcAz4JXBo5gAQbukyL/2CYrBPxngQM/a
L0Cs+bPB5impQFozLkA0M7jBJvvRQHpUyUB4cqHB+RiZQAnTy0AFa6PB+rjaQG8QpkBfJLPBbhWi
QEWaqUCibbXBt6XgQHWvksCKK4vBbXq7QNkwjcBzS4DBVCO4QAAF/L8GP4PBKpSqQK6+NsC1Ro/B
hiZcQMwkckA9/6nBqk5UQHCjTEDnrIzBNSYUQCq+V0C545fB

> <OMEGA_E>
tNKfPiBDpD4MFJw+LMcsPyggKT/Mbyg/xNgIP2j4OD8i3D0/

> <OMEGA_NBR>
     30356

$$$$
50253353
  -OEChem-04172616093D

 74 77  0     1  0  0  0  0  0999 V2000
    6.5793    3.5662  -19.3646 C   0  0  0  0  0  0  0  0  0  0  0  0
    4.2918    3.5670  -19.2055 C   0  0  0  0  0  0  0  0  0  0  0  0
    6.9163   -1.4994  -19.5802 C   0  0  0  0  0  0  0  0  0  0  0  0
    6.9626   10.1863  -22.0668 C   0  0  0  0  0  0  0  0  0  0  0  0
    5.5160    9.8519  -21.6319 C   0  0  0  0  0  0  0  0  0  0  0  0
    7.5111    9.1965  -23.1199 C   0  0  0  0  0  0  0  0  0  0  0  0
    3.1276   -3.2875  -19.1797 C   0  0  0  0  0  0  0  0  0  0  0  0
    3.7523   -4.5081  -18.4636 C   0  0  0  0  0  0  0  0  0  0  0  0
    5.5336   -0.4443  -22.9901 C   0  0  0  0  0  0  0  0  0  0  0  0
    3.8391   -2.0585  -18.5878 C   0  0  0  0  0  0  0  0  0  0  0  0
    4.7679   -3.9326  -17.4660 C   0  0  0  0  0  0  0  0  0  0  0  0
    5.3838    8.3782  -21.2021 C   0  0  0  0  0  0  0  0  0  0  0  0
    7.3404    7.7401  -22.6555 C   0  0  0  0  0  0  0  0  0  0  0  0
    5.3284    1.0419  -22.6645 C   0  0  0  0  0  0  0  0  0  0  0  0
    5.6246   -1.2889  -21.7108 C   0  0  0  0  0  0  0  0  0  0  0  0
    6.5506    0.7810  -20.5024 C   0  0  0  0  0  0  0  0  0  0  0  0
    5.1856   -2.5998  -18.0814 C   0  0  0  0  0  0  0  0  0  0  0  0
    5.8435    7.4782  -22.3701 C   0  0  0  0  0  0  0  0  0  0  0  0
    6.5547    1.5035  -21.8672 C   0  0  2  0  0  0  0  0  0  0  0  0
    5.9949    3.8872  -20.7179 C   0  0  2  0  0  0  0  0  0  0  0  0
    5.6215    3.5675  -17.0513 C   0  0  0  0  0  0  0  0  0  0  0  0
    6.2195   -2.8319  -19.2299 C   0  0  0  0  0  0  0  0  0  0  0  0
    6.6857    3.0617  -21.8492 C   0  0  0  0  0  0  0  0  0  0  0  0
    5.5418    5.9868  -22.1400 C   0  0  0  0  0  0  0  0  0  0  0  0
    6.2360    5.4114  -20.8941 C   0  0  0  0  0  0  0  0  0  0  0  0
    4.5656    3.6030  -20.5680 N   0  0  0  0  0  0  0  0  0  0  0  0
    5.5012    3.4222  -18.5040 N   0  0  0  0  0  0  0  0  0  0  0  0
    6.5011   -0.6995  -20.6621 N   0  0  0  0  0  0  0  0  0  0  0  0
    3.0953    3.6607  -18.6840 N   0  3  0  0  0  0  0  0  0  0  0  0
    7.7705    3.5869  -19.0741 O   0  0  0  0  0  0  0  0  0  0  0  0
    7.6596   -1.0313  -18.7241 O   0  0  0  0  0  0  0  0  0  0  0  0
    6.9765   11.1995  -22.4948 H   0  0  0  0  0  0  0  0  0  0  0  0
    7.6133   10.1538  -21.1804 H   0  0  0  0  0  0  0  0  0  0  0  0
    5.2384   10.4976  -20.7858 H   0  0  0  0  0  0  0  0  0  0  0  0
    4.8361   10.0408  -22.4758 H   0  0  0  0  0  0  0  0  0  0  0  0
    6.9654    9.3384  -24.0644 H   0  0  0  0  0  0  0  0  0  0  0  0
    8.5804    9.3991  -23.2803 H   0  0  0  0  0  0  0  0  0  0  0  0
    3.3009   -3.3474  -20.2643 H   0  0  0  0  0  0  0  0  0  0  0  0
    2.0464   -3.2380  -18.9834 H   0  0  0  0  0  0  0  0  0  0  0  0
    2.9763   -5.0798  -17.9336 H   0  0  0  0  0  0  0  0  0  0  0  0
    4.2571   -5.1615  -19.1903 H   0  0  0  0  0  0  0  0  0  0  0  0
    4.6855   -0.7991  -23.5940 H   0  0  0  0  0  0  0  0  0  0  0  0
    6.4655   -0.5602  -23.5629 H   0  0  0  0  0  0  0  0  0  0  0  0
    3.9944   -1.2902  -19.3595 H   0  0  0  0  0  0  0  0  0  0  0  0
    3.2547   -1.6328  -17.7588 H   0  0  0  0  0  0  0  0  0  0  0  0
    4.3027   -3.7786  -16.4812 H   0  0  0  0  0  0  0  0  0  0  0  0
    5.6342   -4.6024  -17.3615 H   0  0  0  0  0  0  0  0  0  0  0  0
    6.0148    8.1918  -20.3206 H   0  0  0  0  0  0  0  0  0  0  0  0
    4.3348    8.1574  -20.9554 H   0  0  0  0  0  0  0  0  0  0  0  0
    7.6910    7.0575  -23.4436 H   0  0  0  0  0  0  0  0  0  0  0  0
    7.9256    7.5736  -21.7391 H   0  0  0  0  0  0  0  0  0  0  0  0
    5.2424    1.6233  -23.5944 H   0  0  0  0  0  0  0  0  0  0  0  0
    4.4164    1.1740  -22.0638 H   0  0  0  0  0  0  0  0  0  0  0  0
    4.6122   -1.3986  -21.2951 H   0  0  0  0  0  0  0  0  0  0  0  0
    6.0210   -2.2799  -21.9772 H   0  0  0  0  0  0  0  0  0  0  0  0
    7.4655    1.0499  -19.9540 H   0  0  0  0  0  0  0  0  0  0  0  0
    5.6703    1.1073  -19.9291 H   0  0  0  0  0  0  0  0  0  0  0  0
    5.6089   -1.9321  -17.3164 H   0  0  0  0  0  0  0  0  0  0  0  0
    5.2825    7.7913  -23.2630 H   0  0  0  0  0  0  0  0  0  0  0  0
    7.4357    1.1307  -22.4102 H   0  0  0  0  0  0  0  0  0  0  0  0
    4.6384    3.4097  -16.5838 H   0  0  0  0  0  0  0  0  0  0  0  0
    6.3342    2.8232  -16.6663 H   0  0  0  0  0  0  0  0  0  0  0  0
    5.9828    4.5787  -16.8127 H   0  0  0  0  0  0  0  0  0  0  0  0
    5.6983   -3.2167  -20.1188 H   0  0  0  0  0  0  0  0  0  0  0  0
    6.9728   -3.5631  -18.9014 H   0  0  0  0  0  0  0  0  0  0  0  0
    7.7606    3.2901  -21.7988 H   0  0  0  0  0  0  0  0  0  0  0  0
    6.2778    3.4263  -22.8035 H   0  0  0  0  0  0  0  0  0  0  0  0
    4.4550    5.8645  -22.0220 H   0  0  0  0  0  0  0  0  0  0  0  0
    5.8808    5.4219  -23.0209 H   0  0  0  0  0  0  0  0  0  0  0  0
    5.8509    5.9327  -20.0054 H   0  0  0  0  0  0  0  0  0  0  0  0
    7.3182    5.5877  -20.9824 H   0  0  0  0  0  0  0  0  0  0  0  0
    3.9086    3.4612  -21.3085 H   0  0  0  0  0  0  0  0  0  0  0  0
    2.9790    3.6314  -17.6912 H   0  0  0  0  0  0  0  0  0  0  0  0
    2.2974    3.7616  -19.2782 H   0  0  0  0  0  0  0  0  0  0  0  0
  1 20  1  0  0  0  0
  1 27  1  0  0  0  0
  1 30  2  0  0  0  0
  2 26  1  0  0  0  0
  2 27  1  0  0  0  0
  2 29  2  0  0  0  0
  3 22  1  0  0  0  0
  3 28  1  0  0  0  0
  3 31  2  0  0  0  0
  4  5  1  0  0  0  0
  4  6  1  0  0  0  0
  5 12  1  0  0  0  0
  6 13  1  0  0  0  0
  7  8  1  0  0  0  0
  7 10  1  0  0  0  0
  8 11  1  0  0  0  0
  9 14  1  0  0  0  0
  9 15  1  0  0  0  0
 10 17  1  0  0  0  0
 11 17  1  0  0  0  0
 12 18  1  0  0  0  0
 13 18  1  0  0  0  0
 14 19  1  0  0  0  0
 15 28  1  0  0  0  0
 16 19  1  0  0  0  0
 16 28  1  0  0  0  0
 17 22  1  0  0  0  0
 18 24  1  0  0  0  0
 19 23  1  0  0  0  0
 20 23  1  0  0  0  0
 20 25  1  0  0  0  0
 20 26  1  0  0  0  0
 21 27  1  0  0  0  0
 24 25  1  0  0  0  0
  4 32  1  0  0  0  0
  4 33  1  0  0  0  0
  5 34  1  0  0  0  0
  5 35  1  0  0  0  0
  6 36  1  0  0  0  0
  6 37  1  0  0  0  0
  7 38  1  0  0  0  0
  7 39  1  0  0  0  0
  8 40  1  0  0  0  0
  8 41  1  0  0  0  0
  9 42  1  0  0  0  0
  9 43  1  0  0  0  0
 10 44  1  0  0  0  0
 10 45  1  0  0  0  0
 11 46  1  0  0  0  0
 11 47  1  0  0  0  0
 12 48  1  0  0  0  0
 12 49  1  0  0  0  0
 13 50  1  0  0  0  0
 13 51  1  0  0  0  0
 14 52  1  0  0  0  0
 14 53  1  0  0  0  0
 15 54  1  0  0  0  0
 15 55  1  0  0  0  0
 16 56  1  0  0  0  0
 16 57  1  0  0  0  0
 17 58  1  0  0  0  0
 18 59  1  0  0  0  0
 19 60  1  0  0  0  0
 21 61  1  0  0  0  0
 21 62  1  0  0  0  0
 21 63  1  0  0  0  0
 22 64  1  0  0  0  0
 22 65  1  0  0  0  0
 23 66  1  0  0  0  0
 23 67  1  0  0  0  0
 24 68  1  0  0  0  0
 24 69  1  0  0  0  0
 25 70  1  0  0  0  0
 25 71  1  0  0  0  0
 26 72  1  0  0  0  0
 29 73  1  0  0  0  0
 29 74  1  0  0  0  0
M  CHG  1  29   1
M  END
> <OMEGA_C>
54nSQPA8ZEDC6prBSVaJQB9KZEDxpJnBOFLdQP/qv78npJzB/M3eQPb6IkG9iLDB4IKwQFGhHUE1
Dq3BVFvwQPYkE0Gd9bjBYCpIQA1nUsD/b5nBASVwQPhBkMCHtZPBcxOxQIN5476i67fBxLN1QMe+
A8DUs5TBfJKYQBGwe8BNuovB5EesQEgNBkHfnanBJuTqQLGu90BdPrXBWYKqQCBdhT/uULXBAv2z
QMz7pL/Or63BZ57RQAzyRz/iBKTBv/ClQGRiJsCqppDBUf66QKJN70AP9rLBWMDRQP9zwD/9767B
mda/QGPHeEBMvqXBvOOzQPlRZEABaYjBUwbHQBg+NcDA1pnBT/HVQOzyQ0A4y67BilaxQMGTv0C/
HrHBo43HQAsqrUAvJ6fBSRmSQG+XZkA+i6TBxAmwQNoFW0A3CJTB7wjQQB4QM78CTKXBKhpGQCZJ
akDDeJXBJqj4QHOQZUC6l5jBuxv1QOkAhL/pypXBQD/fQBQxM0FY9bPBxp/zQNB1IkF0canBS6Gn
QFX2J0FKSabBIMGaQAenIEFgzrPBeuTeQDNqFUHgg8DBOEkJQbJiFkELPrrBgkJTQDo7VsBFHaLB
+/cCQLE6T8Do3ZfBEXs+QJSNosD8d4/BPzqIQEwrpcDMhZnBgu+VQDyTTL+FwLzBteXOQEZmD7+9
gLzBWqR/QKMjpb864JrB5UxQQHr+0L8UEo7BZ6+JQBjUccBs2YPBXEu0QLpGk8Be5IrBpnnAQJoR
A0GgkKLBsraKQIqEAkGepKfB6xz2QELX4UB1jLvB3J79QORa8kCo6a3B2cGnQKHHzz8/wbzBT1ON
QNZElj+4grDB1paTQMMGs79PXKrBG6zAQGvpEcA+0a/BIOXuQPpjhj/doZ/Bz3K1QJO6jT/ebp/B
43uzQH5P978TiIrB4QmpQHdS+UCWGrrBdvHtQGK6kD8DSLPB422UQCQ5WkCRq4TBfrHKQLWvNECG
VIXBTHO/QOmEkkBtgIbBIFi2QBzeTcBT86DBcCHfQNQJZMALNpfBcVb4QNqQUkDhY67BnuPIQKBI
W0CZbbbBhY+OQAOqu0ASLbDB4S+8QFKArUDSKrjBZDq7QBXZvUAVC6DB4i7qQHLOskD026fBUCd6
QO6DXUDDd6rB1ac+QE1paECOh43BHwgTQBW+cECnOZrBMoPUQDhZZ0AgDZvB9nGLQBgRZEDYbJnB
917aQLYvw781ep3BQnXcQCFgI0H1KLHB24GuQJLwHUGLcq3B0GjtQLyQE0Gfq7nB+i10QMOhZcAE
aInBVOs/QA90TMBlY5PBGFC2QBEcrr4gG7nBKXGpQEKeZMAUx4zB97qAQBdHMMDJv5vBTfGqQM9r
BkFV6KnBr7DoQKSV+EDz37XB5hKvQDk0kT/fcbbBavGzQD+BmL9w+a7BlwvPQC4HUD8fNaTB3Nmo
QIu8ZMAlCJnBfB25QCrl70ABRLPBG4PTQJ7byD+dAK/BQNjAQB74e0CIvaXB2YC3QGbkYUBkaojB
87bTQKNjRMDg7p3BL0jXQAISSEB3xa7BO0SwQGJHwEDJMbHBw2jHQMbNrkDVOafB/lGTQAZVaEC2
XKTBmbKyQJ15W0DHCZTBS0DOQC40Kr9u8qXB3ORKQOH6ZkDsCpXBId36QM7qZ0Cd+ZjBHa3oQO8X
h7+KJJXBH4HcQP2VM0FSlrTB2tvxQFHlIkFjLarB+PulQMBXKEE2rabB/zOYQKvHIEEIG7TBXSXb
QKC1FUHPHcHB97YHQRzvFkEoLbvBxi1pQMZLN8Do7ILBUMxhQBsBk8Bkr4bBjQIbQDrLgcCiVJbB
mQEUQCCLF8DWf5HB3Y6dQJ+vLL/Pwr7BfxLWQL9E6747x7zB2mq5QGrBKsCiv4nB2gy6QAnbjsCu
u4nBDMpqQGcBP8DZ36PBaj6HQKiV1r8OGJvBo8C/QGWfA0EJ86LBu5mJQKrIAkEywKfB/WXzQMC3
4kDiOrzBZzv8QPyE80B2qq7BjpOvQFMe3j+R0L3B7BGQQPCZoT/sZ7LBFl2SQC5Bnr8KXKzBMje/
QNYdDcC46bDBZVrqQAieiD/OCp/BuxyxQNtjjz8ESaDBk7GjQNlsk8BLxJvB1VOmQP9V+UC6UrrB
j0fxQLsNmj9HrbLBT3GYQCIFVkDmjITBZt3OQOAYMkDypoXBWtPCQIUxkUBKT4bBvbjUQA48WMBa
X6bBJS3uQMjgYsCNjpnBnJv5QHg3V0AWT67BXE3KQMaTX0C+Z7bBj5yNQBL0u0ApGLDBxuq6QPbi
rUCWNbjBffq6QJBnv0CQHaDBRd3pQPI+tUATCKjB98h7QK+dX0D7M6rBH89EQI3vYkBQGI3Bd+YW
QChAbUAgpJnBLOHUQGynakCxe53BC3iMQPWOaUDNFJrBKU7NQFrJhL9gSZzBgaLKQE3TIUEi4LbB
1C70QHSIFUGNXbTBIK+pQE/mH0Eruq3BNMgzQCFVXcAjEpPBbsNlQAEqicCssorBRRHlQBribr8C
f7TBxcV3QHWSL8BI0JnBoTCiQFewhMBtto3BbYrqQGxP/EBMhbHBBIqgQGJMCEFoBqvBkrngQBR1
Ez/t3rbBc5y7QGTXt7+jT6/B1nesQHBZQT8xVKfBovCjQDjzMMDnrpLBN7LKQG5L+kCCAqjBhKDT
QB5Msz9e1azBzTW9QFCad0DdDKjBtVa+QJp7X0BlIIrBDvPNQOZJIMCHsZjBgsDKQI7gNUC4t7DB
/6/CQEeCzEBY4qPBZoTEQH5dqUCinazBeP2PQBnAbUDkKKXB7Zi1QOysa0C+j5XBEme2QPVMKL+v
eKXBAW9QQF1uZECF4pTB4sX7QLAkakCwLZzBu6LYQGhARr6ZvpXBHGbSQNLSMkEoE7jBNIG8QBVJ
G0EEPr7B8poEQRD7FUFNa7vBmzECQbc4HUGRkK3Bwl62QMHxJ0FYkqbBT6+LQAasJ0HyMbDBMrMM
QLrNg8CsIpjBzCgKQNdmLsCIE4/B4nJaQJgBecAQnILBGhhSQEHwqsDYA4vBG8TqQEM+vb8xAbzB
7gcAQYKtjL+zAa/BtKmBQJcLUsBnWaHBEzZkQPbi2r9klZvBQ8u2QLWihsAkmIbBqcqrQGFpncCf
f5PBLWLcQC407EDMf7jBYzsEQXsX7EC5Rq/BIyGKQANtB0G6QKTBAl+SQBlSAEEaBrLBiqn/QMJf
cz83z7nBDjbIQFjYNj+mFr3B9kigQF+ror+ysrTB9i6+QDCFIMDtcK3Bsh6mQLXtoD9BqZ/BVTGQ
QN+oVz8LhqzBN06gQDyTAMDPWozBsv/YQA1JBkGsZKHBiJfuQPJEtT+mLafBizCgQKUvY0C0m4XB
+RnNQJ9dIEBi34jBJkrUQHvgiECyU4fBWjnQQLajSsA0s5/B02LpQFbAK8C6XpPBySToQL3gTUDF
hLTBKPewQMTFMkD1sbbBBxvbQOInxUB30Z3B58WiQDGby0C7LaDB5CvkQDllqkDKdLDBFJ6rQCED
sEAenLLB1jZvQEePakBEU6rBaVZQQGyWYUCL5IzB1hwZQA1bY0C555jBbxLUQLYja0DX5J3B1o+L
QJoAaEDljZrBvB/IQCHnlL/DPpzBwRHeQNRmJkFRQbDBKuexQAmLIkH6I6vBczPqQIIDFEES2LfB
akZNQBtpdcCbq5bBWE2FQLpEmsBLA5HBpdniQBOygr8UULTBgj9nQHrHG8DIyZLB8uKgQCf1fcAp
fonBguWwQOoTDUF4MKXB4RvpQLHf/ECN/bHBvpfeQKUa9T6jxrbBGAW5QKhKw79FUK/BdzqqQB7G
LT9RSKfBru+hQNgbJsAnyI7BdI+8QO069UDizKzB29zRQJ8kpz+Tv6zB2ne8QGgJc0A+gqjBn0q9
QJzwZEAAhYrBE+TCQOYGJsBuEJjBdPDJQCAfL0Bd17DBSRe7QKdYy0AqZabBfpbEQMxCpUCPxK3B
OSSPQLyFakAmo6XBxa+0QOnhYkAmEJbB7nayQGhNQL8se6XBh3NOQLqTZ0A2WpXBfur6QDacbUDV
jpzBJ3XYQADJrb4gOpbBYTTdQOp1NUEPzrTB60X2QNqUJ0GV5KnBtAurQFiGL0F5c6XBgmKZQJRr
IkFTdLHBZl/TQNeXE0EHir7BDVUFQcPJFkFA87rBmmtUQJEnesCgZ5/BSYoKQL+NgcCnc5TBzQFm
QMEQssDVaozBOI2ZQAS7qsAZ65bB9DjpQBcpyb9Yw7vBqGf9QKgEl799ra7BbVRkQETL2r/0ZZnB
dSc9QBh5BsC1QYzBaVCSQKcjesAff4HBolrBQJFPjMDx0ojBgwzIQF+IDUGNkJ7BxpCQQN5lCkFT
+qHBdLTvQLYS40C+vrfBMN8AQX6//EBstKvBfnf9QLVsWT/SybnB7efFQH0xHT9t9LzBCy+eQMfH
rr+t3LTB7p27QDM2JsAwba3BFFykQC7Alj8HlJ/BOg6OQJBsTD91eKzBXs2pQMga6L8x6ojByHCk
QCWt80CoMrPB1cLsQLQPqD+HEqfBqxqfQIULXUA0GobBlk/TQNunMECTaojBbevLQPhUkUCzY4jB
LWq3QNmgT8DLjp7BPuHhQH7LPcD4IZXB377nQG11RUBBmbTBx3ywQJW6K0DD57bBWi3TQASFzEAR
/J/ByhabQERyx0C83KLB42TmQIHYpkD2L7DBEhewQEPgp0BU5LTBq5NtQDIXZ0Aqz6rBoCpOQFdH
Y0DbXo3BvjIXQOmMa0DdW5nBjQPTQBPlbkD+LZ3BRFuKQBmcbkD3JJrB0SK3QHQhRL+cPpvBhkfX
QCeSH0EJH7jBcMH4QNN6GEGOzK/B1UmpQL7ZG0FKBrTBUw+VQPMIkcDzEovB7PFjQIavXsBD8YjB
rYrmQJrkVr+mKbLBcZecQMYJkMBnKpfBTwJaQD2LK8DpYZPB15rxQMcKAUHOnKzBu5miQAtcBEGq
y7DBPtnhQMqvIT+5l7XBCBG7QJaSsL+ckK7BLdaiQApLXT+5JqnB8SOUQDBeQ8CvMZrB5LHDQG9o
/ECfL6jBISzOQEQqvT/ieazBM0y8QFQzfUDu2KfBp/O6QJwvYUDd9YnBt528QNHyDMCmbJfBGN3J
QJ1TO0Bed7DBieu7QAYOz0BA8qPB7svFQNmaq0AaP6zB8a+OQBibdkB9MKXBwyCzQHIkbkDHbZXB
IU2rQArjAb853qXBE4JLQCrpZ0C3IpXBdMX5QDoua0AStpvB+nW+QEKFFT597ZTB3qHbQFe1MEHm
zbnBJgXcQLhWFkHehL/Ba3sMQb82GkHZPbPB0fj1QMikIkEHpqjB+JCjQBkiJkEDB63B2n2SQLv+
H0HHZrrBPpiyQHKviMD2w4bBozKKQAD0sMCti4jBVUcnQHlPfsAA3obBY1R3QP0KNMCDX4LBUkzy
QNGDt7+r9bjBZHD9QGigaL+CgKvBf7G9QK0umcDkGJnBXUeGQHybpcCNUZvBnIgeQH2dPcB+g5fB
z15ZQFzYzL/8tpHBaeL1QPx/7UCeq7PBxXMEQRQD+UAfa6bBzByCQItKAkHzka3BJ76mQFoR9ECn
2LfB4ssAQRtahD/GnbfBeuzMQDeyLz/Lp7zBN3GkQCqMrr8mTrXBE5O+QMJFGsBDoKvBSAWVQLpq
tz/HdKLBz4KMQEt8YD889K/B9KSMQF3OPcCaw6LBXN2/QHNeCUF8c6HB8fDjQJe3uj/7j6XBkWGc
QHl9Y0CNm4XB3x7KQPFyIkAYtojBWzrQQDb0iUAK+IbBArvYQApAKcBIXZvBk2zBQOsjDcD5tI7B
iQTpQJ1VT0DbtbPBq8KxQM1XPEDW4LbBqnPQQBYBykAn6ZzBuCGaQEhXzEAEk6HBdNfnQCJrrUCP
b67BiQSyQDcEsUAqZrPBhDVtQKOtd0CmdKrBk1ZKQMC7YUCfLI3B0LcUQKL3aECeRJnB4kLSQCK+
ZkCad53BBbSJQNDOUkAgYpvBL+mNQHPTUb8GEafBDkTkQFmZJUENnKvBh+qzQJfkIUHh3qnBjTv0
QDCjGUEBp7XBaIRLQA6yY8DHE4rBrSuVQAc6dsAhXIfBkQjrQBitq77UKLfBOmhLQE2gO8AbUpXB
5PyuQHnTW8BTSpHBygWqQC7dCUEr7qjBDpzqQFCLAUEm0LTBe1LpQPcrmT/72LjBw569QM9rcr9U
drfBcIidQI1znT/q5rHBjCyTQDOiF8B/qJbB1Ae6QLcW+0Ai97LBienKQNp16j8ofrDBf/O7QJ6Z
hEAmeKfB+oC6QOdwFEDAG43BDyigQAXpCMAIe6LBY+jKQBogWEDGtrHBBR+wQFyTykBAILLB+rDF
QFTZtED5SajB4j6OQNfofECdJqXBOTyyQL3WSEDQrZbBi62gQBSpYL7/GbDBlBpKQBkpOUDwaJfB
kAn5QBT7YUByCZzBF6NeQNigkL4oo6LBJyvqQD3VNkFYnazBAuD1QKe9H0FLk6TB9uKpQCX/KUHn
eKLBDSSiQGaRKEGRsbDBXgrkQJMpIEGZwLzBAH4LQZn0G0EAcLbBrUomQGK5j8BvDorBog4wQC7P
NsAsO4TBWTqfQNN5UMDdXoDB5baZQL9dncAproXBuYH+QJiiSb/qiL3BDLL5QEJtDL/dV6/BfPM9
QNZbbMDbcZvBBY4bQLgrCMBQ3JXBsDfOQNghQcAs+o7Bz9yzQI5licDcppbBlBC6QL9uA0GyyaHB
SjyHQP6qB0HNJ6jB3nj0QPZE80AYR7zBOr38QAWU9UCIEa7BV84EQWodzz/y5LfBwXPdQDf/tD+T
8sDB+/WwQPhHYb/rp7/BoE+/QAQsAMD4BrXBgnSHQCmh1j+0DazBR8yRQHWrtj8oDLrBvvGVQKEE
tr8RPZLB6beoQKrYA0EY87nBi5rWQIEpyj8McajBqQGcQBo/BUBTJYnBbY/KQCBxsT+WeY/BdyLP
QE80OEDGjYfB7hiUQDGWPsCfT6fBOUjDQHHIBsCZ/KLBuqTrQHTUbECHp7PBZlO1QFwfaUBOVbjB
EUSNQIJsxkD+d7HBe6a7QDq+ukAgcLnBYRe6QH6fxEDe+aDBRoroQEUVuUBJ76jB+0hsQAvph0Ak
2qnBG3hIQHkxG0AUWJDB0dQTQB2RQ0AAcpvB

> <OMEGA_E>
YMyEPgDjaD6IeLM+KOC1PgC59j6Q2ks/

> <OMEGA_NBR>
     37569

$$$$
50253348
  -OEChem-04172616093D

 71 74  0     1  0  0  0  0  0999 V2000
    6.6621    3.9788  -19.9702 C   0  0  0  0  0  0  0  0  0  0  0  0
    4.4523    3.7933  -19.3324 C   0  0  0  0  0  0  0  0  0  0  0  0
    6.3386   -2.5434  -20.9871 C   0  0  0  0  0  0  0  0  0  0  0  0
    6.7389    9.7249  -20.9432 C   0  0  0  0  0  0  0  0  0  0  0  0
    5.2693    9.2795  -20.7819 C   0  0  0  0  0  0  0  0  0  0  0  0
    7.6399    8.5535  -21.3937 C   0  0  0  0  0  0  0  0  0  0  0  0
    3.0039   -4.5018  -17.8965 C   0  0  0  0  0  0  0  0  0  0  0  0
    2.7669   -2.9812  -18.0589 C   0  0  0  0  0  0  0  0  0  0  0  0
    4.4159   -4.7732  -18.4452 C   0  0  0  0  0  0  0  0  0  0  0  0
    4.0454   -2.4223  -18.7075 C   0  0  0  0  0  0  0  0  0  0  0  0
    4.7410    8.6420  -22.0876 C   0  0  0  0  0  0  0  0  0  0  0  0
    7.0992    7.9006  -22.6893 C   0  0  0  0  0  0  0  0  0  0  0  0
    7.0710    0.9596  -19.9431 C   0  0  0  0  0  0  0  0  0  0  0  0
    6.9517   -0.5119  -19.5889 C   0  0  0  0  0  0  0  0  0  0  0  0
    6.1494   -0.1533  -21.8323 C   0  0  0  0  0  0  0  0  0  0  0  0
    4.6625   -3.6306  -19.4317 C   0  0  0  0  0  0  0  0  0  0  0  0
    5.6141    7.4479  -22.5596 C   0  0  0  0  0  0  0  0  0  0  0  0
    6.0125    1.1414  -21.0360 C   0  0  2  0  0  0  0  0  0  0  0  0
    5.8270    3.7293  -21.2240 C   0  0  2  0  0  0  0  0  0  0  0  0
    6.1785    4.0891  -17.4890 C   0  0  0  0  0  0  0  0  0  0  0  0
    6.1677   -3.4667  -19.7679 C   0  0  0  0  0  0  0  0  0  0  0  0
    6.2158    2.3965  -21.9311 C   0  0  0  0  0  0  0  0  0  0  0  0
    5.4394    6.2488  -21.5906 C   0  0  0  0  0  0  0  0  0  0  0  0
    5.9751    4.9249  -22.2033 C   0  0  0  0  0  0  0  0  0  0  0  0
    4.4464    3.6442  -20.7176 N   0  0  0  0  0  0  0  0  0  0  0  0
    5.7668    4.0504  -18.9027 N   0  0  0  0  0  0  0  0  0  0  0  0
    6.4608   -1.1709  -20.8135 N   0  0  0  0  0  0  0  0  0  0  0  0
    3.3834    3.7213  -18.5770 N   0  3  0  0  0  0  0  0  0  0  0  0
    7.8843    4.0742  -19.9175 O   0  0  0  0  0  0  0  0  0  0  0  0
    6.1617   -3.0038  -22.1096 O   0  0  0  0  0  0  0  0  0  0  0  0
    6.7892   10.5247  -21.6968 H   0  0  0  0  0  0  0  0  0  0  0  0
    7.1046   10.1065  -19.9785 H   0  0  0  0  0  0  0  0  0  0  0  0
    5.2035    8.5420  -19.9684 H   0  0  0  0  0  0  0  0  0  0  0  0
    4.6524   10.1557  -20.5333 H   0  0  0  0  0  0  0  0  0  0  0  0
    8.6557    8.9325  -21.5793 H   0  0  0  0  0  0  0  0  0  0  0  0
    7.6709    7.7968  -20.5960 H   0  0  0  0  0  0  0  0  0  0  0  0
    2.9452   -4.7864  -16.8355 H   0  0  0  0  0  0  0  0  0  0  0  0
    2.2557   -5.0685  -18.4701 H   0  0  0  0  0  0  0  0  0  0  0  0
    1.8971   -2.7965  -18.7065 H   0  0  0  0  0  0  0  0  0  0  0  0
    2.5994   -2.5130  -17.0777 H   0  0  0  0  0  0  0  0  0  0  0  0
    5.1593   -4.7557  -17.6345 H   0  0  0  0  0  0  0  0  0  0  0  0
    4.4549   -5.7459  -18.9575 H   0  0  0  0  0  0  0  0  0  0  0  0
    3.8023   -1.6220  -19.4220 H   0  0  0  0  0  0  0  0  0  0  0  0
    4.7331   -2.0338  -17.9418 H   0  0  0  0  0  0  0  0  0  0  0  0
    3.7154    8.2833  -21.9156 H   0  0  0  0  0  0  0  0  0  0  0  0
    4.7339    9.4081  -22.8769 H   0  0  0  0  0  0  0  0  0  0  0  0
    7.1745    8.6303  -23.5091 H   0  0  0  0  0  0  0  0  0  0  0  0
    7.7162    7.0206  -22.9240 H   0  0  0  0  0  0  0  0  0  0  0  0
    6.8521    1.5944  -19.0719 H   0  0  0  0  0  0  0  0  0  0  0  0
    8.0761    1.1937  -20.3240 H   0  0  0  0  0  0  0  0  0  0  0  0
    7.9319   -0.9188  -19.2994 H   0  0  0  0  0  0  0  0  0  0  0  0
    6.2381   -0.6525  -18.7637 H   0  0  0  0  0  0  0  0  0  0  0  0
    5.2094   -0.3943  -22.3502 H   0  0  0  0  0  0  0  0  0  0  0  0
    6.9637   -0.0751  -22.5677 H   0  0  0  0  0  0  0  0  0  0  0  0
    4.1044   -3.8221  -20.3600 H   0  0  0  0  0  0  0  0  0  0  0  0
    5.2628    7.1387  -23.5551 H   0  0  0  0  0  0  0  0  0  0  0  0
    5.0147    1.1853  -20.5751 H   0  0  0  0  0  0  0  0  0  0  0  0
    5.2862    4.1446  -16.8481 H   0  0  0  0  0  0  0  0  0  0  0  0
    6.7471    3.1789  -17.2477 H   0  0  0  0  0  0  0  0  0  0  0  0
    6.8100    4.9728  -17.3152 H   0  0  0  0  0  0  0  0  0  0  0  0
    6.5995   -4.4527  -19.9946 H   0  0  0  0  0  0  0  0  0  0  0  0
    6.6881   -3.0284  -18.9036 H   0  0  0  0  0  0  0  0  0  0  0  0
    7.2759    2.4511  -22.2197 H   0  0  0  0  0  0  0  0  0  0  0  0
    5.5955    2.2861  -22.8328 H   0  0  0  0  0  0  0  0  0  0  0  0
    5.9901    6.4591  -20.6619 H   0  0  0  0  0  0  0  0  0  0  0  0
    4.3699    6.1282  -21.3634 H   0  0  0  0  0  0  0  0  0  0  0  0
    7.0395    5.0526  -22.4496 H   0  0  0  0  0  0  0  0  0  0  0  0
    5.4103    4.7042  -23.1212 H   0  0  0  0  0  0  0  0  0  0  0  0
    3.6321    3.5016  -21.2802 H   0  0  0  0  0  0  0  0  0  0  0  0
    3.4594    3.8557  -17.5890 H   0  0  0  0  0  0  0  0  0  0  0  0
    2.4920    3.5320  -18.9888 H   0  0  0  0  0  0  0  0  0  0  0  0
  1 19  1  0  0  0  0
  1 26  1  0  0  0  0
  1 29  2  0  0  0  0
  2 25  1  0  0  0  0
  2 26  1  0  0  0  0
  2 28  2  0  0  0  0
  3 21  1  0  0  0  0
  3 27  1  0  0  0  0
  3 30  2  0  0  0  0
  4  5  1  0  0  0  0
  4  6  1  0  0  0  0
  5 11  1  0  0  0  0
  6 12  1  0  0  0  0
  7  8  1  0  0  0  0
  7  9  1  0  0  0  0
  8 10  1  0  0  0  0
  9 16  1  0  0  0  0
 10 16  1  0  0  0  0
 11 17  1  0  0  0  0
 12 17  1  0  0  0  0
 13 14  1  0  0  0  0
 13 18  1  0  0  0  0
 14 27  1  0  0  0  0
 15 18  1  0  0  0  0
 15 27  1  0  0  0  0
 16 21  1  0  0  0  0
 17 23  1  0  0  0  0
 18 22  1  0  0  0  0
 19 22  1  0  0  0  0
 19 24  1  0  0  0  0
 19 25  1  0  0  0  0
 20 26  1  0  0  0  0
 23 24  1  0  0  0  0
  4 31  1  0  0  0  0
  4 32  1  0  0  0  0
  5 33  1  0  0  0  0
  5 34  1  0  0  0  0
  6 35  1  0  0  0  0
  6 36  1  0  0  0  0
  7 37  1  0  0  0  0
  7 38  1  0  0  0  0
  8 39  1  0  0  0  0
  8 40  1  0  0  0  0
  9 41  1  0  0  0  0
  9 42  1  0  0  0  0
 10 43  1  0  0  0  0
 10 44  1  0  0  0  0
 11 45  1  0  0  0  0
 11 46  1  0  0  0  0
 12 47  1  0  0  0  0
 12 48  1  0  0  0  0
 13 49  1  0  0  0  0
 13 50  1  0  0  0  0
 14 51  1  0  0  0  0
 14 52  1  0  0  0  0
 15 53  1  0  0  0  0
 15 54  1  0  0  0  0
 16 55  1  0  0  0  0
 17 56  1  0  0  0  0
 18 57  1  0  0  0  0
 20 58  1  0  0  0  0
 20 59  1  0  0  0  0
 20 60  1  0  0  0  0
 21 61  1  0  0  0  0
 21 62  1  0  0  0  0
 22 63  1  0  0  0  0
 22 64  1  0  0  0  0
 23 65  1  0  0  0  0
 23 66  1  0  0  0  0
 24 67  1  0  0  0  0
 24 68  1  0  0  0  0
 25 69  1  0  0  0  0
 28 70  1  0  0  0  0
 28 71  1  0  0  0  0
M  CHG  1  28   1
M  END
> <OMEGA_C>
KjDVQDakfkDpwp/BWXmOQKfEckDNqJrBL9bKQJfHIsCo5afBPaXXQDqZG0G9i6fBGZ6oQPx4FEFA
QabB/nn0QFbbCEFPJqvBnEBAQCUPkMDyK4/BVxQxQMvLPsCpeJDBU0+NQCu+mMC3j5PB2XOBQMkG
G8DcqJXB9rWXQMFFCkFds7DB5yzjQM/R/EDJg7XB+UXiQFGndT+Di5/BnHTeQAwOA78ntpzBysfE
QML6HL5zqK7BJTOVQKNbaMAHdJvBf6azQJtV7kAlerTBj2bAQPwakj/ASajBGne6QJatbkDRyqnB
37XFQC3agkB16YvB2V3FQALeXcC9JJ7BJujGQOdgGUDkcq/BlA+uQGr2x0CcuazB3TO/QKKYnUBx
oLHBQUmOQOI5aUCWvaXBPYm4QKicgUDDOJfBF7/OQCTglb8SgqbBGolYQNopbkC8nZTB+Uv8QNxf
gkD1Vp/BnSzFQKs9QMB94LDBdkHZQCNlKEH6kq3BPFnjQD20IUEM1J/Bw4KmQCesCEE/v5/BjeCU
QLl9IkEiRKTB8n0KQXjrDkFhoqzByHf1QGF/+UCQxKTBu308QIAqmcAtr4bBMF4QQIwxosC/wpPB
HdTyP136MsD6ppXBb1wmQGzVIMAjn4jB6xilQNEumMCOE43Bho6OQBLet8DlqJfBilhzQEyfz78o
YJvBS3WXQL4pAsDeiI/BM8ltQI6IBEErU6/BcHyXQLKHFkHqA7fBXpXlQJEVCkGTErzB8+r2QCap
4EBAZLfBBkTbQEoUzD8sk5jBjTcBQYTMmD+ml6LB0dH9QDs2a79AZZrBoZ7HQEkMJ78dHJbBNbOm
QJPkyb48zbLBQtbeQEvhmb2dirTB8laDQMyddMBB4aLBIWmoQHRw5EDrcLzBm3igQJq4lz+5maTB
RSipQFKghEDkyIbB3ufXQHlzS0BZ+4nBouvZQIQhn0CghYrBPC/TQC98jsDy9J/BUQXWQOHQQcCi
OpfBEdToQDffHEALwrHBdA6zQEVQEkCEqbbB4K6/QDGxzkCbS6XBMdaLQI0axEBR6KrB3UPhQO2u
oUC2mLPBgyGtQP+IlkAf+LjBWnRoQK0ZYEDKParBBWZdQEbEdkBMtozBMHwfQDIMYkAD6ZfB3rLS
QPdlbEC46Z3BvMaJQPtUbkA8O5vBRpmAQKoYtL/8zaLBReDgQJx0JkGgwq/BrZqxQEMNIkH0Fa3B
1ED0QAoTFEHzXrbBh/5gQFG6WcBYd4rBnWB2QEPkmcCd347BAlKXQKHrIsDccI3BzfikQLTZlMAc
Z5XB0tysQO2wDEGBJ6fBMGvvQE0s/UA+i7DBnO/TQEsoGT6cebPBnQXFQDx5i7+wia3Bf9ChQN+8
Uz8xMKbBSNmmQGGcSsDFCJjBlM2/QKF39EDD1K3BYBTMQJhenz/mRqvBZPW8QJNLckBO0ajB7Pu4
QCs6ZUBNxorBTjaIQDxUOcCbnqHBQH7KQE3SKEA2grDBnI+6QPbvykBGdqfBNHjHQMPro0BkTa7B
DwqPQLcfb0DWSabBsyyyQL5QcEC0UZbBczygQH+KHr9CNqfBW25JQA0SbEBYXZbBllD5QMxfaUC3
OZzBrJlDQLs+ZL9cUp7BnxnjQM1jNUEdYrTBKAHzQOElKEHBQ6jBjFWlQIAHL0Fz/qfBPAifQHNt
IUEAjrTBzbbjQKgqE0EwIL7BFDoLQbpJF0HysbfBxpAmQKl4QMCqOY7BxHFYQNK/W8AovIHB3wCA
QAuPsMDXP4jBsU5CQFRnpcC6DJTBgg6OQB42v7/4kY7B40GwQCYXJ8CBQIfBqOTAQEaCnsB1npDB
97CjQPsbqMAIw5zBltm9QLulDUE0dp/Bs7eKQF6OCUEss6XBxXn7QP5e40Ast7XBfA4BQVwD/kAs
F6nBFgv2QDqBpD00lLXBFfnAQGOMoT7gxLrBmzm7QLoi8L+rLrPBR3PeQFPBvL86SqjBWfWgQBR3
jz/htZ3BIsCGQAILpT/PbarB5avHQCAqNsDL7JnBRbKtQPTG8UD5WLXBEpDlQOf8nD9HNaXB5Tqa
QARAa0Byj4bB5aHGQPZ9JUDaP4nBpTPPQMlQi0AP3ofBdvxSQDC5WcDGLqDB8bWWQGtLUsCZAanB
Y4jqQEuiN0DLpbPBz3KzQBmKJkCNJ7fB7wfPQO1EzECOT6DBd+uYQCCPx0CJA6XBOCHqQJVPpUA0
zK/BqzS2QGhspUBI9rXB9K1uQLzAbUBCqavBGeBGQKafa0AHX47BLVkTQBPKakCko5rBIA7QQOdg
gEBia6DBzriKQN62cECkaJrBpqnKQLDKHMAj2anBIWzxQBpvGEHXhqnBj8DEQLAiFUHDgKTBeFQA
QXkyBEHegq/BkkEzQM2tb8CxN5TB/gVrQIheacC+/4nBNiZyQCmbcMBDtZ3BTTOkQDy2Z8Bj4Y3B
wMejQA0JDkGKCq3BQ3bfQGRw+kDYAbjBqYrhQHlUhz9DcaHBbQbiQHpa2r7jCJ/BImnAQNGPV713
JbDBKCahQD3gRMD8RpnB9v+xQD5D80DzLrPBR1u8QPdLmz/1XKnBN0GzQN9dc0DnIqrBmfHEQHWX
gUAKYYzBP0zKQJdyVsDL5Z/BtJq+QA/hH0BsWLDBv6KvQIbty0CqoqvB4lu2QNj7oEBSsrHBNwOI
QGF4bEA6hqXBC021QFMXgUB8fZfBqlbPQFfsib+Zj6jBuz5UQF5yZ0A66JPB0wb3QKsnhUBnjaDB
FK3CQGkmO8DJqrLBwOTvQEfaJUFKNa/ByjkEQXQ0HEHeJKPB6eTGQB3ACEEHRp7Bvwy6QAVFJEEA
5aDB9qMPQb+iB0EOf7PBR40CQXBH7kBit6nBLikNQOdvlcClGpTB7jkIQBAmOMBJypTBnvRbQO1s
LsA5koXB/wNgQN6TkMB8z4TBrC2AQK5MmcCmNKDBMw1YQMynTMDkiKTB+r23QClaPcC904jBBQSy
QDE7lMDK2I3BvB+FQIq9CkHvCqnBwYyfQE8gG0HH07LBGmfdQBa7CUHOLL7BfFfqQIda3EByrbvB
7rjbQEEd0j8vIZrBKOz/QNcGsD9IFqXBc4ABQfZ1Rr/nvJ3BCKjOQP/MJL8w5ZfBq0ehQBqDqr5D
lrPBSszXQDJzuz0Ln7bB3rCbQKq//r9C9ZjBrIebQKYS7kDu1LnBcdKdQNxGmT+i/KTB5IupQDce
gkAE24bB8UPYQIqOSUCo44rBD7jYQJdAnkBMF4vBmtnKQPL6jMBZY6LBTaHmQBGxSMB995rB3lPf
QBoYJkBWfrPBtAOoQEziGECNCbfB35vIQCcMz0Che6XBDf2PQNRhy0D+yKfBSDfWQEpIoUBccLXB
37KdQGIRnkAB77fB8+hZQE/KZUCNtqnB1bpcQK7DbEBzAYzBOwkaQKgPW0Ch2ZbB

> <OMEGA_E>
OGEzP9DGCD94YyE/

> <OMEGA_NBR>
     41248

$$$$
50253516
  -OEChem-04172616093D

 71 73  0     1  0  0  0  0  0999 V2000
    6.6429    3.6277  -19.7570 C   0  0  0  0  0  0  0  0  0  0  0  0
    4.3960    3.5577  -19.2569 C   0  0  0  0  0  0  0  0  0  0  0  0
    6.7366   -1.4015  -19.3017 C   0  0  0  0  0  0  0  0  0  0  0  0
    6.5311   10.0521  -22.8069 C   0  0  0  0  0  0  0  0  0  0  0  0
    7.7455    9.4288  -22.0922 C   0  0  0  0  0  0  0  0  0  0  0  0
    5.2298    9.8449  -22.0019 C   0  0  0  0  0  0  0  0  0  0  0  0
    5.5361   -0.9877  -22.7514 C   0  0  0  0  0  0  0  0  0  0  0  0
    7.4929    7.9461  -21.7852 C   0  0  0  0  0  0  0  0  0  0  0  0
    4.9972    8.3529  -21.6957 C   0  0  0  0  0  0  0  0  0  0  0  0
    5.8357    0.4869  -23.0320 C   0  0  0  0  0  0  0  0  0  0  0  0
    6.5828   -1.5520  -21.7904 C   0  0  0  0  0  0  0  0  0  0  0  0
    6.7469    0.7029  -20.6616 C   0  0  0  0  0  0  0  0  0  0  0  0
    6.2116    7.7977  -20.9316 C   0  0  0  0  0  0  0  0  0  0  0  0
    5.7905    1.3131  -21.7301 C   0  0  1  0  0  0  0  0  0  0  0  0
    5.8566    3.8506  -21.0390 C   0  0  2  0  0  0  0  0  0  0  0  0
    4.0587   -2.6441  -19.5888 C   0  0  0  0  0  0  0  0  0  0  0  0
    5.0145   -2.9059  -17.2601 C   0  0  0  0  0  0  0  0  0  0  0  0
    5.2683   -4.7390  -18.9435 C   0  0  0  0  0  0  0  0  0  0  0  0
    6.0272    3.3824  -17.3223 C   0  0  0  0  0  0  0  0  0  0  0  0
    6.1734    2.7786  -22.1124 C   0  0  0  0  0  0  0  0  0  0  0  0
    5.9826    6.3511  -20.4718 C   0  0  0  0  0  0  0  0  0  0  0  0
    6.1366    5.2732  -21.5876 C   0  0  0  0  0  0  0  0  0  0  0  0
    5.2438   -3.2139  -18.7598 C   0  0  0  0  0  0  0  0  0  0  0  0
    4.4539    3.7514  -20.6300 N   0  0  0  0  0  0  0  0  0  0  0  0
    5.7005    3.4442  -18.7514 N   0  0  0  0  0  0  0  0  0  0  0  0
    6.5952   -0.7613  -20.5434 N   0  0  0  0  0  0  0  0  0  0  0  0
    3.2859    3.4919  -18.5683 N   0  3  0  0  0  0  0  0  0  0  0  0
    7.8640    3.6315  -19.6412 O   0  0  0  0  0  0  0  0  0  0  0  0
    7.0925   -0.7662  -18.3142 O   0  0  0  0  0  0  0  0  0  0  0  0
    6.5526   -2.7502  -19.2265 O   0  0  0  0  0  0  0  0  0  0  0  0
    6.7055   11.1309  -22.9320 H   0  0  0  0  0  0  0  0  0  0  0  0
    6.4184    9.5818  -23.7949 H   0  0  0  0  0  0  0  0  0  0  0  0
    8.6302    9.5178  -22.7397 H   0  0  0  0  0  0  0  0  0  0  0  0
    7.9252    9.9671  -21.1499 H   0  0  0  0  0  0  0  0  0  0  0  0
    5.3017   10.3989  -21.0543 H   0  0  0  0  0  0  0  0  0  0  0  0
    4.3808   10.2279  -22.5870 H   0  0  0  0  0  0  0  0  0  0  0  0
    4.5376   -1.0783  -22.2988 H   0  0  0  0  0  0  0  0  0  0  0  0
    5.5637   -1.5525  -23.6949 H   0  0  0  0  0  0  0  0  0  0  0  0
    7.3691    7.3939  -22.7285 H   0  0  0  0  0  0  0  0  0  0  0  0
    8.3503    7.5369  -21.2307 H   0  0  0  0  0  0  0  0  0  0  0  0
    4.0925    8.2403  -21.0803 H   0  0  0  0  0  0  0  0  0  0  0  0
    4.8710    7.7994  -22.6379 H   0  0  0  0  0  0  0  0  0  0  0  0
    6.8372    0.5726  -23.4788 H   0  0  0  0  0  0  0  0  0  0  0  0
    5.0860    0.8797  -23.7346 H   0  0  0  0  0  0  0  0  0  0  0  0
    6.3375   -2.5985  -21.5567 H   0  0  0  0  0  0  0  0  0  0  0  0
    7.5752   -1.5048  -22.2626 H   0  0  0  0  0  0  0  0  0  0  0  0
    7.7851    0.9290  -20.9460 H   0  0  0  0  0  0  0  0  0  0  0  0
    6.5258    1.1612  -19.6864 H   0  0  0  0  0  0  0  0  0  0  0  0
    6.3444    8.4142  -20.0302 H   0  0  0  0  0  0  0  0  0  0  0  0
    4.7640    1.3057  -21.3349 H   0  0  0  0  0  0  0  0  0  0  0  0
    4.2186   -2.8614  -20.6552 H   0  0  0  0  0  0  0  0  0  0  0  0
    3.1203   -3.1119  -19.2561 H   0  0  0  0  0  0  0  0  0  0  0  0
    3.9981   -1.5557  -19.4415 H   0  0  0  0  0  0  0  0  0  0  0  0
    5.8517   -3.3079  -16.6706 H   0  0  0  0  0  0  0  0  0  0  0  0
    4.9532   -1.8173  -17.1147 H   0  0  0  0  0  0  0  0  0  0  0  0
    4.0754   -3.3735  -16.9293 H   0  0  0  0  0  0  0  0  0  0  0  0
    6.1008   -5.1652  -18.3645 H   0  0  0  0  0  0  0  0  0  0  0  0
    4.3187   -5.1662  -18.5889 H   0  0  0  0  0  0  0  0  0  0  0  0
    5.4026   -4.9777  -20.0088 H   0  0  0  0  0  0  0  0  0  0  0  0
    5.1056    3.2313  -16.7411 H   0  0  0  0  0  0  0  0  0  0  0  0
    6.7170    2.5452  -17.1399 H   0  0  0  0  0  0  0  0  0  0  0  0
    6.5045    4.3245  -17.0144 H   0  0  0  0  0  0  0  0  0  0  0  0
    7.2551    2.8060  -22.3104 H   0  0  0  0  0  0  0  0  0  0  0  0
    5.6261    3.0441  -23.0289 H   0  0  0  0  0  0  0  0  0  0  0  0
    6.7097    6.1263  -19.6775 H   0  0  0  0  0  0  0  0  0  0  0  0
    4.9626    6.2793  -20.0663 H   0  0  0  0  0  0  0  0  0  0  0  0
    7.1629    5.3096  -21.9819 H   0  0  0  0  0  0  0  0  0  0  0  0
    5.4248    5.4914  -22.3974 H   0  0  0  0  0  0  0  0  0  0  0  0
    3.6651    3.8134  -21.2415 H   0  0  0  0  0  0  0  0  0  0  0  0
    3.3188    3.3473  -17.5794 H   0  0  0  0  0  0  0  0  0  0  0  0
    2.4043    3.5861  -19.0308 H   0  0  0  0  0  0  0  0  0  0  0  0
  1 15  1  0  0  0  0
  1 25  1  0  0  0  0
  1 28  2  0  0  0  0
  2 24  1  0  0  0  0
  2 25  1  0  0  0  0
  2 27  2  0  0  0  0
  3 26  1  0  0  0  0
  3 29  2  0  0  0  0
  3 30  1  0  0  0  0
  4  5  1  0  0  0  0
  4  6  1  0  0  0  0
  5  8  1  0  0  0  0
  6  9  1  0  0  0  0
  7 10  1  0  0  0  0
  7 11  1  0  0  0  0
  8 13  1  0  0  0  0
  9 13  1  0  0  0  0
 10 14  1  0  0  0  0
 11 26  1  0  0  0  0
 12 14  1  0  0  0  0
 12 26  1  0  0  0  0
 13 21  1  0  0  0  0
 14 20  1  0  0  0  0
 15 20  1  0  0  0  0
 15 22  1  0  0  0  0
 15 24  1  0  0  0  0
 16 23  1  0  0  0  0
 17 23  1  0  0  0  0
 18 23  1  0  0  0  0
 19 25  1  0  0  0  0
 21 22  1  0  0  0  0
 23 30  1  0  0  0  0
  4 31  1  0  0  0  0
  4 32  1  0  0  0  0
  5 33  1  0  0  0  0
  5 34  1  0  0  0  0
  6 35  1  0  0  0  0
  6 36  1  0  0  0  0
  7 37  1  0  0  0  0
  7 38  1  0  0  0  0
  8 39  1  0  0  0  0
  8 40  1  0  0  0  0
  9 41  1  0  0  0  0
  9 42  1  0  0  0  0
 10 43  1  0  0  0  0
 10 44  1  0  0  0  0
 11 45  1  0  0  0  0
 11 46  1  0  0  0  0
 12 47  1  0  0  0  0
 12 48  1  0  0  0  0
 13 49  1  0  0  0  0
 14 50  1  0  0  0  0
 16 51  1  0  0  0  0
 16 52  1  0  0  0  0
 16 53  1  0  0  0  0
 17 54  1  0  0  0  0
 17 55  1  0  0  0  0
 17 56  1  0  0  0  0
 18 57  1  0  0  0  0
 18 58  1  0  0  0  0
 18 59  1  0  0  0  0
 19 60  1  0  0  0  0
 19 61  1  0  0  0  0
 19 62  1  0  0  0  0
 20 63  1  0  0  0  0
 20 64  1  0  0  0  0
 21 65  1  0  0  0  0
 21 66  1  0  0  0  0
 22 67  1  0  0  0  0
 22 68  1  0  0  0  0
 24 69  1  0  0  0  0
 27 70  1  0  0  0  0
 27 71  1  0  0  0  0
M  CHG  1  27   1
M  END
> <OMEGA_C>
hZLUQDosaEBJDp7BrauMQDqxY0AQDprB3JHXQGxjs7/gaZrBA//QQD3VIEF+dLbBD9v3QIjcFkHQ
vLDBkVqnQJ+EHUHQA7DBqyexQAXcfL/RArbB78XvQEZG/kAESK7BY+mfQHalBUHMkK3BML66QPRG
+T6ZQbjBq6bSQOyoxr+nUq7BZubXQLLyMz/8SqXBbMXGQCqH+UDWc6fB/Uu5QJkTqD9V163BXmm7
QBZwdkDiT6jBr+CBQIc5KcDctZzB/XagQP75OcDHFIrBmpWoQL+ll8BCjJfBGd/AQJx5WEArlIrB
SYzFQKLUMUBD5rDBxnG/QCE8y0A4xqPB+F7EQKa9qEBzs6zBCc2nQOavTcAAFJbBhIaOQLAXcEBX
CqXBOWq2QK5tXEDkApbB6AvTQGfjQr/2WKTB9ExSQLh6X0Dqi5TBOab7QLBpaEAyIZ3BlfXiQBQl
RL+Ug5LBha7RQJQCMMDcz5nByZPWQDgYMkHEdLfBUmPNQDRPGUHzW77BgBUKQeVIGEHy6rXB8Jr9
QEZ5H0HsMqnBw6epQOBhJkEwb6jBTC+MQJmlI0E7srTB9DORQCAHir8HZLLBkgmyQIS5xr8nj73B
Rc/rQCKb7EDg07XB4ZoFQX8u8UBs2KnBrvWCQGzYA0FjpKjBY9+bQFmU+UBXGrXBmMraQISTEj+i
1LvBQsCiQP41YT9e4L3BjczKQG5OJsAKdKzBHGjyQKubwL+7GbLBxR/5QJ3VbT9/kafBJ9PQQPGg
lD+nfZ3BRgXLQIOgBkHxPaDB0HKYQIkipz/drarBzf6GQBwhN8DcPaXBPLNHQI4pR8CTDJrBZuF/
QNkhx79GiJvB70C7QBK0U8BZXYXB1YCeQAqc6L/36ojBwGmCQKfmV8BEb4fBwznDQLZJpcCU6pLB
ZzKKQFNRpcAFtpTB3+GsQIdJn8AWEqDBOGGjQDfOTkDd7YXBtfHWQJfkIkCTHonBnyTQQPFhikCJ
HYjBhynoQKuVM0Cse7LBpgi0QDLTQkA1O7jBnbXWQMgKxECBa53B7M2eQKXvyEC9h6DBNjblQBjo
qUDf2q/Bv5etQM65r0DILbPBipBqQPoNdECd7qnB6WdUQNc5VkCOoozBw+AZQPqCZUAVP5jBb1jU
QLSgaUBY1p7B+9CMQHgHZkCZeJrB5MbXQIeSsb8LOpnBJ3XcQFmKJkExGK/BoACvQM/tIUFE76rB
xufrQMG5FEE0rrbBDbGvQAdyk78X+rTBThytQEwGDEHoZqXBffHpQFR6/UCKM7HBSX65QJhNmz7J
w7fBnsnQQNS11b+A96zBJYXWQGb1JD8V46TBahO8QLBV9ECJD63BZPa3QMU0mD87qa3BJXW6QFof
cEBqHanBKkOAQBqIEcDosZnByBShQHLNTMD9zYjBmjigQBoJksCRoJnBLSbCQKo/W0DmPovBT4HE
QBD1J0A8OrHBzMW5QI2vyUClCKfBB+zCQAqOo0AQj67B1ValQGAsScDrFpXBXNGNQISeakDkkaXB
zNK2QKZzaUBMgpbBZ6XRQNZ6T791V6PBRYVTQGY8YUA9yJTBDXf7QKgRaECrGJ7Bsy/kQJF8NL8b
r5HB9NvQQDRNLsDv+ZfBYVXcQFbZNUGwb7PBsX3yQESaJ0GUQKjBK9ulQIlrLkEcLKXBZIaYQE0L
IkHjtLHBtV3XQJ19FEF7073BR5EGQYEJGEGeELnBcI6PQL/vm7/KbLHBbOewQEmj4b/1SbzB8QXC
QKI/DEEEU57BvvuLQFbJCEHp56LBNxPzQBGV5EAP/bbBii0AQbkN/UCgaqrBVZ3ZQKB0uj61VLvB
kaahQF9vKj+Sjb3BiGXIQDeXLMD3narBv5nwQGIq1b+pu7DB2bz3QH1FWz+wQKfBdWjPQDKvkz/+
Sp3BgSymQLMW80BU8bPBYRaXQC7/mT+VhKrBxQCDQFeGDsDOdaLBuLFCQPpLLsBlgpfBEkOCQFb9
oL8EXZbBdR67QKf0c8CHeIXBB/+iQNGcC8BYhIXB0hSCQCFqacC6qYbBnPW5QJGapsCRh5bBBwiB
QPIdn8BjMJfBNQCiQALnkMBRaaLBGBalQBxIXkCdS4bB4xPRQFDgG0C4X4rBqsfYQPJ4hkBRoYjB
kynnQOWcKEC/w7LBwjqzQItFNkDcrrjBlZ7RQF7XyUCej6DBR5KZQE/+xUD9maPBQqfkQMzYpECs
DbHBLDKuQL5CpkCwo7XBaWxoQD47akAcXqrBH+NWQP+vX0Cty4zBYY8aQNMeX0CPa5jBggrTQGhM
fUCENZfB0ZqKQD0AcED0PJrBSB3XQE/6AcCa953BD968QEBvIkFB4LfB+9vVQGqKD0G6u7zBcc7E
QMcaJEGcuqvBevCOQGivKL4RDa7BWnvKQOPC9EBqHbfBF/24QG4OD0F0DabBkf+mQFlQlD/vm6/B
tfeuQKLWqb9RfK7BvEzpQH1rGT7RHKfBQQbSQMvG90Dw0arBwcLJQGyRqz+mr6bBN/XLQF9mekBx
TaPBzIaWQGbbCcApVY7BA3bAQLa9isBUuYzB5ht7QBT0hsCb+pfB2RujQJaAeUAK54bBctfiQITH
KkAyPajBLEbDQHTGzkDQBaXB9S/cQGCBpkDcyqjBgsSlQIgwXMAxS5TBsCedQHfEdUD5T6TB5Qyr
QAQRckBCeJLBExjRQMFDj78FYKbBuLRCQJIAaUDujpjB8131QPCGg0CZm5LBA5vzQEUu7b+UWJfB
PUq+QH4NSsCs8p3BGk3HQDFdMUHivLvBNniaQB0LIEGrT7nBuOjNQFM2DkG3R8XB3Fv4QIuJEkHS
1bvBEtfmQEKYJ0FyUKrB+SOxQP8kMUHtcqjBM4N9QGsGJL59PKbBaxhuQEW9kb4lcbTBUZeoQJtb
7UCFm7jB+ZneQAMJ20DEZbrB87PAQMV8EEEQf53BZ3qWQI0oDEHuAKfBoKe2QPTxkz+efbfBkxuQ
QEUS/z8IMq/BUy+eQC9VEcBTz6zB4W+9QGrBr7/Nf7bBoCH7QFUfNT5gsq7Bmdr/QE4sYD4EYaDB
22T0QDKK/EDYVqnBhOS5QPuBrT/71J7Bgp6DQJ7Lw7/H0pPBv6yCQI0RHMBybofBmoyyQAory78V
iovBju3KQOmPp8CsC5HBYqjcQKLJccB67InBh8isQNUilMDX0IXBYWCHQDUzpMA5N5zBbVhUQJKd
j8Cj9ZDBnghVQLRrZcBmYZ3BPwiBQDDBbUDGQYXBCqK2QKoUSkCamoLBMLyrQCoenUC0MoTBdzMB
QdQFJEBMb6TBHf3mQH7XNUAf3rDBKlTIQOvn0kAXYJzBBf+gQOHmyUArnKbBDEr+QMvAqkA346bB
zUbYQIQgo0A/f7HBAA6NQC+jdkCnOavBEkssQFZyZEAqFpHB2isaQNQ3aECav57BCfXOQFoBcEDA
9ZzBImSIQHPEVEBGAJnBv7XYQFhqTr/m4JrBwNvIQJKCIUGn27bBIPnrQDTJE0EFOLzBZLXJQN4O
H0HpkqrB0z+uQOUTPb8No7XBAnvnQN0Y+EBHE7nBNhrFQFZ4B0EDcKfB9Aq0QC++Qz+ib7jB8MDT
QElio79Jxa7BhiXjQFxwgj/waqjB8qnoQMN580C0yazBnRu7QI+wyz87Fq7BToq0QOJLgUCmC6fB
tHCvQJWZDMATf4fBhroAQVLQFcB7l4jBmXXTQCHjhsAnYY/Bwza/QE4lO0ApTorBpzrAQC0aR0A+
r7DB9F7lQD5RxEDhYqnBbTi3QAprsUB2DarBDFvWQItbK8D3PY7B2UKIQE0fcUDPk6PB1c+yQJDL
T0AVX5XBmwjbQJ/iv77alaXBzCVMQDV4QECsiJPBXgr2QLWIc0Ac/ZvBFX3aQKT/2zx6qpPB2MPU
QFMlCsAQKpnB+B7OQAlrMkGw6rjBjGOpQDBkHEFl27nBeCTpQAtEFUGF9cTBxMcFQa+fGUFgqLnB
kkLoQAc9JUGie6fBbB2vQEA9KEEFFqfBrjuQQGDfXL8gJrHBipasQMuiqL+2G73B/t7IQCeq60Cn
HLzB0AEBQcq+5UBTmLzBm7PHQKr9BUFbsZ7BBJmlQFGdAUFBDarBA/XPQBvDYT/btr3BFzaXQEaH
kD+gjrzBO9TLQJYbEsAI06vBi+vwQBKNqb+orrPBztv+QALViT/60q3BDsHpQP/HzD8VIaHBd9sD
QaO8/0Bv/6nBSzOfQH8Luz9Y06jBMZORQL66HMDxsYvB1uivQERvLMD5S3/BI1OxQCXBjb+bX4bB
xyEOQZpULMBZjY3BjP0BQYBToL82eofBZkgBQXK4NcCXwIDBLrLuQL+NksBSIZTBMD3UQEevlcCx
ZYfBi1+1QAtsj8Ala5PB6zajQLnFIkCY7YXBcXLYQJgQCkD6YYrBX0LLQPAsdUAFVobBxbThQCkw
U0Af8rLBbyarQCf8VkBicrfByFD6QANMsUAyn67Bvn7wQDahwUB4EKHBQoirQGVItUD/S7LBCYei
QG2Fw0C9jqTBEFVcQLF8eECIHajB0aRRQHYYK0BKBozBcUgSQDNbRkAn35bBtUXSQNe5d0DIpJ3B
iZKKQBXXYUD4WZrB5z4AQS721b9Y8qTBg4XqQI1UJEF6tLLBomLHQJuGJEG8CqrBSbLhQDXXEkHC
FbvBa6STQFMnLL9lQ6fBhGzDQCWCDkFnnKTBLWbeQHaF+UCsw7XBv5iXQGfKOj/IMazBlUm1QMMp
zr+YLqzBi67mQOf9qT6hba/BFV+7QJXv+ECC6azBPZvFQFTWpT8FbqrBVqK6QNZ5d0BbXKjBrbXe
QIj6CsCff4/BqloVQduAQ8Dq1JHB8qTrQKo4k8DZupPBaay8QKb5YkBgVIrBFQXLQJkCLUDXi6/B
Ch+6QEvazUDG16bBSEjAQE+fpkAITq7Bj737QL9HSsA5ypXBV46NQG53bUBUXqXBXRazQJkVb0Cc
wJXBZ47gQBnDgr9r6KrBUxBOQGsaT0BJTJXBR+74QHYwgEBcUZzBdfERQeCkk79/8aPBhzL4QFz1
O8DwSqHBX07rQLUBNEFVs7bBptMEQUk7IUHa5q7BBHzPQCuXMEGU9qPBpJmoQIKoKEF6xq3BG2rD
QHtsFkG6Mr/BA/f7QMGhEkEZ8cDBfcCYQOq6G79Vkp7BIe5mQAUbib/R3KjBl0DhQNsOC0HHRKDB
nouoQErtDkHE7p7BxU3WQCqV4UDu47vBFnP9QP1y8UDGJLLBYQuRQA+sKz/n07TBwzeAQGVCsz+j
Y6jBxB20QClqJcAsGqjBGGuuQPLV37/qvbTBcC3iQIzZmD7bJrjBFpsDQc5mLz8Qm63BZQmcQFBS
/kA/sLDBUafLQBKErz8fyKHBZZG9QLx3EMATYpLBk93fQNiGGsCy64bB2ivqQElSkr+DvZDBe2wf
QSiQcMA2WJbBazcbQXrhAcDdFJPBSBAWQS0/U8AMQ4nB9tr/QIsMqsCxIJjBOEntQL87msCzHYvB
sVXKQBEnlsCdepbBnZSeQD7vXUDgzoXBGGrPQJT9J0CzRInB1jTPQPL4jECzXofBSDntQEBtN0Ck
KrHB6Rq5QAJRLkCaHrfBDM3TQLrIzUD/0qDB4fKaQMvuykA20qLBu7bgQAHKp0CYtrHBf5KoQItZ
qEBuy7TBkKhpQGLIbkCgcarBsClOQP7iSED5VY3BCb0XQJEGR0CtZ5nB8sjUQNjCcEDLCZzBnKyL
QIksZUCkLZrBk4z2QKiS27/3M6fBnqLNQPu2HUGs+rnBfS73QN9dFkGBZ7TBjQ+nQBCYHEEERrLB
vVmOQASr6L5J66nBgfnxQHBl/0CF26/BP6uhQFzXBUEMsK3BRsCWQBfjez9auK3BM9StQJ86tb8g
Ya/BL97kQIy80j7M47DB7kbLQIwT/UA6CajBKujFQLjwsj9COKvBf2LAQFRqfUBVCafB79H9QJfI
lr9eIZHBMuwNQcm/YcCi95PBNPvOQNs5TMCUeI7B/Py4QKFnUEB5fInBy7bPQNiJNkDi967BAvDF
QNHJz0ClOKPBqjnLQPpJq0D5navBvwv0QNimJ8DuSJXBV0mSQI0teUCS6KTBQS+zQJtJZ0BKz5TB
SGfaQCRfeL/aj63BvUZMQFzHVEB395XBoy77QIjKcUBFAJrBy6gOQcivyL+3UqjBtlTlQBA6KcDb
ZKDBhqHRQEZQLkGnurzBN3THQFNIE0Fo5cDBnMEIQfduFkGQPrrBIa/+QNl3IUGh1q3B2zKsQEjg
J0GCpKvBBNWJQBELIUG5pLbBBqCSQPNBAr/vMaHBDclaQM/uPb/A+6vBF7LsQBfh6EDSfbbB76cH
QQ989kD3iKvBVTiHQNTNBUGG4afBnE2aQBRo9UByP7TBCUKRQMu5hT8RZrbB0cOAQPWS1T+skanB
0aSpQGM6G8C/C6zB+1SnQIXUt7/UBrjBl0LhQLcmAT+knLnBegYDQUpOJT/noK7B2Y3RQD6yCUH6
aaHBIxPLQAvbqj+gh6LB/0XhQOviC7/QHpLBSUcDQapunL/wnIjBDkMMQS0YQL8zu5XBADoKQV8x
kcCw7JbBVVUbQf/2RsBDlJjBkFkSQUkoZcAAdovBpU7HQF+thsDYNJHB76rYQJMqTsClA4bBDJyy
QLolI8BWWI/BWpWZQNkETUC5iIXBHfPIQJ3REUAR7YjBq8jMQH+hgECwh4XBG4jyQNjePEDO/a/B
zL2/QOj7QEBgs7bBgCzeQHRry0AA75zBnMqlQFpizUDNr5/B0JnsQL0Kq0Coaa7Bpsy1QEXNsUAV
aLLBUnF2QCWMgUA7UKrBqlpHQOQNSECKJo7BYe8XQFH/VED7kZrBgYLSQKvibUBkjZ3BWnGKQDze
X0D+D5rB1u/LQG2BWr/2TJjBjCPgQJrKHUGHFrjBhLr6QKyEGEGgA67B6NKvQMa7GkET/LXBW4mp
QGfcbL8DtrPBlqTxQI6XAUE2LKrBL2ymQMXQA0ENKrLBE220QPbCBT+fPLfBSo/LQLaXvr+u7KvB
gZHfQFGcUD8wgqbByBbBQNPU/EDbCKjB2e+6QAtUtj+LR63BTDq6QFKFfEC0+KfB6LKYQKek9r/2
HYXBpM/pQHpmFsDrkITBvXK3QDzBg8DzQovBCdO9QPWTRkC6nIrB4urEQKm2OECYvrDBpJG3QLIV
z0BvAqTBsZPDQDqEq0BtQKzBVnS/QEnbJcBx14rBjvuMQGepdUB62KTBrhG0QFgFVkDs95XB39PS
QBUNB79MHqPBSf9MQOFwVUBd0pTB+2r5QCY0ckCkTpzBY4rOQDaEAD1Bg5HBgsXCQLmzCsDv/pXB
iAzmQA2ELkGTZbrBagfqQJYgE0Eyo77BfHoOQcoLGkGQ66/B7VjyQGrWI0EQnKfBdXGlQCAfJkEf
zK/BHQ+eQIXKHUEkbb3BQzaKQFbHbL9msq/BzRioQP/DyL8q17rB1xj8QBls7EAJW7DBc78BQSQ2
/UCovKLBIiyEQKRjAkFfQ7DBnayuQMT58EBak7jBb/rRQMVpAz9iBLzBYQCaQEToaz+FGLzBVTjA
QG1nHMBsmajB4rjpQCGN07+IRLDBFOv8QP+QQT8IWKvBXmzlQJPKuD8gcJ/BmaW3QBetCUFdsqHB
FFydQPLptT8jgqjBYrp2QMZlB8CevYnBZjqVQKiNFsDeGHrBkhqeQKCzV7/ogoTBA0ICQdg0NcBC
0IjB3drvQHJvor/E9IPBsfrmQHnYMcCW/HjBS3vSQEKMk8CQSI/ByFu0QIxEkMCZEoPB4cyZQPMr
isDKuY/Bh1SgQLSlNEAvXYbB00zVQIplEkDp8InBkiXLQESTgEDrCofBCTXnQHFIPUArprLBaP6x
QB14R0CG7rfB9fLJQDaZyUCAoZzBnieVQBGozEBNQ6LBS+vlQFz8rUDLFK7BFOuwQD6TsEAOm7PB
IfpnQMsmf0DFsqnBsBxOQPDEREBkGY3BwwYVQOknXkCUi5jBfMfUQAVBb0Dh35zB8bWLQISXbUDr
fprBLKb0QDL8478nE6nBdJTYQNcvJkEtZbHBjmiqQInnIEFQ/63BuYLsQGm2E0GD17fBZSmXQDu9
Nr89P6bB3QGpQEIFDEExkafBeBbrQMlu/UAke7HBQLyeQHhJSz/QgafBfu6qQLJ2vb8moq/BNGXg
QBiSgz5rKrPBEY+8QEn58kABEq7Bmb7NQA+SmD/FbqrBzcC/QCKHcUAx1afBcv/wQMu+vr9vYZLB
2MAHQZ3rcsDvYZXB6QDAQH2hYMB9ZZPBhQC6QI+VakCE14nB5O7PQKEAKEBhHK/BEJS6QMWNykBZ
LqfBaT3JQBYqo0CNoK3BNYHpQGTyN8CC85fBLLqRQLJmbEAsiaXB8b2zQFTrckBgb5XB5YDYQMOx
kL+rCrDBJNtMQMPAaEAoxJXBflP7QJMGb0DZDZvB9SoNQWIJuL/eoajB+6LkQFlzNsCMkKPB9lLY
QBe1NEEbXrbBBgHsQD8GKUHeMarB7+2dQEEFLkEJB6nBWGiWQOArH0HLL7XB5o3aQHWpEUFKV7/B
lwIHQVqlF0HzrrnB1uWlQMQzh79QvZ7BQRFpQGe2aL/TAabBh0y7QO0WDkHBHqDBhYuHQDMsCEET
oaXBQ233QKNK40CcgLbBGCf/QO1OAEFuS6rBDYSJQAXtlD9N4K3BOGWWQPUwpD9c55/BwzinQLAH
JMD4Y67BjyybQKZLmL/VJrfBab3QQJf97D6W37rBgoQBQWIs2z7r67PBdi2pQGsA7kByT7XBsMfh
QHxAkT82NqPBIADWQETzUb/LJ5TBbHLzQIdV0b/crYnBs2gHQVWMhb/5ZJXBjVMFQXO0mMDdP5nB
i5wWQQPUVcD3YpjBDu0IQZy4e8Daq4zBxmy6QG90j8BdQZfBvnPDQNDHacC6torBU7ikQD4ENsCQ
/ZTBJe2aQKu+b0BewoXBNW7IQDL4K0DFD4jBPVrPQP/kjkA/BIfBhJLxQKxhNUAkF7HBwaO8QBff
KEBueLbBC57PQE6RzkCYMqDB5neZQK6VxUDpdqTB+e/rQCyGpUB7/K7By324QCsVo0D9XbXBHPN0
QESpaEAXA6vBs1hJQEygaEA+x43BV2MXQKkuZUDlI5rBQKPSQH6vbkAni53BkpOKQGIpYEBDEJrB
Y4jLQFnaWr+vGpjBfd/fQFnYHUFaJbjBbnX6QIahGEEOEK7BGZGvQGe9GkGTDLbBNBiqQAdpbL+k
x7PBJ3bxQIe1AUEHNKrBlUSmQCXSA0EBOLLB/W+1QEzGBT87Q7fBSBbLQAMhvr9et6vBj6feQLAQ
Uj9OPabBZunAQOD3/EAbFKjBId+6QFThtj/sSa3BxVy6QH3UfEDI+KfBtw7oQPYqFsDZ/4PB7ygI
QabMMMDZaZXBZZTWQIw3i8AfY4/BLP69QDBJR0CLmorB2j3FQEXlOEA6uLDBpHu3QJ87z0CTCqTB
z5bDQLamq0C2RazBrDnkQExmN8AIrI/BOR2NQB/GdUAo2qTBWzW0QBDJVkDv9JXBDmPRQIFOBL+E
7aLBU0RNQKh/VUCF1JTBfJD5QD6YckCWUJzBqRjNQKQ8FjysIZHBmwXDQGX5CcBLnpXBLLflQLeR
LkFLd7rBVtTpQDIsE0GKr77BwFcOQS4wGkHl9q/BeAPyQG72I0E9q6fBWx6lQAQhJkGP3q/Blc6d
QP/CHUHEfr3BJEiKQDyya79sA7DBQoipQJ7tyL9F5rrBlgD8QKii7EBBX7DB6KQBQeyK/UA+wqLB
GgSEQG9aAkHTU7DBw5yuQC768EDenrjBZoPTQIigAj9z1bvBsZWbQMyqaz+xULzBSzm/QFriG8BB
bKjBebzpQCIU1L8h0q/BOY/8QID8QT+d2qrBgbjjQNLKuT+hJJ/B+GK3QHvACUFvwKHBdcKcQBbR
tj8/u6jBcMbIQGwUG8ABA4DBoa3/QGH5PMCtRX/B5nHyQP/Ppb85FYTB1KQGQTZ1SMC8qp3BfGYN
QR0z27+WiZXBWQQUQfCqV8AzF5HB8LzTQPJql8BtnJfB6cPuQJTzncDeCIvBIoW3QO4cjsBoT4vB
YoKgQJtWNUAcWobB93fVQCAZE0C+8InBn1PLQGjrgEAmCIfBI5/nQBQbPUB+iLLBpKmyQPDeR0Cx
9LfBstvJQGvSyUCOqJzB+RGVQPu8zECBTKLBduzlQK0zrkCUGq7B5emwQJecsEC6oLPBuz1oQBYJ
f0BBtqnBRWNOQJn6REA/Go3BakoVQLHhXUB0kJjBg6jSQH8taUBiHpzB8TiKQPfHWUADXpnBYEvK
QFnZeL+meZvBQmzsQM4LIUHaEbHBV8jAQIq2H0HWUavBkTTsQPKzE0GLd7vB7HarQMvPG78o/LbB
Bi21QM5QCEE846jBq5vgQDZv+EAOJbnBHxW3QJb3YD+S97jB42PMQGxApr+Tka/BICfgQM/VZT92
wafBVNu0QFZQ9UBNTrPBsYq8QC1rzz8oJ67BGcy7QFJsgUDwaabB60OUQB4lFMAx7InBpCXlQKx/
McDzI4nB10azQDT1jMCR75HBQY27QJmHL0C7GYrBXC/HQAvHR0ABHbDBCvaoQOcGxkA4B7HBwcDG
QDO0sEDyl6jBMpm7QMicOcBk8o/BjDOOQB+tekBgp6PBmj6zQJigSkBWL5XBeLXSQMR9975A06XB
KylLQA7SSkCQn5TBT2n5QGofa0DKhZrBSDDMQFfETL4h2JPBIYbAQLi4E8BUkJrB7zbzQIzaMUGQ
DbPBYL8CQRXmGkFOtqvB4X/CQO+3KEFlxaPBM/SnQCq6JkFyerDBUIXUQAF4GkFqB8HB5RUGQcdY
FEE5I7/BRqmLQOAKKb94PLPBbsWqQIJ1kb89tL7Bj+LMQPmkAUG7TaPB2zuVQOPBB0FgM6XBcr3e
QEvJ5kCWvsDBnZL5QAUx6kCCELTBzzbVQCwCbz++fr3Bv1udQKjGrT8GmL3BOnnAQHbZEsCITq3B
ow3rQPGKs79Ez7PBdxn+QFKjZz9bYazB8zjlQHJ+tD9+EqDBh0mcQHVVAUGLprjBGmCeQPruxj82
pqnBZApvQNjYGsCl7o7Bc5uPQNURN8AAX4LBCtyZQF0IoL+5M4jBpCQAQdl/TMBBnY3BTWDrQIwz
27/saYfBtR/hQG2nVMAzlYHBNLXOQNH2msAyMpbB2wCvQAFgncCnOYrBxjCWQM3GkMCczJbBCXmd
QK48GkBoYobB0q3SQBjq9D+ZGIrBjrnIQNGkZUAYiYXBfKvpQOqDTUDQubHBQAq1QDzGXUCGIrfB
FdyHQCLexECXDK7BmT+rQBvgs0DVi7jBevfDQP+NwkCGCqHBVOnnQHaAskAxg6vBaJ1rQCQxhUDd
cajBXCZKQIQMMkB4P43Bd0AUQCYtWED2YJjB

> <OMEGA_E>
7K3aPvDs0j6+2kc/EEhJP7TiUD+ciFM/iC01Pyj3NT8shzk/WDs7Pw==

> <OMEGA_NBR>
     52640

$$$$
50253512
  -OEChem-04172616093D

 69 71  0     1  0  0  0  0  0999 V2000
    6.5708    3.7360  -19.6413 C   0  0  0  0  0  0  0  0  0  0  0  0
    4.3003    3.7489  -19.2746 C   0  0  0  0  0  0  0  0  0  0  0  0
    6.6790   -1.6576  -19.3250 C   0  0  0  0  0  0  0  0  0  0  0  0
    6.8408   10.4020  -22.2604 C   0  0  0  0  0  0  0  0  0  0  0  0
    5.4162   10.1101  -21.7527 C   0  0  0  0  0  0  0  0  0  0  0  0
    7.4020    9.2167  -23.0681 C   0  0  0  0  0  0  0  0  0  0  0  0
    5.4202   -0.9944  -22.6292 C   0  0  0  0  0  0  0  0  0  0  0  0
    5.3888    8.8222  -20.9196 C   0  0  0  0  0  0  0  0  0  0  0  0
    7.3654    7.9201  -22.2455 C   0  0  0  0  0  0  0  0  0  0  0  0
    5.7175    0.4796  -22.8514 C   0  0  0  0  0  0  0  0  0  0  0  0
    6.5325   -1.5758  -21.7737 C   0  0  0  0  0  0  0  0  0  0  0  0
    6.7217    0.5812  -20.4676 C   0  0  0  0  0  0  0  0  0  0  0  0
    5.9264    7.6372  -21.7427 C   0  0  0  0  0  0  0  0  0  0  0  0
    5.7778    1.2601  -21.5164 C   0  0  1  0  0  0  0  0  0  0  0  0
    5.8716    3.8205  -20.9826 C   0  0  2  0  0  0  0  0  0  0  0  0
    3.9718   -3.3277  -17.0907 C   0  0  0  0  0  0  0  0  0  0  0  0
    5.8112    3.6856  -17.2414 C   0  0  0  0  0  0  0  0  0  0  0  0
    6.2629    2.6738  -21.9247 C   0  0  0  0  0  0  0  0  0  0  0  0
    5.8734    6.3818  -20.8663 C   0  0  0  0  0  0  0  0  0  0  0  0
    6.2145    5.1376  -21.7024 C   0  0  0  0  0  0  0  0  0  0  0  0
    3.7060   -3.7067  -18.5623 C   0  0  0  0  0  0  0  0  0  0  0  0
    4.4909   -2.8131  -19.5341 C   0  0  0  0  0  0  0  0  0  0  0  0
    4.4428    3.7698  -20.6561 N   0  0  0  0  0  0  0  0  0  0  0  0
    5.5710    3.8239  -18.6812 N   0  0  0  0  0  0  0  0  0  0  0  0
    6.5375   -0.8874  -20.4758 N   0  0  0  0  0  0  0  0  0  0  0  0
    5.9102   -2.7973  -19.1496 N   0  0  0  0  0  0  0  0  0  0  0  0
    3.1520    3.7017  -18.6495 N   0  3  0  0  0  0  0  0  0  0  0  0
    7.7814    3.6897  -19.4531 O   0  0  0  0  0  0  0  0  0  0  0  0
    7.5451   -1.3962  -18.5000 O   0  0  0  0  0  0  0  0  0  0  0  0
    6.8160   11.2940  -22.9037 H   0  0  0  0  0  0  0  0  0  0  0  0
    7.4968   10.5902  -21.3978 H   0  0  0  0  0  0  0  0  0  0  0  0
    5.0761   10.9502  -21.1295 H   0  0  0  0  0  0  0  0  0  0  0  0
    4.7423    9.9966  -22.6147 H   0  0  0  0  0  0  0  0  0  0  0  0
    6.7969    9.0828  -23.9769 H   0  0  0  0  0  0  0  0  0  0  0  0
    8.4429    9.4345  -23.3494 H   0  0  0  0  0  0  0  0  0  0  0  0
    4.4553   -1.1065  -22.1130 H   0  0  0  0  0  0  0  0  0  0  0  0
    5.3815   -1.5170  -23.5963 H   0  0  0  0  0  0  0  0  0  0  0  0
    6.0152    8.9559  -20.0253 H   0  0  0  0  0  0  0  0  0  0  0  0
    4.3535    8.6107  -20.6138 H   0  0  0  0  0  0  0  0  0  0  0  0
    7.7003    7.0825  -22.8749 H   0  0  0  0  0  0  0  0  0  0  0  0
    8.0379    8.0208  -21.3809 H   0  0  0  0  0  0  0  0  0  0  0  0
    6.6863    0.5744  -23.3636 H   0  0  0  0  0  0  0  0  0  0  0  0
    4.9259    0.9117  -23.4813 H   0  0  0  0  0  0  0  0  0  0  0  0
    6.3588   -2.6513  -21.6215 H   0  0  0  0  0  0  0  0  0  0  0  0
    7.5005   -1.4280  -22.2747 H   0  0  0  0  0  0  0  0  0  0  0  0
    7.7671    0.8160  -20.7167 H   0  0  0  0  0  0  0  0  0  0  0  0
    6.4875    0.9696  -19.4655 H   0  0  0  0  0  0  0  0  0  0  0  0
    5.2733    7.4885  -22.6152 H   0  0  0  0  0  0  0  0  0  0  0  0
    4.7652    1.3329  -21.0929 H   0  0  0  0  0  0  0  0  0  0  0  0
    3.3923   -3.9898  -16.4306 H   0  0  0  0  0  0  0  0  0  0  0  0
    5.0440   -3.4386  -16.8716 H   0  0  0  0  0  0  0  0  0  0  0  0
    3.6689   -2.2840  -16.9206 H   0  0  0  0  0  0  0  0  0  0  0  0
    4.8609    3.7951  -16.6984 H   0  0  0  0  0  0  0  0  0  0  0  0
    6.2392    2.6936  -17.0349 H   0  0  0  0  0  0  0  0  0  0  0  0
    6.5142    4.4643  -16.9107 H   0  0  0  0  0  0  0  0  0  0  0  0
    7.3610    2.6480  -21.9846 H   0  0  0  0  0  0  0  0  0  0  0  0
    5.8467    2.8981  -22.9179 H   0  0  0  0  0  0  0  0  0  0  0  0
    6.6005    6.4795  -20.0467 H   0  0  0  0  0  0  0  0  0  0  0  0
    4.8619    6.2728  -20.4481 H   0  0  0  0  0  0  0  0  0  0  0  0
    7.2921    5.1471  -21.9227 H   0  0  0  0  0  0  0  0  0  0  0  0
    5.6474    5.1810  -22.6440 H   0  0  0  0  0  0  0  0  0  0  0  0
    4.0062   -4.7531  -18.7199 H   0  0  0  0  0  0  0  0  0  0  0  0
    2.6310   -3.5985  -18.7689 H   0  0  0  0  0  0  0  0  0  0  0  0
    4.3924   -3.2081  -20.5560 H   0  0  0  0  0  0  0  0  0  0  0  0
    4.0895   -1.7896  -19.4963 H   0  0  0  0  0  0  0  0  0  0  0  0
    3.6943    3.7530  -21.3190 H   0  0  0  0  0  0  0  0  0  0  0  0
    6.3253   -3.6180  -18.7571 H   0  0  0  0  0  0  0  0  0  0  0  0
    3.1258    3.7181  -17.6500 H   0  0  0  0  0  0  0  0  0  0  0  0
    2.3005    3.6492  -19.1712 H   0  0  0  0  0  0  0  0  0  0  0  0
  1 15  1  0  0  0  0
  1 24  1  0  0  0  0
  1 28  2  0  0  0  0
  2 23  1  0  0  0  0
  2 24  1  0  0  0  0
  2 27  2  0  0  0  0
  3 25  1  0  0  0  0
  3 26  1  0  0  0  0
  3 29  2  0  0  0  0
  4  5  1  0  0  0  0
  4  6  1  0  0  0  0
  5  8  1  0  0  0  0
  6  9  1  0  0  0  0
  7 10  1  0  0  0  0
  7 11  1  0  0  0  0
  8 13  1  0  0  0  0
  9 13  1  0  0  0  0
 10 14  1  0  0  0  0
 11 25  1  0  0  0  0
 12 14  1  0  0  0  0
 12 25  1  0  0  0  0
 13 19  1  0  0  0  0
 14 18  1  0  0  0  0
 15 18  1  0  0  0  0
 15 20  1  0  0  0  0
 15 23  1  0  0  0  0
 16 21  1  0  0  0  0
 17 24  1  0  0  0  0
 19 20  1  0  0  0  0
 21 22  1  0  0  0  0
 22 26  1  0  0  0  0
  4 30  1  0  0  0  0
  4 31  1  0  0  0  0
  5 32  1  0  0  0  0
  5 33  1  0  0  0  0
  6 34  1  0  0  0  0
  6 35  1  0  0  0  0
  7 36  1  0  0  0  0
  7 37  1  0  0  0  0
  8 38  1  0  0  0  0
  8 39  1  0  0  0  0
  9 40  1  0  0  0  0
  9 41  1  0  0  0  0
 10 42  1  0  0  0  0
 10 43  1  0  0  0  0
 11 44  1  0  0  0  0
 11 45  1  0  0  0  0
 12 46  1  0  0  0  0
 12 47  1  0  0  0  0
 13 48  1  0  0  0  0
 14 49  1  0  0  0  0
 16 50  1  0  0  0  0
 16 51  1  0  0  0  0
 16 52  1  0  0  0  0
 17 53  1  0  0  0  0
 17 54  1  0  0  0  0
 17 55  1  0  0  0  0
 18 56  1  0  0  0  0
 18 57  1  0  0  0  0
 19 58  1  0  0  0  0
 19 59  1  0  0  0  0
 20 60  1  0  0  0  0
 20 61  1  0  0  0  0
 21 62  1  0  0  0  0
 21 63  1  0  0  0  0
 22 64  1  0  0  0  0
 22 65  1  0  0  0  0
 23 66  1  0  0  0  0
 26 67  1  0  0  0  0
 27 68  1  0  0  0  0
 27 69  1  0  0  0  0
M  CHG  1  27   1
M  END
> <OMEGA_C>
KETSQKgab0BKIZ3BzZuJQObtb0BnMprBr7rVQLAs1L+VmZrBkOfaQL9uJkFNFbLBl1GtQODCIUGf
Ba7BBN3sQMx3E0F0i7jBBXKtQO6Ofr+BCLXBunCsQMMnDUFSW6fBmbHrQNpx/UDd9rHBk/W2QO2R
9T7Az7bBGArRQK+yyb93MK7BdBjXQKbMFD+uvaPBcKW9QDJk9EAg8a3BW+O4QIVJoT+LIazBRuS7
QL2CdEBO3KfBADJ+QG74VMDHuYjBnvW5QB3ha0Bx7onBvGnIQLYfK0DBZa/BF/O7QJY3zEAs7qbB
ytzGQBFnpECXnq3ByC5tQFA6bcCRf5TBL7WPQPEJNMC/RZzBZCuOQNtDcUCgP6XBY0WyQCm7dEAy
c5XBJDPRQOAuY79yzqPBjiC9QEwGM8BMMpnBq7pJQNnobEA3MpXBRgH5QGIjbEDcn5vBo3HxQHW1
sr8VAJTBRRzaQD20NEGyOrfBE+bvQIxxKUGZLqvBNW+iQDI0L0E5CanBtcCXQOvxH0Hb6rTBY4DZ
QBFTEUG50L/BBhYHQajzFkGHy7rBvZGOQLahjb9g57DBkDWsQJgtwr8xxbzBp3zAQGtLD0HnM6DB
C1CLQEnFCUH+6KTBC2n2QKKj4kDi/7bBN5sAQSpVAEECDKvBgPbVQO0LEz+v6LrBRaGdQPZmaT/B
2bvB7HrLQC6uKcDv+KzBPATwQBvItr+nMrLBZoz4QETlUD+6u6XBVpnPQMo0eD8/uZvBvb6oQHeh
70D/67TBJnyYQIacqj9AvqjBCBxZQPBYf8DOcYPBrGihQD8SXMD7+IbBks5qQL8sEsBMXYfBfoyb
QNzickBRloXBz6fHQHljLEBsR4jBanTQQOLbjkAISYfBFI3rQFJ4KUBq4K/BJxi7QOF5OUDdV7fB
XjfTQHhYz0CTX6DBoZSbQGy6yECilaPBIlnpQFC1pECyYa/BMbe0QBHLpUDkJrXBZjKAQK4ZmMBW
wpXBBWIoQNxNZsCmJpbBqI6MQFhRTcCdcqTBUd2CQNAS5b9m+JvBEW9sQMEwcEBAjarB1mjKQBSO
Z8CMDpbBSQ1IQMP1bUAyM43BhDsTQASNaUCqXpnBsYHTQEdcaEA0qZ3BmguLQMfpakBId5rBidLW
QGIc179WSZrBI7jKQEA2JUEIV7TBmLXqQFy5E0GRrrfBqRa+QB/QIkEpgqjBJk/HQIhjhb/ny7bB
zRbYQHyk+kBCp7XBlASsQEJzDEFtSqbB99m4QGC20T5e47fBEjO2QDpo0L+Le6zBIUXUQO0SBT8t
PqTB8LTLQABt9UCItqnBmXO4QBoEmj+YI63BiJW8QAlocUB9SKjBWOZdQKLKScDQRJfBymW8QBkv
a0AzZorBIO3HQITZKEAXIrDBYBq2QEFJykBKK6fBbgbJQMEcpEDCZK3BsZqMQHSRSMBBaI3B1le6
QGkDacAR64/B8veOQB3obkAth6XBHuGzQCF3YkA05JXB/BrLQEIhcb9JYKPBRoXLQO/DQcDRqpnB
jGRNQHN0bkB1S5XByEj6QHstbEDLPJzB3GfuQI4Smb+ud5PBN4LZQAcANUGci7XBf9StQDHqI0Fi
U7nBOOrxQOBzFUGIQMDBHyoEQYeWFUH7BLPBiYjaQChgJUFQfKPB6aalQHPZLkGiiKbB5Ri7QNPy
z7/Jm73B3nvqQL6air+oubbBcG+7QKs09kCQpLrBYCbwQKdh4kB+xLfBLpelQLbmCkFkrJ3Bh/2N
QMV4CkFixqrBdbDOQJhpaz91dL3BSz+YQIZD1T5SNLvBpV6TQEMovb8YEazBflu9QLEWLcC7LKzB
mU32QBEvKD8xNKbB+knNQFh1fz8Pg5zBot7oQJ5L+EBl1qTBQj6XQI8Xoj/SQ6rBpR8eQE4pMsAt
/5TBPM54QF5vIMDMi53BNnpYQGnUhcDjTJrBGE+eQPoLZECV64XBuBvTQK1cOUCX3YfBpizKQI9X
lUCHy4jB3P7qQD7VJkAD2bDBINe5QI8sOUB477fBMrG5QDLww0Bdj57BF+mTQAzczEBwKKnBRRzs
QE/xpkAyc63BUfi8QL39pECUqLXBlcSOQDd4BsBVbYrBJDV9QKyxccBrLofB7HTPQPEiWcCaKYnB
nGG5QOdul8B7/JDBK29tQArpb0DzvqrBvUzPQGJpZsBUKKDBRr5MQHgRa0BvTo3BxXcWQIuMdEB6
VJnBYGvVQDm+aUDCp53BI0GNQFd8Y0BmAprB5x/XQAK5ub8+2JrBrkzPQBaDIEEiH7fB3Ib2QMMx
F0EkS7HBAdSlQPgkHUEDn7DBYAyvQKQmYL9Kp7bBlE/vQOoS/0A0i67B3z6fQM5XBUFy3q3B+kO9
QKvXED/leLjBlaTMQGLuxr8SlK7BvqTVQFEWMD8gIaXBrXLGQJQ6+kCLp6fBO/K5QLLarT8O+a3B
dfi8QN/dd0AmB6jBODdYQKvWd8CeH43Bsj/AQAm1XUB4PYrBWljIQAoQNED0k7DBY/W/QAkizEAx
taPByMjFQMNMqUCJeKzBkFuKQCTTXMDVJJbBcui4QBHrXMC6IpLBk96PQLnscECc96TBCbi2QP13
XkBBvJXBxifPQI2gR78LgKTBBvbTQNBqNcBVSprBurNSQAtOXEDCtZTBFWn8QGUgakCQipzBLjLj
QNvlVr8z45LB2j3UQNHDMUF9WLjB3e3LQNmNGEHh7L7BrGIJQXieGEExf7bBwvn7QNo6IEGX3anB
WtynQJ5nJkGuJ6nBLWqKQDLLIkEjXbXBvhmOQKH5Yb+KjrPBHTywQCYjtr/pR77BwJfrQJOc7EBz
+rXB9IIFQe/o8kDJDKrBa2CCQOKIA0Fv6qjBBICbQM8l+EBxSrXB0qHeQPs6Ez83RrvBUJioQJL8
gz94i77BhkfAQCjZI8D4z6zBL+DsQGZV0b/uDbLBVZP3QJ6LYj/426bBESvNQPXZkD95XJ3B0F/K
QK9aB0GYkKDBkV6YQEQDsD+5VavBhuMVQImNd8C4EpDBXBlpQO9QnMDAZ4rBDDFeQPq/SsAYaIbB
Sn2iQDC9U0BctYXBfc7WQC6OKUDcd4jBYpvOQDuhjUD37IfBa1HrQATkM0Bgk7HBQhu5QBAwR0BK
JLjBHD/XQNLqxUBnS53B20+fQLtqyUDzfKDBmdTmQF6hqkDJe6/BY2evQKPIr0AcEbPBZkSHQIL5
hMCm2pzBP9CBQCARHMD+2pjBgyW7QIU5OMB6pYrBfHPDQH+Oj8A4tpDB5PFtQOAtdUD+9qnB5iXk
QPIFWsDMdJ/BmLhTQDUyUkC7z4zBV8YaQDLsYEBpjpjBdljUQCEDZkD7Jp7BCCuMQNWiZ0BBe5rB
BMzbQCwmu79NKZrBmK/GQJQEJkGamLLBYNrYQJkeFEGptbnB+DPRQOPIIUEfx6bBMb2pQKCnib8Q
/7TBQw7HQLl7/EBxWLbBT52/QNX8C0EgP6PBmDe2QEq2uD7wtLfBzUfLQAD917+mlq3BsWLWQAG2
Gj9pHqXB0sTQQFuL80CvaKrB0lu3QKyUmz/7dq3ByEG8QIG7cEBpo6jBFvtnQPT/fMA3yorBt+6+
QEHJWUDFvYrBAYrFQPX+KEA52LDBfu27QJXZyUAelqbBtz3IQCuVo0DVv63B8oSQQLnwYcBvJ5TB
3Aq/QCI/WcDsVJDBy/2OQOO2b0CDh6XB9pC1QElpZ0DyHpbBvPjQQAgxW78/4qPB07LYQIuBNcAR
/5jBq2pQQKNMY0A0JpXBSk37QONXY0AyBp3BRjbqQBBuTb86tZLBMtDUQIFlNUFLA7XB+b2jQLOy
JkGLmbPBhfrPQKg/F0GUFMLB/ez7QFTqE0EJ+LjBIiP0QEPxIUGOs6XBOLfCQNpqLkHl1aHBkWqK
QFc+ir9D+7DBwNKnQMtK1b8+Z7zBLjWkQIoq/ECZlbfBRPDVQMBm40DPRbvBNVbJQOv2CEHR7JrB
h3qcQKVKDEFewaPB7w3WQByxuz7HdbvBK5+eQNBiSD/xS73Bb9zAQIp8LMBFNavBKPbpQCCh4L88
3rHBOnD3QHtxTj9grafB2YbQQHm9ij/0VZ3BfqHzQC8s8UC8WKnBcwaXQPbwoT9ZAqrBpnElQOyS
gcBwj43B6CB+QIFyncALpIfBq2FrQJxnTMDWb4TBHB6hQCkiXkBaGIbBVzLNQG0HGkBjpInBAoTV
QGZ9hUD89IfBekLoQHGUJ0D6R7LBpdu0QEI3OUDkUrjBnXTGQGhEw0AfWp7BPPKYQOK4zUCDu6bB
tQDrQA9EpECIH6/BOW+3QLuapkDLcbXBkMeOQPBGicARgZrB8meFQHoQJMDcTJfBW1zAQAx5LsCc
WYnBapTLQJJLjMD9HI7B9FlsQFAfdEDSjKrBRP7nQOpYXMCPE57Br0hRQCtaX0BKKo3B5JMYQIfu
Y0C9DpnBwIXTQEnuakBVx53B0UeLQB/haUAlSZrBriPWQHIO2L9+XJrBCBfaQN29JkEo+LDB0Rmt
QCvIIUH7lqzBFx3rQFIzFEG04rfBmJjKQJ8Xg7/G/bbBYhKtQJavDEEUSqbBvarqQOby/UAfqbHB
N1K7QKcu1j4wEbjBOpy4QFsU0b8F3qzB6XLUQH7CBT8tO6TBCB69QKpP9EAxXq3BBCS5QLNWmT+e
Qq3BF7m7QHNZcUCgTqjBX9FbQAOvR8BsVpjBuIi9QOvYakC4aYrB3N7HQBUTKUA3HrDBqP27QHvf
ykBbwabBK1HFQIjAo0Dt5q3BuxGKQAhaScDxNI7BgQu4QLcXasBXYZDBHW2OQBlvbEAXXKXBRHi0
QAUAY0Bh4pXBkdzLQKYOcr9diaPBO77KQCNFQsA16pnB/nlOQIcwbUCf+pTB52T6QCX+bkD4jJzB
TrXsQDqemr/sT5PB6JPYQLhVNUHH37XBdgrwQNJRKUE+NqrBLfuiQLDbLkFNRafB2o+WQKp4IEE+
UbPBi9XWQAmUEkFRCL/BTBIGQaLOF0ECVrrBmZy/QBtxzb8J8b3ByMPtQPp5hb/JprbBhDXCQBNJ
DkFXTJ/ByU+MQCstCUEml6PBlbv0QCrf40BXArfB0oIAQaMXAEHd4qrBmHPRQDMVcz9Qbr3BJx6b
QLZL0T6NnrvBiqaVQF7TwL9YuKzBAXXAQIAhLcCHlazB4pf2QEqqLT8K+KXBTHTMQIItfT8shJzB
RVGnQKXR8EDJOLTBkZaXQAEbnj/EnarBf54bQEb0L8APR5bBYvR4QKonHcCYVJ7BPrhWQExhhMAq
opvB+cWfQPoKYkAm2IXB6t7UQN2tOUBcCojB08TKQOpalUDuv4jB9/rqQLwzKED1vLDBUv65QOco
OUCO87fBvEvUQJOyzED8Z6DBYh6cQL9Ex0BwIaPBI1PnQFFYpEAOK7DB1mqxQKUFpkB9I7XBsg6M
QOICCMAK+IrBQeF1QNCdc8CcRYjBG0HMQFAZW8BTbInBjAS3QG/ql8BBjpHBsaxrQCkia0AUeqrB
u4vPQOmTZsCAZKDBpt1OQE7MakAX/IzB1PsWQIkcckCo6pjBrkbZQP40cEAo7p7BpGGRQLezX0Cc
UJvBdvXBQOkKmb9F3JbBgA/SQHMpKUHaS63BIwyjQAPNIUG2Da7BeHPwQBSsGEECeLLB+UixQIeJ
mb8sM7TBvUWdQJ+aC0Ey66jBcLLqQB9WAkGtcq3BIaO9QMchgD7pe7fB2jmeQIckpL8By6jBHBbS
QK5+GD8OIKTBp1q7QEvl9UC4LK7BY1S7QO+onT/+7a3Bbg7BQKp2ckDVjKnBDjGcQGORn8BmBpLB
TbDEQPRiWUDTkYvBNUzOQCF7J0AEKrHBIP+0QEOIykB2jqjBN0LIQNIEpUB0Iq/Bshq5QDashMBy
nIrBDOKlQDL7L8DBf4jBiNuTQKkfakAIW6bBjHa6QG2UaUCz45bBDly8QOHTKL/VGKHBYqahQBIu
/r9UfZLBtJVbQGG5UEBwF5bBPBoAQUnHc0BNv53BKzXjQIP7fL+Q45HB64jVQOGTOEHZc7HBFLba
QIQdK0GB0qTBIZSOQF1pLUEz3anBiaCZQMv6IEHLhbbBn4npQGC0F0F0FbvBTtsIQcPsHUHKSbHB
K3OZQMBDyr8j6rnBOSXOQBT66b/khrTB/62kQKqtDEEjVaDBFMp3QG1rBkGY9qnB5gn/QDyf7UDl
u7HB8VL0QOj1AkE9/aTBI4DeQDrDez76orrBX3+nQB7hFz89wL3BmPF+QKh8P78EkajBlCeZQAiK
FcB7n6bBiZzzQKLawj6/LqbByAbRQM8hpj9dW53B8ZyyQMSM8kBsqLbBw3CZQA5tsD8W3KvB4OKq
QGAdv8B9WJPBuDt5QDCzo8BtRo7BbXOYQCIOj8B6vZnBeeqmQMAJV0Be4obBzJbVQDXnG0C32IrB
jjbZQCGPhkBFhYjBVGjxQIl0IkAqILHBljrDQH3oNkDGSrnBi7nEQIScy0A9sKDB0YSSQP7jxEA6
e6fBcdnqQM1UqkB4FLDB9Pa4QNRLpED5DrfB4828QFWClcBH8ILBdaPYQEfdgMBUZ47B/hOGQEt3
N8Cm2ITB/u66QN3ODMDx+4LBMLV1QLK0a0AiWKvBW8mFQKNSAsAgZ5bBA3ZcQJE2S0A9H47BVWck
QM7OSkBzE5rByprUQNUtcEAJqp7Bdx6NQCuaakAHX5rBZQC7QB5Fkb8UXpnB5zXIQJDVI0EhGrXB
Af6uQHADI0EWeKrBSofxQBSPFkHyWLTBwte2QOEZmL/d0LPB4O2vQC7BDEE3IqXBGB/oQHNY/UAf
JrLB3C+9QGZylD78vrbBwcnXQMwSzL9OVqvBwCDZQGHJNz9G0KPBdB27QCPN9UBuK63BxVS6QKh1
mz9fy6zBReC6QOc3c0BV/qjBC9C2QI1zisC5spPBYA7CQHvsZ0BpDIvBttjFQKdNKUDVwrDBeDm5
QMgSy0CmOafByTfCQKzQpED+ua7BYfaGQN7FgMBEdJXBOpd4QOPTIsCFbJPB8UKOQA+mbEAQeqXB
vee2QCm5ckCUYJbBpYHTQGEWOL86/aHBbceSQFvz2L+bLJvBLDNUQN2qY0CqtJTBQbj7QOV3b0AR
4Z3B8YjLQC1Jk79XeZDBXBW0QDRhHUFij7vB/YHQQGmONEFA5rbBiAO9QM21LkHq56TBXHyNQHxR
J0H/F6zBE4kBQSruF0El8rvB0KsCQcDpHEH3za3BHGGWQP/Hqr/hnrDBIx27QJOh57+q/7rBfRHI
QKzZDEGiup7BETyQQI9tCUGCr6HBLAnqQMq860D0wLnBeDoAQWME8UBwlqzBZePcQDqm0j7/cbrB
V0SkQNzTFT+ZfrzBezDSQHfRKMDv7ajBtTf4QKq7v7/Pq67Bh2X6QOB5aT+lO6bBlCHSQDB7oT+6
XZzBSSujQCO39UCcnrPB30+ZQDwjmz/BvqnBIe28QBWRrMA8PJXBzhbKQMnXbcCxNZnBEJW/QHjD
gsApZYvBQu6kQCidbEA8JIbBwOPQQEXKKECK3InBdLfYQKoijUAWp4jBZIHoQDsoK0DRR7LBBYC0
QECrNEAPSbjBrknRQLdHy0CEzaDBFCeZQI5Bx0D1uaPBVKfjQLdwpkCLcrHBMrisQKfLpkBOrbXB
Qgd9QP3HiMBQwp3BxgNoQJGflMDI8Y/BTywzQEMkGcCmP5TBLVKGQMJLEcAtR4vBp4BpQIIOakC0
S6rBTWmEQIHcwL+FKaLBH01XQE3bY0AUt4zBcY0bQCktXkBoXZjBJ/XQQK1hckD+/ZzBtG+KQPSN
W0BGzZjBJn3UQML7s78IMJzBChfdQMzBJkGy4bDBcrO1QMMoHUFZRqvBT87qQB/rGEF8d7rBmve5
QE5AML+Lw7jBbge+QMruBUFd0afBiAv0QCPiAUGG57bBEArHQLf8Rz/Ok7nBknvUQJkksr9aJLDB
7sXXQHqBSz/FvqXBwHDMQI0M8EBPgbHBANe9QPuVvD/34q7Bwie2QC1MeECgIKfBRu5cQLTJIsBk
2ZXBojO/QPf/YUDAdYnBRs/HQB97P0BRSbDBvqrXQFwAwkC7I67BjiSvQEwcq0C5VqrBSjCKQLQ/
c8D+O5TBmeq5QLxhXcAumZLBqsiLQFWKW0Dq1qPBzGy0QHlqXkBx2pTBv7bRQI7pLb8DxqXBZCzL
QLc8McDbDZzBgPhNQLd7WEBPR5PBWvL3QKpgeUCVQJzB7ybjQFk+Yb+1HJTB7TbVQM/vNkEUu7PB
Aa/3QPGoJ0FPIqvB9SeuQOjMJkGIKKTBNmOaQP18HUHH0rDB9fTQQIfJGEGJcMDBmvEDQTLGH0F7
DL7B09aXQKiXQL+Hq7bBvme/QBgvl799g8DBO1HXQDu/BUF4sqHBOXGgQPBh/kBCcqTBRrH8QGZ3
8EBf8L3BQ2oHQXTvAUHgMbHBQGjpQH+0WT+nZbvBiJi0QIeAoj9Y+b/BWnDIQH+0GsAgHK/B0yH2
QPletr8mtrLBn/T5QJ9xgj/i1qbBJvPMQA46mT+hA57BwSayQLbt7kCxWbfB55CbQJ/Yrj8JE63B
B7wZQJvANcCy+ZbBjTViQE6j8r/CxI7BiEFzQL+X/7/99JzBLCajQPdAT0BPsITBDM/ZQJLcNUD0
zIfBI8HIQLjKkUDpVIfBF7/qQOGiR0D+n7DBb4y5QAwnVUCv3LfBMkrlQHa7sECMArXBnzHvQPjU
wkDkmKfB4IGXQI8ErEAg27DBIn6iQJlsvEAoXKPBeR59QALyisCEJY3BOhWHQB4vjsC/VZvBlT+9
QFWRM8BjkYvBi/vLQFtvjMDgRpHBsr9nQJ29SkBtuajBIXfQQHtfU8DKsKLBgx9QQPb4V0CISIvB
D4oVQJGkVkCgC5fB43LWQCMGXkD2gZrBdC+NQGPZUkC+AJnBQe7GQI8Kj7+djZ3BEjfQQMyNJEF7
07rBYSr2QEtkFkE3TbfBiEOqQEt+IkHN/7LB+uSsQHtSqr5rNbnBvmfoQDOq/UDmBLbBoUacQCf3
CkH34bHBIuy8QNX5kD+l17nBvKjJQD5Kmb+Q3rHB2YThQGQoWD9eI6jBQB3CQGen+UCrKa7BDxnB
QPVT3D9Fa67Bg8HCQONPgUAisaTBa+thQKS9QcCAA4PBMdO5QDtTE0DN/YnB0eDOQB8CTkB47q7B
pBSzQKe2ykBfTK3BKJbQQNfYsEADuKXBsAN4QDHhEMDWWY3Bx5mhQH60PMAkK5PBS16UQH3OfEC/
pKLBMci0QHK+O0CojZTBc6XQQKAzBb9We6fBDbGsQG+YD8DnIp3ByFtOQDgFQ0B3B5XBMsb8QCGW
WUAOb5jB8kzXQAJMMr97RZXBy7LaQCBZNUH5EbvBCMHFQFqSH0HJ2cLBu8kHQQdeF0EqX73BYzkB
QX5IHEFKma/B8vazQMyXKEHiG6vBhjSPQPn7K0GZBrbBCxaMQL7hrL5BBbbBaPisQPfgQ7/ITMHB
UubeQK708EC6373BTsUBQZ0I60C05rLB6EqCQDHoCUE5+KvBzL+QQCooBUF8rLnBQ1XcQDsMlD9A
z73Bk/SlQDTU3T/qd77BIAm6QCy6CsD1d7DBSLfoQN31rb8MzrXBbjwAQf5AVj/7U6zBjNTlQNwg
oD9qCKDBSIHMQLVHAkGUNabBjMWhQPNf1D/Fb6rBLkAsQB3VIcCb5X3BKbdPQFfsgcBQAoXBIgON
QJd3QsDHZXvBWmuaQEib+z/lEIfB/23PQF0HuD+RrIrBLmjHQC3zQUDrVoTBms/xQJ2vUED29a/B
tzW/QBfDa0D14LXBujWSQGcKykCmJ6rBEbazQGQHvEBgS7XB6rXPQJulv0DIvJ3BznLxQIL8sUAQ
3KjBIb8/QDspEMCLo5LBHweFQEiQnb8fVIvBiqu9QNQMPcDP243BQoiYQNTyfsDdGZXBLAp7QKjO
iUD3dqfBKbOgQPn5JcBqAaTBPcZIQI1TI0A5HY7BcPUZQMyjVkC06ZjBhtHUQLfVYUCQnprB23SL
QEMtWUBjJJnB0WHEQDjwjL8z/ZzB6pPSQLsgJEFnCbzBHgP4QM3PFUFbVLjBWXWsQMGzIkG8ObTB
Ab6qQKIurL7p8LjB/XfpQIbZ/EBV0rbB3q6dQIRYC0Gx4bLBABO7QPj8jz/Ir7nBMY3GQNbXmL8Q
T7HBMa3dQJGUXT+3v6fBXf/CQEob+kBI/K7B52O+QOjk3j/sVq7BNIHBQKSVgkBU66TBok1IQCYs
bMD16pfBHWm3QB8PHUB2y4nBXj/NQOKPTkClBa/B8CizQC2Dy0BF563B+SXQQHjGsUDeLabBuHKB
QAH2QsAVb4/BdBSxQIBzS8AUgZLBxxGTQC2TgEBS5KLBXtGyQH0bQkDHj5TBrFbMQAT++75D+qbB
BtC6QJhuHcBrfpzBR45KQMwRS0DVK5XBBxf7QJw8XEChhpjBg2rGQCbs5771ppTB2pvdQDvSNEE8
crzB3BDIQGXlHkFzBMTBhsUIQYVVFkHKYb7B6i4CQeLqG0H8rLDBykC2QEcLKUHyY6zB/8GRQLVJ
LEGoX7fBx6CJQAH6p74h9bXBp4arQIcvSb9X+MDBR+DfQP+n70Cinr7BCiACQTsK6kDZlLPB8ZeD
QFa+CkFX+6zBixCSQMRQBUE1n7rBztLaQH89kT9ZfL3B852kQCHq2z8qhr7BkKG2QJMuCsAP5a/B
CgfmQBsPr7/V/rTBmwf9QIxLVj8XvqvBYVfhQKsMpT8vrp/BbHPNQFe8AkHPE6fBuKaeQE+t2j8g
i6rBMwwFQC72ZMB4epXBikVSQIdhTMB/q5/BgsxXQE9LmMAcqZjBM9aXQD0KCUD60IbBz8nMQGdp
yj8MKYrBFQ3FQKI+TUBFXITBsDnwQNyET0CAALDB0BW+QDURbEA0DrbBQkCSQKejy0DWx6rBnZ+z
QB4xvEBH07XB7HXPQPc7wUBtRp7B2wzxQGIZskBBTqnBVb5yQBhd/b+tto7BTEV4QKPjYsBKtIfB
qsvEQDPRMMDJBIzBlMe4QEPOh8DakpPBMuh4QLrji0BGy6fBioi6QPifPsBaVaPBCk9EQCPqLECB
KI7B1Y0WQHd2XkCvJ5nB

> <OMEGA_E>
gOHEPuzRyz6sRfg+RPH4Poj2wz6wdzA/xJ0VP3hEAz8saVw/NBJcPw==

> <OMEGA_NBR>
     63784

$$$$
50253511
  -OEChem-04172616093D

 70 72  0     1  0  0  0  0  0999 V2000
    6.6585    3.6599  -19.7473 C   0  0  0  0  0  0  0  0  0  0  0  0
    4.4104    3.5933  -19.2463 C   0  0  0  0  0  0  0  0  0  0  0  0
    6.3991   -1.4636  -19.3943 C   0  0  0  0  0  0  0  0  0  0  0  0
    6.8512   10.3595  -22.1183 C   0  0  0  0  0  0  0  0  0  0  0  0
    5.4854   10.1156  -21.4508 C   0  0  0  0  0  0  0  0  0  0  0  0
    7.2174    9.2036  -23.0651 C   0  0  0  0  0  0  0  0  0  0  0  0
    7.0683   -1.1015  -22.5297 C   0  0  0  0  0  0  0  0  0  0  0  0
    5.4782    8.7782  -20.6956 C   0  0  0  0  0  0  0  0  0  0  0  0
    7.2028    7.8568  -22.3252 C   0  0  0  0  0  0  0  0  0  0  0  0
    6.8867    0.3919  -22.8164 C   0  0  0  0  0  0  0  0  0  0  0  0
    5.8208   -1.6092  -21.8068 C   0  0  0  0  0  0  0  0  0  0  0  0
    5.5243    0.5627  -20.6478 C   0  0  0  0  0  0  0  0  0  0  0  0
    5.8272    7.6141  -21.6443 C   0  0  0  0  0  0  0  0  0  0  0  0
    6.6238    1.2255  -21.5289 C   0  0  2  0  0  0  0  0  0  0  0  0
    5.8710    3.7331  -21.0448 C   0  0  2  0  0  0  0  0  0  0  0  0
    2.5794   -3.1658  -17.8779 C   0  0  0  0  0  0  0  0  0  0  0  0
    6.0334    3.6748  -17.3011 C   0  0  0  0  0  0  0  0  0  0  0  0
    6.2885   -2.9833  -19.0679 C   0  0  0  0  0  0  0  0  0  0  0  0
    6.2563    2.6368  -22.0637 C   0  0  0  0  0  0  0  0  0  0  0  0
    5.8075    6.3075  -20.8313 C   0  0  0  0  0  0  0  0  0  0  0  0
    6.0740    5.0964  -21.7444 C   0  0  0  0  0  0  0  0  0  0  0  0
    3.7422   -2.9086  -18.8402 C   0  0  0  0  0  0  0  0  0  0  0  0
    5.0787   -3.2689  -18.1547 C   0  0  0  0  0  0  0  0  0  0  0  0
    4.4730    3.5825  -20.6326 N   0  0  0  0  0  0  0  0  0  0  0  0
    5.7156    3.5560  -18.7288 N   0  0  0  0  0  0  0  0  0  0  0  0
    5.7689   -0.9004  -20.5245 N   0  0  0  0  0  0  0  0  0  0  0  0
    3.2970    3.6084  -18.5592 N   0  3  0  0  0  0  0  0  0  0  0  0
    7.8761    3.7396  -19.6294 O   0  0  0  0  0  0  0  0  0  0  0  0
    6.8572   -0.7353  -18.5212 O   0  0  0  0  0  0  0  0  0  0  0  0
    6.8079   11.2959  -22.6939 H   0  0  0  0  0  0  0  0  0  0  0  0
    7.6225   10.4438  -21.3386 H   0  0  0  0  0  0  0  0  0  0  0  0
    5.2797   10.9311  -20.7419 H   0  0  0  0  0  0  0  0  0  0  0  0
    4.7040   10.0968  -22.2248 H   0  0  0  0  0  0  0  0  0  0  0  0
    6.4889    9.1691  -23.8886 H   0  0  0  0  0  0  0  0  0  0  0  0
    8.2239    9.3785  -23.4730 H   0  0  0  0  0  0  0  0  0  0  0  0
    7.1980   -1.6483  -23.4753 H   0  0  0  0  0  0  0  0  0  0  0  0
    7.9533   -1.2529  -21.8942 H   0  0  0  0  0  0  0  0  0  0  0  0
    6.2202    8.8177  -19.8845 H   0  0  0  0  0  0  0  0  0  0  0  0
    4.4781    8.6095  -20.2698 H   0  0  0  0  0  0  0  0  0  0  0  0
    7.3960    7.0479  -23.0452 H   0  0  0  0  0  0  0  0  0  0  0  0
    7.9897    7.8593  -21.5566 H   0  0  0  0  0  0  0  0  0  0  0  0
    7.7993    0.7704  -23.2999 H   0  0  0  0  0  0  0  0  0  0  0  0
    6.0318    0.5176  -23.4971 H   0  0  0  0  0  0  0  0  0  0  0  0
    4.9211   -1.3889  -22.4001 H   0  0  0  0  0  0  0  0  0  0  0  0
    5.8931   -2.6940  -21.6393 H   0  0  0  0  0  0  0  0  0  0  0  0
    5.5391    1.0180  -19.6466 H   0  0  0  0  0  0  0  0  0  0  0  0
    4.5404    0.7277  -21.1112 H   0  0  0  0  0  0  0  0  0  0  0  0
    5.0561    7.5543  -22.4265 H   0  0  0  0  0  0  0  0  0  0  0  0
    7.5559    1.2926  -20.9486 H   0  0  0  0  0  0  0  0  0  0  0  0
    1.6306   -2.9077  -18.3710 H   0  0  0  0  0  0  0  0  0  0  0  0
    2.5673   -4.2283  -17.5933 H   0  0  0  0  0  0  0  0  0  0  0  0
    2.7049   -2.5465  -16.9775 H   0  0  0  0  0  0  0  0  0  0  0  0
    5.1141    3.5545  -16.7091 H   0  0  0  0  0  0  0  0  0  0  0  0
    6.7552    2.8937  -17.0201 H   0  0  0  0  0  0  0  0  0  0  0  0
    6.4694    4.6652  -17.1039 H   0  0  0  0  0  0  0  0  0  0  0  0
    6.1704   -3.5446  -20.0066 H   0  0  0  0  0  0  0  0  0  0  0  0
    7.2076   -3.3091  -18.5590 H   0  0  0  0  0  0  0  0  0  0  0  0
    7.1256    3.0074  -22.6267 H   0  0  0  0  0  0  0  0  0  0  0  0
    5.4028    2.5133  -22.7465 H   0  0  0  0  0  0  0  0  0  0  0  0
    6.5856    6.3531  -20.0551 H   0  0  0  0  0  0  0  0  0  0  0  0
    4.8221    6.1922  -20.3562 H   0  0  0  0  0  0  0  0  0  0  0  0
    7.1131    5.1524  -22.1008 H   0  0  0  0  0  0  0  0  0  0  0  0
    5.3885    5.1515  -22.6029 H   0  0  0  0  0  0  0  0  0  0  0  0
    3.6149   -3.5278  -19.7403 H   0  0  0  0  0  0  0  0  0  0  0  0
    3.7525   -1.8460  -19.1245 H   0  0  0  0  0  0  0  0  0  0  0  0
    5.0704   -4.3388  -17.8995 H   0  0  0  0  0  0  0  0  0  0  0  0
    5.1787   -2.6734  -17.2352 H   0  0  0  0  0  0  0  0  0  0  0  0
    3.6917    3.4875  -21.2494 H   0  0  0  0  0  0  0  0  0  0  0  0
    3.3260    3.5929  -17.5598 H   0  0  0  0  0  0  0  0  0  0  0  0
    2.4171    3.6354  -19.0336 H   0  0  0  0  0  0  0  0  0  0  0  0
  1 15  1  0  0  0  0
  1 25  1  0  0  0  0
  1 28  2  0  0  0  0
  2 24  1  0  0  0  0
  2 25  1  0  0  0  0
  2 27  2  0  0  0  0
  3 18  1  0  0  0  0
  3 26  1  0  0  0  0
  3 29  2  0  0  0  0
  4  5  1  0  0  0  0
  4  6  1  0  0  0  0
  5  8  1  0  0  0  0
  6  9  1  0  0  0  0
  7 10  1  0  0  0  0
  7 11  1  0  0  0  0
  8 13  1  0  0  0  0
  9 13  1  0  0  0  0
 10 14  1  0  0  0  0
 11 26  1  0  0  0  0
 12 14  1  0  0  0  0
 12 26  1  0  0  0  0
 13 20  1  0  0  0  0
 14 19  1  0  0  0  0
 15 19  1  0  0  0  0
 15 21  1  0  0  0  0
 15 24  1  0  0  0  0
 16 22  1  0  0  0  0
 17 25  1  0  0  0  0
 18 23  1  0  0  0  0
 20 21  1  0  0  0  0
 22 23  1  0  0  0  0
  4 30  1  0  0  0  0
  4 31  1  0  0  0  0
  5 32  1  0  0  0  0
  5 33  1  0  0  0  0
  6 34  1  0  0  0  0
  6 35  1  0  0  0  0
  7 36  1  0  0  0  0
  7 37  1  0  0  0  0
  8 38  1  0  0  0  0
  8 39  1  0  0  0  0
  9 40  1  0  0  0  0
  9 41  1  0  0  0  0
 10 42  1  0  0  0  0
 10 43  1  0  0  0  0
 11 44  1  0  0  0  0
 11 45  1  0  0  0  0
 12 46  1  0  0  0  0
 12 47  1  0  0  0  0
 13 48  1  0  0  0  0
 14 49  1  0  0  0  0
 16 50  1  0  0  0  0
 16 51  1  0  0  0  0
 16 52  1  0  0  0  0
 17 53  1  0  0  0  0
 17 54  1  0  0  0  0
 17 55  1  0  0  0  0
 18 56  1  0  0  0  0
 18 57  1  0  0  0  0
 19 58  1  0  0  0  0
 19 59  1  0  0  0  0
 20 60  1  0  0  0  0
 20 61  1  0  0  0  0
 21 62  1  0  0  0  0
 21 63  1  0  0  0  0
 22 64  1  0  0  0  0
 22 65  1  0  0  0  0
 23 66  1  0  0  0  0
 23 67  1  0  0  0  0
 24 68  1  0  0  0  0
 27 69  1  0  0  0  0
 27 70  1  0  0  0  0
M  CHG  1  27   1
M  END
> <OMEGA_C>
ZhLVQBg8akB/+p3B8yGNQL74ZUBg+JnBKcXMQEhWu7+OJ5vBwzzbQJvAJUE58rDBeoivQFTZIUE9
m6vBRfXmQPZBE0FXhbjBkC/iQLr+jL/NPLTBb02vQJNzDEGekKXB9HzmQIBq+0D7mbLBqV/cQPii
yD7jh7bBKUS6QKL5zb9WdK7BL8ewQIMKED+zLqXBHXi6QPKm80CSJ63Bj/bTQJXbnD8pO6zBQ9+7
QKzrbkDHW6jBAhUlQBqdSsDXBY/BThHBQHYva0C9aIrBODvJQKbtPsAki5jBojPIQJzAKECDgrDB
SNe5QFjXyUBnpqbBG17CQLsVo0Cc9K3Bnn9vQA4mOsCkuJbBcYSiQEo1UcDKPJHBICOPQEhIZUB3
D6XBFOa2QIqVY0CI1JXBkJq4QNyAZr8/MqTBlgJTQCbwZkBXeZTB3Qj8QORUb0AACZ3Bbm7bQGQ6
PL9kK5TBNtrZQOS7NEEqjbXBdOvzQL0ZJ0FdtarBqPOoQMPlLkFS76XBY4eWQHCMIUFozLHBeaXP
QKu0EkHRG7/BNZUDQUIOFkHFyLvBUVbmQPX50r9/zbvB04H+QMteoL9qJ6/BqgvHQDoVDUFwE5/B
h0yPQHLACUGSKKLBPKzsQMiI4UCoXLjB26v/QB9/+0D/c6zBnZP5QHk7RT9IZrrBoQTBQNWDBD8F
+rvBwnmdQJLGsb9kM7PB35O8QMBpLMBYHa3BIECxQDpPgj88LJ3BUUuRQOhLOj/G46jBUcuhQLu8
8UCDabPBI8rxQDJ1pT/ClqfBBrnQPzgXOsDR95LBYE8kQHVOh8ARv4zB/BwtQAf6IsDc0YfBxKaj
QPR8Y0BArIXBTCrYQAUzOUAkKYjBrgXPQC1JlUC11IjB/nPFQOvZYsBvDaDBgqTmQODIU8DEeJTB
4wTkQIt5QEB7A7XBYOOsQF3aIEDl+LXBn73SQJhMy0DJcKDBtE6aQGYmxkCT2aLB4p7jQA/gpECE
zrDBMG6sQOnYpEDM0rTBOltnQPnHYcA57J3B1ihwQC1K7L8D/5jB1UCiQMjXisA0Mo/By7elQCkZ
K8C64YnB9ERsQHQzX0DD/qnBFd1UQLvyZUByeozB/LEaQKqqaEDRRJjBTqnTQP4dbEA0tJ3BwGmL
QCLUaUAuCJrBEFLDQIK2ir85iJrB1ETeQF8TJUHPmrHB6zOzQFsHIkHz0qvBjV3nQPNZEkEdP7nB
DWHkQJzhh7+3prLBC4SyQLHLDEEQr6XB93HmQMXb+UBkQrPBRkDfQC2u1T5iuLXBmny6QBgyyL9d
xK3BbuqoQD+ALj+oyKbBLTG7QGDY80BNSq3BZhnRQCNRpD9KCqzBgmO7QApbcUDCQajBKh2CQCHR
esDzCYbBik++QKJQZUBwPIrBuqu/QLM1IsBp0ZbBYRfJQMJcLEB5cbDBg1S6QJ6eykDroKbBlbTC
QATXo0A71a3BJjiGQAfnh8C0ApLBnZmQQB9pP8A7b5jBXEiOQBrVaEAWJaXBT820QNyPbkCErpXB
UrGxQKhjOL8DZKTBb/hOQAeEZkApq5TBVZ/6QDq+a0AzjpzBR1fRQAGHd741TpTBPEXdQHkMNEEe
ObbBVwT4QJn9JUEun6vB+GauQHVJL0GPKabB5juZQJoJIkHBw7HB5eTOQCIkEkE5kr/BIZIDQTGP
FEEm3rzBVQHsQIVe07+t1LnBR2P+QBw9lb/Tx6zBJFHLQLQhDUH/cJ/BUu2SQJOwCkFg8qHBJZvq
QJii30BrCbnBr10AQVgo+UDMaK3BYhP+QIpRSz/ltrjB1fnGQGOV/z4hD7zBV1WgQKy9vL/7nLPB
/dK9QOtgJ8COUKvBs4ahQCOQnD+eWZ/BopeNQJmAQT/ETKzBMF2hQJJu8kA3QrPBnzTrQGy/qD/S
JKbB40Z1QIHMmsA5koHBV3egQFLtX8DPHIPBPJpQQOPhS8CK3YTBC26gQGGaaUCZnYXBRG/NQBLK
JkAbzYjBPTTUQIdPjEA5t4fBmTLVQGTmSsCckpvBZFTIQNzrJsALT47BCuHmQPBIQkBpP7TBjbOv
QCKgJ0BsgrbBPDfTQB5GzEAua6DBKcWaQPQ7x0AN06LBdyHkQOInpUB7krDBByutQE/IpUDJxrTB
5P2fQBh0n8AjIpPBVadPQGFulcDe4pTBq0h2QI6MC8C+25XBxl2LQAfHTMCK+aDBWDprQEM4Y0Ao
MarBlthPQCBCZ0B9q4zBUTAXQOE9Y0CvkZjB11HUQMquaUCw/pzBw8uLQCoOZ0CVupnB3wDHQNsV
mL/MhpzBVBjRQAsAH0HxG7jBo6X3QMWxFUHpAbLBVVynQL2zHEF0m7HBppLjQHbddb93L7TBoyjv
QCTB/EBqz67BNlufQHw0BUGSda7B8BjhQPzODj9EOLbB43i4QBG0uL+NwK/BjG2qQBdWOD8rG6fB
WcfFQAeq+UBb/qfBFLTSQBZPrj/TL6zBytW8QJX8dUCPkafB+pVaQAZ5gcD6oIbByk69QLaFY0Cq
qonBAgrEQDOPKsCebJnBdt7KQAPsM0D1GrDBy629QM0YzEB8uaPBH23EQEdfqEC2KqzB6GmXQLmG
gcAQ4IzB6QyXQDjlOMBj1ZTBw4mPQNcKbECsyqTB3dW0QEbcYECSNZXBfReyQGn1N7/2taXBO8RO
QFLrZUATkZTBNin7QPu7a0Cqn5vBmN7TQKjhz76orpXBRPHWQI0QMEEGsbnBKILNQPhsFkHevb/B
EBEKQfhbFkGNKrfBa0f9QIE/H0GNwKrBd9OpQLVvJkE7TarB51yMQNdrIkHvebbBx5LqQLGqvb/l
u7vBoAv9QPgKlr9lWq7BE2rrQIA86UDKErbB3DAFQXy48EC7HKrBXDCCQHgmBEGsj6nBkGSbQLT3
9kBVurXBF3gAQQbKaT/oqrjBzgzKQKDDPT8StbzB6o6eQHUsm78harXBYGC5QAy8IcBnR67BYRmk
QE50lz9cSJ/BPLSOQGuSXz9VY6zBCuTJQONqB0HpCaHBK9DsQHZ5rj/wSKbBZoRaQOQXnMAO34DB
FuhTQHH+RcAbToLBhMMkQLBHhcCMOIzBLiGfQFwAW0CGQ4XBpqPTQLDgL0DIhYfBoITLQOrXkEBj
j4fBLOjIQPEfU8BIg6DB2V7cQHfxOcDjXJPBEdjoQIUeS0CNsbPBh8CxQJ2PMUB5Q7bBFbPTQHJC
xkAeBJ3BK3ScQF9UykAn2qDB/3jlQMVJqkDbKK/BZfytQLWjrUBQ0bLBvV+yQN5Ze8DFTIfBdM2a
QGf1n8A2N5HBoWeMQF2z/L8LvJDBHNiAQE3WR8CpZpvB65duQKdLaUCuAKrB4TVOQHotYEBpmYzB
7KcXQNnKakCZlpjBHkDUQB7WakC5Yp3BDd6LQM5takDHAZrBY4C7QHlUpr/jUpvBwRrLQDINIkHG
3LbBI0n0QE8vFUEZsLTBIsWqQMYhIEF9lK3BJuTlQO6dgb9+mrLB1erpQOGQ+0AX+bHBou6gQJuF
CEF8B6vBAjbiQMw09j55S7XBLN+5QE+5wr9LIK/BcfSnQB+1Kj8P/abBhuDKQKey+UBrUajBxzDR
QJXppz/dt6vBr6G8QMh3dUA396fB0yw+QKgwVsAtAJfBvb69QJ4sYkB5CIrBsIa+QBZ1NcACQ5nB
lCDKQNoiMEBdKbDBI13CQAHpy0AMN6TBvEPEQFMFqECD06zBU9Z0QDY1OMAEco3BxkCqQKY3UcAW
hI7BgG+PQOqcbEAHFaXBCPu0QHrbbEDre5XBVJKuQPHeSb/EU6XBix1PQHLiZkDi0ZTBXSr7QObp
akD+GpzBX83FQJR9CL9wGpTB+Y/TQLMAM0FN7bfBThy8QE37G0EUOb7BnVcEQUKjFUEi27vBirgC
QbJ2HEGe663BeEi4QA3RJ0GPa6bB/+SMQKBDKEHk16/BC63wQAutyL/AtLnB+gT9QKu3k78bEazB
AtnaQO4u7EAl77jB+dUDQT2Y6kBa8q/B4AeLQB+iB0GIJ6TBd+eRQKnsAEGPBbLBzgQBQXXSWz+0
h7fBrSXMQD/MGT+HFbzBchiiQGmRqb//a7XB3za7QMN/JsBJgK3BY2ygQE8skj9GR5/BCTGNQHzJ
UT+SkqzBRhzaQA64BUGCvaHBLOfpQJperD8wdaXBiIv2P3+bQsB1xZXBT65WQCkPOcA4Z57B8JFB
QHUojsBhppfBjJqfQD5rZkDdhIXB8YjMQGVAI0Afp4jBnq7TQB5rikDHVofBseytQGP8VsDayp/B
qH3gQPTwR8ADOZnB4k3oQA4VRUDX27PBzAGxQF+SLEBYT7bBMG7aQFyUxEBtD57BT0SiQKZfy0DW
mqDBIf/jQD2bqEDcobDB+YGrQJxCrkBi4rLBf05wQM845L+524zBIDJbQCleVcDiGobBIOqsQM+Y
i8CP0Y3B7SS8QKm1MsCA94fBTihuQMXCaECUP6rBwdlOQLqnZUBH0ozBydwXQH1nZUBP2pjB83TR
QBQsaUAWq57BL8uJQFCRa0CQYZrB2RGRQKYE6b+WjaPBIWnfQLEkJkH07K/Bn3mxQERBIkEg66vB
uGbuQIDXE0HkRrfBLw7kQDRDkr/OoLHBCB+uQIeXDEF1LabBeOPqQCUc/EAWnrHBxBTSQO6xXz4X
lbXBF7/dQJIZqb+2fKXBWwmpQGhDFD8uZaTBOZK8QGNj9EBalq3BMBDLQBNDmj/iKKzBO6G3QMS+
b0B/AanB5INAQKJFhsA8UYjBC6i+QN6TakAbAovBMpNKQJGBwb8npp7BZK+/QJ9/JUC5BLHBQry4
QHsiykCDWafBOdXAQJkIo0DWqa7BlZtpQPgNScCIe4/BdzIpQKAQLsAaQpjBhwWLQIyDbECseKXB
1q2zQEz+ZEDKZ5bB2g6yQEwOYb95EqPB1RNNQBSvbkCRwZTBjIf4QJjta0BW0Z3BJwuYQGDxPMC3
+abBTFrgQG9HNUEGabTBYwv1QFYwJ0HmAKnBrZCoQAAVL0HfUabBz3ebQMNfIkFJybLBpFnaQJGf
E0FBgr7BafoHQUCfFkEPi7nBflzTQPFe+r9V1bXBuzoDQQgxmL/Rc7PB4KDCQMLWDEG7Bp/BhbGM
QCLlCUHSxaPBjqfzQLWZ4kB7RbfB4XUAQQiK+0CJwarBgOXoQCWeKT+hQ7vB4k6zQLHnOz0qoLnB
hcrhQHwyGMAoRaPBDgn1QNw1Nb8DE6HBs9uqQLH5iT+skJzBa9CIQLShNj9MxafBTAinQE8l80Bm
irTBS2XpQFPGpj+Cw6fBeCluQCPvj8CFEYLBs8AGQDXHccCBj4TBDvguQIVVosDrJ43BOlehQNeJ
ZUCYLYbB6ovUQDIVNkAT54jBMlLOQFEmlED8ZonBBnxQQMV0Jb+ORJnBFgUdQJJco7+cFqXBMEra
QMGwOEDmQbbBWniiQPF3HUDM0rXB8WjQQD8JykBh1qDBR1iYQF3Cx0DJ9KPBnYPiQL9qo0D7N7HB
+firQM+ZpUD3uLXBNCV7QNTkEMBsporBR66RQKnIY8DWPpPBxBLYP1zeHMCUd5TBcTIfQGgbZMD2
wZ3Bv/RiQGoya0CNSarBxMRPQNhabEC8xIzBd3kUQEhlc0BgcZjB

> <OMEGA_E>
sE7kPkzQCT9ApRA/7HERP4L1JD8=

> <OMEGA_NBR>
     69600

$$$$
50253515
  -OEChem-04172616093D

 72 74  0     1  0  0  0  0  0999 V2000
    6.5972    3.6910  -19.6239 C   0  0  0  0  0  0  0  0  0  0  0  0
    4.3239    3.6566  -19.2637 C   0  0  0  0  0  0  0  0  0  0  0  0
    6.8619   10.3547  -22.2671 C   0  0  0  0  0  0  0  0  0  0  0  0
    5.4427   10.0794  -21.7357 C   0  0  0  0  0  0  0  0  0  0  0  0
    7.3935    9.1627  -23.0830 C   0  0  0  0  0  0  0  0  0  0  0  0
    5.5670   -0.9642  -22.7393 C   0  0  0  0  0  0  0  0  0  0  0  0
    5.4140    8.7955  -20.8968 C   0  0  0  0  0  0  0  0  0  0  0  0
    7.3624    7.8721  -22.2534 C   0  0  0  0  0  0  0  0  0  0  0  0
    5.9076    0.4986  -22.9252 C   0  0  0  0  0  0  0  0  0  0  0  0
    6.5087   -1.5370  -21.6990 C   0  0  0  0  0  0  0  0  0  0  0  0
    6.5816    0.5909  -20.4527 C   0  0  0  0  0  0  0  0  0  0  0  0
    5.9301    7.6031  -21.7203 C   0  0  0  0  0  0  0  0  0  0  0  0
    5.7803    1.2716  -21.5975 C   0  0  1  0  0  0  0  0  0  0  0  0
    5.8971    3.7958  -20.9654 C   0  0  2  0  0  0  0  0  0  0  0  0
    3.1599   -3.4033  -17.6518 C   0  0  0  0  0  0  0  0  0  0  0  0
    5.8299    3.6690  -17.2255 C   0  0  0  0  0  0  0  0  0  0  0  0
    6.3124    2.6770  -21.9277 C   0  0  0  0  0  0  0  0  0  0  0  0
    5.8841    6.3540  -20.8338 C   0  0  0  0  0  0  0  0  0  0  0  0
    6.2288    5.1180  -21.6720 C   0  0  0  0  0  0  0  0  0  0  0  0
    4.6734   -3.1839  -17.7283 C   0  0  0  0  0  0  0  0  0  0  0  0
    5.1741   -3.4080  -19.1629 C   0  0  0  0  0  0  0  0  0  0  0  0
    6.6828   -3.0824  -19.2551 C   0  0  0  0  0  0  0  0  0  0  0  0
    6.9680   -1.5543  -19.2766 C   0  0  0  0  0  0  0  0  0  0  0  0
    4.4686    3.7276  -20.6431 N   0  0  0  0  0  0  0  0  0  0  0  0
    5.5941    3.5739  -18.6704 N   0  0  0  0  0  0  0  0  0  0  0  0
    3.1737    3.6630  -18.6405 N   0  3  0  0  0  0  0  0  0  0  0  0
    6.2765   -0.8660  -20.3960 N   0  3  2  0  0  0  0  0  0  0  0  0
    7.8074    3.7218  -19.4297 O   0  0  0  0  0  0  0  0  0  0  0  0
    6.8372   11.2468  -22.9101 H   0  0  0  0  0  0  0  0  0  0  0  0
    7.5348   10.5349  -21.4157 H   0  0  0  0  0  0  0  0  0  0  0  0
    5.1212   10.9257  -21.1108 H   0  0  0  0  0  0  0  0  0  0  0  0
    4.7542    9.9696  -22.5865 H   0  0  0  0  0  0  0  0  0  0  0  0
    6.7669    9.0308  -23.9774 H   0  0  0  0  0  0  0  0  0  0  0  0
    8.4298    9.3693  -23.3885 H   0  0  0  0  0  0  0  0  0  0  0  0
    4.5267   -1.0644  -22.3964 H   0  0  0  0  0  0  0  0  0  0  0  0
    5.6925   -1.5004  -23.6916 H   0  0  0  0  0  0  0  0  0  0  0  0
    6.0528    8.9274  -20.0110 H   0  0  0  0  0  0  0  0  0  0  0  0
    4.3808    8.5948  -20.5772 H   0  0  0  0  0  0  0  0  0  0  0  0
    7.6782    7.0284  -22.8846 H   0  0  0  0  0  0  0  0  0  0  0  0
    8.0525    7.9720  -21.4026 H   0  0  0  0  0  0  0  0  0  0  0  0
    6.9411    0.5830  -23.2923 H   0  0  0  0  0  0  0  0  0  0  0  0
    5.2194    0.9366  -23.6632 H   0  0  0  0  0  0  0  0  0  0  0  0
    6.3247   -2.6163  -21.5931 H   0  0  0  0  0  0  0  0  0  0  0  0
    7.5490   -1.3717  -22.0160 H   0  0  0  0  0  0  0  0  0  0  0  0
    7.6580    0.7284  -20.6330 H   0  0  0  0  0  0  0  0  0  0  0  0
    6.3082    1.0554  -19.4938 H   0  0  0  0  0  0  0  0  0  0  0  0
    5.2602    7.4519  -22.5796 H   0  0  0  0  0  0  0  0  0  0  0  0
    4.7203    1.3373  -21.3110 H   0  0  0  0  0  0  0  0  0  0  0  0
    2.8169   -3.2394  -16.6196 H   0  0  0  0  0  0  0  0  0  0  0  0
    2.6525   -2.6952  -18.3234 H   0  0  0  0  0  0  0  0  0  0  0  0
    2.9229   -4.4330  -17.9577 H   0  0  0  0  0  0  0  0  0  0  0  0
    4.8779    3.5429  -16.6890 H   0  0  0  0  0  0  0  0  0  0  0  0
    6.5321    2.8808  -16.9160 H   0  0  0  0  0  0  0  0  0  0  0  0
    6.2569    4.6544  -16.9878 H   0  0  0  0  0  0  0  0  0  0  0  0
    7.4113    2.6282  -21.9329 H   0  0  0  0  0  0  0  0  0  0  0  0
    5.9525    2.9459  -22.9317 H   0  0  0  0  0  0  0  0  0  0  0  0
    6.6132    6.4575  -20.0167 H   0  0  0  0  0  0  0  0  0  0  0  0
    4.8745    6.2408  -20.4122 H   0  0  0  0  0  0  0  0  0  0  0  0
    7.3061    5.1353  -21.8936 H   0  0  0  0  0  0  0  0  0  0  0  0
    5.6603    5.1639  -22.6126 H   0  0  0  0  0  0  0  0  0  0  0  0
    4.9066   -2.1542  -17.4195 H   0  0  0  0  0  0  0  0  0  0  0  0
    5.1770   -3.8920  -17.0538 H   0  0  0  0  0  0  0  0  0  0  0  0
    5.0105   -4.4583  -19.4457 H   0  0  0  0  0  0  0  0  0  0  0  0
    4.6177   -2.7525  -19.8491 H   0  0  0  0  0  0  0  0  0  0  0  0
    7.1914   -3.5229  -18.3848 H   0  0  0  0  0  0  0  0  0  0  0  0
    7.0829   -3.5279  -20.1778 H   0  0  0  0  0  0  0  0  0  0  0  0
    6.6250   -1.1173  -18.3272 H   0  0  0  0  0  0  0  0  0  0  0  0
    8.0519   -1.3985  -19.3815 H   0  0  0  0  0  0  0  0  0  0  0  0
    3.7211    3.7317  -21.3073 H   0  0  0  0  0  0  0  0  0  0  0  0
    3.1455    3.6052  -17.6426 H   0  0  0  0  0  0  0  0  0  0  0  0
    2.3228    3.7258  -19.1621 H   0  0  0  0  0  0  0  0  0  0  0  0
    5.2967   -0.9409  -20.2107 H   0  0  0  0  0  0  0  0  0  0  0  0
  1 14  1  0  0  0  0
  1 25  1  0  0  0  0
  1 28  2  0  0  0  0
  2 24  1  0  0  0  0
  2 25  1  0  0  0  0
  2 26  2  0  0  0  0
  3  4  1  0  0  0  0
  3  5  1  0  0  0  0
  4  7  1  0  0  0  0
  5  8  1  0  0  0  0
  6  9  1  0  0  0  0
  6 10  1  0  0  0  0
  7 12  1  0  0  0  0
  8 12  1  0  0  0  0
  9 13  1  0  0  0  0
 10 27  1  0  0  0  0
 11 13  1  0  0  0  0
 11 27  1  0  0  0  0
 12 18  1  0  0  0  0
 13 17  1  0  0  0  0
 14 17  1  0  0  0  0
 14 19  1  0  0  0  0
 14 24  1  0  0  0  0
 15 20  1  0  0  0  0
 16 25  1  0  0  0  0
 18 19  1  0  0  0  0
 20 21  1  0  0  0  0
 21 22  1  0  0  0  0
 22 23  1  0  0  0  0
 23 27  1  0  0  0  0
  3 29  1  0  0  0  0
  3 30  1  0  0  0  0
  4 31  1  0  0  0  0
  4 32  1  0  0  0  0
  5 33  1  0  0  0  0
  5 34  1  0  0  0  0
  6 35  1  0  0  0  0
  6 36  1  0  0  0  0
  7 37  1  0  0  0  0
  7 38  1  0  0  0  0
  8 39  1  0  0  0  0
  8 40  1  0  0  0  0
  9 41  1  0  0  0  0
  9 42  1  0  0  0  0
 10 43  1  0  0  0  0
 10 44  1  0  0  0  0
 11 45  1  0  0  0  0
 11 46  1  0  0  0  0
 12 47  1  0  0  0  0
 13 48  1  0  0  0  0
 15 49  1  0  0  0  0
 15 50  1  0  0  0  0
 15 51  1  0  0  0  0
 16 52  1  0  0  0  0
 16 53  1  0  0  0  0
 16 54  1  0  0  0  0
 17 55  1  0  0  0  0
 17 56  1  0  0  0  0
 18 57  1  0  0  0  0
 18 58  1  0  0  0  0
 19 59  1  0  0  0  0
 19 60  1  0  0  0  0
 20 61  1  0  0  0  0
 20 62  1  0  0  0  0
 21 63  1  0  0  0  0
 21 64  1  0  0  0  0
 22 65  1  0  0  0  0
 22 66  1  0  0  0  0
 23 67  1  0  0  0  0
 23 68  1  0  0  0  0
 24 69  1  0  0  0  0
 26 70  1  0  0  0  0
 26 71  1  0  0  0  0
 27 72  1  0  0  0  0
M  CHG  2  26   1  27   1
M  END
> <OMEGA_C>
hRzTQFM5bEDW/ZzBwV2KQDsGakAmHJrB/ZTbQNOsJUHtIrLBUSquQD9FIUG44q3BoJfsQIeaEkHn
qbjBFyWyQATWdr8n6rXBmj+tQHS6DEGtLKfBL5nrQGTo+0DtBrLBvgq9QGRI/z7FZrfB/UbQQHe7
xL+Tl63B35zSQNREFz8Wn6PBVMO9QElM80Azw63BQPi4QGfCoj+xx6zBX7W8QNTtckAquafBfzxK
QFvPWcDVNo3BU466QD3QakC8zYnBRP/JQKFUK0DUa6/B0Uq8QK1Ty0Coq6bBf1LHQAjHo0BMYK3B
t4yVQA7FS8CW043BVpKlQOgbWsCgTZnBNdnVQHlGRcBsCprB5PneQIbyxr+ENprBn/6OQK6RbkD+
JKXBtAKzQBy7ZED6XJXBoR5LQEtvakDJH5XBddnIQOCwXb/5KqPBRNb5QC4ybkAIcJvBcsraQNry
M0H0R7fB5RzxQBWPKEFbU6vBDeGjQHjPLkHb4qjBHyKYQGqDH0E2sbTBmIrYQCt+EEGr0b/BnOAG
Qa/oFUGiG7vBg9qQQB4/iL/HK7PBlCi2QCQMwL9giL3BPLDBQJ/WDkGZFqDBci+MQDaECUEanqTB
C7T1QIXo4ECZE7fBH9cAQUoa/0CFOKvBPx3eQFA8FT+KVrrBpwWnQPfFbz8tTr3BL2TKQH9xJ8C5
vqzBE5HxQJOSr7+zILDBcA71QEx6Oj9yEKXBFt3JQJgYhz9O85vBeFOoQPl17kAGo7TB1wyXQA8u
qz/ffKrBE0g0QD5ST8Dc9ITBtcIpQD5+LMBplpLBqxA7QMXajcBTqY/BeBecQJu/YkALg4XBwQbR
QD9fOEAMVIfBSTjIQD7xlED+5ofBfyntQD41KECIdq/BNXu+QKGJPEA3dLfBlp/TQAOkzkAwIqDB
pvubQMa0x0AmTKPB58vpQH1UpEAHJq/B+yC1QO4+pUCQ5rTBQgOdQKveCcAtW4vBPaqlQPgVecAX
bojBqlWgQIyqjsC0kJvBjcSTQLkpMMAAy57BrR/mQJl2YcAlFJPBAqfiQLzIYcA5bKHBwv/TQAgE
j78dnpLBZNQAQSECs79gDZvBYyZuQF3TbkBndarBD09JQNW7ZkAJJI3BGakUQBBzbkDhS5nBsH6p
QNDdcL+Or6HBSPrSQPBVakBG3ZzB9mWKQHmLbEDQFZrB987LQGHvI0EQSLbB9ajsQOFbEkHy6LjB
OQa+QA7WIkHXe6rB5CnRQK3XBL9vYLfBcoraQNo2+ECzVrbBb0asQCysDEGwwKfBMwGrQM6CzD44
uLXB5PfRQCkowr84Fq7BqpvOQC17Ej8dLKPB4urMQCO+9UA7bqrBJfSxQMV9oz/NqKvBJh69QJG5
c0Cgp6fB6O1FQAKSTsCEtI7Bbgu6QMyWZUDot4nBRLPGQPXgJ0DrMK/B1qa3QD8hy0DYbKfBoK/L
QC73o0An/KzB70+GQFUvOsDd1JbBGZyxQM7bWMBtYZLBwEfXQG0/RsC/8pnBOw3hQOdRyr9G05rB
7zqPQB2hdkDYD6XBuNSyQHwqcEDAO5XB/VVLQMscY0CfNZXBHKvIQE/aZ7/WaKPBW6H5QKoOZkCt
Q5vBWTzaQPasM0H927fBp3uvQJHQIUGvZbvBHqr0QO0jE0FxeMHBXt8EQV8DFUFdIrTBxeDZQLcn
JkGPXaXBwB2lQILrLkGjA6nBq+PNQNg/h7+EAr/Bh+buQNCSjj0ScrfBK4i+QKUU8kB+cbvBxzPz
QF3m30DC6bfBTNukQP8PDEHfJ5/BmNyOQGPxCUHcY6zB20CnQEEjhj/0w7zB6vKNQABCVL7CqbTB
rt25QEDVEsAbp6/Bk+7xQIno/L9kxK3BqlnwQGoTTj9/2aTB2BTGQClWcj9YLZvBJ3jpQHA7+kBc
aKXBjqGSQOHwvj9/B6jBe+MHQAHGOMD82JHBUqBDQNMFisAZUI3BHpZTQKSFLcD5H4fBqo6bQA0u
bUBibIXBmxjHQLZmJUDfKYjBs+fQQHMfi0CW7YbBe5bpQGntHkBdiK/BFaS6QAgEOEBtNbfBbXC6
QPPCxkCXuJ7B4aSVQCPIzECIqKnB1b/uQJ5QpkDOeqzBg9/BQJCzo0CUb7XBKRJ/QGc9W8AJap7B
+4OHQMlu6b/pOZjB+Yu3QHs+OMB0uYrBYtqvQNEsj8ClCpHBaurzQIMtZ8BE6JbBMWLPQGDbXsAG
9KHBiQXZQL9Njb8eJ5PBMbUBQSQuur94cZzBGOtuQBiMfkBKU6rBJ2pJQJWtXUDyPY3BYxcVQNFV
YUD4cpnBLrGpQP6eib/r7aHB+OHSQGsHa0AJ6ZzBaDaKQKTzaECH95nBAujPQIuyH0F7NrjBQF34
QMe0FUHAPLPB1ceoQLB8HUELwbDBIuy0QIYKY78KMLbBwDzwQKi7/EDk/a/BQT2hQGryBUGKpK3B
R13AQP0HFT/Qv7fBEIPQQG93ur9IQa3BflXTQIc0Nz/WAqTB97vJQJxD+kC/MqjB1RC6QFhnsD8s
Tq3B30m8QEOueEAmjafBlxaAQJOSf8CQhIjBx5u6QNa0ZUBTuInBAjfJQM9GNEBizq/BunbCQNLk
zECSx6PBuj/GQGb/qEAoRqzB7c50QM1YdcDSrpTBfkySQOyLJsB945jBgrbDQEAQMMCGCpjBLrfZ
QOmXsb/J0JnBua+OQAbxckA+8qTBXuKyQGgzYUD7SZXBmOZKQJRQZ0Aq95TB5pjHQMZGN786RqPB
y6L5QEQ5bEDoXpvBYdjVQMDHMEECubnB1/DIQJSRF0E+0r/B60EJQa45FkFFH7nBDcIAQQXyHkH6
GqzBIWKuQJnqJkHydKnBjTyMQE2aI0G65bTBMe2SQELceb8ZBbTBtPO6QBtbuL9bpL3BMzLpQPqw
6UA9LrfBTnUGQeTg70BSB6zB5gmGQF/mBEHxFKjB9z6aQIoL+UC/3bTBZwjiQA1dKD+lPrrBZ7Or
QEcWgT8AAb7BI+3IQGNfIcC1HazBe4TyQDbErL9NXK/Bvd/1QBFdTj+Fi6XBKGfLQC4TnD96cZzB
pwHRQLybB0FgXaHBXtaXQGfKsj/pQavBdiRdQOpJnMANyIXBWEmiQMlwg8DtpIbBB/RmQISMRsCs
boTBGU2cQCvvW0AOaoXBT4zRQDumM0B5ZYfBG8fHQFl1kkCNrYfBLlrsQKaTM0DQUrDBQri7QPvy
RkBnl7fBZF7aQMLfxkB1f53BFy2iQJWGy0CaSqDB9w3nQNXcqEDJdq/BiYuvQI+cr0DdyrLBj++G
QOJgl8DbspjBc0AwQLdsbsCafJbBY7iJQGHoHMB7VqHBBVuIQP3C3L+OM5TBsAjMQFRPSMCyC5DB
8eHOQO2JXcCjJp7BLb/UQIwbQb8zupLB/jP8QEbJxb9lC5vBelVtQNPCdUBxOKrB+TVJQCbyX0CB
BY3B5WIUQKlubUATFpnBX9SnQA8MPb9DVKLBS3HTQPPeZ0BgIp3BDM+KQJQTbUDjN5rBRQnFQPV1
JEHuSbXBmojeQE9bEkEMp7rBhmPHQN+eIkGzCqnBsd7XQLa3JL+1HbbBEvTNQDPH+EBpErfB2P22
QI3ADEEbTKXByDeyQB4kqD5zjbbBBcPSQPbMxL/QPqzBAZbKQC7sJj/0D6PB0K7PQF6N9EDCuarB
QjuyQPehoj/JpqzB4kG9QLAMckCQ6KfBkqNwQJgIgsBKwYjBT9y6QEWJY0CG54nBW+bGQBrbJ0D0
w6/B0I67QDWgykB3yKbBaBvLQGJmo0BSK63BF+xuQKr1gMA2EpXBfZSNQKyRMcAFWZnB56a+QKRo
NMDEiZfBQGzRQMlKtL9oqpjBF36PQJNZdEC+O6XBOXGzQBwZbUAOcJXBVO9LQCicaUDMRJXBQ6nC
QLxgTL/PsKLBvyH6QFETZEA1k5vBXHHSQEr2M0H0w7fBTmKjQEV1I0EH0rfBRULbQJ64E0FEY8PB
1zsAQXLXE0E+b7jBLNPoQM6VJEHxeKbBMKCzQBVFL0GwbqXBczLYQK/Job+zYb3B3Ab2QKi2pL1H
jrXBBKisQAXx9ECYwrnB2OrhQMKj30CgrrrB6xW7QD6JC0EElJzBA9WUQFNcC0HLTafBu6a0QMJd
bz9A3r3BNCmUQCu1eb6Tr7bBQgK8QGfhFcCIKa7BdBjyQJrB/L+3SKrB9BbtQJP4VT/5/qPBxFW/
QJKLjj8SlpvBjlDxQKq49UAOJajBiOKQQGjvuT89ParB83dQQNIxn8C/54XBjbSZQEXugcBq94XB
mEZPQPJ2S8A+mIXBQVucQExrakAimYXByHPIQMjkI0AtSojBYVjRQACQikAxLofBycnpQEjvHkAq
HbDBtfW6QMUmOkC3uLfBy/7DQLsZxkCaUJ7B0JSYQFcCzUDakqfB0D/uQLo6pEDwoK3B0p69QC3o
pED4SbXBqRGIQFZnncDVLJjB0QAsQIo0gcCpzZfBpjyHQOQ9LMBg+qHB63CAQH6I8r/LNZXB91nF
QFjzTMBHdo/BG2LNQJTdXsCag53Bwe3GQOtlSr/a35HBhpH0QD0SvL/st5jB6SBvQE01ekCSfqrB
uw5KQFWaZkDxR43BPHwVQJf3aUAGeZnBltuiQKOQaL+5x6LBYKnSQMApa0AAep3BLi+KQOR8bEDb
P5rBXRXcQF0MJkG2G7HB/LetQBJMIUGyr63B0OruQAVyE0E3rrfB9DPVQG3EK7+Pn7bBGFKrQCA/
DEEAZKfB6FPsQB6F/ECjebHBtoSuQD5JiD743rXBlp3WQPsmyr+gqKzBAPHMQMIADD/K1qLB5aG9
QFcq80BcDa7BeYOyQOiCmj8H+6vBgKO7QHd7cEDKKajB/TyqQAAh97+t3nrBM3C7QKRMZkCxKIrB
5ILGQP/XI0DBjK/BzM26QCNHykAIUafB6MHGQJFgokBT/q3Bjr2QQKuhK8AnEobB0YWuQHXCX8Cv
jI3BrNixQG0AOcA91JjB3/LMQEuEzb9RCpnBxwqOQMBOcEBXT6XBeSCzQNucb0Dcp5XBl4JLQD3F
aEAAHZXBeNrDQCd3Z7+zIKPBIoD5QJy9aUByGpzBUoHcQJisNEGJALbBS8fvQAR5KEGF6qnBXgyi
QGBwLkGenKjBmH2ZQKgHIEE43LTBUtTcQAreEUFAML/BRlEIQf/xFkHWgLnBu2zSQNBdpb+Q2r3B
97zyQLkwmb0LCrfB2++9QHbbDUEx95/BbbWJQHnTCEEjaqXBt9L3QFVa4kClnLbBsEsAQQKr/kCz
TKrB4L6sQNZWYD8ELr3BBTSRQPqeq76XG7XB11/EQKfPH8BsUK7BMh74QEhd67+n7qrBjkzvQAuG
OT97HqTBZVbDQFsmdz8sEJvBRfepQKcp70AcSLXB5h2SQI8RtD+v7qjBvBKUQALhrr/JmnDBhia8
QGXSKcDWFHHBCb/AQI4Xnr+ESIHBJjWdQCFmbEBIt4XB0I/JQOIGJ0B6mojBucnRQFs+jED7iYfB
14DpQMZYHEA5vK/BTdC6QAWfMkA7pLfBA/PQQHbrzEAdgqDBd+SZQBqoxkBXVKTB/1zpQJP8okCn
mK/ByCi1QNFyo0AsnLXBiWt0QPuuV8DKJYLBjpx9QLvQ+b/k44rBTbTOQDW5YcAg/onB8OOhQGGf
kMB7Oo7BxpzAQBlraMBGL57BXHCRQKfTKcBisZvBt2nEQD7edr9cN5LBLiXvQG4x7r9BnZjBj2Vr
QNSSckCgfqrBAN5KQP/tZ0BIHY3BRHYUQBDFZkCuL5nBkyykQNZdeb/+G6TBK4XTQGDEa0AgbZ3B
E+eKQP2cbEAAZ5rBLyvaQKRLJkGo/bDBYsKrQGEbIUEOxa3BzU/uQGrQE0GtZrfBbJfaQPFVTb/5
2rTB7capQKwhDEGUaafBUAXsQIha/UD2JbHBM7O4QPf1jT4k/LbB1+LNQBY00L968arBSp/FQOUi
HT9T1qLBBzW9QIw380C6863BdcyzQI79nj99P63Ba/y8QJaAcEBENajBDjPRQNkHisDMupDBom+7
QKZ2akD3JorBPr/JQDjgJUDTxq/BEGi6QN1QykCWOKfBCHDHQEXXokAD463Bf26iQHHpi8CY24zB
n7yLQCUTQMDH1ozBebeOQI9OEsCSr5fBcSS3QLo4tL+jTZjBPkWPQGOObUB/d6XBu52zQMw4cUD4
s5XBzXpMQJIoakBRW5XBuXu3QC2aSr/626LBK0f6QEMfa0AA6ZvBl1faQBvaNEHk77XB+zLtQLII
KUEtt6nBECmfQFMxLkF/zKjBJCKYQBiHH0E9CLXB9PTcQLH4EUFjAL/BmAQIQYChF0GKDLnBfOTc
QPa+u7/y17vBcML5QKEgpb59cLPB1t+7QG4CDkFV7J/BTTCIQNVnCEGEjaXBomv4QOhK40CzL7bB
a6X/QP0EAEG236nBY0PCQJdlXD/sDL7Ba8OZQHXGV75Ih7jBAYa4QLVXHMDBcq3BCvXqQP0qA8BW
UKfB8sboQPIhKz/xwKLBVcW4QMi5kT81zZvB5TWqQFbg7kDXR7XBaXKRQN1Ntz/1EqzBeinfQAlV
qsBShZDByyfSQFZge8Cu95jBxq3jQN5uacBbd4vB7ficQNblcEA/0YXBesjJQEXQK0CuWYjBrGzR
QEPOjkAeoofBVpLsQJO2HEB9M6/BIUXBQD47OEDzALjBnP7PQMAzzUDSTqDBzVSZQP4wxkBZZKTB
vhnqQL03pEADYa/B7jO2QHPGo0BljrXBmJOQQEyeocDUJ5LBkhmiQJClmMCBp4TBEI1TQADZScCu
34rBraWaQHBYF8B+tIbBpNyPQHp3QsAgGZ7BgJlkQIFI07/kv5jBcyW2QMTTIb/oEZLBG+rTQBy9
AcCIOZfBg1BuQKdpbEBduarBlRpLQGyOa0BHXI3BP9AVQG3iZkAif5nBC+eYQA7ORL9YNaXBzRbV
QGEQeECs8pvBECuMQEABa0DmNJrBcQ3aQLAeJUFQL7LBL5SsQPscIEEjKq7BE/XrQBSdEkFE/bjB
/surQGKyrr0yybjBMOSrQAQFC0GW6afBVFrrQCXl+kA6vbLB7AaZQPkHUj/mBrDBXbu5QC20tr++
yrPB26HbQBBw2Lx7C6bBNJG9QIXb8ED8xq7Bw8a8QK9IlT+D06fB7xbCQPYQb0C7D6fBC0ZFQCF1
WcAjkZDBv5G4QNY1a0CnSonBhbvUQLujG0CWBazBvMS8QD6syEAb1KfBvEjLQNO/n0Ca4a3BB/+G
QE3NNcCZhJfBuTKyQNCkWsAZvZPBawbZQC2EJ8A365fBPxbaQJtPIMAaNqTBHaKTQOPhaUArK6XB
qxCzQMtBeECz0pTBh0ZNQEf2X0BIyZXBvUHEQLewpb+lQajBUVD7QP2Te0DFxJnBnB3ZQGm8M0Hd
FLfBzibvQCOtJ0ECQqvBI8ShQBQmLUH456jB1eCWQOrSHkE1ELXBmEvYQGXdEEFlPMDBJ48GQaxY
FkGdRrvBLmeTQIH6ib7m9L7B5K7HQDiL0D4Hb7zB+re/QDq6DEEMsaDB7L6KQDpcB0EnlaXB61H2
QIvd4ECP/bfBGHQAQdJ7/UDjz6vBz8KMQLiF3z81qLPBBo19QF6Nlz6p7qvBgH+fQAjACcAprrTB
yS3WQASz5b/0D7jBKyD3QBLceT3PfqvBPwTnQIJayLzCt53Bpo2oQBIn7EAKvbXB/putQHtUtT9K
JKDBCNIHQK/2PsCSTJPBINRDQOfQj8BDP5HBthBQQJJYR8C7K4jBwzGZQH0NbkBoUYXBBzTHQC43
LEAY3IfBCnTNQLXIjkDWCobBS8v2QKWkFkBA5KnBonrRQM60HkCYxrTBzz/SQJOizUDm96DB1uSb
QNC9w0BN76TBe9LtQE27oUCDga/BUry5QDxpnUC+fLXB+4qBQKTpR8Br6Z/BRqmHQNBA37/j1ZbB
XNiyQCroWcDN8IrB99q0QHaBjsAXmZbBWcTXQKI9zb+yhZTBenb2QHulR8DDPpXBlq/7QMCTHsB/
06bBdkXKQM70WMCroKfBNEt6QAsqZkBt16rBTIpHQIGAYECY0Y3B0Z4ZQJj6VkDAX5rBYF+oQKjB
nb/wXKTBfEXSQB6ZbUCt0JzBAreJQH71aEAh5ZnBnjrVQIC7HkGq07jBLBn7QDzhFUGkTLLBbqWq
QOCyHEGXpbLByHqxQFlfUr9Z07XBhmvyQD9+/UDh2q7B9IeiQN1pBUHrL6/BlFy8QEvqJD+Qs7fB
tt3PQHJIr78Wbq3BKjfVQMiHTT8+YqTBXFjIQGg5+0CKUajBtDe5QBPwuD+0Ma3BmKe7QPG9e0CJ
dKfBiE6BQHPBb8CLJorBmg+6QMZUX0AqpYnB6sbHQNMTOEC+26/BtCLAQH1MzkAoy6PBlFzGQKQq
qkBQHKzB4sCvQEiLiMAVE4vBvovPQPyQSMBbhI3BGFPJQMODKMBF5ZjBbmjeQNbgob80PZrB1gGO
QArpdkDw0KTB5keyQCi5bED+GJXBe2lKQFiTXEAEBJXBnq/JQNG0Hb+IWaPBwAb5QLLRaUArWJvB
bSDbQLC3L0F8mbrBiLbSQPC5FUF3XMDBQxsMQQdXFkFmPbfBrLn/QArYH0FnI6vBhfurQAbqJkEY
favBlkGQQDT+IUF71bfBl0eQQPopab9V/bLBaje1QIhOsb9WU73BC3/vQEUq6UCAALbBJJAGQREJ
8kCj46nB/dSEQDGTBEFxe6rBxIKfQFNu9kDKUbbBCCrdQDvyNz9v1rrBtNOlQFFYiD8jkL3BChDJ
QNnYG8D8EKzBaRbxQEBnoL+kL7DBIzD3QNv2Yz/+k6bBYpzPQOeIqD/iupzB0pPLQMimCEE7g6HB
nbOXQHt/uz90gqrBdWNXQCDFksCwZ4jBc7x+QBhwQMAdp4PBMaFvQBGNUcCrvJHBjHubQKGVYUCc
S4XB4yvJQNh+IEAJbojBEGDPQBDviEAtn4bBJdPqQH/SN0DdrLDBQyu5QNqlSkBahbfBFWXWQPnO
yEC4HZ3BIQWfQHPxzEBg1KDBZujnQC8zqkC6xq7BsEuxQBdQsEDB/bLBpNa4QPTAl8BreIPBA0mx
QHFPoMD6jZHBKi/KQH1/E8Bi5IfBi2nwQFOrYMBSmIzBEvDXQP0fVsAXhJ7BpeSmQAwLI8B8l5rB
gNbZQPuQKb/z9pLBDmsAQdE9sb+8zJvBlM1rQBW2fEABB6rB7wFJQI6qVEA2FI3BEv8TQKMEW0Do
OJnBGUKqQBhHI7+O2qHBmCTTQMLTaUCgS53BzXeKQIAPaUBSMZrBQJHbQLpVJUEJr7HBdQmtQH1x
IEFEc67BNIfvQPWEEkGz3rfBbj7cQIilKb96QbXBL9CqQEjuC0EywqfB9CDtQHOX+0BXU7HBRsm3
QD/rqT6IZ7fB6vzRQD50vb+VH6vBBMPDQGKHPD+nZqPBDEm+QIQl8kB5+q3BasGxQAuRpz++zq3B
6U28QDVScUB1EKjBoNXsQC8agsCiHpbB7im7QHuba0B8+4nBQe3HQE0tKUBfGbDBoKK7QO1HykCa
66bB79DHQETjokDSkK3BKwLXQL8LX8AnB4zBzAbmQNuBAsBNZ4nBjKXkQO1wjb8pHJPBWZm4QFN+
nb/Ki5jBTJ2OQHevb0AYPaXB3kWzQI9iZEAcipXBab1LQO3EZ0DmG5XBf724QNAQLb+BRqPBgOX5
QPF+a0BGyJvBRAPcQBOsM0FXybbBQIjuQMxSKEEdbKrB/2agQB3fLUEYuKnBM5KZQH9oHkEVtrXB
whPeQFxLEEFRbr/BHKEIQWYwFkFwl7nBkI/fQK3Qq78ZILzBYlj6QKX95L3jE7TBKsK8QFdEDkFZ
R6DBlCyJQCdZCEHG4qXB8zb5QOvg4EDsMbbB7nsAQbH4/kARG6rBrly/QMDfaT8Sob7BX+OZQFMv
aL5hq7jBx1u/QIqaF8CEZ63BeSjwQGXD5b/LWqfBVLnmQLpnXD8ELaPBWmC1QHGGnz9xe5zBBDSr
QIDA7EDGP7XBVk2PQLz8vj9awazBwP7gQPW9osAokZfBKVnlQImfW8ALEJ3BDtgHQcb0gsAQ6JTB
xb2cQOIUZUCxoYXB50TRQBi4OED9cYfBKmbJQBw3lUBCOIjBprvqQCf0HkCizK/BCLm+QHNHPkBJ
LLjBh93RQPKJzUBkJaDBoMyaQAubxkDE4qPBOo3qQA17o0Cb+67B5t62QHZ3pEDPRLXBzzK0QAFF
XsCmVI3BwYneQIJHhMCrLIXBNhbRQIFS0L+yJIPBhY8DQbVHBcAIbYbBTKbpQE60iL1xfJDB8Ov9
QEWesb9dzZjBBN6vQOjZEsAF/5jBJsKgQHE7Mb/TtZPB5bZsQCXXckAAcarBaKtKQGIRY0C4IY3B
Vd8UQNd7a0CCM5nB+3GaQNw6Or+h0aXBqr7QQOlQbEDo6p7B4CGJQIBVa0D5bJrBH23hQGd5JkHK
ta7B1NWwQFInIkG5z67BC0n6QDX9E0HiCrTBeoLWQEsBRb8CerTBpYGmQOatDEFPW6nBKeXvQC2/
/EAEs67BE6esQIXN4jwZt7PBXGPgQF+Nub9WqqnBEGPQQDxZSD+rMqLBp/K+QPIT9EAWx67BL0Gw
QMoklD+6NKvBUq22QH8YcECsQKnBOLQPQVHMl8BcRn3BTPS+QBNGXECaSYvB7g++QLZKIECTibDB
6jO0QH4+ykDS1ajBhCrBQOj5oUCMYK/BFZ8DQZMEjMB37IjBVSsBQekNNsDu74nBrVfqQIobIcAr
UJTBiLjoQGy1fr/hMZbBqPiJQJM0cUAEiqXBCFqzQMtpbEDphZbBuARMQD/2ZkB/uJTBrA7RQJrC
Kr9sLaDBIN33QEqSaEAANp7Bo+/nQMRjNUHAFrPBpDfsQBEpKEFaYKbBp1ygQCYeL0HCg6rBAZKl
QJOoIUEbJbfB83bxQA0uE0FYjbzBuWcOQYsZF0HZUbPBp1XTQGv9xL8Xt7rBNdnwQAPDs73pjrbB
YeSvQByODUH34qDBz+eDQO+nCUEG7qnBLiIAQXD+4kDUFbPB0kb7QOxU/UCOX6bBxZ2lQOII9D7T
jbvBfIaSQDcoJ7+Fc7HBS8jQQKTfG8BOj6nBBp8BQXEByr9k/ajBfKLwQPaljT9Cl6TB3AfHQN+K
pj84zJrBHye0QClU8UAaILfBnoyQQKWmpj/8j6fBRUERQdvKusBvLXzBVLcfQTczicBzlX3B+MsG
QUvUi8AcU2/BEByiQEvtX0C3Q4bBPDrNQNAsHEDTkorBQTXWQNRThkDqoIjBBFXgQCF7HEBffbLB
z3+rQF7CKEBg8LfBZHPFQAbgyUAlKqHBSomRQGQxyUDsVKfB78TjQGEjo0Dg9rDBwaCvQEMPokDN
AbfB6ZEMQSYpmMDg3Y/BGk3nQDrKmsC0vIjB7S3wQMFnHcCaDoPBwBYRQV4RGMCSHYrBv936QL63
P8BwE5vB3HvJQFX1OcCnwZPBAI/YQKpZBL9SYI/BPcwEQa0tHL9G1pbB+nRgQBuBdUC6QqrBqXdP
QIv4Y0C3vYzBl/kSQAOeZkABWZjB2LKyQK6Pcb+7857B

> <OMEGA_E>
GqoHPwYhDj9QFBU/MOYXP/wyHj/o3R8/oBwjP4wxJT+mmzI/9Ps+Pw==

> <OMEGA_NBR>
     81120

$$$$
50253508
  -OEChem-04172616093D

 57 59  0     1  0  0  0  0  0999 V2000
    6.5598    3.8685  -19.6716 C   0  0  0  0  0  0  0  0  0  0  0  0
    4.2957    3.7859  -19.2856 C   0  0  0  0  0  0  0  0  0  0  0  0
    6.6461   10.6409  -21.7444 C   0  0  0  0  0  0  0  0  0  0  0  0
    5.2553   10.2878  -21.1877 C   0  0  0  0  0  0  0  0  0  0  0  0
    7.1353    9.5633  -22.7308 C   0  0  0  0  0  0  0  0  0  0  0  0
    6.2877   -1.2125  -21.9223 C   0  0  0  0  0  0  0  0  0  0  0  0
    5.2709    8.9013  -20.5235 C   0  0  0  0  0  0  0  0  0  0  0  0
    7.1496    8.1706  -22.0738 C   0  0  0  0  0  0  0  0  0  0  0  0
    6.1953    0.2151  -22.5188 C   0  0  0  0  0  0  0  0  0  0  0  0
    5.3315   -1.3755  -20.7301 C   0  0  0  0  0  0  0  0  0  0  0  0
    6.2493    0.8641  -20.0667 C   0  0  0  0  0  0  0  0  0  0  0  0
    5.7511    7.8131  -21.5150 C   0  0  0  0  0  0  0  0  0  0  0  0
    5.7456    1.2776  -21.4745 C   0  0  1  0  0  0  0  0  0  0  0  0
    5.8443    3.8886  -21.0160 C   0  0  2  0  0  0  0  0  0  0  0  0
    5.8172    3.6971  -17.2696 C   0  0  0  0  0  0  0  0  0  0  0  0
    6.2704    2.6873  -21.9237 C   0  0  0  0  0  0  0  0  0  0  0  0
    5.7638    6.4612  -20.7796 C   0  0  0  0  0  0  0  0  0  0  0  0
    6.1009    5.2575  -21.7136 C   0  0  0  0  0  0  0  0  0  0  0  0
    4.4256    3.7801  -20.6685 N   0  0  0  0  0  0  0  0  0  0  0  0
    5.5650    3.9098  -18.6998 N   0  0  0  0  0  0  0  0  0  0  0  0
    3.1561    3.7005  -18.6499 N   0  3  0  0  0  0  0  0  0  0  0  0
    5.7213   -0.4609  -19.6268 N   0  3  0  0  0  0  0  0  0  0  0  0
    7.7725    3.8848  -19.4909 O   0  0  0  0  0  0  0  0  0  0  0  0
    6.5900   11.6076  -22.2663 H   0  0  0  0  0  0  0  0  0  0  0  0
    7.3593   10.7155  -20.9102 H   0  0  0  0  0  0  0  0  0  0  0  0
    4.9628   11.0419  -20.4422 H   0  0  0  0  0  0  0  0  0  0  0  0
    4.5267   10.2851  -22.0119 H   0  0  0  0  0  0  0  0  0  0  0  0
    6.4632    9.5423  -23.6013 H   0  0  0  0  0  0  0  0  0  0  0  0
    8.1543    9.8148  -23.0603 H   0  0  0  0  0  0  0  0  0  0  0  0
    6.0218   -1.9446  -22.6991 H   0  0  0  0  0  0  0  0  0  0  0  0
    7.3184   -1.3948  -21.5841 H   0  0  0  0  0  0  0  0  0  0  0  0
    5.9508    8.9248  -19.6591 H   0  0  0  0  0  0  0  0  0  0  0  0
    4.2543    8.6543  -20.1838 H   0  0  0  0  0  0  0  0  0  0  0  0
    7.4408    7.4207  -22.8241 H   0  0  0  0  0  0  0  0  0  0  0  0
    7.8788    8.1676  -21.2502 H   0  0  0  0  0  0  0  0  0  0  0  0
    7.1853    0.4992  -22.9052 H   0  0  0  0  0  0  0  0  0  0  0  0
    5.4687    0.2046  -23.3446 H   0  0  0  0  0  0  0  0  0  0  0  0
    4.3066   -1.1391  -21.0522 H   0  0  0  0  0  0  0  0  0  0  0  0
    5.3727   -2.4146  -20.3715 H   0  0  0  0  0  0  0  0  0  0  0  0
    7.3480    0.8147  -20.0875 H   0  0  0  0  0  0  0  0  0  0  0  0
    5.9303    1.6273  -19.3416 H   0  0  0  0  0  0  0  0  0  0  0  0
    5.0390    7.7571  -22.3515 H   0  0  0  0  0  0  0  0  0  0  0  0
    4.6461    1.3071  -21.4581 H   0  0  0  0  0  0  0  0  0  0  0  0
    4.8718    3.7806  -16.7136 H   0  0  0  0  0  0  0  0  0  0  0  0
    6.2443    2.6948  -17.1178 H   0  0  0  0  0  0  0  0  0  0  0  0
    6.5250    4.4563  -16.9053 H   0  0  0  0  0  0  0  0  0  0  0  0
    7.3696    2.6494  -21.9409 H   0  0  0  0  0  0  0  0  0  0  0  0
    5.8943    2.8805  -22.9392 H   0  0  0  0  0  0  0  0  0  0  0  0
    6.5178    6.5052  -19.9798 H   0  0  0  0  0  0  0  0  0  0  0  0
    4.7703    6.2939  -20.3381 H   0  0  0  0  0  0  0  0  0  0  0  0
    7.1611    5.3167  -22.0008 H   0  0  0  0  0  0  0  0  0  0  0  0
    5.4729    5.3203  -22.6146 H   0  0  0  0  0  0  0  0  0  0  0  0
    3.6716    3.7127  -21.3219 H   0  0  0  0  0  0  0  0  0  0  0  0
    3.1384    3.7211  -17.6503 H   0  0  0  0  0  0  0  0  0  0  0  0
    2.3024    3.6145  -19.1634 H   0  0  0  0  0  0  0  0  0  0  0  0
    4.9155   -0.3006  -19.0567 H   0  0  0  0  0  0  0  0  0  0  0  0
    6.4292   -0.9129  -19.0840 H   0  0  0  0  0  0  0  0  0  0  0  0
  1 14  1  0  0  0  0
  1 20  1  0  0  0  0
  1 23  2  0  0  0  0
  2 19  1  0  0  0  0
  2 20  1  0  0  0  0
  2 21  2  0  0  0  0
  3  4  1  0  0  0  0
  3  5  1  0  0  0  0
  4  7  1  0  0  0  0
  5  8  1  0  0  0  0
  6  9  1  0  0  0  0
  6 10  1  0  0  0  0
  7 12  1  0  0  0  0
  8 12  1  0  0  0  0
  9 13  1  0  0  0  0
 10 22  1  0  0  0  0
 11 13  1  0  0  0  0
 11 22  1  0  0  0  0
 12 17  1  0  0  0  0
 13 16  1  0  0  0  0
 14 16  1  0  0  0  0
 14 18  1  0  0  0  0
 14 19  1  0  0  0  0
 15 20  1  0  0  0  0
 17 18  1  0  0  0  0
  3 24  1  0  0  0  0
  3 25  1  0  0  0  0
  4 26  1  0  0  0  0
  4 27  1  0  0  0  0
  5 28  1  0  0  0  0
  5 29  1  0  0  0  0
  6 30  1  0  0  0  0
  6 31  1  0  0  0  0
  7 32  1  0  0  0  0
  7 33  1  0  0  0  0
  8 34  1  0  0  0  0
  8 35  1  0  0  0  0
  9 36  1  0  0  0  0
  9 37  1  0  0  0  0
 10 38  1  0  0  0  0
 10 39  1  0  0  0  0
 11 40  1  0  0  0  0
 11 41  1  0  0  0  0
 12 42  1  0  0  0  0
 13 43  1  0  0  0  0
 15 44  1  0  0  0  0
 15 45  1  0  0  0  0
 15 46  1  0  0  0  0
 16 47  1  0  0  0  0
 16 48  1  0  0  0  0
 17 49  1  0  0  0  0
 17 50  1  0  0  0  0
 18 51  1  0  0  0  0
 18 52  1  0  0  0  0
 19 53  1  0  0  0  0
 21 54  1  0  0  0  0
 21 55  1  0  0  0  0
 22 56  1  0  0  0  0
 22 57  1  0  0  0  0
M  CHG  2  21   1  22   1
M  END
> <OMEGA_C>
JOrRQKSVd0BkX53BHHaJQF1MckDcSJrBH63UQDtBKkF19K3BbCuoQOqaJEF3gKnBxFTkQEoDGUGc
2LXBzTTJQKkzm7/1YK/Bc6uoQK1rDkEcMKTBp8nkQLG6AkEol7DBO0DGQMpIXD6YJrTBwpuqQPsP
sL8716XBh/rHQLgzXT+HiKDBOAm4QCIF+kDGHqzB5tu3QPyJoz/My6vBzQS7QBrfeEC/IKjBtSa6
QO2cbEARKIrBGKfIQJL8K0DOY6/BVXG4QHjCzkCePKbBiTrDQLE9qECBta3BLJ6NQLHtcUAbWaXB
xhSyQMo5ekA/mZXB0f1JQF7UbEAHM5XBCxW3QFr/676/A53BH7j4QEiheEBD7ZvBZOHSQLi4OUFX
IbLB+n7rQJ5yK0H/R6fBAs+eQLOrMEGxiaPB+9qQQJmPJEFFGLDBX9LOQD+tGEFfz7zB1XcCQXYJ
HUFte7jBmrLAQDbo+L/Il7XBUzDqQKeJsr85rKzBzmy+QNnLDkG/RZ3BBCOIQNp3CkFreKHBUhvu
QH127UCyl7bB+h78QICuAkFvAKrBFu7lQBWb/z7DPbfBtf+uQCZ5UT7HwbrB4s+JQDbOkb/VaqjB
Pu2rQJeIGsDe+KLBAyPrQKyOUD9Is6DBJ8W9QA1K0D+Fu5rBpj+hQPs5+ED3z7LB7qyUQEpOpz8r
qqvBZOWbQAr2cUBztYXBsdHHQOp3LEAu8YjBkszQQOiZjkAJPofB2NPrQGqPKUDyhq/B8Z28QP1Z
OECEg7fBu5HQQKYq0EC11p/BdKaYQHlnyUBvtKLBwyflQIoiqkCXAbDBWSKvQNY/qkCu6rTB6Ppq
QHOdbUBMk6rB+NtIQCImbkDIM43Bz1kTQPpTZ0C4TpnBKkydQGftmb4jdJjB2rvNQFayab8CrJjB
CoHSQMqzdkCuWJ3BMPWJQKRBcUAzcJrB5CTFQKSxKUEkGbHBZUHlQOL3GEHeSbXBstu3QGq+JEG2
gqXB/ynEQN6Gnr/TQ6/BIorSQGg2AkHrjrTBPk2mQIzjDUE1gqTByBfCQKBbRD51CLTBTnGnQIfG
rr/BVKXBUl3IQKCdVz8ke6DBxjfGQMgE+kAz4qjB96q2QGH/oj+XjavBcya8QAjdeEDDKqjByDC6
QPapbED3LIrBqMDIQBl5KkDGUa/BQ5mwQHP+zUCAq6fBxErHQC4zqEAAg63BQ26OQKywdEAHgKXB
pmmyQNDceEAOp5XBKdtKQFzJaUDra5XBoLC2QHR37L7QtZzBZTv5QMIAeUAEy5vBJxTUQAufOUFp
YbHB1oOoQDKPKUG5N7bBTdvsQNaOHEH9sL3Bm1QBQaTFGUHcd7DB8urTQHZzJkEsRKDB4PCeQPsj
MEEeB6PBJm65QEfL+r+uWLXB22jlQP0hu78P/qzBxuK1QFknAUFepLnBIpHqQOM77UBNV7fB/QOg
QLN5CkEcBZzBeD+IQAfBDEH8DanBcnrhQLwt3z58gbfB9JupQL2FVT6oWrrB6GyGQLI8jL+ZfKfB
YT6oQJjgGcAqcqLBVl/rQBHXQD+hD6HBsiXAQMEUzz+hlprBAE7jQOSl+kAY7qPBbJ6TQEO9rD8y
A6vBjbqbQJ1HcUDOzYXB32vIQO8sLUBU1YjBvEPQQKExj0AMSYfBWuHrQLMYJkCEdK/Bxd68QMaf
NkBidrfBREevQJxKxkDsFp/BdOCPQCKG0EDg2arB/R7qQBwcrUBgK63BsNi8QOaMp0Ds6bXBcc1s
QIFedEB5yKrBtWlJQEwhaUCMbI3B8m0UQBK7ZEAulZnB/AqeQL3Sir5o15fBLqbNQHrob7/jopjB
tlzSQPSteUDKIJ7B7NGJQOBQd0CHxJrBSU7FQFpbLEH6FbHBSq/nQATJG0FnIbTBT1OzQDgJKEEY
1aXB1ZWzQMvfEb+Q46LBFv3VQOLVBEE4V7PBw7aiQLgDEUHD0qTBPzGrQK5JbT+Tc6XBPi3KQHb2
pr8SHazBViTPQHKlLT/NrrfBIHbFQDZsAEGI3qfBFlzNQIiZwj/HOq3BeMu6QPqMgkDVrKjBJYa7
QAyFcUCxxIrB4b3FQI5bP0BjHLHBsoWxQOnx00CxTKbBqFnFQKbHr0DuMq3BH12NQLq2fkAazqXB
qfSyQNxIcUDDTZbB7CFLQE5PdEDBjZXBxTS+QKgrMr+MZ7bBsRX5QCaof0BuvZzBNJ/TQJ9uPEEY
QLHB1QWrQN+LK0Hq7LbBSD/yQCLJHkHKY7zBLIoBQRZuHUGHqq7BR9XMQB6XKkF455/Bv9iYQPMz
M0HTRKTBMNHHQJ0BIr+VtJvBtr6UQCMQiL+bVKHBZ327QFXpAkGEDbnBpZTvQG/H8kApR7XB57mY
QGMxDkH1gJzB+g+HQI37DkFNLKrB6W2LQBGjgj9ZK6nBmdirQKDTvz9x753BOgntQGuxnb/QCavB
nJDAQJg0F8BOFazB6Su8QJCcmD++2b3B1K7wQEaoHD+cTLrBEWzgQB8iAkHMRqLB89TsQJ9MvD/Y
TqnBP0SdQI7naUCeX4bBPifRQEJSPEDoxYjBfpfKQJdBl0A8gYjBKBjjQNERVEBvOLXBkhqrQDaa
PUD127bBOz+1QNIMy0AU1p3BuUePQEoT1kCNRKjBDU7oQEbfs0CHXq3Bm524QDguskCCYbXBc9Fp
QH2Nf0C69qrBshJLQJ0UbUDdmo3BmcATQJQ9eUAShJnB3rjJQKnsob/GUbzB6EeeQEHKKb9X4rbB
embSQAAQf0AneZ7BbCOKQLY2eUDf/prBwYzTQMb4LUFDp6zB4SunQIToJ0H9QqjBN/3iQOhvHUE5
8LTBGx+3QNATAL/FnqHBdtunQBdNEUG3a6PBhq7jQAi2BkG/KrDBtZ2uQHrofD+fF6TBWjiyQFZS
q7+3z6vBNwDIQMoRFz9+8LbBZRa3QISPAEEvtqvB7CjNQAVgwD8rDK3Bj3G6QAXlgkBCCanB4ia8
QI6+bUBQMovBFsHFQEDMPUApN7HBY623QFby1ECwO6bBxs3BQADTr0BHIq7BVVyNQHqYfUDdC6bB
gjKzQAsLgEAbfpbBpEJMQO7hbkCZ0pXBUU7PQG7WVL/yOrTB7VT5QDgmf0CFRZ3BYaHRQPTJPUGY
e7DBi4rqQGmWLkE6/6XBpuedQMhzM0FBCaLBprWPQKxlKEE80a7BdkDNQJGuHUHe27vBYr8BQVG2
IUFMjbfBy9bXQOguHb8JgZ7Btg+gQIl/Wb9alpvB9MG9QMkfEUEviJzBgWSHQJYaDUGJvqDBwsvs
QDiA9kDicbbB8UT7QN8cBkFRpKnB/0aNQGWWjT+5wKbBwtSzQOI5yj9sypzBCiy6QLLBGMCbCarB
vvaQQBY3o797pq7BLF6nQAQFND+lHLrBckffQLpKZT8zEr3BxhegQNolAEELX7LB403uQDhWtj/J
JqrBa2CeQAaockAVi4bB+DTJQAikLEB1corBoZjTQGYXjkDEIYjBB0/jQASTUUB9TrXBv1+rQOb1
OkDqB7fBFDnQQNk91UAV7Z/BJBmYQJ4hz0C0oKLBDXnjQC1VskCHn7DB2PasQJX8skCGLrXB54xp
QGx9e0ALKavBYFJMQAUfa0Aj1o3B8CEVQIy+akB42pnBmnXtQCIVb79ArrHBngPLQCKQsL/j1brB
lrnSQBFadkD04JvBFvaJQKiyd0CMrpnBiK7OQEHiKUEH/azBCHWiQN0TIUFKpKnBLNzhQOuCHUE2
j7bBOma7QOp0GL9EsbbBWvmjQPqtCEHp2afBzKLiQCQ2BUHWabTBMMXLQPbmWj9BlbfB0LPGQEqk
mL+ss6vBGMvEQGaxhj/4haPBbKO0QOIO+0CmJLLB3Oq5QPfx3D/IY67BDoq+QBePhUAXj6bBHHG3
QKw1aEAVDonByr7MQM07S0Ctf6/B5OywQLOjyUCmxrHBHNbKQED+tEDTqqjBUnqQQMClgUC3iqTB
yrOxQNjHeUD/d5TBn+FIQJYlbUABPpXB+BW1QGQ7sL6/FqPB6hf5QP9dbkACF5rBxCXLQEvOOkF8
Pa/Bq63kQBiSKEFQJqbBAHSYQPfoKEEpK6LBFh+LQLelJEHQ+6/Bs1vOQJClIEE4t73B22IBQXwa
I0EL8rfB5G+YQIadGr8WtrfBM07KQJMnmr/0AL3BJ5O5QOgNBUHCJKHB7qWDQDrLAkEU/aXBPljv
QKCk+UB1d7vBrxD3QMDVAUHocq3BSO/uQGmzWj8FMLfBkGvBQBKeoz9aSL/BFAu5QHUCDcDmEqvB
OrTpQMCqn7/w4KrB/7nnQHW0hj8icaLBF8G1QJhU0D97CJ3BNICgQOcVA0EBzrjBNemWQOVW5D/l
L6/BGZiYQBUeb0C954TBimrDQOCLJkCHAIjB8qPOQKPgikAIroXBW9zvQBWURkBYUa/BIn3CQO1W
ZUA4QrfB0gePQBUmwUBxtrDB6oK8QACyvED7bbnBWUXFQHJkx0CaS6HBRf3sQH9btkApxarBUgdz
QHz0gkCUGqrBuENEQOd7ZUAcUo3BpBwUQK69bEDAxJnBnTCVQLluq76ruqPBd2e9QF46Pb8mCpzB
CrPNQK93h0DPmZ3BesaHQEN6cEDMbpnBMGrJQKu7J0H+3rDBAc/nQJjOGEEi/LbB4iGkQCKNGkEz
V6zBDHzAQLoDN7+mp7XBsIP6QK+cB0GKZK/B2Jm0QEXZCEGtwaTBzHvQQNL1PD+P9rbBTLbIQHkw
nb9fM6rBDHbFQPTRij/9PqPBESHYQDGL80A1l6nB2Py6QE8K0j8Vi67BQ+KzQONUhEBz+afBLzi8
QFgld0C7DorBEfjIQNvZSECtIrDBeKHIQLhjz0BgWLHByDOmQPTHsEA4vqzBgqKKQPTWZkB6ZKTB
1Y2wQGP3gECOWJXBRTtIQEG5aUBlC5TBuL61QDXPnr5xNKLBGIP0QHkbjEACtZzBTNDaQGB7L0Fj
RqrBSe28QPoHNEFqVrbBaxPWQPffEEFUeL3BGBIBQX1HIkGyZrrBD4yOQCE3JUGB4afBII6SQJMa
E0Fl/rLBb+2dQIreP79bTrfBTnjRQOcyrr+DX7vBxYIHQXXE+UCnH7TBEPgGQQG9D0H6R6nB8e7B
QPyeEEFjmZ3BLiyZQHOo/UAec6LBBGbzQCdMRD+C3rXBxmPIQN3cjD+TBb/B4US6QG9jDsBeTKnB
CmzrQJzMpb8E16jBFFDoQGwCjT/MBKLBr961QLlN2z/7Kp3BmhPoQFrD40BLz6LBICOYQNX5yj/q
sq/BdROfQFrubUA3QoXBdhnRQGvjPkCFMonBMz7NQPJDmEBiQIfBge3rQPyvTEC9Oa/B/f+/QEez
XEB2RrjBVEO7QHC73kCThrjBkKTkQCoPvEBSl7PBW4CPQMAgqkB0QrPB+bqVQE1FwkDBT6bB9nBo
QLwDTUAcGqnBVGlIQOtLcUDKGYzBQnURQBD7XEAX3ZfBoPaVQPTznr5NI6PBPg29QBj2JL+045rB
rCrPQG/EgkAm2ZzBmLKHQOJ2c0DMeZnBlrW5QLR4KUGXlq/B5znLQLSQHUHofbnB4obOQJJNIUGu
LqXBmCe/QNyUE7+qmLbBVJLGQLQYBUErR7jB4OzJQGriCEHyNaTBfXzOQAwqYj9QwbfB9e7JQISE
kL8bZqvB/BjHQMzikj+w0qPBO0feQISp+0BJHa7BJMS6QBzr3z8f067Bcty2QPI3hkA0cKfBajS6
QNxFbUCosYnBEWjJQDgCT0CuJbDB2BPgQCBhykDaD63BXgS0QLyLtUD1CavBMxyLQByodEChi6TB
NkSwQNTxf0Ab7ZTBm7BHQGT/Z0BoSZTBHBi4QEBKgb6T+qLB/wb2QImcgEBEjJvBinLAQDupOkGi
cbDBH+uWQNv3JkGxHa/B5le5QFTIIkHKm8DBYUrtQMmGIUEMfbrBarbwQEF/JUGTN6XBEc6+QAfz
KEGmTJ7BFk6cQI9mHb/Xy7fB8A7PQI0Vmb9cr7zBTnykQMzmAEFeoLfBcnrUQCAx+kCRTb/BEUXa
QOhkA0GW6pzBYcqnQOGuBEF9wqPBMpbxQDC3aj9pJrfBCoDEQCEkoz+Wl7/BdTa8QKW/CMBfkarB
nebsQIFJl79Ve6rBjRvqQKv+lT9P7qLBQUW4QEZi3z+tbp3BsnL/QDSXA0GPu67BE7mXQBaF2z+B
m6/B7GycQGdCbEDyAIXB4QPKQK6ILkAuIonBM6PPQOaCj0DMhYbBTIvsQKAoUUCesq/Bmuu+QAXV
ZUBgDLjBMFPtQIsmvUCYg7TBK0/1QO5IwkBMV6bBfVuhQNYDt0DdfbLBH3ujQOPax0AZw6TBkQ9n
QCZuZ0DgsanBanpHQKmVZ0B2SYzBZgkRQA2jX0DyUJjBcS6YQDqphb6tkKPBZcrAQPH+HL9d15vB
Fo/UQK30eUA3vpzBtMGLQEKyd0CkTJrBijSeQLGaIEFIm6zBh4OUQFBuDUFf+LPBsjW5QG6UGUFe
8aLBbXe3QKA9j79o+LDBcke+QKRlAkH5obfBfBfjQBb/DkGMuabB1nfIQLKikT7CsbPBTCTDQJxJ
wL+aaKXBDnDEQDZHYD9PFqDBCtvaQIgI90DOEq7BMky4QESBqj/Yg6vBAFS/QEnVe0BstqfBizO6
QOQrcEAVvonBFWHMQB/KLEATna7BPnHHQG8j0UCvlafBehHMQGnhpkDi+q3BSmGRQCtjfEAXU6XB
xbyzQPkafkB+QJXB54BNQBcOb0D9hJXBAjezQHwO9L603p3BCB37QDl7eEAj8JrB5+yvQC7ILEEo
KbHBX8B/QElzJ0HavKnBLbuAQA7NAUGbl6/BLvWCQCoeE0E3DLvBseLAQCGrJ0G1B57BM9amQJkM
DkHhIp7BOHKUQN9XkL8K27HB/K3FQJXo7L8wf7bBZfi1QGUy6EARU7zBV23QQKGaDUGbrbzB7Af2
QH3iGkF5KavBGjL1QO+hCUGoq5/BzajrQBaJiD5Aj7PB1V69QA/6ED9BvLvBW4e0QLE+HsBEc6PB
PiPmQCYKyr9Kr6TBA4HnQCDmWj/iVp/BThu3QLwhyz/NQZrBrNf5QMp27EA6TrHBmkKVQHYZtD8j
HKzB7XabQFHldkB2iYXBDPzGQD5vL0D0a4jB/gHRQEHfj0AmpobBO1rvQNIMJkBwFK7Bs0LDQAdw
OkCx8LbBa3DYQPEbzkB36p/BKVelQOdr10BeEqbBkbPtQPGro0ACc7DB6pu3QIEPqUDDHrXBRspz
QFWdf0BcvqrBL5lKQA57bEDCiI3BZtoXQKsGa0Am2pnBF02TQL9O4r4nY57BKrG7QBavPb9+c5bB

> <OMEGA_E>
XH8QP9DiEj8ogiw/lB8vPwSYMD8StjM/jkozP3BHNj8=

> <OMEGA_NBR>
      7790

$$$$
50253509
  -OEChem-04172616093D

 57 59  0     1  0  0  0  0  0999 V2000
    6.5760    3.8302  -19.6598 C   0  0  0  0  0  0  0  0  0  0  0  0
    4.3029    3.7715  -19.2711 C   0  0  0  0  0  0  0  0  0  0  0  0
    6.6103   10.6455  -21.7672 C   0  0  0  0  0  0  0  0  0  0  0  0
    5.2158   10.2755  -21.2312 C   0  0  0  0  0  0  0  0  0  0  0  0
    7.1324    9.5662  -22.7350 C   0  0  0  0  0  0  0  0  0  0  0  0
    6.4385   -1.2340  -21.8817 C   0  0  0  0  0  0  0  0  0  0  0  0
    5.2386    8.8935  -20.5565 C   0  0  0  0  0  0  0  0  0  0  0  0
    7.1572    8.1788  -22.0639 C   0  0  0  0  0  0  0  0  0  0  0  0
    6.2453    0.1989  -22.4302 C   0  0  0  0  0  0  0  0  0  0  0  0
    5.5193   -1.5099  -20.6757 C   0  0  0  0  0  0  0  0  0  0  0  0
    5.4101    0.8931  -20.1765 C   0  0  0  0  0  0  0  0  0  0  0  0
    5.7537    7.8031  -21.5275 C   0  0  0  0  0  0  0  0  0  0  0  0
    6.4004    1.2598  -21.3087 C   0  0  2  0  0  0  0  0  0  0  0  0
    5.8534    3.8752  -21.0015 C   0  0  2  0  0  0  0  0  0  0  0  0
    5.8236    3.7943  -17.2423 C   0  0  0  0  0  0  0  0  0  0  0  0
    6.2127    2.6839  -21.9491 C   0  0  0  0  0  0  0  0  0  0  0  0
    5.7684    6.4551  -20.7778 C   0  0  0  0  0  0  0  0  0  0  0  0
    6.1052    5.2467  -21.7025 C   0  0  0  0  0  0  0  0  0  0  0  0
    4.4342    3.7784  -20.6517 N   0  0  0  0  0  0  0  0  0  0  0  0
    5.5802    3.7511  -18.6885 N   0  0  0  0  0  0  0  0  0  0  0  0
    3.1564    3.7446  -18.6430 N   0  3  0  0  0  0  0  0  0  0  0  0
    5.7004   -0.4610  -19.6567 N   0  3  0  0  0  0  0  0  0  0  0  0
    7.7845    3.9263  -19.4777 O   0  0  0  0  0  0  0  0  0  0  0  0
    6.5482   11.6064  -22.2992 H   0  0  0  0  0  0  0  0  0  0  0  0
    7.3078   10.7388  -20.9218 H   0  0  0  0  0  0  0  0  0  0  0  0
    4.9002   11.0304  -20.4960 H   0  0  0  0  0  0  0  0  0  0  0  0
    4.5014   10.2568  -22.0674 H   0  0  0  0  0  0  0  0  0  0  0  0
    6.4751    9.5265  -23.6162 H   0  0  0  0  0  0  0  0  0  0  0  0
    8.1526    9.8304  -23.0501 H   0  0  0  0  0  0  0  0  0  0  0  0
    6.2070   -1.9555  -22.6791 H   0  0  0  0  0  0  0  0  0  0  0  0
    7.4855   -1.3578  -21.5679 H   0  0  0  0  0  0  0  0  0  0  0  0
    5.9006    8.9338  -19.6789 H   0  0  0  0  0  0  0  0  0  0  0  0
    4.2190    8.6346  -20.2351 H   0  0  0  0  0  0  0  0  0  0  0  0
    7.4748    7.4269  -22.8014 H   0  0  0  0  0  0  0  0  0  0  0  0
    7.8708    8.1957  -21.2269 H   0  0  0  0  0  0  0  0  0  0  0  0
    6.9986    0.3887  -23.2090 H   0  0  0  0  0  0  0  0  0  0  0  0
    5.2386    0.2828  -22.8656 H   0  0  0  0  0  0  0  0  0  0  0  0
    4.4713   -1.5166  -21.0099 H   0  0  0  0  0  0  0  0  0  0  0  0
    5.7718   -2.4882  -20.2409 H   0  0  0  0  0  0  0  0  0  0  0  0
    5.5068    1.6235  -19.3597 H   0  0  0  0  0  0  0  0  0  0  0  0
    4.3835    0.9177  -20.5708 H   0  0  0  0  0  0  0  0  0  0  0  0
    5.0588    7.7292  -22.3769 H   0  0  0  0  0  0  0  0  0  0  0  0
    7.4236    1.1960  -20.9098 H   0  0  0  0  0  0  0  0  0  0  0  0
    4.8665    3.7126  -16.7062 H   0  0  0  0  0  0  0  0  0  0  0  0
    6.4770    2.9572  -16.9554 H   0  0  0  0  0  0  0  0  0  0  0  0
    6.3102    4.7455  -16.9807 H   0  0  0  0  0  0  0  0  0  0  0  0
    7.1548    2.9414  -22.4550 H   0  0  0  0  0  0  0  0  0  0  0  0
    5.4067    2.6038  -22.6934 H   0  0  0  0  0  0  0  0  0  0  0  0
    6.5234    6.5064  -19.9794 H   0  0  0  0  0  0  0  0  0  0  0  0
    4.7757    6.2904  -20.3336 H   0  0  0  0  0  0  0  0  0  0  0  0
    7.1649    5.3070  -21.9913 H   0  0  0  0  0  0  0  0  0  0  0  0
    5.4760    5.3044  -22.6030 H   0  0  0  0  0  0  0  0  0  0  0  0
    3.6791    3.7257  -21.3053 H   0  0  0  0  0  0  0  0  0  0  0  0
    3.1344    3.7052  -17.6440 H   0  0  0  0  0  0  0  0  0  0  0  0
    2.3016    3.7633  -19.1616 H   0  0  0  0  0  0  0  0  0  0  0  0
    5.0854   -0.6488  -18.8909 H   0  0  0  0  0  0  0  0  0  0  0  0
    6.6477   -0.4851  -19.3371 H   0  0  0  0  0  0  0  0  0  0  0  0
  1 14  1  0  0  0  0
  1 20  1  0  0  0  0
  1 23  2  0  0  0  0
  2 19  1  0  0  0  0
  2 20  1  0  0  0  0
  2 21  2  0  0  0  0
  3  4  1  0  0  0  0
  3  5  1  0  0  0  0
  4  7  1  0  0  0  0
  5  8  1  0  0  0  0
  6  9  1  0  0  0  0
  6 10  1  0  0  0  0
  7 12  1  0  0  0  0
  8 12  1  0  0  0  0
  9 13  1  0  0  0  0
 10 22  1  0  0  0  0
 11 13  1  0  0  0  0
 11 22  1  0  0  0  0
 12 17  1  0  0  0  0
 13 16  1  0  0  0  0
 14 16  1  0  0  0  0
 14 18  1  0  0  0  0
 14 19  1  0  0  0  0
 15 20  1  0  0  0  0
 17 18  1  0  0  0  0
  3 24  1  0  0  0  0
  3 25  1  0  0  0  0
  4 26  1  0  0  0  0
  4 27  1  0  0  0  0
  5 28  1  0  0  0  0
  5 29  1  0  0  0  0
  6 30  1  0  0  0  0
  6 31  1  0  0  0  0
  7 32  1  0  0  0  0
  7 33  1  0  0  0  0
  8 34  1  0  0  0  0
  8 35  1  0  0  0  0
  9 36  1  0  0  0  0
  9 37  1  0  0  0  0
 10 38  1  0  0  0  0
 10 39  1  0  0  0  0
 11 40  1  0  0  0  0
 11 41  1  0  0  0  0
 12 42  1  0  0  0  0
 13 43  1  0  0  0  0
 15 44  1  0  0  0  0
 15 45  1  0  0  0  0
 15 46  1  0  0  0  0
 16 47  1  0  0  0  0
 16 48  1  0  0  0  0
 17 49  1  0  0  0  0
 17 50  1  0  0  0  0
 18 51  1  0  0  0  0
 18 52  1  0  0  0  0
 19 53  1  0  0  0  0
 21 54  1  0  0  0  0
 21 55  1  0  0  0  0
 22 56  1  0  0  0  0
 22 57  1  0  0  0  0
M  CHG  2  21   1  22   1
M  END
> <OMEGA_C>
OW7SQFIidUBeR53BU7GJQGVgcUAzK5rBbofTQAdUKkFLI67BOuimQHZoJEFx2anBbTzkQBcPGUFW
4bXBTAjOQAf1nb++Da/B5aKnQKtLDkG+c6TB8wflQHHcAkHigrDBntnHQBeuSz4JcbPBJp6wQIdD
wb/eZ6XBsR+tQKqiZD+NaaHBeh64QNSy+UA+OKzB9c/MQKg/oT8eeKrBzU67QPEDeEAbA6jB3lq6
QFvVckAs8InBOc7GQOzEK0Cpl6/B8pa4QEOQzkDZOKbBsl3DQCXlp0DInq3Bl+SNQMnRcUDGNqXB
wJCyQKwRcED/gZXB3AJKQOSmb0DUJJXB+Wm2QCQH7L7uQJ3BYRr5QJFIe0BE0pvBrYrRQJ2zOUGp
ZLLB59npQEfSK0HtX6fBWM6cQKl8MEHe96PBhguQQM0bJEH4ibDBbTTPQJ1sGEH/7bzBI3ECQTxJ
HUG0ZrjBq5/GQAtO+r/dbrXBZInvQE/Mrb8fi6zBC9K8QNbwDkF9bp3BFQKHQFUnCkFi4aHBTTHv
QIKp7UAzabbBR937QGshA0Gz0KnBkfTfQBX+xj4LrLnB26KnQLXOkD6q7LbBGBWPQKcfwr9RFKjB
h7K4QHs/H8By7aHBgzewQIHNzz+l4JrBm0WMQH3taj8BkaTBheGhQE5V90DzA7PBu43tQK4VmT9R
R6fBkLqbQN2abUBZpoXBlkPPQBNCPUCnpIfB1ezJQC/bl0CH2IfBcPTkQKFAPEDco7PBAQStQDGl
JkAYjLXBw7/QQKM00EDS1Z/BVtKYQNtKyUAgq6LB7EblQKPSqUAZ7q/BMzuvQLW9qUDa0rTB8XZr
QDZxbkBMcarBPJpIQEQibUDpJo3BrU0TQNrZcEDuSpnBV7uiQBgWJr+ZIJfBxbnUQD9f+L5csprB
iMLRQBbxc0Dr1pzBmQyJQOz8ckBou5nBIcvGQOocKEGpvbPBXW/rQNfSF0HhCrXB4yKwQIh/JUHN
5KjBQpO8QFX4dL90abLBBXDbQDe0AEG2d7PBxJ6gQB9xDkGSUKfBt6bSQH5IyD7rnrTBPbrHQNjY
tr9zFqfBD8WuQHuzZD8TkaLBW/3FQFav/EAPWajBtd/PQOq7sD9v96rBy9i6QD7xe0CnjqfBdb65
QPBcdUAijInBRczFQD8aM0BYnK/BS+WzQCmlz0DayaXBg+fFQI4zqkD/kKzBrzqNQLE5d0A0yKTB
1eCxQIEbbkA9FpXBtPFIQBR8ckA+pJTBYzi2QE1DAb+K3p7BEVH4QFide0DLTZvBQATUQFFjOEEy
SLTBR16vQB6rJUHNMbrBugX5QHxhGUGAH73BwisCQcpAG0GzEK/BvKPGQIqZKUH2caLByHaUQMlb
MEGVlqjB67OZQH0EVr9MHrPBcqrHQNfu2b/NQbjB0gDEQHet+UA+vrnBGLX2QP5B60B0A7TB6VmS
QAXuDEFITp/BbVmIQFi/CkEvaq3Blpb0QFrATz4IaLbBGETDQArZWz+MmLvBuyy6QPeaG8AJ06XB
HL7qQMhsvL/UQabBWlmwQGDOxz+BlZvB+quOQA38cj+xJqbBQ/bdQJRNAkFEN6LB7XzvQMTHtT8Z
HKfBt1ebQBh8bkAlMoXBxP3PQPO1QkCaA4fBb87HQAkrmkAcyIfBlAPiQPrGR0CLMbTBV06qQOtC
LEAYCrXBIMm6QHy4yECJVZ3B2w2RQEqv0ECNA6fB+OboQJNhrUA8Eq3Bbxa4QD7aq0BMprTBdw9q
QEYWd0A9BKrBJuVHQEVPbkDhqIzBMRMSQGdGdkB7u5jBaUWaQMw1YL82WJzB+trKQOwl875wwpjB
BurRQA5dekAbJZ3BqI2JQMold0Br9pnBWsGvQJkpJUFgD6zB7AGdQPxnFEHlxrPBfnDHQBASGkHc
0qLBxrfCQJPDir+i0bDBtg3AQB8aBUEdCLjBwb3rQOgLDEHARafBkUbVQOK3nj6uNbPBN2HLQJuE
ub8NG6XBntaqQNEXVT/TOaLBEuTaQBpW9UC+867BZWbOQFTpqT+N3KnBRL26QPQXfECh6KfBoDq6
QNpjcEDL4InB8avEQMr7LEChKK/BUeLBQKwS0kD6nKjBS+XFQBfEpkDykK7BtFiNQAq7fEAAAaXB
9TiyQEasfkDGUZXBaeZKQJJIa0As35TBoSW1QFJ+A7+qpp3BJbj4QPpmekD7tJvB7EfGQEp3L0G5
cLDB+6GVQN36LkEqyqjBtaGEQOb6CkEMhq/BlBuOQJy0HEGslbrBkfzUQPpBJkEddJ3BiNOwQND8
D0EsWJ7Bjf+fQLS4ib8rRLLBsfDRQBfi6b/qErbBTJGwQD+n8EA9r7zBhbfVQJc6DkFPQb3BUzoB
QSxMFkFZn6vB1D/8QCk8BEGKjaDBNdf3QIFFVT49qbTBmqrFQGiyND/5brrBQOG/QNo4HsANnqPB
agnuQPZos78znaPBhVKnQMPIxj+topvBc5KMQOEZRD/4r6bBZr32QCbV5UC0r7LBwXXsQCKmtD8O
VaXBMB2cQJZmd0A2aIXBLPvGQLh2L0DDsIjBrJnRQEjNj0Cy94bB6bfgQK3GPUBfC7TBkMCoQJyz
I0APZLTBS3LPQCMBz0Boh6DBVfGfQMIb20B3CKjB2CfnQNqbo0BNVrHB106wQFq2p0BQg7XBYeVp
QP1JgEBqKKrBw4lKQJm/ZkBa5IzBaxQUQGzAZkAE9pjBZbaZQIEMcb/CXJvBoPLHQCu9wb64RJfB
+KPSQCR4f0AicZ7BgEqKQHIvdkD0GJvBZMzSQDn9LUHSYKzB5XCmQCF8J0HvIKjBUFvjQF+jHUFe
oLTBMhC2QLvBCb9DR6HBNamnQBbTEEFbWqPBI5rkQAjkBkFc4K/BgHjGQC4wZz8NP6PBDGivQKeV
qL/avavBpOfFQOgpDj+paLfBmey3QFJSAEFjpavB3fW2QI8Mvj8IKq7BFQG7QKxxgkApEKnBSzm8
QIjZcUBUFovBd2vIQBr1OkAwzrDB0eC4QAhX1EB9P6bBuBDDQK49r0B8L67BqbKNQCD7fEDyJqbB
X3CzQMy9dUDZm5bBEVxMQPCPb0Ac4JXBwdDNQGboWL8k87PB0mz5QPpigkCVHZ3BR3LQQILLPUFI
NLDBGGrpQJ3QLkHGpaXB9oCcQNbeMkEU5aHB1UKPQD/bJ0Gkv67BUwnOQJq3HUHloLvBOe0BQRo6
IkF2HLfBU5zNQKWCib8ZV5zBCV+XQLZl+L6U/ZzBuzG9QIrAEEFJZJzBcDWHQHFPDEF9zKDBl6Du
QOIY90AGH7bBPrX7QHd8BkGkPanBm726QGyHxj+HxJzBBqvpQPF4ZD8HLqPBv6q0QOjjGMCEQ6rB
Tn+OQA5+lL/Mma7BKgStQIplDD+rob3B1cPjQHn6dT/1wLrBdWShQGes/0ARZ7LBZseTQCyZwj9H
JK7BhfqdQET3aUDOsYbBul3RQPI2O0A7ZYnB2ezLQAC6lkCCiIjBI5TrQM2ON0ALyrDBxyS9QIv7
S0CO3bjBaonRQE6p1ED395/BfWWZQCxMzkDknKLBkdvkQJFxsUA7lrDBsIyuQFGeskBJSbXBr2Jq
QJ6MfEDvS6vBe69MQGp6aUBp6Y3B3s4UQPmUcECT2JnBSm/rQOrjZ79N9bDBWWrLQAPOuL+3V7rB
DJDRQK9PhUBRfZ7BfPaJQKAnekAvAJvB78DFQPK5KUFD6K/BLYzXQGNTF0EgtLbBVYiiQOITIUHd
gqjB6bu0QBeXBb8VY6LBaj/rQEHtBUFYfa/BTom0QEa8D0Gu7qDBVp3DQPLncj/FKqPBL9rGQIbM
q79CwqvBe0PJQHr3KD9nMrfB2CXMQJ8K+kBqt6bBzUy3QJfKxj/uMq7BkdK5QJ3ChEA5KanBTaW8
QK42cUC9TIvB0u/JQIb0PUBTV7DBI3irQBS42ECE+6rBUvjAQFVWr0CJi6/BfMeMQGQXf0A2HKbB
+6yyQFwIg0BigZbBBIRNQA7WakBBq5XBjzy6QDTwOr+pDrbB9Hn4QOQlhUADOZ3BsKPfQAisMEFC
D6vB0ky4QGQcNkGiLbXBBHG9QHZJEEFRcbvBYlXwQLaUHUHvHLzBu4qVQN1SLkFftqPBb9mIQNQU
GkFiaK3B7hPAQF+wc7/czJrB2pCRQE2mDr+goaLB4lb1QOoE8UBxmLTBYbADQc3FDEHadKvBVEHL
QMtsF0E5a5vBvLuZQI7zCEGXWJzBdju0QIlTxD+EyJzBs5LmQKjUfT85MqLB2vjpQGnurr/GMqvB
tEG6QNyOF8CEWqvBgpy+QAfphj83+L7Bjm7sQLinLD9o17bBBf3fQBLM6UAUsKDBvziUQBv3yz/F
2q7BMgCfQPmQcUAcjobBhGrLQJFkMUB05YrBkvzSQEiLkEDZEYjBttfsQGLGOUBKVa/Bz3TCQEuB
TkADsLjBbB+WQCp7z0CgYKTBxJaYQP6450CLZLHBD6jjQAontUCm56/BR4q0QKllqkBbr7fBzyxo
QJIFfEA2L6vBPQdPQNbBZkD+r43BEzAWQPc0Y0BIk5nB2ZrGQG49o79QArzB7k2aQFjzPL/+krbB
/8nPQOPYgEBk+ZzBbh+IQCF3ckALiZnB3J22QCa8KUHwCrDBl1PNQBAHHkG7UbnBNs7HQMRfIkHG
FqXBJsDgQGL3CL9db7TBNwzKQPyJBUEuDLjBqdzEQJ7pCUH6AKTBJqfaQNgadT9yJ7fBbvK4QB0p
jL9txq7B0/anQNm0kD9SkqfBf8PdQAHh/UDJQq3BxGXPQOdF4z8mC63BABW3QD6phkC8cKfB6Ke6
QOKMb0B0r4nB+R/IQMEwUUDnb7DBu3TgQOWzzED+/KvBkHO0QF+NtkBUv6rBMhOLQKcAd0B+maTB
lnixQCrkb0DvMZXBdjlIQOVvbUCSQZTBaZ2vQET5lr5dJKXBwL32QCPdgEBdvpvBzvW7QO0MO0Hi
4LDB8xuUQC5bJkFXcrDBgk2+QHW7IkH/68DBZknvQJCnIkEJZ7nBkHPpQHNOJ0GmT6TBQ8S0QJji
KUH2tZ7BzDXmQI2JjL8G37vBp6f8QGVoJb8eJa/BNDioQCCyAEHOR7jBp3zbQHxV+0C2mb7BpMTS
QCIBBUEYTZzBbhOjQAoEBUGkUqTBZHr4QCKsrD9on7rBF5DAQE5uhz+fAb3B8GydQMahhr8oQLTB
FNu+QPXtCMC+cazBzTmhQFNC1T9oEqDBizmMQP9Fmz/T8qzBK7D+QBknBUFDEa3BYKLqQG433j9g
eqfB/FmdQJucX0BbPIXBpnjTQPGTP0CF9IfBYgvGQAubl0DbO4fBy9/mQAr7akDSQbPBpdmwQHfw
UUDHCbfBJ1zwQBR6v0DKG7PB2rrzQFyRxUAP2KTB+YmjQGOUuEDMcrLBxh+iQILOx0CSmKTB+E9m
QKy+bEDMwanBBNlIQGIOZ0DfS4zBPn4QQHb4b0ArLZjBwISVQJIgK78im6HBpoPIQNF8ub5gJaDB
gsDTQCWegEAZBpzBzsuKQATKdUCpP5rB6DS/QISpKUHdgrPBXJDdQMS9GEE0QrjByBi6QB54JkGk
YafBpf/aQFVmJr4/ybbBjj3NQLf+AUEM8rXBnE6qQNy/D0HJ2aTB4grlQHqGbz62H6vB3mKrQOBl
BL8W8LfBzr2YQGHjaj/Kp6jBdurHQETn/EBWyqnBAIvHQLkisD+pLKfBDCfAQNqZf0DTIqfBlG63
QKw/bUDrYYnBEe/QQKkBL0CaNq3ByA20QHD/0EDkTafBBuPKQFGWqkBQ36zBZPWRQG2BekBlNaXB
Uu+xQJlDfkBc1pTBwnFKQCX4akDO15XBQqyQQI21GT9xBrTBfBn6QGyTgEDV8ZnBkGbMQB2xOUH8
CLXBPa6fQIA+KEFaXLfBOJ/fQIMOG0GJ98DBV4L9QO+vGkF1sbTBsjTZQAALKUFaeKPBOMaiQMQg
MkEuTqTB1KPiQHwoLj/VG7zBwIXuQBlhhL++BLnBWyCuQJ9v/0Bq5rnBo1nkQEOh7EDMGbnBtIKp
QLScDUE9HpzBNNuJQILEDUHqHKjBfXrgQNbtJL/b8qXBYUIDQYyBET9doqrBZRGkQGTfNL9FacDB
EGikQKjDtb8xObPBs/CSQOWkrTzMw6PBDA2DQG6B3D/kGKbBHojnQBbp/kBM9KXBOnDNQKBnxD98
l57BHweYQJk7bkDJaIXBR0rGQMkGLkDcSojBMB3MQPNbj0D/2YXBY7/zQBNWNUCwPq7BMnDBQEqP
LEDbG7XBNmG1QPrty0Aump7BKneSQCx10UAd76nBW7HtQJXAr0BqoqzBtzfAQN6wqEC0PrXBRZZ2
QAhvekAi26rBqxlFQLIPaEAU4Y3BxFQWQMeaZUAvcJrBpv+WQJ7FtD+Ra7jBg7tjQPIstD5o4bTB

> <OMEGA_E>
hjcUP+YLFT8INCo/PnEuP5weMz++YTo/gtdLPw==

> <OMEGA_NBR>
     14645

$$$$
50253340
  -OEChem-04172616093D

 73 76  0     1  0  0  0  0  0999 V2000
    6.5684    3.9732  -19.6894 C   0  0  0  0  0  0  0  0  0  0  0  0
    4.3009    3.8581  -19.3299 C   0  0  0  0  0  0  0  0  0  0  0  0
    6.6535   10.7628  -21.8206 C   0  0  0  0  0  0  0  0  0  0  0  0
    5.2738   10.4320  -21.2234 C   0  0  0  0  0  0  0  0  0  0  0  0
    7.1159    9.6621  -22.7917 C   0  0  0  0  0  0  0  0  0  0  0  0
    4.2519   -3.4505  -17.2209 C   0  0  0  0  0  0  0  0  0  0  0  0
    3.2441   -2.9607  -18.2588 C   0  0  0  0  0  0  0  0  0  0  0  0
    5.9304   -0.6534  -23.0600 C   0  0  0  0  0  0  0  0  0  0  0  0
    5.3017    9.0720  -20.5154 C   0  0  0  0  0  0  0  0  0  0  0  0
    7.1366    8.2908  -22.1013 C   0  0  0  0  0  0  0  0  0  0  0  0
    6.4016    0.8017  -23.0844 C   0  0  0  0  0  0  0  0  0  0  0  0
    5.6078   -2.8738  -17.6519 C   0  0  0  0  0  0  0  0  0  0  0  0
    4.0378   -2.9104  -19.5550 C   0  0  0  0  0  0  0  0  0  0  0  0
    6.2085   -1.2847  -21.6947 C   0  0  0  0  0  0  0  0  0  0  0  0
    6.0159    0.9687  -20.5802 C   0  0  0  0  0  0  0  0  0  0  0  0
    5.7489    7.9645  -21.4877 C   0  0  0  0  0  0  0  0  0  0  0  0
    5.7629    1.6331  -21.9490 C   0  0  1  0  0  0  0  0  0  0  0  0
    5.4617   -2.4793  -19.1327 C   0  0  0  0  0  0  0  0  0  0  0  0
    5.4938   -0.4657  -20.5972 C   0  0  2  0  0  0  0  0  0  0  0  0
    5.8657    4.0947  -21.0368 C   0  0  2  0  0  0  0  0  0  0  0  0
    5.8106    3.6875  -17.3047 C   0  0  0  0  0  0  0  0  0  0  0  0
    6.3715    3.0446  -22.0574 C   0  0  0  0  0  0  0  0  0  0  0  0
    5.7661    6.6395  -20.7176 C   0  0  0  0  0  0  0  0  0  0  0  0
    6.1193    5.4780  -21.6598 C   0  0  0  0  0  0  0  0  0  0  0  0
    4.4429    3.9337  -20.7130 N   0  0  0  0  0  0  0  0  0  0  0  0
    5.5654    3.9652  -18.7259 N   0  0  0  0  0  0  0  0  0  0  0  0
    3.1608    3.6980  -18.7088 N   0  3  0  0  0  0  0  0  0  0  0  0
    5.6920   -1.0226  -19.2479 N   0  3  0  0  0  0  0  0  0  0  0  0
    7.7785    3.9380  -19.4951 O   0  0  0  0  0  0  0  0  0  0  0  0
    6.5903   11.7174  -22.3636 H   0  0  0  0  0  0  0  0  0  0  0  0
    7.3858   10.8528  -21.0048 H   0  0  0  0  0  0  0  0  0  0  0  0
    4.9982   11.2113  -20.4976 H   0  0  0  0  0  0  0  0  0  0  0  0
    4.5280   10.4032  -22.0314 H   0  0  0  0  0  0  0  0  0  0  0  0
    6.4251    9.6237  -23.6469 H   0  0  0  0  0  0  0  0  0  0  0  0
    8.1287    9.9001  -23.1489 H   0  0  0  0  0  0  0  0  0  0  0  0
    3.9801   -3.0838  -16.2200 H   0  0  0  0  0  0  0  0  0  0  0  0
    4.2885   -4.5498  -17.2112 H   0  0  0  0  0  0  0  0  0  0  0  0
    2.4008   -3.6616  -18.3448 H   0  0  0  0  0  0  0  0  0  0  0  0
    2.8656   -1.9623  -17.9942 H   0  0  0  0  0  0  0  0  0  0  0  0
    4.8494   -0.6870  -23.2608 H   0  0  0  0  0  0  0  0  0  0  0  0
    6.4653   -1.2200  -23.8364 H   0  0  0  0  0  0  0  0  0  0  0  0
    6.0057    9.1181  -19.6714 H   0  0  0  0  0  0  0  0  0  0  0  0
    4.2943    8.8388  -20.1403 H   0  0  0  0  0  0  0  0  0  0  0  0
    7.3952    7.5182  -22.8405 H   0  0  0  0  0  0  0  0  0  0  0  0
    7.8918    8.3005  -21.3016 H   0  0  0  0  0  0  0  0  0  0  0  0
    7.4953    0.8233  -22.9691 H   0  0  0  0  0  0  0  0  0  0  0  0
    6.1259    1.2487  -24.0509 H   0  0  0  0  0  0  0  0  0  0  0  0
    5.8554   -1.9901  -17.0455 H   0  0  0  0  0  0  0  0  0  0  0  0
    6.3973   -3.6309  -17.5360 H   0  0  0  0  0  0  0  0  0  0  0  0
    4.0592   -3.9002  -20.0344 H   0  0  0  0  0  0  0  0  0  0  0  0
    3.6008   -2.1765  -20.2482 H   0  0  0  0  0  0  0  0  0  0  0  0
    5.8328   -2.3185  -21.6847 H   0  0  0  0  0  0  0  0  0  0  0  0
    7.2919   -1.2865  -21.5047 H   0  0  0  0  0  0  0  0  0  0  0  0
    7.0959    0.9617  -20.3718 H   0  0  0  0  0  0  0  0  0  0  0  0
    5.4948    1.5377  -19.7962 H   0  0  0  0  0  0  0  0  0  0  0  0
    5.0136    7.8919  -22.3026 H   0  0  0  0  0  0  0  0  0  0  0  0
    4.6782    1.6970  -22.1203 H   0  0  0  0  0  0  0  0  0  0  0  0
    6.2014   -3.0300  -19.7323 H   0  0  0  0  0  0  0  0  0  0  0  0
    4.4182   -0.4442  -20.8266 H   0  0  0  0  0  0  0  0  0  0  0  0
    4.8615    3.7404  -16.7511 H   0  0  0  0  0  0  0  0  0  0  0  0
    6.2423    2.6815  -17.1969 H   0  0  0  0  0  0  0  0  0  0  0  0
    6.5121    4.4327  -16.9014 H   0  0  0  0  0  0  0  0  0  0  0  0
    7.4598    2.9503  -21.9285 H   0  0  0  0  0  0  0  0  0  0  0  0
    6.1534    3.4262  -23.0658 H   0  0  0  0  0  0  0  0  0  0  0  0
    6.5161    6.6964  -19.9150 H   0  0  0  0  0  0  0  0  0  0  0  0
    4.7729    6.4619  -20.2795 H   0  0  0  0  0  0  0  0  0  0  0  0
    7.1847    5.5529  -21.9231 H   0  0  0  0  0  0  0  0  0  0  0  0
    5.5092    5.5685  -22.5706 H   0  0  0  0  0  0  0  0  0  0  0  0
    3.6971    3.8861  -21.3776 H   0  0  0  0  0  0  0  0  0  0  0  0
    3.1388    3.6411  -17.7107 H   0  0  0  0  0  0  0  0  0  0  0  0
    2.3112    3.6325  -19.2322 H   0  0  0  0  0  0  0  0  0  0  0  0
    5.0618   -0.5587  -18.6253 H   0  0  0  0  0  0  0  0  0  0  0  0
    6.6340   -0.8345  -18.9700 H   0  0  0  0  0  0  0  0  0  0  0  0
  1 20  1  0  0  0  0
  1 26  1  0  0  0  0
  1 29  2  0  0  0  0
  2 25  1  0  0  0  0
  2 26  1  0  0  0  0
  2 27  2  0  0  0  0
  3  4  1  0  0  0  0
  3  5  1  0  0  0  0
  4  9  1  0  0  0  0
  5 10  1  0  0  0  0
  6  7  1  0  0  0  0
  6 12  1  0  0  0  0
  7 13  1  0  0  0  0
  8 11  1  0  0  0  0
  8 14  1  0  0  0  0
  9 16  1  0  0  0  0
 10 16  1  0  0  0  0
 11 17  1  0  0  0  0
 12 18  1  0  0  0  0
 13 18  1  0  0  0  0
 14 19  1  0  0  0  0
 15 17  1  0  0  0  0
 15 19  1  0  0  0  0
 16 23  1  0  0  0  0
 17 22  1  0  0  0  0
 18 28  1  0  0  0  0
 19 28  1  0  0  0  0
 20 22  1  0  0  0  0
 20 24  1  0  0  0  0
 20 25  1  0  0  0  0
 21 26  1  0  0  0  0
 23 24  1  0  0  0  0
  3 30  1  0  0  0  0
  3 31  1  0  0  0  0
  4 32  1  0  0  0  0
  4 33  1  0  0  0  0
  5 34  1  0  0  0  0
  5 35  1  0  0  0  0
  6 36  1  0  0  0  0
  6 37  1  0  0  0  0
  7 38  1  0  0  0  0
  7 39  1  0  0  0  0
  8 40  1  0  0  0  0
  8 41  1  0  0  0  0
  9 42  1  0  0  0  0
  9 43  1  0  0  0  0
 10 44  1  0  0  0  0
 10 45  1  0  0  0  0
 11 46  1  0  0  0  0
 11 47  1  0  0  0  0
 12 48  1  0  0  0  0
 12 49  1  0  0  0  0
 13 50  1  0  0  0  0
 13 51  1  0  0  0  0
 14 52  1  0  0  0  0
 14 53  1  0  0  0  0
 15 54  1  0  0  0  0
 15 55  1  0  0  0  0
 16 56  1  0  0  0  0
 17 57  1  0  0  0  0
 18 58  1  0  0  0  0
 19 59  1  0  0  0  0
 21 60  1  0  0  0  0
 21 61  1  0  0  0  0
 21 62  1  0  0  0  0
 22 63  1  0  0  0  0
 22 64  1  0  0  0  0
 23 65  1  0  0  0  0
 23 66  1  0  0  0  0
 24 67  1  0  0  0  0
 24 68  1  0  0  0  0
 25 69  1  0  0  0  0
 27 70  1  0  0  0  0
 27 71  1  0  0  0  0
 28 72  1  0  0  0  0
 28 73  1  0  0  0  0
M  CHG  2  27   1  28   1
M  END
> <OMEGA_C>
STDSQLtIfkDLg53B96CJQNrrdkCdo5rBkenUQIc0LEGkkK7BxMKoQGnpJkFvyanBmbXjQBCYGkFy
VbbBbg+IQGPUXMBXxInBEKBPQGd7PcASEpLBk8W9QJxCJ7/xerjBwaepQPQmEUF6H6TBDF/kQO6m
BEF+z7DBytnMQE46TT/WrLjB+nKzQO7rN8ANN43BYzWBQIdDOsCmcJzBrKvGQDlxpL+ljq3BE4LA
QF36dz9XpKTBtfa3QBXd/kDU5qvBj2m4QO4J0T9+l6/BOMauQAStHsC6D5nB78yvQHlx7r4Tx6TB
cLO7QOIHg0BSS6jBn/C5QGQAbED9b4rBVuPLQIzaQkCRdbDBkYO4QDB31ECmvaXBZdHDQHxLr0Ax
R63BISyOQAHCe0BItKXBnBeyQEHFfUCbzpXBsUpKQEOsbECxq5XBfCS2QD7lgr/M+5nBqOn4QJ8I
fEAK9pvBxuPSQIR6O0GO6LLBpFjsQCKlLUHDCajB5/CfQIZhM0Ei+6PBM+WQQGVzJkFWQLDBZJrN
QMH6GUHOLL3BPA8CQdFmHkEEMbnBcLp+QMhdRcCOwoHBvDuJQAqYkcCQsInBRKYZQNtXasAVwpLB
xWY3QJcs+78k9I/BEi6bQJXgL78rFrrBBOTOQLsonL/usL7BfC7AQL3jEUH3Xp3B4GqJQNVrDUFB
H6HBzaXsQGuV8EBAubbBa4n8QMPOBEGUaarBl9nvQELDUj+vwLfBMQfEQJLUnz9IaMDBQV+7QEa6
/r8aXYjBybbMQIBgaMDFSYzBvuSBQECcecCIRqDBbnNmQIZMC8Bd/KHBIqa6QJhiFMBDeq3BcFfp
QI6qpL+MCazBzxHjQH8wdj9t+aLBY9WvQMDSxD+oXp7BUG+gQEyK/EDJa7LBv7OVQNg32T9i9rDB
AnLGQAPrQcDT253BkWGNQCtu477RnKbBn5GbQDVib0BPAobBvMDHQOKdK0BIk4nBfmPQQE3YjUAK
NofBDbfuQAHRPEChba/BkOjEQD1HW0CuhrjBs4PQQJlI1kDSUZ/BOruYQLHHzkBSPKLBAOnlQB+x
sUCHYq/BjEuwQDcxskCNkLTB651sQHq1eEA5BavB0eJIQJQHaUCCr43BB+sTQFF7aECL25nBNfqh
QCkKD7+RAJXBfEnUQJOkVb+lwpfBVXnRQMtne0C7RZ3BsNCIQOJ0d0BUiJrBhw7GQGXuKkH9k7LB
SDDoQMEQGkHkSrXBzZm1QBcpKEGyDqfBllOHQFhEQMDyr4jBUnpTQBl7WcB54JHBlHy8QOInH7+C
iLjBWo/WQLJiA0Foo7PBB62kQKNwEUHTMqXBicrLQCjSVD8WrrjBtrezQAtuPcCev43BWl54QG0o
LMA8q5vBzQHGQKhDor8LtK3Bn4fAQBgpez8xnKTBRvLGQFt7AEH/7afBQLu3QCn90z8Mga/B60+s
QEnvHcAtN5nBUSmwQBPX6b6suqTBGYK7QBqig0AjCqjBtZe4QGedaUD2PorBt+PKQLXUREBaaLDB
9hmzQHG91EBdmaXB7bjGQMx7sEDqVazBQrKNQHsHf0C/k6XBnzWxQCHAe0A3n5XBJGhIQG1qbUDF
nZXBohW4QJ85hb/JEprBfCf4QP+IeEAFq5vBiCHUQE/5OkHwbLPBhQ2rQAk9KUG7KLjBmunxQIj5
G0Exsr3BYw8CQa5pHEFFEbDBzvzPQC5IK0EtcqHBmpqbQAasM0E4nqXB+PN8QDUwAcBld4XBiR+G
QA4ucMAuP4LBJslTQA6ij8BiCZPB67ERQMDDQ8BHT5DBZsmZQP/hJb8N/7nBkBfNQPV4l7/o277B
dZK7QE++AEGeIbnByPPvQFpZ70D2U7XBaoGbQNe4D0H2vpzBNneIQDbVDkE6TKrBHNLuQJLoWD8b
07fBw8rCQD2ypD9CXsDBgpXIQNbWEMARX4nBuUbCQJSGfcD0x43BeLxwQCZEVMB+1qLBugtYQMzc
3L8t7ZzB8qy5QMQRE8CEpq3BmMroQBwPpL8PXKzBMS7jQODmej/AD6PBBBWwQHRexT8DQZ7BQHDi
QJvMAkHAjqLB5e+UQEFx2z+KwLDB1aK/QEdrRMCdx57BYoONQAL84b7ERqbBvh+aQHHcbUAP34XB
g+TFQD3PKEBEX4nBOU7PQEBKjEBG+IbBO9ftQNUcP0Bspa/BIeDCQFTLXUBeY7jBvf63QHxBzUB4
Fp3BDZuQQM1Q1kBDTqfBCrzpQFkdtEDAUazBNrS6QFk3s0AalLTB+eZrQNbhfkCi8KrBxsxGQOsI
aECrpY3B/AkSQPwea0DJ05nBwQqnQC72Br8QsZTBPkLXQF1fc78Da5jB7yfUQNAjgEBd8pzBP46L
QMd/dEAcSprBi3DSQBoDLEEHJq/BPJKmQAhvJkHZSarBztnhQOtGGkHNxLbB7Pi6QBzqTsBwgIvB
JkCLQFXHRcDqq4jBiALHQOmQKL8iYbjBy2SoQKHkEEEhbqTB4p3jQHCUBEErBbHB3pbVQJ2jTT+G
/rfBmqi7QEXWWMCzqJfB3zFpQE2UKcB3DJPBEGvJQFPOpb9oRK3B/Pq/QJlXbz9ub6TBB3q3QCIR
/kCSCKzBRR+9QAIL0D9RdK/B8z6YQGS7HMDPTZvBJWWtQMSR7765i6XBASO+QJydgkCO0KfBTxG7
QLM3cUDT14nBWbfQQA9TQkAgt6/Bc/O4QCku1EDZpaXBQBHFQCK/rkBV/6zB6YyQQO5SeEDaXKXB
KBe0QPvpcUBFdZXBhZJNQCyVcED0TpXBLWepQPWHib8G7prBaWD6QNJthUCNKpvBz7zPQDsaO0Fw
oLPBGePpQFHtLUHEp6jBhE6dQD4EM0GSlqTBG6mOQKN/JUHLurDBMJ/LQNIjGUF8kb3B3wEBQeVU
HkG6trnBDuHMQB+UFcCeC4nBIsnIQJ7Vg8DYmofB2al8QFuxgcBJ5YXB2+2GQDc6FcAtZILBRMml
QLOBM780RLvBp9bbQK3Cm7/j473BDN2+QIQfEkEyr53BhFCIQP3tDEHUZaHB23LsQB4p8ED+zrbB
/s77QI9KBUFDo6rBU/b3QAa3VD9XHLbBvh3QQNsvoT9/4r/BD8baQBJeRcAQ+prBicC0QDefjcAK
BJrBal48QLxdW8DGwJXB0jBGQKfE2r/SwJHB4oC9QKEVFcC5oK3B5sPqQM3fpb8ec6rBWJrhQMnK
Xz9I4KHBpIWtQILLwD9Vf57BSPmfQPKu+kCXh7LBzEebQIRY2D+w0bHBxg2NQC6pLcDcX6PBqFaN
QENtwr6aHKnBKJecQPhuZECEvYXBx0vSQB/rPkAJzIfBdo7HQEfkl0C/SYfBNRTzQKnwO0B6+63B
R3HMQLelW0BF27fBmObQQOQK10AUPZ/BqUyZQB4TzkDiHKLB4RDnQHvWsUBUJK/BRmaxQCucsEDb
R7TBZg9yQPElc0CZv6rB//dLQKE9a0C/Vo3BufcWQGTuckCEeJnB9sCVQNy+Ar+xgpbBfVbGQKCh
jL/FhJfBYszRQIJjfkC5xpzBmf6IQJoPdEC1dprBDUzYQECPJkHRdbPBdxHoQPG5IUFvB6jBXZOq
QHkGHkEuPLXBuwS7QLfPRMABXYrBBoOMQOpCLMCXnofBMzC/QN6vCr+y6rjBs0LlQGCWCUHml6XB
4TioQOAABkGgt7LBZbXPQKuaZz83qLjBmJ+6QF3xVsApY5bB3vFsQDHVF8CCXJLBikHFQHTLm7//
B67BbQHBQNy1gD/DvaTBQK62QCUEAkFxE6fBi7S6QAz83D9ll6/BDHmaQGWDFsC7p5rBV4+tQCh+
yb6ZdqXB94K8QAQshUAEn6fBV423QORIZ0DQ84nB6DPOQCrkSUD2ALDBCZawQOcj1UBmsqPBWqTD
QD2qs0B3l6vBEt+OQPrhe0DvdKXBadewQAy5ekBYUJXBcOhHQBPoZ0Cs1ZXBBqWvQHzwg79t8prB
/Vv4QCJOfUDe+JrBWHbYQLv5N0GburTBgvztQIHlHkFgPLnBlcQEQW30JkH9QKfB7RjUQEiFKkHe
RKLB7lyUQBGxJkHG9a/BIV6hQKmkIEGPoL3BSurQQBm6D8ABgojB1NLEQNgifsCw4YXBn4N4QOrn
YcDQn4PB6PmLQAaR578fXoLBPvGcQE1/Cb+O87rBjvnQQDeSjb/1Bb/BsUT6QAu/AEFtGavBrWnv
QOGhBkFBTJ3BqxiHQNpnAEGnurPBLVS9QPxk+kCwNrjBkIzyQLjhYz90aLfBVnvIQCw3sT/1XcDB
2XLaQHV5TMCJ6ZnBNSqwQOBvjMB8BpjBea89QJCIScAOWZTBigBNQFVVsr+t/ZHBMRK4QHYjD8D5
Sq7BU4znQD2Yob8yFKzBN2DjQHaGbT9N8qLBF/uwQLaWyT+1XZ7B6mSiQPPnC0Gu2qHB3i+YQM+I
5j9RNbHBAJGOQGGPKcA9lqLB4+KLQKT6l74y6KfBwKCYQJk7aEAZwIXBAyDGQOaCJ0BeKonBXvLM
QDTEi0A2bIbBhezwQBooREBNv67BdAnIQNNeZECyArjByQTAQPOs0EDr3ZvBkg2OQDT+zkBu9aLB
zjfmQLdtuUAWZazB9CS0QB59t0BQb7PBZpdvQKFAeEAP+6rB2HlEQKRwYkAd4I3BZbMSQJIUZEA0
QZrBf2ChQFih3b43npXBLWfOQA0Wk78a9JjBUW3OQF8bgEDZAJzBaBWFQHcLdUDuf5rBlNbiQIAb
I0FscrbB8874QE2IHkGQnqvBUheyQPZHH0HXwLXB3t6JQHiKisC/mJPBz7qPQFkLasC4l4jBQOCi
QEsVnb5DmrjB6YDvQCOOB0Fd5KfBVHKoQJ5QCEFHCrLBxni6QEVchT9bIbnBmFyXQCdzUsCs/pvB
0LKpQBy5GMB3vIrBFhyxQJyujr8Vv67BGdjBQMGagz9d96TBoo++QJGbA0HQJafBlKKyQKwR7D8N
x67Ba0ybQOrH+r+p5pXBxhqqQE35nb6OUaTBk8q6QJhpiEAyAafBjT2xQG0nV0CE2onB5IHJQIpC
TkAylq/BA9O0QDJc2UALN6PBiy/GQGXjtUAP2arBR26MQGluhUCNIaXBVz+sQJJqdUBA8JTB418+
QJ1qZEBEhZbBzX+6QAhqg78XyJrBHLL0QLBZfUCo15nBpLboQI/dM0Ecs7jBn2/wQK91GEHwkrzB
78kNQZ6cIEH3g6zB+bTsQNDYKUGLmKXBNiCkQHKlKkEmA7DBBcejQD3WIUHPsL3BJDieQD0qp8Cd
MJTBsmZQQBaok8DOxpTB9OlgQAzTWcBdGYXBoi6hQPhcisD9HoPBFDqAQKm6+72jHLjBXQKqQLde
Yr+K4L/Bkn39QDhw+EDlpK3Blvj9QFYLBUHy95/B46aFQMdcBkF0IrHBkVm0QGjx+UAiE7jBkf3c
QB19XD+vEbrBWJiuQOYNzz8LBMDBjkO2QPIhZMATlZ/Befl9QCRiTcDfT6LBrEaiQNrizb/2y4TB
EjvMQEBUJsBzmorBf2KeQPfdAsBMWK7BqEvTQGrfrb8Gha/B2mPkQM9NVj8tr6XBJ5i7QBiDzT8P
pJ3BSYCxQJLcDkHDOKHBLAyQQPRxAUC7+q3BHkR3QObUvb8XZJXBqKuHQNjk6b18XKPBKK+RQJkg
VEAQ+YXBOM6/QF0QF0Cy4YnBb/nFQNTTgUBSbIXBOR3sQCTbQ0C/o67B9xXDQMIqaUD9jrfBt5TD
QLQL1UB9TJvBy+yRQJ+o1UAyiaLBQznpQAG7uEBeTavBl1e4QCHHukCM2LLBAoJrQLJ0ikBMoqrB
aSs4QIEiVkDPwo7Bfb4KQG0CZkBoPpvBB8bCQANxsr42R5XBNVbUQClvxr/l9JzBjsvRQMKQfUBe
4pzBX02IQC5bdkDlf5vBBU7fQOEYHEFDAZbBK96vQF6CFkGqCpjB7Zj9QGwoC0FQ4JrB0IGFQI4E
icDqbJLBiKWLQOSJZMB0lofBy/GiQJLC2b73YLjBmkKnQHiSE0EsIaTBX3n0QAztB0Eh8abB9OO7
QIfQZT8gObnBCSGUQJpTUsB0D5vBocamQB87FcA5AYrB1ySwQNp4mr9nTK7BQdXCQISHdT9TD6XB
PcfEQL1kAkEgO6nBdKW0QEUx4D8sG6/B8Q6ZQIPr979wTZXBVL+pQESCtL4QGKTBTtO+QGZ0hkC9
AKjBAIGzQKcvWkCsporB787MQKANR0DKQrDB1Du4QCPE10DCE6XBVcnLQDSes0ALEazBk0mQQOaj
hEAxMqbBGUOvQIISdkBQ25XBGi9EQCaVaEB4iJfBrDa5QDJShr8DWprBwev3QGvpeEB2nprBkFLm
QFK+K0H3oZnBSdnkQD7tHEEdU43BiP+nQA2QB0EM1ZPBYZubQJyII0HV+pTByHIPQaV8EEGO25nB
6u74QEe590CxrpbBWBaZQIM9psBpwJLBLEVHQOhekcDPmJPB0gVZQG6/UcCPOITBV1ycQJdch8Bb
6oHBnnyAQAfiUr5D/bfBfqWpQGPxhL9Dfb/B1b6FQD6qDkGrO6XB1rqsQHDvIkENM6jB7qX8QFTC
FkEFN6vBjlAEQReL9UAu6KnBaDveQDsKLj86DrrB2r+wQDFGuj91R8DBPOCyQCKVZsArhJ7BCQJ4
QKiTTcDfcKHBueCfQL4ow7+DR4TByBrJQIuqJMCqwInBC3mcQJRpB8AUsK3BahTSQJxbvr+s9K7B
Qi/lQERaOz+4raXB6wW9QJ4myT885Z3BF+O/QOSzAkG48bHBfjmSQJBt+z8naK7BvZtzQKJct786
+ZTBoYGHQPn6973kPKPBscmTQK+ZWUCo1YbBGUjBQGxuGUBcaYrBX5/IQL1Yg0AxVobB2zvvQCMH
O0D3NK/BH/XGQOwDYECrW7jBSN3DQHAr1ED70ZzBGCmVQKLR1EApMqXBDt/uQIxZtkA83qvBynbA
QH93t0DZV7TBic9zQB91iUALyavBTTA9QHJRXEDuuo/B398QQK1WakBLT5zBYe/BQINzt74J/5TB
k6LSQM0tzb/MWZzB61XLQJSbf0Bnz53B7oqCQN37ckCZSZvBH7r2QApLKEFaoq3B82zSQJxQKEGT
RqXBjH7sQBzYGEHq3rbBMAjOQDUCfMAoMZTBtInYQPRATcC2n4nB9AmfQGbDD7+rVLfBSTzKQNaf
EUGE8qDBwfXkQGsVAkEzp7LBjzO1QKwpSz8nzrjBBmyiQHPJWMBcoJfBzY61QLsSCMCyOIjB6mOv
QKKxo7+dRa3BEDLAQFrPdD9j0KTBxKzAQF2UAUHGH6rBJw+uQA4b1j9N167BZjmiQOic+L8daJPB
QluqQKMXzr5hIaPBHlK1QMNBhUDypKjBxDCyQMeiYUCX9orBsdDCQEwWREDZ0LDBKi+7QEhH1kDn
HKXBLzy/QJipsUDlb63BV3eHQJaEgkDwHabBbbaqQHFLeEALPZbBnI87QPSdYUASu5bB45W+QOPu
g78yoZnB8wHyQBckgEAEHpzB5pD6QHSOOEG527DBZ1YKQU1AI0HkwanBym/bQIjXMkHEl57B8/e0
QBlZLkEgCKnBOYPPQEZjHkF/BrvBXMMDQY2nGEGlgbzBzG7mQJEMbsAvSprBcEDMQKrFoMAt5JLB
183XQP92esCA4YLBP1b4QHVNL8ATGYrB4bF4QB4yzb77k7bBI4SlQKRnmL+aXb7BqcHmQHIxDEEN
kJzB2KiuQEQUEkGYe5vBbfTbQH1V70AqYbnBlVsBQYtL+EDPAa/BfbjXQL58Ij+p97nBMNGnQO9U
pj/t3b/BljqfQA7PWcCiY6DBbU6IQMAhfsCOBJTB/P2cQMq4HcCEh4LBvK/DQPaRl7/cXIXBzhSd
QIdVDcCgLazBxnTRQGiWwr/mW67BDMfiQGe5TD8S4KXBp6a6QMkjyz8ovZ3BpnGiQL41BkH0/a3B
FnCLQBAz6D+Cua3B5l+BQLGtxr995pLBzROIQNHldr5/mqHBWXiTQP0OYED1q4bB0G3BQNhFIkC0
hYrBIUbHQHnRiECIRIfBYcflQFmlPEDcZrDBW665QFu+WUAo37jBVfHTQBHd0UCs9J7BOVmbQMhx
1ED5YqHBbSHgQBFtsUB8kbDBZrOoQPLXt0C8BLTBJDFfQD6ChkDMWavB5uY4QLx8VkAS3I7Bih8G
QBV/X0AMIJvBhWXIQO7smb53vpTBbt/XQCNzx78RIJzBaMTSQAm7fUBc/5vB8j6JQAbhdkDk25rB
laGoQDQaJUFY777BCs24QABpFEHuEsfB5fa6QF3DIEGerrPBWfqDQPcRisBnh5PBZXGJQFXxaMAA
hojByHSkQPqsr74KgbjB5uetQOoe+0CIXMPBz3mwQJvgCUGu66/BDsC9QIKUeT8z97jB9zuTQJG7
UsDc45vB9vikQDuJGcAIkIrBlOawQA9alL8IjK7B4WDDQDCMeD+ewaTBdLzAQN8U8kATHrjB3Ca2
QOX45T+Xr67BYRCYQP9w+7+i0pXBWfqpQMKcrL7AMKTBeoXAQMhIh0AJKafBomazQK0hVkDGAIrB
HzTPQJLMSECSba/BqRC0QEFfxEAxvbTBM3rNQNcNtUCNu6rBhOaRQJ8fhkARbaXBmNuvQAsCdUAf
GpXB9oZFQC1IaECTGpfB+rO4QIy1iL91jJrBFLz4QFCnd0Bfn5nBOaWyQFcjNUEij8HBYH2FQHhi
JEGBk77BTYqpQBNiF0EE3c7BbrfbQBPvFUHW48fB++rdQALMIkEN5rPBUAitQGJFLEHsAa7Bp4SX
QPBLp8Da9pPB6FdEQCc3ksD55JTB3DxUQGxyVsDfPYXBAZyZQNM8isBS6YLBiweCQDPK770BMrjB
dHGrQKYyb79dt7/BUeuKQLly90CDDsPBJ1W7QIgN5EA8GcnBKP6/QK4AB0FXJ6jBqZqNQI0/CEFn
Cq/BhBTgQFpNQD+wubnBvCazQC6Uxz9R77/BAB6yQCaPZsAST5/BsPN2QFtTTMBsVaLBnd2dQCQO
zr8RsoTBODvHQIJ6KcBnOYrBoRCdQOxEBMBnNK7BctXSQC2buL9EIa/BLrrlQOYXPT8WQaXB1R+9
QE7Rxz8kf53B69TjQAwb9EBYkbjBE8+TQPeoAUDPFa7BtspxQOIyur/YgpXBcbqHQFn40L14bKPB
bH2TQBEiVUB3SobBYeHAQBoZFUBH/InBlX3IQJqMgEBccYXB0E7xQERNO0C6DK7B/+nKQGfjYkDh
h7fBZqyRQIrZw0BW3rLB0Ji6QINlrkCqarvBz0vHQMxZy0DQGaTB8dPvQE8ytUBkp6zB0p53QA8g
jEAmBKvBkX89QLwGWkCgXo/BlNgSQBRna0A2+ZvBQTnBQM4Yy776A5XBCSPSQGdez7+6kJzB

> <OMEGA_E>
AFE4PEBQCz3wnxg+YIBYPhTmoD5EjAc/9lsNP+DEED8=

> <OMEGA_NBR>
     24041

$$$$
50253334
  -OEChem-04172616093D

 70 73  0     1  0  0  0  0  0999 V2000
   11.0509   -3.1612  -19.3900 C   0  0  0  0  0  0  0  0  0  0  0  0
    9.9890   -3.9230  -21.4297 C   0  0  0  0  0  0  0  0  0  0  0  0
   12.0471   -4.1350  -19.5938 C   0  0  0  0  0  0  0  0  0  0  0  0
   11.0156   -4.8744  -21.5676 C   0  0  0  0  0  0  0  0  0  0  0  0
    9.9995   -3.0481  -20.3208 C   0  0  0  0  0  0  0  0  0  0  0  0
    6.6711    3.8349  -19.7170 C   0  0  0  0  0  0  0  0  0  0  0  0
    4.4056    3.6340  -19.3828 C   0  0  0  0  0  0  0  0  0  0  0  0
    8.9273   -2.0565  -20.1384 C   0  0  0  0  0  0  0  0  0  0  0  0
    6.6575   10.5069  -22.0208 C   0  0  0  0  0  0  0  0  0  0  0  0
    5.2608   10.1630  -21.4741 C   0  0  0  0  0  0  0  0  0  0  0  0
    7.1640    9.4090  -22.9733 C   0  0  0  0  0  0  0  0  0  0  0  0
    4.4997   -0.5912  -21.7785 C   0  0  0  0  0  0  0  0  0  0  0  0
    5.2796    8.8077  -20.7600 C   0  0  0  0  0  0  0  0  0  0  0  0
    7.1785    8.0388  -22.2792 C   0  0  0  0  0  0  0  0  0  0  0  0
    4.9051    0.8103  -22.2584 C   0  0  0  0  0  0  0  0  0  0  0  0
    5.6914   -1.5555  -21.8565 C   0  0  0  0  0  0  0  0  0  0  0  0
    7.3075    0.3732  -21.5933 C   0  0  0  0  0  0  0  0  0  0  0  0
    5.7780    7.6975  -21.7062 C   0  0  0  0  0  0  0  0  0  0  0  0
    6.1269    1.3354  -21.4644 C   0  0  1  0  0  0  0  0  0  0  0  0
    6.8720   -0.9917  -21.0547 C   0  0  2  0  0  0  0  0  0  0  0  0
    5.9843    3.8606  -21.0802 C   0  0  2  0  0  0  0  0  0  0  0  0
    5.8846    3.6733  -17.3253 C   0  0  0  0  0  0  0  0  0  0  0  0
    6.5346    2.7322  -21.9752 C   0  0  0  0  0  0  0  0  0  0  0  0
    5.7986    6.3933  -20.9072 C   0  0  0  0  0  0  0  0  0  0  0  0
    6.2034    5.2028  -21.7936 C   0  0  0  0  0  0  0  0  0  0  0  0
   12.0176   -4.9679  -20.6621 N   0  0  0  0  0  0  0  0  0  0  0  0
    4.5601    3.6793  -20.7650 N   0  0  0  0  0  0  0  0  0  0  0  0
    5.6715    3.6101  -18.7772 N   0  0  0  0  0  0  0  0  0  0  0  0
    7.9786   -1.9198  -21.1372 N   0  0  0  0  0  0  0  0  0  0  0  0
    3.2531    3.6065  -18.7644 N   0  3  0  0  0  0  0  0  0  0  0  0
    7.8705    3.9729  -19.5029 O   0  0  0  0  0  0  0  0  0  0  0  0
    8.8670   -1.3788  -19.1162 O   0  0  0  0  0  0  0  0  0  0  0  0
   11.0923   -2.5087  -18.5303 H   0  0  0  0  0  0  0  0  0  0  0  0
    9.2001   -3.8619  -22.1648 H   0  0  0  0  0  0  0  0  0  0  0  0
   12.8543   -4.2202  -18.8814 H   0  0  0  0  0  0  0  0  0  0  0  0
   11.0043   -5.5450  -22.4142 H   0  0  0  0  0  0  0  0  0  0  0  0
    6.6051   11.4604  -22.5668 H   0  0  0  0  0  0  0  0  0  0  0  0
    7.3590   10.6044  -21.1792 H   0  0  0  0  0  0  0  0  0  0  0  0
    4.9493   10.9421  -20.7628 H   0  0  0  0  0  0  0  0  0  0  0  0
    4.5459   10.1218  -22.3091 H   0  0  0  0  0  0  0  0  0  0  0  0
    6.5019    9.3605  -23.8503 H   0  0  0  0  0  0  0  0  0  0  0  0
    8.1851    9.6581  -23.2981 H   0  0  0  0  0  0  0  0  0  0  0  0
    4.1520   -0.5300  -20.7367 H   0  0  0  0  0  0  0  0  0  0  0  0
    3.6862   -0.9698  -22.4148 H   0  0  0  0  0  0  0  0  0  0  0  0
    5.9498    8.8678  -19.8898 H   0  0  0  0  0  0  0  0  0  0  0  0
    4.2615    8.5638  -20.4225 H   0  0  0  0  0  0  0  0  0  0  0  0
    7.4675    7.2679  -23.0087 H   0  0  0  0  0  0  0  0  0  0  0  0
    7.9095    8.0584  -21.4574 H   0  0  0  0  0  0  0  0  0  0  0  0
    5.1628    0.7644  -23.3268 H   0  0  0  0  0  0  0  0  0  0  0  0
    4.0593    1.4987  -22.1144 H   0  0  0  0  0  0  0  0  0  0  0  0
    5.3996   -2.5307  -21.4394 H   0  0  0  0  0  0  0  0  0  0  0  0
    5.9909   -1.6811  -22.9075 H   0  0  0  0  0  0  0  0  0  0  0  0
    7.5992    0.2809  -22.6499 H   0  0  0  0  0  0  0  0  0  0  0  0
    8.1603    0.7494  -21.0090 H   0  0  0  0  0  0  0  0  0  0  0  0
    5.0690    7.5960  -22.5410 H   0  0  0  0  0  0  0  0  0  0  0  0
    5.8479    1.4157  -20.4034 H   0  0  0  0  0  0  0  0  0  0  0  0
    6.5610   -0.8742  -20.0062 H   0  0  0  0  0  0  0  0  0  0  0  0
    4.9393    3.4573  -16.8058 H   0  0  0  0  0  0  0  0  0  0  0  0
    6.6414    2.9304  -17.0332 H   0  0  0  0  0  0  0  0  0  0  0  0
    6.2329    4.6795  -17.0494 H   0  0  0  0  0  0  0  0  0  0  0  0
    7.6325    2.7969  -21.9927 H   0  0  0  0  0  0  0  0  0  0  0  0
    6.1431    2.8651  -22.9945 H   0  0  0  0  0  0  0  0  0  0  0  0
    6.5211    6.4889  -20.0832 H   0  0  0  0  0  0  0  0  0  0  0  0
    4.7953    6.2091  -20.4956 H   0  0  0  0  0  0  0  0  0  0  0  0
    7.2679    5.2982  -22.0538 H   0  0  0  0  0  0  0  0  0  0  0  0
    5.5984    5.2208  -22.7121 H   0  0  0  0  0  0  0  0  0  0  0  0
    3.8220    3.6012  -21.4351 H   0  0  0  0  0  0  0  0  0  0  0  0
    8.0621   -2.4897  -21.9546 H   0  0  0  0  0  0  0  0  0  0  0  0
    3.2224    3.5646  -17.7657 H   0  0  0  0  0  0  0  0  0  0  0  0
    2.4029    3.6276  -19.2903 H   0  0  0  0  0  0  0  0  0  0  0  0
  1  3  2  0  0  0  0
  1  5  1  0  0  0  0
  2  4  1  0  0  0  0
  2  5  2  0  0  0  0
  3 26  1  0  0  0  0
  4 26  2  0  0  0  0
  5  8  1  0  0  0  0
  6 21  1  0  0  0  0
  6 28  1  0  0  0  0
  6 31  2  0  0  0  0
  7 27  1  0  0  0  0
  7 28  1  0  0  0  0
  7 30  2  0  0  0  0
  8 29  1  0  0  0  0
  8 32  2  0  0  0  0
  9 10  1  0  0  0  0
  9 11  1  0  0  0  0
 10 13  1  0  0  0  0
 11 14  1  0  0  0  0
 12 15  1  0  0  0  0
 12 16  1  0  0  0  0
 13 18  1  0  0  0  0
 14 18  1  0  0  0  0
 15 19  1  0  0  0  0
 16 20  1  0  0  0  0
 17 19  1  0  0  0  0
 17 20  1  0  0  0  0
 18 24  1  0  0  0  0
 19 23  1  0  0  0  0
 20 29  1  0  0  0  0
 21 23  1  0  0  0  0
 21 25  1  0  0  0  0
 21 27  1  0  0  0  0
 22 28  1  0  0  0  0
 24 25  1  0  0  0  0
  1 33  1  0  0  0  0
  2 34  1  0  0  0  0
  3 35  1  0  0  0  0
  4 36  1  0  0  0  0
  9 37  1  0  0  0  0
  9 38  1  0  0  0  0
 10 39  1  0  0  0  0
 10 40  1  0  0  0  0
 11 41  1  0  0  0  0
 11 42  1  0  0  0  0
 12 43  1  0  0  0  0
 12 44  1  0  0  0  0
 13 45  1  0  0  0  0
 13 46  1  0  0  0  0
 14 47  1  0  0  0  0
 14 48  1  0  0  0  0
 15 49  1  0  0  0  0
 15 50  1  0  0  0  0
 16 51  1  0  0  0  0
 16 52  1  0  0  0  0
 17 53  1  0  0  0  0
 17 54  1  0  0  0  0
 18 55  1  0  0  0  0
 19 56  1  0  0  0  0
 20 57  1  0  0  0  0
 22 58  1  0  0  0  0
 22 59  1  0  0  0  0
 22 60  1  0  0  0  0
 23 61  1  0  0  0  0
 23 62  1  0  0  0  0
 24 63  1  0  0  0  0
 24 64  1  0  0  0  0
 25 65  1  0  0  0  0
 25 66  1  0  0  0  0
 27 67  1  0  0  0  0
 29 68  1  0  0  0  0
 30 69  1  0  0  0  0
 30 70  1  0  0  0  0
M  CHG  1  30   1
M  END
> <OMEGA_C>
i9AwQahQSsCmHpvB8dIfQZUSe8AfcKvB6cBAQdpRhMAbwJzB8T8wQXX7m8CEiqzBE/4fQf8TQ8D4
kKLBTnnVQKRudUBlvJ3BvvqMQKmSaEDsD5vBa9YOQRaeA8B4G6HBOwrVQDYcKEGdKrDBxlioQNSb
IkHzyqvB4D/lQDaLFkFCybfBaP2PQMBaF79YOq7BWvKoQITsDEGBFKbBa7blQPSeAEG/O7LBjvac
QORuTz8jEbLBtx+2QJcbx78t2q7BctfpQBwQvz4Uv6zBqeW4QDRS9kA2pq3B8w/EQLDuqj8Kt6vB
w+fbQKbhfb8JcKjBwn+/QHwUd0BSpKjBRE68QAcXa0BImorBQRvRQI3bLkA1za/BF465QNqVzEDl
QafBToLGQDh9pkBSWa7BHkhAQeb4nsAATKXBhOyRQKJ5a0C7HqbBSH21QBwMZ0DEN5bBalD/QLm7
9b/7GKnBGjNQQJHRZkB1HZbB3Nr7QGBDfkDiBZzBT98NQYZ9sL8E7pjB+nkxQXaOIMAhPpTBkDMT
QcIpd8B9UbHBQ6tNQakLh8APDZfBrREwQWRwscBHULPB+FzTQLFdN0HTiLTBDn3rQJOrKUHsbqnB
W2CeQNkSL0ElGqbBMniRQOHyIUH+eLLBMw/QQMfEFUFizb7BBvYCQW2HGkFrYrrBa92EQDurB7+0
5KXBwOprQGtFeL+QUbPBoGS+QJDiDUFdHp/B0l2IQEUFCUFXYaPBbPXuQIuS6EDNEbjB4hr9QB7v
AEHZqKvBXDWlQIuwQz8+nbrBBeaBQC7Wvz9G6rDBOMmsQDz2IcDwg6vBS7W/QNUt17+OQrfB6Szz
QGnQjz7/MrXBZ5ACQdzWPz+BEqjBdzWiQIgS80AEVLTBmyG7QEw2tT8sOqPBpPPRQF/KX7+hDKDB
Aw+eQKREXUBHcobBRIbUQIaLO0AXRIjBlHPHQMK+lUAwZYjBtD30QLb/MkAd8a/BYJTEQI1eN0DU
9LfBo6zQQMqkz0BzqqDB9XKZQKKwxkDq9qPB5ZLoQC2LqUAYbrDBbyazQKoQp0B3srXBcZt0QAd6
ZkAie6vBef4AQcNXH8ASo6/B6DtOQPEhZEA6II7BcsgZQOcpaECXUprBQREgQb0hesC7dqvBs+Qw
QaRHSsAJEJvBQZMwQTRRm8BEnKzB3+9AQY0KhMCEv5zBuBsgQSrLQsDihqLBQNPVQL69dUBX3J3B
c26NQEcSaUAd/ZrBgeYOQWWTA8C6CKHB9wzVQET5J0FAt7DBN1yoQKiIIkFtUazBp0DlQAdNFkGl
RrjBe5mPQLvUHb95uK3BUfaoQJnuDEFxiKbB1dnlQEd9AEFQn7LB3pCbQDWnSz8yiLHBABG2QDkX
yL+kpq7B2EjpQMo7vz7vtqzB9Q+5QKAh9kBtBa7BimvDQDthqj9ChKvBM+/bQHb0fb+JVKjBR1+/
QIhOd0BdtKjBhI29QFCjakBeqYrByATQQPcuLkBN2K/Bwd65QG+xzEB3hafB4snGQFFQpkBXg67B
TJZAQRZgnsBRW6XBLtuRQLz7bEANDqbBMCq2QCNYZ0BaQpbBv3//QOQB9b8fCanBP4tRQMC5ZkAK
8pXBBU78QLMifkBgQZzBQOoNQVzqsL/t1ZjBz3oTQXUGdsBYXLHBn3IxQb0YIcAWIZTBPXkwQRuQ
sMC/bLPBxdVNQfbRhsBcCpfB413TQAErN0ENI7XBXYLrQMegKUGK/anBQGeeQJ0TL0E8q6bBl3iR
QNvIIUE3/rLBbP3PQNVhFUEmRr/BxfACQcdFGkHq6brBI0aFQJ7YEb/qUKXBv3xqQGQUgL/FrbLB
+FC+QJkCDkHcjp/BHFyIQLUKCUFc2KPBXi3vQIEd6EASZrjBlDr9QLf1AEEwDKzBa4miQCipQz90
J7rBh2+AQDJqvD/aELDBmW6tQLcjI8D6ZavByRu/QBt41b9MHbfBsv3xQKTyjz6GNbXB3W0CQZVC
QT+/LKjBNWWiQEiI8kCDsbTBxnm7QJ52tj8e+qLB3TvSQGFvX7/H7J/BnXafQFr4XEA2bYbB97nV
QGWmOkCmcIjBlAPJQAxilUBxbojB1x/zQOAqMkC7QLDBRonCQNjSNUDj6rfBYxHRQJwT0ED99KDB
udCZQKvkxkDcL6TBkuvoQKQYqUCVjLDBmJyzQJu5pkBI5LXB/dtzQAhbaUAHWavBWioBQeZ0HsC0
na/BSUZQQC1fY0BC9Y3BoMMaQD9JaEDaE5rBeAoxQdTEScD0KJvBbIgfQf1Me8D4TavBhfJAQYUI
hMAl45zBge0vQTUYnMCbgKzBAgEgQTrIQsA1fKLBRlfVQEhdb0Cuqp3B0ICMQEeRaUB3H5vBRRAP
Qd1iAsAfCaHB2gfIQGH5JUEborTB2ujtQOpJFkHVS7XBkhGvQHNEI0E5HKrBMMyPQFUmHr9d763B
Pt7eQAQY/kBG4LPBcoKgQIgQDEHmnqjB+fabQOr3Rz8QCbLBxEu2QPSmyL97ka7BMljpQNA7xT4T
4qzBFPLGQMwb+UC4EqnBXiPDQF27qj805KvBfi3cQCoBer8qWajB16e/QMO+dkDkjqjBeYe7QKH/
aUAnl4rByn3PQPw/L0COFLDBio61QBjTy0AfwabBqADKQBF/p0CwZq3BJzVAQQLensDZZKXBOM2R
QArKbUA9K6bB69e0QG+aZEA8M5bBHrr/QOwG8799AqnBpO5OQE7yaUDrPpbB0Lv7QLLndkA+35vB
yYAOQUXZqr/S+5jBXeQxQf3aH8CLTZTBBbMSQVfGd8DOErHBxA5OQbCZhsCpS5fBgIUvQc65scDW
PLPBxkzUQJ1xNkH2GbXBlk2yQJP7IkGpZLvBAWT9QFfxF0H0J73BoYcCQRQsGkE49a7B9dHDQCDR
J0E7YKPB+MiSQGu9LUHSQ6rBXSqFQBGnCr91kaXBRDtrQI1ggr+73bLBHS3JQA6Q9UBfeLrBgc36
QB2u6EAr+bPBSKOQQIR8CkFIzqDBa82JQODoB0EQBK/B0sajQP4DOD/5mbrBXa+AQPIRuz/D5LDB
jIqtQLCNIsBNFavByH2/QK5I2r+t/bbB7WTyQN6Vjj4mWLXBjlECQVOOSD9SVKjBoTjdQPLjAEEN
naLBcoq6QM8Itj8hY6PB65rSQJ5zWL/z8Z/BcvecQPIuX0BvcIbBWcbSQLAEOUChGojB2N3HQJLr
lEDYh4jBx4ryQEQuM0BEubDB1BzBQLiROEAXB7jBQBS7QOnQxEDmPZ7BWvaSQEvqy0AkYajBq+vs
QE/oq0CSiq3BzXm9QGvZqEA5nrXBvpV0QL8pa0AglqvBGz4BQdrFHcDWkK/BhWFMQBd8ZkCMQ47B
49sYQLGybUDdf5rBKK4fQUhjesC3WavBg/gwQX5xScCuHpvB/x8wQeGJm8DPiqzB4O1AQQXFg8BC
15zB7AIgQa5MQsDofKLB0VXVQJitcED7wZ3BHXyMQC4tbEBOH5vBD/QOQX90AsBNAaHBfjnEQCjQ
JkHoH7TBSMrkQOD+FUGU8LfBK8O5QOPRI0EfM6jBCKSPQKGPHr8C463BtwPUQHt9/kBU8LXBCkmp
QNcnDUFWB6bBwqWbQIU5SD+N8rHB1Tm2QHhbyL8AkK7B0RLpQAjwxz5BzazBZmPJQEwV+ED976nB
B8/CQIgqqz9iz6vBAgncQNRfeb9tUqjBR5W/QBIwd0BqpKjBqey7QDqxZkDmpIrB5SjPQB4IL0D8
FrDBkBq1QH1azEA9jqfBxzXKQGc2p0BUtq3BJ1JAQetonsBQY6XB/bGRQC4ob0CNL6bBgsy0QDuX
cEBWMJbBu77/QCL18b9yBqnBXSJPQDkKaEAfN5bBO/z7QO20cEBPEpzBIBcOQbferb9Y1pjBwuoS
QcuxdsAWKLHBOrkxQSbMH8AHPJTBZ9MvQfkCscB6T7PBs/hNQUFqhsA0NpfB77jRQCbiNkFbWLXB
3KGmQPosJUGx0bjBWIDqQJ0jGEGIjsDBAn8BQbwyGEFbjrPBEuTWQAKUJkGTdKPBIg+hQL9xL0HO
2aXBgwyFQA1WDL+Sg6XBRfBqQEKYgr8i0rLBYeS2QINb+UBYtrrBtZvsQAE450BMWLjBa1KkQD0w
C0FOX53BvrCKQDbrCkHxO6rBJ2ejQNxsOT/NhLrBmE2AQDbEuj9CxrDB5ZKtQGeZIsCXHavBJ22/
QLIz2b+4/bbBDzbyQPmukz7DQrXBVyUCQUblST9TOKjBuhrnQBsh+0BLSKXB/kC6QG4ytz+fTqPB
G3fSQPV0Wb+S6Z/BGQidQITYaEBGb4bB8ZfLQKXiKEDQF4nBzX/QQKZ2jUAkwYfBPTTyQNm6MkB1
xrDB16fAQJXgN0AKCLjBAgm4QJb3xUDJ7p7BcQ6TQECuzUCtw6nBfB7tQLu4q0CNpa3Bz5e+QJx8
p0DVBLbBeDR0QP9NbEAnlKvBWmUBQbJ0HMDNo6/BaN1MQJzVZ0BrOI7Bg/YYQFsVZUCVdZrBI9Mw
QcBsS8BOKZvBKeMfQQijecAKm6vBkqdAQa0LhcCL4pzBjy8wQZ92m8Azy6zBrhsgQSiTQsAQpKLB
KsTUQOLSakBMmpzBOKWLQJguakDLuJrBBysPQQ4bAsDBMaHBG6DNQIt9GEHiZcLBWX/cQME8FUGY
07bBYUegQDxhD0F26cPBvRmRQNAUCr+OuK7BeQfdQFzC+kDxGrTB1GafQGPZ7kABZsHB7eGeQEDn
WT8tuLLBpe22QBC3wr8VAa/BoFLrQIZvzj7UPa3B74ywQFin5UDkFLbBz5nFQFyprj//LazBjAbd
QEBFc7+ctKjBh4rAQCE+dUDvgqfB0Ti4QDpPc0AX54nBWXXSQGINM0D7l6/BYeKyQDLntEAjDLXB
PMHIQHz4qEAFmarBoyhAQZcgn8CRiqXBObeSQASwaEA7oqXBuCCzQLlxZEC9ZZXB1QwAQSII8r9m
N6nBJYNLQPX5b0BWWZbBXNn6QFoedEAVh5rBE3IOQbypq7+2FZnBcH4xQVapIsAbMZTBT04TQaGw
dMDsfrHBkYBNQRFdiMC5KpfBIfQvQWuIsMA1pLPB6GfNQDKyKUHgP8TBbMzjQM03EEHD1sfB/er8
QG3TG0Fw4bXBSHDGQDiTHUGqYbHBvRyKQFrBF0FHgr7BvyyWQNrgEUGgP8zBP1uFQOlD6L4cdKbB
6aZuQCvHa7/Y4LPBRgj1QFu26kCII7nB6ajlQE/e9kAmoavBBnd8QExI40Di9cHBH1+zQIja3UDX
RMfBWOGnQM/ISD/TNbvBQgmEQOTZxj+2z7HBORKtQNGAHsDiZ6vBGpjAQO0V2L8gXLfBpz/0QO6E
lj59tbXBQXEDQeuOSD/hsKjBKbSZQPMo8kB8KbDBkxe8QPz0sj8KtqPB8SrTQKLXTr+uVaDBKjyZ
QEiNakDD34XBR5LPQO6PRUAQo4bB6bLDQKN+mkBHj4jBc4/1QNn3N0AC06/BsWHFQCd8QEDplrfB
xE+SQIeQp0AzJLXBbkPFQPC+p0Ady7vBPY68QEndvUC8NKTBznDrQN7MrUBFfKvBBcp4QG10YEDi
RavBhlUBQU0RHsAuta/BZKdFQPmncEANYo7BO2cXQKe6c0BI+JrB

> <OMEGA_E>
gNy8PABtvTxAUhA9QCY8PQRgxz4=

> <OMEGA_NBR>
      5823

$$$$
50253336
  -OEChem-04172616093D

 71 74  0     1  0  0  0  0  0999 V2000
   12.0114   -4.9172  -20.7080 C   0  0  0  0  0  0  0  0  0  0  0  0
   12.0640   -4.0535  -19.5963 C   0  0  0  0  0  0  0  0  0  0  0  0
   10.9556   -4.8192  -21.6321 C   0  0  0  0  0  0  0  0  0  0  0  0
   11.0581   -3.0907  -19.4016 C   0  0  0  0  0  0  0  0  0  0  0  0
    9.9510   -3.8583  -21.4447 C   0  0  0  0  0  0  0  0  0  0  0  0
    9.9939   -2.9886  -20.3248 C   0  0  0  0  0  0  0  0  0  0  0  0
    6.6828    3.7997  -19.7393 C   0  0  0  0  0  0  0  0  0  0  0  0
    4.4176    3.6128  -19.3869 C   0  0  0  0  0  0  0  0  0  0  0  0
    8.9216   -2.0066  -20.1241 C   0  0  0  0  0  0  0  0  0  0  0  0
    6.6420   10.5071  -22.0165 C   0  0  0  0  0  0  0  0  0  0  0  0
    5.2307   10.1323  -21.5298 C   0  0  0  0  0  0  0  0  0  0  0  0
    7.2302    9.4077  -22.9201 C   0  0  0  0  0  0  0  0  0  0  0  0
    4.4916   -0.6231  -21.7544 C   0  0  0  0  0  0  0  0  0  0  0  0
    5.2506    8.7865  -20.7979 C   0  0  0  0  0  0  0  0  0  0  0  0
    7.2435    8.0503  -22.2013 C   0  0  0  0  0  0  0  0  0  0  0  0
    4.8684    0.7856  -22.2399 C   0  0  0  0  0  0  0  0  0  0  0  0
    5.6989   -1.5630  -21.8425 C   0  0  0  0  0  0  0  0  0  0  0  0
    7.2879    0.3856  -21.6065 C   0  0  0  0  0  0  0  0  0  0  0  0
    5.8200    7.6830  -21.7092 C   0  0  0  0  0  0  0  0  0  0  0  0
    6.1001    1.3309  -21.4745 C   0  0  1  0  0  0  0  0  0  0  0  0
    6.8664   -0.9697  -21.0470 C   0  0  2  0  0  0  0  0  0  0  0  0
    5.9826    3.8500  -21.0952 C   0  0  2  0  0  0  0  0  0  0  0  0
    5.9166    3.6195  -17.3420 C   0  0  0  0  0  0  0  0  0  0  0  0
    6.4933    2.7219  -22.0075 C   0  0  0  0  0  0  0  0  0  0  0  0
    5.8191    6.3798  -20.9110 C   0  0  0  0  0  0  0  0  0  0  0  0
    6.2238    5.1918  -21.7991 C   0  0  0  0  0  0  0  0  0  0  0  0
    4.5591    3.6872  -20.7691 N   0  0  0  0  0  0  0  0  0  0  0  0
    5.6890    3.5790  -18.7925 N   0  0  0  0  0  0  0  0  0  0  0  0
    7.9786   -1.8751  -21.1238 N   0  0  0  0  0  0  0  0  0  0  0  0
    3.2702    3.5685  -18.7605 N   0  3  0  0  0  0  0  0  0  0  0  0
    7.8872    3.9072  -19.5359 O   0  0  0  0  0  0  0  0  0  0  0  0
    8.8484   -1.3475  -19.0903 O   0  0  0  0  0  0  0  0  0  0  0  0
   12.7847   -5.6575  -20.8513 H   0  0  0  0  0  0  0  0  0  0  0  0
   12.8790   -4.1312  -18.8919 H   0  0  0  0  0  0  0  0  0  0  0  0
   10.9184   -5.4821  -22.4838 H   0  0  0  0  0  0  0  0  0  0  0  0
   11.0990   -2.4305  -18.5479 H   0  0  0  0  0  0  0  0  0  0  0  0
    9.1418   -3.7803  -22.1557 H   0  0  0  0  0  0  0  0  0  0  0  0
    6.5875   11.4475  -22.5847 H   0  0  0  0  0  0  0  0  0  0  0  0
    7.2979   10.6434  -21.1440 H   0  0  0  0  0  0  0  0  0  0  0  0
    4.8664   10.9112  -20.8438 H   0  0  0  0  0  0  0  0  0  0  0  0
    4.5565   10.0624  -22.3962 H   0  0  0  0  0  0  0  0  0  0  0  0
    6.6190    9.3260  -23.8310 H   0  0  0  0  0  0  0  0  0  0  0  0
    8.2605    9.6800  -23.1931 H   0  0  0  0  0  0  0  0  0  0  0  0
    4.1521   -0.5670  -20.7096 H   0  0  0  0  0  0  0  0  0  0  0  0
    3.6795   -1.0173  -22.3831 H   0  0  0  0  0  0  0  0  0  0  0  0
    5.8786    8.8730  -19.8989 H   0  0  0  0  0  0  0  0  0  0  0  0
    4.2247    8.5194  -20.5042 H   0  0  0  0  0  0  0  0  0  0  0  0
    7.5972    7.2755  -22.8973 H   0  0  0  0  0  0  0  0  0  0  0  0
    7.9224    8.1047  -21.3375 H   0  0  0  0  0  0  0  0  0  0  0  0
    5.1026    0.7444  -23.3138 H   0  0  0  0  0  0  0  0  0  0  0  0
    4.0161    1.4615  -22.0761 H   0  0  0  0  0  0  0  0  0  0  0  0
    5.4310   -2.5444  -21.4239 H   0  0  0  0  0  0  0  0  0  0  0  0
    5.9952   -1.6819  -22.8951 H   0  0  0  0  0  0  0  0  0  0  0  0
    7.5691    0.2830  -22.6650 H   0  0  0  0  0  0  0  0  0  0  0  0
    8.1433    0.7768  -21.0361 H   0  0  0  0  0  0  0  0  0  0  0  0
    5.1622    7.5686  -22.5834 H   0  0  0  0  0  0  0  0  0  0  0  0
    5.8370    1.4240  -20.4105 H   0  0  0  0  0  0  0  0  0  0  0  0
    6.5539   -0.8417  -20.0001 H   0  0  0  0  0  0  0  0  0  0  0  0
    4.9728    3.4122  -16.8163 H   0  0  0  0  0  0  0  0  0  0  0  0
    6.6638    2.8605  -17.0669 H   0  0  0  0  0  0  0  0  0  0  0  0
    6.2841    4.6161  -17.0563 H   0  0  0  0  0  0  0  0  0  0  0  0
    7.5899    2.7827  -22.0686 H   0  0  0  0  0  0  0  0  0  0  0  0
    6.0623    2.8533  -23.0110 H   0  0  0  0  0  0  0  0  0  0  0  0
    6.5331    6.4668  -20.0787 H   0  0  0  0  0  0  0  0  0  0  0  0
    4.8097    6.2031  -20.5111 H   0  0  0  0  0  0  0  0  0  0  0  0
    7.2923    5.2784  -22.0453 H   0  0  0  0  0  0  0  0  0  0  0  0
    5.6306    5.2205  -22.7250 H   0  0  0  0  0  0  0  0  0  0  0  0
    3.8129    3.6379  -21.4330 H   0  0  0  0  0  0  0  0  0  0  0  0
    8.0750   -2.4393  -21.9438 H   0  0  0  0  0  0  0  0  0  0  0  0
    3.2474    3.5042  -17.7628 H   0  0  0  0  0  0  0  0  0  0  0  0
    2.4158    3.5989  -19.2792 H   0  0  0  0  0  0  0  0  0  0  0  0
  1  2  1  0  0  0  0
  1  3  2  0  0  0  0
  2  4  2  0  0  0  0
  3  5  1  0  0  0  0
  4  6  1  0  0  0  0
  5  6  2  0  0  0  0
  6  9  1  0  0  0  0
  7 22  1  0  0  0  0
  7 28  1  0  0  0  0
  7 31  2  0  0  0  0
  8 27  1  0  0  0  0
  8 28  1  0  0  0  0
  8 30  2  0  0  0  0
  9 29  1  0  0  0  0
  9 32  2  0  0  0  0
 10 11  1  0  0  0  0
 10 12  1  0  0  0  0
 11 14  1  0  0  0  0
 12 15  1  0  0  0  0
 13 16  1  0  0  0  0
 13 17  1  0  0  0  0
 14 19  1  0  0  0  0
 15 19  1  0  0  0  0
 16 20  1  0  0  0  0
 17 21  1  0  0  0  0
 18 20  1  0  0  0  0
 18 21  1  0  0  0  0
 19 25  1  0  0  0  0
 20 24  1  0  0  0  0
 21 29  1  0  0  0  0
 22 24  1  0  0  0  0
 22 26  1  0  0  0  0
 22 27  1  0  0  0  0
 23 28  1  0  0  0  0
 25 26  1  0  0  0  0
  1 33  1  0  0  0  0
  2 34  1  0  0  0  0
  3 35  1  0  0  0  0
  4 36  1  0  0  0  0
  5 37  1  0  0  0  0
 10 38  1  0  0  0  0
 10 39  1  0  0  0  0
 11 40  1  0  0  0  0
 11 41  1  0  0  0  0
 12 42  1  0  0  0  0
 12 43  1  0  0  0  0
 13 44  1  0  0  0  0
 13 45  1  0  0  0  0
 14 46  1  0  0  0  0
 14 47  1  0  0  0  0
 15 48  1  0  0  0  0
 15 49  1  0  0  0  0
 16 50  1  0  0  0  0
 16 51  1  0  0  0  0
 17 52  1  0  0  0  0
 17 53  1  0  0  0  0
 18 54  1  0  0  0  0
 18 55  1  0  0  0  0
 19 56  1  0  0  0  0
 20 57  1  0  0  0  0
 21 58  1  0  0  0  0
 23 59  1  0  0  0  0
 23 60  1  0  0  0  0
 23 61  1  0  0  0  0
 24 62  1  0  0  0  0
 24 63  1  0  0  0  0
 25 64  1  0  0  0  0
 25 65  1  0  0  0  0
 26 66  1  0  0  0  0
 26 67  1  0  0  0  0
 27 68  1  0  0  0  0
 29 69  1  0  0  0  0
 30 70  1  0  0  0  0
 30 71  1  0  0  0  0
M  CHG  1  30   1
M  END
> <OMEGA_C>
mi5AQQ9ancAFqqXBJgZBQXq2gcAuxZzBFUovQbo2msBxDq3BC+4wQRTORcCBNpvBKjcfQTPudsDM
jqvBLOcfQdtEP8A/maLB5tnVQMYtc0AD6p3BI12NQN04Z0BrGJvB774OQadrAMAl/qDBCIvUQEkd
KEHTIbDBpmGnQP8dIkEYPazBEl7nQCKGFkFrXLfB6LqPQM6DH78VCa7BhwSoQH2VDEEYYqbBEMvn
QCLOAEE5nLHBv8mbQJgdST8467HBbV22QDkRyL9ova7BcDbpQJdwxT4f2qzBYj26QOva9UB/rK3B
YzTDQAJaqj+ty6vBq7nbQB5BeL9EYKjBlHG/QKhmdkANw6jB3FS9QGSlZ0BvvIrB9cjPQGw0LkBt
D7DBPTa6QBEnzECpSafB/yjHQFcjpkCGZK7Bc+SRQMn7a0AeJ6bBqAy2QKEOZUAcV5bBEFH/QJwC
8L+M/ajBwUpRQLBiZEBrFZbBtGP8QDYQekB7SZzB65INQVF8rL/vuJjB+I1MQd0JtcBnz6bBQRBO
QZ0yhMCLIpfB5rEuQaNtr8De3rPBkJUxQS2NG8ATYpTBtUQSQZnwccDuPrHB3MzSQMUoN0GFrbTB
I4jpQHtLKkH6JqnB5bmbQG2ULkEcwKbBL8+RQHD/IEF9K7PBB8/TQHA3FUHypb7B6yoEQS7hGkFe
i7nBLd6EQN0oEb9OraXBvn1rQF42gr+kELPBRh28QK73DUELMZ/BtjCHQFZPCEGXCKTBUxzzQJvQ
6EDELbfBR4T9QOysAUEds6rBtEijQHaPPj+6grrB44OAQDgSuz/wm7DB/cqtQPLWIsApZKvBfNi/
QE9I179BKbfBVDbyQNrfkD7gUbXBxUoCQXDdRj/9SajBoTClQFIy8kDaqrTB5si6QCFGtj+cSKPB
sLnRQJB5V79DAKDBdiGfQDNhWkDgh4bBfD3VQOQRN0ABiYjB+hbJQGe3k0BIc4jBeODyQJUXMkCV
jLDBRf7BQBmcNkCUFrjBOQ/RQALwzkA0oaDBG+mZQI5/xkDTFqTB0FrpQF7oqEDdXLDB4S20QCoO
p0DUzLXBUwd0QMLTaEDLdqvBSDMBQUQeHMDNjK/BAdVPQENFYEAxGo7Bc5waQPZUZkDOO5rBHzZA
QSkEncBAuKXBxkkvQYL+mcBtGa3BCgpBQTpZgcDn1JzBfiofQYSudsARmKvBleYwQapFRcDHRJvB
gNUfQdL+PsCMo6LBXuTVQMRudUAG1Z3Bv1yNQMhIaUBpGZvBVp0OQRBsAMDgAaHBT6TVQOj+J0G1
KbDBcMSoQBVzIkHu66vBWznmQEx/FkETxrfBSVuPQI+IF788063BOSipQHy9DEGQP6bBF5bmQMSQ
AEEjPrLBKNKbQHzATz83vbHBhKC1QD3hxb/Rm67BAC/pQMIGxj6HyKzBMpy5QLEc9kBEyq3BmoXD
QFIsrD/rpavB/l7bQHRRd7/0TajB98O/QJhZd0DMuKjBhzG9QPqmZUDgu4rBWXjQQPLOLkDU66/B
SDa6QDuEzECIY6fB0VXHQPBspkB1cK7BnDSSQGLAbECHJ6bBXoa1QCoAc0AVNZbBS7f+QNz18L/g
8KjBeVtRQKbqX0DpMpbB4o38QF63d0D8LpzB9pENQZSgq79YxJjBfZ1MQQOitMAr36bB2bQuQRs6
r8AC6bPBihlOQSK8g8C1NJfBWjMSQTvfccAoRrHBeIwxQQT0GsDucZTBfSLUQB5JN0FCgbTBbMrr
QIWCKUGMXanBPoeeQDXfLkHOPKbBUi+SQHrTIUEsqrLBOkvRQMu6FUGy1r7BCHwDQXuJGkHzSrrB
l8yEQBAMCL+5caXB7BxqQP4Oer9KzLLBuTW+QMGtDUEaNp/BHnOIQDDHCEEuq6PBoCTwQLqF6EBJ
ELjB77D9QF7iAEEQm6vBzjGjQB0ZRD8PVrrB38qAQAWQvz/narDB/MusQMyTIcCtQKvBS9O+QLRg
1b8nDLfBXurxQP0MkT6aRLXBwWcCQZiJRD/jQqjBZjmjQM2/8kBsh7TB2U+7QEgsuD+uH6PBRpXR
QKK6Vb/A6p/Bzn6eQBNqZkDQbYbB8vrMQLl7J0AmhYnBO9zRQKCHjEDKqIfBi5fzQG+CMkDtR7DB
vyvDQMn3NkA+AbjBRTXRQJWpz0DbxaDBSw6aQL6ZxkAHIaTBAYXpQIVHqUC5abDB/Fq0QLgPp0BI
2bXBLfJ0QD6uaEAhf6vBLqwAQfFYHcB2cq/BMxxPQIQ3X0BMNI7BF4MbQE50WUBocprBsf0/QROS
ncCIi6XBoMFAQfkHgsBzoZzBNUsvQbwCmsB2Ca3BD8kwQbLJRcApKJvBmVgfQWDadcA1n6vBK/Uf
QWxbPsB/paLBFt3VQBUub0CuqZ3BAxuNQFFBZ0DMCJvBP+EOQRv0/b/jGqHB9s/FQHfiJUFy1LTB
vfToQMVlFUHiTrfBv++1QMajI0GtPKnBEouPQHabHr+aG67BrJLYQNMq/UAUXrXBtmamQKnTDEFX
+6bBWVqbQHiLSj/MBrLBJFa2QMwUx7+3yq7BR9XoQIVfzj7o8qzBqjfJQBEf+EBvoqnBuZ/CQLi/
qz9Y5qvBTbbbQOiVdL96dqjB7fK/QM/adkDShKjBSoO8QE29ZUAqkYrBuB3PQBVnL0BrFrDBlNO1
QK3sy0DTL6fBB8jKQAYWp0DWd63BPBmSQMPmbkDuD6bB2Za1QF+dYkB/LpbBtYz/QNZG7b/aGqnB
2WRQQCWRZEDfG5bBNln8QOuUdUCv7JvBOa8NQaWIqb+W1pjBlkRMQTKAtcBloabBtaNNQUDXhMBi
6pbBM8AuQWApr8BS3bPBh2ExQeyyG8BTT5TBFY4SQWQ6cMBtY7HBhsrSQHIUNkHZ/LXBDMWqQHBb
I0HNUbrBAKvyQH4CF0Fiur/B7VYCQdZpGEF1GbLBpVPQQNt+J0HyvaPBFVebQDLdLkGg66fBPq+E
QNvpD7/mv6XBMzprQKd/gr83ILPBK7S9QNed9kC3z7rBnJPyQLxG5kAA7bbBvPmdQMF9C0G5dp7B
ge+JQB+XCUEf5qvBmOOiQJy1Pz+nnbrB2e9/QCZKuz8gvLDBfeatQGNMIsBhaKvBe8a/QGm11r+P
NrfBStbxQBhKmj7FarXBDRACQfQFTT+LZKjB/LHkQE1Z/UC/SqTBqiW6QGnztj8zY6PBCdHRQDhc
VL/0E6DBCxGeQK7KWUAxaYbBzu3TQB+BNEAkRIjByL3IQESikkDJUojBaybyQG3HMkBj1LDBQmrA
QF8ZOUCv/bfB9qK5QP99xUBslp7BC5KTQD3KzEAWM6nBq7XtQAdxq0BCZa3BsSS/QKvNp0ByxbXB
l8R0QBL5bkD8bqvBtWIBQd1zGsCYr6/BFVFOQLGzXkCTJY7BbgoaQIRgaEA9TprBqrg/QcGsn8Cf
7KbB1X8tQZG1ncDzga3BbjxCQT5pgsBUcp7BSsodQdn4fMDYoKvBU4QyQZNDRsAjgpzBTC8gQefa
QcDAGqPBTeTTQIOccUD35ZzBc8OKQExUaEBQHJvBh5sPQXq3AMCuNKHB/F3MQOdFIkFTbbfBaiz1
QEx+F0FbFbPBAk+mQHOaH0G/rK/Bm+6PQMhCBb9AJa3B/dLsQCjS/0D0W7DBJHKeQADSB0FtGq3B
lNScQByqXD9/d7HBAbC1QEnRv7/kxq3BlyPqQIHa3D6FpazBeWPHQARB/EDeSqjB2YHEQFETsz9u
cavBJajcQAJTa7/Q5afBTbq/QMEZe0DO/KfB+/y2QPILZ0AGHYrBvefQQL8dNEAGfK/BmOW/QFI5
zkBnVKTBzYfIQI9wqkBiuKzBBbqRQFlgcUBYCabBhk2yQCZmZEA7zJXBOW7/QKl97r850ajB2ONJ
QO7yY0BgqZbBpA36QMMzd0Agt5rBK9YPQdC0qL8WGZnBFtBLQeOst8BVX6jByJcrQXYwtMAbALTB
7ERQQSD9g8Cma5nBZdEPQT3yecCosrDBVXU0QbWhGcCe+5XB3abSQLFwM0GAkLjBGAfEQAr5GkF9
KL/BNT0HQVBvGEG0LrnBlqD/QBDtH0GZ0KvBV02tQMM4KEE0NKjB6GKJQLlaJkGGYrPBYs6FQPIx
1753waTBqmxqQC60ab8S8LHBAJDkQJxY7kC0trfBa+oEQcvT8UDLzqzBKhOEQPVmBkFSUafB7giW
QHFx/kDpfLTBFGGkQLbyRj8DCbrBEgiCQPntxz+RX7DBbISsQOzzHMBpCqrB5QC+QAXO1b93N7bB
GibyQAu7nj4aKbXB2hMDQe0AUj94UqjBrfnPQD/ZB0EjR6HB+2m8QPy1vD9p5qLBKUfUQL07Rr/7
bZ/BL9CXQPqaWkCpVYbBlBDOQGPvNUDWkYfB1JvCQEJLk0ByrofBI/7zQPrTOEBI3q/B5mjDQKuP
PUCbhrfBrhbVQJKhyECWcZ3Ba1aeQP6Zy0CtwaHBsyrqQC4urED2Rq/Bi4mzQGl7r0Cnq7PBYfp1
QKlEcUBoqqvBJk0AQYhbHMANVK/BQbdEQF0jXUC/u47BCjwVQCJpZ0A1MJvB3qc/QVjNncAZhqbB
UiA/QeBEhsA46pzBNCEwQY+plsC/d67B2AIvQQg2T8DYMZvBrA4gQVoQcMCKz6zBVlYfQZyjQMBO
I6PBZwPWQO7tZEB/Z5rBvWmMQCZfaEBYMZrBSjcOQViBAcBycqHBGhO6QOU6JUFNo7LBdYm2QFD7
F0FH+7zB9RLbQIFKG0HICqvBilmUQOSFpb7LtbDBlcapQE/dAEEtebrBEOrOQOkoBEEoX6jBHNqk
QCPxij/cd7PBUDC5QFx6q7+YvrDBAVvuQFTK/z72jKzBdPzJQMkC7UA1vbLBQV7JQPtvvj90xavB
2xrdQEF4X79eOqnBFUvGQOKeeUAKkqXBgoyyQDCwX0BBZIjBlxPZQKxnO0CF9q3BMJa5QMGvv0Ax
grDBtS/TQAkvq0D0fqfBw5WXQKJgcUBk16TBGauxQPY3XEDnGZTBkzv/QFUw679zn6nBHiFKQNZt
akDKo5bBZ0H7QN47aUBaW5fBLuYMQXq0sb8gEJnB/AVMQfpltcAIy6fBGyBLQc/Ii8A72pbB0ZMw
QXG5qMCa1LXB/p0uQQFQK8Bi0JPBrywUQQ/zZMCH7bLB/wbEQK+fNUEpp7TBcLKaQPamJUHDp67B
ASueQCsyH0EvNcLB0qbVQHAFGEGsGMHBCbj6QON8G0ER5a7BXEPcQGyzJEGFnKPBbJeFQJPom77s
uKjBuKV4QJ8LIL+1q7bB+dKJQBPDAEEGyLbBZfyoQBs570DZ9MHBkBLoQDsu+kBJVaPBMGSwQPQa
BEEZ/aPBEuywQI+wiz8KvLvB43OKQKVO5z/ZuLLBFSmtQC06FMDjBq7BEeXFQNmnt7906rjBW176
QDhv6z7x0LTBEDMEQQPpTT/eJ6fBBVTpQCzt6kDstbbBuLu8QLkluj/nj6PB207QQJyWTb+YDKHB
Z+6RQGstV0BGQoXBUUfHQEJiLEATUYXBFRy/QGwOj0AKzoXBGjn8QGAVPUCghq3B9a/OQPU6T0BY
/7XBwaqXQEs8wUBYMK7Bxee8QJ0zrEBNyrfBa8vNQE2BvUCRGqDBq1z1QCQ0rECElqnBYTyDQDYl
ckDFA6vBZP4AQcHmGcDELLDBSXY+QNvfYkCs1I7B6J4ZQI2Oc0Bpu5vBu2FAQW/XncBseKfBITQt
QV4Jn8A+W63BA6ZDQVyYe8CCt5/BK0QdQW4/gMCPfKvBOrAzQcoPPsB9xZ3BZ10gQbc/QMBJo6PB
LPrQQAfzY0Dhg5nBItqHQBRfaUBqkprBTngPQSHBAMBUo6HBAATGQPA1JUEGl7TB4OrqQLpkGEGr
q7nBOPS4QITcG0GjqKnBVhqRQHjCvb4x/q3BMrbeQCK6AEHvzrrByN2tQLz8A0HnoKrBdsCgQPIq
hD/oULHBroi1QBRCs799sq7BpCXsQJWQ4j5MAKzBnIvTQFwU70Amz6/ByNXHQLteuT+be6rBwiLc
QLwRbb8UGqjB6rrEQAArekDq56TBqgypQMY2WUANLIjB1HPXQOYWOUDGCK3BUrTIQO5Pv0C23LDB
uq3UQJXdqkDOPabBSuqVQF8ZeEAd7KTB0F6rQMheaEA7tJPBfBX+QBJT878qBanBxnc/QK0JYEAp
2pfBem71QDTSXECc/ZXBrAAQQVjlpb+eqJnBNaBMQUiMtcCS5qjBX70qQfaat8CCTrPBanBSQc6x
ecBwQZvBh5gOQTAPgcAtDLDBJTM2QQIoDcDcy5fBsFnQQCTjNUE8erPBWzmqQMTDJEFo/LnBnAHy
QM4AH0GuocHBzLoDQV65GUFAkLTBN6vTQEXFHUE2AqTBvdOcQDyRJEGnpqbBykeFQARUqb7VtaXB
PvBtQHfuLb9+WLPB0dzCQKSI/kABJMDBrdX5QJad70DUNb7Bv46nQJnj+kDlnKLBeiWRQI0pAkFR
oq/Bj/OpQAE8gj8wz7nBxcOGQKMv4T9mHrDBP0eqQGtsF8DBjqvBlTK/QGmMwr/fGrfB5ev0QGp9
xD6qgrTBfxkEQVp1QD/dS6fB0q3vQLBL8kD2lKrBJBq+QCE5tj85B6LBD0PSQEInVb80sJ/Be8KH
QKZ8YED+dYXBszO0QCz4F0B5ZYbB1nO9QN7jg0Dh+4PBl5n6QCj1OkBKnazBlATNQJqySkA5JbXB
ClSmQBMdu0Dvb7LBDEjbQO7YsEBjZ7fBdAXHQENovkBrxJ/Bw8b3QKK2qkCJkqXBUDGDQGf/f0Cl
VavB89X9QG+OIcCDRq/B4ssvQFYUV0BPLZDBesERQArbYUBacp3B

> <OMEGA_E>
YDEFPlC/Cj4ghhM+0MFAPlgjwT6o+cM+

> <OMEGA_NBR>
     12812

$$$$
50253455
  -OEChem-04172616093D

 77 80  0     1  0  0  0  0  0999 V2000
   11.2831   -5.0648  -21.9973 C   0  0  0  0  0  0  0  0  0  0  0  0
   11.2989   -3.8867  -19.8566 C   0  0  0  0  0  0  0  0  0  0  0  0
   12.4527   -5.7442  -21.6329 C   0  0  0  0  0  0  0  0  0  0  0  0
   12.4633   -4.5712  -19.4921 C   0  0  0  0  0  0  0  0  0  0  0  0
   10.6994   -4.1346  -21.1178 C   0  0  0  0  0  0  0  0  0  0  0  0
   13.0387   -5.5040  -20.3785 C   0  0  0  0  0  0  0  0  0  0  0  0
    6.7106    3.8487  -19.6245 C   0  0  0  0  0  0  0  0  0  0  0  0
    4.4514    3.6609  -19.2422 C   0  0  0  0  0  0  0  0  0  0  0  0
    8.7848   -2.5438  -20.9496 C   0  0  0  0  0  0  0  0  0  0  0  0
    6.7034   10.4839  -22.1797 C   0  0  0  0  0  0  0  0  0  0  0  0
    5.3328   10.1691  -21.5530 C   0  0  0  0  0  0  0  0  0  0  0  0
    7.1739    9.3367  -23.0921 C   0  0  0  0  0  0  0  0  0  0  0  0
    4.3870   -0.5384  -21.2528 C   0  0  0  0  0  0  0  0  0  0  0  0
    5.3832    8.8502  -20.7735 C   0  0  0  0  0  0  0  0  0  0  0  0
    7.2223    8.0076  -22.3248 C   0  0  0  0  0  0  0  0  0  0  0  0
    4.7123    0.8649  -21.7797 C   0  0  0  0  0  0  0  0  0  0  0  0
    5.4604   -1.5306  -21.6960 C   0  0  0  0  0  0  0  0  0  0  0  0
    7.1812    0.3396  -21.7706 C   0  0  0  0  0  0  0  0  0  0  0  0
    5.8438    7.6973  -21.6863 C   0  0  0  0  0  0  0  0  0  0  0  0
    6.1170    1.3313  -21.3018 C   0  0  1  0  0  0  0  0  0  0  0  0
    6.8364   -1.0462  -21.2341 C   0  0  2  0  0  0  0  0  0  0  0  0
    5.9939    3.8831  -20.9702 C   0  0  2  0  0  0  0  0  0  0  0  0
    5.9756    3.6679  -17.2189 C   0  0  0  0  0  0  0  0  0  0  0  0
   13.9724   -7.0170  -18.8357 C   0  0  0  0  0  0  0  0  0  0  0  0
    6.4702    2.7230  -21.8681 C   0  0  0  0  0  0  0  0  0  0  0  0
    5.8891    6.4239  -20.8406 C   0  0  0  0  0  0  0  0  0  0  0  0
    6.2500    5.2040  -21.7070 C   0  0  0  0  0  0  0  0  0  0  0  0
    4.5750    3.7745  -20.6216 N   0  0  0  0  0  0  0  0  0  0  0  0
    5.7299    3.6241  -18.6656 N   0  0  0  0  0  0  0  0  0  0  0  0
    9.5675   -3.4832  -21.5877 N   0  0  0  0  0  0  0  0  0  0  0  0
    7.8144   -1.9798  -21.7329 N   0  0  0  0  0  0  0  0  0  0  0  0
    3.3111    3.5922  -18.6051 N   0  3  0  0  0  0  0  0  0  0  0  0
    7.9181    3.9519  -19.4384 O   0  0  0  0  0  0  0  0  0  0  0  0
    8.8795   -2.2610  -19.7597 O   0  0  0  0  0  0  0  0  0  0  0  0
   14.1529   -6.2157  -20.0219 O   0  0  0  0  0  0  0  0  0  0  0  0
   10.8274   -5.2558  -22.9577 H   0  0  0  0  0  0  0  0  0  0  0  0
   10.8574   -3.1710  -19.1789 H   0  0  0  0  0  0  0  0  0  0  0  0
   12.9028   -6.4508  -22.3143 H   0  0  0  0  0  0  0  0  0  0  0  0
   12.9211   -4.3850  -18.5319 H   0  0  0  0  0  0  0  0  0  0  0  0
    6.6230   11.4057  -22.7745 H   0  0  0  0  0  0  0  0  0  0  0  0
    7.4407   10.6290  -21.3763 H   0  0  0  0  0  0  0  0  0  0  0  0
    5.0537   10.9831  -20.8678 H   0  0  0  0  0  0  0  0  0  0  0  0
    4.5807   10.0880  -22.3517 H   0  0  0  0  0  0  0  0  0  0  0  0
    6.4756    9.2393  -23.9365 H   0  0  0  0  0  0  0  0  0  0  0  0
    8.1794    9.5691  -23.4727 H   0  0  0  0  0  0  0  0  0  0  0  0
    4.3467   -0.5136  -20.1538 H   0  0  0  0  0  0  0  0  0  0  0  0
    3.4115   -0.8578  -21.6483 H   0  0  0  0  0  0  0  0  0  0  0  0
    6.0890    8.9522  -19.9360 H   0  0  0  0  0  0  0  0  0  0  0  0
    4.3805    8.6231  -20.3825 H   0  0  0  0  0  0  0  0  0  0  0  0
    7.4895    7.1981  -23.0199 H   0  0  0  0  0  0  0  0  0  0  0  0
    7.9814    8.0753  -21.5316 H   0  0  0  0  0  0  0  0  0  0  0  0
    4.6942    0.8488  -22.8794 H   0  0  0  0  0  0  0  0  0  0  0  0
    3.9545    1.5717  -21.4108 H   0  0  0  0  0  0  0  0  0  0  0  0
    5.2524   -2.5157  -21.2530 H   0  0  0  0  0  0  0  0  0  0  0  0
    5.4514   -1.6125  -22.7929 H   0  0  0  0  0  0  0  0  0  0  0  0
    7.2038    0.3147  -22.8701 H   0  0  0  0  0  0  0  0  0  0  0  0
    8.1663    0.6480  -21.3906 H   0  0  0  0  0  0  0  0  0  0  0  0
    5.1050    7.5654  -22.4905 H   0  0  0  0  0  0  0  0  0  0  0  0
    6.1230    1.3780  -20.2028 H   0  0  0  0  0  0  0  0  0  0  0  0
    6.8582   -1.0224  -20.1346 H   0  0  0  0  0  0  0  0  0  0  0  0
    5.0398    3.4564  -16.6809 H   0  0  0  0  0  0  0  0  0  0  0  0
    6.7303    2.9134  -16.9522 H   0  0  0  0  0  0  0  0  0  0  0  0
    6.3413    4.6670  -16.9393 H   0  0  0  0  0  0  0  0  0  0  0  0
   14.9041   -7.5573  -18.6122 H   0  0  0  0  0  0  0  0  0  0  0  0
   13.7146   -6.3647  -17.9884 H   0  0  0  0  0  0  0  0  0  0  0  0
   13.1603   -7.7402  -19.0020 H   0  0  0  0  0  0  0  0  0  0  0  0
    7.5629    2.7898  -21.9753 H   0  0  0  0  0  0  0  0  0  0  0  0
    5.9977    2.8287  -22.8558 H   0  0  0  0  0  0  0  0  0  0  0  0
    6.6462    6.5420  -20.0513 H   0  0  0  0  0  0  0  0  0  0  0  0
    4.9030    6.2608  -20.3813 H   0  0  0  0  0  0  0  0  0  0  0  0
    7.3153    5.2609  -21.9752 H   0  0  0  0  0  0  0  0  0  0  0  0
    5.6399    5.2248  -22.6221 H   0  0  0  0  0  0  0  0  0  0  0  0
    3.8161    3.7810  -21.2728 H   0  0  0  0  0  0  0  0  0  0  0  0
    9.2808   -3.7281  -22.5139 H   0  0  0  0  0  0  0  0  0  0  0  0
    7.7824   -2.2282  -22.7010 H   0  0  0  0  0  0  0  0  0  0  0  0
    3.2994    3.5041  -17.6090 H   0  0  0  0  0  0  0  0  0  0  0  0
    2.4510    3.6277  -19.1140 H   0  0  0  0  0  0  0  0  0  0  0  0
  1  3  2  0  0  0  0
  1  5  1  0  0  0  0
  2  4  1  0  0  0  0
  2  5  2  0  0  0  0
  3  6  1  0  0  0  0
  4  6  2  0  0  0  0
  5 30  1  0  0  0  0
  6 35  1  0  0  0  0
  7 22  1  0  0  0  0
  7 29  1  0  0  0  0
  7 33  2  0  0  0  0
  8 28  1  0  0  0  0
  8 29  1  0  0  0  0
  8 32  2  0  0  0  0
  9 30  1  0  0  0  0
  9 31  1  0  0  0  0
  9 34  2  0  0  0  0
 10 11  1  0  0  0  0
 10 12  1  0  0  0  0
 11 14  1  0  0  0  0
 12 15  1  0  0  0  0
 13 16  1  0  0  0  0
 13 17  1  0  0  0  0
 14 19  1  0  0  0  0
 15 19  1  0  0  0  0
 16 20  1  0  0  0  0
 17 21  1  0  0  0  0
 18 20  1  0  0  0  0
 18 21  1  0  0  0  0
 19 26  1  0  0  0  0
 20 25  1  0  0  0  0
 21 31  1  0  0  0  0
 22 25  1  0  0  0  0
 22 27  1  0  0  0  0
 22 28  1  0  0  0  0
 23 29  1  0  0  0  0
 24 35  1  0  0  0  0
 26 27  1  0  0  0  0
  1 36  1  0  0  0  0
  2 37  1  0  0  0  0
  3 38  1  0  0  0  0
  4 39  1  0  0  0  0
 10 40  1  0  0  0  0
 10 41  1  0  0  0  0
 11 42  1  0  0  0  0
 11 43  1  0  0  0  0
 12 44  1  0  0  0  0
 12 45  1  0  0  0  0
 13 46  1  0  0  0  0
 13 47  1  0  0  0  0
 14 48  1  0  0  0  0
 14 49  1  0  0  0  0
 15 50  1  0  0  0  0
 15 51  1  0  0  0  0
 16 52  1  0  0  0  0
 16 53  1  0  0  0  0
 17 54  1  0  0  0  0
 17 55  1  0  0  0  0
 18 56  1  0  0  0  0
 18 57  1  0  0  0  0
 19 58  1  0  0  0  0
 20 59  1  0  0  0  0
 21 60  1  0  0  0  0
 23 61  1  0  0  0  0
 23 62  1  0  0  0  0
 23 63  1  0  0  0  0
 24 64  1  0  0  0  0
 24 65  1  0  0  0  0
 24 66  1  0  0  0  0
 25 67  1  0  0  0  0
 25 68  1  0  0  0  0
 26 69  1  0  0  0  0
 26 70  1  0  0  0  0
 27 71  1  0  0  0  0
 27 72  1  0  0  0  0
 28 73  1  0  0  0  0
 30 74  1  0  0  0  0
 31 75  1  0  0  0  0
 32 76  1  0  0  0  0
 32 77  1  0  0  0  0
M  CHG  1  32   1
M  END
> <OMEGA_C>
bYc0QXESosCO+q/BJ8g0QYq/eMA72p7BGT5HQTLQt8AjEK3BkGlHQTJHksDc75vBoTArQVlOhMAq
8ajBqp5QQXwgsMAmB6PBML3WQM9QdkAQ/5zBtHGOQM9MakAR8JnBo44MQRPNIsDNmKfBZYLWQPW9
J0EAcLHBgaaqQMm0IkGZbKzBMJDlQERjFUGIvLjBA2KMQE7VCb+6BarBI0OsQIWaDUE2MKbBsBzn
QEkfAEEcmbLBesuWQLpqXT/DPK7BwruuQDnpw79lka3BmszlQBHerT5IKq7BRAC7QOtP9kBzfa3B
ur7DQNRnqj/+aarBlcPaQFvphb9436nBIs6/QC2FeEDnwqfBSTi/QKm/akBGwInBv45fQaCL4MCV
r5bBwQvPQMRFLkDd8a7BzHO8QEWQzUCAuabB0//HQPqGpkD0p63BamaSQMuQcUD5+KTBc1u3QKbw
Z0AQU5XBhRQZQWDtXsCis6zBhg/6QJ5o/b8K3a3BcOhTQETmZUAx15TB/mD9QHHsfEDHgZvBgBIO
Qf20EMDqE57BGXJiQTHnxsDmLKDBCD0tQXwvqMBaqbfB1bctQUjxSsBabpnBCXJOQVdtzsCxg7LB
Bb1OQa5RjMBHQZTB3+/TQMN9NkEgMrbB5hnuQFcQKkGwAqvBrrehQK66L0Ex8abBfZWSQJNoIUEu
0LLBgjjPQFrUE0Hifb/B094CQT0bGUH+x7vBRxiLQDV5A78DO6HB8FVaQOKaW7+8L63BDdnCQA08
D0HzfJ/B2SyMQAz4CUFGD6PBmanvQOhW5kDTKLjBU2f/QFI0AUGgQKzBrzaWQMVKWT8DCbfBQRZ9
QIotyT84SavB2xOoQPMAIcAbBqrB33GuQKdmzr/cV7bBhIXmQEAfoT4I9rbBQakCQQvkJT/hH6vB
MlyjQPsX8kCR7LPBOu/DQCJisD9Cn6HBK3bbQHTcgr+kE6HBz0WhQCM1XUB+coXB1F7XQHd1OkAo
nofBr+vKQEdYlUDGg4fBWHduQQbV8cDh5ZTBJ29bQUmry8A96I/BgpBSQXOv98AKBJjBTwPyQEuM
MkCBza/B8uy/QHQJNUCv2LbBXa3UQHhY0UAVaaDBQuWcQIJYyEDvDKPBuBbqQPxYqEAmza/BHHq0
QE4xp0AM+rTByjt0QEj7cUCxLqrB/n0UQVWZbsB0HLTBZQn5QHmbDsC5m7XBsChTQI9DYEBK34zB
LN0cQLwraECH6ZjBx0AyQWARo8DQybDBrjo1QVsPfsAYhJ/BSbJEQb6susBuia7BeqlHQRnHlsDl
P53BGYcqQf0NhcCYYqnB94pPQT2+tMBjzqTButjVQJ7WcUD0rZzBqNOMQDGoakBOhprB81MNQUcW
H8DwSqfB+l3EQLcuJkGOnbTBiV7fQJV/FEHR37nBwH7EQLLYI0G4X6jBkgaNQIaUBb/d/afB9snO
QN6N/EBFubbBtCW0QAyzDUFkDaXBinSWQMrVVz/aGK3BcGuuQNHMxb+khqvBLwjlQOhqoD5iGK7B
EG3OQHVk90BAZ6rBvzfEQJU3qT+VF6rBaVjbQKIPhL8w6ajBnwzBQI7yd0AwsqfBPGC6QOJSaECl
wInBa75oQRFh0cBsOpjBXBHPQC37LEDE667BiWm6QP/ZzEA896bBSGvNQP9npkDtDa3B4giTQLuD
dUBjdKXBrLy0QM7oZUC4aJXBV5MYQZB4XcAvmazBRjL5QKY+/r8BDa3BLK5OQDmLZUBG6ZXBwD38
QPN9dUA/tprBAGcRQW9kBcBSPp7BfLNhQVzwzMDqKKPB2OgpQUvwp8B9QbjBjjIvQUdzUMBdxJnB
gKFKQVuM0cBGS7TBq+VPQYFIksDHvJXBwb7RQE3hNUGgxbbBWECjQAcNJUFhi7fB4qndQLg5FkEW
n8LB+2cAQRIeFkE6QLfBYljlQKz2JUEfZaXBYqmvQAkvMEFS36TBtuSNQA1W2b6VOp/B4itaQISd
XL+Ff6rBKQ6uQKOB+EAnzLnBmbjjQNz840BnPLrBu7e2QKIeDEG5T5zBwW6SQBwhDEHvdKfBRf+T
QHRnQT/62LXBsed9QH74yT+VNKrB1t6oQCGkH8CKTKfB66+rQKCv2r+lM7TBTtbiQHQNZT5L2bbB
ebYCQfpEJD+C3qvBTYvvQITh+ED0cafBI3fGQIbbsT+iU6HBN77eQPjQcL+sLqDBumSbQHQTXUDK
0YXBoSvRQANRNkBCU4fBHc3GQDqyk0CvYIfBGkR3QR495cCJ+JfByEVsQbSTscDp5JTBmA9cQdKz
4MC9epPBOeLxQMHUMED2H7DBrr6+QKwEM0BVrrbBSAvAQFdRyEB4Wp7BZseXQLEizkBagajB9X/w
QJBFqUA6KK3B1T7BQGuSpkCvT7XBLZt3QInRekCM6qrBfvQSQRrQbMDA1rPBQ0/1QDx5E8C0krTB
YrBKQKJ4XUCm/Y3B81sZQC+1aUASTprBjIUyQYCfosBgE7DBojs1QfgZd8DoN5/BMv5EQaiVucAL
gK3BXqdHQTXHksAqm5zBQpIqQVWQg8AqCKnBQMhPQa+VscBLuKPBJkvVQJCeekAcap3B2yiNQOsI
bECwXZrBUCENQa/VHMDthqfBgV7mQKNbIEHDDKzB4Y+9QGGAGkGQyqXB5vf8QOIdDEHQOLDBF5CM
QAd4DL/CoKfB3LyeQM+PDUGS26zBXH7eQFq3/kBleLfBVIeUQM02Vj8QjazB9eutQAHhxb/2pavB
CjLjQOSTrj5yWK7B6wW0QFPb8kCesLHBEY3CQO5Rqz+C/6nBI7jaQGOsgb+2OanBlFi+QNB+ekCK
K6jBBDK+QFjoZUAGQ4rBOCVtQV6J3sBT/qjBuwjMQC9cLUAgH6/Bij66QAXcz0D5CanBjUDIQDr4
pUAela7BU+aQQCaFdkA0XqXBCpK1QA0UdkB4opXB0nkYQeeKXMB+hqzB0C/5QEd5+b9OcK3Bp1pS
QHaOXEBRYJXB2xr8QPdTekC1+pvB+LsQQXgqA8Aebp7BbEpiQbmOxsCovaDBqVUqQVDUqMBHhrfB
YCgvQcQ1R8B3x5nBnhBLQfpz0cAk9rLBXqlPQWoAjcBYFpXBJ6zdQESTKkGa4LLBX0z8QJEdKUEM
vabB917GQDniEEEWwp7BlJGtQEVFKUENKaPBYr8MQVzGEEFB0rTBQVADQSIYAkEuZ6nBT6eOQGbn
877S3J7BSehYQDLQZb/v6KnB+z2DQJiJCEGc+KfBc46TQEHZF0GcbbPBBurWQEgSCUFVj77BJpbu
QBYR4UB7+7nBWIaQQC8HRj9+R7XBymB6QO1cxj9FQanBnV2pQFzFIMALmafBZUKqQNsc17+BVbTB
3ObfQA82hj6LFbfBFOABQUpSLT8+WqzB5BSeQIro5UAbw7fBz0DGQHORtT82RaHBkIfeQJNjbL+x
gaDBV9ufQHVoZUDCzIXBnSbOQBSPJ0CjX4nB/QzTQBxSjEDvF4fBiox7QY2i7cDCoKXBdWFiQUZr
98CuHqzBhMVxQfHRyMB7ha/Bwa7uQEHhMUARkbDBYeC6QAYDMUC1yrbBHAjTQNgK2kA9VaPBg/Kb
QH6hykD8wKTB4QHrQCtup0Cs7a/BkKm3QPzNo0AwU7bBsA9xQLarekDnhqrBLuQSQeOkbsAyrLPB
wBD2QGjPD8ACCbXBfLZRQMfKVkC+aI3BOP4bQKt9VkCbh5nBM9gyQXSfoMDx1q/BKbM0QdbKcsDv
+Z7BgxJFQa3Yt8Ch+6zBqOJGQSjZkMC/FZzB25AqQaRzgcBz6qjBqz9PQYUQsMCkBaPBmi3XQMwj
ckAKt5zBsMaOQEY0aEDX3pnB3nUMQcpTG8Bbk6fB1XLQQFWwIEG/0rfBk+T1QGM7GUFNt7DBY8ek
QG0WHEGdiLLBUkyLQOua8L6JyKnBcv7wQPd/AUF5v63B5YygQAw/BEGuqK/BQMeVQJrLaz+lUa7B
zDqtQCmIvb9tP63B3XbkQDH8wz4vkK7BYXzFQADq+0C8J6jBHQnDQAGRsT8Iu6rB5oXZQMY3fL9k
3KnBzX/AQBSPe0DxeqfBL+++QKATYUD3mInBXO1pQcB55cAd2KbBFF/OQAfyMkCsJq/BGnHAQP8n
zkAQ/qPBx3XJQC5VqkDCXKzB5gOTQAwXdUC8z6TBUxi3QGitb0BIBpXBS8wYQYaXV8A2q6zBmWH4
QEVq97/etq3ByNZUQFCbWUC2BZXBC/D9QHgVckBwLpvBwZAOQfWWBsDrKp7Bq0dhQX/FxcBHo5/B
shkrQSu1psB/abfBkmouQdWBQsDgppnBDWxLQXW8z8DYW7LBVolOQZvtisAQe5TBdWTTQBECMkF0
NLnBEwbSQAA0GEHWhb/BSxAKQbV2G0ECFbXB0mb2QJrdIkE7WqnBRuehQES0JUHUMqvB4g2LQLh7
IEGxH7jBHIKKQHHd1b7Y/qDB/q5XQMzNSr9dxqzBCnvyQIRn70CBDLXB24IFQY+e+UC5TqjBvciB
QL13AUGMnavBHw6iQDUZ9UA7/rbBkLiUQLTpYD+/G7fBb7F7QBUw0j/hbKvBobumQPXfHMCob6nB
d02sQKxHzL8M/7XBlA7kQHFjqD4gWrfBjTUCQevBMT9N16vB7VHEQPC/CEHKNaHBa8DDQFmrtj8t
8KHBDcXaQFepbL9yFKHBH1egQBsjYkBbP4XBxmLOQH1vIkC4f4jBsvfTQFLaiUASeobBPSZ4QVRI
9MAYN6PBZctdQaM5/sAJYajBFmxuQecS1sBkbq7BITTxQAuvNkClVLDBRBe+QPvbO0CP37bBQ7/W
QGHRyUCORZ3BBWGfQPhNykBmIaHBLirrQIUJrEAr3a7Buae0QIYer0DxW7PB9bV1QFFHeUD3B6rB
1E0UQZUpZsCqILTBlvD1QGLdD8BZSLXBpFVTQMycUkCMEo3BcL0eQDFwVUDKQ5nBLwgzQXI6o8Bx
8a/BhQg1QcfZecBI9Z7BVXJFQSY7usCqQK3BaGZHQfEklMA3PZzBjsAqQV19hMAQ5ajBDNZPQe+q
ssDwVqPB8NzWQLbYd0CTrp3B4X2OQJ6AcUAnpZrBQScNQYPcHsAefqfBcuWzQIANI0GrBavBDbOY
QCuQEUEOY7DB5gbYQPT+GEFXW6TBLpCMQHYID7/JrqfBBsm0QGTQAkGnZrfBpqn0QJQFC0FEf6vB
SJiUQNrPVD+VhazBHNitQM17x7+1wKvB7mDjQD5Moj5rUa7BXhnbQKpv8kDRJrHBg6TCQBcPqT+h
C6rBkrjaQPfkhL/bPanBxOK/QAYjekAIeajB0Bm/QGSiZUBYiorBWaRsQZoD4sCPJqjBYeHLQDRs
K0DyWq/B92nMQE1Rz0B4HKnB45DLQGmcpECyNa/BtXSSQE6+e0A0pqXBRwu3QMQIeEAZ5ZXBZrEY
QQdNXsCFeazBLDr5QKly/b+Mba3BoJBUQJsNZEBsqZXBtnr9QNUtcECtOpzBSrYQQV/mBMC2Z57B
bjtiQYy7x8CPMqDB7iQrQaUoqcB2fLfB8LQuQV+cSsBjgJnBgcVLQaDJ0cANurLBZyJPQfSRjsC9
o5TBm/DBQHZbLUGBO7HBalyfQIC4LEHrwaXBLwWJQBjpB0HQKKrB9TaAQLwrGUHXb7XBcW7rQKHH
JUGOvqDBOgTKQGAMD0GD/53BRqmOQJ7w/L7m6Z7BW9hYQEMoZ7+4+6nBwdygQCNB60BsbbrBsznB
QFMqDEEnLb7B798BQTM5FUGSmLHBkMsGQbebA0HGgqbBiUOQQJ5jRz+vPrXB5P96QHWqxT/FHqnB
VQWpQL3WIcA2yafBZE2qQAE217/nc7TBRGPgQHn4dD5qELfBXPEBQbyPJj9RQKzBwnnwQEUd40AY
ALfBM3jGQB55tT8CVaHBVFHeQKS1c7/Sg6DB0OSgQCzQaUCIDYbB0m/MQO3MJECZvInBowPWQKxB
ikA2VYfB2/p6QSLj8MClp6TBCY9hQWYj+8A62arBJFBxQcEIzsBFAq/BSVHuQAS5LkBOIbHBWZ25
QCWzLkDY3bbBxwrjQMVizUBFY6LBuEasQDja1kAcDqbBgIrrQKpSn0DKpLLBuPWzQNBop0Avs7XB
Y3B0QE2CgUAQy6rByU4TQXYTcMA+rLPBLBz2QPv9EcBQBLXBCNVTQK5jXUCwtI3BnPUdQJFwYEBP
z5nBdEcyQRMLo8DcOK/B4fAzQTLAcsBdup7BhXBEQRPxucBYD6zBvyRGQRgokMDvlpvBKvgpQROq
gsC+pajBt5VOQeRhsMAWL6LB+nPZQJDHckDbepzBUHKQQOz9akBLe5rB8DEMQWKqG8Bq3KfBBL6o
QKBeG0GfnbTB8JK7QCq5B0GTarrBJoyhQC7tFkF4n6jBBCKKQPMz3b4nJqrBdH/lQF2YAEGICLXB
jkTLQE8iD0FARKPBHAiXQFIddT+4R67BovuqQOUCvb9jn63BGvLkQDAVnT669a3B0MjeQHvx9kBy
AanBmm/EQKPorD9cSKrBNnDXQCwRiL9HvqnB4vvEQHKfekBehqfB7LS9QDg3XUBztonBdcJpQXJL
5cAQe6XBCoTSQL6jLkDqrq7BlhXCQPE+z0DgCKfB1jHTQJVep0Cf66zB0NqWQC62ekAMVKXBWgK4
QAq6bUCxMJXBGRkYQcRpW8BPlKzBCFL1QFa9AsAimK3BmDtWQM4CXkAeB5bBYNz/QCJ5ckCNeprB
YIQQQXT9878iQ5/BwqxgQTcvxcDDip7B5Z8qQbxPqsCGwLbBEHwtQRh3QcAkmpnBDr9KQUDo0sBt
IrHBIMJNQZ/siMAjDJTBsgu/QGbhKEH0dbXBgemJQDCGH0HSUbjBo1ikQO8G9UCeG7rBTw3CQIHo
C0Egz8LBZduWQJm7JUHpr6TBC8yIQASKCkGou6fB/XCIQJXM0b5rXKHBFTNVQM4UM78dbK3BdHTx
QNRZ5EAcGbnB7Tj9QAODDUHCxrXBZb7iQLM+HEFoaaPBa0DEQM/ECkGJ7JrBQu2WQMVecj9nFLfB
3Yx/QBWT2T8hY6vBw4iiQHzuHMBUJarBLRSrQCvFxr/DZrbBYAvmQECpkT73wLbBI2UCQRICED8+
0arBO1T+QPOO8EAccaXBbTHEQFnusT8MfaHBzo7XQJg5hb/z8aDBNUieQNRoXEDCv4XB5HzNQDXr
HkDjmYjBdKHRQD75h0BnMIbBlPx3QUpL88BCqaHBdNxdQe+P/sDj8abB2VpuQWKD1sAsIa3Bkpn1
QAj0LkBLZa/BhiPEQB9nN0AHpLbBcRzBQN+NyEAJZp7B1I+hQOw21kBO6qnBDl/2QMyeqECj/azB
Ai3HQC68p0DnMLXBYZR/QPA7gkDkvKrBpC0TQb79bcAy1LPBNj7wQKk6HcDvw7TBzhhSQGLdVEB3
II7BqU4hQG88XUBbhprBO5EzQb08psA426/B3tc2QS5ZcsC9CKDBH8ZGQUMeu8C1Ha3B9u9JQXLx
jcCZTp3BSmkrQUsShcDmW6nB1SVSQcsur8BJ1KPBS6fWQFQwdUBHCJzBL1SNQGN/a0DuoZrBxXEM
QYARI8DLo6fBdJylQCUvGEFzW8XBAM62QMrLBUGZYMzBH2O4QH4fF0El9bnB7DiJQDdAzr5LrajB
TbCtQCnV30BmLsfBU6CvQBo6AUFwubTBqvyWQOXxcT9Lbq3BzaaoQI2/wL9qAKzBlIXkQEAAaD4m
V63BmhvBQHNm3UB/yrvBkQfFQEUyqT+DranB67bWQDy1kb8Au6jBTNfDQDVZekBnUafBClq4QCzQ
XEAjgYnB53twQdHnt8C/8pfB2nPTQLvELEChNK7BQ4q2QBY2sUBN87bBcK7PQILGqEBDbKzBjXmV
QEKweECtbaXBkyC0QNODb0AC/5TBGT0YQamJY8Dyn6zB6zrzQL3gC8DAqazBdilOQFTxXkAun5bB
E8T8QGYcdEDyr5nBlvARQUxr/r9DWZ/BeQRlQWrBxMBuhKHBJQMrQW6rr8Cx+7bBeMgwQcDBP8Cc
/JrBmdZMQTJv1MDgJ7LBMXlSQRmKhMARLJbBC3quQHKPJ0FLBcnBoIuCQGv5FkFg4sTBbCinQAZv
BkHyQNTBwpDZQDC3B0GGYM3BfSrbQBK1GUGGX7rBv7KpQEe/I0EUDLXBwayIQCdNp74p5p/BFA9S
QPr3J79JmqvBh96KQKYZ20ByqsbBntG7QGh4xkAyKMzBmmK/QLSuAEE53KzBnOeMQCRm/kB3sbPB
/X6WQJJ6YD+JNrbBV4GAQLPO3D8CzarBZ4OfQLugHMC9EKjBIkWnQI9B0b/uu7TBSJ7kQGm1Mj5r
IbbBU28CQRMu8T5oearBvhLkQJ2k4ECNZrzBbVfFQMGdrz8l46DBLGrYQAV7i78J85/BhHSYQMHv
W0C6yIXBPLLHQOcEHkAEc4jB0hLMQD5Ah0CKsIXB+QN/QT14y8CNGJfB2PR0QXv0lcCKlJjBmitm
QVeKvMCM6ZDBL6D2QJ77LUCEg67BboLGQHq8M0C1V7bBnwyUQArIr0DDOrXBD+G+QDRFmEDAzLzB
e03IQPpswkCGr6bBdCbyQPb4qEDgNK7BIDJ+QLD4f0AFE6vBuycSQWhQecBMgbPBbw3rQG27KsAD
XrPBAdRGQEAAV0CbvI7BUCQbQJlOXUCCcpvB

> <OMEGA_E>
MO0nPug/SD5QUnU+aHt3PjAqhz7wt5s+gAUWPw==

> <OMEGA_NBR>
      8619

$$$$
50253432
  -OEChem-04172616093D

 77 81  0     1  0  0  0  0  0999 V2000
   14.4352   -7.2619  -21.0373 C   0  0  0  0  0  0  0  0  0  0  0  0
   13.7843   -7.4482  -22.2748 C   0  0  0  0  0  0  0  0  0  0  0  0
   13.9727   -6.2929  -20.1257 C   0  0  0  0  0  0  0  0  0  0  0  0
   12.6601   -6.6739  -22.6029 C   0  0  0  0  0  0  0  0  0  0  0  0
   11.3276   -3.8566  -19.9102 C   0  0  0  0  0  0  0  0  0  0  0  0
   12.8508   -5.5142  -20.4491 C   0  0  0  0  0  0  0  0  0  0  0  0
   12.1918   -5.7167  -21.6911 C   0  0  0  0  0  0  0  0  0  0  0  0
   10.6631   -4.0870  -21.1457 C   0  0  0  0  0  0  0  0  0  0  0  0
    6.6896    3.8443  -19.6687 C   0  0  0  0  0  0  0  0  0  0  0  0
    4.4347    3.6403  -19.2724 C   0  0  0  0  0  0  0  0  0  0  0  0
    8.8204   -2.4703  -20.9135 C   0  0  0  0  0  0  0  0  0  0  0  0
    6.7879   10.4704  -22.1651 C   0  0  0  0  0  0  0  0  0  0  0  0
    5.3712   10.1545  -21.6514 C   0  0  0  0  0  0  0  0  0  0  0  0
    7.3427    9.3171  -23.0208 C   0  0  0  0  0  0  0  0  0  0  0  0
    4.4405   -0.5568  -20.9712 C   0  0  0  0  0  0  0  0  0  0  0  0
    5.3626    8.8425  -20.8600 C   0  0  0  0  0  0  0  0  0  0  0  0
    7.3298    7.9972  -22.2398 C   0  0  0  0  0  0  0  0  0  0  0  0
    4.6728    0.8204  -21.6100 C   0  0  0  0  0  0  0  0  0  0  0  0
    5.5036   -1.5433  -21.4481 C   0  0  0  0  0  0  0  0  0  0  0  0
    7.1360    0.3659  -21.8229 C   0  0  0  0  0  0  0  0  0  0  0  0
    5.9008    7.6889  -21.7261 C   0  0  0  0  0  0  0  0  0  0  0  0
    6.1018    1.3430  -21.2882 C   0  0  1  0  0  0  0  0  0  0  0  0
    6.8924   -0.9750  -21.1564 C   0  0  2  0  0  0  0  0  0  0  0  0
    5.9582    3.8862  -21.0083 C   0  0  2  0  0  0  0  0  0  0  0  0
    5.9790    3.5574  -17.2661 C   0  0  0  0  0  0  0  0  0  0  0  0
    6.3806    2.7195  -21.9186 C   0  0  0  0  0  0  0  0  0  0  0  0
    5.8768    6.4188  -20.8818 C   0  0  0  0  0  0  0  0  0  0  0  0
    6.2430    5.1973  -21.7421 C   0  0  0  0  0  0  0  0  0  0  0  0
   12.4087   -4.5836  -19.5804 N   0  0  0  0  0  0  0  0  0  0  0  0
   11.1123   -5.0027  -22.0091 N   0  0  0  0  0  0  0  0  0  0  0  0
    4.5421    3.8040  -20.6477 N   0  0  0  0  0  0  0  0  0  0  0  0
    5.7041    3.7809  -18.6906 N   0  0  0  0  0  0  0  0  0  0  0  0
    9.5637   -3.3945  -21.5877 N   0  0  0  0  0  0  0  0  0  0  0  0
    7.8579   -1.8869  -21.6789 N   0  0  0  0  0  0  0  0  0  0  0  0
    3.3107    3.4186  -18.6413 N   0  3  0  0  0  0  0  0  0  0  0  0
    7.9036    3.8659  -19.4974 O   0  0  0  0  0  0  0  0  0  0  0  0
    8.9245   -2.2441  -19.7119 O   0  0  0  0  0  0  0  0  0  0  0  0
   15.2944   -7.8667  -20.7871 H   0  0  0  0  0  0  0  0  0  0  0  0
   14.1515   -8.1877  -22.9711 H   0  0  0  0  0  0  0  0  0  0  0  0
   14.4790   -6.1499  -19.1824 H   0  0  0  0  0  0  0  0  0  0  0  0
   12.1599   -6.8143  -23.5498 H   0  0  0  0  0  0  0  0  0  0  0  0
   10.9630   -3.0962  -19.2355 H   0  0  0  0  0  0  0  0  0  0  0  0
    6.7520   11.3845  -22.7759 H   0  0  0  0  0  0  0  0  0  0  0  0
    7.4538   10.6304  -21.3043 H   0  0  0  0  0  0  0  0  0  0  0  0
    5.0332   10.9725  -20.9982 H   0  0  0  0  0  0  0  0  0  0  0  0
    4.6880   10.0637  -22.5087 H   0  0  0  0  0  0  0  0  0  0  0  0
    6.7223    9.2076  -23.9225 H   0  0  0  0  0  0  0  0  0  0  0  0
    8.3768    9.5517  -23.3134 H   0  0  0  0  0  0  0  0  0  0  0  0
    4.4956   -0.4638  -19.8765 H   0  0  0  0  0  0  0  0  0  0  0  0
    3.4454   -0.9276  -21.2581 H   0  0  0  0  0  0  0  0  0  0  0  0
    5.9974    8.9529  -19.9685 H   0  0  0  0  0  0  0  0  0  0  0  0
    4.3323    8.6129  -20.5504 H   0  0  0  0  0  0  0  0  0  0  0  0
    7.6617    7.1821  -22.8997 H   0  0  0  0  0  0  0  0  0  0  0  0
    8.0142    8.0764  -21.3823 H   0  0  0  0  0  0  0  0  0  0  0  0
    4.5563    0.7366  -22.7006 H   0  0  0  0  0  0  0  0  0  0  0  0
    3.9314    1.5309  -21.2155 H   0  0  0  0  0  0  0  0  0  0  0  0
    5.3802   -2.4998  -20.9191 H   0  0  0  0  0  0  0  0  0  0  0  0
    5.3938   -1.7060  -22.5305 H   0  0  0  0  0  0  0  0  0  0  0  0
    7.0293    0.2671  -22.9133 H   0  0  0  0  0  0  0  0  0  0  0  0
    8.1483    0.7243  -21.5845 H   0  0  0  0  0  0  0  0  0  0  0  0
    5.2360    7.5556  -22.5923 H   0  0  0  0  0  0  0  0  0  0  0  0
    6.2108    1.4223  -20.1965 H   0  0  0  0  0  0  0  0  0  0  0  0
    7.0149   -0.8662  -20.0687 H   0  0  0  0  0  0  0  0  0  0  0  0
    5.0323    3.5505  -16.7061 H   0  0  0  0  0  0  0  0  0  0  0  0
    6.4876    2.5905  -17.1383 H   0  0  0  0  0  0  0  0  0  0  0  0
    6.6237    4.3638  -16.8863 H   0  0  0  0  0  0  0  0  0  0  0  0
    7.4589    2.8026  -22.1196 H   0  0  0  0  0  0  0  0  0  0  0  0
    5.8246    2.7923  -22.8649 H   0  0  0  0  0  0  0  0  0  0  0  0
    6.6029    6.5151  -20.0611 H   0  0  0  0  0  0  0  0  0  0  0  0
    4.8685    6.2795  -20.4648 H   0  0  0  0  0  0  0  0  0  0  0  0
    7.3140    5.2428  -21.9891 H   0  0  0  0  0  0  0  0  0  0  0  0
    5.6515    5.2233  -22.6691 H   0  0  0  0  0  0  0  0  0  0  0  0
    3.7757    3.8570  -21.2880 H   0  0  0  0  0  0  0  0  0  0  0  0
    9.2701   -3.5926  -22.5229 H   0  0  0  0  0  0  0  0  0  0  0  0
    7.8258   -2.1077  -22.6537 H   0  0  0  0  0  0  0  0  0  0  0  0
    3.3051    3.3332  -17.6449 H   0  0  0  0  0  0  0  0  0  0  0  0
    2.4569    3.3344  -19.1551 H   0  0  0  0  0  0  0  0  0  0  0  0
  1  2  1  0  0  0  0
  1  3  2  0  0  0  0
  2  4  2  0  0  0  0
  3  6  1  0  0  0  0
  4  7  1  0  0  0  0
  5  8  1  0  0  0  0
  5 29  2  0  0  0  0
  6  7  2  0  0  0  0
  6 29  1  0  0  0  0
  7 30  1  0  0  0  0
  8 30  2  0  0  0  0
  8 33  1  0  0  0  0
  9 24  1  0  0  0  0
  9 32  1  0  0  0  0
  9 36  2  0  0  0  0
 10 31  1  0  0  0  0
 10 32  1  0  0  0  0
 10 35  2  0  0  0  0
 11 33  1  0  0  0  0
 11 34  1  0  0  0  0
 11 37  2  0  0  0  0
 12 13  1  0  0  0  0
 12 14  1  0  0  0  0
 13 16  1  0  0  0  0
 14 17  1  0  0  0  0
 15 18  1  0  0  0  0
 15 19  1  0  0  0  0
 16 21  1  0  0  0  0
 17 21  1  0  0  0  0
 18 22  1  0  0  0  0
 19 23  1  0  0  0  0
 20 22  1  0  0  0  0
 20 23  1  0  0  0  0
 21 27  1  0  0  0  0
 22 26  1  0  0  0  0
 23 34  1  0  0  0  0
 24 26  1  0  0  0  0
 24 28  1  0  0  0  0
 24 31  1  0  0  0  0
 25 32  1  0  0  0  0
 27 28  1  0  0  0  0
  1 38  1  0  0  0  0
  2 39  1  0  0  0  0
  3 40  1  0  0  0  0
  4 41  1  0  0  0  0
  5 42  1  0  0  0  0
 12 43  1  0  0  0  0
 12 44  1  0  0  0  0
 13 45  1  0  0  0  0
 13 46  1  0  0  0  0
 14 47  1  0  0  0  0
 14 48  1  0  0  0  0
 15 49  1  0  0  0  0
 15 50  1  0  0  0  0
 16 51  1  0  0  0  0
 16 52  1  0  0  0  0
 17 53  1  0  0  0  0
 17 54  1  0  0  0  0
 18 55  1  0  0  0  0
 18 56  1  0  0  0  0
 19 57  1  0  0  0  0
 19 58  1  0  0  0  0
 20 59  1  0  0  0  0
 20 60  1  0  0  0  0
 21 61  1  0  0  0  0
 22 62  1  0  0  0  0
 23 63  1  0  0  0  0
 25 64  1  0  0  0  0
 25 65  1  0  0  0  0
 25 66  1  0  0  0  0
 26 67  1  0  0  0  0
 26 68  1  0  0  0  0
 27 69  1  0  0  0  0
 27 70  1  0  0  0  0
 28 71  1  0  0  0  0
 28 72  1  0  0  0  0
 31 73  1  0  0  0  0
 33 74  1  0  0  0  0
 34 75  1  0  0  0  0
 35 76  1  0  0  0  0
 35 77  1  0  0  0  0
M  CHG  1  35   1
M  END
> <OMEGA_C>
t/ZmQcph6MBvTKjBsoxcQZlX7sDRMrLBUpBfQbNfycBgAaHBrY9KQeuQ1cDN0rTBzz01QfDSdsAP
SJ/BAp1NQXZ0sMCtl6PBexFDQWjvtsBOh63B6ZsqQdzIgsBXKqnBYRHWQFoIdkCZWZ3BveiNQDT7
aEDmLZrBYSANQaoZHsDWTqfBIjbZQJKGJ0EwUrHBJeGrQNZ4IkEONq3Bm/fqQOoSFUGKKrjBxhiO
QN6HDr/4xKfBSJqrQLh6DUFM4abBvo3qQNXo/0AX67HBmYeVQPYFUj884azB3R2wQKuKxb/IlavB
2lnkQHRduz5fla7Bm9O8QJ0L9kAnz63B7EHDQPLmqz8yTqrBbI7cQCibeb9fQKnBfam+QHS3eEDu
EKjBJlS/QAatY0D1IIrBLC7MQCwMLkBJWa/BGg+8QMRmzUDcDafBw8bHQFpQpkDC763BKYpGQYOs
ksCupJzBJcwxQdoVoMCWErDBpViRQC50c0CVLqXBuYe2QNL6cUBbhpXBxAQZQdk/WcCys6zB4nP7
QE2F8b95bq3BMeJTQKXJWkBVIZXBgOr8QHZqd0Ce+pvBm8oOQZqfD8D5sZ3BrrV0QZm7+8DmS6bB
eWxiQa0AA8HIxLfB2KlnQf3LxMCndZnBDI9CQboO2sD5ZbzBWmgvQZknRsBd4pnBGRDYQAEnNkH9
NLbBNIXuQAsWKkFIb6rB8g+hQE6PL0Fd/KfBfgSWQM8EIUHcEbTBQR3XQChSE0FCYb/BXAcGQdPT
GEHxgbrB99uPQPx77b4PA5/BH4JcQPt0bb+NEKrBtOq/QPo+D0F0v5/BdaKKQE7OCUEvZ6TBjSz1
QH7T5UCMMrfBHToAQQ85AUHlDqvBF82RQP2SPD/HmrXBQpx7QCbzwz9kuanBVyqsQLr8H8BfWqfB
O5qsQKxf2r9oPrTB5e/gQGvHiD5nTrfBS18CQYZsOT8lrazBj42nQMPH8UAZvbTBFL/GQIcPtj9j
kqHBEXrgQNjBXb+zjKDBcwihQPs7Y0AEpoXBF5rPQAzKJUAnG4nBJfXTQA2ki0AnF4fBda/uQGZd
M0D09LDB2WK6QFW1MkBO67bBOEvTQAt80EAcfaDB5sqbQOTxyEDbt6PB6AvqQNLEp0Co6a/Byti0
QKAlp0BTWrXBMaVxQBfZdkC+TarBZFIUQcLsZcD+LrTByWz6QDbkBsDYOrXBPodTQLFSVUDYKI3B
Gz4dQKNmVUCePZnB7aBpQegCusCPjpbBvN9hQRxpl8DrbpDBLeleQQjuxsDJ7J/B6D1PQS65gcCk
mpPBly4xQR+WpsDVeq/Bd31MQfL3sMDDO6PBiKFEQT9qjsCL+pzBh28pQQuThMA1NanBkpLYQAXj
cUBORJzB6n6PQEKYaEDoZ5rBSAMNQUvlHcBUrafBXwu7QIv1JEHr6bTBKZfYQMZNFEHtJrrBzlm9
QMVcI0H2qajBQJ6MQEYn8b6WSKrBLzfMQNNC+0Awp7bBBUCxQE7YDEHy7KTB4X6ZQGzbZz9Dm67B
NV6uQPBnwL/xSq3Bc5TnQF34oD7Sfq3BN3XNQJ8/90CLTqrBrf/FQFxOqj/TLarB5FPaQB6thr8X
S6nBQnTEQKJJd0CHW6fBk+W7QEfSaEDXc4nBEvXTQLBLLUDtea7BUH68QOH/y0A2gKbBhfvPQCA2
pkD0s6zBaZlCQTSCvMDOYazBETgzQQIqcsDVD6DB0leWQC+pckDQT6XB7Re3QMMPZUDpH5XBnNcX
QZ31XcAz46zBsUH4QISM/79IXK3B2mtTQH4zY0Bf9ZXBa7L+QAQaeUCWIZrB0RERQZpeBMCcl57B
veR3QWG4ysCMCpTBSkdqQdqUjcCRS4nBs9hkQYmf4cCAiqTBByJJQUgIT8Ax347BkBgpQbkar8AC
0LbBXg7FQCAUNUEtaLfBfOqZQBcWIkGphLfBA8zVQOOIFUEW58LBj9n5QGV/F0HjwLfBKiXeQN/9
JkEKCKbB3A6nQAr/LkFQH6XBt86JQNfb175ChaHBbElbQPeaQ7+Uvq3B4aurQPEh9EBhfrnBcdni
QHw/5EDQKbrBk2y1QA7cC0GZM5zBMo2PQCzNCUFz9qbBuPuaQG7cXD9UZLfB5WyBQPvh0j+4J6zB
dS+mQGwMHsCgnqnB3UavQOJ7zr+zC7bBFunpQNANkT7GRbbBSmUDQZI6GD+YGarBLa7uQBIr+0Ci
kafB51TEQA/Mrz9FZaHBXYXaQHJ5hb9ofqDBs8mcQFp6XECIooXBmBnTQDUiOECm2obBDWrHQHhW
lEC3HofBVBz3QKYbL0BT3q7BG6jGQDLSNUDLjbbBVzXEQM0/yEBV953Bdo6ZQFN2y0D3kKfBHgHz
QPqtqUBP4KzBNIbDQKdZpkDr7rTBVeN+QKQwdkDo4arBolQSQabLbsDTGLTB0Sn0QPA9FcDD07TB
NVdOQO3LW0CiCY7BBrgeQEp7ZkCOeprBsbhpQWvy3sDx/qbB/GdgQcZ05cAPJbHBwUxgQbmTwsDJ
oJ/BUJhNQYunz8Cj+7PBXF8zQT65dcAod57B+aZNQVlXrMCLd6LBrVBEQVQIs8CUsazBwj4qQaZ1
gcDZwajBYGjXQI7ubUCJ55zBTZ2OQPYpaUAgR5rBP6YMQULrGsAOu6fBAwfFQBKtJUFLSrTBcaDe
QGn1E0Hh8bnB/mXHQEgWI0EDFKjBMhiLQGr2Cb9sXqjBuSjOQASI+0DEt7bBAhS3QFH+DEHmr6TB
qbyUQB5iVj+vR63Bm/SrQEAOyL9cLqzBFf3iQARykD5oq67BJObPQCjr9UAaa6rBbenCQJy/pT/X
bqrBWs/YQO6Yh7+8iqnB/nfBQCaWdUC3xqfBAu29QItJXEBY4YnBlh3OQOQbK0CKM6/B0eK7QMeb
y0Dj3abBz9jNQHMrpUBiIK3BhvREQUd4kMB1g5vBVMsyQbyWncBrmK/Bma+TQOYndEBRPaXBfeO2
QC7ka0CgU5XBkJEYQczOWMAOo6zBisb2QOjxAMB1hK3B7mlTQErKX0Dke5XBfwv+QOakakC/PpvB
2rYQQWBh+L/l7Z7BBS54QW7Y78Bj3aTBssJnQSlE+8CHv7bBbGNnQfD0vcBo1ZfBOlZGQRHj1MDF
trvB3h0sQVu3SMDOAJnBvFTSQIpYNUFPhrbBbWCjQFzHJEE81bbBC1fbQPjgFUFVp8LB8kYAQfFX
FUFotLfBEdToQMTqJEGoeqXBRZizQAV9L0HaRaTBMHCMQN8Y7r5bmJ/BLNZVQNitXL8u1KrBOuGs
QCbs90B5cLnBQDTiQHbk4kC3grrBhCu7QPA1C0EK/pvBs+2UQASwC0Hrt6bBrY+RQLk9Rj+UB7bB
9Xt7QKJGyT+sJarBuVumQKJ3IcB3HqjBguqoQE6r2b/74LTBGzPgQPH8UT6Ta7fBCtcBQTB3Fz+b
i6zBwYXxQKrT9kD+0qfB8czFQKzLrD95rKHBp+PbQAwKd7/ozqDB2BSfQN/4XUA0pYXBw9fMQMge
HUBYyojBoCPTQD4Jh0BdoIbB0NXwQOfULUARnLDBRBy9QKeEMkC22bbBgXjCQCrlxkCCTZ7BLBqZ
QH87zUBNJ6jB5/DwQHqep0BKba3BNuvAQJ+4pUBxT7XBVtR3QNIgekD7iqrBetQTQeWZacDp+7PB
QT7yQH+TGcBR0LTBq/hQQOq7WUCUho3B1WsdQAKuXkDtxpnB/1dsQYLJssBD35fB1PVjQdapkcCL
c5HBNERhQYe8wMDqCqHB8mVQQUO/fMCyJpTBBJ0xQf/upMAora/BpOdNQfoXrcAn5KPBwoBFQUTa
i8BuX53BsYYpQdfCg8BpOqnBtXXWQHGwdEDKhJzBpcKNQNcSZkCsTJrBxfYMQdjHHMC/mKfByVva
QM+gJkEtgLHBALetQD3gIUE53qzBGwzqQFocFEEYm7jBDTuLQIJpAr+sAqrBoAOuQCzdDEHWjKbB
plLqQJzh/UC2Y7LBHACYQM4TXD+Yd67BiBetQH45xb/n66zBLirmQMYakj65Ga3BWHW9QL5/9EDo
pa3B+jLEQAR+pj+y96nBjPzYQFDgir8j6KjBUnjBQBQEdkC7iafBJXC7QFenaEAGjonBwsDRQG0P
K0Aia67BU8O9QCIVzEBSx6bBQrPKQMrXpEADeK3B27JDQWFVucB05azBwWkzQXM/cMA0IKDBRqGT
QC6fb0AyP6XBxse1QAjAZUBZNZXBT64XQW5QXcAfyKzBTsn2QG/6AcC2Aa3Bdt1QQLfwXUDNrZXB
wLv8QDx1fEBrlprB59cRQTvG/r/vzJ7BDl97QZGPwcAevZXBu5lsQZcfh8DCcorBrKVnQQdv2sD0
26XBE8xJQWnISsAgLY/BR0ApQYQHrsAl47bB7sXYQL1UNUFIUrbBdxHxQHjoKEHa36rBt0GkQFYF
L0Hsg6fBqY6WQKeZIEH4drPBLp/UQDGREkGNi7/BW1kFQeChF0HsYbvBf2iIQMnU5L7GQKHB15NY
QIaUT7+Uca3BrqLDQNZ8DkFNp5/BkmyNQA5sCUFptKPBIWLzQJC940CD1LfBdd8AQdn+/0CG16vB
luSZQN7ITD/OPbfBiVt/QHD+zD8kLazBdeekQOJHIMDwM6nBvCWuQABF1L/JqrXBqhHpQP+9fz6o
3bXBdIwCQfzSEj8Gl6nBW6ymQGww8EDDRLTBFzDCQHYHrj/QMaHBfjLZQHr5ib9sG6DBD8acQG6Q
WkDom4XBiF/TQGfJOEC1I4fBPmvGQE5llEC0LofBnuj0QJizLUAatq7BcMrEQH/3MUDvjbbBpsXU
QBUy0EDjMqDBFJKdQMnmxkCidqPBZybtQPSkpkAMOK/BIZG4QK4bpUDPArXBzn94QLjJcUDIs6rB
mdsRQQpbb8A14rPBuILxQEslGsDIS7TB/DZNQF2aVkCpvo3BrG4bQAkPX0B/FJrBXHttQRLZ08Do
cJ/B3hVtQVMUq8Dam5rBlohcQbTo4MBEH6bBa69bQW1Hj8CHZpzBqIkqQejrtsDDL7DBqx9LQRc6
xcBL+6fB+KRKQc8znMBcDaPB1MUpQXSEjsDEKKvBbpDOQBvQiEBeFZ7BUUmHQGEEdEB2L5vB9qcQ
Qd1vJcCrOKfBdCzxQA4CG0GLO6nBjf3FQDA5GEE5WqPBd1P9QNLkBkH3va/BcQKbQEbVtL46EKDB
qeihQNFJEUFnJqvBrxzZQOEMAUFHn7fB5/CbQCP5Xz+lTqfB9au4QE1Itr9Jm6TB7frnQPam2D6A
rKzBtOGtQMI++kCtyLHBtvHJQM/YvT+dyqfB4nbmQL44YL/iA6bBXzi5QMVxgUAT8qjBQGm1QEpM
iECU14rBinnMQL6JMkAKl67BCLauQLeQ0kCCW6rBn5y9QPpHqUC3MbDBCQs7QSDQ0cCgeK7B1u45
QaahgcDysqTBc+2LQMeyd0B8RqbBykCvQM85gUD+X5bBcjoYQVYJacAHWq3BlUX/QPFg8r/YlKvB
o4ZGQGAvYkBcSpbBbufzQGI2k0B8h5zBPH8XQZgNFcBrPJ7B3M16QUAc6cDFBJ7B+CN6QXIhocAo
hpXB7uJcQc4RAMF20anB+WdbQWsvYMALrpjBpbodQQdrwMBVerXBtLvuQGK5KEGGtq7BNS8FQQQb
HkEdSaPBV6LJQFLuC0HoHp3BGhG9QMyGJ0E5n5/BBGwNQfATCkGdQ7TBcFMBQabe8kDqOqrBR86l
QEkilr0K/pfBF1p0QNMIP7/1pJ/BbfCEQILFDUGEeKbBlGObQAqPHkEpsrDB2QTVQMhBDkEtWb3B
CCXiQCrU5EDr9LvBnPiRQOdTFT8Ha6/BPLCFQJC20D9bJ6TBnXe5QGn/EcA8GJ/BlGasQPYW4L8C
bqzBKsjdQMD9Uj5W6rTB6HQEQQu5Tz9LvqzBy/SUQLpK9UB637fBP5DUQDiM2j9xmJ/B2VX0QIpj
Lr8dFJ7BqeOXQFrBf0BeiYbBb97PQApKaEDc9YfBjRe9QDIqqkB3Z4nBo1HuQGmJP0DCYbDBieu6
QEz9J0BLGrbBA8HEQJv22ECEr6PBzUSOQDlFzUDENafB8lnfQK33rED9hrLBz+epQCqwpEAZZbfB
UxxoQDlfc0BIk6vB6jEQQYXIdcCRFbTBDwv3QL7iBsDWHrPBpw1FQJW0XUDtT47BSA0RQKoQWUAd
iZrBrzV2QSDErcBcB6DBM0RwQdDxisBYf5nBFeJnQfClvcBlx6fBJfhbQW66b8CCsZrBnJAyQQGA
p8CGjbHBNJBTQfu3qsA1BanB/ZBNQY6Xh8Bsb6LBKIMsQRKWhMBCDKvBGfnOQJISbUCnPZvBE1qF
QBdJd0B0uZvB22gOQQbGI8DXNafBgUXNQCf7JUEJTrTBk27bQDfyEkEyS7vBXBLcQBgLI0GCoKjB
FhaMQOVqAr9B0qLBFM3KQGhH+0AJvLbBPjLLQDnZDUFH+qPBnsaUQNhASj8UBKnBl+qpQAHS0L8i
rqbBA4XhQBHN0D0gMqzBBzHZQLkQ9UCT7arBQGfEQA7xmj/bwqfBeEbZQIbOmb8a9aXB0yPBQN1a
dECl7qbBXheoQNUkXUC/oInBCQrPQDzaI0DVbK3B6bDFQHEuzEBZD6bBlAPUQIYSo0BXEazBLetF
QfINusDVdrDByCg6QU1iasClkKPBX1iSQK3ye0DUX6bBbLKpQKKvcEA/I5XBATcYQct5ZsAktqzB
zG3zQD1pEcBJaKrBb6A6QAqAeEAzmZjBQ5HzQAd7YUDu/ZfB0i8XQQpg9r+aBaDBM+OCQVxMvMAR
F5/Bpkl7QWy9fcAnkZPBv3lsQR5U2MB+xKzBanNXQZloOsBYrpXBxYcnQaiCs8A7fLfBoFDbQBXH
NEHHhrfB/iiqQI0sJ0EKfbTB37vOQKQYFUE0bsPBp5n+QAx5EkEvlbvByEH/QPX0IkE4YKjBSunP
QBlqMEF5x6PBpYyRQDzTqr4RPprB40xVQIdZUL+oGaTBCaGnQGwk+0BfFbfB72rXQGrG4EBcl7vB
1uLXQPrLC0Fw1ZvB7gioQHJuDkGyr6PBh66NQBVwIT9cirHB+RmAQJ5Zyz9S3qXBh/ikQChhIcAE
qaHB8zeiQH/U77+uC6/BmXHaQFNfab3OuLTB1psBQdzIyz7xRKvBBkr8QFuK8kCWs6rBuirLQF/i
qT8ALZ/BUJHhQGo/hb+PgJ3B2RiHQLaxZEDrtYbBKbOyQNneGkBVS4jBu0m9QDqghEAKRoXBM9Px
QEn+JkButq7BeYm+QPwKJUBcMrXBB9DPQBW7yUBmp53BvJqiQIqKzkCDcqbBcSX3QGYOoUDg26vB
1CrJQNkQpUC4bLTBFrh9QLengUAvp6zBZ6IPQSVygMDzmbLB/5XmQISlNcDMKrDB2n0sQLR+dEDk
z5DBj60LQJJufUAQAJ7B9LReQaE49MDnxZrBWrZUQb5A3sCrR5LBQW9ZQf5O6sD+c6XB22VFQQhJ
vsBxb5TBV282Qf1yosCr4LPBBSJKQedhysD0qqfBKQxAQVY9tMAbGp/BN1ksQfxfjMBHaKvB0mfM
QCeKgEBVqZ3BD4OEQChXdED01ZnBu3sRQSiKJsDtSafBRgftQHZ7JUGNWbLBZyjCQJ2nJUGzPazB
Pd7uQFO3EkF6UrrBgIyfQOUzCr/1MJ/BT8S6QGw/EEGucKbBsJnnQIxn+kBYobTBhMyZQHmrNT9w
O6bBZaC/QLtFwr+pTaTBpErkQOpE2T7qwK3BHpi8QGxI+kCEWa7Bk57FQITfsj9+KKjBIKLqQIy1
UL9zp6bB2OSzQJ7YfEBKPajBfmK4QLu8c0BoKYrBotvBQMgkLUBF467Bb622QBDF0EBv2qfBJGi7
QDTHp0A1zK7B7SJFQf8IwcDy6bHB1lsxQSyplcDOIKHBadiGQIZxd0BX96TBJ9ytQDMffkAuj5XB
a0EdQTetWsC8Hq7BC6kDQZ1q3L+ASKzBieVBQDrFaUBQbpTB/mrzQJ5OgkCtn5zB5/YSQdNEKcC/
fZ3BKG5qQedZBsEbF5nB08xYQf7v5cCkG4rBCh9hQQ4u+8DO8KvBx8M9Qfx9rcBa643BulAyQU+5
msAPC7zBInnwQO2dNEEbwrbBkrQDQczhI0FQlKzBsJ7CQOqpMkGhUKbBteynQPNaKEF+87HBw+fV
QFHvFEEwbcDBoz0HQcWFEkHkML7BdoSrQJjub77nSJfBYnaAQIJ9hb9URZ7BOq3TQOwkDkHpT6DB
TSCbQDOPEEFVlqLBI+zmQMCv4EDmorrB5AYBQTS79EAuAK/B2/KLQIrL0z7T963BSSKEQEwatT+s
MqLBQzvFQNjLFsAuyJ7BIC6yQGgw87/m1qvBlKnWQAu39T0/frXBpqcBQdrhaj/OEq/BBBOiQD1F
/UB2FrTB8UzTQB561D+oU6DB8x35QDC7AL9tCJ/BOLqaQPNgc0AEbIXBcn7JQFXvNkCm/IjB1dDM
QLqQlECKjYfBoDrhQP+jOkBKgbLBIBiqQIShIkDOPrXB5+rOQDvsz0DSeaHB4omWQPn50ECpQ6TB
w+nbQLrnpkC0KrLBpuOjQHEJqUB9VrXBQpJbQBEwdkBP8KnBVJEaQbKsUsBT8bXBy38DQZZ72r8q
SLTB/EhDQJQNaECIb4zBh0EKQO9sY0C5TZjBkV9rQTOp08A2xJrB+WtkQaJvtcD5JJPBRlpgQecy
2MAbiqTBFWxSQaCem8DBRJXBmqMyQRsgqsAnCLLBl1ZOQWV+vsBRt6bB5lRHQRQBoMDQB5/BjZgr
QU3Ji8BFb6rBfmPTQElyekAkQp7BiimKQM5Kf0ClEpzBYagPQb8IKMBE8abB3u2jQLyWH0EO8qXB
Dh+QQGDPDkFcj63BKPTJQFE8FkGMmp/BoLaVQKK73L4t7KDBDVWyQCL/BEGhFbXBFx7sQA01DUF1
TafBfoeXQI+xUT8cF6jB4mCzQBY1xL/IQ6XBMb3iQIA6dT4W5K3B+YzZQB/R90Ay6q7Bq0DGQK2X
qj/gAKnBBHbhQDbLgL9FqqbBVca+QLEvfEArXqnBXra3QHmYckB4TIvBDCPKQOg9KUA2vK/BBQbO
QCobz0AueajBws7MQFqlpkB5sK/BKtdDQbP8wsACF7DBMBs2QcI7h8CRB6HB67KQQMC6gEC+GafB
khKyQDAqf0CB4JbBP6QZQZPLZsAcD63B3ZH7QLEbA8AclKvBgNFIQH1/fUA7gJfBDsD5QGTNc0BY
VJzBSwMWQf0PEsDSDZ7Beix5Qe5g58CoHJnB1OdsQcoPssAzqovBYLZlQVtg78B6XKrBlyBNQdd8
hMCza4/BTyAqQWR2rcAVgbnBezuvQCNKLUEZsarBXUaLQHb+JEGYRqDBhqOBQP/yAUElxKjBtIZu
QNmQFkHGb7LBklvYQLTtIkFQr5rBZ1m+QBtOCUHUYprBSOWfQAx7JL4OyJjBulZpQJYoT7/NtKDB
FYKjQD3h70ArrbnBlou9QLN+EUEgnLrBLQH5QMhpGkFtJazBrwUDQbYHBkHOjaLB+4iLQPmTED8I
HLDBMGSDQGLYzT8yl6TBPaezQGUTGMBxnZ/Bpj6nQCbv779sD63Be9vWQFaMprzT6LXBy+oBQVM8
Gz9jf67BQF3yQKlc70CjybTBs/bRQG0Fxj884qDBfHHuQP5nPr9vwp7BeaiYQDOXeUCrP4fBLYDE
QPwbMkAezYnBNzXOQGdXkUDwL4jBvkrrQCzLLkC6m7LB/Fa0QFxiJEBHnrbBliHmQExiykC4K6LB
U1yuQCGK00C8yqTB5/HsQFQyoUDVArPBngW2QJ4brECjQbbBMj1zQIf0gkA2nazBnCUTQQNlcsCf
ObTBUf7yQN60F8DU17LBJTREQLrVe0BBho/BGdkTQPTKfUCW/ZvBIChnQRtu38AszJrBBx1aQebB
0cAxQJLBNv1hQQbv08BIY6XBFedHQeNauMDaQZTB91I5QTEOmMAMfLPBO8RPQRKuusAZdafBsqxC
QdybrMCQ1Z7Bp30sQUVKicA/9arBdCPQQGKAdkC6TZ3BLuaGQFHOeEC1FpvBlYoPQZNHKcA696bB
4q3HQJsWKkGOzbDBcf22QMdtGUH16rjBn+DuQK6FIUEIp6rBEtyUQDiPA7+EpKDBOHysQAAGBEEW
Y7PBIRjkQN1RDEFrBKXBCfeVQLP6QD+LnqfBQSCzQNtqy79hJqXBW37hQJnSaj57fq3BfdPTQKL0
9kCnJa3B2WTEQFCzpT8Mc6jBLOzgQGGAhL8Od6bBlnK7QINSeUAMZqjBXKe0QAtRa0C/WorBjIrH
QETuJ0Bh+q7BfV3IQE3KzUAmD6fBKMHIQJPzpUA4fK7BhtJKQQYlsMBCorHB4E0xQToBlMDau6DB
PFmNQAiifEDJHKbBw9auQEc0eUB555XBqqcaQUBLYcBKka3BGZ/7QGkFA8DAk6vBWWFCQHlFdUDQ
gpbBHJP2QMQbcUCkZ5vBFscVQeCWFcAK+Z3BYiJ1QSTA8sBPOZnBpBReQUvD2sAFJorBff5rQcl5
3sC066vB3vQ9QULkrcCtsY3BdQ81QfXuj8CEm7vBgdvQQEq4OEE8H7XBdxOuQLHTLUF+D6vBb9aZ
QGeqH0EbvbzBK6fPQB6uFkFbC7/BR6YEQT/aHkHLT7DBNa34QGJiLUF5oaTBP+eeQFupg75gdpjB
1w9oQOEJab+Ve6DBJs6RQHBzBkHKxq3BkiejQJZx8EALfLnBIYIAQXEqBkFeDqHBQxXLQIA2D0EY
/57BuRyKQIAVAz8vra/BOWSBQHT9wj95AKTBv9qzQO2EHMBboZ/BoC6nQOSP9b9i/6zBqcfVQOau
jrzqjbXBKTABQUqvHT8jCa7BRpvtQIfn70Cl37LB+/jPQKx9vz8ETKDBK83tQPdKSb9ahZ7BDJOV
QCDMcEC3R4bBTvbBQDwPK0AN/ojB9sjKQA7ajUBXJ4fBxKPoQG8eL0DO1bHBJcmxQPhnI0B137XB
usnfQEj0yEA7mqDB0zKoQARY0UD9mKPBqzzpQMSioUATs7HBaT+yQF9Lq0BBHrXBpGhsQLl6gEBN
nKvBkDoVQRfnZsCLD7XBb7LzQHwzFcDC/LLBauA9QD1+ckDTiY7BEF0NQJhadUAD/prBMbFkQej4
1sBatpXBwxZbQYMXu8D9QI7BxjxdQUhm2MB1WaDBoPtJQRyKoMCCZ5HByK40QcfapcD/rLDB1yJM
QWjvvcBNjqPBsnNCQb/UocBHCJzB3/8qQQneicDbPanBcdvVQI9bg0B/h5/BHhyPQLwScUAzF5vB
sjAOQSafJcA7IKfBtnnMQC1cH0GUPKLB5GieQGh3FkHjy6HBz0/sQCGPDkGvlabBqFWQQI5F675R
zaXBaEmQQI0mDkFE5azBoMfdQFz0BUGCnbHBmjSWQJIIWD/GH6zB4TmxQCivwL/abanBgfbkQGUt
vT4dkK7BF1SvQGz3+UDbarHBCVPEQOI6tD9ri6rBVCvfQA5rdL8AbajBaB28QPOXf0As6anB96fE
QMONeUBD04vBaijLQDqcMECfh7DB842rQLJB0EAtyarBOkfAQKxyqUBIlbDBzw1FQVttv8Bkwa3B
0xQyQatZiMDSAp/BOtKPQEN2dUDwNabBiH+4QAJ2gEDrKZfBLCoaQf/XYMAT5azBsbj8QEc/+L+h
3azBFkxZQDDlYUANbJXBr8f8QCxzh0DDxJ7BGz4RQSQpFsAPnJ3BkspxQUhI68DFRJPBJdpgQSgV
usDLHIbBXKFkQWPG7cBKC6bBlqVCQYE2i8ARrovBVeUuQVfKpsBC0LjBGAfNQEt4LUGwfqfBPVrW
QP4KJEEGH5rB4iKdQCU8CUGfAJzBj4iIQMNFI0GxPZ/BngQGQav/FUEGbKfBvETuQKMmAUHA56DB
aLyUQDhDg75COZ3BicFfQN5NWb8nLqfBVGZgQPsPB0GiKqzBAiOPQBy3G0HNfrLBTlTfQOcTE0Fj
d7fBnqfzQIUi8kBHEbTBeNyQQIkgJT/mrLTB16l9QHEWyz9BTKnBlheuQOrIGcD9ZqTBywOrQNuJ
4r8g1LHBse3fQH8HRj5kKLfBUMkCQS72Pz+PQK3Bp8GlQNzb8kCAsrnBJZzJQKyDyT9Z8qHBlF3m
QFPlSL9x65/BEqKnQMcCdkCZ3YbB2dnXQAxJP0B6qIrBh5XXQMvtmEAWeonB83PtQHXbN0AUS7LB
pgG5QF/dLkD9ELjBpLS7QNz11EBJDqPBX3uJQIhVyUCYaanB6WfiQFA6sEA16rHBV0OwQGTKpEAk
VbjBTzNsQB82ckDm86rB9DkWQazJZ8CWmbTBhd/5QA5cCsD7obTB86JcQHfMYEAkb43BEmAhQIhp
V0DYFZnB

> <OMEGA_E>
2Fu5PrCkwz7M/8Y+/EK2PsaaND+MYSw/VE0sPxCtJD+OsBY/CqAVPw==

> <OMEGA_NBR>
     20764

$$$$
50253354
  -OEChem-04172616093D

 78 82  0     1  0  0  0  0  0999 V2000
   14.5136   -6.0788  -18.8099 C   0  0  0  0  0  0  0  0  0  0  0  0
   13.9954   -5.0637  -17.9791 C   0  0  0  0  0  0  0  0  0  0  0  0
   13.9155   -6.3542  -20.0528 C   0  0  0  0  0  0  0  0  0  0  0  0
   12.1756   -5.8969  -21.6875 C   0  0  0  0  0  0  0  0  0  0  0  0
   12.8786   -4.3140  -18.3899 C   0  0  0  0  0  0  0  0  0  0  0  0
   11.0593   -5.1443  -22.0503 C   0  0  0  0  0  0  0  0  0  0  0  0
   12.7925   -5.6178  -20.4601 C   0  0  0  0  0  0  0  0  0  0  0  0
   12.2723   -4.5920  -19.6270 C   0  0  0  0  0  0  0  0  0  0  0  0
   10.5974   -4.1398  -21.1832 C   0  0  0  0  0  0  0  0  0  0  0  0
    6.7062    3.8721  -19.6165 C   0  0  0  0  0  0  0  0  0  0  0  0
    4.4449    3.6227  -19.3013 C   0  0  0  0  0  0  0  0  0  0  0  0
    8.8321   -2.4524  -20.9203 C   0  0  0  0  0  0  0  0  0  0  0  0
    6.6700   10.5084  -22.1337 C   0  0  0  0  0  0  0  0  0  0  0  0
    5.2296   10.1126  -21.7629 C   0  0  0  0  0  0  0  0  0  0  0  0
    7.3753    9.3838  -22.9153 C   0  0  0  0  0  0  0  0  0  0  0  0
    4.3929   -0.5066  -21.1307 C   0  0  0  0  0  0  0  0  0  0  0  0
    5.2204    8.8099  -20.9572 C   0  0  0  0  0  0  0  0  0  0  0  0
    7.3555    8.0657  -22.1282 C   0  0  0  0  0  0  0  0  0  0  0  0
    4.7318    0.8626  -21.7306 C   0  0  0  0  0  0  0  0  0  0  0  0
    5.4586   -1.5218  -21.5234 C   0  0  0  0  0  0  0  0  0  0  0  0
    7.1926    0.3392  -21.6793 C   0  0  0  0  0  0  0  0  0  0  0  0
    5.9027    7.6826  -21.7539 C   0  0  0  0  0  0  0  0  0  0  0  0
    6.1329    1.3423  -21.2520 C   0  0  1  0  0  0  0  0  0  0  0  0
    6.8408   -1.0215  -21.0957 C   0  0  2  0  0  0  0  0  0  0  0  0
    6.0267    3.8892  -20.9822 C   0  0  2  0  0  0  0  0  0  0  0  0
    5.9143    3.5919  -17.2403 C   0  0  0  0  0  0  0  0  0  0  0  0
    6.5069    2.7125  -21.8513 C   0  0  0  0  0  0  0  0  0  0  0  0
    5.8657    6.4189  -20.9005 C   0  0  0  0  0  0  0  0  0  0  0  0
    6.3172    5.1984  -21.7223 C   0  0  0  0  0  0  0  0  0  0  0  0
   11.1977   -3.8799  -20.0000 N   0  0  0  0  0  0  0  0  0  0  0  0
    4.5985    3.7895  -20.6718 N   0  0  0  0  0  0  0  0  0  0  0  0
    5.6863    3.8079  -18.6741 N   0  0  0  0  0  0  0  0  0  0  0  0
    9.5140   -3.4187  -21.6128 N   0  0  0  0  0  0  0  0  0  0  0  0
    7.7808   -1.9535  -21.6206 N   0  0  0  0  0  0  0  0  0  0  0  0
    3.3089    3.3514  -18.7122 N   0  3  0  0  0  0  0  0  0  0  0  0
    7.9129    3.9045  -19.4012 O   0  0  0  0  0  0  0  0  0  0  0  0
    9.0913   -2.0935  -19.7734 O   0  0  0  0  0  0  0  0  0  0  0  0
   15.3742   -6.6477  -18.4901 H   0  0  0  0  0  0  0  0  0  0  0  0
   14.4577   -4.8614  -17.0243 H   0  0  0  0  0  0  0  0  0  0  0  0
   14.3181   -7.1278  -20.6898 H   0  0  0  0  0  0  0  0  0  0  0  0
   12.5547   -6.6740  -22.3347 H   0  0  0  0  0  0  0  0  0  0  0  0
   12.4891   -3.5293  -17.7583 H   0  0  0  0  0  0  0  0  0  0  0  0
   10.5555   -5.3314  -22.9871 H   0  0  0  0  0  0  0  0  0  0  0  0
    6.6437   11.4152  -22.7557 H   0  0  0  0  0  0  0  0  0  0  0  0
    7.2343   10.7123  -21.2117 H   0  0  0  0  0  0  0  0  0  0  0  0
    4.7780   10.9141  -21.1599 H   0  0  0  0  0  0  0  0  0  0  0  0
    4.6445    9.9725  -22.6838 H   0  0  0  0  0  0  0  0  0  0  0  0
    6.8598    9.2362  -23.8758 H   0  0  0  0  0  0  0  0  0  0  0  0
    8.4195    9.6757  -23.1007 H   0  0  0  0  0  0  0  0  0  0  0  0
    4.3531   -0.4249  -20.0345 H   0  0  0  0  0  0  0  0  0  0  0  0
    3.4151   -0.8390  -21.5094 H   0  0  0  0  0  0  0  0  0  0  0  0
    5.7612    8.9644  -20.0118 H   0  0  0  0  0  0  0  0  0  0  0  0
    4.1803    8.5237  -20.7421 H   0  0  0  0  0  0  0  0  0  0  0  0
    7.7930    7.2678  -22.7463 H   0  0  0  0  0  0  0  0  0  0  0  0
    7.9477    8.1836  -21.2088 H   0  0  0  0  0  0  0  0  0  0  0  0
    4.7320    0.7858  -22.8280 H   0  0  0  0  0  0  0  0  0  0  0  0
    3.9726    1.5931  -21.4143 H   0  0  0  0  0  0  0  0  0  0  0  0
    5.2487   -2.4808  -21.0272 H   0  0  0  0  0  0  0  0  0  0  0  0
    5.4435   -1.6623  -22.6143 H   0  0  0  0  0  0  0  0  0  0  0  0
    7.2201    0.2751  -22.7771 H   0  0  0  0  0  0  0  0  0  0  0  0
    8.1766    0.6588  -21.3058 H   0  0  0  0  0  0  0  0  0  0  0  0
    5.3341    7.5073  -22.6790 H   0  0  0  0  0  0  0  0  0  0  0  0
    6.1265    1.4200  -20.1548 H   0  0  0  0  0  0  0  0  0  0  0  0
    6.8946   -0.9796  -19.9978 H   0  0  0  0  0  0  0  0  0  0  0  0
    4.9492    3.5821  -16.7124 H   0  0  0  0  0  0  0  0  0  0  0  0
    6.4234    2.6283  -17.0912 H   0  0  0  0  0  0  0  0  0  0  0  0
    6.5414    4.4034  -16.8426 H   0  0  0  0  0  0  0  0  0  0  0  0
    7.6013    2.7686  -21.9466 H   0  0  0  0  0  0  0  0  0  0  0  0
    6.0472    2.7991  -22.8468 H   0  0  0  0  0  0  0  0  0  0  0  0
    6.5386    6.5441  -20.0394 H   0  0  0  0  0  0  0  0  0  0  0  0
    4.8387    6.2541  -20.5425 H   0  0  0  0  0  0  0  0  0  0  0  0
    7.3988    5.2722  -21.9083 H   0  0  0  0  0  0  0  0  0  0  0  0
    5.7796    5.1941  -22.6820 H   0  0  0  0  0  0  0  0  0  0  0  0
    3.8545    3.8342  -21.3386 H   0  0  0  0  0  0  0  0  0  0  0  0
    9.1841   -3.6202  -22.5351 H   0  0  0  0  0  0  0  0  0  0  0  0
    7.6592   -2.2600  -22.5646 H   0  0  0  0  0  0  0  0  0  0  0  0
    3.2716    3.2571  -17.7174 H   0  0  0  0  0  0  0  0  0  0  0  0
    2.4778    3.2383  -19.2567 H   0  0  0  0  0  0  0  0  0  0  0  0
  1  2  1  0  0  0  0
  1  3  2  0  0  0  0
  2  5  2  0  0  0  0
  3  7  1  0  0  0  0
  4  6  2  0  0  0  0
  4  7  1  0  0  0  0
  5  8  1  0  0  0  0
  6  9  1  0  0  0  0
  7  8  2  0  0  0  0
  8 30  1  0  0  0  0
  9 30  2  0  0  0  0
  9 33  1  0  0  0  0
 10 25  1  0  0  0  0
 10 32  1  0  0  0  0
 10 36  2  0  0  0  0
 11 31  1  0  0  0  0
 11 32  1  0  0  0  0
 11 35  2  0  0  0  0
 12 33  1  0  0  0  0
 12 34  1  0  0  0  0
 12 37  2  0  0  0  0
 13 14  1  0  0  0  0
 13 15  1  0  0  0  0
 14 17  1  0  0  0  0
 15 18  1  0  0  0  0
 16 19  1  0  0  0  0
 16 20  1  0  0  0  0
 17 22  1  0  0  0  0
 18 22  1  0  0  0  0
 19 23  1  0  0  0  0
 20 24  1  0  0  0  0
 21 23  1  0  0  0  0
 21 24  1  0  0  0  0
 22 28  1  0  0  0  0
 23 27  1  0  0  0  0
 24 34  1  0  0  0  0
 25 27  1  0  0  0  0
 25 29  1  0  0  0  0
 25 31  1  0  0  0  0
 26 32  1  0  0  0  0
 28 29  1  0  0  0  0
  1 38  1  0  0  0  0
  2 39  1  0  0  0  0
  3 40  1  0  0  0  0
  4 41  1  0  0  0  0
  5 42  1  0  0  0  0
  6 43  1  0  0  0  0
 13 44  1  0  0  0  0
 13 45  1  0  0  0  0
 14 46  1  0  0  0  0
 14 47  1  0  0  0  0
 15 48  1  0  0  0  0
 15 49  1  0  0  0  0
 16 50  1  0  0  0  0
 16 51  1  0  0  0  0
 17 52  1  0  0  0  0
 17 53  1  0  0  0  0
 18 54  1  0  0  0  0
 18 55  1  0  0  0  0
 19 56  1  0  0  0  0
 19 57  1  0  0  0  0
 20 58  1  0  0  0  0
 20 59  1  0  0  0  0
 21 60  1  0  0  0  0
 21 61  1  0  0  0  0
 22 62  1  0  0  0  0
 23 63  1  0  0  0  0
 24 64  1  0  0  0  0
 26 65  1  0  0  0  0
 26 66  1  0  0  0  0
 26 67  1  0  0  0  0
 27 68  1  0  0  0  0
 27 69  1  0  0  0  0
 28 70  1  0  0  0  0
 28 71  1  0  0  0  0
 29 72  1  0  0  0  0
 29 73  1  0  0  0  0
 31 74  1  0  0  0  0
 33 75  1  0  0  0  0
 34 76  1  0  0  0  0
 35 77  1  0  0  0  0
 35 78  1  0  0  0  0
M  CHG  1  35   1
M  END
> <OMEGA_C>
vDdoQeyFwsCpepbBF+1fQb4JosAn1Y/B1aVeQfhVy8ASbKDBLM9CQdCzvMD9f63BlA5OQW4MisB1
HpPBCvMwQXyepMATZ7DB+61MQWzFs8BJrqPBPFtEQdjxksArBJ3BFI8pQXZ5hMBHd6nBZpnWQEjQ
d0CH7pzBAD2OQOnZZ0AmaZrBMFANQZ30HMDNXKfB3XDVQDkiKEG7EbHBzFinQBnNIUFrGq7BPQLs
QAMkFkGVUrfBvJKMQKCtAb+3C6nB4w2nQDv1DEFEqKfBeGDrQAcNAUGhBrHBqGqXQPzRXD9Z2K3B
CK2uQEDKwr//L6zBeSnmQEStrT4vb63BvuK8QCjY9UDjB67BpEDEQGDRqz8hBKrBOOjaQK/Bgr8S
xKjBitrAQBHoeECc26fBtEG9QMzhZUAh7InBrTjQQEyaLUBmz67BzLO7QJRnzUBKNKfBQSbKQPxY
pkBCx63B1CkzQfFQeMDp/5/BsSaTQJqGckDlX6XBGPa1QFm0c0CUZJXBgTkYQUjMWsAX56zBaPz4
QLEK+r/z9qzBxsVTQNt8VkCYspXBiDb9QNDieUCtNZvBGnYRQW78BcDbL57Bj/x1QbG51MCk65PB
4lJnQUCQm8CrMYjB6hZlQT0X5MDMhKXBEOBIQYOR1cBorbLBQNNHQVvfYcAMEY7BZeMoQYSaqsCj
5bfBepnUQLSkNkGmC7bBJH/nQMZlK0GMsanBVOWYQCugLkF5R6nBkZ+UQFqPH0FieLXBFIPbQKDH
E0GVAb/BULYGQZXPGkFGzrjBmkyLQCGH2b6eRqDB/pBaQKHGVr83E6zBk1u4QAhuD0EiGKDBF8WF
QEJhCEHW76XB+V/5QM+R6EB5+LXBxVP+QALwAkGWq6nBTGyXQOUoST+mn7bB0z9+QE3ryz+TUKvB
APWnQJHFHsDIN6jBUjGuQMDH1L8e6rTBcgvnQH7bjD5yN7bBbNMCQUupKD9RcqrB87CqQKY78ECr
brXBZQzEQF/CtT/9PKHBQ6DcQKvJer+Y+5/BOmCeQEVBZUAUs4XBsYzNQCw2KEC7uojBH1PRQJro
jECMvYbBND7zQC4wMUC5kq/BnILBQJgkM0BTxrbBzjvRQEtp0UCkUKDB1daaQJwhyEAWV6TBH8Ps
QHe1qEAoRK/BKvK4QAo2pkCndLXBqrB2QAtkdUBjtarBDfISQYmxZ8DZR7TBCxj1QFOjEMBkhLTB
l2JRQN9zUEAnvY3BxJQeQM0/T0CuDZrB0Y1lQcdk68DPt6bBTNZZQTae9MDQFLDB19xfQRRnyMCr
O6DBHtdHQbsUjcCKeZzBjWhIQX3I2sAOCbPBye01QWamasAcfZ/BlzFOQTIUr8CjC6PBmXtCQc84
uMBDgKzBQdcqQZicgMAh/qjBWW/YQBORc0B99ZzBb++PQFS0Z0CnPJrBv1IMQUgQHsBudKfB6o3S
QM0EKEG1kbDBugikQMbKIEHZxq7BJO/sQGV9FkGGMbbBZ1CLQMWVBb+N9KnBYbaiQHXfC0HpZajB
B2HrQK9gAUFu6q/BrgCXQBk4XT9CVq7Byu2sQHI9xb+GWa3B2mTlQOxtlD5tFq7BlW68QIai9EDz
La7BdjzEQHj+pj+ocarBR/XYQAofib83oKnB30TCQD9OdkA51qfBxIe/QNPMZUCr1YnBjS7RQAaf
K0BF9a7BU+a5QFEGzEDTbKfB4XfLQH5gpUCbq63BVlwxQTH3oMCnQ6/Bpq+UQCPTb0C9PKXBTH+4
QF2cZEB6cpXB+hAZQd4uV8DvvazBD233QDUZAcApea3BHhtWQJvfYkAjVJXBJ/v+QENUeUCvRZvB
0Q8OQRH3C8BV8J3B0/hyQTZO/8CDg6TBEUZeQYLPB8ED/7TB5gZpQQ0VwcD6I5nBnpJQQat0hcBa
RJXBzqA/QTx54cBXSbrBBJMwQfd3NcCoqZrBupvSQOWCNkHyj7XBQULhQNidK0Fex6jB38aSQBJH
LUEmUqrB9oaUQONMHkH1k7bBmtjfQMHUE0HvQL7BPzIHQTTPG0E907bBTOOJQGii9b5AK6HBIdVX
QMS/Ur+OHq3BopewQJCWDkEGbaDBy0WBQNqkBkFSjafBA3L8QKbY6UBRcLTBrOb6QCOhA0EjGajB
y8iWQGJKVD/iIbfBImN+QJE+zD8BjavBu5qlQJcCIcAYtanBos6sQBur0b+EHbbBNSDmQLYDfz4v
4bbBpJQCQTCwEz9bEqvBaq6tQHWB7kBxBbbBtSjEQNFPrT8hp6HBs3TZQL3zg78p1aDBLjyhQDsW
WEDZsYXBQl/XQILsNEBmsYfBA0TLQJWkkkAdaofB+0H0QNgGLkDkoa/B7NLCQO0fM0AU8LbBW+PM
QNdw0EAXGaDBoE+YQArvxUA8R6XBa0fuQN4IqUADmq7BFU68QANvpEDFm7XBl4J5QIoNcUDIi6rB
ROsUQYT8Y8AKTbTB1Tf0QN9BF8B977TBhxhUQAdKXEAFYI3BPbcfQJfDZUCGh5nBJhBqQZAvtcBA
i5XBI6RhQWU6ksBVyI/BJv5fQZCEw8Af9Z7BTl9DQRw4vMBTEKzBTgZPQeAUe8D2YZPBYR8xQTQ3
psDrbK/BAXhNQYLErsBfnaLBQ/JEQR3Di8DcxpzBCHopQQz8g8BNNanB+O7YQC8KckDvYpzBbPOP
QImMZ0BpXprBmbIMQYEOHsCVsKfBxSm8QHU2JUGezLTBvRHZQEZiFEE5H7rBsIi+QMJsI0EdjqjB
LSeMQOzl6r44fqrB4RfMQCCI+0C3q7bBzMqxQCfyDEEZ4qTBSF2ZQKGVaT81267BItKtQCqcv784
bK3B/1bnQGbZoD5pgq3BZILNQDw+90APVarB2K7FQMi/qj88UKrBzb7ZQBm0hr8oWqnBIGrEQCFn
d0CUbqfBZvW8QHsIaEB7g4nBFNLTQI55LUCela7BAzG8QEkQzECek6bBFqjPQExNpkBWy6zBGFQz
QRjtbsCzHqDBCF+WQJWGckBAR6XB3763QP6wZEDpLJXB7rgXQaetXcBE5azBYaH3QOMUAMBQZK3B
qLhUQLOUYEAC2pXBoyL/QJsreUCOVZrBCHkQQXpaBcBdip7BwVR4Qa4PxcAAt5LBK4RpQdlWh8AB
l4jBentmQRBT3sAdV6PBJ41JQcbf1sAGnbDBlIFIQbTBRcCz9I7BJ/8oQfFdr8ACs7bBKLTGQHZH
NUHHPbfBqumaQPqpIkEUZLfB/B7WQLC7FUF03cLBm3n6QNZLF0HfwrfBVXXfQHzFJkEw7qXBZaCo
QPAsL0HI9aTBxSuJQHqezr5fvKHBbWhaQCTRP79t+63BI2WrQITx9EBte7nB/lHiQM1D5EAKPbrB
SPi1QG/QC0HqKZzBPgGQQCMqCkEP7KbB+USbQNalXD9TorfBjkWBQEVh1D95hKzByF6lQL2AHcCu
v6nB1fauQHv/zb8ILLbBSyfqQIS8kD4UR7bBWjEDQTl6Fz+uAarBZdLuQLvA+kDNoKfBcpzDQMeD
sD88iaHBGLzZQLXRhb9njaDBsQKeQAlPW0BjooXB+lfUQEBrN0Ay/4bB3XDIQNjwk0D4KofBRfr2
QKoLL0D1+K7BZIzGQG1HNkAJqbbB+7HDQCQnyEDhCJ7BzUaZQCy6y0D1sKfBcKnyQLzjqUCNBK3B
+wLDQM5fpkDBAbXBK4J+QE55dkC7yarBg0ASQdjjbsBbGbTBtIDzQIvXFcAZ2LTBNkpQQPtSWEAU
8I3BtasfQIWCY0DET5rBErVlQQOv6sBF7KbBfwZaQVif88CPULDBeeJfQfQYyMDyU6DBLNpHQWfQ
jMA5fJzBZXJIQdUC2sAuKbPBBu01QdMEasAZeJ/BBitOQRnKrsBUFKPBBmxCQXvRt8CAh6zBo8Iq
QWBVgMC/8qjBHPXYQKfNb0DozZzBMSiQQHjuZ0BjTJrB91AMQcQQHcDPdafBxai+QG1mJUGxl7TB
J8bbQHKUFEFS2LnBXPe/QBZaI0E1WajBPSOLQN0PAr/R/KnBBg/OQJTf+0AtnLbBiIayQBXaDEFW
3KTB29mWQKEfYT8GXa7BTK6sQJDzw7/LY63BgjXlQIR6lj60Oa7BajPOQCbm9kDQSKrB9TLEQF7Z
pz9vjarBEcbYQPUXiL+GsKnBKVHDQMdzdkBEtqfBDwS/QM+0Y0BCxYnBUS7RQOk7LEAjCK/BTde7
QMC9y0CPyabBTOnOQPXfpUAJD63BjTwxQYOqoMCeO6/BNHmVQLUDc0BKQKXBLHm4QBtjYkD7ZZXB
AAMZQe2JVsDytKzBHj33QJ3QAMDgeq3BSBtWQFQVY0AyfpXBIWr/QAd3dUAB/prBABYOQcaVCsAI
9Z3BVjNzQfF//sDJx6TBvJpeQeIcB8EFVbXB1vxoQR0TwcBpMpnB/55QQZs+hcDtSJXB8p8/QQCX
4MDaZ7rBa6AwQRLCNMA8pJrBuKDJQDV6NUEb5bbBPpqdQPIFI0F7X7fBHbHZQLsnFkEemMLBKv78
QFxIF0FfRLfBBbjgQIx/JkHJiKXBGfepQBwgL0HpzqTB1L6JQGra7r5jM6HBWGxXQA67Tr9YJa3B
WZetQFS79UCepLnBYGzkQACW5EBzHbrBwxi2QNOCC0G+IZzBjNGQQFlOCkHFDafBn1iWQBoeWT+u
KLfB7HN+QFFuzj+8gqvBMlGlQN9LIMDiu6nBL32sQDiQ0L+BJ7bBbrDlQCk5fj5bBLfBHYoCQWSe
FD+VRqvBz0vvQH+z+UDBXqfB3U/EQL3hrT+3wqHBIkPZQD/vgb8Z5qDBQGmgQJJfV0CptIXBJkPW
QDHzMUDTiYfBGErLQPdkkUA/WofBOjH0QCoELkD26a/BcRnCQH/BNEBW6bbBvrHCQKkox0BrO57B
cwGZQH4rzEDRC6jB4fHxQEgmqUAGTq3BGizCQAMtpkAKQ7XBYpt7QLDed0C1marBF9cUQQCaY8Bs
QbTBqufzQHm3F8BT57TB32RTQF2hWkD+kY3BYRYgQHHUZ0DqvZnB9UVnQXsjxMAr35XBTqFeQc0S
pMDnNY/BeSteQep4zMAK85/B0BJDQYHjvMDAWa3Br9NMQQQgjMDSmZLBBF0xQaudpMC0Y7DBMFtM
Qfa/tMCMWKPBj6JDQT11lMDwpZzBBYEpQfknhcB9YqnBh1HZQOIUd0BW95zBOV6QQFR7bEAx75rB
gSoNQZCSHsBqYafBPb2cQHzpHUG9bq3Bs3uVQH1oCkGZw7TBk0W5QGIaGEEc1aPB9/uMQA6n9b43
ZqnBv5DAQIu1AEHCabjBez7kQIbSDkHAsqfBO36YQGm8Zz+j263BvNKuQJRAwL8lpKzBCQnnQPyC
qT4AcK3B1e7dQNvO9UCD0a7BkIrFQOG5rD+Z/6nBzwDbQDTyg78k9KjBAMLEQOg7e0BhBqjByZ69
QIRlZUCQHorB5WrSQL1oLUAT0a7Bo0jMQH3qz0A9EKjBrQjSQHjjpUDhTq7BZ5QyQecXe8AQwZ/B
KbyWQNjhe0ADyaXBKzW4QAHDZ0B6yZXBOkQYQb35W8Dz6KzBjR75QAPd+7+bFq3B+sdVQH0JY0CI
apbBf7D/QIQDekD59JrBF98QQeYHCcCAGp7Be/R0QSpk1sBsOJPB2rRlQRbkncA0e4fBe9lkQZX7
5MARC6XBOHdJQQFN1cCUkLLBzUFGQUDzZsBsg43B98YpQavvqcCdCbjBJEysQAixKkFIEbLBCjt7
QD6bI0HBd6rBFDyDQEVn/ECwXLDB1TiDQCh5D0Ef2bvBq1i/QCySJkGiDp/BysmoQIYjDEGH3Z7B
2EuLQCfC2r6UnqDBRHNbQG0sSr+mmKzB9yC6QLM45EDGDr3BwDjRQFhqDEEff73BlEb1QCgjG0Hk
UqzB23/3QHhRCkEvr6DB7UGYQD0pXT/MprbBn5+AQPR80T84GqvBoHSnQJkcHsDX5ajB1MquQNqW
zr88ZbXBHTToQDS+jz4zObbB7UkDQfQwIT/IWKrBFVj9QI9d7EAoA7LByV/FQJW5tj+DOKHB4Ajc
QKFCgL8VKaDBu5meQNUlWEDJTYbBTofUQMy6MkC+/YfBS8zJQL3FkUCfUofBFHL1QHa1LkCMq6/B
zHrDQEEvM0CSwLbB6+PdQMT9zUBkdaDBSxaqQCcY1UB6babBmvzzQKvGokDcfrDBMX++QBGhp0CD
nbXBV0R/QOvkgkBELqvB+DkTQcNWaMD/V7TBEJf1QFUyEcCDqrTBE8lRQB1AV0ChkY7BV38gQDCb
Z0CIz5rBXiJmQbxY3cCdAZnBjfJcQSIqwsDxQpHB1EheQXpZ3cBWk6PB7y9FQXSuwcAI6LDB7N5L
QajkpsD3DZTBkTM0Qc0MpsC8VrPBVjRNQUQZwsDdZqbBMupDQfmwpsADnZ7BuZwrQYyJi8D+RKvB
ICTSQFvPd0Cx15rBeVaIQDNIeEDHuprBWYMPQeCNKMBYtqfBGJa8QCTEJkENerfBoIXXQKiLFEFp
VLzBiSC/QAyKJkHKJ6vBLKqUQHyl3r78xqPBipvJQHpL/UCW5rfBQOewQF28EEE4qKbBuOWaQK/G
az9LWKnBC8WzQAguvb89VqjBd1joQOcDwT5jIa3BxcPLQMpy/EAjdqvBGvPJQJQctD8ZGKjBkVri
QKDner9Cj6fBkJXCQJPff0D4ZqbBRhCuQIYuW0CxGInBrD7SQGcSM0BsTK3Bo6W6QNPy0UBW3abB
AzLSQDtXqkBzfKvBJIczQZxOjMC6JqHBV8OTQO9PgECEc6XB9p+tQM4adEBfdJTBJ7caQYKNYcAm
Kq7BuT/+QJ7D+b8Hv6zBq39BQCc3dECZTZfBHFD3QFPvbUCK7ZfBAKQTQZzMHMCQNp7B5jVzQcYz
8sCW1ZbBNwJjQTs9wsCjK4nBi1VlQRIu8sAlgKnBxPdLQY411sBm+bbB4d5EQVIgksDaGY7B47gt
QQIOpcA3WLvBjLLIQIUwNkGUcbrBXwabQLTEJEFs77nBK3DTQIiUFEH+EcXBgGr5QI81F0ETXbrB
O1TgQL+qKUG1r6jBZiCqQIweM0G88afBF5yaQJvpor5xJ5vBujhnQDIsR7+jDKXBAouoQB7I9kA6
cbrBOvLeQL5q5EArHLvBIPC0QJrPEEFJ6p3B7PuOQGwpDkFAoKjBWWGTQALsUD+d5rHB3UKFQHeb
1D9wuKXBsZGwQG92GsAIx6PBt9SrQB/o1L/qx7DBqhLhQEmJjD6Qs7XBr9AEQep7Nj8UJKzBYU3t
QCM6AEHW+6jBOzPRQAKUvT/RgJ/Bcg7rQJfVYL9iEp/BBUuNQIhiXUBL5YXB4sO6QEPQGUDdU4jB
2HjCQPDbg0D6k4TBNOD0QBcWOkCkm67BtofBQLIpNUDoCbXBZte+QAJG0kCvIJ7Bm2WYQFBQz0AK
yajB7q70QKzNrUDa86nBj4fMQP3+qEA1KrTBIYN+QBogg0BejavBsBcWQUmIZMB70LXBwVL5QDvO
CMBTgrTBMZY1QOdzbUAOfY/B+AARQCfgd0DogJzBFIlmQQU438DEmpnBoPZYQTix0MBdW5HBkhVi
QQmd1MCvVKTBAkxLQZblsMDHerHBtfFGQYdWt8BfzJPB0Cw5QTLhl8CUlLPBLwlQQRZiu8BBz6bB
dWNCQWtvrMBPg57BHW0sQYlCicCsA6vBnTfQQEd9dkAEUJ3Bg/2GQFK9eEAYEpvBIYQPQQsfKcC6
BKfBe6fHQI4XKkGLzbDBRO62QLpuGUGd6bjBn+DuQCyGIUF/qarB3t+UQNGLA79UpKDByXCsQIYH
BEH+YLPBMB3kQDVSDEFyBqXB0POVQA8YQT8fnafBwRqzQNVhy7+VKqXBXHLhQF94az56hK3B8M7T
QKP29kDMJq3BSmLEQCvApT+WdajBM+LgQH5vhL9AfqbBUHW7QGNWeUBYZqjBFNa0QKIza0CrWorB
44HHQML2J0Bh/K7Bt13IQKjLzUAUEKfBvbfIQPP2pUCVfa7B4RYxQRrTk8C9uaDBamCNQK+jfECI
GKbBCPWuQHwjeUCs5pXBaZsaQYcnYcDSn63Bhon7QKv1AsC7navBTJ1CQFAidUAbe5bB8Kn2QK8T
cUB8bZvB88YVQVNUFcBxCJ7BE1x0QaF/8sBNspfBgGBcQZQB2cBpJYnBCnlsQQfI38A3parBd2hV
Qfbiu8DI7LfBWZw8QYw+rMD6c43Blfw0QdXTj8Cqt7vBOtHQQAG5OEHvH7XBOhOuQBrVLUHXDavB
EcSZQLOrH0EZurzB9JHPQFiuFkFzC7/BcKMEQdbaHkHtU7DBbbP4QJZiLUFupKTBLvieQHn7g77Z
dpjBMRZoQCv1aL+3eKDBFMqRQMd1BkGZwq3BHBOjQAR18EAtebnBpoYAQTcqBkFvEqHB+yDLQNQ2
D0Fl/57BNg2KQIFXAz/nqq/BmWeBQCMJwz9l/KPB4tyzQBSJHMD4pp/Bnh2nQKht9b8EA63B5LHV
QLgAhLxbk7XBhCoBQTG/HT8BEa7B6Y/tQNTp70C64rLBjwLQQO58vz93T6DBhc3tQONQSb9JjZ7B
MMeVQGelcEDcRIbBQSnCQDTyKkBKAInBUPrKQB3LjUBKKIfBgJfoQLIkL0B/2rHBKbexQCt3I0Cv
37XBo9DfQE/zyEDKnKDB6DaoQAla0UC6l6PBRC7pQHqooUDGt7HB7yqyQIFOq0BIHbXBd2ZsQMGA
gEC+lavB4i0VQdm2ZsAkHrXBKY7zQK8vFcBLBbPBgDI+QEVLckADgo7BxIwNQGE5dUAJ9JrBpk9t
QWd14sDxMrDB/aBjQahF3sCMVbrBe6ZjQU4B0MBoHqfBdWVGQe3fpsAPM5/BqkJQQbuSx8DBbbvB
bjUzQXJqkMCgnqDB60hQQVo/ucAzL6jBA4JGQa7rtMA5YrLB+noqQThZjMC0CqvB2kzRQP0sgUCY
SpvBckGIQNpjcEDNKZzBqnUOQeh6K8By/qbB8OLRQB6BKkGDZ6/Bqh2mQPaCIUEs57LBfBX2QIU1
GkEheLHB8KSRQBcow76ZK6PBGMKcQJ80DEHgN63BfunsQEa+BEGg3qvB086cQHVCYz9qTqnBsVeu
QHvGwb+q+abB9LbpQObiUD57AKvB69fAQPR890DFWa/BGP3LQHgQqj/d86bB+OTdQNxakr/7qaXB
A5vEQCgzfEAUFqfB1H6pQLXjekAsrYnBO9HYQL5aK0CKbazB9EO2QItSzkBcOanBQyTRQEt7p0Cy
Kq3Bif8zQU0In8AVlrPBXeCVQO+WdkCfv6bB3AusQHeydEAAZ5XBHI8XQe5ybMA7D63BxBT2QADf
DcAFp6rBj6dAQAC6ZED1S5nBz2/1QPAIh0BqwJfBub4XQYPBB8Bekp/Bxyh8QXTX88AFZa/BzhFr
QWp97MBjRsHBQRBrQeBI08CAW5/BsHJNQZYAqsC3WZfBTuFIQf51xMDEM8PBQCMrQSlUgsAT15nB
Po3YQP40OUEI8rPB1MXQQGQ6LkHezqbBafGMQLYeLUHe3bDB3mKmQDHeHkFZmrvB4eH4QPd0F0H/
IbrBWC0KQQLEIEE6Zq7BraCWQKuOXL58j5rBZOxfQCPMJL9coKTBQlWaQKYQD0FvjqTB5Y58QOS4
BUFXMrDByQYDQe9i8kDLAq7BCePsQCs1B0EFKKPBJTuZQOobMz8z7rHBo+WGQCWy2D993qbBa3+n
QCWbGsB4PKLB/r6nQGSH27/ad6/BiU3mQGIS4D1KurPBZIcFQZa66T6aCKnB3dfBQHVm8ECA97fB
MwTQQIyJtz9EQJ7BgIHlQHIEi7+dFZ3BnpaIQP0ybUAMEIfBAoG/QCs8TECcDIbBYH+yQH/vnUCy
JYfBdNr7QC2VMUA5F6zBN2zOQAscKUCt1LTB19e8QNN/00AvraDBuR6UQHH9xkD/UqrBTEbzQBkj
rkD+zavBPHTLQAjFokBYxbXBqqWCQNgfd0CGJK3BZ5QPQbd7fcCdqLPBCbPpQF92KcBkLLHBys8x
QGbQXUAdkJHBtZQSQO29YkAC2J7BAl1eQcMf88ApipnBMOVTQUIt3MBXW5HBN6tZQSp+6sCGWqTB
QJZFQanYwcCpurHBhrBEQbCEvMC39JPBkVc2QQYsosBm9LPBt3ZKQa3XysB0/KbBLOM/QS+us8Dv
wZ7BllUsQVs5jMDFcqvBYmPMQPeHgEASr53BxYOEQI46dEBC1pnB5HYRQZFEJsARVqfB6NLsQKF8
JUH8XrLBVfrBQOekJUHuP6zByaTuQFO6EkFBWbrBl5CfQEFLCr9SNZ/B45+6QPM6EEEEdKbBP23n
QL9q+kCUqLTBZcSZQGaWNT+3PqbBoqG/QPU3wr9LVaTBUjbkQPLe2T5Gy63BXXK8QBpD+kDjXa7B
MZLFQC3psj8oL6jBwJjqQIpEUL9vsqbBI9SzQAPTfEA0QajBzHe4QK+Zc0DLLYrBxcXBQF4oLUDX
6K7BlJS2QHG/0EDH3qfB9027QN3Dp0C40K7BJTwxQZI6lcCcGqHB78uGQM1gd0Df96TBRuGtQAUP
fkB6kpXBSz0dQbpmWsB/Kq7BxKIDQRUO3L8YVazBx/ZBQBmTaUD4a5TB3GfzQFNPgkCYqJzBSfIS
QQ7gKMCiiZ3B1/9pQcStBcEKhJfBJYlXQQrf4sAEFInB7LJhQaQU/MBAnarBoWpNQQj40sDdIbjB
ybQ8QdYBq8C9qo3Bb0YyQeOZmsDKIrzBTzzwQFmgNEHfxrbB5p0DQQnjI0HAm6zBOXXCQG2lMkHo
UabBt7enQOZYKEGn87HB56XVQPLxFEHZccDBdB4HQbOLEkE1Or7BJZGrQJRscL4BTpfBcn2AQH2Y
hb+cR57B243TQIsgDkGFVKDBqf6aQOeHEEEvmKLBP73mQNK04ECeqrrBH/QAQafA9EBOCa/BjOGL
QGul0z4X+q3BVx2EQJsEtT/pM6LBO0rFQNvEFsCt0J7B3iayQMAn87903avByYnWQDwJ+D1Qh7XB
3psBQepBaz8iIK/BpOahQCw9/UACGbTBY0vTQBJ71D9cW6DBcRv5QN4zAL91FJ/BQdaaQCI3c0DJ
bYXB8ZTJQN3JNkAWBInBP+rMQMd8lEBjkofBaCDhQI+tOkDfiLLBrvupQMmlIkDaQrXBstjOQM/p
z0C4f6HBrXSWQHfv0EDyRaTB88zbQKXnpkDbMLLBD8SjQIADqUDRWbXBdW1bQCMgdkD67qnBl40a
QZ5rUsA1/bXBIXcDQewn2r/BVLTB9W5DQD/SZ0BHbYzBQ0oKQJ0zY0BISZjBZuNuQYWYtMD5jZfB
MDJmQdhkk8BzRZHBck5kQQUOwsDG7KDBoz5GQfs9u8C6V63BN+RSQc4Mf8BvVZTBkyAzQbyKpsBk
G7DBK/5QQU08rsCHBKTB3DJIQejDjMAmtJ3BuicrQWFzhcAeiKnB003WQNW5dUA3C5zBnfaMQD+5
a0BFtZrB+8MMQTV5I8B6iqfBpIelQNAdGEG/fcXBmt22QD+2BUGYeszBeSO4QAYcF0GlErrBbJaJ
QA6rzb4mlajBab2tQLyw30ATRcfBhWCvQFE5AUFr1LTBDEmXQK/icD+/b63BYEOpQAuiwL+hwavB
7e/kQFH0bj7xL63BewbBQJlf3UBg3bvBWSzFQF/PqT+boqnB1VjXQNiCkL/tfajBdKbDQASfekDw
WKfBnMK3QGpuXUAFionBoHXTQDYGLUCkM67BFHm2QKwzsUBrA7fBK3fPQIHmqEBldazBcrQ1QRSP
csC/h6DBK0GVQK25eEA9gKXBUK2zQFX9b0CgCZXBphYYQSkEZMAEuKzBGcXzQBwrC8DgcqzB2FRN
QN0YX0CXupbBZGL8QDi+dEC0qpnBs84SQe5iAcBVNp/B8K19QWK8w8CgLpXBy1huQe8oicBmGIrB
vvhqQWZ/28DDuqXBl5NMQa+j1MACRrLBjEdMQVw/TMA+f4/BCIoqQabdr8CbO7fBeWquQNl7J0Es
KcnBxHWCQJvjFkGqDMXBjFKnQAtPBkFtXtTBZ6LZQKWmB0GRc83BBeraQCW5GUE3dbrB0VSpQKG8
I0HNL7XBD82IQHxcoL430J/B5ANTQHflKb9xiavBn+uKQO/q2kA/x8bBO/a7QO5OxkAQOczBxgW/
QCO4AEFq86zByaWMQCFX/kAj1LPBiwmXQMdQXD95NrbBh6WAQL5p3D+z6arBii6gQEk3HMB+uqfB
awKoQOP/0r+9ebTBHy3lQABuLz4b+bXBhJgCQcCg+T4pT6rB+P3jQKGt4EC2crzB2EDFQGQZsT/V
2KDBdiPZQB+/ib+mtp/BFtCXQM52XECy2IXBhCfHQFa2HkC1dYjBpWDLQBifh0A3t4XBqaH2QEyB
LkD1f67B34rGQFOrM0B2WLbBbvWTQN+2r0BGU7XBM/S+QKc7mECx17zBKu/HQG6SwkBcvabBMvbx
QCUrqUBONa7B4ud9QPe/f0CkK6vB1cYRQYQrecD4k7PBvGLrQO+OKcCIK7PBgMdFQNFIV0BT2I7B
IHUaQEhHXUDRk5vB

> <OMEGA_E>
cE6aPgxtnj44b6c+EPCpPhT/1z7s3wE/cHQJP3AGGT9wfCE/oMYqPw==

> <OMEGA_NBR>
     33033

$$$$
50253451
  -OEChem-04172616093D

 77 80  0     1  0  0  0  0  0999 V2000
   12.2672   -6.0259  -21.9280 C   0  0  0  0  0  0  0  0  0  0  0  0
   12.9890   -5.9492  -20.7292 C   0  0  0  0  0  0  0  0  0  0  0  0
   11.1396   -5.2116  -22.1207 C   0  0  0  0  0  0  0  0  0  0  0  0
   12.5730   -5.0690  -19.7197 C   0  0  0  0  0  0  0  0  0  0  0  0
   10.7082   -4.3056  -21.1271 C   0  0  0  0  0  0  0  0  0  0  0  0
   11.4340   -4.2429  -19.8955 C   0  0  0  0  0  0  0  0  0  0  0  0
    6.6317    3.9062  -19.5713 C   0  0  0  0  0  0  0  0  0  0  0  0
    4.3598    3.7464  -19.2848 C   0  0  0  0  0  0  0  0  0  0  0  0
    8.8786   -2.5040  -20.9104 C   0  0  0  0  0  0  0  0  0  0  0  0
    6.7333   10.5250  -22.1439 C   0  0  0  0  0  0  0  0  0  0  0  0
    5.3104   10.1925  -21.6606 C   0  0  0  0  0  0  0  0  0  0  0  0
    7.3107    9.3805  -22.9968 C   0  0  0  0  0  0  0  0  0  0  0  0
    4.3966   -0.5267  -21.1591 C   0  0  0  0  0  0  0  0  0  0  0  0
    5.2985    8.8758  -20.8751 C   0  0  0  0  0  0  0  0  0  0  0  0
    7.3005    8.0551  -22.2203 C   0  0  0  0  0  0  0  0  0  0  0  0
    4.7236    0.8668  -21.7075 C   0  0  0  0  0  0  0  0  0  0  0  0
    5.4630   -1.5322  -21.5950 C   0  0  0  0  0  0  0  0  0  0  0  0
    7.1943    0.3289  -21.6792 C   0  0  0  0  0  0  0  0  0  0  0  0
    5.8692    7.7246  -21.7275 C   0  0  0  0  0  0  0  0  0  0  0  0
    6.1260    1.3372  -21.2262 C   0  0  1  0  0  0  0  0  0  0  0  0
    6.8521   -1.0660  -21.1419 C   0  0  2  0  0  0  0  0  0  0  0  0
    5.9768    3.9096  -20.9490 C   0  0  2  0  0  0  0  0  0  0  0  0
    5.7945    3.7410  -17.2010 C   0  0  0  0  0  0  0  0  0  0  0  0
   12.0557   -2.6765  -18.2047 C   0  0  0  0  0  0  0  0  0  0  0  0
    6.4855    2.7263  -21.8065 C   0  0  0  0  0  0  0  0  0  0  0  0
    5.8502    6.4570  -20.8707 C   0  0  0  0  0  0  0  0  0  0  0  0
    6.2699    5.2225  -21.6941 C   0  0  0  0  0  0  0  0  0  0  0  0
    4.5443    3.8133  -20.6606 N   0  0  0  0  0  0  0  0  0  0  0  0
    5.5959    3.9206  -18.6446 N   0  0  0  0  0  0  0  0  0  0  0  0
    9.5718   -3.5597  -21.4986 N   0  0  0  0  0  0  0  0  0  0  0  0
    7.8141   -2.0314  -21.6446 N   0  0  0  0  0  0  0  0  0  0  0  0
    3.2027    3.5683  -18.7012 N   0  3  0  0  0  0  0  0  0  0  0  0
    7.8348    3.9031  -19.3349 O   0  0  0  0  0  0  0  0  0  0  0  0
    9.1862   -1.9484  -19.8637 O   0  0  0  0  0  0  0  0  0  0  0  0
   11.0219   -3.4579  -18.8444 O   0  0  0  0  0  0  0  0  0  0  0  0
   12.5779   -6.7109  -22.7030 H   0  0  0  0  0  0  0  0  0  0  0  0
   13.8633   -6.5662  -20.5831 H   0  0  0  0  0  0  0  0  0  0  0  0
   10.5908   -5.2795  -23.0483 H   0  0  0  0  0  0  0  0  0  0  0  0
   13.1284   -5.0197  -18.7947 H   0  0  0  0  0  0  0  0  0  0  0  0
    6.7019   11.4432  -22.7487 H   0  0  0  0  0  0  0  0  0  0  0  0
    7.3817   10.6837  -21.2696 H   0  0  0  0  0  0  0  0  0  0  0  0
    4.9510   11.0040  -21.0106 H   0  0  0  0  0  0  0  0  0  0  0  0
    4.6457   10.0992  -22.5320 H   0  0  0  0  0  0  0  0  0  0  0  0
    6.7032    9.2686  -23.9070 H   0  0  0  0  0  0  0  0  0  0  0  0
    8.3461    9.6264  -23.2750 H   0  0  0  0  0  0  0  0  0  0  0  0
    4.3639   -0.4858  -20.0604 H   0  0  0  0  0  0  0  0  0  0  0  0
    3.4170   -0.8472  -21.5434 H   0  0  0  0  0  0  0  0  0  0  0  0
    5.9107    8.9911  -19.9686 H   0  0  0  0  0  0  0  0  0  0  0  0
    4.2636    8.6350  -20.5905 H   0  0  0  0  0  0  0  0  0  0  0  0
    7.6520    7.2472  -22.8790 H   0  0  0  0  0  0  0  0  0  0  0  0
    7.9716    8.1389  -21.3528 H   0  0  0  0  0  0  0  0  0  0  0  0
    4.7128    0.8330  -22.8070 H   0  0  0  0  0  0  0  0  0  0  0  0
    3.9639    1.5801  -21.3552 H   0  0  0  0  0  0  0  0  0  0  0  0
    5.2441   -2.5114  -21.1443 H   0  0  0  0  0  0  0  0  0  0  0  0
    5.4502   -1.6221  -22.6913 H   0  0  0  0  0  0  0  0  0  0  0  0
    7.2260    0.2993  -22.7783 H   0  0  0  0  0  0  0  0  0  0  0  0
    8.1763    0.6386  -21.2922 H   0  0  0  0  0  0  0  0  0  0  0  0
    5.2199    7.5748  -22.6027 H   0  0  0  0  0  0  0  0  0  0  0  0
    6.1261    1.3956  -20.1278 H   0  0  0  0  0  0  0  0  0  0  0  0
    6.8802   -1.0425  -20.0425 H   0  0  0  0  0  0  0  0  0  0  0  0
    4.8232    3.7932  -16.6873 H   0  0  0  0  0  0  0  0  0  0  0  0
    6.2559    2.7601  -17.0137 H   0  0  0  0  0  0  0  0  0  0  0  0
    6.4538    4.5349  -16.8201 H   0  0  0  0  0  0  0  0  0  0  0  0
   11.6177   -2.0904  -17.3832 H   0  0  0  0  0  0  0  0  0  0  0  0
   12.8283   -3.3490  -17.8038 H   0  0  0  0  0  0  0  0  0  0  0  0
   12.5082   -1.9952  -18.9403 H   0  0  0  0  0  0  0  0  0  0  0  0
    7.5805    2.7980  -21.8825 H   0  0  0  0  0  0  0  0  0  0  0  0
    6.0422    2.8087  -22.8099 H   0  0  0  0  0  0  0  0  0  0  0  0
    6.5479    6.5817  -20.0295 H   0  0  0  0  0  0  0  0  0  0  0  0
    4.8327    6.3010  -20.4831 H   0  0  0  0  0  0  0  0  0  0  0  0
    7.3491    5.2819  -21.8990 H   0  0  0  0  0  0  0  0  0  0  0  0
    5.7157    5.2236  -22.6443 H   0  0  0  0  0  0  0  0  0  0  0  0
    3.8150    3.7981  -21.3446 H   0  0  0  0  0  0  0  0  0  0  0  0
    9.1789   -3.8502  -22.3711 H   0  0  0  0  0  0  0  0  0  0  0  0
    7.6965   -2.3722  -22.5774 H   0  0  0  0  0  0  0  0  0  0  0  0
    3.1441    3.5470  -17.7032 H   0  0  0  0  0  0  0  0  0  0  0  0
    2.3768    3.4535  -19.2531 H   0  0  0  0  0  0  0  0  0  0  0  0
  1  2  1  0  0  0  0
  1  3  2  0  0  0  0
  2  4  2  0  0  0  0
  3  5  1  0  0  0  0
  4  6  1  0  0  0  0
  5  6  2  0  0  0  0
  5 30  1  0  0  0  0
  6 35  1  0  0  0  0
  7 22  1  0  0  0  0
  7 29  1  0  0  0  0
  7 33  2  0  0  0  0
  8 28  1  0  0  0  0
  8 29  1  0  0  0  0
  8 32  2  0  0  0  0
  9 30  1  0  0  0  0
  9 31  1  0  0  0  0
  9 34  2  0  0  0  0
 10 11  1  0  0  0  0
 10 12  1  0  0  0  0
 11 14  1  0  0  0  0
 12 15  1  0  0  0  0
 13 16  1  0  0  0  0
 13 17  1  0  0  0  0
 14 19  1  0  0  0  0
 15 19  1  0  0  0  0
 16 20  1  0  0  0  0
 17 21  1  0  0  0  0
 18 20  1  0  0  0  0
 18 21  1  0  0  0  0
 19 26  1  0  0  0  0
 20 25  1  0  0  0  0
 21 31  1  0  0  0  0
 22 25  1  0  0  0  0
 22 27  1  0  0  0  0
 22 28  1  0  0  0  0
 23 29  1  0  0  0  0
 24 35  1  0  0  0  0
 26 27  1  0  0  0  0
  1 36  1  0  0  0  0
  2 37  1  0  0  0  0
  3 38  1  0  0  0  0
  4 39  1  0  0  0  0
 10 40  1  0  0  0  0
 10 41  1  0  0  0  0
 11 42  1  0  0  0  0
 11 43  1  0  0  0  0
 12 44  1  0  0  0  0
 12 45  1  0  0  0  0
 13 46  1  0  0  0  0
 13 47  1  0  0  0  0
 14 48  1  0  0  0  0
 14 49  1  0  0  0  0
 15 50  1  0  0  0  0
 15 51  1  0  0  0  0
 16 52  1  0  0  0  0
 16 53  1  0  0  0  0
 17 54  1  0  0  0  0
 17 55  1  0  0  0  0
 18 56  1  0  0  0  0
 18 57  1  0  0  0  0
 19 58  1  0  0  0  0
 20 59  1  0  0  0  0
 21 60  1  0  0  0  0
 23 61  1  0  0  0  0
 23 62  1  0  0  0  0
 23 63  1  0  0  0  0
 24 64  1  0  0  0  0
 24 65  1  0  0  0  0
 24 66  1  0  0  0  0
 25 67  1  0  0  0  0
 25 68  1  0  0  0  0
 26 69  1  0  0  0  0
 26 70  1  0  0  0  0
 27 71  1  0  0  0  0
 27 72  1  0  0  0  0
 28 73  1  0  0  0  0
 30 74  1  0  0  0  0
 31 75  1  0  0  0  0
 32 76  1  0  0  0  0
 32 77  1  0  0  0  0
M  CHG  1  32   1
M  END
> <OMEGA_C>
ckZEQX3UwMB+bK/BCNNPQeFfvsBU1aXB3TsyQRnFpsAu97DBMStJQYc1osDpwZ3Bw1QrQYTHicBh
BKnBhfE2QanFh8AKKp/BQDfUQAz/eUD5kZzBnIOLQObEb0BfR5rB7Q4OQQZCIMB+SKfBR3fXQDxm
KEGjJrHBhO6pQKQUI0HhSK3B7PDpQHoWFkGM+bfBoLCMQLrVBr/nRanBFY2pQDMDDkFHAKfBG57p
QKXhAEE/w7HBECiXQJDpXT8Eqa3BltCuQAUexL+gwqzBWTfmQLRjqD71bq3BzNC7QJQv90Dy0a3B
+AfEQDYqqz9Qz6nBEETbQDZziL+nIqnBRUK/QFw3ekCdl6fByWy5QOVrb0CMm4nBAORAQUxLK8A1
o5HBVInPQEx7LkDDc67BrjS7QOKfzkBG96bBWaPIQAYfp0B2ja3BjWqRQN0MdEDVSKXBWBGzQATr
ekALKJXBEiYZQaHRY8Ak/avBBw36QOgBAsAyKK3BWPlMQIRfZEAinJXBv7b6QO/LeUDYrZrBq/oS
Qbtl+b/t6J7BilkwQTROXcBDwZbBRT9JQbS/1sC+n7XBBdBdQZ0e0sA3qqTBx3MpQefxqMAFY7jB
8Q1SQUKhoMCaW5bBN3bWQGgXN0FW/bXB+DbsQKDwKkEdKKrBtm6eQC4QMEG2FajBL6mUQC2WIUGf
QbTBbYDWQFFMFEGgQb/BqYkFQa0FGkE9M7rB7qSLQJq8+L6ne6DBga9aQKDgWL/uWKzBcCS9QI/b
D0Gcv5/BOG+IQOIoCkFiuaTBJ930QBPp50AjCLfBGxf/QBM5AkFv0qrBO8+WQDg9VT+jdLbB9LB9
QDA/yj9b16rBRc+nQL+6IMB5J6nBRGiuQHufz7+9h7XBDjvnQKNBmT4COrbBBtICQeF5Iz99VqrB
CgmnQCNl8kBA0rTB2gjEQDWjsj+wBaHB5yrcQFxxhb8bV6DBwleaQEXEckCkf4XBATDIQEalMEAP
HIjBIYXOQAkekUCIj4bBMeI5Qb/JBcDjEIvB3kBNQapVVsAxbo7BxiFIQQ9j/7+lhZfB0JPyQEUS
M0BID6/BulnBQGXCM0CWerbBlojRQIad0kCEPKDBF6WaQIGhyUBW3aPBgivrQDYFqUANMa/BNOe2
QJMnp0BuJ7XBbih0QHATc0C9warBo9wSQT9qdsDu97LBXkn2QF7RF8B5nrTBbDlJQL8CY0AeoI3B
1BwYQBQGXUByBprBPvxDQW6Tw8DvbK3B/v1QQdOsucDDnKTBwhUyQf0DqsAMyq/B2lFMQcy3lcDp
TZ7BntcsQY4zhsAXbanBu3o6QZoCd8DoqKDBcgfVQOeqdUCIp5zBUD+MQLzYb0B/HZrBjrcNQVLR
I8DVhqfBmafFQHI4JkHcUbXBWC3lQKrcFEHLDrnBfEu9QAhqJEHXO6nBgkmNQExaDr/nd6jBVAvU
QHPt/EBDZrbBRaOsQKgXDkELV6bBSAaWQFl6WD9tAq3BUDCvQOaoxr8/WqzBNwjlQN2jqT60La7B
emTLQKyy+EA1ParB1MHDQC8Nqj8m+6nBthLcQDRVhr/kb6nBwXu/QOaAeUARlqfBLRW7QIA6ckDO
lYnBJ1IzQfh+P8Bico/BhgvOQG47LkBTva7BdLu2QKa8zUB3QqfBxRDLQKBKp0BYFa3BEKCRQOyV
dUDcI6XBGoa0QMFfa0AuL5XB0sIaQaA1XsBo16zB9YD7QKCA/r/En63BW1xOQFcCb0AjQJXBIWH7
QAqwfUAT15rBqvwNQfyhGMCz1J3BrH03QVKRLsCGoZrBnLpHQXDX3sDHZLLB141eQZiqzcAAsaLB
CC4oQanqscB3lrbBS3RWQTD6jcBGlJfBojvTQAQTNkE7E7fBFDunQNpOJEElpLnB1ajpQMU0FkGf
wsHB8AgCQd41F0GjAbXBc1PbQNVkJ0FE5KTBn1ilQNttMEE/46bBXwOOQN70Ar9trZ/BGQxbQOXB
ZL+jIavBBQy2QGOG90AgzbrBBdPrQJTX5EDr0LjBnV6pQIn1DEGrmJ3B2yuNQOa7C0GQGqrBihqT
QGGHUD+OxrXBpMZ8QLtwxj96u6nBha2pQCjJIcBQiKjBU8asQBZ01L/hFrXBLBHjQA0njz5+9LbB
oaACQegqKT8D0KvBc+/pQCDS+0BU76XBNDPGQP8ZsT+dNqHBsL/eQNLOfb/BrKDBloScQNGAZ0Bq
boXBHnfSQOzaQUDb/obBBzHHQPA7mUANo4fBlB0xQdCXAsA0LIvB17wkQR5yZsB/sY7BJvBAQUJZ
YsDD94vBrtzwQPHzMkBP5K/B4969QGDVM0ArhrbB5y66QMvmyED6lZ7BKo6UQHYQz0DsVqnBGRDu
QO0Pq0B9EK3BS2q/QPKOpkCoYrXBswB0QMbWdkC4iKrB84cWQb5JacB3brTB+tj5QIXrDsCcXrXB
iMNLQAPeakAfRo3BU0sYQM2CckBGgpnBuWFFQW6evsAV4q7B7JFRQe0ZucBzlaXBk+cyQYzkpcB1
f7DBjx9LQR5Dm8CV2p3BjwAsQe2Ph8CO26jBsiw4Qce0gsC0M5/BhFbXQJa6eEC19ZzB5FOOQA4U
dEA34prBLfgMQSGRIsDZO6fBwcWkQBeJIEFMBa/BaqajQJ3CDUGDA7fBryK0QO0GGUF/86PBVUeL
QOHv9r6hFqnBn8zPQLa9AkFzy7fBDZrgQLmLDkEN2qTBoIyWQAmOaj/nVq3BwSSsQLJFwr/h2qzB
TgvlQHddkj6uzq3BYsDgQKrp9kB+tazB0G7EQJA5qz8z8anBHSTZQEc/jL92WanBzdjCQAmQfECj
CajB1Jq7QLUQZ0B2IorBwK02QcHcZcDSVozBULnQQFy/LUCwya7B7enGQHwA0UDD56fBF1/QQCZF
p0BaHq7BUcuUQIfyfUDL1KXB8+61QJKId0D+npXB9x4ZQYGYY8As5KvB+mv3QEVYBsDfKq3Bzc1R
QK46akDbWZbBBML9QI9heEDZ+ZrBh5oQQf3EAcC9iJ7BngkyQQxFTcBcQJfBljBKQWve1cBxzrTB
3OZfQeTJy8C0XqTBAcEpQeMnqsDEv7fBWbhUQXPclsDowJbBuL+6QGHlLEHSB7LBWGqEQHpMJ0FJ
RK7B9ciLQLH9AUHhU7TBxp6aQPDcE0H6877Brw62QHDfJkEvip7B6UCdQM1QDUHduKDBcvaKQPiq
6r50SqDBqdJWQBSsRL9SC6zBm+vMQIlE6UDQAb3BFMzmQOERDkE2TbvBfJ33QA2ZGkFNr6fBAFfq
QFPPCEF65ZzBR56UQNZiaD8+ILbBVPd+QNZp0j8zIarBg3CkQNXFH8BkVKnBkRSrQHezy7+XobXB
l9bkQPqpfz45mrbBFZkCQdYRED8L/qrB+wgBQRBS7EAhu63BedHFQHvCsz9KKqHBVhLaQGSihr89
j6DBplacQByqaUD0GobBi9LJQDBOJ0AyAInBZ+nQQDzyi0CJsobBefswQQ7AM8CN2obBO4kuQehB
kcDif4rB5wxIQT4MbsBqXYvBWrrzQAO3L0COrq/BZJ3BQAPxMkCatbbBNf3PQKu1zECHeJ/BaYSk
QJov2ECVbKjBjfnyQO6dpUCXra/BL/m+QExUqECRw7XB2HV7QCBvgkATT6vBkjETQfu+d8DW4bLB
YPPyQE8yH8BYdLTB2pNNQD5YZEAFZ47BJ9UcQGqWaEAB1prB+IxMQWSTrcAggK3B2qRLQV0awsCG
hKPB0xE8QVuQkcBHkrDBAyQ6QZQvu8DeqZzBOZkqQRBzicCPsanBrzgpQSFAn8CQq5/BoO3TQGUD
f0AiVJvBrVeLQFGQaUCvepnBGc4NQRbHIsAg76fB9vTXQPpGHUH2/LrBY+LuQDPiG0GmELDBRv6n
QLi3F0Hq6rnBczKQQF5Tu755sqjBalzpQKKGBUHHIKvBRiGiQG1bAUGS/LTBG7mZQB2egz9fPK3B
yCGyQNQxr78JfKzBY+boQILVBT/I0q3BNzq5QNW+/0Cq/6nB+fnGQH57wT+hqqnBlmnfQGgLY7/S
eKnBNnW/QG0EgkDqaqbB3+i4QOL3XkC9sIjBCWkXQfKCq8ChoI7BjjzRQINAPECb063B0DyzQOI5
00CU26TBhFLHQCUerkC9iqvBmJ6RQP54eUCxUKTBUZKyQKyickB4F5TBJeAaQezwWsDanq3ByoD+
QO5k6b/i863Bq2VMQCbAVkB9N5XBZjj6QJQvgkDhRZnB+oQQQXo3EsCSbZ7B2eQWQSvimsChbJnB
c+JZQc1Ns8BjzrLBHmxYQQZC18D3GKHBlMQ8QXUMgsCtSLjB7Io5QS9Jy8AyBpXBfxXbQJWlLUHu
H77B7grnQEn3EUGVk8DB/pcIQXEeH0EwMrHBwS/hQIvkJ0F9nqrBQGmYQBOmI0GtwLTBOx2ZQFID
GEE15MHBAXaQQH3to76u55/BhfdgQG7dMb/WdqvBau/4QKQ/80C+T7DBaGb4QDNDBUE4LKPB0pB/
QNR//EB22bPBPaGvQGaa6kATcLrBY4CYQLu+fD9ABrbBIIGBQMZa3j/BTKrBdCGsQCr1FcCyr6jB
gASwQOu+vL9KOrXBxRboQCroAD+jnrbBZmQEQWDqVz8QHqvBc5eqQI3GC0HTpaTBcBfIQJnewj8S
36DBzTfiQBmFXr97s6DBzZyZQIhEWEA/wITB5eTKQOjFIkAT6YfBRvnKQCeUiUBV4oTBw+QHQem2
pcBHvIrBe5oaQZIdzsCB2o7B1SEkQQVbm8DhFIrBfC/0QE1gQ0CcYa7BPwHDQFLKQ0Dm0bXBuFfC
QEuB00DT6JzB17+QQMsVzUDb/qPBrQfqQE5vs0BrKazBPBa5QFBarkAKl7PB2+l0QGMifUDj0KnB
acYYQTVyW8AQjbXBOL/+QILZ+b/U4rXBUKVHQFU7TUD7U43BLncYQCTqUUBk2pnB

> <OMEGA_E>
8NgzPgAaQD7QWo8+UI7NPg==

> <OMEGA_NBR>
     38130

$$$$
50253462
  -OEChem-04172616093D

 73 76  0     1  0  0  0  0  0999 V2000
   12.3777   -5.8257  -21.7009 C   0  0  0  0  0  0  0  0  0  0  0  0
   13.0860   -5.6314  -20.5065 C   0  0  0  0  0  0  0  0  0  0  0  0
   11.1996   -5.1019  -21.9394 C   0  0  0  0  0  0  0  0  0  0  0  0
   12.5975   -4.7364  -19.5410 C   0  0  0  0  0  0  0  0  0  0  0  0
   10.6957   -4.1838  -20.9915 C   0  0  0  0  0  0  0  0  0  0  0  0
   11.3990   -4.0243  -19.7487 C   0  0  0  0  0  0  0  0  0  0  0  0
    6.6830    3.7933  -19.6102 C   0  0  0  0  0  0  0  0  0  0  0  0
    4.4144    3.6564  -19.2686 C   0  0  0  0  0  0  0  0  0  0  0  0
    8.8189   -2.4531  -20.9697 C   0  0  0  0  0  0  0  0  0  0  0  0
    6.7857   10.4760  -22.0534 C   0  0  0  0  0  0  0  0  0  0  0  0
    5.3941   10.1593  -21.4768 C   0  0  0  0  0  0  0  0  0  0  0  0
    7.2790    9.3396  -22.9674 C   0  0  0  0  0  0  0  0  0  0  0  0
    4.3094   -0.5518  -21.2428 C   0  0  0  0  0  0  0  0  0  0  0  0
    5.4140    8.8280  -20.7155 C   0  0  0  0  0  0  0  0  0  0  0  0
    7.2935    7.9971  -22.2216 C   0  0  0  0  0  0  0  0  0  0  0  0
    4.6552    0.8483  -21.7681 C   0  0  0  0  0  0  0  0  0  0  0  0
    5.3553   -1.5688  -21.7034 C   0  0  0  0  0  0  0  0  0  0  0  0
    7.1125    0.2606  -21.8035 C   0  0  0  0  0  0  0  0  0  0  0  0
    5.8955    7.6845  -21.6312 C   0  0  0  0  0  0  0  0  0  0  0  0
    6.0782    1.2835  -21.3121 C   0  0  1  0  0  0  0  0  0  0  0  0
    6.7482   -1.1224  -21.2496 C   0  0  2  0  0  0  0  0  0  0  0  0
    5.9911    3.8496  -20.9684 C   0  0  2  0  0  0  0  0  0  0  0  0
    5.9003    3.6364  -17.2180 C   0  0  0  0  0  0  0  0  0  0  0  0
    6.4542    2.6790  -21.8690 C   0  0  0  0  0  0  0  0  0  0  0  0
    5.9122    6.3957  -20.8059 C   0  0  0  0  0  0  0  0  0  0  0  0
    6.2836    5.1798  -21.6814 C   0  0  0  0  0  0  0  0  0  0  0  0
    4.5651    3.7688  -20.6454 N   0  0  0  0  0  0  0  0  0  0  0  0
    5.6809    3.5912  -18.6690 N   0  0  0  0  0  0  0  0  0  0  0  0
    9.4936   -3.5836  -21.3985 N   0  0  0  0  0  0  0  0  0  0  0  0
    7.7038   -2.1141  -21.7018 N   0  0  0  0  0  0  0  0  0  0  0  0
    3.2622    3.6158  -18.6509 N   0  3  0  0  0  0  0  0  0  0  0  0
    7.8864    3.8960  -19.3990 O   0  0  0  0  0  0  0  0  0  0  0  0
    9.2070   -1.7093  -20.0800 O   0  0  0  0  0  0  0  0  0  0  0  0
   10.8361   -3.1050  -18.3687 Cl  0  0  0  0  0  0  0  0  0  0  0  0
   12.7381   -6.5307  -22.4355 H   0  0  0  0  0  0  0  0  0  0  0  0
   14.0057   -6.1692  -20.3295 H   0  0  0  0  0  0  0  0  0  0  0  0
   10.6670   -5.2497  -22.8672 H   0  0  0  0  0  0  0  0  0  0  0  0
   13.1492   -4.5914  -18.6240 H   0  0  0  0  0  0  0  0  0  0  0  0
    6.7295   11.4071  -22.6364 H   0  0  0  0  0  0  0  0  0  0  0  0
    7.4972   10.6048  -21.2245 H   0  0  0  0  0  0  0  0  0  0  0  0
    5.0962   10.9644  -20.7890 H   0  0  0  0  0  0  0  0  0  0  0  0
    4.6680   10.0935  -22.3006 H   0  0  0  0  0  0  0  0  0  0  0  0
    6.6090    9.2608  -23.8362 H   0  0  0  0  0  0  0  0  0  0  0  0
    8.2983    9.5712  -23.3103 H   0  0  0  0  0  0  0  0  0  0  0  0
    4.2848   -0.5302  -20.1433 H   0  0  0  0  0  0  0  0  0  0  0  0
    3.3220   -0.8488  -21.6259 H   0  0  0  0  0  0  0  0  0  0  0  0
    6.0951    8.9136  -19.8560 H   0  0  0  0  0  0  0  0  0  0  0  0
    4.3989    8.6012  -20.3577 H   0  0  0  0  0  0  0  0  0  0  0  0
    7.5768    7.1977  -22.9221 H   0  0  0  0  0  0  0  0  0  0  0  0
    8.0281    8.0458  -21.4043 H   0  0  0  0  0  0  0  0  0  0  0  0
    4.6177    0.8386  -22.8675 H   0  0  0  0  0  0  0  0  0  0  0  0
    3.9186    1.5685  -21.3825 H   0  0  0  0  0  0  0  0  0  0  0  0
    5.1263   -2.5517  -21.2660 H   0  0  0  0  0  0  0  0  0  0  0  0
    5.3348   -1.6421  -22.8008 H   0  0  0  0  0  0  0  0  0  0  0  0
    7.1079    0.2305  -22.9031 H   0  0  0  0  0  0  0  0  0  0  0  0
    8.1132    0.5482  -21.4487 H   0  0  0  0  0  0  0  0  0  0  0  0
    5.1807    7.5689  -22.4593 H   0  0  0  0  0  0  0  0  0  0  0  0
    6.1027    1.3200  -20.2130 H   0  0  0  0  0  0  0  0  0  0  0  0
    6.7589   -1.0726  -20.1508 H   0  0  0  0  0  0  0  0  0  0  0  0
    4.9507    3.4447  -16.6969 H   0  0  0  0  0  0  0  0  0  0  0  0
    6.6354    2.8688  -16.9345 H   0  0  0  0  0  0  0  0  0  0  0  0
    6.2795    4.6295  -16.9354 H   0  0  0  0  0  0  0  0  0  0  0  0
    7.5483    2.7299  -21.9706 H   0  0  0  0  0  0  0  0  0  0  0  0
    5.9882    2.7959  -22.8586 H   0  0  0  0  0  0  0  0  0  0  0  0
    6.6520    6.4960  -19.9981 H   0  0  0  0  0  0  0  0  0  0  0  0
    4.9146    6.2343  -20.3716 H   0  0  0  0  0  0  0  0  0  0  0  0
    7.3565    5.2274  -21.9194 H   0  0  0  0  0  0  0  0  0  0  0  0
    5.6993    5.2202  -22.6125 H   0  0  0  0  0  0  0  0  0  0  0  0
    3.8183    3.7910  -21.3101 H   0  0  0  0  0  0  0  0  0  0  0  0
    9.0349   -4.0671  -22.1439 H   0  0  0  0  0  0  0  0  0  0  0  0
    7.5471   -2.5689  -22.5785 H   0  0  0  0  0  0  0  0  0  0  0  0
    3.2315    3.5307  -17.6550 H   0  0  0  0  0  0  0  0  0  0  0  0
    2.4120    3.6699  -19.1745 H   0  0  0  0  0  0  0  0  0  0  0  0
  1  2  1  0  0  0  0
  1  3  2  0  0  0  0
  2  4  2  0  0  0  0
  3  5  1  0  0  0  0
  4  6  1  0  0  0  0
  5  6  2  0  0  0  0
  5 29  1  0  0  0  0
  6 34  1  0  0  0  0
  7 22  1  0  0  0  0
  7 28  1  0  0  0  0
  7 32  2  0  0  0  0
  8 27  1  0  0  0  0
  8 28  1  0  0  0  0
  8 31  2  0  0  0  0
  9 29  1  0  0  0  0
  9 30  1  0  0  0  0
  9 33  2  0  0  0  0
 10 11  1  0  0  0  0
 10 12  1  0  0  0  0
 11 14  1  0  0  0  0
 12 15  1  0  0  0  0
 13 16  1  0  0  0  0
 13 17  1  0  0  0  0
 14 19  1  0  0  0  0
 15 19  1  0  0  0  0
 16 20  1  0  0  0  0
 17 21  1  0  0  0  0
 18 20  1  0  0  0  0
 18 21  1  0  0  0  0
 19 25  1  0  0  0  0
 20 24  1  0  0  0  0
 21 30  1  0  0  0  0
 22 24  1  0  0  0  0
 22 26  1  0  0  0  0
 22 27  1  0  0  0  0
 23 28  1  0  0  0  0
 25 26  1  0  0  0  0
  1 35  1  0  0  0  0
  2 36  1  0  0  0  0
  3 37  1  0  0  0  0
  4 38  1  0  0  0  0
 10 39  1  0  0  0  0
 10 40  1  0  0  0  0
 11 41  1  0  0  0  0
 11 42  1  0  0  0  0
 12 43  1  0  0  0  0
 12 44  1  0  0  0  0
 13 45  1  0  0  0  0
 13 46  1  0  0  0  0
 14 47  1  0  0  0  0
 14 48  1  0  0  0  0
 15 49  1  0  0  0  0
 15 50  1  0  0  0  0
 16 51  1  0  0  0  0
 16 52  1  0  0  0  0
 17 53  1  0  0  0  0
 17 54  1  0  0  0  0
 18 55  1  0  0  0  0
 18 56  1  0  0  0  0
 19 57  1  0  0  0  0
 20 58  1  0  0  0  0
 21 59  1  0  0  0  0
 23 60  1  0  0  0  0
 23 61  1  0  0  0  0
 23 62  1  0  0  0  0
 24 63  1  0  0  0  0
 24 64  1  0  0  0  0
 25 65  1  0  0  0  0
 25 66  1  0  0  0  0
 26 67  1  0  0  0  0
 26 68  1  0  0  0  0
 27 69  1  0  0  0  0
 29 70  1  0  0  0  0
 30 71  1  0  0  0  0
 31 72  1  0  0  0  0
 31 73  1  0  0  0  0
M  CHG  1  31   1
M  END
> <OMEGA_C>
MgtGQR1susCEm63BOmBRQXA0tMBoDaTBwDEzQWJCo8DVg6/BRY9JQcKQl8DlU5zBiyErQf7hhcCD
7qfBQ2I2QRfHgMBi/Z3BPNvVQD7GckC+4ZzB2UKNQCwCakALJprBZhoNQTsAHcAHwqfBJiTZQJqd
J0FubbDBD5ysQGKMIkFz0KvBxO3oQCNvFUFAvbfBqOaJQFRADb9A8anBtz+tQJI/DUFHuaXBZGTp
QBzo/0DGxbHBIveUQCwpWT8qJa7BqV6rQO7NyL+poK3BP5njQElohT6Kba7Boae8QJrn9UCmDK3B
lYDCQE9KpD8pf6rB9fDXQG6qj785/6nBMbe/QC5fdkBAv6fBDc+8QBq6aECEvonB6ojOQC11K0DA
867ByjC9QJ2pzECUcqbBPBPJQA3BpUB+c63B+RSSQAI0cUC/KaXBj8m1QOHWZUAJWpXBxuUXQStZ
ZcAIMKvB24X2QFpNB8BGna3BXMdQQIBpZ0AENZXBy138QMBYeUA8MZvB708TQanL2r/fo6DBvmAt
QTe4RsAO85LBEc9LQVr70MDge7PBWxdgQbJpxcC9oqLB4asqQYv9p8Dx77bBUWNSQV/sksDc/ZTB
9lfXQHeDNkFdF7XBvujvQA+tKUG0y6nBPxSjQBhuL0HJT6bBpGCVQAB/IUGHZ7LBtHzTQBosFEGN
sL7BrcUEQYUjGUFpe7rB2RyJQAO8B79zJaHBfptUQMtJWb/nAa3BYgvDQCueDkH/2J7BfcOMQKae
CUGK3KLB73TyQIBT5kByYLfBQXMAQW67AEH9O6vBeMSTQKWwVj+T8LbBMcp6QP3EyD9ZD6vBpwqk
QIxPI8C8IKrBF7eqQHwv0r8QaLbBKXTjQKsAbD56ObfBes8BQQhUDD/glqvBosilQMM08kCtrLPB
gknDQPn0qD8ptKHBO0nYQJJMib/WNKHBFWyeQEl1XEBNk4XBglXUQKyaN0DDeYfBlfHIQMMklECm
e4fB6IvxQNW2LkDVw6/BuJ+/QAnwMkBb3rbBC93UQHrfz0AM/J/BGkSdQEF/x0AM+aLBV2jrQK9G
p0DuWq/BzWC2QDYMp0Bs5rTBbl50QBegckADe6rByY4QQQ8mgsC8JrHBcoHxQHhpJMCuoLTBJ9BO
QIX2YUBsPY3BhV0aQFHgakB1ZZnBS+NHQVXms8Afta3BAoJRQQOrr8DZnKPBsqw0QfJXnsDg66/B
jJZHQRnPlsDEqJvBoaQqQVexhMAsGajB8PMzQS8agsCfqZ3BHgjVQJoAcUAnaZzB1DWMQDquakCA
7JnBKkkNQRA0GsCMB6jBiwrVQIsiIUHfDLfB58L5QEVXGEGLGLDBshapQNeHHUHutrHBffyJQFOg
776U9qnBBUbyQEOsAEGrW63BnDqiQCu0BUE+Dq/Bwl2VQHjRaj+ua67BFG+rQFIKwL8CYq3BH+3j
QJkPqT4xbK7BKpzGQNwN/EDktKfBdJDCQKzXrT8OoKrBbk3YQPQDh7+v4KnBQ2S/QALBekCNS6fB
SgG7QATXYkBKX4nB0EPOQPS9MUBI4q7BTT+/QHgkzkACwqPBpeXIQMsoqkD3FKzBUKWRQCjWdEBZ
4aTB7Um0QMixbkC35ZTBuj8XQejZZMDcWavB+Cv2QMQhBMBglq3BNUBOQC6DYUAdNpXBLaP7QHgD
ckCrqJrB/VgVQXBEzr/0xqHBJiknQbWfVsD/j5LBvz9PQZyxx8AxwrPBpIJgQdN9v8Cy9aHBHXYt
Qc9xocD4u7fBfxlPQeuIk8Di65PB6uHZQFRmMkHfQbjBPXLVQJ3yGEHq1r7BWQoMQULlGUGPf7TB
FY/7QKajIUFFo6jBZ4KnQCTrJkEOSKrBM7yPQDDcIkHuNLfBeu+IQCqf1r4BLaHB2OJUQEY/Rb9m
B63BeHjyQNNU7kB3w7TBqfQFQYgY9kA8BqjBSlWDQBOoA0EO96rBllmiQKWP+EDsfLbBnOGUQJfd
YD/cNrfBrTF7QBwF0z81nKvBkeqjQBL8HcAWp6nB8MCqQDeKzb8CJLbBlP/jQHGxkz5dN7fBYuwB
QV4FID91j6vB5tjGQMCCCEFuo6DBysfCQPhlsT8E1KHBghrZQIQfgL8rF6HB7e6bQON5Y0DlPIXB
Z/zKQCMkJUBw9YfBiyTPQMCBi0CwR4bBlTjxQOyrNUA6y6/BG+6+QH3KOkBJubbBoOzTQAnayECS
wpzBu4KdQAdCy0BGWqHBBtPqQBDKq0AkZK7Bn760QJoOr0A8MbPBnxF0QA2pd0C2RKrBTVcPQXDo
gsAT9LDBbgnwQPD9IcC+frTB1SNLQDeaXECUPo3B5qYYQJtpX0BBk5nBsAdNQTe+qsBpLK7BNVFP
QQYxusBdq6PB2yA7QTC3kcB26LDBjZQ/QcMJscAU85vBkWorQVR/h8DPLqnBiIItQdA2mMAZm57B
dGnRQHmugEDb4Z7BT5uKQMJFbECVeJrBAQgOQfzuIcDBSqfBRoQBQTDXFUEjz6fBQlzaQFFlFEHo
zKDB8q8DQa9gAkGhWK/BU/WNQJmnB794baXBf6SxQE/YEEFusafBJcXeQHLn/0DkSLbBFKqSQGuF
Sj9DlKvBgSevQE2Zxr/rVKnBRYrhQChBtT5yea7Br621QKe/+kB/Xq/B05nAQOFDrz9CNKrBA9Pc
QPTWer+La6jBG3y3QJrhfEBQQqnBJy7AQAvGc0AEMYvB0AvGQCHELkBFGbDB4dm0QJKk0ECxyqjB
z0a8QMpAqEAIyq/BrBiLQPM5dEDVkaXBsgm0QBaBe0A1hpbBpO0ZQQPrXsC7z6zBcbn6QIEB+r+B
66zBFKdQQAMNW0Aj0pTBOUf4QKNWhUBAJJ7BIGwTQbRyBcB/jJ7B854ZQZPfksBOyJTBQP5YQf4S
ssDzIbTBpCRdQeoRzcAoh6HBDV85QSEthsA0AbnBR11BQaAnvcBC6JPBobYAQQGAJEGRqazBSqEP
QcCEFkH4j6LBGtLdQOXvBkE4MpvBBNDWQNBhI0GnRZzBb6MRQWquBEEAlrTBveoFQbud50B2iarB
GdOSQA/Qr74+15zBDkFbQLrwbr9MuqbB3U6WQBkiDkEiUaLBieSrQIpOH0F/f6zB6VbbQK5DDkF4
VbvBBFTiQHB540CUZbvBq4mMQE5aHD+3H7TBmJF2QBczwj/CfajBzsmsQKuLHcCubKTBvJCoQGZy
5r9vvrHBePvbQNZRPz57D7fBgwQBQUjaPz99Rq3BodmZQNbQ+kAEwrTBdYrGQCGVwz+xn6HBHjLk
QH/RT7/A65/BxiajQCtAcEDXO4bBeEzTQN5fOUBaDIrBXC7TQD71lUDM0YjBogfoQDMCN0DHJbLB
t96yQHo6LUDJebfBUR/OQPEr0kCLraLBM3qVQLrRzUBa3aTBQcXcQN+TqUAWKLPBeLqkQBkSqEBy
VLbBm4BiQN4QdEBqSarBWWcVQTfiacCLXLTBCNL2QGIJDsDDkbTBb2VUQB+zV0B12IzBPp0YQB5E
UUCJfJjBLbE1QYbF28AcyazBKdNHQZ5f08C5cKbBWlMnQcKFusCjPK/B8JtLQWCxqcAYkqLBYbgq
QaXpkMBqMqvBai09QX5FiMDy6qTBCYjPQDw2gUAhoZ3B50+HQFLadUAzLZrBr3wRQXuGKsB9fafB
QAjfQLS6KEGtS7DBAiGvQArAJUHiu63BCvXvQNUbFkEcLLfBi8efQEDwBL/y6J/BrDGnQN8yEEGZ
G6jBsUfoQBxzAEFUp7HB+u6bQJNWPz+V0abB24e/QPCzwb9u7aTBAh3nQJ4W1z5ox63BCiq4QLl+
+kAy5q7BDIbIQG9StD+GTajBT3DrQACVWL+F3KbBwt23QKXyfUDNVKjBAe25QJdSckB+QYrBtq3G
QH20LkD+7a7B9/ewQNDj0ED9hqjB/3G/QIJ4qEAjza7BC52KQKOyd0CQS6XBT1iwQESffkBKrpXB
6UMcQRxbYsDLQK7B1NcDQV6S4r/keKzBPWVGQC3cbEDS9pTBJHf2QCw4gkAYX5zBRFYSQf5yMMDD
sZ3BoVxDQbu3KMA6jaDBa9AyQYCx+8B2xK/Bb9dSQS7j7MB4iaTBvZsZQankwMB9PrTBL6JZQaNN
o8BQyJ3BrGHjQFPTN0Hdr7TBnS/xQOhYKUE2w6jBW4OkQCzQMkGqd6jBjbqcQDwzJkGGO7XBNVvf
QHMyFkGb7r7BdkEJQapCGEG6dbjBDB6rQOO9db5a4pfBYSyAQIE0f7+aRZ/Bv6u3QHo/EEHbVKDB
/JmEQDImDkHQ16bBkabyQOkO50CICbfB/Rv7QP6s/0CMOarBy+WOQPRc9D6+s67BmUWGQADmuj9i
3qLBO7TDQAWYF8BYfp/BZaOyQP/e7r8snazBxlLaQEDFFz4Gr7XBaVwDQeqRYz/tva7BHcqlQGbe
+EDhZLbBDmPVQP/W0j8tVqDBDnD5QFb/Eb8rGJ/BB+WbQFOjcUCEqoXBVr3KQIUdNUANJYnBLVHO
QGuCk0CQaofB5tXmQETFO0BQHbLBFzKwQAWBJUAzmrXBvUjDQC230kC5BqHB6auOQOfvzUCOsKbB
/sfhQGBCq0AEnLDB+jutQLWdpkBbUbbBxQRkQCspdUCGZqrBT2AZQQR3XMBKFrbB0KgDQbjd4L+T
eLTBWlBGQCW9a0Aj94zBxF4PQMoeZ0Bx/JjB

> <OMEGA_E>
oLfFPcD/Pz7wW7k+OCHdPg==

> <OMEGA_NBR>
     43020

$$$$
50169583
  -OEChem-04172616093D

 97 99  0     1  0  0  0  0  0999 V2000
   16.8145   10.5071  -18.2735 C   0  0  0  0  0  0  0  0  0  0  0  0
   15.5325   10.1506  -17.8070 C   0  0  0  0  0  0  0  0  0  0  0  0
   17.0122   11.7474  -18.9152 C   0  0  0  0  0  0  0  0  0  0  0  0
   15.0424   18.2884  -23.0658 C   0  0  0  0  0  0  0  0  0  0  0  0
   14.7168   19.4408  -22.3234 C   0  0  0  0  0  0  0  0  0  0  0  0
   14.4499   11.0379  -17.9733 C   0  0  0  0  0  0  0  0  0  0  0  0
   15.9294   12.6345  -19.0854 C   0  0  0  0  0  0  0  0  0  0  0  0
   14.4355   17.0543  -22.7613 C   0  0  0  0  0  0  0  0  0  0  0  0
   13.1851   18.1246  -20.9675 C   0  0  0  0  0  0  0  0  0  0  0  0
   13.7809   19.3652  -21.2648 C   0  0  0  0  0  0  0  0  0  0  0  0
   14.6479   12.2889  -18.6000 C   0  0  0  0  0  0  0  0  0  0  0  0
   13.4981   16.9591  -21.7109 C   0  0  0  0  0  0  0  0  0  0  0  0
    6.6886    8.7289  -15.3296 C   0  0  0  0  0  0  0  0  0  0  0  0
   13.4163   20.5684  -20.4651 C   0  0  0  0  0  0  0  0  0  0  0  0
    6.3130    7.3866  -15.8078 C   0  0  0  0  0  0  0  0  0  0  0  0
    9.4733   11.3958  -19.6120 C   0  0  0  0  0  0  0  0  0  0  0  0
    7.0683    9.2138  -19.3662 C   0  0  0  0  0  0  0  0  0  0  0  0
    5.0302    6.4367  -19.0931 C   0  0  0  0  0  0  0  0  0  0  0  0
   11.9856   15.3389  -20.4890 C   0  0  0  0  0  0  0  0  0  0  0  0
   10.4993    7.8047  -17.1163 C   0  0  0  0  0  0  0  0  0  0  0  0
   12.2469    7.2501  -18.8517 C   0  0  0  0  0  0  0  0  0  0  0  0
    4.6576    8.3480  -22.3213 C   0  0  0  0  0  0  0  0  0  0  0  0
    4.6495   10.4285  -20.8786 C   0  0  0  0  0  0  0  0  0  0  0  0
   13.4768   13.2325  -18.7977 C   0  0  0  0  0  0  0  0  0  0  0  0
   12.7915   12.9507  -20.1579 C   0  0  0  0  0  0  0  0  0  0  0  0
   10.8013    9.2907  -19.1964 C   0  0  0  0  0  0  0  0  0  0  0  0
    4.4847    5.8613  -16.6897 C   0  0  0  0  0  0  0  0  0  0  0  0
   10.4329   13.6951  -19.3295 C   0  0  0  0  0  0  0  0  0  0  0  0
    9.4240    9.9807  -19.0314 C   0  0  2  0  0  0  0  0  0  0  0  0
    6.1193    8.3975  -20.2423 C   0  0  2  0  0  0  0  0  0  0  0  0
    3.9352    5.9711  -18.1263 C   0  0  2  0  0  0  0  0  0  0  0  0
   10.8396    7.8419  -18.6261 C   0  0  0  0  0  0  0  0  0  0  0  0
    5.5105    9.2484  -21.3949 C   0  0  0  0  0  0  0  0  0  0  0  0
   11.5462   13.8610  -20.4184 C   0  0  1  0  0  0  0  0  0  0  0  0
    5.8083    9.8153  -15.2900 N   0  5  0  0  0  0  0  0  0  0  0  0
    7.8694    9.0736  -14.8878 N   0  0  0  0  0  0  0  0  0  0  0  0
    6.6310   10.8070  -14.7860 N   0  0  0  0  0  0  0  0  0  0  0  0
    7.8146   10.3807  -14.5530 N   0  0  0  0  0  0  0  0  0  0  0  0
   12.9265   15.6991  -21.4630 N   0  0  0  0  0  0  0  0  0  0  0  0
    4.9984    7.1617  -16.2183 N   0  0  0  0  0  0  0  0  0  0  0  0
   10.2328   12.3147  -18.9201 N   0  0  0  0  0  0  0  0  0  0  0  0
    8.4051    9.1929  -19.7127 N   0  0  0  0  0  0  0  0  0  0  0  0
    5.0813    7.7903  -19.4007 N   0  0  0  0  0  0  0  0  0  0  0  0
    3.4047    4.6572  -18.5517 N   0  3  0  0  0  0  0  0  0  0  0  0
   12.5762   20.4754  -19.5259 O   0  5  0  0  0  0  0  0  0  0  0  0
   13.9476   21.6797  -20.7312 O   0  0  0  0  0  0  0  0  0  0  0  0
    7.1496    6.4891  -15.8231 O   0  0  0  0  0  0  0  0  0  0  0  0
    8.8167   11.7147  -20.6009 O   0  0  0  0  0  0  0  0  0  0  0  0
    6.6564    9.8775  -18.4173 O   0  0  0  0  0  0  0  0  0  0  0  0
    5.8596    5.6415  -19.5279 O   0  0  0  0  0  0  0  0  0  0  0  0
   11.4899   16.1465  -19.7106 O   0  0  0  0  0  0  0  0  0  0  0  0
   11.0110   13.5105  -21.6982 O   0  0  0  0  0  0  0  0  0  0  0  0
   17.6453    9.8302  -18.1395 H   0  0  0  0  0  0  0  0  0  0  0  0
   15.3800    9.1977  -17.3222 H   0  0  0  0  0  0  0  0  0  0  0  0
   17.9934   12.0179  -19.2764 H   0  0  0  0  0  0  0  0  0  0  0  0
   15.7595   18.3515  -23.8709 H   0  0  0  0  0  0  0  0  0  0  0  0
   15.1832   20.3850  -22.5631 H   0  0  0  0  0  0  0  0  0  0  0  0
   13.4672   10.7611  -17.6211 H   0  0  0  0  0  0  0  0  0  0  0  0
   16.0795   13.5790  -19.5873 H   0  0  0  0  0  0  0  0  0  0  0  0
   14.6893   16.1754  -23.3354 H   0  0  0  0  0  0  0  0  0  0  0  0
   12.4750   18.0598  -20.1564 H   0  0  0  0  0  0  0  0  0  0  0  0
    9.4962    8.2265  -16.9555 H   0  0  0  0  0  0  0  0  0  0  0  0
   10.5204    6.7638  -16.7613 H   0  0  0  0  0  0  0  0  0  0  0  0
   11.2398    8.3972  -16.5589 H   0  0  0  0  0  0  0  0  0  0  0  0
   12.4886    7.2766  -19.9245 H   0  0  0  0  0  0  0  0  0  0  0  0
   12.9874    7.8426  -18.2944 H   0  0  0  0  0  0  0  0  0  0  0  0
   12.2680    6.2092  -18.4968 H   0  0  0  0  0  0  0  0  0  0  0  0
    5.2712    7.5112  -22.6864 H   0  0  0  0  0  0  0  0  0  0  0  0
    3.7978    7.9543  -21.7595 H   0  0  0  0  0  0  0  0  0  0  0  0
    4.2975    8.9388  -23.1764 H   0  0  0  0  0  0  0  0  0  0  0  0
    5.2578   11.0665  -20.2207 H   0  0  0  0  0  0  0  0  0  0  0  0
    4.2893   11.0207  -21.7327 H   0  0  0  0  0  0  0  0  0  0  0  0
    3.7896   10.0361  -20.3158 H   0  0  0  0  0  0  0  0  0  0  0  0
   12.7493   13.0849  -17.9860 H   0  0  0  0  0  0  0  0  0  0  0  0
   13.8392   14.2710  -18.7809 H   0  0  0  0  0  0  0  0  0  0  0  0
   13.5238   13.1212  -20.9607 H   0  0  0  0  0  0  0  0  0  0  0  0
   12.4666   11.8999  -20.1750 H   0  0  0  0  0  0  0  0  0  0  0  0
   11.0447    9.2500  -20.2683 H   0  0  0  0  0  0  0  0  0  0  0  0
   11.5578    9.8923  -18.6711 H   0  0  0  0  0  0  0  0  0  0  0  0
    3.6773    5.5296  -16.0203 H   0  0  0  0  0  0  0  0  0  0  0  0
    5.3013    5.1245  -16.6723 H   0  0  0  0  0  0  0  0  0  0  0  0
   10.7182   14.2840  -18.4454 H   0  0  0  0  0  0  0  0  0  0  0  0
    9.4860   14.0797  -19.7364 H   0  0  0  0  0  0  0  0  0  0  0  0
    9.1902   10.0450  -17.9585 H   0  0  0  0  0  0  0  0  0  0  0  0
    6.7055    7.5905  -20.7062 H   0  0  0  0  0  0  0  0  0  0  0  0
    3.1220    6.7118  -18.1336 H   0  0  0  0  0  0  0  0  0  0  0  0
   10.1052    7.2298  -19.1700 H   0  0  0  0  0  0  0  0  0  0  0  0
    6.3394    9.6627  -21.9876 H   0  0  0  0  0  0  0  0  0  0  0  0
   13.2327   14.9598  -22.0627 H   0  0  0  0  0  0  0  0  0  0  0  0
    4.3623    7.9329  -16.1913 H   0  0  0  0  0  0  0  0  0  0  0  0
   10.6773   12.0105  -18.0775 H   0  0  0  0  0  0  0  0  0  0  0  0
    8.6887    8.6062  -20.4712 H   0  0  0  0  0  0  0  0  0  0  0  0
    4.3699    8.3855  -19.0271 H   0  0  0  0  0  0  0  0  0  0  0  0
    2.6918    4.3630  -17.9151 H   0  0  0  0  0  0  0  0  0  0  0  0
    3.0188    4.7355  -19.4710 H   0  0  0  0  0  0  0  0  0  0  0  0
    4.1448    3.9848  -18.5571 H   0  0  0  0  0  0  0  0  0  0  0  0
   10.7305   12.6029  -21.6869 H   0  0  0  0  0  0  0  0  0  0  0  0
  1  2  1  0  0  0  0
  1  3  2  0  0  0  0
  2  6  2  0  0  0  0
  3  7  1  0  0  0  0
  4  5  1  0  0  0  0
  4  8  2  0  0  0  0
  5 10  2  0  0  0  0
  6 11  1  0  0  0  0
  7 11  2  0  0  0  0
  8 12  1  0  0  0  0
  9 10  1  0  0  0  0
  9 12  2  0  0  0  0
 10 14  1  0  0  0  0
 11 24  1  0  0  0  0
 12 39  1  0  0  0  0
 13 15  1  0  0  0  0
 13 35  1  0  0  0  0
 13 36  2  0  0  0  0
 14 45  1  0  0  0  0
 14 46  2  0  0  0  0
 15 40  1  0  0  0  0
 15 47  2  0  0  0  0
 16 29  1  0  0  0  0
 16 41  1  0  0  0  0
 16 48  2  0  0  0  0
 17 30  1  0  0  0  0
 17 42  1  0  0  0  0
 17 49  2  0  0  0  0
 18 31  1  0  0  0  0
 18 43  1  0  0  0  0
 18 50  2  0  0  0  0
 19 34  1  0  0  0  0
 19 39  1  0  0  0  0
 19 51  2  0  0  0  0
 20 32  1  0  0  0  0
 21 32  1  0  0  0  0
 22 33  1  0  0  0  0
 23 33  1  0  0  0  0
 24 25  1  0  0  0  0
 25 34  1  0  0  0  0
 26 29  1  0  0  0  0
 26 32  1  0  0  0  0
 27 31  1  0  0  0  0
 27 40  1  0  0  0  0
 28 34  1  0  0  0  0
 28 41  1  0  0  0  0
 29 42  1  0  0  0  0
 30 33  1  0  0  0  0
 30 43  1  0  0  0  0
 31 44  1  0  0  0  0
 34 52  1  0  0  0  0
 35 37  1  0  0  0  0
 36 38  1  0  0  0  0
 37 38  2  0  0  0  0
  1 53  1  0  0  0  0
  2 54  1  0  0  0  0
  3 55  1  0  0  0  0
  4 56  1  0  0  0  0
  5 57  1  0  0  0  0
  6 58  1  0  0  0  0
  7 59  1  0  0  0  0
  8 60  1  0  0  0  0
  9 61  1  0  0  0  0
 20 62  1  0  0  0  0
 20 63  1  0  0  0  0
 20 64  1  0  0  0  0
 21 65  1  0  0  0  0
 21 66  1  0  0  0  0
 21 67  1  0  0  0  0
 22 68  1  0  0  0  0
 22 69  1  0  0  0  0
 22 70  1  0  0  0  0
 23 71  1  0  0  0  0
 23 72  1  0  0  0  0
 23 73  1  0  0  0  0
 24 74  1  0  0  0  0
 24 75  1  0  0  0  0
 25 76  1  0  0  0  0
 25 77  1  0  0  0  0
 26 78  1  0  0  0  0
 26 79  1  0  0  0  0
 27 80  1  0  0  0  0
 27 81  1  0  0  0  0
 28 82  1  0  0  0  0
 28 83  1  0  0  0  0
 29 84  1  0  0  0  0
 30 85  1  0  0  0  0
 31 86  1  0  0  0  0
 32 87  1  0  0  0  0
 33 88  1  0  0  0  0
 39 89  1  0  0  0  0
 40 90  1  0  0  0  0
 41 91  1  0  0  0  0
 42 92  1  0  0  0  0
 43 93  1  0  0  0  0
 44 94  1  0  0  0  0
 44 95  1  0  0  0  0
 44 96  1  0  0  0  0
 52 97  1  0  0  0  0
M  CHG  3  35  -1  44   1  45  -1
M  END
> <OMEGA_C>
G4SGQUgdKEE4MJLB94R4QQVpIkG8dI7BBBmIQVn1O0FRUpfBf61wQZlOkkHFhrjBLHhrQdeGm0FP
lrLB8TJnQTybMEFOyY/Bo95+QR0nSkH6rpjBAPhmQTFviEE2F7bBLfZSQT//kEF4vafBZn5cQfXr
mkFAHqrBsV1qQYmfREGzzJTBI/hXQVSsh0Hsr63B3wjWQK2pC0H1RXXBT6lWQf2LpEF5uKPBtAPK
QEdf7EDW7HzBfJIXQT5VNkFr5ZzBvC/iQJtrE0Hw7ZrBVvegQDn5zUCmvpjBNsU/QTFsdUFg6aPB
HP0nQTDA+UAb7ojBSfNDQQgB6EBf0JbBdAuVQI2RBUEakrLBnMiUQArbJkFGB6fBJaFXQW24U0G0
YZbB96lMQQE2T0FJQ6HBG9IsQcqmFEEgkpnBh4KPQHePu0B0hIXBJO0mQfIeW0HooprBxcgWQc6w
H0FKQJjBWNHDQBZcBkEx8KHB4tp7QBcTv0C3ApHB+24tQQvx+kAsApXBzVWwQJX5E0HSKKvBTb04
QYjGXUH2WKPB2t25QFgLHUHRo3TBENL7QKYtEUE7NG7B5zDUQGbpLEF7k2zBIhH6QD4XJkEw2WjB
FtNOQZ0ve0EutKvBi/KfQP8s5UArv4HBtLkjQQEJRUFLXJfBfXsGQSoWE0Gis53BUZqiQOpJ+UCM
NJvB3+VZQMgHlUD7aZTBEjhJQafNo0EZNZzBUClfQQhwrUF52aXB3snkQBSnz0A4K33BBxENQY9v
O0GgzqTBQAHVQBoKHkGjVpPBBIK7QHCHtEA7OZzBfdY3QQ8sgUFkr53B9CwwQRMrWEH+la3BiymN
QZlIHUGhHZHBahR2QbApE0Hmk4rBkvKPQSxJQEH7NZrBuSZ8QdbPkkGf977BaO5yQYAUo0ErgbTB
yXlXQVEtLEH594zBwaKAQZdDWUHQspzBdQdrQTNngUHcrrrBqplHQWB6kEE6QKHBbvAXQeefA0HD
pIfBjFMoQb5w2EAxF4bBENYzQQ1bBkGreITBgdFHQdDZ6EBsZZ/BUsxPQeX2+kD6WpLBzUlEQYix
xkB/+ZPB6K2oQB1c8EDVfbXBSA9zQFCJ/kCKE67BwYSJQIIFD0FbabnBBUCoQIYQMUHpw6HB30GJ
QLNUMEGN3K3Bg4lyQNmTIEG8hqLBJf1LQdNbUUFK44/Bhm1dQe9VZEFeP5bBjGFYQW7wUUGbr6fB
TXdHQfRlPkFcZqHBPLcwQSMAFEF8JaLBn+w4QdRGHkF4XpXBj1hrQF7ysECIKYDBBKSpQIv7o0D2
YIXBzX0rQWqLZEEzkJPBwsYXQUdGYUEc5J3B9woTQVa4IEHtqo/BQJPWQHnl8kBCpqXB485HQLXG
1kCSEZHBvK4hQVJa50AtXJnBotzKQFiaGkGN5q/BQLlTQX9bb0F5gLDBVpiLQLfa/UDSh4HBQdYq
QeAqQEHBnpDB8gQLQfmyCUEXxaPB9tWLQOQqBkF8N5jBOkcsQOidi0ANUo/BjjNBQOOIl0CMxJvB
iKKEQEIHf0DtdJTBFbArQaGlSUHafq3BDn6GQUzhJ0FbPZLBR3d4QWQ3IkESgI7B0BaIQYO3O0ER
YJfBLMRcQYz+mkHDMKrBvZdrQRuZm0FRmLLBlitnQXJyMEEy04/BneB+QerxSUE6u5jBMvpSQRc5
kUH1qafB5OFmQTODiEGAArbBE9ZwQU1dkkEbmLjB4V1qQX11REEi15TBI+dXQb/Vh0E9la3BAPvV
QHakC0EvQ3XBLkuAQUgNk0EQfMHBu+bJQHdW7ECP5nzB0Z0XQT9RNkGH65zBrSTiQBFkE0GH7ZrB
i8igQIHyzUCwuZjB5tQ/QZyidUFz1qPBS+snQWWd+UCT8IjBJtpDQUm450AV05bBoeGUQPKEBUGE
i7LBKMKUQOjUJkHjBafB/alXQZafU0EHZZbBDLJMQQJLT0HFSqHBlsssQRWRFEFtlZnBSlKPQDSX
u0CPfoXBavYmQdcoW0Hbo5rBNcgWQS+qH0EbRZjBwLvDQLlRBkG57KHB63V7QEscv0Cd/JDBDVst
Qb/E+kDTBJXBND6wQFPsE0FSJqvBb8g4QXPsXUHsVKPBltu5QBgLHUHpo3TBf8j7QFojEUFCM27B
ojnUQAjmLEFilmzB8hX6QEsOJkEm3GjBKMpOQeV6e0GaoKvBy9GfQJsw5UDguoHBi8sjQWAGRUHO
Y5fBOnQGQXATE0HAt53BlIKiQLND+UCCLpvBDmBZQNcUlUA9YpTBg6OCQSfKikGLycbBtJeEQV3r
m0FvrcPBY6PkQF6Vz0CKJH3BJhoNQV5tO0GU06TBrf/UQEEBHkHKVJPBe0S7QPZztEBzNZzBsA04
QQlKgUHlkp3B9DcwQcxeWEG6lK3BDSGNQUMGHUGwK5HBdAB2QVj5EkH3norB2/CPQWYDQEFfRZrB
r+BYQTQVokE4pqXBogxzQREoo0FXf7TBXXFXQUYMLEFRAI3B7KaAQfoMWUFvv5zBcJtHQRrUkEF1
K6HBxM5qQT9tgUEfjLrB6uIXQT+YA0GjpofBWTgoQUVO2EApGYbBy8ozQR9DBkEGfITB97dHQVKJ
6EA6aJ/BQLlPQWSh+kBWXpLBziZEQWppxkB4+5PBPHeoQF448ECYdrXBcbxyQF5//kAiCq7BPVqJ
QOj2DkFjY7nB7UWoQE0KMUFYxaHBwDqJQFlMMEHd263Bd31yQCCVIEGcgqLBCAFMQas2UUH56Y/B
2YFdQYk4ZEHhNJbB3WtYQW0YUkEGtKfBtXhHQah9PkGSfaHBw7EwQQjnE0GaKKLBMes4QVQqHkGO
YZXB+vNqQIkFsUDYIoDBk2upQDj6o0DpWoXBAXwrQdSNZEHjjJPBTM4XQRlLYUFv5Z3BKQoTQc21
IEHlr4/Bg3bWQAvJ8kCyoaXB/npHQEPZ1kCpC5HBY5QhQfo650AhXpnBGMTKQMeFGkHt5q/BNapT
QaSzb0FTdrDB+3+LQEbl/UDGg4HBjfUqQZIhQEEKq5DBo/gKQWG2CUGDzKPB6M2LQL4tBkHALpjB
mb0rQOG1i0CWSY/BPatAQJOWl0CpvJvB0leEQDIQf0DqbJTBfL0rQX7YSUETg63B

> <OMEGA_E>
hq2NP7zvjT8=

> <OMEGA_NBR>
      7762

$$$$
50125053
  -OEChem-04172616093D

 94 96  0     1  0  0  0  0  0999 V2000
    6.1364   14.4219  -17.9394 C   0  0  0  0  0  0  0  0  0  0  0  0
    6.4233   15.2087  -19.0743 C   0  0  0  0  0  0  0  0  0  0  0  0
    7.1809   13.7758  -17.2475 C   0  0  0  0  0  0  0  0  0  0  0  0
   15.5370   18.9497  -21.0155 C   0  0  0  0  0  0  0  0  0  0  0  0
   15.0116   19.6723  -22.1040 C   0  0  0  0  0  0  0  0  0  0  0  0
    7.7553   15.3536  -19.5159 C   0  0  0  0  0  0  0  0  0  0  0  0
    8.5132   13.9262  -17.6828 C   0  0  0  0  0  0  0  0  0  0  0  0
   14.9771   17.7094  -20.6544 C   0  0  0  0  0  0  0  0  0  0  0  0
   13.3610   17.9166  -22.4654 C   0  0  0  0  0  0  0  0  0  0  0  0
   13.9165   19.1580  -22.8396 C   0  0  0  0  0  0  0  0  0  0  0  0
    8.8084   14.7263  -18.8122 C   0  0  0  0  0  0  0  0  0  0  0  0
   13.8856   17.1793  -21.3762 C   0  0  0  0  0  0  0  0  0  0  0  0
    6.6480    8.7081  -14.8750 C   0  0  0  0  0  0  0  0  0  0  0  0
   13.3460   19.9058  -23.9939 C   0  0  0  0  0  0  0  0  0  0  0  0
    6.1909    7.4135  -15.4082 C   0  0  0  0  0  0  0  0  0  0  0  0
    7.1722    9.0428  -19.6077 C   0  0  0  0  0  0  0  0  0  0  0  0
    9.5168   11.4995  -20.3546 C   0  0  0  0  0  0  0  0  0  0  0  0
    5.1488    6.6072  -18.8268 C   0  0  0  0  0  0  0  0  0  0  0  0
   12.3583   15.1640  -21.5250 C   0  0  0  0  0  0  0  0  0  0  0  0
   10.4084    8.1188  -17.5083 C   0  0  0  0  0  0  0  0  0  0  0  0
   12.0904    7.3067  -19.2095 C   0  0  0  0  0  0  0  0  0  0  0  0
    4.7056    8.2530  -22.5355 C   0  0  0  0  0  0  0  0  0  0  0  0
    4.9216   10.3786  -21.1702 C   0  0  0  0  0  0  0  0  0  0  0  0
   10.2467   14.8575  -19.3051 C   0  0  0  0  0  0  0  0  0  0  0  0
   10.7640    9.3939  -19.7187 C   0  0  0  0  0  0  0  0  0  0  0  0
    4.3153    6.0851  -16.4800 C   0  0  0  0  0  0  0  0  0  0  0  0
    6.1703    8.2374  -20.4421 C   0  0  2  0  0  0  0  0  0  0  0  0
    9.4226   10.1602  -19.6192 C   0  0  2  0  0  0  0  0  0  0  0  0
    3.9351    6.2518  -17.9636 C   0  0  2  0  0  0  0  0  0  0  0  0
   12.0432   13.8342  -20.8503 C   0  0  1  0  0  0  0  0  0  0  0  0
   10.7254    8.0009  -19.0207 C   0  0  0  0  0  0  0  0  0  0  0  0
    5.6470    9.0916  -21.6397 C   0  0  0  0  0  0  0  0  0  0  0  0
   10.5688   13.7847  -20.3791 C   0  0  1  0  0  0  0  0  0  0  0  0
    5.8817    9.8779  -14.9094 N   0  5  0  0  0  0  0  0  0  0  0  0
    7.8038    8.9273  -14.3056 N   0  0  0  0  0  0  0  0  0  0  0  0
    6.7364   10.7746  -14.2932 N   0  0  0  0  0  0  0  0  0  0  0  0
    7.8407   10.2291  -13.9467 N   0  0  0  0  0  0  0  0  0  0  0  0
   13.3771   15.9390  -20.9591 N   0  0  0  0  0  0  0  0  0  0  0  0
    4.9096    7.3260  -15.9522 N   0  0  0  0  0  0  0  0  0  0  0  0
    8.3708    9.3472  -20.2193 N   0  0  0  0  0  0  0  0  0  0  0  0
    5.0672    7.7540  -19.6040 N   0  0  0  0  0  0  0  0  0  0  0  0
   10.3418   12.4601  -19.8005 N   0  0  0  0  0  0  0  0  0  0  0  0
    3.3318    5.0015  -18.4686 N   0  3  0  0  0  0  0  0  0  0  0  0
   12.3759   19.4231  -24.6429 O   0  5  0  0  0  0  0  0  0  0  0  0
   13.8360   21.0202  -24.3207 O   0  0  0  0  0  0  0  0  0  0  0  0
    6.9280    6.4342  -15.3471 O   0  0  0  0  0  0  0  0  0  0  0  0
    6.9298    9.3776  -18.4500 O   0  0  0  0  0  0  0  0  0  0  0  0
    8.8566   11.7242  -21.3670 O   0  0  0  0  0  0  0  0  0  0  0  0
    6.1578    5.9061  -18.8134 O   0  0  0  0  0  0  0  0  0  0  0  0
   11.7111   15.4886  -22.5152 O   0  0  0  0  0  0  0  0  0  0  0  0
   12.3070   12.7821  -21.7835 O   0  0  0  0  0  0  0  0  0  0  0  0
    5.1165   14.3145  -17.6006 H   0  0  0  0  0  0  0  0  0  0  0  0
    5.6223   15.7009  -19.6059 H   0  0  0  0  0  0  0  0  0  0  0  0
    6.9604   13.1657  -16.3840 H   0  0  0  0  0  0  0  0  0  0  0  0
   16.3711   19.3477  -20.4566 H   0  0  0  0  0  0  0  0  0  0  0  0
   15.4456   20.6223  -22.3788 H   0  0  0  0  0  0  0  0  0  0  0  0
    7.9708   15.9451  -20.3934 H   0  0  0  0  0  0  0  0  0  0  0  0
    9.3118   13.4290  -17.1524 H   0  0  0  0  0  0  0  0  0  0  0  0
   15.3854   17.1595  -19.8193 H   0  0  0  0  0  0  0  0  0  0  0  0
   12.5216   17.5220  -23.0186 H   0  0  0  0  0  0  0  0  0  0  0  0
    9.4352    8.6138  -17.3746 H   0  0  0  0  0  0  0  0  0  0  0  0
   10.3731    7.1142  -17.0617 H   0  0  0  0  0  0  0  0  0  0  0  0
   11.1922    8.7122  -17.0147 H   0  0  0  0  0  0  0  0  0  0  0  0
   12.3145    7.2234  -20.2832 H   0  0  0  0  0  0  0  0  0  0  0  0
   12.8746    7.8999  -18.7163 H   0  0  0  0  0  0  0  0  0  0  0  0
   12.0555    6.3019  -18.7633 H   0  0  0  0  0  0  0  0  0  0  0  0
    5.2270    7.3420  -22.8645 H   0  0  0  0  0  0  0  0  0  0  0  0
    3.8074    7.9752  -21.9644 H   0  0  0  0  0  0  0  0  0  0  0  0
    4.4124    8.8453  -23.4148 H   0  0  0  0  0  0  0  0  0  0  0  0
    5.5970   10.9695  -20.5340 H   0  0  0  0  0  0  0  0  0  0  0  0
    4.6288   10.9749  -22.0470 H   0  0  0  0  0  0  0  0  0  0  0  0
    4.0238   10.1048  -20.5966 H   0  0  0  0  0  0  0  0  0  0  0  0
   10.3869   15.8571  -19.7424 H   0  0  0  0  0  0  0  0  0  0  0  0
   10.9314   14.7305  -18.4536 H   0  0  0  0  0  0  0  0  0  0  0  0
   11.0049    9.2463  -20.7818 H   0  0  0  0  0  0  0  0  0  0  0  0
   11.5499   10.0009  -19.2455 H   0  0  0  0  0  0  0  0  0  0  0  0
    3.4121    5.8424  -15.9008 H   0  0  0  0  0  0  0  0  0  0  0  0
    5.0436    5.2664  -16.3836 H   0  0  0  0  0  0  0  0  0  0  0  0
    6.7008    7.3696  -20.8611 H   0  0  0  0  0  0  0  0  0  0  0  0
    9.1971   10.3469  -18.5588 H   0  0  0  0  0  0  0  0  0  0  0  0
    3.1998    7.0661  -18.0436 H   0  0  0  0  0  0  0  0  0  0  0  0
   12.6921   13.7246  -19.9689 H   0  0  0  0  0  0  0  0  0  0  0  0
    9.9463    7.3891  -19.4989 H   0  0  0  0  0  0  0  0  0  0  0  0
    6.5151    9.3920  -22.2448 H   0  0  0  0  0  0  0  0  0  0  0  0
    9.9099   13.9378  -21.2465 H   0  0  0  0  0  0  0  0  0  0  0  0
   13.8037   15.5543  -20.1406 H   0  0  0  0  0  0  0  0  0  0  0  0
    4.3584    8.1597  -15.9863 H   0  0  0  0  0  0  0  0  0  0  0  0
    8.5294    8.9853  -21.1379 H   0  0  0  0  0  0  0  0  0  0  0  0
    4.2147    8.2766  -19.5922 H   0  0  0  0  0  0  0  0  0  0  0  0
   10.8144   12.2351  -18.9485 H   0  0  0  0  0  0  0  0  0  0  0  0
    2.5381    4.7639  -17.9087 H   0  0  0  0  0  0  0  0  0  0  0  0
    3.0436    5.1302  -19.4175 H   0  0  0  0  0  0  0  0  0  0  0  0
    4.0054    4.2639  -18.4219 H   0  0  0  0  0  0  0  0  0  0  0  0
   12.2530   13.1224  -22.6687 H   0  0  0  0  0  0  0  0  0  0  0  0
  1  2  1  0  0  0  0
  1  3  2  0  0  0  0
  2  6  2  0  0  0  0
  3  7  1  0  0  0  0
  4  5  1  0  0  0  0
  4  8  2  0  0  0  0
  5 10  2  0  0  0  0
  6 11  1  0  0  0  0
  7 11  2  0  0  0  0
  8 12  1  0  0  0  0
  9 10  1  0  0  0  0
  9 12  2  0  0  0  0
 10 14  1  0  0  0  0
 11 24  1  0  0  0  0
 12 38  1  0  0  0  0
 13 15  1  0  0  0  0
 13 34  1  0  0  0  0
 13 35  2  0  0  0  0
 14 44  1  0  0  0  0
 14 45  2  0  0  0  0
 15 39  1  0  0  0  0
 15 46  2  0  0  0  0
 16 27  1  0  0  0  0
 16 40  1  0  0  0  0
 16 47  2  0  0  0  0
 17 28  1  0  0  0  0
 17 42  1  0  0  0  0
 17 48  2  0  0  0  0
 18 29  1  0  0  0  0
 18 41  1  0  0  0  0
 18 49  2  0  0  0  0
 19 30  1  0  0  0  0
 19 38  1  0  0  0  0
 19 50  2  0  0  0  0
 20 31  1  0  0  0  0
 21 31  1  0  0  0  0
 22 32  1  0  0  0  0
 23 32  1  0  0  0  0
 24 33  1  0  0  0  0
 25 28  1  0  0  0  0
 25 31  1  0  0  0  0
 26 29  1  0  0  0  0
 26 39  1  0  0  0  0
 27 32  1  0  0  0  0
 27 41  1  0  0  0  0
 28 40  1  0  0  0  0
 29 43  1  0  0  0  0
 30 33  1  0  0  0  0
 30 51  1  0  0  0  0
 33 42  1  0  0  0  0
 34 36  1  0  0  0  0
 35 37  1  0  0  0  0
 36 37  2  0  0  0  0
  1 52  1  0  0  0  0
  2 53  1  0  0  0  0
  3 54  1  0  0  0  0
  4 55  1  0  0  0  0
  5 56  1  0  0  0  0
  6 57  1  0  0  0  0
  7 58  1  0  0  0  0
  8 59  1  0  0  0  0
  9 60  1  0  0  0  0
 20 61  1  0  0  0  0
 20 62  1  0  0  0  0
 20 63  1  0  0  0  0
 21 64  1  0  0  0  0
 21 65  1  0  0  0  0
 21 66  1  0  0  0  0
 22 67  1  0  0  0  0
 22 68  1  0  0  0  0
 22 69  1  0  0  0  0
 23 70  1  0  0  0  0
 23 71  1  0  0  0  0
 23 72  1  0  0  0  0
 24 73  1  0  0  0  0
 24 74  1  0  0  0  0
 25 75  1  0  0  0  0
 25 76  1  0  0  0  0
 26 77  1  0  0  0  0
 26 78  1  0  0  0  0
 27 79  1  0  0  0  0
 28 80  1  0  0  0  0
 29 81  1  0  0  0  0
 30 82  1  0  0  0  0
 31 83  1  0  0  0  0
 32 84  1  0  0  0  0
 33 85  1  0  0  0  0
 38 86  1  0  0  0  0
 39 87  1  0  0  0  0
 40 88  1  0  0  0  0
 41 89  1  0  0  0  0
 42 90  1  0  0  0  0
 43 91  1  0  0  0  0
 43 92  1  0  0  0  0
 43 93  1  0  0  0  0
 51 94  1  0  0  0  0
M  CHG  3  34  -1  43   1  44  -1
M  END
> <OMEGA_C>
KV3EQDnAZkH5g4/B1ovNQNpWc0EUmJjBrcnlQJlpXEHP+onBr5d4QemYl0GsH6jBjS9wQc5gnUEU
1bDBlCv4QHGodUF+IJzBRDYIQdDRXkFmdo3BI6JvQcisjUE1PKXBn8ZVQUZVj0ELubPBL6peQZND
mUF5t7bBS+8MQciea0Faf5bBnyteQUlviUGNAqvBeLzUQHJUC0EpAG7BTIlVQQM/n0Fx87/BGhzG
QHY77UAdiHbBUoLlQHGvEEF/3JzByUQYQQv+N0FJ1qLBOsOkQJJu00BLnZbBp7tFQdafckFDM6zB
2IgmQc/mAUHxEIzBO3JBQcLQ6UARrZnBbZSWQBkMBEGlSLTBx32dQLsOJkGWXKnBgvIjQV24bUHt
cJrBazksQXhNFkHev53BuRaKQOW4wkAA14PB0XLFQDbMA0FUiaPB4MIWQTWQIkER9JzBgth7QBwP
yEBitY/By7BAQcdYXUF+zabBOJsrQYADAEFbKpjBFLS0QC53EUEkHq3BzhkpQRmOXEFkCKPBvza8
QOQLHkHZjG7BBLn5QCXWDkGl42TBg5DXQLxkLEEhsWTB1Ob6QDyqI0HJJV/BhwhWQVEGf0E+rKfB
1BudQNVu6kA3PH/Bp+4FQUWOFUEfwaHBPSaiQNYg+EDo1JzB83clQalcR0FxZ57BljtVQKAMoEDC
v5PBlQNGQZhim0GSJMXBaWBdQW4pqEHUkMLB5LHdQEzlzUCmjXXBIsHdQLEKFkGSmZPBrrQNQViW
O0Ga76rBBg3FQGT+vEDggZbBiGA7QSHRd0EtH7TBgOlEQVyDTEGCRK7BuLqjQCIIZUEOzozBG+qz
QLs2e0HI2JzBibveQIGmUkF7EoPB9PeCQQPImkEIp6PBKSF3QXP6pEHdB7PBshD/QEgff0G0JaPB
S/0UQQvdVkEEOInBdip2Qa1GiUH1jZ7BglhIQRotjEEnJrjBf/YWQQ3SCUEy/4rBRPglQYKn40Bc
fojBTBMzQRJlC0EYHojBZAhFQTYm50D8Q6LBMv5NQdLL/ED7upXBKuNAQTCpyUA/G5bBvkOnQG7x
6kB56rbBNq1zQPE0/0ALt6/BhjKNQFqGDUFwUbvBshqzQOKCL0G0RaTBMx+UQDGZL0EsYLDBSMOA
QFCtIUHHxaTBvDAmQaK2fUFs8J3BDecuQe+va0ESoZPB+BMwQcvwE0EcQabBgcw4QdEDIEHZ9pnB
TWBaQDv1ukCoaX7BI2WhQCGGqECuEYPBBm3WQAzU60B/46bBeicTQfyMJUF/eJTBqMlMQD4d4kA1
WZDBuRJLQdeXW0FXwJ/B/yMfQUtz7EDN/ZvBbXvQQNBFFkFp9bHB/44eQTYBX0Hg+KnBJdxcQZHe
eEHvH6HB+HeLQAKOAkHwx3/BlXgIQfTDD0FyGqnBm96GQAFtBEHcvJzBzwctQQPDQ0FvlpfBgW8i
QB9ymEDuRI/BW8pCQJYqpEAbV5vB7CuAQA1yiEAWYJPBaQxEQX71UUGVWbXBksn1QFgJk0Huo63B
eKoLQamvk0FmIKbB7QzfQGxhiUGd7a7BH1JfQdmvdUHnwMrBnoBsQdCFY0GpvMvB8PgQQS62ikFz
1p/BCuLpQJ1egEFltqjBI2tSQWRdeEHVncHBjdxfQQi4VkFdbrrB3NxsQTzcU0HijcPBHI8FQS8H
gUHCEaHB9I1SQX3uaEELXbnB+bzUQEy1CkHJ/W3BdLB6QVWKQEH5csTBr/vFQC457EAevnbBMq3j
QJRIEUE59ZzByqUWQc0tOUG6v6LB3VOjQA7800ChtJbBquNCQRy2YEF/FKfBDwsmQTMxAkHcn4zB
iKpAQTC360CEhJrBC0KTQGYHBUHPILTBH5aaQGjFJkF3BqnBq5QLQVxmbkFskprBZEkrQUBwF0Hk
H57B8JuJQPwYwkAF6IPBO0LDQEB4BEGdlKPB7r0VQTFvI0FIIJ3Bc655QA4nyEDXto/BEqozQbLI
aUFmn57BTNsqQQrhAEGIxZjBnL6xQFdVEkFyAa3BSrocQST0YEGqeKDB/BS8QLViHUEfEG7BdPj5
QCQiDkGlGWXBQaDXQA+fK0H+LWTByC77QIXeIkEnCV/Bc1xFQRu8bEE7drDBrMCcQJmU6UB0Ln/B
Cs0EQSShFkEi/aHBCGCgQM0J+UCjyJzBuJobQfPUSkFJhZzBG7FSQDdeoEB41pPBVc16QXzIMkFl
DL3B8x+DQRf6PUFKnczBG63dQM3tzECmK3bB3IvcQDcsFkGgmZPByVgTQSa2OkHGaKzBNqHDQKOR
vUDHyZbB5q1LQQN4T0HKcKXByy07QU2fZEGdG5TB2oHtQMbvmUENabLBRnQUQeYQm0FeMKXBYFTF
QDLjiEGHrbTBIxtfQfLKgEGdBNHBtl92QZSHYUEMwtLBgMkdQS08i0GyEJrBnb/YQIDjcUHSyqnB
1FZIQUMqg0H46cDBIRFgQfnSSkEqKrTBQn4WQdcMCkHjYIvBOo8lQfvn40BxPYnBWqoyQbGAC0HV
oYjBdBVEQZbZ6UA1I6PBnUlNQV1W/kBhhpbBfS5AQfY8y0D+IZfBn+OjQFUe7UA97LbB+bxtQHZn
AEGqd6/BYFGJQHqpDkGjD7vBc3GwQOgmMEGj96PBsqiQQEV2MEFt8K/Bm2t8QEE0IkF0WKTBTPoR
QRmFc0GlyJLBcHX6QKGGZEEOUZnBQxEvQZd7FUHQqabBBdM3QSkVIUERRJrB6upZQJX6uUCTbX7B
wwGhQF/op0CRT4PBZxzUQMtk7UA+FafBBkMSQZv7JUEwmJTB6IZKQC054kAILpDBvRwzQVRFe0F2
lJ/BvlIeQWp67kDmopzB9CXNQD1UF0GB7rHBakcZQXBKYUFfGanBm2o8QV/5eUFO4rDBawaLQOob
AkFdY3/B9g8HQSZfEUGedanBOhyFQPLgBEGPhZzBTqQeQe9WSEH/w5TBvGEgQCp7mECTTY/BnXE/
QJ7spEDDYZvB2t19QBjDiEBIn5PBgLVFQeWyWUGUkJTB

> <OMEGA_E>
FnWMP0ILmD8=

> <OMEGA_NBR>
     10997

$$$$
50134549
  -OEChem-04172616093D

 96 99  0     1  0  0  0  0  0999 V2000
    8.5730   18.3307  -22.1903 C   0  0  0  0  0  0  0  0  0  0  0  0
    9.5865   18.3787  -21.2108 C   0  0  0  0  0  0  0  0  0  0  0  0
    7.8035   17.1606  -22.3533 C   0  0  0  0  0  0  0  0  0  0  0  0
   15.8830   11.3538  -23.2180 C   0  0  0  0  0  0  0  0  0  0  0  0
   16.1301   11.8953  -24.4897 C   0  0  0  0  0  0  0  0  0  0  0  0
    9.8245   17.2606  -20.3863 C   0  0  0  0  0  0  0  0  0  0  0  0
    8.0455   16.0395  -21.5354 C   0  0  0  0  0  0  0  0  0  0  0  0
   14.9332   11.9456  -22.3682 C   0  0  0  0  0  0  0  0  0  0  0  0
   14.4559   13.6231  -24.0732 C   0  0  0  0  0  0  0  0  0  0  0  0
   15.4154   13.0311  -24.9272 C   0  0  0  0  0  0  0  0  0  0  0  0
    9.0468   16.0914  -20.5400 C   0  0  0  0  0  0  0  0  0  0  0  0
   14.2108   13.0958  -22.7851 C   0  0  0  0  0  0  0  0  0  0  0  0
   15.6705   13.5929  -26.2686 C   0  0  0  0  0  0  0  0  0  0  0  0
    6.6230    8.6537  -14.8805 C   0  0  0  0  0  0  0  0  0  0  0  0
    6.2104    7.3522  -15.4326 C   0  0  0  0  0  0  0  0  0  0  0  0
    7.1375    9.0796  -19.6116 C   0  0  0  0  0  0  0  0  0  0  0  0
    9.4168   11.6360  -20.3228 C   0  0  0  0  0  0  0  0  0  0  0  0
    5.1974    6.5589  -18.8619 C   0  0  0  0  0  0  0  0  0  0  0  0
   12.8625   13.5006  -20.6755 C   0  0  0  0  0  0  0  0  0  0  0  0
   10.3969    8.2343  -17.5258 C   0  0  0  0  0  0  0  0  0  0  0  0
   12.1009    7.5005  -19.2400 C   0  0  0  0  0  0  0  0  0  0  0  0
    4.6963    8.2316  -22.5472 C   0  0  0  0  0  0  0  0  0  0  0  0
    4.8341   10.3471  -21.1574 C   0  0  0  0  0  0  0  0  0  0  0  0
    9.3059   14.8755  -19.6752 C   0  0  0  0  0  0  0  0  0  0  0  0
   10.7125    9.5539  -19.7152 C   0  0  0  0  0  0  0  0  0  0  0  0
    4.3806    5.9760  -16.5230 C   0  0  0  0  0  0  0  0  0  0  0  0
    6.1639    8.2465  -20.4547 C   0  0  2  0  0  0  0  0  0  0  0  0
    9.3496   10.2815  -19.6069 C   0  0  2  0  0  0  0  0  0  0  0  0
    3.9957    6.1503  -18.0045 C   0  0  2  0  0  0  0  0  0  0  0  0
   11.8334   14.4549  -20.0381 C   0  0  1  0  0  0  0  0  0  0  0  0
   10.7153    8.1497  -19.0399 C   0  0  0  0  0  0  0  0  0  0  0  0
    5.6072    9.0941  -21.6423 C   0  0  0  0  0  0  0  0  0  0  0  0
   10.3841   13.9584  -20.3107 C   0  0  1  0  0  0  0  0  0  0  0  0
   14.8226   14.4894  -26.9271 N   0  5  0  0  0  0  0  0  0  0  0  0
    5.8160    9.7959  -14.8960 N   0  5  0  0  0  0  0  0  0  0  0  0
   16.7147   13.3194  -27.0061 N   0  0  0  0  0  0  0  0  0  0  0  0
    7.7715    8.9047  -14.3092 N   0  0  0  0  0  0  0  0  0  0  0  0
   15.5066   14.6802  -28.1149 N   0  0  0  0  0  0  0  0  0  0  0  0
    6.6394   10.7126  -14.2669 N   0  0  0  0  0  0  0  0  0  0  0  0
   16.5963   14.0117  -28.1581 N   0  0  0  0  0  0  0  0  0  0  0  0
    7.7629   10.2012  -13.9302 N   0  0  0  0  0  0  0  0  0  0  0  0
   13.2576   13.7632  -21.9922 N   0  0  0  0  0  0  0  0  0  0  0  0
    4.9325    7.2287  -15.9773 N   0  0  0  0  0  0  0  0  0  0  0  0
    8.3197    9.4482  -20.2232 N   0  0  0  0  0  0  0  0  0  0  0  0
    5.0783    7.7141  -19.6219 N   0  0  0  0  0  0  0  0  0  0  0  0
   10.2256   12.6097  -19.7598 N   0  0  0  0  0  0  0  0  0  0  0  0
    3.4354    4.8869  -18.5266 N   0  3  0  0  0  0  0  0  0  0  0  0
    6.9808    6.3982  -15.3861 O   0  0  0  0  0  0  0  0  0  0  0  0
    6.8891    9.3791  -18.4457 O   0  0  0  0  0  0  0  0  0  0  0  0
    8.7505   11.8612  -21.3313 O   0  0  0  0  0  0  0  0  0  0  0  0
    6.2292    5.8917  -18.8581 O   0  0  0  0  0  0  0  0  0  0  0  0
   13.2839   12.5523  -20.0206 O   0  0  0  0  0  0  0  0  0  0  0  0
   12.0792   14.5509  -18.6312 O   0  0  0  0  0  0  0  0  0  0  0  0
    8.3861   19.1909  -22.8161 H   0  0  0  0  0  0  0  0  0  0  0  0
   10.1805   19.2728  -21.0923 H   0  0  0  0  0  0  0  0  0  0  0  0
    7.0288   17.1238  -23.1050 H   0  0  0  0  0  0  0  0  0  0  0  0
   16.4253   10.4787  -22.8916 H   0  0  0  0  0  0  0  0  0  0  0  0
   16.8685   11.4418  -25.1344 H   0  0  0  0  0  0  0  0  0  0  0  0
   10.6015   17.2977  -19.6371 H   0  0  0  0  0  0  0  0  0  0  0  0
    7.4647   15.1388  -21.6694 H   0  0  0  0  0  0  0  0  0  0  0  0
   14.7510   11.5231  -21.3911 H   0  0  0  0  0  0  0  0  0  0  0  0
   13.9040   14.4884  -24.4094 H   0  0  0  0  0  0  0  0  0  0  0  0
    9.4092    8.6970  -17.3836 H   0  0  0  0  0  0  0  0  0  0  0  0
   10.3929    7.2221  -17.0950 H   0  0  0  0  0  0  0  0  0  0  0  0
   11.1628    8.8435  -17.0237 H   0  0  0  0  0  0  0  0  0  0  0  0
   12.3266    7.4407  -20.3150 H   0  0  0  0  0  0  0  0  0  0  0  0
   12.8670    8.1097  -18.7380 H   0  0  0  0  0  0  0  0  0  0  0  0
   12.0971    6.4883  -18.8094 H   0  0  0  0  0  0  0  0  0  0  0  0
    5.2508    7.3446  -22.8875 H   0  0  0  0  0  0  0  0  0  0  0  0
    3.8099    7.9139  -21.9786 H   0  0  0  0  0  0  0  0  0  0  0  0
    4.3801    8.8230  -23.4191 H   0  0  0  0  0  0  0  0  0  0  0  0
    5.4873   10.9557  -20.5148 H   0  0  0  0  0  0  0  0  0  0  0  0
    4.5181   10.9421  -22.0270 H   0  0  0  0  0  0  0  0  0  0  0  0
    3.9479   10.0329  -20.5865 H   0  0  0  0  0  0  0  0  0  0  0  0
    9.6534   15.2060  -18.6852 H   0  0  0  0  0  0  0  0  0  0  0  0
    8.3705   14.3073  -19.5646 H   0  0  0  0  0  0  0  0  0  0  0  0
   10.9587    9.4299  -20.7801 H   0  0  0  0  0  0  0  0  0  0  0  0
   11.4800   10.1758  -19.2314 H   0  0  0  0  0  0  0  0  0  0  0  0
    3.4859    5.6950  -15.9481 H   0  0  0  0  0  0  0  0  0  0  0  0
    5.1361    5.1811  -16.4373 H   0  0  0  0  0  0  0  0  0  0  0  0
    6.7251    7.4033  -20.8837 H   0  0  0  0  0  0  0  0  0  0  0  0
    9.1167   10.4466  -18.5446 H   0  0  0  0  0  0  0  0  0  0  0  0
    3.2331    6.9400  -18.0739 H   0  0  0  0  0  0  0  0  0  0  0  0
   11.9479   15.4452  -20.5030 H   0  0  0  0  0  0  0  0  0  0  0  0
    9.9546    7.5224  -19.5276 H   0  0  0  0  0  0  0  0  0  0  0  0
    6.4625    9.4341  -22.2446 H   0  0  0  0  0  0  0  0  0  0  0  0
   10.2238   13.9340  -21.3987 H   0  0  0  0  0  0  0  0  0  0  0  0
   12.7977   14.5344  -22.4324 H   0  0  0  0  0  0  0  0  0  0  0  0
    4.3529    8.0434  -15.9991 H   0  0  0  0  0  0  0  0  0  0  0  0
    8.4825    9.1214  -21.1542 H   0  0  0  0  0  0  0  0  0  0  0  0
    4.2094    8.2087  -19.6011 H   0  0  0  0  0  0  0  0  0  0  0  0
   10.7311   12.3786  -18.9285 H   0  0  0  0  0  0  0  0  0  0  0  0
    2.6501    4.6150  -17.9705 H   0  0  0  0  0  0  0  0  0  0  0  0
    3.1434    5.0184  -19.4739 H   0  0  0  0  0  0  0  0  0  0  0  0
    4.1338    4.1721  -18.4892 H   0  0  0  0  0  0  0  0  0  0  0  0
   12.6686   13.8554  -18.3641 H   0  0  0  0  0  0  0  0  0  0  0  0
  1  2  1  0  0  0  0
  1  3  2  0  0  0  0
  2  6  2  0  0  0  0
  3  7  1  0  0  0  0
  4  5  1  0  0  0  0
  4  8  2  0  0  0  0
  5 10  2  0  0  0  0
  6 11  1  0  0  0  0
  7 11  2  0  0  0  0
  8 12  1  0  0  0  0
  9 10  1  0  0  0  0
  9 12  2  0  0  0  0
 10 13  1  0  0  0  0
 11 24  1  0  0  0  0
 12 42  1  0  0  0  0
 13 34  1  0  0  0  0
 13 36  2  0  0  0  0
 14 15  1  0  0  0  0
 14 35  1  0  0  0  0
 14 37  2  0  0  0  0
 15 43  1  0  0  0  0
 15 48  2  0  0  0  0
 16 27  1  0  0  0  0
 16 44  1  0  0  0  0
 16 49  2  0  0  0  0
 17 28  1  0  0  0  0
 17 46  1  0  0  0  0
 17 50  2  0  0  0  0
 18 29  1  0  0  0  0
 18 45  1  0  0  0  0
 18 51  2  0  0  0  0
 19 30  1  0  0  0  0
 19 42  1  0  0  0  0
 19 52  2  0  0  0  0
 20 31  1  0  0  0  0
 21 31  1  0  0  0  0
 22 32  1  0  0  0  0
 23 32  1  0  0  0  0
 24 33  1  0  0  0  0
 25 28  1  0  0  0  0
 25 31  1  0  0  0  0
 26 29  1  0  0  0  0
 26 43  1  0  0  0  0
 27 32  1  0  0  0  0
 27 45  1  0  0  0  0
 28 44  1  0  0  0  0
 29 47  1  0  0  0  0
 30 33  1  0  0  0  0
 30 53  1  0  0  0  0
 33 46  1  0  0  0  0
 34 38  1  0  0  0  0
 35 39  1  0  0  0  0
 36 40  1  0  0  0  0
 37 41  1  0  0  0  0
 38 40  2  0  0  0  0
 39 41  2  0  0  0  0
  1 54  1  0  0  0  0
  2 55  1  0  0  0  0
  3 56  1  0  0  0  0
  4 57  1  0  0  0  0
  5 58  1  0  0  0  0
  6 59  1  0  0  0  0
  7 60  1  0  0  0  0
  8 61  1  0  0  0  0
  9 62  1  0  0  0  0
 20 63  1  0  0  0  0
 20 64  1  0  0  0  0
 20 65  1  0  0  0  0
 21 66  1  0  0  0  0
 21 67  1  0  0  0  0
 21 68  1  0  0  0  0
 22 69  1  0  0  0  0
 22 70  1  0  0  0  0
 22 71  1  0  0  0  0
 23 72  1  0  0  0  0
 23 73  1  0  0  0  0
 23 74  1  0  0  0  0
 24 75  1  0  0  0  0
 24 76  1  0  0  0  0
 25 77  1  0  0  0  0
 25 78  1  0  0  0  0
 26 79  1  0  0  0  0
 26 80  1  0  0  0  0
 27 81  1  0  0  0  0
 28 82  1  0  0  0  0
 29 83  1  0  0  0  0
 30 84  1  0  0  0  0
 31 85  1  0  0  0  0
 32 86  1  0  0  0  0
 33 87  1  0  0  0  0
 42 88  1  0  0  0  0
 43 89  1  0  0  0  0
 44 90  1  0  0  0  0
 45 91  1  0  0  0  0
 46 92  1  0  0  0  0
 47 93  1  0  0  0  0
 47 94  1  0  0  0  0
 47 95  1  0  0  0  0
 53 96  1  0  0  0  0
M  CHG  3  34  -1  35  -1  47   1
M  END
> <OMEGA_C>
2ioJQUKlkkHMhbHBHWIZQZ8Hk0Gkr6nBFbb5QOpIiUGm07LBviB+QSWpNUGEvrnBagqBQQBTPkHq
6sPBFDEdQbEVikE8F6PBdroAQdNQgEFqSKzBPe5uQUEhP0EZ8rLBZktnQSL4WUHZlcDBX6V2QUd/
UEHzasfB4r8QQTu7gEHVUaTBVV9jQXKIUUH0R7bBjrp6QXF8WUEHJtLB/u/TQGt1CkFpFm7BhLvG
QEVF60Dx63bBrGbkQCNGEUGR5JzBTasWQQEtOkEllaLB5FCmQJXi0UAg5ZbByMxNQUcCWEFhZ6XB
u1kmQX6/A0HhNIzBbZ1BQTkE8ECL65nBdEiWQLO0A0GYYLTB5bCaQNCNJUFtQqnB6uQUQScCbkG2
Zp3BNWYrQZPcGEG3uJ3B3C2MQB87v0ALL4TBRT7FQLLxA0FAo6PByZcVQf2AJEHh2pzBnrl/QCXP
xEAgCZDBgVU9QWRHZ0H2TaDBBXIrQfxkAkGoUZjBxm2zQGaBEUFxI63BLyUmQYtVX0FFfKLBRylt
QYbUZ0GpatfBaRy6QCq8HEEZVm7BuLeFQWgcVUF3DNjBPbD4QM15DkGX8mTB3xp4QUDiakFU6+DB
5nXUQMRmK0FQRWTBRMWEQe4vYEG0Q+HBDWr4QEE4I0Er4l7BOB9UQTU2XEEK8K/BwdadQLtR50An
o3/BlB0FQa0rF0EvyaHBc4GiQP3Z9kCS+ZzBGpwjQWrBSUEfFJ7BUN5bQNZhnECFNpTBXmLfQKu9
zEBsLXbBUnPcQPYQFkHNkJPB7AEMQVzHPUGPpqrBRlXHQIeIvEBe3ZbB9opUQSDWSEErKqDBekRB
QZPQaEG3DJXBpi0GQfGGmUFUh7bBe+MiQcAumkH6vKjBFOzgQIz9iEH91rjB8GaDQcGoJ0EAIrfB
l/KGQaIRN0EuE8nBpJ8pQcVhikHfGJ3BMN/uQKo4ckHgWq3B9ANsQbVeOEEGIavB4HZeQX/QZ0Fp
RsPB84sWQf0mC0GuEYvBdUkmQcQb50CKwojB9poyQQJ/DUF1MIjBnjlFQe8Z7kAIhaLBbt9NQUzB
AUGC55XB7Y1BQVegz0CXeZbBzwaoQFsH60CdGbfBzNVzQGc+/UAf1K/BoymMQCYrDUE9WrvB7pev
QHhKL0FOHqTB/ZOQQLoSL0FRN7DBgKp8QMeGIEEzsaTBK3QaQfVLc0FGe5XBtO0FQbPqZEE1hJzB
tFYvQd3gFkGiPabBBK43QQ/QIkHb2ZnBfBhfQA09tkBdK3/B8VqkQEPLpUCRf4PBJTTXQBHo7EDS
EafBBt4RQVQlJ0FCW5TBQOtOQFUU3kBvl5DBfSo/Qa4fd0EyBqTBJkYfQW238EB8OJzB3szOQPLx
FkH59LHBq5QjQZfxXkF3MKvBZ8NMQf+MaEF/dbPB6UqLQJmxAEEz/H/BIrgHQUTxEUHbO6nBk7OG
QNJWA0Ebz5zBirIrQd4ORkGVbZfBbZspQA2uk0CIw4/BBC1JQF6WoECkypvBxEeEQByChUDn6ZPB
hbJKQZWvXUGo6ZLB

> <OMEGA_E>
VjqiPw==

> <OMEGA_NBR>
     14710

$$$$
50137578
  -OEChem-04172616093D

103107  0     1  0  0  0  0  0999 V2000
    6.3248   15.9035  -16.9011 C   0  0  0  0  0  0  0  0  0  0  0  0
    6.6424   16.6975  -18.0218 C   0  0  0  0  0  0  0  0  0  0  0  0
    7.2133   14.8934  -16.4767 C   0  0  0  0  0  0  0  0  0  0  0  0
   15.4891   12.0867  -17.5004 C   0  0  0  0  0  0  0  0  0  0  0  0
   16.4531   13.1139  -17.5266 C   0  0  0  0  0  0  0  0  0  0  0  0
    7.8505   16.4871  -18.7144 C   0  0  0  0  0  0  0  0  0  0  0  0
    8.4250   14.6833  -17.1675 C   0  0  0  0  0  0  0  0  0  0  0  0
   14.2968   12.2144  -18.2428 C   0  0  0  0  0  0  0  0  0  0  0  0
   15.0213   14.4052  -19.0162 C   0  0  0  0  0  0  0  0  0  0  0  0
   16.2157   14.2817  -18.2837 C   0  0  0  0  0  0  0  0  0  0  0  0
    8.7530   15.4915  -18.2810 C   0  0  0  0  0  0  0  0  0  0  0  0
   14.0534   13.3713  -19.0175 C   0  0  0  0  0  0  0  0  0  0  0  0
   17.2021   15.3795  -18.3328 C   0  0  0  0  0  0  0  0  0  0  0  0
    6.5227    8.6398  -14.8300 C   0  0  0  0  0  0  0  0  0  0  0  0
    5.4770    7.7237  -15.3156 C   0  0  0  0  0  0  0  0  0  0  0  0
    6.9913    9.3017  -19.8411 C   0  0  0  0  0  0  0  0  0  0  0  0
    9.1263   11.8172  -20.1672 C   0  0  0  0  0  0  0  0  0  0  0  0
    5.5765    6.5745  -18.8842 C   0  0  0  0  0  0  0  0  0  0  0  0
   12.3730   14.4505  -20.5861 C   0  0  0  0  0  0  0  0  0  0  0  0
   12.1059    6.9817  -16.4574 C   0  0  0  0  0  0  0  0  0  0  0  0
   12.3318    6.7191  -17.9613 C   0  0  0  0  0  0  0  0  0  0  0  0
   10.7181    7.6076  -16.2043 C   0  0  0  0  0  0  0  0  0  0  0  0
   12.1573    8.0154  -18.7788 C   0  0  0  0  0  0  0  0  0  0  0  0
   10.5261    8.8958  -17.0309 C   0  0  0  0  0  0  0  0  0  0  0  0
   10.7565    8.6319  -18.5459 C   0  0  0  0  0  0  0  0  0  0  0  0
    5.0221    7.6567  -22.8016 C   0  0  0  0  0  0  0  0  0  0  0  0
    4.5873    9.8869  -21.6847 C   0  0  0  0  0  0  0  0  0  0  0  0
   10.0441   15.2723  -19.0474 C   0  0  0  0  0  0  0  0  0  0  0  0
   10.6284    9.9429  -19.3741 C   0  0  0  0  0  0  0  0  0  0  0  0
    3.8225    7.1610  -17.1528 C   0  0  0  0  0  0  0  0  0  0  0  0
    6.2702    8.2167  -20.6528 C   0  0  2  0  0  0  0  0  0  0  0  0
    9.1735   10.4767  -19.4250 C   0  0  2  0  0  0  0  0  0  0  0  0
    4.4332    6.0252  -18.0107 C   0  0  2  0  0  0  0  0  0  0  0  0
   10.9880   14.2608  -21.2371 C   0  0  1  0  0  0  0  0  0  0  0  0
    5.6512    8.7943  -21.9607 C   0  0  0  0  0  0  0  0  0  0  0  0
    9.8486   14.2254  -20.1782 C   0  0  1  0  0  0  0  0  0  0  0  0
   16.9081   16.6765  -18.7754 N   0  5  0  0  0  0  0  0  0  0  0  0
    6.9395    9.7803  -15.5253 N   0  5  0  0  0  0  0  0  0  0  0  0
   18.4582   15.2845  -17.9898 N   0  0  0  0  0  0  0  0  0  0  0  0
    7.1745    8.5187  -13.7040 N   0  0  0  0  0  0  0  0  0  0  0  0
   18.1367   17.2923  -18.6399 N   0  0  0  0  0  0  0  0  0  0  0  0
    7.8921   10.2868  -14.6595 N   0  0  0  0  0  0  0  0  0  0  0  0
   19.0285   16.4924  -18.1914 N   0  0  0  0  0  0  0  0  0  0  0  0
    8.0291    9.5611  -13.6144 N   0  0  0  0  0  0  0  0  0  0  0  0
   12.8570   13.4244  -19.7580 N   0  0  0  0  0  0  0  0  0  0  0  0
    4.8493    8.0117  -16.5236 N   0  0  0  0  0  0  0  0  0  0  0  0
    8.3364    9.4851  -20.1020 N   0  0  0  0  0  0  0  0  0  0  0  0
    5.2608    7.5502  -19.8229 N   0  0  0  0  0  0  0  0  0  0  0  0
    9.7700   12.8924  -19.5751 N   0  0  0  0  0  0  0  0  0  0  0  0
    4.8974    4.9181  -17.1419 N   0  3  0  0  0  0  0  0  0  0  0  0
    5.1537    6.7478  -14.6459 O   0  0  0  0  0  0  0  0  0  0  0  0
    6.4003    9.9738  -18.9987 O   0  0  0  0  0  0  0  0  0  0  0  0
    8.5019   11.9450  -21.2182 O   0  0  0  0  0  0  0  0  0  0  0  0
    6.7316    6.1819  -18.7344 O   0  0  0  0  0  0  0  0  0  0  0  0
   12.9881   15.4876  -20.8104 O   0  0  0  0  0  0  0  0  0  0  0  0
   10.7180   15.3229  -22.1563 O   0  0  0  0  0  0  0  0  0  0  0  0
    5.4008   16.0687  -16.3670 H   0  0  0  0  0  0  0  0  0  0  0  0
    5.9591   17.4671  -18.3494 H   0  0  0  0  0  0  0  0  0  0  0  0
    6.9656   14.2805  -15.6226 H   0  0  0  0  0  0  0  0  0  0  0  0
   15.6637   11.1992  -16.9103 H   0  0  0  0  0  0  0  0  0  0  0  0
   17.3717   13.0082  -16.9686 H   0  0  0  0  0  0  0  0  0  0  0  0
    8.0873   17.0889  -19.5794 H   0  0  0  0  0  0  0  0  0  0  0  0
    9.1022   13.9057  -16.8462 H   0  0  0  0  0  0  0  0  0  0  0  0
   13.5637   11.4217  -18.2192 H   0  0  0  0  0  0  0  0  0  0  0  0
   14.8392   15.3036  -19.5873 H   0  0  0  0  0  0  0  0  0  0  0  0
   12.1749    6.0288  -15.9121 H   0  0  0  0  0  0  0  0  0  0  0  0
   12.8824    7.6701  -16.0924 H   0  0  0  0  0  0  0  0  0  0  0  0
   13.3513    6.3338  -18.1104 H   0  0  0  0  0  0  0  0  0  0  0  0
   11.6031    5.9725  -18.3100 H   0  0  0  0  0  0  0  0  0  0  0  0
    9.9408    6.8819  -16.4857 H   0  0  0  0  0  0  0  0  0  0  0  0
   10.6237    7.8501  -15.1355 H   0  0  0  0  0  0  0  0  0  0  0  0
   12.9253    8.7407  -18.4720 H   0  0  0  0  0  0  0  0  0  0  0  0
   12.2763    7.7856  -19.8479 H   0  0  0  0  0  0  0  0  0  0  0  0
    9.5013    9.2673  -16.8832 H   0  0  0  0  0  0  0  0  0  0  0  0
   11.2443    9.6540  -16.6855 H   0  0  0  0  0  0  0  0  0  0  0  0
    9.9955    7.9197  -18.8974 H   0  0  0  0  0  0  0  0  0  0  0  0
    5.7788    6.8825  -22.9963 H   0  0  0  0  0  0  0  0  0  0  0  0
    4.1797    7.2152  -22.2490 H   0  0  0  0  0  0  0  0  0  0  0  0
    4.6605    8.0643  -23.7572 H   0  0  0  0  0  0  0  0  0  0  0  0
    5.0363   10.6940  -21.0872 H   0  0  0  0  0  0  0  0  0  0  0  0
    4.2254   10.2957  -22.6397 H   0  0  0  0  0  0  0  0  0  0  0  0
    3.7446    9.4466  -21.1315 H   0  0  0  0  0  0  0  0  0  0  0  0
   10.3652   16.2260  -19.4916 H   0  0  0  0  0  0  0  0  0  0  0  0
   10.8178   14.9121  -18.3533 H   0  0  0  0  0  0  0  0  0  0  0  0
   11.2698   10.7116  -18.9184 H   0  0  0  0  0  0  0  0  0  0  0  0
   10.9670    9.7449  -20.4018 H   0  0  0  0  0  0  0  0  0  0  0  0
    3.1914    7.7896  -17.7983 H   0  0  0  0  0  0  0  0  0  0  0  0
    3.2045    6.7114  -16.3616 H   0  0  0  0  0  0  0  0  0  0  0  0
    7.0221    7.4707  -20.9497 H   0  0  0  0  0  0  0  0  0  0  0  0
    8.8166   10.6264  -18.3953 H   0  0  0  0  0  0  0  0  0  0  0  0
    3.6465    5.6449  -18.6789 H   0  0  0  0  0  0  0  0  0  0  0  0
   10.9875   13.2990  -21.7709 H   0  0  0  0  0  0  0  0  0  0  0  0
    6.4621    9.2475  -22.5498 H   0  0  0  0  0  0  0  0  0  0  0  0
    8.9005   14.4480  -20.6897 H   0  0  0  0  0  0  0  0  0  0  0  0
   12.2694   12.6186  -19.6839 H   0  0  0  0  0  0  0  0  0  0  0  0
    5.1123    8.8525  -16.9969 H   0  0  0  0  0  0  0  0  0  0  0  0
    8.7635    8.9050  -20.7957 H   0  0  0  0  0  0  0  0  0  0  0  0
    4.3019    7.8095  -19.9376 H   0  0  0  0  0  0  0  0  0  0  0  0
   10.2054   12.7503  -18.6861 H   0  0  0  0  0  0  0  0  0  0  0  0
    4.1335    4.5848  -16.5892 H   0  0  0  0  0  0  0  0  0  0  0  0
    5.2478    4.1734  -17.7098 H   0  0  0  0  0  0  0  0  0  0  0  0
    5.6244    5.2491  -16.5403 H   0  0  0  0  0  0  0  0  0  0  0  0
   11.4322   15.9491  -22.1360 H   0  0  0  0  0  0  0  0  0  0  0  0
  1  2  1  0  0  0  0
  1  3  2  0  0  0  0
  2  6  2  0  0  0  0
  3  7  1  0  0  0  0
  4  5  1  0  0  0  0
  4  8  2  0  0  0  0
  5 10  2  0  0  0  0
  6 11  1  0  0  0  0
  7 11  2  0  0  0  0
  8 12  1  0  0  0  0
  9 10  1  0  0  0  0
  9 12  2  0  0  0  0
 10 13  1  0  0  0  0
 11 28  1  0  0  0  0
 12 45  1  0  0  0  0
 13 37  1  0  0  0  0
 13 39  2  0  0  0  0
 14 15  1  0  0  0  0
 14 38  1  0  0  0  0
 14 40  2  0  0  0  0
 15 46  1  0  0  0  0
 15 51  2  0  0  0  0
 16 31  1  0  0  0  0
 16 47  1  0  0  0  0
 16 52  2  0  0  0  0
 17 32  1  0  0  0  0
 17 49  1  0  0  0  0
 17 53  2  0  0  0  0
 18 33  1  0  0  0  0
 18 48  1  0  0  0  0
 18 54  2  0  0  0  0
 19 34  1  0  0  0  0
 19 45  1  0  0  0  0
 19 55  2  0  0  0  0
 20 21  1  0  0  0  0
 20 22  1  0  0  0  0
 21 23  1  0  0  0  0
 22 24  1  0  0  0  0
 23 25  1  0  0  0  0
 24 25  1  0  0  0  0
 25 29  1  0  0  0  0
 26 35  1  0  0  0  0
 27 35  1  0  0  0  0
 28 36  1  0  0  0  0
 29 32  1  0  0  0  0
 30 33  1  0  0  0  0
 30 46  1  0  0  0  0
 31 35  1  0  0  0  0
 31 48  1  0  0  0  0
 32 47  1  0  0  0  0
 33 50  1  0  0  0  0
 34 36  1  0  0  0  0
 34 56  1  0  0  0  0
 36 49  1  0  0  0  0
 37 41  1  0  0  0  0
 38 42  1  0  0  0  0
 39 43  1  0  0  0  0
 40 44  1  0  0  0  0
 41 43  2  0  0  0  0
 42 44  2  0  0  0  0
  1 57  1  0  0  0  0
  2 58  1  0  0  0  0
  3 59  1  0  0  0  0
  4 60  1  0  0  0  0
  5 61  1  0  0  0  0
  6 62  1  0  0  0  0
  7 63  1  0  0  0  0
  8 64  1  0  0  0  0
  9 65  1  0  0  0  0
 20 66  1  0  0  0  0
 20 67  1  0  0  0  0
 21 68  1  0  0  0  0
 21 69  1  0  0  0  0
 22 70  1  0  0  0  0
 22 71  1  0  0  0  0
 23 72  1  0  0  0  0
 23 73  1  0  0  0  0
 24 74  1  0  0  0  0
 24 75  1  0  0  0  0
 25 76  1  0  0  0  0
 26 77  1  0  0  0  0
 26 78  1  0  0  0  0
 26 79  1  0  0  0  0
 27 80  1  0  0  0  0
 27 81  1  0  0  0  0
 27 82  1  0  0  0  0
 28 83  1  0  0  0  0
 28 84  1  0  0  0  0
 29 85  1  0  0  0  0
 29 86  1  0  0  0  0
 30 87  1  0  0  0  0
 30 88  1  0  0  0  0
 31 89  1  0  0  0  0
 32 90  1  0  0  0  0
 33 91  1  0  0  0  0
 34 92  1  0  0  0  0
 35 93  1  0  0  0  0
 36 94  1  0  0  0  0
 45 95  1  0  0  0  0
 46 96  1  0  0  0  0
 47 97  1  0  0  0  0
 48 98  1  0  0  0  0
 49 99  1  0  0  0  0
 50100  1  0  0  0  0
 50101  1  0  0  0  0
 50102  1  0  0  0  0
 56103  1  0  0  0  0
M  CHG  3  37  -1  38  -1  50   1
M  END
> <OMEGA_C>
GmXKQLZ0fkFgNYfBOI7UQHmUhUG6LJDBINPmQC5LbkFX0IPBSdN3QQBjQUHQAIzB6J+DQbDSUUFz
NozBnDf7QI7lg0Eet5XB9cwGQfbuakH1VonBmL9kQShuQ0FB8ZHBMFdwQa17ZkEvIZjBz7mBQdKB
ZEH+RJLBNAwMQWHdd0FsP5LB6NpgQeDwVUHHI5jB9Z2JQZwSdkGYqZLB/bnQQG08CkHRR23B7kOv
QCUo90DKDHXB/bjfQKfTFEF+up7BNQUSQSQTPUFeVqHBy3KyQAti0kDHEpfBq/dFQRw1Z0FVsKTB
zbFBQa5p30DIqIPBOE9FQbIC10CqsI/BUn0rQbNx80BsooHBPIRCQTc/AEHxOpbB7GooQQVVDkEy
P4jBzRosQTEcCkEUXpTBQrWgQOoD9UCvabbBD8uSQN0wHkE8eq3BmbQgQXFbdEEAYZjBzw0qQU8W
H0E3/prBRqN0QPMm5UDZOInBb6XIQKJ3A0EDOaXBlMYSQbOgJ0FVZpvBytyNQELOwEDuFZDBxc4v
QScsZEGR5anBZta0QHm1DEFvr6/B2ZMdQSObY0HqbKHB0UOHQWlphUENNJbBwRDeQCV8HEG9Z3jB
Z6qTQVCNdEEO64/B2ZXlQIlMCEGNQ1vB5xeRQapWikGUHpXBOIz8QJ6WJEEhjWrBRzqYQYfwg0EU
iJHBEncAQWL6GEHE1FnBErZNQXjKVkFlEJ7BeS2bQB8wAEFMMITB2GEFQQ/DF0H+0KDBsVioQFCb
8UBRlZ7B4FEcQS1HTkHFmZzBY7ecQGZhnUCMIonBfOukQL/t10CXVWrBJ8/MQNyUH0FK/ZfBowcI
QdIeP0HnvqnBEWnXQOzRxUAH4JXBZc9PQSXNd0Goe6bB+nwrQcAqdUEtQLHBR9OsQL6MgEGa74LB
VLG+QK68i0GIy5LBCObeQPx8ZEFR9nnBWp56QbsvM0FBSIfBR/mKQckhUEG4v4fBpGUBQQ22iEGS
opzBk6IRQd59XkEWxYbBuQRZQUG/NkHnwJHBV21tQX7bdEHCspzBkcxCQfbrwEAlmH7BJR5OQSRx
9UBLvYDB+55VQYWuykAS4pDBNKY5QRUfv0DMepLBfA0fQd843ECy4oPBwvopQfQz+0AYK3LBEs5O
QeHZC0GXxpPBk2tEQZgj+UCAyJ7BawUYQdBGFEHlEIfBu+gzQat2GkHje4XBl+0fQdJt/UD1LZfB
Quy4QCA93EBd+LfBI8CFQPDi5kDv/bHBliKVQDkHAUGzDr7BQCmhQLcaK0GQsqjBeTaHQA27JEEE
HrXBCqhvQEwlF0FBDanBAtglQenOgUG37pvBohUtQReYbkGm05LBSFE0QatiK0HaWJfB5ngvQTHr
G0HiNqPBqUBMQGhE+UDaYo7BvxVNQNjD1kCR5ILBH7XgQBYQ70DzmKfBrxANQaIFKkGQKZPBA2Bp
QPGitEBabpXBsMwvQb7IVEHmKq7BjsnOQJD1E0HtZbTBmGgOQe8qZ0F2hKXBkE9EQeHlSUGzeJ3B
IZijQLKjDUGg+YfBTzcMQRN7DkF+XabB3qiJQI7n+UArgJ/BH0kjQWcBTEEkfZXBBkaEQGi2kkC8
toTBG+6nQBiMhUCSrY3BR/uzQIn4p0CHUoTBIOo2QYMvf0GPFrHBcyLKQMptfkGiQIfB30TUQNmQ
hUGPOJDB3pnmQGVJbkGQ2oPB/veBQekOZUHtd5LB7NCDQfShUkFhU4zBYfD6QOrjg0HbwpXBgbEG
QV/xakHoYInBVfVwQdkkZ0F9ZJjBwPxkQW5bREEH4pHBCip4QYsxQkHU94vBbu0LQf3ed0EjSpLB
Uz9hQb60VkEkOZjBPBx8Qb7fLkFseYXBZb/QQNU+CkFjTm3BakuvQBAl90BDDnXB/KHfQB7aFEED
v57BsvwRQRQlPUEaX6HBL2uyQC5f0kBGEpfBoxRGQWSjZ0HwsqTB+7xBQUCf30AxsIPBEmdFQVtN
10ACuI/BWoYrQYaf80Abq4HBFY9CQcVjAEF1QZbBo3IoQXltDkEkRojBfR8sQSk0CkHsZJTBzIyg
QOHn9ECqZrbB2JSSQGgkHkGFe63BsZ8gQatrdEFfZpjBvQYqQeEqH0FSBpvBYZt0QJoY5UA3NonB
U4zIQPp3A0FCOqXBIrwSQbmwJ0FpbpvBw9yNQHzDwEDlE5DBl+kvQV9dZEGF6KnBm6q0QMutDEFt
sK/Bt50dQTGvY0FkdqHBcFBsQfRIIEEEYYLBtAneQG5/HEHWcHjB62iHQesPKUFvz4HB0qLlQHVS
CEHnS1vB7kZ4QePCEUF8FXnB/oT8QOieJEHtmGrB+g6GQdbDFkEegHjBWnkAQRYEGUFZ4FnB3gJO
QSBbV0GEFZ7BjCabQKUsAEFlL4TB8VUFQVfQF0F62KDBeEioQDGa8UCxk57B7V8cQT9UTkH4p5zB
c8ScQOdZnUAwIYnByf6kQMTp10DeVGrBKLrMQJOYH0FlAJjBSvEHQXs0P0FLw6nBJmTXQH7UxUBH
4ZXBMdNPQfdLeEF+eKbBvXcrQY5FdUGnSrHBfo6sQHWHgEE4+4LBkGG+QGS3i0Hs15LBXbLeQMp7
ZEGHCXrBut2HQZ+ucUEopJLBoSuLQdsGUUHW3IfBIj8BQQS0iEH6rpzBk4oRQf2DXkEwzobBS0du
QVhcdUETHp3B1RNZQc3aN0HejJHBd9VCQboZwUCCrX7B1CVOQZ6j9UCLv4DBOr1VQVkXy0Dr5pDB
5so5QWlXv0CyhZLBKRkfQVdk3ECC7YPBHwAqQU5b+0AOPHLB2NFOQXEFDEGPzJPBHHlEQSVx+UAb
z57BqQ0YQbpfFEGXFofBnfEzQV6OGkE4g4XBQPgfQQGO/UBEM5fBYsm4QKsm3EB19bfBFqGFQJXD
5kD/97HBSO2UQGDzAEG0C77Bse6gQJQTK0GitqjBqPOGQCCoJEF9H7XB605vQIoWF0HIC6nBZL0l
QeHZgUEB8JvBn/wsQQSubkFD1ZLBXEc0Qc17K0HOYpfBa3AvQZP+G0EbP6PBhShMQOMw+UB9X47B
Hx1NQL+x1kD74ILBGp7gQGsT70CJmqfB1QYNQccWKkGfMZPB+l5pQFaStEBYa5XBHQ8wQe3zVEE7
KK7BcpPOQKbvE0HIabTBXHcOQdQ2Z0E5lKXBe7dEQadlSkGcb53BpYSjQBeiDUHN+IfBOSoMQcqL
DkHGZqbBi5eJQDLn+UDMe5/B72wjQT8FTEF0kZXBp1iEQCypkkBStITBhf2nQEeHhUC5rI3BPgm0
QFv2p0AsUoTBIc42QSlkf0HbIrHBF/7vQHtxkkFufqTBWZAKQTnvkUFfGp7B8KnWQK87iUFGAKbB
mFVcQZtTWUFcd8jBKH1oQbB/RkGuScfBy2UQQfs7iEEJJpnBZ2/iQHsIf0HrHKHBQI1PQQzBYEHd
8r/BeLBaQUVLQkFlKrXBSqBnQefiOkFUm73B4aMDQYMHfkHklZrB4LNOQZRpVUHELbbBWx50QbAO
J0EjI7zB3svdQMa0DEFqE3bBX0zQQI6x7UCtvnvBxKXXQFbKEUFpmJvBEGMRQaE0NUGpRaDB36yZ
QK/syUCSFpbBJHY/QcvpVkF8YqPBNoZJQeMe1UBmrIbBL3xDQdJEwkAorpHBd483QYoz8kBXWoLB
kRA+QS8F5kCWwpnBji4yQaD2CkFhZ4rBMN8rQb2EAUENf5XBt4CCQFu5IkFkbqXBe/i5QANUF0FS
DbPBsPEJQRzyaEGWg5XBlWUnQXK0E0EZp53BAwiTQGNAu0B6OILBN2a2QCSSA0GGK6HByLoRQXvR
HkFXaZvBtKl2QKpwvEDdCY3BuOUwQco0ZEHDB5zBYUWcQEaOD0HZ8KnBUWAZQd1EXEH23ZzBQ2Zw
QVE2GEH48bPBPanBQJ8FHkFgSXTBmA6CQRb1IEHYH8LBj4cCQR6oEkFuCXLBIwWAQSktCUFFCrbB
mJzdQKdWLkGh827B2LOFQR43DkF6K77BoykCQaHOJ0HLn23BpuFBQeztXUG39q3B/+SkQC6e5UDM
F3/BjmYAQQ+6EUECuJ/BSnuZQIez9EDzIJnBsUgYQfS1RUHJtpnB7iFSQJ6ykUCUS4/BDx/rQEMp
0UBwMn3Bs+3NQFP0HEFo4JPB4eYLQSwwOEHclqnBMVKyQCzpr0A9IJrBYi5IQRDiRkEDw5/BKXQ4
QSPJYkFjPZHBV/PmQC7lmUGSPKjBdVEUQS/7mEEqAZ3Bwz66QK+giUHg5qrBrs5cQSQXYkGs6M/B
RHRyQVXzQEFCx83BEp4eQXDZh0ExQZTB9UHPQPXfcEGMW6LBglNGQb09b0Eg5sDB+uRZQcdDOUFH
z63BKTlMQajFukAW/4DBbkhYQeAD6EBjfofB1gtRQTWAr0ATwZTBJnk1QSBOrUCuvJDBVikpQfnH
3kAK7YDBU9I8QYthAEENknXBc2tMQaaf+UDwI5vBnPM4QXpi10AVWKHBPrskQQdzFEFuSYfBsUJA
QcJWFUEnZIvBv0gdQeK170DPjJTBmtpaQP8lHUEt9Z7Bob+YQFbTLkH0SKLB3hVeQLHPKUHf2avB
fjbMQF6wCUFHPLbBp42mQBpoHkF9e7nBWULQQL9rI0GS6q/BcO4RQf8bbEFn1Y3BHOz2QHtXX0Hb
HpTBFkc0QUGmH0GdHJ3BSxInQWjhDEE8w6XB5ut4QDOUsUDK1HfBokGtQP7Yo0D0sILBKq/HQPLi
7EBXIaXB384PQTRIIEHcsZLBj49CQC4D1EC1fozBQ2kxQar0dEF3uJ7BMFaFQJkeBEHPYq3BhQQU
QdcPXkGAM6XBzEY5QdvQakEI9a/B4oyQQKgt/kCfx33BposDQVU7CEF+9qXBjFCEQNQVBEHhnpXB
DtocQeTxQUEhSJLBir8qQG9CiUBMWonBd4YxQAKqkkDALJbBgLiAQGGNeEDN4o/B2JNCQUeAV0G/
sJDBD0DuQEKKkkHNoa3B38IGQXNUk0EwiaXB9+fYQAvDiEFPZa/BTgpaQS+WRkF76cXBwKBrQcfx
OkEO8cHBPJ4LQbFdikGsI5/BicXiQE2Of0EEDqnBKBNMQVEeUUE8yr7BLwdhQfALREFEvK/B3hdv
QWSXOUHRzLbBA88AQYKVgEGy1KDB835PQcgVUEG+oLPB16qAQS59LUGrX7LB29DSQIrhCUHiLW3B
ZfWuQOsR+UA4oXTBNwnhQM+NE0GH3J7BrysVQZ37OEFIeqHBapWtQAXI00A71pbBcvNAQc4TXUGq
z6HBpw9AQa/C0ECMP4TB1wBDQWPVx0B4TZDBm8AqQfcj6ED7EoLB8qNBQc2g8UDC1pbBShgpQSza
CEERrIjBJx8sQSliBEF30pTBrH2cQMII90BKKbbB+7aUQCe2H0EmRq3BkzYGQWGebUF6MJrBq3Qr
QRB5GUGJcZvBjdBvQDQJ60BRzIjBZ+DGQBcQA0HsLaXBHc8UQWF0I0ECuJvBmyuIQOAvxUBnsI/B
zTQvQXXoakFryJzBtdGzQFHzDEH7k6/BxfIYQRj5YEFiRp/BZ3CBQWMOJ0G5qafBppziQLmBG0H8
f3jBFRuJQWh3J0HavbfBXtfnQDE4B0G1TVvBdTiLQbbIHEEqqafBBlQBQax3IkGC6GrB86OPQRsO
HUG247DBUtwCQQ/MFkFtKFrB7UJBQZZnW0E/AK3BIhKbQO3XAUEW6oPBeCIGQWvaFEHzJ6HBY3al
QPGG80C/XJ7BMkMYQcP9SkHZLpvB+6uUQH/SoEA5wIjBD42iQC/Q2kAZxGnBm07QQF//HkHpCpjB
JCUTQXsROkHxPavBuYrRQINyxEC+wJXBi+9NQZs4VEGV7pvBN14yQXKcbEE8dJHB1aXmQHBumUEM
fLLB4wQPQavOmkFsPKTBBQDBQK8oiEEjm7XBhj9XQWxyR0F6bc7BVXF2QTkRM0HTaMfBV5oXQbH5
ikHu8ZjB2bnSQB2FcEGJe6rBvqU+QVwNWkFe5MHB06VjQYPeQkExN6fBGh1AQRgwskATxn/B3l9N
QYPQ5EDEa4HBI8FSQc8EuUANm5HBqWA2QZXRsUABAZPB82UdQQvn0kD4O4TBIcgpQe0Z8EAjCHPB
j9xOQW5uA0Eye5TBfQFDQV/96UDsZp/BVjwZQfsIEEHqYYfBT441QTUQFEE1/YXBVwcfQULp80DG
ipfBNJ+yQNZx3EBSybfBK9mAQMUY60BomrHB/2iRQEJkAkEcxr3BHlylQCsULEGAmKjBLqGJQEyb
JkGt4bTBtSJyQG3DGUH5tajB49MKQae9ckG1F5LB2B/wQIsyY0GMtpnBKpQ2QZMMJUFC1pfBkYIw
QQX5FUFssKPBJRRKQGFLAEGZ6Y3BcONGQBZR3kD4YYLBhtPcQJ1l7ECjnqfBt2wPQYP9JUHsb5PB
bp5bQJ7qukDU7JTBJtYvQV3nekGncKDBFXjOQO0jE0FFbLTBm7oWQXLRYEEdAajB5bI1QYhpY0Gc
0LDBqVKlQAjnDkHTwofBRAoMQYFHC0Fg2KbB63WHQI4u/kDOKp/BkCcaQS7XSEHwT5PBnoF3QCgk
mECpOYTBSrudQDEgiEBdTo3BcfqsQOGnqUAYCoTBKW8+QaZQZEFhao/BozHaQFPIkEHhI7bBmdfk
QMAFk0FxaKvBKdnVQIIYhkG5k7nBYyB6QfifYkGvypzBFgaCQc46bkFZCKXBDdjqQHWUikFiFaTB
tBfcQK9Le0E1SLLBaBRkQfDjZEFg55rB5qphQU9NfkGcqanBZ953QdsXfEEai6vB+CvmQBu7f0FC
fafBTZNXQcHmckHjTqHBbSaBQZAUhEH3QLTByiDSQBnZCkHYom3B8kyxQBNU90BOD3XBHTbdQOuH
FUFxGZ/BRQMPQSO/PkFJuqHBeVyzQPaK0kD7F5fBTM0zQTgkbkFQDpjB0alCQZ8q5kB6v4TBpudF
QYsI3kAw0ZDB3T4sQffJ+ED0fILBuTJCQVWrA0FeUZfBwEMoQUzpEEEdDInB9pQrQbfXDEE0NpXB
6sqdQNoz9ECFXLbBOnCOQJeYHUEXY63BMVntQGRmbUG2wp/B044oQaLCIUGrzJvBfph3QPqY40Cs
9YjBiazGQBvEA0E0a6XBjPYQQYM/KUHOBJzBy+6PQBPav0Ck6Y/BcFUcQWCxdUHOPJjB9FuxQMKk
DEFLxa/BaJwOQSbIZkGEeJ/BTGh3QYQLiUGXrLzBfuLdQCdGHUFd6XjBDXiLQYd/hUF1MLXB5srn
QDhFCUGu0lvBOSGEQXNXjUFmbcLBA1/8QGrgJUEyXWvBmC+NQSlWi0F2Gr7BMxABQVJfGkHsrFrB
F4NBQd9idkGy4Z/BlCucQNHc/0D+F4TBwOgDQUE3GUGqdqHBeqWnQBtP8UDIk57BNikQQW7gUEFG
ZJvBXXygQGj3nEDcB4nBaVyoQGLT10DROmrBgEPKQLTrH0GrOJjB39UMQQzLP0EMfKvBj8zYQJQx
x0CZE5bBkXs5QSssYUH+QJHB9B4UQXARdkG+i43BXF3VQEBCl0H2urvBmGboQAM2m0GRzKjBJrzN
QL5ihEG2zMHBgL2BQazpV0E+4pfBtIOKQY2LbEFlZKbB3wPzQE1NjEH03ZvBWivZQADsakHh8bTB
gpZcQTDrW0FNipTB7FBYQfhphEHgq67B7mxEQQ+/x0CxaIDBrdpOQVD0/EAe84HB1lhWQU260kDX
LpLBD4I6QexvxUARfpPBbxYgQSHQ4ECGn4TB5PYqQRA0AEFU13PBjzpOQYCkD0GY/ZTBl9hDQRsO
AEEL5J/BSb4XQdxWFkFIsYfBDHwzQQtjHUH7Y4bB3aYfQRYTAUHc5pfBtKG2QHAv3ED3CrjBybOD
QI9H5UAEyLHB1h+RQKBkAEH08b3B4WqcQEnBKkERtKjB18KBQKLoI0Et97TBla1oQMknFkE8zajB
yGXjQDVpckEws5fBHAbaQNOZX0E0T6LB8mQyQfV0LkFpM5jBHOMtQXTdHkF8D6TBsihNQNUK90C3
Bo7B3/hRQDyg1EA6iILBvz3fQJ1i8EBK6qfBiWULQeQgK0E+uZPBB3VtQAnYskDTH5XBQtobQZfz
gkETqJvBV2jKQO5FFEHforTB/AAVQa95Z0GRqafBVKo6Qe0RgEFGOKXB7W6jQO9/DUHA7IfBqL0K
QcJtEEHqNafBcqSIQMOh+EAfVZ/BDy4SQQriTkG8hJPBlMSIQF2NkUAse4TBRhSsQBt5hUDin43B
8Mq3QDZUqECpV4TBNYgdQdFxbkEl9IjBFXztQPyOkkHpwK3BpHYGQWtdk0FJs6XBh0TYQOjCiEEQ
gq/BTz11QWhaQEEvBLbBA+14QZntSUF7AsDBUnsLQW5likGGV5/BUXLiQE2Mf0EHNKnB+PVkQSUV
SEFlS6/Bo7ZbQYf7YkEip7zBeSNsQTRCW0GdaMPB1MAAQcOXgEHpB6HBagtYQVKjWUFNhrLBie5v
QecwZUGU9M3BTR7TQGv9CUGpQW3B8USvQNo3+UBrp3TBcuPgQAORE0Gu6p7BPQIVQU0IOUG5nqHB
fLGtQIjK00BG15bBuVFBQVFfXUHd1KHBIy5AQeI20UA6W4TB1wxDQSovyEDVaJDB290qQT2M6ECy
KYLBfJxBQUfo8UDR95bByiQpQY0HCUESx4jByBcsQSmCBEFm7ZTBpTqcQBPi9kAlK7bBy2mUQE+l
H0HSS63BZEQGQbSnbUFBZ5rBvl0rQSyRGUFXkZvBzjxwQBUD60CbxojBa7zGQKsMA0HTNqXBz7UU
QTKHI0FY1ZvBUmOIQEopxUA0qo/BEFAvQVvUakEqxpzBRI6zQMjnDEEdm6/BJhUZQS8CYUH4cp/B
m21hQWehckFmMtPBgM/iQFqeG0Hem3jBgpyAQQOcYkE9stPBOjroQBtcB0GlZlvBaIFsQWgqd0G2
gtzB/HEBQZadIkGHDmvBOM9+QdMFbkEyx9zB/QcDQSP2FkGvTFrBAqZHQTOcYkEPPqzBnUebQEng
AUFg64PBlwoGQSbkFEFqPaHBVW2lQL5580A9X57BeCAYQZoMS0EyWZvBugeVQKvcoEC6uIjB2vOi
QCf52kCQwWnB+THQQEgBH0EIF5jBjvUSQQ4XOkEIYqvBrrDRQAyGxEAtx5XBdCtJQYWcTkGdr5zB
dG8yQfb8a0GacZHBdqflQLBzmUGWlLLBuakOQefbmkF0Z6TBizjAQIoliEHgrrXBA/V+QbL9MkFN
fLPB2ciCQYQFREHwGsXBPYcXQdgEi0HPLZnBVnrSQLl8cEGBnqrBnz9iQV6gQEF+nqfBottRQeYt
cEEWRL/B8khAQf+uskAz9H/B6n5NQVJW5UD5j4HB9M1SQUJouUDIupHBp2w2QYQaskC1E5PBCIQd
QZJB00B3S4TBGvApQWaR8EC/NnPBCdZOQWKZA0HHpZTBWOtCQfIv6kBih5/BV0kZQd0zEEHwd4fB
spw1QXhDFEGcIIbB7/0eQfMc9EBOnZfBPmOyQCJS3EBKzLfBIqSAQADs6kD5l7HBEhGRQNFKAkFu
x73BiA6lQBIJLEHjoajBGz+JQEeEJkHV5rTBVaRxQHavGUFgt6jBEtcKQdPOckE5TpLBZU/wQCYu
Y0Gv7pnBbX02QdgrJUH6+5fBQGQwQe4JFkGX0KPB0VNKQLRAAEG+4o3BAHpHQPZI3kBNWILBj7Tc
QNZl7EBfqafBbloPQVkYJkG9jJPBsvxbQBnPukBX4ZTBZPQvQeT/ekHWO6DBGyXOQEUbE0HOd7TB
iw4XQf7qYEHEMKjBOlk/QddlbkFetq/BjHOlQDvvDkGox4fBG+8LQURPC0Hd7abBLGWHQAUQ/kCj
KZ/B4dgZQSjsSEFZd5PBCFl4QGEomEBnLYTB8heeQEQoiEALRo3BrV2tQEjFqUBJB4TBN7U8QYqe
YUGAUo/B

> <OMEGA_E>
yAiZP9YdmD9NqZ0/FkCWP8aFlz/0rZc/

> <OMEGA_NBR>
     24148

$$$$
50169576
  -OEChem-04172616093D

 95 97  0     1  0  0  0  0  0999 V2000
   14.2533   18.8526  -23.1519 C   0  0  0  0  0  0  0  0  0  0  0  0
   14.1738   19.1141  -21.7683 C   0  0  0  0  0  0  0  0  0  0  0  0
   13.5497   17.7637  -23.7069 C   0  0  0  0  0  0  0  0  0  0  0  0
   15.3281    9.2464  -20.5715 C   0  0  0  0  0  0  0  0  0  0  0  0
   15.7464    8.7655  -19.3155 C   0  0  0  0  0  0  0  0  0  0  0  0
   13.3834   18.2929  -20.9400 C   0  0  0  0  0  0  0  0  0  0  0  0
   12.7591   16.9413  -22.8798 C   0  0  0  0  0  0  0  0  0  0  0  0
   14.5024   10.3848  -20.6543 C   0  0  0  0  0  0  0  0  0  0  0  0
   14.5068   10.5573  -18.2254 C   0  0  0  0  0  0  0  0  0  0  0  0
   15.3367    9.4207  -18.1295 C   0  0  0  0  0  0  0  0  0  0  0  0
   12.6606   17.2159  -21.4973 C   0  0  0  0  0  0  0  0  0  0  0  0
   14.0855   11.0552  -19.4832 C   0  0  0  0  0  0  0  0  0  0  0  0
    4.9896    2.0934  -17.6685 C   0  0  0  0  0  0  0  0  0  0  0  0
   15.7680    8.9310  -16.7906 C   0  0  0  0  0  0  0  0  0  0  0  0
    4.5600    3.2902  -18.4028 C   0  0  0  0  0  0  0  0  0  0  0  0
    9.4065   11.4657  -19.7469 C   0  0  0  0  0  0  0  0  0  0  0  0
    5.2582    6.4418  -18.9981 C   0  0  0  0  0  0  0  0  0  0  0  0
    6.7051    9.2536  -19.5054 C   0  0  0  0  0  0  0  0  0  0  0  0
   12.7487   13.0547  -18.6620 C   0  0  0  0  0  0  0  0  0  0  0  0
    8.7305    8.8629  -16.1183 C   0  0  0  0  0  0  0  0  0  0  0  0
   10.8411    7.6419  -16.7708 C   0  0  0  0  0  0  0  0  0  0  0  0
    4.6318   10.2893  -21.3800 C   0  0  0  0  0  0  0  0  0  0  0  0
    6.5574    9.3682  -22.7421 C   0  0  0  0  0  0  0  0  0  0  0  0
   11.8165   16.3319  -20.6092 C   0  0  0  0  0  0  0  0  0  0  0  0
   12.6638   15.1583  -20.0612 C   0  0  0  0  0  0  0  0  0  0  0  0
   10.0547    9.5583  -18.2169 C   0  0  0  0  0  0  0  0  0  0  0  0
   10.6017   13.6646  -19.8748 C   0  0  0  0  0  0  0  0  0  0  0  0
    3.4436    6.6852  -17.2542 C   0  0  0  0  0  0  0  0  0  0  0  0
    8.8759   10.3439  -18.8470 C   0  0  2  0  0  0  0  0  0  0  0  0
    4.0620    5.7574  -18.3232 C   0  0  2  0  0  0  0  0  0  0  0  0
    6.0275    8.2939  -20.4926 C   0  0  2  0  0  0  0  0  0  0  0  0
    9.5948    8.3772  -17.3085 C   0  0  0  0  0  0  0  0  0  0  0  0
    5.4336    9.0126  -21.7426 C   0  0  0  0  0  0  0  0  0  0  0  0
   11.8432   14.2215  -19.1304 C   0  0  1  0  0  0  0  0  0  0  0  0
    5.3190    2.1033  -16.3093 N   0  5  0  0  0  0  0  0  0  0  0  0
    5.1051    0.8921  -18.1677 N   0  0  0  0  0  0  0  0  0  0  0  0
    5.6267    0.7722  -16.1014 N   0  0  0  0  0  0  0  0  0  0  0  0
    5.5053    0.0762  -17.1684 N   0  0  0  0  0  0  0  0  0  0  0  0
   13.2683   12.1899  -19.6401 N   0  0  0  0  0  0  0  0  0  0  0  0
    4.4526    4.4869  -17.7021 N   0  0  0  0  0  0  0  0  0  0  0  0
   10.0118   12.5480  -19.1337 N   0  0  0  0  0  0  0  0  0  0  0  0
    8.0657    9.4310  -19.6512 N   0  0  0  0  0  0  0  0  0  0  0  0
    4.9858    7.5363  -19.8069 N   0  0  0  0  0  0  0  0  0  0  0  0
   15.3939    9.5341  -15.7457 O   0  5  0  0  0  0  0  0  0  0  0  0
   16.5088    7.9146  -16.7047 O   0  0  0  0  0  0  0  0  0  0  0  0
    4.2988    3.2224  -19.6005 O   0  0  0  0  0  0  0  0  0  0  0  0
    9.2754   11.4193  -20.9682 O   0  0  0  0  0  0  0  0  0  0  0  0
    6.4045    6.0222  -18.8463 O   0  0  0  0  0  0  0  0  0  0  0  0
    6.0666    9.8180  -18.6196 O   0  0  0  0  0  0  0  0  0  0  0  0
   12.9357   12.9020  -17.4595 O   0  0  0  0  0  0  0  0  0  0  0  0
    4.4015    7.0282  -16.2508 O   0  0  0  0  0  0  0  0  0  0  0  0
   11.3928   14.9700  -17.9924 O   0  0  0  0  0  0  0  0  0  0  0  0
   14.8538   19.4869  -23.7871 H   0  0  0  0  0  0  0  0  0  0  0  0
   14.7189   19.9441  -21.3436 H   0  0  0  0  0  0  0  0  0  0  0  0
   13.6168   17.5602  -24.7654 H   0  0  0  0  0  0  0  0  0  0  0  0
   15.6412    8.7413  -21.4732 H   0  0  0  0  0  0  0  0  0  0  0  0
   16.3817    7.8941  -19.2571 H   0  0  0  0  0  0  0  0  0  0  0  0
   13.3304   18.4875  -19.8790 H   0  0  0  0  0  0  0  0  0  0  0  0
   12.2284   16.1011  -23.3026 H   0  0  0  0  0  0  0  0  0  0  0  0
   14.1858   10.7478  -21.6210 H   0  0  0  0  0  0  0  0  0  0  0  0
   14.1865   11.0573  -17.3233 H   0  0  0  0  0  0  0  0  0  0  0  0
    7.8419    9.3872  -16.4997 H   0  0  0  0  0  0  0  0  0  0  0  0
    8.4155    7.9974  -15.5169 H   0  0  0  0  0  0  0  0  0  0  0  0
    9.3205    9.5489  -15.4928 H   0  0  0  0  0  0  0  0  0  0  0  0
   11.4561    7.2962  -17.6148 H   0  0  0  0  0  0  0  0  0  0  0  0
   11.4302    8.3284  -16.1450 H   0  0  0  0  0  0  0  0  0  0  0  0
   10.5251    6.7769  -16.1691 H   0  0  0  0  0  0  0  0  0  0  0  0
    3.8332   10.0317  -20.6686 H   0  0  0  0  0  0  0  0  0  0  0  0
    5.3061   11.0281  -20.9223 H   0  0  0  0  0  0  0  0  0  0  0  0
    4.1872   10.7142  -22.2920 H   0  0  0  0  0  0  0  0  0  0  0  0
    7.1235    8.4600  -22.9965 H   0  0  0  0  0  0  0  0  0  0  0  0
    6.1149    9.7922  -23.6556 H   0  0  0  0  0  0  0  0  0  0  0  0
    7.2338   10.1060  -22.2859 H   0  0  0  0  0  0  0  0  0  0  0  0
   11.4305   16.9254  -19.7674 H   0  0  0  0  0  0  0  0  0  0  0  0
   10.9740   15.9307  -21.1916 H   0  0  0  0  0  0  0  0  0  0  0  0
   13.0434   14.5699  -20.9095 H   0  0  0  0  0  0  0  0  0  0  0  0
   13.5105   15.5692  -19.4918 H   0  0  0  0  0  0  0  0  0  0  0  0
   10.6769    9.1526  -19.0283 H   0  0  0  0  0  0  0  0  0  0  0  0
   10.6523   10.2537  -17.6092 H   0  0  0  0  0  0  0  0  0  0  0  0
    9.8538   14.4645  -19.9783 H   0  0  0  0  0  0  0  0  0  0  0  0
   10.9056   13.3153  -20.8726 H   0  0  0  0  0  0  0  0  0  0  0  0
    3.0881    7.6056  -17.7403 H   0  0  0  0  0  0  0  0  0  0  0  0
    2.5955    6.1701  -16.7794 H   0  0  0  0  0  0  0  0  0  0  0  0
    8.2676   10.7826  -18.0423 H   0  0  0  0  0  0  0  0  0  0  0  0
    3.2983    5.5632  -19.0907 H   0  0  0  0  0  0  0  0  0  0  0  0
    6.7931    7.5906  -20.8519 H   0  0  0  0  0  0  0  0  0  0  0  0
    9.0020    7.6765  -17.9148 H   0  0  0  0  0  0  0  0  0  0  0  0
    4.7469    8.3114  -22.2392 H   0  0  0  0  0  0  0  0  0  0  0  0
   13.0220   12.4130  -20.5833 H   0  0  0  0  0  0  0  0  0  0  0  0
    4.6525    4.4810  -16.7223 H   0  0  0  0  0  0  0  0  0  0  0  0
   10.0483   12.5688  -18.1346 H   0  0  0  0  0  0  0  0  0  0  0  0
    8.5306    8.8971  -20.3574 H   0  0  0  0  0  0  0  0  0  0  0  0
    4.0336    7.8182  -19.9248 H   0  0  0  0  0  0  0  0  0  0  0  0
    3.9966    7.5979  -15.6073 H   0  0  0  0  0  0  0  0  0  0  0  0
   11.7401   14.5801  -17.1987 H   0  0  0  0  0  0  0  0  0  0  0  0
  1  2  1  0  0  0  0
  1  3  2  0  0  0  0
  2  6  2  0  0  0  0
  3  7  1  0  0  0  0
  4  5  1  0  0  0  0
  4  8  2  0  0  0  0
  5 10  2  0  0  0  0
  6 11  1  0  0  0  0
  7 11  2  0  0  0  0
  8 12  1  0  0  0  0
  9 10  1  0  0  0  0
  9 12  2  0  0  0  0
 10 14  1  0  0  0  0
 11 24  1  0  0  0  0
 12 39  1  0  0  0  0
 13 15  1  0  0  0  0
 13 35  1  0  0  0  0
 13 36  2  0  0  0  0
 14 44  1  0  0  0  0
 14 45  2  0  0  0  0
 15 40  1  0  0  0  0
 15 46  2  0  0  0  0
 16 29  1  0  0  0  0
 16 41  1  0  0  0  0
 16 47  2  0  0  0  0
 17 30  1  0  0  0  0
 17 43  1  0  0  0  0
 17 48  2  0  0  0  0
 18 31  1  0  0  0  0
 18 42  1  0  0  0  0
 18 49  2  0  0  0  0
 19 34  1  0  0  0  0
 19 39  1  0  0  0  0
 19 50  2  0  0  0  0
 20 32  1  0  0  0  0
 21 32  1  0  0  0  0
 22 33  1  0  0  0  0
 23 33  1  0  0  0  0
 24 25  1  0  0  0  0
 25 34  1  0  0  0  0
 26 29  1  0  0  0  0
 26 32  1  0  0  0  0
 27 34  1  0  0  0  0
 27 41  1  0  0  0  0
 28 30  1  0  0  0  0
 28 51  1  0  0  0  0
 29 42  1  0  0  0  0
 30 40  1  0  0  0  0
 31 33  1  0  0  0  0
 31 43  1  0  0  0  0
 34 52  1  0  0  0  0
 35 37  1  0  0  0  0
 36 38  1  0  0  0  0
 37 38  2  0  0  0  0
  1 53  1  0  0  0  0
  2 54  1  0  0  0  0
  3 55  1  0  0  0  0
  4 56  1  0  0  0  0
  5 57  1  0  0  0  0
  6 58  1  0  0  0  0
  7 59  1  0  0  0  0
  8 60  1  0  0  0  0
  9 61  1  0  0  0  0
 20 62  1  0  0  0  0
 20 63  1  0  0  0  0
 20 64  1  0  0  0  0
 21 65  1  0  0  0  0
 21 66  1  0  0  0  0
 21 67  1  0  0  0  0
 22 68  1  0  0  0  0
 22 69  1  0  0  0  0
 22 70  1  0  0  0  0
 23 71  1  0  0  0  0
 23 72  1  0  0  0  0
 23 73  1  0  0  0  0
 24 74  1  0  0  0  0
 24 75  1  0  0  0  0
 25 76  1  0  0  0  0
 25 77  1  0  0  0  0
 26 78  1  0  0  0  0
 26 79  1  0  0  0  0
 27 80  1  0  0  0  0
 27 81  1  0  0  0  0
 28 82  1  0  0  0  0
 28 83  1  0  0  0  0
 29 84  1  0  0  0  0
 30 85  1  0  0  0  0
 31 86  1  0  0  0  0
 32 87  1  0  0  0  0
 33 88  1  0  0  0  0
 39 89  1  0  0  0  0
 40 90  1  0  0  0  0
 41 91  1  0  0  0  0
 42 92  1  0  0  0  0
 43 93  1  0  0  0  0
 51 94  1  0  0  0  0
 52 95  1  0  0  0  0
M  CHG  2  35  -1  44  -1
M  END
> <OMEGA_C>
og1kQQjSlkEiN7nB1cdiQavpmEGTJa7BnMtYQRYcjkGvp73BAUB1QXLxE0FhkqTBRPF7QZo/DEE1
hprBOSJWQfZXkkEdhafBTCVMQdGHh0HJCbfB7AloQVEoJkETPKXBuBtoQdTqKEGlzZHBFGN1QUm7
FkFDCZHB/5FKQSq6iUFu+qvBH15hQfvhMEGL3ZvBhKqfQMv5BUADWY3BrUl8QTPlDkEfU4bBJeuR
QDqSUkAJOZPBGIEWQVNzN0GX+Z3Bi0OoQAcjzkAl/JfBkZDWQM4OFEH9CpzB1fpLQfHfUEG4S5XB
JLALQXnODUFP8oDBBHUtQSiK9ECrKobBZzeUQAKhJEFACqvBbdbRQFDkFUHa77XBQxA9QcCngkG9
36TBxJ5KQXeIckFFfaDBKuAgQaPuGEFEvJHBp6ApQRyiWkF//57BpmRcQATt1UCCCIrBoAMOQYGA
JUGTxpbB0PuBQFY8uEDplZLBZeHAQAK0BEHT8KPBQIQZQS0JBkHed4rBO+CtQLQzEEG/8K3BpH09
QTCLY0EMC5nBgDWqQDudBkB7eYLB4VyjQOVdZD93V5HBmw20QJKsRT+lz4DBWSuwQFgFnD3dWInB
JUtUQfgJQ0H0Hp3BG3yOQJeUj0DhnY3BdzAgQaXESEHGEZnBOA0BQZPlFkGnNZ3BxoufQGAp8UBw
dJ7BY012QbuLGEFu7nvB7RGEQUtE/UBJo4XB74+JQPo7TkDCzZzBGmgUQZe1NkHivqfBvfHMQMC1
wEBKxZbBXyHCQJEWHUHw9JTBlfhOQYNuTkENrYvBDdmMQAfn4ECNAYLBF0k2QTSFb0FX8I/BF6lt
QR7lm0EMTL7Bt4BrQXCNn0HDv6rBVd5ZQV17jEGRH8bBM0J6QS3cC0E0yavByw2DQayc/ECfDprB
SElVQVLmk0EmCJ/Bf6dDQQfPgEGta7rB4fhiQR33K0G596zBGvxiQeLqMEETlorBmvD6QA0yFkFR
/4PBy6UGQQPr/0AoRXjBzyAVQUDIGEFV4nfBFUw3QbN66UAk64zB6uE2QQlBBUHyKIHB5WYoQZbc
2EBbWoHB7FN1QP6BIEFkWaXBxMupQPNyMEHnYKfBMP2FQHhtK0EOVrLB7vPjQFdcB0HR+LfB/KzD
QMesHEGgPr3BkHvnQEGyIUF5SbLBheM2QVFnh0GNI57BYZUvQfnjfkF/iKnBr7FQQSceaUGWRqfB
FStYQWQbeUEx75vBv9QqQQ1xEkHqOZjB3m8qQQsPJEGz34zBOqkdQbNuZ0GF05/BMH0uQYcLVUEW
+6bBRKNFQGJh80Am7I3B/xwmQN1xxUAiPIbB/kcEQXSFLEGbVpDBYBdTQP0FskDNuZjBAGHZQNfl
8kDH0KbBBggQQQim9UB5UY/BmeaXQGj7BEHn6bHBNFpQQcqbRkGLqqTBbuGUQDZkj0A9x4XB6sUg
QfEZSUGVE5HBaH0IQXJaDkEC3KLBkBOBQFcu+kAUZp/Blsd/QMkh80Cgt3nBUNc7Qf5HaUHylonB
0CpfQXn3l0Eu+LjB8kVeQUXsmUH63a3B0O5TQeg+j0FGZ73BcG1zQRcOGEFBv5HB48l5QfbYDUF1
O5vBJwlSQU80k0GYMqfB5rBHQTyEiEF8vrbBeBZmQawbKkElIJLBc1FlQSHcJ0E9mqXBFspyQT2c
FUHhRaXBTIFGQdSRikGxpKvBBeZeQRhLMkH0F5zBj9GdQNAgBkAIVY3BcYx5QcuwCkHvTa/BMFOP
QKT+UkCPCZPBUbQTQWRxOEF4uJ3B43CkQI7AzkBAnZfBSajRQGOnFEE+n5vBLGdJQc74UUGzRJXB
hzkKQcoTDkG62IDBH+0rQUnL9UDLeobBivqNQAxFJUEjOqrB2BHLQEgLF0GsebXBo205QUdWg0EU
fqTBllZHQZ7wc0EZT6DBYLkeQQ+7GUHAwZHBIqMmQeC3W0G0rp7BGqNWQMlm1UDIYonBP5gLQTdE
JkFpj5bBKIB9QDdFuECCG5LB8627QN1hBUE3gqPBQcIXQeCeBkHYiIrBPsanQG4FEUE0W63B6546
QSqjZEGR05jB4CGpQGIABkDrgYLBIY+hQEqoZj+6cpHB7nGzQPlXQz9HAYHBryWvQFE8nz1qlYnB
2qBRQRVeREHfMZ3BOvaLQJ6Cj0A5T43BoH8dQeWqSUFAypjBNQ39QF22F0HC95zB7/OaQNP68UAv
8p3BuztzQb+hEUHNPbjByMqCQZEB9UAh0a7BV0yGQKtbT0CxlZzBIz0RQYXyN0FTeafBl1HJQDCa
wUD/mZbBh5S9QBZvHUEZZZTBw7RMQeVBT0FLsYvBBXGKQJJK4EAsd4HBApgzQXFbcEFZm4/BS3do
QT8nnUHWFL7B2fhmQdCSoEHAearB5rVUQXO5jUFH5sXBBtN4QdH8EUHaHorBzAqCQX76/0D23JrB
CXpRQemolEGKr57B3jY/QRPKgUEEILrBFUJhQcPTMUFLyIrBw+FfQabgLUFgO63BoK/3QN1vFkGC
uIPBlHMFQRsWAEFLJHjBG8UTQcMAGUG1unfBTo81QVIt60B0WY3BpHQ1QezUBUG/foHBHSMnQYnU
2UCKs4HBbs1pQOLoIEEHc6TBt5yjQFgZMUHQl6bBSUB+QN8rLEGea7HBEUjdQEKjCEH/q7fBgEi8
QCXuHUFLrrzBE8XgQJ/bIkF+2rHBu2AzQS37h0FEqJ3BRd0rQW8YgEF2EanBVUpNQdW6akEpMafB
OfZUQaKSekER1ZvBoH8oQQh2E0GbXpjBHF8oQRbSJEG46ozB1Y8aQdxzaEGSWZ/BIUwrQW9XVkEz
u6bBK9I+QNTs8kAMJI3B+TEhQDaDxEC5g4XBDQgCQdsOLUHW/4/BJd1LQFUcskCoJ5jByinUQKqa
9EAijqbBBC0OQY/o9kDQXI/BgraRQN7LBUHFS7HBuHhNQSsISEEfs6TBMeySQBAIj0B/gIXBrmAe
QWzKSUFozZDBSdQFQaNgD0H7vKLBTa94QGTD+kAKu57BHGR7QNss8kC1a3jB3l85QZoEakFHVYnB

> <OMEGA_E>
oKGbP1NvkT8=

> <OMEGA_NBR>
     33774

$$$$
50169570
  -OEChem-04172616093D

 75 75  0     1  0  0  0  0  0999 V2000
   14.8808   10.1600  -18.1450 C   0  0  0  0  0  0  0  0  0  0  0  0
   15.2262    9.3347  -19.2403 C   0  0  0  0  0  0  0  0  0  0  0  0
   13.9994   11.2490  -18.3220 C   0  0  0  0  0  0  0  0  0  0  0  0
   13.8058   10.6694  -20.6825 C   0  0  0  0  0  0  0  0  0  0  0  0
   14.6914    9.5966  -20.5255 C   0  0  0  0  0  0  0  0  0  0  0  0
   13.4641   11.4922  -19.6073 C   0  0  0  0  0  0  0  0  0  0  0  0
   15.0383    8.7743  -21.7093 C   0  0  0  0  0  0  0  0  0  0  0  0
    9.1085   11.8320  -19.9812 C   0  0  0  0  0  0  0  0  0  0  0  0
    5.5991    6.4580  -18.6860 C   0  0  0  0  0  0  0  0  0  0  0  0
    6.8339    9.2318  -19.6152 C   0  0  0  0  0  0  0  0  0  0  0  0
   12.2118   13.6552  -19.3296 C   0  0  0  0  0  0  0  0  0  0  0  0
    9.9366    8.5353  -17.0079 C   0  0  0  0  0  0  0  0  0  0  0  0
   11.7211    7.7399  -18.5962 C   0  0  0  0  0  0  0  0  0  0  0  0
    4.3218    9.9124  -21.1336 C   0  0  0  0  0  0  0  0  0  0  0  0
    6.2049    9.3065  -22.7117 C   0  0  0  0  0  0  0  0  0  0  0  0
   10.3839    9.7878  -19.1954 C   0  0  0  0  0  0  0  0  0  0  0  0
    9.7936   14.2846  -19.7294 C   0  0  0  0  0  0  0  0  0  0  0  0
    4.7092    6.4609  -16.3219 C   0  0  0  0  0  0  0  0  0  0  0  0
    9.0009   10.4645  -19.2818 C   0  0  2  0  0  0  0  0  0  0  0  0
    4.5649    5.8642  -17.7294 C   0  0  2  0  0  0  0  0  0  0  0  0
    6.0831    8.1718  -20.4396 C   0  0  2  0  0  0  0  0  0  0  0  0
   11.2615   14.5050  -20.1719 C   0  0  1  0  0  0  0  0  0  0  0  0
   10.3360    8.4005  -18.4947 C   0  0  0  0  0  0  0  0  0  0  0  0
    5.2665    8.7811  -21.6077 C   0  0  0  0  0  0  0  0  0  0  0  0
    4.7775    4.4133  -17.6246 N   0  0  0  0  0  0  0  0  0  0  0  0
   12.5649   12.4810  -19.9497 N   0  0  0  0  0  0  0  0  0  0  0  0
    9.5442   12.9138  -19.2235 N   0  0  0  0  0  0  0  0  0  0  0  0
    8.1091    9.5708  -20.0232 N   0  0  0  0  0  0  0  0  0  0  0  0
    5.1701    7.4186  -19.5853 N   0  0  0  0  0  0  0  0  0  0  0  0
    4.7094    7.9362  -16.3492 N   0  3  0  0  0  0  0  0  0  0  0  0
   14.7229    9.1748  -22.8649 O   0  5  0  0  0  0  0  0  0  0  0  0
   15.6418    7.6805  -21.5551 O   0  0  0  0  0  0  0  0  0  0  0  0
    8.7869   11.9643  -21.1580 O   0  0  0  0  0  0  0  0  0  0  0  0
    6.7921    6.2006  -18.5494 O   0  0  0  0  0  0  0  0  0  0  0  0
    6.3261    9.7360  -18.6172 O   0  0  0  0  0  0  0  0  0  0  0  0
   12.4854   13.9371  -18.1673 O   0  0  0  0  0  0  0  0  0  0  0  0
   11.6366   15.8781  -20.1044 O   0  0  0  0  0  0  0  0  0  0  0  0
   15.2934    9.9562  -17.1679 H   0  0  0  0  0  0  0  0  0  0  0  0
   15.8996    8.5027  -19.0964 H   0  0  0  0  0  0  0  0  0  0  0  0
   13.7387   11.8853  -17.4892 H   0  0  0  0  0  0  0  0  0  0  0  0
   13.3782   10.8646  -21.6549 H   0  0  0  0  0  0  0  0  0  0  0  0
    8.9459    9.0077  -16.9352 H   0  0  0  0  0  0  0  0  0  0  0  0
    9.9017    7.5376  -16.5459 H   0  0  0  0  0  0  0  0  0  0  0  0
   10.6782    9.1563  -16.4840 H   0  0  0  0  0  0  0  0  0  0  0  0
   12.0055    7.6440  -19.6545 H   0  0  0  0  0  0  0  0  0  0  0  0
   12.4627    8.3610  -18.0723 H   0  0  0  0  0  0  0  0  0  0  0  0
   11.6862    6.7423  -18.1341 H   0  0  0  0  0  0  0  0  0  0  0  0
    3.6561    9.5291  -20.3463 H   0  0  0  0  0  0  0  0  0  0  0  0
    4.9191   10.7457  -20.7349 H   0  0  0  0  0  0  0  0  0  0  0  0
    3.7191   10.2667  -21.9828 H   0  0  0  0  0  0  0  0  0  0  0  0
    6.8721    8.4968  -23.0425 H   0  0  0  0  0  0  0  0  0  0  0  0
    5.6062    9.6595  -23.5644 H   0  0  0  0  0  0  0  0  0  0  0  0
    6.8062   10.1384  -22.3164 H   0  0  0  0  0  0  0  0  0  0  0  0
   10.7728    9.6525  -20.2155 H   0  0  0  0  0  0  0  0  0  0  0  0
   11.0610   10.4440  -18.6289 H   0  0  0  0  0  0  0  0  0  0  0  0
    9.5561   15.0024  -18.9305 H   0  0  0  0  0  0  0  0  0  0  0  0
    9.1358   14.4655  -20.5923 H   0  0  0  0  0  0  0  0  0  0  0  0
    3.8689    6.1164  -15.7013 H   0  0  0  0  0  0  0  0  0  0  0  0
    5.6560    6.1129  -15.8831 H   0  0  0  0  0  0  0  0  0  0  0  0
    8.6156   10.6159  -18.2627 H   0  0  0  0  0  0  0  0  0  0  0  0
    3.5542    6.0727  -18.1101 H   0  0  0  0  0  0  0  0  0  0  0  0
    6.8260    7.4831  -20.8682 H   0  0  0  0  0  0  0  0  0  0  0  0
   11.3449   14.1634  -21.2141 H   0  0  0  0  0  0  0  0  0  0  0  0
    9.5970    7.7678  -19.0081 H   0  0  0  0  0  0  0  0  0  0  0  0
    4.6468    7.9817  -22.0402 H   0  0  0  0  0  0  0  0  0  0  0  0
    4.1026    4.0213  -16.9995 H   0  0  0  0  0  0  0  0  0  0  0  0
    4.6773    3.9958  -18.5277 H   0  0  0  0  0  0  0  0  0  0  0  0
   12.0806   12.3119  -20.8081 H   0  0  0  0  0  0  0  0  0  0  0  0
    9.7035   12.7522  -18.2496 H   0  0  0  0  0  0  0  0  0  0  0  0
    8.4450    9.1805  -20.8805 H   0  0  0  0  0  0  0  0  0  0  0  0
    4.1899    7.6052  -19.6530 H   0  0  0  0  0  0  0  0  0  0  0  0
    4.8048    8.2872  -15.4177 H   0  0  0  0  0  0  0  0  0  0  0  0
    5.4740    8.2591  -16.9069 H   0  0  0  0  0  0  0  0  0  0  0  0
    3.8494    8.2623  -16.7417 H   0  0  0  0  0  0  0  0  0  0  0  0
   12.1870   16.0194  -19.3431 H   0  0  0  0  0  0  0  0  0  0  0  0
  1  2  1  0  0  0  0
  1  3  2  0  0  0  0
  2  5  2  0  0  0  0
  3  6  1  0  0  0  0
  4  5  1  0  0  0  0
  4  6  2  0  0  0  0
  5  7  1  0  0  0  0
  6 26  1  0  0  0  0
  7 31  1  0  0  0  0
  7 32  2  0  0  0  0
  8 19  1  0  0  0  0
  8 27  1  0  0  0  0
  8 33  2  0  0  0  0
  9 20  1  0  0  0  0
  9 29  1  0  0  0  0
  9 34  2  0  0  0  0
 10 21  1  0  0  0  0
 10 28  1  0  0  0  0
 10 35  2  0  0  0  0
 11 22  1  0  0  0  0
 11 26  1  0  0  0  0
 11 36  2  0  0  0  0
 12 23  1  0  0  0  0
 13 23  1  0  0  0  0
 14 24  1  0  0  0  0
 15 24  1  0  0  0  0
 16 19  1  0  0  0  0
 16 23  1  0  0  0  0
 17 22  1  0  0  0  0
 17 27  1  0  0  0  0
 18 20  1  0  0  0  0
 18 30  1  0  0  0  0
 19 28  1  0  0  0  0
 20 25  1  0  0  0  0
 21 24  1  0  0  0  0
 21 29  1  0  0  0  0
 22 37  1  0  0  0  0
  1 38  1  0  0  0  0
  2 39  1  0  0  0  0
  3 40  1  0  0  0  0
  4 41  1  0  0  0  0
 12 42  1  0  0  0  0
 12 43  1  0  0  0  0
 12 44  1  0  0  0  0
 13 45  1  0  0  0  0
 13 46  1  0  0  0  0
 13 47  1  0  0  0  0
 14 48  1  0  0  0  0
 14 49  1  0  0  0  0
 14 50  1  0  0  0  0
 15 51  1  0  0  0  0
 15 52  1  0  0  0  0
 15 53  1  0  0  0  0
 16 54  1  0  0  0  0
 16 55  1  0  0  0  0
 17 56  1  0  0  0  0
 17 57  1  0  0  0  0
 18 58  1  0  0  0  0
 18 59  1  0  0  0  0
 19 60  1  0  0  0  0
 20 61  1  0  0  0  0
 21 62  1  0  0  0  0
 22 63  1  0  0  0  0
 23 64  1  0  0  0  0
 24 65  1  0  0  0  0
 25 66  1  0  0  0  0
 25 67  1  0  0  0  0
 26 68  1  0  0  0  0
 27 69  1  0  0  0  0
 28 70  1  0  0  0  0
 29 71  1  0  0  0  0
 30 72  1  0  0  0  0
 30 73  1  0  0  0  0
 30 74  1  0  0  0  0
 37 75  1  0  0  0  0
M  CHG  2  30   1  31  -1
M  END
> <OMEGA_C>
1hduQUaPIkH0KJHBkp5zQQlbFUEd7JnBcv1fQer7M0Fek5LBbeRcQfK1KkHMdaXBzw9rQZqLGUEx
NKTBwmxXQRrgN0Gn25zBC51wQXxjDEGjrK3BTLwRQQdQPUGX2Z/BuyuzQK+nzkDkfJXB7K7aQGS1
E0Hx65zBV2NDQa17WkEKo5rBZ/weQYuQCEE2EIjBtok7Qamt90ADxZTBIUyKQGOZHkGXEanBoI7G
QDvnFEGasbXBbCQmQdOaHEE5kJnBjrIcQb+NZEHa1Z3BKLKWQLy/zkBRk4LBsgMQQYxuJ0EZQZrB
0xOSQLKnu0DZ1Y3BGqnCQMS/AkE+hKPBLi80QaIUaEH8X6HBPWAlQXxoBkER9ZPB6oaoQI5/DEGn
3KzBpuGYQAA6jUA0/4zB+glJQT2yR0HxmJ/B2LQYQcOeTkGuyZnB274BQcshGUGOL6DBFXGlQDtl
7UDFrpzBGLOWQBL1/UAfy4LBJZFrQffLEkFB67bBz0R6QefG9UDncKzBE5cMQaVtP0GOQ6nB+1jZ
QPZqxkAWZZTBFG/KQNPGG0Hw75TBXcRHQTb+XkGXVpHBii86QZMMfkG51aDBvrF0Qb9MH0HoV4nB
kWR+QesKCEGFxZjBstFbQVQqPkHU6YvBTg1WQYvVLUE6Pa3BeiIPQb0fEEFRe4fBgG0eQWU08UDu
XYTB2NkqQRyAEkFK34PBaBZAQXSb9EBZPJ3BBWdHQXXGBUEIlJDBrfo6QRbB10CsEpHBvPxpQB93
GEE7xaLB62idQG7uK0EW4aXBswVuQJNEJEHd3K/B7ufbQPfyB0H+VrjBXGazQCSNGkHNg7zBbszZ
QP42IkEFiLLBT10sQc9wGkFBuaHBt/kwQasaJ0H4B5XBxuUYQeIJcEGRcZfBTCwSQdhyZ0ERvaTB
T5x3QGq5w0CmOHvB0v20QMacw0AtIX7BfdkJQY3aKUHrGZLBtHdjQK5TwkCJ4ZDB827aQDl170AL
8qbBvIQ1QRadYkGGtqnBfI0ZQXKR+EB9EJjB3bKUQEJq/0A7UrDBk0iDQNyugEDn/ofBPKyVQKK6
f0DAOJTBOEpBQVr9REHpdqbBk0EbQTMJTEEY/5HB7B4HQXHjEkEvC6fB/BOGQGtd80BROZ3B3MCZ
QHuYBEHqrnbByCqvQC0lBEFrQYfB/lt2QDIyBEEA74XBGv5CQa8ngEGbvprB54drQbhPH0HX7ZDB
JTNxQTJPE0HEBZrBfbteQQCxMUG5+pHBIutcQQ7eK0FKPqXBa+RpQfKEGUGKSKTBBatXQbo8OEFv
P5zBjRhwQVBSDUEK/K3B+/UVQW1RN0EmrJ/Buv2wQEb+0UBOQJbBfXvdQBKcE0ECRpvBDiZFQQKQ
WkFpU5fBmeMeQYruAkEOKofBpx87Qbj450DJfJPBg+LCQCnZHEFw67PByxR2QBdFEUHAEq3BUn4o
Qd8rFkFOm5jBIwAhQT7wXUGxd6DBSyuZQHxM1EA+64LBKGETQRrKIkHyIpnB+dqSQPqevkDE143B
ll+/QOuWB0GwsaLBn9wzQWwkakHwTZvBA80lQekmAEFr9JLBBRaoQE6DGEGDwanB4yucQJa/kEB1
cozB5SdLQUxASkGuQZ7BstAbQWweSkFxjJrB/LEDQTM5FUFGbJ7B9YOiQHLT9EDdL5zBCpiTQAeK
AUGcoYPBMW5qQaDcE0HJGrfBR1B7QaZX+UDDEq3BuFYTQXnxNkG4ZqnByGDWQAwHxkBD0JbBp6vP
QPRsHUGLf5PBZDdNQQIUXUFkeY7B3dorQd+cdkGgrpLBqQdxQSRjGkH1HYnBWyt7QXRMBUGQK5nB
MktaQQ/NOkEg+4rBdO5WQT15MEGZA63Bg50PQeWmC0EJ1obBCe4cQe005kB9cYPB6DQrQRsEDEHC
0YLBbvQ/QWUe5ED45JvBCHxHQSEY+kBNKY/BKjU5QddEyEAHyY/BUjjjQDkMIkE3nLHB2A7FQKMc
DkFHs7jByHGzQFF4KUF8r7jB/4BPQFQmDkEa4aXBkXxXQCXqHUFD2rHBsrZ6QHiOAkEO3rHBZkgu
QY5xE0HkzaDBilQ0QcivH0HTKJTBkdUSQcNhaEEBhaDBXk8lQYm7WUGIvKjBkZWBQDhYx0DAfXrB
caq5QG5azUBGBIDB1B4OQWfNJkFV+5DBiAdjQAgCw0B6cZDBM27SQIlo+kDt9qfBgwI7QUigdEEY
Z6HBA3sZQenI7UBFNJfBY22lQG16J0EmLKXBj2eIQGhthEAn9obBpP2XQGCNgUDVaJPB1bpFQZWi
S0EowKXBTo4cQftFSkG8jpLBh3gIQauTDEFmt6TBSF6DQBsh/ED1AZzBNeiXQJoQCEFa0HjBlwmp
QKiSB0H0vojBxhtsQHjXBEEMOobBsQQ0QSfOc0FCbYzBOLltQR5YGkEoHJDBO8hyQd0YD0F8jJnB
nA5hQYv3LEGDkJDBaEpeQTjpKEFc6KPBGhBrQVpfFkG0jaPB6IZZQbV0NEE8lprBN3NwQZEQC0HD
oa3BZ3kSQUriOkG7S5/B/e+uQBP7z0Dw4pfBu7vYQCbcE0FjZZ3BQlZHQUXPVkG7EpXBf+YdQZqT
A0EhV4jBayw6QaCl70DlcpXBP9KLQJENI0HjwqnBMrPIQESdGUEUOrbBlMYlQaXTGUHsCZnBMbEl
QWvuXUEx4J/Bn3x4QE5u3UBaiojBJuQPQa5JJUF0lZnBYeiNQNyeu0C/XZDBHATAQO/GBEFf7KTB
DOc3QbobaEFZT5nBbFgkQWjpAkFaQZTB7F6oQCK8EEFLB67BJg2hQKfyl0C/QYrBZyNNQVG8RkFR
LpzBh4ccQdCTS0HjDJrBZoQBQXGrF0Gf0p/BY4ChQNQK8EBnx57BSv6eQNj28kCKi4LBm3FsQTzL
E0FTg7bBKxp5Qa6/8UC3RK3BPX0NQTvFPEEwvqjBb8LUQPhbxUClf5fBZujHQGKOG0ExZZXBEiRO
QTfTV0Ec5IvBcHMuQYCTc0GttZDBRpVzQV+pFEGjfojB7ZN8QXDiAEGtJZnBUxpdQeV+NUGhUInB
cAxYQRZXLkE/fqvBw0cOQcqEC0HwhIfB0NAcQSNQ5kAgOIXBBgQqQZGGDEHAyYPB37U+QfvC7kDS
8p3B1lBGQenCAEGz6JDBoB05QdTIzkATV5LBYrlpQBqaHEEs7KPBsfqfQPwzL0Hf3qXBMqF0QDJk
KkHLdLDB1eHcQAmADEGHObnBQE63QHbvIEHd8bzBWPjcQEC/JUHxW7LBJlEsQXywGEFGMKHBpJ4w
QYtoI0GfB5TBSR0ZQTztaUG1QqHBdQwsQVtrWEHpmqfBlZlUQIKZ9UAlGo3BVF1NQI2ezUAc0YLB
vqcJQc7NJ0GRc5HB1mJmQDtir0AiNpXBcF/XQG3e80ChqKjBjulAQU0Qc0EHhZ7B00AYQRqK80D0
uZjBSKWTQNkoBUHSKbLBDfuKQH4yi0CKa4XB0aKrQIuWgUDQVI/B4opHQYSQSEGmnqPB0p0dQakv
S0E8EpLBxIAHQWKXEEHeV6bBMDCCQJjX9UAqkJ/Bg2aSQLhNBEGwIHvB/GGvQOo83UBwrHzB66uy
QLbKAEHjr4fBsRY1Qa+Eb0E9LorB8SVsQYrnKEGPEZPBzB1yQWZ+GUFwwJrBuileQTujOUHk3pXB
eZBbQY8eK0GD8afBP9ppQRKNGkFhS6XBBRRWQULAOkF8Z6DBggBwQWijCkFYiq3Be0QTQW/vPUHi
Sp/B4MCzQIRT0EBbfpbBLf7eQPk4FEHkD5zBiwtFQX+dXkHgJKDBxxAiQSg2BkGfa4nB6ys9QYWR
9EDaFJfBs6yhQJzlBUGWg7XB4iqJQI/IIEHYvKfBjkYoQYwsHEHleJrBzKYdQQUkZUH/9ZzBsXKZ
QBUk1UDRV4PBHmoSQcCSJ0HKGZrBKImUQKgMvkAyII7BNe3EQBC6BUGhWKPBmx8xQSciakG5O6TB
XW8nQdtSBUEUfJXB56mvQOffE0E6D6zBLg2eQL6AkEDFKozBG0JHQQPKSUG/p6PBSH4cQf2BTkFA
eZnB2FwDQVL7GUF70Z/Bn0WmQHuf8UBBH53B32GSQIrDAUFKb4TBmJ1pQf3oDEHyDLfBVMd7QYgl
9kCqB6vBrm4KQTxfQUEX5afB0mXZQFkOxUDBaZbB7E7QQHV1G0F7tJPB5v1SQZT+Z0E2DpvBqM80
Qf5QgEHMtKTBN1NyQXLcJ0EtBIvBWQp9Qa/SDEGvlpjBhqdZQVyFRUFgBJDBYcFUQWrJK0Gb4K/B
PoESQaQdDkEzSYjBWVQhQYu060ACMobBuYsuQaFLD0FjMYXBNPpAQSRS80Dnqp/BlahJQXpdA0F7
25LBNXE8QT3Y00Aa3JPBmE69QKCY+UB8hLjBF52IQBRz9UAf37LByw2VQMojEEHj77vBbpaTQDK9
KkHs9qDBUvN4QAMbK0G+Hq7B6xFgQMSwFUH6DaXB6WAtQZXTGkEE3qLBUvszQSnQJUFbAZbBJKoe
QclRb0HAzJXBAfQOQVf4aEERaKHBQ/KBQFATyEAGVHvBzPe5QKOgz0AfRYDBj3INQXpHKUGgs5HB
pwJnQK/JwUAsBZHBoj3bQO2f9UC4aafB1IMtQcUVZEFHTKzBkgAbQegB+EAcnpnB0sfHQEtPH0EZ
9a7BvKSJQEvqhECCuobBBPeaQBwdgECl/pLB/Ng8QeABRUFrPanBhNsiQXfbSkFCXZLBB8cHQdpu
FEFi/abBmQSHQHUj+ECGqp3BP8yVQBXLCEEgmXrBDL2nQH7XB0Eij4nBlJ5pQLVoBEGrMIfBtxRC
QSPxgUEMYKHBrIprQcapFUEZKqPBpj9yQRxtEEG1xZjBrwZeQXBAJ0FKxqTB7dpdQdKTLkEgm5HB
rl9rQX7EHEFI6I/BpkxXQV/bM0GoFJzBagpyQc/nFkHz7YTBY8kSQWIcPEFOyJ7BSWuwQB4Ez0AI
sZfBuWzaQPodE0GhSJ7BcwxEQbudVkHnupjBmMsaQba3BkF61obBqQM5QVHR8kB7W5LBTlqPQBuh
HkGbVazBMU3QQOjUFEEIZLfBuEolQWXCGkHQ7JfBm/cdQV4AY0FXspvBVph1QLdQ4UAsVYnBqZEP
QdD7JUFEm5nBqFKNQNEzvUBrW5DB9JrEQGdjAkFeh6XBWMQ1QSkrZkFD0Z7BrREjQbiJBEHJb5LB
4pGuQMhuDEG5ba/BWhyeQNmomkBGdYnB8fJJQYLPREHOoZ7BIvkYQfXpTEGyK5jBaFMCQd8vGEH+
Z6DBedOkQCaY7ED9a5/BR1KcQGXw9UCFuoLBIjxsQRlCIkHaOHrBRGt9QbuDBkG0eoPBH2wPQTDf
PkG7WqjBcwzWQDjSxEDmb5bBN0zHQB0kG0HusZbBurxHQYMiWUFPKo/Bo7c8QViUe0Fm7pzBt8dw
QbErDEFl5KnBGrd8QZPnAkGhhpfBjLlYQcoqK0HxwqzBJI9YQecdOEH454rB+xgLQQqtDkFR4YbB
LToZQZB27UC0PYPB0iwmQWxLEEEKIoLBee0+QU6w70DZm5rBrmFEQcj9AkHUpY3BCW83QUjb0kB9
wY7BydZuQCl/GEEVqKbBZ1ahQMHGK0FMl6jBLDl+QHCOJEGxjrPBDFbmQK/MB0E5i7nBTzTAQLa8
GkFko77BIG7iQAb1IUH/q7PBZfYsQYKKGEFrxJ/BY2wvQV4GJUHH4ZLBRx4aQUcQbkHWIJXBPPkT
QW7LZkEMsKLBU0xYQGmb+UAJi47BPX5EQI7C00CyA4TBK9EHQdIeKEFVx5HBDtdmQCpmsEANYpXB
P2jdQAug7kAPaqjB1UQ3Qb6QYkHzZafB27gXQWZ+9UDeDJfBfQScQJWh/0DgcbPBsqeGQE+gj0Bd
xITBxzqpQNzcgkAPB47BH4JDQdUQREEf8qXB+ScaQQbRSUEnWJDBGv4IQZcNEkEWAKfBwMCFQDWS
8UB536DBNjGPQFuOBkGYlnzB5bSpQNsb4ECm3HvBerWyQPRBAUGigIfBPyhFQc8FfEFHnZbBerZr
QcHxLEFMQIzBQmlzQRkuGkE0I5HBMLBeQYwYO0GyCZLBCrlgQYaII0Ebk6HBsuxtQYVTFUFH3JvB
Mp9ZQeSHNkHl0JzBDC92QR7SAUE5JqHBrp0WQRzJN0HyWKLBQbWxQJKY0kCzwJXBcXLeQIuvE0Fu
MZzBzghJQT4hWUFDraHBdGIiQb4xA0E/OYrBrCs7QVDv5EA1uJfBtVi6QCrXG0HWG7TBEG1qQF3d
EEFPgqvBAvAoQUE3FUHGX5zBbmUhQfcaX0GJ1qHBB86gQLrO1EAzDYLB5FMUQXWxIkFnEJzBKwmW
QNSev0Bay4zBPQK9QCGAB0FWn6LBsIo2QWccYkEwIqjBVJImQcYv/0BDSJbB5mCjQI8jGEHDUKnB
BmWeQJR1kUAItovBEsZMQaGEQ0GwAqPBUhIfQQB6SUHnFp3BYDUDQfDPFUFvsKDBGD6iQLr+9UDS
RpvBALSWQEdxAUGUSoLBKKVxQSxb/ECR0KrBhf+AQSZZ6kBE/JvBqOsPQdBCOUEYjKvBdWfWQJin
xUDtJ5fBqYHUQNcaHUEk8JPBwBVUQb6yZEG0+JvBtEY6QU8teEH6W6rBu9RvQdZzMEGlC4TB05F9
QZ5oD0HGrozBhZFYQeZlSUHBRo7BWgpcQQHEH0HcrKnBAqUTQU+WDEHaMInB5ZggQQ1F50CANYbB
C/AvQYrrC0G9sIbB+Cc+QYfN30DuS6DBfLhIQfRj9kBHL5TBVWE5Qe7RxUAKtJPBOHDbQCkOIUEr
oLLBI6C6QLvYDEFpt7jB3FCpQMVAKEE5q7jBYyZJQD0vDkHs3qPB6rZIQBROHUE9F7DBd1VrQAnm
AUFsI7DBfvUsQS/SEUGAxaTBzvQ1QYh3HkEurZjBcOUgQRX7akEUWZvBV+wTQQHaYUHFVKfBbQKO
QBVqxUD5XXfBLCHDQN+q0EAUZoDBb40QQZB8JkFIrpPBMSRoQJYaxUB3p47Ben3NQCBB+UCCLqjB
ME41QcoYWUGbqq/BQA4ZQaVR7UBEuJnB8omiQHRXJ0H24qTB4jGMQAV2hUC52oXBPGmXQEG6gkBO
mJLBklRFQXx9PEGlKKnBHPQjQZZ3R0GaiZXBGCsGQZIRDkEZiKfBQMKDQP26/kALNJrBSvadQFQA
CEF/cnbBgMqnQPeICEEQDYjBAQBvQIRrA0G1w4PBWwJGQSgdfUG0NKbBG1RlQVfxE0GBKbDB0tRv
Qc0eCkFUhafBFvhYQb5oJkGpea7Bkz5hQfMVJUEAcpvBOuJtQZOpEkHLFJ3BRfpWQa5GL0EmK6TB
4ll5QaO+CEH58pPBno4VQfoGOEEAb5/Bu0SwQHhC0EDsVJbBumfcQMPGEkFiipvBpfZHQSV6T0Ei
kZrBNqQdQVhpBEGoqobB0g06QaGX6UB4qJLBr4rEQAdmGkF0f7TB/i94QGbPDkHAEq7Bm3knQZ+e
FkHKXJjBokIjQfUVXkFnWJ/B9feVQPyk1EAPRIPB918SQVY8I0FZKJnBJcORQNoSvUCQ/I3BYVW/
QHQmBkESBKPBh546QbXKY0E0WpzBLrEkQfj2AEGjZJLB1YmoQN+BFkFgfKrBaKucQE3qj0AZCozB
/itLQaY8QkGuY6PBeuwbQbFUSkEK9JnBDQEDQZPDFUEFxp7BLuuhQCY98kBEk5zBqX6JQI71AEEh
VITBtNF3QfDGEEEWuIrBgXGCQcUG8UDqg5XBm0ATQe0qOEGzL6nBUdvVQM/KxECoopbBCfXNQJyU
G0F2iZPBKCROQf0aS0EbhJHBH7k6QWWMcEFp6JLBYcJmQZlKDUGyGrjBQm15QeT+90Dx2ajBJutQ
QSjgLUGVJbXBLGJfQcN4K0GYeJPBDFoOQWMfDUHmgYbBkakbQQOa6UCSuYLBcuUpQQPDDUFla4LB
iAU/QZS+5EBJA5vBaFVGQfxD/EDha47Bhxk4QflXykANuo7BE3TkQAnrH0E8A7LBAKPHQIZmC0GI
CbnBc3O1QOSkJkG3kbnBu9JPQJL+C0GMAKfBtl1aQKMVG0ESKbPB0Lx+QIuu/0DjoLLBKl8tQSdk
E0HGfqDBOkMzQWxjIEFwBZTBZcMYQatja0EQ+JzBMUMiQWDCW0HHDajBmRqBQGAlxUChqXrBf2i3
QN/l0kB7jYDB8JcMQXr9JkGKD5HBlkJhQJ3Bv0Cw4ZDB1EHTQNUy90Dx/qfB6a9BQUHPbEFDCKPB
63EYQU/f7kCwi5bBJPakQF23JUEGJqbBXaaIQA2xg0AFmYbBpBCaQJDnfkBZ3pLB1wBEQU33RkGr
I6rB+oQbQRwfSkHe9JHBwOYHQcg5DkE6ZKXBfqqCQBwa+UByrZzBxoKMQCpECEHdgHrBkm+cQB4d
CEGAsYnB9yJWQOXcAUHNw4bBrBpCQT0uaUECYY3BDsNqQepUE0El9qHBm5BzQYbAE0GHm5fBo7Nc
QeKiI0G3OqXBPe1eQbzWM0EpkpPBH/1tQXxbJEGRbpDBhvpWQeIoNEE3G57BgxB5QfLaJkGRDobB
hkYUQV6MO0EOUJ/BnnayQGG+0ECld5bBOiTfQBxtE0HwU5zBLM9EQZIsWEGSjp3BJ/4dQbOhBkHc
EofBueE7QeWR8kAC2pLBelmrQDJ3A0FNubbBxpiMQGC7HkF+7KnBNQMoQa62GkE5PZjBlyseQXbi
YkH9GZ7B/sGPQEa52kCPXITBfFESQTQsJkGvUZnB0KiQQH+Yv0BemY7BIz7HQGl0BEFHx6PB7Ds0
QRwzZUEKmKPBjvolQapxBEFquZLBmf60QGj+EUEII63B/DybQNtxk0DHYIvBpqNJQRw+REF5/KHB
TLsaQRZXTUECh5nBb0gEQWjvF0F5Mp/B09qmQDgw8EBZ2Z3BZrSDQBSjA0HYwYbB/8Z2QYTyN0Ha
zIDB0/yCQb6uGEHi94LBMRoPQfwTPUEqwqjBUBDYQOAKxkDWcpXBcJHNQLQeHEH2sZTB0+1KQeRs
XkHlw5TB8sU6QSQSe0H25aPBOMtuQaaCBkFRZKfBsZV+QaVlB0HEIZXB2z9WQZV/I0GAPq3B7WlZ
QS6SP0GX243BPFAOQS6gDkGyBIfB63kcQZ5K7UCheIPBKoIpQZ0tEEHAb4LBfIFBQUuF70DBJ5vB
nm1HQVfRAkH9OY7BXmU6QRKS0kDeQo/BaFzIQDkH9UBi6rjBeMGRQGNU8EDblbTBFAChQLNLDUGl
jL3BCwCUQFQRKUG3C6PBqSKCQIKpKEHIs7DBG8hlQAGIE0H/vKfBTtQuQWR0GEH1RaDBfMsyQQXM
JEGlcpPBpg8dQYm+bkGFn5fBtJgRQcwDZkGLDqTBkqJwQAICzUDAhn3BxrSvQJZa2kAqq4DBd9IL
QbYxKUH8R5HBIPRhQGOFwEA1bZLBrpbeQIhk8kB6MqfBcvEyQZngXkH3x6vBxXkaQYFe9UDeQZfB
sr3NQLiHHUGGkK/BgxOFQMKsiEAXRobBwOmbQCGngEDi2ZHB1XpCQe4LQUG79ajBfj8dQaB2S0HQ
rpHBnxMKQaPuEEHzx6XBOtSHQJUS9kCHJJ/BZ1SDQJsmDEEL+H/B4/mYQMD5CUEJ04vB4z5NQMPo
A0GXF4rBQuFEQY6nfUHiXp7Bqcp0QYkUEkHAAJPBLiJ9QfLFCkEGx5zBDN9mQbW1I0F4vZLBmHZp
QRjPJkEdJ6bBWYZ3QeQFFUFoeabBQiVhQZ9hLkFYV5zB3zGAQVs5DUFZ0rDBfvQbQaO3MEGOTZrB
XE+rQFl6x0CmXZ7BfJfUQNHUEkEf25zB/JtIQazBSkGXipTB2DYqQb5/DEFodXfB5ToTQZygLUGQ
9XnBhluiQNtqCUFxJrnBjLSLQJA4JEFJEqvBa9oUQfLsEkGnmIzBjwkoQT8WVkEAQ5/BGE+SQMhL
jEB0vJHBqxkLQZMUI0FuppTB8JuFQLirq0DzsprBKo3CQFWXBkHWeKbBZBg6QSqoXUHUs5fBe2wh
QWDUHUGOW4PBPBexQDcmFkG0MK/BeJ5rQIh7k0AvDaTBdqtTQbBhQEGFy5zBJ5IZQYLVRkEE+pnB
rL3/QDWMF0HDE53BCryhQPr17kAq4KLBiEKfQPH+o0Aj/4fBkB57QaNBFkHvdLnB4paGQakx+0Az
57DBej8qQTsYKEGqfJ/BaFbQQBhuukB/vp3BFMC9QC0HGEHrSJXBNDpKQf+/RUEuF4vBre8wQc2T
Z0GXc47BYRt5QcsYCkF9povBHPKDQUCB+kB65JzBc31gQZosKUGiMIvBugllQZGxLkEChK3BvUw0
QR5FAUFzQYDB/84zQfwfFEHB02rBjsscQXnBA0FrKXDBZPYMQWj6OUHXaILBj9AFQffgJEF4qXLB
ANQcQXo/NUHOU23B7Oa8QIDg/kAcEbzB1CGHQCxD/kCv/bbBq42YQDGiFEEpeb/BlzSWQIFDLUEr
/qPBZuWBQG9xL0EzZLHBH/NgQNPwGUG56KjB/MkHQW9rCUEtG4nB1dYfQTNKCEEo9JDBproeQX8W
ZEE13aHBmkEvQXhLTkE/R6bBzqptQJlKb0BE1o/BMjqtQOPjcECnepTBa+H/QOyjLUGNW5DB4yBY
QL+0wEDospfBk/vcQFz3+kAyFarBIehDQc5kaUHMDZzBYfguQU21JkEFzYbBF1/LQKfNIEFLnrHB
3VE6QA0UgUAc2aHBuodYQIzyp0BLuKnBh7FRQZSzRkHnE6TBLC8NQWTDTEEM35XBJVQIQV+9EkGf
baPBCvqCQA8k90DbtKPBBmWnQDM3j0BOQ4LBzkm4QFLBtkCjr4nB59aGQEcHtkBJd4XBp4A1QQg3
YEH0NIjB

> <OMEGA_E>
IBhhP+RKZj8YN1c/0MJ6P/ARhj/EKIo/9j6KP6wJiz/KEqU/

> <OMEGA_NBR>
     47719

$$$$
50169569
  -OEChem-04172616093D

 76 77  0     1  0  0  0  0  0999 V2000
   11.5277   10.7589  -14.8025 C   0  0  0  0  0  0  0  0  0  0  0  0
   12.5457    9.7929  -14.8598 C   0  0  0  0  0  0  0  0  0  0  0  0
   10.1788   10.3740  -14.8722 C   0  0  0  0  0  0  0  0  0  0  0  0
   10.8601    8.0384  -15.0497 C   0  0  0  0  0  0  0  0  0  0  0  0
   12.2235    8.4206  -14.9841 C   0  0  0  0  0  0  0  0  0  0  0  0
    9.8295    9.0043  -14.9973 C   0  0  0  0  0  0  0  0  0  0  0  0
   13.0930   16.8187  -20.9606 C   0  0  0  0  0  0  0  0  0  0  0  0
   13.3042    7.3985  -15.0452 C   0  0  0  0  0  0  0  0  0  0  0  0
   12.1588   15.9473  -20.2384 C   0  0  0  0  0  0  0  0  0  0  0  0
    6.5324    8.0800  -18.8319 C   0  0  0  0  0  0  0  0  0  0  0  0
   11.3904   12.7839  -19.8045 C   0  0  0  0  0  0  0  0  0  0  0  0
    8.5932   10.4039  -19.5777 C   0  0  0  0  0  0  0  0  0  0  0  0
    7.3033    9.2425  -15.0921 C   0  0  0  0  0  0  0  0  0  0  0  0
    4.2793    8.2290  -20.8984 C   0  0  0  0  0  0  0  0  0  0  0  0
    5.7533    9.6751  -22.3449 C   0  0  0  0  0  0  0  0  0  0  0  0
   12.3294    9.6208  -20.4820 C   0  0  0  0  0  0  0  0  0  0  0  0
   11.0206    8.9254  -18.4322 C   0  0  0  0  0  0  0  0  0  0  0  0
    5.9346    7.5679  -16.4293 C   0  0  0  0  0  0  0  0  0  0  0  0
   12.6650   13.2623  -17.6713 C   0  0  0  0  0  0  0  0  0  0  0  0
    6.4789    9.1177  -19.9657 C   0  0  2  0  0  0  0  0  0  0  0  0
   11.8588   13.8800  -18.8368 C   0  0  1  0  0  0  0  0  0  0  0  0
   10.0307   10.6748  -20.0471 C   0  0  2  0  0  0  0  0  0  0  0  0
    5.9965    8.4211  -15.1395 C   0  0  2  0  0  0  0  0  0  0  0  0
    5.7452    8.5943  -21.2322 C   0  0  0  0  0  0  0  0  0  0  0  0
   10.9125    9.3931  -19.9036 C   0  0  0  0  0  0  0  0  0  0  0  0
   14.4743   16.6027  -20.9932 N   0  5  0  0  0  0  0  0  0  0  0  0
   12.7708   17.8845  -21.6428 N   0  0  0  0  0  0  0  0  0  0  0  0
   14.8911   17.6703  -21.7650 N   0  0  0  0  0  0  0  0  0  0  0  0
   13.9134   18.4064  -22.1391 N   0  0  0  0  0  0  0  0  0  0  0  0
    8.5074    8.5281  -15.0641 N   0  0  0  0  0  0  0  0  0  0  0  0
   12.6839   14.8766  -19.5243 N   0  0  0  0  0  0  0  0  0  0  0  0
    5.9605    8.4324  -17.6163 N   0  0  0  0  0  0  0  0  0  0  0  0
    7.8497    9.4913  -20.3074 N   0  0  0  0  0  0  0  0  0  0  0  0
   10.5727   11.7999  -19.2816 N   0  0  0  0  0  0  0  0  0  0  0  0
   13.0102    6.1773  -15.1653 O   0  5  0  0  0  0  0  0  0  0  0  0
   14.5115    7.7594  -14.9761 O   0  0  0  0  0  0  0  0  0  0  0  0
   10.9507   16.1615  -20.2800 O   0  0  0  0  0  0  0  0  0  0  0  0
    7.0723    6.9899  -19.0017 O   0  0  0  0  0  0  0  0  0  0  0  0
   11.7176   12.7874  -20.9892 O   0  0  0  0  0  0  0  0  0  0  0  0
    8.1170   10.9808  -18.6010 O   0  0  0  0  0  0  0  0  0  0  0  0
    7.2455   10.4672  -15.0502 O   0  0  0  0  0  0  0  0  0  0  0  0
   13.7947   12.5324  -18.1540 O   0  0  0  0  0  0  0  0  0  0  0  0
    4.8503    9.2773  -15.0756 O   0  0  0  0  0  0  0  0  0  0  0  0
   11.7836   11.8036  -14.7043 H   0  0  0  0  0  0  0  0  0  0  0  0
   13.5801   10.0991  -14.8087 H   0  0  0  0  0  0  0  0  0  0  0  0
    9.4033   11.1245  -14.8304 H   0  0  0  0  0  0  0  0  0  0  0  0
   10.6048    6.9930  -15.1410 H   0  0  0  0  0  0  0  0  0  0  0  0
    4.2624    7.4625  -20.1096 H   0  0  0  0  0  0  0  0  0  0  0  0
    3.7483    9.1266  -20.5487 H   0  0  0  0  0  0  0  0  0  0  0  0
    3.7846    7.8382  -21.7998 H   0  0  0  0  0  0  0  0  0  0  0  0
    6.7919    9.9421  -22.5899 H   0  0  0  0  0  0  0  0  0  0  0  0
    5.2548    9.2806  -23.2427 H   0  0  0  0  0  0  0  0  0  0  0  0
    5.2186   10.5690  -21.9916 H   0  0  0  0  0  0  0  0  0  0  0  0
   12.2502    9.9532  -21.5276 H   0  0  0  0  0  0  0  0  0  0  0  0
   12.8472   10.3906  -19.8910 H   0  0  0  0  0  0  0  0  0  0  0  0
   12.8986    8.6805  -20.4384 H   0  0  0  0  0  0  0  0  0  0  0  0
   10.0123    8.7641  -18.0231 H   0  0  0  0  0  0  0  0  0  0  0  0
   11.5890    7.9847  -18.3874 H   0  0  0  0  0  0  0  0  0  0  0  0
   11.5377    9.6948  -17.8400 H   0  0  0  0  0  0  0  0  0  0  0  0
    6.7994    6.8887  -16.4565 H   0  0  0  0  0  0  0  0  0  0  0  0
    5.0056    6.9788  -16.4300 H   0  0  0  0  0  0  0  0  0  0  0  0
   13.0147   14.0687  -17.0099 H   0  0  0  0  0  0  0  0  0  0  0  0
   12.0127   12.5809  -17.1053 H   0  0  0  0  0  0  0  0  0  0  0  0
    5.9401   10.0039  -19.5991 H   0  0  0  0  0  0  0  0  0  0  0  0
   10.9699   14.3730  -18.4164 H   0  0  0  0  0  0  0  0  0  0  0  0
    9.9990   10.9457  -21.1127 H   0  0  0  0  0  0  0  0  0  0  0  0
    5.9926    7.7367  -14.2783 H   0  0  0  0  0  0  0  0  0  0  0  0
    6.2640    7.6970  -21.6006 H   0  0  0  0  0  0  0  0  0  0  0  0
   10.4343    8.5888  -20.4819 H   0  0  0  0  0  0  0  0  0  0  0  0
    8.4137    7.5331  -15.0962 H   0  0  0  0  0  0  0  0  0  0  0  0
   13.6782   14.7815  -19.4771 H   0  0  0  0  0  0  0  0  0  0  0  0
    5.5378    9.3358  -17.5444 H   0  0  0  0  0  0  0  0  0  0  0  0
    8.2721    9.0667  -21.1083 H   0  0  0  0  0  0  0  0  0  0  0  0
   10.3343   11.8603  -18.3123 H   0  0  0  0  0  0  0  0  0  0  0  0
   14.2717   12.1641  -17.4196 H   0  0  0  0  0  0  0  0  0  0  0  0
    5.1332   10.1831  -15.0318 H   0  0  0  0  0  0  0  0  0  0  0  0
  1  2  1  0  0  0  0
  1  3  2  0  0  0  0
  2  5  2  0  0  0  0
  3  6  1  0  0  0  0
  4  5  1  0  0  0  0
  4  6  2  0  0  0  0
  5  8  1  0  0  0  0
  6 30  1  0  0  0  0
  7  9  1  0  0  0  0
  7 26  1  0  0  0  0
  7 27  2  0  0  0  0
  8 35  1  0  0  0  0
  8 36  2  0  0  0  0
  9 31  1  0  0  0  0
  9 37  2  0  0  0  0
 10 20  1  0  0  0  0
 10 32  1  0  0  0  0
 10 38  2  0  0  0  0
 11 21  1  0  0  0  0
 11 34  1  0  0  0  0
 11 39  2  0  0  0  0
 12 22  1  0  0  0  0
 12 33  1  0  0  0  0
 12 40  2  0  0  0  0
 13 23  1  0  0  0  0
 13 30  1  0  0  0  0
 13 41  2  0  0  0  0
 14 24  1  0  0  0  0
 15 24  1  0  0  0  0
 16 25  1  0  0  0  0
 17 25  1  0  0  0  0
 18 23  1  0  0  0  0
 18 32  1  0  0  0  0
 19 21  1  0  0  0  0
 19 42  1  0  0  0  0
 20 24  1  0  0  0  0
 20 33  1  0  0  0  0
 21 31  1  0  0  0  0
 22 25  1  0  0  0  0
 22 34  1  0  0  0  0
 23 43  1  0  0  0  0
 26 28  1  0  0  0  0
 27 29  1  0  0  0  0
 28 29  2  0  0  0  0
  1 44  1  0  0  0  0
  2 45  1  0  0  0  0
  3 46  1  0  0  0  0
  4 47  1  0  0  0  0
 14 48  1  0  0  0  0
 14 49  1  0  0  0  0
 14 50  1  0  0  0  0
 15 51  1  0  0  0  0
 15 52  1  0  0  0  0
 15 53  1  0  0  0  0
 16 54  1  0  0  0  0
 16 55  1  0  0  0  0
 16 56  1  0  0  0  0
 17 57  1  0  0  0  0
 17 58  1  0  0  0  0
 17 59  1  0  0  0  0
 18 60  1  0  0  0  0
 18 61  1  0  0  0  0
 19 62  1  0  0  0  0
 19 63  1  0  0  0  0
 20 64  1  0  0  0  0
 21 65  1  0  0  0  0
 22 66  1  0  0  0  0
 23 67  1  0  0  0  0
 24 68  1  0  0  0  0
 25 69  1  0  0  0  0
 30 70  1  0  0  0  0
 31 71  1  0  0  0  0
 32 72  1  0  0  0  0
 33 73  1  0  0  0  0
 34 74  1  0  0  0  0
 42 75  1  0  0  0  0
 43 76  1  0  0  0  0
M  CHG  2  26  -1  35  -1
M  END
> <OMEGA_C>
bHE4QZQkLEEO12zBHbtIQaSvHEHTwW3BfNwiQRD8JUGK9G3B38ItQWudAEFfy3DBXJNDQcK6BkEO
v2/BeUUdQZcREEH+9G/BxXxRQcOMhkFkr6fB3t1UQejA7ED8uHDBS4pCQU0of0FG6KHBNQnRQNxH
AUHEp5bBOj82QdGKTEG3b57BpH0JQTl2JkEvn5zBibTpQGvhE0EVeXHB1e+IQOCpA0HrL6fBTxu4
QBHNGkFwwrLBakVFQfvuGUEe26PBWlQwQULODkENdZPBDui9QBgs8kAvb4PBsaNKQWIyVEG+Xo3B
+VLPQCXiEUGzuZ/Bpr09QUgUXkHXsZbBrX0gQd7LKkFsYKDBTuO/QMi8BkEzO3LB0di3QGWCCUGL
26nBaJkuQU1KFkGdOp/B8JZnQT3ShEEd8qfBAVVMQYsTj0F4JK3B/UFuQchcjUHNHq7BS51eQTtA
k0HiHLHBaR4IQUdzCEFiBnHBJ/FKQaUGbkGvMZzBVLy+QAnrBkE77ozByDD7QDvcF0GodaLBxikp
QT7MPEGqQJrBqClQQa6sxUAMpXLBOy9oQVpN+EAEnm/B+zUvQblKgUFkPaLB+E/iQIyt30CHA5jB
PHs7QSiZTEHh6afBNt8BQSqxL0HxzpTBANvnQKt5J0GzzXDB/7ZcQcqESEFuO5HB/TWbQNdvFEF7
NXHBy4k8QV3bPEHBRGvBEEhZQf2VIUGH8GzB4XMWQfL9MUEqSW3BPa0pQczG30BrQXLBZWWIQPPM
7kBi4KDBcORvQLEGEkG9Y6TBLTZyQHzS+kADZq7BiVfZQOUSH0EPuLTBtCeoQFN9FEH58LnB1v6m
QMYaKUGz7q/B7ABEQTNAH0GCOKzBS45NQQJAJkGsIJ/BsGBOQYjjCkHHgaPBYzIgQdQ5DEFAL5DB
uGw5QYeC/0BvGZPBU5o4Qb4dG0FUuI7B35TZQCpw3ED3poPByS2gQJdS30C3cIPBSDxQQX8ZYUFY
FIjBGjRAQW9LSUGv14jBVRW+QAUQIEH4ypzB14QvQdv3ZUGzVJPBAvwfQbUhL0HY5qjBS8O/QLuS
90ADdGTBkXLIQAdO9kAEzqzBzPImQaZrCUHW2qPBkZ4GQd4O8UA6inHBAdpaQfOAbEEx0ZvBbDWx
QGFfFUH5WozBbVoEQT4REUHK3ajBVFklQcDDPUGQf5LBvlhkQSigQkFoW4vBj0OkQCnuIkESgnDB

> <OMEGA_E>
X2+4Pw==

> <OMEGA_NBR>
     56452

$$$$
50169577
  -OEChem-04172616093D

 81 82  0     1  0  0  0  0  0999 V2000
   15.3486    9.0873  -21.9414 C   0  0  0  0  0  0  0  0  0  0  0  0
   15.9811    8.5466  -20.8055 C   0  0  0  0  0  0  0  0  0  0  0  0
   14.4877   10.1941  -21.8111 C   0  0  0  0  0  0  0  0  0  0  0  0
   14.8802   10.2130  -19.4072 C   0  0  0  0  0  0  0  0  0  0  0  0
   15.7497    9.1074  -19.5261 C   0  0  0  0  0  0  0  0  0  0  0  0
   14.2492   10.7727  -20.5449 C   0  0  0  0  0  0  0  0  0  0  0  0
    6.9755    8.5997  -15.1638 C   0  0  0  0  0  0  0  0  0  0  0  0
   16.4137    8.5538  -18.3137 C   0  0  0  0  0  0  0  0  0  0  0  0
    6.8697    7.2556  -15.7549 C   0  0  0  0  0  0  0  0  0  0  0  0
   10.0837   10.9321  -19.3204 C   0  0  0  0  0  0  0  0  0  0  0  0
    6.9632    9.5006  -19.1342 C   0  0  0  0  0  0  0  0  0  0  0  0
    5.5863    6.3388  -19.0516 C   0  0  0  0  0  0  0  0  0  0  0  0
   12.9486   12.6229  -19.3858 C   0  0  0  0  0  0  0  0  0  0  0  0
   11.9475    8.9807  -15.6726 C   0  0  0  0  0  0  0  0  0  0  0  0
   10.6550   11.1374  -15.7091 C   0  0  0  0  0  0  0  0  0  0  0  0
    6.1566   10.2547  -21.9853 C   0  0  0  0  0  0  0  0  0  0  0  0
    4.5006    8.3542  -21.9699 C   0  0  0  0  0  0  0  0  0  0  0  0
   10.1282    9.2260  -17.4067 C   0  0  0  0  0  0  0  0  0  0  0  0
    5.3471    5.4561  -16.6919 C   0  0  0  0  0  0  0  0  0  0  0  0
   10.6462   13.2123  -20.2701 C   0  0  0  0  0  0  0  0  0  0  0  0
    9.2564   10.1382  -18.3050 C   0  0  2  0  0  0  0  0  0  0  0  0
    6.1721    8.5761  -20.0633 C   0  0  2  0  0  0  0  0  0  0  0  0
    4.6805    5.5738  -18.0762 C   0  0  2  0  0  0  0  0  0  0  0  0
   11.9529   13.7649  -19.6548 C   0  0  1  0  0  0  0  0  0  0  0  0
   11.2098    9.9851  -16.5841 C   0  0  0  0  0  0  0  0  0  0  0  0
    5.2844    9.3505  -21.0784 C   0  0  0  0  0  0  0  0  0  0  0  0
    5.8998    9.4860  -15.0545 N   0  5  0  0  0  0  0  0  0  0  0  0
    8.0570    9.1232  -14.6548 N   0  0  0  0  0  0  0  0  0  0  0  0
    6.5058   10.5715  -14.4503 N   0  0  0  0  0  0  0  0  0  0  0  0
    7.7431   10.3606  -14.2160 N   0  0  0  0  0  0  0  0  0  0  0  0
   13.3953   11.8890  -20.4951 N   0  0  0  0  0  0  0  0  0  0  0  0
    5.6092    6.7906  -16.1256 N   0  0  0  0  0  0  0  0  0  0  0  0
    9.9367   12.3153  -19.3438 N   0  0  0  0  0  0  0  0  0  0  0  0
    8.3331    9.3000  -19.0660 N   0  0  0  0  0  0  0  0  0  0  0  0
    5.3540    7.6999  -19.2157 N   0  0  0  0  0  0  0  0  0  0  0  0
    4.3934    4.2189  -18.5964 N   0  3  0  0  0  0  0  0  0  0  0  0
   16.1848    9.0620  -17.1803 O   0  5  0  0  0  0  0  0  0  0  0  0
   17.2069    7.5800  -18.4240 O   0  0  0  0  0  0  0  0  0  0  0  0
    7.8730    6.5606  -15.8839 O   0  0  0  0  0  0  0  0  0  0  0  0
   10.8125   10.3433  -20.1145 O   0  0  0  0  0  0  0  0  0  0  0  0
    6.3956   10.3641  -18.4699 O   0  0  0  0  0  0  0  0  0  0  0  0
    6.5159    5.7691  -19.6173 O   0  0  0  0  0  0  0  0  0  0  0  0
   13.3257   12.4179  -18.2370 O   0  0  0  0  0  0  0  0  0  0  0  0
   11.6521   14.4791  -18.4509 O   0  0  0  0  0  0  0  0  0  0  0  0
   15.5240    8.6524  -22.9143 H   0  0  0  0  0  0  0  0  0  0  0  0
   16.6451    7.7013  -20.9105 H   0  0  0  0  0  0  0  0  0  0  0  0
   14.0058   10.6039  -22.6865 H   0  0  0  0  0  0  0  0  0  0  0  0
   14.6929   10.6390  -18.4326 H   0  0  0  0  0  0  0  0  0  0  0  0
   12.3469    8.1565  -16.2820 H   0  0  0  0  0  0  0  0  0  0  0  0
   12.7755    9.4913  -15.1591 H   0  0  0  0  0  0  0  0  0  0  0  0
   11.2459    8.5786  -14.9270 H   0  0  0  0  0  0  0  0  0  0  0  0
   10.1264   11.8611  -16.3469 H   0  0  0  0  0  0  0  0  0  0  0  0
    9.9576   10.7282  -14.9633 H   0  0  0  0  0  0  0  0  0  0  0  0
   11.4872   11.6410  -15.1954 H   0  0  0  0  0  0  0  0  0  0  0  0
    6.7181   10.9667  -21.3626 H   0  0  0  0  0  0  0  0  0  0  0  0
    6.8612    9.6314  -22.5554 H   0  0  0  0  0  0  0  0  0  0  0  0
    5.5097   10.8079  -22.6820 H   0  0  0  0  0  0  0  0  0  0  0  0
    3.8772    7.7064  -21.3361 H   0  0  0  0  0  0  0  0  0  0  0  0
    3.8585    8.9128  -22.6667 H   0  0  0  0  0  0  0  0  0  0  0  0
    5.2099    7.7363  -22.5401 H   0  0  0  0  0  0  0  0  0  0  0  0
    9.4659    8.7003  -16.7032 H   0  0  0  0  0  0  0  0  0  0  0  0
   10.6361    8.4924  -18.0501 H   0  0  0  0  0  0  0  0  0  0  0  0
    4.6799    4.9015  -16.0157 H   0  0  0  0  0  0  0  0  0  0  0  0
    6.2987    4.9139  -16.7941 H   0  0  0  0  0  0  0  0  0  0  0  0
    9.9874   14.0565  -20.5215 H   0  0  0  0  0  0  0  0  0  0  0  0
   10.8930   12.6545  -21.1855 H   0  0  0  0  0  0  0  0  0  0  0  0
    8.6963   10.8383  -17.6678 H   0  0  0  0  0  0  0  0  0  0  0  0
    6.8865    7.9634  -20.6328 H   0  0  0  0  0  0  0  0  0  0  0  0
    3.7373    6.1286  -17.9643 H   0  0  0  0  0  0  0  0  0  0  0  0
   12.4086   14.4506  -20.3842 H   0  0  0  0  0  0  0  0  0  0  0  0
   11.9392   10.4103  -17.2892 H   0  0  0  0  0  0  0  0  0  0  0  0
    4.5699    9.9775  -20.5250 H   0  0  0  0  0  0  0  0  0  0  0  0
   13.0566   12.2065  -21.3808 H   0  0  0  0  0  0  0  0  0  0  0  0
    4.8300    7.4044  -15.9986 H   0  0  0  0  0  0  0  0  0  0  0  0
    9.3060   12.7282  -18.6866 H   0  0  0  0  0  0  0  0  0  0  0  0
    8.7160    8.5278  -19.5730 H   0  0  0  0  0  0  0  0  0  0  0  0
    4.5825    8.1068  -18.7265 H   0  0  0  0  0  0  0  0  0  0  0  0
    3.8033    3.7321  -17.9523 H   0  0  0  0  0  0  0  0  0  0  0  0
    3.9322    4.2923  -19.4807 H   0  0  0  0  0  0  0  0  0  0  0  0
    5.2506    3.7162  -18.7082 H   0  0  0  0  0  0  0  0  0  0  0  0
   12.1208   14.0865  -17.7237 H   0  0  0  0  0  0  0  0  0  0  0  0
  1  2  1  0  0  0  0
  1  3  2  0  0  0  0
  2  5  2  0  0  0  0
  3  6  1  0  0  0  0
  4  5  1  0  0  0  0
  4  6  2  0  0  0  0
  5  8  1  0  0  0  0
  6 31  1  0  0  0  0
  7  9  1  0  0  0  0
  7 27  1  0  0  0  0
  7 28  2  0  0  0  0
  8 37  1  0  0  0  0
  8 38  2  0  0  0  0
  9 32  1  0  0  0  0
  9 39  2  0  0  0  0
 10 21  1  0  0  0  0
 10 33  1  0  0  0  0
 10 40  2  0  0  0  0
 11 22  1  0  0  0  0
 11 34  1  0  0  0  0
 11 41  2  0  0  0  0
 12 23  1  0  0  0  0
 12 35  1  0  0  0  0
 12 42  2  0  0  0  0
 13 24  1  0  0  0  0
 13 31  1  0  0  0  0
 13 43  2  0  0  0  0
 14 25  1  0  0  0  0
 15 25  1  0  0  0  0
 16 26  1  0  0  0  0
 17 26  1  0  0  0  0
 18 21  1  0  0  0  0
 18 25  1  0  0  0  0
 19 23  1  0  0  0  0
 19 32  1  0  0  0  0
 20 24  1  0  0  0  0
 20 33  1  0  0  0  0
 21 34  1  0  0  0  0
 22 26  1  0  0  0  0
 22 35  1  0  0  0  0
 23 36  1  0  0  0  0
 24 44  1  0  0  0  0
 27 29  1  0  0  0  0
 28 30  1  0  0  0  0
 29 30  2  0  0  0  0
  1 45  1  0  0  0  0
  2 46  1  0  0  0  0
  3 47  1  0  0  0  0
  4 48  1  0  0  0  0
 14 49  1  0  0  0  0
 14 50  1  0  0  0  0
 14 51  1  0  0  0  0
 15 52  1  0  0  0  0
 15 53  1  0  0  0  0
 15 54  1  0  0  0  0
 16 55  1  0  0  0  0
 16 56  1  0  0  0  0
 16 57  1  0  0  0  0
 17 58  1  0  0  0  0
 17 59  1  0  0  0  0
 17 60  1  0  0  0  0
 18 61  1  0  0  0  0
 18 62  1  0  0  0  0
 19 63  1  0  0  0  0
 19 64  1  0  0  0  0
 20 65  1  0  0  0  0
 20 66  1  0  0  0  0
 21 67  1  0  0  0  0
 22 68  1  0  0  0  0
 23 69  1  0  0  0  0
 24 70  1  0  0  0  0
 25 71  1  0  0  0  0
 26 72  1  0  0  0  0
 31 73  1  0  0  0  0
 32 74  1  0  0  0  0
 33 75  1  0  0  0  0
 34 76  1  0  0  0  0
 35 77  1  0  0  0  0
 36 78  1  0  0  0  0
 36 79  1  0  0  0  0
 36 80  1  0  0  0  0
 44 81  1  0  0  0  0
M  CHG  3  27  -1  36   1  37  -1
M  END
> <OMEGA_C>
xZN1QaBlEUEFiK/BsbJ/QQu/CEGzcabBdM1nQScbI0Eufa7BKhVuQUtoI0H4QZvB9f57Qdy3EUGC
NZzByvxjQRtdLEEFXKTBBjffQFaYCUHonnLBPE+DQTLcCEFogpLBoNTbQCIu6EASFHzBBVchQQTq
LkEhkJrB6tLeQEUCGEHDEpnBNMOyQNHXykCtaZjBYy1PQYn3SUE4FpvBICk/QcGwD0EVw3rB0noq
QeEyMkFMWHvBAwPFQFkTJEHV4a/BNQWQQOGqBUFWwq/BGQ0iQaKdE0EEQYvBWBurQIaYrkD9iIXB
91YqQbplU0E4KaLBTBoUQQI2IkG1cJLB9IHFQKE3CUGWgaDB6saVQFhcskAYnJDB4j4/QeQ8XEH4
PJ3BdlszQfjCH0FSrITB1RmpQHibFUGToKjBacu8QIHGF0ET33DBT+kAQYL4EUHieWrB1S/QQNck
KUFWNGfBbsf3QC7FJUHIdGPBT1NWQUY5PkHt9aPBe36zQMlM2UA9AYHBo/weQawLRUEgwJrBc1QF
Qf3MFEEdh5jBylOrQFxl9kC4uZnBXZaMQAABh0BwxZTBdHqBQcn9EEFAcYnBw6eJQXiP8kBAZJPB
Yu/7QF7w0UBJJH7B1P8sQQt+JUFm6qDBnajMQIPTJUFUwpPBf4LQQD+cuEAs8JzBAzZVQZqvRkF0
5ZHB+m46QWiqZ0Fjm5PBKGJ4QURwCkF7ULfBFymFQT5x9kC6SKfB1hdgQWmpKUEHfrXBMRZrQUM5
KkH9dZPBxIxFQRSBAkGIQYLBXGhMQXrcF0GYi3LBJ+8zQcpBCUHf1G7BjgUiQQDHPUF8xoLBW1If
QbamK0GMaW/BkMs3QWZBOkFFIHPBAvvWQMh3L0Ga5qrB2o7bQEMaGkF8cbTB2k+wQFvtLEHWdLXB
rCR4QIWa9kBjsKrB/PB2QPOaDkFuVbXBfremQLWP90AUUrTBJ3QXQWg0C0EwoIXBbC0qQb7gB0GG
ZpDBacGVQDfZnEArIIDBzY7JQIw+nUBcWobBSswfQaDnYEEhLKTBj0kuQd14SkH0e6nBByQLQcRp
LUGlV43B8F3cQJLU/kADEKXBIDBvQFYdxEDkto/Be4lGQak1Z0HhEqPBGQc/Qa+QJkFaUIrBkzyS
QOWjH0EqM6TB5edQQa1NQ0HZC6vBLI+aQKvw7EA7+n/BiOUUQZumS0FAfpXBy3QLQQhyCEGHlZzB
+6OSQEu1AUHkz5XBy2hzQH7bbkBEno/Bl6l7QEFaiUB42JvB6wSoQPvWbUBkqpXBtO5BQWliYUE5
yo3BBs1OQXBcg0GPq4LBYtJcQcNjdUF3QYHB7oQ/Qfsxg0Eo6IrBrj1MQREqY0HUZ5DBLrZbQcNn
Y0E2HIjBABI+QSeMdEEZ5ZHBVw/XQGktC0F3mW3BmqxqQX4cUUHem4bBPG/HQDoZ7EDzj3TB9OgE
QeixSUHUf6HB3JjRQGlHH0GlDZzBWUGdQKx51kDkMZjB9gogQX7hgEHC453BiyMcQZOmI0HUG4XB
CPI9QZOiHEEWdY/BLRmGQH/YHUHpbKzBfhzPQK29FkFYcLTBHNkgQcMJM0FVB5jBrjGRQFyhwUCe
3oTBLDX6QGEBcUH04KPBeJ4IQStJN0HCl5nBy1bAQIO7CkF7OKHBKCx4QGihx0B27o/BJTkSQZ9o
e0G5k6fBdpIlQbnkH0FQX5DBbc6sQFtbDkE4kKzBJETFQPuVHkHkU3TB+/v2QF97DkESfmDBNo/e
QMMZLUGbYWnBcyn7QCLbI0GbAl7BAlcvQUfyckFZYJrBUYWkQNAJ6kBGMoHBEf4AQZPkXUGvUZ3B
D3f8QC/0I0HQo53BxdGgQMIPAUHz/5nB2qZQQNDcnkD9W5PBPOBpQSxFQUGt2YzBhDN4QTaWUUGt
O37BiNvYQCx2y0Bb+m3BnEQFQbyGRkE5MqvBqk26QHoLK0FrvpbBswm1QFClvECTnJzBZbscQZ17
iUGpd5nBdlINQe7shkHU263BdsZPQRgwikE2y3rB3YRoQVfKdUF5zHXBPs40QYbliUEF7ovB4UNL
QVd+VUHoqpXB5bwKQSj8JUF+uYXB53kfQWKsFUEnB4DBvnwjQU/4MUFAjIHBnbtEQdLzGUEQd5fB
7EFFQT72KkGq4ovBFD9BQVCqDkGQXYrBYYZbQD/YF0Hj0abBhsaQQLzPLUHQ26nBy4xwQCHiHkF3
gLTB64vqQCq3C0EfhbTBA1fBQAXGF0FchbzBJNfZQKCzJkG14LHB6PwnQbSJL0Ea4Z/BhT8oQTuH
QUFXrJTBXI5xQH5dt0CbJX7B4zqqQMH/qEBHdYXBGgDoQBOyfEEjIZ/Bz3rnQCplbEHc9qrBracB
Qb2yO0Fm0ZHBvFfbQHot/0BIIKLBiE5GQLxS4EBJPY/BLiUbQZK1b0H6Z6zBAWIeQRlYEUEkx5PB
UoWhQFCR/UDJia/B7t0vQXQ9ZUHDfp7BK+KXQOLBAkGFz4PBP84AQcCIX0GhXJXBwhcHQQmGGUHJ
yKHBeaiMQDzMCkHlI5bB3Z4lQOuPlUDB6Y3B1qMzQD4Bo0AhaprBjvt9QPpziEAKEpTBLkYQQaEz
jUG81anBlbJ6QXkRV0GsHKDBqQqAQVhjQUGiU6HB1+JmQbC8XkHfxqPBl6NdQSvfOkEI76nBwZ9x
QWoIM0HEQqbBqRRYQfCsUEGjv6jBptTTQL65CkHlkW3BTnh3QUoWHEFBlafB55uxQMuc+EBs9nTB
0joLQY08REFbJ6fBzeXeQGLzFUGAVp/Bi8GxQBDA00BcDZfBWZg6Qdlma0E15azBWJ0jQSQNGEF1
OI3BsJlBQc9jDkFD15nBsDycQDL29UCzI7bBI9eQQJbxHkFKNa3BUdslQVMcKUFU9Z/BFzd2QBRd
50D14YjBUJcSQSe6a0ERSanB0hoOQbIzMEHVIKDBxTnHQPYSBEFyXaXBLIyNQLi9wkAP2o/Bbi4k
QbRebUFc67HBksspQWejFEGkF5nBIeWxQIwiDUFetK/BNxfhQDnqHEHpzXjBkYLpQH+dCEEB0VvB
LksAQbO8JEGnXmvBDLgCQagUGUExt1rBoPJDQcEFV0EAr6zBbL6cQE0RAUHjBYTBorMTQfJgV0Ee
a6PBuSUBQQyfHkERX6TBdW+nQKcn80D1ep7BNoGcQA0dn0Dx+4jBq8hqQZpxD0G9O6zBTZmEQXpk
FUHXGKTBk12nQJN82UCiJmrB2u8AQfSFQ0Gbhq/BG0rTQDUAHEF7cpbB+pzWQEGZxkDVF5bBgA5D
QQhhe0HdE6nBER0iQaa8gEFgQLfBnOyCQZfmYUEJV5zB4qyHQbqjO0Feep7BdeRiQc1vb0FWzqLB
nn1SQV0FMEHJsa3BVp8SQd6CHEEjsIzBc1cmQeknCUFhvIjBNn4tQULpJEHIzInBAv1FQTf3C0G+
RqLB83pLQcw/G0HAa5bBMFREQeb8/kBZW5XBYtmzQEjO3EBH4rfBRdOBQDdZ6EDqa7HB2Z6PQGl0
AUGwsL3Bvm+gQFfMK0EqoqjBrDSEQJN5JUGivrTBMNJsQMUxGEHceajBufQqQUrVJUFMOKjB74Uv
QY49NkH5pJzBRYVNQObC+0A28I3BeVpPQEI+2UApc4LBUY4UQcj8eEFHlaPBp9kCQer1bEFgLK3B
oxIJQXX7M0EA6ZfBuxHfQBc+8EBi2qfBdXVnQHrstkCHDZXBPAEiQTIyYEEGp7fBDA4gQWqGB0FN
XpzBvj/LQCweFEE+trTB3gQ7QepGS0Fgx6/BlyKlQKt7DkE92IfBKgEbQSVPV0HpTJzBVGkFQbRs
GEGhbqvBhMmIQMjs+0BlLZ/BA1KEQNLRlEDJa4TBs++mQMYbh0A1lo3BhV20QCdcqUAoT4TB6kUt
QVNihUE9ArXB9lhrQWAgFkF77qXB7mZzQWcGEUHawpvBiKVdQd+0J0EKKafBStBfQSMkL0G3CZTB
Y61tQS97HUETvJLB2PxXQc1eNEHJS57BtZ7RQPBhC0ER92/BNyx2QTAiGEGuAojBKX+1QM/I80Af
7HbBwooTQR1ZPEFYr57B/YfcQAxeE0FUU53B0G6yQKOv0EDySZbBED1FQTwjV0G7TJrBGDEeQbDH
BkGAIIfBiaM7QVQM9ECBSZPBTyKPQMZVH0Hpa6rBHODNQLK0FUEuSrbBn/0mQdUmG0EQVZjBXHVz
QDNV3EBj44fBK84eQT5WY0Hi+JvBlgYRQW42JkFaaZnBpmLFQBTXAkGabKTBzA2PQF/Nu0BplY/B
pyQ2QQW2ZkFf15/BiY0lQQ/WBEEc4ZLBbaWtQDEtDUG5/q3B3dXPQOsmIEFtPnjBwkXvQPzZCUGe
VmHBSAbwQNH/KUFltGzBxAMBQTY0HUElhl/BkndKQTltRUHucKDBQoqXQEMd/EDXaIPBTWkaQa82
TUHzSJjBETYDQahTGEHg3J/BDl2mQPxU7UDvJ57BpzmgQBo/l0C/e4nBCaNwQecUI0H2/3/B8ImB
QbfHCEEJ/YbBDKW4QA9O0EB2sW7Bux0PQfALP0EyJ6jBQKvKQNxoG0EcjpXBKV3YQPARyUA4iJTB
hQ1KQSmGWUER2pDBVzs9QY8efEHoDp7BtLFvQbiJDEFvyKzB/wV+QfSGA0E30JrBRGFXQaKQK0FE
+q7BcjZbQQOgOEESMY3BnGQOQZCDDkE41YbBaSMdQZF57UDYi4PB2M0pQZ94EEGHoILB8OJAQUxG
8UB/qJvBxj9HQVK3A0FSyY7BV5U6Qff200CjtI/BKIpwQEAWGUE+gaTBl+ChQJReLEGQ0KbBnSZ7
QDV1JUE6aLHBtmPjQGWxCEF4xrjBKnm8QAbOG0EVTr3Bc8bgQGW3IkFrtrLB1tstQYkdGUHQXqDB
94kxQXRwJUHuhJPBYCxBQL157UCyT4zBbHdWQIx9ykBjOYHBR7QbQfphbkGETJXB/+sTQXoJZ0HJ
oqLBHRsKQeRMKEFKY5HBmZLdQGaa70C0pqfBDINsQNgEsEA8F5XBeY82QQdLY0GjeKjBu/oZQTPf
9UAhSpfBekOaQACxAEHh3bHBd1BDQafbREFxl6fBViCWQCD1DEF3TYbBKpQcQeklSkEhgpDBtFkJ
QdAFEkFWi6bBYS6HQNqL8UCTnJ/BPcqIQCr/iUCmKIXBMxmsQEiGgUCEjY7By3G3QG9soUAKmoTB
FG5GQVJ4fEGiApjB25NjQVSjFkFA1LLB0aFuQQEKDEEwl6rBKKRXQSolKUENj7DB+cBhQfuBJkEv
yp3B0MVtQZ/rE0H7+5/B/LdWQaFTMUE6EqbBn9rLQABKEEHQ3nHBkZ15QSYYCUEEO5fB3BqpQDr2
A0GEfXvBkU4UQYvdNkE0hZ/BnO/aQOPZEUG58pzBYjekQORw00CS25XBhXNHQQDpT0FfU5vBa8ke
QcgdA0EyKYfBCYo7QXWn6UAVW5PBoZSQQLdlIUGelqrBJMDNQAOhE0GZ67XB8HMnQUn3FUEKz5jB
9hGPQNTgvUCK1YLBK+ohQZv8XEFKKp/B18ERQXudIUF9iZnBquG/QCCFAkGWz6PB+Lx/QD51y0BC
A47BZRQ5QZmtY0EOT5zB/rclQc4gAEEc7JLB70arQFBzDUGMra3BrD7uQG7YBkH2J2fBvYrPQFMR
JUFTMHLB5c4CQf+yGEE1d2HBzAr0QB0MKkFC0mfBpiRLQW9GREGRpqTBR22uQGvR20BY1nzBG8kb
QTGhSEHd8pnBL/ACQRSZE0GaTp/Brq6dQCVX80BFS53ByBlJQHHxqUBEbZLBR9R4QXdwEEFY1Y3B
Bk2CQV1j8UDvQ5nBNkKJQHsdDUF0N4HBexoQQUP3N0EKGKnBv/XKQEcDHEHEi5XBrObEQKajvUA+
yZXBIlpNQRUZSkE9bpLBAx85QQdBb0E7fpLBYEJkQXiNEEGO6LrByM93Qeaq+0CIXKzBPhpPQZIp
MUFF6bbBnPVgQZqNLEGdtJXBqCoPQVQ1C0Ez5IbBGoMdQY/D5kAPRYPBN78qQa/iDEGI8ILBr2hA
QRR45UBMv5vBcYhHQbQo/UAPJo/BVEw6QeUmykCWeo/B3xlwQLHXHEHJs6TBir+lQI+aLUHwGKfB
mPyAQN7qJ0HLxbHBZ4vgQIJhBUFkEbjBbkm+QLUeGkH0IL3BYAzjQGbOH0EZdLLBa3QtQTQjE0Gg
9aDB78oyQY41IEFecZTBCYZmQP2DvEA95nrBZsmdQEL6nUDqYYPBM98WQcOiaUEyh5zBlLEgQYAI
W0G146fBFsULQafCJEGoaZHBu63UQF0G60CJqKbBn3BaQAYj6UCxNI3BEEU/QfbSbUGazKLBcsYZ
QUdZ7EDkC5fBBpqVQAvUAUHfdbHBu5JEQShXSkHoSKvB5d/JQCqZz0CYVHfB2hYdQRKWR0EM/pHB
kb4IQWrFCkGbUKXBeg+AQATU/kCbP57BdL8YQGEmpEDMY43BibgxQNh6s0Bhe5nB5WZrQAI7j0CX
b5PBy8hAQfVjZ0HVPI3BFfJsQROEKEGn55HBBsJzQYOuGUG+qZnBDONdQU9bOEGkj5TB+zpcQa5b
KkEswKbBxlRrQaZuGkHNKqTBj8RVQah+OUHZHJ/B6kDPQASwDkEepnHBukByQTvcCkFcbKzBB5Gu
QD6zAEHlznrB838QQSPbPEFWi5/BOKfZQKE8E0GPAZ3Bkw+uQKqVz0CHl5XBP4NBQdgPXEG3IZ7B
B8UfQe7LBkGC94jBjDg8QVwT90BkFpbBhsqIQFPUHkG0J6nBJXTFQCNcFUFdrrXBvQcmQSQyHEFB
JZrB9LOcQFQftUBHqYLBHjIaQTQeZEETU53BeKoPQcGYJkGfUZrBQ7bAQOqjAkH5pKPBaYiLQERh
wUDFv43BejQvQZTgZ0Gsk6PBveYlQVmbBUFB7JTB8g6nQKbADEFd/azB6ID0QFboBkFlBmjBXIHO
QA2LI0E2gHHBykQEQSjEGUEyb2LBaMXyQNY1KkH94mfBK9FGQV9uSEHOkKLBoo+4QFks1kC6aHzB
fQEYQfjcTUHGcpnBTE0BQfNfGEH/Q6DBPmiiQPLo7kCoy5zBrvVqQPp0nECYU5LB3X9qQRfWC0HO
urXBN+h/QdyM+UASGarBXaeMQPklCEHZq4DBOPYJQZugP0EQsqjBpdfJQGRnG0Fz/ZTBznTRQDuP
vkC30pXBaZxJQclFY0Fo85XBFRE0QdInfkFMJaTBpE9zQaG5J0HY4YnBM3h/QairDUFhl5fBxYlY
QeObQ0H5ko7B+4pVQUzsKkFgtq7BtssPQZoBDkF/KIjBxJkfQUUm7UDjjYXB0IwrQWCnEEHFq4TB
QYtAQS5s9UCcm57BhgVIQRJjBUEKzZHBexI8Qaid1kAor5LBsVxmQMqTGEGq86LB3N+bQEUKLEHJ
1KXBNKlrQPC1JEET9q/B+NbaQBJ0CEHHXbjB6peyQMY5G0EMgrzBLaPYQBuOIkHCYLLBUtIrQbi4
GkE2bKLBzu4wQWKRJkHqlJXBs3iBQIdGsEDQb3rBtfmuQGsql0B9W4PB7uEZQaj1bkHlZJbBJp4M
QQa/Z0Edn6LBnfcJQdRQKEGRCZLBC6rXQElB7kCEBKfBKy9pQPfH20DZwYzBNjQtQf1cYUHCsKvB
8CkaQXYV90BvIJnBtkGTQPkcAEE0mLDBs74+QT52REGALqnBjDnVQDHrzEC1AXfBRj0cQe/VSkEo
4pHBAKgGQX0BEkFIGafBTXGDQEOu9kD9V53BSEU9QHqZkkCvS43BnXtQQAq4pECST5nB1neKQADF
hEB/gpPBQhA/QWW7gEGnKp/B

> <OMEGA_E>
yl+VP3HpsD8JqZI/HrwtP7CgWz8kPzw/

> <OMEGA_NBR>
     64204

$$$$
50169567
  -OEChem-04172616093D

 78 79  0     1  0  0  0  0  0999 V2000
   14.8389    9.8456  -18.0807 C   0  0  0  0  0  0  0  0  0  0  0  0
   15.1286    9.0999  -19.2413 C   0  0  0  0  0  0  0  0  0  0  0  0
   14.0832   11.0318  -18.1668 C   0  0  0  0  0  0  0  0  0  0  0  0
   13.8877   10.7111  -20.5750 C   0  0  0  0  0  0  0  0  0  0  0  0
   14.6562    9.5343  -20.5028 C   0  0  0  0  0  0  0  0  0  0  0  0
   13.6150   11.4730  -19.4294 C   0  0  0  0  0  0  0  0  0  0  0  0
    6.6414    8.6569  -14.9678 C   0  0  0  0  0  0  0  0  0  0  0  0
   14.9819    8.7946  -21.7471 C   0  0  0  0  0  0  0  0  0  0  0  0
    5.7834    7.5733  -15.4606 C   0  0  0  0  0  0  0  0  0  0  0  0
    9.4812   11.3498  -19.9439 C   0  0  0  0  0  0  0  0  0  0  0  0
    6.8468    9.2493  -19.6380 C   0  0  0  0  0  0  0  0  0  0  0  0
    5.4889    6.6113  -18.8138 C   0  0  0  0  0  0  0  0  0  0  0  0
   12.3697   13.5754  -18.7837 C   0  0  0  0  0  0  0  0  0  0  0  0
    9.8994    8.6722  -17.1369 C   0  0  0  0  0  0  0  0  0  0  0  0
   10.9761    8.4499  -19.3970 C   0  0  0  0  0  0  0  0  0  0  0  0
    4.3799   10.1302  -21.2188 C   0  0  0  0  0  0  0  0  0  0  0  0
    6.3233    9.5571  -22.7314 C   0  0  0  0  0  0  0  0  0  0  0  0
    3.8083    6.9332  -16.9230 C   0  0  0  0  0  0  0  0  0  0  0  0
   10.2727   13.7328  -20.1778 C   0  0  0  0  0  0  0  0  0  0  0  0
    9.0887   10.1910  -19.0066 C   0  0  2  0  0  0  0  0  0  0  0  0
    6.0627    8.2906  -20.5529 C   0  0  2  0  0  0  0  0  0  0  0  0
    4.4017    5.9499  -17.9629 C   0  0  2  0  0  0  0  0  0  0  0  0
   11.3099   14.5344  -19.3631 C   0  0  1  0  0  0  0  0  0  0  0  0
   10.3231    9.4440  -18.4060 C   0  0  0  0  0  0  0  0  0  0  0  0
    5.3154    8.9988  -21.7116 C   0  0  0  0  0  0  0  0  0  0  0  0
    6.5090    9.9928  -15.3593 N   0  5  0  0  0  0  0  0  0  0  0  0
    7.6123    8.5184  -14.1068 N   0  0  0  0  0  0  0  0  0  0  0  0
    7.5116   10.5858  -14.6149 N   0  0  0  0  0  0  0  0  0  0  0  0
    8.1458    9.7391  -13.8965 N   0  0  0  0  0  0  0  0  0  0  0  0
   12.8828   12.6345  -19.6660 N   0  0  0  0  0  0  0  0  0  0  0  0
    4.7817    7.8896  -16.3706 N   0  0  0  0  0  0  0  0  0  0  0  0
    9.8114   12.5748  -19.3859 N   0  0  0  0  0  0  0  0  0  0  0  0
    8.2249    9.2575  -19.7405 N   0  0  0  0  0  0  0  0  0  0  0  0
    5.0977    7.5418  -19.7581 N   0  0  0  0  0  0  0  0  0  0  0  0
    4.9365    4.7541  -17.2858 N   0  3  0  0  0  0  0  0  0  0  0  0
   14.7291    9.3148  -22.8689 O   0  5  0  0  0  0  0  0  0  0  0  0
   15.5238    7.6595  -21.6778 O   0  0  0  0  0  0  0  0  0  0  0  0
    5.9509    6.4268  -15.0597 O   0  0  0  0  0  0  0  0  0  0  0  0
    9.3913   11.2298  -21.1620 O   0  0  0  0  0  0  0  0  0  0  0  0
    6.2697    9.9242  -18.7905 O   0  0  0  0  0  0  0  0  0  0  0  0
    6.6756    6.3422  -18.6420 O   0  0  0  0  0  0  0  0  0  0  0  0
   12.6518   13.6056  -17.5912 O   0  0  0  0  0  0  0  0  0  0  0  0
   10.6130   15.2160  -18.3275 O   0  0  0  0  0  0  0  0  0  0  0  0
   15.1981    9.5060  -17.1204 H   0  0  0  0  0  0  0  0  0  0  0  0
   15.7126    8.1944  -19.1677 H   0  0  0  0  0  0  0  0  0  0  0  0
   13.8622   11.6011  -17.2760 H   0  0  0  0  0  0  0  0  0  0  0  0
   13.5006   11.0334  -21.5303 H   0  0  0  0  0  0  0  0  0  0  0  0
    9.4332    9.3672  -16.4230 H   0  0  0  0  0  0  0  0  0  0  0  0
    9.1780    7.8875  -17.4088 H   0  0  0  0  0  0  0  0  0  0  0  0
   10.7852    8.2118  -16.6750 H   0  0  0  0  0  0  0  0  0  0  0  0
   11.2832    8.9867  -20.3067 H   0  0  0  0  0  0  0  0  0  0  0  0
   11.8582    7.9903  -18.9273 H   0  0  0  0  0  0  0  0  0  0  0  0
   10.2510    7.6660  -19.6611 H   0  0  0  0  0  0  0  0  0  0  0  0
    3.6631    9.7229  -20.4906 H   0  0  0  0  0  0  0  0  0  0  0  0
    4.9791   10.9193  -20.7412 H   0  0  0  0  0  0  0  0  0  0  0  0
    3.8330   10.5524  -22.0747 H   0  0  0  0  0  0  0  0  0  0  0  0
    6.9835    8.7476  -23.0761 H   0  0  0  0  0  0  0  0  0  0  0  0
    5.7804    9.9781  -23.5905 H   0  0  0  0  0  0  0  0  0  0  0  0
    6.9265   10.3451  -22.2569 H   0  0  0  0  0  0  0  0  0  0  0  0
    3.0025    7.5032  -17.4084 H   0  0  0  0  0  0  0  0  0  0  0  0
    3.3923    6.3457  -16.0913 H   0  0  0  0  0  0  0  0  0  0  0  0
    9.4150   14.3791  -20.4159 H   0  0  0  0  0  0  0  0  0  0  0  0
   10.7346   13.3781  -21.1110 H   0  0  0  0  0  0  0  0  0  0  0  0
    8.5175   10.6155  -18.1678 H   0  0  0  0  0  0  0  0  0  0  0  0
    6.7808    7.5863  -20.9982 H   0  0  0  0  0  0  0  0  0  0  0  0
    3.5872    5.6400  -18.6340 H   0  0  0  0  0  0  0  0  0  0  0  0
   11.8077   15.2530  -20.0307 H   0  0  0  0  0  0  0  0  0  0  0  0
   11.0748   10.1951  -18.1218 H   0  0  0  0  0  0  0  0  0  0  0  0
    4.6960    8.2471  -22.2226 H   0  0  0  0  0  0  0  0  0  0  0  0
   12.6959   12.8211  -20.6305 H   0  0  0  0  0  0  0  0  0  0  0  0
    4.7171    8.8404  -16.6736 H   0  0  0  0  0  0  0  0  0  0  0  0
    9.7332   12.6800  -18.3946 H   0  0  0  0  0  0  0  0  0  0  0  0
    8.6576    8.5912  -20.3478 H   0  0  0  0  0  0  0  0  0  0  0  0
    4.1217    7.7064  -19.9004 H   0  0  0  0  0  0  0  0  0  0  0  0
    4.2166    4.3328  -16.7343 H   0  0  0  0  0  0  0  0  0  0  0  0
    5.2582    4.0997  -17.9701 H   0  0  0  0  0  0  0  0  0  0  0  0
    5.6979    5.0188  -16.6940 H   0  0  0  0  0  0  0  0  0  0  0  0
   10.9922   14.9882  -17.4868 H   0  0  0  0  0  0  0  0  0  0  0  0
  1  2  1  0  0  0  0
  1  3  2  0  0  0  0
  2  5  2  0  0  0  0
  3  6  1  0  0  0  0
  4  5  1  0  0  0  0
  4  6  2  0  0  0  0
  5  8  1  0  0  0  0
  6 30  1  0  0  0  0
  7  9  1  0  0  0  0
  7 26  1  0  0  0  0
  7 27  2  0  0  0  0
  8 36  1  0  0  0  0
  8 37  2  0  0  0  0
  9 31  1  0  0  0  0
  9 38  2  0  0  0  0
 10 20  1  0  0  0  0
 10 32  1  0  0  0  0
 10 39  2  0  0  0  0
 11 21  1  0  0  0  0
 11 33  1  0  0  0  0
 11 40  2  0  0  0  0
 12 22  1  0  0  0  0
 12 34  1  0  0  0  0
 12 41  2  0  0  0  0
 13 23  1  0  0  0  0
 13 30  1  0  0  0  0
 13 42  2  0  0  0  0
 14 24  1  0  0  0  0
 15 24  1  0  0  0  0
 16 25  1  0  0  0  0
 17 25  1  0  0  0  0
 18 22  1  0  0  0  0
 18 31  1  0  0  0  0
 19 23  1  0  0  0  0
 19 32  1  0  0  0  0
 20 24  1  0  0  0  0
 20 33  1  0  0  0  0
 21 25  1  0  0  0  0
 21 34  1  0  0  0  0
 22 35  1  0  0  0  0
 23 43  1  0  0  0  0
 26 28  1  0  0  0  0
 27 29  1  0  0  0  0
 28 29  2  0  0  0  0
  1 44  1  0  0  0  0
  2 45  1  0  0  0  0
  3 46  1  0  0  0  0
  4 47  1  0  0  0  0
 14 48  1  0  0  0  0
 14 49  1  0  0  0  0
 14 50  1  0  0  0  0
 15 51  1  0  0  0  0
 15 52  1  0  0  0  0
 15 53  1  0  0  0  0
 16 54  1  0  0  0  0
 16 55  1  0  0  0  0
 16 56  1  0  0  0  0
 17 57  1  0  0  0  0
 17 58  1  0  0  0  0
 17 59  1  0  0  0  0
 18 60  1  0  0  0  0
 18 61  1  0  0  0  0
 19 62  1  0  0  0  0
 19 63  1  0  0  0  0
 20 64  1  0  0  0  0
 21 65  1  0  0  0  0
 22 66  1  0  0  0  0
 23 67  1  0  0  0  0
 24 68  1  0  0  0  0
 25 69  1  0  0  0  0
 30 70  1  0  0  0  0
 31 71  1  0  0  0  0
 32 72  1  0  0  0  0
 33 73  1  0  0  0  0
 34 74  1  0  0  0  0
 35 75  1  0  0  0  0
 35 76  1  0  0  0  0
 35 77  1  0  0  0  0
 43 78  1  0  0  0  0
M  CHG  3  26  -1  35   1  36  -1
M  END
> <OMEGA_C>
QGxtQY2HHUEupZDBuQ5yQRGZEUEn7pnB1VRhQRaCMEGFVZHB0zNeQaFgK0GImaTB5X9qQayMGEHB
BaTBI9dZQWCRN0F8b5vBk4bUQMKCCkEIfG/BurVvQZm2DEED+q3BqBG5QHlY8kDOXnfBGbMXQceY
NUEjjZ/BBhnbQPr8E0GgGp3BHKWvQMaP00CygpbBc+pFQd00WUEFRZbBxmMeQVDBCkFOGInBLZ4v
QcIyB0EXLZvBSyiMQC4VIkEhwKnBbVjKQNTpGEHu2bXB/btzQMfc3UBUYofBKV0kQbC5W0EybKHB
cGsRQW8OI0FvDZjBswHCQFCmBEFDbKTBD9uMQK5lvkDzs4/BZ/U0Qb6MaEGY55rBYCslQXUaF0GS
P5PB6heqQDz7D0FCsa3BFErQQIriH0Gjv3XBCpjzQGdLCEFCtWHBVV/wQFJfKUGV1mnBPlUCQXLT
G0HpV17BwR9OQeQmSkHgU53BwgOZQDh3/ED99oLBqfscQUgySUFrFpvBSJkDQbseFEGH7J3BmCCj
QJVW8UCoEJ7BJvidQMkhmEBrSYrBYaprQUkJFUFq87bBiWF4QVIa9UAqbK3BBm6+QHaozUBq9HDB
lkIWQXOtM0G1S6nBvqHIQLLJHkHtUpbB1Z7VQKfzykC9IpXBtm1KQYawWUG6uozBp84pQdl0c0G7
npLBcCtzQZ4YGEGY9ojB/GZ7QUQcA0F2V5nBectdQQieOUFKNYrBSQJYQQKJMEEJPqzBU+4WQR/g
FUFHYoPBG9kSQYVm/EAjRYvBJ5AsQZhjA0FYZoXB0Yc0QVnJD0E4dKLBRrs9QVWw/0AWa5fBOgQk
QatP9UDgSZ3BA3BqQNOQG0HQ7KPBMVWfQKO1LkHz7aXBxk91QJ/WKEENmbDBwnjfQPv1C0HQm7jB
9vi4QHamH0FFubzBRKbdQHmFJUEqDrLBPChAQH8a8EBlRIvBwxtZQKgPy0AEu4DB2qMWQawQZkGt
U6PBGMErQZEMVkFQ46jB2kcIQT7ZKUGjV5HBe/zYQA7D8kA4/KfBApVlQJB6tECIEpXBX+w8QXMM
dEHbPqDBVzIxQfgeI0Fy+ZDBPEWWQEr0A0H4x7HBgiJLQTkjTUEwC6XBr/KWQCByDUF5Y4XBHLsb
QWnhSkEcKJPBqIUKQYR1CUE+yKLBxeSDQIKa9kASNJ/Bh+6GQCSmikDm34XBKUOoQIkwg0DQwo/B
EFW2QDOaoEBMjYXB5d8vQanPb0H05IvBWGZsQbOrKkHiEJLBDzx0QdbeGkFAFJnBerxdQSIMOkHS
wJXBXWpeQeWYKUFQc6fBl1BtQQVBGkGw3aPBFeVWQRSTOUFihqDBJB3ZQA7IC0HeUnDBOJx1QQzh
CUFtYqvBo4TAQBl08UABcXbBMjcSQTbQOkHxAZ/BxKfXQDVHE0Hw0JzB3kSqQMAS0UDlspXBCuVD
Qe5eXEGTRqHB1eQiQQPoBUHgMJDBmUwuQXehEEFlv6LB8MOIQKVuIEEaaqnBa3vFQPKeFUE8rrXB
07F7QORA1UAMRoTB9QUdQZLrYUGA75zBI6EPQd3GJEFJcpnB8f29QHlAA0HApaPBOsOGQDYyvUAb
447B8w0vQatqZkGSHqXBdWIlQTf5GEG6/ZfBMsKlQEPDDUETG63BKXDOQFJ/IEFp3nbBI5X6QM8B
DEFL1mPBfMLtQMFRLEE4tGzBRJADQVeQIEFUx2HBbqZHQYCIR0GkiqTBzrqcQJEa90B9qIHBZQcc
QSJTS0G4W5nBXuwAQRgBF0Epj5/B7MyeQLtR8EDu9pzBaXKRQBVYkEC3jIzBP8VuQf5JCUFY4LTB
gNWBQTyo+UDUR6jBgjfKQNEnzkDsWW/B1uQJQQFEPkGou6fBY53HQOK5G0H+6JTBPpTPQMM1xUA9
zpTBD6tQQeidZkGP2JvBOskxQWTufEHvdabBDatxQUT5KkG11onBgZR/QRYpD0GuN5bB/LlXQeQq
RkGyYJDB+LxYQVcLKUErm6/B7Y0cQSGuC0GIgYjB4MYXQQo99ECboJPB55QyQVe4/EBd5Y7BOCEw
QRwTHkFPWqjBY/U9QckOCUEJaKHBXCcjQSPRBEFHI6bBU4RkQBamGkEmTKPBb66cQGhCLUFiBabB
MoBtQBOqJkF2TbDBOunZQLc8CEGsPrjBGqGzQAbTG0H+mbzBcI/ZQFtrIkHpUbLBEdY7QMHm40A4
1YTBF018QBq3vUBCdnvB7aofQeYZbEFR4ZXBR54NQU0TZkFUpqDBpNYIQTmQJ0HHcpHBVI/UQPr9
7kAO+abBMTRSQDfcvUB4n5PBeZMqQWUKX0EEyqzB4PowQYRPJEFJkpTBGjKRQHF+AUGPw7DBhF0+
QXb1QUE2bqrBL6SXQF8cCkEAuYTB9ekiQUSrR0E7X5LBdpUGQaTeD0EDI6bB1sF/QBEN+ECWrJ3B
q4V0QAlUg0A4GYjBcjeUQOIZgEBXaJPBLSStQK8Wj0DUjYjBUN0+QdyggEGAP6PB

> <OMEGA_E>
oj8CPzJQMD8=

> <OMEGA_NBR>
     66984

$$$$
50169585
  -OEChem-04172616093D

 78 79  0     1  0  0  0  0  0999 V2000
    5.2304    5.2652  -18.7044 C   0  0  0  0  0  0  0  0  0  0  0  0
    5.5078    5.5896  -17.3663 C   0  0  0  0  0  0  0  0  0  0  0  0
    5.3791    6.2301  -19.7145 C   0  0  0  0  0  0  0  0  0  0  0  0
    6.0910    7.8601  -18.0447 C   0  0  0  0  0  0  0  0  0  0  0  0
    5.9389    6.8918  -17.0199 C   0  0  0  0  0  0  0  0  0  0  0  0
    5.8148    7.5423  -19.3948 C   0  0  0  0  0  0  0  0  0  0  0  0
   17.8733   12.1679  -21.4239 C   0  0  0  0  0  0  0  0  0  0  0  0
    6.2144    7.2340  -15.5969 C   0  0  0  0  0  0  0  0  0  0  0  0
   16.6919   13.0398  -21.4373 C   0  0  0  0  0  0  0  0  0  0  0  0
    5.7663    8.5516  -21.7260 C   0  0  0  0  0  0  0  0  0  0  0  0
    8.8686   10.8651  -21.1697 C   0  0  0  0  0  0  0  0  0  0  0  0
   14.2379   14.1538  -19.5825 C   0  0  0  0  0  0  0  0  0  0  0  0
   11.4118   12.6103  -20.0606 C   0  0  0  0  0  0  0  0  0  0  0  0
   11.4682    8.6781  -18.1797 C   0  0  0  0  0  0  0  0  0  0  0  0
    9.5000    8.7640  -16.6078 C   0  0  0  0  0  0  0  0  0  0  0  0
   10.8505   16.2438  -18.7134 C   0  0  0  0  0  0  0  0  0  0  0  0
   10.2101   15.2816  -20.9678 C   0  0  0  0  0  0  0  0  0  0  0  0
    6.0470    9.8454  -22.5025 C   0  0  0  0  0  0  0  0  0  0  0  0
    9.2591    9.7869  -18.9051 C   0  0  0  0  0  0  0  0  0  0  0  0
    7.4919    9.8761  -23.0416 C   0  0  0  0  0  0  0  0  0  0  0  0
   15.7877   16.1454  -19.5255 C   0  0  0  0  0  0  0  0  0  0  0  0
    9.8997   10.6041  -20.0550 C   0  0  2  0  0  0  0  0  0  0  0  0
   15.3953   14.8634  -20.2901 C   0  0  1  0  0  0  0  0  0  0  0  0
   11.7443   13.9457  -19.3769 C   0  0  2  0  0  0  0  0  0  0  0  0
   10.2454    9.5109  -17.7275 C   0  0  0  0  0  0  0  0  0  0  0  0
   10.5486   14.9415  -19.4931 C   0  0  0  0  0  0  0  0  0  0  0  0
   18.8448   12.2073  -20.4189 N   0  5  0  0  0  0  0  0  0  0  0  0
   18.1716   11.2720  -22.3264 N   0  0  0  0  0  0  0  0  0  0  0  0
   19.7224   11.2353  -20.8603 N   0  0  0  0  0  0  0  0  0  0  0  0
   19.3364   10.6974  -21.9554 N   0  0  0  0  0  0  0  0  0  0  0  0
    5.9796    8.5714  -20.3410 N   0  0  0  0  0  0  0  0  0  0  0  0
   16.5529   13.9739  -20.4152 N   0  0  0  0  0  0  0  0  0  0  0  0
    8.4812    9.7875  -21.9566 N   0  0  0  0  0  0  0  0  0  0  0  0
   10.3908   11.8653  -19.5017 N   0  0  0  0  0  0  0  0  0  0  0  0
   12.9576   14.5359  -19.9433 N   0  0  0  0  0  0  0  0  0  0  0  0
    6.5366    8.4113  -15.2811 O   0  5  0  0  0  0  0  0  0  0  0  0
    6.1071    6.3465  -14.7065 O   0  0  0  0  0  0  0  0  0  0  0  0
   15.8568   12.9369  -22.3315 O   0  0  0  0  0  0  0  0  0  0  0  0
    5.4621    7.5437  -22.3543 O   0  0  0  0  0  0  0  0  0  0  0  0
    8.4541   11.9991  -21.3987 O   0  0  0  0  0  0  0  0  0  0  0  0
   14.4409   13.3096  -18.7121 O   0  0  0  0  0  0  0  0  0  0  0  0
   12.0322   12.2138  -21.0450 O   0  0  0  0  0  0  0  0  0  0  0  0
   16.2209   15.8453  -18.1971 O   0  0  0  0  0  0  0  0  0  0  0  0
    4.9009    4.2685  -18.9582 H   0  0  0  0  0  0  0  0  0  0  0  0
    5.3913    4.8405  -16.5971 H   0  0  0  0  0  0  0  0  0  0  0  0
    5.1607    5.9718  -20.7401 H   0  0  0  0  0  0  0  0  0  0  0  0
    6.4230    8.8558  -17.7902 H   0  0  0  0  0  0  0  0  0  0  0  0
   12.0006    9.2126  -18.9802 H   0  0  0  0  0  0  0  0  0  0  0  0
   12.1453    8.5279  -17.3260 H   0  0  0  0  0  0  0  0  0  0  0  0
   11.1282    7.7014  -18.5543 H   0  0  0  0  0  0  0  0  0  0  0  0
    8.6306    9.3566  -16.2867 H   0  0  0  0  0  0  0  0  0  0  0  0
    9.1597    7.7873  -16.9822 H   0  0  0  0  0  0  0  0  0  0  0  0
   10.1768    8.6138  -15.7538 H   0  0  0  0  0  0  0  0  0  0  0  0
   11.0901   15.9989  -17.6681 H   0  0  0  0  0  0  0  0  0  0  0  0
   11.7068   16.7573  -19.1750 H   0  0  0  0  0  0  0  0  0  0  0  0
    9.9692   16.9015  -18.7430 H   0  0  0  0  0  0  0  0  0  0  0  0
    9.9961   14.3540  -21.5188 H   0  0  0  0  0  0  0  0  0  0  0  0
    9.3283   15.9384  -20.9994 H   0  0  0  0  0  0  0  0  0  0  0  0
   11.0659   15.7943  -21.4314 H   0  0  0  0  0  0  0  0  0  0  0  0
    5.3477    9.9137  -23.3488 H   0  0  0  0  0  0  0  0  0  0  0  0
    5.8968   10.7047  -21.8324 H   0  0  0  0  0  0  0  0  0  0  0  0
    8.3966   10.3474  -18.5154 H   0  0  0  0  0  0  0  0  0  0  0  0
    8.9175    8.8225  -19.3090 H   0  0  0  0  0  0  0  0  0  0  0  0
    7.6353    9.0259  -23.7246 H   0  0  0  0  0  0  0  0  0  0  0  0
    7.6476   10.8170  -23.5896 H   0  0  0  0  0  0  0  0  0  0  0  0
   16.6047   16.6479  -20.0640 H   0  0  0  0  0  0  0  0  0  0  0  0
   14.9157   16.8140  -19.4756 H   0  0  0  0  0  0  0  0  0  0  0  0
   10.7376   10.0276  -20.4739 H   0  0  0  0  0  0  0  0  0  0  0  0
   15.0566   15.1558  -21.2950 H   0  0  0  0  0  0  0  0  0  0  0  0
   11.9107   13.7470  -18.3078 H   0  0  0  0  0  0  0  0  0  0  0  0
   10.6006   10.4753  -17.3354 H   0  0  0  0  0  0  0  0  0  0  0  0
    9.6656   14.4672  -19.0399 H   0  0  0  0  0  0  0  0  0  0  0  0
    6.2954    9.4449  -19.9704 H   0  0  0  0  0  0  0  0  0  0  0  0
   17.2796   14.0414  -19.7316 H   0  0  0  0  0  0  0  0  0  0  0  0
    8.9002    8.8980  -21.7744 H   0  0  0  0  0  0  0  0  0  0  0  0
    9.9612   12.2102  -18.6672 H   0  0  0  0  0  0  0  0  0  0  0  0
   12.8559   15.2560  -20.6298 H   0  0  0  0  0  0  0  0  0  0  0  0
   16.4556   16.6503  -17.7506 H   0  0  0  0  0  0  0  0  0  0  0  0
  1  2  1  0  0  0  0
  1  3  2  0  0  0  0
  2  5  2  0  0  0  0
  3  6  1  0  0  0  0
  4  5  1  0  0  0  0
  4  6  2  0  0  0  0
  5  8  1  0  0  0  0
  6 31  1  0  0  0  0
  7  9  1  0  0  0  0
  7 27  1  0  0  0  0
  7 28  2  0  0  0  0
  8 36  1  0  0  0  0
  8 37  2  0  0  0  0
  9 32  1  0  0  0  0
  9 38  2  0  0  0  0
 10 18  1  0  0  0  0
 10 31  1  0  0  0  0
 10 39  2  0  0  0  0
 11 22  1  0  0  0  0
 11 33  1  0  0  0  0
 11 40  2  0  0  0  0
 12 23  1  0  0  0  0
 12 35  1  0  0  0  0
 12 41  2  0  0  0  0
 13 24  1  0  0  0  0
 13 34  1  0  0  0  0
 13 42  2  0  0  0  0
 14 25  1  0  0  0  0
 15 25  1  0  0  0  0
 16 26  1  0  0  0  0
 17 26  1  0  0  0  0
 18 20  1  0  0  0  0
 19 22  1  0  0  0  0
 19 25  1  0  0  0  0
 20 33  1  0  0  0  0
 21 23  1  0  0  0  0
 21 43  1  0  0  0  0
 22 34  1  0  0  0  0
 23 32  1  0  0  0  0
 24 26  1  0  0  0  0
 24 35  1  0  0  0  0
 27 29  1  0  0  0  0
 28 30  1  0  0  0  0
 29 30  2  0  0  0  0
  1 44  1  0  0  0  0
  2 45  1  0  0  0  0
  3 46  1  0  0  0  0
  4 47  1  0  0  0  0
 14 48  1  0  0  0  0
 14 49  1  0  0  0  0
 14 50  1  0  0  0  0
 15 51  1  0  0  0  0
 15 52  1  0  0  0  0
 15 53  1  0  0  0  0
 16 54  1  0  0  0  0
 16 55  1  0  0  0  0
 16 56  1  0  0  0  0
 17 57  1  0  0  0  0
 17 58  1  0  0  0  0
 17 59  1  0  0  0  0
 18 60  1  0  0  0  0
 18 61  1  0  0  0  0
 19 62  1  0  0  0  0
 19 63  1  0  0  0  0
 20 64  1  0  0  0  0
 20 65  1  0  0  0  0
 21 66  1  0  0  0  0
 21 67  1  0  0  0  0
 22 68  1  0  0  0  0
 23 69  1  0  0  0  0
 24 70  1  0  0  0  0
 25 71  1  0  0  0  0
 26 72  1  0  0  0  0
 31 73  1  0  0  0  0
 32 74  1  0  0  0  0
 33 75  1  0  0  0  0
 34 76  1  0  0  0  0
 35 77  1  0  0  0  0
 43 78  1  0  0  0  0
M  CHG  2  27  -1  36  -1
M  END
> <OMEGA_C>
WF+nQHx8qECuopXBxD+wQAzeskAw7orB7CGsQLpcx0BEt53BbOnCQAaG+0CRW5DBLAu+QMKJ3EDW
KIjBvBK6QCha8UCiKJvBlfyOQbGvQkErZKvBPNzGQNx850D2jHnBFImFQdeiUEGWf6vBqIW4QIvT
CEHazq3BrOUNQZTXLUF4W6nBeM5jQcd1YkH0qJzBsJY2QfrDSUEGfKDBqH03QafZCkEQcJHB5P8X
QXI5DEG33ITBmJstQWbzgUELtZXBoFwjQaKBdEEVvqfBSIHBQM+GHUEaBbTBSCUUQQGXHEGUPZfB
cL3vQGoEHkEvVbjBhpp8QcMpgUE2NJzBKmUeQXCqKUGKcKDBSFN2QaTQbUEQUqLBsOg7QWwhX0HQ
A5vB+OwjQYosGEHk0Y3B5sYoQToQb0H08ZvBLsKWQSxRQ0H7WaPBcl+RQUJaNEFynLLBfMedQcfD
M0Hf4abB5LCaQbooK0GxpK/BSFm/QEgkCUFHuqLBS2yEQRKVX0E+UqPB5LIHQY+ZHEE1p6/BrEAm
QW7YPUGKA5zBbFJPQSeTaEHyi5/BHCzRQJ6UBkGAf3TBEG3DQOoWy0CmTWvBkLV9QVj9TkHWprLB
3MmuQN5l8UCU1bLBHEQHQXP8P0GdMKvB9A1nQS/0VEF4spXBwINAQdprQ0EgXKjBdcSBQT6GfUG2
k5HBXdScQFSXiEBjqpfBh4WsQPvkmkD1xoTBiySlQLoYv0DP66XB14jNQGqxDUFTUo7BnAJAQd1m
E0GE15fBPlNCQUtyCEGRm4rBAw0yQbtx9kBPb5TBJBcKQbm0FUEaS4LB+40SQWsx+UB124fBN9Qi
QSPSCUFsD3zB43AxQU37f0FWWI3B/047QfMOhkF/ZpnB0oEfQS42h0Gt8ZXBMfAfQeKpZUGZJqzB
lUAVQcYDf0G2/qfBwg0xQVC1fEGIc6vBpiCrQJ6eHkFwyrrBQrK8QI9GK0HLqK7BalgGQfyOJUF+
H5TB4a0OQcMoDUHheJrBLVT0QONpEEEQzL3BXLn0QIUSLUGat7zBhdaEQfAuhUH8gqDBqaZuQRyD
hkEJzpvBPM0rQRVxIEGjyqPB2edwQRh+ckESXKrBCJI+Qd/zW0FjdpLBIZwpQaGaJ0HQrorBMaYa
Qat5Z0G9UZjBtnPJQCkeF0Flw5/BrDyKQbOpYEFI2p3BXGcOQTleDkEJMq7B8WAfQRhdQ0FgVpXB
+LFNQWAYdEHQCaXBHaWDQc0zhUFHAY7B

> <OMEGA_E>
YxPJPw==

> <OMEGA_NBR>
     68572

$$$$
50169589
  -OEChem-04172616093D

 80 81  0     1  0  0  0  0  0999 V2000
   14.7658   10.0913  -18.0915 C   0  0  0  0  0  0  0  0  0  0  0  0
   15.1109    9.2842  -19.1970 C   0  0  0  0  0  0  0  0  0  0  0  0
   13.9358   11.2195  -18.2634 C   0  0  0  0  0  0  0  0  0  0  0  0
   13.7790   10.7114  -20.6425 C   0  0  0  0  0  0  0  0  0  0  0  0
   14.6211    9.5979  -20.4876 C   0  0  0  0  0  0  0  0  0  0  0  0
   13.4469   11.5297  -19.5556 C   0  0  0  0  0  0  0  0  0  0  0  0
    6.6205    8.6850  -15.0038 C   0  0  0  0  0  0  0  0  0  0  0  0
   14.9856    8.7905  -21.6776 C   0  0  0  0  0  0  0  0  0  0  0  0
    5.7608    7.5754  -15.4343 C   0  0  0  0  0  0  0  0  0  0  0  0
   12.2580   13.7244  -19.1659 C   0  0  0  0  0  0  0  0  0  0  0  0
    9.1384   11.8017  -19.9477 C   0  0  0  0  0  0  0  0  0  0  0  0
    6.8111    9.2582  -19.6772 C   0  0  0  0  0  0  0  0  0  0  0  0
    5.5284    6.5401  -18.7851 C   0  0  0  0  0  0  0  0  0  0  0  0
    9.9111    8.4491  -17.0184 C   0  0  0  0  0  0  0  0  0  0  0  0
   11.6890    7.6570  -18.6160 C   0  0  0  0  0  0  0  0  0  0  0  0
    4.3298   10.0077  -21.2252 C   0  0  0  0  0  0  0  0  0  0  0  0
    6.2351    9.4086  -22.7795 C   0  0  0  0  0  0  0  0  0  0  0  0
   11.2884   14.6537  -19.8982 C   0  0  0  0  0  0  0  0  0  0  0  0
   10.3820    9.7356  -19.1794 C   0  0  0  0  0  0  0  0  0  0  0  0
    9.8092   14.2524  -19.6610 C   0  0  0  0  0  0  0  0  0  0  0  0
    3.8277    6.8437  -16.9084 C   0  0  0  0  0  0  0  0  0  0  0  0
    9.0056   10.4266  -19.2663 C   0  0  2  0  0  0  0  0  0  0  0  0
    6.0532    8.2291  -20.5391 C   0  0  2  0  0  0  0  0  0  0  0  0
    4.4567    5.8597  -17.9266 C   0  0  2  0  0  0  0  0  0  0  0  0
   10.3141    8.3362  -18.5050 C   0  0  0  0  0  0  0  0  0  0  0  0
    5.2672    8.8743  -21.7068 C   0  0  0  0  0  0  0  0  0  0  0  0
    6.4856    9.9963  -15.4710 N   0  5  0  0  0  0  0  0  0  0  0  0
    7.5979    8.5969  -14.1433 N   0  0  0  0  0  0  0  0  0  0  0  0
    7.5112   10.6258  -14.7917 N   0  0  0  0  0  0  0  0  0  0  0  0
    8.1471    9.8236  -14.0256 N   0  0  0  0  0  0  0  0  0  0  0  0
   12.6286   12.6028  -19.8857 N   0  0  0  0  0  0  0  0  0  0  0  0
    4.7714    7.8388  -16.3737 N   0  0  0  0  0  0  0  0  0  0  0  0
    9.6359   12.8575  -19.1923 N   0  0  0  0  0  0  0  0  0  0  0  0
    8.1135    9.5520  -20.0332 N   0  0  0  0  0  0  0  0  0  0  0  0
    5.1142    7.4673  -19.7219 N   0  0  0  0  0  0  0  0  0  0  0  0
    5.0227    4.6950  -17.2215 N   0  3  0  0  0  0  0  0  0  0  0  0
   14.7170    9.2213  -22.8335 O   0  5  0  0  0  0  0  0  0  0  0  0
   15.5625    7.6811  -21.5280 O   0  0  0  0  0  0  0  0  0  0  0  0
    5.9218    6.4532  -14.9669 O   0  0  0  0  0  0  0  0  0  0  0  0
   12.5030   13.8875  -17.9760 O   0  0  0  0  0  0  0  0  0  0  0  0
    8.7745   11.9642  -21.1081 O   0  0  0  0  0  0  0  0  0  0  0  0
    6.2852    9.7738  -18.6947 O   0  0  0  0  0  0  0  0  0  0  0  0
    6.7210    6.2932  -18.6225 O   0  0  0  0  0  0  0  0  0  0  0  0
   15.1390    9.8441  -17.1087 H   0  0  0  0  0  0  0  0  0  0  0  0
   15.7504    8.4250  -19.0578 H   0  0  0  0  0  0  0  0  0  0  0  0
   13.6762   11.8398  -17.4183 H   0  0  0  0  0  0  0  0  0  0  0  0
   13.3798   10.9412  -21.6193 H   0  0  0  0  0  0  0  0  0  0  0  0
    8.9274    8.9351  -16.9406 H   0  0  0  0  0  0  0  0  0  0  0  0
    9.8593    7.4436  -16.5753 H   0  0  0  0  0  0  0  0  0  0  0  0
   10.6599    9.0489  -16.4802 H   0  0  0  0  0  0  0  0  0  0  0  0
   11.9747    7.5773  -19.6752 H   0  0  0  0  0  0  0  0  0  0  0  0
   12.4384    8.2565  -18.0783 H   0  0  0  0  0  0  0  0  0  0  0  0
   11.6378    6.6513  -18.1734 H   0  0  0  0  0  0  0  0  0  0  0  0
    3.6433    9.6162  -20.4601 H   0  0  0  0  0  0  0  0  0  0  0  0
    4.9308   10.8229  -20.7958 H   0  0  0  0  0  0  0  0  0  0  0  0
    3.7490   10.3900  -22.0776 H   0  0  0  0  0  0  0  0  0  0  0  0
    6.8964    8.5961  -23.1148 H   0  0  0  0  0  0  0  0  0  0  0  0
    5.6591    9.7894  -23.6358 H   0  0  0  0  0  0  0  0  0  0  0  0
    6.8408   10.2222  -22.3541 H   0  0  0  0  0  0  0  0  0  0  0  0
   11.4400   15.6816  -19.5368 H   0  0  0  0  0  0  0  0  0  0  0  0
   11.5000   14.6094  -20.9768 H   0  0  0  0  0  0  0  0  0  0  0  0
   10.7795    9.6156  -20.1980 H   0  0  0  0  0  0  0  0  0  0  0  0
   11.0595   10.3749  -18.5944 H   0  0  0  0  0  0  0  0  0  0  0  0
    9.3837   14.9279  -18.9043 H   0  0  0  0  0  0  0  0  0  0  0  0
    9.2616   14.3708  -20.6076 H   0  0  0  0  0  0  0  0  0  0  0  0
    3.0067    7.3793  -17.4074 H   0  0  0  0  0  0  0  0  0  0  0  0
    3.4268    6.2604  -16.0664 H   0  0  0  0  0  0  0  0  0  0  0  0
    8.6114   10.5676  -18.2491 H   0  0  0  0  0  0  0  0  0  0  0  0
    6.7929    7.5391  -20.9712 H   0  0  0  0  0  0  0  0  0  0  0  0
    3.6560    5.5120  -18.5960 H   0  0  0  0  0  0  0  0  0  0  0  0
    9.5677    7.7239  -19.0321 H   0  0  0  0  0  0  0  0  0  0  0  0
    4.6451    8.0934  -22.1684 H   0  0  0  0  0  0  0  0  0  0  0  0
   12.2390   12.5562  -20.8055 H   0  0  0  0  0  0  0  0  0  0  0  0
    4.6946    8.7765  -16.7126 H   0  0  0  0  0  0  0  0  0  0  0  0
    9.9003   12.6577  -18.2488 H   0  0  0  0  0  0  0  0  0  0  0  0
    8.4718    9.1399  -20.8709 H   0  0  0  0  0  0  0  0  0  0  0  0
    4.1339    7.6223  -19.8446 H   0  0  0  0  0  0  0  0  0  0  0  0
    4.3118    4.2628  -16.6667 H   0  0  0  0  0  0  0  0  0  0  0  0
    5.3696    4.0371  -17.8900 H   0  0  0  0  0  0  0  0  0  0  0  0
    5.7709    4.9950  -16.6298 H   0  0  0  0  0  0  0  0  0  0  0  0
  1  2  1  0  0  0  0
  1  3  2  0  0  0  0
  2  5  2  0  0  0  0
  3  6  1  0  0  0  0
  4  5  1  0  0  0  0
  4  6  2  0  0  0  0
  5  8  1  0  0  0  0
  6 31  1  0  0  0  0
  7  9  1  0  0  0  0
  7 27  1  0  0  0  0
  7 28  2  0  0  0  0
  8 37  1  0  0  0  0
  8 38  2  0  0  0  0
  9 32  1  0  0  0  0
  9 39  2  0  0  0  0
 10 18  1  0  0  0  0
 10 31  1  0  0  0  0
 10 40  2  0  0  0  0
 11 22  1  0  0  0  0
 11 33  1  0  0  0  0
 11 41  2  0  0  0  0
 12 23  1  0  0  0  0
 12 34  1  0  0  0  0
 12 42  2  0  0  0  0
 13 24  1  0  0  0  0
 13 35  1  0  0  0  0
 13 43  2  0  0  0  0
 14 25  1  0  0  0  0
 15 25  1  0  0  0  0
 16 26  1  0  0  0  0
 17 26  1  0  0  0  0
 18 20  1  0  0  0  0
 19 22  1  0  0  0  0
 19 25  1  0  0  0  0
 20 33  1  0  0  0  0
 21 24  1  0  0  0  0
 21 32  1  0  0  0  0
 22 34  1  0  0  0  0
 23 26  1  0  0  0  0
 23 35  1  0  0  0  0
 24 36  1  0  0  0  0
 27 29  1  0  0  0  0
 28 30  1  0  0  0  0
 29 30  2  0  0  0  0
  1 44  1  0  0  0  0
  2 45  1  0  0  0  0
  3 46  1  0  0  0  0
  4 47  1  0  0  0  0
 14 48  1  0  0  0  0
 14 49  1  0  0  0  0
 14 50  1  0  0  0  0
 15 51  1  0  0  0  0
 15 52  1  0  0  0  0
 15 53  1  0  0  0  0
 16 54  1  0  0  0  0
 16 55  1  0  0  0  0
 16 56  1  0  0  0  0
 17 57  1  0  0  0  0
 17 58  1  0  0  0  0
 17 59  1  0  0  0  0
 18 60  1  0  0  0  0
 18 61  1  0  0  0  0
 19 62  1  0  0  0  0
 19 63  1  0  0  0  0
 20 64  1  0  0  0  0
 20 65  1  0  0  0  0
 21 66  1  0  0  0  0
 21 67  1  0  0  0  0
 22 68  1  0  0  0  0
 23 69  1  0  0  0  0
 24 70  1  0  0  0  0
 25 71  1  0  0  0  0
 26 72  1  0  0  0  0
 31 73  1  0  0  0  0
 32 74  1  0  0  0  0
 33 75  1  0  0  0  0
 34 76  1  0  0  0  0
 35 77  1  0  0  0  0
 36 78  1  0  0  0  0
 36 79  1  0  0  0  0
 36 80  1  0  0  0  0
M  CHG  3  27  -1  36   1  37  -1
M  END
> <OMEGA_C>
k0BsQSp2IUFhu5DBa8ZxQeOLFEF3k5nB+PheQfKCM0F3G5LB9nZcQQdiK0HaI6XB5+9pQdSQGUGw
5qPBYCZXQYN5OEHScZzBatvTQNf1CkGLD3DBNMVvQf2lDEGta63Bvli4QNVp8kDX8nbB5iBEQUKX
W0G3U5nByzYSQanTPEHPlJ/BVfTZQJghFEHRap3B8eiwQGNI0UDYR5bBDJQeQXwvB0G2JYjBNgY7
QYUG9UB/7ZTBlI2KQJgfIEE5zanBqYXHQI+JFkFvPLbBVp00QcF1akGUL5/BiRwmQSbFG0GAb5nB
kvIcQfEJZEGxSZ3B1/l0QPH/2kB1RIfBGBcQQY7TJkFsIZrBu7PBQG6qA0ENUKTB85yOQLSCu0C3
aY/BtQYlQeNgBUEqCpTBTI2oQBP9DUGAp63B8onPQNbwH0EGiXfB/yHzQPaMCUEpS2LB/FvwQGsD
KkHOqmzBdVoCQYgtHUH4aGDBzA5KQQmlSUH9FZ/BY6+YQHzX+kBr/YLBrywaQUK4TUHjiZnBydAB
QeXUGEEARKDBk6ejQC307kBkxp3Bs7mgQCc9lkC3xYnBo3hrQXCKE0ECq7bB7P94QU3L9UBEOazB
lH+9QN2AzkA/eG/BIgxIQU8zXkHzzo/BWWQMQUBtP0Fe3ajBjyDJQGhhHEGsjpXBmBLXQLZhyUDb
+pTBcjlyQUqBHUGS3ojBtQF8QezMBkFZdpjBmNFaQcpvPUGxWIvBshNWQUEPL0Fp9KzBp9YOQSX2
DkFEhofB178dQTsy7kAumoTB7o4qQRrIEEF614PBb5g/QTh58kDZZp3BuANHQbUaBEFwoJDBoTQ6
QXLX1EAkY5HBhCtpQPrbGUE4rqPBycidQHYqLUHkXabBKPBvQKQ9JkHlnrDBJ6/cQGyJCUE067jB
Zhe1QHqhHEEdFr3BG+jaQEyOI0Ec1bLBWgo3QbDnekFxS5zB5v83Qe2/aUFz0KfB1HgsQW/ZGUGa
laHBu/MwQZT/JUFRwZTBjyMWQcvYbkHyO5fBoC8UQeTuZUFo3KTBM21AQJsj7EBOQovBklBbQBVV
yEAWiIDBSMgJQcsUKUEu/pHBI1/ZQPY/8UD/xKfBn/tpQDZisECExJTBMRUZQd4p90DFQZjBpaSU
QG5+AUHnWLHB+9JDQS3mSEG/cabB9jmWQIRsDEFws4XBv2ceQRWGSkGc/ZHBiIwHQSQ9EkGy96bB
N0mEQLPp80CywZ7BDfqJQPNoiEBbVYXBs9OrQLovgUC0Ho/BLqu4QKjWn0DSCYXBh0NvQQArHEEe
cZDB0llzQVnzEEF1+ZnBL2BiQbyTLkGwmZDBLiVdQXZXKkHMzqPBGUhqQcTtF0ECv6PBx45ZQfMN
NkF1RprBlAvTQJAXC0FMEnDBAKFuQc8yDEEa263BRZK3QOnw8kA7W3fBuR1GQTYLVkGS76HBxx4U
QVcvO0FEfp/BPXXfQD4NE0GW8pvB5BexQNG40kAcnJbBxHYfQUGxBUHFmYfBL188QUuJ8UClGJTB
ibuxQJEQCUG4SrfBjSmJQB1qHkF4Z6nBKYQ3Qb+HaEFQs57BTEsoQYCTGkHQoZjBM+kfQVvgYUEk
vp/B0EZzQM3a3EBZrofBJIcSQcMNJkHIQJnBVbbGQMBhBUHr1KPBfqKNQNmDvUCM5Y/B05QmQbQB
BEGxZpPB0te0QO+/FEFiiazBigTOQCRRIEH5sXbBwuzyQApWCUGlsmLBYVPvQIsdKkEs9mvBLTEC
QSbyHEG0YWDBfWJNQY7PSEHNs5nBOvKXQFwP/EDmKYPB4wgcQc80TUGsVJrBsU4EQZSuF0HQ657B
jQOmQIX58EDYT57Bq5GeQM+sl0BFM4rBd5BoQVzpE0H8rLbBI4h4QcZG9UBmla3BwOi8QOuuzkCi
WHDBdZdIQdokUkGRdqvBjPgNQX8sPEEH0KjBQnbOQFgfG0E7E5TBUtPWQNILykBg45TBywl2QXCg
FkH2/YjB+HV9QXfwAkEw15nBSzNfQZsRN0G1PonBAslVQeeEL0EOL6vBZtgPQVTCDUEiK4fBBR4e
QXga60BLKITB+VwrQfn2DkFTEYPBhFRBQeRB70BFhZzBdVNIQRIEAkFClo/BgRQ7Qas00UA5rZDB
IibRQG1OAkGvX7nBShKaQIku+EAfr7bBxLunQHlpFEF1ib3BRhaMQDS2JkGPraHBA+p9QOjeKUEK
lK/BDpdiQLSMEUG0uajBt9c6QYn9bEEMWpbBxpw6QbRSdkFg8aPB2qouQR7GGEEDyaDBulMzQcBo
JEFz2pPBkMIVQcs7bkFgEZzBfdYbQfdQYEGrRKjBcZ0/QLKa7kDfr4vB42pYQJLyyUCbD4HB05YM
QRE5KUFEH5HB+HPdQFb59ED5wqfB0URoQAkYs0D4X5XBP64aQQwd9UAs15fB9LjLQMb/IUGPc63B
O0tJQZhoTUFdUZLBlJiVQL8qDUEnsIXBxUofQQkjTEE+hJLBt/MJQfyXEEG9g6XBwieHQEdI9UCe
IqDBpjSHQFNEikDD4YXBQJypQJd5gkDmhI/B0Vu2QJOuoEC7WIXBJDWJQaV4UkEtfZrBrsOJQf3x
VEEFT4/BYN1+QS+PVUHO3Z/Bi3htQaKCXUEC4o7BWoGAQbyCWkEbaInB4TNsQXUhW0GYI5rBplHV
QOM6C0FtWW7BmPWAQR08XUEYKHvB/2vGQCY87UA3AHfBLbdEQZ9rY0GRl5zBF3AXQVYzOUFU46LB
ijvlQOdQEUH7GZ3Buk2kQOVr1EAV15bBE4UmQSQpAkEnnIzB8TdBQQA360ACaprB6z2VQKLfBEHw
W7TB7JucQEjCJkEgX6nBTmczQVG2ZUFIRKXB8xcsQSZdF0FaG57B4rYcQVoJYUFtCqHBKP6JQFs9
w0DVDITBJpIWQXt1I0E9M53BOuHEQA52BEGnvKPB7CR7QK78yEAS5I/BVXgrQfXLAEEdvpjBZbGz
QB03EkHBPa3BPuK8QGL6HUHgnW7BqHz6QC6bDkGkX2XBnnnYQJQyLEGHvmTB9d77QIJgI0H6cF/B
jU9ZQU3/XUE4FaDB6kedQIu66kCRjn/BFEobQa88S0E9spzB3qcFQRiaFkGlFaLBA7yhQNlb+UDS
+JzBnv9TQEApoUDQ95PBSj5xQYdCYkEH6XDBPLGJQbWIWkFbbXHBXurdQKHOzUBAPnbBWzhAQdRW
Z0E8PZPBEIcUQS+GOkHBlqzB9+bdQNxMFkFKxJPBGHnEQMzQvUBm1pbBwUqQQVgyTkH28p7BYkiR
QdKWUkG9N4vBKCJ+QZ6mU0EfcqjBF0ZfQduuYUHMa4rBzAMXQSUjCkHEaYvBZt8lQQrc40D7OInB
3ikzQWdhC0EKlYjBer1EQf9E6UC8BaPButtNQXmo/UBgYpbBQpFAQbbBykBQBpfB3c2lQAGn7EDR
E7fB+mlxQIdhAEHNuK/BlouLQGBtDkFGV7vBSWyyQMErMEELUaTBluySQLBdMEEHVrDB/RWAQNhR
IkGOt6TBCc8zQUYtdkGbXqjBDfs2QadwWkG5yKvBzgEwQfRgFUEBoabB65s4QW71IEEkM5rBi9EY
QQmRbEEPr5rBSDERQfW8YkFmo6fBRFVaQAV1u0CCx37B3TOhQCLrqEAVXYPBcf4SQZsWJkFIr5TB
NrjVQO817UATKafBwUJMQMMm40B2cpDBeOoeQXB47kCfo5zBsj/PQIsUF0GYJbLBx81aQezXW0GP
+afBErqLQLq8AkHf6n/B8jQdQbtGSUGM0JTBwwEIQdJDEUHBiKnBPZCGQD8fBUFJxpzBiV8hQHmJ
mUDJdY/BlDJBQFmFpUB3iZvB+e9+QFp2iUBQq5PBUTFnQQ3niUGufqnBnPVrQefNj0H2wbLB+BtS
QV2dhkElaqfBWVZGQdUtj0Ew77fBdZRbQdKAkkHSF7rBu2NBQWI/iUFnoq7BpEnRQJZ5CkFbKW3B
v6xgQXS6mEEs7MPBIemwQOaD90CN6nXByzwiQW29gEGYx6TB60YCQVwMS0HYWaDBOonhQJL5GUEV
qZ7B06W2QOHE2EAd8pfBNcYzQQlDG0FJRZXBpNFHQRpZI0FBWKbBKyikQGhxAEG7xbbBqK2TQNbX
IkHs4KzBNekJQSWtfUFms6XB19QkQT5xNkHO1qLB2OD/QI1TckGA7ZvBYYh6QPIJ50AzDorBb9MN
QVu5NUFENZ7B5sTLQBt2CEH8XaXBPkOSQP++xEC0TpHB+m0xQdIgIUGvQKHB6fW2QC9IEkERma/B
VdvdQA10HUGkPHfBoMblQBfqB0GDHVvBT437QHI+JUGiy2jBDBEAQc7eGEFYpVjBlNwrQfhIhkGU
OK3BqP2cQAMTAUF0jYTBxbkIQRe7XEEIeZrBx08CQZH3I0F8MKPB8wCsQPtN+UB6CJ/BJ9ihQHZk
oEBxxYrBLPxRQUkam0G0bcrBBbRzQXWYm0GEtcXB502nQEji1kB0HWzBgSEsQSkoe0Hq6ZzB7J7m
QGQwTEGNs6bBEZ7UQBPQHkHtsZXBO+HbQHLrzEBh15bBAs5zQQ/ih0HS8aPBGzh8Qc5LkkEKSrTB
CZpOQVsPgkEESaDBZrs5Qfg1kUHke73BqNAjQYWuGUE9pZHBKm08QegBDEFQh5TBrMA8QeztJ0F9
IJHBQCVGQZqDJ0GH2q7Bt8xQQTwEMEH6M6LBNXlQQTgYFEHNmqXBBE69QMN36UAMrrjBtOSJQOTE
8EDEhLLBC+OXQDKGB0HLOL7ByzKhQNV9L0ETx6fBj2OHQAr3KUH9ULTBccpyQEvTGkH2nKjBcwMC
QWOkhkFVrKbBz+4GQWvHc0HR0qzBi84jQXnPOUEUdqvB/qotQVZlQ0G+157B6EQDQYLVe0E8tpTB
hxPdQB0jcUERG53BJIJRQPyX+0ByB4/BaDBTQI3G1kDb/oPBDNMOQfEyM0Fwg5XBybPkQINu+kDi
AajBnHNzQC/yuECN4pbBY7soQdIwFEFQVqXBDzTQQECHGkFkI7TBRfshQUp3iEGdH7PB+LekQOwJ
D0Ew8ofBMQkUQSGmWkEn6ZTBNW4HQYe6HkFPTarB9CGNQI+FAEGU3Z/BVIiJQFMhlECbkYbBF/Wt
QBbbiUB3k4/BcpK4QJemqkDlwYXB7l9pQeQ6HEHErqfBQbZyQWXwEUEoz57BCZxcQVyPLkFlL6bB
bPFhQbrhK0Hk6JLBuSFvQS3SGUHrVZTBDyNZQUmHNkGmvJvBB33LQMaiEEEA3XHB/U55QRukD0Ex
7YrBgNKpQJrFA0HYvnvBaEtIQa+WWUGACKDBcAgVQQcvOEELq5/BpvncQAh4EkH46pzBYWeoQA9s
0kCBr5XBSTkfQYNCBUFmuYbBMmk8QRaz7UCllpLBM5qRQGE/IEGdsarBA7PPQP8nE0HW4rXBrVE2
QQeyaEGmnJzB5TAoQb2oF0G1bJjBL0QgQa8bX0F1bJ/BjGSSQM5wvECLxYLBv3ESQQQXI0ESf5nB
fPXCQEdxAkGdoKPBaKyDQKN+yEBjF47BZnomQRn3AUHFaZLB86itQCapDEFKmK3B6dztQLijB0HV
v2bBYj3OQI1yJUFuQHLBriACQfXDGUHz+GDBBSTyQGDhKkGVk2fBmyJMQVYDSEFLipnB2IWwQGCe
20ASw3zBmw8dQWD8SUHBU5rBPPIDQbytFEFQPZ/BZ06hQE+D8kAQCp3BrVVWQNX5pEBelZLBM251
QdetFkHTqoHBHgSDQU08AEG2QIzBUrWJQDJbDEHBjIHBZfVTQdtNXkEEkKfBKrgPQb1ROUG3GanB
5yzMQH7XHEG4tJXBxKjJQJWCvUD4lZXB9AFsQY4OFkH5pK/BV6J8Qfb9A0HY/p/Bc4BVQZ1/NkGo
/KzBC5ZeQU6UMUFt7YrBs4YPQUQ3DUHxnYbB1f0dQUJH60CAt4LB5/wqQSVFD0GkgYLBuIxBQR4J
6UCB7JrBuDBIQUDaAEF4YI7BpjE7QXdxzkBUlo7B57xyQDR+G0FDxaTBzOelQGjvLEEGUKfBepuB
QGM7JkF08LHBIX/jQEUtBUFy6LfB6s+/QDceGUGpJr3BPRzkQDzSH0E7hrLB/zw3QbJFa0E865PB
7zg4QUoWeEGzxaDBxpguQYisFEHpe6DBgDczQQglIkF3AJTBaK8TQYIXakG1pZzBsCMfQfk+XUH3
J6jBhW9sQCTIukCjBnvBwwqiQJPunECsD4PBLx8MQTuFJkEEd5HBepzYQFFe60AiW6bBuxFeQIPr
5EAdh43BN7waQZOT70COi5bBedGYQDSKAEESR7HBxq9EQc3pR0HMdZLBCDfMQJNu0EByBHfBgeIg
QSVqSEFMmZLBMPwJQRDoC0G6NaXBD4aDQLW3/UCk4p3BlJYlQOjgnUB7to3B4Y8/QIhTrUA1w5nB
bk58QLxmi0BlWpPB

> <OMEGA_E>
+G3UPujduz67aZY//HKUP8jRUj8=

> <OMEGA_NBR>
     75034

$$$$
50169586
  -OEChem-04172616093D

 94 96  0     1  0  0  0  0  0999 V2000
   11.5887   16.6479  -24.6519 C   0  0  0  0  0  0  0  0  0  0  0  0
   12.8446   16.4028  -24.0601 C   0  0  0  0  0  0  0  0  0  0  0  0
   10.4263   16.6700  -23.8547 C   0  0  0  0  0  0  0  0  0  0  0  0
   16.7278   11.7739  -21.9229 C   0  0  0  0  0  0  0  0  0  0  0  0
   17.9085   12.3695  -21.4485 C   0  0  0  0  0  0  0  0  0  0  0  0
   12.9394   16.1836  -22.6706 C   0  0  0  0  0  0  0  0  0  0  0  0
   10.5195   16.4523  -22.4652 C   0  0  0  0  0  0  0  0  0  0  0  0
   15.4747   12.2803  -21.5412 C   0  0  0  0  0  0  0  0  0  0  0  0
   16.5813   13.9942  -20.2031 C   0  0  0  0  0  0  0  0  0  0  0  0
   17.8487   13.4866  -20.5819 C   0  0  0  0  0  0  0  0  0  0  0  0
   11.7770   16.2125  -21.8651 C   0  0  0  0  0  0  0  0  0  0  0  0
   15.3892   13.4007  -20.6749 C   0  0  0  0  0  0  0  0  0  0  0  0
    6.5669    8.6251  -14.8526 C   0  0  0  0  0  0  0  0  0  0  0  0
   19.1009   14.1134  -20.0764 C   0  0  0  0  0  0  0  0  0  0  0  0
    6.1577    7.3256  -15.4121 C   0  0  0  0  0  0  0  0  0  0  0  0
    9.3743   11.6382  -20.2654 C   0  0  0  0  0  0  0  0  0  0  0  0
    7.1123    9.0660  -19.5773 C   0  0  0  0  0  0  0  0  0  0  0  0
    5.1688    6.5422  -18.8507 C   0  0  0  0  0  0  0  0  0  0  0  0
   12.8642   13.6455  -20.5768 C   0  0  0  0  0  0  0  0  0  0  0  0
   10.3594    8.2214  -17.4762 C   0  0  0  0  0  0  0  0  0  0  0  0
   12.0757    7.5003  -19.1833 C   0  0  0  0  0  0  0  0  0  0  0  0
    4.6922    8.2263  -22.5332 C   0  0  0  0  0  0  0  0  0  0  0  0
    4.8228   10.3382  -21.1370 C   0  0  0  0  0  0  0  0  0  0  0  0
   11.8771   15.9936  -20.3586 C   0  0  0  0  0  0  0  0  0  0  0  0
   10.6854    9.5572  -19.6561 C   0  0  0  0  0  0  0  0  0  0  0  0
    4.3352    5.9533  -16.5191 C   0  0  0  0  0  0  0  0  0  0  0  0
   10.3149   13.9736  -20.2479 C   0  0  0  0  0  0  0  0  0  0  0  0
    9.3179   10.2786  -19.5535 C   0  0  2  0  0  0  0  0  0  0  0  0
    6.1462    8.2348  -20.4310 C   0  0  2  0  0  0  0  0  0  0  0  0
    3.9612    6.1315  -18.0029 C   0  0  2  0  0  0  0  0  0  0  0  0
   10.6881    8.1472  -18.9887 C   0  0  0  0  0  0  0  0  0  0  0  0
    5.5979    9.0858  -21.6202 C   0  0  0  0  0  0  0  0  0  0  0  0
   11.7421   14.5010  -19.9271 C   0  0  1  0  0  0  0  0  0  0  0  0
    5.7604    9.7677  -14.8704 N   0  5  0  0  0  0  0  0  0  0  0  0
    7.7111    8.8736  -14.2719 N   0  0  0  0  0  0  0  0  0  0  0  0
    6.5798   10.6820  -14.2325 N   0  0  0  0  0  0  0  0  0  0  0  0
    7.7005   10.1689  -13.8890 N   0  0  0  0  0  0  0  0  0  0  0  0
   14.1828   13.9696  -20.2347 N   0  0  0  0  0  0  0  0  0  0  0  0
    4.8837    7.2043  -15.9663 N   0  0  0  0  0  0  0  0  0  0  0  0
   10.1309   12.6357  -19.6743 N   0  0  0  0  0  0  0  0  0  0  0  0
    8.2977    9.4403  -20.1788 N   0  0  0  0  0  0  0  0  0  0  0  0
    5.0546    7.6993  -19.6083 N   0  0  0  0  0  0  0  0  0  0  0  0
    3.4048    4.8696  -18.5324 N   0  3  0  0  0  0  0  0  0  0  0  0
   19.0395   15.1119  -19.3072 O   0  5  0  0  0  0  0  0  0  0  0  0
   20.2197   13.6411  -20.4196 O   0  0  0  0  0  0  0  0  0  0  0  0
    6.9274    6.3712  -15.3630 O   0  0  0  0  0  0  0  0  0  0  0  0
    8.7454   11.8439  -21.3014 O   0  0  0  0  0  0  0  0  0  0  0  0
    6.8551    9.3602  -18.4119 O   0  0  0  0  0  0  0  0  0  0  0  0
    6.2004    5.8747  -18.8419 O   0  0  0  0  0  0  0  0  0  0  0  0
   12.5789   12.7334  -21.3463 O   0  0  0  0  0  0  0  0  0  0  0  0
   11.9308   14.4531  -18.5081 O   0  0  0  0  0  0  0  0  0  0  0  0
   11.5172   16.8188  -25.7159 H   0  0  0  0  0  0  0  0  0  0  0  0
   13.7347   16.3830  -24.6715 H   0  0  0  0  0  0  0  0  0  0  0  0
    9.4638   16.8537  -24.3088 H   0  0  0  0  0  0  0  0  0  0  0  0
   16.7841   10.9222  -22.5846 H   0  0  0  0  0  0  0  0  0  0  0  0
   18.8675   11.9724  -21.7469 H   0  0  0  0  0  0  0  0  0  0  0  0
   13.9022   15.9930  -22.2200 H   0  0  0  0  0  0  0  0  0  0  0  0
    9.6272   16.4688  -21.8569 H   0  0  0  0  0  0  0  0  0  0  0  0
   14.5722   11.8148  -21.9087 H   0  0  0  0  0  0  0  0  0  0  0  0
   16.5256   14.8478  -19.5438 H   0  0  0  0  0  0  0  0  0  0  0  0
    9.3704    8.6825  -17.3376 H   0  0  0  0  0  0  0  0  0  0  0  0
   10.3532    7.2063  -17.0522 H   0  0  0  0  0  0  0  0  0  0  0  0
   11.1214    8.8277  -16.9647 H   0  0  0  0  0  0  0  0  0  0  0  0
   12.3089    7.4477  -20.2570 H   0  0  0  0  0  0  0  0  0  0  0  0
   12.8378    8.1066  -18.6719 H   0  0  0  0  0  0  0  0  0  0  0  0
   12.0695    6.4852  -18.7594 H   0  0  0  0  0  0  0  0  0  0  0  0
    5.2482    7.3398  -22.8723 H   0  0  0  0  0  0  0  0  0  0  0  0
    3.8019    7.9078  -21.9711 H   0  0  0  0  0  0  0  0  0  0  0  0
    4.3820    8.8203  -23.4056 H   0  0  0  0  0  0  0  0  0  0  0  0
    5.4724   10.9445  -20.4886 H   0  0  0  0  0  0  0  0  0  0  0  0
    4.5128   10.9356  -22.0070 H   0  0  0  0  0  0  0  0  0  0  0  0
    3.9327   10.0232  -20.5726 H   0  0  0  0  0  0  0  0  0  0  0  0
   12.8550   16.3654  -20.0187 H   0  0  0  0  0  0  0  0  0  0  0  0
   11.0764   16.5689  -19.8709 H   0  0  0  0  0  0  0  0  0  0  0  0
   10.9404    9.4409  -20.7199 H   0  0  0  0  0  0  0  0  0  0  0  0
   11.4467   10.1791  -19.1625 H   0  0  0  0  0  0  0  0  0  0  0  0
    3.4361    5.6713  -15.9514 H   0  0  0  0  0  0  0  0  0  0  0  0
    5.0896    5.1577  -16.4298 H   0  0  0  0  0  0  0  0  0  0  0  0
    9.5689   14.6590  -19.8193 H   0  0  0  0  0  0  0  0  0  0  0  0
   10.1824   13.9231  -21.3387 H   0  0  0  0  0  0  0  0  0  0  0  0
    9.0778   10.4381  -18.4919 H   0  0  0  0  0  0  0  0  0  0  0  0
    6.7115    7.3934  -20.8582 H   0  0  0  0  0  0  0  0  0  0  0  0
    3.1991    6.9214  -18.0758 H   0  0  0  0  0  0  0  0  0  0  0  0
    9.9316    7.5218  -19.4851 H   0  0  0  0  0  0  0  0  0  0  0  0
    6.4574    9.4266  -22.2161 H   0  0  0  0  0  0  0  0  0  0  0  0
   14.2801   14.7180  -19.5787 H   0  0  0  0  0  0  0  0  0  0  0  0
    4.3047    8.0193  -15.9901 H   0  0  0  0  0  0  0  0  0  0  0  0
   10.5790   12.4321  -18.8038 H   0  0  0  0  0  0  0  0  0  0  0  0
    8.4700    9.1143  -21.1084 H   0  0  0  0  0  0  0  0  0  0  0  0
    4.1852    8.1931  -19.5931 H   0  0  0  0  0  0  0  0  0  0  0  0
    2.6155    4.5962  -17.9826 H   0  0  0  0  0  0  0  0  0  0  0  0
    3.1194    5.0036  -19.4814 H   0  0  0  0  0  0  0  0  0  0  0  0
    4.1028    4.1547  -18.4920 H   0  0  0  0  0  0  0  0  0  0  0  0
   11.2571   14.9690  -18.0810 H   0  0  0  0  0  0  0  0  0  0  0  0
  1  2  1  0  0  0  0
  1  3  2  0  0  0  0
  2  6  2  0  0  0  0
  3  7  1  0  0  0  0
  4  5  1  0  0  0  0
  4  8  2  0  0  0  0
  5 10  2  0  0  0  0
  6 11  1  0  0  0  0
  7 11  2  0  0  0  0
  8 12  1  0  0  0  0
  9 10  1  0  0  0  0
  9 12  2  0  0  0  0
 10 14  1  0  0  0  0
 11 24  1  0  0  0  0
 12 38  1  0  0  0  0
 13 15  1  0  0  0  0
 13 34  1  0  0  0  0
 13 35  2  0  0  0  0
 14 44  1  0  0  0  0
 14 45  2  0  0  0  0
 15 39  1  0  0  0  0
 15 46  2  0  0  0  0
 16 28  1  0  0  0  0
 16 40  1  0  0  0  0
 16 47  2  0  0  0  0
 17 29  1  0  0  0  0
 17 41  1  0  0  0  0
 17 48  2  0  0  0  0
 18 30  1  0  0  0  0
 18 42  1  0  0  0  0
 18 49  2  0  0  0  0
 19 33  1  0  0  0  0
 19 38  1  0  0  0  0
 19 50  2  0  0  0  0
 20 31  1  0  0  0  0
 21 31  1  0  0  0  0
 22 32  1  0  0  0  0
 23 32  1  0  0  0  0
 24 33  1  0  0  0  0
 25 28  1  0  0  0  0
 25 31  1  0  0  0  0
 26 30  1  0  0  0  0
 26 39  1  0  0  0  0
 27 33  1  0  0  0  0
 27 40  1  0  0  0  0
 28 41  1  0  0  0  0
 29 32  1  0  0  0  0
 29 42  1  0  0  0  0
 30 43  1  0  0  0  0
 33 51  1  0  0  0  0
 34 36  1  0  0  0  0
 35 37  1  0  0  0  0
 36 37  2  0  0  0  0
  1 52  1  0  0  0  0
  2 53  1  0  0  0  0
  3 54  1  0  0  0  0
  4 55  1  0  0  0  0
  5 56  1  0  0  0  0
  6 57  1  0  0  0  0
  7 58  1  0  0  0  0
  8 59  1  0  0  0  0
  9 60  1  0  0  0  0
 20 61  1  0  0  0  0
 20 62  1  0  0  0  0
 20 63  1  0  0  0  0
 21 64  1  0  0  0  0
 21 65  1  0  0  0  0
 21 66  1  0  0  0  0
 22 67  1  0  0  0  0
 22 68  1  0  0  0  0
 22 69  1  0  0  0  0
 23 70  1  0  0  0  0
 23 71  1  0  0  0  0
 23 72  1  0  0  0  0
 24 73  1  0  0  0  0
 24 74  1  0  0  0  0
 25 75  1  0  0  0  0
 25 76  1  0  0  0  0
 26 77  1  0  0  0  0
 26 78  1  0  0  0  0
 27 79  1  0  0  0  0
 27 80  1  0  0  0  0
 28 81  1  0  0  0  0
 29 82  1  0  0  0  0
 30 83  1  0  0  0  0
 31 84  1  0  0  0  0
 32 85  1  0  0  0  0
 38 86  1  0  0  0  0
 39 87  1  0  0  0  0
 40 88  1  0  0  0  0
 41 89  1  0  0  0  0
 42 90  1  0  0  0  0
 43 91  1  0  0  0  0
 43 92  1  0  0  0  0
 43 93  1  0  0  0  0
 51 94  1  0  0  0  0
M  CHG  3  34  -1  43   1  44  -1
M  END
> <OMEGA_C>
UGs5QfguhUEFN8XBqYNNQQU5g0EVe8DB8NEmQRxchUFa1r7BftKFQb5hPEEaYq/BpUSPQVbpRUF7
lqvB2wdPQf13gUFrXbXBsE8oQWeeg0GxuLPBi5h3QQ18REFKVKzBd6aEQWXoX0H+n6HBGMqOQUzJ
V0Gip6TBbm48QUSzgUGl667BWDp2QRVpVkEmZqXBpCPSQE4ACkFnpG3Bjc6YQZnQYUGLnKDBRwzF
QIxr6kDQl3bBCv0VQeQ1OkGYH6LBPJjjQHUOEUE6npzBmmalQGNZ0UBFzpbBr9NNQSxUWkFenaTB
+r8lQaeKA0E5z4vB4TVBQSgC8EBqd5nBmSaWQBKfA0H0Q7TBMFSaQBtpJUGgGKnBiQg+Qajlf0Fg
3qLBjfcqQSXqGEHIP53Bx7mKQC6BvkAIJ4TB+AklQceTX0G5+6HBRhYVQSN1JEGIbZzBlK3EQN3B
A0G2cqPBhYR9QA81xEDrBZDBgAIrQflaAkHI6JfBvSGzQFdfEUE29qzB0N87Qf8DaEG0ap/BlFW4
QLBIHEE47W3BT8H2QCT6DUGYWWTBj43SQEvpKkFruGPBU2r2QLCzIkFTOV7BpOxiQVmDX0GT4KHB
E0ecQJ6J5kDZdX/BIRgiQdorSkH3ZJ3BbcMEQU4LF0EwbqHBW7+hQLNg9kDl3ZzBiOdZQCLUm0Bm
QpTB/lCYQV7KcUEkdZrB78GhQdxBWkFuW6PBlq3dQMDgy0DBznXBKu0LQWmAPUFGaarBv1zbQIvD
FUGcS5PBfWnGQDH9u0BPvJbBOENJQS68S0EmxarBq+Q+Qcc/Z0GBEJTBSkY4QeGMhkEWus3BPcFb
QXQQg0FKX8XBlWsXQWjUhkF1eMLBv0WGQSnBLkE9rbTBofCWQdCOP0G3+a3Bh29eQVTjf0GEwrHB
JAkaQSzAg0HV2q7BiSdpQXEJPUHwRK/BdzSEQbmQbUG/WZzB/+wVQXbrCkFSs4rBuqYlQWCa5kD/
aojBcfExQUo+DUHLt4fBVfFEQWhT7kBYDqLBh2dNQaO0AUETYJXB0BxBQROHz0BHE5bBOfGnQM7f
6kBg+rbBhVJzQMAM/UDexK/BdjmMQMkfDUGSPrvBkx2vQJ0cL0G46KPB4miQQGv4LkFqDrDBXLF7
QANfIEG1lKTB5a1NQVDsgkFNJqDBxDgxQSGNhEGg957BtgsvQcwNF0FFwqXBxiU3QYXdIkHXTJnB
ZelbQFd7tUAXOX/BI96iQDkMpUBRcIPBYxoZQRuLakHWjZ7BMOsiQf7EXkG5tarBhT4RQV0CJ0F8
75PBhcTWQAuX7ECb3abBqr5MQMt73UBVm5DBqeceQTiy8EB04ZvB/qLOQELTFkGQurHBSHtkQRp9
a0EfoZzBE8CJQAdPAEFQ13/Bj0MpQbbpRkE6bpbBSoUHQVXUEUHs3ajBxOyFQNkWA0GyvpzBWGQn
QOQTk0Bk3I/BmaRHQMEdoED82ZvBO0qDQKfzhECa75PBIR00QR2Bb0HVpZDBhGttQSGLkUEaR5XB
HAxfQapYjkEZMo3BeXVoQdaij0F4HaDBGOVoQSl3V0EwtMTBiuxgQYufYEHuKM7BEqpLQSNKiUH9
8o/BOBRVQQOUikEw4qLB/gReQQ9OWkFy+brBafdCQc2lb0HWI8TBgNtNQU/TbEGl/c3BYYhGQcNy
h0Giz5rBctxKQZN2ZkHulbrBvfXUQGf3CkFoFG7BjXFFQXl7dkF2CdjBhXfGQJy57ECz63bBjIUX
QWW5OUFAmKLB+VHlQLqkEUFIAZ3BJeWkQDaE1ED34ZbB8gdDQaiHY0E2rKbBeYsmQSKtAkFyb4zB
Lm1BQeOz7EAFNJrBJa2VQCFSBUGZU7TBJGKcQKIJJ0GwLqnBNpIxQSL8gUENwJ3B0xYsQQLoF0Gr
7Z3BpoOKQMR/wkADJoTBXsMcQfaNYUHN2J/BE4UWQRTjI0GbCp3BCCTFQBrMBEHxrqPBelp8QF2M
yEAZ/I/BZ5MrQV1bAUECkJjBn9SzQHCoEkHdIa3BzlgzQXkca0Ff0J3BYTe8QC2dHUHuPm7BpQL6
QEFtDkHTA2XB8ILXQIDfK0HAOWTBngP7QGUoI0GW7V7BJ/M+QfAbakGdNbHBNGmdQHgD6kC/j3/B
5ccbQVZGS0HBMJzBPacFQcYcF0FU/KHBoxWiQNaa+UDA85zBG+hVQJ22oECUKJTBGnU0QYKxgEFb
1tfBmVpPQfWwc0FAueDB4TfeQK17zUCnQHbBJpgUQbRwO0GlRqzBze/dQE13FkF+ppPBzD7FQGAr
vkAS55bBp4xSQbKYWEGOL6TB2cE6QXYmZEHifpPB5Tx8QaN0lUHtKpPBUuRiQcrFj0HV5ITBQoRz
QW0NkkGVTKbBuXd3QWEwTkF26sTBp2VpQXpWXkFKmtXBIrNAQV3QhkFFv4nBd1ZRQXYXiUHFL6vB
H0ZkQa8xU0FXv7PBKmo0QRj1eEF87sPBdPcWQaKFCkGWQovBzQMmQRfh5EC6DInBdRYzQT4ADEGf
Y4jBbAFFQQfS6kB0zqLBFPdNQRpb/0ClJ5bBbORAQbQ7zEDA0JbBpoGmQNPI7UCKGbfBFllyQGeg
AEEVuq/B3OKLQGj1DkFrRbvBagCyQMdxMEGdEqTBwZqSQFi7MEG8G7DB4Mh/QFdmIkFmkKTBIE0l
QfdVhEFJ5ZfBzrssQSWshEHpxaXB8ggwQX/uFUGGcqbBaYs4QQ2SIUEcBJrBeGlbQLlOukDQDH/B
9PGhQL1bqEBngIPB080QQTIMa0FieJvBEUAZQRglYkH6dqjBHt8SQb5eJkHGhZTBciXWQNMX7kBC
KafBxhRNQNCM4kCHgJDBTB8fQX9l70DUepzBxFrPQP64F0GX/7HBCJQxQe+qckETNLLBBqOLQP9O
AkEm2X/BxmgeQSWKSEEla5TBxvsHQeL4EUGxeKnB0suGQMUlBUEuu5zBwk0jQKi+mEAbr4/BajND
QHBBpUB0uZvBtZmAQIIriUAO5ZPBFJRHQUMnXEF2UZTBJuc5QRp5hEGRacXBgPNNQVdugkGPqcDB
o04nQU/LhEHlCb/BfKyOQSTyVUEn2KTBJh+PQcwRREFNr6vBx2xPQU2/gEGQiLXBUMEoQeQeg0FA
6bPBybaEQWBlXkHCtqHBekR3QUwJQ0E+NqzBJJKFQSd5OkHBb6/B4dM8QcgggUGTF6/BIzN2QSIP
VUFXXqXBWeLQQNA4CkHYUG3B7eCFQXGPJ0FlrLbBXkrDQC3v6kCXKXbBF7YVQSaVOUGhGqLB9i3i
QFfcEEFrepzBVB6jQBPB0UDxi5bBccxNQbhGWUF2nqTBafUkQWbnAkFrs4vBkTtAQcDn7UCvXZnB
OT+UQFWoA0GyDrTBiEKZQJKDJUEQ9qjBNV4+QWfvfkF3BaPBLVcqQVUVGEHFMJ3Bt2eIQBOFv0Aj
3IPB+BMlQTfWXkF6BKLBAJgUQafgI0GAXpzB1ufCQLKsA0E4Q6PBw8Z4QNcoxUDMuo/BICgqQSeR
AUEMzpfBppaxQJZOEUHjy6zBv/s7Qd4iZ0EdeZ/BkX23QKSlHEHOp23BVKH1QLAIDkFYFWTBixTS
QOQrK0Ezi2PBTMj1QGjJIkH7DF7BMPZiQeZLXkGj2qHBf3CaQE1t50Cr+X7BovshQRh2SUEfaJ3B
yhgEQdKaFkGbU6HB9NafQGK49kABpZzBFi9UQJronEDe6ZPBAIh6QTBdH0HAAbrBjMKOQfnLH0Em
drnBWpXbQHggzEARVnXBcakLQTLqPEE4ZKrBRSLaQNOwFUEkKZPB5+LDQFIGvECAeJbBAghJQT7N
SkGXzqrB5wI/QQh2ZkFRH5TB48o4QYfKhUHk7s3BMzBcQQQogkEYjcXBHfEXQclShkEUr8LBjPuV
QdsvXUGQ/qHBSMeWQUSnPUExFK7BOcteQSVTfkF36rHBw3oaQYZcg0F2DK/B5WyEQXkgbEHweZzB
XaRoQTG6O0EMAq/BSDkVQTl4CkEcl4rBcrAkQRJi5UBTR4jBEEcxQUN/DEHAo4fBKutDQdYC7EAw
9aHBo41MQY6LAEE5TpXBBfc/Qal6zUDM8ZXBarOlQKK06kCyv7bBrFxvQLiD/UBria/BYHqKQCgo
DUEqDbvBzEyuQIMkL0HhzaPB23+PQOgRL0HG76/Bo2d5QJyrIEEHbKTBiA9OQaVkgkEIUaDBjaEx
QQ8phEGcKp/BTFwuQcsbFkFns6XBEqY2QejtIUFmRpnBSSlXQFjjtkAbln7BnUWgQF7PpUBlIoPB
EzoZQTzmaUGcl57B3O4iQcYCXkH8varBRtEQQcKIJkGa4JPBtanUQBsq7EAHqabBIJBIQLSy3kB0
U5DBd+wdQWRU70BnvpvB6izNQDSRFkF8lrHBIphkQVg9akHsl5zBpDKIQFDaAEESY3/BwyspQQcq
RkHEc5bBJ8IGQQhOEUG3wajBaTOEQJdrA0FChpzB/40hQEKElEAOfo/BbeNBQEcroUBegZvBriyA
QMfJhUDUk5PBO000QcXVbkEbuZDBYhh+Qdd1jEHe6KXBgXxyQUj9jEGJP5zB+KJ0QeDvh0EmFq/B
pV1kQVpdR0EdccrByZB1QS+eOkEN7sbBGWxdQZn3iEFevZvB44ZfQVwIhEGon67BA9RWQVZZUUFD
8sLBqKFrQaXNQUEha7TBy1l5QQ3GN0F+2rvB4c1TQYiFhEFd86TBTEpaQaGpTkEK3bfBB23UQEVm
CkFqCW7BALmFQUlZKkHF+bfBKXXHQBIL60Bh1HbB8WEWQYiOOkGBpKLBrJjkQNI3EUES45zBuQin
QD1N0UCs05bBBpdMQfVyWkGmp6XBF5AmQX0fBEGxRIzBCdFBQYML8UB8A5rB42aWQOc7A0FFTrTB
P3GaQC8mJUEBO6nBHQs9QewkgEH+gaTB8GYrQUVKGUG0zJ3BeiCNQG+WvkAXGYTByvgkQagoYEFP
UKLBEYYVQVfQJEHZ6pzBuY/FQOu6A0EXmaPBbrKAQIkJxEBD8o/BZJorQaTOAkGtY5jBqW6zQBYt
EUGtGq3B4b07QdL2aEHdI6DByFy6QHmXHEGpSG7BICn5QBeMDkGZ8GTB2JHUQOxbK0ENRmTBdKb4
QM1MI0El6V7BNQhMQVn6WEGY27DB9o6eQFTO5kANgX/BufgiQdBdSkH8E57BXxsFQeRXF0Hz0qHB
Mv2iQE0+9kD055zBHu9dQBJ8m0DbGZTB0V+HQZdOKEFLD67Bz7eLQdgNIUFfn77Bhk/gQFetzEDY
FnbBesgLQSj/PUECv6rBnLjcQFjzFUFWjJPB/CjIQMwevEDqz5bBKxFaQbp1UUEoHaDBXz4/QWA/
aUHiypTBUh6HQduFj0HvRabB2rx5QQ17kEHJOZXBn5F9QRh3h0G2d7bBI41hQdl8SUFv5tLBt+d/
QTP8MkGetMzBv6RUQVxJiUH6TZTB3z1YQX2lgEFNsLXBhbFJQYEjW0EhssXBKWduQdyiP0Ge9avB
GrsWQfNzC0HJG4vBbJcmQZrZ50CX04jB/soyQTvsDUF/Q4jB3mVFQWQs70DlnaLBgwtOQa5SAkET
ApbB8ddBQYCm0EArkpbBglKoQBEx6kCEBrfBqlV0QA8i/EDQuq/B0g6MQFygDEG+SLvBaUKvQPj8
LkHLHaTB6BqQQO+YLkHPMLDB1m18QJsJIEHgoqTB7XUzQXpahUFCR5/BG1U2QbNEgEFZpKzB/VIv
QfxSF0FkUqbBI6M3QclQI0Hv8JnBAythQO1utUAX+H7BGHilQOxOpUBoaoPBgB8ZQauNakH8ZZ7B
VwgiQVTyX0FO/arBFdERQVFsJ0EPapTBv6/XQHCT7EAJBqfBJ0tQQGAq3UDif5DB3XYfQVZq8UCK
RpzBS6rOQKqxFkEO87HBxa8/QVZYYEF4XrTBadeLQERgAEET2X/BsjcrQdatRkGUeZfB0awHQYcx
EkHmSanBeByHQNz3AkFHuJzB1NUrQLaqkkAvo4/BGxZLQLmXn0BLrZvBqHGFQCi9hECrzZPBWypL
QVR0YEEaF5PB

> <OMEGA_E>
LsOVP8uflD+3TZM/pDiRPw==

> <OMEGA_NBR>
     81021

$$$$
50169588
  -OEChem-04172616093D

 97 99  0     1  0  0  0  0  0999 V2000
   16.8145   10.5071  -18.2735 C   0  0  0  0  0  0  0  0  0  0  0  0
   15.5325   10.1506  -17.8070 C   0  0  0  0  0  0  0  0  0  0  0  0
   17.0122   11.7474  -18.9152 C   0  0  0  0  0  0  0  0  0  0  0  0
   15.0424   18.2884  -23.0658 C   0  0  0  0  0  0  0  0  0  0  0  0
   14.7168   19.4408  -22.3234 C   0  0  0  0  0  0  0  0  0  0  0  0
   14.4499   11.0379  -17.9733 C   0  0  0  0  0  0  0  0  0  0  0  0
   15.9294   12.6345  -19.0854 C   0  0  0  0  0  0  0  0  0  0  0  0
   14.4355   17.0543  -22.7613 C   0  0  0  0  0  0  0  0  0  0  0  0
   13.1851   18.1246  -20.9675 C   0  0  0  0  0  0  0  0  0  0  0  0
   13.7809   19.3652  -21.2648 C   0  0  0  0  0  0  0  0  0  0  0  0
   14.6479   12.2889  -18.6000 C   0  0  0  0  0  0  0  0  0  0  0  0
   13.4981   16.9591  -21.7109 C   0  0  0  0  0  0  0  0  0  0  0  0
    6.6886    8.7289  -15.3296 C   0  0  0  0  0  0  0  0  0  0  0  0
   13.4163   20.5684  -20.4651 C   0  0  0  0  0  0  0  0  0  0  0  0
    6.3130    7.3866  -15.8078 C   0  0  0  0  0  0  0  0  0  0  0  0
    9.4733   11.3958  -19.6120 C   0  0  0  0  0  0  0  0  0  0  0  0
    7.0683    9.2138  -19.3662 C   0  0  0  0  0  0  0  0  0  0  0  0
    5.0302    6.4367  -19.0931 C   0  0  0  0  0  0  0  0  0  0  0  0
   11.9856   15.3389  -20.4890 C   0  0  0  0  0  0  0  0  0  0  0  0
   10.4993    7.8047  -17.1163 C   0  0  0  0  0  0  0  0  0  0  0  0
   12.2469    7.2501  -18.8517 C   0  0  0  0  0  0  0  0  0  0  0  0
    4.6576    8.3480  -22.3213 C   0  0  0  0  0  0  0  0  0  0  0  0
    4.6495   10.4285  -20.8786 C   0  0  0  0  0  0  0  0  0  0  0  0
   13.4768   13.2325  -18.7977 C   0  0  0  0  0  0  0  0  0  0  0  0
   12.7915   12.9507  -20.1579 C   0  0  0  0  0  0  0  0  0  0  0  0
   10.8013    9.2907  -19.1964 C   0  0  0  0  0  0  0  0  0  0  0  0
    4.4847    5.8613  -16.6897 C   0  0  0  0  0  0  0  0  0  0  0  0
   10.4329   13.6951  -19.3295 C   0  0  0  0  0  0  0  0  0  0  0  0
    9.4240    9.9807  -19.0314 C   0  0  2  0  0  0  0  0  0  0  0  0
    6.1193    8.3975  -20.2423 C   0  0  2  0  0  0  0  0  0  0  0  0
    3.9352    5.9711  -18.1263 C   0  0  2  0  0  0  0  0  0  0  0  0
   10.8396    7.8419  -18.6261 C   0  0  0  0  0  0  0  0  0  0  0  0
    5.5105    9.2484  -21.3949 C   0  0  0  0  0  0  0  0  0  0  0  0
   11.5462   13.8610  -20.4184 C   0  0  1  0  0  0  0  0  0  0  0  0
    5.8083    9.8153  -15.2900 N   0  5  0  0  0  0  0  0  0  0  0  0
    7.8694    9.0736  -14.8878 N   0  0  0  0  0  0  0  0  0  0  0  0
    6.6310   10.8070  -14.7860 N   0  0  0  0  0  0  0  0  0  0  0  0
    7.8146   10.3807  -14.5530 N   0  0  0  0  0  0  0  0  0  0  0  0
   12.9265   15.6991  -21.4630 N   0  0  0  0  0  0  0  0  0  0  0  0
    4.9984    7.1617  -16.2183 N   0  0  0  0  0  0  0  0  0  0  0  0
   10.2328   12.3147  -18.9201 N   0  0  0  0  0  0  0  0  0  0  0  0
    8.4051    9.1929  -19.7127 N   0  0  0  0  0  0  0  0  0  0  0  0
    5.0813    7.7903  -19.4007 N   0  0  0  0  0  0  0  0  0  0  0  0
    3.4047    4.6572  -18.5517 N   0  3  0  0  0  0  0  0  0  0  0  0
   12.5762   20.4754  -19.5259 O   0  5  0  0  0  0  0  0  0  0  0  0
   13.9476   21.6797  -20.7312 O   0  0  0  0  0  0  0  0  0  0  0  0
    7.1496    6.4891  -15.8231 O   0  0  0  0  0  0  0  0  0  0  0  0
    8.8167   11.7147  -20.6009 O   0  0  0  0  0  0  0  0  0  0  0  0
    6.6564    9.8775  -18.4173 O   0  0  0  0  0  0  0  0  0  0  0  0
    5.8596    5.6415  -19.5279 O   0  0  0  0  0  0  0  0  0  0  0  0
   11.4899   16.1465  -19.7106 O   0  0  0  0  0  0  0  0  0  0  0  0
   11.0110   13.5105  -21.6982 O   0  0  0  0  0  0  0  0  0  0  0  0
   17.6453    9.8302  -18.1395 H   0  0  0  0  0  0  0  0  0  0  0  0
   15.3800    9.1977  -17.3222 H   0  0  0  0  0  0  0  0  0  0  0  0
   17.9934   12.0179  -19.2764 H   0  0  0  0  0  0  0  0  0  0  0  0
   15.7595   18.3515  -23.8709 H   0  0  0  0  0  0  0  0  0  0  0  0
   15.1832   20.3850  -22.5631 H   0  0  0  0  0  0  0  0  0  0  0  0
   13.4672   10.7611  -17.6211 H   0  0  0  0  0  0  0  0  0  0  0  0
   16.0795   13.5790  -19.5873 H   0  0  0  0  0  0  0  0  0  0  0  0
   14.6893   16.1754  -23.3354 H   0  0  0  0  0  0  0  0  0  0  0  0
   12.4750   18.0598  -20.1564 H   0  0  0  0  0  0  0  0  0  0  0  0
    9.4962    8.2265  -16.9555 H   0  0  0  0  0  0  0  0  0  0  0  0
   10.5204    6.7638  -16.7613 H   0  0  0  0  0  0  0  0  0  0  0  0
   11.2398    8.3972  -16.5589 H   0  0  0  0  0  0  0  0  0  0  0  0
   12.4886    7.2766  -19.9245 H   0  0  0  0  0  0  0  0  0  0  0  0
   12.9874    7.8426  -18.2944 H   0  0  0  0  0  0  0  0  0  0  0  0
   12.2680    6.2092  -18.4968 H   0  0  0  0  0  0  0  0  0  0  0  0
    5.2712    7.5112  -22.6864 H   0  0  0  0  0  0  0  0  0  0  0  0
    3.7978    7.9543  -21.7595 H   0  0  0  0  0  0  0  0  0  0  0  0
    4.2975    8.9388  -23.1764 H   0  0  0  0  0  0  0  0  0  0  0  0
    5.2578   11.0665  -20.2207 H   0  0  0  0  0  0  0  0  0  0  0  0
    4.2893   11.0207  -21.7327 H   0  0  0  0  0  0  0  0  0  0  0  0
    3.7896   10.0361  -20.3158 H   0  0  0  0  0  0  0  0  0  0  0  0
   12.7493   13.0849  -17.9860 H   0  0  0  0  0  0  0  0  0  0  0  0
   13.8392   14.2710  -18.7809 H   0  0  0  0  0  0  0  0  0  0  0  0
   13.5238   13.1212  -20.9607 H   0  0  0  0  0  0  0  0  0  0  0  0
   12.4666   11.8999  -20.1750 H   0  0  0  0  0  0  0  0  0  0  0  0
   11.0447    9.2500  -20.2683 H   0  0  0  0  0  0  0  0  0  0  0  0
   11.5578    9.8923  -18.6711 H   0  0  0  0  0  0  0  0  0  0  0  0
    3.6773    5.5296  -16.0203 H   0  0  0  0  0  0  0  0  0  0  0  0
    5.3013    5.1245  -16.6723 H   0  0  0  0  0  0  0  0  0  0  0  0
   10.7182   14.2840  -18.4454 H   0  0  0  0  0  0  0  0  0  0  0  0
    9.4860   14.0797  -19.7364 H   0  0  0  0  0  0  0  0  0  0  0  0
    9.1902   10.0450  -17.9585 H   0  0  0  0  0  0  0  0  0  0  0  0
    6.7055    7.5905  -20.7062 H   0  0  0  0  0  0  0  0  0  0  0  0
    3.1220    6.7118  -18.1336 H   0  0  0  0  0  0  0  0  0  0  0  0
   10.1052    7.2298  -19.1700 H   0  0  0  0  0  0  0  0  0  0  0  0
    6.3394    9.6627  -21.9876 H   0  0  0  0  0  0  0  0  0  0  0  0
   13.2327   14.9598  -22.0627 H   0  0  0  0  0  0  0  0  0  0  0  0
    4.3623    7.9329  -16.1913 H   0  0  0  0  0  0  0  0  0  0  0  0
   10.6773   12.0105  -18.0775 H   0  0  0  0  0  0  0  0  0  0  0  0
    8.6887    8.6062  -20.4712 H   0  0  0  0  0  0  0  0  0  0  0  0
    4.3699    8.3855  -19.0271 H   0  0  0  0  0  0  0  0  0  0  0  0
    2.6918    4.3630  -17.9151 H   0  0  0  0  0  0  0  0  0  0  0  0
    3.0188    4.7355  -19.4710 H   0  0  0  0  0  0  0  0  0  0  0  0
    4.1448    3.9848  -18.5571 H   0  0  0  0  0  0  0  0  0  0  0  0
   10.7305   12.6029  -21.6869 H   0  0  0  0  0  0  0  0  0  0  0  0
  1  2  1  0  0  0  0
  1  3  2  0  0  0  0
  2  6  2  0  0  0  0
  3  7  1  0  0  0  0
  4  5  1  0  0  0  0
  4  8  2  0  0  0  0
  5 10  2  0  0  0  0
  6 11  1  0  0  0  0
  7 11  2  0  0  0  0
  8 12  1  0  0  0  0
  9 10  1  0  0  0  0
  9 12  2  0  0  0  0
 10 14  1  0  0  0  0
 11 24  1  0  0  0  0
 12 39  1  0  0  0  0
 13 15  1  0  0  0  0
 13 35  1  0  0  0  0
 13 36  2  0  0  0  0
 14 45  1  0  0  0  0
 14 46  2  0  0  0  0
 15 40  1  0  0  0  0
 15 47  2  0  0  0  0
 16 29  1  0  0  0  0
 16 41  1  0  0  0  0
 16 48  2  0  0  0  0
 17 30  1  0  0  0  0
 17 42  1  0  0  0  0
 17 49  2  0  0  0  0
 18 31  1  0  0  0  0
 18 43  1  0  0  0  0
 18 50  2  0  0  0  0
 19 34  1  0  0  0  0
 19 39  1  0  0  0  0
 19 51  2  0  0  0  0
 20 32  1  0  0  0  0
 21 32  1  0  0  0  0
 22 33  1  0  0  0  0
 23 33  1  0  0  0  0
 24 25  1  0  0  0  0
 25 34  1  0  0  0  0
 26 29  1  0  0  0  0
 26 32  1  0  0  0  0
 27 31  1  0  0  0  0
 27 40  1  0  0  0  0
 28 34  1  0  0  0  0
 28 41  1  0  0  0  0
 29 42  1  0  0  0  0
 30 33  1  0  0  0  0
 30 43  1  0  0  0  0
 31 44  1  0  0  0  0
 34 52  1  0  0  0  0
 35 37  1  0  0  0  0
 36 38  1  0  0  0  0
 37 38  2  0  0  0  0
  1 53  1  0  0  0  0
  2 54  1  0  0  0  0
  3 55  1  0  0  0  0
  4 56  1  0  0  0  0
  5 57  1  0  0  0  0
  6 58  1  0  0  0  0
  7 59  1  0  0  0  0
  8 60  1  0  0  0  0
  9 61  1  0  0  0  0
 20 62  1  0  0  0  0
 20 63  1  0  0  0  0
 20 64  1  0  0  0  0
 21 65  1  0  0  0  0
 21 66  1  0  0  0  0
 21 67  1  0  0  0  0
 22 68  1  0  0  0  0
 22 69  1  0  0  0  0
 22 70  1  0  0  0  0
 23 71  1  0  0  0  0
 23 72  1  0  0  0  0
 23 73  1  0  0  0  0
 24 74  1  0  0  0  0
 24 75  1  0  0  0  0
 25 76  1  0  0  0  0
 25 77  1  0  0  0  0
 26 78  1  0  0  0  0
 26 79  1  0  0  0  0
 27 80  1  0  0  0  0
 27 81  1  0  0  0  0
 28 82  1  0  0  0  0
 28 83  1  0  0  0  0
 29 84  1  0  0  0  0
 30 85  1  0  0  0  0
 31 86  1  0  0  0  0
 32 87  1  0  0  0  0
 33 88  1  0  0  0  0
 39 89  1  0  0  0  0
 40 90  1  0  0  0  0
 41 91  1  0  0  0  0
 42 92  1  0  0  0  0
 43 93  1  0  0  0  0
 44 94  1  0  0  0  0
 44 95  1  0  0  0  0
 44 96  1  0  0  0  0
 52 97  1  0  0  0  0
M  CHG  3  35  -1  44   1  45  -1
M  END
> <OMEGA_C>
G4SGQUgdKEE4MJLB94R4QQVpIkG8dI7BBBmIQVn1O0FRUpfBf61wQZlOkkHFhrjBLHhrQdeGm0FP
lrLB8TJnQTybMEFOyY/Bo95+QR0nSkH6rpjBAPhmQTFviEE2F7bBLfZSQT//kEF4vafBZn5cQfXr
mkFAHqrBsV1qQYmfREGzzJTBI/hXQVSsh0Hsr63B3wjWQK2pC0H1RXXBT6lWQf2LpEF5uKPBtAPK
QEdf7EDW7HzBfJIXQT5VNkFr5ZzBvC/iQJtrE0Hw7ZrBVvegQDn5zUCmvpjBNsU/QTFsdUFg6aPB
HP0nQTDA+UAb7ojBSfNDQQgB6EBf0JbBdAuVQI2RBUEakrLBnMiUQArbJkFGB6fBJaFXQW24U0G0
YZbB96lMQQE2T0FJQ6HBG9IsQcqmFEEgkpnBh4KPQHePu0B0hIXBJO0mQfIeW0HooprBxcgWQc6w
H0FKQJjBWNHDQBZcBkEx8KHB4tp7QBcTv0C3ApHB+24tQQvx+kAsApXBzVWwQJX5E0HSKKvBTb04
QYjGXUH2WKPB2t25QFgLHUHRo3TBENL7QKYtEUE7NG7B5zDUQGbpLEF7k2zBIhH6QD4XJkEw2WjB
FtNOQZ0ve0EutKvBi/KfQP8s5UArv4HBtLkjQQEJRUFLXJfBfXsGQSoWE0Gis53BUZqiQOpJ+UCM
NJvB3+VZQMgHlUD7aZTBEjhJQafNo0EZNZzBUClfQQhwrUF52aXB3snkQBSnz0A4K33BBxENQY9v
O0GgzqTBQAHVQBoKHkGjVpPBBIK7QHCHtEA7OZzBfdY3QQ8sgUFkr53B9CwwQRMrWEH+la3BiymN
QZlIHUGhHZHBahR2QbApE0Hmk4rBkvKPQSxJQEH7NZrBuSZ8QdbPkkGf977BaO5yQYAUo0ErgbTB
yXlXQVEtLEH594zBwaKAQZdDWUHQspzBdQdrQTNngUHcrrrBqplHQWB6kEE6QKHBbvAXQeefA0HD
pIfBjFMoQb5w2EAxF4bBENYzQQ1bBkGreITBgdFHQdDZ6EBsZZ/BUsxPQeX2+kD6WpLBzUlEQYix
xkB/+ZPB6K2oQB1c8EDVfbXBSA9zQFCJ/kCKE67BwYSJQIIFD0FbabnBBUCoQIYQMUHpw6HB30GJ
QLNUMEGN3K3Bg4lyQNmTIEG8hqLBJf1LQdNbUUFK44/Bhm1dQe9VZEFeP5bBjGFYQW7wUUGbr6fB
TXdHQfRlPkFcZqHBPLcwQSMAFEF8JaLBn+w4QdRGHkF4XpXBj1hrQF7ysECIKYDBBKSpQIv7o0D2
YIXBzX0rQWqLZEEzkJPBwsYXQUdGYUEc5J3B9woTQVa4IEHtqo/BQJPWQHnl8kBCpqXB485HQLXG
1kCSEZHBvK4hQVJa50AtXJnBotzKQFiaGkGN5q/BQLlTQX9bb0F5gLDBVpiLQLfa/UDSh4HBQdYq
QeAqQEHBnpDB8gQLQfmyCUEXxaPB9tWLQOQqBkF8N5jBOkcsQOidi0ANUo/BjjNBQOOIl0CMxJvB
iKKEQEIHf0DtdJTBFbArQaGlSUHafq3BDn6GQUzhJ0FbPZLBR3d4QWQ3IkESgI7B0BaIQYO3O0ER
YJfBLMRcQYz+mkHDMKrBvZdrQRuZm0FRmLLBlitnQXJyMEEy04/BneB+QerxSUE6u5jBMvpSQRc5
kUH1qafB5OFmQTODiEGAArbBE9ZwQU1dkkEbmLjB4V1qQX11REEi15TBI+dXQb/Vh0E9la3BAPvV
QHakC0EvQ3XBLkuAQUgNk0EQfMHBu+bJQHdW7ECP5nzB0Z0XQT9RNkGH65zBrSTiQBFkE0GH7ZrB
i8igQIHyzUCwuZjB5tQ/QZyidUFz1qPBS+snQWWd+UCT8IjBJtpDQUm450AV05bBoeGUQPKEBUGE
i7LBKMKUQOjUJkHjBafB/alXQZafU0EHZZbBDLJMQQJLT0HFSqHBlsssQRWRFEFtlZnBSlKPQDSX
u0CPfoXBavYmQdcoW0Hbo5rBNcgWQS+qH0EbRZjBwLvDQLlRBkG57KHB63V7QEscv0Cd/JDBDVst
Qb/E+kDTBJXBND6wQFPsE0FSJqvBb8g4QXPsXUHsVKPBltu5QBgLHUHpo3TBf8j7QFojEUFCM27B
ojnUQAjmLEFilmzB8hX6QEsOJkEm3GjBKMpOQeV6e0GaoKvBy9GfQJsw5UDguoHBi8sjQWAGRUHO
Y5fBOnQGQXATE0HAt53BlIKiQLND+UCCLpvBDmBZQNcUlUA9YpTBg6OCQSfKikGLycbBtJeEQV3r
m0FvrcPBY6PkQF6Vz0CKJH3BJhoNQV5tO0GU06TBrf/UQEEBHkHKVJPBe0S7QPZztEBzNZzBsA04
QQlKgUHlkp3B9DcwQcxeWEG6lK3BDSGNQUMGHUGwK5HBdAB2QVj5EkH3norB2/CPQWYDQEFfRZrB
r+BYQTQVokE4pqXBogxzQREoo0FXf7TBXXFXQUYMLEFRAI3B7KaAQfoMWUFvv5zBcJtHQRrUkEF1
K6HBxM5qQT9tgUEfjLrB6uIXQT+YA0GjpofBWTgoQUVO2EApGYbBy8ozQR9DBkEGfITB97dHQVKJ
6EA6aJ/BQLlPQWSh+kBWXpLBziZEQWppxkB4+5PBPHeoQF448ECYdrXBcbxyQF5//kAiCq7BPVqJ
QOj2DkFjY7nB7UWoQE0KMUFYxaHBwDqJQFlMMEHd263Bd31yQCCVIEGcgqLBCAFMQas2UUH56Y/B
2YFdQYk4ZEHhNJbB3WtYQW0YUkEGtKfBtXhHQah9PkGSfaHBw7EwQQjnE0GaKKLBMes4QVQqHkGO
YZXB+vNqQIkFsUDYIoDBk2upQDj6o0DpWoXBAXwrQdSNZEHjjJPBTM4XQRlLYUFv5Z3BKQoTQc21
IEHlr4/Bg3bWQAvJ8kCyoaXB/npHQEPZ1kCpC5HBY5QhQfo650AhXpnBGMTKQMeFGkHt5q/BNapT
QaSzb0FTdrDB+3+LQEbl/UDGg4HBjfUqQZIhQEEKq5DBo/gKQWG2CUGDzKPB6M2LQL4tBkHALpjB
mb0rQOG1i0CWSY/BPatAQJOWl0CpvJvB0leEQDIQf0DqbJTBfL0rQX7YSUETg63B

> <OMEGA_E>
hq2NP7zvjT8=

> <OMEGA_NBR>
     84336

$$$$
50169593
  -OEChem-04172616093D

 97 99  0     1  0  0  0  0  0999 V2000
   17.4142   11.2382  -21.6536 C   0  0  0  0  0  0  0  0  0  0  0  0
   16.8907   11.0838  -20.3533 C   0  0  0  0  0  0  0  0  0  0  0  0
   16.9567   12.2865  -22.4786 C   0  0  0  0  0  0  0  0  0  0  0  0
   11.8949   17.8739  -25.1205 C   0  0  0  0  0  0  0  0  0  0  0  0
   12.0684   19.1848  -24.6346 C   0  0  0  0  0  0  0  0  0  0  0  0
   15.9148   11.9815  -19.8746 C   0  0  0  0  0  0  0  0  0  0  0  0
   15.9804   13.1849  -22.0015 C   0  0  0  0  0  0  0  0  0  0  0  0
   11.8483   16.7882  -24.2243 C   0  0  0  0  0  0  0  0  0  0  0  0
   12.1492   18.3234  -22.3582 C   0  0  0  0  0  0  0  0  0  0  0  0
   12.1963   19.4180  -23.2440 C   0  0  0  0  0  0  0  0  0  0  0  0
   15.4683   13.0440  -20.6921 C   0  0  0  0  0  0  0  0  0  0  0  0
   11.9757   17.0027  -22.8343 C   0  0  0  0  0  0  0  0  0  0  0  0
    6.6037    8.6571  -14.8809 C   0  0  0  0  0  0  0  0  0  0  0  0
   12.3804   20.7933  -22.7044 C   0  0  0  0  0  0  0  0  0  0  0  0
    6.1803    7.3617  -15.4391 C   0  0  0  0  0  0  0  0  0  0  0  0
    9.4522   11.6076  -20.2880 C   0  0  0  0  0  0  0  0  0  0  0  0
    7.1535    9.0799  -19.6056 C   0  0  0  0  0  0  0  0  0  0  0  0
    5.1818    6.5861  -18.8774 C   0  0  0  0  0  0  0  0  0  0  0  0
   12.0045   15.8068  -20.5947 C   0  0  0  0  0  0  0  0  0  0  0  0
   10.3956    8.1956  -17.4961 C   0  0  0  0  0  0  0  0  0  0  0  0
   12.1064    7.4528  -19.2000 C   0  0  0  0  0  0  0  0  0  0  0  0
    4.7276    8.2753  -22.5649 C   0  0  0  0  0  0  0  0  0  0  0  0
    4.8830   10.3845  -21.1672 C   0  0  0  0  0  0  0  0  0  0  0  0
   14.4111   14.0028  -20.1820 C   0  0  0  0  0  0  0  0  0  0  0  0
   12.9894   13.4654  -20.4946 C   0  0  0  0  0  0  0  0  0  0  0  0
   10.7361    9.5181  -19.6798 C   0  0  0  0  0  0  0  0  0  0  0  0
    4.3427    6.0087  -16.5452 C   0  0  0  0  0  0  0  0  0  0  0  0
   10.4593   13.8983  -20.2927 C   0  0  0  0  0  0  0  0  0  0  0  0
    9.3767   10.2531  -19.5770 C   0  0  2  0  0  0  0  0  0  0  0  0
    6.1776    8.2634  -20.4608 C   0  0  2  0  0  0  0  0  0  0  0  0
    3.9699    6.1899  -18.0290 C   0  0  2  0  0  0  0  0  0  0  0  0
   10.7246    8.1121  -19.0081 C   0  0  0  0  0  0  0  0  0  0  0  0
    5.6425    9.1226  -21.6499 C   0  0  0  0  0  0  0  0  0  0  0  0
   11.8758   14.4165  -19.9504 C   0  0  2  0  0  0  0  0  0  0  0  0
    5.8102    9.8087  -14.8998 N   0  5  0  0  0  0  0  0  0  0  0  0
    7.7507    8.8934  -14.3005 N   0  0  0  0  0  0  0  0  0  0  0  0
    6.6397   10.7143  -14.2627 N   0  0  0  0  0  0  0  0  0  0  0  0
    7.7546   10.1891  -13.9188 N   0  0  0  0  0  0  0  0  0  0  0  0
   11.9253   15.8790  -21.9956 N   0  0  0  0  0  0  0  0  0  0  0  0
    4.9052    7.2542  -15.9937 N   0  0  0  0  0  0  0  0  0  0  0  0
   10.2449   12.5801  -19.7078 N   0  0  0  0  0  0  0  0  0  0  0  0
    8.3476    9.4288  -20.2031 N   0  0  0  0  0  0  0  0  0  0  0  0
    5.0793    7.7417  -19.6389 N   0  0  0  0  0  0  0  0  0  0  0  0
    3.3991    4.9341  -18.5576 N   0  3  0  0  0  0  0  0  0  0  0  0
   12.4843   20.9755  -21.4587 O   0  5  0  0  0  0  0  0  0  0  0  0
   12.4317   21.7734  -23.4950 O   0  0  0  0  0  0  0  0  0  0  0  0
    6.9393    6.3988  -15.3887 O   0  0  0  0  0  0  0  0  0  0  0  0
    8.8155   11.8295  -21.3162 O   0  0  0  0  0  0  0  0  0  0  0  0
    6.8964    9.3838  -18.4426 O   0  0  0  0  0  0  0  0  0  0  0  0
    6.2068    5.9085  -18.8662 O   0  0  0  0  0  0  0  0  0  0  0  0
   12.1418   16.7842  -19.8676 O   0  0  0  0  0  0  0  0  0  0  0  0
   11.9980   14.5095  -18.5232 O   0  0  0  0  0  0  0  0  0  0  0  0
   18.1659   10.5535  -22.0178 H   0  0  0  0  0  0  0  0  0  0  0  0
   17.2375   10.2775  -19.7240 H   0  0  0  0  0  0  0  0  0  0  0  0
   17.3542   12.4011  -23.4763 H   0  0  0  0  0  0  0  0  0  0  0  0
   11.7973   17.7010  -26.1821 H   0  0  0  0  0  0  0  0  0  0  0  0
   12.1041   20.0145  -25.3251 H   0  0  0  0  0  0  0  0  0  0  0  0
   15.5081   11.8570  -18.8819 H   0  0  0  0  0  0  0  0  0  0  0  0
   15.6237   13.9816  -22.6374 H   0  0  0  0  0  0  0  0  0  0  0  0
   11.7144   15.7855  -24.6025 H   0  0  0  0  0  0  0  0  0  0  0  0
   12.2473   18.4958  -21.2966 H   0  0  0  0  0  0  0  0  0  0  0  0
    9.4105    8.6657  -17.3601 H   0  0  0  0  0  0  0  0  0  0  0  0
   10.3806    7.1825  -17.0678 H   0  0  0  0  0  0  0  0  0  0  0  0
   11.1625    8.7977  -16.9869 H   0  0  0  0  0  0  0  0  0  0  0  0
   12.3392    7.3938  -20.2734 H   0  0  0  0  0  0  0  0  0  0  0  0
   12.8736    8.0548  -18.6910 H   0  0  0  0  0  0  0  0  0  0  0  0
   12.0917    6.4396  -18.7719 H   0  0  0  0  0  0  0  0  0  0  0  0
    5.2728    7.3820  -22.9035 H   0  0  0  0  0  0  0  0  0  0  0  0
    3.8324    7.9679  -22.0045 H   0  0  0  0  0  0  0  0  0  0  0  0
    4.4265    8.8736  -23.4374 H   0  0  0  0  0  0  0  0  0  0  0  0
    5.5393   10.9819  -20.5174 H   0  0  0  0  0  0  0  0  0  0  0  0
    4.5822   10.9865  -22.0373 H   0  0  0  0  0  0  0  0  0  0  0  0
    3.9880   10.0807  -20.6044 H   0  0  0  0  0  0  0  0  0  0  0  0
   14.5227   14.1183  -19.0938 H   0  0  0  0  0  0  0  0  0  0  0  0
   14.5436   14.9797  -20.6700 H   0  0  0  0  0  0  0  0  0  0  0  0
   12.8761   13.3719  -21.5848 H   0  0  0  0  0  0  0  0  0  0  0  0
   12.8722   12.4764  -20.0276 H   0  0  0  0  0  0  0  0  0  0  0  0
   10.9880    9.3956  -20.7436 H   0  0  0  0  0  0  0  0  0  0  0  0
   11.5046   10.1338  -19.1895 H   0  0  0  0  0  0  0  0  0  0  0  0
    3.4409    5.7372  -15.9769 H   0  0  0  0  0  0  0  0  0  0  0  0
    5.0883    5.2050  -16.4557 H   0  0  0  0  0  0  0  0  0  0  0  0
    9.7109   14.5983  -19.8928 H   0  0  0  0  0  0  0  0  0  0  0  0
   10.3520   13.8317  -21.3854 H   0  0  0  0  0  0  0  0  0  0  0  0
    9.1380   10.4154  -18.5156 H   0  0  0  0  0  0  0  0  0  0  0  0
    6.7319    7.4149  -20.8882 H   0  0  0  0  0  0  0  0  0  0  0  0
    3.2168    6.9883  -18.1023 H   0  0  0  0  0  0  0  0  0  0  0  0
    9.9626    7.4917  -19.5027 H   0  0  0  0  0  0  0  0  0  0  0  0
    6.5074    9.4526  -22.2441 H   0  0  0  0  0  0  0  0  0  0  0  0
   11.8174   15.0016  -22.4631 H   0  0  0  0  0  0  0  0  0  0  0  0
    4.3356    8.0757  -16.0189 H   0  0  0  0  0  0  0  0  0  0  0  0
   10.6954   12.3682  -18.8405 H   0  0  0  0  0  0  0  0  0  0  0  0
    8.5199    9.0935  -21.1293 H   0  0  0  0  0  0  0  0  0  0  0  0
    4.2145    8.2436  -19.6271 H   0  0  0  0  0  0  0  0  0  0  0  0
    2.6069    4.6699  -18.0075 H   0  0  0  0  0  0  0  0  0  0  0  0
    3.1152    5.0706  -19.5066 H   0  0  0  0  0  0  0  0  0  0  0  0
    4.0891    4.2113  -18.5168 H   0  0  0  0  0  0  0  0  0  0  0  0
   12.1173   15.4184  -18.2737 H   0  0  0  0  0  0  0  0  0  0  0  0
  1  2  1  0  0  0  0
  1  3  2  0  0  0  0
  2  6  2  0  0  0  0
  3  7  1  0  0  0  0
  4  5  1  0  0  0  0
  4  8  2  0  0  0  0
  5 10  2  0  0  0  0
  6 11  1  0  0  0  0
  7 11  2  0  0  0  0
  8 12  1  0  0  0  0
  9 10  1  0  0  0  0
  9 12  2  0  0  0  0
 10 14  1  0  0  0  0
 11 24  1  0  0  0  0
 12 39  1  0  0  0  0
 13 15  1  0  0  0  0
 13 35  1  0  0  0  0
 13 36  2  0  0  0  0
 14 45  1  0  0  0  0
 14 46  2  0  0  0  0
 15 40  1  0  0  0  0
 15 47  2  0  0  0  0
 16 29  1  0  0  0  0
 16 41  1  0  0  0  0
 16 48  2  0  0  0  0
 17 30  1  0  0  0  0
 17 42  1  0  0  0  0
 17 49  2  0  0  0  0
 18 31  1  0  0  0  0
 18 43  1  0  0  0  0
 18 50  2  0  0  0  0
 19 34  1  0  0  0  0
 19 39  1  0  0  0  0
 19 51  2  0  0  0  0
 20 32  1  0  0  0  0
 21 32  1  0  0  0  0
 22 33  1  0  0  0  0
 23 33  1  0  0  0  0
 24 25  1  0  0  0  0
 25 34  1  0  0  0  0
 26 29  1  0  0  0  0
 26 32  1  0  0  0  0
 27 31  1  0  0  0  0
 27 40  1  0  0  0  0
 28 34  1  0  0  0  0
 28 41  1  0  0  0  0
 29 42  1  0  0  0  0
 30 33  1  0  0  0  0
 30 43  1  0  0  0  0
 31 44  1  0  0  0  0
 34 52  1  0  0  0  0
 35 37  1  0  0  0  0
 36 38  1  0  0  0  0
 37 38  2  0  0  0  0
  1 53  1  0  0  0  0
  2 54  1  0  0  0  0
  3 55  1  0  0  0  0
  4 56  1  0  0  0  0
  5 57  1  0  0  0  0
  6 58  1  0  0  0  0
  7 59  1  0  0  0  0
  8 60  1  0  0  0  0
  9 61  1  0  0  0  0
 20 62  1  0  0  0  0
 20 63  1  0  0  0  0
 20 64  1  0  0  0  0
 21 65  1  0  0  0  0
 21 66  1  0  0  0  0
 21 67  1  0  0  0  0
 22 68  1  0  0  0  0
 22 69  1  0  0  0  0
 22 70  1  0  0  0  0
 23 71  1  0  0  0  0
 23 72  1  0  0  0  0
 23 73  1  0  0  0  0
 24 74  1  0  0  0  0
 24 75  1  0  0  0  0
 25 76  1  0  0  0  0
 25 77  1  0  0  0  0
 26 78  1  0  0  0  0
 26 79  1  0  0  0  0
 27 80  1  0  0  0  0
 27 81  1  0  0  0  0
 28 82  1  0  0  0  0
 28 83  1  0  0  0  0
 29 84  1  0  0  0  0
 30 85  1  0  0  0  0
 31 86  1  0  0  0  0
 32 87  1  0  0  0  0
 33 88  1  0  0  0  0
 39 89  1  0  0  0  0
 40 90  1  0  0  0  0
 41 91  1  0  0  0  0
 42 92  1  0  0  0  0
 43 93  1  0  0  0  0
 44 94  1  0  0  0  0
 44 95  1  0  0  0  0
 44 96  1  0  0  0  0
 52 97  1  0  0  0  0
M  CHG  3  35  -1  44   1  45  -1
M  END
> <OMEGA_C>
YlCLQbnPM0GeOq3BOSCHQRJXMUGa06LBR6eHQWeVREFA1LPBVlE+QbP9jkHC9sjBWxhBQXB6mUGf
E8XBLaN+QSK0P0E6/57B3q9/QT/1UkECA7DBppI9QTdOhkFqy8HB9GJCQVmWkkGu3bLB+CNDQSRY
m0Gw87nBEn53QRG0UEFeiaXBS5w/QZkFiEGfrLbBxFHTQG6DCkEcGG7BBxZGQaxYpkGgorXBIsXF
QEeT60BpBnfBGTwXQce4OUHGTaLBtOnkQHdHEUFO2JzBNdGlQJrB0kDeBJfBYxJAQZLofEEDwqTB
YlQmQS8hA0EN+IvBtLNBQR197kCVmZnBiUiXQMBnBEHShLTBh0GcQOEmJkFeVqnB45NmQYsLYEHV
dKHBqdRPQUxyV0EG9aPB3cYrQUdKGEFHcJ3BGveKQHhHwECEXITBJ1knQW5fXkF8V6LByQYWQa0M
JEHMnZzB1K7FQA03BEG0r6PB7BJ+QGETxkBoO5DBxpcrQR/LAUGmEJjBoI+0QBP2EUELM63BJQM+
QSOqZkGFmp/B0+y5QILwHEGIZW7BJAb4QDZLDkHazmTBPXjUQMxtK0EUNGTBsyX4QFsGI0Fos17B
JM4+QUUQfkHy9q/Bt/ecQDci6EBG5n/BHusjQUBISUGUqZ3B+I8FQU/cFkHrn6HB5omiQOS790CL
HJ3BootZQM/jnUDvdZTB1b9HQeDNp0Fbq6vBVehGQfgvrkG+9bvB2A7eQOPCzEBNOHbBNQwNQZRF
PUGgh6rBs6/cQNwjFkGEipPBJJ7GQMASvUDi7ZbB2ERCQQ1GhkG/8J7BAfg/QegmaEGSL5TBs1OR
QQ/bKEFoJLDBe+aJQYRwJEHIyp3BY9WKQehqRkFgz7vBusE8QcCbjUHvdNHBeqpBQZ8doEG4mcrB
DCF4QSC2PUEyDpfBtvp5QYy0X0FlGbXBIm47QVeRfEH/0cTB2vRDQVb3k0F0X6rBOZEWQaqmCkF1
4YrB+hYmQV/X5UDLiojBmpkyQWvDDEEd5YfBdG1FQSma7EAFMKLBIPpNQUTgAEE+h5XBgHdBQRIR
zkDsLJbB27qoQC857EBcOrfBUEV1QNP4/kA1CbDB4KWNQHj6DUHPf7vBS0KxQBG2L0GNI6TBHaGS
QKzIL0FcTLDByzt/QJ5KIUHC1aTB3VxoQaTkYUErwJjBj7JoQQutb0ETXKXBZwROQTDzVUGhrazB
gfRNQU6fR0GNOKDBxM4vQYVUFkHN8qXBphI4QQEkIkEwhJnB7DZcQNCWt0AwoX/BoNOiQGGPpkA/
pYPBr18bQYiSaUF7JJ/Bv6ElQYxOXUFkFavBYjUSQY2lJkHqH5TB+2vXQN5G7UAPG6fBQuBNQBKg
30CA0ZDB72YfQdW770BzBZzB4jzQQNM9F0Hn87HB/BM9QYEGcEFctLPBXb2KQA82AUGfJoDBdiAr
QU7kRUFyuZbBWlEIQeJ+EUHZCKnBRt2GQOPlA0FiBJ3BOdgmQMdvlUBID5DBGl9HQIJCokCbDZzB
09mCQFfDhkBiIpTBVeBBQZSxdkGGMJLB6tNtQYy0lUGWjMHBvGZxQeGzikGFScPBWgRlQT89mUFf
yLfBg8w7QRIsiUGe2W/BRcYtQffykUGV2m/BZkxsQUU8g0FpO7vBGuVfQTTIkUHiuK/BIHw+Qe36
gkHSMoHBJ/skQfJdjkG1nIrBwTMiQbmnlEG7RYHBkMljQTrGhkHoX7HBvg0zQX+ChUEdrYrB9NLV
QO97C0GKm27B8F8TQZ/6nUG/O4HB2gjHQHqQ7UCqF3fB6ZUXQcLFOEEHbaPB8cPkQB0QEUFEL53B
qmykQD3W00DezJbBVyxBQbBYbUHGp5bBVIAmQYhUAkGUwIzB5Q1BQccM60BdlJrB99aUQJo0BEEG
ZrTBVgycQKk9JkEShqnBg/FdQfV8fUGNyqjB1q1GQYCwdUHjc6rBkr8rQZQPF0GYYJ7Bsp6KQIsP
w0BL84PBsPgoQdziXEFHoKTBIkYWQY9UI0Hfc53BDorEQE8UBEEbyaPBws57QB9tyEB3yI/BBkUr
QfWlAEEU45jBwjyzQDOvEUHtVK3BmR9AQbNOZEE5MaLBuTm9QIUtHkFg8m7BUAr7QAQAD0FxvGXB
ycnYQFmGLEEqPWXB3038QHnQI0HF81/BVdQ0QaOAf0FSTpTBedOdQBzC6kB6i3/BWnQkQaelSEHA
IZ/BmWMFQf81FkG/LqLBSomhQGuU+EBJ/pzBRttUQPdpoECPxZPBARYJQXJdoEGIlYnBvCsRQbV2
o0GFp3HBRK7eQGdBzkCDS3bBZGANQcnYO0HfsKvBv3HdQAE9FkGD4JPB0LbEQBhmvUCPy5bBnsFM
QaaOZEGPEZDBJV5OQY5iUkGaTaPBZ9dxQextm0Gzs8fBNQx4QW//h0EyysrBdTFiQa+poUGperbB
g5BEQcEsh0ERgWHBOM8rQXuplkFHgWHBLuVuQR2bdUFKmLzBZv1YQXR8lEElR6jBiFFJQcR/eEGC
HoHBzjccQXpfkEGQyJHBHPkWQWRCCkFIjYvBCP4lQVBj5EB0P4nBUygzQZ66C0Hh1ojB2W1EQTWs
6EAeMqPBELdNQdLX/UBGq5bBxYxAQebFykDZE5fBfHqlQLJL60DVErfBALNwQB12/0Bkva/BLA+L
QFunDUGoaLvBNNOxQDnAL0E0gaTBeEeSQCK+L0FRhLDBmSN/QNXRIUEN2aTBeORoQfG8b0EJPqnB
rllfQTyKgkEb4qDBiM87QeO3gUFZo6nBeDlFQZfybkGCjLLBtngvQXTZFEEj6KbBhF84QQ64IEFo
mZrBHt9bQD1Gu0C7eH7BMPehQGvdqECOQIPBeaUdQeApaUFF2qHBCyAnQS6dWkGwTa3B4NUSQftc
JkHb9JTB3oHVQKxz7ED3K6fBrKtMQPd44kDMWZDB+bEeQbzi7UBBrZzBV7/OQISGFkFgQrLBOP8r
QXKJgkH2XZrBKCiMQF22AkF69n/BE/wqQacvRkHQ7pfB68YHQb+OEEEbkqnB8D6GQEajBEHa0ZzB
PHwiQJ7KmEAoOI/BC7VBQC6KpEDQVZvBfgKAQLDRiECMdpPBCUtVQZK7T0FGq5zBoXI7Qdv4o0Fp
4KzBP149QVCIn0HCjKLBC7oxQZALnkGfJ7XBZEmEQehmQEHQOJvBfbeFQWmpLkFxBaLBw3E1QYYw
lUEXeqDBicwpQR2zk0HLGLPBq0Z1QXgITEGxdJvBnKZnQSwgNEFkP6nBR+t6QSNiKEFRG6nBPWcr
QWBRj0HJt6jBCKBkQf0PRkGhe6LBDiXVQHcpDEGQ0nTBqpl9QfuyFUGHYbDBOr7JQIJO7UAJn3zB
upkVQe8JOEEgVJzBmcHgQDZmFEGYe5rBStygQHYFz0DinZjBXl4/QQ+NUEEZpKjBu98nQb6S/EC0
2IjB7/tDQZ877UBg2pbBhzmUQAR7BkFZTLLBJ9aSQBuJJ0Fgm6bBKBojQf40hEFbhqbBWxU1QeDB
d0E6WKjB0zYsQfQAF0GnLJnBIumPQDnNu0DlaYXBP8wjQZvBXUHzHpvBb+YVQRtjIUHGppfB+uDC
QJtOB0HZoaHBMEl8QB1ev0CC45DBKFEtQdIs/0Dw6ZTBhQmvQET0FEG1zarBoOssQfWSYEGNrabB
pW64QKBPHUFt/XPBw8/6QCnsEUFlym3B51DSQExSLUGs2mvB32/4QG/GJkFyQ2jBAeJRQTKEUkGo
XKLBZ8GfQDqP5UC2lIHBtqwiQfZWR0HRpZfBgOEFQbIyFEEpD53BQdqhQD5u+kDf+5rBbo1bQDQq
lUDsWpTBJqVuQe1hEEH1orbBoGyHQUs/C0GhR7DBoPTkQIIC0UCFA33BFB0JQUqsPEG9jKPBSP3S
QKQBH0GR9JLB6MG7QF4XtkDyJ5zB57M8Qak0QkGKNK/BelYcQdkJXUE3aK7BYm5BQX3sq0G8cq7B
hulEQcQPpEGGO5zBYFwwQSZwoUFAEr3BkZqKQUAZRUHG0JXBMSONQdjRJUEa1KHBMww3QbrAkUEp
l5jBEYAiQasfj0HOc7nBBjNzQSmfWUFzOJbBIPhaQYdbL0FInK7Bf7UXQYqwBEE4e4fBj38oQboA
20DoN4bBYI0zQfS9B0HBQ4TBnNFHQTQc70DFbZ/BQq1PQWMRAEFBR5LBcZ9EQZmny0BoO5TBYEeo
QGeX8kCxRbXB2rxxQCHI/0Db2K3Bd3eIQJD5D0GYGbnBceqlQPDNMUHhSKHB/BOHQC0KMUG6Z63B
5PVuQK70IEH9JqLBY48dQe65g0G0L57Bc64VQS17gkEz86vB7Bs7QUtfeUHEkrDBbiZCQcPkekFi
qaLBtQ4wQXPoFkENw6HB0B84QQmtIEHl3JTBCJpsQP+ksEAyD4DBZ2aqQHWfpECtVYXBnScuQQiM
ZkGfhpXBuZETQWONZEHP5JrBElkSQUI+IkEPC4/ByBHWQOg69UDbZKXB3INHQLKq1kAI45DBfbwh
QcGc60CZYpnB+WPJQBzgG0EIgK/BublRQeF4XkHLC53BSwiLQDDr/UAfT4HB6+orQWDRQkGEhZHB
PMAKQeKBCkHa8KLBcbmKQCSBBkEL/JfBBlYuQFNCi0CLQ4/BDKBCQGivl0BJspvBDMqFQGAEgEB0
c5TBV+4fQbcQUUEKu7LBtyNkQTNxnEGiobDB2lZTQW4+mEHI4bbB1mBvQYm/lUEvf6nBEMeCQeg1
LEHgb5HB0GSGQSy8NEHJsYfBe9tNQSNWjUGdDbbBEelpQXTWikHNp6jBtBp0QTh/NUEoxJbBgfJw
QcwSUEG+j4jBd0iBQYvDRkFsI4PBhU5ZQYWShkEDCa/BwpFpQU6bR0G4YJLB6q3UQOmYC0ENRXXB
MSaFQcy6T0Gbm3HBng/HQFit7EAx23zBWRMYQVFhNUFcFZ3B9PTgQMZUE0FD4prB0n6cQBPBz0Cx
ppjBQotNQeEWTUFg0KDBTWUmQbma9UAJJ4nBt+5BQfgP4kAZGZfBKFmSQD11BkFdarLBo4KUQFPQ
J0Hc8KbBmTBTQcPDdUE1B67B95tBQZkFc0GVZ6XBj0EsQazXEkEEopnB5bWKQLb6vUAeZ4XBpoYo
QQsvWkEZfpvBL6AWQSK9HkHNT5jBb6HBQGykBkEP2KHBrhtyQLElwkAU4JDBH+ArQSf59kBJOZXB
+MGuQPN4FEHfEqvB81s6QRtYW0GfJaTBRMS5QLt3HUHTlXTBZOj6QNFyEEGRT27BYkrVQJ3eLEFZ
n2zBMrP6QOliJUHl/GjB9QpYQbrtUUHMM5fBkLGcQFb55kD6poHBL6YkQbY2REGlvpfBPtkFQZCE
EkEIt53Bl9yfQP8E+0BxEJvBKedMQNHAmEAZQJTBB5CAQW3LX0F0hmnBdAONQXAxR0E4QGjBZczg
QCAHz0C5KX3B35YNQSJwOkFyAaXBoYHUQCccHkFwRpPB1OW1QCxRtUBMMpzBsJNSQWn6PUFui6bB
y8UxQTwdVEGhJ67B7mZoQa3JpEHdTrHBhKtKQepinUE2TrzBmS18QQr7mEEDraTBnrqGQbxwHkH3
2JTBzB2NQQB9LUFcp4PBmuNAQUQlikHeybrBDWtyQU68hUF6IaPBpqduQS/SLkFQQZ7BPwxpQRjW
XUFGJIXBF60WQfdAAkFF0YfBZvQlQQUk1ECCbobBlKoyQd+XA0GWoITBTNNFQVkJ40A3rZ/BJDRO
QeGk80C5kpLB9n1BQSmZwECmYJTBcgelQGB58UCBV7XBbB1tQLOjAEF53a3BKEOHQPUKEEGEQbnB
9ryoQD/AMUE2uqHB4GyJQK1pMUHDxq3B3HBxQGsCIkG4YqLBJB5NQUj7b0Hiw7XB9l5hQY9pbEH/
uavBrehHQTereEEfsJ3B46kzQZS+fEGqrqfBgUAwQbRFEkHFMqLBm6s4QdLbG0FIUpXBbDhhQFlK
tECbBIDBgvujQAt7pUC0S4XBJ1ktQfgQZEEgn5TBI5oZQVaHYEGS6Z7BOfcSQcgHIEF2uo/BAofT
QOPV8kCXi6XBads/QK3M2kBH55DBd7EfQbe05EA8o5nBoJDJQMOjGkEP36/BEj9SQRqEXkEhNJPB
2TqJQGUtAEGBZ4HBRIorQaesP0EF5JDBvxIKQQwJCUF0zaPBzv2JQOh0B0HLAJjBY88eQJk1kECz
II/BYyA0QN6ym0D4lpvBa6J6QEVegkBAUZTB3Jc5QYj+R0FOjbDBhRpkQQBxnEGLrbDBR0RTQT1D
mEHT6rbBcFdvQQ68lUE8jqnBxh2BQez0RkH1TYPBrEOGQaQHNUEdyofBC71NQbhcjUG9FbbBvdNp
QdTUikG1tajBWq5wQc1hUEEQk4jBG7RzQenzNUH0zpbByaWCQX5gLEFonJHBzy1ZQYSWhkEXE6/B
uTppQdH+R0GtYZLBG6zUQFuQC0HxSHXBCviHQRNwGUEQgpbB6fvGQEuj7EB14XzBL/MXQQBpNUEc
Hp3BNsjgQM5ZE0FV5JrB7T+cQJvUz0BKppjBJjRNQdBTTUFW2aDBwGAmQWSd9UBFOYnB7ORBQWUj
4kDgMJfBKwSSQIeEBkFAZbLBklOUQGTfJ0GI7KbBaf5SQQDUdUGKDa7BTldBQXUtc0HSc6XBji4s
QQLfEkHAs5nBX4iKQJAFvkDNZYXBMDwoQctLWkH/hZvBFY0WQT3BHkHPWZjBQmjBQI2sBkG516HB
mKlxQIU7wkCx3ZDBo9QrQY0D90B7TJXBvYCuQM+DFEGjEKvB0As6QVuGW0HxLqTB+cu5QHdyHUHw
j3TBv+76QNRjEEEfWm7BVWDVQAbULEFUm2zBJsj6QMtSJUEoAmnB8LBXQc48UkH3OJfB5JWcQDP8
5kAapYHBv3UkQTZLREEUxpfB58AFQVqHEkH8vJ3BLqqfQMQa+0AkDZvBqmBMQPXamEDHPZTBpJeE
QT74EUEiRZ/B6NiPQUnoEEHO4JHBcLDgQFv2zkCyOH3BxnUNQXlwOkEBC6XBR2LUQFggHkHURpPB
H5a1QApftUC4NpzBVS5SQYI8PkEYm6bBpngxQZ5IVEGTMa7BJGVoQYrIpEGoWrHBGZtKQUtqnUGt
VbzBGi18QbbzmEFpv6TBUeeDQex9TUF/nXfBEv6MQbPcLUELuYPBS75AQVUvikGfz7rB4VRyQeK3
hUGlMaPBL91oQTEgXkG1FoXBxR1uQapoL0ERTZ7B4acWQfo+AkHU4IfBm/QlQUMl1ECogYbB7aYy
QYGaA0EQtITBkMNFQT8j40CexZ/BrStOQZq680D2q5LBW3lBQduqwECNeZTBLKWkQKGR8UD5U7XB
e3lsQLS3AEG11a3BNOqGQL4bEEF6O7nBopuoQHTMMUHct6HB2jmJQBd6MUGPwa3BxRhxQA4WIkHK
W6LBD/VMQeEGcEEgy7XB7yFhQStybEF8t6vBEJlHQcXZeEFcu53BZG4zQbDqfEFNxKfB/SIwQSJQ
EkHHRaLB5Zw4QTzjG0EoZ5XBeOJgQLRatEDnAYDBGsajQJt9pUDpTIXB6QYtQegyZEGIp5TBX0cZ
QeiTYEHd757BhO4SQSEIIEE6w4/BV0TTQLPj8kAGjaXBi3E/QLvm2kBN4pDBAKUfQfm85EAztZnB
O0vJQHyqGkGa36/Br9lRQZTSXkH3PJPBmSWJQPIwAEFnYYHBTl8rQffHP0G165DBW/UJQWcJCUFV
06PB4NmJQFOCB0Eb+ZfByVAeQO5QkEAlHY/BpIszQIbSm0DCk5vBphR6QM50gkAVUZTBgk05QTIr
SEGXlrDB

> <OMEGA_E>
cjeXP4jelT9qrJg/gomLP70viT8=

> <OMEGA_NBR>
     91892

$$$$
50169591
  -OEChem-04172616093D

101104  0     1  0  0  0  0  0999 V2000
    7.7916   18.2028  -22.7943 C   0  0  0  0  0  0  0  0  0  0  0  0
    8.6202   17.5543  -23.7330 C   0  0  0  0  0  0  0  0  0  0  0  0
    8.0796   18.1117  -21.4175 C   0  0  0  0  0  0  0  0  0  0  0  0
   15.8298   12.2917  -18.4900 C   0  0  0  0  0  0  0  0  0  0  0  0
   16.1666   12.9860  -17.3164 C   0  0  0  0  0  0  0  0  0  0  0  0
    9.7370   16.8136  -23.2966 C   0  0  0  0  0  0  0  0  0  0  0  0
    9.2003   17.3786  -20.9800 C   0  0  0  0  0  0  0  0  0  0  0  0
   14.6960   12.6604  -19.2318 C   0  0  0  0  0  0  0  0  0  0  0  0
   14.2236   14.4308  -17.6210 C   0  0  0  0  0  0  0  0  0  0  0  0
   15.3673   14.0641  -16.8680 C   0  0  0  0  0  0  0  0  0  0  0  0
   10.0360   16.7292  -21.9189 C   0  0  0  0  0  0  0  0  0  0  0  0
   13.8774   13.7375  -18.8032 C   0  0  0  0  0  0  0  0  0  0  0  0
    6.5217    8.6353  -14.8281 C   0  0  0  0  0  0  0  0  0  0  0  0
   15.7278   14.7978  -15.6235 C   0  0  0  0  0  0  0  0  0  0  0  0
    5.4872    7.7008  -15.3019 C   0  0  0  0  0  0  0  0  0  0  0  0
    9.0117   11.8660  -20.1977 C   0  0  0  0  0  0  0  0  0  0  0  0
    6.9227    9.3049  -19.8506 C   0  0  0  0  0  0  0  0  0  0  0  0
    5.5678    6.5528  -18.8717 C   0  0  0  0  0  0  0  0  0  0  0  0
   12.1578   13.6979  -20.6728 C   0  0  0  0  0  0  0  0  0  0  0  0
   12.1134    7.0813  -16.5212 C   0  0  0  0  0  0  0  0  0  0  0  0
   12.3273    6.8206  -18.0271 C   0  0  0  0  0  0  0  0  0  0  0  0
   10.7169    7.6819  -16.2539 C   0  0  0  0  0  0  0  0  0  0  0  0
   12.1199    8.1120  -18.8448 C   0  0  0  0  0  0  0  0  0  0  0  0
   10.4916    8.9650  -17.0803 C   0  0  0  0  0  0  0  0  0  0  0  0
   10.7110    8.7040  -18.5979 C   0  0  0  0  0  0  0  0  0  0  0  0
    4.9478    7.6193  -22.7828 C   0  0  0  0  0  0  0  0  0  0  0  0
    4.4852    9.8428  -21.6638 C   0  0  0  0  0  0  0  0  0  0  0  0
   11.2319   15.9167  -21.4444 C   0  0  0  0  0  0  0  0  0  0  0  0
   10.5519   10.0118  -19.4268 C   0  0  0  0  0  0  0  0  0  0  0  0
    3.8229    7.1084  -17.1209 C   0  0  0  0  0  0  0  0  0  0  0  0
    9.7262   14.2871  -20.1689 C   0  0  0  0  0  0  0  0  0  0  0  0
    9.0871   10.5212  -19.4637 C   0  0  2  0  0  0  0  0  0  0  0  0
    6.2114    8.2052  -20.6507 C   0  0  2  0  0  0  0  0  0  0  0  0
    4.4444    5.9833  -17.9851 C   0  0  2  0  0  0  0  0  0  0  0  0
    5.5657    8.7696  -21.9513 C   0  0  0  0  0  0  0  0  0  0  0  0
   10.8867   14.4154  -21.2013 C   0  0  2  0  0  0  0  0  0  0  0  0
    6.9112    9.7820  -15.5288 N   0  5  0  0  0  0  0  0  0  0  0  0
    7.1871    8.5270  -13.7087 N   0  0  0  0  0  0  0  0  0  0  0  0
    7.8634   10.3062  -14.6732 N   0  0  0  0  0  0  0  0  0  0  0  0
    8.0239    9.5844  -13.6290 N   0  0  0  0  0  0  0  0  0  0  0  0
   12.7295   14.1775  -19.4859 N   0  0  0  0  0  0  0  0  0  0  0  0
    4.8414    7.9772  -16.5030 N   0  0  0  0  0  0  0  0  0  0  0  0
    9.6290   12.9460  -19.5876 N   0  0  0  0  0  0  0  0  0  0  0  0
    8.2590    9.5183  -20.1347 N   0  0  0  0  0  0  0  0  0  0  0  0
    5.2240    7.5220  -19.8074 N   0  0  0  0  0  0  0  0  0  0  0  0
    4.9383    4.8854  -17.1211 N   0  3  0  0  0  0  0  0  0  0  0  0
   15.0121   15.7593  -15.2290 O   0  5  0  0  0  0  0  0  0  0  0  0
   16.7496   14.4533  -14.9677 O   0  0  0  0  0  0  0  0  0  0  0  0
    5.1883    6.7199  -14.6281 O   0  0  0  0  0  0  0  0  0  0  0  0
    8.3729   11.9937  -21.2397 O   0  0  0  0  0  0  0  0  0  0  0  0
    6.3310    9.9635  -18.9979 O   0  0  0  0  0  0  0  0  0  0  0  0
    6.7314    6.1813  -18.7349 O   0  0  0  0  0  0  0  0  0  0  0  0
   12.5957   12.7274  -21.2821 O   0  0  0  0  0  0  0  0  0  0  0  0
   10.4769   13.8244  -22.4422 O   0  0  0  0  0  0  0  0  0  0  0  0
    6.9359   18.7695  -23.1304 H   0  0  0  0  0  0  0  0  0  0  0  0
    8.3987   17.6253  -24.7877 H   0  0  0  0  0  0  0  0  0  0  0  0
    7.4414   18.6037  -20.6984 H   0  0  0  0  0  0  0  0  0  0  0  0
   16.4462   11.4701  -18.8237 H   0  0  0  0  0  0  0  0  0  0  0  0
   17.0408   12.6951  -16.7528 H   0  0  0  0  0  0  0  0  0  0  0  0
   10.3649   16.3099  -24.0166 H   0  0  0  0  0  0  0  0  0  0  0  0
    9.4220   17.3121  -19.9251 H   0  0  0  0  0  0  0  0  0  0  0  0
   14.4455   12.1213  -20.1335 H   0  0  0  0  0  0  0  0  0  0  0  0
   13.6075   15.2523  -17.2864 H   0  0  0  0  0  0  0  0  0  0  0  0
   12.2061    6.1308  -15.9753 H   0  0  0  0  0  0  0  0  0  0  0  0
   12.8809    7.7846  -16.1658 H   0  0  0  0  0  0  0  0  0  0  0  0
   13.3520    6.4538  -18.1869 H   0  0  0  0  0  0  0  0  0  0  0  0
   11.6086    6.0602  -18.3665 H   0  0  0  0  0  0  0  0  0  0  0  0
    9.9503    6.9413  -16.5257 H   0  0  0  0  0  0  0  0  0  0  0  0
   10.6297    7.9243  -15.1845 H   0  0  0  0  0  0  0  0  0  0  0  0
   12.8781    8.8516  -18.5478 H   0  0  0  0  0  0  0  0  0  0  0  0
   12.2313    7.8822  -19.9148 H   0  0  0  0  0  0  0  0  0  0  0  0
    9.4615    9.3170  -16.9223 H   0  0  0  0  0  0  0  0  0  0  0  0
   11.1987    9.7373  -16.7434 H   0  0  0  0  0  0  0  0  0  0  0  0
    9.9590    7.9782  -18.9411 H   0  0  0  0  0  0  0  0  0  0  0  0
    5.7163    6.8589  -22.9857 H   0  0  0  0  0  0  0  0  0  0  0  0
    4.1205    7.1632  -22.2194 H   0  0  0  0  0  0  0  0  0  0  0  0
    4.5671    8.0186  -23.7345 H   0  0  0  0  0  0  0  0  0  0  0  0
    4.9264   10.6590  -21.0730 H   0  0  0  0  0  0  0  0  0  0  0  0
    4.1042   10.2433  -22.6149 H   0  0  0  0  0  0  0  0  0  0  0  0
    3.6576    9.3878  -21.0998 H   0  0  0  0  0  0  0  0  0  0  0  0
   12.0218   15.9762  -22.2076 H   0  0  0  0  0  0  0  0  0  0  0  0
   11.5989   16.3496  -20.5022 H   0  0  0  0  0  0  0  0  0  0  0  0
   11.1849   10.7919  -18.9787 H   0  0  0  0  0  0  0  0  0  0  0  0
   10.8834    9.8179  -20.4576 H   0  0  0  0  0  0  0  0  0  0  0  0
    3.1740    7.7255  -17.7596 H   0  0  0  0  0  0  0  0  0  0  0  0
    3.2215    6.6482  -16.3230 H   0  0  0  0  0  0  0  0  0  0  0  0
    9.8960   15.0103  -19.3576 H   0  0  0  0  0  0  0  0  0  0  0  0
    8.7779   14.5202  -20.6754 H   0  0  0  0  0  0  0  0  0  0  0  0
    8.7379   10.6609  -18.4300 H   0  0  0  0  0  0  0  0  0  0  0  0
    6.9728    7.4723  -20.9558 H   0  0  0  0  0  0  0  0  0  0  0  0
    3.6573    5.5884  -18.6443 H   0  0  0  0  0  0  0  0  0  0  0  0
    6.3609    9.2368  -22.5509 H   0  0  0  0  0  0  0  0  0  0  0  0
   12.2501   14.9461  -19.0622 H   0  0  0  0  0  0  0  0  0  0  0  0
    5.0844    8.8222  -16.9794 H   0  0  0  0  0  0  0  0  0  0  0  0
   10.0371   12.7996  -18.6865 H   0  0  0  0  0  0  0  0  0  0  0  0
    8.6852    8.9534  -20.8412 H   0  0  0  0  0  0  0  0  0  0  0  0
    4.2594    7.7647  -19.9103 H   0  0  0  0  0  0  0  0  0  0  0  0
    4.1869    4.5386  -16.5598 H   0  0  0  0  0  0  0  0  0  0  0  0
    5.2958    4.1467  -17.6925 H   0  0  0  0  0  0  0  0  0  0  0  0
    5.6659    5.2298  -16.5278 H   0  0  0  0  0  0  0  0  0  0  0  0
   11.0571   13.1034  -22.6569 H   0  0  0  0  0  0  0  0  0  0  0  0
  1  2  1  0  0  0  0
  1  3  2  0  0  0  0
  2  6  2  0  0  0  0
  3  7  1  0  0  0  0
  4  5  1  0  0  0  0
  4  8  2  0  0  0  0
  5 10  2  0  0  0  0
  6 11  1  0  0  0  0
  7 11  2  0  0  0  0
  8 12  1  0  0  0  0
  9 10  1  0  0  0  0
  9 12  2  0  0  0  0
 10 14  1  0  0  0  0
 11 28  1  0  0  0  0
 12 41  1  0  0  0  0
 13 15  1  0  0  0  0
 13 37  1  0  0  0  0
 13 38  2  0  0  0  0
 14 47  1  0  0  0  0
 14 48  2  0  0  0  0
 15 42  1  0  0  0  0
 15 49  2  0  0  0  0
 16 32  1  0  0  0  0
 16 43  1  0  0  0  0
 16 50  2  0  0  0  0
 17 33  1  0  0  0  0
 17 44  1  0  0  0  0
 17 51  2  0  0  0  0
 18 34  1  0  0  0  0
 18 45  1  0  0  0  0
 18 52  2  0  0  0  0
 19 36  1  0  0  0  0
 19 41  1  0  0  0  0
 19 53  2  0  0  0  0
 20 21  1  0  0  0  0
 20 22  1  0  0  0  0
 21 23  1  0  0  0  0
 22 24  1  0  0  0  0
 23 25  1  0  0  0  0
 24 25  1  0  0  0  0
 25 29  1  0  0  0  0
 26 35  1  0  0  0  0
 27 35  1  0  0  0  0
 28 36  1  0  0  0  0
 29 32  1  0  0  0  0
 30 34  1  0  0  0  0
 30 42  1  0  0  0  0
 31 36  1  0  0  0  0
 31 43  1  0  0  0  0
 32 44  1  0  0  0  0
 33 35  1  0  0  0  0
 33 45  1  0  0  0  0
 34 46  1  0  0  0  0
 36 54  1  0  0  0  0
 37 39  1  0  0  0  0
 38 40  1  0  0  0  0
 39 40  2  0  0  0  0
  1 55  1  0  0  0  0
  2 56  1  0  0  0  0
  3 57  1  0  0  0  0
  4 58  1  0  0  0  0
  5 59  1  0  0  0  0
  6 60  1  0  0  0  0
  7 61  1  0  0  0  0
  8 62  1  0  0  0  0
  9 63  1  0  0  0  0
 20 64  1  0  0  0  0
 20 65  1  0  0  0  0
 21 66  1  0  0  0  0
 21 67  1  0  0  0  0
 22 68  1  0  0  0  0
 22 69  1  0  0  0  0
 23 70  1  0  0  0  0
 23 71  1  0  0  0  0
 24 72  1  0  0  0  0
 24 73  1  0  0  0  0
 25 74  1  0  0  0  0
 26 75  1  0  0  0  0
 26 76  1  0  0  0  0
 26 77  1  0  0  0  0
 27 78  1  0  0  0  0
 27 79  1  0  0  0  0
 27 80  1  0  0  0  0
 28 81  1  0  0  0  0
 28 82  1  0  0  0  0
 29 83  1  0  0  0  0
 29 84  1  0  0  0  0
 30 85  1  0  0  0  0
 30 86  1  0  0  0  0
 31 87  1  0  0  0  0
 31 88  1  0  0  0  0
 32 89  1  0  0  0  0
 33 90  1  0  0  0  0
 34 91  1  0  0  0  0
 35 92  1  0  0  0  0
 41 93  1  0  0  0  0
 42 94  1  0  0  0  0
 43 95  1  0  0  0  0
 44 96  1  0  0  0  0
 45 97  1  0  0  0  0
 46 98  1  0  0  0  0
 46 99  1  0  0  0  0
 46100  1  0  0  0  0
 54101  1  0  0  0  0
M  CHG  3  37  -1  46   1  47  -1
M  END
> <OMEGA_C>
wFT5QEufkUGpWrbBPewJQTVvjEE+3b3B2kUBQcnkkEEPV6vBA0d9QfKqREGD65PBPFWBQXTGT0Hn
h4rBvcobQTmChkF5X7rBQDQTQWQHi0Ef16fBtiJrQe+QSkG/2pnB9pNjQXXkZkHd94zBiuB1QbkG
YUGj8YbBmJMgQXzVhUHaWa/BpAleQajMW0HybJbBgbHQQEYqCkHKP23BFaV7QfbDbEHJ+XnB05av
QNBs9kB+1HTB0C8QQS/bPUHalKHBcYbdQO/gFEEKzp7BeCuyQHaw0UA/+ZbBKIZCQXAqW0HrYaXB
adBBQQWa4kBuK4TBsDxFQfpB2kBsN5DBe3grQcfR9UASCILBUOtBQd/KAUEzwpbBlN0nQZFwD0F7
pIjBN2ArQahDC0GRyJTBcFSeQKzR80BDQ7bBuIaPQBx8HUGGT63BsrUzQaqqfkEujqvBwtQoQUow
IEEPapvBB6t0QPR340CK94jBUZ4bQfyXZEHqWaHB7WQRQbtWKEGdtZvBscPGQFRIA0GbNKXB4ziO
QB53v0CQ4Y/BXBqyQCxQDEFGnK/B3S8uQYalZkFOnKnBJyjdQDeDHEELdnjBj/zlQIhuCEHNVlvB
3qD7QGPmJEFlxWrB62EAQeJZGUE9EFrB4KtLQTPXYkEG45vBguyaQHZF/0A8BoTBNhAaQcAiT0Fo
s5zB4SQEQSVLGEHNE6HBPiunQEC08ECAdZ7BrAaeQORUnEDs94jBoTFwQTwmfEEwqnPBO/+FQeNA
Z0GIe2/BlQamQFEJ10DiDGrBQvcFQWXmP0Hd6qnB25fKQE9qH0Gl+5fBnGfXQPfMxUD+4JXB/4dJ
QZGjS0HFQarBhqEnQcYwXUGLibPByfLdQAEolkH2CrnBMmEGQaAAjUEzTcbBJiDuQEjUlEE6lqXB
05GDQViFN0HdlpbBkVOIQUMfS0GwBYbBn9YlQZx6gkEMIsDBbMAWQUR/ikGuZp/B3SBnQbXwQUFj
EaHBWLhZQU4JdEGkSorBQExDQaMvxED4mn/BFxhOQZkb+UCiU4HBrKFVQWeFzkDdfpHBorw5QfHs
wUCK7pLBYDQfQRAf3kCbNITBWxMqQSuU/UDo83LBtwxOQT+gDUH3YZTBSbNDQR47/EB1UZ/BSmIX
QWoSFUHLYIfBEy4zQdPLG0F08oXBC1gfQatN/0BLh5fBRey2QGd820Cf4rfBM9uDQJA45UBVwbHB
WCWSQBZMAEFA4L3BPaWdQEiLKkFrlajBiFWDQGfkI0E+67TBxxZqQJg0FkFUzKjBc1lAQWief0Ea
qbHBQJU5QevLgkFwBKTBTvUyQaCrLEFS1JfBjSIuQTYWHUEeqaPBqCJLQIg390C2E47Boi1OQFW+
1ECKlYLB1FUeQS4qcEFv3JrBQHIMQZxSaEEeZ6XBo84LQe6SKkGVcJPBlSHfQAgd70B0pafBQRFq
QD7UskCAJ5XBFozLQMnJE0E3aLTBcgBEQVEjb0FXf5jBs7OiQNsnDUHD1YfBAJggQRvLTEH0fZXB
vvYKQR5BD0G8uqbBAE2IQDp4+EBbSJ/B1/qFQM47kUBjeoTBUnepQLCxhEBBio3BK0+1QJhap0Du
OITB2OkwQZ6nUUFDQbXBJGwXQVt7mUFxt5LBQPYHQQcIlEG325jBQjMtQYCqlkEFkZPBz+6DQZ/H
V0HaCJTBO3yDQYhAW0Fi6ojBq0cOQTTNi0Hu45/BR4ozQSprjkFGk5rBEl51QXVfWkE9U5rBOglh
QQbjY0GtY4rBYnxzQfdXYUEYAITBtRwkQdr4iEHgzaDB9sphQeR1YEGck5XBjovSQOb6CUGS7GzB
lz9yQdYdZUHXg3DBZ5CvQLTe90B+H3TBRqQRQb+IOkGC4aHBxSreQERuE0EZ0Z7BrQSuQGUz0kD9
j5bBq9U6QRgxaEEE+5nB8o87QQDR20AbTYLBvUNFQei11kC2k43BKtcjQf/g6ECF+ILBV8tCQSUk
AEFzIJTBOgEhQWoVCUEOiInBywcrQe4RB0GL5pTB32OZQG3wIEHf2K3BmHHSQBpnDUHoZrjBmf4q
QZsigEHje6jBIpgpQf6NHEHyNpvBnZhwQOuu50BTW4jBovITQeOzYkFXJqDBiXMSQS1FJUH45pvB
LhrFQLVaAkFED6XBbYGJQMZiwkBWSY/BHFCwQMYvC0Fig6/BOfMqQTV1aUEKe6PBWYPgQH7vG0Hf
UnjBLk7oQIm8B0FzNlvB6EMAQXV3I0EiB2vB34ECQQTfF0EYTlrBWxpQQRzaYkGyYpzBttCaQNTP
AEHtmoPBMJkTQTT0TEEWxJvB46EEQS+UFUEBIKHB+XakQDpf8UCxJ57Bh6aXQH+KnkDOXojBvrJg
Qdx2akElDGjBtWKBQfD2YkE4JWXBM5qkQMc22UCWJmnBy+oOQXYuO0ECnKvBaZHMQHmqHkFsC5jB
H5LSQGFExEDMhZXB6IU0QVZEbEEA6ZDBM0AyQWkdW0EbpavBrpUSQZjQn0EsXI3B64ruQHQplkHk
LJjBvwg5QZrUmkE22I7BnWGLQQIfU0HuvZfBkZmKQShDWUGEHYTBDmkCQbqkh0FwmKTBZzlEQSZB
jEFcMJvB6iZ2QWivV0Ha2aLB0R9SQcSDaEHzr4bBLdo8Qd41vUBKAXzBUXlEQRCi9EDu3HvB1F5W
QeD8zkAc1IzBSgE9QXGFvEArw5HBx70aQRTxzkDhzYbB7LAdQQ0w7kB0qnXBqwBMQYD0DEGdOpDB
0gxJQa/s+kAIPpzB6c8PQUZ5DEGdWYrBUNEoQRZcFkFuRoXBJCwiQZGE9UB9XZnBFiOBQCJQH0F4
hafBIvuwQCIfLUGQfavBmcuJQJXRJUGEWbXBGaXiQGXn+0C3kLnBE+TCQJVEEkGK6b/BnBPqQCKS
GUGXDbbBePwfQdQlgEGfWa/BtU87QSvqgUHhQqvBYKczQVCGKEG5LJfBUJkvQd3nGUFDYaPBjMdI
QNiA/EAAao3BGFJJQP9L2kCJ3YHBQQIOQdrkbUGfCprB4nkJQV1YY0EjN6fBkLEMQev3J0FVspPB
OurbQGqh60BxbafBVH9eQGglt0ARbpTBRU+YQNYB/0BiN7LBJR5TQYFeYEG/JKTBxvCjQK4DDkGe
gYfB2NoUQQFIS0Gr1ZPBMg4LQb3rC0G4oqbBeRiGQKj3+kBu7p7BuZZ+QC0IlUAVwoPBgVWhQG4i
hkBq8YzBhuCvQGhFqECMvoPB1DUoQafUT0HjfqzBM0n3QH/bjkH3GbrBUPQPQZTBi0EN6b3BjE3t
QJ3JjUEtKK/BcVxMQYGFb0GnNWnBTGdeQYwHYkHql2nBR00fQQ6Wh0FeyLbBrQMGQbOsiUHgAqjB
ywpAQRl2ckH22HvB5M5XQZhyWkFpoofBK0NkQXFcV0H4snzB220aQY6XhkHwy6vBF6BFQRD1Z0Gr
h4fBZUXSQNdiCkFmg23BAUd3QVsHSUEhdn3BKe2vQOQC+EDT0nTBXIMRQambO0EN7KHBbMPeQCL+
E0HMFJ/B4kawQCsS0kAO5JbBjYs6QQq2Y0G1+prB8GhBQRml20BqhoTBYH1EQeHR0kA/k5DB9YEr
QWqx8EDNVYLBOutBQZVH/EDMKJfBzacoQS/zDEGi+ojB5s4rQReJCEGbIJXBaaycQG2a80CBPrbB
m/WQQJPPHUHycK3B0d4qQYz/gUGpHKTBV+ApQbR/HUEw0JvBUCdzQBSK5kCl04jB2QgTQW3GY0G8
yp/BI6oSQe8cJkEgGpzBom/GQGa3AkGsVKXBA9+LQO+HwUA+r4/BdhqyQCrwC0Gau6/BqsMpQUsk
a0GJTKPBMfrfQFRdHEHX9XjBcK/nQAdtCEGmqVvBKUX/QMRMJEEAd2vBnuEBQZfUGEESqFrBkq44
QTy6a0EyhpDBWFibQCChAEEuAoTBSekSQZXUTUGFp5vBu9oEQWSRFkEzc6HBCz6mQB4e8UAbdJ7B
S4qaQL4YnkAHtojBcC18QcWhP0GhVYfBLziBQYtQRkHq4WzBqVGlQH062UBW2mnBHjoPQZuKPEFQ
rKvBAd3MQPP5HkE/QpjBYBDVQLvSxEB+05XBADZIQWW3VkEQs53BH48uQdoIYkEgjq3Ba83fQBsO
kkEik7/BXsATQfCTjEGNTMbBpx7OQJkekEGVQKzBovZHQeWgd0HDmFrBsc1nQRHQX0GmQ1vBI80u
QR4mhUFWubnBMzICQYnfiEF9n5/BxTgyQYnTfEH1cXvB7jdcQTxeUkFQ8o7BWFZCQQo2vUCzIIDB
5ixOQa4v8UAYwIHBRZ1UQW69xUCX5ZHBtnc4QWlku0C+OJPBwb0eQUb62UCMcYTBoGIqQRKz+ECF
kXPBvo1OQSJ+CUH82pTBz2xDQQ+h9EBHt5/BqHAYQeFEE0GsqofByII0QaHZGEE7WobBq0ofQUC5
+kDgyJfBQT+0QIpG2kBz3LfB8tSBQJI35kB8o7HBxLKQQP1EAEF13L3BC0GgQEWuKkFi0KjBWvqE
QFBMJEGwDbXBEDlsQBwjF0G31KjBtO46QTBHhEEa5abBBAwoQTJnhUEAH5zB0Es0QZrBKUGYPpjB
0R0vQTA3GkFcDaTBk+BKQEzf+kBc843BCO1LQAHQ2EAcYILBgTgNQdaZbkHufZnB3UUIQcmiZEHq
vabBmzANQQloKEFP0ZPBpsbdQMzx7EAyw6fBDB5kQCSntUDy4JTBX+zLQETSEkHfn7TB408sQYaT
dUH6TI/BWQykQN7pDUGS5ofBwOgTQYTfS0HrupPBc0QLQVBLDUFHIKfBGKuHQO0E+kBlPp/BDTuC
QNkblEChJYTBXuykQA7bhUAePo3Bm2CyQORoqECsCYTB3rk6QRsAWUFN96zB5uH2QFXXjkE0E7rB
VMEPQdLBi0Hj5L3BcfXsQA3DjUHMIK/B20xkQXpnV0GciXzBAZdeQYvyYUEsiGnBvCEfQSmYh0E6
xrbBMt8FQTyoiUFs/afBNx5YQRxAWkFGmYfBfUBAQZZVckEc23vB6n5MQV2Lb0F392jBe0saQZmW
hkGByKvBgeRFQUHKZ0HzhofB1z7SQApmCkGVim3Bt4NGQRq2ekGUylTByPOvQFD590BK2XTBiG8R
QaKoO0Gq6qHBIqzeQNv/E0GcF5/BGlewQDoB0kDs5JbBgqk6Qf6xY0ER9JrBiW5BQUXn20DqiITB
VoFEQbAP00CIlZDBbYQrQWTk8EBeV4LBSOVBQSB//EBsLJfBEKEoQc8JDUEO/YjBt8YrQdudCEHi
IpXBFLicQPF180AKQbbBN86QQFy5HUGuc63BMM0qQTgCgkG1GaTBntApQQ6SHUEc05vBiDRzQENk
5kCl1IjBJg8TQd7MY0GUwJ/BsZgSQfknJkHVG5zBrGjGQG+yAkFkVqXBA/aLQNtowUDFr4/BgAuy
QATlC0GJva/BicopQfsla0GBRKPBh+DfQCdlHEFB+3jB+aznQEJzCEGlsVvB0Cf/QJlZJEEZfWvB
VNkBQbfgGEFtr1rB6eA4Qaija0Grf5DB0FObQK2XAEGiBITBH+gSQZ7aTUH0opvBvs0EQVybFkF3
dqHBRUCmQKYH8UBDdZ7B2K6aQCUBnkDatYjB7F82QaZqg0FgYVTB+aVRQY3+d0EoKkTBi2mlQJ4s
2UC532nBtB0PQfGePEFEqqvBBL3MQPn3HkH+RJjBcybVQCbSxEBQ1JXBRGJIQYW/VkGQqJ3BHIsu
QSIMYkEQh63BHVvfQCwIkkFzir/B5IgTQfqVjEG4SMbBAsbNQI8UkEHJNqzBZiJyQZgNTUH+zHzB
xxBoQdqpX0FoQ1vBraEuQcgrhUEFurnB4RECQfTZiEGrmZ/B3aRcQdoWUkHT3o7BNWgyQa6rfEEP
k3vB22JCQVB7vUA7IoDBRi9OQdt88UA9xIHBbaNUQR0HxkCC6JHBin84QUCXu0BYOZPByMMeQQYj
2kCbcYTB+2UqQQjp+EDylHPB24ROQfeeCUHT4JTBp2RDQRfU9EC/up/B8WcYQeFVE0FwrIfBWXg0
QTb1GEEbXobBIkUfQVza+kDXyZfBWVy0QLwx2kBq3rfBpueBQDgB5kC3prHB87iQQNYuAEFJ373B
vwagQBCdKkG00qjBcs2EQDMyJEG1ELXBSfhrQPkDF0Ej2KjBP9c6QXNPhEHv5abBs/snQX1qhUEy
HJzBeDk0QZ/XKUHBQpjB4gwvQZBJGkF6EKTBV9VKQFOt+kBe9I3BFw1MQMei2EBOYILBOUcNQcic
bkFXcJnBGUgIQQ60ZEHXsabBux4NQeFtKEG60pPB18rdQLjx7EBqxKfBdlZkQBZ8tUBg4ZTBLNbL
QLPPEkEqobTBhIcsQdh+dUEMPY/Bs/ajQPXiDUE96YfBr/ATQfPdS0Eet5PBjjkLQZRaDUEcJafB
e6mHQHLh+UBoP5/BKmOCQML7k0BvJYTB/xqlQGvGhUB8PY3Bm4CyQANcqECHCYTB4bo6QRcJWUFq
9KzB0IUXQbTrmUETspLBhj8IQX9olEG65ZjBI1YtQT8jl0EmZpPB+OdzQaJ/a0HM7oLBodeDQb8i
cUHYeIfBdcgOQSckjEGU1Z/BX+UzQTzcjkFdUprBiIFhQT0nakFlWInBfKV2QSY5dEF/9pjBz6SE
QRWHdUHSjJLBnaUkQUpXiUGsmqDBWrNiQfGWbkGKdZTBj4nSQGeiCkESdG3BDSSPQe5ae0ExXJfB
JeevQMb/+EDE5XTBzsQSQYMPO0FrxaHBx2fgQFAXFEGB/p7BfYSwQN8G00Di65bB9447QenmaUFi
SZnBD1pBQWCO2UC2JoTB2I9EQbew0ECtMJDBuY4rQYwt70AiCoLBKl1CQRI7+kDJxpbB8RMpQYI7
DEHUr4jBwFwsQXDKB0Gl0pTBFmGeQI7q9EBCUbbBkHKTQHmJHkF+hq3BTrQrQQh0gEFoMKjBTMcq
QS3JHEEdgpvBoHFzQK9O6EDq9YjBGOUUQYI1Y0Ge95/BY6wTQZerJUHj3JvBetDHQJIGA0EtUKXB
Ra2LQNYFw0Dyx4/BUSC0QLZrDEGYwK/BMwksQQ8+akG3+KLBJ+rgQK6FHEHr1XjBrJ7nQNqDCEGq
hVvBxxwAQVU6JEGZN2vB9xECQfS3GEFDZlrBqTdRQeN/bUGifJvBUrubQL1FAUEZFYTBNVYUQUxt
TUHQnZvBkMUFQbA8FkFyN6HBUiCnQCss8kBzgp7BuaKZQA5kn0Cox4jBF8mPQTxKf0G3PaHB7VyX
QY9LfEFbhZHBqLOkQChe2kDM92nBV5EQQYrPO0FbiKvBco/OQCdFH0EOPpjBuxfVQJBMxUD6x5XB
0as0QUYIZ0FQNZDBW1o0QbfNW0Ez1KrBo4MSQa9GoEHCZ43BoA/vQDmFlkFFVZjBjQc5QXdZm0Gt
oY7BStlyQf4uaEGG8HTB8d+KQYofckEfeoLBlgwDQVnuh0H6k6TBMJxEQR+6jEF81JrB7mFSQQO5
ZUEKzYXBe7N3QRaWd0HXa6HBPgJCQccVu0AEhH/BOzdOQSa/7kBrUoHBzJ5UQTAyw0CTc5HBKW44
QbeVuUBl45LBf6weQX7O2EDvMoTBUVwqQSQy90DS+3LBNxxPQbxMCEGpa5TBB/NDQa2Q8kAiVJ/B
Fe0YQcDCEkGNb4fBuAs1QXP5F0GgAobB9b4fQTOO+UCAh5fBjJ+1QH0920B747fB+C2DQG7s50Ds
xbHBp92SQNMGAUEV9b3BbPeiQJlIK0ET3KjBp+2HQOsfJUEfKbXB73twQE4PGEH3+ajBaZ0gQe9G
gEEwBa/BBO87QbNOgkFuC6vB7Uw1QXHpKEEI55fB4BQwQWpzGUFgu6PB7BBMQKjr/ECcH47BGnFL
QC7h2kBai4LBEIcOQSBSbkFW7pnB5NUKQSHUY0F7LqfBHSQOQekeKEFnmZPBGOLeQC0+7UAStKfB
QLFjQHeCt0BNBZXB7FHOQI0dE0G4lbTBOMRUQXebb0FON6PBy+ykQDJ+DkFQ9YfBYiQVQSu3S0Es
rJPBWzEMQde2DEFJyabB1LGIQGNz+0CZXp/BHw6BQAbClUBTQoTBucyjQIj/hkCoSo3B0XuxQNdd
qUCFEITBpisrQdqlW0GG4rDBz7EXQebhmUFqnZLBEmIIQRpmlEHR0ZjBFX8tQbMUl0EUV5PBCJKE
QWeUdUGRm5LB7tiDQZQmcUEolofBkd4OQZ0ljEH7yJ/B3gE0QYnRjkEeS5rBm8x2QTJKdEGmHJnB
RJVhQVTraUEMm4nBBdRzQdhNa0Hy/YLBPLgkQQ5ViUGElaDBENhiQRSEbkGFrZTBXIHSQMeXCkFY
b23BOPlxQd6SZkEatm7B9NyvQFry+EBs5nTBvNYSQSwIO0E7wqHBSHvgQH4XFEFr+p7BK4OwQGcM
00Ac7ZbBTKA7QYTgaUHMaZnB3VNBQahg2UA+IITBv41EQemJ0EBqKpDBxYkrQcgG70B1BILB22BC
QZ8Z+kC4vpbBhxUpQQgrDEHsqIjBkWEsQQW9B0GXy5TBF3ueQEQF9UArUrbBRpKTQGSVHkHFhK3B
FbYrQRt4gEHtN6jBR9IqQQ++HEHseZvBvWRzQB5U6EDB+IjBae8UQTEwY0FEAKDBbrkTQY2mJUFU
1pvBCOHHQGwLA0FsTqXB36OLQAsNw0Cuy4/BoDu0QIF1DEETv6/B3w4sQXI8akGADKPBxuvgQK17
HEEkzXjBqpHnQMBzCEEdgFvBwR0AQZYqJEHLK2vByQ4CQbCkGEFiXFrBslBRQb5kbUHJq5vBNLab
QDREAUFkFYTBfWoUQalrTUFUn5vBz9AFQVc4FkHGMKHBDCmnQA858kB1gp7B5oqZQD1jn0BvzIjB
HQlgQcy0YUHVx2bBCy2BQcd+Z0Fa+WLBXqCkQKRP2kC6+2nBSp8QQTfCO0EEhavBgaLOQJxFH0Ey
OpjBShPVQMZKxUBHyJXBia40QcM6Z0H1U5DB41Q0QXnQW0EQ7KrBVLkSQcU6oEFKTo3B9ljvQKKF
lkFFPJjBlDc5QTFEm0EIkY7BMiyMQR75eUGAE5bBZeWKQY03ckFXnoLB9xoDQWj1h0GMh6TBTbZE
QdqrjEG50ZrBpwB4QSe+d0FmjqHBamxSQf1HZUH4KobBhPdBQankukCyeX/BATJOQX2K7kDPSYHB
I5xUQUMHw0BYbJHBUWs4QaF0uUBZ35LBBqYeQTWu2EAuL4TBYVUqQXoG90AJ8HLBBiFPQeo4CEFw
YZTBEvlDQfl08kBHTJ/Bl+8YQT+1EkGMaYfB0A41Qa3lF0HL+YXBx8IfQWZ5+UBZgpfBsba1QKpV
20Bx5LfB70KDQGAI6EB/yLHBzv6SQIIXAUHz9b3BZhijQK1RK0Gt2KjBdxSIQFIvJUFRJ7XBMbFw
QP8bGEHe+ajBPpMgQVZTgEEKCK/Bqew7Qd5TgkEWGKvBclk1QQ/bKEE43ZfB2yEwQRlpGUHxsqPB
XhFMQPz3/EBRIo7By1dLQJnl2kCJj4LBtJcOQZhSbkH895nBctUKQdLDY0GYM6fBuy8OQaweKEFx
k5PB9e7eQFhE7UBAsqfBT6FjQJiTt0DVCpXB6HLOQL0mE0F8krTBO9BUQT9mb0GtaaPBfeykQNR9
DkHl84fBsEEVQTi+S0F2rZPBNj0MQfyuDEHvwKbBGr2IQBSI+0D4Xp/BOvCAQIfDlUDbSITBCrOj
QMH/hkAMUI3BUGKxQOlTqUCRE4TBYBwrQSqpW0Gq9rDByGoZQZpwmUHEtZLBiiAKQXgAlEEd+JjB
ay8vQWyLlkH7UpPB4nt0Qa6bYEHv14LBnwOEQRl8WkGge4fBj5sQQeizi0HM4Z/Brq81QfA6jkEJ
N5rB1TFiQeFNY0G6O4nB6P52QYatWUEHCZnBkMCEQeXuVkHko5LBv24mQXTLiEEGj6DB8ExjQe3g
X0Fzb5TBtQLSQA9QCkErWW3BeRyPQS11UEEVjJfB1RKvQGDC+EA70nTBElMTQTVDOkGSn6HBrYTg
QIiiE0Em7Z7BuImvQKKn0kBJ3pbBr6Q8QejOZ0FITpnBd8pAQZC31kAx+4PBrgBEQYXDzUA+BJDB
lR4rQQPc7EBF5YHBrRVCQUZa90B4m5bBhuwoQewZC0F9i4jBSTUsQaqfBkFKrZTBVCWeQMaW9ECO
R7bBZPiTQFB1HkG/ha3Bbn8tQeW/f0EAGKjB2OkqQaGlG0GxW5vB06xxQMyn6EDW84jBofsVQWpp
YkGx3J/BwusTQazUJEHqupvBKp/HQGiuAkHbQKXB12uKQGEgw0AwwI/BUUC0QEYmDEHytq/BsyQt
QXAFaUFD/aLB5N7gQJkZHEGtu3jBFffmQDEVCEGFZFvBSCYAQduhI0H9FWvB/u0BQWIeGEFYQFrB
xvBRQRhQYkH9c5vBGRybQKFAAUH6DoTBDVMVQUakTEFHepvBct0FQYuPFUHqHaHBaZ6mQObk8UC2
d57BSNuXQORan0DhuojB77CPQak7TUEXf6HBiUeXQcM7TkEMuJHBNHGjQH1L2kBo42nBt/gQQXMI
O0FmYKvBENbOQMXqHkH+MJjBxe3TQD58xEAPs5XBIBA2QQMFbEHFTJDBdbE0QXOKWkFPCqvBmXQU
QQ3Tn0GhcY3B+eLyQPYxlkGzd5jB++I6QROzmkEag47BX4VzQVtBY0Fco3TB3QCLQR16WEHygILB
0t4EQW6Nh0EZraTBeVxGQZIBjEFrpprBNzxTQc0AaEE4moXBX/R3QVH9VkF9jqHB1T5BQYE8uEDW
K3/BkcRNQcOZ60BrI4HBBPxTQQ/iv0BMQpHBzL43QSzztkBFupLBvhweQTnN1kBHEoTBye0pQUfn
9EDEsnLBSvVOQUW0BkFmPZTBGqhDQR2k70BQKJ/BC9kYQbnTEUHNT4fB1wU1QeyxFkGl2oXBrHcf
QdaK90BeZpfBLhq1QAyi2kDI07fBycCCQH/x50Adv7HB8NuSQBzoAEFh7r3BDLyjQD8hK0Fq26jB
za2IQE8WJUGJK7XBTCVxQPMmGEFF/KjBm74iQQu2f0FqD6/B9O49QQuWgUFJvKrB75M1QR+iJ0F9
vZfBZzMwQdpAGEEQlKPB7+dKQNd6/UBjIo7BMjdJQE1/20DQi4LBE+cPQYKkbUGUzpnBtcQLQbAf
Y0H/BKfBjmAOQdVRJ0GoeJPBEXHeQJpI7EDGnafBdQdhQHrot0DCAZXB2qTOQECtEkFoibTBUEpV
QUu6X0ETK6PBWqekQA5pDkFE74fB+GIWQc7wSkFuipPBFzYMQRL9C0HUr6bB/U+IQKGK+0CSWZ/B
sjV+QBcLlkC7OYTBecahQBfShkBROo3BjsSvQJ0OqUC8/4PBp5IqQQ9dT0EVAKzBQWZkQWpwi0Gt
RbXBNRpbQXwkkEE7IqzBNcVZQQUQg0G6orrBAgtNQRoFikFCWnPBqB5BQfu5kkGqn2vBvB9HQeWC
jEHXYKjBw8pFQe3YfkHs5LbBf4JGQdGQhEGw8ILBruEnQWyOkEGbjITBK2cuQfwalkEEbHbBNlM8
QYQvhEHUyq3BucIzQYvFh0Ebe4jBQu7QQBb6CUFeQ23BatUhQf5an0E2Nm7BmoWvQCer9kC4HXXB
NM0QQWhxPUHm4aDB1V3fQP0pFUH1uZ7BL4iyQFrL0kCmMJfB+Vo0QQAVdEG2e5fBEOJBQdq430Cb
54PBp3FFQYEX2EAs+Y/BVqgrQWd180AnxoHBE45CQeP7AEHBWpbBe30oQb6HDkEUN4jByiEsQb64
CkG4YJTBdlqgQNtE9kCieLbBYkaSQP2lHkHJY63BeL8mQfk+gEHtyqnBLdUpQRTrH0EY1prBqAF1
QJX/5EB8Q4nBpcYRQXFtZUEDL5/BDmgSQS7rJ0FXKpvBf2fIQF3gA0GRR6XBrxOOQDXqwEAfNZDB
8my0QBNDDUH5r6/BVbkoQSZMbUFh66HBliLeQMhTHEFEQnjBR9vlQFnuB0EUR1vB8Zj8QJRfJEHi
W2rByIwAQUukGEGsu1nBdBUsQXPMgkHT0JHBqFSbQCUSAEFWMYTBcuMRQbrQT0HFpZrBFzkFQccq
GEE6waDBqjyoQBkb8kAYqZ7BnyCdQG9VnUA8VYnBNi4RQdhYokGg7nfBXeonQbwrpEFgiV3Bpk6l
QIY910AWhGrBvNkOQbVVPkHgqKrBXFfMQHDCH0Ey8ZfBho/XQIFixkBhBZbB3ChEQdcJakGWi5TB
CHc0Qet2XEHXGafBGK1zQaZBjkE2KrjB0kxjQXeIlkFoAqjBlPBgQTTffkFDnMHBzU9bQaGBh0GM
AGvBj0RGQardlkE4W13B9w5AQVsYkEHmWqHB47A9QST3cUHZ/LrBks5PQTbKe0He3IXBX54ZQTcU
k0FVuYjBNxFDQS35wEAvU3/BVkhOQbuo9UDF6oDBTcRVQR/vy0BIPJHBp805QfJOwEC61pLB8j8f
QYtM3ECgGoTBfiwqQUyo+kBSYnLBLdROQcmLDEFD1ZPB+mhEQZQk+0AC8J7BkRQYQcthFEF694bB
q/QzQYqbGkEOXoXBDv0fQRK0/kA+QJfBEqO4QFWg3UDRF7jBHX6FQKbo50BkD7LBMKeUQAPBAUEW
Fb7BQZmgQHeDK0GxkajBWpGGQARJJUEa/7TBjtBuQFR8F0Fn+ajBwqIeQdTehkEnqKXBiR4dQcNx
e0GQtrDBnNczQZpGLEHkEJfB9lkvQVomHUG6E6PBSXJMQOk5+UDmYI7Blp5NQLZd1kAS9ILBepsK
QaF3cEGVV5nBMx4IQbZfZUFPiqbBM6kMQQfRKUHd5pLBCYjgQIYM8ECEt6fBtMBpQH/StEBljpXB
gEbOQNChFEFeY7TBE7weQVb7hUFE3pTBvKWjQNOXDUH97YfB5ckSQVA2TkFWs5LBBCgMQdcRD0FD
WabBTYCJQOU++kBUkJ/BC8aEQHJ2kkB76YTBHluoQOiqhUCT7Y3B3Wu0QAPbp0AIhYTBUYNAQR+4
WEHK3KLBhCJjQT3ZhUGiYsPBExBpQd3JhEHHjbjBwYJNQaLFhEHSaMbBoD59QTi7REGP15PBi1KB
QT/IT0FHcIrBe1tZQTK1gkG8u7DBncs9QYOrgkHKmr7BQxlrQeKrSkGdw5nBTZJjQUXwZkE02IzB
5t51QV8GYUFo1IbBFaFDQZqzgUERurPBFwFeQQfmW0H6T5bBM6jQQKEaCkHjOm3BU6Z7QRu1bEG+
t3nBOI6vQHtU9kBt2HTBajAQQc7wPUEzjqHBvJ7dQFnvFEHXxp7B0DmyQB3C0UDt/JbB64VCQbdf
W0HZRqXBRcxBQYKP4kCgJoTB3T9FQa5O2kAoM5DBxnIrQQ3C9UD0BILBgvRBQfLYAUEQuZbB3dwn
QZhwD0Hnm4jB0GgrQahSC0GawJTBI36eQCwM9EApRLbBo7CPQOiUHUEUTK3BVo4yQTkWf0GFUqvB
Zt8oQZdIIEEFXZvB0Kl0QBp340A//YjBtH4bQaK/ZEGtX6HB4W0RQRxtKEEhq5vB/+HGQP1aA0EO
MqXBWj6OQFWAv0Bu6Y/BQEOyQPdoDEHEma/B1CcuQWXPZkEvi6nBsiXdQCx4HEE+aHjBU+zlQN9W
CEGYUFvBeZv7QB3UJEFlsWrB/FoAQbtAGUFWAFrBYJpLQe/2YkFBwJvBcOiaQCw9/0DiB4TBIfMZ
QcxLT0HkrZzBNzIEQS5cGEFVCaHB5kKnQAzS8EDUdp7BhwOeQLBSnEBwAonBtjZwQaYWfEGfX3PB
J/+FQQwoZ0FIPG/BRfmlQB/o1kBaGGrBCgMGQXTrP0F26KnBLqnKQDNzH0GY85fBInTXQLHaxUA7
45XBV6BJQVLwS0GCMKrBG5wnQV5ZXUG3eLPBGCpvQWl8h0EpXsnBgqR5QTKShUGbP7bBHv1IQQSP
hUEQts7BtYyDQaeYN0FWiJbBWVCIQbcXS0Gq74XBm+xdQW/hgUETcajBgkAtQQjMgUFX8cDB4BRn
QTUVQkG//KDBobtZQS0VdEGFJorBpEVDQf8cxEAHmH/B2RFOQUoM+UAzSoHBE6VVQX2RzkCFeZHB
VMA5QYsBwkA675LBfjAfQWwU3kB9N4TBxAYqQfZv/UDu63LBtRVOQXSqDUHHU5TBhcFDQfFo/EAA
SZ/BkmAXQc8QFUGsWYfBNCszQaHIG0Hz44XB/WEfQRdz/0C1hJfB2hS3QI6220BB5LfBxwCEQFlw
5UBMxLHB+FSSQCNuAEG74L3B9M2dQPKgKkGWj6jBcIWDQNkBJEFq57TBfWJqQOJLFkH7yqjBt9Q3
QV0Ng0H+saPB6pUjQa1kg0G2463BaPsyQQHBLEGOwZfBVDQuQds4HUHlm6PBxylLQAM+90C0GI7B
DiJOQG+01ECInYLB2w0eQWVicEGA5ZrBImAMQSphaEEHf6XBYNQLQX6rKkHKZpPBT0LfQDJF70AZ
o6fBgCZqQObmskBQMpXB+7nLQBPkE0F2Y7TBmeBDQW8ub0EjUpjBlLCiQCwnDUE31IfB72UgQaQI
TUEYcpXBCQkLQSxQD0H5rabB+2WIQLKZ+ECeSp/BzfKFQJczkUB6h4TBdXepQEK2hEBxlo3B9Ee1
QKNPp0DuQITBrO4wQVnaUUGKM7XBPs6AQWIYc0EbIpjBbw14QfRbekHIrqHBRa52QcxyZEHhhZHB
r6AzQRWhnkH1fbTBScgyQWldnUHcpb/B3ppjQQjqckE5p6TBvzZiQXMGXUENeJTBzOoyQQmolUH+
v63BWHUwQRsDikEZXr3BlDMxQfIJk0EwOMTBrKFYQUofZEHuFJ7BtUwxQX44i0EnIrLBRGnTQKhH
CkHYSm3BsVswQTG9kUHtDNDBn3GvQMsB+kB+vHTB33UVQUr7OEErlKHBT9PhQAmsE0GH7J7Bbw6u
QFxl1EBq35bBOzAxQUWNgEFz2aDBzThAQTWq0EC+M4TBJSdDQRalx0B1QJDBs/YqQcZA6EBQC4LB
DONBQYJq8UD2zZbBwGgpQd3mCEHJp4jBdWssQWBjBEEEzZTBn0mdQNhs90DcPLbBhcyVQHX0H0GL
ZK3BI3pCQakRXEECN6HBwNMrQbx5GUHAb5vBsNxwQOQO7EBe3YjBEtYZQWPkYEH2f5/BlS8VQcR+
I0ExwpvBZJ/HQLM3A0G1PqXBQY2IQNEPxkCuuY/BN720QKscDUFVqa/BuQswQQQOakG5bpzByWrj
QATXG0FupHjBN1voQNCbB0EUZVvBxr0BQYXBIkEdCmvBBzEDQcEdF0GrQlrBtokwQRHTgUHi/KvB
jK6bQHtMAkFj/IPBPjYXQZouS0EtTJvBKIoGQa3hFEE/MKHBCRemQFgK9EASb57BVdyUQKC4oUBQ
wojB9vUuQYeDiEGvFtTB1Q8xQYfkmUG0/tXBUNeiQADi20AZ1mnBf2sUQePiOUGGYqvBaBzRQC0q
H0GJH5jBa/PRQILxxEDFwpXBkvwxQZ0ViEHdk5rBGcAxQRYxakEC+5DBO6eIQWvAeEHo4ZXBWDOA
QVzRgkHguabBb/19QcPpXkERM4rBm9Q0QauLpkFUFbHBqFczQT1RpEEWxcTBzU1cQW2FeEER96vB
kdNZQezhUUEjXo/BC5szQRO0lkE5LqXBXTsvQRoZgkGJx8DBFTNAQRgeskDEqH/B/JNNQemc5EDm
YIHBTd9SQR2vuEDoi5HBG3s2Qce5sUCO8pLBi5AdQWwg00ACNITBcv8pQZdD8EA8+nLB9SdPQWVF
A0EUdJTBMT1DQQ226UBOXZ/BjpUZQQkqEEFAX4fBQOw1QTAPFEFT+oXBF0gfQeAE9EBvg5fBBEyz
QEW23EDV1rfBII2BQL2p60DMr7HBSFWSQJeVAkHD3L3BRYamQD9NLEEJuKjBO9eKQD3YJkFSA7XB
Jh50QIQXGkFb1qjBbCtBQT5FXEFv/anB1KBAQQKRS0GRTJ7BpvA2QSoLJUHO0JfBne8wQb/zFUHa
q6PBGWFLQHbSAEHa/43BlMBHQIeA30CTcoLBV0UNQXU8a0GGJpzB32MYQZCCYEGcRKjBNsMPQSsY
JkH+fJPB/H3dQCCa7EBHqafBnlRcQPPZu0Dt9ZTBKHzPQJc3E0EJgLTBQFsvQcsRdkFbLbDBGRim
QExOD0F82YfB3aQWQW5bSUHXWpPBQnYMQfU8C0EC2KbB4R+IQIvC/kDnRJ/Bq8V3QJI0mUCqO4TB
99KdQKDuiEBzS43BqTCtQCx/qkBYDITBJr4yQUyJeEEuhI7B

> <OMEGA_E>
dNWRP9L0kT8tfJI/SbqSP77Ukj8X2JI/0FOTP8uxjT+s3o0/2qaPPw==

> <OMEGA_NBR>
    107018

$$$$
50169579
  -OEChem-04172616093D

100102  0     1  0  0  0  0  0999 V2000
   16.4680   13.5401  -22.8099 C   0  0  0  0  0  0  0  0  0  0  0  0
   16.2030   12.9618  -21.5513 C   0  0  0  0  0  0  0  0  0  0  0  0
   15.6738   14.6075  -23.2774 C   0  0  0  0  0  0  0  0  0  0  0  0
    9.4579   20.3653  -21.6628 C   0  0  0  0  0  0  0  0  0  0  0  0
    9.1692   20.4451  -23.0341 C   0  0  0  0  0  0  0  0  0  0  0  0
   15.1486   13.4554  -20.7562 C   0  0  0  0  0  0  0  0  0  0  0  0
   14.6187   15.1022  -22.4836 C   0  0  0  0  0  0  0  0  0  0  0  0
    9.7807   19.1317  -21.0780 C   0  0  0  0  0  0  0  0  0  0  0  0
    9.5251   18.0393  -23.2444 C   0  0  0  0  0  0  0  0  0  0  0  0
    9.1993   19.2834  -23.8413 C   0  0  0  0  0  0  0  0  0  0  0  0
   14.3630   14.5371  -21.2137 C   0  0  0  0  0  0  0  0  0  0  0  0
    9.8190   17.9509  -21.8646 C   0  0  0  0  0  0  0  0  0  0  0  0
    6.5043    8.5709  -14.7641 C   0  0  0  0  0  0  0  0  0  0  0  0
    8.8933   19.3758  -25.2949 C   0  0  0  0  0  0  0  0  0  0  0  0
    5.3913    7.7498  -15.2687 C   0  0  0  0  0  0  0  0  0  0  0  0
    9.3515   11.5310  -20.2263 C   0  0  0  0  0  0  0  0  0  0  0  0
    7.0916    9.2298  -19.8210 C   0  0  0  0  0  0  0  0  0  0  0  0
    5.4440    6.6208  -18.8375 C   0  0  0  0  0  0  0  0  0  0  0  0
   10.4635   16.3039  -20.0472 C   0  0  0  0  0  0  0  0  0  0  0  0
    3.7847    7.1925  -24.9009 C   0  0  0  0  0  0  0  0  0  0  0  0
   10.4163    8.4382  -17.1245 C   0  0  0  0  0  0  0  0  0  0  0  0
   12.3165    7.7551  -18.6438 C   0  0  0  0  0  0  0  0  0  0  0  0
   13.2266   15.0651  -20.3607 C   0  0  0  0  0  0  0  0  0  0  0  0
    4.4702    8.2885  -24.0639 C   0  0  0  0  0  0  0  0  0  0  0  0
   11.9110   14.2945  -20.6532 C   0  0  0  0  0  0  0  0  0  0  0  0
    5.0070    7.7027  -22.7431 C   0  0  0  0  0  0  0  0  0  0  0  0
    5.6904    8.7988  -21.8891 C   0  0  0  0  0  0  0  0  0  0  0  0
   10.7908    9.6337  -19.3756 C   0  0  0  0  0  0  0  0  0  0  0  0
    3.7183    7.3401  -17.1284 C   0  0  0  0  0  0  0  0  0  0  0  0
    9.4205   14.0484  -20.0897 C   0  0  0  0  0  0  0  0  0  0  0  0
    9.3606   10.2253  -19.4301 C   0  0  2  0  0  0  0  0  0  0  0  0
    6.2891    8.1875  -20.6037 C   0  0  2  0  0  0  0  0  0  0  0  0
    4.2453    6.1633  -17.9866 C   0  0  2  0  0  0  0  0  0  0  0  0
   10.8669    8.2837  -18.5988 C   0  0  0  0  0  0  0  0  0  0  0  0
   10.7308   14.8104  -19.7729 C   0  0  2  0  0  0  0  0  0  0  0  0
    7.0274    9.6742  -15.4476 N   0  5  0  0  0  0  0  0  0  0  0  0
    7.1273    8.3894  -13.6298 N   0  0  0  0  0  0  0  0  0  0  0  0
    8.0086   10.0922  -14.5667 N   0  0  0  0  0  0  0  0  0  0  0  0
    8.0672    9.3538  -13.5232 N   0  0  0  0  0  0  0  0  0  0  0  0
   10.1351   16.6785  -21.3577 N   0  0  0  0  0  0  0  0  0  0  0  0
    4.8034    8.0991  -16.4804 N   0  0  0  0  0  0  0  0  0  0  0  0
    9.4446   12.7071  -19.5051 N   0  0  0  0  0  0  0  0  0  0  0  0
    8.4544    9.2718  -20.0615 N   0  0  0  0  0  0  0  0  0  0  0  0
    5.2265    7.6308  -19.7651 N   0  0  0  0  0  0  0  0  0  0  0  0
    4.6015    5.0145  -17.1217 N   0  3  0  0  0  0  0  0  0  0  0  0
    8.9185   18.3376  -26.0114 O   0  5  0  0  0  0  0  0  0  0  0  0
    8.6096   20.4952  -25.8043 O   0  0  0  0  0  0  0  0  0  0  0  0
    4.9803    6.7987  -14.6115 O   0  0  0  0  0  0  0  0  0  0  0  0
    9.2638   11.5250  -21.4518 O   0  0  0  0  0  0  0  0  0  0  0  0
    6.5472    9.9939  -19.0266 O   0  0  0  0  0  0  0  0  0  0  0  0
    6.5569    6.1221  -18.6857 O   0  0  0  0  0  0  0  0  0  0  0  0
   10.5136   17.0964  -19.1131 O   0  0  0  0  0  0  0  0  0  0  0  0
   11.0637   14.6173  -18.3884 O   0  0  0  0  0  0  0  0  0  0  0  0
   17.2795   13.1653  -23.4160 H   0  0  0  0  0  0  0  0  0  0  0  0
   16.8079   12.1406  -21.1964 H   0  0  0  0  0  0  0  0  0  0  0  0
   15.8738   15.0463  -24.2438 H   0  0  0  0  0  0  0  0  0  0  0  0
    9.4314   21.2577  -21.0551 H   0  0  0  0  0  0  0  0  0  0  0  0
    8.9226   21.3993  -23.4758 H   0  0  0  0  0  0  0  0  0  0  0  0
   14.9410   13.0062  -19.7962 H   0  0  0  0  0  0  0  0  0  0  0  0
   14.0053   15.9136  -22.8463 H   0  0  0  0  0  0  0  0  0  0  0  0
   10.0015   19.0802  -20.0221 H   0  0  0  0  0  0  0  0  0  0  0  0
    9.5491   17.1469  -23.8523 H   0  0  0  0  0  0  0  0  0  0  0  0
    3.4083    7.6279  -25.8384 H   0  0  0  0  0  0  0  0  0  0  0  0
    4.5108    6.3989  -25.1310 H   0  0  0  0  0  0  0  0  0  0  0  0
    2.9452    6.7674  -24.3312 H   0  0  0  0  0  0  0  0  0  0  0  0
    9.3833    8.8149  -17.0938 H   0  0  0  0  0  0  0  0  0  0  0  0
   10.4651    7.4609  -16.6220 H   0  0  0  0  0  0  0  0  0  0  0  0
   11.0809    9.1483  -16.6106 H   0  0  0  0  0  0  0  0  0  0  0  0
   12.6352    7.6459  -19.6909 H   0  0  0  0  0  0  0  0  0  0  0  0
   12.9816    8.4650  -18.1303 H   0  0  0  0  0  0  0  0  0  0  0  0
   12.3659    6.7776  -18.1418 H   0  0  0  0  0  0  0  0  0  0  0  0
   13.4867   14.9437  -19.2988 H   0  0  0  0  0  0  0  0  0  0  0  0
   13.0759   16.1320  -20.5816 H   0  0  0  0  0  0  0  0  0  0  0  0
    5.3070    8.7125  -24.6384 H   0  0  0  0  0  0  0  0  0  0  0  0
    3.7413    9.0810  -23.8386 H   0  0  0  0  0  0  0  0  0  0  0  0
   11.6489   14.4265  -21.7134 H   0  0  0  0  0  0  0  0  0  0  0  0
   12.0701   13.2261  -20.4452 H   0  0  0  0  0  0  0  0  0  0  0  0
    4.1700    7.2723  -22.1737 H   0  0  0  0  0  0  0  0  0  0  0  0
    5.7397    6.9144  -22.9704 H   0  0  0  0  0  0  0  0  0  0  0  0
    6.4946    9.2664  -22.4762 H   0  0  0  0  0  0  0  0  0  0  0  0
    4.9460    9.5608  -21.6148 H   0  0  0  0  0  0  0  0  0  0  0  0
   11.1390    9.4649  -20.4052 H   0  0  0  0  0  0  0  0  0  0  0  0
   11.4512   10.3603  -18.8796 H   0  0  0  0  0  0  0  0  0  0  0  0
    3.1498    8.0226  -17.7773 H   0  0  0  0  0  0  0  0  0  0  0  0
    3.0550    6.9381  -16.3485 H   0  0  0  0  0  0  0  0  0  0  0  0
    8.5689   14.6073  -19.6745 H   0  0  0  0  0  0  0  0  0  0  0  0
    9.3070   13.9643  -21.1806 H   0  0  0  0  0  0  0  0  0  0  0  0
    9.0269   10.4328  -18.4027 H   0  0  0  0  0  0  0  0  0  0  0  0
    6.9737    7.3787  -20.8989 H   0  0  0  0  0  0  0  0  0  0  0  0
    3.4402    5.8556  -18.6700 H   0  0  0  0  0  0  0  0  0  0  0  0
   10.2084    7.5556  -19.0950 H   0  0  0  0  0  0  0  0  0  0  0  0
   10.1241   15.9352  -22.0265 H   0  0  0  0  0  0  0  0  0  0  0  0
    5.1394    8.9197  -16.9426 H   0  0  0  0  0  0  0  0  0  0  0  0
    9.5351   12.6359  -18.5118 H   0  0  0  0  0  0  0  0  0  0  0  0
    8.8399    8.6106  -20.7050 H   0  0  0  0  0  0  0  0  0  0  0  0
    4.3005    7.9949  -19.8649 H   0  0  0  0  0  0  0  0  0  0  0  0
    3.8040    4.7420  -16.5834 H   0  0  0  0  0  0  0  0  0  0  0  0
    4.8968    4.2475  -17.6914 H   0  0  0  0  0  0  0  0  0  0  0  0
    5.3445    5.2782  -16.5066 H   0  0  0  0  0  0  0  0  0  0  0  0
   11.0309   15.4515  -17.9350 H   0  0  0  0  0  0  0  0  0  0  0  0
  1  2  1  0  0  0  0
  1  3  2  0  0  0  0
  2  6  2  0  0  0  0
  3  7  1  0  0  0  0
  4  5  1  0  0  0  0
  4  8  2  0  0  0  0
  5 10  2  0  0  0  0
  6 11  1  0  0  0  0
  7 11  2  0  0  0  0
  8 12  1  0  0  0  0
  9 10  1  0  0  0  0
  9 12  2  0  0  0  0
 10 14  1  0  0  0  0
 11 23  1  0  0  0  0
 12 40  1  0  0  0  0
 13 15  1  0  0  0  0
 13 36  1  0  0  0  0
 13 37  2  0  0  0  0
 14 46  1  0  0  0  0
 14 47  2  0  0  0  0
 15 41  1  0  0  0  0
 15 48  2  0  0  0  0
 16 31  1  0  0  0  0
 16 42  1  0  0  0  0
 16 49  2  0  0  0  0
 17 32  1  0  0  0  0
 17 43  1  0  0  0  0
 17 50  2  0  0  0  0
 18 33  1  0  0  0  0
 18 44  1  0  0  0  0
 18 51  2  0  0  0  0
 19 35  1  0  0  0  0
 19 40  1  0  0  0  0
 19 52  2  0  0  0  0
 20 24  1  0  0  0  0
 21 34  1  0  0  0  0
 22 34  1  0  0  0  0
 23 25  1  0  0  0  0
 24 26  1  0  0  0  0
 25 35  1  0  0  0  0
 26 27  1  0  0  0  0
 27 32  1  0  0  0  0
 28 31  1  0  0  0  0
 28 34  1  0  0  0  0
 29 33  1  0  0  0  0
 29 41  1  0  0  0  0
 30 35  1  0  0  0  0
 30 42  1  0  0  0  0
 31 43  1  0  0  0  0
 32 44  1  0  0  0  0
 33 45  1  0  0  0  0
 35 53  1  0  0  0  0
 36 38  1  0  0  0  0
 37 39  1  0  0  0  0
 38 39  2  0  0  0  0
  1 54  1  0  0  0  0
  2 55  1  0  0  0  0
  3 56  1  0  0  0  0
  4 57  1  0  0  0  0
  5 58  1  0  0  0  0
  6 59  1  0  0  0  0
  7 60  1  0  0  0  0
  8 61  1  0  0  0  0
  9 62  1  0  0  0  0
 20 63  1  0  0  0  0
 20 64  1  0  0  0  0
 20 65  1  0  0  0  0
 21 66  1  0  0  0  0
 21 67  1  0  0  0  0
 21 68  1  0  0  0  0
 22 69  1  0  0  0  0
 22 70  1  0  0  0  0
 22 71  1  0  0  0  0
 23 72  1  0  0  0  0
 23 73  1  0  0  0  0
 24 74  1  0  0  0  0
 24 75  1  0  0  0  0
 25 76  1  0  0  0  0
 25 77  1  0  0  0  0
 26 78  1  0  0  0  0
 26 79  1  0  0  0  0
 27 80  1  0  0  0  0
 27 81  1  0  0  0  0
 28 82  1  0  0  0  0
 28 83  1  0  0  0  0
 29 84  1  0  0  0  0
 29 85  1  0  0  0  0
 30 86  1  0  0  0  0
 30 87  1  0  0  0  0
 31 88  1  0  0  0  0
 32 89  1  0  0  0  0
 33 90  1  0  0  0  0
 34 91  1  0  0  0  0
 40 92  1  0  0  0  0
 41 93  1  0  0  0  0
 42 94  1  0  0  0  0
 43 95  1  0  0  0  0
 44 96  1  0  0  0  0
 45 97  1  0  0  0  0
 45 98  1  0  0  0  0
 45 99  1  0  0  0  0
 53100  1  0  0  0  0
M  CHG  3  36  -1  45   1  46  -1
M  END
> <OMEGA_C>
fb6DQRekWEG1erbBuJ+BQaFjT0EPaazB7cd6QYW4aUEdOLrBg1MXQTLsokF2Ta3BGrUSQaWPo0HE
RbjBnWByQYJJV0GrDKbBQOZpQW+icUFX3rPBl30cQcUNmUHSn6jB2GYYQWlQkEGH9LnBTTATQXdE
mkH0ur7BC89lQR2YaEGqtanBmxodQWSbj0G46q7BgyPQQEYiCUG5OWzBw0oOQZ8Bm0H3W8rBNoWs
QBT+90C5THTBjJ8VQQZ/OEGIz6HBGu7iQGKtE0F9kZ7B4DSuQM7d00Ans5bBpWonQVhugkGfYKDB
2DdyQOoo5kAdNcfBPqkmQbkCB0Hz/ojBZxBFQa4p+EByJpXBNKBTQXIKcUG24qLBtguPQLGdBEHf
gsDBapM+QSG2ZEHIOaXBUjmgQOx89kDy8bXBuhe2QMHHDEHJHK/B/qYsQa8jGkEiAZvB/PhtQHri
6kAKB4nBLLoWQSLGYEGwt6DBNsUVQfmaI0HecJvBLUDJQOj/AkFf1KTBbNmHQOs5xUCX5I/By94t
QTSKBEFdypTBLbErQYT3bEHsLp7BaeDgQKbJGkFOKXfBiBLkQBg7BkHDE1rBYiMAQdl5IUEHEWnB
GRMBQUGpFUHyXljBQCkiQaRthUF73KrBwrWZQMyVAUHg14PBKB0XQVtQS0GICpzBYUUHQXxZFEHi
faDBlD+nQEov9EDgHp7BZT+TQIJ2oEBW+YjBCbIOQVKzkkFRF9DBxcAJQSz2o0Erb87Bh16fQNmO
2UDkyGnBWDgUQTRmOEFVnavBmILRQCTnH0FnNpjBI9LRQIrow0BpfJXB3jcoQXHFiEGe55jB8AQx
QXzgaUFbG5PBbzyKQd6kUkEPVLvBrXaGQcg/QkEtkqnBNvt9Qci9cEE688HBAucWQdgPqkHgcKjB
3MIOQb0xq0GJzrvBgw5vQZIZUEGmXp7BsBVgQUqefkFMxbbBHgYgQTKkmEFKLaDB98gYQeIsiUGB
0b7BGSFaQJ0X9ED3tM7ByliQQAjEzEA7DMnB9n08QJ2O2EBPpsLBACIWQdYJDUEPwIjBNnEnQVK/
7kDh+YTBQ0sxQVtfEkF34oTB0ylKQR2r9ED9hp3By7RPQZ9wB0HoCpHBvdpFQdrh2EBSIpHBqslX
QTwZb0H4Y5rB4TZRQWwOgUEvp6TBntKpQFRmC0FsG8XBnnFvQJ9LEUF/tb7BFGI6QfzSZkHztK3B
CB9BQRyeU0Gsj6PB73CFQLO26EDTY7HBnqu3QNlC3UB5w7fBaNPPQPtCFEEtz7PBWEWeQOD4GEE2
66zBNTkyQTtwF0HwPaPBCzg3QcrDJUGECZfBe5ZJQHhcAEEBOI7BW4RDQCcF3kCzyYLBIRoJQam3
aUFjZZ3BeukUQZVtX0HXcanBGW4QQeXsJkHDOJPBWCjfQBke7EALMafBmytcQCdhu0BDXJXBlVUj
Qc3H8UCmwpjBT/whQbD2fkFONrDBLnakQDu3DkFziofBwo8YQZgsSkEoGJTBb3ANQdXECUG+o6XB
4J2JQCfW/0BI657BxnRzQIi+l0DeqoTBu7KcQG/rh0AHiI3BvQWrQFTnqEB5DYTBon4wQVE5d0HU
eo/BThodQV8opkFERLbBIF8vQeeto0EnILDByJsLQdUJn0HDgrbB/zOCQS1bfkE5qJLBKeiAQfR8
e0FejofB4xwwQfAbmkF8LKrBK1IMQdp3lUFWkLDB4xdzQTnIekGQpJnBaKxcQW8zcUHNcYrB7dRt
QbDndEFCXIPB43geQa4Lk0FyR6rBTAlfQX87dEF8nJXBkvjPQFO4CUHMimzBsLNqQYfOcUGyTW/B
3fmsQHUf+ECSb3TBssgTQT31OEFXXqLB/PrhQB12E0Ezvp7BjV+vQK6j0kD6ppbBU/c4QVzAa0H0
M5vBo4dzQCZu4UBbNMfBg6AmQe65CEFjK4nBwEhFQe68/ED7SZXB9k8fQRK0iEGDAqTBRt+OQMWp
AkFCncDB5LcoQe1Df0GID6vBxISgQJB980Cl/7XBmo+1QL6wC0FgRK/ByQQsQSepG0GJSJvBQ2Jv
QMIF6UDcCInBs44TQe81YUEOIKLBqdkUQRhqJEH4vJvBmCfJQMFcAkED7qTBUWmJQKtuw0DZyY/B
eeAtQYY3BkGm9JTBlVYqQW1taUHhHqXBU9XfQPdvG0H8snfBMxLkQPNGB0EYX1rByO3+QOGrIkGQ
tGnBKrMAQdYVF0Gg3ljB9YJOQVrVcEGwCZ3BrdqZQLcwAUHw74PBYkMUQfgzTEH96ZzBEs0GQR9+
FEH1laDBAZmnQJZi8kDALJ7BD7eVQM9Jn0Chw4jBjKFYQd9CbEEWJmjBNSF6QfPNdEE4qmLBTpWg
QJ+i2UD4umnBLigSQVBGOEGXKKzB++TPQA24H0FBhZjBnF/TQBehw0DVZJXBgU4xQU3DaUEUOZLB
5Uo0QXp8WkEMO6zBzoIcQd+DrUFiybrBZsw8QbwdqUGy+6/B0lT7QJnroEFGQbvBaNqJQV6ngUGp
0ZXB546HQS9SfkEIOoLByio+QUktmEF+iKXBl/b9QED7j0GBz7DBuSx1QVsRfUG4JKLBzHRNQU/1
a0HWTIfBBb9aQAa57kC2vc7BhJmRQCSEyED0+cjB0X0+QHVm00AcmsLBBvIVQbJRDkF78YjBTtQn
QbRj8kD/EoXBj/YwQf5xFEG/HoXBNWlKQT0w+UAUqZ3BWKFPQaoVCkFYPpHBF39GQQ6r3UCYMpHB
2HopQV/OiUF36ZzBxAoPQWOAhkFQeqHBT06pQJuoCUE8QcXBZudtQMQZD0Fk4b7BxGEeQbU1fUHN
G7LBY9k4Qd8BgkGkqK3BFhWGQH5J5UBGZrHB7464QDXA2kADwLfB4fHOQHVcE0GRAbTBji2dQNim
F0GCJK3B+KMxQRH2GEErg6PBVz82QcOsJ0GDYpfBBu9JQP4p/kCKSY7BnZlFQML420Cdv4LBLg4M
Qdi/bEHqo5zBEu0JQS30X0G5dqnBqIAPQfHrJ0EnipPB4bDfQONI60B3OKfBv7lfQPy1uEBXN5XB
gaYjQRlo9EAq25jBZbVSQbw8ckHJuaTB5PSjQPFaDkHBt4fBFCUVQQ/ES0He7ZTBKk0NQXm1CUGR
haXBLq2JQGs4/UARBJ/BYd14QPIslkDma4TBs7ifQPbBhkBIQI3BCU+tQByHqEDO4IPBCqUrQbW5
WEEea7LB4vNPQe9EfkGmCWLBaRpAQT91hkFOnmjB9IRZQUR1cEHRGXHBi0tkQbdTLUHJT67BBzZu
QXPANkHTPLfBcuc5QdXshkFaSH7BeFRTQbpdcUEuY4PBGmRUQdeROEE2r6jBx7NXQXZSVkE2E7XB
+CxoQUWFS0GNlrrBza9DQc0ggEG7u4bBVZFNQdQBTUEWFazBeCzQQOMSCkHm6mzBQhNzQZYjVkEi
vcPB34SuQCTl9kCFh3TB/xwQQZXdO0ECpqLBE2beQJkOFEHVC5/BoGmxQIYc0UB1sJbB5KkzQeI6
a0E106fBj9pwQLAP3EArE8fBvKklQbHvC0GwqYnBrWtEQUWNA0HqGpbBY8w8QV2KgEGaWZLBp9eL
QLGWAEEulsDB854pQRbUcUFdQpTB0gifQL+A8ED+BbbBaVKyQEXRCkEwZa/BUl0pQY+GH0GwnZvB
xsNyQCSk5EDa44jBWoINQUhUZEHrwKHBKucRQbsdJ0HjJJzBNnvHQAsqAkFWHKXBNsOMQLr0v0BW
q4/B1ZYsQcULCkElg5XBX6whQRBzckGBGaDBAsLdQAMpHEHWO3jB7gHlQHxACEGg4VrB/WX8QPNI
JEGeemrBvkwAQUTYGEEioVnB6ys9QYEVV0EuNqbBKl+aQGLq/0BJ7oPBxPQPQYX0TkFo/pzBM8cE
QUmhFkE5H6HBUminQOEj8EDoO57BbXabQH+vnECzp4jBTcJtQZvaaEH9d8bBXuWAQSF6TEGTqMjB
1BSkQCrg10Clr2nBn9oOQexoO0GxdKzBAjrLQD6fH0FaspjBJ0jWQNE6xEB+iJXBkkI5QTKWd0FB
6a7BrV4bQSn6g0ETk6LBkcRUQbGgfUFddFHBb7Y4Qbi1i0HBDl3BbpdlQWouZUEgCGzBIuRoQXh1
HUEwx6vBC3V6QaEgLkHLi7vBB6ktQWx8jEEVpIHBroxaQZesZkGrIonBs0hNQVh3MUHIp6HBmrxS
Qav5ZUGRw7fBhMpVQD2G6EDTk87B6oWRQDR/xEA06cjBJfw9QJaizEC8XsLBSLMUQQaPEEGwQYnB
MugnQe3c+EAWp4XBl3YvQT0pGEGHp4XBe1BJQVg3AkEciJ7BEDxOQdrFD0EvGpLBq61GQSgW6EC9
GZLB0gk4QcnDiEFBYpTB+UBKQSYrfEGWdpfBkTGlQLFHCEEHVMXBc1NlQGJZDEGQyb7BZZQuQVJl
YUFaUJLBXmAcQVWddkEm+47BIrSFQKHe4ECPU7HB6Fu4QKYo2UDb1rfBDonKQKwpE0EsO7TBp7eY
QO0TFkFINq3Bhj8vQTp2HUFi2KPBANUyQeP0K0H9kJfB2IFKQG+j+EAeGY7BviNLQEaU1kC4hYLB
Em7/QOBPbEEnBZ7BD50KQQ6LYkE6Y6rBXToMQbEvKkHv9JPBU2vfQNdE7EDQcafB9xBnQIW6s0CD
/ZTBLOQiQUMx+0CDaJnBDHs3Qbu4TkFfA6DB4NSiQIpXDUE9xYfB+KMRQQweTkGdDJXBgb0LQV+l
DEGAUKbBA9mIQMsd+UBwAZ/BRvuCQExFkkCiNYTBz4ymQPSohEBrJ43BmMqyQAtQp0Dr3YPB+mAj
QRR9hkGWhqjBJ0UVQSxepkHQ9bXBNcQHQY/AoUG9MK7Bo0EjQQXbn0FP9bvBVBlgQTsOYEG0oH3B
xAJZQYG0a0GyxmvBFSUIQc6clkEyd6zBAKgjQQu3lEEuPrrB+6tUQcrWYEFfeYjBecg6QREMeUFF
TYDBMUNGQSFVeEEWDG3BiecVQSoOkEGIlrLBANZBQaBqbUGEVonBDdjPQMmKCUGon2zB3tE+QcRT
gkGIEVrB8SetQN0n90AAUXTBJkASQfSjOUFXeqLBUQbgQNhWE0Hy2J7B0COvQMN70UDelJbBTMg4
QQLMZUH8xZzB8qpuQFPd3kCO/MbBpDMmQfZ5CUFyhInBecJEQXc3/0BLy5XBIV4WQVsbhEFotLDB
RyOMQBaWAUE2esDBEQ4nQWBFgUFK/KfBCIGeQIXB8UDE5LXB6TazQJAKC0F9Pq/B4fEqQS2FHEFU
pZvBgC1vQG0F50AD2IjBEKYRQXfoYUFt5qHBMqUTQfzuJEGx+5vBWJDHQBX2AUE38aTBPbGJQKmv
wUBPn4/BHD4tQUgYB0GcV5XBePEnQd4aakG0n6XBWeTeQHRdG0Ea5XfBLGLkQB1OB0G0jFrB5gP+
QEPjIkGqEWrBrZoAQf1bF0GcOVnBa4A1QZAvb0H5tpLBd3+ZQDOAAEFl1oPBP9USQaXATEHq4JzB
Wr8FQf/fFEGv2aDBLpOmQLgR8UASGJ7Bh9+WQAHSnUCZm4jBzxIuQeHuh0F4QlvB3FRJQQ3qgUF8
2EjBPHqhQJ6E2ECYhGnBX0wQQdAtOUHMQazBWcfNQKJfH0HOi5jBKmzTQIoPw0DpZ5XBSLtHQWut
WUFYsZ7BVP4tQcceX0FiPK/BwOYUQfrlrkGsUbfB1Ub6QI/ApkEwkKnBd6otQYFoo0GA3sHB+Wlu
QaZxVkFnfXzByOthQTcGa0F3/FzBRtT7QMgVk0FLdqbBOHsuQci9j0GPyL7BFj9aQUzQV0FdS4/B
VnAsQThPgUGz2oDB1dhUQI/d60AdgM7BzHyPQE1PxkAwzcjBfXY6QAZ50EA8TsLBGXEVQdDPDkGi
M4nBaronQU7r80Bmb4XBznAwQe9YFUFphIXBLr9JQabX+0DwMJ7BDwFPQT96C0HVy5HBrEpGQe0t
4EDRtpHB2HEGQfltgUGXFK7BlqYaQaUHgEEZNLjBNSemQPPCCEFHMsXBT8tnQM/XDUFUs77Bgu82
QXTpg0F6tarB9NIiQa6BhUFQkaDBn36EQFss40CdN7HBXuG2QKpl2UD7r7fBoCHMQDnlEkHyD7TB
7IOaQInOFkEyE63BE3IwQSDsGUFH56PBLRI1Qb2sKEEWypfBdp5IQHbM+0DTD47BV1FGQPOp2UDW
gILBlAQLQYhUbUFmFZzBYQMHQTfxYEEe5ajBCF4OQdQvKEFOv5PBfHbeQC/c6kCgRKfBp0JgQCJ8
tkAt/JTB1B4jQRHf9UCWMpnBXYcoQax5eEH5HpLBSQGjQDS8DUFap4fBsCQUQSATTEGj6ZTB1U0M
QbNhCkEe7KXBFnSIQOJs+0DL3J7BdtJ7QBdQlEDaM4TBsSKhQPVshUDbGo3BcnuuQNiBp0Dsx4PB
GdQ6QbtYV0EyBq7Br3oVQYpjpkFK7LXB1PAHQXbGoUGvKq7B4XAjQeben0H57bvBLAhGQcZheEFK
VW3Bvr1YQf7ma0FO5WvBxT8IQe+hlkGZd6zB/MQjQe25lEFwPbrBc3Q6Qew9eUFdU4DBg0BUQdsZ
YUFDiojBav5fQXogYEFv1X3BX/cVQSUSkEECm7LBL3RBQQambUHhXonBntvPQIqKCUHInGzBfLtz
Qf3SUkEmsHzBkSitQPks90CoUHTBYkgSQbufOUHtfKLBSRTgQFVZE0Gw1p7BXyKvQCOJ0UD5lJbB
2ZE4QYniZUGi0pzBqbRuQCn83kBe/MbBnjwmQdB5CUHWgYnB78hEQZYl/0A2ypXBYFkWQYQfhEHG
v7DBWiOMQCKlAUHbeMDBd/cmQYtHgUGkBKjBmoSeQEHa8UBC5LXBEEGzQFMUC0E1Pa/BnPsqQVmB
HEENpJvBVylvQEoS50Cj14jBu4YRQb7mYUHo86HBO68TQc/tJEGU+pvB/5bHQHn8AUH776TB3ayJ
QHi/wUD9n4/BHkYtQTYVB0EQVZXBhs0nQQkjakEvrKXBJfTeQHdbG0He4HfBuV3kQEFMB0Gjh1rB
QBf+QOLbIkEdDGrBx50AQRxVF0HvMlnBgTE1QXJUb0ElxJLB04CZQC2FAEEj1oPBBsQSQbbCTEHU
55zBK8cFQS3dFEFU1qDB6ZamQFAj8UAgF57BYdaWQEjdnUDsnIjBduF5QURrSEGCcYbBP0V+QdQB
UkG+gmvB23ehQI+I2EDXhWnBQGEQQfAgOUHQRKzBz9jNQNBkH0E4ipjBbWjTQCQWw0DfaJXB+IRH
QTHIWUHVxJ7B1eYtQQUnX0FYR6/B8ScVQSXsrkHUQ7fBgq36QN7HpkHOh6nBZ+ItQQZso0GK08HB
sYxAQfOngEHJl1/BMZVhQY9Qa0GHD13BN//7QFQbk0GteKbB35MuQRu/j0GwyL7BYx4sQV5rgUGC
0YDBi7FZQa8dWEGCZo/BrNxUQN7+60BXf87BL4WPQOpyxkAZzsjBy4U6QBeR0EBgTsLBYnsVQcTT
DkECMYnBxb8nQRnr80BpbIXBznwwQbRWFUEygoXBEcNJQdPC+0AqMJ7BcQtPQe9uC0GAy5HBZ05G
QY4b4EC3tZHBt2YGQT51gUGBJq7Bd6gaQS0NgEFDP7jBrySmQG/VCEGDMMXBysRnQIXkDUHKsL7B
V942QdXpg0Gct6rBYbQiQdeChUE7mqDB64KEQEFF40DSNrHBCOK2QBN92UDQsLfB6y7MQFftEkFS
DrTBR5KaQEbaFkGaEa3BDXswQeLlGUHv5aPBZx01QbaoKEGiyZfB95dIQLbb+0CVDo7Bl1BGQPe0
2UBdgILBNdoKQY5UbUHmJpzBRugGQSXgYEGo86jBZWkOQagzKEF6vpPBBnjeQPvk6kDaQ6fBDjlg
QHGQtkBR/ZTBtyMjQbPb9UAVL5nBDTEoQW6WeEEiNZLB8wSjQAjBDUHdpofB9QkUQXUeTEH675TB
AVUMQbZZCkFL5qXB5XmIQC2F+0BL257BJL17QNlclECCNYTB7hahQJR4hUCrHI3BF3OuQIiIp0Dq
yIPBAL86QctmV0EzDq7BR7+DQXjQWEHYd7bBxqOBQYyGT0HKZ6zBqMJ6QVXjaUEKMbrBBDMTQXEZ
mkHvoL7BtbUSQZJlo0ERQ7jB22ZyQWlfV0E6CabB+95pQYbAcUEb1bPB1FwYQXslkEEaBLrB3Ycc
QZDJmEETr6jBoGMXQQDKokHEMq3B4sxlQRqqaEG4rqnBgBkdQTpkj0EJ/67BWDLQQNcgCUEBOmzB
H/4WQbZ9rEHPSabBTpasQM/590CnTXTBBpoVQQB2OEGfzKHBGfLiQEyyE0FIkZ7BnUOuQHzr00D6
tJbBXG8nQQBLgkH5YKDBJTxyQPZl5kBTOMfBJromQdcLB0EY/ojBXh1FQT9A+EBkKJXBapZTQecF
cUFg3KLBuw6PQHK4BEHcg8DBMpo+QaGQZEHbMaXBXzagQH6n9kCG87XBQRW2QB3ZDEEDHK/BpKss
QZknGkF+ApvBBhhuQMbd6kBpB4nB5LIWQUWuYEE2sqDBpccVQTSWI0E9b5vBxUDJQC8KA0Ha1aTB
7O2HQGY7xUAk5o/Bt+otQZORBEFDypTB5rIrQRDGbEG3KZ7BGOjgQEjLGkEwJ3fB5yXkQDM3BkGl
FVrBqicAQeF6IUEHD2nB6xoBQQqnFUFUX1jBkywiQYw+hUEu5arBt8GZQD6VAUGt14PBtgcXQdlA
S0E6BZzB/EcHQTZWFEFoe6DBakSnQIM79ECCIJ7BG16TQJN1oECn/IjBzycbQcW6q0FybZzByn8S
Qch0tUE+UarBiHafQHuF2UBMy2nBET0UQT9gOEHOmqvB1YjRQDTuH0HINpjBNuXRQCH/w0AMf5XB
DD4oQVabiEEr4pjBNwMxQdu0aUGKFJPBhj2KQY/ZUkFaU7vBJH6GQStlQkHhk6nBcPJ9QfrwcEGb
6sHBkpsPQaWamkGcEMfBkcAOQdkCq0Fd1bvBuRlvQZkoUEFJXJ7BGglgQYy7fkF9uLbBSbMYQVYM
iUFn8L7BKhsgQaZHmEEAP6DBji1aQMhb9EDBt87BKlmQQE4AzUAtEMnBUXw8QKDK2EDPqsLBADIW
QTgQDUGrvYjBn4YnQdXT7kAj+ITBJFwxQU1rEkGM44TBWDNKQR+/9EBkiZ3Bq8FPQcF+B0HEDpHB
JexFQb762EBbI5HBF8RXQZ0eb0GXXZrBeBRRQfwJgUG+oqTBt9ipQKSBC0EVG8XBantvQM1mEUG3
tb7B4mY6QXCdZkHDra3B6jpBQfZ9U0E/gqPB6WqFQN7f6EDMZrHBBqe3QMps3UDUxbfBBs/PQPpX
FEGbzbPBskKeQFUIGUHr56zBDDoyQQlzF0HZP6PBqjs3QejLJUFGDZfBYK1JQNpZAEGgN47B0KhD
QAz63UBSyoLBhhsJQXWsaUGRX53Bkt8UQZFWX0FDbKnBfHMQQf3lJkFwNpPB7ybfQBw17EBdNafB
PFVcQHVgu0CpXZXB4mEjQbzP8UBMwJjBAAUiQdmLfkH7N7DBtXukQCC5DkE+iYfBRWMYQd4bSkHh
EZTBl3INQXO8CUHFnqXBo5+JQKfa/0DQ7J7BE7lzQIu1l0DvrYTBsdScQHPvh0CWjI3BnySrQPzn
qEADEYTB8HowQYsPd0HLdY/BAYiAQU5hYEG0/p7BxuR5Qcy7dUH4qp/Bp3FyQcphT0GSRKDBsWQp
QWeWq0H7oJvBQL4fQRIFr0H9N6XBvB9kQdoZekHYraHBDK1cQeq3U0EpRqLB+AYpQa6woEFnyJjB
D0cVQX2snEGcFqnBgJkVQSOLp0FEC6zBJ39VQfYWaUGNHqPBivoeQRwfmUGqe5/BD1bQQH4VCkHQ
8GzBzUkLQUL2qkFMOrbBn9OuQOu19kCNg3TBdtsPQbioO0GfuaLBYDHeQIg4FEH3C5/B4HmxQP1M
0UBfs5bB7vMWQbVfhUE4XaHBNhJvQLt93ECPAsfBQikmQSq1DEGT3YnBm+tEQUYzBEEaSJbBFgM+
QZCzbUFFI6XB0tWKQPrUAEFdhMDB/98xQa62b0G2XprBBk2eQBUB8UB9+7XBrIuxQBgUC0H2WK/B
8awpQRa9H0F2C5zBBQ9zQHk+5EAu1IjB6FsNQZx3Y0H5HaLBUAgSQQgXJ0EkQ5zBvATHQLhjAkGD
G6XBFQ6NQO3Kv0AGqY/BMBQtQf6ICkHDt5XBoYwZQdT7dEEdwZvBWY/dQAw/HEGSPXjBOFrlQLpK
CEFN9FrBNDP8QHRyJEECiGrBaVsAQfL6GEFbuFnBjxYfQbxnjkEEIpzBj2iaQMe0/0CT44PBNEYQ
QSysTkHXG53Bu7sEQWKLFkEFGaHBcS2nQBNz8EC8MJ7Bwx2cQPWHnEDWsIjBeH4CQYEfpEF0O7zB
zGQLQbGztEG21LjBWr2kQHmK10DrsWnB+gAOQeQ0O0ELg6zByynLQLbkH0EWuJjB3m3WQDWSxEDl
m5XBqBcOQRnAhUEFHarBkDgQQZiodkEKVZHBbuCIQV0LXUEZgZ3BAIqCQWJfgUGGpJ7Bku13QbEI
P0GXtJ/BmRcxQXpUsUFUcpbBQBYgQdBit0GpXqfBKp9eQZw6hUGTHqLBPnhRQbivRkGUKqPBXnsw
QQQcnkGEbZHBiXwNQfTvlkEePq7BBp5TQIby6EC0fc7BN76QQLUYxUDX4sjBdIo8QIndzEAVSsLB
5ioVQfY4EUHteonB8YUoQb+p+kD2v4XBreIvQUQcGUHV8oXBIs1JQW+qAkGbs57BvqhOQVmZEEHc
XpLBAkxHQemj6UD8K5LB/H88QTHGfEEtnqnBMQk3QaiPYEHt1qnBKwSkQHefCEFQRsXBXRZjQOGB
DEGNrb7B/FQzQR14YEFiCJbBP1U5QfOQfEGDp5XBcCCFQKs14UA5RLHBfLO3QJLL2UAG17fBUZHJ
QHGFE0FjM7TBaOCXQOtBFkGYG63B9RcvQdNOHUEoVKTBqlUzQcVfLEG4RpjBJEtKQNwm+EAY/43B
YuZLQOrz1UCtcoLBL2r4QPZmZ0EKRqLBRowTQcDkYkGeWarBr8IMQVQeKkEIAZTBKuHeQDq/7EDg
gafBtKdnQEx2s0CI95TBhHkjQXy9+0Agf5nBBuslQbUHjUG/B5XBb5SiQMNLDUFkt4fBa7MSQfwd
TkHINJXBAKILQV5MDEGuLqbBpJWIQBxo+UDu457BtMeDQJ7hkUD0OoTBo02nQJilhECfOI3BtHGz
QC5Cp0CR6oPBLqARQS1iaUGaso3BoMc3QSVup0ESmrLB05szQcXbn0E0s7rBWcE9QS/8o0FcSKjB
emRGQc8IeEE0TG3BvQ1ZQTV9a0E7zmvBJ4k1QTvXlEHsgLjBJa4/Qbj3mEEiEqbBDtk6QZjmeEFe
UYDBVp5UQfWuYEGzfojBW09gQd2tX0H1t33BydQ7QdxekUH3N67BatZBQVJAbUGgWInBUsbPQIWK
CUHxl2zBEQB0QSJPUkGahnzBtf6sQHFJ90C7TXTBXGYSQbueOUHDjqLBRkTgQNlME0H20p7BKwKv
QHWJ0UAgkZbBGuE4QTEuZUE7v5zBdxVvQLn93kDJ/MbB8CYmQeRRCUEofYnB+rdEQWWk/kDAu5XB
LJM9QT+GhUFZ0qvBY3SMQGueAUGAesDBVKEnQWoZgUHzHqjBh7OeQB/I8UCn4rXBGYqzQAUGC0Ej
Pa/Bdw4rQbNpHEF5mpvBUOhuQE5Y50Dm2ojBHPMRQWYTYkEqIaLBOMYTQZ3vJEFE/ZvBqsDHQB3v
AUGe66TBtHCJQPXqwUDvno/B3zwtQTXxBkFvTpXBnnEoQfDOaUE2taXBUAXfQINRG0Hh3nfBVTvk
QDZHB0Hnf1rBPCn+QKrJIkGXBmrBs5gAQShFF0GRKlnBIJ01QSHqbkG8wJLBdnGZQBuYAEE014PB
kqwSQZvbTEFSCZ3B3N0FQZfXFEF31aDBAKOmQJgn8UChFZ7B0GiWQOwBnkBKmIjBmyJ6QXbbR0Ge
WYbBTYF+Qel4UUFgVGvBxCihQEW12ECLgWnBna8QQaoDOUHlV6zBSgrOQPZYH0GthpjBbDjTQAD2
wkCxX5XB9rFHQZfiWEEtpJ7B7VQuQfqsXkHsTK/BuWU2QXHfr0GkTbTBwe8uQY6AokFAlsLBkNtA
QdXJqUGVEqLB5etAQWmBgEFMlV/B4dphQa7gakGT8lzBLTIyQYkLj0GisL7BYxlEQQdVlkESJZ7B
zIssQblFgUGj1IDB/RVaQS+0V0EWWo/BbnBVQAcF7ED9gc7B3puPQFFWxkBTysjBirg6QAW30EDe
T8LB5msVQQXADkFlMInBupEnQQqP80Bca4XBWXAwQfcdFUEEd4XB1b1JQWJF+0ANIJ7BXwJPQfMd
C0EBtpHBwSNGQQGP30BZqpHBY65CQThEgUFjFrPBNHRJQXBGhEEic6XBiIymQIG8CEEvMcXB3plo
QNvsDUG6tr7BTrsiQcZZhUHO0KDBvsobQVSIgkEaea7BFZyEQBdU40BlNrHBEPu2QNlP2UC1qrfB
HI7MQLXOEkGyDbTB2e6aQMTZFkFyFq3BQp4wQV7RGUHd2aPB9TE1QaqEKEF0t5fB95ZIQC0x/EBc
FY7BgdtFQDcX2kAshYLB4VwLQXSpbUHOYZzBNXwHQcI6YUFFManBm3cOQTRJKEGPxJPBppjeQLi5
6kDcOafBsrtfQHXRtkBO/pTBLRIjQS2x9UCSLpnBRMEoQTBieEFvQZLBnxejQBrNDUGIqIfBH2oT
QdFGTEHeDJXBDGwMQQBUCkFA5aXBtpCIQKij+0DJ3Z7B+L56QG2flEAVM4TBJpigQG6OhUB1FY3B
5gauQGqZp0A9woPBLf46QZyjVkGFD67BpJw3QSpqp0Gvp7LB2nQzQVvVn0Etv7rBj5w9Qfj6o0Hr
VajB93BgQRiaX0EEh33BcFpZQSBNa0EdtmvBWGw1QXfRlEEni7jBBZQ/QSv3mEEmHqbB7AxVQVth
YEGwbojB3zM7QXSyeEEkT4DB86VGQYr8d0GECm3BV8A7QdhbkUFYQq7Bzz1CQSP9bEGNUonB3r7P
QOKNCUGymGzBNzc/QYsugkHGGFrBzPmsQIJJ90AvTHTBSV4SQfibOUFzjaLB1TDgQARGE0E81Z7B
+/uuQGZ90UDqjpbB/R85QaoPZUEKtZzBD+1uQMHP3kAU/MbBLiAmQVNSCUE6fonB2K9EQX+n/kCt
vZXBupU9QUeDhUHP26vBH1qMQDOKAUEiesDBdronQXoQgUEdE6jBN6SeQMal8UCT4rXBinGzQJf4
CkG3Pa/BrQIrQXJmHEECnZvBmdpuQCVM50AA2YjBVhgSQQQNYkFpFKLBvroTQenpJEFi/5vBSbHH
QEblAUFr7KTB3myJQAbewUASnI/BlTMtQSrwBkHiT5XBtZsoQSe7aUGWqaXB5PXeQIFVG0Fs4XfB
fzfkQMxNB0FIgVrBVRr+QBbRIkFGC2rBiJQAQRlOF0F9LlnBAPE1QUS5bkF2tZLBeGmZQMGUAEFo
1oPB8sESQWPSTEGOA53BNdMFQVzTFEHm2KDB+JemQP8S8UBoFZ7B22uWQHf5nUColIjBOYMuQSrR
h0HnVVvBGLFJQb7CgUFc2kjBUiehQFW32EDAfWnBQZkQQZkJOUEoVqzB6vbNQC1QH0EBiJjB9jPT
QCLvwkAEXZXBJvdHQSDJWEETlZ7BRHAuQSqcXkEJRK/B8zI2QeLar0GHXLTBDsQuQb93okFTosLB
Y7NAQTfKqUE2IaLBtbpuQYv0VUEIWXzB9TpiQZOdakHW5lzBvhYyQRQEj0F2ub7BQgNEQdtWlkHa
MJ7B7aFaQV1TV0HNPY/BKuYsQXEpgUH/4oDB1DlVQFDU60DSgM7BSY2PQNouxkB7ysjBO5w6QMCB
0EBwTsLBkmQVQYa+DkG4MInBzI0nQdSR80DCa4XBKWkwQWcgFUFJeYXBnrRJQexF+0ATIp7Bc/lO
QZ8hC0H8uJHBFx5GQUSU30B1q5HBj5pCQWVBgUHUI7PBbZBJQWRIhEGwh6XB8WumQN2rCEGnMcXB
iVloQE/VDUGctb7BhO0iQbxPhUEswKDBqckbQch8gkGLYa7BxJOEQBIp40CONbHBOfO2QKo12UBC
q7fBFG/MQPjEEkHhDrTBiM+aQJHIFkGtFq3BbJEwQY7MGUF03KPByyU1QSqDKEEcu5fBaoNIQMEg
/EDbE47Be9JFQOAL2kCxgoLB0I4LQeChbUHVUJzB8JwHQSxFYUFVI6nBrmsOQbQ/KEFdxpPB2Yve
QGSo6kCrOqfBZbVfQMy+tkDn+pTBmAkjQfuq9UDhLpnBKhgpQVIzeEGDLJLBWQyjQEzJDUGkqIfB
3YoTQWM0TEGMB5XBHmEMQf5SCkFy6qXBnIOIQDmI+0BO3p7Bw8l6QB2VlEDcLoTBup2gQKSFhUBa
EY3BowmuQFWWp0Auv4PBsRo7QXqRVkHTC67B

> <OMEGA_E>
DnCXPxtOmD+yXJg/HneYP1Z4mD+/SJc/OjObP8oVlT8VFpU/

> <OMEGA_NBR>
    120566

$$$$
50169572
  -OEChem-04172616093D

 91 92  0     1  0  0  0  0  0999 V2000
   14.4554   19.2680  -22.1995 C   0  0  0  0  0  0  0  0  0  0  0  0
   14.9093   18.3934  -21.1954 C   0  0  0  0  0  0  0  0  0  0  0  0
   13.2817   18.9695  -22.9186 C   0  0  0  0  0  0  0  0  0  0  0  0
   15.3849    9.6841  -18.1365 C   0  0  0  0  0  0  0  0  0  0  0  0
   15.5823    9.0046  -19.3514 C   0  0  0  0  0  0  0  0  0  0  0  0
   14.1836   17.2271  -20.9013 C   0  0  0  0  0  0  0  0  0  0  0  0
   12.5426   17.8127  -22.6140 C   0  0  0  0  0  0  0  0  0  0  0  0
   14.5386   10.8000  -18.0904 C   0  0  0  0  0  0  0  0  0  0  0  0
   14.1010   10.5775  -20.4803 C   0  0  0  0  0  0  0  0  0  0  0  0
   14.9471    9.4523  -20.5348 C   0  0  0  0  0  0  0  0  0  0  0  0
   12.9692   16.9525  -21.5830 C   0  0  0  0  0  0  0  0  0  0  0  0
   13.8831   11.2407  -19.2531 C   0  0  0  0  0  0  0  0  0  0  0  0
   15.1673    8.7549  -21.8235 C   0  0  0  0  0  0  0  0  0  0  0  0
    9.0268   11.7719  -20.0167 C   0  0  0  0  0  0  0  0  0  0  0  0
    5.5479    6.5155  -18.7046 C   0  0  0  0  0  0  0  0  0  0  0  0
    6.8571    9.2358  -19.6299 C   0  0  0  0  0  0  0  0  0  0  0  0
   12.1354   12.8967  -19.9718 C   0  0  0  0  0  0  0  0  0  0  0  0
   10.0575    8.6071  -16.9507 C   0  0  0  0  0  0  0  0  0  0  0  0
   11.8523    7.8582  -18.5509 C   0  0  0  0  0  0  0  0  0  0  0  0
    4.4237    9.9843  -21.2410 C   0  0  0  0  0  0  0  0  0  0  0  0
    6.3556    9.3292  -22.7322 C   0  0  0  0  0  0  0  0  0  0  0  0
   12.1560   15.7110  -21.2953 C   0  0  0  0  0  0  0  0  0  0  0  0
   12.1584   15.3834  -19.7965 C   0  0  0  0  0  0  0  0  0  0  0  0
   10.4264    9.8465  -19.1572 C   0  0  0  0  0  0  0  0  0  0  0  0
    9.8963   14.1272  -19.8794 C   0  0  0  0  0  0  0  0  0  0  0  0
    4.7689    6.6680  -16.3050 C   0  0  0  0  0  0  0  0  0  0  0  0
    9.0081   10.4459  -19.2532 C   0  0  2  0  0  0  0  0  0  0  0  0
    4.5162    6.0344  -17.6819 C   0  0  2  0  0  0  0  0  0  0  0  0
    6.1059    8.1950  -20.4682 C   0  0  2  0  0  0  0  0  0  0  0  0
   10.4453    8.4673  -18.4394 C   0  0  0  0  0  0  0  0  0  0  0  0
    5.3556    8.8255  -21.6708 C   0  0  0  0  0  0  0  0  0  0  0  0
   11.3770   14.1185  -19.4345 C   0  0  1  0  0  0  0  0  0  0  0  0
    4.6255    4.5755  -17.5289 N   0  0  0  0  0  0  0  0  0  0  0  0
   13.0556   12.3385  -19.0971 N   0  0  0  0  0  0  0  0  0  0  0  0
    9.2494   12.9377  -19.3026 N   0  0  0  0  0  0  0  0  0  0  0  0
    8.1666    9.4929  -19.9647 N   0  0  0  0  0  0  0  0  0  0  0  0
    5.1546    7.4789  -19.6215 N   0  0  0  0  0  0  0  0  0  0  0  0
    4.8728    8.1373  -16.3876 N   0  3  0  0  0  0  0  0  0  0  0  0
   14.8244    9.3069  -22.9051 O   0  5  0  0  0  0  0  0  0  0  0  0
   15.7000    7.6133  -21.8283 O   0  0  0  0  0  0  0  0  0  0  0  0
    8.9340   11.7880  -21.2402 O   0  0  0  0  0  0  0  0  0  0  0  0
    6.7246    6.1794  -18.5993 O   0  0  0  0  0  0  0  0  0  0  0  0
    6.3127    9.8136  -18.6930 O   0  0  0  0  0  0  0  0  0  0  0  0
   11.9532   12.5011  -21.1190 O   0  0  0  0  0  0  0  0  0  0  0  0
   11.3924   14.0832  -18.0028 O   0  0  0  0  0  0  0  0  0  0  0  0
   15.0078   20.1697  -22.4193 H   0  0  0  0  0  0  0  0  0  0  0  0
   15.8147   18.6183  -20.6514 H   0  0  0  0  0  0  0  0  0  0  0  0
   12.9488   19.6303  -23.7054 H   0  0  0  0  0  0  0  0  0  0  0  0
   15.8845    9.3466  -17.2404 H   0  0  0  0  0  0  0  0  0  0  0  0
   16.2226    8.1355  -19.3821 H   0  0  0  0  0  0  0  0  0  0  0  0
   14.5504   16.5380  -20.1550 H   0  0  0  0  0  0  0  0  0  0  0  0
   11.6465   17.5832  -23.1713 H   0  0  0  0  0  0  0  0  0  0  0  0
   14.3895   11.3237  -17.1578 H   0  0  0  0  0  0  0  0  0  0  0  0
   13.6184   10.9332  -21.3786 H   0  0  0  0  0  0  0  0  0  0  0  0
    9.0506    9.0430  -16.8729 H   0  0  0  0  0  0  0  0  0  0  0  0
   10.0653    7.6153  -16.4752 H   0  0  0  0  0  0  0  0  0  0  0  0
   10.7809    9.2626  -16.4435 H   0  0  0  0  0  0  0  0  0  0  0  0
   12.1266    7.7594  -19.6115 H   0  0  0  0  0  0  0  0  0  0  0  0
   12.5764    8.5133  -18.0445 H   0  0  0  0  0  0  0  0  0  0  0  0
   11.8609    6.8660  -18.0761 H   0  0  0  0  0  0  0  0  0  0  0  0
    3.7122    9.6219  -20.4844 H   0  0  0  0  0  0  0  0  0  0  0  0
    5.0261   10.8008  -20.8162 H   0  0  0  0  0  0  0  0  0  0  0  0
    3.8706   10.3540  -22.1170 H   0  0  0  0  0  0  0  0  0  0  0  0
    7.0162    8.5035  -23.0354 H   0  0  0  0  0  0  0  0  0  0  0  0
    5.8041    9.6984  -23.6094 H   0  0  0  0  0  0  0  0  0  0  0  0
    6.9596   10.1452  -22.3087 H   0  0  0  0  0  0  0  0  0  0  0  0
   11.1197   15.8760  -21.6251 H   0  0  0  0  0  0  0  0  0  0  0  0
   12.5864   14.8635  -21.8488 H   0  0  0  0  0  0  0  0  0  0  0  0
   13.2014   15.2500  -19.4733 H   0  0  0  0  0  0  0  0  0  0  0  0
   11.7128   16.2317  -19.2563 H   0  0  0  0  0  0  0  0  0  0  0  0
   10.8248    9.7195  -20.1747 H   0  0  0  0  0  0  0  0  0  0  0  0
   11.0665   10.5440  -18.5971 H   0  0  0  0  0  0  0  0  0  0  0  0
    9.4003   15.0382  -19.5132 H   0  0  0  0  0  0  0  0  0  0  0  0
    9.8346   14.0922  -20.9771 H   0  0  0  0  0  0  0  0  0  0  0  0
    3.9363    6.4072  -15.6351 H   0  0  0  0  0  0  0  0  0  0  0  0
    5.7080    6.2672  -15.8958 H   0  0  0  0  0  0  0  0  0  0  0  0
    8.6189   10.6160  -18.2385 H   0  0  0  0  0  0  0  0  0  0  0  0
    3.5073    6.3051  -18.0266 H   0  0  0  0  0  0  0  0  0  0  0  0
    6.8415    7.4803  -20.8656 H   0  0  0  0  0  0  0  0  0  0  0  0
    9.7250    7.7996  -18.9348 H   0  0  0  0  0  0  0  0  0  0  0  0
    4.7348    8.0429  -22.1313 H   0  0  0  0  0  0  0  0  0  0  0  0
    3.9522    4.2585  -16.8610 H   0  0  0  0  0  0  0  0  0  0  0  0
    4.4542    4.1343  -18.4098 H   0  0  0  0  0  0  0  0  0  0  0  0
   13.1333   12.8026  -18.2147 H   0  0  0  0  0  0  0  0  0  0  0  0
    8.9557   12.9729  -18.3474 H   0  0  0  0  0  0  0  0  0  0  0  0
    8.5624    8.9986  -20.7387 H   0  0  0  0  0  0  0  0  0  0  0  0
    4.1812    7.6919  -19.7064 H   0  0  0  0  0  0  0  0  0  0  0  0
    5.0367    8.5122  -15.4751 H   0  0  0  0  0  0  0  0  0  0  0  0
    5.6314    8.3844  -16.9905 H   0  0  0  0  0  0  0  0  0  0  0  0
    4.0208    8.5116  -16.7535 H   0  0  0  0  0  0  0  0  0  0  0  0
   10.9247   14.8367  -17.6620 H   0  0  0  0  0  0  0  0  0  0  0  0
  1  2  1  0  0  0  0
  1  3  2  0  0  0  0
  2  6  2  0  0  0  0
  3  7  1  0  0  0  0
  4  5  1  0  0  0  0
  4  8  2  0  0  0  0
  5 10  2  0  0  0  0
  6 11  1  0  0  0  0
  7 11  2  0  0  0  0
  8 12  1  0  0  0  0
  9 10  1  0  0  0  0
  9 12  2  0  0  0  0
 10 13  1  0  0  0  0
 11 22  1  0  0  0  0
 12 34  1  0  0  0  0
 13 39  1  0  0  0  0
 13 40  2  0  0  0  0
 14 27  1  0  0  0  0
 14 35  1  0  0  0  0
 14 41  2  0  0  0  0
 15 28  1  0  0  0  0
 15 37  1  0  0  0  0
 15 42  2  0  0  0  0
 16 29  1  0  0  0  0
 16 36  1  0  0  0  0
 16 43  2  0  0  0  0
 17 32  1  0  0  0  0
 17 34  1  0  0  0  0
 17 44  2  0  0  0  0
 18 30  1  0  0  0  0
 19 30  1  0  0  0  0
 20 31  1  0  0  0  0
 21 31  1  0  0  0  0
 22 23  1  0  0  0  0
 23 32  1  0  0  0  0
 24 27  1  0  0  0  0
 24 30  1  0  0  0  0
 25 32  1  0  0  0  0
 25 35  1  0  0  0  0
 26 28  1  0  0  0  0
 26 38  1  0  0  0  0
 27 36  1  0  0  0  0
 28 33  1  0  0  0  0
 29 31  1  0  0  0  0
 29 37  1  0  0  0  0
 32 45  1  0  0  0  0
  1 46  1  0  0  0  0
  2 47  1  0  0  0  0
  3 48  1  0  0  0  0
  4 49  1  0  0  0  0
  5 50  1  0  0  0  0
  6 51  1  0  0  0  0
  7 52  1  0  0  0  0
  8 53  1  0  0  0  0
  9 54  1  0  0  0  0
 18 55  1  0  0  0  0
 18 56  1  0  0  0  0
 18 57  1  0  0  0  0
 19 58  1  0  0  0  0
 19 59  1  0  0  0  0
 19 60  1  0  0  0  0
 20 61  1  0  0  0  0
 20 62  1  0  0  0  0
 20 63  1  0  0  0  0
 21 64  1  0  0  0  0
 21 65  1  0  0  0  0
 21 66  1  0  0  0  0
 22 67  1  0  0  0  0
 22 68  1  0  0  0  0
 23 69  1  0  0  0  0
 23 70  1  0  0  0  0
 24 71  1  0  0  0  0
 24 72  1  0  0  0  0
 25 73  1  0  0  0  0
 25 74  1  0  0  0  0
 26 75  1  0  0  0  0
 26 76  1  0  0  0  0
 27 77  1  0  0  0  0
 28 78  1  0  0  0  0
 29 79  1  0  0  0  0
 30 80  1  0  0  0  0
 31 81  1  0  0  0  0
 33 82  1  0  0  0  0
 33 83  1  0  0  0  0
 34 84  1  0  0  0  0
 35 85  1  0  0  0  0
 36 86  1  0  0  0  0
 37 87  1  0  0  0  0
 38 88  1  0  0  0  0
 38 89  1  0  0  0  0
 38 90  1  0  0  0  0
 45 91  1  0  0  0  0
M  CHG  2  38   1  39  -1
M  END
> <OMEGA_C>
eElnQe8kmkGkmLHBkoxuQZ0lk0FHkKnB8IFUQZfBl0FZWbfBgSh2QQjyGkF0F5HBClF5QewSEEGg
z5rBGPBiQTPRiUHwNafBrK5IQW2AjkF/6bTBSp5oQffMLEE8uZDB4p1hQUg9KUGl16PBaSdvQb48
F0FUR6TBu4FPQbqeh0EVqqzBFSFeQebZM0FiBprBXK1yQQ8UDEGMlq7B5G0QQahZPEFIIqDBkYix
QMF+0EDsopXBg23bQPvFE0ERCp3BfSpCQdFYTkEyxp/BuesgQc62CUEBm4fB5aI9Qbl2+0A0aJTB
AI+NQH2/H0F+7anBTmHLQEhEFUGM27XB8X5CQUVge0G+XKrB2ohCQXsidkEtX57Bg9ImQRqLHUEK
QpnBTFceQTEJYkH7CJ/BtJqYQPFf1UCqcILBDSEQQXgiJ0GiBprB6ISQQIAZwUCGdI3BrGPDQMse
A0HIvqPBxB8nQQh6B0HTg5PBNmGrQBg1DUHWXa3BSgg2QZDlYUHGeZvBQQSUQFBqkkA9O4zB3uNQ
QX5qRUHWxpjBXf0TQbYAT0HMa5rBRqoCQeriF0HNt5/BgvKkQGdT70DK+JzBRu6bQIEyAkHJGYPB
kzBtQeLoFEGYPbfBXzN7QXCg80ByoK7Bu/EOQcibPEEB7KnBEDDXQJy9xUBUy5TBwQHKQHYEHUFC
i5XBfEA/QWYESEHO86jBLEc2QfdUYUHLBZDB9B9wQY5boUGpWrPBHwl9QUrylEH5NaXBTi5PQdgK
nUGUpL3B5CZ+QbWLFUFZ7InB78eBQeEqAkF8DpvBb85oQelNhEF2PaHB9Fc6QX2qjEHrXrnBbDtm
QQYuNUEZQ4nBG+VZQWHuLkFbB6vBTM8QQUqwEEGm+4bBigshQSWw80AlzYPBhX4sQXIzFEFhjIPB
lAZCQUpN+EBq5JzBDTlJQZo2CEESW5DBEsY9QXS220DWm5DBPJRtQCjzGUEK4KPB5dWgQPrPLEGl
h6bB+Ld3QAWqJUGE77DBmoTgQFwOCEGJSLjBMLu5QKIsG0EQ4LzBGbXeQJdSIkExeLLBLuoxQTYE
fkFOAK3B+2FJQcDQbUFlyq7ByzhTQTEAdEFDyZvBi2c7QZbagUHsDJrBjTItQT2DG0G0ZaHBdhAx
QRu0KEHwxpTBtmcWQYaccEHwGpzBuVodQcB5YUEY0afBwut7QO4HzUByKXrBEqi2QBiNyEBEVX7B
8OYJQQbbKUGI6JHBYnhgQKXDyUCSNpDB3e3aQFBe70DS7KbBcZkbQaeW+UBlepfBS4OXQISvAEH6
DLHBpfB8QKpFiEBJ44bB2oiOQDhMhEBcR5PBISJSQVvXTEG5t5HBukoPQd2QT0Fkx5LBZv8IQWT6
D0Ht6KXBysyFQCgk9kDPpp3BziyhQOgxCEEJmnfB1DS0QE0mBkGG7IfBHKqAQJcvCEEmB4bBqssu
QfhibUHJS43BCUxkQTPgmkFgSLLB8txSQe4FlUFRWLbBG1JwQQ/SlkHbpqnB5ElzQaMMG0E+3ZDB
ZFF3QY9fEEGkjZrBcF5NQTMmi0FXv7HBDbdqQTz8jEGi86TBWXZlQfO4LEG9rJDBWvVfQVxtKUHw
66PB5bxtQVmJF0FqK6TB2PdYQRc2h0Ht1qjBjZhbQfPnM0HJIprB0gByQYJcDEH0aq7B/uIQQa7V
OUHPLZ/ByYSwQJHvzkCBtZXB6S/bQANUEkETHJ3BOXxAQbUVT0EodqDBfWchQbxkBkFFu4fB4cM9
QSYZ9UCIxJTBoPqMQCc7H0GuxKnB7cTKQF4UFUF1x7XBEUtTQVtNeUG5vKPBcLw6QS2AdkFWQ6PB
1BwnQVSAGkFuTJnBFMgbQa8lYEH7dp3ByyWYQAK000BkeILBnIYQQVYqJEFjs5nB/ZOPQI+4v0BI
fo3B52TCQO0jAkEt5KPBT1gnQQxeBEGLsZPBC5KqQOW+DEEZZq3BeS80QfUQY0EqlpzBpaSSQFb4
kEBBXIzBVwZOQV9pRUE/DpnBYIcVQd6FS0H58JjB778CQVChFUH+oJ/BM+SjQCWN7UAdGp3BW1Ga
QBpnAUH4C4PBIuBsQUQOFUFeKLfBta16QbNS9EBtUK7BdiIOQWFUO0HG4KjBzBzWQLfiw0Aw7JTB
CiLKQDq/G0H2nJXBAXQ+QUD7SEG5u6nBlyg5QUsnZ0FplJHBe3hoQf59okGtybXBt7hJQT0fmEFq
/bzBPtt9QaJEm0EVpKbBVdR6QcWmFUHpkonBU+SAQfufAkGLqZrB+EZAQR+MhkHGAbXBcAB0QVnc
iUGTXp7Bxl1iQfPfNEE2N4nBOrlYQWQhL0E6O6vBNFcRQedtDUGp/IbBEIkhQcHk7EApAoTBFx0t
QYG+EEE6r4PBwvJBQRZB8kAxSZ3BsX5JQSvkBEHfupDBquo9QRUw1UDODZHBIiNsQNw9GUHRy6PB
CGigQMARLEFTNqbB2912QJmGJUG3t7DBYb/fQNzoB0HCV7jBPkW5QNldG0HUvLzBWT7eQADpIUFw
O7LBZEJaQSw4bEGLe6jB0tFZQTfReEF1kZvBjaYzQXJ4gkHusJ/Bjp80QeZzdEGRc6vBqhItQama
GEEphqHBV6wxQfZ1JUET4ZTBTLcTQSgRbUESDpnBwAoXQXjCYEEk76XBGVp8QO+JykDn+nnBB8S2
QBx2x0AzyH7BNYsKQbQXJkEee5HB86BeQJXFyEAZMJDBNmvZQEIr7UA6MqfBe6sbQUqw80A6p5fB
QJGWQJx2AEE4PLHBnU96QA7jhkCy/obBYM+MQCIdg0ApbJPBcvxNQaEgTEFmy5HBpY8UQbIgSkGK
/JDBUPYIQQ6pDUHb1KXBq72EQPNO9ED/zp3BjOqfQE9XB0GcgHfB2/mxQMq3BUGO+4fBvw99QOUd
B0HIzIXBAZIxQTJzc0GROI/BAoNOQULNokEJxq/BoHBbQVAEnkFy3KfB1Bk6QVOSnkGIDrLB0OVd
QXdjDEHj8ZHBFiZnQb5PBUHBkpvBDOVTQSgLlUEGLKLBoosyQUSYlUGFY6zBXiFUQa+hIEH0cJHB
tjBcQfx4JkH8Q6TBMpxmQW97EkELyaTBNk8/QZjmkEE1V6TBjNZSQWa3LUH/oJrBRBlxQcytC0Gn
6K7B4MYWQcf4OUG+U53BjcWsQNcL0EBl0JbB1qTZQHimFUHsgZvBBNJEQQqUUUGaNKHB7nMJQSYf
FEFLUn7BpN0rQQtNAEE6wILBbyOnQNb1+0AWirXBMteSQLQKIEG+1KvB3io3QSRDh0GpSZ7BOos/
QX6weUFqhaPBllEgQZFHHUGMrI/BsIYfQbknYUHI2Z/B52yKQLQUvkD6/oTBTCUOQa+4KEEow5XB
FVaGQM83u0AlQ5HB1NjGQEn6BEHjGaPBnl4YQf9HC0FQ/4fB1Oi2QJJtD0Hzsa3B3qk3QUM2ZUEy
mZ3B7MeDQFnwjUBBkJTB5HNIQbl8QUGhkZnBgjkXQXfyTkHPpZnBSo8CQdMbGUEAMJzBadikQC5J
8kA6n53B8B2LQCpC60BQaoHBAKlwQUTJF0G//rbB2Kd6QVbg80AdU6/BhAwdQaNANUGAWKbBOFTR
QDuEw0Cw+ZTBggnDQPpOH0G2EpXBiFtKQaQuUEEZmKrBFMc6QZj3Z0FBUZLBO0BUQe62qUHzFrTB
Oh5rQVs6oUFvKabBYEIwQRo3okEPJ7jB0kteQS1HAkHl8IrBCbBuQWiP60DI8JvBFtddQdJVkUFo
KJzBN/wiQYRNkkFPM67B7Y1NQbA5JkHy9InBklhbQUBiMEGcVKvB8Rj3QBv0G0FB34LBNPcDQZPg
BkGjHHTB4T0SQWXRH0HFiXTB9YA2QdP+80BdA4nBqaA0QUgDDEF9tnvB/FkmQe0k5kBbSXvB+8bA
QFxr5EDK2bbBIPyKQHLN60DJIrLBOm2eQHhsBUHgNb3BjB6eQCxuLEGiQKbBQh6KQNiAJ0E4f7PB
UFptQBn7F0EibKjB4sc8QZ6ph0H59JXBypElQbc/h0HWa57BReo5QWUWeUGC2qvB+SNRQT3ueUE4
ZqPBhDwrQQIZFkGQkZXBAwUpQUpBKUHn6YrBtm0WQQyYb0H9sp3BiWwdQSjKXUGUbKjBIwZeQK+2
rUBxSoHBuEmoQLpcrkBdfoLBu0oDQQk1MEHg7o/B3BJSQEoKzEBpu5PB6ongQDtp80AhNKXBYYYP
QWuv/kDetozBdSnSQJy5F0FWabHBTI1VQFoHgEBV+5DBYiiAQJFHjEBQgJzBMsJCQYGdREEPQpLB
K4oRQQ3bUUH+T5LBJOcKQaFYEEEZbKHBAX+GQDIw+0Ca1p7BO8iNQARS7EAf5XLBSw2kQB1H+kD6
vITBOPdfQCqw+UAMpYPBkc4yQXf9c0H564/BblBiQSJBm0EpJ7PBqIJkQTQlkUF3CrjBCRhbQaYD
nEECfqjB4LZdQcx2CkFFzJHB8I1mQfe2A0EflZvBjppfQSLJh0G5P7LBsy5WQaCqkkH/sKLB+JJT
QZaAHkFEEZHBspFaQQXVJEHG9KPBOUZlQaQHEUHJuKTBQq5YQdaGiEFHg6fB2IhRQT+5K0HaK5rB
50dvQViVCkFDB6/Bm/4UQUyhNkHD+5vB6SCxQByA1UDP+pXBI1nYQBI6F0G2VJ3BWidCQecmT0Ej
gaDBEPwJQaDoD0Fbu3vBn+YsQSWC+kDd34HBVALSQBbEGUFElbXBZ2adQORc9kDOKbXBRiRTQWMG
fUHjT6HB8D07QWQ+d0F396LBnt0fQRIQGkGdjI7BPLscQc4IXkFvmp7BzQycQOQnsEBskYTBkg4N
QbgdJUHOWJTBNMCMQFIJwUANgY/BS0rFQPZfBUGDLaTBOdkYQaawB0GC3obB2nKwQPrxDUGBn67B
/tc0QdKeYkF8w5zBLtl1QCBdnUA02pXBC9dGQSlOP0EC5JjB3TUVQUGdS0FVR5jBknEBQcopFUHx
hprBI/KlQFcD9ECvlJ3BRB6rQEDn00CzgnvBzxZuQa7GFkFjELfB7yd5Qa4W8kDPqK/BMcgaQSYZ
MkEFG6XBAmTWQArLyUCFz5TB+ILCQLZvJkFTVZrB56xGQUCKTUETBarBDWs4QZ8OZkFnkZHBbypm
QalrokEqlLfBkvNpQSqTkEG1OMDBCFRZQTrDo0HdxaTB0LZeQYVBAEE62IrBiVduQWan6ECWH5zB
tiJhQV8MgEFJBLbB7oBQQcJBk0F7jZrB8UlNQZDTI0HmeInBsD9ZQUXkLkE486rBUGf3QJJXF0FW
a4HBZR0FQeVqAkE6iHHB7JESQT3PG0HJA3LBeXk3Qd/Q7kD2RYjBe3s1QTgoCUHuB3rB8wYoQcKH
30BejHnBo7zfQKMiJ0HFALHBPZ7rQMORDkH617fBC37CQOn6H0Fc2LzBl4aFQOhe5UCuSbDBtgKO
QDl4AUEobbzB6CK3QCYe4EDFbLfBDi5dQXe4b0HUI6TBriRWQXLFf0EawJjBKFExQbhOgkEmHqDB
XFY4QX6udEEKjavBEqwqQexQE0H5npTBtncoQegvJkGm1onBW3gTQUpEbEHmSZzBPiIaQX2kWkHb
I6fB9lqBQP7Jn0BQjIDB4Hi2QHFumUBFzoXBZG4CQWleLEF1V47BqoFnQPk42UBAJ47BRyTfQH6b
9ECVa6bB0zUQQccW90CzjIvBjKaWQJwnGUGohKzB7DhGQP6Dj0AHyJHBwG1fQEScqEBEzJzBl9BB
QXtvQkFedZHBnO0PQdlfTkG42pDB00YJQeYECEGg3ZzBDu6GQLLE+kCvl57B0Oq0QHBtyEC7Zm3B
v3LDQH/S4kCkX4HBASmTQBea6EAWMHnBUUQwQUwCckF2PI/Bx6pCQQVcmkEzbr3BFCEwQVANmkGx
ArfBwxdPQRoMkUFB2r7BIbxdQeQJC0Hm2JHBZ5dmQSxkBEFppZvB6fApQVxrkEGtD7LBhOxIQTpm
h0Gv57nB0WNTQYD5HkGUF5HBPwxaQR9PJUG+AaTBug1lQaGsEUERyaTBZzA2Qd4Nh0H1mrPBxB9R
QTsvLEFnMJrBhRRvQcNeC0GdHK/B6qYUQeQ7NkFtpJvBvX+xQI1z1EDK/JXB/RnYQAzVFkGXQZ3B
5bJBQXa3T0E4cqDBpxMKQcJGD0G/e3vB8SItQdHj+UCR1IHBFGXRQPqyGUEzfbXBxzudQM7V9UBR
IrXBgHcvQUKQeUEsQq7BWoo5Qfvtd0Hv5qLB08UfQTigGUFNb47BBJ0bQS2JXUHHEZ7Bnt+cQCek
rkDGmoTBFdUMQfePJEFLJJTBK1aNQBufv0CBgo/BtCLFQDkIBUEfJaTB6PIYQZkyB0FGxobB5hCw
QFyrDUEDjK7BL8gzQZnkYkH4wpzB6GR3QEbym0B345XBailGQaelP0GW5JjB+g4VQeIAS0FHspfB
nkkBQXmyFEEkZprBpASmQIYA80ArjZ3BFrurQHle0kBCg3vBVsttQT2eF0GYH7fBBBt5QdvX80AE
x6/Bb0AaQeIHMkF51qTBLdvWQDH+yECS2pTBUzXCQAUAJkHbOprBgYBHQXmyTkFQy6nB1Bk4QSaR
ZkEyp5HBd1xHQbu8oUEIRMHBGq8mQSozoUHx47XB41ZdQeZPkUEpvMPBxOBeQZrUAEFG5orB7JVu
Qfs46kBVMpzBIdMbQYIxkEFNFa3BEIJSQZVIgEEg7rrBtR5NQWs6JEFDe4nBRmdYQXpDL0FoBavB
1WX3QAyUFkFsRIHB6l4FQUK9AUGIRHHBpZYSQThBG0H7y3HBdLQ3QVdo7kBLQYjB8qY1QdfrCEGa
+XnBN28oQcPP3kAncnnBp/feQMgPJ0EP4LDBiyXrQOGfDkFHzLfBT7nBQBnyH0E0ubzB84aFQNeM
5ECPRbDBLbCNQAM9AUGJXrzBaRy3QJXV30CccbfB6OwdQQ83eUHyj63B/Nk0QWPsa0HeH7PBOQtL
QSa+eEFouqPB8OczQcbNgkFlIp7BM4sqQUL7EkHfjJTB41soQajGJUHAu4nBdioSQeB9a0FjiJvB
SmYYQRAhWkFajabBpliCQML8nUDLloDBfXW3QNolmEAC44XBUi8CQcebK0G8FY7Ba19oQJKb10Az
HY7BahHfQPwb9ECJcabBrWIQQfz69UD3covBrSCWQOnBGEHCY6zBbAxIQJXajUCg0ZHBZaxgQK0+
p0BD0JzBtLpAQaF9QkHygJHBa6QQQcNtTUF4GpDBhSEJQeyRB0GwwJzBzvGGQPOM+UCKiZ7BLbC1
QFvUxkC5cW3BkOjDQHOM4UDqXoHBzJ+TQHTb5kD7G3nBob8vQd5FckHgMI/BgsBBQYzWoUHat7DB
C+hLQWoXn0EgBqfBTB8xQUFim0HRxrTBSstdQe4nC0GD2ZHBvZ9mQfFvBEHVo5vBtldFQZXulUHN
VqHB/4gqQcU4kkH1Ga/BpIRTQasgH0EpH5HBsThaQW1kJUGrCqTBbCRlQeSwEUFly6TBrnU0Qd+Q
j0ELTaXBlUtRQStOLEEYPJrBDilvQZlHC0GcGq/BSeQUQSckNkGj5JvB8qaxQLjC1ECb3JXBplrY
QPPZFkGIQ53Bv9BBQXrWT0Haf6DBWDEKQQm/D0HhiXvBFzctQZGK+kAaxYHBf5bRQG+CGUHwfbXB
DlWdQHSK9UCDDrXBM2EtQZbDhUH8Np/Bnug5QZmXd0GrGKPB0fAfQXXGGUEugY7BHtcbQaqCXUEK
Yp7BVQqdQC9Tr0A+bYTBwgsNQX+mJEEASJTByn6NQPAUwEBfWo/By0nFQP8BBUGyGaTBew8ZQW59
B0HSw4bB7TuwQLSRDUGFhK7BiOszQfnyYkEew5zB4qt3QHJHnEDprpXBqWxGQX7PP0H08ZjBvi4V
QWHxSkHbD5jBJ24BQdq2FEF5cZrBjSqmQGEj80BBeJ3Bae6rQAcv00DOQHvBuN9tQb1zF0F7JLfB
3yp5QVCg80DNuq/Bk4caQRjLMUHGD6XBeAHXQF5OyUCYt5TBpInCQH4RJkFYQ5rBFQNHQdipTkE8
8anBRv03QRN9ZkH0nZHBRLhGQSflqEE7CrXB6bdYQSUDpEFP9aPB4HApQbV2nUE6O7zBeedeQXT6
AEGu44rBmY5uQRM/6kDBLJzBtjhNQWPIk0G19JnBoucdQQg7jUGsPbLBxUNNQXpwJEGOhInBc6dY
QX9YL0GPD6vBgKz3QHAGF0E9VIHBtHIFQSBNAkE6OHHBlbkSQQLIG0HS8HHBV8g3QfXN7kCQKojB
yL81QQVOCUE/8XnB5ngoQUWm30CnOHnBPzXfQLrnJkE56bDBik3rQPFkDkEQx7fBMuzBQBqzH0E+
vbzBGpyFQLZi5ECsK7DBgMqNQJMIAUEUTrzB2Su3QNV030DmV7fBaGMwQRH6hkEroZbBMyscQbV6
hEE7iKDBxlg2QQD7dEFgnavBGSFLQXGhekFfGaLB+LgqQXcAE0FvlJTBDogoQVP+JUGE2YnBajAS
QaNpa0Gf95vB6AwZQdoQWkE45qbBYYKCQLTFnkD9YoDBGpy3QNLJmECUroXB1W0CQSngK0GLQ47B
mrVoQO0a2ECa/I3BFyvfQCb380DzYKbB13kQQdxy9kA4ZIvBoFWWQH2yGEEHYqzBR1RIQIBHjkDN
l5HB6O9gQIRvp0A1n5zB0CpBQSq+QkFuiJHBHY4QQXZuTUFugZDBBToJQRGIB0ELwpzBRRiHQPqu
+UAOdp7BbeS1QKfIx0AoKG3B8hzEQLhF4kBSQ4HBBdeTQFe250Du5XjBXJgvQRUtckEoK4/B

> <OMEGA_E>
PDYQP1yyBT+Ulog/Aht8P2zGkD/ClpI/

> <OMEGA_NBR>
    129071

$$$$
50209337
  -OEChem-04172616093D

 92 94  0     1  0  0  0  0  0999 V2000
    5.9264   15.3093  -18.9428 C   0  0  0  0  0  0  0  0  0  0  0  0
    6.6330   16.0816  -19.8871 C   0  0  0  0  0  0  0  0  0  0  0  0
    6.6165   14.3903  -18.1252 C   0  0  0  0  0  0  0  0  0  0  0  0
    8.0303   15.9410  -20.0090 C   0  0  0  0  0  0  0  0  0  0  0  0
    8.0153   14.2511  -18.2434 C   0  0  0  0  0  0  0  0  0  0  0  0
   14.9722   17.7187  -20.6620 C   0  0  0  0  0  0  0  0  0  0  0  0
   13.3607   17.9277  -22.4805 C   0  0  0  0  0  0  0  0  0  0  0  0
   15.0053   19.6869  -22.1041 C   0  0  0  0  0  0  0  0  0  0  0  0
    8.7299   15.0388  -19.1757 C   0  0  0  0  0  0  0  0  0  0  0  0
   13.8840   17.1865  -21.3897 C   0  0  0  0  0  0  0  0  0  0  0  0
   15.5311   18.9631  -21.0166 C   0  0  0  0  0  0  0  0  0  0  0  0
   13.9203   19.1664  -22.8336 C   0  0  0  0  0  0  0  0  0  0  0  0
    6.6443    8.7066  -14.8718 C   0  0  0  0  0  0  0  0  0  0  0  0
    6.1873    7.4125  -15.4059 C   0  0  0  0  0  0  0  0  0  0  0  0
    7.1711    9.0447  -19.6055 C   0  0  0  0  0  0  0  0  0  0  0  0
    9.5097   11.5123  -20.3528 C   0  0  0  0  0  0  0  0  0  0  0  0
    5.1474    6.6070  -18.8253 C   0  0  0  0  0  0  0  0  0  0  0  0
   12.3688   15.1641  -21.5379 C   0  0  0  0  0  0  0  0  0  0  0  0
   10.4044    8.1232  -17.5075 C   0  0  0  0  0  0  0  0  0  0  0  0
   12.0869    7.3143  -19.2091 C   0  0  0  0  0  0  0  0  0  0  0  0
    4.7062    8.2511  -22.5343 C   0  0  0  0  0  0  0  0  0  0  0  0
    4.9201   10.3773  -21.1699 C   0  0  0  0  0  0  0  0  0  0  0  0
   10.2364   14.8850  -19.3307 C   0  0  0  0  0  0  0  0  0  0  0  0
   10.7608    9.4045  -19.7154 C   0  0  0  0  0  0  0  0  0  0  0  0
    4.3120    6.0847  -16.4790 C   0  0  0  0  0  0  0  0  0  0  0  0
    6.1704    8.2374  -20.4401 C   0  0  2  0  0  0  0  0  0  0  0  0
    9.4186   10.1706  -19.6167 C   0  0  2  0  0  0  0  0  0  0  0  0
    3.9329    6.2519  -17.9628 C   0  0  2  0  0  0  0  0  0  0  0  0
   12.0450   13.8387  -20.8482 C   0  0  1  0  0  0  0  0  0  0  0  0
   10.7222    8.0090  -19.0200 C   0  0  0  0  0  0  0  0  0  0  0  0
    5.6467    9.0907  -21.6385 C   0  0  0  0  0  0  0  0  0  0  0  0
   10.5667   13.7989  -20.3881 C   0  0  1  0  0  0  0  0  0  0  0  0
    5.8775    9.8760  -14.9052 N   0  5  0  0  0  0  0  0  0  0  0  0
    7.8001    8.9257  -14.3021 N   0  0  0  0  0  0  0  0  0  0  0  0
    6.7320   10.7725  -14.2885 N   0  0  0  0  0  0  0  0  0  0  0  0
    7.8364   10.2271  -13.9423 N   0  0  0  0  0  0  0  0  0  0  0  0
   13.3831   15.9429  -20.9732 N   0  0  0  0  0  0  0  0  0  0  0  0
    4.9064    7.3253  -15.9506 N   0  0  0  0  0  0  0  0  0  0  0  0
    8.3681    9.3554  -20.2178 N   0  0  0  0  0  0  0  0  0  0  0  0
    5.0666    7.7538  -19.6026 N   0  0  0  0  0  0  0  0  0  0  0  0
   10.3146   12.4857  -19.7895 N   0  0  0  0  0  0  0  0  0  0  0  0
    3.3292    5.0019  -18.4683 N   0  3  0  0  0  0  0  0  0  0  0  0
    6.9243    6.4332  -15.3450 O   0  0  0  0  0  0  0  0  0  0  0  0
    6.9290    9.3756  -18.4467 O   0  0  0  0  0  0  0  0  0  0  0  0
    8.8645   11.7266  -21.3769 O   0  0  0  0  0  0  0  0  0  0  0  0
    6.1564    5.9058  -18.8111 O   0  0  0  0  0  0  0  0  0  0  0  0
   11.7193   15.4943  -22.5248 O   0  0  0  0  0  0  0  0  0  0  0  0
   12.3097   12.7768  -21.7694 O   0  0  0  0  0  0  0  0  0  0  0  0
   16.8759   19.6096  -20.1081 Cl  0  0  0  0  0  0  0  0  0  0  0  0
   13.2555   20.0535  -24.1824 Cl  0  0  0  0  0  0  0  0  0  0  0  0
    4.8567   15.4213  -18.8455 H   0  0  0  0  0  0  0  0  0  0  0  0
    6.1038   16.7811  -20.5173 H   0  0  0  0  0  0  0  0  0  0  0  0
    6.0736   13.7926  -17.4080 H   0  0  0  0  0  0  0  0  0  0  0  0
    8.5681   16.5247  -20.7415 H   0  0  0  0  0  0  0  0  0  0  0  0
    8.5413   13.5422  -17.6211 H   0  0  0  0  0  0  0  0  0  0  0  0
   15.3789   17.1674  -19.8271 H   0  0  0  0  0  0  0  0  0  0  0  0
   12.5261   17.5365  -23.0434 H   0  0  0  0  0  0  0  0  0  0  0  0
   15.4339   20.6397  -22.3778 H   0  0  0  0  0  0  0  0  0  0  0  0
    9.4315    8.6185  -17.3731 H   0  0  0  0  0  0  0  0  0  0  0  0
   10.3681    7.1174  -17.0637 H   0  0  0  0  0  0  0  0  0  0  0  0
   11.1884    8.7146  -17.0119 H   0  0  0  0  0  0  0  0  0  0  0  0
   12.3121    7.2334  -20.2828 H   0  0  0  0  0  0  0  0  0  0  0  0
   12.8711    7.9056  -18.7137 H   0  0  0  0  0  0  0  0  0  0  0  0
   12.0508    6.3084  -18.7654 H   0  0  0  0  0  0  0  0  0  0  0  0
    5.2284    7.3403  -22.8628 H   0  0  0  0  0  0  0  0  0  0  0  0
    3.8080    7.9729  -21.9634 H   0  0  0  0  0  0  0  0  0  0  0  0
    4.4130    8.8429  -23.4139 H   0  0  0  0  0  0  0  0  0  0  0  0
    5.5947   10.9690  -20.5337 H   0  0  0  0  0  0  0  0  0  0  0  0
    4.6272   10.9730  -22.0471 H   0  0  0  0  0  0  0  0  0  0  0  0
    4.0223   10.1031  -20.5966 H   0  0  0  0  0  0  0  0  0  0  0  0
   10.6671   15.8451  -19.6515 H   0  0  0  0  0  0  0  0  0  0  0  0
   10.6717   14.5928  -18.3637 H   0  0  0  0  0  0  0  0  0  0  0  0
   11.0035    9.2591  -20.7784 H   0  0  0  0  0  0  0  0  0  0  0  0
   11.5456   10.0109  -19.2396 H   0  0  0  0  0  0  0  0  0  0  0  0
    3.4083    5.8422  -15.9005 H   0  0  0  0  0  0  0  0  0  0  0  0
    5.0400    5.2657  -16.3823 H   0  0  0  0  0  0  0  0  0  0  0  0
    6.7019    7.3699  -20.8583 H   0  0  0  0  0  0  0  0  0  0  0  0
    9.1921   10.3568  -18.5565 H   0  0  0  0  0  0  0  0  0  0  0  0
    3.1980    7.0664  -18.0431 H   0  0  0  0  0  0  0  0  0  0  0  0
   12.6879   13.7368  -19.9615 H   0  0  0  0  0  0  0  0  0  0  0  0
    9.9432    7.3985  -19.5000 H   0  0  0  0  0  0  0  0  0  0  0  0
    6.5148    9.3916  -22.2435 H   0  0  0  0  0  0  0  0  0  0  0  0
    9.9168   13.9451  -21.2635 H   0  0  0  0  0  0  0  0  0  0  0  0
   13.8134   15.5594  -20.1561 H   0  0  0  0  0  0  0  0  0  0  0  0
    4.3553    8.1591  -15.9847 H   0  0  0  0  0  0  0  0  0  0  0  0
    8.5266    8.9969  -21.1378 H   0  0  0  0  0  0  0  0  0  0  0  0
    4.2141    8.2765  -19.5914 H   0  0  0  0  0  0  0  0  0  0  0  0
   10.7539   12.2795  -18.9152 H   0  0  0  0  0  0  0  0  0  0  0  0
    2.5351    4.7646  -17.9087 H   0  0  0  0  0  0  0  0  0  0  0  0
    3.0416    5.1308  -19.4173 H   0  0  0  0  0  0  0  0  0  0  0  0
    4.0024    4.2640  -18.4213 H   0  0  0  0  0  0  0  0  0  0  0  0
   12.2600   13.1083  -22.6583 H   0  0  0  0  0  0  0  0  0  0  0  0
  1  2  1  0  0  0  0
  1  3  2  0  0  0  0
  2  4  2  0  0  0  0
  3  5  1  0  0  0  0
  4  9  1  0  0  0  0
  5  9  2  0  0  0  0
  6 10  1  0  0  0  0
  6 11  2  0  0  0  0
  7 10  2  0  0  0  0
  7 12  1  0  0  0  0
  8 11  1  0  0  0  0
  8 12  2  0  0  0  0
  9 23  1  0  0  0  0
 10 37  1  0  0  0  0
 11 49  1  0  0  0  0
 12 50  1  0  0  0  0
 13 14  1  0  0  0  0
 13 33  1  0  0  0  0
 13 34  2  0  0  0  0
 14 38  1  0  0  0  0
 14 43  2  0  0  0  0
 15 26  1  0  0  0  0
 15 39  1  0  0  0  0
 15 44  2  0  0  0  0
 16 27  1  0  0  0  0
 16 41  1  0  0  0  0
 16 45  2  0  0  0  0
 17 28  1  0  0  0  0
 17 40  1  0  0  0  0
 17 46  2  0  0  0  0
 18 29  1  0  0  0  0
 18 37  1  0  0  0  0
 18 47  2  0  0  0  0
 19 30  1  0  0  0  0
 20 30  1  0  0  0  0
 21 31  1  0  0  0  0
 22 31  1  0  0  0  0
 23 32  1  0  0  0  0
 24 27  1  0  0  0  0
 24 30  1  0  0  0  0
 25 28  1  0  0  0  0
 25 38  1  0  0  0  0
 26 31  1  0  0  0  0
 26 40  1  0  0  0  0
 27 39  1  0  0  0  0
 28 42  1  0  0  0  0
 29 32  1  0  0  0  0
 29 48  1  0  0  0  0
 32 41  1  0  0  0  0
 33 35  1  0  0  0  0
 34 36  1  0  0  0  0
 35 36  2  0  0  0  0
  1 51  1  0  0  0  0
  2 52  1  0  0  0  0
  3 53  1  0  0  0  0
  4 54  1  0  0  0  0
  5 55  1  0  0  0  0
  6 56  1  0  0  0  0
  7 57  1  0  0  0  0
  8 58  1  0  0  0  0
 19 59  1  0  0  0  0
 19 60  1  0  0  0  0
 19 61  1  0  0  0  0
 20 62  1  0  0  0  0
 20 63  1  0  0  0  0
 20 64  1  0  0  0  0
 21 65  1  0  0  0  0
 21 66  1  0  0  0  0
 21 67  1  0  0  0  0
 22 68  1  0  0  0  0
 22 69  1  0  0  0  0
 22 70  1  0  0  0  0
 23 71  1  0  0  0  0
 23 72  1  0  0  0  0
 24 73  1  0  0  0  0
 24 74  1  0  0  0  0
 25 75  1  0  0  0  0
 25 76  1  0  0  0  0
 26 77  1  0  0  0  0
 27 78  1  0  0  0  0
 28 79  1  0  0  0  0
 29 80  1  0  0  0  0
 30 81  1  0  0  0  0
 31 82  1  0  0  0  0
 32 83  1  0  0  0  0
 37 84  1  0  0  0  0
 38 85  1  0  0  0  0
 39 86  1  0  0  0  0
 40 87  1  0  0  0  0
 41 88  1  0  0  0  0
 42 89  1  0  0  0  0
 42 90  1  0  0  0  0
 42 91  1  0  0  0  0
 48 92  1  0  0  0  0
M  CHG  2  33  -1  42   1
M  END
> <OMEGA_C>
PaW9QL3ydEHeipfB5kHUQCqngEHdGJ/BobrTQJg+ZkFiAJHBFHwAQYcOf0FgEqDBzz4AQaEEZEFm
8pHB9o1vQfu/jUGyS6XBfsVVQe1rj0Ee2LPByBVwQc1+nUFF1bDBpq0LQfSecEHZZ5nBqyReQe99
iUEeHqvBXX94QXi0l0EEIqjBrrleQbZUmUEjq7bB1Z3UQEFOC0Hk8m3BfP7FQNcy7UC/fnbBZnnl
QPG2EEEK2JzBzCcYQU8yOEGW0qLBirekQKNs00A4mpbBieZFQS2gckGYTazBlHgmQaH4AUFjD4zB
FmRBQXMO6kBOrJnBgpmWQFgEBEFERrTBEXGdQIYJJkEAXKnBdsgjQRQpbkFBpZrBUCwsQal4FkEO
uZ3BufuJQLa1wkD81IPBtHPFQIbMA0FmhaPBcbIWQZy6IkEW75zBsrR7QDcPyEDWs4/BN7hAQR9r
XUEayabBEY4rQfwkAEH3KJjBzLG0QIFzEUG3G63BDhEpQRrIXEHSGqPBzBS8QDIEHkGZe27BCpr5
QIPPDkGZ1WTBW2zXQEZcLEGbnWTBD8T6QEGiI0F2E1/BTiFWQQEWf0E2yafB1QCdQAxp6kB2NX/B
juMFQbCvFUEWvqHBpSGiQEUf+EAY0pzBrwglQZPFR0HlUJ7B+xFVQKEPoEALv5PB2JPdQLjczUAa
hXXBprrdQHkCFkHWkpPB/dQNQfqfO0HWA6vBCAHFQGn8vEAVfZbBTII7Qc/od0HgMrTBl/REQaNt
TEG+J67B3wGHQW/gnEFg3aDBshZUQXhtoEGfdcHBzWmbQJm9dkGIw5bB81HDQJs/hkFWI6TBrVrC
QHSuXEGVQ4vB4BYJQZAyhEGE7qXBCqkIQeesWEH694zBBhB2QeJWiUHknZ7B6GpIQcNKjEHOWLjB
dfF2QQ8epUHUBbPBdecWQWzlCUEN/IrB1uMlQZTB40BggojBuQMzQQNvC0FfGIjBhf5EQQJ450Ap
Q6LB2O9NQaH6/ECZtZXB9M9AQS7eyUCZH5bB6U6nQMrj6kD55rbBCrdzQDwi/0Afta/B8jaNQF98
DUHBT7vBqgezQBuBL0EJRaTBuBGUQGWRL0FnYLDBS7aAQCSmIUHFxaTBQ6wqQWOFfUE4Np3BVr8q
QQ18aUHL6JLBbQ4wQWslFEEWOqbB8bo4QZUsIEHL6pnBSyJaQG3zukB2aH7BeUehQO2AqEDuDoPB
GnbWQGLW60Db3abB5RITQWS1JUHIc5TBi6xMQBog4kBWWJDBrgFLQb/JW0EgsZ/BPBcfQcDA7EAR
AJzB4njQQPJDFkGh8rHBEqseQQAfX0GOG6rBswNdQTXzeEGcP6HBWF6LQJGLAkFGwX/BJW0IQTTz
D0EnGqnBPNqGQHVsBEE5u5zB/w8sQaJ4REE+UpfBVD8iQPJ3mEAVRY/BrqlCQGkvpECrVpvB8ROA
QE5yiEDMXpPB5ShEQZi7UUEtRLXBsgSqQElmZkGXEarB3hzHQLtsdEFmE6/BDCG2QKdXW0GGt6DB
KU7wQK5hd0ELvarBJVbfQD9AXkHQXpzBA4GEQf54XUG0baLBFzN2QaPbQEHpyKvBaZmOQXVBQUEF
YKvBLW38QFJ6bEEoUaHBSYl1QXD5U0GNq6XBsmCOQWkrVEEnQqXB+/KEQdilN0Hen67BNHzSQJHb
CUGzpm3BKYjFQEIk6kCjqXbBaVrjQMg2EUHlp5zB8tYVQQtjOkGCMaLB65qlQPxU0UCw1JbBxEhN
QcGyWEEymKTBcswlQbnUA0HY6YvBOzpBQUjq8EB5oJnBJNCVQDubA0EOSbTBQKiZQMFEJUHiEanB
cIYUQeCtb0E8yJzBPtQqQXVAGUE7V53BpUaLQBIYvkAhLYTBgHvEQF7WA0FfeaPB5eoUQd+xJEFs
fpzB+Th+QH3vw0CqB5DB+AY8QeBwZ0Hts5/BYv0qQdOxAkGaBZjBXa2yQCNkEUFT+qzBX7skQcHu
X0G+3aHB5364QKsTHEHNz23BYCL3QK3jDUF6amTBS6XSQL26KkEGmWPBuqL2QNiWIkHiNF7BlpJi
Qds8XkHegaLBw7acQMsi5kChdX/B+5cEQdxHF0E2faHBs7WhQE1h9kAG35zB95chQe90SkFhU53B
EMxaQGmPm0ATS5TBJVHeQOi2y0DU/HXBNSbbQKvsFUHGVJPBhS8MQSiBPUFsnqrBmLfGQPEgvEA5
zJbBkCdIQS5xSUElN6rBodA/QcbPaEGvb5TBTVmaQZcUYEHvL6HB/RmFQZAxIEHhNbbBY3OKQNof
ZEF5Za3BddS9QKTnfEG4PLbBBsufQNSfUEFd4JzBwVUDQbcBgUHNoK7BZLHoQCidVUEUQ5XBVmCE
QbT8a0HlvZ3BaHVnQYtWOUHBRa7B9SiWQcUiOkGTka3BEvIVQS0hC0HExorBzcwlQeQq50Cyh4jB
MPgxQXWVDUHy1YfBZuZEQV1Q70BMOaLBZ2dNQUg1AkFJjZXBBDxBQYtq0EAJP5bBscOnQN8B60DC
CbfBoeJyQAvC/ECIx6/Bia6LQFYhDUEcPbvBG1iuQKsCL0F64KPBEYiPQDzXLkHQAbDBsJV6QOwW
IEE8jKTBHbsZQcEVgEE7a57BgBQUQa4CbUE2FpTB9eIuQdhuF0Hz2qXBCPs2QTM+I0EcZZnB7jld
QJXetECdPH/BqIqjQPi7pECbgoPB7avWQALW7ECa5qbBZBkRQZRAJ0HI/5PBXz5NQPgg3UAAkZDB
x+g9QeNmd0EvSqPBbOceQd9K8UBX+5vBnxHOQO/3FkHkv7HBNRIiQaOBX0H7j6rBcJRkQUx1a0FK
HZ7B8Q+KQNgQAEFgwH/By08HQcEfEkF28KjBTtSFQH8JA0HPt5zBVGMoQWo+R0FkQ5bBhngoQBak
kkDy4Y/BCExIQI3wn0CC35vBi9ODQDTDhEA8A5TBIlw1QSfTcUEoQZHBquUVQeqQdEGclHDBt2kJ
QRatY0GI1XjBkroeQYP4gUEJhH7BGNcFQRwUYkELhofBGvYaQTxCgUGeV4rBIYhCQZ9kaEHypMTB
sB9dQRLUU0HLvbrB+5pfQSONVkEKJs7BIowOQXCNcUErh47B82xKQY2zYEEExbrBcRJNQfhbY0FG
S87B65NnQeTPTkH9W8TBZYDUQEyfCkHYA27BBiHGQBoB7ED24HbBnJDkQAyDEUHe55zBkO4WQca2
OUEndaLB7oOkQDLk00Dg3ZbBhuJCQVazYEH52abBc0cmQYCbAkHnY4zB3TJBQXMX7UDcM5rBKxmV
QJIkBUFGRLTBgZKbQBHUJkHQFanBuW8LQSmFb0G4jprBlrErQcAMGEGf0J3B90yKQH2dwUCUIoTB
tIvEQJKhBEE5nqPBLQ8WQarpI0HN4pzBecJ7QL+2x0AJ94/BBuYzQXM1akFrWp7BUk0rQWdvAUES
hZjBeCezQFWAEkEEDq3BScYcQZCGYUGODaDBWaK7QBc7HUExI27BD4z5QEAiDkHY9mTBWd3WQNWG
K0FZH2TBJ2/6QLbcIkGq2l7BbjU/QSyeZkG6frHBEhCdQNoq6UCagH/Bv0cFQeEMF0Hn2aHBuYmh
QAoI+UD66JzB4HMbQYtfS0G+JZzB0ZtVQEvXn0CFKJTBkv3dQLfXzEDVPnbB4g/dQKdNFkGvjZPB
8vcTQWpHO0HtJKzBD/XEQFKtvUDZ55bBOIdRQbHkVEEJDaTBEcE7QcMLZUEP35PB/jlDQaEMbUGu
cdrBT5Z+QbH8PkHrCMTBNrEYQSS4dUEukV/Bs5UCQfr0V0GYIG7BHmEoQUlniEEMMnjB3OP4QEAG
VUHDrorBr5IhQY81h0HKqY/Br080QZE0ckFxzMTBB11jQWjXTUHTQrPBGa9nQS+tUkFUidXB1aoW
QQ9fCkHfMIvBQdMlQQSr5EDVC4nB3MgyQUPyC0HKUojBLMNEQbpt60Btz6LBW7RNQeXE/0DKIpbB
wb5AQWOLzEDV25bBSAemQMqB7UCDDbfB4TxxQP9hAEHQrK/ByEGLQPzKDkHZM7vBzB+xQFw/MEG2
9qPB/72RQFGJMEF1ALDBUDV+QFUgIkFseaTBj1v3QJlHaEFxD5zBefALQRWgf0H/GJ7BIKQvQW0z
FkE8V6bBeRo4QZ66IUEo4JnBbRhbQBZFuUC5A3/BldahQO+Pp0BdgoPBCrTVQLfh7UDZG6fB+WkS
QYldJkFTXZTBTEZMQP6f4UAtdpDBAYozQeWue0EbY5/BdeIeQSmI70CKdZzB1qbOQIWhF0HI6bHB
WYoZQVKdYUH3s6jBzdEyQVt4cEFNqbLBNS+LQO3ZAUGJwH/BCrAHQZfmEUFKVKnBNSqGQHDKBEGH
r5zBKwIeQdDcSEG/WZTBGRsjQKq5l0DCro/Bzs5CQAJrpEAeuJvBhIyAQF9iiED26ZPBJxZIQeQ+
XEE7fJTB

> <OMEGA_E>
oRSIPwUVlD9uVpU/

> <OMEGA_NBR>
    133603

$$$$
50144558
  -OEChem-04172616093D

 42 44  0     0  0  0  0  0  0999 V2000
    5.6445   -1.2736  -20.8273 C   0  0  0  0  0  0  0  0  0  0  0  0
    6.4478    8.6670  -24.0017 C   0  0  0  0  0  0  0  0  0  0  0  0
    6.2002   -1.3397  -22.1206 C   0  0  0  0  0  0  0  0  0  0  0  0
    5.6322   -0.0483  -20.1331 C   0  0  0  0  0  0  0  0  0  0  0  0
    7.4291    8.3090  -23.0545 C   0  0  0  0  0  0  0  0  0  0  0  0
    5.8024    7.6694  -24.7601 C   0  0  0  0  0  0  0  0  0  0  0  0
    6.7347   -0.1812  -22.7228 C   0  0  0  0  0  0  0  0  0  0  0  0
    6.1616    1.1119  -20.7364 C   0  0  0  0  0  0  0  0  0  0  0  0
    7.7712    6.9537  -22.8702 C   0  0  0  0  0  0  0  0  0  0  0  0
    6.1357    6.3138  -24.5694 C   0  0  0  0  0  0  0  0  0  0  0  0
    8.5126    2.2473  -23.3013 C   0  0  0  0  0  0  0  0  0  0  0  0
    6.7025    1.0592  -22.0438 C   0  0  0  0  0  0  0  0  0  0  0  0
    7.1207    5.9527  -23.6235 C   0  0  0  0  0  0  0  0  0  0  0  0
    7.2814    2.2681  -22.6873 C   0  0  0  0  0  0  0  0  0  0  0  0
    6.6419    3.6072  -22.7924 C   0  0  0  0  0  0  0  0  0  0  0  0
    7.4553    4.5347  -23.4087 C   0  0  0  0  0  0  0  0  0  0  0  0
    5.3248    4.4024  -20.8019 C   0  0  0  0  0  0  0  0  0  0  0  0
    3.9814    4.4496  -18.7686 C   0  0  0  0  0  0  0  0  0  0  0  0
    5.2634    3.9424  -22.2599 C   0  0  0  0  0  0  0  0  0  0  0  0
    2.8163    4.1555  -18.2671 N   0  0  0  0  0  0  0  0  0  0  0  0
    4.1642    4.2301  -20.0482 N   0  0  0  0  0  0  0  0  0  0  0  0
    4.8984    4.9349  -17.9747 N   0  3  0  0  0  0  0  0  0  0  0  0
    6.3556    4.8945  -20.3481 O   0  0  0  0  0  0  0  0  0  0  0  0
    8.9593    3.8190  -23.9083 S   0  0  0  0  0  0  0  0  0  0  0  0
    5.2293   -2.1595  -20.3700 H   0  0  0  0  0  0  0  0  0  0  0  0
    6.1907    9.7059  -24.1461 H   0  0  0  0  0  0  0  0  0  0  0  0
    6.2169   -2.2797  -22.6521 H   0  0  0  0  0  0  0  0  0  0  0  0
    5.2170    0.0033  -19.1375 H   0  0  0  0  0  0  0  0  0  0  0  0
    7.9190    9.0735  -22.4698 H   0  0  0  0  0  0  0  0  0  0  0  0
    5.0525    7.9442  -25.4871 H   0  0  0  0  0  0  0  0  0  0  0  0
    7.1713   -0.2419  -23.7087 H   0  0  0  0  0  0  0  0  0  0  0  0
    6.1542    2.0474  -20.1968 H   0  0  0  0  0  0  0  0  0  0  0  0
    8.5310    6.6814  -22.1526 H   0  0  0  0  0  0  0  0  0  0  0  0
    5.6373    5.5496  -25.1474 H   0  0  0  0  0  0  0  0  0  0  0  0
    9.1274    1.3644  -23.3956 H   0  0  0  0  0  0  0  0  0  0  0  0
    4.8296    4.7475  -22.8711 H   0  0  0  0  0  0  0  0  0  0  0  0
    4.6267    3.0479  -22.3264 H   0  0  0  0  0  0  0  0  0  0  0  0
    2.6394    4.3024  -17.2939 H   0  0  0  0  0  0  0  0  0  0  0  0
    2.0985    3.7827  -18.8551 H   0  0  0  0  0  0  0  0  0  0  0  0
    3.3665    3.8950  -20.5497 H   0  0  0  0  0  0  0  0  0  0  0  0
    5.8030    5.1620  -18.3355 H   0  0  0  0  0  0  0  0  0  0  0  0
    4.6958    5.0793  -17.0061 H   0  0  0  0  0  0  0  0  0  0  0  0
  1  3  1  0  0  0  0
  1  4  2  0  0  0  0
  2  5  1  0  0  0  0
  2  6  2  0  0  0  0
  3  7  2  0  0  0  0
  4  8  1  0  0  0  0
  5  9  2  0  0  0  0
  6 10  1  0  0  0  0
  7 12  1  0  0  0  0
  8 12  2  0  0  0  0
  9 13  1  0  0  0  0
 10 13  2  0  0  0  0
 11 14  2  0  0  0  0
 11 24  1  0  0  0  0
 12 14  1  0  0  0  0
 13 16  1  0  0  0  0
 14 15  1  0  0  0  0
 15 16  2  0  0  0  0
 15 19  1  0  0  0  0
 16 24  1  0  0  0  0
 17 19  1  0  0  0  0
 17 21  1  0  0  0  0
 17 23  2  0  0  0  0
 18 20  1  0  0  0  0
 18 21  1  0  0  0  0
 18 22  2  0  0  0  0
  1 25  1  0  0  0  0
  2 26  1  0  0  0  0
  3 27  1  0  0  0  0
  4 28  1  0  0  0  0
  5 29  1  0  0  0  0
  6 30  1  0  0  0  0
  7 31  1  0  0  0  0
  8 32  1  0  0  0  0
  9 33  1  0  0  0  0
 10 34  1  0  0  0  0
 11 35  1  0  0  0  0
 19 36  1  0  0  0  0
 19 37  1  0  0  0  0
 20 38  1  0  0  0  0
 20 39  1  0  0  0  0
 21 40  1  0  0  0  0
 22 41  1  0  0  0  0
 22 42  1  0  0  0  0
M  CHG  1  22   1
M  END
> <OMEGA_C>
X5+0QPYDo79jnqbBdVTOQAusCkF4A8DBt2fGQG57q7/z9rDBIju0QBioRb2pEKHB1brtQIDxBEG3
b7jB6Ky5QPhr9UClFMbBX4LXQFiTOb5JyLXBlSvFQDRRjj8U5KXBh634QNKE3kAw9rbBiVfEQJUK
ykA1jsTBiTMIQQPUD0ADabrBqHrWQLSShz+vWbDB29zjQNN8vkDx/LzB2ADpQFIpEUCTf7XBa4rU
QLfbZkDhVrbBH5LuQC4ckUD2RLvBGmWqQDDgjEBFaqbBvc5+QPNijkAkJpbBpW2oQKFQfEAyFLLB
hD40QM75hED1IpLBzECFQJ5ch0C/YqDBEcCcQMrqnUAdzI/BdGHLQAygnEDxyKLBZ1kPQbtpdEA+
RL/BlFanQL81CsDa9aLB7hnGQJFLG0FQK8HBN/HGQE3mEcCYN7XBUPGmQLVyVjuWGZnBF2j9QP0s
EUEzwrPB3K2hQJY2/kCj5cvBKnvlQNi0d75+q73BL+/EQEkIA0ALk6HB5n4IQfrN1UCLOLHBFGW0
QB6WsUDYLcnB+wkSQSmmrj8sKrvBKoyaQKXrl0AZ+LbB6Q2UQHsQQ0B6nLLB3+soQCKtiUDXWYrB
Rk0GQHoYckAx15bBSnRXQD9IeUC5ZaTBKrK5QA4vpUAlr5LBNESWQKSJokCEDIjBTTrNQFkpCkFd
3L/Br3W2QBqurb8jBafBLyK5QDIA9EBm6cXB8oDsQMKxBEGrNLjBjeu0QKCxFL7zSKHBaUTIQJwm
sb8+YLHB3EfEQGq/yEDwTcTBqwX4QNwu3kBfq7bB4bjEQL42hT/U8aXBvj/YQHhBTb7nBrbBvDEL
QSpVf0BiUr7ByOLjQF20vUAps7zBMwHWQFwRgz9qa7DBoOjvQMp3kEANGLvBHizUQFARYEDy/LXB
MEPnQOhKEEBNcbXBogKqQOxbjUCGdqbBTZl+QMiSj0ApK5bBWROoQDqDdUCXyLHBRu80QIvzhEAY
FpLBq5qEQHK0iUBAdqDB9MqcQGbqnkCA1Y/BqqbLQJ+xm0BA1qLBVcgMQYdVEkAqgrvBzqvEQAO5
GkF1FsHBTgaqQFPREMBgfaPB1jChQMVc/ED/x8vBvan7QGsQEUH/grPBRaCnQLKE/r2/T5nBI63J
QFMRFMCqwrXBC6K0QCQAsEAI5cjB1iMIQfDs1UA637DBe6PDQAe0+z+dgKHBGkjmQPK9a75J673B
Zr8XQT/qkUAqH8LBSyCZQA1dkkCiIrfBJJ+UQNLZOkBzprHBGG4qQDaaiEBtP4rBU90GQPRIckAk
ypbBqrFUQC2GgUBEjaTBt265QN3xpkDdyJLBQ7uWQK+hokCwCIjBUY3NQKNACkGupb/B+LK1QPCp
q7+p7qbBRLu4QEpi9ED5nMXBgKPtQIemBEEqO7jBPZ3HQHDsr7+cRrHBGp60QADKBL4AMKHBgMLD
QEIJyUC0GsTBPyX5QFgH3kAG1LbBxQPYQGbcSL7/67XB39zEQMZ/hj8X16XBZlILQRVxf0BpNL7B
qRLkQCS3vUA2trzB6xfWQLuwgz/nUbDBfOXvQMZmkECmIrvB+A7UQPHcX0CUDrbBO2TnQJdiEEA+
YbXBD6qpQMIHjUDVi6bB3a1+QGA5j0ANL5bBHNGnQDnpdEAn4bHBN5g1QHA+hEBF/5HBUGmEQIwe
iUAwe6DBTsucQJo5n0Bb8I/BmSzLQMbmm0Cc+6LBDvwMQfmeEkAKTLvBk+3EQIXWGkHLwcDB79So
QGB/D8BBa6PBaVOgQDr4/EB1V8vBpG39QN7xEEE6nrPBucjIQEmAE8Cap7XBYFanQP6F1r2eNpnB
nXuzQLdvsEBAm8jB7w8JQZOV1UAtPrHBQh7mQEQtbL4Lzr3BHCnEQLPz/D+tY6HB1u0XQUEDkkBb
8sHBSdCYQCMGkkCEO7fBIXqUQKsYOkABw7HBvoMrQMogiEArKIrBrYwHQODab0BNn5bBC0hUQMiJ
gECWg6TBFTW5QFicp0Cm9pLBf+2WQGwWo0BNIojBihW0QA7lpb96v6bBd0zPQLTBCkFuUr/BJ3ez
QPDZkr1KLqHBofvFQKfSrb8UFbHBHG3vQIyQBEEjCbjBA7a5QONO9kCaa8XBs1zEQHWsiz8t+qXB
IRDXQJLWSb4A3rXBuBf6QKCN3UD93bbBQf3DQMCuykA/K8TBaiUIQR7oDkA0RLrBruDVQJNbhT8B
a7DB+iLkQCEwvkAd3LzB9JHoQCQbEECXhbXBnh/UQEjEZUCwbrbBJ1fuQA6SkEACT7vBXVeqQH+G
jEC2f6bBOqx/QCIXjkDJJpbBSxioQHpHe0DaJLLB+6ibQIn6oUC2I5DB09qFQMGqhUAKUKDBSiU3
QMF2gkAR7ZHBwtvKQELLnUBuCqPBzV8PQdRtc0CIG7/BTeKmQOLNC8CuG6PB5DjHQJJ1G0FyO8DB
xgmmQA8cvLyoOpnBy6DGQBT9EsATWrXBY+D/QKGFEEGdWLPBCUuhQB7V/0BODcvBLu/DQNyrAUAz
p6HBkCPlQBd/gr6bvr3B+4oJQWIn1EDLYbHBWEazQGHGskBOzcjBAg4SQc8HrT+O6brB/BuaQM1S
l0CjCrfBuLiTQJX/QUDZn7LBzeOUQOf3p0Afd4jB37m3QAk2q0BSNpPBI/NZQHIrcUC7IqTBAiIL
QBZkZ0DQaJbBRHQrQHZNiECCMorBOj20QClTob8+n6bBbdTNQA63CkEWGsDBwPCzQOhlEL1OEaHB
YC7GQDgcqr8t87DBBtu4QKNk9UA3D8bB2t3tQGsSBUFfrbjBoR7FQF+ejz/H4KXBnXDXQOd8ML4s
w7XBnqvDQLAMykBwiMTB9RL5QI/T3kARO7fBrkgIQaRqEEBXV7rBlHnWQCi5iD9VVbDB9b7jQA+m
vkDvF73BNhDpQEOsEUCxe7XBs4jUQFBFZ0DnXrbBFoTuQHRMkUCxU7vBdpSqQAajjEBKYKbBYcd+
QAJmjkBqJZbBR3uoQNqofEABErLB/DY0QJjahEDFJ5LBXVGFQGprh0BlYaDB25GcQBU3nkBZyo/B
FtTLQOCPm0BLraLBd2gPQUbzdEBzOb/B8cKmQC4+CcB++qLBIFzFQChRG0FoOcHBbIqmQOrhlDxs
HZnB8LjGQCxBEcB+MbXBCICgQKkQ/kAKy8vBEdb9QDVaEUEBGLTBjQnFQF+kA0BhjaHBGHrlQC9D
cL5TpL3BWmqzQNx/sUCUDsnBe/0IQXdD1kDqorHBrisSQXQDsD8WC7vBtaKaQFRMmEAB5rbB9AaU
QJKOQ0DRp7LB6Z4oQEiriUBfYYrBKYoGQHhqcUB+3ZbBH35XQMH0eUB9a6TBlnO5QAXCpUBMrJLB
sgWWQEHHokAQC4jB+AO2QF+Bsb+TBKjBKxrMQA3eCUF8s8DB7EbLQEUq9r5SMqHBKf6wQLbLir/c
97LBYWHdQFIdBEETrrbBcWTEQHcW9ECEg8jBKKzbQPavOT/OVKXBHx3BQIA5AT4qGbfBpQHnQNQU
3UAVeLTBAP3NQFjryECJT8bB5tMIQfNtFUCnWrjBBWDWQCMahD9eRLDBxS7fQCFuvUD6RrzB4mDo
QDZKEUBum7TBETrRQIaKY0DPnLXBQtvqQKLfkEBGJLrBdnieQAVHfUDxE6bB3LWhQAVotUC6+ZfB
J7CiQDyPcEAeQrLBlEqnQMcW3kDlA5bBN2OkQHAvqEC196HBGrWZQED6m0Ba54/B/EmXQLvgPkCZ
YqDBhNwOQVPUekC/Ib3BTpCpQOsMFMBN2qTBKsTEQB1pGkHsZMLBZfzOQFovNr+wzpjBFcugQKXn
47+/L7jBkTrjQPk+EEEWtLDBCCS3QKDw/EAqLtDBAUjsQPoPtT9jIqDBLTS9QJpuuD7neb/BtVn0
QMU/1EChz6zBuzDIQLuqsED+SszB/uITQVmjwD8RVLjB7viVQAW8lEA4WbbBcgWQQDr1N0AboLTB
RWalQPwA6UCGgo7Bf3StQIZQ8kAkBZzBU5irQHmzvkDvW6fBtT+VQJNfeUBfJ5HBtAyYQIjVp0AU
fIjBlcXKQCh4CUHEcsDBQi+3QMT/tr9YHajBtX7DQOhB80DhRsjBKqzcQIzUA0HNerbB/aGxQC7l
j79PC7PBxvDLQLE/A79oSqHB1zLOQC5JyEAKJsbBCWnnQCC33EDHV7TBhrbAQMJozT1dJ7fB2Djb
QJ1vNT+tZqXBHYUKQcDwgUBrmbzB7yLgQOIIvUCNLLzBQlnVQBVcgj+uULDBJdXsQMOvkECKG7rB
lg/RQEhNXkDeb7XBG2vmQLBAEUBhorTBN2ieQAOCfEBT/qXBfW2iQFbRtUAWH5jBp5GiQMM9bEA3
HbLB4qaoQL183kA8RpbB6dmkQJwJqEBnFKLB3QqaQLjynEA49o/B0tWWQHFWP0BWIKDBIVgNQc51
GEALY7nBf6DCQGjwGUGrFsLBG4arQI1/F8C196TBt7m1QK3t+0A15s/BZSXiQL74D0FtfLDBINKh
QFAb6r9GQ7jBAh3QQBAxP7/B65jBj6/IQGkAsEC+I8zBujD1QOcP1EBvuKzBSnu8QIOsqz4nhb/B
AmvrQHwotD9JNKDBO/sWQbpTlUChHMDBrM2VQBr0kUBVdLbBvOaPQIP3MkB4NrTB8PGmQBHD6UCu
zI7Bnh+vQKNY8kDPVZzBTjmsQAoivkCrkKfB9RCVQH9Xe0BPG5HBoZyYQD45qUAelYjB

> <OMEGA_E>
iPa3PggouD6Izrg+IB+9PjB5tz70DW4/AKpuPw==

> <OMEGA_NBR>
      5524

$$$$
50144574
  -OEChem-04172616093D

 52 54  0     0  0  0  0  0  0999 V2000
    6.4222    8.5976  -23.9992 C   0  0  0  0  0  0  0  0  0  0  0  0
    5.7820    7.5827  -24.7390 C   0  0  0  0  0  0  0  0  0  0  0  0
    7.4161    8.2652  -23.0562 C   0  0  0  0  0  0  0  0  0  0  0  0
    6.1373    6.2346  -24.5371 C   0  0  0  0  0  0  0  0  0  0  0  0
    7.7811    6.9190  -22.8619 C   0  0  0  0  0  0  0  0  0  0  0  0
    6.1019    1.0925  -20.7601 C   0  0  0  0  0  0  0  0  0  0  0  0
    6.7777   -0.1650  -22.7366 C   0  0  0  0  0  0  0  0  0  0  0  0
    5.5659   -0.0741  -20.1953 C   0  0  0  0  0  0  0  0  0  0  0  0
    6.2496   -1.3360  -22.1702 C   0  0  0  0  0  0  0  0  0  0  0  0
    8.7355    3.9796  -23.7469 C   0  0  0  0  0  0  0  0  0  0  0  0
    7.1420    5.9026  -23.6015 C   0  0  0  0  0  0  0  0  0  0  0  0
    6.6874    1.0565  -22.0433 C   0  0  0  0  0  0  0  0  0  0  0  0
    7.5172    4.5007  -23.3871 C   0  0  0  0  0  0  0  0  0  0  0  0
    6.6401    3.5046  -22.7488 C   0  0  0  0  0  0  0  0  0  0  0  0
    5.6339   -1.3035  -20.9035 C   0  0  0  0  0  0  0  0  0  0  0  0
    7.2443    2.2678  -22.6563 C   0  0  0  0  0  0  0  0  0  0  0  0
    5.3040    4.4041  -20.8032 C   0  0  0  0  0  0  0  0  0  0  0  0
    3.9685    4.4937  -18.7624 C   0  0  0  0  0  0  0  0  0  0  0  0
    3.2865   -3.8775  -17.4450 C   0  0  0  0  0  0  0  0  0  0  0  0
    5.2529    3.8421  -22.2308 C   0  0  0  0  0  0  0  0  0  0  0  0
    4.1324   -3.8885  -18.7225 C   0  0  0  0  0  0  0  0  0  0  0  0
    4.4433   -2.4558  -19.1520 C   0  0  0  0  0  0  0  0  0  0  0  0
    2.8092    4.2004  -18.2465 N   0  0  0  0  0  0  0  0  0  0  0  0
    4.1404    4.2671  -20.0430 N   0  0  0  0  0  0  0  0  0  0  0  0
    4.8916    4.9857  -17.9796 N   0  3  0  0  0  0  0  0  0  0  0  0
    6.3495    4.8668  -20.3520 O   0  0  0  0  0  0  0  0  0  0  0  0
    5.1480   -2.5011  -20.4091 O   0  0  0  0  0  0  0  0  0  0  0  0
    8.8391    2.2896  -23.3592 S   0  0  0  0  0  0  0  0  0  0  0  0
    6.1508    9.6313  -24.1550 H   0  0  0  0  0  0  0  0  0  0  0  0
    5.0198    7.8384  -25.4601 H   0  0  0  0  0  0  0  0  0  0  0  0
    7.8977    9.0433  -22.4825 H   0  0  0  0  0  0  0  0  0  0  0  0
    5.6417    5.4555  -25.0972 H   0  0  0  0  0  0  0  0  0  0  0  0
    8.5499    6.6653  -22.1470 H   0  0  0  0  0  0  0  0  0  0  0  0
    6.0662    2.0217  -20.2108 H   0  0  0  0  0  0  0  0  0  0  0  0
    7.2536   -0.2016  -23.7054 H   0  0  0  0  0  0  0  0  0  0  0  0
    5.1011   -0.0375  -19.2211 H   0  0  0  0  0  0  0  0  0  0  0  0
    6.3158   -2.2692  -22.7098 H   0  0  0  0  0  0  0  0  0  0  0  0
    9.5279    4.5477  -24.2114 H   0  0  0  0  0  0  0  0  0  0  0  0
    3.0664   -4.9116  -17.1414 H   0  0  0  0  0  0  0  0  0  0  0  0
    3.8415   -3.3701  -16.6422 H   0  0  0  0  0  0  0  0  0  0  0  0
    2.3441   -3.3425  -17.6340 H   0  0  0  0  0  0  0  0  0  0  0  0
    4.7970    4.5923  -22.8937 H   0  0  0  0  0  0  0  0  0  0  0  0
    4.6391    2.9293  -22.2332 H   0  0  0  0  0  0  0  0  0  0  0  0
    5.0738   -4.4247  -18.5320 H   0  0  0  0  0  0  0  0  0  0  0  0
    3.5764   -4.3971  -19.5238 H   0  0  0  0  0  0  0  0  0  0  0  0
    3.5063   -1.8920  -19.2713 H   0  0  0  0  0  0  0  0  0  0  0  0
    5.0707   -1.9677  -18.3917 H   0  0  0  0  0  0  0  0  0  0  0  0
    2.6424    4.3529  -17.2724 H   0  0  0  0  0  0  0  0  0  0  0  0
    2.0859    3.8225  -18.8245 H   0  0  0  0  0  0  0  0  0  0  0  0
    3.3313    3.9548  -20.5408 H   0  0  0  0  0  0  0  0  0  0  0  0
    5.7923    5.2126  -18.3500 H   0  0  0  0  0  0  0  0  0  0  0  0
    4.6974    5.1352  -17.0101 H   0  0  0  0  0  0  0  0  0  0  0  0
  1  2  1  0  0  0  0
  1  3  2  0  0  0  0
  2  4  2  0  0  0  0
  3  5  1  0  0  0  0
  4 11  1  0  0  0  0
  5 11  2  0  0  0  0
  6  8  2  0  0  0  0
  6 12  1  0  0  0  0
  7  9  1  0  0  0  0
  7 12  2  0  0  0  0
  8 15  1  0  0  0  0
  9 15  2  0  0  0  0
 10 13  2  0  0  0  0
 10 28  1  0  0  0  0
 11 13  1  0  0  0  0
 12 16  1  0  0  0  0
 13 14  1  0  0  0  0
 14 16  2  0  0  0  0
 14 20  1  0  0  0  0
 15 27  1  0  0  0  0
 16 28  1  0  0  0  0
 17 20  1  0  0  0  0
 17 24  1  0  0  0  0
 17 26  2  0  0  0  0
 18 23  1  0  0  0  0
 18 24  1  0  0  0  0
 18 25  2  0  0  0  0
 19 21  1  0  0  0  0
 21 22  1  0  0  0  0
 22 27  1  0  0  0  0
  1 29  1  0  0  0  0
  2 30  1  0  0  0  0
  3 31  1  0  0  0  0
  4 32  1  0  0  0  0
  5 33  1  0  0  0  0
  6 34  1  0  0  0  0
  7 35  1  0  0  0  0
  8 36  1  0  0  0  0
  9 37  1  0  0  0  0
 10 38  1  0  0  0  0
 19 39  1  0  0  0  0
 19 40  1  0  0  0  0
 19 41  1  0  0  0  0
 20 42  1  0  0  0  0
 20 43  1  0  0  0  0
 21 44  1  0  0  0  0
 21 45  1  0  0  0  0
 22 46  1  0  0  0  0
 22 47  1  0  0  0  0
 23 48  1  0  0  0  0
 23 49  1  0  0  0  0
 24 50  1  0  0  0  0
 25 51  1  0  0  0  0
 25 52  1  0  0  0  0
M  CHG  1  25   1
M  END
> <OMEGA_C>
boLNQPmPCUFX/r/BVAa5QCel8kCE6cXBh1DtQEw+BEEHc7jBlGTEQPOBx0DsS8TB0/74QJFo3UAY
5bbBfkLDQJbWiz+uFKbBj+LYQFD5KL6k5LXBGRyyQKGql70GkKHBfvzHQAQCq7+JXLHBsMQLQeGx
fkCn+b3BaovkQMPhvEDUz7zBkP/VQBk8hz+/WLDBwIzwQAoGkEDfGLvBWnvUQP9KYEB+/bXB+ki0
QHLYpr9bOqfBcNHnQHEkEUAEQLXBvrqpQLnujEDqbKbBOfx9QKbMj0BbGZbBqFVSQHIoeMBTj4vB
pxeoQInkdUCb2LHBhTyEQPzceMCXx5XBfS+OQJorHcBYN5nBPcozQGNphkDU+JHBY36EQNOLiEAj
WKDBDYicQJGKn0BJ1o/BOS/LQMa8m0D90KLBGrykQDwRIMDhRaPB0WwNQWyIEkCp37rBsNPEQO8Z
GkF4PcHBGqKgQILU+kBQrsvBI7r8QDixEEE93LPBK4m0QC+TrkAhx8jBP8wIQQNK1UANLbHBfR7C
QC5jAUC2r6HBpB3oQEJmTr6xpL3BlTyjQM7KGb3jxJnBYBvKQDU6EcCrrbXBU3IYQeKGkUD3sMHB
Tz9EQLMrncCdIYnBj9t1QBuvV8A5I4XB3QUWQCfrVcBoEo3BZYGZQNrzkkAyJrfBLnOUQCp5O0Cq
3bHBdVyiQPqWjcCSQZTBN+NkQAC1jMDBMJzBBGhgQKwr8r+cK5rBLEOiQIzd+78kIpPBvxwpQChL
i0DaLYrBmn8FQKWkdECTmJbBrjNVQCccfUCcU6TB5lq5QNfNpkDDzJLBZ1GWQPNTpEDCFIjB1FbO
QL2xCUESD8DB0xm5QBMV80A63sXBUZbuQKw+BEEDqLjBUAPEQPbYx0BZPsTB4PH5QMlR3UAzIbfB
Tf7WQDsUJL66F7bBGuPCQN5ujj8cO6bBFvjGQBsKqr9WVbHBnX+yQDWWSr0UgKHBynMLQV0IfkB4
LL7BB5PkQOn4vEAO5bzBm6jUQBxhiD9gmLDBfCzwQCINkEAxNrvBqdjTQDvdYEB/HbbBTqO0QCSp
pL8VC6fBNJ/mQEgkEUCIjrXBA6mpQOdpjUDNaabBzzt+QLRZj0DFCJbBQrJOQAYieMDX2ovBRLSn
QHo5d0Cp2rHBjyKGQPgsd8AFYZXBrTGNQNiIG8CsOZnB8hI0QA2fhUBe8pHBD32EQCruiEDjUKDB
67KcQPudnkBxto/B7TrLQFj2m0BDzqLBcBqnQBcrH8DQv6LBxb4MQeZ+EUBpRbvBH+XFQH5FGkHR
R8HB3XygQNR6+0DxjsvBXZb+QJCiEEFyJ7TBP3+zQLUGr0AEncjBoH4JQVgA1UADjbHBnBzlQNPO
Tr7G+L3Bj+jBQEIbA0Cl7KHBL7TIQEUQEcBZl7XBqT2kQEVMirtdo5nBAj0YQU8PkUCs1sHBpQlF
QPU4ncBeKInBmuJpQK4RUsA+R4XBGegQQJuMXMBySI7BijKZQIzWk0C8G7fBB8yTQCEqPUAl37HB
JvmkQBVzicBK7pLByvdwQIywjsB+75vBfXtcQF2m+r++CpvBAcOdQNC/7L/wAJPBvHApQInjiUBj
IYrBD8QFQFrEc0Dkn5bBP+RUQPwdf0DGVKTBjnu5QE4opkADqJLBQI+WQFvDokAU7ofBn9bNQGaP
CUH+JMDBqjvuQFJgBEGVu7jB5uS4QOtu8kCF4sXBa/X5QIW23UCmHLfBly/EQDJbx0DXK8TBBSLY
QFZEML7x/LXBx6zCQOl9iz/KLqbBbf/HQHparL9xV7HBb0KyQInMo72UjaHBz64LQTFFfkB13r3B
U8fkQEb2vEAJyrzBjQHVQMDBhj80frDBT3/wQMsVkEAY/7rBBPzTQKCRYECR/7XBv8u0QOkbqL+M
JqfBDtXmQA3dEEAtZ7XBuIOpQFlnjUCFZ6bBsjN+QH/bj0AQBJbBsQNQQIJXeMBjxIvBQbOnQO+3
dkBI0bHB+1KEQBkwecB0xJXBsy2OQOePHcCTOpnBTkQ0QAYrhkDL25HBm3OEQH2/iEBlRaDBVaac
QPG6n0Adx4/BGefKQO2anEBv3KLBKS+mQDHtIMDqD6PB7fIMQRSoEUA0AbvB2Q/FQIwTGkHBbMHB
+hD+QLTpEEGjS7TBTjWgQM1r+kCel8vBU5AJQXLO1UDYh7HBxOuzQDxDrkCkgMjBDvbmQPtuVb52
yb3BrEfBQG9vAUAQ16HBUFPKQN8TEsD5nLXBja2jQB/9L72vuZnB7ogYQd5BkUBtc8HBGg5CQM0/
ncDUUInBRZFxQH0AV8DXP4XBmLwTQM3kVsBrjY3B7C6ZQMZpk0B8HrfBJOeTQCGCPEBS0LHBzW6i
QKVajcCy+JPB7QhnQM1MjcBHRpzBBUhgQK6h9L8cgprBSymhQKCQ+r9NA5PBw8UpQGTsikCRDorB
ZP4FQEzyc0Dfd5bB3hBVQNVKfUCuOaTBXV65QKc3p0DlxJLBioyWQJlkpEDzAojBlM7NQPZsCUFf
4L/BYEvvQGscBEFRzbjB3n23QGdP8kAgV8XBkMX6QGkV3UCcQbfBmpPCQGUdx0Cms8PBwqfDQM6v
hz9AJabB2AbZQEBlRr4GALbBX6myQMFN3L3AnaHB7kfIQNDmrr9edLHBXZwLQV7jfUAN9r3BsVbk
QJ51vEDUq7zBTSLWQH58gz+ycLDB9UzwQO6Gj0Dc/brB22jUQPHiXkAd47XBDMG0QOvyqr86TKfB
J7LnQCuQD0CIVbXButWpQKpMjECIQqbBUHt9QBXbkEDjBJbBq9FTQEFvesC6mIvBCh+oQB/hc0Ba
o7HB1imEQIbWesBc8pXBwRaPQA4xH8DqN5nB4kEwQESnjECZPpLByv+EQPD5hkArF6DB8y2dQFIG
nUBiiI/Bi1jKQLbsnUDe6aLBLBylQEAHIsAuWaPBjj4NQQ5aEUAjFLvBij3FQLX7GUFzHMHBMxQA
QcKWEEGnkLTB/+mdQJ19+kBqx8rByl4KQfz81EA67bHBMUWxQEwkrkCt0cfBcJjCQJB+/j96vKHB
VCLoQDsBar4SxL3BPvijQLeKlb36zJnBumLKQEMmE8D/xrXBIkkYQSZPkUBln8HB22FEQJtPnsAy
TYnB0yl5QJX1W8DHLoXBpTMYQMZoVsA/34zB5BeZQCagkUBI9LbBe8qUQFUMOUD4jrHBi+6hQDp7
j8ARqJTB6OZiQNK0jMCJWJzBnRBjQI738r8dAprBP9ijQDLGAcDfIpPBaIwkQFm0kkDChorBN6oA
QA5gg0BqEJfB3ARYQPu2c0BL3KPBO0y7QKA5n0DWLZLBLlyWQIkjpEDr64fB

> <OMEGA_E>
ANHZPEBx3zwAxuI8wCVPPQ==

> <OMEGA_NBR>
      9308

$$$$
50144571
  -OEChem-04172616093D

 58 61  0     0  0  0  0  0  0999 V2000
    6.2997    7.6827  -25.4060 C   0  0  0  0  0  0  0  0  0  0  0  0
    6.7542    8.7130  -24.5579 C   0  0  0  0  0  0  0  0  0  0  0  0
    6.5513    6.3373  -25.0750 C   0  0  0  0  0  0  0  0  0  0  0  0
    6.4107    1.2982  -20.6855 C   0  0  0  0  0  0  0  0  0  0  0  0
    6.3579    0.1073  -22.8173 C   0  0  0  0  0  0  0  0  0  0  0  0
    5.5026   -3.1779  -16.6431 C   0  0  0  0  0  0  0  0  0  0  0  0
    7.7139   -2.8991  -17.6436 C   0  0  0  0  0  0  0  0  0  0  0  0
    5.8767    0.1731  -20.0412 C   0  0  0  0  0  0  0  0  0  0  0  0
    5.8236   -1.0236  -22.1724 C   0  0  0  0  0  0  0  0  0  0  0  0
    4.9031   -2.8253  -17.8675 C   0  0  0  0  0  0  0  0  0  0  0  0
    7.1143   -2.5330  -18.8619 C   0  0  0  0  0  0  0  0  0  0  0  0
    7.4591    8.3983  -23.3780 C   0  0  0  0  0  0  0  0  0  0  0  0
    8.6800    3.9977  -24.0751 C   0  0  0  0  0  0  0  0  0  0  0  0
    6.6381    1.2743  -22.0765 C   0  0  0  0  0  0  0  0  0  0  0  0
    7.2572    6.0208  -23.8945 C   0  0  0  0  0  0  0  0  0  0  0  0
    7.5539    4.6186  -23.5920 C   0  0  0  0  0  0  0  0  0  0  0  0
    6.9129   -3.2183  -16.5221 C   0  0  0  0  0  0  0  0  0  0  0  0
    6.6861    3.7103  -22.8111 C   0  0  0  0  0  0  0  0  0  0  0  0
    5.5935   -1.0008  -20.7815 C   0  0  0  0  0  0  0  0  0  0  0  0
    5.7028   -2.4857  -18.9762 C   0  0  0  0  0  0  0  0  0  0  0  0
    7.7136    7.0530  -23.0432 C   0  0  0  0  0  0  0  0  0  0  0  0
    7.2194    2.4378  -22.7497 C   0  0  0  0  0  0  0  0  0  0  0  0
    7.5497   -3.5897  -15.2355 C   0  0  0  0  0  0  0  0  0  0  0  0
    5.3463    4.3790  -20.7159 C   0  0  0  0  0  0  0  0  0  0  0  0
    3.9275    4.2410  -18.7102 C   0  0  0  0  0  0  0  0  0  0  0  0
    6.7890   -3.4342  -13.9081 C   0  0  0  0  0  0  0  0  0  0  0  0
    5.3252    4.1079  -22.2367 C   0  0  0  0  0  0  0  0  0  0  0  0
    2.7266    3.9762  -18.2688 N   0  0  0  0  0  0  0  0  0  0  0  0
    4.1515    4.1502  -20.0058 N   0  0  0  0  0  0  0  0  0  0  0  0
    4.8472    4.5698  -17.8401 N   0  3  0  0  0  0  0  0  0  0  0  0
    8.6556   -4.1205  -15.2283 O   0  0  0  0  0  0  0  0  0  0  0  0
    6.3792    4.7685  -20.1771 O   0  0  0  0  0  0  0  0  0  0  0  0
    5.0888   -2.1301  -20.1646 O   0  0  0  0  0  0  0  0  0  0  0  0
    8.7282    2.3271  -23.6147 S   0  0  0  0  0  0  0  0  0  0  0  0
    8.6088    6.6824  -21.5832 Cl  0  0  0  0  0  0  0  0  0  0  0  0
    5.7590    7.9251  -26.3089 H   0  0  0  0  0  0  0  0  0  0  0  0
    6.5622    9.7449  -24.8124 H   0  0  0  0  0  0  0  0  0  0  0  0
    6.2039    5.5475  -25.7245 H   0  0  0  0  0  0  0  0  0  0  0  0
    6.6480    2.1842  -20.1154 H   0  0  0  0  0  0  0  0  0  0  0  0
    6.5532    0.0816  -23.8792 H   0  0  0  0  0  0  0  0  0  0  0  0
    4.8834   -3.4189  -15.7916 H   0  0  0  0  0  0  0  0  0  0  0  0
    8.7902   -2.9366  -17.5638 H   0  0  0  0  0  0  0  0  0  0  0  0
    5.6811    0.2016  -18.9794 H   0  0  0  0  0  0  0  0  0  0  0  0
    5.5896   -1.9099  -22.7434 H   0  0  0  0  0  0  0  0  0  0  0  0
    3.8268   -2.8152  -17.9567 H   0  0  0  0  0  0  0  0  0  0  0  0
    7.7317   -2.2872  -19.7132 H   0  0  0  0  0  0  0  0  0  0  0  0
    7.8047    9.1898  -22.7294 H   0  0  0  0  0  0  0  0  0  0  0  0
    9.4390    4.4880  -24.6667 H   0  0  0  0  0  0  0  0  0  0  0  0
    7.3918   -3.8519  -13.0883 H   0  0  0  0  0  0  0  0  0  0  0  0
    6.5994   -2.3676  -13.7171 H   0  0  0  0  0  0  0  0  0  0  0  0
    5.8312   -3.9716  -13.9694 H   0  0  0  0  0  0  0  0  0  0  0  0
    4.9866    5.0215  -22.7473 H   0  0  0  0  0  0  0  0  0  0  0  0
    4.6138    3.2925  -22.4339 H   0  0  0  0  0  0  0  0  0  0  0  0
    2.5312    4.0278  -17.2895 H   0  0  0  0  0  0  0  0  0  0  0  0
    2.0029    3.7219  -18.9103 H   0  0  0  0  0  0  0  0  0  0  0  0
    3.3645    3.8818  -20.5614 H   0  0  0  0  0  0  0  0  0  0  0  0
    5.7781    4.7680  -18.1473 H   0  0  0  0  0  0  0  0  0  0  0  0
    4.6196    4.6230  -16.8679 H   0  0  0  0  0  0  0  0  0  0  0  0
  1  2  1  0  0  0  0
  1  3  2  0  0  0  0
  2 12  2  0  0  0  0
  3 15  1  0  0  0  0
  4  8  2  0  0  0  0
  4 14  1  0  0  0  0
  5  9  1  0  0  0  0
  5 14  2  0  0  0  0
  6 10  2  0  0  0  0
  6 17  1  0  0  0  0
  7 11  1  0  0  0  0
  7 17  2  0  0  0  0
  8 19  1  0  0  0  0
  9 19  2  0  0  0  0
 10 20  1  0  0  0  0
 11 20  2  0  0  0  0
 12 21  1  0  0  0  0
 13 16  2  0  0  0  0
 13 34  1  0  0  0  0
 14 22  1  0  0  0  0
 15 16  1  0  0  0  0
 15 21  2  0  0  0  0
 16 18  1  0  0  0  0
 17 23  1  0  0  0  0
 18 22  2  0  0  0  0
 18 27  1  0  0  0  0
 19 33  1  0  0  0  0
 20 33  1  0  0  0  0
 21 35  1  0  0  0  0
 22 34  1  0  0  0  0
 23 26  1  0  0  0  0
 23 31  2  0  0  0  0
 24 27  1  0  0  0  0
 24 29  1  0  0  0  0
 24 32  2  0  0  0  0
 25 28  1  0  0  0  0
 25 29  1  0  0  0  0
 25 30  2  0  0  0  0
  1 36  1  0  0  0  0
  2 37  1  0  0  0  0
  3 38  1  0  0  0  0
  4 39  1  0  0  0  0
  5 40  1  0  0  0  0
  6 41  1  0  0  0  0
  7 42  1  0  0  0  0
  8 43  1  0  0  0  0
  9 44  1  0  0  0  0
 10 45  1  0  0  0  0
 11 46  1  0  0  0  0
 12 47  1  0  0  0  0
 13 48  1  0  0  0  0
 26 49  1  0  0  0  0
 26 50  1  0  0  0  0
 26 51  1  0  0  0  0
 27 52  1  0  0  0  0
 27 53  1  0  0  0  0
 28 54  1  0  0  0  0
 28 55  1  0  0  0  0
 29 56  1  0  0  0  0
 30 57  1  0  0  0  0
 30 58  1  0  0  0  0
M  CHG  1  30   1
M  END
> <OMEGA_C>
YJfJQNzY9UBuP8vBniLYQFFoC0GtdsTB5KPRQDXLykCBmcjBSSTNQDsrpj/7e6XBinPLQBLM2z3V
ibbBiBWwQBhjS8D4JIXB4df2QEKKOcAAJo3BiA28QJM0MT5KVKDB+Fq6QMgFg78DYbHB9uWcQGvR
NMCa8I7BF6jjQAYdIsA95ZbBKrHuQKRfBkEdBrvBcOEKQdLZf0DmmcDBg2vUQOQdoz+knLDBpTro
QEyqwEABKL/BMrnxQJjLk0BfvLzBLjbdQAn5TcApLYTBxvTVQIZ1bUApfbbBHv6yQDwagL9yQKbB
FX22QC8WH8Asz5fBONb2QGay4UB2WLjBugXnQE0EHEB7/7XBi5fxQPS9ZcC2xHPBCBWrQAAhjEBD
uqXBQVx7QPq1h0CRrpXBfT/ZQHDJW8Clh17BXmiqQAt0g0DE5LHBk4AuQAp6fkCMJpLBrtiEQDjO
hEDPC6DBpBybQPo7kkCguI7BdH0KQTrbg8A0p3PBBiLMQK+XmECbaqHBj9eiQOdSCMACUaHBpaYL
QVbvFEDZ6rzBgL0JQSvW1UBvqqzBwEm4QE+a/UCfeNLByP3RQOrqG0HRf8bBbobGQPyEsUDPy83B
qbzUQMrJC0BP7KDBv7PRQJY2pz2PCL/BJkWcQPjOWsBzqnzB3aQMQePwO8CmgozBQ8u1QI1rTj7P
1ZfB692yQPJ49L918rXBf+p0QHYrNMBfp4/BMGr3QC9hEsC4tJ3BNcD5QEcJE0Hc1bXBFwYXQcqd
j0BzVcXB6InsQOWEdsCdaVHBby7TQLuGF8BHeVvBEJm6QK4ufsDIgl/BmZKfQAmwoECG+rXB8KOT
QFG4UkCseLPBQv8hQPzjgEDPUIrB4C4AQAg0bkBiSJfBbVRXQNhueEC2faTByuW4QIqTmECdLZHB
Y9OTQOTvk0Bm8YbBXqu1QKQk70BiucbBUQfGQON9CEFcf8DB0czEQFksxUBkIsXBxhjQQE7EnT+a
YqXBEIPXQBzkhL023rXBznr7QMYecMBtT5jB3C68QG8NmMACKpDBc1y4QKAuTT6OwKDBXYW/QFhW
jb8nOrHBPrzhQODQM8CfXZ3BSfuhQJZLc8DSWpXBQnLlQEFuBEFRq7jB3WkNQTUBgkB3vL7Bhtnd
QGhskD99F7DB8ojkQBAJvUDBWb3Bv3nzQJgWkUD3k7vBRi3pQMMPmMBw3ZHBVaTZQF6aYECKLbbB
d8SuQHivcr+VxqbB33q0QFLWNcAYMZzBmsX0QFrz3kBvFLfBHQ/vQNKwE0A8b7XBArsCQeOUucBr
SY3BhjmsQDBoiUBsd6bBZ2mAQJiGiUACRpbBD0QaQXvMvcCP+pDB4XmsQETjcED7AbLB7Y00QGTo
gUBChZLBoaCHQGHbgEB5Y6DBmomdQAUsmECnuo/BZQz4QEEG0sDpZYbB8VnLQAK4nEDp56LBvOKZ
QIPY/b9Gz6HBwo0QQSRVGEAHe7vB7nANQWRL1UD0Ga3B5YudQB5j9UAItszB2Hm6QGKXGEHTucHB
AiG4QFAxq0DB3snBRuvXQIYgB0BlwqDBOu7kQGvgOL63xr3BwOIOQeXCbcDmV5nBh/utQOJor8Cg
4IrBdG+tQP+HkT4ylZjBwua5QPIgAcAdnrXBaU7wQGvMAsCDP6LBD5h/QBvhc8A8FpTBXs3xQC1q
EUGe4LPBJGYZQQUblUBbusLBqgsiQQ3318Cbj4zBMbYaQR7IxMDZmZnBgMYiQa2jn8DKZo/BmNqc
QAEkkEBtNrfBMXKaQHt1NEB3Q7LBRr8nQARIh0BgzIrBBdAGQFRfbUCcXJfBfJNfQB5gZED7Q6TB
mVC7QO9inUBBWpLBVA2WQMoqnkDKGIjBNh61QBts7UDva8fBWjrGQCQRCEFyosHBlIrDQCCIw0CY
WMXBVk7MQM11kz8XEqXBvAzdQEOm1b1lTrXB8GToQL6JVMBWvI7BnoCfQJEDccATqYjBbbe2QBJd
Fj0566DBnkbHQJ4cnL8JLrHBGmPYQM6TNsCuepjBPGSPQB3GUsDUfpLBxpLlQOV5BEFBu7nB8MYM
QZd0gUCear7BCrfdQBoLjT/ZfK/BbUDjQDZTvEA9f73BVCbyQFaYkEBTWLvBCTDMQCd5b8DClobB
2JLYQEloYECorrXBbL2yQIRFkb/6K6fBKbmrQIs8MsD8QprBMR/0QBcd30BcpLfBS1HuQBr5E0Dc
n7TBpX/dQEj0gsC/wHfBPairQOAmi0AZMabB1bp/QJ5vjEDbA5bBFxsHQYCQhsBoBHTBOoWrQJWv
cUDel7HBrpk2QJ25gEC69ZHB4iuGQBSYhUDlQKDB0hKcQJEjnkCSso/BwdrFQKI5gsA0G2jBNFrM
QJkOm0BHc6LBjJObQCCkDcDucqPB9DAQQZaHGEAktbrByw8NQXas1kDBka3B6PWcQDrv8kDTcc3B
fU67QAAjGEELQsPB9Vi2QHzoqEAnwsnBoZrPQBMGA0DvTqDBjD3tQKN9L76q67zBlUQFQWsXV8AK
b43B8cWJQAe6hMAyrYLBoC6pQDZ/lT1o+ZjB20fGQOgKCcA6rbXBiT7uQH6bIsBasJ7BUthaQLyM
VMAgEpTBWHjyQIPKEUFSRLXBsqIYQdY0lEAgmsLBVFwKQccHiMCAvGLBiigNQc7Go8Dlv3vBTicP
QcDqVMDq6HrBieCbQODwj0C59bbBgW2ZQCRMNUD9m7HBGcAqQCpchUAeL4rBGE4KQLAyZkBPn5bB
x5lZQNUBdkDqWKTB7my4QLJZp0AMm5LBVlCVQGt6okAl9IfBc47nQEoeBEHgFLnBJgXJQLqfCEFc
D8HBrv30QC/S3UDvVLfBc/jLQMRrkT/AFqXBw7PcQNFr9b1lU7XBBQWeQAM7cMDSfIjBcT3nQIVG
VsDWgo7BUqK2QPxxijz96KDBTxjHQD90nr9aLrHBsFmOQHQkUsCuYZLBsrLXQA3mN8A6SJjBq7+3
QIzM70AARMfBIJsMQQfYgED+hb7BckndQAk6iz9ZhK/BW6njQOk1vEB1fL3BAvTxQEgxkEDuabvB
haDKQFhdcMAJbIbB/2LYQJLrX0AMqbXBnrOyQP74k7/0JqfB8hmrQFzRMsANJZrBBNnEQKg3xUDz
fcXB+OftQIAmE0Dnp7TBCOfbQFIdhMCFnnfBjV2rQCQwi0DTNqbBhwiAQNzni0Cn8JXBOcnIQCTQ
X8A4VGPBzFirQIRfcUDLlbHBKjw3QCAKgEDD05HBc5qGQCfcg0BqHKDBEeabQGDEnkAIvY/Bk+D/
QP6nk8Drd3bBkvfKQAIRnkD5wqLBT3abQMT2DsDsbqPB2OYPQWQvF0Dd1brBZx6vQF5BnEDqYc3B
mqn0QAbxEEFYTrTBgNa+QCvpGEHya8LByU8GQbgA10AmQ7HBuCPPQK8XAkB0VqDBs9TsQAVLPr7s
8rzBXQCIQOOYg8B6eoLBWqkEQbTIWcBGJo3BXEGpQL+xUj3V8pjBmR/GQEAzCsBWrrXBFtJYQBoZ
U8CiAZTBd9XtQBozJMCFcZ7BoWugQADN9kAwZc3BiHwYQbZ6k0C9ucLBVs7fQMVnZcCCFlbBrtnB
QLDVG8C3UGbBAgOrQK2igMAFEV/BE7ubQLuvj0Ci+7bBgkGZQIr7NEC5krHBNQ4rQE9uhUAFF4rB
1oALQOATY0A5aJbBtflbQGhrbUB4BqTBhy24QM76p0C2sJLBIPOUQAn+o0ASCojB+avmQBgrBEFA
GrnB7UPIQNmbCEHzHsHBBz70QDj73UBcVbfBclrMQEx7kj+4FaXBxs3cQNyB4L1HWrXBeA3nQEkP
U8C3U47BHM6dQIP6cMADoojBoNi2QBDg5jxC7KDBFjPHQN0Hnb+DNLHBbLjXQEQ5NcBCJJjBtF+O
QOTHUsAkiZLBAD63QHmy70BeWMfBRpAMQT1BgUCRg77ByIbdQM9MjD+dhq/B0TbjQPdPvECRhL3B
HL3xQLZkkEBFcbvBBVDKQKbgbsCeWIbBCFLYQLAtYEA8sLXBmdCyQPFakr8ALqfBkzKrQFvTMcC5
KJrBa37EQKIsxUCLjsXBzQTuQKCmE0Dtq7TBUOHaQCTBgsCIJXfBPY2rQIbVikDTKKbBesN/QLAx
jEAs85XBt7kFQY+4hsDFD3PBa1SrQARocUCrkbHBtxo2QEM5gUCk6ZHBj3eGQKFHhEB+IKDBxy6c
QMDpnUBYqY/BWtHCQKB9gcB5q2fBQq/LQHJtnECJlqLBOKSbQGgvDsBJd6PBzfkPQSQZGEDT0LrB
jx2vQMkgnEAFe83BwJLzQBUFEUGwT7TBnP29QCXgGEHFf8LBiN8FQYBB10D5ObHBF8TPQDR2AkBc
UKDB/9LsQCvqMr6V/bzBBYsEQfrWVMBW14zBKbKHQHDnhMAZw4LBr2mpQHMCgj2g95jBpjjGQHqE
CcD0srXBRP3tQBugIMD+OZ7B1BJZQB3oVMABRpTBXP2fQF+Z9kD2f83Bv2wYQZ8DlED4scLBVL0I
QSvjh8A/u2HB478LQbYypMCsj3rBEv4NQZvOVcC8/HnBvambQOfjj0BD6LbB8TaZQJsLNUCZmrHB
4PYpQI1rhkCEKorBmLIJQAE2Z0BYj5bBejhbQGHJb0DoGaTB9tS4QLZIpkDai5LBdDKVQAIbo0CP
9ofB8lnJQN2T9UCcU8vBsNLXQO1RC0ERkMTBnYPRQAuRykCip8jBa/LMQC1Vpj80ZqXBsYDLQORt
5j2sfbbBzcfQQLjrocCTipPBvPAFQRRabsBagJrBBoS7QCoIMz7hRqDBvRe6QBrzgb9oXrHBwVqz
QLAwhMAvu5fBBZPuQHmXMsDXmJ7BDmjuQM1aBkHuHbvB6OAKQQS1f0B/nMDB7G7UQLGEoz/6iLDB
oSPoQHeTwEAZNb/BVLfxQO++k0AtwbzBj0j9QAahm8BE6JTBYQPWQNR8bUCweLbBySeyQJT0e7/H
QabBl8jBQM8xP8AbQZ3Bi6j2QAm04UAdarjBCSfnQG0jHEAI7LXBf0EOQXmZusA5eZDB2yCrQHAs
jEBUu6XBgJJ7QJG9h0C6rZXBAx8IQZH718BnGYfBRnOqQH15g0DN5LHBpMouQHhafkCKIpLBdeqE
QAjThEBXC6DBAjebQBxgkkBPuo7B4s0fQToOv8AJupTBXy3MQD6smEAobaHBzQijQH7iBsDHJqHB
wrILQUTsFECx3LzBn6oJQRoE1kBUuqzBNgS4QIg5/UBwjdLBBZvRQE/QG0EpnsbBMHXGQPM3sUAx
1s3Bc6PUQFSwC0Ag0KDBdwbSQDVHsT0d+b7BWFHFQNyrvcA/Q4/BbuQWQU5+ZMD/opvBw0u1QPVV
Sj6nx5fB286yQOqq87907rXBeHKRQDN3icBxtJbBiBj6QPZ09b+UyqLBF2f5QMsNE0FF8bXBlf4W
QX98j0CSX8XBAVMVQfxQ7sDsdYXBuP8EQUp6xMBV4n/B50nzQL0t6sB4L4nBJKCfQLWyoEA8/LXB
xa+TQCjBUkB8eLPB0VciQHfYgEB/TIrBjHkAQCTobUBBQpfBuXRXQAZqeEDLe6TBf/i4QP7MmECh
MZHB2fSTQIcUlECt8obB

> <OMEGA_E>
BIQxP9CJHD9YMQw/BNYHP1DVBj/AqjU/

> <OMEGA_NBR>
     15300

$$$$
50219797
  -OEChem-04172616093D

 33 35  0     1  0  0  0  0  0999 V2000
    5.7238   -1.3506  -21.4489 C   0  0  0  0  0  0  0  0  0  0  0  0
    4.5484   -0.5733  -21.4464 C   0  0  0  0  0  0  0  0  0  0  0  0
    6.8995   -0.8498  -22.0433 C   0  0  0  0  0  0  0  0  0  0  0  0
    4.5474    0.7031  -22.0411 C   0  0  0  0  0  0  0  0  0  0  0  0
    6.9025    0.4303  -22.6317 C   0  0  0  0  0  0  0  0  0  0  0  0
    5.7257    1.2135  -22.6271 C   0  0  0  0  0  0  0  0  0  0  0  0
    6.8664    3.3845  -20.1435 C   0  0  0  0  0  0  0  0  0  0  0  0
    5.7045    3.6201  -20.8484 C   0  0  0  0  0  0  0  0  0  0  0  0
    6.7767    3.1230  -18.7097 C   0  0  0  0  0  0  0  0  0  0  0  0
    4.3725    3.3758  -18.9031 C   0  0  0  0  0  0  0  0  0  0  0  0
    6.9605    3.4900  -23.2130 C   0  0  0  0  0  0  0  0  0  0  0  0
    5.7030    2.5931  -23.2595 C   0  0  2  0  0  0  0  0  0  0  0  0
    5.7266    3.8229  -22.3518 C   0  0  1  0  0  0  0  0  0  0  0  0
    5.3780    2.8739  -16.6520 C   0  0  0  0  0  0  0  0  0  0  0  0
    4.4599    3.6283  -20.1975 N   0  0  0  0  0  0  0  0  0  0  0  0
    5.5114    3.0829  -18.1133 N   0  0  0  0  0  0  0  0  0  0  0  0
    3.1053    3.4012  -18.3304 N   0  0  0  0  0  0  0  0  0  0  0  0
    7.8059    2.9328  -18.0719 O   0  0  0  0  0  0  0  0  0  0  0  0
    5.7237   -2.3306  -20.9950 H   0  0  0  0  0  0  0  0  0  0  0  0
    3.6484   -0.9565  -20.9885 H   0  0  0  0  0  0  0  0  0  0  0  0
    7.7988   -1.4478  -22.0477 H   0  0  0  0  0  0  0  0  0  0  0  0
    3.6427    1.2930  -22.0490 H   0  0  0  0  0  0  0  0  0  0  0  0
    7.8041    0.8132  -23.0865 H   0  0  0  0  0  0  0  0  0  0  0  0
    7.8242    3.3931  -20.6425 H   0  0  0  0  0  0  0  0  0  0  0  0
    7.8824    3.1235  -22.7378 H   0  0  0  0  0  0  0  0  0  0  0  0
    7.2189    4.1230  -24.0748 H   0  0  0  0  0  0  0  0  0  0  0  0
    5.0934    2.6893  -24.1701 H   0  0  0  0  0  0  0  0  0  0  0  0
    5.1324    4.6747  -22.7143 H   0  0  0  0  0  0  0  0  0  0  0  0
    4.3130    2.8734  -16.3769 H   0  0  0  0  0  0  0  0  0  0  0  0
    5.8280    1.9085  -16.3773 H   0  0  0  0  0  0  0  0  0  0  0  0
    5.8944    3.6846  -16.1171 H   0  0  0  0  0  0  0  0  0  0  0  0
    2.4264    3.6190  -19.0315 H   0  0  0  0  0  0  0  0  0  0  0  0
    2.9004    2.5058  -17.9349 H   0  0  0  0  0  0  0  0  0  0  0  0
  1  2  1  0  0  0  0
  1  3  2  0  0  0  0
  2  4  2  0  0  0  0
  3  5  1  0  0  0  0
  4  6  1  0  0  0  0
  5  6  2  0  0  0  0
  6 12  1  0  0  0  0
  7  8  2  0  0  0  0
  7  9  1  0  0  0  0
  8 13  1  0  0  0  0
  8 15  1  0  0  0  0
  9 16  1  0  0  0  0
  9 18  2  0  0  0  0
 10 15  2  0  0  0  0
 10 16  1  0  0  0  0
 10 17  1  0  0  0  0
 11 12  1  0  0  0  0
 11 13  1  0  0  0  0
 12 13  1  0  0  0  0
 14 16  1  0  0  0  0
  1 19  1  0  0  0  0
  2 20  1  0  0  0  0
  3 21  1  0  0  0  0
  4 22  1  0  0  0  0
  5 23  1  0  0  0  0
  7 24  1  0  0  0  0
 11 25  1  0  0  0  0
 11 26  1  0  0  0  0
 12 27  1  0  0  0  0
 13 28  1  0  0  0  0
 14 29  1  0  0  0  0
 14 30  1  0  0  0  0
 14 31  1  0  0  0  0
 17 32  1  0  0  0  0
 17 33  1  0  0  0  0
M  END
> <OMEGA_C>
OCm3QCjfrL9Gl6vBQIyRQPvCEr88kqvB+MjcQCiOWb+hWLDB5YORQNn+Mz9AVLDBXuHcQMZK3D7L
DbXBTDm3QElUmz9TBLXBybnbQAmbWEDvJaHBL4u2QEmwZ0CCyabBXNrYQNbfR0CPrZXB1+uLQLMM
WECjOZfBX7zeQKVcX0BOtLnB1X62QDj1JUB6E7rB6D+3QJOqdECQ0LLBlRisQLrtN0BZN4XBcbeO
QMM1aECAlKHBFl2wQNlORUAG6JDB6LxGQJWsWUCbpJLBnMn5QKazO0A9k5DBYyi3QOknFcC/9afB
MoBpQMXadL9a6KfBJ5D5QJ9Sub+eYbDBRiJpQCGBpT9FZLDBYbv5QOowUD8psbjB/F/6QPIoWUDR
I6XBOjz8QGjnR0AO57XB+gDnQGnvg0AumcDBUv2iQCweLEBdXMHBdzykQFCXlUDltrXB3wOKQDTl
N0DQA4PBL3+6QDVJ9D+xBIPBsJ68QHvQa0Dn74DBe0kbQJWdZ0CRQJjBp585QKxfIECjeo/Bi5S1
QDw3qr+PnKvBbW2RQEC7+b4YvavBnijcQLO+Z7/2XbDBleeTQO+zRz+cmLDBf8veQOgrvD6SJLXB
Zc+6QDgtnD/UJbXBuxeNQAQWakAuRqLB6ji1QPL9ZUCIzqbBVaSIQNZjWUDPypbByb3VQO1XSEDn
HpbBbC3lQP3BXUBlHLjBVJW9QC2OJkALD7rBbQu6QHIpdUA7ubLB6bmrQP58PECoGIXB0X/ZQI9S
VkDSfaDBxqStQPCTR0C33ZDBJR37QE/4OUDKYpDBBuxJQFhQWkCVtpLBrrqzQAZKE8D43afB0bNn
QMWKUL8fHajB7Lj3QH1Dx78NWbDBtAhwQAZotT/H17DBSFj8QAfmMD/lzLjBG95iQExQeUCWF6fB
S8T/QIbjREAIQbPBpPjxQNEFg0B7lL7BkrSuQJmkLUAV/MHBSTepQEV7lkCkDbbBNv3LQOQFL0B+
AYLBtmmfQG9vd0AeZoHBjleWQM7HBkBXJoPBuBwKQSy2PEBAVZXBvCz+QIW1ZkB7t4rB

> <OMEGA_E>
AN0WPEYrAD8=

> <OMEGA_NBR>
      1508

$$$$
50145428
  -OEChem-04172616093D

 32 33  0     0  0  0  0  0  0999 V2000
    5.4558   -1.2743  -21.4329 C   0  0  0  0  0  0  0  0  0  0  0  0
    6.7542   -0.9773  -21.8910 C   0  0  0  0  0  0  0  0  0  0  0  0
    4.4279   -0.3192  -21.5614 C   0  0  0  0  0  0  0  0  0  0  0  0
    7.0325    0.2833  -22.4520 C   0  0  0  0  0  0  0  0  0  0  0  0
    4.7004    0.9371  -22.1395 C   0  0  0  0  0  0  0  0  0  0  0  0
    6.0174    1.2589  -22.5530 C   0  0  0  0  0  0  0  0  0  0  0  0
    6.8606    3.3722  -20.1771 C   0  0  0  0  0  0  0  0  0  0  0  0
    5.6934    3.6298  -20.8660 C   0  0  0  0  0  0  0  0  0  0  0  0
    6.7790    3.1147  -18.7353 C   0  0  0  0  0  0  0  0  0  0  0  0
    4.3740    3.3829  -18.9139 C   0  0  0  0  0  0  0  0  0  0  0  0
    5.3815    2.8927  -16.6646 C   0  0  0  0  0  0  0  0  0  0  0  0
    6.3702    2.6321  -23.1231 C   0  0  0  0  0  0  0  0  0  0  0  0
    5.6972    3.8093  -22.3752 C   0  0  0  0  0  0  0  0  0  0  0  0
    4.4557    3.6433  -20.2051 N   0  0  0  0  0  0  0  0  0  0  0  0
    5.5152    3.0918  -18.1286 N   0  0  0  0  0  0  0  0  0  0  0  0
    3.1063    3.3948  -18.3426 N   0  0  0  0  0  0  0  0  0  0  0  0
    7.8069    2.8995  -18.1030 O   0  0  0  0  0  0  0  0  0  0  0  0
    5.2482   -2.2340  -20.9833 H   0  0  0  0  0  0  0  0  0  0  0  0
    7.5368   -1.7173  -21.8116 H   0  0  0  0  0  0  0  0  0  0  0  0
    3.4307   -0.5499  -21.2167 H   0  0  0  0  0  0  0  0  0  0  0  0
    8.0280    0.5052  -22.8072 H   0  0  0  0  0  0  0  0  0  0  0  0
    3.9044    1.6557  -22.2675 H   0  0  0  0  0  0  0  0  0  0  0  0
    7.8123    3.3605  -20.6874 H   0  0  0  0  0  0  0  0  0  0  0  0
    4.3169    2.9064  -16.3879 H   0  0  0  0  0  0  0  0  0  0  0  0
    5.8206    1.9238  -16.3848 H   0  0  0  0  0  0  0  0  0  0  0  0
    5.9082    3.7005  -16.1353 H   0  0  0  0  0  0  0  0  0  0  0  0
    7.4610    2.7622  -23.0650 H   0  0  0  0  0  0  0  0  0  0  0  0
    6.0528    2.6629  -24.1758 H   0  0  0  0  0  0  0  0  0  0  0  0
    4.6564    3.8948  -22.7206 H   0  0  0  0  0  0  0  0  0  0  0  0
    6.2409    4.7346  -22.6167 H   0  0  0  0  0  0  0  0  0  0  0  0
    2.4264    3.6108  -19.0433 H   0  0  0  0  0  0  0  0  0  0  0  0
    2.9084    2.4957  -17.9522 H   0  0  0  0  0  0  0  0  0  0  0  0
  1  2  1  0  0  0  0
  1  3  2  0  0  0  0
  2  4  2  0  0  0  0
  3  5  1  0  0  0  0
  4  6  1  0  0  0  0
  5  6  2  0  0  0  0
  6 12  1  0  0  0  0
  7  8  2  0  0  0  0
  7  9  1  0  0  0  0
  8 13  1  0  0  0  0
  8 14  1  0  0  0  0
  9 15  1  0  0  0  0
  9 17  2  0  0  0  0
 10 14  2  0  0  0  0
 10 15  1  0  0  0  0
 10 16  1  0  0  0  0
 11 15  1  0  0  0  0
 12 13  1  0  0  0  0
  1 18  1  0  0  0  0
  2 19  1  0  0  0  0
  3 20  1  0  0  0  0
  4 21  1  0  0  0  0
  5 22  1  0  0  0  0
  7 23  1  0  0  0  0
 11 24  1  0  0  0  0
 11 25  1  0  0  0  0
 11 26  1  0  0  0  0
 12 27  1  0  0  0  0
 12 28  1  0  0  0  0
 13 29  1  0  0  0  0
 13 30  1  0  0  0  0
 16 31  1  0  0  0  0
 16 32  1  0  0  0  0
M  END
> <OMEGA_C>
NpauQLAbo7+mdqvBeCLYQM8ter+zIK/BaLGNQMNvo76ofazBnQrhQKMNkT7GnbPBd2mWQJflbz+d
HbHBd47AQJ0ioT99bLTBAIrbQJLSV0CeaqHBHTC2QN5OaEB87abBa+3YQDFXR0Dg4ZXBwveLQDyC
WEDET5fBLzWsQKUiOUAcUYXBANnLQDt0KEAC/LjB1k+2QHTLc0BRALPBe5WOQNMraUAQpKHBlXyw
QMrfRUBlB5HBuc1GQIJEWUCxvZLBMtL5QCOROUDj0pDBFfGnQGP6DsDT3afBrS3xQI3P2783fq7B
6JBbQJDEDL+5u6nB43IAQcBXAT8UdbbBGeF5QFvt0z/tI7LBfP75QOARV0Dif6XBcySKQLUBOkBt
GoPBFEK6QIM99j8eFIPBnQ+9QHPUbEAFFYHBUcDuQJ7HMEAehbjBr7DBQHVsKkAOaMHBPAGVQMRD
eUDNw7XBWLXHQIuBl0Dw7rTBmUkbQNsXZ0DHWJjBbiI6QK65H0AXno/BkPSuQG6tVUBHwo/BF56K
QE/DbUDTuJXBWEzWQMbHR0Cn+JTBRF6NQMxmdkB77qDBt2fZQBlRUkAdIqDBHam0QBG9Z0CQPabB
kKXNQDgqkD26VrvBzufEQM2pjz/qkLTBrIHBQI2opL/e97fBFDWmQJ8Bo74UjKfBeP6gQNjgMsBr
E6rBtVy2QNwnakDLgbLBCs7SQCyQIkA/krfBD3uxQETZYj+Nn6rBbbGsQCGXub/9Fq7BqWqTQDYF
3b7dfJ3BWKLJQNgXD8Bd1b3Bd6CsQKDhTUCcMYfBgDlZQOCfeUAIs5HBMhryQEYINUD4Z5DBzL5i
QG4jhEBweqXBMOf3QFsNSkBYEKTB5BHdQHsrdD7y88LBAhmRQF7MLMDdQqLB7B+LQJHaUcAcyK/B
QxO+QHztWcC2NKnB/ZSVQI3pYkA9lbXB7DXDQHBUlED/+LTB3vbzQAX1K0C43LTBxVnRQG3cKEAV
VMDBb4mRQMzI8T42GZrBCQ1sQFPRUL98Pp7BLCWvQIhGqr/BRqzBuhPZQA+Ihr/Fv6/Bgg2PQC8B
sr5NLq3BzEnjQKC4ZT6hx7PBzgCZQJhqaz+ob7HB3rXDQGeZnT/PV7TBpM+LQPfbakCvMKLBPLuz
QMmrZ0DQ4abBJA+IQL4cW0C5r5bBaBvVQH6TSEC2U5bBJs6rQMKFO0DyKYXBTLHQQNvPJ0BSP7jB
wJ23QL8eckCe8rLBhGbYQDOVV0BKtKDB7kitQLRHSEAi65DB9KD6QFkwOECuvJDBey1JQMACXEBM
fpLBx5mnQMcFE8AB7KjBMmvxQG9s6L/lUa/BvZpdQAHQEL+KnKrB77oBQc/s3T6rdLbBsAuAQBXZ
0z9UfLLBJYhfQKvBeEBJ7qbBjCrMQClxLUCkLoLB1bifQKsAdkB9ToHBKWuWQDiqBUDrSIPBO+/y
QNnYMECtjLbB31PLQGDLKkDB78DBBEiXQLFndEDdabbBhFvIQKBGl0Ceo7TBE8EJQRuIOkB5wpXB
amX+QJkvZEAKAYvBk9/1QFVbCUEcGqfBqDcDQQyBBEGeSrHBBZvcQOuM9EDesaHB1CP+QMXw4EBm
CbbBUJvTQMD4zEA+fabB8WrkQG1gwkCwwLDBgpraQOysUEDmfKHBmxe1QIA4YECKDKfBU5rYQAob
RkD83ZXBB6OLQMJqWUAQMZfByG6sQO6ZPUAcKYXB7RzeQM+klkDcNbbBhJe1QOrAekBixbLBR6ON
QMK1YkDCrqHBWaawQKSzTED605DBKY5GQOyIXEBuf5LBztX5QE5OOkDw2pDBgpr8QPanGEF1dKPB
UcoMQRAvEEGufbXB+RfQQITM+0Dv2JnB/8gFQXmM2UC6x73BNaG/QMostkC4VqLBPc/4QJpsTED8
pqXBis6KQDLGRUB1xILBWuO2QHg3+D9BRIPBnHzAQD+3a0D1yoDB8zfcQLsOnECN5L7BTD76QMbE
gkA/ZbTBrYyzQPuMQED/sbfBjW2ZQOCdkUBWRrTBQ0caQOLTZUACKJjB/O06QINPJUCEuY7B

> <OMEGA_E>
wDrcPLf+iz/KsAc/5DZYPw==

> <OMEGA_NBR>
      4246

$$$$
50145432
  -OEChem-04172616093D

 38 40  0     0  0  0  0  0  0999 V2000
    5.6663   -2.7590  -19.7684 C   0  0  0  0  0  0  0  0  0  0  0  0
    7.0162   -2.6673  -20.1652 C   0  0  0  0  0  0  0  0  0  0  0  0
    4.7167   -1.8460  -20.2642 C   0  0  0  0  0  0  0  0  0  0  0  0
    7.4294   -1.6447  -21.0376 C   0  0  0  0  0  0  0  0  0  0  0  0
    4.1723    0.0658  -21.6728 C   0  0  0  0  0  0  0  0  0  0  0  0
    4.5944    1.1158  -22.5010 C   0  0  0  0  0  0  0  0  0  0  0  0
    6.9121    0.3605  -22.3086 C   0  0  0  0  0  0  0  0  0  0  0  0
    5.1208   -0.8325  -21.1517 C   0  0  0  0  0  0  0  0  0  0  0  0
    6.4876   -0.7175  -21.5187 C   0  0  0  0  0  0  0  0  0  0  0  0
    5.9741    1.3161  -22.7362 C   0  0  0  0  0  0  0  0  0  0  0  0
    6.9084    3.2543  -20.1631 C   0  0  0  0  0  0  0  0  0  0  0  0
    5.7574    3.4874  -20.8838 C   0  0  0  0  0  0  0  0  0  0  0  0
    6.8066    3.1027  -18.7089 C   0  0  0  0  0  0  0  0  0  0  0  0
    4.4028    3.3386  -18.9380 C   0  0  0  0  0  0  0  0  0  0  0  0
    5.4005    3.1764  -16.6356 C   0  0  0  0  0  0  0  0  0  0  0  0
    6.4655    2.6558  -23.2268 C   0  0  0  0  0  0  0  0  0  0  0  0
    5.8292    3.7920  -22.3824 C   0  0  0  0  0  0  0  0  0  0  0  0
    4.5006    3.4884  -20.2481 N   0  0  0  0  0  0  0  0  0  0  0  0
    5.5393    3.1586  -18.1131 N   0  0  0  0  0  0  0  0  0  0  0  0
    3.1275    3.3681  -18.3817 N   0  0  0  0  0  0  0  0  0  0  0  0
    7.8312    2.9868  -18.0463 O   0  0  0  0  0  0  0  0  0  0  0  0
    5.3595   -3.5332  -19.0808 H   0  0  0  0  0  0  0  0  0  0  0  0
    7.7350   -3.3849  -19.7981 H   0  0  0  0  0  0  0  0  0  0  0  0
    3.6820   -1.9235  -19.9644 H   0  0  0  0  0  0  0  0  0  0  0  0
    8.4646   -1.5717  -21.3365 H   0  0  0  0  0  0  0  0  0  0  0  0
    3.1251   -0.0523  -21.4366 H   0  0  0  0  0  0  0  0  0  0  0  0
    3.8670    1.7701  -22.9584 H   0  0  0  0  0  0  0  0  0  0  0  0
    7.9514    0.4558  -22.5862 H   0  0  0  0  0  0  0  0  0  0  0  0
    7.8651    3.1847  -20.6593 H   0  0  0  0  0  0  0  0  0  0  0  0
    4.3346    3.2215  -16.3674 H   0  0  0  0  0  0  0  0  0  0  0  0
    5.8460    2.2630  -16.2145 H   0  0  0  0  0  0  0  0  0  0  0  0
    5.9182    4.0578  -16.2293 H   0  0  0  0  0  0  0  0  0  0  0  0
    7.5605    2.7000  -23.1318 H   0  0  0  0  0  0  0  0  0  0  0  0
    6.1835    2.7838  -24.2823 H   0  0  0  0  0  0  0  0  0  0  0  0
    4.8069    3.9651  -22.7497 H   0  0  0  0  0  0  0  0  0  0  0  0
    6.4283    4.7039  -22.5219 H   0  0  0  0  0  0  0  0  0  0  0  0
    2.4509    3.5060  -19.1050 H   0  0  0  0  0  0  0  0  0  0  0  0
    2.9466    2.5014  -17.9169 H   0  0  0  0  0  0  0  0  0  0  0  0
  1  2  1  0  0  0  0
  1  3  2  0  0  0  0
  2  4  2  0  0  0  0
  3  8  1  0  0  0  0
  4  9  1  0  0  0  0
  5  6  2  0  0  0  0
  5  8  1  0  0  0  0
  6 10  1  0  0  0  0
  7  9  1  0  0  0  0
  7 10  2  0  0  0  0
  8  9  2  0  0  0  0
 10 16  1  0  0  0  0
 11 12  2  0  0  0  0
 11 13  1  0  0  0  0
 12 17  1  0  0  0  0
 12 18  1  0  0  0  0
 13 19  1  0  0  0  0
 13 21  2  0  0  0  0
 14 18  2  0  0  0  0
 14 19  1  0  0  0  0
 14 20  1  0  0  0  0
 15 19  1  0  0  0  0
 16 17  1  0  0  0  0
  1 22  1  0  0  0  0
  2 23  1  0  0  0  0
  3 24  1  0  0  0  0
  4 25  1  0  0  0  0
  5 26  1  0  0  0  0
  6 27  1  0  0  0  0
  7 28  1  0  0  0  0
 11 29  1  0  0  0  0
 15 30  1  0  0  0  0
 15 31  1  0  0  0  0
 15 32  1  0  0  0  0
 16 33  1  0  0  0  0
 16 34  1  0  0  0  0
 17 35  1  0  0  0  0
 17 36  1  0  0  0  0
 20 37  1  0  0  0  0
 20 38  1  0  0  0  0
M  END
> <OMEGA_C>
/1G1QPiSMMCjJZ7BZoTgQNi1KsBqUqHBXe+WQEBL7L8WHaLBzb3tQGiG0r/oTKjBWoOFQKDUhj39
Ya3BhwWTQMjRjj8gArTBky/dQBCSuD72d7LB7t2jQFAfVb+jNqnB0ZrPQAyrN78/JqzBNyy/QBR2
qD+547XBQRHdQK1FUEATTqHB1Ty4QHcxX0D9EafBws/ZQA+SRkDXq5XBEuSMQB+sVUAEgZfBiNCs
QMZJS0ClFYXBPOXOQLn4KUBr0LnBj4i6QLuvckA4D7PBAQWQQFlCX0Ah/KHB8kGxQMImSkCc55DB
DylIQFiPV0CoDZPBU5n6QAInP0DjXpDBKIGrQKMgYsBopZjBboX3QIqhWMCAYp7BpKZrQCA09r8s
t5/BLG8HQXwuyb81sarBZAFIQPg4Vr0ifqvBhX13QA6T4j+9qrfB1nH+QMBa6T6esLTBIK/7QOrR
S0AoRqXB9rSKQFEtTkCF8ILBHhK7QPLUEEBkt4HBTWK9QEjZgUCq1YHBgu/xQAnNLEABDrnBFt/F
QCUpMkAbQsLBxdGZQFDEfUBu/7XBVLTNQG2GlkDzLLTBftscQJZhYEAI15jBsJQ8QF8WIEDYVY/B
IL6xQDAa4L8JGazBEEWLQMB+gr/fzqzBH5rYQIcLl7+Ih6/B41aLQGjmjT56I7HBRyMAQaTcRD+D
3rXBkGoAQbZdCUDRILjBaKiyQAblC0A93rfBjh7ZQOCVDT4GdbPB3TGyQOBOWz+Oa7TBdwjaQBpf
N0BsqbjBNNPcQPIGdEBQWaDBZ9O3QBF6hkCliKXB6V/ZQMqqT0B3kJXBxG6MQB4FXkAAGJfBx+Or
QPjxK0DUq4XBl6HaQEkWjEBmdrjBr0G5QAnInUDcVbDBwZWPQK5kfUC04aDBVt6wQBYNS0AAz5DB
0AtHQGwiUECFEJPBYfL5QKKuOkDUxJDBsmqxQBRGMMCP56jBhGdbQCJ0ur/uBKrBIeD1QANF4L+R
Ja/BeHpbQGZSUz9N8bHBC9AOQe+wSz5T+7XB+3EPQfDKKUC4c7nB7iWVQBL6K0Av57nBoqT7QG8p
e0DzJ6TBctiJQAAtLUCmcIPBRQm4QG4S1D/CFYXB1hq+QPiJVUBcOYDBRb/6QNwOl0CcILbB//fS
QJo7mEAwf8DB6l+ZQDxmm0BxBLTB6tzAQFCav0ACz67BtKMbQCUhYUDMi5jBxu4/QOgeEkBRTJHB
szDMQGxnZsBKRKnBVIbxQOzFVMDNNK/BpOCtQN5yJcA1ZqfBAWL5QHJ3AcARArPBrAOUQAhZqb5A
CKvBbOKZQCTCaz+66a/Bm+XhQEKnjT6eb7XB2nm0QG9+pr9MtKvBOuXaQI9Bgb/bSbHBC83BQCHP
oD8dnbTBRL/ZQJCtVEBJtqHB5CG0QKoVZ0C+BafBSwHYQAXwREC8KZbBHSqLQBiqWUB+KZfBm9us
QOrFO0BVTYXBaPjKQDw8KUCmGrnB/SWzQDSRcUCwILPBewWNQFy3aUCyg6HB+Q2wQHgMRkBhEZHB
hhZGQLJ+XEBeXZLBoDf5QM0lNkCqSJHBGtXGQKL4ksDlI6bBzhMEQXesg8Cw17DBtq2RQEGgMsD+
rqLBjVkLQTyz5r+0OrfBaXJtQHcLDL8hyabB88J/QDnk0D/pFrDBvfL/QMF7Az9DQrnBnMj3QAnw
UUDH+KXBrwuLQM5vPkDT4ILBw4e6QHtT+z8G9oLBJaO+QNuXb0ArVoHBSZPtQEVLNUD7iLjBySbB
QNd1KkCsjcHBxJKRQE32cUAjxbXBljrCQOt/l0D/MLXBIOQZQKAMa0B625fB7644QMtnI0ATKY/B
z8TaQGAM97/R8K/BoPitQECA6r9KALHBolj0QKC/Rb9SYrDBmniaQED4Er9UYbLB2Lj6QGBL0T9V
E7PBrIfnQGhKOEBaIrXB/LOgQJA97D/JgLTBGBvhQMBN+D7dCLLBa+yzQABPFj+L7bLBKoC6QMCs
P0B6n7XBkd2IQEA0kUCuqZ7BUZ+wQNS7lUD0P6PB1tGEQKihbEDCJ5XBKuHQQFCjT0D2j5bBDAOn
QPiICkC0z4fB0dmlQPSbi0Ae67bBDnm0QNz7qkA6D67B/K/UQDSDgUBk3p7ByBqpQADWQEDwfpHB
3rX1QAAEJ0C895LByjNDQBDbY0Bl/JDBmoPpQGxZOcDeyK7BeImaQGxfLsBYwbDBy08LQY0ZWb8k
dq/B0ixwQCvK/748BLPBnIcOQZzdxz8uS7LBb0v7QPQmcEBqWbbB5Y58QJoj9z9j2rTB15JaQB4n
oUADA6LBdJzGQNH52z9/S4bBzoedQBffMUCs6IDBnVOPQEHArj9rB4nBfdCuQIfTmEC5wr7B8d+C
QLcBiEBBgbbBdi+gQGK9x0DXPq7BRgDWQIAhtEDkdK/BTkIHQfNjOEDSh5fBplr7QDbMN0CvYIvB
bHKmQP5DW8CXvKPB9lKyQBbnIMDSqZvBtjafQPZ/PsDySq7BKG23QAR8k79JKJ7BSHGcQHBGkb92
TbvBxA+hQICscz7Nqb3BZFu2QLhEJT9POqvBUfejQIQCzr+a0rDBeHewQKgyNL+iu6jBPHCuQKzB
kj9irbXBzSCYQHh3X0ARmqLBhqDCQFzEZEDlqaXB4PuNQK/2U0BjQZfBjGbaQDmIV0DOtZPBLFun
QPQ5SECPSITBMU+xQOwCKUBNjbjBGL7PQJxlX0BdZ7HBHF7jQL0RYkAh9Z3BoN6vQGRVTkB574/B
Bq38QGHRVUBxmYzBtOJQQNAKTUDuhJTByNyiQDgoj8CW1qHBsH23QLgVN8A9lZPBLwmWQJqCa8Br
b7TBJ6TAQNLT5r4lAZjBaCCTQLKY6b8ih8HBaVGaQEXEGD/losXBAC7BQLNoqT/6EaXBaMl9QCi+
Y0Ahe6jBMuLFQCNnREBX23/BxZWVQMmZgEAwpIHBWUaUQPOLDkDio4LB2pS8QHP+LUCB3cDBcPuQ
QGRrREAG7rfBLrPQQPJkkECfp7TB0ufvQLX4QkAvzrHBmAYMQa5DXUDTopDBB4L5QKCjgkCHSofB
bg+LQFVHV8CzHKXBbxpcQCVIHMDQm6DBEiqqQFtiO8D8gqzBQnBfQHC5ir9ml6PB+aLLQFK+jr9M
wLbBrK7NQMDxfT7El7nBZdCPQBt9ND+VP67ByUWsQAt2yL8Yda/B9JuOQAH9JL/sDqvBpJ2vQEsJ
lT8bbbXBOCeZQBV5XEDUWaLBtrrDQOXyW0BqUaXBgx6OQEWnVEADCJfB5jvaQO/xWUDpNJPBsA+m
QAEFUUC76YPB21CyQCzsKEBig7jBTQ3RQC2gW0AkELHBTvbjQHJbXUCPfp3B/HCvQKtnUkAai4/B
5Oj7QIf7XUDS74vBNLZQQMTxTkCLcZTBTXaJQMr/jMAB5KLBvxUtQKS3McDR3prBuWLAQPm5aMBN
7a/B6scyQE4Vwr6RK6DBKBziQGd86L8aKbrBBFrmQCu1Fz+u+r7BxYBwQPq/sj+7MKvBA1iAQLSU
YkA4UajBuULEQLpQT0BBy37Bx/iTQBxphUDEuYHBTPuSQBjlF0BO/YHBQQW+QLPILUBKysDBgSmS
QDs/RUD2+bfBN1PSQOklj0AO37PBlRXxQIfRPkBLprHBksoLQTMaY0Aa54/Bghn4QLF5iEBuMYfB
lX3RQKk7JUBvBH/BIZ7uQBRv6D+kkIXBVyezQP/AWUB5r4TBWfrtQHxl8T/b0JDBxm2TQHOIiEDv
QZXBVVKSQMDhiUCmh6DBjCrQQEd9NECEOqHB8QayQO/DXUDz9o/BxAjQQAgKLkBEBZbBKGqwQIIK
ZUDnnKbBYhHcQKDi+T3AirjBybHAQNQOkD/oWLXB6vvUQJsanr8ibbTBjKGZQAtBsb6HGarBTxGr
QMpYMsC6mqjBMFWtQKB1Z0Bc3rLB8i7JQPAKJECO4bjBwqyeQIqcWT+XUK7BvIC0QCxkt78X0qzB
E9VwQOb3AL/myaLBhezrQKKiCcAJjbfBeWfSQD6RIkCYwW3Bh7UCQQ55lj9Jk4HBOcicQDDofkAq
BIDBDy8CQVC/pj9IdZXBzK15QJAlm0DuqZDBv6N0QD3knECGiaTBeavoQCovFECDyqXBviv2QCqU
qD7V9L3Bmr6QQGV7LsAyyKLBvLahQBugXMCoPa/BIcDHQGJATMCzqaTBl7OLQBe7XEDwF7XB2li3
QPy5k0CQjLXBbhrrQPTGMkA8a7fB3WfCQEIIKUBtfsHB9QdSQIE1uz4d5aHBYwVIQHMxmb+LeqXB
HjYIQcvgQ8D3hbHBn3LrQLs/cMBRM67BB2oHQUKB1b+RQbPBD77EQMGnQ8B9mKzB6TrmQI5b2z5o
fLPB02C/QFyCjz9hEbLB9iOcQDjfdb/o06zBoB/oQJrhdr/Ss7HBpd7CQDbT1L+NWq7BKCKaQNDL
2z4Czq7BWke0QJabB0B/DZnB+GaPQFISJUDA3p3BC33WQC7MREAWqpbB3aSoQPIImkBC/J3BSDDx
QL4erkA82pbBrC9hQNA2mD/+1azBps1YQO3fzD8s9aDBUWGKQP8bfEBBYKDBqVjPQBDUjUBY5ZjB
TzmhQLGoxEDGpaDB5hn4QAvJKkBmxpLBRwIXQVU2ZsBWvrLBqcXsQApBmsDO4azBtpwVQX3Hkb//
xbXBm4CoQCDCZcAiBarBbUwBQQGxdj+/8LXBhQm+QGrkC0DqerPBtOl/QPhmvr/fI6rBQt23QLhl
iT84FJfBYmflQA0JzkBGHJnBao35QLjyrUD7TY7BytoGQalPpkBWoJvBUXtgQOf/BUCj17HB9ckq
QMiqCz+qAK/BRuVdQOwLND876JvBXxMaQITBBECxsZ/B4I2EQNRYx0AVI6TBk+OhQC6M1kAzBJrB
14bbQM1dREAae37BB2QAQdxINEBtR4XBTbS0QG1yWEAJb4TBa3z/QOSTOUAIhpDBbEKMQEwfb0BJ
CpXBJNaKQBLtcEBiU6DBjJXXQAYsVUAN9aDB6w2zQOCeXECVto/BpMfYQGFPTkA+v5XBEluwQOUW
YkBIXqbB5a/YQAUZBj+3G6zB9fXCQAMmjj8bg7TBS2zMQPT8Ub+zrajBiOCZQG4HWL8GcbfBuYmg
QJN2OMDrwavBGpGuQJMEZEA3mrLBYCHNQIsjIkAm+LfBDkyjQJ3PzT4VE7rB+BauQAaiwb/PzK7B
1vh1QLkWv79ijL3BGTzdQIMwp79EtKDBn7TcQKlOQUBVOm3BcScPQcfoI0BdSIHBojuYQPGhZEDj
jn/B/AkOQYfJLUDXJZXBcEdfQKjoe0Dpd5DBf+hZQFCyfUCsXKTB7uz0QDqIUEBQfKXBuVbyQHFo
hj8fIqjBMrWIQF/+T8Adh7HBJoG8QMM2Y8C6x6vB5lqSQIo0N8B5tKPBb5uNQGXVVUDcIbXBa363
QFFGkkA6UrXBgEjuQNBEMUAisrXBc7nJQKzXJkBStcDBRbhgQC4qYL8oQcPB9c2HQNORE8A67sDB
YvjOQM1tNUBqmn3BMtf1QPNPIkC2AYTBKg2rQEXXT0DSyYTBahj5QPq2KkBAM4/BwCaKQMZlcUAA
G5bBVluNQPCweECKUqHBROLYQMa9UEDrXqDBIgSuQAvUV0DQBJDBnGnVQM5LRkASN5XBzJy0QJ7V
Z0ABiqbB9K/OQDgpNj3OPbvBOGPFQCuZjT86nrTBHkPCQMZNp7+KzrfB/LmlQPq2ob56m6fBOJOg
QHnlMsB/8qnB3MS2QF5daUCwzLLBjlXTQK5OIUBxurfBBDGxQBRTYj+Kv6rBuq2sQIFsur9ZBK7B
bjuSQDVF1L4Kn53BHMfKQGPsEMCkjb3BKLDMQF7WL0DramzBqpEIQfc2DUBI0n7BsEKNQB33XUDI
x4DB1XALQZ8PHEA7LpPBpGpYQPBkf0ByKZLBymBjQGCfhUCK86XBU2H3QFgYR0CvQKTBDL/eQL0N
Tj7eycLBOxaQQNYWLMAWOKLBKh2LQBBDUsBft6/BDIq9QKr9WcDN4qjBJxiWQEwGYkAA8bXBe8PD
QC3Tk0C3TbXBKW/0QNz1KkD4/LTBzxDSQCDWJkDRfsDBEhmQQLER/T7WU5rBss9pQEToTL9EeJ7B

> <OMEGA_E>
+JayPpCPyD6oF6I+KHZsP0xafz9EbW8/nK6MP8ILkj/q3Y8/fhCNPw==

> <OMEGA_NBR>
     11536

$$$$
50219781
  -OEChem-04172616093D

 33 35  0     1  0  0  0  0  0999 V2000
    4.5193   -0.5600  -21.4726 C   0  0  0  0  0  0  0  0  0  0  0  0
    4.5328    0.7092  -22.0815 C   0  0  0  0  0  0  0  0  0  0  0  0
    5.6887   -1.3453  -21.4566 C   0  0  0  0  0  0  0  0  0  0  0  0
    6.8891    0.4119  -22.6521 C   0  0  0  0  0  0  0  0  0  0  0  0
    5.7206    1.2045  -22.6604 C   0  0  0  0  0  0  0  0  0  0  0  0
    6.8719   -0.8599  -22.0491 C   0  0  0  0  0  0  0  0  0  0  0  0
    6.8753    3.3820  -20.1305 C   0  0  0  0  0  0  0  0  0  0  0  0
    5.7151    3.5948  -20.8453 C   0  0  0  0  0  0  0  0  0  0  0  0
    6.7821    3.1454  -18.6923 C   0  0  0  0  0  0  0  0  0  0  0  0
    4.3773    3.3808  -18.8983 C   0  0  0  0  0  0  0  0  0  0  0  0
    6.9917    3.4695  -23.1990 C   0  0  0  0  0  0  0  0  0  0  0  0
    5.7242    2.5880  -23.2771 C   0  0  2  0  0  0  0  0  0  0  0  0
    5.7492    3.8030  -22.3501 C   0  0  1  0  0  0  0  0  0  0  0  0
    5.3791    2.9364  -16.6321 C   0  0  0  0  0  0  0  0  0  0  0  0
    4.4667    3.5993  -20.1994 N   0  0  0  0  0  0  0  0  0  0  0  0
    5.5160    3.1192  -18.0972 N   0  0  0  0  0  0  0  0  0  0  0  0
    3.1081    3.4076  -18.3295 N   0  0  0  0  0  0  0  0  0  0  0  0
    7.8091    2.9557  -18.0509 O   0  0  0  0  0  0  0  0  0  0  0  0
    8.4561   -1.9186  -22.0255 Br  0  0  0  0  0  0  0  0  0  0  0  0
    3.6128   -0.9315  -21.0179 H   0  0  0  0  0  0  0  0  0  0  0  0
    3.6323    1.3050  -22.1056 H   0  0  0  0  0  0  0  0  0  0  0  0
    5.6787   -2.3194  -20.9903 H   0  0  0  0  0  0  0  0  0  0  0  0
    7.7957    0.7814  -23.1082 H   0  0  0  0  0  0  0  0  0  0  0  0
    7.8353    3.3902  -20.6253 H   0  0  0  0  0  0  0  0  0  0  0  0
    7.9025    3.0849  -22.7167 H   0  0  0  0  0  0  0  0  0  0  0  0
    7.2696    4.1128  -24.0469 H   0  0  0  0  0  0  0  0  0  0  0  0
    5.1285    2.7041  -24.1945 H   0  0  0  0  0  0  0  0  0  0  0  0
    5.1708    4.6667  -22.7098 H   0  0  0  0  0  0  0  0  0  0  0  0
    4.3136    2.9437  -16.3591 H   0  0  0  0  0  0  0  0  0  0  0  0
    5.8260    1.9749  -16.3393 H   0  0  0  0  0  0  0  0  0  0  0  0
    5.8967    3.7552  -16.1107 H   0  0  0  0  0  0  0  0  0  0  0  0
    2.4288    3.5989  -19.0380 H   0  0  0  0  0  0  0  0  0  0  0  0
    2.9119    2.5210  -17.9106 H   0  0  0  0  0  0  0  0  0  0  0  0
  1  2  2  0  0  0  0
  1  3  1  0  0  0  0
  2  5  1  0  0  0  0
  3  6  2  0  0  0  0
  4  5  2  0  0  0  0
  4  6  1  0  0  0  0
  5 12  1  0  0  0  0
  6 19  1  0  0  0  0
  7  8  2  0  0  0  0
  7  9  1  0  0  0  0
  8 13  1  0  0  0  0
  8 15  1  0  0  0  0
  9 16  1  0  0  0  0
  9 18  2  0  0  0  0
 10 15  2  0  0  0  0
 10 16  1  0  0  0  0
 10 17  1  0  0  0  0
 11 12  1  0  0  0  0
 11 13  1  0  0  0  0
 12 13  1  0  0  0  0
 14 16  1  0  0  0  0
  1 20  1  0  0  0  0
  2 21  1  0  0  0  0
  3 22  1  0  0  0  0
  4 23  1  0  0  0  0
  7 24  1  0  0  0  0
 11 25  1  0  0  0  0
 11 26  1  0  0  0  0
 12 27  1  0  0  0  0
 13 28  1  0  0  0  0
 14 29  1  0  0  0  0
 14 30  1  0  0  0  0
 14 31  1  0  0  0  0
 17 32  1  0  0  0  0
 17 33  1  0  0  0  0
M  END
> <OMEGA_C>
4Z2QQE5bD7/Ox6vBXAyRQMaPNT/eprDBKQq2QLoxrL8kp6vBRnPcQMTn0j6GN7XB0A63QCMsmj+O
SLXBpubbQGUkXL+VZLDByQLcQCNyWEBCC6HB9+G2QLsQZkA1w6bBowbZQLJNSUDtiZXBoRKMQANf
WEDGL5fBJLzfQKsMXkB1l7nBRyy3QNqhJUB8N7rBuvm3QF1kc0D4zLLB7CGsQKnuO0CNDoXB9+6O
QI5bZkB3mKHByYKwQJegR0APx5DBsOpGQGcVWkDhopLBSOT5QMIpPUBYaJDBFEwHQZGU9b87NLDB
ZDhnQMJ0br+cJKjBkndoQGgLpz822LDBtLe1QExwFMAe7KfBCXb5QDEHSD+Y3bjB2Lr6QD/4WECK
AKXB7uD8QH5uRUDAu7XBRqDoQFGcg0D7X8DBzxykQMkQLUBvjsHB3nalQIlVlUCyrbXB3giKQAdl
PEBv34LBtG66QPXI/D/6toLBfLG8QJVUcEC24oDBrHAbQMRUZkDITZjB8lw6QNhXIUDfSI/BERHc
QIQOX7+jmbDBOZbcQNtrzT68bbXBAla2QGq9rL9owqvBZ2ORQKRkNT9stbDBjUW3QLyAmT+raLXB
oAmRQFy9Dr9CzavBOfzbQGMNWEAKEaHBn+C2QOzFZUAayqbBu/rYQAvqSECgkJXB7wmMQOcEWECx
N5fBXeTfQF7XXUB0mLnBIlm3QPSAJUCxR7rBfQu4QCggc0Ab1LLBdgusQILnOUC7H4XB5OyOQOpm
ZkBunqHBlnKwQAm1RkCl0pDBGONGQNz1WUBEqJLBx9r5QMdcPUCNapDBf6I8QJFyl7/A/qTBjpn4
QEmHvb/Cm7DBYoH5QLpZRD9iJbnB3v+1QFaqFMBUBKjBHDBpQHwZpz/437DB37X6QIx/WECWBaXB
vfj8QDkXRUBquLXBDOXoQOeTg0AmW8DBEWSkQIonLUAFosHBMpilQAs9lUBPtbXBzPCJQAwVOkAE
8oLByV+6QBxd+D+x3oLBOZC8QPPxbUCE34DBpm8bQCyqZkDuT5jBiRA6QLslIUBKV4/ByqKGQOAz
ZkBKeJjBBWKTQJYZckBFLaPBLjClQDLHUEB7oZDBEFHdQD0NUkAYPJ7BT8++QOZAZ0C3I6bBaozQ
QJYaR0Csf5PBlnjaQNAExDxGlrjBm4bEQNsckT+9B7XBnJ/OQGtYpb+mSLTBVDqZQI91Kb6CbanB
otisQEQGY0BW/rrB/BzNQCMacEBOw7HBx4fQQGkJIUCpILnBYMagQK3+KcB86qfBdBujQBBGgD88
nK3Bi8uuQA9Lrb/zXazBVslwQImPPb7P56HBnBzhQOfIEsACjrfBUAL6QK6EK0BR0ojBS9RKQKaD
bUBSRZbBHPN3QBnGgUC4JanBdWWbQKvCR0D/a4jBH4b+QLcySkD1aqDB0tHzQEjw9D3maL7BL2eL
QB1WUkBpNbnBLu6tQHaChkAaDcLBWVTlQGrrkEBoObPBDPLqQPHfIkB98L7B5cmHQEFAH8Bh3aHB
aeeTQPknUsBDY67B3Tu8QEtzSsCKMaTBLkVaQNbvPT913qDBqaFBQERsR7+qfaTBdnndQPZBcb+e
abLB2nzbQM5Rqz5EK7fBrnO7QFcis78E+avBs6uTQHL+JD+t2K/BVeq2QFC6kj/NubXB37uWQDht
Gb/Vl6rBar6rQIrTmEAj85/BHde0QEnda0A4SabB40SpQEOXkkAJTZTB/022QJ9kDkBAVpfB7ofe
QCXbXED9f7jBw1W2QKQqJUAK77nBq0y1QCm1dECxcrLBIVKqQIrXQEBdloTBELC7QIO7G0DNnaHB
3lSsQDOVUUAfPZDBwPm6QPh/aj8guJPBpbSjQJ2isUCod47B1RRUQCqXlb9wN6HBTBj5QGUbyb9f
tLPBjfb1QH10MT+W7LvBeoW9QD00F8DZGKjBNMpsQHmXmz++Yq/BM46mQLr/t0CNcqPBlTn6QIaf
Q0DgE7TBE8bpQEKqgkAEIb/B7ZmlQDjrLUAcmcHBhOOjQP4glkBsp7XBCFCtQN1e9z/YHoPB9aHE
QNC9YkCFj4DBsIWLQIevV0DAbIHBLQvCQCNboz6u45nBCpbSQINpYD8bVI7BHHeWQL68H793rqrB
xYyTQIicIj92sq/BfFm7QNUetb96FKzBMWDbQMExrz5iDbfBk8W2QPMSkz8IhrXBKVzdQKzbcb/5
d7LBETarQMkwmUDQ7J/Bnmi0QLKBbEAUPKbB7SWpQK4ok0A7RJTBUsK2QC2fD0DqPJfBK7rdQBF3
XUCpfrjBGrq1QLURJUALz7nBYI20QIjvdEADZbLBr0arQFazQkDBfYTBh6+7QFihHEBriaHBL8Os
QOfxUkCBKJDBhOe7QIYycD+clpPBeHajQFtEskA6do7BEvYGQZyxA8B8B7XBDON4QOxpe78rxaXB
GsRsQGrVmj93GK/BV5O9QBJmGMCkQqjBM+P1QBc2Nj+IvbvBnaalQNE/uEBDc6PBG6X5QOrvREA3
GbTB1Z7oQP7ggkBlLb/BaMGkQN4eLUDQc8HBKNKiQOEElkCGnLXBdqauQLVX+z+l+4LBTpTFQLlG
ZUBAjYDBRX6MQO4bWUBfRYHBkeDCQGj5rT59wZnBw7zTQFpTaD9pQY7BS3beQLoiYr9GWrDBhnXg
QNHrxj6SLbXBXhi4QLNqqb81k6vBGFWVQHAuQz9CsbDBauy7QA3pmz8XRLXBHZKTQGiJ/r6uuavB
h4yLQImvakBgMaLBLVmzQM3SZECV5KbBHseHQBzvWkC/qJbBIrzUQF1OR0DvTpbBvNHjQHPBYECn
JLjBjIi9QIhNJkB/MrrBpPu3QGA6dEDc1LLB0iGsQGpCQkBZB4XB1tDXQBK/U0AVt6DB9BWtQG/7
SEBa25DBLn76QD7dOEDtvJDBuuJIQE2TXUDLZ5LBmLk/QN+3iL+oEqXBr1f6QE3Bwr9FULDBMuT9
QN1ZOj9izbjBcrK2QAfSEsDozKfBZiRyQKr/sD/4AbHBv2NfQAaPekAr6KbBZcL+QIILSkD6PbPB
w/HvQMkphUDUkL7B1ciuQMBbLEDOJsLBYxamQPFQlUC4LLbBX3fMQL7tM0ArDILBLBChQME1f0BZ
moHBxiWWQKenDkBRqILBdZkJQQBbOkCm0ZXBGkb+QDFMZkDzLovBMOOSQM0TBr9t6KvBjI6UQGoX
Pz8OvbDBLqi3QLRJq7+0u6vBzOHfQBO8yT4EIrXBNju7QJ6dmz88OLXBVAjeQM3QYb+HaLDBCHCL
QECgakBPKaLB0jezQD2UZECX3KbBfqyHQE0FW0DLoJbB2JnUQCLSRkBgSZbBVnzjQAAnYECuI7jB
vuy8QGUyJkBNJbrBxM+3QP0sdEBMybLBXvyrQH5SQkCE/4TBUqzXQNssU0DlsaDBbPesQCnvSEC7
05DBilj6QMr/N0A1upDBhbdIQAEIXkBuXpLB28YHQWD4/r9EXrDBVu5qQPaWX79WV6jBIm1wQBuE
rj/pBLHBnXO2QL3+E8A4BKjBv1X9QM9CPj/Br7jBSi5fQJuJekA84KbBIW/+QB4ZSUAtRLPBTaPv
QNTEhEDSk77B8BCuQEtoLEDcFcLBlgqmQBZqlUCbG7bBJUzMQK/bM0AAA4LBqfygQKpbf0D7lIHB
Be+VQBfZDkAzn4LB0IMJQRszOUD00JXBAUf+QOtqZUBqLYvB8k6ZQMzoiL8ZerjBqp6iQAvGcD7W
EbzBJB2nQDENv7+lSq7BxmDKQH3mJj/nqKvBcuG6QFjsjj+2pLXBp1K/QH9ZH7+q1qfBEsOQQGLb
ZEAEZqLBkfi5QIgvZkCKT6bBgGWKQNBgVkA25pbBkcPXQDK0T0BmG5XB4LTsQKD6UEATubbBjk3D
QBVbIkAoyLnBz8zBQPNEcUB/M7LBvR6qQPXyO0BgwITBvzbdQIZgX0CaYp/BFJKuQOZxSEAFdpDB
w3D8QCw1RkCt5o7B9ONLQFElVUC2QpPBSinRQO3Zk7+325nBvY6HQPWC37/hir3BrSGXQIQcED/r
yMPBbCOfQIbQHsCRcqvB/fbeQPeopD9P7abBo4lrQEo+bkAuqqfBnfoBQeLFMUD4Y7HBU9v9QCIj
d0CXv7zBSN23QI3TLkD89MHBfF+1QC9ClkBgzLXB1urJQFEUMkAeL4HB8iebQKbtdEB8L4HBQvmV
QH6SA0DgMoPBFS0LQY04TUBGg5PBhqv8QFieckAVJInB

> <OMEGA_E>
ULg4PiCnOj6PXoE/AlOOP4Shjj8sHxY/uIoWP8h+QT8=

> <OMEGA_NBR>
     16921

$$$$
50219782
  -OEChem-04172616093D

 43 46  0     1  0  0  0  0  0999 V2000
    8.7950    4.1808  -14.7309 C   0  0  0  0  0  0  0  0  0  0  0  0
    9.1161    4.8404  -15.9330 C   0  0  0  0  0  0  0  0  0  0  0  0
    7.6925    3.3059  -14.6794 C   0  0  0  0  0  0  0  0  0  0  0  0
    4.1729    3.2486  -19.2463 C   0  0  0  0  0  0  0  0  0  0  0  0
    8.3356    4.6260  -17.0847 C   0  0  0  0  0  0  0  0  0  0  0  0
    6.9082    3.0903  -15.8284 C   0  0  0  0  0  0  0  0  0  0  0  0
    4.9932    3.3076  -18.1095 C   0  0  0  0  0  0  0  0  0  0  0  0
    4.7275    3.4412  -20.5220 C   0  0  0  0  0  0  0  0  0  0  0  0
    6.9445    3.6547  -19.5391 C   0  0  0  0  0  0  0  0  0  0  0  0
    7.2237    3.7483  -17.0423 C   0  0  0  0  0  0  0  0  0  0  0  0
    6.3797    3.5554  -18.2446 C   0  0  0  0  0  0  0  0  0  0  0  0
    6.1297    3.5781  -20.6857 C   0  0  0  0  0  0  0  0  0  0  0  0
    6.9412   -0.1210  -22.9558 C   0  0  0  0  0  0  0  0  0  0  0  0
    6.3229    1.0517  -22.5817 C   0  0  0  0  0  0  0  0  0  0  0  0
    6.3526   -1.3942  -22.5116 C   0  0  0  0  0  0  0  0  0  0  0  0
    4.6493   -0.1090  -21.3664 C   0  0  0  0  0  0  0  0  0  0  0  0
    5.9646    3.5449  -23.3651 C   0  0  0  0  0  0  0  0  0  0  0  0
    6.7991    3.6449  -22.0646 C   0  0  2  0  0  0  0  0  0  0  0  0
    6.9105    2.4000  -22.9854 C   0  0  1  0  0  0  0  0  0  0  0  0
    4.5828   -2.6051  -21.2003 C   0  0  0  0  0  0  0  0  0  0  0  0
    5.1489    1.0151  -21.8262 N   0  0  0  0  0  0  0  0  0  0  0  0
    5.2343   -1.3574  -21.6623 N   0  0  0  0  0  0  0  0  0  0  0  0
    3.5106   -0.0155  -20.5699 N   0  0  0  0  0  0  0  0  0  0  0  0
    6.8617   -2.4501  -22.8708 O   0  0  0  0  0  0  0  0  0  0  0  0
    9.3946    4.3460  -13.8479 H   0  0  0  0  0  0  0  0  0  0  0  0
    9.9616    5.5113  -15.9713 H   0  0  0  0  0  0  0  0  0  0  0  0
    7.4485    2.7996  -13.7572 H   0  0  0  0  0  0  0  0  0  0  0  0
    3.1157    3.0551  -19.1404 H   0  0  0  0  0  0  0  0  0  0  0  0
    8.5855    5.1328  -18.0052 H   0  0  0  0  0  0  0  0  0  0  0  0
    6.0623    2.4203  -15.7841 H   0  0  0  0  0  0  0  0  0  0  0  0
    4.5650    3.1634  -17.1285 H   0  0  0  0  0  0  0  0  0  0  0  0
    4.0808    3.4854  -21.3858 H   0  0  0  0  0  0  0  0  0  0  0  0
    8.0103    3.7905  -19.6485 H   0  0  0  0  0  0  0  0  0  0  0  0
    7.8360   -0.1062  -23.5603 H   0  0  0  0  0  0  0  0  0  0  0  0
    4.8758    3.3987  -23.3085 H   0  0  0  0  0  0  0  0  0  0  0  0
    6.2035    4.1928  -24.2214 H   0  0  0  0  0  0  0  0  0  0  0  0
    7.6557    4.3322  -22.1259 H   0  0  0  0  0  0  0  0  0  0  0  0
    7.8371    2.3476  -23.5759 H   0  0  0  0  0  0  0  0  0  0  0  0
    3.7324   -2.3558  -20.5487 H   0  0  0  0  0  0  0  0  0  0  0  0
    4.2236   -3.1748  -22.0700 H   0  0  0  0  0  0  0  0  0  0  0  0
    5.3090   -3.2117  -20.6392 H   0  0  0  0  0  0  0  0  0  0  0  0
    3.2477    0.9446  -20.4747 H   0  0  0  0  0  0  0  0  0  0  0  0
    2.7631   -0.5250  -20.9960 H   0  0  0  0  0  0  0  0  0  0  0  0
  1  2  1  0  0  0  0
  1  3  2  0  0  0  0
  2  5  2  0  0  0  0
  3  6  1  0  0  0  0
  4  7  1  0  0  0  0
  4  8  2  0  0  0  0
  5 10  1  0  0  0  0
  6 10  2  0  0  0  0
  7 11  2  0  0  0  0
  8 12  1  0  0  0  0
  9 11  1  0  0  0  0
  9 12  2  0  0  0  0
 10 11  1  0  0  0  0
 12 18  1  0  0  0  0
 13 14  2  0  0  0  0
 13 15  1  0  0  0  0
 14 19  1  0  0  0  0
 14 21  1  0  0  0  0
 15 22  1  0  0  0  0
 15 24  2  0  0  0  0
 16 21  2  0  0  0  0
 16 22  1  0  0  0  0
 16 23  1  0  0  0  0
 17 18  1  0  0  0  0
 17 19  1  0  0  0  0
 18 19  1  0  0  0  0
 20 22  1  0  0  0  0
  1 25  1  0  0  0  0
  2 26  1  0  0  0  0
  3 27  1  0  0  0  0
  4 28  1  0  0  0  0
  5 29  1  0  0  0  0
  6 30  1  0  0  0  0
  7 31  1  0  0  0  0
  8 32  1  0  0  0  0
  9 33  1  0  0  0  0
 13 34  1  0  0  0  0
 17 35  1  0  0  0  0
 17 36  1  0  0  0  0
 18 37  1  0  0  0  0
 19 38  1  0  0  0  0
 20 39  1  0  0  0  0
 20 40  1  0  0  0  0
 20 41  1  0  0  0  0
 23 42  1  0  0  0  0
 23 43  1  0  0  0  0
M  END
> <OMEGA_C>
crgMQXPJhUCXsWvBZtsRQevkmkCB7X7BWSn2QEWTU0D33mrBvoiFQIjoT0B4+JnByV4FQWMIlECP
rYjBBRDdQLPHRUAsQX3B6MefQDGvU0As4JDBxkeXQCc8XED/LKTBMjneQInmaUAFUJzBPijnQOnk
b0CuVojB3ibMQDeMY0D09JHB0CbEQHf/ZEBGfKXB7B3eQDC6971jpbfBZ1XKQGifhj86p7TByUjL
QJh2sr/HF7TB0saUQDwi37157qrBDN6+QMvfYkDM67rBN5LZQD9FaUBZhLDBzCLdQNyYGUAn4rfB
qqaSQFy6JsAtmqnBbsOkQLzugT8UnK7BIH+nQPC9rb9QTK3By61gQIBqfbwUj6TB3JLbQB7PHMB0
97bBKlAWQa0Si0DikF3BumIfQURcsEBPin/BWlruQPArM0CDHVzBqWdHQFaHQ0B3H5nBEF4JQc0/
pECWCpDBc/7BQHrmGkCEi3zBfxSSQCR1SkAlB4nB2JWCQC8RX0AdFqvBOSoAQQyXckAtMJ3BUcD6
QGBu2b19e7zB2wacQJOEWUC9d7rBB4PGQEorhkBtxcHBmvv0QGqhikDmAbHBSMn6QEM+FkCLm7zB
at9uQOrFFsC3Y6TBoyeHQGAvS8Bmj7DBUOOpQCmMTcAeHaXB1tlPQFHUcT9IzKPBitYwQBZoBr/D
96fBpEcWQQDL2z+0NnjB/kUaQWA8vD87BofBaZwDQQDpGUC+EHLBwEyGQCBIXkC8CZnB45gLQWAC
9D+U4Y7BWMfpQCi0NUCw2oDBVhClQPjlRUAMZZHBVc6SQEghckCsjqPBXEjdQBjYU0Du157BWjvx
QADUJUB75YvBMgbRQEDrQEBYJJTBCk++QEima0AClKbBsC7aQAAwpD2CE7jBKIXEQCCxmD/mmLTB
hKLNQGjhnL9i1LPBUPyYQAB+vL1M4ajByt2rQEAFY0CJibvB1LXLQKCmdEBESbLBuhfQQCh9I0CQ
MLnBKlmeQMSuJcCk4KfBsjijQCAOiT+wFq3BlNCtQCB1pL/o7qvBHKRwQABC0b3ZT6HBzNjeQKTs
DsCwXrfBpoAhQQeZsD8VPGzBvJ0oQWI9cj9lZYnBY40AQQZsJkAvWWHBneZJQGbCYUA20JbBdNgO
QZbC2z8PO5fB+DrNQLFzV0AU2HzBehCbQNTNNkClV4nB5ll2QCorg0B+VanByJX+QD0IUEByGqHB
xeDzQGLZKj7vz73BA4WKQPOdUUAXv7nB09isQAs5hUDi0sLBwXTjQJJ6k0Bt6rPBW77qQIn8I0Ao
8L7BRZWFQG7/GsCnxKHBGMGQQAfrSsAeh67B5ze5QEItScDZUqTB0sBaQPsEVD9tQaDBBgBBQPtK
ML+83aPBwgflQIFZ6r94P4jB7mvZQHZy/r4JVIrBjlbjQGNtMsDBhJDBOC+ZQGrBib+C27jB6DjM
QOCDAr73rJTBwIHWQFpTGsBr55rBroemQH23wb8Fr67Bu5OiQASwbT54UbzBmELJQGdZIj9ewavB
ijzLQMsHib8pFZ3BHSi+QIg3Jr+y+6fBkXi6QE2IjT+6wrXBNEqRQI2AZEArb6LBNZW6QA3VZUAt
SqbBpKqKQC82WECT6JbBMhPYQFyQU0DY9ZTBrVHtQN/RTkBVrLbBTpbDQCChIUCxzrnBd5vCQOJh
cECbL7LBwGGpQLJIP0BOsITBabfdQEsLX0A0Up/BZrmuQEZWUUABRJDBU5j8QKvhRkCWyI7B9zZM
QFsGVEAiX5PBmjnvQLTFB8CSU4DBLKLaQKpfdT5SBITB1+jrQFYcdMBH5I7Bh62HQPCK3794B77B
PLPCQOGOZD97NpbBnErVQPmMScChNKHBQLCeQFyrIMDeAKzBGmyXQA+hET8RCsTBxG7dQKdgoj9z
6abBQ8lsQElTbEBSxafBmBoCQdKvLkAmVLHBfeX+QDOZdECwqLzBWmy4QIvOLkAp/cHBI8W2QA8M
lkCdybXBhv/IQBVBPEC31oDBuVSWQEaGckCr+4DB3deYQJOvAUD1qIPBWD4LQTWrSEC0epPBJKf+
QCj8dEA6QonBFG/9QELL5b9P2IrB/2DvQD3A8L73Q4zBiw33QFW0L8DdBpPBeUGRQKEgh79SfLfB
FSvbQCiJ0b1H4ZXBLhDjQKu0F8Aer5zBPZilQLwUv79dD67BoU+XQNk1hj7mLrvBZhzIQCr0LT8j
aKzBiFbVQD3chL/HN57BW7rAQN7nHb9YXKjB16ayQK22kj+CorXBsEjfQA08ZEBTB6DBTMi6QO7l
aUBqO6bB6sDaQM+AVkCXfZTBrbCNQJFDWUBlJpfB34/kQGj8UUBshLjBtqS4QIlvJEDy67nBY5G9
QA3FcUD2U7LBT9SqQE7VP0BnqITByxGSQIEwZEBOk6HBwlixQFzNUkDVK5DBsGBIQOJ2VEB5J5PB
aNn6QH0eSkACDY/BaIsGQVhjBcBKf4PBGxX0QI0nhT58AobB/8IAQTvycMAc5JHBtt55QBzW3b/8
5bvBDvDPQNQ6aT/m5pbBhDzeQIOURsAC66LB2G+gQGPpH8BmMKvBPPCGQCb7GD+cTcLB/JPeQETu
qT8WYajBMZb+QPbUaUB1n6PBFsL+QON6MUAYRbTBmdLxQM2xeEDeE7/BsDCoQAA8MkDvgcHBisOv
QCmmlkABhLXBTmGIQPHIP0Cc2YLBYmm4QMCkAEASyILBvN+6QA0AcUChmn/BDJUeQNVnWkDAKpnB
Fdo/QG7zG0DSjY/BpgcSQRd/I8BCZ5PBeskZQRQvzr8fzprBznf4QPNdOsBEdZPB1tCNQAJWW7+j
dLXBxMULQYYKg78IRKLBGk/cQB/kFMAI55rBMIypQH0xur/X/K3Bui6WQIo84j4/QrnBIePVQCOo
DT+nDa7B9I/rQEoCsL8PYqLBtOnNQE3JQL9yOqrBVFy6QN3Ikz+1oLXBz06QQCXGY0AnaKLBYk25
QDeNYkCCdabBGTqKQKSKVkDi45bBuaLXQA/hTUBNSZXBsyPrQDRFVkCPVLfBEhXCQNgbJEAF87nB
5ULAQCO0cUCZTLLBvXaqQK4kQECiuYTBP8rcQOaGWUDOqp/Bt5GuQMilSUAnfZDB2Xf8QBrLRUBt
G4/BTsBLQLx7VkA5L5PBI8scQW9MQMDRro3BhYAqQZghq79wwprBH5zsQIm+aMBgx43Byx9kQA6b
sr8rRrjBwswRQZVBmr7U76fBMem6QMOpJsCP6JrBDRGjQDL5HMCeHKvB8cmAQERVZT+c/b7B4lvx
QMawjD/9JqvB72dqQPpCbkC2mqfBOgkCQcTqOEBdUbLBsjn6QM18fkB7fb3BZ/G0QJ4kMEA0+cHB
zNGxQMUOlkA/obXBOlfKQNanNkCiL4HBstebQLs4ekBCWoHB1SaWQJWBCECI6YLB7iALQRpkSkD2
zpPBoC39QLtRdEDbnYnB

> <OMEGA_E>
YiKXP3WckT98GnA/iAQSP9T1Yj8=

> <OMEGA_NBR>
     21010

$$$$
50219784
  -OEChem-04172616093D

 46 49  0     1  0  0  0  0  0999 V2000
    4.4421   -3.4258  -18.4504 C   0  0  0  0  0  0  0  0  0  0  0  0
    5.3389   -4.4961  -18.5992 C   0  0  0  0  0  0  0  0  0  0  0  0
    4.5364   -2.3119  -19.2975 C   0  0  0  0  0  0  0  0  0  0  0  0
    6.8064   -0.5256  -21.5963 C   0  0  0  0  0  0  0  0  0  0  0  0
    4.3733   -0.3719  -21.4982 C   0  0  0  0  0  0  0  0  0  0  0  0
    6.8481    0.5951  -22.4219 C   0  0  0  0  0  0  0  0  0  0  0  0
    4.4216    0.8009  -22.2612 C   0  0  0  0  0  0  0  0  0  0  0  0
    6.3146   -4.4646  -19.6113 C   0  0  0  0  0  0  0  0  0  0  0  0
    5.5698   -1.0493  -21.1633 C   0  0  0  0  0  0  0  0  0  0  0  0
    5.5165   -2.2598  -20.3194 C   0  0  0  0  0  0  0  0  0  0  0  0
    5.6594    1.2819  -22.7248 C   0  0  0  0  0  0  0  0  0  0  0  0
    6.3999   -3.3718  -20.4991 C   0  0  0  0  0  0  0  0  0  0  0  0
    6.8928    3.3179  -20.1652 C   0  0  0  0  0  0  0  0  0  0  0  0
    5.7364    3.5550  -20.8821 C   0  0  0  0  0  0  0  0  0  0  0  0
    6.7970    3.1316  -18.7161 C   0  0  0  0  0  0  0  0  0  0  0  0
    4.3971    3.3830  -18.9300 C   0  0  0  0  0  0  0  0  0  0  0  0
    6.9967    3.4995  -23.2602 C   0  0  0  0  0  0  0  0  0  0  0  0
    5.7122    2.6382  -23.3575 C   0  0  2  0  0  0  0  0  0  0  0  0
    5.7695    3.8145  -22.3873 C   0  0  1  0  0  0  0  0  0  0  0  0
    7.4394   -3.4601  -21.6163 C   0  0  0  0  0  0  0  0  0  0  0  0
    5.3996    3.0889  -16.6407 C   0  0  0  0  0  0  0  0  0  0  0  0
    4.4853    3.5386  -20.2403 N   0  0  0  0  0  0  0  0  0  0  0  0
    5.5413    3.2401  -18.1089 N   0  0  0  0  0  0  0  0  0  0  0  0
    3.1238    3.3615  -18.3703 N   0  0  0  0  0  0  0  0  0  0  0  0
    7.8172    2.9291  -18.0672 O   0  0  0  0  0  0  0  0  0  0  0  0
    3.6810   -3.4603  -17.6850 H   0  0  0  0  0  0  0  0  0  0  0  0
    5.2791   -5.3454  -17.9347 H   0  0  0  0  0  0  0  0  0  0  0  0
    3.8542   -1.4845  -19.1694 H   0  0  0  0  0  0  0  0  0  0  0  0
    7.7270   -0.9972  -21.2854 H   0  0  0  0  0  0  0  0  0  0  0  0
    3.4221   -0.7600  -21.1650 H   0  0  0  0  0  0  0  0  0  0  0  0
    7.7894    0.9352  -22.8277 H   0  0  0  0  0  0  0  0  0  0  0  0
    3.5117    1.3345  -22.4929 H   0  0  0  0  0  0  0  0  0  0  0  0
    7.0072   -5.2873  -19.7102 H   0  0  0  0  0  0  0  0  0  0  0  0
    7.8496    3.2709  -20.6640 H   0  0  0  0  0  0  0  0  0  0  0  0
    7.9070    3.0838  -22.8036 H   0  0  0  0  0  0  0  0  0  0  0  0
    7.2745    4.1717  -24.0854 H   0  0  0  0  0  0  0  0  0  0  0  0
    5.1057    2.7852  -24.2633 H   0  0  0  0  0  0  0  0  0  0  0  0
    5.2006    4.6992  -22.7094 H   0  0  0  0  0  0  0  0  0  0  0  0
    6.9881   -3.9325  -22.5013 H   0  0  0  0  0  0  0  0  0  0  0  0
    7.7845   -2.4486  -21.8766 H   0  0  0  0  0  0  0  0  0  0  0  0
    8.2941   -4.0626  -21.2750 H   0  0  0  0  0  0  0  0  0  0  0  0
    4.3427    3.2070  -16.3597 H   0  0  0  0  0  0  0  0  0  0  0  0
    5.7496    2.0905  -16.3395 H   0  0  0  0  0  0  0  0  0  0  0  0
    6.0018    3.8570  -16.1333 H   0  0  0  0  0  0  0  0  0  0  0  0
    2.4402    3.4738  -19.0915 H   0  0  0  0  0  0  0  0  0  0  0  0
    2.9784    2.4876  -17.9065 H   0  0  0  0  0  0  0  0  0  0  0  0
  1  2  1  0  0  0  0
  1  3  2  0  0  0  0
  2  8  2  0  0  0  0
  3 10  1  0  0  0  0
  4  6  2  0  0  0  0
  4  9  1  0  0  0  0
  5  7  1  0  0  0  0
  5  9  2  0  0  0  0
  6 11  1  0  0  0  0
  7 11  2  0  0  0  0
  8 12  1  0  0  0  0
  9 10  1  0  0  0  0
 10 12  2  0  0  0  0
 11 18  1  0  0  0  0
 12 20  1  0  0  0  0
 13 14  2  0  0  0  0
 13 15  1  0  0  0  0
 14 19  1  0  0  0  0
 14 22  1  0  0  0  0
 15 23  1  0  0  0  0
 15 25  2  0  0  0  0
 16 22  2  0  0  0  0
 16 23  1  0  0  0  0
 16 24  1  0  0  0  0
 17 18  1  0  0  0  0
 17 19  1  0  0  0  0
 18 19  1  0  0  0  0
 21 23  1  0  0  0  0
  1 26  1  0  0  0  0
  2 27  1  0  0  0  0
  3 28  1  0  0  0  0
  4 29  1  0  0  0  0
  5 30  1  0  0  0  0
  6 31  1  0  0  0  0
  7 32  1  0  0  0  0
  8 33  1  0  0  0  0
 13 34  1  0  0  0  0
 17 35  1  0  0  0  0
 17 36  1  0  0  0  0
 18 37  1  0  0  0  0
 19 38  1  0  0  0  0
 20 39  1  0  0  0  0
 20 40  1  0  0  0  0
 20 41  1  0  0  0  0
 21 42  1  0  0  0  0
 21 43  1  0  0  0  0
 21 44  1  0  0  0  0
 24 45  1  0  0  0  0
 24 46  1  0  0  0  0
M  END
> <OMEGA_C>
myWOQItAW8B1mpPBDdiqQMrfj8Aky5TB8ymRQJn1E8BeYZrBY87ZQOCQBr9FxazB9PGLQABrvr5R
/KvBjiPbQLRZGD8JYLPBqX2NQJ4HTT/XFrLBDxHKQPbdjsAI5JzB2zuyQBZQhr9YTqnB1oawQD2g
EMA7jqLB3xm1QNYUpD9dzLXB+MvMQOfLV8AP/qPB+pHcQOtYVEBkUqHBk5C3QKCEY0CEDqfBX4HZ
QLVsSEB9upXBB7WMQHmCWECpcJfBmeTfQD/4X0D5FLrBrcq2QLjXKEAq3LrB1p+4QHIhdEA8GbPB
fA/uQHNyXcAy7qzBrsmsQNmwRUASIIXB14ePQKZ3YkAp7KHBPlKxQHNdT0AD35DBq+xHQCYjV0Bo
9pLBUyb6QPl2O0CZiZDBSpVrQPV1XcDLeo3Bb+6oQDoNq8BNeo/BwKp2QPQCvr/8WpnBQEP3QKVK
f7+MSKrB6gNbQKeQQr/bUanB9UL5QOVobz8In7bB5b5gQLvPqj+D8bPB7zrgQOwxqcCArp3BqS/7
QNRVUUD3T6XBBwb9QDVdRUDdbbbBZsjoQNl+hUD9rsDBpmGjQCxBMkA2G8LBh2umQN1flkDirLXB
PZ7fQEKue8CVArTBfBr5QAi2HMBhA6/BkLQEQdEAgsAmM6rBYPeKQDRATUCT4ILBgfy3QLjKBUBU
t4LB9w7AQAPZdkAEEYHB7CwcQDxTXkBku5jBx50+QNQ0H0CMQI/BElCGQGFHfsB4p5nBbHOrQFZ/
ksC0n5XBipiJQLevNcBKLqDBRVePQNB0Ob4pZanBapXUQLBAUr8vz7DBv9iOQCQrcT9HA7DBSbXV
QCiTuT5Lu7bBcdbTQKL6gMDs7ZfBW6KyQBa7iL+gk6nBDwKyQG8lEcCYnaLB9SyzQCSzoD9JH7bB
SsLXQAULN8BOKJ7BJC3dQFaCUkAmEKHBKHC4QKBcYUCl5abBj7rZQLGESEB4c5XBQuCMQM7AVkDd
YJfB3HzhQJ9wWEDjvrnBG8i2QJeRJ0DD37rBtD26QOWMcUBR9LLBM2YCQXkHE8C0oJ/BjG2sQF2s
SUAO74TB7zaQQP7FYUAE1aHBfBexQHadSkAzv5DBFOVHQD5zV0CQAJPB+G36QHnEQECjH5DB7n5O
QDcvjMAQu5fBHQSpQA7orsDVvZDB9NFZQBYUGcAlaaPB02VpQIPIv74oHaTBRb/tQLesxr+pwLHB
mmRlQIh/yD/HbrDBje7wQMWgFj/gvLvBUEbwQBxokMAR5JTBSeT7QHJVTkAs/aTBejb9QNxgOUAQ
9rXBuI/sQJ5dgUCWNsDB/W6kQIgGNECHOMLBll+qQExtlkCFjbXBuLcJQcpAL8Cxz6bBDYgBQXs0
mr+ojKDB2SwMQZjEIsBdlJjBLUWKQAahS0CC0oLBQN66QA3mDkA7tIHB8bK8QIblgEAHhIHBt90c
QEW2YEBbz5jBAIQ8QEdpH0DKaI/B5rQFQVSDisAc46LBYlDvQIzxosC0sJzBCt/9QCGpRsCXMKfB
kmHiQFx6Ur+NirPBiXeiQCR8Cr9VuKjBuozaQNCPzz7QfLjBpDCZQNgPJj91M67BUJDFQHI0lMDt
35rBQzXHQHIDqb/GVavBpTHTQAmyJ8DL0qXBOkW2QMg0kz8TwrXBlp62QKMrW8Ctdp/BEYjYQMzW
T0CZzaHBFdCyQF77YUADGafBqUvXQIhEREB+LpbBucyKQAzKXEBEAJfBNqTXQBQKXUBEjrrBtHOw
QFQfIUACg7rBZT+xQJs+b0DqJbPB4xmIQCcvRcB6L53BSIWtQNxPRUArGYXBefCLQA49ZkCPfqHB
jUKwQN5fT0BS3pDBctdFQIIXYEAgFZLBTl/4QE7PMkDlYZHBLsUVQU/NlcCiXKTBoLX5QE4EwcB5
UZnBZzUKQd6DIMCRravB6bb9QNUVtL9kAbbBtWSNQHBJX7/dZ6LBtI3wQKXlRz9Bb77Brnh3QCK0
lj+Ym6zBfFiwQGu4psC/3ZXBEkv2QFxOSkDrI6bB8Dv2QJRHR0BZKLfBfdndQJdLg0DlfMHBwVOb
QMOiJUA4h8HB69CcQJ5JkkDXxrXBdh2GQEzBHsA11JXBPs91QMNcIMDX66PBYz5rQPVEgMAIKZzB
qGWMQLiGUECeeILB2Ei3QJ8OBEDC34LBtNvCQK3gc0BFNoHBEpQYQLuiaUBwnJfBcrc6QOLWKEDV
So7BdYKUQPFBWcAmLZPBkR2xQLT+jsBFYJTBhq6WQCc9E8A4L5rBAuuQQHgU2L4EaqzB4u3eQEyy
Er+kwqzB1v6SQBSuOj/Mw7LB8d7gQBjsBz8Xg7PBDCrPQErxjsAPwZzBdwq3QALgir9EbanBEie1
QKO6EcA6j6LBMg+7QCXJmj+NNLbBk+LQQJ1vWcBAFaTB746LQAHlYkD+lKLBK12zQE/nXEDfSqfB
xPWHQGKrV0Dn8pbBwerUQDvoREDhipbBMv7jQI0sXkDBnLjBUJ+9QE18JEDfELvBXiC4QGtxb0BX
PrPBlV/wQCkCYcCIZq3BGsmsQKzmSkD7K4XB19fXQKfPTECRCaHByHGtQO4jSkBCC5HBJqn6QFyK
N0BZ65DB8l5JQAuxW0AIrpLBKsh5QKtTWsDK3ozBIgawQOuHqcD02I7BZPGAQPc3vL8uLpnBQplk
QDhlTb92zqnBsCL8QCg/hb/wDarBNwtsQE2Nnz+IA7XBJD//QN4WXT+AqLbBXCXlQO9nqcA1lJ3B
Z/9eQP6gb0BAXqfBCdv+QJOMRUCh1LPB1jfwQDsehUDtwb7B0eeuQIexLEBn/sLBxVimQGuIk0C9
TLbBy4DgQBQmgMBeNrTBSiX7QNvFIMCMyq/BJhEGQT2yg8Bc5qrByEDNQNUXP0AHHILBAIChQJLP
hEBQV4LBgxqXQH+OGECRQ4LBhaMJQfP/NUDtBpbBofD+QHEjZ0DyrYvBhBZ2QIBAksBc1qXB3r2Y
QOGbpsCWF5/BfX+DQIq/UcBzqKnBUtqOQIwcs76Qd6vBPIrYQAbMbr83HbDBVc6TQJAZYj8UkbDB
LPLdQJ5zpj795LTB4ZK+QChTkcCbCZzBmRKxQN9Aor9wQavBT6epQO7EJsDMwqbByn+7QCzKnT8F
F7XBPR7HQEDFTsA+qp/BoviNQKTyaUAGh6LBnGq2QJIXZkAs7abB/QuJQMb2WUDhBJfBAyfWQL4C
S0AtFZbB1TXoQPqkWkBy37fBLGTAQNOQJUBYJLrBo4O8QF5QdEB13LLBT8nvQGBaIsDL0pvB9iWr
QJLyP0BdKoXBATraQDjzVUDjfaDB8wyuQLAHT0Bq2ZDBmUr7QLToOkBfVJDB5jxKQGhsVkBmGJPB
RKY7QLBmosAzEqjB/IqSQLOkxsCKPpzBtmRZQEeXMsBb2q7Bk6RhQJGRGb8osKfBd4DyQPik0r9p
JLDBz1RyQJLJyD/+CbHBU1L8QNp7GD++ZrjBskDVQAs9ocBm35bBggBlQMRseECtcqfBH+UAQXOZ
QEB2x7LBcWT2QMcSgUBfPL7BXq6yQNXYLEAdMsLBrdWsQCJwlkBwVrbBthEFQZ9pMMD8YqHBpGvq
QPuiub/5hJvB5B/4QAPJOcCQypPBKYbLQB0SOUAK0oHBH/iaQCF5dkBRV4HBCsmYQHoaBUBjqYPB
JysKQcw+OkDsTpXBUGv/QF7BaEAH2IrB

> <OMEGA_E>
gHHiPoCP4z6kCOc+8g5VPyCtUz8=

> <OMEGA_NBR>
     25291

$$$$
50219785
  -OEChem-04172616093D

 43 46  0     1  0  0  0  0  0999 V2000
    5.3990   -4.9112  -19.2339 C   0  0  0  0  0  0  0  0  0  0  0  0
    4.5134   -3.8731  -18.8859 C   0  0  0  0  0  0  0  0  0  0  0  0
    6.3724   -4.7068  -20.2305 C   0  0  0  0  0  0  0  0  0  0  0  0
    4.5970   -2.6304  -19.5362 C   0  0  0  0  0  0  0  0  0  0  0  0
    6.4569   -3.4675  -20.8861 C   0  0  0  0  0  0  0  0  0  0  0  0
    6.8313   -0.7006  -21.8471 C   0  0  0  0  0  0  0  0  0  0  0  0
    4.4412   -0.3782  -21.4353 C   0  0  0  0  0  0  0  0  0  0  0  0
    6.8666    0.4951  -22.5724 C   0  0  0  0  0  0  0  0  0  0  0  0
    4.4800    0.8172  -22.1575 C   0  0  0  0  0  0  0  0  0  0  0  0
    5.5653   -2.4220  -20.5473 C   0  0  0  0  0  0  0  0  0  0  0  0
    5.6176   -1.1451  -21.2733 C   0  0  0  0  0  0  0  0  0  0  0  0
    5.6924    1.2605  -22.7128 C   0  0  0  0  0  0  0  0  0  0  0  0
    6.8830    3.3124  -20.1545 C   0  0  0  0  0  0  0  0  0  0  0  0
    5.7282    3.5510  -20.8720 C   0  0  0  0  0  0  0  0  0  0  0  0
    6.7861    3.1107  -18.7089 C   0  0  0  0  0  0  0  0  0  0  0  0
    4.3844    3.3601  -18.9237 C   0  0  0  0  0  0  0  0  0  0  0  0
    7.0081    3.4826  -23.2373 C   0  0  0  0  0  0  0  0  0  0  0  0
    5.7315    2.6204  -23.3400 C   0  0  2  0  0  0  0  0  0  0  0  0
    5.7692    3.8031  -22.3774 C   0  0  1  0  0  0  0  0  0  0  0  0
    5.3841    3.0343  -16.6370 C   0  0  0  0  0  0  0  0  0  0  0  0
    4.4775    3.5572  -20.2284 N   0  0  0  0  0  0  0  0  0  0  0  0
    5.5208    3.1265  -18.1116 N   0  0  0  0  0  0  0  0  0  0  0  0
    3.1126    3.3862  -18.3604 N   0  0  0  0  0  0  0  0  0  0  0  0
    7.8117    2.9491  -18.0573 O   0  0  0  0  0  0  0  0  0  0  0  0
    5.3314   -5.8667  -18.7350 H   0  0  0  0  0  0  0  0  0  0  0  0
    3.7698   -4.0321  -18.1189 H   0  0  0  0  0  0  0  0  0  0  0  0
    7.0541   -5.5029  -20.4908 H   0  0  0  0  0  0  0  0  0  0  0  0
    3.9214   -1.8330  -19.2641 H   0  0  0  0  0  0  0  0  0  0  0  0
    7.2039   -3.3121  -21.6505 H   0  0  0  0  0  0  0  0  0  0  0  0
    7.7316   -1.2846  -21.7254 H   0  0  0  0  0  0  0  0  0  0  0  0
    3.5122   -0.7165  -21.0008 H   0  0  0  0  0  0  0  0  0  0  0  0
    7.7895    0.8298  -23.0225 H   0  0  0  0  0  0  0  0  0  0  0  0
    3.5799    1.3995  -22.2888 H   0  0  0  0  0  0  0  0  0  0  0  0
    7.8411    3.2753  -20.6516 H   0  0  0  0  0  0  0  0  0  0  0  0
    7.9147    3.0728  -22.7681 H   0  0  0  0  0  0  0  0  0  0  0  0
    7.2927    4.1485  -24.0653 H   0  0  0  0  0  0  0  0  0  0  0  0
    5.1337    2.7589  -24.2530 H   0  0  0  0  0  0  0  0  0  0  0  0
    5.2010    4.6841  -22.7104 H   0  0  0  0  0  0  0  0  0  0  0  0
    4.3188    3.0630  -16.3645 H   0  0  0  0  0  0  0  0  0  0  0  0
    5.8270    2.0905  -16.2862 H   0  0  0  0  0  0  0  0  0  0  0  0
    5.9056    3.8811  -16.1669 H   0  0  0  0  0  0  0  0  0  0  0  0
    2.4346    3.5599  -19.0746 H   0  0  0  0  0  0  0  0  0  0  0  0
    2.9220    2.5054  -17.9271 H   0  0  0  0  0  0  0  0  0  0  0  0
  1  2  1  0  0  0  0
  1  3  2  0  0  0  0
  2  4  2  0  0  0  0
  3  5  1  0  0  0  0
  4 10  1  0  0  0  0
  5 10  2  0  0  0  0
  6  8  2  0  0  0  0
  6 11  1  0  0  0  0
  7  9  1  0  0  0  0
  7 11  2  0  0  0  0
  8 12  1  0  0  0  0
  9 12  2  0  0  0  0
 10 11  1  0  0  0  0
 12 18  1  0  0  0  0
 13 14  2  0  0  0  0
 13 15  1  0  0  0  0
 14 19  1  0  0  0  0
 14 21  1  0  0  0  0
 15 22  1  0  0  0  0
 15 24  2  0  0  0  0
 16 21  2  0  0  0  0
 16 22  1  0  0  0  0
 16 23  1  0  0  0  0
 17 18  1  0  0  0  0
 17 19  1  0  0  0  0
 18 19  1  0  0  0  0
 20 22  1  0  0  0  0
  1 25  1  0  0  0  0
  2 26  1  0  0  0  0
  3 27  1  0  0  0  0
  4 28  1  0  0  0  0
  5 29  1  0  0  0  0
  6 30  1  0  0  0  0
  7 31  1  0  0  0  0
  8 32  1  0  0  0  0
  9 33  1  0  0  0  0
 13 34  1  0  0  0  0
 17 35  1  0  0  0  0
 17 36  1  0  0  0  0
 18 37  1  0  0  0  0
 19 38  1  0  0  0  0
 20 39  1  0  0  0  0
 20 40  1  0  0  0  0
 20 41  1  0  0  0  0
 23 42  1  0  0  0  0
 23 43  1  0  0  0  0
M  END
> <OMEGA_C>
ksSsQFconcDw3pnBvW2QQEDgd8A9FpfBkurLQOCdlsD516HBvxqTQJ5YKMAZSpzBr57OQOLqXcDK
FqfBWpraQBZaM7/xxq7Bch6OQKylwb6Xe6vBK7vbQOSA/T5PlLTB0VuPQFo1UT+fQrHBOheyQJAC
G8D4YKTBP8OzQOORkr+2L6rBwye2QCVYoT/Ds7XBQUHcQMj+U0B2PKHBpk23QJxDY0DT+abBqifZ
QKwVR0DNq5XBnUyMQCoMV0CvY5fBh0LgQMTiXkDn5bnBNmi3QEq1J0BYuLrBAZ24QGBlc0DuBLPB
rEqsQGwyQkCiGIXBR0ePQKqoY0DQ06HBJqqwQMQYSECP5JDBKDVHQPC3WEAH4pLBkvn5QE69PEBe
dZDBo5qqQK+7u8A/4ZXBR0RxQCUHgcCa85DBO7vhQCQYsMAX7aPBNPh6QHue6r/nHJrBHYbmQDr5
U8A0NK3BOWn3QC5vpL+Iza3BfsdgQMlrN7+UAajB3UP5QABtVD8cLrjBdxxlQHghsz9qT7LB5On6
QCGfUUB/NqXBhkX9QOaoREAHJbbB7V3pQGPAhECohcDBMUekQCGSMEASBsLBP26mQGnklUDQrrXB
lzOKQNoHREB56oLBdHa6QPHKBUAUSoLB2Pq8QDNkeEDlVYHBRtEbQJHVY0DdmJjBUgE7QARYIECl
ao/BfojSQHCjacAsEIzB5NrzQGDbLsCZ3Y3BnyKtQMhiZsBKTJLBAbvvQBid4L9E25XBCQSpQGia
KMCTXJrBQK+cQAAFt750y6jBPRTqQAAQpbyG0ajBS0GYQAAmIT/coLDBbZvlQEBZcz+Ly7DBrDLK
QFBA2b9UNZzByJzFQNCNLb+3q6TBDnO8QFDBpz9ocLTBZxbYQGDlWEAJfaLBqOGxQCjzaUALo6fB
jQXXQBAYPkCwUJfBHKmKQCACWECVmJfBTirXQIiEbEC0HLvBMQ61QEhnJUBBorrB6dyvQDBGdkAC
v7PB29KtQEgULkAmUIbBVTKLQEDxaECp8qHBjzmwQBiOQ0A/0pHBAM9GQPirW0CSaZLBW6/3QGBC
IkDAI5PBdLHVQEC1jMCp3oXBKlEIQRXdMcC5GInBQ5OTQDW/icAA4JDB+JwEQbqvhb+gK5fBHGKM
QCK2JsC+MZ/B3MGAQG3XYL8036XBbL8EQf1kib6r0KXB8+lxQLtWXj8IwbPBac0AQaFAtj/6KLTB
Ay32QAJNX0C5qabBuQv3QOm0YUCMorfBxivaQAhBikC/UMLBcs2fQEW5IEDUn8HBKoCXQIjmkUA7
kbbBa8CMQI9aNkCbe4PBHMO3QI5y1j80HoXBty7DQPWtWEAKx4HBEi0ZQNhza0DQqZfBEHk5QNOB
IkCAOY/B6vW+QNbKl8Cw4JbBKT6eQCHwcsAbVJXBlSneQEYskcAM0p7B4cCcQI3LKMAQrpvBkJjc
QG25WMA+QaXBpIjgQCSOPb/ba6/B8XaUQJCK6L7BbqvBa03gQFAs6D53NrXB1VuUQMruPT+3PbHB
Tea7QEMEG8AHvKPBkdC6QHQtmb/jUqrBxYy6QJjomj+Q3rXBy6uKQAZlZ0BARaLBfy6yQKT1X0Ap
F6fBAmqHQBJcWkAsrJbBCDvUQDvcREBbf5bBawziQBXJXkDxgLjBw527QDgCJUDhsrrB/GW2QIUN
cUAJDLPBm82sQAz7SUB9CIXBucrWQG0ETkAG+qDBAP2sQFFZSkA85pDBgCT6QONTNkAr/pDBPKBI
QCydXkDqUZLBzx3AQCAwtMAT9pHBST+GQDhmfcDpP4/BbFT3QEdoqMB2+J/BNMSDQFtA9L+qaprB
4m30QMQRT8DqZKvBIKH9QPfFqL8K1K7By5FuQEnGT7+tyqfBIwn9QPcWSz9xK7nBCyNuQBDUpj+6
KrLBtDtdQPeKdkCJ8qbBnBz9QK7RRkCKvbPBqAXuQA/rhEBLyr7BsI+sQPQ0LEAqmsLBYYKkQPsh
lEC6LbbBijrNQF49PEAXEoLBV22iQAJ8hECVFILB1JqWQBN3GECAJYLBQEcJQYwcNUCRKZbBc8b+
QHk3ZUAqrIvB

> <OMEGA_E>
IOXJPsCOGj94bUw/

> <OMEGA_NBR>
     27848

$$$$
50219786
  -OEChem-04172616093D

 33 35  0     1  0  0  0  0  0999 V2000
    5.4544   -1.3105  -21.4729 C   0  0  0  0  0  0  0  0  0  0  0  0
    6.6582   -0.9044  -22.0800 C   0  0  0  0  0  0  0  0  0  0  0  0
    4.3459   -0.4415  -21.4563 C   0  0  0  0  0  0  0  0  0  0  0  0
    6.7532    0.3690  -22.6713 C   0  0  0  0  0  0  0  0  0  0  0  0
    4.4380    0.8335  -22.0487 C   0  0  0  0  0  0  0  0  0  0  0  0
    5.6478    1.2461  -22.6623 C   0  0  0  0  0  0  0  0  0  0  0  0
    6.9560    3.4335  -20.0619 C   0  0  0  0  0  0  0  0  0  0  0  0
    5.8190    3.5778  -20.8186 C   0  0  0  0  0  0  0  0  0  0  0  0
    6.8195    3.2034  -18.6274 C   0  0  0  0  0  0  0  0  0  0  0  0
    4.4145    3.3535  -18.9194 C   0  0  0  0  0  0  0  0  0  0  0  0
    4.7431    3.7112  -23.2131 C   0  0  0  0  0  0  0  0  0  0  0  0
    5.8368    2.6351  -23.2623 C   0  0  1  0  0  0  0  0  0  0  0  0
    5.9763    3.8304  -22.3026 C   0  0  2  0  0  0  0  0  0  0  0  0
    5.3521    2.9584  -16.6173 C   0  0  0  0  0  0  0  0  0  0  0  0
    4.5446    3.5630  -20.2186 N   0  0  0  0  0  0  0  0  0  0  0  0
    5.5333    3.1338  -18.0778 N   0  0  0  0  0  0  0  0  0  0  0  0
    3.1259    3.3487  -18.3934 N   0  0  0  0  0  0  0  0  0  0  0  0
    7.8295    3.0701  -17.9466 O   0  0  0  0  0  0  0  0  0  0  0  0
    5.3810   -2.2881  -21.0199 H   0  0  0  0  0  0  0  0  0  0  0  0
    7.5085   -1.5702  -22.0918 H   0  0  0  0  0  0  0  0  0  0  0  0
    3.4236   -0.7532  -20.9886 H   0  0  0  0  0  0  0  0  0  0  0  0
    7.6786    0.6772  -23.1352 H   0  0  0  0  0  0  0  0  0  0  0  0
    3.5861    1.4972  -22.0356 H   0  0  0  0  0  0  0  0  0  0  0  0
    7.9326    3.4891  -20.5198 H   0  0  0  0  0  0  0  0  0  0  0  0
    4.6149    4.4035  -24.0583 H   0  0  0  0  0  0  0  0  0  0  0  0
    3.7600    3.4763  -22.7791 H   0  0  0  0  0  0  0  0  0  0  0  0
    6.4872    2.6757  -24.1484 H   0  0  0  0  0  0  0  0  0  0  0  0
    6.7140    4.5934  -22.5915 H   0  0  0  0  0  0  0  0  0  0  0  0
    4.2780    2.9270  -16.3818 H   0  0  0  0  0  0  0  0  0  0  0  0
    5.8246    2.0171  -16.2998 H   0  0  0  0  0  0  0  0  0  0  0  0
    5.8194    3.8007  -16.0861 H   0  0  0  0  0  0  0  0  0  0  0  0
    2.4657    3.5144  -19.1261 H   0  0  0  0  0  0  0  0  0  0  0  0
    2.9410    2.4606  -17.9728 H   0  0  0  0  0  0  0  0  0  0  0  0
  1  2  1  0  0  0  0
  1  3  2  0  0  0  0
  2  4  2  0  0  0  0
  3  5  1  0  0  0  0
  4  6  1  0  0  0  0
  5  6  2  0  0  0  0
  6 12  1  0  0  0  0
  7  8  2  0  0  0  0
  7  9  1  0  0  0  0
  8 13  1  0  0  0  0
  8 15  1  0  0  0  0
  9 16  1  0  0  0  0
  9 18  2  0  0  0  0
 10 15  2  0  0  0  0
 10 16  1  0  0  0  0
 10 17  1  0  0  0  0
 11 12  1  0  0  0  0
 11 13  1  0  0  0  0
 12 13  1  0  0  0  0
 14 16  1  0  0  0  0
  1 19  1  0  0  0  0
  2 20  1  0  0  0  0
  3 21  1  0  0  0  0
  4 22  1  0  0  0  0
  5 23  1  0  0  0  0
  7 24  1  0  0  0  0
 11 25  1  0  0  0  0
 11 26  1  0  0  0  0
 12 27  1  0  0  0  0
 13 28  1  0  0  0  0
 14 29  1  0  0  0  0
 14 30  1  0  0  0  0
 14 31  1  0  0  0  0
 17 32  1  0  0  0  0
 17 33  1  0  0  0  0
M  END
> <OMEGA_C>
vYquQCq9p79uyKvBHhDVQPCIZ7/Fo7DBShGLQA4N4r57pqvBhxrYQMruvD7RXrXB/AOOQEpeVT/X
Y7DB+Lq0QNt+nz9NTLXB55feQMq9W0DPfqDB3DS6QH76ZEBmjKbB9DjaQBQFTUDxBJXBdkONQK6f
VkDpWpfBtseXQOyDbUCHtLnBDMe6QAylKEApGbrBiz2/QNYldUCna7LBJ0SrQLRVPUBC8ITB/GyR
QCYIZEDLv6HBIhGxQMiQSEBOn5DB2A5IQMRRVkDJJZPBVIv6QNJ8RECgko/BYDGsQLRwEsDDKKjB
vkXwQJT8yL8IvLDBvRxbQEHQQL+e6KfBsLb1QLpbLT/vFLnBVINlQGylvz/YSLDBldf9QBNOX0Cn
KKTBP62TQLfpjEBOd8DBaqRwQMl7XkCuO7bBaJfPQHI/K0AEMMHBZ9nWQIb9kkBxu7TBu+WIQPtT
O0DZDYPBAmO6QKUYAUD5ZYLBUTi6QBA+c0BqsIDBhM4dQKXrYEAwApnB7zg8QP95HUBGyI/BzuSw
QMoKqL/tOKvBCEHXQFlafb9/iLDBNruOQG4ayr6MIavBrL/bQCq5hD4TmLXBphCTQIhaWj8nP7DB
RAa6QMMbmT9UZLXB8NePQBhSaUCurKLBHte4QFAmaEAT06bBGvaJQGt5WUDmMpfBUv/WQFe7TEC5
zZXB8mKeQETMaECsM7vBEGzCQNLvJECKJbrBHEfBQAg0c0DeuLLBlH+qQGWEPEDPOYXBEh3cQBfr
WEBvLaDBQmGuQD6vTkDA05DByHr7QHrVPEDRyI/B4mJLQC82VUAYfZPBsKutQJrvEMA6OKfB8T/x
QO632b/9uLDBxFpiQBDBJb93IqfBFzv5QDeKAD+CqbnBl1dxQBFrxj/YQLDB+VFpQCmqdUAqyKfB
w5OdQCTeiUAzLMLBJ/Z6QKPlWEBWyrjBKdzaQHUrJ0BdecDBNEzZQHQnkkCKpbTB5JrKQMdMNkAH
tIHBvUuZQJpIcUDkS4HBtLOYQKJ8AECdEYTBfJIKQU87PUAAkJTBiaf+QKIwakBEMorB1lKSQKy+
rb9tEa/B/ACnQMqcF7/7KqfB0MeTQMCfcr8l2bnBYz29QFlhEz/XDarB16eoQKezgD7LrbzBVc68
QCgNhT+1xbTBGTebQPP1WkA536LBNwbGQImfYkB2f6XBnIqPQH14T0AonpfBtinbQOxqWkDBUJPB
7BG2QM6JY0DhmrrBipnSQILXFUDxLrjBnDPVQOiBZkAQCLHBGgKmQCMBSECsY4TBj4jlQN+gY0Aj
fp3BEUywQEHpTUBa84/BfUL8QIh3XUDn3ovBv4VTQIX2RUD/O5XBuVqBQLJ5EMAj4KzBOc6lQJPD
Zr8b5Z7BB+GEQO3Vxr+H9L/B0NDOQOb2jz+9DKTBaDypQP+UET+w78TBFeCCQJ1mXUCE/6jBbE68
QCh7hUAjusHBGF+TQJ7ZX0DUMrnBMM7tQMiqDUBNrL3B193xQCP7hkDlW7LBpNbDQHOkR0CLb3/B
0mqSQFVbf0D/BoLBNCCUQPKhDEAf2YLBQwgMQReoZkAMqY/BSiL3QF3WhkBpxIbB

> <OMEGA_E>
QIPMPWLhDD/i7Vw/

> <OMEGA_NBR>
     30002

$$$$
50219789
  -OEChem-04172616093D

 32 33  0     0  0  0  0  0  0999 V2000
    4.4713   -0.3669  -21.5599 C   0  0  0  0  0  0  0  0  0  0  0  0
    4.7031    0.8980  -22.1384 C   0  0  0  0  0  0  0  0  0  0  0  0
    5.5250   -1.2965  -21.4513 C   0  0  0  0  0  0  0  0  0  0  0  0
    7.0457    0.3061  -22.4840 C   0  0  0  0  0  0  0  0  0  0  0  0
    6.0051    1.2525  -22.5712 C   0  0  0  0  0  0  0  0  0  0  0  0
    6.8090   -0.9616  -21.9254 C   0  0  0  0  0  0  0  0  0  0  0  0
    6.8377    3.3453  -20.1959 C   0  0  0  0  0  0  0  0  0  0  0  0
    5.6647    3.6062  -20.8739 C   0  0  0  0  0  0  0  0  0  0  0  0
    6.7683    3.0928  -18.7522 C   0  0  0  0  0  0  0  0  0  0  0  0
    4.3639    3.3805  -18.9072 C   0  0  0  0  0  0  0  0  0  0  0  0
    5.3894    2.8800  -16.6687 C   0  0  0  0  0  0  0  0  0  0  0  0
    6.3190    2.6303  -23.1492 C   0  0  0  0  0  0  0  0  0  0  0  0
    5.6524    3.7960  -22.3815 C   0  0  0  0  0  0  0  0  0  0  0  0
    4.4345    3.6332  -20.2004 N   0  0  0  0  0  0  0  0  0  0  0  0
    5.5100    3.0766  -18.1339 N   0  0  0  0  0  0  0  0  0  0  0  0
    3.1038    3.4191  -18.3202 N   0  0  0  0  0  0  0  0  0  0  0  0
    7.8022    2.8898  -18.1257 O   0  0  0  0  0  0  0  0  0  0  0  0
    8.2399   -2.2128  -21.8006 Br  0  0  0  0  0  0  0  0  0  0  0  0
    3.4859   -0.6234  -21.2000 H   0  0  0  0  0  0  0  0  0  0  0  0
    3.8877    1.5971  -22.2517 H   0  0  0  0  0  0  0  0  0  0  0  0
    5.3486   -2.2641  -21.0052 H   0  0  0  0  0  0  0  0  0  0  0  0
    8.0310    0.5565  -22.8486 H   0  0  0  0  0  0  0  0  0  0  0  0
    7.7843    3.3273  -20.7154 H   0  0  0  0  0  0  0  0  0  0  0  0
    4.3277    2.8989  -16.3818 H   0  0  0  0  0  0  0  0  0  0  0  0
    5.8266    1.9093  -16.3919 H   0  0  0  0  0  0  0  0  0  0  0  0
    5.9249    3.6858  -16.1454 H   0  0  0  0  0  0  0  0  0  0  0  0
    7.4089    2.7768  -23.1241 H   0  0  0  0  0  0  0  0  0  0  0  0
    5.9693    2.6568  -24.1918 H   0  0  0  0  0  0  0  0  0  0  0  0
    4.6075    3.8813  -22.7144 H   0  0  0  0  0  0  0  0  0  0  0  0
    6.1906    4.7250  -22.6210 H   0  0  0  0  0  0  0  0  0  0  0  0
    2.4193    3.6447  -19.0135 H   0  0  0  0  0  0  0  0  0  0  0  0
    2.8938    2.5257  -17.9229 H   0  0  0  0  0  0  0  0  0  0  0  0
  1  2  2  0  0  0  0
  1  3  1  0  0  0  0
  2  5  1  0  0  0  0
  3  6  2  0  0  0  0
  4  5  2  0  0  0  0
  4  6  1  0  0  0  0
  5 12  1  0  0  0  0
  6 18  1  0  0  0  0
  7  8  2  0  0  0  0
  7  9  1  0  0  0  0
  8 13  1  0  0  0  0
  8 14  1  0  0  0  0
  9 15  1  0  0  0  0
  9 17  2  0  0  0  0
 10 14  2  0  0  0  0
 10 15  1  0  0  0  0
 10 16  1  0  0  0  0
 11 15  1  0  0  0  0
 12 13  1  0  0  0  0
  1 19  1  0  0  0  0
  2 20  1  0  0  0  0
  3 21  1  0  0  0  0
  4 22  1  0  0  0  0
  7 23  1  0  0  0  0
 11 24  1  0  0  0  0
 11 25  1  0  0  0  0
 11 26  1  0  0  0  0
 12 27  1  0  0  0  0
 12 28  1  0  0  0  0
 13 29  1  0  0  0  0
 13 30  1  0  0  0  0
 16 31  1  0  0  0  0
 16 32  1  0  0  0  0
M  END
> <OMEGA_C>
sxSPQFPUu77EeqzBeH+WQDzgZT9bG7HBBM2wQEPzpb8snKvBgHbhQFK3nD4j37PBHyrAQGpToD/J
kbTBn+PZQOYtdr8qZ6/BRs7aQKYYVkAhkaHBNEW1QFvLZkC8/abB6ZXYQCLxRUCXBJbBDqWLQPBZ
WED8QZfBLHasQC1ROEBoWYXBEjXKQIdWKECGMbnB1+C0QCDxckBJDbPBIueNQByGaEBnmqHBqVGw
QKHnREBHEpHBlKRGQPTRWkDAj5LB46v5QOPxOEBbAZHBctYDQa6eDcCnZ67BWBhfQKKXH7+rmanB
RtB4QPNszD9iA7LB8SerQHfnEMCuCqjB5n4AQTJ3Dj/cybbBPRn5QNfxVEApuaXBQXyKQBaHOUDV
DYPB33O6QFxi9D+uIoPB65i9QJjka0C8KYHBmhXtQEi3MUA0/rjBqwS/QE0JKkDKiMHBqHCTQJ1m
eEALt7XBKhnGQPMyl0DZ97TBitYaQJJCaUCQG5jBjDM5QEWlIUAsYo/BwzjaQEVagL/Qo6/BJ2ri
QBmdiT7BA7TB9EOxQNHUp78tqKvBGOOXQE3vZT9CArHBIprBQCJJnj8Qi7TB2CiQQHYKuL48TazB
U8XaQGSOVkBSjqHBFEq1QMNTZ0A+AKfBu5fYQGSAR0D7/ZXB1rWLQDe1WkBmOZfBAX6sQL+JOUAI
VoXBohbMQFK+J0CFA7nBZA61QKW2cUBEGbPBD9qNQOuwaEAboKHBGaOwQPnuS0AB7pDBeYlGQBlh
WkCylJLB+n35QIxGN0AQDZHBTo4yQC0HQ7/oe6bBfWHzQNcB37/aVq/BHf0AQXNRAT+i+7bB0jur
QEfEEcBqG6jB/QF8QN5kzT957LHBYgn5QF2QVEA5uKXBQdSKQGtoQEBn6YLByEG3QLKF7z+zuYPB
wlPAQFPLZkAexYDB/NLuQP3qMUA/X7jB1ZPCQOxwKUDZe8HBzKGTQM4ldEB317XB8ivFQNgVl0B8
H7XBm1YaQJ9qZUAmM5jBQrU7QD5hIUA5NI/BL0/ZQOE1hL8CCbDBULHiQL2xbz7wWLTBL2uwQNGw
pb/2zKvBJiKZQLSscD9cDLHBWibDQFo2nz88jrTBtmCQQKTunL41SazBn5uLQFNGa0BMOqLBNHiz
QCMXaEDn86bBN+iHQD++WkAkv5bBc/DUQMgdSEAEbpbBcp+rQMqnOUBtRoXBxqvPQGTFKEBdf7jB
BRW3QMoKc0CBB7PB7DDYQNSuV0DizKDBaB2tQHsjR0CtBJHBmH/6QMAaOECF1pDBf/dIQP8FXEAF
iJLBMn4zQGZyIr/SCqbBs33xQCf45r/Q+a/B3xkBQet03j6Kg7fBZqGpQAkhEMDcLqjBK6J/QB4g
1T8sB7LB3BhfQEDCeUCB76bBFfPLQMYFK0DVT4LBarafQJoGdEDUW4HBnBaWQFDsA0A/coPBiQ/y
QFXYMUBnALfB3nnJQLPsK0C0JsHBF6WWQF8YdkDobLbBfwTIQIanl0APsbTBqLIJQVobO0CB2ZXB
uwv+QLHkY0BIEovBKeWOQJzFqL5CE63Bh9eYQGpmbz8QYLHBEf2uQNLVp79EJqzBVBvjQIaedz6C
sbPBio3DQMyZnz9oR7TBveDYQNQbhL85qa/BeISLQH53a0AsNaLBrW6zQCaBaEAZ6KbBK9OHQNJN
W0AbtpbB/+LUQF6tSEDNY5bBAsKrQCbFPEClMIXB+IrQQJirKEAoObjBrla3QMD3ckCZ97LBJB7Y
QJwfWED5wKDB+hetQLJUSECR9pDBY3j6QDDzN0Bl15DBcsZIQKxFXEAPgJLBKwgCQUjJF8AE2q7B
7U9dQGvWC79DfarBgLt/QCSn1T9jdrLBGoCnQCGvEcDXwKjBLKYBQVrp5j66WrbB2+ZeQNJ7eUBW
76bBERrMQCReLkCOOILBOgWgQErbd0BFaYHBFyaWQL2DB0B0NIPB4sLyQNDaMUAngrbBDkPLQARi
K0DE6sDB+QWXQAsOdUBFcrbBXwTIQAm7l0CwqbTBxKQJQSR2OkDR4ZXBNFb+QLqtY0CdFIvB8KiK
QFoQb0CmvJXBLhSNQHbdd0Bh86DBM/6uQBp4VUAf3o/Be+bYQKoNUkC2UqDBjBu0QKxqaEAVWKbB
agbWQPRdRkAyL5XBuE3NQHDViz1dTrvBEWjEQM/djz9glbTBFozBQJPupL/12bfBOVimQLqZoL5b
cqfBo6OhQJzEMsCh16nBZ2u1QABVakDYnLLBgtzRQCa/IkD/sbfBNDexQFYdZD8gm6rBJvmsQIZ3
ub8p8K3BfdKTQKzC2L56Wp3BzcLJQBRmD8CFrr3B1X0DQZJhIEBcYI3BYthZQG/0e0Ddo5HBPBJi
QCQ7hUDybqXBCOmsQFtxTUBLTYfB0Ev3QP7xSUDOTqTBqZLcQAgbbz6M8cLBv+KRQJWBLMAGA6LB
6sCLQKNPUsDRfq/Bf92+QNBkWcDu+qjBs46UQCKxYkBAnrXBlA7CQOFrlECYJLXBQBvzQBezLECy
FbXBRQHQQFaSKEDtc8DBIcaRQK8/9z7DAprBZwptQEzbUL+RC57B

> <OMEGA_E>
8FZHPnCJSD5Gdxs/XPMbP8wbjD8=

> <OMEGA_NBR>
     33374

$$$$
50219791
  -OEChem-04172616093D

 42 44  0     0  0  0  0  0  0999 V2000
    4.7669   -5.3271  -20.5720 C   0  0  0  0  0  0  0  0  0  0  0  0
    5.7963   -4.5804  -19.9596 C   0  0  0  0  0  0  0  0  0  0  0  0
    3.8731   -4.7027  -21.4630 C   0  0  0  0  0  0  0  0  0  0  0  0
    5.9397   -3.2074  -20.2407 C   0  0  0  0  0  0  0  0  0  0  0  0
    3.9995   -3.3291  -21.7274 C   0  0  0  0  0  0  0  0  0  0  0  0
    3.9782   -0.3830  -21.5270 C   0  0  0  0  0  0  0  0  0  0  0  0
    6.4004   -0.5982  -21.7976 C   0  0  0  0  0  0  0  0  0  0  0  0
    4.0258    0.8999  -22.0745 C   0  0  0  0  0  0  0  0  0  0  0  0
    6.4461    0.6914  -22.3598 C   0  0  0  0  0  0  0  0  0  0  0  0
    5.0305   -2.5770  -21.1145 C   0  0  0  0  0  0  0  0  0  0  0  0
    5.1528   -1.1545  -21.4344 C   0  0  0  0  0  0  0  0  0  0  0  0
    5.2490    1.4253  -22.5300 C   0  0  0  0  0  0  0  0  0  0  0  0
    7.0220    3.4546  -20.0343 C   0  0  0  0  0  0  0  0  0  0  0  0
    5.9031    3.6023  -20.8199 C   0  0  0  0  0  0  0  0  0  0  0  0
    6.8544    3.2512  -18.6000 C   0  0  0  0  0  0  0  0  0  0  0  0
    4.4551    3.3225  -18.9554 C   0  0  0  0  0  0  0  0  0  0  0  0
    5.3464    3.0234  -16.6182 C   0  0  0  0  0  0  0  0  0  0  0  0
    5.2578    2.8066  -23.1488 C   0  0  0  0  0  0  0  0  0  0  0  0
    6.0908    3.7967  -22.3188 C   0  0  0  0  0  0  0  0  0  0  0  0
    4.6117    3.5444  -20.2521 N   0  0  0  0  0  0  0  0  0  0  0  0
    5.5582    3.1584  -18.0804 N   0  0  0  0  0  0  0  0  0  0  0  0
    3.1551    3.2444  -18.4633 N   0  0  0  0  0  0  0  0  0  0  0  0
    7.8505    3.1565  -17.8927 O   0  0  0  0  0  0  0  0  0  0  0  0
    4.6644   -6.3804  -20.3564 H   0  0  0  0  0  0  0  0  0  0  0  0
    6.4762   -5.0632  -19.2734 H   0  0  0  0  0  0  0  0  0  0  0  0
    3.0937   -5.2775  -21.9411 H   0  0  0  0  0  0  0  0  0  0  0  0
    6.7413   -2.6413  -19.7896 H   0  0  0  0  0  0  0  0  0  0  0  0
    3.3078   -2.8449  -22.4008 H   0  0  0  0  0  0  0  0  0  0  0  0
    3.0398   -0.7845  -21.1741 H   0  0  0  0  0  0  0  0  0  0  0  0
    7.3113   -1.1580  -21.6449 H   0  0  0  0  0  0  0  0  0  0  0  0
    3.1238    1.4893  -22.1486 H   0  0  0  0  0  0  0  0  0  0  0  0
    7.3914    1.1188  -22.6600 H   0  0  0  0  0  0  0  0  0  0  0  0
    8.0086    3.4886  -20.4723 H   0  0  0  0  0  0  0  0  0  0  0  0
    4.2684    2.9654  -16.4071 H   0  0  0  0  0  0  0  0  0  0  0  0
    5.8399    2.1082  -16.2593 H   0  0  0  0  0  0  0  0  0  0  0  0
    5.7742    3.8965  -16.1037 H   0  0  0  0  0  0  0  0  0  0  0  0
    5.6855    2.7412  -24.1602 H   0  0  0  0  0  0  0  0  0  0  0  0
    4.2235    3.1757  -23.2113 H   0  0  0  0  0  0  0  0  0  0  0  0
    5.7878    4.8207  -22.5826 H   0  0  0  0  0  0  0  0  0  0  0  0
    7.1540    3.6547  -22.5627 H   0  0  0  0  0  0  0  0  0  0  0  0
    2.5060    3.3763  -19.2126 H   0  0  0  0  0  0  0  0  0  0  0  0
    3.0087    2.3456  -18.0500 H   0  0  0  0  0  0  0  0  0  0  0  0
  1  2  1  0  0  0  0
  1  3  2  0  0  0  0
  2  4  2  0  0  0  0
  3  5  1  0  0  0  0
  4 10  1  0  0  0  0
  5 10  2  0  0  0  0
  6  8  2  0  0  0  0
  6 11  1  0  0  0  0
  7  9  1  0  0  0  0
  7 11  2  0  0  0  0
  8 12  1  0  0  0  0
  9 12  2  0  0  0  0
 10 11  1  0  0  0  0
 12 18  1  0  0  0  0
 13 14  2  0  0  0  0
 13 15  1  0  0  0  0
 14 19  1  0  0  0  0
 14 20  1  0  0  0  0
 15 21  1  0  0  0  0
 15 23  2  0  0  0  0
 16 20  2  0  0  0  0
 16 21  1  0  0  0  0
 16 22  1  0  0  0  0
 17 21  1  0  0  0  0
 18 19  1  0  0  0  0
  1 24  1  0  0  0  0
  2 25  1  0  0  0  0
  3 26  1  0  0  0  0
  4 27  1  0  0  0  0
  5 28  1  0  0  0  0
  6 29  1  0  0  0  0
  7 30  1  0  0  0  0
  8 31  1  0  0  0  0
  9 32  1  0  0  0  0
 13 33  1  0  0  0  0
 17 34  1  0  0  0  0
 17 35  1  0  0  0  0
 17 36  1  0  0  0  0
 18 37  1  0  0  0  0
 18 38  1  0  0  0  0
 19 39  1  0  0  0  0
 19 40  1  0  0  0  0
 22 41  1  0  0  0  0
 22 42  1  0  0  0  0
M  END
> <OMEGA_C>
UoqYQFd3qsBek6TBJXu5QGSSksBbrZ/BcuB3QCB8lsBJtKvBWhK+QEtGTcDe7KHBWPh/QF0QVcC0
0a3BDJt+QIoexL5eN6zBX9DMQHkhGb9yYa7BYNOAQAlfZj+cmLDBq0bOQHP+MD/W4LLBg/mgQNHs
JMBt6qjBVuOkQNjHk7+meavB8PenQOpwtj9YPbTBVrTgQMMXXUBKRqDBcua8QE+MZkASj6bB51bb
QNETUEC1zJTBJpCOQKWjVEC9pJfBghWrQGV/QUAQ8oTBRkCoQMueM0DOMLnBKOjCQK39ckD8jLLB
WJOTQDXYYkBjBKLBfdyxQBUjSkC1pJDBiuxJQPGjT0DstJPBEjf7QHkDSkBBJI/BLEOVQAcszMD3
2aLBYz3PQJ8FosDqL5rB7/5FQPzgqMBbh6/BYrjXQEQLKcAAUZ7BhbJTQB4TNsC9NLPB4ItCQCTX
SL+NZKnB+fXpQMo6lL/IKK3B5OxHQESgvj9KMLHBnYbsQG8zjz+9R7XBWCMAQdxEX0BKx6PBhZaI
QKjJPUDIQYPBSOC6QDPsBkAOE4LBDsa4QEtgeUBu1IDBye+1QC9wL0AMSMHBIieHQEQ/S0CrsLnB
TzW5QG9DmkApqbTBre3kQK/maUCAgLTB/2IgQAUVWEBjs5nB9I1AQAgfFkBuZpDBAxHBQFQCeMBE
PY3BOlWeQKClbMBqQJTB6orjQIglPsAqXY3B5VeeQHxnKMDGipvB36LjQPAe87+Mm5TBvcbqQICF
AL7KLKfBuBWdQABPar7COqnBubPsQMCrXz/E967BFBKfQMBwRz/3/7DBi1XBQBDj3b946JvBo+vC
QMCNLL9iG6TBisTGQLBRrj/8n7PBdlbXQGjxWkAuwaLBJ9iwQHBDbEAivKfBPqLWQKBmPEAispfB
bF+KQGgvWEBWoJfBBVetQJj7IEBA6YbBRCrIQCinKkB4yLnB4tutQHhGcUB87LPB36KKQFAnbUBC
26HBuN6vQNDpPkC6IJLBGLZGQHCFW0BeU5LBEQ/3QNDGHEAI1pPBeETBQCmqlsDdvYfBO6KDQKI/
jMDdBZTBfO/9QE+DRsCK4ofB7pCDQIGrH8Dj5KDBD+79QEtomb8gn5TBxu4DQZsq9r7CeaPBSkF9
QG/XKr/9I6fBRKUFQYvOoj/ha7HBFz6CQCfojT8k+LTBHkX1QFHAY0BN7qbBs1iMQJUgKEA0+oPB
ZcK2QDp0uj//gYbBcQvDQA5XR0AO6YHB753pQN/FP0AVg7rBLqC6QPV8IEBbzsHBzg+MQDesakCg
PbbBVtO5QHwamECafrbBAg8ZQHtWbkBFapfBplY4QGZ6IUBdeY/B

> <OMEGA_E>
cKMSP0B2Lz8=

> <OMEGA_NBR>
     35127

$$$$
50219813
  -OEChem-04172616093D

 40 43  0     1  0  0  0  0  0999 V2000
    5.2444   -4.0348  -19.0340 C   0  0  0  0  0  0  0  0  0  0  0  0
    4.5234   -0.3877  -21.3762 C   0  0  0  0  0  0  0  0  0  0  0  0
    6.8832   -0.7255  -21.9354 C   0  0  0  0  0  0  0  0  0  0  0  0
    4.5201    0.8000  -22.1110 C   0  0  0  0  0  0  0  0  0  0  0  0
    6.8830    0.4751  -22.6564 C   0  0  0  0  0  0  0  0  0  0  0  0
    4.7343   -2.8302  -19.6618 C   0  0  0  0  0  0  0  0  0  0  0  0
    6.5252   -4.2085  -19.4910 C   0  0  0  0  0  0  0  0  0  0  0  0
    5.7096   -1.1446  -21.2751 C   0  0  0  0  0  0  0  0  0  0  0  0
    5.7041    1.2463  -22.7237 C   0  0  0  0  0  0  0  0  0  0  0  0
    5.7413   -2.3519  -20.4613 C   0  0  0  0  0  0  0  0  0  0  0  0
    6.8650    3.3049  -20.1679 C   0  0  0  0  0  0  0  0  0  0  0  0
    5.7051    3.5464  -20.8765 C   0  0  0  0  0  0  0  0  0  0  0  0
    6.7802    3.1217  -18.7189 C   0  0  0  0  0  0  0  0  0  0  0  0
    4.3805    3.3979  -18.9118 C   0  0  0  0  0  0  0  0  0  0  0  0
    6.9720    3.4912  -23.2501 C   0  0  0  0  0  0  0  0  0  0  0  0
    5.7102    2.6096  -23.3451 C   0  0  2  0  0  0  0  0  0  0  0  0
    5.7327    3.7944  -22.3830 C   0  0  1  0  0  0  0  0  0  0  0  0
    5.3989    3.0747  -16.6330 C   0  0  0  0  0  0  0  0  0  0  0  0
    4.4592    3.5515  -20.2232 N   0  0  0  0  0  0  0  0  0  0  0  0
    5.5300    3.2354  -18.1014 N   0  0  0  0  0  0  0  0  0  0  0  0
    3.1125    3.4043  -18.3393 N   0  0  0  0  0  0  0  0  0  0  0  0
    7.8060    2.9188  -18.0792 O   0  0  0  0  0  0  0  0  0  0  0  0
    6.8150   -3.1884  -20.3482 O   0  0  0  0  0  0  0  0  0  0  0  0
    4.7166   -4.6722  -18.3401 H   0  0  0  0  0  0  0  0  0  0  0  0
    3.6214   -0.7253  -20.8874 H   0  0  0  0  0  0  0  0  0  0  0  0
    7.7783   -1.3278  -21.8852 H   0  0  0  0  0  0  0  0  0  0  0  0
    3.6105    1.3740  -22.2083 H   0  0  0  0  0  0  0  0  0  0  0  0
    7.7798    0.8083  -23.1576 H   0  0  0  0  0  0  0  0  0  0  0  0
    3.7548   -2.3957  -19.5263 H   0  0  0  0  0  0  0  0  0  0  0  0
    7.1903   -5.0147  -19.2189 H   0  0  0  0  0  0  0  0  0  0  0  0
    7.8177    3.2520  -20.6740 H   0  0  0  0  0  0  0  0  0  0  0  0
    7.8874    3.0963  -22.7853 H   0  0  0  0  0  0  0  0  0  0  0  0
    7.2416    4.1602  -24.0806 H   0  0  0  0  0  0  0  0  0  0  0  0
    5.1052    2.7380  -24.2547 H   0  0  0  0  0  0  0  0  0  0  0  0
    5.1490    4.6657  -22.7149 H   0  0  0  0  0  0  0  0  0  0  0  0
    4.3452    3.1987  -16.3427 H   0  0  0  0  0  0  0  0  0  0  0  0
    5.7437    2.0715  -16.3418 H   0  0  0  0  0  0  0  0  0  0  0  0
    6.0110    3.8346  -16.1251 H   0  0  0  0  0  0  0  0  0  0  0  0
    2.4243    3.5315  -19.0536 H   0  0  0  0  0  0  0  0  0  0  0  0
    2.9527    2.5338  -17.8739 H   0  0  0  0  0  0  0  0  0  0  0  0
  1  6  1  0  0  0  0
  1  7  2  0  0  0  0
  2  4  2  0  0  0  0
  2  8  1  0  0  0  0
  3  5  1  0  0  0  0
  3  8  2  0  0  0  0
  4  9  1  0  0  0  0
  5  9  2  0  0  0  0
  6 10  2  0  0  0  0
  7 23  1  0  0  0  0
  8 10  1  0  0  0  0
  9 16  1  0  0  0  0
 10 23  1  0  0  0  0
 11 12  2  0  0  0  0
 11 13  1  0  0  0  0
 12 17  1  0  0  0  0
 12 19  1  0  0  0  0
 13 20  1  0  0  0  0
 13 22  2  0  0  0  0
 14 19  2  0  0  0  0
 14 20  1  0  0  0  0
 14 21  1  0  0  0  0
 15 16  1  0  0  0  0
 15 17  1  0  0  0  0
 16 17  1  0  0  0  0
 18 20  1  0  0  0  0
  1 24  1  0  0  0  0
  2 25  1  0  0  0  0
  3 26  1  0  0  0  0
  4 27  1  0  0  0  0
  5 28  1  0  0  0  0
  6 29  1  0  0  0  0
  7 30  1  0  0  0  0
 11 31  1  0  0  0  0
 15 32  1  0  0  0  0
 15 33  1  0  0  0  0
 16 34  1  0  0  0  0
 17 35  1  0  0  0  0
 18 36  1  0  0  0  0
 18 37  1  0  0  0  0
 18 38  1  0  0  0  0
 21 39  1  0  0  0  0
 21 40  1  0  0  0  0
M  END
> <OMEGA_C>
d9KnQEwdgcC7RZjBZb+QQGx6xr6MAqvBakPcQAa4Ob+ke6/BgaSQQKbNTD9m47DBkkHcQDhF8z4/
QLXBHH+XQEAhNcBXS53BNM7QQPKrhsCe7ZvBHrW2QG+Dkr91M6rBYYi2QPmGnz82yrXBhLi3QLSF
FsC+sKPBb67bQNSCU0DUV6HB+4+2QPT4YkATA6fBoPfYQJjKR0BTwJXBpyyMQHt3WUBdS5fBbxrf
QFZvX0AkALrB6Lm2QPYCJ0C2wrrBY3K3QNLXckBlELPB5MOsQNjHREBrEIXBvLGOQP5LY0AHyaHB
tfWwQAAQT0CZz5DBDzNHQLzfWUDktpLB/Mr5QDzOOkBDopDBJhTaQMwOTMAIyaLBK+6WQImClcCT
uJLBxcVnQAGqOb9jGafBuuf4QNHzqb/WFK/BnxFnQI3grz+lqrHBA/T4QJ7sTj+sQrnBV09wQMVS
GcDZNZzB9BbmQFZ4oMBXwJnBRSr6QCohUEBOZKXB8WX8QBspRkBlSLbBE7vnQFYghUD8pMDBlV2j
QPw6L0CsCcLBN8SkQDhNlUATuLXB2guLQD24TEDPvYLBSMy3QASUBEAOvILByVnAQGFpdUAkAIHB
aCgbQGcDYkDabZjBhPg8QA0pIkCn/Y7BAQLFQMznisDSGJzBWM/aQCQyOb/jda/BT1uPQDAgv76g
/6rBWSvbQJ7l9j5MJLXBQ7iPQKAwVD8AubDB9SHWQEl2TcBhAKLBHK6ZQFC7hMBCVpvB2O60QE4A
k79DVarBB8C1QK8Poj9apbXBd/uzQPvLGcBgaaTBVx7cQFVFVUAvRaHBHhW3QNXAZEB59qbBsirZ
QLhRR0BtuZXBDEeMQCFRV0BMXJfBTaTfQOlCX0AG7LnBv6q2QIlOKEC4pbrBySq4QB9sdEDfAbPB
tIKsQMbAQECVH4XBTSGPQIbXZEAXyKHBvLuwQJfVR0Cu6ZDB+z9HQCmLWEDt05LB/wr6QB79O0Ad
kZDBlc+PQF9dPsAYUKDBdPXWQBWOpcBX6pjBeGr3QOzRqb8PAK/BzcxkQNq+NL/vGqfBbf33QBJ6
Tz8rH7nBhtBlQFS+tT/7XLHBMzn3QLiAQsBqFaTBfjuDQMT0mcC9dpfBKb36QAF9U0AqRaXBTa/8
QHAHRUA0L7bBpa/oQLO7hECql8DBn2ijQAH6MEDu7sHBkwWmQA1nlkBLsLXBsHKKQDFaQkDV6YLB
GLm6QFYUBEAhbILBrj29QC2TdkCdSoHBZL4bQLAgZEB+g5jBByY7QOvcH0BHb4/Bf4WhQPQGgMAy
OJjBGvDZQFiTQb+hXq/B3G2OQLi4uL6IL6vBEVvbQHD25z6hBbXBgLOPQL4HVT9F+bDBpzeUQFGB
LsD2qJzB11zHQOigisA9GZ3BoaSzQKJCk79pTqrBiz62QLVJoD8GsrXBUfGyQAuRF8Au86PBskDc
QKTcVEDyO6HBQ0a3QF/yY0CI+KbB/UPZQBZjSUCKpZXBuniMQEfCWUC1UpfBIVzgQBk2XkDW3bnB
ZIu3QBI2J0DzsrrB+Je4QM01c0DNCLPBgrKsQNtARkCCB4XBlTyPQG6lY0Ab0KHBYyKxQFJ6UEA/
xZDBJIdHQKhFWEA80pLB5PP5QC4wPEC2e5DBO8PRQN14VcCVFKTBjtSQQKV7ksBKOZLB1gX2QAz9
sL/R5K7BoSNiQId2Lb+xZafB7KX4QOplRT8T1rjB1EdmQOkotz980rHBtnlvQJzjCsBUoJrBvcXZ
QElOp8AYqZvBHtn6QDGXUUA5O6XBhEj9QE0IREDRELbBYZ7pQJhChEAfgsDB4Y2kQJX1L0ACB8LB
/YGmQI7ElUBhwrXBxOqKQOYETkDwwILBysS3QAAhBkCBrYLBHCDAQIwFd0C98YDBzKgbQLRVX0A1
lJjBDGQ+QGtaIEDzGY/Bd76/QFoKjMCljJzBKruNQNyurr7m86rBQLHZQDKiMr8Qzq7B3KiOQJzU
Vz8X57DBtrDaQCxb/T5eprTBfIjQQNK+VMCNXaPBaAiYQA77fcD5N5nBrDyzQMljjr/E5qnBbEC1
QEfQoj9Zl7XBQqCxQNaKFsDbzqPBOWbcQEA0VUBqSKHB7WS3QPa3ZEAM/qbBdWPZQNSGSEAotpXB
HoqMQBSlWEBRY5fBXNrfQOjPXkDz9bnB2LC2QMJRKED4q7rBqn+4QHpidEBtCbPBW5qsQE7NQUAB
JIXBbV+PQCD7Y0Dt2KHBMiexQO4MTkA22ZDBPJZHQBdqV0BN6JLBjyH6QML/O0AXi5DB8tWPQIDu
L8C2pJ3BLIPPQGytqcA4f5rBaspgQPXBKb82LqfBUT72QMdDpr9EDK7Bc7VjQKWftj+k5bHBfgH4
QBOIUT8tbLjBbkjvQCLUU8C2TqfB3uKCQKiXkMCA/ZPBZAD7QL95UkB9SKXBQNf8QJs8RED7O7bB
M/voQHx2hEATosDBLmmjQFMoMUB088HBYYGmQPV9lkD8tbXBo8GKQEyOSEBL4ILBufG3QCWDAUD0
8YLBV76/QNw+ckCy6YDB0uIbQBPLX0BQqJjBScY9QMYSH0DyUI/BSDKdQFNhn8BpYKXBtm6YQLfR
hL9rM7jBBrDCQPpHIb/9HqjB9nKhQAvRhz4R0bvBHIfMQLvxJz8G3KvBnlC2QMLQe8BXharBS7Nu
QGPsjMBnQqLBHcyoQAo6vb88T67Bxh+7QBvukD9FnrXBUaedQBI0M8DrQKrBHqaQQO8XZUAkYKLB
x9O5QEvvZUBJT6bB/1SKQAoEV0BX3pbB67PXQKvjT0DGG5XBZH3sQDRiUkC5y7bBuizDQJwvI0C2
ybnBZ4zBQN7HcUCyMLLBCySqQEmTPUCItYTBFBrdQNjWXkCWZ5/B2IeuQAFKSUDVbpDBDGr8QHWT
RkBS6Y7B181LQHorVkD0NpPBf+pvQI3YRcADRaXBKY6mQORVwMDhPKTBIf6EQHZt2b/zAL3BKPrO
QCqId79GgqDBoaqUQAGlGj9cX8PBkZXhQG4rpT+9QafBxQLWQKMNgcCt363BZQg7QCzhnMAYIp7B
CUZrQLWRbkAcoqfBmQMCQXF2M0AvhLHB/Ez9QLn1eEDi1rzBHHG3QKGHL0Ch8MHB18W0QDZ1lkBg
vbXBlPLJQDzAM0AjJYHBlUibQLXedkDOMYHBVeyVQBVrBUBWF4PBTCYLQdIdTUAXi5PBw8L8QFte
c0CxMonBO2TlQHTPkMBCDp/BuWGqQOCsb7/zEq3BRDP1QIBoYr4Yw6zBlhCfQAD1eT4Ba7LB8h3q
QACubj9rebLBVEDNQJgGZsAtmaXB2S0DQXQ0dMAmj5rBjWfVQECllL+8L6rBQ8q+QAB+lz/lJrXB
qIzhQECrGMB9vaTBhHHUQEBoUEAarKLByrKtQNgUYkDQh6fBzKHUQEhWOUDxWJfBecSIQFASWEAQ
IZfB75fPQKBfa0D9PrvBgPCwQOB9HkDggrrBMmKpQIAZbkArhbPBkBytQJCrLUC4DYbBQVOIQGB/
aEA+d6HB2fStQHDCO0AhwJHBMDJGQHgfZkBAipHB+jP2QBDkIkDdHpPBkxECQaz/IcDaLZ7B86/e
QFBrssDN8J3BlzmSQOzn1b9rLKvB4voKQYE5xr4NWqrBngV8QH2s3T49cLTB71MBQWr60D/B2LTB
ouewQErrc8DPOarBPQEPQeWehsB5F5XBXPLxQI+WU0CBJ6fBdlnwQHQoZkBBF7jBia/PQAL2iUCT
cMLBKNiaQLk0F0ACTcHBZ66OQNaOi0BaFrbBxPSLQKMPMkBIJoPBuwC6QFib2z9KO4TBRcLAQB+p
XkC5E4LBfDUZQGeTe0AEj5bBMqUyQAlML0DaNo7BoqTDQMQuacCn05LB9JycQIBIDL8ID6rBJ+7o
QAAcML0tmqjBWnKXQECSCj9+ArHBNCHkQOCZfz9A7q/ByxivQJisN8DLM5vB+OnqQES0RMACC5HB
MFHFQICEUb+krqXB9A67QAAKqj9L4LPBCFvLQLiB8L8g553B73HYQPjaXUDOSaLBk1GyQChwb0Cf
bafBg+TWQGDMPEATXpfB712KQIgJVUAsvJfBFIHWQIB4bECa/rrBzGOzQDAtJ0DIELrB1BewQPgg
ekCgfrPByjesQBDAHUDg7IbBhpuLQJhMbkBEzKHByxqvQCD1NkC+TZLBVJlGQKhEWkBYfJLBfen3
QLj0IkChK5PB83XvQFSOAcCt3ZfB/YC2QEQikMBsxY7BzZ+BQKZrlr8+EqjB1PkDQThIgb66LqXB
q1dwQOnhRj+HKrTBX87/QN7Lxj+7l7LBr9OPQESjQsDjnZ7BNRoBQeKwWcBHOYvBp7P2QMJPaEDz
QKbB1IP2QGzEYECxo7fBhW/ZQDRBiUDvXMLBfYKdQC5hIkDN7sDBOB+YQJAflEDpX7bB7HSKQKXd
HEAAcITBThq6QGM1uz+S4IXBO/W9QG0FTEB3/oHBIGgaQKCucUBHepfBH+80QFHvH0CWC5DBtBjE
QHtdiMDZc5rBXafcQECbUb+NiK/B+leRQIAaxb6XXqvBy6/eQLj9wj76Q7XBxkOTQM6oTT/4PrHB
ttvUQF6zUcCr4qHBr+GaQNL8eMCFJpjBhzy2QOTMl7+QXKrB8k66QD16mj+w2rXBNoy0QFr8F8Df
pKPB8n+MQLLUZkAacqLB4X60QOj3YECGDqfBMm6IQCQdWkAa25bB73DVQD2ZSEC1QpbBWQzlQOc8
W0BVU7jBgZu9QGjHJEApp7rBs4e5QPVYcUBMA7PBTxWsQFD+RED4D4XBbb7YQM95UEADv6DB4d+t
QL+8T0DY1pDBu8v6QMfbOECCkpDBlLFJQKFJWkDNt5LBS9KRQIpPMMDKvZ3BnODUQC3io8CtVZfB
7Fv4QJMZu7+ZEK/Bi31nQFv9L79in6fB+Pz7QI3WKz/QNrnBWt1tQH9btD8LP7LBpYT0QPN+UMC+
WKXBMk6FQJkTjcAK05LBJFthQEiIdEDTRqfBnE//QOEGQUDEd7PBL0byQKuVgkDDkr7BWCivQElR
LUAkm8LBkf+oQHL+lEArNrbBDbvMQOLhPUAN5YHBdeecQH+LfUB5coHBH0aZQPiUC0AtG4PBcMMJ
QZPiNUCsopXBL6X/QBsaaEA7UIvB/gaiQJr3gcAUsJjBFT+SQFhIwb6fbqvBEabdQCDdUL/Jc6/B
HkWUQARITT/wYbHB3dLfQAhBwz6fQLXBp8eTQKrxNcCm453BacTLQFM1iMCtrZvBIx+3QIznlr9l
U6rBy1W7QBQSmj9187XBm9u1QGxdGMAuvqPBf7KLQEEyZkDZZKLBDYuzQIi9X0BmFqfBpu+HQNd/
WUA/yJbByODUQK9ORkALXpbBLbzkQPb2XEDGQbjBdS++QD2aJECavbrB46W4QIOOcEA/DbPBYZqs
QCY0SUDdBYXBKOnXQD1NT0AO1qDBq1itQBCwSkCW45DBLZz6QG6MOECZwpDBii5JQCySXEALiZLB
oW/XQMAYT8BzTKLB41aPQAQvlsAHd5PB8ClpQNnNLL8+safBSVj5QCOour8y6K7B7NVvQFW7sz+z
ebLBJjv9QE3QKz+HJ7nBtAdpQADnGMA/Rp3BnfHfQLZ6osDsNpnBgY1fQPlTdEBjK6fBhRr/QGDp
Q0AHV7PBWLLxQLnwg0A5b77BRf+vQDy8LEDMusLB6IWnQDI6lEBsQrbB9wjNQIerPEBy+4HBLF6h
QBC2g0AmA4LB6teWQCdsFkA6RoLBbZ8JQVisN0Bd3ZXBbs/+QMycZ0AHcYvBpomhQBawgcC7lpjB
NEXdQGx9Ub+SZa/BTfKRQLD0vb5bVavBuJPfQFgfwz6lKLXBiBSUQGhdTz8QQ7HBkimUQJMeM8Bq
YJ3BMsbJQFI8isBXZpzBzLe2QIbQlr96RqrBeC27QI6Smj/o1rXBLjy1QHfQGMAyzaPBEuGLQIYc
Z0CqcaLBzsyzQG4cYUDcG6fBySGIQL7eWkCp05bBrhfVQPWrSEABXZbBFuvkQC+JXEAuRbjBiCm+
QOybJEDisLrBwOu4QKwjcUCOFLPBpmWsQOXNR0DgEoXBbBrYQNYpUEC02aDBssStQMYJUUC/3pDB
nob6QO3LN0Ajw5DBZWBJQJsBW0DOnJLBUHjVQEeGU8D5EqPB1kyPQG8XlcDeFJPBUeH4QLd5u7+K
4K7BkpJoQG1OKr84k6fBNgb9QMNzKz8iDLnB65tvQPpOtT+ZVLLB1TJsQCuFEsDkIJzBqOvcQFbu
pcBlc5rB1NxfQA6MdECzPafBpTP/QMVoQ0CoVLPBXQfyQEBsg0BJfr7BSv2vQPBxLEC0r8LBCP+n
QPCKlEBEV7bBZibNQCXoQECl94HBDW6dQJ9ygEBjiYHB5pSZQPzBDkDs9YLBUoMJQbfcM0CN4pXB
Hfz/QKX9ZkCriIvB

> <OMEGA_E>
WHPuPhD37z5Y0vA+EC30PoLebz8AGiY/hjInP9JITz/iT08/XFpPPw==

> <OMEGA_NBR>
     42675

$$$$
50219795
  -OEChem-04172616093D

 45 48  0     1  0  0  0  0  0999 V2000
    4.6349   -0.3924  -21.3434 C   0  0  0  0  0  0  0  0  0  0  0  0
    7.0031   -0.7131  -21.8770 C   0  0  0  0  0  0  0  0  0  0  0  0
    4.6259    0.7781  -22.1096 C   0  0  0  0  0  0  0  0  0  0  0  0
    6.9960    0.4667  -22.6257 C   0  0  0  0  0  0  0  0  0  0  0  0
    6.7510   -3.3949  -20.6985 C   0  0  0  0  0  0  0  0  0  0  0  0
    5.9003   -4.6320  -18.9289 C   0  0  0  0  0  0  0  0  0  0  0  0
    5.8269   -1.1393  -21.2199 C   0  0  0  0  0  0  0  0  0  0  0  0
    5.8161    1.2263  -22.7152 C   0  0  0  0  0  0  0  0  0  0  0  0
    5.8388   -2.3555  -20.4083 C   0  0  0  0  0  0  0  0  0  0  0  0
    4.9830   -3.5875  -18.6229 C   0  0  0  0  0  0  0  0  0  0  0  0
    4.3409    3.6379  -20.2990 C   0  0  0  0  0  0  0  0  0  0  0  0
    5.5777    3.5386  -20.9006 C   0  0  0  0  0  0  0  0  0  0  0  0
    4.2405    3.4302  -18.8501 C   0  0  0  0  0  0  0  0  0  0  0  0
    6.6415    3.1108  -18.8264 C   0  0  0  0  0  0  0  0  0  0  0  0
    7.0540    3.4929  -23.0940 C   0  0  0  0  0  0  0  0  0  0  0  0
    5.8491    2.5867  -23.3418 C   0  0  2  0  0  0  0  0  0  0  0  0
    5.6992    3.7898  -22.3996 C   0  0  1  0  0  0  0  0  0  0  0  0
    5.3941    3.0937  -16.6486 C   0  0  0  0  0  0  0  0  0  0  0  0
    4.2354   -4.7400  -16.6307 C   0  0  0  0  0  0  0  0  0  0  0  0
    6.7634   -4.5173  -19.9598 N   0  0  0  0  0  0  0  0  0  0  0  0
    4.9666   -2.4754  -19.3836 N   0  0  0  0  0  0  0  0  0  0  0  0
    6.7212    3.2455  -20.1381 N   0  0  0  0  0  0  0  0  0  0  0  0
    5.4231    3.2532  -18.1223 N   0  0  0  0  0  0  0  0  0  0  0  0
    7.8127    2.8126  -18.1420 N   0  0  0  0  0  0  0  0  0  0  0  0
    3.1383    3.4306  -18.3124 O   0  0  0  0  0  0  0  0  0  0  0  0
    4.0927   -3.6369  -17.5583 O   0  0  0  0  0  0  0  0  0  0  0  0
    3.7339   -0.7234  -20.8485 H   0  0  0  0  0  0  0  0  0  0  0  0
    7.9072   -1.2990  -21.8005 H   0  0  0  0  0  0  0  0  0  0  0  0
    3.7099    1.3360  -22.2364 H   0  0  0  0  0  0  0  0  0  0  0  0
    7.8918    0.7933  -23.1329 H   0  0  0  0  0  0  0  0  0  0  0  0
    7.4433   -3.2863  -21.5202 H   0  0  0  0  0  0  0  0  0  0  0  0
    5.9055   -5.5290  -18.3274 H   0  0  0  0  0  0  0  0  0  0  0  0
    3.4618    3.8645  -20.8839 H   0  0  0  0  0  0  0  0  0  0  0  0
    7.9065    3.1261  -22.5035 H   0  0  0  0  0  0  0  0  0  0  0  0
    7.4192    4.1540  -23.8937 H   0  0  0  0  0  0  0  0  0  0  0  0
    5.3666    2.6858  -24.3253 H   0  0  0  0  0  0  0  0  0  0  0  0
    5.1359    4.6472  -22.7965 H   0  0  0  0  0  0  0  0  0  0  0  0
    6.4202    2.9682  -16.2726 H   0  0  0  0  0  0  0  0  0  0  0  0
    4.9431    3.9870  -16.1920 H   0  0  0  0  0  0  0  0  0  0  0  0
    4.7972    2.2074  -16.3876 H   0  0  0  0  0  0  0  0  0  0  0  0
    3.4729   -4.6577  -15.8421 H   0  0  0  0  0  0  0  0  0  0  0  0
    4.1052   -5.6905  -17.1687 H   0  0  0  0  0  0  0  0  0  0  0  0
    5.2369   -4.7098  -16.1767 H   0  0  0  0  0  0  0  0  0  0  0  0
    8.5704    2.7441  -18.7910 H   0  0  0  0  0  0  0  0  0  0  0  0
    8.0054    3.5368  -17.4799 H   0  0  0  0  0  0  0  0  0  0  0  0
  1  3  2  0  0  0  0
  1  7  1  0  0  0  0
  2  4  1  0  0  0  0
  2  7  2  0  0  0  0
  3  8  1  0  0  0  0
  4  8  2  0  0  0  0
  5  9  1  0  0  0  0
  5 20  2  0  0  0  0
  6 10  2  0  0  0  0
  6 20  1  0  0  0  0
  7  9  1  0  0  0  0
  8 16  1  0  0  0  0
  9 21  2  0  0  0  0
 10 21  1  0  0  0  0
 10 26  1  0  0  0  0
 11 12  2  0  0  0  0
 11 13  1  0  0  0  0
 12 17  1  0  0  0  0
 12 22  1  0  0  0  0
 13 23  1  0  0  0  0
 13 25  2  0  0  0  0
 14 22  2  0  0  0  0
 14 23  1  0  0  0  0
 14 24  1  0  0  0  0
 15 16  1  0  0  0  0
 15 17  1  0  0  0  0
 16 17  1  0  0  0  0
 18 23  1  0  0  0  0
 19 26  1  0  0  0  0
  1 27  1  0  0  0  0
  2 28  1  0  0  0  0
  3 29  1  0  0  0  0
  4 30  1  0  0  0  0
  5 31  1  0  0  0  0
  6 32  1  0  0  0  0
 11 33  1  0  0  0  0
 15 34  1  0  0  0  0
 15 35  1  0  0  0  0
 16 36  1  0  0  0  0
 17 37  1  0  0  0  0
 18 38  1  0  0  0  0
 18 39  1  0  0  0  0
 18 40  1  0  0  0  0
 19 41  1  0  0  0  0
 19 42  1  0  0  0  0
 19 43  1  0  0  0  0
 24 44  1  0  0  0  0
 24 45  1  0  0  0  0
M  END
> <OMEGA_C>
CVGUQCjpyL5Zv6rBzBngQJyNNr8ZBK/BrQeUQGoyRz+K4LDBON/fQFzy7j6BAbXByQfYQGxFWcCH
lqXB3868QEM5lMBNbpfBk3W6QDTVkb9TwqnB1h26QJP4nD++uLXBNde6QBLAFsAdRKPB/3SfQEaa
ZcC4+5TBxeiKQOjSaEBBZKLBUHyyQOB3YkBcNKfBAbKHQCyJW0D8zJbBKYfUQAQYR0B0nJbBK7rh
QGCLX0CHwLjBrSu7QAGMJUDqu7rBv1+2QHeMckBbMrPB0pysQL7+RUBUMIXBtIiHQNOtl8CaC4XB
HW7YQLONkMC4rZ/BAe6eQH5tHsCJEZvB+hPXQOK1T0DXGqHBaYqtQBw1UEBg+pDBawH6QBQBNEDQ
IpHBaNpIQOKOW0C2f5LBAfeCQH7CaMBed4zBa/duQAwvOb+syabB2Qf9QDBEpr96Z67B9m5tQFcB
qz8Q5LHBron8QLAVSz9CELnBwS/uQGdTUsBsKazB6/m8QKHtsMCNnpLBB45dQHpTd0BLEqfB9QH9
QJIRSEA3B7TBS2rtQIjthEBQJr/BkrurQHzjK0BLmsLBlFmkQDq2lEBTX7bBk3LNQJn2PUBDLoLB
Qy6eQLsrf0AyiYHBS4KZQC1GDUC6GYPByUReQH0LlcA+eX3Bj12DQMcYtsB8WYnBEZWnQBS3lsDp
aYHBNyAJQdKfL0D+U5bBIhYAQUBbYkDv1ovBUcKRQFjKsr6bBavBYYfcQCTrUr/nca/BjdSTQEIW
Uz9lCbHBKMbeQMRQvj7SPrXBRnKNQElIO8Dc2J/BhbGxQAaSlMDNPpfBsDG2QDIfl7/NHarB/qW6
QIaYmj9NzrXBitO0QF2bGcAZjKPBRnXZQLAVhMAd8ZrBICaMQJXsZ0Bde6LBPhW0QDqiYUAwIafB
1DWIQNenWkDe45bBwijVQE5ISEAAYJbBbvXkQNSoW0AaVrjB+Ni9QHOAJECesLrBKi+5QExicUBN
G7PBlSmsQIL5RUDNH4XBzCsAQVpwvcDLTJLBTYeMQDIWgcBnw5nBVvjZQIf9QMDGAqHB4k/YQMk+
UECH26DBOr2tQEAsUEDI6JDBwIv6QISgN0BwvpDBNllJQHj/WUDYuZLBJmAAQXqtlsD1o5jBz6do
QLNyH7+eDqfBfQ74QNTHvL99CK/BeUpvQD34tz8dBrLBtwv8QLtwJj8lQ7nB8rlfQKiwG8A276HB
80GxQOMQscCYW5LBiKJgQMlUdkDzRqfBCjH/QDsYQkBIarPBMjDyQCzAgkDPl77BdJGvQG5lLEAs
rMLBooGoQJrNlEBcX7bBMtvMQCOuPkBC/oHBmzKdQFzWfkCMh4HBYECZQOvWDECWGoPBLq0QQTin
yMAdFpHBrHnxQLPetsCIforBKODtQP5A1sD/f5bBqJIJQbExNECi15XBz8X/QBWsZkDVeovBWKKR
QOO1g79Xs7bByzzFQAwnE78XhqjBkOaWQLqekD73kbrBMkrLQNvrNj/HlazBfJd9QGx4ZsA4eqvB
vlibQPwBrMBm0KHBbYCoQFkau795j63BPnmzQCDjlT+CfLXB9f+jQOqKNcACaanB9+HAQIvCk8BD
rp/B+OTeQKBMY0D0KKDBqEq6QM4pakBMTabBxY3aQKZhU0ALq5TBZ36NQIgzWUDOK5fBlcfjQGL0
VECfuLjB00q4QDqKJUCb7rnBusm8QP4Nc0BeY7LBt/uqQFpWQUDKrYTBJbTfQK+DzsBkt5XBSBV2
QNtZm8CHo6fBoTDEQHopV8A9g6PBEKmRQLyHZEBsmKHB4U2xQDi0UUC8QpDBBCpIQK4MVUAHG5PB
xM36QJxISEDbPo/BTS7jQD5Io8BayZnBgCV4QJqJ2r8BuLrBD6LWQAiAZL8UgaHBLPaEQE1RHD8C
ecHBqG3iQLpMrz8s4ajBQ1xKQHVAS8CzLLDBR6iYQHYuzMBTu57BzSL+QNOPaUA1xaPB7pf+QK2w
NUD4kbTBlDHwQNEffECOV7/BQy6nQF01MkAddcHBFR+uQP77lkBHg7XBqZaIQNGcQkBr0ILBeTC4
QEkyAkA9noLBvX67QK0Pc0BmA4DBt9v8QNGw1sCZOpHBhcfDQDLQ0MC+Y5DB8tHbQInl5MBCcJzB
UBgeQCqyW0CuE5nB0UQ/QJ90HEAMio/Bi66PQHgZnb4w7arBpw/cQGAlI7+Gdq7B8c2PQH4gVT9L
ULHBziPcQJw8BD/7x7TB76rUQLiqT8A2OqPB902qQAhSlMCrqZjBcty1QAgRhr8paanB+Ce2QLFb
oT9KBbbBkla0QNhcEMCD1aLBnSaKQMwXacBnOZjBH6jbQMk9UUCIbKHBEJW2QJ0hYUBBF6fBLffY
QGIoRUDH1pXBTyaMQL7WVkDiXpfB71rfQFmMX0BjFbrBvuK2QOyBJ0AH/rrBjqO3QBlackAZJLPB
OACtQCAPRUAsHYXBEHgFQNTmN8BZNpTBnDfPQCFVjcCkD57BiZSQQDrMHcCBH53BrbyOQLBEYkAj
16HBVLywQBMaSEBV8ZDB2FdHQDTiWUA6wJLBhPb5QNvROkBjspDB7AtHQDzkecBhMJPB8dRkQFSs
IL9GHafBrQ75QKMKm79udK3BgRxlQBMXsT8bo7LBUjL5QGkgVj9lsrjB07rxQA7vQ8DGqqfB9V6l
QHyEssBMpZTBByL6QDXKTUCueaXB6438QCKWRUCOZLbBJCboQAKUhUACosDBO5qjQDeCMECSRMLB
dxilQHVJlUDGs7XBKAyLQLcUSEDd0oLBZgq7QI0PCUCXIoLBNii+QDnHe0DPnIHBMcmWP4caTMBY
7Y/BTz0dQCdQ9782w5DBabDsPxgtLsBsuJzBwowbQB7dZEDEa5jBc9o6QGYFIkA7LI/BytTZQFay
Rr9Loa/BIGqPQCCyv76ZZqrBILraQJC26T6y87TBS/ePQNBWVz/N9K/BoC2yQNgsZ8BPrKzBruqn
QOq8oMAVJ57B7Ui0QG0vl7/TUKrB7r21QMQEoj8WGrXBUfqxQA5SIMB2taXBCreoQIq9esAaFZfB
8U/cQOzVWECnQ6HB5j63QAIuaEDs8abBI1LZQBaRSUDdwJXBJ2+MQIxSWUDkX5fBBozfQAh0XkCI
4rnB/3u2QKapJ0CAV7rBED24QLShdUCgAbPBVIesQAQ7PUDePoXBfFatQDpSQsBBKYXBNLysQLhh
m8CUz6jBkSCtQAJ7KsDWD5vB5jyPQDjKZkCJy6HBihCxQP5ETUAv4ZDBFmpHQIoIV0BX5JLBvQb6
QJ7JOkB5qpDBFoilQOxBhcANMYzBe8X1QKS1tL+7mq/BidVlQNqmML8qN6bBhJH3QNAWST8T67jB
nANnQAfpuT+aTLDBN7m2QIyMXcAxJ7XB3WCjQE2NwMBW+ZrBIPn6QN8eWEAAQKXB9578QGv4RED6
FLbB5oboQANyg0DHusDB6xyjQJzHLkCkosHBrx2mQA6+lkBa3bXBbquKQEUGQ0CK84LBtfm3QNi4
+D/yX4PBAZa/QB5mbECjxoDBweOpQH/OVsCIknnBYfbNQCkSKsDVeYbBkRWWQIFQD8Am5IbBQakb
QKp/YED9m5jBHbo9QHL2HUDbeo/BYkCSQETu1b4At6rBvNncQO6pPr+EEbDBWh+RQCJlRz8JgrDB
TcvbQHwl7D4zuLXBf9aUQCY6R8AlE6HBiC6+QILJl8DnyJjBtzy4QDXrl797cKrBUR22QAC1nT/b
y7XBF3W6QBTBG8AmP6TBcTbkQI0dgsC56JvB6GjbQMQUU0ClXaHBMUW2QIzyYkCiAafB0s7YQAqH
R0BgxZXBkQqMQMTUWUBpQpfBP4DeQHxrXkADB7rBSuq1QBRfJkDVt7rBugS3QNxxckDxDrPBubas
QMu2Q0CiEYXB50QIQc2ftcDBmpLBwUyXQEgviMCNbZvB007hQEx/O8CNoaHB1niOQNThY0CQv6HB
q9uwQIDjTkDSzZDBgAtHQC1AWkC9ppLBx6z5QF5kOkBdrZDB85EGQegAkMAhTpnBIlRsQGUJQb+X
dabB8q/5QHCEq798ALDBLdBnQDhArT8d67DBjcX3QN7ETD/3AbrB6s9rQGyELcCXM6PBuG/AQC8Y
tcCZPZTBU9T5QJdET0BJcKXBacr7QH7uREB2VLbBRCHnQAt6hEAcs8DBqXOiQAuULkB0+sHB/nKk
QEMqlUCOuLXBMwmLQHjgS0CguILB9ZC3QLQxA0Az04LBzXnAQK7Gc0AJ9IDBuD4ZQaH6vMBsL5HB
MUUAQb+Wr8CW6YrB7ZMAQUbn0MBEn5bBA+MaQMSTYkAEWZjBWNI8QDp4IkB98Y7B

> <OMEGA_E>
Qlh5P9gneD8K5FI/xFI2P7zzNT8YpTQ/

> <OMEGA_NBR>
     47682

$$$$
50145449
  -OEChem-04172616093D

 36 38  0     0  0  0  0  0  0999 V2000
    4.1621    0.0346  -21.7290 C   0  0  0  0  0  0  0  0  0  0  0  0
    4.6014    1.1306  -22.4900 C   0  0  0  0  0  0  0  0  0  0  0  0
    4.9862   -2.0569  -20.4002 C   0  0  0  0  0  0  0  0  0  0  0  0
    6.9152    0.3393  -22.3286 C   0  0  0  0  0  0  0  0  0  0  0  0
    6.2413   -2.6051  -20.2839 C   0  0  0  0  0  0  0  0  0  0  0  0
    5.1075   -0.8905  -21.2608 C   0  0  0  0  0  0  0  0  0  0  0  0
    5.9873    1.3285  -22.7142 C   0  0  0  0  0  0  0  0  0  0  0  0
    6.4614   -0.7675  -21.5985 C   0  0  0  0  0  0  0  0  0  0  0  0
    6.9149    3.3009  -20.1488 C   0  0  0  0  0  0  0  0  0  0  0  0
    5.7650    3.5312  -20.8718 C   0  0  0  0  0  0  0  0  0  0  0  0
    6.8082    3.1209  -18.6985 C   0  0  0  0  0  0  0  0  0  0  0  0
    4.4036    3.3418  -18.9341 C   0  0  0  0  0  0  0  0  0  0  0  0
    5.3899    3.0986  -16.6327 C   0  0  0  0  0  0  0  0  0  0  0  0
    6.4921    2.6727  -23.1909 C   0  0  0  0  0  0  0  0  0  0  0  0
    5.8406    3.8191  -22.3716 C   0  0  0  0  0  0  0  0  0  0  0  0
    4.5060    3.5211  -20.2405 N   0  0  0  0  0  0  0  0  0  0  0  0
    7.1317   -1.8337  -21.0273 N   0  0  0  0  0  0  0  0  0  0  0  0
    5.5372    3.1433  -18.1089 N   0  0  0  0  0  0  0  0  0  0  0  0
    3.1261    3.3553  -18.3822 N   0  0  0  0  0  0  0  0  0  0  0  0
    7.8305    2.9949  -18.0342 O   0  0  0  0  0  0  0  0  0  0  0  0
    3.1129   -0.0941  -21.5078 H   0  0  0  0  0  0  0  0  0  0  0  0
    3.8832    1.8227  -22.9045 H   0  0  0  0  0  0  0  0  0  0  0  0
    4.0806   -2.4232  -19.9396 H   0  0  0  0  0  0  0  0  0  0  0  0
    7.9584    0.4330  -22.5917 H   0  0  0  0  0  0  0  0  0  0  0  0
    6.4946   -3.4858  -19.7123 H   0  0  0  0  0  0  0  0  0  0  0  0
    7.8752    3.2541  -20.6407 H   0  0  0  0  0  0  0  0  0  0  0  0
    4.3222    3.1252  -16.3692 H   0  0  0  0  0  0  0  0  0  0  0  0
    5.8394    2.1715  -16.2474 H   0  0  0  0  0  0  0  0  0  0  0  0
    5.8991    3.9658  -16.1870 H   0  0  0  0  0  0  0  0  0  0  0  0
    7.5843    2.7141  -23.0666 H   0  0  0  0  0  0  0  0  0  0  0  0
    6.2390    2.7983  -24.2540 H   0  0  0  0  0  0  0  0  0  0  0  0
    4.8191    3.9784  -22.7473 H   0  0  0  0  0  0  0  0  0  0  0  0
    6.4330    4.7338  -22.5210 H   0  0  0  0  0  0  0  0  0  0  0  0
    8.1081   -2.0224  -21.1321 H   0  0  0  0  0  0  0  0  0  0  0  0
    2.4519    3.5073  -19.1049 H   0  0  0  0  0  0  0  0  0  0  0  0
    2.9459    2.4778  -17.9376 H   0  0  0  0  0  0  0  0  0  0  0  0
  1  2  2  0  0  0  0
  1  6  1  0  0  0  0
  2  7  1  0  0  0  0
  3  5  2  0  0  0  0
  3  6  1  0  0  0  0
  4  7  2  0  0  0  0
  4  8  1  0  0  0  0
  5 17  1  0  0  0  0
  6  8  2  0  0  0  0
  7 14  1  0  0  0  0
  8 17  1  0  0  0  0
  9 10  2  0  0  0  0
  9 11  1  0  0  0  0
 10 15  1  0  0  0  0
 10 16  1  0  0  0  0
 11 18  1  0  0  0  0
 11 20  2  0  0  0  0
 12 16  2  0  0  0  0
 12 18  1  0  0  0  0
 12 19  1  0  0  0  0
 13 18  1  0  0  0  0
 14 15  1  0  0  0  0
  1 21  1  0  0  0  0
  2 22  1  0  0  0  0
  3 23  1  0  0  0  0
  4 24  1  0  0  0  0
  5 25  1  0  0  0  0
  9 26  1  0  0  0  0
 13 27  1  0  0  0  0
 13 28  1  0  0  0  0
 13 29  1  0  0  0  0
 14 30  1  0  0  0  0
 14 31  1  0  0  0  0
 15 32  1  0  0  0  0
 15 33  1  0  0  0  0
 17 34  1  0  0  0  0
 19 35  1  0  0  0  0
 19 36  1  0  0  0  0
M  END
> <OMEGA_C>
1S+FQMCWDT0K1a3BRj6TQGe4kD+d67PBmo6fQJGkA8CrM6PBCUndQNi1rT4LobLBB7nHQKe6JsBh
RaLBpHCjQGz1Y78ZFqrByJe/QJwNqj+dtrXB+cPOQIh4RL++yazB2UbdQLZCU0CnMKHB33q4QHr/
YUB2+abBvtzZQCS8R0CDlpXBmuqMQN7fVUD/eJfB7nmsQKlORkC5D4XBXb/PQAcNK0D+hrnBOOa6
QJFrdED/+LLBgjGQQBlaYUB17KHB0zbkQFK16r/iN6jBxzCxQPIrSUAN35DBghJIQGy8VkC6DpPB
MZP6QHysP0AARpDB/DhHQIWuwL3pD6zBUoZ4QL5M6T9fPLfBWpSCQKgVG8A0hJ/Bfav+QJeu3T7W
u7TB0tPPQD4XX8DHsp3BiQH8QLxDUEA/IKXBsk+KQGIDSEAy9ILBv9y6QJ35CkCq+oHBuMW8QDDP
fUAPf4HBabLyQJq0LUB1iLjBD6bHQJMWM0A3CMLBHTaaQE6dfkB9+rXBYNvNQDB7l0DuKrTB3roB
QWFuAcB0DqnBtOscQIV3YEDL1pjBaoo8QJyUHkA6gI/BKIjcQBj/Xb9Diq7BmCflQDBspj61K7TB
NEqhQCAeBsDRYqPBx5mZQFD5cz+S77LBcpluQGiJ4L+kgqHBjC2zQJy5ib98aarBCAbEQOU4oj8L
5rXBChuSQODjNL6AqazB4+LZQLPTTkB6vqHBRo20QLhPYEA0M6fBsgfYQH0iQ0DMIJbBGkqLQPd/
WEDxP5fBHlWtQGL3RECVKoXBW6DOQA/UKkBPurnBdD61QBy8b0CWTbPByyWNQOzDY0Dou6HBdAFc
QKhpGb/eQqfBsDuwQBgdSEC/A5HBundGQEQrXUCxapLByEj5QFHXNkBJKZHBRUb1QNXRzb8/aq3B
IX0CQZHtBD88KbfBCuGxQFFJPcCZPaDB/Kp+QFn/yT9VfbXB3oxCQPOyEsAYbpzBmPP3QAfYSUCH
9aXBi5uLQBvDSUDFt4LB4MW6QJcnCEARRoLBnHq/QNSlekD6uYHBoBzxQKoyNkC9rrjBv1XGQAlH
MEDEQMLBrgaUQK85cEC4NrbByALEQKFAl0BbzbTBjAgjQMPKE76BdKfBPPQZQD/8aEDF+JfBfns5
QPOUJUCnzI7Blq+dQMH8T7/I5q/BZZegQC3uCT9UBrPBjHXKQILmP8BL0KzBBTnuQIrnoT5WBbXB
0aH1QOrKTsA05a3BVBDDQDIPzL9eeK/BqPHIQEYBjz+edrXBC+nqQM2/hL8yCLLBWu7VQBwXSkAu
2KHBrqyvQBQ5WkBAA6fBjxjWQEA7Q0A6KpbBPpWJQCKnXkAtnpbBIpqtQL4ySEBQ2YTBroLMQEqP
JEC9ILnBzV+tQFJ9YUAXKbPBe5eJQMjOY0CuK6HB1aMEQYiyAsCeCbHBGoevQCBHUEAhqpDBx+pE
QN44aEAjbZHBFM33QEKHM0BeiJHBeCF+QFUkn78d3K3BMe+DQNm+kT9QkbPBwIOyQKL/bcDVcarB
4oQGQe6SPT/u9rbBuMsCQZGRhcCniqzBzjLzQBCsQkBHWKbB/sKMQPzEVEAzGYLBMxW3QI0MB0DD
gILBjYvDQGTHdkCpLoHBnXbtQKqWOkCnt7fB1GLFQEp6J0DwvMHBUYWMQExvUkC1srXB7CW1QJfd
kUBIa7XB9U8UQXsS979oYLLBp84WQEgAckCA1pbBn+Q3QKg4M0CDP43BbeOnQBasiL+RvLjBl0it
QDdNlD7hjrvBAGPAQGH6OsD9HavB2mviQNpSCz9uVq3BVKLcQBjDNsAKr6LBig+/QOw0zL+0CLDB
JrTKQCUVjT+M57XBSaHbQOQvSr9dUKrBspvWQH57UEDxqaHB/DGwQE/CWkC/+abBQl7WQJZZRUBs
DpbBvbOJQEv0XUDLoZbBAlKtQB9RRUCY1oTBbr/PQKbAJEDi4bjBWRiuQBMXXkCLK7PBWd+JQOu7
YkApMqHBZRTtQFXrx78OMaLBnYivQPu7T0CcnpDBbARFQKaVZ0Dve5HBfd/3QGuYM0ADcpHBTTKS
QBAN2b+KNb3BluOaQJOjNT9GDsLBxIauQBSfcsBSoq3BD7X5QPWekj+1I6nBd63kQDfBasCLW53B
mm30QOSrUEDwB6bB6ESMQKz8T0DMHoLBxGi3QFolBEC2qoLBAqfCQOEVdED//IDBh/nvQOEhOkC3
j7bBoNTLQBeSK0AIlsHBhgaOQNYfSUC9rbXBT0KzQLpakECjtLXBZSUBQUyBnr9AypzBwQ0XQH4Z
cUAk7JbBI/M3QJq2MkBNSI3Bhy76QHBNzT69V7XBrlMAQZ5M4j8tnbfBwQnAQD4qp787yq7ByFez
QJ89CUA0/LbBOdGUQLK0kb9qKK3BbqDQQAAeKr2m1bLBQlHdQH/wKUCFv7fBzaetQIzEUj+ovLPB
BPiRQE/ZfEBk5aHB6lC7QIQxhkD+U6XBrD6LQMPNVkBpR5fBxmbYQEWOU0AmVZXBAaeqQAP1JEBG
4oXBs6LkQBbyhEChVbfBzyfDQGw5nEAyHrDBdFDeQJ8WdkDX357BV6eJQEADGT6vS7DBjj2vQMuN
QkBbHJHB0aX8QNt9QEADXo/B3mhNQA/0SkAfA5TBDVIKQR47lr6HhrXBBDwQQaLGCEAaP7nB+j7S
QIMuDcAVWK3BOx6YQP4DMUBT4rjBbmx+QCHX8L/++anBmQ1uQPA4hkCn8abB14DKQPuGGECWeYLB
L26aQI6lVkBIJoHBeZyXQOCG0z/jtIXBmmsCQWcNi0CVILTBR17iQCLhkUDQf7/B1JmkQM2mnUAB
ebTBZ63OQArovEDOkq7B2R9YQOV3Bz8OF7DBgmQLQfnvUEDif5PB2eD7QHkTYUACfIjBNFWLQIAc
r75bKarBLCCHQLhyWz839q/BFlPBQMhrD8CnJKXBHTbRQNjIKD8aLLbB+wLrQDdqHMAIRajBHKuy
QA7Ngr8cW6rBBF6qQGDYrz86yrXBFQbVQDTqCL+NZ7DB1DmTQIFOYkBXSaPBjLS8QNMFYkC4HKfB
ns6LQBgSUkDG45fBMMTYQIFHSkAEwpXBGBaqQK6ePUD4fYXB9h2pQK5QMkAdHrrBP8bFQEF4bEDA
DLPBoErfQB1jVkD0GKDBcun2QHpCtL9CGK/B3k6vQF3hRUCDPpHB+JP8QEd+QkCIQI/BABJOQG8l
TkA3gJTBlW5hQAzZO7/noKXB4PRRQGlQsT8e+a/BMOquQG6KN8Bg0p/BLrrrQBWsgz8m3LrBnSH/
QNQlUcAy16XBVF1xQLZObkC+nKjB5Z3JQLR/NED0v4HBjSmbQJoNeECfTYLBiJiVQC0vBkBYtYPB
TRa1QBrbMkCWZMLBpgGIQMAtSkCi97nB2wvAQJ/Ll0DmSLXBHXznQCgpXECPjbTBD9IJQebMp7/0
h7LB94ULQfOaR0DOs5PBp0r8QJTVcEAcvInBT86NQBvtJr/dBKvBJWKPQKJ3Mz8bHq7BnUSxQOi8
P8AJIq7BlarNQJwmfT5paLnByOXSQHU9V8DZmLTBj4irQFEBx7+WYK/BepCvQOzxlD++PLXB7+HK
QMpejr+NkrbBOyKZQF1yXEAyRaLBNL/DQAz4W0CINKXB6/iNQF0lVUD99JbBZAvaQMCdWkB2FJPB
6K2lQEJZUkAZ0oPBHmCyQCi6KEBuXbjBOi7RQIBZW0Cz77DBc+TjQCyrXUChXJ3BsHriQCcmDsCR
rbnB0TSvQHc4U0CkcY/BW6L7QAzrXkDCyYvBhFlQQEKgT0D4ZJTBShdsQKrgfb8hXaXBx8VvQPds
sj+aDKvBxZueQFyfacDgFanB157mQEtVFj8Fu77B5SbfQM6yi8BckrXB6WOAQIAkYkCWQqjBPtLD
QFvWUEAyj37BxZCTQOQfhkD7r4HBeZKSQCxQGUB/34HBDxS+QIpRLUD+pMDBbkOSQB9ARUBB1rfB
xJnSQFj5jkBOxLPB/SjxQNJHPkAxgLHBeAr7QC0PDcDYzb7BKK0LQcvnY0CZvI/BFsT3QKMGiUBG
E4fBhB2TQP6liEDVUJXBuImSQMIlikAqm6DBTCW6QMHKS0Dy0YTBQoTQQPjANEDnMKHBIbPbQNDL
EkDcbYTBFZKxQJWLXUB+GZDB5+WwQL9gZUDfo6bB+o3PQNLqLkCoA5bBaSDcQKZh4z2ke7jB0wzB
QJOsjz+CSrXBTozUQF1an7/RZbTB5FOZQIk5rr5nHKrBjvWpQI1aMsCnpajB7TOuQEGjZ0AN5bLB
QwXKQIawI0Cq0bjBh9eeQHQYWz/fSq7BMIfoQPQJAUDU3Y7Br+KzQOGft78F1KzBON5vQGS/+r7+
1qLBtj7rQHGoCsAphLfB0dx4QFcom0CIuZDBSZd1QKNNnUCKqqTBu0qpQEpvZkCxGnzBLELpQG9W
FEDvqKXBzLDpQM+38D+cgXrBk1z2QIBlnz7I373BY5CPQP0ULsCA2aLBGIGgQH5SXMAnTq/BcXPG
QL/kTMBcr6TB0puMQDdVXUBbL7XBVYe4QGy3k0BAk7XBeO/rQEPsMUA8RrfBH5zDQO+pKEAQc8HB
IxoAQX1Xsj8S5pDBKZ1RQDjDxD5C8aHBt7FGQE5rlr+AkaXBfNOJQJZ/cEBUFpbBRNGMQHxjeEB9
UaHBGFe1QFyOSEB0yYTBuq/YQJCEUUBrgKDBpkLfQMQ+L0AZm4PB7hyuQHobV0BRM5DBUiC0QGQu
aED1m6bBbv7UQLYCR0C4YpXB/tDNQECTWj3VXbvBfMnEQLtyjj9XsrTBNrvBQJRrpr9u6LfBUP+l
QPNcob57mKfBygqgQFagMsBmEarB2vy1QNLAaUCE3bLBRo7SQLzTIUDN0bfBvoOwQDKoYz9U1qrB
tFbyQEzULUAJro3ByqSuQOcQu7+Nz63B9tGRQLmQ0764sZ3BCgvJQIQYEMDe0b3B0wFYQMrNfUDf
DJLBVQdiQOVuhUCr5qXBhByeQBY9UECV7HzBPDf3QIlkSEASY6TBnbruQDs3H0C0SXjBOm3dQBR4
Wj7L98LB0iSSQIacLMCbBKLBxreHQLWoS8Agm6/Bpmy7QEPQXsCIzanBi0GVQOI2YkBd9rXBT9bC
QJsNlEC+Y7XBvK/zQG+nK0DJHLXB8SPRQFJYJ0DYlcDBn1YIQZgjHUABI4/BK4aOQA2//z70h5rB
ae1pQLlEVL9Jop7BRsKJQIfcd0ANv5XBzK+NQBsRgEDj8KDBJkizQEBeTEAbToTBqZjYQKkkUkCW
45/BMaLcQHoeMEAy8oLBoiGtQCR1W0CLvY/Bbuy0QD1zbECSFqbBOgXUQD9PSEBzxpTBTX2sQEW2
Qj/w+arBsRzEQD6BiT8ICLTBaU+jQBmzH7+4cKjB4Y7GQOo5m783B7nBWaalQNC8QcAMuq3BRI+2
QEWtakBeRLLBfpzRQHs5IEARCrfB6SHRQHBTOj0R8brBqlbwQCINLUD08IzBE8+uQL6uzL/M3q/B
cZTTQKafCsDucMDBDxmRQPS9Yr9u/5/BzdxXQOGTg0DI0pHB0FllQLDIikAYnqXB3cKbQLynVUAK
KnzB5Ab3QPnFRUByrqPBm1HrQGE0H0AI1XbBNPGgQJgsxj9T0aXBzwexQIjLaMAJebTBfye2QCeg
VcDAXKbBc/SCQLKwSsD9v6zBkqCVQO2ZZEC/R7XBo1rEQI/Dk0BKCrXBetryQEcaKUDZXbTBNxzQ
QFqJJUBkzr/BszYHQY4FGkBqRI7BMb7jQEgU3L9oWcbBYHfmQH6MNcDj2LzB

> <OMEGA_E>
IF3PPoBdwj7AaAo/XOsYPxLLSj/WrkQ/GmFyP80RjD9sLY0/8puPPw==

> <OMEGA_NBR>
     54722

$$$$
50219776
  -OEChem-04172616093D

 33 35  0     1  0  0  0  0  0999 V2000
    4.4017   -0.4691  -21.4378 C   0  0  0  0  0  0  0  0  0  0  0  0
    4.4470    0.8021  -22.0453 C   0  0  0  0  0  0  0  0  0  0  0  0
    5.5398   -1.2995  -21.4506 C   0  0  0  0  0  0  0  0  0  0  0  0
    6.7692    0.4067  -22.6833 C   0  0  0  0  0  0  0  0  0  0  0  0
    5.6374    1.2453  -22.6751 C   0  0  0  0  0  0  0  0  0  0  0  0
    6.7248   -0.8569  -22.0702 C   0  0  0  0  0  0  0  0  0  0  0  0
    6.9381    3.4202  -20.0789 C   0  0  0  0  0  0  0  0  0  0  0  0
    5.7945    3.5677  -20.8259 C   0  0  0  0  0  0  0  0  0  0  0  0
    6.8127    3.1948  -18.6415 C   0  0  0  0  0  0  0  0  0  0  0  0
    4.4066    3.3626  -18.9126 C   0  0  0  0  0  0  0  0  0  0  0  0
    4.6843    3.6969  -23.2013 C   0  0  0  0  0  0  0  0  0  0  0  0
    5.7891    2.6360  -23.2768 C   0  0  1  0  0  0  0  0  0  0  0  0
    5.9330    3.8259  -22.3115 C   0  0  2  0  0  0  0  0  0  0  0  0
    5.3603    3.0155  -16.6110 C   0  0  0  0  0  0  0  0  0  0  0  0
    4.5260    3.5561  -20.2149 N   0  0  0  0  0  0  0  0  0  0  0  0
    5.5313    3.1513  -18.0774 N   0  0  0  0  0  0  0  0  0  0  0  0
    3.1223    3.3682  -18.3767 N   0  0  0  0  0  0  0  0  0  0  0  0
    7.8272    3.0417  -17.9713 O   0  0  0  0  0  0  0  0  0  0  0  0
    8.2874   -1.9452  -22.0482 Br  0  0  0  0  0  0  0  0  0  0  0  0
    3.4931   -0.8070  -20.9618 H   0  0  0  0  0  0  0  0  0  0  0  0
    3.5747    1.4387  -22.0310 H   0  0  0  0  0  0  0  0  0  0  0  0
    5.5037   -2.2738  -20.9861 H   0  0  0  0  0  0  0  0  0  0  0  0
    7.6778    0.7374  -23.1644 H   0  0  0  0  0  0  0  0  0  0  0  0
    7.9108    3.4701  -20.5456 H   0  0  0  0  0  0  0  0  0  0  0  0
    4.5322    4.3929  -24.0394 H   0  0  0  0  0  0  0  0  0  0  0  0
    3.7121    3.4470  -22.7512 H   0  0  0  0  0  0  0  0  0  0  0  0
    6.4230    2.6899  -24.1742 H   0  0  0  0  0  0  0  0  0  0  0  0
    6.6561    4.6001  -22.6074 H   0  0  0  0  0  0  0  0  0  0  0  0
    4.2880    3.0003  -16.3662 H   0  0  0  0  0  0  0  0  0  0  0  0
    5.8268    2.0784  -16.2728 H   0  0  0  0  0  0  0  0  0  0  0  0
    5.8396    3.8669  -16.1056 H   0  0  0  0  0  0  0  0  0  0  0  0
    2.4569    3.5272  -19.1060 H   0  0  0  0  0  0  0  0  0  0  0  0
    2.9380    2.4857  -17.9439 H   0  0  0  0  0  0  0  0  0  0  0  0
  1  2  2  0  0  0  0
  1  3  1  0  0  0  0
  2  5  1  0  0  0  0
  3  6  2  0  0  0  0
  4  5  2  0  0  0  0
  4  6  1  0  0  0  0
  5 12  1  0  0  0  0
  6 19  1  0  0  0  0
  7  8  2  0  0  0  0
  7  9  1  0  0  0  0
  8 13  1  0  0  0  0
  8 15  1  0  0  0  0
  9 16  1  0  0  0  0
  9 18  2  0  0  0  0
 10 15  2  0  0  0  0
 10 16  1  0  0  0  0
 10 17  1  0  0  0  0
 11 12  1  0  0  0  0
 11 13  1  0  0  0  0
 12 13  1  0  0  0  0
 14 16  1  0  0  0  0
  1 20  1  0  0  0  0
  2 21  1  0  0  0  0
  3 22  1  0  0  0  0
  4 23  1  0  0  0  0
  7 24  1  0  0  0  0
 11 25  1  0  0  0  0
 11 26  1  0  0  0  0
 12 27  1  0  0  0  0
 13 28  1  0  0  0  0
 14 29  1  0  0  0  0
 14 30  1  0  0  0  0
 14 31  1  0  0  0  0
 17 32  1  0  0  0  0
 17 33  1  0  0  0  0
M  END
> <OMEGA_C>
xNqMQCUr8L60gKvB9U2OQIhYTT/aXLDBQkaxQA5Vpr/emqvBK53YQLc30D5wd7XBlGW0QIRknz+P
ZrXBPjHXQCpeW7/Hj7DB/ATeQFjlWkCqoaDB3Wy5QC9VZEBqm6bB2AHaQOR3TEC2IZXB2QKNQEE0
V0APTZfBZ+WVQD2abEAtnLnBXEC5QLG0KED6NrrB2Nq9QLfbdEAHfrLBaIerQHn9QEBF44TB3tSQ
QK2WY0AkuKHBAwCxQMCuSUBxnpDBANRHQN6QV0BiA5PBJHj6QGirQkBSxY/BJpkEQdf7+L/KYrDB
mY5fQCSaTr/YsafBZcdkQAsnuD+TP7DBfh6wQL2FEcB646fBjrD1QAbDPD/CULnBMCX9QJAVXkB4
XaTBIQiRQKaSjEC1UMDBb5NtQOCbXECLArbB3ojNQIgmLEDdZMHBKP/UQGo0k0AN3LTBFDeJQKcE
QEDp7YLBzXS6QBgFBUCvLoLB5926QBx7d0Bf2IDBCz4dQAC9YUAg2ZjBdgc8QIUWH0AijY/BRWjV
QCg7cb/o6rDBVtHYQA+KqT5mpLXBgj+vQA03qb/Sw6vBmrSPQJitVz8yIbDBjBm2QFnSnT+CSrXB
WHmMQMpN2756W6vBokneQDAtXEBcjaDB+uG5QOCqZUAqlqbBRRnaQIgKTkBoEpXB0iSNQIvQWEC4
UJfByLeYQLKKa0BC/LnBPl+8QFjfJ0B+FLrB4ku/QFBNdUDeeLLBnnurQIkyPUCM94TBMhWRQJU0
ZEBWxKHBjiuxQE4LT0Bah5DBuu9HQLhdVkDsE5PBeW36QBUjQkBwuo/BkEMyQJAkbr/MLqTBRBPw
QNZi0L8yP7HBVzL2QOm3Hj/Zj7nBFqWsQEAVE8BdIKjBUrdpQMDHwj+B26/BDn79QOghX0BUP6TB
fuKUQFGTi0Cy08DBUiFyQK6cW0DFsLbBh+DRQIypKkDACcHBTKnWQKdfk0AavLTBpk2JQNLmQEBA
6oLBLJG3QKxp+T+RJIPBg169QJO8bEAuQ4DBITsdQBgRXkBE9ZjBzkk+QOnkHUAIg4/BhXKOQFWc
zr4+Y6vB6FCSQLU3WT+EebDBcgSxQGJip7/FeavBSCLbQP5jkD7I2LXBHiy5QHpQmj+2m7XBTjvX
QEM3d7/kybDBihKQQCihZ0D0kaLBbAy5QL9MZkC0uKbBKhWKQMb7VkB/IZfB8B3XQIELSkCItJXB
ifadQD6KakB+BrvBGJjBQGTRJUBbOrrB8EzBQIbTckC0m7LBvG2qQIxlOkDOJIXBUGPcQIt+WEDJ
CKDBcDyuQDQoRkDn35DBZLT7QPNEP0A1jI/BxLZLQEcJV0AJXJPB2zsDQWa/CsDM67DB8OlhQAuF
K79Fa6fBvl1vQO+0xD8wd7DBoTmuQDa2EMBGeqfB5nD4QJj1CD9Q9LnBq+FpQKy0dECMqqfBRh2d
QMlHi0C248HBQCN6QHcGW0CzkLjBtcbZQCd5KEAuncDBj4bZQMXXkUDzd7TBekDKQJ/dLUB2uYHB
aP+cQP65dECpiYHBATOVQKnfA0C1doPBdMwKQXKAREDtM5TBAaL8QEQybEDZ2onBgNLWQIMZgL9f
MrHBHCnbQJXDgT5iLLbBxhOxQF5vqL8QmqvBgVCTQJLfXD/FR7DBSsu5QMqpmT/Zp7XBSlWPQGEd
xb6HJ6vBhEKQQFgOaEDzlqLBZEW5QKqVZkADuabBJSmKQBZfV0CTJpfBgzPXQGiuSkCorpXBzY+e
QHE0akAVErvBrlnCQEm0JUDbObrBXK/BQM/ZckBlnLLBl3+qQPf+O0DrHYXBFIrcQPWnWEDJBKDB
aE6uQNBJR0BR25DBbr/7QPCrP0C4g4/BsrlLQGltVkCjbJPBspQ5QMgvTL9GSqPB23jwQABw3L+a
q7HB3UL4QFtZ/D4ZbLrBlP6tQNJhEcDrpqfBFw5yQAMlyD9CHrDBXFxqQB5EdUCbsqfBnMKdQK4Y
i0A88MHBOU17QBNrWkDfprjBhanaQDqKKEB3lMDBs9fZQJTwkUDddLTBzlnKQOcIMEDFroHBTt2c
QJFOdkDNjYHBXXGVQEFFBUA6Z4PB2dQKQdJiRECmK5TBcND8QMvObEBi2YnBBHWWQE/Jfb/gwLXB
jaubQHd0pD5ep7nB8FOxQPWMvL/Tja3BiMHXQBCnJj/9c63BI/i7QF7Bkz9zaLXBa+PRQGImJr+L
X6nBCuaNQA1wZ0BsLaLBCJe2QDYxZ0BieabBwvuIQJe7WUB2o5bByU3WQBWmS0DVm5XBCISaQOqe
X0Aqn7rBzt3BQKTqI0CPv7nBxf69QCDocUDaZLLBsc2qQAKdPUBHyITBrIvaQIJdWkAw9J/BaMGt
QMwhSUD7iZDBk5r7QBBvPkDov4/BZDhKQDMVXEDLqZLBzQT2QI0Jpb8kK57Bcrh7QENx0L96DLnB
uOyGQNO/MD+g5r/BQ/isQIpFHsAIeqrBN5fxQAP2oT9ifarBoIVkQHmDcUCtNafBTamWQNi2hEDV
osHBYdB1QEhYSUA+7rfBQUPZQN9HKkBZRsDB2hrTQJXFk0AejLTBLeHKQDlGMUCugIHBh5SdQH35
d0DxIoHB37+VQBANB0D0/ILB7XcKQQ17QkBwnJTBZen9QKz1akA6CIrBzNeFQNC5Er8yz7bBcR2c
QNDXBj9/HLvB2MOQQJDZiL9Lm6zBS2HLQJCjCD8QjqvBTEC+QMB5jT8XX7XBwzyzQMDAAL8l6qbB
wZSZQPKEUUCEcqPBvu3DQHA3XEA2UqbBWxyPQFScSUBiF5jByRrbQDwqU0DbV5TBvzOyQMrIZEBA
XbvB0VvRQKQ5GkCVSLnB3K3RQFZ7aEBv37HBsOymQNhRWUC/GIXB3GPkQKa2WUDbmJ7Brm6wQHx+
TUDrnJDBIzr9QDhuU0DINo3BKPNSQNjrREC+ZJXBRhO/QKC5h79Il5jBr8dYQEK7hL8xU7vB8AqT
QPtSbT8Fz8LBbW99QNn/8L9mJ6nB2OznQI+SZD8vn6fB5MSAQOMNT0ArdKnBy+e2QH5qh0DXUsLB
4b6PQMxrXEBp5rnBdXHsQG/wFEB+3b7BmPTsQH8AikAxCLPBSgnFQJ+9WkDuioDBw7OVQFoCi0AK
8YPBWfaSQL77I0DXQILBn1cMQeLXWEA4RJHB0Tr6QCxvgkBrMIjB

> <OMEGA_E>
4Nh0Pljbez684x8/wgQhP0IbNz8cyVo/

> <OMEGA_NBR>
     58815

$$$$
50208881
  -OEChem-04172616093D

 29 30  0     0  0  0  0  0  0999 V2000
    5.4929   -1.2864  -21.4797 C   0  0  0  0  0  0  0  0  0  0  0  0
    4.4526   -0.3616  -21.6975 C   0  0  0  0  0  0  0  0  0  0  0  0
    6.8087   -0.9722  -21.8730 C   0  0  0  0  0  0  0  0  0  0  0  0
    4.7309    0.8852  -22.2910 C   0  0  0  0  0  0  0  0  0  0  0  0
    7.0930    0.2822  -22.4461 C   0  0  0  0  0  0  0  0  0  0  0  0
    6.0633    1.2312  -22.6259 C   0  0  0  0  0  0  0  0  0  0  0  0
    6.8384    3.3260  -20.1935 C   0  0  0  0  0  0  0  0  0  0  0  0
    5.6673    3.5656  -20.8903 C   0  0  0  0  0  0  0  0  0  0  0  0
    6.7541    3.1189  -18.7410 C   0  0  0  0  0  0  0  0  0  0  0  0
    4.3610    3.3997  -18.9166 C   0  0  0  0  0  0  0  0  0  0  0  0
    6.4127    2.6173  -23.1590 C   0  0  0  0  0  0  0  0  0  0  0  0
    5.6768    3.7535  -22.4036 C   0  0  0  0  0  0  0  0  0  0  0  0
    4.4267    3.5955  -20.2221 N   0  0  0  0  0  0  0  0  0  0  0  0
    5.5050    3.1636  -18.1447 N   0  0  0  0  0  0  0  0  0  0  0  0
    3.1228    3.4311  -18.2956 N   0  0  0  0  0  0  0  0  0  0  0  0
    7.7584    2.9107  -18.0728 O   0  0  0  0  0  0  0  0  0  0  0  0
    5.2816   -2.2363  -21.0112 H   0  0  0  0  0  0  0  0  0  0  0  0
    3.4416   -0.6086  -21.4093 H   0  0  0  0  0  0  0  0  0  0  0  0
    7.6000   -1.6941  -21.7349 H   0  0  0  0  0  0  0  0  0  0  0  0
    3.9273    1.5784  -22.4911 H   0  0  0  0  0  0  0  0  0  0  0  0
    8.1022    0.5191  -22.7492 H   0  0  0  0  0  0  0  0  0  0  0  0
    7.7897    3.2922  -20.7037 H   0  0  0  0  0  0  0  0  0  0  0  0
    7.4970    2.7709  -23.0553 H   0  0  0  0  0  0  0  0  0  0  0  0
    6.1357    2.6652  -24.2225 H   0  0  0  0  0  0  0  0  0  0  0  0
    4.6358    3.7904  -22.7571 H   0  0  0  0  0  0  0  0  0  0  0  0
    6.1762    4.7062  -22.6338 H   0  0  0  0  0  0  0  0  0  0  0  0
    5.4197    3.0266  -17.1579 H   0  0  0  0  0  0  0  0  0  0  0  0
    2.4124    3.6101  -18.9762 H   0  0  0  0  0  0  0  0  0  0  0  0
    2.9483    2.5503  -17.8555 H   0  0  0  0  0  0  0  0  0  0  0  0
  1  2  1  0  0  0  0
  1  3  2  0  0  0  0
  2  4  2  0  0  0  0
  3  5  1  0  0  0  0
  4  6  1  0  0  0  0
  5  6  2  0  0  0  0
  6 11  1  0  0  0  0
  7  8  2  0  0  0  0
  7  9  1  0  0  0  0
  8 12  1  0  0  0  0
  8 13  1  0  0  0  0
  9 14  1  0  0  0  0
  9 16  2  0  0  0  0
 10 13  2  0  0  0  0
 10 14  1  0  0  0  0
 10 15  1  0  0  0  0
 11 12  1  0  0  0  0
  1 17  1  0  0  0  0
  2 18  1  0  0  0  0
  3 19  1  0  0  0  0
  4 20  1  0  0  0  0
  5 21  1  0  0  0  0
  7 22  1  0  0  0  0
 11 23  1  0  0  0  0
 11 24  1  0  0  0  0
 12 25  1  0  0  0  0
 12 26  1  0  0  0  0
 14 27  1  0  0  0  0
 15 28  1  0  0  0  0
 15 29  1  0  0  0  0
M  END
> <OMEGA_C>
s8WvQBiopL931qvBG3yOQFAgub5ulK3BtODZQHzieL8A/K7BzmOXQLiZYj/3U7LBAPriQIB4kD6q
kbPBOAbCQPaYnT/bAbXBUdTaQPrdVEBKjKHB7lq1QAwyZEBNH6fB0yHYQPqbR0Cj7ZXB+oyLQLqU
WUBHVZfB6jTNQICCJ0ChRbnBOKi1QDA5cECHOrPBI6eNQPAcZkDwxqHB7SiwQIV4SkBwKJHBEtxH
QJ6XW0BLXZLB1ET4QP5IOkD/lJDB9AKpQOUeD8D7FqjBgkJcQHnNG78mRqvBLjPzQEzY2L8V4a3B
FFl7QF0Iyj/A7bPBkaIBQbLjBD9O/rXBLEX5QJizUkA6oaXBT+fvQKpWMUAycbjBgVfEQNaSKkCc
x8HBfliUQNuVckCWDrbBb6PFQOSYlkABErXB9W2tQFWzQUBMQ4nBbmQaQLQLZ0A9z5fBUrE8QOs3
I0AA2I7BJauxQBe2sr/+pazBon7ZQMfMjr9sa7HBWhyRQPwD2L4QrKzBMnbhQFjzIT53xbXBrK2Y
QBGbVz8VRrHBSMfBQHTClD+3U7XB1GqLQLTbZkA3N6LBazuzQJJwYUD9AqfBXi6IQHryW0Bgm5bB
5NLUQBTASUAlN5bB4UnNQF4gJEDrLrnBGkK2QEibbUADJrPBZjTYQEWXUkCzvqDBGmutQLIoTkCp
7ZDBKin5QO8hPEAZHZDBfARLQESIXkBcD5LBHxesQO/nFsAH+ajBSO7xQDVs8L8rvbHBG69kQJzh
JL94KanBNPf/QDaRvD7ld7nBxkl+QNSxyD+HtrHBwlZeQMTxckBr9abBM//vQETgLEAaNbjBte3E
QNXVKEARtsHBvpCVQLv/ckD8VrbBn8nHQJqvlECbtLTBazusQFhFR0D5+ojBum0JQb7FOkDZ4JTB
d0z8QCmAa0CbyorBK9+sQOkbyr91L6/BQsHMQOdtkL+ETbbBl2aOQAiALL8LI6vBf5XOQHzGbD7X
QrnBj4qPQNRJLT/JS67Bq+mvQPlNkj/MTbXBROOYQATUW0CLaaLBCKnDQMC5W0C/UKXBa9uNQN6Y
VUBSEZfBBprZQDJlW0B7JZPBhpGyQMltJ0Cjd7jBvTjRQLaUWkC2CrHBPdvjQEOCXUBjap3BAPiu
QKYJVkAOt4/Bvd75QJd9XkDUiIvBxgRRQDoNT0ApNJTBMdKrQKGLJ8D81qzBk9XjQOm76b9Pf7nB
j1psQEP4gb8LnaXBEITnQJWLEz+7kb7BciVvQCVxrj+PW6vB6SKAQKxsYEAvaqjBilS+QFrmK0Ag
vsDBcmSSQO6xQ0C497fBAZjSQGqGjkC867PBfz7xQGqlPUBXj7HBHnCoQBeCUkBY5YfBPiMLQTUj
YkCqMI/BmMX1QBX5iECU44bBH6CkQF+007/JurDB7gSdQLWSlb84IbvB2aexQPRoRb+5oqjBMfmh
QBbaTz6qa73BiW63QKr8Fj8K8qrBJnuvQCEyjT8PZbXB7WOYQKQjXkCWnaLBpyTDQDgXY0C8j6XB
q/WNQDtyVUB1PpfB/ejZQC+0WkCXfZPB/JOyQM8bJkCMWLjBbtbQQOGzXEDDOrHBi6TjQCt3YkCB
vJ3BpXOvQKxyU0Bm/Y/BRZz6QJzRWUBH/IvBJJlRQKulTUBESJTBkHCgQIQHLcA8/K7BZliTQLHO
7L94YcHB/ju3QCvNkb8VoqDBJGKbQDSUET+rYcXBARLCQAkooT8jtaTBlcZ+QKmjYEB9kqjBGgu+
QBWKKkDFpcDBNEaSQBu5QUBqy7fBJB7SQKzljkAJkbTBRPDwQL/mP0ClgLHB60ipQKTETEAwL4jB
TWYLQTSbX0C+s4/B/bv2QKtMhUDq5YbBoeWOQBbkKb8OE7LBv+yxQL8ppb8/Cq3B53SRQA7uMT9i
8LTB5QfXQMhjDL/nkKrBJQW3QKs+tj9izbLBfXPZQKgZUz8uMq3BVwGwQACaUECOPJ7BcdvbQBi0
R0ALH53BQVKVQBDKTkDsnZTBQXvWQMY9RECcOYrB1PQAQSM5zz+MfKrBF5L4QIgPRUAF7qbBAafu
QA7sQUDJ6JLBybupQM6ySUDGzYrBYd/pQAI4QUAuQIDB9HFcQAiJUUASP5XBS0RkQEvZnL8wu7PB
CVuwQLrPFcByEqvBTTxtQGPHlj8GxrjB3q7xQKr5g78fpqbBjaC5QLewHEAkdbXBYMehQMC2WECF
C6bBIGUJQV1VjT8i9KPBJEELQRri0j+DnrHBYKnoQJUZZ0DKhq3B3IILQWH0ZEADCaXBL26YQA7q
SUACE4TBWM4EQQV0PUB6J4HB7Y/iQOQrdkDPSnjB

> <OMEGA_E>
MBFKPhQbHz/WL1I/Nv5qPyhPhj8=

> <OMEGA_NBR>
     61993

$$$$
50219777
  -OEChem-04172616093D

 43 46  0     1  0  0  0  0  0999 V2000
   10.1101    1.9862  -16.3625 C   0  0  0  0  0  0  0  0  0  0  0  0
   10.0319    1.6976  -17.7377 C   0  0  0  0  0  0  0  0  0  0  0  0
    9.0456    2.6444  -15.7133 C   0  0  0  0  0  0  0  0  0  0  0  0
    4.2421    3.5170  -18.8562 C   0  0  0  0  0  0  0  0  0  0  0  0
    8.8917    2.0717  -18.4643 C   0  0  0  0  0  0  0  0  0  0  0  0
    7.9014    3.0229  -16.4385 C   0  0  0  0  0  0  0  0  0  0  0  0
    5.3432    3.1629  -18.0498 C   0  0  0  0  0  0  0  0  0  0  0  0
    4.4395    3.8416  -20.2114 C   0  0  0  0  0  0  0  0  0  0  0  0
    6.8340    3.5132  -19.9403 C   0  0  0  0  0  0  0  0  0  0  0  0
    7.8225    2.7461  -17.8195 C   0  0  0  0  0  0  0  0  0  0  0  0
    6.6480    3.1625  -18.5980 C   0  0  0  0  0  0  0  0  0  0  0  0
    5.7339    3.7778  -20.7621 C   0  0  0  0  0  0  0  0  0  0  0  0
    5.0246    0.8124  -21.4774 C   0  0  0  0  0  0  0  0  0  0  0  0
    5.7963    1.1692  -22.5680 C   0  0  0  0  0  0  0  0  0  0  0  0
    5.0378   -0.5802  -21.0240 C   0  0  0  0  0  0  0  0  0  0  0  0
    6.5547   -1.0514  -22.8510 C   0  0  0  0  0  0  0  0  0  0  0  0
    7.2233    3.3420  -22.9040 C   0  0  0  0  0  0  0  0  0  0  0  0
    5.9134    3.8686  -22.2475 C   0  0  1  0  0  0  0  0  0  0  0  0
    5.9084    2.5912  -23.1007 C   0  0  2  0  0  0  0  0  0  0  0  0
    5.7807   -2.9418  -21.3881 C   0  0  0  0  0  0  0  0  0  0  0  0
    6.5526    0.2074  -23.2405 N   0  0  0  0  0  0  0  0  0  0  0  0
    5.8249   -1.4994  -21.7247 N   0  0  0  0  0  0  0  0  0  0  0  0
    7.3165   -1.9366  -23.6011 N   0  0  0  0  0  0  0  0  0  0  0  0
    4.3626   -0.9063  -20.0534 O   0  0  0  0  0  0  0  0  0  0  0  0
   10.9888    1.7024  -15.8023 H   0  0  0  0  0  0  0  0  0  0  0  0
   10.8469    1.1898  -18.2320 H   0  0  0  0  0  0  0  0  0  0  0  0
    9.1089    2.8584  -14.6567 H   0  0  0  0  0  0  0  0  0  0  0  0
    3.2482    3.5391  -18.4343 H   0  0  0  0  0  0  0  0  0  0  0  0
    8.8274    1.8457  -19.5184 H   0  0  0  0  0  0  0  0  0  0  0  0
    7.0854    3.5243  -15.9394 H   0  0  0  0  0  0  0  0  0  0  0  0
    5.1912    2.8923  -17.0153 H   0  0  0  0  0  0  0  0  0  0  0  0
    3.6023    4.1382  -20.8258 H   0  0  0  0  0  0  0  0  0  0  0  0
    7.8335    3.5800  -20.3439 H   0  0  0  0  0  0  0  0  0  0  0  0
    4.4215    1.5492  -20.9678 H   0  0  0  0  0  0  0  0  0  0  0  0
    7.6764    3.8886  -23.7442 H   0  0  0  0  0  0  0  0  0  0  0  0
    8.0170    2.9080  -22.2782 H   0  0  0  0  0  0  0  0  0  0  0  0
    5.4787    4.7562  -22.7303 H   0  0  0  0  0  0  0  0  0  0  0  0
    5.4641    2.7289  -24.0975 H   0  0  0  0  0  0  0  0  0  0  0  0
    6.4663   -3.4939  -22.0477 H   0  0  0  0  0  0  0  0  0  0  0  0
    6.0862   -3.0833  -20.3409 H   0  0  0  0  0  0  0  0  0  0  0  0
    4.7566   -3.3190  -21.5254 H   0  0  0  0  0  0  0  0  0  0  0  0
    7.7590   -1.4441  -24.3506 H   0  0  0  0  0  0  0  0  0  0  0  0
    8.0142   -2.3527  -23.0180 H   0  0  0  0  0  0  0  0  0  0  0  0
  1  2  1  0  0  0  0
  1  3  2  0  0  0  0
  2  5  2  0  0  0  0
  3  6  1  0  0  0  0
  4  7  1  0  0  0  0
  4  8  2  0  0  0  0
  5 10  1  0  0  0  0
  6 10  2  0  0  0  0
  7 11  2  0  0  0  0
  8 12  1  0  0  0  0
  9 11  1  0  0  0  0
  9 12  2  0  0  0  0
 10 11  1  0  0  0  0
 12 18  1  0  0  0  0
 13 14  2  0  0  0  0
 13 15  1  0  0  0  0
 14 19  1  0  0  0  0
 14 21  1  0  0  0  0
 15 22  1  0  0  0  0
 15 24  2  0  0  0  0
 16 21  2  0  0  0  0
 16 22  1  0  0  0  0
 16 23  1  0  0  0  0
 17 18  1  0  0  0  0
 17 19  1  0  0  0  0
 18 19  1  0  0  0  0
 20 22  1  0  0  0  0
  1 25  1  0  0  0  0
  2 26  1  0  0  0  0
  3 27  1  0  0  0  0
  4 28  1  0  0  0  0
  5 29  1  0  0  0  0
  6 30  1  0  0  0  0
  7 31  1  0  0  0  0
  8 32  1  0  0  0  0
  9 33  1  0  0  0  0
 13 34  1  0  0  0  0
 17 35  1  0  0  0  0
 17 36  1  0  0  0  0
 18 37  1  0  0  0  0
 19 38  1  0  0  0  0
 20 39  1  0  0  0  0
 20 40  1  0  0  0  0
 20 41  1  0  0  0  0
 23 42  1  0  0  0  0
 23 43  1  0  0  0  0
M  END
> <OMEGA_C>
/MIhQWA7/j9N5oLBkIIgQUBL2T/V5o3BzroQQaA9KUDQaXvBlL+HQCAWYUBw2ZbBU0QOQXCXBEDm
tpPBj9j8QNB3QUAVgoPBy/uqQEBsSkDsZZDBLBCOQJDcdUDdsKHB1a/aQLDYYEDQhZ/B2lH6QOC/
L0Bnjo7BCLzUQCBmSkDByJTBWHy3QMDGcUCxGKbBx8mgQGD2Tz+v0avBHnu5QLCplT9di7TBkzWh
QGCIFL8kMajBZMDRQDCUhr/ezrbBJCXnQBjkVUBoO7fBmDq9QKiWd0DZ+rHBlBG9QCjWJUBIzrjB
rPu4QOBFPMDEGqvB4q7RQABjVD6R7LnBzWW6QFDsv78hzK3B1yDqQFDi978Uz7zBeJqLQCAAaL9j
baDBFNIvQSXo2T8z1nzB24wtQcRMmD8m25HB970RQb3wNkClgWrBTuJPQKSAYkBxeZPB9TwNQWI/
7D+7JZzBsLviQLyNYUCXB3/BUh6mQNMbOUBcH4jBJIxmQMJrhEBVm6bBDaz6QPEdZUBUwKLBTH2N
QNBMxj/6vafBJ6X1QEPeeEA19L3BvkUAQa4cOkDaObLB0FGvQCozmECh17XBAdquQImlLkDIx8DB
levOQLScX8C9YbDBhsLCQMBURcAbuqLB/jWYQDNqVMALNKzBl0n4QHjZuL/9zcLBUjoAQT6TFsDn
JLjBDgbcQBk2zb88wYbB8dvLQGKbq77mb4nBHQriQLSbJMB9zo7B69+jQMKMmL86VLnBevTBQLhw
Kr2bK5TBhaHYQFQoEcA3kpnBNtKtQG6nyb+Gw67BXpmqQLR3DD5dubzBvpPIQIzMKT/aUqvByAvJ
QANQfb+TV5zB5aG/QFzRIr8fn6fBRGq8QBrFij8Pp7XBwqWOQPZ3Z0DzH6LBC5i3QFBZaUBFQqbB
8ziJQFwlW0D8k5bBlK7WQNzzUEDCNZXBQoWcQLroXEDvfLrBL7bDQGT1IED2hLnB+K6/QCw0cECu
OLLB7uaoQFreQECJk4TB3ljbQAwfYEBhiZ/BZMStQAbNTkAOQpDBycH7QN5qQEAiZI/BWCdKQMoi
WkBWwJLBINHjQBrZ6r9fFn3BERDHQPra0T5YTIPBgOrtQBlXY8DiuIzBegqXQMak9b8V2r7B1rm0
QKuJbD8zLpbBxlvdQAfxQMB6s5/BR8+nQJ6VJcCrJKzBXhOiQIwr3D5Fw8TBqCTZQP9WrT8FIqbB
6l9mQAPrbkCbSafBQNqYQCIOg0B7kMHBsax5QP3vRkAJ0LfBgz3bQIeBJ0BlA8DBdebUQAWpkkCo
gbTBy6TIQJZtOED164DBGvaYQM+eeEDP+IDBmHuVQAQ7B0DuLIPBn40KQdbqQkB3Q5TBHPf+QKZE
bECZnonBnrQZQcSpEMAcN5jBWy4cQeDje79UwZzBB1wGQYCQPcBse5nBzKF6QIDoOr4EwKvBXzoL
QSBuzL78bKLBK9HqQFTMGMDQP5/BLAmgQDDTYb+XVKfBpnWEQMB0eT8B3LHBlE7RQECwMj8Ima/B
Sh7vQLipi7/asKPB0n/KQABl376sF6nBaqCuQFAvtT+UyLPBrETfQHDxYkBUyaDBfLW6QNCWb0Bg
sqbBDv3aQLC1S0AQh5XBYv6NQGCmU0Ba2pfBxt2WQMjldUDmx7nBzua3QIDFLUDWjrnBFvO+QNCL
fUBemrLB9rmrQJjQNUBKnoXBMgySQADsaEDQAaLB4s2xQPCDQ0BQOpHB4HVJQCjcTUByyZPBtE37
QJhxPkDiOZDBbK4mQTkHLcCqvpPBliErQZ066L6s4JvBZIoEQdBxfMAKA5bBeSE6QArxCL+zcqrB
DicNQaqsFT/42qXBTlnNQMfpO8B2TaDBJViaQDTq4b+1j6LBGWBTQBBUwz/sFLXBDZLxQKQHgj+S
XbHB13f+QE8LakAjZaTB3LKTQEU4j0By7sDBSlpuQHxRbEBiJLbBHYHMQObPKECHqsDByczXQIZF
lUCiSbXBb1aJQEEIMUBv1oPBLc67QIt+9D+rM4PB44a5QG35a0DoLYHBZ0sfQGSOW0B2jpnBehg/
QKBxEkBmHJHBgucjQellOMB+56PBhCAkQXCgvb/cFaXBwG0RQfmAZ8BxmKbBgsuKQEK+2L6k7qzB
9t8RQQlrUb8G7qjBByD+QCcgPcAbZ6rBhbSuQFxAn79kM6vBk3+PQEFfUD8/MrLB/o7bQE6cwj4D
dLTBK2H+QLpzxr/Rk6vBMXnXQNG3U7+Iya7BvD64QOzEmz8a+LXB4o2QQDdgYkA7v6LBwa25QF3Q
YUCvz6bBdFOKQO3KVEDqQ5fBJXDXQBPbSUDQqpXB0vaeQKOobEDsG7vBh3DBQKHsJUCWgrrBM2HC
QEnrcED2orLBqkWqQGJaQkCfDIXBFdrcQBXhVEC+DaDBN3GuQCoiSEC415DBFwv8QK+JQEAEe4/B
DPFLQBtpVUBAkpPBGeoxQeUfWcAu7qDBzUwyQXZCa79ICqPBbF0RQbQjlsDsu6XBXTNXQOLuPb9a
OarBJBMSQbHGgj6w36nBIs7hQFhNYcDZa6zBYyCrQB03DMDiI6fBMR5oQNsquj9rWrPB2VD6QAAP
Kj/Nq7fBy+xqQDOqbEB49KfBrN+eQDgTjUA108HBqKJ7QIOjXkCwuLjBK7rZQK01KECQ38DBz1vb
QClckEDQSrTBYArKQMhpOEAKeIHB+1ucQD0UfkA+84HBcU+VQMlHDEA7+oLBV/QKQR7mQ0AELJTB
tS/9QJ89b0ClBIrB

> <OMEGA_E>
FKOSPxwEbz8AmRk/emtTPw==

> <OMEGA_NBR>
     65316

$$$$
50219783
  -OEChem-04172616093D

 47 50  0     1  0  0  0  0  0999 V2000
    7.2410   -0.2890  -22.3859 C   0  0  0  0  0  0  0  0  0  0  0  0
    1.2511   -1.0641  -20.9631 C   0  0  0  0  0  0  0  0  0  0  0  0
    6.1077   -0.8915  -21.8123 C   0  0  0  0  0  0  0  0  0  0  0  0
    2.3753   -0.4548  -21.5469 C   0  0  0  0  0  0  0  0  0  0  0  0
    7.1584    1.0140  -22.9059 C   0  0  0  0  0  0  0  0  0  0  0  0
    1.4163   -2.0368  -19.9605 C   0  0  0  0  0  0  0  0  0  0  0  0
    4.8000    1.1117  -22.2887 C   0  0  0  0  0  0  0  0  0  0  0  0
    3.8355   -1.7943  -20.1219 C   0  0  0  0  0  0  0  0  0  0  0  0
    4.8747   -0.1944  -21.7540 C   0  0  0  0  0  0  0  0  0  0  0  0
    3.6797   -0.8215  -21.1365 C   0  0  0  0  0  0  0  0  0  0  0  0
    5.9378    1.7187  -22.8514 C   0  0  0  0  0  0  0  0  0  0  0  0
    2.7049   -2.4030  -19.5224 C   0  0  0  0  0  0  0  0  0  0  0  0
    6.8976    4.1989  -20.2947 C   0  0  0  0  0  0  0  0  0  0  0  0
    5.7204    4.1496  -21.0104 C   0  0  0  0  0  0  0  0  0  0  0  0
    6.8524    3.9855  -18.8505 C   0  0  0  0  0  0  0  0  0  0  0  0
    4.4533    3.6998  -19.0571 C   0  0  0  0  0  0  0  0  0  0  0  0
    7.0012    4.0931  -23.3489 C   0  0  0  0  0  0  0  0  0  0  0  0
    5.8155    3.1061  -23.4419 C   0  0  2  0  0  0  0  0  0  0  0  0
    5.7241    4.3196  -22.5181 C   0  0  1  0  0  0  0  0  0  0  0  0
    5.5111    3.6007  -16.7750 C   0  0  0  0  0  0  0  0  0  0  0  0
    4.0717   -3.4711  -17.8312 C   0  0  0  0  0  0  0  0  0  0  0  0
    4.4975    3.9037  -20.3631 N   0  0  0  0  0  0  0  0  0  0  0  0
    5.6175    3.7164  -18.2499 N   0  0  0  0  0  0  0  0  0  0  0  0
    3.2075    3.4580  -18.4881 N   0  0  0  0  0  0  0  0  0  0  0  0
    7.8942    4.0352  -18.2067 O   0  0  0  0  0  0  0  0  0  0  0  0
    2.7981   -3.3522  -18.5124 O   0  0  0  0  0  0  0  0  0  0  0  0
    8.1760   -0.8280  -22.4270 H   0  0  0  0  0  0  0  0  0  0  0  0
    0.2587   -0.7849  -21.2849 H   0  0  0  0  0  0  0  0  0  0  0  0
    6.1769   -1.8927  -21.4131 H   0  0  0  0  0  0  0  0  0  0  0  0
    2.2434    0.2962  -22.3117 H   0  0  0  0  0  0  0  0  0  0  0  0
    8.0294    1.4757  -23.3471 H   0  0  0  0  0  0  0  0  0  0  0  0
    0.5482   -2.5071  -19.5226 H   0  0  0  0  0  0  0  0  0  0  0  0
    3.8628    1.6477  -22.2653 H   0  0  0  0  0  0  0  0  0  0  0  0
    4.8271   -2.0764  -19.8004 H   0  0  0  0  0  0  0  0  0  0  0  0
    7.8363    4.3918  -20.7929 H   0  0  0  0  0  0  0  0  0  0  0  0
    7.9349    3.7887  -22.8536 H   0  0  0  0  0  0  0  0  0  0  0  0
    7.2342    4.7568  -24.1946 H   0  0  0  0  0  0  0  0  0  0  0  0
    5.2257    3.1763  -24.3677 H   0  0  0  0  0  0  0  0  0  0  0  0
    5.0793    5.1292  -22.8907 H   0  0  0  0  0  0  0  0  0  0  0  0
    4.4680    3.3883  -16.4976 H   0  0  0  0  0  0  0  0  0  0  0  0
    6.1575    2.7828  -16.4239 H   0  0  0  0  0  0  0  0  0  0  0  0
    5.8292    4.5451  -16.3093 H   0  0  0  0  0  0  0  0  0  0  0  0
    4.0047   -4.2539  -17.0613 H   0  0  0  0  0  0  0  0  0  0  0  0
    4.8528   -3.7379  -18.5583 H   0  0  0  0  0  0  0  0  0  0  0  0
    4.3247   -2.5113  -17.3569 H   0  0  0  0  0  0  0  0  0  0  0  0
    2.5057    3.4786  -19.2002 H   0  0  0  0  0  0  0  0  0  0  0  0
    3.2104    2.5596  -18.0490 H   0  0  0  0  0  0  0  0  0  0  0  0
  1  3  1  0  0  0  0
  1  5  2  0  0  0  0
  2  4  2  0  0  0  0
  2  6  1  0  0  0  0
  3  9  2  0  0  0  0
  4 10  1  0  0  0  0
  5 11  1  0  0  0  0
  6 12  2  0  0  0  0
  7  9  1  0  0  0  0
  7 11  2  0  0  0  0
  8 10  2  0  0  0  0
  8 12  1  0  0  0  0
  9 10  1  0  0  0  0
 11 18  1  0  0  0  0
 12 26  1  0  0  0  0
 13 14  2  0  0  0  0
 13 15  1  0  0  0  0
 14 19  1  0  0  0  0
 14 22  1  0  0  0  0
 15 23  1  0  0  0  0
 15 25  2  0  0  0  0
 16 22  2  0  0  0  0
 16 23  1  0  0  0  0
 16 24  1  0  0  0  0
 17 18  1  0  0  0  0
 17 19  1  0  0  0  0
 18 19  1  0  0  0  0
 20 23  1  0  0  0  0
 21 26  1  0  0  0  0
  1 27  1  0  0  0  0
  2 28  1  0  0  0  0
  3 29  1  0  0  0  0
  4 30  1  0  0  0  0
  5 31  1  0  0  0  0
  6 32  1  0  0  0  0
  7 33  1  0  0  0  0
  8 34  1  0  0  0  0
 13 35  1  0  0  0  0
 17 36  1  0  0  0  0
 17 37  1  0  0  0  0
 18 38  1  0  0  0  0
 19 39  1  0  0  0  0
 20 40  1  0  0  0  0
 20 41  1  0  0  0  0
 20 42  1  0  0  0  0
 21 43  1  0  0  0  0
 21 44  1  0  0  0  0
 21 45  1  0  0  0  0
 24 46  1  0  0  0  0
 24 47  1  0  0  0  0
M  END
> <OMEGA_C>
frbnQEzyk75JFrPBjCWgP5o1iL9dtKfBGHLDQKI5ZL+Ff67BdwQYQILb6L4SYKzB9xHlQOfLgT83
P7fB40e1P4JbAsASr5/B9ZmZQJtLjj9VT7LBEHh1QIqq5b+z+aDBwf2bQIAKR75JCK7B/YBrQLZQ
Ur+VF6nBcAK+QHT+2z+uz7bBnB0tQN3KGcD3LZzBi7ncQE5dhkCiW6LBdw23QHHJhEBVFajBFUfb
QFcSf0DQzZbBkIGOQCzKbEDfdJjBeAngQGv6gkCdyrrB8Ri6QAzLRkAAibvBcCu3QFY6ikAAJbTB
6FqwQKJxZkApM4bBsUuCQNolXsA3po7BkuuPQHPVeUCm56LBuMKzQIHZbUDO/5HB/UZNQJZQXUC5
55PBGJ38QCAggUBFp5HBmRMzQMaJVsBzGZTB9NACQYr0U79qarPBUHmEPiDxSL91R6rBCanFQF9C
8r8STqvBa5MPQG2tlz5nfrLBengAQUnkvD/NxrrB8lYMP190IMBQLpzBhzd3QBjp0j9DH7LB03ea
QBXjBMAgZ57BxsL6QIiJjEDhV6bBBev9QGp5ckAc1LbBq37nQH83mECSjsHBuDinQNlIS0AQ8cLB
84miQKUipEA4ILfBGfqOQKHaWEAo+4PBJwrFQJ0ZMkAiZIPBvoi6QLVxkUB9eYLBlSaAQB4giMCb
fYjBX0qbQBo6b8BVd5TBR2SKQL65IMDv2orBsFwgQJ2hXkAOmpnBt3ZNQNjQI0BmZJDBOjvrQL8U
zT3Cta3BIMq1P/Cf2L+1xavBo4THQFQ+KL95iKrBQbMhQLNqbL/NBK/BqXXlQOfUqT/UA7PB8jvC
P133IcDCwKLBSf6XQEYchj925LHB7O90QD5y6b/LJqDBi32dQIU+Qr6ul6zBqH9vQEO0fL/nO6nB
17+7QLdI5z9JGLXBbgcuQLHKJsCt3JzBLYiLQI2Hl0B9XqLB0LquQFx1i0AUSajB0jmOQGfClUAm
qJbBHJXXQNOKekBOtZjBSoHWQHtph0BO2rrB/Fm0QArfR0A65brBUL2sQDUNjUDJabTBJ6+5QGG1
hkBlMobBygWAQGwCYsDfGY7B4ebUQNwmfkBcOqPB2n60QJNsh0CG/ZHBGK3+QJKvYUAcX5TB/0Re
QORcoEChSJHBZEYwQB/RXMCkBZTB2pEFQb+Ihb7IEqzBvE/9PjXc0b+fNLDB8iHMQLf0zL9tf6bB
xK8cQFPEkL4Q8rXBv3gAQWqU8z/9gLXB8FcqP3W7R8DlUqDBYj5wQML7tD+xf7PBPPOXQGoT778g
qJvBHB5dQHoTokChRabBQwb1QF1mgkCkprbBNhPcQJqjmkBdF8LB7K6hQD0WQ0D2VMLBJWuVQKWR
o0Ck17fB37DZQLUGdUDsKoTBJP61QB9Up0B2BYPB+jShQLqDY0Anp4LBIIx4QH5ih8CqX4fBkJeZ
QJPreMCRbZPB3m6IQCNCIsArBIvBpLsJQVL/VUBqRprBuwAFQVVEiED/to/B753oQCAjj70U367B
3mCjP/MZ0b+emKvBb2DEQEYASr+TgKvBg7MZQAnSa78ZOa/BVL7jQAt2lD++L7TBkcuvP2ZdHcBV
gKLBIySWQJpfcD8e+7LBdRVuQGF+7L/uj6DBsbSaQGB3kr6ceK3BoLdoQKWDg7+wvanBF2S6QK4f
1j9IMrbBWPwlQHHVJMBu55zBDe2UQGhKZkCjb6PB/6KxQEjqiUAplqnBTaGZQAnmZ0BDxZfBwKrV
QDRfpECiTZrBGITXQOqcgUA2JrzBVcmzQCF/P0Bz/bvBbXOuQNK+iUBBrLXBdaK/QFCCkECImYfB
IyR5QPT5YcDSXY7BdpHRQNfyokC1z6TBseq6QPpnjEBIXZPBMqb1QMulvkA6MZbB47eAQHuUPkDc
NpLBzS0oQInuWcAi+pPBpR8EQfnt7L7BX63BtkOsPs4Sxr+Oy6/B1VDIQPGI3b9OY6fB1LMUQNgE
lb5QNrbByqD/QHs52z8HvLbBZsYBP3dyQMBayZ/BeBRtQESDqD++vrTBGPaUQJva9b8IR5zBrPF2
QMglQkC3JKfBK+b1QKXjdkBk+7fBgcHdQGQNlEApe8PB7sGgQPuRO0CGYMPB1BqYQAIPoUCuLLnB
lW/bQFrUpECxxoXBtZOiQCwcn0BMO4TBa2HEQE4/YUDNEITBmXNxQBvQhsCFh4fBLuqUQKCwe8Ca
2ZPB4MCGQOaxIsBgeIvBi5MCQevxzECGNZzBb4ToQNLd1ECAdpHB4KbpQMDd+L7QubTB2uWsP0Jb
Tr9Gs6bBQ9HEQLrPgb8+0q/BJQofQIptkL4X3qvB6cDpQBkHVz/Xe7jBODq/PwUU6L8W6p7Bg4uf
QHiejD89v7LB6l56QNte4b+fVqHBy3OfQMzBYr51sq7B+r1xQF+xQr/1QanBh8vEQNK60T9QbLfB
Rm8xQMpIE8AVKZzBofKWQA+fl0C47qHBjhq0QD7qfUCXcqfBRmaOQDNgjUBWq5bBz9fAQC1RJUCA
YJjB5CfqQNofgEB5nLfBJS7FQMWDRUDwHLvBn668QCbHh0BgOrPB2fKbQEBTPEBox4bB3VOFQE2O
c8DbvZHB0bHJQPmKOkAFVKLBcZKiQI/rUkCjLZLBoZ/WQDnLvj9pJJTB2gdrQOLLo0CRjZHBQVA2
QEABU8DVaZTBfPACQau5jL9Am7XBTXG8PkTL3r6otajBfv/EQI7uAcBt5KzB/6sXQEsU+j7p2bHB
ohIDQVCSnz/DLrzBKjoeP8vIDcA7BJvBSN2CQORY2T9nQbLBEaucQJKGB8CLNJ/Byb2GQCrpsUB2
z6XBGq0BQdmIZ0CaTLLBSzr4QKzWlkAGV73BD3m5QMFrUECgTMPBCM+rQDaDo0AmobbB7WeuQH5o
AkCd2ITBwsWmQMCCcUAWsIHBRX1zQGxOMECqV4XB2meCQHeeksC+jIvBGjWUQOmUh8Bx7pjBFleZ
QN/sPsBuuI7BnnvqQDQSjz8nqZnBAHXnQNr64z9zv43B

> <OMEGA_E>
gHmmPIwfSz+CFlk/kNZfPw==

> <OMEGA_NBR>
      3531

$$$$
50219779
  -OEChem-04172616093D

 47 50  0     1  0  0  0  0  0999 V2000
    7.0869   -0.3362  -22.5624 C   0  0  0  0  0  0  0  0  0  0  0  0
    1.1784   -0.9839  -20.8055 C   0  0  0  0  0  0  0  0  0  0  0  0
    5.9543   -0.9006  -21.9594 C   0  0  0  0  0  0  0  0  0  0  0  0
    2.2711   -0.3644  -21.4414 C   0  0  0  0  0  0  0  0  0  0  0  0
    7.0444    0.9826  -23.0350 C   0  0  0  0  0  0  0  0  0  0  0  0
    1.3938   -1.9882  -19.8422 C   0  0  0  0  0  0  0  0  0  0  0  0
    4.7234    1.1833  -22.3005 C   0  0  0  0  0  0  0  0  0  0  0  0
    3.7980   -1.7527  -20.1392 C   0  0  0  0  0  0  0  0  0  0  0  0
    4.7644   -0.1470  -21.8084 C   0  0  0  0  0  0  0  0  0  0  0  0
    3.5929   -0.7563  -21.1241 C   0  0  0  0  0  0  0  0  0  0  0  0
    5.8693    1.7498  -22.9165 C   0  0  0  0  0  0  0  0  0  0  0  0
    2.7030   -2.3718  -19.4882 C   0  0  0  0  0  0  0  0  0  0  0  0
    6.9745    4.2457  -20.1920 C   0  0  0  0  0  0  0  0  0  0  0  0
    5.8500    4.1058  -20.9692 C   0  0  0  0  0  0  0  0  0  0  0  0
    6.8624    4.0386  -18.7508 C   0  0  0  0  0  0  0  0  0  0  0  0
    4.4886    3.6551  -19.0774 C   0  0  0  0  0  0  0  0  0  0  0  0
    4.7347    4.1482  -23.3455 C   0  0  0  0  0  0  0  0  0  0  0  0
    5.9198    3.1783  -23.4480 C   0  0  1  0  0  0  0  0  0  0  0  0
    5.9719    4.3571  -22.4582 C   0  0  2  0  0  0  0  0  0  0  0  0
    5.4445    3.5443  -16.7514 C   0  0  0  0  0  0  0  0  0  0  0  0
    4.1733   -3.5110  -17.9304 C   0  0  0  0  0  0  0  0  0  0  0  0
    4.5966    3.8437  -20.3816 N   0  0  0  0  0  0  0  0  0  0  0  0
    5.6119    3.7066  -18.2152 N   0  0  0  0  0  0  0  0  0  0  0  0
    3.2202    3.3935  -18.5674 N   0  0  0  0  0  0  0  0  0  0  0  0
    7.8633    4.1483  -18.0523 O   0  0  0  0  0  0  0  0  0  0  0  0
    2.8520   -3.3436  -18.5048 O   0  0  0  0  0  0  0  0  0  0  0  0
    7.9917   -0.9172  -22.6627 H   0  0  0  0  0  0  0  0  0  0  0  0
    0.1708   -0.6878  -21.0576 H   0  0  0  0  0  0  0  0  0  0  0  0
    5.9893   -1.9206  -21.6063 H   0  0  0  0  0  0  0  0  0  0  0  0
    2.0999    0.4116  -22.1728 H   0  0  0  0  0  0  0  0  0  0  0  0
    7.9211    1.4146  -23.4945 H   0  0  0  0  0  0  0  0  0  0  0  0
    0.5490   -2.4684  -19.3708 H   0  0  0  0  0  0  0  0  0  0  0  0
    3.8186    1.7655  -22.2062 H   0  0  0  0  0  0  0  0  0  0  0  0
    4.8050   -2.0451  -19.8804 H   0  0  0  0  0  0  0  0  0  0  0  0
    7.9234    4.5039  -20.6385 H   0  0  0  0  0  0  0  0  0  0  0  0
    4.5241    4.8474  -24.1682 H   0  0  0  0  0  0  0  0  0  0  0  0
    3.7875    3.8131  -22.8977 H   0  0  0  0  0  0  0  0  0  0  0  0
    6.5412    3.3116  -24.3458 H   0  0  0  0  0  0  0  0  0  0  0  0
    6.6281    5.1898  -22.7513 H   0  0  0  0  0  0  0  0  0  0  0  0
    4.3990    3.2857  -16.5278 H   0  0  0  0  0  0  0  0  0  0  0  0
    6.1053    2.7408  -16.3938 H   0  0  0  0  0  0  0  0  0  0  0  0
    5.7054    4.4858  -16.2460 H   0  0  0  0  0  0  0  0  0  0  0  0
    4.1457   -4.3070  -17.1717 H   0  0  0  0  0  0  0  0  0  0  0  0
    4.8856   -3.7845  -18.7228 H   0  0  0  0  0  0  0  0  0  0  0  0
    4.4911   -2.5682  -17.4611 H   0  0  0  0  0  0  0  0  0  0  0  0
    2.5546    3.3900  -19.3136 H   0  0  0  0  0  0  0  0  0  0  0  0
    3.2199    2.5009  -18.1164 H   0  0  0  0  0  0  0  0  0  0  0  0
  1  3  1  0  0  0  0
  1  5  2  0  0  0  0
  2  4  2  0  0  0  0
  2  6  1  0  0  0  0
  3  9  2  0  0  0  0
  4 10  1  0  0  0  0
  5 11  1  0  0  0  0
  6 12  2  0  0  0  0
  7  9  1  0  0  0  0
  7 11  2  0  0  0  0
  8 10  2  0  0  0  0
  8 12  1  0  0  0  0
  9 10  1  0  0  0  0
 11 18  1  0  0  0  0
 12 26  1  0  0  0  0
 13 14  2  0  0  0  0
 13 15  1  0  0  0  0
 14 19  1  0  0  0  0
 14 22  1  0  0  0  0
 15 23  1  0  0  0  0
 15 25  2  0  0  0  0
 16 22  2  0  0  0  0
 16 23  1  0  0  0  0
 16 24  1  0  0  0  0
 17 18  1  0  0  0  0
 17 19  1  0  0  0  0
 18 19  1  0  0  0  0
 20 23  1  0  0  0  0
 21 26  1  0  0  0  0
  1 27  1  0  0  0  0
  2 28  1  0  0  0  0
  3 29  1  0  0  0  0
  4 30  1  0  0  0  0
  5 31  1  0  0  0  0
  6 32  1  0  0  0  0
  7 33  1  0  0  0  0
  8 34  1  0  0  0  0
 13 35  1  0  0  0  0
 17 36  1  0  0  0  0
 17 37  1  0  0  0  0
 18 38  1  0  0  0  0
 19 39  1  0  0  0  0
 20 40  1  0  0  0  0
 20 41  1  0  0  0  0
 20 42  1  0  0  0  0
 21 43  1  0  0  0  0
 21 44  1  0  0  0  0
 21 45  1  0  0  0  0
 24 46  1  0  0  0  0
 24 47  1  0  0  0  0
M  END
> <OMEGA_C>
y8fiQIohrL7Cf7TBjNWWPwHje7+kcabB4Im+QGyMZr/frK/BpVkRQOONur7kh6vBxGvhQHyLez+9
R7jB22iyP2V9/r/MvJ7BxiWXQB53lz+DZ7LB+hJzQDJX4L8nHaHB8HWYQCB9Fr6Ld67BbPJlQIyd
Qb8U/qjBTtG7QPb53z8EVbfBuP0sQMTKF8Do55vBfS/fQGLch0AniaHBkDO7QI5ig0D7wKfBc5jb
QNw7gUCSAZbBp6KPQL/saUB1npjBXIKXQES+hECpw7rBE2+9QK5oS0B4lbvBehm/QDZti0BdqrPB
VjmuQEXVYkDsAobB6IuFQDC0YMBkcY/BIBeTQFv/dUCQDaPBe5SzQF05bUDGuJHBwxdOQL0uWUD+
iZTBJqD7QOK+hEAsa5DBaoY2QAD9VcDpCZTBRbz/QArPar83TbXBpvIuPlMRML/hdajBLqi/QArX
9b+z2azB/WQGQGm/0j7OYbHB/nn9QHMRtT+69LvBZo4MP935HcBx95rBH2R0QKr74T8/prHBL8KZ
QBrjAsAbC5/Bi4z9QLAfkECmG6XBz8WQQAkem0CGWMHBJGZyQGoKdEB4LrfBtFHRQPjxU0AsxMLB
IBnUQBATpkCzArbBO8SMQFpJUkADOYTBXV7DQM9pL0CPJoPBjZK2QK6Lj0DS94HBl6mEQOTSicCS
X4nBcFacQCI1csBHyJXBcrePQANeJMBdsIvB7n0jQHD1WEBYgprBZBNOQA4PIEB87pDB+DnjQGrr
/77fwLXB0+ehPzMhV78biaXBiqm+QBxMfL9/lbDBg7UWQMwafL4p4arBQMDkQBuiVD+LNrnB0FS9
P0br77/lEZ7BUiycQDb8mD9zhrLBgA54QNJQ279oIKHBHuqaQMDoFb6HxK7B3fRqQIrgMb8U1qjB
kKzBQJqK2D/JprfB308yQE7ZE8ALspvBc/qQQHqQe0AtDaTBziO6QOPxgkC93afBGLOKQC57akAN
ppjBYHHXQCxUeECPfpbBOAKhQBdcg0BJUrzB1GLHQPapSEAGd7vBVPjCQMwoikDgqrPBU1iqQJBI
WkCkVIbBKqSIQGcEYcCevY/BwBDdQAnzgkAn1KDBtsCuQAJRZ0DLBZLBBGr7QFIwe0D6+o/BcOlM
QF6VXUC4QJXBniw8QP0lVMDuGJTBJEX+QBlsk7+/ErfBbS2FPptRAL//K6fBJLa9QMPeAMCP8q3B
L8wLQJ5TDT9/ibDBK5gAQda2mT/dIL3BrbQiP06FFcCcI5rBmrSAQD8+6z9ifrHBdjOcQLqVAsCm
XJ/BTs1rQMACgEA2ZKnB5syeQLyxmUDGGcPBYLyAQIf4cECHGLrB5+PfQNZZUUBAsMHBLA/ZQCa/
pEB3VLXByj3KQP7HWUDsm4LBlTKXQKxKh0C65YLB5E+aQCLPHEA8zoTBJ+KHQFK5isAE34nBP9ye
QMVwccD7P5bBrXOTQGXnJcCTzIvBKKAKQa7lg0D2bZTB6b/3QFmOlEDye4rB7/bpQF2FxL6w47PB
mkWpP5IJc79znafBSX/FQBi6dL+BIq/Bh14dQG2Yyr4KiazBpjLoQMFcbD/8DLjBzhG8PykF9b8L
gZ/BzmGdQBUNiz9qtLLBlUF5QNsG4b+rHaHBVdmeQAiQYb7meK7BF3VwQIxeTL8/VKnBQtjBQDlf
1T+xibfBeS4wQFoeFcCeMJzBbSyeQLDHnUD3naHBbDG1QIg+gUCwvKfBC72YQLK2lEDIKJbBPS/D
QIIPKUBe0pjBGGyYQD7efEDohLvB3+XBQIyTR0B1ervB/x+8QG3fiUCXk7PBWvCmQIUoSUBieIbB
KPuEQI9XbsDY6pDBZw3JQOWFO0BG/aLBMUCqQA6EXUAVBpLBxqrWQA4cvj/l+5TBV86EQO8DrkA7
jZDBcjw1QHR9UsASKZTBVq8DQavIcr8cWbTBZPKrPmdMIr/WD6rBMfnGQFTn+r8X+qvBkeIVQKcp
rj40yrLBvCoCQQgGrj+yp7vB6qsXP1HEFcDKyJvBv/t/QOtp0z+nP7LBZzGcQGTUA8CUjp7BJ3CQ
QE8oukAWKKXBYXqRQN3ik0DVRsLBZ9d0QKR3YED/lrjBBLXXQESYVED8MMLBwrPOQNC9pkCAhbXB
oo22QIpdC0Bi4ITBWsm2QBmie0BoyYHBTgOFQA9jRUAGLITBdSGCQC5Qj8CVjYrBH7KVQLgthcAz
05fB3TyXQJYkN8DZ6o3BmcbmQDo+hT+m6ZrBhOrqQGiK3D+pFo/B

> <OMEGA_E>
oDG2PThi8j6meGE/

> <OMEGA_NBR>
      6248

$$$$
50145440
  -OEChem-04172616093D

 46 48  0     0  0  0  0  0  0999 V2000
    7.3146   -0.4582  -22.4134 C   0  0  0  0  0  0  0  0  0  0  0  0
    1.3086   -0.8841  -20.9695 C   0  0  0  0  0  0  0  0  0  0  0  0
    6.1325   -0.9645  -21.8562 C   0  0  0  0  0  0  0  0  0  0  0  0
    2.4571   -0.2998  -21.5380 C   0  0  0  0  0  0  0  0  0  0  0  0
    7.3680    0.8686  -22.8612 C   0  0  0  0  0  0  0  0  0  0  0  0
    1.4318   -1.8871  -19.9895 C   0  0  0  0  0  0  0  0  0  0  0  0
    5.0196    1.1745  -22.2574 C   0  0  0  0  0  0  0  0  0  0  0  0
    3.8568   -1.7269  -20.1381 C   0  0  0  0  0  0  0  0  0  0  0  0
    4.9739   -0.1573  -21.7593 C   0  0  0  0  0  0  0  0  0  0  0  0
    3.7443   -0.7263  -21.1376 C   0  0  0  0  0  0  0  0  0  0  0  0
    6.2379    1.7042  -22.7670 C   0  0  0  0  0  0  0  0  0  0  0  0
    2.7030   -2.3068  -19.5516 C   0  0  0  0  0  0  0  0  0  0  0  0
    6.8175    4.1385  -20.3848 C   0  0  0  0  0  0  0  0  0  0  0  0
    5.6077    4.0731  -21.0439 C   0  0  0  0  0  0  0  0  0  0  0  0
    6.8273    3.9681  -18.9272 C   0  0  0  0  0  0  0  0  0  0  0  0
    4.4219    3.6685  -19.0347 C   0  0  0  0  0  0  0  0  0  0  0  0
    5.5569    3.6125  -16.7948 C   0  0  0  0  0  0  0  0  0  0  0  0
    4.0177   -3.4450  -17.8624 C   0  0  0  0  0  0  0  0  0  0  0  0
    6.3768    3.1362  -23.2917 C   0  0  0  0  0  0  0  0  0  0  0  0
    5.5290    4.1941  -22.5533 C   0  0  0  0  0  0  0  0  0  0  0  0
    4.4152    3.8467  -20.3417 N   0  0  0  0  0  0  0  0  0  0  0  0
    5.6146    3.7062  -18.2740 N   0  0  0  0  0  0  0  0  0  0  0  0
    3.1974    3.4342  -18.4188 N   0  0  0  0  0  0  0  0  0  0  0  0
    7.8884    4.0455  -18.3182 O   0  0  0  0  0  0  0  0  0  0  0  0
    2.7544   -3.2707  -18.5507 O   0  0  0  0  0  0  0  0  0  0  0  0
    8.1854   -1.0915  -22.4978 H   0  0  0  0  0  0  0  0  0  0  0  0
    0.3282   -0.5610  -21.2871 H   0  0  0  0  0  0  0  0  0  0  0  0
    6.1054   -1.9824  -21.4965 H   0  0  0  0  0  0  0  0  0  0  0  0
    2.3543    0.4764  -22.2819 H   0  0  0  0  0  0  0  0  0  0  0  0
    8.2846    1.2543  -23.2826 H   0  0  0  0  0  0  0  0  0  0  0  0
    0.5447   -2.3384  -19.5701 H   0  0  0  0  0  0  0  0  0  0  0  0
    4.1284    1.7843  -22.2486 H   0  0  0  0  0  0  0  0  0  0  0  0
    4.8360   -2.0518  -19.8190 H   0  0  0  0  0  0  0  0  0  0  0  0
    7.7350    4.3107  -20.9279 H   0  0  0  0  0  0  0  0  0  0  0  0
    4.5239    3.4030  -16.4802 H   0  0  0  0  0  0  0  0  0  0  0  0
    6.2159    2.8009  -16.4530 H   0  0  0  0  0  0  0  0  0  0  0  0
    5.8884    4.5643  -16.3541 H   0  0  0  0  0  0  0  0  0  0  0  0
    3.9159   -4.2334  -17.1020 H   0  0  0  0  0  0  0  0  0  0  0  0
    4.7933   -3.7330  -18.5873 H   0  0  0  0  0  0  0  0  0  0  0  0
    4.3032   -2.5009  -17.3756 H   0  0  0  0  0  0  0  0  0  0  0  0
    7.4339    3.4282  -23.2069 H   0  0  0  0  0  0  0  0  0  0  0  0
    6.0789    3.1406  -24.3506 H   0  0  0  0  0  0  0  0  0  0  0  0
    4.4789    4.0769  -22.8594 H   0  0  0  0  0  0  0  0  0  0  0  0
    5.8861    5.1933  -22.8433 H   0  0  0  0  0  0  0  0  0  0  0  0
    2.4714    3.4395  -19.1066 H   0  0  0  0  0  0  0  0  0  0  0  0
    3.2183    2.5442  -17.9634 H   0  0  0  0  0  0  0  0  0  0  0  0
  1  3  1  0  0  0  0
  1  5  2  0  0  0  0
  2  4  2  0  0  0  0
  2  6  1  0  0  0  0
  3  9  2  0  0  0  0
  4 10  1  0  0  0  0
  5 11  1  0  0  0  0
  6 12  2  0  0  0  0
  7  9  1  0  0  0  0
  7 11  2  0  0  0  0
  8 10  2  0  0  0  0
  8 12  1  0  0  0  0
  9 10  1  0  0  0  0
 11 19  1  0  0  0  0
 12 25  1  0  0  0  0
 13 14  2  0  0  0  0
 13 15  1  0  0  0  0
 14 20  1  0  0  0  0
 14 21  1  0  0  0  0
 15 22  1  0  0  0  0
 15 24  2  0  0  0  0
 16 21  2  0  0  0  0
 16 22  1  0  0  0  0
 16 23  1  0  0  0  0
 17 22  1  0  0  0  0
 18 25  1  0  0  0  0
 19 20  1  0  0  0  0
  1 26  1  0  0  0  0
  2 27  1  0  0  0  0
  3 28  1  0  0  0  0
  4 29  1  0  0  0  0
  5 30  1  0  0  0  0
  6 31  1  0  0  0  0
  7 32  1  0  0  0  0
  8 33  1  0  0  0  0
 13 34  1  0  0  0  0
 17 35  1  0  0  0  0
 17 36  1  0  0  0  0
 17 37  1  0  0  0  0
 18 38  1  0  0  0  0
 18 39  1  0  0  0  0
 18 40  1  0  0  0  0
 19 41  1  0  0  0  0
 19 42  1  0  0  0  0
 20 43  1  0  0  0  0
 20 44  1  0  0  0  0
 23 45  1  0  0  0  0
 23 46  1  0  0  0  0
M  END
> <OMEGA_C>
LBHqQGWf6r6tTrPBpn+nPxFXYr+MwafBqj3EQJvmdr+H2a7B/EAdQI18mb7gTazB1sbrQNpdXj+5
47bB6kW3Px2O8b9m6p/B+KCgQKpUlj8YD7LB2dV2QIMJ3b/fGqHBySmfQO4bIb4dE67B3aFvQO7x
Ob/nGanBBp3HQGgj2j/VIrbBaf4sQL6iE8CpaZzBKCnaQDhuhEAEFKPBUnKzQA1XgkABWqjBFXna
QAr2fUDjapfB3H+NQADIakD4RpjB+NGxQJ0zZ0DaW4bBBJGAQJt7XMBI5o7Bkg7MQOu2SEBOVbrB
Re2wQCo2hkAabbTBmkmNQHAwdkDDu6LBkKqzQNEybUAuMZLBfKFMQE7JW0DKWZPBZm38QKR0gUCm
i5LBgUgwQEJTUcDFZ5TBc/cCQci0i7+S+7PB+wuoPr2fD78HTKrBJ1/DQCnA/b/S+KvBJKwWQB/o
8z5nQbLBqI0EQV6MoD/AQrrB/3MLP7SnFcB6j5zBoxuEQCNl5D8t/bHB5cCaQHNRA8A+jZ7BDoX3
QDHxiUBXbKfBnMOQQIDKWUB414PBDunGQIpBM0DEn4PBpG28QIsOkkAo1YLBY516QJ93h8D/0IjB
/mKZQLDpbsDcspTBELSJQEgOIMA8AYvBnuLtQHpnW0Cwp7nBtobCQPr+SEDwzcLBelOPQLl1gkAF
4LbBsFq8QG4vpkAWv7bBkyseQKcgXEBD2pjBAvlNQJXTIkD2tI/BqN7nQEp9Mb9hnLbBTQi/P/kO
6r5XnqPBVfTCQChHlL+eVrHBAx0nQA4S0Ly9e6nBiSXsQGosLD+rHrnBE1fLP1YCy7+88pzB7RWl
QLsIiz/F2LHBZvF7QLjk6r8M0KHBYGWhQAt8hr7evK7BSCx2QFUAN7/XqajBvPXKQG/NyT/WorbB
2KIzQItoEsBd/5vBv42KQMWYj0B1V6LB3dKrQHEKeEDUq6fBk/2FQDkziECmy5bBd1fDQIJ3MUBb
6pfBT7ifQBPCRkAPI4bBTcWCQF0jhMCwiZTB/ULRQLp8REBK/LjBmaqvQPTmgEDfzbPBL6nIQL/0
QkBxIqLBxeOhQGUzVkC+05HBEk3gQGPb8T+4Q5PBundTQOTqmkDg2JHBmYI1QDCLWcCKUZXBS30A
Qbtusb+uvLjBYcoOP4i1oD3bO6TBCTLAQO0CDcDDQ6/BVeYhQFkyVj+Epa7B0HYEQSy+gz9N9bzB
rA45P3yK9b/chJjBoYWKQJr/4D/XjLDBbB2cQFKeFsDw/qDBHZ5oQP/xo0DXkKbBaRS4QJlWF0BN
2oPBGq+lQPGHgUAT2YHB4I1/QOhtLkDYCITBTa99QPdEn8CaBI/BAN2LQOEhkMApfpzBbfKbQBdw
XcBIg5HBxRvxQCIAV0BfCbbBE+zPQD9kTUBatcHBuDiQQLaAdECDZLfBQgi5QCMUokBPlbXBg4n1
QDC/yz8twZjB8JrvQC0+FkAfRY3BwHfqQJWkjr6dQbLB/JimP/Zij7/ARqjB+vfFQLfDZr+D8a3B
lAQcQPuMA78DyazBfpvnQFYvgz9TcbbBGCm5Pwc0BcA+IqDBk3qbQM2iiT+QKrLBGJN3QPJ96L/+
4qDB4xueQK3dZb5A0K3BcvNuQL4jXL8AIqnB+xrAQOMP2z9pW7bBRpMuQCQ5HMDjX5zBXNCNQGhz
mEDDQ6HB6deoQLYBg0CbIqjBItaXQGuEmEDPx5XBY6XVQArOWEC14pnBJPnHQNcLgUCozIbBPhuE
QOy0ccBqopDBNoe9QBgbSUDZo7rBgSmfQAligkCcGrTBPErNQMnKW0DqMqTBz1a7QN/jgEBnO5LB
P935QLNbK0CkxJbBW/uAQAC/rEAenI/BMIwzQOaDWcBGVZTBwloEQdQdTb/KWrLBkeKhPjIhWb97
EKvByFPIQGNC87/0tqrBf6EUQEduYD4LELPB1NgBQXAywD/UurnBvOoRP0wKI8C/u5zBKyZ6QIRU
yz8HSrLBn0WbQBbJBMAm/J3BnLZjQNHbqECcQqTB31rkQCBmWUDesYXBQnfPQDf1oUCJTYTBN3et
QIM1aUB06oHBnzaBQNMskcBwUIrBtZuWQKoHhsBpW5fBtZeUQIgIOcAfbo3BjN/dQF7aZEBnfbrB
aumxQGKbRkDv8MLBTSB8QAGUbkDQO7XBx1miQD0po0AINrfBUSkEQZcwE0DoO53BHgEHQQ+QUkC7
8ZLB

> <OMEGA_E>
QLJRPSCCaz9oo1M/

> <OMEGA_NBR>
      8915

$$$$
50219790
  -OEChem-04172616093D

 47 50  0     1  0  0  0  0  0999 V2000
    5.9149   -4.4514  -20.1442 C   0  0  0  0  0  0  0  0  0  0  0  0
    6.1872   -3.2252  -20.7770 C   0  0  0  0  0  0  0  0  0  0  0  0
    6.8396   -0.3980  -21.5046 C   0  0  0  0  0  0  0  0  0  0  0  0
    4.4496   -0.1131  -21.9178 C   0  0  0  0  0  0  0  0  0  0  0  0
    7.0943    0.8294  -22.1387 C   0  0  0  0  0  0  0  0  0  0  0  0
    4.7079    1.1061  -22.5644 C   0  0  0  0  0  0  0  0  0  0  0  0
    4.7051   -4.6325  -19.4462 C   0  0  0  0  0  0  0  0  0  0  0  0
    4.0390   -2.3566  -20.0084 C   0  0  0  0  0  0  0  0  0  0  0  0
    5.5154   -0.8779  -21.3846 C   0  0  0  0  0  0  0  0  0  0  0  0
    5.2469   -2.1700  -20.7157 C   0  0  0  0  0  0  0  0  0  0  0  0
    6.0273    1.5920  -22.6633 C   0  0  0  0  0  0  0  0  0  0  0  0
    3.7564   -3.5899  -19.3706 C   0  0  0  0  0  0  0  0  0  0  0  0
    4.7966    3.7355  -20.5692 C   0  0  0  0  0  0  0  0  0  0  0  0
    5.9697    4.2395  -21.0908 C   0  0  0  0  0  0  0  0  0  0  0  0
    4.6096    3.7480  -19.1155 C   0  0  0  0  0  0  0  0  0  0  0  0
    6.7763    4.8375  -18.9480 C   0  0  0  0  0  0  0  0  0  0  0  0
    7.5632    3.7095  -23.1000 C   0  0  0  0  0  0  0  0  0  0  0  0
    6.2712    2.9150  -23.3666 C   0  0  2  0  0  0  0  0  0  0  0  0
    6.2153    4.2403  -22.5846 C   0  0  1  0  0  0  0  0  0  0  0  0
    5.4602    4.4038  -16.8489 C   0  0  0  0  0  0  0  0  0  0  0  0
    1.6106   -2.7505  -18.6011 C   0  0  0  0  0  0  0  0  0  0  0  0
    6.9441    4.8047  -20.2573 N   0  0  0  0  0  0  0  0  0  0  0  0
    5.6300    4.2886  -18.3181 N   0  0  0  0  0  0  0  0  0  0  0  0
    7.7786    5.4404  -18.1937 N   0  0  0  0  0  0  0  0  0  0  0  0
    3.5781    3.2870  -18.6372 O   0  0  0  0  0  0  0  0  0  0  0  0
    2.5822   -3.8273  -18.6640 O   0  0  0  0  0  0  0  0  0  0  0  0
    6.6345   -5.2552  -20.1936 H   0  0  0  0  0  0  0  0  0  0  0  0
    7.1161   -3.0889  -21.3109 H   0  0  0  0  0  0  0  0  0  0  0  0
    7.6595   -0.9778  -21.1070 H   0  0  0  0  0  0  0  0  0  0  0  0
    3.4340   -0.4691  -21.8267 H   0  0  0  0  0  0  0  0  0  0  0  0
    8.1083    1.1908  -22.2253 H   0  0  0  0  0  0  0  0  0  0  0  0
    3.8925    1.6737  -22.9878 H   0  0  0  0  0  0  0  0  0  0  0  0
    4.5014   -5.5774  -18.9646 H   0  0  0  0  0  0  0  0  0  0  0  0
    3.3227   -1.5503  -19.9530 H   0  0  0  0  0  0  0  0  0  0  0  0
    4.0306    3.3392  -21.2193 H   0  0  0  0  0  0  0  0  0  0  0  0
    8.3097    3.3232  -22.3903 H   0  0  0  0  0  0  0  0  0  0  0  0
    8.0751    4.2209  -23.9285 H   0  0  0  0  0  0  0  0  0  0  0  0
    5.8986    2.9721  -24.4000 H   0  0  0  0  0  0  0  0  0  0  0  0
    5.8027    5.0969  -23.1378 H   0  0  0  0  0  0  0  0  0  0  0  0
    6.3646    4.8488  -16.4085 H   0  0  0  0  0  0  0  0  0  0  0  0
    4.5927    5.0434  -16.6292 H   0  0  0  0  0  0  0  0  0  0  0  0
    5.2970    3.4044  -16.4193 H   0  0  0  0  0  0  0  0  0  0  0  0
    0.7387   -3.0764  -18.0151 H   0  0  0  0  0  0  0  0  0  0  0  0
    2.0673   -1.8723  -18.1213 H   0  0  0  0  0  0  0  0  0  0  0  0
    1.2898   -2.4863  -19.6196 H   0  0  0  0  0  0  0  0  0  0  0  0
    8.5022    5.7682  -18.8012 H   0  0  0  0  0  0  0  0  0  0  0  0
    7.3952    6.2117  -17.6857 H   0  0  0  0  0  0  0  0  0  0  0  0
  1  2  2  0  0  0  0
  1  7  1  0  0  0  0
  2 10  1  0  0  0  0
  3  5  2  0  0  0  0
  3  9  1  0  0  0  0
  4  6  1  0  0  0  0
  4  9  2  0  0  0  0
  5 11  1  0  0  0  0
  6 11  2  0  0  0  0
  7 12  2  0  0  0  0
  8 10  2  0  0  0  0
  8 12  1  0  0  0  0
  9 10  1  0  0  0  0
 11 18  1  0  0  0  0
 12 26  1  0  0  0  0
 13 14  2  0  0  0  0
 13 15  1  0  0  0  0
 14 19  1  0  0  0  0
 14 22  1  0  0  0  0
 15 23  1  0  0  0  0
 15 25  2  0  0  0  0
 16 22  2  0  0  0  0
 16 23  1  0  0  0  0
 16 24  1  0  0  0  0
 17 18  1  0  0  0  0
 17 19  1  0  0  0  0
 18 19  1  0  0  0  0
 20 23  1  0  0  0  0
 21 26  1  0  0  0  0
  1 27  1  0  0  0  0
  2 28  1  0  0  0  0
  3 29  1  0  0  0  0
  4 30  1  0  0  0  0
  5 31  1  0  0  0  0
  6 32  1  0  0  0  0
  7 33  1  0  0  0  0
  8 34  1  0  0  0  0
 13 35  1  0  0  0  0
 17 36  1  0  0  0  0
 17 37  1  0  0  0  0
 18 38  1  0  0  0  0
 19 39  1  0  0  0  0
 20 40  1  0  0  0  0
 20 41  1  0  0  0  0
 20 42  1  0  0  0  0
 21 43  1  0  0  0  0
 21 44  1  0  0  0  0
 21 45  1  0  0  0  0
 24 46  1  0  0  0  0
 24 47  1  0  0  0  0
M  END
> <OMEGA_C>
6Ea9QKFxjsBkJ6HBj/3FQG9qTsBZN6bBXN7aQCDGy751CazB3mKOQNKw572cV6/BVgTjQNhQVD//
G7HBMKeWQH2TjT/5g7TBE5CWQG09lMDokZvBzD+BQBLTFsBHEaDBCn6wQDi7YL+QE6vBUeanQPPh
CsC1uaXBaN/AQE3Hyz9rTrXBGmhwQLDAZcD/9prB2X2ZQDkSb0ChjaTB7we/QP2ph0DxuajBrIGT
QNDfb0By7JjBg9fYQNrMmkB1lZfBiQXyQAJobUC8zLjB9K3IQMuOOkDV7rrB2uPGQOKwh0A+rbTB
37muQKPrjECGyobBqijOP2MHMMAjz5TBeTbeQMu/mUAMD6LB8Si0QCM8iUCCi5LBour4QHoXrkCr
jJHBpP9kQEJeUkD1GJXBUkMlQLXydMDwT5XBCk7UQG8qqMB+jKHB4rbjQDKxRcC2fKrBhxr1QBtP
er8X26jBacZbQCcq8L4Vna7Br7sBQURrmD9VzbHBXh55QD891j/25rfBYguQQGt6ssB9t5fBsaZU
QJRwxr/Yn5/B6fqAQPm1VUARwanBW/QEQeWvVEBlH7PBiDMBQZgRh0B8bb/BesG8QGc3PkA1M8PB
2a+5QAQao0AxGrnBCqvLQDQpm0CXRIPBTPeSQNJjoUCbCIXBzoCpQOPgWUDCWoPBuBg9P6LjRMDp
HpDBbU4EQFGn779U+JDB0xalP+8fH8D49JzB1ggIQeCUuEDZaJbBIKXsQPvFxkBZfI3BtimrQFX/
lMA9+qnBHca1QBhkWcDgOq7BomnXQMUbJb9SvrLBkgaQQFJAGT7y763BDVvhQGQZID/h4rbBT8qZ
QOJQtD/5QLLB5hOPQEcJmMAxMqHBETmIQFS7FMAm4qDB5sGuQP3YY79GKa7BaDekQBEtDsCBt6nB
V8PCQAKJ1D+3hrbBF7h6QKyzZcAPj5zBMAuWQDzOiEBqM6XBLuy/QLfshEDChajBCXCMQAhzhEAL
xpnBWO/YQDSCekA2vpbBqVb2QDqBbkCSJrjBo/zMQKURQUCoRrvBQZjKQEcZiUBFTrTBqP+mQE75
dUDN+obBz5AfQFvYIsAsN4/BoB3hQM0Af0CoFqHBL8OuQHIcgEDDnZLBDrD7QMYCcECg54/BPB5O
QJEWhUAXx5bBOe1DQLTGb8BG4ZPBe5K4QNCoscCGc63BpV3LQCXuVMD/87TBt+XuQITYt7+kD7PB
LeVhQN0927xnbqrB2DwAQcnfTj8rWbrButeBQA7+C0ChTbLBKgeHQBUXt8B6+53BVeR1QKfCtr+S
Yp3Bn595QOfujkAd56rBoysGQfiiUECIYrLBXHEEQSauiEDbOr7B2grDQEABSkCvpMPBBGq/QKNS
pkA3VrjBsMvFQCs8cEBjx4LBupSVQH8Pl0Bt8YPBVtmTQAL3O0ARloXBR6brP7JYNMCteYjBY2xT
QGVb8r/nVYzBkM7zP4mxAMB5TZXBrFYLQR5zbUDeMJTB9xv9QJK0kEC91IrB+KjDQBp5mcDc+qvB
D2TAQGBgYMBaYrDBZfelQFJjPb8wPbfB8T/XQCAx/jzabanBsY+jQBR6ET8RW7vBaAPWQKC+qD9R
ya3BnEzIQBPFnsBU2KDBpW/GQDjZIsDlfJ7BqWy/QHR1gb93Ja7BIe7BQM3cF8D7pKnBPUu7QCtm
zj9YnLbB76vJQJrIdcAh/ZnBn7DcQKqaiEDqLaLBBC+3QIJChUCB+afBY0/bQJiGgUAMm5bBXH+O
QO5Lb0AfXJjBKUXfQAwffkDotLrBuwm4QEEdQUCnWrvBmT63QI51iEAWGrTBoRuwQMf+ZUCWGobB
LovPQF7jOcB7HIjBSDuQQHAXeUDy2aLB72KzQDw7dUDGyZHBkCBNQBzyXkCR35PBC8b8QKXugUBS
eZHBmhPOQMUigsCGEI/B55zCQBIrtcA7JLHBUbS8QD1oWMC96rjBnFGUQGzZxL9SCbvBmoLqQBZ2
Kb78baLBjXCPQMgoRj9FL8LBo7DpQEQ1BkC4X6rBOtTKQB2TvsAyhp3B5GzHQITX1r/xVJnBaXr6
QIBMkEB6HabBg8v8QDHiaEDIt7bBN3jnQFmNk0DZj8HBYiClQOVNRkBuv8LBWZ2jQGLIokCZRbfB
PFmOQPWlXEAn54PBH4rCQB59LEBl+YPB/QO9QFTGjkB6xIHBAxLTQPvMTsB9gn/Bf+7qQAZqEcDH
VorBV72xQFcSFcAz+YjBUeQgQPgtXUCMppnB8YNOQIKeJkA6FJDB6BeVQByoTsByqJXBxI2WQB3K
AsC9s5vBsVvaQOt2qL4aUK/BblCNQDAXsDzIRq3Bc+bdQHYRZj9EtLTBMsaQQIXynT9l1rLBOK+p
QFx7jMAmcpnBMJ7DQIPoScBs9qjBpi+yQJLtQL8EXqvBQsSuQJGv/7+dPaXB+Bu5QGa+2D8lS7bB
wde/QDPFi8BTXqPBwMneQDkjh0DCHaLBE9q5QLXEhEDAHajBnPvbQMOFgUD4iJbBoKSPQKqPbUDi
upjBsMvkQFnvekAEX7rB9fC7QFOJQ0D8drvBg8W7QLMhiUAxN7TBeW6vQMYnaUBxOobB3zK9QPlJ
2MCzpqXBd1KSQMnAd0BZN6PBQ7WzQM+1dUAN8JHBWlRPQHEyWkCqeZTBz8D8QA0jg0B6KZHBjrbR
QK7Vr8BQCKjBajWEQIb4T8ADH47B+jKFQEnGlb+YDpnB3k72QGvGcr+wLq7B4PlcQFyHor7vdqrB
EaD8QPjSnT9unrfBduZoQAau6D94erTBp52oQGmUqcC1ypTBqKXWQJ4PR8CIKrDB60T9QMYKjUBH
6aXBwGgAQaEAYkCJDbbBSYnvQKx3kUCzGMHBhq6qQAXASkDFFMPBFmGqQD7WpEAcd7fB+oSNQKO9
X0ApL4TBB+XBQPx9MEAYyYPBDbi7QLT1kEC3BoLBhDfOQC9H8sARyqnB2gi+QE753cAe+JzBwsCb
QDVX18BjYqjBzj0kQO/nVkBRYJrBvB1SQLPjIUBHsJDBPFmRQB6HS8BGTZXBJpeOQK4lCMBavZzB
JBiMQAC3vTyvTa3ByBrZQMi1n77Taq/Bg6OPQCSInz91vLLB33HcQLwcZz+J4bTBXDS0QONmgsBS
p5XBfkvQQEVVOsCNNKXBXQixQMJhQb9CYqvBZAevQGQ9+79tjaTB7OK3QFK52T97TLbBgMzTQOpS
fcBjsJ3BKjLfQB+GhkDDDqLBR0m6QM1khEDqEajBl0LcQIK6gED/epbB2wCQQNwxa0A+wZjBms/k
QEZ9eUA+W7rBDku7QIDcQ0D0bbvBLSa8QNQYiUBuJrTBxlKvQFJTaUDhNIbBoJ4KQWC+l8CITKbB
WKiSQCvLd0AzMqPBGlS0QCuubkA+/JHBIG5PQFRBWkDdhpTBRqT8QIlihEAJBpHBi1f1QGAQnMDG
2p3B/npxQOtkU8DPUI/BpZhnQJgPub+TfpzBCWNaQEAFpb55mKrBdUf1QFqKa7+DP67BL89mQHHE
6z+VMbTBlfj6QEz2nD9V/7fBRca2QItrm8BEuo/B64TnQLR5NcAkk6vBFrr9QGtejEBW1aXBLVIA
Qbk4X0CpFbbBjNnvQDKlkEDqEcHBPfqpQLH2S0AeBsPBukmrQJY+pUAtVrfB992NQJATWkCjPoTB
r1/EQJLbNkBwDYPB9ga4QIWJk0BRlYLBjscWQbHysMDOa6XBUssCQfXVmsCtJK7BKlESQQFbcMCl
tKXB4A0kQLxaWkC9aJrBjd9PQJ3wIECz95DBiQjkQBsykcDe56fBlUziQFNwT8CuQKzBo73kQBup
nr7svbDBU9mWQG0Sr75PMK/BH7/iQADAez//FbXBtu2UQGg5dD+6hrPBMKzEQN6xnsDMjaDBY+Ch
QGQmMsAt1qHBTNm+QB6ffL8wxq3BEhXBQKu1FsDPQKnB5Ne6QF2yzz+aerbBVVKjQPzegsDIc53B
G03dQEKpg0B9VaLBIYu3QPecgkD4EKjBgHXbQIlEfUCtrpbBD1GOQLsqb0D8aJjBTMzeQH5UfkA4
ArvBee63QC58QEDUY7vBcwi3QBCVh0DvIbTBi3qvQCjuaEBzF4bB6uhFQMx/asByGpPBYDOQQBcb
eUBL5KLBLnWzQG9Rb0CG5JHBt+xLQAdyZEC845PB1qf8QGCHgEDUdpHB8leFQBEBksDQJpbB0nP9
QJ24psCkNarB9GH6QCb2OsBe5bHBYLIBQQ5ESr97qa/Bf2hzQH09Wb9g7KzBa9j/QLvhvj/wXrfB
GKxsQBwYuD8lmbTBXybGQFScvsCUQp3B4JyIQE3sBsBqep/BwJL7QBcYiEArWqbBruX8QE7saUDJ
ObfBLPLlQKbpk0Cn48HBVkukQLk6RUBOq8LBXaiiQH/FoUDMEbfBgcmNQBADXkB48IPB9w3DQKQ+
M0AKL4PBxKe6QHxmkkB8ZoLBaqIbQNJWhcBjVI3BnhFhQG2aMMBtbI/BpuggQAOdWMCKP5rBcX4f
QDUeZkDRpJnBqVtJQMECLEBRIZDB

> <OMEGA_E>
KgyMP9Drdz8SSWc/CDNUP0IfUz94kEY/

> <OMEGA_NBR>
     14074

$$$$
50219770
  -OEChem-04172616093D

 46 49  0     1  0  0  0  0  0999 V2000
    5.7939   -4.6040  -19.9936 C   0  0  0  0  0  0  0  0  0  0  0  0
    5.9251   -3.3951  -20.7000 C   0  0  0  0  0  0  0  0  0  0  0  0
    6.4806   -0.7036  -21.8393 C   0  0  0  0  0  0  0  0  0  0  0  0
    4.2892   -0.0062  -21.0248 C   0  0  0  0  0  0  0  0  0  0  0  0
    6.6002    0.5030  -22.5535 C   0  0  0  0  0  0  0  0  0  0  0  0
    4.3993    1.1809  -21.7626 C   0  0  0  0  0  0  0  0  0  0  0  0
    4.9108   -4.6932  -18.9034 C   0  0  0  0  0  0  0  0  0  0  0  0
    4.3037   -2.3502  -19.2044 C   0  0  0  0  0  0  0  0  0  0  0  0
    5.3261   -0.9691  -21.0577 C   0  0  0  0  0  0  0  0  0  0  0  0
    5.1870   -2.2495  -20.3099 C   0  0  0  0  0  0  0  0  0  0  0  0
    5.5646    1.4562  -22.5029 C   0  0  0  0  0  0  0  0  0  0  0  0
    4.1475   -3.5727  -18.5202 C   0  0  0  0  0  0  0  0  0  0  0  0
    6.9419    3.7873  -20.1636 C   0  0  0  0  0  0  0  0  0  0  0  0
    5.7774    3.9539  -20.8824 C   0  0  0  0  0  0  0  0  0  0  0  0
    6.8495    3.5242  -18.7294 C   0  0  0  0  0  0  0  0  0  0  0  0
    4.4377    3.5918  -18.9609 C   0  0  0  0  0  0  0  0  0  0  0  0
    7.0187    3.5614  -23.2129 C   0  0  0  0  0  0  0  0  0  0  0  0
    5.6848    2.7803  -23.2308 C   0  0  2  0  0  0  0  0  0  0  0  0
    5.8080    4.0563  -22.3968 C   0  0  1  0  0  0  0  0  0  0  0  0
    3.2115   -3.6636  -17.3343 C   0  0  0  0  0  0  0  0  0  0  0  0
    5.4353    3.1457  -16.6991 C   0  0  0  0  0  0  0  0  0  0  0  0
    4.5272    3.8895  -20.2449 N   0  0  0  0  0  0  0  0  0  0  0  0
    5.5811    3.3720  -18.1564 N   0  0  0  0  0  0  0  0  0  0  0  0
    3.1630    3.4896  -18.4151 N   0  0  0  0  0  0  0  0  0  0  0  0
    7.8798    3.4139  -18.0748 O   0  0  0  0  0  0  0  0  0  0  0  0
    6.3731   -5.4662  -20.2895 H   0  0  0  0  0  0  0  0  0  0  0  0
    6.5935   -3.3390  -21.5464 H   0  0  0  0  0  0  0  0  0  0  0  0
    7.2746   -1.4342  -21.8864 H   0  0  0  0  0  0  0  0  0  0  0  0
    3.4076   -0.1871  -20.4277 H   0  0  0  0  0  0  0  0  0  0  0  0
    7.4858    0.6981  -23.1402 H   0  0  0  0  0  0  0  0  0  0  0  0
    3.5842    1.8894  -21.7629 H   0  0  0  0  0  0  0  0  0  0  0  0
    4.8173   -5.6214  -18.3592 H   0  0  0  0  0  0  0  0  0  0  0  0
    3.7460   -1.4826  -18.8841 H   0  0  0  0  0  0  0  0  0  0  0  0
    7.9036    3.8499  -20.6511 H   0  0  0  0  0  0  0  0  0  0  0  0
    7.8965    3.1426  -22.6990 H   0  0  0  0  0  0  0  0  0  0  0  0
    7.3460    4.1150  -24.1054 H   0  0  0  0  0  0  0  0  0  0  0  0
    5.0984    2.8730  -24.1568 H   0  0  0  0  0  0  0  0  0  0  0  0
    5.2984    4.9362  -22.8164 H   0  0  0  0  0  0  0  0  0  0  0  0
    3.7572   -3.4043  -16.4151 H   0  0  0  0  0  0  0  0  0  0  0  0
    2.3745   -2.9636  -17.4735 H   0  0  0  0  0  0  0  0  0  0  0  0
    2.8221   -4.6891  -17.2525 H   0  0  0  0  0  0  0  0  0  0  0  0
    4.3687    3.0522  -16.4469 H   0  0  0  0  0  0  0  0  0  0  0  0
    5.9610    2.2215  -16.4173 H   0  0  0  0  0  0  0  0  0  0  0  0
    5.8684    3.9955  -16.1511 H   0  0  0  0  0  0  0  0  0  0  0  0
    2.4809    3.6683  -19.1242 H   0  0  0  0  0  0  0  0  0  0  0  0
    3.0299    2.5683  -18.0495 H   0  0  0  0  0  0  0  0  0  0  0  0
  1  2  1  0  0  0  0
  1  7  2  0  0  0  0
  2 10  2  0  0  0  0
  3  5  2  0  0  0  0
  3  9  1  0  0  0  0
  4  6  1  0  0  0  0
  4  9  2  0  0  0  0
  5 11  1  0  0  0  0
  6 11  2  0  0  0  0
  7 12  1  0  0  0  0
  8 10  1  0  0  0  0
  8 12  2  0  0  0  0
  9 10  1  0  0  0  0
 11 18  1  0  0  0  0
 12 20  1  0  0  0  0
 13 14  2  0  0  0  0
 13 15  1  0  0  0  0
 14 19  1  0  0  0  0
 14 22  1  0  0  0  0
 15 23  1  0  0  0  0
 15 25  2  0  0  0  0
 16 22  2  0  0  0  0
 16 23  1  0  0  0  0
 16 24  1  0  0  0  0
 17 18  1  0  0  0  0
 17 19  1  0  0  0  0
 18 19  1  0  0  0  0
 21 23  1  0  0  0  0
  1 26  1  0  0  0  0
  2 27  1  0  0  0  0
  3 28  1  0  0  0  0
  4 29  1  0  0  0  0
  5 30  1  0  0  0  0
  6 31  1  0  0  0  0
  7 32  1  0  0  0  0
  8 33  1  0  0  0  0
 13 34  1  0  0  0  0
 17 35  1  0  0  0  0
 17 36  1  0  0  0  0
 18 37  1  0  0  0  0
 19 38  1  0  0  0  0
 20 39  1  0  0  0  0
 20 40  1  0  0  0  0
 20 41  1  0  0  0  0
 21 42  1  0  0  0  0
 21 43  1  0  0  0  0
 21 44  1  0  0  0  0
 24 45  1  0  0  0  0
 24 46  1  0  0  0  0
M  END
> <OMEGA_C>
dme5QBpUk8Dz8p/BOZq9QIFIWcCemaXBfGHPQJsdNL/vtq7BvECJQAANzLvLMqjBHTXTQC/HAD+Q
bbTBVceMQOwolz/CGa7B8ySdQM0ulsAgOpfB2reJQLdpFsCHopnBxG+qQC0aeL82dqjB2PulQGT4
D8CfeqLBkBGyQFZluj/vBbTBtLiEQIinZMBLKZTBQCTeQI1ickAMT6HBu+C4QBYNfUAvD6fBVi/b
QLaMYUDJ1ZXB3gGOQOLfZUDzr5fBjJngQG7uY0ACtLnBe+m1QCHxMUCV2LnBctu5QF/NgUCqLLPB
NIlNQMx4asCtrIrBRu6tQIZTSUC1l4XBLd+QQGHteECn9aHBoZiyQBLPV0BcQJHBN25KQPVUX0AZ
UpPBdCf8QEJ9WkA8mZDBTvDLQETrrsDbUKLB+P3SQNOxVcAhX6zBwsnoQDOTt79eF6/BOhZaQPWb
P77ja6PBdYvvQNm0Mj8QH7nBiWNlQL/Y8T95Gq7BqSeaQIris8Cj35LB8L1vQMjEvb+tEpfBdur8
QBJldkBdNaXB/q/8QO4fSUB1l7XBBxLrQNKtg0DR18DBIyajQHvfN0AuQcHB44ypQJL1nUAMiLbB
aXVwQCzgWcASUoPBjvcXQL2rPcDQyYvBSJ00QGENlsAWBYrBlcyLQCZXQ0BDk4PBqsC+QJksDkCO
VoPB3sm7QIG2f0BhNYHBPMceQDDGakBV/pjBk+pBQNNfJEBUZZDBvwJ1QOz5jMBmuZ/BE7KAQFfg
S8BvG6XBMMmIQH8D0L7mP63B5mHVQJIhEb/TqKnBKdmPQF9aRT9tHbPB6CPcQGjhIz9SJa/BON6X
QOVamsAM35fBqK/BQOrZMsDptprBM5CrQKYTjL8ShajB0nSkQGaOF8DTraLBlEG5QMTpqT82wrPB
pEe7QOxggMB+RJXBG7qdQKahSkDEUKHB5EO2QNqqgkAT16bB6ouaQCxjUEDTuJXBuX7FQBqmqEA5
5pbBlTboQGdkYEBNQLfB3Oq+QCIlK0CaNbnBFlO9QAXGf0AW4bLBoJ3bQFo7j8BFCY3BbbqqQMJC
kEBy5YTBMyjKQOJTpEBBW6HBJzutQEpyi0BnrJDBAmrZQFeAy0BDGZLBf/6GQPW6GEBG0JDBv1c+
QG+3oMD9nqHBiB9UQC2qN8C3IKvBvVVRQE3eSb+4V6zBEEnwQOx1jL8zSKbBpexqQGxQoD/SJrfB
jBT8QI6QhT951q/B/EeTQCaPuMD31JPB3BjdQFKhC8CSzZjBMfqMQHexGEBfk6XBUHUAQYKOSEBN
vLHBmZH3QDwkgUDy8L3BOkOyQC0NL0AQaMHBpHavQNG1mkAiZ7fBbLb0QOshosAlAZHBHCPqQPZ5
ZsB8IInBnnnLQEMbo8BH/4bBrDe7QEzQrUCzeYLBFvmIQOnlkUBNb4LBPCG6QCBFaUDCCIHBR+Do
QCuN3EANqJfB8GPDQG3o3UDRj47B5D23QFF3lMAITaDBZZO8QN7dW8BY86XBQiTRQLrvQr8vAa/B
j4CLQHA0Krx4i6jBh0/WQDQv5j6klLTB9zqQQOy2lj9PYq7BXvebQKYdlsChXZfBc3qLQOC4FMBD
opnBYv2rQFuzfr/nwajBRLmmQOzUEMB0saLB+EW2QCnftz9QEbTB6l2GQMLyYcD88ZPBY4SOQAc/
fkAMaqLB0Lm2QFW+e0BE8KbBjCeKQA/OakAB/5bBuozXQFQFYkDJNZbBopflQAeBY0BNIrjB9i28
QH8zMUBhqrnBGHO7QCwGgkCf97LBRqBPQNxJZsBqkYrB+k+tQC+cSkCjaIXBUjLbQGTecEALj6DB
bl6vQEu6WkBoFJHBsCH9QE1mWUCzYpDBlrVMQD3VZUBPB5PB4CLIQNXdsMCe1KLB1XzRQE3bWcAl
06zBx6rpQFeQwr/We6/Bw9xdQIuXMr413aPBKtryQB84Hz/bQLnBTA1tQKcX8z/Qhq7BKJCXQCvj
s8BFHpPBXgh1QIIuuL++EpfB/6NlQL0Yh0CXLqfBDD//QGd1SUBPELPBxsPzQPwsg0Ds6L7BK4et
QL9YNkAfpMHB3ZisQMYmnkCCvLbBjFZyQGieV8CMIoPBueUbQCxrN8DatYvBijI0QKB+k8AAC4rB
McjNQM+AP0CcToLBuzefQMI+gUA0YYHBH2aZQEPfEUC234PBjyALQQA/YEAkRJXB5jD+QJYmg0Dp
sIrB74NjQC2CgMD1zZvBGZlxQNTqMsBYIaHBg8aOQEM9GL84XrDB7/fNQBfzWb4KUKXBvKGWQOZl
HD/EzbXBIaPVQI+6fj+Js6rB1Z2UQNILmMDNwpfBcMrFQD0oQ8B4aJ7BpZeqQBfLgr+AHqjB9uyi
QBpbE8Dfe6LBRDa6QLxetD+UFbPBkrG+QEReiMDW8ZjBEAGTQBNyZEDb+6LBpKK3QDGtg0DqVqfB
xvSMQOv7aEC2W5fBbTzRQJmemUCNZZbBPD/qQFyyYkAEhrfBfgHBQF6hLUBeLLnBFHG/QEQggkDk
R7PBn2LkQPssosAq4pTBvNanQErVjED9cYXBd1bWQAiUl0B03qDBdyitQJWwh0B8K5HBQvzwQC1c
rkDzjpDBZrFYQJQbS0AAXpPBgSEjQJtxjMAp0ZrByu47QEDrDsBQMqTBv8hmQBlFmb9Lf7LByzrj
QA/JBr/r+p7BVUeBQCiebT/6GrzBvI7wQA4szj+ucajBJyKPQFUntsASv5PBKA/mQAT8K8Cxfp/B
CZV2QC1sRkCYBqjBz3YBQXpkTEAS57HBGqX5QI0NgUDsZL7BwTK0QHyZLkCGXsHBcmGxQBGUnEDE
5rfB60HvQDA6uMBbLpvBMab+QENmjMDDt5LBw57aQN+itMCzzI3BAWLEQNt1nEAsF4LBUHqLQACm
oED90oPBXLOjQEFmWkALuoHBTdwDQXnmuECFiJXBnDXkQMknx0A4o4zBudJmQARCdcBI35rBXQhy
QKYjJ8DeTqDBV8+KQJqxy75S2a/BfdTNQIDRdb1VN6bBWq2RQIMxTT/GfLXBK9DUQKubkD/B46vB
gkKXQO04ksDbbZfBD4vGQL6+N8DT6p7BaQOpQBHDV7/4MajBj7GiQKu5B8AcZKLBCdC2QOQPyT99
nrPBRu3AQFuagsBkVJnBMgvEQHv3qEBrIKHB2mezQOMriEB3M6fBmxG9QOUtqECtgJXBeSaVQMOR
TEAUA5jBiR3kQGvrcEB65rfBCKy7QGElOkBRcbnBhGy5QKA4iEA3Q7PBg6TnQDJpnMDZ6pXBpKGd
QECOg0BScYXBRF2aQN5CUEBYc6LBEcymQHFihUDjEZHBObp6QGJNCEC/B5TBVyXLQMlnxUCd+o/B
TRknQBeHhsDBVpnB0tk6QMMKA8AT5qLBEr1cQGw1e79VXrHBPsXkQC4Aw74mSaDBu8F0QB5akT9K
SLvBqTzxQJtT2z+PW6rBjteSQFZRsMDkU5PBwHXmQLDBIMBnkaDBOM7VQJWqwkBT0qTBOZ79QHvh
WkAXf7LBxm/yQI4HiUAfyr7BHPKtQBwOPEDgisHBeCCqQHy6okApnLfB4r7wQJeAssAnYZzBizkB
QdWihsBxN5TBHtjfQO/TrsADrY7BkguMQJvtS0CSmoPB1ei7QIb5g0Cz9IDBbSSKQJdhn0BuI4PB
1khnQHGuxj+aF5rB536PQN+fyz81C4/B6V11QLf2hsDTbprBs0N8QJfePsDfwZ/BqjSLQGyrL756
GafBJTvNQIZTdL/vfa/BcHmOQOoVhT82wqzBrrrQQL6Lhj6fBrXBBr6fQDl9nsC65ZfBGO7LQDTm
TcDXBqDBk4mqQBJSl7/TbqjBV9KmQHM2HsCvo6LBK62xQFFWoj8Pl7PBzX3IQLNGjsBGk5rB6pfL
QCi6QECEiaDBpd23QFeOfUCA6KbBNi3GQDt/RUB57pTBVnSeQHOJpEAJwJfB15ThQPb+U0DPprjB
Fsm2QMwdJkAWSrnB9ei5QIjve0B2HLPBd2XwQJ32p8A6F5jB4pqqQM2IikAB9ITBXGmhQBPToEDq
PqLB9OmwQENThkCOqZDBF0uIQI/Kx0D+zpPBIarUQN4aDEDIS4/BRBo3QHBGk8C3SZjBWzlDQHbo
GsD1p6HBX15hQC0Wqr4DtqHBNSPlQORU3L8doLDBehFsQLbM5T854KvBhUjrQKZi2z7/ZLrByvic
QIj+vMBq5ZPBaxnrQL7LNcC6OqLB/6zeQOGPDkAmFaTBxpn7QBTzOECZyLPB3xnvQCVQckC31r/B
1IemQAmmKkAHE8HBIvOrQOTUmUC4M7fBhZT3QIBqvcAc1Z7B+LwFQbEPksDK0JbBJBzrQEkPu8BB
0ZDBK12ZQE9wqEDWOoPBCNmXQLphXkD+/4HBZu3JQDQWi0C38IDBnU17QB+E2UAy6pnBw+xeQAXO
vUBabI/B/GpuQL8egsCgGZvBrGR4QFP/NcDDhqDBkaGJQEEptb0hvajBT8jQQFb+Sr8Ega7BMPeN
QAX5iz+7ua7B3szVQM2a1T5CGbTBJmebQD88mcCguJfBxNXJQG/JQ8ADI5/BBuKqQKCQhr9EnqjB
4JqlQH30FMBTpKLBb7u0QPMmsD92ErTBcMvEQJnxiMD9oJnBCya0QFIaqEDNOKHB8t+5QFQCgkCX
kabBPDeuQAvnpkCijpXBtJ6xQJ8zM0DKoJbBt5nmQAmwXEC1vLfBc3S7QKkXL0ARTLnByu69QNi0
gUBlvbLBMNjrQOdbosAIRpbBOyqlQGIpd0AqxoTBnw+6QLTINkAa6KDBUseqQJfFfUCTgpDBpL+v
QHhjxD9JAJLBHY6rQFKWyEDXkpDBOBMvQPtujsBnhpnBOJBAQAHVEsCuGaPBaoZZQKcXh75mM6TB
ev7pQIYAxL8vsa7BWSNnQPjS5D/8PK/BRg7zQMW9HD/tbLjBX3yXQKJ9t8BrqZPBGZLpQApwK8DL
sqDBqAS0QJwkxkBdfqXBwzH/QD77P0BokLLBiRX2QHK2fEAZjb7BOF2tQMIbNkA/UMHBn0SxQMAp
nkDO1rbBRzX1QLghuMClx5zBQDADQRxMjMADiZTB5E3kQPsYtcALEY/BxC2jQHFYM0DydoLBUpvA
QImOikDOuoDBD4qHQMQRjEC9aILB0XS1QF8PVz9olJfBssbFQIOeuz9fOYzB9GJ6QN3si8AiA5/B
yH+BQMoGScATW6TBgbqGQI1+kb5+XKvBmE7UQGhFE7/EJKvBvqiLQO4rbT+297DBDSjZQJFGID+S
1rDBbRqdQFGwmcCH15fBbfHFQO9UMcBGY5vBPAyrQA3Whb/AZKjBOwSmQMMuFcDTnaLB4Ni0QJ7F
sT9AtrPBs0vBQMSjf8Cf6JXBWM2iQFn/oUCRt6HBM863QLVegUDf86bBjyegQGmPoEC//pXBr13H
QLAUO0D1rpbBw3bjQP4uYkAEgbjBI4i5QNJMLkCwc7nBO3G6QPB9gUDVG7PBoSTkQEbyjsA6YI7B
KKqwQJ2kdEBP0oTBEdPKQCfTP0CPKaHB2myxQNn0eUAqqZDBLUzaQJ/n6T9WtJHBo4SOQOnovUDi
MpHBzrxCQFWkn8ACaqDB+q1RQEL7M8DIzqnBmylOQP1nIr+zT6nB+jvwQORWkr/d2ajBwZxfQA9p
wD/bLLPB8L34QEbjdz9+B7PBLt+ZQEsYuMC30JPB0QziQL+ICsAmEJrBJZiUQI4QvEDnI6bBNv/9
QCe+SUAamLPBR2zwQOHLgUA0ir/BQcapQOknMkBgTsHBq/yqQObNnEA+GLfBHuD7QHC7ocBJ3pLB
veTzQBAqZsDKtorBavXVQNgAo8DEEojB3aO/QCFeOEDYPYLBpHPCQJqAlUB/boHBFVWPQE2idkAN
AYLBVyfoQOl4nz/gNpfBmmbwQNpTCUClgozBugxpQKxyg8BSD57BZdp0QNbZOMBAfaPBs8ODQEj9
a7293arBmvHQQBfe3b6cXqrBHHWKQKjzkT8Yh7DBmJDXQPmORD+G8q/BLy2UQPedksDU/pbBs+K/
QLOCJ8CcyprB6wOnQImuW79VwafBoEWgQNiICMCB7aHB8GG0QOUxyD8KArPB9rW5QHwMdcBRP5XB
pOXZQP8cl0CX3KDBpca4QOe2h0B1DqfB1qPUQECEl0BxMJXBJCCPQIOTbEBX2pfB55HlQDgUaUAd
OLjBfu26QAQCN0D7I7nBWo28QPQ0hkDEH7PBeE7cQDIri8Db143B/6WnQHhPhkDZH4XBf2eTQLBJ
b0DEWKLBkFOvQAiJhUCr1ZDBRYtSQKI6SkAN25PBRs3wQEAgp0DSko/BtlQvQHbJlcCoUJ/BJ/pD
QEi0IcC43qjB6z5HQAtRvL6e4qjBTwzsQMTVhL9cDqjBDc9eQI113j9p/LLB4a/3QHCZij8u5rHB
fbaPQDO9sMDM6JLBAvbcQLpnA8DrlpnBPQj3QH2cokBeg6TBe4T/QEqLUEDoH7PB01TzQPszhEAv
T7/B9LmrQOqbOUAsEsHBPxGuQB1joUCEYrfBE8vyQG4pn8DoaJLBUaHtQHwNYMC+SYrBuZzNQPpl
nsD8c4fBquSIQJV7bUDdV4PBRpfBQEAyakCuBIHB5camQBmsp0CKU4LBjQQtQKNDOEBE75nBgO9f
QO1lF0DFSo/BUZqJQEV2lcA+0Z3BGkuJQPmVW8A4J6PBee2GQNuhD7+o/qnBT0TUQLbWPr/AVazB
l1CHQM6EKj/3gq/BnY3UQEXn8j5h47HBKbitQBEKosCp25fBGYTRQA6lPsA6m5zBMHitQN6Do79M
WqjBsVetQKrUJMC7nqLBXB2uQDiCmD8mdLPBmY/RQKK8hsAlIZfBwcbVQC69VED5xKHBPTGzQD0N
dUDmXKfB1inVQBZFWEBgD5bB11iQQJ/aj0BIY5fBfuXWQJgpVkALi7rB0butQLpyIEBejbnBjaSx
QDoBdkDOh7PBrdr4QE6ElMAL65DB4QmwQKilgkDPMIXBYIaQQOv6jEDL7aHBnp6yQGqAgEBUB5HB
V6hZQFnkokCqpJLBJvvyQMwHOUBlApHBIC5cQC5KqsB7S57BBuRaQP9kSMAyrKfByjRSQPhGdb8a
AKfB8tvxQGcDpL82GKvBf5pTQBqAmj+4urDBLEryQCfUXT89+rTBnPutQMKhwMDV1pPBnEftQD2a
FcD8NpzB9r3wQClnOUC59KXB8rb0QCnWP0BlyrbB6mXeQGDidkARG8LBl8aYQGX8IUCsnsDBGw6f
QNttlUDmBbfBH04HQUczpsA3PZbB56kEQesocMD9w43B7ibvQGBFqcC1PIrBJcaSQBfMk0C+1oLB
6USvQK0LREBX5IHBICvMQOW0k0CZD4LBuygwQJPIq0A5UJjBmog9QJn2jUCbt43B

> <OMEGA_E>
AMzePBtOjj+Q5ew+Eot2P6nwgT889YI/uDGGP2PVhz+0iSg/nqpYPw==

> <OMEGA_NBR>
      8292

$$$$
50145431
  -OEChem-04172616093D

 41 43  0     0  0  0  0  0  0999 V2000
    7.6052    0.3318  -19.3771 C   0  0  0  0  0  0  0  0  0  0  0  0
    5.8016   -5.1215  -19.3678 C   0  0  0  0  0  0  0  0  0  0  0  0
    7.0597   -0.9501  -19.2077 C   0  0  0  0  0  0  0  0  0  0  0  0
    6.3273   -3.8248  -19.4703 C   0  0  0  0  0  0  0  0  0  0  0  0
    7.1146    1.1768  -20.3843 C   0  0  0  0  0  0  0  0  0  0  0  0
    5.4788   -0.5160  -21.0182 C   0  0  0  0  0  0  0  0  0  0  0  0
    4.4528   -5.3469  -19.7086 C   0  0  0  0  0  0  0  0  0  0  0  0
    4.1445   -3.0838  -20.2443 C   0  0  0  0  0  0  0  0  0  0  0  0
    6.0084   -1.3957  -20.0432 C   0  0  0  0  0  0  0  0  0  0  0  0
    5.4882   -2.7785  -19.9139 C   0  0  0  0  0  0  0  0  0  0  0  0
    6.0201    0.7754  -21.1916 C   0  0  0  0  0  0  0  0  0  0  0  0
    6.6313    4.7020  -20.4528 C   0  0  0  0  0  0  0  0  0  0  0  0
    5.6943    3.8207  -20.9518 C   0  0  0  0  0  0  0  0  0  0  0  0
    6.4025    5.2994  -19.1333 C   0  0  0  0  0  0  0  0  0  0  0  0
    4.3400    4.0174  -19.0188 C   0  0  0  0  0  0  0  0  0  0  0  0
    4.9425    5.5296  -17.1051 C   0  0  0  0  0  0  0  0  0  0  0  0
    5.4421    1.6640  -22.2981 C   0  0  0  0  0  0  0  0  0  0  0  0
    5.9330    3.1381  -22.2905 C   0  0  0  0  0  0  0  0  0  0  0  0
    3.6525   -4.3411  -20.1367 N   0  0  0  0  0  0  0  0  0  0  0  0
    4.5392    3.5062  -20.2188 N   0  0  0  0  0  0  0  0  0  0  0  0
    5.2598    4.9118  -18.4157 N   0  0  0  0  0  0  0  0  0  0  0  0
    3.1751    3.6441  -18.3554 N   0  0  0  0  0  0  0  0  0  0  0  0
    7.2150    6.1036  -18.6880 O   0  0  0  0  0  0  0  0  0  0  0  0
    8.4032    0.6682  -18.7318 H   0  0  0  0  0  0  0  0  0  0  0  0
    6.4236   -5.9378  -19.0314 H   0  0  0  0  0  0  0  0  0  0  0  0
    7.4444   -1.5998  -18.4355 H   0  0  0  0  0  0  0  0  0  0  0  0
    7.3581   -3.6294  -19.2140 H   0  0  0  0  0  0  0  0  0  0  0  0
    7.5743    2.1406  -20.5458 H   0  0  0  0  0  0  0  0  0  0  0  0
    4.6525   -0.8366  -21.6353 H   0  0  0  0  0  0  0  0  0  0  0  0
    4.0477   -6.3447  -19.6266 H   0  0  0  0  0  0  0  0  0  0  0  0
    3.4957   -2.2931  -20.5911 H   0  0  0  0  0  0  0  0  0  0  0  0
    7.5155    4.9469  -21.0226 H   0  0  0  0  0  0  0  0  0  0  0  0
    4.0140    5.0930  -16.7085 H   0  0  0  0  0  0  0  0  0  0  0  0
    5.7664    5.3401  -16.4014 H   0  0  0  0  0  0  0  0  0  0  0  0
    4.8119    6.6143  -17.2332 H   0  0  0  0  0  0  0  0  0  0  0  0
    5.7141    1.2203  -23.2672 H   0  0  0  0  0  0  0  0  0  0  0  0
    4.3472    1.6699  -22.1920 H   0  0  0  0  0  0  0  0  0  0  0  0
    5.3941    3.6942  -23.0718 H   0  0  0  0  0  0  0  0  0  0  0  0
    7.0112    3.1528  -22.5075 H   0  0  0  0  0  0  0  0  0  0  0  0
    2.6512    3.0147  -18.9293 H   0  0  0  0  0  0  0  0  0  0  0  0
    3.4116    3.1923  -17.4952 H   0  0  0  0  0  0  0  0  0  0  0  0
  1  3  1  0  0  0  0
  1  5  2  0  0  0  0
  2  4  2  0  0  0  0
  2  7  1  0  0  0  0
  3  9  2  0  0  0  0
  4 10  1  0  0  0  0
  5 11  1  0  0  0  0
  6  9  1  0  0  0  0
  6 11  2  0  0  0  0
  7 19  2  0  0  0  0
  8 10  2  0  0  0  0
  8 19  1  0  0  0  0
  9 10  1  0  0  0  0
 11 17  1  0  0  0  0
 12 13  2  0  0  0  0
 12 14  1  0  0  0  0
 13 18  1  0  0  0  0
 13 20  1  0  0  0  0
 14 21  1  0  0  0  0
 14 23  2  0  0  0  0
 15 20  2  0  0  0  0
 15 21  1  0  0  0  0
 15 22  1  0  0  0  0
 16 21  1  0  0  0  0
 17 18  1  0  0  0  0
  1 24  1  0  0  0  0
  2 25  1  0  0  0  0
  3 26  1  0  0  0  0
  4 27  1  0  0  0  0
  5 28  1  0  0  0  0
  6 29  1  0  0  0  0
  7 30  1  0  0  0  0
  8 31  1  0  0  0  0
 12 32  1  0  0  0  0
 16 33  1  0  0  0  0
 16 34  1  0  0  0  0
 16 35  1  0  0  0  0
 17 36  1  0  0  0  0
 17 37  1  0  0  0  0
 18 38  1  0  0  0  0
 18 39  1  0  0  0  0
 22 40  1  0  0  0  0
 22 41  1  0  0  0  0
M  END
> <OMEGA_C>
o13zQEThqT5EBJvB6Ka5QDfjo8A28ZrB5ujhQDk5c79aqZnBJXnKQH/JdMA8w5vB56rjQIuhlj/4
EqPBnVKvQAYXBL9YJajBWX2OQCYaq8A3q53BwZ+EQHBcRcBp9KHBg0TAQLansr9pWKDBEZ+vQLDT
McCpT5/BlaTAQFGBRj94iKnB2jPUQIV2lkBgn6PBAji2QLeFdEAxnafBr+HMQHuUqUAXEZnBkuGK
QCyOgECDJpjBrCieQOPysEBI14jBUSWuQJj+1D+LYrLBv9q9QCfXSEDyUrLBL8NpQCPqisDoF6HB
e0GRQBJmYEANwKHBXVCoQJctnUB0U5PBMjRLQMU4aUDY15LBD+HmQGBQw0DwgJXBZHMGQYMPKz+m
2pXBTY7NQIcCvsBYQJjBdzjuQIbHzL/6e5PBT3XrQDhIaMA+tpnB82DyQPv/CEDiXaTBReGUQJYu
Vr8LFa3BEoeBQB4Iy8BRA53Bx7hfQHfCEsCpuqTB6n7wQA9NnkBOLqjBgnKAQAz6okAZq4XBcIa4
QPzhqkAgNoPBL/uZQKOo00Cm3YnBCNq2QDQynD8uI7rBSRyLQB3A1T8wibHBfZysQMJtbEAMk7jB
AlzgQNPGSUBqD7TBrqwpQFzwQEAyb5fBBlhaQFZOTEAz9ovB0RnyQIyMlT6USpvBTn1nQNIDjcBq
UKHBmirgQHgDfL8GAJrB8EKCQHtgRcDFUaLBXqbiQMc4kz9dSqPBL6GtQIzEBL+fbqjB0FCQQFvv
rMDixZ3BUgDIQF4odsCKNpzBpkS+QHOatL/CrqDB7zCtQD2CMsBitZ/B3m2/QPttRD9SwanBs3nU
QHLOlUDOpKPBQyW2QOoYdECEqqfBB3TNQBW5qECRDZnBrwGLQBVpgEBYK5jBf/CeQPwusECtyojB
yzStQJO+1T8jjbLB4XK9QOjWSEC5arLBvH+5QGm6o8DJT5vBOB+RQG96YECRzKHBIcuoQI6UnEBm
UJPBDkdLQMJ6aUC03JLBUsTnQJ8RwkAUdpXB6ucFQW4/HT/+H5bBDQomQI4LlcDpO6PBD07sQKuE
0r9835PBOORZQByHE8BXC6XB5rPxQMcHB0CLiKTB4wyTQLRQU78AYa3BYxiFQIB6zcCEAZ3BVero
QFRuaMC+NprBbtHwQL9ynUAmNKjBARmBQLx1okCzoIXBYUe5QJOsqUBxL4PBXiSbQOX20kDLwYnB
hLS1QEFlnT+4VLrBKi6KQAcA2D9HsLHBNVysQHYpbUCyoLjBdPHfQLQWSUByK7TBlTopQIrQQUBF
epfB6TRaQNIITEA1AozB

> <OMEGA_E>
oKuOP5oYjj8=

> <OMEGA_NBR>
     10017

$$$$
50145434
  -OEChem-04172616093D

 40 42  0     0  0  0  0  0  0999 V2000
    8.0298   -0.3484  -21.4987 C   0  0  0  0  0  0  0  0  0  0  0  0
    4.3618   -4.6830  -19.3530 C   0  0  0  0  0  0  0  0  0  0  0  0
    7.5184   -1.5078  -20.8958 C   0  0  0  0  0  0  0  0  0  0  0  0
    7.1516    0.5983  -22.0512 C   0  0  0  0  0  0  0  0  0  0  0  0
    4.3689   -3.2561  -19.7512 C   0  0  0  0  0  0  0  0  0  0  0  0
    5.2392   -0.7241  -21.3145 C   0  0  0  0  0  0  0  0  0  0  0  0
    5.5910   -5.2140  -19.6687 C   0  0  0  0  0  0  0  0  0  0  0  0
    6.1235   -1.7123  -20.8233 C   0  0  0  0  0  0  0  0  0  0  0  0
    5.7495    0.4459  -21.9198 C   0  0  0  0  0  0  0  0  0  0  0  0
    5.6112   -2.9763  -20.2766 C   0  0  0  0  0  0  0  0  0  0  0  0
    6.6474    3.1586  -20.2299 C   0  0  0  0  0  0  0  0  0  0  0  0
    5.4293    3.2967  -20.8660 C   0  0  0  0  0  0  0  0  0  0  0  0
    6.7378    3.4616  -18.8021 C   0  0  0  0  0  0  0  0  0  0  0  0
    4.4012    4.1205  -18.9006 C   0  0  0  0  0  0  0  0  0  0  0  0
    5.6424    4.3331  -16.7228 C   0  0  0  0  0  0  0  0  0  0  0  0
    4.7870    1.4774  -22.5103 C   0  0  0  0  0  0  0  0  0  0  0  0
    5.2765    2.9401  -22.3338 C   0  0  0  0  0  0  0  0  0  0  0  0
    4.3093    3.7742  -20.1724 N   0  0  0  0  0  0  0  0  0  0  0  0
    6.3013   -4.1669  -20.2049 N   0  0  0  0  0  0  0  0  0  0  0  0
    5.6100    4.0006  -18.1676 N   0  0  0  0  0  0  0  0  0  0  0  0
    3.2538    4.6198  -18.2924 N   0  0  0  0  0  0  0  0  0  0  0  0
    7.7922    3.2562  -18.2092 O   0  0  0  0  0  0  0  0  0  0  0  0
    9.0965   -0.1843  -21.5378 H   0  0  0  0  0  0  0  0  0  0  0  0
    3.5384   -5.2121  -18.8963 H   0  0  0  0  0  0  0  0  0  0  0  0
    8.1932   -2.2450  -20.4865 H   0  0  0  0  0  0  0  0  0  0  0  0
    7.5493    1.4509  -22.5815 H   0  0  0  0  0  0  0  0  0  0  0  0
    3.5487   -2.5611  -19.6483 H   0  0  0  0  0  0  0  0  0  0  0  0
    4.1719   -0.8641  -21.2267 H   0  0  0  0  0  0  0  0  0  0  0  0
    5.9247   -6.2312  -19.5262 H   0  0  0  0  0  0  0  0  0  0  0  0
    7.5189    2.8321  -20.7780 H   0  0  0  0  0  0  0  0  0  0  0  0
    4.6674    4.7411  -16.4180 H   0  0  0  0  0  0  0  0  0  0  0  0
    5.8570    3.4239  -16.1421 H   0  0  0  0  0  0  0  0  0  0  0  0
    6.4271    5.0810  -16.5363 H   0  0  0  0  0  0  0  0  0  0  0  0
    4.6726    1.2740  -23.5852 H   0  0  0  0  0  0  0  0  0  0  0  0
    3.8123    1.3721  -22.0114 H   0  0  0  0  0  0  0  0  0  0  0  0
    4.5451    3.6208  -22.7938 H   0  0  0  0  0  0  0  0  0  0  0  0
    6.2495    3.0552  -22.8339 H   0  0  0  0  0  0  0  0  0  0  0  0
    7.2460   -4.2617  -20.5189 H   0  0  0  0  0  0  0  0  0  0  0  0
    2.5048    4.6358  -18.9548 H   0  0  0  0  0  0  0  0  0  0  0  0
    3.0039    4.0345  -17.5210 H   0  0  0  0  0  0  0  0  0  0  0  0
  1  3  1  0  0  0  0
  1  4  2  0  0  0  0
  2  5  1  0  0  0  0
  2  7  2  0  0  0  0
  3  8  2  0  0  0  0
  4  9  1  0  0  0  0
  5 10  2  0  0  0  0
  6  8  1  0  0  0  0
  6  9  2  0  0  0  0
  7 19  1  0  0  0  0
  8 10  1  0  0  0  0
  9 16  1  0  0  0  0
 10 19  1  0  0  0  0
 11 12  2  0  0  0  0
 11 13  1  0  0  0  0
 12 17  1  0  0  0  0
 12 18  1  0  0  0  0
 13 20  1  0  0  0  0
 13 22  2  0  0  0  0
 14 18  2  0  0  0  0
 14 20  1  0  0  0  0
 14 21  1  0  0  0  0
 15 20  1  0  0  0  0
 16 17  1  0  0  0  0
  1 23  1  0  0  0  0
  2 24  1  0  0  0  0
  3 25  1  0  0  0  0
  4 26  1  0  0  0  0
  5 27  1  0  0  0  0
  6 28  1  0  0  0  0
  7 29  1  0  0  0  0
 11 30  1  0  0  0  0
 15 31  1  0  0  0  0
 15 32  1  0  0  0  0
 15 33  1  0  0  0  0
 16 34  1  0  0  0  0
 16 35  1  0  0  0  0
 17 36  1  0  0  0  0
 17 37  1  0  0  0  0
 19 38  1  0  0  0  0
 21 39  1  0  0  0  0
 21 40  1  0  0  0  0
M  END
> <OMEGA_C>
DnoAQVBbsr5X/avBnJOLQBTblcD60prBfpbwQIH/wL+aKqfBotnkQGgnGT/CaLDB9M2LQPxjUMCC
Ap7BLKenQJRdOb8QhKrBcOmyQMLYpsBqWZ3B5PPDQCgs278XlqbBQvy3QMtK5D6sW6/BFo+zQEd8
PsCQNqLBmLfUQNclSkDl1qHBMr2tQPb8UkCU7abB8pvXQKyLXUCmapbBwNaMQAHbg0BiNJfBWI60
QAKpikBLyIXB8C6ZQGEavT8JFbTBSNmoQG0qPECzq7LBbOWJQLmMcUASYaHBoKTJQG1XhcC2o6HB
doWzQK8EgEBQV5HB1D1QQEDVk0DQVpLB8ln5QIdlUEB7rJHBeIsRQeS4PL5mTazBAXViQCLJpsC4
K5fBXBcDQXGuD8Br5KPBmZPxQBq3uT/YprTBix1jQNHoI8CiL53B83+FQL0zXb9Y0KnBd5e9QLhl
x8CVNZzBvZrwQMFANUBCOabB+lqVQAu3l0ASWIPBW2y7QMogW0AJI4HBFavNQOeXokBXSoTBAYaV
QLsRoz+RrrzBBfxzQKCgrz9uF7DBPXGRQJa7Z0C8WbbBFPzHQI6IQ0C/q7bBot/nQJ9fiMCpJqTB
Yk8gQEJYlECHo5fB4j9AQIkagUARK4zBFCotQLjIvj4+NqnBqzeeQOWtk8BTeZfBmLlCQDiEXL+g
h6TBNApsQIHdjz8kl67BFJONQEyXTsDEhZfBlDqrQAQFFr8hk6rBsC2vQMTYm8CBbaHBhW+LQKnL
rb9AeaXBChehQCUCLz+azK7Bf/SVQN1VLMBMcqHBshbgQBupb0DJuqDBIxm8QO+ZWkAPhqbBnS3b
QEGzgkAHX5XBV9yOQELkbED3cpfB4RyrQGKvi0BHaoXB31PEQA0hwj/WCrTBQNu/QJkYQ0CbTLLB
apCTQGT9WUDRqaHBPQaqQIKzbMCRC6fB9+CxQLuVgkAM8JDBdVlLQGc/aEDbO5PBlPz6QAbVi0C/
GJDBtcbYP75YPj8orqjBZjidQESxqcBp0ZDB+vgSQKertr9qOaDBD31aQCGrAkDzlLLBgn97QPiW
LsAm95DB9HDLQPHSd7/wP6vBJG69QLFIucBGOKTBhkD/QDcqcEDhdqTBLbyIQMkHikDtkYPBXmq8
QOnEZ0DplYDBPy63QFvkq0DTioPBqEXjQDksmT88uLDBGsXDQIHxqD8Es7zBygejQPKNWUBcf7bB
bjfcQIUGY0D1prXB9Ay0QKOFZcDUlq7B9nciQPxRVkB095jBUihKQHVvPUAGSo3BgdouQOJazT5A
6anB18atQPOumsBC4p/BZqREQA1/V78baaXBNLFtQGKolT9sIq/B6WmrQNJcbMD3aqfBGUGsQA5m
C7/0VqvBeWKbQFT3jcD2ZZbBsHKMQEmDqr8nZabBVfqhQIcTPD9IX6/BqAGXQIs9KsCBOaLBkEvg
QC1kcUBvuKDBnWe8QB3RXECClKbBRETbQFOWgkBnT5XBEgmPQG8QbEDJeZfBJxSrQMvxiUBSU4XB
4SjFQGJZyz+larTB8FPAQGdYR0D9abLBj9iTQCHhWkBMvKHBreKNQKVbScB6L5jBGPOxQI7YgUAk
5JDBTrFLQGo/ZkABSZPB1/76QAh6i0Dh+o/Bf+TbP5MSRD8XXKnB0nm7QDK3ucB5iaHB6uwUQCHC
tb/JNKHBbQlcQBghBkBh/LLBZ3+3QO00a8Ddgq/B8obMQLa4a7+yCqzBBDyYQLVkoMCoIY/BB3n/
QL3uckB+caTBTLSIQFLsh0DZf4PBa4K8QCi2Y0CRnYDBAvC2QC8QqkBASIPBrRfkQGQJoj+4GrHB
B9jEQPEqtT85G73Br3OjQFkaXkC8kLbB3ZjcQO07aEAmq7XB+FZ9QCK/JsByopLBxPciQMUCVUB2
EZnByrRKQE55OkBLc43BSUcCQUd4o759FKvBn+yoQCrDnMBgUpjBmYL0QLKSvb8HMqbB/FToQGWa
FT+8B7DBvAXAQDvJZsBflZjBqMKrQHeMUr8UJqvByLiUQJ7bocDBBaLBR0HIQExc4L9thKbBLIO7
QA7Dwj4Ej6/BTw64QP+AQcBYW6LBzVfVQFv7R0C3tqHBUHKuQPRGTkDn5qbBD4LXQBdrW0C2SJbB
ZjqMQPmygEAtQpfBpRWzQGSiiEDmvIXBR0ycQLKvsj95WLTB5oWqQK3DN0APsrLBbPeJQE/kakAK
cKHBQy6eQPugesDarqfBF8ayQB3ne0B8TJHBGttNQOW9j0B5e5LBsD35QDQnUEAedpHBVkMTQSrQ
9r13CKvBZxWoQN71ssD3s5HBOAEFQXJ9CsCwNKLBNPH0QLyRuD8UO7TBJo7TQPOATMASQpLBHtyJ
QKsDhL9lUavB1ZqBQPizvMC0n6TBLLrxQNP9NECVCKbBD3KTQPzSlECyX4PBx5S6QJJ9V0CMEoHB
/3fLQEZBoUDyMITB3piZQPUumj8n/LzBibV5QBsBoT8njLDB8LaSQNpGYkAiaLbB7sXJQNxGQUA7
kbbBjCWTQFPgb8A1Eq/B8UkeQDKTj0Cb1ZfBEG0+QPW3eUB5UYzB

> <OMEGA_E>
kHtkPyRvQj+KhT0//tltPw==

> <OMEGA_NBR>
     13175

$$$$
50219794
  -OEChem-04172616093D

 46 49  0     1  0  0  0  0  0999 V2000
    6.5277   -0.6956  -21.9257 C   0  0  0  0  0  0  0  0  0  0  0  0
    4.3270    0.0106  -21.1354 C   0  0  0  0  0  0  0  0  0  0  0  0
    6.6449    0.5099  -22.6448 C   0  0  0  0  0  0  0  0  0  0  0  0
    4.4372    1.1907  -21.8677 C   0  0  0  0  0  0  0  0  0  0  0  0
    5.9506   -3.3566  -20.6169 C   0  0  0  0  0  0  0  0  0  0  0  0
    4.3442   -2.1839  -19.2504 C   0  0  0  0  0  0  0  0  0  0  0  0
    5.7293   -4.4979  -19.8166 C   0  0  0  0  0  0  0  0  0  0  0  0
    5.3745   -0.9425  -21.1428 C   0  0  0  0  0  0  0  0  0  0  0  0
    5.2381   -2.1716  -20.3331 C   0  0  0  0  0  0  0  0  0  0  0  0
    5.6072    1.4647  -22.5902 C   0  0  0  0  0  0  0  0  0  0  0  0
    4.1395   -3.3503  -18.5141 C   0  0  0  0  0  0  0  0  0  0  0  0
    6.9365    3.7297  -20.1576 C   0  0  0  0  0  0  0  0  0  0  0  0
    5.7746    3.9052  -20.8787 C   0  0  0  0  0  0  0  0  0  0  0  0
    6.8434    3.4833  -18.7206 C   0  0  0  0  0  0  0  0  0  0  0  0
    4.4322    3.5692  -18.9494 C   0  0  0  0  0  0  0  0  0  0  0  0
    7.0444    3.5935  -23.2134 C   0  0  0  0  0  0  0  0  0  0  0  0
    5.7238    2.8010  -23.2782 C   0  0  2  0  0  0  0  0  0  0  0  0
    5.8162    4.0474  -22.3953 C   0  0  1  0  0  0  0  0  0  0  0  0
    5.4362    3.1459  -16.6809 C   0  0  0  0  0  0  0  0  0  0  0  0
    3.0613   -4.4043  -16.6569 C   0  0  0  0  0  0  0  0  0  0  0  0
    4.8381   -4.4851  -18.7939 N   0  0  0  0  0  0  0  0  0  0  0  0
    4.5223    3.8491  -20.2389 N   0  0  0  0  0  0  0  0  0  0  0  0
    5.5758    3.3550  -18.1422 N   0  0  0  0  0  0  0  0  0  0  0  0
    3.1573    3.4750  -18.4010 N   0  0  0  0  0  0  0  0  0  0  0  0
    7.8736    3.3779  -18.0651 O   0  0  0  0  0  0  0  0  0  0  0  0
    3.1666   -3.2764  -17.5379 O   0  0  0  0  0  0  0  0  0  0  0  0
    7.3172   -1.4311  -21.9717 H   0  0  0  0  0  0  0  0  0  0  0  0
    3.4349   -0.1791  -20.5571 H   0  0  0  0  0  0  0  0  0  0  0  0
    7.5272    0.7031  -23.2368 H   0  0  0  0  0  0  0  0  0  0  0  0
    3.6196    1.8962  -21.8788 H   0  0  0  0  0  0  0  0  0  0  0  0
    6.6551   -3.3895  -21.4348 H   0  0  0  0  0  0  0  0  0  0  0  0
    3.8109   -1.2827  -18.9858 H   0  0  0  0  0  0  0  0  0  0  0  0
    6.2823   -5.4023  -20.0232 H   0  0  0  0  0  0  0  0  0  0  0  0
    7.8985    3.7736  -20.6464 H   0  0  0  0  0  0  0  0  0  0  0  0
    7.9198    3.1658  -22.7027 H   0  0  0  0  0  0  0  0  0  0  0  0
    7.3774    4.1823  -24.0808 H   0  0  0  0  0  0  0  0  0  0  0  0
    5.1476    2.9178  -24.2079 H   0  0  0  0  0  0  0  0  0  0  0  0
    5.3029    4.9353  -22.7930 H   0  0  0  0  0  0  0  0  0  0  0  0
    4.3701    3.0697  -16.4211 H   0  0  0  0  0  0  0  0  0  0  0  0
    5.9510    2.2175  -16.3926 H   0  0  0  0  0  0  0  0  0  0  0  0
    5.8843    3.9954  -16.1446 H   0  0  0  0  0  0  0  0  0  0  0  0
    2.2564   -4.2273  -15.9284 H   0  0  0  0  0  0  0  0  0  0  0  0
    2.8334   -5.3070  -17.2428 H   0  0  0  0  0  0  0  0  0  0  0  0
    4.0136   -4.5435  -16.1243 H   0  0  0  0  0  0  0  0  0  0  0  0
    2.4748    3.6441  -19.1121 H   0  0  0  0  0  0  0  0  0  0  0  0
    3.0242    2.5591  -18.0225 H   0  0  0  0  0  0  0  0  0  0  0  0
  1  3  2  0  0  0  0
  1  8  1  0  0  0  0
  2  4  1  0  0  0  0
  2  8  2  0  0  0  0
  3 10  1  0  0  0  0
  4 10  2  0  0  0  0
  5  7  2  0  0  0  0
  5  9  1  0  0  0  0
  6  9  2  0  0  0  0
  6 11  1  0  0  0  0
  7 21  1  0  0  0  0
  8  9  1  0  0  0  0
 10 17  1  0  0  0  0
 11 21  2  0  0  0  0
 11 26  1  0  0  0  0
 12 13  2  0  0  0  0
 12 14  1  0  0  0  0
 13 18  1  0  0  0  0
 13 22  1  0  0  0  0
 14 23  1  0  0  0  0
 14 25  2  0  0  0  0
 15 22  2  0  0  0  0
 15 23  1  0  0  0  0
 15 24  1  0  0  0  0
 16 17  1  0  0  0  0
 16 18  1  0  0  0  0
 17 18  1  0  0  0  0
 19 23  1  0  0  0  0
 20 26  1  0  0  0  0
  1 27  1  0  0  0  0
  2 28  1  0  0  0  0
  3 29  1  0  0  0  0
  4 30  1  0  0  0  0
  5 31  1  0  0  0  0
  6 32  1  0  0  0  0
  7 33  1  0  0  0  0
 12 34  1  0  0  0  0
 16 35  1  0  0  0  0
 16 36  1  0  0  0  0
 17 37  1  0  0  0  0
 18 38  1  0  0  0  0
 19 39  1  0  0  0  0
 19 40  1  0  0  0  0
 19 41  1  0  0  0  0
 20 42  1  0  0  0  0
 20 43  1  0  0  0  0
 20 44  1  0  0  0  0
 24 45  1  0  0  0  0
 24 46  1  0  0  0  0
M  END
> <OMEGA_C>
tOLQQIETMr/aZ6/BMHeKQMBiLTxcFanBtqLUQHiHAj96KLXB4/2NQMhpmD8D8a7BTGu+QEvSVsBt
76TBlgOLQETEC8DpAJrBeFa3QNXuj8B0iJ7BwvurQNtFcb9hJKnBrJ6nQB/8CsBAqqLBNm6zQGJ6
uz+7uLTBjXaEQBNrVsDoHJTBbvfdQPKzbkDDQqHBRMm4QJnveUCbB6fBMP3aQGfuXkDWw5XBjtSN
QDBtZEBMmJfB0mvhQIb8ZUD9tLnB/ii3QMNDM0CqObrBKh66QEKEgUB/KbPBePWtQJxWSUBlcoXB
F+xDQBfwjMBlQYXBZtGaQMCFj8D6WZbBCreQQOFXdkA+6aHBTm2yQBe5VkBEI5HBghFKQMVmXkBW
NZPBovT7QFUwWEBbhZDB9ahKQNWwUcCtTYzBOSbqQDovt78Hxq/BcdVbQFFlN77jdKTBLt/wQGH+
Mz/n5LnB5qZnQFW28j/HB6/Bn/bUQMfsWMCFeqvB++VzQAcxpL/64pfBOgjJQNzfrMB+L6DBe8D8
QHODcUDeK6XBx279QK+cSkAdn7XBqRPsQCnVhUCUpcDBSLmkQEy9OkDIqcHBLLGpQL7tnUAPWLbB
hdeLQGd1REBQXoPBw26+QBHsDUAOJIPBaEy8QBK0f0ALKIHBI2gQQBFGh8C52n7BAFc1QP7SqcA3
8YnBmm+AQKpkkcCf/oDBPmMeQGc5aUCN5ZjBqoxBQLnHI0AOLpDB0ymLQCCiY7zgWqjB4bfQQDTq
O79wGq/Bm2WOQOoflT97Q67B6jbUQGga8T6U4LTBmojAQLQ4WcByn6TB5ACIQLQmFsBwgZrB29y4
QFyAksCbyJ7BX0asQAiBe7+0pajB+oenQES+D8BqgKLBhEKzQJ4wtz+aTLTBNRqBQJ+rY8C9N5XB
i/DdQKFncUAWV6HBvpy4QC0Le0A+GKfBPi7bQCJ0YkA20pXBG/uNQFDdZUB3m5fBIc/gQG+NY0C2
v7nB75i2QF1tMEBmCLrBuaG5QPLagEApPrPBqWmuQDJsTEAtdoXBQ7hTQPikhMAQ2IPBsY+ZQOzB
lMCXTZfBW6eQQFlAd0AD8KHBkbeyQL1MWUA1KpHBGIVKQDZsX0ClMJPBcjr8QEsZXUCNlZDBEv8+
QG1XZsC9I47BoEJeQH1wQ74bgaPBJ+XpQChUvL/MmK/BaMhoQEkq8D/DMK7BlyDwQFSzKD+avrnB
8kPZQDBiV8BGp6rB5gxqQJ+Tvb/ZcZjB0WXMQJVYrsBJUKDBJqn8QIjXdEBBRqXB9Pf8QCo9SUBK
nrXBLDrrQGzog0Dh08DBKvujQP5ONkARd8HBeQapQPjenEDzlLbBzFiMQHinRkDOXYPBllW/QLqf
EUCEHIPB91+8QMO3gUAFOYHBn1saQP1vhMArfH3BV5VqQCK3pcApzYTBkxCDQPBbYsBUGIDBfaMe
QHCTaUCf35jBuYlCQE3nJEC8G5DBEmjTQDn/ub5VQarBsPWFQLb/Gr5NO6zBWxXZQPwBVj9+66/B
YbaLQIHUhD9HELLBC6DCQDuzSsAcFaPB0n9/QM6RFcA2/JvBaaq7QJigi8ABa53BE9upQDJsXb+2
U6jBKxykQK6BCMAnaaLBOUa1QEBTxj8JzLPBPvx0QJopZMDNcZbB5lfDQHitqEDQHqHBnm6zQBBT
h0BoH6fBC5+8QOH9p0AMfJXBwdKVQHjMSkDp25fBqnvjQEtrbUBjx7fBhYi6QIv3OEBpdbnBC+24
QIJsh0CoM7PBj5edQFVpg0AUXIXBSMPcP31wMsBS947B12CYQPptkcASTJfBeGSbQIauTUD/R6LB
+8umQOwMhUDM+5DBaqt8QGk9BkBy1pPBIm/KQDx+xUBdA5DBZLEuQDT8dMDG9Y/B/fTuQMbBZ78J
W6fBDh5MQEKMBb+yuarBwvX4QAp9mz/eUbHB6YdgQGLexz9BOrXBRg3fQNu+QsAB5afBD8NPQDTT
x7+rRJvBqAfTQNH/pMDG9p3BsF3UQMO7wkBY4KTBRn/8QOfJVUBmVrLBP3nyQIMdh0B0mr7B1h+t
QEvpO0A5lsHBJ2uqQEx8okA0gbfB52SMQMxFS0AZeoPBANa7QJdbhEAO3YDBxbeJQK8In0DgG4PB
F6RrP/h6SMDAoYnBptwLQKvS8L/HnIvBQUKnP7D2I8D+5pbBGi1qQDL9wD/Z3pnB+YCQQDdZyT8J
w47BTQDGQJnmbr+V6LHBPxuYQNu7/j2hkKTBY/LJQIpjmD6SSbfBNZaaQGRjqj8qMqrB71+oQPCi
YcDiCKjBi7CmQDtiE8CaWZfBTrKjQOPZlsDDHqLB9Z+tQLaGgr/MZqjBxbepQHvtEsBYk6LBoey0
QALSuD+pV7PBfzmiQG4aYsCX0JHBeryUQGQimUDdoqLBs5a3QAffhUCgYqfBl9qQQDh6l0Ae8pbB
x0HUQAtQYUA/p5bBZ2TjQAueYkAwn7jB4Ua5QPSvMEBqWrnBDU+6QBXkg0CrgLPBI5WvQAZAgUBp
QIXBMhChQIogF8CDyIDBsbugQCuFlsCFTZfBGZzXQCjvZECcKaHBVbKwQAoFgkDuHJHBZmH1QNuW
OUAhHJHBYnxjQLT+p0DznJLByVWfQCbfZsDwuobB6J7VQMoQ6L+CDLXB26+FQEU3jD2gRJ3BoyDd
QCpuuj5zdL7B2TmIQPm7C0D6h6fBaeaqQOGlY8DfpbDBI8OnQA/Ur79t9JLBoG+iQA0PtcBDTqbB
dph5QEwbqUCka6fBonP9QMj3SkBlf7PBpv7wQLlGgED+0r/BKNipQGInMkCeQsHBR5irQDy/nkCQ
17fBQhzLQIDoXUC7OYLBWxKxQD8yokAALYLBuLqRQCkSZEAYjoLBt22eQCCeJMDNV3DBHKK/QC5v
7b/cZoLBTXCGQFE127+6RYPBTMEFQc0vJUCWS5bBa1ABQZNUY0ChB4zBGsmMQGwPALyGMKfBSeLQ
QOhhPb/+zK7BURqQQKHumT/01azBIEvUQNxd9D5VX7TBYq+AQDaLNMDZ3J/B1dTNQCpPQMD2OJ/B
11N8QPeLgcB0ZprBkRWtQDRDfr9JJqjB+S2pQE75EcAJXKLBFRe0QNJEuj9JV7PBBj3JQIhah8C/
wZnBH1aSQLiOlkCEX6LBp6i0QLxhg0DAXafBA1qQQELjlUDdpZbBujXUQBK/X0Ci1JbBsJXgQEFr
ZUBC47jBql+3QAlxMEB9frnBahi3QEQlg0C8frPB6p+xQAiNgEDnKoXByUToQAkPxcCWNpHBIrmh
QNc6l8B2dpfBk27VQPosYEC1YKHBt3OyQP0/g0AuA5HBxMz1QHRxN0AgiJHByMliQLvApUCKGZLB
PDHuQIDenMBRz5bBI/JiQF3QP74WGKLBPbDpQCMbvr+zmK/BTxBuQIaG+D+RMazBGaDvQJqkKT+n
crnBkblHQIf6EsBeIKLB3VjtQGnIJ8D1AKHBojc+QEywjsAlgpjBXtNyQNrDpUD6/qbB34P7QLg9
T0AE8rPBc/rsQHavgkBQF8DBrD6nQLchMUDCUMHBQ/WmQPjBnUAvm7fBfhHPQCn6YUBnUYLBMnyv
QM72oEAfx4HBPrKVQAdoW0DVnoLBq9YDQeIC08CvT4/B+m7WQP9cv8DiwonB9y/WQJNO28CyUZbB
2D8FQTwhIEBK5JbB41wCQWWyYUB80ozBfQmHQHo9EL9gA6rBYm7UQHVsPr8MSKzB+muHQMe5KT8q
iK/B8LXUQMA28z562bHByIyJQNiBW8CcHqPBiDPRQB7AP8AGqZzBBKyKQEYqlcA4r53Bz5itQKt1
o7+AV6jB+mKtQPrQJMDVpaLBlzyuQOk9mD/Kc7PBL1/QQP+vh8AGXZfB68zVQEypVEA1xaHBpS+z
QEPZdEASXafB9TDVQOIyWECoD5bBC1CQQJeyj0A+Y5fBYe7WQNMcVkATi7rBB9GtQORDIEBSjrnB
t6SxQHLRdUAgiLPBPA2wQNSXgkAwMYXBjDvyQJt4vMC4KozBS1atQKl2ocBJ+pfBU3yQQErQjEC/
7aHBV56yQGFqgECTB5HBDIpZQN+uokA4pJLBYwrzQM0SOUDTApHB2Tz0QGdnk8AjiJHBV2dSQBFP
dr8mCqfB0AnyQEyBo7/C/6rBfsxTQCn0mT/KxLDBiHXyQMBPXj/V67TB6gBbQPQRScBSnKfBEzPt
QHlyF8C2IpzBv2xeQEwXqsDmE57BscnwQFpqOUAR9aXBxsP0QHXhP0AmyrbBeWneQCjfdkDIGsLB
1dyYQG68IUDfn8DBuAOfQNxOlUAQBrfBJsKSQP2xk0BC14LBVlmvQJf0Q0AS44HBcyfMQCm3k0CG
EYLB+SsIQQcpwsAy1ofBBGjXQK9/vMAneIbBPGrtQH/u1cB4H5LB0P8vQGWJq0CDT5jBVH49QHi8
jUCdto3BBnfVQDIUCb/uiqnBKYuIQPyunr64f6zBQGjcQOllLD+w/q7BGJuPQL+yYz9BELLBzJnC
QNkSVsCCs6LBIZt8QDBIIMCBmZzB1gy6QPFNkcCMKp3B5HyrQE5shL8oN6jBESykQMeOE8Aed6LB
J3C5QLu/sj+MN7PBs+luQIXTbsBvLJfBAtORQCqxZUCJ5qLBQLi2QBkZg0ALZKfBLa6MQBOWaUBs
QZfBH17RQH00mUDojZbBk+LoQC3AYUBOirfBl/C/QEGoLECBQLnBPrW9QAuRgUCDXrPBeMioQI/r
jEDxc4XBgyzKP+5LPMB/wZDBeU+VQHHulsCSlpfBQwDWQEu/lkBkCaHBy2ytQDinh0CwMJHBo3fx
QCz9rUDW2JDBDotYQPndS0BVJZPBVXglQFAtf8DFPJHBtVHwQIH/ir/qWabB869QQH9YLr+Ee6vB
/Y38QMGHhj8X9q/BQ8VpQMt6tj8lebXBlSXgQDloTsBjFKfBBe9MQLek3L8OOpzBpVnRQOPQqsC8
Xp3B42VyQCfoSUB93qfBMbcAQWKnS0Ct3rHBhHD4QGibgECQYr7B4mKzQNNyLUAEecHB052vQOUM
nEAD+bfBRq3FQHw9nEC+MoLBlLyMQMQQoUAKv4PBd3ukQGG2WkCFtYHBifM7P38AUsBH0ovBXiMB
QNxXAsBfMo3BZ7WcPyfYLcDb4pjB8wUEQZ06uECr55XBNfzkQPn9xkAY84zBRfSRQIC5jL8ED7PB
bnvFQJNr0r5ce6XBE66VQHxTIz4gArjBzVPKQKiwUT+zqKrBSwmfQLjed8DtLKrBk86oQPDFMcAd
GpnBIGCcQOUno8Awr6TBA3KpQIMesb8Zq6nB/4mlQBsrLMAVTaTBFaexQNlKkT9OzbPBvrelQN5L
gcA0AZTBsOjdQCiDdECP9KDBDI+4QAabdEB336bBxArbQNWNbkCvSZXBm6+NQAZ4b0AqRJfBYSvg
QHixUEB5MLnB5wa1QNcjH0A7crnBZ5m5QLHhckCvBbPBpIStQKHnaEDmyoTBmPeuQBShP8C9m4LB
Qq+fQCFTpcDd4pnB7ouQQBa3cUBfz6HBoFayQJ5Pb0AwkpDBrZxJQHmDbUC62pLBawD8QGhUaUDR
/o/BvH6oQK0mhsAN+IjBaTR6QPW/7L98cbbB3kLXQNLTHb/zQZ7BoweDQGiuwj6MEL/B3izhQH2l
xD9RpKfBdSCcQC3OdcDsx7LB16itQGND8b8EZZTBhpOXQDxCwMDeL6nBhKf8QM/BeECE3aTBI7T7
QFUMNkCq1bTBVoHrQI5KckByYsDBVgGjQCu2JEAm+cDB1g6qQM4hlUDH0bbBjViLQPidakBHsYLB
bZi7QKJkLEAP/oHBqgy+QMh5j0DD9IDBLIiwQC3rUMB2LHTB7RjNQEmrIMAyAIXBMC2UQPYvE8CN
64PB1xIeQDwqbkCnt5jBqqxCQDpAOEAqgY7Ba+zTQAAANL9Y5K7Bi0aNQABB0zvdzqjBBB3YQLLP
/z4IqLTBayuRQKFMlz9ovq7BzSvCQAATV8Adm6TBtAOKQAWKEsAAgJrB+U66QMg1kcB6tJ7BALCu
QIh9c7+wuqjBRJOpQHoUDcDUf6LBCRa3QIqguj+PWrTBF6mCQNQNYMAMOpXBMBmNQL5qfkC2VaLB
gQu1QPmGekBQ/6bB9ymJQIU9a0AH5JbBcmzWQOhdXUDmaZbBHR/kQDnbZ0C+S7jB27i7QFDBMkBP
57nBx265QB9LgkCJCbPBSxutQKGjTUBGVYXBUF5TQOJfe8BRwoPB0PeaQJIYk8BeO5fBQKLZQIAZ
bEBAxaDBloeuQD34WUBiFZHBZEH8QGZJUUCLyZDBPh9LQJEuaEC3yJLBU5w/QGLkY8CwkY7Bai7t
QJ5AuL/4Kq/BLhNhQKM6M77WO6TBQJ70QJvyLz8qTrnBFcxtQNYB8T87Bq/B+cHaQJX1VcAerarB
T9ZuQAFftb+cbZjBdbjNQD8wrcDkLaDBx5JiQCSeh0BcA6fBRE3+QMkbT0DpSrPBQo7xQMRMhkBK
Ar/B/tusQHyYN0CO28HBk36pQF8UnkB1r7bBCZPNQCDaQEBBVYLB1HmgQH7pg0AUhIHBlTOYQDoX
F0BPbYPBKygYQEflfMBmAX7BtV9xQB6HncB8qoPBPcJ/QJExTMBcUIDBS4wKQToDVkC4y5XB7sf+
QCLrfUCmFovBjTSFQH3dDL/5UqvBSpLSQP/hWb8fsKzBud6IQGwCMj9ce7DBISfWQA/uxz491bHB
MdaBQJm9XMDLB6XBnZrIQAIhSMCUqp3Bb2aAQNlPlsA71Z/B/ReqQJ23qr/7YanBtqemQDxgKcDg
+6PBg1SxQJ0Clj/eurPBOl7FQCKcjMDCopjBmq/dQPCqbEDNEqHBbjy4QMGecECp6qbBffLaQKAB
a0C/XZXBn5WNQJXCb0AuQpfBDBLfQGtOU0CrkrnBVm20QI87IECNgLnB56G4QK3UckDlCrPBVJet
QMQla0CxzoTB9EYGQRU1hMCVFZHBxYahQEiupMC31JnBaE+QQITVcEDzzKHB1lWyQCoOb0BOm5DB
8n1JQKKeb0Duz5LBH/b7QHF5Z0DMEpDBKuTlQOt/ncAvU5LBXFBMQKS0aL9116jBy+TuQPWwuL8Q
PavBszVZQM30pD+l9bHBXCn1QBzDPz8GWbTBOQ9OQEkWR8Cuw6nBWyHlQND3IcD/pZzBsl1IQDj/
qcBypqDB41z8QIXWakC/C6XBJ3b7QKGXOUCOe7XBnBDpQDcHdkAUz8DBO3ChQOl4JUAF4sDBlv2n
QJIMlUCDkLbBVn2LQGZHb0ArsILBv866QIleLkAY14HBM/i+QH9ykECaJIHBJKURQXxslcAT7YvB
fJMNQV6PfcDh+ZjBdUECQcN9SsCVaY3BbNEdQDBmcEDCqJjBM8hBQKftOkD2X47B

> <OMEGA_E>
kBSJPqTrhD4CnH4/bMNzPzDscj+cK3A/bJ1vP0AlFT9YCxQ/6vUNPw==

> <OMEGA_NBR>
     21467

$$$$
50219780
  -OEChem-04172616093D

 47 50  0     1  0  0  0  0  0999 V2000
    1.9992   -3.5610  -17.5203 C   0  0  0  0  0  0  0  0  0  0  0  0
    5.7787   -4.6503  -20.0844 C   0  0  0  0  0  0  0  0  0  0  0  0
    5.9029   -3.4249  -20.7604 C   0  0  0  0  0  0  0  0  0  0  0  0
    4.2967   -0.0247  -20.9857 C   0  0  0  0  0  0  0  0  0  0  0  0
    6.4756   -0.7216  -21.8350 C   0  0  0  0  0  0  0  0  0  0  0  0
    4.3992    1.1654  -21.7226 C   0  0  0  0  0  0  0  0  0  0  0  0
    6.5869    0.4844  -22.5488 C   0  0  0  0  0  0  0  0  0  0  0  0
    4.9537   -4.7509  -18.9519 C   0  0  0  0  0  0  0  0  0  0  0  0
    4.3683   -2.3902  -19.1694 C   0  0  0  0  0  0  0  0  0  0  0  0
    5.3303   -0.9893  -21.0416 C   0  0  0  0  0  0  0  0  0  0  0  0
    5.1988   -2.2798  -20.3133 C   0  0  0  0  0  0  0  0  0  0  0  0
    5.5539    1.4383  -22.4828 C   0  0  0  0  0  0  0  0  0  0  0  0
    4.2536   -3.6203  -18.4843 C   0  0  0  0  0  0  0  0  0  0  0  0
    6.9384    3.7785  -20.1679 C   0  0  0  0  0  0  0  0  0  0  0  0
    5.7746    3.9535  -20.8860 C   0  0  0  0  0  0  0  0  0  0  0  0
    6.8470    3.5424  -18.7289 C   0  0  0  0  0  0  0  0  0  0  0  0
    4.4349    3.6370  -18.9554 C   0  0  0  0  0  0  0  0  0  0  0  0
    7.0074    3.5314  -23.2192 C   0  0  0  0  0  0  0  0  0  0  0  0
    5.6691    2.7569  -23.2212 C   0  0  2  0  0  0  0  0  0  0  0  0
    5.8032    4.0407  -22.4017 C   0  0  1  0  0  0  0  0  0  0  0  0
    5.4358    3.1629  -16.6975 C   0  0  0  0  0  0  0  0  0  0  0  0
    3.4189   -3.7184  -17.2220 C   0  0  0  0  0  0  0  0  0  0  0  0
    0.8632   -3.4298  -17.7466 N   0  0  0  0  0  0  0  0  0  0  0  0
    4.5240    3.8957  -20.2479 N   0  0  0  0  0  0  0  0  0  0  0  0
    5.5799    3.4839  -18.1374 N   0  0  0  0  0  0  0  0  0  0  0  0
    3.1598    3.5041  -18.4162 N   0  0  0  0  0  0  0  0  0  0  0  0
    7.8768    3.3922  -18.0816 O   0  0  0  0  0  0  0  0  0  0  0  0
    6.3188   -5.5169  -20.4362 H   0  0  0  0  0  0  0  0  0  0  0  0
    6.5411   -3.3552  -21.6289 H   0  0  0  0  0  0  0  0  0  0  0  0
    3.4254   -0.2049  -20.3735 H   0  0  0  0  0  0  0  0  0  0  0  0
    7.2697   -1.4515  -21.8911 H   0  0  0  0  0  0  0  0  0  0  0  0
    3.5872    1.8772  -21.7068 H   0  0  0  0  0  0  0  0  0  0  0  0
    7.4646    0.6790  -23.1474 H   0  0  0  0  0  0  0  0  0  0  0  0
    4.8557   -5.6960  -18.4386 H   0  0  0  0  0  0  0  0  0  0  0  0
    3.8198   -1.5282  -18.8195 H   0  0  0  0  0  0  0  0  0  0  0  0
    7.8992    3.8153  -20.6597 H   0  0  0  0  0  0  0  0  0  0  0  0
    7.8859    3.1136  -22.7057 H   0  0  0  0  0  0  0  0  0  0  0  0
    7.3324    4.0738  -24.1193 H   0  0  0  0  0  0  0  0  0  0  0  0
    5.0781    2.8424  -24.1450 H   0  0  0  0  0  0  0  0  0  0  0  0
    5.2959    4.9184  -22.8286 H   0  0  0  0  0  0  0  0  0  0  0  0
    4.3699    3.1654  -16.4257 H   0  0  0  0  0  0  0  0  0  0  0  0
    5.8623    2.1686  -16.4992 H   0  0  0  0  0  0  0  0  0  0  0  0
    5.9684    3.9165  -16.0989 H   0  0  0  0  0  0  0  0  0  0  0  0
    3.7295   -2.9278  -16.5231 H   0  0  0  0  0  0  0  0  0  0  0  0
    3.5822   -4.7025  -16.7584 H   0  0  0  0  0  0  0  0  0  0  0  0
    2.4778    3.6334  -19.1361 H   0  0  0  0  0  0  0  0  0  0  0  0
    3.0585    2.5910  -18.0213 H   0  0  0  0  0  0  0  0  0  0  0  0
  1 22  1  0  0  0  0
  1 23  3  0  0  0  0
  2  3  2  0  0  0  0
  2  8  1  0  0  0  0
  3 11  1  0  0  0  0
  4  6  2  0  0  0  0
  4 10  1  0  0  0  0
  5  7  1  0  0  0  0
  5 10  2  0  0  0  0
  6 12  1  0  0  0  0
  7 12  2  0  0  0  0
  8 13  2  0  0  0  0
  9 11  2  0  0  0  0
  9 13  1  0  0  0  0
 10 11  1  0  0  0  0
 12 19  1  0  0  0  0
 13 22  1  0  0  0  0
 14 15  2  0  0  0  0
 14 16  1  0  0  0  0
 15 20  1  0  0  0  0
 15 24  1  0  0  0  0
 16 25  1  0  0  0  0
 16 27  2  0  0  0  0
 17 24  2  0  0  0  0
 17 25  1  0  0  0  0
 17 26  1  0  0  0  0
 18 19  1  0  0  0  0
 18 20  1  0  0  0  0
 19 20  1  0  0  0  0
 21 25  1  0  0  0  0
  2 28  1  0  0  0  0
  3 29  1  0  0  0  0
  4 30  1  0  0  0  0
  5 31  1  0  0  0  0
  6 32  1  0  0  0  0
  7 33  1  0  0  0  0
  8 34  1  0  0  0  0
  9 35  1  0  0  0  0
 14 36  1  0  0  0  0
 18 37  1  0  0  0  0
 18 38  1  0  0  0  0
 19 39  1  0  0  0  0
 20 40  1  0  0  0  0
 21 41  1  0  0  0  0
 21 42  1  0  0  0  0
 21 43  1  0  0  0  0
 22 44  1  0  0  0  0
 22 45  1  0  0  0  0
 26 46  1  0  0  0  0
 26 47  1  0  0  0  0
M  END
> <OMEGA_C>
0uX/P57nY8CZKYzBbeu4QEfPlMDTrKDBoeS8QNIwW8BNFabBkH6JQJA0yryx4qfBTjjPQPi7OL8G
rq7BZsaMQHIrlT/Ox63BNcjSQKEH+D7iY7TBFYWeQDgHmMCNnZfBKMmLQGL5GMD3WpnBEZKqQDJF
fb8/VajBjVymQJDnEcC8gaLBmrmxQE0auD/C3LPBtx2IQOyyZ8Dm35PBEAfeQKzTcUDrV6HBRsm4
QOgGfUCWFqfBvhrbQIS2YkDF1JXBmOqNQEjFaEC4pJfBsDzgQNgBYkDfwLnBaGm1QLhxMED3xLnB
07O5QDpNgUCjNrPBu/GtQDhtSkCSlIXB6s9aQBb6bcCbxonBgPhcP6CCW8Aj+Y3BXMSQQApTeUDL
+6HB646yQLb3XkBUGZHBnDlKQIhDYEBhVJPB/Q78QH4aWUAyp5DBlTPKQDSKsMBpfaPBb1DRQDG8
VsABCK3BlTlbQN7LUb75/KLBkaHoQCDJub/+IK/BLJRlQEdJ8D+Vp63Bnd3uQFvQLT/fLbnBzmGb
QONFtsBQgpPB4HZ0QAecw79tjpbBZcb8QPMtdED+RqXBY1n8QBhFR0AwpbXB4KLqQJtcgkA+9MDB
0X+iQBXpNUDoKMHBKXipQLpjnUDioLbB+tWLQM+VSkDrZ4PB/pe7QAzKCkBF/oPBZ/2+QNenekCL
yoDBYa9uQFVgO8A8L4TBTUJlQKB6lsAdEYbB/pMeQIeJaECjFpnBOr5DQKPSJUCzK5DBFiRsQPQH
XsCbYYHBX2S6QPNPk8CoqZ/B1wm/QFJuWcC2VqXBBLLPQKiVN78x267Bi4OJQCDZtbwZW6jBIF/T
QN3V+T6Jl7TBSQKNQMxIlT9qOa7BgYqcQIlclsDFSZfBmB6JQGoOF8BV7ZnB5tSqQOV+e79SlKjB
hY6mQCxxEMBtgqLBoUGyQLyJuD9dJbTBxzSDQAFjZcD1j5TBZRbeQBRlcUCSR6HBidq4QOzve0CH
C6fBjiDbQBu1YUBoyJXB3/KNQD1uZkCXoZfBo9DgQBkQY0CArLnBGSG2QCEsMUCb5rnBqvO5QDxH
gUAwK7PBgASuQEWTSkDdgIXBhk1EQHtYbMBsxIvBUdiFQOXfUsBRGHLB+9OQQK53eECX76HBh42y
QEbMWECoLJHB5EVKQCwaYEAPRZPBQxj8QIrkWkByipDBJs/NQCuprsDuvqHBPG7VQLi6VcBR56vB
BSXpQB8gub//O6/BrmpaQMzEVL5JoKPBK5XvQAGALj8LVrnBMeNlQNwO8D+iM67BuQWZQCgHtMC7
8ZLBGxpuQCb5vr+CepfBQt38QPqrdEBNMKXBwM/8QDYJSEDIi7XBMHDrQMhhg0A2x8DBKYGjQMtp
N0DDU8HBFb6pQMiAnUAHhbbBB+WLQMY9RUDZcoPBqpu+QJMnD0CKQIPBIzK8QDRjgECyJYHBNqMn
QPZQlsCn7YvBLiASQN4QPMAuEI3B0ageQDvZakDq95jBwuJBQOxrJUDqQJDBbPPvQHmly8CzNJLB
CXl8QBoRlsDuLqDBAM+BQDhxXMC0UaXBSN6FQGIQD78XTqvByj3TQNN3Wr8ysKzBZlCJQMjyLz8/
dLDBt5vWQNcOyD6O1LHBawygQJCEpcD32ZnBtXzJQKicSsCJ153BBNiqQPXiq79wZ6nBbFanQAig
KsCsIKTBJ6qxQKiFlT9AubPB1FbGQBKcjcAw0pjBHJTdQDywbECbEqHB0hW4QEpScECC5qbBEeva
QIZfakAHXpXBu4aNQH80bkAaOpfBte7eQDO0U0BUkrnBw3m0QK8QIEBffrnBFWu4QBewckDNBrPB
SLatQJwOa0DAyYTBPurqQEkYncDzupHBPj/zQKvJ8MC+j5LBQzOQQKQlcUDPw6HBMkayQKdHaUDF
mZDB0XlJQE06cEA2wpLB/P/7QJszaUCOFZDBFuxCQNrZqMBaGqHBy5NPQFwYRcASM6rBJMVNQDNj
a78ayqjB8KnvQHxYuL9NO6vBje1ZQGaJoz9i6LHBj4/1QCsKQT9FWLTB/tCcQHrEw8B5wJXB+zTm
QHDvJMBL4pzBTj38QEKTa0CVDqXBlW37QMBZOkDZfbXB0sboQOSYdkC8zsDBI2+hQGsWJUBF3sDB
IZKnQMXglEBDibbBipCLQKPSaUBjqILBKsW9QGXhMkBtUoHBD268QKrkkkDbn4HBZEjkQI21k8Ca
aYnBZ2oEQS31jcAMaZTBk8sdQErHc0C6lpjBN9w/QPYAO0BLe47BVs8KQZ4WjsA/spXBhSt/QH0o
l8A2SaDBf+CBQPvDXcB3TqXBHjCFQGrGDr+EXKvBy5PSQNwjW78dq6zBed6IQJYQMD/BhbDBwyzW
QMRWxT7u0rHByRWiQGgOpsAWDZrByKbIQGR+R8BAkJ3BPROqQBt9q7+qYqnBVaSmQH7uKcBsA6TB
ulexQIs3lT9sv7PBESnHQPexjMAvypjB0aLdQG9HbEApEqHBrSy4QMoPcEAb6abBxunaQIMJakCT
XZXB3YiNQDsnbkBYQJfBBgjfQLQaU0C8kbnBAW20QEznH0C+grnBwJC4QNJxckA6CbPBEZutQOn6
akA+zYTBicnrQKFknMBgu5HBXkkbQVoEgsCG35jB30OQQGwLcUDVyaHBtz2yQCgjaUDJnJDB+XJJ
QFNVcED5y5LB2fb7QCDGaEAhEpDBaaBGQDavqsA4N6HBiQpPQDiCR8BMJ6rBwD1MQCTcar8a56jB
nufuQAwrub/NMavBNjJZQOfYoz88BbLBODL1QDCVPj8oU7TB2SqgQO/6xMAvOZbB5inkQJD6HsAI
Q5zBuVD8QIv/akCqC6XBx2/7QDttOUBLe7XBHwLpQOXvdUBmzMDB+HChQLIsJUBM5MDBhOKnQMPa
lEAZjLbBjXGLQIvmaUBWr4LB4JS9QJG/MkBqU4HBzl28QEzUkkDDooHBE1PrQFaVv8Btj5HBDCPn
QIz1j8DtlInBONYdQJXvc0BoopjBW7I/QIskO0ChhI7Bisz4QGjQZ8DrzonBWNiLQHnEnsDCoqPB
aTaOQFhobcBIwajB8gKIQGwqWb+a4q/BgDDPQCO/EL91LqjBUO2LQFmjzD5J/LTBYAfTQNbTLT8U
Q63BbLGhQLGzpcDc7JnBEBq7QML7N8AxQZrBibOpQCzQq78DdKnBVB2mQFsbKsB/GqTBHn+xQDiI
lT9Ox7PBvw66QKeEhMA+QpXBKMbdQO70bUAhDqHBoVi4QF5ccUDn6KbBkPjaQMF0a0AAWpXBi5uN
QPmfb0CzQ5fBmPTeQCixVECFp7nBim+0QKObIECUibnBfci4QFJWc0AxCrPBnoitQNCGakB+zoTB
B3nQQMLMi8D9kIrBfD4MQbKZQMDtRonBCGOQQI7zcEBjzqHBmVOyQDT1bkASmpDB935JQBwrb0Ap
1JLByfT7QDyYZ0BFDZDBxnlyQL5AuMDPKKfBVIF7QLxMY8AQP7DB315WQNwjt7/C4rDB3ArpQOD3
br/vQqPBVgBkQDK2RT/u27nBZLbvQLQcoj/rMazBf8yfQKeBxMB9CZbBOSzMQBP3A8D/fZbBXHz8
QBknbUAfBKXB15f7QAhPO0DWo7XBFY7oQDvcd0Dc48DB0i2hQK/+JUB738DBbs2nQGQklUD2ibbB
yGmLQHFGbkD/sYLBJN66QEO+LUDK34HB+8a+QAIjkEBEGoHBM1LXQEMlrsCbronBSBq7QPVcgcAm
FITBkN4dQPP2b0BkrpjBUeNBQF5bOkA2aY7BffrlQGHnj8COCYfBx0x6QBQ9l8Bn+p/BcTqAQIWW
XsCrHaXB5a6RQKdBjL9R37LBaDTFQC/Ey74tWKXBvGaVQFPxIj7V47fBGhfKQAp9Uz9mm6rBY4if
QJO8psDo0JnBfWLIQA/ATMCj8Z3BHFWpQKHMsL/eeanBMuGlQMLQLMA9IKTBB2+xQK1ykT/JwbPB
Z2zFQPd7jsD225jBy9zdQFUPdUB8A6HBPHK4QDj2dEAI6KbBQSLbQAvmbkB8WJXBV8GNQEqDb0D/
RJfBleLfQCOqUEDJO7nBesG0QFENH0CMcrnB/1y5QPb5ckCuDrPBBNKtQPDxaECP0YTByVrqQJ+w
nsDJFpLB+5PiQHpFhMDobHzBsH6QQHjacUCr0KHBAXyyQClyb0CimZDBY9pJQJ5ebUBp1JLBoyf8
QIqiaUDbE5DB4KtAQHkPqsB3w6DBKoRLQCAjR8Cg1anBxFp5QKs07L+YNLbBd9nWQBCfF79tFJ7B
Zq6CQEfqvz7X8b7B1ALhQLWvxT9DpKfB6uWcQEBAxcBB0JXBSTjlQIY3J8DkH53BoI78QDyZeUB+
8aTBOHf7QFkoNkBO4rTBlSXrQB0YckC/csDB8qiiQJBmJEBE98DB5sSpQFIglUCA3bbBTayLQKd9
akD8sILBOAC8QLp6LEAWCYLB6la+QF+Fj0Br/YDBY1EEQZ6kksAnapXBVoHqQOPiwcC8NZLBHC8e
QGj8bUB2rZjBfxxDQEEPOEDwe47BdxEEQZ8mtsDlnZjBO6N6QDl7l8CmGqDBCFSAQLvgXsByMqXB
kcGRQHFLjL9157LBUjPFQPL3y77KW6XBgHWVQBhvIz4F6bfBXRXKQG6GUz+knKrBzH+fQLfFpsAP
15nBLTXIQAl5TMAA4Z3BTWCpQLLssL8aganBdeClQLDcLMCnJaTBaHSxQN6HkT+1w7PBh9rEQH/n
jcAvmZjBT+HdQK0RdUCAAaHBd3e4QCL9dEB95qbBnyTbQPLgbkCeVpXBEsSNQMSIb0DiQ5fBqerf
QB24UEAuOrnB+8e0QGMgH0BzcrnBZ2S5QLsGc0A0DbPBa8+tQLnpaEA80ITBjfzpQI9YnsBb75HB
UB8QQZw6ycDE553BB4OQQB3kcUCGz6HBiX2yQChtb0AomJDBSN5JQClobUCg05LBFSn8QA2XaUC7
EZDBu2xBQLOJqsChAKHBqcRLQKJ1R8Bg7anBVJF5QABC7L+4P7bBr8/WQGzBF7/HFp7B7sCCQIFn
wD5q977BcfvgQLm2xT8Qo6fBsh6dQJ+YxcBt+pXBgDflQGBdJ8AnJZ3B2pP8QHWdeUAg76TBTX37
QMcuNkCh4LTBpzDrQL8rckBxcMDBwbGiQKqDJEBn98DBK8+pQDMplUCg27bB/KiLQFp2akBksILB
+/u7QBBxLEC7B4LBmlO+QFaAj0B++4DB8qDdQBCQs8AfoYvB+aH6QEEOg8AsQI7BjjQeQLALbkDZ
rJjBXBtDQGoXOECKe47BsGQEQaMrncAU2p3BDaRiQBMfd8AmA5rBVs5tQJc0KcBNfJ/BXqeHQPSP
2T0LoafBw5zMQHyENb8dEK7BWm+NQNwSpD/nkq3BcDjTQLxOAD83ibPBsiOVQF1ElMA/E5fBfkfE
QDQBPMAlo57BxiWnQCA5aL8y2KfBGJWgQOsmC8AB5aHBGRu0QFwuwj+vErPBu9m+QHj8hcAOjZnB
8PzaQOTSlUAwmaDBkpG5QPSmh0D63KbB2jfVQNxulkD67ZTBqBaPQLUYbkDjupfBnpXmQPZZY0CI
2LfBjTi7QKS5NEBq+rjB3869QModhUBJ8bLBgaynQHsVhUCk84TBj5LlQGVaoMDOHpbBPVMSQQbW
mcAkAaTBwGSTQOgxc0B2MaLBopOvQKjVhEDMpZDBW89RQGkxTEDR25PBwmPxQIqbpUB9P4/BV/0i
QOmJhsBDD5jBK542QH8sBMDh26HBVS1WQEPvybw/4aLB8zvkQA1Pv78BmK7BkxloQALZAEBo8a3B
4yzwQALSJj/QGLjBTrCQQAU7ssCC6pLBYCvkQNTlI8DjDaDBrK34QAc5oEDxLKTBXpz/QC7dSEAl
nrLBxIX1QBS4gEDp3r7BorWsQClzOEBo+8DBKs2wQAq4oEBrVLfBdaSIQHrOa0BIQ4PBM0LBQHV7
ZkCl34DBO0SnQDlMpkAPCoLBOPDbQOoWwsDnaJXB8cnwQDWulMBfTo7BhvUrQClqPEAsAJrBYkBe
QEoJGECzfY/BnDw1QMb/fcDayYbBJF2/QE77m8ARzZ/BNPrEQCdIaMB/26TBAjLVQNfsSb9z4qrB
1rOHQGeoCr8rb6zB/uTaQMQg5T6/CLDBpHqNQMn1MT92l7HBgnCaQA3Vo8AjqJnB1KyAQCmNN8Dr
kJ3BgJKrQDoppr/wD6nBjLGlQJ84J8C3w6PBcgm3QPoJmT82Z7PBdoJ1QI7mg8BfnpjB4rWNQLto
dEDLLKLBYMS1QFfxcEBhwqbBEFaKQCQqckAHeZbBwhLYQN3ZbkAQ3ZXBrr7kQIpZV0Dj2bfBwj28
QC8+IUDjNLnBVhG6QIlMdUCj0LLBCtWuQEa6b0AFmITBwGUmQF4GjMCQ35HBYcZAQEtsacCx33vB
+MfaQEzzb0CcZqDBsDKwQNSfbUA7dJDBZE3+QJb6bkDjJZDBArdNQMbac0AaR5LBZWvXQNaRtMDA
oqDBhkjhQKmnXMDAmKnB6cPwQM9Vrb+lTKjBA4xPQGeTar/RCavBf8j6QH+EUz/zarHB2/NjQOTG
oT/MLLTBfleWQHZXwsDAupXByZFRQDcvBsBRnpzBQsNiQKyweEBEGKfB4uX+QKCMQEBbsrLBQTXy
QJXceUBDvr7BvqKtQHcTJECZNMHBlSiqQECslUD9z7bB8JLPQC56a0AuaIHBegigQN/5lUDZ7oHB
YN2bQK5QOUA1pYHBLOkWQC1arsCWFZLBIPXgP6Qtc8DJJ5XBiHkLQcvvb0CwP5XBB3n/QMtlkUAs
dovB

> <OMEGA_E>
gOlKPoCpTD4K6gE/WmQCP/bPCT94XxA/TGsQPyjiMj/6Qjc/

> <OMEGA_NBR>
     29068

$$$$
50219800
  -OEChem-04172616093D

 49 52  0     1  0  0  0  0  0999 V2000
    5.8437   -4.6042  -19.9608 C   0  0  0  0  0  0  0  0  0  0  0  0
    6.0374   -3.3836  -20.6330 C   0  0  0  0  0  0  0  0  0  0  0  0
    4.3370   -0.0270  -21.0230 C   0  0  0  0  0  0  0  0  0  0  0  0
    6.5342   -0.7076  -21.8416 C   0  0  0  0  0  0  0  0  0  0  0  0
    4.4217    1.1472  -21.7752 C   0  0  0  0  0  0  0  0  0  0  0  0
    6.6241    0.4856  -22.5787 C   0  0  0  0  0  0  0  0  0  0  0  0
    4.8500   -4.7144  -18.9726 C   0  0  0  0  0  0  0  0  0  0  0  0
    4.3004   -2.3601  -19.2612 C   0  0  0  0  0  0  0  0  0  0  0  0
    5.3916   -0.9736  -21.0458 C   0  0  0  0  0  0  0  0  0  0  0  0
    5.2618   -2.2462  -20.2923 C   0  0  0  0  0  0  0  0  0  0  0  0
    5.5740    1.4226  -22.5292 C   0  0  0  0  0  0  0  0  0  0  0  0
    4.0585   -3.5961  -18.6434 C   0  0  0  0  0  0  0  0  0  0  0  0
    6.9260    3.7267  -20.1764 C   0  0  0  0  0  0  0  0  0  0  0  0
    5.7610    3.9033  -20.8924 C   0  0  0  0  0  0  0  0  0  0  0  0
    6.8381    3.4993  -18.7353 C   0  0  0  0  0  0  0  0  0  0  0  0
    4.4267    3.6052  -18.9528 C   0  0  0  0  0  0  0  0  0  0  0  0
    6.9996    3.5304  -23.2355 C   0  0  0  0  0  0  0  0  0  0  0  0
    5.6731    2.7417  -23.2540 C   0  0  2  0  0  0  0  0  0  0  0  0
    5.7879    4.0113  -22.4102 C   0  0  1  0  0  0  0  0  0  0  0  0
    3.4971   -3.8342  -16.2235 C   0  0  0  0  0  0  0  0  0  0  0  0
    5.4359    3.1886  -16.6863 C   0  0  0  0  0  0  0  0  0  0  0  0
    2.9340   -3.7206  -17.6406 C   0  0  0  0  0  0  0  0  0  0  0  0
    4.5128    3.8695  -20.2453 N   0  0  0  0  0  0  0  0  0  0  0  0
    5.5720    3.3871  -18.1496 N   0  0  0  0  0  0  0  0  0  0  0  0
    3.1538    3.5302  -18.3975 N   0  0  0  0  0  0  0  0  0  0  0  0
    7.8703    3.3895  -18.0837 O   0  0  0  0  0  0  0  0  0  0  0  0
    6.4591   -5.4576  -20.2042 H   0  0  0  0  0  0  0  0  0  0  0  0
    6.7810   -3.3123  -21.4130 H   0  0  0  0  0  0  0  0  0  0  0  0
    3.4613   -0.2148  -20.4195 H   0  0  0  0  0  0  0  0  0  0  0  0
    7.3399   -1.4257  -21.8817 H   0  0  0  0  0  0  0  0  0  0  0  0
    3.5979    1.8457  -21.7768 H   0  0  0  0  0  0  0  0  0  0  0  0
    7.4974    0.6838  -23.1823 H   0  0  0  0  0  0  0  0  0  0  0  0
    4.6934   -5.6553  -18.4661 H   0  0  0  0  0  0  0  0  0  0  0  0
    3.7474   -1.4874  -18.9466 H   0  0  0  0  0  0  0  0  0  0  0  0
    7.8855    3.7558  -20.6712 H   0  0  0  0  0  0  0  0  0  0  0  0
    7.8822    3.1136  -22.7283 H   0  0  0  0  0  0  0  0  0  0  0  0
    7.3195    4.0929  -24.1251 H   0  0  0  0  0  0  0  0  0  0  0  0
    5.0810    2.8331  -24.1765 H   0  0  0  0  0  0  0  0  0  0  0  0
    5.2711    4.8901  -22.8232 H   0  0  0  0  0  0  0  0  0  0  0  0
    2.6687   -3.9239  -15.5054 H   0  0  0  0  0  0  0  0  0  0  0  0
    4.1399   -4.7242  -16.1548 H   0  0  0  0  0  0  0  0  0  0  0  0
    4.0882   -2.9361  -15.9909 H   0  0  0  0  0  0  0  0  0  0  0  0
    4.3700    3.1245  -16.4221 H   0  0  0  0  0  0  0  0  0  0  0  0
    5.9426    2.2570  -16.3941 H   0  0  0  0  0  0  0  0  0  0  0  0
    5.8944    4.0369  -16.1571 H   0  0  0  0  0  0  0  0  0  0  0  0
    2.2902   -2.8310  -17.7051 H   0  0  0  0  0  0  0  0  0  0  0  0
    2.3419   -4.6190  -17.8690 H   0  0  0  0  0  0  0  0  0  0  0  0
    2.4696    3.6983  -19.1072 H   0  0  0  0  0  0  0  0  0  0  0  0
    3.0132    2.6200  -18.0080 H   0  0  0  0  0  0  0  0  0  0  0  0
  1  2  1  0  0  0  0
  1  7  2  0  0  0  0
  2 10  2  0  0  0  0
  3  5  2  0  0  0  0
  3  9  1  0  0  0  0
  4  6  1  0  0  0  0
  4  9  2  0  0  0  0
  5 11  1  0  0  0  0
  6 11  2  0  0  0  0
  7 12  1  0  0  0  0
  8 10  1  0  0  0  0
  8 12  2  0  0  0  0
  9 10  1  0  0  0  0
 11 18  1  0  0  0  0
 12 22  1  0  0  0  0
 13 14  2  0  0  0  0
 13 15  1  0  0  0  0
 14 19  1  0  0  0  0
 14 23  1  0  0  0  0
 15 24  1  0  0  0  0
 15 26  2  0  0  0  0
 16 23  2  0  0  0  0
 16 24  1  0  0  0  0
 16 25  1  0  0  0  0
 17 18  1  0  0  0  0
 17 19  1  0  0  0  0
 18 19  1  0  0  0  0
 20 22  1  0  0  0  0
 21 24  1  0  0  0  0
  1 27  1  0  0  0  0
  2 28  1  0  0  0  0
  3 29  1  0  0  0  0
  4 30  1  0  0  0  0
  5 31  1  0  0  0  0
  6 32  1  0  0  0  0
  7 33  1  0  0  0  0
  8 34  1  0  0  0  0
 13 35  1  0  0  0  0
 17 36  1  0  0  0  0
 17 37  1  0  0  0  0
 18 38  1  0  0  0  0
 19 39  1  0  0  0  0
 20 40  1  0  0  0  0
 20 41  1  0  0  0  0
 20 42  1  0  0  0  0
 21 43  1  0  0  0  0
 21 44  1  0  0  0  0
 21 45  1  0  0  0  0
 22 46  1  0  0  0  0
 22 47  1  0  0  0  0
 25 48  1  0  0  0  0
 25 49  1  0  0  0  0
M  END
> <OMEGA_C>
Pf+6QItVk8Cir5/BVDLBQNaMWMB0EKXBqMiKQIDk3LwQL6jBMxjRQAYlNb+Pu67BQn6NQAbYkj+b
M67BWPjTQESl+D4XobTB/DKbQGrclsDJx5fB/5yJQBwMF8ADF5rBF4isQIw9eb/IXajBfmCoQLjB
D8CPVqLB+12yQCAXtj/YO7TB8d6BQPYmZsDIJZXBj6HdQEKCbkA6aaHB61m4QDjQeUCKI6fB2NHa
QFn1X0Dw4ZXBTqeNQA+7ZkBNn5fB3vzfQLTxYUBj4rnBB4q1QFN4L0A4CLrBaza5QHxcgEAHSLPB
GNBfQMpidcDLyYHBmPKtQLIRTECVfYXBysY7QJwdbsAHII3Bh2iQQEOmd0BZ9qHB5U2yQCzGWEBx
MpHBSddJQIPvYUAkLpPBU9n7QC7tWEBVq5DBVLHOQKSkrsA7oqHByP3YQHD9U8DmTavBP4VdQFTy
W74bW6PBbODqQPF8tr+iDa/BzkRmQElA7D/6Nq7BEOvvQNELLz9LdbnBKzCWQIf4tMCCupPBpdVv
QMFjvr+kkpfBHFb8QAtfcECZXqXBQjv8QDBFR0CU07XBHjnqQNX4gkAsAMHBXpeiQBpRNUCLacHB
Nq2oQPh7nEDwlbbBD8wqQLEhe8AKFnjBx3mEQEAsl8D7PIHBKtKCQAbpO8C22n/BDteLQH74R0Bc
YIPBfSm+QIhyEEAbJ4PBxp68QIYugUDCQYHBapISQNouNcAHpI3BpOEVQCnPk8Cn847Btg0eQGmw
bECZ25jBK9hAQHWuJ0BfEJDBZi26QOBZk8DCuJ/BG4jAQNyzWMDRHaXBGwTRQIPMNL/Lta7BNXSK
QCAz6rzmUKjBcg/UQCy++T4AmbTBjF+NQJLskj9STq7BSpyaQKablsCOv5fBX36JQNlOFsB0DZrB
jz+sQJEzeb8rbKjBcf6nQPWaD8CHXqLBI3eyQO57tj8rQLTBHMuBQAAZZcD0BJXB8bvdQIuib0BE
X6HB0G24QEoAekCgHafBf/HaQOPhYECk2ZXBKL+NQClOZkCLnJfBwk7gQBY/YkBozrnB+NS1QB/Q
L0C+BbrBY2W5QNF7gECAQLPBiu9fQGr2fcBOwYHBex2uQDDXTECudYXBHO87QCxRbMAu7IzBDHeQ
QK/udkCE9aHBMHGyQJIyWUC5K5HBHwhKQLdQYUCtK5PBePz7QB42WkB7opDBf5PNQMTTrsBPtaHB
HTrYQOB7VMBCYqvBZdPqQMs7tr+o+q7BbXRcQKtkYL7IkaPB6SHwQI2JLz/LYbnBWQRmQHtM7D9N
Xa7BTmCVQKC4tMA1t5PBy+ZvQHtxvL+/jJfB7XP8QDZeckDxUKXBIXT8QKp8R0AFt7XB47XqQCgq
g0Ce5sDBdw6jQF3PNUCgbcHBnvKoQNaknEBWkLbBOfkqQLJ+gcC8+3fB+xKCQCsqncAE24HBREyF
QMZBScADx37BfgWMQEtASEDqWIPBYpK+QAeTEUAyFoPBmo28QILDgUAuQYHB9qEXQHMCMMCnxozB
ZS8RQIKKkMApPo/BuDceQP63a0Dr2pjBE0NBQNIeJ0DtBpDBO955QC6bjsCSn5vBEmF/QLAPTcAQ
tqDB3RGMQEs2vb7xZafBJqDMQKsPjr9nrrDBjJuOQMk0Xj/irazBDojPQIVvDj60ybXBniyiQFPk
psDZ0ZnBYTPNQNmdXcBMG6LB5gGrQFrhr78yX6nBFuqnQFphLMC8/KPBlNywQG+qkT/WsrPBeVrK
QBxFl8BPLZ3BWp7dQK/Wa0ACDqHBDjW4QAuwcEDA5KbBXdfaQKejaUB1WZXBT4CNQFjvbkBkPJfB
wujeQOqmTkB9c7nBE76zQDQ4HkBMZLnBS5y4QKZAcUDAB7PBVikDQa2JpMCdNJDBi3ytQAbaaUAE
y4TBV7HyQIf2sMAZD5vBNFGQQGUtc0CVwqHBLieyQP2vaEA3mpDBGVJJQGbicED/y5LByd77QFwE
aECoDJDBUWM8QI+/msArGZnBK/xFQLo/KMCUIKLB7c1kQAc5Dr+ozqHByynkQLa/77+lVrLBk3Vs
QNbIzj+uW6vBfVPpQNWrqj75UrvB+v2fQPWHxcAo3JXB4RLsQDD2RMAHeKTBR0v8QI+1aUCIBqXB
lMj6QFPDM0AQQrXBrqLpQKT/b0D8uMDBHwihQGSMI0DW0MDB4eCoQMaGlEARrrbBCL0RQZN2t8C5
0I7B4jYHQcJIgsA4P5DBURfvQD75qsAKy4nBFlGLQBXXaEDwroLBS1+9QMdSMUDpXYHBN1K8QLAg
kkDgkYHBxbrqQM0/08C0/JrBnQgFQVKPqsDhcKHBDNEdQNFvdUABo5jB+EU/QDwvO0A0oY7B1iu4
QFvwk8Bzt5/BD9i/QMdsWsBDIKXBRr7SQGmNQb8Y4q7BBoSMQOC+v7yRrKjB6ybXQLME4T7ms7TB
85qQQG7ckj9rsa7BHF+YQCQklsDhx5fBqZWJQEpxFMDRKZrBAamtQG8/fb/anqjB70moQCvfD8DJ
dqLBHYy2QOhttD9cWrTBVYuAQP26YsB3IpXB4fyNQG+KekAEaqLBgR62QPbfeECTAKfBpxCKQCMX
aUBt7ZbBgYXXQHOyYkAiQpbBWyTlQI8/YkBsNrjBQge8QAd9L0DA4LnBbry6QIvUgEBoDbPBHj9g
QIGWasC9ooHBtvOtQOd2TUDrTYXB0k86QI2SZ8AJ6YzBCsraQGvvb0AypqDBG42vQHNSW0BEB5HB
x1b9QFG7W0AEf5DBdtpMQIpmZEAR3ZLBSb7KQDoGsMD+qaHBNNDXQG7AV8BhV6vBfL7rQPsYwL+d
L6/B/8FfQIpwRb7tB6TBuobzQNz2HD+Kb7nBkftsQOVH7T8V/67BTzaSQPgBtMAft5PBBetxQNxr
tr+qrJfBWQlkQBg1hEAEL6fBWcn+QMMfSEBJJbPBGVPzQHT8gkBY6r7BanytQLrpNEDz3MHB7sCr
QHsAnUCtxLbBnzMsQF0ZbsC4c3fBYLuEQOuokcBp24DB8zCDQFSDMMAeN4DBRJfOQNL2Q0ABO4LB
n4ufQNLYgkBDbIHBW4WaQH5zFECijoPBfAsRQCvaLsATqY3BVyAUQFfUkMBeTY7BNCELQQZDYkCo
cpXBlGD+QCzIhEAe64rBTwRpQI5xg8C2Fp7Bnth0QALfOMDOhaPB9reDQLWYZ71E4KrBV+bQQG5Y
3b4sYarBRGmKQBMgkj+ciLDBVoXXQIriRD9a9K/BHBmUQP6LksABAJfB6Ma/QIxIJ8CwyJrBE/im
QP5rW7+kxKfBPjmgQPZ1CMBx8aHBM1a0QDVgyD9sA7PBoJy5QI3XdMD9PJXBQ+HZQGUil0CN3KDB
I8C4QPm9h0DfDafBGqTUQICFl0A8MJXBfx+PQCmXbEA52ZfBHYXlQPMwaUDpOLjBruC6QAkeN0CN
JLnBG4K8QHFAhkBEH7PBauj8QMUhpsBk7ZPBh6enQCNDhkAkH4XBVxzcQC/wisAXwI3B1GKTQB9U
b0CjV6LB2FSvQLaJhUD01JDBY45SQC08SkAg2ZPBAdDwQFUgp0BOk4/BnF4vQF3SlcADXJ/BoA1E
QAPRIcDc66jBpydHQLXVu75h5ajBtgDsQBm3hL8JEajBbrdeQLKn3j9A/bLBnKT3QDXGij/H57HB
QZyPQAulsMCN55LB1s3cQAoQA8A4kJnBMgL3QJ+jokDRg6TBlXn/QJKkUECQIbPBbkXzQIxFhEDb
T7/Bh6qrQFC+OUBlEsHBLwSuQB9woUAFYbfB380KQVnLscB8YI7BeZfsQDSPwcDdo5fBWPsFQf16
ksDoLprBJuWIQApjbUBBWIPBrJfBQIYMakA9BYHBwsqmQJacp0BsUILB5JXsQBA6X8C3CIrBrjbN
QD+xnsCsfYfB3wEtQH9IOEDv7JnBEvdfQPRkF0B9SY/BIdtoQOc6g8BC/Z3Bzs50QPulOMADd6PB
BryDQFf2Yb392qrBe+vQQBA+3L5UYKrBOmaKQK06kj/ohbDBKYPXQCpRRT829a/BGj+UQP+MksCp
/pbBcxHAQParJ8Bn3ZrBpgCnQF71Wr8+wKfBi1CgQDB1CMA18aHBDlC0QE2AyD+kA7PBOmG6QPs3
dsBsgpXBF9DZQBM3l0AJ4aDBi7C4QKLMh0D7EafB4ZHUQKSgl0C5NJXBxxCPQLS7bEDh3JfBrHbl
QNpBaUCePLjBXNS6QBclN0DZJrnBnXK8QGVIhkBdI7PBwcjUQLSAccCIh4LB9JanQBVihkAMI4XB
YGPcQLMEi8CMzY3BzlSTQABvb0BQW6LB50OvQKmjhUD12JDBQ3RSQM5ZSkCE3JPBV7zwQGBAp0Ae
mI/BRcIuQOxclcDlJ5/B8fBDQJaUIcAr2qjBlTRHQIQVu75w3ajBqQnsQOVjhL9WEajBbKpeQKGw
3j9Q+rLBIaD3QCYEiz936rHBvHWPQIxKsMB0wpLBBOPcQMP5AsBvj5nBhPD2QD+4okCRiKTBBm3/
QGrBUED5JLPBgDTzQItKhEBXVL/BypyrQJO2OUCZFMHBbvGtQM9zoUAgZrfBpLTtQP2ehMBKI3rB
gQjWQIcwK8DB1YLB5Sq1QNj4gsAGQH/B6dWIQKWdbUCdW4PBq4jBQI5SakCyCIHBmbemQM68p0BT
VYLBDzTbQKIrrsDKc43BqxH8QA7LgMCIqZDBz+ssQMZaOEAx8JnB9uJfQAaJF0AJTI/B

> <OMEGA_E>
0JwkPtC5JD5kz+U+XNsHP9gSPj8EKz4/

> <OMEGA_NBR>
     34379

$$$$
50219793
  -OEChem-04172616093D

 50 53  0     1  0  0  0  0  0999 V2000
    5.9549   -4.5302  -19.8937 C   0  0  0  0  0  0  0  0  0  0  0  0
    6.1390   -3.3113  -20.5721 C   0  0  0  0  0  0  0  0  0  0  0  0
    6.5458   -0.6683  -21.8456 C   0  0  0  0  0  0  0  0  0  0  0  0
    4.3281   -0.0162  -21.0535 C   0  0  0  0  0  0  0  0  0  0  0  0
    6.6094    0.5022  -22.6108 C   0  0  0  0  0  0  0  0  0  0  0  0
    4.3886    1.1386  -21.8330 C   0  0  0  0  0  0  0  0  0  0  0  0
    4.9187   -4.6600  -18.9553 C   0  0  0  0  0  0  0  0  0  0  0  0
    4.3058   -2.3311  -19.3076 C   0  0  0  0  0  0  0  0  0  0  0  0
    5.4074   -0.9381  -21.0514 C   0  0  0  0  0  0  0  0  0  0  0  0
    5.3074   -2.1972  -20.2854 C   0  0  0  0  0  0  0  0  0  0  0  0
    5.5398    1.4146  -22.5864 C   0  0  0  0  0  0  0  0  0  0  0  0
    4.0833   -3.5571  -18.6888 C   0  0  0  0  0  0  0  0  0  0  0  0
    6.9192    3.6278  -20.1765 C   0  0  0  0  0  0  0  0  0  0  0  0
    5.7587    3.8320  -20.8930 C   0  0  0  0  0  0  0  0  0  0  0  0
    6.8282    3.4399  -18.7295 C   0  0  0  0  0  0  0  0  0  0  0  0
    4.4195    3.6058  -18.9466 C   0  0  0  0  0  0  0  0  0  0  0  0
    6.9910    3.4998  -23.2482 C   0  0  0  0  0  0  0  0  0  0  0  0
    5.6498    2.7363  -23.2875 C   0  0  2  0  0  0  0  0  0  0  0  0
    5.7882    3.9766  -22.4091 C   0  0  1  0  0  0  0  0  0  0  0  0
    2.3424   -3.3686  -15.6332 C   0  0  0  0  0  0  0  0  0  0  0  0
    5.4259    3.2769  -16.6643 C   0  0  0  0  0  0  0  0  0  0  0  0
    3.2518   -4.1466  -16.5742 C   0  0  0  0  0  0  0  0  0  0  0  0
    4.5099    3.8287  -20.2464 N   0  0  0  0  0  0  0  0  0  0  0  0
    5.5613    3.3937  -18.1363 N   0  0  0  0  0  0  0  0  0  0  0  0
    3.1453    3.5794  -18.3897 N   0  0  0  0  0  0  0  0  0  0  0  0
    7.8590    3.3354  -18.0745 O   0  0  0  0  0  0  0  0  0  0  0  0
    2.9886   -3.6535  -17.8860 O   0  0  0  0  0  0  0  0  0  0  0  0
    6.6099   -5.3650  -20.0947 H   0  0  0  0  0  0  0  0  0  0  0  0
    6.9177   -3.2228  -21.3153 H   0  0  0  0  0  0  0  0  0  0  0  0
    7.3687   -1.3675  -21.8619 H   0  0  0  0  0  0  0  0  0  0  0  0
    3.4552   -0.2102  -20.4479 H   0  0  0  0  0  0  0  0  0  0  0  0
    7.4788    0.7041  -23.2189 H   0  0  0  0  0  0  0  0  0  0  0  0
    3.5506    1.8195  -21.8568 H   0  0  0  0  0  0  0  0  0  0  0  0
    4.7632   -5.5974  -18.4419 H   0  0  0  0  0  0  0  0  0  0  0  0
    3.7049   -1.4761  -19.0350 H   0  0  0  0  0  0  0  0  0  0  0  0
    7.8771    3.6070  -20.6749 H   0  0  0  0  0  0  0  0  0  0  0  0
    7.8663    3.0529  -22.7540 H   0  0  0  0  0  0  0  0  0  0  0  0
    7.3205    4.0821  -24.1213 H   0  0  0  0  0  0  0  0  0  0  0  0
    5.0570    2.8573  -24.2061 H   0  0  0  0  0  0  0  0  0  0  0  0
    5.2877    4.8758  -22.7978 H   0  0  0  0  0  0  0  0  0  0  0  0
    2.5043   -3.7101  -14.6002 H   0  0  0  0  0  0  0  0  0  0  0  0
    2.5728   -2.2954  -15.7048 H   0  0  0  0  0  0  0  0  0  0  0  0
    1.2926   -3.5378  -15.9149 H   0  0  0  0  0  0  0  0  0  0  0  0
    4.3598    3.2562  -16.3941 H   0  0  0  0  0  0  0  0  0  0  0  0
    5.9082    2.3486  -16.3243 H   0  0  0  0  0  0  0  0  0  0  0  0
    5.9095    4.1393  -16.1821 H   0  0  0  0  0  0  0  0  0  0  0  0
    4.3063   -3.9794  -16.3091 H   0  0  0  0  0  0  0  0  0  0  0  0
    3.0260   -5.2218  -16.5193 H   0  0  0  0  0  0  0  0  0  0  0  0
    2.4652    3.7427  -19.1043 H   0  0  0  0  0  0  0  0  0  0  0  0
    2.9824    2.6851  -17.9727 H   0  0  0  0  0  0  0  0  0  0  0  0
  1  2  1  0  0  0  0
  1  7  2  0  0  0  0
  2 10  2  0  0  0  0
  3  5  2  0  0  0  0
  3  9  1  0  0  0  0
  4  6  1  0  0  0  0
  4  9  2  0  0  0  0
  5 11  1  0  0  0  0
  6 11  2  0  0  0  0
  7 12  1  0  0  0  0
  8 10  1  0  0  0  0
  8 12  2  0  0  0  0
  9 10  1  0  0  0  0
 11 18  1  0  0  0  0
 12 27  1  0  0  0  0
 13 14  2  0  0  0  0
 13 15  1  0  0  0  0
 14 19  1  0  0  0  0
 14 23  1  0  0  0  0
 15 24  1  0  0  0  0
 15 26  2  0  0  0  0
 16 23  2  0  0  0  0
 16 24  1  0  0  0  0
 16 25  1  0  0  0  0
 17 18  1  0  0  0  0
 17 19  1  0  0  0  0
 18 19  1  0  0  0  0
 20 22  1  0  0  0  0
 21 24  1  0  0  0  0
 22 27  1  0  0  0  0
  1 28  1  0  0  0  0
  2 29  1  0  0  0  0
  3 30  1  0  0  0  0
  4 31  1  0  0  0  0
  5 32  1  0  0  0  0
  6 33  1  0  0  0  0
  7 34  1  0  0  0  0
  8 35  1  0  0  0  0
 13 36  1  0  0  0  0
 17 37  1  0  0  0  0
 17 38  1  0  0  0  0
 18 39  1  0  0  0  0
 19 40  1  0  0  0  0
 20 41  1  0  0  0  0
 20 42  1  0  0  0  0
 20 43  1  0  0  0  0
 21 44  1  0  0  0  0
 21 45  1  0  0  0  0
 21 46  1  0  0  0  0
 22 47  1  0  0  0  0
 22 48  1  0  0  0  0
 25 49  1  0  0  0  0
 25 50  1  0  0  0  0
M  END
> <OMEGA_C>
jI6+QDP3kMBjJp/B3nLEQCbsU8Cdk6TB5HbRQHAYK7/Nw67B+n+KQIAchbyBbajBkoDTQHyOAD/X
4rTBIG+MQEm+kT8Hqq7B7mWdQOgelcBkpJfB4siJQIwwFcDldZrBTAmtQDgqcL9SaajBntapQHie
DMCJSKLB4kWxQPsQtT/osLTBqKqCQACoY8CigpXBSmrdQIAtaEByaaHBoEe4QK8+dUDNJKfB8IDa
QNInXEDw1ZXB7WyNQF7FZkCukpfBfLbfQIT8X0BD/LnB9Mq0QH8fL0C+TLrBtji5QLSAfkDsRbPB
hOkVQPiWV8CqIXrBxqCtQA65UUBpUIXBOh5QQAqxhMDfl4TBb1GQQNcIdUCT+KHB7PWxQPoyWUA+
F5HBfUxJQBUUZUAFHpPBiHz7QIZ2VUCbmJDB5UQ/QCzSacBzFo/BnYTTQA2uq8AIwqDBal3dQPpC
TsCjharBiMzrQJYLr7835a7BQCFdQKRAV75PlaPBbFLvQNNCND9FwLnBsTxjQL3l6D/H2q7BiGyY
QCwes8AciZPBqBxtQJ3wvL+hR5jBdRH8QKvZZkAiZqXBoLj7QPNiQ0AqCLbBjEHqQIGggkBy+MDB
mdKhQGPeNkAkpsHBBjWpQE0GnEDkYbbBJ0YgQApzbcBsmmnBX6kkQJznEsDaRnvBM3SlP+BqYsCP
o37BSYOLQApmUEAPJ4PBRhC9QHpPFkA8mILB0xq9QMZ0hED7dIHB8cyJQHeufsAeeYLBnapBQN0Y
p8B5J4TBQcUdQC2Ib0Cn1ZjBId8+QD/ZK0AkyI/Bk960QGyOlcA7KKHBFnK3QPx4X8CUPqfBJE3O
QABKRb/agq/Bfw2JQDC+aL0daqjBhCTSQASo5T4A+7TBhXGMQAtJkj99Hq7Bbb+iQM+GlMDb2pbB
LEqTQA4wEcCEAJnBmtCpQANtg7+yK6nB/zmmQK4/EsD1MaPBbl+xQHejtD9uNrTBU8iSQDCAW8CH
uZLBWe/dQApVbEDiKaHBUvW4QATDeEBj+abBII7aQDgRXkDro5XBroONQDahZ0D5kZfB+8bgQEIe
X0BCnrnBUY21QDA0L0AT3rnBW0S6QPLqf0AkFrPBYL4BQBBqi8D2d4fB1t6sQGI7TUAIVoXBRnE0
QJRtQ8DTf4bBv9GQQPfhd0AX6aHBCMuxQBvQWEAQC5HBqB9JQLzSZEBUO5PBB1D7QHCFVUAUW5DB
U8aGQPISVsBsMojBX8jAQGlPs8C6Y6TBFZTGQJJmYMDjAq/B2UHnQGi6wb+KJrDB69haQJ8Xd74+
cKPBoy3uQBwWJj+jxbnB6HFlQBGE7j882a3ByxWhQP9mscA5IJLBvRWFQMzkrb/f/pXBwsv8QBQf
bUAoDaXBMnv8QBqrQkA6hLXBbcXrQFlYgUCGssDB0vWiQCptNkD+SMHB9bCqQO6cnECxZbbBX0t1
PynjhMDqMIbBRhYLQJgJmcCSf4/BoGAYQKlQosD/aYHBlqaKQEicSkDJTIPBTmu8QLExEUCA4oLB
X+a7QPOlgUCBIoHBSiMeQCB7FcBEjozBpG0rQEMJKMBh8XzB4AweQGQ4cECE+ZjBD50+QMjwKkDe
FJDBfFq3QEs1ksDvNaDBfuq5QGyKWsDqoabBuy2JQIBTYLz/0qjBneHOQOeYOL9htK/B53aMQHzB
lj9+mK7BOoTSQJTv+j5nSbXB4JqjQOQUkMD2GJbBhr6SQNz9CcCQG5nB+1iqQKvseL/DX6nBnTOn
QK0YDcAKGKPBL4axQFIuuT+bnLTBMQKSQN4YUsDLiZLBnqTdQP/HaEBON6HBdtC4QJHcd0Dx/KbB
oTDaQGM9WUAquZXBP0SNQEyTZkCplpfBv+PgQNrlYUDWtbnBEcS1QKLkMUAdHLrBD0m6QF+xgED2
F7PBbfkYQPCSl8DZMITB65KsQBVrS0AVXYXBuBsrQKKDUsB0WofBaqiQQKegd0BZ6aHBa3OxQD4u
VkBFFpHBKKFIQGdvZEBuPZPBWeT6QNZETkDwfJDBaPmCQCZ9SMDNWIjBWYHEQJ4asMAQCaPBnyfK
QFX/XMDMQK7BFJ5aQBNcT76B8aPBafznQDrour+BP7DBaR9lQFQ88j+tcK7Bj4fuQL9lMD8HF7rB
UfKhQLs0rMDnF5HBX4SDQKoZn79hgJbBJnr8QFt2aEBAHqXBoZr8QAjVREBerrXBR+HrQLhkg0AG
r8DBqiujQME1OkBMgsHBrqiqQG6bnUCBPrbBaganP0lHnMDEX4PBve0xQGMsrcBaZorBK3A4QJel
nsAdCnnBbF2KQMmLSkAES4PBTG+7QKHFDkBA4YLBsVC8QLd5gEAeOIHBWQQMQHgHRMDICY/BxoYS
QOD5JsB+KIHBSqYdQLrdcEDT9ZjBsGo9QK9sKkBOKpDBdAJ4QMZRjcCNn5vBi4B+QOKrS8C65qDB
80OMQI9our6JeafBpM7MQHSkjb+OwrDBAdKOQIWNXz/pu6zBGcLPQHSjEz5x17XBFPCgQF1mpcDT
epnB17XMQFHHXcA9IqLBbxirQH5zr79/fKnBRK6nQKIWLMANIqTBUxCxQH9Kkj91v7PBj8XJQOFn
lsB4wpzBAJvdQIMGbEDLDaHBbC64QE/EcECJ46bBQNvaQBy7aUBQWZXBPYKNQFe5bkAzOZfBRvbe
QCQ7T0DIc7nBXOCzQNGTHkBea7nB95a4QBWCcUBQB7PBgi7jQCso+MDm6ZXBroutQPmzaUAOyYTB
VNvvQFz9ysD8FpLBykuQQCYPc0COv6HBny6yQCmWaECBmJDBXFpJQEh4cEDvxpLBg+b7QBk5aEDe
DZDB1p7vQKZ5rMBF3JrBig86QMM1mcBmNJnBh3tFQKvGJsDdgaLBPlBlQMeiDL+L3aHBNFvkQDJR
77/3aLLBSu9sQM+Fzz8KZ6vBTJnpQFYarj5WXLvB4UaeQDyLw8B8TpXBXpLrQAnURsBZwqTBmUb8
QAUMakBEB6XBItv6QPhnNEDPQrXB8avpQDbIcEDotcDBQy+hQEHzI0CL2MDB8cuoQJWllEBSqrbB
HLHjQIcwB8EYF4/B1svCQOg498CRWpnB6wL6QBGMAcE+B5zB+WGLQMGIaECJq4LB5oC9QOs8MUAl
XYHB2lK8QC4VkkADkIHBqvnYQAVhwMCK84vBYBgIQT9AzMA3oI7Bzc4dQCX6dEDcnJjBh3A/QJa3
OkCVnY7Ba615QMrPjsCotJvBR6d+QBpaTcCew6DBoLCLQHxSvL62ZqfBYCDMQA5Ujr8GubDBB1aO
QBC5Xj/Xq6zBnyvPQKCDDD4mzrXBDlGiQF6MpsASwpnB9OjMQEItXMCo/KHB9IGqQEHWr79NZ6nB
PnWnQO0dLMBm/aPBHJmwQCakkT9RsrPB8pzKQMIulsAswpzB/o3dQMzba0AbEqHBwCG4QGamcEDB
56bB9szaQBfRaUBpXZXBdnSNQJcIb0AgPpfB98beQGdcTkDKdbnBpo6zQOAgHkAdZbnBZIS4QC4m
cUCDCrPBQdkaQex2scCxdpLB7nutQM9QakCPzYTBYjwLQQKolsCUHZnBKECQQOAoc0COxKHBFR+y
QEjpaEDMnJDBlT1JQDD/cECzzJLBM9f7QEJSaECNEZDBK7HuQMEirsC0XJrBmj48QJxum8APUJnB
lwdFQI7uKMBiMaLB/RVkQH5pDb8kzaHBsIzjQNlb8L/3ZrLB9xJsQHdSzz+hVqvBvfzoQB9CqT5E
VrvBtDGgQKR7xcBK8ZXBzpzrQKtyQ8AGeaTBszj8QOaoaUCMC6XBy5/6QIteM0AZRLXBQInpQHmg
b0D+u8DBatmgQMZ/I0Cl0cDBgdioQJaAlECisbbBf/YpQXXbn8CnfJHBCNUTQcLXt8BijYrBsfYd
QUv2z8CRkpbB6VGLQN9NaUAHsILBimW9QCPhMUBhXIHB2E68QBpnkkDjmYHBzxYIQU9QcMB6A5XB
eTgSQbBGkMCpCKHB/7YdQMN2dUBUo5jBKTs/QPJWO0BYn47B+B54QEHrjMDzM5vBSTl8QCL2ScAf
Y6DB9HqHQDr7V7+Tp6/B26rOQBxyDr9k9qfBq4mLQNuCyz7P2rTBxKbSQLFELj/2I63BAZ6hQKIH
pcCQkJnBFBzLQAatW8DpjaLBTzepQG/pqr/APKnBUOalQJf+KcAc+6PBpTOxQOLslD9qtrPBSnbJ
QOjjlcBWS53BeMndQD0kbkAXHaHBiFC4QJ1UcUDI86bB8hLbQDLXa0B9aJXBqLGNQCu8b0ANSZfB
fcbeQFHsU0ABs7nBEDa0QJ/+H0BiibnBOau4QMrtckDFFbPBzqcYQUKmhsC//Z3BdMitQNQna0Aa
14TB6RYJQddIqMDtnqLBemSQQIHfcEBL1KHBBHeyQA5Vb0DJo5DB3LtJQAg1b0C21JLB0Bn8QBUm
aEBhH5DB7XPtQPo9r8Bvo5vBgEA7QAQfmcAWeZjBMZNCQNQeJcArnqHBOAtVQFgCtr+6kbDB71/o
QP/var+e9qLB/0tjQExURD+TwbnBwl7vQLA9oj+VG6zBuuKfQGlQw8CtbJXBfF7pQCM3RMBPhqXB
VXj8QLBbbUCmFqXB1mr7QP+TOkDYrrXBmFvoQBrPdkAr9cDBAOigQCwqJUDh3cDBLranQA7plEDR
mrbBsjomQYBlgsCwfaPBxzwQQQL5T8DuAp3BW5UeQWKbkcDbK5bB362LQOPZbkD1tYLBZjC7QJR6
LkDS5IHBOgW/QNOEkEBMKoHB81cDQcwdncC+dKrBhrARQa28xsCqnaPBVAUeQGDPb0B0rJjBYkpC
QAJ3OkBYZY7BM8R9QAdKlsAlDqDBcHmBQHtuXMBgJ6XB8TKFQPiHC7+7TqvBGY3SQHy4Wb8jp6zB
r++IQHzhMj90fLDBdjXWQOjcxz4Q0bHBsEOhQIkypcBly5nBQX3IQAL8RsDngZ3BngeqQB5Bqr+F
V6nBp3SmQIIgKcDG7aPBuGuxQEwqlj8Mu7PBXonGQLU0jMDVlpjB8bbdQETQbECQEqHBNkW4QBS1
cEAe66bBxvfaQPYXa0CwXZXBHJuNQK2xb0AJQ5fBcivfQHNsU0DukLnBeIy0QNFMIECpgbnB1rG4
QH7pckCaC7PB9poPQfUQncCV1qDBNZutQK8Ja0Auz4TBJJ0JQSd5j8CfU5XBiFaQQJnTcEDczaHB
AVqyQBUIb0Cvm5DByIdJQLpub0Az0ZLB7/r7QK2YZ0B5EpDBveDnQLaGnMDse5LBUPNEQH6lqcAB
8qDBWlpOQHUMRsD2AqrBoj5MQE7HZr9s06jBU9buQDvIuL/DMavBtWVZQFR1pT+1+7HBuT31QKY5
Pz/HVLTBvxKfQHT0w8CR5JXBfFnkQPArH8AqVpzBiWX8QCASa0AIC6XBOo37QBi/OUDjd7XB9C7p
QFsndkDBzMDBr5ahQGqEJUBf5MDBeQyoQFQUlUA2krbByAUgQROaksCOoaLBj5gOQfQYwMAQiaHB
hXQEQQctjsAGiqbBjYCLQGkWb0CxsILBLdq6QEhELkAb2YHB+/S+QNdlkECgI4HBLewUQSBcnsAm
tI/BIsgKQWbgWMActZTB2twdQBIwcEA6qpjBCuFBQMW1OkBOYo7BjN18QJ9hlsApJqDBt4CBQK5w
XMDJKqXB6IyFQP1sDr99QqvBOenSQL9FW79rnqzB4x6JQMTULz8oc7DB+2bWQJLbxD7gzLHBm6ag
QB77pcCi9pnBQhDJQI7LScAwsZ3BYXWqQMSVq7+kT6nBt9+mQE4qKsD896PBnYaxQOf0lD8HuLPB
8XnGQG1ejcCBzJjBBZ/dQM57bECeF6HB4yG4QJgacEAv7KbBIfPaQGBNakDwYpXBg4+NQIY3bkAR
QJfBpPreQLQkU0CplbnBAne0QMauH0CVgbnBqXq4QHhYckC7DLPB/loPQW+w0sBx+I/BNMCtQEw9
a0DyzoTBJI7vQE49ycAhXpLBsz6QQC4KcUDryaHBiU2yQGJNaUD+npDBq4hJQEZXcEBGyZLBZQb8
QFwoaUDbGZDBWp7pQAtam8CIB5PBfXZDQJtLqcDwC6HB4HVOQNEDRcDI9KnBmAxNQDIFar88wKjB
WUbvQAEIub/hJavBFaNZQFqaoz+o77HBZ2P1QJ9vPj81U7TB0hmeQC3GxMDUF5bBs3vlQKheI8DL
pJzB80j8QJtIa0AjE6XBCXD7QKa0OUAlf7XB0eDoQKnudUDh0sDBYXKhQEu3JEBr4sDB1bKnQEi6
lEC0kbbBY8QRQeB+9cDpc4/Bh2MZQY2UxcBCapbB4dYTQb3Dw8CNUojB25qLQDwPakARrYLBFM29
QLcYM0DcVIHBh3u8QOz/kkBcqIHBVIbmQKwY2MDzBJrBCW3bQNxH1sA+7YvBgt8dQO3ac0B5npjB
EN8/QJsrO0AggI7BgkF+QF/slsBeW6DBlcCBQLReXcB3XqXBnW6FQNrFDr/vXavBVMjSQNuIW7+M
xqzBBgmJQIfZMD87e7DBSE7WQCaCxj5O37HBDUihQMTXpcC2BprBRADJQFLdSMBdy53BIlWqQOsF
rL8efKnBGOGmQFltKsARKaTBCXWxQJCvlT8TvLPBoy7GQJKFjMCnlJjBMKXdQFlmbEBtCaHBXzG4
QLw5cEAN4abBhefaQIohakDkVJXBsYeNQJ9ObkCHOZfBXhLfQMhrU0DnibnBynq0QPAvIEDle7nB
oJi4QEiwckDeALPB8jQLQejQj8Ch+4LBI5CtQFMda0DNxYTBzskAQfNTeMAa7YzBykaQQCI3cUDR
wqHBwzmyQARDaUAflZDBqG5JQK2BcEAqxpLBZvL7QHbZaECkCJDB8lLmQHjsm8AK+pHB2LpFQL1l
qsAyXqHBGLZOQChsRsDNJqrBMNJMQJXJar+w3qjByCHvQJ58ub91WqvB6YBZQAh0pD/T67HBTEz1
QOy0Pz9UYLTBAzSfQPTdxMA8QZbBnojlQN+GIsAN5pzBcFT8QPcaa0BEAqXBjXv7QNO/OUDvc7XB
kQrpQKRMdkDZw8DBvH6hQKh5JUBl3cDBXOenQHD6lECegrbB9Y0VQW/Nb8ApPX7B6V79QDb7mcCx
sHrBpNwUQVixq8CRV4XBT2WLQCQPakAsqYLBcoW9QMLfMkA+S4HBgFO8QHnkkkDnmoHBZTruQISY
QMAxlIrBYkoNQckEZMBqk5LBmtYdQF0idEAVnZjBPqY/QMdPO0BRf47B

> <OMEGA_E>
INRCPqBaXj6gFGo+wOvwPki59D4oAf8+dE7/PqjVAT/E1wI/

> <OMEGA_NBR>
     42316

$$$$
50145455
  -OEChem-04172616093D

 42 44  0     0  0  0  0  0  0999 V2000
    4.4903   -5.4271  -19.7057 C   0  0  0  0  0  0  0  0  0  0  0  0
    4.4676   -4.7740  -20.9532 C   0  0  0  0  0  0  0  0  0  0  0  0
    4.9941   -4.7619  -18.5714 C   0  0  0  0  0  0  0  0  0  0  0  0
    7.5907    0.3196  -19.3732 C   0  0  0  0  0  0  0  0  0  0  0  0
    4.9489   -3.4557  -21.0685 C   0  0  0  0  0  0  0  0  0  0  0  0
    5.4766   -3.4443  -18.6824 C   0  0  0  0  0  0  0  0  0  0  0  0
    7.0368   -0.9596  -19.2103 C   0  0  0  0  0  0  0  0  0  0  0  0
    7.1120    1.1699  -20.3817 C   0  0  0  0  0  0  0  0  0  0  0  0
    5.4763   -0.5143  -21.0354 C   0  0  0  0  0  0  0  0  0  0  0  0
    5.4587   -2.7779  -19.9327 C   0  0  0  0  0  0  0  0  0  0  0  0
    5.9899   -1.3981  -20.0557 C   0  0  0  0  0  0  0  0  0  0  0  0
    6.0229    0.7753  -21.1994 C   0  0  0  0  0  0  0  0  0  0  0  0
    6.6412    4.6960  -20.4372 C   0  0  0  0  0  0  0  0  0  0  0  0
    5.7034    3.8202  -20.9442 C   0  0  0  0  0  0  0  0  0  0  0  0
    6.4085    5.2886  -19.1164 C   0  0  0  0  0  0  0  0  0  0  0  0
    4.3410    4.0134  -19.0165 C   0  0  0  0  0  0  0  0  0  0  0  0
    4.9395    5.5165  -17.0944 C   0  0  0  0  0  0  0  0  0  0  0  0
    5.4504    1.6717  -22.3022 C   0  0  0  0  0  0  0  0  0  0  0  0
    5.9457    3.1438  -22.2852 C   0  0  0  0  0  0  0  0  0  0  0  0
    4.5440    3.5065  -20.2177 N   0  0  0  0  0  0  0  0  0  0  0  0
    5.2610    4.9023  -18.4057 N   0  0  0  0  0  0  0  0  0  0  0  0
    3.1716    3.6416  -18.3600 N   0  0  0  0  0  0  0  0  0  0  0  0
    7.2217    6.0881  -18.6641 O   0  0  0  0  0  0  0  0  0  0  0  0
    4.1211   -6.4383  -19.6189 H   0  0  0  0  0  0  0  0  0  0  0  0
    4.0807   -5.2850  -21.8225 H   0  0  0  0  0  0  0  0  0  0  0  0
    5.0103   -5.2634  -17.6150 H   0  0  0  0  0  0  0  0  0  0  0  0
    8.3862    0.6499  -18.7217 H   0  0  0  0  0  0  0  0  0  0  0  0
    4.9294   -2.9586  -22.0271 H   0  0  0  0  0  0  0  0  0  0  0  0
    5.8627   -2.9385  -17.8097 H   0  0  0  0  0  0  0  0  0  0  0  0
    7.4113   -1.6127  -18.4360 H   0  0  0  0  0  0  0  0  0  0  0  0
    7.5767    2.1325  -20.5363 H   0  0  0  0  0  0  0  0  0  0  0  0
    4.6571   -0.8311  -21.6639 H   0  0  0  0  0  0  0  0  0  0  0  0
    7.5288    4.9402  -21.0019 H   0  0  0  0  0  0  0  0  0  0  0  0
    4.0077    5.0816  -16.7038 H   0  0  0  0  0  0  0  0  0  0  0  0
    5.7594    5.3215  -16.3875 H   0  0  0  0  0  0  0  0  0  0  0  0
    4.8133    6.6020  -17.2192 H   0  0  0  0  0  0  0  0  0  0  0  0
    5.7235    1.2325  -23.2731 H   0  0  0  0  0  0  0  0  0  0  0  0
    4.3554    1.6804  -22.1987 H   0  0  0  0  0  0  0  0  0  0  0  0
    5.4120    3.7054  -23.0660 H   0  0  0  0  0  0  0  0  0  0  0  0
    7.0250    3.1561  -22.4975 H   0  0  0  0  0  0  0  0  0  0  0  0
    2.6482    3.0163  -18.9388 H   0  0  0  0  0  0  0  0  0  0  0  0
    3.4026    3.1855  -17.5005 H   0  0  0  0  0  0  0  0  0  0  0  0
  1  2  1  0  0  0  0
  1  3  2  0  0  0  0
  2  5  2  0  0  0  0
  3  6  1  0  0  0  0
  4  7  1  0  0  0  0
  4  8  2  0  0  0  0
  5 10  1  0  0  0  0
  6 10  2  0  0  0  0
  7 11  2  0  0  0  0
  8 12  1  0  0  0  0
  9 11  1  0  0  0  0
  9 12  2  0  0  0  0
 10 11  1  0  0  0  0
 12 18  1  0  0  0  0
 13 14  2  0  0  0  0
 13 15  1  0  0  0  0
 14 19  1  0  0  0  0
 14 20  1  0  0  0  0
 15 21  1  0  0  0  0
 15 23  2  0  0  0  0
 16 20  2  0  0  0  0
 16 21  1  0  0  0  0
 16 22  1  0  0  0  0
 17 21  1  0  0  0  0
 18 19  1  0  0  0  0
  1 24  1  0  0  0  0
  2 25  1  0  0  0  0
  3 26  1  0  0  0  0
  4 27  1  0  0  0  0
  5 28  1  0  0  0  0
  6 29  1  0  0  0  0
  7 30  1  0  0  0  0
  8 31  1  0  0  0  0
  9 32  1  0  0  0  0
 13 33  1  0  0  0  0
 17 34  1  0  0  0  0
 17 35  1  0  0  0  0
 17 36  1  0  0  0  0
 18 37  1  0  0  0  0
 18 38  1  0  0  0  0
 19 39  1  0  0  0  0
 19 40  1  0  0  0  0
 22 41  1  0  0  0  0
 22 42  1  0  0  0  0
M  END
> <OMEGA_C>
eLCPQIaqrcAypZ3B6vaOQADFmMAboKfBxc+fQM5hmMAwkpTBCOfyQPOkoz5I/JrBBV2eQPgqXcBO
jKjBnECvQEhvXMB3dZXBJC3hQGCqdb/CrpnBN5XjQF3AlT/HDaPBxT2vQFenA7+TSKjBpK2uQPPI
McAcdp/B8qy/QNjzsr8scqDBebvAQBB5Rj9zmKnBhYTUQNZFlkBzf6PBaYK2QL9+dECpjafBYhLN
QEg8qUBg7pjBFemKQNBtgEDjIZjBfRCeQNKGsEBJwYjBBGquQC/61T/tarLBaUO+QEczSUAQSLLB
KGiRQL5pYEDNvaHBTVqoQMbfnEDkPpPBwPtKQDQPaUA34ZLBZBjnQIXRwkAKUJXBVeCDQIwGzsB8
85zBVZWCQHseqcBnlK7BnlSgQBtuqMCO64zB4S0GQYRiJj/8xZXBxb2dQJBZPcB1N7DB5Zq7QNEP
PMBEeo7BPintQFdtzr/kfJPBfHTyQL56CEBJSqTBIweVQO7FVL+mT63BAezwQEYWnkDxA6jByz6A
QCWcokBzoYXBTU24QANKqkCFGYPBKAaaQOpD00DSwInBJCe3QOLCnT83L7rBDV+LQA8Y1z8Il7HB
Ci+tQP4kbUA1h7jBnszgQJv9SUDX+rPBi3spQOkKQUCqgpfB+cRZQIzeS0AgAYzBHOfGQGPSy7/2
zYbBoV7cQGcKA78rnYvBh/qoQDLQFcA1vIzBl02TQNDUjL8Sw7nBtQzUQLxLPL5nW5bBa0qgQEKW
AMCFeJfBFTidQI2lwL/9Pa/Bh0eXQCo8gT4gzrzBujuwQNRoRz+g76rBubG1QAEybb+napzBZb+r
QJFsDr9us6fBSyCmQLIYmz9rabXBqY2UQEM3bEA30KLBHSu+QI4/cECGl6bBml6NQE+AZUBlQ5fB
aYHaQIDqakB2+ZTBgZurQKjtX0DNsITB7eenQBw5LEAkzrjBHS3IQMZUZUAMfLLBNdrgQPaeb0Dn
aZ/BBPiwQJx9Z0DJcZDBVI7+QPiHaUDZbo7B7HFRQO89XUAy5pPB/lzNQIuK7L89In3BBzfzQMON
hT37D4fBxaCYQBQJS8BPCYnBL5aIQG1m6r+8h7/BxNzkQMy7Iz/zCprBMSuJQLNmJcAU85vBz7OZ
QKuZIsDg86zBOuuOQEwNDj/r1MTBvtO7QC90wD/wOKXBlK9zQBX+bUCdSqjBDiPLQLHoYkC8y4DB
zH6XQHljikCixYHBtDOcQAh9IkBqyYLB3smwQNqPLkDAUMHBhL+HQN+VR0CYwLfBym7IQPOWkkDz
MLbBGR/oQP9PSEBLMbPB0HQMQbh9bEBq9JLBvdD9QMLcjUAgeYnB

> <OMEGA_E>
QDaJP0fEkD8=

> <OMEGA_NBR>
     44069

$$$$
50219805
  -OEChem-04172616093D

 52 55  0     1  0  0  0  0  0999 V2000
    5.8821   -4.7191  -20.2751 C   0  0  0  0  0  0  0  0  0  0  0  0
    5.9457   -3.4704  -20.9111 C   0  0  0  0  0  0  0  0  0  0  0  0
    4.3143   -0.1044  -20.8998 C   0  0  0  0  0  0  0  0  0  0  0  0
    6.4745   -0.7459  -21.8484 C   0  0  0  0  0  0  0  0  0  0  0  0
    4.3482    1.0843  -21.6464 C   0  0  0  0  0  0  0  0  0  0  0  0
    6.5130    0.4437  -22.5756 C   0  0  0  0  0  0  0  0  0  0  0  0
    5.1777   -4.8541  -19.0702 C   0  0  0  0  0  0  0  0  0  0  0  0
    4.6300   -2.4755  -19.1188 C   0  0  0  0  0  0  0  0  0  0  0  0
    5.3729   -1.0381  -21.0176 C   0  0  0  0  0  0  0  0  0  0  0  0
    5.3149   -2.3403  -20.3383 C   0  0  0  0  0  0  0  0  0  0  0  0
    5.4592    1.3656  -22.4707 C   0  0  0  0  0  0  0  0  0  0  0  0
    4.5455   -3.7352  -18.4945 C   0  0  0  0  0  0  0  0  0  0  0  0
    6.9078    3.6017  -20.1725 C   0  0  0  0  0  0  0  0  0  0  0  0
    5.7545    3.8504  -20.8866 C   0  0  0  0  0  0  0  0  0  0  0  0
    6.8068    3.4154  -18.7253 C   0  0  0  0  0  0  0  0  0  0  0  0
    4.4061    3.6798  -18.9472 C   0  0  0  0  0  0  0  0  0  0  0  0
    6.9261    3.3966  -23.2494 C   0  0  0  0  0  0  0  0  0  0  0  0
    5.5568    2.6750  -23.2093 C   0  0  2  0  0  0  0  0  0  0  0  0
    5.7676    3.9475  -22.3987 C   0  0  1  0  0  0  0  0  0  0  0  0
    1.8981   -3.3775  -15.7412 C   0  0  0  0  0  0  0  0  0  0  0  0
    5.3921    3.3290  -16.6623 C   0  0  0  0  0  0  0  0  0  0  0  0
    3.8871   -3.8691  -17.1495 C   0  0  0  0  0  0  0  0  0  0  0  0
    2.4885   -3.2346  -17.1412 C   0  0  0  0  0  0  0  0  0  0  0  0
    4.5081    3.8974  -20.2447 N   0  0  0  0  0  0  0  0  0  0  0  0
    5.5372    3.4280  -18.1341 N   0  0  0  0  0  0  0  0  0  0  0  0
    3.1285    3.6932  -18.3989 N   0  0  0  0  0  0  0  0  0  0  0  0
    7.8283    3.2366  -18.0719 O   0  0  0  0  0  0  0  0  0  0  0  0
    6.3746   -5.5748  -20.7127 H   0  0  0  0  0  0  0  0  0  0  0  0
    6.4799   -3.3707  -21.8444 H   0  0  0  0  0  0  0  0  0  0  0  0
    3.4845   -0.3060  -20.2384 H   0  0  0  0  0  0  0  0  0  0  0  0
    7.2928   -1.4470  -21.9219 H   0  0  0  0  0  0  0  0  0  0  0  0
    3.5258    1.7821  -21.5901 H   0  0  0  0  0  0  0  0  0  0  0  0
    7.3536    0.6557  -23.2196 H   0  0  0  0  0  0  0  0  0  0  0  0
    5.1201   -5.8165  -18.5835 H   0  0  0  0  0  0  0  0  0  0  0  0
    4.1684   -1.6135  -18.6602 H   0  0  0  0  0  0  0  0  0  0  0  0
    7.8644    3.5457  -20.6708 H   0  0  0  0  0  0  0  0  0  0  0  0
    7.8029    2.9450  -22.7623 H   0  0  0  0  0  0  0  0  0  0  0  0
    7.2445    3.9270  -24.1589 H   0  0  0  0  0  0  0  0  0  0  0  0
    4.9394    2.7739  -24.1142 H   0  0  0  0  0  0  0  0  0  0  0  0
    5.2828    4.8445  -22.8114 H   0  0  0  0  0  0  0  0  0  0  0  0
    0.8947   -2.9273  -15.7182 H   0  0  0  0  0  0  0  0  0  0  0  0
    1.8274   -4.4438  -15.4803 H   0  0  0  0  0  0  0  0  0  0  0  0
    2.5467   -2.8647  -15.0157 H   0  0  0  0  0  0  0  0  0  0  0  0
    4.3253    3.3560  -16.3958 H   0  0  0  0  0  0  0  0  0  0  0  0
    5.8333    2.3837  -16.3133 H   0  0  0  0  0  0  0  0  0  0  0  0
    5.9106    4.1737  -16.1853 H   0  0  0  0  0  0  0  0  0  0  0  0
    3.7966   -4.9368  -16.9008 H   0  0  0  0  0  0  0  0  0  0  0  0
    4.5112   -3.3684  -16.3947 H   0  0  0  0  0  0  0  0  0  0  0  0
    1.8440   -3.7484  -17.8696 H   0  0  0  0  0  0  0  0  0  0  0  0
    2.5632   -2.1693  -17.4050 H   0  0  0  0  0  0  0  0  0  0  0  0
    2.4584    3.8759  -19.1184 H   0  0  0  0  0  0  0  0  0  0  0  0
    2.9356    2.8051  -17.9817 H   0  0  0  0  0  0  0  0  0  0  0  0
  1  2  1  0  0  0  0
  1  7  2  0  0  0  0
  2 10  2  0  0  0  0
  3  5  2  0  0  0  0
  3  9  1  0  0  0  0
  4  6  1  0  0  0  0
  4  9  2  0  0  0  0
  5 11  1  0  0  0  0
  6 11  2  0  0  0  0
  7 12  1  0  0  0  0
  8 10  1  0  0  0  0
  8 12  2  0  0  0  0
  9 10  1  0  0  0  0
 11 18  1  0  0  0  0
 12 22  1  0  0  0  0
 13 14  2  0  0  0  0
 13 15  1  0  0  0  0
 14 19  1  0  0  0  0
 14 24  1  0  0  0  0
 15 25  1  0  0  0  0
 15 27  2  0  0  0  0
 16 24  2  0  0  0  0
 16 25  1  0  0  0  0
 16 26  1  0  0  0  0
 17 18  1  0  0  0  0
 17 19  1  0  0  0  0
 18 19  1  0  0  0  0
 20 23  1  0  0  0  0
 21 25  1  0  0  0  0
 22 23  1  0  0  0  0
  1 28  1  0  0  0  0
  2 29  1  0  0  0  0
  3 30  1  0  0  0  0
  4 31  1  0  0  0  0
  5 32  1  0  0  0  0
  6 33  1  0  0  0  0
  7 34  1  0  0  0  0
  8 35  1  0  0  0  0
 13 36  1  0  0  0  0
 17 37  1  0  0  0  0
 17 38  1  0  0  0  0
 18 39  1  0  0  0  0
 19 40  1  0  0  0  0
 20 41  1  0  0  0  0
 20 42  1  0  0  0  0
 20 43  1  0  0  0  0
 21 44  1  0  0  0  0
 21 45  1  0  0  0  0
 21 46  1  0  0  0  0
 22 47  1  0  0  0  0
 22 48  1  0  0  0  0
 23 49  1  0  0  0  0
 23 50  1  0  0  0  0
 26 51  1  0  0  0  0
 26 52  1  0  0  0  0
M  END
> <OMEGA_C>
6Dm8QIACl8BmM6LBZkO+QKgbXsDVSafBag6KQKDY1b2yMqfBdi/PQKDwPr+Gya7BdiSLQGDKij/M
K63BPmrQQNQq4z7ImrTBArClQNNUm8C/j5jBECmUQP5uHsA085jB2u6rQLbghL8UJKjBmhOqQMjG
FcDktKLB7rGuQFjMrj/6w7PBEHWRQKINb8Co9JPB1AzdQMiBZkBLYaHB9iS4QHZsdkDNF6fBRNHZ
QK2VWkBrzZXB1v6MQKeBa0DGk5fBWqLdQEJhWUCz/rnBgtGxQLsyK0CRrLnBQJC4QPWjfECcMLPB
8PPyP84oWMDp23vBdoysQNkNVUB0TIXBf8Z4QCKgd8BFMonBTEQfQKADT8AjIYnB9kGQQD9veUAR
9aHBeDCxQLpjW0CTEpHBwDhIQCRdbEADMZPBJoH6QNckT0Ayk5DB8/zLQNFkssCPs6XBcFvPQDC6
V8BLwa7BfgJfQPSlnL5X6KHBP17pQLw1ub8CYK/BY6dhQMMc5D+duKzBxlDrQCDeJz+7wbnBotej
QPAgusAVq5TBsGOFQFmIzr8BSJXBwqj7QNTsYkDTXaXBgbH5QCl7PEArGbbBz9LnQMhUe0BcRcHB
fQ+eQD+IMUD16cDBowypQF8Gm0DJfbbB0AplPyZYO8CTfXvBc+npP0AzjsAcr3fBxvwiQHZWN8Bl
QHDBfmiKQOfIVkCyKoPBLqq6QBCOGECpgYLB0iO9QCiPhUB3e4HBFPtyQGT6ncDGNIfBzluQQCaU
V8BdKIPBAwjsPz7mb8Db9I7BDgwkQDPWCsB/PYvBelYdQB4OeECA8pjBsuA7QOeGM0Bu2o/B+mR+
QMcCl8CHV6DB2MWBQLE8XcBFS6XBd2GFQJqlDr//WKvBHcXSQIrPWr+ApqzBvwCJQAAhMD/ygrDB
MU/WQB42xj5g0LHBJ3OhQJAgpsB7EZrB2MXIQLZlSMDWlJ3BG0qqQDt5q7+PX6nBL8emQEj4KcDC
AKTBBnOxQPRYlT+3vbPBvzTGQKeOjMD2mZjBnKHdQERfbEB+EaHBVym4QFQscEBy56bBmu3aQIgQ
akDuXJXBLYyNQAU3bkBrPZfBbQTfQDRUU0A7kbnBcnW0QDn+H0AigbnBX4m4QI+PckC8B7PBnnsQ
Qd15nMB7wqHBzaatQJzkakBGy4TBusHrQDcGncCkEZLBlpIFQeSRt8Bk+5jBpUKQQDopcUDxxqHB
HUSyQCkiaUAAm5DBFX5JQLBicEDXx5LBJv37QEvCaECJEpDBSM5FQMdvqsA2W6HBYNpOQBlMRsAu
GKrB/aZMQO3Par/C4ajBSh/vQGHRuL9QK6vBsGtZQEXCoz/8AbLBGVH1QE03Pz+KUbTBB5WfQGpR
xcBzYJbBt/fkQL9mIcDbe5zB9E38QOMfa0DLC6XBBXP7QOy+OUBke7XBkfToQKwvdkBHzMDBUnWh
QHwzJUA14sDBLc6nQEfilEBdirbBrGsbQUXOsMAHa6bBZjgEQbX9jsC3GKfBmpMZQWRSgsAnBJ7B
PX6LQOLMaUBvrILB+6G9QMOiMkB8U4HBLWu8QC7GkkCNn4HBKwj9QHaTgcD7pY7BZYLfQIZUscDE
kIvBLE35QBS60cCF05zBywESQcMOxcD1vpPBG9wdQMkGdECRnZjBDb8/QIwsO0B8gY7Bzcd8QLNj
lsB3bqDBm3mBQGCcW8AQM6XBC6OFQK8DDL8yJ6vBwv7SQMYDWb/dgKzBOSqJQN1/MT88YrDBSHLW
QBMuyD7ourHBsnSgQJRtpsAdSprBAOnIQO70ScBskZ3B846qQKtOqr9YL6nB++KmQLetKcAZ4aPB
UYyxQB2blT+1rLPBUKfFQL57jcC4opjBtZvdQEEFbUCeHqHBhRu4QJC7cEC78abBC/raQOpga0Bh
aZXBBJiNQN/Ab0DOQpfBiujeQCFlU0CHm7nBY220QJrcH0Byf7nBc2y4QHuxckDIErPBUe0BQTKy
xsCtpoHB9satQJdPa0Di04TB+GbrQE/rnsDPQJLB8PLcQGYduMAUNojBwjiQQJbNcEAszqHBr2ey
QDs7b0A5oZDBsphJQOpvb0AwypLB9Ar8QFb9Z0A+I5DBFI1DQG9NqcArfaHBOlROQF4vQ8CB5anB
mD5NQBBPZ78EoKjBt1/vQA6xt781AqvBILNZQIlJpD9l4rHBBWz1QCDnPz8ORbTB2zueQOD7xcBs
z5bBw5PlQPhEJMCdhZzBEUH8QEtca0CtG6XBq2X7QH0cOkCPhLXBOsLoQAQGdkDi3MDBPV+hQGis
JEBW38DB3pmnQEPXlEAfnLbBkur4QM9+2MAbI3XBkRsMQRmB28D2mIbB/ycLQd2HqsCALX7B1rCL
QHpGb0A4sILBzhi7QNyZLkAT3oHBoh+/QNaSkECcLIHBIhz+QFFitMBZbZfBz5P/QM/xg8D2so/B
O43KQF9h1MBOu4rBF6bIQCRoo8AXOYPBsc4dQP4XcECgn5jBqhhCQFm+OkDkWI7BMGF6QOhrjsAN
bJvBrOF+QEL3TMCkmKDBAcOLQFQWvb5yc6fBdg7MQE+ijr8B07DBNIOOQNn9Xj9orqzBzD7PQPnt
DD472bXBtLuiQKI5psD2kpnBu7HMQAmDXcBjX6LB0G2qQGlssL+OganBTF2nQPWHLMCpGqTBmMew
QOnbkT8EtLPBB9TKQHgmlsBn4pzBG7TdQOrEa0CYB6HBsFS4QHimcEC04abBONvaQNOtaUBRU5XB
8oaNQJX3bkATPpfBihjfQJdfTkA4a7nButSzQI1NHkB/YbnBj9C4QOI9cUDrA7PBDCYLQYARbsBp
EI/B5F6tQCcYakDNyYTBtT3zQEmDsMAf/prB3PMNQSFGlcCVvpjBe2iQQOkoc0Dew6HB+SKyQIbN
aEAsmJDBk1FJQEHocECY0ZLB19r7QIIdaEBrA5DBjzU9QNTWmsAP3ZjBEjxFQEFGKMBu5aHByEtk
QIy0Db9A16HBqmHjQO/Z8L+8i7LBipJsQLWlzz/bUavBJRrpQPwYqj6mXbvBktmgQNjgxMCMnJXB
ShfrQGtWRsA4SqXBhmb8QFCJaUA7/aTBb+L6QH4/M0DLNrXBivHpQGOob0D5rsDBvTChQIHOI0BZ
0MDBejmpQHyXlEBSq7bBifEZQUU4ScCr1o3BwZn7QADdQcDumZDBPLMHQbgIisAP3IfB2S6LQDIg
aUBOsoLBAzi9QLaXMUAqWIHB3S+8QPNCkkAfkYHB8LDtQAmNxcA7E5TB6yz5QGIbxMCvJqLByIQR
QajlgcAZ35/BI2sbQeD/qsA6IZfB3OEdQDBqdUDCqpjB9j0/QE85O0A8po7Bh5h9QLP/lsAbV6DB
Z7GBQNAoXcCdP6XBN42FQBbgD78pQKvByezSQHvRW7+kl6zBjxaJQE6aLj95b7DBUWHWQMLPwz76
xbHBhh2hQE6qpsArMprB2DXJQD1bSsDGt53BVn6qQAkorL9HTKnB2gGnQOCwKsC9AKTBWnyxQMmK
lD8zs7PBJ4LGQP3cjcAW55jBN6DdQK9CbECcF6HB4yO4QLj9b0Ah7KbBHvTaQJEcakDWYpXBrpGN
QLVBbkA2QJfBffHeQBXkUkBglrnB9Wm0QFh3H0CnfrnB7Hm4QJksckCODLPB2Pq+QKpSn8B5pYDB
dLmtQDUsa0A9z4TBt//qQAIInsAj9pHBECrnQLOvjcBDUYbB30CQQH8OcUD9yaHB+k2yQHxCaUAi
n5DB/o5JQPKAcEANyZLBHAf8QJ7caEC9GZDBOmREQHoFqsBpSqHBrapOQHt8RcAE/anBsxBNQAjX
a7/yv6jBgVDvQFwZub+QHKvBkolZQHbkoj+a67HBXlz1QDYxPj/QSrTBI9eeQIa+xcDFdZbByJLl
QMTgI8Aam5zBzEn8QM/zakAqE6XBr2j7QLB0OUCVgLXB19PoQD2edUAb1cDBq1+hQI53JECq3sDB
ibKnQBGjlEBJkrbBL6O9QN/dksBj2HDB9jOiQAkylcBWCYXB0nTAQHh7wsDPcIDBb5KLQGcfakDD
roLBlLW9QOTzMkBPVYHB34G8QE/ukkA1p4HBtnnqQBk6wcDO6pHBXr4EQXHRksC5WZXBS3DlQPkP
VcBabIbBk9gBQWvRl8DT04HBbOUdQH8SdEASnpjBK9M/QF5aO0CPf47BC7GcQMnoo8CJM6XBynCf
QDXCd8AUT6rBgP6RQFnjjL/t8rLBAGrFQKnH0b4BXKXBubyVQBsDID6z7bfBUlDKQCGsUT+Fk6rB
qbifQB2gpsAi+5nBStmoQJFwMsAl8ZjBbXSpQNQ0sb9riqnB07OlQBuPLMBrNaTBn7KxQG7/kD+M
vbPBaTmlQJgygcD7z5PBPebdQNbHdEAY+aDBYom4QKXBdECd4qbBNBDbQGbEbkB4TpXBVrONQGF/
b0ADRpfBsibgQGyQUEDwL7nBfgu1QI3lHkDYa7nBtJC5QOnQckArCLPBJITbQE4tjcBZNHDBDpSt
QErxaEA2zoTBNtqoQFMOhMB0u4fB+gXYQK1ricDLWITBQomQQLvHcUBF0aHBq16yQOJkb0B9lZDB
HapJQFVvbUDr2pLBGgr8QIGQaUAvBZDBg0CYQD+XwMBg5KnBNsOcQLu4c8B76LLBA0R6QJr47L/Q
UrbBehjXQNSPHL8RHZ7BphuDQAnBvz5F/r7B7irhQFC1xD8GkqfBZdSdQERrxcBaFpbBRg6uQPOv
8r/nP5TB1KH8QNoneUAR46TB5LT7QOUaNkC/0rTBYHXrQHAAckCcZcDBlAOjQI07JEAY88DBFPup
QOMIlUDw2LbBhk39QHr6kMDapWvBzonOQAElYMCgumjBYDHJQC4qqcBMumrBwmiLQAyNakB1s4LB
bbS7QL12LEB8AoLBJBS+QFyDj0AI+IDBufebQJg1TcCrJYTBsFGWQEC7n8DM4oTB6XLqQP3mWsDM
DYfBehrlQC2LpsCjDYjBeRgeQFsNbkD0tpjBmc9CQOgmOEDRgY7BZXWKQG9znsCzkqPBr5ONQI/s
bMBJtKjB5z+IQMKIWb9E1a/BhJLPQC4lEb8iOajBuvuLQEGazD6Q67TB2zPTQPQELj+LR63BK1+g
QMbLpcBm5pnBAPO8QBt6OsCEhZrBeSuqQHt+rL9deqnBWcimQN3XKsDAL6TB9IyxQByWlT8YwrPB
Rve5QEFBhcBRZZXBQcLdQFfwbUDID6HBCFO4QNtrcUCf6abBoffaQKRna0CTW5XBqZqNQC+2b0DG
Q5fBUOHeQK/JVEDMqrnBgGO0QO6bIEABh7nBtLq4QGJjc0CxCrPBV5KmQPbeIsAL8oDBUIytQHZ9
akA/z4TBhpLQQBpMjMBMyIrB4FSzQBUwgcC9LYHBWF+QQP8QcUBnzqHBZlSyQPr1bkDXmpDBSn9J
QNNPb0Cv05LBuvT7QP11Z0BvD5DBVXJuQB6Lt8DeD6fBq1t5QFLuYcBeHbDBFsFWQFI2t78SyLDB
VYnpQEILb791VaPBRthjQBjJRT84v7nBMdfvQHaEoj+iOKzBIpWdQOFbxMBh7ZXBH1zQQFCMCMAv
CZfBF3f8QEQZbUBoBqXBoI77QB6AO0AvqbXBM2roQMLsd0Ae6cDBaxWhQOXjJUAu28DBCLKnQBUj
lUAsirbBgeORQLOuFsDA+nPBMY3DQEBh9r8gW4DBiDGVQBG4EsC+U4jBh26LQLZKbkATsoLBodu6
QKqrLUDH4YHB+9G+QGQYkEB0GoHBoCXaQJMWrsCmMYrBtjftQAPAb8AEfIrBX27EQH7hiMBSdnPB
tRKWQDallMDIs4HBeNwdQAIqcECarZjB7dlBQDl+OkBZaY7Bq2SLQGSsnsCTvqPBvDCOQP/qbMDl
w6jBZGKIQGOOWb9T0a/BM5jPQF0KEL/QJqjBPh+MQG+ryz7R7bTBs0LTQIyoLj91P63Bf9SgQBAH
psDbAprB3Cq8QCLWOcAjT5rBQziqQIkArL/caanBAbymQNZ9KsCXGaTB66OxQGyVlT9rwbPBO924
QBb8hMAZNZXBmLndQM8ubkDwE6HBDEa4QHKFcUBT7KbB6ffaQNWZa0DPX5XBcZiNQNefb0CfRJfB
HtjeQJvvVEDCrLnBuWi0QKWZIEBiiLnBcam4QExvc0B9DbPBEgMLQfT2pcAEfILBVJitQHd6akCW
0YTBSIbQQLT4jMAQzYrBgEz+QAsqncC2C43BZFWQQGAEcUBuz6HBFFeyQLj7bkBUnZDBrIFJQP8Q
b0B30pLB8Pn7QF7AZ0BKFZDB/IpxQFfut8BPXafBZBd7QLrOYcBtNbDBryBXQOl7t7/gyLDBc4Dp
QL1Bbb8SO6PBpjRkQNieRD9/yLnB1OXvQPDeoj+fMqzBWOCeQN8CxcAAN5bBNzDPQNTBB8BtuZbB
Emz8QN58bUDRC6XB9Ir7QA7HO0BfqrXBiVnoQBMSeEC868DBGxqhQE3FJUDJ3MDBg5OnQL4elUD5
jbbB3kYbQYx3scD9OYTBRu4LQS5HiMB5jnvBGE4CQQ1wvsC6ynvBBHuLQPsibkDssoLBu/m6QNq1
LUD+5IHBWtK+QG0fkEBFHYHBMzzSQOHmXcDhOYbB3iS/QOAqpcAmHYbBk+0HQSS+hMACnpHBy5r8
QATnusAjvJHBHNUdQCnbb0BIq5jBmftBQOc4OkCAaI7BcVuNQDqhn8A9zKPBrN6OQBkab8Co8ajB
pNmHQCUMXL+LCrDBUdrOQIZHFL8GOajBpe+LQErrxz6wGLXBY+HSQG63Kj+JQ63BJRWjQHfopcCV
CJrBuRG5QBqONsD5L5rBUE6pQPhArb9nkKnB1mulQEOIKsCFMaTBCnyxQN1NlD9gz7PBs6e5QDnQ
g8ATOJXBHcndQK+GbUAnBaHBKFy4QDWPcEBu4KbBb/raQHSzakCPUZXBOJmNQPD3bUBfPJfBPBDf
QFYgVEArm7nBw4a0QGccIEBtiLnBJ9a4QFWwckB0AbPBgNMJQe/lNsBK8I3BvKOtQEPpakBkxYTB
HCvRQBxii8AKqIrBOLXsQPUzSsDmoobB2GaQQNLmcEDNxaHBoUeyQGs0aUAelZDBi35JQCbUb0Dy
zJLBUf37QGJqaUBUApDB2QZ3QOOducDaVqfBaaB9QHIQZsDSgrDBjyVWQKyeuL/XHbHBfZToQId9
c7+7R6PBqkhkQPf/Qz9ZALrBNZDvQLxeoD87JazB4XSiQKLqxMDDOJbB+vjHQL7MAMBMPJbBNYH8
QIc9bUCE+qTBpqb7QF+dOkAGlbXBxr/oQJ1ud0D90sDBV1mhQH6zJUAK4cDBgOmnQDPelEBMf7bB
ktcSQXVkAMD0qorB9UUUQZp7b8AtS47BBS0EQUAkJ8BnCZbBdXuLQJVYaUBzp4LBXM+9QGjhMkD4
TIHBiDK8QPTikkCAmYHBNia5QLKmksBEfITBW3LmQOQbp8A5tIvBjob4QH4zWcCvH33BrVTYQCPc
EMASTobBdfUdQLFGc0ALppjB++A/QNSXOkCbho7B

> <OMEGA_E>
QNFzPlhMAT8sDQA/CHXyPlIfAj+wKAg/pIEIPzhCCT/81go/

> <OMEGA_NBR>
     52230

$$$$
50219802
  -OEChem-04172616093D

 53 56  0     1  0  0  0  0  0999 V2000
    3.8955   -4.4497  -19.4580 C   0  0  0  0  0  0  0  0  0  0  0  0
    3.9864   -3.1956  -20.0884 C   0  0  0  0  0  0  0  0  0  0  0  0
    4.3781   -0.3664  -20.9257 C   0  0  0  0  0  0  0  0  0  0  0  0
    6.3950   -1.1083  -22.0864 C   0  0  0  0  0  0  0  0  0  0  0  0
    4.4574    0.8703  -21.5863 C   0  0  0  0  0  0  0  0  0  0  0  0
    6.4862    0.1406  -22.7247 C   0  0  0  0  0  0  0  0  0  0  0  0
    5.0569   -5.2092  -19.2299 C   0  0  0  0  0  0  0  0  0  0  0  0
    6.4075   -3.4619  -20.2668 C   0  0  0  0  0  0  0  0  0  0  0  0
    5.3437   -1.3715  -21.1733 C   0  0  0  0  0  0  0  0  0  0  0  0
    5.2447   -2.6895  -20.5001 C   0  0  0  0  0  0  0  0  0  0  0  0
    5.5277    1.1395  -22.4638 C   0  0  0  0  0  0  0  0  0  0  0  0
    6.3182   -4.7100  -19.6245 C   0  0  0  0  0  0  0  0  0  0  0  0
    6.9245    3.6867  -20.1327 C   0  0  0  0  0  0  0  0  0  0  0  0
    5.7553    3.7614  -20.8625 C   0  0  0  0  0  0  0  0  0  0  0  0
    6.8380    3.6526  -18.6696 C   0  0  0  0  0  0  0  0  0  0  0  0
    4.4210    3.7331  -18.9049 C   0  0  0  0  0  0  0  0  0  0  0  0
    6.9654    3.2309  -23.1822 C   0  0  0  0  0  0  0  0  0  0  0  0
    5.6172    2.4733  -23.1754 C   0  0  2  0  0  0  0  0  0  0  0  0
    5.7679    3.7705  -22.3797 C   0  0  1  0  0  0  0  0  0  0  0  0
    8.5588   -7.0769  -18.0069 C   0  0  0  0  0  0  0  0  0  0  0  0
    8.6374   -4.6088  -17.4498 C   0  0  0  0  0  0  0  0  0  0  0  0
    5.4211    3.6558  -16.5997 C   0  0  0  0  0  0  0  0  0  0  0  0
    7.7842   -5.7486  -18.0458 C   0  0  0  0  0  0  0  0  0  0  0  0
    4.5087    3.7994  -20.2205 N   0  0  0  0  0  0  0  0  0  0  0  0
    5.5666    3.6368  -18.0759 N   0  0  0  0  0  0  0  0  0  0  0  0
    3.1448    3.7623  -18.3498 N   0  0  0  0  0  0  0  0  0  0  0  0
    7.8703    3.6286  -18.0073 O   0  0  0  0  0  0  0  0  0  0  0  0
    7.4683   -5.4446  -19.4293 O   0  0  0  0  0  0  0  0  0  0  0  0
    2.9330   -4.8297  -19.1488 H   0  0  0  0  0  0  0  0  0  0  0  0
    3.0921   -2.6149  -20.2598 H   0  0  0  0  0  0  0  0  0  0  0  0
    3.5768   -0.5515  -20.2257 H   0  0  0  0  0  0  0  0  0  0  0  0
    7.1303   -1.8718  -22.2930 H   0  0  0  0  0  0  0  0  0  0  0  0
    3.6958    1.6181  -21.4214 H   0  0  0  0  0  0  0  0  0  0  0  0
    7.2926    0.3348  -23.4163 H   0  0  0  0  0  0  0  0  0  0  0  0
    4.9845   -6.1752  -18.7526 H   0  0  0  0  0  0  0  0  0  0  0  0
    7.3705   -3.0901  -20.5843 H   0  0  0  0  0  0  0  0  0  0  0  0
    7.8831    3.6540  -20.6292 H   0  0  0  0  0  0  0  0  0  0  0  0
    7.8366    2.8112  -22.6579 H   0  0  0  0  0  0  0  0  0  0  0  0
    7.3006    3.7525  -24.0908 H   0  0  0  0  0  0  0  0  0  0  0  0
    5.0326    2.5564  -24.1036 H   0  0  0  0  0  0  0  0  0  0  0  0
    5.2758    4.6422  -22.8358 H   0  0  0  0  0  0  0  0  0  0  0  0
    7.9371   -7.8772  -18.4347 H   0  0  0  0  0  0  0  0  0  0  0  0
    9.4844   -6.9788  -18.5930 H   0  0  0  0  0  0  0  0  0  0  0  0
    8.8092   -7.3248  -16.9648 H   0  0  0  0  0  0  0  0  0  0  0  0
    8.0692   -3.6675  -17.4854 H   0  0  0  0  0  0  0  0  0  0  0  0
    8.8881   -4.8462  -16.4054 H   0  0  0  0  0  0  0  0  0  0  0  0
    9.5634   -4.5002  -18.0336 H   0  0  0  0  0  0  0  0  0  0  0  0
    4.3534    3.6390  -16.3357 H   0  0  0  0  0  0  0  0  0  0  0  0
    5.9186    2.7734  -16.1709 H   0  0  0  0  0  0  0  0  0  0  0  0
    5.8838    4.5692  -16.1976 H   0  0  0  0  0  0  0  0  0  0  0  0
    6.8609   -5.8521  -17.4569 H   0  0  0  0  0  0  0  0  0  0  0  0
    2.4648    3.8327  -19.0797 H   0  0  0  0  0  0  0  0  0  0  0  0
    2.9887    2.9231  -17.8288 H   0  0  0  0  0  0  0  0  0  0  0  0
  1  2  1  0  0  0  0
  1  7  2  0  0  0  0
  2 10  2  0  0  0  0
  3  5  2  0  0  0  0
  3  9  1  0  0  0  0
  4  6  1  0  0  0  0
  4  9  2  0  0  0  0
  5 11  1  0  0  0  0
  6 11  2  0  0  0  0
  7 12  1  0  0  0  0
  8 10  1  0  0  0  0
  8 12  2  0  0  0  0
  9 10  1  0  0  0  0
 11 18  1  0  0  0  0
 12 28  1  0  0  0  0
 13 14  2  0  0  0  0
 13 15  1  0  0  0  0
 14 19  1  0  0  0  0
 14 24  1  0  0  0  0
 15 25  1  0  0  0  0
 15 27  2  0  0  0  0
 16 24  2  0  0  0  0
 16 25  1  0  0  0  0
 16 26  1  0  0  0  0
 17 18  1  0  0  0  0
 17 19  1  0  0  0  0
 18 19  1  0  0  0  0
 20 23  1  0  0  0  0
 21 23  1  0  0  0  0
 22 25  1  0  0  0  0
 23 28  1  0  0  0  0
  1 29  1  0  0  0  0
  2 30  1  0  0  0  0
  3 31  1  0  0  0  0
  4 32  1  0  0  0  0
  5 33  1  0  0  0  0
  6 34  1  0  0  0  0
  7 35  1  0  0  0  0
  8 36  1  0  0  0  0
 13 37  1  0  0  0  0
 17 38  1  0  0  0  0
 17 39  1  0  0  0  0
 18 40  1  0  0  0  0
 19 41  1  0  0  0  0
 20 42  1  0  0  0  0
 20 43  1  0  0  0  0
 20 44  1  0  0  0  0
 21 45  1  0  0  0  0
 21 46  1  0  0  0  0
 21 47  1  0  0  0  0
 22 48  1  0  0  0  0
 22 49  1  0  0  0  0
 22 50  1  0  0  0  0
 23 51  1  0  0  0  0
 26 52  1  0  0  0  0
 26 53  1  0  0  0  0
M  END
> <OMEGA_C>
ck95QFpkjsDvqZvBnCF/QP2ETMAKtaDBQBmMQLaZu77dZ6fBcaPMQJbbjb/psLDBFqOOQGbOXj+o
sKzBNI/PQIH1Dz4hzLXB9dGhQHixpsDs1pnB8wnNQGOPXcBcIqLB8v+qQO+Or7/rYqnBO9SnQFch
LMArAKTBmeKwQI/bkT/stbPBsi7KQHG4lsAB/5zBkJXdQODya0DcD6HBICu4QE27cEBX5qbB3dDa
QIvEaUBMW5XB4HiNQCXrbkBJPZfB6OTeQLPHTkAQdbnBv7+zQJ5KHkBKZ7nBxpK4QLBPcUCdCbPB
rvAIQUB24sANDpDByzIKQet6k8AtmYvBxXmtQCT5aUA0zITB3xf5QFX0t8DeXZDBiEeQQJ4oc0CR
w6HB0CGyQJzAaEB6m5DBDkRJQIjJcEBmzJLBpdn7QDg7aEDyDpDBZvzuQDc6rsAvb5vBmLU7QDuN
msDNMJnBg+VFQORZJ8D6E6LB4ulkQOsxDb84zqHBnSvkQNiV778cWLLBZIdsQH0dzz8ZX6vBSV3p
QG1pqz6mVLvB2YCfQGWbxcA9BZbB8NrrQErERcCQrKTBFkL8QFHbaUCoCKXBzMX6QCjrM0BhQ7XB
Kp7pQHUpcED5ucDBVQuhQHGbI0Ac1MDBhdOoQLSMlECnr7bBdfz9QAsS/MBTepPBFMAXQW1S38B9
vpTBWPIMQZ5k6sDvt4fBdRsBQQK5asAr4ovBwzUOQTwUm8BFPoPBfwMZQQsCkMDTRJDB9U6LQNLl
aECZr4LBXWW9QOx/MUANXoHB40e8QM02kkCblIHBoIzbQFZEu8Cjp4vBnr8dQFZKdUAqo5jBqEc/
QIoUO0BioY7B

> <OMEGA_E>
KFQTPw==

> <OMEGA_NBR>
     53415

$$$$
50219807
  -OEChem-04172616093D

 47 50  0     1  0  0  0  0  0999 V2000
    5.8075   -4.6637  -20.1180 C   0  0  0  0  0  0  0  0  0  0  0  0
    5.8951   -3.4322  -20.7831 C   0  0  0  0  0  0  0  0  0  0  0  0
    6.4420   -0.7266  -21.8062 C   0  0  0  0  0  0  0  0  0  0  0  0
    4.2503   -0.0422  -20.9802 C   0  0  0  0  0  0  0  0  0  0  0  0
    4.9830   -4.7990  -18.9923 C   0  0  0  0  0  0  0  0  0  0  0  0
    6.5587    0.4792  -22.5132 C   0  0  0  0  0  0  0  0  0  0  0  0
    4.3614    1.1554  -21.7088 C   0  0  0  0  0  0  0  0  0  0  0  0
    4.3273   -2.4531  -19.1916 C   0  0  0  0  0  0  0  0  0  0  0  0
    5.2866   -1.0063  -21.0342 C   0  0  0  0  0  0  0  0  0  0  0  0
    5.1638   -2.3091  -20.3258 C   0  0  0  0  0  0  0  0  0  0  0  0
    4.2363   -3.6970  -18.5178 C   0  0  0  0  0  0  0  0  0  0  0  0
    5.5251    1.4305  -22.4579 C   0  0  0  0  0  0  0  0  0  0  0  0
    6.9537    3.7960  -20.1549 C   0  0  0  0  0  0  0  0  0  0  0  0
    5.7925    3.9575  -20.8804 C   0  0  0  0  0  0  0  0  0  0  0  0
    6.8548    3.5844  -18.7118 C   0  0  0  0  0  0  0  0  0  0  0  0
    4.4440    3.6544  -18.9564 C   0  0  0  0  0  0  0  0  0  0  0  0
    3.3832   -3.8468  -17.3154 C   0  0  0  0  0  0  0  0  0  0  0  0
    7.0176    3.4899  -23.2034 C   0  0  0  0  0  0  0  0  0  0  0  0
    5.6599    2.7451  -23.2005 C   0  0  2  0  0  0  0  0  0  0  0  0
    5.8246    4.0311  -22.3937 C   0  0  1  0  0  0  0  0  0  0  0  0
    5.4300    3.2669  -16.6781 C   0  0  0  0  0  0  0  0  0  0  0  0
    4.5392    3.8889  -20.2521 N   0  0  0  0  0  0  0  0  0  0  0  0
    5.5840    3.5409  -18.1261 N   0  0  0  0  0  0  0  0  0  0  0  0
    3.1673    3.5035  -18.4268 N   0  0  0  0  0  0  0  0  0  0  0  0
    2.5870   -2.8040  -16.8815 N   0  0  0  0  0  0  0  0  0  0  0  0
    7.8806    3.4439  -18.0559 O   0  0  0  0  0  0  0  0  0  0  0  0
    3.3602   -4.9006  -16.6898 O   0  0  0  0  0  0  0  0  0  0  0  0
    6.3766   -5.5099  -20.4738 H   0  0  0  0  0  0  0  0  0  0  0  0
    6.5273   -3.3393  -21.6537 H   0  0  0  0  0  0  0  0  0  0  0  0
    7.2422   -1.4506  -21.8507 H   0  0  0  0  0  0  0  0  0  0  0  0
    3.3730   -0.2273  -20.3782 H   0  0  0  0  0  0  0  0  0  0  0  0
    4.9182   -5.7503  -18.4850 H   0  0  0  0  0  0  0  0  0  0  0  0
    7.4432    0.6770  -23.1005 H   0  0  0  0  0  0  0  0  0  0  0  0
    3.5509    1.8691  -21.6949 H   0  0  0  0  0  0  0  0  0  0  0  0
    3.7545   -1.6088  -18.8375 H   0  0  0  0  0  0  0  0  0  0  0  0
    7.9168    3.8253  -20.6427 H   0  0  0  0  0  0  0  0  0  0  0  0
    7.8858    3.0570  -22.6849 H   0  0  0  0  0  0  0  0  0  0  0  0
    7.3559    4.0174  -24.1074 H   0  0  0  0  0  0  0  0  0  0  0  0
    5.0726    2.8356  -24.1263 H   0  0  0  0  0  0  0  0  0  0  0  0
    5.3380    4.9166  -22.8286 H   0  0  0  0  0  0  0  0  0  0  0  0
    4.3621    3.2749  -16.4144 H   0  0  0  0  0  0  0  0  0  0  0  0
    5.8579    2.2809  -16.4440 H   0  0  0  0  0  0  0  0  0  0  0  0
    5.9560    4.0413  -16.1005 H   0  0  0  0  0  0  0  0  0  0  0  0
    2.4897    3.6030  -19.1554 H   0  0  0  0  0  0  0  0  0  0  0  0
    3.0826    2.5964  -18.0145 H   0  0  0  0  0  0  0  0  0  0  0  0
    2.0090   -2.9189  -16.0736 H   0  0  0  0  0  0  0  0  0  0  0  0
    2.5887   -1.9345  -17.3755 H   0  0  0  0  0  0  0  0  0  0  0  0
  1  2  2  0  0  0  0
  1  5  1  0  0  0  0
  2 10  1  0  0  0  0
  3  6  2  0  0  0  0
  3  9  1  0  0  0  0
  4  7  1  0  0  0  0
  4  9  2  0  0  0  0
  5 11  2  0  0  0  0
  6 12  1  0  0  0  0
  7 12  2  0  0  0  0
  8 10  2  0  0  0  0
  8 11  1  0  0  0  0
  9 10  1  0  0  0  0
 11 17  1  0  0  0  0
 12 19  1  0  0  0  0
 13 14  2  0  0  0  0
 13 15  1  0  0  0  0
 14 20  1  0  0  0  0
 14 22  1  0  0  0  0
 15 23  1  0  0  0  0
 15 26  2  0  0  0  0
 16 22  2  0  0  0  0
 16 23  1  0  0  0  0
 16 24  1  0  0  0  0
 17 25  1  0  0  0  0
 17 27  2  0  0  0  0
 18 19  1  0  0  0  0
 18 20  1  0  0  0  0
 19 20  1  0  0  0  0
 21 23  1  0  0  0  0
  1 28  1  0  0  0  0
  2 29  1  0  0  0  0
  3 30  1  0  0  0  0
  4 31  1  0  0  0  0
  5 32  1  0  0  0  0
  6 33  1  0  0  0  0
  7 34  1  0  0  0  0
  8 35  1  0  0  0  0
 13 36  1  0  0  0  0
 18 37  1  0  0  0  0
 18 38  1  0  0  0  0
 19 39  1  0  0  0  0
 20 40  1  0  0  0  0
 21 41  1  0  0  0  0
 21 42  1  0  0  0  0
 21 43  1  0  0  0  0
 24 44  1  0  0  0  0
 24 45  1  0  0  0  0
 25 46  1  0  0  0  0
 25 47  1  0  0  0  0
M  END
> <OMEGA_C>
Fde5QFY9lcCV8aDBXaS8QFypW8C0Q6bBGCXOQNH/Ob8vc67BkQKIQLD8LL1y16fBAXWfQKWRmcAo
8JfBr+DRQNFe9T4CG7TBWJCLQNnkkz+Uq63BHXmKQGIAHcBQiJnB2SupQJrPgL/6RajByT2lQJLI
E8A9m6LB3o+HQI6bbMBwJJTBfc2wQAQatz+5qbPB0YTeQAHyckAtPaHBLVy5QJhHfUAWC6fBtFrb
QHZmZUDPsZXBKTWOQPngaUDOppfBIodYQL4xdsDphYrBA5DgQKVaX0CMoLnBlx21QGavL0C5mrnB
e2O6QL3+gEBQJrPBhMKtQKwUUUCqbIXBBkGRQCDkeEBjBKLBbLCyQKCdYkBGApHBOrVKQN45YED9
aZPBqpAlQN10M8BSDYfBxS38QGRoXECTcpDBqA1XQFHRnMCmhIXBwAzMQOpQsMBcyqPBht/QQIC3
VcDWOq3Bzb/nQLOsub8tzq7Byd5XQA/JaL6JBqPBwWGdQHUCuMBc4ZPBvi7uQKdSLT+7zbjBTEJj
QKc/7z8ij63Bh0lwQNXszb8vs5bBalb9QLDRdEBRJKXBQVj8QI+mQ0CderXB3GPrQLyOgED328DB
wlKiQOl5NUCTAsHBv9CqQGlUnUD1oLbBPZaLQFGYUUCyUIPBA3S7QL/6EUBZjYPBSpe+QKpSgUDT
zYDBLVcfQISXZkBIPpnBk0lFQGUrJkC8HZDBopMAQDPPOsCkloDB66wlQOSe97/+AIvBdbm8QLAr
lsA0/aDBp2O/QHwVXcDyN6bB7XeJQCjrkr3xmKfBjRrPQKVcPr9nl67BJnuhQPBFm8DQK5jBSmCM
QI6gkD8GZa3BiijSQLBh7j7UPLTBlr+LQFPPIMBur5nBKLKqQAQ/hL+XOajB6DunQP0CFsDKmqLB
N5GIQHkiccDdeJTBd/6wQOS+tD95mLPBr+DdQKA1cED2VqHBlq+4QLdGfEAmFKfBkcvaQCDaYEDb
1JXB6aiNQI5OaUDMp5fBPUZXQGvFfMACMIvBvHrfQNpmX0CzxbnB22u0QJx7LkBkl7nBrF+5QGKU
gEABMLPBH3itQAWETUA5goXBzbOQQHi3ekAN96HBfiGyQFdoWkDBMpHBaYxJQFrsZECfTJPBLCUk
QGdUOsBeqYfBfq37QBbLV0Cum5DBxuZUQM11oMAsV4bBRbfPQFTTsMCvw6PBtBnUQLwpVsC0FK3B
Qp5bQB+Hhr7SpaLB0M3oQOQ+u7+6Ga/BAYefQFjgucDGL5TB3c5kQCC06z/+GK3BnQXuQPhXKz8J
FbnBThtyQPis1r+C1ZbB+qX8QBsRckAvRKXBDqv7QHilREDusrXBlLHpQCSfgEDYDcHBDjehQEt+
M0B58MDBjjSpQEminECGo7bBhEyLQFwWSkCRcIPB0VG9QE5/EUBnLIPBLFe8QEOygUA2PIHBSTYe
QG1ScEDcApnBGuU/QESUKkCWPZDBQKr8Pwt5QsC3SYHB4/YkQDsdAsDue4vB5VuJQO0tlcD80J3B
iRyJQCY/W8DhLKPBDuCGQCNvDr/e+6nBITHUQCEvP78kXKzB+netQHbXocDp4ZfBW1WHQOeOKz+y
gK/Bb43UQMoq8j7c57HBAE7RQKNVPsBbo5zBDl2tQJo5o7+DXKjBbCetQJKiJMDpo6LBPdDRQHvn
hsDoPZfB6yeuQEmcmD8edbPBhdzVQG2qVECswqHB30mzQDX2dEAjXKfBKDrVQEI/WEAUDZbBBWeQ
QJ3Rj0A8ZJfBHgb4QLgXlMAT+5DBhgrXQGoRVkDhiLrBu9etQBt1IEAojrnB38exQA72dUAdh7PB
+BSwQPqygkCaMIXBf5mQQArsjECg7qHB9KuyQNJ/gEDZBpHBr71ZQGzbokBHp5LBto74QEncusAH
nIvBNAvzQAoQOUCW/pDBF+ALQakiesATe5DBCoRbQE/nqcBhQZ7BnJ5aQLwaSMA9t6fBcxVSQMhw
c79T+abBVr3xQK+RpL/YIqvBSnatQOVIwMDyypPBWrdTQA5Pmz+gtrDB5E3yQAAGXT/q/7TB1Nfs
QN28FMBZLJzBUdXwQH9OOUAu8aXBW9X0QFunP0ANx7bBY5beQCXOdkDtF8LBb+iYQB4PIkCBoMDB
7DyfQBxwlUBRBbfBAM+SQBrZk0Aj2ILB6lKvQBUuRECy4YHB2zPMQPnIk0BfEILB4UEwQPu6q0C6
U5jBjJw9QGjvjUDiuY3BujgJQSmNw8AscIfBkw7fQBwozsA354vBiJJ5QCdhjsCVr5vBTxh/QOqf
TMA9v6DBjgSMQKV6ur5kZ6fBYYbMQBnKjb9TsrDBLwGiQF2SpsBE05nB4JeOQEpHXz9EsazBRn/P
QK4eED4HzbXBQxTNQKu3XMDECKLB5ueqQE9Gr78YYanBN8WnQFTkK8C9+aPBMYXKQL/GlsDRAJ3B
w9ywQAP7kT/ktbPBu5/dQCrja0DUDKHB3Di4QGK2cECF5KbBLNTaQJ6waUBkWJXBf32NQKrgbkAd
PZfBEurxQLJDsMAjF5vB4PfeQEG4TkANcrnBY8qzQE9YHkBrZrnBdqe4QKNTcUCzB7PBtnStQFbj
aUD9yoTBbFKQQIMlc0A5w6HBUiKyQHKuaEAWmpDBy0dJQLm/cEDCzZLBcpzvQJvI18AIG5bBp9n7
QFkjaEDACpDB14YKQXH4osCQ7p3BLQU8QE6fmsAmOJnBdbRFQPjYJ8AOLqLBRrlkQKh9DL96zqHB
EADkQH2x77/2W7LBramfQEZfxcBI85XB/HZsQCNrzz8dYavBek7pQI8Qqz6zVbvBFeTrQLHuQ8DN
bKTBWk78QGDGaUCRBKXBx9H6QAbGM0CjP7XBDLvpQI0YcEAmtsDBQBuhQMy5I0Dh08DBxPOoQG+V
lECfrbbB4EiLQC/SaEBor4LBe129QJpnMUCqXIHBiUK8QLkqkkCkkoHBt8odQNRGdUBOpZjBvkM/
QDAIO0CLo47BWyAFQQHV6MBL5JTBgU7TQCJE48B7uJPBVgJ6QByQjsA2qJvBUS1/QMjxTMCQuaDB
UfWLQAj/ur5EZ6fB5nfMQBL5jb85sbDBPFiiQFKbpsDkypnBN5WOQGseXz9BsKzBE33PQJ2oDj6r
yrXBAiDNQLxjXMCkAKLBbdWqQGtsr78rYKnBhr6nQHPtK8Bb9aPBrMjKQHKZlsAH+JzBneCwQKrc
kT+js7PBc6zdQEDfa0DRC6HB8ki4QF2xcEDI5KbBY9raQK23aUBsV5XB/YSNQMrmbkAOP5fByGry
QLO2r8C3DZvBegzfQKiRTkB1cLnBCtmzQEtFHkD/ZLnBkb24QPxDcUC5B7PBvG+tQFD6aUDDy4TB
xV+QQEEkc0ALxaHByiWyQLG6aECdmpDBvFFJQLjHcEBI0ZLBEPoMQWAvoMB/R57B1dz7QA8waECW
CJDBb97wQI2l0sCXnJbBV5A8QFLvmsBuMJnBPKNFQM9lKMD/J6LB6Y1kQGy2DL8f0KHBvuvjQEr0
779yW7LBDCWgQPRrxcBt65XBIHpsQJ5ozz9OYKvBy1DpQDUkqj49UrvBMOLrQNNOQ8BHY6TBJV38
QGO7aUB+AqXBu+H6QIGXM0DpPLXBNtbpQFPlb0DbtMDBsC2hQOmnI0AK08DBnxGpQE6PlEDqrrbB
YkKLQMbraECxsYLBv1W9QFaBMUDuW4HBjzu8QII3kkCTk4HBpdsdQP1JdUCzqZjBfUk/QP0SO0Co
po7BcjMaQQ5qscAE95zBkgAOQSjDg8A566HBCi56QBopl8Df/J/Bd+R/QHhzXsBaH6XBhIGRQPgG
jL/i6LLBv8PEQFx5yb50U6XB93mfQLxypsDIy5nBZVWVQPI9JD6J7bfBqdXJQE/+Uz98marByBHI
QIwdTMCn/53BFPuoQGFbsL+0fanBfIGlQJeMLMC3JqTB1krFQCzijcDbuZjBR1WxQFmSkT/zxbPB
xeDdQDAfdUArAqHB+3a4QAj9dEAv56bBfCXbQLT9bkAIV5XBrcSNQFmRb0AeRJfBW8HpQHOAncDB
KpLBXOvfQJCOUEBcObnBQsC0QEEYH0CvdLnBqGW5QA75ckBbDrPBws+tQB8VaUBK0ITB/4KQQOXd
cUDiz6HBtn6yQHKJb0BomJDBIeFJQM5rbUBl05LBsEcHQb4UhcC/BZHBBiv8QD3CaUBVEpDB9M/n
QCsZwMBEk43BD9NAQIAsqsALzKDBdcVKQBomR8Ad0qnBHRx5QBoC7L/DQrbBWDDWQCUDFr9sBp7B
i/2cQH8TxcCS15XBNLmCQK2VwD4sAL/BOsbgQADNxT9poKfB/wDlQAizJsDnU53B9pL8QHGqeUD5
76TBqnT7QOntNUBX3rTBxj7rQO/8cUCwbsDB87GiQMCLJECl+sDB4N6pQMMolUCQ3bbBEqmLQBef
akCrsILBhP67QIWiLEBuBoLBaFG+QPWZj0CY/IDBcDUeQIQAbkBprJjBHydDQIsgOEALeo7BmmAT
QVDSj8AQh4zBnHEIQSl8UcBJsZTBkwp6QCkLl8AaAqDBwAaAQM82XsDIH6XBl6qRQAkqjL+J5rLB
y/nEQILzyb4jVKXB6lOfQBh5psBV0pnBJnKVQDjhIj6d67fBHfvJQIDhUz89mqrBayjIQJZNTMCi
953BHS2pQH5wsL/3e6nBS6elQPqHLMDxIqTB9jjFQDUOjsD7uZjB8m6xQGF1kT9/xbPBYOPdQNMh
dUBdBaHBM3m4QNTzdEA/6qbB4SjbQHIGb0BAWpXB9ceNQK+Jb0AiR5fB8Y3pQNQSnsAPL5LBGvHf
QJePUEAXPLnB6cy0QOEDH0DXdbnB/2e5QBPsckAuEbPB+9KtQKMnaUCA04TBZIWQQHDPcUDx0qHB
AoKyQO+Nb0Cnm5DBu+hJQAdhbUAT1pLBAPPmQMxRxcCjFI3BDS/8QK7VaUCkFZDBwCwFQRnliMC/
JpHBb49AQFL0qcAI1KDB5AlLQMSyRsAf06nBVnJ5QA027L9SP7bBNHbWQLhNFr+PCZ7BtrqcQOIg
xcCx4pXBLM+CQCylvz5j/b7BzefgQCvWxT8koqfBpxzlQFr9JsDKQp3BH5X8QMCxeUBN86TB5X77
QFQCNkD+4LTBez7rQLz7cUAscsDBMLyiQJFkJECm+8DB/tipQIEclUDo4LbBG6yLQLGrakABtILB
cQW8QDm8LEBjCILBCVG+QMSnj0DaAIHBmzseQHLubUDvrpjBxDNDQD0YOEAgfI7BQnz/QB3Wz8BP
q4jBIYjMQJ0k18CRzo3ByBuLQClynsAwvaPBleyNQH2gbMBrxajBLzWIQC+VWL8uz6/B5ojPQGVZ
EL8CMqjBl9egQBnspcAyD5rBZv2LQCZ4zT4f67TBcjjTQFpkLj8SR63BvDi8QJS1OcDiYZrBmhOq
QOjLq7/ZbqnB4ZSmQC5gKsDSIaTBCKa5QAMlhcBdS5XB5ZGxQOa0lT8Qw7PBfbXdQIgRbkDSEaHB
H0O4QHxucUCT6qbBwfHaQOGMa0CTXZXBjpKNQJCZb0BIQ5fBgLLQQMvYjMDxE4vBSdXeQOTqVEC4
q7nBY2G0QPejIEC+iLnBNai4QO1pc0DDC7PBIZKtQDaPakCqz4TBdlGQQFrxcEAYzqHBV1CyQMr+
bkCOm5DBG3NJQDsTb0DO0ZLBk/7NQI4qtMAmAobBiPL7QC25Z0B4EpDBdp3mQNptYcBN+obBFm1w
QE6bt8DzT6fB3ml6QOd/YcA+NLDBjapWQOG5tr/BwbDBO3zpQFdKbr9hTaPB8paeQPbXxMDhPZbB
J+pjQJUDRj89wrnB7+PvQICRoj9WPKzBLe/OQAw7B8CgyJbBeGj8QPNObUBpCaXB6YX7QPOxO0Dz
qbXB3FnoQAYXeEC06cDBiBOhQDLhJUAT3cDBRpenQOAhlUDrirbBKXWLQDVCbkDwsILBZfC6QMvL
LUDJ4YHBWs++QIUqkECbHIHB0MkdQCvYb0AEq5jBf+hBQLBAOkDtZo7By7jdQFEkucB1Tn7BzVC8
QAaUy8AYNInBoLa8QOF7lcCWpKDB4FjAQCSCXMAdBqbBTfPQQK5gQ7/e7a7BJdqLQIBEF71k96fB
sGmgQJe8mcDfAZjB0i3VQJCl5T58f7TBHuGPQG4BlT/Ntq3B4pSLQCiiHcC4/pnBuVusQIXigr9r
iajBfwOoQPiQFMBaw6LBRHuHQGoVbcBfoZTBJxG1QJmttj+ywbPBMiGOQEHmgUApdKLBGxS2QH67
fECWB6fB2JaJQMwSckBdAZfB1qLWQBYQYEBHWJbBEgVUQHJ0dsA5bIvBoRzkQPDyYUA1UrjBOV66
QFYEMEARirnBYXS6QHDigUB5DrPBso+sQOxTU0ASWYXBIVnaQAoqbUA6uqDBIYiuQFRzX0BiGJHB
iBH8QLakUkDnmZDBwhwvQC5TL8Cnv4bB3IVLQHhDcECMA5PB+GJGQJ9snsCmcofBesfPQLV9sMBg
KaPBr/LVQIHfVsA/u6zBat/pQE7/wL+DhK/BQ7dfQMy8Vr6NF6PBO6mdQKQOuMAm65PBKynxQKfy
ID8RXLnBMahsQJwH8j8dga3B9rlxQDTazr9JYZfBKX5lQJMCi0AVNafB4gn+QGpXSECRTbPBNunx
QBXFgUAkPr/BJCyrQIkRNED/dcHBKoirQIbUnUBl5LbBMcrMQI5XRUBsRYLBalmgQDUEh0D7kYHB
+BGXQJCcHUDweoPBV5MKQUpBVUDojpXBLwT/QEbpf0CC/orBMTQKQAX1NcAJRIDBPE85QD9t6r9F
2YnBGSC4QOpxjcB+6Z3Bix2+QPV1TcBWbqPBQDbRQLx1275bb6rBifCDQGyPh71O0KrB1T+VQI5M
ksCm55bB/nTXQMXQRT+RB7DBfUCKQHnkkD+LfrDB4018QGHiEsAO7prBPXOnQLVZXL/2x6fB3yWh
QA7KCMDD+6HBidtvQBKeYMA6WZXBKQu0QP/ixz8dDbPBD7PZQF4fl0DQ/6DBf224QJaph0AvIqfB
/MDUQGCUl0B8UZXBLTaPQNB9bEAA25fBPk8mQMaWasAS7I3BAMnkQEJBaUBbYbjBpje6QO7PNkDF
NbnBe9u7QH0hhkAYNbPBHS+oQL9lhkCVLIXB1DWTQJsZb0A/W6LBBJKvQL+WhUBf5ZDBLPxSQHoR
SkDnyZPBxcsZQJRYm8CWdIjBiQzxQK1Ap0B8wY/BwAjnP4zZL8AffYzB/lfOQBOFp8CqDZ/Br/LY
QJdQRsBtzajBhnvsQC9zg79WJKjB4ddHQOczw74dwqjBBs2QQKkgsMB3r5LBpHj3QEMHjD/EBrLB
EhBeQNzQ3D9I6LLBUORPQPpqvb/LypnBxbn2QPagokD2s6TBzfL+QOX6UEDhVbPBGUDyQDxThEBN
gL/BZ8GqQNg2OUAjHMHBGR+tQIA7oUATcrfBhnyJQKKebUB+V4PBCD7CQIpwakDdGoHBA1unQJ3E
p0C7YYLBnyktQGL5N0A31ZnB1LNgQJ9PF0A3Oo/BplDQPx1vnsAJd4PBz2ZCQKq5s8Dtf4nB

> <OMEGA_E>
lMKUPmAClj4so3Y/eOENP5AADj9YcCQ/+GMkP9SHHj/mfhw/ZKozPw==

> <OMEGA_NBR>
     61831

$$$$
50219778
  -OEChem-04172616093D

 50 53  0     1  0  0  0  0  0999 V2000
    5.7607   -4.6163  -20.0462 C   0  0  0  0  0  0  0  0  0  0  0  0
    5.8802   -3.4181  -20.7729 C   0  0  0  0  0  0  0  0  0  0  0  0
    6.4659   -0.7241  -21.8800 C   0  0  0  0  0  0  0  0  0  0  0  0
    4.2762   -0.0303  -21.0463 C   0  0  0  0  0  0  0  0  0  0  0  0
    6.5756    0.4800  -22.5908 C   0  0  0  0  0  0  0  0  0  0  0  0
    4.3787    1.1589  -21.7774 C   0  0  0  0  0  0  0  0  0  0  0  0
    4.9828   -4.6518  -18.8784 C   0  0  0  0  0  0  0  0  0  0  0  0
    4.4248   -2.2959  -19.1709 C   0  0  0  0  0  0  0  0  0  0  0  0
    5.3186   -0.9864  -21.0962 C   0  0  0  0  0  0  0  0  0  0  0  0
    5.2065   -2.2485  -20.3418 C   0  0  0  0  0  0  0  0  0  0  0  0
    5.5396    1.4308  -22.5256 C   0  0  0  0  0  0  0  0  0  0  0  0
    4.3394   -3.4830  -18.4317 C   0  0  0  0  0  0  0  0  0  0  0  0
    6.9375    3.7295  -20.1600 C   0  0  0  0  0  0  0  0  0  0  0  0
    5.7777    3.9115  -20.8830 C   0  0  0  0  0  0  0  0  0  0  0  0
    6.8401    3.5171  -18.7171 C   0  0  0  0  0  0  0  0  0  0  0  0
    4.4302    3.6355  -18.9508 C   0  0  0  0  0  0  0  0  0  0  0  0
    7.0161    3.5065  -23.2172 C   0  0  0  0  0  0  0  0  0  0  0  0
    5.6673    2.7529  -23.2413 C   0  0  2  0  0  0  0  0  0  0  0  0
    5.8137    4.0177  -22.3983 C   0  0  1  0  0  0  0  0  0  0  0  0
    5.4217    3.2387  -16.6742 C   0  0  0  0  0  0  0  0  0  0  0  0
    1.2473   -4.1166  -16.5891 C   0  0  0  0  0  0  0  0  0  0  0  0
    3.4689   -3.5295  -17.2224 C   0  0  0  0  0  0  0  0  0  0  0  0
    4.5242    3.8633  -20.2489 N   0  0  0  0  0  0  0  0  0  0  0  0
    5.5720    3.4995  -18.1255 N   0  0  0  0  0  0  0  0  0  0  0  0
    3.1533    3.5213  -18.4113 N   0  0  0  0  0  0  0  0  0  0  0  0
    7.8660    3.3604  -18.0651 O   0  0  0  0  0  0  0  0  0  0  0  0
    2.2116   -4.0613  -17.6422 O   0  0  0  0  0  0  0  0  0  0  0  0
    6.2666   -5.5078  -20.3863 H   0  0  0  0  0  0  0  0  0  0  0  0
    6.4889   -3.3893  -21.6645 H   0  0  0  0  0  0  0  0  0  0  0  0
    7.2607   -1.4535  -21.9315 H   0  0  0  0  0  0  0  0  0  0  0  0
    3.4003   -0.2186  -20.4431 H   0  0  0  0  0  0  0  0  0  0  0  0
    7.4539    0.6776  -23.1875 H   0  0  0  0  0  0  0  0  0  0  0  0
    3.5654    1.8693  -21.7674 H   0  0  0  0  0  0  0  0  0  0  0  0
    4.8786   -5.5731  -18.3245 H   0  0  0  0  0  0  0  0  0  0  0  0
    3.8908   -1.4164  -18.8428 H   0  0  0  0  0  0  0  0  0  0  0  0
    7.8996    3.7436  -20.6504 H   0  0  0  0  0  0  0  0  0  0  0  0
    7.8850    3.0666  -22.7059 H   0  0  0  0  0  0  0  0  0  0  0  0
    7.3548    4.0605  -24.1051 H   0  0  0  0  0  0  0  0  0  0  0  0
    5.0827    2.8603  -24.1669 H   0  0  0  0  0  0  0  0  0  0  0  0
    5.3225    4.9101  -22.8137 H   0  0  0  0  0  0  0  0  0  0  0  0
    4.3556    3.2665  -16.4046 H   0  0  0  0  0  0  0  0  0  0  0  0
    5.8344    2.2474  -16.4353 H   0  0  0  0  0  0  0  0  0  0  0  0
    5.9639    4.0084  -16.1054 H   0  0  0  0  0  0  0  0  0  0  0  0
    0.3053   -4.5333  -16.9752 H   0  0  0  0  0  0  0  0  0  0  0  0
    1.6261   -4.7565  -15.7785 H   0  0  0  0  0  0  0  0  0  0  0  0
    1.0682   -3.1025  -16.2024 H   0  0  0  0  0  0  0  0  0  0  0  0
    3.9183   -4.1787  -16.4564 H   0  0  0  0  0  0  0  0  0  0  0  0
    3.3347   -2.5176  -16.8126 H   0  0  0  0  0  0  0  0  0  0  0  0
    2.4734    3.6368  -19.1354 H   0  0  0  0  0  0  0  0  0  0  0  0
    3.0470    2.6182  -17.9953 H   0  0  0  0  0  0  0  0  0  0  0  0
  1  2  2  0  0  0  0
  1  7  1  0  0  0  0
  2 10  1  0  0  0  0
  3  5  2  0  0  0  0
  3  9  1  0  0  0  0
  4  6  1  0  0  0  0
  4  9  2  0  0  0  0
  5 11  1  0  0  0  0
  6 11  2  0  0  0  0
  7 12  2  0  0  0  0
  8 10  2  0  0  0  0
  8 12  1  0  0  0  0
  9 10  1  0  0  0  0
 11 18  1  0  0  0  0
 12 22  1  0  0  0  0
 13 14  2  0  0  0  0
 13 15  1  0  0  0  0
 14 19  1  0  0  0  0
 14 23  1  0  0  0  0
 15 24  1  0  0  0  0
 15 26  2  0  0  0  0
 16 23  2  0  0  0  0
 16 24  1  0  0  0  0
 16 25  1  0  0  0  0
 17 18  1  0  0  0  0
 17 19  1  0  0  0  0
 18 19  1  0  0  0  0
 20 24  1  0  0  0  0
 21 27  1  0  0  0  0
 22 27  1  0  0  0  0
  1 28  1  0  0  0  0
  2 29  1  0  0  0  0
  3 30  1  0  0  0  0
  4 31  1  0  0  0  0
  5 32  1  0  0  0  0
  6 33  1  0  0  0  0
  7 34  1  0  0  0  0
  8 35  1  0  0  0  0
 13 36  1  0  0  0  0
 17 37  1  0  0  0  0
 17 38  1  0  0  0  0
 18 39  1  0  0  0  0
 19 40  1  0  0  0  0
 20 41  1  0  0  0  0
 20 42  1  0  0  0  0
 20 43  1  0  0  0  0
 21 44  1  0  0  0  0
 21 45  1  0  0  0  0
 21 46  1  0  0  0  0
 22 47  1  0  0  0  0
 22 48  1  0  0  0  0
 25 49  1  0  0  0  0
 25 50  1  0  0  0  0
M  END
> <OMEGA_C>
SVe4QLq4k8CyXqDBmiq8QCPCWsDOLqbB9OjOQIxbOb9OCq/BcNaIQMAv+Ly6XqjBXGvSQIzH9T4A
urTBTR6MQMJVlD8TOK7BT3OfQEzblMDkBpfB8peNQL3vEsAVXpnBpTGqQMyFfL8axajB6pumQOfm
D8D3u6LBBkSxQF8jtz9lNLTBlNyKQEHpXsAwdJPB7P/dQM2vbkCXR6HBkOK4QJ1VekBlEKfBTuLa
QKAXYUCivJXBGMSNQG+saEBBm5fBjoPgQEFqYEC7vLnBx1q1QOQuMEBE7rnBlQm6QFSRgEDCL7PB
Yn6tQCdGT0DYZIXBkqafPyi7g8BgtoTBMQJeQO3jYcBmx4nBO8aQQIc/d0DL/aHBjE2yQJ/3X0AY
AZHBatBJQDtdYUBYSpPBeLb7QD8RV0BYhZDBaYsNQM71gcBLI43B1IfIQOI/sMA6F6PBb6XPQJfq
WMDcUK3Bg1foQB4Nur+2c6/B/p5ZQHXNX75gi6PBMIbuQJF1LT/6f7nBwi5kQIJG7z+tI67BZB2c
QJVWssCfmJLBeQJ5QNFLtb8CvpbBnMn8QEeXb0D/M6XBGFL8QDlDREChpbXBQlrrQHbvgUAm18DB
mqWiQNEPN0DTVcHBIlKqQCQfnUCAgrbBC2GLQOcOUUCsPIPBO7O6QF/VD0CIe4PB89e+QK1EgEDl
14DBSlWcPt8QkcA3zYfBgSPQP/A0mMCIdHzBkrmIPw+PRsCInoHByMV6QKW3hcDLpoPBZmxVQMcf
IcAsgIbBukweQPPAaEBlFZnBSQFDQOKQJ0BH9o/BITJ9QNmIlsA5TqDBUXuBQHkUXMARKqXBuYGF
QJmmDL86M6vBcN3SQO2PWb8tj6zBrRGJQJpeMT+0Z7DBCVnWQBqrxz7uwbHB1tugQCo8psBnKJrB
ZgnJQMmGScDQpJ3B/GuqQPasqr+HP6nBndqmQGvJKcAz7aPBiHixQBeclT9+r7PBpvLFQNkVjcCr
qpjB2KLdQNPdbEA2G6HBcya4QCSscECr76bBK/naQHA8a0AFZpXBGZmNQInGb0CfQpfBpfLeQEhL
U0ADmbnBtGm0QBnpH0DgfrnBR3y4QNWvckBiELPBwLutQJhAa0Bh0oTBq0bKQFzcnMDbj4DB3Fnr
QA4ZnsDKLJLB90CQQFfRcEDRzaHBNGSyQFUwb0B9n5DBUpRJQOKJb0AAzJLBAAb8QK3GZ0B3HpDB
ZtHcQFNmtsA3BInBwxREQDOXqcAdTKHB2SBOQI4hRMC43KnB2vhMQA0baL+xrqjBvjvvQPYYuL8L
FKvBrYhZQB9cpD/X5LHB5FT1QBS2Pz/iSbTBxM+eQBqaxcAfkZbBo63lQLCnI8DnqJzBXUr8QF4g
a0AYF6XBp2j7QMjhOUAhgrXBjtboQD3udUBY2cDBPl+hQCjXJEAM38DB6LenQMvglEDomLbBDaWL
QApOb0Dzr4LBLwG7QLN/LkCr3IHBqhu/QB2EkEDvKYHB/C3AQIDascDa7XPBwS7iQATfhcCoOnvB
zFquQLZoi8BTrIPBHv7+QBLqssBHTJfBTcf+QLT5gsBwXo/Bg9MdQF88cEB/opjBegBCQG3aOkDW
Wo7Buep9QFOalsAYJ6DBY5OBQCbMXMB5M6XBbTOFQBagDL9uTKvBEZXSQEyDWb9jmazBLuKIQBTT
MT+ferDBmC7WQIYVyD7ixrHBKkahQAGdpcCv4ZnBiIbIQJ2CR8DagJ3BIBOqQLqIqr/dUKnBRIum
QIRrKcB876PBQlqxQCTnlT8gt7PBZ2vGQCtsjMA1p5jB7qvdQOrHbEC9FqHBXDO4QHuscECL7KbB
evraQKESa0ChYZXBwJuNQFuyb0BgQZfBVgPfQD1cU0BAlbnBsGq0QMYmIEB3gLnBnpC4QNnRckAI
DbPBbLCtQKcNa0Dwz4TBjdcQQT7Jo8Bne5/BDyHrQEEAnMABspHBrEqQQPbQcEBozKHBRWKyQMYG
b0DBnJDBtJNJQPh3b0BdzJLBdwP8QCaPZ0CyGJDB2hgKQTcbjsDu1ZXBgSlFQOz3qcBVF6HBWJdO
QClCRsC2DarBsUNMQKlZaL/t06jBSOjuQEtLuL9CHKvBJTxZQG+5pD+6+7HBtTT1QLe9Pz+QSLTB
oyWfQKFvxMCPApbBZmXkQBfPH8AXSpzB1VX8QMgHa0B1EaXBuW77QBPEOUBMfrXBLffoQIQPdkD/
0sDByGihQIZJJUB04cDBvt6nQEkBlUB6k7bBJ5iLQAYdb0Air4LB3/G6QNVILkBe2oHB6w6/QClo
kEDvJYHBEnwgQeBFl8AbB6LBkysSQU9SxsA/6p3Bq/8EQXZEnsD816XBVgTnQFE5j8Bsj4nB0orq
QDcuv8ABb5HBY9odQLE7cEC0o5jBK/NBQOTAOkD0XI7BcACcQBbZo8BtTaXBS+meQI2sd8AjbKrB
/e6RQFMjjL9uCrPBIGrFQOoB0r4BcqXBfrqVQMrDJz7O/bfBm1TKQMoCUj9woKrB+qSfQI6epsBy
F5rBQHWpQACZMsA0GJnBjGqpQMgCsb9TpanBULClQBiQLMCuVqTBobuxQDylkT9ayLPBDGqmQCRJ
gcAB+JPBMu/dQDySdEDp76DB1J24QHbFdEDu3abBCwHbQCRpbkDWRZXBUKiNQKNqb0DXRpfBp1Lg
QDbXUEC+KrnB9yy1QElQH0ANb7nBFrq5QN8Tc0CoA7PBUGOtQA2BaEB0y4TBs+U7QAWSf8AtjoPB
f7GpQBSjg8Av4YfBc5OQQBLYcUCS0aHBU0ayQLIab0DQkZDB2IFJQLtrbUD84JLBXO/7QNALaUCw
+I/Bn3aHQKUkV8Aq64LBt/eWQP14wMA3+qnBRvabQCKec8AVBLPBAgp6QLbt679obbbBgh3XQFqN
Hb9kNZ7BnxqDQJlOxT7nDL/BLC/hQG2zxD+MmafBMEGdQN1WxcDBLZbBv7SuQGL58r9maJTBabP8
QGjheEDv1aTB2dT7QOQyNkBEzbTBDLPrQH9mckBmXMDBdTGjQN/dJECG98DByTWqQAI7lUBM0bbB
QjSLQMMxakDItILBonG7QM3wK0BiAYLBHue9QIE9j0A+8IDBhvILQGTVVsANN3/BakEqQOo+hMBU
AIzBpkg+QIEXn8BQFn/BLI6nQJ1IpcCiWYXBtaHIQHCLbMDhVoXB7wceQJwxbkCzv5jBDIBCQOgV
OEBvi47BbJZ9QMm8lsBLMaDBxqGBQOQIXcDJOaXBd4qFQINBD79gVavBeejSQMAlW78ms6zBhReJ
QLb5Lz9cebDBtWDWQDCnxj6Q1LHBhRqhQHAUpsDO+ZnBMlPJQJwASsBb3J3BPniqQLgOrL/0aqnB
AgKnQIOQKsCcGaTBJX6xQHNqlT+/ubPBz2vGQAIkjcCayZjBn5bdQIaRbED2EKHB0R24QFZKcEDl
5qbBkeLaQHxSakBcXJXBt4CNQOxZbkAEPZfBQvneQD9sU0BXkLnBkG+0QGYEIEAofrnBSHy4QLuf
ckD7BrPBYZqtQOs1a0DQyoTBY6EOQfawhMAQpYTBuqDrQOYQncCUJpLBMTeQQFc+cUCLxqHB+jiy
QJldaUBwmpDBlGZJQJ57cECax5LBJvL7QBwYaUDuEZDBiV/0QL9QfcDcvInBqHlEQEfcqcA9GqHB
tGBOQPK6RcAP96nBegtNQJ1ra7/l1qjB1ErvQA3vuL8nP6vBio5ZQMG7oz9g77HBnFz1QG7zPz+i
VbTBkdeeQNfsxMDIHpbBBQTmQM0eJMBR+pzBBEP8QFpWa0BCC6XBzWv7QMvpOUBherXBi+PoQOZA
dkBnzMDB/myhQMslJUAO38DBKLqnQDLklECTirbBunGLQOoUakAkrILBzZq9QF8BM0ArUYHBpFi8
QO/0kkDXoIHBB8cQQfzdWMDVt3zBJEwPQXLPpMBUD4HBRHAbQQJzgcAsoIrBuIHjQD9DvMDPnY7B
8wgEQcx/oMCIQ5fBXcQdQMoOdEB3nZjBy7E/QJJJO0AWgI7BbIudQGU1pMAUDKXBeuafQPkGecCk
WarB4eyRQAPFjb+tIrPB/CHFQAov2L6GeKXBrb2VQJADHT56C7jB2hLKQOGMTz+Sm6rBXHygQBob
psDezJnBr/2mQGYIMcCZJ5nB3DGpQHSFsr9juqnBPRylQDD1LMCoY6TBI5qxQAtykD9vyLPBlhel
QOkugMDBxpPBnfLdQDt8dED38qDBlZq4QFVzdEBD3qbBKRLbQA/TbkDER5XB0baNQHijb0CMQ5fB
p0LgQCgeUEDuJ7nBMBS1QM66HkCCbLnBbK25QACGckCNA7PBgYKtQKqBaUB+yYTBiR/OQMO/BMA9
xoHBm3OoQD6tgsDpoIfBkZWQQO6qcUDezqHBOlyyQFChb0AckZDBcapJQDzBbUAQ2pLByQf8QFfN
aUAg/I/BxrOlQHXGMcBhn4LBUnmZQDZHwcCWm6nBgLmdQClTdsBm97LB8VR6QFis7b+XkbbBfr/W
QAhqIb/+OZ7BKDuDQGKzwD6fHr/B2M/gQD6Owz9riafBpzWfQPSsxMBdyJXBWO2pQJ5V7b+3lZTB
YbL8QPGceED226TBjbz7QCFsNUCAyLTBmq7rQAmWcUAlWsDBPSCjQDNQJEAF9sDBhDeqQIv1lEAu
1LbBvlSLQFo3a0CQsYLBa5q7QB8WLUAS9oHBTgK+QDfWj0Dz94DBQfHIQGrHjL9tzXvBfJfkQIzk
KsDJ7HnBioTbQFef9b8l0YnBUj2OQH/KlsDwl4TBpVbHQERHkcB8goXBKiEeQCNGbkAbt5jBUL1C
QLSUOEAYfI7B

> <OMEGA_E>
AHJIPni8AD90XAA/SGIBP4TTAj+0WAg/

> <OMEGA_NBR>
     67218

$$$$
50219806
  -OEChem-04172616093D

 46 49  0     1  0  0  0  0  0999 V2000
    5.8743   -4.4943  -19.7822 C   0  0  0  0  0  0  0  0  0  0  0  0
    6.5005   -0.7094  -21.9048 C   0  0  0  0  0  0  0  0  0  0  0  0
    4.3333    0.0032  -21.0278 C   0  0  0  0  0  0  0  0  0  0  0  0
    6.5952    0.4898  -22.6295 C   0  0  0  0  0  0  0  0  0  0  0  0
    4.4149    1.1766  -21.7820 C   0  0  0  0  0  0  0  0  0  0  0  0
    6.0814   -3.3232  -20.5253 C   0  0  0  0  0  0  0  0  0  0  0  0
    4.8289   -4.5260  -18.8466 C   0  0  0  0  0  0  0  0  0  0  0  0
    5.3728   -0.9577  -21.0856 C   0  0  0  0  0  0  0  0  0  0  0  0
    5.5616    1.4430  -22.5502 C   0  0  0  0  0  0  0  0  0  0  0  0
    5.2463   -2.2006  -20.2972 C   0  0  0  0  0  0  0  0  0  0  0  0
    4.0206   -3.3753  -18.6758 C   0  0  0  0  0  0  0  0  0  0  0  0
    6.9376    3.7380  -20.1650 C   0  0  0  0  0  0  0  0  0  0  0  0
    5.7741    3.9121  -20.8835 C   0  0  0  0  0  0  0  0  0  0  0  0
    6.8456    3.4878  -18.7282 C   0  0  0  0  0  0  0  0  0  0  0  0
    4.4340    3.5747  -18.9546 C   0  0  0  0  0  0  0  0  0  0  0  0
    7.0189    3.5398  -23.2199 C   0  0  0  0  0  0  0  0  0  0  0  0
    5.6803    2.7706  -23.2567 C   0  0  2  0  0  0  0  0  0  0  0  0
    5.8077    4.0304  -22.3998 C   0  0  1  0  0  0  0  0  0  0  0  0
    5.4380    3.1421  -16.6890 C   0  0  0  0  0  0  0  0  0  0  0  0
    3.0627   -3.9713  -16.5790 C   0  0  0  0  0  0  0  0  0  0  0  0
    4.2552   -2.2554  -19.3794 N   0  0  0  0  0  0  0  0  0  0  0  0
    4.5236    3.8595  -20.2423 N   0  0  0  0  0  0  0  0  0  0  0  0
    5.5780    3.3565  -18.1495 N   0  0  0  0  0  0  0  0  0  0  0  0
    3.1590    3.4800  -18.4069 N   0  0  0  0  0  0  0  0  0  0  0  0
    7.8761    3.3753  -18.0743 O   0  0  0  0  0  0  0  0  0  0  0  0
    2.9022   -3.3669  -17.8733 O   0  0  0  0  0  0  0  0  0  0  0  0
    6.5082   -5.3566  -19.9275 H   0  0  0  0  0  0  0  0  0  0  0  0
    7.2895   -1.4437  -21.9726 H   0  0  0  0  0  0  0  0  0  0  0  0
    3.4738   -0.1721  -20.3978 H   0  0  0  0  0  0  0  0  0  0  0  0
    7.4602    0.6809  -23.2472 H   0  0  0  0  0  0  0  0  0  0  0  0
    3.5956    1.8801  -21.7746 H   0  0  0  0  0  0  0  0  0  0  0  0
    6.8685   -3.2770  -21.2633 H   0  0  0  0  0  0  0  0  0  0  0  0
    4.6430   -5.4163  -18.2642 H   0  0  0  0  0  0  0  0  0  0  0  0
    7.8990    3.7857  -20.6547 H   0  0  0  0  0  0  0  0  0  0  0  0
    7.8911    3.1052  -22.7097 H   0  0  0  0  0  0  0  0  0  0  0  0
    7.3543    4.1061  -24.1013 H   0  0  0  0  0  0  0  0  0  0  0  0
    5.0973    2.8798  -24.1831 H   0  0  0  0  0  0  0  0  0  0  0  0
    5.3073    4.9207  -22.8083 H   0  0  0  0  0  0  0  0  0  0  0  0
    4.3718    3.0642  -16.4299 H   0  0  0  0  0  0  0  0  0  0  0  0
    5.9533    2.2130  -16.4039 H   0  0  0  0  0  0  0  0  0  0  0  0
    5.8853    3.9899  -16.1496 H   0  0  0  0  0  0  0  0  0  0  0  0
    2.1143   -3.9100  -16.0250 H   0  0  0  0  0  0  0  0  0  0  0  0
    3.3488   -5.0265  -16.7002 H   0  0  0  0  0  0  0  0  0  0  0  0
    3.8480   -3.4402  -16.0213 H   0  0  0  0  0  0  0  0  0  0  0  0
    2.4768    3.6528  -19.1174 H   0  0  0  0  0  0  0  0  0  0  0  0
    3.0246    2.5627  -18.0320 H   0  0  0  0  0  0  0  0  0  0  0  0
  1  6  2  0  0  0  0
  1  7  1  0  0  0  0
  2  4  2  0  0  0  0
  2  8  1  0  0  0  0
  3  5  1  0  0  0  0
  3  8  2  0  0  0  0
  4  9  1  0  0  0  0
  5  9  2  0  0  0  0
  6 10  1  0  0  0  0
  7 11  2  0  0  0  0
  8 10  1  0  0  0  0
  9 17  1  0  0  0  0
 10 21  2  0  0  0  0
 11 21  1  0  0  0  0
 11 26  1  0  0  0  0
 12 13  2  0  0  0  0
 12 14  1  0  0  0  0
 13 18  1  0  0  0  0
 13 22  1  0  0  0  0
 14 23  1  0  0  0  0
 14 25  2  0  0  0  0
 15 22  2  0  0  0  0
 15 23  1  0  0  0  0
 15 24  1  0  0  0  0
 16 17  1  0  0  0  0
 16 18  1  0  0  0  0
 17 18  1  0  0  0  0
 19 23  1  0  0  0  0
 20 26  1  0  0  0  0
  1 27  1  0  0  0  0
  2 28  1  0  0  0  0
  3 29  1  0  0  0  0
  4 30  1  0  0  0  0
  5 31  1  0  0  0  0
  6 32  1  0  0  0  0
  7 33  1  0  0  0  0
 12 34  1  0  0  0  0
 16 35  1  0  0  0  0
 16 36  1  0  0  0  0
 17 37  1  0  0  0  0
 18 38  1  0  0  0  0
 19 39  1  0  0  0  0
 19 40  1  0  0  0  0
 19 41  1  0  0  0  0
 20 42  1  0  0  0  0
 20 43  1  0  0  0  0
 20 44  1  0  0  0  0
 24 45  1  0  0  0  0
 24 46  1  0  0  0  0
M  END
> <OMEGA_C>
evq7QJbRj8AEQp7B6gPQQDibNb8LPa/BXaqKQACSUjvyOKjBnAvTQBrF+j4gCbXBQ0eNQDSalj91
Qa7B5prCQFWvVMDVM6TBpIaaQOLUkMDjxZbBvO2rQKotdb9Ur6jBAvmxQJy0uD/lZrTB7uGnQADW
DMCsYKLBzKiAQLkFWMD6Z5XBCgHeQME7b0DTUaHBxsW4QJZgekBtEafBfA/bQMo3X0BV05XBeuON
QJvHZED7opfB0JrgQPOLYkBmwrnBpMS1QPxQMUDIDbrBUti5QML4gEDjMrPBAgSuQCUYSUArg4XB
xgJEQA0qfsDaoYTBviqIQPVYEMD9CJvBf8GQQJUCd0BA8KHBKn+yQInQVkAnMpHBwyxKQB24XkBc
QZPBFgn8QJYFWEBBmJDB3b05QH16V8CN/I7B8ULQQH1pq8Bxa5/BwUPpQLbLuL/Kx6/B7VFeQBky
ML7GLqPB8rnuQL1NLj9D+rnBPh5mQLKo8D92Mq7BDcvbQOS6UcBVG6rBwpOUQFRSrcAkHZLB88T8
QDNIckC+PKXBB4T8QIO7RkBlrbXBElbrQNVkg0CEz8DBBh2jQGNPOEAMd8HBFdWpQJd2nUB5d7bB
quWLQHgcREB6cIPBY4G+QH+iDUApO4PBuVS8QDlbf0BRMoHBdlEHQHc9esA+M4DB0VJWQDHZoMAO
moXBBEZ2QOwrXMCHK4DBVYQeQGTHaUB08JjBlJNBQEQDJECdQZDBami9QE9GkcCrjZ7BLvOKQOAb
wrxp76fBwIjQQN6uN7/d567BnFeNQCQ0kz95/q3BHUDTQNK59D5/wrTB9svDQGIKVsDTL6TBwyab
QA7lk8CEWJfBk1OsQC7qer8GaajBDt+xQJfVtT8ENLTBOQioQJ63D8DwWqLBzyKAQMgdYMD5/JXB
Bt3dQDawbkCLZqHBloy4QKDUeUATH6fBdg7bQOrxX0Ay35XBTOGNQCrZZUB+oZfBMtvfQJhyYUAl
4LnBZzK1QMR7L0Db/bnBPES5QGRbgEAgQbPBGCSuQEr0SkDdgYXBOr1HQPAJdsBErYTB6DSHQD6d
FsD3U5vBvKKQQApGd0C786HB54iyQP4BWEBDNJHB5j5KQJS2YECuNpPBthP8QOCsWUC4o5DBJdo3
QAAIZcDvzY/BCn/SQJk8rMC8vp/BzA5fQIg8Tr5I36LBryfqQKtWuL/5Wq/BUxpmQGPr7D9+563B
9O/uQBuULD/Zr7nB0KjdQDirUMDd4KnBt3qVQBnysMDC4pLBeZD8QKPPcEDsW6XBGw78QOFsRkCT
1bXBVSLqQP2kgkAmAMHBIzOiQGOSNUBfXMHB2+CoQBaWnEBQjLbB4QiMQChFRkAzaYPBMpK+QDiI
D0AqL4PBfpG8QOGvgEAFP4HBaogKQCzmeMDwV4DBnUdpQOrLmcA83YPBF5ZvQPqjQsCzToHBJYge
QLasa0DQ5JjBRkpBQI1LJkDOJJDBbdx8QI1Ol8DJ1J/BopKQQF/Mi79xubLBGmDFQIJo1b5aaqXB
kpqUQIQ4Iz4uxbfBWD7KQBU5Tz/apqrB90aAQM1vX8B6D6XB95ahQCGWpMCbs5nBpp+oQJ0Bsb+l
aanBnyyxQBdGkD+guLPBZ22lQI9dLMAgBKTB+B3GQCWuicCp45jB7tzdQJHec0DwAqHBe3W4QEYc
dEAN6KbBUxnbQIQwbkAsV5XByLmNQFJ6b0D3RZfBwtXfQOa0T0AzPrnBqKS0QHBOHkBIb7nBV2G5
QI8xckAwDrPBfLetQPkzaUAE0YTBlQPqQP4tvcAPhI3BjgbHQFMNR8As/Z3BUH2QQESEcUC80aHB
0XCyQNJFb0CemZDBwcVJQGvMbUAA1pLBeRr8QCXuaEDjEJDBdkfqQMNjlMDUAZPBzrxEQPFLq8Ar
gqDBIBt2QGC26r+X97XBU7PXQJUNIL9CSJ7Bk7WBQIDBwj4Lyb7BlG3hQF7jwj8PvKfBE0RLQGOZ
ScCg1qnB5uqgQDoNw8AqoJXBBZT8QJnMd0AA8aTBqGn7QJMYNUD25rTB7hbrQAYOcUDZdsDBc4Ki
QFSwI0By8sDBudOpQCvElEAJ3LbBvZCLQAoka0DDsoLBZ767QDiyLEC9/4HBT1m+QGeij0D2AoHB
XTUEQXhzwcAcNonBZVTPQEP5vcC+x4fBRBXmQIod18BBYpPBDh8eQCRybkCSr5jBF8tCQPWhOED6
d47BAaa1QO8zkMB1yp7BY0PSQM4TQr9o0K/BwuaMQGAvKzykKanBRwrXQNbL5j5gcrXBOPqQQMsK
lz8NIa/BTki9QFm2WMDGRKXBUoaZQLo2jMD2EpbBQYitQAKwd79ba6nBU9e2QB/Dtz8I1bTBCm+o
QPvZCsCgzaLB36yFQKgoSMCVCpTBj+ONQGzOeUBqV6LB+gi2QL1Gd0DD7KbBtaiJQJr4ZUDY6pbB
HgbXQGqPXEC9OZbBCW7lQI3AZEAcLrjBv4G8QHQLMkDCE7rB9dm6QMJPgUCL9LLBSSmtQBpNR0DV
UoXBfno+QMZzf8Cw2YTBZsqNQFWfBMCGVprBJ4jaQOk5a0BrlaDBkfSuQBkdVkBJB5HBF7H8QF+X
U0AjcpDByuBLQE9vYUDs5JLBVJBRQNwXOcBh3ovBcx/FQPVcrsAxeaDBOI3qQED6wr8HX7DBU3Jh
QMYIGb6ZU6TB0EnzQMG6Hz9POrrBP/ttQPYX8j8AX6/BnLjSQEDoXMBoBqzBAQ6TQGRYp8D2+JDB
j0FkQFYIhUC/EafBeQr/QIezSUDULbPBJafzQPQQhUAcvL7BxxeuQOctOUBODsLBXdCrQJbRnUA5
frbBF67NQCYpPECUQYLBQ1WfQC/If0BMXoHBnSCZQBz4DkCSqIPBVf8PQIfAasCMiX3BdEIjQC9H
msD+hInBjJZ5QNxzisDB5IDBW94KQYAVWkDZW5XBvv39QH5HgEA2w4rBN7e+QNGtj8DaPJ7BiX+N
QMATvTzjJKjBcwfSQCN5OL+Raa/BJnuQQD9NmT+fK67BXZjVQBqL9z5oIbXBPOzEQBttVMDGNaTB
ITGdQHcGkcDFypbB8y+uQP9qdL8kuajBnUu1QNCduj/sULTBhMKpQIkODcBRdqLBpbSCQI9zWcCP
ipXB2WaNQJWEgEBuXqLBQVG1QGGUe0DCBKfB9jOJQNCLbUAh85bBqUvWQEkVXUDEapbBUYXjQN94
ZUDua7jBETe6QBS2MkBW3rnBYYy5QKF4gkDdD7PB2YysQEn1TUC7YoXBJLNOQHWVbMD3EYTBdKuJ
QEV4EcCYMpvBJKnZQAYSakAT0KDBAJOuQCEYYEClAZHBWrL7QPGaS0B71ZDBAPVKQGnoZ0Ck85LB
vc09QGkBXMABL4/BmmPTQB0Dq8BcWp/BQEhkQLI4Dr6nBqPBmrbqQAhVvL/fHbDBB+JsQDIw9D/X
G67BHSPxQHQ+KT8IJ7rBti3eQJgTUcDLF6rB1q6XQAVyrcCkEpLBip5jQCCliUBcC6fBH4/9QPVj
S0BwerPBTyzxQMiLhECSM7/B8QurQBcKOEATyMHBNUqqQAWinkA3trbB7SbNQMJyRUAgPoLByAWd
QEDlgUBtQIHB+PWZQHsqE0AKCITB8gQSQDp8bcBCOH/B47NuQOl4lcDfP4PB/lR4QNkCOsCQ2IDB
9z0KQY+5S0C45JXB4BgAQdZYeECpOYvBg5p4QEL3jsAWq5vBE8COQNQJi78tNbLBudHFQHqV377c
YaXBGiyTQHZaHz45Z7fB9JnKQPTnST/mpqrBFK96QCE5TsCM2KDBKQ+jQKS4pMCA5JnBS/CnQNtr
sL8lI6nBMs2wQPIrjj8rmbPBD0ilQCO/K8Cb5aPBgPvJQPIJksA1QZ3Ba+LdQJjOckCVCqHBUXe4
QMc7c0Dm7abBsSHbQO3sbUANXZXBeMGNQOO0b0BzSZfBgqnfQBI0TkBJR7nBwmm0QBLnHECpZbnB
EVG5QNoCcUCvE7PB6cOtQF8cakBr1ITB5UYLQc51lMD3mp/B/z/KQKcqVsByCKLBIYGQQOg9cUCI
1aHBonuyQM+Qb0BQnpDB99ZJQAd7bkAh2JLBXyP8QLHhaEA3FpDBObPvQNeDqMBwpJvBcpQ8QHSr
nMCFGJnBfTlwQDUv6L9/KbXBrxHZQA3cKL+Ibp7B0Z5/QKASwj5JVb7BlTfiQN6Bvz+x3afBfCRA
QMTXK8Dmd6LBOxKjQE2Jw8Aa+5XBG5r8QPkDdkD4+qTB7kn7QJaxM0CO8rTB+tPqQBE9b0Dfh8DB
IiyiQBMIIkBi5cDB+72pQBcglEDn5bbBFJ+LQAVtbEDAtYLB7ay7QJShLUCh94HB74K+QDUdkEBe
EYHB8xIZQWMuqcB03p3B7fcJQSytj8CSTKjB4H0NQeOpasAjppvB6CseQKL9bkA/sZjBmrZCQOOJ
OUA4cI7BlImAQDtUlsDxdZ/B/+2JQG7TzL4d3afBlOvMQNZcjb8qQLDBWjONQI7KWD8eAa3BlA7Q
QBeXDz6zabXBGKuBQH4VXcDjq6TBd5GkQJt0o8B0k5nBgdCpQGlgsL+4fKnBApKwQAlPkD+DrLPB
hjWnQCTzKsDzBKTBbPrIQBmyiMB4GJnBuKndQM28akBnAaHBilC4QACtb0Bz3qbBacTaQHe8aEBU
TZXBUnONQMeJbkC5PZfBdiLfQPCKTUBzZrnBctWzQCOBHUBlXrnB7du4QN1pcEAGALPBCEGtQKHK
aUBCxoTBIscHQfC5cMBNdJLBIK3JQECcRcBRZp7Bvl6QQNNQckBNxKHBeQeyQMFEaECmlJDBRSVJ
QFACcUDm05LBj737QFfwZkAh+4/Bq7LrQL3flcBxBpPBbQxJQBN4qsCJ9p/BNCdeQEm/G7++r6LB
SWLlQL0T7b9fdbHBnDZpQEy+yz+F2avBPZXqQLSTrj6WtrrBhoBMQJaHRsCxHKnBu2ukQBDQwcBf
cpXBBWD8QKRlaEDo9KTBtej6QJpeMkDAMbXBygDqQPrXbkBnqcDBODahQFAUI0DIzcDBLEqpQLky
lEBVprbBCBCLQO8iaUBBr4LBsfu8QIw3MUCvUIHBui+8QFQTkkAlkYHBdHoUQVhDhsBNc43BCwMO
QVQNZcCpjZrBtWoCQXvkM8C57Y7BS8UdQIl+dUD0rpjBisw+QNaGO0DgoI7B8ll7QLlsjsDCb5vB
kgKLQM6Zv77LdKfBfl3MQDyZjr/LaLDBoeeNQGaSXD+Rv6zBOXLPQIvUBD4HlrXBoqN+QN3gTMB3
eqDBW9qjQEohpcDl3pnBAh+qQD0wsL9ES6nBJIuwQMVRkD+RqbPBOk+nQJcQLMCW4aPBKS7LQGxI
k8AGc53B4ZfdQIzzakBPCqHBjza4QKvxb0DP46bBnMXaQJoBaUDDVZXBuXKNQNrTbkC0PZfBHfLe
QEx4TUAibrnBAa+zQORgHUAhYbnB0K24QPlpcED7BrPBzFutQLYBakDeyYTBs1nyQM700MBP9JbB
qd/LQKFPWcD7WKLBM06QQIjCckBTxKHB4RCyQDN+aEC6mJDBkDFJQOAzcUCVz5LBrsf7QNA/Z0AG
B5DBqWLyQPOcp8DUL5zBVf4+QOKMm8BvzJjBL/RhQOhYD7+o+KHBRDzkQLLQ77+B3bHBoQZrQKU4
zj+vhKvBlIbpQN1npD5vC7vBKrlEQPuRKMBvwqHBYGWjQCH4w8D5+JXBiUf8QD2HaEDWAKXBir76
QK1lMkBlObXB6sbpQNSsbkC6s8DB7QWhQGLIIkB6z8DBeBOpQMgnlEBCsLbB8i2LQEVQaUC0r4LB
iB+9QLtyMUDUVYHBKEu8QNEwkkAOloHB/6QJQXs83cBHgJbB30PlQG2izcDJ047BbXXeQOho58AF
j5vBPb4dQJvBdUAvqJjBqes+QMOnO0Ann47BEARjQKkFdcA3ipnBAZSCQD4ZQ7286arBY5/PQJHi
5L4sQarBkveJQORekj9embDBHN3WQMoYPz9+26/BqBdrQB7jJsBZ+57BiZuWQKjYkcApFJfBNmml
QPyXXL+psqfB3xW0QLyIxj8+A7PBQN2eQFsLCcD626HB3u++QNybgcB3G5rBqYjaQGMSlkC1yqDB
DVu5QKb/hkAVBKfBOR/VQCKGlkDZH5XBu1WPQCDma0DW2JfBeivmQIn6ZkAAJ7jBaUK7QKvtNUBh
IbnBBUe9QOSRhUBxFbPBT7enQMHDhUBQGYXBcfAFQRHhhsD16prB2hHCQBudN8DXW5/Bk8WTQKiF
bkBqVqLBS5KvQHfqhEAyzZDBBItSQGdBSkAe4ZPBkVrxQHfgpUCWfI/BbzTjQCQhmcCemZfBLLUk
QGtvhsD6R5fBDnxEQLfGr74O/ajBKHjqQMRfh7+g26fBSHVeQDIB4D82IrPB6Cf3QJdPhj+lwbHB
4PIyQMvPAcAx9qDBLUmUQIkAsMDw5ZLBa9T3QKtJoUDraqTBmOX/QDy8TUC/CrPB4Tf0QBESg0D1
N7/BRTCsQJQDOUDbEsHBDiyvQM72oECkVrfB+8eIQFn/bEAzWYPBNmzBQDOYaECr94DB7CCnQA0i
p0APTYLBoQoTQQ5MnMCrf5jB0xQGQT8Qg8BoqqPB9xUIQRLoTsD/GZfBowItQDugOEAY+ZnBHllf
QMlPF0AlT4/BQQxvQCCYjMA/j5zBct2JQDDRpL5HmajB9jrQQK6Xhr++0q7BoLqPQMnyZz972a3B
sDDWQJ/jPD6F9bPBGWB2QIaPScDqq6HBGgCdQEhBosBhh5nBYgGqQEpIqL8LGanBUCy2QK8vlj+o
XrPBu2ukQNBdJ8ArqqPBgkXFQA22j8BJtJvBi1GOQL96d0DtOqLB6nW2QMOOcUDhvKbBWHeKQNpm
dECdjJbBIiLYQBJwbkCgxZXBGI3lQMXOUUCHqrfBchK8QCqfH0CrHLnB0TS7QI81dECjzLLBYkCu
QC+DbkCNmITBHi8JQc/HkMC/7prBwQjIQOCdUsDKtKDBojLbQJ/NbUD9TaDBDCOwQPLMckDicJDB
OB/+QBvWakBa+o/B3JhNQEMcdEADc5LB4tPpQLiSpcD8mZjBYOQwQOtVmsDU+5rBo45ZQBwFAr8W
LaTBjezoQHAT57/PPa/BBFxtQN0q0z9Iqa3BIU3zQPWZwD4WW7jBHs49QFS9JsArD6TBuAWbQBnk
wMCUj5XBcIdkQGRAfkBaNKfBK9j+QMHyOEDDZLLBQzP0QBOKckDwir7BM/atQBIKI0ClKcHBbtGs
QGOvlUDc6rbBRPDOQOHabUDkVIHB5vmcQA9Wk0Ayg4HB822dQD/UM0BYKILBj2sWQZMPpcCWHZjB
jqgKQeTei8CHnaPBFNEJQaNRY8A61ZbB+3MLQeg1aEAfB5XBrFYAQeiFj0A0ZYvB

> <OMEGA_E>
6NCFPuiRgz6KLxw/rNcWP7BYFT9UiBQ/lFQMPyjiBD8mzj8/iH9KPw==

> <OMEGA_NBR>
     75510

$$$$
50219808
  -OEChem-04172616093D

 47 50  0     1  0  0  0  0  0999 V2000
    5.9369   -4.5444  -19.8337 C   0  0  0  0  0  0  0  0  0  0  0  0
    6.1421   -3.3165  -20.4916 C   0  0  0  0  0  0  0  0  0  0  0  0
    6.5393   -0.6816  -21.8204 C   0  0  0  0  0  0  0  0  0  0  0  0
    4.3395   -0.0018  -21.0123 C   0  0  0  0  0  0  0  0  0  0  0  0
    6.6239    0.5046  -22.5693 C   0  0  0  0  0  0  0  0  0  0  0  0
    4.4181    1.1619  -21.7785 C   0  0  0  0  0  0  0  0  0  0  0  0
    4.8317   -4.7108  -18.9821 C   0  0  0  0  0  0  0  0  0  0  0  0
    4.1974   -2.3916  -19.3543 C   0  0  0  0  0  0  0  0  0  0  0  0
    5.3977   -0.9474  -21.0213 C   0  0  0  0  0  0  0  0  0  0  0  0
    5.2675   -2.2209  -20.2620 C   0  0  0  0  0  0  0  0  0  0  0  0
    5.5691    1.4359  -22.5318 C   0  0  0  0  0  0  0  0  0  0  0  0
    3.9470   -3.6384  -18.7771 C   0  0  0  0  0  0  0  0  0  0  0  0
    6.9255    3.7278  -20.1839 C   0  0  0  0  0  0  0  0  0  0  0  0
    5.7579    3.9057  -20.8958 C   0  0  0  0  0  0  0  0  0  0  0  0
    6.8416    3.4959  -18.7430 C   0  0  0  0  0  0  0  0  0  0  0  0
    4.4293    3.5968  -18.9549 C   0  0  0  0  0  0  0  0  0  0  0  0
    6.9869    3.5461  -23.2459 C   0  0  0  0  0  0  0  0  0  0  0  0
    5.6633    2.7530  -23.2596 C   0  0  2  0  0  0  0  0  0  0  0  0
    5.7780    4.0206  -22.4132 C   0  0  1  0  0  0  0  0  0  0  0  0
    5.4415    3.1743  -16.6929 C   0  0  0  0  0  0  0  0  0  0  0  0
    3.1308   -3.8409  -16.1691 C   0  0  0  0  0  0  0  0  0  0  0  0
    4.5119    3.8666  -20.2460 N   0  0  0  0  0  0  0  0  0  0  0  0
    5.5765    3.3774  -18.1553 N   0  0  0  0  0  0  0  0  0  0  0  0
    3.1574    3.5198  -18.3978 N   0  0  0  0  0  0  0  0  0  0  0  0
    7.8755    3.3898  -18.0933 O   0  0  0  0  0  0  0  0  0  0  0  0
    2.4843   -3.8542  -17.8637 S   0  0  0  0  0  0  0  0  0  0  0  0
    6.6298   -5.3592  -19.9838 H   0  0  0  0  0  0  0  0  0  0  0  0
    6.9705   -3.2068  -21.1757 H   0  0  0  0  0  0  0  0  0  0  0  0
    7.3489   -1.3956  -21.8535 H   0  0  0  0  0  0  0  0  0  0  0  0
    3.4644   -0.1847  -20.4064 H   0  0  0  0  0  0  0  0  0  0  0  0
    7.4974    0.7014  -23.1731 H   0  0  0  0  0  0  0  0  0  0  0  0
    3.5893    1.8543  -21.7915 H   0  0  0  0  0  0  0  0  0  0  0  0
    4.6633   -5.6565  -18.4884 H   0  0  0  0  0  0  0  0  0  0  0  0
    3.5677   -1.5503  -19.1050 H   0  0  0  0  0  0  0  0  0  0  0  0
    7.8835    3.7592  -20.6814 H   0  0  0  0  0  0  0  0  0  0  0  0
    7.8736    3.1311  -22.7443 H   0  0  0  0  0  0  0  0  0  0  0  0
    7.3002    4.1120  -24.1357 H   0  0  0  0  0  0  0  0  0  0  0  0
    5.0657    2.8434  -24.1787 H   0  0  0  0  0  0  0  0  0  0  0  0
    5.2560    4.8989  -22.8207 H   0  0  0  0  0  0  0  0  0  0  0  0
    4.3759    3.1059  -16.4286 H   0  0  0  0  0  0  0  0  0  0  0  0
    5.9514    2.2437  -16.4035 H   0  0  0  0  0  0  0  0  0  0  0  0
    5.8972    4.0228  -16.1615 H   0  0  0  0  0  0  0  0  0  0  0  0
    2.3012   -3.9708  -15.4586 H   0  0  0  0  0  0  0  0  0  0  0  0
    3.8515   -4.6627  -16.0453 H   0  0  0  0  0  0  0  0  0  0  0  0
    3.6323   -2.8812  -15.9756 H   0  0  0  0  0  0  0  0  0  0  0  0
    2.4721    3.6911  -19.1055 H   0  0  0  0  0  0  0  0  0  0  0  0
    3.0173    2.6080  -18.0119 H   0  0  0  0  0  0  0  0  0  0  0  0
  1  2  2  0  0  0  0
  1  7  1  0  0  0  0
  2 10  1  0  0  0  0
  3  5  2  0  0  0  0
  3  9  1  0  0  0  0
  4  6  1  0  0  0  0
  4  9  2  0  0  0  0
  5 11  1  0  0  0  0
  6 11  2  0  0  0  0
  7 12  2  0  0  0  0
  8 10  2  0  0  0  0
  8 12  1  0  0  0  0
  9 10  1  0  0  0  0
 11 18  1  0  0  0  0
 12 26  1  0  0  0  0
 13 14  2  0  0  0  0
 13 15  1  0  0  0  0
 14 19  1  0  0  0  0
 14 22  1  0  0  0  0
 15 23  1  0  0  0  0
 15 25  2  0  0  0  0
 16 22  2  0  0  0  0
 16 23  1  0  0  0  0
 16 24  1  0  0  0  0
 17 18  1  0  0  0  0
 17 19  1  0  0  0  0
 18 19  1  0  0  0  0
 20 23  1  0  0  0  0
 21 26  1  0  0  0  0
  1 27  1  0  0  0  0
  2 28  1  0  0  0  0
  3 29  1  0  0  0  0
  4 30  1  0  0  0  0
  5 31  1  0  0  0  0
  6 32  1  0  0  0  0
  7 33  1  0  0  0  0
  8 34  1  0  0  0  0
 13 35  1  0  0  0  0
 17 36  1  0  0  0  0
 17 37  1  0  0  0  0
 18 38  1  0  0  0  0
 19 39  1  0  0  0  0
 20 40  1  0  0  0  0
 20 41  1  0  0  0  0
 20 42  1  0  0  0  0
 21 43  1  0  0  0  0
 21 44  1  0  0  0  0
 21 45  1  0  0  0  0
 24 46  1  0  0  0  0
 24 47  1  0  0  0  0
M  END
> <OMEGA_C>
O/u9QPBrkcBaq57BvIvEQA5BVMC07qPBLELRQGh7Lr8+kK7BA92KQACM6LpJGajBpvbTQPAtAT/0
jbTB8mCNQJ+4lD9cOq7BNZ2aQLa+lsBP25fBzVCGQH0QGcCz1ZrBTrqsQFyGcr+rK6jBVY+oQP0j
DsCnGKLBXjayQFDLtz8HQbTBUZx8QKHbaMCRN5bBTZ3dQF2UbkCzeKHBvEC4QKD2eUCeKqfBau7a
QGO8X0Cb8ZXBz7yNQHkxZkCro5fB9ZTfQEfzYkCu97nBxzm1QGYwMEC8E7rBuOW4QHaogEBVTrPB
ayCuQIQoS0Ahi4XBFF9IQOXRdcBKWoHBcWGQQP12d0DH96HBoXKyQCknWEAcPpHBUxNKQKFEYUCo
LpPBPQT8QBXzWEArv5DBN/8eQJ2qdsDI6I7B8ibUQId+q8C/3p/BLA7fQNw7TcDgZ6nBbirrQE+j
sr/+067BwLhdQHoYPb5GQKPBj+rvQI2RMz+aYrnBpbdlQNZY7T8HVa7BXzmVQLIBtcA+6JPBnlVk
QCtxxr8S15jB3EX8QGCXcECSc6XBi/T7QB5kSEBm9LXBg5vpQICVg0DTFcHBbhqiQCL6NUAHbsHB
yjCoQJ3DnEC5kLbBTgeMQGbHRkC2bYPBCXK+QG+YD0BLOoPB+bW8QIW6gECqSoHBfUYTQEcifsBF
VnfBwn52QNE0lcDEXIDB1XZoQIplOMDrm3/BEjYeQPo6bEAj2JjBGRtBQMboJkByGJDBbsu2QPC/
lsBOnKHBu7q4QBXnX8BXSafBFD6JQLDIfr2i4qfBx4TNQIg3Sb8Pbq/BnmaMQLDYkT+lpa3BHhrR
QPN23D5a9bTBXdGjQKr9l8ASbpfB2cqSQK7SF8B5zJjBo7CpQOw1hb9V0KjBfXqmQPWGFMDZ9aLB
V8iwQFGlsz9I/bPBJeiSQGezZMAN8ZLBv97dQC9gbECxMaHBePC4QHPpeUB//KbBiWfaQCloXUAR
r5XBpm2NQC60aEBBm5fBrT/gQIGDXkBxqrnBRui0QNG+LkCDvbnBpQy6QCQbgEAYGbPBNIysQEAs
S0BOboXBSpwOQDdJZcCQrIfB8teQQBYMekDb6aHBvZixQBAmWEAYHJHBxOhIQNljZkC+R5PBExz7
QJ9eVEBOZJDBsvOAQB9UZcAYwoXBzePDQGSSs8CSE6XBuz/IQILHXcB0AK/ByRNcQH2AdL5Av6LB
5kbmQA00xL8uO7DBn7ZlQPq17j+gOK3Bf6TsQMG+Hj/587nBrzeiQMHDtcC2D5PBta2DQF3bvr/c
h5XBXbv8QMPSbEAUFaXB/RD8QPlTQkBvlbXBewbrQAymgECb08DBWxKiQFJ5NUBuIMHBz2uqQDqi
nEAOdrbB+E2KQCDISEA9aoPBpN27QKadDkBGF4PBlry7QJw+gEAXHoHB8yPdP9ipZcBFrX/BXGr3
P5qaK8CtIYzBHYL3P0hIj8ASN4zB7gIeQLX0ckBtAZnBUa89QClJLEDlO5DB/cx9QAfRlsChLaDB
9syBQHQxXcCbM6XBFIyFQOEXEL/4SqvBHe3SQLhxW7/fo6zBJQ2JQCS/Lj8idrDBMFnWQJQfxT5U
zrHBkR+hQJQcpsAN7ZnBG1LJQHzXScC4sJ3BlYOqQPAurL+zWKnBvBinQLuPKsAuAaTBpnCxQFjc
lD/kt7PB5WfGQAEsjcCpsZjBYpXdQGpdbED8FaHB4xe4QK8ecEAb6qbBVOraQEciakA1YZXBO4eN
QLRJbkD5PZfB/eHeQDkmU0CKlbnB6Vm0QNK2H0Ayf7nBP2u4QJ9gckBeCrPBs7CtQIYRa0BbzYTB
ry8AQSZH0cBP8pfB3DWQQFkpcUCjx6HBTUSyQPg7aUA/nZDBZ3tJQB9/cECOxpLB2/37QE3ZaEBg
GJDB/WDxQMnjn8Ax55DBg8NEQEr4qcAcH6HBovJOQNf8RcAf/anBPRJNQAlxbL/RzKjB81TvQKXe
uL+XK6vBQG5ZQGDmoj968LHBfVH1QB4XPz8PU7TBwNCeQDH1xMCTEpbButrlQPKmI8DYs5zBjD78
QPYYa0DKEaXB21n7QOuuOUDPgLXBN8PoQMHvdUA208DB/U6hQLbIJEDq3sDBNqOnQDHAlEBhjrbB
4ImLQJL9aUC9rILBla69QB3VMkD4VIHB0ne8QB7fkkDeo4HBpbsNQWl74MBFz5PBUfbkQPVb58BV
CZjBRtQEQduPycB0NqDBt9AdQBUadEBam5jBi8E/QLBQO0CEfo7BqNJ9QOTdlsA6M6DBHcOBQMYu
XcCiMqXByouFQAYeEL/uSavBGOrSQBKRW7+0qazBhwiJQJXULj+9c7DB4VHWQHwcxT490rHBlDih
QDBCpsAV/pnBUHHJQBkxSsD9xJ3BMYSqQCJIrL9fXKnBtx+nQJGwKsDfCKTBtWixQNTklD84uLPB
on7GQIRPjcDTwZjB7ZfdQP1UbEAOF6HBOxi4QFcdcEAv6qbBtvHaQOMZakAwYpXBHI6NQIxNbkAE
PZfBEdjeQMQnU0AGl7nB0060QBy8H0BBf7nB7WW4QJ9jckBqCrPBC7+tQAMTa0AmzYTBzJ/YQK22
pcBFuIPBXjiQQAwscUC9xqHBvk2yQBs8aUA0nZDBpIxJQMSLcECpxJLBUQf8QFPLaEAuGpDBLnfx
QGsGoMBr95DBXLpEQAP9qcD+IKHBXbFOQL7IRcB98KnBQRdNQOFrbL8zyajBI1PvQD/2uL95NKvB
lWNZQJD8oj/s6rHB/Ef1QO4fPz9IWLTBWPyeQAwvxcAcLZbBoxPmQOc4JMD91JzBWz/8QBMLa0Cr
E6XBxlH7QEutOUBog7XBzbXoQNzxdUDz1MDBsz+hQInQJEBE3sDBB52nQNDClECfjbbBCZmLQCgG
akCoq4LBdLu9QG7TMkAkVYHBeYq8QGXekkASpIHBR43wQFhyscD78HvB+HLMQHV0hsDUDYHBavy9
QEukvMAZNITBC94dQPAqdED2mJjBX9A/QJxeO0B2fI7BRmmcQFHeo8DGJqXB90ifQFq4d8AORarB
+PWRQKfWjL8w7rLBHWPFQJ5S0b5dWKXB+LmVQLL6Hz766rfBzk7KQJHDUT+rkarBL7afQEqUpsDf
7pnBswepQEVqMsD/6JjBsmepQIwYsb+KhKnBf6ulQKuALMBXLaTBybGxQAUCkT/hu7PBYwmmQCo3
gcBdzZPB2+LdQJLRdEDJ96DBuoa4QKzJdECn4abBQQvbQLbMbkAyTZXBl66NQHqDb0BSRZfBeybg
QJmTUECaLrnBqwu1QPblHkC4arnBUI+5QHzUckBLB7PBiJCtQMzoaEAwzYTB9xTZQGyjpsDC/YPB
KoaQQOjNcUCO0KHBbVmyQEtqb0BwlJDBEZ9JQHFubUDO2pLBbwT8QNGYaUCfA5DB5/+pQFYphMA8
yYXBSquXQPWHwMC31KnBBpycQBO7c8CP3rLBVzB6QDzt7L9sTbbBpBLXQAQ9HL9rGZ7BwxuDQJh/
vz5C/L7BbS3hQOW6xD9ZkafBcmWdQF9OxcBWBZbBLuqtQER68r8eNpTB7p78QOwzeUB74aTBW7T7
QIcgNkAN0bTBznXrQCQCckBRZMDBuASjQEg5JEAk8sDBjPmpQLgJlUB22LbBlWWLQPiDakASsoLB
erC7QBZqLEC8AoLB+xG+QFd8j0An9oDBoTXfQOcmq8B8zHbBKyPTQP/kxcB/wYfBERj1QNyDl8Aj
v4fB9Q8eQDQLbkAjt5jBasVCQOwkOEDkgY7BTDiLQM6onsAfraPBcwGOQKrvbMCgt6jB4lSIQKSN
Wb/lzq/BZ5DPQLIrEL8kKKjBnBGMQPLVyz4267TB7jjTQH6SLj+GP63BTfqgQMkQpsDG+5nBLny8
QOYaOsBdWZrBgS6qQOYUrL/laKnB776mQAqWKsCNGKTBgpixQDublT/Jv7PB/Ia5QJY2hcCZS5XB
i7bdQMQbbkCPEKHBf0S4QN+DcUCL6abBSvHaQD19a0B6XJXBxJKNQPqgb0B/QpfBVtXeQJjtVEB+
qrnBx2G0QKqgIEAuhrnBQ6m4QHlzc0DDCrPBwo6tQFVUakDozoTBZ3K9QG/RScD3aYDBz1KQQKYO
cUA6zaHBuU+yQKfnbkCLmpDBUHNJQFUbb0BW0ZLBSvH7QKCTZ0BlEZDBaHDUQBdgjsBRJInBobtw
QBbbt8BpP6fBn2p6QInRYcCeI7DBHAFXQJZwt7+AxbDBwn3pQMJ6bb+FPqPBgBVkQDbFRD/qxLnB
Fd3vQK/Ooj/4MqzBb9ieQELyxMAeJJbBInnPQEr5B8DGw5bBCmr8QFljbUDtB6XBF4f7QFG8O0B6
qLXBFljoQPsQeEBL6cDBuRKhQH/UJUBs2sDBW5anQIsjlUDXirbBgXGLQAsHbkB2sILBmOm6QGCF
LUDM44HBqs2+QL4FkEADGYHB9N7LQDRiTsBh0HDBDRHEQEJBCsDP0IPB3qWaQME3U8DRmn/BTcsd
QD7yb0CoqpjBN+FBQEhAOkA/aI7BPS68QBWjkcCu4J7BJQXEQJBZVcA6L6TBUiXUQID4Mr8qnq7B
062NQICKaTw5cqjBm9zXQPTK+D6Lm7TBUBCRQAfOlT+soq7BjqGZQPUulcCZvJfBO/yIQGrFE8D8
cZrBrkSvQHIkcL/wR6jB2EOqQNCADMCWDqLBlbu2QFMfuD8jXrTBuNJ+QKr1YsD00ZXBHeuMQMDY
fECjYaLBj8+0QOw/eUDLFafBCT+JQNa8akDS5pbBW4/WQNZlXkAKfJbBB7DjQFI9ZkAHbbjBcke7
QCIQMUD2/bnBzQe5QLt9gUA6JbPB3LmtQCoIUUBCT4XBnPtHQKC0YsC39YDBgYvZQGLea0DA36DB
qMyuQHgrW0DLGJHBF4H8QNiNU0Cx3pDB/nRLQNqHZ0Dfv5LBNpQgQHaEbcCjiI7BX77QQODTrMAA
TKDBrs3dQK/8UMBy6anBMobtQHxAt78a2K7BRW9iQHVfIL5XvaPBpxf0QIIYKj/qYbnBiydtQO5k
7j/bBK/BMEaTQMkrs8Amv5PBla9tQJSNt7+RMJjBGedhQINWhkBHDqfBMu79QHabTUAqb7PBUQnx
QLZyhUAwKL/Bck+sQECcNUC478HB6QmpQMw8nUBAzLbBK1LOQLlWRUB3U4LBF/SgQFnbhUDNpIHB
WxiZQHqFGkCqNYPBaD4SQA4naMDGoXbBheF2QBPGisB9pH7BscJmQCTaI8BNAYDBC6EKQQf9V0DH
6JXBMPT+QJ53gEAaQ4vB2kW4QKJnjcAP8Z3BtAi+QLMiTcCsaKPBTPvQQKCh2r7RWKrBh7qDQHIC
gL32uqrBqE3XQNurRT/V9q/BTR6KQAwhkT85cbDBzHCVQPekksBg8pbBIJh7QCvZE8B85JrBOTCn
QBWmW794sKfBDuCgQC3WCMDa7KHBd/CzQE7axz8VArPBJtNvQH21YcCOYJXBmLXZQOkul0AY/qDB
SXS4QBm8h0BjIqfBbrPUQEyul0ALUJXBgiWPQNzKbED93ZfBjNfkQMj+aEDdXLjB7ze6QAa0NkAC
MLnBPvC7QO0fhkC9NLPB6gaoQMCOhkBPLoXBTA8gQKk0rMDbP4fByTKTQDNZb0DQXaLBhHqvQF67
hUBe5pDBlMlSQJZySkBhz5PBD/vwQF9Xp0A6vo/BWt4WQLIHa8C+oYzBK6nOQNBPp8BDHZ/BddrY
QON5RcD9xajBUTrsQMc9g78eCajBJmRHQGfQv742qajBp1b3QGayiz/+9bHBK9pdQFET3T9S37LB
ci+RQGWPsMDnwJLBbKlOQF9IwL9jvZnBB8T2QI+mokBisKTBcPf+QN+xUECsTrPB21vyQGochEA2
fb/B78eqQAoLOUA2F8HBpkStQEA5oUCgdbfB502JQFoAbkDHW4PBxgvCQLW3akABGoHB4TanQG/u
p0D+Y4LBwR7WP5FMssA/qYHB8T4dQNphw8AH3Y3BwGFdQF2Zr8DTAoPBCAMtQJBbOEDq25nBAGtg
QPayF0BEPo/BPFBsQMp5jMDL8ZzBPFZ3QGwuScAA/aHBTzOLQKvGor4Qb6jBY+bQQAcOhr/8Ea/B
M4KQQAc3aT+/s63BS3fWQKJ9Rz76KLTBFQ+aQMcypMAQnpnB8DHJQLorWMDtWKDBVkmrQCgeqL+B
GanBOE2lQKX7J8D8vaPBtoO2QD6Ilz/wYLPB65zDQNz4k8BdT5vBlA+OQJjmd0AuMaLBuCi2QG1t
ckDku6bBZVyKQIZ9dECAgpbBPw3YQCtib0Ccy5XBIizlQDJzU0BKs7fBBOq7QDeAIECLHbnBjbu6
QI0ZdUAFzbLB2WGuQA6ZbkAsloTB7B7oQNgYtcBipojBhvzaQKj7bkCbVKDBPxywQCcqc0B3bpDB
mx/+QAIhbEBBCJDB0X1NQHakc0DtYZLB2LbwQN06scA8KJfBcq4sQJXlmMAHoJvBBQ1AQJoNJcCC
iaTBKwVdQBMgAb+I2qPBinHpQOvU5r/6tq/B/rhuQMFQ0z/OZ63BqUPzQAwGyD4frLjBq8aVQLXW
wsBXxJXB0RLpQBmJP8D7oaHBfdxjQJiRfkBEJKfBMKT+QKwOO0BYcrLBtpbzQN9wdECdlr7BMrGt
QHisI0DHJ8HBQwusQOz9lUAU6bbBTBzPQEM5bkD6WIHBP/6cQEdAk0CDeIHB1b+dQBeuM0DTJ4LB
rFABQaULx8DV/YTBrszmQIrClMB8MIXBqMbJQK3LxcCzFIfB82wLQSLlaUAyGpXBQUoAQSUkkECu
b4vB

> <OMEGA_E>
II8pPnhpTT5UIPQ+CKn0Pkx7AT86LAI/XA0JPxjsIT+gcEE/

> <OMEGA_NBR>
     83111

$$$$
50219809
  -OEChem-04172616093D

 43 46  0     1  0  0  0  0  0999 V2000
    6.4859   -0.8329  -21.8996 C   0  0  0  0  0  0  0  0  0  0  0  0
    4.3493   -0.0669  -20.9986 C   0  0  0  0  0  0  0  0  0  0  0  0
    6.6264    0.3911  -22.5886 C   0  0  0  0  0  0  0  0  0  0  0  0
    4.4698    1.1239  -21.7193 C   0  0  0  0  0  0  0  0  0  0  0  0
    4.3747   -2.4157  -19.2206 C   0  0  0  0  0  0  0  0  0  0  0  0
    5.2027   -4.6230  -19.3090 C   0  0  0  0  0  0  0  0  0  0  0  0
    5.3553   -1.0554  -21.0798 C   0  0  0  0  0  0  0  0  0  0  0  0
    5.6221    1.3794  -22.4830 C   0  0  0  0  0  0  0  0  0  0  0  0
    4.3589   -3.7596  -18.6497 C   0  0  0  0  0  0  0  0  0  0  0  0
    5.2047   -2.3029  -20.3116 C   0  0  0  0  0  0  0  0  0  0  0  0
    6.9365    3.7841  -20.1592 C   0  0  0  0  0  0  0  0  0  0  0  0
    5.7726    3.9261  -20.8835 C   0  0  0  0  0  0  0  0  0  0  0  0
    6.8447    3.5323  -18.7241 C   0  0  0  0  0  0  0  0  0  0  0  0
    4.4325    3.5917  -18.9550 C   0  0  0  0  0  0  0  0  0  0  0  0
    7.0431    3.5068  -23.1958 C   0  0  0  0  0  0  0  0  0  0  0  0
    5.7282    2.7007  -23.2182 C   0  0  2  0  0  0  0  0  0  0  0  0
    5.8121    3.9942  -22.4015 C   0  0  1  0  0  0  0  0  0  0  0  0
    3.4855   -4.1069  -17.4694 C   0  0  0  0  0  0  0  0  0  0  0  0
    5.4391    3.1283  -16.6957 C   0  0  0  0  0  0  0  0  0  0  0  0
    4.5214    3.8740  -20.2436 N   0  0  0  0  0  0  0  0  0  0  0  0
    5.5779    3.3739  -18.1510 N   0  0  0  0  0  0  0  0  0  0  0  0
    3.1581    3.4983  -18.4058 N   0  0  0  0  0  0  0  0  0  0  0  0
    7.8757    3.4193  -18.0713 O   0  0  0  0  0  0  0  0  0  0  0  0
    6.0132   -3.8223  -20.6353 S   0  0  0  0  0  0  0  0  0  0  0  0
    7.2412   -1.5985  -21.9983 H   0  0  0  0  0  0  0  0  0  0  0  0
    3.4824   -0.2326  -20.3760 H   0  0  0  0  0  0  0  0  0  0  0  0
    7.5008    0.5720  -23.1961 H   0  0  0  0  0  0  0  0  0  0  0  0
    3.6730    1.8524  -21.6896 H   0  0  0  0  0  0  0  0  0  0  0  0
    3.7943   -1.5945  -18.8267 H   0  0  0  0  0  0  0  0  0  0  0  0
    5.3457   -5.6598  -19.0424 H   0  0  0  0  0  0  0  0  0  0  0  0
    7.8986    3.8576  -20.6443 H   0  0  0  0  0  0  0  0  0  0  0  0
    7.9220    3.1133  -22.6640 H   0  0  0  0  0  0  0  0  0  0  0  0
    7.3712    4.0516  -24.0934 H   0  0  0  0  0  0  0  0  0  0  0  0
    5.1530    2.7716  -24.1531 H   0  0  0  0  0  0  0  0  0  0  0  0
    5.2912    4.8561  -22.8440 H   0  0  0  0  0  0  0  0  0  0  0  0
    2.5050   -4.4538  -17.8277 H   0  0  0  0  0  0  0  0  0  0  0  0
    3.9638   -4.9041  -16.8815 H   0  0  0  0  0  0  0  0  0  0  0  0
    3.3510   -3.2162  -16.8382 H   0  0  0  0  0  0  0  0  0  0  0  0
    4.3737    3.0321  -16.4395 H   0  0  0  0  0  0  0  0  0  0  0  0
    5.9656    2.2001  -16.4288 H   0  0  0  0  0  0  0  0  0  0  0  0
    5.8755    3.9705  -16.1386 H   0  0  0  0  0  0  0  0  0  0  0  0
    2.4752    3.6698  -19.1158 H   0  0  0  0  0  0  0  0  0  0  0  0
    3.0240    2.5817  -18.0290 H   0  0  0  0  0  0  0  0  0  0  0  0
  1  3  2  0  0  0  0
  1  7  1  0  0  0  0
  2  4  1  0  0  0  0
  2  7  2  0  0  0  0
  3  8  1  0  0  0  0
  4  8  2  0  0  0  0
  5  9  1  0  0  0  0
  5 10  2  0  0  0  0
  6  9  2  0  0  0  0
  6 24  1  0  0  0  0
  7 10  1  0  0  0  0
  8 16  1  0  0  0  0
  9 18  1  0  0  0  0
 10 24  1  0  0  0  0
 11 12  2  0  0  0  0
 11 13  1  0  0  0  0
 12 17  1  0  0  0  0
 12 20  1  0  0  0  0
 13 21  1  0  0  0  0
 13 23  2  0  0  0  0
 14 20  2  0  0  0  0
 14 21  1  0  0  0  0
 14 22  1  0  0  0  0
 15 16  1  0  0  0  0
 15 17  1  0  0  0  0
 16 17  1  0  0  0  0
 19 21  1  0  0  0  0
  1 25  1  0  0  0  0
  2 26  1  0  0  0  0
  3 27  1  0  0  0  0
  4 28  1  0  0  0  0
  5 29  1  0  0  0  0
  6 30  1  0  0  0  0
 11 31  1  0  0  0  0
 15 32  1  0  0  0  0
 15 33  1  0  0  0  0
 16 34  1  0  0  0  0
 17 35  1  0  0  0  0
 18 36  1  0  0  0  0
 18 37  1  0  0  0  0
 18 38  1  0  0  0  0
 19 39  1  0  0  0  0
 19 40  1  0  0  0  0
 19 41  1  0  0  0  0
 22 42  1  0  0  0  0
 22 43  1  0  0  0  0
M  END
> <OMEGA_C>
qIzPQEE2Vb9IMq/BEi2LQCwAib0M/afBdwvUQFpCyD55tbTBRAiPQKTcjz8gwa3BxP2LQHCaGsDc
w5nBR3ymQLTvk8DreJrBPl6rQI8Xh7+Fo6jBF+izQPeQsD8V3bPBU3yLQKCccMCZMpXB5oymQBxj
E8A7fqLBaffdQBYuckAJRqHB1bi4QKJFe0B9EafBaAfbQJwRYkDxypXBateNQKTdZUDxo5fBOWHh
QNhuYEAIkbnBOU23QBzYLEDVvrnBl/y5QHCgf0A1NrPBFhJfQAtsg8BXwYvBew2uQGY2SEC+kIXB
Y6+QQKLvd0Dg8qHBCn6yQNDtV0AsNZHBth5KQHLjX0AFP5PBgwX8QKbVWkADkpDBDWzAQPqfdMAc
FaXBgrfnQDWdzL97/K/BX+BeQC8pbr4GAqPB4gbwQMBxEj+UkbnBPxJrQEgb7T9IhK3BotVyQF0Z
zL8KnZbBRxCrQLkctcDdVpjBPMH8QArjdkBxJ6XB9ID9QOVAR0DwT7XBh+DrQF+mgUA1v8DBKuWk
QEViMUCWOcHB21GpQBFlm0B5wLbBq1EgQDKFjsAMn47Bja99QH7unMA4DYfBVnZWQIrVTcCitIbB
qPWLQJMNQkAHhIPBXOa+QJDODEAXboPB1gO8QPYcfkDdG4HBsmkeQBzeakA57ZjBu4lBQPo6JUBP
O5DBDKjQQEYbWr/2eq/B6j2NQCsiMb13CajBoQLWQLCpwD5k4LTB7M+RQAkukz+6v63BEQONQDQZ
GsCd5pnB9IenQHezk8BDkprBlbOsQCC5hr8GzajBKPq2QLpcsj/0zbPB5/KMQKnLb8AdOZXB23en
QEkgE8Cvp6LBg82NQD0AgEDAUaLBINe1QGzke0CY7KbBDZ6JQHHra0D655bB9uvWQDS3X0CZSpbB
h83kQBLIYkB2E7jB0gq8QKpmLkCegLnBUkm6QNAigUAB+7LB6j5kQPOrgsB8jYvBYhitQKCTSUCW
aYXB3l/aQLY9b0Cen6DBmd2uQCMNWkAkFJHBZpn8QLd4VEDSk5DBt8VLQCDyZkBk5pLBMRzBQHSQ
dMAGQqXBsQPoQDC/0b+lc7DBEQ9jQDGSRr5oBKPB/9rxQOfFCT/b07nBH1BxQInl8T+0g63Bq3N0
QPxDy78pzpbBoQKsQLHltMDpcZjBIkxkQCrOiEC3AqfBBbr+QMWjSkDW8bLBGJryQPuhgkC97b7B
amWtQA8KMkDWfcHB3s+qQGafnEDZ4rbBauwkQOz4jcBiKY7BOgmCQKjvm8Bp5IbBcaRcQM/qS8BA
jYbBg4/NQBP/PECpZYLBEr+fQITwgEApUYHBEaeYQBigEUB43IPB/s0KQTZSWkCfg5XBiYb+QClm
gEC204rBParSQHQEGb850KzB79eHQCDnm7y8tqnBX17YQKDpGj8dgrLBkQyNQArHkT9q6a/BPTfD
QAoXPsAK+53BXm6FQNqxhcDVupjByYyqQA6rZr9TKKjBAOG1QJNlwD9GwLPBd2WxQIbNhMCif5jB
WtqjQGqFCcB0FqLBGt3BQNboqUDO/6DBLp+zQCvEh0AK+abBIye5QOD0qUBXbJXBqM6TQOuaTUCg
15fBG7HlQATWZ0A/FbfB+Ua8QMyXNkDEN7nBrfC6QAyYhkCoBbPBdpzMQMjDpsAcPJPB5ByYQNHk
hUDDcYXBljmbQBt1T0BwK6LBIy6jQJADh0BI9pDBpvN3QJ7tCEC79pPB+pDFQAANyEDa84/Bwtxh
QKbXMsAZYJ/BjfzsQPcjpb/m/6vBN2FSQO/5cb5AH6bBZTL3QCMqVz/77bXBxEpjQIOs4D+RwbHB
exDlQApgMcDbsp7BBEFkQF61nsC0OpXBJP7SQOwAxEBFtaTB6SX9QOaRTkDmVLHBK5z2QJSAg0CD
vr3B2XuwQLo0OkA2f8HB1GWuQIv/oUCRkbfBrVDSQGASnsDU04rBa+27QOa5xcCEmJPBF2nrQDg8
qcBMc5fBbRuHQNvjT0A1oIPBK5O1QDmch0DkpYDBoHCDQPtNoUC1gIPBGxJoQI6axD+VBprBs2ON
QAK10D/UoI7BRMXQQN2sV791jK7BxH6LQP/W870qkKfBpm3UQOZWvD43PLTBnhePQGrmij82SK3B
5p/HQG7kTcBAT5/BuJOLQJzBjcDA/JjBJzesQM3Ji78LL6jBpMazQG54qz+JirPBrnm3QOcrjcB2
s5nB0C+nQCGiF8BCbqLB59ChQHtfoEDtw6HB3q23QBM2gEB79qbBLCKfQGIFn0AbC5bB9M/HQEGy
OUAJq5bBBJ/iQM6BXEBnh7jBG0K4QFOjKkD3WbnBke65QA26f0AlH7PBzyDUQLnMr8AhPZXBETmw
QK6IckAc14TBi5bLQCikPkADJKHB0wmxQDujd0BzrpDB3EXbQOip6D+Kp5HBld2MQA0NvEC0RZHB
2XNqQMrqQMAczp7B4ujpQHBcyr90DK/BwjpfQN+zmr4SrKLBDUTwQDiRDT/zIrnBKXlrQESf6D8U
46zBqh7pQNnFQcDlzaDBJKlyQEQap8CZSZXB+fqSQKgCukBzN6bBjPb8QHNXQ0CrnLPBo9LvQIas
fEB2oL/BlVuoQOAtLkChMMHBwAGrQN5Zm0CGKLfB/L7cQCL1p8BV74zBEiTDQNSezsDcbJXBi1vx
QLMJssAuHJrBW7+/QKbkNkCgO4LBN3XBQPfQlEBCdYHBRNqOQBpPc0CtCoLBqrHpQBxwnz8II5fB
5fvwQNCQCUAzaYzBnt3NQAN3Ib7CJKbB646HQKnjx77Xcq7Bvk3UQCnyhT9XuKvB9E6OQCddTT/p
KLTBQLa/QG7SP8BMAZ7BReWBQL8zhcDNO5jBnYCnQMc8Yr+FfqfB18a0QPMqwz/75rLBDt2tQErc
hcCan5jBNF2gQBsfCcCKp6HBjkzZQJgGl0AaJKHByS24QGMFh0DaPKfBx2rUQEm8l0AgdpXBQT6P
QFQAa0Ae65fB7oLkQGQ8aUAelLjBWHm6QHZQNEA+ObnBe5S7QOAphUABTrPBkgvJQA9/qcDMFJTB
TheoQGeZhkDdRYXBszmTQHHHbEBgbaLBoW6vQNmBhUA2/5DBbXJTQLYgSEDmy5PBTJXwQHDZp0DE
74/BwOVaQKynL8Aodp7BLlbmQFY/B7+9z6DBmL1TQEtObr9pYa/Bj2nxQC71zT+WharB2ddrQHFw
lT8UirnBbZHhQCRYNMD7+p7BORVdQCe3ncDjiJTBWSv2QPXEokDN36TBokP/QD6gUkBLm7PB9yjx
QPJ2hEClxb/B4JGqQGKuNUCCEsHBsu2rQLSwn0CmkLfBVPbQQDBOosCBsovBjzy3QAfRx8COe5TB
pbnmQPVQrMBzwpjBEI+JQIyGbUDLZoPBilbCQOaca0DfLYHBUvGmQEALqEA0i4LBuMotQJAVNUC1
z5nBA71hQBrvFUB0Ko/BMn3SQFv1iL/zda7Bo4yLQK3tvr4kbKjBE67XQESfKT5KtrPB/7KQQIGd
Wj/2t63ByXDFQEr7X8C8/Z/BZ/SHQGhEl8CX0ZrBZ1qsQHIBrL89xajBYQO3QAuokT/mObPBc/Kz
QMuulsDm3JrBmNWlQAQLKcBpbqPBaLqNQBXzdEA+MKLBrcS1QF85cED6xqbBgk6KQAtwckB1fpbB
+QjYQB46b0A/4ZXBpsHkQHODUUBUwbfBNOS7QJEzHUBqFLnB8x+6QEQzckDK2rLBJ3zPQG62ucBJ
K5bBYb2uQJuebkA3nYTBlr7aQLgrbkDnaqDBkzGwQBl0ckBDd5DBqED+QO8/bUAeK5DBjJZNQOYj
cUA+UJLB8CBmQA7XUsAZtKDBD6frQFSU579nx67BIdRcQENPE78aEaTBl7H0QAf+vD59HbjBY3Bu
QP6syj9Pk63BAj3nQKW5U8Df8aDB1K5pQLbqsMBBjJfBNeViQGxkekCZG6fBJXv+QGlHOkBQf7LB
5NLyQOZ2ckDrsL7BHoqtQCxiH0BGHMHBGvSqQEwrlEBPArfBIBDWQMGessA5tY3BJJm+QL1/2MAO
yZbBi9jtQCKIu8BFmZrB2YjPQFNGb0AIa4HBFBGdQMwkk0A9iIHBIYeeQMFzM0D3GYLBMXALQZE9
a0B9RZXBREEAQZPikEC4oYvBfFzVQDNzSL+MOKzB+gGIQH2HHb/g0qnBmi7VQEGO3z4JzrHBAe6H
QMSSGz/GX6/B10jRQJFUWsCiRKDBHIiaQCRNl8DfepjBULuuQINBqb8VNajB/HquQNQjkj9MXbPB
ErLFQP15lMAgdJrBvU2uQA5oJ8Bld6LB1GvVQFHXUkBkwqHBe4OyQE4gckBkUafB1wjVQBOPVkBO
DZbBqraPQHYMjkBQTpfBbyzWQMn+U0AJhrrB7nStQJQYHUBefbnBNMOwQMXYckCWfLPBq+rlQEzj
tcBREJfBs/mvQHhtgUD7JIXBuLSPQM8Wi0DJ2KHBXlSyQPJwfkAZ/JDBVBZYQMmjoECJhZLB+yzz
QLk6OEDvCJHBttl+QBNWVsBdhp3BOB3zQB++p79p/arBwrJUQNZNgr9VxqbBhMLyQOBRVj9667TB
+nhUQPPTkT/9lLDBLaDxQHVJSsCJj6LBbmmLQK6RscAHVJTBs3rwQEgmOEA2+aXBmDP0QAWfPkD+
ybbBG1bdQInSdEB9GcLBz2aYQDjnHUCHisDBVbydQEuLk0Cs+bbBS//xQLkxrsBvBo/BUn7WQFOG
1cDE7pbB41sAQedGtsCQxJzBsoiSQLgzkkDtwoLBTbevQE6lQUAp1IHBvfDLQJvjkkCwD4LBJhou
QNAzqUDaKpjBrMA8QLKPi0DxkI3BJfPSQFcaQ7/q4K3B+3yMQEu5470UK6fBP4fVQNHz4z4npbPB
BlWPQAkGjT96z6zBGD3IQIgpOMD5U5vBr1ySQEldkcAAmprB/UuuQImchb8TrafBW+uzQB5nsT/t
CLPBDs+5QOknhcCgyJbBckWqQO69FMAkEKLBnfyQQOellEBLUaLB3VmzQJa3gUDxWafBzI2PQB+H
lEColZbB3PHTQGH7XkDn2ZbBzejeQORJYkBa77jB2D62QBt7K0BUWLnBVk+1QKv1gEDMe7PB2ovT
QJPMnsA+zY7BnuSxQJJvgEDkI4XBl67UQF5wXkB5ZqHB7SqyQO2igkBE/pDBixH2QGwpOECyl5HB
HC1hQDQtpEA3/pHBOu96QLSLVsABUqPBC/vsQABWvL+4M67BjNBgQLR6qL5ocaLBWjzxQOnTJj+8
ibjB0/1qQF2V6D8FYqzBDc/mQBQlG8BYkpnBiWeCQJ/NrsDLdpjBiEVvQAJFo0DO6abB7kf6QJHJ
TUD5B7TBJabqQBwCgUDFOMDB0cmlQKezKkCYH8HBuWykQCkCm0DfobfBmxTLQDDJlMCVoobBNGzM
QAUKwcCRzI/BU+D1QKs+mcCwKZDBcK/PQKbcYkCZVILBzWuvQE71oEC21IHBvluWQAOVWkB7d4LB
5FcFQYrxIEB6+pbBQXMCQZlJY0A6/YzB

> <OMEGA_E>
QFclPUih9D4O0Hs/PMN/P9pJKj/cayo/XsBIPzjuYT8=

> <OMEGA_NBR>
     89498

$$$$
50219811
  -OEChem-04172616093D

 43 46  0     1  0  0  0  0  0999 V2000
    4.2904    0.0890  -21.0646 C   0  0  0  0  0  0  0  0  0  0  0  0
    6.4603   -0.6934  -21.8730 C   0  0  0  0  0  0  0  0  0  0  0  0
    4.4105    1.2307  -21.8564 C   0  0  0  0  0  0  0  0  0  0  0  0
    6.6040    0.4890  -22.6254 C   0  0  0  0  0  0  0  0  0  0  0  0
    4.2750   -2.2044  -19.1854 C   0  0  0  0  0  0  0  0  0  0  0  0
    4.3078   -3.5359  -18.5818 C   0  0  0  0  0  0  0  0  0  0  0  0
    5.3160   -0.8769  -21.0594 C   0  0  0  0  0  0  0  0  0  0  0  0
    5.5854    1.4656  -22.5900 C   0  0  0  0  0  0  0  0  0  0  0  0
    5.1668   -2.0754  -20.2292 C   0  0  0  0  0  0  0  0  0  0  0  0
    5.2249   -4.3562  -19.1901 C   0  0  0  0  0  0  0  0  0  0  0  0
    6.9463    3.7273  -20.1606 C   0  0  0  0  0  0  0  0  0  0  0  0
    5.7860    3.9028  -20.8842 C   0  0  0  0  0  0  0  0  0  0  0  0
    6.8494    3.4538  -18.7285 C   0  0  0  0  0  0  0  0  0  0  0  0
    4.4391    3.5233  -18.9655 C   0  0  0  0  0  0  0  0  0  0  0  0
    7.0618    3.5763  -23.2115 C   0  0  0  0  0  0  0  0  0  0  0  0
    5.7333    2.7962  -23.2869 C   0  0  2  0  0  0  0  0  0  0  0  0
    5.8326    4.0430  -22.4023 C   0  0  1  0  0  0  0  0  0  0  0  0
    5.4707   -5.7891  -18.8176 C   0  0  0  0  0  0  0  0  0  0  0  0
    5.4365    3.0472  -16.7051 C   0  0  0  0  0  0  0  0  0  0  0  0
    4.5323    3.8336  -20.2479 N   0  0  0  0  0  0  0  0  0  0  0  0
    5.5809    3.2966  -18.1597 N   0  0  0  0  0  0  0  0  0  0  0  0
    3.1629    3.4113  -18.4238 N   0  0  0  0  0  0  0  0  0  0  0  0
    7.8775    3.3430  -18.0707 O   0  0  0  0  0  0  0  0  0  0  0  0
    6.0700   -3.5432  -20.4718 S   0  0  0  0  0  0  0  0  0  0  0  0
    3.4107   -0.0547  -20.4548 H   0  0  0  0  0  0  0  0  0  0  0  0
    7.2215   -1.4583  -21.9166 H   0  0  0  0  0  0  0  0  0  0  0  0
    3.5958    1.9381  -21.9061 H   0  0  0  0  0  0  0  0  0  0  0  0
    7.4878    0.6472  -23.2256 H   0  0  0  0  0  0  0  0  0  0  0  0
    3.6243   -1.4100  -18.8507 H   0  0  0  0  0  0  0  0  0  0  0  0
    3.6834   -3.8385  -17.7541 H   0  0  0  0  0  0  0  0  0  0  0  0
    7.9101    3.7908  -20.6438 H   0  0  0  0  0  0  0  0  0  0  0  0
    7.9290    3.1397  -22.6944 H   0  0  0  0  0  0  0  0  0  0  0  0
    7.4072    4.1617  -24.0764 H   0  0  0  0  0  0  0  0  0  0  0  0
    5.1650    2.9187  -24.2207 H   0  0  0  0  0  0  0  0  0  0  0  0
    5.3309    4.9363  -22.8027 H   0  0  0  0  0  0  0  0  0  0  0  0
    6.2468   -6.2110  -19.4730 H   0  0  0  0  0  0  0  0  0  0  0  0
    5.8053   -5.8436  -17.7711 H   0  0  0  0  0  0  0  0  0  0  0  0
    4.5398   -6.3632  -18.9351 H   0  0  0  0  0  0  0  0  0  0  0  0
    4.3700    2.9527  -16.4528 H   0  0  0  0  0  0  0  0  0  0  0  0
    5.9599    2.1170  -16.4390 H   0  0  0  0  0  0  0  0  0  0  0  0
    5.8728    3.8868  -16.1442 H   0  0  0  0  0  0  0  0  0  0  0  0
    2.4820    3.5942  -19.1329 H   0  0  0  0  0  0  0  0  0  0  0  0
    3.0324    2.4862  -18.0671 H   0  0  0  0  0  0  0  0  0  0  0  0
  1  3  2  0  0  0  0
  1  7  1  0  0  0  0
  2  4  1  0  0  0  0
  2  7  2  0  0  0  0
  3  8  1  0  0  0  0
  4  8  2  0  0  0  0
  5  6  1  0  0  0  0
  5  9  2  0  0  0  0
  6 10  2  0  0  0  0
  7  9  1  0  0  0  0
  8 16  1  0  0  0  0
  9 24  1  0  0  0  0
 10 18  1  0  0  0  0
 10 24  1  0  0  0  0
 11 12  2  0  0  0  0
 11 13  1  0  0  0  0
 12 17  1  0  0  0  0
 12 20  1  0  0  0  0
 13 21  1  0  0  0  0
 13 23  2  0  0  0  0
 14 20  2  0  0  0  0
 14 21  1  0  0  0  0
 14 22  1  0  0  0  0
 15 16  1  0  0  0  0
 15 17  1  0  0  0  0
 16 17  1  0  0  0  0
 19 21  1  0  0  0  0
  1 25  1  0  0  0  0
  2 26  1  0  0  0  0
  3 27  1  0  0  0  0
  4 28  1  0  0  0  0
  5 29  1  0  0  0  0
  6 30  1  0  0  0  0
 11 31  1  0  0  0  0
 15 32  1  0  0  0  0
 15 33  1  0  0  0  0
 16 34  1  0  0  0  0
 17 35  1  0  0  0  0
 18 36  1  0  0  0  0
 18 37  1  0  0  0  0
 18 38  1  0  0  0  0
 19 39  1  0  0  0  0
 19 40  1  0  0  0  0
 19 41  1  0  0  0  0
 22 42  1  0  0  0  0
 22 43  1  0  0  0  0
M  END
> <OMEGA_C>
/UqJQJBctj0zhKjBJ7vOQIaDMb/d+67BjSKNQN6InT8B2q7Bo1PTQI5h+j7hALXBqcyIQKcUDcCd
e5nBdNmJQGBMYsBtp5TBUByqQF5/YL+teajBxLuyQFiauz9CuLTBolalQOHSBMBu1aHBljKnQGRm
i8BIhZnBR0jeQIqLbkDbSKHBwia5QLHHeUDlEqfBZS7bQMYKXUAP1JXBJg2OQKB9YUBuuZfBkfrh
QMbhZEA4sbnB1Ha3QIT0MkCIS7rBAaW6QJlggUDgN7PBtw+vQF9AucBeipbBvPetQAcFQ0AKpIXB
gAiRQEFZdUCm+6HBgZayQDP7UkAER5HBlG1KQJ9SWkDkY5PBvxT8QDHzVUDVkJDBSz3CQGjDYsBZ
xqPBGUhaQMoAYL13o6PB3BbnQDKqur8tVa/BXCJmQAAT+D+jP6/BFpzvQOOvJT8DzrnBHPVnQKx6
tL85zpbBUL1rQNCpdcBjCI7Bix/9QGicckB7JqXBOLr9QDzwSEAijrXBIQjtQLQshUBwnMDBf0el
QL3LOkAIxMHBapaqQBL2nUDqa7bBsuXHQHjAxsDIyJvBZcW5QG3+usBFK47B4UWRQJyfy8Ave5fB
7daLQHf4PEBqn4PBqre+QE19B0AAg4PBAu67QJvBeEBAJ4HBSdkeQCcHZkA5EJnBSBJCQHseH0Bq
iZDBNaaGQJl5t74SF6zBVzjUQIJaJL8oIavB1kGMQGaQWD/Uw7HBuuPZQKFVDz9LyrDBStShQEVa
ZsCJJ6fB79WcQLd2lMCP6J7B/aiqQHAhjb+P0KjBuue1QLJ+qD+vF7TBxwylQHXRFcAOyqLB5ayc
QLi8g8Aft5TBbF+0QCNPpUBC9qDBRdW3QALIfkC/g6bBP4ivQGaTo0BqRZXBBx6wQNhlLECSrpbB
nDLlQAZBXkD4xLfBHUy7QIbhK0DlUrnBv7+7QCsGgEAPrrLBLB+YQB41ncALhYrBhhSoQAvkbkD7
kITB4va1QCmNMEA2EqHBePyrQKWtdkBzVpDBMh+uQLQKtj/2KpLBAiauQDIIxUAdKJDBV2GiQCCh
GMAq55TB7KRNQBcDNr9fQKrBB7nvQOUVm7/3jqjBq1xhQHOqtD9BWLTBOMb5QERXaD97oLLB8tei
QEpEc8B1o6/BE6mZQP0otsDxp6DBeDK1QOugw0CBGqXBUq7+QGD/Q0CXqbLBipjzQAozgEBFkr7B
HdysQJUMMkD7T8HByWCtQFHim0C9rrbB8weZQBlqh8DjnIPBP+VyQLJ4rsBKmYrB95CyQF9QtMCn
6onBFrSlQFbnKkBeXILBbm/EQEqWhUDLu4DBjDOLQM9qiECv3IHBOaqxQAG6Oz8P5pfBS4DFQJQa
qT/9w4zBj5PVQHJoKr+VdqrBHgmIQIbw+r5JhazBYKzaQCWCDj+x4a/B/0uNQEdLMT8bbLLBqgTC
QMPHX8AiX6LB6MaxQOpUk8A8wpvBvyysQFgGl7+mmKjBOGu2QFhioD+NvbPBai6mQL57G8D5oKLB
4dWKQBQTisCGKZfBq7ueQG9ZREDyvqDBW5e1QMHjf0AIkqbBxF+eQJE/SUC7HpXB/VHIQK+NpUCg
zpbB8sDjQMzfXEDyt7fBAVi6QF3+JkD2I7nBFc25QMwpe0DtsrLBp7FjQL01p8BN2I/BL1SyQDo+
jECJe4TBeHHKQAKjoUBrU6HBpu6xQBrih0B0SZDBhgndQBxyyEDSPZLB+FeMQH/XEEB6/I/B2f5x
QAsaL8Bs05rBElbxQFP8mr8fu6fBgp1QQMhjX786+6rBlk76QCXUdj8GGbHBkqBjQGBnlj/H9rXB
m0fgQIguYcCBiqbBqIfCQAw6scDjo5rBjjONQNZfEkAtzKTBQcv9QNIhRUBNmLLBU2PxQDuDf0Bi
lL7BN86rQPtCK0AWI8HBsa2qQPJrmEC79LbBAvUnQL5Pl8BIa43BWX9UQBwgxcBWE5TBaRiFQNpz
rsAAtIjB/xjDQMDgqUB0QILBaT2RQO9vjUDrfoHBBfDCQDRIYUB374DBNe/qQG7Y2UCY/JfBi77H
QBiA2kDKVI7B0NSKQEAKAb4zLKjB4mvQQJhAZb9vqK7BvVCQQH4Qiz+TuK3BUiXWQFJppT53GrTB
+fyQQI1+X8Afc6bBsWiRQPGUksAyg57BHM2qQBUmj7/YsajBkEu2QPtNqT9mkrPBcY2lQJlwF8DF
xqLBpyWmQBceh8DjOJXB5WijQLGtn0DuuqHBsKG5QLlWfkDpsKbBqvadQLvwnUDjEpbBHhXFQAKR
NUDMSpbBbuvnQBNYWUCLrbfBahq9QBD4KUDWJ7nB+pi+QBZufkBEy7LBgQisQDVYo8AmiYvBXQmq
QO4rbkCbwoTBvVnLQK8gO0CEr6DBxrWtQAssdEB/j5DBDnnWQMqw3T/eGZHBzU6LQHU5u0BUf5HB
lF65QIrPJcBv6JXBTWhcQBJxl77dhqPB09DoQBVa1L/vC6/BGPpuQFAs6z+Jgq3BGuryQHvk/D4c
sbjBrEGCQCtrZMC8Pa7BZRWDQO6WscAC1J/BwkmWQJzcuUA1UabBzmEAQd9NPkCWcLLBGiD3QPxL
eUBEib7BoQqvQOITL0CYMsHB0l+xQDtFm0CX9LbBAsG9QKS5kcCNVoXBuoWMQBzArMCbZYjBxRu+
QNkkwMDwz43Buy+4QLORMUCbA4LB3Ru7QFsPkkBlDYHBLRWIQK9kcEDCdILBlq/lQAndkz9kapbB
/C7rQE+PAkDKhYvB8u+FQMqfgL6kDq3BkrjSQMz22r7Pr6nB4M+MQPJkdD/SoLLBIKnZQLxGRD/A
VK/BDmeLQI6QUcAc7KXB0CqMQEnDi8D/BZ7BPvqoQHjscL8nkajBbLG2QBLfvD8HvbPBoImiQPud
C8BFkaLB2PiiQJ0tgcDZ+ZTBqFHFQGhLpUC/rKDBfFm1QJR3hEC62abBwMS9QGckpECKEpXBCDCW
QDx5REBn1JfB7j3mQAMCaEDUXLfBdAi9QDivNEDBQ7nBMKm7QLMPhUBv5rLBZgCpQIFencBxSovB
JhKdQBh3fkA1NIXBCoKcQGIqSEDxOKLBxh6nQJtOgUDUx5DB/957QBk9AEBEBJTBeJ7LQHYpwUBo
co/B4Ju4QPcmHMDa8pXBb+JLQC1oJb8rOqzBKHbtQAlQdL9yMabBAgRkQHrvvT8GEbbBssr5QFWU
kj9JT7DBBEZ1QCHOVMB3d63BJDR5QLJCqsAzMp/BqfrWQE5Hv0BQRqTB1cf+QGNKT0CZ3LHBBtf1
QF6AhEBjFr7BsCOwQAi7OED6b8HBmb+tQIV7oED9LrfBD4i8QO11jMAnUIXBUZeJQJQepcDQ0ofB
lUW5QAMXu8D0rI3B8E6LQHhAQ0COfYPBrgC7QAUEf0DRkoDBf3KJQNMIm0At9ILBXLJpQHSutj9S
JZrBRICPQC1Xuz/O6Y7BkJ7OQDIogb+Qcq/BlQiMQFGChb47HqfBfmjRQBpMWT4L+rTBqZaOQHdj
cz/OwqzBbKfDQF0qZ8DCQKPBjg62QBhsl8D4ZpzBqfarQAdXoL/JbqjB57KxQCaWmT89jrPBH1io
QHH4IcBklKLB9iqRQPt8jsDB1JbBQFrKQMKqPEB7aaDBFPS1QFvleEB5vabB+RHFQLPkQEBtzJTB
VwGcQMZ3oUAihZfBDRzgQKoEUkCDgrjBAuq1QMEdIkClM7nBNu+3QHrHd0CZ87LB5XB1QAhGrMB5
LI/BcfyoQGl6h0DSwYTBHuGeQE34nUDyBaLBayyvQGOIg0AWepDBrTOFQIQ1xECBhZPB8TvUQHDz
B0D0M4/BtxR9QNsUN8DorpnBi/rmQPaY4b/FjrDBPyNjQBjt3758vqHBlOjrQMz4yT7cU7rBDldr
QGB62D9t5avBONnfQDuWaMAXP6jBoSPHQMhftcBF0ZvB6NvdQFRXC0A6/6PB0Wv6QBX/N0Abp7PB
fUztQCJXcUD9qr/B6aWlQOk/JkAb/cDB3FKpQAiBl0CGAbfB2Rk8QNVwnMDr8ovBfYtiQFWfycBi
a5PBjXiQQLZ+tMArkYjBZi2XQF0CpUAp/oLBq9WWQPR0V0DfzYHBalzIQD6diEAbx4DBvzh0QCbQ
1UB+mZnBbkpZQBCouUBbH4/B11HIQFwbg79FbbHBkwSVQOAFirqrMKXBSznMQKVATj4A67bBaViX
QH6rmD8pAKvBfwvDQJTIXsDP0aLBDI2zQMPJksB0D5zB8DWtQLW2j79dZajBZ6S0QPbdqT9+hbPB
CyKoQB33GMDciKLBtYGNQOZCicDGDJfBCe6hQGh+oEDb0aHBWCe6QJJmgUCkwqbBpficQEK6nkB0
JZbBOrDHQEu0O0DbVpbBkonlQBOrWUAJDrjB3Hy6QLmbKkAjJbnB5wS9QJAMgECj67LBn5FpQHON
psBet4/BB6aqQEe1cEBc14TBEJvOQAAMQ0CCsaDB80iuQKwtd0BIo5DBdWjaQOh97D8PK5HBWQiJ
QOggu0DVj5HBO5Z4QNhKLMDzNZrBJAnaQHi58b/jHbTBu6OAQIH9gr3oOp7BHk7hQDaojj6IvL3B
/pKCQGYVAUDx8qjBgyjgQKtVYcDddqfBrzHEQErasMAbJJvB3e6SQO2WuUBsbabBT+f+QAPaPkD6
9LLBjwb0QAmheEBMFL/BcIGrQGdTL0AYFsHBSn+vQO/km0AsHLfBOkMvQFI5lsD88ozBUd5XQDbX
w8BCEZTBIcOIQMv3rsB4yIjBAiO6QM9rNUANGYLB4nG6QMINlEBCHYHBwaiIQFrQb0BQjoLBz+/q
QA/lpj/JdZbBrijuQGRmC0DKdIvBRvjTQLFs8r6azarBDlSGQPakZb6P4avBuCPZQPp4PD+IZLDB
c4KLQKLQdj8jv7HBTaPAQElQUcC9LaLBfL2wQD/6i8BEeJvBd4uqQDoVdL+UcqjBzOu0QNTDuz+P
1rPBJrekQFkTDcA2cKLBY+WJQCDAgsB/0pbBBy7EQJnVpUC0CaHBxfSzQFZ+hEA1/qbB856+QEbN
pEAuXZXBeRyYQN31Q0AFm5fBUJbiQDWcaEC767fBU5W5QAcfNEAZcLnBvF+4QDrZhED0GbPBz25i
QO/Mn8CJao/Bjo2hQNAKf0AOHIXB6KOcQGh1R0A1DqLBxIipQBWSgUAnyZDBQ0aBQMC1/T9ff5PB
hsXMQEBBwkAy7o/Bl5FvQNm8IMDEiZrBNLvvQNifhL8aT6jByi5NQOCxFL+J/qnBsuL4QMTpjT+M
D7LBAIFfQNBFvz+lqbTBksDeQCPPUsDlaabB0afBQOnDqcBNU5rByprUQI4gwEBD26TBKQ38QNbI
UEAOoLLBVgDxQPvohEDpyr7BcIWrQGl2N0COfsHBwXqpQNT9n0C/SbfB4bUmQED0j8Cu9ozBNjtT
QFjZvcBQlpPBErCEQAjLpsDtS4jBaceQQEEfQ0AKLIPB9z7AQCyRgEAsz4DBybaNQJfsmkDPrYLB
0SRvQISRsj+qgJnBDA+UQNWYuj8OkI7Bqt2TQKRrM7/yE7LBNEXBQFMpiz2GbaPBQcKaQD5/BD+Z
drfBtYbJQNiUoD+0/qjBIuKWQETiWcDrU6bB/OCRQC0HjsCIB57B3sSmQEO5a7+v96fBxIm1QHbo
wD9R9LLBc0mfQEeGCsC6BqLB1v+VQOx6e8Ax2ZPBxhLaQJiNlkBHpKDBncO4QPgjiEDU7qbBN/HU
QEbHlUDA+JTBhjSPQFNwakDHzpfBNs/mQIwgZkAJwbfBSxO8QLRwNEApAbnBk6y9QEtRhUAx+7LB
MAuSQCjdlsCzl4nB+gWoQBErg0CH/oTBfUWTQEiSb0BqTaLBcJivQK+Gg0CItpDBHstSQI5pR0An
4JPBk2XxQG5dpEC6Ro/BpI2gQN2KDsAiFpTBGCiAQHeau7+9rLXBDkHPQCgEub37oJvBBn6LQLZR
Mj/IFL/B5U3fQEnL/T8Rq6XBr0OUQEYwZsD3za7BQqyLQKtUr8BnvZ/BMEv3QK0nokDDOqTB8AEA
QYY5TUBidbLBiZD1QB59gkBWwL7BGMGtQAcZN0BTCcHBpgKwQJ9poEDWcLfB4NWWQNVcgcCVuoLB
iP5jQF1OpcBOIInBO2mqQFJCsMB4cYnB7DeJQGUcZ0DcSoPB4+3BQKLjYkDxAoHBb1GnQKo+pEA9
/YHB/+gsQMr1NkCe/JnBXUBgQC+EE0CrgY/BdsHQQLkMQ7+pBq/BtnyLQJBhij2K2ajBYP7WQChk
2z5w27TBzsmQQLf2mj9MGa/B+9qJQBxkDMC+fpnBCsuJQAQ4YcB7jpTBHI+rQA2da7/2r6jBwmS3
QMXGtz9NlrTB4G+lQFY8B8DiE6LBYCqlQH1RjMBxopnBAJaOQHIReUB2dqLBRuC2QKwNeUDM+qbB
FGGKQKZfY0CPF5fBzNbXQIAiYEB1O5bBAsDmQLiZZEAZFrjBOvm9QIpnMUAGArrBLOy7QAp6gUBu
B7PBIK2rQKNCusAOjZbBgNGtQBp4QUDoloXBhlrbQF5ubkBtmKDByMWvQJj+WUDiB5HBNIP9QIhl
VkB0eZDBVXBNQIp6V0AZRpPBrqm/QMDkZ8BJOqTBuUvoQHCRxr99ZK/Bt5pdQDMKdL2rI6TBZcjz
QEKgET/jgLnBLyRuQPbC9j8vuq/BruhsQFRMr78yupbB8/RsQEFGcsBkt43BKIBlQBhbhEAPMqfB
tRUAQSZESkBA97LBDzj1QH+ihECLq77B9euvQI64N0CfCcLBWPOsQHe9nUArtLbB8C3DQIcFycCw
9pvBh4m3QH/zu8DDRo7BLRSNQDp/y8BIJpfB5HPOQNqYPUC7U4LBG3ebQBXLcUDpIIHBCxOeQIXO
AkBq0YTBUkULQbAkXEAzaJXBayb/QG29gUCdz4rB

> <OMEGA_E>
oADPPcwzhT9YZIM/3CCDPypwgT8kUHc/yp92Pyb2cT+MQC0/bEsEPw==

> <OMEGA_NBR>
     97418

$$$$
50219810
  -OEChem-04172616093D

 50 53  0     1  0  0  0  0  0999 V2000
    5.8360   -4.7574  -20.3345 C   0  0  0  0  0  0  0  0  0  0  0  0
    5.8364   -3.5076  -20.9682 C   0  0  0  0  0  0  0  0  0  0  0  0
    6.4351   -0.7791  -21.8338 C   0  0  0  0  0  0  0  0  0  0  0  0
    4.2811   -0.1045  -20.9010 C   0  0  0  0  0  0  0  0  0  0  0  0
    6.5202    0.4280  -22.5357 C   0  0  0  0  0  0  0  0  0  0  0  0
    4.3581    1.0989  -21.6286 C   0  0  0  0  0  0  0  0  0  0  0  0
    5.2306   -4.9035  -19.0814 C   0  0  0  0  0  0  0  0  0  0  0  0
    4.5745   -2.5463  -19.1123 C   0  0  0  0  0  0  0  0  0  0  0  0
    5.3107   -1.0667  -21.0240 C   0  0  0  0  0  0  0  0  0  0  0  0
    5.2175   -2.3875  -20.3627 C   0  0  0  0  0  0  0  0  0  0  0  0
    5.4866    1.3736  -22.4347 C   0  0  0  0  0  0  0  0  0  0  0  0
    4.6067   -3.8076  -18.4633 C   0  0  0  0  0  0  0  0  0  0  0  0
    6.9256    3.6669  -20.1599 C   0  0  0  0  0  0  0  0  0  0  0  0
    5.7717    3.8928  -20.8799 C   0  0  0  0  0  0  0  0  0  0  0  0
    6.8193    3.4593  -18.7168 C   0  0  0  0  0  0  0  0  0  0  0  0
    4.4156    3.6732  -18.9514 C   0  0  0  0  0  0  0  0  0  0  0  0
    3.2665   -3.2190  -16.4806 C   0  0  0  0  0  0  0  0  0  0  0  0
    6.9649    3.4154  -23.2224 C   0  0  0  0  0  0  0  0  0  0  0  0
    5.6004    2.6835  -23.1860 C   0  0  2  0  0  0  0  0  0  0  0  0
    5.7937    3.9709  -22.3917 C   0  0  1  0  0  0  0  0  0  0  0  0
    1.9222   -2.9071  -17.1483 C   0  0  0  0  0  0  0  0  0  0  0  0
    5.3901    3.2648  -16.6717 C   0  0  0  0  0  0  0  0  0  0  0  0
    4.5216    3.9184  -20.2440 N   0  0  0  0  0  0  0  0  0  0  0  0
    5.5452    3.4192  -18.1374 N   0  0  0  0  0  0  0  0  0  0  0  0
    3.1356    3.6584  -18.4091 N   0  0  0  0  0  0  0  0  0  0  0  0
    4.2114   -3.9756  -17.1419 N   0  0  0  0  0  0  0  0  0  0  0  0
    7.8411    3.3075  -18.0573 O   0  0  0  0  0  0  0  0  0  0  0  0
    3.3419   -3.1699  -15.2605 O   0  0  0  0  0  0  0  0  0  0  0  0
    6.3022   -5.6064  -20.8123 H   0  0  0  0  0  0  0  0  0  0  0  0
    6.3147   -3.3975  -21.9302 H   0  0  0  0  0  0  0  0  0  0  0  0
    7.2363   -1.4992  -21.9107 H   0  0  0  0  0  0  0  0  0  0  0  0
    3.4389   -0.2921  -20.2515 H   0  0  0  0  0  0  0  0  0  0  0  0
    7.3807    0.6328  -23.1554 H   0  0  0  0  0  0  0  0  0  0  0  0
    3.5516    1.8149  -21.5704 H   0  0  0  0  0  0  0  0  0  0  0  0
    5.2432   -5.8636  -18.5872 H   0  0  0  0  0  0  0  0  0  0  0  0
    4.0626   -1.7126  -18.6548 H   0  0  0  0  0  0  0  0  0  0  0  0
    7.8871    3.6439  -20.6514 H   0  0  0  0  0  0  0  0  0  0  0  0
    7.8399    2.9778  -22.7195 H   0  0  0  0  0  0  0  0  0  0  0  0
    7.2890    3.9346  -24.1364 H   0  0  0  0  0  0  0  0  0  0  0  0
    4.9937    2.7703  -24.0995 H   0  0  0  0  0  0  0  0  0  0  0  0
    5.3061    4.8586  -22.8210 H   0  0  0  0  0  0  0  0  0  0  0  0
    1.1753   -2.6695  -16.3765 H   0  0  0  0  0  0  0  0  0  0  0  0
    2.0389   -2.0461  -17.8228 H   0  0  0  0  0  0  0  0  0  0  0  0
    1.5876   -3.7820  -17.7250 H   0  0  0  0  0  0  0  0  0  0  0  0
    4.3206    3.2557  -16.4146 H   0  0  0  0  0  0  0  0  0  0  0  0
    5.8520    2.3191  -16.3518 H   0  0  0  0  0  0  0  0  0  0  0  0
    5.8829    4.1049  -16.1605 H   0  0  0  0  0  0  0  0  0  0  0  0
    2.4664    3.8466  -19.1279 H   0  0  0  0  0  0  0  0  0  0  0  0
    2.9529    2.7596  -18.0108 H   0  0  0  0  0  0  0  0  0  0  0  0
    4.6509   -4.7099  -16.6246 H   0  0  0  0  0  0  0  0  0  0  0  0
  1  2  1  0  0  0  0
  1  7  2  0  0  0  0
  2 10  2  0  0  0  0
  3  5  2  0  0  0  0
  3  9  1  0  0  0  0
  4  6  1  0  0  0  0
  4  9  2  0  0  0  0
  5 11  1  0  0  0  0
  6 11  2  0  0  0  0
  7 12  1  0  0  0  0
  8 10  1  0  0  0  0
  8 12  2  0  0  0  0
  9 10  1  0  0  0  0
 11 19  1  0  0  0  0
 12 26  1  0  0  0  0
 13 14  2  0  0  0  0
 13 15  1  0  0  0  0
 14 20  1  0  0  0  0
 14 23  1  0  0  0  0
 15 24  1  0  0  0  0
 15 27  2  0  0  0  0
 16 23  2  0  0  0  0
 16 24  1  0  0  0  0
 16 25  1  0  0  0  0
 17 21  1  0  0  0  0
 17 26  1  0  0  0  0
 17 28  2  0  0  0  0
 18 19  1  0  0  0  0
 18 20  1  0  0  0  0
 19 20  1  0  0  0  0
 22 24  1  0  0  0  0
  1 29  1  0  0  0  0
  2 30  1  0  0  0  0
  3 31  1  0  0  0  0
  4 32  1  0  0  0  0
  5 33  1  0  0  0  0
  6 34  1  0  0  0  0
  7 35  1  0  0  0  0
  8 36  1  0  0  0  0
 13 37  1  0  0  0  0
 18 38  1  0  0  0  0
 18 39  1  0  0  0  0
 19 40  1  0  0  0  0
 20 41  1  0  0  0  0
 21 42  1  0  0  0  0
 21 43  1  0  0  0  0
 21 44  1  0  0  0  0
 22 45  1  0  0  0  0
 22 46  1  0  0  0  0
 22 47  1  0  0  0  0
 25 48  1  0  0  0  0
 25 49  1  0  0  0  0
 26 50  1  0  0  0  0
M  END
> <OMEGA_C>
t8C6QJg8mMADraLBsMO6QCF8YMDTvqfBt+zNQKxwR7+dq67Bs/6IQBD61b1YNafBiqXQQMQk2z41
SbTBS3WLQOeojD9JB63B+2CnQBrpnMC4ppjBjGKSQP/1IsAV5pjBi/GpQHCKiL8+MajBYfWmQGrM
GMDg5qLB+pGvQN/Srz9KerPB22mTQM2vc8DutJPB6Z7dQNeuakCDR6HBGbK4QHEkeUASCqfB5zfa
QGVkXUAVvJXBSEyNQGcWa0CBnJfBvw1RQFsETsBW2IPB2uDeQPeVWkBnx7nBHjazQL+9K0D9fLnB
3WW5QNwjfkA6IrPBTwn2P5sOOsCkL4nBkHusQJTyUECnX4XBELGQQEjGekCj86HBK3KxQPvTWkBS
GZHBN65IQJsjakDnRZPB/sOGQFVwfsCoIonBWur6QNWtU0BBdZDBEeJVQN3fSsAkK3TBZqvJQGdn
s8Cpf6bB1hHKQORvWcATca/BoY/nQGvnv78RSa/B9xZcQN2Ilb4KA6LB6C7sQCoAIj9APrnBBk5j
QIVP6D8ykKzBOcinQASju8CHspTBcACCQGY3278RPZXB/2L8QEs1aUD5NaXBzuD6QLmTPkCQwbXB
MT/pQBnRe0BKF8HBiMyfQMJMMUDMy8DBrsupQNZ5m0BrkbbB1W6WPxvZKsACA4PBqX0CQHPzAsAU
lY7BjjfLP+cMcsDXzI3BUUKKQCZeUEAPUYPBgUO7QGxsFECQ0ILBfkC8QIFbg0ChSIHB3tgdQOcu
dkD8BZnBmPw8QAmdMEAHFpDB89OUQL+3lsAe/4TBddC5QNxGk8AFY6DBTVe8QHQJW8DmdqbByvbO
QO6ZPL8jbq/BLjqJQCCsHL2ph6jBjUnSQP7B7z6UFrXBPEOMQPwrkz9RXa7Bnu2iQGdyk8DmvZbB
P4SPQG5HEcAIbZnBaoGqQACafr+eEanB8DSnQGfND8C5/aLBfSWxQEeNtT+xcrTB/fSNQHpSXMBU
UpPBq7zdQNyUaUCNPqHBmMG4QNgld0C1BKfBqHnaQDgmXEDFspXB5HWNQKwuZ0Dqj5fBJ+4aQHIm
UMCOtojBIlHgQByoX0DuxbnBSii1QIaiL0A7DLrBYui5QDGUf0BvIrPBtLjhP3ZUecD/Ln7BWgCt
QCTbTkAvTYXBBa+QQBTqdkC56qHBxsaxQJaEWEDJCpHB0Q9JQOKWZEBDNZPBmvBxQPagXcCypYnB
fUj7QLv4U0B8bJDBfG3dP/49O8BqZ5DBF3TJQBsQsMCDI6PBoXvOQLFeWsBd0a3BCUnoQLMKvL9d
7q/Bj+9aQLDHZ76wm6PBpDLuQIrsKj9p7bnB5ZNkQAhU7j8uNK7B+G+hQCsvsMDy9JHB9TV9QKKK
sb92zZbBGIP8QFjkaEC7LKXBXSL8QPXdQkDiwbXBlCDrQGoGgkD6zcDB5F2iQN1kN0DwbMHBdzaq
QAeWnECwVLbBuGEuP4HvfsAygIDBaDkMQDGxnMD0oHvB32z4P4eYUcBI72/BeM6KQDpRTUDyOIPB
YkK8QOHcEkDmuILBLmi8QPybgkCBP4HBRe0dQPmwb0Dq85jBDZc+QPHdKkCfApDBv/GJQHjQaMDf
AoPB4xuKQOdCosBHdKPB6O+MQNbxdcBW5ajBqyGlQLljrL8JKrXBQp2wQKuvuL4Nn6PBYWCoQLU6
i7043LnBoCu1QJ3PYj9QT6jB/4WgQCR4qMBPyJnBxia+QIXyQcBEN5vBwkqpQCVzv7+w9qnB8MGm
QKPyM8DytqTBEEOwQOgQiT+PdrPBK5a6QKm4h8BXg5XBkAveQFAdd0Bt/KDB2Jy4QDXFeUA05qbB
yxnbQCrpbUBNU5XBYLGNQH6ybkAuTZfBVybqQK/yaMCtsIXBOwzgQCAaSkD5vLjBsji0QIndG0DK
/rjBsqm5QCz4cUAe/7LBGFX8QMAXhsDndXbBIYitQPldZEAE24TBdIWQQN3IdkDMzqHBmFyyQKEc
aEDKqJDBh6RJQNi4bEB54JLB7SrQQIjPj8Ce04vBDg/8QOGeaECTCJDBVdTvQB/wHMD0rofB7Wtt
QO7Du8DzsKbBYtN2QNQ0bMAYPrDB8HafQHOeDcDqILrBg7WyQPt/676nCJvBns6kQAcOKj3FaMLB
A6a8QNhg3j9HVaPBhLqdQGSTxsAImZXBayjTQCpmEMC5Q5jBUdD8QMS5e0DN4KTB2Zz6QAUEL0DE
D7TBeLbsQLH7Z0DQDMDB1CmjQHziIEDVqsDB2ZSrQPVulED0O7fB8VcGQfeVWMARt23B7B7iQIXa
ksDamGzBS6MJQcPTn8B1AnrBHWGLQEICYEChy4LBKmu+QJnMK0ASwYHBlDq7QGJCj0BgRIHBHBAe
QH8LckCdspjBciJBQFJZNUBRAo/BFHfMQDlVrcDO4YjBryl5QELxlsC37J/BFkqAQO64XsAuNKXB
MvGRQKAnjb8B9rLBKI7FQFAP076ubqXBtXKVQK5TID5G6bfBlSbKQJTOUT/knarBEY6eQEZopsAm
oZnBg9zIQNbYTsA9Mp7BZM2pQPOjsr8SnanB91amQIYDLsAKUqTBA2qxQDsXkT9KwLPBUtrEQEHh
jsDj05jBcc/dQKP+dEBGBaHBK2G4QEvldEDv56bBChzbQOL0bkAfWpXBirmNQHWdb0C+Q5fBFmIF
QRV+scAFtJXB+8XfQISaUEC6O7nBu6e0QJb1HkCRbrnB9kO5QL7mckBbDbPB6U0VQZpzwcBcS43B
h8etQPshaUDh0YTBTXCQQG/icUBtz6HBjHeyQHeHb0DrmZDBudFJQMSKbUDq0JLBHI/lQPtrncCE
KJLB/SX8QMXEaUAOF5DBptoHQQKVu8AeHZ/BrzA/QGSAqcCCtKDBCPZLQJP4RsCG9KnBTth5QI7o
7L+BT7bBc1TXQKCMHL87Mp7BVpuCQCuKwD4y8L7BuOTgQD8kxT8dmqfBsECbQK1fxMDAZ5XB6GDm
QKQqK8AwpZ3B8n78QNxxeUDS9KTBYWD7QOwlNkBH47TBEgDrQMIAckAedMDBbYmiQN9FJECE8sDB
8qSpQMwSlUAu3LbBcJ8hQQQw1cAaMJHBPu4cQUflpcBiXYnBi8wMQUy81MD0SIfBraCLQHiwakB6
soLBMfW7QASyLEDIBoLBl0m+QEeij0Ai/4DBlhweQIUkbkDSqJjBTRRDQIFDOEDhdo7BHw7iQAIk
mcBaR4rBacl6QCOnl8DqSKDBZlKAQAqAXsAaMqXB196RQFbMi79M17LBJVnFQCU6yL5eUaXB9pmV
QBDOJD4O47fBLETKQITDVD8jnarBtayfQH1lp8ALI5rBJtDHQHHvS8Ajop3B6GapQKDwr79GaanB
krmlQB03LMCZ/6PBHZaxQOjikT+Xw7PBubTEQJVfjsD+spjBidndQFVZdUAiB6HBL2y4QNcvdUCi
6qbBOibbQGYMb0BOXJXBcsSNQGeAb0BPRpfBGLbwQMevlMBfYYjB+97fQIweUUAUQLnBws60QBFJ
H0B5dbnB8FG5QHM8c0B9EbPBqmYLQaMFq8DUE4PBetutQO3HaEBI1ITBm3uQQMPzcUAH0qHBMoKy
QP1sb0AnnJDBfOZJQM07bUAq1JLBHlHnQMrYnsBQ+5LBli/8QAXLaUA1GZDBB3TYQMu3fcBz6YLB
7IZBQCOiqsBWPKHBGM9LQDOvRsB556nBK+B5QLv7678nLbbBQwjXQBFZFb9KDp7BbO2CQO5nvz5q
9L7BtT3hQHVNxj8KrKfBqZSdQP20xsBZhJbBSlbkQFDbJcCBkJzBdYj8QKkJekDb9aTBu377QHXA
NkCe57TB8RLrQOSbckBkd8DB7q+iQM2KJECB+cDBPaWpQLk3lUB837bBQH8LQabBo8Am73TB1wgK
QfjOzcBmPITBklwaQQuPn8B5uIbB37WLQN00akBDs4LBHxW8QB5TLECmDoLBQle+QOdwj0Dt/YDB
lzMeQGLdbUBSrJjBnztDQLnfN0CsfY7BSrn6QMpas8Amv5bBhvZ6QKPxlsD5r5/Bn2N/QCdyXsD/
9KTB+yyRQKEGjL+g+LLBNyPEQEPfx76MUqXB7TGVQC4qJD4W/bfBL3vJQODvUz8YmqrB3G2gQPqb
pcALkpnBgnjIQMGlS8CjWJ7Bp32oQAoksL91iqnBdEGlQAJ0LMAQO6TBajWxQGNukT/XzrPBZzzG
QNwJjcDDxpjBaffdQAT1dEBA/qDBMpS4QKHUdEBV5qbBsC3bQP/ZbkADU5XBt8+NQLxnb0AERpfB
ovUHQUoBi8CuHZDBrxfgQJgsUEDSNLnButW0QJEFH0CUebnBJZO5QMfPckBHDrPBJOQWQUv/o8B5
uYjBMMytQKkMaUBAz4TBOJqQQD2vcUC30aHBrIGyQE5vb0B2l5DBXutJQA89bUC/2JLBRwboQPxk
ncA6ipLBhCv8QIehaUAsC5DBxUwNQaJ+TcCQwJLByd1BQFdAqsCEVKDBL3FJQEK2R8D0jKnBMnJ4
QETk67+iVbbB7zvVQOysFL9F+J3B8LiCQGkLwT7/FL/BKXLgQNWJxT/nnKfBoUaeQF/qw8Doc5XB
ZrLlQGbPJsBLGZ7Bma78QCp6eUC56aTBLYn7QDBLNUCg1rTBWo3rQMuacUDGZsDBxtyiQJCwJEAX
AsHBizCqQAMnlUAT3rbBFfckQbNLkMCiz4bB4V8OQTIorMBrTIHBHBUcQY6LwcDLvYzBW6SLQOaa
akDVsILB7/i7QMWdLEB/A4LBL0y+QFGYj0BB/IDBiE8eQLnKbUCfs5jBZSpDQHXzN0A+f47B1OHi
QHFTusBbX4/B2dF4QCTcjsAt95vBPx1/QPK5TMA+0qDBHRWMQPOWub4DZqfBasbMQGlJjb83nbDB
WJCOQJJSXz9AuKzBeJnPQEE6Ej5qxrXBFXihQCJmp8CSLJrBCDzNQJW7XMC00KHBpSWrQJDArr9U
TanB6f2nQCGnK8AH36PBx9uwQFEfkj/jubPBQ+3JQG8Ol8BYAZ3Bx5bdQOXra0CFEqHBtCu4QO/X
cEBt6KbBN9TaQL2NaUDuXZXBAX2NQJHpbkDCPpfBNJoFQewzrMCpO5PBAt/eQKwCT0A5ebnBC7yz
QJh5HkBka7nBbY+4QFp+cUAHDLPBHDwYQZbmy8DgnZLBroCtQCSHaUBKzoTBmkmQQL1Kc0DuxKHB
/SWyQDGLaEDGnZDBEk9JQGzWcEAazZLB7UjuQK9csMBcp5vBg937QL3RZ0DxEZDBykQCQR3Lk8CE
uIvBvAE7QO0fm8A4nJnBlPdFQLaFJ8DFO6LBqbBkQDtDDL+O06HBJmDkQA3l7r++O7LBxDZsQFgp
zz9vcKvBSGHpQDuMqz7gUbvBvOWeQFfNxsDPn5bBXE3sQJGwQ8BI8aPBfUL8QIbbaUDEC6XBEMP6
QMkmNEDJSLXBbJPpQMlucEDWvcDBuwOhQHjQI0CH18DBO8uoQGiklECOsLbBRZ0gQeL3x8DY8IrB
0AwSQQjD7MABPZPBUG4jQWTCxcANO5nBJ1aLQB5/aEBPsYLBomO9QOvwMEAdZYHBMlm8QC7wkUD6
kYHBW8kdQFl8dUBEo5jBzkA/QDwWO0AEpY7Be//zQNYRx8BFG6HBZdh6QPQHj8CQvpvBFIJ+QPil
TcClyaDBQleLQBqTt74Cb6fBccDLQOrwjb+fvbDBWTOOQLLWYD/KtqzBAQvPQPgxDj4M0bXBaUqj
QBhcpsBV45nBounMQPacWcAH06HBFxuqQDewrr/3ZqnBVC2nQC42K8D57aPBr5qwQBpDkj8etrPB
yHLLQHqPlcBg8ZzB/cTdQACUa0ADBaHBHGu4QNSUcEAg4abB7uDaQNJkaUDxUJXBtY6NQC3GbkDE
P5fBNJgNQenipcBALJ3BuDPfQIw6TkBuabnBbNqzQLlvHkBfZLnBO/K4QJlIcUCaA7PBRQ0eQUIO
yMDsOJrBN1atQJrCaUC7yYTB0XqQQDEVc0A+xaHBWySyQCOEaEDtl5DBQlhJQD2vcEC21ZLB+wzw
QHNzrsAj15rBv9v7QN7GZ0BL/4/BfMYTQY2ShsASNqLBF+M9QJEJnMCrSpnBu1dEQKY2KsCOQqLB
QSxjQKFyCr8a3KHBB//iQAiX8L8Lb7LBqOZrQBiv0D9UaavB2+zoQJ1bqD40VrvBEZqhQKpdxcBi
GJbBPX3rQGVmPsDL+qPBxHr8QNtRaUD2+KTBlO36QOXiMkADNLXBuCLqQO6Bb0A5q8DBPEChQAga
JEBG1MDBeHapQGeulEDaqbbBoN4tQSqcvsAqRp3BLsYeQR5ay8Dud5HBAVwZQZTR5sBgzJ3BXSSL
QFrMaEAStILBwyq9QJ48MUA0WIHBICa8QJQVkkBHj4HBYvQdQIVEdUADsJjBIzk/QAf1OkAPrY7B
aYnqQL9LysChJZfBQ9C3QPzYjcCDHp7BISO+QBlSTcDJbaPB+FHRQJgB2b62YqrB2BCEQMZidr0A
tKrBJIrXQKl1Rj8ABbDBe1iKQBtNkT8ccbDBMqOUQLsck8DoN5fBrOJ8QBAEE8CjvJrBe5anQDx6
Wr/6qKfBgVmhQGBmCMCh16HBYyC0QNhCyD8HCLPBN1BwQN7CYcDFcJXBGrDZQL41l0Bt9qDB2nS4
QArLh0A1HqfBiqnUQDeSl0A4SJXBTSaPQPl5bEC/3ZfBCtYiQAD4U8B6UoTBwOXkQLWCaUCVWrjB
/1G6QHEPN0AiMbnByPW7QLtFhkDQMLPBNKiiP+1JasAFQXzBS/ynQNgzhkCQKoXB1jWTQBtMb0Az
XaLBCHWvQOeFhUCW4pDBDNNSQO3wSUBB05PBDrEoQFz0bcAo9o7B4+rwQGoyp0DXso/BYmJgQGOw
NcDFEH/BX/rNQOTop8BbV5/BoxnZQE6hRcBcv6jBPZvsQLPrgr+AHajBIiBIQPocv75InajBXYr3
QJgNjD+kDbLBuTNeQJvv3D+L37LBsnSPQApuscBAR5PBBB9RQMJLvb9LXpnBk7z2QBzAokAJpqTB
rgr/QMM8UUB/TbPBqWPyQK1xhEAJeb/BW+KqQC10OUBRGMHBuT2tQCxfoUD1brfBe4C0PzvQWsDg
OmvBoc7aPssRRcDsVIHBBJSHP02El8DA933BwEeJQCErbUC8W4PBOgXCQAr7aUDKGIHB6h+nQOSK
p0ANWoLB6BUtQEH0N0Dv4ZnBPoFgQOgYF0D8Ro/BTwPsP26yhcB1LJLBEc+4QENPjcC7Bp7B7FK+
QMy+TMBcbaPBL/zQQJ6z2L7EQqrB0bWDQDCvgL2epqrBRkTXQKn6RT+v56/BtRCKQHXokD+7Y7DB
/B2WQBDxksBqCJfBNDZ8QLN+FMDM0ZrBljanQP0WW78emqfB/g6hQMvZCMDD3qHBzuGzQCCoxz8q
+LLBw5lwQPmuYsCmVpXBw8PZQNoul0AdAqHBfH24QOa+h0A1JafBs7zUQDbHl0AxVJXBNSOPQCQn
bUDG35fBNLgNQAnjlsAbQIjBuNTkQDmzaEBVX7jB5Cu6QJl4NkDGLLnBjfa7QIINhkBQN7PBXct4
PxBykMCHToHBZwGoQIXahkCBMYXBODWTQHyKb0COX6LBW3qvQE3shUA/6ZDBBbZSQBv3SkA90JPB
/WApQEGVaMAnfI7BMgfxQMNxp0CLw4/Bw1M1QGiSuMDWZ4fBJVXPQEgPp8BSQJ/BVRDZQOySRMAA
zqjBykHsQAJvgr8y7afB0mJHQNUpwL7VkajBoUr3QF3miz996LHBCrZdQJit3D801LLBchSSQFMM
scB/6ZLBXi5PQOnlwb93nZnBztj2QBaSokAataTBQ/b+QGluUEARUbPBU1byQM3kg0Bvgr/Bt7Sq
QF+zOEA7E8HB4U2tQNYhoUDQerfBv2NQP/zqrMDuk3jBRm2OP7F7aMCtU3jBqNXBPQCIi8DqeIbB
PkGJQBy4bkDuXYPBV/3BQOBKa0A5GoHBfD2nQC1AqEB0a4LBKu8sQI7VOEBA3JnBhUJgQFxEGEDs
O4/BqFoFQITUM8DF/o3B

> <OMEGA_E>
iHm7PjgWqD6oLDE/fAsrP6hVKj++oik/KC8VP17DFD+ojTk/KEg7Pw==

> <OMEGA_NBR>
    106206

$$$$
50219814
  -OEChem-04172616093D

 40 43  0     1  0  0  0  0  0999 V2000
    6.4795   -0.8395  -21.8739 C   0  0  0  0  0  0  0  0  0  0  0  0
    4.3523   -0.0871  -20.9517 C   0  0  0  0  0  0  0  0  0  0  0  0
    6.6170    0.3930  -22.5562 C   0  0  0  0  0  0  0  0  0  0  0  0
    4.4701    1.1148  -21.6669 C   0  0  0  0  0  0  0  0  0  0  0  0
    4.2437   -2.5316  -19.1658 C   0  0  0  0  0  0  0  0  0  0  0  0
    4.2747   -3.7933  -18.6259 C   0  0  0  0  0  0  0  0  0  0  0  0
    5.8928   -3.5197  -20.5472 C   0  0  0  0  0  0  0  0  0  0  0  0
    5.3511   -1.0821  -21.0473 C   0  0  0  0  0  0  0  0  0  0  0  0
    5.1934   -2.3580  -20.2943 C   0  0  0  0  0  0  0  0  0  0  0  0
    5.6167    1.3846  -22.4391 C   0  0  0  0  0  0  0  0  0  0  0  0
    6.9338    3.8459  -20.1626 C   0  0  0  0  0  0  0  0  0  0  0  0
    5.7646    3.9736  -20.8812 C   0  0  0  0  0  0  0  0  0  0  0  0
    6.8516    3.5872  -18.7281 C   0  0  0  0  0  0  0  0  0  0  0  0
    4.4372    3.6207  -18.9503 C   0  0  0  0  0  0  0  0  0  0  0  0
    7.0202    3.5327  -23.1931 C   0  0  0  0  0  0  0  0  0  0  0  0
    5.7112    2.7109  -23.1891 C   0  0  2  0  0  0  0  0  0  0  0  0
    5.7931    4.0220  -22.3968 C   0  0  1  0  0  0  0  0  0  0  0  0
    5.4548    3.1323  -16.7034 C   0  0  0  0  0  0  0  0  0  0  0  0
    4.5173    3.8840  -20.2421 N   0  0  0  0  0  0  0  0  0  0  0  0
    5.5875    3.4889  -18.1355 N   0  0  0  0  0  0  0  0  0  0  0  0
    3.1667    3.4574  -18.4092 N   0  0  0  0  0  0  0  0  0  0  0  0
    7.8862    3.4321  -18.0897 O   0  0  0  0  0  0  0  0  0  0  0  0
    5.4268   -4.8023  -19.4535 S   0  0  0  0  0  0  0  0  0  0  0  0
    7.2380   -1.6005  -21.9830 H   0  0  0  0  0  0  0  0  0  0  0  0
    3.4903   -0.2531  -20.3225 H   0  0  0  0  0  0  0  0  0  0  0  0
    7.4883    0.5761  -23.1675 H   0  0  0  0  0  0  0  0  0  0  0  0
    3.6721    1.8413  -21.6246 H   0  0  0  0  0  0  0  0  0  0  0  0
    3.5954   -1.7460  -18.8068 H   0  0  0  0  0  0  0  0  0  0  0  0
    3.6642   -4.1175  -17.7961 H   0  0  0  0  0  0  0  0  0  0  0  0
    6.6357   -3.6242  -21.3241 H   0  0  0  0  0  0  0  0  0  0  0  0
    7.8927    3.9354  -20.6514 H   0  0  0  0  0  0  0  0  0  0  0  0
    7.9079    3.1580  -22.6626 H   0  0  0  0  0  0  0  0  0  0  0  0
    7.3343    4.0645  -24.1034 H   0  0  0  0  0  0  0  0  0  0  0  0
    5.1283    2.7648  -24.1204 H   0  0  0  0  0  0  0  0  0  0  0  0
    5.2588    4.8707  -22.8488 H   0  0  0  0  0  0  0  0  0  0  0  0
    4.3900    3.1063  -16.4286 H   0  0  0  0  0  0  0  0  0  0  0  0
    5.9027    2.1429  -16.5291 H   0  0  0  0  0  0  0  0  0  0  0  0
    5.9736    3.8830  -16.0892 H   0  0  0  0  0  0  0  0  0  0  0  0
    2.4806    3.5725  -19.1276 H   0  0  0  0  0  0  0  0  0  0  0  0
    3.0871    2.5413  -18.0161 H   0  0  0  0  0  0  0  0  0  0  0  0
  1  3  2  0  0  0  0
  1  8  1  0  0  0  0
  2  4  1  0  0  0  0
  2  8  2  0  0  0  0
  3 10  1  0  0  0  0
  4 10  2  0  0  0  0
  5  6  2  0  0  0  0
  5  9  1  0  0  0  0
  6 23  1  0  0  0  0
  7  9  2  0  0  0  0
  7 23  1  0  0  0  0
  8  9  1  0  0  0  0
 10 16  1  0  0  0  0
 11 12  2  0  0  0  0
 11 13  1  0  0  0  0
 12 17  1  0  0  0  0
 12 19  1  0  0  0  0
 13 20  1  0  0  0  0
 13 22  2  0  0  0  0
 14 19  2  0  0  0  0
 14 20  1  0  0  0  0
 14 21  1  0  0  0  0
 15 16  1  0  0  0  0
 15 17  1  0  0  0  0
 16 17  1  0  0  0  0
 18 20  1  0  0  0  0
  1 24  1  0  0  0  0
  2 25  1  0  0  0  0
  3 26  1  0  0  0  0
  4 27  1  0  0  0  0
  5 28  1  0  0  0  0
  6 29  1  0  0  0  0
  7 30  1  0  0  0  0
 11 31  1  0  0  0  0
 15 32  1  0  0  0  0
 15 33  1  0  0  0  0
 16 34  1  0  0  0  0
 17 35  1  0  0  0  0
 18 36  1  0  0  0  0
 18 37  1  0  0  0  0
 18 38  1  0  0  0  0
 21 39  1  0  0  0  0
 21 40  1  0  0  0  0
M  END
> <OMEGA_C>
qFfPQH7oVr/Y/a7B8EWLQJB5sr0NnafBgb7TQFY2yT4Cc7TBvwqPQKSxjj/UVa3BbcyHQIkFIsCE
U5nBesqIQPbEcsDCAZXBt5G8QFZCYcDAYKTBWzyrQDiBir/dYKjBejCmQG3pFsC2WqLBWryzQGA5
sT9Tg7PBAOLdQG4idkADTaHBoHe4QLZOfkDMDKfBPEDbQHiUZUAe05XBr/2NQBS5Z0AqmpfBFqXg
QBYYYkCMi7nBLcK2QM1+LUBMg7nB02C5QDG0gECqLLPB142uQEx4SECioIXBuo2QQBCTeEDk76HB
mcyyQMJKX0CSFZHBZqtKQCpGXUAIRpPB/1v8QEqoW0Cxt5DBOqitQHasmcDWoJvBnJ3nQLnczL83
3a/Bc2FfQIqTgb53lKLB+p/vQMp7Ez8OV7nBbANrQI2w6z9E/6zBOhpmQAd8379idJbBUIJqQMLC
g8BeXo7BDljUQEvyZ8C7l6rB9ZD8QEjee0ApNqXBaw39QFMcSkD2TLXBj7LqQBEQgkDA08DBKRuk
QBTyMECe9sDBJEioQK3cm0BRyrbB+XqMQG7NRkDXbYPBuOK8QBglCUCKO4TB4ie/QNGDeECttoDB
wsIeQFakZEA+BZnBdZNFQF6lIkAOIZDBHvXNQO6YVL/wrq7BZTyKQGCoBb3AZafB8ubSQNSLxj5a
TrTBU3SOQDRdkz/AT63BhbC7QNTfY8AGAaTBm5ivQBGsksA2T53BYpqHQFTYHMBFiJnBMM2pQAI+
hb9lBajBbSGkQIZ0E8AE5KHB7EyzQJBYsj+NfrPBn0feQB3vdUDMUKHBgOu4QNVwfkBcFKfB14Hb
QA1gZEDx3JXB2E+OQNE3ZUD7tZfBgiPhQLkhYUDZjLnBN/m2QM+GLUCAjbnBePG5QDy3gEDON7PB
qcuuQC1WRUCku4XBoPmQQNd5eUAt9KHBhhazQBeZV0BgUZHBjjFLQDkuXEDWXZPB2Yz8QAu8XUD4
pZDB1GWIQGoXgsC4TpTBZdflQGhtzb9Cd6/BuERdQNImM74DU6LBjtnuQLmaDD/GOLnBCEhqQEZu
8T8rH63Br8jTQFRpasDVJKrBrrq8QIiessARmJ3BMn5mQHBi1L/flpbBYwH9QIMifEDCMaXB8Vb9
QK2GSEB9RrXBCoDrQABvgUCi08DBFHCkQBM9MUD5BMHBKjapQEIQnEDi2bbBdsWMQENUPUA4toPB
sELAQLc8CkB8yIPBCi68QDvjekBkGoHBQE4fQH0cZ0DUBpnBHyREQPy6IEDNiZDBnCbRQM2vVr+y
9a7BRJ6NQADA9Dhr5KfB4kjXQGjvwz7XgrTBGNeSQN+8lj/Xy63BgMe7QDiqY8CjB6TBtIuuQLCL
kcDsJ53BYlyJQI4kF8ApqZnBBKOsQHP+gr//W6jBVM+lQFxCEcCaFqLBUm64QBu8tD/itLPBAH+N
QPhSf0DCUaLBLIS1QPJxfUCi+KbBAq6JQNCZaECJ9pbBYBfXQCAmYEAsbpbBihvlQIJvZ0DrFLjB
bGe9QIq3L0BqiLnBvuq5QOzwgUCiDLPBsMitQNrUQ0C/noXBIDraQKK+cUBztqDBYjGvQIwhV0Do
OJHBkv38QGBoVkCMxJDBZyRMQAKfYEC09pLBtFaIQBZtfcDaKJTBOl3oQBD30L8Twa/B0zRjQExn
Ab5m76LBDYfzQBniBj/tWrnB4lFzQHps9T9t0a3BoZ3TQGABbcAOLarBNli6QOcFssBYUJ3BWRhs
QE4Exb/X0pbBYkNjQJ+LiEA27KbBbGH/QB6IUUCZ57LB9lvyQGJahUB48L7B2uGuQLk2MkADi8HB
/mupQI28nEBy/rbBiW7OQJwXOED/rILBrdSfQDd+ekAXT4HBDgiaQC6VCkD8QoTBLesKQarQXkDF
spXBPTz+QFjlgEAE5YrBuFCOQAicp71a16fBOLDRQGREYr/xQK/BnxKTQBUEjz/aiK3BnEHXQAA4
tD4HnrTBRLOIQIQPIcADkJnBSjCIQFgKcsD0TpXBTre8QH4+Y8BmkqTBvH+tQIWrjL/3majBW1qn
QACvF8BdkqLBqki4QCO/rz9hkLPB8jWNQHRofkDgQ6LBjii1QGhqfECA8KbBSKmJQBBTakAz1pbB
bh3XQFJTYkA8XpbBbGLkQCp/ZUDDD7jB2LS8QKBpLUDiZrnBoES5QGT2gEA1ArPBqBmuQPjPR0CR
d4XBsgjaQPBtckBIsaDBeE2vQDDCWUAiGpHBYCD9QPSSWUBtuZDB/khMQGxgZEAIvJLBSDSsQPJX
msAC55vBXxtlQJkMar6/1KLB0SHpQFN+1b8aO7DBvrdzQEZ77T90S63BjDvzQDWZAz+ChbnBz7Zp
QBfq2r+kqJbBAidoQPzogsBJu47BKKjUQLYla8BkuarBxF5iQA4xh0Dk6KbB4Mz+QGUcUEBq5bLB
dG/xQIYzhEDj+L7BTAuuQGJsL0DuZcHB952oQKuRm0Dz/bbBj8/OQMaePEBwiILBcCCgQLvifkAm
PoHBY3WaQF2bDkA//IPBkvAKQZJdYUAxs5XBbmz+QD3ogkDZ84rBJ+nQQCeTjb5nYqbBtvmLQL5B
KL+EBq/BurzVQFgFaj92OazB9CCQQOJ1Dz+ujrTB0Y67QDnbKcAvoZfBQgqzQMife8DmMpTBeRCS
QF5PXMA7L6bBgjysQFz3ib+I2afBXyyoQJ80F8BTKaLBvvm0QDrJrT+ZNrPBRFqRQMKnlEAGWaLB
Uf+zQDfzgUDBTqfBrbmPQKbHlEBom5bBUT7UQCNUYEB2upbB4fbfQEtpZEDB5LjB99O3QLcJK0DJ
arnB0Ea2QM7KgEBXc7PBG7ixQOIDgUAmGIXBtOzVQCmeYkA9QaHBKgOxQCjIgEBM9JDB8NL2QB95
O0CUbpHBPY5iQK6bpUBWEJLBv0+UQE+7mcBgh53B6FDpQPgkFL/Lw6DBAA5gQB3+or/JQ7DB5aby
QGmEvz+SYavBDudtQKkYYz8g3rnBB1LOQPKU+L9qIpPBMPa9QCP6isD8sIzBmmyBQP9rXMDOwa3B
8eJvQMHqokBl/qbBxov7QHXoUEDs/7PB/lvrQBWlgkB9IsDBgYGnQIvXKkC+NsHBcdKkQMRtmkDK
nLfBtTbOQPaRX0DOPYLBQrOyQD1AokDJNILBDMKUQKVgYkDLCILBvzgGQRy2J0CxyZbBcBcCQSO9
ZkADk4zBwjaJQBosN77Op6jBqCrRQKCSWb9AEa7BwImNQMkQgT8rnq7B3OnVQA3gtD49wrPBIQR6
QP0rP8AAQp/BPs6BQJywhcCM6ZnBmpbIQFKQScC69p7BkAirQAsij7/MWajBKHamQEV3GMAMT6LB
LoC0QD6Apj9G4bPB+Li0QF5JpkBSPqHBivm5QE8EgEDwiqbBHM+uQJ1kpUCyk5XBMmSxQK0OMEAQ
jZbB1mnmQEqZV0DStrfBmCe7QI8YKkAZLrnB1OS9QCDQfkCPtbLB0GWlQLgFdUBjvITBFq+5QPYC
M0Dk1qDBGAOrQEsIe0AJepDBnC+vQEaVvj+O3pHBMnWsQDk1x0B3o5DBWKm3QEa1ksC8T5jBqAJY
QAfGvr4bTqTBZcvqQBCIyb+cDq7BjQxmQDZK2T+bLK/BrTnzQDlwDT+tDLjBP7E8QK6jIsDJCaHB
WSRPQC0YmcD1EJfBjLjpQAQWOcDcTaDBDvG0QD09xECfjaXBqhH/QD8YO0C+irLB7c71QO0fd0Cy
k77BKe6sQES1MEDgL8HBJjixQEbFm0C02LbBBBqjQDBYMUCmYYLB7fzAQN5QiUAht4DB0u6HQCBT
i0BvY4LBLpS0QCkRSj+gbJfBj0jFQKBntT+PHIzBxE6ZQKrWlb/WOLPB0czCQFz5xb5Q8aPBOEqf
QLBKlj1/TrjBpYfKQJMMUj9TQanBbv+eQNaAfsD1uqjBVAaaQJldoMBInKHBTLWhQE1JMsB/XJjB
QGGqQFZjsr/d56jBd6+jQJEIK8BFVaPB+J23QBw8iz8SUbPBXRuOQA+QckBbRaLB/1+2QDaTckC3
wabBaHKKQC4rcEDTj5bBRyfYQC21cEBIyJXB2+jlQJ8CUEBbcrfBOvS8QFCBG0A5ELnB9Gi7QO2U
cUDt07LB42muQO3qa0DRnYTB9SDbQLGbdUCjSqDBMyqwQB/Na0CmeZDBbDz+QIpbcEB/AZDB5rZN
QAF0cEDpa5LBbDOaQFMCjsAsbZTBK6qHQIgb+r9WNrfBgZfPQALfC7/CBJzBMTGRQHspgT5vEMDB
1TLfQH5vxz+joaXBom2fQAhOg8BcT7HBN3aWQNiEwcDL4aPBSHikQCQd+r+h5JLBw8FjQD9GdEBA
QKfBIwb/QHSBOECWBrLBEcb0QKescECoTL7BR2CvQM0tHkDqLMHBYt2sQKrAk0BxKbfBiBXPQC8m
aED2X4HBWxGfQNGdk0A61YHBPMebQGt1NEB+2IHBxn4LQXgWdEDSDZXB3cT+QChCkUD2CYvB1kbQ
QGnAVr9dwK7BhjSNQG2dhb1b1abBS/nTQJ5hwT6VW7TBSoGQQFxnkT8smqzBM6O7QNWOZ8D5VKXB
LMmyQINylMAWUZ7BXj+TQAlUHMCvWJjByv6sQGsMiL+146fBRBCpQNAFFcDZ4aHB8kC0QKecrz+t
O7PBL+ORQDJllEDRcqLBT1+0QPY1gUBHX6fB4KWPQL3wk0AeuZbBBZ/TQJhDXED9xJbBfbvgQKVF
YEBxzLjB66O3QP74KkCNb7nBdgy3QEWYgEAxgLPBgJKwQGDwfUCQLIXBDxTVQNpRXEBxUKHBv6ux
QBV+gUAPBZHBCSn1QOZfNEAxZ5HBAhVhQEDIo0DKO5LBA72UQMlSgsCUd5PBL27oQKgXzb+bsa/B
IJNkQI7VaL50kqHBzR/vQOGxDD8RhrnB0DhvQLm98D+49avBJx3OQMiYb8BmkKzBABy9QOkmtcBI
Yp/BPjmDQFPGz7+FZJTB8w1yQKtzo0CTH6fB84/7QKGFSkD1yrPBhUXtQMTvf0CKAcDBhLqnQKU6
K0AHScHBYO+mQIcKm0AWr7fB1P7NQMgUX0A3RILBDkGuQEJtn0B20YHBSaSUQEEmWEB4poLBwwEF
QV8CHUDTuJbB9PQBQdXkXkBrsozBNxiZQDWqZj0536PBxenEQC7qgL/MnLHBRMSaQMhyoT9YmanB
AGDIQFEVYj4RC7fBW6akQPaWIMCRipbB42GhQEd9dMApXZPBpPapQCgKZsA9V6fBg8WtQIJ3i78w
6afBF9SpQD3zF8CaPqLBqt2zQDpFrz8r/bLBW+STQMOtl0CYoqLB06i2QCRnhEB1aqfBq3iQQMh4
lkBi75bBdxPUQEz4X0D0tJbBN5XhQJvXXUAdtrjB9IW3QGBvK0AIKrnBxby4QI+sgUAThbPBQ+yv
QE0CgUCCQ4XBhgzXQCzoYkC5OaHBNJ6wQIdbgUCRIJHBTXz1QM3sOEAwMpHBv95iQI3+pkAykpLB
U9yjQJvnnMAqSp7BKPuHQKEA3ztHYJzB9fvTQOfo8b9z3bTBZr2IQHxYB0D20abBb8vaQCcNkT4w
Vr7BsY6jQAPo1b83GZHBZ7+dQF91hMD3KIvBM2utQCNKbsAb4K/BTGF3QH9Vp0DrZqfBQgP8QLks
R0D7orPBharuQMXYekBKCMDB3J2nQNWvK0CtA8HB0KCpQBwnnEA967fBvqLLQOnhXUDsQYLBAmCx
QAQSokDXQ4LBfjuSQMCGY0C9d4LBCL0FQWlfJECvaJbBl2gBQdkgY0CbMIzB

> <OMEGA_E>
YIh1PUCOfD2wSfo+iBP8Psw3bD/EyoM/tCE8P9TpTT9w4Vs/

> <OMEGA_NBR>
    113023

$$$$
50219771
  -OEChem-04172616093D

 50 53  0     1  0  0  0  0  0999 V2000
    5.6056   -4.7144  -20.2066 C   0  0  0  0  0  0  0  0  0  0  0  0
    5.6538   -3.5229  -20.9547 C   0  0  0  0  0  0  0  0  0  0  0  0
    6.4060   -0.7997  -21.9497 C   0  0  0  0  0  0  0  0  0  0  0  0
    4.2676   -0.0682  -21.0183 C   0  0  0  0  0  0  0  0  0  0  0  0
    6.5308    0.4227  -22.6272 C   0  0  0  0  0  0  0  0  0  0  0  0
    4.3767    1.1368  -21.7277 C   0  0  0  0  0  0  0  0  0  0  0  0
    5.1489   -4.6882  -18.8768 C   0  0  0  0  0  0  0  0  0  0  0  0
    4.6827   -2.3026  -19.0806 C   0  0  0  0  0  0  0  0  0  0  0  0
    5.2766   -1.0498  -21.1396 C   0  0  0  0  0  0  0  0  0  0  0  0
    5.1753   -2.3137  -20.3978 C   0  0  0  0  0  0  0  0  0  0  0  0
    5.5218    1.3982  -22.5089 C   0  0  0  0  0  0  0  0  0  0  0  0
    4.7372   -3.4700  -18.3054 C   0  0  0  0  0  0  0  0  0  0  0  0
    6.9385    3.6884  -20.1432 C   0  0  0  0  0  0  0  0  0  0  0  0
    5.7851    3.8912  -20.8705 C   0  0  0  0  0  0  0  0  0  0  0  0
    6.8288    3.4671  -18.7028 C   0  0  0  0  0  0  0  0  0  0  0  0
    4.4227    3.6316  -18.9488 C   0  0  0  0  0  0  0  0  0  0  0  0
    7.0202    3.4613  -23.1992 C   0  0  0  0  0  0  0  0  0  0  0  0
    5.6607    2.7254  -23.2201 C   0  0  2  0  0  0  0  0  0  0  0  0
    5.8251    3.9924  -22.3837 C   0  0  1  0  0  0  0  0  0  0  0  0
    1.8428   -4.0849  -17.3414 C   0  0  0  0  0  0  0  0  0  0  0  0
    5.3956    3.2124  -16.6678 C   0  0  0  0  0  0  0  0  0  0  0  0
    2.6097   -2.9663  -16.6246 C   0  0  0  0  0  0  0  0  0  0  0  0
    4.5304    3.8886  -20.2399 N   0  0  0  0  0  0  0  0  0  0  0  0
    5.5533    3.3914  -18.1310 N   0  0  0  0  0  0  0  0  0  0  0  0
    3.1410    3.5917  -18.4112 N   0  0  0  0  0  0  0  0  0  0  0  0
    7.8504    3.3314  -18.0394 O   0  0  0  0  0  0  0  0  0  0  0  0
    4.3837   -3.3738  -16.6026 S   0  0  0  0  0  0  0  0  0  0  0  0
    5.9187   -5.6467  -20.6529 H   0  0  0  0  0  0  0  0  0  0  0  0
    6.0572   -3.5320  -21.9565 H   0  0  0  0  0  0  0  0  0  0  0  0
    7.1755   -1.5511  -22.0481 H   0  0  0  0  0  0  0  0  0  0  0  0
    3.4142   -0.2454  -20.3806 H   0  0  0  0  0  0  0  0  0  0  0  0
    7.3998    0.6154  -23.2388 H   0  0  0  0  0  0  0  0  0  0  0  0
    3.5820    1.8663  -21.6758 H   0  0  0  0  0  0  0  0  0  0  0  0
    5.1144   -5.5987  -18.2969 H   0  0  0  0  0  0  0  0  0  0  0  0
    4.2635   -1.3972  -18.6671 H   0  0  0  0  0  0  0  0  0  0  0  0
    7.9035    3.6929  -20.6280 H   0  0  0  0  0  0  0  0  0  0  0  0
    7.8830    3.0123  -22.6855 H   0  0  0  0  0  0  0  0  0  0  0  0
    7.3665    4.0063  -24.0897 H   0  0  0  0  0  0  0  0  0  0  0  0
    5.0785    2.8382  -24.1466 H   0  0  0  0  0  0  0  0  0  0  0  0
    5.3461    4.8893  -22.8033 H   0  0  0  0  0  0  0  0  0  0  0  0
    0.7699   -3.8428  -17.3571 H   0  0  0  0  0  0  0  0  0  0  0  0
    2.2123   -4.1796  -18.3732 H   0  0  0  0  0  0  0  0  0  0  0  0
    1.9965   -5.0347  -16.8083 H   0  0  0  0  0  0  0  0  0  0  0  0
    4.3255    3.1766  -16.4155 H   0  0  0  0  0  0  0  0  0  0  0  0
    5.8766    2.2723  -16.3596 H   0  0  0  0  0  0  0  0  0  0  0  0
    5.8681    4.0554  -16.1424 H   0  0  0  0  0  0  0  0  0  0  0  0
    2.4573   -2.0161  -17.1573 H   0  0  0  0  0  0  0  0  0  0  0  0
    2.2415   -2.8712  -15.5924 H   0  0  0  0  0  0  0  0  0  0  0  0
    2.4713    3.7745  -19.1309 H   0  0  0  0  0  0  0  0  0  0  0  0
    2.9716    2.6869  -18.0204 H   0  0  0  0  0  0  0  0  0  0  0  0
  1  2  1  0  0  0  0
  1  7  2  0  0  0  0
  2 10  2  0  0  0  0
  3  5  2  0  0  0  0
  3  9  1  0  0  0  0
  4  6  1  0  0  0  0
  4  9  2  0  0  0  0
  5 11  1  0  0  0  0
  6 11  2  0  0  0  0
  7 12  1  0  0  0  0
  8 10  1  0  0  0  0
  8 12  2  0  0  0  0
  9 10  1  0  0  0  0
 11 18  1  0  0  0  0
 12 27  1  0  0  0  0
 13 14  2  0  0  0  0
 13 15  1  0  0  0  0
 14 19  1  0  0  0  0
 14 23  1  0  0  0  0
 15 24  1  0  0  0  0
 15 26  2  0  0  0  0
 16 23  2  0  0  0  0
 16 24  1  0  0  0  0
 16 25  1  0  0  0  0
 17 18  1  0  0  0  0
 17 19  1  0  0  0  0
 18 19  1  0  0  0  0
 20 22  1  0  0  0  0
 21 24  1  0  0  0  0
 22 27  1  0  0  0  0
  1 28  1  0  0  0  0
  2 29  1  0  0  0  0
  3 30  1  0  0  0  0
  4 31  1  0  0  0  0
  5 32  1  0  0  0  0
  6 33  1  0  0  0  0
  7 34  1  0  0  0  0
  8 35  1  0  0  0  0
 13 36  1  0  0  0  0
 17 37  1  0  0  0  0
 17 38  1  0  0  0  0
 18 39  1  0  0  0  0
 19 40  1  0  0  0  0
 20 41  1  0  0  0  0
 20 42  1  0  0  0  0
 20 43  1  0  0  0  0
 21 44  1  0  0  0  0
 21 45  1  0  0  0  0
 21 46  1  0  0  0  0
 22 47  1  0  0  0  0
 22 48  1  0  0  0  0
 25 49  1  0  0  0  0
 25 50  1  0  0  0  0
M  END
> <OMEGA_C>
HGGzQFDclsAFp6HB/+u0QNJ3YcA9o6fBJ/7MQAe2TL8Sma/BhZCIQJC4i71wJajBavzQQGBr2D5t
BLXBKw6MQMCBkT9m0q3BEsSkQP8FlsCpA5fBu9iVQBxdE8AopZjBIdqoQIRfhr/ZHanBG5ylQPwT
FMDBLqPB5LKwQLj4sj8uErTBEZeXQAwUXsBzcZLBEQjeQHcObEBRJaHB0B+5QCQKeUDi9qbBuYXa
QILkXUBnn5XBuYaNQJJraEAyl5fBL6XgQMiFXUDyl7nBDiS1QNxsLkDDwrnBIGe6QC6Ef0C9EbPB
bOHrP0i3gsBAu4rB0KisQJSXTUDBV4XBLgUnQJ7YPcAd/4TBV/mQQEneeEBq66HBTrSxQPcLWUA+
DJHBWwZJQM/dZUAdSpPBRDb7QCs2VUC8UJDBqEeMQA7tV8Aw0oTBBWa9QHuxtMArOaXBW9TBQKYM
YsDwpq/BxJ3lQEeJxr+DYrDB5IFaQIZKe76EC6PBZcvsQIaJHT8I6bnBBkBlQNXh7j8XaK3BDqmj
QHEos8AJYJLBfG6IQK/Xsr9HVpXByun8QLJYbEA6BqXBfEH8QBvJQEDYe7XBnbrrQJQzgECzt8DB
OIOiQHKkNUA8LMHB6xKrQHB1nEA0bbbB+BdFP33wdcBS24rBHZYNQGW/hcBI/JLBc47/P+kbocBM
d4bB22qKQLBMS0DwUoPBswy8QLZtEUCO4ILBWMe7QPHFgUC3I4HBmUMdQCgIAcA3QonBtXQPQDDB
N8B1ennBWykeQOWRcUAeDJnBni4+QPb1K0DgKZDB

> <OMEGA_E>
MCVuPg==

> <OMEGA_NBR>
    114160

$$$$
50219815
  -OEChem-04172616093D

 40 43  0     1  0  0  0  0  0999 V2000
    5.3618   -4.4190  -19.4484 C   0  0  0  0  0  0  0  0  0  0  0  0
    6.4778   -0.7737  -21.9155 C   0  0  0  0  0  0  0  0  0  0  0  0
    4.3482    0.0202  -21.0293 C   0  0  0  0  0  0  0  0  0  0  0  0
    6.6349    0.4480  -22.6162 C   0  0  0  0  0  0  0  0  0  0  0  0
    4.4813    1.2006  -21.7657 C   0  0  0  0  0  0  0  0  0  0  0  0
    5.8283   -3.4001  -20.4104 C   0  0  0  0  0  0  0  0  0  0  0  0
    4.3744   -3.9527  -18.6147 C   0  0  0  0  0  0  0  0  0  0  0  0
    5.3415   -0.9787  -21.0896 C   0  0  0  0  0  0  0  0  0  0  0  0
    5.6419    1.4514  -22.5168 C   0  0  0  0  0  0  0  0  0  0  0  0
    5.1571   -2.2043  -20.2779 C   0  0  0  0  0  0  0  0  0  0  0  0
    6.9452    3.8554  -20.1541 C   0  0  0  0  0  0  0  0  0  0  0  0
    5.7773    3.9807  -20.8757 C   0  0  0  0  0  0  0  0  0  0  0  0
    6.8613    3.5485  -18.7286 C   0  0  0  0  0  0  0  0  0  0  0  0
    4.4498    3.5272  -18.9626 C   0  0  0  0  0  0  0  0  0  0  0  0
    7.0583    3.6161  -23.1891 C   0  0  0  0  0  0  0  0  0  0  0  0
    5.7566    2.7883  -23.2352 C   0  0  2  0  0  0  0  0  0  0  0  0
    5.8158    4.0724  -22.3942 C   0  0  1  0  0  0  0  0  0  0  0  0
    5.4698    2.9688  -16.7322 C   0  0  0  0  0  0  0  0  0  0  0  0
    4.5291    3.8722  -20.2365 N   0  0  0  0  0  0  0  0  0  0  0  0
    5.6015    3.3075  -18.1691 N   0  0  0  0  0  0  0  0  0  0  0  0
    3.1796    3.3688  -18.4187 N   0  0  0  0  0  0  0  0  0  0  0  0
    7.8944    3.4561  -18.0758 O   0  0  0  0  0  0  0  0  0  0  0  0
    3.9837   -2.3005  -18.9741 S   0  0  0  0  0  0  0  0  0  0  0  0
    5.7550   -5.4239  -19.4049 H   0  0  0  0  0  0  0  0  0  0  0  0
    7.2233   -1.5495  -22.0098 H   0  0  0  0  0  0  0  0  0  0  0  0
    3.4769   -0.1282  -20.4087 H   0  0  0  0  0  0  0  0  0  0  0  0
    7.5112    0.6131  -23.2254 H   0  0  0  0  0  0  0  0  0  0  0  0
    3.6831    1.9280  -21.7572 H   0  0  0  0  0  0  0  0  0  0  0  0
    6.6087   -3.5731  -21.1368 H   0  0  0  0  0  0  0  0  0  0  0  0
    3.9035   -4.5372  -17.8381 H   0  0  0  0  0  0  0  0  0  0  0  0
    7.9044    3.9817  -20.6340 H   0  0  0  0  0  0  0  0  0  0  0  0
    7.9398    3.2274  -22.6582 H   0  0  0  0  0  0  0  0  0  0  0  0
    7.3836    4.1811  -24.0751 H   0  0  0  0  0  0  0  0  0  0  0  0
    5.1869    2.8700  -24.1726 H   0  0  0  0  0  0  0  0  0  0  0  0
    5.2835    4.9334  -22.8247 H   0  0  0  0  0  0  0  0  0  0  0  0
    4.4083    2.8170  -16.4866 H   0  0  0  0  0  0  0  0  0  0  0  0
    6.0306    2.0466  -16.5201 H   0  0  0  0  0  0  0  0  0  0  0  0
    5.8729    3.7914  -16.1233 H   0  0  0  0  0  0  0  0  0  0  0  0
    2.4908    3.5521  -19.1202 H   0  0  0  0  0  0  0  0  0  0  0  0
    3.0744    2.4319  -18.0853 H   0  0  0  0  0  0  0  0  0  0  0  0
  1  6  1  0  0  0  0
  1  7  2  0  0  0  0
  2  4  2  0  0  0  0
  2  8  1  0  0  0  0
  3  5  1  0  0  0  0
  3  8  2  0  0  0  0
  4  9  1  0  0  0  0
  5  9  2  0  0  0  0
  6 10  2  0  0  0  0
  7 23  1  0  0  0  0
  8 10  1  0  0  0  0
  9 16  1  0  0  0  0
 10 23  1  0  0  0  0
 11 12  2  0  0  0  0
 11 13  1  0  0  0  0
 12 17  1  0  0  0  0
 12 19  1  0  0  0  0
 13 20  1  0  0  0  0
 13 22  2  0  0  0  0
 14 19  2  0  0  0  0
 14 20  1  0  0  0  0
 14 21  1  0  0  0  0
 15 16  1  0  0  0  0
 15 17  1  0  0  0  0
 16 17  1  0  0  0  0
 18 20  1  0  0  0  0
  1 24  1  0  0  0  0
  2 25  1  0  0  0  0
  3 26  1  0  0  0  0
  4 27  1  0  0  0  0
  5 28  1  0  0  0  0
  6 29  1  0  0  0  0
  7 30  1  0  0  0  0
 11 31  1  0  0  0  0
 15 32  1  0  0  0  0
 15 33  1  0  0  0  0
 16 34  1  0  0  0  0
 17 35  1  0  0  0  0
 18 36  1  0  0  0  0
 18 37  1  0  0  0  0
 18 38  1  0  0  0  0
 21 39  1  0  0  0  0
 21 40  1  0  0  0  0
M  END
> <OMEGA_C>
dZOrQKdojcBLlpvBdkrPQBgSRr/gUq/BRiSLQMAqpTwQPKjBtlDUQNBc5T717bTBnWaPQK+rmT8T
IK7BsoG6QOyaWcCJSKPBCvuLQFr5fMDQ6pTBYO2qQGWMer+Tt6jB0Yq0QKHGuT9UIrTBOQelQBIU
DcAcOaLBGD/eQCK+dkCNO6HBnd+4QLzDfkBWAafB/Y/bQD4bY0BE1JXB02SOQDS+YUB0s5fB0N3h
QL5tZ0BUg7nBZDa4QEZ0MkCu4bnBERu6QBBRgkBZJ7PBPwivQHQAPkCd24XBNO6QQHLSd0Bf5KHB
YD+zQGytU0BnWpHBCH5LQJyZV0CIWZPBLJ/8QAAwXUA2m5DBGPV+QGQ7E8DgypfB5Si4QP+QrcBW
PZvBPSXnQBtVxr8EFLDB24ReQJJFA77+RKPBBVzwQKTxHD+QzbnBvLdrQL/J9j/ZDq7BFXrTQMGt
ZMASGKnBNdN5QNMwkcBrtI7BNvH8QDjUfkBbEqXBBRP+QKeNTkD3Q7XBDUbsQDbLhUDjmcDBGful
QJGtN0B/YcHBkRKpQK3enUDomLbBGRGNQL1JNEB85IPBivrAQOr6AkAvKYTBA++7QN+lckCJ/IDB
1mkfQGZVY0Ab9pjBsMJEQLGjG0CkrpDBkzuLQLZfdcAyRpXBPNzOQKw/U7/gBq/BogWLQBB+Sb1H
oafB42HTQHpgzD6Tk7TBeumOQMpSkj8sba3Be0CKQKltHsANv5nBE4+nQFPZlMBziJrBPOKqQHwD
hr+lWqjBEI6zQILCsj+jpbPB4+KlQDPIE8CnQqLBrfbdQITvc0A0TqHB56O4QJiPfUDIDqfB7CXb
QN5qYkAK2pXBnPKNQEANZkATp5fBZtjgQCbdYUCXmLnBVs62QAIALkDinrnBMKa5QHe5gEDGMrPB
oVOuQLbxRUD2qYXBXq6QQH6meUCe6qHBwamyQPV6V0B9RJHBgGhKQDztXkBMRJPBti/8QFBzWkD2
qZDBv43BQP0bc8DL2aTBb6tvQIHphMCXmI7B4ubmQLT/y79f4K/BPO5eQBLVU74RkqLBFirvQGBw
Ej+khrnBDhNrQOIL8D91Hq3BYgBsQDcW2L8ysJbBJxCtQL0HtsASjJjBGLX8QNw/eUAfMqXBjiT9
QIEtSUBdXrXBfg7rQEsVgkAn2MDBkiikQCL6MUBZEcHBXMeoQL4gnEC3w7bB4kCMQEhmP0C+nIPB
JTi/QAdACkCnroPB3Ey8QNgqe0CEFYHBaJkeQOB0akD76pjBAzZCQInJI0CtYpDB8Bu2QDmMm8Cc
853B3ivRQCJUIb9xdajBqPKHQM4DW78oBq/B3n3UQDP5Hj+Dha3BB5qLQLl6wz7xTbTBv2jDQCQA
bcBRbqTBOtKQQAYWlMBFa5jBQueqQB9Lr7+FManBpduxQOZ3kD/SnbPBou+mQCgRKsDtsqPBH5nd
QIVAbUDoJ6HBygm4QNLqb0BR9qbBbQ3bQEuXa0B1cpXBRKONQI/QbkBCQpfB1XPeQPznUkC1t7nB
90e0QPvJHUAVernBDje4QPgfcUAkF7PBfPqtQIAba0Az14TBPzCQQH2Cb0AYzqHBe4CyQP7vbkBR
pZDBc8BJQB8xbkCGxJLB7Cn8QEuAaEBaMJDBWG95QBhdQsAzGpvBKLDHQGNEucAvlp3BHfbrQIQp
g79lAaTB/rxUQB6ztL+2b6/BaI3xQDNRmT+Kw6zB8AViQBYrQz9i6LjBSTLgQGlha8AWNanBNueB
QA3ZqsD9F5PBkDn8QIBobEBYKKXB/lT7QECUOkCWtbXBcK3nQPK3dUCrAsHBp9qgQD4sIkB3y8DB
V8+mQKWvk0ApobbBO+WLQCGfbkCJr4LBl4i7QP2fLkDf34HB2Sm/QOudkEDiNIHB+94dQCNibkBX
l5jBh59CQGGeOUAaS47Bnx2SQFL6m8DOop/BZomEQBQQIb/02avB6lzSQNZtW78W86vBb0qIQEN2
Hz+78LDBKBHWQG5pwT6QObHB3RaNQBCybcBSyqbBSV2uQB4/lMBUbZfBh6upQG8Ur7/ZUanBYAyx
QBOtkD89rrPBn4qmQLb7KcDIyKPBK5DdQHdXakDfDqHBZx24QNJ2bkCR5qbBP9HaQDRPaEDYWZXB
qnWNQMWGbUBgPpfBkdXeQB4QUUB7krnB0Da0QBW7HUCgd7nBqHe4QLiBcEDCBrPBTH2tQOQAakBp
yoTBdjaQQLMtcEDax6HBCCOyQBEGaEDTmZDBk05JQK5tcEBXy5LBjNr7QOicZkBvDZDB3+zDQMbk
QcD3TJjBL3WBQFDyucAruKDBdKNKQOHjgr+d5KnBJMXuQMpStb9256nB0ddXQKsqmT+WwLLBCUX1
QJLVQD/7aLPB9r1vQPmKbMDUm63B6S62QIMKq8DmO5HBDz78QDemaEDEB6XBhEv7QGmFN0DPfrXB
d7foQJ+9c0Ay0sDBwSihQK/tIkB71sDBWrqnQNjRk0BsjbbBJ1KLQK1taUBcrYLBxEG9QFWQMUDW
ToHBunS8QE0+kkDxoIHBVL4dQF5DdECkopjB0B8/QF1lO0AqgI7BMCS8QIbQm8CjRJzBAB3EQPna
q79F1rLBlCKXQGdHxL5A3aTB4MfFQLO3t73gALjBuOmXQN3FWD+mLarB9H/KQLO7asDID6LBKgKR
QJ80m8CXGZrB+CCtQLDnvb8zLKnBeJawQBkUgz+AhrPBjqCpQFLzMcA20KPBbkXdQNUtakAgJaHB
ytO3QOxicECr8qbBpJ3aQF9faEDzbpXBmlSNQKyZb0CcPJfBWtHdQK7oR0CVbLnBVqayQLGiF0Do
MrnBmL23QPmSbEBHGbPBwHitQIfUZkAm2ITB2iGQQKdxdkBLvaHBgPuxQGsBZ0AWqJDB0ARJQGjr
cEBdx5LBYLH7QIJhZkDjJ5DBZplyQBe5WMAxvp7B0C7RQHmmtcB/+ZnBFWXUQCNfDMBrRLbBc6aF
QPWJ+b5NdZ3ByE7XQJutkDxyZr/B3GCFQGMQ1j9UFqfBChHrQIktYMCKoqTBeAaAQLiKtMCkCZbB
3dz7QBa6ZkBFJKXBV6v5QBHCLUBDJrXBO47oQPl8Z0Ab0cDBqu6fQA70G0DNocDBhhWoQCW1kUDx
/LbBMFSLQHuvZUBotYLBFVu9QEbdLUBmiIHBZmW8QNBnkEBwh4HBE34dQBwxd0BRl5jB9a8+QPRC
OkCL0o7BiNmLQOMdccCgR5XBjamNQIBXobsd2KfBaQrRQPWZUb/uOK/BmTeSQJAzlz+vra3BeXDW
QFTBzz4fubTB9c6LQGtEGsDUx5nBdpGnQBxkk8Cqh5rBYhGtQBILgr/if6jB/Wi3QNZytj90u7PB
gnynQJ4cEcBCUKLBgH+NQNGZgEA1TKLBX321QKLLfUCn8KbB23CJQF4Ka0Ak8JbBxcDWQOLiXkA2
aJbBcYXkQKqnZkCPIbjBczq8QAiUMEBGgbnBCcq5QKlMgkAjALPB4iutQNzsRkDGiIXBehTaQPwf
cEBYsqDByMKuQOFUWEAnLpHBJob8QGIXU0DTv5DBkoBLQOQGZUBB7pLBcTnCQB+GccBd2aTBIYdw
QE1IgsDTlo7BzuRjQNf0Fr5pz6LBIGjoQP2Szb/xJbDBiN1xQDxq9T8sia3BKUzyQDSsDz/MrrnB
dVNwQDLNzb8Tu5bBVEmsQIivtMBEiZjBD5xjQHjgiUDL6qbBC8L+QOKiT0C/BLPB5N7xQCbFhED0
Ab/B/m+tQFedM0A7e8HBabGpQNNznUAe5bbBeKnNQITHOUD6koLBhAqgQJkFf0D9WYHBip6YQIoN
D0CZB4TBI7sKQdH/WUD+r5XB9mf+QNN8fkBf44rBWmGrQPxelMC4553B8UTUQNauKr9pqqvB79WG
QNzKqb5iVKvBHznZQDO6Cj+1SrHBzKiLQOaHXD8dMbHBb/i2QMpmZMARfKXB2u2SQF+XhcBmipXB
ZBqrQBQQjb//oajBm+q0QA48qD9fFbTB7dulQGd+FsBeo6LBj9yzQLiNpUD1FaHB6mS3QC4lf0Dn
m6bB9sKvQED5o0AbYJXBewexQM0qLUDKtJbBQbLjQJgkXkDNBbjBBsS5QCSXK0AJYrnBroW6QLz9
f0AdyrLBdripQO0lcEBJmYTBiFi2QAIYMUA0HaHB+92sQJKUd0A+Y5DB3KOvQFLJtz/2JZLB8WSu
QOp/xUAlSpDBDLaIQBXoHcB6xpbBhwO1QFZctcDf0J7Bf//vQC5sob9zq6nBLrZOQFZFKL9B5ajB
eNP4QNnCYT9efbPBa41fQM8/tz+2e7PBt6bKQHJKbsB6eqzBG4SHQE1KmcBLCo/BLRm0QCDOw0BP
Q6XBA4X9QJgqREA1ALPB6aLxQL8KgEBY5r7BONGqQBZdMUA4UcHB5NmrQPrBm0A5xLbB48WnQNkz
LEDyWILBfy/GQK+GhkAt5IDB2t2MQL/YiEBCzYHBDxyzQF/JPj943pfB+U/HQHwPrD/B0IzBOOmh
QDdem8AXMZ/B3tzNQCBQib+Jlq/BMkqMQNb3g74sI6fBO3DSQHacID4s77TB5AeQQBsddD8YyazB
sVenQGqvcsDAOqfBm5KeQGN/i8Bb95TB2QarQGFAo78xmKjB48GzQMiplj++e7PBKNWmQGJUIsCK
uqLBf9fJQHcqO0AsEqDB/Ry3QFrod0Blo6bBRhzCQF9MP0B0i5TBDnuaQIU0oUCSwpfBfjbkQFYR
T0Ck4bfB5Li5QI2/IEAwDbnBQ2y7QPmAdkBczrLBiBijQFnWhkAg34TBr4WfQBzAnUB0NqLBv76r
QCz1gkCUfpDBHk+DQI00xECPC5TBHqTPQADLBUC5x47B/tygQOuDJ8Cp35TBrq+gQOcJvcBwHaHB
rfrkQOIe7r/Q1bDB/s9jQIRB0b5gsKHBTnftQOQopD4yKLrBbT9vQH4g2z/tAKzBPEarQCR/fsB7
r6/BwP2aQHsNn8Ab5o3B1NfdQKiFCUCOaKPBblb9QCgpNEB4t7LBhATzQFK0bUAF477BR/uqQC9o
JUCABcHBvx2uQOAWl0CuCrfBtUuRQMGQpEBbUoPBdv+PQO2OVkA6MYLB0JTBQC+Jh0DEeYDBG3tz
QB//1UDiP5rB+nNTQGHvuUCS+4/B9DCgQCuzlsC2/J7BoDvHQCrLh7+zrrHBtm2VQADz3LrTQKXB
rvbMQHJ8MD6k9rbBm7mYQPrymD9jB6vBA+SnQD5fasDVCqfBUamaQKFPhsBs4JTBp1OsQJjikb/W
m6jBe5O2QKOeqD/idrPB3BinQKt5GcBisKLBXKKiQFOSoEBf86HBAYK7QO9HgUAKmqbBoVKbQMO7
nkBDW5bBJljFQK/SOkBSEJbBrHjpQLCDV0DjY7fBNS6+QCQiKkA/9rjBOXvAQDOUf0BatrLBquak
QEbQb0C48YTBKoDOQLduQkBgTqDBew6rQDuadkDxq5DBeYzWQId56T/zspDBbcmGQFdLu0BMAZLB
JvKdQLZnHcAz5pTBpASfQHpzuMB20qDBoGPXQC/y+L81kbTBaFeBQCFBUb3NO57BGoTiQNp6dj4E
sr3Bd0+EQEDhAUD5BKnBJYWtQLQ6d8D/aa/BqAGVQAR4mcBy043BzNWUQCHduUDkuKbB19AAQaW5
O0DdA7LBu4D5QBvadUDdPr7BkrSwQAyHL0BEEMHBfUe0QMjgm0ALDbfBVnSzQM0UNEBqCYLBKjO0
QPFbk0AO+4DBWnmCQGSfb0A8HIPBrv3nQNiOoz+MyZXBxyrpQL02CUCUt4rBqq6bQEnzfMCLWZTB
DrWMQLQ2p718xqbBL3jPQBs0aL+Kiq7BDcKQQPqDjT/QvqzBK17UQIDXmT6BLrTBI6efQJMiIsBB
X5fB7qqeQKt1mcC/AZ3BO+arQMoajL+gwKfB8R+1QDANqD8FR7PBOIemQOfIF8CkKqLB7cGiQLI8
oUBtRqLBQxS5QG6DgEBSHafBkzueQH61oECHlpbBGjbGQOYgPEC6iJbBQbXlQHk+WEAOPrjBi+i6
QCoFKEB3PbnBpsq8QBwdfkD2PLPBjfKrQMXGd0DxFIXBYtHLQOLJP0CY9qDBvMSuQI5Ae0Bz6ZDB
+1/YQHjP7T8RMpHBLZKLQEVCvkAlH5LBF1GnQDH/ecCly6jBpvOWQIlaicAVPIzBvZhjQL/gXb5h
dqHBA/fmQC+H2L9qaK/BHh5wQMr87T9MVqzBLg7wQKbP5z72NLnBbWydQJiD278Ww5HBuf6bQHre
u8B/jpzBI+aUQEm1ukDU+abB8S//QIHgPkCBELPBhxP0QLCOdkB+U7/Bj/qrQGnUKkCdM8HBt/Gu
QP16mkCkiLfB5Z66QAYbPEA+MYLBY/m8QLBwl0C3ooHB8yWKQNfIeUAJo4LB/4HnQLWwoj8OdJbB
l0ntQBM+DEBiwovB

> <OMEGA_E>
AISuPUCmZz0AMok+9BafPpCXoT4o//s+FHmAP15zfT+IZH0/YN97Pw==

> <OMEGA_NBR>
    121708

$$$$
50219801
  -OEChem-04172616093D

 53 56  0     1  0  0  0  0  0999 V2000
    5.6525   -4.7043  -20.2126 C   0  0  0  0  0  0  0  0  0  0  0  0
    5.7039   -3.5117  -20.9548 C   0  0  0  0  0  0  0  0  0  0  0  0
    6.4240   -0.7956  -21.9510 C   0  0  0  0  0  0  0  0  0  0  0  0
    4.2843   -0.0754  -21.0093 C   0  0  0  0  0  0  0  0  0  0  0  0
    6.5342    0.4219  -22.6339 C   0  0  0  0  0  0  0  0  0  0  0  0
    4.3779    1.1243  -21.7260 C   0  0  0  0  0  0  0  0  0  0  0  0
    5.1582   -4.6897  -18.8967 C   0  0  0  0  0  0  0  0  0  0  0  0
    4.6981   -2.3044  -19.0917 C   0  0  0  0  0  0  0  0  0  0  0  0
    5.3019   -1.0476  -21.1338 C   0  0  0  0  0  0  0  0  0  0  0  0
    5.2090   -2.3101  -20.3991 C   0  0  0  0  0  0  0  0  0  0  0  0
    5.5166    1.3871  -22.5148 C   0  0  0  0  0  0  0  0  0  0  0  0
    4.7163   -3.4747  -18.3244 C   0  0  0  0  0  0  0  0  0  0  0  0
    6.9316    3.6379  -20.1447 C   0  0  0  0  0  0  0  0  0  0  0  0
    5.7807    3.8607  -20.8705 C   0  0  0  0  0  0  0  0  0  0  0  0
    6.8216    3.4367  -18.7009 C   0  0  0  0  0  0  0  0  0  0  0  0
    4.4180    3.6403  -18.9431 C   0  0  0  0  0  0  0  0  0  0  0  0
    7.0075    3.4413  -23.2103 C   0  0  0  0  0  0  0  0  0  0  0  0
    5.6466    2.7100  -23.2253 C   0  0  2  0  0  0  0  0  0  0  0  0
    5.8186    3.9711  -22.3843 C   0  0  1  0  0  0  0  0  0  0  0  0
    1.6032   -2.6737  -17.0370 C   0  0  0  0  0  0  0  0  0  0  0  0
    5.3909    3.2480  -16.6571 C   0  0  0  0  0  0  0  0  0  0  0  0
    2.0863   -4.1315  -17.1625 C   0  0  0  0  0  0  0  0  0  0  0  0
    3.4559   -4.3160  -16.4817 C   0  0  0  0  0  0  0  0  0  0  0  0
    4.5270    3.8801  -20.2374 N   0  0  0  0  0  0  0  0  0  0  0  0
    5.5466    3.3958  -18.1240 N   0  0  0  0  0  0  0  0  0  0  0  0
    3.1365    3.6230  -18.4034 N   0  0  0  0  0  0  0  0  0  0  0  0
    7.8425    3.3003  -18.0366 O   0  0  0  0  0  0  0  0  0  0  0  0
    4.4117   -3.3641  -16.9879 O   0  0  0  0  0  0  0  0  0  0  0  0
    5.9921   -5.6303  -20.6525 H   0  0  0  0  0  0  0  0  0  0  0  0
    6.1220   -3.5136  -21.9506 H   0  0  0  0  0  0  0  0  0  0  0  0
    7.1983   -1.5420  -22.0498 H   0  0  0  0  0  0  0  0  0  0  0  0
    3.4374   -0.2566  -20.3641 H   0  0  0  0  0  0  0  0  0  0  0  0
    7.3983    0.6200  -23.2508 H   0  0  0  0  0  0  0  0  0  0  0  0
    3.5780    1.8481  -21.6744 H   0  0  0  0  0  0  0  0  0  0  0  0
    5.1160   -5.6045  -18.3242 H   0  0  0  0  0  0  0  0  0  0  0  0
    4.2899   -1.3947  -18.6769 H   0  0  0  0  0  0  0  0  0  0  0  0
    7.8946    3.6126  -20.6329 H   0  0  0  0  0  0  0  0  0  0  0  0
    7.8726    2.9876  -22.7046 H   0  0  0  0  0  0  0  0  0  0  0  0
    7.3494    3.9899  -24.1004 H   0  0  0  0  0  0  0  0  0  0  0  0
    5.0576    2.8254  -24.1471 H   0  0  0  0  0  0  0  0  0  0  0  0
    5.3394    4.8712  -22.7968 H   0  0  0  0  0  0  0  0  0  0  0  0
    0.6255   -2.5672  -17.5296 H   0  0  0  0  0  0  0  0  0  0  0  0
    1.5085   -2.4093  -15.9734 H   0  0  0  0  0  0  0  0  0  0  0  0
    2.3309   -2.0037  -17.5180 H   0  0  0  0  0  0  0  0  0  0  0  0
    4.3213    3.2369  -16.4006 H   0  0  0  0  0  0  0  0  0  0  0  0
    5.8555    2.3053  -16.3323 H   0  0  0  0  0  0  0  0  0  0  0  0
    5.8808    4.0921  -16.1496 H   0  0  0  0  0  0  0  0  0  0  0  0
    1.3530   -4.7967  -16.6831 H   0  0  0  0  0  0  0  0  0  0  0  0
    2.1755   -4.3911  -18.2277 H   0  0  0  0  0  0  0  0  0  0  0  0
    3.3420   -4.1708  -15.3973 H   0  0  0  0  0  0  0  0  0  0  0  0
    3.8222   -5.3344  -16.6787 H   0  0  0  0  0  0  0  0  0  0  0  0
    2.4681    3.8054  -19.1245 H   0  0  0  0  0  0  0  0  0  0  0  0
    2.9563    2.7252  -18.0014 H   0  0  0  0  0  0  0  0  0  0  0  0
  1  2  1  0  0  0  0
  1  7  2  0  0  0  0
  2 10  2  0  0  0  0
  3  5  2  0  0  0  0
  3  9  1  0  0  0  0
  4  6  1  0  0  0  0
  4  9  2  0  0  0  0
  5 11  1  0  0  0  0
  6 11  2  0  0  0  0
  7 12  1  0  0  0  0
  8 10  1  0  0  0  0
  8 12  2  0  0  0  0
  9 10  1  0  0  0  0
 11 18  1  0  0  0  0
 12 28  1  0  0  0  0
 13 14  2  0  0  0  0
 13 15  1  0  0  0  0
 14 19  1  0  0  0  0
 14 24  1  0  0  0  0
 15 25  1  0  0  0  0
 15 27  2  0  0  0  0
 16 24  2  0  0  0  0
 16 25  1  0  0  0  0
 16 26  1  0  0  0  0
 17 18  1  0  0  0  0
 17 19  1  0  0  0  0
 18 19  1  0  0  0  0
 20 22  1  0  0  0  0
 21 25  1  0  0  0  0
 22 23  1  0  0  0  0
 23 28  1  0  0  0  0
  1 29  1  0  0  0  0
  2 30  1  0  0  0  0
  3 31  1  0  0  0  0
  4 32  1  0  0  0  0
  5 33  1  0  0  0  0
  6 34  1  0  0  0  0
  7 35  1  0  0  0  0
  8 36  1  0  0  0  0
 13 37  1  0  0  0  0
 17 38  1  0  0  0  0
 17 39  1  0  0  0  0
 18 40  1  0  0  0  0
 19 41  1  0  0  0  0
 20 42  1  0  0  0  0
 20 43  1  0  0  0  0
 20 44  1  0  0  0  0
 21 45  1  0  0  0  0
 21 46  1  0  0  0  0
 21 47  1  0  0  0  0
 22 48  1  0  0  0  0
 22 49  1  0  0  0  0
 23 50  1  0  0  0  0
 23 51  1  0  0  0  0
 26 52  1  0  0  0  0
 26 53  1  0  0  0  0
M  END
> <OMEGA_C>
5uC0QEyJlsBPs6HBeoa2QHC/YMBco6fBwJHNQAitS7+Mm6/BvxiJQGBgmr0dE6jBZxjRQIID2D41
ErXBAhiMQOvpjz/gzq3BsQ+lQK0RlsB7LJfB7VaWQNB7E8Dau5jBZampQAAYhr/3EanBVLCmQDDY
E8BvMaPBAIiwQF6MsT87HrTBzeuWQLRhXsBxmJLBaM/dQIrTaEBpKKHBlPu4QAYVd0DN9qbBp0ra
QE7zW0Bum5XBEGCNQI76aEBqi5fBzj3gQAY/XEDIrrnBBrG0QBBxLUBlzbnBzjG6QPAlfkD4ErPB
8jTNPxgeK8CxS4jBn4KsQEHfT0CrQYXBLoYFQAg1hMDDTInBzSxdQBIdisB12oPBRt2QQLlTeEA7
5qHBI36xQIRUWUDy/ZDBJbxIQOHeZ0AwOpPBBPb6QIg3U0ADS5DBXSyNQIRNV8A554fBaL+/QAkr
tMBaOKXBj+fDQKreYMC6mq/ByljmQANgxb8LZrDBn/5bQHVkg76U6aLBx77sQDC2Hj+hAbrBZP1k
QF6N7D9DZa3BpbajQLpXs8D8l5LBQEeJQAuEsr84apXBzqD8QFQ0Z0AZEKXBhOz7QLc0P0ATo7XB
/S3rQP1Zf0C3zcDBktehQKrTNEA9LcHBg9yqQLzgm0DbX7bBDh4gPy5NJMCtPIzBJhXBPykxGsAu
k3/BFy4VQAg8AMDeJIzBNEiKQKkpT0B2NIPBdWC7QBCKE0CEqILBmS+8QH7ygkBeMoHB7S+tP1h+
mcADd4XBejsLQMeDjMBJ0pHBuOJVQPt2hcA2W3bBRZ50QDyzqsABboXBk/UdQPuKc0AN/5jBZzQ9
QGFqLkDeApDB

> <OMEGA_E>
5A2zPg==

> <OMEGA_NBR>
    122893

$$$$
50219812
  -OEChem-04172616093D

 50 53  0     1  0  0  0  0  0999 V2000
    5.8635   -4.5973  -19.9467 C   0  0  0  0  0  0  0  0  0  0  0  0
    6.0569   -3.3753  -20.6171 C   0  0  0  0  0  0  0  0  0  0  0  0
    6.5293   -0.7037  -21.8458 C   0  0  0  0  0  0  0  0  0  0  0  0
    4.3334   -0.0266  -21.0217 C   0  0  0  0  0  0  0  0  0  0  0  0
    6.6132    0.4879  -22.5856 C   0  0  0  0  0  0  0  0  0  0  0  0
    4.4140    1.1483  -21.7735 C   0  0  0  0  0  0  0  0  0  0  0  0
    4.8548   -4.7161  -18.9752 C   0  0  0  0  0  0  0  0  0  0  0  0
    4.2927   -2.3660  -19.2718 C   0  0  0  0  0  0  0  0  0  0  0  0
    5.3908   -0.9711  -21.0449 C   0  0  0  0  0  0  0  0  0  0  0  0
    5.2670   -2.2437  -20.2888 C   0  0  0  0  0  0  0  0  0  0  0  0
    5.5635    1.4248  -22.5315 C   0  0  0  0  0  0  0  0  0  0  0  0
    4.0469   -3.6054  -18.6632 C   0  0  0  0  0  0  0  0  0  0  0  0
    6.9298    3.7193  -20.1755 C   0  0  0  0  0  0  0  0  0  0  0  0
    5.7652    3.9011  -20.8911 C   0  0  0  0  0  0  0  0  0  0  0  0
    6.8404    3.4949  -18.7336 C   0  0  0  0  0  0  0  0  0  0  0  0
    4.4292    3.6059  -18.9535 C   0  0  0  0  0  0  0  0  0  0  0  0
    6.9956    3.5274  -23.2370 C   0  0  0  0  0  0  0  0  0  0  0  0
    5.6643    2.7456  -23.2534 C   0  0  2  0  0  0  0  0  0  0  0  0
    5.7892    4.0127  -22.4079 C   0  0  1  0  0  0  0  0  0  0  0  0
    5.4362    3.2025  -16.6838 C   0  0  0  0  0  0  0  0  0  0  0  0
    2.8966   -3.7416  -17.6902 C   0  0  0  0  0  0  0  0  0  0  0  0
    3.4138   -3.8946  -16.2595 C   0  0  0  0  0  0  0  0  0  0  0  0
    4.5172    3.8697  -20.2454 N   0  0  0  0  0  0  0  0  0  0  0  0
    5.5734    3.3880  -18.1485 N   0  0  0  0  0  0  0  0  0  0  0  0
    3.1547    3.5336  -18.4019 N   0  0  0  0  0  0  0  0  0  0  0  0
    7.8716    3.3910  -18.0794 O   0  0  0  0  0  0  0  0  0  0  0  0
    4.1891   -2.7559  -15.8959 O   0  0  0  0  0  0  0  0  0  0  0  0
    6.4911   -5.4450  -20.1789 H   0  0  0  0  0  0  0  0  0  0  0  0
    6.8113   -3.2985  -21.3862 H   0  0  0  0  0  0  0  0  0  0  0  0
    7.3367   -1.4197  -21.8875 H   0  0  0  0  0  0  0  0  0  0  0  0
    3.4584   -0.2170  -20.4178 H   0  0  0  0  0  0  0  0  0  0  0  0
    7.4824    0.6851  -23.1955 H   0  0  0  0  0  0  0  0  0  0  0  0
    3.5897    1.8461  -21.7718 H   0  0  0  0  0  0  0  0  0  0  0  0
    4.6994   -5.6574  -18.4690 H   0  0  0  0  0  0  0  0  0  0  0  0
    3.7322   -1.4968  -18.9606 H   0  0  0  0  0  0  0  0  0  0  0  0
    7.8893    3.7422  -20.6705 H   0  0  0  0  0  0  0  0  0  0  0  0
    7.8774    3.1049  -22.7330 H   0  0  0  0  0  0  0  0  0  0  0  0
    7.3160    4.0899  -24.1264 H   0  0  0  0  0  0  0  0  0  0  0  0
    5.0701    2.8414  -24.1741 H   0  0  0  0  0  0  0  0  0  0  0  0
    5.2760    4.8952  -22.8177 H   0  0  0  0  0  0  0  0  0  0  0  0
    4.3701    3.1409  -16.4198 H   0  0  0  0  0  0  0  0  0  0  0  0
    5.9427    2.2736  -16.3829 H   0  0  0  0  0  0  0  0  0  0  0  0
    5.8943    4.0556  -16.1618 H   0  0  0  0  0  0  0  0  0  0  0  0
    2.2638   -2.8439  -17.7513 H   0  0  0  0  0  0  0  0  0  0  0  0
    2.3020   -4.6281  -17.9559 H   0  0  0  0  0  0  0  0  0  0  0  0
    2.5602   -3.9885  -15.5720 H   0  0  0  0  0  0  0  0  0  0  0  0
    4.0391   -4.7971  -16.1931 H   0  0  0  0  0  0  0  0  0  0  0  0
    2.4729    3.7028  -19.1136 H   0  0  0  0  0  0  0  0  0  0  0  0
    3.0113    2.6238  -18.0125 H   0  0  0  0  0  0  0  0  0  0  0  0
    4.5062   -2.8592  -15.0063 H   0  0  0  0  0  0  0  0  0  0  0  0
  1  2  2  0  0  0  0
  1  7  1  0  0  0  0
  2 10  1  0  0  0  0
  3  5  2  0  0  0  0
  3  9  1  0  0  0  0
  4  6  1  0  0  0  0
  4  9  2  0  0  0  0
  5 11  1  0  0  0  0
  6 11  2  0  0  0  0
  7 12  2  0  0  0  0
  8 10  2  0  0  0  0
  8 12  1  0  0  0  0
  9 10  1  0  0  0  0
 11 18  1  0  0  0  0
 12 21  1  0  0  0  0
 13 14  2  0  0  0  0
 13 15  1  0  0  0  0
 14 19  1  0  0  0  0
 14 23  1  0  0  0  0
 15 24  1  0  0  0  0
 15 26  2  0  0  0  0
 16 23  2  0  0  0  0
 16 24  1  0  0  0  0
 16 25  1  0  0  0  0
 17 18  1  0  0  0  0
 17 19  1  0  0  0  0
 18 19  1  0  0  0  0
 20 24  1  0  0  0  0
 21 22  1  0  0  0  0
 22 27  1  0  0  0  0
  1 28  1  0  0  0  0
  2 29  1  0  0  0  0
  3 30  1  0  0  0  0
  4 31  1  0  0  0  0
  5 32  1  0  0  0  0
  6 33  1  0  0  0  0
  7 34  1  0  0  0  0
  8 35  1  0  0  0  0
 13 36  1  0  0  0  0
 17 37  1  0  0  0  0
 17 38  1  0  0  0  0
 18 39  1  0  0  0  0
 19 40  1  0  0  0  0
 20 41  1  0  0  0  0
 20 42  1  0  0  0  0
 20 43  1  0  0  0  0
 21 44  1  0  0  0  0
 21 45  1  0  0  0  0
 22 46  1  0  0  0  0
 22 47  1  0  0  0  0
 25 48  1  0  0  0  0
 25 49  1  0  0  0  0
 27 50  1  0  0  0  0
M  END
> <OMEGA_C>
0aG7QLsck8DNkp/BhdLBQNQEWMDg76TBsO/QQJ0iNL8bxK7BCquKQEAI2rxkLKjB857TQLDS+T5N
r7TBtT+NQEL7kj8nMK7BT1qbQFvqlsBKzZfBbV2JQNxsF8CcLJrBHYGsQIWZeL8DXKjBTouoQAmY
D8CCT6LBiAiyQPBetj9rQLTBhICBQGK+ZsBFTpXBvMDdQNoIbkBdZ6HBZny4QMKreUAOIafBmeTa
QCOtX0Bq3pXBTryNQH7HZkC2oJfB9tvfQJfAYUB35bnB9kG1QCC4L0DgBrrB7EC5QDFogEBxQ7PB
IfWtQIf2TEBueIXBXGE5QJR2b8CUhY3B5HpaQHJBecB9E4LB4oyQQHipd0Cp9qHBVlmyQFnUWEAI
MJHBEudJQB4nYkAHN5PBhOT7QOIFWUCmopDBCA2GQFlhMMBvVX7BtrbPQFU9rsBtbqHBFvbZQPUa
U8DwFqvBJsbqQIa4tb+hGa/BJFddQB01Xr6xV6PBjG/vQCVjLz9mkLnB/r1lQJhM7D+dLK7BbmGW
QCEJtcB7wJPBLt1uQDWYv784r5fBjXX8QOZ/b0BGXaXBUhP8QFa3RkA13bXB9hzqQJLggkDHAsHB
+j2iQPvYNUB/ZMHB7tSoQF6lnECbirbB8teLQMgDSUC5W4PBQCq+QNGCEUApEIPB9p28QGnHgUBx
S4HBtOEQQN8CNsC0Ao7BEVQTQIQZlMDJpY/BzNojQJRDf8DiJnnBTECBQBaCmcBmi4HB8kMeQBf6
bECR6JjBArlAQH/sJ0CFGZDB7zKQQLP8NsDlGXDBCb6+QKvHk8AEqJ/BY7/CQPb5WMChCaXBRQrQ
QJ2qN7/Tk67BKNaJQKDdQr2/7KfBMd/SQJqj9D5BabTBLaCMQOCqkT953K3BddueQAVCmcD74ZfB
jeiHQOjKHsBji5rBk3CrQGoWgL/IQ6jB6banQKDzEsCCdKLBCGexQPUytT839rPBTa2CQDLZbsC8
kpXBocndQGBNb0BsXqHBIpK4QDfYekBbHafBpdzaQH6BYUAC1JXBPraNQAS+aUAem5fBV9rfQAD5
X0Ax0bnBgem0QNvXLkC71rnBJHG5QGBTgEAGPrPBAbOtQInsTUCAeYXBmdI7QNR0fMCWAY7BwdNK
QMDbSsC/qYPBYpCQQDxueECP/aHBQlmyQPIFYECzDpHBws1JQGJQY0BvPZPBsMn7QNKBV0BmppDB
OhYCQNxJVsCQDHrBUkHUQDnKrcD3gqHBPavaQJnKUcBaNavBZwDqQDPwtr+85a7Bv9pbQLKpcr4+
D6PBj8fuQH16LT8MQLnBy9ZkQPnF6z+vwK3Bn/WbQDxVt8A3sJPBsPtmQCj1078oTpjBzoP8QExv
cEArUqXB6O77QM/RRED3vLXBTkfqQBlugUCiAMHBpO2hQKeQNED4NsHBnlOpQESLnEDzn7bBK5+L
QLKhT0DGR4PBeNi6QIwuDkDtsoPB6jC/QLKFfkDZ2IDBRVgAQP3tZcB8x5HB1yc2QFqJoMCCK4zB
FB+CQIhqY8A5M3/BfG1TQM55BsALdYXBBiUeQAZRa0DaAJnBxXNCQEiKKUBL7I/BJf0JQDXkN8C9
CG3BAum3QEu8lMD2yaDBOhq7QM6QXMBwkqbBnknOQNxkQL95Za/BL36JQGDB+rw5I6jBztTRQAhH
6z7uBLXBkauMQG7QlD/y9q3BNeKgQDjtlcAuJJfBUmmPQLSDFMAfIJnBMzmqQLJxgL+G1qjBwrCm
QGduEcCW0KLBcEWxQI2wtj9AMbTBIn6NQAjlYMBMLZPBRAPeQBblbUBVPqHBo/C4QHtrekAVBKfB
m8XaQDXRXkAFu5XBvLCNQJNLZ0DPnZfBXG7gQGnRYEBUtbnBd1G1QFNgMEDu4rnBUP+5QPazgEBX
IrPBBUitQApFS0ClcYXB/stsQOzbYsC/jIjBmQMRQCengcAI+onBr9+QQFn3eEDw66HBTBCyQFo6
WEDIIZHB64VJQOb8YkDLSJPBBJf7QJEfV0DWcpDBOVLCPz7ISMD0WpDBnyrHQO9escCww6PBGzvN
QMbFWsCu7K3BoDXnQPVYv78OFLDBgPpbQCqaVL7iGaPBA4DtQMHwJT+t+LnBGt9lQAv58D/Mra3B
1wueQHeVs8Aww5LBuRV+QM4fuL8oR5bBytT8QK8yb0BwJqXBdEz8QKHBREBaorXBQy3rQKkrgkCp
0MDBOo6iQPtVN0D2R8HBHTCqQJk7nUBZcbbBRxeLQMO4R0AjZoPBiCe9QA9LD0D8GYPBpw+8QK+W
gEAaKIHBIZeHQEfYhsB+C4PBNy5rQObZIcCgLYXB0VASQMITocBB8I3B7frkP+O+hMCsFYLBMVAe
QBejbkDYAJnBQ64/QCyWKECPQJDBQH4hP7pwXcDRMZHBpM63QGcdksBQB6DBkrO6QHS8WcAeSabB
6tnOQA5SOL/fVK/B0baIQEAOF7wRy6jBqu/SQBQ8+j5Y8bTBRomMQNgvlz+dkK7BEtugQD5xkcBO
WpbBCfONQJTHDcCnaJnB1M2pQAzheL9BJ6nBiNGlQJ7oDcCi+KLBA/mxQD5FuT/MbrTBUxGMQN4m
V8Cs/ZLBXxLeQPKQbUCjMKHBbw65QBqpeUAu/qbBUsfaQPDgXUDVspXBerGNQCapZUCOnJfB72Dh
QAwBYkBCn7nBBly2QN6YMUBUBrrBv4q6QEzjgEDjHLPBsEqtQJTUSUAebYXBuQxrQBCuUcBwRYjB
ryYZQKCZg8DgLojBFOWQQGZXd0CJ7KHBRxKyQK7UVkCWHZHBT4xJQP5BYUD5RJPB7pj7QJK/VUCZ
bZDB45suQD7Ur8BnfIjBBTLHQFw7r8DupaLBGOPMQLhfWsDdoa3BdQXoQJGsur8zu6/BtuFYQGS2
Rr6zDKTBI0XvQCTzLj9to7nBpmJlQIH38j8mha7B7xqfQCjsrcBeepHBD/h5QLVkqb/hApfBWPD8
QDamb0A4EaXBqQv9QE+IRUDVgbXBBHrsQAwtg0ARocDBb/ajQPI4OUBnd8HBU+GqQJmXnUDhXrbB
MxuLQDDjRUAyY4PBBVW9QOsKDkBkFIPB5+a7QCHqf0AsI4HB4iuLQKhhacAF/4HB75xaQI54DsCC
pYbB31/pP+GBecBJ2oDByh3kP37/dsBBN4/BqEgeQJjabEDP+5jBycs/QJzYJkBfPJDB0mr3P1R0
wMBfbojByYe7QAdGksCznZ/BcqzCQAnwVcAbyaTBLcnRQGkvLb/EpK7BJiWLQAC9Z7yOL6jBlzLU
QPciAj91pLTBBnONQHKnkz+RSK7Be6OaQEIClsDUAZjBZcOKQCddFMAX7JnBImGtQPO6cb8EPqjB
y7SpQAxDDcCSHKLBQ02yQLKktz+/TbTBAuKBQHXLY8ABO5XBm4LdQHUTbUA+aaHBtki4QIlveUBo
IafBrKDaQHZQXkDV4pXBDICNQI/rZkDEn5fB6MzfQAXFYkAv67nBHli1QJBNMEBTErrB8hu5QNKY
gECPQ7PB9KytQF0HTUCvdoXBW6w5QM3OasAWdI3BDtVZQK14csAL8oHBo1WQQLmod0Dp9qHBxxSy
QIGVWEC2L5HBYXNJQNjEYkD2MpPB1537QFY+VkAQrpDBilWDQHCQoMCwq4DBflHPQKuYrcDlfaHB
OUjbQIviUMCo0arBGM3rQI9+sb9w6a7ByipeQFAoV752ZKPBiAXwQAtvNT+TgrnBZKZlQHfI6z+e
Xq7BoEuUQGuJtMDSR5TBnZtzQHEWuL9lQZfBpDf8QMFHbkBmX6XBVRj8QBfmR0BO57XBUPLpQPOP
g0DJA8HBGkqiQO1mNkBsbsHBdYeoQNrOnEDIgbbB4IyLQNL9SUDhVoPBb4O9QPw0EUCyC4PBtrS8
QC6ogUClToHBqmERQNdZMcCEJ47BlpITQFjqkcD0cI/BgI2CQJrNPMDFKYDBDwwjQIjRcMB22HjB
qtEdQBnCbUBo45jBsP4/QIafKECLEpDB2VCNQBjrosBJCHPBLOl6QP2HjsDCZ5vBZuR+QEciTcDq
k6DBibCLQHHUu75OcafBFtbLQICejr8y3rDBc3qOQPqdXz8YrKzBQxrPQPxaDT5a4LXBLB6jQKxB
psAhn5nBcarMQLPYXMDFXaLBrUeqQBg0sL8FhKnBH0KnQMZYLMDXF6TBbbqwQCMTkj87tLPBLRjL
QClClsDuCZ3Bb7jdQE7Ka0CkBKHB/li4QFencEDm3qbBL93aQOehaUCEUJXBnIiNQFbGbkCxO5fB
aBzfQHlqTkCMaLnB+tKzQCZqHkBLYLnB1dW4QIxOcUANAbPBjmetQHTpaUD0xoTBR2zzQK3LsMCU
+5rBRvMOQeJKm8BZfJ7BYGyQQMkRc0BIwaHBsCSyQPqeaECRlZDB+U9JQAyVcEBh0JLBuNv7QDMk
aEAiAJDBzpcSQQeZaMCZwJjBPvI9QIoJm8AfzJjBOgtFQKC8KMD+3aHB0zZkQCvODL9E0qHB8grj
QIgg8b/cn7LBi5NsQKgT0D+CTavB+PDoQLDsqT6QZrvBbGahQHvWxMCsnpXBLQzrQPSsRMAgKqXB
q2v8QL2eaUAG+qTBr+L6QLA5M0BQNLXBTPrpQKC4b0B2q8DBTTGhQPL7I0BQz8DBRkWpQJ+llEBq
p7bBBzmLQBTUaEAjroLBPU+9QC94MUCgVYHBoC28QKsykkAnj4HBw1r1QIBOt8AbWZLBHETwQF0r
z8ANXJ/BK0ccQfJqscCq7JzB3SwOQT03lMDrGKfBoeQdQM8XdUAKqpjB8kc/QJfZOkAap47Buqwf
QZKzT8CHDZvBZ6x3QBD1jcBbw5vBYw18QHckS8AiuqDB+dyHQG9AV7/Qqa/B9KDOQNgTCL/ty6fB
Xt+LQONOyz7D6rTBgKTSQFW4Mj/KEa3BiXehQOy4pcBQ8JnBXJTLQIKTWMBAzqHBPV+pQPDlqL+z
GKnBURemQMvvKMAbyaPBclixQIzXlT8QurPBQqrJQHwtlcCRBJ3B2M3dQM9wbkBmGaHBolW4QEaZ
cUDN8KbBAhXbQMnea0DQZJXBErSNQKecb0CLRpfBG9DeQJyCVEDhsrnBGki0QNVzIEA5jLnBMrG4
QIdUc0CsE7PBisCtQPjMakBf1ITBEfLxQA3Sr8A0+ZrBJQ0OQeHdm8BhOJ/B2GiQQNbvcECt0aHB
DneyQIspb0CtoJDBAMBJQB/ybkBu0pLB4hr8QD8eaEB5G5DBUncNQVOllsD6mKrBfHQ6QHXDmsCa
WJnB2yZCQDFHJ8A1M6LB4jdWQM6ttr8ZprDBii7oQNuYYb88sqLBcjBkQAwHQj9C5bnBvU3vQCXY
pD9TC6zBMYufQL3AxMBbKpbBeEjqQGEUPsDO/KPBJX78QBzgbUBqEqXBEnn7QG4vO0BFsLXBt17o
QPmFd0Ag88DBe/agQCyiJUAa4MDBaLKnQBcclUDwlbbBpaOLQKxbbkCatILBhzK7QLIfLkD35IHB
te++QIpXkECpI4HB/zX1QO9JtMBsSJLBUantQH0hz8Bp2Z7BCGAQQQ/CeMBSdpvBxn0bQUH5sMAU
HZ3BOgoeQAyeb0A7qpjB9FdCQAUfOkC9Zo7BYosaQdJlisAI+KzBanl9QLaslsADIKDBhaOBQB4Q
XcDBL6XBb4WFQEO2D7/TTavB6eDSQI6bW79TsqzBAwqJQCtyLz/zc7DBplDWQM2BxT6l1bHBqh6h
QCUVpsDj8ZnBQX3JQLtWSsD/4J3BK3iqQFJFrL9KZanB/hGnQBe6KsCKFaTBa2yxQHAhlT9FuLPB
6cfGQOmGjcB55ZjBRpjdQINYbED3EaHB3hy4QBsncECy5qbBc+naQMYWakA6XZXBQoeNQDhJbkCY
O5fB/OfeQNU9U0A6krnB7Vq0QPPeH0BEfbnBMXO4QOF7ckDEBrPB1qetQI0Ha0BhyoTBRZPrQLl2
ncAzBJLBZIHmQG7TjsDMS4bBLTmQQDgvcUAlxaHBrUGyQBE3aUAhmpDBCnhJQO6AcEAExZLBUPv7
QHPFaEC/E5DBCePmQOBjQsCTiIXBBytEQLKwqcDg+6DBPWpOQKPCRcAe7qnB3QhNQFnaa78+zKjB
DEbvQDQkub+RQKvBfm5ZQEZwoz966LHBxUj1QL5OPz9HWrTBFameQGe8xMCOAJbBpxfmQNZBJMAX
9JzBi0L8QJoOa0A2DaXB+Vz7QDm2OUDVfbXBW83oQAEOdkAMz8DBgFGhQIoBJUAM3cDB3LCnQJTT
lECoibbB0H+LQAL6aUDqqoLBxaC9QNjFMkDpUYHBe3C8QLHXkkDtn4HBc0XsQFakwMDRRZLBd+cE
QZ3AkMBcNpXBePXHQIHzmsD7JIPB0IgAQUPcm8CMh4HBotEdQE4idEBBmpjB4Lc/QGZQO0CcfY7B
ZLrjQIDiMcD3hXzBPPebQL8mpMBy9KTBCtWeQGw8ecDUUKrBKPiRQLrxjb++G7PBK+jFQKZp2r7L
nKXBqYSVQDqKHT4tAbjB6WnKQENHTz8ptarBlX+fQGjspcDytpnBeXCpQG2ZMcA6OpnBCs+pQPBF
s795y6nBa9SlQA9lLcApbqTBkYqxQFF5kD/7zbPBBJ2lQPMJgMDZvJPBj+XdQMApdEDk86DBvYe4
QHo/dEDe3KbBsg3bQCedbkD/R5XBWLGNQPieb0CaP5fBPAngQMNHUEA4MbnB1920QI3KHkD1brnB
NIS5QHuAckCZArPBUI+tQH2IaUDyxoTB8IOqQLF4gsDwlYfBni+XQD8tN8CZlIHBx4eQQNiVcUAG
y6HBCVyyQL+Vb0Aaj5DBd6RJQPDXbUCU1JLB8wX8QHSVaUBi/Y/BaXixQGhG2b/tk4LBpwuXQGg2
wcBYd6nB5a6bQA6fdsDh6bLB4vR5QGWb7b+yerbB0v7XQKA1I79Kcp7BEK2CQKC8wT5xBb/BbCPh
QEKywz+1qafBN4WdQMNfxMCQqJXBoD+vQGtQ778Av5TB1qL8QAseeEDU3qTBVZb7QCCWNUBU2bTB
BlfrQFjgcUAHZMDBLs6iQMJrJEAw9MDB5/mpQDL0lEBkzbbBgWSLQPlea0ByrILBSp27QN4TLUB2
84HBwx++QJjUj0Cu94DBYmqaQBKmn8BiwITBC9XMQGZKhMAqroXBpsluQAAtKcCP7YTBywaUQLtk
R8B0G3LBZRQeQJlfbkDUsJjB6q5CQGyzOEBMdY7BCa2kQDy/eb8KoH3B

> <OMEGA_E>
jPGRPiwVlT5U9pY+yLKYPvAqkT5owww/WIQTP3DOFT/uYxs/

> <OMEGA_NBR>
    130830

$$$$
50219804
  -OEChem-04172616093D

 49 51  0     0  0  0  0  0  0999 V2000
    5.5314   -4.6727  -20.1661 C   0  0  0  0  0  0  0  0  0  0  0  0
    5.6080   -3.4919  -20.9263 C   0  0  0  0  0  0  0  0  0  0  0  0
    6.5403   -0.8242  -21.8413 C   0  0  0  0  0  0  0  0  0  0  0  0
    4.3680    0.0162  -21.1084 C   0  0  0  0  0  0  0  0  0  0  0  0
    6.7995    0.3914  -22.4832 C   0  0  0  0  0  0  0  0  0  0  0  0
    4.6056    1.2147  -21.8087 C   0  0  0  0  0  0  0  0  0  0  0  0
    5.0557   -4.6217  -18.8454 C   0  0  0  0  0  0  0  0  0  0  0  0
    4.6132   -2.2316  -19.0912 C   0  0  0  0  0  0  0  0  0  0  0  0
    5.3369   -1.0127  -21.1322 C   0  0  0  0  0  0  0  0  0  0  0  0
    5.1374   -2.2674  -20.3951 C   0  0  0  0  0  0  0  0  0  0  0  0
    5.8566    1.4335  -22.4416 C   0  0  0  0  0  0  0  0  0  0  0  0
    4.6495   -3.3900  -18.2986 C   0  0  0  0  0  0  0  0  0  0  0  0
    6.8768    3.6734  -20.2213 C   0  0  0  0  0  0  0  0  0  0  0  0
    5.7010    3.9192  -20.8992 C   0  0  0  0  0  0  0  0  0  0  0  0
    6.8096    3.4365  -18.7742 C   0  0  0  0  0  0  0  0  0  0  0  0
    4.3995    3.6553  -18.9394 C   0  0  0  0  0  0  0  0  0  0  0  0
    1.7969   -4.0888  -17.3694 C   0  0  0  0  0  0  0  0  0  0  0  0
    5.4209    3.1589  -16.7024 C   0  0  0  0  0  0  0  0  0  0  0  0
    6.2276    2.7549  -23.1134 C   0  0  0  0  0  0  0  0  0  0  0  0
    5.6743    4.0190  -22.4132 C   0  0  0  0  0  0  0  0  0  0  0  0
    2.5083   -2.9501  -16.6252 C   0  0  0  0  0  0  0  0  0  0  0  0
    4.4690    3.9142  -20.2294 N   0  0  0  0  0  0  0  0  0  0  0  0
    5.5540    3.4503  -18.1497 N   0  0  0  0  0  0  0  0  0  0  0  0
    3.1310    3.5761  -18.3763 N   0  0  0  0  0  0  0  0  0  0  0  0
    7.8428    3.2283  -18.1485 O   0  0  0  0  0  0  0  0  0  0  0  0
    4.2980   -3.2684  -16.5991 S   0  0  0  0  0  0  0  0  0  0  0  0
    5.8372   -5.6151  -20.5961 H   0  0  0  0  0  0  0  0  0  0  0  0
    6.0281   -3.5197  -21.9209 H   0  0  0  0  0  0  0  0  0  0  0  0
    7.2662   -1.6224  -21.8893 H   0  0  0  0  0  0  0  0  0  0  0  0
    3.4497   -0.1162  -20.5557 H   0  0  0  0  0  0  0  0  0  0  0  0
    7.7298    0.5303  -23.0141 H   0  0  0  0  0  0  0  0  0  0  0  0
    3.8343    1.9686  -21.8642 H   0  0  0  0  0  0  0  0  0  0  0  0
    5.0020   -5.5228  -18.2526 H   0  0  0  0  0  0  0  0  0  0  0  0
    4.1856   -1.3195  -18.7019 H   0  0  0  0  0  0  0  0  0  0  0  0
    7.8229    3.6558  -20.7419 H   0  0  0  0  0  0  0  0  0  0  0  0
    0.7140   -3.8967  -17.3854 H   0  0  0  0  0  0  0  0  0  0  0  0
    2.1746   -4.1447  -18.4010 H   0  0  0  0  0  0  0  0  0  0  0  0
    1.9927   -5.0413  -16.8552 H   0  0  0  0  0  0  0  0  0  0  0  0
    4.3619    3.2206  -16.4113 H   0  0  0  0  0  0  0  0  0  0  0  0
    5.7994    2.1469  -16.4960 H   0  0  0  0  0  0  0  0  0  0  0  0
    6.0029    3.8928  -16.1257 H   0  0  0  0  0  0  0  0  0  0  0  0
    7.3247    2.8300  -23.1374 H   0  0  0  0  0  0  0  0  0  0  0  0
    5.8388    2.7363  -24.1422 H   0  0  0  0  0  0  0  0  0  0  0  0
    4.6338    4.1712  -22.7360 H   0  0  0  0  0  0  0  0  0  0  0  0
    6.2830    4.8831  -22.7181 H   0  0  0  0  0  0  0  0  0  0  0  0
    2.3127   -1.9976  -17.1394 H   0  0  0  0  0  0  0  0  0  0  0  0
    2.1308   -2.8942  -15.5936 H   0  0  0  0  0  0  0  0  0  0  0  0
    2.4416    3.7377  -19.0825 H   0  0  0  0  0  0  0  0  0  0  0  0
    2.9975    2.6668  -17.9822 H   0  0  0  0  0  0  0  0  0  0  0  0
  1  2  1  0  0  0  0
  1  7  2  0  0  0  0
  2 10  2  0  0  0  0
  3  5  2  0  0  0  0
  3  9  1  0  0  0  0
  4  6  1  0  0  0  0
  4  9  2  0  0  0  0
  5 11  1  0  0  0  0
  6 11  2  0  0  0  0
  7 12  1  0  0  0  0
  8 10  1  0  0  0  0
  8 12  2  0  0  0  0
  9 10  1  0  0  0  0
 11 19  1  0  0  0  0
 12 26  1  0  0  0  0
 13 14  2  0  0  0  0
 13 15  1  0  0  0  0
 14 20  1  0  0  0  0
 14 22  1  0  0  0  0
 15 23  1  0  0  0  0
 15 25  2  0  0  0  0
 16 22  2  0  0  0  0
 16 23  1  0  0  0  0
 16 24  1  0  0  0  0
 17 21  1  0  0  0  0
 18 23  1  0  0  0  0
 19 20  1  0  0  0  0
 21 26  1  0  0  0  0
  1 27  1  0  0  0  0
  2 28  1  0  0  0  0
  3 29  1  0  0  0  0
  4 30  1  0  0  0  0
  5 31  1  0  0  0  0
  6 32  1  0  0  0  0
  7 33  1  0  0  0  0
  8 34  1  0  0  0  0
 13 35  1  0  0  0  0
 17 36  1  0  0  0  0
 17 37  1  0  0  0  0
 17 38  1  0  0  0  0
 18 39  1  0  0  0  0
 18 40  1  0  0  0  0
 18 41  1  0  0  0  0
 19 42  1  0  0  0  0
 19 43  1  0  0  0  0
 20 44  1  0  0  0  0
 20 45  1  0  0  0  0
 21 46  1  0  0  0  0
 21 47  1  0  0  0  0
 24 48  1  0  0  0  0
 24 49  1  0  0  0  0
M  END
> <OMEGA_C>
cgGxQAGHlcAiVKHBpnSzQDF7X8AmaafBUkrRQNn8Ur8Ku67BqMaLQECKhDwS3qjB1pXZQHZnyD6o
3bPBVmGTQCR6mz9MeK7BmsihQJXkk8BSw5bBip+TQIfSDsDcupjBjMeqQLqggb/XDqnBwmWkQCwd
EcAuKaPBBmm7QBB9tz9siLPBDMmUQI32WMCaY5LBAA/cQKgZa0A9xaHBZG62QKPUekCeMafB/OfZ
QB3vW0CIMZbBcMiMQJ3waUDSg5fBEALmP0HXgsCC9IrBtHetQPcqSkCNnoXBPkjHQLRQMEBF6LjB
PJS1QKSbgEA+TrPBY4ggQDTPPMB3AIXB5AGPQPqBekDH1aHBPrqxQHDSXECGMpHBH2JIQE/fZEC8
ApPBkPj6QIucTkAxMJHBNomJQB0tUcANy4TBPsq6QLmus8C/xKTBg+bAQDxDYcD1Xa/BnIToQL2r
z79YHa/BGsdcQAjp7b0PcqTBPVr3QNnBBz/RHLjBQ2V1QEv6+z/Z6a7BRRCgQOa6sMBBBZLBTvCF
QAzlqL+CnZXBH1X6QHz4aUB/76XBC8Y2P0NjecBmFYvB+iwLQBOhhMBCNZPBfg//PylSocBe14bB
dpSLQJ0dTkBkSoPBlJS5QKNmCUDN94PBlxfAQDMjeUBcAYHBTmTqQFUeNUBLGbnBVte6QFUfL0BT
I8HBfEiUQLt6hUBQ47XBMg7JQAtCnECmvrXB9wMUQP2w/7+BHYnBu14IQKo6OcA7f3nB8UMcQIQ2
b0ACqZjBS9c/QN6sKkCk24/B34zHQHLYj8BRgp/B8PnJQD04TcCG/KPBsZLKQEDxDL9glq7Bf1uG
QGCeAb30D6bBTAvIQEB5JT/VcbTB/36DQFnBkT9WGqzBtG2kQDhKm8CGI5nBk4yHQCm6JsAHCZvB
eoWpQKRMar8IWqfBr92pQPU1D8Cv0aHBnEGkQHxLvj/jSLPB1PSDQDeUesAuN5fBmpPfQFa8aEBj
JqHBICy7QPIidEAkLafBGlfbQNvOXUBIl5XBDXeOQHvHZ0CR4ZfBl7pSQOFsN8CSO3/B0omsQBXT
TkDmdYXB7l6iQD7cNECp7bjBRR+/QEfBd0AAU7PBCN1IQHKcisDD9ILBy5aSQGC/dkALQaLBhECy
QAdCWUA4K5HBQHlKQGl7ZUAqr5PBbbP7QHuxVkBdIJDBnNQpQKQnjcBa7ZDBBMfgQOG4psAB+6DB
LYfkQIzePMAiIKnB4OflQJeDmb/SmK/BXR1bQA7hiL4TWaDBsZThQKjAaz8Q1rnBwNlPQN394z+n
QKvBFmeiQHH+usCvvJXBSuRfQD4V778+ypjB/Lb+QJjhZ0CV5aTBKoxlQHAlNMAAS27BZh+CQADW
GMAnkYTBi3kVQHToFcA7vYDBcC+KQPibTEDVj4PBS9O7QDLuEkAv24LBzWC7QPeYgkBjR4HBFUat
QJa+LEDeO8HBRB+BQCr5S0C15rjB3sK1QB4AnEC1DrbBFqLgQFOIa0DJirXBaw2DQBNjm8Cu1oHB
lFUXQE3smcCDBXzBUhIgQMUlcEC8hpnBD5s/QKr+K0DzcJDBuOqTQOCepsBmtabBnZuSQNvrecBx
+6rBDgSBQF2zhL8zmLDB/p/CQMJtCr8Uy6bBzjWBQOz5hz4637TB9oHDQK9LPT+kUqvBuF+kQJ6S
rcB8XJzBTY+yQKFfQsBDjZrBUZqhQFbeuL9acanB0QWiQGjeM8Bp7qTB8TyiQB+rlT/INLLBkpKz
QP3RisA3Q5bBRIThQMvkd0A8BaDBf7G9QCgFbkBMW6bBCvTbQLnufUBXZJTB73yPQJirbUAeVpfB
++BoQOypf8CiVoLBqpWqQAwogECTjoTB4tChQHEYJECdPbfB9n3CQPyAZECva7LBNFyjQLJuY8Ah
DYHB6q+UQOQbakA/zaHBKnSyQP1pdkC8MZDBBY5LQGSvaEDDfJPBIWz7QP5GhEDzrI7BHznHQNJX
k8D/PYnBMUmIQBNLwcDDXqvB/82FQFBxb8Bb5rLBXdNPQPoN3b9ax7LB4FfbQEySVr9SPqHBvuVP
QLs2Ez8nObrBpMndQEvXsz94janBElilQJGPzcCAGZnBB3m+QAlCDcDO5JXBLIIAQVMce0BIjaPB
OYg/QLGwVsAtx3rBMehVQGDXecATyIrBWiRiQGxTocBhiH/BBUCIQNcweECQ54LBv+K8QPedT0Bm
JYDB+8q0QAQ9oED0/IHBJN+oQMEtHUCR0b/B3IyBQFMMP0DPOrbBoIq9QIa1kUCkK7bBkw3jQAnG
TUCsLrTBkH2mQAdbIMAbm4PBpZusQH8qacByLnHBl/QiQM/mYkAVoZnB+/1FQInDNUD/sI7B

> <OMEGA_E>
EA9rPkg+iz74zjk/

> <OMEGA_NBR>
    133617

$$$$
50145456
  -OEChem-04172616093D

 32 33  0     1  0  0  0  0  0999 V2000
    6.1882   -1.9742  -21.2897 C   0  0  0  0  0  0  0  0  0  0  0  0
    5.1577   -1.4401  -20.4931 C   0  0  0  0  0  0  0  0  0  0  0  0
    6.9219   -1.1316  -22.1451 C   0  0  0  0  0  0  0  0  0  0  0  0
    4.8635   -0.0619  -20.5457 C   0  0  0  0  0  0  0  0  0  0  0  0
    6.6325    0.2449  -22.1993 C   0  0  0  0  0  0  0  0  0  0  0  0
    5.6018    0.8016  -21.4011 C   0  0  0  0  0  0  0  0  0  0  0  0
    6.6761    2.9655  -19.4097 C   0  0  0  0  0  0  0  0  0  0  0  0
    4.2486    3.0097  -19.3467 C   0  0  0  0  0  0  0  0  0  0  0  0
    6.5970    3.0956  -20.9337 C   0  0  0  0  0  0  0  0  0  0  0  0
    5.3486    2.3282  -21.4469 C   0  0  1  0  0  0  0  0  0  0  0  0
    5.0480    2.7731  -22.8961 C   0  0  0  0  0  0  0  0  0  0  0  0
    5.5238    3.0634  -17.1884 C   0  0  0  0  0  0  0  0  0  0  0  0
    5.4863    2.9758  -18.6666 N   0  0  0  0  0  0  0  0  0  0  0  0
    4.1646    2.7370  -20.6320 N   0  3  0  0  0  0  0  0  0  0  0  0
    3.0685    3.2894  -18.6686 N   0  0  0  0  0  0  0  0  0  0  0  0
    7.7740    3.0007  -18.8651 O   0  0  0  0  0  0  0  0  0  0  0  0
    6.4153   -3.0291  -21.2444 H   0  0  0  0  0  0  0  0  0  0  0  0
    4.5910   -2.0874  -19.8402 H   0  0  0  0  0  0  0  0  0  0  0  0
    7.7084   -1.5417  -22.7612 H   0  0  0  0  0  0  0  0  0  0  0  0
    4.0715    0.3408  -19.9316 H   0  0  0  0  0  0  0  0  0  0  0  0
    7.2026    0.8845  -22.8569 H   0  0  0  0  0  0  0  0  0  0  0  0
    6.5150    4.1575  -21.2087 H   0  0  0  0  0  0  0  0  0  0  0  0
    7.5037    2.6685  -21.3870 H   0  0  0  0  0  0  0  0  0  0  0  0
    4.8698    3.8583  -22.9175 H   0  0  0  0  0  0  0  0  0  0  0  0
    5.9062    2.5298  -23.5397 H   0  0  0  0  0  0  0  0  0  0  0  0
    4.1540    2.2475  -23.2629 H   0  0  0  0  0  0  0  0  0  0  0  0
    4.4970    3.0577  -16.7941 H   0  0  0  0  0  0  0  0  0  0  0  0
    6.0765    2.2024  -16.7841 H   0  0  0  0  0  0  0  0  0  0  0  0
    6.0263    3.9950  -16.8891 H   0  0  0  0  0  0  0  0  0  0  0  0
    3.2735    2.8061  -21.0805 H   0  0  0  0  0  0  0  0  0  0  0  0
    2.1963    3.2788  -19.1575 H   0  0  0  0  0  0  0  0  0  0  0  0
    3.0915    3.5012  -17.6915 H   0  0  0  0  0  0  0  0  0  0  0  0
  1  2  1  0  0  0  0
  1  3  2  0  0  0  0
  2  4  2  0  0  0  0
  3  5  1  0  0  0  0
  4  6  1  0  0  0  0
  5  6  2  0  0  0  0
  6 10  1  0  0  0  0
  7  9  1  0  0  0  0
  7 13  1  0  0  0  0
  7 16  2  0  0  0  0
  8 13  1  0  0  0  0
  8 14  2  0  0  0  0
  8 15  1  0  0  0  0
  9 10  1  0  0  0  0
 10 11  1  0  0  0  0
 10 14  1  0  0  0  0
 12 13  1  0  0  0  0
  1 17  1  0  0  0  0
  2 18  1  0  0  0  0
  3 19  1  0  0  0  0
  4 20  1  0  0  0  0
  5 21  1  0  0  0  0
  9 22  1  0  0  0  0
  9 23  1  0  0  0  0
 11 24  1  0  0  0  0
 11 25  1  0  0  0  0
 11 26  1  0  0  0  0
 12 27  1  0  0  0  0
 12 28  1  0  0  0  0
 12 29  1  0  0  0  0
 14 30  1  0  0  0  0
 15 31  1  0  0  0  0
 15 32  1  0  0  0  0
M  CHG  1  14   1
M  END
> <OMEGA_C>
pQXGQEqz/L9VUarBmwulQPlVuL/48aPBGIDdQLLXkL9AKbHBhKGbQEC4fb2GXaTBxz3UQMi/ej48
mLHBMEKzQDgzTT+NNavBbaLVQFzLPUD7RpvBSvSHQHKfQEAQxprB9xrTQGQeRkAzeKfBEiirQLAA
FUBHk6vBHImhQD56MUA1K7fBS8OwQBwOREDkgYnB7o+vQARzPkAzVZXBe0SFQPoqL0BQDqXBzWJE
QG6FUkA4WZXBQMT4QJgLQEC+65bBYErNQKDcQcBu9KnBeumSQDuYBcDLuJ7Bbqv2QN9Wxb/4FrbB
7UmCQMB+rj4EdJ/Bw3vmQABsYj/d2rbB43rQQGgKhUBTq6nBXx7wQPnHKkCaGKvBBdWbQAfvdkAT
V7fBvP+8QHzoIUBcUbzBce2EQCLXD0BdGrrBMOePQOixQ0BEWobBU3LCQO70DEDqRYbBsdfAQKKt
f0DYHIfBQ4FRQMiXM0DhpKjBCZAMQBHYUUCfQpnB7tpFQHoUYEBCiI3B

> <OMEGA_E>
5EoePw==

> <OMEGA_NBR>
       843

$$$$
50145430
  -OEChem-04172616093D

 46 48  0     1  0  0  0  0  0999 V2000
    7.0155   -1.0258  -22.2940 C   0  0  0  0  0  0  0  0  0  0  0  0
    4.9884   -4.3376  -18.0582 C   0  0  0  0  0  0  0  0  0  0  0  0
    6.4079   -1.9125  -21.3933 C   0  0  0  0  0  0  0  0  0  0  0  0
    5.5582   -3.4644  -18.9998 C   0  0  0  0  0  0  0  0  0  0  0  0
    6.6387    0.3255  -22.3127 C   0  0  0  0  0  0  0  0  0  0  0  0
    3.6647   -4.1441  -17.6253 C   0  0  0  0  0  0  0  0  0  0  0  0
    5.0325   -0.0893  -20.5260 C   0  0  0  0  0  0  0  0  0  0  0  0
    3.4710   -2.2042  -19.0916 C   0  0  0  0  0  0  0  0  0  0  0  0
    5.4146   -1.4529  -20.4991 C   0  0  0  0  0  0  0  0  0  0  0  0
    4.8045   -2.3879  -19.5241 C   0  0  0  0  0  0  0  0  0  0  0  0
    5.6390    0.8122  -21.4369 C   0  0  0  0  0  0  0  0  0  0  0  0
    2.8969   -3.0640  -18.1356 C   0  0  0  0  0  0  0  0  0  0  0  0
    6.6581    2.9580  -19.4289 C   0  0  0  0  0  0  0  0  0  0  0  0
    4.2362    2.9815  -19.3140 C   0  0  0  0  0  0  0  0  0  0  0  0
    6.5369    3.1216  -20.9482 C   0  0  0  0  0  0  0  0  0  0  0  0
    5.3052    2.3182  -21.4423 C   0  0  1  0  0  0  0  0  0  0  0  0
    4.9359    2.7675  -22.8745 C   0  0  0  0  0  0  0  0  0  0  0  0
    5.5556    3.0938  -17.1834 C   0  0  0  0  0  0  0  0  0  0  0  0
    1.1172   -3.4681  -16.5514 C   0  0  0  0  0  0  0  0  0  0  0  0
    5.4868    2.9658  -18.6580 N   0  0  0  0  0  0  0  0  0  0  0  0
    4.1261    2.6606  -20.5868 N   0  3  0  0  0  0  0  0  0  0  0  0
    3.0743    3.3079  -18.6259 N   0  0  0  0  0  0  0  0  0  0  0  0
    7.7691    2.9844  -18.9111 O   0  0  0  0  0  0  0  0  0  0  0  0
    1.5950   -2.7932  -17.7380 O   0  0  0  0  0  0  0  0  0  0  0  0
    7.7744   -1.3835  -22.9741 H   0  0  0  0  0  0  0  0  0  0  0  0
    5.5686   -5.1598  -17.6659 H   0  0  0  0  0  0  0  0  0  0  0  0
    6.7006   -2.9520  -21.3829 H   0  0  0  0  0  0  0  0  0  0  0  0
    6.5769   -3.6157  -19.3251 H   0  0  0  0  0  0  0  0  0  0  0  0
    7.1175    1.0030  -23.0041 H   0  0  0  0  0  0  0  0  0  0  0  0
    3.2306   -4.8189  -16.9024 H   0  0  0  0  0  0  0  0  0  0  0  0
    4.2723    0.2670  -19.8465 H   0  0  0  0  0  0  0  0  0  0  0  0
    2.8852   -1.3939  -19.4997 H   0  0  0  0  0  0  0  0  0  0  0  0
    6.4076    4.1855  -21.1961 H   0  0  0  0  0  0  0  0  0  0  0  0
    7.4465    2.7397  -21.4347 H   0  0  0  0  0  0  0  0  0  0  0  0
    4.6989    3.8417  -22.8727 H   0  0  0  0  0  0  0  0  0  0  0  0
    5.7855    2.5807  -23.5478 H   0  0  0  0  0  0  0  0  0  0  0  0
    4.0605    2.1996  -23.2225 H   0  0  0  0  0  0  0  0  0  0  0  0
    4.5381    3.0792  -16.7658 H   0  0  0  0  0  0  0  0  0  0  0  0
    6.1338    2.2546  -16.7693 H   0  0  0  0  0  0  0  0  0  0  0  0
    6.0463    4.0424  -16.9203 H   0  0  0  0  0  0  0  0  0  0  0  0
    0.0788   -3.1658  -16.3501 H   0  0  0  0  0  0  0  0  0  0  0  0
    1.1586   -4.5562  -16.7069 H   0  0  0  0  0  0  0  0  0  0  0  0
    1.7509   -3.1957  -15.6945 H   0  0  0  0  0  0  0  0  0  0  0  0
    3.2153    2.6452  -20.9992 H   0  0  0  0  0  0  0  0  0  0  0  0
    2.1929    3.2941  -19.0982 H   0  0  0  0  0  0  0  0  0  0  0  0
    3.1192    3.5566  -17.6584 H   0  0  0  0  0  0  0  0  0  0  0  0
  1  3  1  0  0  0  0
  1  5  2  0  0  0  0
  2  4  2  0  0  0  0
  2  6  1  0  0  0  0
  3  9  2  0  0  0  0
  4 10  1  0  0  0  0
  5 11  1  0  0  0  0
  6 12  2  0  0  0  0
  7  9  1  0  0  0  0
  7 11  2  0  0  0  0
  8 10  2  0  0  0  0
  8 12  1  0  0  0  0
  9 10  1  0  0  0  0
 11 16  1  0  0  0  0
 12 24  1  0  0  0  0
 13 15  1  0  0  0  0
 13 20  1  0  0  0  0
 13 23  2  0  0  0  0
 14 20  1  0  0  0  0
 14 21  2  0  0  0  0
 14 22  1  0  0  0  0
 15 16  1  0  0  0  0
 16 17  1  0  0  0  0
 16 21  1  0  0  0  0
 18 20  1  0  0  0  0
 19 24  1  0  0  0  0
  1 25  1  0  0  0  0
  2 26  1  0  0  0  0
  3 27  1  0  0  0  0
  4 28  1  0  0  0  0
  5 29  1  0  0  0  0
  6 30  1  0  0  0  0
  7 31  1  0  0  0  0
  8 32  1  0  0  0  0
 15 33  1  0  0  0  0
 15 34  1  0  0  0  0
 17 35  1  0  0  0  0
 17 36  1  0  0  0  0
 17 37  1  0  0  0  0
 18 38  1  0  0  0  0
 18 39  1  0  0  0  0
 18 40  1  0  0  0  0
 19 41  1  0  0  0  0
 19 42  1  0  0  0  0
 19 43  1  0  0  0  0
 21 44  1  0  0  0  0
 22 45  1  0  0  0  0
 22 46  1  0  0  0  0
M  CHG  1  21   1
M  END
> <OMEGA_C>
zH7gQCRMg78ZWrLBx6CfQPnNisBDd5DBnQ3NQPPM9L9yJavBIt2xQB+5XcCN/5fBCXDUQFyupj5p
gLLBXopqQEachMCZAI3BEgqhQEzgtr0uNaTBqiVeQEcRDcCHu5jBwUStQD76ub8X/qPBq76ZQKHS
GMBfMZzBWnK0QELpTz/IfqvBhmY5QC8ZRMC0FZHBWw/VQFpPPUBdbpvBOY+HQOfQPkACg5rB+i3R
QMzIR0D3lafBSsSpQDRdFEDoiavB5/KdQG8eMUDq/rbBasexQAAARkCqd4nBhf+OP870XcBNaYTB
HpSvQDPPPUCDQ5XBWQmEQMxHKkDVsaTBrMBEQGy0U0DZAZXBVZz4QM8AP0AESpfBLSrMPzLDMsBv
543BiMf4QJQXsb/lyrfBmTGyQNscpcDXU43BOGvWQDfuPMA5EKvBMnbSQDhnZ8C4mZrBzMLjQNpj
gD99CLjBQcJOQIQ0msAgOIfB7baIQMSwiD6txZ7B8aY4QNZpsr9P/5vBKQvNQNXvhUCGkanBzknu
QFJXL0BNeqvBml2WQJ/ddUA/+7bBnyK5QOIpJUDTYbzBa++BQPXFDECqx7nB7zeRQBkSRUBEIIbB
VUjEQBBMEEBvJ4bBSHvBQJNbgUDbXIfBhnWhPTCdSsALzYLBTU2UP6/MkcC0p4XBjxzgP3yGTMDQ
HHvBD8dNQE9LKUB0/qfBo1gMQBbSUkAKyZjBiqFHQNefY0BbRI3BMDDMQOCIlL/1hrXBMARYQDRA
PMCjc4zBkOK8QJRdBcAmCq7B0M1xQGSIBMAirpTBSHbKQMABWj6mRLPBoNF9QJLthsADxovBUC+s
QEAZiL4i0aHBFPmfQAxoeMArJp3BXIKqQEgm0L+3VKTBaNOUQORIIsC/3ZzBuNi7QGAcKz+MKqnB
gE6bQKpQlMB84pPBlKm8QMgQaUAieJXB3tSBQMjvbkDmN6LBLH7OQBwmGUDa+5rBAFm5QKiECUBS
M6bBmsTPQCqoQkCeqK7BqreJQAK8sUABiJTB9EDmQJqbncDRmJLBdEOXQH5ZiEAfNZnBAr+LQIY6
I0ByAqbBsJ9JQDrkj0Bb/afBbvXOQDZ9gUBbbI3BeHq7QIavsMAun5HBok7ZQPaFwL9lCL3BkPQn
QFq7KMDbvYbB3w6/QEcjScDzpa/B9zpbQJlqhr8DyZTBMlPUQANobT+CQrnBV39vQBrCm8CdHYXB
bDahQFSxjj12E5rBc/2rQHmVisCSaKTB3DLxQIsSIUC6EZzBm1jIQNduwj+S3ZXBFkzNQOIXg0Da
P6zBebLxQFmGMEDYQK/BZDfAQKDFOUCHebbBbe1XQMlwvECzZZjB7jWEQOjArUCU5YvBg+yiQAPB
yUDv0pXBBqf+QCjPtcBCsZDBSAPrQJ0dksBG1JrBoyLpQLaYgsAfAI3BCQRqQEt09z9ctqjBNJMw
QHdzhEDvxa7BNtg4QPPurECPXaXBmBi5QEiTrL9HebTBCsO1QH8ZdsCc4IrBQRC9QEkS/7+GiKrB
LY+xQD8FTsAb4pTBXVS0QJz/Sj3T/rTBExXJQNOnSsAxSoLBf2O2QCBEHz7Oj6HBXiDUQBMznL88
uI3BNxC8QDbAnr/3+aDB5qnAQLNJ87/NZ5bB3MeyQM7YUz/Lf6vB1oPYQGm767/VpYPBDrPWQL7k
QkAeApvBn36IQHY5QkACA5vB1SzWQE0xRUCsSKfBo5StQN7WF0AhxavBrTymQGvIOUCWULfBHdCv
QL41SUAafInB26jwQGqC4b9KcWLB8suvQHABSUAuYJXBShKHQBn5MEDrWaXBOzBDQAbmSkD+qpXB
/Ej5QBAMQEDVXpbBzBLsQBR9jr9bDnfBarW5QOfs9r+PwbvBDRqqQJZIm8CRxonBQuLAQE4uRMCj
M6rB/LeiQEnYb8D3cJvBnNOxQIv6CD8PsLzB0jLMQO3tacCfP3XBJb+0QJJcOj8rP5rB6r7fQBrV
Wb4C1Y7B71TWQHUehEC696nBkdnyQA13JED2VarBfb2iQFnRf0BlH7fBisXBQEqWKECtW7zBiwCJ
QFnyHEDMorrBE7yOQO9fTkC7i4bBJya+QFhkDUCjiYbBNZTCQJoBgECckYbBL0QAQZnHib/ZMVfB
V9vQQCHdAcCTOlzBWggCQe0JK8BiQmTBdrBVQKPiNECMFqnBqisMQLcQREAqqpnB0mFCQKX0V0A8
1o3B

> <OMEGA_E>
AAAAAHapcz9wFmc/

> <OMEGA_NBR>
      3517

$$$$
50145427
  -OEChem-04172616093D

 52 54  0     1  0  0  0  0  0999 V2000
    7.0196   -1.4620  -22.4712 C   0  0  0  0  0  0  0  0  0  0  0  0
    5.0884   -4.3343  -17.8923 C   0  0  0  0  0  0  0  0  0  0  0  0
    6.5236   -2.1743  -21.3690 C   0  0  0  0  0  0  0  0  0  0  0  0
    5.6235   -3.5278  -18.9086 C   0  0  0  0  0  0  0  0  0  0  0  0
    6.3496   -0.3211  -22.9256 C   0  0  0  0  0  0  0  0  0  0  0  0
    3.7683   -4.1398  -17.4567 C   0  0  0  0  0  0  0  0  0  0  0  0
    4.7390   -0.5335  -21.1002 C   0  0  0  0  0  0  0  0  0  0  0  0
    3.5013   -2.3417  -19.0831 C   0  0  0  0  0  0  0  0  0  0  0  0
    5.3839   -1.7178  -20.6576 C   0  0  0  0  0  0  0  0  0  0  0  0
    4.8353   -2.5242  -19.5271 C   0  0  0  0  0  0  0  0  0  0  0  0
    5.1853    0.1195  -22.2697 C   0  0  0  0  0  0  0  0  0  0  0  0
    2.9660   -3.1286  -18.0448 C   0  0  0  0  0  0  0  0  0  0  0  0
    6.6605    2.9154  -19.2594 C   0  0  0  0  0  0  0  0  0  0  0  0
    4.2329    3.1168  -19.3474 C   0  0  0  0  0  0  0  0  0  0  0  0
    6.6886    2.5456  -20.7411 C   0  0  0  0  0  0  0  0  0  0  0  0
    5.4779    3.1995  -21.4694 C   0  0  1  0  0  0  0  0  0  0  0  0
    5.7992    4.6959  -21.6773 C   0  0  0  0  0  0  0  0  0  0  0  0
    5.3874    3.2334  -17.1317 C   0  0  0  0  0  0  0  0  0  0  0  0
    1.1981   -3.4857  -16.4344 C   0  0  0  0  0  0  0  0  0  0  0  0
    4.4048    1.2665  -22.8611 C   0  0  0  0  0  0  0  0  0  0  0  0
    5.2070    2.5893  -22.8743 C   0  0  0  0  0  0  0  0  0  0  0  0
    5.4274    3.0338  -18.5981 N   0  0  0  0  0  0  0  0  0  0  0  0
    4.2354    3.0921  -20.6581 N   0  3  0  0  0  0  0  0  0  0  0  0
    3.0020    3.2825  -18.7243 N   0  0  0  0  0  0  0  0  0  0  0  0
    7.7227    2.9739  -18.6506 O   0  0  0  0  0  0  0  0  0  0  0  0
    1.6590   -2.8663  -17.6577 O   0  0  0  0  0  0  0  0  0  0  0  0
    7.9185   -1.7945  -22.9689 H   0  0  0  0  0  0  0  0  0  0  0  0
    5.6946   -5.1074  -17.4436 H   0  0  0  0  0  0  0  0  0  0  0  0
    7.0165   -3.0834  -21.0575 H   0  0  0  0  0  0  0  0  0  0  0  0
    6.6465   -3.6730  -19.2230 H   0  0  0  0  0  0  0  0  0  0  0  0
    6.7261    0.2217  -23.7800 H   0  0  0  0  0  0  0  0  0  0  0  0
    3.3625   -4.7615  -16.6723 H   0  0  0  0  0  0  0  0  0  0  0  0
    3.9063   -0.1316  -20.5421 H   0  0  0  0  0  0  0  0  0  0  0  0
    2.8853   -1.5868  -19.5488 H   0  0  0  0  0  0  0  0  0  0  0  0
    7.6247    2.9083  -21.1906 H   0  0  0  0  0  0  0  0  0  0  0  0
    6.6310    1.4522  -20.8460 H   0  0  0  0  0  0  0  0  0  0  0  0
    4.9582    5.1841  -22.1914 H   0  0  0  0  0  0  0  0  0  0  0  0
    5.9598    5.1754  -20.7004 H   0  0  0  0  0  0  0  0  0  0  0  0
    6.7089    4.7940  -22.2879 H   0  0  0  0  0  0  0  0  0  0  0  0
    4.3412    3.3029  -16.7990 H   0  0  0  0  0  0  0  0  0  0  0  0
    5.8750    2.3830  -16.6327 H   0  0  0  0  0  0  0  0  0  0  0  0
    5.9166    4.1625  -16.8737 H   0  0  0  0  0  0  0  0  0  0  0  0
    0.1536   -3.1961  -16.2471 H   0  0  0  0  0  0  0  0  0  0  0  0
    1.2637   -4.5796  -16.5302 H   0  0  0  0  0  0  0  0  0  0  0  0
    1.8269   -3.1527  -15.5955 H   0  0  0  0  0  0  0  0  0  0  0  0
    4.1314    1.0102  -23.8953 H   0  0  0  0  0  0  0  0  0  0  0  0
    3.4914    1.4146  -22.2663 H   0  0  0  0  0  0  0  0  0  0  0  0
    4.6429    3.3261  -23.4649 H   0  0  0  0  0  0  0  0  0  0  0  0
    6.1765    2.3971  -23.3572 H   0  0  0  0  0  0  0  0  0  0  0  0
    3.3615    2.9965  -21.1348 H   0  0  0  0  0  0  0  0  0  0  0  0
    2.1719    3.3760  -19.2740 H   0  0  0  0  0  0  0  0  0  0  0  0
    2.9462    3.3080  -17.7262 H   0  0  0  0  0  0  0  0  0  0  0  0
  1  3  1  0  0  0  0
  1  5  2  0  0  0  0
  2  4  2  0  0  0  0
  2  6  1  0  0  0  0
  3  9  2  0  0  0  0
  4 10  1  0  0  0  0
  5 11  1  0  0  0  0
  6 12  2  0  0  0  0
  7  9  1  0  0  0  0
  7 11  2  0  0  0  0
  8 10  2  0  0  0  0
  8 12  1  0  0  0  0
  9 10  1  0  0  0  0
 11 20  1  0  0  0  0
 12 26  1  0  0  0  0
 13 15  1  0  0  0  0
 13 22  1  0  0  0  0
 13 25  2  0  0  0  0
 14 22  1  0  0  0  0
 14 23  2  0  0  0  0
 14 24  1  0  0  0  0
 15 16  1  0  0  0  0
 16 17  1  0  0  0  0
 16 21  1  0  0  0  0
 16 23  1  0  0  0  0
 18 22  1  0  0  0  0
 19 26  1  0  0  0  0
 20 21  1  0  0  0  0
  1 27  1  0  0  0  0
  2 28  1  0  0  0  0
  3 29  1  0  0  0  0
  4 30  1  0  0  0  0
  5 31  1  0  0  0  0
  6 32  1  0  0  0  0
  7 33  1  0  0  0  0
  8 34  1  0  0  0  0
 15 35  1  0  0  0  0
 15 36  1  0  0  0  0
 17 37  1  0  0  0  0
 17 38  1  0  0  0  0
 17 39  1  0  0  0  0
 18 40  1  0  0  0  0
 18 41  1  0  0  0  0
 18 42  1  0  0  0  0
 19 43  1  0  0  0  0
 19 44  1  0  0  0  0
 19 45  1  0  0  0  0
 20 46  1  0  0  0  0
 20 47  1  0  0  0  0
 21 48  1  0  0  0  0
 21 49  1  0  0  0  0
 23 50  1  0  0  0  0
 24 51  1  0  0  0  0
 24 52  1  0  0  0  0
M  CHG  1  23   1
M  END
> <OMEGA_C>
KKDgQIoju78GxbPBTNSiQICyisBVI4/BmsHQQFgoC8DJ86rBz/OzQGrHYcDLRJfBhy/LQLRgpL6P
Z7fBHStxQKF5hMBap4vBm6WXQP6UCL81zajBGBZgQBffFcAwqpjBBkmsQGLh27+4QqXBaLqaQPCL
IcBzN5zB5e2lQGDL9D1wKLLB89I9QK46SMCsW5DB1iLVQKSWOkA/E5rB2HOHQDR6R0Bux5rBoAjW
QM3rIkDM7aXB5kqvQPDETEBhwavBP5O5QJ1ElkAUa63BrWWsQFLvTkDODYnB9luZP+QVX8CweYPB
ZfSMQBwdoj+O47bBj5+mQFK2JUCp/rbBIa2tQAgqQkDsyJTBIYiHQHvkRUDRQ6XBFSBAQK4TUkBY
y5XBFyD3QLtTPkBlNJXBpFnUPwpxN8DmQo3Bm2T9QN2w5b9YwLfBSTq2QH5vo8CBjIvBD4fgQM1W
RcC/dajB2a/UQCkTa8DAyJnBHzzXQEUQYz5ePb7BWjNXQAFemMDRYIXBjAB6QIHKBr4hVqTBzag4
QJAby78JZJzB1v3zQLAhOkBXhqnB4TDUQKnguT+XxKbBbqmeQO7jpUD7h7HBCre+QP+cpUB7mqXB
Iq/WQMtomUCwTbLBgOuKQA9iU0BfZIbBUwC8QJiCGEC6D4XB21S9QHozhUBa/YbBvEQdPmWNTMAS
+oHBicChP9eLksDVPYTB39bpP6bGScAbh3nBiTSEQA1OgT+SKb/BoHNfQHIRtT9vIbLBS5KUQALf
VEA2uLvB7aXFQNdqGUB427rB1yJXQPrGP0ARFKnBxP8KQBYRWEAlMZrBsI48QAq3U0Azz43BOJdQ
QB8VgsBrr5fBMebvQDxsmMDDjXHBvmWLQObYisCk+JDB/pLMQLRhkMDj3X7B/H5JQB8LNMBVwZzB
P6wLQXg5hMCBe3XB/6imQK/jBcCEE5TB2D/4QA5bP8DlHYrB0AKrQOqEVsBXKI/Bvl/QQDnQZ8D6
KIjBp1OEQL/D6b9fIpvBxO4NQdYNT8BzeYPBYUnVQCJpOUA6NZvBl1uHQKHDREBahprBq5jRQPSw
GEBgzqbBjhinQJDbzD/cLqjBI4GeQMLnrz+8QLTBJdKyQA7PfEBfIovBLDEzQS3XNcCQJn7BD3V+
QB+a8L54fKDBU+KqQCAhdT50QqLBm9uvQNCrUEDeoZXBFkiDQGX8GUAckKPBwIhEQBoEZUDS0pXB
3/b4QBKiQkBoRZfB0PAgQSISJcC76YXB4A0gQAIqmsC+8pjBW7/sQLU4rsDWPGTBNDOOQG/MqcAW
MY3BEmauQJwHoMDQvnvBaYsTQNvmJsBw5qHBFCoZQTKTisCuKWvBZdy9QFu9qL9+b5LB/l/7QAXn
E8BSypDBCfjRQORtT0DXVqzBI8LsQGt83D+LlqjBfWiAQG1jUT89Q7XBgf+bQCwwFkB8UbjBwAO5
QBo1TD9awLfB32+SQP7ChEDFEojB5CzEQLnpU0BOb4XBkw7EQJ3XnEBQHozBBAhBQW21EMAQ6IHB
9lcvQV8PI8B8oW3B2Q03Qa1/esByn37B2zRfQNp/HL9ESqjBexFWQKc9Kz7hY5vBJIK/QKV/2b4N
BKfBDrO5QGGA1T6MZ5rBbqtOQKAaHEBsc6fBabsLQEBfW0CJTpnBfB1IQEPmgkCk947BCShQQG8C
gsC5kJfBnmACQXZNpsCo14DBFUGLQJXCisBw4JDB7O/gQIQFnsDzT4fBTiNJQLYRNMDIrJzBOVMM
QRHfhMC2X3bBChqnQHeGBsAUPZTBRLTkQD/iJMCbc4LBhAurQI2OVsAOJI/BDonQQNUKaMAWL4jB
8m2EQAyO6r/FMJvBGlsEQfLfNMCk6XfB6EvVQIp1OUCpOZvBgVyHQBu/REC0iJrBdJXRQOzBGECE
0qbBzxenQEbozD8OMajByYeeQMCjrz/JQrTBd9eyQKK4fEAUJIvBZqgfQWTRAMCGnl/Bz9Z+QIot
9748q6DBaeWqQDO+eD77OqLBQd+vQL+qUEDgpJXBmEaDQDP/GUAZk6PBAo5EQBL4ZEC505XBKfv4
QFGrQkDWSpfBe1cNQQZn37+WLG3BnnAfQJQKmsBAx5jBuIgIQb9+xsCENYDBvPuNQFqiqcD7DY3B
Id/RQK7dt8CEo4vBNsoSQK/EJsBtv6HBYhcaQfGBi8BseGzBgeC+QHhSq7/k0ZLBVEzYQHofyb9C
EoPB4OzRQNmAT0C1WqzBesDsQHiu3D8znKjBDXGAQIm8UD+aRLXBNwacQLkAFkC/VrjB0A25QAWQ
Sz+Vv7fBsHWSQICzhECZE4jBTDTEQPvIU0CRcoXBkBLEQAbOnEBXHozBOxYlQe6tib8/LFjB7Bwb
QZmzLsCEEVPBSK4sQaPuG8BYU2nBYEFhQMRsI796jqjB8PZUQDibGz5ivpvBWirAQCIr1L5q3qbB
fv24QGgS2z6zTZrB8alOQBEiHEC1dqfB/70LQERUW0DNTpnBeidIQB7dgkAd+I7BkVhQQHjMgcDT
npfB3kQEQTqDNMC6EXjBljSLQKNGisDh3pDBRprkQAdRI8AndYLBM19JQAngM8DJx5zBd0YMQU5C
hMCZi3bBm/qmQO6cBcA6SJTBjOngQF4NncA4dYfBwuqqQPdOVcCVJY/BU3TQQN1JZsBxNojBL22E
QGu16b+zR5vB4HYCQeAEpsDH84DByF/VQARnOUB/OJvBYm6HQOuNREBmhZrBUazRQPn+GEAL1abB
UCynQJmNzT+1OqjBIaOeQPevsD91TbTBZ+eyQOUYfEAUGovB6rsAQTdI8cBGtoXB1d9+QCqQ9b5a
yqDBYeyqQGNUfT5qS6LB+fCvQLpeUEBioJXBU12DQGY4GkDSl6PBCqhEQAVzZED1yZXBLw75QHGK
QkB9SJfBohQLQXnPzsAXyH/Bf9gfQNnumcBy15jB+e0LQe9AAcBuXm/BCuqNQE8IqcAk/YzBLlHY
QL24xb+8AYPBWUATQIvoJsCO56HBXwkaQX60isCLmmzBL6i+QOofqb/E3JLBluDRQEeetsCZ5IvB
IAvSQDfiT0CSV6zBOtXsQPYv3T8XoqjB1YmAQNUQUz+8UrXB5ymcQPCXFkCnXbjBHSi5QHy5TT90
y7fBIIWSQIhQhEB5B4jB90nEQH0CU0AIboXB8xvEQJuFnEDtDIzB2y4JQanBB8GTI4TB/wHgQMoh
9MAAE4PBsysBQepQ6sDQVY7BoLVhQL+EI7+tsqjByKtUQCskHz5q6ZvBLkjAQBTn0L6v7KbBb+O4
QLNX3D66WZrBNuVOQLCdHEDsfafBOdoLQLPkWkCFRpnBOzhIQMpxgkA56I7BD9BEQPlOccCo/pLB
pKQFQbJKwsBS8o7BwO2KQC7licA4mZDBgVjiQJOuscBGCJHBwSw+QM0SIsB/TJjBmOgWQZyYpsBs
5ozBn+GsQAAaGMC42JjBmXL+QLJuUsCKAo/BX4SwQErnZsAceZPBKozbQC0AhcCCGJHBQFOEQNu2
6b8cQpvBKdETQa0qc8Dv6YzBVzvVQNPtOEBELZvB702HQMW3REDUhZrB8JPRQKIeGUAFzKbBsAmn
QDVnzj8EPajBTYSeQG/7sz9vV7TBIcKyQE2ZfEDUIIvBjys5QanBWsC9qIjBMJp/QHuDBb8TcqHB
/uKqQDK8dj6DhKLB+syvQGhiUEAqnpXBgzCDQBIDGkDBjqPBL3hEQF80ZUCo15XB8ej4QMQiQkBc
PZfBEBkkQbCbOMDR7YrBXJoLQOrcicArwpDBdCIIQY195MAS6o7BUk+NQKNXqMDijYzBov3HQHIm
x8CQl5LBWMP/P/TXB8A+G5rBqpcmQdWis8CKT4vBVXzJQGoN7L/lKZvBMGX5QB8ODsAgB4/B6QvS
QAlAUECyRKzBBLLsQA1U3T87nqjB02OAQMd9Wj8TbLXBqxucQPOlGEDqTrjBegO5QAtYVT/u4rfB
fl+SQJG8hEAlFIjBeAvEQAawU0DnaoXBcg/EQJ6ynEDMHYzBhGZEQfy5JcByQYfBCGk4QdW7gcBl
fYHBpLI+QV6DgMA9go/BBGJnQNWYP7+yganBKotRQD0F/T0/Pp3BPDnBQPJyxr7dGKfBLMm3QFOE
0j6dcZrBWkZOQK+1G0CwZqfBUrILQPu/W0BXV5nBFQpIQGn8gkAo/I7BPng5QITKSsAQApHBTFf7
QB7psMBEYYTB3X6CQHBod8CnkY7BYw7XQIFXp8ArnIrBTGw7QKjEBsBYapjBxswMQSu2kMBUC4LB
GW+pQCiAIMAKopvBiLbwQP7MO8CtpozB6TepQI5rYMA9opPBw8rRQMZ9e8BszY7BVDCEQGfd4L94
sJ3BtgUKQaBlTcC59IXB1tzVQCIPOUD4NZvB8RuIQFLEOkB6VJrBs9vSQDRjI0A9LafBcXqpQLOz
3j+HUqnBC0ehQM742z/kgLXBEVSyQOT0WEBLsonBO6QQQQZEW797moLBmNGEQOaRFL9BiKXBWTWu
QNAGkj7npqTBkC6wQNagQUC4KpXBGgqFQLCkHEBeH6TBUTtFQCY6U0ACMJXBwhH5QACRSECgWJfB
ZnEYQdiODsB5xILBvuv7P86NXMAVN43BrgQAQUz60MAlYYHBfu2BQIeQlcDP1ojBY12/QMW2v8Bp
LIzB5ZUBQKuwxr/MFJrBqqAaQQhImMD7cHrBWzTGQNV6FMCVLaDBKEztQAsI+r+AKZDBjxHSQN33
XkAy3KvBu+DuQN9y+j/Vi6nBEwCEQLuWkj+6L7fBP2mdQEntL0AZbrjBdJa8QMONnz/UkrnB4b+R
QFB9XEDFZIbBnMHEQHgtKEBOVYXB+hXCQIfEi0A414jBv4kdQV53Pb4M6n/B3W0LQRN1Eb+er4rB
uQ0DQamlR7+UFnrBFZGCQAr1eb8Hua3BMP5RQImBez1246PB1PvHQBnKZ763B6nBmey2QF0xuz55
JpzBVV9TQFhKJECtKajBSfsMQE6kTUBl8JjBxIhHQPBoakCDvI3BxU1CQMlpQ8CogY/Biu/8QIEA
xcDxsozBAKOGQB9xdMBBaI7BQVfVQOTrsMD2k47BrQZAQF6h/L87w5bB/7kRQUaNr8CKEo/B1Xyo
QMd9H8DceJzBLPD6QP3qY8CyUJXBb+WqQIHVYcAOypTBGQzUQB5Uh8AdBZPBXAeEQEgs1r8vLZ3B
VGoRQb2UhcApOJPB24PVQJpDOkBETZvBp6aHQDZXPkD5hJrBqZHSQBu+JUAJTKfBef6oQBIt5T95
dKnByhuhQG5m4D9UpLXBcbuxQPGfV0Cgu4nBDZEkQf/xBMBMEpXBiwSDQKZP/r6ZAqXBlSitQBih
rj5LqaTBwMavQM7TSEBhcZXB58mEQGhBIUBbXaTBX3lDQK/2UED6MZXB3vP4QLNuQUC4MZfBTNok
QWn4YcCm6ZTB+24KQEmuUsCJyorB8M/9QDn55MDybInB3sOHQCwilMCAsojBi+u3QK9JwcBKoIzB
5twGQMqjr7+8bJfB1dcgQYZgv8B9tI3BYPzCQPT8FMBx3KHBrhz6QBxnJMCVt5jBzwDSQJSxYUB2
6KvBGHDuQCqr/j8bt6nB1KeDQEIamD8TUbfBOridQETuMUBprbjB8la8QIHboT9hnrnBejORQCCt
YUCHnYbB3x3AQAOUH0AnzoXBalfFQCVMiEBfF4jBINw0Qa6V2b90eJbB+/QZQUBr3b/rhJvBIKke
Qezb2b8pWI3BlDN9QOgkY7+LKa3BYfFPQIGOIT5E76LBPc3FQEW1S75xOanBU0e3QE473D5VQ5zB
FqJTQLelKkCfgajBZ0kLQMIcSEC/3JjBSRlFQBg3Z0Bzso3BPxZDQJLhR8CsXY/B8J4RQULlhMAZ
LpXBs5yHQAmjd8A3i47BKUP7QKW6YsDBj5bBgY4+QFdtAcCpaJbBT+8SQap7rsAk/ZDBvImnQJMu
H8DOiJzBf/zXQErOsMAtV4/BmTurQLOkYsA6DJXB4RzVQNITh8BHs5PBb8eCQGfS1r+/3ZzBMw8A
QUAKxcDyHI7B85LVQF26OUBWR5vBOraHQF9wPkDehZrBD7LSQBsCJECIP6fBN8GoQPvu4z8laqnB
FwqhQEAC3z/Vm7XBg6mxQI7hV0C+vInB/T4UQc4VA8F2CYvBsvSAQJ3O7L7tUaTBnyKsQLvSqD5d
mqTB79GvQCSySEDWcJXB6dmEQA/YIUBWY6TBTZtDQN+aUEDVK5XBuP/4QOo2QkD0M5fBp0IAQcy8
7sDSOIrBDBYMQLcvWcDimYrBCwogQSraZ8DjV5fBuKiJQOMclsDX9YjBEH75QHLgIsAP15nB/YEE
QMEsuL/h3pbBCWEiQVJpvcDg8Y/BKlvBQE1DE8DVFKLB1jS7QL1UwcDk7YzBjL3SQFh/X0Aw9KvB
Wk7uQO/m+D9Xj6nBUlqDQKxYmD9aTLfBzyyeQChAMUAtrLjB6Rm8QIGxnj8NjLnB4BuRQJY0YkDy
pYbBAu6/QA/lH0AOxYXBfVPFQB1niECnHIjBdSgSQYA5E8GWr4fBxPQYQZNSBMFOfpPBo8YgQXYr
9cD4jIbByQhzQJMNT7+DdqzBP/hOQLAPWT4OiKHBHRbDQKCOd75rdqnB4yu4QPUa0z4fXJzBpTtU
QHFxLEB/lKjBv2YLQB7NR0D21ZjBGEJFQN96ZkDnp43BfJ7kQOK5EsBr4bLB3UKZQPjHlsAGw43B
FBvRQEuxO8BsIqrB0YyuQCGOgMDB6JXBsijVQL/xhr+eaLbBpIReQKOFi8BA6orBrVagQOpVh7/N
C6jBZF9eQL9RKMDol5jB9eSuQKv+E8Ark6TB14OZQL/uPsA4hZvBkfexQKgq8b77M7HBrhA0QIYS
U8DxQJDBYjvWQELEXUBP5JrB8WaJQIKxSEC9lprBydnRQGWIgECmT6bBN+euQN51TECMBqzBGWmi
QJS9dUCbz7bBr9eyQCSpPEAAconBVIRdPwWhYsCvAIXB8OSjQLPRZD/uIbTBBsDBQBi+5j91163B
d7+wQJndTkADDZXBesiHQEp4R0ChH6XB1PlFQGoaQkAfDpXBXbv5QBOnTUAJOpfBtszDPxDmN8A0
xI3BnXj/QEpPMMCK3rbBOjOpQMersMBIp4nBHEbcQIj0ecDNoKfB6SjPQNrBiMCn55fBgCrkQI5T
Db8QE73B9xM+QM/SnMBdoYTBKYiHQNFTC7/tpaPBqP89QKQU67+M1ZzBn47IQG93okBsCqbBr3Dw
QMmRekC8lqrB6n2JQPDqTkDDsbrBnyGWQHVem0AHZbXBwbe+QKL8eECYBrzBTE2SQEjVMkCgUobB
hf3FQP6VAkD6F4jB8c3BQGgHc0BcSoXBwa8Mvi0SR8Di5IPBAYlGP3Smk8CCzYbB2t25P0ISWsDr
RXvB/l6nQGoPiD/KyLzBlmOCQAefhz97yLHBCu/fQBnt8z8rS7LByCXIQMeiqz8vBKbBK1xWQH4D
Q0DBqqjBleQOQFGtPEBTEpnBKcJFQCfJQkBADo3B

> <OMEGA_E>
+D6VPtRbfj9Y8H0/wt19Pwikcj9MNW8/npttP/4ibT8smQQ/

> <OMEGA_NBR>
     11675

$$$$
50145461
  -OEChem-04172616093D

 29 30  0     1  0  0  0  0  0999 V2000
    6.1520   -2.0129  -21.3254 C   0  0  0  0  0  0  0  0  0  0  0  0
    5.1024   -1.4765  -20.5555 C   0  0  0  0  0  0  0  0  0  0  0  0
    6.9165   -1.1702  -22.1533 C   0  0  0  0  0  0  0  0  0  0  0  0
    4.8242   -0.0948  -20.6005 C   0  0  0  0  0  0  0  0  0  0  0  0
    6.6408    0.2092  -22.2027 C   0  0  0  0  0  0  0  0  0  0  0  0
    5.5984    0.7698  -21.4210 C   0  0  0  0  0  0  0  0  0  0  0  0
    6.6753    2.9797  -19.4079 C   0  0  0  0  0  0  0  0  0  0  0  0
    4.2561    3.0282  -19.3620 C   0  0  0  0  0  0  0  0  0  0  0  0
    6.6252    3.0515  -20.9390 C   0  0  0  0  0  0  0  0  0  0  0  0
    5.3605    2.2983  -21.4559 C   0  0  1  0  0  0  0  0  0  0  0  0
    5.0720    2.7409  -22.9104 C   0  0  0  0  0  0  0  0  0  0  0  0
    5.4870    3.0672  -18.7026 N   0  0  0  0  0  0  0  0  0  0  0  0
    4.1682    2.7119  -20.6393 N   0  3  0  0  0  0  0  0  0  0  0  0
    3.0985    3.2974  -18.6513 N   0  0  0  0  0  0  0  0  0  0  0  0
    7.7457    3.0390  -18.8170 O   0  0  0  0  0  0  0  0  0  0  0  0
    6.3701   -3.0697  -21.2807 H   0  0  0  0  0  0  0  0  0  0  0  0
    4.5086   -2.1252  -19.9285 H   0  0  0  0  0  0  0  0  0  0  0  0
    7.7156   -1.5823  -22.7516 H   0  0  0  0  0  0  0  0  0  0  0  0
    4.0171    0.3092  -20.0074 H   0  0  0  0  0  0  0  0  0  0  0  0
    7.2300    0.8485  -22.8434 H   0  0  0  0  0  0  0  0  0  0  0  0
    6.5793    4.1042  -21.2550 H   0  0  0  0  0  0  0  0  0  0  0  0
    7.5277    2.5821  -21.3575 H   0  0  0  0  0  0  0  0  0  0  0  0
    4.9026    3.8275  -22.9368 H   0  0  0  0  0  0  0  0  0  0  0  0
    5.9322    2.4885  -23.5478 H   0  0  0  0  0  0  0  0  0  0  0  0
    4.1761    2.2212  -23.2808 H   0  0  0  0  0  0  0  0  0  0  0  0
    5.5102    3.1597  -17.7072 H   0  0  0  0  0  0  0  0  0  0  0  0
    3.2724    2.7487  -21.0823 H   0  0  0  0  0  0  0  0  0  0  0  0
    2.2096    3.2507  -19.1071 H   0  0  0  0  0  0  0  0  0  0  0  0
    3.1514    3.5384  -17.6822 H   0  0  0  0  0  0  0  0  0  0  0  0
  1  2  1  0  0  0  0
  1  3  2  0  0  0  0
  2  4  2  0  0  0  0
  3  5  1  0  0  0  0
  4  6  1  0  0  0  0
  5  6  2  0  0  0  0
  6 10  1  0  0  0  0
  7  9  1  0  0  0  0
  7 12  1  0  0  0  0
  7 15  2  0  0  0  0
  8 12  1  0  0  0  0
  8 13  2  0  0  0  0
  8 14  1  0  0  0  0
  9 10  1  0  0  0  0
 10 11  1  0  0  0  0
 10 13  1  0  0  0  0
  1 16  1  0  0  0  0
  2 17  1  0  0  0  0
  3 18  1  0  0  0  0
  4 19  1  0  0  0  0
  5 20  1  0  0  0  0
  9 21  1  0  0  0  0
  9 22  1  0  0  0  0
 11 23  1  0  0  0  0
 11 24  1  0  0  0  0
 11 25  1  0  0  0  0
 12 26  1  0  0  0  0
 13 27  1  0  0  0  0
 14 28  1  0  0  0  0
 14 29  1  0  0  0  0
M  CHG  1  13   1
M  END
> <OMEGA_C>
H93EQLDSAMB9mqrB0EajQCT/vL+RcaTBllPdQL7Ilb8EOrHBwl+aQOg6wr3bzaTBPIHUQNA+Vj4P
n7HBWyazQHgORT8vXqvBtZvVQMiyPkBKQ5vBmTGIQL7OQUBz5ZrBQQHUQIZMQ0Akg6fB3IirQOgX
E0DFpavBl02iQDprL0B/SLfBZJWvQIJNRED3npXBh2GFQGaQLUBSHaXB8k1GQGgIU0DPNZXBjdz3
QM5+QkAgiZbB19fLQFN1RMDiPqrBl0aQQBQDCMCNbZ/Baeb2QN+Hyr8+A7bBUoyAQJRVnj4wD6DB
P1znQNU1WT9Pv7bBUInSQHhVg0BICqrBheLwQDhBJUAv3KrB3+GcQF/1dECefrfBetS9QOVCH0Dq
YbzBYaKFQI4nDkAjP7rBxlOwQGE4SkBLqI3B825RQBbrL0CeqKjB12oNQKALUEBF25jBRbFJQKF1
YkAndY3B

> <OMEGA_E>
3jE7Pw==

> <OMEGA_NBR>
     12469

$$$$
50145672
  -OEChem-04172616093D

 52 54  0     1  0  0  0  0  0999 V2000
    7.0196   -1.4620  -22.4712 C   0  0  0  0  0  0  0  0  0  0  0  0
    5.0884   -4.3343  -17.8923 C   0  0  0  0  0  0  0  0  0  0  0  0
    6.5236   -2.1743  -21.3690 C   0  0  0  0  0  0  0  0  0  0  0  0
    5.6235   -3.5278  -18.9086 C   0  0  0  0  0  0  0  0  0  0  0  0
    6.3496   -0.3211  -22.9256 C   0  0  0  0  0  0  0  0  0  0  0  0
    3.7683   -4.1398  -17.4567 C   0  0  0  0  0  0  0  0  0  0  0  0
    4.7390   -0.5335  -21.1002 C   0  0  0  0  0  0  0  0  0  0  0  0
    3.5013   -2.3417  -19.0831 C   0  0  0  0  0  0  0  0  0  0  0  0
    5.3839   -1.7178  -20.6576 C   0  0  0  0  0  0  0  0  0  0  0  0
    4.8353   -2.5242  -19.5271 C   0  0  0  0  0  0  0  0  0  0  0  0
    5.1853    0.1195  -22.2697 C   0  0  0  0  0  0  0  0  0  0  0  0
    2.9660   -3.1286  -18.0448 C   0  0  0  0  0  0  0  0  0  0  0  0
    6.6605    2.9154  -19.2594 C   0  0  0  0  0  0  0  0  0  0  0  0
    4.2329    3.1168  -19.3474 C   0  0  0  0  0  0  0  0  0  0  0  0
    6.6886    2.5456  -20.7411 C   0  0  0  0  0  0  0  0  0  0  0  0
    5.4779    3.1995  -21.4694 C   0  0  1  0  0  0  0  0  0  0  0  0
    5.7992    4.6959  -21.6773 C   0  0  0  0  0  0  0  0  0  0  0  0
    5.3874    3.2334  -17.1317 C   0  0  0  0  0  0  0  0  0  0  0  0
    1.1981   -3.4857  -16.4344 C   0  0  0  0  0  0  0  0  0  0  0  0
    4.4048    1.2665  -22.8611 C   0  0  0  0  0  0  0  0  0  0  0  0
    5.2070    2.5893  -22.8743 C   0  0  0  0  0  0  0  0  0  0  0  0
    5.4274    3.0338  -18.5981 N   0  0  0  0  0  0  0  0  0  0  0  0
    4.2354    3.0921  -20.6581 N   0  3  0  0  0  0  0  0  0  0  0  0
    3.0020    3.2825  -18.7243 N   0  0  0  0  0  0  0  0  0  0  0  0
    7.7227    2.9739  -18.6506 O   0  0  0  0  0  0  0  0  0  0  0  0
    1.6590   -2.8663  -17.6577 O   0  0  0  0  0  0  0  0  0  0  0  0
    7.9185   -1.7945  -22.9689 H   0  0  0  0  0  0  0  0  0  0  0  0
    5.6946   -5.1074  -17.4436 H   0  0  0  0  0  0  0  0  0  0  0  0
    7.0165   -3.0834  -21.0575 H   0  0  0  0  0  0  0  0  0  0  0  0
    6.6465   -3.6730  -19.2230 H   0  0  0  0  0  0  0  0  0  0  0  0
    6.7261    0.2217  -23.7800 H   0  0  0  0  0  0  0  0  0  0  0  0
    3.3625   -4.7615  -16.6723 H   0  0  0  0  0  0  0  0  0  0  0  0
    3.9063   -0.1316  -20.5421 H   0  0  0  0  0  0  0  0  0  0  0  0
    2.8853   -1.5868  -19.5488 H   0  0  0  0  0  0  0  0  0  0  0  0
    7.6247    2.9083  -21.1906 H   0  0  0  0  0  0  0  0  0  0  0  0
    6.6310    1.4522  -20.8460 H   0  0  0  0  0  0  0  0  0  0  0  0
    4.9582    5.1841  -22.1914 H   0  0  0  0  0  0  0  0  0  0  0  0
    5.9598    5.1754  -20.7004 H   0  0  0  0  0  0  0  0  0  0  0  0
    6.7089    4.7940  -22.2879 H   0  0  0  0  0  0  0  0  0  0  0  0
    4.3412    3.3029  -16.7990 H   0  0  0  0  0  0  0  0  0  0  0  0
    5.8750    2.3830  -16.6327 H   0  0  0  0  0  0  0  0  0  0  0  0
    5.9166    4.1625  -16.8737 H   0  0  0  0  0  0  0  0  0  0  0  0
    0.1536   -3.1961  -16.2471 H   0  0  0  0  0  0  0  0  0  0  0  0
    1.2637   -4.5796  -16.5302 H   0  0  0  0  0  0  0  0  0  0  0  0
    1.8269   -3.1527  -15.5955 H   0  0  0  0  0  0  0  0  0  0  0  0
    4.1314    1.0102  -23.8953 H   0  0  0  0  0  0  0  0  0  0  0  0
    3.4914    1.4146  -22.2663 H   0  0  0  0  0  0  0  0  0  0  0  0
    4.6429    3.3261  -23.4649 H   0  0  0  0  0  0  0  0  0  0  0  0
    6.1765    2.3971  -23.3572 H   0  0  0  0  0  0  0  0  0  0  0  0
    3.3615    2.9965  -21.1348 H   0  0  0  0  0  0  0  0  0  0  0  0
    2.1719    3.3760  -19.2740 H   0  0  0  0  0  0  0  0  0  0  0  0
    2.9462    3.3080  -17.7262 H   0  0  0  0  0  0  0  0  0  0  0  0
  1  3  1  0  0  0  0
  1  5  2  0  0  0  0
  2  4  2  0  0  0  0
  2  6  1  0  0  0  0
  3  9  2  0  0  0  0
  4 10  1  0  0  0  0
  5 11  1  0  0  0  0
  6 12  2  0  0  0  0
  7  9  1  0  0  0  0
  7 11  2  0  0  0  0
  8 10  2  0  0  0  0
  8 12  1  0  0  0  0
  9 10  1  0  0  0  0
 11 20  1  0  0  0  0
 12 26  1  0  0  0  0
 13 15  1  0  0  0  0
 13 22  1  0  0  0  0
 13 25  2  0  0  0  0
 14 22  1  0  0  0  0
 14 23  2  0  0  0  0
 14 24  1  0  0  0  0
 15 16  1  0  0  0  0
 16 17  1  0  0  0  0
 16 21  1  0  0  0  0
 16 23  1  0  0  0  0
 18 22  1  0  0  0  0
 19 26  1  0  0  0  0
 20 21  1  0  0  0  0
  1 27  1  0  0  0  0
  2 28  1  0  0  0  0
  3 29  1  0  0  0  0
  4 30  1  0  0  0  0
  5 31  1  0  0  0  0
  6 32  1  0  0  0  0
  7 33  1  0  0  0  0
  8 34  1  0  0  0  0
 15 35  1  0  0  0  0
 15 36  1  0  0  0  0
 17 37  1  0  0  0  0
 17 38  1  0  0  0  0
 17 39  1  0  0  0  0
 18 40  1  0  0  0  0
 18 41  1  0  0  0  0
 18 42  1  0  0  0  0
 19 43  1  0  0  0  0
 19 44  1  0  0  0  0
 19 45  1  0  0  0  0
 20 46  1  0  0  0  0
 20 47  1  0  0  0  0
 21 48  1  0  0  0  0
 21 49  1  0  0  0  0
 23 50  1  0  0  0  0
 24 51  1  0  0  0  0
 24 52  1  0  0  0  0
M  CHG  1  23   1
M  END
> <OMEGA_C>
KKDgQIoju78GxbPBTNSiQICyisBVI4/BmsHQQFgoC8DJ86rBz/OzQGrHYcDLRJfBhy/LQLRgpL6P
Z7fBHStxQKF5hMBap4vBm6WXQP6UCL81zajBGBZgQBffFcAwqpjBBkmsQGLh27+4QqXBaLqaQPCL
IcBzN5zB5e2lQGDL9D1wKLLB89I9QK46SMCsW5DB1iLVQKSWOkA/E5rB2HOHQDR6R0Bux5rBoAjW
QM3rIkDM7aXB5kqvQPDETEBhwavBP5O5QJ1ElkAUa63BrWWsQFLvTkDODYnB9luZP+QVX8CweYPB
ZfSMQBwdoj+O47bBj5+mQFK2JUCp/rbBIa2tQAgqQkDsyJTBIYiHQHvkRUDRQ6XBFSBAQK4TUkBY
y5XBFyD3QLtTPkBlNJXBpFnUPwpxN8DmQo3Bm2T9QN2w5b9YwLfBSTq2QH5vo8CBjIvBD4fgQM1W
RcC/dajB2a/UQCkTa8DAyJnBHzzXQEUQYz5ePb7BWjNXQAFemMDRYIXBjAB6QIHKBr4hVqTBzag4
QJAby78JZJzB1v3zQLAhOkBXhqnB4TDUQKnguT+XxKbBbqmeQO7jpUD7h7HBCre+QP+cpUB7mqXB
Iq/WQMtomUCwTbLBgOuKQA9iU0BfZIbBUwC8QJiCGEC6D4XB21S9QHozhUBa/YbBvEQdPmWNTMAS
+oHBicChP9eLksDVPYTB39bpP6bGScAbh3nBiTSEQA1OgT+SKb/BoHNfQHIRtT9vIbLBS5KUQALf
VEA2uLvB7aXFQNdqGUB427rB1yJXQPrGP0ARFKnBxP8KQBYRWEAlMZrBsI48QAq3U0Azz43BOJdQ
QB8VgsBrr5fBMebvQDxsmMDDjXHBvmWLQObYisCk+JDB/pLMQLRhkMDj3X7B/H5JQB8LNMBVwZzB
P6wLQXg5hMCBe3XB/6imQK/jBcCEE5TB2D/4QA5bP8DlHYrB0AKrQOqEVsBXKI/Bvl/QQDnQZ8D6
KIjBp1OEQL/D6b9fIpvBxO4NQdYNT8BzeYPBYUnVQCJpOUA6NZvBl1uHQKHDREBahprBq5jRQPSw
GEBgzqbBjhinQJDbzD/cLqjBI4GeQMLnrz+8QLTBJdKyQA7PfEBfIovBLDEzQS3XNcCQJn7BD3V+
QB+a8L54fKDBU+KqQCAhdT50QqLBm9uvQNCrUEDeoZXBFkiDQGX8GUAckKPBwIhEQBoEZUDS0pXB
3/b4QBKiQkBoRZfB0PAgQSISJcC76YXB4A0gQAIqmsC+8pjBW7/sQLU4rsDWPGTBNDOOQG/MqcAW
MY3BEmauQJwHoMDQvnvBaYsTQNvmJsBw5qHBFCoZQTKTisCuKWvBZdy9QFu9qL9+b5LB/l/7QAXn
E8BSypDBCfjRQORtT0DXVqzBI8LsQGt83D+LlqjBfWiAQG1jUT89Q7XBgf+bQCwwFkB8UbjBwAO5
QBo1TD9awLfB32+SQP7ChEDFEojB5CzEQLnpU0BOb4XBkw7EQJ3XnEBQHozBBAhBQW21EMAQ6IHB
9lcvQV8PI8B8oW3B2Q03Qa1/esByn37B2zRfQNp/HL9ESqjBexFWQKc9Kz7hY5vBJIK/QKV/2b4N
BKfBDrO5QGGA1T6MZ5rBbqtOQKAaHEBsc6fBabsLQEBfW0CJTpnBfB1IQEPmgkCk947BCShQQG8C
gsC5kJfBnmACQXZNpsCo14DBFUGLQJXCisBw4JDB7O/gQIQFnsDzT4fBTiNJQLYRNMDIrJzBOVMM
QRHfhMC2X3bBChqnQHeGBsAUPZTBRLTkQD/iJMCbc4LBhAurQI2OVsAOJI/BDonQQNUKaMAWL4jB
8m2EQAyO6r/FMJvBGlsEQfLfNMCk6XfB6EvVQIp1OUCpOZvBgVyHQBu/REC0iJrBdJXRQOzBGECE
0qbBzxenQEbozD8OMajByYeeQMCjrz/JQrTBd9eyQKK4fEAUJIvBZqgfQWTRAMCGnl/Bz9Z+QIot
9748q6DBaeWqQDO+eD77OqLBQd+vQL+qUEDgpJXBmEaDQDP/GUAZk6PBAo5EQBL4ZEC505XBKfv4
QFGrQkDWSpfBe1cNQQZn37+WLG3BnnAfQJQKmsBAx5jBuIgIQb9+xsCENYDBvPuNQFqiqcD7DY3B
Id/RQK7dt8CEo4vBNsoSQK/EJsBtv6HBYhcaQfGBi8BseGzBgeC+QHhSq7/k0ZLBVEzYQHofyb9C
EoPB4OzRQNmAT0C1WqzBesDsQHiu3D8znKjBDXGAQIm8UD+aRLXBNwacQLkAFkC/VrjB0A25QAWQ
Sz+Vv7fBsHWSQICzhECZE4jBTDTEQPvIU0CRcoXBkBLEQAbOnEBXHozBOxYlQe6tib8/LFjB7Bwb
QZmzLsCEEVPBSK4sQaPuG8BYU2nBYEFhQMRsI796jqjB8PZUQDibGz5ivpvBWirAQCIr1L5q3qbB
fv24QGgS2z6zTZrB8alOQBEiHEC1dqfB/70LQERUW0DNTpnBeidIQB7dgkAd+I7BkVhQQHjMgcDT
npfB3kQEQTqDNMC6EXjBljSLQKNGisDh3pDBRprkQAdRI8AndYLBM19JQAngM8DJx5zBd0YMQU5C
hMCZi3bBm/qmQO6cBcA6SJTBjOngQF4NncA4dYfBwuqqQPdOVcCVJY/BU3TQQN1JZsBxNojBL22E
QGu16b+zR5vB4HYCQeAEpsDH84DByF/VQARnOUB/OJvBYm6HQOuNREBmhZrBUazRQPn+GEAL1abB
UCynQJmNzT+1OqjBIaOeQPevsD91TbTBZ+eyQOUYfEAUGovB6rsAQTdI8cBGtoXB1d9+QCqQ9b5a
yqDBYeyqQGNUfT5qS6LB+fCvQLpeUEBioJXBU12DQGY4GkDSl6PBCqhEQAVzZED1yZXBLw75QHGK
QkB9SJfBohQLQXnPzsAXyH/Bf9gfQNnumcBy15jB+e0LQe9AAcBuXm/BCuqNQE8IqcAk/YzBLlHY
QL24xb+8AYPBWUATQIvoJsCO56HBXwkaQX60isCLmmzBL6i+QOofqb/E3JLBluDRQEeetsCZ5IvB
IAvSQDfiT0CSV6zBOtXsQPYv3T8XoqjB1YmAQNUQUz+8UrXB5ymcQPCXFkCnXbjBHSi5QHy5TT90
y7fBIIWSQIhQhEB5B4jB90nEQH0CU0AIboXB8xvEQJuFnEDtDIzB2y4JQanBB8GTI4TB/wHgQMoh
9MAAE4PBsysBQepQ6sDQVY7BoLVhQL+EI7+tsqjByKtUQCskHz5q6ZvBLkjAQBTn0L6v7KbBb+O4
QLNX3D66WZrBNuVOQLCdHEDsfafBOdoLQLPkWkCFRpnBOzhIQMpxgkA56I7BD9BEQPlOccCo/pLB
pKQFQbJKwsBS8o7BwO2KQC7licA4mZDBgVjiQJOuscBGCJHBwSw+QM0SIsB/TJjBmOgWQZyYpsBs
5ozBn+GsQAAaGMC42JjBmXL+QLJuUsCKAo/BX4SwQErnZsAceZPBKozbQC0AhcCCGJHBQFOEQNu2
6b8cQpvBKdETQa0qc8Dv6YzBVzvVQNPtOEBELZvB702HQMW3REDUhZrB8JPRQKIeGUAFzKbBsAmn
QDVnzj8EPajBTYSeQG/7sz9vV7TBIcKyQE2ZfEDUIIvBjys5QanBWsC9qIjBMJp/QHuDBb8TcqHB
/uKqQDK8dj6DhKLB+syvQGhiUEAqnpXBgzCDQBIDGkDBjqPBL3hEQF80ZUCo15XB8ej4QMQiQkBc
PZfBEBkkQbCbOMDR7YrBXJoLQOrcicArwpDBdCIIQY195MAS6o7BUk+NQKNXqMDijYzBov3HQHIm
x8CQl5LBWMP/P/TXB8A+G5rBqpcmQdWis8CKT4vBVXzJQGoN7L/lKZvBMGX5QB8ODsAgB4/B6QvS
QAlAUECyRKzBBLLsQA1U3T87nqjB02OAQMd9Wj8TbLXBqxucQPOlGEDqTrjBegO5QAtYVT/u4rfB
fl+SQJG8hEAlFIjBeAvEQAawU0DnaoXBcg/EQJ6ynEDMHYzBhGZEQfy5JcByQYfBCGk4QdW7gcBl
fYHBpLI+QV6DgMA9go/BBGJnQNWYP7+yganBKotRQD0F/T0/Pp3BPDnBQPJyxr7dGKfBLMm3QFOE
0j6dcZrBWkZOQK+1G0CwZqfBUrILQPu/W0BXV5nBFQpIQGn8gkAo/I7BPng5QITKSsAQApHBTFf7
QB7psMBEYYTB3X6CQHBod8CnkY7BYw7XQIFXp8ArnIrBTGw7QKjEBsBYapjBxswMQSu2kMBUC4LB
GW+pQCiAIMAKopvBiLbwQP7MO8CtpozB6TepQI5rYMA9opPBw8rRQMZ9e8BszY7BVDCEQGfd4L94
sJ3BtgUKQaBlTcC59IXB1tzVQCIPOUD4NZvB8RuIQFLEOkB6VJrBs9vSQDRjI0A9LafBcXqpQLOz
3j+HUqnBC0ehQM742z/kgLXBEVSyQOT0WEBLsonBO6QQQQZEW797moLBmNGEQOaRFL9BiKXBWTWu
QNAGkj7npqTBkC6wQNagQUC4KpXBGgqFQLCkHEBeH6TBUTtFQCY6U0ACMJXBwhH5QACRSECgWJfB
ZnEYQdiODsB5xILBvuv7P86NXMAVN43BrgQAQUz60MAlYYHBfu2BQIeQlcDP1ojBY12/QMW2v8Bp
LIzB5ZUBQKuwxr/MFJrBqqAaQQhImMD7cHrBWzTGQNV6FMCVLaDBKEztQAsI+r+AKZDBjxHSQN33
XkAy3KvBu+DuQN9y+j/Vi6nBEwCEQLuWkj+6L7fBP2mdQEntL0AZbrjBdJa8QMONnz/UkrnB4b+R
QFB9XEDFZIbBnMHEQHgtKEBOVYXB+hXCQIfEi0A414jBv4kdQV53Pb4M6n/B3W0LQRN1Eb+er4rB
uQ0DQamlR7+UFnrBFZGCQAr1eb8Hua3BMP5RQImBez1246PB1PvHQBnKZ763B6nBmey2QF0xuz55
JpzBVV9TQFhKJECtKajBSfsMQE6kTUBl8JjBxIhHQPBoakCDvI3BxU1CQMlpQ8CogY/Biu/8QIEA
xcDxsozBAKOGQB9xdMBBaI7BQVfVQOTrsMD2k47BrQZAQF6h/L87w5bB/7kRQUaNr8CKEo/B1Xyo
QMd9H8DceJzBLPD6QP3qY8CyUJXBb+WqQIHVYcAOypTBGQzUQB5Uh8AdBZPBXAeEQEgs1r8vLZ3B
VGoRQb2UhcApOJPB24PVQJpDOkBETZvBp6aHQDZXPkD5hJrBqZHSQBu+JUAJTKfBef6oQBIt5T95
dKnByhuhQG5m4D9UpLXBcbuxQPGfV0Cgu4nBDZEkQf/xBMBMEpXBiwSDQKZP/r6ZAqXBlSitQBih
rj5LqaTBwMavQM7TSEBhcZXB58mEQGhBIUBbXaTBX3lDQK/2UED6MZXB3vP4QLNuQUC4MZfBTNok
QWn4YcCm6ZTB+24KQEmuUsCJyorB8M/9QDn55MDybInB3sOHQCwilMCAsojBi+u3QK9JwcBKoIzB
5twGQMqjr7+8bJfB1dcgQYZgv8B9tI3BYPzCQPT8FMBx3KHBrhz6QBxnJMCVt5jBzwDSQJSxYUB2
6KvBGHDuQCqr/j8bt6nB1KeDQEIamD8TUbfBOridQETuMUBprbjB8la8QIHboT9hnrnBejORQCCt
YUCHnYbB3x3AQAOUH0AnzoXBalfFQCVMiEBfF4jBINw0Qa6V2b90eJbB+/QZQUBr3b/rhJvBIKke
Qezb2b8pWI3BlDN9QOgkY7+LKa3BYfFPQIGOIT5E76LBPc3FQEW1S75xOanBU0e3QE473D5VQ5zB
FqJTQLelKkCfgajBZ0kLQMIcSEC/3JjBSRlFQBg3Z0Bzso3BPxZDQJLhR8CsXY/B8J4RQULlhMAZ
LpXBs5yHQAmjd8A3i47BKUP7QKW6YsDBj5bBgY4+QFdtAcCpaJbBT+8SQap7rsAk/ZDBvImnQJMu
H8DOiJzBf/zXQErOsMAtV4/BmTurQLOkYsA6DJXB4RzVQNITh8BHs5PBb8eCQGfS1r+/3ZzBMw8A
QUAKxcDyHI7B85LVQF26OUBWR5vBOraHQF9wPkDehZrBD7LSQBsCJECIP6fBN8GoQPvu4z8laqnB
FwqhQEAC3z/Vm7XBg6mxQI7hV0C+vInB/T4UQc4VA8F2CYvBsvSAQJ3O7L7tUaTBnyKsQLvSqD5d
mqTB79GvQCSySEDWcJXB6dmEQA/YIUBWY6TBTZtDQN+aUEDVK5XBuP/4QOo2QkD0M5fBp0IAQcy8
7sDSOIrBDBYMQLcvWcDimYrBCwogQSraZ8DjV5fBuKiJQOMclsDX9YjBEH75QHLgIsAP15nB/YEE
QMEsuL/h3pbBCWEiQVJpvcDg8Y/BKlvBQE1DE8DVFKLB1jS7QL1UwcDk7YzBjL3SQFh/X0Aw9KvB
Wk7uQO/m+D9Xj6nBUlqDQKxYmD9aTLfBzyyeQChAMUAtrLjB6Rm8QIGxnj8NjLnB4BuRQJY0YkDy
pYbBAu6/QA/lH0AOxYXBfVPFQB1niECnHIjBdSgSQYA5E8GWr4fBxPQYQZNSBMFOfpPBo8YgQXYr
9cD4jIbByQhzQJMNT7+DdqzBP/hOQLAPWT4OiKHBHRbDQKCOd75rdqnB4yu4QPUa0z4fXJzBpTtU
QHFxLEB/lKjBv2YLQB7NR0D21ZjBGEJFQN96ZkDnp43BfJ7kQOK5EsBr4bLB3UKZQPjHlsAGw43B
FBvRQEuxO8BsIqrB0YyuQCGOgMDB6JXBsijVQL/xhr+eaLbBpIReQKOFi8BA6orBrVagQOpVh7/N
C6jBZF9eQL9RKMDol5jB9eSuQKv+E8Ark6TB14OZQL/uPsA4hZvBkfexQKgq8b77M7HBrhA0QIYS
U8DxQJDBYjvWQELEXUBP5JrB8WaJQIKxSEC9lprBydnRQGWIgECmT6bBN+euQN51TECMBqzBGWmi
QJS9dUCbz7bBr9eyQCSpPEAAconBVIRdPwWhYsCvAIXB8OSjQLPRZD/uIbTBBsDBQBi+5j91163B
d7+wQJndTkADDZXBesiHQEp4R0ChH6XB1PlFQGoaQkAfDpXBXbv5QBOnTUAJOpfBtszDPxDmN8A0
xI3BnXj/QEpPMMCK3rbBOjOpQMersMBIp4nBHEbcQIj0ecDNoKfB6SjPQNrBiMCn55fBgCrkQI5T
Db8QE73B9xM+QM/SnMBdoYTBKYiHQNFTC7/tpaPBqP89QKQU67+M1ZzBn47IQG93okBsCqbBr3Dw
QMmRekC8lqrB6n2JQPDqTkDDsbrBnyGWQHVem0AHZbXBwbe+QKL8eECYBrzBTE2SQEjVMkCgUobB
hf3FQP6VAkD6F4jB8c3BQGgHc0BcSoXBwa8Mvi0SR8Di5IPBAYlGP3Smk8CCzYbB2t25P0ISWsDr
RXvB/l6nQGoPiD/KyLzBlmOCQAefhz97yLHBCu/fQBnt8z8rS7LByCXIQMeiqz8vBKbBK1xWQH4D
Q0DBqqjBleQOQFGtPEBTEpnBKcJFQCfJQkBADo3B

> <OMEGA_E>
+D6VPtRbfj9Y8H0/wt19Pwikcj9MNW8/npttP/4ibT8smQQ/

> <OMEGA_NBR>
     20627

$$$$
50218436
  -OEChem-04172616093D

 43 45  0     1  0  0  0  0  0999 V2000
    1.6986   -3.1678  -17.5120 C   0  0  0  0  0  0  0  0  0  0  0  0
    5.1265   -4.4318  -18.2013 C   0  0  0  0  0  0  0  0  0  0  0  0
    7.0176   -0.9914  -22.3051 C   0  0  0  0  0  0  0  0  0  0  0  0
    3.8259   -4.3167  -17.6961 C   0  0  0  0  0  0  0  0  0  0  0  0
    5.6063   -3.4906  -19.1229 C   0  0  0  0  0  0  0  0  0  0  0  0
    6.3721   -1.8869  -21.4440 C   0  0  0  0  0  0  0  0  0  0  0  0
    6.6648    0.3617  -22.2991 C   0  0  0  0  0  0  0  0  0  0  0  0
    3.4687   -2.3051  -19.0526 C   0  0  0  0  0  0  0  0  0  0  0  0
    4.9961   -0.0718  -20.5603 C   0  0  0  0  0  0  0  0  0  0  0  0
    2.9964   -3.2582  -18.1087 C   0  0  0  0  0  0  0  0  0  0  0  0
    4.7905   -2.4196  -19.5707 C   0  0  0  0  0  0  0  0  0  0  0  0
    5.3673   -1.4437  -20.5481 C   0  0  0  0  0  0  0  0  0  0  0  0
    5.6473    0.8428  -21.4426 C   0  0  0  0  0  0  0  0  0  0  0  0
    6.6747    2.9848  -19.4121 C   0  0  0  0  0  0  0  0  0  0  0  0
    4.2492    3.0297  -19.3483 C   0  0  0  0  0  0  0  0  0  0  0  0
    6.5874    3.1418  -20.9319 C   0  0  0  0  0  0  0  0  0  0  0  0
    5.3499    2.3587  -21.4503 C   0  0  1  0  0  0  0  0  0  0  0  0
    5.0279    2.8276  -22.8897 C   0  0  0  0  0  0  0  0  0  0  0  0
    5.5254    3.1232  -17.1921 C   0  0  0  0  0  0  0  0  0  0  0  0
    0.6622   -3.1449  -16.9782 N   0  0  0  0  0  0  0  0  0  0  0  0
    5.4868    3.0026  -18.6675 N   0  0  0  0  0  0  0  0  0  0  0  0
    4.1610    2.7177  -20.6239 N   0  3  0  0  0  0  0  0  0  0  0  0
    3.0744    3.3540  -18.6821 N   0  0  0  0  0  0  0  0  0  0  0  0
    7.7747    3.0079  -18.8711 O   0  0  0  0  0  0  0  0  0  0  0  0
    5.7602   -5.2456  -17.8810 H   0  0  0  0  0  0  0  0  0  0  0  0
    7.7880   -1.3457  -22.9740 H   0  0  0  0  0  0  0  0  0  0  0  0
    3.4580   -5.0434  -16.9869 H   0  0  0  0  0  0  0  0  0  0  0  0
    6.6146   -3.5824  -19.4987 H   0  0  0  0  0  0  0  0  0  0  0  0
    6.6441   -2.9319  -21.4628 H   0  0  0  0  0  0  0  0  0  0  0  0
    7.1761    1.0485  -22.9573 H   0  0  0  0  0  0  0  0  0  0  0  0
    2.8279   -1.4978  -19.3752 H   0  0  0  0  0  0  0  0  0  0  0  0
    4.2180    0.2805  -19.8994 H   0  0  0  0  0  0  0  0  0  0  0  0
    6.4837    4.2067  -21.1874 H   0  0  0  0  0  0  0  0  0  0  0  0
    7.4996    2.7402  -21.3972 H   0  0  0  0  0  0  0  0  0  0  0  0
    4.8176    3.9073  -22.8857 H   0  0  0  0  0  0  0  0  0  0  0  0
    5.8895    2.6244  -23.5427 H   0  0  0  0  0  0  0  0  0  0  0  0
    4.1479    2.2841  -23.2640 H   0  0  0  0  0  0  0  0  0  0  0  0
    4.4991    3.1186  -16.7963 H   0  0  0  0  0  0  0  0  0  0  0  0
    6.0850    2.2757  -16.7696 H   0  0  0  0  0  0  0  0  0  0  0  0
    6.0212    4.0650  -16.9142 H   0  0  0  0  0  0  0  0  0  0  0  0
    3.2596    2.7213  -21.0569 H   0  0  0  0  0  0  0  0  0  0  0  0
    2.2028    3.3447  -19.1722 H   0  0  0  0  0  0  0  0  0  0  0  0
    3.1002    3.5967  -17.7124 H   0  0  0  0  0  0  0  0  0  0  0  0
  1 10  1  0  0  0  0
  1 20  3  0  0  0  0
  2  4  1  0  0  0  0
  2  5  2  0  0  0  0
  3  6  1  0  0  0  0
  3  7  2  0  0  0  0
  4 10  2  0  0  0  0
  5 11  1  0  0  0  0
  6 12  2  0  0  0  0
  7 13  1  0  0  0  0
  8 10  1  0  0  0  0
  8 11  2  0  0  0  0
  9 12  1  0  0  0  0
  9 13  2  0  0  0  0
 11 12  1  0  0  0  0
 13 17  1  0  0  0  0
 14 16  1  0  0  0  0
 14 21  1  0  0  0  0
 14 24  2  0  0  0  0
 15 21  1  0  0  0  0
 15 22  2  0  0  0  0
 15 23  1  0  0  0  0
 16 17  1  0  0  0  0
 17 18  1  0  0  0  0
 17 22  1  0  0  0  0
 19 21  1  0  0  0  0
  2 25  1  0  0  0  0
  3 26  1  0  0  0  0
  4 27  1  0  0  0  0
  5 28  1  0  0  0  0
  6 29  1  0  0  0  0
  7 30  1  0  0  0  0
  8 31  1  0  0  0  0
  9 32  1  0  0  0  0
 16 33  1  0  0  0  0
 16 34  1  0  0  0  0
 18 35  1  0  0  0  0
 18 36  1  0  0  0  0
 18 37  1  0  0  0  0
 19 38  1  0  0  0  0
 19 39  1  0  0  0  0
 19 40  1  0  0  0  0
 22 41  1  0  0  0  0
 23 42  1  0  0  0  0
 23 43  1  0  0  0  0
M  CHG  1  22   1
M  END
> <OMEGA_C>
QG3ZP5m8SsCOGIzBWAykQGnRjcA1nJHBK5DgQJLPfb/ecLLB/tp0QI0iisCckY3Bv2azQF9mX8C/
+5jBEOjLQE6G8b9mjavBvEXVQIoquT5+ZLLBvv9dQIyGE8C6a5jBCuCfQLALk72Oe6TBEMU/QN+F
UMCV3pDB7UuZQGXbGsDVkJzBT8GrQIzMuL+LYqTBs7a0QOHEVz9siqvBJpfVQIcHP0AETJvBifmH
QCvnQUBiyZrB98vSQN4TSUB8dKfBGjKrQFn1FkBHmqvBy+SgQHz3NEAQHrfBAdCwQBXjR0BsiYnB
64MpPyJGScBZ04fB6JOvQE4rQED4VpXBzyaFQEDuLUCm/aTBjMNEQNenVkAHdZXBkMr4QL6BQED7
95bBflO4QALcp8BDDI/BbDf5QB0/rL+0yrfBUU9dQMpjocA15YfBLqvTQH9GZcBN/ZvBF5zUQNak
O8Dbs6vBZaLlQLE0hj98qLfBKfw0QEa5v79sAJvB1vmGQHCZjz7pMZ/BjXrPQGadhkDHf6nB3vzv
QAZgL0CRLavBtymaQDgRekD5FbfBsHa8QEf2J0BvV7zBcruEQLwuEkCvHLrBTfiPQFyXR0DpXobB
KrjCQOikEUAYKIbBbq3AQJ4UgkA0UIfB8J1QQBkqLkCZdKjBAfsMQE4QVkDCYJnBAmpGQHYwZkD4
so3B89bsQAoKjr/AJHbBIYa2QKz7dMAvqorB8xG5QA7KrL/DdLTBFOrJQDCASMDeJYLBaReyQMuf
TcBQvJTBCBO9QLcm/78CgqrBhlO0QGzORT1x/rTBi5HUQBqfmb8SxI3BKWu2QI+KID6xkaHB+ffY
QKet6L8UsoPB6wDBQAc98r83YJbBmSO8QJCNnr8C96DB5s2yQOPfUz9PgavBV7rWQCv5QkCpAZvB
2IWIQDk2QkBHApvB6zLWQCM8RUCkSKfBgZutQAXbF0DExavBYkGmQCjLOUDWULfBMtyvQC4/SUBH
e4nBaQn9QJMXCL/oG2jBvtOvQEoOSUCOX5XB/hiHQNT5MEB/WaXBYj9DQODKSkB+qZXBQVD5QCws
QEAlXpbBWQarQHK6msCNd4nBD6O5QFlL97+Fu7vBokDNQNrbZsCa3HTBij2jQB0WcMB1PZvBnt7A
QPs4RMASKqrBc9KxQLlXCD/tsLzBRyrgQMr+Rb6m747Bzb60QGDsOj9jQprB0FnWQCAjhEBJ+KnB
ruDyQLOCJEB2VarBpMKiQC7Uf0CoH7fBCMnBQBuYKEBKXLzBWgSJQJP1HECeorrBBMmOQE5jTkAj
iobBqDW+QDJvDUBniYbBLp/CQGIHgED3kIbBlrxVQNnjNEDQFanBYzoMQHvoQ0A4qJnB7XFCQG3V
V0Cg1I3B

> <OMEGA_E>
QPtxPqSMaD8=

> <OMEGA_NBR>
     22415

$$$$
50215525
  -OEChem-04172616093D

 47 50  0     1  0  0  0  0  0999 V2000
    7.1352   -0.9658  -22.2312 C   0  0  0  0  0  0  0  0  0  0  0  0
    4.9663   -4.3758  -18.1179 C   0  0  0  0  0  0  0  0  0  0  0  0
    6.4346   -1.9219  -21.4751 C   0  0  0  0  0  0  0  0  0  0  0  0
    5.5464   -3.5554  -19.0999 C   0  0  0  0  0  0  0  0  0  0  0  0
    6.9008    0.4060  -22.0253 C   0  0  0  0  0  0  0  0  0  0  0  0
    3.6594   -4.1194  -17.6608 C   0  0  0  0  0  0  0  0  0  0  0  0
    5.2233   -0.1322  -20.3466 C   0  0  0  0  0  0  0  0  0  0  0  0
    3.4977   -2.2310  -19.1892 C   0  0  0  0  0  0  0  0  0  0  0  0
    5.4792   -1.5043  -20.5231 C   0  0  0  0  0  0  0  0  0  0  0  0
    4.8205   -2.4662  -19.6261 C   0  0  0  0  0  0  0  0  0  0  0  0
    5.9223    0.8355  -21.0920 C   0  0  0  0  0  0  0  0  0  0  0  0
    2.9104   -3.0407  -18.2024 C   0  0  0  0  0  0  0  0  0  0  0  0
    6.4302    2.7944  -19.5884 C   0  0  0  0  0  0  0  0  0  0  0  0
    4.1852    3.1071  -19.2602 C   0  0  0  0  0  0  0  0  0  0  0  0
    5.2837    2.8327  -23.3588 C   0  0  0  0  0  0  0  0  0  0  0  0
    5.0270    4.1749  -22.6667 C   0  0  0  0  0  0  0  0  0  0  0  0
    6.0254    3.1730  -22.0569 C   0  0  0  0  0  0  0  0  0  0  0  0
    5.6719    2.3231  -20.8147 C   0  0  1  0  0  0  0  0  0  0  0  0
    5.6914    3.3882  -17.2558 C   0  0  0  0  0  0  0  0  0  0  0  0
    1.0823   -3.4246  -16.6666 C   0  0  0  0  0  0  0  0  0  0  0  0
    5.4633    3.2401  -18.6994 N   0  0  0  0  0  0  0  0  0  0  0  0
    4.2644    2.5396  -20.4397 N   0  3  0  0  0  0  0  0  0  0  0  0
    2.9945    3.4942  -18.6656 N   0  0  0  0  0  0  0  0  0  0  0  0
    7.6462    2.8369  -19.4384 O   0  0  0  0  0  0  0  0  0  0  0  0
    1.6204   -2.7155  -17.8051 O   0  0  0  0  0  0  0  0  0  0  0  0
    7.8543   -1.2849  -22.9711 H   0  0  0  0  0  0  0  0  0  0  0  0
    5.5248   -5.2064  -17.7121 H   0  0  0  0  0  0  0  0  0  0  0  0
    6.6270   -2.9744  -21.6223 H   0  0  0  0  0  0  0  0  0  0  0  0
    6.5472   -3.7584  -19.4516 H   0  0  0  0  0  0  0  0  0  0  0  0
    7.4694    1.1368  -22.5811 H   0  0  0  0  0  0  0  0  0  0  0  0
    3.2247   -4.7452  -16.8955 H   0  0  0  0  0  0  0  0  0  0  0  0
    4.4802    0.1829  -19.6290 H   0  0  0  0  0  0  0  0  0  0  0  0
    2.9307   -1.4186  -19.6192 H   0  0  0  0  0  0  0  0  0  0  0  0
    4.5036    2.0571  -23.3599 H   0  0  0  0  0  0  0  0  0  0  0  0
    5.8324    2.8021  -24.3117 H   0  0  0  0  0  0  0  0  0  0  0  0
    5.3922    5.1072  -23.1220 H   0  0  0  0  0  0  0  0  0  0  0  0
    4.0634    4.3623  -22.1702 H   0  0  0  0  0  0  0  0  0  0  0  0
    7.0886    3.4332  -22.1670 H   0  0  0  0  0  0  0  0  0  0  0  0
    4.7730    3.7558  -16.7747 H   0  0  0  0  0  0  0  0  0  0  0  0
    5.9652    2.4133  -16.8260 H   0  0  0  0  0  0  0  0  0  0  0  0
    6.5071    4.1062  -17.0853 H   0  0  0  0  0  0  0  0  0  0  0  0
    0.0609   -3.0707  -16.4629 H   0  0  0  0  0  0  0  0  0  0  0  0
    1.0604   -4.5028  -16.8833 H   0  0  0  0  0  0  0  0  0  0  0  0
    1.7164   -3.2402  -15.7869 H   0  0  0  0  0  0  0  0  0  0  0  0
    3.4789    2.2889  -21.0055 H   0  0  0  0  0  0  0  0  0  0  0  0
    2.1270    3.3448  -19.1400 H   0  0  0  0  0  0  0  0  0  0  0  0
    3.0030    3.9228  -17.7621 H   0  0  0  0  0  0  0  0  0  0  0  0
  1  3  1  0  0  0  0
  1  5  2  0  0  0  0
  2  4  2  0  0  0  0
  2  6  1  0  0  0  0
  3  9  2  0  0  0  0
  4 10  1  0  0  0  0
  5 11  1  0  0  0  0
  6 12  2  0  0  0  0
  7  9  1  0  0  0  0
  7 11  2  0  0  0  0
  8 10  2  0  0  0  0
  8 12  1  0  0  0  0
  9 10  1  0  0  0  0
 11 18  1  0  0  0  0
 12 25  1  0  0  0  0
 13 18  1  0  0  0  0
 13 21  1  0  0  0  0
 13 24  2  0  0  0  0
 14 21  1  0  0  0  0
 14 22  2  0  0  0  0
 14 23  1  0  0  0  0
 15 16  1  0  0  0  0
 15 17  1  0  0  0  0
 16 17  1  0  0  0  0
 17 18  1  0  0  0  0
 18 22  1  0  0  0  0
 19 21  1  0  0  0  0
 20 25  1  0  0  0  0
  1 26  1  0  0  0  0
  2 27  1  0  0  0  0
  3 28  1  0  0  0  0
  4 29  1  0  0  0  0
  5 30  1  0  0  0  0
  6 31  1  0  0  0  0
  7 32  1  0  0  0  0
  8 33  1  0  0  0  0
 15 34  1  0  0  0  0
 15 35  1  0  0  0  0
 16 36  1  0  0  0  0
 16 37  1  0  0  0  0
 17 38  1  0  0  0  0
 19 39  1  0  0  0  0
 19 40  1  0  0  0  0
 19 41  1  0  0  0  0
 20 42  1  0  0  0  0
 20 43  1  0  0  0  0
 20 44  1  0  0  0  0
 22 45  1  0  0  0  0
 23 46  1  0  0  0  0
 23 47  1  0  0  0  0
M  CHG  1  22   1
M  END
> <OMEGA_C>
h1PkQDA/d7+H2bHB3+ueQPEGjMBk8ZDBe+jNQB8B9r8SzavBU3yxQJGLY8CJzJjBWtPcQInczz67
M7DB3TJqQMTRg8BRSY3BfSWnQNFfB77IxaLBo9lfQK3IDsB5g5nB+lWvQACMwL9pL6TBTEGaQL3V
HcApAp3BgIO9QJrhVT9kvKjBekM6QK+aQsBqnpHB5MPNQJTXMkARtZzB0eyFQBLbRkDpFJrBNBSp
QFVKNUDj3rrBDd2gQOqYhUBQVbXBetDAQCITS0CCdLDB1X+1QNitFECQhKbB2h+2QM3XWEDIC4rB
HIqKP+crW8BJVYXBP9OuQDddT0BlmJXBS3aIQPKIIkCKhKPBDaY/QMqgX0AdU5XB1a30QJCQNUDd
gZvBtmrPPxPKLcDQcI7BU1b7QAZ3pL/oxLfBjcuwQG+apsBNso3BZRDUQIJcPsCC+qzBd4LRQDqJ
cMDVnJvB9wTvQJODkT8tprTBSGFOQOjYl8DlKYfBiV2PQMY/Oz5HCJ3B7I87QDyUtb8c9JzBnx2Q
QBmoA0AZ4brBMaO6QP1VM0BlfsLBEY2sQIduo0Du+bjBfweCQJWXi0ChXLHBidXiQOC4W0D8VbHB
abyYQF9fcECfMobBOOO+QMhzGkCzm4bBRjrQQN5lg0C7rojB0H95PcyGRMActIPBwLmHP7wWkMAU
EYfBPbLbP9RfT8D6lnzBMKZeQEJ9EkAsC6jBZyAIQNsRVkC+HpnBJjFAQDgPe0DaGI7B

> <OMEGA_E>
eA1nPg==

> <OMEGA_NBR>
     23504

$$$$
50218462
  -OEChem-04172616093D

 41 43  0     1  0  0  0  0  0999 V2000
    6.8994   -1.1605  -22.1844 C   0  0  0  0  0  0  0  0  0  0  0  0
    4.4962   -4.2078  -17.8606 C   0  0  0  0  0  0  0  0  0  0  0  0
    6.2641   -1.9971  -21.2492 C   0  0  0  0  0  0  0  0  0  0  0  0
    5.2062   -3.4485  -18.8079 C   0  0  0  0  0  0  0  0  0  0  0  0
    6.5670    0.2042  -22.2560 C   0  0  0  0  0  0  0  0  0  0  0  0
    4.9496   -0.0972  -20.4599 C   0  0  0  0  0  0  0  0  0  0  0  0
    3.1597   -3.8692  -17.5612 C   0  0  0  0  0  0  0  0  0  0  0  0
    3.2112   -2.0885  -19.0840 C   0  0  0  0  0  0  0  0  0  0  0  0
    5.2734   -1.4741  -20.3874 C   0  0  0  0  0  0  0  0  0  0  0  0
    4.5622   -2.3517  -19.4215 C   0  0  0  0  0  0  0  0  0  0  0  0
    5.5894    0.7570  -21.3938 C   0  0  0  0  0  0  0  0  0  0  0  0
    6.6651    2.9490  -19.4285 C   0  0  0  0  0  0  0  0  0  0  0  0
    4.2401    2.9860  -19.3195 C   0  0  0  0  0  0  0  0  0  0  0  0
    6.5569    3.0586  -20.9529 C   0  0  0  0  0  0  0  0  0  0  0  0
    5.3061    2.2781  -21.4353 C   0  0  1  0  0  0  0  0  0  0  0  0
    4.9632    2.7176  -22.8773 C   0  0  0  0  0  0  0  0  0  0  0  0
    5.5552    3.0917  -17.1875 C   0  0  0  0  0  0  0  0  0  0  0  0
    2.5399   -2.8352  -18.1765 N   0  0  0  0  0  0  0  0  0  0  0  0
    5.4902    2.9709  -18.6627 N   0  0  0  0  0  0  0  0  0  0  0  0
    4.1318    2.6739  -20.5947 N   0  3  0  0  0  0  0  0  0  0  0  0
    3.0742    3.2873  -18.6252 N   0  0  0  0  0  0  0  0  0  0  0  0
    7.7730    2.9989  -18.9060 O   0  0  0  0  0  0  0  0  0  0  0  0
    7.6458   -1.5677  -22.8504 H   0  0  0  0  0  0  0  0  0  0  0  0
    4.9701   -5.0431  -17.3665 H   0  0  0  0  0  0  0  0  0  0  0  0
    6.5337   -3.0412  -21.1895 H   0  0  0  0  0  0  0  0  0  0  0  0
    6.2255   -3.6996  -19.0614 H   0  0  0  0  0  0  0  0  0  0  0  0
    7.0629    0.8376  -22.9767 H   0  0  0  0  0  0  0  0  0  0  0  0
    4.2032    0.3088  -19.7932 H   0  0  0  0  0  0  0  0  0  0  0  0
    2.6200   -4.4471  -16.8256 H   0  0  0  0  0  0  0  0  0  0  0  0
    2.7018   -1.2669  -19.5655 H   0  0  0  0  0  0  0  0  0  0  0  0
    6.4632    4.1164  -21.2396 H   0  0  0  0  0  0  0  0  0  0  0  0
    7.4582    2.6314  -21.4169 H   0  0  0  0  0  0  0  0  0  0  0  0
    4.7641    3.7993  -22.8939 H   0  0  0  0  0  0  0  0  0  0  0  0
    5.8106    2.4907  -23.5409 H   0  0  0  0  0  0  0  0  0  0  0  0
    4.0710    2.1753  -23.2234 H   0  0  0  0  0  0  0  0  0  0  0  0
    4.5360    3.0905  -16.7737 H   0  0  0  0  0  0  0  0  0  0  0  0
    6.1194    2.2424  -16.7747 H   0  0  0  0  0  0  0  0  0  0  0  0
    6.0588    4.0319  -16.9186 H   0  0  0  0  0  0  0  0  0  0  0  0
    3.2270    2.7024  -21.0195 H   0  0  0  0  0  0  0  0  0  0  0  0
    2.1919    3.2625  -19.0952 H   0  0  0  0  0  0  0  0  0  0  0  0
    3.1178    3.5287  -17.6558 H   0  0  0  0  0  0  0  0  0  0  0  0
  1  3  1  0  0  0  0
  1  5  2  0  0  0  0
  2  4  2  0  0  0  0
  2  7  1  0  0  0  0
  3  9  2  0  0  0  0
  4 10  1  0  0  0  0
  5 11  1  0  0  0  0
  6  9  1  0  0  0  0
  6 11  2  0  0  0  0
  7 18  2  0  0  0  0
  8 10  2  0  0  0  0
  8 18  1  0  0  0  0
  9 10  1  0  0  0  0
 11 15  1  0  0  0  0
 12 14  1  0  0  0  0
 12 19  1  0  0  0  0
 12 22  2  0  0  0  0
 13 19  1  0  0  0  0
 13 20  2  0  0  0  0
 13 21  1  0  0  0  0
 14 15  1  0  0  0  0
 15 16  1  0  0  0  0
 15 20  1  0  0  0  0
 17 19  1  0  0  0  0
  1 23  1  0  0  0  0
  2 24  1  0  0  0  0
  3 25  1  0  0  0  0
  4 26  1  0  0  0  0
  5 27  1  0  0  0  0
  6 28  1  0  0  0  0
  7 29  1  0  0  0  0
  8 30  1  0  0  0  0
 14 31  1  0  0  0  0
 14 32  1  0  0  0  0
 16 33  1  0  0  0  0
 16 34  1  0  0  0  0
 16 35  1  0  0  0  0
 17 36  1  0  0  0  0
 17 37  1  0  0  0  0
 17 38  1  0  0  0  0
 20 39  1  0  0  0  0
 21 40  1  0  0  0  0
 21 41  1  0  0  0  0
M  CHG  1  20   1
M  END
> <OMEGA_C>
BsjcQG2KlL+gebHB3uCPQAimhsCQ4o7BK3PIQFyi/79a/qnBRZmmQMKzXMCBdpbBoiTSQOAjUT5A
DLLB+WKeQHQOx734raPBITlKQKygd8BgfYzBLIRNQIqpBcD0q5jBpL+oQNqvvL9uGaPBKf2RQEqC
FsAxX5vBrtyyQC7JQT98JqvBxkjVQCi9PECqbZvBkq6HQO4aP0BPjprBe9LRQAjAQ0CTn6fBZ8up
QBzMEUB6e6vBhdKeQNjtLUCuBLfB+cOxQBLeRUAAgInBT40iQKx0NcCAaZHBoq+vQM4iPkBATZXB
5jeEQIogK0AMwqTB3L9EQHBiUkB8AJXBf7z4QGruP0ByP5fBEKr0QG+ryL+HzbbB5AqfQMhgocCv
7orBGRTRQJWjQsAWhKnBqDfHQJrGbMDAfZjBFAPiQE1rVj8u0LfB8oCGQNcfnj6IWJ7B7q0nQMxO
jsDumobB9+ksQOMpor89hpzBaNLOQNS5g0Cz6qnBY6nuQIRpKEDkVavBIHOYQFooc0CnJrfBePC5
QDpoH0DQU7zBSEWCQJk4C0CMybnBlCaRQETKRUCbMIbBxtHDQGyDD0CPMobB6eHBQEcFgUA3WYfB
h4ZOQMz0LEDsJ6jBhUcMQHDNUEDzwpjBrolHQFDWYUAVP43B+wLgQEDdiL9gx7HBYEo1QAaaSsCx
LZHBHZHLQOSZ+b+WsarB5PdXQGh+EMAYmZjB13/UQEpSkj77ArLBzkyfQNjk5710D6TBjB5oQONm
h8Atao3B/u2tQCrEYsBBBJjBjRCrQJJGvr/UvqPBKJmWQObqG8A9FpzBIQ60QC1qST/xNavBx3nV
QAgCQEApeJvB8+iHQKpGQUBPmZrBpcrRQMEJR0CvpKfBwyGqQJN0E0BpdqvBLOWeQIOKL0B0/rbB
cvqxQMKGSkDojonBjMCcQBECjcC82pDB6umvQEWSQUCIV5XBJ3OEQDtBK0C3uqTBDDhFQOv+VUBb
IpXB0fj4QF47Q0CzT5fBN7D4QEDMt7+rEbfBUJ7oP5gLQ8CnY47B/rnUQBhwP8Aai6rBkP4xQNzS
t7+MlZvBop7kQJ7DdD/2dLfBj2OGQC51gD7w057BkJBNQF6FncBhqofBLF7OQEfrbMC0tprB3RbO
QIhQhUBw7KnBP9XuQDffLECNY6vBteaXQFuIdEBqGLfBzSK6QFsmIkBXT7zBq6iCQGLkC0A8x7nB
912RQONiSkD1PobBijPEQFC8FEC3K4bBgOnBQDWOg0D6gIfB8rdOQGdrKkCKD6jBLtAMQPXfU0Ce
55jBcu1HQNUHZ0Ajbo3B

> <OMEGA_E>
sOeGPozmoT4=

> <OMEGA_NBR>
     25236

$$$$
50145446
  -OEChem-04172616093D

 38 39  0     1  0  0  0  0  0999 V2000
    6.0608   -3.3219  -20.6031 C   0  0  0  0  0  0  0  0  0  0  0  0
    5.0416   -2.7022  -19.8515 C   0  0  0  0  0  0  0  0  0  0  0  0
    6.6877   -2.6245  -21.6553 C   0  0  0  0  0  0  0  0  0  0  0  0
    4.6456   -1.3852  -20.1538 C   0  0  0  0  0  0  0  0  0  0  0  0
    6.2849   -1.3131  -21.9667 C   0  0  0  0  0  0  0  0  0  0  0  0
    5.2532   -0.6974  -21.2267 C   0  0  0  0  0  0  0  0  0  0  0  0
    6.7536    3.6570  -18.8531 C   0  0  0  0  0  0  0  0  0  0  0  0
    4.3361    3.4269  -18.9902 C   0  0  0  0  0  0  0  0  0  0  0  0
    6.7799    3.9445  -20.3639 C   0  0  0  0  0  0  0  0  0  0  0  0
    5.6403    3.1484  -21.0412 C   0  0  1  0  0  0  0  0  0  0  0  0
    5.4618    3.6329  -22.4957 C   0  0  0  0  0  0  0  0  0  0  0  0
    5.4500    3.2286  -16.7545 C   0  0  0  0  0  0  0  0  0  0  0  0
    4.8723    0.7290  -21.5262 C   0  0  0  0  0  0  0  0  0  0  0  0
    5.9972    1.6368  -21.0005 C   0  0  0  0  0  0  0  0  0  0  0  0
    5.5223    3.4043  -18.2228 N   0  0  0  0  0  0  0  0  0  0  0  0
    4.3741    3.4085  -20.3039 N   0  3  0  0  0  0  0  0  0  0  0  0
    3.0889    3.4556  -18.3799 N   0  0  0  0  0  0  0  0  0  0  0  0
    7.8011    3.7105  -18.2190 O   0  0  0  0  0  0  0  0  0  0  0  0
    6.3619   -4.3330  -20.3720 H   0  0  0  0  0  0  0  0  0  0  0  0
    4.5645   -3.2377  -19.0440 H   0  0  0  0  0  0  0  0  0  0  0  0
    7.4766   -3.0965  -22.2220 H   0  0  0  0  0  0  0  0  0  0  0  0
    3.8789   -0.9022  -19.5662 H   0  0  0  0  0  0  0  0  0  0  0  0
    6.7653   -0.7776  -22.7722 H   0  0  0  0  0  0  0  0  0  0  0  0
    6.6336    5.0207  -20.5383 H   0  0  0  0  0  0  0  0  0  0  0  0
    7.7482    3.6334  -20.7829 H   0  0  0  0  0  0  0  0  0  0  0  0
    4.6507    3.0650  -22.9749 H   0  0  0  0  0  0  0  0  0  0  0  0
    5.2099    4.7037  -22.4970 H   0  0  0  0  0  0  0  0  0  0  0  0
    6.3977    3.4756  -23.0519 H   0  0  0  0  0  0  0  0  0  0  0  0
    4.4074    3.0412  -16.4580 H   0  0  0  0  0  0  0  0  0  0  0  0
    6.0751    2.3740  -16.4563 H   0  0  0  0  0  0  0  0  0  0  0  0
    5.8140    4.1401  -16.2579 H   0  0  0  0  0  0  0  0  0  0  0  0
    4.7578    0.8656  -22.6117 H   0  0  0  0  0  0  0  0  0  0  0  0
    3.9258    0.9769  -21.0236 H   0  0  0  0  0  0  0  0  0  0  0  0
    6.8937    1.4734  -21.6166 H   0  0  0  0  0  0  0  0  0  0  0  0
    6.2124    1.3573  -19.9586 H   0  0  0  0  0  0  0  0  0  0  0  0
    3.5332    3.5731  -20.8196 H   0  0  0  0  0  0  0  0  0  0  0  0
    2.2591    3.4617  -18.9380 H   0  0  0  0  0  0  0  0  0  0  0  0
    3.0206    3.4702  -17.3823 H   0  0  0  0  0  0  0  0  0  0  0  0
  1  2  1  0  0  0  0
  1  3  2  0  0  0  0
  2  4  2  0  0  0  0
  3  5  1  0  0  0  0
  4  6  1  0  0  0  0
  5  6  2  0  0  0  0
  6 13  1  0  0  0  0
  7  9  1  0  0  0  0
  7 15  1  0  0  0  0
  7 18  2  0  0  0  0
  8 15  1  0  0  0  0
  8 16  2  0  0  0  0
  8 17  1  0  0  0  0
  9 10  1  0  0  0  0
 10 11  1  0  0  0  0
 10 14  1  0  0  0  0
 10 16  1  0  0  0  0
 12 15  1  0  0  0  0
 13 14  1  0  0  0  0
  1 19  1  0  0  0  0
  2 20  1  0  0  0  0
  3 21  1  0  0  0  0
  4 22  1  0  0  0  0
  5 23  1  0  0  0  0
  9 24  1  0  0  0  0
  9 25  1  0  0  0  0
 11 26  1  0  0  0  0
 11 27  1  0  0  0  0
 11 28  1  0  0  0  0
 12 29  1  0  0  0  0
 12 30  1  0  0  0  0
 12 31  1  0  0  0  0
 13 32  1  0  0  0  0
 13 33  1  0  0  0  0
 14 34  1  0  0  0  0
 14 35  1  0  0  0  0
 16 36  1  0  0  0  0
 17 37  1  0  0  0  0
 17 38  1  0  0  0  0
M  CHG  1  16   1
M  END
> <OMEGA_C>
efLBQGOZVMAN06TBgFShQHjxLMDdz57BdAHWQKD3J8D1Pa3BF6mUQKtNsb/vOqHBrx3JQEIUqL/U
u6/BHhqoQMSIMr9C0KnB2B3YQPUMakAk05bBU8GKQLRRW0D365fBqPTYQD5yfEBR6aLBpH20QB9/
SUBpVKjB8cauQFOBaEAi97PBEmauQK+hTkA7CYbB4+mbQHKgOj+7NazBu+i/QDiB0T/9AKjBzbaw
QF7fWUBjyJHBi/iLQIslWkB4bqLBD7BFQI8oXUANCpPB/aL5QJh5bUBrwJHB/5TLQMenisDd+aLB
HxCSQJo2T8AcWpjBgEDvQPYsRsCbxrHBIEB4QBH3Zr+Lh5zB/3zYQOMQR7+FLbbBwkbUQFapoEB9
TqTBOfH3QCOJaEBnQ6bBudKUQAUpRECjzLfB4LemQIOElkDd+bPBu7nMQOtwXkBIarjBKAmNQHaj
QkAWqoPB7WbCQO7vF0CVpoPBogy6QAF8hEBDEILBMECYQEOZXT/E5LTBqz97QPsXej9sMKjB1Zjc
QE6ZvD/T7qzBGMzGQPW7rT8qq5/BjCBiQO6tZEB+jqbBppUQQAiNXUAVgZfBEVFBQB0XXkAND4vB
e1HCQBpnfkD/WJTB64imQAZ7OEAkzpLBetnMQI+SjEA1y57BEvuUQCLPDUDztZvBZqK8QOh6bEAL
tqfB0N2gQAo/JkCsN6bBOlDUQITIMMAchKjBfWmUQMPY8L/I3p/BCeLRQJEozb89mrDBlhzAQGi+
rb6F7KrBVDXkQICKRj65WKPBIkmwQEH6g8D2OprBGAGSQBs65T9106/ByIWzQFY4Oz9fkrPByeCz
QP4FOcAsxKDBWtyYQA6AOb9uwaTB/ARgQMxcBMAImJnBYunwQLIQZsCObanBho7PQL3Ej0CHho3B
kbOeQNOcI0D6zYrBAWHhQC/6p0DR9p/Bjc98QP2rtD85h5rBAXjFQOsCgEDpsq/BaQ7yQF4bsr8q
v7PBn4u8QKLQ8L+yPLfBx9XYQKnviz8VJ5/B2XLsQFjwFL/2dJ3Bz1kAQcOP4z7jG6jB7R+VQMnx
gMAyr5TBah6rQL6hn8D2hJ/BbvXNQAShiMA6pJXBs3RoQHtmoj+Ir63B5MmLQDHnHkDOfLbBjMXQ
QBbqoT8I+LXB4jCmQJvtTT49hrrBhMuAQH+Gir0DVaTBYMc0QC32qr+k7ZjBZQxXQGnOO8AlwpXB

> <OMEGA_E>
QLUQPc7giD8=

> <OMEGA_NBR>
      1645

$$$$
50145427
  -OEChem-04172616093D

 52 54  0     1  0  0  0  0  0999 V2000
    6.3813   -2.7343  -21.8977 C   0  0  0  0  0  0  0  0  0  0  0  0
    5.8431   -4.8195  -16.6760 C   0  0  0  0  0  0  0  0  0  0  0  0
    6.0831   -3.3304  -20.6632 C   0  0  0  0  0  0  0  0  0  0  0  0
    5.3494   -4.3585  -17.9101 C   0  0  0  0  0  0  0  0  0  0  0  0
    5.9518   -1.4234  -22.1635 C   0  0  0  0  0  0  0  0  0  0  0  0
    6.5774   -3.9547  -15.8358 C   0  0  0  0  0  0  0  0  0  0  0  0
    4.8971   -1.3123  -19.9664 C   0  0  0  0  0  0  0  0  0  0  0  0
    6.2523   -2.1403  -17.4243 C   0  0  0  0  0  0  0  0  0  0  0  0
    5.3934   -2.5980  -19.6747 C   0  0  0  0  0  0  0  0  0  0  0  0
    5.5623   -3.0176  -18.2878 C   0  0  0  0  0  0  0  0  0  0  0  0
    5.1701   -0.7297  -21.2177 C   0  0  0  0  0  0  0  0  0  0  0  0
    6.7966   -2.6015  -16.2137 C   0  0  0  0  0  0  0  0  0  0  0  0
    6.7561    3.6871  -18.8513 C   0  0  0  0  0  0  0  0  0  0  0  0
    4.3331    3.4754  -18.9919 C   0  0  0  0  0  0  0  0  0  0  0  0
    6.8036    3.8931  -20.3716 C   0  0  0  0  0  0  0  0  0  0  0  0
    5.6461    3.1033  -21.0229 C   0  0  1  0  0  0  0  0  0  0  0  0
    5.4917    3.5467  -22.4938 C   0  0  0  0  0  0  0  0  0  0  0  0
    5.4340    3.4060  -16.7403 C   0  0  0  0  0  0  0  0  0  0  0  0
    8.2342   -2.1977  -14.3003 C   0  0  0  0  0  0  0  0  0  0  0  0
    4.8039    0.7054  -21.4649 C   0  0  0  0  0  0  0  0  0  0  0  0
    5.9531    1.5834  -20.9332 C   0  0  0  0  0  0  0  0  0  0  0  0
    5.5093    3.5722  -18.2115 N   0  0  0  0  0  0  0  0  0  0  0  0
    4.3820    3.4161  -20.3043 N   0  3  0  0  0  0  0  0  0  0  0  0
    3.0794    3.4223  -18.3960 N   0  0  0  0  0  0  0  0  0  0  0  0
    7.8055    3.7075  -18.2181 O   0  0  0  0  0  0  0  0  0  0  0  0
    7.5663   -1.6997  -15.4842 O   0  0  0  0  0  0  0  0  0  0  0  0
    6.9398   -3.2821  -22.6422 H   0  0  0  0  0  0  0  0  0  0  0  0
    5.6596   -5.8389  -16.3701 H   0  0  0  0  0  0  0  0  0  0  0  0
    6.3816   -4.3501  -20.4698 H   0  0  0  0  0  0  0  0  0  0  0  0
    4.8106   -5.0281  -18.5641 H   0  0  0  0  0  0  0  0  0  0  0  0
    6.2211   -0.9462  -23.0941 H   0  0  0  0  0  0  0  0  0  0  0  0
    6.9747   -4.3227  -14.9014 H   0  0  0  0  0  0  0  0  0  0  0  0
    4.3107   -0.7771  -19.2342 H   0  0  0  0  0  0  0  0  0  0  0  0
    6.3633   -1.1012  -17.6973 H   0  0  0  0  0  0  0  0  0  0  0  0
    6.6955    4.9632  -20.6023 H   0  0  0  0  0  0  0  0  0  0  0  0
    7.7648    3.5288  -20.7632 H   0  0  0  0  0  0  0  0  0  0  0  0
    4.6685    2.9868  -22.9616 H   0  0  0  0  0  0  0  0  0  0  0  0
    5.2701    4.6235  -22.5307 H   0  0  0  0  0  0  0  0  0  0  0  0
    6.4268    3.3459  -23.0372 H   0  0  0  0  0  0  0  0  0  0  0  0
    4.3804    3.3348  -16.4323 H   0  0  0  0  0  0  0  0  0  0  0  0
    5.9643    2.4878  -16.4475 H   0  0  0  0  0  0  0  0  0  0  0  0
    5.9017    4.2720  -16.2491 H   0  0  0  0  0  0  0  0  0  0  0  0
    8.8013   -1.3819  -13.8281 H   0  0  0  0  0  0  0  0  0  0  0  0
    7.4859   -2.5820  -13.5916 H   0  0  0  0  0  0  0  0  0  0  0  0
    8.9230   -3.0079  -14.5816 H   0  0  0  0  0  0  0  0  0  0  0  0
    4.6699    0.8770  -22.5431 H   0  0  0  0  0  0  0  0  0  0  0  0
    3.8708    0.9499  -20.9360 H   0  0  0  0  0  0  0  0  0  0  0  0
    6.8572    1.3729  -21.5234 H   0  0  0  0  0  0  0  0  0  0  0  0
    6.1343    1.3238  -19.8797 H   0  0  0  0  0  0  0  0  0  0  0  0
    3.5495    3.5853  -20.8319 H   0  0  0  0  0  0  0  0  0  0  0  0
    2.2594    3.3421  -18.9627 H   0  0  0  0  0  0  0  0  0  0  0  0
    2.9969    3.4643  -17.4003 H   0  0  0  0  0  0  0  0  0  0  0  0
  1  3  1  0  0  0  0
  1  5  2  0  0  0  0
  2  4  2  0  0  0  0
  2  6  1  0  0  0  0
  3  9  2  0  0  0  0
  4 10  1  0  0  0  0
  5 11  1  0  0  0  0
  6 12  2  0  0  0  0
  7  9  1  0  0  0  0
  7 11  2  0  0  0  0
  8 10  2  0  0  0  0
  8 12  1  0  0  0  0
  9 10  1  0  0  0  0
 11 20  1  0  0  0  0
 12 26  1  0  0  0  0
 13 15  1  0  0  0  0
 13 22  1  0  0  0  0
 13 25  2  0  0  0  0
 14 22  1  0  0  0  0
 14 23  2  0  0  0  0
 14 24  1  0  0  0  0
 15 16  1  0  0  0  0
 16 17  1  0  0  0  0
 16 21  1  0  0  0  0
 16 23  1  0  0  0  0
 18 22  1  0  0  0  0
 19 26  1  0  0  0  0
 20 21  1  0  0  0  0
  1 27  1  0  0  0  0
  2 28  1  0  0  0  0
  3 29  1  0  0  0  0
  4 30  1  0  0  0  0
  5 31  1  0  0  0  0
  6 32  1  0  0  0  0
  7 33  1  0  0  0  0
  8 34  1  0  0  0  0
 15 35  1  0  0  0  0
 15 36  1  0  0  0  0
 17 37  1  0  0  0  0
 17 38  1  0  0  0  0
 17 39  1  0  0  0  0
 18 40  1  0  0  0  0
 18 41  1  0  0  0  0
 18 42  1  0  0  0  0
 19 43  1  0  0  0  0
 19 44  1  0  0  0  0
 19 45  1  0  0  0  0
 20 46  1  0  0  0  0
 20 47  1  0  0  0  0
 21 48  1  0  0  0  0
 21 49  1  0  0  0  0
 23 50  1  0  0  0  0
 24 51  1  0  0  0  0
 24 52  1  0  0  0  0
M  CHG  1  23   1
M  END
> <OMEGA_C>
NjPMQM/+LsCDLq/BlPq6QEw5msBfaIXBiqjCQKskVcAyTqXBYS6rQMx4i8DqR4/BInW+QGIwtr/B
TrHBDnrSQLkZfcCHX33BSbWcQLr4p79Iu5/BnRLIQPH5CMDqZIvBEpesQHFFJsDNZZ3BL/6xQI0g
QcBzTZLBq3GlQETLOr/nvanBwn3ZQMl+JsCytYHB/THYQIr5a0COz5bB2qiKQD9sXkB475fBFrfZ
QEgoeUD8+KLBgKy0QOSbRkDWLqjBNLyvQLf8YkBD87PBB+OtQJH7WUAh7IXBbb8DQcGmDMAuzmTB
R7mZQLCWND8XuKvBFoC+QKWtyj83d6fBUkywQGufZEA8sZHBAzmMQAehWkArb6LBlRRFQBIHW0D8
KpPBb8b5QOlHbUDFvpHBhR/yQJqO2b9Zv3fBwBLeQGQOUsBOI7XBSBu1QEbYusAF9oLBeTbMQPIz
i8AYwqPBYPCZQJbmoMAwg5TBUxPHQGI5cr/QwLjBgjDfQJ1TisAkbG7BmfGJQPvxRr+r35nBjKDL
QLr1jL8ElI3B4UHWQFrSnkB10aTBSHn4QNjXYUAPG6bBZmSVQP0nP0BjsbfB9qSoQKfzk0DTPrTB
najNQJYjVkAfTLjB8yuMQABtVUBbdYPBUdu+QPo3H0CTlIPBtNq8QDC0iEA6/oHBBdIMQRvjsL/V
P13BZYzvQO8/JcBad1nBsMQOQcCBQMANTmnBNXCVQI+EYD9YWLTBkrt3QP4pcz8CfafBJW7bQEy7
rz/7L6zBL0zEQJNyqT+6CZ/BRStjQK51ZUDEp6bBtZkQQNvkVUCes5fB3cw/QJu3XUDIM4vB6Jq0
QFB2HcC3rLDBuh/9QHV6s8CLso7B7BTCQGmbUsDnP6jBoxnwQE2VmMD3FJfB3ZytQPHri78m3a7B
/rHwQLmUqsAlH4TBZ7vBQO0Lsb+UIJzBTwHKQIfcVsDCSorByInIQHOhMMDl353BblvWQBu8aMAZ
+JTBgvm0QHgADL8UnKTBtezWQNVMhsBP0YHBIkTXQOmbYEAYV5fBWPiIQP9cYkDS/JfB5oPYQJOa
eEDHOKPBtg2wQGEoV0BHI6nBVparQMOMhEBIyrPBVvOtQC8DRUD3gIbBkZDWQFaol8BW1F3BIcms
QNwGZz+JLqLBioOzQCzy6z9Z7qvBv46vQPMUXEBzB5LB3/GIQGvPZ0ChiaLBzstCQNsJX0Av3ZLB
zib5QKb0UkCsrZLBvGTJQLdgd8DqHW/BYKCvQJgHOMChjbjB9GEIQZ8bz8DrYJDBMo3HQAvuisCv
s6nBWcz5QBiZn8DsL5/BE5+iQHZX676iTLXBGsz6QDpyv8BubXvB51TGQCK7d79LPJTBY3e2QDhv
H8Bhn4jBY/LZQE5Yn0CF+KPBtSj1QPYsXECL5qbB1RyPQAF2ckD+HrjBXkOoQCnrpkCMFLLBgDnI
QON4fkBTu7jBlnyMQDK7REBAxoPB3+q7QG4LBUC3W4XB7UTAQHstdEA42IHBTLXJQMqNi8Cjmk7B
PkbKQNEeuMBiwGDBQ7f5QG+JmMBvA13BEISLQETegD9+bp/BK7HCQOuMmz+jw5vBtBybQDWezT/F
+7HBvYfTQKCp0z8jQq/B/n5bQMCrd0AEQqbBg9kMQI7LYECsKZfBj/M/QGjlWkCC44rBAcC0QI16
HcD/rrDBsLLVQNgIu8AOc4zBuSTCQJCjUsC4QKjBDDvJQAoRoMBM35TBm7+tQLD4i7/F367BS4Pu
QF3zqsAT+oPBiLnBQJgjsb8LIZzB03LuQKXXSMCoV4zB/3nIQHG2MMDG3p3B8pHVQCsWacCD65TB
rRC1QAEVDL9DnqTBfx/7QMOVfsDE2IPB0E/XQHV0YEDDVZfBQwSJQPVhYkCa/JfBEpXYQG15eEAL
N6PBTx2wQGwXV0AlIqnBKq+rQNeFhEArybPBUPWtQB0VRUBhf4bBZHMQQdE+icAlL2bBka2sQHej
Zj/7L6LBs42zQJ7T6z9B7avBvZivQA0OXECABpLBvwCJQE7KZ0B4iaLBWuFCQJYuX0Ac3ZLB1y/5
QMG3UkAdrJLBN9kJQZmcWsC4eXfBpNevQIkHOMDZkLjBUzDMQKZC3MC7eozBQ6XHQJbwisDEtKnB
iB22QI6hrMBMWZvBdciiQK6M6779T7XBXQr4QCPnv8BHEHvBs0rGQPbnd799PJTB59H3QAZQBsAX
T4zBognaQK9Hn0Ax9qPBTjj1QBMEXECj5KbBwTSPQAB1ckCOHrjBDGOoQN3kpkBkE7LB8VLIQCRf
fkCWubjBaX2MQPDlRECExYPBNeO7QLwXBUC2V4XBwUvAQIE+dECv14HBmP8ZQa3rbcCEkFrBnjYC
QT5llsDyMV7BWyYaQZGZo8Apq2zB1lWLQHJCgD8xfJ/B3WfCQEyLmz+PvJvBSzebQLqlzT+M/7HB
WJrTQNRt0z8bO6/B3p9bQA2nd0CKQqbBZ/AMQH7+YEDFKZfBVQZAQLwSW0Bh44rBfMu0QEiSHcCg
rbDBgsHVQPHehMC7wIHB+x3CQJp8UsCfNajB4QPJQBGPVMBrPYrB27qtQLj/i78j6q7BujPvQIwg
qcCNv4PBNpTBQLHzr7/1KJzBImLvQK83mMDeypbBf1jIQHccMMBu2J3B67XVQHebZ8B62ZTB4ey0
QJINC79Mq6TBdkL8QMsUs8A3WI7BVUXXQExyYED/VZfBQfqIQORBYkDj/JfBv4nYQG+deECBNqPB
LxSwQJ5IV0CsJKnBUqCrQJi2hEDAx7PBuu+tQHPLRED7gIbBgjIRQcMC8sCRRIjBvousQA6SZz9r
QaLBN5KzQLZW7D9K+avBAY+vQJnsW0D9BpLBnPWIQKzQZ0CpiaLBP85CQEDgXkCB3ZLBsib5QIm+
UkBzrJLBT7cKQS021sAI8pDBIf6vQFtdOMA7jbjBmfvLQNblesAQWnPBGKLHQPrjisC6nqnBwXi1
QDz2HMA3qojB79CiQLlC7b7HYLXBi9r4QON7vcCGZHrBTCPGQOxgdL89SJTBukH5QHyIn8Ar3p7B
RfvZQA1bn0D+8aPBEC/1QIw5XEAy5abBHCiPQDnfckC/HrjB/kyoQMoQp0DQDLLB/0TIQIDkfkAM
ubjBWHiMQACHREC/xoPBiuO7QB7PBEDkXIXB0ELAQHLrc0D51oHBowQbQXEnBsFkcovBjJYaQbyX
38Cka4LBv+gCQTRB/8CoVoTBNiqLQD3OgD+glZ/B1i7CQEfwmz+vyJvBQFObQNJdzj90ErLBiKvT
QBMN1D88QK/BP4RbQFWud0BzQabBgNwMQPCsYEAIKpfB//Q/QG6mWkAC5IrB

> <OMEGA_E>
kOoeP2ZlNz9CZzc/SmY3Pw==

> <OMEGA_NBR>
      5433

$$$$
50145672
  -OEChem-04172616093D

 52 54  0     1  0  0  0  0  0999 V2000
    6.3813   -2.7343  -21.8977 C   0  0  0  0  0  0  0  0  0  0  0  0
    5.8431   -4.8195  -16.6760 C   0  0  0  0  0  0  0  0  0  0  0  0
    6.0831   -3.3304  -20.6632 C   0  0  0  0  0  0  0  0  0  0  0  0
    5.3494   -4.3585  -17.9101 C   0  0  0  0  0  0  0  0  0  0  0  0
    5.9518   -1.4234  -22.1635 C   0  0  0  0  0  0  0  0  0  0  0  0
    6.5774   -3.9547  -15.8358 C   0  0  0  0  0  0  0  0  0  0  0  0
    4.8971   -1.3123  -19.9664 C   0  0  0  0  0  0  0  0  0  0  0  0
    6.2523   -2.1403  -17.4243 C   0  0  0  0  0  0  0  0  0  0  0  0
    5.3934   -2.5980  -19.6747 C   0  0  0  0  0  0  0  0  0  0  0  0
    5.5623   -3.0176  -18.2878 C   0  0  0  0  0  0  0  0  0  0  0  0
    5.1701   -0.7297  -21.2177 C   0  0  0  0  0  0  0  0  0  0  0  0
    6.7966   -2.6015  -16.2137 C   0  0  0  0  0  0  0  0  0  0  0  0
    6.7561    3.6871  -18.8513 C   0  0  0  0  0  0  0  0  0  0  0  0
    4.3331    3.4754  -18.9919 C   0  0  0  0  0  0  0  0  0  0  0  0
    6.8036    3.8931  -20.3716 C   0  0  0  0  0  0  0  0  0  0  0  0
    5.6461    3.1033  -21.0229 C   0  0  1  0  0  0  0  0  0  0  0  0
    5.4917    3.5467  -22.4938 C   0  0  0  0  0  0  0  0  0  0  0  0
    5.4340    3.4060  -16.7403 C   0  0  0  0  0  0  0  0  0  0  0  0
    8.2342   -2.1977  -14.3003 C   0  0  0  0  0  0  0  0  0  0  0  0
    4.8039    0.7054  -21.4649 C   0  0  0  0  0  0  0  0  0  0  0  0
    5.9531    1.5834  -20.9332 C   0  0  0  0  0  0  0  0  0  0  0  0
    5.5093    3.5722  -18.2115 N   0  0  0  0  0  0  0  0  0  0  0  0
    4.3820    3.4161  -20.3043 N   0  3  0  0  0  0  0  0  0  0  0  0
    3.0794    3.4223  -18.3960 N   0  0  0  0  0  0  0  0  0  0  0  0
    7.8055    3.7075  -18.2181 O   0  0  0  0  0  0  0  0  0  0  0  0
    7.5663   -1.6997  -15.4842 O   0  0  0  0  0  0  0  0  0  0  0  0
    6.9398   -3.2821  -22.6422 H   0  0  0  0  0  0  0  0  0  0  0  0
    5.6596   -5.8389  -16.3701 H   0  0  0  0  0  0  0  0  0  0  0  0
    6.3816   -4.3501  -20.4698 H   0  0  0  0  0  0  0  0  0  0  0  0
    4.8106   -5.0281  -18.5641 H   0  0  0  0  0  0  0  0  0  0  0  0
    6.2211   -0.9462  -23.0941 H   0  0  0  0  0  0  0  0  0  0  0  0
    6.9747   -4.3227  -14.9014 H   0  0  0  0  0  0  0  0  0  0  0  0
    4.3107   -0.7771  -19.2342 H   0  0  0  0  0  0  0  0  0  0  0  0
    6.3633   -1.1012  -17.6973 H   0  0  0  0  0  0  0  0  0  0  0  0
    6.6955    4.9632  -20.6023 H   0  0  0  0  0  0  0  0  0  0  0  0
    7.7648    3.5288  -20.7632 H   0  0  0  0  0  0  0  0  0  0  0  0
    4.6685    2.9868  -22.9616 H   0  0  0  0  0  0  0  0  0  0  0  0
    5.2701    4.6235  -22.5307 H   0  0  0  0  0  0  0  0  0  0  0  0
    6.4268    3.3459  -23.0372 H   0  0  0  0  0  0  0  0  0  0  0  0
    4.3804    3.3348  -16.4323 H   0  0  0  0  0  0  0  0  0  0  0  0
    5.9643    2.4878  -16.4475 H   0  0  0  0  0  0  0  0  0  0  0  0
    5.9017    4.2720  -16.2491 H   0  0  0  0  0  0  0  0  0  0  0  0
    8.8013   -1.3819  -13.8281 H   0  0  0  0  0  0  0  0  0  0  0  0
    7.4859   -2.5820  -13.5916 H   0  0  0  0  0  0  0  0  0  0  0  0
    8.9230   -3.0079  -14.5816 H   0  0  0  0  0  0  0  0  0  0  0  0
    4.6699    0.8770  -22.5431 H   0  0  0  0  0  0  0  0  0  0  0  0
    3.8708    0.9499  -20.9360 H   0  0  0  0  0  0  0  0  0  0  0  0
    6.8572    1.3729  -21.5234 H   0  0  0  0  0  0  0  0  0  0  0  0
    6.1343    1.3238  -19.8797 H   0  0  0  0  0  0  0  0  0  0  0  0
    3.5495    3.5853  -20.8319 H   0  0  0  0  0  0  0  0  0  0  0  0
    2.2594    3.3421  -18.9627 H   0  0  0  0  0  0  0  0  0  0  0  0
    2.9969    3.4643  -17.4003 H   0  0  0  0  0  0  0  0  0  0  0  0
  1  3  1  0  0  0  0
  1  5  2  0  0  0  0
  2  4  2  0  0  0  0
  2  6  1  0  0  0  0
  3  9  2  0  0  0  0
  4 10  1  0  0  0  0
  5 11  1  0  0  0  0
  6 12  2  0  0  0  0
  7  9  1  0  0  0  0
  7 11  2  0  0  0  0
  8 10  2  0  0  0  0
  8 12  1  0  0  0  0
  9 10  1  0  0  0  0
 11 20  1  0  0  0  0
 12 26  1  0  0  0  0
 13 15  1  0  0  0  0
 13 22  1  0  0  0  0
 13 25  2  0  0  0  0
 14 22  1  0  0  0  0
 14 23  2  0  0  0  0
 14 24  1  0  0  0  0
 15 16  1  0  0  0  0
 16 17  1  0  0  0  0
 16 21  1  0  0  0  0
 16 23  1  0  0  0  0
 18 22  1  0  0  0  0
 19 26  1  0  0  0  0
 20 21  1  0  0  0  0
  1 27  1  0  0  0  0
  2 28  1  0  0  0  0
  3 29  1  0  0  0  0
  4 30  1  0  0  0  0
  5 31  1  0  0  0  0
  6 32  1  0  0  0  0
  7 33  1  0  0  0  0
  8 34  1  0  0  0  0
 15 35  1  0  0  0  0
 15 36  1  0  0  0  0
 17 37  1  0  0  0  0
 17 38  1  0  0  0  0
 17 39  1  0  0  0  0
 18 40  1  0  0  0  0
 18 41  1  0  0  0  0
 18 42  1  0  0  0  0
 19 43  1  0  0  0  0
 19 44  1  0  0  0  0
 19 45  1  0  0  0  0
 20 46  1  0  0  0  0
 20 47  1  0  0  0  0
 21 48  1  0  0  0  0
 21 49  1  0  0  0  0
 23 50  1  0  0  0  0
 24 51  1  0  0  0  0
 24 52  1  0  0  0  0
M  CHG  1  23   1
M  END
> <OMEGA_C>
NjPMQM/+LsCDLq/BlPq6QEw5msBfaIXBiqjCQKskVcAyTqXBYS6rQMx4i8DqR4/BInW+QGIwtr/B
TrHBDnrSQLkZfcCHX33BSbWcQLr4p79Iu5/BnRLIQPH5CMDqZIvBEpesQHFFJsDNZZ3BL/6xQI0g
QcBzTZLBq3GlQETLOr/nvanBwn3ZQMl+JsCytYHB/THYQIr5a0COz5bB2qiKQD9sXkB475fBFrfZ
QEgoeUD8+KLBgKy0QOSbRkDWLqjBNLyvQLf8YkBD87PBB+OtQJH7WUAh7IXBbb8DQcGmDMAuzmTB
R7mZQLCWND8XuKvBFoC+QKWtyj83d6fBUkywQGufZEA8sZHBAzmMQAehWkArb6LBlRRFQBIHW0D8
KpPBb8b5QOlHbUDFvpHBhR/yQJqO2b9Zv3fBwBLeQGQOUsBOI7XBSBu1QEbYusAF9oLBeTbMQPIz
i8AYwqPBYPCZQJbmoMAwg5TBUxPHQGI5cr/QwLjBgjDfQJ1TisAkbG7BmfGJQPvxRr+r35nBjKDL
QLr1jL8ElI3B4UHWQFrSnkB10aTBSHn4QNjXYUAPG6bBZmSVQP0nP0BjsbfB9qSoQKfzk0DTPrTB
najNQJYjVkAfTLjB8yuMQABtVUBbdYPBUdu+QPo3H0CTlIPBtNq8QDC0iEA6/oHBBdIMQRvjsL/V
P13BZYzvQO8/JcBad1nBsMQOQcCBQMANTmnBNXCVQI+EYD9YWLTBkrt3QP4pcz8CfafBJW7bQEy7
rz/7L6zBL0zEQJNyqT+6CZ/BRStjQK51ZUDEp6bBtZkQQNvkVUCes5fB3cw/QJu3XUDIM4vB6Jq0
QFB2HcC3rLDBuh/9QHV6s8CLso7B7BTCQGmbUsDnP6jBoxnwQE2VmMD3FJfB3ZytQPHri78m3a7B
/rHwQLmUqsAlH4TBZ7vBQO0Lsb+UIJzBTwHKQIfcVsDCSorByInIQHOhMMDl353BblvWQBu8aMAZ
+JTBgvm0QHgADL8UnKTBtezWQNVMhsBP0YHBIkTXQOmbYEAYV5fBWPiIQP9cYkDS/JfB5oPYQJOa
eEDHOKPBtg2wQGEoV0BHI6nBVparQMOMhEBIyrPBVvOtQC8DRUD3gIbBkZDWQFaol8BW1F3BIcms
QNwGZz+JLqLBioOzQCzy6z9Z7qvBv46vQPMUXEBzB5LB3/GIQGvPZ0ChiaLBzstCQNsJX0Av3ZLB
zib5QKb0UkCsrZLBvGTJQLdgd8DqHW/BYKCvQJgHOMChjbjB9GEIQZ8bz8DrYJDBMo3HQAvuisCv
s6nBWcz5QBiZn8DsL5/BE5+iQHZX676iTLXBGsz6QDpyv8BubXvB51TGQCK7d79LPJTBY3e2QDhv
H8Bhn4jBY/LZQE5Yn0CF+KPBtSj1QPYsXECL5qbB1RyPQAF2ckD+HrjBXkOoQCnrpkCMFLLBgDnI
QON4fkBTu7jBlnyMQDK7REBAxoPB3+q7QG4LBUC3W4XB7UTAQHstdEA42IHBTLXJQMqNi8Cjmk7B
PkbKQNEeuMBiwGDBQ7f5QG+JmMBvA13BEISLQETegD9+bp/BK7HCQOuMmz+jw5vBtBybQDWezT/F
+7HBvYfTQKCp0z8jQq/B/n5bQMCrd0AEQqbBg9kMQI7LYECsKZfBj/M/QGjlWkCC44rBAcC0QI16
HcD/rrDBsLLVQNgIu8AOc4zBuSTCQJCjUsC4QKjBDDvJQAoRoMBM35TBm7+tQLD4i7/F367BS4Pu
QF3zqsAT+oPBiLnBQJgjsb8LIZzB03LuQKXXSMCoV4zB/3nIQHG2MMDG3p3B8pHVQCsWacCD65TB
rRC1QAEVDL9DnqTBfx/7QMOVfsDE2IPB0E/XQHV0YEDDVZfBQwSJQPVhYkCa/JfBEpXYQG15eEAL
N6PBTx2wQGwXV0AlIqnBKq+rQNeFhEArybPBUPWtQB0VRUBhf4bBZHMQQdE+icAlL2bBka2sQHej
Zj/7L6LBs42zQJ7T6z9B7avBvZivQA0OXECABpLBvwCJQE7KZ0B4iaLBWuFCQJYuX0Ac3ZLB1y/5
QMG3UkAdrJLBN9kJQZmcWsC4eXfBpNevQIkHOMDZkLjBUzDMQKZC3MC7eozBQ6XHQJbwisDEtKnB
iB22QI6hrMBMWZvBdciiQK6M6779T7XBXQr4QCPnv8BHEHvBs0rGQPbnd799PJTB59H3QAZQBsAX
T4zBognaQK9Hn0Ax9qPBTjj1QBMEXECj5KbBwTSPQAB1ckCOHrjBDGOoQN3kpkBkE7LB8VLIQCRf
fkCWubjBaX2MQPDlRECExYPBNeO7QLwXBUC2V4XBwUvAQIE+dECv14HBmP8ZQa3rbcCEkFrBnjYC
QT5llsDyMV7BWyYaQZGZo8Apq2zB1lWLQHJCgD8xfJ/B3WfCQEyLmz+PvJvBSzebQLqlzT+M/7HB
WJrTQNRt0z8bO6/B3p9bQA2nd0CKQqbBZ/AMQH7+YEDFKZfBVQZAQLwSW0Bh44rBfMu0QEiSHcCg
rbDBgsHVQPHehMC7wIHB+x3CQJp8UsCfNajB4QPJQBGPVMBrPYrB27qtQLj/i78j6q7BujPvQIwg
qcCNv4PBNpTBQLHzr7/1KJzBImLvQK83mMDeypbBf1jIQHccMMBu2J3B67XVQHebZ8B62ZTB4ey0
QJINC79Mq6TBdkL8QMsUs8A3WI7BVUXXQExyYED/VZfBQfqIQORBYkDj/JfBv4nYQG+deECBNqPB
LxSwQJ5IV0CsJKnBUqCrQJi2hEDAx7PBuu+tQHPLRED7gIbBgjIRQcMC8sCRRIjBvousQA6SZz9r
QaLBN5KzQLZW7D9K+avBAY+vQJnsW0D9BpLBnPWIQKzQZ0CpiaLBP85CQEDgXkCB3ZLBsib5QIm+
UkBzrJLBT7cKQS021sAI8pDBIf6vQFtdOMA7jbjBmfvLQNblesAQWnPBGKLHQPrjisC6nqnBwXi1
QDz2HMA3qojB79CiQLlC7b7HYLXBi9r4QON7vcCGZHrBTCPGQOxgdL89SJTBukH5QHyIn8Ar3p7B
RfvZQA1bn0D+8aPBEC/1QIw5XEAy5abBHCiPQDnfckC/HrjB/kyoQMoQp0DQDLLB/0TIQIDkfkAM
ubjBWHiMQACHREC/xoPBiuO7QB7PBEDkXIXB0ELAQHLrc0D51oHBowQbQXEnBsFkcovBjJYaQbyX
38Cka4LBv+gCQTRB/8CoVoTBNiqLQD3OgD+glZ/B1i7CQEfwmz+vyJvBQFObQNJdzj90ErLBiKvT
QBMN1D88QK/BP4RbQFWud0BzQabBgNwMQPCsYEAIKpfB//Q/QG6mWkAC5IrB

> <OMEGA_E>
kOoeP2ZlNz9CZzc/SmY3Pw==

> <OMEGA_NBR>
      9221

$$$$
50145441
  -OEChem-04172616093D

 48 50  0     1  0  0  0  0  0999 V2000
   10.1348   -3.5614  -18.6911 C   0  0  0  0  0  0  0  0  0  0  0  0
    9.4892   -2.3236  -18.5084 C   0  0  0  0  0  0  0  0  0  0  0  0
    9.7982   -4.3826  -19.7889 C   0  0  0  0  0  0  0  0  0  0  0  0
    4.5577   -2.7527  -20.2762 C   0  0  0  0  0  0  0  0  0  0  0  0
    8.5024   -1.9135  -19.4184 C   0  0  0  0  0  0  0  0  0  0  0  0
    8.7894   -3.9852  -20.6887 C   0  0  0  0  0  0  0  0  0  0  0  0
    5.8057   -3.3173  -20.5656 C   0  0  0  0  0  0  0  0  0  0  0  0
    4.3061   -1.4084  -20.5982 C   0  0  0  0  0  0  0  0  0  0  0  0
    6.5364   -1.2171  -21.5644 C   0  0  0  0  0  0  0  0  0  0  0  0
    8.1366   -2.7513  -20.4993 C   0  0  0  0  0  0  0  0  0  0  0  0
    6.8312   -2.5066  -21.0852 C   0  0  0  0  0  0  0  0  0  0  0  0
    5.2731   -0.6540  -21.2944 C   0  0  0  0  0  0  0  0  0  0  0  0
    6.7670    3.7035  -18.8489 C   0  0  0  0  0  0  0  0  0  0  0  0
    4.3569    3.3906  -19.0023 C   0  0  0  0  0  0  0  0  0  0  0  0
    6.7953    4.0074  -20.3549 C   0  0  0  0  0  0  0  0  0  0  0  0
    5.6778    3.1975  -21.0502 C   0  0  1  0  0  0  0  0  0  0  0  0
    5.5001    3.7024  -22.4982 C   0  0  0  0  0  0  0  0  0  0  0  0
    5.4603    3.2726  -16.7538 C   0  0  0  0  0  0  0  0  0  0  0  0
    4.9889    0.7832  -21.6570 C   0  0  0  0  0  0  0  0  0  0  0  0
    6.0628    1.6939  -21.0289 C   0  0  0  0  0  0  0  0  0  0  0  0
    5.5384    3.4196  -18.2257 N   0  0  0  0  0  0  0  0  0  0  0  0
    4.4027    3.4141  -20.3158 N   0  3  0  0  0  0  0  0  0  0  0  0
    3.1060    3.3131  -18.4033 N   0  0  0  0  0  0  0  0  0  0  0  0
    7.8106    3.7755  -18.2101 O   0  0  0  0  0  0  0  0  0  0  0  0
   10.8897   -3.8837  -17.9892 H   0  0  0  0  0  0  0  0  0  0  0  0
    9.7521   -1.6927  -17.6721 H   0  0  0  0  0  0  0  0  0  0  0  0
   10.3157   -5.3185  -19.9397 H   0  0  0  0  0  0  0  0  0  0  0  0
    3.7898   -3.3494  -19.8064 H   0  0  0  0  0  0  0  0  0  0  0  0
    8.0204   -0.9551  -19.2936 H   0  0  0  0  0  0  0  0  0  0  0  0
    8.5185   -4.6221  -21.5178 H   0  0  0  0  0  0  0  0  0  0  0  0
    5.9801   -4.3687  -20.3909 H   0  0  0  0  0  0  0  0  0  0  0  0
    3.3702   -0.9519  -20.3119 H   0  0  0  0  0  0  0  0  0  0  0  0
    7.2702   -0.6649  -22.1327 H   0  0  0  0  0  0  0  0  0  0  0  0
    6.6282    5.0824  -20.5179 H   0  0  0  0  0  0  0  0  0  0  0  0
    7.7724    3.7210  -20.7711 H   0  0  0  0  0  0  0  0  0  0  0  0
    4.7046    3.1259  -22.9931 H   0  0  0  0  0  0  0  0  0  0  0  0
    5.2261    4.7676  -22.4839 H   0  0  0  0  0  0  0  0  0  0  0  0
    6.4432    3.5738  -23.0496 H   0  0  0  0  0  0  0  0  0  0  0  0
    4.4227    3.0539  -16.4612 H   0  0  0  0  0  0  0  0  0  0  0  0
    6.1133    2.4478  -16.4326 H   0  0  0  0  0  0  0  0  0  0  0  0
    5.7871    4.2071  -16.2743 H   0  0  0  0  0  0  0  0  0  0  0  0
    5.0069    0.8958  -22.7511 H   0  0  0  0  0  0  0  0  0  0  0  0
    3.9974    1.0684  -21.2753 H   0  0  0  0  0  0  0  0  0  0  0  0
    7.0011    1.5652  -21.5883 H   0  0  0  0  0  0  0  0  0  0  0  0
    6.2140    1.3865  -19.9836 H   0  0  0  0  0  0  0  0  0  0  0  0
    3.5627    3.5811  -20.8320 H   0  0  0  0  0  0  0  0  0  0  0  0
    2.2821    3.2774  -18.9690 H   0  0  0  0  0  0  0  0  0  0  0  0
    3.0294    3.2930  -17.4065 H   0  0  0  0  0  0  0  0  0  0  0  0
  1  2  1  0  0  0  0
  1  3  2  0  0  0  0
  2  5  2  0  0  0  0
  3  6  1  0  0  0  0
  4  7  1  0  0  0  0
  4  8  2  0  0  0  0
  5 10  1  0  0  0  0
  6 10  2  0  0  0  0
  7 11  2  0  0  0  0
  8 12  1  0  0  0  0
  9 11  1  0  0  0  0
  9 12  2  0  0  0  0
 10 11  1  0  0  0  0
 12 19  1  0  0  0  0
 13 15  1  0  0  0  0
 13 21  1  0  0  0  0
 13 24  2  0  0  0  0
 14 21  1  0  0  0  0
 14 22  2  0  0  0  0
 14 23  1  0  0  0  0
 15 16  1  0  0  0  0
 16 17  1  0  0  0  0
 16 20  1  0  0  0  0
 16 22  1  0  0  0  0
 18 21  1  0  0  0  0
 19 20  1  0  0  0  0
  1 25  1  0  0  0  0
  2 26  1  0  0  0  0
  3 27  1  0  0  0  0
  4 28  1  0  0  0  0
  5 29  1  0  0  0  0
  6 30  1  0  0  0  0
  7 31  1  0  0  0  0
  8 32  1  0  0  0  0
  9 33  1  0  0  0  0
 15 34  1  0  0  0  0
 15 35  1  0  0  0  0
 17 36  1  0  0  0  0
 17 37  1  0  0  0  0
 17 38  1  0  0  0  0
 18 39  1  0  0  0  0
 18 40  1  0  0  0  0
 18 41  1  0  0  0  0
 19 42  1  0  0  0  0
 19 43  1  0  0  0  0
 20 44  1  0  0  0  0
 20 45  1  0  0  0  0
 22 46  1  0  0  0  0
 23 47  1  0  0  0  0
 23 48  1  0  0  0  0
M  CHG  1  22   1
M  END
> <OMEGA_C>
EygiQVvuY8Bbh5XB8dMXQVG1FMAaEZTBecUcQRs+jMDFT57BENmRQJosMMDANaLB6AkIQY3t9L/q
WJvBf6EMQQAOf8BogqXBdsi5QABOVMBGhqTBx8uJQC1HtL8pyaTBUyrRQI/Jm7/Mg6zBXS8CQZ4U
MMB5/qPBCpnaQHhrIMB1rqjB1byoQHRrJ78IW6rBNovYQNcFbUCSypbB6GuLQL7/WEDPBJjB/3LZ
QLc8gEDs1qLBarC1QGWkTEDnZqjBywCwQHz0bEBX/LPBb7quQHZyUUDTB4bB1KSfQJx9SD99Qa3B
ZQLCQLjQ2D8XO6jB1zqxQG/aWkAmzpHBAuOMQJ6AWkDGhqLBushGQPkJVEAMOpPBIvD5QPqgcUBb
rpHBVDwuQVWOeMDz6Y/BeQgcQX2q2L9wYI3BHw0lQeUwqsBxhJ/B3oxyQHVcVsCYc57BhVMAQc2D
dL81WZrB5UsIQX7ok8BcJKzB+Vy/QD3Mi8CRIKPBG7FXQKqtc7/LfqLBRKXoQNQ0Kr/WD7HBVRrU
QMmiokCeJKTBiLf4QKgkbkBCK6bBdoyWQBAPSEDZ8bfB5TunQI2QmEAX37PBwC7OQBu5ZECHZbjB
o4aNQOdyQ0CfsIPBJaDDQCqoHEAFdoPByi+5QFyghkC4MYLBxzigQFRQZT8nArbBhtV/QAbBiD/k
M6rBIQngQI5YyD/etKzBddnGQBR5sT9R3p/BHQNkQD8wZUD/p6bBSA4SQEDBUUB6wJfBBOFBQJvA
UkB8QIvBmW8wQaAbhcA5uJ7B40wpQWSQRMB4hpjB2zIjQXE8lsDZxKbB63mZQBszLcCHRKrBOu0U
QUIYIcCZX5rB59AOQe2dhMDjo6jBOxzCQEg1UcCmYqjBElOSQInnq78qNqjBB6rcQIe0jL9ofaLB
uXsHQQczQ8AxdqLBsRjkQMXtHcA3eaTBqeKzQIgxDL+rOaTB3l3XQDmYYEB6ZpfBMBGJQGI5YkDp
+pfBr1jYQCLLd0A4T6PBXu+vQMP8VECCI6nBVVmrQGavgkAf5rPBskyuQOMZRUBvhYbBTnasQHeK
ZD8dr6HBRqyzQPDL5T9Wn6vB5L2vQBdCXEC1C5LB2OuIQA/SZkBZiqLBmyBDQGvKXkDx0pLBp1b5
QLQcU0DLxJLBjhFAQcuwksADTJ3BR3YzQSZXKsCEWpLBzrIoQaXwsMCsg6vBf59/QPipVMDKSq3B
nYEPQcNR178onJXBergEQQ3gkcDK0a7BG2jHQHAwisAk76nBOn1mQA5uaL+grqnBXGP2QCMt8r66
oJ/BcmPZQJrsnkDEI6TBjxX1QM62W0D3+6bBB++OQJXWbUDzLbjB99mnQOwmpUBBV7LB3wPIQM1V
ekDn0LjBDOKMQDL/REB3wYPByDC8QGwKBUArZoXB58TAQCoedEA44IHBsFWLQCVrgj+q4p7B67jC
QKuImT/7UpvBK52bQM6SxD9/s7HBfuDTQCVRzD9VzK7BgX9bQA7NdkCNQ6bB6xINQAHYX0D3GpfB
XX1AQCJGW0DH14rB790PQbKkpcD1tYnBOUgVQfuNdMAbJovBNNr8QMJVt8DnTY/B8S2pQAcFIcC0
U6/BzUoJQWgjQcAvMpLBZdHkQPHDncCdW5bBU+rBQO+1U8AVYqjBCoOkQAIokr86Y63B7KrRQOB5
rL9zhp3BV4HvQMhRZMCK5JfB6THWQPTJLsAeXp/BSn65QIUEDb+3lqTBadPWQCrZXkDVcJfBqpKI
QG/jY0Bm5ZfB8tjXQKEFdkDaYaPBh7+uQAsBVkA1KKnB+fipQGz3g0D/zLPBlt6tQDswQ0D1jYbB
If6zQG/XZj+R8qHBYgmxQPVS6T+O76vBWEqvQBIvW0BaDZLBrRuIQBwSaEB1cqLBi4VCQCoNZUCU
opLB85j4QFP+TEA98pLBdRgZQdZWucCwUITBo6QiQXdzWcC/14bBtIj0QGCT2MDeLY7BPr+ZQP/a
PcB/KrbBBnkNQf89/b9YRJPB0xLKQN54q8DZn5rBf3fFQMOpi8DP8KnBc+mQQHTbCb/ZnbLB6tPg
QEYxZb+xp5bBuAraQDT8nUBtNqTB4AD0QAgLWECRGqfBZwmNQOAlckDbAbjBqE+nQENlpkAeGLLB
TDDGQBZTfECj27jBsn+MQNnJQ0BrwYPBIFa7QJ6rAkDJhYXBm7vAQEVWcUBG34HBumqWQI80gj8f
RJ3BbYPPQNajnD9zGp3BCRqUQFW6xj/hdLDBBXfNQGpH0z9a8LDBvpVZQDb6d0ACHKbByD4MQE/v
aECl2JbB7GBAQKoAYkAOporBpOnvQD8AqsDd54PB72jWQOLLhcBg0YHB2pn8QAtns8DbdI7B9dG0
QP2EHcBKtLDBPojJQCPyVcDGRorB58jvQMyxmMAr75bBJj/CQGGfUsCNQ6jBnb2tQDcDjL/v567B
V6/BQJzlsL/SKJzB9BXWQP+BaMDQ7ZTByYjIQGeTMMC44p3B7fu0QHjuC7+GpqTB3EDXQIZ3YECJ
VZfBl/WIQGpHYkDb+5fBA4PYQCSXeEBYNqPBTgywQBk5V0DZIqnB6ZOrQBKohEDwxrPByeitQP/K
RECBgIbBT7CsQNb6Zj+oOKLB5IOzQMYj7D8L9KvBxoqvQJbsW0BgBpLBZfCIQO7OZ0CLiKLB4sRC
QM72XkBD3JLBayP5QNjGUkB3rJLBd775QNqQvsCf0nrBvbjMQEwzfcCOcXPBSRkIQfkmz8BAC5DB
1vKvQPciOMCalbjBsgK2QDVsHsAXpYjBM5r5QNsHoMBCA5/BMM3HQMLtisBytanB4saiQCFA7L7i
WbXBuTbGQGcjd7/fRJTBa/PZQIxXn0AJ86PBsCf1QMgwXEAM5abBaxqPQBu7ckDWHLjBU0CoQE0D
p0BRDbLB7zbIQIbCfkCruLjBqHCMQNuDREDYxoPBhN27QLDPBEA4XIXBrznAQDLsc0Am1oHBRF+L
QLuYgD+HgJ/BT3vCQMSOmz/Ix5vBzCmbQBkIzj/DBbLB3I7TQJbm0z8TRK/BsHtbQI6wd0B/QKbB
3tIMQMzJYECyKJfB++s/QOjCWkC34orBek8jQYnNlMDllo7BwJ4nQZAJYcDz6JTBK8EOQcZCp8Dv
q47B4HKhQGG8S8CtyazBmGMXQcNJPcA+UJvBb/P8QB9+lcDjEJXBTdDBQKgRcMDWZabBeAeiQK8m
57/iEq/BUB7jQOtGx7+3dqTBoaECQc7xYcC0cpvBHPfiQEc2PMB+K6LBPzXDQHLjfr+oAqvBBF7V
QO5uX0ARBZfBsRyIQMsAdkCXVZfB3ePUQIvqWkCFSaPB/tapQMYwNEDMQqfBGBqkQPp6SkCwRbPB
L+uvQM9rhEA3CYbBE0nEQGC/9T4HfK3Bk/SnQD9Xoj80f6XB0hOvQI7BcUAEkJHBQGKFQDxoXEB8
XaHBEdBFQAsjikDEe5LB29b3QOmtW0DnVpLBiMUvQb97osBOrYnBtWM3QWPHRMBy2JTB03gLQaQY
w8Ai0onBuiqIQASSc8B776/BW8MaQa6hBcCtJqDBlHvdQKLHo8DcGpXBOV/BQLrsmcBrtaTB6RmJ
QDpIr78I77PBcuP7QOwbbb+EK6HBnJ/YQPnijUCClKbBmYHvQJZnMkCNB6bBhMKFQLt0L0CML7bB
N6ejQOI2iEDUQrTBn9W+QIhfL0AG47fBpBePQNJiikAgO4PBff+9QArtU0DDa4HB8EzDQHZ2oUA5
64TBMXTlQBdFVz/g5azBcVK4QODEJD8MqLXBPuKyQEr4hT9kUp3BF5uGQJTSbz98cabBIDVTQJJF
ZEBaNqXBH/cOQAn+ikC+mZbBrEdHQJcjlEDy4orBcVwQQXX+k8BsIYXBZqMIQYOMU8DRWITBcrgM
QUXvq8AWgI7BhW+rQAJpR8Br7K7BWor6QOTgLsAI7YzBGVYBQZC+mcA7F5fBah3CQGQjbMBqV6bB
nrKtQO143b/8w7DB5QvdQFIkvr/iWKHBXfnyQOqbXsBzYpbBkgnbQMMwOMBZcp/BMfnGQIfwar9n
D6rBko3UQNVZXECLNZfB0bOHQAsvd0ClTpfBy2/TQAGaX0CbdaPB3K+oQEn1N0BmfKfBcemiQMIe
TkDnfbPB7Q+wQNSggEA28YXBowrKQPCaED9yGqzBHvqmQEOsqT+4yKXBSq2uQFecbkA8lZHBFHaE
QNn5X0B1cKHBdVNGQGt7i0C2S5LBTfr2QMq/UkB3o5LBuhMZQZkDosDtFn3B+G8LQQTgLsAUUXrB
W6sSQUdLzMD2GI/BbUiYQHlgb8DSGLTBfM7uQHEe3L/3S4zBEyX9QOk9rMDKQZ7Bs4HAQMcsmMAi
AaXB6RacQF8Jpb9eT7fBKpnvQGCfWr+NF5zBe6vVQElBkUCII6bBSonuQET2OkCytabBC8KEQPVe
MkDDa7bBXQyiQAIHikCKerTBkde9QMSrM0AfGLjBBnePQCvshkCMBIPBW4a9QHnuSUB7qoHBODzE
QILnnEARhITB/LjpQCFlbD+yjqnBUtrFQEh/QT/GtLTBYiqrQNqujj8CNp3Bo3eHQFUCdj8iaKjB
91xRQPqEaUAOOqXBSmkPQKvIjUAnXZbBvs9IQJ6UlEDZoYrB

> <OMEGA_E>
UHT4PhKKFD9wnxw/GL0PP/ApST/Unk8/

> <OMEGA_NBR>
     14453

$$$$
50161586
  -OEChem-04172616093D

 44 47  0     0  0  0  0  0  0999 V2000
    5.6572   -1.6110  -21.0864 C   0  0  0  0  0  0  0  0  0  0  0  0
    6.5162    8.3913  -24.1183 C   0  0  0  0  0  0  0  0  0  0  0  0
    5.4730   -0.4038  -20.3897 C   0  0  0  0  0  0  0  0  0  0  0  0
    6.3724   -1.6179  -22.3006 C   0  0  0  0  0  0  0  0  0  0  0  0
    7.6251    8.0495  -23.3171 C   0  0  0  0  0  0  0  0  0  0  0  0
    5.7346    7.3798  -24.7103 C   0  0  0  0  0  0  0  0  0  0  0  0
    6.4868    4.5276  -18.8137 C   0  0  0  0  0  0  0  0  0  0  0  0
    5.9961    0.7928  -20.9107 C   0  0  0  0  0  0  0  0  0  0  0  0
    6.8940   -0.4174  -22.8248 C   0  0  0  0  0  0  0  0  0  0  0  0
    7.9523    6.6954  -23.1049 C   0  0  0  0  0  0  0  0  0  0  0  0
    6.0581    6.0274  -24.4961 C   0  0  0  0  0  0  0  0  0  0  0  0
    8.5029    2.2144  -23.2377 C   0  0  0  0  0  0  0  0  0  0  0  0
    8.6661    3.6283  -23.6374 C   0  0  0  0  0  0  0  0  0  0  0  0
    6.5070    4.3460  -20.2037 C   0  0  0  0  0  0  0  0  0  0  0  0
    5.2673    4.3880  -18.1348 C   0  0  0  0  0  0  0  0  0  0  0  0
    6.6901    0.8032  -22.1452 C   0  0  0  0  0  0  0  0  0  0  0  0
    7.1604    5.6810  -23.6836 C   0  0  0  0  0  0  0  0  0  0  0  0
    7.2379    2.0572  -22.7168 C   0  0  0  0  0  0  0  0  0  0  0  0
    7.4686    4.2666  -23.4235 C   0  0  0  0  0  0  0  0  0  0  0  0
    5.3011    4.0156  -20.8806 C   0  0  0  0  0  0  0  0  0  0  0  0
    4.0996    4.0892  -18.8679 C   0  0  0  0  0  0  0  0  0  0  0  0
    5.2845    3.6260  -22.3466 C   0  0  0  0  0  0  0  0  0  0  0  0
    4.1315    3.9208  -20.2082 N   0  0  0  0  0  0  0  0  0  0  0  0
    6.6435    3.3042  -22.8669 N   0  0  0  0  0  0  0  0  0  0  0  0
    2.8942    3.9320  -18.2028 N   0  0  0  0  0  0  0  0  0  0  0  0
    5.2515   -2.5309  -20.6920 H   0  0  0  0  0  0  0  0  0  0  0  0
    6.2658    9.4296  -24.2782 H   0  0  0  0  0  0  0  0  0  0  0  0
    4.9307   -0.3956  -19.4558 H   0  0  0  0  0  0  0  0  0  0  0  0
    6.5215   -2.5463  -22.8318 H   0  0  0  0  0  0  0  0  0  0  0  0
    8.2242    8.8264  -22.8657 H   0  0  0  0  0  0  0  0  0  0  0  0
    4.8883    7.6421  -25.3278 H   0  0  0  0  0  0  0  0  0  0  0  0
    7.3919    4.7700  -18.2765 H   0  0  0  0  0  0  0  0  0  0  0  0
    5.8671    1.7148  -20.3632 H   0  0  0  0  0  0  0  0  0  0  0  0
    7.4516   -0.4316  -23.7496 H   0  0  0  0  0  0  0  0  0  0  0  0
    8.8081    6.4343  -22.5000 H   0  0  0  0  0  0  0  0  0  0  0  0
    5.4619    5.2520  -24.9542 H   0  0  0  0  0  0  0  0  0  0  0  0
    9.2476    1.4385  -23.3370 H   0  0  0  0  0  0  0  0  0  0  0  0
    9.5664    4.0791  -24.0281 H   0  0  0  0  0  0  0  0  0  0  0  0
    7.4293    4.4560  -20.7548 H   0  0  0  0  0  0  0  0  0  0  0  0
    5.2227    4.5080  -17.0625 H   0  0  0  0  0  0  0  0  0  0  0  0
    4.6413    2.7422  -22.4694 H   0  0  0  0  0  0  0  0  0  0  0  0
    4.8726    4.4631  -22.9294 H   0  0  0  0  0  0  0  0  0  0  0  0
    2.1775    3.7011  -18.8609 H   0  0  0  0  0  0  0  0  0  0  0  0
    2.9782    3.1970  -17.5300 H   0  0  0  0  0  0  0  0  0  0  0  0
  1  3  1  0  0  0  0
  1  4  2  0  0  0  0
  2  5  1  0  0  0  0
  2  6  2  0  0  0  0
  3  8  2  0  0  0  0
  4  9  1  0  0  0  0
  5 10  2  0  0  0  0
  6 11  1  0  0  0  0
  7 14  2  0  0  0  0
  7 15  1  0  0  0  0
  8 16  1  0  0  0  0
  9 16  2  0  0  0  0
 10 17  1  0  0  0  0
 11 17  2  0  0  0  0
 12 13  1  0  0  0  0
 12 18  2  0  0  0  0
 13 19  2  0  0  0  0
 14 20  1  0  0  0  0
 15 21  2  0  0  0  0
 16 18  1  0  0  0  0
 17 19  1  0  0  0  0
 18 24  1  0  0  0  0
 19 24  1  0  0  0  0
 20 22  1  0  0  0  0
 20 23  2  0  0  0  0
 21 23  1  0  0  0  0
 21 25  1  0  0  0  0
 22 24  1  0  0  0  0
  1 26  1  0  0  0  0
  2 27  1  0  0  0  0
  3 28  1  0  0  0  0
  4 29  1  0  0  0  0
  5 30  1  0  0  0  0
  6 31  1  0  0  0  0
  7 32  1  0  0  0  0
  8 33  1  0  0  0  0
  9 34  1  0  0  0  0
 10 35  1  0  0  0  0
 11 36  1  0  0  0  0
 12 37  1  0  0  0  0
 13 38  1  0  0  0  0
 14 39  1  0  0  0  0
 15 40  1  0  0  0  0
 22 41  1  0  0  0  0
 22 42  1  0  0  0  0
 25 43  1  0  0  0  0
 25 44  1  0  0  0  0
M  END
> <OMEGA_C>
uge1QNA1zr8HsajB2ITQQKBCBkE38sDBGyOvQJTAzr4fHqPBWOrLQBUXz7+iZ7LBlwD0QNrKAEGE
ibrBN4K3QFsn7EC1rsXBK5TPQBbikECDgpbB8t+/QHb3Sj8mSafBopvcQLuw1b4bmbbBlHn+QHJA
1kDP1rjBmtvBQBzgwEAY+MPBDgwIQWm5DUDH5rnBMagKQYY2aEB4Gb3BgDnQQKMSi0AsoaHBd42o
QJhqjEAnFJHBlRXWQHKeTT9dKbHBYiLlQNTKtUAUeL3BqZznQN2pA0D4u7XB7v7uQFuIiEBUY7vB
l6KpQLR/gECFC6fB5C+DQMvagkBp8ZbBeRqpQLEQaEDCxbLBmTWEQC7uekBPqqHB8pfUQKB4U0CD
77bB5zk5QJCme0Ben5HBNwyoQK36IcA8iaXBo4HIQKTfFkGuOcLBHcidQBmSyr57pZvBJrDQQFH3
IsByp7bBh5YDQQ45DUH07LbB+WycQHqM9EBNn8rBGIrsQP+jmEBaNpLBJr+7QIh92z/I56LBg3Pu
QLf43L4f/73BLO4MQdXlzUAUALTB5MeuQC4QqEAdosfBFfYTQZYhuD9CsrrB0A8ZQVWIgkCUOcDB
0rztQNOXjkDMCabBjyCnQKVBkEDnf4jBaoWUQJh/L0BmwbPBjuybQKHRjkBjb7fB1VsLQHDfbEAY
45bBB5o+QI6bTEB8PYzB6w3QQI5ABkHQrMDBw5+0QA+1zL8+jqjBGA24QNA97EAWxcXB2e/yQDm8
AEFlErrBs4iuQBT3xr4RC6PBhsfLQHNLzr9YOrLBvsLPQIz3kEADopbBC63CQCz0wEATL8TBas39
QDki1kBsibjBO1e/QKBaTj+lO6fBa4rcQFqo074fcbbBrbgKQWH6Z0BADL3BTQsIQdazDUDdxLnB
8TXQQOSIi0Bjw6HBK9uoQGsyjEBnKpHBFlblQNXFtUBufr3BItHVQEaETz+WErHBnxfvQO57iEAT
crvBQnTnQMnpA0C2rrXB1pCpQAb8gEClKKfBpGSDQC/KgkDDAZfBCwKpQDTcaECM4rLBwzqEQNx3
e0A3vqHBSILUQJiuU0BJ/7bBVs85QO5Pe0CYppHBrbrHQDHdFkH608HB/pWnQKQfIcBeYqXBEIed
QAm69ED44srB9asCQVogDUH0L7bBbPmcQGqbwL4smpvB0bTQQAu8IsD3bbbBjsfsQC+rmECJWpLB
zUiwQNw3qEBkF8jBpWcMQYi0zUAgk7PB0Q+7QCOI3T8J5qLB3pjuQKwr3b6vzr3BGC0ZQc1LgkBR
JsDBDfgTQTr4tz+idbrBQaDtQGZTj0DYMqbBEpinQE6wj0Bdk4jBqUKUQOaIMEAF3rPBwQucQGBC
j0D2kbfBRLkLQALvbEAY55bBGE8/QMDtS0A3UYzB

> <OMEGA_E>
cHIXP5ROFz8=

> <OMEGA_NBR>
      1812

$$$$
50161587
  -OEChem-04172616093D

 48 51  0     0  0  0  0  0  0999 V2000
    7.6366    8.0651  -23.2410 C   0  0  0  0  0  0  0  0  0  0  0  0
    6.5627    8.4380  -24.0729 C   0  0  0  0  0  0  0  0  0  0  0  0
    6.4866    4.5146  -18.7852 C   0  0  0  0  0  0  0  0  0  0  0  0
    7.9424    6.7034  -23.0523 C   0  0  0  0  0  0  0  0  0  0  0  0
    6.8386   -0.3819  -22.8734 C   0  0  0  0  0  0  0  0  0  0  0  0
    5.9844    0.8079  -20.9333 C   0  0  0  0  0  0  0  0  0  0  0  0
    6.3080   -1.5828  -22.3608 C   0  0  0  0  0  0  0  0  0  0  0  0
    5.4523   -0.3865  -20.4203 C   0  0  0  0  0  0  0  0  0  0  0  0
    5.8014    7.4504  -24.7276 C   0  0  0  0  0  0  0  0  0  0  0  0
    8.4914    2.2301  -23.2606 C   0  0  0  0  0  0  0  0  0  0  0  0
    8.6598    3.6429  -23.6639 C   0  0  0  0  0  0  0  0  0  0  0  0
    6.5186    4.3360  -20.1755 C   0  0  0  0  0  0  0  0  0  0  0  0
    5.2578    4.3891  -18.1187 C   0  0  0  0  0  0  0  0  0  0  0  0
    6.6668    0.8281  -22.1711 C   0  0  0  0  0  0  0  0  0  0  0  0
    7.1697    5.7092  -23.6901 C   0  0  0  0  0  0  0  0  0  0  0  0
    5.6160   -1.6021  -21.1300 C   0  0  0  0  0  0  0  0  0  0  0  0
    6.1055    6.0870  -24.5477 C   0  0  0  0  0  0  0  0  0  0  0  0
    7.2304    2.0819  -22.7271 C   0  0  0  0  0  0  0  0  0  0  0  0
    7.4696    4.2899  -23.4362 C   0  0  0  0  0  0  0  0  0  0  0  0
    5.3148    4.0209  -20.8611 C   0  0  0  0  0  0  0  0  0  0  0  0
    4.0945    4.1010  -18.8631 C   0  0  0  0  0  0  0  0  0  0  0  0
    4.6139   -2.8768  -19.3207 C   0  0  0  0  0  0  0  0  0  0  0  0
    5.2968    3.6678  -22.3301 C   0  0  0  0  0  0  0  0  0  0  0  0
    4.1386    3.9350  -20.2018 N   0  0  0  0  0  0  0  0  0  0  0  0
    6.6479    3.3354  -22.8624 N   0  0  0  0  0  0  0  0  0  0  0  0
    2.8803    3.9525  -18.2127 N   0  0  0  0  0  0  0  0  0  0  0  0
    5.1462   -2.8286  -20.6696 O   0  0  0  0  0  0  0  0  0  0  0  0
    5.1823    4.8855  -25.4350 Cl  0  0  0  0  0  0  0  0  0  0  0  0
    8.2258    8.8240  -22.7476 H   0  0  0  0  0  0  0  0  0  0  0  0
    6.3228    9.4823  -24.2088 H   0  0  0  0  0  0  0  0  0  0  0  0
    7.3892    4.7440  -18.2383 H   0  0  0  0  0  0  0  0  0  0  0  0
    8.7695    6.4194  -22.4185 H   0  0  0  0  0  0  0  0  0  0  0  0
    7.3792   -0.3888  -23.8084 H   0  0  0  0  0  0  0  0  0  0  0  0
    5.8705    1.7245  -20.3736 H   0  0  0  0  0  0  0  0  0  0  0  0
    6.4323   -2.5004  -22.9166 H   0  0  0  0  0  0  0  0  0  0  0  0
    4.9170   -0.3784  -19.4824 H   0  0  0  0  0  0  0  0  0  0  0  0
    4.9823    7.7393  -25.3694 H   0  0  0  0  0  0  0  0  0  0  0  0
    9.2300    1.4492  -23.3661 H   0  0  0  0  0  0  0  0  0  0  0  0
    9.5585    4.0869  -24.0659 H   0  0  0  0  0  0  0  0  0  0  0  0
    7.4467    4.4368  -20.7184 H   0  0  0  0  0  0  0  0  0  0  0  0
    5.2034    4.5119  -17.0470 H   0  0  0  0  0  0  0  0  0  0  0  0
    4.2823   -3.9006  -19.0932 H   0  0  0  0  0  0  0  0  0  0  0  0
    5.3959   -2.5777  -18.6072 H   0  0  0  0  0  0  0  0  0  0  0  0
    3.7600   -2.1882  -19.2388 H   0  0  0  0  0  0  0  0  0  0  0  0
    4.6390    2.7980  -22.4740 H   0  0  0  0  0  0  0  0  0  0  0  0
    4.8991    4.5254  -22.8925 H   0  0  0  0  0  0  0  0  0  0  0  0
    2.1695    3.7290  -18.8796 H   0  0  0  0  0  0  0  0  0  0  0  0
    2.9503    3.2153  -17.5406 H   0  0  0  0  0  0  0  0  0  0  0  0
  1  2  1  0  0  0  0
  1  4  2  0  0  0  0
  2  9  2  0  0  0  0
  3 12  2  0  0  0  0
  3 13  1  0  0  0  0
  4 15  1  0  0  0  0
  5  7  2  0  0  0  0
  5 14  1  0  0  0  0
  6  8  1  0  0  0  0
  6 14  2  0  0  0  0
  7 16  1  0  0  0  0
  8 16  2  0  0  0  0
  9 17  1  0  0  0  0
 10 11  1  0  0  0  0
 10 18  2  0  0  0  0
 11 19  2  0  0  0  0
 12 20  1  0  0  0  0
 13 21  2  0  0  0  0
 14 18  1  0  0  0  0
 15 17  2  0  0  0  0
 15 19  1  0  0  0  0
 16 27  1  0  0  0  0
 17 28  1  0  0  0  0
 18 25  1  0  0  0  0
 19 25  1  0  0  0  0
 20 23  1  0  0  0  0
 20 24  2  0  0  0  0
 21 24  1  0  0  0  0
 21 26  1  0  0  0  0
 22 27  1  0  0  0  0
 23 25  1  0  0  0  0
  1 29  1  0  0  0  0
  2 30  1  0  0  0  0
  3 31  1  0  0  0  0
  4 32  1  0  0  0  0
  5 33  1  0  0  0  0
  6 34  1  0  0  0  0
  7 35  1  0  0  0  0
  8 36  1  0  0  0  0
  9 37  1  0  0  0  0
 10 38  1  0  0  0  0
 11 39  1  0  0  0  0
 12 40  1  0  0  0  0
 13 41  1  0  0  0  0
 22 42  1  0  0  0  0
 22 43  1  0  0  0  0
 22 44  1  0  0  0  0
 23 45  1  0  0  0  0
 23 46  1  0  0  0  0
 26 47  1  0  0  0  0
 26 48  1  0  0  0  0
M  END
> <OMEGA_C>
MF/0QMsKAUGE7bnBTwHSQDECB0FmlcDBd5LPQHh3kEAYSJbBeyj+QCyC1kAWa7jBwNXaQJKFw762
/LbBPYC/QDzSTj9Wd6fBxdrJQP6Zyr/R4rLBc3muQB3dxb7LXKPBcKW5QIxp7kA10sXB9twHQU26
DkCiFbrBuY4KQZUkaUC4T73BWpjQQMTAikBeZ6HBPkCoQNZzjEAI85DBnFbVQID+Uz+AXrHBl27l
QLSxtkBihb3BB7azQNgSzb9MCqnBN2DDQHTIwkC8YcTBHF/nQO89BUAM0bXB3wbvQAJHiUBwfbvB
0xKqQJargECd46bBewaDQLI7g0C155bBWaWTQBEdOMDJkJrBuX+pQPW8akAEpLLBEW+EQKfXe0BE
naHBirvUQIF3VUBB5rbBBVc4QIf1fECWs5HBjK2kQNUHNcBaW6XBjNWlQFxWnEDoesvBzZwDQfku
DUEA+7XBrlTKQFy3F0G4q8HBXHTsQMTOl0D855HB/08MQZBrzUAhWbPBBiLsQO0Sx76Bd77BCtu7
QLa93D82/aLBI9XNQLcGIMA5VbfB1FedQH24wb7l25vB2m6fQEWo90Cc9MrBHK4TQXyAuT/P7brB
zu8YQYXHgkACh8DBwEvuQOH5jUBUv6XBEYKmQExhkEBbYIjBpQiJQKmjecDJvpjBTKusQO34JMCQ
25TBgaRwQDgLDMAF6ZnB9XKUQAYSM0DVyrPBWsWcQODPkEDgI7fBKtkKQKynbkB3CZfB4NE8QJTH
TUA0U4zBBb30QOIKAUHKuLnBzhDTQBFAB0GlisDBDpTPQAm1kEBuYZbBfhb+QIFl1kAGRLjBr6q/
QOjgUz/PgKfBGk3bQFSGxL6i4LbBT6auQHuPuL6gS6PBTlHKQAwuyr/Lq7LBbc26QAlC70BU8cXB
D58HQULIDkBpWLrB918KQastaUDOir3B2l7QQP+wi0DihqHBhH6oQKqwi0D5/ZDBqmLVQOIEVj+N
arHBQ4XlQNX1tkDLjb3BhsGzQO2Zyr9R4ajBouzDQKt/w0DSgMTBVgvnQF2fBUAX+7XBxdfuQPh2
iUDknbvBY+SpQKMtgUAg+qbBozWDQFNtgkDq65bBNdSTQAcCNsBETprBA1CpQC/oa0D0vLLBJWuE
QI9Re0CIpqHBaoLUQKQWVkBUAbfBIuE4QOf3ekCwr5HBJcmjQBsTM8DuM6XBYgOmQN5znUCHo8vB
lbEDQdsKDUH1m7XBc9jLQBgCGEFEocHBBHbsQD9HmECkB5LBEQ0MQdbtzEDzF7PBeBm8QDD13z/k
F6PBiOjsQIb8zb6GT77B0J2dQH5fr75vx5vBrp3OQPpSIMD8/bbBiSGhQJTi+EDmM8vBtlkTQSMj
uT/CRbvBlrsYQVuxgkBvz8DBmd3tQCzFj0C16aXB6PmmQPDijkDCZYjB/02IQIfydsD8gJjBcL6t
QC4WJcAavZTB2q9yQNYwCMCtaZnBphSUQLqJNEDi57PBGMicQCWDkUBVOrfB8icLQO1LbUBGBJfB
SHg9QLw8S0BNY4zBW7K5QGhZ7kAH38XBr67RQCk8B0Htu8DBotPPQGx/j0BT9JbB5ufDQLT/wkAr
OsTBjMi/QL5AXD/nWafBTQPaQDXiuL4L1bbBAlyuQAIYo742G6PBi8vIQAdTxr/fj7LBOqrzQBmc
AUEK47nBBP0HQeP1D0DEzbnBesoKQTMqakDaEL3B97TPQLZOi0AVGqLBvT+pQE48ikDaa5HBCQHV
QHTDWz+YVLHBJ/HlQH55t0DfXr3BruKyQJ59xb8trqjB2tv9QO7X10B8J7jBiwznQF9oBkCy67XB
tknvQMbXiUCMgrvBofKoQEglgUAdfafBOJuDQNRMgUCWNZfBNkGXQFURNMBCqZnBDHqoQJc7a0Ae
SbPBMt+DQBU0ekBl/KHBNjLUQI0nVkCUTrfBu+Q6QFU0eUAFuZHBRu6iQK4NMMB84qTBJGYTQV4O
y0CMIa/BYHqfQJr69kAFEsvBtgXKQFvhF0FDC8LBjxLtQDSklkAgtpLBDKKxQC5pqkAGOsjBke68
QC5I5D9U7KLBARfrQNVhxb5ZV77BInadQPmWlb6MkpvBw2bMQIp/HsCY5rbBlP0CQZL3DUH28rXB
rewTQc1evD9sXrrBP1AZQbs9g0B+IcDBS+fsQBLFj0CYlqbB+FeoQDn+jEDTz4jBLjaLQFJ1dMAY
xJfB7IezQMpAJsB4tpTBjVd8QGGDBMBh/pfBjY+TQJplM0BSdrTBK+GbQCPukEBL27fBa8wLQBSn
bEBa6JbBFg9AQOjkSEDyg4zBCMK5QCUq7kBpvsXBtrLRQAUUB0GLisDBCK/PQNjYkEBYspbBALfD
QITCwkBAFsTB0AjbQKJnyb5C3bbBPQ3AQLIwVT9QfKfBW7jJQGJ5yr+Om7LB382uQMI4sr7oN6PB
D4jzQH1dAUGhqbnBvMAHQXtpDkD1V7rBjHwKQev1aEAOfL3BsizQQGx6i0AL06HBab+oQMATjEDp
P5HBi4vVQAKBVD8TbrHBA63lQIgVt0D2OL3Bc3mzQA1myb8uxajBX7H9QHFN10CN/bfB2DTnQO32
BECODrbBOCfvQNVsiUBsdrvB+IepQLJBgUB3QafBt1SDQO2pgkDlG5fBb+mYQL2SNsCSr5nBrwap
QBk3akC9AbPBAy+EQEXFe0CT2qHBxoPUQME3VUCaIbfB/8U5QJFZekBKwpHBKkKjQBfYMcAn/aTB
qYYTQbsrykAYH6/BJ8afQOzu9kB0AMvBqx7KQLy9F0EN08HBd6/sQKh/mECUZ5LBmE+xQJFBqkDD
FMjBPY3sQO89174eT77BoNi8QFwD4T+uGaPBgIPNQPOjIMAF7LbBo+2dQGbjpL5vrpvB6N8CQZar
DUHvp7XBdIYTQaSuuD8TQbvBY88YQYqagkDpyMDB6qntQCgTj0A8PabBG2unQJeSj0APqYjBgX6M
QEyxdsBPzJfB5+a1QMFSKsBo75TBtn+AQENEBsA1wZfB1T+UQH4CMkA/DrTBHh6cQOsckEA/o7fB
bcELQFT5a0A3BZfBC48/QLC6SkCbdozB

> <OMEGA_E>
PDfVPhBO1T748eA+CCbiPg==

> <OMEGA_NBR>
      5389

$$$$
50161589
  -OEChem-04172616093D

 53 57  0     0  0  0  0  0  0999 V2000
    7.6433    8.0253  -23.2341 C   0  0  0  0  0  0  0  0  0  0  0  0
    6.6007    8.4104  -24.0994 C   0  0  0  0  0  0  0  0  0  0  0  0
    6.4721    4.5236  -18.7946 C   0  0  0  0  0  0  0  0  0  0  0  0
    7.9270    6.6613  -23.0388 C   0  0  0  0  0  0  0  0  0  0  0  0
    6.9165   -0.3813  -22.8070 C   0  0  0  0  0  0  0  0  0  0  0  0
    5.9470    0.7977  -20.9104 C   0  0  0  0  0  0  0  0  0  0  0  0
    6.3850   -1.5875  -22.3231 C   0  0  0  0  0  0  0  0  0  0  0  0
    5.4105   -0.4055  -20.4259 C   0  0  0  0  0  0  0  0  0  0  0  0
    5.8430    7.4319  -24.7727 C   0  0  0  0  0  0  0  0  0  0  0  0
    8.4881    2.2245  -23.1978 C   0  0  0  0  0  0  0  0  0  0  0  0
    8.6471    3.6249  -23.6304 C   0  0  0  0  0  0  0  0  0  0  0  0
    6.4942    4.3425  -20.1842 C   0  0  0  0  0  0  0  0  0  0  0  0
    5.2497    4.3928  -18.1186 C   0  0  0  0  0  0  0  0  0  0  0  0
    3.2811   -3.0604  -19.1687 C   0  0  0  0  0  0  0  0  0  0  0  0
    5.5756   -3.0609  -18.4019 C   0  0  0  0  0  0  0  0  0  0  0  0
    3.8002   -3.3546  -16.9085 C   0  0  0  0  0  0  0  0  0  0  0  0
    6.6778    0.8246  -22.1206 C   0  0  0  0  0  0  0  0  0  0  0  0
    7.1594    5.6780  -23.6970 C   0  0  0  0  0  0  0  0  0  0  0  0
    5.6236   -1.6124  -21.1388 C   0  0  0  0  0  0  0  0  0  0  0  0
    4.6519   -2.9505  -19.4597 C   0  0  0  0  0  0  0  0  0  0  0  0
    6.1188    6.0647  -24.5777 C   0  0  0  0  0  0  0  0  0  0  0  0
    7.2219    2.0772  -22.6789 C   0  0  0  0  0  0  0  0  0  0  0  0
    7.4469    4.2629  -23.4359 C   0  0  0  0  0  0  0  0  0  0  0  0
    5.2876    4.0209  -20.8621 C   0  0  0  0  0  0  0  0  0  0  0  0
    4.0814    4.1010  -18.8539 C   0  0  0  0  0  0  0  0  0  0  0  0
    5.2692    3.6551  -22.3300 C   0  0  0  0  0  0  0  0  0  0  0  0
    2.8742   -3.2567  -17.8962 N   0  0  0  0  0  0  0  0  0  0  0  0
    5.1347   -3.2629  -17.1410 N   0  0  0  0  0  0  0  0  0  0  0  0
    4.1157    3.9317  -20.1934 N   0  0  0  0  0  0  0  0  0  0  0  0
    6.6242    3.3175  -22.8518 N   0  0  0  0  0  0  0  0  0  0  0  0
    2.8716    3.9604  -18.1931 N   0  0  0  0  0  0  0  0  0  0  0  0
    5.0721   -2.8265  -20.7647 O   0  0  0  0  0  0  0  0  0  0  0  0
    5.1885    4.8707  -25.4672 Cl  0  0  0  0  0  0  0  0  0  0  0  0
    8.2247    8.7769  -22.7208 H   0  0  0  0  0  0  0  0  0  0  0  0
    6.3817    9.4576  -24.2470 H   0  0  0  0  0  0  0  0  0  0  0  0
    7.3776    4.7590  -18.2552 H   0  0  0  0  0  0  0  0  0  0  0  0
    8.7338    6.3667  -22.3839 H   0  0  0  0  0  0  0  0  0  0  0  0
    7.5105   -0.3786  -23.7090 H   0  0  0  0  0  0  0  0  0  0  0  0
    5.8002    1.7115  -20.3537 H   0  0  0  0  0  0  0  0  0  0  0  0
    6.5619   -2.5051  -22.8644 H   0  0  0  0  0  0  0  0  0  0  0  0
    4.8361   -0.4119  -19.5113 H   0  0  0  0  0  0  0  0  0  0  0  0
    5.0484    7.7311  -25.4403 H   0  0  0  0  0  0  0  0  0  0  0  0
    9.2355    1.4487  -23.2746 H   0  0  0  0  0  0  0  0  0  0  0  0
    9.5470    4.0696  -24.0291 H   0  0  0  0  0  0  0  0  0  0  0  0
    7.4181    4.4462  -20.7336 H   0  0  0  0  0  0  0  0  0  0  0  0
    5.2034    4.5143  -17.0464 H   0  0  0  0  0  0  0  0  0  0  0  0
    2.5530   -2.9878  -19.9631 H   0  0  0  0  0  0  0  0  0  0  0  0
    6.6348   -2.9841  -18.5986 H   0  0  0  0  0  0  0  0  0  0  0  0
    3.4612   -3.5119  -15.8953 H   0  0  0  0  0  0  0  0  0  0  0  0
    4.6112    2.7845  -22.4683 H   0  0  0  0  0  0  0  0  0  0  0  0
    4.8738    4.5080  -22.9011 H   0  0  0  0  0  0  0  0  0  0  0  0
    2.1542    3.7390  -18.8537 H   0  0  0  0  0  0  0  0  0  0  0  0
    2.9432    3.2246  -17.5198 H   0  0  0  0  0  0  0  0  0  0  0  0
  1  2  1  0  0  0  0
  1  4  2  0  0  0  0
  2  9  2  0  0  0  0
  3 12  2  0  0  0  0
  3 13  1  0  0  0  0
  4 18  1  0  0  0  0
  5  7  2  0  0  0  0
  5 17  1  0  0  0  0
  6  8  1  0  0  0  0
  6 17  2  0  0  0  0
  7 19  1  0  0  0  0
  8 19  2  0  0  0  0
  9 21  1  0  0  0  0
 10 11  1  0  0  0  0
 10 22  2  0  0  0  0
 11 23  2  0  0  0  0
 12 24  1  0  0  0  0
 13 25  2  0  0  0  0
 14 20  1  0  0  0  0
 14 27  2  0  0  0  0
 15 20  2  0  0  0  0
 15 28  1  0  0  0  0
 16 27  1  0  0  0  0
 16 28  2  0  0  0  0
 17 22  1  0  0  0  0
 18 21  2  0  0  0  0
 18 23  1  0  0  0  0
 19 32  1  0  0  0  0
 20 32  1  0  0  0  0
 21 33  1  0  0  0  0
 22 30  1  0  0  0  0
 23 30  1  0  0  0  0
 24 26  1  0  0  0  0
 24 29  2  0  0  0  0
 25 29  1  0  0  0  0
 25 31  1  0  0  0  0
 26 30  1  0  0  0  0
  1 34  1  0  0  0  0
  2 35  1  0  0  0  0
  3 36  1  0  0  0  0
  4 37  1  0  0  0  0
  5 38  1  0  0  0  0
  6 39  1  0  0  0  0
  7 40  1  0  0  0  0
  8 41  1  0  0  0  0
  9 42  1  0  0  0  0
 10 43  1  0  0  0  0
 11 44  1  0  0  0  0
 12 45  1  0  0  0  0
 13 46  1  0  0  0  0
 14 47  1  0  0  0  0
 15 48  1  0  0  0  0
 16 49  1  0  0  0  0
 26 50  1  0  0  0  0
 26 51  1  0  0  0  0
 31 52  1  0  0  0  0
 31 53  1  0  0  0  0
M  END
> <OMEGA_C>
OJb0QLVnAEF937nBtzjTQP+QBkGhy8DBYhvPQCvBkEBiW5bBYqr9QMAp1UBoT7jB5lPdQJw+w76/
dLbBe02+QKY3TD9ySKfB2FHMQKUzy7+glbLBkiKtQOeZz74qaKPBpPm6QErS7UCVLsbBN88HQY9d
DkD+lLnBtloKQRL/Z0AXC73BLtDPQLv1ikAweaHBSf2nQB2SjEDf8pDBX/1RQE3eQ8ByWZnBimuy
QBHlQ8AnN5PBHzZzQBqxVsCkRIfBm7DVQOEYUz/y9rDBmxnlQIyytUBgk73BnPSzQOtjzr9BHKnB
jtyUQLfVPMCRrZvBVc3DQN4RwkAyn8TB/BnnQCnxBEBobrXB1UzuQJ1piECwfLvBzDOpQJOrgECa
5abBFJuCQHY7g0Cy1JbBVZ2oQKfsaUDuo7LBjPM3QJduUMB5K4/Bdk+kQK3SUMDUIInBHrSDQN+g
e0AtjKHBgvnTQKhSVECW0LbBw8c3QHp3fUB0i5HBlk6iQITlNMAKHqbBVAimQNrcm0DcvMvBjZgD
QUhuDEFLxLXByjbMQGpSF0HT+cHBjxXsQIZJmECgCpLBf70LQVS8y0BKErPBA1bwQC7Xwb76q73B
+5q5QD0R2z9K1KLB4frRQCNUIMBa6rbBd8GaQIrk0r4VF5zByoyhQGll90CqhcvBzsQTQTZvuT93
MrrBa8AYQUA6gkCpO8DBX2HtQHNHjkB/3qXBcoKmQF51kEAdX4jBGGUjQL04P8BjtJ/BHVDUQLj6
PsAIypTBjoNdQDnDYMD1Un7BjI6TQJ81MkAQv7PB6vWbQHRBkECLNbfBi94JQIBLb0BR1JbBAl08
QCFfTkB2KIzBGsrzQB14AEF6IrrBCEzRQABOBkFBx8DBDRDPQMaakECoW5bBq6n9QPB11UD0kLjB
n4S+QKIATD+xQ6fBstbdQHaPwb55bLbBnFGtQJCS0L7zbaPBPtHMQM3yyr8Rl7LBQhS5QInX7EAm
AMbB2xYIQavCDkAOaLnBU5QKQTteaECc47zBZq/PQCFRi0AOfaHBKBCoQF3Ki0B57pDBQFlSQC/s
PsBtapnBgH6yQCllRsD1Q5PBWn5yQG6YU8D3VYfB8RfWQOxhUz8X6rDByf3kQDOJtUC5n73B2E60
QGp7zr+dJKnBzC2VQHyHPMD1upvBdwzDQHtKwUCtisTBy4vnQOoMBUBvVrXBDpTuQMhniECWb7vB
+iupQPybgEBf5qbB/K2CQOBwgkB8z5bBmsKoQPB9aUDIobLBfKg3QM4ISsCcPI/BAA2kQKPxUcBY
L4nB5bqDQHOVekCMiaHBQkXUQDUzVECPxbbBsgc4QIB/e0DrgpHBNfuiQJIsNcA1I6bBjhqmQLuM
mkAtssvBnVMDQWiuDEHYPrbBC2jJQGz8FkGx3sHB7wTsQEQ7mEBTC5LBWBMMQbiGzEBrfLPBT7S5
QJ7V2j88zqLBtfDwQC27vr67n73B4MiaQHoL1b4qI5zBKZTSQCIgIMDO7bbBH86eQIrp9UCRIsvB
Zx4UQWmquj8b9LnBEv8YQXGIgkDMBcDBDh7tQFFWj0B556XBP6ymQAg1j0BEV4jB2RokQGDgN8DM
xp/ByHjUQPO6RMDD1JTBV0RcQHPoXMDSeX7BH9uTQNGIMUCHurPBJgScQPvpj0BUO7fBEg4KQEGC
bUB/y5bBh8c8QPslTEB3KYzBiU/0QJpEAEGGqLnBKITSQMF1BkEWccDBuuPOQMiOkEDcb5bBwtH9
QMrm1EC9QbjBTPvcQBAdw746i7bBVT++QAS+Sz+AUafBUO7LQLMly79zsLLB5hatQN6Z0L4zc6PB
f266QMex7UBD58XBbuUHQWgaDkD1frnBS30KQbS3Z0AW87zBT4LPQLdYi0D7kaHBaOKnQKe8i0BP
A5HBfJ+yQCPWRsBvRpPBT05SQJZwPsBsS5nB5VZzQGIMVMCYQYfB84vVQCueUj9bArHBUkPlQGCC
tUA/jL3B0sizQGCJzr+3LqnBfBiVQNlyPMC+r5vBQL/DQFb0wUARhsTBHiPnQMq1BEBObrXB/3zu
QPQ7iEBNfLvBkP2oQJevgECi/KbBTIGCQGlqgkCW5ZbBxZGoQAizaUDSuLLBIG2kQFulUsD6LInB
CiA4QDrQScCEGY/BCY6DQBStekAVoKHBUQnUQEAJVEBF2bbBDr43QE8Me0DkmJHBd5eiQDowNcBy
H6bBnlOmQCnlm0CRyMvBPnUDQfdEDEHQiLXBrw3LQJ41F0E9dcHB/9nrQK0hmECdHpLBF/oLQcZt
y0COH7PB7t3vQHLkwL6bx73B0Jy5QCjE2j+i2qLB1GLRQGo0IMCXDrfBfM+aQK+N1L4fHpzBB8Kg
QC9U90BxKcvB8N0TQeHquD/lDrrBm/AYQTEcgkCIEsDBM/HsQL5jj0D4+6XBn3ymQGMgj0Dza4jB
lY/UQPpcRcCO5ZTBYr4jQOLfNsASnJ/BsIFdQKK2XcDRS37BwYqTQFLwMUD/07PBUfibQPYVkEBM
UrfBpNAJQLntbEC+4ZbBZbU8QKmmS0DnQYzBk0r1QJMwAEF6crnB3ujTQA+UBkGsT8DBHZvOQKMw
kEDSXpbB+E3+QMmh1EChC7jBShi+QGv+Sz8AUafBv5rcQOrCxr4ph7bBpF2sQIulzL5ZfaPBtA3L
QI1fy78Is7LBdaq7QKU17kAi1MXB8tcHQfBUDUBclLnBTX0KQVzuZkAcC73BG5XPQM2rikDIfqHB
XlmnQGXii0B0B5HBRteyQNFFRcBbm5PBWxNRQMtYQMD3A5nBA153QM4BVcCeH4fBs2rVQCF3UT8u
AbHBLrjlQP6DtUA5b73BkZSyQLuMzb+EPqnBURiUQHMnPMBgxJvBPXzEQBNcwkDecsTBPB/nQOdH
BEBxc7XBZrLuQM4YiEDQdbvBxBmpQO91gECq/KbBUxyCQIe0gkBW/JbBncOoQMOdaUBeurLBoSKm
QGDEUcAOZonBNeI5QMFTTMAiuI7BDHuDQEIGe0AHtKHB+y7UQDjRU0CZ1rbB9Ho2QI02fEDEx5HB
wg6gQFG3M8AnTqbBeb6mQAejnEDyu8vBHfsDQWoUDEHyQrXBbeLMQMxeF0HPWMHBfXrrQNual0Cq
/5HB0QoMQZfbykDz1bLB8OO5QHLa2j9V0qLB6K3vQLeyx76Vu73BqAGaQOrnzb5sK5zBr1/QQD94
IMCmC7fB0z+iQL8j+EB1IcvBJ8ETQbD4tj/YLbrBYugYQe+JgUCuQMDBZD7tQKIjjkAL2KXBhael
QM6Oj0DScojB2oTUQD1HQsCFgpXBqLMgQLX8OcCxIp/BAe1jQDXoXsCy2X3BT6iTQJ0GMkB637PB
p0ucQJYnkEAPT7fBJ+MIQNtJbkA0HpfBTLg6QPbhTEDra4zBJy+5QL7B60A+78XBw+bRQF8oBkEC
M8HB5/nOQHvyj0BDMpbBO2/DQKOWwEAHEMTBtaS+QIp3TD+dS6fBL+HcQO7swb7ulLbBhjOtQBvK
zb5DdKPBjpPLQHeFyr+iv7LBN6f0QL7YAEH+hrrBNwQIQZZeDUCEp7nBkbcKQbL7ZkD1Fb3BD+TP
QIn1ikCMVqHBdMWnQDRSi0Cm2pDBejBSQDD1PsCxPJnBedeyQFw/RsAKaZPBo+Z0QAR4VMAPP4fB
D9XVQI3/Uj8BAbHB+xrmQKPFtUDBVr3BcYezQBCuzb8+OqnBneyUQPksPMCtvZvBx8n+QI+A1kCg
irjBP6bnQHGvBEC0Z7XBoo3vQDuFiEBBNbvBVW+pQF/ngEAR3abB/YGCQGF1gkC605bBSVKpQDba
aUAznrLBuPM4QIm5SsAYA4/B8x2lQDpeUsDmRonBXtODQMtte0BDkaHBqOfUQA57VEDjq7bBQ0U3
QE3re0D2nJHBGfKhQGJ/NMBoNabBvkcUQW5QykA+tK/B52SeQJns80Ad/8rBTzbKQLa9FkHrrsLB
MN3rQB40l0B40JHB2LqwQEqep0CCx8fB7lC6QJ/82j8hzKLBe6nvQONawL6Z1b3BCfyaQAEl0b6w
HJzBhcLQQPTaH8AAJbfB4soDQdhgDUFk7LbBJtUTQUl+tj+nWrrB5gcZQWNTgUDZeMDBU4ftQFi4
jkB6rqXB/CGmQJiCjkC+QojBswsjQJGvN8BjfZ/B87PUQH1IRMAVH5XBW9NfQGlOXsBlOH7BDG+U
QALmMUCsvLPBZ7ecQMQQkECOQLfB93oJQIvRbkD89JbBmTQ7QI8bTEBdUYzB++64QJxq60C55sXB
nd/QQFQGBkHT88DBZITPQFsEkECtT5bBEHXDQDVHwEDSEcTBNobdQOOkx77gd7bB7ba+QEouSz+z
SafBLQHMQA62y7+JpbLBst+sQBokzr4gfqPBpSXzQBPEAEFjHrrBYU4IQfCHDUB6drnBiegKQZtT
Z0DS3bzBFGbQQF5XikDgbaHB5EeoQMvxi0Dd9ZDBnFOyQGzcPsDHYZPB2YJRQLNxR8DGUJnB8BB1
QJXyVMDmOofB0UHWQG/GUD+q8bDBMMXlQJqQtUAfOL3BnWOzQBkPzr95NqnBiEiUQDN3PMA1yZvB
Laj9QFdg1kAyNbjBRAroQMEnBEDYWrXBipjvQOZQiED3KLvBis+pQDCJgEAJ8KbBnPqCQALxgkAV
6JbB1nWpQFOPaEDvq7LB+fSkQLsmS8DnOInB7vA4QGgtU8CtEI/BrzeEQOyme0D0oaHBhgbVQCeU
U0DqtrbByVc4QCTMfEAJrJHBUfCgQMMcNMCiSKbBd4ETQYtQykBhPa/BIIeeQPJ/80CfGMvB7fPI
QEWYFkGeZcLBGXHsQFBfl0Bt9JHBlj2xQLhBp0D+6cfB1aHwQMP/x77mqr3BAm66QCpo2j81y6LB
q3XRQCSjIMCN+7bBuTKaQKD1zr4MOZzBdLYCQRtTDUEGVbbB3T4UQWGgtz9BFrrBHUYZQf3JgUDD
HsDBHR3uQNdijUBXxqXBmqOmQBKpj0BbYYjBdv3TQHHhNsBCEJXBvD8iQJ9+RsB2np/BgIpgQMKN
XsCiIn7B5riUQOZNMED3ubPBv5+cQOs5j0AgVrfBcpMKQNIPb0B4/pbB+ps8QLVgTUBvU4zBQHq6
QMgv7ECW1cXBLJDSQKUqBkGWusDBe+nOQBjAj0CeLZbBPGrEQEDawEA2F8TBEZ2+QOUQSz91TafB
RCXdQJOGyL7/g7bBMeqsQITHzr4qeqPBQabLQH3Vy7+Dr7LBVIz0QJiSAEHc3rnB8PgHQYxiDEBY
ybnB2qcKQefrZUBqQL3BhgbQQD1fikC7TqHBRo6nQKiXi0Bx4ZDBN+uyQEHhRMCQfZPB3MNRQIHS
QMANI5nByFl2QNo4VcBFL4fBnP7VQLRrUD9g+7DB12PmQFqAtUDbNL3BFEOzQNEmzr8eOKnB/5CU
QNBFPMAYwJvBCpr+QLjL1UBOF7jB/rvnQFD0A0AwbbXB06PvQEshiECZO7vB0JCpQM+0gED536bB
pVuCQPrOgkB045bBkX+pQBVyaUDdoLLBRLqlQMlvUcCLUonBY5g5QGDkTMC84I7BJdeDQC7We0AZ
n6HBsArVQBrVU0Akq7bB/sU2QN7GfEC1t5HB4wmhQFU5NMAuQabByvoTQb7KyECmNK/BhmigQJbM
9ED/FMvB7vjKQBzPFkGVEsLB4MHrQF7ylkDGxZHBqQOyQGIyqEDjBsjBfle6QI9t2j/P0KLB5Sfw
QJEFyb4mu73B6HqaQHgc0L5GK5zBzvHQQP+rIMAlCrfByXgDQXvxDEFr97XB370TQQ1FtD8CirrB
jeMYQaCrgECmwMDBMtPtQPOKjUBxnKXBNcClQNQTj0DpS4jBc67UQL9xQcD5SJXBUPwhQG+qOsAq
VZ/BhyFiQAJJX8CvCX7BvYmUQM6bMUD3wLPBl/6cQE/lj0BzRLfBFi8JQM6Mb0BYFZfB9H06QC0a
TUCPZozBMrC6QD6A7UByp8XBRUXTQNmXBkErhMDByh3PQLCBj0C5aZbBXgrEQOL4wUBH/MPBVJLc
QGL/x770rrbBY1y+QAN1Sj93a6fBypbLQHUnzL9JxbLB1TStQEgN0r7/gKPBtir1QCKtAEFYs7nB
+7EHQXD6DEBH4LnBY2kKQYu+ZkDFPb3BYtTPQL0YikDYiaHBo/OnQHhni0BYCJHBHplSQG6XPsA3
N5nBhOOyQIvrRsA6SpPBmV10QP85VMD7MofB6GTVQL2vUD/LJ7HBCgbmQOb3tUAnK73B7rOzQB4h
z7+iOKnBCTKVQK2APMDHqZvBl7P+QE/U1UBuA7jBJwfnQKgmBEAhnrXBZfzuQApoiEDyUrvBBCyp
QOd8gED+B6fBwIqCQByZgkB89JbBLMSoQGJVaUCBzLLB99M4QNIISsBJAY/BcOakQAjQUsCBLInB
5qCDQCNfe0CpsaHBAEPUQGz4U0Cg37bBrpI3QLtVfEASr5HBcX+iQGNhNcA9HqbBS/sTQVgYyEDs
Ka/BCq+gQB2b9kCr3srBuyDMQJlNF0GGzcHBCx/sQJavlkBREpLBoC+xQBCtqUBe7cfB8zTvQItR
x76y9b3B3O25QDFB2j+79KLBS+bQQK7OIMDyILfBlBWbQDdJ1L6nJZzBN/MDQVjeDEG8wbXBI38T
QfqvtT+Qn7rBLLoYQX1AgUAwncDBBX7tQBczjUBc56XBinGmQMfyjkBJcojB9cYjQJQLN8BJgJ/B
G8vUQExnRcAq9JTBed5eQIfdXcApJ37BctCTQKh6MUCa67PB7COcQILij0CHZrfBDY4JQBoNb0Bt
/ZbBs8E7QOGwTEA0XozBCkrAQH836UA5CcfBpZLGQA8SBEG0+r7BECGFQFDHLUCTJpbBZYTOQPn2
vkApdMXBW87VQH40wr68ybjBDRDQQJjHHj8+EKfBaAzDQLcJyL8Y27TBcpS8QGNsCr8dLKPBT27b
QH/u/EAiYbXBwhwKQdTIDUBgLbrBrHMLQZK0aUBR1rzBgO2HQOhPKUDfWqHBBvKdQPXYakBZuJDB
nrpWQLJ6HsBkbpnBik2xQA2JT8Dw05PBmQR2QI+iNcAhXYfBon7bQAxcOD+U5LHBmGXjQDK6s0Co
2rvB2sm1QGpQ07+REKrBs0uVQCFoN8AoIZzBpCvqQEDO0kDoz7PBCVPsQDQP/j8h6rXB8E7wQOBC
h0C+NLrByGWkQEVzYEBM1qbBlMu4QPDmkEB3pZbBNHGpQO2uWEBN6bLBBKQ9QHv3HcCHFY/BJ8Oj
QO0kTsB0j4nBlJm7QPrXjUBwcaHB8l3XQJ/mTEDTP7bBWM/QQMa4r0CfVJHBnP+iQH1+NcCuoabB
q8QCQbIOxkBjAajBipKwQIvw8UBZas7BTmK7QGU/FEGtKcDB8JFgQDMNA0CVy5HBSXPJQBIop0BN
lsvBQcTfQCSvob65C8HBXlnWQCrnuD//tKHBiMW+QGAkGsBQH7rBQaqyQAcMGL8O6JrBjh3gQKBY
CkE1N6/B34kWQUNmvT//XLvBGRwZQcIWhUDtO8DBFwppQHJg+D9Qv6XBTH2cQAatb0DhG4jBN2oq
QM7AC8CQop/BqpzRQLUnY8B5q5XBXiVhQKPvNMBSQX7ButCWQPU5IUC1r7XBxvucQG2giUDgq7bB
HfbhQI1swECRo5bBtja9QO98w0AlYo3B

> <OMEGA_E>
ACCwPMApsDwAbrk8AHTWPECrQz2AMUk9ACJMPSA9Tj3gnjA/

> <OMEGA_NBR>
     13659

$$$$
50161583
  -OEChem-04172616093D

 62 66  0     0  0  0  0  0  0999 V2000
    5.6917    7.4562  -24.5933 C   0  0  0  0  0  0  0  0  0  0  0  0
    6.4520    8.4652  -23.9735 C   0  0  0  0  0  0  0  0  0  0  0  0
    6.0553    6.1073  -24.4354 C   0  0  0  0  0  0  0  0  0  0  0  0
    6.1556    0.8628  -20.8447 C   0  0  0  0  0  0  0  0  0  0  0  0
    6.7756   -0.2937  -22.8966 C   0  0  0  0  0  0  0  0  0  0  0  0
    6.4930    4.5153  -18.9243 C   0  0  0  0  0  0  0  0  0  0  0  0
    5.5777   -0.3170  -20.3433 C   0  0  0  0  0  0  0  0  0  0  0  0
    6.2030   -1.4753  -22.3970 C   0  0  0  0  0  0  0  0  0  0  0  0
    7.5714    8.1238  -23.1901 C   0  0  0  0  0  0  0  0  0  0  0  0
    8.5534    2.2933  -23.2118 C   0  0  0  0  0  0  0  0  0  0  0  0
    8.6961    3.7024  -23.6348 C   0  0  0  0  0  0  0  0  0  0  0  0
    6.4760    4.4148  -20.3123 C   0  0  0  0  0  0  0  0  0  0  0  0
    3.2481   -2.7419  -19.0900 C   0  0  0  0  0  0  0  0  0  0  0  0
    5.5393   -3.0896  -18.3973 C   0  0  0  0  0  0  0  0  0  0  0  0
    3.7802   -3.1984  -16.8597 C   0  0  0  0  0  0  0  0  0  0  0  0
    6.7289    0.8887  -22.1374 C   0  0  0  0  0  0  0  0  0  0  0  0
    7.1678    5.7549  -23.6390 C   0  0  0  0  0  0  0  0  0  0  0  0
    5.3123    4.2254  -18.2182 C   0  0  0  0  0  0  0  0  0  0  0  0
    5.5925   -1.5006  -21.1273 C   0  0  0  0  0  0  0  0  0  0  0  0
    4.6129   -2.8099  -19.4206 C   0  0  0  0  0  0  0  0  0  0  0  0
    7.9311    6.7728  -23.0144 C   0  0  0  0  0  0  0  0  0  0  0  0
    7.2838    2.1278  -22.7113 C   0  0  0  0  0  0  0  0  0  0  0  0
    7.4893    4.3304  -23.4319 C   0  0  0  0  0  0  0  0  0  0  0  0
    5.2876    3.9968  -20.9660 C   0  0  0  0  0  0  0  0  0  0  0  0
    4.1391    3.8964  -18.9329 C   0  0  0  0  0  0  0  0  0  0  0  0
    5.2845    3.6329  -22.4286 C   0  0  0  0  0  0  0  0  0  0  0  0
    6.2909    4.9431  -16.0132 C   0  0  0  0  0  0  0  0  0  0  0  0
    6.0160    4.6431  -14.5381 C   0  0  0  0  0  0  0  0  0  0  0  0
    2.8514   -2.9321  -17.8131 N   0  0  0  0  0  0  0  0  0  0  0  0
    5.1079   -3.2803  -17.1309 N   0  0  0  0  0  0  0  0  0  0  0  0
    4.1465    3.7876  -20.2760 N   0  0  0  0  0  0  0  0  0  0  0  0
    6.6638    3.3500  -22.9105 N   0  0  0  0  0  0  0  0  0  0  0  0
    2.9489    3.6628  -18.2549 N   0  0  0  0  0  0  0  0  0  0  0  0
    5.2730    4.2568  -16.8324 N   0  0  0  0  0  0  0  0  0  0  0  0
    4.6792    5.0140  -14.1980 O   0  0  0  0  0  0  0  0  0  0  0  0
    5.0133   -2.6982  -20.7332 O   0  0  0  0  0  0  0  0  0  0  0  0
    9.2803    6.3883  -21.9645 Cl  0  0  0  0  0  0  0  0  0  0  0  0
    4.8300    7.7177  -25.1895 H   0  0  0  0  0  0  0  0  0  0  0  0
    6.1768    9.5020  -24.0987 H   0  0  0  0  0  0  0  0  0  0  0  0
    5.4806    5.3357  -24.9260 H   0  0  0  0  0  0  0  0  0  0  0  0
    6.1617    1.7562  -20.2380 H   0  0  0  0  0  0  0  0  0  0  0  0
    7.2526   -0.2937  -23.8655 H   0  0  0  0  0  0  0  0  0  0  0  0
    7.3916    4.8089  -18.4021 H   0  0  0  0  0  0  0  0  0  0  0  0
    5.1235   -0.3229  -19.3635 H   0  0  0  0  0  0  0  0  0  0  0  0
    6.2310   -2.3752  -22.9935 H   0  0  0  0  0  0  0  0  0  0  0  0
    8.1569    8.9012  -22.7218 H   0  0  0  0  0  0  0  0  0  0  0  0
    9.3126    1.5286  -23.2834 H   0  0  0  0  0  0  0  0  0  0  0  0
    9.5904    4.1585  -24.0330 H   0  0  0  0  0  0  0  0  0  0  0  0
    7.3591    4.6528  -20.8867 H   0  0  0  0  0  0  0  0  0  0  0  0
    2.5164   -2.5375  -19.8576 H   0  0  0  0  0  0  0  0  0  0  0  0
    6.5933   -3.1518  -18.6245 H   0  0  0  0  0  0  0  0  0  0  0  0
    3.4492   -3.3515  -15.8432 H   0  0  0  0  0  0  0  0  0  0  0  0
    4.6615    2.7383  -22.5755 H   0  0  0  0  0  0  0  0  0  0  0  0
    4.8661    4.4701  -23.0067 H   0  0  0  0  0  0  0  0  0  0  0  0
    6.2363    6.0279  -16.1869 H   0  0  0  0  0  0  0  0  0  0  0  0
    7.2925    4.5782  -16.2848 H   0  0  0  0  0  0  0  0  0  0  0  0
    6.1518    3.5670  -14.3551 H   0  0  0  0  0  0  0  0  0  0  0  0
    6.7206    5.2129  -13.9144 H   0  0  0  0  0  0  0  0  0  0  0  0
    2.2301    3.4340  -18.9114 H   0  0  0  0  0  0  0  0  0  0  0  0
    3.0723    2.9023  -17.6174 H   0  0  0  0  0  0  0  0  0  0  0  0
    4.3976    4.6757  -16.5914 H   0  0  0  0  0  0  0  0  0  0  0  0
    4.5208    4.8232  -13.2810 H   0  0  0  0  0  0  0  0  0  0  0  0
  1  2  1  0  0  0  0
  1  3  2  0  0  0  0
  2  9  2  0  0  0  0
  3 17  1  0  0  0  0
  4  7  2  0  0  0  0
  4 16  1  0  0  0  0
  5  8  1  0  0  0  0
  5 16  2  0  0  0  0
  6 12  2  0  0  0  0
  6 18  1  0  0  0  0
  7 19  1  0  0  0  0
  8 19  2  0  0  0  0
  9 21  1  0  0  0  0
 10 11  1  0  0  0  0
 10 22  2  0  0  0  0
 11 23  2  0  0  0  0
 12 24  1  0  0  0  0
 13 20  1  0  0  0  0
 13 29  2  0  0  0  0
 14 20  2  0  0  0  0
 14 30  1  0  0  0  0
 15 29  1  0  0  0  0
 15 30  2  0  0  0  0
 16 22  1  0  0  0  0
 17 21  2  0  0  0  0
 17 23  1  0  0  0  0
 18 25  2  0  0  0  0
 18 34  1  0  0  0  0
 19 36  1  0  0  0  0
 20 36  1  0  0  0  0
 21 37  1  0  0  0  0
 22 32  1  0  0  0  0
 23 32  1  0  0  0  0
 24 26  1  0  0  0  0
 24 31  2  0  0  0  0
 25 31  1  0  0  0  0
 25 33  1  0  0  0  0
 26 32  1  0  0  0  0
 27 28  1  0  0  0  0
 27 34  1  0  0  0  0
 28 35  1  0  0  0  0
  1 38  1  0  0  0  0
  2 39  1  0  0  0  0
  3 40  1  0  0  0  0
  4 41  1  0  0  0  0
  5 42  1  0  0  0  0
  6 43  1  0  0  0  0
  7 44  1  0  0  0  0
  8 45  1  0  0  0  0
  9 46  1  0  0  0  0
 10 47  1  0  0  0  0
 11 48  1  0  0  0  0
 12 49  1  0  0  0  0
 13 50  1  0  0  0  0
 14 51  1  0  0  0  0
 15 52  1  0  0  0  0
 26 53  1  0  0  0  0
 26 54  1  0  0  0  0
 27 55  1  0  0  0  0
 27 56  1  0  0  0  0
 28 57  1  0  0  0  0
 28 58  1  0  0  0  0
 33 59  1  0  0  0  0
 33 60  1  0  0  0  0
 34 61  1  0  0  0  0
 35 62  1  0  0  0  0
M  END
> <OMEGA_C>
rSK2QISZ7kAOv8TBhHbOQElxB0HKyb/BG8XBQPFuw0C5e8PBvvrEQDzeXD8EwqbBrdHYQNtklr4l
LLfBZ8bPQD19kEABZZfBo3yyQM1Tor7/vqLBm37GQGfWvL8nLbPBMUnyQCX7AUE7hbnBndoIQSnF
EkDOsbnBRSMLQUj0bEAYFL3BSDvPQC9GjUCLf6LBV+BPQMd7L8A4uJjBtEGxQKC8RcDELZPBWe5x
QKOyTMC34IbB9lLXQAKBYz9UGbHBxV7lQDkouECWHL3BUP6pQB82h0DvvpHBnPWyQC4UwL+/BKnB
rJyTQBTVM8BlXZvBSsv9QA272EBuHbjB4hTpQK8tCEDKsLXBe6jvQPySikCSdLvB6TOpQDHLf0Bb
uqfBR3OEQAleeUChdpfBuxqpQCmCaEDZbbPBOU/JQIctnkD6GoDBFoPAQF2UlEAqnGjBT302QN6n
O8BQgY7BUHSjQNjvUcAZDInB06+EQLZockA7NaLBAj7VQHxmVkC4SLfBoLo8QJFrakASCpLBYryo
QFk3iEDDqIbBUbyVQJRyoEAgK2PB1WygQAqvLMCA3aXBKHwUQbBszEBKt6/Bh4+aQK739kAahMnB
oajFQCkIGEEzysDBHGGvQK29qkB3aMfB3izFQK/K4D9c56HBMRXoQKZclr6S7L7BzofsQM/imUCU
N5PBXPOjQKhMpb5b6JrBAGTHQJsDGMCs8rfB0IICQTBrDkElxrXBmAAVQS6owz9TRLrBXXIZQY0S
hUClQ8DBY33rQJnjlED2F6fBbQwhQERmIsBP3J7BF/zSQGa2ScAT/5TB575cQDB/VsCgfX3BPiuV
QPZAL0ComrTBP7ebQMoKj0C/DbjBeY/HQFvkwEDIfoHB3FvpQLqAkkBYR4LBjdvEQENJZECqrmXB
2w7XQMrPpkCVoV7BtbkOQGjHW0CRSpfB+Z9EQGm/OUB48IzB3LiMQHGflUAfu4TBPKqQQKVXmkDd
flTB0Ry2QFPP7kDHkMTBSw/PQCpqB0EKsb/B4VvBQNqGw0AHWMPB+P3EQJNCWz+xw6bBrCvYQHii
lr6vQrfBC2LQQDu/jUAAQZfB++iyQC5ep77rtaLBeTzGQIw7vb+aOrPBpR7zQJrDAUHQjLnBsIcI
QZfPEUCJ8LnBGswKQbbWa0CCXr3BnpbPQM8pjEAZYqLBzAZRQLMzL8AB25jBsWexQCSvRsBaCpPB
HqtwQJwwTcBZ94bBpfrWQMNpYj/MJLHBRTnlQKvlt0DZG73Bk2uqQNymhEBMnpHBtWCzQDw6wb+o
/6jB8E6UQOFoNMA1VZvBSU3+QGYv2EByNbjBwrLoQOi+B0Dmv7XBn0bvQDhFikBwhbvBCS6pQKc8
gEAmp6fB+GSEQOyreUDSY5fBIeqoQCd6aECgVbPBZHrMQMv4kUArQn/BHZ/MQFcVw0ClcX/BBFA2
QDVjO8CAso7BgfGiQOXTUsC494jBmW2EQEopdUDuJ6LBnvHUQBsbVkB9Q7fBcFw8QGLTa0Ak+5HB
J3upQOBtgkC7fobBS3buQJhC0kAmTnLBMcChQKvXLcAgx6XBhBAVQRZfy0A5ErDBT12aQIN590AD
PcnBkIzGQMwMGEEsqcDBX3iuQCwGq0DGMcfB1iXFQEMS4D/86qHBl+jmQDPhk75LE7/B6nTtQBHF
lUAJCZPBZbOkQFFMrL7G1ZrBGujGQP4SGMBSB7jB8iMDQTkZDkFe2rXBzJcUQWU3wT8wm7rBmv4Y
QbJOhEDZu8DBN+DrQP7rk0DF86bB7BYjQKNzIcALFJ/B6zrTQL38SsCoupTBzGBaQGZKV8COxX3B
0vSUQJwmL0CPbbTBwWmbQK7jjkDu/LfBzj7rQGsBhkDkroLBeaPHQElzhkARzm7BO0bRQK+RzkBl
9YfBleWtQLoDz0ALRHnB3ckNQCbJX0D+QZfBlehCQJ7MOUAaD43BCmaPQASekkBrPITBw5ruQMOo
8EAsZnLB

> <OMEGA_E>
0BTCPhiyvz4=

> <OMEGA_NBR>
     15979

$$$$
50161596
  -OEChem-04172616093D

 54 57  0     0  0  0  0  0  0999 V2000
    6.5159    8.4224  -24.1445 C   0  0  0  0  0  0  0  0  0  0  0  0
    7.6194    8.0814  -23.3359 C   0  0  0  0  0  0  0  0  0  0  0  0
    5.7346    7.4115  -24.7387 C   0  0  0  0  0  0  0  0  0  0  0  0
    6.4876    4.5769  -18.8275 C   0  0  0  0  0  0  0  0  0  0  0  0
    7.9444    6.7293  -23.1214 C   0  0  0  0  0  0  0  0  0  0  0  0
    6.0561    6.0598  -24.5223 C   0  0  0  0  0  0  0  0  0  0  0  0
    6.0444    0.9536  -20.8873 C   0  0  0  0  0  0  0  0  0  0  0  0
    6.8589   -0.3325  -22.7894 C   0  0  0  0  0  0  0  0  0  0  0  0
    5.5130   -0.1964  -20.3209 C   0  0  0  0  0  0  0  0  0  0  0  0
    6.3485   -1.5074  -22.2049 C   0  0  0  0  0  0  0  0  0  0  0  0
    8.6807    3.6866  -23.6320 C   0  0  0  0  0  0  0  0  0  0  0  0
    8.5298    2.2819  -23.2080 C   0  0  0  0  0  0  0  0  0  0  0  0
    6.4978    4.4268  -20.2218 C   0  0  0  0  0  0  0  0  0  0  0  0
    5.2755    4.4121  -18.1414 C   0  0  0  0  0  0  0  0  0  0  0  0
    7.1572    5.7180  -23.7070 C   0  0  0  0  0  0  0  0  0  0  0  0
    6.7023    0.9042  -22.1297 C   0  0  0  0  0  0  0  0  0  0  0  0
    5.6948   -1.4384  -20.9541 C   0  0  0  0  0  0  0  0  0  0  0  0
    7.4720    4.3136  -23.4445 C   0  0  0  0  0  0  0  0  0  0  0  0
    7.2559    2.1268  -22.7157 C   0  0  0  0  0  0  0  0  0  0  0  0
    5.2922    4.0879  -20.8962 C   0  0  0  0  0  0  0  0  0  0  0  0
    4.1046    4.1165  -18.8706 C   0  0  0  0  0  0  0  0  0  0  0  0
    5.3264   -2.6426  -20.2141 C   0  0  0  0  0  0  0  0  0  0  0  0
    3.2768   -3.2403  -17.8839 C   0  0  0  0  0  0  0  0  0  0  0  0
    5.2832    3.6829  -22.3619 C   0  0  0  0  0  0  0  0  0  0  0  0
    4.7819   -3.5356  -17.9335 C   0  0  0  0  0  0  0  0  0  0  0  0
    4.1287    3.9651  -20.2145 N   0  0  0  0  0  0  0  0  0  0  0  0
    6.6494    3.3606  -22.8817 N   0  0  0  0  0  0  0  0  0  0  0  0
    2.9017    3.9635  -18.1990 N   0  0  0  0  0  0  0  0  0  0  0  0
    5.4278   -2.5868  -18.8274 N   0  0  0  0  0  0  0  0  0  0  0  0
    4.9521   -3.6544  -20.7971 O   0  0  0  0  0  0  0  0  0  0  0  0
    6.2689    9.4608  -24.3089 H   0  0  0  0  0  0  0  0  0  0  0  0
    8.2155    8.8585  -22.8808 H   0  0  0  0  0  0  0  0  0  0  0  0
    4.8905    7.6744  -25.3592 H   0  0  0  0  0  0  0  0  0  0  0  0
    7.3952    4.8146  -18.2926 H   0  0  0  0  0  0  0  0  0  0  0  0
    8.7950    6.4673  -22.5095 H   0  0  0  0  0  0  0  0  0  0  0  0
    5.4610    5.2831  -24.9795 H   0  0  0  0  0  0  0  0  0  0  0  0
    5.9517    1.8965  -20.3689 H   0  0  0  0  0  0  0  0  0  0  0  0
    7.3689   -0.3782  -23.7404 H   0  0  0  0  0  0  0  0  0  0  0  0
    4.9605   -0.1374  -19.3948 H   0  0  0  0  0  0  0  0  0  0  0  0
    6.4561   -2.4560  -22.7097 H   0  0  0  0  0  0  0  0  0  0  0  0
    9.5801    4.1412  -24.0204 H   0  0  0  0  0  0  0  0  0  0  0  0
    9.2853    1.5127  -23.2728 H   0  0  0  0  0  0  0  0  0  0  0  0
    7.4126    4.5672  -20.7783 H   0  0  0  0  0  0  0  0  0  0  0  0
    5.2389    4.5104  -17.0665 H   0  0  0  0  0  0  0  0  0  0  0  0
    2.7843   -3.9557  -17.2089 H   0  0  0  0  0  0  0  0  0  0  0  0
    3.1161   -2.2169  -17.5139 H   0  0  0  0  0  0  0  0  0  0  0  0
    2.8510   -3.3363  -18.8936 H   0  0  0  0  0  0  0  0  0  0  0  0
    4.6443    2.7949  -22.4775 H   0  0  0  0  0  0  0  0  0  0  0  0
    4.8685    4.5125  -22.9535 H   0  0  0  0  0  0  0  0  0  0  0  0
    5.2089   -3.4393  -16.9243 H   0  0  0  0  0  0  0  0  0  0  0  0
    4.9437   -4.5586  -18.3040 H   0  0  0  0  0  0  0  0  0  0  0  0
    2.1782    3.7484  -18.8550 H   0  0  0  0  0  0  0  0  0  0  0  0
    2.9825    3.2192  -17.5361 H   0  0  0  0  0  0  0  0  0  0  0  0
    5.9749   -1.8540  -18.4229 H   0  0  0  0  0  0  0  0  0  0  0  0
  1  2  1  0  0  0  0
  1  3  2  0  0  0  0
  2  5  2  0  0  0  0
  3  6  1  0  0  0  0
  4 13  2  0  0  0  0
  4 14  1  0  0  0  0
  5 15  1  0  0  0  0
  6 15  2  0  0  0  0
  7  9  2  0  0  0  0
  7 16  1  0  0  0  0
  8 10  1  0  0  0  0
  8 16  2  0  0  0  0
  9 17  1  0  0  0  0
 10 17  2  0  0  0  0
 11 12  1  0  0  0  0
 11 18  2  0  0  0  0
 12 19  2  0  0  0  0
 13 20  1  0  0  0  0
 14 21  2  0  0  0  0
 15 18  1  0  0  0  0
 16 19  1  0  0  0  0
 17 22  1  0  0  0  0
 18 27  1  0  0  0  0
 19 27  1  0  0  0  0
 20 24  1  0  0  0  0
 20 26  2  0  0  0  0
 21 26  1  0  0  0  0
 21 28  1  0  0  0  0
 22 29  1  0  0  0  0
 22 30  2  0  0  0  0
 23 25  1  0  0  0  0
 24 27  1  0  0  0  0
 25 29  1  0  0  0  0
  1 31  1  0  0  0  0
  2 32  1  0  0  0  0
  3 33  1  0  0  0  0
  4 34  1  0  0  0  0
  5 35  1  0  0  0  0
  6 36  1  0  0  0  0
  7 37  1  0  0  0  0
  8 38  1  0  0  0  0
  9 39  1  0  0  0  0
 10 40  1  0  0  0  0
 11 41  1  0  0  0  0
 12 42  1  0  0  0  0
 13 43  1  0  0  0  0
 14 44  1  0  0  0  0
 23 45  1  0  0  0  0
 23 46  1  0  0  0  0
 23 47  1  0  0  0  0
 24 48  1  0  0  0  0
 24 49  1  0  0  0  0
 25 50  1  0  0  0  0
 25 51  1  0  0  0  0
 28 52  1  0  0  0  0
 28 53  1  0  0  0  0
 29 54  1  0  0  0  0
M  END
> <OMEGA_C>
QILQQADCBkH7J8HB6NHzQHVNAUHir7rBtYG3QEMr7UDz6MXBn5rPQKJ1kkDInpbBzzj+QApW10CL
+LjBosvBQJfpwUCmLcTBWGvBQEQgdD8/GafBf3zbQLc8qr7LULbByGqwQDYkSb5DkaLBPifLQMPx
wL+To7HBEuQKQSzxa0BWDr3BQ3oIQf8JEkD6qbnBm+3PQFOojUAtxqHBjNCoQKYvjUCrIZHB6Afl
QBD6tkDZp73BnXnWQPZ4Zz+sCbHB3zu2QJceuL/roafBxBrvQBEJikBFjrvB+C/oQBcdCEC1ubXB
a1mpQHbQgkB0K6fBCFmDQLm6g0Dn9pbBgXGqQKYgKcBmtqHBGLdRQOdgT8BBEo/BmQ+pQEq1a0BA
5bLB7QSZQM9HYsDMd4/BcR6EQIfEfUBEt6HB0MfUQBAUV0C3DbfB1LQ5QKSpfUCil5HBJbCtQMuO
JcB0npbBkHeeQGLhacCEYKbB25rIQH5fF0GWeMLB0XIDQYi8DUHpC7fBS3+cQFSU9UCO38rB0KXs
QFYRmkBVV5LBRrgMQQb0zkCGE7TBjcCuQFsPqUAc1sfBlHS+QITA8j9186LBRc7rQBukwb5B7L3B
tLyeQA+4DL6cKJvBg5jOQJgvHcCJrbXBAEgZQYWEhEC+KcDBf5AUQcShwT+mLrrB3jPtQL4mkkAI
OqbBD6WnQPVUkEBIiIjBgDEyQIYpfcDNq4nB+m1HQPzhDcCLHIzBhXY2QC6FVcAZJpfBXZ6UQEzg
MkD90bPBmcqbQBhmkEDCoLfB7a6mQEkdXMAOZYfBMzOeQD7gkcCcbpLBl2cLQCPlb0Aa15bBseA+
QNQGTkD2SYzBQDK/QEBQ7b8RYpPBeDvPQEcFB0GtM8HB8Ka2QFx27UBU/sXB6JPyQDa7AUHltbrB
wmjPQM78k0BQn5bBLFzBQLdMwkBLRMTB4Hz9QAxL2EBIB7nBXD7eQIMPpb42ILbBEBzEQNI8eD97
8KbBomTOQPPOv791WbHBcumzQC7dPL6/RKLBhvwKQdMYbkDmXb3BZ+AIQSQZFEBR9bnB8AbQQPjU
jkAwxaHBzqmoQMDxjUDxJ5HBSrHkQDqxt0Dcvb3BnpTYQAKXaz8c9rDBUGK5QBQ3tr9ZXafBlEnv
QIzUikDtqrvBamPpQPSDCUAqy7XBysWpQDn3gkCWK6fBIoWDQCpwg0DQAZfB2EKsQKGUJ8CokqHB
o4djQO3VR8DrXY3BbMKpQHvMa0DG4bLB2kegQDXqY8BQMo/BepKEQP61fECkvqHBoIvVQIEwWEC0
DbfBBR86QK1Se0D8rJHBui21QNHSKcA8rJbBdtuWQM77XsCbAKbBXvrGQNOYF0E0gcLBIKSbQNae
9UCF+8rBT6UCQX5ADkHYBrfBJDHsQCFxnEAQVZLBy5CuQG5FqUAm7sfBzmUMQekr0EA4I7TBla3u
QDM4vr5bt73Bo/bAQDoi9T9m1qLB9EjSQJTiHMCJTLXBZCKjQBavA75quprBxjEZQWHPhUDyncDB
lAYVQaR1xj8hnrrBuULtQBXTk0DWNKbBbEqnQJFMkUBNkIjBcnxEQMf/c8Dgt4fBsppiQMqiBsCv
DIrBWtdAQOC7SMAMBpXB5q6VQK9uMkDOyrPBaiecQFY7kED9oLfBQI2xQGcNY8CGh4fBlKugQD6T
ksDigJLBcGgMQCscbEAe8ZbBJVFAQFkVTECOVYzBLCbLQP9SAcAGz5PBywDQQFL4BkG/DsHBNGi3
QOeZ7UBB8sXBkgzzQJqCAUFigLrBk4fPQGGJk0AHwpbBNtnBQCNXwkCtRMTBKKr9QD7B10Ci27jB
jbHCQD4Sej+T8abBbjrcQD9Opr7GIbbBvLexQKLhK775T6LB69nLQNA/v7+XXLHBcfEKQUn9bEDa
Lb3B+agIQcscE0AFvrnBUs/PQLqtjkAE6aHBQOKoQFWwjUALPpHBSujkQM5kt0Dxr73BJUbXQJ4Z
az8t8bDBCeS2QCvPtL91XafBdinvQBBuikC7pLvBEKfoQJjrCEAcwLXBSl6pQGQjg0CmRqfBX4KD
QCyfg0CXDJfBYfOpQMjcJsCce6HBDk9XQJ0jTMDdwY3BQjepQLrya0Dm/LLB5SKbQDZJYsA7LI/B
7j+EQBdmfUBxzKHBuwTVQMOpV0DIHbfBylE6QBE+fECxppHBr+quQMIKJcCabJbBH+OaQDMAZcC/
JKbBKf3HQFmVF0EDVsLBO5acQNUE9kD6+MrBVOECQdjvDUEAvbbB637sQM6em0AigJLB0Q6vQOV/
qUAPA8jBMVwMQXhfz0BI6LPBnxLAQJUc9j9l06LBaIbsQGmHwr7+vL3BvYygQFp/0L0d1ZrBBkzP
QFypHMDVUrXBHkUZQWQdhUBoVsDB/csUQSUvxD/YRLrB1/PsQLenk0B7YqbBocCnQNDbkEC3pIjB
kXI5QCduesAdR4jBbV9RQFJLC8CQaYrBcf02QM7JTsBzkZXB1O+UQOLbMkC047PBIdSbQM5ckEAO
wbfBnkqrQLKjX8CAXIfBoBmeQBeRkcBjhJLBMycMQCicbUCQ4ZbBomVAQNPJTEBYVozB/CjBQKzV
7b/QRJPBUbTJQOUXBkEAkcHBeOq2QFJX6kB6WcfB+crpQO3WAUFm7bnBlkbPQEvplUD2uZbBuzrE
QD39v0BMfsXBNVf3QLVY2UD5G7jBSMrPQDZUiz9BvqXB1xTcQAm7hL6nsLXBlIa7QKiLtjy+yKDB
AwPIQJdDrb+4orDBDU0MQTDMcUCnlr3BzxwLQQbfF0Dw+LnBLHXQQEdikEBR3KHBm8SoQIoPjkDy
TZHBSYrkQJSNt0AZ5r3BsVjeQBCnej+PUrDButO2QJU8mb+lOabBT2nxQIl2i0DRvbvB8UruQO5W
C0BwqbXBxlWrQHxmgUDoQqfB5maEQN5XgUD8LpfBrjqhQDRVEsDhoKDBVGrAQKTpkMD5y5DBGoqs
QFrYaEAh/rLBBrKbQO/CYcDSVY/BDzGGQGt2dkBn5KHBlvbYQLI4WED0BbfBZO47QGtQdUBB55HB
m2+lQGTBFcBBkpXBvCOLQJj9RcCUhqXBg4C/QDVbFkEl/cLBAFaeQObo8EBpMs3Btfv3QGbUDkEF
eLXBXnfrQLEDoEDeaZLByLy1QNn3pUAu4MnBggcIQTLM0kAGTLLB6WnUQDzJAEBEa6HBL5XpQMHP
vL5UmL3BT12vQFvDBD4TvpjBX8PFQKWKE8BXrrTBmhgaQSNmiECUD8HBEKkXQbw80T/NmrrBJErt
QIlxl0AYSabBEPymQIi2kUB0uYjBtbW5QF4BrsCZIozBJmbDQLo+mcBnUJnBYXzeQLx1gsDL/Y3B
H4GZQCorLkDo/bPBH1eeQEJSjkCox7fBIhl7QFJCfsCqJ5LBy6KYQFewUMAP1YbBZkAPQIlOY0Cd
K5fBlHhDQGRzR0BdZ4zBfKSvQELywr8YupHBrUDPQFsqB0Eb5sHBccHyQPVKAkG2YLvBXOa2QDgp
7UBbgMbBXRbPQIcZlkBYv5bBLev9QISl2UBsbbnByQTCQIVCwkDlj8TBKDTdQEErkL620LXBLXvD
QMtRgz9+rKbBpOvMQIioub8eArHBm+GyQAR6+L1l96HBQWULQdvOb0Bs+rzBERAJQXQFFkA0frnB
ZK7PQOpBkUAq56HBN6ioQDacjkAFQZHB4VXlQLRzuEDB873Bq/3XQIYrdz+5sLDB7/S3QK+3rr+S
BafB1/PvQPnIi0CUmLvBOV/pQNbrC0BejLXBL6ypQBeJhEAOSqfBscmDQNkGg0BdFpfBokeqQCVz
I8AzN6HBCKVdQKHJPcBhHY3BxOKpQA8Cb0Cj/bLBrsicQKHdXcAi0o7BrriEQKhefUB616HBQMfV
QLycWkAyBbfBerg7QMXLdUDatpHBIhSzQL/uJcAjT5bBlDeUQMvqWcDRn6XBnbXGQC6mF0FZXsPB
prMCQWYLD0Ez4LfBk8CbQBKr9EAGgsvBU6TrQDpon0D0eJLB2Z4MQQ8q0kBzerTBM4mvQHXIqEBb
IcjBqqHtQBEPrr4EZ73BnZ3AQKi2/D9amqLBu3PQQMP6GcAe8LTBTRqiQKOCZr1ObprBCsoZQYiD
hkATEMDBljQVQVP4yT+P9bnBtLXsQLQhl0ARW6bB01CnQNStkUCXp4jBr2c8QE9EaMCmdYfBnD1f
QHXQ+L+I24nBjHM7QNuxPcCbzpTBJJKVQN0INkBG9LPBabucQDP4kUBbxbfBxNGtQIP7XcC9HofB
veybQJKij8DQEZLBt4kOQEbhZECF+JbBNbhEQJ9ERkDceYzBkebJQFyf/r+2dJPB+AzPQPnkBkEQ
mMHBfAjGQHYj7kBLUcnBws/jQFRQAUEH+LfBL6WBQPTwhUAES5bBWOnRQLBTw0DzbsfBfqXvQBfR
10AREbbBfpnQQN2gJr4H8bbBLAPNQEi8gD9u2aXBS/i8QDdWpL+IOLLBXoC4QBA5ur2TMqHB9ywL
Qa81bECpYr7Bt9IIQWnQEkC6tLrBT7CCQA93gEDrcaHBWHWoQNZgi0B6yJDBK+fmQPxLuEBn1b3B
HgXYQGUffj/bxrDBs0qwQKlMn78gWafB8X3xQJici0DNr7vB7HnqQPPeC0DLv7XB53KqQN4xgUBz
06bBBifPQF8/jECsmpbB5LyaQKlBGcB+V6LBaRKKQHhpdMCsP4vBMpCrQHATcECIxbLBk71VQBxT
T8CiipPBR4DPQOZOiECAZaHBaMPXQJKlW0AAu7bBqcL1QLQlkEDxLZHB+BZ/QNTVCsBOrpnBBcmg
QNHAYcBzzKXBcQrGQOJRF0FxDcPB+wi2QPG69kAyq9DBdaDqQBp0DUGbD7LBOCZHQLn4hUDaCJLB
effKQOACq0CSUs3BEV7/QCcpz0DTrq7BLe7ZQE8uQb4RQr/BBH7UQAZ47z/qBqHBBpG3QHlCC8Bz
5rbB3/GuQGClYb0/5pjB5OAYQdR1g0BrdMLBpGIUQeEwwD8rubvBUr5KQE97d0Bz3aXBhq6oQMPa
jkDnL4jBRTV0QKTPk8DLt4bB2UWmQKJUh8A0Xo/BYDCUQGZ+QcAduYXBEpCWQAUyOUAac7TBDLOf
QIJflECIEbfBAotBQLU6gcC8CZnBEWAdQI1KNcCmZI/B1PUGQc1rj0ANbJbB90n2QNfmq0AiM43B
0JxzQFCJnL/Zh5fBeMHPQEoIB0Fq1MHB+LDzQI7rAUHCgbvBqfm1QPc87UACGMbBoWmDQDlHgkC0
tpXB4uv9QLLE2EBdcrnBRQTAQA0xwkDN/cPBZ7fdQJw0mb6h/bXBD8LJQNVvej/EJabBrg/OQBgm
vL9FIrHB5Q26QGAMM75zU6HBID8KQfrFbkAHxb3BhHkIQVCyFEB/bbrB4cSCQNs8d0C60qDBhyqq
QN8VjkAq3JDB5tHjQOv2t0APmr3BKm/aQK4Jbz+nlrDBg8e7QCLIs7+EzqbBmmjuQCpFi0D4abvB
SbHpQJ03CkC/qrXBZL+oQDI6gUADzabBlurOQDeYk0AsR5fBNv+oQP5rJcBFuqHBEwONQKL5TMC2
/ITBs/SoQKSaaUAkiLLBDHSDQIXYUMC0+5DBdJXNQE/1jUAi/6HBhUfVQFaDWEBdrbbB65f1QGnr
nUD0hpLB1BemQCAdJsD3qJbBD+mVQBBIWsAbLqfBNfjHQLyRF0GkaMPBrq8DQUiJDkFgPrjBWI2a
QIEg9UDR98rB92ZNQOvLfEDfAJHBL9gMQVfg0EA9srTBT1isQKL4qECQQ8fBfzHsQP6UsL7i073B
AyTJQDsN9T+316HBYgHQQAeVGsA0SLXBioqsQHC7Ar7+YZnBXg0YQaArhkASbMHBKXUUQcJYxz/7
hbvBn/NKQMWQZEDoxKTB39arQLvlkkB9UIjB8F1mQCX2bMDDioDBTo2rQP9xbcAmWoPBCC+PQEW5
CcAucYLBxJOVQHVlL0Dki7PBD8aaQOkKj0BWNLfBC1qBQKr+icBuk5PBi/dJQJpEMMB3qpLBmSwG
QZnKn0DoIZjBJ/byQKUdukBHzY7BuKq8QM4YCMClaJLBChTTQL+kB0Gss8HBJ3D3QMgWAkHkoLvB
Nxy4QL4c70DIzsXBmqiBQAwbhEDn7JXBOm8AQVbg2EDyornBeYDBQBzXw0C+08PB2SfDQBxugT9B
BafBluvYQLQej747nrbBgf+xQED2/L2AWaLBZ6PIQAwUub/axbHBvGgKQVymbUCrob3BYswHQdSC
E0C1a7rBZKKBQPgegED2HKHBUMeoQMj9ikCQsJDB0KXlQB64uEBDpL3BYQbWQCOIdD8TNLHBsdu1
QGTjrr+Yf6fBZCfvQBDLi0Dia7vBDbDnQBUPC0DC7bXBppaoQIhtg0ClzKbBp5POQMaJjkAezpbB
N8SqQI7RI8BOW6HBzIBaQAUXScDeoY3BzOCoQBBUb0BPl7LBHTadQB+fW8DRz47Bu/HNQCyQi0C4
m6HBo+XUQMEcW0CwxbbB/2T1QLJrlEBLqpHBvdavQDkDH8DgTpbBso6eQH1hZcAHzKXBHeLLQAdG
GEHKNcPBzAgGQW52DkGmgLjB/kmcQKir90Ayd8rBf2JIQOfqgUChcZHBb3EOQSRT0EBJDbXBpRKt
QIIYq0A7CcfBWgPCQDDG+T9Kx6LBR4rnQJk7qb6xb77B56mhQA7+Wr2XwZrBeH3KQMQ9GcAM4bXB
LJYYQWfihEAkGsHBi3cTQSdRwj8aa7vB8A5IQAYgdUBAWaXB8vKpQC2MjUAOFIjBcBQ+QGLVdsD1
9ofBB4hRQPCLB8Bgn4rBChU7QICTT8Agd5XBmGOUQHPVNkDhvrPBtt2bQAi6kkDMLrfBPPSsQB8d
VcCq+4bBvrqhQFiSjsBq05HBfXEGQU6wlUCJFpfB9qj0QKzOr0AAiI3BplrBQLLu3b9YWZPBVcrL
QLZvBkHBCsLBKuTCQDh27EAkk8nBc5vhQAN2AUFie7jBmA6QQM3RVkBJJJXBzsbPQMUPwkCki8fB
haruQFiS2EBudrbBzhHgQAyDVD9meqXBoJ/CQDsU2z1TprbB5WrNQKvGkL7SeKDBGlWwQDMZgr/+
rbHB9MULQUWub0CABr7B4CEKQW69FkBOG7rBJ9GQQGFTSEABO6DBWsCpQD0njEDE5JDB2cnlQGE/
uECrAr7BR6jaQAmvgj+qi7DB1Zm1QN/gm78TjKbBVYXxQGAGjEA4tbvBB2PsQBpJDUDBm7XBRm2r
QAtle0AAy6bBfH/DQBa9pECd2ZfB/oWiQIhFGcAOQKHBQzsqQFVEWsDi+5HBIAGsQGGBbEDczrLB
XNmFQGKvW8BdS5DBBfDDQHtOnUAUiqLBcF/YQF0pW0A5z7bBYOPcQHU3xUBNrpPBR46aQDBFFsBX
SJbBzwmaQLmXWcDWeabBw9/BQMaxFkE5mcPBVTWyQGkq9EBp5NDB40noQEPjDUEjt7LBujN4QLxa
MEDv+o/By9LIQI0jqUDuRc3BlG3/QNze0EABKK/BfYHyQPXDxD/32aDBHEK+QMqAiT5ZH7/B0T3R
QOdJ2r5R9pfBrzyeQAYJ3b+BW7bBhmkZQcryhUAB/cHBhlkWQbEizD+zq7rBkIN6QLOgFkArt6PB
bs+pQM5zkkD7ZYjBn68MQGBgh8CNbY3BYFgQQG+5HMBdMY/Ba+wbQDpKYsCsiprBiIuXQIs6NUBA
sLTBN2+fQBrlkkAi2LbB1suMQLzfU8ARuYfB25WSQEO4jMBgEpPBLPzsQDRw00BgnJnBvlnKQIDA
2kBsAJDBXnOjQKS2w78tRJLBfOXMQIPxBkHEY8LBzzTxQAexAkGoCLzBfM60QGba60AbsMbBh2Gm
QDiPsEAnIZjBY179QGTS2kA37bnBf9jAQGxTwUANkMTBsInjQK3fPj9+vaXB6dHAQCfPGD7CmLbB
TIPPQDXfrb4frqDBGiGuQLE4eL9qp7HBi+ILQVkrc0DBOb3BeHwKQVj6GUAabrnBA/2nQIjyqEDv
N6PBnH2mQHZpjUCoGpHBMd3kQFrHuEDFFb7Bek/bQPvkgD+jnLDBcdu0QK+Zmr9hn6bBKIzwQOST
jED1jbvBI1nsQMvUDUBkgrXB7b+oQLGTfEDu+6bB08mnQENIR0CLXZXBVwagQFdPFsBLSKHBgcin
QNRIisA4oYzBlGSqQPriaUBO67LBQjOEQOm3VsDiIJDBoUioQCzmOUDhDqDBt0nXQM7AWkB05bbB
zOyoQLIsAUCMhY7BBi6WQH0dEMAab5bBoFGXQFsMV8CiZqbBBIjDQHFGF0Fv98PBUNgBQXvDD0EX
yLjBryeZQLhq8kCmmsvBxhWlQFHZ0EAKEZXBErEMQX9F1EC2I7XBcomuQK4zp0DX4sfBKjT5QANz
sD/6TaHBPuG6QCk/sz5/9L7B5nbUQIMCA7+vPZjBnZ2aQPH30r8lR7bBbcwZQeOpiEAZssDBWR0X
QUWv1T+Br7nB7qGoQM9ew0AAyajBvZelQEtXkkAvjojBKc6ZQEOGpMAp64fBo7e3QOZ8l8Cbv5PB
iU+/QGjzccD+t4fB0yGXQOhsMEAajbTBtMWcQDVjkEBvQLfBCWlZQKWaecACBZXB1ZhoQEGUPMBl
/YjBYAWqQMyDlj+10pLBM+XCQOXZBEDM3onBa62bQHPZsL8/vZLB

> <OMEGA_E>
gAT9PjCZ/T6U8Ps+nJcNPxDF/z6UeVg/zv1TP3i0UT/mlGc/3ItwPw==

> <OMEGA_NBR>
     25251

$$$$
50161581
  -OEChem-04172616093D

 54 58  0     0  0  0  0  0  0999 V2000
    7.5639    7.9754  -23.2967 C   0  0  0  0  0  0  0  0  0  0  0  0
    6.5080    8.3226  -24.1617 C   0  0  0  0  0  0  0  0  0  0  0  0
    5.2803   -3.1782  -17.1127 C   0  0  0  0  0  0  0  0  0  0  0  0
    6.4700    4.5487  -18.7774 C   0  0  0  0  0  0  0  0  0  0  0  0
    3.9129   -3.2034  -16.7915 C   0  0  0  0  0  0  0  0  0  0  0  0
    7.8768    6.6222  -23.0785 C   0  0  0  0  0  0  0  0  0  0  0  0
    6.0192    0.7884  -20.8437 C   0  0  0  0  0  0  0  0  0  0  0  0
    6.9661   -0.4014  -22.7478 C   0  0  0  0  0  0  0  0  0  0  0  0
    5.4370   -0.3979  -20.3833 C   0  0  0  0  0  0  0  0  0  0  0  0
    6.3917   -1.5943  -22.2848 C   0  0  0  0  0  0  0  0  0  0  0  0
    5.7655    7.3171  -24.8118 C   0  0  0  0  0  0  0  0  0  0  0  0
    8.5399    2.2087  -23.1428 C   0  0  0  0  0  0  0  0  0  0  0  0
    8.6632    3.6002  -23.6105 C   0  0  0  0  0  0  0  0  0  0  0  0
    6.4978    4.3376  -20.1629 C   0  0  0  0  0  0  0  0  0  0  0  0
    5.2474    4.4192  -18.1013 C   0  0  0  0  0  0  0  0  0  0  0  0
    5.6520   -3.0316  -18.4571 C   0  0  0  0  0  0  0  0  0  0  0  0
    2.9576   -3.0714  -17.8215 C   0  0  0  0  0  0  0  0  0  0  0  0
    6.7476    0.8027  -22.0526 C   0  0  0  0  0  0  0  0  0  0  0  0
    7.1258    5.6127  -23.7141 C   0  0  0  0  0  0  0  0  0  0  0  0
    5.6097   -1.6004  -21.1157 C   0  0  0  0  0  0  0  0  0  0  0  0
    6.0701    5.9599  -24.5937 C   0  0  0  0  0  0  0  0  0  0  0  0
    7.2794    2.0486  -22.6172 C   0  0  0  0  0  0  0  0  0  0  0  0
    7.4478    4.2133  -23.4273 C   0  0  0  0  0  0  0  0  0  0  0  0
    5.2974    3.9840  -20.8359 C   0  0  0  0  0  0  0  0  0  0  0  0
    4.0844    4.0991  -18.8329 C   0  0  0  0  0  0  0  0  0  0  0  0
    4.6442   -2.9146  -19.4426 C   0  0  0  0  0  0  0  0  0  0  0  0
    5.2877    3.5853  -22.2961 C   0  0  0  0  0  0  0  0  0  0  0  0
    3.3295   -2.9341  -19.1160 N   0  0  0  0  0  0  0  0  0  0  0  0
    4.1247    3.8973  -20.1680 N   0  0  0  0  0  0  0  0  0  0  0  0
    6.6506    3.2673  -22.8157 N   0  0  0  0  0  0  0  0  0  0  0  0
    2.8727    3.9695  -18.1731 N   0  0  0  0  0  0  0  0  0  0  0  0
    4.9947   -2.7867  -20.7639 O   0  0  0  0  0  0  0  0  0  0  0  0
    5.1555    4.7315  -25.4534 Cl  0  0  0  0  0  0  0  0  0  0  0  0
    8.1329    8.7482  -22.8013 H   0  0  0  0  0  0  0  0  0  0  0  0
    6.2669    9.3623  -24.3271 H   0  0  0  0  0  0  0  0  0  0  0  0
    6.0297   -3.2698  -16.3405 H   0  0  0  0  0  0  0  0  0  0  0  0
    7.3716    4.8057  -18.2411 H   0  0  0  0  0  0  0  0  0  0  0  0
    3.5960   -3.3226  -15.7659 H   0  0  0  0  0  0  0  0  0  0  0  0
    8.6931    6.3559  -22.4234 H   0  0  0  0  0  0  0  0  0  0  0  0
    5.9106    1.6977  -20.2711 H   0  0  0  0  0  0  0  0  0  0  0  0
    7.5766   -0.4069  -23.6386 H   0  0  0  0  0  0  0  0  0  0  0  0
    4.8573   -0.3980  -19.4720 H   0  0  0  0  0  0  0  0  0  0  0  0
    6.5508   -2.5134  -22.8292 H   0  0  0  0  0  0  0  0  0  0  0  0
    4.9607    7.5881  -25.4790 H   0  0  0  0  0  0  0  0  0  0  0  0
    9.3047    1.4484  -23.2022 H   0  0  0  0  0  0  0  0  0  0  0  0
    9.5505    4.0567  -24.0237 H   0  0  0  0  0  0  0  0  0  0  0  0
    7.4214    4.4425  -20.7128 H   0  0  0  0  0  0  0  0  0  0  0  0
    5.1972    4.5631  -17.0321 H   0  0  0  0  0  0  0  0  0  0  0  0
    6.6949   -3.0083  -18.7365 H   0  0  0  0  0  0  0  0  0  0  0  0
    1.9069   -3.0802  -17.5718 H   0  0  0  0  0  0  0  0  0  0  0  0
    4.6500    2.6968  -22.4140 H   0  0  0  0  0  0  0  0  0  0  0  0
    4.8716    4.4160  -22.8849 H   0  0  0  0  0  0  0  0  0  0  0  0
    2.1587    3.7288  -18.8306 H   0  0  0  0  0  0  0  0  0  0  0  0
    2.9450    3.2506  -17.4817 H   0  0  0  0  0  0  0  0  0  0  0  0
  1  2  1  0  0  0  0
  1  6  2  0  0  0  0
  2 11  2  0  0  0  0
  3  5  1  0  0  0  0
  3 16  2  0  0  0  0
  4 14  2  0  0  0  0
  4 15  1  0  0  0  0
  5 17  2  0  0  0  0
  6 19  1  0  0  0  0
  7  9  2  0  0  0  0
  7 18  1  0  0  0  0
  8 10  1  0  0  0  0
  8 18  2  0  0  0  0
  9 20  1  0  0  0  0
 10 20  2  0  0  0  0
 11 21  1  0  0  0  0
 12 13  1  0  0  0  0
 12 22  2  0  0  0  0
 13 23  2  0  0  0  0
 14 24  1  0  0  0  0
 15 25  2  0  0  0  0
 16 26  1  0  0  0  0
 17 28  1  0  0  0  0
 18 22  1  0  0  0  0
 19 21  2  0  0  0  0
 19 23  1  0  0  0  0
 20 32  1  0  0  0  0
 21 33  1  0  0  0  0
 22 30  1  0  0  0  0
 23 30  1  0  0  0  0
 24 27  1  0  0  0  0
 24 29  2  0  0  0  0
 25 29  1  0  0  0  0
 25 31  1  0  0  0  0
 26 28  2  0  0  0  0
 26 32  1  0  0  0  0
 27 30  1  0  0  0  0
  1 34  1  0  0  0  0
  2 35  1  0  0  0  0
  3 36  1  0  0  0  0
  4 37  1  0  0  0  0
  5 38  1  0  0  0  0
  6 39  1  0  0  0  0
  7 40  1  0  0  0  0
  8 41  1  0  0  0  0
  9 42  1  0  0  0  0
 10 43  1  0  0  0  0
 11 44  1  0  0  0  0
 12 45  1  0  0  0  0
 13 46  1  0  0  0  0
 14 47  1  0  0  0  0
 15 48  1  0  0  0  0
 16 49  1  0  0  0  0
 17 50  1  0  0  0  0
 27 51  1  0  0  0  0
 27 52  1  0  0  0  0
 31 53  1  0  0  0  0
 31 54  1  0  0  0  0
M  END
> <OMEGA_C>
dwvyQHY2/0CgX7rBdkHQQJIpBUE2S8HB5feoQJxnS8Dn5ojBoArPQI6OkUAUOJbBb216QBgETcDr
VIbBxw78QPzo00CroLjBWp3AQJ/VST/Yv6bBMureQFiIzb5u+7XBFfytQKS9y77tEKPB/4jMQOAR
zL9UR7LBG3+4QNQl6kB/fsbBbqMIQQ5bDUByJLnBapwKQS5qZkBk4rzBye3PQEbNikChTaHBCeun
QAxqjUCNz5DB1dy0QNgFQsA5qJPBW0k9QEiSRMB9ko7BjOzXQA18TT+za7DBPAbkQDCbs0Bitr3B
+oKzQMLZzL/f7KjB5D3CQKi3vkDsv8TBzvDoQHobA0Ad8LTBKlTuQErThkAFa7vBiYSpQJT6fkDv
r6bBL7OCQO4rg0DKqZbBZZ2UQEWJOsBkipvBujSpQM91ZUBlXrLBzxZVQPDIO8CA7ZjBwv2DQKBs
eUAmWKHB29HUQJ0bUUCUhrbBwto3QAEMfkCUYpHB3tSfQKdYMsCLHKbBtvmkQMJol0CDoMvBVyAC
Qaf4C0ERabbBZorIQA/MFUH1ncLBSPPAQNdEUcBduYLB4OPrQKTImUDV7ZHBVSRmQA6lVMA8QXzB
GhcLQeBjy0AZY7PBuiO9QIJN2T8yK6LByHPyQHNR0L7hG73BEm+bQPTEy768xpvB95/RQNrbIMAn
orbBCb6eQInR8kAQ1cvB8d8UQf5luT8enrnB9s4YQV7QgUB6MMDB/HvtQMwojkC7s6XBn0+mQKYE
kkDXQYjBBD3WQJGIQMBN5JXBMhX0PzYhRcAjk4zBtMyUQIyYLEDbT7PB+uObQENQjUBaFLfBRigK
QAWlbkARpZbBhHs8QKEKUECS2ovB74nyQHiE/0CecrrBOn3QQEh0BUFzQsHB85ClQM0JTMC6zYjB
Zz3PQNdPkUArQ5bB/qtyQM4OTcBoyYbBcl38QBYj1EBxwrjBPvvdQEo9x75bT7bBx+a/QEJ4ST+F
+6bBhWbMQHKAy7/mi7LBGQuuQPI30b5CPKPB61O4QLXu6kAvbMbBPTkIQRSCDUCYZ7nBZ0wKQbOM
ZkByIb3BdQLQQEyWikA6WaHBqBuoQIF7jUAs15DBGKSzQPDFQsDuZZPBpvo4QMEnRMBQZo/B4f/W
QAFkTz9SsLDBxuHjQAgLtECSyr3BXyK0QAwwzr8yE6nB9uXBQPFtv0CqvMTBGyfoQKemA0B0J7XB
se3tQBguh0Bhi7vBbnKpQL1zf0DHuKbBbcaCQHGKg0D6rZbBlQaVQNQEO8CSq5vBRdyoQFelZkAH
bLLBv/lUQK6aO8DxlpnB+vCDQJdfekAeXaHBxU/UQBv+UUBJprbBOgk4QCkPf0C3YpHBlFKiQJZ1
NMCdGabB1C+kQE9bmEDLlMvBOIsCQfQLDEEWhrbB+uHIQFMeFkE1h8LBXUG8QOZBUsA3VYLBSy7s
QIdHmUAL+5HBeg9bQGuVVMA7cX3B61cLQfNly0DCmrPBY+vwQGPnxL6Gib3BCP27QMgg2T+8bKLB
EIfRQJtSIMCK87bBXaybQMkE1b7S6pvB0GaeQPfQ80Cxr8vBEWIUQckjuT9w67nBDnsYQVyvgUBR
gcDBt5TtQLegjUBOwaXB1ZWmQAkZkkBQSYjB6WzVQEeUQcBPNpXBjQfqP1cqRMCL043BrEGUQIkZ
LkArZbPBUKGbQI8hjkBUEbfBQC8KQA7/b0DDo5bBQIQ8QBLqUEDg3ovB5hX1QM4F/0D5P7rBDYnT
QBpkBUEiLcHB8Ms6QEPpSMAacI7BH5/OQOF6kECVIpbBGEJ6QCXCTcBPf4bBOTT+QOeK00D/fbjB
TXa+QFyySD/R96bBpTPdQMoLxr4qQLbBNaesQPor1L4lR6PBo8LLQFaHy78aiLLBoy27QI4T60BS
Y8bBREMIQVU7DEAv+bjB4rQKQQkXZUA9rrzB4ZbPQK9sikCVPaHBuFmnQPKbjEDNyJDBSDBUQIBF
QMBCJJnB2Z6oQC/ySMDeeInBrwvWQFP9Tj9KmbDBhoPlQBa/s0BYk73BLWCzQGzMzr/mFqnBbBTE
QE16v0DrpMTBTdfnQCU7A0CP77TBXdbuQGPUhkBNR7vBOSGpQHnaf0AHtKbBGhOCQP9Ng0DqtZbB
uhKWQNxEPMBtl5vBfPGoQDGRZ0BGbLLBKG+0QCI6QMAo1ZPBgHWDQJzEekCGaaHBsoTUQHDqUUD+
gLbBPUY2QK9Bf0Dqe5HB3hWiQPoLNcB4GabBqFimQJGxmECVlsvBEOUDQYiyC0HsSrbBenXMQPkY
FkEWf8LBPp7vP1PIS8C8VozByIXrQJD5l0ChyJHBUqBoQHsZVcArY3zB1xAMQap/ykD4PrPB8iW6
QAK72D+NbqLBCS7wQNziwL6PeL3BXdmZQEiy2b5/B5zBuBTRQFk5IMAG8rbB6J6hQLw/9ECXu8vB
qFEUQXyetT81W7nBABYZQTCpgEDz67/BtT/tQM+zjUBlmaXB2aulQN61kEA5N4jBEO8kQC66PMB3
bp/BrPrAQLpJTMB5W4PBwgKUQMyhL0DrgLPBRlWcQNPdjkCrE7fBa3cIQA1JcUB7ypbBb9U5QDmZ
UEC8BozBmBv1QGi5/0B9nLrBH2TTQKelBUEsgsHBvrw4QJg4RMCryo7BOHrOQONkkEAGGpbBW+h2
QB1KTcAGwIbBnwn+QPBI1EDPtrjBmMHcQL6pwr58ZbbB4e28QKDOSD8yO6fB+pvLQNZZy7/BsLLB
x5yrQL511761haPBo7q6QCpx60BikcbBCtQHQSbmDECIFbnBS2gKQVcCZkCarrzBJGLPQGNUikBF
NaHBei2nQIzejEChv5DBy8tTQDI2PMCZcJnBSS6nQHz8TMBwkYnBSf7UQDi6UD+dyrDBvgnlQDlV
tEAYpb3B8hizQMatz78aRanBEoPDQJjkv0A8tcTBpOzmQBnzA0CgELXBtE3uQDVph0BtR7vBZM2o
QFFTgEDNrKbBrNOBQBXag0BXrJbBOBOWQILNPMDSupvBC2ioQAb9aEANarLBEtGzQL+iRMDj35PB
QyKDQD8VfEDIYKHBHtrTQPgIU0Aoi7bBL8o1QMpAgECHcZHBQ/yiQJFMNsCsLabBP6qlQPHsmEBK
jsvBigsEQbQaDEFEyLbBom3MQMhVFkH168LBvezqP35vQ8Cmz4zBbXLrQGiil0B3wJHBNfFjQNRs
VMC7+nzByAYMQV5ly0CAerPBEvzvQAWFu74lk73BIdy3QBXw2D90wqLBwUPRQCUFIMAbGrfB1JuY
QMpP376LTpzBjgahQPx09EC74svBMdITQSuFtj/fhbnBdtkYQW8cgUDx2r/BxxbtQOA6jUBWkKXB
wYilQB8EkUBKLojB+4klQPqrNcC+zp/BZQ6/QASNU8AeYIPB1EqTQJtdMUCQhrPBGuibQILGj0CZ
A7fB/ecHQBHQckBgwJbBBDc5QOe2UUCWAIzBez22QB626ED3QsbBwPnNQOvtBEGDdsHBkHKkQJ/D
SsDltYjBY3DPQOLekEAWSJbBrDlwQI9OTMDj2YbBBoLBQGbNvUDRYcTBavreQLw5yr6uE7bBwty/
QA9oST/l56bBLl7NQK4vzL+1VLLBsfitQBR70b6FLKPBjfLwQHoNAEHfx7rBqHoIQcLXDEBmTLnB
L5QKQc+nZUCzF73BURnQQNZmikDFX6HBnV+oQBrvjEAq2ZDBFRazQGf4QcD9QpPB1XI3QPdCRMBq
ko/BF37XQBGDTj8/ibDBBWDkQATps0DTor3BAoy0QISEzr+V9KjBgkL8QMoy1UAD17jBh67oQEhL
A0DNB7XBALruQEEQh0BFX7vBa4KpQBuZf0CVx6bBd/2CQPIxg0DNr5bBdOeUQF8QO8DApJvBDiup
QJ/bZUArfbLBi4dUQC8NPMBwt5nBdQmEQH5BekD9ZKHB6NzUQBGOUUD3lrbB5JY4QGd7fkCGXJHB
mLuiQK2qNMCtBabB+EkTQUT9yUAxFLDBtGybQOI78ECYYMvBp1rFQGFpFUFn6MLBZcm6QPQ7UMBY
J4LB+GvsQBS6mEAxAZLBfMBXQBiVU8D0pH3BSXavQMBdpEDZGsjBQFfyQKzlyL7GO73BmpK7QJpj
2T8WZqLBwubSQFfNIMASrbbBVjibQMyg1L6a6pvB6JABQePPDEHpIrfB8Z4UQaygtz9CyLnBwbIY
QXn4gEDZmcDB4qztQDByjUBDx6XBv+ymQMtPkUAaSYjBvPbUQKh+QMDR9ZTBRKHmP2CqRMBMHo7B
zsmUQKrzLECzbbPBUN+bQJN3jUAVOLfBdn8KQFfvb0D7mpbBDgE9QHgFUEAd44vBfLy1QPKe50Dt
dsbBPtHNQKuxBEHEEMLBKFymQMyATsAT3ojBCGvPQHEdkUBdFZbBXYN0QHoYTsCCrobBVCPBQDgC
vUAuQ8TB8BrBQGAXSD972KbBOMXeQDLQy742NLbBBN6uQHqc0b6NHaPBwsDMQBgazL/adrLBThHx
QCtFAEHcZLvB39AIQUhaDUCfQ7nBOuIKQc27ZkB14bzBgnDQQBFgikAQK6HBKCyoQAdHjUBbuJDB
JuGzQIOzRMDsf5PBF/Y5QNV0Q8AULI/B1hrYQAZKTT+CkbDB0ljkQBMAtEA1jL3BBGS0QEYfzr83
AKnBElv8QP/q1UDTE7nBlFzpQAEsA0BWBLXBMjrvQEVgh0DhIrvB9P6pQFs/f0Arn6bBOfuCQKNi
g0DwnpbBTNyUQGb4OsDHpJvBFsupQL4vZUAFULLBsOJUQF5gOsAKZ5nBrmCEQA8yekBpT6HBtIHV
QGSTUUAMb7bBjTI4QG/WfkCJYpHBVqOhQCfIM8DcHKbBjV0TQWPqy0AaP7DBfY6aQKdx7kBphcvB
G0HFQIURFUHazsPBYmC9QOMzVsCffoLB4UHsQFYZmUDMwpHB1r9dQLfZVcC3KX3BI+yuQKAWo0AK
t8fBbI+9QGxW2D9RQqLB/MjxQFCzy74ua73BN6OcQIDp0753xpvBqZ3RQBCoIMB94bbBX74BQbdE
DUHmC7jBKfkUQb/ouD/F2LnB2gQZQZvRgUAJS8DB5yTuQJBSjUC7haXBq3KmQJrYkUC1KojBsI7V
QA2XRMBzcJXB8WXsP5yJQsDQeI3BWK2VQP3fK0DFOLPBezmcQA/xjECAD7fBy44KQL3wb0DRrJbB
R1Q8QPSbUEBo4IvBg0i4QKJP6UDYCsbBcTvRQIwLBUEMesHB+LI6QL0IRcBcXY7B9dTOQGbkj0Ax
FJbBt2B6QKUwTsDHgobBXXXCQE49vkC1BMTB8q6/QLAJRz8H26bB0J/dQFYIyr7pOrbB4W6tQHwW
1b7SMaPBY7/LQDDuy79pirLBswj0QLDQ/0C1ybrBrokIQRHlC0CYHLnBfMgKQbLDZEDE2rzBe/LP
QECAiUAeLKHBrGynQHaSjEAWxpDBrsZTQEE9PMAhFJnBdqWoQLJETcCYk4nBBQPXQA7HTD90h7DB
bFzlQGLUs0AXVb3B6nyzQBrJzr+yE6nB1Rb+QE7A1ECQprjBzqvoQG+tAkDQ6rTBSkPvQAzbhkBm
HbvBoHGpQOUff0CssqbB6i6CQPSBg0CrvJbB6NaVQDUvPMBpnpvBlF+pQK2KZUBuZ7LBLlG0QJov
RMBE8ZPBvqyDQPP9ekAkcKHBQR3VQCctUUCwcLbBV1c2QBwGgEBsipHBNLuhQNq9NMCVIabBf+wT
QbbvyECkxK/BAWGdQOg98UAIF8vBYazJQMKWFUEfG8PBt5jvP63GRMB0MYzBorjrQAc5l0CKtJHB
UvdoQKzcVcDIaHzBBYyvQIkSpUBklcfBY+i7QJCl1z+mQ6LBTYTwQIeAxr70dr3BA86aQHZj2b7g
6pvB96LQQOtfIMDu/rbBjoYDQfOGDEFVSrfB858UQUJHtT8KlLnBovMYQQFmgEBcWMDBN8jtQAYa
jEAEfKXBp5ulQKvokEDQNojBvlYkQAKXNcCzTp/BmBjBQHTyU8ALh4PB1fmUQKW0LECWYrPB/Dqc
QDNbjUDvJLfBh50IQGosckDV3JbBEJQ5QNh1UUAIEozBTP64QK++6EDUccbBPy/RQKLnBEFxwMHB
go8/QFtqS8DS7Y3BNJDOQNynkECgCJbB6SGBQL1YT8DeZ4bB+kjDQC3IvUAPTsTBFVXfQPatzb5J
77XB5jS/QKCZSD+76KbBiLjMQORhzL95X7LBTlGsQNhpz759X6PBhHLzQE3t/0Ct2rrB89AIQSFS
DEDG+7jBUwQLQTceZUBfwrzBE9jPQKYfikAGH6HBdiOnQLYRjUCVv5DBY2BUQN8DQsCKx5jBjuir
QDkyScCA7onBU7HXQG7nTD8XZrDBZqHlQEXIs0BeZ73BFdOyQEygzb/+LanB07b9QPP51ECtorjB
QzjpQHnsAkCOy7TBIKjvQOHuhkDOEbvBG32pQC66f0A3q6bBUAuCQGGMg0ADuZbBz5OVQEZaPMDJ
yJvBjLipQNH7ZUDRYLLBBYG1QMLKP8C0a5TB2q6DQBfvekCLbKHBOZHVQLRpUUB/WrbBShg2QDhJ
f0DIiJHBM3CfQM77MsDvaabBz4ITQcSayUCmlq/BrJOeQD9f8EDXrcvBNXXJQHVnFUF7ccPB9yn7
P9KMT8ABaIvBsFjrQHpLmEA4ppHBICx0QIMBV8DOAHzBFeWwQJ9mpEDn8cfBl5HzQLCEzr5L8LzB
Bgq7QOCh2D8AXKLBt03SQPzoIMBKtrbBdtOYQE/m0L4BPZzBPfECQT2wDEFpQrfBlvAUQaFjtj/e
bLnB7i8ZQcydgEDYPMDBvLbtQJzcjECwaaXB2zKlQIqMkUDrMYjBJI4iQIAmP8DvwZ7B9IPFQH0N
TMDrI4TBNU6VQH0yLUBuYbPBMbycQMqRjUDsJbfBppUIQOjGcEDP25bB5NY5QGDVUEAZDYzB

> <OMEGA_E>
jMuBPiAPgj4kiYM+UBeEPlQcjj6sS44+cJ+PPsAOlD4=

> <OMEGA_NBR>
     32735

$$$$
50161585
  -OEChem-04172616093D

 53 57  0     0  0  0  0  0  0999 V2000
    7.7084    7.9770  -23.2564 C   0  0  0  0  0  0  0  0  0  0  0  0
    6.6646    8.3535  -24.1245 C   0  0  0  0  0  0  0  0  0  0  0  0
    6.4478    4.4949  -18.7451 C   0  0  0  0  0  0  0  0  0  0  0  0
    2.9052   -3.0448  -17.7835 C   0  0  0  0  0  0  0  0  0  0  0  0
    7.9815    6.6154  -23.0347 C   0  0  0  0  0  0  0  0  0  0  0  0
    5.9121    0.7811  -20.8912 C   0  0  0  0  0  0  0  0  0  0  0  0
    6.8239   -0.3901  -22.8237 C   0  0  0  0  0  0  0  0  0  0  0  0
    5.3650   -0.4178  -20.4147 C   0  0  0  0  0  0  0  0  0  0  0  0
    6.2825   -1.5924  -22.3476 C   0  0  0  0  0  0  0  0  0  0  0  0
    5.8995    7.3690  -24.7804 C   0  0  0  0  0  0  0  0  0  0  0  0
    8.4874    2.1660  -23.1429 C   0  0  0  0  0  0  0  0  0  0  0  0
    8.6725    3.5609  -23.5799 C   0  0  0  0  0  0  0  0  0  0  0  0
    6.4886    4.3171  -20.1351 C   0  0  0  0  0  0  0  0  0  0  0  0
    5.2128    4.3830  -18.0884 C   0  0  0  0  0  0  0  0  0  0  0  0
    3.2970   -2.8915  -19.1175 C   0  0  0  0  0  0  0  0  0  0  0  0
    3.8999   -3.2488  -16.8109 C   0  0  0  0  0  0  0  0  0  0  0  0
    6.6303    0.8051  -22.1071 C   0  0  0  0  0  0  0  0  0  0  0  0
    7.2068    5.6279  -23.6764 C   0  0  0  0  0  0  0  0  0  0  0  0
    5.5588   -1.6214  -21.1416 C   0  0  0  0  0  0  0  0  0  0  0  0
    6.1707    6.0044  -24.5664 C   0  0  0  0  0  0  0  0  0  0  0  0
    7.2132    2.0438  -22.6384 C   0  0  0  0  0  0  0  0  0  0  0  0
    7.4815    4.2183  -23.3925 C   0  0  0  0  0  0  0  0  0  0  0  0
    5.2883    4.0112  -20.8307 C   0  0  0  0  0  0  0  0  0  0  0  0
    4.0514    4.1130  -18.8425 C   0  0  0  0  0  0  0  0  0  0  0  0
    4.6680   -2.9400  -19.4228 C   0  0  0  0  0  0  0  0  0  0  0  0
    5.2849    3.6507  -22.2997 C   0  0  0  0  0  0  0  0  0  0  0  0
    5.2110   -3.2826  -17.1518 N   0  0  0  0  0  0  0  0  0  0  0  0
    4.1047    3.9419  -20.1810 N   0  0  0  0  0  0  0  0  0  0  0  0
    5.5938   -3.1270  -18.4490 N   0  0  0  0  0  0  0  0  0  0  0  0
    6.6404    3.2922  -22.8092 N   0  0  0  0  0  0  0  0  0  0  0  0
    2.8283    3.9953  -18.2018 N   0  0  0  0  0  0  0  0  0  0  0  0
    5.0630   -2.8457  -20.7342 O   0  0  0  0  0  0  0  0  0  0  0  0
    5.2424    4.7998  -25.4456 Cl  0  0  0  0  0  0  0  0  0  0  0  0
    8.2987    8.7339  -22.7614 H   0  0  0  0  0  0  0  0  0  0  0  0
    6.4504    9.3994  -24.2875 H   0  0  0  0  0  0  0  0  0  0  0  0
    7.3487    4.7136  -18.1910 H   0  0  0  0  0  0  0  0  0  0  0  0
    1.8619   -3.0074  -17.5068 H   0  0  0  0  0  0  0  0  0  0  0  0
    8.7846    6.3263  -22.3729 H   0  0  0  0  0  0  0  0  0  0  0  0
    5.7838    1.6920  -20.3253 H   0  0  0  0  0  0  0  0  0  0  0  0
    7.3910   -0.3813  -23.7428 H   0  0  0  0  0  0  0  0  0  0  0  0
    4.7970   -0.4260  -19.4962 H   0  0  0  0  0  0  0  0  0  0  0  0
    6.4220   -2.5033  -22.9109 H   0  0  0  0  0  0  0  0  0  0  0  0
    5.1033    7.6618  -25.4487 H   0  0  0  0  0  0  0  0  0  0  0  0
    9.2229    1.3778  -23.2072 H   0  0  0  0  0  0  0  0  0  0  0  0
    9.5813    3.9892  -23.9763 H   0  0  0  0  0  0  0  0  0  0  0  0
    7.4216    4.4116  -20.6708 H   0  0  0  0  0  0  0  0  0  0  0  0
    5.1520    4.5024  -17.0167 H   0  0  0  0  0  0  0  0  0  0  0  0
    2.5630   -2.7394  -19.8949 H   0  0  0  0  0  0  0  0  0  0  0  0
    3.6149   -3.3803  -15.7775 H   0  0  0  0  0  0  0  0  0  0  0  0
    4.6144    2.7916  -22.4494 H   0  0  0  0  0  0  0  0  0  0  0  0
    4.9105    4.5121  -22.8723 H   0  0  0  0  0  0  0  0  0  0  0  0
    2.1181    3.7865  -18.8741 H   0  0  0  0  0  0  0  0  0  0  0  0
    2.8752    3.2588  -17.5270 H   0  0  0  0  0  0  0  0  0  0  0  0
  1  2  1  0  0  0  0
  1  5  2  0  0  0  0
  2 10  2  0  0  0  0
  3 13  2  0  0  0  0
  3 14  1  0  0  0  0
  4 15  2  0  0  0  0
  4 16  1  0  0  0  0
  5 18  1  0  0  0  0
  6  8  2  0  0  0  0
  6 17  1  0  0  0  0
  7  9  1  0  0  0  0
  7 17  2  0  0  0  0
  8 19  1  0  0  0  0
  9 19  2  0  0  0  0
 10 20  1  0  0  0  0
 11 12  1  0  0  0  0
 11 21  2  0  0  0  0
 12 22  2  0  0  0  0
 13 23  1  0  0  0  0
 14 24  2  0  0  0  0
 15 25  1  0  0  0  0
 16 27  2  0  0  0  0
 17 21  1  0  0  0  0
 18 20  2  0  0  0  0
 18 22  1  0  0  0  0
 19 32  1  0  0  0  0
 20 33  1  0  0  0  0
 21 30  1  0  0  0  0
 22 30  1  0  0  0  0
 23 26  1  0  0  0  0
 23 28  2  0  0  0  0
 24 28  1  0  0  0  0
 24 31  1  0  0  0  0
 25 29  2  0  0  0  0
 25 32  1  0  0  0  0
 26 30  1  0  0  0  0
 27 29  1  0  0  0  0
  1 34  1  0  0  0  0
  2 35  1  0  0  0  0
  3 36  1  0  0  0  0
  4 37  1  0  0  0  0
  5 38  1  0  0  0  0
  6 39  1  0  0  0  0
  7 40  1  0  0  0  0
  8 41  1  0  0  0  0
  9 42  1  0  0  0  0
 10 43  1  0  0  0  0
 11 44  1  0  0  0  0
 12 45  1  0  0  0  0
 13 46  1  0  0  0  0
 14 47  1  0  0  0  0
 15 48  1  0  0  0  0
 16 49  1  0  0  0  0
 26 50  1  0  0  0  0
 26 51  1  0  0  0  0
 31 52  1  0  0  0  0
 31 53  1  0  0  0  0
M  END
> <OMEGA_C>
b6v2QJ5D/0AcDbrBaUTVQMmnBUHy/sDBoVTOQFnWj0D19ZXBDu45QKjeQsCmRI7BjWj/QA6x00AD
R7jB1i+9QEnzRz8dIafBR13aQBC3x77flrbB/K2rQPzo1b5YUaPB3AnJQEXVy7/Vx7LBcsi8QK/O
60BAPsbBUswHQUagCkCQJLnBiMIKQdjlY0CVo7zBuaLPQLQlikCnFKHBP8+mQMNBjED2tJDBrgJT
QHAOOcCg8JjBgpd5QEjsT8CrfIbBlSvUQI4aTj8/27DB7Z3mQKwXtEArab3B2eGxQB2Kz78ZIqnB
FXbFQPYjwED0h8TBztLmQFDOAkB3G7XBi2jvQLH8hkDEI7vB2DmpQN1bgEBZpabBy6SBQNSdg0Bm
vZbBc2CVQL4oPMDwYZvBrh2pQKSlaUDAZbLBtMCmQLoWUsDbNonBcVmDQEJIfECrcqHBWgCzQKAg
SMB9l5PBZ37UQDa0UkAzebbB8gI1QPiyf0BUnZHBxQOiQCogNsCc36XBfsGnQEOYmUCUkMvBmscE
Qf69C0FAF7bB2GnOQNtjFkHkTMLBXSjrQKPVlkAYh5HB61HuP2l5QMD0DYzBu40MQTpxykDE+7LB
4hS5QKCS2D9JmqLBsoLsQIczw7408b3BrYCZQDoW2r44+JvB8YDNQIU1IMCGSbfB8E2jQNkt9UAG
l8vB4JATQZpbsD9eqLnB1UwZQfFOf0Bdz7/B5X3tQHorjUDHXaXB4dykQHITkEAzIojBvQckQMFR
L8DOKJ/BQltnQJdXWMCKcHzBZamTQKupMkBFmLPBnyKdQEtjkEBi+rbBOI4HQCdWckAl/pbBugI4
QPaQUEA0N4zB6CnwQGjA/0CY6rrBa9rNQGYfBUGFvMHBI2jPQFhxkkBIX5bB1DWhQMq+ScDAe4jB
zKL6QDae1EChErnB4iXBQCm0ST/3sqbBiQTgQEilyr4e4rXBUNGvQCKW0r5d2KLB0+3OQEq8zL8Y
BbLBphy2QIKd6UBuw8bBb2sIQWjkDkBiQrnBJy0KQV/nZ0DkC73BVdLPQCahi0BUdKHBGqCoQAjH
jUBt1pDBcbCxQE/QP8Dv0JLBOihpQJ+aTsA+MYfBczXYQNNVTz8ParDB6pHiQBTcs0BM973BVES2
QEwRz7+pmqjBL2LAQH5bvkDy78TBi5joQL7zA0CCBLXBVk/tQAo+h0DIkrvB0lCpQFtWf0DCtKbB
U0ODQJ7sgkBDkJbBzcCUQDUHO8BncJvB9J2oQGN6ZUAaX7LBcv0zQDoJScA8uo/BChyEQP+/eEBC
PqHByPZTQHVwP8BPyJnB9STUQNuiUUBBnLbBhrE5QKtDfEDyJ5HBM9ajQFqyNMC9uqXBH1ajQO51
lkC7qMvBxDUBQYZpDEHTGrfBqbnFQJ+wFUGSHcPBL1rsQLIbm0CQLZLBwUq2QKqXTcBsp4HBdZEK
QVKTzEB157PBBdi8QOa62T9fNqLB1TTzQMXUyb6zEb3Bz5WdQCvH1b5ogZvBG7/UQNQ+IcBKTrbB
HfibQLjN8UDZB8zBQMQUQWBdvT8du7nBlkoYQRvCgkBTYsDB1RXtQOBtj0Cb86XBGGOnQEFykkBM
SIjBVcfTQJzoO8COJpTBCZdOQLfkVsA6kX7BlWCUQP5MLECPPbPBZvCaQDAojUBVE7fB67wLQFDt
a0D+VZbBybo/QNR3TkBtnovBsGz3QHPG/kDTnbnBEoXWQI7dBUFjmsDBE0jOQHHMj0C4MZbBlmg6
QO0SRMDuUo7BeJj/QDb80kCSCbjB0YbaQDdoz764lbbBiGi7QAhuRT9KZKfBzoLJQG44zr8lw7LB
V0WqQO/53L5Kj6PBT+G9QKPo7EBmDsbBl3wHQa4vCkDDFLnBOY0KQWNzY0DXibzBBj7PQL/9iUD9
TqHB0eumQG9kjEDj3ZDB07JTQP8OO8Ch/5jB8vl5QI2tT8DAfobBp0PTQPhpSz86/bDBLp3mQLwL
tEC9XL3Biq+xQBTl0b88OKnB0tTFQJMBwUC+fcTB3u/lQJNAAkB7N7XBEtzuQAa5hkDWObvBAKeo
QIdZgEBk0KbBapCBQALAg0B40pbB1saVQMRHPcATZZvBAlGoQGR3aUAdk7LBTP+mQIUlUcDyLYnB
BeuCQJ5ifECriaHBM1qzQIPWR8A1j5PBb6jTQB8rUkBQprbBpzM1QFAugECympHBK4miQHilN8Bm
4aXBxKWnQLhem0BPssvB6i4FQWc7C0GZebXBMSnQQIivFkF2yMHBbELrQIjBlkCv0ZHB5BrvPzIq
QsDOJIzBloMMQVsLyUDKvbLB9ULtQN8qy75J2L3BIlm2QJvX1z/6+qLBzbzOQMyXIcClLbfBbnSX
QNTp4L4TUJzBI9WkQDf89kAyc8vBf0cTQRKOrz80gbnBxTQZQYnyfkAdkL/BDAHtQKHQjEC1pKXB
LzylQH1YkEA3S4jBEsskQMCVMsBxQZ/BHJVnQEqIV8ARc3zBPsCSQMyfMkCrv7PBNGacQDRPkEBB
KbfBlEsHQLYZc0Ah7ZbBT2k4QPVMUUCOMozBIhHwQDJG/0BmPbvBHqHNQP27BEHaDMLBD1jPQBND
kkBAJ5bBzB+hQJm4RsDLhYjB+Jz6QDg71ECGTrnBlrvgQArhzb7ez7XBnGzBQHz+Rz9wrqbBDH7P
QGKBzb/F/rHBotSvQBYz1b7q5KLBVde1QBmg6EC6+sbBanUIQa0pDkA6ZbnBvRQKQSDZZkDnSr3B
uP7PQDIti0CvOqHBlmaoQLL1jUC9qpDBO6ixQGd4PcCM25LBSRNpQO9yTcBpRIfBDMXYQBqZTT87
WbDBJHviQK1Ls0A0GL7B2ni2QDyzz791pKjBdzDAQHB0vUAQD8XBSPvoQFeGA0C29rTBoFLtQKrW
hkAtnrvBZIqpQLbRfkAzhqbB5x6DQN0tg0ABb5bBjM2UQO9BO8AAhZvBVPmoQHwUZUAENLLBhRY0
QDtnSsDZ1o/BAzCEQAzUeEAEG6HB4ClUQPCDQcCO5ZnBFXnUQPE4UUBpfbbBwAo5QASsfUBXFZHB
2eGjQFzoNMDNzqXBNhyjQDU2lUBepMvBjS0BQUFBDEGEgbfBEnDFQEBFFUFWf8PBKz3sQAncmkDA
7ZHB5R+2QL+mSMA6qoHBw5sKQYhmzEClJrTByyj0QJPQzL4w9bzBLBy9QKu92D+CLqLBMnfVQESj
IcAgRLbB5zydQGsu2L54nJvBGJ2bQCuW8ED4PczBfMkUQVvUuz9/7LnB8goYQQcOgkBj1cDB8Gft
QL6gjkAGr6XBG/ymQH/ZkkAHH4jBqrbTQMAmOMARK5TBvGxOQGsoVcAdtX7BnbuUQFLqK0BGFbPB
ekmbQCb+jECx5LbBejYLQLCLbUB9SpbBp2A+QAEKUECSg4vBgxm0QFyU50CceMbBbPnLQCiWBEE7
6sHByafPQKW3kUCZNpbBTbOgQE+LScBobIjBDba/QF3fvECXcsTBpTzfQEuizL4xEbbBH1jBQHb5
Rz9kvabBv07OQKoezb/ULLLBuBawQDHx1b4Q3aLBO1jvQOUHAEHLTbvBglUIQc4SDUCni7nBgC8K
QU71ZUDfWb3BMkPQQLXOikB6S6HB166oQB6XjUD9vJDBpsOxQJfKP8ARs5LBEf9nQGN2TsBkSofB
WQrYQCZnTT+sgrDBcAbjQMKis0Doyb3B6Fu2QJbSz7/wpqjByO76QElZ1UA+M7nBo7roQIwfA0Af
GLXBFfjtQCUCh0DgcrvBs7CpQLdGf0AuoqbBOFaDQAs6g0CvhpbBZkqVQNhGO8CIa5vBZxupQGvu
ZEC4ULLB78szQKAmScCb64/BalOEQM+oeUAsN6HB7ORUQIu8P8Co6pnBaqjUQGI9UUCiibbB9n05
QJ+qfUDHLJHBvt2kQLuVNcDjqKXBSdQSQZvfykA4gbDBteuYQJyb7kCngsvBSyjDQKn+FEGrfcPB
SprsQGAMmkBK+pHBFGS1QD02TcCmhIHB4JatQAcWo0AR/sfBmtjxQLORyr77WL3BNkW9QO3O2D/i
O6LBgbHTQP1PIcDOhbbBxhCeQLyF2b7efZvB2c4AQdL1DEFG17fBzYMUQTSQuD8FJbrBFSMYQTJG
gUCO/MDBu8DtQALxjUAqu6XBREmnQK1LkkCRL4jB/evTQE3SO8C66pPBG4pMQKWXVsCU2n7BQfiU
QJWVK0BtKLPBElubQP/AjEAhDbfBc48LQMcRbkDCZJbBoLY+QC+gT0AQqIvBx6SzQLJQ50BIqcbB
jlXLQOGdBEGpM8LBsfnPQOWRkkAFgZbBpjifQCWXRsCsOYjBEHW/QLPDvEDTgsTBLq/AQOWyST8G
y6bBBM7fQL75y74k77XBa5CvQEQd074R5qLBNP3OQBYuzb96BbLB9pfuQLNMAEGEhLvBUoAIQalu
DkBYPLnBTVsKQZCAZ0D6/bzB2RrQQAWei0BLk6HBQ1GpQB0mjkBP65DBHgexQJDGPMCAbJLBRBFl
QHtATsBNU4fBzfnXQOK5Tj9JerDBMbfiQA72s0Cmy73BT5a2QJy2z7+LkKjBT076QDcL1kBDQbnB
NKnoQFCnA0ByDLXBVOPtQJVjh0ArYrvBzmqpQPkGgEBHz6bB2MaDQNyBg0DBl5bBXUaVQMj3OsDF
TpvBSq+oQEbkZEBNd7LBtEgyQC6hS8CrGpDB30yEQN7+eUBuSaHBntJUQHQsQsAkBprBQ17UQIhx
UUBPobbB/BE7QI3JfUDZGZHB55mlQP/UNcDvfKXBdlkSQYpVzEAHaLDBnHGYQND47UCTucvBPHbC
QBr3FEFz6MPBEA3tQFoom0A3W5LB01izQDs+SMBYNIHB04StQDK9okAwAcjBAAu8QJ4R2j/NXKLB
EM7yQNDxyr63Jr3BMhCdQN4v1b7dmZvBrNHUQHh7IcCZTbbBXVkAQb5aDUFAHrjBjdEUQYwuvD+8
sLnBeHQYQdNbgkC7ZsDB/VrtQLwIj0DVGKbB8UqoQIDXkkDwXIjBWDTTQNW7NsAadpPB431IQO1X
VsAYDH/BVLOUQCJFK0CtPbPBOMiaQL58jEBeQrfB/akMQK22bUAOO5bBM0VBQI/tT0Alk4vB1LW8
QFd16kDg78XBs3HVQFNXBUE1EMHB8CDOQMOGjkDj5ZXBtjE9QFG1R8A8x43BCubFQCkpv0B96sPB
B1a8QIbvQz+rL6fB9CnaQBIW1L6lhrbBCkqqQPok277Pb6PBXDnIQDZNzr+0yLLBfDj3QEac/0AE
IbrBV+oHQeTTCEBs/bjBQhULQS5BYkA3YbzBKJfPQIXQiEBfA6HBwHOmQEWWi0B5tJDBaL5SQEWf
PcDPkJjBsYp/QGpaUcCjRobB+OTTQAGeSD+A1LDB9aznQGbss0Dw9LzBXH+wQHIC0b+7OKnBPzUA
QU5M1EBnCbjBUO3mQJFQAUAVCbXBx1XwQI2chkD6xLrB2ySpQKTxf0BlrabBKVCBQI6Gg0DEy5bB
jN+UQNoiPcDGZ5vBqEupQHpAaED+crLB+FCpQC0sUMAPYYnBkyKDQGNufECIhKHBf9ezQLb+RcBR
35PBTuDUQCiEUUCKYrbBYQ00QB1kgED/tpHBNr+fQDo4NsA6BKbBXqIUQQiGx0C0+67BR7miQDP8
8kAPOMvBMoPOQPL4FUGtpMLBe/bqQKsOlUBtbJHBxR32P0oUSMB5RIvBFxOzQONupkAgssfBqDa4
QPS11j/YrKLBztXsQB6q0r7my73BEa+XQLuY3L7aJ5zB6qfMQOaHIcBhRrfBMg8FQdc1DEEOaLbB
55kTQXsrrD+EhLnBYaoZQaY4fUDLj7/Bx6btQBwci0CwPKXB41qkQBp0j0CfIojBnZ4hQFBfNsBq
k57B2hBwQHrSWcAb2HvBJv2TQDIJMUAHpbPBZlmdQIGGj0DDGLfBNokGQMR1dECwH5fBvf81QN5n
UUB8V4zBJ1i+QKIw6kC7H8bBejXXQMYrBUGpQsHBRrTNQDmFjkAv0ZXB5YU/QMGBSMA5io3Bz+LG
QK/jvkCg8cPBKjbaQHWr2L54cLbBKt67QHyFQT93KKfBjhrIQKZvz79iwbLBnaOpQKO6375MeKPB
73f4QE0z/0B1LbrBY80HQd7nB0Da4bjBMxwLQYpKYUBeObzBi0nPQD6ZiEA37KDBSfmlQMOqi0D6
pZDBs7RSQGV2P8AxaZjBRMKBQOI5UMAEPIbBW6HTQJZgRj8kxLDBOTLoQIyZs0D02rzB9dyvQKLr
0b9BR6nBPYgAQZbi00D+8LfBhKnmQJ28AEBi87TB23/wQMNNhkC0nrrBQ+moQERXf0BFm6bBrOiA
QJ9zg0BGwZbBK4uUQGsHPsDXhZvBjjOpQN5AaECbZbLBM/aqQDU3TsAvmonBOdqCQCzPe0D6d6HB
lVW0QLgKRcBwLJTBhczUQCwhUUAPSbbBxRczQOuQgEDfs5HBIVGeQJE2NsDDL6bBjLcUQYYDx0CL
wq7BdcGkQIvH8kAPhcvB8cXQQM/NFUFn9sLBynzqQDEllUCyVJHBzt37P+6JScAt0YrBt+yzQG41
pkAss8fBCULtQBEy174Xpr3B5bu3QL1U1T9ZoaLB7czMQAMiIsDuOLfB796WQFju4b4ON5zBerYF
QdX6C0Hgc7bBvGoTQarSqT93bLnBLL8ZQfMHfECoX7/BYGbtQG7MikBzIKXBAMejQCW3j0DeFYjB
0EcgQOO2OcC/Rp7B7911QOLdV8Ajo3vBiruTQIRkMUAWqrPBwoqdQG+5j0BBBLfB/6wFQHC9dEBB
H5fBfro0QP/6UUAQTIzB

> <OMEGA_E>
AJVIPiCOTD5AyUw+kLNQPiCaZD6wo2c+wNZwPuDKfj4=

> <OMEGA_NBR>
     40119

$$$$
50161588
  -OEChem-04172616093D

 53 57  0     0  0  0  0  0  0999 V2000
    7.6284    8.0031  -23.3382 C   0  0  0  0  0  0  0  0  0  0  0  0
    6.5768    8.3560  -24.2063 C   0  0  0  0  0  0  0  0  0  0  0  0
    6.4616    4.5416  -18.7805 C   0  0  0  0  0  0  0  0  0  0  0  0
    7.9174    6.6477  -23.0990 C   0  0  0  0  0  0  0  0  0  0  0  0
    6.9250   -0.3829  -22.7787 C   0  0  0  0  0  0  0  0  0  0  0  0
    5.9538    0.7881  -20.8762 C   0  0  0  0  0  0  0  0  0  0  0  0
    6.3978   -1.5914  -22.3011 C   0  0  0  0  0  0  0  0  0  0  0  0
    5.4211   -0.4172  -20.3981 C   0  0  0  0  0  0  0  0  0  0  0  0
    5.8169    7.3538  -24.8410 C   0  0  0  0  0  0  0  0  0  0  0  0
    8.5057    2.2164  -23.1367 C   0  0  0  0  0  0  0  0  0  0  0  0
    8.6569    3.6104  -23.5888 C   0  0  0  0  0  0  0  0  0  0  0  0
    6.4861    4.3456  -20.1678 C   0  0  0  0  0  0  0  0  0  0  0  0
    5.2391    4.4139  -18.1045 C   0  0  0  0  0  0  0  0  0  0  0  0
    3.7376   -3.2403  -16.9003 C   0  0  0  0  0  0  0  0  0  0  0  0
    5.1245   -3.1556  -17.1562 C   0  0  0  0  0  0  0  0  0  0  0  0
    3.2998   -3.0310  -19.1755 C   0  0  0  0  0  0  0  0  0  0  0  0
    6.6868    0.8173  -22.0838 C   0  0  0  0  0  0  0  0  0  0  0  0
    7.1477    5.6417  -23.7184 C   0  0  0  0  0  0  0  0  0  0  0  0
    5.6422   -1.6220  -21.1149 C   0  0  0  0  0  0  0  0  0  0  0  0
    6.1005    5.9950  -24.6055 C   0  0  0  0  0  0  0  0  0  0  0  0
    7.2340    2.0668  -22.6335 C   0  0  0  0  0  0  0  0  0  0  0  0
    7.4476    4.2387  -23.4196 C   0  0  0  0  0  0  0  0  0  0  0  0
    5.2827    4.0079  -20.8434 C   0  0  0  0  0  0  0  0  0  0  0  0
    4.0734    4.1071  -18.8373 C   0  0  0  0  0  0  0  0  0  0  0  0
    4.6850   -2.9461  -19.4325 C   0  0  0  0  0  0  0  0  0  0  0  0
    5.2694    3.6329  -22.3094 C   0  0  0  0  0  0  0  0  0  0  0  0
    2.8449   -3.1725  -17.9129 N   0  0  0  0  0  0  0  0  0  0  0  0
    5.5802   -3.0078  -18.4187 N   0  0  0  0  0  0  0  0  0  0  0  0
    4.1104    3.9192  -20.1748 N   0  0  0  0  0  0  0  0  0  0  0  0
    6.6283    3.2981  -22.8253 N   0  0  0  0  0  0  0  0  0  0  0  0
    2.8629    3.9764  -18.1758 N   0  0  0  0  0  0  0  0  0  0  0  0
    5.1183   -2.8435  -20.7317 O   0  0  0  0  0  0  0  0  0  0  0  0
    5.1761    4.7702  -25.4595 Cl  0  0  0  0  0  0  0  0  0  0  0  0
    8.2126    8.7732  -22.8564 H   0  0  0  0  0  0  0  0  0  0  0  0
    6.3525    9.3971  -24.3857 H   0  0  0  0  0  0  0  0  0  0  0  0
    7.3657    4.7861  -18.2426 H   0  0  0  0  0  0  0  0  0  0  0  0
    8.7294    6.3772  -22.4404 H   0  0  0  0  0  0  0  0  0  0  0  0
    7.5156   -0.3733  -23.6829 H   0  0  0  0  0  0  0  0  0  0  0  0
    5.8030    1.7002  -20.3178 H   0  0  0  0  0  0  0  0  0  0  0  0
    6.5733   -2.5058  -22.8482 H   0  0  0  0  0  0  0  0  0  0  0  0
    4.8432   -0.4289  -19.4858 H   0  0  0  0  0  0  0  0  0  0  0  0
    5.0147    7.6286  -25.5099 H   0  0  0  0  0  0  0  0  0  0  0  0
    9.2611    1.4465  -23.1909 H   0  0  0  0  0  0  0  0  0  0  0  0
    9.5574    4.0579  -23.9827 H   0  0  0  0  0  0  0  0  0  0  0  0
    7.4097    4.4502  -20.7176 H   0  0  0  0  0  0  0  0  0  0  0  0
    5.1908    4.5489  -17.0341 H   0  0  0  0  0  0  0  0  0  0  0  0
    3.3874   -3.3604  -15.8857 H   0  0  0  0  0  0  0  0  0  0  0  0
    5.8252   -3.2095  -16.3362 H   0  0  0  0  0  0  0  0  0  0  0  0
    2.5986   -2.9823  -19.9954 H   0  0  0  0  0  0  0  0  0  0  0  0
    4.6156    2.7585  -22.4441 H   0  0  0  0  0  0  0  0  0  0  0  0
    4.8716    4.4805  -22.8868 H   0  0  0  0  0  0  0  0  0  0  0  0
    2.1460    3.7460  -18.8339 H   0  0  0  0  0  0  0  0  0  0  0  0
    2.9335    3.2500  -17.4922 H   0  0  0  0  0  0  0  0  0  0  0  0
  1  2  1  0  0  0  0
  1  4  2  0  0  0  0
  2  9  2  0  0  0  0
  3 12  2  0  0  0  0
  3 13  1  0  0  0  0
  4 18  1  0  0  0  0
  5  7  2  0  0  0  0
  5 17  1  0  0  0  0
  6  8  1  0  0  0  0
  6 17  2  0  0  0  0
  7 19  1  0  0  0  0
  8 19  2  0  0  0  0
  9 20  1  0  0  0  0
 10 11  1  0  0  0  0
 10 21  2  0  0  0  0
 11 22  2  0  0  0  0
 12 23  1  0  0  0  0
 13 24  2  0  0  0  0
 14 15  2  0  0  0  0
 14 27  1  0  0  0  0
 15 28  1  0  0  0  0
 16 25  1  0  0  0  0
 16 27  2  0  0  0  0
 17 21  1  0  0  0  0
 18 20  2  0  0  0  0
 18 22  1  0  0  0  0
 19 32  1  0  0  0  0
 20 33  1  0  0  0  0
 21 30  1  0  0  0  0
 22 30  1  0  0  0  0
 23 26  1  0  0  0  0
 23 29  2  0  0  0  0
 24 29  1  0  0  0  0
 24 31  1  0  0  0  0
 25 28  2  0  0  0  0
 25 32  1  0  0  0  0
 26 30  1  0  0  0  0
  1 34  1  0  0  0  0
  2 35  1  0  0  0  0
  3 36  1  0  0  0  0
  4 37  1  0  0  0  0
  5 38  1  0  0  0  0
  6 39  1  0  0  0  0
  7 40  1  0  0  0  0
  8 41  1  0  0  0  0
  9 42  1  0  0  0  0
 10 43  1  0  0  0  0
 11 44  1  0  0  0  0
 12 45  1  0  0  0  0
 13 46  1  0  0  0  0
 14 47  1  0  0  0  0
 15 48  1  0  0  0  0
 16 49  1  0  0  0  0
 26 50  1  0  0  0  0
 26 51  1  0  0  0  0
 31 52  1  0  0  0  0
 31 53  1  0  0  0  0
M  END
> <OMEGA_C>
7Bv0QMgMAEGTtLrBC3XSQAqyBUF2psHBy8XOQBVVkUBnPpbBD1v9QB+61EC9yrjBN5ndQEcIxL7h
OrbBpYW+QLDCST9hAqfBpLrMQLiyy7+PaLLBQXmtQC+a1b5LL6PBsyO6QIpS60BfusbBWBcIQXDZ
DUAAGLnBrIIKQTAQZ0DZtbzB543PQFgPi0C/V6HBl6anQE8+jUAQ1pDBBTVvQEVhT8DGM4fBqvuj
QJn1ScD9P4nB9S9TQKT7QcBUZ5nBEfrVQLQ7UT+Oq7DB8bnkQOuItEBPv73BBo20QCifz79N66jB
KTfDQO/Wv0Aa2MTBMH3nQN5FBEBuEbXBaVLuQHGjh0BmW7vBtQupQGhAgEBEv6bB/1iCQI5tg0Dj
spbB7OuVQO+MPMC8dZvBiJ6oQP+AaEC6ebLBpRI2QGwKS8CpTY/Bs5CyQLl/QMB2WZPBH4iDQIXU
ekDvZaHBBBvUQHwUU0BMmrbBNzk3QJx8fkAdaJHBzMijQJv7NcCA2qXB36KlQDilmEAircvB5mYD
QfJeDEHo2bbBDEjLQHNaFkHsFcPBvbPrQNEnmUDK8JHBsqsLQfcRzEDghbPBzn/wQAIcv76Hdr3B
jbK5QI6h2T/0iqLBUljSQNJfIMAdybbBk/uaQA6e277T4pvBX3igQFId9EBOFMzBoy0UQTAmuT/o
hrnBROsYQXfagUB83L/BrBztQPBnjkC/vaXBLRumQMWQkUDRRYjB6cpYQJUQV8DtK37BQ2i6QFNo
TcCVsILB108mQO3dPsCp9p/BybKTQAaMMEB2jbPBhuSbQBRgj0BAGLfBgFgJQAO+b0Daq5bBzb47
QO7/T0Dz74vB9Mr0QOyu/0AiSLrBZ//SQDieBUGOJ8HB847OQKZakEBAIpbBSRv+QKI91EBRfbjB
Lq+/QEz3Rj+V8qbBxGHdQL8zy76nUrbBc4+tQKEK1b7vOaPBBI3LQGVjzL8DlLLBtJe6QMBb60CK
R8bBD5YIQagKDUATBbnBzPEKQWN7ZkAFlLzBdrTPQPMrikAaPKHBfUanQEcYjEDXzZDBVm10QKam
T8A6A4fBajmmQKoES8DlhonBpVhSQGJaQMC0B5nBM8XWQO4xTT8FqLDB1mflQB04tEBZfr3BDmiz
QJoUz791E6nByLjDQPjNv0BkhMTBi3roQDIoA0AHBLXBQR7vQCY7h0C5NrvB9WmpQFhRfkCBtabB
fi2CQE9EgkCav5bBWSSVQMfoO8A4jpvBJFWpQMGkZkCxcLLBZp44QDrhScDWyo7BLh2zQIMHQcBj
wpPB1b+DQKpbeEBHcKHBfffUQDjcUUDDhrbBI1g2QKfjfEDCkJHBBEqhQAWlNMDPFKbBNgimQNzt
mEC5b8vBdsYDQQEXDEGQY7bBdcfLQEZNFkGKf8LBzVPrQIs8mEBBxZHBORoMQVNly0BuRrPBofq7
QIyw1z9IXKLB9zbwQJFFyb45kb3BgyibQOjF177B6ZvBWGTQQKyuIMA8BbfB686gQBZa9EAxk8vB
lbQUQV/Qtz/+ebnBZlcZQYu1gUBXs7/BIV3tQC29jUBXlKXBanSlQMJLkEB/PYjBgrpgQCjiV8AV
l33B0Lq9QOt/T8DHN4PBxEwjQAYZPMBjVp/B2JuUQEl1LkB+kbPBpIicQM9tjkCLDbfBPtIIQEh7
bkBz5JbBSfg5QOVsTkAkFYzBvanzQMtN/0A5dLrBvj3RQKo7BUGDLMHBzQLPQN6ykEDZGJbBY6H9
QCv300DntbjBJfncQCY/z75CQ7bBYse+QG2rRD9X8KbBNzbLQFmRzb/VirLBXcWsQPhY276lOqPB
WRm5QLtQ6kBkRcbBW0YIQV7pC0C8CrnBlbgKQRInZUA7qbzB4vjPQM05ikC4MKHByMKnQKLgjECQ
upDBnO93QAa4TsB434bBIbg6QIw5RcC9Go/B5s6yQKTrRcD4aJPBzBzWQOQkSz9unbDBuQzlQLat
s0CupL3Bbd+yQHOg0L/YE6nB7wjDQHfivkB9mcTBj+jnQCCPAkDw+rTBR87uQMrHhkAERbvBt4Cp
QLwAf0DHnqbBjIKCQMEsg0BVoJbBJRyUQBTFPMC9ppvBnCCpQFbcZkAXV7LBakOmQD7STsAfI4nB
6LhTQOyWPMDJYZnBouKDQKjfeUAKUKHBGpzUQFB0UUC9fLbB3Cg3QB77fkDHZZHB8QehQPjCNcDu
HKbBDNalQPael0DTgsvBCzMDQTECDEEZpLbBu1fJQK/eFUG2a8LBD+XrQE14mEDXxJHB+g8MQY5q
y0BPl7PBHffvQBaJzL4me73BGMu6QFSa1j9eX6LBXkLQQBs9IcAi+rbB3UaaQI5v37457pvBkOie
QAYB80ATecvBoVMUQYAGtT++f7nBgB8ZQRfVgECF1r/BAJ/tQAhbjUBsj6XBlxWmQGlRkUCvK4jB
zfFiQEb3VcDKYX3BpcHuP9LfRMBIKI3BH3zUQFjIRcDWWZXBKzyUQGLYLkCAZ7PB9lucQIODjkCI
97bBMW4JQFqBcECmsZbBo+Q6QHOpUECO5YvBosvzQCQo/0B3ULrBRkjSQERYBUEhR8HBceXOQPDC
kEALF5bBuy79QLC600DtirjBxpK+QNwPRj9gB6fBIDzdQG7qzb5dSLbBh+asQGxj2b5QRaPBfsnL
QEtxzb9ghLLBWTG6QM7P6kD+f8bBhgYIQcj8C0DMQrnB3GUKQdwOZUCo7bzBLMzPQLdLikBRL6HB
K6qnQFMKjUAttpDBcp92QJ4OT8DW9IbBsjQ6QJYcRMBwQI/BoriyQG6BRsANV5PBDP/VQJA7TD/+
r7DBUcfkQPPAs0DqpL3Bb1+zQOtg0L/xEKnBnFHDQJlFv0B1usTBJJnnQEzRAkAKE7XBHVnuQA/Y
hkBFWrvBOEapQLSBf0CtnKbB3GCCQFJig0DfmJbBqGmUQAI/PMCPpZvBh9uoQOpSZ0BfVrLBZrOl
QPbiT8CFHInBNyhUQOwMO8BPfJnBMayDQOR4ekBHSqHB2ErUQDjFUUD0grbBwhs3QALKfkCXVZHB
KNGhQMy/NcC+EabB16ylQKNDmEC2nMvBOCIDQTrUC0G9VrbB4gjLQN0GFkEGnsLBidHrQN5zmEDb
xJHBNIwLQc7eykCyRbPBEkO6QCKf1z9vg6LBykXwQMEHy75Tfr3BzWGaQLeS3b7i+ZvBgCHRQEtN
IcBq57bBKqugQATN80DH38vBXQ4UQV0TtT/rxLnBk7AYQQKrgEA2QsDBinPtQMdLjUDxjqXBggem
QLaFkUCDJ4jBnN5gQJ/WVsBroH3BenHtP7L8QsBxY43BAXrUQJzVRsBxMZXBhuuTQHNdL0B7ZLPB
aRmcQIvCjkDh9bbBslIJQMwScEDdnJbBB1M7QE5rUEB72IvBVPi2QJSe6ECIM8bBhdzOQAvjBEGi
dMHBL1bPQESTkEDYQZbBBunBQJe1vUByNsTBCSTeQNuo0b6RG7bBsKe/QC0/Rj/53qbB1ynMQG2f
zb/VX7LBx3qtQBsL1r5BJKPBHm/xQLACAEEBpbrBY3sIQR9ADEAyILnBA7IKQTZ0ZUBkyLzBBCDQ
QCTriUAYV6HB9CaoQNX/jEBe3ZDBKp92QHyTT8AU64bBI8I5QKfpQ8DTJY/BD1+yQJywRsAxZJPB
QxPXQJjmSj/GiLDBz4PkQFLNs0BNYr3BR3ezQP2Jz7/Q96jBxEf8QO0Z1UBTjbjBA3zoQMxrAkAN
/rTBNN3uQHnnhkCMJrvBC4GpQPE/f0ABx6bBSM6CQJZsg0ANvJbB2tiTQNiwO8BSopvBkRypQJYn
ZUAud7LBk6GlQAOhUMCLJonBNCZTQOhbOsC4ZZnBtPODQJanekADb6HBnsnUQPrZUECnh7bB0hw4
QIXXfkBicZHBpfmgQBWzNMCYEqbB7+sSQV3qyUAkka/BSUmcQKIj8EA0XMvB3qrGQFZfFUE6CsPB
N03sQHNMmEAr9ZHBfM6vQPhEpECO6sfB4XHxQAUf0r4yRr3BQ727QG6z1z/yVKLBNVHRQCqAIcCz
wLbBmvOaQIrd174n2ZvBvNUBQZnFDEGVBLfBBJ8UQVlrtj9hm7nBN+sYQQwEgUBrJcDBmM7tQBKV
jEAmt6XB25SmQCaHkUDnTojBM1BhQHW7V8Buhn3BzsfsP9ahQsCzOI3BfhLUQN8iR8AWTpXBCMKU
QH0uLEB5YLPBM8ybQEEGjUBqObfByi8KQPQxcECJtJbBaXQ8QA5qUECf9ovB56y3QFYI6UAuVsbB
XS7QQC0NBUFHwMHBBrnOQKaykEAMIpbB8xfCQOQRvkAJO8TBMh/AQH7IRj+h26bBuGjfQHgI0L4v
/7XBBTCuQLDd1r78H6PBM6fNQA+tzb/vQrLBBd7yQFEdAEEH/brBR6MIQeDpDEBuLbnBEL4KQXb1
ZUDZ4rzBw7jPQGJMikBIOqHBinynQMHHjEB8xpDBhGZxQDLUT8BdJofBtOSkQHDhSsC8conBER1S
QD5CQcBBQZnBANbXQCQZTD+6ebDBCNjkQLYNtEAJdb3BmLK0QOXrz7825ajBIjz9QGZH1UC6yrjB
ue/oQEb7AkAJ9bTBDAbvQO8oh0DoKrvB2EupQOhyf0DutKbBtUSCQAAng0CIsJbBdjSVQE5WPMBz
j5vBr06pQISDZUB4abLBtNA2QKalSsBfFI/B75CyQCIOQcBKnpPBiqSDQMZFekCaZaHB1RrVQKJq
UUBndrbBT+A2QNoVfkC9bpHBxSuiQIzwNMCGBKbByYITQfX6yUDa4K/Bj+ucQLym8ECUdsvBq17I
QKCMFUH6a8PBRpXrQPp8mEAWzJHBenuvQKiwpEDfzMfB5cm7QPcW2D/OWqLBie/yQPCUz74kIL3B
NHCbQDx42b733ZvBcC3TQLeNIcAgm7bBh8cCQY3XDEGYerfB08wUQcD1tz/FrrnBTeIYQU89gUCZ
V8DBlG3tQOZfjUBXk6XBC8mlQLYWkUCaNojBG3BcQF/UV8Cb9H3Bmee7QPX8TsC7BYPBghAkQNF7
PcBRrp/B7AqVQEt1LECTXbPBdgacQBo3jUAgLLfBvCAJQOBsb0Dqt5bBTiU7QNuXT0Dw9YvBjGa5
QLaP6UD0icbBOJjRQJI1BUHxwcHBAAXPQC2XkEDNRZbBwjDDQC2CvkA0XMTB5Du+QERpRj8wCKfB
U0zdQCECz77MN7bBb6usQH0m2b4CQKPB++TLQL+3zb+6cLLBwWbzQJIeAEGxv7rBvRQIQeL/C0CI
HbnBzpYKQf5BZUARr7zBGazPQCAoikCUXKHBMeanQMr5jECJ25DBVOp2QDehT8Dv5IbB/no6QMhW
RMAgLo/BJdiyQL/8RsCkSJPB+9LVQNQmTD+cq7DBKyXlQG8vtEBoXr3BsFmzQPGE0L/aAqnBVEn9
QAAy1UC0hrjBl4LnQJbCAkAxELXBUtHuQBEqh0BgGbvBRASpQN/0f0D5yqbB5HuCQNB6g0BqtZbB
FoaUQFZqPMDIlJvBIKSoQJ7eZkArhrLB19alQFybUMCeDonBJmVUQEkVO8CLaZnBqYGDQEEOe0C+
a6HBZ0fUQJ+7UUDwjbbBkaw3QNWgfkAoYJHBdOahQJPjNcAwAabBoC0TQTiLyUAVcK/BlV2fQL1p
8UAB38vBSTjKQNa9FUF9d8PB8gvsQF8tmEDx+5HBwbOwQHpLpUCnCsjBQra5QGMF2D9kjaLB6Xzw
QBbkzL5QZ73ByhWaQNP13L5B95vBCmDRQL+BIcBzzbbBAOUCQRvEDEHrEbfB8BgUQUj0tD+hmLnB
ofEYQUO1gEBB9r/Bs0/tQDPojEBswKXBKmymQABqkUAMTIjBRDBhQO+OV8AvgX3BowTuPwcbQ8CN
T43BV5jUQEhdR8BUJJXBc+uTQDiKLkBlibPBwcibQH1DjkA+OrfBt5cJQKoAcEAYnpbBNVQ8QJ4S
UEDG6ovB0v64QPxV6UC8HsbBKNDQQAAsBUEESsHBnaPOQIFzkEDHJZbBaK/DQLtevkAsIcTB4gLe
QHEr0b7pPLbBa6S+QBC7Rj9gHqfB5FnMQKf9zb/webLBfcWsQMV+1r5uXqPBjyjzQEswAEGebLrB
Jn0IQVjZC0DKHrnBHhALQThZZUB9mLzBnsHPQNZIikB1P6HB1FKnQMyGjEAx1JDB2LJ0QMxPT8Cv
BofB8lamQBZDScBTg4nBUcJSQETfQcCqEZnBCX/WQCyMSz98trDB5u3lQEc+tEB8Nb3BqoezQKsb
0L91FqnBEcP9QE5k1UAbVbjB+1PoQPWcAkDIELXBytDvQKpAh0Au97rBBVqpQJ8FgECtxqbBwyiC
QMEfg0CtyZbBrVWVQDotPMDwkJvBh22pQCy9ZkCCf7LBnvg4QP8bS8Cp1I7BvkGzQN6XP8C2vpPB
G6ODQM7QekBrgKHB2zTVQLfHUUD5ebbBO302QPr7fUAPk5HBuY6hQJ00NcBwFabBr44TQcz1yUDX
Tq/BK5CeQCwD8UBSWMvBl73IQI6uFUE+2cLB6XbrQOgRmEBAx5HBc6ixQL4KpUBY58fB1WnxQDWy
0L5MY73BLCi6QG5F2D9ZpaLBRtjRQG2+IcD60LbBqd+ZQD8X2L6QIpzBfbQCQTzlDEFHwbbBTHYU
QRZmtD9eqbnBu28ZQVLJgEAf2L/B2IntQH5NjUDXkKXBZISlQHmokEBCQ4jBuPVgQOBfV8BsnX3B
xs29QGFlTMCBLoPBCcwjQNfQPsCjZZ/BfNSUQDNALkC0h7PBkZqcQHQdjkCSPLfBGNkIQPPHb0Dn
5JbBFHI6QPMpT0CNJIzB

> <OMEGA_E>
0FcrPpByLT7wiC4+MCUvPmAyRD7wiEU+EHtGPtBkRz4=

> <OMEGA_NBR>
     47503

$$$$
50161582
  -OEChem-04172616093D

 54 58  0     0  0  0  0  0  0999 V2000
    7.5721    8.0217  -23.2449 C   0  0  0  0  0  0  0  0  0  0  0  0
    6.5156    8.3799  -24.1046 C   0  0  0  0  0  0  0  0  0  0  0  0
    6.4722    4.5376  -18.7906 C   0  0  0  0  0  0  0  0  0  0  0  0
    5.1948   -3.2375  -17.1597 C   0  0  0  0  0  0  0  0  0  0  0  0
    7.8891    6.6656  -23.0480 C   0  0  0  0  0  0  0  0  0  0  0  0
    6.0180    0.7979  -20.8876 C   0  0  0  0  0  0  0  0  0  0  0  0
    6.9916   -0.3841  -22.7810 C   0  0  0  0  0  0  0  0  0  0  0  0
    5.6226   -3.0494  -18.4828 C   0  0  0  0  0  0  0  0  0  0  0  0
    5.4480   -0.3954  -20.4248 C   0  0  0  0  0  0  0  0  0  0  0  0
    6.4294   -1.5838  -22.3157 C   0  0  0  0  0  0  0  0  0  0  0  0
    5.7776    7.3825  -24.7718 C   0  0  0  0  0  0  0  0  0  0  0  0
    8.5493    2.2440  -23.1687 C   0  0  0  0  0  0  0  0  0  0  0  0
    8.6784    3.6440  -23.6137 C   0  0  0  0  0  0  0  0  0  0  0  0
    6.5043    4.3426  -20.1782 C   0  0  0  0  0  0  0  0  0  0  0  0
    5.2478    4.3975  -18.1198 C   0  0  0  0  0  0  0  0  0  0  0  0
    3.8121   -3.2963  -16.8836 C   0  0  0  0  0  0  0  0  0  0  0  0
    3.2829   -3.0073  -19.1511 C   0  0  0  0  0  0  0  0  0  0  0  0
    6.7547    0.8212  -22.0928 C   0  0  0  0  0  0  0  0  0  0  0  0
    7.1416    5.6629  -23.6996 C   0  0  0  0  0  0  0  0  0  0  0  0
    5.6384   -1.5978  -21.1511 C   0  0  0  0  0  0  0  0  0  0  0  0
    4.6496   -2.9323  -19.4934 C   0  0  0  0  0  0  0  0  0  0  0  0
    6.0870    6.0227  -24.5761 C   0  0  0  0  0  0  0  0  0  0  0  0
    7.2854    2.0757  -22.6525 C   0  0  0  0  0  0  0  0  0  0  0  0
    7.4627    4.2566  -23.4307 C   0  0  0  0  0  0  0  0  0  0  0  0
    5.3055    3.9976  -20.8587 C   0  0  0  0  0  0  0  0  0  0  0  0
    4.0876    4.0840  -18.8589 C   0  0  0  0  0  0  0  0  0  0  0  0
    5.2978    3.6132  -22.3216 C   0  0  0  0  0  0  0  0  0  0  0  0
    2.8864   -3.1793  -17.8675 N   0  0  0  0  0  0  0  0  0  0  0  0
    4.1316    3.9010  -20.1959 N   0  0  0  0  0  0  0  0  0  0  0  0
    6.6608    3.3001  -22.8390 N   0  0  0  0  0  0  0  0  0  0  0  0
    2.8750    3.9372  -18.2050 N   0  0  0  0  0  0  0  0  0  0  0  0
    5.0184   -2.7873  -20.8107 O   0  0  0  0  0  0  0  0  0  0  0  0
    5.1779    4.8064  -25.4581 Cl  0  0  0  0  0  0  0  0  0  0  0  0
    8.1388    8.7881  -22.7371 H   0  0  0  0  0  0  0  0  0  0  0  0
    6.2706    9.4213  -24.2526 H   0  0  0  0  0  0  0  0  0  0  0  0
    7.3716    4.7906  -18.2487 H   0  0  0  0  0  0  0  0  0  0  0  0
    5.9157   -3.3361  -16.3615 H   0  0  0  0  0  0  0  0  0  0  0  0
    8.7060    6.3918  -22.3967 H   0  0  0  0  0  0  0  0  0  0  0  0
    5.8932    1.7073  -20.3185 H   0  0  0  0  0  0  0  0  0  0  0  0
    7.6070   -0.3860  -23.6685 H   0  0  0  0  0  0  0  0  0  0  0  0
    6.6747   -2.9956  -18.7205 H   0  0  0  0  0  0  0  0  0  0  0  0
    4.8644   -0.3991  -19.5161 H   0  0  0  0  0  0  0  0  0  0  0  0
    6.6050   -2.5027  -22.8553 H   0  0  0  0  0  0  0  0  0  0  0  0
    4.9724    7.6615  -25.4352 H   0  0  0  0  0  0  0  0  0  0  0  0
    9.3135    1.4838  -23.2362 H   0  0  0  0  0  0  0  0  0  0  0  0
    9.5698    4.1053  -24.0124 H   0  0  0  0  0  0  0  0  0  0  0  0
    7.4297    4.4533  -20.7240 H   0  0  0  0  0  0  0  0  0  0  0  0
    5.1940    4.5281  -17.0491 H   0  0  0  0  0  0  0  0  0  0  0  0
    3.4834   -3.4377  -15.8646 H   0  0  0  0  0  0  0  0  0  0  0  0
    2.5376   -2.9260  -19.9286 H   0  0  0  0  0  0  0  0  0  0  0  0
    4.6600    2.7262  -22.4495 H   0  0  0  0  0  0  0  0  0  0  0  0
    4.8836    4.4497  -22.9036 H   0  0  0  0  0  0  0  0  0  0  0  0
    2.1647    3.7012  -18.8681 H   0  0  0  0  0  0  0  0  0  0  0  0
    2.9499    3.2092  -17.5236 H   0  0  0  0  0  0  0  0  0  0  0  0
  1  2  1  0  0  0  0
  1  5  2  0  0  0  0
  2 11  2  0  0  0  0
  3 14  2  0  0  0  0
  3 15  1  0  0  0  0
  4  8  2  0  0  0  0
  4 16  1  0  0  0  0
  5 19  1  0  0  0  0
  6  9  2  0  0  0  0
  6 18  1  0  0  0  0
  7 10  1  0  0  0  0
  7 18  2  0  0  0  0
  8 21  1  0  0  0  0
  9 20  1  0  0  0  0
 10 20  2  0  0  0  0
 11 22  1  0  0  0  0
 12 13  1  0  0  0  0
 12 23  2  0  0  0  0
 13 24  2  0  0  0  0
 14 25  1  0  0  0  0
 15 26  2  0  0  0  0
 16 28  2  0  0  0  0
 17 21  2  0  0  0  0
 17 28  1  0  0  0  0
 18 23  1  0  0  0  0
 19 22  2  0  0  0  0
 19 24  1  0  0  0  0
 20 32  1  0  0  0  0
 21 32  1  0  0  0  0
 22 33  1  0  0  0  0
 23 30  1  0  0  0  0
 24 30  1  0  0  0  0
 25 27  1  0  0  0  0
 25 29  2  0  0  0  0
 26 29  1  0  0  0  0
 26 31  1  0  0  0  0
 27 30  1  0  0  0  0
  1 34  1  0  0  0  0
  2 35  1  0  0  0  0
  3 36  1  0  0  0  0
  4 37  1  0  0  0  0
  5 38  1  0  0  0  0
  6 39  1  0  0  0  0
  7 40  1  0  0  0  0
  8 41  1  0  0  0  0
  9 42  1  0  0  0  0
 10 43  1  0  0  0  0
 11 44  1  0  0  0  0
 12 45  1  0  0  0  0
 13 46  1  0  0  0  0
 14 47  1  0  0  0  0
 15 48  1  0  0  0  0
 16 49  1  0  0  0  0
 17 50  1  0  0  0  0
 27 51  1  0  0  0  0
 27 52  1  0  0  0  0
 31 53  1  0  0  0  0
 31 54  1  0  0  0  0
M  END
> <OMEGA_C>
7U7yQNlYAEGi9bnBcX/QQDMUBkE+1sDBehzPQCU0kUAMU5bBDTymQHYyT8ABR4nBMHP8QDJM1UA7
YrjBm5PAQKVETD/oGafBlbvfQPSsxL6EP7bBReyzQN0oQ8DK3JPB6VWuQK5wyr4QZqPBU73NQP+6
yr+XhrLBIOK4QIU97ECkLMbBCsoIQf+cD0BtWbnBpdoKQdo2aUDb6LzBnyPQQMn2ikALbaHB2+2n
QAG4jEBs9ZDBJvlzQBT2UsCeEYfB6BpSQGV4QMCJNZnBuSbYQHM5Uj/2vbDBQojkQBw2tUDTmL3B
e220QOuFzL97NanBKsmUQCKrO8CG8pvBoMjCQJm5wEDEm8TBWiLpQJDXBEBfOLXBC87uQFQ2iEAE
crvBxMapQF3Zf0C43qbBi82CQHiwgkDy3pbB94epQLg+Z0CukrLBPrs4QHR6S8C18I7BIzaEQLCq
eUAakaHBDiXVQIQ0U0A2trbBYAA4QN77e0Dco5HB6pagQFZiMsBGfKbBbbGlQGHOmUBBqsvBoTgC
QQucDEGc5bXBEKnIQMW9FkFWBcLBw+PrQEZMmUBJ/ZHBXk29QKuCVcBr5ILBqksLQWKJzECELLPB
35S8QC2H2j9HjKLB32zzQEKcxb4nWb3BZZfVQA24P8Cmw5XBM6mbQCNazL70IJzBT1zTQLEsIMC0
17bBkh2fQOUq9UBfe8vBCgQVQdHrvT+y47nB0x0ZQapeg0BvGcDB/7/tQJOBjkDWyqXBbjWmQHjm
kECYZIjBSPBeQPoDXMBo1X3BwWgiQAVDO8CxbZ/B3B6VQKl5LkCYmLPBhEacQMVjjkCZOrfBsYkK
QPTgbEDY8ZbBJMs8QOFjTUBBMIzBxlvxQJk9AEFelbrB/Z3OQK2MBUGfQcHBl6rPQL6TkUB8KJbB
eSmkQF02S8BwCInB0Sj8QMhQ1UAb5LjBxAffQJmhwr6PWrbBbwzBQFtwSz94BKfBKwqzQBwaQMBd
iJPBYVzNQEhpyr/HlrLBwRGvQJ/3zL7/RqPBrem2QEGV6kA/VsbB6rEIQWALD0B0b7nBg7sKQWV1
aEAMEL3BTqfQQHb7ikBvQKHBKHeoQARzjUC4xpDBOm9vQHMFUcAPK4fBGrlRQM+wQcDndpnBcAbY
QBQMUj92vrDBHQ7kQCWptECi0L3BpN60QDnxzL84JKnBdtaUQKZCO8CU3pvBT6DBQHJRv0Ahs8TB
ohjpQLejBEAiM7XBFq7uQNzuh0AxfrvBTTuqQPLdf0B+qabB8EyDQOBNg0BDqZbBlMCpQLhUZ0Df
XbLBUww2QEwTTMAwSI/BqK6EQL0uekDbV6HBnTXVQNsVU0D6nbbBVPM4QOfHfUBbbJHBFsChQE0a
M8CKVabBP7ukQCGVl0BZh8vBRtkBQeC9DEGFxLbB1iLGQBUfFkHbesLBsH3sQICrmUCY15HBMni6
QLBFT8ATdILBmnYLQf8uzUBj0bPBSgryQPL6wL64kb3BOFC9QHvr2T9mbqLBweHUQF9fO8CHLpXB
SZjSQN/VH8BP+bbB6NGcQHqU0L668JvB+XacQPLc8kC2f8vBVuIUQW6GvD8IAbrBje0YQcvcgkDL
XMDBMETuQFVDjkBHoaXBxsSmQIj9kUC/OIjB/JFYQHqcWcDUK37Bz4EjQBdDPsDy35/BMUGVQFCn
LkBSXLPBRmucQLF6jkDv/bbBX3QLQCh2bkDFtpbBXJg9QBWIT0CQ7IvB2Jj1QJo7AEFbK7rBk6fT
QBZIBkG38MDBF4DPQMNyj0BIGpbBef82QKxtSMCkWI/BOJL+QLzg1EAyfbjBtTi9QHXQRz80e6fB
KA7bQKyWvb4N9LbBF2tTQIGnPsC+65nBu36sQIjI277IqaPB74/KQO62yr9qIbPB59O6QOkX7UAP
GcbBWKAHQR9XDUCOZbnBfmwKQfz/ZkC8xrzBQjbQQGTEiUBnOaHBLT+oQFT3i0AJuZDBHcBzQH0B
UcBtD4fB/MOyQLcDRsAcPJPBXDXUQMQOUj+KNbHBVGblQDpItUAig73B3oOzQDGC0L8YeKnBzPCV
QDmFPcAQ4pvB5a7DQEJowUCadsTBfnPmQMBzBECyabXB93ruQBAfiECeULvBC3WpQB9KgEAhrabB
ccOCQFNdg0CMopbBT6KoQJNTakCdc7LBxYSkQLGRT8CQEYnBTuCDQNAHfEDVWaHBJ9HTQBQtVECk
srbBgso3QDM5f0CBYpHBlKqkQPl3N8C1NabB+5ylQIb4mkCAb8vBxlwEQfBTDEH0RLbB6KXMQB4F
F0EvLsLBmZLsQGZdlkBEw5HBF73mPx1hScCrkI3BumAMQfaay0A/WbPBS4G4QHEj2D979KLBkg/t
QJwas76GU77B5D4mQCslOMDcaKDBpU2aQLCY5b6UUZzBZZjPQB9xH8BFpLfBn/GgQHyA9kBDUcvB
kYITQVi2tj8987nBkfMYQSGbgUC32b/BguHtQNqPjECQmaXBDb6mQI7Uj0AtJYjBtc1dQLTmWMCi
2n3BVsfUQPTdRMBSwpTBK0KTQHcwM0B7oLPBkjqcQNbQkEBa7bbBAr8JQC4VckBasZbBjkM7QLXz
T0BgAozBfqD2QFcCAEFgG7rBlY7UQMwyBkFBzsDBiifPQGfXj0CfLJbB3x04QKK6SMDMA4/BSVf/
QKNd1EAcd7jBM+raQB/rv7534rbB/MW8QMBEST+gfqfBuMRSQPuEPsCkp5nB5R/KQFDHyr85ErPB
H9erQI9L177Yq6PBx1y7QDMn7UAU8MXBB34HQTthDEDKfbnBlmcKQaXfZUA547zBh9DPQAddikC/
TKHBB/inQMYYjEBix5DBjD12QDlkUcAU5IbBMvuyQFmzRcBPWZPBlPjTQMy4UT86MbHBRePlQDUF
tUCDfr3BPceyQB+pz79CdKnBFXGVQP4OPcDT15vBuRnEQKpowUAlY8TBAELmQHgcBECXb7XBrabu
QGXVh0ArV7vBKR6pQCukgECuvabBgXeCQDB7g0CkrZbBvIGoQFWcakCWgbLB6JWlQMCyT8AsHonB
AYmDQL1qfEBqZ6HBTsvTQLoBVEBztrbBOlQ3QNNof0DrZJHB/0ujQBmmNsDJPabBJ9qlQPo4m0DV
Z8vB2gUFQccFDEHdO7bBS7vNQED3FkGvAsLBzjrsQHXOlkAq15HBWJjpP3LyScC2D43Bg8MMQXva
ykBZWrPBNDrtQIsvuL4ENr7BxA64QJUq2T+n/6LBaoUkQJ/tN8DbBaDBZCfPQKaeH8CZjbfB0I2Z
QPIL375AV5zBVkqhQNLJ9kCAEsvBzkYTQcoXtD+fFLrBze0YQUjRgEBwB8DBdGvtQNp/jUAcsKXB
o4emQOzFj0AGMojBSqhhQBeQWcCtaX3BSdzUQMVORMDfC5XBNxKTQLGOM0CqrLPBFkKcQIPqkEBO
BrfB0iEJQPFWckAtr5bBm/E6QCkTUEBjB4zB/2O3QGld6kBodMbBBGPPQA7JBUFQxMHB13HPQBME
kUD4WpbBs42jQOmcTMBD3ojBlvrBQCZ4v0B0U8TBoLXeQJFRv75xXrbBuRXAQPIPTD/bF6fBp0Sz
QKniQcDVTJPBWKLNQL9Myr+pjrLBrdKuQEEV0L6cR6PBBMTxQHbwAEG547rBml0IQXM+D0AGd7nB
4psKQZvVaEBv+7zBuw7QQCAVi0DhdqHBDnSoQIt8jEAK65DBGuRtQO9HUcCfNIfBvQxTQE1KQcDj
j5nBdjvXQFa+Uz/9zbDBr3bkQLeYtUCEdL3BV1i1QD30zb/PFKnB2raVQPMkPMB7xJvBeGb8QMT4
1kDAsrjBpFvoQOwgBUBcRLXBRs3uQAehiECOO7vB7n6pQLRjgECN4KbBURuDQKO5gkB3xZbBXxSp
QBvaZ0CkmbLBH8M1QKltS8BLco/BzxuEQBVkekBzfaHB3bvUQDTcU0BgrbbBDvo4QJ0kfEDpc5HB
+HqjQJiaNMA0K6bBPhATQSfzy0BHwK/BR+ScQIPU8UB9rcvBJW3HQBlDFkEXcsPBA2XsQJzpmEC1
EZLBulm5QFk+UcA5MILB/K6vQIH/pUDd9MfBg6bxQOt7u75ymL3BEam7QJqN2j/lk6LB+kDVQDQf
PsDry5TByi3TQAe1H8D17rbBf5icQGIB1r6O8JvBGAMCQQy4DUFFSbfBr3UUQX48vD+vE7rBoNEY
QdPKgkA8VsDBl4/tQKSZjkCR4KXBjwenQLFtkECGV4jB279VQB23WcB0W37B+9ElQOEOPcDyEqDB
r7CUQAcHL0AWmrPBNdCbQFWfjkCRR7fBXgMLQJOabUDwtpbBFPQ9QPgwTUBRDYzBwGi2QNLG6UCv
QcbBMXPOQM2HBUHgncHB207PQDNIkUA1SpbBW/ijQHpoSsCU8YjBP57BQMfqvkBASMTBwcvAQHaW
Sz8BF6fBllHfQJhzwr7yW7bBGESzQI6MP8BlaZPBVyGvQEx4zr6fUaPBGebNQPWtyr/ukrLBkIfx
QP29AEFB9LrBcq0IQdf7DkDLdbnBXs4KQWRsaEAaCr3B1xrQQAQWi0BHZKHB9j2oQPjajEDw4JDB
RvFuQBzTUMAXMofBWLlSQMJ5QsDDipnB0/bXQL9aUj8hyrDBlpvkQMsstUAKj73BCmG1QPuQzb+i
IanBbWuVQFiVO8DE1ZvBiqL8QIWe1kDa3rjB9gjpQNi/BEBCPbXBpR7vQN5NiEAaS7vBvKepQI82
gEDa0qbBWvuCQHDvgkBuv5bBpnypQFAPZ0Avi7LBhzw2QAybTMDdY4/BLCqEQPA+ekA7dqHBYz7V
QO5UU0BGpLbBfZs4QCK1fEDUcZHBCcWiQArTM8DnRabBQWATQf6wy0DBB7DBsmebQOgm8UDPUsvB
yvvFQIH+FUH/KsPBKDDsQGlNmUAY/ZHB5AC6QNTQTcAHTYLBKGyvQE1ipUC56sfBJqu8QJ082j+F
jKLB0WjyQIElwL6tj73BuyjVQDpaOsCP+JTBQsicQK6j0r5P/5vBcVnTQHL6H8DD8LbBHvsBQTyN
DUEAb7fBM9IUQdARvD9IDLrB/vcYQVeigkBobsDB9avtQLyKjkDux6XBeLOmQEH/kEBBT4jBtnBX
QP9LWcCPR37B7AklQG+dP8AOBKDBoUKVQL75LUBHhbPBFRacQFYTjkCvQLfB0scKQKjLbUB0tZbB
z449QMAPTkCVAIzBiBa6QCGY6kBs7MXBZ2nSQACxBUGGKcHBKMPOQH2gj0BIC5bBqEI7QFPcScAW
ZI7B0mrEQMCKv0Bn8MPBCW69QCXARz+Rb6fBs0DcQNH8yr5XqLbBsOdRQLnlPsCyKpnBDnerQIkE
1b77tKPBR4fKQEORzL+L6bLBzdb0QO+MAEHkWbrBtjcIQRPgC0BWTbnBfSMLQVC8ZUAcl7zBcw/Q
QGLuiUBZKaHBOUGnQHUHjEAuy5DBQFh8QF7pUsAXpYbBOaOzQDYERsA8upPB3zvVQKLTTT9VC7HB
gMTmQMoQtUDiFL3Big+yQPRxz7+KdanB+46UQMbfPMAA3pvBvAz/QFoD1kC1QLjBj6/nQL07A0C8
R7XBsULwQCXnh0C947rB2ZypQAKDgEAVxKbB6hqCQExpg0Ba1ZbBcpypQLHhaEBjhLLB0CuoQOrd
UMDuXInBM8ODQDdjfEAfjqHBjDnVQEA6U0CbhbbBDQE2QNnlfkC9s5HBg3ygQJA6NcAnaqbBpzQU
QY0/ykD7Qq/BHYufQPKA8kBBF8vB96vKQK48FkGIu8LBGZbrQCWklkCHnJHBL3zxPz5bS8DPDIzB
dwSyQJtipkATrMfBsQu5QISC2D/i7aLBSlLvQHkeyb4D3b3BmE4hQBEpOMCuQJ/BS6CYQJBT176s
dpzBebTPQG3UIMCgUbfBDrsDQbYsDUEourbBDgMUQfA7sz998LnBlaAZQTrEgECHxL/B4vvtQBas
jED4baXBIkylQNTQj0A6OIjBo9hqQOarW8B8t3zBhCrVQG5RRMDUz5XBf6qUQOsEMUD2o7PBXSSd
QGaTj0ADLbfB5oQIQPq1cUBPFZfBziQ5QOOCT0DZVozBb7e6QNzw6kCG6MXB4WvTQCGuBUGQG8HB
HYTOQGzrj0AgFpbBivA7QNMMScDWTI7BRYrEQHm2v0Ca+sPB3YfcQFioyr4eg7bBG229QOBfRz8V
T6fB3sJRQG2fPsBuHJnBiavKQGN6zL8s1LLBv2OrQJhI1r71oKPBV671QMBGAEFCTLrB1DUIQduO
C0CcLbnBjwULQTH0ZEBUpbzBmMTPQC8EikBJMqHBZQynQDRcjEDw0ZDBTp99QGkqUsA7oobB68Wz
QNouRsA/2ZPBnV/VQDiTTT8p5LDBhtDmQDu9tECLJb3BXvexQEd6z7+3a6nBUGSUQHYdPcCT6ZvB
v2b/QL5Q1UAAQ7jBa67nQJoRA0DTJrXBwf/vQFmCh0Cl+7rB+VKpQP51gED9yKbB5OSBQG6Dg0D4
1ZbB32KpQFqOaEDsiLLB8LOoQIeXUMCodInBNH6DQA5HfEDTjqHBbArVQFnEUkBGhLbBOcE1QFTg
fkBNq5HBLAGgQD8PNcC/d6bB7EoUQQHfyED8Ra/BX0OgQClD80B8EMvBhhjMQLhIFkH0pcLB71nr
QBYQl0DYq5HBXTnzP7oWSsBj34vB1dKxQMvWpkBqu8fBQtPvQJHvx74hrr3BKP64QLwu2D+TyqLB
NbogQDHoN8B2JJ/BAOvPQA+2IMDUPrfBs4GYQJ0f2r6HZJzBNUYEQVPBDEGuoLbBQhEUQeXosj+I
tLnBPHUZQRlDgECc6b/B/6ztQBi0jEA4eaXBGB+lQGRZkEBYQIjB6sBsQHKYWsCapHzBMzjVQKLI
RMBlBJbBWm6UQPuyMECWprPBxfacQNFgj0DINrfB6zIIQApKcUB6BpfB6EQ5QMWtT0CuSIzB

> <OMEGA_E>
cOnmPeAo6D3glO09wFrxPdCNCz5QAgw+8MAWPhD3GT4=

> <OMEGA_NBR>
     54987

$$$$
50161592
  -OEChem-04172616093D

 54 58  0     0  0  0  0  0  0999 V2000
    7.6382    8.0314  -23.2075 C   0  0  0  0  0  0  0  0  0  0  0  0
    6.5866    8.4230  -24.0589 C   0  0  0  0  0  0  0  0  0  0  0  0
    6.4880    4.5032  -18.8164 C   0  0  0  0  0  0  0  0  0  0  0  0
    7.9337    6.6672  -23.0378 C   0  0  0  0  0  0  0  0  0  0  0  0
    6.0239    0.8369  -20.9078 C   0  0  0  0  0  0  0  0  0  0  0  0
    6.8551   -0.3450  -22.8712 C   0  0  0  0  0  0  0  0  0  0  0  0
    5.4737   -0.3526  -20.4155 C   0  0  0  0  0  0  0  0  0  0  0  0
    6.2962   -1.5369  -22.3855 C   0  0  0  0  0  0  0  0  0  0  0  0
    5.8329    7.4510  -24.7461 C   0  0  0  0  0  0  0  0  0  0  0  0
    8.5052    2.2393  -23.2328 C   0  0  0  0  0  0  0  0  0  0  0  0
    8.6629    3.6407  -23.6614 C   0  0  0  0  0  0  0  0  0  0  0  0
    6.5050    4.3470  -20.2091 C   0  0  0  0  0  0  0  0  0  0  0  0
    5.2699    4.3509  -18.1373 C   0  0  0  0  0  0  0  0  0  0  0  0
    5.5396   -3.0511  -18.3953 C   0  0  0  0  0  0  0  0  0  0  0  0
    3.2347   -3.0715  -19.1330 C   0  0  0  0  0  0  0  0  0  0  0  0
    3.7894   -3.3742  -16.8819 C   0  0  0  0  0  0  0  0  0  0  0  0
    6.6905    0.8544  -22.1530 C   0  0  0  0  0  0  0  0  0  0  0  0
    7.1696    5.6909  -23.7090 C   0  0  0  0  0  0  0  0  0  0  0  0
    5.5993   -1.5454  -21.1636 C   0  0  0  0  0  0  0  0  0  0  0  0
    4.5994   -2.9461  -19.4375 C   0  0  0  0  0  0  0  0  0  0  0  0
    6.1213    6.0833  -24.5780 C   0  0  0  0  0  0  0  0  0  0  0  0
    7.2404    2.0951  -22.7129 C   0  0  0  0  0  0  0  0  0  0  0  0
    7.4616    4.2768  -23.4636 C   0  0  0  0  0  0  0  0  0  0  0  0
    5.2998    4.0181  -20.8861 C   0  0  0  0  0  0  0  0  0  0  0  0
    4.1007    4.0619  -18.8721 C   0  0  0  0  0  0  0  0  0  0  0  0
    5.2829    3.6638  -22.3570 C   0  0  0  0  0  0  0  0  0  0  0  0
    5.1200   -3.2768  -17.1327 N   0  0  0  0  0  0  0  0  0  0  0  0
    2.8480   -3.2716  -17.8553 N   0  0  0  0  0  0  0  0  0  0  0  0
    4.1314    3.9085  -20.2139 N   0  0  0  0  0  0  0  0  0  0  0  0
    6.6402    3.3318  -22.8821 N   0  0  0  0  0  0  0  0  0  0  0  0
    2.8935    3.9116  -18.2086 N   0  0  0  0  0  0  0  0  0  0  0  0
    5.0104   -2.7328  -20.7442 N   0  0  0  0  0  0  0  0  0  0  0  0
    5.1940    4.8971  -25.4822 Cl  0  0  0  0  0  0  0  0  0  0  0  0
    8.2174    8.7787  -22.6854 H   0  0  0  0  0  0  0  0  0  0  0  0
    6.3575    9.4708  -24.1852 H   0  0  0  0  0  0  0  0  0  0  0  0
    7.3942    4.7361  -18.2770 H   0  0  0  0  0  0  0  0  0  0  0  0
    8.7464    6.3671  -22.3929 H   0  0  0  0  0  0  0  0  0  0  0  0
    5.9381    1.7466  -20.3321 H   0  0  0  0  0  0  0  0  0  0  0  0
    7.4118   -0.3478  -23.7967 H   0  0  0  0  0  0  0  0  0  0  0  0
    4.9554   -0.3590  -19.4680 H   0  0  0  0  0  0  0  0  0  0  0  0
    6.4014   -2.4507  -22.9516 H   0  0  0  0  0  0  0  0  0  0  0  0
    5.0319    7.7559  -25.4033 H   0  0  0  0  0  0  0  0  0  0  0  0
    9.2514    1.4627  -23.3129 H   0  0  0  0  0  0  0  0  0  0  0  0
    9.5619    4.0873  -24.0596 H   0  0  0  0  0  0  0  0  0  0  0  0
    7.4241    4.4751  -20.7617 H   0  0  0  0  0  0  0  0  0  0  0  0
    5.2276    4.4538  -17.0630 H   0  0  0  0  0  0  0  0  0  0  0  0
    6.5943   -2.9514  -18.6055 H   0  0  0  0  0  0  0  0  0  0  0  0
    2.4964   -3.0080  -19.9186 H   0  0  0  0  0  0  0  0  0  0  0  0
    3.4657   -3.5403  -15.8651 H   0  0  0  0  0  0  0  0  0  0  0  0
    4.6261    2.7935  -22.5025 H   0  0  0  0  0  0  0  0  0  0  0  0
    4.8865    4.5207  -22.9215 H   0  0  0  0  0  0  0  0  0  0  0  0
    2.1740    3.6968  -18.8691 H   0  0  0  0  0  0  0  0  0  0  0  0
    2.9687    3.1680  -17.5442 H   0  0  0  0  0  0  0  0  0  0  0  0
    4.8777   -3.4640  -21.4134 H   0  0  0  0  0  0  0  0  0  0  0  0
  1  2  1  0  0  0  0
  1  4  2  0  0  0  0
  2  9  2  0  0  0  0
  3 12  2  0  0  0  0
  3 13  1  0  0  0  0
  4 18  1  0  0  0  0
  5  7  2  0  0  0  0
  5 17  1  0  0  0  0
  6  8  1  0  0  0  0
  6 17  2  0  0  0  0
  7 19  1  0  0  0  0
  8 19  2  0  0  0  0
  9 21  1  0  0  0  0
 10 11  1  0  0  0  0
 10 22  2  0  0  0  0
 11 23  2  0  0  0  0
 12 24  1  0  0  0  0
 13 25  2  0  0  0  0
 14 20  1  0  0  0  0
 14 27  2  0  0  0  0
 15 20  2  0  0  0  0
 15 28  1  0  0  0  0
 16 27  1  0  0  0  0
 16 28  2  0  0  0  0
 17 22  1  0  0  0  0
 18 21  2  0  0  0  0
 18 23  1  0  0  0  0
 19 32  1  0  0  0  0
 20 32  1  0  0  0  0
 21 33  1  0  0  0  0
 22 30  1  0  0  0  0
 23 30  1  0  0  0  0
 24 26  1  0  0  0  0
 24 29  2  0  0  0  0
 25 29  1  0  0  0  0
 25 31  1  0  0  0  0
 26 30  1  0  0  0  0
  1 34  1  0  0  0  0
  2 35  1  0  0  0  0
  3 36  1  0  0  0  0
  4 37  1  0  0  0  0
  5 38  1  0  0  0  0
  6 39  1  0  0  0  0
  7 40  1  0  0  0  0
  8 41  1  0  0  0  0
  9 42  1  0  0  0  0
 10 43  1  0  0  0  0
 11 44  1  0  0  0  0
 12 45  1  0  0  0  0
 13 46  1  0  0  0  0
 14 47  1  0  0  0  0
 15 48  1  0  0  0  0
 16 49  1  0  0  0  0
 26 50  1  0  0  0  0
 26 51  1  0  0  0  0
 31 52  1  0  0  0  0
 31 53  1  0  0  0  0
 32 54  1  0  0  0  0
M  END
> <OMEGA_C>
X2z0QMCAAEEJqbnBVMXSQI7EBkGjeMDBiJ3PQDYakEAQiJbB1+D9QIdZ1UBlTbjBkcPAQCNBVj9F
Q6fBlFzbQBSmsL5O+LbBXyivQBqOtL78UqPBP3rJQBS6xL+JFbPBzKa6QLxu7kD898XBJBUIQUxR
D0C03LnBO5sKQXIAaUB+Sr3BKSnQQHEai0BBrKHBrqKoQJI6i0ApGZHBtkSxQN9FQ8CDKZPBNwVP
QAWTRMBaEJnBs4VyQBjyV8A2DofBVBjWQIK3Wj9iObHBE23lQK8btkAZrL3BzC2zQMPOxb8cT6nB
Gi6TQHGNPMAVgJvB8+HDQE+qwkDNn8TBGbHnQJ0VBkAVtLXBbsXuQGPbiEB+tbvBkZepQD2UgEC/
FqfB0TiDQAD7gUD5+ZbBig2pQLp7akAy27LBr9ajQGe2UcCsD4nB6kU2QC1hUcCR147BGTSEQG0l
ekAotqHBVHzUQO87VUCIDrfBXy45QABYekAxq5HBTVWgQHvmLsAl9KXB4jSmQBK1nECl28vBRnoD
QXZ1DEGqe7XBZXDLQHeIF0FYe8HBC53sQB2Ol0BTN5LBOPELQWi/y0CmJLPB1QS+QCaS3z8wqKLB
cy3tQP4Ysr6XX77BcJKeQFHIt76KvpvB79fMQMnXHMDOnLfBcgWhQB0w+ED8OcvBwgUUQQs7uz+/
gLrBvf0YQXnLgkANesDBEJLtQGE0j0DgF6bBeUinQOCFjkAYgYjBQgTTQLLjPMAX2JTBw8QfQCOD
QMBlWZ/BdM5dQHCUYsBV133B9QiUQHfIMkALBbTBUF6cQJmpkEAtX7fBSiMLQLmYbEDw85bBmf49
QMbASkCNWozB+hWcQO6xXcCWTqvBCFv1QAeYAEEf/LnB4TDTQHTSBkGPpMDBPJDPQFJ0j0AKU5bB
L5/+QKKH1UDci7jB7fDaQJUjr74O/rbB9rHAQOiEVj/4PafBeQ3JQDtTxL88GbPB9BKvQHXVs74+
TKPBXXC6QNl27kBw7sXBWgEIQSItD0B+6bnBiZQKQT/gaEC/Vb3B7lDQQL3SikADe6HB0G+oQFOY
ikCm8pDBawqxQAkRRMDRNJPBnF1OQAtURMDjBpnBsWFyQE21WMBADYfBi+TVQEhKWz/pOLHBNozl
QPQ0tkDFs73BieeyQDl9xb8FTanBXdSSQOuUPMCggZvBfpfDQHSzwkCLisTBeqHnQHo6BkBkr7XB
IdruQOz1iEBjrrvB3MypQFuYgEAM9KbBkRmDQLe7gUA95ZbBQUqpQOIWa0AUu7LBeb+jQGrgUsD2
GYnBLuc1QFl9UcD5zI7BCU6EQPA5ekCeoaHBcZ3UQOijVUBi+LbBB4A4QGBaekCarJHBzNafQFyZ
LsCG96XBu3ylQAWvnECNpcvBBDcEQX+UDEFX/LXBOfTLQFOWF0ElssHBjYLsQN2dlkD59JHBoHsM
QU79y0D1fLPBlJfsQHxosL6na77BIxC+QKCd3z+gn6LBC03MQImbHMCno7fBlJ+eQCY5t74as5vB
r2GgQFgn+EBsEMvBG+ITQR2Puj9FmrrB+fMYQTmfgkCOkMDBq9DtQPP6jkA+3KXBYeymQF6bjUBb
WYjB18bSQAH5PcCI65TBjOoeQEHFP8CZSJ/BpORdQMSMY8D/0n3BZCWUQBajM0CN77PBQrmcQDQi
kUDnM7fBB6kKQA5kbUBGBJfBc3k8QERpSkDYZYzBElCbQEEXXcDaWKvBqmb0QNiWAEF2CLrBBUzS
QGWFBkHdx8DB8ZXPQHnrj0C7PpbByhj+QIip1UBYe7jBLuLAQA54Uz9YQ6fB5ODaQA4StL6KDbfB
us2vQOzZu751QKPBZ3bJQE4Txr+aGLPBGw+6QJJt7UBiDsbBhPwHQWSWDkAe7bnBP6AKQSNwaEA+
Rr3Bc2LQQMDdikBkY6HBfnKoQCE3i0DT3ZDBf+tPQL9PR8D1IJnBZTCxQLU0QsAf3ZLBfftwQNa9
WcBeCYfBGNnVQIyuWD+1RLHBdYTlQNjutUCUob3BfuGzQHjFx78fN6nBWLKTQNkiPcCpWpvBz63D
QNXUwUBgkMTBJZrnQKSoBUDisLXBwwzvQDTRiEA6irvBr+CpQOCNgED/2abBOCGDQMkmgkA0zZbB
GWSpQNnHakCyn7LBLNs1QHGzVMC9+I7BqSCjQDxCUcD304jBQlqEQEqLekADiKHBC73UQBxMVUCU
3rbBeaI4QNgJe0A4kZHBKnOhQKEUMMAkx6XBGEamQJMvm0C3pMvBuowDQfK+DEE4DbbBJLfKQEY6
F0F46cHB0oHsQN5Il0Bl45HBTS4MQdePzEAIWbPB+AG+QJVP3j/orKLB/iTsQPmGs76Qib7Bl5Cf
QDn3v74PoJvBw6LMQMFwHcALprfB4wugQOWo9kBkQcvBWtITQSknuT81q7rBSf8YQYNjgkCAgsDB
F+ztQDLEjkA7xKXB7OimQLJ/jkAwRojB1JUhQJluRMCnh5/Bx/jSQNkSOsA8YJTB9j9bQDz6ZMBu
6X3BXkSUQB5GM0C9z7PBZMycQLrtkEBUHLfBzdYKQMiQbUBa5ZbBjuM8QDNiS0D4QIzBoPOdQDmg
X8CvD6vBVhz0QIvvAEE8H7rBRr/RQB/7BkFowsDBLgjQQPNUkECVnJbBjMP9QGRM1kCVqLjBluHb
QNxhq745+rbBvD3BQFggWT98SafBC53KQCD+w789/LLB9D2wQN/nsL4GP6PBj0W5QHiD7kARB8bB
8iwIQZXiEECd6bnBkJQKQS6iakABXL3BXl7QQKWCi0DTwaHBhS2pQO4/i0CkIpHBQ3pQQJAUR8Ap
PpnBHCCxQOuUQcDuvpLBiLtvQGeXWcBfGYfBSW7WQC4AXj9aRbHB+PjkQFGztkCFzb3Bg620QFhv
xb9rJqnB+BGUQHNePMA9VJvBdPDCQCnbwkA3psTBztvnQNkiB0DCxrXBOZ7uQDp/iUBJyLvBA72p
QJPfgED5IafBWquDQI8AgkC6+ZbB9w2pQIn3akCq5LLBemo1QOKzVMDiII/Ba5SiQOz6UMA1wojB
MnWEQBVsekAgt6HB3nvUQIgpVkAXIbfBZUo6QFowekDEn5HBA1yiQCIcL8B/tqXB74ilQE6FnEAy
08vBJ4UDQX0GDUFrKLbBJSbKQM+0F0HDz8HBrxftQNXOl0A9U5LBDhcMQRQJzUB2l7PBkFvtQFpA
rL5qbr7BWSC+QAdo4T9evKLBfy3OQNyXHMD6erfBOc6fQPius75gpZvB/gefQAbq90C0IsvBNzMU
QaD6vj8oh7rBQu0YQdu8g0B3jcDB26ntQLbUj0BHNqbB7P2nQHdijkA6iYjBB8siQMVsRMDTt5/B
b/nSQBdIOcCuJZTBUDRZQALOZMCoGn7B5iuUQK0GM0AXB7TB5SWcQCTQkEBtZ7fB5A4MQKOAbECG
4pbBtFw/QMF9SkDtU4zB5lafQNfXXsD7/KrBaVC4QDhB7EDr0MXBxq3QQGBoBkF7+MDBkMbPQJG2
j0BHb5bBVQ/DQBUfwUC3GMTBA0bBQEiYUz/wVafB55raQKq2sr7tNLfB0xawQEYuu77qU6PBYxDJ
QH2Ixb+4QbPBObjzQFcdAUGxY7rBaBkIQVCGDkCSA7rBj80KQRWCaEDWSb3B9mvQQBimikDMkqHB
WqyoQCVPi0C6CZHBuvVPQLW5RcB3JpnB33qxQFeBQ8AYD5PBWw5yQHxTWcBxG4fBmfXVQLLXWD9O
YbHB1evlQLpWtkAAb73BxMCzQBJWx78KV6nBK7eTQLcIPcBceZvBx2z+QAwP10CLk7jB383nQAee
BUBezbXB65vvQDkbiUCpabvBi8+pQOSxgEAMDKfBBz+DQDeGgkA39JbBp2ipQM4FakDu0rLBG242
QNT3UsD/947BdqqjQCJlUsB//4jB506EQGFTe0AUsqHB7/jUQDVFVUDN+LbBFwM5QK8vfECwrJHB
OjGhQIbIL8BD6qXB91IUQZDiykD93q/B72qdQKJm9EBJ2MrBGH/IQAX8FkHkTMLBEMvsQFXclkBk
GJLBpJewQAQlqEBG4sfBxbG+QNAv3j/zt6LBgqzrQJIOsr4tuL7BTRegQALFv75qq5vBtO7LQFAQ
HcDH17fBlDcDQZynDUH2uLbBXOcTQavauD+HybrB3yYZQUJTgkA5k8DBu/rtQFlGjkA+9aXBRDun
QLGbjkDscYjBOjQhQAnTQcCufp/B4EXTQGKTPMABppTBlLxcQO9dZMCjAn7BYaCUQO7rMUBO87PB
ZIqcQGc0kECFZLfBDvIKQH/6bkAe+pbBDTU9QOR9TECsXYzBbmSdQHYWX8AbOKvB/L25QAgk7UAD
KcbBByPSQB+sBkF0K8HB047PQG9TkEBZjJbBnaPDQMjTwUBaYMTBAKTAQNVlWT+WPKfBo/jbQHY8
rL5K2bbBhjOvQCChr77VSaPBujvKQCfOw78B9rLBD0P0QBUfAUHoWLrB4wwIQZ1oD0Co+LnB9JgK
QaDYaEDQeL3BYvHPQKTPi0A1s6HB6reoQOj0ikDLF5HBAz2xQDRoQ8ATFpPBeExPQK73Q8DIHpnB
RrNxQBsTWMBqF4fBWU7WQPN4XT/DJ7HBXtjlQBeVtkDOjb3BdaWzQBPdxL8sO6nBTWiTQGw5PMD4
eJvBWjn+QBjt1kBqgrjBwtbnQC67BkAQq7XBbz7vQGZMiUDrkbvBP2apQEtSgUB6IqfBVEWDQF7L
gUCk9pbBGyKpQBcpa0Cc6bLByX6jQLETUsCTBInB+uo1QA/+UMBQ7Y7BOxeEQFnMekB3uaHB5sPU
QKIOVkDo/rbBto85QIUteUDxnJHBSO6gQCCZLsCb5KXBg9UTQQ4PykB7oa/BPXifQCOy9UChWcvB
+KvKQARPF0E4k8LByJPsQJ/Jl0AlPpLBOQqxQBUeqUB5O8jB/oG9QDts4T+crKLBt//tQCHKrb5b
OL7BC22eQBTusr4UvJvBGO/NQD56HMAgdLfBu2oDQWOEDUEXhLbBmOgTQSXguj+wqbrBTNYYQU9T
gkAd68DBP0jtQNBDkEDcIKbB4XynQE7OjUDkfIjBVwvTQK0xPcBYtJTB4W0gQG2EP8Axcp/BF3xc
QC7xYsCH9n3BJ0WUQCszM0ACDrTBrHOcQOfLkEBdgbfBelILQD2+a0AO4pbBxs4+QKkdSUAHX4zB
Yg+dQKSRXcBzPavBkLK6QEHT7UA38MXBniDTQPPYBkFQ08DBAIHPQP1aj0DFgZbBGz3EQI5iwkCa
OcTB0t3aQNkGsL6CDbfBH3rAQAzkVz8GWqfBPx3JQAh0xL+DHLPB/gGvQLr2sL4nW6PB6Pf0QMoQ
AUFJ9rnBp+QHQeG3DkAlH7rB9pgKQTWAaEAdeL3B0BDQQIu/ikAcqKHBFnioQECbikBWGpHBKHGx
QAsyRMBBJ5PBXSZPQHprQ8Db95jBoRRzQJuGWMAYAYfBW7jVQKKTWz9hVLHBwDHmQAmutkCjX73B
AwezQGw3xb90TqnBHj6TQPhCPMD8cpvBuqP+QFiv1kBUN7jBp4DnQDcoBkBK07XBDFzvQPxBiUDp
g7vBJHSpQIvrgEDtJKfBMQiDQL/kgUAIBZfBHiKpQCcAa0Bg8bLB8hykQD0LU8BEDYnB1aA2QEOq
UMArv47BpwGEQJn1ekAcx6HB8rDUQG7RVUAhDLfB6MA4QElDekBLuJHB6EagQDGWLsBt6aXB4vcT
QZI3yUAUWq/BjaugQMa79kAKK8vBhujLQBWIF0EDK8LBQonsQBZrlkA8KpLBgY6xQKzuqUBXKMjB
kH7sQBuzsr71e77BsrG9QCOu4D+zxqLBuGvMQMjOHMA4n7fBHYmeQITSsr65wpvBncUDQetUDUFn
B7bBsqgTQUf4uD+a57rBEeUYQZcogkCd2sDBf5XtQJahjkBIC6bBIxWnQIiWjUCIgIjBLjHTQJdq
PsDn3ZTByrYfQOlXPsBiOJ/B/oteQEecY8A3vn3B8CqUQBtBM0B1IbTB/IqcQBDjkEDdfLfBspUK
QLlZbUATBZfBVzs9QIcmSkBheYzBfwCcQBF0XcD+QKvBAQS6QC4U7UACBcbBXUjSQCi0BkF2C8HB
JfrPQOBVj0AYa5bBNxrEQH7VwUAeOMTBNfLZQBatrb4HObfBXNnAQMhKWD/yX6fBCBrIQPagw78v
QbPBmlKvQCjZrr7yWqPBX4b0QL49AUH6PLrBQe8HQV6uDkDZI7rB/MAKQSqwaEAJY73BRYvQQKPS
ikChkqHBVeioQDOtikAGBZHB6SNPQFZKTMArHZnB1pqwQBxCPMCqAJPBfGJyQIgZWsDqBIfBI4bV
QNIOXD/0a7HBRlHmQGi9tkCEYr3BRbayQJt/xL9kWKnB7sCSQN74O8AdcpvBWKb+QE4110DVX7jB
sIrnQHo2BkB03rXBq7nvQCluiUBla7vBU+epQLEYgUCeD6fBMXKDQMIsgkD38pbBbHapQGhya0Bc
27LBDqE2QPQuWsC1547BIGWjQBg8TMCh6ojBxnGEQBKTe0AUtKHBr/PUQEwkVkBS/7bBKmY5QN5e
e0BirZHBwZyfQOrkLcAt7qXBtSEUQXuTykCrh6/BiLKfQEB99UCyNcvBLqPKQPZRF0HKcsLBwQbt
QP5BlkDDEZLBpKCxQLUHqUAiE8jB+RHrQBcssL49ur7BWIu+QLip4D/bwqLB+MvKQPQ8HMB50rfB
E0WfQHVUsL4ztJvBPogDQRewDUFCcLbBmqQTQS2QuD9P+LrBFhoZQXRBgkByt8DB6BDuQPCyjkB/
9aXBJYSnQOaQjUC6aojBu2UgQLm5TcDoeZ/BUP3RQPK4L8BQmJTBdeRdQLOMZcASyX3BF3CUQLbH
M0CaCbTB7d6cQPwlkUAWY7fBHkALQLDZbkCg/pbBrmU9QDUvS0Chb4zBfemaQFpwXMBHS6vB8ZW1
QI7X7UDuAMXBrOPNQPc/B0FELcDBvUCGQOFBf0BizZXB1fDBQAbgwkDexcPBF9TfQHYKvr6B+bbB
Kem+QMJQZj8zqqjBICPNQJK+xb8Xv7LBaDSrQFmcd771sKTB4JXyQIMTAkEIJbrBNYYIQbksEUAb
jLvBeu4KQTfka0Bsqr7BiHuFQL1bfUA8CKHB3/ytQPfOgUBgk5DBWSlfQD1EcMDKMJnBoBelQJ6j
EMClBJLBlcxqQDKnWMAzxYbBIRHYQI23Xz8+CLLBqkDmQFhAuEDGlL3BcdiyQAoOvr+SiqnBcnSR
QOLUNsBtCpvBnvH+QNIV2UDQ07jBBtvpQLzUB0CHnLbBCtTwQGP2ikDj27vBUGusQL5ygED1xqbB
JNvTQIWcg0Crt5bB0HurQDzcbEA3sLLBGMRDQCcEgMCvH4/BJKyWQL3cIcAgDYjBIJfSQOp6g0CZ
jqHBbRTXQGl9WEBKLbfB40D7QDrkhEBrk5HB3tOfQDC7KcDTlKXBwe0VQXoWzUB4+bDBOIaZQADJ
9UC1o8nBqWjEQNLDF0GgGMHB3rFRQKFmfUDLRJHBRJevQAnbqUAPlMfBcAL0QE/N2r5g+b3Bzdq6
QKrR6j+GdaTB5/jSQKu6H8ANk7bBCwuWQMowMb7t4Z3B4KYCQXupDkGuhLbB5xYUQf3uvT/A5bzB
rb8YQYMShECBd8LBv8VOQFc6eUBtP6XBFI2vQCMagkDh8YfBZNBAQN//h8AF3Z/BVL6/QGIAy7+4
GpPBFvNTQBJ1ZcCjjH3BNnCWQJhnNUCh/rPBSI6eQI1bkkDJ9bbBYFUJQZeUhUDBBpfB2ef8QGsf
n0AwA43BpR6cQCg8WsC0t6rB

> <OMEGA_E>
GMc6PnBKOz4QMzw+cMw9PmBcVD4gnFU+gJ9WPgDXXT6+Ezw/

> <OMEGA_NBR>
     63369

$$$$
50161601
  -OEChem-04172616093D

 55 59  0     0  0  0  0  0  0999 V2000
    3.7448   -3.2464  -16.8546 C   0  0  0  0  0  0  0  0  0  0  0  0
    7.6110    8.0133  -23.2615 C   0  0  0  0  0  0  0  0  0  0  0  0
    2.8268   -3.1185  -17.9168 C   0  0  0  0  0  0  0  0  0  0  0  0
    5.1311   -3.2118  -17.1092 C   0  0  0  0  0  0  0  0  0  0  0  0
    6.5395    8.3812  -24.0985 C   0  0  0  0  0  0  0  0  0  0  0  0
    6.4839    4.5179  -18.7850 C   0  0  0  0  0  0  0  0  0  0  0  0
    7.9168    6.6544  -23.0679 C   0  0  0  0  0  0  0  0  0  0  0  0
    6.0140    0.7890  -20.8983 C   0  0  0  0  0  0  0  0  0  0  0  0
    6.9047   -0.3673  -22.8494 C   0  0  0  0  0  0  0  0  0  0  0  0
    3.2936   -2.9666  -19.2356 C   0  0  0  0  0  0  0  0  0  0  0  0
    5.6003   -3.0539  -18.4275 C   0  0  0  0  0  0  0  0  0  0  0  0
    5.4689   -0.4123  -20.4261 C   0  0  0  0  0  0  0  0  0  0  0  0
    6.3701   -1.5735  -22.3746 C   0  0  0  0  0  0  0  0  0  0  0  0
    5.7767    7.3909  -24.7480 C   0  0  0  0  0  0  0  0  0  0  0  0
    8.5238    2.2302  -23.1835 C   0  0  0  0  0  0  0  0  0  0  0  0
    8.6652    3.6295  -23.6240 C   0  0  0  0  0  0  0  0  0  0  0  0
    6.5113    4.3195  -20.1723 C   0  0  0  0  0  0  0  0  0  0  0  0
    5.2579    4.4011  -18.1128 C   0  0  0  0  0  0  0  0  0  0  0  0
    6.7106    0.8236  -22.1265 C   0  0  0  0  0  0  0  0  0  0  0  0
    7.1453    5.6595  -23.7028 C   0  0  0  0  0  0  0  0  0  0  0  0
    4.6786   -2.9342  -19.4912 C   0  0  0  0  0  0  0  0  0  0  0  0
    5.6473   -1.6089  -21.1682 C   0  0  0  0  0  0  0  0  0  0  0  0
    6.0780    6.0286  -24.5597 C   0  0  0  0  0  0  0  0  0  0  0  0
    7.2575    2.0730  -22.6704 C   0  0  0  0  0  0  0  0  0  0  0  0
    7.4549    4.2521  -23.4364 C   0  0  0  0  0  0  0  0  0  0  0  0
    5.3063    3.9920  -20.8505 C   0  0  0  0  0  0  0  0  0  0  0  0
    4.0921    4.1022  -18.8491 C   0  0  0  0  0  0  0  0  0  0  0  0
    5.2881    3.6212  -22.3167 C   0  0  0  0  0  0  0  0  0  0  0  0
    4.1319    3.9142  -20.1857 N   0  0  0  0  0  0  0  0  0  0  0  0
    6.6453    3.3020  -22.8459 N   0  0  0  0  0  0  0  0  0  0  0  0
    2.8793    3.9707  -18.1921 N   0  0  0  0  0  0  0  0  0  0  0  0
    5.1202   -2.8294  -20.7876 O   0  0  0  0  0  0  0  0  0  0  0  0
    5.1480    4.8219  -25.4340 Cl  0  0  0  0  0  0  0  0  0  0  0  0
    3.3854   -3.3712  -15.8438 H   0  0  0  0  0  0  0  0  0  0  0  0
    8.1974    8.7745  -22.7686 H   0  0  0  0  0  0  0  0  0  0  0  0
    1.7654   -3.1371  -17.7184 H   0  0  0  0  0  0  0  0  0  0  0  0
    5.8328   -3.3064  -16.2937 H   0  0  0  0  0  0  0  0  0  0  0  0
    6.3023    9.4249  -24.2426 H   0  0  0  0  0  0  0  0  0  0  0  0
    7.3882    4.7558  -18.2445 H   0  0  0  0  0  0  0  0  0  0  0  0
    8.7433    6.3726  -22.4324 H   0  0  0  0  0  0  0  0  0  0  0  0
    5.9009    1.6938  -20.3196 H   0  0  0  0  0  0  0  0  0  0  0  0
    7.4665   -0.3526  -23.7716 H   0  0  0  0  0  0  0  0  0  0  0  0
    2.5910   -2.8750  -20.0507 H   0  0  0  0  0  0  0  0  0  0  0  0
    6.6617   -3.0244  -18.6247 H   0  0  0  0  0  0  0  0  0  0  0  0
    4.9142   -0.4276  -19.4995 H   0  0  0  0  0  0  0  0  0  0  0  0
    6.5144   -2.4825  -22.9396 H   0  0  0  0  0  0  0  0  0  0  0  0
    4.9585    7.6775  -25.3921 H   0  0  0  0  0  0  0  0  0  0  0  0
    9.2811    1.4633  -23.2517 H   0  0  0  0  0  0  0  0  0  0  0  0
    9.5600    4.0841  -24.0229 H   0  0  0  0  0  0  0  0  0  0  0  0
    7.4375    4.4145  -20.7195 H   0  0  0  0  0  0  0  0  0  0  0  0
    5.2071    4.5386  -17.0428 H   0  0  0  0  0  0  0  0  0  0  0  0
    4.6425    2.7405  -22.4490 H   0  0  0  0  0  0  0  0  0  0  0  0
    4.8771    4.4663  -22.8884 H   0  0  0  0  0  0  0  0  0  0  0  0
    2.1650    3.7401  -18.8528 H   0  0  0  0  0  0  0  0  0  0  0  0
    2.9478    3.2443  -17.5082 H   0  0  0  0  0  0  0  0  0  0  0  0
  1  3  1  0  0  0  0
  1  4  2  0  0  0  0
  2  5  1  0  0  0  0
  2  7  2  0  0  0  0
  3 10  2  0  0  0  0
  4 11  1  0  0  0  0
  5 14  2  0  0  0  0
  6 17  2  0  0  0  0
  6 18  1  0  0  0  0
  7 20  1  0  0  0  0
  8 12  2  0  0  0  0
  8 19  1  0  0  0  0
  9 13  1  0  0  0  0
  9 19  2  0  0  0  0
 10 21  1  0  0  0  0
 11 21  2  0  0  0  0
 12 22  1  0  0  0  0
 13 22  2  0  0  0  0
 14 23  1  0  0  0  0
 15 16  1  0  0  0  0
 15 24  2  0  0  0  0
 16 25  2  0  0  0  0
 17 26  1  0  0  0  0
 18 27  2  0  0  0  0
 19 24  1  0  0  0  0
 20 23  2  0  0  0  0
 20 25  1  0  0  0  0
 21 32  1  0  0  0  0
 22 32  1  0  0  0  0
 23 33  1  0  0  0  0
 24 30  1  0  0  0  0
 25 30  1  0  0  0  0
 26 28  1  0  0  0  0
 26 29  2  0  0  0  0
 27 29  1  0  0  0  0
 27 31  1  0  0  0  0
 28 30  1  0  0  0  0
  1 34  1  0  0  0  0
  2 35  1  0  0  0  0
  3 36  1  0  0  0  0
  4 37  1  0  0  0  0
  5 38  1  0  0  0  0
  6 39  1  0  0  0  0
  7 40  1  0  0  0  0
  8 41  1  0  0  0  0
  9 42  1  0  0  0  0
 10 43  1  0  0  0  0
 11 44  1  0  0  0  0
 12 45  1  0  0  0  0
 13 46  1  0  0  0  0
 14 47  1  0  0  0  0
 15 48  1  0  0  0  0
 16 49  1  0  0  0  0
 17 50  1  0  0  0  0
 18 51  1  0  0  0  0
 28 52  1  0  0  0  0
 28 53  1  0  0  0  0
 31 54  1  0  0  0  0
 31 55  1  0  0  0  0
M  END
> <OMEGA_C>
UKpvQGnFT8BE1obB8IzzQE82AEGOF7rBweo0QIqVR8CjVY/B6DGkQKSOTcCx34jBzEPRQGcZBkGz
ycDBdnzPQJ6SkEDBR5bBe1b9QN/w1EAei7jBknLAQB75ST+zL6fBpvPcQA0KvL6Dy7bBtMpSQODc
PcCS4pnBgzWzQKBzQ8CRa5PB6wCvQAUW076jaKPBJ9jLQNRmyb88/7LBa9q4QHWC7ED2+8XBU2EI
QaG7DkDkd7nBlaQKQVpKaEAN/rzBOVzQQJ85ikDxYKHBjkCoQObVjED+5pDB57zWQH7aUj8AA7HB
p6bkQK8atUBFn73B+baVQHbKO8AA7pvBZLa0QMPxzb+FWKnBP3/CQKTqwEBQesTByz3oQNGsBEDh
XLXB6Y7uQDoRiEC8fbvBbc2pQAN9f0DZzabBsvKCQHRFg0D4ypbBDTipQFHCZ0CIiLLB1ziEQJWC
ekBOfKHBm6bUQDNUU0B1xLbBQUY4QMAgfkBUiZHB5tijQB0VNcD9TKbBIrykQF9NmkC8eMvBdapY
QEjBV8BXgH3BkygDQVJkDEH/JbbBhvfhP9HFSMBcv43B5aW6QLCbU8BtWYLBXazJQHfMFkHj8MHB
IGzsQGovmEDV9JHBt+QLQX3sy0CkdbPBxtO8QPzO2D+ijqLB+e3uQF+EtL5LLL7Bu9MlQJX/N8Dn
Z6DBwyzVQGiQQcB1/5TBC0GdQGby2r4O/5vBVHbQQGnhHsBKhLfB+KueQCOu9UAWI8vBa38UQahM
uz+QA7rBmvUYQUCxgkD3LsDBGwDuQPdDjUCZwaXBbqCmQCM8kUCdV4jBi4+UQCJkL0Cgl7PBSRGc
QFHsjkBxG7fBDo8KQJBdb0B/0pbB7qg8QCijT0DYEIzBmVBxQHuEUMC3y4bBYH/zQFE3AEGiXbrB
peGkQP31UMDxBonBKqw1QBmsRcAQJo/BxtDRQBDnBUE/S8HBw/fOQBL3kEAnPJbBGwf9QIoL1UBt
krjBcZjdQDw6u75cebbB3dW+QOp8Sj/wIqfBW1CzQMXWRsDsnpPBnV5SQMv+O8AZwJnB41PMQOp9
yb/AyLLBOmGtQDAM1L62caPBibq5QPbO60AWeMbBl0MIQf/dDkBAHLnB+ZcKQUgjaEDNtrzBtLfP
QNbiikADV6HB6d2nQLK5jEA805DB3EPWQO62Uz+4y7DBEaTkQCbutEBJob3BeF+VQNmZPMBu+5vB
EAy0QHgvzr9sUanBOBPDQFxPwEAys8TB/tTnQHP5BEA5G7XBvGvuQNgGiEBqVrvBjzSpQAYagEBQ
v6bBRYyCQAEDg0CZsZbBxcKoQD2OaEAXfLLBj7WDQNNRekC/ZaHBB0vUQGCUU0Bkn7bBiaU3QLVr
fUAtZ5HB0/+iQG08NcAmYabBusClQOQxmUDMocvBYjVbQLeAWMBfV33BSf8CQT2DDEHobrbBFq27
QNwPWcDDnILBm/DjP37KRMBTaY3BCnDKQEyRFkFXpMLBZebrQELBmEDc7ZHB4YQLQcZRzEBVUbPB
3JLwQLZCs76Xsb3BZlq6QL0/2T+lkqLBhC3VQLbnRsCbWJXBULskQGweNMAFKqDBnbXRQAT2HsBc
PrfB4OSaQE103b5CJZzB3gigQIur9EBHzsvBPGcUQb2Wuz+JibnBSvcYQamCgkBJ37/BpEDtQFhc
jkDevaXBFVmmQOLakEBlQYjBoPCTQB96MEB4lbPBFeybQOBrj0C8E7fBRsUJQMrKbkBFrJbBrTk8
QNHFTkCy9IvBHeFuQPB/T8A3yobBBE30QEUyAEHEFLrBoeM0QM2NRMAiUo/BXNyjQCZdUMBXwojB
hCnSQKlABkEqycDB5lnPQHVjkEBfT5bBUrv9QP3Q1ECLjrjBVJ3cQPNOvb7hybbBJjO/QJzkST/U
TKfBGqNTQLY4O8Dc1pnBDFGzQG2FRsDwRJPB1PnLQKw3yr8G8bLBalGuQK/Y1b5gdaPBLpe5QD0P
7UBFB8bB//cHQZY4DkBtj7nBXWYKQYm1Z0CcEr3BIgrQQNhnikDNa6HBRDuoQONejEAS5ZDB2tLV
QNLxUj+zFLHBlszkQDw6tUAOqL3BdDaWQLNAPMAr0JvBhMe0QG4Tz78eTanBFNjCQJhfwUBWiMTB
1mfnQFm1BEASb7XBFEXuQH8XiEAZibvBCmypQPAFgEDr06bBxdOCQJAFg0AzxJbB0MKoQPzbaECb
k7LBFeyDQHupekB0eaHBFiDUQEO+U0Azz7bBSxc4QMMUfkBZfJHB0tikQKIpNsBkJabBltakQB4I
m0AFjcvBTzRXQAI9V8D0dX3BIJ0DQexHDEG/HLbBAsPhP3lUQ8D7yI3BSQa6QC+SWMCvNYLBTc7K
QHP8FkEJ6cHBrljsQEPwl0AJAZLBcQwMQdKJy0CjebPBSrDuQDtGtb7cJr7B0+K6QM462T8GwaLB
ykAnQDpIM8BOY6DBHVbVQHHTRsBcypTBWwLRQAdgH8B1arfBtW2cQNw63r44EZzBWZafQPZ89kBc
NcvBFf0TQfiJuT8/ILrBCcIYQaUsgkD/R8DBJJntQOqmjUDl0qXBiMSmQH1kkEBCUojB/dKTQAf2
MEB7rrPBGeibQC+1j0C3HbfB/hYKQJsccEA7xJbBpiY8QPY0T0ABEIzBcMR3QDyOUMC6kIbBXAX0
QLkSAEHQJrrBx82nQAj5S8ALE4nB4vk5QCukSsAUwI7Bd0LSQB33BUHKAsHBHP7OQB3DkEC4I5bB
qH79QKup1EAIgrjBGv++QJZ2Sz+EQqfBZR7eQLU6v76efrbBLNq0QJSfQcCIxpPBsuxTQOyoQMBL
dZnBsh6tQJ/6zr6PlqPB1YXMQO3yyb+yzbLBFAO6QF8+7EBKQsbBMlcIQb5MDkDWZLnB5KMKQcqX
Z0CY/bzBKAjQQN/KikD3QKHBNLmnQK6XjEAJy5DBaLXWQOrbUj8S4LDBjffkQIDbtEBSo73BBteV
QIYdPMBx+JvBVtKzQElfzb8CZ6nBkTvDQG+jwEDBnsTBjjvoQPytBEDYOLXBgq/uQM3ih0AicrvB
dJypQM44gEAyuabB4oaCQIsUg0Bpu5bBrkupQGCcaECmdLLB+fmDQNK5ekBUb6HB+cHUQMh+U0CK
o7bBESw3QCfofUC/h5HBNRaiQM02NMDOeabBB1mlQG7wmUDhjMvBqcRjQAudWMCCtnzBS08DQTpA
DEE4KLbBdGy/QARmUMCeyoLB+GrtP43FTcBZzYzB2PDKQJyrFkEsQMLBZdXrQGhqmEDPx5HBl8oL
QXefy0CtT7PBf6C6QKD32T9ZtqLBF2bxQDmqur4xqr3BfHrWQHLnPcAmt5XBCaMkQON9PMD6vJ/B
1kWaQBSv1L61WJzBePnRQFFsH8CkNbfBrkmgQN9t9UBYjcvBfGkUQewQuj/F77nBoe8YQWIogkCs
QcDBs7HtQM4wjkD/mqXBnP6lQGCfkEATOYjBiHaUQA+IMEBJirPBCnOcQAJtj0AkDrfB9pMJQIy4
b0Bj25bBJxE7QAkUT0BXGYzBj0JuQL/qT8Bd6IbBv863QIgE60DF5MXBQH00QDy3R8BZgo/Bypuj
QKjgTcAvyYjBu5zPQFDLBUHn38DBAJ3PQFp3kECLZpbBaqHCQJXiv0BuL8TBekW/QLQmSj9YSqfB
QpXcQAuNvL4azbbBTZJTQNgwPsBGAZrBcTuzQFUXRMD/R5PBuUmuQK021b7Wd6PBsNTLQF3Tyb8W
+7LBzBPyQBqDAEGpGrrB3CcIQSexDUATgrnBUqMKQc0dZ0AjB73BlUjQQJ5OikDVgKHBvHeoQPa4
jECw/pDB9/TVQKi+Uj+BELHBDxPlQHQutUDCYb3BKTaWQH11PMDW45vBnbm0QDnLzr9+VanB3d38
QG3h1UDLT7jB1L/nQBxoBEBSZrXBLPfuQLwQiEAEV7vBq5ipQDlXgEBd8qbBOQ2DQOF0g0Dz3pbB
7gWpQI8kaEDsr7LB4xiEQCyve0BJlqHBKYzUQABeU0BXzbbB5Kw4QMh2fkDHkpHBhOikQBwfNsCN
NKbB8isTQZOiyUAeY6/BgVRWQH/HV8A8uX3B+0idQKkn80DAC8vBBMPgP5G+SMDACo7BPa65QEzR
U8DYLYLBNG/HQP9dFkG8N8LBNqLsQHrwl0DFGJLBIZCwQCHkpkCgFcjBzf66QBdZ2T+yvaLBZKDu
QIohtL5CK77BkF8nQIc3OMAMm6DBw0jVQHptQsAQvpTBz1ucQBYA3r5BFZzBFLTQQBcaH8Bee7fB
EiMCQWINDUEfR7bB6yYUQTBGuD+lDrrBh/IYQaewgUBYV8DBS+7tQDYbjUBK46XBtfqmQEPjkEAK
bYjB31WUQObGL0AYtrPBfQGcQJf7jkBNVbfBjaoKQLBRcECD2JbBoRI9QAWKT0A9KYzByQlwQMsw
T8A48IbBa2m3QETR6UCtYsbBti01QMBbRsAaao/B9V2kQGv9TcDsAYnBoZfPQCOMBUEzysHBWj3P
QBpVkUDuRZbB5jrCQHX4vkChSMTBaqXeQGgovL5pebbBliC/QPwgSz/YQKfBOulSQDBQPcAd+5nB
dE+zQEJIRMAFkJPBU3nNQBLOyb/OxbLBtcKtQK4R0772jKPBD1fyQO3CAEFbBLvBkX8IQZjeDkBY
PbnBI9kKQX5AaECxyLzBrv7PQCYqi0CyX6HBWyaoQOIdjUCh3ZDBSuPWQP7YUz+o3LDBM/bkQFM9
tUCIer3BY8OVQD1SPMBMDZzBe960QGhLzr/XW6nBwwn9QBeq1kDozLjBl2foQAwNBUAJLLXBQjXv
QFFkiEDtKbvBwnipQBOXgEAY0KbBrteCQEBig0CTvJbBDTipQIIsaECbirLBKPmDQNlNe0D0c6HB
We/UQJzRU0AXmrbBk1o4QKK/fUCJbZHB2OajQPZYNcCBaabB7WETQbXBy0Aw16/BRSRZQHrkVsC6
r33B9pmcQE8y8UAThMvBWo7iP7CIRsB+zI3BOdy6QISDVMCzf4LBiH3HQLwCFkGXdcPBRyrsQOIr
mUBZ+JHBjO6vQBNupUD74cfBJeHxQNPKtL7Zpr3BkFK6QIbV2T+ZvKLBqOAlQNIkN8BrfaDBGETV
QH3tQsCTKZXBES7TQDU8H8C/LrfBFAKbQCy/275eS5zB0WkCQU+SDUHMg7fBYpcUQUBTuz/pvrnB
QiQZQZFsgkDdEcDBVJftQKFqjkCrwqXB256mQOtGkUAOTIjBRL+UQFp7L0ArjrPB6BmcQDfRjkAh
PLfBLXIKQBsNb0DBsJbBOTU9QBIBT0BS/4vBZcp3QP8NUMByoIbBD+K3QAyd6UBkVsbBr8ynQIQ8
SsCJHInBBBM6QK93S8Be1Y7BsivQQO5zBUGgyMHBFB/PQF9xkECLCpbBQJfCQI3IvkDaL8TB4x7e
QCqqvr7hkrbBCaO/QG7ESj8iPafBkOC0QAoaQMDuz5PBwRRUQBCgQcBZipnB4nDMQLq3yb8g5bLB
y6atQLbFz75VlaPBA/TyQIiuAEFYBLvBRpIIQfgVDkB/abnBA+8KQaWWZ0AR67zBw0vQQH5SikCl
JaHBzr2nQISgjED4vJDBnxnXQOhzUj/947DB+17lQNQWtUBXZb3B/OaVQMb9O8DmB5zBcAO0QIpP
zb9Bc6nBHp79QBKD1kALx7jBGMfoQLGPBEAFMrXB3qHvQOZAiEA9GLvBd9ypQJI+gEA0r6bBI5mC
QJxFg0B1tpbBisapQCLfZ0ACbLLB0iOEQKM+e0AxbKHBKnTVQMyUU0AAgbbBDkI3QMkZfkBMh5HB
mSiiQP0XNMDniKbBbtATQcCTy0CM56/BAsFjQDMLWMAk1nzBkxSdQJn48EDteMvBRWK/QGONTcA/
z4LB0qXtPw6CT8AL54zBXiDIQIDpFUH0esPBS/HrQDnxl0BFqJHBMyuwQGk5pUDnvMfBFCrxQHBe
ub6AyL3Blou7QEpi2T/dpqLBrX3WQAd7O8A+vJXBsNskQMZlPsAx1p/BiJ3RQF8zH8AIWLfB7Pma
QIf01b5mUJzBjb4CQc5/DUGqibfBJJQUQThFuT/LCrrBIiYZQUL9gUCbUMDBtRzuQCM8jUBtdKXB
weClQEfOkECZLIjBwUuVQAk8L0AmebPBprGcQPzAjkAfF7fB0cEJQFbob0AM3pbBDCg7QBk2T0AB
G4zBoEl7QLVUUMCubYbB7Su5QCC56kDMS8bBN1WpQKitSsAVJYnBDDo8QPBcS8BNeI7Bb3TRQBnD
BUHhhMHBD/3OQPCWkEBNO5bBrjXDQFylv0BYOcTBny2/QGnsSj+ZUqfBAKveQCMWxL6deLbBe4W1
QOpiQMCn6JPBZHhUQHJiQcBuPpnBGh2tQIeDzr4cqKPBBN/MQCPyyr/jx7LB+4nzQIihAEE4mrrB
PX8IQfkqDkCEZ7nBetcKQdipZ0CI6LzB5ufPQDCSikBcVqHB28anQL2JjEAv35DBBBHXQFdXUT9S
6LDBOG3lQMI/tUC/Ub3BieWVQNjxO8DS95vB4cizQFmJzb+7b6nBW5j9QP0w1kAmd7jBoIjoQJVn
BEAKQbXByl3vQIM4iECiJbvBzWqpQD1bgEBo1abBeYSCQNYig0BYy5bBnFipQATXZ0CKkrLBgM2D
QMsie0A3hKHBMBnVQKtiU0B7nLbBpWw3QGnDfUAZiZHBiV6hQEHBM8C4iKbBrXQTQW1dykCGdq/B
Kp9oQFl7WMAaWHzBI+GeQD6j8kAAi8vB8nDBQBo+TsBk+ILBhZryP7A2T8A4XYzBae/JQC5OFkEs
KcPBL+LrQBUxmECx45HBHrewQLB4pkCV68fB99C6QGTc2T+ByqLBEzzyQJ68wb7Kl73BvPnWQO3k
O8DFAJbBMzMkQGrnPcCjaZ/B/B+aQKYs0r4bcJzBn3bSQGsXIMDtI7fBrgADQWNBDUHf7bbBr4wU
Qf23uT+7/bnB1xQZQWgVgkCpQ8DBGZztQNaqjUB0r6XBlh6mQJiSkEAITYjBh9iUQAI5L0CAnbPB
1FScQGizjkAKRLfBwpYJQG6kb0Af1ZbBOKk7QFzNTkBOIIzB

> <OMEGA_E>
wHBPPgCGUD6g21A+eLtRPiiiaD74M2o+gBprPpD0bD4=

> <OMEGA_NBR>
     70953

$$$$
50161605
  -OEChem-04172616093D

 54 58  0     0  0  0  0  0  0999 V2000
    7.6650    8.0540  -23.1744 C   0  0  0  0  0  0  0  0  0  0  0  0
    6.6286    8.4485  -24.0432 C   0  0  0  0  0  0  0  0  0  0  0  0
    6.4743    4.4927  -18.7938 C   0  0  0  0  0  0  0  0  0  0  0  0
    7.9504    6.6886  -22.9955 C   0  0  0  0  0  0  0  0  0  0  0  0
    5.9110    0.8005  -20.9921 C   0  0  0  0  0  0  0  0  0  0  0  0
    6.8978   -0.3384  -22.9053 C   0  0  0  0  0  0  0  0  0  0  0  0
    5.4140   -0.4203  -20.5120 C   0  0  0  0  0  0  0  0  0  0  0  0
    6.4063   -1.5609  -22.4262 C   0  0  0  0  0  0  0  0  0  0  0  0
    5.8815    7.4784  -24.7404 C   0  0  0  0  0  0  0  0  0  0  0  0
    8.4885    2.2502  -23.2102 C   0  0  0  0  0  0  0  0  0  0  0  0
    8.6679    3.6550  -23.6162 C   0  0  0  0  0  0  0  0  0  0  0  0
    6.5004    4.3335  -20.1860 C   0  0  0  0  0  0  0  0  0  0  0  0
    5.2475    4.3658  -18.1253 C   0  0  0  0  0  0  0  0  0  0  0  0
    3.2144   -2.9158  -19.5561 C   0  0  0  0  0  0  0  0  0  0  0  0
    5.3286   -3.1523  -18.3994 C   0  0  0  0  0  0  0  0  0  0  0  0
    2.5600   -3.0881  -18.3203 C   0  0  0  0  0  0  0  0  0  0  0  0
    4.6103   -3.3195  -17.1974 C   0  0  0  0  0  0  0  0  0  0  0  0
    6.6480    0.8513  -22.1974 C   0  0  0  0  0  0  0  0  0  0  0  0
    7.1914    5.7150  -23.6763 C   0  0  0  0  0  0  0  0  0  0  0  0
    5.6735   -1.6189  -21.2264 C   0  0  0  0  0  0  0  0  0  0  0  0
    4.6180   -2.9515  -19.5964 C   0  0  0  0  0  0  0  0  0  0  0  0
    6.1615    6.1101  -24.5645 C   0  0  0  0  0  0  0  0  0  0  0  0
    7.2111    2.1070  -22.7182 C   0  0  0  0  0  0  0  0  0  0  0  0
    7.4701    4.2990  -23.4288 C   0  0  0  0  0  0  0  0  0  0  0  0
    5.2933    4.0360  -20.8744 C   0  0  0  0  0  0  0  0  0  0  0  0
    4.0800    4.0957  -18.8696 C   0  0  0  0  0  0  0  0  0  0  0  0
    5.2766    3.6988  -22.3499 C   0  0  0  0  0  0  0  0  0  0  0  0
    3.2547   -3.2901  -17.1734 N   0  0  0  0  0  0  0  0  0  0  0  0
    4.1182    3.9462  -20.2115 N   0  0  0  0  0  0  0  0  0  0  0  0
    6.6303    3.3547  -22.8711 N   0  0  0  0  0  0  0  0  0  0  0  0
    2.8674    3.9522  -18.2149 N   0  0  0  0  0  0  0  0  0  0  0  0
    5.2765   -2.8747  -20.8002 O   0  0  0  0  0  0  0  0  0  0  0  0
    5.2509    4.9238  -25.4850 Cl  0  0  0  0  0  0  0  0  0  0  0  0
    8.2402    8.7999  -22.6459 H   0  0  0  0  0  0  0  0  0  0  0  0
    6.4061    9.4971  -24.1752 H   0  0  0  0  0  0  0  0  0  0  0  0
    7.3801    4.7086  -18.2468 H   0  0  0  0  0  0  0  0  0  0  0  0
    8.7508    6.3859  -22.3367 H   0  0  0  0  0  0  0  0  0  0  0  0
    5.7293    1.7087  -20.4367 H   0  0  0  0  0  0  0  0  0  0  0  0
    7.4701   -0.3099  -23.8208 H   0  0  0  0  0  0  0  0  0  0  0  0
    4.8351   -0.4480  -19.6006 H   0  0  0  0  0  0  0  0  0  0  0  0
    6.5920   -2.4671  -22.9837 H   0  0  0  0  0  0  0  0  0  0  0  0
    5.0925    7.7853  -25.4110 H   0  0  0  0  0  0  0  0  0  0  0  0
    9.2302    1.4688  -23.2856 H   0  0  0  0  0  0  0  0  0  0  0  0
    9.5777    4.0983  -23.9933 H   0  0  0  0  0  0  0  0  0  0  0  0
    7.4279    4.4358  -20.7298 H   0  0  0  0  0  0  0  0  0  0  0  0
    5.1975    4.4738  -17.0518 H   0  0  0  0  0  0  0  0  0  0  0  0
    2.6446   -2.7584  -20.4599 H   0  0  0  0  0  0  0  0  0  0  0  0
    6.4083   -3.1782  -18.4008 H   0  0  0  0  0  0  0  0  0  0  0  0
    1.4809   -3.0587  -18.2857 H   0  0  0  0  0  0  0  0  0  0  0  0
    5.1516   -3.4743  -16.2758 H   0  0  0  0  0  0  0  0  0  0  0  0
    4.6086    2.8393  -22.5080 H   0  0  0  0  0  0  0  0  0  0  0  0
    4.8944    4.5674  -22.9062 H   0  0  0  0  0  0  0  0  0  0  0  0
    2.1509    3.7448  -18.8809 H   0  0  0  0  0  0  0  0  0  0  0  0
    2.9327    3.2060  -17.5523 H   0  0  0  0  0  0  0  0  0  0  0  0
  1  2  1  0  0  0  0
  1  4  2  0  0  0  0
  2  9  2  0  0  0  0
  3 12  2  0  0  0  0
  3 13  1  0  0  0  0
  4 19  1  0  0  0  0
  5  7  2  0  0  0  0
  5 18  1  0  0  0  0
  6  8  1  0  0  0  0
  6 18  2  0  0  0  0
  7 20  1  0  0  0  0
  8 20  2  0  0  0  0
  9 22  1  0  0  0  0
 10 11  1  0  0  0  0
 10 23  2  0  0  0  0
 11 24  2  0  0  0  0
 12 25  1  0  0  0  0
 13 26  2  0  0  0  0
 14 16  2  0  0  0  0
 14 21  1  0  0  0  0
 15 17  1  0  0  0  0
 15 21  2  0  0  0  0
 16 28  1  0  0  0  0
 17 28  2  0  0  0  0
 18 23  1  0  0  0  0
 19 22  2  0  0  0  0
 19 24  1  0  0  0  0
 20 32  1  0  0  0  0
 21 32  1  0  0  0  0
 22 33  1  0  0  0  0
 23 30  1  0  0  0  0
 24 30  1  0  0  0  0
 25 27  1  0  0  0  0
 25 29  2  0  0  0  0
 26 29  1  0  0  0  0
 26 31  1  0  0  0  0
 27 30  1  0  0  0  0
  1 34  1  0  0  0  0
  2 35  1  0  0  0  0
  3 36  1  0  0  0  0
  4 37  1  0  0  0  0
  5 38  1  0  0  0  0
  6 39  1  0  0  0  0
  7 40  1  0  0  0  0
  8 41  1  0  0  0  0
  9 42  1  0  0  0  0
 10 43  1  0  0  0  0
 11 44  1  0  0  0  0
 12 45  1  0  0  0  0
 13 46  1  0  0  0  0
 14 47  1  0  0  0  0
 15 48  1  0  0  0  0
 16 49  1  0  0  0  0
 17 50  1  0  0  0  0
 27 51  1  0  0  0  0
 27 52  1  0  0  0  0
 31 53  1  0  0  0  0
 31 54  1  0  0  0  0
M  END
> <OMEGA_C>
C0j1QEDdAEEeZbnBVx3UQDgtB0F/WMDBXy3PQO7Dj0DEWZbBi2n+QKYI1kDE9rfBSSe9QEjtTD/p
76fBC7vcQERBrb4QPrfBVD+tQKYx176CGKTBggDNQPrJx7/zaLPBWzW8QHNP70BG7MXB4NAHQZgD
EECWrrnBua8KQdLraUAE7rzBagPQQAGsikADfaHB1+unQJ+0i0CEAJHBg7hNQMWcOsDQcpzBDYSq
QAzAScD1MZPBZdYjQB6kRcD5j5LBrIeTQKpyVMBIlInBqbzUQCjsWT9clLHBBCDmQOjgtkAKab3B
lo21QN42z7+wz6nBaMaTQK3lPMB0xZzBHSvFQK2Fw0AihMTBGsHmQNjYBkDHvrXB+grvQMuRiUAr
brvB72KpQLAmgUDc/qbBp4+CQKwPg0Dr9JbB3tmoQLe4bECbzLLBc0xQQBSRUsA4Y4nBBsiDQBKO
fEBBsaHBISvUQPazVkAU+LbBB4Q3QELxfEAGuJHB6dioQOL6N8DCZqbBYweoQHqPnUBP4cvBB9gD
QTLMDEHSKrXBB//MQCf0F0HPZsHBKyrsQNuslkCK+ZHBcAMMQSNZzEB6sbLBGVa3QMG12j9EfqPB
JwvvQLexnr7zkL7B9LiaQCJl5b4hzpzBQ/HSQGDkHcCM3rfBxfWiQNUg+UCzScvB464TQRoCvD/9
SLrBSD4ZQQclg0BC8r/BYLHtQHnyjUCr1qXBhFGmQIApj0ApaojBZ0EpQBeKMMDzraPB4BDNQPVm
S8C/NJPBp469PxLCQ8AfSZLBIdqkQA9bXsDGNILBPnmTQNi2NUBiELTBPZ+cQCYokkDcP7fBHakJ
QCeqb0ARDJfBP7E7QKUvTUAsa4zBuALyQC8XAUHz7rnBR7PPQPDrBkFLosDB4efPQB8ekUDOg5bB
9G/8QPe+1kDIiLjBug7gQCdYs74NvbbBPTXBQOe7Uz/qh6fBye7NQOiFxr/dC7PBltuuQEDlur6D
3aPBmvW3QMIY7kAAAMbBEMQIQTFkEkDY6LnBl7wKQcg3bEAYZ73B7ZPQQGCMi0C8o6HBCPGoQCkd
jEBwFJHBMGO7QGilP8DX2pTB5W5eQOMSRsDhUpjBPJSyQAxuTcAJ8InBzlxRQGkpU8BBSI3B8ZHY
QDm5Wj/oMrHBbVXkQGjRtkDdwb3B06a0QJkryL88uKnBUiWZQE6zO8DbKpzBmDjCQNyOwkCHocTB
uEvpQGZMB0DTqrXBYLLuQFe3iUBfvrvBWxuqQLKVgECBCqfBF6mDQMEzgkCD8ZbB1aipQLV6aUAR
x7LBevCJQPrCVsBcVIbBVruEQMXjeUBXqqHBrznVQFDTVUD1ArfB9Cc6QJwHekDNopHB1lWgQESB
L8Ci7qbBMTelQNHgm0BrycvB3ycCQU5KDUHL3rXBIZTHQIqXF0HiqMHBssvsQGYZmUCYNpLBnHcL
QbrWzUA3dLPBrsPzQF63s74P1r3BQHe9QNHg3T8n7aLBbmzTQBADHsDaYrfBkkucQAOovb7Vk5zB
PtKdQM0r90BaLcvBdvwUQQSdwz9akbrBw+YYQervhEBYrsDBqALuQNSLj0ByDqbBz4CnQLfPj0A4
f4jBwvfbQG0zOMAqlZfB0rMoQAcNRMDCwJ3BUcjMQCGiUMCFUYTB1eoQQOJ7WsC+S4rBQkGVQIbA
MEAT2LPBXkecQFetj0BbWbfBel0MQDZEa0Ba6ZbB8Jo/QPzeSkBGRYzBauH2QMYLAUEQq7nB5ZbV
QISCB0GMi8DBNUbPQJy7jkCVRpbBLFL/QJ1N1kAZJ7jB6J/bQHuvqL5ygbfB4ra8QEKHTT8fFqjB
El3MQE0Qx78OnrPB+EytQIJY176WL6TB8de8QG0t8EBp9cXBY4gHQehIEEDuzrnBbIQKQVFNakD7
+rzB1AnQQM8likCobaHBvgOoQEihikBv7ZDBxrpNQImLN8DvL53BvCWoQNhZTMAtE5PBcEofQA6l
QsAyoZPBlfGOQEu9VsBazonByezTQG6XWz8oyLHBHzbmQEZWt0AVb73BQ7a1QOEhz7/N5qnB9beT
QGjhPMC36ZzBxxjFQGtKxEBtd8TBtifmQDhPB0Cq4rXBzNDuQEzwiUD1crvB7VOpQH8fgUDe8qbB
q5CCQH2PgkAl5pbB3qWoQKnHbUB0x7LBp0NHQPowUsAxM4rBtLiDQD6NfECWpaHBmNPTQH6BV0Cr
ArfBUl03QJSafECbrZHBSeuqQLhMOMAkO6bBUASnQEahnkC/sMvBV/UEQXbmDEGVj7XBdwXPQDdT
GEGEq8HBuFDsQG9KlUBh45HBx4UMQbRkzEAb8bLB9FjtQAfil74f677BKM22QEL22j85paPBYgzS
QARoHcBSH7jBcxKbQFQR57592ZzBf3yjQNU4+kDUQ8vB5VYTQfEmvD8Jc7rB4xwZQUBCg0D0+L/B
/bftQPFvjUAOx6XBmnqmQEiejUASVIjBmtAsQIQaK8C1n6TBQZvKQDM3UMAcoJLB25m0PxuvPsD4
0JPBU3ieQL6SYsDpOoLBJA6TQBw3N0DyHLTBOpecQMf7kkAZJLfBTlYJQHWIcEAuB5fB2cw6QCNI
TEBEc4zBnNzyQMjnAEFJBLrBox7RQMbWBkFj38DBApzPQMCFkUDghZbB0LX8QLhP1kCzg7jBI7HA
QC8jUj8BgKfB4SHfQCoksL6X1LbB//+uQJ1Uwr7eyaPBLaTNQNJzxr9LG7PBCE25QKgQ7kCTRMbB
734IQfC9EUBTzbnB3J8KQVdoa0A+S73BFybQQIsHjECNpqHBlMGoQAhIjEDGDZHBbfq4QP+2P8Ak
apTBJExbQJE9RcD16JjBHrmtQJ1PTMD9nInB7EdJQC8oUcAF9o3B0r7XQL2/Wj8ONrHBo4rkQHaM
tkCpxr3B9RS1QA/Uyb9Zq6nBsWOYQIDxO8C2LpzBiuPCQABzwkDCxMTBI6DoQMIoB0DenrXBWYLu
QNd3iUCVtrvBgrGpQILOgECkBafBd26DQGREgkBi45bB3TqpQKAWakBSxbLByk2EQLKjVMCHjobB
w2KEQMgNekCRnaHBM8bUQGDOVUAy/LbBEN05QE0LekA/i5HB/OihQGhyMcC52abBOo+lQAzgm0Ay
4cvB/ZQCQZANDUFI6rXBRX3JQMWKF0H//sHBUoXsQGWgmUCnPpLBhWcLQeY5zUB2U7PBfKy8QKgD
3T9Q56LBhkvyQIGQq74xBb7B7b2cQIVAyb4YdJzBIBDTQFayHcCtgrfBrp6fQB9P90BakcvB36cU
QbHCwT8Na7rBNd8YQb1lhEAkhcDBwXvtQH5IkEDYF6bBS2+nQCXgj0COd4jBeCLaQJELOcBytJbB
AA8oQFhJQ8AqtJ7BAqPGQDtmT8A+o4PBzY4HQOWoV8CJaYvBbZyUQCqzMUAu3LPBSRmcQGAekEA9
VrfB7u4LQH46a0BbzJbB8Yk/QBLiSkC9LozBdcK1QJ/96kAmMsbBtyjNQO9GBkEJfMHB4PjPQBkj
kUAjcJbBCYzBQHBIwEAiPcTBstfBQNm8UT9qhafBcljfQJWQs76177bBP02vQG/avb4H36PBWxPN
QL9exr/AQLPBeTfwQOixAUH+xrrBJwQJQYUpEkB/17nBFBYLQX1xbECWJb3BsL3QQJxci0C7jaHB
c/OoQJNTjECJB5HBrRm7QHHNP8CD4JTBG/JdQC7TRcCzaZjBlxyyQOVBTcAT9onBOIRQQPKjUsCs
X43BwbXYQN06WT8IQ7HBV4DkQPbltkCleL3BC3m0QHiCyL+Zz6nBE/iYQG6+O8DcOJzB+/H7QIWl
2EB6uLjBCMDpQFrlBkDGpLXBgZTvQJQCikAtUbvBAEqqQCiNgEDw/6bBi7mDQPZqgkDG6ZbBswyq
QMJTaECZu7LBPGeJQG86VsARY4bBKt2EQPgmekA0o6HBxdTVQOmZVUCq3LbB2kU6QPZrekConJHB
w0ygQODIL8DH/KbBNBoTQUtGzkDL4q/B28uaQBQJ8kA8TsvB5znEQP6vFkFnA8PBhdXsQLIgmUAw
IJLBg82vQBSNpkDL7MfBKKG+QGJx3D9l2aLB6H/yQFadsr7DIL7BXhGdQCgwwb4iiJzBPe7RQC6y
HcCHsLfB0xQBQRSdDkErM7fB/S8VQQTtwj/IlrrBcT8ZQeAShUD7a8DB/UXuQKcWj0CM8aXBYmqn
QJYqkECWc4jB4rvbQByxOMAvlJfBCmEoQCbJQ8AG3p3BWDrMQON+UMAoUYTB6fYPQLTCWcB4aorB
KRCWQCPwLkA1vbPBAl2cQEK0jkBYZLfBAosMQAx/a0CA45bBOcM/QDlcS0DiO4zBFmC2QPyQ60CF
L8bB3v7NQA9iBkGxYMHBB97PQG+RkUADlpbBcbbBQAyvwECuS8TB1vTBQNqZUz+abafBLMHfQH32
sb4Uy7bBlY2vQCKmur4iwaPBmpHNQO/qxb8vGbPB9sbwQEKJAUHhoLrBWPEIQWohEkCZ07nB2/UK
QdQSbEBGPr3BPGnQQKnUi0BEs6HB5AGpQO2CjECnH5HB+4RdQBQkRsCfdJjBI8y6QHi0P8B+zZTB
lp1PQOObU8BscI3BvJOxQIXnTcAk6onBI9PYQA1zWj/vKrHBwIHkQMjNtkAEhr3Bhsy0QA+9x79V
sKnB2tGYQD6KO8ARMZzBnh78QBss2ECPqbjBBp/pQDcOB0AqnbXBG0/vQNfUiUD8cbvB+vKpQPSz
gEADGafBNLSDQAtogkBS9JbB1repQN9vaEB21LLB/cyIQIVnV8DTaIbBM6OEQBIJekAkr6HBlY3V
QM6CVUAF8LbBApE6QMwXekASlpHBuVagQOgvL8Bq76bBrigTQWIdzUAS26/BQ5ebQJ0G80A5UcvB
8m/FQK3bFkGu3cLB0cfsQJC3mUBbUJLBNcGvQFU5p0DpCMjBHqO+QEaT3T/Bx6LBRhPzQMSYsb7+
9L3BRGGdQPlOvr7XZ5zB45zSQNSTHcDef7fBpmYBQTFQDkE387bBlSMVQWfywj8ig7rB3xgZQQLO
hECDkcDBJs/tQDDUj0CjIabBL6anQBJQkED0iojBNTUoQNwARMDC8p3BvHnbQCUdOMAxc5fBNPMO
QDUSW8CiiIrBv5DLQNlLUcAqPITBqrGVQEoXL0Dt07PBDBicQNi9jkC0gbfB+58MQLTjakBY0pbB
5pFAQMMeS0BkNIzBEH63QMgG7EAIVMbBThzPQD2DBkGwbsHBX9LPQB8XkUCxepbBlkfCQDALwUC0
YMTBDEXfQMv4sr7L5LbBzibBQLoaUj/CjKfBVH/NQKy2xr9LKrPB+xqvQCLOv7612aPBjFbxQMeE
AUHEiLrBwZsIQSyfEUC29LnBKMIKQYyea0CbUr3BQW3QQK96i0DHmaHBSuGoQAQvjEAcCpHBSqK6
QA/9PsBoqZTB+rNdQKz3RsBtlZjBJtKwQCFCTMBPyYnBHZdOQM57U8Bnk43BRx/YQELKWT9fRrHB
2JzkQPjjtkCYfL3Bidm0QNI/yb/UvKnB1RSZQF0MPMDtLZzBJjD8QHEK2EAqh7jBUgHpQJLyBkAs
sbXBOh7vQMbaiUClbrvBVeepQILPgEBYB6fB5pCDQOVigkCg5pbBiY2pQDNYaUBlyLLB+t+HQIsG
VsD0aobB3YuEQNaDekCtoqHBfj3VQBLQVUBf7LbBSQ46QMhsekDKkpHBpiqhQO+cMMB86abBet4S
QduSzEC/kK/BViGdQMW380DrksvBhvnGQCAGF0G298LBdb7sQFMHmUCtL5LBEEKwQEG7p0AAKcjB
znLyQImZsL7HFL7BpXm9QJr13D+J7qLBC8XSQBjxHcB8jrfB6dOcQPCBxL6ahJzB06cBQak3DkHv
xbbB57QUQWZFwT/YtLrB9+cYQc1shEChrcDBs+jtQGo6j0CuAqbBzHinQJfdj0C0dIjBuW/bQBUt
N8BbM5fBsQkpQG3KRcBuLZ7BHXvKQOizTsC6AYTBqqUNQP44W8DQx4rBxT+VQPRyMEBM1LPB0Suc
QKN2j0BQaLfBRyEMQGPha0AU15bBf4Q/QFsgS0A/OozBhIi6QB7b7UDJp8XBKe3SQDv2BkEnncDB
sUnPQK72jkDqUZbBQIDEQJeDwkDu9cPB6QTcQIT/rr4LYLfBAoS9QEOLTD/Z8KfBew7MQAHPx7+i
irPB1matQKJg1r6BF6TBjRz1QKxRAUHJ07nBk9kHQUYaD0BF2LnBptAKQakfaUBbB73B4ybQQPYp
ikC5dqHBk/+nQNDkikCi/pDBoOpNQOdxOMDkNJzBeiirQFbkSsAOTZPBdF0lQNhNQ8BgO5LBBNKU
QLFPVcAElonBZbLUQJnMWD9SpbHBhJ3mQMMNt0B4Ib3BixG1QL3xzr+936nBP86TQJuVPMApwJzB
xwP/QK1D10BBCbjBmPrmQH5cBkAAzbXBEb3vQNWliUA+NrvBk4KpQEohgUCdBqfBt6CCQCm0gkBP
/JbBtyapQLn/a0DF1bLBzvpSQEC8UcBpLonB5dyDQGOpfECfvKHBqqDUQIp9VkAS7LbBlnY3QEvY
fEAqxpHBUTGoQAu5N8DSd6bBkSMUQZEvykCVIK/BtjWgQDuK9kDR0MrBomvLQLCdF0F/88HBv0bs
QGiolUBy7JHBagOyQFvqqUDP5MfBBv/tQHVVob5OwL7BECy4QN962j+6dKPBCnXRQJnaHcChDbjB
0jWbQHup476hv5zB6uMDQZeqDUGH/LXB95oTQTmIuT9uj7rBd0kZQc57gkAHOMDB4OftQJdMjUDj
yaXBXF6mQBn/jUAyZojBH44oQFgYLcD7VaPBw63NQNHaTcBfe5PBDNTAP/wPQMC2yJHBm5umQI9h
YMABT4LB8wOUQDiUNEBlErTBQ8ScQE+SkUBVWLfBlIEJQHSacECbIJfBNu86QC2eTEBpiIzB

> <OMEGA_E>
CMdjPuDwZD4A9mQ+AGpmPtAyfT6YQn0+AC9+PiDZfj4=

> <OMEGA_NBR>
     78437

$$$$
50161584
  -OEChem-04172616093D

 52 56  0     0  0  0  0  0  0999 V2000
    7.5606    8.0054  -23.2875 C   0  0  0  0  0  0  0  0  0  0  0  0
    6.5020    8.3541  -24.1487 C   0  0  0  0  0  0  0  0  0  0  0  0
    6.4744    4.5619  -18.7782 C   0  0  0  0  0  0  0  0  0  0  0  0
    4.7883   -3.2030  -17.1251 C   0  0  0  0  0  0  0  0  0  0  0  0
    7.8794    6.6517  -23.0779 C   0  0  0  0  0  0  0  0  0  0  0  0
    6.0395    0.7962  -20.8540 C   0  0  0  0  0  0  0  0  0  0  0  0
    6.9888   -0.3905  -22.7572 C   0  0  0  0  0  0  0  0  0  0  0  0
    5.4748   -0.3967  -20.3821 C   0  0  0  0  0  0  0  0  0  0  0  0
    6.4312   -1.5887  -22.2838 C   0  0  0  0  0  0  0  0  0  0  0  0
    5.7632    7.3494  -24.8041 C   0  0  0  0  0  0  0  0  0  0  0  0
    8.5441    2.2291  -23.1744 C   0  0  0  0  0  0  0  0  0  0  0  0
    8.6663    3.6232  -23.6389 C   0  0  0  0  0  0  0  0  0  0  0  0
    6.5086    4.3524  -20.1642 C   0  0  0  0  0  0  0  0  0  0  0  0
    5.2492    4.4268  -18.1071 C   0  0  0  0  0  0  0  0  0  0  0  0
    5.5017   -3.0263  -18.3986 C   0  0  0  0  0  0  0  0  0  0  0  0
    3.4235   -3.2263  -17.2857 C   0  0  0  0  0  0  0  0  0  0  0  0
    6.7621    0.8159  -22.0676 C   0  0  0  0  0  0  0  0  0  0  0  0
    7.1314    5.6423  -23.7180 C   0  0  0  0  0  0  0  0  0  0  0  0
    5.6540   -1.6008  -21.1102 C   0  0  0  0  0  0  0  0  0  0  0  0
    6.0735    5.9919  -24.5943 C   0  0  0  0  0  0  0  0  0  0  0  0
    7.2882    2.0673  -22.6372 C   0  0  0  0  0  0  0  0  0  0  0  0
    7.4556    4.2399  -23.4381 C   0  0  0  0  0  0  0  0  0  0  0  0
    5.3112    3.9976  -20.8416 C   0  0  0  0  0  0  0  0  0  0  0  0
    4.0905    4.1022  -18.8440 C   0  0  0  0  0  0  0  0  0  0  0  0
    4.6426   -2.9219  -19.4677 C   0  0  0  0  0  0  0  0  0  0  0  0
    5.3020    3.6059  -22.3025 C   0  0  0  0  0  0  0  0  0  0  0  0
    4.1371    3.9043  -20.1786 N   0  0  0  0  0  0  0  0  0  0  0  0
    6.6623    3.2904  -22.8248 N   0  0  0  0  0  0  0  0  0  0  0  0
    2.8765    3.9616  -18.1911 N   0  0  0  0  0  0  0  0  0  0  0  0
    5.0301   -2.7881  -20.7701 O   0  0  0  0  0  0  0  0  0  0  0  0
    2.9782   -3.0351  -18.9615 S   0  0  0  0  0  0  0  0  0  0  0  0
    5.1607    4.7649  -25.4574 Cl  0  0  0  0  0  0  0  0  0  0  0  0
    8.1274    8.7773  -22.7882 H   0  0  0  0  0  0  0  0  0  0  0  0
    6.2561    9.3938  -24.3069 H   0  0  0  0  0  0  0  0  0  0  0  0
    7.3727    4.8220  -18.2380 H   0  0  0  0  0  0  0  0  0  0  0  0
    5.2819   -3.3034  -16.1698 H   0  0  0  0  0  0  0  0  0  0  0  0
    8.6980    6.3849  -22.4259 H   0  0  0  0  0  0  0  0  0  0  0  0
    5.9213    1.7069  -20.2855 H   0  0  0  0  0  0  0  0  0  0  0  0
    7.5930   -0.3941  -23.6523 H   0  0  0  0  0  0  0  0  0  0  0  0
    4.9038   -0.3991  -19.4654 H   0  0  0  0  0  0  0  0  0  0  0  0
    6.5998   -2.5084  -22.8242 H   0  0  0  0  0  0  0  0  0  0  0  0
    4.9568    7.6210  -25.4692 H   0  0  0  0  0  0  0  0  0  0  0  0
    9.3073    1.4681  -23.2439 H   0  0  0  0  0  0  0  0  0  0  0  0
    9.5500    4.0781  -24.0615 H   0  0  0  0  0  0  0  0  0  0  0  0
    7.4342    4.4595  -20.7104 H   0  0  0  0  0  0  0  0  0  0  0  0
    5.1938    4.5697  -17.0380 H   0  0  0  0  0  0  0  0  0  0  0  0
    6.5774   -2.9834  -18.4848 H   0  0  0  0  0  0  0  0  0  0  0  0
    2.7171   -3.3475  -16.4778 H   0  0  0  0  0  0  0  0  0  0  0  0
    4.6642    2.7181  -22.4244 H   0  0  0  0  0  0  0  0  0  0  0  0
    4.8858    4.4395  -22.8872 H   0  0  0  0  0  0  0  0  0  0  0  0
    2.1678    3.7175  -18.8531 H   0  0  0  0  0  0  0  0  0  0  0  0
    2.9505    3.2412  -17.5015 H   0  0  0  0  0  0  0  0  0  0  0  0
  1  2  1  0  0  0  0
  1  5  2  0  0  0  0
  2 10  2  0  0  0  0
  3 13  2  0  0  0  0
  3 14  1  0  0  0  0
  4 15  1  0  0  0  0
  4 16  2  0  0  0  0
  5 18  1  0  0  0  0
  6  8  2  0  0  0  0
  6 17  1  0  0  0  0
  7  9  1  0  0  0  0
  7 17  2  0  0  0  0
  8 19  1  0  0  0  0
  9 19  2  0  0  0  0
 10 20  1  0  0  0  0
 11 12  1  0  0  0  0
 11 21  2  0  0  0  0
 12 22  2  0  0  0  0
 13 23  1  0  0  0  0
 14 24  2  0  0  0  0
 15 25  2  0  0  0  0
 16 31  1  0  0  0  0
 17 21  1  0  0  0  0
 18 20  2  0  0  0  0
 18 22  1  0  0  0  0
 19 30  1  0  0  0  0
 20 32  1  0  0  0  0
 21 28  1  0  0  0  0
 22 28  1  0  0  0  0
 23 26  1  0  0  0  0
 23 27  2  0  0  0  0
 24 27  1  0  0  0  0
 24 29  1  0  0  0  0
 25 30  1  0  0  0  0
 25 31  1  0  0  0  0
 26 28  1  0  0  0  0
  1 33  1  0  0  0  0
  2 34  1  0  0  0  0
  3 35  1  0  0  0  0
  4 36  1  0  0  0  0
  5 37  1  0  0  0  0
  6 38  1  0  0  0  0
  7 39  1  0  0  0  0
  8 40  1  0  0  0  0
  9 41  1  0  0  0  0
 10 42  1  0  0  0  0
 11 43  1  0  0  0  0
 12 44  1  0  0  0  0
 13 45  1  0  0  0  0
 14 46  1  0  0  0  0
 15 47  1  0  0  0  0
 16 48  1  0  0  0  0
 26 49  1  0  0  0  0
 26 50  1  0  0  0  0
 29 51  1  0  0  0  0
 29 52  1  0  0  0  0
M  END
> <OMEGA_C>
1/DxQCQWAEG7TLrBhxDQQFiqBUF3MMHBPy7PQC37kUC6OZbB9jmZQLz+TMA5AInBxiP8QFLa1ECV
n7jBiEPBQMbTSz/q1KbBIKTfQEXwx76nDrbBMjGvQD8hy76UDqPBc8zNQAdby78xRbLBYGy4QAMu
60DRbsbBw7QIQempDkA4ZbnBL6kKQa7iZ0BoHL3Bs0bQQPhGi0BOUKHBPfmnQEuojUBb25DBuQ2w
QDqvQcBoMJPBPxpbQNx7TsAVSYrB1WLYQJfdUD9qirDBEDTkQNCNtECNvr3B4O20QCrmzL+g4ajB
1lnCQEe9v0AuwcTBzDjpQONNBED8GLXBj5TuQOush0ArgbvBAfWpQObXf0CLu6bBsuWCQFJFg0Bv
wJbBg5CUQDsAO8DkvZvBVqqpQMPHZkCaa7LB6WKEQCTgeUDAbaHBkTHVQNWVUkAumbbBzBg4QC2K
fUBuh5HBgvagQJJwMsA5KabBUJo+QLA+QsAvsZfBYSSlQCN6mEDJqMvBCAoCQfNvDEE7TrbBTDLI
QNZMFkF4dMLBBe3rQLdNmkBa55HBdwWpQCprU8CrW4HBESsLQWVRzEBTaLPBjXu9QBN72j/MSKLB
A/ryQGrFyb7qN73BK+ycQPRbzL4RuZvBujHTQC6KIMAJmLbBZZ6eQC3f80DtwMvBxOoUQU7ruz95
87nBoMwYQTKAgkDjfcDB2uTtQFm0jkDQrqXBvTOmQGQ7kkDpTYjB5XnSQDDwPsDN4JPB/OQtQAY9
VsBx0oPBv0CVQIL1LUAsZbPBb1icQMUQjkACGbfBwr0KQAXsbUAr05bBeNU8QCZwT0AAA4zBPnny
QPUhAEGPc7rBQZLQQJrLBUHEUMHB2E7PQAgnkkAXY5bBMlWVQNsHSMA/5ojBbVj8QLTl1EAnv7jB
xb3fQIxVw76PALbBJ/K/QKSTTD+q7abBU6TOQDI0y79KL7LBkoGuQDDnzb7nIqPBm624QEKP60Dd
iMbBIm8IQf8yD0DcPrnByX4KQflNaEBq9bzBNfPPQPCni0DbeqHBpVeoQDytjUDP7JDB1TiuQGW4
O8A0w5LBYohUQL7GUMDw2IrBc6HXQLTkUj+0jbDB3RLkQAq6tECh0b3BsZi1QJAEzr891ajBbVfC
QLgRwEBI2MTBCG/oQCLbBEB2F7XBJx7uQK3Vh0DTibvBN3SpQBJRgEDr0qbBKgmDQMpbg0AcvJbB
v8KUQCCGO8DdvZvBLe2oQJ+kZ0BkhbLBOxWEQLNhekBUbaHBPnLUQNwMU0Bar7bBct04QAySfUAo
Z5HBOSijQPVENMC7AqbB2xQ+QAj3ScBJfJjBWiClQNTxmEDGy8vBX3ACQWRwDEHbf7bB09/IQD5z
FkGslMLBIjjsQGxvmkBZIZLB11SjQML7ScDxAIHB80ULQa44zED5i7PBjzDzQNh3wb7sJL3BAT+7
QFsg2z9kdqLBOsDUQDNrIMBVdbbBS7KbQJdX0b5o45vBgOKeQIBi9EBW2MvBZ6kUQbz+vD9jtLnB
2b4YQf+5gkAnN8DBy2LtQN46j0AD66XBpeumQGkVkkDqXIjBUIvQQLK/M8A28JLBltkkQFycWsDp
toTBfVyUQJAKL0CvfrPBcbqbQLaTjkD/MLfBtQMLQCwdbkCoo5bBURw+QGNOT0AI6ovB0PH1QIDY
/0DP1LnBQpjUQHNEBkHUtsDBcQLPQExBkEDVTpbBluNPQJaDSsA0zozB75X+QC4f1ECKSbjBvKzb
QBJpxL5Jn7bBCSC9QFyRSj+yWqfBsALLQN6xy7/hurLBLEWsQHp1077udaPBy/u7QFqD7UBnGsbB
KZAHQW2ZDEDRbLnBxVcKQY/9ZUCM5rzBIafPQH+5ikAKb6HBsN+nQLU6jEB75pDBFXVZQPzMP8AI
bZjBGaeOQO5BT8B8nYfBb2XUQG04UT/XCrHBT5/lQDD4tEByir3B72mzQB9vz78BJqnByWTEQLis
wUBMksTBgGTmQBz/A0CCY7XB/V7uQEKyh0C0b7vBB/+oQLqngEDL3KbBOGqCQIdMg0CUypbBs9aW
QJo9PMDvgpvBGmGoQEcQakBdnbLBenqDQPfqe0BCg6HBFq3TQIOZU0AUx7bBe0I3QO2ffkAZg5HB
z4KjQGwTNsAs66XBMkG5QI9pRcC2jpDBXjCmQI3Sm0D8ssvBrW8EQQ/YC0G4vbXBGN/NQH8PF0Ep
3cHB2gzsQB14l0Aw/JHBmM0SQO8+TsAiyojBBC8MQTJlykCRErPBQSbuQPQJwL587L3BNUq4QIxS
2j8D66LBi1XQQNdnIMCCH7fBoeGZQG/6175FJZzBJZqiQIBi90AnbMvBz28TQVIetT/387nBxtgY
QfP5gECoCcDBeTXtQIcUjkAa1aXBOnCmQKDtj0BEUYjBYkIkQGU/O8Cw6Z3B1T2SQEL3V8CmLn7B
GgqTQN3OMkAhvrPBqwucQPV8kEBgLbfBhCsJQPwzcUCSzZbBIiU7QMRgT0A6I4zB+sH1QN8hAEFj
kLrBnbvTQMvzBUEcXMHBCQTPQDYBkEBZCpbB5F9OQB7aScCXDY3BsMn+QOXK1EAit7jB23+9QKfv
SD/lUafBHqzbQGDYwb6KsLbBk56sQLKK177qeaPBAPTKQBNRy79g2bLBePK6QJQY7EDFZcbBJMkH
QVTTDEDKULnBqY4KQaZJZkDJxrzBNfnPQIMvikBYKKHBGK+nQC1fjECMs5DBTjBZQJBaP8DfqJjB
apyNQMIIT8AUvYfBxazUQAQ8UT/PBLHBTqflQDbetEDPnr3BdKCzQDH2z7/0OanBXPXDQESHwEAL
oMTBUNfmQGQjBEBaR7XBqM7uQJ/Vh0A4SbvB2mWpQNRTgEBxpKbBJF+CQCplg0BPpZbBCt6WQKqH
PMArnZvBGuWoQJAgakBTabLBXbuDQGiue0DxWqHBXC/UQKzXU0DmmbbBKcw2QBJhf0DDcJHBLxik
QFKbNsBB+6XBrrG4QD7rRcBIjJDBQSamQAOemUDKgMvBIXQEQZZbDEEcxrbB8aHMQHylFkH8tcLB
vffrQP4jl0AqrJHBrtwQQK4hTcBJIonBB30MQardy0DIibPB+8G4QLYY2T/d1aLBifftQJi/ur7Z
BL7BgE6aQAda3r5RJpzBRgbQQJ71H8BPULfBrPqgQJkm9UBMocvBCaoTQRiftT+C2rnB3AwZQfEk
gUDB67/BJrLtQKApjUC/gKXBIf6lQMdnkEB+IYjB8ZQkQC1sOsDbOp7BuryQQJmlV8A7Z37BCYuT
QEf4MkBImbPBA5mcQB6rkECB7LbBQ/0IQFD3cUARxZbBkh06QMBSUECzCIzBRgO2QAKJ6EB6S8bB
RXDNQCkMBUHDlcHBUlHPQKHLkUDeOZbBufSWQBZ4TsDHE4nBY5DBQIzUvUDVQsTBp9PBQHZaST/R
3abBu7DeQK2AyL4MVLbBZPWvQLW/0L7sDaPB3CHNQBeIy79dgLLBK0TwQNh3AEHmzLrB7q4IQdKj
DUCljrnBSMkKQUI+Z0BMGL3BAFfQQMLqikDBTaHBEyCoQHu5jUDK2ZDBXx6vQGKRRMC3F5PB4eVW
QLA5S8DspYrB6DjYQHjwTj+xrrDBYFfkQNKBtEDpb73BaEC1QHLszb8P9qjBacf7QEoz1kDerbjB
9EfpQBiVA0B4MbXB1jfvQAK/h0APMrvBSPOpQHe4f0D6vabB1fqCQP2Fg0CpvJbBYbeUQL/bOsBO
zpvBKcepQCWYZUBSbbLBMF6EQE1XekBfbKHB8H/VQMogUkC1iLbBBVc4QMRufkAhfJHBwGmiQD++
M8ANH6bBruc9QJN1PMCsHpjBFfcSQeS3y0By0K/BuDibQPqW70DAdcvBqbLEQN11FUHdLMPBtBzs
QDgPmkDz6pHB0b2lQJ1OV8CvWIHBnMmvQOgTpECx7cfB4HO+QOL62D/hRaLBCTbxQOSTx751n73B
PDWeQFb3074qpJvB4/rRQEVmIMDF6bbBFhgBQRVjDUEzN7fBPcIUQfwMuT9zRLrBiOAYQVIMgkBB
j8DBPAPuQAT9jUCGqqXBeGemQFpZkkCcTIjBH6HRQKniRMBVjZPB5f4nQCcTUcANWITBxbaVQN80
LEBGVbPBZSycQDUbjUClLrfBEckKQGoDb0Bcw5bB0fw8QOBTUECC94vBSRO3QM4S6UDSnMbBLNDO
QB5KBUGb+cHBzDXPQO3mkUDxSpbBIw2YQEmtSMAZ7IjB9BXCQDtQvkD4ccTBC4/fQMcNxb4LCbbB
mZXAQEevTT/M46bB6uHNQNTPyr8kPrLBvJ6uQLkRyL5zHqPBolvxQFGpAEGiHLvBia4IQWeWDkBQ
TbnBbNcKQWTxZ0B/6rzB1g3QQPaGi0BEY6HB7CSoQLpkjUDG4pDBxluvQD98O8BlAZPBiHFZQJZq
UcD8dIrBCwXYQAJgUj8vjbDBL6LkQLDktEDvjb3BGd20QIhwzL/l4ajBjUz8QO+O1kBS2bjBegrp
QDGOBECWE7XBGDHvQI0aiEASNbvB8aKpQCd/gEBG0abBI/SCQCM0g0BCwZbB+oaUQD/ROsDmu5vB
tX+pQLAbZ0COg7LBkCmEQMOtekBHdqHBikPVQKIUU0C+jbbBSJo4QM62fEAFdpHB5kWhQLl9MsCh
IabBIr4+QFiwScDm95fBD+0SQTEPzECd0K/BS3ScQEE08EBx08vBsobGQOW2FUGKrsPBMQvsQMUd
mkCx/pHBKkinQG03S8BLLIHBYxKwQIqbpEBvD8jB5/7yQP5Vxr7pLb3BVXy8QMOc2z9TYaLB8ITT
QIROIMDtibbB6wqcQO4Wyb5Z1ZvBpMABQf2NDUE8k7fBHM8UQeIeuz8237nB9gUZQUNVgkDMTcDB
HqHtQMn2jkA/xqXBjoymQA2tkUBbUojBZp3RQNtCM8AxgZPBvbkrQLi/W8BfG4TBezuVQIUMLkAo
drPBoDCcQDADjkAERbfBIO4KQM1nbUB1upbBD909QM4oTkDPAozBjwu6QBYL60DnPsbBLITSQMrK
BUHGa8HBzibPQIH1j0B1TpbB/xNOQKsKSsC2A43BP9rDQFbhv0DYPcTBvVbbQNrEwb46q7bBLyO9
QNaQSj+hU6fBfa/KQIQVy785zLLBe1qsQGxS1L4tcaPB4a/0QDh7AEFNkLrBM6IHQYI7DECoXrnB
l4gKQXWhZUBrzrzBxLDPQJCRikBObqHB0Q+oQJHzi0A85JDB7etYQCo7P8B6nZjB5XSNQPJYT8Dv
sofBk0zUQIGvUT9GCLHBFPPlQNMZtUClVr3BXGezQGRkz78lLKnB4nz+QCHI1UDZerjBeIXmQE77
A0AWVrXB+hTvQOHth0AnJLvBkfmoQJvcgED64qbBnoqCQGhEg0C8x5bBHb2WQB5SPMCVj5vBY4Co
QOrVaUAGprLB1XqDQFxkfEC2hKHB9QHUQDG9U0AosbbB9aU3QCGAfkDieJHB3v2jQLxeNsBp66XB
zYy4QO36RcDrf5DBNuUTQWOSyUC1gK/BYsmfQCM780AXesvBBxTLQG9gFkHV+sLB/DzsQMINl0CZ
/ZHBPo4QQORwTcBxGYnBykKxQJDnpkDC/cfBYKDtQGjbu77h/73B7FW4QJ4v2j/N36LBzcXPQNTv
H8D1PbfBnhmaQFJg2r4qG5zB+LUDQcUCDUHi5LbB+G8TQVfjsz+E67nBFAAZQSeLgEDhDcDB2UXt
QLzCjUB806XB57CmQL55j0CsTYjBO1YkQOMnOsDIL57BRpKQQGovWMCmVH7BKlqTQLhDMkApwrPB
SxqcQAUtkEAgRrfBx14JQLF2cUCgwJbBrZA7QPL5TkDtIozBeju5QMti60CAwsXBPqXRQITZBUHU
0sDBG0vPQF6tj0DBT5bBa/FOQP+OScCc3IzBSJPDQDMjwEAjDcTBpm+9QOqZST97XKfB68HaQOfZ
xL5sy7bB9ImsQDO81L6tcqPBoPrJQE6Ly78h5bLBBE70QItgAEGKJ7rBNbcHQXGxC0BzebnBMp8K
QYAxZUD25bzBQ//PQIUDikArbqHBAROoQJsQjEAM75DBFUNZQCwNP8D4eZjB3gGOQDD1TsAimofB
D0rUQKYfUD91HbHBmBHmQIkDtUCQTb3BJCWzQOCUz7+gMqnBxpH+QCB71UDlV7jB8LTmQDl5A0A+
bLXBZUHvQLe4h0CQObvB00epQAyQgEBY6qbBcp2CQB1qg0CI2ZbBndaWQIwlPMAcfZvBCMeoQCU5
aUBJrbLBUbODQGtffEBvlKHBEjzUQKNEU0C8wrbBk5k3QEYLf0BxlJHBZM6jQBtkNsAM4aXBW+e4
QNfZRcC6eJDBTx8UQdHayEBPg6/BQ5ueQMPO80CL2crBQcrJQGZ3FkHVJsLBjVnsQLmtlkA3+ZHB
qZkRQI2wTMA95ojBuRaxQCNap0Ao6cfBQ/W4QA692T8t5KLBPrLsQEUWwL7eLb7BdYiaQANC2b7W
EpzBj5/OQAcmIMCOX7fBIYgDQa/RDEEva7bBj4ETQUy9sj+8C7rBBhcZQYpVgEBrJMDBJLHtQNHN
jECPy6XBYZCmQGjdj0C+WojBlWkkQN4rOsDqAp7BVVGRQCm3V8C/JH7B+6qTQHmTMUBDxrPBx0ic
QDDZj0BTS7fB0HwJQNjqcUAV4ZbBZkU7QHyqT0CaOIzB

> <OMEGA_E>
sERZPrA9Wj6gK1s+8IBbPhDKcT6QzHE+4EVzPpiFcz4=

> <OMEGA_NBR>
     85721

$$$$
50161604
  -OEChem-04172616093D

 61 65  0     0  0  0  0  0  0999 V2000
    5.7015    7.4443  -24.5869 C   0  0  0  0  0  0  0  0  0  0  0  0
    6.4786    8.4496  -23.9820 C   0  0  0  0  0  0  0  0  0  0  0  0
    6.0498    6.0918  -24.4209 C   0  0  0  0  0  0  0  0  0  0  0  0
    6.1823    0.8444  -20.8531 C   0  0  0  0  0  0  0  0  0  0  0  0
    6.8043   -0.3188  -22.9026 C   0  0  0  0  0  0  0  0  0  0  0  0
    5.5972   -0.3317  -20.3531 C   0  0  0  0  0  0  0  0  0  0  0  0
    6.2260   -1.4973  -22.4036 C   0  0  0  0  0  0  0  0  0  0  0  0
    6.3449    4.9128  -19.0369 C   0  0  0  0  0  0  0  0  0  0  0  0
    7.6022    8.1018  -23.2079 C   0  0  0  0  0  0  0  0  0  0  0  0
    8.5702    2.2783  -23.2209 C   0  0  0  0  0  0  0  0  0  0  0  0
    8.6992    3.6888  -23.6383 C   0  0  0  0  0  0  0  0  0  0  0  0
    6.3755    4.5914  -20.3873 C   0  0  0  0  0  0  0  0  0  0  0  0
    3.2523   -2.7184  -19.1095 C   0  0  0  0  0  0  0  0  0  0  0  0
    5.5329   -3.1010  -18.3994 C   0  0  0  0  0  0  0  0  0  0  0  0
    3.7604   -3.1879  -16.8764 C   0  0  0  0  0  0  0  0  0  0  0  0
    6.7583    0.8633  -22.1432 C   0  0  0  0  0  0  0  0  0  0  0  0
    7.1686    5.7330  -23.6367 C   0  0  0  0  0  0  0  0  0  0  0  0
    5.6112   -1.5170  -21.1358 C   0  0  0  0  0  0  0  0  0  0  0  0
    5.2229    4.5485  -18.2860 C   0  0  0  0  0  0  0  0  0  0  0  0
    4.6179   -2.8121  -19.4300 C   0  0  0  0  0  0  0  0  0  0  0  0
    7.9510    6.7487  -23.0293 C   0  0  0  0  0  0  0  0  0  0  0  0
    7.3046    2.1022  -22.7154 C   0  0  0  0  0  0  0  0  0  0  0  0
    7.4872    4.3063  -23.4317 C   0  0  0  0  0  0  0  0  0  0  0  0
    5.2546    3.9642  -20.9824 C   0  0  0  0  0  0  0  0  0  0  0  0
    4.1107    3.9686  -18.9368 C   0  0  0  0  0  0  0  0  0  0  0  0
    5.2751    3.5679  -22.4389 C   0  0  0  0  0  0  0  0  0  0  0  0
    7.4098    3.9594  -16.0233 C   0  0  0  0  0  0  0  0  0  0  0  0
    5.8931    3.6961  -16.1803 C   0  0  0  0  0  0  0  0  0  0  0  0
    2.8434   -2.9024  -17.8357 N   0  0  0  0  0  0  0  0  0  0  0  0
    5.0894   -3.2845  -17.1364 N   0  0  0  0  0  0  0  0  0  0  0  0
    4.1411    3.6958  -20.2607 N   0  0  0  0  0  0  0  0  0  0  0  0
    6.6698    3.3158  -22.9083 N   0  0  0  0  0  0  0  0  0  0  0  0
    2.9693    3.6549  -18.2119 N   0  0  0  0  0  0  0  0  0  0  0  0
    8.1478    3.5704  -17.1832 O   0  0  0  0  0  0  0  0  0  0  0  0
    5.0308   -2.7121  -20.7390 O   0  0  0  0  0  0  0  0  0  0  0  0
    5.2215    4.7423  -16.9286 O   0  0  0  0  0  0  0  0  0  0  0  0
    9.3107    6.3606  -21.9929 Cl  0  0  0  0  0  0  0  0  0  0  0  0
    4.8380    7.7112  -25.1782 H   0  0  0  0  0  0  0  0  0  0  0  0
    6.2131    9.4883  -24.1116 H   0  0  0  0  0  0  0  0  0  0  0  0
    5.4585    5.3230  -24.8959 H   0  0  0  0  0  0  0  0  0  0  0  0
    6.1916    1.7388  -20.2477 H   0  0  0  0  0  0  0  0  0  0  0  0
    7.2844   -0.3207  -23.8700 H   0  0  0  0  0  0  0  0  0  0  0  0
    5.1379   -0.3342  -19.3757 H   0  0  0  0  0  0  0  0  0  0  0  0
    6.2527   -2.3986  -22.9982 H   0  0  0  0  0  0  0  0  0  0  0  0
    7.1709    5.4338  -18.5757 H   0  0  0  0  0  0  0  0  0  0  0  0
    8.1993    8.8760  -22.7490 H   0  0  0  0  0  0  0  0  0  0  0  0
    9.3348    1.5196  -23.2991 H   0  0  0  0  0  0  0  0  0  0  0  0
    9.5889    4.1542  -24.0360 H   0  0  0  0  0  0  0  0  0  0  0  0
    7.2493    4.8184  -20.9800 H   0  0  0  0  0  0  0  0  0  0  0  0
    2.5301   -2.4993  -19.8821 H   0  0  0  0  0  0  0  0  0  0  0  0
    6.5878   -3.1757  -18.6182 H   0  0  0  0  0  0  0  0  0  0  0  0
    3.4184   -3.3447  -15.8641 H   0  0  0  0  0  0  0  0  0  0  0  0
    4.6808    2.6516  -22.5702 H   0  0  0  0  0  0  0  0  0  0  0  0
    4.8356    4.3789  -23.0380 H   0  0  0  0  0  0  0  0  0  0  0  0
    7.5665    5.0338  -15.8476 H   0  0  0  0  0  0  0  0  0  0  0  0
    7.7809    3.3885  -15.1594 H   0  0  0  0  0  0  0  0  0  0  0  0
    5.7537    2.7406  -16.7072 H   0  0  0  0  0  0  0  0  0  0  0  0
    5.4408    3.6323  -15.1796 H   0  0  0  0  0  0  0  0  0  0  0  0
    2.2900    3.2442  -18.8201 H   0  0  0  0  0  0  0  0  0  0  0  0
    3.2026    3.0068  -17.4869 H   0  0  0  0  0  0  0  0  0  0  0  0
    9.0709    3.7480  -17.0461 H   0  0  0  0  0  0  0  0  0  0  0  0
  1  2  1  0  0  0  0
  1  3  2  0  0  0  0
  2  9  2  0  0  0  0
  3 17  1  0  0  0  0
  4  6  2  0  0  0  0
  4 16  1  0  0  0  0
  5  7  1  0  0  0  0
  5 16  2  0  0  0  0
  6 18  1  0  0  0  0
  7 18  2  0  0  0  0
  8 12  2  0  0  0  0
  8 19  1  0  0  0  0
  9 21  1  0  0  0  0
 10 11  1  0  0  0  0
 10 22  2  0  0  0  0
 11 23  2  0  0  0  0
 12 24  1  0  0  0  0
 13 20  1  0  0  0  0
 13 29  2  0  0  0  0
 14 20  2  0  0  0  0
 14 30  1  0  0  0  0
 15 29  1  0  0  0  0
 15 30  2  0  0  0  0
 16 22  1  0  0  0  0
 17 21  2  0  0  0  0
 17 23  1  0  0  0  0
 18 35  1  0  0  0  0
 19 25  2  0  0  0  0
 19 36  1  0  0  0  0
 20 35  1  0  0  0  0
 21 37  1  0  0  0  0
 22 32  1  0  0  0  0
 23 32  1  0  0  0  0
 24 26  1  0  0  0  0
 24 31  2  0  0  0  0
 25 31  1  0  0  0  0
 25 33  1  0  0  0  0
 26 32  1  0  0  0  0
 27 28  1  0  0  0  0
 27 34  1  0  0  0  0
 28 36  1  0  0  0  0
  1 38  1  0  0  0  0
  2 39  1  0  0  0  0
  3 40  1  0  0  0  0
  4 41  1  0  0  0  0
  5 42  1  0  0  0  0
  6 43  1  0  0  0  0
  7 44  1  0  0  0  0
  8 45  1  0  0  0  0
  9 46  1  0  0  0  0
 10 47  1  0  0  0  0
 11 48  1  0  0  0  0
 12 49  1  0  0  0  0
 13 50  1  0  0  0  0
 14 51  1  0  0  0  0
 15 52  1  0  0  0  0
 26 53  1  0  0  0  0
 26 54  1  0  0  0  0
 27 55  1  0  0  0  0
 27 56  1  0  0  0  0
 28 57  1  0  0  0  0
 28 58  1  0  0  0  0
 33 59  1  0  0  0  0
 33 60  1  0  0  0  0
 34 61  1  0  0  0  0
M  END
> <OMEGA_C>
e3K2QL037kDoscTB/VDPQF8xB0EZ27/BRJjBQN/vwkAOXsPBU9XFQCctWD8P06bBcbzZQLY/o76T
OLfBgByzQIrQqb4406LBRzvHQPmov7+kOrPBCgnLQPQ1nUCNS5jBhUXzQBmhAUGwqbnBYB8JQXTP
EUBtxLnBzi8LQQkWbEBAG73BPATMQFjskkAgGaPBMiVQQGj6LcA64JjBZg2xQAt2RsDxMZPBv6lw
QAQGTMDqAofBSETYQKkCXT9JJbHBimXlQOZ0t0DmF73BGo+zQMEswr8lFqnB0yGnQEmNkUCwSZLB
PcaTQKn5M8CycJvBgG7+QDT110DqO7jBsL/pQCeLBkAVubXBVZfvQM/MiUAVdLvBhSWoQLq0fUAO
3KfBA4uDQIr9fUB/fpfBp82oQNpXZEDcgrPBKR3tQAxmfUDML4DBDpS8QHaMbEBKcYHBevk1QI3A
OcCbr47BYtyiQOM0UsBgF4nBM4SEQP6HbEDoFaLBm27VQCA2VEAyRLfBiQg+QIHpaUAGspHBXF0C
QdCAZEA2d4nBK/ygQLyTLcB06aXBcRanQA/Bl0DTbYfBzvgUQa+Jy0CE8a/BRNGaQHPC9kDkbMnB
t9HGQETQF0GP5MDByauuQLZVqkDPKsfB1iHGQJmQ3j9L+6HBhRnpQOQ1pL7W9b7BZWmkQIsaq75v
AZvBhBbIQDqCGcA//LfB/HflQKvhrUAhm5TBgzADQfUDDkHj/bXBY1sVQYKCwj+TZLrBMGwZQVDv
hEDPScDBJPrnQGMwmkAe16fBtO0hQOjzH8B9Dp/Bn8/SQLU+S8AN8pTBZ8daQKoPVsAx033BbcmV
QCmzKUDBj7TBAr2aQE8gjEDhTbjBJCHyQEsVoUCqj33BS/34QJfdWEDNjHLBEB64QAVmL0BqqIXB
1RquQFR4aEDI33LBio8SQCqgT0Cfj5bBqPZMQJtvQEBG5YvBbSIRQULfb0BWXojBALzZQA8N+kDL
y7PBiqHBQL0vBEFvorzBUQXoQHBez0DqYLPBzfbjQGeAtj4s4KfBMzPCQIJOLL51ALnB2L/TQLCd
Vb8dh6PBt2SyQLZvr79ssrTBWl+GQBNeWUA2mZTBSqK3QJf760B7CsXBZJQIQY7mDUC5orvBbgwJ
QYn6aUDHUr7BO9eEQDsRVUCez5/B8c5ZQJ8bI8DqvZrB0wixQFEwRsBcr5LBIFRoQFNuL8BjL4jB
RxjbQCxeMD+rlrLBhEXeQKASs0A40bvBfKi6QJZZ2r9A7KnB81WuQJXAYkDTjI/BtbiYQGinNcAl
85vBA8rFQNE1wUAzpMTBi03qQAhZ+j9d6bbBbtDrQGZyhkDmErvBWz6rQH9gWkAtu6XBs7/TQMJH
Z0C57ZXBQE6pQHy2VEBN4LHB/5zXQBb7sUBnhnzBlN+rQFrxm0BvZn/BxXE2QOJ6IMBV4ZDB+n6e
QNAKQsCq7ojBuIPRQA5xZEBTu6DBKLfUQEkDSkDO0bbBXuj7QHbqbEDmMJHBujD0QICClkCJHHHB
cc6qQNK1OcB2AqbBrIiwQIvpY0CEhoTBmn24QHQDnkCeDM/BcDrhQHPoB0H7Wa3Be8y2QA6VFEGd
97zBtGr6QCFRxEAym6zB9TP3QCQPgj+7AqPBpUO7QN5QxT1vMsHBb2PaQEVEi7+DS5vBW96fQCGI
AsAhp7nBKblSQCCJVUBu7Y/BPxylQGkK90B5ysvBhC8VQUI+wD9mHL3BkQwWQRnehUCrJMLBaR5N
QEDDTUCu36PBS8QyQEb1FsA9taHBFYrSQKszVsARYZPBYHJLQBRkLMBAWIDBwleVQLyLHUCSG7TB
RMSaQErjh0CD/rTBGTzlQPk+uUDIK4bB0kvTQM7hz0AtfnPBbJGcQJlxmEDWpW/B9JyXQJfor0A+
4oTBpTYJQQYUbkB435bBAaH9QJRBkUAO14zBQIUHQV9bpEBIa2/B83vZQKgh+kAq37PB/Q7BQKkV
BEEkrrzBrwHoQG6Mz0DWb7PBzZHjQKY8tz4wxqfBGZbCQK7ZNL7H+rjBb3nTQK8yVr98dqPBwcmy
QEqysL8Xs7TBRIGUQMs1JEDJVJTBdgS3QHOY60A4C8XBo38IQdveDUCNj7vB/egIQffoaUAPQb7B
du2SQHFcHkCuiJ/BjuFZQNwFJMAzxprBCwyxQB3uRsCwsZLBGzloQPpNMMATN4jBpRnbQOJuLz8A
g7LBzvPdQBP2skClyrvBgsK6QINS279T6KnBZQCuQM8XZEDpm4/BcsaYQFZzNsCO95vBkUzFQDDe
wEAmnMTBHz/qQP4k+j9GybbBUorrQGZahkAt+7rBHNqqQLGfWEB8yKXB7bfEQHjFjkAoV5bBzNqo
QE+eU0Az6bHB6DDTQPAmaUAi+mbBJebWQJ68V0AwD3/BWmk2QIlsIcAd65DBi3SeQCzVQsCq8ojB
iujCQK5Ci0ARIaHBVY3UQEy7SUCWr7bBSXDcQLtAsEBzA5LBwMn7QHHYXECzCF3Buu+qQPNOOsDq
BKbB03GuQPP2a0C4mYTBaAy4QCuAnUD++87B6wrhQJEFCEGPdq3BUAK2QHRxFEEqBr3BcNX6QKHG
xEDqtazB/mX2QDwFgz+x3KLBrfC7QF5Srz3aMcHBrOrZQMpui7/lN5vB+3+gQEBVA8Dor7nBHW2C
QB6z8D9fao/BM1ykQDx69kDlycvBfRoVQaxLwD+3EL3B698VQTTfhUAGGMLBbDp/QEOY2z8GV6PB
V+UyQNDwF8BCv6HBtJDSQMvcVsCIYJPBMEJLQGFGLcAlYYDBKSGVQPVPHEAuOLTBWTeaQCdTh0BY
ArXB8o7IQF29lUB5a2TBgsK7QK7cPECw6V/B+VXwQMvvf0Ae9YLBJZ3eQKLfE0BC24DBnULpQM+Y
wUBU7JfBa1HJQGPVwkDilo3Bx2f5QPuqZ0DOH07B

> <OMEGA_E>
aNfHPrpGaD8Q22k/

> <OMEGA_NBR>
     88993

$$$$
50161598
  -OEChem-04172616093D

 57 60  0     0  0  0  0  0  0999 V2000
    6.6531    8.3957  -24.1945 C   0  0  0  0  0  0  0  0  0  0  0  0
    5.8478    7.4095  -24.7989 C   0  0  0  0  0  0  0  0  0  0  0  0
    7.7056    8.0212  -23.3346 C   0  0  0  0  0  0  0  0  0  0  0  0
    6.3746    4.4491  -18.7430 C   0  0  0  0  0  0  0  0  0  0  0  0
    6.0918    6.0486  -24.5388 C   0  0  0  0  0  0  0  0  0  0  0  0
    7.9563    6.6603  -23.0802 C   0  0  0  0  0  0  0  0  0  0  0  0
    5.9039    1.0045  -20.6839 C   0  0  0  0  0  0  0  0  0  0  0  0
    6.7184   -0.3465  -22.5346 C   0  0  0  0  0  0  0  0  0  0  0  0
    5.3355   -0.1186  -20.0896 C   0  0  0  0  0  0  0  0  0  0  0  0
    6.1646   -1.4878  -21.9310 C   0  0  0  0  0  0  0  0  0  0  0  0
    8.5712    3.5808  -23.5921 C   0  0  0  0  0  0  0  0  0  0  0  0
    8.3758    2.1957  -23.1270 C   0  0  0  0  0  0  0  0  0  0  0  0
    6.3872    4.4043  -20.1449 C   0  0  0  0  0  0  0  0  0  0  0  0
    5.1579    4.2489  -18.0741 C   0  0  0  0  0  0  0  0  0  0  0  0
    7.1442    5.6743  -23.6753 C   0  0  0  0  0  0  0  0  0  0  0  0
    6.5573    0.9142  -21.9299 C   0  0  0  0  0  0  0  0  0  0  0  0
    5.4496   -1.3732  -20.7149 C   0  0  0  0  0  0  0  0  0  0  0  0
    7.3965    4.2622  -23.3870 C   0  0  0  0  0  0  0  0  0  0  0  0
    7.1170    2.1064  -22.5812 C   0  0  0  0  0  0  0  0  0  0  0  0
    5.1809    4.1163  -20.8425 C   0  0  0  0  0  0  0  0  0  0  0  0
    3.9853    4.0258  -18.8261 C   0  0  0  0  0  0  0  0  0  0  0  0
    4.8263   -2.5468  -20.0922 C   0  0  0  0  0  0  0  0  0  0  0  0
    5.1754   -4.4688  -17.6251 C   0  0  0  0  0  0  0  0  0  0  0  0
    3.2051   -3.1701  -16.7497 C   0  0  0  0  0  0  0  0  0  0  0  0
    5.1856    3.7321  -22.3098 C   0  0  0  0  0  0  0  0  0  0  0  0
    3.9453   -3.6342  -18.0139 C   0  0  0  0  0  0  0  0  0  0  0  0
    4.0122    3.9712  -20.1763 N   0  0  0  0  0  0  0  0  0  0  0  0
    6.5462    3.3529  -22.7935 N   0  0  0  0  0  0  0  0  0  0  0  0
    2.7801    3.8253  -18.1725 N   0  0  0  0  0  0  0  0  0  0  0  0
    4.3864   -2.4662  -18.7749 N   0  0  0  0  0  0  0  0  0  0  0  0
    4.7038   -3.5862  -20.7309 O   0  0  0  0  0  0  0  0  0  0  0  0
    6.4634    9.4407  -24.3906 H   0  0  0  0  0  0  0  0  0  0  0  0
    5.0446    7.6981  -25.4607 H   0  0  0  0  0  0  0  0  0  0  0  0
    8.3196    8.7792  -22.8710 H   0  0  0  0  0  0  0  0  0  0  0  0
    7.2834    4.6341  -18.1896 H   0  0  0  0  0  0  0  0  0  0  0  0
    5.4748    5.2911  -24.9992 H   0  0  0  0  0  0  0  0  0  0  0  0
    8.7694    6.3720  -22.4304 H   0  0  0  0  0  0  0  0  0  0  0  0
    5.8435    1.9594  -20.1830 H   0  0  0  0  0  0  0  0  0  0  0  0
    7.2666   -0.4363  -23.4607 H   0  0  0  0  0  0  0  0  0  0  0  0
    4.8086   -0.0268  -19.1513 H   0  0  0  0  0  0  0  0  0  0  0  0
    6.2848   -2.4551  -22.3962 H   0  0  0  0  0  0  0  0  0  0  0  0
    9.4765    3.9873  -24.0181 H   0  0  0  0  0  0  0  0  0  0  0  0
    9.0945    1.3930  -23.2017 H   0  0  0  0  0  0  0  0  0  0  0  0
    7.3023    4.5863  -20.6888 H   0  0  0  0  0  0  0  0  0  0  0  0
    5.1192    4.2653  -16.9949 H   0  0  0  0  0  0  0  0  0  0  0  0
    5.6991   -4.7968  -18.5351 H   0  0  0  0  0  0  0  0  0  0  0  0
    5.8539   -3.8579  -17.0116 H   0  0  0  0  0  0  0  0  0  0  0  0
    4.8538   -5.3495  -17.0497 H   0  0  0  0  0  0  0  0  0  0  0  0
    2.3265   -2.5737  -17.0368 H   0  0  0  0  0  0  0  0  0  0  0  0
    2.8794   -4.0481  -16.1726 H   0  0  0  0  0  0  0  0  0  0  0  0
    3.8796   -2.5564  -16.1345 H   0  0  0  0  0  0  0  0  0  0  0  0
    4.5084    2.8772  -22.4534 H   0  0  0  0  0  0  0  0  0  0  0  0
    4.8262    4.5877  -22.9003 H   0  0  0  0  0  0  0  0  0  0  0  0
    3.2682   -4.2508  -18.6231 H   0  0  0  0  0  0  0  0  0  0  0  0
    2.0592    3.6584  -18.8452 H   0  0  0  0  0  0  0  0  0  0  0  0
    2.8581    3.0351  -17.5646 H   0  0  0  0  0  0  0  0  0  0  0  0
    4.3711   -1.5711  -18.3294 H   0  0  0  0  0  0  0  0  0  0  0  0
  1  2  1  0  0  0  0
  1  3  2  0  0  0  0
  2  5  2  0  0  0  0
  3  6  1  0  0  0  0
  4 13  2  0  0  0  0
  4 14  1  0  0  0  0
  5 15  1  0  0  0  0
  6 15  2  0  0  0  0
  7  9  2  0  0  0  0
  7 16  1  0  0  0  0
  8 10  1  0  0  0  0
  8 16  2  0  0  0  0
  9 17  1  0  0  0  0
 10 17  2  0  0  0  0
 11 12  1  0  0  0  0
 11 18  2  0  0  0  0
 12 19  2  0  0  0  0
 13 20  1  0  0  0  0
 14 21  2  0  0  0  0
 15 18  1  0  0  0  0
 16 19  1  0  0  0  0
 17 22  1  0  0  0  0
 18 28  1  0  0  0  0
 19 28  1  0  0  0  0
 20 25  1  0  0  0  0
 20 27  2  0  0  0  0
 21 27  1  0  0  0  0
 21 29  1  0  0  0  0
 22 30  1  0  0  0  0
 22 31  2  0  0  0  0
 23 26  1  0  0  0  0
 24 26  1  0  0  0  0
 25 28  1  0  0  0  0
 26 30  1  0  0  0  0
  1 32  1  0  0  0  0
  2 33  1  0  0  0  0
  3 34  1  0  0  0  0
  4 35  1  0  0  0  0
  5 36  1  0  0  0  0
  6 37  1  0  0  0  0
  7 38  1  0  0  0  0
  8 39  1  0  0  0  0
  9 40  1  0  0  0  0
 10 41  1  0  0  0  0
 11 42  1  0  0  0  0
 12 43  1  0  0  0  0
 13 44  1  0  0  0  0
 14 45  1  0  0  0  0
 23 46  1  0  0  0  0
 23 47  1  0  0  0  0
 23 48  1  0  0  0  0
 24 49  1  0  0  0  0
 24 50  1  0  0  0  0
 24 51  1  0  0  0  0
 25 52  1  0  0  0  0
 25 53  1  0  0  0  0
 26 54  1  0  0  0  0
 29 55  1  0  0  0  0
 29 56  1  0  0  0  0
 30 57  1  0  0  0  0
M  END
> <OMEGA_C>
+eXUQOtUBkFmjsHBGSG7QJoa7UAiZMbBLZT2QP5WAEFQrbrB6vzLQF9fjkCs8ZXBDvDCQA6OwUB/
T8TBWpr+QO8g1UBLpLjB2+y8QFKTgD+deKXByvzWQK5osb7IRrTBuLyqQKDW8r1+t6DBqUTFQJBx
vr/Kcq/BiCMJQQcsZUCTvLzBWwMGQTmGDEAABLnBHWTMQOTvjEDFKKHBLg2lQN72h0DLl5DBkZ3k
QH+TtUD4Zr3BfdXRQEAGaj9fcK/BBGOuQKbDr78IuKXBcLDsQJRjiECeGLvByr7jQHXOBkBAprTB
OsqlQOy4g0B6vabBvQ5/QF3TgEDjm5bBuHCaQA//IsDQvKDBw5ylQLUAj8AhAI3BiSBNQMPiSsB6
/4XBJ/ClQDrabkBrerLBg4B8QCyWaMBiHJDBtGOAQMAofkAlaaHBL3rRQOaVVkAsWbbBd+wxQIbS
dEA4YZHB/1yMQIHWHcD7MpbB3oWWQPaEZcDi2KXBStTOQCcNF0H5H8PBIm2hQIFW9kB9r8vBEB0F
QXp3DEHW97bB+RHpQOVKlEBehJHBqjGvQKxQqUBN/sfBS08MQUjny0BrcbPBnf26QKXN+j/FdqHB
uIfoQBxd376Zr7vBWuCZQGa427zoNZnBFh3JQMggHcBRK7PB558XQZYvf0AUJcDB5YIRQZhMsj8P
nbnB2azpQOLCkkCngqXBj9CjQIl9iECg9YfBal+2QGZ/mcDTR5TBeVO7QEXndsDaF4jBUlKbQAEv
q8DNZYjBCuYUQCq3JMBkS4jByUg4QKOJgcBvYYHBF0t4QIqcI8B9E4HBFEWQQGgjOECGoLPBQHCa
QF7OkkDmM7fBGipRQIUGiMA2/JTBDcoDQOwjakDlwpbBS+o2QIQ/QkBfhIzBFeCLQP8Yyb+OopLB
6O7UQIZNBkEXk8HBL9v2QDpVAEF1w7rBuRu7QIoD7UBMYMbBNAbMQOa+jUAZ0ZXBIgT/QJIe1UBR
v7jBUhfDQGR6wUBGU8TB8sfWQDQOsL52W7TBMIe8QOutfz+8hqXBWwPFQMx4vr/elq/BnEiqQPDL
Ar6S1KDBPiAJQd2XZEBc1bzBW+oFQS4aDECDE7nBoI3MQHScjEAmCaHB1/6kQIhUh0B9gJDB2+/k
QPSJtUD/dr3BOpXRQL0Iaj91eq/B+fitQOSWsL+P4aXBFeHsQLZdiEBpHbvB46TjQFbkBkDupLTB
+felQKa/g0Ckp6bBevt+QNaggEDSjpbBxzqaQFPNI8AW7qDB2SmsQOpXisDwi4zBOKtPQCtFUMAq
J4bBviWmQNajb0D1abLBvfeBQP2lasByB5DBcHqAQBNgfkBNXKHBXZzRQDrxVkDzTbbBsZQxQKO/
dEBSYJHB+v2LQPDVHsC+Z5bBq5GXQM/8ZsCd9KXBVLnOQBEFF0GrHcPB1koFQSp5DEGrF7fBiDuh
QHw29kAbn8vBohPpQHxxk0AFXJHBgJkMQQnty0D7mLPBtVivQFg1qUDY/sfBoGjoQJnH277lwbvB
d4W6QGDE+T9XfKHBmPHIQP//HMBjV7PB1liZQAiuJr3MVJnBZ5cXQVEnfkDrUMDBUlURQT3qsD/7
sbnBOerpQDdmkkBoW6XBQq6jQFOFh0BI3ofB8J2+QKKok8Bcq5PBuuK+QJD/ZsBywofBLjWlQAzt
psC9tofBPGsTQJlCMsBAu4jBKWlBQIKhhMDRTYHBQcR0QHtoIsCFWYHB8UeQQERUOUAaoLPBMeKa
QIhvk0CAFrfB8KdeQKtHjMCNzZTBdoYDQAzCakD9yZbBmAM2QBHaQUDRjozBYXmIQDkyyr9bEZPB
/CbWQGVrBkEYfcHBiw+8QP2I7UA3UcbBBeT3QL5CAEHDqbrBiunLQNR9jUCE0pXB9JbDQALpwUAv
R8TBD5v/QJrh1EA9qbjBws/VQN5Jsb5DgLTBIB27QA7rfj8nuKXB+lvEQGYXv78PtK/BnBWpQLQP
CL52AaHB2fgIQVDcY0De1rzBBIkFQWJTC0BzJ7nBbGfMQISJjECrCqHBwN2kQEU0h0DDgZDBRULl
QIaXtUD8Z73BEXHQQIFiaT9qoq/B4mutQGq4sb+V+aXBMMjsQFJRiEBmGLvBANPiQG+oBkBRvrTB
3r+lQGkLhEAiqqbB0qF+QPC8gEDAj5bBbwabQE4XJcAi2qDBuWOpQMYbhcDGM4vBgGBAQLgCT8DX
IYfB89mlQLGUcEB3b7LBxPF+QPWoaMA1DpDBNECAQFgcf0ANXqHB7jTRQJEoV0DuVbbBJEkxQGO0
dEADYJHBJ0GJQGMYHsCWr5bB+vGcQB26asCRWaXB/UnQQNMrF0E6BcPB+VOiQMEF90APk8vBDukF
QZRKDEFJ+LbBHgLpQPT0kkBUXZHBRaGvQH3cqUBi98fBftMMQVdly0BNgLPBNFbnQKv527736rvB
Trm4QEue+T8muKHBunPIQBNLHcDkcrPBg9CXQKifOL0JjpnB04EXQQ4HfUBQS8DB0dQQQT6Orj+e
zbnB88vpQKcvkkCBXKXBLpKjQEFQh0B934fB7IC/QIItjsCZqZHB1Ba4QGTaV8DFRYbBvJmiQD49
ocAzMYbBeKQEQBgbN8A7tIrBN1wyQB6Mg8AlHILBZlZdQCV4HMC4MILBSrqPQOG6OkDurLPBFt2a
QHYVlECmFbfB8rxhQIapjcB09JTBrSsDQAH2akB0yZbB0Mg1QMiUQUBkmIzBv+uCQP2Ix7+FzJPB
BVPNQPlUBUGywsHBbw7EQI0y6kASQMnBPS7iQOpAAEEPFLjB4w5/QBzLh0DvpJXBTr3PQMuQv0CB
EsfBGOXtQE7i1UAA5LXBsKLaQJinSj8+aaTBZYy8QIIjkT2ohLXBY8vGQLzClb5tTJ/BpCapQBpx
g7/4cbDBE4YKQb/YZ0AGIr3BDUQIQeiDD0AeErnBqaqAQExAgECeuKDBsVqmQDIqjUC1I5DBONrk
QB2NtUB3bL3BinLVQE2GeD8QgK/BtxmuQJ5em794SqXBIWvvQEUkiUA0/rrBJVPoQJdqCEBQsbTB
l5CoQLmHfEBaBqbBnDbNQGQxi0BD4JXBDrqZQGj/FsCo3Z/BurOLQPReTcAfAIPBRJYWQAMnSsCN
Wo/BVFipQFyta0BLBbLBmJF4QFVmVMAxrI7BV8HNQCtBhEBKk6DBMVrVQFEoV0BLErbBuLrzQGUu
kEBKd5DBzV6RQPkxEcBi85TBc1iQQAuUV8D68KTBsm7EQB6wFUE0ccPBugO0QLsI8kDppdDBvSjp
QGi0DEHWWLLBHcJCQEpuiUDfcJHBQY3IQFydpkAvxszBur79QJD+zUB2eK7B5tHtQIc3vj8z2p/B
hF24QE/tZD7aAb7B0lzKQId+2b4nxZbBNHSWQFE73b+tD7XBA2oYQT8ngUAREcHBOjYUQdlYuz+k
d7nB0pVGQKkCeEDbJaXBDXimQMS9kkDdnIfB866uQHLeVMBot4LBltuCQAlUDsABiX/B0SF5QFTk
f8D4W3zB0RsCQCZlT8Blv5fB2SPvP6KnfMC3morBRycEQFcXC8A7MYzBPR6UQJtNNUDFxrPBYJad
QOOEkkDSMLbBBSOFQGHdicCv0JHB+AAGQbm9jUBIpJXB+nf0QOz3rEAn+ozBb0+aQKyft79XJZHB
a07WQAwQB0Ggo8HB15m6QJH87kD48MXB1Vf5QMTSAEF0QbvB3k58QO26gUCdiZXB6cDBQENjw0AM
y8PB3VgAQXYE1kBoJ7nBoXe+QM5Sgz8qQKXBu7zUQNZknr5IhbTBiTKtQKj+yb3AVaDBVcbDQHYJ
ur+yja/BNF4IQRM4ZkDIKL3BBScFQVOMDUCegLnB0K97QBKKgEAQw6DB/5WlQK3NhUB3QZDBbZnk
QFzptkD1UL3BBC7RQJ7qcT81e6/BUmKvQCRkrL+keqXBmQfsQI2niUAE97rB58LiQOniCECouLTB
WM+kQJsShEA9a6bBX13LQAUWikDNWZbBpJKcQGBQIcDwPqDBVkasQGufj8Dh3IzBREJhQBQPScAJ
qITBcRGlQEkycUCcMbLBrPCEQDdaZ8DzMY/BmWLKQLB+ikD1K6HBB9vQQPNzWUA2GrbBh5jyQE6b
i0DzNZHBxF6SQOryHMCdbZXBwRCWQGnYYsCOY6XBIrDQQK3PF0FIPMPBxOqfQDSV+EBR4crBckYH
QdzJDEEm+rfBn1tBQAIef0AlD5HBdJmsQDZ3q0DLGMfBJeYNQWhlzED+XLTBdoS9QI4E/T+kKKHB
AXfkQKbLyL5/L7zBvCWeQKtJW7xRlpjBrk3GQGiVGsATbrPBGp8WQeFVf0C45sDBLlkQQcbQsj9k
arrB0xFAQKHleUB4CqXBGwCnQG+phUB/n4fBD5K6QEtLmsDucpTBu+rDQKLRecBwUojB0oOiQDqv
q8DIJIjBEgQpQCQcIcAkaYbBbHJNQFJ8gMCW1X/BHyCIQNNrI8BzGIDBt3CPQFyaOkD7eLPBsZWZ
QBtJlEC5zrbBmrZaQCqOhsBGtpPBlgIFQcnejEDjppbBreTzQPGfpUCPkIzBPFGUQA+GyL8nv5HB
LcbXQJsbB0HYZ8HBHoL6QBKIAEE3AbvBAKa7QKuZ70CXxsXB4pl7QCvhgkDufJXBIJEAQWhK1UBz
9LjBRhHCQBjYw0DUrMPBKTe9QOQdgD+caqXBLDbUQH/Fo74MtbTBpl2sQOofCr72jKDB6KHDQDt+
vL+2za/BMgQIQVItZUCHN73ByKwEQZ11DEArornBfrl6QDd5gUCutqDBHFqlQJpShkCBO5DB7aDk
QKi3tkChL73BE0bQQAoJbj93na/BaESvQEHxsL+wt6XBz4vrQP1UiUC87rrBZ+rhQKgiCEA1ybTB
M12kQMAphEB2ZKbB/yPLQBrBiUDhWpbB/HKdQLDLJMCNfqDBUjKpQJhHjcCf5IvB9P9OQK7HScC/
CIbBUHqkQLoOcUA5KbLBOJ+BQMnvaMBMso/B9hHKQC/ziUBZK6HB+zfQQJz2WEAmF7bBa3TyQNep
ikDNP5HB74mPQMkDH8Ct85XBdhabQAOfaMCkZKXBoLTSQBbqF0HO9sLBiwQIQWRLDEGLrLfBbzSh
QMu3+UD0usrBzqlAQEFYgUCa/ZDBgAAOQeIky0BSJrTBPZSsQF5SrEDnBcfBiKi7QFWi+T/OUKHB
p/bjQObFyL43YLzBXRedQI6scr3v0pjB9G7GQJSFG8BZvbPBskYWQWYWfkBx+cDBs8APQfgJsD9z
orrB7uk+QAO5fEBE+aTBMtimQFpYhkC6mYfBUqC7QJFCmMCw3pLBB1G9QG+GcMCq8IbB8AGfQOkY
qcDxI4fBWIEWQMtYJsC22ojB2z46QIyXgMDHQ4HBCt12QLSDH8CAEIHB3cOOQKWLOkBaZ7PBdQWZ
QHgvlEBYyrbB3CRbQMajicBEoJTBzOkEQRthi0DytZbBjUr0QKrApEC7o4zBJAmPQNm+yr9XepLB
2aHXQOIKB0Hve8HB+Zy7QE5Q70Df08XBN2L6QMqTAEF0D7vBYoB7QHNggkBgh5XBZS3CQNuew0Af
r8PBIpEAQUlx1UDT9bjBeBfUQJCUo75UtLTBPQ29QNJOgT+YeaXBbzXDQP3Mu7+ex6/B+MurQEBv
8b3om6DBFjUIQdJ9ZUCEHL3BndcEQbKpDED8kbnBuNR6QJJlgUDEwaDBekClQEyghUAsPpDBN7/k
QAy4tkCMK73B0kjQQL+6bj8fpa/BpJuuQFQWr78luaXBAc/rQMFliUBR47rBhhriQGgqCEAzzbTB
YnakQCA+hEANaabBfxfLQERhiUCzVZbBuLycQFp4I8DabKDBck6qQC3qisDPxovB6QJQQLpFSMDe
uoXBUqekQE4KcUB5LbLBudCBQA68ZsC7e4/BPyDKQEbsiUA0J6HBaWzQQBL/WEBoGLbBp1fyQOFU
ikBIMpHB/1iOQHTGHMAj7JXBuVKbQBgVaMD0K6XB+XfSQNnTF0GmFMPBryShQF1E+UBQy8rBx+kH
QSRnDEFFwLfBZ3tAQLSqgEBbDZHBesusQEH4q0CQBMfBiwAOQbV1y0A+IrTBhfTjQEGoy77YWrzB
+q67QNQB+z8dZKHBKfTFQPJZG8DgrLPBs0ScQCPTDb1I65jBuYQWQd+UfkABzcDBg/MPQRSYsD+X
i7rBaxU/QN/6fEA5CqXBfqumQPdBhUBSnIfBvpO8QPSylcBtzJLBSSi+QMlDasDm9obB1jKhQB/J
psBe6IbBHyQWQPGeJsAfdIjBNIY9QPnaf8BD2YDBG3F3QIWMHMDL54DBFPuOQI90OkDuabPBAi6Z
QEEhlEBg0rbB+QNcQFJSicD3QZTBYuMEQbtZi0Bgo5bBqfvzQExHpEBEiIzBLH6MQO4txb+Bn5LB
G8zOQLyuBUGp0cHBHBTzQAbqAEHyirvBHYK1QO8J6kAVCMbBViGMQK41XECiRJTBUgr+QIDw1kBe
b7nBuVrAQD4yv0C96MPBUOTZQPwvSz8wW6TBxhC8QIN5kD11frXBB+vFQIT8k76CQJ/BwJKoQFRB
g79AbrDBInYKQZnTaEASrrzBMi8IQcVCEEAhvLjBx8eMQIRYS0BcTJ/BF92mQE1kjkBwN5DBeWLk
QDShtUBPhr3B4/XUQDHrdz8bda/Br2StQMj2mr8yRqXBAKDuQDchiUCD87rB7sjnQGNaCEBEnrTB
XlmoQN8He0AzAabBLn3BQAtkpUDlTpfBGA+ZQEPZFsBY5Z/BuM5wQATFNcCCB4PBKO4YQFZUZ8AU
ypLBB02oQLaYaUCV9bHBsm90QOrFU8B8xo7Bv9LBQPTVnEBu9KHB6WfUQNCNVkAxHLbBXuLbQCxn
xUBRTpPBhi+OQI97D8AtIZXBxOWRQIvQWMAh6qTBr2DGQBMkFkFnZsPBNTsDQci3DUESWrjBLdyZ
QB9j8UAL4crBXfJuQJY5OEAgAI/BfQANQdaWz0C9s7TB5B6tQE2apUDMKcfB9PbsQEayvj/RyJ/B
d/e3QFIBZT4x/L3BR0PJQEa11r5Kt5bBQOeVQL0J3b/ZDbXBv5kYQfodgkC9RsDBhD0UQeiYvT9z
B7nB08ZwQABYGkDZoqLBIg+nQEGPlUC6w4fB6fqYQI7gJ8ABL4DBp3ZJQP8h979HdoLB+GJUQLV2
aMBCIHzBK50bQO+3fMCrKpvBYfX4PzEFjcAW1I3BvxzjP60kLcA8OpLBe3+TQMNPMkAzlbPBWLyb
QLkekUCpIrbBVY6NQBg8h8DIQo/Bn47sQEd80kDNTJnBJwTKQNbn20DsyI/Bc2SUQA7Yr7+HeZHB
3IzJQBUHBUFEycHBtKPBQHRV6UDATcnB5pDeQOZLAEHGFLjBbEd/QBgYhEC21JXBoNbOQPskv0Cc
IcfBxMzrQIRp1kA15rXBDBPgQB5KQz91laTBUUbAQBRImD1ElbXBnoDNQAzxsb5Ah5/BkZ6tQBzM
hL/TirDBzFcLQTUIbEAXEr3B5tIJQclwE0CBArnBmkWBQAZdeUDd6KDBUiKmQBXNikDgRZDBtxzk
QOXVtUDydb3BZpvZQMhXdz+1mq/Bb0m0QFolob87fKXBADXwQK3SiUC1B7vBhWbrQKVdCUBOv7TB
flOpQCpFeECCKabBEynNQLg2ikBo9ZXBOgyiQBrGHMBANaDBnZPNQE7GmMBHsovBcQeGQE10acBx
U4jBqqKqQGsJaECJK7LBe4emQCb0gsBu4ZDBnyzOQJ5Xg0CgqKDB1w3XQEKlVkAXLLbBL1zzQNiR
kEB+f5DBNF61QNgIO8CB6ZbB+yWDQES0QcB7I6TBlX6/QEc3FUHCdsPBMnmxQEej8ED6t9DBLoDk
QNnXDEEVVLLBarpCQDqghECPqpHBCrDIQDP+pUCW2szBr8b7QPwLz0Bgdq7Bk0DzQImvuj/tCKDB
nDG7QCwkej44Bb7B43LSQEzwAb/bEpfBtCuaQDup3L/WG7XBgg4ZQflChEDn78DBsDwWQSXZxj+V
VLnBY1BIQBDjbkBwYKXBT9+lQExYkEC+vofBMT3kQA+aosA995HB+WDdQEIxgsAGOYbBzf3CQE4c
tcAoMofB/gxVQD2PSsAVO4zBcvd1QMDUkMDDzYPB5F6VQGbTO8Ch1ILBGV2WQO1cMEBb/rPB3wSe
QGljkEDiULbBFeuWQE7NmcDGUZbBeugFQZAHj0CZpJXBlfzyQNRZrUChAI3BxQXPQKmzG8A6K5TB
XLHNQPVhBUG4xcHBohfEQB436kCqNsnBquziQBhbAEHiIrjBCPmLQLcAW0Csc5TBXLHPQNOTv0BC
BMfBmbDuQBEe1kDU8rXBYDPaQFpQSz+/YaTBn8K8QDiQlD1zj7XBSkzGQHcnlr5JUp/B3TipQOhQ
g78PibDBToYKQezLZ0DiGb3BzzUIQcWBD0BNC7nB+eGMQKQ/S0BXg5/B5XSmQBG6jUC3QpDBDB3l
QLantUCIZ73BVl3VQKJFeT9peq/B2MutQEdZm79/X6XB8YXvQPc+iUBL7rrB/0voQDvBCEDLm7TB
r2yoQPIKfEAAG6bBZSDBQAAtpUDjPpfBrrCYQB5cFsBM/5/BAGmfQDgohsC43YnBSwxAQLSRK8D8
9YXBbimpQODOa0DiF7LBx753QFRMVMAExI7BILLBQOglnUBh6KHBtWTVQE2QV0Cm+rXB+FHbQPAg
xUA1IpPBljiPQI2iD8B9JZXBE4aPQLEQV8CnEqXB4sPEQIa7FUEHdcPBzduzQI/+8UDFltDBJibq
QHDWDEHXcLLBBp1uQGFENkCmRI/BczXIQDyOpkDTrMzBKf/+QBhWzkBYla7B8iXtQErAvj/oxp/B
L+q4QOZWZj5ID77B26zJQPxt276LypbBObOWQB0d3b/ZMbXBl2oYQaYJgUB3DcHBoxcUQdPiuj8l
e7nB8XVxQBFPGkBc9KLBQWumQDR+lECuyYfBiMmyQIpJlMDFTpDBxvKzQB+rZMBzt4TBmd2QQHXY
n8CnEoXBPesNQM//A8DiqYnBCiYiQN1TXsCGJIHBY1BoQBNOA8BSyYDBGv+TQDh9NUCz67PBkISd
QB2pkkAhQLbBDvdOQEKEfMDp4ZPB/wPsQAaM0kDBE5nBUE3JQEBl20AnkY/BKQuWQLHysL82d5HB

> <OMEGA_E>
oFH1PkC19j5kF/Y+RGFiP14uVD+MeFM/OC1TPyoxaj+Ugmo/mgNrPw==

> <OMEGA_NBR>
      9670

$$$$
50161607
  -OEChem-04172616093D

 54 57  0     0  0  0  0  0  0999 V2000
    7.7600    7.9915  -23.2471 C   0  0  0  0  0  0  0  0  0  0  0  0
    6.7358    8.4182  -24.1148 C   0  0  0  0  0  0  0  0  0  0  0  0
    6.3760    4.3470  -18.7132 C   0  0  0  0  0  0  0  0  0  0  0  0
    7.9676    6.6177  -23.0257 C   0  0  0  0  0  0  0  0  0  0  0  0
    5.8091    0.9090  -20.7674 C   0  0  0  0  0  0  0  0  0  0  0  0
    6.6668   -0.3918  -22.6312 C   0  0  0  0  0  0  0  0  0  0  0  0
    5.2570   -0.2408  -20.2017 C   0  0  0  0  0  0  0  0  0  0  0  0
    6.1209   -1.5568  -22.0603 C   0  0  0  0  0  0  0  0  0  0  0  0
    5.9215    7.4710  -24.7660 C   0  0  0  0  0  0  0  0  0  0  0  0
    8.3265    2.1551  -23.1625 C   0  0  0  0  0  0  0  0  0  0  0  0
    8.5376    3.5443  -23.6117 C   0  0  0  0  0  0  0  0  0  0  0  0
    6.3968    4.3099  -20.1148 C   0  0  0  0  0  0  0  0  0  0  0  0
    5.1472    4.1885  -18.0536 C   0  0  0  0  0  0  0  0  0  0  0  0
    6.4929    0.8560  -21.9992 C   0  0  0  0  0  0  0  0  0  0  0  0
    7.1457    5.6655  -23.6641 C   0  0  0  0  0  0  0  0  0  0  0  0
    5.4162   -1.4933  -20.8416 C   0  0  0  0  0  0  0  0  0  0  0  0
    6.1231    6.0942  -24.5479 C   0  0  0  0  0  0  0  0  0  0  0  0
    7.0676    2.0695  -22.6139 C   0  0  0  0  0  0  0  0  0  0  0  0
    7.3732    4.2394  -23.3946 C   0  0  0  0  0  0  0  0  0  0  0  0
    5.1845    4.0732  -20.8186 C   0  0  0  0  0  0  0  0  0  0  0  0
    3.9715    4.0174  -18.8150 C   0  0  0  0  0  0  0  0  0  0  0  0
    3.7233   -3.9243  -16.9684 C   0  0  0  0  0  0  0  0  0  0  0  0
    5.1737    3.7319  -22.2903 C   0  0  0  0  0  0  0  0  0  0  0  0
    4.2177   -4.0369  -18.4182 C   0  0  0  0  0  0  0  0  0  0  0  0
    4.6914   -2.6648  -18.8840 C   0  0  0  0  0  0  0  0  0  0  0  0
    4.0068    3.9693  -20.1636 N   0  0  0  0  0  0  0  0  0  0  0  0
    6.5184    3.3338  -22.7965 N   0  0  0  0  0  0  0  0  0  0  0  0
    2.7519    3.8680  -18.1749 N   0  0  0  0  0  0  0  0  0  0  0  0
    4.9282   -2.6723  -20.3078 O   0  0  0  0  0  0  0  0  0  0  0  0
    5.1299    4.9403  -25.4218 Cl  0  0  0  0  0  0  0  0  0  0  0  0
    8.3860    8.7190  -22.7518 H   0  0  0  0  0  0  0  0  0  0  0  0
    6.5746    9.4730  -24.2811 H   0  0  0  0  0  0  0  0  0  0  0  0
    7.2872    4.4945  -18.1525 H   0  0  0  0  0  0  0  0  0  0  0  0
    8.7578    6.2915  -22.3657 H   0  0  0  0  0  0  0  0  0  0  0  0
    5.7111    1.8539  -20.2537 H   0  0  0  0  0  0  0  0  0  0  0  0
    7.2206   -0.4541  -23.5563 H   0  0  0  0  0  0  0  0  0  0  0  0
    4.7074   -0.1750  -19.2744 H   0  0  0  0  0  0  0  0  0  0  0  0
    6.2431   -2.5065  -22.5600 H   0  0  0  0  0  0  0  0  0  0  0  0
    5.1403    7.8015  -25.4345 H   0  0  0  0  0  0  0  0  0  0  0  0
    9.0366    1.3460  -23.2491 H   0  0  0  0  0  0  0  0  0  0  0  0
    9.4467    3.9439  -24.0362 H   0  0  0  0  0  0  0  0  0  0  0  0
    7.3214    4.4591  -20.6525 H   0  0  0  0  0  0  0  0  0  0  0  0
    5.1020    4.1974  -16.9746 H   0  0  0  0  0  0  0  0  0  0  0  0
    3.3785   -4.9092  -16.6206 H   0  0  0  0  0  0  0  0  0  0  0  0
    4.5461   -3.5764  -16.3266 H   0  0  0  0  0  0  0  0  0  0  0  0
    2.8914   -3.2063  -16.9195 H   0  0  0  0  0  0  0  0  0  0  0  0
    4.4748    2.8983  -22.4535 H   0  0  0  0  0  0  0  0  0  0  0  0
    4.8318    4.6127  -22.8537 H   0  0  0  0  0  0  0  0  0  0  0  0
    5.0511   -4.7529  -18.4700 H   0  0  0  0  0  0  0  0  0  0  0  0
    3.3963   -4.3829  -19.0630 H   0  0  0  0  0  0  0  0  0  0  0  0
    3.9210   -1.9158  -18.6484 H   0  0  0  0  0  0  0  0  0  0  0  0
    5.6250   -2.4070  -18.3625 H   0  0  0  0  0  0  0  0  0  0  0  0
    2.0312    3.7381  -18.8559 H   0  0  0  0  0  0  0  0  0  0  0  0
    2.7876    3.0715  -17.5714 H   0  0  0  0  0  0  0  0  0  0  0  0
  1  2  1  0  0  0  0
  1  4  2  0  0  0  0
  2  9  2  0  0  0  0
  3 12  2  0  0  0  0
  3 13  1  0  0  0  0
  4 15  1  0  0  0  0
  5  7  2  0  0  0  0
  5 14  1  0  0  0  0
  6  8  1  0  0  0  0
  6 14  2  0  0  0  0
  7 16  1  0  0  0  0
  8 16  2  0  0  0  0
  9 17  1  0  0  0  0
 10 11  1  0  0  0  0
 10 18  2  0  0  0  0
 11 19  2  0  0  0  0
 12 20  1  0  0  0  0
 13 21  2  0  0  0  0
 14 18  1  0  0  0  0
 15 17  2  0  0  0  0
 15 19  1  0  0  0  0
 16 29  1  0  0  0  0
 17 30  1  0  0  0  0
 18 27  1  0  0  0  0
 19 27  1  0  0  0  0
 20 23  1  0  0  0  0
 20 26  2  0  0  0  0
 21 26  1  0  0  0  0
 21 28  1  0  0  0  0
 22 24  1  0  0  0  0
 23 27  1  0  0  0  0
 24 25  1  0  0  0  0
 25 29  1  0  0  0  0
  1 31  1  0  0  0  0
  2 32  1  0  0  0  0
  3 33  1  0  0  0  0
  4 34  1  0  0  0  0
  5 35  1  0  0  0  0
  6 36  1  0  0  0  0
  7 37  1  0  0  0  0
  8 38  1  0  0  0  0
  9 39  1  0  0  0  0
 10 40  1  0  0  0  0
 11 41  1  0  0  0  0
 12 42  1  0  0  0  0
 13 43  1  0  0  0  0
 22 44  1  0  0  0  0
 22 45  1  0  0  0  0
 22 46  1  0  0  0  0
 23 47  1  0  0  0  0
 23 48  1  0  0  0  0
 24 49  1  0  0  0  0
 24 50  1  0  0  0  0
 25 51  1  0  0  0  0
 25 52  1  0  0  0  0
 28 53  1  0  0  0  0
 28 54  1  0  0  0  0
M  END
> <OMEGA_C>
DFL4QMS6/0Ae+rnBD4zXQNqwBkEV68DBmgjMQGMai0CZtJXBwPb+QNXD00CsNLjB3+O5QLixaD+K
I6bBolbVQI+WyL6uDLXBgjmoQKaMdr4tnaHByN7DQMJFx7+Ee7DBRH29QKUS70DIIMbBLTkFQZft
CUC+TLnBA5oIQUvWYkDd5LzBXrLMQHDqiUAe66DB6bWkQBAIhkDLbZDBx8XPQJYlWz9F/q/B2ank
QC9MtUAOUL3Ba1GtQJAlv7+Uu6bBqvDDQGEDw0AbYsTBByriQP9yBEBQ6bTBnfHrQPeoh0ASKLvB
FuelQM9XgkCQjKbBhC1+QGaOgEAuhZbBNktuQMIne8Bav4fB9I6lQPPXbkCAUrLBB/eGQC0ugcB7
WJPB6B+WQHuLKsCAEpfB1DeAQDcJfkD6TqHBBJfQQMZcVUA+X7bBgh4wQNuNd0AvZpHBhbOdQJUG
K8BGdqLBZSikQL4WnkDPX8vBBC0GQfmAC0GbA7bBLWPSQJuRF0GcP8LB8TDpQBTTj0BFOJHB9h8M
QbFTyUD57LLBHMG2QCNO7T+oB6LBUA/nQFiE6L5Nc7zBVaOWQIkwM77nMZrBiMfHQLNpIMDXerTB
rn2kQEKm+UDbecvBvZUQQVFKrD8o/rnB1iUXQWhpfEA1SsDBTUnqQOCwjkBOOKXBZUOjQBpRhkD4
y4fBjDhYQDAYncDk9oTB+HmRQPviZMDmnILBmww5QJk0TcA8W4fB9TGPQGx9OUC5oLPB+52aQPGa
k0BQ1LbBeqKhQPcXmMCbwpPBn11ZQMZAjMDxgJjBKvF6QCI59b/9L5XBqP+zQPEMGsBR5pLByv4B
QGE8b0DP2JbBbmgyQCSTREAxkozByGH5QMyg/0DfHLrBe+TYQIi7BkFAHcHBz8LLQNtNi0A2tpXB
ZHP/QBSm00BdQrjBQUbVQNVLxb4vGrXBXVO5QIz7aD+COKbBKEXEQFUnx789hLDBkyWoQHZ+er47
raHBIY++QIxT70C3TcbBtA4FQXo8CkA5M7nB938IQZjyYkAX0LzBBUfMQAcmikBJ7KDB2YekQEki
hkCPZ5DBWkXPQNZ8XD+iDrDB3NbkQOtgtUAKVr3B+aitQAPAv782xabBlWnEQGc+w0C0d8TBT6jh
QKLdBEBq6rTBi7zrQDzGh0ClI7vBmXClQEacgkCriKbBwap9QF2jgEAxdpbB4otmQMqkd8CM9IfB
Ch+lQMW0b0BMVLLBMfiDQB46gMBGdpPB5AGUQBduKcCaOJfBmJh/QMxxfkBsQqHBLyvQQETZVUAJ
YbbBaeQvQApNd0CUSJHBPmyeQAaoK8CceaLBcUykQDt2nkBvasvBCtAGQSpjC0FNK7bBGSjUQAKf
F0H7gcLByvfoQM4TkEDrP5HBEEQMQdYKyUBw8LLBuPnmQDSN4r5GgrzBgcG1QGiB7T/4I6LB2pPI
QF1UIMB1frTB9pWWQNR9O75jQJrB3s+lQHsO+kCGtMvBuW8QQR/lrD9Yz7nB3BYXQXxffEADLsDB
hNLpQGPtjkBQPqXBOzWjQAVchkBjxYfB4iRPQFIKm8DMIYXBJleNQOOXYcAmuYLBYucxQJzsSMD0
xIfB8p+OQJuhOkA/q7PBhlyaQDEplECd0LbBeVmeQEOEl8DirJPBCuxTQKAui8CvuJjBItp1QLaF
8r+c2pXBpMqwQJUXGMCUpJLBTokBQOLmbkDOspbBjZ8yQMg8REATeYzBL+68QH5X7kBhAsbBpujW
QPirBkHACsHB4grMQDXHi0Co25XBYEbEQHiXwkBwFcTBiMe5QPz/bj8fGqbB1lXUQMsYwr7bDLXB
hDqoQHLaWL6Me6HB7/3CQOITxb+CY7DBG0r4QJRMAEFxK7rBFAgFQVZUCUCEaLnBgaEIQTzrYUBk
DL3BfoDMQP3sikBKEqHBJOikQL4JhkD9jJDBRDDPQIwcXz+TA7DBq6XlQIOstUAMLr3BnuysQBXs
u7/3kqbBld3/QJLX1EBuPrjBvNjhQJXrBEDN+LTBSprsQA/qh0BXFLvBXrWlQDNDg0AItKbBEn5+
QBVbgEBQnJbBL2ttQKInd8B+Z4fBGY+lQMkScEAEf7LBYJ+FQAX0fsBHEpPBPomVQLzdJ8Cq2ZbB
oCOAQF7GfkCTaqHBc7rQQGYxVkC0a7bBefswQKMUdUDubJHBBE2dQE0mKcAxO6LB+HYUQaT+xUA2
dK/BRmWjQB4j+ECcSsvBLzzRQBF3F0GtgMLBLjjpQHzAkEC6ZZHBKliwQEHTqkDw5MfBu+u2QJ3W
8D8/BqLBIqTlQFTW5L5cgrzBygeXQJt6D76lAprBqp7GQBJ9H8CEXLTB/BAGQUc6DEG2XbbBNjwQ
QbQAqj+vGrrB3h0XQf9lekA/ocDBygDqQNEIkEAPY6XBA5+jQDb4hUCv6ofB7ERWQELYmsAQlYTB
FqaRQGYwYsAKYoLBCFQ5QPv5R8C+44bB9imPQIDFOkD4zLPB4tKaQHQilEAxEbfB/LafQF4Bl8AP
nJPB03VVQCnmicDDHZjBGXl6QIoe7r+DB5XBuXezQG0dGMCbqJLBt6sCQBBgbEC91pbBC500QFOv
QUASrozBE4G9QJup7kDR48XBJJ/XQEa2BkHZ38DBD/HLQB5Pi0CWx5XB/ovEQG3XwkCV/8PBNwbU
QFSLyb4LO7XB5jG5QKciaz+0UKbBW0LDQGFox7/WfLDBNyaoQGlBa75HoKHBhs34QOkuAEEL+rnB
Cq0EQSZfCEDzs7nBdmsIQTs+YUC9Mr3BdYXMQJpOikBR/qDBT7CkQEQHhkCAfpDBvZzOQMmzWz8+
OrDBsbzlQCyetUDhE73B5FqtQNF/vr/spKbBAwUAQbGI1EALE7jB0UzhQHkyBEDZKbXB8XfsQDrH
h0AsELvBdbSlQMQJg0A3pabBdBh+QPeVgEClk5bBgw9rQPQqeMDih4fBSHmlQC0UcECoc7LB7SOG
QD6ff8DpDJPBydOTQABQJ8A485bBzQ6AQDD4fkAdYaHBp4LQQBLvVUCyb7bB8E0wQHaGdkBjbJHB
AZmeQM26KsDVLaLByVcUQUlDxUCcNa/B1RikQKCy+ECwLsvBmjXSQHiIF0E1UcLB5x3pQJgMkEBo
TZHB0IWwQHZBq0Aj2cfB6BXlQMpk677MubzBaO61QGws7z+9SaLB8jTHQI++IMBWa7TBIvOWQEY/
Ir5eJ5rBJWAGQScFDEHVIrbB0LsPQbhlpz/GjrrBwuUWQaqceUCvzMDBYiHqQGQBj0C2SqXB4Uyj
QOUghkB03IfBUilXQLvTm8Brp4TB8RmPQFArX8BnWoLB9wI0QGRQTMAiVIfB0/COQCULO0AGx7PB
WtSaQBBIlED3+rbBRbKhQCCylcDERJPBnzNZQKpEjMB/PpjBMc5yQFiZ87/LwJXBrO+vQPQKEsBh
XpLBnQ4CQOQ4bkDp2pbB2TczQC4yQ0CuqIzB

> <OMEGA_E>
uHqPPsQrkT5oX50+gNCfPg==

> <OMEGA_NBR>
     13559

$$$$
50161603
  -OEChem-04172616093D

 57 60  0     0  0  0  0  0  0999 V2000
    7.7912    7.9793  -23.2859 C   0  0  0  0  0  0  0  0  0  0  0  0
    6.7800    8.4066  -24.1681 C   0  0  0  0  0  0  0  0  0  0  0  0
    6.3670    4.3675  -18.7178 C   0  0  0  0  0  0  0  0  0  0  0  0
    7.9785    6.6066  -23.0445 C   0  0  0  0  0  0  0  0  0  0  0  0
    5.7699    0.9114  -20.7723 C   0  0  0  0  0  0  0  0  0  0  0  0
    6.6863   -0.3782  -22.6185 C   0  0  0  0  0  0  0  0  0  0  0  0
    5.2165   -0.2450  -20.2250 C   0  0  0  0  0  0  0  0  0  0  0  0
    6.1437   -1.5493  -22.0637 C   0  0  0  0  0  0  0  0  0  0  0  0
    5.9585    7.4612  -24.8136 C   0  0  0  0  0  0  0  0  0  0  0  0
    8.3298    2.1642  -23.1097 C   0  0  0  0  0  0  0  0  0  0  0  0
    8.5383    3.5440  -23.5801 C   0  0  0  0  0  0  0  0  0  0  0  0
    6.3805    4.3268  -20.1190 C   0  0  0  0  0  0  0  0  0  0  0  0
    5.1431    4.2043  -18.0515 C   0  0  0  0  0  0  0  0  0  0  0  0
    6.4840    0.8646  -21.9863 C   0  0  0  0  0  0  0  0  0  0  0  0
    7.1500    5.6571  -23.6777 C   0  0  0  0  0  0  0  0  0  0  0  0
    5.4120   -1.4940  -20.8632 C   0  0  0  0  0  0  0  0  0  0  0  0
    6.1400    6.0849  -24.5754 C   0  0  0  0  0  0  0  0  0  0  0  0
    7.0598    2.0784  -22.5886 C   0  0  0  0  0  0  0  0  0  0  0  0
    7.3665    4.2350  -23.3925 C   0  0  0  0  0  0  0  0  0  0  0  0
    5.1666    4.0856  -20.8179 C   0  0  0  0  0  0  0  0  0  0  0  0
    3.9643    4.0246  -18.8057 C   0  0  0  0  0  0  0  0  0  0  0  0
    2.4808   -3.2613  -16.9028 C   0  0  0  0  0  0  0  0  0  0  0  0
    5.1580    3.7419  -22.2915 C   0  0  0  0  0  0  0  0  0  0  0  0
    3.8157   -4.0336  -17.0039 C   0  0  0  0  0  0  0  0  0  0  0  0
    4.3508   -4.0816  -18.4486 C   0  0  0  0  0  0  0  0  0  0  0  0
    4.7542   -2.6861  -18.9140 C   0  0  0  0  0  0  0  0  0  0  0  0
    3.9917    3.9773  -20.1558 N   0  0  0  0  0  0  0  0  0  0  0  0
    6.5057    3.3368  -22.7921 N   0  0  0  0  0  0  0  0  0  0  0  0
    2.7519    3.8624  -18.1548 N   0  0  0  0  0  0  0  0  0  0  0  0
    4.9467   -2.6805  -20.3374 O   0  0  0  0  0  0  0  0  0  0  0  0
    5.1401    4.9304  -25.4411 Cl  0  0  0  0  0  0  0  0  0  0  0  0
    8.4224    8.7053  -22.7950 H   0  0  0  0  0  0  0  0  0  0  0  0
    6.6340    9.4611  -24.3503 H   0  0  0  0  0  0  0  0  0  0  0  0
    7.2803    4.5215  -18.1623 H   0  0  0  0  0  0  0  0  0  0  0  0
    8.7583    6.2789  -22.3730 H   0  0  0  0  0  0  0  0  0  0  0  0
    5.6499    1.8545  -20.2599 H   0  0  0  0  0  0  0  0  0  0  0  0
    7.2600   -0.4308  -23.5320 H   0  0  0  0  0  0  0  0  0  0  0  0
    4.6386   -0.1885  -19.3144 H   0  0  0  0  0  0  0  0  0  0  0  0
    6.2889   -2.4968  -22.5612 H   0  0  0  0  0  0  0  0  0  0  0  0
    5.1873    7.7929  -25.4930 H   0  0  0  0  0  0  0  0  0  0  0  0
    9.0486    1.3600  -23.1644 H   0  0  0  0  0  0  0  0  0  0  0  0
    9.4510    3.9420  -23.9984 H   0  0  0  0  0  0  0  0  0  0  0  0
    7.3025    4.4769  -20.6610 H   0  0  0  0  0  0  0  0  0  0  0  0
    5.1036    4.2161  -16.9723 H   0  0  0  0  0  0  0  0  0  0  0  0
    2.1392   -3.2537  -15.8572 H   0  0  0  0  0  0  0  0  0  0  0  0
    2.6286   -2.2272  -17.2476 H   0  0  0  0  0  0  0  0  0  0  0  0
    1.7242   -3.7530  -17.5319 H   0  0  0  0  0  0  0  0  0  0  0  0
    4.4561    2.9110  -22.4559 H   0  0  0  0  0  0  0  0  0  0  0  0
    4.8217    4.6233  -22.8574 H   0  0  0  0  0  0  0  0  0  0  0  0
    4.5617   -3.5373  -16.3658 H   0  0  0  0  0  0  0  0  0  0  0  0
    3.6574   -5.0631  -16.6501 H   0  0  0  0  0  0  0  0  0  0  0  0
    5.2279   -4.7443  -18.4882 H   0  0  0  0  0  0  0  0  0  0  0  0
    3.5658   -4.4721  -19.1129 H   0  0  0  0  0  0  0  0  0  0  0  0
    3.9613   -1.9707  -18.6506 H   0  0  0  0  0  0  0  0  0  0  0  0
    5.6916   -2.3934  -18.4183 H   0  0  0  0  0  0  0  0  0  0  0  0
    2.0266    3.7246  -18.8293 H   0  0  0  0  0  0  0  0  0  0  0  0
    2.8014    3.0663  -17.5516 H   0  0  0  0  0  0  0  0  0  0  0  0
  1  2  1  0  0  0  0
  1  4  2  0  0  0  0
  2  9  2  0  0  0  0
  3 12  2  0  0  0  0
  3 13  1  0  0  0  0
  4 15  1  0  0  0  0
  5  7  2  0  0  0  0
  5 14  1  0  0  0  0
  6  8  1  0  0  0  0
  6 14  2  0  0  0  0
  7 16  1  0  0  0  0
  8 16  2  0  0  0  0
  9 17  1  0  0  0  0
 10 11  1  0  0  0  0
 10 18  2  0  0  0  0
 11 19  2  0  0  0  0
 12 20  1  0  0  0  0
 13 21  2  0  0  0  0
 14 18  1  0  0  0  0
 15 17  2  0  0  0  0
 15 19  1  0  0  0  0
 16 30  1  0  0  0  0
 17 31  1  0  0  0  0
 18 28  1  0  0  0  0
 19 28  1  0  0  0  0
 20 23  1  0  0  0  0
 20 27  2  0  0  0  0
 21 27  1  0  0  0  0
 21 29  1  0  0  0  0
 22 24  1  0  0  0  0
 23 28  1  0  0  0  0
 24 25  1  0  0  0  0
 25 26  1  0  0  0  0
 26 30  1  0  0  0  0
  1 32  1  0  0  0  0
  2 33  1  0  0  0  0
  3 34  1  0  0  0  0
  4 35  1  0  0  0  0
  5 36  1  0  0  0  0
  6 37  1  0  0  0  0
  7 38  1  0  0  0  0
  8 39  1  0  0  0  0
  9 40  1  0  0  0  0
 10 41  1  0  0  0  0
 11 42  1  0  0  0  0
 12 43  1  0  0  0  0
 13 44  1  0  0  0  0
 22 45  1  0  0  0  0
 22 46  1  0  0  0  0
 22 47  1  0  0  0  0
 23 48  1  0  0  0  0
 23 49  1  0  0  0  0
 24 50  1  0  0  0  0
 24 51  1  0  0  0  0
 25 52  1  0  0  0  0
 25 53  1  0  0  0  0
 26 54  1  0  0  0  0
 26 55  1  0  0  0  0
 29 56  1  0  0  0  0
 29 57  1  0  0  0  0
M  END
> <OMEGA_C>
jFH5QI5W/0BzSbrB9/XYQJeBBkFMWMHBbb7LQOXCi0AJvpXB5U//QHlp00AmW7jB6qK4QMtRaT/A
LabBGfbVQGCnwb6i8rTBWe2mQFzter7WzKHBz5jEQF9Qxr9hgrDBFKy+QC/C7kAqgsbBqEYFQX2C
CkCp4LjBvpwIQY7RYkD4o7zBLC3MQAV1ikCd86DB85OkQOiJhkCIaZDBwXzPQJxZXT/346/BBM3k
QDIHtUDra73BXC+tQJM8v7/n56bBPnvEQEa3wkBfmsTBpOnhQPQDBUBztbTBTbrrQNWEh0DdI7vB
2lSlQOS8gkAVi6bB2rd9QMPJgEAjcpbB9cQeQHK4UMDeOIfBCw6lQJ57b0APVbLBmTR0QI4TgcDp
B4jB8jmLQEKcgsC5lpPBvSKYQITpK8DST5fBtnd/QNyLfkAAP6HBey7QQI6NVUBNVrbBlB4wQMIw
d0D0PJHBwUueQECNK8DmsqLBxnukQL7FnUBjh8vB+sEGQQpJC0EqXLbBrknUQKZgF0FuzcLBavjo
QOSvkEB0TJHB7SEMQQntyEDX+7LBS8y0QJJf7T84FKLBOFLoQBCN3L50QbzBtG+UQIIJQb7Mg5rB
bj7JQEPMH8BOfbTBKf6lQBFf+UCe8cvB+8YQQdEVrj+jULnBMzcXQexJfECp/L/B/q3pQOdCj0C9
SaXBCVGjQLPqhkBMx4fB8+gIQA88UMDztn3BbTooQK+KDsAX+4nBvLPcPxcxcMBlQYzBepiOQElO
OkC6pbPBxUuaQPjxk0Db27bBYfmRQEBjYsAW7YLBNBJqQNQEosBkM4XBykqnQEjRl8Dk55PBhjZk
QJ4bj8Am55jBfoV9QKQ//L96NJXBdCG2QPQtGcCiWJPBK7QBQKRgbkB+opbBmUozQAI+RECmaYzB
pJ34QNfS/0B7B7rBiK3XQN2hBkFQ88DBeAXMQDP7ikDAq5XBaHz/QBrq00BYPbjBbALVQAzCw76U
GLXBoAS5QEPtbj+qSqbBnkbDQPQ/xb81fbDBFpKmQE4CU74a1aHBSsa9QPXM7kBcJ8bBCUwFQeDJ
CUCDWrnBB9MIQcKqYkD56rzBpL/MQDFHikD84qDBjrekQNZhhUC3a5DBXHnPQBd6Xj8FE7DBKkvl
QHpUtUAoVL3B9DSsQM7fub9606bBjInEQCXMwkDqacTB/lHiQEfgBEAu8rTB7I/sQHHLh0CTIbvB
VgemQMPMgkDHjabB9VF+QHnQf0AjiZbB8U1KQImSV8BksoXBTPClQJ31b0BLVrLB7RlZQGewgsCh
b5DBnIycQPKVhMCjO5PBOB+tQFdIM8AWX5fB8lKAQBz9fUDsVKHBJAjRQFQGVkCuWrbBsWkwQKW0
dEAZbZHBRuycQOO0JcDUFKLBWCClQFGUnUBRbMvBEkwGQVmdC0HGGLbB9EXSQIx+F0EvRcLBwx7p
QE68j0DjKZHBAWwMQTufyUCY9rLBONrmQCYb576MebzBzha2QEWn8D8uM6LBoVjHQLjiH8DhW7TB
RQSUQIK6Br5JkZrBh6ukQDY4+UBtfcvB0Y0QQeNVqz+wE7rBG2UXQUvqe0BiU8DBe1jqQFpaj0DY
KaXB+TujQPtDhUDtyYfBf10FQA3kVcAJ7YPBxO5rQBpJesCymH7B9w5jQObIFcDpL4bB93SPQHbh
OkCPsLPB40CbQFxElECH17bBk+0/QJR9o8Ar5Y/Bxg03QPR6YsC8yJbBT6GuQF1kjcC/AozBJH2h
QCIIncBocZnBFP2hQBgA/79oGZLBv1DQQD73M8CPhJfBbV0CQMZrbEB/4pbBKl4zQCw5QUAesIzB
iQK8QJYN7ECvlMbB0jPUQM0KBkHzdMHBpfnLQLUvjEBlqpXBMnLEQNCjwECGdcTBHry8QEscaj/5
zaXBEdjUQKzovb5MObXBbaypQKeuaL7QdaHBbC3CQE5Kw7+fzbDB1qD0QM5bAEHPKLrBcRUGQTA0
CkChOrnBSUYJQcEYY0Ad5LzBueTMQEVHikBM3qDBi6mkQGKthkAybZDBZF3RQDRLXT9c26/BVhzl
QLoitUDnMr3By2KsQOCHub9s9abBaSn9QJpQ1UD9ALjBzQ7kQDyaBEBov7TBTmLtQOW+h0DK9brB
U3CmQAmbgUC6jKbBAaZ+QE/zf0Dsi5bB4bczQNLIcsCHGYXB6r2mQAk3bUADW7LB0S1sQJMnPsCy
pIzB3KSWQHwiecBEMZLBY6yzQEgQRcCojZnBWreAQGVme0AuVqHBbjLSQCALVUBEPbbBZ5owQBPw
dUBdb5HBfjSbQKrTJMAyfaLB1i4SQT4WyEAljq7BRgOjQJ3M9EDGIczBnePNQHuzFkGvH8PBDu/o
QBPIkUCIKZHBeOixQLgSqEDKY8jByq+7QJYz7D9UbqHBQtjlQD+B3L4fu7zBY/GYQHI6Lr726ZnB
Ao7EQGcTHsBw9LTBGH8DQfatDEEPNbbBF34RQcw1rT9D8bnBEqgXQZCyfEBgdMDBKoHqQARYj0DH
I6XBov6iQI+Oh0CmzIfBUD4FQDtoSMBkJYHB21gRQJXzkcCQtonBdP9bQKHxiMDMCX7B59qQQPIr
N0CduLPBbJmbQPWYkkAr6LbBddhDQG4MH8DXt5LBhz+HQIUIDcAtBojBR0KqQJOsjMBQGIzBDGyF
QDetlMCV8ZbBklfBQK8HD8CvEJXB7KvNQDcZbsDCiJzBy8ECQLMlbECU4ZbBVIgzQIyxQ0BHfozB
IR/2QJhnAEHLULnB/WHVQI0gB0F5S8DB83vMQPMpjEB7I5bB8cb9QG/e1EBywbfB5CfWQAV82r6k
/rTBQ5e9QPk6fT9liqbBa2PDQB6Zxb+l0K/BHg+qQHRsr72slqHB3Gy8QFzG70CJxcXB7R8GQazD
C0Bn1bnBSE4JQbH5ZUBIBL3BH9XMQAeqi0D3XKHBbZelQDQqhUB+zZDBVuDRQGycXD81ebDBtKjk
QII3tkC6KL3BLjysQCEEsL+RJqbBuQzEQCXBw0BvSMTBe8DjQNU0BEB0pbXBDufsQA6DiEBXR7vB
SDumQNizgkDd9abBrAqAQJ7yfEA315bBYPO8QD5SgsBITYzBFk6mQKaRbUD3trLB4+SRQB3/kcBi
3ZDBdw9hQFfjW8CM0ZHBEqqCQNOaC8DKLpfBj92AQMY5e0D6pKHBULnRQPVVVUBtzLbBD/YyQDww
b0AApZHBh5qYQH/YHcAKSqHBwCqmQHWlnkAeusvBHq0EQfccDEEjKbXBt2jPQHH9F0G9csHBcpLp
QKzSkUBRsZHBF3YLQf+ZykDCabLBLKjnQPlkD789XrzBgjC9QEv5+T9upKLBcr/GQB7cIcBdQLPB
Af+YQC2Ufz1CK5rBL2GjQNkv+kA+IMvBpawRQRKLsT85p7rBGOMXQcChgEAsKMDBBgzqQFsBkkDF
sqXBHWykQHnnhED7KojBpWnTQMRZncC2zovBF0vKQAYBU8Bkk5HBkuC3QDXSacDaQ4TBEJSQQOn3
NkAD4bPBYqmaQNdXkkD6WbfBAYKXQE+Pn8Dy3JjBfReFQOf3qsBojYvBlcEqQFpTc8Bil5bBNL1K
QBfbSsCrv4nBX0lQQKY/vr/TyJjBcZWZQE3H2r+drJHBAdUEQGRaZUBNDZfBwwA4QAjUO0DD6YzB
i7S8QJUy7kD5NsbBsNDUQIPfBkE748DBNC7MQOd7jEDz8pXBqCrFQKmcwkDAWMTB40LBQAQQfz9y
GqbBBnDRQG70wb7RjbXBOA+uQJg3ob0iAaHBNX++QLVrvr9+V7DBBjX1QHvaAEHlpbnBafUFQVS0
CkC3N7rB8FsJQSKtZEBNc73BqubMQNGHi0CTK6HBbS2lQNFUhUC0rpDB1ozRQAZTYj+hgrDB/8fl
QFVntkDjJL3Bc/erQICRq79DEKbBK879QDgc1kC2wLfBrebjQAbBBEC5t7XBIeztQD26iEDWNrvB
R6imQAfkgUAE16bBOtZ/QMwKfEADypbBcki6QErUk8BI5Y7BthmnQB59bkCDsLLB3m2MQOqYl8D4
RpPBf09lQLJiXMA2p5HBs0qJQNaJDcCpPpbBFyiBQBA8eUC9l6HBw4fSQPJMVkBct7bBt3EyQMI3
bkDdp5HB7q2YQKaiG8ByJ6HBK5ESQacYyEA5aa7BcsCjQD5y90AjusvBFXjOQL6aF0FpWsLBng/p
QG6ZkkDjdJHBXKuyQMRrqkCZbsjBlLjDQBp5+D+/9qHBIL/fQCxf/74gXL3BI5ygQDVDST2NHJnB
giu+QKPyHMDiObTBqMADQcb9DEHAibXBOTQRQc+qrT8LN7vBW8IXQWmofkC588DBGTLqQNUMkkBo
dKXBBbKjQMJrhUDoDIjBG27LQBoassBtO5DBhhXLQOh6c8DBDJPBux+5QKbwjMBMRYbBkCeRQF+d
OECCGbTBifKbQFZqk0A/K7fBOP6NQGm0nsAZ45vB2RB4QJvnscCjG4/B6O4mQE1wY8DyopXBgG5b
QBiWUsDaBonBV1hlQJQyr78pS5bBO8OkQE+U+79UG5HBUscEQCd5Y0DzGJfBOoo3QPxiO0A21ozB

> <OMEGA_E>
iCaEPhhbhz4g45A+QI6hPpiDsT4=

> <OMEGA_NBR>
     18538

$$$$
50161606
  -OEChem-04172616093D

 60 63  0     0  0  0  0  0  0999 V2000
    7.7633    7.9762  -23.2741 C   0  0  0  0  0  0  0  0  0  0  0  0
    6.7441    8.3790  -24.1594 C   0  0  0  0  0  0  0  0  0  0  0  0
    6.3656    4.3255  -18.6713 C   0  0  0  0  0  0  0  0  0  0  0  0
    7.9736    6.6095  -23.0206 C   0  0  0  0  0  0  0  0  0  0  0  0
    6.7094   -0.4001  -22.6636 C   0  0  0  0  0  0  0  0  0  0  0  0
    5.7487    0.9002  -20.8481 C   0  0  0  0  0  0  0  0  0  0  0  0
    6.1673   -1.5699  -22.1032 C   0  0  0  0  0  0  0  0  0  0  0  0
    5.1829   -0.2456  -20.3082 C   0  0  0  0  0  0  0  0  0  0  0  0
    5.9358    7.4158  -24.7949 C   0  0  0  0  0  0  0  0  0  0  0  0
    8.3437    2.1481  -23.1453 C   0  0  0  0  0  0  0  0  0  0  0  0
    8.5610    3.5387  -23.5760 C   0  0  0  0  0  0  0  0  0  0  0  0
    6.3975    4.2839  -20.0728 C   0  0  0  0  0  0  0  0  0  0  0  0
    5.1296    4.1864  -18.0210 C   0  0  0  0  0  0  0  0  0  0  0  0
    6.4898    0.8459  -22.0419 C   0  0  0  0  0  0  0  0  0  0  0  0
    7.1596    5.6445  -23.6463 C   0  0  0  0  0  0  0  0  0  0  0  0
    5.4120   -1.5013  -20.9169 C   0  0  0  0  0  0  0  0  0  0  0  0
    6.1413    6.0460  -24.5457 C   0  0  0  0  0  0  0  0  0  0  0  0
    7.0760    2.0602  -22.6197 C   0  0  0  0  0  0  0  0  0  0  0  0
    7.3950    4.2306  -23.3601 C   0  0  0  0  0  0  0  0  0  0  0  0
    5.1875    4.0736  -20.7878 C   0  0  0  0  0  0  0  0  0  0  0  0
    3.9579    4.0284  -18.7909 C   0  0  0  0  0  0  0  0  0  0  0  0
    2.0739   -3.0712  -16.7818 C   0  0  0  0  0  0  0  0  0  0  0  0
    5.1862    3.7323  -22.2629 C   0  0  0  0  0  0  0  0  0  0  0  0
    3.0915   -4.1038  -16.2701 C   0  0  0  0  0  0  0  0  0  0  0  0
    4.5204   -3.8639  -16.7922 C   0  0  0  0  0  0  0  0  0  0  0  0
    4.6323   -3.9810  -18.3283 C   0  0  0  0  0  0  0  0  0  0  0  0
    4.7165   -2.5934  -18.9325 C   0  0  0  0  0  0  0  0  0  0  0  0
    4.0028    3.9826  -20.1403 N   0  0  0  0  0  0  0  0  0  0  0  0
    6.5336    3.3285  -22.7740 N   0  0  0  0  0  0  0  0  0  0  0  0
    2.7323    3.8944  -18.1576 N   0  0  0  0  0  0  0  0  0  0  0  0
    4.9731   -2.6759  -20.3468 O   0  0  0  0  0  0  0  0  0  0  0  0
    5.1659    4.8641  -25.4050 Cl  0  0  0  0  0  0  0  0  0  0  0  0
    8.3827    8.7170  -22.7903 H   0  0  0  0  0  0  0  0  0  0  0  0
    6.5820    9.4293  -24.3516 H   0  0  0  0  0  0  0  0  0  0  0  0
    7.2742    4.4619  -18.1036 H   0  0  0  0  0  0  0  0  0  0  0  0
    8.7586    6.2994  -22.3468 H   0  0  0  0  0  0  0  0  0  0  0  0
    7.2939   -0.4559  -23.5701 H   0  0  0  0  0  0  0  0  0  0  0  0
    5.6181    1.8467  -20.3448 H   0  0  0  0  0  0  0  0  0  0  0  0
    6.3306   -2.5233  -22.5837 H   0  0  0  0  0  0  0  0  0  0  0  0
    4.5676   -0.1786  -19.4232 H   0  0  0  0  0  0  0  0  0  0  0  0
    5.1571    7.7291  -25.4745 H   0  0  0  0  0  0  0  0  0  0  0  0
    9.0546    1.3393  -23.2275 H   0  0  0  0  0  0  0  0  0  0  0  0
    9.4740    3.9425  -23.9881 H   0  0  0  0  0  0  0  0  0  0  0  0
    7.3303    4.4101  -20.6023 H   0  0  0  0  0  0  0  0  0  0  0  0
    5.0760    4.2001  -16.9424 H   0  0  0  0  0  0  0  0  0  0  0  0
    1.0794   -3.3014  -16.3720 H   0  0  0  0  0  0  0  0  0  0  0  0
    2.3792   -2.0648  -16.4594 H   0  0  0  0  0  0  0  0  0  0  0  0
    2.0351   -3.1082  -17.8805 H   0  0  0  0  0  0  0  0  0  0  0  0
    4.4853    2.9009  -22.4290 H   0  0  0  0  0  0  0  0  0  0  0  0
    4.8484    4.6148  -22.8260 H   0  0  0  0  0  0  0  0  0  0  0  0
    3.1098   -4.0605  -15.1711 H   0  0  0  0  0  0  0  0  0  0  0  0
    2.7657   -5.1039  -16.5923 H   0  0  0  0  0  0  0  0  0  0  0  0
    4.8369   -2.8535  -16.4943 H   0  0  0  0  0  0  0  0  0  0  0  0
    5.1896   -4.6076  -16.3349 H   0  0  0  0  0  0  0  0  0  0  0  0
    5.5369   -4.5504  -18.5883 H   0  0  0  0  0  0  0  0  0  0  0  0
    3.7463   -4.5002  -18.7226 H   0  0  0  0  0  0  0  0  0  0  0  0
    3.7645   -2.0678  -18.7671 H   0  0  0  0  0  0  0  0  0  0  0  0
    5.5320   -2.0362  -18.4482 H   0  0  0  0  0  0  0  0  0  0  0  0
    2.0137    3.7754  -18.8428 H   0  0  0  0  0  0  0  0  0  0  0  0
    2.7539    3.0964  -17.5554 H   0  0  0  0  0  0  0  0  0  0  0  0
  1  2  1  0  0  0  0
  1  4  2  0  0  0  0
  2  9  2  0  0  0  0
  3 12  2  0  0  0  0
  3 13  1  0  0  0  0
  4 15  1  0  0  0  0
  5  7  2  0  0  0  0
  5 14  1  0  0  0  0
  6  8  1  0  0  0  0
  6 14  2  0  0  0  0
  7 16  1  0  0  0  0
  8 16  2  0  0  0  0
  9 17  1  0  0  0  0
 10 11  1  0  0  0  0
 10 18  2  0  0  0  0
 11 19  2  0  0  0  0
 12 20  1  0  0  0  0
 13 21  2  0  0  0  0
 14 18  1  0  0  0  0
 15 17  2  0  0  0  0
 15 19  1  0  0  0  0
 16 31  1  0  0  0  0
 17 32  1  0  0  0  0
 18 29  1  0  0  0  0
 19 29  1  0  0  0  0
 20 23  1  0  0  0  0
 20 28  2  0  0  0  0
 21 28  1  0  0  0  0
 21 30  1  0  0  0  0
 22 24  1  0  0  0  0
 23 29  1  0  0  0  0
 24 25  1  0  0  0  0
 25 26  1  0  0  0  0
 26 27  1  0  0  0  0
 27 31  1  0  0  0  0
  1 33  1  0  0  0  0
  2 34  1  0  0  0  0
  3 35  1  0  0  0  0
  4 36  1  0  0  0  0
  5 37  1  0  0  0  0
  6 38  1  0  0  0  0
  7 39  1  0  0  0  0
  8 40  1  0  0  0  0
  9 41  1  0  0  0  0
 10 42  1  0  0  0  0
 11 43  1  0  0  0  0
 12 44  1  0  0  0  0
 13 45  1  0  0  0  0
 22 46  1  0  0  0  0
 22 47  1  0  0  0  0
 22 48  1  0  0  0  0
 23 49  1  0  0  0  0
 23 50  1  0  0  0  0
 24 51  1  0  0  0  0
 24 52  1  0  0  0  0
 25 53  1  0  0  0  0
 25 54  1  0  0  0  0
 26 55  1  0  0  0  0
 26 56  1  0  0  0  0
 27 57  1  0  0  0  0
 27 58  1  0  0  0  0
 30 59  1  0  0  0  0
 30 60  1  0  0  0  0
M  END
> <OMEGA_C>
3mz4QAk9/0BTMbrBAdDXQH4QBkGCRsHBvbLLQEhqikDHXpXBsyf/QN+A00A4KrjBqLPWQPrTzL4R
T7XBBvW3QKlxZj/xyKbBmlrFQAz0yL9d07DBS9qlQAR7e748d6LBSPK9QPRN7UD5W8bBx38FQZZ6
CUCFKbnB2PkIQd56YkCxm7zBJ7jMQH8ViUAilaDBhyWkQLT2hUD/KpDBd6zPQIOLWD/NVbDBFBvl
QNyftECLK73Bti6tQO4rwL/WVafBwoXEQP54wUCMXcTBjm7iQOPaA0AV9bTBpKPsQF5hh0CB4brB
n/+lQB5bgkB0TabBs019QOLogEDHU5bB4boEQMiORMAuQYbBUfWlQIHdbkBWGrLBqtpFQL1Sg8Aw
KYLBSaeQQPFKd8CHVobB2juUQMvIfsBKoJLBu+2WQHf6JcDXdZfBtRaAQD3ifkBcH6HBIxPRQH8F
VUAhMbbB+90uQMU9eUDSQpHBCCSfQDZCK8BQxqLBE0+lQMKmm0B+PcvBhR8GQbB4C0GgUrbBmp/S
QJ7eFkEM0MLB+sXoQJLHjkAx1JDBLiMMQbSUyUA7xrLBv2fpQPZs6b58j7zBxMezQOth7D8NwqLB
NJTKQOl9IcBXq7TBuSmSQFfkNr6nYpvBMwelQN9U90DIy8vBvd8QQT9tqz/60bnBo5UXQV1RfECO
57/B1ZHqQHgfjUBw0aTBVm6iQAhnhkAQiofB6SmKP71KU8DX+YLBdEUYQFImBMDJrIPBSj8CQH/s
RsBOC4/ByYePQHSoOUCtbrPBACabQCGsk0CWm7bB5wZHQO7vgcDlvHLBvQAxQARTo8D4vITB68ea
QHqfNsA/9IPBahGmQE1xk8DbrYLB8i2xQI6ckcDZtJTBR8NvQEYBkMDMx5XBb+1wQLpWBMAJI5bB
7AWxQBdRAsD8lZPBOeEAQHafcUAivpbBZUAwQA4rRkBscYzBlN+7QKNt7ECZCMbBiMHVQFYMBkF+
TsHBnb3LQC5di0CtjJXBXMrDQD/5wED75cPBBTC8QGpFaD/xNKbBHvzSQEZcw75SrbXBqW6qQKTH
bb6ZoaHBd4nBQFA4xb/fCbHBLHT3QAAoAEH7arrBtGsFQYCaCEDojLnB8fUIQfbRYUD08LzBUqjM
QNOaiUDqwaDBRlGkQLCNhkBDUJDB0dzPQO1dWj+PULDBYn7lQJIJtUDD/bzBq3etQM9Vvb/i9abB
IH7/QBTT1EDNP7jBw7LiQM2XA0CDGrXBeDDtQK2Qh0B507rBPBGmQBeXgUA+cabBWL59QC+PgEBQ
cJbBdhW+P+7nOsBHYn3BqiymQHpzbUBkQ7LBEssHQITASsDWp4nB1OZhQGq2csCJYojB9qWGQOaO
fsB9WpPBRtaYQF5bKcAbI5fBEUWAQKqBfEC5OqHBkX/RQLbVVECBRLbBZnAvQBrCeEBgVpHBlo6e
QLoNKsBkkKLB0oIUQT0Ox0Dfe6/BBf2hQPCA9UAeSsvBecXPQMu9FkGs9sLB7MvoQHRSkEDlCZHB
hQuwQAGpqEDVjMfBt9m6QCBD7D+88aHBNMbiQIRH4L5sWb3Bb0+aQIa+Kr7FAZrB2YjDQHPwHsC/
ObXBR5YFQT1aDEFnyrbB5Z0QQXrOqD96aLrBSWsXQVgae0BzdsDB51fqQP5IjkAeBqXBc6eiQAZu
h0Cyr4fBR2P5PsqMHsDKhH/BG1ayP1P7d8A0wXTB5IUHQDTPDsDhHnTBChyQQM+uN0CLnrPBShKb
QBfXkkDAxbbBeAG+P3m3dsCvQ47BklsNQFqLDcCF8o3BvMiEQIBISMCRaYPBZOFbQKq4mMBPdoTB
OrOgQPTFlsBdoZLB9eddQHfYisDtLpnBPJuCQI5D679F9ZTBuu63QPVQHsBAQJPBdXIBQMvvb0BL
ypbBdUIxQCB3RkAjZYzBsQ32QIwN/0B9MLrBoaHVQA2oBUE6ZcHBBYXLQBZ7jEDmcpXBXpj9QBJ2
00BQKbjB94G7QJphZz/i/aXB9lnVQLKruL6KWrXBDFqoQFCzeb4b26HBJTfDQLAow7/8DrHBBOC8
QJb760AOosbBWSQGQQAfCkB37bjBRT0JQbu0YkAxo7zBcJjMQBkCikDbpaDBFROkQOWnh0ChOJDB
1jXRQCK9XD+74a/B57LkQC8XtEDOVL3BJzitQDJYvL9RRafBHXDEQPFFwEC0rcTBR/PjQA1XBEDc
lrTBlN7sQMAPh0CD9rrBkSKmQKBegUAkUqbBAH99QHvvgEBkWJbBZAMeQCD2o8A3eYPBg2umQDGv
bEBgHrLBAYY6QMo6bMBRuIDBvuKGQDxuVMBKgIbBLqCAQDy4V8D3o5LBg9ioQBQOOcAhKJjB+0qA
QLIIfEAlIKHBZNrRQKZMVEDCGbbBPzIvQFIqeUCgP5HBlomdQN7HKMC2IqPBY+amQOvHmUAQw8vB
UY0EQZ2RC0G8ObbBebvPQEhpFkHx6MLBfHnoQDX9kUDy75DBzjoLQdoGykC7pLLB3bi5QKB06j+1
l6HBJXrmQPH1zb7U2bzBReuVQP3iRb4Aj5rBFSjGQFqdHcDWRrXBURCkQHaF9UCVJ8zBWKkRQZmf
rT+ngrnBLrMXQZzTfEBJD8DBikzqQCedjkBl6aTBek6iQGMSiUCLmYfBbZTEP9Fnq8CFZ37BrEMT
QAGPpsBjJYzBVCBQQNmwusDICoHBk3uQQOOvNkBAdrPBnjubQABYkkCkqLbBS+4HQEdCP8BQI4PB
88pEQPeFZ8BqEXDBH22QQCRME8DYKYTBmiWgQDjwgMC2M4TBEYpzQBP2jMAeGJXBWlRLQGU7LsDy
5pTB7IW0QEEC/L+MW5TBWdHBQFiNasBDupfBOmkBQKYmb0BDspbBjogxQMJ7R0DCNozBWUn2QGXQ
/0AbyrnBxPzVQIw8BkEU/cDB0QLMQI3oikDbkZXBpfX9QKYT1EAY77fBWEC7QOJ7aj+gLKbBa5PT
QFpewb67gbXBWYeoQNFlYr4Ev6HBMYzBQFRzxL/08bDBDni9QFVo7UDpYsbB6LoFQSSLCUAlUrnB
bCwJQZasYkD00rzBMOjMQOa4iUCOyKDBIqCkQJSbhUBMV5DBrBLQQBsoXD+zLLDB3UDlQK7rtECW
Qb3B1WGsQA6uur9RAafBEx7FQJSWwUAWmMTBGSLjQCUvBEB99bTBzCDtQHCQh0DABLvB4lamQK2v
gUA2eKbBlFB+QAnXf0D7eZbB1jfEP1l2Q8Dt5YbBC3imQPRXbkChSbLBwWNDQDxzTcALvofBv1Na
QFVdg8AvYZHBgNydQDzwhMDvM5PBgySvQOFlNcAcrpfB94uAQPIofEAJRaHBlbfRQDUpVUCpSrbB
2/0vQM9Cd0CsYpHBWpSdQIaTJsBXP6LBPaOnQDeGm0Do08vBOpQEQSXYC0HdsbXBMAPQQKsHF0Ey
X8LBRA3pQK7Nj0BsDJHBl2MLQVpgykCabrLBf8y5QLEn7T8G5KHBGxPkQKUs4L5XFb3BFx+XQKYM
HL5rTZrBoe7DQG3OHsDlD7XBAMSkQGs490B/6MvBlQwRQbNKqz+BDbrBVLkXQXBafED5M8DBTIfq
QKHZjkCvC6XBLwOjQBzhhUDwtYfBSOmkP+CNGsA/AoDBKdWSP5zkJcCCQ47BGCSJP6hjgcBi0YXB
ZiyQQJoOOUAqtLPBCKqbQEaDk0DbwLbBB8ZgQB0MDsAiz4jBfu1bQNHuasACXYDBTddCQE39o8Aq
3Y/Ba1I7QAD6bMA8mJjBv7ytQFuai8ALh4vB/hqlQLbBnsBV55jBBNulQLOOAMBOWZLBrj7SQCqx
OMCpMJjBPPgBQK4Lb0Bd2ZbBLKwxQFeJREAAg4zB

> <OMEGA_E>
4PiHPrDajD7MfJQ+IER6Pg==

> <OMEGA_NBR>
     22739

$$$$
50161595
  -OEChem-04172616093D

 55 58  0     0  0  0  0  0  0999 V2000
    2.4142   -3.2973  -16.9613 C   0  0  0  0  0  0  0  0  0  0  0  0
    7.7555    7.9822  -23.2433 C   0  0  0  0  0  0  0  0  0  0  0  0
    6.7398    8.4070  -24.1216 C   0  0  0  0  0  0  0  0  0  0  0  0
    6.3582    4.3384  -18.7064 C   0  0  0  0  0  0  0  0  0  0  0  0
    7.9557    6.6091  -23.0124 C   0  0  0  0  0  0  0  0  0  0  0  0
    5.8024    0.8859  -20.7704 C   0  0  0  0  0  0  0  0  0  0  0  0
    6.7020   -0.4007  -22.6250 C   0  0  0  0  0  0  0  0  0  0  0  0
    5.2524   -0.2705  -20.2186 C   0  0  0  0  0  0  0  0  0  0  0  0
    6.1595   -1.5728  -22.0671 C   0  0  0  0  0  0  0  0  0  0  0  0
    5.9264    7.4588  -24.7730 C   0  0  0  0  0  0  0  0  0  0  0  0
    8.3363    2.1607  -23.1260 C   0  0  0  0  0  0  0  0  0  0  0  0
    8.5374    3.5489  -23.5785 C   0  0  0  0  0  0  0  0  0  0  0  0
    6.3756    4.2959  -20.1073 C   0  0  0  0  0  0  0  0  0  0  0  0
    5.1322    4.1774  -18.0435 C   0  0  0  0  0  0  0  0  0  0  0  0
    6.5036    0.8429  -21.9919 C   0  0  0  0  0  0  0  0  0  0  0  0
    7.1346    5.6564  -23.6509 C   0  0  0  0  0  0  0  0  0  0  0  0
    5.4327   -1.5191  -20.8616 C   0  0  0  0  0  0  0  0  0  0  0  0
    6.1203    6.0825  -24.5448 C   0  0  0  0  0  0  0  0  0  0  0  0
    7.0705    2.0629  -22.5964 C   0  0  0  0  0  0  0  0  0  0  0  0
    7.3632    4.2323  -23.3779 C   0  0  0  0  0  0  0  0  0  0  0  0
    5.1640    4.0509  -20.8091 C   0  0  0  0  0  0  0  0  0  0  0  0
    3.9558    3.9944  -18.8004 C   0  0  0  0  0  0  0  0  0  0  0  0
    3.6925   -4.0118  -17.0233 C   0  0  0  0  0  0  0  0  0  0  0  0
    5.1586    3.7115  -22.2832 C   0  0  0  0  0  0  0  0  0  0  0  0
    4.2196   -4.0853  -18.4717 C   0  0  0  0  0  0  0  0  0  0  0  0
    4.6965   -2.7056  -18.9241 C   0  0  0  0  0  0  0  0  0  0  0  0
    1.3942   -2.7333  -16.9225 N   0  0  0  0  0  0  0  0  0  0  0  0
    3.9875    3.9404  -20.1501 N   0  0  0  0  0  0  0  0  0  0  0  0
    6.5094    3.3212  -22.7861 N   0  0  0  0  0  0  0  0  0  0  0  0
    2.7403    3.8439  -18.1521 N   0  0  0  0  0  0  0  0  0  0  0  0
    4.9449   -2.7036  -20.3430 O   0  0  0  0  0  0  0  0  0  0  0  0
    5.1308    4.9263  -25.4200 Cl  0  0  0  0  0  0  0  0  0  0  0  0
    8.3803    8.7102  -22.7473 H   0  0  0  0  0  0  0  0  0  0  0  0
    6.5842    9.4614  -24.2961 H   0  0  0  0  0  0  0  0  0  0  0  0
    7.2701    4.4919  -18.1485 H   0  0  0  0  0  0  0  0  0  0  0  0
    8.7398    6.2837  -22.3448 H   0  0  0  0  0  0  0  0  0  0  0  0
    5.6893    1.8279  -20.2543 H   0  0  0  0  0  0  0  0  0  0  0  0
    7.2720   -0.4540  -23.5407 H   0  0  0  0  0  0  0  0  0  0  0  0
    4.6880   -0.2138  -19.2995 H   0  0  0  0  0  0  0  0  0  0  0  0
    6.3011   -2.5199  -22.5664 H   0  0  0  0  0  0  0  0  0  0  0  0
    5.1517    7.7884  -25.4496 H   0  0  0  0  0  0  0  0  0  0  0  0
    9.0573    1.3597  -23.1977 H   0  0  0  0  0  0  0  0  0  0  0  0
    9.4470    3.9564  -23.9943 H   0  0  0  0  0  0  0  0  0  0  0  0
    7.2987    4.4476  -20.6471 H   0  0  0  0  0  0  0  0  0  0  0  0
    5.0894    4.1935  -16.9644 H   0  0  0  0  0  0  0  0  0  0  0  0
    4.4291   -3.4844  -16.3995 H   0  0  0  0  0  0  0  0  0  0  0  0
    3.5518   -5.0332  -16.6402 H   0  0  0  0  0  0  0  0  0  0  0  0
    4.4649    2.8741  -22.4497 H   0  0  0  0  0  0  0  0  0  0  0  0
    4.8133    4.5911  -22.8463 H   0  0  0  0  0  0  0  0  0  0  0  0
    5.0592   -4.7945  -18.5184 H   0  0  0  0  0  0  0  0  0  0  0  0
    3.4128   -4.4280  -19.1363 H   0  0  0  0  0  0  0  0  0  0  0  0
    3.9230   -1.9594  -18.6899 H   0  0  0  0  0  0  0  0  0  0  0  0
    5.6252   -2.4503  -18.3926 H   0  0  0  0  0  0  0  0  0  0  0  0
    2.0160    3.7080  -18.8280 H   0  0  0  0  0  0  0  0  0  0  0  0
    2.7826    3.0505  -17.5449 H   0  0  0  0  0  0  0  0  0  0  0  0
  1 23  1  0  0  0  0
  1 27  3  0  0  0  0
  2  3  1  0  0  0  0
  2  5  2  0  0  0  0
  3 10  2  0  0  0  0
  4 13  2  0  0  0  0
  4 14  1  0  0  0  0
  5 16  1  0  0  0  0
  6  8  2  0  0  0  0
  6 15  1  0  0  0  0
  7  9  1  0  0  0  0
  7 15  2  0  0  0  0
  8 17  1  0  0  0  0
  9 17  2  0  0  0  0
 10 18  1  0  0  0  0
 11 12  1  0  0  0  0
 11 19  2  0  0  0  0
 12 20  2  0  0  0  0
 13 21  1  0  0  0  0
 14 22  2  0  0  0  0
 15 19  1  0  0  0  0
 16 18  2  0  0  0  0
 16 20  1  0  0  0  0
 17 31  1  0  0  0  0
 18 32  1  0  0  0  0
 19 29  1  0  0  0  0
 20 29  1  0  0  0  0
 21 24  1  0  0  0  0
 21 28  2  0  0  0  0
 22 28  1  0  0  0  0
 22 30  1  0  0  0  0
 23 25  1  0  0  0  0
 24 29  1  0  0  0  0
 25 26  1  0  0  0  0
 26 31  1  0  0  0  0
  2 33  1  0  0  0  0
  3 34  1  0  0  0  0
  4 35  1  0  0  0  0
  5 36  1  0  0  0  0
  6 37  1  0  0  0  0
  7 38  1  0  0  0  0
  8 39  1  0  0  0  0
  9 40  1  0  0  0  0
 10 41  1  0  0  0  0
 11 42  1  0  0  0  0
 12 43  1  0  0  0  0
 13 44  1  0  0  0  0
 14 45  1  0  0  0  0
 23 46  1  0  0  0  0
 23 47  1  0  0  0  0
 24 48  1  0  0  0  0
 24 49  1  0  0  0  0
 25 50  1  0  0  0  0
 25 51  1  0  0  0  0
 26 52  1  0  0  0  0
 26 53  1  0  0  0  0
 30 54  1  0  0  0  0
 30 55  1  0  0  0  0
M  END
> <OMEGA_C>
KIIaQL0GU8CrsIfBKS34QMtt/0A78rnBQqzXQPuCBkER+cDBLHbLQOrTikCpppXBUpX+QMd900BS
GbjB9qy5QCnNYj+zKabBeHbWQPglzb7o/7TBgROoQJKAir60v6HBOBrFQGVQyb95ibDBuKS9QKiu
7kAuL8bBrGEFQUZICkABArnBAZkIQXEgY0DSoLzBPwXMQD14iUDM26DBqjqkQGWthUAHWZDBwB3Q
QCPKVz9z76/BsU7kQE0BtUACNb3BDdmtQK9xwr+K5KbBL9nDQKKjwkCrW8TBs0HiQHAGBEBsxbTB
uZ/rQAxvh0ACBrvBMz+lQOyggUAYeabBnit9QBykf0BQZ5bBLlFsQFVggMDEL4jBJxOlQGuIbUAE
RLLBTAeHQPi6gsARxpPBBUqWQBkpLcB1ZJfBSnayP37uLsBJYYfB7DN/QJgvfEB7M6HBm0zQQISO
VED2SbbBxmEvQHUCdkBsN5HB2DyeQEwHLcB+vqLBni+kQHeknUA4XMvBzxUGQfBcC0GD+rXBdbHS
QMZhF0FiXsLBlqToQGq9j0AYMJHBTdYLQc8TyUATwrLByQ62QBv46T+3CKLB3LPoQMxt6L5xU7zB
ZASWQIbwWr5wZZrBX6LJQLtFIcATiLTBotqkQDU6+UC3mMvBnOoQQQwLrj/NlLnB2SYXQRw2fUBN
9L/B047pQKJSjkBRLaXBMdyiQOgwhkArt4fBlruNQEEAX8ApMoPB5k9jQDwQocAYH4XB0+COQEjx
N0DlmLPBvwaaQAfqkkA4xbbBBOWhQKlsmcCmJZTBrmtaQDyyjcALF5nB6RJ7QBHO+r/XhJXBfgG0
QPHRHMASJJPBMgYBQKtQbUC4n5bBwxUyQMU6Q0DpW4zBb1kZQIEnU8AaV4fBGxH5QAn1/0A5tbnB
VnLYQHfqBkGqqsDB02XLQJszi0Acn5XBgXz/QKvz00DQ9rfBZlbVQFATxL6dSLXBQDa5QEJ7Zj+c
WabBUjzEQI88x78sx7DB8canQBCJg75X6KHB+16+QMez70Dp78XBKE8FQQyWCkBeG7nB7s0IQUWb
Y0BknLzB8kbMQLkCikCQ1aDBnwmkQAKvhUAkZJDBV1/PQDLgWz+gKbDBZiPlQCirtUAjH73BnHKt
QP65wL9GD6fBRpvEQJiXw0BPOcTBHgXiQHDpBEDD6bTBiT3sQP0BiED7/brBTKOlQOJAgkBqg6bB
rjJ9QDV+f0DAhpbBN7VrQChqf8CLNYjBrIelQDqPb0AyULLB81yFQLmwgcDp6pPBEcSTQDjEKsDo
nJfBawKvP/JpMMCGr4bBGtB/QL/0fECPUKHBvJzQQNr7VUCrU7bBRDsvQHDvc0A5c5HB5kOeQH5c
LMDp16LB0cmkQE7inkCKSMvB+JIGQcKMC0EctrXBaWrTQE7QF0HY9sHBgmroQPxCkEBFGpHBp1EM
QStWyUCDqrLBaRXnQFQq3r63r7zBTq61QL7C6z8DNqLBQpvIQNgtIMDvy7TBs+qVQIaWTb5BhprB
ioalQBx1+kCtTsvBq7MQQTC0rT+vubnBRnUXQZdSfUAy37/Bdu3pQGzsjkCGGaXB8GuiQIj6hUDN
wofB1cONQAX8XMDpZIPBc5lkQMWAoMB8I4XB4xOPQLuDOkBdt7PBPtSaQMkulEAexbbBOmOgQHge
mMBMg5TBSQ5WQPHTjMDJDJnBjIdzQKAp+b8LQJbB3yawQPlMF8BUA5PBbXgBQKjSakD87JbBVogy
QBrNQEAoqIzBIykaQIgJVMCH/obBezG+QJfv7kA64MXBjLvXQOTgBkH/ssDBYZ7LQJ92i0BW7pXB
D2XFQLwew0AhBMTBgnC4QHj7bT9JXabBKyXVQFL0wr4gE7XBjsSmQHNqYL441aHBk93DQBTPxb8x
ebDBDXL4QJRiAEEhqLnBeyMFQR6uCUABS7nB6dwIQfl7YkB50LzBix3MQGXXikDsI6HBOn2kQMGI
hUD/pJDB5vvOQEXaXj9fH7DBUSXmQMH1tUCJ9bzBCLGsQB36vL8P06bBqc3/QCrz1EBUxbfBG9Dh
QIcOBUAM/7TBLfHsQFQgiEAw87rBolylQCplg0DUzqbBXr19QOC/f0AnuJbBrNZuQKvte8AEpofB
pnSlQGlWcEAmnLLB6zmHQG9rgMB4UpPBblWUQC/2J8CpNZfByc+sP8/9NMCbgYbBUYZ/QLWffkB4
iKHBd8PQQMpkVkBcc7bB5HUwQJ/VckBxh5HBQ2qdQAr1KcC0gaLB5dsTQcTSxUC0rq7BzxqlQIns
+ECbRMvBiTvSQE6yF0FNIcLBn8ToQB1okED8dJHBgtSxQKJ9q0Cq/sfBf8y0QMBv8D+nVqLBcTDn
QL465L7bbLzBuY2UQEIVGb7rgprBMmbIQPzwH8DAXbTBtPgFQds+DEEMsbXBcVgQQUuxqj8F+LnB
BncXQUsve0BOQMDBtqjpQFX4j0Cnb6XBoyqjQIRNhUDTAojB8j+OQPzYVcC074LBJixrQNKJnsBW
WITBcxOPQE4RO0Br87PBytyaQM5FlEAGM7fBQvCiQGsMlsAXxpPBCLdaQCDDjMAvbpjBJDF0QMhH
9b/Fr5XBxhmxQJopE8D62pLBAisCQJ/2aUDT8JbB3MY0QOQmP0Bt14zB

> <OMEGA_E>
wPVhPUCwZz2g+6E9

> <OMEGA_NBR>
     25770

$$$$
50164938
  -OEChem-04172616093D

 39 40  0     0  0  0  0  0  0999 V2000
    7.6267    4.3455  -19.7470 C   0  0  0  0  0  0  0  0  0  0  0  0
    8.2556    4.3198  -21.0078 C   0  0  0  0  0  0  0  0  0  0  0  0
    6.1476    3.6467  -22.0587 C   0  0  0  0  0  0  0  0  0  0  0  0
    5.5240    3.6838  -20.7995 C   0  0  0  0  0  0  0  0  0  0  0  0
    6.2582    4.0307  -19.6596 C   0  0  0  0  0  0  0  0  0  0  0  0
    7.5164    3.9729  -22.1618 C   0  0  0  0  0  0  0  0  0  0  0  0
    4.1250    3.5932  -19.1053 C   0  0  0  0  0  0  0  0  0  0  0  0
    6.9935    1.2207  -17.9793 C   0  0  0  0  0  0  0  0  0  0  0  0
    6.5355   -1.1472  -20.8536 C   0  0  0  0  0  0  0  0  0  0  0  0
    8.6437    0.1241  -20.3925 C   0  0  0  0  0  0  0  0  0  0  0  0
    5.9467    1.6677  -16.9487 C   0  0  0  0  0  0  0  0  0  0  0  0
    6.2208    3.0743  -16.3605 C   0  0  0  0  0  0  0  0  0  0  0  0
    5.6762    4.2710  -17.1860 C   0  0  0  0  0  0  0  0  0  0  0  0
    7.4289   -0.5749  -19.7389 C   0  0  0  0  0  0  0  0  0  0  0  0
    4.2173    3.4239  -20.4057 N   0  0  0  0  0  0  0  0  0  0  0  0
    5.3679    3.9826  -18.6119 N   0  0  0  0  0  0  0  0  0  0  0  0
    2.9735    3.4039  -18.3543 N   0  0  0  0  0  0  0  0  0  0  0  0
    6.5716    0.3308  -18.9577 N   0  0  0  0  0  0  0  0  0  0  0  0
    8.1785    1.4884  -17.8085 O   0  0  0  0  0  0  0  0  0  0  0  0
    8.2971    3.9515  -23.7213 Cl  0  0  0  0  0  0  0  0  0  0  0  0
    8.1872    4.6032  -18.8605 H   0  0  0  0  0  0  0  0  0  0  0  0
    9.3039    4.5655  -21.0926 H   0  0  0  0  0  0  0  0  0  0  0  0
    5.5846    3.3714  -22.9383 H   0  0  0  0  0  0  0  0  0  0  0  0
    5.6652   -1.6488  -20.4055 H   0  0  0  0  0  0  0  0  0  0  0  0
    6.1924   -0.3295  -21.5044 H   0  0  0  0  0  0  0  0  0  0  0  0
    7.1105   -1.8723  -21.4482 H   0  0  0  0  0  0  0  0  0  0  0  0
    9.2939    0.5396  -19.6085 H   0  0  0  0  0  0  0  0  0  0  0  0
    9.2098   -0.6064  -20.9891 H   0  0  0  0  0  0  0  0  0  0  0  0
    8.2916    0.9365  -21.0453 H   0  0  0  0  0  0  0  0  0  0  0  0
    4.9609    1.6803  -17.4366 H   0  0  0  0  0  0  0  0  0  0  0  0
    5.9381    0.9406  -16.1233 H   0  0  0  0  0  0  0  0  0  0  0  0
    5.7625    3.1172  -15.3615 H   0  0  0  0  0  0  0  0  0  0  0  0
    7.3104    3.1953  -16.2696 H   0  0  0  0  0  0  0  0  0  0  0  0
    4.7513    4.6210  -16.7042 H   0  0  0  0  0  0  0  0  0  0  0  0
    6.4298    5.0718  -17.1582 H   0  0  0  0  0  0  0  0  0  0  0  0
    7.7867   -1.3986  -19.1036 H   0  0  0  0  0  0  0  0  0  0  0  0
    2.2263    3.1192  -18.9549 H   0  0  0  0  0  0  0  0  0  0  0  0
    3.1365    2.6962  -17.6669 H   0  0  0  0  0  0  0  0  0  0  0  0
    5.5907    0.3024  -19.1501 H   0  0  0  0  0  0  0  0  0  0  0  0
  1  2  2  0  0  0  0
  1  5  1  0  0  0  0
  2  6  1  0  0  0  0
  3  4  1  0  0  0  0
  3  6  2  0  0  0  0
  4  5  2  0  0  0  0
  4 15  1  0  0  0  0
  5 16  1  0  0  0  0
  6 20  1  0  0  0  0
  7 15  2  0  0  0  0
  7 16  1  0  0  0  0
  7 17  1  0  0  0  0
  8 11  1  0  0  0  0
  8 18  1  0  0  0  0
  8 19  2  0  0  0  0
  9 14  1  0  0  0  0
 10 14  1  0  0  0  0
 11 12  1  0  0  0  0
 12 13  1  0  0  0  0
 13 16  1  0  0  0  0
 14 18  1  0  0  0  0
  1 21  1  0  0  0  0
  2 22  1  0  0  0  0
  3 23  1  0  0  0  0
  9 24  1  0  0  0  0
  9 25  1  0  0  0  0
  9 26  1  0  0  0  0
 10 27  1  0  0  0  0
 10 28  1  0  0  0  0
 10 29  1  0  0  0  0
 11 30  1  0  0  0  0
 11 31  1  0  0  0  0
 12 32  1  0  0  0  0
 12 33  1  0  0  0  0
 13 34  1  0  0  0  0
 13 35  1  0  0  0  0
 14 36  1  0  0  0  0
 17 37  1  0  0  0  0
 17 38  1  0  0  0  0
 18 39  1  0  0  0  0
M  END
> <OMEGA_C>
EA70QJcOi0DF+Z3B5RYEQbQ7ikABEKjB3rjEQDhkaUA7eLDB9sSwQA7Ea0BPZabBBEPIQMz7gEDJ
Rp3BoobwQOJDfkBhS7HBDgCEQED3ZUCW15jBFMvfQARAnD+m1Y/BECPRQJTXkr9B1KbBl0wKQQBC
/j3UI6PBsEu+QIB21T/ylofBLBHHQIjAREBP4oLBOqO1QKmriEDffInBwrntQCgvE79W6Z3BPPSG
QMIgW0DbPqPBFMarQLLjfkAr5ZTBYU0+QKPZWUCe1ZLBSkrSQIBaqT5gqZfBG9sCQaaEvj/Hd47B
EsEEQUTlfEAjxb3Bxf4CQWRNk0A84pbBldwUQToYkkCqvajBMrWyQCPFV0CigbfBDUm1QIYM079q
PqPB8yfGQHWvqL4aCazBfInjQCGp77/5lavBo7MUQWMkCj8q3pzBOVsTQdc7G7+W6afBdKoEQbG+
bz+3XKjB6L+eQLIS1z8ZfovB9AS+QG3NcD94/IDBZGa4QJ+AR0CSyHXBle7pQFaATEAUKILBrAqY
QOPek0AxooXB5MDNQNNLokD3Q4nBfyz5QGwFs79G1JjBBHwOQIShR0Cmo5fBEL1IQBuOLEDSVY3B
seayQHramj5oM5nB4mH0QN/giECWdZ3BfZMEQdRDh0BJeafBzI7FQDKeaEByKbDBnBexQCK6a0Cg
KabBPEzIQOikf0AB6JzBxr/xQIzceUBuzrDBbm+DQEbpZUBx0ZjBBPbiQMSglT+CJY/BSCcHQQAz
+L6GF6LBqGzBQMgLj7/rRKXBrP3FQDCc2j/1MYbBeKTPQCHIS0BeOIPBeMGzQJNgh0C+HYnBaFjf
QAB6Hb1ou6DBWuqGQIccXUD2O6PBIDarQI0YfEANnZTBqaM7QBQYW0AFFZPBtuLSQABMID4Jh5XB
zPgDQa4EyD8hHJDBh7QFQVyYdUDkML3BewcDQV7zkEB/UJbBLX8VQZbvjUBoA6jBQ5mzQJEpWUBU
SbfBFdkRQejBkz47157BGboJQavvtr98xJ3Bpp8KQZDXIb9do6rBJfefQMJdTL+gS6TBZVfIQCrx
ob8C0a3BS4zGQIb6A8Ag8qDB4IKkQMmg0T+d2ojBAY/KQN7vij9XD37BFXbKQOd8U0CWI3XB82Hx
QBHaWECBH4XB3sqUQOxiiUD29YTBIiXEQDF4pkCXoojBwHPaQOkQZT8aOqXB+y4MQPu2S0D9F5jB
511DQNI2LEDpuI3BdKW9QHyi8779VJLBFpv0QCMygkDjeZ/BYPgCQZhmhkBq0anBvEC+QA+Gf0CS
krHBFSytQGzCdkDQOKfBACTIQAhLeUAzTZ7B4crqQJ5PhUC/2bLBvyaEQMs6ZEBMGJnBuYvIQHiq
Az/mfZTB5SCiQBiTL79Hs6nBz6jtQNTc275LEbDB6vDeQM9LsD+HCIzBFne/QBaoEUA+tIXBGGW8
QEo+bUCYPIrBcpvRQFjbL7/4MKbBT5qDQB3zaUCzmKPBrvmtQMYkb0C8ipXBImVBQIrkVUC8qpLB
K7fbQCzDwD6Rcp7B+7CpQODTLb5t5pHB2DkAQT+zikDkor/BE5MEQaU2g0BsiJjBsQEUQUp2ikDd
2KrBBX+pQNHHfUArerjBPZmNQASKXr9PtKLBwRaaQLCblD6iOa3BAPCcQLoivb9tq6/B3scHQRS9
2r4zs63BBi3oQBVxnL8SA7bBxlPlQCKxCz9HkbPBTXzvQDm3Nj/3XIbBn4D2QDFZAUCTD5DBVX2f
QC+c6D8C+4XBhF7KQBBkFUAvs3rBUIClQI/siEAaXYXBWSjcQEaphUDlvInBTZnZQBbg1b9mzaLB
cC0NQK+NUEB8PpfB/b1JQFPZH0C4go7Bs/nxQEIKhj/MgaDBsZr0QIu1gkA2fZ/BEfMCQRkOh0DO
1anBqky+QE4xf0AOl7HBXTitQBjIdkApO6fBxzLIQM6AeUCFT57B78vqQJh0hUCG37LBQz2EQKoN
ZECGGJnB0ZLIQCaf+T7YVZTBoR31QDjr0b6uOK/BZPqrQHfgi7/a+6jBsS/eQMeLqD+Wh4vBFvi+
QIzUEEDUfoXBv768QMoWbEAjPorBcnPPQMBSt7wC+6fBYKiDQEoLakDGmKPBhiWuQBpKbkAbjJXB
vW9BQPLyVUCBrpLBE/fgQEDy+z1lHp3BRoGjQPij3D2mTZPBXTUAQfTKikAfq7/BUpIEQUfug0AR
jJjBcfQTQWWdi0Cv3KrBMZGpQHC1fEDrfrjB8z4HQVkBsj4zjK7ButwAQbnLsb9UvazBYSHqQBoH
777LkbfB19uQQKU8Ur+zz6PBNx+hQDsAk7/NV7HBS7e4QBeFBMBVg6bBLonsQChdID9VsYXBanr3
QLa+9j+7No/BFbueQHlR6T+dyIXBpYbJQL6qFUCfPnrBcl6mQCMWiUCLZYXBOdrcQMVfhECg0onB
TITCQPxNcT/isqrBFjkNQL0JUUBbRJfBo3BJQGC+H0A3jI7BhxUAQc2OT730A5zBZuzsQM6/m0BP
eqHBjrb+QB8LmED8yqvBDGu9QPCvaUC+HbLBt7yrQHDmcUC406fBPHLDQIDKi0AVmJ/BVhfnQNJW
hEBaFLTB4u+DQAJHakCSWJnBw/XsQCAbZT+2oYzBWo71QMjYXb9aBKfBcRkQQeD1kj8cbKHBN2zK
QOb58T/RTonBOufcQFQWVUBo5ojBZAS7QKggjUApZYvBWMoEQcCvCb53bp3BJZeEQEygWEDGoKPB
htqqQM21h0BkgJbBxOtEQD7aVkA0eZLBRKXmQMDUWj6WJ5bBfCUIQSDZbz/UXojBMKL9QMSJfUDR
w8DBB9v+QPChqkD4GJvBpDUPQZhEpEArXq3BzUWrQKHuS0CedbjBQG7lQBbK47+lN6TBWhzeQBRb
Vb6D76rBP2YHQWhZkb+lwqzBjEoXQZd51j+ZlprBMbIcQfJ4YD8TLKfBH1oEQX7q5j/xWKXBhBOw
QCGk7T8rI4/BJEO+QL4Mzz/qV4HBrcPpQNq8YEDF1oDBJd/2QA4tWkB/zo7BejegQJQPikDlvYXB
15HJQO0BrUCOkYrBmngQQQw7Sr/nc5nB4koWQPCSOUBJjZbBwf1ZQMkrMEBuq4zBlNfIQMqxVb0N
JZjBLfTzQHm+h0BEp57B748DQVJAh0AK2ajBL1zBQEj9ckBfGbHBv3CuQCXAc0Da5KbB5a7HQP5B
gECwyp3Bl+rtQBR7f0BTC7LBe5mDQNM6ZkAYC5nBbZzqQIoQiz9Nv5HBYYK3QLDJ879IuZ7BE+Kw
QFjZyz5TSKbBFwrmQBBp4D9tuYbBUsG6QLncHkDr9oTBVA25QFPneUBB0YnB+TXMQJRjBL/DRJ/B
wLWEQNWLZEDBjaPBo3usQCwVeEBqOZXBHgo/QIJMV0BA2JLBfszOQID5Zz12eJTBvSUFQVcPqT+s
OpfB/vwCQVyle0A1nr7BhHoDQRjIjUCumJfBJ48UQROejECLo6nBFfytQBTyaECAJLjBlyHLQFcq
JMCnrZnBeD+XQH256L+5RZvBq0a1QFjnFMDE1KbBcbC/QOSJsj86r6bBRaeuQJGlzbzJYq7BEqCQ
QHR69z6906LBtUnpQHC2eT/6jYDB+PX/QM1JH0Bq04XBFUKhQKiX8D/upYjB5Qi1QAXjI0DHm3jB
e5ihQAkhkEB6VoXBmd/YQLS9i0BvH4nBZ2fsQHIGG7+lwaLBjhYNQD8VS0B1m5fB9HhJQGcPJUAu
EI7BFZa7QKTVn748y47BRXz0QOx7g0BhX5/Bov4CQR4Ah0Apt6nByZa+QPK4fEA+h7HBR0mtQPt0
dkAvLqfBUxrIQEunekB8P57BoBrrQFwchEBlx7LBty6EQDszZEB+EpnB6e2xQNBX4D6jrZfBwRbQ
QNwiHb+YQK/B0nkLQUCWL722jqbBr0SzQIJzZj8p5IvBt8DSQJpCBECuZ4nBkLy9QEFWXUDWhorB
Vg7oQKid2r66k6TBkqqDQFg6akAXkaPBsjmuQNu8bECyipXB+hZBQLY6VkDhr5LBX4/VQGyKJD/t
D57BMyuXQGhWzL5pPprB3H8AQahuh0AmlL/BWmkEQa57hUCnZ5jBDfsTQe7ni0AAuarBdQaqQOXG
eEBwdLjBkp2uQLZdY79FpK3B8gTRQDXHpj6k0rPBNInfQPHFtL++6bPBALMTQe8grj082J7BWmUT
QeKSVr+QK6vBOSMMQZpcZj91FKvBSeKSQOoJnT8WpInBCJq8QLYsGj0p9IbBznDeQO/y+T+FJ4HB
euPtQDxnAEBK/Y7BSH+iQKhtYUD++YTBanPVQFdZh0DYeIjBbiLnQCIHsL9oH6DB9PwMQJ15UUB3
S5fB6thIQN76H0AHjo7BLw/jQF5Lxj91OZ7B+GX0QMAIhED5WJ/BiusCQeJCiEBxr6nBMqG+QGIu
fUBwhrHBHFmtQCIMdkB3LqfBwh3IQJ9JekBePJ7BrQrrQDIfhUDawrLBPyqEQGb5Y0BRFpnB6lO0
QJxKuD6hupbBCMkLQQDP4z08AafBCWrSQMDSc78lGK3Bu/yxQGyMYz8pM4vBZMXRQDYQBECbEonB
j129QB6ZXUCHdorBKYvmQBgELj5xRabBMriDQCm/aUBZlaPBky2uQOAfbECTiZXBvfRAQDK3VkDN
spLBiTfcQMCydj125JrBC4aTQKApOT3uepvBEHUAQbAmiUAMjr/BVVsEQUMNhkBJYJjBOtoTQVDn
jUBUrarBBiCqQOq1eEAqdbjB58ASQSdPaj8EHaLBGmwRQYfdXL+XCqTBUr0QQWaUdD4VY6/B11Wv
QBhAZr9BgKzBOxrcQK0EVL/wfrXBzHfdQKcD979yJqrBWT6RQEQ1nz9HqYnBeJm5QHQihT0osIXB
brrdQBMJ/T8204DBMq7sQLu3/D9fs47BdAWiQMI/Y0B494TBRWDVQGVJh0AAe4jB9JjbQHgZkj+i
XKnB1tIMQOQ8UkAaTpfB9EtIQFmEIEBBi47Bhh7zQJ1/fL6F35XBJtz1QIUQgkBYT5/B5ogDQQoA
hkBbranBWXC/QO49fED+X7HB4HKuQAaPdEDl/6bBT3bJQIrzd0DEFp7BrezrQHbbg0B/srLBlGaF
QFSnY0DI15jBhUblQFrpYj+lGpDBz2IaQRASer6/uJ3B6of6QJiHtL5YvKvBSfe4QL/bhT8BG4vB
xMizQCynFEDcMYTBjF++QGz0aUAO/4nB5MQEQVwHrD7DZ6HBP+KEQOh9aEBAWaPBCHWvQLKTbEAO
TpXB1mtDQKrvVUAaeZLBUvTnQAAIED4EaJnB/FoCQdM3uD8gO4zB6r0AQQtkiEB+hL/BNDkFQdGx
g0DTYZjBz4YUQTKpikA7u6rBaaOqQKVjeUAARLjB3YEfQVjPhD45VJbBnqIYQdxAqb9vNZzBr3Mm
QRqarL3G/6PBNavbQLsVlj0IP67BnzQJQevGRb7lErLBG8f2QBcwt7+OSKrB2zKhQIBVij8wl5HB
/MGyQGy3Lj5JAYbB82CSQLbJF0DfcoHB+SjJQMTnDkD7enrBjPyuQNtRj0Awm4XB2UjhQCztckA5
6YnBP88GQeqEtD9B/6LBMIEPQA9cUEBZGZfB519LQDcwIEDOPo7B4+TRQFuaEL+QuJrBsdXyQF8G
g0A3S53BQ/YDQX4cg0AbOafBmITDQKdIcUBuYLDBAJyuQO+4b0BSZabBbBHGQCCaeUAa7JzBbFvw
QA4RfEDvwLDBlRmAQFJVZ0DpMZnB/0ADQXLNej/BDYfB6mcSQRE7U78DVlvBL6ccQanIzr89K4DB
jUncQDLP0T8zMIrB+arZQGTCQ0BBRYXBonuxQD8rdkDD54jBYyMXQQcoxL7YfnLBA7yDQJblZUCh
rqPBfZ+oQIG4cUBcrpTBlbQzQEGwX0AynJPBlg4EQf35lz7TyHrBSyYTQa65jz9gtozBcHIFQdsb
fkCzBr3BslwCQVuvh0Bp/pXBjB0VQcgSh0BRjafBwWaxQFZKakCsrrfBH34OQfEDaD2HkVHBgccE
QbG5wr8aRlvB/5EgQWPIqb+gpFTBfQIgQbWRpb8UaojBfdUqQZKOB8BYtHnB/woPQTkHFMDpKoDB
glzaQPYj2z+q9JLB6IDBQI31gz8yM4fBHu/YQAHDPUBFAnnBSE/2QIzcZ0DurYfBBJOVQMQwXEA0
o4TBtOu1QOHhnED8tYbBw9skQW+XnD6bdnLBL10DQGX3WED7yJjBpVo2QJBoLEDB1Y7Bh3ztQKNa
iD6V7HHB

> <OMEGA_E>
StAQPxwPGD8criA/UOwgP147Ij980Sk/pCksP0ivLD9QdgE/JjJfPw==

> <OMEGA_NBR>
      7452

$$$$
50164881
  -OEChem-04172616093D

 43 45  0     0  0  0  0  0  0999 V2000
    6.8828   -1.3176  -23.5104 C   0  0  0  0  0  0  0  0  0  0  0  0
    8.2676   -1.4414  -23.2793 C   0  0  0  0  0  0  0  0  0  0  0  0
    6.0583   -0.6818  -22.5624 C   0  0  0  0  0  0  0  0  0  0  0  0
    8.8316   -0.9451  -22.0944 C   0  0  0  0  0  0  0  0  0  0  0  0
    6.6211   -0.1784  -21.3769 C   0  0  0  0  0  0  0  0  0  0  0  0
    7.6719    3.7977  -20.0298 C   0  0  0  0  0  0  0  0  0  0  0  0
    8.1636    3.9944  -21.3367 C   0  0  0  0  0  0  0  0  0  0  0  0
    5.8734    4.0765  -22.1971 C   0  0  0  0  0  0  0  0  0  0  0  0
    8.0110   -0.3421  -21.1295 C   0  0  0  0  0  0  0  0  0  0  0  0
    5.3901    3.8704  -20.8937 C   0  0  0  0  0  0  0  0  0  0  0  0
    6.2794    3.7402  -19.8212 C   0  0  0  0  0  0  0  0  0  0  0  0
    7.2645    4.1412  -22.4175 C   0  0  0  0  0  0  0  0  0  0  0  0
    4.1567    3.5628  -19.0992 C   0  0  0  0  0  0  0  0  0  0  0  0
    7.3586    0.6976  -17.8406 C   0  0  0  0  0  0  0  0  0  0  0  0
    8.6371    0.0796  -19.8312 C   0  0  0  0  0  0  0  0  0  0  0  0
    5.8796    0.8728  -17.5031 C   0  0  0  0  0  0  0  0  0  0  0  0
    5.5929    2.1137  -16.6347 C   0  0  0  0  0  0  0  0  0  0  0  0
    5.9784    3.4613  -17.3011 C   0  0  0  0  0  0  0  0  0  0  0  0
    4.0993    3.7475  -20.3989 N   0  0  0  0  0  0  0  0  0  0  0  0
    5.4910    3.5759  -18.7008 N   0  0  0  0  0  0  0  0  0  0  0  0
    3.0542    3.3761  -18.2788 N   0  0  0  0  0  0  0  0  0  0  0  0
    7.6736   -0.2294  -18.7931 N   0  0  0  0  0  0  0  0  0  0  0  0
    8.2373    1.3994  -17.3516 O   0  0  0  0  0  0  0  0  0  0  0  0
    7.8719    4.4080  -24.0311 Cl  0  0  0  0  0  0  0  0  0  0  0  0
    6.4520   -1.7122  -24.4188 H   0  0  0  0  0  0  0  0  0  0  0  0
    8.8961   -1.9195  -24.0160 H   0  0  0  0  0  0  0  0  0  0  0  0
    4.9986   -0.5814  -22.7453 H   0  0  0  0  0  0  0  0  0  0  0  0
    9.8951   -1.0270  -21.9255 H   0  0  0  0  0  0  0  0  0  0  0  0
    5.9991    0.3313  -20.6560 H   0  0  0  0  0  0  0  0  0  0  0  0
    8.3539    3.6924  -19.1990 H   0  0  0  0  0  0  0  0  0  0  0  0
    9.2286    4.0330  -21.5121 H   0  0  0  0  0  0  0  0  0  0  0  0
    5.1854    4.1844  -23.0226 H   0  0  0  0  0  0  0  0  0  0  0  0
    9.5711   -0.4760  -19.6611 H   0  0  0  0  0  0  0  0  0  0  0  0
    8.8496    1.1588  -19.8442 H   0  0  0  0  0  0  0  0  0  0  0  0
    5.3162    0.9673  -18.4431 H   0  0  0  0  0  0  0  0  0  0  0  0
    5.5379   -0.0201  -16.9590 H   0  0  0  0  0  0  0  0  0  0  0  0
    4.5163    2.1359  -16.4100 H   0  0  0  0  0  0  0  0  0  0  0  0
    6.1611    2.0175  -15.6977 H   0  0  0  0  0  0  0  0  0  0  0  0
    5.5447    4.2816  -16.7103 H   0  0  0  0  0  0  0  0  0  0  0  0
    7.0748    3.5507  -17.3030 H   0  0  0  0  0  0  0  0  0  0  0  0
    2.2199    3.4045  -18.8293 H   0  0  0  0  0  0  0  0  0  0  0  0
    3.1236    2.4880  -17.8244 H   0  0  0  0  0  0  0  0  0  0  0  0
    7.2359   -1.1283  -18.7743 H   0  0  0  0  0  0  0  0  0  0  0  0
  1  2  1  0  0  0  0
  1  3  2  0  0  0  0
  2  4  2  0  0  0  0
  3  5  1  0  0  0  0
  4  9  1  0  0  0  0
  5  9  2  0  0  0  0
  6  7  2  0  0  0  0
  6 11  1  0  0  0  0
  7 12  1  0  0  0  0
  8 10  1  0  0  0  0
  8 12  2  0  0  0  0
  9 15  1  0  0  0  0
 10 11  2  0  0  0  0
 10 19  1  0  0  0  0
 11 20  1  0  0  0  0
 12 24  1  0  0  0  0
 13 19  2  0  0  0  0
 13 20  1  0  0  0  0
 13 21  1  0  0  0  0
 14 16  1  0  0  0  0
 14 22  1  0  0  0  0
 14 23  2  0  0  0  0
 15 22  1  0  0  0  0
 16 17  1  0  0  0  0
 17 18  1  0  0  0  0
 18 20  1  0  0  0  0
  1 25  1  0  0  0  0
  2 26  1  0  0  0  0
  3 27  1  0  0  0  0
  4 28  1  0  0  0  0
  5 29  1  0  0  0  0
  6 30  1  0  0  0  0
  7 31  1  0  0  0  0
  8 32  1  0  0  0  0
 15 33  1  0  0  0  0
 15 34  1  0  0  0  0
 16 35  1  0  0  0  0
 16 36  1  0  0  0  0
 17 37  1  0  0  0  0
 17 38  1  0  0  0  0
 18 39  1  0  0  0  0
 18 40  1  0  0  0  0
 21 41  1  0  0  0  0
 21 42  1  0  0  0  0
 22 43  1  0  0  0  0
M  END
> <OMEGA_C>
lD/cQEmnqL9iFbzBCEgEQUZ/uL/5O7rBaN3BQN6JLr/Of7TBC04NQZTvcb9ZwbDBaODTQCy2Nr7o
A6vB3n/1QJ8Nc0D3PKDBJ54CQaOkf0CRsarBrvK7QNBygkC7k7HBEi0AQdgqr74eCanBqHusQE+0
d0BEJqfBlPDIQMlfb0DjkZ7BFnfoQA6FhEASV7PBWwOFQFEEZEAfy5jBxHnrQMCUMj+JuY7BujEK
QcgOoz1mpp7BgSW8QJxxXz9XBozBo/iyQIlHB0DPE4XBLU+/QHGGXUCTaIrBHC2DQDnXb0DqMKPB
CravQGnbZEAmm5XBQXhDQM0RWEACO5LByo31QFDcar5WWJbBCcwDQQwhsz8d0IrBAef7QPwNjUCY
P8DB9HbOQJQp27++WcPBdFYOQY+w9b/bIMDBsvSfQJrWFL9c9rXBaFIeQbd0g7+EZ6/BBfm/QOSk
qT6OP6XBp6kFQZ5QbECil5nBRKgTQfsNgUC6GKzBhu6lQHTmhUBOLrjBWCMZQeS0877XSZ3BJpgN
QS1UlD/cwJ7BcR6qQNejdz+Pi5PBTDaxQFtLpLwbrIfBU4WQQMWyCECdR4PBhSfFQAAfAUDlKXvB
6G2xQOQCiUCqroXBjWTiQD4/Y0B5bIrBIhIOQDbjWUBqopbBUuhHQBk7H0BvmI7B2YznQMxskL+s
MZbBZwjaQBRNz75e7bfBnRrAQCZIZL/fla/B9EgCQYBLVry23bXB/h3RQMHPgb9cOaXBqMUKQVBv
+r0Ff6vB9AL1QA+saUC79J/B1I4CQUszc0DYbKrBVBG8QCuOfEBMZrHBTCn8QLYmI798LaPByjas
QNNxckD09abBCGDIQHMfakDKUp7BqKXoQEOMfUBsHbPBKSaEQMsmZkCqlZjB2ULoQCy1Dj8ttozB
R4AIQQjlbr8MhZjBDuC4QIC0Zj+Ms4vBUFSwQBWgCUCF0oTBxeS9QAvVXkAqIYrBQ7aCQC+tbkBG
CKPBsMmuQCMVZUCWWpXBsi9BQJGzXkAfAZLBPrnxQFYDN7+HHpDBIDICQRRttD9iIozBUYj8QOY9
hkDJA8DBmkrNQPaWqb7c77/BCkufQFC+lb+cI7HBNBYMQVmbvj5yR7zB6269QFiYsr9qz57BEwQb
QfBmQT4466nB3ksFQTkgYkAcRpnBjp0TQVqXckAWzqvBPkumQO7AgUB8DbjBPfQNQfxJ/b/DV5jB
iUMWQS0jh77AU5fB7vOrQLsUij9Bw5PBEUeoQBZmOz3UCojBfNKNQMe6DED7IIPBOBPCQGvPAkBt
inrBuUuwQGgiikCXhIXBLwbhQA0zY0AoC4rB9v0LQGnXYEDRcZbBN6NDQC78JkB3FI7Bc+3iQA6n
v78QyIzBDVApQVZ3IcAN/pHBzQYuQeuilL+FTJDB6QkaQYaKOcDzvJnBpoIjQZjdNb7BX5bB3AcP
QTvY9L8Vl5/B7tz1QJQKg0C3m57BkicEQbg3hUDX36jBHsDBQAwHdkCeAbHBM7ATQTIODb+m353B
TYSvQNbYcUBXu6bBPmLJQMROeUDPpp3BBlHuQNICgUACD7LBMemEQCzpY0B6z5jB+AjjQLNCiT/y
x5HBIW0FQUzz/j7ztaLBsoK4QDd6iT+FyYvBcR6zQCtEE0DdSITBAgi8QLx4a0BvnYnB/JyFQJab
ZUBrVKPB2WauQHQ6b0ABBJXBBHxBQJp+VkC5mZLBidjjQHYZFD8yNZzBeIgBQYZWxD8Keo3B+bIC
QYk9g0A/wL7BMmkxQRLvUcCrWY3Bqa85QQXFX7+oWYrBVcoWQatxfMCkLZvBYYcnQYlCXT/HTpXB
jAwDQQu+DMAgYaXBXcgEQZE6hkD+jZfBEy0VQTwbikCCuanBvtOtQLgccED9BrjB9qYNQXA2vD9u
taLBKk8BQQDFYD61+KrBbVyeQE5lij+FrZHBy422QOBTIj7/7obBogSSQMGLE0CVSoHBI1vJQPW7
C0B8DnvBPKGqQD2LjkApI4XB2pneQAxVeEC2NYnBe6kOQPRTTkC7WpfB3sFJQGRDIkAxGI7Bi1zI
QFMwhj77bZ/BigYPQRQ5fcBWsJXBz30ZQVCsQMBcJ4/Beg4FQZr7YsC5Q5/BWFIaQWsU1L9RTZLB
9MUFQcR/DMDeYqLB8G31QEQ2gUAuXJ/BDVcDQdXshECHu6nB/9S+QGb4fUDBabHBGdEQQUt6oL84
DpzBgdWtQOBJdkApDKfBId/IQIx1eECdIp7BBmTrQJ/Zg0BjvrLBzq+EQEyNZECM8JjBylntQPfo
iD8Ym5HB5RsQQaS9TT7NOZ/BVw2/QPIRgT9Tuo3BcGi0QLjTCEDAsYXBo2q9QDK8Y0CpH4rBkDuE
QJJkakAAbqPBBbKuQPw5bUBEX5XBPwRCQBqRVUAPnJLBOyL2QBYRMj+HDJzBaR8FQaAGrT9xW4vB
GWAAQTKIiECzlL/BoaUOQQfhn8ASW5PBYtwgQbCgVMBkv4fB47z5QBikiMAsNKTBIDMiQdHubb+F
Ro3Babf7QGR/8L8uo6nBrAoFQdMrgkDYb5jBy2MUQWGYiEAnzKrB7PapQOxvfEAzTLjB8cEcQQvr
Qj/WD5vBITwSQXBdmz467KfB2aupQALIjD8WrpTBZLC5QHb1HD0QzYnBh0WSQIR/BEDinYPBL9vH
QAm0/j9U6XzBWZesQDttiUAyHoXBAhDgQJTib0ADyonBRjoOQOf2T0DkQZfB3GRKQA99H0AVdo7B
0gnfQAooRD+yjqHBOdIiQeKSIMDGvKLBQNgrQQ3rtb9oJp3BvMEPQdAsFsCbpKjBUZwhQfhwMr7L
VZ3BeZoFQTN3jL+o6qjBqEb0QIleiUDH/p/BEYQCQf7sikC+darBQt+9QHZZeECnxrHBGoQOQcDQ
xLwXLqPBMoCtQJwidEA+TafBNqbIQFJJf0DUhZ7Bd+3pQHT4g0CWVbPBlM6FQA5MY0Bw5ZjBrQfk
QIUKhj/CiI/BquQBQUk3mj8k46HBzN+5QG9okj/AgYnBv1u0QGgJIEDcsIPBzf6/QKj2cEDzV4rB
MIaEQAo5ZUCdaqPBKeavQDxBcEDJlJXBV1xFQFA7VUB7WZLB6BnhQH++Zz8gg5rBke0CQR/jqj/G
GYvBe/D+QE1lhUAMQsDBgpAqQcBVXsB+fqLB/ZI6Qf01xr+dv5jBNAEJQXKzS8BJ8azBplAoQWfS
KT9vCJnBmTHuQCT9db+Ge63BFFIEQSKPj0A4MJnBak4TQa9wkUAfsavB/eqoQGS7b0DQj7jB0wAM
QS1rAEDNm57B9Lb2QK2Xwj+VqKnBfHWfQPWmgj87PY/BqqC4QO9prD4biYPBiKiSQAWsJUC6P4HB
Kd/IQDdDH0CfFHnBjWyyQLOVlEDyRYbBfhLjQJKJdkATlIrB0iYRQHXnTECk25bBqFdPQPnnIEBQ
6o3BkHTFQPCgEz++kJ3B6RL2QL4rNsDqQrPBKW0OQUhHN8B/eq3B0uHdQIyn1L8IArTB4FkVQSb2
2r+cDKjBg0XsQEw5/74k3K7BdkX1QE9DfkBi9p/BGsQCQU8KhUBfX6rB79i8QHJGgkDlpbHBB/II
QQevCb/BhqjBXNWsQG+geED/PafB8sjIQFBbdUArg57BYFrpQEuThkCtM7PBP+OEQOrIY0B1+pjB
g3HsQJIQdz9rX5DB7wUNQatvET9PtqDB5Xy+QHqadD/aN4zBZke0QE4LC0DRHoXB++O+QKUoYkCw
aYrBK3WDQLjHbUDwaqPB2lqvQLCfaEBLpJXBAhBDQNzeVUBOgJLBe9jxQMUmHD9S1prB7FIFQQIk
pz+ovorBjJP9QKfkjUD5E8DBcOLqQOTCb8B1IrfBF/YXQRDjcMDYOK3BV2nAQDTz0r8KhbjBzxck
QRLP3L8Li6PBsrbaQA3d2T51uK/B2FIFQVgPfEDPLZnBi8kTQTBmiEBUmqvBfkWnQP6Mg0DQY7jB
qogaQXwEqT5UZ5vBxCUQQRedwj+J1KTBSI6oQL81dT/oGZPBGoi5QFNWIz1DgIfBH+yRQET1CUDZ
NYPBg/PGQIyTBUBEYnvBuN6vQNOuikDzroXBA9ThQF68akAIY4rBzyEOQFusVEDx/pbB74VJQBTg
HUBVto7BAnzXQE1itD584J7BzXskQWSCSsD0RqvBUBY0QeQZGcDZ96XBas4PQdiDUsDc5abBdP8u
Qf983r+lTpzBsbcKQXAsKcACNp3Bemf2QFJXdECbKZ/BpugDQcr3gUDBZKnBB7+/QJKyg0CpE7HB
hDoaQcNq7L9f75fBXY2uQJp/d0DG26bB55rJQBhJbkDi/Z3BvIbsQBLahkDoVLLBJLuEQNBxYUCz
8pjBnHLvQCT1BT9JRYzBRWIVQSHZmb+fMo3Bjce+QCHQQj9meozByCOwQO6E+T/wa4XBEVC8QDIL
VkCj9onBtJCEQLqqbkB5V6PB99+uQLQlYUCEU5XBSjFBQMQAVkDyppLBbqP9QOJ9Sr/AiYzBB2oE
QRGuuj93FozBpRoBQe8CkUAV9b7BHGEoQe06asDNs7LBkfVDQY1PE8B6TqnBCNsDQfBaeMD996rB
kQM7QTJ6k79wPJjBKuX1QFBWMMBLy5nBrpAFQeofbUDKTpjB5AgVQdU1hEAiZqrBMNqqQNlZh0Ds
5bfBLcQYQblV9r8YyIbBf6EfQaEOor6cMIzBnxa1QIc6dj+4yJTBCcOuQFFUGr73nInBph2NQKC0
8z8In4TByvm+QPnE6z/H+XrBIaesQIzKg0CTFoXB2D7fQJ28XUBzd4nBodgMQJ5cWUBXPJfBz8VD
QHumHEDXHY/BBojnQDmvwb8AQ4zB13wwQSr7L8BRZpXBlc8rQfYaF8ASzorB6gUtQfJ17b9B853B
0tkjQffpiL9awYjBfSElQebVEL9165vBoyP1QHzwe0CUx5/Bm84CQYb6hEBrJarBaxS9QAj5gkCc
hbHBBNwgQagQLL4nVJHBotusQISjeEBgLafBu4zIQBh0c0DRZ57BTo7pQMN9h0BMALPBLzCEQOTk
Y0COEZnBF9XiQAcUMj9ERZXBDxwXQXQNlj+dX4/BbWS0QMmPMj+qrJHB9MutQIDZ2j8rQYjBmay8
QNCuSkAi04rBskWDQMbqbkCVeaPBo46uQE7vY0DnrZXBAB1BQABlVkCkqZLBXpYAQafDdj8pdo3B
aSPsQEaj8D6ApJ7B9a79QG+2kECF0L/BK8A2Qeopb8B1+JbBx1QuQfhYQ8CYSYTB63AwQZlgCsA9
DqbBGA0gQR4DRb8CrYDBfVgiQazi8j0AdaLBnTMFQU7Ed0AV/ZjBLNcTQSNtiEBFUavBoKWnQOec
hECQSbjBVY8eQV1e0j8vWYjBi18ZQRKL6D8napbBg+OfQHNJfT+Ab5jBFo+rQObmn770+I7BrIWL
QL843j/UQobBbwjAQLKyrD9gTYHBvMCuQLXcdkBL7ITBuMvfQN/oTUDpZYrBTGUMQE5iVkDgMpfB
3ZNGQCH2HUCW847BmgD3QEI3gj9544XBbC8tQY0ZP8BI4J3BLR4kQRIXacCQ+pTBGoUuQSgNyr8s
DJ7B830cQT8SOcDOOIzBCvUmQVXCU78qSZXBcXf2QB3SeUCRRZ7BC4wEQWg3gkBYdqjB9yrCQL5S
fkABwbDB7iUeQTjGvb9PSYzBKcavQCooc0DjkKbBPa7JQHW7cEC/a53B/vvuQMdsg0BzsLHByF6E
QDIqYkDh2JjBCNruQCIUNz/92InBSP8VQQ1dLb8j2ILBzTW+QG9cZD9644rBRIytQE/pBkCSb4TB
Ek66QCyTXkC8XYnB/naFQIPgaUBNU6PBUgiuQLaWZUBD45TBW/A+QNg5WEACy5LB5kT+QNIFvr5o
EoTBuaoDQdh/xj/UmY3BExcDQfmXikDzRb7BvRszQfvvY8Bhj6TBgwMjQSIIl8Af35TBjVY1QZK5
ib+u5KTB718VQehFWcCfdIXBOeUnQc2GgD4bc5XBqSMFQfepeEChMZfBZLAVQchchUB3N6nBOSiu
QIQsgEAxy7fBN1oYQTf3oL+L7HbBswofQTpGhz5tU4LBATi2QEDihD/zYJPBNl2uQCaejbzm6ofB
02uKQAtZA0CNFYTBzbO6QE1QA0BVknjBOS2qQG7liEBS34TB6i3dQJRlZkA3rojBPOsLQBDZV0Bk
n5fBOMlBQGLvIECbx47B2Q/pQBxMer8Kj4DBtV8aQa4mMsD4+nHBAVQXQWtIt7+OVWzBOgEcQaBd
ScBR3YPBsRgWQfSh4r6canzBnr0aQVwkCsDX64vB+5v0QGYKgkDtdp/BrvcCQak4hkAFzanBdUC+
QAR8fkAzjrHBK+YXQZ6DTL8uJYnBexmtQNDhdkAVNKfBYiDIQHwFeUDxTJ7BTdDqQMiehEBN1bLB
0gWEQHw6ZUC1EZnBM0LiQCpdOD8Yx5bBmGgXQbDajz6wypHB4Ym2QMpzVj+QR5HBWeS0QOh+7T8J
yIfBfw2+QIJ9VUDBu4rBm22DQB6Ha0D+j6PBAUuuQCTHakBBl5XB5A9BQKRKVkCyqZLBBl0DQczi
hD9z+5DBiK3kQGDC9j0KUp/BDz8AQTJhiUAWoL/BlXQbQXGFYsAdr2XBme8VQYyMk78cs1vB/jke
QYjVhcDzCYbBSMQTQXhyFz+uBHjBDfMbQf9VHMAQPJTBz5EEQeMOg0DUhJjBHPsTQVCnikBT1KrB
1ImpQKEefEAjd7jBbwwlQZ1Ydj8WsJDBR3AYQbhOQ76TuZnBmfqeQOapkz9AT5fB37+tQAspHr7j
LY7BdLmUQAIx5z/dOoTBPcLMQDB5xT/90IHBnQiuQPw/f0Co44TBV8vgQESPYEA7b4rBm+kMQP0P
UUANQZfBuIZJQA8IIED4jY7B3tECQUAc6T91A4zB

> <OMEGA_E>
0Bf4PnBsAD8WBTE/UHQrP6wDIT8kGQ0/qh9PP2zpVj/IBlg/zOVZPw==

> <OMEGA_NBR>
     15403

$$$$
50164886
  -OEChem-04172616093D

 49 51  0     0  0  0  0  0  0999 V2000
    7.5999    4.0436  -20.0115 C   0  0  0  0  0  0  0  0  0  0  0  0
    8.1157    4.1005  -21.3194 C   0  0  0  0  0  0  0  0  0  0  0  0
    5.8459    3.9521  -22.2287 C   0  0  0  0  0  0  0  0  0  0  0  0
    5.3385    3.8745  -20.9194 C   0  0  0  0  0  0  0  0  0  0  0  0
    6.2085    3.9182  -19.8262 C   0  0  0  0  0  0  0  0  0  0  0  0
    7.2394    4.0617  -22.4261 C   0  0  0  0  0  0  0  0  0  0  0  0
    4.0932    3.6414  -19.1184 C   0  0  0  0  0  0  0  0  0  0  0  0
    7.3304    1.1219  -18.2506 C   0  0  0  0  0  0  0  0  0  0  0  0
    7.2979   -1.4004  -19.8389 C   0  0  0  0  0  0  0  0  0  0  0  0
    7.9463    0.0505  -21.7938 C   0  0  0  0  0  0  0  0  0  0  0  0
    5.7820   -1.2589  -20.1399 C   0  0  0  0  0  0  0  0  0  0  0  0
    6.6086   -0.5009  -22.3568 C   0  0  0  0  0  0  0  0  0  0  0  0
    8.0553   -0.1181  -20.2589 C   0  0  0  0  0  0  0  0  0  0  0  0
    4.2115   -0.7762  -21.9469 C   0  0  0  0  0  0  0  0  0  0  0  0
    5.9354    1.1194  -17.6195 C   0  0  0  0  0  0  0  0  0  0  0  0
    5.6967    2.2978  -16.6614 C   0  0  0  0  0  0  0  0  0  0  0  0
    5.9278    3.6823  -17.3097 C   0  0  0  0  0  0  0  0  0  0  0  0
    4.0462    3.7203  -20.4313 N   0  0  0  0  0  0  0  0  0  0  0  0
    5.4193    3.7684  -18.7082 N   0  0  0  0  0  0  0  0  0  0  0  0
    2.9967    3.4362  -18.2941 N   0  0  0  0  0  0  0  0  0  0  0  0
    7.3984    1.0230  -19.6250 N   0  0  0  0  0  0  0  0  0  0  0  0
    5.5117   -0.4392  -21.3565 N   0  3  0  0  0  0  0  0  0  0  0  0
    8.3283    0.9667  -17.5574 O   0  0  0  0  0  0  0  0  0  0  0  0
    7.8831    4.1551  -24.0433 Cl  0  0  0  0  0  0  0  0  0  0  0  0
    8.2622    4.0954  -19.1600 H   0  0  0  0  0  0  0  0  0  0  0  0
    9.1816    4.1739  -21.4768 H   0  0  0  0  0  0  0  0  0  0  0  0
    5.1757    3.9280  -23.0752 H   0  0  0  0  0  0  0  0  0  0  0  0
    7.4389   -1.5676  -18.7609 H   0  0  0  0  0  0  0  0  0  0  0  0
    7.6997   -2.2580  -20.3986 H   0  0  0  0  0  0  0  0  0  0  0  0
    8.7786   -0.4898  -22.2684 H   0  0  0  0  0  0  0  0  0  0  0  0
    8.0176    1.1208  -22.0375 H   0  0  0  0  0  0  0  0  0  0  0  0
    5.3577   -2.2625  -20.2902 H   0  0  0  0  0  0  0  0  0  0  0  0
    5.2950   -0.7802  -19.2775 H   0  0  0  0  0  0  0  0  0  0  0  0
    6.3212    0.0955  -23.2352 H   0  0  0  0  0  0  0  0  0  0  0  0
    6.7557   -1.5488  -22.6573 H   0  0  0  0  0  0  0  0  0  0  0  0
    9.1117   -0.1883  -19.9606 H   0  0  0  0  0  0  0  0  0  0  0  0
    4.0420   -0.1564  -22.8397 H   0  0  0  0  0  0  0  0  0  0  0  0
    4.2024   -1.8388  -22.2311 H   0  0  0  0  0  0  0  0  0  0  0  0
    3.4151   -0.5863  -21.2123 H   0  0  0  0  0  0  0  0  0  0  0  0
    5.1881    1.1681  -18.4252 H   0  0  0  0  0  0  0  0  0  0  0  0
    5.8086    0.1821  -17.0579 H   0  0  0  0  0  0  0  0  0  0  0  0
    4.6572    2.2504  -16.3048 H   0  0  0  0  0  0  0  0  0  0  0  0
    6.3824    2.1954  -15.8073 H   0  0  0  0  0  0  0  0  0  0  0  0
    5.4136    4.4424  -16.7033 H   0  0  0  0  0  0  0  0  0  0  0  0
    7.0083    3.8887  -17.3174 H   0  0  0  0  0  0  0  0  0  0  0  0
    2.1700    3.3582  -18.8513 H   0  0  0  0  0  0  0  0  0  0  0  0
    3.1263    2.5941  -17.7706 H   0  0  0  0  0  0  0  0  0  0  0  0
    6.9939    1.7395  -20.1933 H   0  0  0  0  0  0  0  0  0  0  0  0
    5.4544    0.5118  -21.0527 H   0  0  0  0  0  0  0  0  0  0  0  0
  1  2  2  0  0  0  0
  1  5  1  0  0  0  0
  2  6  1  0  0  0  0
  3  4  1  0  0  0  0
  3  6  2  0  0  0  0
  4  5  2  0  0  0  0
  4 18  1  0  0  0  0
  5 19  1  0  0  0  0
  6 24  1  0  0  0  0
  7 18  2  0  0  0  0
  7 19  1  0  0  0  0
  7 20  1  0  0  0  0
  8 15  1  0  0  0  0
  8 21  1  0  0  0  0
  8 23  2  0  0  0  0
  9 11  1  0  0  0  0
  9 13  1  0  0  0  0
 10 12  1  0  0  0  0
 10 13  1  0  0  0  0
 11 22  1  0  0  0  0
 12 22  1  0  0  0  0
 13 21  1  0  0  0  0
 14 22  1  0  0  0  0
 15 16  1  0  0  0  0
 16 17  1  0  0  0  0
 17 19  1  0  0  0  0
  1 25  1  0  0  0  0
  2 26  1  0  0  0  0
  3 27  1  0  0  0  0
  9 28  1  0  0  0  0
  9 29  1  0  0  0  0
 10 30  1  0  0  0  0
 10 31  1  0  0  0  0
 11 32  1  0  0  0  0
 11 33  1  0  0  0  0
 12 34  1  0  0  0  0
 12 35  1  0  0  0  0
 13 36  1  0  0  0  0
 14 37  1  0  0  0  0
 14 38  1  0  0  0  0
 14 39  1  0  0  0  0
 15 40  1  0  0  0  0
 15 41  1  0  0  0  0
 16 42  1  0  0  0  0
 16 43  1  0  0  0  0
 17 44  1  0  0  0  0
 17 45  1  0  0  0  0
 20 46  1  0  0  0  0
 20 47  1  0  0  0  0
 21 48  1  0  0  0  0
 22 49  1  0  0  0  0
M  CHG  1  22   1
M  END
> <OMEGA_C>
azLzQIplgUCPF6DBv9kBQZw3g0AQjqrB3xG7QJjufEBK1LHBC9WqQDv4d0DcWqfB3KvGQF3EekAU
nJ7BeKnnQCv5gUCpaLPBLvuCQF8MaUCS8pjBO5LqQB+bjz9PAZLBUIjpQG5Bs78gtp7BCkj+QAC7
Tj3BWa7BUQa5QNIiob+eHqHB8XnTQHo7AL+y2rLBbuIAQfDs8b1AEqLBlcSGQKS0Rr80k6/BI++9
QOVGjz+59IzBmUu2QIoOE0CBSoXB4bC9QIaqa0BKeorBTXqBQJ0ZbkA0c6PBi2qtQJUtcUBQqpXB
08k/QPnqW0BEWpLBUb/sQCTxgj8GAJ3Bd1+wQGDi4L4J2qrB5EAFQUR5dz9+dYzBs0L8QDT2hECx
WMDBIzIEQesNg0C3R5nB1ecSQdqQhUCA0KvBu5+lQAdke0APmrjBkAvuQKqmyL9MFpbBkGP2QKKC
EMBMMKPBUHUMQf7L+r7HJbLB5UcAQYp1jz/ITLDBL3KrQJ7NEMBbUqLBzHCpQJ+9R79sOJrBBUfK
QPekwz204bnB7C7YQAE/xr8WQrXBnckRQe7GQL46r5/B3FeBQNQzIL7Bt7bBxHmGQH9d679f2bHB
ipBaQGAXFr+7sqnB1QSmQLeDlT+4ZpPBtd+5QEt0Oj6AdojB1QeVQG0GEEA6cILBRzzMQA2BDEDB
6nzBNTytQHUojkBjoIXBxkPgQH7geED2iYrB0OEKQHLtVkCPz5bBlRVIQLkFJkArKo7BPc7fQIup
3j/qi6HBYIquQC8EAz/Ua6jBQdHzQAf8g0Dmy5/BN2ICQfIIh0BgOarBJh29QL5ge0CCxrHBmYas
QDrZc0A3XqfBeHXHQBSUe0Dmd57BfFfpQB2IhEB6MbPB5JCDQBezZUCvL5nBMRzlQALHjT8BlY3B
DIm2QDggob+jh6DBWUv/QCxvYL4ijqTB9m2iQAYSnr4B2KjBsmTpQDJ9Kz/q96zB7dPeQG/5G78g
xpvBy7/LQMj3kL9QJrjBYo7LQB8x7z+POoXBEsXYQN8xVkDiBYXBRAS4QG9kiEDogYrB9UmDQD76
ZEBXsqPBfdSsQNn2d0AyqpXB1u8/QHqBWEAewpLBD3TPQJy3ED+ID5bB1ADCQKB97jxGSrHB7/sF
QRYTez8CqYzBKhX+QDr/iUBHE8DB4UgEQa9dhkDG6ZjBomETQYpKi0DFW6vBOyyoQBC5dkC+n7jB
7lGfQBYsur9ZGprB4zy/QKc6DcC7baTBYMAFQR+jkL+vbqjB8QYNQe3bqT756aDBN5iGQL+/TL96
h6zBBRKYQMthHT8406TBhbbgQHmG0D9rP6nBydv/QDxmWT/qlrPByxLuQAIeqL+eMJbB8DHjQKZC
V7/bSL7BbxbZQDy9+L+BObPBaDmuQGFuvb+GDbzBzUmpQB/+5T8SKIfBkG/RQJ9jtj+4n3rBkzvc
QF9zakCFR3nBG633QPHbXEDRJonBMX+aQKMZiEDztoXBOjzFQDsCqUA4rorBto8MQGdxTkAuXJfB
hMFJQPtzJUCyF47BRBS0QAvSfT8oapjBgQS0QHevNT+N/rXBjFv1QGZ5dUDZZJ/BKnADQb9RgEAJ
q6nB4si+QBg/gkC5W7HBW32tQK4PeUC/EafBTJXIQL5eckAnNZ7B5aHrQExWhECWoLLBRwyEQJQn
ZECFEZnB4GPzQKp7RD/RKpLBlxjGQLy6w78scaDBfi/0QPiOXb438a3BNwOeQGizRb9zp6TB8DDM
QPZHIT/QBLDBcGzyQM5lWr+rwaLBBuyiQORdnb/x1bfBbhTDQNYPXD/F94/B5i+2QLfN7z8cKYfB
QEO9QHxgVkAWaIrBBJ6DQFzbb0AhfqPBEESuQBB/Z0BQfpXBgWVAQIDNVEAKz5LBtqECQfgWtD0s
05rBa+CkQLhvSb4dZq/BXFIGQdvNoz8E5ovBgccAQb7ui0DXTr/BIP8EQRBdb0BigZjBLpUUQUiI
gUBEtKrBu/epQFIChUBrOLjBDM7CQOLk0L8nuJfBtmXGQMS3IcCtJaTBcyD2QIOPgb91/7PBnVkI
QaN/2T5BgK7BtwCDQNvuvL8xCaXBak+WQLtsLD1/D5/BHGXKQL/mtj+G/KnBkm/OQH3NiT+WCrjB
eIYEQeDb2L+6KaPBRCyoQPn5Qr/8sL/Budm7QGEJ/r9IY7bB4EiDQPkO27+htbfB5hOzQHKpkz/c
cZfBo8u3QLBUC776go3BUg+UQD2y3T9WU4XBA1vJQMBT1T9373/B0X+rQE3Of0AG2YTBYKDfQN4U
ZUBD5onB4zgMQFcIVEDgcJfB65FGQDM/HED8JI/ByzoSQQnvhz6p5pvBv1aMQE2T2D6WvLDBh9f1
QKPsf0DdV5/BbX0DQb2tg0CMu6nBcum+QGvIfkCJVbHBwg2uQFeJdkCw9abB5zPJQBthd0CAEJ7B
fIHrQLieg0D7tbLBFPWEQONSZEBh2ZjBYCTnQCUmjj8PbJHBqzISQSZ1T7/ZPpvB1WIAQT5HJb56
iqzBwikBQaXb9L+AlJnBW1vgQLIeqb815arBUCQIQfIkuj7Fl6HBhiIKQTo9S8DFw6nBUR67QBWA
gz/US4zBGbuyQJAVDkAmzYTB1E+9QDoOZkCM8InB+3KEQLota0AHVKPBjfauQPtJbECYR5XBLYBC
QPyQVUALhpLB6anpQLoXVT+DNJzBV9DyQFrqGcCtF6TBkmEDQarVsj9hFIzBtVMAQfEWiUCLjb/B
aVIFQZZhgEDEcZjBgZEUQceShkDh1KrB5+SpQNSkfkBVMbjBbcsXQbI75b5IbJPBicwfQThnnL/S
wZ/BGC8OQYtJB7/JJbHBaCXxQM/NJz8e9LDBI0oIQbflL8CIGZXBuUHnQIj4v79NB5XBdXjDQJzr
bL8L/abBn8nXQFPL3r9jvrLBm94TQZ4Zlj9Yq6LBnNoDQXSEYcDNf7HBrykYQTskIsBDIKvBStQO
QUhdgcBZ4qTB6rOiQEe/gj+OopLB5/W4QMfuwz0rpofBW7aQQAq1DUCCioLB5o3GQMVKBkCsMHvB
6FWtQFdGjEBpSYXBLijgQPvDb0D3p4nBJ5MOQGYDUUBZKpfBWFBKQBMAH0BudY7BR07PQMvRdT/t
n6DB7fHaQKK+QsCjj6LBYQj1QAwjeECGu5/B9v8CQQ5DgkCuDKrBQ5G9QDY1gkA/kLHB2disQAYB
eEArPafB2lfIQMI3c0BkcZ7B2UPqQPLThUCJ7rLBmSOEQCZEZEC8FZnB+Ti9QNhNu74NtI7BYMWu
QO1u4r+pHqrBIK/xQFz8Bb85nqPBYKGhQDgv+L4hKrDB2UDhQKjvNz90m6nBIzrLQLcMtr9wZaDB
BZTiQOjxub4VOrvB9EusQHizbD8NCorBP2zQQFDA/D80wInB8lS+QPZiWUD3nIrBvjeDQH7TbUC5
iaPBbYKuQB6daEBxpZXBLw9BQLZzVkCqrJLB7ESwQB+nLr8q85jB9erHQEQRoT4oGLPB4HjcQIZt
Z7/4n4rBJlP/QLVFj0AHoL/BpgAFQVp8ckDT5pjBSxoUQX9JhEDELKvB622oQMYvhECJYbjBcNKR
QAZsEsAfUqfBsKvAQMxNG8Cykq/BQbMDQU+ai7+J2ajBuH4BQZcgVb7IYZzBy0OQQDUzQ79PfbfB
q6+MQB2Z9T0wAavBqvPMQA70pz/XNaTBI7D8QJKxqT8CN6zBwifXQPhSFsA7tZzBj3X+QAVrhz6k
Ir3BportQJlzqr+lFLjB4Y/PQCnjBr/1g8LBItiRQBr2pT9DBo/BVKSgQPUtPj8n3YHB6AviQCRZ
8D84LILBNlTmQNvL5T/rfJDBNsOjQIH3YEBM64TB6KbXQPf0g0DouojBincMQPbsVECtOpfBzl9H
QCWkHkDm1o7BNTWTQJ+uyL7cXJvBaSS9QFIglD+tdLbB+mT1QFylh0CO1p7BEMUDQVxIjUALD6nB
hoTAQGeeh0DMOrHBNqKuQFaMgUDNAqfBDPTIQDYggUBv8J3BMCrtQEITjUAIPrLB6U+FQNS+YUDg
YpnBYxPtQIDblD/XMZTBTavoQGAJHb4ggavB1VOZQKhyRD6ftKfBNYzjQKDFzr9xD6jBNMeWQAHM
pL8NPaTBcQvHQHWlNz8Xv6XB30etQFNlCsAvrrXB28LlQKo3sT8zRYjB0367QJtICUDs8oXBNsS7
QFbsZkAiDYrBgEyFQBw3b0C7xaPBooSuQJrxbkAXdJXBX6JDQEGnSUDCcJPBeO3KQOO7Mz9yGZrB
9yO3QEVYBcC0HKrB9JMIQY6poD+p85fB+fEBQUQNk0BS5r7B96gEQTFRiEDbx5fBSdMUQajEkUBx
4KnBmUWsQBMZiEAbO7jB+HgEQUgqSj6zZKnBghrkQFe5mL0PNbTB4IORQLfzjD6UQrDBVWuCQDwz
ST9zAqPBcxP6QABaD8DvnazB7o3qQFrx2b/4dp/B9OmcQIpNrr/2l5vB4VFtQFDp1r/UA6bBylfJ
QBvf3z/8vqjB3TGMQJvHIMDgxbbBSuawQO5Ylb9vT7nBjW7DQN96N8AhjrnBioTkQMDBzz4LRITB
JlIAQRET/D8ADIXBeA2hQKnlzT/g3InBZkC2QP8SCkDPfnrBqqClQHdfhkAsG4XBXV/cQJRLgEAe
N4nBfuMQQJo1REB+RJjB8gVPQEdlEUDk5o/B+FKyQCYaoz6iAZbBWlS1QFsKQcB5Q6fB/730QLOr
gkAD0KDBVb4BQZZGiEBhXavBrDe6QL/3gECUFbLB2KmrQJNzd0AihqfBkqzIQP4AeUBmAp/BXkfm
QP1Ch0Ac/bPB5M+FQMjSZEDu3JjB5v7jQFh2Oz82XY7B1BD1QBUr6b8FSqPBa44OQbdixD5kLqLB
zTXUQBUTkr/D26rBQzX7QDlOfj/ZsanB1oMEQSeSRr8cqJvB+kcEQUaBCL/do7jBT4u3QJ0OkD+r
iYrBtG+1QP+gHEA9R4TBvXbCQB4ubECE1orBzf+CQD3BakBwVaPBNr6wQOm+bED/5pXB4H5GQDzx
VkBhHZLBsJ7kQJDQob4kcJXBwMzoQECpE73P2bDBpGMCQdjVnz8D4YrBybz4QODljUD3CsHBuHYF
QXcYg0BJMJrB7ZESQTdajUDe3azBFuSjQHsvgEAtrbjBJ8HkQJsbJsD8i57BAUUHQeNBEsAfGajB
FPsbQazFIrsO9qbBQmwUQdlJlD/cqpzB2tzHQBlb8b8GjrDBlpa5QPUmPb/JFabBemzhQFiNtz/T
2aTBkCEFQeaQ4z8ala7BcrUQQYTEn79Nj5bBy38LQdSmoj5L5LzBEdgQQUXQi79bZrTBRar4QLkR
mb+Kbr7Bm7KiQLPWmz8Xl5HBQ3+rQGOdpT5hUoXBEWOUQLWyJUA5eIHBNgLLQFWlF0B3tHrBSem2
QIPIkkA9o4bBDZflQNkYbkDDWovBFOcQQHRPUkD5cpbBJ4RPQG+nIEDmB47ByyzJQIzHUL9japbB
QLPRQAr00j7sEbXBJaLzQF1pgEA+2aHBxn4AQUVWh0DbeqzBSIO2QEjxhEBEg7LBS26pQHyDe0Dj
6KfBQp3HQHCrd0CdqJ/BOmriQGPyiUCxyLTB9TeFQOJkZUAmFZnBS8jtQLVYgz+Ha4/B5Zf4QIjP
sb9evZ7BtlIQQWQX2T6gRqnBs/7SQCuhn7+GuqbBe1r5QJDBAT/DxbDBXjgJQUCWg707NJ7Bf+79
QBya6r8Fi7bBDm+/QBNTiD/+1ovB8362QLIUFUCUTIXBB33CQBQIaECyXIvBkjSBQMx1b0Dpd6PB
QnKwQH7zakAIZJbB3opGQHogV0BOKZLBaYb1QKYScT+PIJrBfh3jQG50Tb/QVLHBZqMFQXVWiT/p
+IjBtdTyQGm/k0AD5MHBoGoFQWtEfUDJdZvBbVARQe+mikDnR67BlCWfQN+dhkBy3bjBY97rQGnP
z79/wJbBCOUGQbn2DMBwY6HB0RAcQXltj769oKzBVKgXQca3tT+XiajBV+bCQCsHDsCSm6fB9Re8
QDhcAb/Np6PBhArjQO8Foj9Xsq3BZgQCQar7Sj/d1rjB7zIXQcY6Q74m9JjBsIsEQdfnur+rVr7B
m9cMQZCqA8C9b7HBt/bqQLfXL8BzurfBupCqQBYzhz8b7ZLBfrG4QCHtOD7m4obBsS6UQGkiF0B+
WoPB/jzJQEYnEkD0t3vBczG2QG6Wj0A01obBj5DlQMMibEAx5IvBBdQPQI7UVUDzTpbBXr5OQEYW
H0CUb47BXjDnQNPAyT93Kp/Be3TJQHP+K7/S/rXBkDD1QLexekBYKJ/BV4IDQVsUg0BmaanBMhC/
QLBjhkBTM7HB7HutQOGbf0Bt9qbBXGrIQHZ2dUBmGJ7B5gDsQFw3h0D9bbLBqOODQOiDYkCbPpnB
lUsBQdY4Xj/91JTBZKfqQP2eyb887anBGDTQQIzYPz8uTazB2C69QKss/78BQqbBdi2jQN4Gqz6K
XajBbFfyQJyN6L3w6KbBfMGUQFMUqr+NRLbBUHnwQKMkjz8ZnonBkgXBQPNczD9zrYnBslS8QC2K
SEAczorBUo+DQD2jdECWhaPB5AuuQGJhYkCao5XBvOI/QN/hUUAvEpPB7FLsQGBjEjw7WJvBzn+b
QP+jjL8/vKrB19kTQYnYlD9L85bBnh8BQbcbjEDLKb/Br8sEQRP8dUBlNZjBAasUQaRQhECeYqrB
JmuqQEzDikDxCrjBsU0BQfh8DcAH9qXB5VbtQBuc2L+hprLBzBTSQPWJHT/4BbXBsNLVQNUy5z82
TqrBogC3QLx3QcCo8qjBLbq7QKXZ+b++eJ3Bz/egQI7g/j5Xrp/B8+GKQJSTcT+6dazBSEkJQVVw
Uj7gW6nB/nF3QJhGJr+vObnBkcKyQPqhkb+1m7rBN8OKQB27F8CdkrfB1W7yQIu7OT5uCIXBHQkC
QeXL8T/csIXBIHewQMcGjz9ibpDBuOmxQPiQpD/tIILBcrWkQCMlX0Cy7ITBgoHbQIB8ZkCkKonB
g30LQIbLVUCSo5fB/DdEQNUOF0Bf94/BolHWQMDkE78v7JfBwiiAQCUyrL9gE6fBA4T1QCDKckCj
aJ7B2j4EQWqzgED5dKjBOZPBQDRag0CFx7DBv9muQGyRd0CUvKbBFaDIQOQNbkDKqp3Bz4XuQJwF
hkCgnLHBxTKDQBJbYkCEMJnB06DsQNJrLz853ovBqzeqQHDTrb2VxJ7Bv5L4QDhTO77VSaPBD0Sf
QFw4A7+YHKrBU7DsQBKsF792tq7BslPVQJj5NL+Kr5vBKxu2QNxP+77Jm7zBKz7WQI/6nj/fA4LB
vNKtQDyKAUCfRYXBc/y4QMCEWkCb3YnBwWSEQECLb0DIkqPBB9ysQARnYkC3QpXB2LY8QGIVVkAp
L5PBigPcQOwE8r7jQ5DBAEjBQCBYy722rbHB+j8GQaFVnj86fI/BHQMDQfCokECa+b3BFJIEQaBO
a0DYW5fBJXMVQQ09gkDsKqnBTsCtQDgXh0Bwy7fBEXasQDCBgT+CXp7BojmRQJ5J3r6bPJnBJM4L
QW2dH79SGKHBdZH6QHvAaT9pu6LB/uqbQB23zb9CXKrB496AQM+hN72Qf6zBiSYCQbEULb6GSrTB
SSXtQHpQ2L/VS6/BarzSQNFa5b+G/JzBxazPQGXbNL4JHMLBj1iyQNWtyr8bAb3B2+KXQMA65buG
7b7BdRjNQLNM0j47c3nBXznsQLks9T9VfnvB42ecQIqDuT/uYYvBIV2ZQMDhCUDyX3zBrdOnQHnQ
hUCmPoXBGK3bQCLUZEDiHInBi4YJQKzOWEBZ+ZfB6xE/QADHHEBsoo/BZ+/TQCyemr+qO4vBYn/C
QP1WZj9ygrHB

> <OMEGA_E>
OAjePqQG6D7I7MQ+6NorP1JYKT+48x0/jusdP+xkGj+0/gs/IOcAPw==

> <OMEGA_NBR>
     24101

$$$$
50164883
  -OEChem-04172616093D

 49 51  0     0  0  0  0  0  0999 V2000
    7.6836    3.9833  -19.8353 C   0  0  0  0  0  0  0  0  0  0  0  0
    8.2561    4.1148  -21.1137 C   0  0  0  0  0  0  0  0  0  0  0  0
    6.0301    4.0049  -22.1311 C   0  0  0  0  0  0  0  0  0  0  0  0
    5.4650    3.8657  -20.8499 C   0  0  0  0  0  0  0  0  0  0  0  0
    6.2854    3.8678  -19.7174 C   0  0  0  0  0  0  0  0  0  0  0  0
    7.4304    4.1360  -22.2592 C   0  0  0  0  0  0  0  0  0  0  0  0
    4.1405    3.5773  -19.1141 C   0  0  0  0  0  0  0  0  0  0  0  0
    7.5295    1.0098  -18.1384 C   0  0  0  0  0  0  0  0  0  0  0  0
    5.1678   -1.0010  -22.4375 C   0  0  0  0  0  0  0  0  0  0  0  0
    6.5929   -0.5215  -22.7785 C   0  0  0  0  0  0  0  0  0  0  0  0
    5.1349   -1.7302  -21.0808 C   0  0  0  0  0  0  0  0  0  0  0  0
    7.1723    0.3553  -21.6523 C   0  0  0  0  0  0  0  0  0  0  0  0
    5.6920   -0.8175  -19.9888 C   0  0  0  0  0  0  0  0  0  0  0  0
    7.1584   -0.4214  -20.3170 C   0  0  0  0  0  0  0  0  0  0  0  0
    9.4424    0.3281  -19.5697 C   0  0  0  0  0  0  0  0  0  0  0  0
    6.0543    1.0697  -17.6650 C   0  0  0  0  0  0  0  0  0  0  0  0
    5.7384    2.1834  -16.6393 C   0  0  0  0  0  0  0  0  0  0  0  0
    5.8909    3.6149  -17.2170 C   0  0  0  0  0  0  0  0  0  0  0  0
    4.1539    3.6793  -20.4265 N   0  0  0  0  0  0  0  0  0  0  0  0
    5.4437    3.7268  -18.6377 N   0  0  0  0  0  0  0  0  0  0  0  0
    3.0126    3.3200  -18.3486 N   0  0  0  0  0  0  0  0  0  0  0  0
    7.9850    0.2934  -19.2819 N   0  0  0  0  0  0  0  0  0  0  0  0
    8.3704    1.5049  -17.3938 O   0  0  0  0  0  0  0  0  0  0  0  0
    8.1460    4.3266  -23.8374 Cl  0  0  0  0  0  0  0  0  0  0  0  0
    8.3091    3.9710  -18.9549 H   0  0  0  0  0  0  0  0  0  0  0  0
    9.3276    4.1995  -21.2191 H   0  0  0  0  0  0  0  0  0  0  0  0
    5.3993    4.0113  -23.0077 H   0  0  0  0  0  0  0  0  0  0  0  0
    4.4972   -0.1301  -22.3931 H   0  0  0  0  0  0  0  0  0  0  0  0
    4.8232   -1.6893  -23.2233 H   0  0  0  0  0  0  0  0  0  0  0  0
    7.2418   -1.3984  -22.9199 H   0  0  0  0  0  0  0  0  0  0  0  0
    6.5609    0.0647  -23.7087 H   0  0  0  0  0  0  0  0  0  0  0  0
    4.0969   -2.0004  -20.8365 H   0  0  0  0  0  0  0  0  0  0  0  0
    5.7466   -2.6424  -21.1415 H   0  0  0  0  0  0  0  0  0  0  0  0
    8.2072    0.6319  -21.9020 H   0  0  0  0  0  0  0  0  0  0  0  0
    6.5638    1.2660  -21.5502 H   0  0  0  0  0  0  0  0  0  0  0  0
    5.0756    0.0913  -19.9255 H   0  0  0  0  0  0  0  0  0  0  0  0
    5.6655   -1.3464  -19.0247 H   0  0  0  0  0  0  0  0  0  0  0  0
    7.6799   -1.3683  -20.5205 H   0  0  0  0  0  0  0  0  0  0  0  0
    9.6523   -0.2624  -20.4738 H   0  0  0  0  0  0  0  0  0  0  0  0
    9.7597    1.3691  -19.7300 H   0  0  0  0  0  0  0  0  0  0  0  0
    9.9944   -0.0965  -18.7183 H   0  0  0  0  0  0  0  0  0  0  0  0
    5.4192    1.2303  -18.5486 H   0  0  0  0  0  0  0  0  0  0  0  0
    5.8047    0.1022  -17.2049 H   0  0  0  0  0  0  0  0  0  0  0  0
    4.7019    2.0554  -16.2940 H   0  0  0  0  0  0  0  0  0  0  0  0
    6.4249    2.0767  -15.7864 H   0  0  0  0  0  0  0  0  0  0  0  0
    5.2900    4.3044  -16.6060 H   0  0  0  0  0  0  0  0  0  0  0  0
    6.9509    3.9037  -17.1604 H   0  0  0  0  0  0  0  0  0  0  0  0
    2.2173    3.2250  -18.9473 H   0  0  0  0  0  0  0  0  0  0  0  0
    3.1453    2.4729  -17.8339 H   0  0  0  0  0  0  0  0  0  0  0  0
  1  2  2  0  0  0  0
  1  5  1  0  0  0  0
  2  6  1  0  0  0  0
  3  4  1  0  0  0  0
  3  6  2  0  0  0  0
  4  5  2  0  0  0  0
  4 19  1  0  0  0  0
  5 20  1  0  0  0  0
  6 24  1  0  0  0  0
  7 19  2  0  0  0  0
  7 20  1  0  0  0  0
  7 21  1  0  0  0  0
  8 16  1  0  0  0  0
  8 22  1  0  0  0  0
  8 23  2  0  0  0  0
  9 10  1  0  0  0  0
  9 11  1  0  0  0  0
 10 12  1  0  0  0  0
 11 13  1  0  0  0  0
 12 14  1  0  0  0  0
 13 14  1  0  0  0  0
 14 22  1  0  0  0  0
 15 22  1  0  0  0  0
 16 17  1  0  0  0  0
 17 18  1  0  0  0  0
 18 20  1  0  0  0  0
  1 25  1  0  0  0  0
  2 26  1  0  0  0  0
  3 27  1  0  0  0  0
  9 28  1  0  0  0  0
  9 29  1  0  0  0  0
 10 30  1  0  0  0  0
 10 31  1  0  0  0  0
 11 32  1  0  0  0  0
 11 33  1  0  0  0  0
 12 34  1  0  0  0  0
 12 35  1  0  0  0  0
 13 36  1  0  0  0  0
 13 37  1  0  0  0  0
 14 38  1  0  0  0  0
 15 39  1  0  0  0  0
 15 40  1  0  0  0  0
 15 41  1  0  0  0  0
 16 42  1  0  0  0  0
 16 43  1  0  0  0  0
 17 44  1  0  0  0  0
 17 45  1  0  0  0  0
 18 46  1  0  0  0  0
 18 47  1  0  0  0  0
 21 48  1  0  0  0  0
 21 49  1  0  0  0  0
M  END
> <OMEGA_C>
FuD1QLjtfkCarp7B9BgEQU2sg0DL6KjBhPbAQCkogECLDLHB8OCuQGBod0CezKbB6yHJQJKJd0A8
vZ3BcMXtQHRahEDUErLBXH+EQM7xZECx6ZjB3vHwQLdBgT+JG5HBUl6lQFgggL/+f7PBAvnSQIaC
Bb9ZOrbBxlCkQFZ43b9opajBLoPlQL3ntT7nN63BhyS2QDJKUb8d6Z/B5BHlQAbD174tiaLBLxQX
QTT8pz7JjpzB3LzBQD/siD/SUY3BMqG3QBG8C0BZHYXBqIK8QIVaZ0B/vInBCu2EQDN5a0BwaaPB
azKuQOiDbkAVGpXBWM5AQJl6VEDWyZLBLIX/QOU+lj4/QZrBJu0FQTafwD+IJovBKFYCQcdzikAX
s77BOPIEQWklfkC1o5fBzj0VQZVihkCtwKnBwcasQPRcgEDND7jBbumPQPE6Bb4EJbPBiFeaQGQ8
2L8/ybnBH73nQDT+sr/wW7fBhPLRQNSWhD1lq73B+BmDQBwHAMAfsabBNOS3QFIdKcDiIanByVAD
QZbDIT9GN6/BmgrSQCgLoj/OZqzBEWuiQN0Nuz1eZ5/B60u1QGdYrL+RMpjBJsL1QIUkr7/3KaTB
w28aQWFVhr5IyqPB7SccQbA9rz/81p3BIukfQWm5xb3+vpXBCWqtQEp7nT+JY5TByL+5QM9P0T24
o4nB/3WWQPKLA0AeWoLBfpjNQEToBEBBlXzBSkepQHW9iUD/2ITBe23eQGnVeUCWSInBd+gNQP1m
TkAZlJfB/0tJQNlDHkDkq47BCpb1QO97fkDmR5/BKpIDQYeTg0D7lanBoFm/QHRpf0CuZ7HB0wOu
QBJ9dkAYFafB0u3IQOa4dkD2JZ7B1AzsQFkZhEDXoLLBy6qEQPMfZEDnAJnBya3xQPF0gz9ihpDB
QpWqQLkbpb9NN7PBusaZQAZQiL9dyKfB1vjMQPizgL4wTbbBb1C/QInzhr/f3J/Bx8PwQB67JL6J
3a3BAmLdQAZ3BD4oqKLBsykWQUeIkD7rypzBnjHCQD6Wij+pzYzBOoe3QH+VD0AqG4XBCJ+9QF8U
aUBIHorB+UuEQMu0akA3gKPBdaSuQNxubUC3aJXBHA5CQNKcVEBJrZLB9gD+QILqxj5XKJrBSZUG
QVhFtj9qSIrB/v0AQZ4xikDLW7/BaQwFQZ/KfUDZU5jBPqwUQUSBhkBalarBl6yqQOeKf0AGVLjB
TZ64QIT8EsADurPBwa2PQCf+mr/t2rjBWOuIQDK/zb2KZqfBeI2DQJgT8L+AqKXBQCnbQFhUCr8U
BL7Bm7C9QCocPD+RE7fBcBazQIfVbr8Cq5fBDxPRQPERAMCQdaDBsiUBQaCfjr9Mna3BEHEDQUaA
Jj/5CrDBwk/JQGeVgz/baqPBTxcYQX4Tc74SfaTBLh4dQWgnpT8yXJ3BF2ceQf2Xkb6HeZbBkeCt
QIWolz9q8ZPBR7G6QAw9DD4yuIjBMfOVQKQxCUDqloLB/4HMQOmKCkDaInzByHerQDPzi0CCXYXB
ZtnfQNFoeUBl5InBODoOQCk8T0BzUpfB145KQPVGHkDflY7Bv4D0QIdkdkD46J/B5mICQRhcfkDf
X6rByM+7QKcxgUAOgLHBSMmrQO/NeUBHCqfBPuTHQCofc0AiXJ7B3XfoQMIJgkDCKLPBl9SDQCPk
ZkDdupjBJFXwQDbnbz/69pDB5ai+QPDVt79q/bXBTJbbQAP+EMAKhq7BoTGmQOKptr5Ut6/BHY/6
QCrbrb92XqjBI4rFQPYHCz9Ck6nBXyLhQJKcnL4N7qHBOw8VQSg1Tj9kwZ7Bbr/AQFDcXT8heo3B
Ix20QAD0AEB50YXBK+69QBGEW0AWTorBs06CQBFwckBuJaPBWmyuQOGbZ0CJdpXBkfJAQGJIW0C6
LpLBgpr9QBYdCT+iNpvBTHIFQTBtqj8fd4rBD8T8QFZJhkAbHcDBPf4EQe/VckAkKJnBLHYTQbcM
gEC7rqvBfiSmQIbRg0DqMrjB3ZrSQEdQc7+OHLzBgIGnQJfKBsDn47nBCXnHQCgHNMAEyKjBIBru
QPfXPsAvVrPB05KTQKb3gz5zVrXBiWGQQOyVV78YAarBheUGQUHt+79w2KLBousHQdrsWL9HEK7B
2HjaQMr9hz89Ta/BXGWzQL1XpD+j6aTB0TTLQGikWb8bmZzBQ1AXQdWd2D7f7abBpgYYQY/g8T/r
o57B61UgQX+dmz66UZnBFXysQMJSbD+XqJTBUTy7QFk8vb24ZInB7Y2RQFQj+T9NPYTBztTFQBmU
8T/rkHzB6FWuQHaihUCIJYXBhMXgQD17ZUDdKorBjaMLQGERXUCNmpbBDDRFQGiMIkDKhI7BDY70
QLPmeEAMoJ/BreYCQXWlfUAdAqrBdYe9QKj2ekAcmrHBkIesQMVxdUClNafB4s7HQMQ+dkCQWZ7B
00/qQGfRf0BM+bLBOpiDQFZfZ0Am+5jBWMq/QORkjb7oRozByk7RQNDNib29gLXBzxv4QF52Br+E
ua7BeSGnQCRnP78NCLLBTXvvQNxip75ouqLB3gWfQPpqCr/1BabBLsfFQONyi7/Qxp/BlZuhQHBK
HcC6n5HBclPLQLqJlT9Y5I7B0gi5QE4bCkAbjobBDRm9QNF/Z0A4UYrB0t2CQCTla0CdfaPBJbGt
QGstcUBogZXBtFdAQPuvWEBqi5LBytK7QCJfor+EOJTB+J23QLrdDr9Q8oLBftv/QIxBhEBWyr/B
9K0EQYFRd0CUupjBpwcUQaagf0AVH6vBvIqoQPN7e0BVd7jBLqzNQIXDgj+2pbTBzH/XQIe+oL4d
8L3Bqz7+QG2ny78ERbDB2S4KQQp6gz3PBrHBlWyMQDpKoL7dlrbByjSpQLKt6b/MtLPBiTYFQSrH
Ob+5DJ7BUZHrQGKXPj/7/aDBmxmbQAkoCD93VaTBaeOBQCM8ir+pnqPBxZrKQMfBBsBk7KLBUlSh
QF0uScAIgZjBllKvQLIfPsCnoorBO66AQFciCcCdzI/BIWLuQEH6oT8/Co/BFUu+QNPWtT850JbB
iwSXQDPA9j+SPYXBg6zKQJB5AkDh/33B6+GpQEBdiEBfC4XBfuHeQAT9ekA65onByUkMQFkeUkAz
IJfBvGNJQNg1I0AxTI7BfKP1QDg1hUCpcZ/B1kUDQVp9iECg4qnBiUa/QMp6eECoarHBrY2uQGgc
c0DdAKfBu4LJQJzYekBxHp7B0HHrQMRjg0Cu2rLB8K+FQDK+Y0CKz5jBWM7kQFiogD/pmpHBXton
QfuGr79kA5/BPukTQR+7yb8JJabB0CAlQfCAT74ZHZfBsCYNQQCSgb4FiqvBjPAdQdpiiD/ZNJ3B
JCcIQezXUj/E/6LBd0XFQGCLc76786DBska4QNcShz9OWYzB/2SzQDJXEUAptoTBTVe+QGYRaUBX
+onB6jGFQFzMZUAvUaPBhaGvQN6ybkAZS5XBcy9EQGagVUCBa5LBPQHrQMji2T783ZvB8DsBQWMx
uD++OYzBzjsAQeH+hUDuw7/BvR4FQcqdiEA3j5jBiBkUQUDmjkD8BavBoHaqQBK1cUAdQ7jBUb4q
QSjIEsBKcJrBIbY1QcgVlb8QLqTBVqEXQYlZFMCnXqzBI6IGQX7T+L+0LKHBRPgYQS/J7r5sHJHB
snc0QUmA0rtBGJPBgDwaQVyD0T0nsbDB2JH9QLZy277EbLDBER8cQYBx8j99fZfBHSoqQcrqqT8k
LqPBAtYDQeU54D8oM6fB9YzOQD7GI7/uzqjBsxW6QM6Fh782zpvBFWarQGVd/j6W+6HBw9+fQBsz
kD9VqpLBKluzQLbcBT78vYfBsw2SQGWbE0Bi54HBbuDIQFrZB0Anr3vBucquQBYejkB7WYXBlj7h
QDoLckDgxonBrp0QQMNdTUA7C5fBUoZNQNM/IUAv+Y3BlIH0QLQIg0B+np/BLdUCQacUhECBCarB
otm9QB4jeEDNjbHBzgetQMYjdEC7I6fB8QzIQHp7ekDaPZ7BN1fqQNC4gEAL/rLBqwaEQKqeZECH
/JjBla28QGQcNj+8y4zBlF3TQPrXdL83dLXByD+lQGIlHb+eBbLB5o30QMiuPr4/t67BF7ieQKI2
Y7/4E6bBEHLuQFij/L7Fy6LBk1HAQCAc873pYp/BJbi9QN+T279VcY/BcynlQDNsyj8GYI3BW+fh
QB4dOUAA9IbB4b+6QKRHcUAN3onBx4uDQJCEaECae6PBh+utQAAsb0DGZZXBJz1AQKYoWECmpJLB
7fi4QARctb6v4JPBMEGoQNntLz9cbYTBcYz/QAqrgkC14r/BcpUEQSKhhkBxwJjBAeETQbR0h0DB
LKvBn9uoQHIcdEAgZrjBwaLYQAZSAsCGarTBUozXQDOzML+c7b3BFRefQNqY5j4KobPBVLaOQCVf
nb8Ap7bBCHoKQaIC+r73KbHBVIDwQPLEZD9NDbDB3el8QNd5D798uaPBnxWiQGeq+7+XkaTBfMvz
QNp2yL/0YKHBj78CQQzyvD2AE57BdfS7QPcydD8rAaHBFRG6QG0bHcDo5JXBBJrdQDno6L+uzovB
3walQJJd8b8dUonBaBsAQQ+Efz+LOYrB2SzrQPWz6j/IzpXB9dffQLvVKEBz0HzBThX/QEK2XkA7
aojBDFyfQI5GW0CuEoXBKVnCQKr1mUBpwofB33UMQOa3UkC4S5fBGHhHQGaxIkAHV47BQSHzQOrc
iUDwP5/BDJcCQdSBiUChk6nBXyu/QOB7cUBpSbHBJUmtQH9pckBJ8qbBmyTHQOgHgUDL/53BTEvr
QIjYgEB8lLLBhCyDQLcNaUCZ3JjBo8jGQAmphz8BppDBYle6QKkV3b8cm7PBeh+rQHN2ib6Z2LLB
8rboQO7Q7r+bgq/BWSavQKwkXz6LTqfBAJbtQMQ5qb9vAKTBjUneQE5RHT45QqPBUiwKQR4uOj8N
25TBi0rSQJoY0z/BlIXBnKLdQJNFSkAY4oXB9++4QGQPg0A+tYnBFLqDQP4pZEAKXqPBcG+sQIko
e0ChNJXB9Jo+QBsGXECcgZLBNNHmQOa2ND80OZjBP3ygQGpWcz8WgpLB2/EAQTvUgECvWb/BH2MD
QTPUkECfW5jBr3ITQavfj0BGnKrBSEurQAx8ZEBsKrjB2TilQDIsF8ADu67B++u4QCdqA8CzALzB
TPS+QPlhuT71FLjB8HuJQBeGUb4MY7XBK7zxQB90O8Afma/BHCD+QHqrpr852LTBJuyjQEQkoT+N
2qbBzhybQEnU1L7fJKLB6kzaQH4q+L+4iZ7BYroHQW8nsL8qpaHBDbzxQLGiOz+u8ajB/V8UQTwX
3D7LnpvB9oIOQUAW3z9SQ5LBn4IMQeTXzDwYL47Bf722QNRuwT9iN4DBZQDuQHq1jD9aZ4LB5OTm
QMD0XUDOg3vBMfb4QHHEUkDaU4vB6JmcQHFqeUAPvITBFU7DQGBgpED8i4jB1EgMQBdvTkD8JZfB
DGNJQNU8K0C/gY3B7MfzQM6ohUD7IJ/BH9YCQeS4h0B6danBiLK+QDuiekBZW7HBKBitQE3rdUBi
A6fB11/HQLgYf0CcBp7BGh3rQBX5g0D+jrLBPlaDQArmaECo65jBVMHSQFnNiT8h3pHBt2WxQEZ2
oL/cfLTB0FHZQAD3ub6c2rXBiyy1QCxKCcBue6rBGr3gQBM4AD9P36vBpre7QCCFo7+cl6DBXIHk
QMTMyr4J8qHBXEcPQQvtSj/hw5fB35fhQH858D+Z/ofBw1y+QGWIM0A4boPBKpW5QAmYg0Bl7onB
qpSDQJSQZ0CNcqPBZY2sQMuXekB0S5XB2H0/QL48WkDJjJLBKcTwQNQq1z5pfZjBaSmsQOTRbj8S
G5PB5acAQaGlh0BWU7/B+/ADQWm6iECIJJjB/NwTQZcsjEC7bKrBZG2qQMIhdECsTrjBwvyUQGCg
HL8asbPB5/CtQNlo8r9il7vBWHf1QINrgL/vKLfBuMHUQE0Ylj6q0rzBB7GXQH4GL8BujanBHJ/Q
QDm+NMCsZ6vBO3T+QMjtiT/u2qzBLafFQLSHmD842arBUaufQLGNIL/Pfp/BM4W/QIc29r+YiJnB
3RP/QC2di7/vgKPBOpoYQS1MPz7hcJ3BAikRQbTj7T9EupnBuhMVQaQMHD8qlo/B4TfrQLJglT96
t4HBXD/9QM+ZH0C6SorB96mfQG4aEUAxkYPB0ZzGQKX7Q0DBQHbBUkKhQGyXl0CL/4XBRIvYQDZW
lED+2InBcrAMQEiETkCQMJfB3V5KQNvDJ0Cc0o3BiB70QCAmiEB2bJ/BibECQTnRikCmzKnBHJ6+
QFNde0CFc7HBBLKtQCtrdECvEKfBjiTIQGGlfkC7Gp7BRJzqQFUIhkBLzbLBji6EQHKnZUCx/ZjB
YAbKQEolfz8/xo7BRv23QDvgr78Q9rPB3qacQC0UpL+2vanBOL3YQL78Xb5W77TBPOq5QKPclL96
AaDBgiLzQJDfqrwgnKrBgsDTQOIVGj6gJaHB7NkKQQisQj8L3pXB2EPYQBhY1T+tZITBHhPhQFa+
SkAT74XBBOS5QCgVgEBLxYnBOmKEQJMnZUAVgKPB5q+tQKQMdUAwS5XBZTVAQGSgV0DHwJLBQsrm
QP5ODD+nxJbB7jqjQKxocz/gPpDB2sr/QPupi0DhoL/Bei8EQR7SjEBGhZjBmpkTQeOJkEC53qrB
VROqQMf2c0BlVrjBMYPJQIz9FMAD37PBnpeiQKs0rL/n8brBG9OHQGE6y74OM6rB2dqIQFXxC8CK
/qjBLMTuQJU54b4WkLvBwlPHQEnoNj/JqbbBd6GmQKUmkb/FpZjBst7PQKtnAcB6s5/B0cYDQXmH
Zr/hPqnBUaQDQXVPYD88XKvB7ti8QL31bj92eaPBBeASQXFNqz5765zB2jkOQXRV6z9CapXB+tIQ
QcYBiD7vmI7Bvua+QD62xT+BvXzBNLf1QL3zlj92j4HBb+frQCsWZUCCeHzBObH6QGuhUUBJ6IvB
GjCeQO7kbUBq2ITBcUjBQAkaokAkeIjBpbANQIVNTUD0fZfBv69JQPV8JEBKF47BGIb0QBs3eEDQ
0J/B840CQeUKhkBjAqrBkla8QNU7i0BjMbHB1/SrQBxAgUD0/6bBQtLHQAr3c0CxaZ7BihLpQJG2
jUBbrbLBBoODQGQKZkCbAZnBDajUQEUHH79RcY3BiMvgQN5W57+RF7fBIlmxQPeS87/pzrPBQYr4
QP3KRL8oMLDBo8qsQLqoDsAy0qfBAEf0QJWXjb82NKTBI2XEQE4Il7/duqDB/8mxQHqHNMBEa5HB
+5XZQCQnZj+wgY/BiDu6QJ2S2T9vaojBLgq9QOrYTUCVrYrBU0WCQMP6eEA1RKPBqAuuQOdSY0Bm
sJXBckBAQFV1V0Avi5LBp1nBQDYivr8l/pTB/WDeQKy6hL9Jh4TBrdf9QFpHmkCgQr/BhuYEQQpo
bEBQK5nB2aUTQanLh0CTMqvBtuOmQFnxkEDK0LfB1fvvQCCdMsAkCbbBhc7iQBMgwb/7i7/BUpih
QB7tcL+LdbXBg9ahQK6SLMCAgrjB+E4NQbL5Q7+lZLLB4srqQDRTaD71qrHBrKCKQGjsDsC1s6XB
WIa6QF5PTsDfSabBRMUBQWgIBcA8q6LBwDsCQfFxp77ZfZ/Btci1QKRYSb7lN6LBWcqjQNbaVsA+
QpjBeb7MQAmrWcCcLo7B11eZQE4uLMCILIvBc5P6QM4Fmj84o43B6r7SQAsbjj/R+JfBPWmZQB/F
rT+VCIrBXxTCQMdpwj+g63/BSwKpQLMUcEC714TB2YPeQLl6YkCjz4nB9dIKQHeLXUC+4ZbBxVdD
QIBJHEARhY/B

> <OMEGA_E>
YPCRPUDgJz3Aky8+aAf0PsBu/j4A6dc+3JvWPrjrsD4E0KQ+RtwwPw==

> <OMEGA_NBR>
     32796

$$$$
50164891
  -OEChem-04172616093D

 40 42  0     0  0  0  0  0  0999 V2000
    7.6798    3.8989  -19.9528 C   0  0  0  0  0  0  0  0  0  0  0  0
    8.2034    4.0873  -21.2471 C   0  0  0  0  0  0  0  0  0  0  0  0
    5.9396    4.0481  -22.1794 C   0  0  0  0  0  0  0  0  0  0  0  0
    5.4233    3.8624  -20.8850 C   0  0  0  0  0  0  0  0  0  0  0  0
    6.2854    3.7888  -19.7858 C   0  0  0  0  0  0  0  0  0  0  0  0
    7.3343    4.1622  -22.3585 C   0  0  0  0  0  0  0  0  0  0  0  0
    4.1523    3.5504  -19.1162 C   0  0  0  0  0  0  0  0  0  0  0  0
    7.4042    0.8083  -18.0336 C   0  0  0  0  0  0  0  0  0  0  0  0
    7.5421   -1.0510  -21.9101 C   0  0  0  0  0  0  0  0  0  0  0  0
    6.7972    0.2905  -21.8188 C   0  0  0  0  0  0  0  0  0  0  0  0
    8.3056    0.2088  -21.4795 C   0  0  0  0  0  0  0  0  0  0  0  0
    5.9371    0.8803  -17.6033 C   0  0  0  0  0  0  0  0  0  0  0  0
    8.8166    0.2806  -20.0243 C   0  0  0  0  0  0  0  0  0  0  0  0
    5.6168    2.0740  -16.6742 C   0  0  0  0  0  0  0  0  0  0  0  0
    5.9454    3.4623  -17.2820 C   0  0  0  0  0  0  0  0  0  0  0  0
    4.1230    3.7116  -20.4208 N   0  0  0  0  0  0  0  0  0  0  0  0
    5.4761    3.6031  -18.6861 N   0  0  0  0  0  0  0  0  0  0  0  0
    3.0373    3.3433  -18.3179 N   0  0  0  0  0  0  0  0  0  0  0  0
    7.6979    0.0229  -19.1240 N   0  0  0  0  0  0  0  0  0  0  0  0
    8.2928    1.3802  -17.4109 O   0  0  0  0  0  0  0  0  0  0  0  0
    7.9863    4.3992  -23.9586 Cl  0  0  0  0  0  0  0  0  0  0  0  0
    8.3392    3.8398  -19.0995 H   0  0  0  0  0  0  0  0  0  0  0  0
    9.2704    4.1744  -21.3899 H   0  0  0  0  0  0  0  0  0  0  0  0
    5.2748    4.1029  -23.0288 H   0  0  0  0  0  0  0  0  0  0  0  0
    7.3350   -1.8444  -21.1768 H   0  0  0  0  0  0  0  0  0  0  0  0
    7.7397   -1.5029  -22.8933 H   0  0  0  0  0  0  0  0  0  0  0  0
    6.4655    0.8001  -22.7355 H   0  0  0  0  0  0  0  0  0  0  0  0
    6.0609    0.4586  -21.0191 H   0  0  0  0  0  0  0  0  0  0  0  0
    8.9803    0.6350  -22.2365 H   0  0  0  0  0  0  0  0  0  0  0  0
    5.3148    0.9669  -18.5062 H   0  0  0  0  0  0  0  0  0  0  0  0
    5.6855   -0.0497  -17.0724 H   0  0  0  0  0  0  0  0  0  0  0  0
    9.5993   -0.4765  -19.8688 H   0  0  0  0  0  0  0  0  0  0  0  0
    9.2292    1.2808  -19.8256 H   0  0  0  0  0  0  0  0  0  0  0  0
    4.5430    2.0473  -16.4370 H   0  0  0  0  0  0  0  0  0  0  0  0
    6.1997    1.9563  -15.7489 H   0  0  0  0  0  0  0  0  0  0  0  0
    5.4606    4.2373  -16.6702 H   0  0  0  0  0  0  0  0  0  0  0  0
    7.0357    3.6063  -17.2598 H   0  0  0  0  0  0  0  0  0  0  0  0
    2.2155    3.3361  -18.8876 H   0  0  0  0  0  0  0  0  0  0  0  0
    3.1234    2.4656  -17.8464 H   0  0  0  0  0  0  0  0  0  0  0  0
    7.1134   -0.7669  -19.3095 H   0  0  0  0  0  0  0  0  0  0  0  0
  1  2  1  0  0  0  0
  1  5  2  0  0  0  0
  2  6  2  0  0  0  0
  3  4  2  0  0  0  0
  3  6  1  0  0  0  0
  4  5  1  0  0  0  0
  4 16  1  0  0  0  0
  5 17  1  0  0  0  0
  6 21  1  0  0  0  0
  7 16  2  0  0  0  0
  7 17  1  0  0  0  0
  7 18  1  0  0  0  0
  8 12  1  0  0  0  0
  8 19  1  0  0  0  0
  8 20  2  0  0  0  0
  9 10  1  0  0  0  0
  9 11  1  0  0  0  0
 10 11  1  0  0  0  0
 11 13  1  0  0  0  0
 12 14  1  0  0  0  0
 13 19  1  0  0  0  0
 14 15  1  0  0  0  0
 15 17  1  0  0  0  0
  1 22  1  0  0  0  0
  2 23  1  0  0  0  0
  3 24  1  0  0  0  0
  9 25  1  0  0  0  0
  9 26  1  0  0  0  0
 10 27  1  0  0  0  0
 10 28  1  0  0  0  0
 11 29  1  0  0  0  0
 12 30  1  0  0  0  0
 12 31  1  0  0  0  0
 13 32  1  0  0  0  0
 13 33  1  0  0  0  0
 14 34  1  0  0  0  0
 14 35  1  0  0  0  0
 15 36  1  0  0  0  0
 15 37  1  0  0  0  0
 18 38  1  0  0  0  0
 18 39  1  0  0  0  0
 19 40  1  0  0  0  0
M  END
> <OMEGA_C>
MMH1QCmIeUBun5/BREEDQc3KgkAC+qnBeRG+QFOKgUB2b7HB4IutQFsyd0B8FKfBHiLJQEd7ckBW
SZ7B0bLqQK8whUAm3rLB5N+EQEk6Y0D27ZjBN+/sQKrvTj/ERJDBp1jxQFGHhr/ZR6/BgILZQGzC
lD7ujK7Bi+MEQSHRVT761avB+vy9QC9ZYT+c04zBxRANQTSwjz7ZMaDBeryzQPu7BEDbZIXBjUC+
QAKWXUCGQYrBc++DQNmKbUDdXaPBhDyvQHCYZkAIfZXBVWJCQPj3VUACi5LBYFX2QEjZuzz3/ZjB
J68EQe+qsD+QSYvB/Y//QBjGjEAjq7/BKW0FQcW+dUDHy5jBjFMUQQmVhUBuHqvB/sqoQFlLg0Dl
OrjBYbjqQLwU7L8gaqnBUav3QMdfwL99JbfBi+XOQDPQTD9o4rXBm/LBQJPM6j4LJ6jBbK8PQZqN
Ij9U5LHBDROqQIODdz/DDJTBqO+1QDJqS701lIjBn5YZQY30875T857B7qoTQeLvoz/Vmp7BDWCR
QJsGA0ACf4PBR2TGQJhp+j9u+3vBSb2uQP+Xh0CAXIXBSiThQFLOZkAfFIrBTcoNQFKDVUDhGZfB
KOZHQLzMHUBZxY7B66DjQMxWRL/meZrBRbf1QOLPfEBKoaDByUwCQUX0hkBZEKvBzA27QNFVhUCd
zLHBXGqsQFjceUCkYqfByF7JQHYGdEBd4Z7BkDvnQFDXikCYnLPB2u+FQFCHYkBX9JjBtmXqQNAJ
Mj8Eq47BPlb2QPCdSD6XP63B/UgTQRDjpT0fY6/BlegIQaz0Sb9eyKbBGoC7QAhhcT+vBYzBkfoN
QbSi6r5nJ5vBRjK0QHzSDEDJH4XBliDBQJZYYUB4uorBroODQHyVbUBqWqPBYMWwQFbRZkAl35XB
VPhFQGw9VEBOWZLB4AHzQGQEoL6Zz5XBOa4DQcqJrD9kk4rBeHL5QLXulkDNcsDBTv4FQXyJdkDn
EZrBezwTQRaJikCzhqzBo6qkQB2Ph0ChW7jBclHpQCljjD8pY6nBm0LfQKo9Ob6bK7PBuAcZQeus
wL5927bBIw8eQUa/Zj8LE63B9eoGQbJb7b8Mu6jBp7upQD6/hz92j5PBqyKvQJ+Xjz3mpYfBt0AX
QUfnor8te5fBqyEXQcFb9T7Zp5rBiwGSQIVmEEB6FIPBTinHQPl5BkCggXvBRSK0QD+ti0CeHIbB
0EHkQLuMZUCd6IrBo20QQIvFU0Apu5bB/6xMQOXPG0Abq47BOvjbQBI1er+gZ5fBiJvzQHC5hED7
DKDBKx0CQVOah0Cng6rBdhy8QPv+fkCs3rHBvt6rQNX7d0Dva6fBanzHQJ2sekA5oJ7B6IboQPqC
hEDOabPB3taDQHK8ZECGKJnB/K35QCFbjj+phZHBzPINQR5oub9TbaHBVT0FQegbM7+DRqvBLfgZ
QeDKYb7staXBhMTJQPvbXD/PXZDBKk8aQebPiT+MEZ/Bjsq1QG3I6T9sKYjBVI69QPakVEB84YrB
PIOCQIvabEConaPBtjWuQF+1aUDR0JXB/SpBQOwhV0DMopLBNZcEQSl8rz/YnZvB1XcIQbW/lD89
oonByCL9QA4jh0A1XcDBpjgEQeojiEDgNZnB8RETQeMrjEDAuavBDsKmQGW5fEBNqLjBZWMFQcbb
sb+lwJnBmukUQRTuHMDoWqLBfQYGQX9Klb8HPLPBjwDtQMeh1L3EoarBddcoQaHn4b6VEqrBWD26
QCqWgT8xLJjBVJrEQOy1ML4asI3B7q0kQc2ucT+0CZjBsGkgQZrQ8z/G/aPBWBSTQPvN0j9H5YfB
ucTDQLD3zj/YQoDBoVWsQCGcfEDtDYXBxwvgQFMlYkAAY4rBNDwMQNd7VEDXHpfBplNIQHnqH0D1
sI7B00v1QDXp5D/F66DBWB30QOwbhkBK4J7BGFsDQQprh0B5HanBdn/AQI2cdUBXQLHBcBuuQBvn
ckCA/KbB7cjHQCm6fUAg753BHPXsQKjEgUDmSbLBFq+DQD6+ZUBsApnBJuHsQKpDnT/HrZDBYlLD
QAQGn78kzqTB8nrMQECxs758lK7B/uTxQOC3Xr9dv6fBPrHAQIJVnj9bV4vB+PYFQUCeET6W/aDB
SIS3QC7XHUChOYTBhm+7QCFvdUCt64nBulOEQORtZUC9iqPBbBStQM1NdEC4RpXBvks/QJE0WECu
wZLBHPTtQNyThD9Fm5vBT+gGQahsoz8MXYvBeh8CQb6Xg0B3877BQ8kDQQqaikAT05fBWVgUQZi+
jEBV9qnB2c6sQMQfbUCyRbjBP1a0QP/1T7+7n53Bl+O3QNx4EcDm8KXB3IHHQNSgPr/as7bBg/TD
QJxMNz+vYq7BO2ICQewY179eX6vBI02oQKUUmj83rpHB3A++QCYXrD6jVYbB+JkPQb26yr5CBJvB
AZYQQVSNOT9mPKbBZ7WWQGD3F0BOH4HBJEvOQCkGHUBxCHvBJNqnQF4hkkCuiYXBzS/dQD6thEDI
tYnBq6AMQKgzTkA0e5fBToZIQJcDJUCDGI7BYu/YQOboxD99GqDB6tr1QDKLfUCIFZ7B9G8EQU5i
gUBQTqjBZl3CQIZ+dkBcr7DB35avQHCkckBMfabB3hzJQM55c0CKTJ3BmSzvQBJvfUD3l7HBltuD
QCaVY0B23JjBXcv3QCzqZD81WpTBf3lCQXzcBT9EzpPB7T0xQcw3Oj8gQ4vBBq4rQQBb0zxn5ZXB
NnzHQFAgLj+UzZPBfUQeQXB4QD8Xe57BytyyQDPbuD9OMYrBlA+5QBQFQEDzVorB1jGFQM2na0BV
T6PBf12tQBdkY0AN65TBbP49QCBqWEAH2JLBPWQHQfDy6T5VLZ3BDvIEQa7JvT8jEI3Bc1YDQQS9
fkD8QL7BjKcEQZ2agEAn9ZbBfokVQfprhUC1CKnBqJ+uQDModEBMxbfBELlIQaGDsT+XRJjB7XJP
QaJwTb61cZLBMM0xQbPGGD4CyIPBVBMrQYtK3j/kmonBbVcpQcEHiL9SaJXBTf24QMpOhT+CSJvB
eAjBQJJYyr4V5ZLB98YgQaAU6z9ru53BgXcjQV2K1j6RdKbBX02QQEkjnj/rOIrBnRvBQBE/hz9L
xILBLZSkQFsKXUCYK4TBQcPaQPYgT0AmpIjBKxgLQJBzV0AqsZfB2IpBQJ4MIUD82o7BTMT/QLgO
mb1R0aLBhk32QBiCdECPZZ/BLrMDQXRqgkC5pKnBNxe/QNRnhEB1L7HBXTWuQD9HeEAq86bBcorJ
QMNybkDnJZ7BYtXrQGiXh0DfhLLBVdaEQGldYUDP+ZjBVOjvQARgAj+LxIzBnxMyQaVlDsArX4HB
jM0xQZlcOL8oRn7BwUsdQZ69tr/n54LBuCy/QHwPPz/gmYzBdbUVQUIAl7+6d47BF/6wQGhd+D+Y
iIXBpPu8QBBvVUCXHorBFVWEQMtCb0AyW6PBgxqvQJi+YECicZXB3c5BQEOlVUCqnZLBYDH+QNTM
SL9Cq47BOLIEQcabtz/Sx4vBrJAAQcMXkkD0Kr/BWp4FQQi/bEBLl5jBOM8UQey2hECCtarBbf2p
QM9GiECS9bfBmbU6QaJeJ8BaYIjBq4EzQcj/O8BVaXXB5QYzQQE1tL4JvG3B1Do6Qfm88ry0iYTB
aroQQcbVyb9TuXnBoHy0QAjHbz+k2JTBPp+vQIYAKL4cjonBPWofQUxewb7CCJLBhLsXQWuYBsBj
JJPBMQKOQOXa8j+Cn4TBjTfAQAPK6j8cSnvBRo2tQKZ9g0BHM4XBLPDfQL4PXUDUtonBiykNQO9k
WUAIJJfB24REQMIPHEAgJI/B7V/oQPl2vr8CRZDBR1H0QF6Tg0DBZJ/Bwe8CQWTthkB0uqnBlJa+
QEwKe0CjjLHB3BytQEzldkDPMKfBxfnHQMs1ekC4RJ7BdSnrQK4bg0CUy7LBn/KDQP7XZUA0CJnB
7E6wQFDwcj7WqZjBagAFQSZHAz+P66bBpS0MQZjocL+YS6jByivuQDD79L5FW63BuEu7QLCZHz9x
94zBdo/EQAini7/v1ajB1KLXQOtf8j+YW4vBD22+QMjhTkCM7orBkEmDQPHSbUA4hqPB81auQIDQ
aEDqmZXBnvNAQMZ7VUAFrJLBFSjCQFReZr8ILZ3BowiXQAZSZT8l753B0LQAQWx+hUDYkr/BH0wE
QcvvhUAGbJjBOuETQQdrjEAMuqrBDiCqQLK6dUD2erjBMB//QE0aXz/6Dp/BtZsNQXXyqD8/EqvB
VfsZQbGilr8ma63BOO8LQf8H0L/hZ6HB7tLuQP+vr76QFrbB0vOcQFZ1Sj9GtojBTT7MQLS1aL5M
VonBDOWoQN8/Gr8Nn6zBR/PDQGG8CsBfoarBkzvpQBkM5D8ByoPBA33uQCl7+T9QCZLBGAijQOFB
R0AXfYXBoLjTQL2ngEA+34fBzNsMQDS3UEDxR5fBH7BJQI+dHkB1s47Bnb/NQIFOzr/aXJjB4RH0
QGBjhUCNT5/B++ICQUUGiECcqKnBcsS+QPVKekDff7HBS0StQHkddkChKKfBXOHHQMLfe0DyNJ7B
XUHrQAgTg0BYu7LBwCGEQHCDY0AXFZnB0fCuQABKMz6t55rBUZAUQfLOVT/an6HBfwcPQXBo3L6R
MZvBCoIIQYBGpb7LCafBDuWuQHBPKj/CE4/BWJXhQKDNEL4+TarBm73QQCcc4D/B54vBU0G+QCbn
S0AFE4vBe6CDQBo8akB8kKPBrEWuQA1UaUAlk5XB+NRAQEJHVkBgtJLBTWHLQLBlMT8wWaLBv9CY
QFxRS78MQp3BxcgAQcINhEBlg7/B/w4EQSsIiUAFVZjB6c0TQQ3UjUCbp6rBZ16qQJJ8dECkb7jB
fjsMQebs4z+77Z/B9UclQWjGhT/rzaPBv8kbQdkOkL9Px5jBSL0CQWuhx74f55TBxyASQW+Ybb/K
l6zBNgSPQECFij9HZ43BmGO0QOEJWr6N9YnBmfjfQHVUsT7TLbLBlwDSQKgrkL+EuqrBFmHeQGsw
vT+AF4TBmTLqQARO4D+Z+5HBPrqjQK0lTEBFSoXB14vXQLadd0ADUYjBW6EMQHOpUkCST5fBSb5H
QPOkH0DioI7B9gzRQNyr1j8lT6LB22j1QN7Cd0CUlaDB8WYCQf6lhUAg6qrBaVa7QD8fiEAit7HB
GiesQGm1fECoZafBzuTIQH3dcEC0657BlM/nQFDXi0BOdrPBlByFQOOCYUCRIJnBs6fyQFn/Fj+8
Ko/BQ6MmQariob+RoYPBTHISQV69B8CJi4TByaIfQY4D5b/Aq47B2+LBQKHsOD9mvY3BO5QXQa1U
Q78xDZfBhRu0QKNd8j+iY4bBYau/QKL9UkB95IrBoumCQAcickBpbqPBXumvQC9qYEBwBpbBC3tE
QPjNU0D8d5LB4s0AQW+B2r6ExpXBsdAFQWKspz/uPYrBlAD7QBgmmECmOMDB4LcFQeQ1bkDSCJrB
kGcTQXVmiECFS6zBpyalQBK7jEAqPbjByUwlQVwpRb44yIHB1wY1QS5h1r/IiX/Bo1YSQWJaScAn
W4HBlpwCQcH41L97XoPBXjkpQVOWJ8Ch5pHB4G+zQEOCYD8Yq5XBl7y1QEqiW74DRYrBHwkhQSwD
Iz4wPpbBJfgZQQTQl78dFp/B+DaRQNkb7D8GTIXBFgXEQKTD4j9zM33BOVKxQJP9gUB/sIXBsbHi
QPv/WUAo2YrB3GwOQGaDWEAGtpbBK3lIQPJYGUAiQI/B5ybsQCbTdb9j5pnBla30QG64gUA9fp/B
Ff4CQV6khUC72KnBIi2+QNBJf0Czj7HBFButQNtwd0BtM6fBQSTIQJJ8eUD2Sp7B3MDqQCSwhECs
3bLBoByEQDHNZECiEpnB3A27QDShQz6LIZPBrmLrQJrK2r72dbLB2tP+QJBMCr6ShafBAvbXQCAa
jL+shajBlv3WQELVmT/hI43BvZOqQHulIL+jVaXB5Yu7QI3uCUABQYbBmsy8QMszZ0DuRYrBL4OD
QKREa0CVkKPBWAyuQEd2bkAbh5XB4EpBQP6cVUBirZLB6h+uQBUi6T6Eh53BWSuyQE+5X7+y0Y7B
3iAAQaHxiUCiq7/BC6UEQcOEgkCMj5jB/AoUQWNhiUDf5KrBJl+pQNicfUAOdbjB73DZQC4Otz7J
sLbBfUH9QJ4+hL96SrjB3EkPQYymCL8DdaXBKcP6QMddWz9T26PBSdDeQGqSCsDfc6fBSEztQKhj
KD/254fBjTnpQNOk5T8w/ZLBvIGZQIypiL4leKzBIduYQOTpu78byaHBRjCaQL/75j+DaYbBg5PH
QHhKCED/+HvBL+2nQM4+h0BFKoXB0dzdQPz5fkBfvYnBECsNQPNYUEC4RZfBmNxJQLlNH0AnlY7B
VC6nQChLsj8ZtJ/B

> <OMEGA_E>
gIfHPkzR+z6wD/w+4B2uPujvFT+oEiw/fOAjPwz1IT/Ymh8/MA4ePw==

> <OMEGA_NBR>
     40375

$$$$
50164884
  -OEChem-04172616093D

 42 44  0     0  0  0  0  0  0999 V2000
    7.4215   -0.5177  -23.2030 C   0  0  0  0  0  0  0  0  0  0  0  0
    6.0829   -0.9167  -23.0515 C   0  0  0  0  0  0  0  0  0  0  0  0
    7.6370    3.6549  -20.0656 C   0  0  0  0  0  0  0  0  0  0  0  0
    8.1133    3.7687  -21.3873 C   0  0  0  0  0  0  0  0  0  0  0  0
    8.1954   -0.2913  -22.0566 C   0  0  0  0  0  0  0  0  0  0  0  0
    5.8136    3.9188  -22.2144 C   0  0  0  0  0  0  0  0  0  0  0  0
    5.5490   -1.0662  -21.7572 C   0  0  0  0  0  0  0  0  0  0  0  0
    5.3447    3.7963  -20.8952 C   0  0  0  0  0  0  0  0  0  0  0  0
    6.2473    3.6746  -19.8334 C   0  0  0  0  0  0  0  0  0  0  0  0
    7.2024    3.9055  -22.4594 C   0  0  0  0  0  0  0  0  0  0  0  0
    7.6139   -0.4711  -20.7890 C   0  0  0  0  0  0  0  0  0  0  0  0
    4.1332    3.6137  -19.0685 C   0  0  0  0  0  0  0  0  0  0  0  0
    7.3475    0.6855  -17.6883 C   0  0  0  0  0  0  0  0  0  0  0  0
    8.5097   -0.3839  -19.5729 C   0  0  0  0  0  0  0  0  0  0  0  0
    5.8637    0.9398  -17.4119 C   0  0  0  0  0  0  0  0  0  0  0  0
    5.5910    2.2145  -16.5877 C   0  0  0  0  0  0  0  0  0  0  0  0
    5.9883    3.5288  -17.3028 C   0  0  0  0  0  0  0  0  0  0  0  0
    6.3084   -0.8495  -20.6604 N   0  0  0  0  0  0  0  0  0  0  0  0
    4.0587    3.7464  -20.3739 N   0  0  0  0  0  0  0  0  0  0  0  0
    5.4748    3.5997  -18.6944 N   0  0  0  0  0  0  0  0  0  0  0  0
    3.0404    3.4976  -18.2220 N   0  0  0  0  0  0  0  0  0  0  0  0
    7.6693   -0.4486  -18.3877 N   0  0  0  0  0  0  0  0  0  0  0  0
    8.2365    1.4148  -17.2636 O   0  0  0  0  0  0  0  0  0  0  0  0
    7.7935    4.0526  -24.0938 Cl  0  0  0  0  0  0  0  0  0  0  0  0
    7.8473   -0.3876  -24.1869 H   0  0  0  0  0  0  0  0  0  0  0  0
    5.4693   -1.1070  -23.9196 H   0  0  0  0  0  0  0  0  0  0  0  0
    8.3280    3.5540  -19.2418 H   0  0  0  0  0  0  0  0  0  0  0  0
    9.1757    3.7514  -21.5811 H   0  0  0  0  0  0  0  0  0  0  0  0
    9.2264    0.0178  -22.1458 H   0  0  0  0  0  0  0  0  0  0  0  0
    5.1168    4.0221  -23.0331 H   0  0  0  0  0  0  0  0  0  0  0  0
    4.5161   -1.3586  -21.6389 H   0  0  0  0  0  0  0  0  0  0  0  0
    9.2205   -1.2234  -19.5723 H   0  0  0  0  0  0  0  0  0  0  0  0
    9.0642    0.5660  -19.5855 H   0  0  0  0  0  0  0  0  0  0  0  0
    5.3428    1.0329  -18.3763 H   0  0  0  0  0  0  0  0  0  0  0  0
    5.4616    0.0776  -16.8597 H   0  0  0  0  0  0  0  0  0  0  0  0
    4.5152    2.2559  -16.3621 H   0  0  0  0  0  0  0  0  0  0  0  0
    6.1601    2.1467  -15.6488 H   0  0  0  0  0  0  0  0  0  0  0  0
    5.5805    4.3769  -16.7332 H   0  0  0  0  0  0  0  0  0  0  0  0
    7.0858    3.5980  -17.3283 H   0  0  0  0  0  0  0  0  0  0  0  0
    2.1973    3.5307  -18.7588 H   0  0  0  0  0  0  0  0  0  0  0  0
    3.0895    2.6272  -17.7320 H   0  0  0  0  0  0  0  0  0  0  0  0
    7.3211   -1.3335  -18.0784 H   0  0  0  0  0  0  0  0  0  0  0  0
  1  2  1  0  0  0  0
  1  5  2  0  0  0  0
  2  7  2  0  0  0  0
  3  4  2  0  0  0  0
  3  9  1  0  0  0  0
  4 10  1  0  0  0  0
  5 11  1  0  0  0  0
  6  8  1  0  0  0  0
  6 10  2  0  0  0  0
  7 18  1  0  0  0  0
  8  9  2  0  0  0  0
  8 19  1  0  0  0  0
  9 20  1  0  0  0  0
 10 24  1  0  0  0  0
 11 14  1  0  0  0  0
 11 18  2  0  0  0  0
 12 19  2  0  0  0  0
 12 20  1  0  0  0  0
 12 21  1  0  0  0  0
 13 15  1  0  0  0  0
 13 22  1  0  0  0  0
 13 23  2  0  0  0  0
 14 22  1  0  0  0  0
 15 16  1  0  0  0  0
 16 17  1  0  0  0  0
 17 20  1  0  0  0  0
  1 25  1  0  0  0  0
  2 26  1  0  0  0  0
  3 27  1  0  0  0  0
  4 28  1  0  0  0  0
  5 29  1  0  0  0  0
  6 30  1  0  0  0  0
  7 31  1  0  0  0  0
 14 32  1  0  0  0  0
 14 33  1  0  0  0  0
 15 34  1  0  0  0  0
 15 35  1  0  0  0  0
 16 36  1  0  0  0  0
 16 37  1  0  0  0  0
 17 38  1  0  0  0  0
 17 39  1  0  0  0  0
 21 40  1  0  0  0  0
 21 41  1  0  0  0  0
 22 42  1  0  0  0  0
M  END
> <OMEGA_C>
TX3tQLaJBL+pn7nBOqfCQAKvar9oabjBcGL0QG7qaUBwhqDBOdABQasycUAvGavBayADQfoelb7f
c7DBpgi6QN3MekAnt7HBXJGxQF54iL+mDq7BxAerQJL2ckBuKafBDerHQKwsa0C/qp7BAHrmQIvz
eUDCrLPBVaXzQBA48b7IT6bB1kKEQNpGZ0BCjJjBUh7rQDJ8Lz+0gY3B0icIQRyOxL5QlZzB06O7
QAeWcD+qS4vBN+myQOm5DUCTs4TBEKC/QHLXYUApbIrBvd7JQJB3Wb+WSKXBFOGBQEnEb0C+/aLB
1DGvQBFiZkAbjpXBy5VCQGvYX0CjxpHBJmv1QPio5b4GGpPBtMgDQfYYtT/DG4rB+mP5QAmvgUAh
wMDBUh37QNN3xr7RfsHBKgSvQNKyjb9NW7/BrD8FQcp0Y0A975nBhM8SQY8WcEAYpqzBTJ8TQTkb
kjyCKrHBbryjQLi0gEDBQ7jBzoOQQJHnrb+EHK3BS4cTQRCYnL8dlJzBBwcRQevnED8vr5zBdviq
QL81hD+pApPBh8WuQGv5nj2y4IbBHHyQQEFhEECM5YLB5h/FQC1kCUCYYXrBvZOyQHcPjECg3YXB
9b7iQPJFZkByoIrBAKEMQA73YUD7EZbBtLlFQLAkKEAi243B2kbqQNqvqr+coJDBAnSuQNzq278h
zKXBrImlQPCbob+uLbDBsOfzQPEBhkBxK5/BzLwCQdlYiECUiqnBuvzUQFYLqr8E+qDBPmG+QPsi
e0ARUrHB4m3DQGfk3r4zb7XB1hStQKBNdkDI9qbBOHXHQNwcgEDp/53BMqDqQFPHhEASmbLBHHLv
QF1Vxr5IRqbB4l+DQEBHaUBv4pjBcJHdQCUUmT8d4ZHB4lIJQTr/pD60OqDB3JraQIGb1D8cQIbB
4EC1QNrzJ0Bn8YPBFtK5QGXMfkDf0InBDjnnQABsjLo/crDBbKODQCvaZ0BSZaPBnLasQE3ueUAO
PpXBhCo/QApyWkB3lZLBw/sCQf3iRj9xaJXBOOC8QAr/iz9sQ5fBDwUAQTn5iUBcar/Bpx2YQKW3
FsD5nKHBHxWIQEh2xb9hGrTBBx8EQaeyiEBuN5jByr4TQQzfjEBskarBlF7eQI6l3r+vVpnBE/yp
QIPgc0CDPLjBpZu9QHmnEb4tn73BsO4WQVZNvL6EaZ/BD0YOQTHQmT+G5qTBkrjWQPzqRT+nJYHB
WKn4QGoEC0D4L4TBnEWXQIJqCUCEh4bB/fyzQAcQNEBSj3bBX56lQBQyl0C3v4XBMHzbQMWQiUDp
bYnBSa8MQBilTkBfRpfBjtdJQIz5J0Bf2Y3BWJwOQaA6ST+x6Y/B8vPfQBBg979oiKzBBCPuQN7s
Wr+0z7LBNi/zQHHHiEB9bJ/BQ6MCQX+EhkD8vqnBvuO+QJqn27+HGaXBZAu/QHiTakAeS7HBMC/a
QDaEyz5LrLHBvEmtQJvAbUCT86bB7gTHQJPvgEB/IZ7BeDrrQHHTeUDJq7LBtiOsQAEH3r4UWqTB
LF6DQCtoaEACzZjBIgvCQIAGjT+65Y/BJi2LQIxVDb75uZvB2ijLQNRk2T8j1oTBeiKwQJaHPUCu
cILBgry5QGaBhUD954nBOI25QHtmFT+ntqrB9AWEQA6uXkBdQaPBWHesQFQwfUA/SZXBeaY+QEyK
XkBZb5LBZp+dQNqTmz6pW5HBolTbQFegrD9lG5fBT+sAQSyec0DLbL/BVTLuQBFIOsA5Zq3BuQIE
QXSpfL80cLjBknMDQXBskEAgl5jBkIwTQfcijEDW1KrBY/WzQHBOIcDeBaDBTQirQNSWXED7HbjB
NyXlQOdPnT8adbbB479rQJf8Jz9/rZ7BAfdwQMDIhr9DTprB4//DQF4kcD/yd33B/j3tQPPv+z9I
aoTBpSGOQLyzLECjToPB7HS2QFM9UUBRSHTBIpGoQOKcoUAvzYbB8GHcQA+xi0DwvonBY4oMQHgM
T0DwBJfBcvRIQO4OMEC4Fo3Bg3+OQPp7YjrivIrB+N2oQMMwb79dX7PBW8qhQAbE/L/aBKzBmSTx
QG27mUCby57BHg0CQXHUnEClAqnBvVTFQNsFxT0wm7DBYbDCQODHgEDcPLHBDWG4QNti/b9YRKLB
QPuvQIc3e0ClBKfBR+fGQDg1ikAo6J3BEuTsQKp4kED1N7LBe1zaQIQrNz2nnKbBCjmFQM5IZkCs
QpnB7SDRQFeYtz9oGJHBZ6n3QAeolj/9TaPB05rVQKKx+z8pqIXBiqezQBo0QkAyzoLB7pu2QERD
ikA5yInBQMfUQJzcgL/E3p/BPv2HQE6eXkDRuKPBLOerQMAOg0APU5XB5LZDQKQfT0AiMpPBA/70
QMlYwz9YzZfBhieuQBrDgj/kH5TB2UsCQRs+lEDh1L7B+7WYQBZ2bb+WArvB8ESLQIHGMMDc063B
iWABQbgho0ASvpfBizUSQcWqqECizKnBgQ7LQEWRaj8EC7bBL+2wQJ6abkCcQrjB0eGyQASxMcBp
mZzBKWgMQWE2Yj/eGqXBmTDvQGxbBEB4AqjB5EvSQLTHjz+1EIDBRI/1QN6BGkA4xYTBeriTQFrq
JUC+5oPBM+23QGZnVEB0vnTBmz2gQIohokA6iIbBlnvXQOWwlkDNSYnBFBwWQGPrN0BGAJjBJ7JU
QMlNIkDv5I3BW/EHQf/y7j8ebpTBCovfQMzcer+k6LXBi1vsQIKKFMCjCLXB8iz1QD4gekBS85/B
gLwCQe95g0AzVqrBMkv2QAC7I7zFK7DB9a68QJ3JgkBplrHBqQsIQTiBKcAmp67BaKCsQG7JeEDL
M6fBGZ3IQM41c0Dsfp7Bf0LpQAJghkCeI7PBwS8MQWzS0748aanBFZWEQKsLZEDB9JjBITLvQGxB
XD9piJDBspUQQdgr4T4M3p/B2Nu/QKhcYD9+dI3BRSO0QNZIAkBB4IXBrZC+QDH7W0AFeYrBBaES
QRhR2r90/ajBjyuDQEgLb0ALYaPBGhqvQPTPZkCdo5XBoGxCQIutVkDVdpLB6Pb4QBzqkD7nGprB
3JQFQUqcqD89t4rB6ZH9QF2IjkA3+b/BPr/EQIrhM7/c5LrBrAHbQMkbRsDXNbnBOkoFQTendUCp
MJnBHMkTQQUuhkAwkqvBDPrtQOdohD/F4rDBKxmnQMvuhEBTULjBGGINQa0ta8DFSK7BNT8eQcB5
gj3YNJvBMnsTQextvj/YHaLBxa6sQOK3eD+Ty5TBZhy4QBJSlr0QdonB9ZiRQM5m/j+COYTB9QXG
QJER9D/2u3zBN0CvQMRYhkAUZ4XBqXbhQJkfZUAoWYrBX1kNQJu7VkBC75bBQxlIQHE/HkDbwY7B
WKDiQDpemL4KdZ3BLj7DQHCtML/QtLbBrBTuQB6LVL8Re7PB1YDyQKpxi0DHf5/BfG4CQUDOh0DH
xKnB0YajQGrEBb862a7BTF2/QLfjZUA4LLHBaaL3QCQFYr9nfqjBI0GtQLWzbEBj5abB1WzGQBkR
g0ChLZ7BvULrQBXdd0A9m7LBSGKvQAfeB79B9KPBTiODQKPDaUBPwpjBIGDBQB66lT/qrY/BHL+N
QB/3Tr7cfJvBNVDKQC4W4D/xnITBKbCvQEV/QUACU4LBF2u5QDxZh0Bv4onB9WzYQPueTL8YDaHB
BhaEQB8kXUCrKqPBYfGrQLukgEBqSpXBUk4+QIOAX0DMYpLBVeGeQPIAlT7hHJHB1XnYQOzOwz+d
CJfBkvcAQbodcUDQWL/BHdS6QPD+Nb+sFb/BlakDQY2HZb+SW7nBWvgCQUWIlEDduZjBmEYTQfga
jkCT4arBXnWCQBonx775HrHBIderQF0SU0AW57fBjT8MQer2fb8p96XBpvxwQC2tEj+xxJ7BnFh2
QKHGjr+l6JnBs33CQDjTfT/nGn3BX37sQGxPAEDNE4TBi56NQD8WMUCVJ4PBkya2QMi1VUAjGnTB
uYeoQE+eo0CMxobBvR3cQMtAjUBNw4nBJtoMQMs5TUDJ65bBPNFJQGPgMkC/1YzBdlSQQAl6GL08
fYrBkULFQEecAL8AE7TB7XjhQIzzUr9babzBSaL1QCMTcUCDCqDBINkCQTWufEChe6rB4lDWQJyd
gL4M6anByJu8QDurgUD3e7HBB+oGQTFcX7+NYLrB6c6sQPUqd0BcEqfBPgHJQCmzbkAGcZ7BmS/p
QLceg0B2LrPBTKsBQazPt76NUKjBv+GEQGktZECgyJjBDrnrQDGpKz94sI7B9s8LQcCsYL4kap3B
HCO8QNtDXj+xSozBD7GyQIoJBkBFLoXBRMK+QNUiXUDdTorB/fAOQfuSI78gh7DBF12DQLnlb0Bw
L6PBmHyvQMciZUCJhJXBx9ZCQHAEWECQSZLBJtD2QF5xvr6sQpXBqbIDQdKrtT+aJ4vBqgH9QNPa
ikA3FcDBSDCjQPI35r6DdbXBFlPVQPk1hL9kU8TB9p8FQbYYakA2W5nBBukTQYxEfkAT1qvBvJLB
QM4krjw0WqPBCc2mQPgzhUDjILjBY70RQYIPjb8128DBVxgYQV4Rf7/eXpzB7j0TQQcQRj89sZzB
rBWrQAOPfj977JPB/S6wQNjU+bzhMIjBsDqQQMPHBkAfZIPBANzEQA8o/j87Y3vBE2iwQI5kiEBA
hoXBTM7hQH2qY0DiO4rBt7UNQNyXWUBQvpbBHkRHQFI6H0Deo47Bcg7oQOtmoL84bZTB8kQDQRTw
KsDo1K7BWZbgQENaU8CMI7LBO7z0QMl5gkBifp/BqtMCQX1Oh0Ay46nBs10CQYWTqb9oqqvB9ba9
QOHJgEDKf7HBsPC5QLajJMAGJLLBBP6sQGL8d0D6G6fBODzIQGyzeUAQNZ7B2zDqQFF1hkDq37LB
ogndQKv9Jb9C86vBNhOEQKsmZUDG9ZjBinK9QGRzPz8goJXBtpTaQLy0ST9UeqjB/BXHQGRCdz/w
rInBQmawQJf3DEAMzITBFBS9QNSoY0BmEYrBEqS4QMw1o7/QEK/BenuDQK8Xa0BodaPBHE2uQLjr
a0CuaJXBe3pAQM8YWEAem5LB8RnfQDK+Yz8O1JzBuIaYQFBwEz/ospjBS1P/QCRUjECQuL/BVT0S
QWlzTcBhuq7BLwHhQBu9isAMp7TBv8sEQYETg0Akm5jBIdQTQZWpi0Bu+6rBGacQQRghUL8IDKnB
KbOoQKQigEA9W7jBGMWcQJHNQ8BAprTBJHL0QAqerT8CWKzBu3e7QNVYmj+44KrBWau8QLlClD18
QIXBMNXpQA81jD8VuYjBN6eNQOJhBECQtYXB5X64QCkoEEAMfHjBP9euQBT3i0B9XoXB/ifgQDtk
aUA46onBYHYMQJ79U0ANPZfBw2tHQNLDIUDPd47BzT/8QB5NiT+N3pnB0vy6QANnK8CBYLLB+TPj
QMWXU8CeC7LB47z0QM1WgkBFgZ/BW9ICQe4sh0Bl5qnBw/u3QLuoqr+DQa/BFq+9QLm+gEAzgbHB
P5oDQXOqJMDwkq7Bh/msQDDld0AYHafByDvIQPiFeUDdNp7B+inqQJxfhkBo4rLBbFbdQFDTJr8w
+KvB4BGEQBYgZUD59ZjBnT69QG+ePj9jpZXBrz3aQDbaSD+9gqjBSfrGQKsgdj9As4nBRV6wQPy4
DEAmz4TBDRm9QGloY0AtE4rBavEBQbseo7+lm6vBd3aDQIMZa0CEdaPBak6uQLjEa0D1aZXB9nhA
QAwkWECNmpLBQtbeQA0fYz9b3ZzBI0uYQIb+Ej+js5jBYUj/QFw+jEB3u7/BkPWeQFUPTsA2+7TB
FIXmQDTbisBCbLTBv80EQS3mgkCbnpjBIdMTQQiAi0Bq/6rB7XuZQOxVU797Xa/BHKioQNkfgEAW
XLjBYAgTQWywQ8CwRq7Bv8zzQLOprj/+ZKzBoum6QCkYmD9X5KrBDo+8QOF+iz1rRoXBZbzpQFZ5
iz8mw4jBwJyNQDxABED+toXB6364QNTVD0D5gnjBlOeuQN/Yi0DQXoXBCi7gQM0KaUDe7InBvm8M
QO0cVEDcO5fBb1xHQKzJIUD8d47Bpv/7QCcpiT9j65nBrqfnQEZDFcDjvbnBT3LhQLqLVcD5B7LB
x7j0QGaGgkAjgJ/BVdECQZgah0Dq5qnBfozlQJUffb/YhbbBILS9QMpPgECPgLHBNzTZQDYVPsBv
VqfBbf2sQFl7d0AHG6fBmTjIQCvZeUAeNJ7B0CrqQMYLhkD54rLBeKHdQOPCL78Rq6vBqBOEQBRQ
ZUDJ8JjBuxy9QN1xRD8DdpXBHHjZQORyQj9mX6jBrxXHQOVJfD+HjInBjHmwQFZLDkA6sYTBlxO9
QOG9ZEBdCorBLkbXQDgH1r8AWaTBf3yDQNCxakC6caPBW0quQLV2bEBSZJXBhoNAQC1gWEDNk5LB
YGneQIvgaz+NwZzBMSuYQMFrEz8dcpjBXUb/QNXDi0Bsvb/BPu3tQGOyJcB4/MHBd/niQK0cjMBq
RrTBesoEQSFMg0BXnZjB09ETQT9ti0AhAavBT+/pQPxGSL6ESLzB/LCoQIPgfkC+W7jBTVXUQKh0
b8A6aqHBRVbyQIOFrD/Bc6zB/bG5QIFjkD8BwKrBesa8QLEfvz3YF4XBTtrpQPvFjj9PpojBoLaN
QDaoBUA+j4XBy7m4QHDWEUBBTHjBVM+uQOuajEC5YYXBlSbgQJKSakDz5InBgoQMQBrdU0AdNZfB
AJ5HQDtJIkDyZI7BWWL7QBrzkz+g7JnB

> <OMEGA_E>
YP/xPmQQ7T4q/SY/qHoiP1DdGz+owhs/yikQP9yvST/YUko/SD5OPw==

> <OMEGA_NBR>
     48202

$$$$
50164887
  -OEChem-04172616093D

 43 45  0     0  0  0  0  0  0999 V2000
   10.2430   -2.8206  -18.9798 C   0  0  0  0  0  0  0  0  0  0  0  0
    9.9705   -1.5274  -19.4640 C   0  0  0  0  0  0  0  0  0  0  0  0
    7.6664    4.1187  -19.8266 C   0  0  0  0  0  0  0  0  0  0  0  0
    9.1835   -3.6785  -18.6191 C   0  0  0  0  0  0  0  0  0  0  0  0
    8.2507    4.1662  -21.1055 C   0  0  0  0  0  0  0  0  0  0  0  0
    7.5715   -1.9673  -19.2672 C   0  0  0  0  0  0  0  0  0  0  0  0
    6.0490    3.8461  -22.1314 C   0  0  0  0  0  0  0  0  0  0  0  0
    8.6375   -1.0961  -19.6119 C   0  0  0  0  0  0  0  0  0  0  0  0
    5.4719    3.7918  -20.8493 C   0  0  0  0  0  0  0  0  0  0  0  0
    6.2749    3.9278  -19.7133 C   0  0  0  0  0  0  0  0  0  0  0  0
    7.8473   -3.2458  -18.7459 C   0  0  0  0  0  0  0  0  0  0  0  0
    7.4433    4.0326  -22.2563 C   0  0  0  0  0  0  0  0  0  0  0  0
    4.1383    3.5767  -19.1090 C   0  0  0  0  0  0  0  0  0  0  0  0
    7.2054    1.1946  -18.1617 C   0  0  0  0  0  0  0  0  0  0  0  0
    8.3665    0.2869  -20.1681 C   0  0  0  0  0  0  0  0  0  0  0  0
    5.8717    1.1773  -17.4182 C   0  0  0  0  0  0  0  0  0  0  0  0
    5.6532    2.4093  -16.5100 C   0  0  0  0  0  0  0  0  0  0  0  0
    5.8651    3.7761  -17.2103 C   0  0  0  0  0  0  0  0  0  0  0  0
    4.1630    3.5886  -20.4249 N   0  0  0  0  0  0  0  0  0  0  0  0
    5.4312    3.7863  -18.6347 N   0  0  0  0  0  0  0  0  0  0  0  0
    3.0099    3.3555  -18.3329 N   0  0  0  0  0  0  0  0  0  0  0  0
    7.1947    0.8425  -19.5040 N   0  0  0  0  0  0  0  0  0  0  0  0
    8.2521    1.4276  -17.5651 O   0  0  0  0  0  0  0  0  0  0  0  0
    6.8319   -4.0546  -18.3613 F   0  0  0  0  0  0  0  0  0  0  0  0
    8.1749    4.1007  -23.8375 Cl  0  0  0  0  0  0  0  0  0  0  0  0
   11.2650   -3.1564  -18.8843 H   0  0  0  0  0  0  0  0  0  0  0  0
   10.7837   -0.8654  -19.7224 H   0  0  0  0  0  0  0  0  0  0  0  0
    8.2770    4.2273  -18.9423 H   0  0  0  0  0  0  0  0  0  0  0  0
    9.3958   -4.6691  -18.2449 H   0  0  0  0  0  0  0  0  0  0  0  0
    9.3169    4.3048  -21.2072 H   0  0  0  0  0  0  0  0  0  0  0  0
    6.5485   -1.6495  -19.4047 H   0  0  0  0  0  0  0  0  0  0  0  0
    5.4314    3.7462  -23.0117 H   0  0  0  0  0  0  0  0  0  0  0  0
    9.2362    0.9351  -19.9855 H   0  0  0  0  0  0  0  0  0  0  0  0
    8.1802    0.2195  -21.2502 H   0  0  0  0  0  0  0  0  0  0  0  0
    5.0603    1.1439  -18.1601 H   0  0  0  0  0  0  0  0  0  0  0  0
    5.8340    0.2732  -16.7927 H   0  0  0  0  0  0  0  0  0  0  0  0
    4.6217    2.3756  -16.1293 H   0  0  0  0  0  0  0  0  0  0  0  0
    6.3574    2.3431  -15.6676 H   0  0  0  0  0  0  0  0  0  0  0  0
    5.2902    4.5394  -16.6655 H   0  0  0  0  0  0  0  0  0  0  0  0
    6.9357    4.0256  -17.1704 H   0  0  0  0  0  0  0  0  0  0  0  0
    2.2197    3.2069  -18.9275 H   0  0  0  0  0  0  0  0  0  0  0  0
    3.1524    2.5483  -17.7601 H   0  0  0  0  0  0  0  0  0  0  0  0
    6.3559    0.9742  -20.0323 H   0  0  0  0  0  0  0  0  0  0  0  0
  1  2  1  0  0  0  0
  1  4  2  0  0  0  0
  2  8  2  0  0  0  0
  3  5  2  0  0  0  0
  3 10  1  0  0  0  0
  4 11  1  0  0  0  0
  5 12  1  0  0  0  0
  6  8  1  0  0  0  0
  6 11  2  0  0  0  0
  7  9  1  0  0  0  0
  7 12  2  0  0  0  0
  8 15  1  0  0  0  0
  9 10  2  0  0  0  0
  9 19  1  0  0  0  0
 10 20  1  0  0  0  0
 11 24  1  0  0  0  0
 12 25  1  0  0  0  0
 13 19  2  0  0  0  0
 13 20  1  0  0  0  0
 13 21  1  0  0  0  0
 14 16  1  0  0  0  0
 14 22  1  0  0  0  0
 14 23  2  0  0  0  0
 15 22  1  0  0  0  0
 16 17  1  0  0  0  0
 17 18  1  0  0  0  0
 18 20  1  0  0  0  0
  1 26  1  0  0  0  0
  2 27  1  0  0  0  0
  3 28  1  0  0  0  0
  4 29  1  0  0  0  0
  5 30  1  0  0  0  0
  6 31  1  0  0  0  0
  7 32  1  0  0  0  0
 15 33  1  0  0  0  0
 15 34  1  0  0  0  0
 16 35  1  0  0  0  0
 16 36  1  0  0  0  0
 17 37  1  0  0  0  0
 17 38  1  0  0  0  0
 18 39  1  0  0  0  0
 18 40  1  0  0  0  0
 21 41  1  0  0  0  0
 21 42  1  0  0  0  0
 22 43  1  0  0  0  0
M  END
> <OMEGA_C>
QeMjQUKFNMCO1pfBB4cfQaGCw79ItpvBFlP1QI3Mg0DHnJ7Bce8SQe5ra8Dg85TBuAIEQVBRhUAU
2KjBpknyQI/Q+78iI5rBRJHBQAondkAEDbHBTzMKQRdMjL8m5ZzBCBqvQMKsckBty6bB4svIQBBh
e0DJtJ3BJh37QK66T8CJ95XBfi/uQLcKgUDQDLLB+myEQA7oZEAp35jBqpLmQE/pmD9DS5HBLt0F
QeTjkj5fWKHBFOW7QBixlj9hWIvBD+e0QD4xGkCQFITBBK+7QOSqcUCqronBWzeFQNarZUA5ZqPB
uMytQERTckDLE5XBnqFAQIjAVkDPqZLBzjrmQIisVz8qCJzBqggEQWe7tj9chYzBsp7aQKC/gcD0
45LBi8wCQZs4g0A5s77Bez00QaMCSsAOE5fBKIosQcWLXb9hx53BbW4EQQdGh0DtiZfBJFUWQQVp
lcCM9ZHB+xEVQSjBiUBMqKnBYY3RQJkj07/fPJvBO86tQOzBb0D/F7jBo8cTQUVkbz9d4p/BB+IC
QVPEYD5TAKrBFe6hQLprkj/uR5HBcrC6QD3fiz5xV4bBVeWTQCkKGEDTCIHBlG/LQD/1FUBTrnrB
PEmpQK9CkUD2UoXBP/HdQInRgEATXYnBlw8OQEQ9TUCNa5fBRsBJQF8XI0CsFI7BgWPLQJFneT8X
QqDBGwwHQSJtOMAeeqTBnU0BQefww7/WlqXBtAP1QPT7hECvQJ/BYYMaQa5LTsCVdp/BCFIDQeAx
h0B1m6nB2SciQTrrXL+6WJzBsIi/QBDKeEB9Y7HBZN0OQYphBr8EgKHBrCauQN4YdEDEBqfBVLHI
QEgZfEDgE57BLSIoQbStDcBkdpvB4vTrQITIgkBBqbLB3NKEQOpUZEAB5ZjBzNjnQHyCkT+3uZDB
3tUHQcKjZj+2AaLBDFa8QMpIjz9DMYvB4F20QPcpGEBvQ4TBWmC9QAR6bkA9+4nBPJ+EQLbCZkBE
aqPB2pmuQFxocEDVTpXBYTxCQH8gVkAAjJLBuHjoQFswgD+mwJvBfUgEQfoirj8umovBWvI6QdaL
IsBBypbBAv4AQRNmhUDMdr/Bkiz5QKEGasD0c6fBNCHlQFOpob/2jqnBlpoEQe6OiEBSTJjB0wQf
QYJdiMBUrp7BoUoUQTlEjEA3oKrBskwsQSNYtr2cF5nBIhOrQKerckBTT7jBRD0UQRgGxz+JmZ7B
gcIEQcyDmD+FWqrBEjujQGjVhz/VV5HB2Jy6QK/YbD6cBIbBKamSQPfJF0AruoHB4SjJQBlRFEC4
W3rBqOOsQKzZkEAlkoXBFBXgQNouekCX2YnBps0OQM0WTkBeM5fBRFpLQBGZIUACH47BeH/MQCae
eD89oZ/BvcAhQW2vH8AEIJrBCnMeQTZDjb9T75nBu/f0QMAPhEBpip/BeVoYQR2UUcDnR6LBSQ0D
QUjvhkC/76nBJusHQZLUo7+d4anB8oC+QOwne0DzjLHBCtcRQVhx/77v8aHBqJutQLU2dUBoJqfB
DqPIQF8Ie0DLQ57BlGELQW2PKsDEI6rBCe7qQCaQg0Bi7bLBYdSEQG2oZEC68JjBifTqQAmXjD8j
AZHBnncMQcwmcz/ZTqHBmuG9QOyhhj+yWozBk4e0QIzbEEAHAoXB1v69QLodaUCUMIrBwCaEQNWb
aEARc6PBA9quQLXObkAJdJXBJ7FCQOesVkDIgZLBenvvQA2bgj/HAJzBouIEQadVpz/vKIvBjD4C
Qf/kWcAR9LHBpC0AQcAHh0Cvx7/BqnQrQarKPcDcC5TB2IYlQQeIAL89sZPB/8QEQcHWhkD+oZjB
OxcbQYLmisD3gqLBGQYUQTW4i0AECavBPFb7QGp6UL+Iwa/B6KypQAaadkDza7jB26AYQQdtvj93
n5zBgXsLQc5DsT8bYKnB6q2mQHCDhj/W+JLB4lG6QIG/Aj45qofB8X6SQOkMD0DZxYLBl1jIQAK6
CkABjXvB7OatQLqIjUCfeIXBB8TgQFgHdEC2DYrBrqgOQCUdUECUF5fBPW1LQNliIUCRNo7BRBHV
QIWKgT+nhKDBH13iQLW5yb+RXrTB7MDyQHAu1r5PhK/BlQz1QKEFgECc2Z/BgEP1QIThNMCAMrLB
v7cCQTEChkBSPqrBcEgUQYaE4b+bMKbBCPu8QMC9gUCxnrHB340KQYWhBL+ELKjB49GsQIS/d0Bq
OafBOJvIQCDMdUCHdJ7BB2EMQaCWOsBJPqvBB3HpQArQhkB1HbPBSauEQL7BY0Dx+ZjB443tQO51
ej8vnJDBA4QOQR5GHj/Rq6DB3lC/QIxvcD/tpYzBTTq0QNiDCEAQXYXBK3++QGLTYEC4Y4rBtGaD
QAqybEDBbqPBXRavQMKuaEBqnJXBDn1CQPioVkDnfpLBVuvzQLqvND9HN5vBQ5wFQUGJpT8lt4rB
nFEVQem2g8DlEKnB79j9QPNejkC39r/BkmPHQEEewb9hvrnB2S3lQLMRDD+kYbHBfSUFQbO8fkB8
CZnBKI3oQIcQbsCU3bXB27cTQcH8iUDvbavBf8IhQf816r87z6DBJY6nQBNcgkC/ZbjBVI4bQfQf
yD5SDJvB8jsSQX7oxT8lBKXBa9OpQCYxdD/onZPBZme6QI07CTxnH4jBWMuRQAksBkCGj4PBtJXG
QDlAAkCyynvBPB2vQJxwiUCbioXBWmLhQPcoakAlTYrBPaENQFccVUB8AJfBd8RIQPALH0B/nY7B
PsjZQDIrDT/IqZ/BQa0MQUigP8A9VavB8/UUQdS/678XX6bBIkr1QKjjfED15Z/BB8XzQDUiOsCK
kbHBLM4CQZ0xhEBFT6rBmQvyQG0lAL+h7q7BDOS8QLhfgkAPlbHB/OEKQa9OGb/XCKjB9dSsQJrk
eEAqL6fB0L/IQPQKdUA8c57Bz8zfQOaA1L+3OrPB3m3pQJswhkCVIrPBi8SEQOsQZEBc85jB/j7t
QBg6dj9XlZDBnr0OQXYlBj+oYqDBl9O+QJ31cD+Gv4zBwRm0QNRPCEBaYoXB85a+QJukYEDkXorB
XWyDQHJGbkBLYqPBDDWvQP65aEAbl5XBELVCQOzOVUDIgZLBDT70QAiKFT/p7JrBelgFQchoqD9H
xIrBULG5QHrjyb9ZULjBuKr9QBF5jUA2AsDBt68UQWljfMBOX6rBwvEiQWd09L8qU6HBlVMFQY8g
ekCTHZnBgEbmQC0/c8BqE7XB59gTQbMTh0A9i6vBq93kQO1u7z6A4bDBg1KnQNH9g0AvUrjBL9Ib
QSSnlT4JzJrBr08SQSdSuz/RmaTBAaWpQDk/ej8/xZPBkTe5QDkH2zvhUojBe7GRQKlUBkAzi4PB
a5LGQIlzAUCC4nvBm0yvQG1eiUDMgoXB+n7hQEavaUBARorB3eQNQJGPVEDdBZfBXjtJQFe/HUAk
vI7B64PaQMDipD4fMp/Bw1WsQJ5PLMDWFrXB3KiuQHtMqb+ohrLBPm/0QDb+hUBsQZ/B+4nBQKgJ
acDapa7BlPcCQZxPikD8manBlx3cQDLg7L86LqPBV/G+QOh/f0CMfbHB4xLGQKL5Zb9sfKnB6Z2t
QOBcd0DUJKfBhSDIQDzvfUDSI57BumnZQF8MTsCmsKXBmzfrQHhWh0Cos7LBohKEQD36ZUBsE5nB
7eGrQDpLUj+wQJTB0wbJQO5IFD9kAKfBGym1QARQkT+0bIjBl1nSQCmYGECMFYfBMNK7QFgjbkDm
+onB2B6EQGryZ0DumqPBkLqtQNrickBiZJXBivdAQI9OVkCqtZLBO73NQIAgUj+yepvBtBKHQHh8
GT9SLpfBa9vtQMwQhMBKgJ/Br38AQRJJjUASe7/B102aQB4DQcCu/bvBC4KeQPGjGL+9e7fB4V0E
QbcLiEAjSJjBi36/QBMllsCOk7DBeegTQZbmj0Apk6rBuwnvQE1Xw7/NbpzBAY+qQOEuekCRb7jB
zObkQNMHgD9WMKvBxbqrQHq9iT9E1KnBCaeWQBUWqT9NS4TByCvFQIkCiT5FyYTBytzcQJD3G0CK
ZH3BaWjuQK7zEEC8T4zBS4OfQMJhdUAs1ITBf0DSQNN+kUDDcojBVMUNQKO+TEDtW5fB4F5LQHhB
IkB+PY7BmCLrQIH1fj9IpZjBZ2XkQLRdM8CJ1rPBX3nlQAXKt79PFbHBxI30QGpbhUBbR5/BgVfD
QFhXaMAV76/BmfACQWmKikAWnqnB79OjQFWt3L8wvqbBR7y+QN7GgEDRe7HBvBnFQNRQZL+MhKrB
m5OtQDbLd0BaJKfBgUDIQOCofEDgJp7BniejQDK2RcB1VanBowDrQLFjiEDNs7LBZSSEQPqvZUD7
EZnB1TSsQLBxSj/IcJTB/O/FQLaIEj8riqfBvoy3QMdWiD/BsYjBFu3TQJYkFUB8b4fBEju8QBoV
akDEA4rBrw+EQODFaEBsmKPByPWtQASvcEBEZ5XBgANBQD5TVkALtJLBGALNQBbNOz+a/ZvB1YeG
QBJFKz8aBpfBU22DQAr7d8DqfaXB60cAQfp3j0DZd7/BI+v8QIXdTcA58rjBvgb/QMNYTr+8/bPB
hH0EQcDBhkB3UZjBuLXCQMS3lcATAbLBXOATQXQqkEDumKrBv7yKQJQ7p7891KHBPTuqQAdvfUBw
a7jB6vTfQBsKiT8a7avBtiunQEkehD8MuKnBSsiZQF/tmj/EJITBxPXIQGGLSj49eoXBTGHfQE4U
GEC4Pn7B427vQCFDD0CC4IzBMuOfQFSgbkDO04TBXvbRQJHfj0DdTYjBlJYNQO/5TUCIWZfBQMlK
QOuoIUAxU47BrizrQBmGTj/qYpnBThEgQe3yKcBV/3jBSqgXQR2J4L++DoTBZpD1QEAGd0Azg6DB
QF0wQQ1fY8D5937BQ4oCQforhUCj1qrBdt8vQZVfKcBAoJHBLq+7QG/Sh0B0rrHBhVcfQWqX4L/1
vI7B62CsQA5QfEBdXqfBwAXJQOBqcEBu357Bw0s4QQn2YsBJCorBVi7oQPRni0B7Z7PBXimFQEyA
YUBQHpnBvCHyQJNPFz//I4/BvFMXQUjJQL9c/5bBKGvBQDT6OD+Wp43BZdCzQJS78j/dUIbBJoK/
QBANU0Cl1orBGRaDQAwAckA1baPBAOyvQClFYED1/JXB0WxEQAoFVEBsepLBLYQAQcQU376kppXB
lZ0FQfcwqD88RYrBhRNIQRrSjMCD44zB0IL7QJeal0A6KMDBEAQaQdcmKsDUz2jB+0oLQR2Ih78s
t4HBSsIFQXtrbUDW8pnBs8k2QSPdh8B/YHPBgo0TQfTOh0CGM6zBxxc2QZfmKMDHr5nB8JGlQJh0
jEAhOLjBPqMgQfx1Mz7MNpbBCL4ZQU2Plr+sB5/BmsqyQBWwXz8jkZXBvVy1QKkxWr7DJIrB8euQ
QEb97D9BNoXBrcDDQOkW4z/LD33B1R6xQPEYgkA4qoXBhoniQPD1WUDRw4rBDHYOQHvIWEDevJbB
5TxIQICYGUBMP4/BzpfrQCW9fL9GoJnBGFI4QRz8YsBDAorB6/MvQQp8KcBgn5HBQ471QBQad0C4
f6DBfVQwQQ01Y8AI7n7BBYwCQac6hUBg0qrBGqkXQVxH4L83G4TBO7a7QEvah0D2rLHB12YfQbyi
4L8OxY7B02KsQHdVfEC5XafB/gLJQB5xcEDN3Z7BaAEgQZGqKcC2CHnBUTboQJF0i0BFZLPBzCOF
QNBvYUB6H5nB2DLyQHtVFz9JK4/BqGIXQdD1QL+lCJfBKHnBQPapOD9yrY3B19KzQKVp8j8vVIbB
vne/QAf0UkBh1orB+xWDQJL4cUA5bqPBJ+WvQAM8YECl/JXBGFxEQM7mU0AGfZLBX5AAQWXl3r5P
r5XBrqMFQYA2qD8eS4rBWlwYQfw/KcDyxWTBApH7QCSrl0AiJMDB9N9EQZt4h8DsQYzBOjk2Qfch
KcBorJnBZL8FQVqCbUCF7pnBwrc2Qba7h8CRS3PBhY8TQdLih0DVLazB9kgLQUwph7/By4HBcJyl
QNR8jEBaN7jBDbQgQRaPMj7KQZbBsMoZQe29lr98EJ/B29WyQHWAXz+FlpXB63K1QOtAXL5OLIrB
qO6QQLd+7D/3OYXBNcPDQO+z4j+5Fn3B1AmxQMkBgkClqIXB8X3iQKfzWUA4worBimkOQCOoWEBX
wJbBEC9IQL93GUCqQo/Be7DrQBSCfL9EqpnBOYG9QEVeLsCrhLLBI565QIymsL/oT6/BsMX0QKsY
gkBzhZ/BNePlQF6fVsBBZLLBq9YCQXrzhkCA6qnBekkDQcqPpb8I1avBEba9QA2SgEAvhbHB1zXe
QEInKb8rDazB6wCtQEqGd0A7IafBikPIQKUaeUASO57BJzUFQV/mKMByBq/BWjHqQNowhkBi5rLB
XxaEQGHnZEDL+ZjBhRu9QOvyPD+6r5XBVgjaQKkYRj++kKjBLuvGQBdcdD8OvonBKluwQNxHDEAf
1oTB0h29QL37YkCsF4rBanuDQMrdakBWeaPBklSuQAZqa0AlbpXB0n9AQBcMWEC3nZLBzaneQNwC
YT8R65zBcSKYQOqZET+CupjBbpEYQVKfT8AY3a7Bak7/QNEWjEBbv7/Bf4+hQJSGUcDqErXBJ6ma
QI1kZr9FWa/BkdIEQRyegkDlopjB+dvoQFFHjMAk4LTButcTQfNBi0COA6vBzj0RQcseP78nOKnB
u66oQNbtf0AGYLjBHRjzQLDRrz+SdazBRGC6QLe0kz9J7KrBS4W8QDVNej3DUIXBMK/pQAeLij+Q
0YjBEZiNQC/iA0D0vIXBWoG4QGlND0BRkXjB1O+uQDqhi0AzYoXBODPgQDyTaEAB8YnBgnIMQDgZ
VECUPpfBc05HQGWwIUDieo7BUNb7QK4uiD+m+5nB

> <OMEGA_E>
NvsyP4T2KT+UzCg/8lgVP2IyDT8CBk8/6o9OP0YxSD/UH0g/7E1GPw==

> <OMEGA_NBR>
     56153

$$$$
50164958
  -OEChem-04172616093D

 48 49  0     1  0  0  0  0  0999 V2000
    7.6475    3.8946  -19.8568 C   0  0  0  0  0  0  0  0  0  0  0  0
    8.2026    4.1504  -21.1262 C   0  0  0  0  0  0  0  0  0  0  0  0
    5.9764    4.0821  -22.1255 C   0  0  0  0  0  0  0  0  0  0  0  0
    5.4245    3.8747  -20.8495 C   0  0  0  0  0  0  0  0  0  0  0  0
    6.2525    3.6947  -19.7337 C   0  0  0  0  0  0  0  0  0  0  0  0
    7.3742    4.1778  -22.2670 C   0  0  0  0  0  0  0  0  0  0  0  0
    4.0894    3.5034  -19.1472 C   0  0  0  0  0  0  0  0  0  0  0  0
    7.5054    1.1075  -17.9731 C   0  0  0  0  0  0  0  0  0  0  0  0
    7.3255    6.0312  -16.0075 C   0  0  0  0  0  0  0  0  0  0  0  0
    4.9562    5.2261  -15.6249 C   0  0  0  0  0  0  0  0  0  0  0  0
    7.8984   -0.8416  -21.0623 C   0  0  0  0  0  0  0  0  0  0  0  0
    9.6625    0.8357  -20.3456 C   0  0  0  0  0  0  0  0  0  0  0  0
    6.1831    1.3292  -17.2784 C   0  0  0  0  0  0  0  0  0  0  0  0
    6.7201    3.6976  -16.5896 C   0  0  0  0  0  0  0  0  0  0  0  0
    6.1999    5.1389  -16.5361 C   0  0  0  0  0  0  0  0  0  0  0  0
    5.7277    2.7904  -17.3234 C   0  0  1  0  0  0  0  0  0  0  0  0
    8.5281   -0.0950  -19.8802 C   0  0  0  0  0  0  0  0  0  0  0  0
    4.1083    3.8093  -20.4233 N   0  0  0  0  0  0  0  0  0  0  0  0
    5.3943    3.3055  -18.7041 N   0  0  0  0  0  0  0  0  0  0  0  0
    2.9401    3.4005  -18.3772 N   0  0  0  0  0  0  0  0  0  0  0  0
    7.4510    0.6529  -19.2675 N   0  0  0  0  0  0  0  0  0  0  0  0
    8.5671    1.2937  -17.3859 O   0  0  0  0  0  0  0  0  0  0  0  0
    8.0826    4.2854  -23.8569 Cl  0  0  0  0  0  0  0  0  0  0  0  0
    8.2823    3.8514  -18.9842 H   0  0  0  0  0  0  0  0  0  0  0  0
    9.2637    4.3257  -21.2257 H   0  0  0  0  0  0  0  0  0  0  0  0
    5.3342    4.1673  -22.9896 H   0  0  0  0  0  0  0  0  0  0  0  0
    8.1989    5.9526  -16.6715 H   0  0  0  0  0  0  0  0  0  0  0  0
    6.9814    7.0755  -15.9764 H   0  0  0  0  0  0  0  0  0  0  0  0
    7.6051    5.7069  -14.9942 H   0  0  0  0  0  0  0  0  0  0  0  0
    4.1623    4.5778  -16.0241 H   0  0  0  0  0  0  0  0  0  0  0  0
    5.2221    4.8971  -14.6094 H   0  0  0  0  0  0  0  0  0  0  0  0
    4.5984    6.2658  -15.5916 H   0  0  0  0  0  0  0  0  0  0  0  0
    7.0936   -1.4962  -20.6965 H   0  0  0  0  0  0  0  0  0  0  0  0
    7.4837   -0.1145  -21.7760 H   0  0  0  0  0  0  0  0  0  0  0  0
    8.6664   -1.4496  -21.5629 H   0  0  0  0  0  0  0  0  0  0  0  0
   10.0917    1.3547  -19.4759 H   0  0  0  0  0  0  0  0  0  0  0  0
   10.4447    0.2411  -20.8403 H   0  0  0  0  0  0  0  0  0  0  0  0
    9.2620    1.5762  -21.0535 H   0  0  0  0  0  0  0  0  0  0  0  0
    5.4196    0.7077  -17.7691 H   0  0  0  0  0  0  0  0  0  0  0  0
    6.2833    1.0244  -16.2263 H   0  0  0  0  0  0  0  0  0  0  0  0
    7.6840    3.6811  -17.1193 H   0  0  0  0  0  0  0  0  0  0  0  0
    6.8589    3.3255  -15.5638 H   0  0  0  0  0  0  0  0  0  0  0  0
    5.9258    5.4631  -17.5509 H   0  0  0  0  0  0  0  0  0  0  0  0
    4.7929    2.8343  -16.7454 H   0  0  0  0  0  0  0  0  0  0  0  0
    8.9357   -0.8279  -19.1683 H   0  0  0  0  0  0  0  0  0  0  0  0
    2.1398    3.5945  -18.9445 H   0  0  0  0  0  0  0  0  0  0  0  0
    2.8692    2.4745  -18.0065 H   0  0  0  0  0  0  0  0  0  0  0  0
    6.6332    0.8466  -19.8094 H   0  0  0  0  0  0  0  0  0  0  0  0
  1  2  2  0  0  0  0
  1  5  1  0  0  0  0
  2  6  1  0  0  0  0
  3  4  1  0  0  0  0
  3  6  2  0  0  0  0
  4  5  2  0  0  0  0
  4 18  1  0  0  0  0
  5 19  1  0  0  0  0
  6 23  1  0  0  0  0
  7 18  2  0  0  0  0
  7 19  1  0  0  0  0
  7 20  1  0  0  0  0
  8 13  1  0  0  0  0
  8 21  1  0  0  0  0
  8 22  2  0  0  0  0
  9 15  1  0  0  0  0
 10 15  1  0  0  0  0
 11 17  1  0  0  0  0
 12 17  1  0  0  0  0
 13 16  1  0  0  0  0
 14 15  1  0  0  0  0
 14 16  1  0  0  0  0
 16 19  1  0  0  0  0
 17 21  1  0  0  0  0
  1 24  1  0  0  0  0
  2 25  1  0  0  0  0
  3 26  1  0  0  0  0
  9 27  1  0  0  0  0
  9 28  1  0  0  0  0
  9 29  1  0  0  0  0
 10 30  1  0  0  0  0
 10 31  1  0  0  0  0
 10 32  1  0  0  0  0
 11 33  1  0  0  0  0
 11 34  1  0  0  0  0
 11 35  1  0  0  0  0
 12 36  1  0  0  0  0
 12 37  1  0  0  0  0
 12 38  1  0  0  0  0
 13 39  1  0  0  0  0
 13 40  1  0  0  0  0
 14 41  1  0  0  0  0
 14 42  1  0  0  0  0
 15 43  1  0  0  0  0
 16 44  1  0  0  0  0
 17 45  1  0  0  0  0
 20 46  1  0  0  0  0
 20 47  1  0  0  0  0
 21 48  1  0  0  0  0
M  END
> <OMEGA_C>
cLj0QBtBeUDI2p7BDT4DQT7QhECHAqnBXj6/QJaggkADAbHBtJWtQIz7d0Dey6bBUhTIQKl2bECS
3p3B1vnrQHywhUC+IrLBftyCQIU4YECNLZnB5CvwQAjCjT/XyI/BTGrqQDz/wEBLD4DBjpmeQEw8
p0Bu/3nBFsD8QLByV7+mf6jBvJkaQXjtVT/Iw6LBMNzFQFoiqj84OorBrgrXQAGlbECat4TBTmXG
QL1xpED1SYTBgkm3QC+WMkBrlorBOHMIQYCRwr2jCp/BynaDQMzKc0ABY6PBNJ6sQLuNU0AOopXB
4yo8QIeiWUCXBJPBmG7uQLgjJz/II5rBwRIJQUqZpT9IFovBJFIBQTQiiUDp2r7BfoQEQTt9dkCX
35fBBjgUQUpsikAxzqnBZLGqQHVahUC96rfBqy4DQeJ7vkBJX4XBumffQH5q4kAkn3/BsVzzQLKe
tkBT6G/BkDGFQJ19kkBaMYDBVhunQEe1nEA6wGnBXyaTQBOByEAKd3nBE//iQHuCv799kqXBdXrv
QA+V6r1SNa7BsKkKQXKMub/AgKzBu3chQUVorT+wzpvBax0nQcnpdj4IuabB9TAUQVrAyT+bbajB
iG2tQPkpNT8vJ47BmRDJQIkegz9fz4HBf+P1QAKXa0BD9IjB+XvbQDXVVEB2BXnBPKC9QBvSrkAy
aIzBFV+ZQHFkNUCk9oXBvPgOQQXxU7/DWJnB+PEIQDgMZkBpjpfBr6E3QLFeHkA/DZDBY0PUQN63
WD/AeZ7BaIb1QNeFdUDd457BoH4DQdxlhECDBanB4nm/QPbug0C727DB1imuQH0kd0DjsKbBdtXI
QJrCaUD7z53BYR3sQGduh0A4D7LBlIODQKTrXkCoFJnBe/fsQJhHej/vkY/B8d2fQJQDm0Ao8HLB
iW/AQCnGvUAE4YnBvTEcQYDopzwIoZ3BAlr8QMDDHL8kHqrB0+HCQOZeoj8WG4rBzp7YQDVEZkCc
CoTBEIHIQO42n0AVaIDBs1G3QN/dMEAOYorBd68FQRCbzj6Iu6HBsxuEQJNfckA+SaPBC0ytQI1N
UkC3fJXBvEY9QGCRWUC27pLBlWXqQIDtwj4ZepnBlV0HQdIerz/WqovB9QkBQXDMjkB0w77B1xQF
QbjIb0A6/5fBk4EUQVx2iUB626nBQ62qQCmlh0AcsrfBgy2mQBUihUCAhGXBN+WWQI+pukCrrGzB
N42FQF9CjkD6u3zBGa7dQDBlwECRu47B5kGmQHEqsUCf2I7B5pm3QKGR3UD30IbBM3YhQXHyQD/x
npfB354bQTjker/U+5nBFYYnQcTEczz5XKTB/0/cQHVnqr7i/qzB/nEJQbmHHr9+4LDBjxX7QIKd
zr9Zf6bBGXapQFWKMz/FKY7BxQ/FQOkkcj/ltYHBsc70QADjb0BkLInBourhQASrQUDeyHnBgJTh
QC6erUBGx3bBmVSZQLKANkBP1IXBSncGQWg8sz8qb6XBbVAKQES7ZkDIe5fBxsQ3QPVqHkDH9I/B
/WzPQOPs6b3UKpvB5ir0QPBtfkDdmaHBPhEBQfJZiEBICKzBISK4QJl5h0D4UrLB+EaqQMk5fUDe
06fBXAfIQObRdEA7f5/BhkPkQM5YjEBIZbTBYvyEQPkYY0CBQZnB5oPuQAD9oD/E243BAIAIQTc1
zEBhPYjBO9TBQL9tzECk+YPBE14BQaDul7uT56nBzKEcQbOKpz+hYp/BKfTFQA567D+Vu4jBXWDo
QMgahkCXyofB93/lQHKktkDHiIrBHNe/QGdTV0CGA4vB/iwJQc7ptT6Pj57B0qKBQLtDcUAImKPB
WhuwQPvJZUBsTpbB7W1FQLrwU0A9b5LBizPuQKrYdD8YupjB91oHQUDJjD/gYIjB4kH2QEtWl0C4
T8HBw5EFQQq9d0BCM5vBIe4RQU9RjEBIo63BZymhQAiEikD8u7jBvxQVQadovEBv9YzBAKkHQXs8
7kCnc4rBB0EMQTNayUALWH/BQAejQBrOvEDurIXBRxrJQOySyUAYynbBOOq/QDN17kCuLIbBcxfn
QNKZLr9qWKnBPkb5QMy0aT+eJK7BXVoOQeNZAL/SUa7BTz0iQfqkyD/0TZfB0JgpQVaqTz/rzqPB
kuEXQUFuDkC3oaPBfgOqQLI8pz/64YvBmOTHQJf02T/PBYDB2xUCQeM4cUD6AYzBlgvtQPrngkAy
Nn7BGyHeQIIJukDmGJPBZhCmQAHXbECAqIXB2UYOQa0aEb8rf5rBkdIOQMyEVUAjmpbBRSZMQONm
GkClCI/B/ZrTQKzClD8j3JzBerL0QAbZeUDTUKHBVo0BQXNAhkDFtKvBPzK5QEr9h0APFrLBEuCq
QLbNfUDjo6fBgk3IQNJec0ByQp/BiHrlQMLdi0D+FLTB79SEQMgLY0BZM5nBdTTtQJbpmD+KGo7B
btgMQYewqECsE3bB5AfxQKpaUEBmdGnBhRQRQVSRgb/Tc5rBlQYCQRJ8OT5zlKrB5lTEQOOF4j/y
G4nBox3oQKEkhUD2HYjB0xvvQC/Ij0DGN3jB1FC/QC7UU0CU2IrBQ8EIQbyerT4byZ7BAP2BQPaD
ckBghaPBE9uvQNRgZEANIpbBY2ZEQMTAU0BvgJLBd/zrQEeLSz/6uZjBqUUHQV9elD8H7IjB5e73
QPxAl0Bc8cDBu7kFQY17cEA265rBEnwSQWkfiUADRq3BwnSiQCH1i0AohLjBF28MQT8KxUASQIDB
pAQPQQ7VskAsXWXBizkaQQPmk0D/1nrB1fXSQEUlLED4x2rBN/sFQWlSJ0CCRW7BoIz1QH4wZUCu
y1jBld0VQSY+Zb8gCZLBclYEQYk94r9VCZvBAfYeQYb1qr9BNJ/BOTr4QJV6kj8Uoq3BZOQPQZ17
EL7SWK/Bq4nqQO+uEr/mLavBRZioQPXGoT9RtozBj/fEQC34yD/udIDBGrvlQNmUo0ATf4zBZCQC
QRmXZkBF74rBjdPUQAaRpEB903LBheilQJ1TaUBjYYXBtaMVQbzyij/nQZ7BDS0OQE9eVkAZvZbB
HURKQCDAGUBuM4/B4cXPQI2wUT8if5zBwDT1QB2rbkC6BqHBUi8CQboJg0DnMKvBvd66QA1SikDw
mLHBh86rQOi7fkDxVafBSa7IQELObEBuB5/BP1bnQAqCjEDBeLPBH6mEQCgbYkDIKJnB9VLqQMLX
hz9NxI3BE2rRQFo+yUBigo/BoiQHQX57w0DTe4LBgPf1QCuLtb8VVKTBC0oTQXhYFD8EKaLBX2vC
QD8F2T+Wm4jBYmvmQMIAgEBwyYbBjdXhQNFKsUCifIXBD7S9QOFJTkCVo4rBmHcEQSoq077lRpzB
LY2CQE2+dUAdX6PBQZKvQIGjXkBnApbBfd5CQKnxU0BpnJLBg3TlQC95lj7b9pbBQuUGQUC7nz+h
0YnBP8D6QA8HmkCDG8DB3r4FQeEjXkADwZrBDDETQfPGhECPqKzBIo6kQP/9kEAL+7fBdsixQCi4
vECsxJHBxNLOQIye60D6uo3Bz/fnQAxvxEBlKJbBnT8NQXfOskCLuHbBh0cSQQCzvkA8MYnBAbUF
QYDi5UDQw4DBZeHgQOnTB8ANGKDB1m3jQBNSYL+SbKrBbQcIQROy/L9uN6jBHAIaQcGzpT/jYJzB
Y14gQXgh2DyXC6bB4A0KQY/pjz+7QKjBFO2lQE6QmD/k14vBsRvEQOTrwz+y1X/BoQQAQScndEA7
o4zBg8vvQDSZZUBj8n3Bs6nLQAmbt0BVrH3BemSjQPfgY0ATdIXBresNQcGIdr9jTZbBviYNQEIE
W0B43pbBoHdFQBeGGEAtqI/BDzXIQCWEXj7WJprBiJT2QLd2gUDBN5/BstwDQcsDhkDEiKnB4FfA
QFU5e0D5PLHBgCmvQPl6c0As3KbBtOLJQEuaeEAp3Z3BUr7sQK8ghEBNibLBBF6FQDpvY0DV05jB
5J7cQNWZvz83AY3BGv3EQK192ED9mZLBeoH+QI6n40AD5oTBoIqxQKZiLb8YTaPB/CD0QI7mNT8t
IqXBuorDQDEBGECME4XBhEDfQBJ0mUAHIobB/FHVQJxCykDLc4fBFGu6QG8vdEAhTYnBOljXQGyi
S739JZ3BVKCFQCL8ZEA6WKPBPsuuQE4MckAhC5XBGL5CQBlBVUDajZLB2lDFQGFFVT9S5ZTB7ukB
QY/4uT9epYzBVGgBQSOziEAmS7/B3rYFQeflgUDsU5jBqdYUQRj5ikDAkKrBzbGrQPU3d0D8JbjB
f5+nQN7JxkBIl5TBMhu+QAsC+0BNepLB6aXdQCHK0UBTp5jBh1kFQQMN2kAbAHrBpGsLQdXj3EAZ
B4vBkUz3QN8NA0ET2oTBJNCcQIBnnL/2rZ3B8fueQI2g7z07PqfBOOC9QE3pr7/dXqnBLJoHQYDD
lD8g06DBKiUAQd6fIjy7MqvBDGbhQJYowD8ZEqnB0L+kQCxn8T8JYoPBXDLWQMMeHUBQSHvB5i/7
QBDrkUANJYvB8irnQPaqk0DFXHvBYOu8QKnz0kBefoHBXMydQPlEhUDdAYXBxR/qQCURWr+PYJnB
qMoPQBt8TEAFRZfBuM1LQDsoIUAsDI7BSp2lQNIfeD8c8pTBcxn1QCYDgkAO2p3B8HoEQTpjhEC5
46fBr3TDQHDIdUBjnLDB8aOvQP3vcUC9hKbBjlnIQHNfd0BbP53B20fwQJIrgEClQbHB4QCDQJV6
Y0D3+ZjBodznQCk0vT/1AI/B9xDsQPTayUBMLnLBiXbOQJChg0DCYWTBUezUQLLUuL87+pXBzE7W
QJiB1r6UaqjBlePHQG+jAUAV24bBbZPXQKjDkUAxFobBXk/MQP40pUAednbBdJe3QP+NXUCoa4nB
bcjmQCD+mL7j35zBpBKFQKTwZ0CPeKPBWi6sQLNlaUDU35TBgrc7QDLDWUBx/pLByPfWQMAmcD/f
SJjBhgMHQYJksT/U0IzB9cwEQdbEgEAVqb3BNesDQez9hEBboZbBK4oVQY1viUAEcKjBboqwQKWz
cEBj0LfBGBfqQBpx4UA2NX/BtQ/kQMRq2UD36GLBy2AGQbPnvEDvW3HBAJa3QOFvU0DntGfBQQXv
QAy8bECof2PBYVPGQBfhkkCwDFXBV/XgQJJDrL/Fvo3BjMGxQK/Hsr9M75XBS0bfQN0nGsBOUpnB
lU/jQNF0zz4DQa3B9angQLapsL+l0qvBNiWzQLCGvL6kb6jBFCGsQGHLrD+Wm4bBAnTXQBvGAkCX
7X3BL1bXQJE/q0AmKIzBW8P3QHejg0C0noXBGbWrQJpnskD4J3fBt2CaQOJuZ0BTq4TBLvwEQR2a
p76Zz5zB+EQJQO6fVkC15pfBN2E/QDLlI0DIso7B5gW/QI5ytT/Q85vBjJ32QGqtckBjUp/BXtsD
QY7NgUAIfanBQKG/QKyog0BeCLHB6JGuQM/Ld0AqyKbB0rzJQCdvbkBz653BMFzsQJr2hkBMVrLB
drCEQFhEYkD545jBNg/iQFKmmD+pSo3BRHa5QHHpxkA10nnBFqrPQHG4zkD6M5DBCk/UQMNSzb93
Q6HBJYgCQT/HvT6qcKTBoJ/AQMHp9j/ueobBwsThQGj3iEB9iYXBynnbQKh7ukAXTIXBFLe6QFEk
W0A+eInBwqfvQPpgA7+v2ZvBKqSEQDZnbkCATKPB9M+uQNxJZECoIZXB+IpAQIHsVUBitJLB5JHT
QBY7kz5E7JTBcSQEQc9AuD/WOYzBNyABQVekkEAM8L7B9NYFQaboaEDwlJjBIfcUQRRchEBjharB
5KCqQMUNh0B817fBIcnBQAiQuEBRTGrBa2K4QG/z6UCCOnjBMfOZQNAXu0A1+n7B5d/nQHrnxUDi
MpbBYiOwQI3lwkDWxJLBnJLOQCvB8UD8ZI/BuibFQHK5DsBUGZvBb2m7QH2tkL9BMqbB/9roQKC5
DsAxXKbBC0EMQeu1kj+4hqDBl9gMQaEIgb7AiqnBnj/sQDcHWT/RYKnBqquhQF7ItT+SeYfBwpXK
QD6t7z+nGnzBxOn8QPUSgkA33orBLpvpQLUlfUDEuHrBuwb6QIGqyEC0vYLBY/2eQHC2cUD51oTB
UVoEQdbtfr+eBZfBc7EMQFO9V0COY5fBxOJDQPf8HEAyE4/BfPOzQPIcMj7ZwJXBa9j1QA71fEC4
4p/BphYDQfD1hEA6OarBC7K9QMg2gkCBjLHBDWutQDDpd0DRJqfBHijJQK0LdUBgVp7BwjrqQILs
hkDbC7PBn9GEQG3oYkBe/pjBNb7kQBQvqz+3o43BO5PDQLtbt0DxAW/BUcYJQbC6skDA7HPB0Bz2
QKAPr7+cmZzByALiQFKZvD4DdKrB9HLDQCk3A0CnlYbBkuLjQE8JjkCHQIfB7rzoQNFymkCCqHbB
S2a8QDVeYkAv24nBE6DzQNDeDT4nFZ/BruyDQF7Qa0DOdKPBwAuvQFWwaUD3bJXBZUZCQAsTVUBe
mJLB+jbXQCzkSz8BVZfB6UIFQcZ9qD8A9orBZCf/QMh4jkDX1r/BaqkFQa4IeUBxIpnBmx0UQWJy
iEAXaavByEOoQA9mg0AVUrjB/gulQE5BpkAY6nDBOkfIQK6Kv0BXDV7BkfrCQLfY1EAsnXjB8AwX
QTNRnkCbV3nBhmsJQVk50EA0hn3B2xEMQVDrukBf9mLBNl0BQXSywb+2d5TBXPHVQB2C57/IKJ3B
RbgFQXG/7b/mZqLBLnPgQB9ZuT9XF6zBsED3QB6B6b1XULDBgcHBQNSrhb05EqvBssqkQEkdwj+j
RIfBwXnOQNNLAUA9dnzBpv/gQGOuq0AX8YvBt3cAQXV5eUAns4nBEXPpQHxhekAk4WzBvbOhQONk
ekBd+ITBKvkJQa28ET8rj57BL9ANQIb8UkCAK5fBRstIQJSHHUCetI7BXxu4QPshXD9RI5nBWuT1
QEDrekDqzJ/BHC4DQRWAhEBqG6rBhOm9QP+KgkCBfLHBa4KtQHTYd0AZHqfB4SvJQMatc0AjTZ7B
anzqQGIZh0AY8bLBTcCEQPQBY0Ah/ZjBdNvkQAeaqj+luI3BSP0EQdcS1ECDg4fB99W5QFYP00Bm
qYTBi672QMHurr83tpzB1lLiQB9ovT5LiarBCFjDQMcBAkDCqYbBAyzjQFHqjEDLfIbBFt/fQMSB
vEBNKYrB8xm8QPw+YUD+yonBxvjzQOX9Dj6JK5/BmvSDQKQrbEDUcqPBYfWuQAZGaUDSZJXBG/9B
QMxFVUD2nJLBoHHXQKAlSj98aZfBvlIFQUZ7qT8xDIvBiIT/QPksj0CctL/B5KQFQQukdUAqDJnB
LjgUQTXth0DFQqvBWI6oQLMehECSRLjBKG8SQTjEw0CSd4vBxwMEQe1L9UBZYYrBWIUHQRH200BM
nH3B8gKcQC4KwkCWmIbBTrO+QO3x0kB05HfBK7C3QMlH9EBthYfB6KgBQUeYwb/tlJTB3pPWQM30
578qR53BUQoGQfUJ7b+FhaLBvZrgQEWTuT/vJ6zBqKL3QH7c3L25Z7DB4yHCQAuKi71eKavBRsmk
QFM7vz/kb4fBpDHOQNPd/j93mHzBmxoAQULvfUASCYrBMtXlQGdbjEBybXvBNufaQN00vUAZ35LB
Jt+gQBC5d0DM+YTBYhwKQZZKEz+nop7BTJkNQHJ6U0CGM5fBrEJIQNGcHUAkvo7BuFC4QJV/WD8X
NpnB

> <OMEGA_E>
BnQiP/zUHz+2dTA/MFwuP5TULT+ofys/gmsrP3jaKj9IFCY/hoUlPw==

> <OMEGA_NBR>
     64725

$$$$
50164885
  -OEChem-04172616093D

 49 51  0     0  0  0  0  0  0999 V2000
    7.6149    4.1812  -19.9894 C   0  0  0  0  0  0  0  0  0  0  0  0
    8.1397    4.2269  -21.2942 C   0  0  0  0  0  0  0  0  0  0  0  0
    5.8882    3.9465  -22.2169 C   0  0  0  0  0  0  0  0  0  0  0  0
    5.3732    3.8761  -20.9100 C   0  0  0  0  0  0  0  0  0  0  0  0
    6.2296    3.9892  -19.8113 C   0  0  0  0  0  0  0  0  0  0  0  0
    7.2770    4.1150  -22.4064 C   0  0  0  0  0  0  0  0  0  0  0  0
    4.1246    3.6182  -19.1143 C   0  0  0  0  0  0  0  0  0  0  0  0
    7.3753    1.2354  -18.0350 C   0  0  0  0  0  0  0  0  0  0  0  0
    5.0904   -0.7126  -21.9879 C   0  0  0  0  0  0  0  0  0  0  0  0
    5.1677   -0.6382  -20.4616 C   0  0  0  0  0  0  0  0  0  0  0  0
    6.3559   -0.0913  -22.5997 C   0  0  0  0  0  0  0  0  0  0  0  0
    6.4402   -1.3605  -19.9314 C   0  0  0  0  0  0  0  0  0  0  0  0
    7.5993   -0.8894  -22.1673 C   0  0  0  0  0  0  0  0  0  0  0  0
    7.7873   -0.9348  -20.6299 C   0  0  0  0  0  0  0  0  0  0  0  0
    5.9836    1.2399  -17.3951 C   0  0  0  0  0  0  0  0  0  0  0  0
    8.4311    0.3965  -20.1238 C   0  0  0  0  0  0  0  0  0  0  0  0
    5.7058    2.4882  -16.5438 C   0  0  0  0  0  0  0  0  0  0  0  0
    5.9373    3.8222  -17.2901 C   0  0  0  0  0  0  0  0  0  0  0  0
    4.0860    3.6688  -20.4288 N   0  0  0  0  0  0  0  0  0  0  0  0
    5.4399    3.8169  -18.6960 N   0  0  0  0  0  0  0  0  0  0  0  0
    3.0283    3.3819  -18.2981 N   0  0  0  0  0  0  0  0  0  0  0  0
    7.4634    1.2152  -19.4160 N   0  0  0  0  0  0  0  0  0  0  0  0
    8.3787    1.1968  -17.3325 O   0  0  0  0  0  0  0  0  0  0  0  0
    7.9323    4.1838  -24.0203 Cl  0  0  0  0  0  0  0  0  0  0  0  0
    8.2656    4.2920  -19.1346 H   0  0  0  0  0  0  0  0  0  0  0  0
    9.2023    4.3475  -21.4450 H   0  0  0  0  0  0  0  0  0  0  0  0
    5.2272    3.8725  -23.0678 H   0  0  0  0  0  0  0  0  0  0  0  0
    5.0119   -1.7647  -22.2994 H   0  0  0  0  0  0  0  0  0  0  0  0
    4.2058   -0.1598  -22.3369 H   0  0  0  0  0  0  0  0  0  0  0  0
    5.1989    0.4175  -20.1541 H   0  0  0  0  0  0  0  0  0  0  0  0
    4.2762   -1.1189  -20.0325 H   0  0  0  0  0  0  0  0  0  0  0  0
    6.2758   -0.1085  -23.6966 H   0  0  0  0  0  0  0  0  0  0  0  0
    6.4534    0.9489  -22.2554 H   0  0  0  0  0  0  0  0  0  0  0  0
    6.5309   -1.1468  -18.8562 H   0  0  0  0  0  0  0  0  0  0  0  0
    6.3056   -2.4421  -20.0801 H   0  0  0  0  0  0  0  0  0  0  0  0
    7.5005   -1.9201  -22.5387 H   0  0  0  0  0  0  0  0  0  0  0  0
    8.4886   -0.4220  -22.6152 H   0  0  0  0  0  0  0  0  0  0  0  0
    8.5133   -1.7347  -20.4221 H   0  0  0  0  0  0  0  0  0  0  0  0
    5.2316    1.1902  -18.1963 H   0  0  0  0  0  0  0  0  0  0  0  0
    5.8931    0.3523  -16.7517 H   0  0  0  0  0  0  0  0  0  0  0  0
    9.2626    0.1569  -19.4446 H   0  0  0  0  0  0  0  0  0  0  0  0
    8.8139    0.9603  -20.9873 H   0  0  0  0  0  0  0  0  0  0  0  0
    4.6574    2.4546  -16.2124 H   0  0  0  0  0  0  0  0  0  0  0  0
    6.3686    2.4631  -15.6663 H   0  0  0  0  0  0  0  0  0  0  0  0
    5.4183    4.6218  -16.7412 H   0  0  0  0  0  0  0  0  0  0  0  0
    7.0176    4.0290  -17.3047 H   0  0  0  0  0  0  0  0  0  0  0  0
    2.2124    3.2574  -18.8627 H   0  0  0  0  0  0  0  0  0  0  0  0
    3.1878    2.5565  -17.7565 H   0  0  0  0  0  0  0  0  0  0  0  0
    6.8368    1.7862  -19.9464 H   0  0  0  0  0  0  0  0  0  0  0  0
  1  2  1  0  0  0  0
  1  5  2  0  0  0  0
  2  6  2  0  0  0  0
  3  4  2  0  0  0  0
  3  6  1  0  0  0  0
  4  5  1  0  0  0  0
  4 19  1  0  0  0  0
  5 20  1  0  0  0  0
  6 24  1  0  0  0  0
  7 19  2  0  0  0  0
  7 20  1  0  0  0  0
  7 21  1  0  0  0  0
  8 15  1  0  0  0  0
  8 22  1  0  0  0  0
  8 23  2  0  0  0  0
  9 10  1  0  0  0  0
  9 11  1  0  0  0  0
 10 12  1  0  0  0  0
 11 13  1  0  0  0  0
 12 14  1  0  0  0  0
 13 14  1  0  0  0  0
 14 16  1  0  0  0  0
 15 17  1  0  0  0  0
 16 22  1  0  0  0  0
 17 18  1  0  0  0  0
 18 20  1  0  0  0  0
  1 25  1  0  0  0  0
  2 26  1  0  0  0  0
  3 27  1  0  0  0  0
  9 28  1  0  0  0  0
  9 29  1  0  0  0  0
 10 30  1  0  0  0  0
 10 31  1  0  0  0  0
 11 32  1  0  0  0  0
 11 33  1  0  0  0  0
 12 34  1  0  0  0  0
 12 35  1  0  0  0  0
 13 36  1  0  0  0  0
 13 37  1  0  0  0  0
 14 38  1  0  0  0  0
 15 39  1  0  0  0  0
 15 40  1  0  0  0  0
 16 41  1  0  0  0  0
 16 42  1  0  0  0  0
 17 43  1  0  0  0  0
 17 44  1  0  0  0  0
 18 45  1  0  0  0  0
 18 46  1  0  0  0  0
 21 47  1  0  0  0  0
 21 48  1  0  0  0  0
 22 49  1  0  0  0  0
M  END
> <OMEGA_C>
S63zQJvMhUBS6p/BFzwCQaxCh0CcWqrBXWy8QAqUfEA3vLHBN/GrQOUReECrR6fB/FjHQD9Pf0B6
fZ7BV93oQL2tg0A8QLPByvyDQBmRZ0Aw6pjBcQLsQD4gnj/AR5DB8uSiQANvNr8j56/BzF2lQC1h
I79SsaPBIWPLQIjnur0hzLTBQhbOQDAmrr9tc5/Bii3zQPmtY7+wVrHBaTH5QONQb7/3CaXBpnm/
QLa1nj8dKYvB7+UGQbcGyz54/aDBjZW2QB0+H0CuWYTBXf69QIifdEAcUorBT8CCQNHNakAbbqPB
ihOuQJhHdEBfkZXBJc9BQM9wWECEYpLBV9TuQEKMmz/1U5vBPQ8GQZoxmT8KqYrBg9X9QIbhhUCq
KcDB3z8EQbBXiUCeE5nBeDwTQSAfi0Btj6vBkEWnQD7Wd0DVirjB12GgQCbg4b9FZbLB7pWGQBav
I777sbLBxl2mQJTA1T6VO6HBYdaIQMs2j799QqDBIdPIQAMk3r2tkr3B5oHOQITscj8ZC7LBbv3Q
QHTJkr9m2ZbBwsfJQFJLHMAKpKDB6QPwQKfE9b88T7TBfNEHQS8K2L7167TBWTYIQQIK3r9nYKPB
BmmnQJRZmD8NkpHBXJS8QNhetD6BA4bBdTMUQcahID6BjpvB3AUNQTHUdT/35afBYgmVQNUXHUAE
s4HB9svLQMmiHUBEqXrBEGOtQB3mk0Dp7YXBIZDgQJXtgEAYcIrBkJcNQEx5UEDo5pbBIQVMQLid
I0BnDY7BIMfaQO6h5D9Bkp/BFJ71QLJdeUC/IqDBusgCQSKagUAhlqrB3o28QBNUfkDssbHBCtus
QGrMc0A+OqfBjCDJQI7HckDuj57B1BDpQCVfg0A+V7PBWoyFQDJhZEB2upjBVIvoQH83lT8pY4zB
gjPAQHa8m70T/7jB9GWlQP+gpL/fH7XBDBvoQC9SZT6JB7LB1B6fQBjUor/v/KjBBJTxQBwZbL8J
QqrBCojKQOCblr8t1KLB/Hy8QC0Ktz/d8YbBsG7EQAS2ar28xJrB8nS3QEFTNUBTSILBZGTAQBtH
fUABcIrBOq+DQDZLaUBQPKPBTB2wQN2rbUAOh5XBGtlEQEmWWECfG5LBxEDrQHCznj7wB5XBeNcE
QepHzD+vc4jBpA79QALLikAlOsDB3J0FQSDldkDAZpnBvtATQc4GhEBR6qvBO8mmQIf1f0AUZ7jB
DQDLQAnZjr6QNsHBqYerQEt1UD/U9bjB89iFQK2CoL+QBLnBMf61QBCyDcDeY7fBfvYBQW1SvD7u
S7fBDFziQLhckj8Ha63BvTqLQAaAz7591qbBkbWOQC6sDMCml6bBmnr4QLYE67+1167B88UGQW7p
KL8sWKXBL7PPQADFB8DGgp7BGTqjQGK2oz/x84zBvXW4QHjkMz+Fa4DBT7C4QN2pVD9mDZ/BF12s
QN35wb6N4pTBq3eWQNtuPEBhsH7Bv+zNQHhNPEAkIXfBd2OxQLAgnEAYb4fBmEDjQHcjg0DK6IrB
m8MPQD5+VEAcjJbBrURMQMyZIkCh6Y3BOs0DQa7MXb0+VJfB4NzyQNAnekAaSqHBG5IAQaCUgECg
76vBRgC3QNJFfUBMRbLBQvaoQMQSdkCinqfB7J7GQOqMdEDbPZ/BgkHjQJtfgUDlabTBHMeDQCz8
aEBQwZjB5PHuQNKAhT+DOY7BuAWuQINPib/TsrPBdLbDQK7dC8DzKK3BbMfPQADjzb1YIbjBuhbd
QME/y7/XyqPBmsLpQOp2Bj87Da/Bdi//QLqdD7+p1KfBzpXAQO6lkD9KaIrBSgILQXBW7j0/Q57B
jmK2QDTeG0CffoTByP/AQDxqbUAO9YrB0FGAQLTCbkDiN6PBMvmuQDYPbUCR/ZXBRwpDQODyX0CX
ypHBpMzzQK1PUj+F4JjB1b0GQcbOlj/PLYjBeCr1QNNihUC6lcHBDMYEQW8XeUDFxZrBY3wRQc2p
gkCkn63BKiOgQH2ZfkBiv7jBlk2cQFL0wr8DZbrBfq+XQAJiBb8khq7BdxKrQHZbN8DsAarB1KXZ
QJ3JL8A9YLLBgYPlQDcTJr9cfL3BdJi/QC55Mj8ZpLzBHM/GQE/Zib+CV57BoG/tQBeSGcCAe5/B
PnMBQcaxlD+ihLLBiFbUQL7mkT/zF6rBrpMLQVLPjL+xnqzBdW6rQDb+hj9FapHBzVq6QJc8kz7O
94TBnkoSQZNRIr9A9ZjBCWYXQbDOUD/KDKHBzAOUQIyFHEDJmILBCgHJQFwtHUB5DnrBn/2zQPmC
kkCPpobBhgDkQMpJc0Ath4vBSm4MQDGRXkCk9ZXBclZJQLxmKUCEro3BLNXcQOKkmD9dl53BqhD1
QKPHgUD+UJ7BrNgDQb2dhEDQjKjBmPrAQAkXe0C3zbDBK6WuQPibdEBBkKbBEG/IQHaHeUAfbp3B
qqLtQFvxgkDcxrHBCq+DQBerZkCHupjB2gPhQOZBoD/5JovBTvrVQMe7DL8XgbXB+TGoQCUJG7/0
77DB2tn2QLDcfr2PJ63B0PWmQGIDwL/06abBOkz0QEHcaL8k16LB7hvGQEksfb+wRp7BurTZQPbK
/j+NvoDBchi2QG7VwT49XJrB/uSxQAcjOkAQrYHBkZ64QFb4gkDieInBfauEQDWaaEBNP6PBSv+s
QGrJc0DI05TBK/c9QFvhWkCTqpLBFaa+QMmcCj8bF4/B1uwAQZxytz/JUpDBYlgCQVDjh0CTa77B
+2MEQaFug0B5O5fBP/cUQfISiECUWKnBBxOtQBzWd0Df2rfB5SjfQNRXx7+QL7jBPl/WQEGbDj4H
XbzBUtadQAdD0j7cyK7BPHeSQJQzgr/6BrfBVJwLQSNVFb7Mi7DBUS7wQHNDfT9wLqvBcUiGQCwg
wL93pKPBoQOwQMeZIcBxK6nB3WX/QPbj9r8GpaTBFqMEQQ306r5Bw5zBMuvFQLO72L8zhJfBvZHU
QIWCoT/hjnTBqvz1QO2mJkC70H3BtIzGQAU3lj8q157BDWmTQMWN5j7uvpvBg8WWQOySE0BHi4TB
J3WqQMHyU0DMZ3PB4u+kQEjwnUA6r4bBxpzaQBMOjECCOYnBoooLQOwwVECChZfBQ1lEQB9KJkB7
LY7BzpiqQHrj7j0F3YnBxJ30QMorbUCH+J/BWEYCQSJVckA1f6rBJFy7QKZzdkDpebHBe6urQGQJ
cUCn9qbBhALIQISybEBjUZ7B2fHnQFRMd0CdOrPBNvqDQIQlaEDReZjBBgHnQKKLHz++P43BNZG4
QIDmx774A7XBZMu5QMxH4r/Jia/BliPlQIo1iD4k/7TBvHjMQPjQ078HNKTB34z2QLQZyz4YiKnB
CeX5QJTtf7+3f6TB/Bu4QJhUej/uIIvBpIkHQQQpbb84UpnBvm6xQFxLEEChaoTBc5e+QAAeZEB2
HYrBkEOCQKbobUDw9KLB17uuQIt6aED3TZXBhyBBQIGkYUDk1ZHB8JzuQD7JIb86SpHBgDoCQZ5g
tD+8sIvBur37QJHnfECtQcDB/SYFQfyfaUAyQpnBBVQTQT9+ckAu5KvBmHylQNPueUDBJrjBHMat
QKbHA78TVb3BSQKiQD/whD46tLDBiBOZQNbNCsBfC6/BStLNQGTBHMAgTLTByzv7QDN+tL7ku7nB
Y8ziQPQxoj+NmLjBkxy3QEaHhL9TRJ/BavXOQLI/KsCkr6DBczMLQeM9XT9NvKnBFbfgQMF2gj/A
wKTBkSwHQQRDz79Gq6nBqhyoQAYzjz/J4pLBrzSpQK+bCz6224bBnyUPQcAJ8r9feJfBgLYTQfdC
B749SpnBbkyPQOjJFECOV4LB3H7EQGtiCkCCHHrB0mexQAJMjUDPnoXBSLrhQGtLaED1NIrBrMkL
QHQLYkCbQZbBV01EQDkCK0AQsI3Bo83cQDfSsb9Ajo7BtRz0QHtwg0A7gZ/BqnMCQTNxh0AO66nB
LPu8QKF5f0C2cLHB7XesQHgBd0DsB6fBkbbHQCtwe0C8KZ7BylDpQCAGhkCP3bLB8cCDQKypZ0D+
zZjB3XPLQN0cgj8Lgo7BTHyoQCYthr8zu7LBbRKhQF8Wcr+UpKbBPfnQQDMQjL6uGLbBF/PIQOEd
u7/XiKDBhMb4QLs3Qr9y06/BpF/yQEN2ML/GkqPBbz/OQLLzzD++WoPBWXfxQKt4Sj/QJ6DBy9mw
QJ9ANUDJMILBmTG8QNl6f0B484nBWiKDQE9KakA8UaPBItitQGsZc0AgSJXB618/QAZjW0B9hZLB
77TwQN/KdD9bjJTBoAWoQPuIUj/saZLB6AL+QFmqjEB9t7/BIIMEQY+9hEA/opjBAnQTQYeZi0DU
D6vB5+unQFNifECqR7jBaEqsQHrWBsAD7bTBaKWMQHTqIL8W8bbBcTSbQN+x1j3Be6TBlxiFQFjR
xr8gbqTBzn3WQO4y2r6Rs77BJBLMQA8oTD8+grTBqFbDQExdrL9o5ZfBvoLNQGWzIcCtbaLBUHv/
QDKO5r+vE7LBbBsKQWfgAL6+AbLB290GQcENl79tq5/BSnnEQJQ8Vj98CHvB5n7vQO+X8z99xIHB
oRQHQQEKpT9pVKPBP7HUQJmboT9RiqPBJLaPQLUoIUADxYPBvGazQJUiTUDA33PB6TWtQLwknUCy
44bBmC/fQPiOg0Cw+InB7fULQOYWVUBXOJfBs6tGQO5vJkAPH47BrlkGQUjngz/kt5DBsmzzQAp2
gkBa8J/BTzUCQacXgkBwXarB1128QApmckDqv7HB8ayrQEbdcUDHTKfB6fLGQPyoe0Dag57BveLo
QCTJe0BGQ7PBJ0qDQCjLaECJ6pjBXijcQDQx4T79FYnBqSnjQFZldr8uFLXB7V/6QMAxibxqX63B
Fp2yQGrGQr+RL7TBveTsQHR+l75s16HBxZWjQO8Ljb9B5KjBDkm7QEzWjr5sT6DBTavlQE229j8P
oIjBWemuQJ54Z78bbpXBTia/QH0tMEDgZITBpzu7QBXigkC6VIrBUVqCQNyGZkCyb6PBmf6sQEik
eUBCm5XBaWtAQBK5XECgSJLBfGO0QBAklz0aA43BqF36QMSHr763S4nBvxD+QHSqfEBlKsDBPx8E
QUBAhkCkG5nBREITQYsFhUDXj6vBYFKnQMOwa0A2jbjBVXDtQLD8P79sUr3BHSLrQK01AMAzC7PB
+o4OQTuyKb52Iq7BxlXyQOb3gj8xa6/BVsOqQPqRkz4z9rXBnFWiQFlftb9h9bnBkwj5QDCopL9c
gp/BBRH7QIbp8T6+opzBBhqBQEXuZL9wSqjBJ2KpQK3wCsCHaKfB1PivQOgaQz9kk6DB/5YAQTvE
BUC3SoPB/KrtQEm5EUDhuZDBRUeNQDAUnb/drpXBkorDQIjr4r8q1ZPBgpOhQHMsC0DvkYXB+bjD
QEy/PEBcn3fBqMijQFYbl0B2JYbBAZzaQJLWkkB3VIrBcU4MQJcNUkBiu5bBYudKQERgKkCRhY3B
E1eaQKQWAT9o5InBrFf2QKdPf0ClqZ/BM1YDQeHyhEAhFqrBGzG+QHUZgED9bLHByiGuQPNSdUD/
BafBldfJQHUmdkBAPZ7BYorqQGq1hUDO77LBg9OFQH3zY0BWx5jB9iTkQOG3MD+N9IvBFEYQQRIB
pT5+KrTByDryQDjEmz1cc7DB4pkfQdHMPL9SlK/BXervQNBiVz0CMqTBsIkeQY3VP7/iX6PBkosH
QRqrg79SnZ/B5Cm2QCrAkD+XjIrBMWUIQRuYkL83SJPBJoqxQCuFG0BADITBqTy/QOkmbUB5GYrB
j9WEQDPHaEDFQ6PBxB2wQBlKbUClXZXB3GVEQGMnVUAbapLBpeTpQJhPJL8/ZY7BD/YAQbr4vj+v
RozB9ID+QDAajkBnyb/BK9EFQZM7fkDB25jBYVoUQT9tiEAoUKvBy8SoQIP4f0CYNLjBRdkQQdX3
jz6E9LzBVWoVQSaqqD9YcbHBQZbdQEijYT8CgLPBXBjnQKXdY7/fmrPBRwcbQfU+3b+Yo7LBjQsw
QTVKAb/zGrLB7/z4QCIwhT9qD6HBhQPPQMh4PL6otKHBiTUpQYRjxL84SaDBJ7gjQQNtaj7GS6DB
FZwCQUVyAMC7yqLBwhSoQBVDpT//gpLBU5ikQP2/qT4VZYbBSrAKQUizC8D0A5HBffUVQXxTCL9G
WJDBbcKPQP2EIkDNu4HBCGbFQKnYFUAxonnBl8mxQBqakkCc+IXBzmDiQK40cUCTDorBnpUQQGvx
TkC/C5fBFxBNQPBzH0AGM47BOnPSQKYhpb8vvIzBqxX2QHIXg0Ah1J7BhhAEQaB9hUDnI6nBbzzB
QB5ad0AEHLHBy3KvQJA4ckDAyqbBDZ7JQEKYeUA+w53BAbvtQOfXgUCuRLLBMFCFQNzJY0DPyZjB
yiTeQBVsjz+qF5HBhH4zQYJvEsDTnpjBdm4wQQ/B9r8wiKTBmModQX4eHMBq7ZLBxLciQX6rKb8k
4KXBIloQQXl0lb8uTZTBDNwMQcbuVL9bXaDBO921QJPPlD+YS4rBnCwAQeRR8D5VUaLBaayyQB75
HEB5e4PBw3K8QB58cUDpnonBCriFQMJaZUDzTqPB8dCuQNpDcEDADpXBvJ1CQCrzVUBWiZLBWVTb
QJqCEz8gSpvB+8b/QOwDyz8yo43BVhYCQV0vhUAOBb/BOAsFQVgKhkBT0pfBjRYVQWsfikAWEarB
agStQDHmcUBUFbjBalE8QXcsT8AyC5jBobg8QYfMvr9XsJTB0DVAQWiP4L/iLKjBMnsoQTkNMcDy
m6jBBBwVQYLAUsC3YpbByIcgQReUJ8B8WorBHiYrQQ6RRD43SKLBfDEgQS2q8r7ac67B8LAAQaub
qL/3d5DBZasYQdpkp76KcJDB2kgEQa+J1b+VJKTB6NmZQE0Ujj94m4/BsuW1QEp+lj555YTBu8gK
QeQIqj/s4KDBBVL1QD4f+D58rKrBPfSRQKs7IUAESIDBNYrJQBKUF0DxpnnBCa+rQDkck0CLkYXB
+ynfQETlfECzVYnBy60PQCllTUCrQpfBBGdLQN/RIUAAB47BoPa+QMnZfD5B5J3B6wX2QNP9gkDc
9Z7B9u0DQXD1hECJT6nBeaDAQFaVeEAaKbHBaBavQMDHc0D/0KbBK3rJQJihekBV0Z3BJSntQJTE
gUCzZbLBQEyFQFj5Y0DrxpjBD/HgQOlilj+8hZHBZrcjQWiJSsBpjZ7BKPIKQaaDR8A/FZ7B0kAu
QVlG8r9g1pnB1FgCQfUX6784UaPBTGAlQYKSIb9gQp/BdQ8NQT5UIL/s953Bw4i3QMUhjj/6P4vB
4Y0DQaBvLD+pUqLB0TKyQAqLFkCMBoTB16u8QA4JbUC6p4nBx3OFQFa9ZkAJSqPBjd2uQPDyb0Ca
FJXB7+5CQBYaVUCBgJLB0sjfQMh6ZT+2aJzBWDEBQfDFvj8wAY3BLZ4BQY3VhEAsMr/BZh4FQWLM
hUDa/JfBwfsUQbjoiEAWS6rBayusQNDsc0CSGbjB00YpQb43gcBo+5nBaqsoQQEUUcD/9KbBFnAE
QcFkf8A8VaLBXM8FQZlVScBJq5XBUukqQbog7L+/NJHBXKU/Qcl0+L+bIJvBZBkGQULq678w6qvB
5dDhQCnQ479kOKLBWjUsQQ9Thz4hdZvBF4opQQhyI78wz6fBUXsJQV4/LL8/XJXBgYWcQBj1hz8A
4ZDBaba3QB6XVD7zOIbBZbkOQUQWwT9aC6HBnCIAQd4pEz9H66rBaNKQQMTYGECxPoHBE6zHQB6D
D0B8N3rBAVqsQARlkECDTYXBTnnfQLZBd0BCVInBP9MPQEPcTECsNJfBBiZMQGSAIEC5F47BOaTD
QG9iWT+pMqDB

> <OMEGA_E>
OHVLPkgoqD4wRrg+3Mq8PgDM2D740Ns+hBkAP56NJD98qzI/IL4rPw==

> <OMEGA_NBR>
     73420

$$$$
50164876
  -OEChem-04172616093D

 48 49  0     1  0  0  0  0  0999 V2000
    7.6727    4.0769  -19.9100 C   0  0  0  0  0  0  0  0  0  0  0  0
    8.2102    4.1727  -21.2079 C   0  0  0  0  0  0  0  0  0  0  0  0
    5.9671    3.9478  -22.1634 C   0  0  0  0  0  0  0  0  0  0  0  0
    5.4371    3.8615  -20.8652 C   0  0  0  0  0  0  0  0  0  0  0  0
    6.2870    3.8766  -19.7554 C   0  0  0  0  0  0  0  0  0  0  0  0
    7.3622    4.0666  -22.3329 C   0  0  0  0  0  0  0  0  0  0  0  0
    4.1623    3.5274  -19.1057 C   0  0  0  0  0  0  0  0  0  0  0  0
    7.1050    1.2005  -17.7184 C   0  0  0  0  0  0  0  0  0  0  0  0
    6.2946    6.3249  -16.7940 C   0  0  0  0  0  0  0  0  0  0  0  0
    4.1471    6.2319  -15.4489 C   0  0  0  0  0  0  0  0  0  0  0  0
    6.5357   -0.8924  -20.7570 C   0  0  0  0  0  0  0  0  0  0  0  0
    8.6834    0.3364  -20.3065 C   0  0  0  0  0  0  0  0  0  0  0  0
    6.0579    1.8948  -16.8879 C   0  0  0  0  0  0  0  0  0  0  0  0
    5.1957    4.1069  -16.2029 C   0  0  0  0  0  0  0  0  0  0  0  0
    4.9572    5.5812  -16.5764 C   0  0  0  0  0  0  0  0  0  0  0  0
    6.0142    3.3759  -17.2670 C   0  0  2  0  0  0  0  0  0  0  0  0
    7.4724   -0.3676  -19.6569 C   0  0  0  0  0  0  0  0  0  0  0  0
    4.1387    3.6979  -20.4087 N   0  0  0  0  0  0  0  0  0  0  0  0
    5.4907    3.6072  -18.6624 N   0  0  0  0  0  0  0  0  0  0  0  0
    3.0213    3.3347  -18.3393 N   0  0  0  0  0  0  0  0  0  0  0  0
    6.6650    0.5361  -18.8461 N   0  0  0  0  0  0  0  0  0  0  0  0
    8.2927    1.3836  -17.4736 O   0  0  0  0  0  0  0  0  0  0  0  0
    8.0453    4.0255  -23.9360 Cl  0  0  0  0  0  0  0  0  0  0  0  0
    8.3142    4.1560  -19.0447 H   0  0  0  0  0  0  0  0  0  0  0  0
    9.2704    4.3272  -21.3435 H   0  0  0  0  0  0  0  0  0  0  0  0
    5.3132    3.9234  -23.0226 H   0  0  0  0  0  0  0  0  0  0  0  0
    6.8564    5.8403  -17.6061 H   0  0  0  0  0  0  0  0  0  0  0  0
    6.0922    7.3722  -17.0626 H   0  0  0  0  0  0  0  0  0  0  0  0
    6.8873    6.2919  -15.8679 H   0  0  0  0  0  0  0  0  0  0  0  0
    3.2019    5.6859  -15.3136 H   0  0  0  0  0  0  0  0  0  0  0  0
    4.7268    6.1984  -14.5146 H   0  0  0  0  0  0  0  0  0  0  0  0
    3.9317    7.2787  -15.7094 H   0  0  0  0  0  0  0  0  0  0  0  0
    5.6724   -1.3943  -20.2957 H   0  0  0  0  0  0  0  0  0  0  0  0
    6.1847   -0.0506  -21.3720 H   0  0  0  0  0  0  0  0  0  0  0  0
    7.0798   -1.6079  -21.3911 H   0  0  0  0  0  0  0  0  0  0  0  0
    9.3546    0.7125  -19.5204 H   0  0  0  0  0  0  0  0  0  0  0  0
    9.2267   -0.3795  -20.9408 H   0  0  0  0  0  0  0  0  0  0  0  0
    8.3317    1.1778  -20.9216 H   0  0  0  0  0  0  0  0  0  0  0  0
    5.0755    1.4376  -17.0776 H   0  0  0  0  0  0  0  0  0  0  0  0
    6.3088    1.7953  -15.8216 H   0  0  0  0  0  0  0  0  0  0  0  0
    5.7374    4.0652  -15.2465 H   0  0  0  0  0  0  0  0  0  0  0  0
    4.2228    3.6051  -16.0955 H   0  0  0  0  0  0  0  0  0  0  0  0
    4.3724    5.6229  -17.5071 H   0  0  0  0  0  0  0  0  0  0  0  0
    7.0429    3.7630  -17.2222 H   0  0  0  0  0  0  0  0  0  0  0  0
    7.8284   -1.2127  -19.0493 H   0  0  0  0  0  0  0  0  0  0  0  0
    2.2154    3.3484  -18.9312 H   0  0  0  0  0  0  0  0  0  0  0  0
    3.0778    2.4514  -17.8738 H   0  0  0  0  0  0  0  0  0  0  0  0
    5.7178    0.6866  -19.1290 H   0  0  0  0  0  0  0  0  0  0  0  0
  1  2  2  0  0  0  0
  1  5  1  0  0  0  0
  2  6  1  0  0  0  0
  3  4  1  0  0  0  0
  3  6  2  0  0  0  0
  4  5  2  0  0  0  0
  4 18  1  0  0  0  0
  5 19  1  0  0  0  0
  6 23  1  0  0  0  0
  7 18  2  0  0  0  0
  7 19  1  0  0  0  0
  7 20  1  0  0  0  0
  8 13  1  0  0  0  0
  8 21  1  0  0  0  0
  8 22  2  0  0  0  0
  9 15  1  0  0  0  0
 10 15  1  0  0  0  0
 11 17  1  0  0  0  0
 12 17  1  0  0  0  0
 13 16  1  0  0  0  0
 14 15  1  0  0  0  0
 14 16  1  0  0  0  0
 16 19  1  0  0  0  0
 17 21  1  0  0  0  0
  1 24  1  0  0  0  0
  2 25  1  0  0  0  0
  3 26  1  0  0  0  0
  9 27  1  0  0  0  0
  9 28  1  0  0  0  0
  9 29  1  0  0  0  0
 10 30  1  0  0  0  0
 10 31  1  0  0  0  0
 10 32  1  0  0  0  0
 11 33  1  0  0  0  0
 11 34  1  0  0  0  0
 11 35  1  0  0  0  0
 12 36  1  0  0  0  0
 12 37  1  0  0  0  0
 12 38  1  0  0  0  0
 13 39  1  0  0  0  0
 13 40  1  0  0  0  0
 14 41  1  0  0  0  0
 14 42  1  0  0  0  0
 15 43  1  0  0  0  0
 16 44  1  0  0  0  0
 17 45  1  0  0  0  0
 20 46  1  0  0  0  0
 20 47  1  0  0  0  0
 21 48  1  0  0  0  0
M  END
> <OMEGA_C>
74b1QBp2gkClR5/B3lwDQYyGhUDeqanBv/K+QFKofECpTrHBCv2tQD4id0Dd66bB3i7JQAkaeEAE
C57BH5frQM8hgkC4qbLB4jGFQEzBYUBp2JjB5FvjQGKrmT9Kv43Br23JQPBlykAbWobBLrWEQAps
x0C5LnfBdCTRQPB2ZL9hDqbBRO8KQZA8rD7Fc6LB6dnBQGSH8j98GofBf0OmQGhrg0Cgn4HBFaGe
QEqZskB0nITBoHTAQB0PWEC6IorBlx3vQKA5vL5aQZ3BKnCEQLaqbEAFRaPB3LOvQC3cZkCyTJXB
2lxBQPBqVUDmtpLB6UfVQJA7CT/AxJbB3K4EQVobsT/ayYvBdLkAQaXQgEDvfL/BBAcFQdP9hECj
W5jBu1MUQRd4ikBlv6rBcwWqQGgYe0AxLrjBlGfbQG/jukBM2YzBEvPCQHPp60BCgIjBl2TcQJhX
yUDY4n3BIutMQOrytUBZBHXB4EGXQF9ZxkD4O2jBtKB7QDrr6ECjWXvBSIS1QPl3sr+AXaLBVenF
QJBST73I+arBi43iQE/Qzb/+IKvBkawVQQtnNj/DKZzBraATQSlQwr63hqfBk04FQbDBlj+BX6fB
b2qiQAcDuD/snojB1eHJQBXN5T8mJX3B0Zi3QDYWgkB88XPBBCGHQFW5ZkCMw4DBl+qLQN7us0Ci
DozBm1/hQI3UcEAbx4nBUYL6QCo4m78CZZjB+cgNQHlMVkAXc5fB4fpEQKXjHECe/Y7B8fe2QPbB
Lz8wCJnBv9T0QEiEhECnsp/BItQCQXy2iEDdEqrBV+K9QEfwfkA3o7HBOTetQKumd0B/P6fB/bfI
QORUeUCcdZ7Bm2HqQMrehEDYB7PBAx2FQCezYUDSC5nBEVrlQO4QkT9uwI3BzqSnQIQZn0AEZmDB
NFbiQJrztUDw3XnBgMTcQBTPZ7/TsabBLl4OQVQLBD9YPKLB143BQMHL6j8c4IfBYYunQO6jg0DY
voLBLoHEQDTLkEAQ6XLBhxnBQGPEVEDF9YrBL+D3QEg5qL5fh53BgMSDQPQ3bEAIeaPBotCvQCiN
ZUCUx5XBFL1CQDt/VUDXnJLBHpzaQGBu8D7VDpfBhEcFQaKnpz8A9IrB6+7/QLCMhUDh37/B5bEE
QWtEh0B3yZjBTa8TQZvcjkCUMavBOOKoQM5OfEDZfbjB2a+SQKB4hEB/olvBFpS7QKe1qEA8tlLB
EfeTQHxkukBikWXB/9T2QGhBq0DHkYPBANzOQGFS0UC6H3/BBXn2QIyjv0CURGzBvX/CQHrrwL9D
W6PBIm/PQI/Np71qe6vBhfnwQNgjxb+4zqvBnRUYQaXxbT/hr5vBLHUYQSGq9L27WafB+68HQV1c
qz9tBqfBHseiQDMdsD9kEIrBoJLGQB513j8pZn7BvkONQLdOX0CIY3/BfkSaQJR5oEBCjIbBVAPY
QIedakAm1m3BJVXiQGfga0CIsorBMaoCQa2Wk7/BxZjBKfwNQKIJVkBFJJfBUG1HQPQoHUDB3I7B
Z0+8QLS7Cj+pkJnBEun1QG5kbUDEj5/BGGYDQUrSfEBt26nBFVS+QL33hEBKFrHBk7CtQBIcekB5
z6bBPyXJQF4VbEAxHZ7BMAzrQC6bhUDomrLBBmGEQGxVYkCG35jB53bqQMZMgz+jvY7BxNTGQNKf
KUAWw2HBihySQFG4kEAGe13BZ18DQRXq+r/4/5vB+SACQaCBQr3CVanBkqjBQLJdxz/leonBqZef
QIL9akDXYIHBlHO0QEDyekAGd2zB3DS+QGTaRkB+L4rB7WUEQfT83L6ddp3BcPGDQDrNc0AXKaPB
LvWuQPDtXkALTJXB6MA+QLgcVkBt65LBR5TlQFhJPD6heZfBhesGQZmsrz+WeYvB+QgAQfJgj0BG
Ur/B34YFQROyYkD025jB0oIUQSCifUDNDavBlwmpQFaAikAvwLfBTl7fQJ87DUAaMmzB10PVQIy0
OkDGSVLBpe2sQEIr9j/5Ll/B9J+EQG26rUDO0mTB8e9wQDRPckBS7FrBK86gQBD3mEAfB07BugcF
QXpADcDgdpPBKNTnQBBZFcCc9p7Bx3AQQb2hG8Cnh6DBuekCQVz4hT9rJ6rBRzAPQSatAb+e863B
KFPlQOQU0b6TYqzBdM+lQO94jj9HhY3B1aDBQBCeoT+RAIHBUEWFQDEMPUBbTYDBJ6mSQK4glEAz
RITBS3HOQH/llEBRZG7BWzzeQKAuYkBe5ojBWNoTQTQ7g70dc5rBXJ0LQFi4XECKqJfBPh4/QEFP
G0ASw4/BYr/HQFUQm7xc35nBtrv1QCb9g0C3ZZ/BDHgDQTdPh0CSu6nBgXm/QNVkekDuaLHB8Wmu
QFZ5dECTB6fBWW7JQKe2ekBKLp7BdunrQEiqg0AGurLBQb6FQIqkY0CdyJjBFT7eQNWluj+kZI3B
sOGWQDAZ4UArs3rBzzOzQPRo1UAs4Y/B4dTZQBYLur/nNZbBk1DFQEjPlL6LUKfBK4XCQDw0E0CB
5oXB+laoQJqmlUDzloLBNBG1QOhaxUB+J4TBhy3BQPBlb0AxIIrBKs7dQBARIL5esJzBuw2FQGYi
Z0DsTKPBxeKvQKsncUAZUpXBloRDQNleVEC2jZLB4a3KQDTgZz/JVJbB45MCQddStD/qIIzBO+QA
QYnthkBDg7/BdRoFQdZ8hkD1dpjBVGgUQYCljEDxzKrBpdOqQJYbdUCITrjBNc2XQEIj1kAv+2nB
dTOhQEdbAUGUgXvBvBVsQM9M3kC0cIDBI6TIQGLkwUC53pTB8TySQPCp0kBx45LBiWW9QK8T90CH
M5DBN2rrQEOtrL8Poo7B+OK3QLyd079HhJTBOFbnQNR2EsCM1prBOlPIQKyZJD8q6KvBEMfSQFzH
j79A+qvB0FOjQLvd+b77p6XBzuahQMmi8T8spoXB/1DQQJGHEkAenHvBFhavQNBijEDPiXTB2eaF
QA8rkkBuMITBPezVQKaoyUB2L4HBEmHiQC9Vg0AYa4rBmLv/QGMHYj3wT57BZYAQQBXNTEBaSpfB
sG1MQKBJH0DAOY7Be/6tQP2yoD+AgpjBLID1QE6Yg0DEWKDBY6gCQbJIh0Ds06rB1Zm8QFM2f0DW
5rHBNvesQPNKeECFYqfB3EXJQC1Fe0AdwJ7Bx/3oQMjHhEAVmbPBkUOGQO+RY0Cr4JjBJ2nfQF1L
sD91II3BkuGkQMLK30AHTnnBJIm7QI8l1EDKrI/BQs8JQRBARj5KEqDBKz/UQGBqqb9hw5vBtJ7B
QIrPDUC6QYbB9NWsQGYzlEDs34LBcF++QCVRwkB+I4TB4grDQMUHakDoj4rBIn3iQGBrtT0n4p7B
FxGEQCMTa0BxWaPB4dewQD5Fb0A6spXBdZxGQGUIUkBEYpLBr5nPQFS1gD/LGZfBY8cCQVq+qj/e
2orBoTT9QCpHh0Bqk8DBGn8FQcFOhUAgmJnBx48TQTQIjEDkK6zB/uCmQFSjfEAznbjBLaWmQDt2
00Dx12jBGHqyQN8eAEHl3HnBjkGDQMnL4EB3fH7B/6/NQLlLv0BVH5XBjtaZQD4w1UCCNJLBGA/J
QDSi9EC55I/BxCoOQatonD+JT6LBPnoRQXyshb0TbZjBRUQPQRJhAL+GUqbBkC+xQPTarL8QA5vB
c3TeQExIAsBE96HBZeDiQNa6zL/REZTBws6gQC9P6T+wxIbByFzMQMmHDECVwXvBn0WyQDF2iUDZ
NXXBeEuKQGtLlEDGkYTBex7gQKaSwkD3ooHBw+nkQHrdfEA0AYvBDojUQJ23nT7cxKbBKBQSQChJ
TECD5ZbBpcdQQN9gG0CPa47BZLizQHmntT/1NpnBYG71QJjcg0A2TJ/BEHoDQVq0hkDMm6nBeJG/
QOncekDnZLHB9zOuQIKbdUCICKfBQx/JQIIxekCFJZ7BWDPsQLLHgkDepLLBPVmFQAHOYkCX2ZjB
TsvhQOberT8hAI7Bz1alQIBR0UDo1I3BrpvmQByExUALNILBxh/aQEw5wb/qLZbBzH3VQDBAyb7A
PajBFqvBQCGkBEBk4IbBXZaqQIaKjUD/9oHBRcy1QDOvvUBcO4PB3S/BQOhgYkBFRIrB9MnmQOB9
jL4zyJzB7aaEQHCVaUDvWKPBwqmvQIZLbEA8W5XB6odCQB/OVED7nJLBzBbTQABcXj/3p5fBLg0E
QSwlsD9O1YvBJmEBQXK8g0AEYr/B2dUEQRPThkBnVZjBknAUQfnji0AOoKrBoQOrQHrEdkA2UrjB
HbSCQN+7y0COjI7BN7CrQNTw80Cf3Y3BSPC1QA09wkBLnZTBFkDyQCaMt0BCVnXB7Tv3QG5utkA5
+4jB3PvsQDYi6ECMO4LB3brmQMxztL97AI7Bxwm3QBaSy78x5JXB34jnQJhoGsD165nBws3eQBty
/j7Z26zBWuLiQFNcpb90DazBQWOyQOh08L6wBajBrK6hQEXo0D+c6ofBAWPLQLl2/j8r5HzBbD20
QIsPg0AB1nPBRMyHQHGiiUDr4YLBoR+mQO3wzkDrRnnBg8DiQCx+d0B5g4rBPesEQc33Mr4j85zB
g/EOQFfiUECPUpfBlWFJQBsfHkC9i47BHTO6QHBOqD9PMpvBkhz1QPI8hEBSX5/BqGIDQe4Hh0BK
p6nBB1u/QLdCfECVfLHBktitQLV6dkBhJ6fBkLbIQM4oe0DQR57B6wjsQMxng0DLsbLBlAKFQE+5
YkBR+pjBNlbjQNlZrz/65Y3B0raoQM+kvUCTS2bBgUvtQHpdtEDt4XrBU33eQDgZwL+Ir5bB+WrY
QNBxq75jfqjBuBPDQKYZBkAb2obB5qynQI5sjkDSB4PBsaLDQDK+nUDqSnPB143AQHYhY0CBp4rB
37TpQMAYbL7BAp3BdT2EQMiiaUDaeKPBwUCvQDgCbEAqlZXBbd9CQEHbVEAbi5LBDfXUQAwGYT8a
nJfBaqsEQfZZqz8ubovBTVcBQWuohEA+aL/BoJ0EQUIlh0CaYpjBp18UQbzxi0ASpqrBMOOqQBqu
eEAZb7jBuieLQNzvrUCX2WDB5Cu7QCeNyEAfVljBeoygQLRK2UDmZHDBA2cAQfjFnUDlGoLB3PXk
QHIJ0EAbd4LBR5X/QOZLv0Bw32zBGQHrQKEktb87fY7B84S7QOKRz799apbBh+jsQHkBGMAhoJrB
05/gQNkxFD9n8azB3dHmQB9cmr+je6zBSW61QDes577/RajB5H2jQNojzz93k4fBl5XNQCv9A0An
6nzB4jiMQIv/eEAlqH/BhhacQBOBqkACeofBfxnMQCFBgkB+JWnBEJfhQPlme0Axz4rBylAGQROZ
wr3hL53Bn3wOQGn1UED6HJfB+VlKQPUyHkDjfI7BeWW7QKLTpj+PBZvB1zj2QMjJfkCXmZ7BoSkE
Qa5SgkAo5KjBewHBQBTSekBF5bDBMiyvQAUudUCBmabBJ6XJQL3cc0ANlp3BX9PtQIsVgECfB7LB
zPSEQPrYYEB6wpjBRNTiQGyyjz8NrI3BUxrIQFIPx0C+j4XB1F+DQOblw0C+rHXBzxgLQQjsHb97
Qp7BQWnOQDhxK7+bcafBOBzBQPSQ5T+Q3obBkAqkQArFf0D9QIHBPAydQEaCr0BJ+IPB3/6+QKtm
UkBVvonBBszrQOA8ET7sBaDBBDiFQAjjbEC4KqPBkj6vQO8GY0Ac/JTBBVY/QKo+VkA935LBjVHU
QKDUrj6cCpbBbAUEQazxwD9KF43BkU8CQawlfkDswb7Bph8FQXZPgUATk5fBrjsVQdBHhkD8y6nB
/5isQOEOe0BF3rfB0PrZQJb1t0CgIozBCfXBQNXQ6EDohofBWQDbQO8qxUAMTnzBYNhJQLWyskBy
rnPBNuuVQJP9wUDpvmbBzL95QHmj5UCtfnnBFIkVQc1Y/7z78ZjBnL8HQSgFzL9YlJrB6x8TQRJa
RL+S/6XBPECwQHob/b0xq6jBfFreQATlUb9pMq/B35nHQKHK0r8ux6PBgtOhQCrBqT+YYojBLGzJ
QBNQ1z/HunzBJIa0QAQte0C9/3LBSLaEQDL3X0ANt4DBuV+KQHjEsUB2aIvBnbjfQBbpa0CsKYnB
x8HyQEVljj/Cx6PBLsIMQMdNWUBWwpfBGmZAQGw9HUDcPI/BGAm4QL0N670cN5XBlPf0QMCQhkAz
0aDBRc8BQRqpjEC7V6vBDtO6QAgUgkA1ILLBGGGsQC9DeEBXlqfBNmLJQNviekAXF5/BDLTmQNe/
iUAN/rPBwueGQANHYUCe9JjBDEfeQMpSqj9QcIzByNGpQP7p4kBG/nvBzBGiQLRT00AzhpHBqkvH
QGi4v775pabB5YMHQaRODT87o6HBUhDBQOxHEEBtGYbBOhmvQCZzlkC9m4PBxtK4QMY6xUBtD4fB
HCnEQAyDakBT94rB0q/lQGBKx72wNZ3BDuWDQBdQaUA+ZqPBmsaxQFP3a0Cx/5XBlZlIQMKKUkBj
PZLBHiLOQMoDRT+DxZXBaj4CQfdbpj9uP4rBnGj5QDZDj0A3DMHBkGoFQSLZiECQJprBHHwSQYuQ
k0CPz6zBTZWkQCTLgEAnu7jBnoS5QCCT2UDV8mzBsEiyQH8WAkFo5n/BoOmGQHM94EC0KXrB4Uis
QCSJvkBmJpjBF2x+QBHB0EDoe5DBHJWqQJuw9EBCWpPBO6+pQIIxVr99p6PB34+/QMxjEj90sqrB
Ze7WQD84h78UV6zB15YSQev6QT+6/5rBGyoPQSqLCb5qWqfB2XoDQcA4vz/KtaXB292fQIVf8j/A
k4bBKUfLQBTwEUBrXHvBGA67QC2okUBo1nbBfD+MQBmKkUCIwoPBMJbbQMLayEB3GojBnlPmQCHJ
ekCVjYvBeuLtQCEwhr+USpnBovASQOMuT0BblJbB6z9RQI9hG0BrVI7BdayvQEuNeT/Ql5fBvYP0
QM5ph0B/tqDBG9EBQf4njUB+MqvBlCe7QETfgUCoKrLBeiusQO0IeUBLqafBENnIQFKBfEB5Hp/B
LyDnQACgiUCD6rPBwWmGQC5GYUBaGZnBcXjgQPjXmT802IzB+HDlQA/uhUCYqWrB7qy4QIZXyUAq
rGzBqv7SQJgpSL+oDqbBEyELQUjD7j6ia6HBBFu/QJrDA0A4NYfBF/ytQBb/kEApEITB6GfPQMl2
pkBStHnBgGvDQH1vYEDrZIvBDEXvQCgylL6UyZzBwXqDQNUKakAkiKPB0EqxQLBMaUDtNpbBsYpI
QOoIU0AwM5LB8AbUQHqjET+LMJbBAwcDQeh9oj/hEYrB+H36QG92jkA968DBpAMFQRz7iUBM+5nB
hH8SQSpClEAzlqzBiUelQJUUgEAu17jBtYr1QHVqWkAuQ3TBni39QICalkBRsWDB8EbNQAKtbUB7
U2DB/jSpQKAp4ECGnXfBaFCgQAKMukAzWGLBFjfQQAFQ2kAJtmLBuCy3QPQRqb8S0qLBkvPHQN8l
pD10xqrB4aPlQHCAur9xNavB+1EVQdBcUj9L1ZrB7mMUQS0tWL6clKbBxosFQSm9qT+fJabBrhef
QGtF1j+g6YjBmA7FQHiBAkAQDX3BxA6WQK+9gED8GH7BlB6eQHmGqUAF+YjByu7nQDaLtUAt6oHB
qbjlQCn3b0DvwovBrov6QNahk79bIJjBDh0SQKF4UEBzZZbBQTlRQLKdG0A0WY7BxuW1QDnCNT8L
o5jB

> <OMEGA_E>
3qAfP3zwHj9AcDA/UAwwP8BmKj82fCk/GKwnPxhcJj+IUiU/WDEkPw==

> <OMEGA_NBR>
     81991

$$$$
50164893
  -OEChem-04172616093D

 49 51  0     1  0  0  0  0  0999 V2000
    7.6109    4.0946  -20.0609 C   0  0  0  0  0  0  0  0  0  0  0  0
    8.0930    4.2524  -21.3750 C   0  0  0  0  0  0  0  0  0  0  0  0
    5.8062    4.1165  -22.2399 C   0  0  0  0  0  0  0  0  0  0  0  0
    5.3328    3.9487  -20.9271 C   0  0  0  0  0  0  0  0  0  0  0  0
    6.2265    3.9376  -19.8512 C   0  0  0  0  0  0  0  0  0  0  0  0
    7.1909    4.2673  -22.4624 C   0  0  0  0  0  0  0  0  0  0  0  0
    4.1234    3.6271  -19.1178 C   0  0  0  0  0  0  0  0  0  0  0  0
    7.5887    1.1236  -18.0403 C   0  0  0  0  0  0  0  0  0  0  0  0
    6.5631    0.1121  -22.1216 C   0  0  0  0  0  0  0  0  0  0  0  0
    5.3427   -0.7917  -22.0434 C   0  0  0  0  0  0  0  0  0  0  0  0
    6.9835   -1.6090  -20.4948 C   0  0  0  0  0  0  0  0  0  0  0  0
    7.6733   -0.8122  -21.6272 C   0  0  2  0  0  0  0  0  0  0  0  0
    6.1040    1.0586  -17.6962 C   0  0  0  0  0  0  0  0  0  0  0  0
    9.0022   -0.0656  -21.2669 C   0  0  0  0  0  0  0  0  0  0  0  0
    5.6878    2.1998  -16.7503 C   0  0  0  0  0  0  0  0  0  0  0  0
    5.9706    3.6031  -17.3368 C   0  0  0  0  0  0  0  0  0  0  0  0
    9.1550    0.3609  -19.7955 C   0  0  0  0  0  0  0  0  0  0  0  0
    4.0526    3.7593  -20.4237 N   0  0  0  0  0  0  0  0  0  0  0  0
    5.4559    3.7396  -18.7258 N   0  0  0  0  0  0  0  0  0  0  0  0
    3.0377    3.3920  -18.2872 N   0  0  0  0  0  0  0  0  0  0  0  0
    7.9402    1.0276  -19.3641 N   0  0  0  0  0  0  0  0  0  0  0  0
    5.5243   -1.5837  -20.8020 N   0  3  0  0  0  0  0  0  0  0  0  0
    8.4383    1.1765  -17.1584 O   0  0  0  0  0  0  0  0  0  0  0  0
    7.7889    4.4787  -24.0867 Cl  0  0  0  0  0  0  0  0  0  0  0  0
    8.2941    4.0940  -19.2244 H   0  0  0  0  0  0  0  0  0  0  0  0
    9.1528    4.3620  -21.5515 H   0  0  0  0  0  0  0  0  0  0  0  0
    5.1161    4.1299  -23.0705 H   0  0  0  0  0  0  0  0  0  0  0  0
    6.7492    0.4442  -23.1536 H   0  0  0  0  0  0  0  0  0  0  0  0
    6.4531    0.9900  -21.4681 H   0  0  0  0  0  0  0  0  0  0  0  0
    4.4219   -0.1925  -21.9874 H   0  0  0  0  0  0  0  0  0  0  0  0
    5.2964   -1.4541  -22.9203 H   0  0  0  0  0  0  0  0  0  0  0  0
    7.3522   -2.6452  -20.4776 H   0  0  0  0  0  0  0  0  0  0  0  0
    7.1771   -1.1347  -19.5214 H   0  0  0  0  0  0  0  0  0  0  0  0
    7.9053   -1.5204  -22.4364 H   0  0  0  0  0  0  0  0  0  0  0  0
    5.5193    1.1342  -18.6248 H   0  0  0  0  0  0  0  0  0  0  0  0
    5.8932    0.0959  -17.2075 H   0  0  0  0  0  0  0  0  0  0  0  0
    9.8414   -0.7327  -21.5135 H   0  0  0  0  0  0  0  0  0  0  0  0
    9.0592    0.8403  -21.8883 H   0  0  0  0  0  0  0  0  0  0  0  0
    4.6095    2.1140  -16.5503 H   0  0  0  0  0  0  0  0  0  0  0  0
    6.2450    2.0949  -15.8076 H   0  0  0  0  0  0  0  0  0  0  0  0
    5.4841    4.3582  -16.7019 H   0  0  0  0  0  0  0  0  0  0  0  0
    7.0573    3.7735  -17.3423 H   0  0  0  0  0  0  0  0  0  0  0  0
    9.3289   -0.5276  -19.1709 H   0  0  0  0  0  0  0  0  0  0  0  0
   10.0071    1.0498  -19.6986 H   0  0  0  0  0  0  0  0  0  0  0  0
    2.2030    3.3400  -18.8355 H   0  0  0  0  0  0  0  0  0  0  0  0
    3.1711    2.5285  -17.8008 H   0  0  0  0  0  0  0  0  0  0  0  0
    7.3389    1.4305  -20.0541 H   0  0  0  0  0  0  0  0  0  0  0  0
    5.0242   -1.1568  -20.0486 H   0  0  0  0  0  0  0  0  0  0  0  0
    5.1882   -2.5155  -20.9395 H   0  0  0  0  0  0  0  0  0  0  0  0
  1  2  1  0  0  0  0
  1  5  2  0  0  0  0
  2  6  2  0  0  0  0
  3  4  2  0  0  0  0
  3  6  1  0  0  0  0
  4  5  1  0  0  0  0
  4 18  1  0  0  0  0
  5 19  1  0  0  0  0
  6 24  1  0  0  0  0
  7 18  2  0  0  0  0
  7 19  1  0  0  0  0
  7 20  1  0  0  0  0
  8 13  1  0  0  0  0
  8 21  1  0  0  0  0
  8 23  2  0  0  0  0
  9 10  1  0  0  0  0
  9 12  1  0  0  0  0
 10 22  1  0  0  0  0
 11 12  1  0  0  0  0
 11 22  1  0  0  0  0
 12 14  1  0  0  0  0
 13 15  1  0  0  0  0
 14 17  1  0  0  0  0
 15 16  1  0  0  0  0
 16 19  1  0  0  0  0
 17 21  1  0  0  0  0
  1 25  1  0  0  0  0
  2 26  1  0  0  0  0
  3 27  1  0  0  0  0
  9 28  1  0  0  0  0
  9 29  1  0  0  0  0
 10 30  1  0  0  0  0
 10 31  1  0  0  0  0
 11 32  1  0  0  0  0
 11 33  1  0  0  0  0
 12 34  1  0  0  0  0
 13 35  1  0  0  0  0
 13 36  1  0  0  0  0
 14 37  1  0  0  0  0
 14 38  1  0  0  0  0
 15 39  1  0  0  0  0
 15 40  1  0  0  0  0
 16 41  1  0  0  0  0
 16 42  1  0  0  0  0
 17 43  1  0  0  0  0
 17 44  1  0  0  0  0
 20 45  1  0  0  0  0
 20 46  1  0  0  0  0
 21 47  1  0  0  0  0
 22 48  1  0  0  0  0
 22 49  1  0  0  0  0
M  CHG  1  22   1
M  END
> <OMEGA_C>
pIzzQPIGg0CsfKDBunwBQVQTiEASAKvBIsy5QHO6g0BF67HBKqaqQIe3fECaaqfBWj/HQK8BfEAq
z57BMRzmQM6NiEDssrPBAvODQPQhaEBV8ZjB8tbyQKzTjz90UpDB0gTSQEmM5T0J+bDBsfeqQBir
Sr/JWLDBo3jfQJfzzb9t9aPBDoz1QNjsT7+VBK3B4lPDQMJ/hz/DkY3BHQkQQZhOhr2iIqrBOgK2
QC7KDECFAIbByA6/QBKZZkDYsYrBtHoSQUHOuD5IXZ7BqK6BQN+YcEDQY6PBaJauQFdVb0BvzpXB
LGlCQBUWWUA8TJLB5xX+QGKIgz+r6ZrBzcawQNK2yr+YaqbBdAMHQWWYlj96RInBcD75QGFRj0B9
scDBhrQEQfABg0CQy5nBxXESQTSVi0CTaazB5rajQNonhEB2kLjBYPnXQAxx4z6ZOrnBc3/OQIZy
fT+ZvqvBkICNQJEdRb4+5q/BcXypQCkgur/HXLfBUUXrQBtLKcAf0qPBtKrlQM48kb/iK5zBMPj8
QBqbwr+4fbPB152wQKctkT+h/5TBQ5W8QF9cxD0GqYnBPHYdQUGSO7+YG6zBdvIQQUgfVz8yG6/B
CoGTQIpMB0AOZ4TBsNbHQE0TBkAO7HzBIH6vQJx2i0BxnYXBD9XhQF6BcUD3vIrB+kIVQdATB78L
XpnBDR0gQZ1ehj+4lp3B+f0MQCTDVUAnr5bB3fJKQPrSIUADaI7BYNjqQEEbtz/ZbqDBY8agQF0R
lL+IY6DBAwamQG79IMAghKfBbDv2QO6GgkAiV57BGXQEQZwZhkBaj6jBGV3CQFRpfEDT3LDBZfWv
QDPMdEBAo6bB+8TJQOjWd0BEgZ3BNgnvQI2vg0BQzrHBUCWFQJt9YkBJ1ZjBqE3vQFxtYT+NVY3B
jfW0QAAWqLtqoKTBYrqYQMLsYL80p6vBmsziQKkTqr/TGa/BUK/eQFSGtT2GDavBxMe/QG7Hhj+m
N4rBZ/wDQcgoGz86aKXB4I20QH48FEAFtIPBg1e8QN+FakARgonBLbgMQdijXb6o5ZvBg++FQLyY
aECBVaPB2ruuQEKaa0Ba8ZTBDDdBQEt1VEA2yZLBLDX6QDRYfb5FNZPB2JC2QFCV2L8jRLLB0jQF
QWjv2z9FBovBYS0DQcjsh0Aqb77Br+EEQVDThEBOPJfBG4MVQQywikAnU6nBd3+uQPLkeUDw7LfB
ZqSmQJdDfT9AeKPBlHe6QJ2M877jypzBoYOEQJYLxL8msabBYlCEQLl1gr7IzLDBUYz4QBggsL+F
ArbBj5XuQJR1/78IwajBQLfYQNcEPj/B+LHB0+usQC8Eij8gpZHBPWG2QPxFNT7ycIXBIbEQQTQc
Jz8nfKvBBpcAQSZNzz/Lb6LBP3SSQHfKEEBAkIHBGAnIQG/KE0CBv3jBl36qQBFVjkB/PIXBnsje
QIfQeECtLYnB8PwPQSBNn7/ckJ7B654bQXhDeT4CAJnBM4EOQKXHT0ChoZfBZL1HQJwmHkDmoY7B
8xnsQBvtjr+YapHBn4WxQGuXKsAG8LDBYQ6yQH4Bv7/4BbrBoNHyQKo1hEDKMaHBiKoAQSzBhkDw
1qvBkse3QFqmfUAASrLBjZOpQJ6Pd0AHpafBIdbGQO57fEAXNJ/Bx9LjQD8uhEDWX7TBAEaEQCrA
aEBW1JjBWATzQGgDlj8FO47BIMfEQAynDb/YIqXBCk2oQKJBmb8xrK3BVcLvQA6Itr9WUbPBfdjw
QPSXxb7TlqrBzpPDQAxlmT/sOYvBpAgMQQ4nGr9WKqPBhpi3QLx2HUCS2oTBpN3AQEnPcUDD6YrB
LjkSQdeNND9hgJ3BthOBQOAUbEBpT6PBtSuvQI9WckDZ+5XBkBhEQFZzXED67pHBmvf9QHHipD8T
2JjBNI3DQJyurb9eRbfBrksHQea6lz/8RIfBWs31QMgLiEBwi8HB95EEQTXNhkBZoZrBv4QRQQCt
ikCjeq3Bvy2hQLYoekCWz7jBvtu3QFgi2T7XtqLBal/HQBxTmr+NFJ7BybecQLJWC8AX6qrB09KM
QAwoDL8DeK/BxFYDQShTl7+qtLnBSPP2QDM1G8DLGrDBjc3yQCD6HT8vK67BamOwQKLIlT+omZLB
+lS8QCosoD6WVIbB3QkIQdg7rr8YHp3BzqcZQYSCc7/Y/KfB+DKVQJnnGkAZA4PBtQXKQCuwHUA6
tnrBv4myQG+Qk0B6a4bBtbvjQO3AekARXovBrfAdQeKG/T5cJ5fBiDkZQW3psz+5UKPBNB4OQJGl
VkCJK5bBPppNQJI5J0Arp43BZWLqQGS+5j8upp3B+u67QFqlDMBvKbvBN/q/QIILE7/hK7zBW9/0
QI5McUDIBqDBb2sCQc6HeUCiharBuMG7QIwXekCbkLHBnAOsQIqsckBcEqfBk0vIQFBKbkCiaZ7B
W1ToQHyVfUDiRrPBO0qEQO5cZkBIoJjBnQLwQGayWT/85Y3BUrrWQLVVwL/lqafBjEixQOMG1L9C
Oa/BBK/dQCTj4T1BwbXBzdvkQLDIaL0Lu6nBvOm/QNfVdj/Tp4vB+CoKQQ09gj5A2KbBnIuzQCE1
DECG3oTBaJC+QOS7YkAJOIrBOb4QQVicNL55cJvBPJqCQKyMbUBlGKPBe/WuQC7YZ0D+bJXBivJB
QO72XUBM/ZHBF278QBi5QL6bVZTBIHC+QBx7b79X/rjB9VwFQfSrwT9zD4nBjUL8QKaog0AzQMDB
JUQFQRxabUDgT5nB23cTQai+fEB736vBEe2lQL0WfUCdQLjBn8PMQOVR0r96TJ/BA3HwQFGuDcCN
manBAl2rQDv5LcDa+rDBzTyUQBSHmr8ByqvBmrnQQEAhjj+od7fBwAD8QNDrz7x8F7rBG83PQO/X
IT8uVaXBxgWvQO22gz/eW5PBfpu1QJy/bj1UYYfB7YMUQRuKir6ll6zBeKsMQRVyqz/wkafBJNiQ
QLE0CkAHaoPB6KbEQPNuCEC2YnrBm7qvQGNKi0D6j4XB0ofhQF3UakBWNYrB47YXQXXDl79fwJvB
L7IcQWPbBz8jUpjBmYwMQDo/XkAzZpbBae1FQLbPJkAu9o3BhLPqQACcgr9SJpTBgRvMQCgDyb+w
JL7BUvKkQHeyAr/abrzBrYv2QCNRfkA2aZ7BZIEEQdu0hEDLl6jBdCDCQL3Af0B93bDBzeKvQPH1
dEDWq6bBr9/JQPVcdEDmj53BcdDuQBUuhUCqzbHBlQGFQK8XYkBM55jBHffyQHdcgD9LO47BUNPT
QCoCF79bJLXB/jenQPTVmb9vQrTBTZy8QJ4pxb6IOKPBBcTkQCncM7/Bz6nBLwvDQCV+gz9TPIvB
/hAFQfhNlT5Iw6fBNLe0QMo7DkD2UYTBRMC7QLDLZkAPlInB/2wQQTg+fj3+5pzBeMyFQCZ/aUCM
YqPBX5iuQPy5aUD5ApXBzfhAQGZYVEDU1pLB+agAQXDrgL3MS5TB7GeXQE/pWb/qcqnBSVsGQaVg
4z+6L4rBBN0CQTqvjEDLYb7BOzIFQexyfUCrVpfBP5sVQeKZiECEXKnB4R+uQDvsf0A46bfBm+Tn
QJIWlL+BxbrBKyLSQOwF7D5PtbfBWvuRQMhASL8wbLrB0uGoQBDYEsCuMLXBsey9QBO7aL+SfZvB
EUm6QKffMj9W1aHBL3nvQGCI3b9UMajBemewQJv2hT/yspLBJNC7QL7d1T0TzYbB0OgQQYLHND4B
Na7BbED9QF9YqD/P4qfBLl+SQNYDB0B5nYLBo9LGQH2IDECzjXnBTwOpQClPi0ARIoXB0PbdQLrW
dkCEEYnBqvgZQVdJXL8bVp3B1gMbQYovaj84NZvBLgUOQJX4UEBxqZfBGeNGQCJzHUAny47BTn71
QJWKeL/atpLBYICBQOfU/71M86nBOW+KQDfI079o9aXBm4HyQH0eiED7IKHBJr8AQeq8i0D8tKvB
ymS4QDsag0D2Z7LBtNGpQA+qfEC106fBW7HGQDEygEC8TJ/Bg3bkQOpFiUAZVrTB/0WEQPmAZkAg
L5nBVQ70QKW/kj+NZY/BUULqQDC407+I9J7B8VwCQd3GJ8B/oKXBE7zUQADyrb+e0LDBD8LgQMCG
C7+TBqfBVeDEQCpAiz/zQ4zBBIoEQT3Eoz7o5qnBAGu3QLe2E0A9lIXBW2DAQJWuakBNHYvBFrcP
QQcnaj9oCKDB0EmBQL1VbkBvoqPBfgGvQK3qb0DBNZbBHBBEQBjhVkAUZpLBMa/9QBD3wT9/spnB
jXbzQE30H8ChvbDBKSkIQfGmfT8xuYjBdSL3QFA7jkD8a8HBNisEQXVgi0ALe5rBOJkRQVRmkEDT
OK3BDA+iQH0NgkCC/rjBnaDMQMcUCMBcE5zBkKH8QLTdor8WGZjB2WETQVzsFcBAaaXBQnYAQXic
acBtqKLBIpWzQFtG3L8kNrDBIl/YQO3GQr/tJLjBUyfGQKndvT3oWKTB31yxQIs3hz/KlZPBtEK/
QDbyMz5GjYfBuAwQQXIOor78MK7Buen+QImdkj/7Ia/B3eCUQNkfD0B8+4PBEQ/JQEYhEkDb7nvB
q7KxQCnljkBLTYbBaTbjQCBpdECqc4vBDNYXQfGC/j0SdJvBlnMbQbaI1j9jdqLBnC4OQAWZUkDC
rpbBdM9NQNnyH0B6eo7BCFPsQJyhD0DQCZ3BCawFQTWiFMDV37XBTm/kQOz2VcDE0LLBbCvyQKVR
iUBV4qDBdKEAQUNCjUDbcqvBDja4QLQOhUAKNrLBX4ipQJLtf0DvpqfBUVDGQGeMgUBQGZ/BXEzk
QIs+i0C1GbTBS8yDQM72aEAVEZnBxQz0QHGalj9UH5DBqILMQHGz2776rqXBOTSxQN20uL/JaKvB
N8/4QL5JBsAbMq7B41H5QAQbIr8hnqrB1XrEQHWvjj8XNI3B5eMPQeq12L5P5aLBuj63QLbeEUDi
64XBncK/QMzEakDr9orBGwATQT6xhT/XqJ/BtvaAQIIycUAIg6PB4HeuQNKTckCaCpbBRQBDQPZM
WEABV5LBgT3/QEtcwj+sdJrBkVvNQJCIJ8Bs0avBFLQHQSLpfD/ERYnBIAn3QKcWkUBLKMHB5PoD
QQA4jECbN5rB2X8RQarSkUBb76zByfChQLk9hECY0LjBy9HAQLiJFz+JKKfBkwLNQKWAH7+0BZ3B
rcqTQBdS1L+15KbBDMqoQKekjL+Lf7PB5GH/QN3BCsCo0rbBZoAIQS0PK8ABwanBLgf9QFsesDzN
oLHBg26xQLcMlD+ZmJTB/xq+QNwXKz5sB4nB2yANQc9Cgr/9npvBXIoeQdIQRr/Z4qbBFdOUQMNH
DECoN4TBJGPJQOlADUAHznzBw6KwQDL0jUBa7IXBKIfiQAuWdUCWNovBLpQgQX40kD9zGZrBpTEW
QY5T0z9C06bBhFoNQBikU0DHqZbB4CpNQFZMIUC4c47B5LfrQCrNB0BKkJ7BzzHNQJkIRsD6yKTB
CNPDQPedT8DRlLHBH3/yQIw/iEB5p6DBaOYAQf5FjUDeK6vBLN64QNrihUCWFLLBH+ipQNYsgECk
kKfBe4fGQPjSgEAN+J7B3wPlQBImjEB/37PBCLaDQFXEaEAuEZnB2Gb0QPq6kD8AcZDBBLz0QNpi
AcBv367Buz7IQOcHJcAsWazBYEDKQFaOcr6uCKnBItP2QG9DWL95Y6fBXbjEQHKxhz9gmo3BDe0N
QbY2Bj4146nBFPK2QB04DUDcJobBRGS/QNEtZ0Ab54rBc8ATQRKXdj/p55/BdSWBQGg9ckCFgKPB
rmCuQK7XcEDu+ZXBDmpCQKpIWEDVZZLB3Pn/QEW4tj9K2JrBzkytQBOhs79haqnBxsMHQbtXgj9U
bInBKw34QFwxk0Ap3sDBvRsEQRwQikD38pnBkMgRQXn9kUCalazBvsWiQJZ7hUAjubjBqvkGQQZq
MMCdGa3BQz33QMtT2r9UR7fB6ua6QI+QRcBHZ7PBLfjJQJZZUsDCoKXBx9TBQCI12j7WVaLB1d/I
QH4TqD5pk7DB/Nj5QARumb88F5/B4+WxQOALjz9rBpXB+FS+QJ+s0D1VlonBaQYcQXyI475ecqzB
+v0IQcA8Tz80XLDB5XeUQMryBkBvj4TBL8TIQKh2B0C0MX3BqwCwQLGXi0ANvoXBDyPiQJ1jckD2
DovBNdEcQW84rj55PprB2IYdQQ0D6j9tSaLBMNUMQI3QVEBUwJbB2bxLQN+6IEC6mY7Byh7sQLZF
/z8zLp/BT4aWQClXob/u6q7B2befQFYkxr/PQ6LB6Af1QIrwaECCwJ/BJroCQfKna0AsPqrBmZu8
QDRxcUBvbrHBi2usQCbSbUAz86bB113IQFT3aUAmOJ7BdkXpQEpAcEDIELPBaBqEQJxkZkDsjZjB
ZTDtQOBzLT8lZIzBoizCQKuj3L8Mpa7BHEbLQK5aN78RobfBL2nRQIw21T4zN6fBidrTQFNmiL/N
jaTB3hS9QKTncj95A4vB8qQBQfMrvr9KZKLBEFKyQPfKDUAheITBLQG+QK43Y0BnB4rBIxoMQQba
Kb+rTJnBgtSCQDpDa0CzDKPByLGuQBwkZ0CiRJXBwPZAQFZ6YEC0+ZHBX8X4QJIYCr92rpDB9Kre
QOS88T4aeLLBID8EQZCvwj8PZYrBZqv9QJIZc0AUC8DBtDMFQU8bZkC6+JjBds4TQbM5akAii6vB
gQ6nQBsadUCUK7jBJpOfQGhc879L3q3BHI/SQLhaK8AhNrDBUp7hQLIck7/aer3BV1StQKks4L4A
r7vBMZmwQJiHSz9sOqbBqFDnQJZ6fz+lIqLBAsO/QOHnpr+ZlZ3BYdOuQC1thz8UA5PBa7muQNnK
qT2C8YbBrvQBQTctI8BrKaDBQvQKQUExq7/Xw6nB07OPQFXtDUA64ILBztvDQGF9CkBzs3nBR2uv
QA0UjEBzhIXBaAXhQKNjakB0/YnB2HcaQf8pl79WWZbBFY0QQSIPqz4dRJzBSucLQLyCYEDWcpbB
rtxDQD80KkBVwI3BKivrQDtLr78Yy43B/5D+QJvA3z5BCrPBAO7TQNrFpz8F57XBAOr0QH75aUCm
ZKDBeDQCQSfwb0DN9arB5vG6QKz4dECKvLHBGrWrQFjSbkDlMKfBmGHIQFb0aUAmnp7BQG3nQPfF
dUDCnLPBJJCEQAyAZUCVnpjBcjrtQBzyTD8jRI3BoBbxQACAaTuUfrHB4n3EQACptD0EaLbBzKbA
QNAwg7/3gqXB7nntQD6VnL+JeKrB3JS9QF7SfT8a14rBDlUKQdyStL8N06LBOoOzQB4eEUDEboTB
3HK/QGnFZEBxWYrBmj8OQSjqjr4vsprBJHeCQD1pa0C3F6PBMGWvQF6HZkBGiZXBMs5CQH+7XkDB
5pHB4HX3QMAegL4nxJPBwGKmQCCn3r4HLa7B8qIEQVIcwD/jUInBpor6QGDdfUDVrcDBCnEFQTR7
ZUBGv5nBRDoTQVYMcEAZcqzBZMikQDsMeUC1WLjBeNwEQSd9BL6SsLfB8Gv4QKJtZj+avKzBM6K8
QFDkkD/QXrjB4c3CQP9pBr8Ys73BJjSzQGmi/r+s8KLBHU/CQJhCr76cn57BFv/rQD7YBsDcsq/B
iCesQAjyhD8NepLBimWyQJ8H/j0bNYbBF+AHQcLmFcDCTp7BY8IYQayEwL8kz6fBKv6QQGFHEkCY
t4LBpnjFQPbLDkBJvXnBP5OxQM6YjUCz+YXBRYPiQJ/bakC0e4rBWcgcQZ2o977GApbBwv0PQcrq
Lj8j3p7BliUNQLkTX0DsQpbBSmhGQDMLKEA3xY3BYSnkQHMhhr+fupPBInCUQPyanj73R6vB326T
QA4hkb/4YbHB

> <OMEGA_E>
aP7QPnCs2j7gROw+cIz8PvDk0D50HiU/HK4QP84FDT/ezww/olwDPw==

> <OMEGA_NBR>
     90692

$$$$
50164928
  -OEChem-04172616093D

 52 54  0     1  0  0  0  0  0999 V2000
    7.6360   -0.1216  -21.8698 C   0  0  0  0  0  0  0  0  0  0  0  0
    7.5345   -0.1448  -20.4695 C   0  0  0  0  0  0  0  0  0  0  0  0
    7.6820    3.9741  -20.1010 C   0  0  0  0  0  0  0  0  0  0  0  0
    6.5184   -0.4636  -22.6597 C   0  0  0  0  0  0  0  0  0  0  0  0
    8.1443    4.1180  -21.4209 C   0  0  0  0  0  0  0  0  0  0  0  0
    5.1814   -0.7910  -20.6532 C   0  0  0  0  0  0  0  0  0  0  0  0
    5.8463    3.9443  -22.2517 C   0  0  0  0  0  0  0  0  0  0  0  0
    6.3188   -0.5313  -19.8712 C   0  0  0  0  0  0  0  0  0  0  0  0
    5.3904    3.8054  -20.9297 C   0  0  0  0  0  0  0  0  0  0  0  0
    6.3006    3.8168  -19.8709 C   0  0  0  0  0  0  0  0  0  0  0  0
    5.2881   -0.7862  -22.0491 C   0  0  0  0  0  0  0  0  0  0  0  0
    7.2279    4.1002  -22.4946 C   0  0  0  0  0  0  0  0  0  0  0  0
    4.2089    3.5406  -19.0909 C   0  0  0  0  0  0  0  0  0  0  0  0
    6.6780    1.4126  -17.2476 C   0  0  0  0  0  0  0  0  0  0  0  0
    5.3337    6.5403  -14.6817 C   0  0  0  0  0  0  0  0  0  0  0  0
    7.5494    5.4876  -15.3057 C   0  0  0  0  0  0  0  0  0  0  0  0
    6.2388   -0.7277  -18.3993 C   0  0  0  0  0  0  0  0  0  0  0  0
    6.0512    2.5555  -16.5097 C   0  0  0  0  0  0  0  0  0  0  0  0
    5.4216    5.0007  -16.6423 C   0  0  0  0  0  0  0  0  0  0  0  0
    6.0138    5.2828  -15.2453 C   0  0  0  0  0  0  0  0  0  0  0  0
    6.1184    3.8339  -17.3547 C   0  0  2  0  0  0  0  0  0  0  0  0
    4.1180    3.6362  -20.3995 N   0  0  0  0  0  0  0  0  0  0  0  0
    5.5517    3.6872  -18.7261 N   0  0  0  0  0  0  0  0  0  0  0  0
    3.1212    3.3459  -18.2507 N   0  0  0  0  0  0  0  0  0  0  0  0
    5.8082    0.5001  -17.7890 N   0  0  0  0  0  0  0  0  0  0  0  0
    7.8899    1.3763  -17.4454 O   0  0  0  0  0  0  0  0  0  0  0  0
    4.2191   -1.1352  -22.7966 F   0  0  0  0  0  0  0  0  0  0  0  0
    7.8082    4.2646  -24.1290 Cl  0  0  0  0  0  0  0  0  0  0  0  0
    8.5670    0.1574  -22.3408 H   0  0  0  0  0  0  0  0  0  0  0  0
    8.3802    0.1309  -19.8570 H   0  0  0  0  0  0  0  0  0  0  0  0
    8.3765    3.9840  -19.2740 H   0  0  0  0  0  0  0  0  0  0  0  0
    6.6048   -0.4784  -23.7362 H   0  0  0  0  0  0  0  0  0  0  0  0
    9.1997    4.2420  -21.6132 H   0  0  0  0  0  0  0  0  0  0  0  0
    4.2313   -0.9929  -20.1810 H   0  0  0  0  0  0  0  0  0  0  0  0
    5.1462    3.9318  -23.0739 H   0  0  0  0  0  0  0  0  0  0  0  0
    4.2456    6.3835  -14.6435 H   0  0  0  0  0  0  0  0  0  0  0  0
    5.7114    6.7380  -13.6676 H   0  0  0  0  0  0  0  0  0  0  0  0
    5.5576    7.4000  -15.3304 H   0  0  0  0  0  0  0  0  0  0  0  0
    8.0250    4.5819  -15.7103 H   0  0  0  0  0  0  0  0  0  0  0  0
    7.7796    6.3442  -15.9562 H   0  0  0  0  0  0  0  0  0  0  0  0
    7.9334    5.6822  -14.2934 H   0  0  0  0  0  0  0  0  0  0  0  0
    5.5171   -1.5261  -18.1719 H   0  0  0  0  0  0  0  0  0  0  0  0
    7.2289   -1.0066  -18.0096 H   0  0  0  0  0  0  0  0  0  0  0  0
    4.9989    2.3163  -16.2961 H   0  0  0  0  0  0  0  0  0  0  0  0
    6.5898    2.7164  -15.5642 H   0  0  0  0  0  0  0  0  0  0  0  0
    4.3545    4.7581  -16.5301 H   0  0  0  0  0  0  0  0  0  0  0  0
    5.5291    5.9049  -17.2595 H   0  0  0  0  0  0  0  0  0  0  0  0
    5.7945    4.4303  -14.5856 H   0  0  0  0  0  0  0  0  0  0  0  0
    7.1804    4.1018  -17.4572 H   0  0  0  0  0  0  0  0  0  0  0  0
    2.2841    3.2926  -18.7951 H   0  0  0  0  0  0  0  0  0  0  0  0
    3.2421    2.4939  -17.7412 H   0  0  0  0  0  0  0  0  0  0  0  0
    4.8287    0.6987  -17.7575 H   0  0  0  0  0  0  0  0  0  0  0  0
  1  2  2  0  0  0  0
  1  4  1  0  0  0  0
  2  8  1  0  0  0  0
  3  5  2  0  0  0  0
  3 10  1  0  0  0  0
  4 11  2  0  0  0  0
  5 12  1  0  0  0  0
  6  8  2  0  0  0  0
  6 11  1  0  0  0  0
  7  9  1  0  0  0  0
  7 12  2  0  0  0  0
  8 17  1  0  0  0  0
  9 10  2  0  0  0  0
  9 22  1  0  0  0  0
 10 23  1  0  0  0  0
 11 27  1  0  0  0  0
 12 28  1  0  0  0  0
 13 22  2  0  0  0  0
 13 23  1  0  0  0  0
 13 24  1  0  0  0  0
 14 18  1  0  0  0  0
 14 25  1  0  0  0  0
 14 26  2  0  0  0  0
 15 20  1  0  0  0  0
 16 20  1  0  0  0  0
 17 25  1  0  0  0  0
 18 21  1  0  0  0  0
 19 20  1  0  0  0  0
 19 21  1  0  0  0  0
 21 23  1  0  0  0  0
  1 29  1  0  0  0  0
  2 30  1  0  0  0  0
  3 31  1  0  0  0  0
  4 32  1  0  0  0  0
  5 33  1  0  0  0  0
  6 34  1  0  0  0  0
  7 35  1  0  0  0  0
 15 36  1  0  0  0  0
 15 37  1  0  0  0  0
 15 38  1  0  0  0  0
 16 39  1  0  0  0  0
 16 40  1  0  0  0  0
 16 41  1  0  0  0  0
 17 42  1  0  0  0  0
 17 43  1  0  0  0  0
 18 44  1  0  0  0  0
 18 45  1  0  0  0  0
 19 46  1  0  0  0  0
 19 47  1  0  0  0  0
 20 48  1  0  0  0  0
 21 49  1  0  0  0  0
 24 50  1  0  0  0  0
 24 51  1  0  0  0  0
 25 52  1  0  0  0  0
M  END
> <OMEGA_C>
uVn0QID0+L1y9a7B8BrxQJBHFL6CwaPBi9L1QCNYfkDNzqDBoJbQQOxW7b4dR7XB904CQXTGg0D3
XavB9c2lQCh+Sr+pOaXB7BS7QNZufEBnA7LBxjPKQNgECL8t+J7BDn6sQFaLc0AMcKfBUJ7JQDxH
dECk957BhDipQAhGSb9+ZLDBTEvnQIs0g0AC9bPBCa+GQBeZYkBAupjBirLVQITQtD8X+4nB+q2q
QDFK0UA+6GrBwZTxQBiar0Ar5HTBcKTHQKRMOr/OMZPBDqPBQOaMI0DbE4TBcX2tQAoGoEByI4XB
xnDAQLcMqUCc7HPBPcrDQO1edUBj1orBrMaDQHq3aEA1MqPBzqexQDr7a0Anz5XBdsJHQGoiVkBs
AZLBGt25QKAIAD/bT47B8Xn8QMQrsD8gkIvB8gKHQNROkb9kX7bBptz5QER3iEAmCMHBURIJQUAm
IT73ubLBZBUGQdQQBj4M257BPQYGQYX6fkAtMZrBxFrTQDf39L6l473BKjITQZ2+h0Dn56zBlGaH
QNgsfr+4cqHBoK2kQDaje0Bel7jBStyHQJVFzED2S2rBcsO2QFSd10CdrlrBMNixQN7M7EA4SXXB
PWYAQRqfkkBAXXvB1/L4QO4Dy0B9TH/BGN79QGTUtUDisWTBT4ywQIJYw78gYJHBjVPnQLrWgL+W
E5DBJ/efQJ0+FEB7XoLBnt/SQAXZLUDuBnnBZFiLQGtCmECePYTB/+2wQPn0vEB1E4rBT2y5QM7E
jUDJXmnBvsXlQNFBg0BTqIvBRC8SQC66UkBvXJbB3n5PQCKcH0D+7Y3BZoSaQHbeMj9GD47BTrOo
QPIAKr+dWbDBdhCkQEboNb9oL6XB9r31QKKtfkBz76DBKhHRQIAkxb6e3rTBETACQWvmg0B3gqvB
TOXvQMizJb7jE6PBer66QKCefEBQFrLBGiTIQAodBL9Tn57B0lGsQC7Dc0Bxf6fBPJTJQLZydEAA
Dp/BjH/0QHAN7L19N67BDu7mQN9Bg0C8ErTBBsWGQDoqYkDwwpjBmrTUQG8hsj/z9InB4LOpQF3T
0EDuBGvBYCLxQPUZsEAl33TBAMDEQEqWQ79p5JLBfr/BQMKrI0CGGYTBEI2tQEr5n0DEPoXB6BXA
QLL0qEAZD3TBRP/DQH4/dUB66orBjK6DQIa1aEDROKPBcsaxQGa5a0Cd4JXBjixIQNwqVUAJBJLB
Jhq4QMQ25z5/m43Btjz7QAHpqz823IvBKbANQdDXCz6cerLBIlP5QHNRiEDzKsHBMm2NQOBtV7+M
drXByxCFQODkZL+gqKHBugcGQVOAf0DfVprBFeDUQMtywb7wdL3B4g8TQankh0CdFK3Bv1UFQUaE
lD0+8p3B4zykQPrce0CtpLjByPGGQMJay0B2hmrBaYK1QHMo10B0vlrB6KKwQBuF7ECTUHXBsWIA
QfJck0BgXXvBIUr4QIOxy0CoMn/Boin9QNtUtkCIoGTBmrKsQM/Dxb8JZZHBavTjQL/li7/iyI/B
ChSgQJqoFUBNOYLBjpzTQCHpLUB3QHnBOV6LQPk9mECVbITBkjGxQM/svEDDKorBwkO5QJF5jUBd
mmnBlfnlQNM2g0BmvIvBfHsSQFXCUUBIWZbBvzhQQPd+HkDx+o3BDN2YQP8sHz9ViIzBJNCpQPgP
Kb8/zLDBSaGjQEQUKL/Iq6XBKb71QBfEfkB65KDBGxXTQKA05b4QCLXByDICQcpGhECBdavBlKnv
QBjhMr7DDKPBUOe6QKcifEBbE7LB4/7GQAAM8b422p7BdXKsQIvuckBjeqfBJaTJQBH3c0BfAZ/B
ZOD1QFAwQb7eJK7BIxLnQLlvg0A6C7TB1NGGQFbXYUD6u5jBGf/TQAZTtT8pwInBxV3dQF6u2EBx
n4zBMgyWQJxT60D+Q4TB5A/CQDxAMr/yH5PBf7jBQNyTJUDKy4PBuGitQJQGn0A1noTBPruuQICx
yUD8yYrBRv/DQFnZdUAKsYrBbNKDQFrBZ0DMNaPBydSxQDVpa0CJypXB8exHQLc/VkAtBJLBCpG2
QF4NCT+R6o3BbGn6QNFTrT/8w4vB0tcOQQBtfLyqG7LBmLT5QOaliED5H8HBvQmPQBJoU78aGbbB
JACEQFmES7+4XqLBKwgGQSaGf0ADTJrBkhLYQBtd976Fk73BVQ4TQSiuiEB+Aa3B+vMEQUDlfD1/
wZ3BmHCkQJj/ekDUo7jBvLXuQJlnwEDhSpHBL0LdQOYo90BtBpHBQEftQI0k3UBZ2oTBifVpQAZb
4EDaAoPBAsSlQOfW70Ag8njB8b6VQKDtBEEjpYjB3NOoQCXDuL/bvZHBJXrgQAMqiL+tz4/Bqh+g
QG1JGEBgw4HB/ybUQAvSL0Bv0XjBJ0a9QApso0D1rXnBmcuLQHrvlUCbVIPBd/+eQNxzxUDclpLB
AejlQHnSg0Dfe4vBqlUSQHxKU0C3X5bBthZPQJS9H0C0643BrYKXQFhrQz8USo3BGWy6QKY/BMA+
tbDBLHzBQH+FAsCRk6XBBqb0QGFFhUAzXqHBBQnHQMYmeb8MF7fBLRMBQSqAi0DjBazBytzhQMI2
NT7wNKfB0EO4QGXeg0CwQLLBTEHVQNona7+syqDBsPqqQGtae0BimafBetrIQFD3fEAaPZ/B77ra
QAH+Fz79V7LBvwPkQJneikD/c7TBfLGGQAmrZUCfvZjBBdfZQD/YoD9JUIrB5XznQJho1EA4n4jB
MhyhQMO+6EB0KoDBllfdQKbBZr8M2ZTB7Ly9QN0YFkBGTYXBgYSwQNOxmkAHjIPBiWa3QCnqyECv
0IfByC3EQMlfbkA1x4rBBN6CQNWYbECQMKPBT8GxQLm/b0CV7pXBxW5JQKYNV0Aj1JHBjzLGQOWE
YD4A4I/BAXQAQd4fqj9Pe4nBNwjnQOWSmD9jf7jBowP1QBk/kkD7osHBUlerQN4wO8C7WbTBS8S3
QPchOMCrsaDBSc0FQfWxhUD76JrB+ZzBQGWhfr8On7/Bf80RQVTEkEBtvq3B4/XwQNibhD/Dk6PB
1i+hQEZEg0CqrrjB9Ib3QJzZvUD4Do7BI+nqQAAn9UBzvIvB9TH2QGBm0kCGpIDB1dZ9QLq74EAh
H3/BP+uvQAW15kDFZXDBbKKkQNK6BEHPSoPBRzDSQHyF7L/VVZHBwtf/QNNKSb9zXZPBZPmbQDU9
A0ARGYbBtu3FQAQCHED6jHnBUzy/QAximEDtJXfBwuSNQCfqlEAE5YLBetKoQM2Ry0AkzI/BMs3m
QPJCekAIVovB+hsTQHLLUkBTBpbBnDFTQGlgIECR2o3Bqk+mQDITcj7giJDBXWGMQA3Pzb9956jB
0MqaQEkkxL+MO57Baqf0QGzhkkAt0Z7BqA2oQDfeoL9uXLHBGesCQRbEmkDzD6nBb3HgQMaWPb+P
eqTBfubAQBHuiEAqPrHBmgnFQCZEjr99AZzBPe2vQPARgUAy/qbBH4fJQGEWhkAB4Z3BURDSQBIa
Ur8QJa/BCADsQLralUDeQrLB40eHQBriYUBZK5nBP0rSQAjHsT+JNIvBMoqSQI1+wUAS5mLBeqLe
QFazq0AqBGvBy8zUQBGdhb/tj5DBKYe6QM6gHUAZwoTBUuaiQMGJnUAMMIPBV++uQIHxn0AeK27B
UqW9QBaneEBntonBJIuHQMAiaEBDq6PBILSvQC4feEAvPpXBRh5IQLSxSECRLpPBLbzBQPC5yj3w
+IrBoYr0QPL30T8ClY/BJa3sQIz6976dP7fBSLwAQa/Dn0Cf677BcUtYQM6h978NmqrBGYmFQK7t
5b93wZfBsyUEQWeYlkDUxJfBThWdQHcuqb+pibnB8mcTQWeUpEBi4anB9jwAQds0yr7QyKLBDB+t
QMcahUBbQ7jBh0phQMwfuUDIJGXB6wmaQO8BwkBktFHBmrSYQHlF4UAz0GnBudryQHDIk0DCDHPB
aM/kQIh5y0CQ7nHBuSTmQP81rEDB0lnB1+fLQCtV/L/WYozBPtX3QEXUb78Nj5DBbI2YQPKbC0DS
SYTBvDTIQLGsH0C8TnnBa+eAQM/ClECc0IPBSeKnQBdavUDWvYbBDgipQLB1gEAo32bBaV3fQBZX
hkDjYInBb/sWQA1iPEBJEpjB5qpWQB31E0C5B4/BrBynQL8FdL0PuIbBMHmNQA8pzb8pPqnBrMmb
QOE3xL8Wj57BGrT0QFzlkkCuxJ7BFCCpQOuCnr/kqrHBXucCQQZUm0BX/ajB7E3hQN6NOL+buqTB
utfAQNnKiUCzMrHBMunFQAlGjb/4SJzBpu2vQM1zgUBx96bBnpPJQCgbhkAV2p3BUgXTQKybS79R
aK/BIOvrQAbYlkD9MLLBKliHQO62YUBpKpnBLuXSQBHlsD9oKIvBiOHSQJ753EC0SIbB1DmHQFh8
5kBpVn/BvpTVQFtyhb+P0pDBHn+6QJAaHUD9x4TBAvCiQNCsm0DD0YLBnNakQCXWykCewobBYsG9
QD3rd0ChtYnBE5GHQCmWaEDJqKPBCsivQIi2d0BaPJXBuEZIQNdgSEANL5PBmkjCQJxGuz3EJIvB
viD1QNE70j/Fgo/BBpztQP2Y5L6Qe7fBDakAQWRnoUDA0r7BIKlaQC29978k+arBnYuGQIpi57+d
G5jBCzQEQYoxlkDNt5fB9zmeQAIzpr9C2rnBk2ETQS48pUAPyqnB46AAQQaxvb6oAKPB0gqtQMc8
hkAzObjBTBLoQPhhyUB+UovB+ejSQJEo/kBEOInBPGTeQL1J3EBr8HvBrehMQCiz2UD493/BAdGS
QOLJ5UACuW7BvlWHQFvUA0GPnILB9NrMQCXr/L9dtYzBiJf4QBPAbb+MzZDBcIiYQHrMCkBpc4TB
DaTHQB06H0CBPnnB0wOvQFGPmkDXHXXBU1mBQJ8pkUC09oLBvmCZQHoxzEDnEo/Bfm7fQDgYhkAF
VonBiAcXQEd7PEBrEpjB/L5WQKpdE0A5FY/BC3KnQFNGmL1a/obB54azQPxpPL/a1bLB2v/HQNQT
n770YanBsyj1QBKqi0DtsaDBRlOnQNh3BcB+B7TBGZ4BQTQilUBzJ6vBa8/DQMZzJcARR6LBZYG6
QIjGikCu9bHBATPQQDYcnr+PEqHBVqCsQKZtgUAtf6fBjaXJQDjugUCX8p7B3HmvQDWnQMC1wKvB
q/jlQL2ylECixrPBA7KHQPguYkAZDpnBEbjdQNHwnz+nQYvBq07hQCbQ00BQ5obBtiiZQOYZ4kAb
Nn3Bq3bmQGQfSL9X8pbBAE2/QIqlD0Af3oXBiUStQGYDlkCnC4PBT+SxQB1+xUDCkobBF5bDQEP7
akA4qIrBu5uEQHiqbUAUdaPBlSOyQMSsb0Cq5pXByytLQKmDTEBce5LBlJTMQCvkgj6XupHB0UEC
QXRlrz9hEYrBEuCjQBfMicCa56zBZKj3QLdZoECitcDBoS6tQECN57yBKrnBv27RQHDjOD9AfKjB
vbsFQejdi0CfGJrBcbqXQAFSGsAQSbvBbjsSQaG8nEDJk6zBf+zJQE68UsB17pvB7xakQMxaikDz
iLjBsxTzQOqNv0B+j4zBgyLjQOpl9UCkfonBmWXvQNKr0EBXv33Bi95uQI8S2EDmrXzBdlqnQD7w
3kD/Lm3BYRebQCvVAUF4NoHB00TqQCKX0b/Uf5HBTBEDQeK9vr5U9JjBuTKeQErL8j+x+IbBfr3G
QCBWEkDJi3rBPlq7QASXkkBwDXbBzvqKQKcqjkC7tYLBp+SjQH9HyUB+l47B+9blQG4Se0Cj6IrB
KvEVQA4/R0Dj35bB5FVXQKOpFEA34o7BzuysQFsFfD635ZLBI4WtQID85r/iN63B2uewQCKo479C
+aHBqlH1QGNNhkBQIKDBLuLQQDyMuL91mLPBsTQCQdsEj0AbiqrBQ/L6QODDgb+zfKPBnWy7QK/G
iUB+ibHBG8rXQA6osr9rFZ3BdIysQCkUgUBAIKfBDTLJQNHdfkD5gJ7BM5P3QBKehb+buq7B5YXn
QH3MkEBQO7PBGwyGQMJTZUDg0ZjBCDvVQOYEhT8xeovBLTrxQJLEwUCX94DBELCoQOfA3kDp/XfB
h53bQI6asL+wAZHB2WC5QC2/BkB9CIbB4ymuQDCCkkBHZYLBCMnAQA1OwEAYqYPB/L7BQNODYkCS
TorB18SDQBj3cUB4NqPBaL6wQFISbUC8iZXBPO9FQGMnU0BIZZLBjkjEQJSkdb4teIzBXrL6QC48
oz+dxI3B1sQMQcEXMr/Q1rTBRG36QNWym0A8GcDB0daPQMGNBsDF8rDBA8KVQAJLA8DOF53Bs6gF
QSXohEDLeJnBGlnOQGj4u7+oNbzBwBETQQxZlECt36vBkjoMQZO7Mr9AxJ/BlkmlQHIPi0ALKrjB
il0BQco0rEDFX4bB6yb9QOGj4kCY+YHBiSb2QKKAt0DBR3HB0kSGQLv93UC/qHvBv9OtQM1m1EAa
XmfBIdS0QA2K/0CJCXrBED3OQOwJFMA2xI3BZJf9QKfEpr80yo7BxYqXQJ6D7T9haIfBbhTAQMLQ
BUAwynrB/mC0QOaOh0ASW3TBpW2LQBX4k0DxxYPBpwG8QIcYy0CA84vB7pLkQGqibEDDeYrBowIR
QPdhUUB045bBIWJOQABkGkC+2o7BklSmQGkQyb727onBUK+cQEqh+L+y2KzBaxStQHA67L90X6LB
FDv1QHkqk0ATS5/BioCiQGaDYb/zHLTBMRgDQflPmUCsoqnBzEbJQOb1wD52cqbBhoHBQBrFhEDG
hLHBbH/DQDjaL7/VJJ/BT+mwQPU0fED+LafBdnTKQBh/hUBpKZ7BQ8O4QGlBjj5K67DBVGTsQKMK
kkBTvbLBa/OIQMR4XkBvJZnB7DfXQIwNzD+PwonB75nPQHfR40DpfYjBtnKDQNV67EDcKYLB5LvV
QL5oGL9/8JPBjzu9QJc+K0AA9YPBiyWiQK0EokBvuIPBZFGiQJvCz0DNoIjBxm++QFAzgUA84onB
ERKJQIloYEBfrKPBPeawQFd0eUBiZZXB43xMQCKARUDy9pLBWVLBQKhqAj9XF47B0vv9QBWH3T9W
5orB6aW+QD5upD90+bfB9tcAQXc0mUBUiL/BCKiLQOwoNcCyTa/Bi3+oQBMnKsCHzZzBJWUEQX/d
mEBoUJjBFuWVQAGLdL+8IrzBkHoTQc+Yo0BFmarBTFXaQN34oT+SAqTBuY+tQO2Gf0B8drjBT6/l
QON5z0DEFY3B0WbOQArxAUEhHIzBN+faQNZc5kCdLoDBm21GQDNX3kA0PYLBS9WOQMUD70CquHPB
5VSCQIFEBkHayYXBcMHPQCcdxb9ar4/BHmn4QCLX1L6daJTBgcWbQCjqFUDbXIPBrH3KQN7oM0A6
wXfBZfatQHkkpEBq5XbBOAGBQLUolkAhsYPBHgqXQBPlzUB985DB45vfQODzjEDzs4nBtq0bQF+M
NUBSvZfB7uBcQJgTE0Dze47BfY2hQF+P9T5qKY3B

> <OMEGA_E>
0OX7Pt7cAT+YjAI/5F0UP3TrQz/ilEI/CnY7P87JOT+Yejk/

> <OMEGA_NBR>
     98883

$$$$
50164880
  -OEChem-04172616093D

 51 53  0     1  0  0  0  0  0999 V2000
    7.5222    0.0235  -21.8829 C   0  0  0  0  0  0  0  0  0  0  0  0
    6.4233   -0.4875  -22.5933 C   0  0  0  0  0  0  0  0  0  0  0  0
    7.6827    3.9988  -20.0570 C   0  0  0  0  0  0  0  0  0  0  0  0
    8.1575    4.1717  -21.3708 C   0  0  0  0  0  0  0  0  0  0  0  0
    7.5030   -0.0436  -20.4868 C   0  0  0  0  0  0  0  0  0  0  0  0
    5.8704    4.0074  -22.2278 C   0  0  0  0  0  0  0  0  0  0  0  0
    5.3082   -0.9862  -21.8879 C   0  0  0  0  0  0  0  0  0  0  0  0
    5.4024    3.8444  -20.9114 C   0  0  0  0  0  0  0  0  0  0  0  0
    6.3014    3.8262  -19.8401 C   0  0  0  0  0  0  0  0  0  0  0  0
    7.2545    4.1605  -22.4561 C   0  0  0  0  0  0  0  0  0  0  0  0
    6.3919   -0.6368  -19.8500 C   0  0  0  0  0  0  0  0  0  0  0  0
    4.2000    3.5335  -19.0940 C   0  0  0  0  0  0  0  0  0  0  0  0
    6.6853    1.2281  -17.2997 C   0  0  0  0  0  0  0  0  0  0  0  0
    7.0678    6.4805  -17.1745 C   0  0  0  0  0  0  0  0  0  0  0  0
    4.8856    7.0798  -16.0465 C   0  0  0  0  0  0  0  0  0  0  0  0
    6.4764   -0.9753  -18.4002 C   0  0  0  0  0  0  0  0  0  0  0  0
    5.9445    2.3097  -16.5761 C   0  0  0  0  0  0  0  0  0  0  0  0
    5.4223    4.6923  -16.4266 C   0  0  0  0  0  0  0  0  0  0  0  0
    5.5757    6.1014  -17.0099 C   0  0  0  0  0  0  0  0  0  0  0  0
    6.0939    3.6360  -17.3020 C   0  0  2  0  0  0  0  0  0  0  0  0
    5.2989   -1.0349  -20.5398 N   0  0  0  0  0  0  0  0  0  0  0  0
    4.1248    3.6710  -20.3999 N   0  0  0  0  0  0  0  0  0  0  0  0
    5.5420    3.6323  -18.7043 N   0  0  0  0  0  0  0  0  0  0  0  0
    3.0953    3.3445  -18.2767 N   0  0  0  0  0  0  0  0  0  0  0  0
    5.9456    0.1217  -17.6399 N   0  0  0  0  0  0  0  0  0  0  0  0
    7.8726    1.3557  -17.5895 O   0  0  0  0  0  0  0  0  0  0  0  0
    7.8569    4.3116  -24.0856 Cl  0  0  0  0  0  0  0  0  0  0  0  0
    8.3626    0.4583  -22.4034 H   0  0  0  0  0  0  0  0  0  0  0  0
    6.4323   -0.4985  -23.6732 H   0  0  0  0  0  0  0  0  0  0  0  0
    8.3701    3.9986  -19.2239 H   0  0  0  0  0  0  0  0  0  0  0  0
    9.2133    4.3129  -21.5487 H   0  0  0  0  0  0  0  0  0  0  0  0
    8.3235    0.3513  -19.9060 H   0  0  0  0  0  0  0  0  0  0  0  0
    5.1771    4.0153  -23.0559 H   0  0  0  0  0  0  0  0  0  0  0  0
    4.4462   -1.3355  -22.4370 H   0  0  0  0  0  0  0  0  0  0  0  0
    7.5520    5.7746  -17.8653 H   0  0  0  0  0  0  0  0  0  0  0  0
    7.1443    7.5004  -17.5795 H   0  0  0  0  0  0  0  0  0  0  0  0
    7.5674    6.4363  -16.1955 H   0  0  0  0  0  0  0  0  0  0  0  0
    3.8270    6.8018  -15.9366 H   0  0  0  0  0  0  0  0  0  0  0  0
    5.3796    7.0372  -15.0646 H   0  0  0  0  0  0  0  0  0  0  0  0
    4.9565    8.1013  -16.4485 H   0  0  0  0  0  0  0  0  0  0  0  0
    5.8908   -1.8841  -18.1974 H   0  0  0  0  0  0  0  0  0  0  0  0
    7.5265   -1.1458  -18.1205 H   0  0  0  0  0  0  0  0  0  0  0  0
    4.8783    2.0446  -16.5227 H   0  0  0  0  0  0  0  0  0  0  0  0
    6.3496    2.4069  -15.5580 H   0  0  0  0  0  0  0  0  0  0  0  0
    5.8811    4.6695  -15.4271 H   0  0  0  0  0  0  0  0  0  0  0  0
    4.3511    4.4565  -16.3438 H   0  0  0  0  0  0  0  0  0  0  0  0
    5.0808    6.1463  -17.9912 H   0  0  0  0  0  0  0  0  0  0  0  0
    7.1663    3.8745  -17.3567 H   0  0  0  0  0  0  0  0  0  0  0  0
    2.2655    3.3320  -18.8347 H   0  0  0  0  0  0  0  0  0  0  0  0
    3.1842    2.4743  -17.7922 H   0  0  0  0  0  0  0  0  0  0  0  0
    4.9914    0.0778  -17.3439 H   0  0  0  0  0  0  0  0  0  0  0  0
  1  2  1  0  0  0  0
  1  5  2  0  0  0  0
  2  7  2  0  0  0  0
  3  4  2  0  0  0  0
  3  9  1  0  0  0  0
  4 10  1  0  0  0  0
  5 11  1  0  0  0  0
  6  8  1  0  0  0  0
  6 10  2  0  0  0  0
  7 21  1  0  0  0  0
  8  9  2  0  0  0  0
  8 22  1  0  0  0  0
  9 23  1  0  0  0  0
 10 27  1  0  0  0  0
 11 16  1  0  0  0  0
 11 21  2  0  0  0  0
 12 22  2  0  0  0  0
 12 23  1  0  0  0  0
 12 24  1  0  0  0  0
 13 17  1  0  0  0  0
 13 25  1  0  0  0  0
 13 26  2  0  0  0  0
 14 19  1  0  0  0  0
 15 19  1  0  0  0  0
 16 25  1  0  0  0  0
 17 20  1  0  0  0  0
 18 19  1  0  0  0  0
 18 20  1  0  0  0  0
 20 23  1  0  0  0  0
  1 28  1  0  0  0  0
  2 29  1  0  0  0  0
  3 30  1  0  0  0  0
  4 31  1  0  0  0  0
  5 32  1  0  0  0  0
  6 33  1  0  0  0  0
  7 34  1  0  0  0  0
 14 35  1  0  0  0  0
 14 36  1  0  0  0  0
 14 37  1  0  0  0  0
 15 38  1  0  0  0  0
 15 39  1  0  0  0  0
 15 40  1  0  0  0  0
 16 41  1  0  0  0  0
 16 42  1  0  0  0  0
 17 43  1  0  0  0  0
 17 44  1  0  0  0  0
 18 45  1  0  0  0  0
 18 46  1  0  0  0  0
 19 47  1  0  0  0  0
 20 48  1  0  0  0  0
 24 49  1  0  0  0  0
 24 50  1  0  0  0  0
 25 51  1  0  0  0  0
M  END
> <OMEGA_C>
dLXwQICJwDwVEK/BA4zNQLCY+b4hv7TBC9n1QBTtf0CkdKDB7YQCQWR+hUBP96rBhhjwQACWMr3j
5KPBntq7QJo8gECL0rHBb9ypQNh6fL9hGq/BiOCsQFYKdkCHSqfByKTJQN7fdECZuJ7BGyXoQAIj
hUAfprPBIYrMQJQGI7++zJ7Bo2aGQHklYkBrwJjBw+3VQNIxnT+wZYrBfiviQD5gz0BpZYnBBVec
QA6O4kA+X4DB9D7PQCSueb+XM5PBhzm+QGDSE0DSm4TBkIOtQAgnlkCdaYPBG2yyQE0+w0AuFIjB
JQHDQMqzaECUaorB7JCpQKR2hL97UaTBPf6DQCDyakD/MqPBAlixQGZ3aEBVopXB+BhGQJAMVkDA
NpLBNUK+QLAs+T1sHo3BbOz7QFeIrT9Tt4zB1mv7QL34iUA4r8DBN80FQdyn6j4xOrPBC9XNQN01
/77IYr3BBuwFQSnpf0ChypnBmWkTQaQDikDIY6zB5CwFQfrasz5zP5/BHqulQEZ9gEBmcrjBc0eO
QHvwqr/xfrPBtqnxQDPJuEA67I7BMp7kQCYD8EC9oozBYCjyQNj1zUBwkIHBBO50QFio2UB//H7B
vSWsQHYw4UCPCHHBkJueQOKeAUGUloPBC4G8QHwp8b9JlJHBPdnwQHSqkr+09pDB5hqcQNLaAkB0
LoTBEjDLQBMLGkCq7XjBlzG8QFBslUA01XbB3TuLQO+bjkAdwILBsZWiQKSuxED37Y/BnVLlQDP3
d0B42orBdf4QQLk+VUCLrZbB/MlLQFlaHkB4Vo7BiLmfQPlanz08wIrB/gScQOJaeL+e263B6cC8
QOpZNr+ZR7XB0A33QAYbf0AQgZ/B4OMDQTbLg0BY5qnBL5WlQPIaYb+d86LBEFq/QItugEA+VrHB
JprlQJz4pb7tmbHBpeauQGqZd0Di8abBYXzKQGy/dkD5Jp7BGPPrQFExhEA8zbLBrszPQPz2D7+F
2J/BNZWGQKJVYkArxZjB5qzaQHohsz9gn4rB2+CeQAXQwUAG3GTBeMrnQNWEo0AK3W3B1jLcQAKG
Pr+8c5TBb1K/QOQtGEB0ooTBydCnQOOsmUAWk4PBvsK2QJWgnEABmG/BsNTAQA5ZcEAuDorBTm3u
QOjMfL4JDafBNYmFQERMa0CTOKPBYs2wQERebUBYS5XBPHFFQNrbUED5l5LBi7bGQCw+iT4vRI7B
wm0AQRtNzz9TI4zB52MAQULdiECVrb/BlW94QFK8nb/0grDBtbG2QFWAT7/cv73BegwGQXkAf0CH
ppjBUvIUQWC+hkCREqvB8BWNQBA/hr+FAp3BoA+qQJIbgUD8I7jBGEb+QO/KrL3lVrfBgVd4QBSU
vECYL2bBDeynQK2Aw0AM31PBM3CnQDMC4EDh02zBzov4QC61iEDMmXXBlI/wQHmgwUCY23XBbgvx
QPIepUDC5lzBH27SQAUU3788r5HBnw7/QPjNIr/NlpPBMxaeQFUBAUAjhoTBNi7LQC72HUDbwnjB
j7GFQMcKkUCLr4PBlCesQHkluUA+XYfB/16uQOFQfUDTXmfBiH/iQNdqgkChQIrB3P4RQON7TEAa
UpfBc+FNQN+DGUCGt47B8runQFNRDj5DjIzBX3bhQEBFdr52grPBK60FQcB6hj4hurLBEb/0QCgl
g0Cl0qHB3+wAQeqjiEBagqzB2HnKQHhM975AFqrBQ8O3QH5mgECshLLBVHQOQUQHBz8ukajBQtiq
QIaydkCcz6fB8hjJQEumeEBkkZ/BBHvjQFLHhkBV27TBoWveQPCtb76HLaDBY0qHQJaTYkDN0JjB
tCrVQKgKrj9ANIrBPd3iQF471kDIUIzBH8qcQJ/+6UApgIPBIffHQOirHb/eCZbBgtfAQDTCIEB9
foTB+TSxQIJZnUDZtITBRdOzQBmxyEBCe4rB0rrFQNIyckD4JIvBaj8DQRAAjz4Rk5/ByuuCQIxv
aUD6PqPBdZWyQKZHbECdMJbBA9tKQEtlVUCP1JHBWUy6QA4yEj8oWJDBWEH8QEqfnj8CKorBmj70
QEmPi0AtHMLBk0XTQMhq377zOrvBCvgOQX7A4z463bnBHPUFQYolhECvapvBKpURQfxIjkDDUq7B
AAyqQGGpWr+caarBg3CgQB/QfkCl47jBxGgeQVaCbz+6+afBCQfzQPgxvkDSUJHB16/jQMV19UAE
X5DBWFbzQIyu2EAVkITBzMp2QG4N4EC0P4LBbhKtQK5/7ECdcnfB7WudQHSjBEE9iIfBUdKrQEaA
nb9y+pfBkPLdQBnHmL9885DBPKOeQGtTE0DuRIPBn4HQQD+4KUATY3nB2czBQK0FoEDf8nnBJVWP
QEWElUAOVYPBIIGjQApNxkBlQZLBfxboQPsKgEDV8ovBeCwUQJAjUkCb95XB1tFTQISYHkBF2o3B
qIebQBRlVj/14ZDB2QrVQFhrC8A9SbLBPeyxQEqpub9wNrbB03DzQKTyjECV2KHByxAAQSyUk0AJ
jazB7lXpQGE/3r8l5qjBZfu2QPGGhUDcnbLB6ECkQDt4mL7irrDB3HuqQMsXfkCe6afBEmPIQPLO
gkAgm5/BG/bhQGLmj0AC7bTB29HZQA9EFb/8oqPBboaHQO2YZECH85jBywDhQL35vT++e4rBVLHg
QGzZ20AtTonBGSmZQD7v6kAoxIDBgLfwQDBxr73Ms5nBs9rBQJA4H0AJf4XB47WuQGAwnkDy6oPB
wLaxQCSUzEDrWojBb9vEQOntd0ATFYvBCyS4QATk8z11qKfBhzKDQDWPaUDiZ6PB4x2yQNjUdUBQ
OpbBcchMQG9iUUAT9pHBZ5XUQN4mUD8QqZPBtHYCQdTBqz9/sIbB0+vxQCYbmECUKcLB/TjgQJ/o
Q8ALaLbBSpahQB6X4r9KYr3BOzoFQd2bj0BQb5vBOH8QQSB9m0D2Wa7BJUQCQeNyEcAkvKXBL+Kf
QOiVgkBOALnB8FiJQKFWhz6KtrPB51PyQN9YxkBOs47BWmDhQFGV/EBjiYzBusHvQHd620A8WoHB
G35vQP864ECvD4DBm1KoQPmK6kBupnHBO/GZQOrSBUFeAoTBcH35QHeQcb+IppTB6OkGQZQr6j7K
EZzBSgmhQFygBkBQUYbB6pjJQBvUJkDi7XnB1N+9QH6AnUDB9HfBcq+MQHa0lUBAJ4PBcrqiQI6Z
zUBSUJDBQ+zmQDV3hEC0tYvBwdIWQMA0SEByG5bBoxtbQFIvHEDx443Bi7i2QAfvcj9WUpbBgezS
QPQuCr/o+rbBCH2xQFlbvL8s+rXB1GrzQBsYjUBa26HB5QcAQVvOk0Coj6zB3dHnQHJdxr2Ura3B
qdu2QBPrhUBynLLBhcelQO3R9r+7tKvB52eqQB6zfkCH6KfBKlvIQMIBg0CDnJ/Bf9bhQI5BkEBb
7bTBhQrbQNglHL8doaPBBoKHQHH4ZEDs8ZjBwTbhQFp+vT+mvIrBXc/gQNCY20AGNonBz2CZQHF+
6kBZmYDBWR3xQPkvC77ojpnBj+TBQGxNHkCSq4XBhuauQFfJnUAh3oPBmtixQLVKzEAqPojBKfDE
QAWDd0CXHIvB9k66QDOsv781zKLB6CCDQOsmakArZaPBJx6yQBkddkBgPJbBztRMQGeUUUC68pHB
JVTVQG5GUj+PDJTBC2oCQWt+qT/gyobBibjxQJmXmECfKcLBgl/cQH9zL74qwL7B3PKgQAe46r8E
/bzBvjsFQU2nj0Byc5vBt3YQQcytm0BJXq7B0a4AQU6tID87Mq7BVrmfQPgRg0CC/bjBv+KLQI/C
KMDR7KrBqWLyQDw0xkAvpY7BfHHhQHpk/EBZZ4zB4fjvQEIU20AzRYHBwvNvQAvE30ARw3/BgKOo
QJ706UAgV3HBGhyaQGuiBUG2zYPB4Gn3QF2zfr+vSpTBDcYHQeSxsz7pppvByRyhQPisBUAmkYbB
bHvJQDgMJUC+PHrBYjG+QF3nnECk43fBTeOMQIdIlUD3FIPBBsSiQGh6zUBVMJDBpwPnQEk3hEAH
vYvBmdMWQOl2SEBPFpbBPzpbQBtNHEC85Y3B4G64QJQtgT//I5fBhzHYQEz+P77CVbTBOUyvQGX/
PL/MxLLBNBv1QPffdUAvAaDBPsACQQBYgkCQUqrBOXDyQHBMJD1EZ6vBuL+8QEnTgkCdlbHB3+mh
QGqTh7+lVqjBNJCsQHDrd0AoOqfBPH/IQNOLb0AQjp7BMmPpQAzphUC8HbPBIzHjQKoVnr4UKqHB
5E2EQJcnYkAbCZnBmTHEQL8JZz+MZovBLMbqQEPVxEDcZojBM8ekQFiN4ECcDYHB0jH+QHC9A722
YJfBX6KyQAU4BUAQMIXBLiOuQJzOkUBDe4PBLbq5QMgYvkBiGojBcii/QNlYWkBdcIrBVNC7QFF9
W79R3Z/B8QyDQD25b0BOaaPBLQSvQIKjYUA7tpXBxp1AQBBdV0CirZLB18TqQG0NhD8r+JDBCCGy
QGCENL7eWorBbAb+QCFxjUDa77/BsUHjQG60aD2ZSLzBJWCaQCHHab9vgLnBcT4FQcFrb0DIQ5nB
N80TQfhMhUDRg6vB6ekIQbed8z7kXKzBgzenQM21hUDTTbjBGGSCQFqmvL/GGKfBK4v5QA8XrECv
dI3B1OzxQE+j5EDEuIvBJbn3QN2RwkAMPYDBbfCBQL2S20B/4IDBbZuxQDJW3kAdwXHBHM+rQNIz
AEFGXITBtkIAQZ1/cr9/h5LB9TMPQXcnjz7n5pnBwoePQBOIAEA76ITB7oC/QLiEA0Dd/3nBbQO8
QAX5jkCy2XbBaRiLQMosj0Cl+ILBk/ysQD2ewEA7SJDBoEviQFVsXkBEkIrBhggMQJ6NW0BfNZfB
r7NCQPTXHUAlLo/BPxb6QBI79D/ri5DB06zMQLmcGL/3J7bBGEGgQJ5cNb9aqrTBBDn3QHbDfUCp
ZqDBJlUDQZx8hkAfz6rBCYLmQBaykL5WV63Bl6i9QHlbgkB+17HBp8eOQF5E/L7JbarB0nWuQPCK
dUAKbKfBcfjKQGBKckDqzp7BMO7pQDg6iEC+hLPBLDDTQCxptr3vSqPBRqeHQC6/XECrDpnB9nvi
QOo7tz+wJYnBmTPZQItS1UBdmYvBBdmQQLZ65ECJaIPBKXTvQFJXzT0RrJnBeinBQGyvFkDRXoTB
naWqQJeWmEDONoTBdQmrQK9exEB8C4rB4MHCQAL2a0A2g4rByQeoQEphR77PAqLB1IiFQIyxZ0BS
eqPBYEuyQCB+ZUBqzZXBUK9IQBDuTUCzl5LBNY7UQGERFz81CZHBRlkEQd7E1T8A+ofBRlL9QOA+
kUDiZ8DBuqvaQG6yP78A9r3BxrCLQNRIdb/mULvBeYcGQY7sekCjtpnBPEIUQXL+ikBoIqzBLWAE
QTl1Q76LP67BOKinQHitg0Agf7jB1TJZQJorEb+aTKnB4b7rQH82vkCLWZDB7i7YQI039EAEz4/B
YXboQIeW2UC8vYPB+z1gQH8/2EACVoLBh/yfQFXF6EC2EnfBFbWPQC2zAUGjmofBoCH+QNWpW79d
ZJfBxlwEQc0YVT9pd5vBZzShQFq08z+IKIXBpTnIQHfJIUA7uXfBZOO5QBZhnEBdrXjB9UCJQOpP
jkC9JIPBH/KbQJ2UwEA+8JHB44LkQAaqf0CG64rBd7cTQMYKTUDYFJfBbVpPQJGPFUCj5Y7BTwC2
QMNwlj7h2ZDBgMCrQML9dL+156/BGEvRQAwU8L46trTB/831QN00fEA0XaDBYZUCQUREg0AY36rB
gHWpQEqSfb+fvKTBnfi7QOw8fkBLw7HB33PyQIAtLT3QPa7B8NKsQNihdEAGPKfBhIDJQOqpckC3
pZ7BNFjoQF9Ig0DnkbPBxW7NQMpoFL8wzZ7B0AuGQJV7YkABtpjBA+HVQHVolz8uaorB90rjQNsx
zUDAE4nBz/KdQHlB4UCE43/Bq8rQQJ06gL/TYJPBgSa9QJ80EEC4uYTB9JytQHSjlEBnOoPBqFaz
QNDfwUBlwYfBr5LCQIzJZUBoWIrB29/vQADaeLsafKPBus+DQIwya0BTKaPBOAOxQG8rZ0AzkpXB
Hg9FQCKyV0B2MZLBqZ+/QMC1ET0muozBQFf7QMwsrT+mGI3BGMX7QIfbh0D+mMDBn0GRQCM7pr93
u7TBN7rUQHZr+L7eTr3Bk98FQeKae0BzsJnBY4QTQUc4h0DbR6zBXbiMQF+Aqb/Cv6DBP9mlQMk6
f0BMZrjBSS0HQZyC9D4v97HBRE7yQICStkCErY7BQEzmQCjs7UCFOozBM1jzQDwky0AhQ4HBYNl3
QJv02ECeHn7BAdWtQGxA30DlNnDBDsmgQCwEAUHWEoPBKo2+QAwJ979SJpLB/pHyQF0flr+6UJHB
DAibQBbQ/T94o4TBsebIQN2oFUCs6njBaz28QLE8k0CKdnbB6DSLQA+ljUBzmYLB2HGjQDH/w0Dg
lo/BJwLlQEkFdEB7v4rBcQoQQFS6V0CXrJbBXbhJQLb4H0BNTY7BY1CiQG9epr3Hp4nBXZakQBjY
+L86fKzBbRizQHt3tr8eSbbB42LzQETijEAT3KHBZwYAQcR3k0BMkazBmsK4QINCw7+xA6PB6NS2
QHefhUDlnLLBcB3VQNCY/r68UrbBNlyqQNhdfkAU6KfBH0/IQEjhgkBAnJ/BLNThQLbfj0Di7rTB
pRjbQLpAG79GmqPBUG6HQCgNZUDN75jBugLhQPSivT+dr4rBdejgQNil20ACRInBA4CZQEHC6kBe
qoDBV7zwQBPRFr6mbpnB0bzBQDSRHkCRo4XBOOOuQFH6nUBq4oPBseqxQBFvzEAGSojBod3EQFqq
d0BNG4vBTU3oQG50z72NIK3BPhCDQHkIakCGY6PBYA2yQPscdkAlO5bBx6JMQPXqUUBc75HBEwzV
QIwuUT/i95PBcVICQQbSqT+lv4bBT7zxQE0MmEBXLMLBzXSKQEudKcAoPazB7WCkQNPu3b8ptL3B
dDcFQRZ6j0A9dJvB2HYQQa5Gm0C5YK7BcCiuQGZm8795XJvB/rKfQCq+gkDS/bjBhhzgQFrkvr1x
2b3B/XLyQC4rxkB8r47BhZnhQMRo/EC7eozBshDwQIUv20D6UoHBQihwQAkZ4EDw4X/BvsGoQIVG
6kDReHHBkUqaQOK/BUEp5IPBDmX2QFyUgb8PL5TBs7wHQdWRqD43ZZvB9O+gQNAIBkDTh4bBGlPJ
QNlxJUCDLXrBaS2+QAcmnUDe63fBF9yMQCWLlUDxF4PBmNeiQMiQzUB/PJDBLfXmQFM5hEDDvIvB
7Z4WQD3PSEB3EpbBpu9aQMyyHEDo3Y3BUiy4QBS/gD+kEZfBxDqRQCbIvr8zXKrBLMquQBD+i7/B
N7LBXKT0QHBZk0BywJ7B8NECQR1qnEBC86jBp/udQDVkvL8YlJ/BkKbAQCoxi0CgL7HBGBjYQHJ+
Lr/BEK/Bw9avQAU5gkAG+qbBL43JQE5phkD2253Bua/rQNVmmEBrJ7LBSA/IQMVMiL8A9ZzBsGiH
QE54YUBfN5nBaEfTQHMOrj8xeYvBFc3SQEj120A2/oXBKS2HQNfo5ED1nH7BdU7WQKTehr89Y5HB
bMu6QE7TGkBZ+oTBmA2jQPZZmkAAvILBXsykQN67yUBxgobBLOi9QO4ydkCJv4nBXf/jQAYuK7/+
o6TBXYmHQMaMaUBnsqPBZdmvQMo3d0B6RJXBYJJIQNZER0AEQ5PBVc/CQER9ij1RmIvBb3X1QCPE
0D+Oz4/BHnsAQXO7o0ABwr7BebJiQJHZ5r8wkKzBvP2lQBpSjb+bkrrB9zIEQZtHlkBZs5fBPkgT
QUlypkATu6nB9OWHQLTr4b9FXJnBEc2sQLn+h0CpNrjB1bvuQFosvb7VGLXBdP/nQP2zyEA6HIvB
irnSQJVN/UDhz4jBwWHeQDXV2kAWYHvBFd5MQMgP2ED2TH/BUtaSQFXG40A/BG7BGy6HQFsfA0H2
IYLBzqjMQBe0/79vkY3BUFj5QMPDdL9YEpHB5NuYQJ1ICED9rITBS/PHQNgfHEBvonnByjGvQK/N
mECO93TB7X2BQMLBj0CJ5oLBGkSZQHWHy0DOz47BQY/fQL1MhUB+WonBZkUXQPbOO0BhKJjBDj9X
QBPUEUChQo/B3/inQILj3b2/eIfB

> <OMEGA_E>
cqgMPxD5CT9s6DI/gDssP2QAIj+Q+xw/UBISP5TZDT9IkiE/THRLPw==

> <OMEGA_NBR>
    107829

$$$$
50164947
  -OEChem-04172616093D

 50 52  0     0  0  0  0  0  0999 V2000
    7.5994    4.3433  -20.0075 C   0  0  0  0  0  0  0  0  0  0  0  0
    8.1255    4.4087  -21.3119 C   0  0  0  0  0  0  0  0  0  0  0  0
    5.8979    3.9920  -22.2382 C   0  0  0  0  0  0  0  0  0  0  0  0
    5.3849    3.9001  -20.9327 C   0  0  0  0  0  0  0  0  0  0  0  0
    6.2310    4.0576  -19.8309 C   0  0  0  0  0  0  0  0  0  0  0  0
    7.2748    4.2358  -22.4258 C   0  0  0  0  0  0  0  0  0  0  0  0
    4.1410    3.5930  -19.1445 C   0  0  0  0  0  0  0  0  0  0  0  0
    7.8097    1.3848  -17.8718 C   0  0  0  0  0  0  0  0  0  0  0  0
    7.3655   -0.6406  -22.1378 C   0  0  0  0  0  0  0  0  0  0  0  0
    6.0868   -1.1678  -20.0849 C   0  0  0  0  0  0  0  0  0  0  0  0
    6.0334   -0.4233  -22.8638 C   0  0  0  0  0  0  0  0  0  0  0  0
    4.7927   -0.8821  -20.8519 C   0  0  0  0  0  0  0  0  0  0  0  0
    6.3069    1.2388  -17.6145 C   0  0  0  0  0  0  0  0  0  0  0  0
    5.7608    2.3548  -16.7079 C   0  0  0  0  0  0  0  0  0  0  0  0
    5.9359    3.7662  -17.3155 C   0  0  0  0  0  0  0  0  0  0  0  0
    9.2099    0.6842  -19.7740 C   0  0  0  0  0  0  0  0  0  0  0  0
    8.4787   -0.6473  -19.9658 C   0  0  0  0  0  0  0  0  0  0  0  0
    4.1061    3.6410  -20.4579 N   0  0  0  0  0  0  0  0  0  0  0  0
    5.4461    3.8362  -18.7198 N   0  0  0  0  0  0  0  0  0  0  0  0
    3.0498    3.3156  -18.3345 N   0  0  0  0  0  0  0  0  0  0  0  0
    8.2483    1.5950  -19.1651 N   0  0  0  0  0  0  0  0  0  0  0  0
    7.2116   -0.4104  -20.6856 N   0  3  0  0  0  0  0  0  0  0  0  0
    8.6098    1.2668  -16.9522 O   0  0  0  0  0  0  0  0  0  0  0  0
    5.0033   -1.2177  -22.2377 O   0  0  0  0  0  0  0  0  0  0  0  0
    7.9255    4.3376  -24.0400 Cl  0  0  0  0  0  0  0  0  0  0  0  0
    8.2374    4.5101  -19.1523 H   0  0  0  0  0  0  0  0  0  0  0  0
    9.1796    4.5911  -21.4606 H   0  0  0  0  0  0  0  0  0  0  0  0
    5.2440    3.8770  -23.0900 H   0  0  0  0  0  0  0  0  0  0  0  0
    7.7043   -1.6735  -22.3060 H   0  0  0  0  0  0  0  0  0  0  0  0
    8.1132    0.0602  -22.5374 H   0  0  0  0  0  0  0  0  0  0  0  0
    5.9625   -0.8636  -19.0352 H   0  0  0  0  0  0  0  0  0  0  0  0
    6.3071   -2.2445  -20.1311 H   0  0  0  0  0  0  0  0  0  0  0  0
    5.7576    0.6402  -22.8115 H   0  0  0  0  0  0  0  0  0  0  0  0
    6.1376   -0.7237  -23.9168 H   0  0  0  0  0  0  0  0  0  0  0  0
    3.9748   -1.4926  -20.4416 H   0  0  0  0  0  0  0  0  0  0  0  0
    4.5351    0.1836  -20.7624 H   0  0  0  0  0  0  0  0  0  0  0  0
    5.7776    1.2746  -18.5781 H   0  0  0  0  0  0  0  0  0  0  0  0
    6.1230    0.2681  -17.1310 H   0  0  0  0  0  0  0  0  0  0  0  0
    4.6886    2.1763  -16.5392 H   0  0  0  0  0  0  0  0  0  0  0  0
    6.2944    2.3183  -15.7467 H   0  0  0  0  0  0  0  0  0  0  0  0
    5.3708    4.4871  -16.7064 H   0  0  0  0  0  0  0  0  0  0  0  0
    7.0037    4.0296  -17.2987 H   0  0  0  0  0  0  0  0  0  0  0  0
   10.0787    0.5499  -19.1129 H   0  0  0  0  0  0  0  0  0  0  0  0
    9.5453    1.0778  -20.7449 H   0  0  0  0  0  0  0  0  0  0  0  0
    9.1105   -1.3323  -20.5502 H   0  0  0  0  0  0  0  0  0  0  0  0
    8.2650   -1.0937  -18.9834 H   0  0  0  0  0  0  0  0  0  0  0  0
    2.2425    3.1599  -18.9038 H   0  0  0  0  0  0  0  0  0  0  0  0
    3.2375    2.4971  -17.7915 H   0  0  0  0  0  0  0  0  0  0  0  0
    7.9042    2.3761  -19.6861 H   0  0  0  0  0  0  0  0  0  0  0  0
    6.9949    0.5592  -20.5715 H   0  0  0  0  0  0  0  0  0  0  0  0
  1  2  1  0  0  0  0
  1  5  2  0  0  0  0
  2  6  2  0  0  0  0
  3  4  2  0  0  0  0
  3  6  1  0  0  0  0
  4  5  1  0  0  0  0
  4 18  1  0  0  0  0
  5 19  1  0  0  0  0
  6 25  1  0  0  0  0
  7 18  2  0  0  0  0
  7 19  1  0  0  0  0
  7 20  1  0  0  0  0
  8 13  1  0  0  0  0
  8 21  1  0  0  0  0
  8 23  2  0  0  0  0
  9 11  1  0  0  0  0
  9 22  1  0  0  0  0
 10 12  1  0  0  0  0
 10 22  1  0  0  0  0
 11 24  1  0  0  0  0
 12 24  1  0  0  0  0
 13 14  1  0  0  0  0
 14 15  1  0  0  0  0
 15 19  1  0  0  0  0
 16 17  1  0  0  0  0
 16 21  1  0  0  0  0
 17 22  1  0  0  0  0
  1 26  1  0  0  0  0
  2 27  1  0  0  0  0
  3 28  1  0  0  0  0
  9 29  1  0  0  0  0
  9 30  1  0  0  0  0
 10 31  1  0  0  0  0
 10 32  1  0  0  0  0
 11 33  1  0  0  0  0
 11 34  1  0  0  0  0
 12 35  1  0  0  0  0
 12 36  1  0  0  0  0
 13 37  1  0  0  0  0
 13 38  1  0  0  0  0
 14 39  1  0  0  0  0
 14 40  1  0  0  0  0
 15 41  1  0  0  0  0
 15 42  1  0  0  0  0
 16 43  1  0  0  0  0
 16 44  1  0  0  0  0
 17 45  1  0  0  0  0
 17 46  1  0  0  0  0
 20 47  1  0  0  0  0
 20 48  1  0  0  0  0
 21 49  1  0  0  0  0
 22 50  1  0  0  0  0
M  CHG  1  22   1
M  END
> <OMEGA_C>
dy7zQBn8ikBzD6DBFwICQQYUjUDTfqrB3bu8QPJ8f0Dk57HBalGsQA6ceUAydqfBmmTHQPbXgUC0
pZ7BicvoQKKLh0D3Z7PBWoOEQLbzZUAEKJnBc+n5QO8/sT9e+Y7B3bHrQAz+I788GrHB0MbCQEl6
lb/2raDB6hHBQFC/2L4N6bbBg12ZQMLOYb+X0KbB+9HJQMyRnj+O6ozBoFi4QLK1FkDfqYXBjfK9
QKAJcUAdhorBp1sTQa4pLz81MZ7BqKgHQXS2Jb/vuZ/BeGWDQA4GaUDeqaPBj0auQLiEdUARwpXB
oDBDQFIyVEAirZLB/PgDQRcqzD8VUpnBG8XmQOwg0r4LfKXBm8EJQUQmoj8YnofBQxugQAHfm7/H
5rHBdZ39QFrNikDbUcDBdcwDQQBTkEDRN5nBf98SQUPqkkBGr6vBlM6nQJUgeEBOuLjBgon2QLk1
1r+ecrLBxM8BQfSvdj2rTLTBFM2+QE8XXb//R5jB+dPJQAOmD8CEDKHBUj64QGLmIz/afbbBQmfE
QL5FOb+zVb/BdGN+QOgOv79ciKPBXh+RQGUEPD59GabB4eG4QA0moz8JoJTBtO/DQEY+iT5NDInB
FQmWQF1IC0A1UITBpmvJQFxeFECM8nvBTd2rQHmWj0C+poXBeh7gQMDygEDKY4rBYEIhQWfFDD84
55jBeLkYQaT2iT+J9aXBc8QRQQWKqr/oZqTBlT0EQVP/i78F3pfB7IUPQGk8SkD5OpfB6TJPQD/Q
H0AGVY7BS+/8QMoSGEAofZ3BPtbfQNwkDz98kqTBl6/2QMAjekAUg57BQ6cEQQSsgEARuKjBz0/C
QAuneUC497DB+vGvQEubcUBCvqbBjO/JQJFmckCuo53B6yXvQLrUgEAL7rHBvxGFQHbuYUCL5pjB
MaTzQPothj8nJI3BedbVQFeZtD5dXbPBvJ22QPKqwL76E6LBUcbDQI1Tb7+XTLjBNQqiQCbQyL/Z
2KfBqLXDQFBqjj8tUorBUIi1QDkGFkAt1YPB2Qe8QL+EbEB0n4nB2d0OQZB4bT3KGZzB48cCQafm
Dr8BnqXBJ9SFQCsPZ0CnaKPBNamuQJUUa0CSDJXBqENBQEnYVEAWx5LBLsEAQRAXSb3e3JLBNyDd
QIzZOD6VxafB1dUGQSqM6z9jc4nBiUScQCInob/1+rLBPDMDQVAfhkCcib7BxT0FQXaKekAfbpfB
Vc8VQQJRg0CbgqnBMU+uQOOzeUBzA7jBb170QDlqGT9oRrfBT+++QKMilj9PobTBGpOeQIMi2D5V
XKHBTIfAQNrkM79ODJrBC9G9QHv3R79x4sDBvMzaQFHJ4L+EO7fB4fC2QIe3HMDjE6fB8MGCQA6p
5L8ENaTBLX6xQJR3jT/F2ZHB1sS7QAlXXD61ooXBi0yTQKwaD0Dz+YHBDwbIQA9hF0B+sXjB0yip
QMjOjkD5b4XBqS3eQMhXfUBQQInBnM4dQUnQ/L5AoprBx5MSQZiQjj/jup3B7gMNQVLIA7+XxKzB
bu79QC+5zb+7x6PB6E0OQAHxT0AWlJfBLLlHQIPqHkDSi47B/8P3QNgbdb/RkZDB1mvhQGe9jD9y
zqTBSsD2QHA7gEBU853BpgIFQapihEC+EajB/uLDQPSUe0CiprDBhNywQB/rckAqgqbBjBvKQG1w
dUDYRp3BVJvwQBhvg0BmZ7HByhCFQMEUYkC83pjB0lTzQKoMiD9O+4zBjMa8QILWDL7goaLBcLvf
QG75Bb8CDbTBWaOWQMjeeL8HYqbBN4i5QLdztL8ODLfBGjjDQL4xkT+ZGYrB6iW1QNwWF0ANiIPB
nr+6QD8ZbkAETYnBrjYQQSAQ4TzMOJvBu2sEQS+P6T7od6XBEJ2GQKXzZkDqX6PBuEWuQLaSbEAS
z5TBkm9AQEryU0Am8pLB6ukAQYjscb1sZZLBkmTlQMOY8L5TVKjBdzYGQZF/+T9WcYrBWreTQCx0
ab920LHBbkwEQX/KiUAx5b3BeP4EQbBCgUD9xpbBFCIWQYdNiEBEsqjB/3awQAOeeUAWy7fBtHW1
QAa9bD8yAKTBt3vBQKLkn74wBprB1uf8QPMxb79Zt7fBJCnaQMEp/T6RFbfBPgebQKIXAcCW3KPB
6x9yQGfaEr8Y1aLBZtq0QMDKsb91xL/BlrK/QIpaHMCJc7TByO2wQOJmkT9lnpHBLDW7QHNVbz4P
doXBMRiTQNFrD0BKhYHBbi7IQLyfGEA/Q3jBKtymQPL3jkC/LoXB/pncQI9zgECOw4jBUbcXQS59
dL9Ze5zBD54cQbfbRD+ZRpnBIH77QAcwuz8aPqTBMPUPQSof9j50HKzB02wOQB8XTkBO4pfBFQdH
QH47HkDSrI7BVvz2QJBodb/XMJDBvSDuQMowsb8G8KXBRrLzQOCqiUC+k5/BMMUCQWyLikCN6KnB
4eq+QL1WeUDvqbHBmG+tQN7ydUC5TKfBLrPHQLIHgUD9X57BnzHrQHwchEB/8LLBOmyEQD1xZUC7
HpnBTD30QMvarj+FV4/BLtrDQCLNT792JaDBTA3oQBgyF74NtbDBrIycQOq5n7/6kqbBDJHAQMDB
HL8C/rbBpmrFQE5Spj/7kIvBog64QIiRH0BolYTBm+C8QOcZd0C0PYrBh0IQQXZeOj/mJ5/BGOkJ
QTgxQL/zxqDBSC6EQBb9ZUBRpqPBh96tQOBSdkAAkpXB1T1CQBexVEBWupLBmL38QLDjtj+QM5rB
wPPqQKzdc7+kz6bBuLQIQRy5qj93zYjBZ6CaQMTA+r6babDBi8gAQUpfhUAvtr/Beb4DQbKLj0D5
pZjBEbMTQfkjkED+7arBSKmqQH+jcEBElLjBRSLAQL4EdT6fuJ3BK9rGQO7CuL87+5jBkoICQXAT
l77AkLXBWtTkQH/iaj/Tqa7Bp/KeQJWAFMCSb6jBQuB+QI4eiL8w2qHB++S8QKC2JTyEML7B/8LE
QEDz1L/LW7nBJJewQOzFoj9JqJLBTBHBQA4CwT6e5YbBY1CWQK5EF0CUTYLBVBnMQFXpH0DnsnrB
VhuqQMpwk0AQzIXBQuDeQIaohEBrIorBD2MeQVngST8I7pnB1vYTQfLWlz9F8KbB/9gWQUgaoL8n
NKXBsCsIQc+tm7/92ZjB2k4PQHsvSUCAWpfB/gtOQO1/IUCxKI7BDYPpQFI+/T8k2J7BUWXrQBkV
9L8TM6nBn7byQIh1iUDDRaDBLWsBQa2qjUAHvKrB6IO6QIQ5hUCB9rHBu8mqQE74f0BugafBp7nG
QLJ3gUAFyJ7BdMLmQKaYi0A0kbPBmLqDQOirZ0B4LJnBUSH0QFzWkT+zCpHBeWHaQK6zg7+rKbHB
EKf/QLbi27+Ox6DBHl+wQORKyr+HdqzB94vVQKZYEMCtMZzB/aDEQNY7hj8FE47Be462QGsEC0D9
ZobB65q+QMUXZkAy0orBy0UTQTYvhj8V16DBrsIMQQDIeD6x3arBMdeBQM3QcED1nqPB2RuuQL8n
cUC155XBcM1BQPoLVkCrp5LBie7+QEZuvD9pb5vBdKX0QDrwGr8HCajBatoHQeq0gD+VKYrB1pa5
QIM5KcAB46TBosX6QF6ekUBsf8DBLecDQUlSjEA/d5nBRVcSQV56kkAVAazBye2kQHNhhED5tLjB
4f7qQM/157+hvLXB7bfTQNwjML5QbLbB4SgKQTOGrb+aRZrBySkIQW2yIMAXO6XB4yqfQDgxRb/z
WKjB7VycQJb9/L8O+bLBkSXcQJRCSMCjG5fB2fvFQCdsvL8wZZfBlHyxQPnzjj9ucJXBXMK+QGV9
oT2jMIrBKxmUQOrgA0Cs14TBLV7IQL/3A0AIun3BxZCuQMxNikBpkoXBr0PhQKxickBQ0orB7dgc
Qe6/1T4+c5vBzqwcQb0Q9z/8MqPB60oIQZZ7bj/AWrHB4TMaQflKxr6Be63BEvAMQMB6UUC+IJfB
HJtLQO3CHkDI0I7BVmvqQMGNAkAYkZ/BIIbhQLOvRLxDuKPBX+/xQIAeh0Bq8qHBu6z/QMsfiUAg
qqzB2eS1QLaDfkAavbLBfo6oQHl/eEDeBKjBjV7GQOHOfkA9uJ/BGLDhQIkohUDuDLXBaZ2EQL4/
Z0CVB5nBhyvxQPKojz+LQ47Bs7jVQHh59z0g6qrBaY/vQEC0CcA/xqfBZaroQPiH0D2qN7bB/U4B
QZNuCsA+L7PBeEvCQMEhkT8SA4vBsVa3QEHzG0CnCIXB/R/CQDrdbkBLX4vBMjsQQRwulT9GQ57B
FDAOQTp+m751dKHBDICAQFYKbEAce6PB+rKvQEuUcEAyZJbBA/JFQEmDWkCr+JHBunf6QPZVxj9T
aZjBf1HvQLkjRb9Ft6PBVsMGQXjkej8MmYfBlLHqQB6Kob//BbrBVb7yQK5hiEDOTsLBiEMEQfFx
i0Cwf5vB0pQQQX6yjUDQd67BbM+eQEMjekA8JbnBN27WQD8Lkz92yafBsnC0QDtFcb7PMqvBoqLO
QLyKIsAW/qfBYpUBQR4fMsBRfqLBk07UQLInMj/+mLvBRokEQaXfBz9yDbbBnh0SQdho679u27LB
JnMAQT2vS8CodbbBs0CuQGVvhz+JOJLBvOe7QOojjT5nvoXB29aUQGbsG0BqSYPBDG3JQEzxHECM
+HrBx321QCkAk0B954bBWiHlQNhCdEAFAYzBHG0eQU6Ipj+0LJnBnMgRQV3L5D+zeqXBucwXQXeG
7b7itqjB16UUQVl5ar9g5ZrB2C4PQDurVUAvEZbBp89PQHKmJECQ1I3BEbblQBiLCkDr/pvBPSLg
QAxjSb/ZrJzBMT31QGrSe0A+3p/B7NQCQaV8gEAPUqrB4/W8QEp4d0A6lbHBEtGsQMT4cEBgGqfB
yrjIQL51dECTYJ7BCpPpQByQf0AJKrPBrf6EQH09ZkBrnpjB4ofZQGIEgz8epI7Br3/GQCbVDL9W
urLBT8n8QLVu0L+IYKbBlj3gQIgCPD+vTbHBqyIMQcQ0qb53ZKfBZFy0QGvTuT9RaofBfZq5QOCf
NUAGT4LB9pK/QCUugEDISorBNJWpQKzGhr52+5rB0rytQNHcxr/9gaHBwY2DQIZ0ZkAsJqPBQWiv
QCBlcUAUZJXBWIRDQJJ7XEBx+ZHBx+nSQCDhKj2NJJbBQtnOQC1Sxb8pKarBTlv+QNGNsD//z4zB
y3cGQcyt1z7huLDBhlH+QKdIgkDaGMDBz0EFQbV9fUAAEJnBOOETQSoBg0BUlavB9nqnQCBJdkCK
WbjBfjukQFfbmL6/rLLBW/rOQOr8f78/ebrBflgGQU6cGsDeD6vBoUr8QMEw9b8W4p3Br27aQLlk
sz/vJbjB0kXWQKspnj+I4KnBtYkJQa6Ulj4XRKDBHCEdQWsJHL+k5qfBFvCWQMi1uj/RPozBKz+x
QOYiNj8B9IDBP92cQGHRQkBRAXvBVNHVQDSyM0DLGnrBe7yuQGE6nEAnC4fBxwTiQLkdh0Cb0orB
GOCfQAkKED+VQ6DBsWyRQLwQzL6ZrJTBcrS1QCWWF8BU8ZvBm4yOQIzF4L+mQKXBpbkOQHC1VUC+
apbBH2pLQFyOKEBAZ43BxyjsQLNRAL+6cZjB3mDKQHLOGsCa1a3BWbnyQJ8tiEC7l6DB2SABQRdD
jEDrHKvBiJG5QNWHg0BWFbLBL2OqQNxlfUDmjqfBWsnGQHdngECc7Z7BGrblQCP+iUDg2LPB7vSD
QCK8Z0AdDJnBEObyQP0kkj/y8Y/BA8jEQOpKPr9VcKTBS5P+QFIxFcCOBKnBWM+xQNrobr/3rK/B
hYvrQGlwG8A4VrTBfsbDQPBHij8bo4zBqZ22QHFtEUCSl4XB2Wa/QKqvaUC0zIrBYWAQQTAsbj8o
QKDBF/0GQejufz10H6nBBZSBQGuZb0DMgaPBr4yuQKGccEA97ZXBaqVCQNU5WEBXYpLBByD8QDVx
uT+QbZrBYunzQFIBg7/LTaTBXq4HQbLKij/rOInBTtC9QA+nDsDwwLPBJAv5QP71j0AD2cDBXB4E
QXb4ikDt3ZnBLQISQdwhkUDBgKzBvqSjQHtOgkBMwbjBdlW/QH3Alj6w26HBFLK0QMUlt7+W3p7B
fDrxQEd1SMBj/qPBrscQQaUjHMBcdKnBl7iOQO0JXb99Qa/BbSa+QILkGb4qCLXBLd/5QADu07+6
eLnB3lPyQFwNW8AntLfBid6vQDo9ij8U5ZPB0E++QKbdGT4lJIjBQiSUQNx4DED77IPBqZHIQDnW
DUByEnzB7C+wQP68jUBl4IXB4jHiQJQ/dEDc/YrBO5UaQQ4DqD4F8ZrB2NEZQWqR4D82q6PBuaH5
QPwKLj/6Va7B7goUQSHDwL7p3a3B6z4NQGoNVEA/w5bBR9lLQB9FIUDlco7BeFLoQGlqBEDCSJ7B
ZVf8QNEbib+MmJzBaJT0QFDDaECN0aDBnscBQeqidEDJWqvBc8W5QLTafUD01rHBsAqrQHbQcUCr
U6fBzCPIQATTaECh5Z7BaCvmQNwwgEA507PByKCEQFARZUCWq5jBilXtQE7vRD8y7IzBLs3DQJ3k
qr/UaaTBsnz6QMAMP73JPK7BZCqkQJbDi79Qqq3BhBfbQGAYuT3ribfB/Km9QK7veT+H0orBKoSz
QDY8EEBfj4TBOh/AQEqcYkCVnIrBfCAPQfnUC79Tr5jBjIwJQQvN1b8UpaDBEP6BQFSdbUCNG6PB
+ZuvQAD8Y0COv5XBeb9DQOa3XkCIz5HBHOL2QJ5Iob6jBZPBDvXwQOb2pr+ClajB48EEQTniuj8f
64jBPOCvQFAL3T1yb7PBQLH4QJRziUAeyMDBim0FQZi+X0BLT5rBvcISQfXBdEB79KzBSEujQJmN
gkD6VrjBXcW/QFinDL9bVp7Bkl29QIJTFMBAzKDBrLwNQQ7Jjr2OTbHBQsL2QOHCTT/nu6jBjfGk
QBa8+b9CKLPBy6yDQMj9eb9saKrBq3vhQMl/gz8C3bvBvPreQCfrQr+HBb3BMgqtQP8tgz/FkZLB
8rGxQCsI7T3pOobBr+qQQK4QEkAy9YLB8BPFQBtyDkCg33nBWA2zQI8GjUBwSIbB3zzjQHYZZ0C7
2IrBodQbQZ4FXr+WKZPBmkUUQTz0uD4M8ZzB2iMYQeCh97+bFqXBCwIEQRHDIsDDD5zB2X0NQDCo
YUCwCZbBwlhGQCv7JkBx5I3BwVjgQFiqgr8HopPBBR7yQJ8xAcD5LK7Bnp/1QAVmd0AcSJ/B21ED
Qa7pgUAXm6nBUEC+QC5ag0AoGLHBOn2tQBfseUCLyKbBkeTIQF3pckAY+p3BXPbqQMf0hUBsfbLB
omKEQOPTZUDet5jBMtfvQDoNYz+teI/BorrYQNraVr5c+rXBMWbrQBRN87/Fq6jBZQGqQBxuNr94
orXBA2a8QFr0E8CvsqfBzvu/QIrRaz/I04zB8BWzQLkTBUC6WYXB7wq9QFLtXkDR8onBDogRQYz1
oz0jv53B37wKQfbtVT5An6nBV7yDQBsfcUBZI6PBbKWuQONVaEAsNpXBVRNBQCSpWEDYYpLBwT78
QMBawrvQJJfBvZvrQJH66r6SZqvBKDgFQbq8wz8jbYrBevCnQIKiBcCv6bHBXQQAQftjjkBiPL/B
00wFQeVjcUDYdJjBsm4UQSaWg0DfuqrBjBapQDE+hkD64rfB/b3qQKRjQb+zJrzBKGHZQOrxXT/L
xLfBQxf8QLZYBMAeCqHBein7QEXPHsCjBa/BCnGXQHWEmL0TLLDBBj2cQMKBJ79huL3BvTu6QGcV
WMBKjKXB/Z2sQBtf2r+GgKHBhQeuQGHwgj9AWpTBA1u3QBVM4ryO7ojBD3eQQI7ZAEDO2YPBYYDE
QIl5+z9AhHvBG62sQLqfh0AOB4XBGs/fQAiYaUCZmonByDobQWfuU78mqpzBQPIaQZ4Pdj+5YZvB
e1cJQT4Ooz9NtqvBc+wWQTkTh77yuK7BtqAMQDgeWUBu+JbBofBFQPwZIEAksY7BKhrpQC7KSr8Y
YpjBSZfXQEUkBL3eLKbB

> <OMEGA_E>
0AXfPhQS/j4sBwA/zErYPpATJj8cYi4/IDcpPwR9HT+4yhU/IKMQPw==

> <OMEGA_NBR>
    116651

$$$$
50164923
  -OEChem-04172616093D

 52 54  0     0  0  0  0  0  0999 V2000
    7.6530    4.1583  -19.9478 C   0  0  0  0  0  0  0  0  0  0  0  0
    8.1848    4.2572  -21.2472 C   0  0  0  0  0  0  0  0  0  0  0  0
    5.9347    4.0570  -22.1939 C   0  0  0  0  0  0  0  0  0  0  0  0
    5.4105    3.9454  -20.8935 C   0  0  0  0  0  0  0  0  0  0  0  0
    6.2631    3.9968  -19.7844 C   0  0  0  0  0  0  0  0  0  0  0  0
    7.3269    4.2111  -22.3682 C   0  0  0  0  0  0  0  0  0  0  0  0
    4.1540    3.5859  -19.1199 C   0  0  0  0  0  0  0  0  0  0  0  0
    7.5544    1.1990  -17.9027 C   0  0  0  0  0  0  0  0  0  0  0  0
    6.0747   -1.3376  -23.0375 C   0  0  0  0  0  0  0  0  0  0  0  0
    5.0447   -0.3596  -22.4295 C   0  0  0  0  0  0  0  0  0  0  0  0
    7.3978   -1.4036  -22.2430 C   0  0  0  0  0  0  0  0  0  0  0  0
    4.8217   -0.6522  -20.9315 C   0  0  0  0  0  0  0  0  0  0  0  0
    7.1292   -1.6651  -20.7466 C   0  0  0  0  0  0  0  0  0  0  0  0
    6.1549   -0.6311  -20.1558 C   0  0  0  0  0  0  0  0  0  0  0  0
    9.2315    0.8052  -19.7221 C   0  0  0  0  0  0  0  0  0  0  0  0
    6.1015    1.1649  -17.3367 C   0  0  0  0  0  0  0  0  0  0  0  0
    6.7481    0.7919  -20.2246 C   0  0  0  0  0  0  0  0  0  0  0  0
    5.7255    2.4197  -16.5268 C   0  0  0  0  0  0  0  0  0  0  0  0
    5.9509    3.7582  -17.2710 C   0  0  0  0  0  0  0  0  0  0  0  0
    4.1217    3.7080  -20.4303 N   0  0  0  0  0  0  0  0  0  0  0  0
    5.4661    3.7729  -18.6821 N   0  0  0  0  0  0  0  0  0  0  0  0
    3.0524    3.3016  -18.3270 N   0  0  0  0  0  0  0  0  0  0  0  0
    7.8353    0.9870  -19.2619 N   0  0  0  0  0  0  0  0  0  0  0  0
    8.4765    1.4051  -17.1218 O   0  0  0  0  0  0  0  0  0  0  0  0
    7.9926    4.3384  -23.9747 Cl  0  0  0  0  0  0  0  0  0  0  0  0
    8.3026    4.2057  -19.0863 H   0  0  0  0  0  0  0  0  0  0  0  0
    9.2499    4.3685  -21.3871 H   0  0  0  0  0  0  0  0  0  0  0  0
    5.2783    4.0250  -23.0509 H   0  0  0  0  0  0  0  0  0  0  0  0
    5.6302   -2.3436  -23.0596 H   0  0  0  0  0  0  0  0  0  0  0  0
    6.2998   -1.0137  -24.0644 H   0  0  0  0  0  0  0  0  0  0  0  0
    5.4153    0.6698  -22.5437 H   0  0  0  0  0  0  0  0  0  0  0  0
    4.0887   -0.4665  -22.9631 H   0  0  0  0  0  0  0  0  0  0  0  0
    8.0191   -2.2175  -22.6449 H   0  0  0  0  0  0  0  0  0  0  0  0
    7.9310   -0.4475  -22.3514 H   0  0  0  0  0  0  0  0  0  0  0  0
    4.1504    0.1119  -20.5125 H   0  0  0  0  0  0  0  0  0  0  0  0
    4.3596   -1.6447  -20.8244 H   0  0  0  0  0  0  0  0  0  0  0  0
    6.6959   -2.6697  -20.6322 H   0  0  0  0  0  0  0  0  0  0  0  0
    8.0815   -1.6119  -20.1985 H   0  0  0  0  0  0  0  0  0  0  0  0
    5.9591   -0.8851  -19.1035 H   0  0  0  0  0  0  0  0  0  0  0  0
    9.2422    0.6535  -20.8115 H   0  0  0  0  0  0  0  0  0  0  0  0
    9.8196    1.7002  -19.4709 H   0  0  0  0  0  0  0  0  0  0  0  0
    9.6698   -0.0729  -19.2254 H   0  0  0  0  0  0  0  0  0  0  0  0
    5.4018    1.0730  -18.1804 H   0  0  0  0  0  0  0  0  0  0  0  0
    6.0040    0.2864  -16.6819 H   0  0  0  0  0  0  0  0  0  0  0  0
    7.1380    0.9642  -21.2387 H   0  0  0  0  0  0  0  0  0  0  0  0
    5.9506    1.5186  -20.0100 H   0  0  0  0  0  0  0  0  0  0  0  0
    4.6604    2.3500  -16.2610 H   0  0  0  0  0  0  0  0  0  0  0  0
    6.3324    2.4307  -15.6095 H   0  0  0  0  0  0  0  0  0  0  0  0
    5.4245    4.5508  -16.7190 H   0  0  0  0  0  0  0  0  0  0  0  0
    7.0303    3.9702  -17.2767 H   0  0  0  0  0  0  0  0  0  0  0  0
    2.2414    3.2059  -18.9043 H   0  0  0  0  0  0  0  0  0  0  0  0
    3.2106    2.4482  -17.8304 H   0  0  0  0  0  0  0  0  0  0  0  0
  1  2  2  0  0  0  0
  1  5  1  0  0  0  0
  2  6  1  0  0  0  0
  3  4  1  0  0  0  0
  3  6  2  0  0  0  0
  4  5  2  0  0  0  0
  4 20  1  0  0  0  0
  5 21  1  0  0  0  0
  6 25  1  0  0  0  0
  7 20  2  0  0  0  0
  7 21  1  0  0  0  0
  7 22  1  0  0  0  0
  8 16  1  0  0  0  0
  8 23  1  0  0  0  0
  8 24  2  0  0  0  0
  9 10  1  0  0  0  0
  9 11  1  0  0  0  0
 10 12  1  0  0  0  0
 11 13  1  0  0  0  0
 12 14  1  0  0  0  0
 13 14  1  0  0  0  0
 14 17  1  0  0  0  0
 15 23  1  0  0  0  0
 16 18  1  0  0  0  0
 17 23  1  0  0  0  0
 18 19  1  0  0  0  0
 19 21  1  0  0  0  0
  1 26  1  0  0  0  0
  2 27  1  0  0  0  0
  3 28  1  0  0  0  0
  9 29  1  0  0  0  0
  9 30  1  0  0  0  0
 10 31  1  0  0  0  0
 10 32  1  0  0  0  0
 11 33  1  0  0  0  0
 11 34  1  0  0  0  0
 12 35  1  0  0  0  0
 12 36  1  0  0  0  0
 13 37  1  0  0  0  0
 13 38  1  0  0  0  0
 14 39  1  0  0  0  0
 15 40  1  0  0  0  0
 15 41  1  0  0  0  0
 15 42  1  0  0  0  0
 16 43  1  0  0  0  0
 16 44  1  0  0  0  0
 17 45  1  0  0  0  0
 17 46  1  0  0  0  0
 18 47  1  0  0  0  0
 18 48  1  0  0  0  0
 19 49  1  0  0  0  0
 19 50  1  0  0  0  0
 22 51  1  0  0  0  0
 22 52  1  0  0  0  0
M  END
> <OMEGA_C>
SuX0QN4QhUALlZ/B9/QCQSg7iEAy+qnB/ui9QLrSgUAljbHBmSKtQDeCfEDnJafBLGvIQMLLf0B/
Rp7BEHbqQGHBhkD68bLB+e2EQMt/ZUCk9ZjB073xQDl3mT+8OI/BqWPCQOk2q7/fTLjBUG6hQKoe
uL6kb7PBKrvsQJins7+V8bHBWkuaQEX1Jr+4c6fBbCLkQG0i1b/++KXB1vTEQOaSIb8EP6HBFbQT
QXwkTj/Zxp3B3z/DQJwblT92sYrBQvDXQJq5Sj/+y6HBMTe3QBrcGkDtNoTB4m2+QA6HcEAWK4rB
veSDQItPbUBbcaPBLequQHV3cUD3dJXBK1pDQONNU0DGnZLBHLv6QBerfD9sGJrBoZ8HQd/Ysz9/
+YjBOsP/QO7TikAlzL/BodcEQbGUhkDIsJjBl/8TQaXKi0DhGKvBfOeoQKnMgEBPaLjBPyq0QN/8
FcD+ebjBDZjJQK2/gb/Og8DB50mtQD53Kz9rWbTB6taCQBfU7r5dtLfBNU4AQSLrDcDRKLXB08r9
QAsi5b6Yz7LBUNCEQGE05T2gGaTBKoKLQJWE0r9zmKbBF0XWQEjcKsClDqXBpE0BQWdSzr+LlqHB
9LC+QBWTYr8K1JjBBOATQWhKJz//fabBPR0dQSWg2T9exJvBTbcaQVhRlb2FzZnBI9usQMBWiT9c
cZHBmCDAQEKfkj6YdIXBWWrkQEnVdj/C6KnBr2u+QERgwj9+FKDBwSGVQO9mFkB4FoLBGKPKQBWQ
G0BmwHnBcZWtQPyfkUB5wIXBBvjgQHAYfkDGNorBsXMPQPssTUD1O5fBD3pNQAevHEDBpI7Bt7D2
QKh+ekBf4Z7B0lwEQSk1gEC7K6nBoS3BQFJGekDvI7HBAGivQHQ7c0A116bBhfLJQBbXc0DH053B
DwPuQOdEgEAlSbLBN2WFQMhEYkAF25jB427vQFziiT+PvI3BiNm9QIxqu7906rbBEUXoQLc0Tb9q
kLPBZwigQJZi3L/qR63Bw/beQAE0+j6NWq3B/OaXQDYH277p8KbBFznCQAxWbD6cf6PBxV8TQfBp
mz00zZnBusDAQEi/kz9wV4nBOOTYQGnlJL8I8ZrBOLq1QJb7HEBUSYPBbCS9QFY+cEDkvYnBXYiF
QLAUaEB6XKPBYy+vQG7Aa0DEIZXBHYxCQFSQVEBypZLBzYv6QNSeBz6Cj5XBzMgFQQCk4D90kYnB
sUoCQZJ/g0CgA7/B53UFQV0Me0Ax4JfBr4EVQQtvgkA6GarBP7qsQILiekDZGrjBp1OtQLK1Tb+k
nLzBOvzEQHs0G8Bpz7rBFXb6QEwZv7/ucq7BYyP7QAw/EL+hvrrB3UqBQGw2B8CRNrDBfQSvQBGm
HcAL+KfB3HH9QNQMbD9zpKrBea/OQNBzmT+gs7LBJ+yFQLQQjT6i/6vBZgOFQAClKr/tw5/B7rC6
QFDpmT/t05/Bi4gUQYFlOb8T0J/BQ28XQYUXhT8ihp3BSJQeQSvHBL68N5PBCamqQAz7hz8jJ5DB
5+27QIUPnj7314PB4kTBQBxHer/s/JTBnlHnQCqvwr/j157Bs8KTQEVVGkBhAIHBeaLJQCjGH0Ad
E3jBVlSrQBkdkkDC0YXBg5DfQB3pfkADl4nBgyoPQBnYT0AZYZfBKYpJQMxdHkBve47BPJv2QDxj
fkBXZZ7BhKsEQeQwgkABnqjBgVDCQC42gEAc4rDBRcqvQNaPeUDnp6bBbsXJQDLmd0B3hp3BykLv
QDt2gkAP2bHB7AyFQOXnYUDd95jB+DX3QHYPeT9CuY/B+uOQQISFlr+/yq7BPDi3QLYxCcBZAa/B
OYOYQABA3LxO76bBeRjhQAT8sr88nrHBhUbDQKyDLz/KhanB/r3pQLhGhr4JnKnBBagbQfDi4T65
0prBT6/GQPyFZz+fCY3B+v/yQIjcUL/FMp7BKXa2QMZOAUARZ4XBzhS8QKAzXkARrYnBWr+FQBnd
bECPZ6PBPZuuQIY9aUCNB5XBL0dBQHXPUEBZ/5LB3D8FQRwENT5/uJfB0hMHQd7B2D/DPYrBYl0D
QWz8hEA+fr7BKzAFQbHCfkAuT5fB5tgVQQNJhEARZqnB7VKuQDEdgUB07bfBzSGMQDzmQr8K27bB
PCJoQMQ63b92WKzB9Uu6QGvmJ8C3H6fBLpOxQO1mOsBnI7XBATJ8QEIhMj/hkafBv8uZQKp32r4v
vp7B2dj7QGAwB8DWU7HBAbTeQBfxeL+vtbnBRZDAQCO2kz+/dLHBd9vIQGY3uz+7c6PB4wUDQW1P
mD6dUKzB3YMgQWzOiL4TGqHBSAwdQdEYvD+L3p3BCBkmQQ8Roz6yzpPB9qy0QCloej9Yk5TBnjbA
QAdfi71/QYnBUn3UQM+Ghr+3O5rBby0DQRSK3b9V357B/y2UQHcD7T927oPBUyPIQPvW9z8fpXvB
VcyoQAO1hEB5rITBlhHeQLy9b0DnA4nBLm4OQLkoTkAk2JfBfyZIQH61GECaPo/BBOX2QKiSekBv
b57BpcUEQTMGgkB1nqjBUo/CQAYDf0Ck47DBpC+wQNGRdEAWtKbBFB/KQJ3SckBilp3BdGPvQGlt
g0Cr07HB5jCFQKMUYUAm+ZjB9iH3QEt5jT/pa47BWgWfQCzMe79fobbBzLLKQKK4kr6E8LfBStWJ
QKyXFr+f/qvBVIToQHyTIb8Em67BpMamQAIffb9duqLBjvXSQLCFoL4Yx6PBNusYQQ7KET88YpvB
dpfGQB0uhT/gmYvBthzvQOT2VL+kmprBeEi2QNKHDEBDgITBLp+7QPREZkB3lonBQA2GQPxUaUDZ
caPBrK+uQMo1aUAyC5XBz2tBQAgyUkAy8JLBYmwEQXK0fT4TH5bB11kHQUCM7j/Ed4nB/kUDQcVR
ikCvZr7BlVgFQRxDeUDzWpfBau8VQVKWhEAAZKnBXYyuQFiBgEDS7bfBqP6JQC43ML/rR73BVL+j
QKCzBMCLx7bBuYXZQBgkHr/zd7/B78/FQK1oTT+DLbjBBLCEQBbf/z7G1avBT8VVQB1Ejb+8O6vB
VVbwQFX72b9o6a7BawoDQQvaJ72MU6/Bjt2XQA6TLb9rJ5vBj+6qQAAwBcC9waLBZCTPQIGRRj/d
/6LBFQAdQb03Z75MHKHBZHEXQUp2wz/App/BxZglQcW+JT/ST5XB+VW0QMH3hj/NH5PBX5PAQLZ3
wT2xXofBgIbaQMr2n78LTJTBpzsCQbQSz78prJ3BhxOUQFIMAkAm5ILBYSjIQI9PC0Db13nBYcmn
QBUAikCoGIXBqHTdQPEYeUDk/YjBV4wOQJi7TkDhxZfBw8xHQPQKG0B29Y7BPJX2QEj5e0CkmZ7B
V34EQUxzgUBK1ajBZsnBQPKwe0C/+7DBZKOvQLDSc0B1u6bBxNLJQDrZdEAIqp3BEp3uQMnMgUBx
AbLBRCGFQBxkY0CY1ZjB9NrwQJWxkj/z9I3BohOkQNKMEL9nVLjBkk+gQBgj778W2LHBrr7PQIRv
7T32pLbBXtWpQHBQz7+B/qXBHMnXQBSKvD4UtqrBcpHWQAaBfL/ZtqTBLdkUQTYOTj6u15nBrpXB
QHh2mz8ALYrBwovgQAJ7Zb+vtJjBOri1QHWCHUDckoPB+DW8QBGackBWoInBNqiFQHs+aEBtWKPB
CrGuQCx8bkBHCZXBfelBQIGxVECjq5LBJCD9QFkiZj4G1ZXBAxUGQd006j/kgonBds0CQahKh0AO
o77BdUUFQWkefED7i5fBUaYVQc/Xg0DArKnBjqKtQPOue0CoALjBfzKgQPgOTL9J4MDB3p+KQPim
AD7yybXBxj9/QKLjEMAgprLBiUq3QL+VJsBX/bTB3STpQHHtCL8Gz7nBlyDQQBLCiT9t77rBXZWR
QLE1cL9UrqLBndmoQGDaJMCapqHBnVT3QL9iVj+moqnBUtK+QBJEhD9HhafB/STuQHoV1L8KcqjB
Qn0WQS25Fb978Z/B4skYQeOolj8NZZ3BmdQfQZWCursGK5PBfP+sQGfWmD/cT5HB1ym7QAYopz7H
PIXB2TXCQOqtRb+pWpTBPO7vQCn36r/8N5bBONeTQFOTGEA3RIHBTcHJQMeNHkDJrXjB12WpQK1P
kkAsmYXBEl7eQBC6gUB+VYnBufEOQKllTkDJcZfBCNNJQFcQH0AKa47B7dH2QL4Pe0AKsJ7BcpYE
QZUqgEAP76jBPbbBQBN9f0Aq/rDBxJ6vQHHJdkAnv6bB4wLKQF3QdUBVt53BI67uQNxfgUC8ErLB
43OFQC38YkCM1JjB4e3rQDaEiT97OI3B+bTHQLOhG78tirjBqse1QP9XEj9OLrLBx/a3QCgs9b/W
jLPBGArGQO/QBD8YpKbBIeHIQLemAsCiJajBfAO8QOlTV7/AH6HBCKYPQcTKHr50/JjB3ga+QDpY
oj/FxojBfRDTQKQAg7+xNZbBW521QN78JUBa5YLBBOe8QI/SdkDkuInBVbeFQHmkaUCsVaPB7hev
QN5wbkCbEpXBhelCQFMvU0Afo5LBk6H0QIBRQbxY7ZPBLqAEQTpO5j+zOorBPeACQUHtg0DGwL7B
jmwFQZkJe0B6pZfB98QVQS9EgUDaz6nBGGutQJrRgUCY97fB9a28QJWjC7++4cDBw+LqQFdPFL+P
VrjBXzPAQL+pwT8r6rXBYp2SQK/SBT/JMLLBv8SUQAbM9b/xabPBrIXDQPfmMMBkWLjBHOfoQBGp
Kz//qqbBL6i2QOqWqT8tDaLB1uK7QHRyPcAej6TBmgHsQGCmBsAyaqjBRU+ZQDJIZL9qtZ/Bz+0P
QYpTiL+i7Z3Bi98SQdy9OD/vDJ7BCPobQcxJab6Su5LB05+nQMeamj8BjI/BpIi3QP3k5D7NJoPB
/N+6QEvWd78J1Y/BuR/iQFghAcCZIpbBTCmUQLENJkCGKIDBdhTLQL8WKUBQ3XfBku2qQJnvlUAn
FIbBI0rfQM3rgkASn4nB86kPQCmpTUAOYZfBbRxLQDHaHEAUiY7BsFv0QPXJgUDnyJ/BI24CQcm9
hUBVOqrBbDS8QMdig0Dai7HBg+6rQBhFfkAfHKfB7sDHQKHxfEDgVJ7Bos/oQA6xhkAXF7PBHPWD
QMZeaEAL4ZjBj+HwQNb8gz/95JHBv5f/QGgP/b+/qLDBiqrVQKwO2L9b5LbBwiz5QDiaGsDU3KTB
RDKyQFNldb8Fe7DBZDzRQFAh6b+wX5/BNIu/QBctEr/hDqXB7jgWQWvlJz/cxJ7BPSHBQFjQgz9w
lo7BSg/fQOvyIz9XZKXB/DW2QOffBkDrNYbBjze+QBT4YkB9VorBh56CQLTOcUALVKPBdU6uQGDn
b0AheZXB1HNBQJMHV0CJfJLBWg3+QIKoOz9YY5zBh/EFQSmsnD9w8IrBG1j9QDr2i0CD/7/BdNAE
QYROgUDh+ZjBpH4TQRsMiEDDdavBfsCmQAEdhEBXUbjB4G4IQULcMcBt27TBuIsJQXfWh7+LsbDB
OszdQOtPiL+S2r3BoJnIQDCTKcBRpbnB5Gr2QHPFYMCvrqTBY8QKQRzDBsAJR6DBSXapQHMAKb2J
0bTBrS6WQFGSz799+q/BfQq4QGK3JcD+PJ/BIsXZQOb9xb+mH5fBaquiQKqrfb6AvaDBj4cYQdez
1D5GR6fBXccdQXnTzz9r+ZzBy5QdQXrdA76u0ZnBZZGtQB2hmj9nw5XBXEi5QLckMj2lOIvB1Hzx
QJnnEj/o3qzBVdnLQJr0xz+PbKXBsDuUQBmwAEC3C4TBpx/KQNpk+D/eJ37B1rStQOojiEAYBIXB
QNTgQLi2b0AmLIrBHAwNQGnuUkDSDJfBdnpKQNaTH0Clp47BXo3xQFxQkEBgzaDBYOwAQeFgkEDb
UqvBHP+6QMQ7fEBrR7LBbCerQLQWekDOwafBJhTGQOMIhkAhFp/BBIHmQKGph0CwDbTBLFuEQEbt
Z0C6QpnBtAoBQaY5dj9SSYzBxOqhQB3Em7/FjbDBkiCkQC0os796YqTBGinPQCcwm793X7XBIli+
QAT8jr5FWZ/B/o/pQGDRir0Hp7DB1qLrQKiLI75mXqTBQGQhQfTCmT4G25bBqiHXQGgZ2j/rzIrB
x+cAQecbjz9SY6DB8KjgQIavSkA96YfBvIe7QDfTg0B3qYrB+vqCQDT3ZUBWw6PB3jytQBkhgEBT
CJbBfJ9EQPwbVEA3lZLBodoLQVOiZj/oMZbBFJQKQeTUJD8hHYTB/E/6QE9viUDkF8HBXQwDQbQK
mEDrIJrBLqURQZ4al0BRtazBvf+lQPdab0Ax87jBl2ePQDvFAsAxELTB3BaSQH/Lhb6RYbLB9oaD
QCbVsL+REaHBKDizQMl5F8CTjqLBPfTeQLnUCsBxkbPBNufMQM7Kir9FGL7BKk6tQLEgLD8PgaDB
N73BQMj29b4ivZbBuh8FQZ6v7b1Z5bPB8sjaQMnGYz/T6bLBwMv+QM2mhL9GEKLBsiEnQRR0sD62
Kp/BZHAsQUuBWz8+p5HBx6cgQfexP79rPJTB/JnEQOrX1D91RpLBZ7LEQEWqnT8pU4TB6rMMQZU0
uD9YZKbB9prpQNPx8z92Vp/ByermQBSfTkDMh37Bi0b9QHVWX0CGVozBaEWgQOSveED6aoXBYRHG
QNXnpEASNonBeqkRQFNDRECg/5bBzaZUQFjdIkDl4Y3BgJP0QOyNhUC8uZ/BI7sCQaOPiUAvHqrB
EZK9QLbBgUBTrrHBIPSsQALSekCsSKfBQjzIQF+mfkB4bZ7BbPvpQGfMh0BYFLPBL7qEQBlbZUDL
FJnB+zf4QH6Pmz+m5Y/BbeCZQERrg7/kDLLB/vKYQB+JUL8V16XBxprBQNhBwr59NbfBotvCQN5f
qb/DuKDBm7DqQK+4b78UGrLBDinrQG2yMr9Y7qXBGukbQT1EYj8otZvBLazHQGUakj9TRI3BScbu
QOR+Uj8uxqPB4qC4QKgjEUAAq4XBpj6+QA7Sa0CmY4rBBbmDQNbAa0A3kqPBYK+uQBuZcUDLnJXB
FidDQAWXU0A7rZLBlZoEQea1iD+RSZrBLHgIQbykrT8cXojBdgX/QAVPjUBj7L/BgK0EQUA8h0Cf
1ZjBq7gTQRb8jUBfPavBJY2oQAB8gEAqiLjB/EWaQBTSBsA+ubPB+Ot5QA8dFL/Hj7XBoUKVQKUl
hD6iH6TBP357QJQCr7+WbaLBdMjBQPxrGb/J1L/BzWLAQIeaNT9t/rXBEp3CQEG4iL9xKZjBFWfE
QEqgGsBxpqHBLYbsQGwgAcDtp7PBc0UDQZlu375ts7XBVcsDQel/mL/Tj6LBKZcfQaN6ST84R6TB
rm0kQfd84D9baZjBYw0hQall17yifJfBp461QJ/Lmz+nyZTBTALBQFMpMD7FdInBzH/9QNrzpz+R
varBtJvOQC9dnj9Rc6LBJ4SWQMk7B0CO4oPBH0PLQD8LDUB7cHzBUiKsQCq7jEBXc4XB+2rgQDak
fEBzNorB2TUPQHB+TED1Q5fBJLJNQN2XHUDglo7BQd3zQB5sg0AcQaDBM/ABQfZXhkDHxKrBceu6
QLotgkC53rHB+CerQDaAfUD+XKfBOWrHQN4BfkCFqp7BhnXnQHd6hUBXkLPBzBmEQHLRZkDp+JjB
monvQLQgfT9o/pDBAJQCQfADH8DliabBZnEFQTn50L9CurDBesLVQBBPMcDKQ6TBXMjjQET+P7+3
X7PBaJK+QCmtu79we6HBY7nHQDwHqL43ranBY40TQc7TVz/8Op/BtvDAQC0cdD+Pn4zBf3fYQPX8
dT//d6TBJ7y1QJgWC0COjYXBE3a/QHplY0DKqorBMBWCQOy1cEAcaqPBxbmuQPZTbUAZwpXBsDlC
QOifV0D4aZLBOaT5QOxYWz8195vB0D4GQf7pkT+JeYrB74b7QJlph0DsksDBw68EQeCNhEBbf5nB
m/ISQRQ/iUCTG6zB7CSlQPVIgkBGlLjBIAsLQa4nXMCCmKfB8nMJQYus+L/0sZ/BjGsTQYOQer88
na/BRlIIQcfKE8DJg7fBGfPGQGP5TcAQZqvBEivTQDsMXsBRgJ3BRIXvQAPwKT69Q7fBKlfPQC1H
p7/u+7jBXeybQKNj1L/rVaHB4yPJQJNCkb+OhJnBSl2oQA8dib1rFa3Bg6AUQW4CPD+K+KfBUjMb
QVyU5D8Jy5zBEsAbQa/7l7q7WpvBYcOqQMEubj9gdJPB3+a8QNi4Iz2404fBzvzlQMhdyj9G56rB
l768QC69vD8T7qDBklOTQCF0CEAPuoPBQC3IQCIWBkC/KnzBpfewQH+oikBHoYXBLmHiQN8jbEC3
3YrB/v8MQBdyVUAY2ZbB6/xJQE/EH0CpoY7B

> <OMEGA_E>
oDEmPtgJRD5wek4+ALpqPkCoiD7AhI4+iGSWPhz+lj7w/uY9VLuzPg==

> <OMEGA_NBR>
    125718

$$$$
50164915
  -OEChem-04172616093D

 46 48  0     0  0  0  0  0  0999 V2000
    4.7205   -0.4944  -21.4242 C   0  0  0  0  0  0  0  0  0  0  0  0
    5.6480   -1.0312  -20.5108 C   0  0  0  0  0  0  0  0  0  0  0  0
    7.6809    3.4518  -19.9560 C   0  0  0  0  0  0  0  0  0  0  0  0
    5.1587    0.3754  -22.4400 C   0  0  0  0  0  0  0  0  0  0  0  0
    8.2349    3.6767  -21.2316 C   0  0  0  0  0  0  0  0  0  0  0  0
    7.4475    0.2145  -21.5970 C   0  0  0  0  0  0  0  0  0  0  0  0
    5.9894    3.9945  -22.1581 C   0  0  0  0  0  0  0  0  0  0  0  0
    7.0101   -0.6535  -20.5734 C   0  0  0  0  0  0  0  0  0  0  0  0
    5.4410    3.7435  -20.8854 C   0  0  0  0  0  0  0  0  0  0  0  0
    6.2806    3.4884  -19.7938 C   0  0  0  0  0  0  0  0  0  0  0  0
    6.5246    0.7032  -22.5435 C   0  0  0  0  0  0  0  0  0  0  0  0
    7.3927    3.9665  -22.3276 C   0  0  0  0  0  0  0  0  0  0  0  0
    4.1287    3.4715  -19.1360 C   0  0  0  0  0  0  0  0  0  0  0  0
    7.9219    0.7522  -17.8821 C   0  0  0  0  0  0  0  0  0  0  0  0
   10.1112    0.0822  -18.9030 C   0  0  0  0  0  0  0  0  0  0  0  0
    7.9866   -1.1633  -19.5259 C   0  0  0  0  0  0  0  0  0  0  0  0
    6.3733    0.6365  -17.7607 C   0  0  0  0  0  0  0  0  0  0  0  0
    5.7120    1.6599  -16.8121 C   0  0  0  0  0  0  0  0  0  0  0  0
    5.8746    3.1310  -17.2859 C   0  0  0  0  0  0  0  0  0  0  0  0
    4.1260    3.7057  -20.4319 N   0  0  0  0  0  0  0  0  0  0  0  0
    5.4454    3.3538  -18.6999 N   0  0  0  0  0  0  0  0  0  0  0  0
    3.0021    3.3774  -18.3310 N   0  0  0  0  0  0  0  0  0  0  0  0
    8.6418   -0.0531  -18.7902 N   0  0  0  0  0  0  0  0  0  0  0  0
    8.5256    1.5486  -17.1694 O   0  0  0  0  0  0  0  0  0  0  0  0
    6.9519    1.4575  -23.5769 F   0  0  0  0  0  0  0  0  0  0  0  0
    8.0882    4.2335  -23.9100 Cl  0  0  0  0  0  0  0  0  0  0  0  0
    3.6741   -0.7498  -21.3453 H   0  0  0  0  0  0  0  0  0  0  0  0
    5.3185   -1.7338  -19.7597 H   0  0  0  0  0  0  0  0  0  0  0  0
    8.3225    3.2531  -19.1103 H   0  0  0  0  0  0  0  0  0  0  0  0
    4.4485    0.7910  -23.1394 H   0  0  0  0  0  0  0  0  0  0  0  0
    9.3046    3.6276  -21.3714 H   0  0  0  0  0  0  0  0  0  0  0  0
    8.4865    0.5035  -21.6546 H   0  0  0  0  0  0  0  0  0  0  0  0
    5.3436    4.2065  -22.9974 H   0  0  0  0  0  0  0  0  0  0  0  0
   10.4882   -0.6243  -19.6571 H   0  0  0  0  0  0  0  0  0  0  0  0
   10.3626    1.1096  -19.2051 H   0  0  0  0  0  0  0  0  0  0  0  0
   10.5753   -0.1379  -17.9302 H   0  0  0  0  0  0  0  0  0  0  0  0
    7.4405   -1.7922  -18.8073 H   0  0  0  0  0  0  0  0  0  0  0  0
    8.7609   -1.7646  -20.0249 H   0  0  0  0  0  0  0  0  0  0  0  0
    5.9418    0.7729  -18.7633 H   0  0  0  0  0  0  0  0  0  0  0  0
    6.1348   -0.3724  -17.3930 H   0  0  0  0  0  0  0  0  0  0  0  0
    4.6381    1.4312  -16.7455 H   0  0  0  0  0  0  0  0  0  0  0  0
    6.1704    1.5608  -15.8171 H   0  0  0  0  0  0  0  0  0  0  0  0
    5.2687    3.7760  -16.6326 H   0  0  0  0  0  0  0  0  0  0  0  0
    6.9347    3.4104  -17.1960 H   0  0  0  0  0  0  0  0  0  0  0  0
    2.1823    3.5151  -18.8868 H   0  0  0  0  0  0  0  0  0  0  0  0
    2.9696    2.4719  -17.9078 H   0  0  0  0  0  0  0  0  0  0  0  0
  1  2  2  0  0  0  0
  1  4  1  0  0  0  0
  2  8  1  0  0  0  0
  3  5  2  0  0  0  0
  3 10  1  0  0  0  0
  4 11  2  0  0  0  0
  5 12  1  0  0  0  0
  6  8  2  0  0  0  0
  6 11  1  0  0  0  0
  7  9  1  0  0  0  0
  7 12  2  0  0  0  0
  8 16  1  0  0  0  0
  9 10  2  0  0  0  0
  9 20  1  0  0  0  0
 10 21  1  0  0  0  0
 11 25  1  0  0  0  0
 12 26  1  0  0  0  0
 13 20  2  0  0  0  0
 13 21  1  0  0  0  0
 13 22  1  0  0  0  0
 14 17  1  0  0  0  0
 14 23  1  0  0  0  0
 14 24  2  0  0  0  0
 15 23  1  0  0  0  0
 16 23  1  0  0  0  0
 17 18  1  0  0  0  0
 18 19  1  0  0  0  0
 19 21  1  0  0  0  0
  1 27  1  0  0  0  0
  2 28  1  0  0  0  0
  3 29  1  0  0  0  0
  4 30  1  0  0  0  0
  5 31  1  0  0  0  0
  6 32  1  0  0  0  0
  7 33  1  0  0  0  0
 15 34  1  0  0  0  0
 15 35  1  0  0  0  0
 15 36  1  0  0  0  0
 16 37  1  0  0  0  0
 16 38  1  0  0  0  0
 17 39  1  0  0  0  0
 17 40  1  0  0  0  0
 18 41  1  0  0  0  0
 18 42  1  0  0  0  0
 19 43  1  0  0  0  0
 19 44  1  0  0  0  0
 22 45  1  0  0  0  0
 22 46  1  0  0  0  0
M  END
> <OMEGA_C>
aQ6XQEwd/b7HZKvBmLy0QEz9g78iFqTBiMn1QJLpXEDUpZ/BXxSlQNgvwD4PhbPBAcIDQWRPa0A3
2qnB1lHuQBKxWz6PxqzBdqm/QKClf0DfQ7HB0lLgQMJLJ79RlqTBkByuQLKUb0BCFafBhvrIQDZC
X0CmWZ7BMcnQQB4GND8jWbTBS5HsQJzafUD/nrLBnh6EQCQtXkB2FpnB93/9QCCPQD9yDo/Bksch
QeBEqD0+OZfBWpL/QBjolL8MNZzBw/HLQBvxIj/dFY7Bf8i2QFl41D81f4bB2vy7QA5iSECdSYrB
7QeEQNwpbUCfdKPBfECuQOCjVkBrmZXB3SJAQBonWEDVpZLBwEQKQYCiWb1LUpbBrWgIQcA3xj/8
WonBKHbeQNaQuj+FnbzBOGkBQeZ4h0CkR7/B1yRrQHfzP78xw6rBDTGqQOLr3b/bE57BHCkFQaMy
UEDh4ZjBE1qOQBWASj95HbnB098UQe4paECX+KrBzsgHQYbjAD+vPK3BjP6qQAWchkCY+rfBs88n
QSPSH7/PQZ3BOM0lQdEFjj/+o5nBajQpQRI6Db4YcY/BiBjuQH9l5b9vdZbByCwMQR3d4b/pMqDB
KSO+QLvcRT81G5bB7U/EQJewvr7oJIvBKmuUQG8xtz/G9oXB0HPFQOvIxz/fEn3BbJmoQD2qcUCa
D4XBXOndQFlDWkBfkYnBlaoLQMz2YEAYGJfBpg4+QMMzHkA5Q4/BBkjNQO/RiL/rlrXBWEnsQJzV
lL4xYLDBzPTwQEVVkUB926DBmaqpQAmuxr/u3a/BS4oAQZ2XkUDsZavBqPHFQII8FL+IhZ/BETO6
QD4mfkDsSrLBrsDnQACINDoDbqXBIoiqQG6he0AfwafB8pLFQI69hkBlGp/BBzGmQJUiqL8YzqTB
SKTlQGbNiEBZG7TBIvWDQK4daUD1OZnB2+wAQbRkaT/W8YzBt2AgQfCdLz7Y55fB34IAQXQFkz9h
76DBSOHWQOlM1D8bYYvBUsfgQC9BR0AlQojB9Lq7QC+jgkDtrYrBRGaCQBCQZ0CLuqPBhf6sQKE+
gEAeB5bBWOtDQGWyVUBRhJLBBVgLQXx4Uz/C8ZbBHKcKQSogFz9y1oTBdG6DQEHx3b9WUp/BAD35
QCyzikBWK8HBDrrQQI4Npr93/b3BXscDQT7cqj03wrTBHccCQf8lmUBhM5rBR/uQQIDWBsCb+bPB
JjsRQeaFmEAV0KzBDpvEQBNJ6b7Z8ZbBHR2lQBVHcUBK8rjBX7olQRPIVT6sSKDBqAssQeC0MT9x
0JLB7xAfQeGUYL9vVZXBpp4MQTs+uT+d26bBUw7rQEqM/j/Oep/Bk2/EQL3Q0T9435LByUPEQK5l
lj+k/YTBN5HnQJF+SUCaQX/BdS/9QKFpXEBVu4zBF6agQOF3dUCfaoXB+YfGQE17o0AkB4nBcKMQ
QLN4RkCi6JbBfq5TQFAlJEBP2o3B1q2bQJF9/L9p1abBeifDQN2AAcBSa6HB1nD2QJW8ckBWgZ7B
oTSWQC5yi79sg6/BAaEEQcEjh0D6JajBM6LfQA/LmL5DUq3BDSXCQDDFkUBT76/BiRPlQFJXlr9e
kaTB5IqvQHxqg0AYUabBJH7JQOR4bkCUtJ3BVju4QPPEg76jybLBYyrvQC5+k0Ba17DB9AaEQHZt
YEDoS5nBzikAQaSzSD+G9ZHBH+QhQTokPD+/vJzBJzoHQSXSlL8bP57BPizPQG61Cj8GXZHBcu62
QOFTsT/28YjBrym6QHf2OkAyoIrBmBCFQOkEfUAONKPBrcWtQPB/V0CMlJXBUYU+QF8PT0DPdJPB
0ZgMQYh6Pj42EZrBBcQIQZn5wz/td4vBlwizQPypFT/lJ7vBtV0DQfhwpUDmrrzBep6BQNEEJ8CJ
VqTBsYfHQJePLcA02prBsiIFQbwKYUCcyJfBztdvQK1Xhr/6qbPBz9UVQdpAiEA85ajBAqj5QL/u
rT750q/BSCauQJpgm0Bfj7bBXRgpQaGbDz59NKPBTTEgQWvA4z/HXZ/BGz0sQdu0MT9YoJXB3KMF
QZBx7b9ddJfBGUsUQSsLwL+hfKPBcIHBQEbzRD8eRJnBUejJQGQnBb8HfI/BHe2UQMY3jT/SN4nB
4BXEQLDHkj9WAoHBLfakQJeRWkA60YTBiXDbQC6pTkA7J4nBK/0KQCucW0AB75fBkCU+QCVeEUDx
U5HBgPepQKALt79FNaTBpMrKQOBMOr/B+57BzLrxQHO9j0Cey6DB8GKoQKS3ub+1cq/BEekAQbX2
j0DWV6vBTCvpQBBL0L0SO7DBqq66QOfQfEAbPLLBCPjpQED5z7y+BaXBsA+rQHFRekC1sqfBXEXG
QN99hUCzDJ/BYEjIQOyrS78nbrXBsj/mQGCAh0D0DLTBLmWEQOZoaED7LJnBIG3+QHQcRz/vUozB
12MhQVhVDT6beZXByusCQZF0hj++L6DBpELUQPL4yT+Ry4vBSNPfQPG6QEC0XIjBRGa8QOoogUBP
rIrBetCCQMIjZ0DhrKPBQ4ytQKzYfkBb/JXB8ahEQGB9VUDMdpLBFsULQZT5OD+msJXBn5QGQext
vj4N2YPBIDTGQJjoQ7/3M8DBwtH5QD3ViEAzHsHB7vyRQOb7+b9Gmp/Bp03MQBXpOL8PWpbBwzMD
QRRRl0DVIprBLruOQC0M/L8XfbPBzqARQZmclkBiw6zBQwEBQSvGwD6h3LTByXalQOLjcEDI47jB
UXgoQYFBQj5fhZ3BbXIrQb4+Mz8O04/BLWggQYWjab+G6pLB7VIQQfionj+Pr6XBHoDyQC5g+z/x
X5/BcsjEQNaUyz+/spPB3Xy+QGzjjz8A6YXBeznmQGexQEDjan/Bu978QKBaVECvr4zBhQ2hQEEd
dUBIYoXBwtPIQDFsoUA2BYnBcTMRQD3bRkDU2pbBq/tTQCKvI0DK0Y3B1SK4QPRfdb4k2bLBVa/f
QFqVkL5Gcq3BeHT2QOcOc0AUe57B8y+WQJckib+Ch6/BaKYEQShrh0AzHKjBBn7DQMybAMAzhaHB
ZjXCQM4ckkBo56/Bg1XlQNWdlL8ftqTBIJSvQPuig0DrTKbBRoHJQAi8bkBMsZ3BjtibQHI4+r8Z
2abBOTvvQGbck0C9zLDBSQeEQEiAYEDzTZnBWDMAQY0uST9WApLB4PkhQZxoPz/+wJzBlWAHQQQk
k78daZ7BNkHPQPKTCj86bpHBbvC2QN2+sD99/4jBdyC6QPW5OkAJo4rBuReFQGFWfUBAM6PBgMOt
QKOIV0AQlZXB530+QHrzTkCjepPBKqwMQd+uSD4wJZrBoMQIQbu5wz+ZeovBcGB2QO6XL8D7kqPB
RmoDQRTypUAFoLzBvs+zQIR/3D44ibnBGaf5QKY9tj4++6/B+SEFQck6YUDUwpfBJaNvQH0ShL8r
pLPBetsVQfuNiEBi2ajBsA7IQK7dLMCJ+5rBcDuuQOPKm0CqhrbB/jUpQXibIz6oQKPBxkkgQZ26
5T+9UJ/Bc0osQZoYMz9KopXBMd4FQQ267L/qqZfBNHIUQfIvvb/Br6PBfJvBQANkRT/QVJnB3wfK
QCiEBb/Pk4/B3/GUQJSCjD8gSonBFg/EQKjWkT9ZEIHBJ+OkQBgiWkD80YTBTGPbQNFzTkDqJYnB
F/wKQGaVW0AL9ZfBxSI+QOQ0EUDYX5HByz+YQOIL9r+xAafBMH+tQBUyML/IzKfBuOr0QHXvgkCJ
1Z7ByhewQGl1R8CUaabBaXIDQdtWiEAnFanBcGnyQGoW7L9XpKfBAIO/QAt0hEB8HbHB/Z7aQIUl
Jr/b3qfBEMqtQEnFfUC+3qbBtEXIQIP2e0B92Z3BkDHdQHbrRMA8yabBnDjsQMQBiUAJNrLB+tKD
QKu5ZUBeD5nB1Iz3QHpQhT+5TJPB1JocQcbXCD/I053BW5PxQDbmKj/BTKfBmrvGQOdbaj8dcJHB
4ie2QHY55z9GKYjB3xO8QIinVECLU4rBlPSDQI6ycEBufaPBk6ytQAWma0A/S5XBdJY/QFo2VEBq
9ZLB70oFQdDJQD8DQZ3BXkIHQfa+oz90kovBDj/0QND0hsDyDqbBIkwBQZM3j0Dm5b7BQmxrQNlY
+r8s2qbBiFWbQEFraT61WqjB+4wEQS6YgkBF0pfB3MqfQPAOgsBTq6XBa4oUQU35i0B59qnBpXMK
QdkT6L/BH6jB6BarQNo8hUAiFbjB8jkhQaBhpT7rJabBW/skQbnhtz/SB5vB1/4gQaVIo75XupjB
6K0DQe0bQj+bLK7BagjaQJkQvj96hKfBcxm2QFSZmj8a1ZjBW06/QLP7CL7Ijo/B4t2TQBNkzT/m
/4bBpcDHQEKrxT9+1YDBAjGpQO0jeUA7d4TBcCLeQNcSZUD6d4nBujUMQCtFUUD0tpfBhjRHQPIm
HED2N4/BBNH5QECM177Ty6zBcrfoQABQXDox+qLBXYfzQPJ5g0Cb75/BzpfeQLxidr+eprTB91EC
QV03g0D6WqrBIFehQERCLr/4zqjBTdC8QAUbckCvxbHBWE+8QEA7FL6C8aDB0fyrQDC0cUDRVKfB
0xLHQOfFfEDMiJ7BEWayQBh+i78gobLBwUPpQKvyfECORLPB3m6DQDyeaEAx95jBxq3jQJw2tT4v
nYjB5pTFQGYq8L/cf43Bri2pQPiSQz7+P5bBhpbnQJ7f7j/jUYrB3y/CQEZGKECW/4TBA6q7QLxG
gEAtRIrBjKuCQE7HZUCgfKPBnButQIB8eUDdnJXBxtpAQDodW0D8WZLBfr3DQMBbzb69xY3BcykA
QcBwVL5LqIPBHSWYQAKOz7+TD7rB3nT+QCF7f0AzLMDBQ9sNQYc4qb5RUa7BMFf9QHcJ3z7k+pzB
0B4EQf+Hh0AaGJnBipXrQKf2o7+pPbzBVVoTQcWkhkCCiKvBgup+QGgfR78hS6fBUemnQLwwakDR
lLjB8S2qQCCQEsDi65HBNovjQMvqDcC0OZHBTmfEQJAcDsCEJYXBox2oQFlFpD8ZQJXB6YiIQDxR
Xb7AxJXBE/YCQWilDUDt0obBbnDnQEDiBEAw9ZLBmaykQFmGAkA024XBY1XJQIdDMUAV6XjBTXCj
QCcWkkDZsIXB9S3aQCDOkUASE4rBaSUNQAvpTkDaz5bBIHpMQJ5JKUCoi43BmJuzQE/qir/cWrPB
Zm6gQDbaI7/41qnB29PzQItbgUBCsJ/BYnXgQAGDhb94gLTBLI0CQSpIgUAyGKrBcPrmQODWTr01
2KLB7zC9QBh3ckCPnrHBaxG6QDhOCL5PiaHBiTOsQICccUA/M6fBxzzHQDiPekClWp7BiyX6QHbN
Cb9BLKzBccTpQK5me0ARDbPBekGDQPbuaECK6JjBoQPeQHCifj6orIjBXPe+QAlz978JeI7Bo4el
QEhpRD54+ZbBuHTkQK4A4T9hIorBqba/QOnMI0CJ7oTByGS7QGz4fEC2GYrB/LSCQH7sZkBJbqPB
TgitQHTKd0BxeZXBXPA/QOXjW0AgYJLB6kK+QAyE6b4hXo7Bv134QJR3tr7LRIPBaKQSQaZvD7/S
7azBWSf/QJgufkD87r/BrfifQIfuur/nzLnB2jZ8QFnbL7+H56jBi0EEQQ+BhEDNz5jBbyjvQLUH
s78VybvBNKETQW72g0BCOqvBe3X6QL5mxz7gopzBxFCoQKVWbEBbdrjBFwKkQA+0E8CzRJPBAEDd
QOoKEsBC+5HB2Cy8QInVE8ADO4bBfm6lQGYCpD87w5XBaW+EQKwmO77p45bB3XMBQURMA0B3ZYbB
3ITlQMxm/j95vJLBR4mhQNuNAECH/IXBI1zGQH92K0DHr3jBrN6jQOY8kUAPiIXBjqvaQIWYjkCH
0YnBDlQMQCDFUEDA5ZbBuZRKQGeGKUA+n43B4nbTQNmkVMA6kaPBnRbVQD3/9L/GQKPBVmz0QMAl
b0BxGKDBdgr4QHzqgcBCiqbB6aMCQazggECzSarBEwcQQam0/b81xajBuq68QG/BiEBVaLHBAGj7
QGeXnr8t5qXB2gqsQFGYfUBvO6fB37THQB0jbECRsZ7BzSsPQY3gWMDdJanBNHjpQMyWiUC/7bLB
0UODQDmvYkCsPZnB2kv+QCE4ZT+L6pHBxFwhQexLcT84VZzB9839QNYsjT4vnKXBXWbNQDMSIT+c
x5DB9VW3QAUyxj+de4jBIJ+8QHHYQ0AcBYvBdkOCQC5Ld0DGdKPB/L+tQKVaW0DD/pXB22Y/QGrQ
VkBWwZLBYOAJQfwkQj/TzpvBF0oJQTDVmz+m5onBk7kgQQL1gsB9DazB/J3+QLXslUBTfL/BkDC2
QAyRdcCsh6HBOgm5QDzWrL8p/aDBcsgEQetOY0BPbJnBabr2QM5upMD20abBr78TQbBZgUAWf6vB
KMEeQZEwvL8gr6rBVmKnQPuwj0C5/LfBe9YmQYNrTD/NnaTB9HklQXy++j9Kq5nBGjkpQaYhVD6u
GZfBOMkHQdKKID/kqqzBayLdQP1BLz9IyqXBxDW+QOtYSj/anJjBrsXIQN8m1b77TI7BlPmUQCS7
pz/WVIjBPlTFQEOorD9DkYDBzvWpQGvDaEAYKIXBgq/eQGadVEDVS4rBQyoKQAxTYECQCJfBv4w/
QMYcG0B534/BSZX1QFVuRMCPWpjB0DABQaSR9r9SBp7BDxn1QORugED11p7BBPzJQLEDW8DLBZjB
g6YDQRR8g0BkH6nBtg24QJRTvr/7C6PBZQXAQGs9fUChKbHBVU/jQKKejL8p6qLBuRquQAWEdkDH
4abBt3PIQOJGd0Dd153BX26rQOh+KcC4lJ3BjMrsQOJZgkC6RbLBbsuDQHvfZEC3/JjBKZH1QMoM
iT8JKZPBRgIbQZcFiz+Y557BZ0bvQMi1lT5GYqbBTznFQPN5YD/92ZDBa9i0QILH5z/EzIfBGaq7
QGFoVEBJNorBiBuEQAOHbEAGdqPBwautQFnLaUBWPpXBxyE/QFMtV0B3zpLB/K4DQV4ObT80g53B
K5YGQZDlqD/kk4vBjLuBQFclQMAse53Bc7MBQSqZhUAHAL/BsIYGQdo1a8CMQ5TBcvYRQS7e1r8G
qJ7BWpAEQfTAgUB1zpfB1OO/QJ4uicAwgZPBl8MUQe6whkCuAqrBDLigQGZiZb9HUqfBhLGrQL+y
fEBSJrjB0zAfQexKcT8KYKfBFcgfQa0nBkBmXZzBlm4jQVuKrT4dAprBc7MBQR/mfD4hmK3BjDTS
QKa7Xz8jHKjBcSCzQF7Miz9DM5jBFb+/QH+hK75SdI7BLWeSQGrf0D/ErobBhwPGQFrcxz+PYYDB
vfuoQNqOekAxeoTBGtfdQNfQY0BZW4nBWqsLQFoNVEDei5fBUVJFQP4rIEBqyo7B

> <OMEGA_E>
XNGfPoS/oj6oMac+cB6qPjDlqz4IqMs+EPblPjgz7j4QRxM/kD/9Pg==

> <OMEGA_NBR>
    134041

$$$$
